
###############################################################################
#
# This file contains modified crystal structure data generated from the
# MOF subset of the Cambridge Structural Database (CSD) v543 
# hosted by the Cambridge Crystallographic Data Centre (CCDC).
#
# This work is licensed under the Creative Commons
# Attribution-NonCommercial-ShareAlike 4.0 International License.
# To view a copy of this license, visit
# http://creativecommons.org/licenses/by-nc-sa/4.0/
# or send a letter to
# Creative Commons, PO Box 1866, Mountain View, CA 94042, USA.
#
# CIF created using the CSD Python API on 29 September 2022
# The structure has been converted into the P1 space group
# The structure has a 3D framework
# The original CSD entry ABAZAF01 is in the monoclinic crystal system
# The framework has been calculated to contain at least 10.0% void space
# The void calculation uses a probe of radius 1.32A, grid spacing 0.4
#
###############################################################################

data_ABAZAF01
_chemical_formula_moiety         '(C80 H56 N8 O20 Zn4)n'
_symmetry_cell_setting           triclinic
_symmetry_space_group_name_H-M   'P 1'
_symmetry_Int_Tables_number      1
_space_group_name_Hall           'P 1'
loop_
_symmetry_equiv_pos_site_id
_symmetry_equiv_pos_as_xyz
1 x,y,z
_cell_length_a                   12.8286(17)
_cell_length_b                   13.0650(19)
_cell_length_c                   13.8347(19)
_cell_angle_alpha                90
_cell_angle_beta                 102.683(3)
_cell_angle_gamma                90
_cell_volume                     2262.2
loop_
_atom_site_label
_atom_site_type_symbol
_atom_site_fract_x
_atom_site_fract_y
_atom_site_fract_z
Zn3 Zn 0.13779(6) 0.06702(6) 0.69565(5)
O4 O 0.0566(4) 0.2344(4) 0.7467(4)
O5 O 0.0754(3) 0.1751(3) 0.6036(3)
C7 C 0.0425(5) 0.2408(5) 0.6554(5)
O1 O 0.2436(4) 0.0475(4) 0.8150(3)
O2 O 0.3441(4) 0.1801(4) 0.7955(3)
C1 C 0.3169(6) 0.1111(5) 0.8451(5)
C2 C 0.3718(5) 0.0997(5) 0.9535(4)
H4 H 0.4543 0.2315 0.9659
H8 H 0.1212 0.0483 0.4762
N2 N 0.0240(4) 0.9831(4) 0.7451(4)
C19 C 0.0057(5) 0.8843(5) 0.7249(4)
H13 H 0.0340 0.8555 0.6748
Zn1 Zn 0.63779(6) 0.43298(6) 0.19565(5)
N1 N 0.6867(4) 0.5274(4) 0.0968(4)
O1_2 O 0.7436(4) 0.4525(4) 0.3150(3)
O2_2 O 0.8441(4) 0.3199(4) 0.2955(3)
O3 O 0.8734(4) 0.5747(4) 0.6623(3)
H1 H 0.8344 0.6152 0.6258
C1_2 C 0.8169(6) 0.3889(5) 0.3451(5)
C2_2 C 0.8718(5) 0.4003(5) 0.4535(4)
C3 C 0.8494(5) 0.4837(5) 0.5077(5)
H2 H 0.8036 0.5348 0.4764
C4 C 0.8943(5) 0.4915(5) 0.6074(5)
C5 C 0.9584(5) 0.4145(5) 0.6541(4)
H3 H 0.9876 0.4193 0.7217
C6 C 0.9803(5) 0.3301(5) 0.6024(5)
C8 C 0.9380(5) 0.3243(5) 0.5016(4)
H4_2 H 0.9543 0.2685 0.4659
C9 C 0.7502(5) 0.6076(5) 0.1274(5)
H5 H 0.7661 0.6235 0.1945
C10 C 0.7930(5) 0.6676(5) 0.0645(5)
H6 H 0.8361 0.7231 0.0892
N3 N 0.5240(4) 0.5169(4) 0.2451(4)
O6 O 0.5754(3) 0.3249(3) 0.1036(3)
O4_2 O 0.5566(4) 0.2656(4) 0.2467(4)
C3_2 C 0.3494(5) 0.0163(5) 0.0077(5)
C4_2 C 0.3943(5) 0.0085(5) 0.1074(5)
C5_2 C 0.4584(5) 0.0855(5) 0.1541(4)
H3_2 H 0.4876 0.0807 0.2217
C6_2 C 0.4803(5) 0.1699(5) 0.1024(5)
C7_2 C 0.5425(5) 0.2592(5) 0.1554(5)
C8_2 C 0.4380(5) 0.1757(5) 0.0016(4)
N1_2 N 0.1867(4) 0.9726(4) 0.5968(4)
H2_2 H 0.3036 0.9652 0.9764
C9_2 C 0.2502(5) 0.8924(5) 0.6274(5)
H5_2 H 0.2661 0.8765 0.6945
C10_2 C 0.2930(5) 0.8324(5) 0.5645(5)
H6_2 H 0.3361 0.7769 0.5892
C11 C 0.2723(5) 0.8546(5) 0.4639(5)
C12 C 0.2071(5) 0.9380(5) 0.4324(5)
H7 H 0.1914 0.9564 0.3658
C13 C 0.1659(5) 0.9934(5) 0.4994(5)
C14 C 0.3202(5) 0.7949(6) 0.3950(5)
H9 H 0.3327 0.8278 0.3390
C15 C 0.3460(5) 0.6992(6) 0.4075(5)
H10 H 0.3262 0.6661 0.4602
C16 C 0.4032(5) 0.6379(5) 0.3474(5)
C17 C 0.4196(6) 0.5338(5) 0.3670(5)
H11 H 0.3889 0.5024 0.4143
C18 C 0.4808(6) 0.4776(5) 0.3167(5)
H12 H 0.4928 0.4089 0.3331
C19_2 C 0.5057(5) 0.6157(5) 0.2249(4)
H13_2 H 0.5340 0.6445 0.1748
C20 C 0.4477(5) 0.6776(5) 0.2735(5)
H14 H 0.4384 0.7464 0.2565
C18_2 C 0.9808(6) 0.0224(5) 0.8167(5)
H12_2 H 0.9928 0.0911 0.8331
C11_2 C 0.7723(5) 0.6454(5) 0.9639(5)
C12_2 C 0.7071(5) 0.5620(5) 0.9324(5)
H7_2 H 0.6914 0.5436 0.8658
C13_2 C 0.6659(5) 0.5066(5) 0.9994(5)
H8_2 H 0.6212 0.4517 0.9762
C14_2 C 0.8202(5) 0.7051(6) 0.8950(5)
H9_2 H 0.8327 0.6722 0.8390
C15_2 C 0.8460(5) 0.8008(6) 0.9075(5)
H10_2 H 0.8262 0.8339 0.9602
C16_2 C 0.9032(5) 0.8621(5) 0.8474(5)
C17_2 C 0.9196(6) 0.9662(5) 0.8670(5)
H11_2 H 0.8889 0.9976 0.9143
C20_2 C 0.9477(5) 0.8224(5) 0.7735(5)
H14_2 H 0.9384 0.7536 0.7565
N1_3 N 0.8133(4) 0.0274(4) 0.4032(4)
N2_2 N 0.4760(4) 0.4831(4) 0.7549(4)
H2_3 H 0.6964 0.0348 0.0236
C9_3 C 0.7498(5) 0.1076(5) 0.3726(5)
H5_3 H 0.7339 0.1235 0.3055
C10_3 C 0.7070(5) 0.1676(5) 0.4355(5)
H6_3 H 0.6639 0.2231 0.4108
C11_3 C 0.7277(5) 0.1454(5) 0.5361(5)
C12_3 C 0.7929(5) 0.0620(5) 0.5676(5)
H7_3 H 0.8086 0.0436 0.6342
C13_3 C 0.8341(5) 0.0066(5) 0.5006(5)
C14_3 C 0.6798(5) 0.2051(6) 0.6050(5)
H9_3 H 0.6673 0.1722 0.6610
C15_3 C 0.6540(5) 0.3008(6) 0.5925(5)
H10_3 H 0.6738 0.3339 0.5398
C16_3 C 0.5968(5) 0.3621(5) 0.6526(5)
C17_3 C 0.5804(6) 0.4662(5) 0.6330(5)
H11_3 H 0.6111 0.4976 0.5857
C18_3 C 0.5192(6) 0.5224(5) 0.6833(5)
H12_3 H 0.5072 0.5911 0.6669
C19_3 C 0.4943(5) 0.3843(5) 0.7751(4)
H13_3 H 0.4660 0.3555 0.8252
C20_3 C 0.5523(5) 0.3224(5) 0.7265(5)
H14_3 H 0.5616 0.2536 0.7435
Zn3_2 Zn 0.36221(6) 0.56702(6) 0.80435(5)
N3_2 N 0.9760(4) 0.0169(4) 0.2549(4)
O4_3 O 0.4434(4) 0.7344(4) 0.7533(4)
O5_2 O 0.4246(3) 0.6751(3) 0.8964(3)
C3_3 C 0.6506(5) 0.9837(5) 0.9923(5)
C4_3 C 0.6057(5) 0.9915(5) 0.8926(5)
C5_3 C 0.5416(5) 0.9145(5) 0.8459(4)
H3_3 H 0.5124 0.9193 0.7783
C6_3 C 0.5197(5) 0.8301(5) 0.8976(5)
C7_3 C 0.4575(5) 0.7408(5) 0.8446(5)
C8_3 C 0.5620(5) 0.8243(5) 0.9984(4)
N1_4 N 0.3133(4) 0.4726(4) 0.9032(4)
O1_3 O 0.2564(4) 0.5475(4) 0.6850(3)
O2_3 O 0.1559(4) 0.6801(4) 0.7045(3)
O3_2 O 0.1266(4) 0.4253(4) 0.3377(3)
H1_2 H 0.1656 0.3848 0.3742
C1_3 C 0.1831(6) 0.6111(5) 0.6549(5)
C2_3 C 0.1282(5) 0.5997(5) 0.5465(4)
C3_4 C 0.1506(5) 0.5163(5) 0.4923(5)
H2_4 H 0.1964 0.4652 0.5236
C4_4 C 0.1057(5) 0.5085(5) 0.3926(5)
C5_4 C 0.0416(5) 0.5855(5) 0.3459(4)
H3_4 H 0.0124 0.5807 0.2783
C6_4 C 0.0197(5) 0.6699(5) 0.3976(5)
C8_4 C 0.0620(5) 0.6757(5) 0.4984(4)
H4_3 H 0.0457 0.7315 0.5341
C9_4 C 0.2498(5) 0.3924(5) 0.8726(5)
H5_4 H 0.2339 0.3765 0.8055
C10_4 C 0.2070(5) 0.3324(5) 0.9355(5)
H6_4 H 0.1639 0.2769 0.9108
C19_4 C 0.9943(5) 0.1157(5) 0.2751(4)
H13_4 H 0.9660 0.1445 0.3252
O3_3 O 0.6266(4) 0.0747(4) 0.8377(3)
H1_3 H 0.6656 0.1152 0.8742
Zn1_2 Zn 0.86221(6) 0.93298(6) 0.30435(5)
O1_4 O 0.7564(4) 0.9525(4) 0.1850(3)
O2_4 O 0.6559(4) 0.8199(4) 0.2045(3)
C1_4 C 0.6831(6) 0.8889(5) 0.1549(5)
C2_4 C 0.6282(5) 0.9003(5) 0.0465(4)
H4_4 H 0.5457 0.7685 0.0341
H8_3 H 0.8788 0.9517 0.5238
O6_2 O 0.9246(3) 0.8249(3) 0.3964(3)
O4_4 O 0.9434(4) 0.7656(4) 0.2533(4)
C7_4 C 0.9575(5) 0.7592(5) 0.3446(5)
C11_4 C 0.2277(5) 0.3546(5) 0.0361(5)
C12_4 C 0.2929(5) 0.4380(5) 0.0676(5)
H7_4 H 0.3086 0.4564 0.1342
C13_4 C 0.3341(5) 0.4934(5) 0.0006(5)
H8_4 H 0.3788 0.5483 0.0238
C14_4 C 0.1798(5) 0.2949(6) 0.1050(5)
H9_4 H 0.1673 0.3278 0.1610
C15_4 C 0.1540(5) 0.1992(6) 0.0925(5)
H10_4 H 0.1738 0.1661 0.0398
C16_4 C 0.0968(5) 0.1379(5) 0.1526(5)
C17_4 C 0.0804(6) 0.0338(5) 0.1330(5)
H11_4 H 0.1111 0.0024 0.0857
C20_4 C 0.0523(5) 0.1776(5) 0.2265(5)
H14_4 H 0.0616 0.2464 0.2435
C18_4 C 0.0192(6) 0.9776(5) 0.1833(5)
H12_4 H 0.0072 0.9089 0.1669
O3_4 O 0.3734(4) 0.9253(4) 0.1623(3)
H1_4 H 0.3344 0.8848 0.1258
loop_
_geom_bond_atom_site_label_1
_geom_bond_atom_site_label_2
_geom_bond_site_symmetry_1
_geom_bond_site_symmetry_2
O4 C7 1_555 1_555
O5 C7 1_555 1_555
Zn3 O5 1_555 1_555
O1 Zn3 1_555 1_555
O2 C1 1_555 1_555
C1 O1 1_555 1_555
C2 C1 1_555 1_555
C19 N2 1_555 1_555
H13 C19 1_555 1_555
Zn1 N1 1_555 1_555
N1 C9 1_555 1_555
O1_2 Zn1 1_555 1_555
O2_2 C1_2 1_555 1_555
O3 H1 1_555 1_555
C1_2 O1_2 1_555 1_555
C2_2 C1_2 1_555 1_555
C3 C2_2 1_555 1_555
H2 C3 1_555 1_555
C4 O3 1_555 1_555
C5 C4 1_555 1_555
H3 C5 1_555 1_555
C6 C5 1_555 1_555
C8 C2_2 1_555 1_555
H4_2 C8 1_555 1_555
C9 H5 1_555 1_555
C10 C9 1_555 1_555
H6 C10 1_555 1_555
N3 Zn1 1_555 1_555
O6 Zn1 1_555 1_555
C3 C4 1_555 1_555
C6 C8 1_555 1_555
O4_2 C7_2 1_555 1_555
O6 C7_2 1_555 1_555
C5_2 C4_2 1_555 1_555
H3_2 C5_2 1_555 1_555
C6_2 C5_2 1_555 1_555
C7_2 C6_2 1_555 1_555
C3_2 C4_2 1_555 1_555
C6_2 C8_2 1_555 1_555
N1_2 C9_2 1_555 1_555
N3 C18 1_555 1_555
C9_2 H5_2 1_555 1_555
C10_2 C9_2 1_555 1_555
H6_2 C10_2 1_555 1_555
C11 C10_2 1_555 1_555
C12 C11 1_555 1_555
H7 C12 1_555 1_555
C13 N1_2 1_555 1_555
C14 C11 1_555 1_555
H9 C14 1_555 1_555
C15 C14 1_555 1_555
H10 C15 1_555 1_555
C16 C15 1_555 1_555
C17 C16 1_555 1_555
H11 C17 1_555 1_555
C18 C17 1_555 1_555
H12 C18 1_555 1_555
C19_2 N3 1_555 1_555
H13_2 C19_2 1_555 1_555
C20 C16 1_555 1_555
H14 C20 1_555 1_555
C12 C13 1_555 1_555
C19_2 C20 1_555 1_555
H12_2 C18_2 1_555 1_555
C12_2 C11_2 1_555 1_555
H7_2 C12_2 1_555 1_555
H8_2 C13_2 1_555 1_555
C14_2 C11_2 1_555 1_555
H9_2 C14_2 1_555 1_555
C15_2 C14_2 1_555 1_555
H10_2 C15_2 1_555 1_555
C16_2 C15_2 1_555 1_555
C17_2 C16_2 1_555 1_555
H11_2 C17_2 1_555 1_555
C20_2 C16_2 1_555 1_555
H14_2 C20_2 1_555 1_555
C12_2 C13_2 1_555 1_555
N1_3 C9_3 1_555 1_555
N2_2 C18_3 1_555 1_555
C9_3 H5_3 1_555 1_555
C10_3 C9_3 1_555 1_555
H6_3 C10_3 1_555 1_555
C11_3 C10_3 1_555 1_555
C12_3 C11_3 1_555 1_555
H7_3 C12_3 1_555 1_555
C13_3 N1_3 1_555 1_555
C14_3 C11_3 1_555 1_555
H9_3 C14_3 1_555 1_555
C15_3 C14_3 1_555 1_555
H10_3 C15_3 1_555 1_555
C16_3 C15_3 1_555 1_555
C17_3 C16_3 1_555 1_555
H11_3 C17_3 1_555 1_555
C18_3 C17_3 1_555 1_555
H12_3 C18_3 1_555 1_555
C19_3 N2_2 1_555 1_555
H13_3 C19_3 1_555 1_555
C20_3 C16_3 1_555 1_555
H14_3 C20_3 1_555 1_555
Zn3_2 N2_2 1_555 1_555
C12_3 C13_3 1_555 1_555
C19_3 C20_3 1_555 1_555
O4_3 C7_3 1_555 1_555
O5_2 C7_3 1_555 1_555
C5_3 C4_3 1_555 1_555
H3_3 C5_3 1_555 1_555
C6_3 C5_3 1_555 1_555
C7_3 C6_3 1_555 1_555
Zn3_2 O5_2 1_555 1_555
C3_3 C4_3 1_555 1_555
C6_3 C8_3 1_555 1_555
Zn3_2 N1_4 1_555 1_555
N1_4 C9_4 1_555 1_555
O1_3 Zn3_2 1_555 1_555
O2_3 C1_3 1_555 1_555
O3_2 H1_2 1_555 1_555
C1_3 O1_3 1_555 1_555
C2_3 C1_3 1_555 1_555
C3_4 C2_3 1_555 1_555
H2_4 C3_4 1_555 1_555
C4_4 O3_2 1_555 1_555
C5_4 C4_4 1_555 1_555
H3_4 C5_4 1_555 1_555
C6_4 C5_4 1_555 1_555
C8_4 C2_3 1_555 1_555
H4_3 C8_4 1_555 1_555
C9_4 H5_4 1_555 1_555
C10_4 C9_4 1_555 1_555
H6_4 C10_4 1_555 1_555
C3_4 C4_4 1_555 1_555
C6_4 C8_4 1_555 1_555
C19_4 N3_2 1_555 1_555
H13_4 C19_4 1_555 1_555
O3_3 H1_3 1_555 1_555
O1_4 Zn1_2 1_555 1_555
O2_4 C1_4 1_555 1_555
C1_4 O1_4 1_555 1_555
C2_4 C1_4 1_555 1_555
O6_2 Zn1_2 1_555 1_555
O4_4 C7_4 1_555 1_555
O6_2 C7_4 1_555 1_555
C12_4 C11_4 1_555 1_555
H7_4 C12_4 1_555 1_555
H8_4 C13_4 1_555 1_555
C14_4 C11_4 1_555 1_555
H9_4 C14_4 1_555 1_555
C15_4 C14_4 1_555 1_555
H10_4 C15_4 1_555 1_555
C16_4 C15_4 1_555 1_555
C17_4 C16_4 1_555 1_555
H11_4 C17_4 1_555 1_555
C20_4 C16_4 1_555 1_555
H14_4 C20_4 1_555 1_555
C12_4 C13_4 1_555 1_555
H12_4 C18_4 1_555 1_555
O3_4 H1_4 1_555 1_555

#END
