
###############################################################################
#
# This file contains modified crystal structure data generated from the
# MOF subset of the Cambridge Structural Database (CSD) v543 
# hosted by the Cambridge Crystallographic Data Centre (CCDC).
#
# This work is licensed under the Creative Commons
# Attribution-NonCommercial-ShareAlike 4.0 International License.
# To view a copy of this license, visit
# http://creativecommons.org/licenses/by-nc-sa/4.0/
# or send a letter to
# Creative Commons, PO Box 1866, Mountain View, CA 94042, USA.
#
# CIF created using the CSD Python API on 29 September 2022
# The structure has been converted into the P1 space group
# The structure has a 3D framework
# The original CSD entry ABELIG is in the tetragonal crystal system
# The framework has been calculated to contain at least 10.0% void space
# The void calculation uses a probe of radius 1.32A, grid spacing 0.4
#
###############################################################################

data_ABELIG
_chemical_formula_moiety         '(C186 H128 Cu8 I8 N16)n'
_symmetry_cell_setting           triclinic
_symmetry_space_group_name_H-M   'P 1'
_symmetry_Int_Tables_number      1
_space_group_name_Hall           'P 1'
loop_
_symmetry_equiv_pos_site_id
_symmetry_equiv_pos_as_xyz
1 x,y,z
_cell_length_a                   27.36350(10)
_cell_length_b                   27.36350(10)
_cell_length_c                   7.07260(1)
_cell_angle_alpha                90
_cell_angle_beta                 90
_cell_angle_gamma                90
_cell_volume                     5295.69
loop_
_atom_site_label
_atom_site_type_symbol
_atom_site_fract_x
_atom_site_fract_y
_atom_site_fract_z
C1 C 0.500000 0.500000 0.000000
H6 H 0.696207 0.202067 0.041229
C9 C 0.6550(3) 0.1406(3) 0.0526(9)
H7 H 0.660578 0.133972 0.182646
N4 N 0.2920(2) 0.3429(2) 0.5002(8)
C36 C 0.2874(3) 0.3523(4) 0.6864(10)
H25 H 0.262866 0.335717 0.756349
C37 C 0.3260(2) 0.3674(2) 0.4048(10)
H26 H 0.328585 0.361699 0.272672
C38 C 0.3172(4) 0.3850(5) 0.7787(12)
H27 H 0.313354 0.390538 0.910471
C39 C 0.3522(4) 0.4095(4) 0.6800(12)
H28 H 0.372514 0.432466 0.742783
C40 C 0.3583(3) 0.4010(3) 0.4876(10)
C41 C 0.4182(3) 0.4003(3) 0.2223(10)
H29 H 0.410489 0.366770 0.203272
C42 C 0.4422(2) 0.4968(2) 0.2787(9)
H30 H 0.450972 0.529834 0.301292
C43 C 0.3951(2) 0.4256(3) 0.3663(9)
C44 C 0.4642(2) 0.4717(2) 0.1287(8)
C45 C 0.4080(2) 0.4747(3) 0.3955(10)
H31 H 0.393256 0.492810 0.495028
C46 C 0.4525(2) 0.4227(2) 0.1040(10)
H32 H 0.467867 0.404315 0.006581
N5 N 0.7080(2) 0.6571(2) 0.5002(8)
C47 C 0.7126(3) 0.6477(4) 0.6864(10)
H33 H 0.737134 0.664283 0.756349
C48 C 0.6740(2) 0.6326(2) 0.4048(10)
H34 H 0.671415 0.638301 0.272672
C49 C 0.6828(4) 0.6150(5) 0.7787(12)
H35 H 0.686646 0.609462 0.910471
C50 C 0.6478(4) 0.5905(4) 0.6800(12)
H36 H 0.627486 0.567534 0.742783
C51 C 0.6417(3) 0.5990(3) 0.4876(10)
C52 C 0.5818(3) 0.5997(3) 0.2223(10)
H37 H 0.589511 0.633230 0.203272
C53 C 0.5578(2) 0.5032(2) 0.2787(9)
H38 H 0.549028 0.470166 0.301292
C54 C 0.6049(2) 0.5744(3) 0.3663(9)
C55 C 0.5358(2) 0.5283(2) 0.1287(8)
C56 C 0.5920(2) 0.5253(3) 0.3955(10)
H39 H 0.606744 0.507190 0.495028
C57 C 0.5475(2) 0.5773(2) 0.1040(10)
H40 H 0.532133 0.595685 0.006581
I3 I 0.75648(2) 0.19616(2) 0.40808(5)
Cu3 Cu 0.79558(3) 0.25188(3) 0.14876(11)
N13 N 0.8320(2) 0.3066(2) 0.2880(8)
Cu5 Cu 0.70442(3) 0.24812(3) 0.64876(11)
Cu7 Cu 0.24812(3) 0.29558(3) 0.35124(11)
Cu8 Cu 0.75188(3) 0.70442(3) 0.35124(11)
N1 N 0.6571(2) 0.2920(2) 0.4998(8)
C1_2 C 0.500000 0.500000 1.000000
C2 C 0.5569(2) 0.1132(2) 0.4934(9)
H1 H 0.555750 0.147797 0.484244
C3 C 0.6173(2) 0.1210(2) 0.7570(9)
C4 C 0.6477(4) 0.2874(3) 0.3136(10)
H2 H 0.664283 0.262866 0.243651
C5 C 0.6326(2) 0.3260(2) 0.5952(10)
H3 H 0.638301 0.328585 0.727328
C6 C 0.6150(5) 0.3172(4) 0.2213(12)
H4 H 0.609462 0.313354 0.089529
C7 C 0.5905(4) 0.3522(4) 0.3200(12)
H5 H 0.567534 0.372514 0.257217
C8 C 0.6757(3) 0.1816(3) 0.9674(10)
N2 N 0.6680(2) 0.1934(2) 0.7880(8)
C10 C 0.6260(3) 0.1094(3) 0.9446(10)
H8 H 0.612414 0.080651 0.998750
C11 C 0.6392(2) 0.1635(2) 0.6864(9)
H9 H 0.633307 0.171793 0.557953
I1 I 0.74352(2) 0.30384(2) 0.90808(5)
C12 C 0.5582(2) 0.0124(2) 0.5239(9)
C13 C 0.5864(2) 0.0404(2) 0.6446(9)
H11 H 0.605854 0.024908 0.738351
C14 C 0.5296(2) 0.0340(2) 0.3804(8)
C15 C 0.500000 0.000000 0.250000
C16 C 0.5990(3) 0.3583(3) 0.5124(10)
C17 C 0.5997(3) 0.4182(3) 0.7777(10)
H12 H 0.633230 0.410489 0.796728
C18 C 0.5289(2) 0.0847(2) 0.3702(8)
H13 H 0.509058 0.100289 0.277940
C19 C 0.5032(2) 0.4422(2) 0.7213(9)
H14 H 0.470166 0.450972 0.698708
C20 C 0.5744(3) 0.3951(2) 0.6337(9)
C21 C 0.5283(2) 0.4642(2) 0.8713(8)
C22 C 0.5867(2) 0.0912(2) 0.6300(8)
C23 C 0.5253(3) 0.4080(2) 0.6045(10)
H15 H 0.507190 0.393256 0.504972
C24 C 0.5773(2) 0.4525(2) 0.8960(10)
H16 H 0.595685 0.467867 0.993419
N3 N 0.3429(2) 0.7080(2) 0.4998(8)
C25 C 0.3523(4) 0.7126(3) 0.3136(10)
H17 H 0.335717 0.737134 0.243651
C26 C 0.3674(2) 0.6740(2) 0.5952(10)
H18 H 0.361699 0.671415 0.727328
C27 C 0.3850(5) 0.6828(4) 0.2213(12)
H19 H 0.390538 0.686646 0.089529
C28 C 0.4095(4) 0.6478(4) 0.3200(12)
H20 H 0.432466 0.627486 0.257217
C29 C 0.4010(3) 0.6417(3) 0.5124(10)
C30 C 0.4003(3) 0.5818(3) 0.7777(10)
H21 H 0.366770 0.589511 0.796728
C31 C 0.4968(2) 0.5578(2) 0.7213(9)
H22 H 0.529834 0.549028 0.698708
C32 C 0.4256(3) 0.6049(2) 0.6337(9)
C33 C 0.4717(2) 0.5358(2) 0.8713(8)
C34 C 0.4747(3) 0.5920(2) 0.6045(10)
H23 H 0.492810 0.606744 0.504972
C35 C 0.4227(2) 0.5475(2) 0.8960(10)
H24 H 0.404315 0.532133 0.993419
H46 H 0.441970 0.022122 0.537976
C80 C 0.3868(2) 0.0569(2) 0.0066(9)
H57 H 0.352203 0.055750 0.015756
C88 C 0.4660(2) 0.0296(2) 0.1196(8)
C89 C 0.4153(2) 0.0289(2) 0.1298(8)
H64 H 0.399711 0.009058 0.222060
N11 N 0.8429(2) 0.2080(2) 0.9998(8)
Cu6 Cu 0.29558(3) 0.75188(3) 0.64876(11)
C81 C 0.3790(2) 0.1173(2) 0.7430(9)
C82 C 0.3184(3) 0.1757(3) 0.5326(10)
H58 H 0.297933 0.196207 0.458771
N8 N 0.3066(2) 0.1680(2) 0.7120(8)
C83 C 0.3594(3) 0.1550(3) 0.4474(9)
H59 H 0.366028 0.160578 0.317354
C84 C 0.3906(3) 0.1260(3) 0.5554(10)
H60 H 0.419349 0.112414 0.501250
C85 C 0.3365(2) 0.1392(2) 0.8136(9)
H61 H 0.328207 0.133307 0.942047
C86 C 0.4876(2) 0.0582(2) 0.9761(9)
H62 H 0.522122 0.058030 0.962024
C87 C 0.4596(2) 0.0864(2) 0.8554(9)
H63 H 0.475092 0.105854 0.761649
C90 C 0.4088(2) 0.0867(2) 0.8700(8)
Cu11 Cu 0.25188(3) 0.20442(3) 0.85124(11)
H42 H 0.303793 0.797933 0.041229
C61 C 0.3450(3) 0.8594(3) 0.0526(9)
H43 H 0.339422 0.866028 0.182646
Cu9 Cu 0.20442(3) 0.74812(3) 0.14876(11)
H10 H 0.558030 0.977878 0.537976
C15_2 C 0.500000 1.000000 0.250000
C58 C 0.4431(2) 0.8868(2) 0.4934(9)
H41 H 0.444250 0.852203 0.484244
C59 C 0.3827(2) 0.8790(2) 0.7570(9)
C60 C 0.3243(3) 0.8184(3) 0.9674(10)
N6 N 0.3320(2) 0.8066(2) 0.7880(8)
C62 C 0.3740(3) 0.8906(3) 0.9446(10)
H44 H 0.387586 0.919349 0.998750
C63 C 0.3608(2) 0.8365(2) 0.6864(9)
H45 H 0.366693 0.828207 0.557953
C64 C 0.4418(2) 0.9876(2) 0.5239(9)
C65 C 0.4136(2) 0.9596(2) 0.6446(9)
H47 H 0.394146 0.975092 0.738351
C66 C 0.4704(2) 0.9660(2) 0.3804(8)
C67 C 0.4711(2) 0.9153(2) 0.3702(8)
H48 H 0.490942 0.899711 0.277940
C68 C 0.4133(2) 0.9088(2) 0.6300(8)
C69 C 0.6132(2) 0.9431(2) 0.0066(9)
H49 H 0.647797 0.944250 0.015756
C77 C 0.5340(2) 0.9704(2) 0.1196(8)
C78 C 0.5847(2) 0.9711(2) 0.1298(8)
H56 H 0.600289 0.990942 0.222060
I2 I 0.25648(2) 0.69616(2) 0.90808(5)
I6 I 0.24352(2) 0.80384(2) 0.40808(5)
C70 C 0.6210(2) 0.8827(2) 0.7430(9)
C71 C 0.6816(3) 0.8243(3) 0.5326(10)
H50 H 0.702067 0.803793 0.458771
N7 N 0.6934(2) 0.8320(2) 0.7120(8)
C72 C 0.6406(3) 0.8450(3) 0.4474(9)
H51 H 0.633972 0.839422 0.317354
C73 C 0.6094(3) 0.8740(3) 0.5554(10)
H52 H 0.580651 0.887586 0.501250
C74 C 0.6635(2) 0.8608(2) 0.8136(9)
H53 H 0.671793 0.866693 0.942047
C75 C 0.5124(2) 0.9418(2) 0.9761(9)
H54 H 0.477878 0.941970 0.962024
C76 C 0.5404(2) 0.9136(2) 0.8554(9)
H55 H 0.524908 0.894146 0.761649
C79 C 0.5912(2) 0.9133(2) 0.8700(8)
Cu10 Cu 0.74812(3) 0.79558(3) 0.85124(11)
N13_2 N 0.1680(2) 0.6934(2) 0.2880(8)
N11_2 N 0.1571(2) 0.7920(2) 0.9998(8)
C81_2 C 0.1173(2) 0.6210(2) 0.2570(9)
C82_2 C 0.1757(3) 0.6816(3) 0.4674(10)
H58_2 H 0.196207 0.702067 0.541229
C83_2 C 0.1550(3) 0.6406(3) 0.5526(9)
H59_2 H 0.160578 0.633972 0.682646
C84_2 C 0.1260(3) 0.6094(3) 0.4446(10)
H60_2 H 0.112414 0.580651 0.498750
C85_2 C 0.1392(2) 0.6635(2) 0.1864(9)
H61_2 H 0.133307 0.671793 0.057953
C86_2 C 0.0582(2) 0.5124(2) 0.0239(9)
H62_2 H 0.058030 0.477878 0.037976
C87_2 C 0.0864(2) 0.5404(2) 0.1446(9)
H63_2 H 0.105854 0.524908 0.238351
C90_2 C 0.0867(2) 0.5912(2) 0.1300(8)
N10 N 0.2080(2) 0.1571(2) 0.0002(8)
I5 I 0.30384(2) 0.25648(2) 0.09192(5)
C2_2 C 0.1132(2) 0.4431(2) 0.5066(9)
H1_2 H 0.147797 0.444250 0.515756
C3_2 C 0.1210(2) 0.3827(2) 0.2430(9)
C8_2 C 0.1816(3) 0.3243(3) 0.0326(10)
N2_2 N 0.1934(2) 0.3320(2) 0.2120(8)
C10_2 C 0.1094(3) 0.3740(3) 0.0554(10)
H8_2 H 0.080651 0.387586 0.001250
C11_2 C 0.1635(2) 0.3608(2) 0.3136(9)
H9_2 H 0.171793 0.366693 0.442047
C12_2 C 0.0124(2) 0.4418(2) 0.4761(9)
C13_2 C 0.0404(2) 0.4136(2) 0.3554(9)
H11_2 H 0.024908 0.394146 0.261649
C14_2 C 0.0340(2) 0.4704(2) 0.6196(8)
C15_3 C 0.000000 0.500000 0.750000
C18_2 C 0.0847(2) 0.4711(2) 0.6298(8)
H13_2 H 0.100289 0.490942 0.722060
C22_2 C 0.0912(2) 0.4133(2) 0.3700(8)
H46_2 H 0.022122 0.558030 0.462024
C80_2 C 0.0569(2) 0.6132(2) 0.9934(9)
H57_2 H 0.055750 0.647797 0.984244
C88_2 C 0.0296(2) 0.5340(2) 0.8804(8)
C89_2 C 0.0289(2) 0.5847(2) 0.8702(8)
H64_2 H 0.009058 0.600289 0.777940
I4 I 0.19616(2) 0.24352(2) 0.59192(5)
H6_2 H 0.202067 0.303793 0.958771
C9_2 C 0.1406(3) 0.3450(3) 0.9474(9)
H7_2 H 0.133972 0.339422 0.817354
C70_2 C 0.8827(2) 0.3790(2) 0.2570(9)
C71_2 C 0.8243(3) 0.3184(3) 0.4674(10)
H50_2 H 0.803793 0.297933 0.541229
C72_2 C 0.8450(3) 0.3594(3) 0.5526(9)
H51_2 H 0.839422 0.366028 0.682646
C73_2 C 0.8740(3) 0.3906(3) 0.4446(10)
H52_2 H 0.887586 0.419349 0.498750
C74_2 C 0.8608(2) 0.3365(2) 0.1864(9)
H53_2 H 0.866693 0.328207 0.057953
C75_2 C 0.9418(2) 0.4876(2) 0.0239(9)
H54_2 H 0.941970 0.522122 0.037976
C76_2 C 0.9136(2) 0.4596(2) 0.1446(9)
H55_2 H 0.894146 0.475092 0.238351
C79_2 C 0.9133(2) 0.4088(2) 0.1300(8)
H10_2 H 0.977878 0.441970 0.462024
C15_4 C 1.000000 0.500000 0.750000
C58_2 C 0.8868(2) 0.5569(2) 0.5066(9)
H41_2 H 0.852203 0.555750 0.515756
C59_2 C 0.8790(2) 0.6173(2) 0.2430(9)
C60_2 C 0.8184(3) 0.6757(3) 0.0326(10)
N6_2 N 0.8066(2) 0.6680(2) 0.2120(8)
C62_2 C 0.8906(3) 0.6260(3) 0.0554(10)
H44_2 H 0.919349 0.612414 0.001250
C63_2 C 0.8365(2) 0.6392(2) 0.3136(9)
H45_2 H 0.828207 0.633307 0.442047
C64_2 C 0.9876(2) 0.5582(2) 0.4761(9)
C65_2 C 0.9596(2) 0.5864(2) 0.3554(9)
H47_2 H 0.975092 0.605854 0.261649
C66_2 C 0.9660(2) 0.5296(2) 0.6196(8)
C67_2 C 0.9153(2) 0.5289(2) 0.6298(8)
H48_2 H 0.899711 0.509058 0.722060
C68_2 C 0.9088(2) 0.5867(2) 0.3700(8)
C69_2 C 0.9431(2) 0.3868(2) 0.9934(9)
H49_2 H 0.944250 0.352203 0.984244
C77_2 C 0.9704(2) 0.4660(2) 0.8804(8)
C78_2 C 0.9711(2) 0.4153(2) 0.8702(8)
H56_2 H 0.990942 0.399711 0.777940
I2_2 I 0.69616(2) 0.74352(2) 0.09192(5)
I6_2 I 0.80384(2) 0.75648(2) 0.59192(5)
H42_2 H 0.797933 0.696207 0.958771
C61_2 C 0.8594(3) 0.6550(3) 0.9474(9)
H43_2 H 0.866028 0.660578 0.817354
N10_2 N 0.7920(2) 0.8429(2) 0.0002(8)
C47_2 C 0.2126(3) 0.1477(4) 0.1864(10)
H33_2 H 0.237134 0.164283 0.256349
C49_2 C 0.1828(4) 0.1150(5) 0.2787(12)
H35_2 H 0.186646 0.109462 0.410471
C50_2 C 0.1478(4) 0.0905(4) 0.1800(12)
H36_2 H 0.127486 0.067534 0.242783
C1_3 C 0.000000 0.000000 0.500000
H22_2 H 0.029834 0.049028 0.198708
C48_2 C 0.1740(2) 0.1326(2) 0.9048(10)
H34_2 H 0.171415 0.138301 0.772672
C51_2 C 0.1417(3) 0.0990(3) 0.9876(10)
C52_2 C 0.0818(3) 0.0997(3) 0.7223(10)
H37_2 H 0.089511 0.133230 0.703272
C53_2 C 0.0578(2) 0.0032(2) 0.7787(9)
C54_2 C 0.1049(2) 0.0744(3) 0.8663(9)
C55_2 C 0.0358(2) 0.0283(2) 0.6287(8)
C56_2 C 0.0920(2) 0.0253(3) 0.8955(10)
H39_2 H 0.106744 0.007190 0.995028
C57_2 C 0.0475(2) 0.0773(2) 0.6040(10)
H40_2 H 0.032133 0.095685 0.506581
C1_4 C 0.000000 1.000000 0.500000
C5_2 C 0.1326(2) 0.8260(2) 0.0952(10)
H3_2 H 0.138301 0.828585 0.227328
C16_2 C 0.0990(3) 0.8583(3) 0.0124(10)
C17_2 C 0.0997(3) 0.9182(3) 0.2777(10)
H12_2 H 0.133230 0.910489 0.296728
C19_2 C 0.0032(2) 0.9422(2) 0.2213(9)
C20_2 C 0.0744(3) 0.8951(2) 0.1337(9)
C21_2 C 0.0283(2) 0.9642(2) 0.3713(8)
C23_2 C 0.0253(3) 0.9080(2) 0.1045(10)
H15_2 H 0.007190 0.893256 0.004972
C24_2 C 0.0773(2) 0.9525(2) 0.3960(10)
H16_2 H 0.095685 0.967867 0.493419
H38_2 H 0.049028 0.970166 0.801292
C4_2 C 0.1477(4) 0.7874(3) 0.8136(10)
H2_2 H 0.164283 0.762866 0.743651
C6_2 C 0.1150(5) 0.8172(4) 0.7213(12)
H4_2 H 0.109462 0.813354 0.589529
C7_2 C 0.0905(4) 0.8522(4) 0.8200(12)
H5_2 H 0.067534 0.872514 0.757217
C1_5 C 1.000000 0.000000 0.500000
C26_2 C 0.8674(2) 0.1740(2) 0.0952(10)
H18_2 H 0.861699 0.171415 0.227328
C29_2 C 0.9010(3) 0.1417(3) 0.0124(10)
C30_2 C 0.9003(3) 0.0818(3) 0.2777(10)
H21_2 H 0.866770 0.089511 0.296728
C31_2 C 0.9968(2) 0.0578(2) 0.2213(9)
C32_2 C 0.9256(3) 0.1049(2) 0.1337(9)
C33_2 C 0.9717(2) 0.0358(2) 0.3713(8)
C34_2 C 0.9747(3) 0.0920(2) 0.1045(10)
H23_2 H 0.992810 0.106744 0.004972
C35_2 C 0.9227(2) 0.0475(2) 0.3960(10)
H24_2 H 0.904315 0.032133 0.493419
H30_2 H 0.950972 0.029834 0.801292
C25_2 C 0.8523(4) 0.2126(3) 0.8136(10)
H17_2 H 0.835717 0.237134 0.743651
C27_2 C 0.8850(5) 0.1828(4) 0.7213(12)
H19_2 H 0.890538 0.186646 0.589529
C28_2 C 0.9095(4) 0.1478(4) 0.8200(12)
H20_2 H 0.932466 0.127486 0.757217
C36_2 C 0.7874(3) 0.8523(4) 0.1864(10)
H25_2 H 0.762866 0.835717 0.256349
C38_2 C 0.8172(4) 0.8850(5) 0.2787(12)
H27_2 H 0.813354 0.890538 0.410471
C39_2 C 0.8522(4) 0.9095(4) 0.1800(12)
H28_2 H 0.872514 0.932466 0.242783
C1_6 C 1.000000 1.000000 0.500000
H14_2 H 0.970166 0.950972 0.198708
C37_2 C 0.8260(2) 0.8674(2) 0.9048(10)
H26_2 H 0.828585 0.861699 0.772672
C40_2 C 0.8583(3) 0.9010(3) 0.9876(10)
C41_2 C 0.9182(3) 0.9003(3) 0.7223(10)
H29_2 H 0.910489 0.866770 0.703272
C42_2 C 0.9422(2) 0.9968(2) 0.7787(9)
C43_2 C 0.8951(2) 0.9256(3) 0.8663(9)
C44_2 C 0.9642(2) 0.9717(2) 0.6287(8)
C45_2 C 0.9080(2) 0.9747(3) 0.8955(10)
H31_2 H 0.893256 0.992810 0.995028
C46_2 C 0.9525(2) 0.9227(2) 0.6040(10)
H32_2 H 0.967867 0.904315 0.506581
loop_
_geom_bond_atom_site_label_1
_geom_bond_atom_site_label_2
_geom_bond_site_symmetry_1
_geom_bond_site_symmetry_2
H7 C9 1_555 1_555
N4 C36 1_555 1_555
C36 H25 1_555 1_555
C37 N4 1_555 1_555
H26 C37 1_555 1_555
C38 C36 1_555 1_555
H27 C38 1_555 1_555
C39 C38 1_555 1_555
H28 C39 1_555 1_555
C40 C37 1_555 1_555
C41 H29 1_555 1_555
C42 H30 1_555 1_555
C43 C40 1_555 1_555
C44 C1 1_555 1_555
C45 C42 1_555 1_555
H31 C45 1_555 1_555
C46 C41 1_555 1_555
H32 C46 1_555 1_555
N5 C47 1_555 1_555
C47 H33 1_555 1_555
C48 N5 1_555 1_555
H34 C48 1_555 1_555
C49 C47 1_555 1_555
H35 C49 1_555 1_555
C50 C49 1_555 1_555
H36 C50 1_555 1_555
C51 C48 1_555 1_555
C52 H37 1_555 1_555
C53 H38 1_555 1_555
C54 C51 1_555 1_555
C55 C1 1_555 1_555
C56 C53 1_555 1_555
H39 C56 1_555 1_555
C57 C52 1_555 1_555
H40 C57 1_555 1_555
I3 Cu3 1_555 1_555
N13 Cu3 1_555 1_555
Cu5 I3 1_555 1_555
Cu7 N4 1_555 1_555
Cu8 N5 1_555 1_555
C39 C40 1_555 1_555
C41 C43 1_555 1_555
C42 C44 1_555 1_555
C43 C45 1_555 1_555
C44 C46 1_555 1_555
C50 C51 1_555 1_555
C52 C54 1_555 1_555
C53 C55 1_555 1_555
C54 C56 1_555 1_555
C55 C57 1_555 1_555
N1 C4 1_555 1_555
C1_2 C21 1_555 1_555
C2 H1 1_555 1_555
C3 C10 1_555 1_555
C4 H2 1_555 1_555
C5 N1 1_555 1_555
H3 C5 1_555 1_555
C6 C4 1_555 1_555
H4 C6 1_555 1_555
C7 C6 1_555 1_555
H5 C7 1_555 1_555
N2 C8 1_555 1_555
H8 C10 1_555 1_555
C11 C3 1_555 1_555
H9 C11 1_555 1_555
I1 Cu5 1_555 1_555
Cu5 N1 1_555 1_555
C13 C12 1_555 1_555
H11 C13 1_555 1_555
C14 C12 1_555 1_555
C15 C14 1_555 1_555
C16 C5 1_555 1_555
C17 H12 1_555 1_555
C18 C2 1_555 1_555
H13 C18 1_555 1_555
C19 H14 1_555 1_555
C20 C16 1_555 1_555
C21 C19 1_555 1_555
C22 C2 1_555 1_555
C23 C19 1_555 1_555
H15 C23 1_555 1_555
C24 C17 1_555 1_555
H16 C24 1_555 1_555
N3 C25 1_555 1_555
C25 H17 1_555 1_555
C26 N3 1_555 1_555
H18 C26 1_555 1_555
C27 C25 1_555 1_555
H19 C27 1_555 1_555
C28 C27 1_555 1_555
H20 C28 1_555 1_555
C29 C26 1_555 1_555
C30 H21 1_555 1_555
C31 H22 1_555 1_555
C32 C29 1_555 1_555
C33 C1_2 1_555 1_555
C34 C31 1_555 1_555
H23 C34 1_555 1_555
C35 C30 1_555 1_555
H24 C35 1_555 1_555
C80 H57 1_555 1_555
C88 C15 1_555 1_555
C89 C80 1_555 1_555
H64 C89 1_555 1_555
Cu6 N3 1_555 1_555
C3 C22 1_555 1_555
C7 C16 1_555 1_555
N2 C11 1_555 1_555
N2 Cu5 1_555 1_555
C13 C22 1_555 1_555
C14 C18 1_555 1_555
C17 C20 1_555 1_555
C20 C23 1_555 1_555
C21 C24 1_555 1_555
C28 C29 1_555 1_555
C30 C32 1_555 1_555
C31 C33 1_555 1_555
C32 C34 1_555 1_555
C33 C35 1_555 1_555
C88 C89 1_555 1_555
C81 C84 1_555 1_555
C82 H58 1_555 1_555
N8 C82 1_555 1_555
C83 C82 1_555 1_555
H59 C83 1_555 1_555
C84 C83 1_555 1_555
H60 C84 1_555 1_555
C85 C81 1_555 1_555
H61 C85 1_555 1_555
C86 H62 1_555 1_555
C87 C86 1_555 1_555
H63 C87 1_555 1_555
Cu11 N8 1_555 1_555
C81 C90 1_555 1_555
N8 C85 1_555 1_555
C87 C90 1_555 1_555
H43 C61 1_555 1_555
C58 H41 1_555 1_555
C59 C62 1_555 1_555
N6 C60 1_555 1_555
H44 C62 1_555 1_555
C63 C59 1_555 1_555
H45 C63 1_555 1_555
C65 C64 1_555 1_555
H47 C65 1_555 1_555
C66 C15_2 1_555 1_555
C67 C58 1_555 1_555
H48 C67 1_555 1_555
C68 C58 1_555 1_555
C69 H49 1_555 1_555
C77 C15_2 1_555 1_555
C78 C69 1_555 1_555
H56 C78 1_555 1_555
I2 Cu6 1_555 1_555
Cu6 N6 1_555 1_555
I6 Cu6 1_555 1_555
C59 C68 1_555 1_555
N6 C63 1_555 1_555
C64 C66 1_555 1_555
C65 C68 1_555 1_555
C66 C67 1_555 1_555
C77 C78 1_555 1_555
C70 C73 1_555 1_555
C71 H50 1_555 1_555
N7 C71 1_555 1_555
C72 C71 1_555 1_555
H51 C72 1_555 1_555
C73 C72 1_555 1_555
H52 C73 1_555 1_555
C74 C70 1_555 1_555
H53 C74 1_555 1_555
C75 H54 1_555 1_555
C76 C75 1_555 1_555
H55 C76 1_555 1_555
Cu10 N7 1_555 1_555
C70 C79 1_555 1_555
N7 C74 1_555 1_555
C76 C79 1_555 1_555
I6 Cu9 1_555 1_555
N13_2 Cu9 1_555 1_555
C81_2 C84_2 1_555 1_555
C82_2 H58_2 1_555 1_555
N13_2 C82_2 1_555 1_555
C83_2 C82_2 1_555 1_555
H59_2 C83_2 1_555 1_555
C84_2 C83_2 1_555 1_555
H60_2 C84_2 1_555 1_555
C85_2 C81_2 1_555 1_555
H61_2 C85_2 1_555 1_555
C86_2 H62_2 1_555 1_555
C87_2 C86_2 1_555 1_555
H63_2 C87_2 1_555 1_555
C81_2 C90_2 1_555 1_555
N13_2 C85_2 1_555 1_555
C87_2 C90_2 1_555 1_555
C2_2 H1_2 1_555 1_555
C3_2 C10_2 1_555 1_555
N2_2 C8_2 1_555 1_555
H8_2 C10_2 1_555 1_555
C11_2 C3_2 1_555 1_555
H9_2 C11_2 1_555 1_555
I5 Cu7 1_555 1_555
C13_2 C12_2 1_555 1_555
H11_2 C13_2 1_555 1_555
C14_2 C12_2 1_555 1_555
C15_3 C14_2 1_555 1_555
C18_2 C2_2 1_555 1_555
H13_2 C18_2 1_555 1_555
C22_2 C2_2 1_555 1_555
C80_2 H57_2 1_555 1_555
C88_2 C15_3 1_555 1_555
C89_2 C80_2 1_555 1_555
H64_2 C89_2 1_555 1_555
I4 Cu7 1_555 1_555
Cu11 I4 1_555 1_555
C3_2 C22_2 1_555 1_555
N2_2 C11_2 1_555 1_555
N2_2 Cu7 1_555 1_555
C13_2 C22_2 1_555 1_555
C14_2 C18_2 1_555 1_555
C88_2 C89_2 1_555 1_555
H7_2 C9_2 1_555 1_555
C70_2 C73_2 1_555 1_555
C71_2 H50_2 1_555 1_555
N13 C71_2 1_555 1_555
C72_2 C71_2 1_555 1_555
H51_2 C72_2 1_555 1_555
C73_2 C72_2 1_555 1_555
H52_2 C73_2 1_555 1_555
C74_2 C70_2 1_555 1_555
H53_2 C74_2 1_555 1_555
C75_2 H54_2 1_555 1_555
C76_2 C75_2 1_555 1_555
H55_2 C76_2 1_555 1_555
C70_2 C79_2 1_555 1_555
N13 C74_2 1_555 1_555
C76_2 C79_2 1_555 1_555
C58_2 H41_2 1_555 1_555
C59_2 C62_2 1_555 1_555
N6_2 C60_2 1_555 1_555
H44_2 C62_2 1_555 1_555
C63_2 C59_2 1_555 1_555
H45_2 C63_2 1_555 1_555
C65_2 C64_2 1_555 1_555
H47_2 C65_2 1_555 1_555
C66_2 C15_4 1_555 1_555
C67_2 C58_2 1_555 1_555
H48_2 C67_2 1_555 1_555
C68_2 C58_2 1_555 1_555
C69_2 H49_2 1_555 1_555
C77_2 C15_4 1_555 1_555
C78_2 C69_2 1_555 1_555
H56_2 C78_2 1_555 1_555
I2_2 Cu8 1_555 1_555
Cu8 N6_2 1_555 1_555
I6_2 Cu8 1_555 1_555
C59_2 C68_2 1_555 1_555
N6_2 C63_2 1_555 1_555
C64_2 C66_2 1_555 1_555
C65_2 C68_2 1_555 1_555
C66_2 C67_2 1_555 1_555
C77_2 C78_2 1_555 1_555
H43_2 C61_2 1_555 1_555
Cu10 I6_2 1_555 1_555
N10 C47_2 1_555 1_555
C47_2 H33_2 1_555 1_555
C49_2 C47_2 1_555 1_555
H35_2 C49_2 1_555 1_555
C50_2 C49_2 1_555 1_555
H36_2 C50_2 1_555 1_555
H34_2 C48_2 1_555 1_555
C51_2 C48_2 1_555 1_555
C52_2 H37_2 1_555 1_555
C54_2 C51_2 1_555 1_555
C55_2 C1_3 1_555 1_555
C56_2 C53_2 1_555 1_555
H39_2 C56_2 1_555 1_555
C57_2 C52_2 1_555 1_555
H40_2 C57_2 1_555 1_555
C52_2 C54_2 1_555 1_555
C53_2 C55_2 1_555 1_555
C54_2 C56_2 1_555 1_555
C55_2 C57_2 1_555 1_555
C1_4 C21_2 1_555 1_555
H3_2 C5_2 1_555 1_555
C16_2 C5_2 1_555 1_555
C17_2 H12_2 1_555 1_555
C20_2 C16_2 1_555 1_555
C21_2 C19_2 1_555 1_555
C23_2 C19_2 1_555 1_555
H15_2 C23_2 1_555 1_555
C24_2 C17_2 1_555 1_555
H16_2 C24_2 1_555 1_555
C17_2 C20_2 1_555 1_555
C20_2 C23_2 1_555 1_555
C21_2 C24_2 1_555 1_555
N11_2 C4_2 1_555 1_555
C4_2 H2_2 1_555 1_555
C6_2 C4_2 1_555 1_555
H4_2 C6_2 1_555 1_555
C7_2 C6_2 1_555 1_555
H5_2 C7_2 1_555 1_555
H18_2 C26_2 1_555 1_555
C29_2 C26_2 1_555 1_555
C30_2 H21_2 1_555 1_555
C32_2 C29_2 1_555 1_555
C33_2 C1_5 1_555 1_555
C34_2 C31_2 1_555 1_555
H23_2 C34_2 1_555 1_555
C35_2 C30_2 1_555 1_555
H24_2 C35_2 1_555 1_555
C30_2 C32_2 1_555 1_555
C31_2 C33_2 1_555 1_555
C32_2 C34_2 1_555 1_555
C33_2 C35_2 1_555 1_555
N11 C25_2 1_555 1_555
C25_2 H17_2 1_555 1_555
C27_2 C25_2 1_555 1_555
H19_2 C27_2 1_555 1_555
C28_2 C27_2 1_555 1_555
H20_2 C28_2 1_555 1_555
N10_2 C36_2 1_555 1_555
C36_2 H25_2 1_555 1_555
C38_2 C36_2 1_555 1_555
H27_2 C38_2 1_555 1_555
C39_2 C38_2 1_555 1_555
H28_2 C39_2 1_555 1_555
H26_2 C37_2 1_555 1_555
C40_2 C37_2 1_555 1_555
C41_2 H29_2 1_555 1_555
C43_2 C40_2 1_555 1_555
C44_2 C1_6 1_555 1_555
C45_2 C42_2 1_555 1_555
H31_2 C45_2 1_555 1_555
C46_2 C41_2 1_555 1_555
H32_2 C46_2 1_555 1_555
C41_2 C43_2 1_555 1_555
C42_2 C44_2 1_555 1_555
C43_2 C45_2 1_555 1_555
C44_2 C46_2 1_555 1_555

#END
