
###############################################################################
#
# This file contains modified crystal structure data generated from the
# MOF subset of the Cambridge Structural Database (CSD) v543 
# hosted by the Cambridge Crystallographic Data Centre (CCDC).
#
# This work is licensed under the Creative Commons
# Attribution-NonCommercial-ShareAlike 4.0 International License.
# To view a copy of this license, visit
# http://creativecommons.org/licenses/by-nc-sa/4.0/
# or send a letter to
# Creative Commons, PO Box 1866, Mountain View, CA 94042, USA.
#
# CIF created using the CSD Python API on 29 September 2022
# The structure has been converted into the P1 space group
# The structure has a 3D framework
# The original CSD entry ABELEC is in the tetragonal crystal system
# The framework has been calculated to contain at least 10.0% void space
# The void calculation uses a probe of radius 1.32A, grid spacing 0.4
#
###############################################################################

data_ABELEC
_chemical_formula_moiety         '(C189 H128 Cu8 I5 N16)n'
_symmetry_cell_setting           triclinic
_symmetry_space_group_name_H-M   'P 1'
_symmetry_Int_Tables_number      1
_space_group_name_Hall           'P 1'
loop_
_symmetry_equiv_pos_site_id
_symmetry_equiv_pos_as_xyz
1 x,y,z
_cell_length_a                   27.2873(4)
_cell_length_b                   27.2873(4)
_cell_length_c                   7.1053(2)
_cell_angle_alpha                90
_cell_angle_beta                 90
_cell_angle_gamma                90
_cell_volume                     5290.58
loop_
_atom_site_label
_atom_site_type_symbol
_atom_site_fract_x
_atom_site_fract_y
_atom_site_fract_z
H51 H 0.198398 0.303972 0.058516
H53 H 0.116285 0.423587 0.003794
C78 C 0.1590(12) 0.3647(11) 0.050(4)
H55 H 0.166117 0.373107 0.177299
I1 I 0.19631(5) 0.75845(5) 0.0830(2)
C1 C 0.2849(10) 0.6487(10) 0.167(4)
H1 H 0.262958 0.669048 0.235380
C2 C 0.0331(8) 0.5298(9) 0.118(3)
C10 C 0.0840(8) 0.5323(8) 0.128(2)
H6 H 0.100551 0.514426 0.223862
C12 C -0.000000 0.500000 0.250000
C16 C 0.1109(7) 0.5600(9) 0.004(3)
H11 H 0.145612 0.559697 0.014054
C18 C 0.3468(11) 0.5887(10) 0.162(4)
H12 H 0.366636 0.565435 0.225931
C19 C 0.3125(10) 0.6133(9) 0.265(4)
H13 H 0.307461 0.606850 0.394532
C36 C 0.7151(10) 0.3513(10) 0.167(4)
H25 H 0.737042 0.330952 0.235380
C43 C 0.6532(11) 0.4113(10) 0.162(4)
H30 H 0.633364 0.434565 0.225931
C44 C 0.6875(10) 0.3867(9) 0.265(4)
H31 H 0.692539 0.393150 0.394532
C69 C 0.0298(9) 0.4669(8) 0.382(3)
C70 C 0.1407(8) 0.3394(8) 0.693(4)
H49 H 0.134760 0.329932 0.566215
N7 N 0.1704(8) 0.3100(8) 0.796(3)
C71 C 0.0879(8) 0.4102(9) 0.634(3)
C72 C 0.0323(8) 0.4160(8) 0.372(2)
H50 H 0.014426 0.399449 0.276138
C73 C 0.1785(10) 0.3239(8) 0.980(4)
C74 C 0.0861(8) 0.4617(9) 0.643(3)
H52 H 0.105169 0.478281 0.734850
C75 C 0.1295(10) 0.3947(9) 0.949(4)
C76 C 0.0600(9) 0.3891(7) 0.496(3)
H54 H 0.059697 0.354388 0.485946
C77 C 0.1184(9) 0.3818(10) 0.755(4)
C79 C 0.0576(8) 0.4884(9) 0.523(3)
H56 H 0.056718 0.523015 0.536348
I4 I 0.30369(5) 0.74155(5) 0.5830(2)
Cu4 Cu 0.25346(12) 0.79462(12) 0.3426(5)
Cu5 Cu 0.24654(12) 0.70538(12) 0.8426(5)
Cu9 Cu 0.20538(12) 0.25346(12) 0.6574(5)
N10 N 0.2115(8) 0.8455(9) 0.485(3)
N12 N 0.3100(8) 0.8296(8) 0.204(3)
N1 N 0.2885(8) 0.6545(9) 0.985(3)
C3 C 0.3916(9) 0.5722(9) 0.865(3)
C4 C 0.4639(8) 0.5272(8) 0.628(3)
C5 C 0.1606(8) 0.6407(8) 0.807(4)
H2 H 0.170068 0.634760 0.933785
C6 C 0.3222(8) 0.6298(8) 0.903(4)
H3 H 0.325320 0.636427 0.771792
C7 C 0.4415(9) 0.5032(8) 0.783(3)
H4 H 0.451567 0.470791 0.813107
C8 C 0.4508(9) 0.5766(8) 0.602(4)
H5 H 0.466094 0.595467 0.506383
N2 N 0.1900(8) 0.6704(8) 0.704(3)
C9 C 0.0898(9) 0.5879(8) 0.866(3)
C11 C 0.1761(8) 0.6785(10) 0.520(4)
H7 H 0.196028 0.698398 0.441484
C13 C 0.4145(10) 0.5986(11) 0.721(4)
H8 H 0.405846 0.631916 0.701507
C14 C 0.0383(9) 0.5861(8) 0.857(3)
H9 H 0.021719 0.605169 0.765150
C15 C 0.1053(9) 0.6295(10) 0.551(4)
H10 H 0.076413 0.616285 0.496206
C17 C 0.1182(10) 0.6184(9) 0.745(4)
C20 C 0.3547(9) 0.5954(9) 0.970(4)
C21 C 0.4067(8) 0.5245(9) 0.888(3)
H14 H 0.391652 0.505663 0.984882
C22 C 0.1353(11) 0.6590(12) 0.450(4)
H15 H 0.126893 0.666117 0.322701
C23 C 0.0116(9) 0.5576(8) 0.977(3)
C24 C 0.500000 0.500000 0.500000
N3 N 0.6545(9) 0.7115(8) 0.015(3)
C26 C 0.5722(9) 0.6084(9) 0.135(3)
C27 C 0.5272(8) 0.5361(8) 0.372(3)
C28 C 0.6298(8) 0.6778(8) 0.097(4)
H18 H 0.636427 0.674680 0.228208
C29 C 0.5032(8) 0.5585(9) 0.217(3)
H19 H 0.470791 0.548433 0.186893
C30 C 0.5766(8) 0.5492(9) 0.398(4)
H20 H 0.595467 0.533906 0.493617
C31 C 0.5986(11) 0.5855(10) 0.279(4)
H21 H 0.631916 0.594154 0.298493
C34 C 0.5954(9) 0.6453(9) 0.030(4)
C35 C 0.5245(9) 0.5933(8) 0.112(3)
H24 H 0.505663 0.608348 0.015118
N4 N 0.7115(8) 0.3455(9) 0.985(3)
C37 C 0.6084(9) 0.4278(9) 0.865(3)
C38 C 0.5361(8) 0.4728(8) 0.628(3)
C39 C 0.6778(8) 0.3702(8) 0.903(4)
H26 H 0.674680 0.363573 0.771792
C40 C 0.5585(9) 0.4968(8) 0.783(3)
H27 H 0.548433 0.529209 0.813107
C41 C 0.5492(9) 0.4234(8) 0.602(4)
H28 H 0.533906 0.404533 0.506383
C42 C 0.5855(10) 0.4014(11) 0.721(4)
H29 H 0.594154 0.368084 0.701507
C45 C 0.6453(9) 0.4046(9) 0.970(4)
C46 C 0.5933(8) 0.4755(9) 0.888(3)
H32 H 0.608348 0.494337 0.984882
N5 N 0.3455(9) 0.2885(8) 0.015(3)
C48 C 0.4278(9) 0.3916(9) 0.135(3)
C49 C 0.4728(8) 0.4639(8) 0.372(3)
C50 C 0.3702(8) 0.3222(8) 0.097(4)
H34 H 0.363573 0.325320 0.228208
C51 C 0.4968(8) 0.4415(9) 0.217(3)
H35 H 0.529209 0.451567 0.186893
C52 C 0.4234(8) 0.4508(9) 0.398(4)
H36 H 0.404533 0.466094 0.493617
C53 C 0.4014(11) 0.4145(10) 0.279(4)
H37 H 0.368084 0.405846 0.298493
C56 C 0.4046(9) 0.3547(9) 0.030(4)
C57 C 0.4755(9) 0.4067(8) 0.112(3)
H40 H 0.494337 0.391652 0.015118
H48 H 0.023015 0.443282 0.963652
Cu2 Cu 0.70538(12) 0.75346(12) 0.1574(5)
I7 I 0.74155(5) 0.69631(5) 0.4170(2)
Cu6 Cu 0.75346(12) 0.29462(12) 0.8426(5)
Cu7 Cu 0.29462(12) 0.24654(12) 0.1574(5)
N11 N 0.6704(8) 0.8100(8) 0.296(3)
C25 C 0.6487(10) 0.7151(10) 0.833(4)
H17 H 0.669048 0.737042 0.764620
C32 C 0.5887(10) 0.6532(11) 0.838(4)
H22 H 0.565435 0.633364 0.774069
C33 C 0.6133(9) 0.6875(10) 0.735(4)
H23 H 0.606850 0.692539 0.605468
C47 C 0.3513(10) 0.2849(10) 0.833(4)
H33 H 0.330952 0.262958 0.764620
C54 C 0.4113(10) 0.3468(11) 0.838(4)
H38 H 0.434565 0.366636 0.774069
C55 C 0.3867(9) 0.3125(10) 0.735(4)
H39 H 0.393150 0.307461 0.605468
I2 I 0.75845(5) 0.80369(5) 0.9170(2)
Cu11 Cu 0.79462(12) 0.74654(12) 0.6574(5)
H59 H 0.801602 0.696028 0.058516
H61 H 0.883715 0.576413 0.003794
C89 C 0.8410(12) 0.6353(11) 0.050(4)
H63 H 0.833883 0.626893 0.177299
C12_2 C 1.000000 0.500000 0.250000
C58 C 0.9669(8) 0.4702(9) 0.118(3)
C61 C 0.9160(8) 0.4677(8) 0.128(2)
H42 H 0.899449 0.485574 0.223862
C65 C 0.8891(7) 0.4400(9) 0.004(3)
H46 H 0.854388 0.440303 0.014054
C80 C 0.9702(9) 0.5331(8) 0.382(3)
C81 C 0.8593(8) 0.6606(8) 0.693(4)
H57 H 0.865240 0.670068 0.566215
N8 N 0.8296(8) 0.6900(8) 0.796(3)
C82 C 0.9121(8) 0.5898(9) 0.634(3)
C83 C 0.9677(8) 0.5840(8) 0.372(2)
H58 H 0.985574 0.600551 0.276138
C84 C 0.8215(10) 0.6761(8) 0.980(4)
C85 C 0.9139(8) 0.5383(9) 0.643(3)
H60 H 0.894831 0.521719 0.734850
C86 C 0.8705(10) 0.6053(9) 0.949(4)
C87 C 0.9400(9) 0.6109(7) 0.496(3)
H62 H 0.940303 0.645612 0.485946
C88 C 0.8816(9) 0.6182(10) 0.755(4)
C90 C 0.9424(8) 0.5116(9) 0.523(3)
H64 H 0.943282 0.476985 0.536348
I3 I 0.80369(5) 0.24155(5) 0.0830(2)
Cu8 Cu 0.74654(12) 0.20538(12) 0.3426(5)
H16 H 0.976985 0.556718 0.963652
C59 C 0.8394(8) 0.3593(8) 0.807(4)
H41 H 0.829932 0.365240 0.933785
N6 N 0.8100(8) 0.3296(8) 0.704(3)
C60 C 0.9102(9) 0.4121(8) 0.866(3)
C62 C 0.8239(8) 0.3215(10) 0.520(4)
H43 H 0.803972 0.301602 0.441484
C63 C 0.9617(9) 0.4139(8) 0.857(3)
H44 H 0.978281 0.394831 0.765150
C64 C 0.8947(9) 0.3705(10) 0.551(4)
H45 H 0.923587 0.383715 0.496206
C66 C 0.8818(10) 0.3816(9) 0.745(4)
C67 C 0.8647(11) 0.3410(12) 0.450(4)
H47 H 0.873107 0.333883 0.322701
C68 C 0.9884(9) 0.4424(8) 0.977(3)
I5 I 0.69631(5) 0.25845(5) 0.5830(2)
H16_2 H 0.556718 0.023015 0.036348
C59_2 C 0.3593(8) 0.1606(8) 0.193(4)
H41_2 H 0.365240 0.170068 0.066215
N6_2 N 0.3296(8) 0.1900(8) 0.296(3)
C60_2 C 0.4121(8) 0.0898(9) 0.134(3)
C62_2 C 0.3215(10) 0.1761(8) 0.480(4)
H43_2 H 0.301602 0.196028 0.558516
C63_2 C 0.4139(8) 0.0383(9) 0.143(3)
H44_2 H 0.394831 0.021719 0.234850
C64_2 C 0.3705(10) 0.1053(9) 0.449(4)
H45_2 H 0.383715 0.076413 0.503794
C66_2 C 0.3816(9) 0.1182(10) 0.255(4)
C67_2 C 0.3410(12) 0.1353(11) 0.550(4)
H47_2 H 0.333883 0.126893 0.677299
C68_2 C 0.4424(8) 0.0116(9) 0.023(3)
I5_2 I 0.25845(5) 0.30369(5) 0.4170(2)
C12_3 C 0.500000 -0.000000 0.750000
C58_2 C 0.4702(9) 0.0331(8) 0.882(3)
C61_2 C 0.4677(8) 0.0840(8) 0.872(2)
H42_2 H 0.485574 0.100551 0.776138
C65_2 C 0.4400(9) 0.1109(7) 0.996(3)
H46_2 H 0.440303 0.145612 0.985946
C80_2 C 0.5331(8) 0.0298(9) 0.618(3)
C81_2 C 0.6606(8) 0.1407(8) 0.307(4)
H57_2 H 0.670068 0.134760 0.433785
N8_2 N 0.6900(8) 0.1704(8) 0.204(3)
C82_2 C 0.5898(9) 0.0879(8) 0.366(3)
C83_2 C 0.5840(8) 0.0323(8) 0.628(2)
H58_2 H 0.600551 0.014426 0.723862
C84_2 C 0.6761(8) 0.1785(10) 0.020(4)
C85_2 C 0.5383(9) 0.0861(8) 0.357(3)
H60_2 H 0.521719 0.105169 0.265150
C86_2 C 0.6053(9) 0.1295(10) 0.051(4)
C87_2 C 0.6109(7) 0.0600(9) 0.504(3)
H62_2 H 0.645612 0.059697 0.514054
C88_2 C 0.6182(10) 0.1184(9) 0.245(4)
C90_2 C 0.5116(9) 0.0576(8) 0.477(3)
H64_2 H 0.476985 0.056718 0.463652
I3_2 I 0.24155(5) 0.19631(5) 0.9170(2)
H59_2 H 0.696028 0.198398 0.941484
H61_2 H 0.576413 0.116285 0.996206
C89_2 C 0.6353(11) 0.1590(12) 0.950(4)
H63_2 H 0.626893 0.166117 0.822701
C5_2 C 0.6407(8) 0.8394(8) 0.193(4)
H2_2 H 0.634760 0.829932 0.066215
C9_2 C 0.5879(8) 0.9102(9) 0.134(3)
C11_2 C 0.6785(10) 0.8239(8) 0.480(4)
H7_2 H 0.698398 0.803972 0.558516
C14_2 C 0.5861(8) 0.9617(9) 0.143(3)
H9_2 H 0.605169 0.978281 0.234850
C15_2 C 0.6295(10) 0.8947(9) 0.449(4)
H10_2 H 0.616285 0.923587 0.503794
C17_2 C 0.6184(9) 0.8818(10) 0.255(4)
C22_2 C 0.6590(12) 0.8647(11) 0.550(4)
H15_2 H 0.666117 0.873107 0.677299
C23_2 C 0.5576(8) 0.9884(9) 0.023(3)
H48_2 H 0.443282 0.976985 0.036348
C2_2 C 0.5298(9) 0.9669(8) 0.882(3)
C10_2 C 0.5323(8) 0.9160(8) 0.872(2)
H6_2 H 0.514426 0.899449 0.776138
C12_4 C 0.500000 1.000000 0.750000
C16_2 C 0.5600(9) 0.8891(7) 0.996(3)
H11_2 H 0.559697 0.854388 0.985946
C69_2 C 0.4669(8) 0.9702(9) 0.618(3)
C70_2 C 0.3394(8) 0.8593(8) 0.307(4)
H49_2 H 0.329932 0.865240 0.433785
C71_2 C 0.4102(9) 0.9121(8) 0.366(3)
C72_2 C 0.4160(8) 0.9677(8) 0.628(2)
H50_2 H 0.399449 0.985574 0.723862
C73_2 C 0.3239(8) 0.8215(10) 0.020(4)
C74_2 C 0.4617(9) 0.9139(8) 0.357(3)
H52_2 H 0.478281 0.894831 0.265150
C75_2 C 0.3947(9) 0.8705(10) 0.051(4)
C76_2 C 0.3891(7) 0.9400(9) 0.504(3)
H54_2 H 0.354388 0.940303 0.514054
C77_2 C 0.3818(10) 0.8816(9) 0.245(4)
C79_2 C 0.4884(9) 0.9424(8) 0.477(3)
H56_2 H 0.523015 0.943282 0.463652
N10_2 N 0.8455(9) 0.7885(8) 0.515(3)
H51_2 H 0.303972 0.801602 0.941484
H53_2 H 0.423587 0.883715 0.996206
C78_2 C 0.3647(11) 0.8410(12) 0.950(4)
H55_2 H 0.373107 0.833883 0.822701
N10_3 N 0.7885(8) 0.1545(9) 0.485(3)
N10_4 N 0.1545(9) 0.2115(8) 0.515(3)
C24_2 C -0.000000 -0.000000 0.000000
H27_2 H 0.048433 0.029209 0.313107
C24_3 C -0.000000 -0.000000 1.000000
C25_2 C 0.1487(10) 0.2151(10) 0.333(4)
H17_2 H 0.169048 0.237042 0.264620
C26_2 C 0.0722(9) 0.1084(9) 0.635(3)
C27_2 C 0.0272(8) 0.0361(8) 0.872(3)
C28_2 C 0.1298(8) 0.1778(8) 0.597(4)
H18_2 H 0.136427 0.174680 0.728208
C29_2 C 0.0032(8) 0.0585(9) 0.717(3)
C30_2 C 0.0766(8) 0.0492(9) 0.898(4)
H20_2 H 0.095467 0.033906 0.993617
C31_2 C 0.0986(11) 0.0855(10) 0.779(4)
H21_2 H 0.131916 0.094154 0.798493
C32_2 C 0.0887(10) 0.1532(11) 0.338(4)
H22_2 H 0.065435 0.133364 0.274069
C33_2 C 0.1133(9) 0.1875(10) 0.235(4)
H23_2 H 0.106850 0.192539 0.105468
C34_2 C 0.0954(9) 0.1453(9) 0.530(4)
C35_2 C 0.0245(9) 0.0933(8) 0.612(3)
H24_2 H 0.005663 0.108348 0.515118
C24_4 C -0.000000 1.000000 0.000000
C36_2 C 0.2151(10) 0.8513(10) 0.667(4)
H25_2 H 0.237042 0.830952 0.735380
C37_2 C 0.1084(9) 0.9278(9) 0.365(3)
C38_2 C 0.0361(8) 0.9728(8) 0.128(3)
C39_2 C 0.1778(8) 0.8702(8) 0.403(4)
H26_2 H 0.174680 0.863573 0.271792
C40_2 C 0.0585(9) 0.9968(8) 0.283(3)
C41_2 C 0.0492(9) 0.9234(8) 0.102(4)
H28_2 H 0.033906 0.904533 0.006383
C42_2 C 0.0855(10) 0.9014(11) 0.221(4)
H29_2 H 0.094154 0.868084 0.201507
C43_2 C 0.1532(11) 0.9113(10) 0.662(4)
H30_2 H 0.133364 0.934565 0.725931
C44_2 C 0.1875(10) 0.8867(9) 0.765(4)
H31_2 H 0.192539 0.893150 0.894532
C45_2 C 0.1453(9) 0.9046(9) 0.470(4)
C46_2 C 0.0933(8) 0.9755(9) 0.388(3)
H32_2 H 0.108348 0.994337 0.484882
C24_5 C -0.000000 1.000000 1.000000
H35_2 H 0.029209 0.951567 0.686893
C1_2 C 0.7849(10) 0.1487(10) 0.667(4)
H1_2 H 0.762958 0.169048 0.735380
C3_2 C 0.8916(9) 0.0722(9) 0.365(3)
C4_2 C 0.9639(8) 0.0272(8) 0.128(3)
C6_2 C 0.8222(8) 0.1298(8) 0.403(4)
H3_2 H 0.825320 0.136427 0.271792
C7_2 C 0.9415(9) 0.0032(8) 0.283(3)
C8_2 C 0.9508(9) 0.0766(8) 0.102(4)
H5_2 H 0.966094 0.095467 0.006383
C13_2 C 0.9145(10) 0.0986(11) 0.221(4)
H8_2 H 0.905846 0.131916 0.201507
C18_2 C 0.8468(11) 0.0887(10) 0.662(4)
H12_2 H 0.866636 0.065435 0.725931
C19_2 C 0.8125(10) 0.1133(9) 0.765(4)
H13_2 H 0.807461 0.106850 0.894532
C20_2 C 0.8547(9) 0.0954(9) 0.470(4)
C21_2 C 0.9067(8) 0.0245(9) 0.388(3)
H14_2 H 0.891652 0.005663 0.484882
C24_6 C 1.000000 -0.000000 0.000000
C24_7 C 1.000000 -0.000000 1.000000
H19_2 H 0.970791 0.048433 0.686893
H4_2 H 0.951567 0.970791 0.313107
C24_8 C 1.000000 1.000000 0.000000
C24_9 C 1.000000 1.000000 1.000000
C47_2 C 0.8513(10) 0.7849(10) 0.333(4)
H33_2 H 0.830952 0.762958 0.264620
C48_2 C 0.9278(9) 0.8916(9) 0.635(3)
C49_2 C 0.9728(8) 0.9639(8) 0.872(3)
C50_2 C 0.8702(8) 0.8222(8) 0.597(4)
H34_2 H 0.863573 0.825320 0.728208
C51_2 C 0.9968(8) 0.9415(9) 0.717(3)
C52_2 C 0.9234(8) 0.9508(9) 0.898(4)
H36_2 H 0.904533 0.966094 0.993617
C53_2 C 0.9014(11) 0.9145(10) 0.779(4)
H37_2 H 0.868084 0.905846 0.798493
C54_2 C 0.9113(10) 0.8468(11) 0.338(4)
H38_2 H 0.934565 0.866636 0.274069
C55_2 C 0.8867(9) 0.8125(10) 0.235(4)
H39_2 H 0.893150 0.807461 0.105468
C56_2 C 0.9046(9) 0.8547(9) 0.530(4)
C57_2 C 0.9755(9) 0.9067(8) 0.612(3)
H40_2 H 0.994337 0.891652 0.515118
loop_
_geom_bond_atom_site_label_1
_geom_bond_atom_site_label_2
_geom_bond_site_symmetry_1
_geom_bond_site_symmetry_2
H55 C78 1_555 1_555
C1 H1 1_555 1_555
C2 C10 1_555 1_555
C10 H6 1_555 1_555
C12 C2 1_555 1_555
H11 C16 1_555 1_555
C18 H12 1_555 1_555
C19 C1 1_555 1_555
H13 C19 1_555 1_555
C36 H25 1_555 1_555
C43 H30 1_555 1_555
C44 C36 1_555 1_555
H31 C44 1_555 1_555
C69 C12 1_555 1_555
C70 H49 1_555 1_555
N7 C70 1_555 1_555
C71 C74 1_555 1_555
C72 C69 1_555 1_555
H50 C72 1_555 1_555
C73 N7 1_555 1_555
C74 H52 1_555 1_555
C76 C71 1_555 1_555
H54 C76 1_555 1_555
C77 C70 1_555 1_555
C79 C69 1_555 1_555
H56 C79 1_555 1_555
I4 Cu4 1_555 1_555
Cu4 I1 1_555 1_555
Cu5 I4 1_555 1_555
Cu9 N7 1_555 1_555
N10 Cu4 1_555 1_555
N12 Cu4 1_555 1_555
C10 C16 1_555 1_555
C18 C19 1_555 1_555
C43 C44 1_555 1_555
C71 C77 1_555 1_555
C72 C76 1_555 1_555
C74 C79 1_555 1_555
C75 C77 1_555 1_555
Cu5 N1 1_555 1_555
C3 C13 1_555 1_555
C4 C7 1_555 1_555
C5 H2 1_555 1_555
C6 N1 1_555 1_555
H3 C6 1_555 1_555
C7 H4 1_555 1_555
C8 C4 1_555 1_555
H5 C8 1_555 1_555
N2 Cu5 1_555 1_555
C9 C14 1_555 1_555
C11 N2 1_555 1_555
H7 C11 1_555 1_555
C13 C8 1_555 1_555
H8 C13 1_555 1_555
C14 H9 1_555 1_555
C15 H10 1_555 1_555
C17 C5 1_555 1_555
C20 C3 1_555 1_555
C21 C3 1_555 1_555
H14 C21 1_555 1_555
C22 C11 1_555 1_555
H15 C22 1_555 1_555
C24 C4 1_555 1_555
C26 C31 1_555 1_555
C27 C24 1_555 1_555
C28 N3 1_555 1_555
H18 C28 1_555 1_555
C29 C27 1_555 1_555
H19 C29 1_555 1_555
C30 C27 1_555 1_555
H20 C30 1_555 1_555
C31 C30 1_555 1_555
H21 C31 1_555 1_555
C34 C26 1_555 1_555
C35 C26 1_555 1_555
H24 C35 1_555 1_555
C37 C42 1_555 1_555
C38 C24 1_555 1_555
C39 N4 1_555 1_555
H26 C39 1_555 1_555
C40 C38 1_555 1_555
H27 C40 1_555 1_555
C41 C38 1_555 1_555
H28 C41 1_555 1_555
C42 C41 1_555 1_555
H29 C42 1_555 1_555
C45 C37 1_555 1_555
C46 C37 1_555 1_555
H32 C46 1_555 1_555
C48 C53 1_555 1_555
C49 C24 1_555 1_555
C50 N5 1_555 1_555
H34 C50 1_555 1_555
C51 C49 1_555 1_555
H35 C51 1_555 1_555
C52 C49 1_555 1_555
H36 C52 1_555 1_555
C53 C52 1_555 1_555
H37 C53 1_555 1_555
C56 C48 1_555 1_555
C57 C48 1_555 1_555
H40 C57 1_555 1_555
Cu2 N3 1_555 1_555
I7 Cu2 1_555 1_555
Cu6 N4 1_555 1_555
Cu7 N5 1_555 1_555
N11 Cu2 1_555 1_555
C5 N2 1_555 1_555
C6 C20 1_555 1_555
C7 C21 1_555 1_555
C9 C17 1_555 1_555
C14 C23 1_555 1_555
C15 C17 1_555 1_555
C15 C22 1_555 1_555
C28 C34 1_555 1_555
C29 C35 1_555 1_555
C39 C45 1_555 1_555
C40 C46 1_555 1_555
C50 C56 1_555 1_555
C51 C57 1_555 1_555
C25 H17 1_555 1_555
C32 H22 1_555 1_555
C33 C25 1_555 1_555
H23 C33 1_555 1_555
C47 H33 1_555 1_555
C54 H38 1_555 1_555
C55 C47 1_555 1_555
H39 C55 1_555 1_555
Cu11 I2 1_555 1_555
C32 C33 1_555 1_555
C54 C55 1_555 1_555
H63 C89 1_555 1_555
C58 C12_2 1_555 1_555
C61 C58 1_555 1_555
H42 C61 1_555 1_555
H46 C65 1_555 1_555
C80 C12_2 1_555 1_555
C81 H57 1_555 1_555
N8 C81 1_555 1_555
C82 C85 1_555 1_555
C83 C80 1_555 1_555
H58 C83 1_555 1_555
C84 N8 1_555 1_555
C85 H60 1_555 1_555
C87 C82 1_555 1_555
H62 C87 1_555 1_555
C88 C81 1_555 1_555
C90 C80 1_555 1_555
H64 C90 1_555 1_555
Cu8 I3 1_555 1_555
Cu11 N8 1_555 1_555
C61 C65 1_555 1_555
C82 C88 1_555 1_555
C83 C87 1_555 1_555
C85 C90 1_555 1_555
C86 C88 1_555 1_555
C59 H41 1_555 1_555
N6 C59 1_555 1_555
C60 C63 1_555 1_555
C62 N6 1_555 1_555
H43 C62 1_555 1_555
C63 H44 1_555 1_555
C64 H45 1_555 1_555
C66 C59 1_555 1_555
C67 C62 1_555 1_555
H47 C67 1_555 1_555
Cu6 N6 1_555 1_555
I5 Cu6 1_555 1_555
C60 C66 1_555 1_555
C63 C68 1_555 1_555
C64 C66 1_555 1_555
C64 C67 1_555 1_555
C59_2 H41_2 1_555 1_555
N6_2 C59_2 1_555 1_555
C60_2 C63_2 1_555 1_555
C62_2 N6_2 1_555 1_555
H43_2 C62_2 1_555 1_555
C63_2 H44_2 1_555 1_555
C64_2 H45_2 1_555 1_555
C66_2 C59_2 1_555 1_555
C67_2 C62_2 1_555 1_555
H47_2 C67_2 1_555 1_555
Cu7 N6_2 1_555 1_555
I5_2 Cu7 1_555 1_555
C60_2 C66_2 1_555 1_555
C63_2 C68_2 1_555 1_555
C64_2 C66_2 1_555 1_555
C64_2 C67_2 1_555 1_555
C58_2 C12_3 1_555 1_555
C61_2 C58_2 1_555 1_555
H42_2 C61_2 1_555 1_555
H46_2 C65_2 1_555 1_555
C80_2 C12_3 1_555 1_555
C81_2 H57_2 1_555 1_555
N8_2 C81_2 1_555 1_555
C82_2 C85_2 1_555 1_555
C83_2 C80_2 1_555 1_555
H58_2 C83_2 1_555 1_555
C84_2 N8_2 1_555 1_555
C85_2 H60_2 1_555 1_555
C87_2 C82_2 1_555 1_555
H62_2 C87_2 1_555 1_555
C88_2 C81_2 1_555 1_555
C90_2 C80_2 1_555 1_555
H64_2 C90_2 1_555 1_555
Cu9 I3_2 1_555 1_555
Cu8 N8_2 1_555 1_555
C61_2 C65_2 1_555 1_555
C82_2 C88_2 1_555 1_555
C83_2 C87_2 1_555 1_555
C85_2 C90_2 1_555 1_555
C86_2 C88_2 1_555 1_555
H63_2 C89_2 1_555 1_555
C5_2 H2_2 1_555 1_555
C9_2 C14_2 1_555 1_555
C11_2 N11 1_555 1_555
H7_2 C11_2 1_555 1_555
C14_2 H9_2 1_555 1_555
C15_2 H10_2 1_555 1_555
C17_2 C5_2 1_555 1_555
C22_2 C11_2 1_555 1_555
H15_2 C22_2 1_555 1_555
C5_2 N11 1_555 1_555
C9_2 C17_2 1_555 1_555
C14_2 C23_2 1_555 1_555
C15_2 C17_2 1_555 1_555
C15_2 C22_2 1_555 1_555
C2_2 C10_2 1_555 1_555
C10_2 H6_2 1_555 1_555
C12_4 C2_2 1_555 1_555
H11_2 C16_2 1_555 1_555
C69_2 C12_4 1_555 1_555
C70_2 H49_2 1_555 1_555
N12 C70_2 1_555 1_555
C71_2 C74_2 1_555 1_555
C72_2 C69_2 1_555 1_555
H50_2 C72_2 1_555 1_555
C73_2 N12 1_555 1_555
C74_2 H52_2 1_555 1_555
C76_2 C71_2 1_555 1_555
H54_2 C76_2 1_555 1_555
C77_2 C70_2 1_555 1_555
C79_2 C69_2 1_555 1_555
H56_2 C79_2 1_555 1_555
I7 Cu11 1_555 1_555
N10_2 Cu11 1_555 1_555
C10_2 C16_2 1_555 1_555
C71_2 C77_2 1_555 1_555
C72_2 C76_2 1_555 1_555
C74_2 C79_2 1_555 1_555
C75_2 C77_2 1_555 1_555
H55_2 C78_2 1_555 1_555
I5 Cu8 1_555 1_555
N10_3 Cu8 1_555 1_555
I5_2 Cu9 1_555 1_555
N10_4 Cu9 1_555 1_555
N10_4 C25_2 1_555 1_555
C25_2 H17_2 1_555 1_555
C26_2 C31_2 1_555 1_555
C27_2 C24_3 1_555 1_555
C28_2 N10_4 1_555 1_555
H18_2 C28_2 1_555 1_555
C29_2 C27_2 1_555 1_555
C30_2 C27_2 1_555 1_555
H20_2 C30_2 1_555 1_555
C31_2 C30_2 1_555 1_555
H21_2 C31_2 1_555 1_555
C32_2 H22_2 1_555 1_555
C33_2 C25_2 1_555 1_555
H23_2 C33_2 1_555 1_555
C34_2 C26_2 1_555 1_555
C35_2 C26_2 1_555 1_555
H24_2 C35_2 1_555 1_555
C28_2 C34_2 1_555 1_555
C29_2 C35_2 1_555 1_555
C32_2 C33_2 1_555 1_555
C32_2 C34_2 1_555 1_555
N10 C36_2 1_555 1_555
C36_2 H25_2 1_555 1_555
C37_2 C42_2 1_555 1_555
C38_2 C24_4 1_555 1_555
C39_2 N10 1_555 1_555
H26_2 C39_2 1_555 1_555
C40_2 C38_2 1_555 1_555
C41_2 C38_2 1_555 1_555
H28_2 C41_2 1_555 1_555
C42_2 C41_2 1_555 1_555
H29_2 C42_2 1_555 1_555
C43_2 H30_2 1_555 1_555
C44_2 C36_2 1_555 1_555
H31_2 C44_2 1_555 1_555
C45_2 C37_2 1_555 1_555
C46_2 C37_2 1_555 1_555
H32_2 C46_2 1_555 1_555
C39_2 C45_2 1_555 1_555
C40_2 C46_2 1_555 1_555
C43_2 C44_2 1_555 1_555
C43_2 C45_2 1_555 1_555
N10_3 C1_2 1_555 1_555
C1_2 H1_2 1_555 1_555
C3_2 C13_2 1_555 1_555
C4_2 C7_2 1_555 1_555
C6_2 N10_3 1_555 1_555
H3_2 C6_2 1_555 1_555
C8_2 C4_2 1_555 1_555
H5_2 C8_2 1_555 1_555
C13_2 C8_2 1_555 1_555
H8_2 C13_2 1_555 1_555
C18_2 H12_2 1_555 1_555
C19_2 C1_2 1_555 1_555
H13_2 C19_2 1_555 1_555
C20_2 C3_2 1_555 1_555
C21_2 C3_2 1_555 1_555
H14_2 C21_2 1_555 1_555
C24_6 C4_2 1_555 1_555
C6_2 C20_2 1_555 1_555
C7_2 C21_2 1_555 1_555
C18_2 C19_2 1_555 1_555
C18_2 C20_2 1_555 1_555
N10_2 C47_2 1_555 1_555
C47_2 H33_2 1_555 1_555
C48_2 C53_2 1_555 1_555
C49_2 C24_9 1_555 1_555
C50_2 N10_2 1_555 1_555
H34_2 C50_2 1_555 1_555
C51_2 C49_2 1_555 1_555
C52_2 C49_2 1_555 1_555
H36_2 C52_2 1_555 1_555
C53_2 C52_2 1_555 1_555
H37_2 C53_2 1_555 1_555
C54_2 H38_2 1_555 1_555
C55_2 C47_2 1_555 1_555
H39_2 C55_2 1_555 1_555
C56_2 C48_2 1_555 1_555
C57_2 C48_2 1_555 1_555
H40_2 C57_2 1_555 1_555
C50_2 C56_2 1_555 1_555
C51_2 C57_2 1_555 1_555
C54_2 C55_2 1_555 1_555
C54_2 C56_2 1_555 1_555

#END
