
###############################################################################
#
# This file contains modified crystal structure data generated from the
# MOF subset of the Cambridge Structural Database (CSD) v543 
# hosted by the Cambridge Crystallographic Data Centre (CCDC).
#
# This work is licensed under the Creative Commons
# Attribution-NonCommercial-ShareAlike 4.0 International License.
# To view a copy of this license, visit
# http://creativecommons.org/licenses/by-nc-sa/4.0/
# or send a letter to
# Creative Commons, PO Box 1866, Mountain View, CA 94042, USA.
#
# CIF created using the CSD Python API on 29 September 2022
# The structure has been converted into the P1 space group
# The structure has a 3D framework
# The original CSD entry ABELAY is in the tetragonal crystal system
# The framework has been calculated to contain at least 10.0% void space
# The void calculation uses a probe of radius 1.32A, grid spacing 0.4
#
###############################################################################

data_ABELAY
_chemical_formula_moiety         '(C189 H128 Cu8 I8 N16)n'
_symmetry_cell_setting           triclinic
_symmetry_space_group_name_H-M   'P 1'
_symmetry_Int_Tables_number      1
_space_group_name_Hall           'P 1'
loop_
_symmetry_equiv_pos_site_id
_symmetry_equiv_pos_as_xyz
1 x,y,z
_cell_length_a                   27.2898(5)
_cell_length_b                   27.2898(5)
_cell_length_c                   7.1147(2)
_cell_angle_alpha                90
_cell_angle_beta                 90
_cell_angle_gamma                90
_cell_volume                     5298.55
loop_
_atom_site_label
_atom_site_type_symbol
_atom_site_fract_x
_atom_site_fract_y
_atom_site_fract_z
C3 C 0.000000 0.000000 0.000000
C47 C 0.0308(8) 0.0327(7) 0.128(3)
C48 C 0.0583(7) 0.0117(8) 0.272(2)
C49 C 0.1424(8) 0.1611(8) 0.442(3)
H34 H 0.137231 0.169766 0.314418
C50 C 0.0878(9) 0.0904(8) 0.380(3)
C51 C 0.0588(9) 0.1130(9) 0.242(3)
H35 H 0.058075 0.147682 0.232463
C52 C 0.0311(7) 0.0844(8) 0.118(3)
H36 H 0.011944 0.100215 0.024608
C53 C 0.0860(7) 0.0377(7) 0.393(3)
H37 H 0.104262 0.021249 0.488097
C54 C 0.1301(9) 0.1053(9) 0.695(3)
H38 H 0.115954 0.076804 0.749166
C55 C 0.1198(8) 0.1183(8) 0.508(3)
C56 C 0.1782(8) 0.1776(8) 0.721(3)
H39 H 0.196411 0.199035 0.800166
C57 C 0.1603(11) 0.1338(11) 0.796(3)
H40 H 0.169583 0.124075 0.919707
N5 N 0.1706(7) 0.1903(7) 0.545(2)
C68 C 0.6857(10) 0.1136(9) 0.016(3)
H48 H 0.689671 0.108318 0.147232
Cu6 Cu 0.20534(11) 0.24672(12) 0.4083(4)
C3_2 C 0.000000 0.000000 1.000000
H14 H 0.452195 0.029372 0.555196
C21 C 0.500000 -0.000000 0.250000
H25 H 0.022940 0.057648 0.714814
N6 N 0.7108(7) 0.1555(7) 0.746(3)
C58 C 0.6776(8) 0.1305(8) 0.647(3)
H41 H 0.675623 0.135805 0.514841
C59 C 0.7155(10) 0.1461(10) 0.926(3)
H42 H 0.740355 0.162361 0.995173
C60 C 0.6461(9) 0.0974(8) 0.728(3)
C61 C 0.6513(10) 0.0892(9) 0.923(3)
H43 H 0.630530 0.066698 0.987017
C62 C 0.6074(9) 0.0738(8) 0.612(3)
C63 C 0.5930(8) 0.0241(8) 0.642(3)
H44 H 0.607578 0.005509 0.740591
C64 C 0.5490(8) 0.0772(7) 0.353(3)
H45 H 0.533790 0.095651 0.255862
C65 C 0.5579(8) 0.0032(7) 0.529(3)
C66 C 0.5363(8) 0.0272(8) 0.376(3)
C67 C 0.5827(8) 0.0993(8) 0.466(3)
H47 H 0.589869 0.132992 0.447372
C75 C 0.4228(7) 0.0490(8) 0.147(3)
H53 H 0.404349 0.033790 0.244138
C77 C 0.4728(8) 0.0363(8) 0.124(3)
C78 C 0.4007(8) 0.0827(8) 0.034(3)
H55 H 0.367008 0.089869 0.052628
Cu5 Cu 0.75328(12) 0.20534(11) 0.5917(4)
N7 N 0.3445(7) 0.2108(7) 0.754(3)
C69 C 0.3695(8) 0.1776(8) 0.853(3)
H49 H 0.364195 0.175623 0.985159
C70 C 0.3539(10) 0.2155(10) 0.574(3)
H50 H 0.337639 0.240355 0.504827
C71 C 0.4026(8) 0.1461(9) 0.772(3)
C72 C 0.4108(9) 0.1513(10) 0.577(3)
H51 H 0.433302 0.130530 0.512983
C73 C 0.4262(8) 0.1074(9) 0.888(3)
C74 C 0.4759(8) 0.0930(8) 0.858(3)
H52 H 0.494491 0.107578 0.759409
C76 C 0.4968(7) 0.0579(8) 0.971(3)
H54 H 0.529372 0.047805 0.944804
C79 C 0.3864(9) 0.1857(10) 0.484(3)
H56 H 0.391682 0.189671 0.352768
Cu8 Cu 0.29466(11) 0.25328(12) 0.9083(4)
C3_3 C 0.000000 1.000000 0.000000
C24 C 0.3143(10) 0.8864(9) 0.016(3)
H16 H 0.310329 0.891682 0.147232
H33 H 0.057648 0.977060 0.285186
Cu9 Cu 0.25328(12) 0.70534(11) 0.0917(4)
Cu1 Cu 0.24672(12) 0.79466(11) 0.5917(4)
C1 C 0.0327(7) 0.9692(8) 0.872(3)
C2 C 0.0117(8) 0.9417(7) 0.728(2)
C3_4 C -0.000000 1.000000 1.000000
C4 C 0.1611(8) 0.8576(8) 0.558(3)
H2 H 0.169766 0.862769 0.685582
C5 C 0.0904(8) 0.9122(9) 0.620(3)
C6 C 0.1130(9) 0.9412(9) 0.758(3)
H3 H 0.147682 0.941925 0.767537
C7 C 0.0844(8) 0.9689(7) 0.882(3)
H4 H 0.100215 0.988056 0.975392
C8 C 0.0377(7) 0.9140(7) 0.607(3)
H5 H 0.021249 0.895738 0.511903
C9 C 0.1053(9) 0.8699(9) 0.305(3)
H6 H 0.076804 0.884046 0.250834
C10 C 0.1183(8) 0.8802(8) 0.492(3)
C11 C 0.1776(8) 0.8218(8) 0.279(3)
H7 H 0.199035 0.803589 0.199834
C12 C 0.1338(11) 0.8397(11) 0.204(3)
H8 H 0.124075 0.830417 0.080293
N1 N 0.1903(7) 0.8294(7) 0.455(2)
N2 N 0.2892(7) 0.8445(7) 0.746(3)
C13 C 0.3224(8) 0.8695(8) 0.647(3)
H9 H 0.324377 0.864195 0.514841
C14 C 0.2845(10) 0.8539(10) 0.926(3)
H10 H 0.259645 0.837639 0.995173
C15 C 0.3539(9) 0.9026(8) 0.728(3)
C16 C 0.3487(10) 0.9108(9) 0.923(3)
H11 H 0.369470 0.933302 0.987017
C17 C 0.3926(9) 0.9262(8) 0.612(3)
C18 C 0.4070(8) 0.9759(8) 0.642(3)
H12 H 0.392422 0.994491 0.740591
C19 C 0.4510(8) 0.9228(7) 0.353(3)
H13 H 0.466210 0.904349 0.255862
C20 C 0.4421(8) 0.9968(7) 0.529(3)
C21_2 C 0.500000 1.000000 0.250000
C22 C 0.4637(8) 0.9728(8) 0.376(3)
C23 C 0.4173(8) 0.9007(8) 0.466(3)
H15 H 0.410131 0.867008 0.447372
I1 I 0.19645(5) 0.74188(5) 0.83385(17)
H46 H 0.547805 0.970628 0.555196
C86 C 0.5772(7) 0.9510(8) 0.147(3)
H61 H 0.595651 0.966210 0.244138
C88 C 0.5272(8) 0.9637(8) 0.124(3)
C89 C 0.5993(8) 0.9173(8) 0.034(3)
H63 H 0.632992 0.910131 0.052628
I4 I 0.30355(5) 0.75812(5) 0.33385(17)
N12 N 0.2108(7) 0.6555(7) 0.246(3)
N8 N 0.6555(7) 0.7892(7) 0.754(3)
C80 C 0.6305(8) 0.8224(8) 0.853(3)
H57 H 0.635805 0.824377 0.985159
C81 C 0.6461(10) 0.7845(10) 0.574(3)
H58 H 0.662361 0.759645 0.504827
C82 C 0.5974(8) 0.8539(9) 0.772(3)
C83 C 0.5892(9) 0.8487(10) 0.577(3)
H59 H 0.566698 0.869470 0.512983
C84 C 0.5738(8) 0.8926(9) 0.888(3)
C85 C 0.5241(8) 0.9070(8) 0.858(3)
H60 H 0.505509 0.892422 0.759409
C87 C 0.5032(7) 0.9421(8) 0.971(3)
H62 H 0.470628 0.952195 0.944804
C90 C 0.6136(9) 0.8143(10) 0.484(3)
H64 H 0.608318 0.810329 0.352768
Cu11 Cu 0.70534(11) 0.74672(12) 0.9083(4)
N9 N 0.3097(7) 0.6706(7) 0.955(2)
C3_5 C 1.000000 0.000000 0.000000
H17 H 0.942352 0.022940 0.285186
Cu7 Cu 0.74672(12) 0.29466(11) 0.0917(4)
C3_6 C 1.000000 0.000000 1.000000
C36 C 0.9673(7) 0.0308(8) 0.872(3)
C37 C 0.9883(8) 0.0583(7) 0.728(2)
C38 C 0.8389(8) 0.1424(8) 0.558(3)
H26 H 0.830234 0.137231 0.685582
C39 C 0.9096(8) 0.0878(9) 0.620(3)
C40 C 0.8870(9) 0.0588(9) 0.758(3)
H27 H 0.852318 0.058075 0.767537
C41 C 0.9156(8) 0.0311(7) 0.882(3)
H28 H 0.899785 0.011944 0.975392
C42 C 0.9623(7) 0.0860(7) 0.607(3)
H29 H 0.978751 0.104262 0.511903
C43 C 0.8947(9) 0.1301(9) 0.305(3)
H30 H 0.923196 0.115954 0.250834
C44 C 0.8817(8) 0.1198(8) 0.492(3)
C45 C 0.8224(8) 0.1782(8) 0.279(3)
H31 H 0.800965 0.196411 0.199834
C46 C 0.8662(11) 0.1603(11) 0.204(3)
H32 H 0.875925 0.169583 0.080293
N4 N 0.8097(7) 0.1706(7) 0.455(2)
I3 I 0.80355(5) 0.25812(5) 0.83385(17)
I6 I 0.69645(5) 0.24188(5) 0.33385(17)
C3_7 C 1.000000 1.000000 0.000000
C25 C 0.9692(8) 0.9673(7) 0.128(3)
C26 C 0.9417(7) 0.9883(8) 0.272(2)
C27 C 0.8576(8) 0.8389(8) 0.442(3)
H18 H 0.862769 0.830234 0.314418
C28 C 0.9122(9) 0.9096(8) 0.380(3)
C29 C 0.9412(9) 0.8870(9) 0.242(3)
H19 H 0.941925 0.852318 0.232463
C30 C 0.9689(7) 0.9156(8) 0.118(3)
H20 H 0.988056 0.899785 0.024608
C31 C 0.9140(7) 0.9623(7) 0.393(3)
H21 H 0.895738 0.978751 0.488097
C32 C 0.8699(9) 0.8947(9) 0.695(3)
H22 H 0.884046 0.923196 0.749166
C33 C 0.8802(8) 0.8817(8) 0.508(3)
C34 C 0.8218(8) 0.8224(8) 0.721(3)
H23 H 0.803589 0.800965 0.800166
C35 C 0.8397(11) 0.8662(11) 0.796(3)
H24 H 0.830417 0.875925 0.919707
N3 N 0.8294(7) 0.8097(7) 0.545(2)
Cu2 Cu 0.79466(11) 0.75328(12) 0.4083(4)
I2 I 0.74188(5) 0.80355(5) 0.16615(17)
N10 N 0.8445(7) 0.7108(7) 0.254(3)
I7 I 0.75812(5) 0.69645(5) 0.66615(17)
H1 H 0.977060 0.942352 0.714814
C3_8 C 1.000000 1.000000 1.000000
I3_2 I 0.25812(5) 0.19645(5) 0.16615(17)
N11 N 0.1555(7) 0.2892(7) 0.254(3)
I6_2 I 0.24188(5) 0.30355(5) 0.66615(17)
C69_2 C 0.1776(8) 0.6305(8) 0.147(3)
H49_2 H 0.175623 0.635805 0.014841
C70_2 C 0.2155(10) 0.6461(10) 0.426(3)
H50_2 H 0.240355 0.662361 0.495173
C71_2 C 0.1461(9) 0.5974(8) 0.228(3)
C72_2 C 0.1513(10) 0.5892(9) 0.423(3)
H51_2 H 0.130530 0.566698 0.487017
C73_2 C 0.1074(9) 0.5738(8) 0.112(3)
C74_2 C 0.0930(8) 0.5241(8) 0.142(3)
H52_2 H 0.107578 0.505509 0.240591
C76_2 C 0.0579(8) 0.5032(7) 0.029(3)
H54_2 H 0.047805 0.470628 0.055196
C79_2 C 0.1857(10) 0.6136(9) 0.516(3)
H56_2 H 0.189671 0.608318 0.647232
H14_2 H 0.029372 0.547805 0.444804
C21_3 C -0.000000 0.500000 0.750000
C58_2 C 0.1305(8) 0.3224(8) 0.353(3)
H41_2 H 0.135805 0.324377 0.485159
C59_2 C 0.1461(10) 0.2845(10) 0.074(3)
H42_2 H 0.162361 0.259645 0.004827
C60_2 C 0.0974(8) 0.3539(9) 0.272(3)
C61_2 C 0.0892(9) 0.3487(10) 0.077(3)
H43_2 H 0.066698 0.369470 0.012983
C62_2 C 0.0738(8) 0.3926(9) 0.388(3)
C63_2 C 0.0241(8) 0.4070(8) 0.358(3)
H44_2 H 0.005509 0.392422 0.259409
C64_2 C 0.0772(7) 0.4510(8) 0.647(3)
H45_2 H 0.095651 0.466210 0.744138
C65_2 C 0.0032(7) 0.4421(8) 0.471(3)
C66_2 C 0.0272(8) 0.4637(8) 0.624(3)
C67_2 C 0.0993(8) 0.4173(8) 0.534(3)
H47_2 H 0.132992 0.410131 0.552628
C75_2 C 0.0490(8) 0.5772(7) 0.853(3)
H53_2 H 0.033790 0.595651 0.755862
C77_2 C 0.0363(8) 0.5272(8) 0.876(3)
C78_2 C 0.0827(8) 0.5993(8) 0.966(3)
H55_2 H 0.089869 0.632992 0.947372
C68_2 C 0.1136(9) 0.3143(10) 0.984(3)
H48_2 H 0.108318 0.310329 0.852768
N8_2 N 0.7892(7) 0.3445(7) 0.246(3)
C80_2 C 0.8224(8) 0.3695(8) 0.147(3)
H57_2 H 0.824377 0.364195 0.014841
C81_2 C 0.7845(10) 0.3539(10) 0.426(3)
H58_2 H 0.759645 0.337639 0.495173
C82_2 C 0.8539(9) 0.4026(8) 0.228(3)
C83_2 C 0.8487(10) 0.4108(9) 0.423(3)
H59_2 H 0.869470 0.433302 0.487017
C84_2 C 0.8926(9) 0.4262(8) 0.112(3)
C85_2 C 0.9070(8) 0.4759(8) 0.142(3)
H60_2 H 0.892422 0.494491 0.240591
C87_2 C 0.9421(8) 0.4968(7) 0.029(3)
H62_2 H 0.952195 0.529372 0.055196
C90_2 C 0.8143(10) 0.3864(9) 0.516(3)
H64_2 H 0.810329 0.391682 0.647232
N9_2 N 0.6706(7) 0.6903(7) 0.045(2)
C13_2 C 0.8695(8) 0.6776(8) 0.353(3)
H9_2 H 0.864195 0.675623 0.485159
C14_2 C 0.8539(10) 0.7155(10) 0.074(3)
H10_2 H 0.837639 0.740355 0.004827
C15_2 C 0.9026(8) 0.6461(9) 0.272(3)
C16_2 C 0.9108(9) 0.6513(10) 0.077(3)
H11_2 H 0.933302 0.630530 0.012983
C17_2 C 0.9262(8) 0.6074(9) 0.388(3)
C18_2 C 0.9759(8) 0.5930(8) 0.358(3)
H12_2 H 0.994491 0.607578 0.259409
C19_2 C 0.9228(7) 0.5490(8) 0.647(3)
H13_2 H 0.904349 0.533790 0.744138
C20_2 C 0.9968(7) 0.5579(8) 0.471(3)
C21_4 C 1.000000 0.500000 0.750000
C22_2 C 0.9728(8) 0.5363(8) 0.624(3)
C23_2 C 0.9007(8) 0.5827(8) 0.534(3)
H15_2 H 0.867008 0.589869 0.552628
H46_2 H 0.970628 0.452195 0.444804
C86_2 C 0.9510(8) 0.4228(7) 0.853(3)
H61_2 H 0.966210 0.404349 0.755862
C88_2 C 0.9637(8) 0.4728(8) 0.876(3)
C89_2 C 0.9173(8) 0.4007(8) 0.966(3)
H63_2 H 0.910131 0.367008 0.947372
C24_2 C 0.8864(9) 0.6857(10) 0.984(3)
H16_2 H 0.891682 0.689671 0.852768
N9_3 N 0.6903(7) 0.3294(7) 0.955(2)
N9_4 N 0.3294(7) 0.3097(7) 0.045(2)
C32_2 C 0.3699(9) 0.3947(9) 0.195(3)
H22_2 H 0.384046 0.423196 0.249166
C33_2 C 0.3802(8) 0.3817(8) 0.008(3)
C34_2 C 0.3218(8) 0.3224(8) 0.221(3)
H23_2 H 0.303589 0.300965 0.300166
C35_2 C 0.3397(11) 0.3662(11) 0.296(3)
H24_2 H 0.330417 0.375925 0.419707
C54_2 C 0.6301(9) 0.6053(9) 0.195(3)
H38_2 H 0.615954 0.576804 0.249166
C55_2 C 0.6198(8) 0.6183(8) 0.008(3)
C56_2 C 0.6782(8) 0.6776(8) 0.221(3)
H39_2 H 0.696411 0.699035 0.300166
C57_2 C 0.6603(11) 0.6338(11) 0.296(3)
H40_2 H 0.669583 0.624075 0.419707
C1_2 C 0.5327(7) 0.4692(8) 0.372(3)
C2_2 C 0.5117(8) 0.4417(7) 0.228(2)
H1_2 H 0.477060 0.442352 0.214814
C3_9 C 0.500000 0.500000 0.500000
C4_2 C 0.6611(8) 0.3576(8) 0.058(3)
H2_2 H 0.669766 0.362769 0.185582
C5_2 C 0.5904(8) 0.4122(9) 0.120(3)
C6_2 C 0.6130(9) 0.4412(9) 0.258(3)
H3_2 H 0.647682 0.441925 0.267537
C7_2 C 0.5844(8) 0.4689(7) 0.382(3)
H4_2 H 0.600215 0.488056 0.475392
C8_2 C 0.5377(7) 0.4140(7) 0.107(3)
H5_2 H 0.521249 0.395738 0.011903
C25_2 C 0.4692(8) 0.4673(7) 0.628(3)
C26_2 C 0.4417(7) 0.4883(8) 0.772(2)
H17_2 H 0.442352 0.522940 0.785186
C27_2 C 0.3576(8) 0.3389(8) 0.942(3)
H18_2 H 0.362769 0.330234 0.814418
C28_2 C 0.4122(9) 0.4096(8) 0.880(3)
C29_2 C 0.4412(9) 0.3870(9) 0.742(3)
H19_2 H 0.441925 0.352318 0.732463
C30_2 C 0.4689(7) 0.4156(8) 0.618(3)
H20_2 H 0.488056 0.399785 0.524608
C31_2 C 0.4140(7) 0.4623(7) 0.893(3)
H21_2 H 0.395738 0.478751 0.988097
C36_2 C 0.4673(7) 0.5308(8) 0.372(3)
C37_2 C 0.4883(8) 0.5583(7) 0.228(2)
H25_2 H 0.522940 0.557648 0.214814
C38_2 C 0.3389(8) 0.6424(8) 0.058(3)
H26_2 H 0.330234 0.637231 0.185582
C39_2 C 0.4096(8) 0.5878(9) 0.120(3)
C40_2 C 0.3870(9) 0.5588(9) 0.258(3)
H27_2 H 0.352318 0.558075 0.267537
C41_2 C 0.4156(8) 0.5311(7) 0.382(3)
H28_2 H 0.399785 0.511944 0.475392
C42_2 C 0.4623(7) 0.5860(7) 0.107(3)
H29_2 H 0.478751 0.604262 0.011903
C47_2 C 0.5308(8) 0.5327(7) 0.628(3)
C48_2 C 0.5583(7) 0.5117(8) 0.772(2)
H33_2 H 0.557648 0.477060 0.785186
C49_2 C 0.6424(8) 0.6611(8) 0.942(3)
H34_2 H 0.637231 0.669766 0.814418
C50_2 C 0.5878(9) 0.5904(8) 0.880(3)
C51_2 C 0.5588(9) 0.6130(9) 0.742(3)
H35_2 H 0.558075 0.647682 0.732463
C52_2 C 0.5311(7) 0.5844(8) 0.618(3)
H36_2 H 0.511944 0.600215 0.524608
C53_2 C 0.5860(7) 0.5377(7) 0.893(3)
H37_2 H 0.604262 0.521249 0.988097
C9_2 C 0.6053(9) 0.3699(9) 0.805(3)
H6_2 H 0.576804 0.384046 0.750834
C10_2 C 0.6183(8) 0.3802(8) 0.992(3)
C11_2 C 0.6776(8) 0.3218(8) 0.779(3)
H7_2 H 0.699035 0.303589 0.699834
C12_2 C 0.6338(11) 0.3397(11) 0.704(3)
H8_2 H 0.624075 0.330417 0.580293
C43_2 C 0.3947(9) 0.6301(9) 0.805(3)
H30_2 H 0.423196 0.615954 0.750834
C44_2 C 0.3817(8) 0.6198(8) 0.992(3)
C45_2 C 0.3224(8) 0.6782(8) 0.779(3)
H31_2 H 0.300965 0.696411 0.699834
C46_2 C 0.3662(11) 0.6603(11) 0.704(3)
H32_2 H 0.375925 0.669583 0.580293
loop_
_geom_bond_atom_site_label_1
_geom_bond_atom_site_label_2
_geom_bond_site_symmetry_1
_geom_bond_site_symmetry_2
C47 C3 1_555 1_555
C48 C47 1_555 1_555
C49 H34 1_555 1_555
C50 C51 1_555 1_555
C51 H35 1_555 1_555
C52 C47 1_555 1_555
H36 C52 1_555 1_555
C53 C48 1_555 1_555
H37 C53 1_555 1_555
C54 H38 1_555 1_555
C55 C49 1_555 1_555
C56 H39 1_555 1_555
C57 C54 1_555 1_555
H40 C57 1_555 1_555
N5 C49 1_555 1_555
H48 C68 1_555 1_555
Cu6 N5 1_555 1_555
C50 C53 1_555 1_555
C50 C55 1_555 1_555
C51 C52 1_555 1_555
C54 C55 1_555 1_555
C56 C57 1_555 1_555
C56 N5 1_555 1_555
N6 C58 1_555 1_555
C58 H41 1_555 1_555
C59 N6 1_555 1_555
H42 C59 1_555 1_555
C60 C58 1_555 1_555
C61 C60 1_555 1_555
H43 C61 1_555 1_555
C62 C60 1_555 1_555
C63 C62 1_555 1_555
H44 C63 1_555 1_555
C64 H45 1_555 1_555
C65 C63 1_555 1_555
C66 C21 1_555 1_555
C67 C62 1_555 1_555
H47 C67 1_555 1_555
C75 H53 1_555 1_555
C77 C21 1_555 1_555
H55 C78 1_555 1_555
Cu5 N6 1_555 1_555
C64 C66 1_555 1_555
C64 C67 1_555 1_555
C65 C66 1_555 1_555
C75 C77 1_555 1_555
C75 C78 1_555 1_555
N7 C69 1_555 1_555
C69 H49 1_555 1_555
C70 N7 1_555 1_555
H50 C70 1_555 1_555
C71 C69 1_555 1_555
C72 C71 1_555 1_555
H51 C72 1_555 1_555
C73 C71 1_555 1_555
C74 C73 1_555 1_555
H52 C74 1_555 1_555
C76 C74 1_555 1_555
H54 C76 1_555 1_555
C79 C70 1_555 1_555
H56 C79 1_555 1_555
Cu8 N7 1_555 1_555
C72 C79 1_555 1_555
H16 C24 1_555 1_555
Cu1 N1 1_555 1_555
C1 C2 1_555 1_555
C3_4 C1 1_555 1_555
C4 H2 1_555 1_555
C5 C6 1_555 1_555
C6 H3 1_555 1_555
C7 C1 1_555 1_555
H4 C7 1_555 1_555
C8 C2 1_555 1_555
H5 C8 1_555 1_555
C9 H6 1_555 1_555
C10 C4 1_555 1_555
C11 H7 1_555 1_555
C12 C9 1_555 1_555
H8 C12 1_555 1_555
N1 C4 1_555 1_555
N2 Cu1 1_555 1_555
C13 N2 1_555 1_555
H9 C13 1_555 1_555
C14 N2 1_555 1_555
H10 C14 1_555 1_555
C15 C13 1_555 1_555
C16 C15 1_555 1_555
H11 C16 1_555 1_555
C17 C15 1_555 1_555
C18 C17 1_555 1_555
H12 C18 1_555 1_555
C19 H13 1_555 1_555
C20 C18 1_555 1_555
C21_2 C22 1_555 1_555
C22 C19 1_555 1_555
C23 C17 1_555 1_555
H15 C23 1_555 1_555
I1 Cu1 1_555 1_555
C86 H61 1_555 1_555
C88 C21_2 1_555 1_555
H63 C89 1_555 1_555
Cu9 I4 1_555 1_555
I4 Cu1 1_555 1_555
N12 Cu9 1_555 1_555
C5 C8 1_555 1_555
C5 C10 1_555 1_555
C6 C7 1_555 1_555
C9 C10 1_555 1_555
C11 C12 1_555 1_555
C11 N1 1_555 1_555
C19 C23 1_555 1_555
C20 C22 1_555 1_555
C86 C88 1_555 1_555
C86 C89 1_555 1_555
N8 C80 1_555 1_555
C80 H57 1_555 1_555
C81 N8 1_555 1_555
H58 C81 1_555 1_555
C82 C80 1_555 1_555
C83 C82 1_555 1_555
H59 C83 1_555 1_555
C84 C82 1_555 1_555
C85 C84 1_555 1_555
H60 C85 1_555 1_555
C87 C85 1_555 1_555
H62 C87 1_555 1_555
C90 C81 1_555 1_555
H64 C90 1_555 1_555
Cu11 N8 1_555 1_555
C83 C90 1_555 1_555
C36 C3_6 1_555 1_555
C37 C36 1_555 1_555
C38 H26 1_555 1_555
C39 C40 1_555 1_555
C40 H27 1_555 1_555
C41 C36 1_555 1_555
H28 C41 1_555 1_555
C42 C37 1_555 1_555
H29 C42 1_555 1_555
C43 H30 1_555 1_555
C44 C38 1_555 1_555
C45 H31 1_555 1_555
C46 C43 1_555 1_555
H32 C46 1_555 1_555
N4 C38 1_555 1_555
Cu5 N4 1_555 1_555
I3 Cu5 1_555 1_555
I6 Cu5 1_555 1_555
C39 C42 1_555 1_555
C39 C44 1_555 1_555
C40 C41 1_555 1_555
C43 C44 1_555 1_555
C45 C46 1_555 1_555
C45 N4 1_555 1_555
C25 C3_7 1_555 1_555
C26 C25 1_555 1_555
C27 H18 1_555 1_555
C28 C29 1_555 1_555
C29 H19 1_555 1_555
C30 C25 1_555 1_555
H20 C30 1_555 1_555
C31 C26 1_555 1_555
H21 C31 1_555 1_555
C32 H22 1_555 1_555
C33 C27 1_555 1_555
C34 H23 1_555 1_555
C35 C32 1_555 1_555
H24 C35 1_555 1_555
N3 C27 1_555 1_555
Cu2 N3 1_555 1_555
I2 Cu2 1_555 1_555
N10 Cu2 1_555 1_555
I7 Cu2 1_555 1_555
C28 C31 1_555 1_555
C28 C33 1_555 1_555
C29 C30 1_555 1_555
C32 C33 1_555 1_555
C34 C35 1_555 1_555
C34 N3 1_555 1_555
I3_2 Cu6 1_555 1_555
N11 Cu6 1_555 1_555
I6_2 Cu6 1_555 1_555
N12 C69_2 1_555 1_555
C69_2 H49_2 1_555 1_555
C70_2 N12 1_555 1_555
H50_2 C70_2 1_555 1_555
C71_2 C69_2 1_555 1_555
C72_2 C71_2 1_555 1_555
H51_2 C72_2 1_555 1_555
C73_2 C71_2 1_555 1_555
C74_2 C73_2 1_555 1_555
H52_2 C74_2 1_555 1_555
C76_2 C74_2 1_555 1_555
H54_2 C76_2 1_555 1_555
C79_2 C70_2 1_555 1_555
H56_2 C79_2 1_555 1_555
C72_2 C79_2 1_555 1_555
N11 C58_2 1_555 1_555
C58_2 H41_2 1_555 1_555
C59_2 N11 1_555 1_555
H42_2 C59_2 1_555 1_555
C60_2 C58_2 1_555 1_555
C61_2 C60_2 1_555 1_555
H43_2 C61_2 1_555 1_555
C62_2 C60_2 1_555 1_555
C63_2 C62_2 1_555 1_555
H44_2 C63_2 1_555 1_555
C64_2 H45_2 1_555 1_555
C65_2 C63_2 1_555 1_555
C66_2 C21_3 1_555 1_555
C67_2 C62_2 1_555 1_555
H47_2 C67_2 1_555 1_555
C75_2 H53_2 1_555 1_555
C77_2 C21_3 1_555 1_555
H55_2 C78_2 1_555 1_555
C64_2 C66_2 1_555 1_555
C64_2 C67_2 1_555 1_555
C65_2 C66_2 1_555 1_555
C75_2 C77_2 1_555 1_555
C75_2 C78_2 1_555 1_555
H48_2 C68_2 1_555 1_555
N8_2 C80_2 1_555 1_555
C80_2 H57_2 1_555 1_555
C81_2 N8_2 1_555 1_555
H58_2 C81_2 1_555 1_555
C82_2 C80_2 1_555 1_555
C83_2 C82_2 1_555 1_555
H59_2 C83_2 1_555 1_555
C84_2 C82_2 1_555 1_555
C85_2 C84_2 1_555 1_555
H60_2 C85_2 1_555 1_555
C87_2 C85_2 1_555 1_555
H62_2 C87_2 1_555 1_555
C90_2 C81_2 1_555 1_555
H64_2 C90_2 1_555 1_555
Cu7 N8_2 1_555 1_555
C83_2 C90_2 1_555 1_555
C13_2 N10 1_555 1_555
H9_2 C13_2 1_555 1_555
C14_2 N10 1_555 1_555
H10_2 C14_2 1_555 1_555
C15_2 C13_2 1_555 1_555
C16_2 C15_2 1_555 1_555
H11_2 C16_2 1_555 1_555
C17_2 C15_2 1_555 1_555
C18_2 C17_2 1_555 1_555
H12_2 C18_2 1_555 1_555
C19_2 H13_2 1_555 1_555
C20_2 C18_2 1_555 1_555
C21_4 C22_2 1_555 1_555
C22_2 C19_2 1_555 1_555
C23_2 C17_2 1_555 1_555
H15_2 C23_2 1_555 1_555
C86_2 H61_2 1_555 1_555
C88_2 C21_4 1_555 1_555
H63_2 C89_2 1_555 1_555
Cu11 I7 1_555 1_555
C19_2 C23_2 1_555 1_555
C20_2 C22_2 1_555 1_555
C86_2 C88_2 1_555 1_555
C86_2 C89_2 1_555 1_555
H16_2 C24_2 1_555 1_555
Cu7 I6 1_555 1_555
Cu8 I6_2 1_555 1_555
C32_2 H22_2 1_555 1_555
C34_2 H23_2 1_555 1_555
C35_2 C32_2 1_555 1_555
H24_2 C35_2 1_555 1_555
C54_2 H38_2 1_555 1_555
C56_2 H39_2 1_555 1_555
C57_2 C54_2 1_555 1_555
H40_2 C57_2 1_555 1_555
C32_2 C33_2 1_555 1_555
C34_2 C35_2 1_555 1_555
C34_2 N9_4 1_555 1_555
C54_2 C55_2 1_555 1_555
C56_2 C57_2 1_555 1_555
C56_2 N9_2 1_555 1_555
C1_2 C2_2 1_555 1_555
C2_2 H1_2 1_555 1_555
C3_9 C1_2 1_555 1_555
C4_2 H2_2 1_555 1_555
C5_2 C6_2 1_555 1_555
C6_2 H3_2 1_555 1_555
C7_2 C1_2 1_555 1_555
H4_2 C7_2 1_555 1_555
C8_2 C2_2 1_555 1_555
H5_2 C8_2 1_555 1_555
C25_2 C3_9 1_555 1_555
C26_2 C25_2 1_555 1_555
H17_2 C26_2 1_555 1_555
C27_2 H18_2 1_555 1_555
C28_2 C29_2 1_555 1_555
C29_2 H19_2 1_555 1_555
C30_2 C25_2 1_555 1_555
H20_2 C30_2 1_555 1_555
C31_2 C26_2 1_555 1_555
H21_2 C31_2 1_555 1_555
C36_2 C3_9 1_555 1_555
C37_2 C36_2 1_555 1_555
H25_2 C37_2 1_555 1_555
C38_2 H26_2 1_555 1_555
C39_2 C40_2 1_555 1_555
C40_2 H27_2 1_555 1_555
C41_2 C36_2 1_555 1_555
H28_2 C41_2 1_555 1_555
C42_2 C37_2 1_555 1_555
H29_2 C42_2 1_555 1_555
C47_2 C3_9 1_555 1_555
C48_2 C47_2 1_555 1_555
H33_2 C48_2 1_555 1_555
C49_2 H34_2 1_555 1_555
C50_2 C51_2 1_555 1_555
C51_2 H35_2 1_555 1_555
C52_2 C47_2 1_555 1_555
H36_2 C52_2 1_555 1_555
C53_2 C48_2 1_555 1_555
H37_2 C53_2 1_555 1_555
C5_2 C8_2 1_555 1_555
C6_2 C7_2 1_555 1_555
C28_2 C31_2 1_555 1_555
C29_2 C30_2 1_555 1_555
C39_2 C42_2 1_555 1_555
C40_2 C41_2 1_555 1_555
C50_2 C53_2 1_555 1_555
C51_2 C52_2 1_555 1_555
C9_2 H6_2 1_555 1_555
C11_2 H7_2 1_555 1_555
C12_2 C9_2 1_555 1_555
H8_2 C12_2 1_555 1_555
C43_2 H30_2 1_555 1_555
C45_2 H31_2 1_555 1_555
C46_2 C43_2 1_555 1_555
H32_2 C46_2 1_555 1_555
C9_2 C10_2 1_555 1_555
C11_2 C12_2 1_555 1_555
C11_2 N9_3 1_555 1_555
C43_2 C44_2 1_555 1_555
C45_2 C46_2 1_555 1_555
C45_2 N9 1_555 1_555

#END
