
###############################################################################
#
# This file contains modified crystal structure data generated from the
# MOF subset of the Cambridge Structural Database (CSD) v543 
# hosted by the Cambridge Crystallographic Data Centre (CCDC).
#
# This work is licensed under the Creative Commons
# Attribution-NonCommercial-ShareAlike 4.0 International License.
# To view a copy of this license, visit
# http://creativecommons.org/licenses/by-nc-sa/4.0/
# or send a letter to
# Creative Commons, PO Box 1866, Mountain View, CA 94042, USA.
#
# CIF created using the CSD Python API on 29 September 2022
# The structure has been converted into the P1 space group
# The structure has a 3D framework
# The original CSD entry ABEXEM is in the orthorhombic crystal system
# The framework has been calculated to contain at least 10.0% void space
# The void calculation uses a probe of radius 1.32A, grid spacing 0.4
#
###############################################################################

data_ABEXEM
_chemical_formula_moiety         '(C56 H40 La8 N18 O56)n'
_symmetry_cell_setting           triclinic
_symmetry_space_group_name_H-M   'P 1'
_symmetry_Int_Tables_number      1
_space_group_name_Hall           'P 1'
loop_
_symmetry_equiv_pos_site_id
_symmetry_equiv_pos_as_xyz
1 x,y,z
_cell_length_a                   12.1350(5)
_cell_length_b                   11.0417(4)
_cell_length_c                   19.6509(8)
_cell_angle_alpha                90
_cell_angle_beta                 90
_cell_angle_gamma                90
_cell_volume                     2633.04
loop_
_atom_site_label
_atom_site_type_symbol
_atom_site_fract_x
_atom_site_fract_y
_atom_site_fract_z
N4 N 0.0469(6) 0.6672(6) 0.7364(4)
C8 C 0.1501(6) 0.6266(7) 0.7394(4)
C9 C 0.1802(7) 0.5196(7) 0.7736(5)
H4 H 0.2526 0.4924 0.7758
C10 C 0.0941(7) 0.4587(6) 0.8035(4)
C11 C 0.1154(6) 0.3387(6) 0.8419(4)
O5 O 0.0345(4) 0.2902(4) 0.8714(3)
O6 O 0.2103(5) 0.2973(5) 0.8373(3)
C12 C 0.2390(7) 0.7042(7) 0.7062(4)
O7 O 0.2082(5) 0.7992(5) 0.6778(3)
O8 O 0.3372(5) 0.6671(5) 0.7106(3)
La4 La 0.34041(3) 0.13583(3) 0.87864(2)
La5 La 0.01807(3) 0.88359(3) 0.66487(2)
La7 La 0.51807(3) 0.61641(3) 0.66487(2)
O16 O 0.1563(5) 0.0530(5) 0.6783(3)
C13 C 0.1128(7) 0.8220(7) 0.5088(4)
O9 O 0.1147(5) 0.9088(5) 0.5517(3)
O10 O 0.1498(5) 0.8263(5) 0.4495(3)
C14 C 0.0616(7) 0.7008(7) 0.5320(4)
O11 O 0.0057(6) 0.7041(5) 0.5869(3)
O12 O 0.0754(5) 0.6127(5) 0.4955(3)
O15 O 0.0349(6) 0.9265(6) 0.7919(3)
H9 H 0.1091 0.9365 0.8011
H10 H 0.0230 0.8619 0.8159
La3 La 0.15959(3) 0.63583(3) 0.37864(2)
La1 La 0.84041(3) 0.36417(3) 0.87864(2)
N1 N 0.8736(6) 0.2749(6) 0.7503(4)
C1 C 0.9327(7) 0.1763(7) 0.7370(4)
H1 H 0.9875 0.1550 0.7678
N2 N 0.9192(6) 0.1066(6) 0.6830(3)
C2 C 0.8424(7) 0.1375(7) 0.6373(4)
C3 C 0.7820(7) 0.2413(7) 0.6451(4)
H2 H 0.7322 0.2663 0.6120
C4 C 0.7978(7) 0.3073(7) 0.7037(4)
C5 C 0.7242(6) 0.4135(7) 0.7225(4)
O1 O 0.7361(5) 0.4569(5) 0.7810(3)
O2 O 0.6563(5) 0.4470(5) 0.6783(3)
C6 C 0.8240(7) 0.0527(7) 0.5777(4)
O4 O 0.7507(7) 0.0827(6) 0.5369(4)
N3 N 0.9911(6) 0.5000(6) 0.8037(4)
C7 C 0.9725(7) 0.6017(8) 0.7694(4)
H3 H 0.9002 0.6297 0.7684
O13 O 0.8216(5) 0.5836(5) 0.9084(3)
O14 O 0.6586(5) 0.3850(5) 0.9410(3)
H5 H 0.8762 0.6406 0.9024
H6 H 0.7793 0.6147 0.9403
H7 H 0.6563 0.4462 0.9745
H8 H 0.5868 0.3520 0.9276
O17 O 0.7103(5) 0.2027(5) 0.8373(3)
O20 O 0.8502(5) 0.1737(5) 0.9495(3)
O21 O 0.9246(5) 0.3873(5) 0.9955(3)
O3 O 0.8845(5) 0.9615(5) 0.5739(3)
O19 O 0.8372(5) 0.8329(5) 0.7106(3)
O3_2 O 0.1155(5) 0.0385(5) 0.0739(3)
O19_2 O 0.1628(5) 0.1671(5) 0.2106(3)
N1_2 N 0.1264(6) 0.7251(6) 0.2503(4)
C1_2 C 0.0673(7) 0.8237(7) 0.2370(4)
H1_2 H 0.0125 0.8450 0.2678
N2_2 N 0.0808(6) 0.8934(6) 0.1830(3)
C2_2 C 0.1576(7) 0.8625(7) 0.1373(4)
C3_2 C 0.2180(7) 0.7587(7) 0.1451(4)
H2_2 H 0.2678 0.7337 0.1120
C4_2 C 0.2022(7) 0.6927(7) 0.2037(4)
C5_2 C 0.2758(6) 0.5865(7) 0.2225(4)
O1_2 O 0.2639(5) 0.5431(5) 0.2810(3)
O2_2 O 0.3437(5) 0.5530(5) 0.1783(3)
C6_2 C 0.1760(7) 0.9473(7) 0.0777(4)
O4_2 O 0.2493(7) 0.9173(6) 0.0369(4)
N3_2 N 0.0089(6) 0.5000(6) 0.3037(4)
C7_2 C 0.0275(7) 0.3983(8) 0.2694(4)
H3_2 H 0.0998 0.3703 0.2684
O13_2 O 0.1784(5) 0.4164(5) 0.4084(3)
O14_2 O 0.3414(5) 0.6150(5) 0.4410(3)
H5_2 H 0.1238 0.3594 0.4024
H6_2 H 0.2207 0.3853 0.4403
H7_2 H 0.3437 0.5538 0.4745
H8_2 H 0.4132 0.6480 0.4276
La6 La 0.48193(3) 0.38359(3) 0.16487(2)
O17_2 O 0.2897(5) 0.7973(5) 0.3373(3)
La2 La 0.98193(3) 0.11641(3) 0.16487(2)
C13_2 C 0.8872(7) 0.1780(7) 0.0088(4)
O9_2 O 0.8853(5) 0.0912(5) 0.0517(3)
C14_2 C 0.9384(7) 0.2992(7) 0.0320(4)
O11_2 O 0.9943(6) 0.2959(5) 0.0869(3)
O15_2 O 0.9651(6) 0.0735(6) 0.2919(3)
H9_2 H 0.8909 0.0635 0.3011
H10_2 H 0.9770 0.1381 0.3159
N5 N 0.9531(6) 0.3328(6) 0.2364(4)
O18 O 0.7918(5) 0.2008(5) 0.1778(3)
C8_2 C 0.8499(6) 0.3734(7) 0.2394(4)
C9_2 C 0.8198(7) 0.4804(7) 0.2736(5)
H4_2 H 0.7474 0.5076 0.2758
C10_2 C 0.9059(7) 0.5413(6) 0.3035(4)
C11_2 C 0.8846(6) 0.6613(6) 0.3419(4)
O5_2 O 0.9655(4) 0.7098(4) 0.3714(3)
O6_2 O 0.7897(5) 0.7027(5) 0.3373(3)
C12_2 C 0.7610(7) 0.2958(7) 0.2062(4)
O8_2 O 0.6628(5) 0.3329(5) 0.2106(3)
La4_2 La 0.65959(3) 0.86417(3) 0.37864(2)
O16_2 O 0.8437(5) 0.9470(5) 0.1783(3)
N3_3 N 0.5089(6) -0.0000(6) 0.3037(4)
C7_3 C 0.5275(7) 0.1017(8) 0.2694(4)
H3_3 H 0.5998 0.1297 0.2684
N4_2 N 0.4531(6) 0.1672(6) 0.2364(4)
C8_3 C 0.3499(6) 0.1266(7) 0.2394(4)
C9_3 C 0.3198(7) 0.0196(7) 0.2736(5)
C12_3 C 0.2610(7) 0.2042(7) 0.2062(4)
O7_2 O 0.2918(5) 0.2992(5) 0.1778(3)
O13_3 O 0.6784(5) 0.0836(5) 0.4084(3)
H5_3 H 0.6238 0.1406 0.4024
H6_3 H 0.7207 0.1147 0.4403
N1_3 N 0.6264(6) 0.7749(6) 0.2503(4)
C1_3 C 0.5673(7) 0.6763(7) 0.2370(4)
H1_3 H 0.5125 0.6550 0.2678
N2_3 N 0.5808(6) 0.6066(6) 0.1830(3)
C2_3 C 0.6576(7) 0.6375(7) 0.1373(4)
C3_3 C 0.7180(7) 0.7413(7) 0.1451(4)
H2_3 H 0.7678 0.7663 0.1120
C4_3 C 0.7022(7) 0.8073(7) 0.2037(4)
C5_3 C 0.7758(6) 0.9135(7) 0.2225(4)
O1_3 O 0.7639(5) 0.9569(5) 0.2810(3)
C6_3 C 0.6760(7) 0.5527(7) 0.0777(4)
O3_3 O 0.6155(5) 0.4615(5) 0.0739(3)
O4_3 O 0.7493(7) 0.5827(6) 0.0369(4)
N3_4 N 0.5089(6) 1.0000(6) 0.3037(4)
H4_3 H 0.2474 0.9924 0.2758
C10_3 C 0.4059(7) 0.9587(6) 0.3035(4)
C11_3 C 0.3846(6) 0.8387(6) 0.3419(4)
O5_3 O 0.4655(4) 0.7902(4) 0.3714(3)
C13_3 C 0.3872(7) 0.3220(7) 0.0088(4)
O9_3 O 0.3853(5) 0.4088(5) 0.0517(3)
C14_3 C 0.4384(7) 0.2008(7) 0.0320(4)
O11_3 O 0.4943(6) 0.2041(5) 0.0869(3)
O14_3 O 0.8414(5) 0.8850(5) 0.4410(3)
O15_3 O 0.4651(6) 0.4265(6) 0.2919(3)
H7_3 H 0.8437 0.9462 0.4745
H8_3 H 0.9132 0.8520 0.4276
H9_3 H 0.3909 0.4365 0.3011
H10_3 H 0.4770 0.3619 0.3159
O20_2 O 0.6498(5) 0.6737(5) 0.4495(3)
O21_2 O 0.5754(5) 0.8873(5) 0.4955(3)
O10_2 O 0.3502(5) 0.3263(5) 0.9495(3)
O12_2 O 0.4246(5) 0.1127(5) 0.9955(3)
N1_4 N 0.3736(6) 0.2251(6) 0.7503(4)
C1_4 C 0.4327(7) 0.3237(7) 0.7370(4)
H1_4 H 0.4875 0.3450 0.7678
N2_4 N 0.4192(6) 0.3934(6) 0.6830(3)
C2_4 C 0.3424(7) 0.3625(7) 0.6373(4)
C3_4 C 0.2820(7) 0.2587(7) 0.6451(4)
H2_4 H 0.2322 0.2337 0.6120
C4_4 C 0.2978(7) 0.1927(7) 0.7037(4)
C5_4 C 0.2242(6) 0.0865(7) 0.7225(4)
O1_4 O 0.2361(5) 0.0431(5) 0.7810(3)
C6_4 C 0.3240(7) 0.4473(7) 0.5777(4)
O3_4 O 0.3845(5) 0.5385(5) 0.5739(3)
O4_4 O 0.2507(7) 0.4173(6) 0.5369(4)
N3_5 N 0.4911(6) 0.0000(6) 0.8037(4)
H4_4 H 0.7526 0.0076 0.7758
C10_4 C 0.5941(7) 0.0413(6) 0.8035(4)
C11_4 C 0.6154(6) 0.1613(6) 0.8419(4)
O5_4 O 0.5345(4) 0.2098(4) 0.8714(3)
C13_4 C 0.6128(7) 0.6780(7) 0.5088(4)
O9_4 O 0.6147(5) 0.5912(5) 0.5517(3)
C14_4 C 0.5616(7) 0.7992(7) 0.5320(4)
O11_4 O 0.5057(6) 0.7959(5) 0.5869(3)
O14_4 O 0.1586(5) 0.1150(5) 0.9410(3)
O15_4 O 0.5349(6) 0.5735(6) 0.7919(3)
H7_4 H 0.1563 0.0538 0.9745
H8_4 H 0.0868 0.1480 0.9276
H9_4 H 0.6091 0.5635 0.8011
H10_4 H 0.5230 0.6381 0.8159
N5_2 N 0.5469(6) 0.8328(6) 0.7364(4)
O18_2 O 0.7082(5) 0.7008(5) 0.6778(3)
N3_6 N 0.4911(6) 1.0000(6) 0.8037(4)
C7_4 C 0.4725(7) 0.8983(8) 0.7694(4)
H3_4 H 0.4002 0.8703 0.7684
C8_4 C 0.6501(6) 0.8734(7) 0.7394(4)
C9_4 C 0.6802(7) 0.9804(7) 0.7736(5)
C12_4 C 0.7390(7) 0.7958(7) 0.7062(4)
O13_4 O 0.3216(5) 0.9164(5) 0.9084(3)
H5_4 H 0.3762 0.8594 0.9024
H6_4 H 0.2793 0.8853 0.9403
loop_
_geom_bond_atom_site_label_1
_geom_bond_atom_site_label_2
_geom_bond_site_symmetry_1
_geom_bond_site_symmetry_2
C8 N4 1_555 1_555
C9 C8 1_555 1_555
H4 C9 1_555 1_555
C11 C10 1_555 1_555
O6 C11 1_555 1_555
C12 C8 1_555 1_555
O7 C12 1_555 1_555
O8 C12 1_555 1_555
La4 O6 1_555 1_555
La5 N4 1_555 1_555
La7 O8 1_555 1_555
C9 C10 1_555 1_555
C11 O5 1_555 1_555
O7 La5 1_555 1_555
C13 O9 1_555 1_555
O9 La5 1_555 1_555
O10 C13 1_555 1_555
C14 C13 1_555 1_555
O11 La5 1_555 1_555
O12 C14 1_555 1_555
O15 La5 1_555 1_555
H9 O15 1_555 1_555
H10 O15 1_555 1_555
La3 O10 1_555 1_555
C14 O11 1_555 1_555
O12 La3 1_555 1_555
La1 N1 1_555 1_555
N1 C1 1_555 1_555
C1 H1 1_555 1_555
N2 C1 1_555 1_555
C2 N2 1_555 1_555
C3 C2 1_555 1_555
H2 C3 1_555 1_555
C4 N1 1_555 1_555
C5 C4 1_555 1_555
O1 La1 1_555 1_555
O2 C5 1_555 1_555
C6 C2 1_555 1_555
O4 C6 1_555 1_555
N3 La1 1_555 1_555
C7 N3 1_555 1_555
H3 C7 1_555 1_555
O13 La1 1_555 1_555
O14 La1 1_555 1_555
H5 O13 1_555 1_555
H6 O13 1_555 1_555
H7 O14 1_555 1_555
H8 O14 1_555 1_555
La7 O2 1_555 1_555
O17 La1 1_555 1_555
O20 La1 1_555 1_555
O21 La1 1_555 1_555
C3 C4 1_555 1_555
C5 O1 1_555 1_555
La3 N1_2 1_555 1_555
N1_2 C1_2 1_555 1_555
C1_2 H1_2 1_555 1_555
N2_2 C1_2 1_555 1_555
C2_2 N2_2 1_555 1_555
C3_2 C2_2 1_555 1_555
H2_2 C3_2 1_555 1_555
C4_2 N1_2 1_555 1_555
C5_2 C4_2 1_555 1_555
O1_2 La3 1_555 1_555
O2_2 C5_2 1_555 1_555
C6_2 C2_2 1_555 1_555
O4_2 C6_2 1_555 1_555
N3_2 La3 1_555 1_555
C7_2 N3_2 1_555 1_555
H3_2 C7_2 1_555 1_555
O13_2 La3 1_555 1_555
O14_2 La3 1_555 1_555
H5_2 O13_2 1_555 1_555
H6_2 O13_2 1_555 1_555
H7_2 O14_2 1_555 1_555
H8_2 O14_2 1_555 1_555
La6 O2_2 1_555 1_555
O17_2 La3 1_555 1_555
C3_2 C4_2 1_555 1_555
C5_2 O1_2 1_555 1_555
C13_2 O9_2 1_555 1_555
O9_2 La2 1_555 1_555
C14_2 C13_2 1_555 1_555
O11_2 La2 1_555 1_555
O15_2 La2 1_555 1_555
H9_2 O15_2 1_555 1_555
H10_2 O15_2 1_555 1_555
N5 La2 1_555 1_555
O18 La2 1_555 1_555
C14_2 O11_2 1_555 1_555
C8_2 N5 1_555 1_555
C9_2 C8_2 1_555 1_555
H4_2 C9_2 1_555 1_555
C11_2 C10_2 1_555 1_555
O6_2 C11_2 1_555 1_555
C12_2 C8_2 1_555 1_555
O18 C12_2 1_555 1_555
O8_2 C12_2 1_555 1_555
La4_2 O6_2 1_555 1_555
La6 O8_2 1_555 1_555
C9_2 C10_2 1_555 1_555
C11_2 O5_2 1_555 1_555
C7_3 N3_3 1_555 1_555
H3_3 C7_3 1_555 1_555
N4_2 C7_3 1_555 1_555
C8_3 N4_2 1_555 1_555
C9_3 C8_3 1_555 1_555
C12_3 C8_3 1_555 1_555
O7_2 C12_3 1_555 1_555
O19_2 C12_3 1_555 1_555
H5_3 O13_3 1_555 1_555
H6_3 O13_3 1_555 1_555
La6 N4_2 1_555 1_555
O7_2 La6 1_555 1_555
La4_2 N1_3 1_555 1_555
La6 N2_3 1_555 1_555
N1_3 C1_3 1_555 1_555
C1_3 H1_3 1_555 1_555
N2_3 C1_3 1_555 1_555
C2_3 N2_3 1_555 1_555
C3_3 C2_3 1_555 1_555
H2_3 C3_3 1_555 1_555
C4_3 N1_3 1_555 1_555
C5_3 C4_3 1_555 1_555
O1_3 La4_2 1_555 1_555
O16_2 C5_3 1_555 1_555
C6_3 C2_3 1_555 1_555
O3_3 La6 1_555 1_555
O4_3 C6_3 1_555 1_555
N3_4 La4_2 1_555 1_555
C10_3 N3_4 1_555 1_555
C11_3 C10_3 1_555 1_555
O5_3 La4_2 1_555 1_555
O17_2 C11_3 1_555 1_555
C13_3 O9_3 1_555 1_555
O9_3 La6 1_555 1_555
C14_3 C13_3 1_555 1_555
O11_3 La6 1_555 1_555
O14_3 La4_2 1_555 1_555
O15_3 La6 1_555 1_555
H7_3 O14_3 1_555 1_555
H8_3 O14_3 1_555 1_555
H9_3 O15_3 1_555 1_555
H10_3 O15_3 1_555 1_555
O20_2 La4_2 1_555 1_555
O21_2 La4_2 1_555 1_555
C3_3 C4_3 1_555 1_555
C5_3 O1_3 1_555 1_555
C6_3 O3_3 1_555 1_555
C11_3 O5_3 1_555 1_555
C14_3 O11_3 1_555 1_555
La4 O10_2 1_555 1_555
O12_2 La4 1_555 1_555
La4 N1_4 1_555 1_555
La7 N2_4 1_555 1_555
N1_4 C1_4 1_555 1_555
C1_4 H1_4 1_555 1_555
N2_4 C1_4 1_555 1_555
C2_4 N2_4 1_555 1_555
C3_4 C2_4 1_555 1_555
H2_4 C3_4 1_555 1_555
C4_4 N1_4 1_555 1_555
C5_4 C4_4 1_555 1_555
O1_4 La4 1_555 1_555
O16 C5_4 1_555 1_555
C6_4 C2_4 1_555 1_555
O3_4 La7 1_555 1_555
O4_4 C6_4 1_555 1_555
N3_5 La4 1_555 1_555
C10_4 N3_5 1_555 1_555
C11_4 C10_4 1_555 1_555
O5_4 La4 1_555 1_555
O17 C11_4 1_555 1_555
C13_4 O9_4 1_555 1_555
O9_4 La7 1_555 1_555
O20_2 C13_4 1_555 1_555
C14_4 C13_4 1_555 1_555
O11_4 La7 1_555 1_555
O21_2 C14_4 1_555 1_555
O14_4 La4 1_555 1_555
O15_4 La7 1_555 1_555
H7_4 O14_4 1_555 1_555
H8_4 O14_4 1_555 1_555
H9_4 O15_4 1_555 1_555
H10_4 O15_4 1_555 1_555
N5_2 La7 1_555 1_555
O18_2 La7 1_555 1_555
C3_4 C4_4 1_555 1_555
C5_4 O1_4 1_555 1_555
C6_4 O3_4 1_555 1_555
C11_4 O5_4 1_555 1_555
C14_4 O11_4 1_555 1_555
C7_4 N3_6 1_555 1_555
H3_4 C7_4 1_555 1_555
N5_2 C7_4 1_555 1_555
C8_4 N5_2 1_555 1_555
C9_4 C8_4 1_555 1_555
C12_4 C8_4 1_555 1_555
O18_2 C12_4 1_555 1_555
O19 C12_4 1_555 1_555
H5_4 O13_4 1_555 1_555
H6_4 O13_4 1_555 1_555

#END
