
###############################################################################
#
# This file contains modified crystal structure data generated from the
# MOF subset of the Cambridge Structural Database (CSD) v543 
# hosted by the Cambridge Crystallographic Data Centre (CCDC).
#
# This work is licensed under the Creative Commons
# Attribution-NonCommercial-ShareAlike 4.0 International License.
# To view a copy of this license, visit
# http://creativecommons.org/licenses/by-nc-sa/4.0/
# or send a letter to
# Creative Commons, PO Box 1866, Mountain View, CA 94042, USA.
#
# CIF created using the CSD Python API on 29 September 2022
# The structure has been converted into the P1 space group
# The structure has a 3D framework
# The original CSD entry ABEXUC is in the orthorhombic crystal system
# The framework has been calculated to contain at least 10.0% void space
# The void calculation uses a probe of radius 1.32A, grid spacing 0.4
#
###############################################################################

data_ABEXUC
_chemical_formula_moiety         '(C56 H40 N16 Nd8 O60)n'
_symmetry_cell_setting           triclinic
_symmetry_space_group_name_H-M   'P 1'
_symmetry_Int_Tables_number      1
_space_group_name_Hall           'P 1'
loop_
_symmetry_equiv_pos_site_id
_symmetry_equiv_pos_as_xyz
1 x,y,z
_cell_length_a                   11.9460(2)
_cell_length_b                   10.9890(2)
_cell_length_c                   19.4020(3)
_cell_angle_alpha                90
_cell_angle_beta                 90
_cell_angle_gamma                90
_cell_volume                     2546.99
loop_
_atom_site_label
_atom_site_type_symbol
_atom_site_fract_x
_atom_site_fract_y
_atom_site_fract_z
O13 O 0.6779(3) 0.0798(3) 0.01348(19)
H5 H 0.6344 0.1425 0.0136
H6 H 0.6948 0.0674 0.0569
C7 C 0.5283(4) 0.1018(4) 0.8760(3)
H3 H 0.6017 0.1299 0.8743
N4 N 0.4508(3) 0.1671(4) 0.8429(2)
C8 C 0.3451(4) 0.1264(4) 0.8463(3)
C9 C 0.3173(4) 0.0214(4) 0.8820(3)
C12 C 0.2554(4) 0.2040(4) 0.8121(2)
O7 O 0.2869(3) 0.2995(3) 0.78349(19)
O8 O 0.1573(3) 0.1659(3) 0.8162(2)
Nd5 Nd 0.976000(18) 0.117970(19) 0.771450(13)
Nd6 Nd 0.476000(18) 0.382030(19) 0.771450(13)
O14 O 0.8385(3) 0.8845(3) 0.0470(2)
H7 H 0.8593 0.8851 0.0909
H8 H 0.8684 0.8142 0.0336
O20 O 0.5790(3) 0.8893(3) 0.10240(18)
O21 O 0.6515(3) 0.6741(3) 0.05542(19)
Nd1 Nd 0.65819(2) 0.863280(19) 0.985620(13)
N1 N 0.6212(4) 0.7724(4) 0.8600(2)
C1 C 0.5617(4) 0.6721(4) 0.8466(2)
H1 H 0.5067 0.6507 0.8782
N2 N 0.5743(3) 0.6001(3) 0.7918(2)
C2 C 0.6482(4) 0.6358(4) 0.7442(3)
C3 C 0.7104(4) 0.7423(4) 0.7519(2)
H2 H 0.7597 0.7682 0.7179
C4 C 0.6960(4) 0.8070(4) 0.8113(2)
C5 C 0.7706(4) 0.9138(4) 0.8296(3)
O1 O 0.7613(3) 0.9553(3) 0.88994(18)
O2 O 0.8378(3) 0.9497(3) 0.78412(18)
C6 C 0.6674(4) 0.5527(4) 0.6833(3)
O3 O 0.6081(3) 0.4571(3) 0.68093(18)
O4 O 0.7383(4) 0.5852(4) 0.6419(2)
N3 N 0.5091(3) 0.9995(3) 0.9113(2)
H4 H 0.2436 0.9946 0.8852
C10 C 0.4039(4) 0.9587(4) 0.9124(3)
C11 C 0.3840(4) 0.8395(4) 0.9499(2)
O5 O 0.4655(2) 0.7916(3) 0.9814(2)
O6 O 0.2886(3) 0.7943(3) 0.94334(17)
O9 O 0.4210(3) 0.1107(3) 0.60240(18)
C13 C 0.4351(4) 0.2008(4) 0.6401(3)
O10 O 0.4891(3) 0.2048(3) 0.6956(2)
O11 O 0.3485(3) 0.3259(3) 0.55542(19)
C14 C 0.3826(4) 0.3226(4) 0.6163(3)
O12 O 0.3796(3) 0.4082(3) 0.65991(18)
O15 O 0.4569(3) 0.4201(3) 0.89683(18)
H9 H 0.3873 0.4452 0.8986
H10 H 0.4615 0.3695 0.9307
Nd3 Nd 0.15819(2) 0.636720(19) 0.985620(13)
Nd4 Nd 0.34181(2) 0.136720(19) 0.485620(13)
O16 O 0.3378(3) 0.5503(3) 0.78412(18)
O17 O 0.7886(3) 0.7057(3) 0.94334(17)
O19 O 0.6573(3) 0.3341(3) 0.8162(2)
Nd7 Nd 0.024000(18) 0.882030(19) 0.271450(13)
Nd2 Nd 0.524000(18) 0.617970(19) 0.271450(13)
N1_2 N 0.3788(4) 0.2276(4) 0.3600(2)
C1_2 C 0.4383(4) 0.3279(4) 0.3466(2)
H1_2 H 0.4933 0.3493 0.3782
N2_2 N 0.4257(3) 0.3999(3) 0.2918(2)
C2_2 C 0.3518(4) 0.3642(4) 0.2442(3)
C3_2 C 0.2896(4) 0.2577(4) 0.2519(2)
H2_2 H 0.2403 0.2318 0.2179
C4_2 C 0.3040(4) 0.1930(4) 0.3113(2)
C5_2 C 0.2294(4) 0.0862(4) 0.3296(3)
O1_2 O 0.2387(3) 0.0447(3) 0.38994(18)
O2_2 O 0.1622(3) 0.0503(3) 0.28412(18)
C6_2 C 0.3326(4) 0.4473(4) 0.1833(3)
O3_2 O 0.3919(3) 0.5429(3) 0.18093(18)
O4_2 O 0.2617(4) 0.4148(4) 0.1419(2)
N3_2 N 0.4909(3) 0.0005(3) 0.4113(2)
H4_2 H 0.7564 0.0054 0.3852
C10_2 C 0.5961(4) 0.0413(4) 0.4124(3)
C11_2 C 0.6160(4) 0.1605(4) 0.4499(2)
O5_2 O 0.5345(2) 0.2084(3) 0.4814(2)
O6_2 O 0.7114(3) 0.2057(3) 0.44334(17)
C13_2 C 0.5649(4) 0.7992(4) 0.1401(3)
O10_2 O 0.5109(3) 0.7952(3) 0.1956(2)
C14_2 C 0.6174(4) 0.6774(4) 0.1163(3)
O12_2 O 0.6204(3) 0.5918(3) 0.15991(18)
O14_2 O 0.1615(3) 0.1155(3) 0.5470(2)
O15_2 O 0.5431(3) 0.5799(3) 0.39683(18)
H7_2 H 0.1407 0.1149 0.5909
H8_2 H 0.1316 0.1858 0.5336
H9_2 H 0.6127 0.5548 0.3986
H10_2 H 0.5385 0.6305 0.4307
Nd3_2 Nd 0.84181(2) 0.363280(19) 0.485620(13)
O16_2 O 0.6622(3) 0.4497(3) 0.28412(18)
N5 N 0.5492(3) 0.8329(4) 0.3429(2)
O17_2 O 0.2114(3) 0.2943(3) 0.44334(17)
O18 O 0.7131(3) 0.7005(3) 0.28349(19)
O19_2 O 0.3427(3) 0.6659(3) 0.3162(2)
C7_2 C 0.4717(4) 0.8982(4) 0.3760(3)
H3_2 H 0.3983 0.8701 0.3743
C8_2 C 0.6549(4) 0.8736(4) 0.3463(3)
C9_2 C 0.6827(4) 0.9786(4) 0.3820(3)
C12_2 C 0.7446(4) 0.7960(4) 0.3121(2)
O8_2 O 0.8427(3) 0.8341(3) 0.3162(2)
O13_2 O 0.3221(3) 0.9202(3) 0.51348(19)
H5_2 H 0.3656 0.8575 0.5136
H6_2 H 0.3052 0.9326 0.5569
N4_2 N 0.0492(3) 0.6671(4) 0.3429(2)
C8_3 C 0.1549(4) 0.6264(4) 0.3463(3)
C9_3 C 0.1827(4) 0.5214(4) 0.3820(3)
H4_3 H 0.2564 0.4946 0.3852
C10_3 C 0.0961(4) 0.4587(4) 0.4124(3)
C11_3 C 0.1160(4) 0.3395(4) 0.4499(2)
O5_3 O 0.0345(2) 0.2916(3) 0.4814(2)
C12_3 C 0.2446(4) 0.7040(4) 0.3121(2)
O7_2 O 0.2131(3) 0.7995(3) 0.28349(19)
O9_2 O 0.0790(3) 0.6107(3) 0.10240(18)
C13_3 C 0.0649(4) 0.7008(4) 0.1401(3)
O10_3 O 0.0109(3) 0.7048(3) 0.1956(2)
O11_2 O 0.1515(3) 0.8259(3) 0.05542(19)
C14_3 C 0.1174(4) 0.8226(4) 0.1163(3)
O12_3 O 0.1204(3) 0.9082(3) 0.15991(18)
O15_3 O 0.0431(3) 0.9201(3) 0.39683(18)
H9_3 H 0.1127 0.9452 0.3986
H10_3 H 0.0385 0.8695 0.4307
N1_3 N 0.8788(4) 0.2724(4) 0.3600(2)
C1_3 C 0.9383(4) 0.1721(4) 0.3466(2)
H1_3 H 0.9933 0.1507 0.3782
N2_3 N 0.9257(3) 0.1001(3) 0.2918(2)
C2_3 C 0.8518(4) 0.1358(4) 0.2442(3)
C3_3 C 0.7896(4) 0.2423(4) 0.2519(2)
H2_3 H 0.7403 0.2682 0.2179
C4_3 C 0.8040(4) 0.3070(4) 0.3113(2)
C5_3 C 0.7294(4) 0.4138(4) 0.3296(3)
O1_3 O 0.7387(3) 0.4553(3) 0.38994(18)
C6_3 C 0.8326(4) 0.0527(4) 0.1833(3)
O4_3 O 0.7617(4) 0.0852(4) 0.1419(2)
N3_3 N 0.9909(3) 0.4995(3) 0.4113(2)
C7_3 C 0.9717(4) 0.6018(4) 0.3760(3)
H3_3 H 0.8983 0.6299 0.3743
O13_3 O 0.8221(3) 0.5798(3) 0.51348(19)
O14_3 O 0.6615(3) 0.3845(3) 0.5470(2)
H5_3 H 0.8656 0.6425 0.5136
H6_3 H 0.8052 0.5674 0.5569
H7_3 H 0.6407 0.3851 0.5909
H8_3 H 0.6316 0.3142 0.5336
O20_2 O 0.9210(3) 0.3893(3) 0.60240(18)
O21_2 O 0.8485(3) 0.1741(3) 0.55542(19)
O3_3 O 0.8919(3) 0.9571(3) 0.18093(18)
O3_4 O 0.1081(3) 0.0429(3) 0.68093(18)
O13_4 O 0.1779(3) 0.4202(3) 0.01348(19)
O14_4 O 0.3385(3) 0.6155(3) 0.0470(2)
H5_4 H 0.1344 0.3575 0.0136
H6_4 H 0.1948 0.4326 0.0569
H7_4 H 0.3593 0.6149 0.0909
H8_4 H 0.3684 0.6858 0.0336
N1_4 N 0.1212(4) 0.7276(4) 0.8600(2)
C1_4 C 0.0617(4) 0.8279(4) 0.8466(2)
H1_4 H 0.0067 0.8493 0.8782
N2_4 N 0.0743(3) 0.8999(3) 0.7918(2)
C2_4 C 0.1482(4) 0.8642(4) 0.7442(3)
C3_4 C 0.2104(4) 0.7577(4) 0.7519(2)
H2_4 H 0.2597 0.7318 0.7179
C4_4 C 0.1960(4) 0.6930(4) 0.8113(2)
C5_4 C 0.2706(4) 0.5862(4) 0.8296(3)
O1_4 O 0.2613(3) 0.5447(3) 0.88994(18)
C6_4 C 0.1674(4) 0.9473(4) 0.6833(3)
O4_4 O 0.2383(4) 0.9148(4) 0.6419(2)
N3_4 N 0.0091(3) 0.5005(3) 0.9113(2)
C7_4 C 0.0283(4) 0.3982(4) 0.8760(3)
H3_4 H 0.1017 0.3701 0.8743
C13_4 C 0.9351(4) 0.2992(4) 0.6401(3)
O10_4 O 0.9891(3) 0.2952(3) 0.6956(2)
C14_4 C 0.8826(4) 0.1774(4) 0.6163(3)
O12_4 O 0.8796(3) 0.0918(3) 0.65991(18)
O15_4 O 0.9569(3) 0.0799(3) 0.89683(18)
H9_4 H 0.8873 0.0548 0.8986
H10_4 H 0.9615 0.1305 0.9307
N5_2 N 0.9508(3) 0.3329(4) 0.8429(2)
O18_2 O 0.7869(3) 0.2005(3) 0.78349(19)
C8_4 C 0.8451(4) 0.3736(4) 0.8463(3)
C9_4 C 0.8173(4) 0.4786(4) 0.8820(3)
H4_4 H 0.7436 0.5054 0.8852
C10_4 C 0.9039(4) 0.5413(4) 0.9124(3)
C11_4 C 0.8840(4) 0.6605(4) 0.9499(2)
O5_4 O 0.9655(2) 0.7084(3) 0.9814(2)
C12_4 C 0.7554(4) 0.2960(4) 0.8121(2)
loop_
_geom_bond_atom_site_label_1
_geom_bond_atom_site_label_2
_geom_bond_site_symmetry_1
_geom_bond_site_symmetry_2
H5 O13 1_555 1_555
H6 O13 1_555 1_555
H3 C7 1_555 1_555
N4 C7 1_555 1_555
C8 N4 1_555 1_555
C9 C8 1_555 1_555
C12 C8 1_555 1_555
O7 C12 1_555 1_555
O8 C12 1_555 1_555
Nd6 N4 1_555 1_555
O7 Nd6 1_555 1_555
H7 O14 1_555 1_555
H8 O14 1_555 1_555
Nd1 N1 1_555 1_555
Nd6 N2 1_555 1_555
N1 C1 1_555 1_555
C1 H1 1_555 1_555
N2 C1 1_555 1_555
C2 N2 1_555 1_555
C3 C2 1_555 1_555
H2 C3 1_555 1_555
C4 N1 1_555 1_555
C5 C4 1_555 1_555
O1 Nd1 1_555 1_555
O2 C5 1_555 1_555
C6 C2 1_555 1_555
O3 Nd6 1_555 1_555
O4 C6 1_555 1_555
N3 Nd1 1_555 1_555
C10 N3 1_555 1_555
C11 C10 1_555 1_555
O5 Nd1 1_555 1_555
O6 C11 1_555 1_555
O9 C13 1_555 1_555
C13 O10 1_555 1_555
O10 Nd6 1_555 1_555
O11 C14 1_555 1_555
C14 C13 1_555 1_555
O12 Nd6 1_555 1_555
O15 Nd6 1_555 1_555
H9 O15 1_555 1_555
H10 O15 1_555 1_555
Nd3 O6 1_555 1_555
Nd4 O9 1_555 1_555
O16 Nd6 1_555 1_555
O17 Nd1 1_555 1_555
O19 Nd6 1_555 1_555
C3 C4 1_555 1_555
C5 O1 1_555 1_555
C6 O3 1_555 1_555
C11 O5 1_555 1_555
O11 Nd4 1_555 1_555
C14 O12 1_555 1_555
Nd4 N1_2 1_555 1_555
Nd2 N2_2 1_555 1_555
N1_2 C1_2 1_555 1_555
C1_2 H1_2 1_555 1_555
N2_2 C1_2 1_555 1_555
C2_2 N2_2 1_555 1_555
C3_2 C2_2 1_555 1_555
H2_2 C3_2 1_555 1_555
C4_2 N1_2 1_555 1_555
C5_2 C4_2 1_555 1_555
O1_2 Nd4 1_555 1_555
O2_2 C5_2 1_555 1_555
C6_2 C2_2 1_555 1_555
O3_2 Nd2 1_555 1_555
O4_2 C6_2 1_555 1_555
N3_2 Nd4 1_555 1_555
C10_2 N3_2 1_555 1_555
C11_2 C10_2 1_555 1_555
O5_2 Nd4 1_555 1_555
O6_2 C11_2 1_555 1_555
O20 C13_2 1_555 1_555
C13_2 O10_2 1_555 1_555
O10_2 Nd2 1_555 1_555
O21 C14_2 1_555 1_555
C14_2 C13_2 1_555 1_555
O12_2 Nd2 1_555 1_555
O14_2 Nd4 1_555 1_555
O15_2 Nd2 1_555 1_555
H7_2 O14_2 1_555 1_555
H8_2 O14_2 1_555 1_555
H9_2 O15_2 1_555 1_555
H10_2 O15_2 1_555 1_555
Nd3_2 O6_2 1_555 1_555
O16_2 Nd2 1_555 1_555
N5 Nd2 1_555 1_555
O17_2 Nd4 1_555 1_555
O18 Nd2 1_555 1_555
O19_2 Nd2 1_555 1_555
C3_2 C4_2 1_555 1_555
C5_2 O1_2 1_555 1_555
C6_2 O3_2 1_555 1_555
C11_2 O5_2 1_555 1_555
C14_2 O12_2 1_555 1_555
H3_2 C7_2 1_555 1_555
N5 C7_2 1_555 1_555
C8_2 N5 1_555 1_555
C9_2 C8_2 1_555 1_555
C12_2 C8_2 1_555 1_555
O18 C12_2 1_555 1_555
O8_2 C12_2 1_555 1_555
H5_2 O13_2 1_555 1_555
H6_2 O13_2 1_555 1_555
C8_3 N4_2 1_555 1_555
C9_3 C8_3 1_555 1_555
H4_3 C9_3 1_555 1_555
C11_3 C10_3 1_555 1_555
O17_2 C11_3 1_555 1_555
C12_3 C8_3 1_555 1_555
O7_2 C12_3 1_555 1_555
O19_2 C12_3 1_555 1_555
Nd7 N4_2 1_555 1_555
C9_3 C10_3 1_555 1_555
C11_3 O5_3 1_555 1_555
O7_2 Nd7 1_555 1_555
O9_2 C13_3 1_555 1_555
C13_3 O10_3 1_555 1_555
O10_3 Nd7 1_555 1_555
O11_2 C14_3 1_555 1_555
C14_3 C13_3 1_555 1_555
O12_3 Nd7 1_555 1_555
O15_3 Nd7 1_555 1_555
H9_3 O15_3 1_555 1_555
H10_3 O15_3 1_555 1_555
C14_3 O12_3 1_555 1_555
Nd3_2 N1_3 1_555 1_555
N1_3 C1_3 1_555 1_555
C1_3 H1_3 1_555 1_555
N2_3 C1_3 1_555 1_555
C2_3 N2_3 1_555 1_555
C3_3 C2_3 1_555 1_555
H2_3 C3_3 1_555 1_555
C4_3 N1_3 1_555 1_555
C5_3 C4_3 1_555 1_555
O1_3 Nd3_2 1_555 1_555
O16_2 C5_3 1_555 1_555
C6_3 C2_3 1_555 1_555
O4_3 C6_3 1_555 1_555
N3_3 Nd3_2 1_555 1_555
C7_3 N3_3 1_555 1_555
H3_3 C7_3 1_555 1_555
O13_3 Nd3_2 1_555 1_555
O14_3 Nd3_2 1_555 1_555
H5_3 O13_3 1_555 1_555
H6_3 O13_3 1_555 1_555
H7_3 O14_3 1_555 1_555
H8_3 O14_3 1_555 1_555
O20_2 Nd3_2 1_555 1_555
O21_2 Nd3_2 1_555 1_555
C3_3 C4_3 1_555 1_555
C5_3 O1_3 1_555 1_555
H5_4 O13_4 1_555 1_555
H6_4 O13_4 1_555 1_555
H7_4 O14_4 1_555 1_555
H8_4 O14_4 1_555 1_555
Nd3 N1_4 1_555 1_555
N1_4 C1_4 1_555 1_555
C1_4 H1_4 1_555 1_555
N2_4 C1_4 1_555 1_555
C2_4 N2_4 1_555 1_555
C3_4 C2_4 1_555 1_555
H2_4 C3_4 1_555 1_555
C4_4 N1_4 1_555 1_555
C5_4 C4_4 1_555 1_555
O1_4 Nd3 1_555 1_555
O16 C5_4 1_555 1_555
C6_4 C2_4 1_555 1_555
O4_4 C6_4 1_555 1_555
N3_4 Nd3 1_555 1_555
C7_4 N3_4 1_555 1_555
H3_4 C7_4 1_555 1_555
C3_4 C4_4 1_555 1_555
C5_4 O1_4 1_555 1_555
O20_2 C13_4 1_555 1_555
C13_4 O10_4 1_555 1_555
O10_4 Nd5 1_555 1_555
O21_2 C14_4 1_555 1_555
C14_4 C13_4 1_555 1_555
O12_4 Nd5 1_555 1_555
O15_4 Nd5 1_555 1_555
H9_4 O15_4 1_555 1_555
H10_4 O15_4 1_555 1_555
N5_2 Nd5 1_555 1_555
O18_2 Nd5 1_555 1_555
C14_4 O12_4 1_555 1_555
C8_4 N5_2 1_555 1_555
C9_4 C8_4 1_555 1_555
H4_4 C9_4 1_555 1_555
C11_4 C10_4 1_555 1_555
O17 C11_4 1_555 1_555
C12_4 C8_4 1_555 1_555
O18_2 C12_4 1_555 1_555
O19 C12_4 1_555 1_555
C9_4 C10_4 1_555 1_555
C11_4 O5_4 1_555 1_555

#END
