
###############################################################################
#
# This file contains modified crystal structure data generated from the
# MOF subset of the Cambridge Structural Database (CSD) v543 
# hosted by the Cambridge Crystallographic Data Centre (CCDC).
#
# This work is licensed under the Creative Commons
# Attribution-NonCommercial-ShareAlike 4.0 International License.
# To view a copy of this license, visit
# http://creativecommons.org/licenses/by-nc-sa/4.0/
# or send a letter to
# Creative Commons, PO Box 1866, Mountain View, CA 94042, USA.
#
# CIF created using the CSD Python API on 29 September 2022
# The structure has been converted into the P1 space group
# The structure has a 3D framework
# The original CSD entry ACALIB is in the monoclinic crystal system
# The framework has been calculated to contain at least 10.0% void space
# The void calculation uses a probe of radius 1.32A, grid spacing 0.4
# H atom positions have been added when not included in the experimental data
#
###############################################################################

data_ACALIB
_chemical_formula_moiety         '(C72 H56 Er4 N12 O42)n'
_symmetry_cell_setting           triclinic
_symmetry_space_group_name_H-M   'P 1'
_symmetry_Int_Tables_number      1
_space_group_name_Hall           'P 1'
loop_
_symmetry_equiv_pos_site_id
_symmetry_equiv_pos_as_xyz
1 x,y,z
_cell_length_a                   11.0484(4)
_cell_length_b                   20.4845(8)
_cell_length_c                   9.7494(4)
_cell_angle_alpha                90
_cell_angle_beta                 108.8980(10)
_cell_angle_gamma                90
_cell_volume                     2087.56
loop_
_atom_site_label
_atom_site_type_symbol
_atom_site_fract_x
_atom_site_fract_y
_atom_site_fract_z
O3 O 0.2383(5) 0.8800(2) 0.5937(5)
O5 O 0.1795(5) 0.5677(2) 0.5612(5)
C1 C 0.0173(6) 0.7167(3) 0.2520(6)
C2 C 0.1644(6) 0.6784(3) 0.4769(6)
C3 C 0.1440(6) 0.7935(3) 0.4260(6)
O6 O 0.3259(5) 0.6369(2) 0.6840(5)
C7 C 0.2268(6) 0.6245(3) 0.5794(6)
C9 C 0.0537(6) 0.7802(3) 0.2918(6)
H5 H 0.0177 0.8142 0.2286
C11 C 0.1870(6) 0.8632(3) 0.4645(6)
O9 O 0.1678(5) 0.9014(2) 0.3589(5)
C17 C 0.1978(6) 0.7424(3) 0.5195(6)
H7 H 0.2561 0.7511 0.6106
C18 C 0.0742(6) 0.6651(3) 0.3431(6)
H8 H 0.0521 0.6223 0.3146
Er2 Er 0.31522(3) 0.534659(13) 0.80016(3)
Er4 Er 0.31522(3) 0.965341(13) 0.30016(3)
O1 O 0.6064(5) 0.9299(2) 0.6784(5)
O2 O 0.3783(5) 0.6858(2) 0.3105(5)
H1 H 0.3372 0.6569 0.2496
O4 O 0.8655(5) 0.9664(2) 0.7679(5)
C4 C 0.6613(6) 0.7986(3) 0.7392(6)
H2 H 0.7064 0.8292 0.8072
O7 O 0.6979(5) 0.9966(2) 0.4720(5)
N2 N 0.7864(6) 0.6468(3) 0.9435(6)
C6 C 0.6173(6) 0.6862(3) 0.6626(6)
H4 H 0.6332 0.6419 0.6797
C8 C 0.6832(6) 0.7320(3) 0.7663(6)
C10 C 0.5487(6) 0.8909(3) 0.5802(6)
C12 C 0.5276(6) 0.7073(3) 0.5338(6)
C13 C 0.5717(6) 0.8191(3) 0.6098(6)
O8 O 0.4743(5) 0.9083(2) 0.4590(5)
O10 O 0.4699(5) 0.6000(2) 0.4404(5)
C14 C 0.5067(6) 0.7740(3) 0.5070(6)
H6 H 0.4488 0.7881 0.4196
C15 C 0.4578(6) 0.6584(3) 0.4259(6)
C16 C 0.7749(5) 0.7110(3) 0.9019(6)
H9 H 0.863363 0.937299 0.685691
H10 H 0.944229 0.993499 0.794133
H11 H 0.611036 0.98494 0.406949
H13 H 0.572158 0.986609 0.905118
O1_2 O 0.3936(5) 0.4299(2) 0.8216(5)
O4_2 O 0.1345(5) 0.4664(2) 0.7321(5)
N1 N 0.1256(6) 0.1432(3) 0.4290(6)
C4_2 C 0.3387(6) 0.2986(3) 0.7608(6)
H2_2 H 0.2936 0.3292 0.6928
C5 C 0.1425(6) 0.2473(3) 0.4928(6)
H3 H 0.1309 0.2923 0.4929
N2_2 N 0.2136(6) 0.1468(3) 0.5565(6)
C6_2 C 0.3827(6) 0.1862(3) 0.8374(6)
H4_2 H 0.3668 0.1419 0.8203
C8_2 C 0.3168(6) 0.2320(3) 0.7337(6)
C10_2 C 0.4513(6) 0.3909(3) 0.9198(6)
C12_2 C 0.4724(6) 0.2073(3) 0.9662(6)
C13_2 C 0.4283(6) 0.3191(3) 0.8902(6)
O11 O 0.4602(6) 0.5210(2) 0.6696(6)
C14_2 C 0.4933(6) 0.2740(3) 0.9930(6)
C16_2 C 0.2251(5) 0.2110(3) 0.5981(6)
N3 N 0.0797(5) 0.2043(3) 0.3866(6)
O14 O 0.4743(5) 0.5917(2) 0.9590(5)
O15 O 0.1678(5) 0.5986(2) 0.8589(5)
H9_2 H 0.136637 0.437299 0.814309
H10_2 H 0.0557713 0.493499 0.705867
H13_2 H 0.427842 0.486609 0.594882
H14 H 0.468598 0.562776 0.621809
O11_2 O 0.4602(6) 0.9790(2) 0.1696(6)
O12 O 0.1795(5) 0.9323(2) 0.0612(5)
O13 O 0.3259(5) 0.8631(2) 0.1840(5)
H12 H 0.265947 0.968412 0.573613
H14_2 H 0.468598 0.937224 0.121809
O3_2 O 0.2383(5) 0.6200(2) 0.0937(5)
C7_2 C 0.2268(6) 0.8755(3) 0.0794(6)
C17_2 C 0.1978(6) 0.7576(3) 0.0195(6)
H7_2 H 0.2561 0.7489 0.1106
C1_2 C 0.0173(6) 0.7833(3) 0.7520(6)
C2_2 C 0.1644(6) 0.8216(3) 0.9769(6)
C3_2 C 0.1440(6) 0.7065(3) 0.9260(6)
C9_2 C 0.0537(6) 0.7198(3) 0.7918(6)
H5_2 H 0.0177 0.6858 0.7286
C11_2 C 0.1870(6) 0.6368(3) 0.9645(6)
C18_2 C 0.0742(6) 0.8349(3) 0.8431(6)
H8_2 H 0.0521 0.8777 0.8146
O2_2 O 0.3783(5) 0.8142(2) 0.8105(5)
H1_2 H 0.3372 0.8431 0.7496
O7_2 O 0.6979(5) 0.5034(2) 0.9720(5)
O10_2 O 0.4699(5) 0.9000(2) 0.9404(5)
H6_2 H 0.4488 0.7119 0.9196
C15_2 C 0.4578(6) 0.8416(3) 0.9259(6)
H11_2 H 0.611036 0.51506 0.906949
H12_2 H 0.734053 0.468412 0.926387
Er1 Er 0.68478(3) 0.034659(13) 0.69984(3)
O11_3 O 0.5398(6) 0.0210(2) 0.8304(6)
O12_2 O 0.8205(5) 0.0677(2) 0.9388(5)
O13_2 O 0.6741(5) 0.1369(2) 0.8160(5)
O14_2 O 0.5257(5) 0.0917(2) 0.5410(5)
O15_2 O 0.8322(5) 0.0986(2) 0.6411(5)
H12_3 H 0.734053 0.0315881 0.426387
H14_3 H 0.531402 0.0627764 0.878191
O2_3 O 0.6217(5) 0.1858(2) 0.1895(5)
H1_3 H 0.6628 0.1569 0.2504
O7_3 O 0.3021(5) 0.4966(2) 0.0280(5)
O8_2 O 0.5257(5) 0.4083(2) 0.0410(5)
O10_3 O 0.5301(5) 0.1000(2) 0.0596(5)
H6_3 H 0.5512 0.2881 0.0804
C15_3 C 0.5422(6) 0.1584(3) 0.0741(6)
Er3 Er 0.68478(3) 0.465341(13) 0.19984(3)
H11_3 H 0.388964 0.48494 0.0930514
H12_4 H 0.265947 0.531588 0.0736129
C1_3 C 0.9827(6) 0.2167(3) 0.2480(6)
C2_3 C 0.8356(6) 0.1784(3) 0.0231(6)
C3_3 C 0.8560(6) 0.2935(3) 0.0740(6)
C9_3 C 0.9463(6) 0.2802(3) 0.2082(6)
H5_3 H 0.9823 0.3142 0.2714
C11_3 C 0.8130(6) 0.3632(3) 0.0355(6)
O9_2 O 0.8322(5) 0.4014(2) 0.1411(5)
C18_3 C 0.9258(6) 0.1651(3) 0.1569(6)
H8_3 H 0.9479 0.1223 0.1854
O3_3 O 0.7617(5) 0.3800(2) 0.9063(5)
C7_3 C 0.7732(6) 0.1245(3) 0.9206(6)
C17_3 C 0.8022(6) 0.2424(3) 0.9805(6)
H7_3 H 0.7439 0.2511 0.8894
O1_3 O 0.3936(5) 0.0701(2) 0.3216(5)
O2_4 O 0.6217(5) 0.3142(2) 0.6895(5)
H1_4 H 0.6628 0.3431 0.7504
O4_3 O 0.1345(5) 0.0336(2) 0.2321(5)
C4_3 C 0.3387(6) 0.2014(3) 0.2608(6)
H2_3 H 0.2936 0.1708 0.1928
O7_4 O 0.3021(5) 0.0034(2) 0.5280(5)
N2_3 N 0.2136(6) 0.3532(3) 0.0565(6)
C6_3 C 0.3827(6) 0.3138(3) 0.3374(6)
H4_3 H 0.3668 0.3581 0.3203
C8_3 C 0.3168(6) 0.2680(3) 0.2337(6)
C10_3 C 0.4513(6) 0.1091(3) 0.4198(6)
C12_3 C 0.4724(6) 0.2927(3) 0.4662(6)
C13_3 C 0.4283(6) 0.1809(3) 0.3902(6)
O10_4 O 0.5301(5) 0.4000(2) 0.5596(5)
C14_3 C 0.4933(6) 0.2260(3) 0.4930(6)
H6_4 H 0.5512 0.2119 0.5804
C15_4 C 0.5422(6) 0.3416(3) 0.5741(6)
C16_3 C 0.2251(5) 0.2890(3) 0.0981(6)
H9_3 H 0.136637 0.0627013 0.314309
H10_3 H 0.0557713 0.00650105 0.205867
H11_4 H 0.388964 0.0150604 0.593051
H13_3 H 0.427842 0.0133907 0.0948818
O3_4 O 0.7617(5) 0.1200(2) 0.4063(5)
O5_2 O 0.8205(5) 0.4323(2) 0.4388(5)
C1_4 C 0.9827(6) 0.2833(3) 0.7480(6)
C2_4 C 0.8356(6) 0.3216(3) 0.5231(6)
C3_4 C 0.8560(6) 0.2065(3) 0.5740(6)
O6_2 O 0.6741(5) 0.3631(2) 0.3160(5)
C7_4 C 0.7732(6) 0.3755(3) 0.4206(6)
C9_4 C 0.9463(6) 0.2198(3) 0.7082(6)
H5_4 H 0.9823 0.1858 0.7714
C11_4 C 0.8130(6) 0.1368(3) 0.5355(6)
C17_4 C 0.8022(6) 0.2576(3) 0.4805(6)
H7_4 H 0.7439 0.2489 0.3894
C18_4 C 0.9258(6) 0.3349(3) 0.6569(6)
H8_4 H 0.9479 0.3777 0.6854
O1_4 O 0.6064(5) 0.5701(2) 0.1784(5)
O4_4 O 0.8655(5) 0.5336(2) 0.2679(5)
N1_2 N 0.8744(6) 0.8568(3) 0.5710(6)
C4_4 C 0.6613(6) 0.7014(3) 0.2392(6)
H2_4 H 0.7064 0.6708 0.3072
C5_2 C 0.8575(6) 0.7527(3) 0.5072(6)
H3_2 H 0.8691 0.7077 0.5071
N2_4 N 0.7864(6) 0.8532(3) 0.4435(6)
C6_4 C 0.6173(6) 0.8138(3) 0.1626(6)
H4_4 H 0.6332 0.8581 0.1797
C8_4 C 0.6832(6) 0.7680(3) 0.2663(6)
C10_4 C 0.5487(6) 0.6091(3) 0.0802(6)
C12_4 C 0.5276(6) 0.7927(3) 0.0338(6)
C13_4 C 0.5717(6) 0.6809(3) 0.1098(6)
O11_4 O 0.5398(6) 0.4790(2) 0.3304(6)
C14_4 C 0.5067(6) 0.7260(3) 0.0070(6)
C16_4 C 0.7749(5) 0.7890(3) 0.4019(6)
N3_2 N 0.9203(5) 0.7957(3) 0.6134(6)
H9_4 H 0.863363 0.562701 0.185691
H10_4 H 0.944229 0.506501 0.294133
H13_4 H 0.572158 0.513391 0.405118
H14_4 H 0.531402 0.437224 0.378191
N1_3 N 0.8744(6) 0.6432(3) 0.0710(6)
C5_3 C 0.8575(6) 0.7473(3) 0.0072(6)
H3_3 H 0.8691 0.7923 0.0071
N3_3 N 0.9203(5) 0.7043(3) 0.1134(6)
N1_4 N 0.1256(6) 0.3568(3) 0.9290(6)
C5_4 C 0.1425(6) 0.2527(3) 0.9928(6)
H3_4 H 0.1309 0.2077 0.9929
N3_4 N 0.0797(5) 0.2957(3) 0.8866(6)
loop_
_geom_bond_atom_site_label_1
_geom_bond_atom_site_label_2
_geom_bond_site_symmetry_1
_geom_bond_site_symmetry_2
O3 C11 1_555 1_555
O5 C7 1_555 1_555
C1 C9 1_555 1_555
C2 C7 1_555 1_555
C3 C9 1_555 1_555
O6 C7 1_555 1_555
C9 H5 1_555 1_555
C11 C3 1_555 1_555
O9 C11 1_555 1_555
C17 C2 1_555 1_555
H7 C17 1_555 1_555
C18 C1 1_555 1_555
H8 C18 1_555 1_555
Er2 O5 1_555 1_555
Er4 O9 1_555 1_555
C2 C18 1_555 1_555
C3 C17 1_555 1_555
O6 Er2 1_555 1_555
O1 C10 1_555 1_555
O2 H1 1_555 1_555
C4 H2 1_555 1_555
N2 C16 1_555 1_555
C6 H4 1_555 1_555
C8 C4 1_555 1_555
C10 C13 1_555 1_555
C12 C6 1_555 1_555
C13 C4 1_555 1_555
O8 C10 1_555 1_555
O10 C15 1_555 1_555
C14 C12 1_555 1_555
H6 C14 1_555 1_555
C15 O2 1_555 1_555
Er4 O8 1_555 1_555
C6 C8 1_555 1_555
C8 C16 1_555 1_555
C12 C15 1_555 1_555
C13 C14 1_555 1_555
O4 H9 1_555 1_555
O4 H10 1_555 1_555
O7 H11 1_555 1_555
Er2 O1_2 1_555 1_555
O1_2 C10_2 1_555 1_555
O4_2 Er2 1_555 1_555
N1 N2_2 1_555 1_555
C4_2 H2_2 1_555 1_555
C5 H3 1_555 1_555
N2_2 C16_2 1_555 1_555
C6_2 H4_2 1_555 1_555
C8_2 C4_2 1_555 1_555
C10_2 C13_2 1_555 1_555
C12_2 C6_2 1_555 1_555
C13_2 C4_2 1_555 1_555
O11 Er2 1_555 1_555
C14_2 C12_2 1_555 1_555
C16_2 C5 1_555 1_555
O14 Er2 1_555 1_555
O15 Er2 1_555 1_555
N1 N3 1_555 1_555
C5 N3 1_555 1_555
C6_2 C8_2 1_555 1_555
C8_2 C16_2 1_555 1_555
C13_2 C14_2 1_555 1_555
O4_2 H9_2 1_555 1_555
O4_2 H10_2 1_555 1_555
O11 H13_2 1_555 1_555
O11 H14 1_555 1_555
O11_2 Er4 1_555 1_555
O12 Er4 1_555 1_555
O13 Er4 1_555 1_555
O11_2 H14_2 1_555 1_555
O12 C7_2 1_555 1_555
O13 C7_2 1_555 1_555
H7_2 C17_2 1_555 1_555
C1_2 C9_2 1_555 1_555
C3_2 C9_2 1_555 1_555
C9_2 H5_2 1_555 1_555
C11_2 C3_2 1_555 1_555
O15 C11_2 1_555 1_555
C18_2 C1_2 1_555 1_555
H8_2 C18_2 1_555 1_555
C2_2 C18_2 1_555 1_555
O2_2 H1_2 1_555 1_555
O10_2 C15_2 1_555 1_555
C15_2 O2_2 1_555 1_555
O7_2 H11_2 1_555 1_555
O7_2 H12_2 1_555 1_555
O11_3 Er1 1_555 1_555
O12_2 Er1 1_555 1_555
O13_2 Er1 1_555 1_555
O14_2 Er1 1_555 1_555
O15_2 Er1 1_555 1_555
O11_3 H14_3 1_555 1_555
O2_3 H1_3 1_555 1_555
O10_3 C15_3 1_555 1_555
C15_3 O2_3 1_555 1_555
Er3 O8_2 1_555 1_555
O7_3 H11_3 1_555 1_555
O7_3 H12_4 1_555 1_555
C1_3 C9_3 1_555 1_555
C3_3 C9_3 1_555 1_555
C9_3 H5_3 1_555 1_555
C11_3 C3_3 1_555 1_555
O9_2 C11_3 1_555 1_555
C18_3 C1_3 1_555 1_555
H8_3 C18_3 1_555 1_555
Er3 O9_2 1_555 1_555
C2_3 C18_3 1_555 1_555
O12_2 C7_3 1_555 1_555
O13_2 C7_3 1_555 1_555
H7_3 C17_3 1_555 1_555
O1_3 C10_3 1_555 1_555
O2_4 H1_4 1_555 1_555
C4_3 H2_3 1_555 1_555
N2_3 C16_3 1_555 1_555
C6_3 H4_3 1_555 1_555
C8_3 C4_3 1_555 1_555
C10_3 C13_3 1_555 1_555
C12_3 C6_3 1_555 1_555
C13_3 C4_3 1_555 1_555
O14_2 C10_3 1_555 1_555
O10_4 C15_4 1_555 1_555
C14_3 C12_3 1_555 1_555
H6_4 C14_3 1_555 1_555
C15_4 O2_4 1_555 1_555
C6_3 C8_3 1_555 1_555
C8_3 C16_3 1_555 1_555
C12_3 C15_4 1_555 1_555
C13_3 C14_3 1_555 1_555
O4_3 H9_3 1_555 1_555
O4_3 H10_3 1_555 1_555
O7_4 H11_4 1_555 1_555
O3_4 C11_4 1_555 1_555
O5_2 C7_4 1_555 1_555
C1_4 C9_4 1_555 1_555
C2_4 C7_4 1_555 1_555
C3_4 C9_4 1_555 1_555
O6_2 C7_4 1_555 1_555
C9_4 H5_4 1_555 1_555
C11_4 C3_4 1_555 1_555
O15_2 C11_4 1_555 1_555
C17_4 C2_4 1_555 1_555
H7_4 C17_4 1_555 1_555
C18_4 C1_4 1_555 1_555
H8_4 C18_4 1_555 1_555
Er3 O5_2 1_555 1_555
C2_4 C18_4 1_555 1_555
C3_4 C17_4 1_555 1_555
O6_2 Er3 1_555 1_555
Er3 O1_4 1_555 1_555
O1_4 C10_4 1_555 1_555
O4_4 Er3 1_555 1_555
N1_2 N2_4 1_555 1_555
C4_4 H2_4 1_555 1_555
C5_2 H3_2 1_555 1_555
N2_4 C16_4 1_555 1_555
C6_4 H4_4 1_555 1_555
C8_4 C4_4 1_555 1_555
C10_4 C13_4 1_555 1_555
C12_4 C6_4 1_555 1_555
C13_4 C4_4 1_555 1_555
O11_4 Er3 1_555 1_555
C14_4 C12_4 1_555 1_555
C16_4 C5_2 1_555 1_555
N1_2 N3_2 1_555 1_555
C5_2 N3_2 1_555 1_555
C6_4 C8_4 1_555 1_555
C8_4 C16_4 1_555 1_555
C13_4 C14_4 1_555 1_555
O4_4 H9_4 1_555 1_555
O4_4 H10_4 1_555 1_555
O11_4 H13_4 1_555 1_555
O11_4 H14_4 1_555 1_555
C5_3 H3_3 1_555 1_555
N1_3 N3_3 1_555 1_555
C5_3 N3_3 1_555 1_555
C5_4 H3_4 1_555 1_555
N1_4 N3_4 1_555 1_555
C5_4 N3_4 1_555 1_555

#END
