
###############################################################################
#
# This file contains modified crystal structure data generated from the
# MOF subset of the Cambridge Structural Database (CSD) v543 
# hosted by the Cambridge Crystallographic Data Centre (CCDC).
#
# This work is licensed under the Creative Commons
# Attribution-NonCommercial-ShareAlike 4.0 International License.
# To view a copy of this license, visit
# http://creativecommons.org/licenses/by-nc-sa/4.0/
# or send a letter to
# Creative Commons, PO Box 1866, Mountain View, CA 94042, USA.
#
# CIF created using the CSD Python API on 29 September 2022
# The structure has been converted into the P1 space group
# The structure has a 3D framework
# The original CSD entry ACAZOX is in the triclinic crystal system
# The framework has been calculated to contain at least 10.0% void space
# The void calculation uses a probe of radius 1.32A, grid spacing 0.4
# H atom positions have been added when not included in the experimental data
# Generated hydrogen atom positions removed from atoms on special positions
#
###############################################################################

data_ACAZOX
_chemical_formula_moiety         '(C84 H78 Eu6 N2 O44)n'
_symmetry_cell_setting           triclinic
_symmetry_space_group_name_H-M   'P 1'
_symmetry_Int_Tables_number      1
_space_group_name_Hall           'P 1'
loop_
_symmetry_equiv_pos_site_id
_symmetry_equiv_pos_as_xyz
1 x,y,z
_cell_length_a                   12.2976(10)
_cell_length_b                   15.1864(10)
_cell_length_c                   17.2929(7)
_cell_angle_alpha                98.138(4)
_cell_angle_beta                 108.822(5)
_cell_angle_gamma                105.573(7)
_cell_volume                     2850.94
loop_
_atom_site_label
_atom_site_type_symbol
_atom_site_fract_x
_atom_site_fract_y
_atom_site_fract_z
Eu16 Eu 0.18233(7) 0.29580(5) 0.08207(4)
Eu23 Eu -0.0000 0.5000 0.0000
O7 O 0.1035(8) 0.0984(6) 0.6664(5)
O8 O 0.0224(12) 0.3665(7) 0.9387(6)
O10 O 0.1326(12) 0.2798(8) 0.9341(6)
C4 C 0.0171(11) 0.1256(8) 0.6247(7)
C12 C 0.0357(11) 0.2240(8) 0.7584(7)
H10 H 0.0904 0.1964 0.7868
C13 C 0.0026(13) 0.2886(9) 0.8028(7)
C15 C 0.0555(16) 0.3116(11) 0.8989(8)
O49 O 0.0500(8) 0.0899(6) 0.4114(5)
Eu23_2 Eu 0.0000 0.5000 1.0000
O20 O 0.0174(11) 0.3140(8) 0.1134(6)
Eu13 Eu 0.15043(5) 0.97714(4) 0.59569(3)
Eu23_3 Eu 1.0000 0.5000 0.0000
Eu1 Eu 0.84957(5) 0.02286(4) 0.40431(3)
O1 O 0.9573(8) 0.0950(6) 0.5466(5)
O2 O 0.2032(8) 0.1021(5) 0.5314(5)
O3 O 0.3181(10) 0.3493(8) 0.2308(6)
O5 O 0.5396(8) 0.3743(7) 0.5462(6)
O6 O 0.8194(9) 0.3625(7) 0.6277(6)
O9 O 0.6842(9) 0.0457(7) 0.4400(7)
C1 C 0.4074(12) 0.3283(9) 0.3975(7)
H1 H 0.4620 0.3724 0.3836
O11 O 0.1781(11) 0.2088(8) 0.1880(6)
C2 C 0.2144(11) 0.2021(9) 0.3563(7)
H2 H 0.1394 0.1642 0.3150
C3 C 0.9865(12) 0.2016(8) 0.6724(7)
C5 C 0.2634(15) 0.2753(10) 0.2466(9)
C6 C 0.7373(13) 0.4863(9) 0.6165(9)
H3 H 0.8079 0.5228 0.6073
H4 H 0.7112 0.5303 0.6464
C7 C 0.7745(13) 0.4238(9) 0.6709(8)
H5 H 0.8378 0.4613 0.7247
H6 H 0.7054 0.3868 0.6812
C8 C 0.9124(12) 0.2471(9) 0.6290(7)
H7 H 0.8809 0.2322 0.5703
C9 C 0.4346(11) 0.3207(9) 0.4783(8)
C10 C 0.6359(11) 0.4351(9) 0.5317(8)
H8 H 0.6083 0.4800 0.5030
H9 H 0.6648 0.3990 0.4968
C11 C 0.8862(11) 0.3153(9) 0.6747(7)
C14 C 0.1606(11) 0.1227(8) 0.4620(7)
C16 C 0.2965(12) 0.2687(10) 0.3356(8)
N1 N 0.6365(13) 0.0971(10) 0.5522(9)
C17 C 0.3584(10) 0.2495(9) 0.4988(7)
H11 H 0.3837 0.2402 0.5529
C18 C 0.2451(12) 0.1924(9) 0.4387(7)
C19 C 0.6471(15) 0.1028(11) 0.4773(11)
C20 C 0.5931(17) 0.1551(14) 0.5981(12)
H12 H 0.5990 0.2124 0.5797
H13 H 0.6415 0.1700 0.6572
H14 H 0.5096 0.1222 0.5882
C21 C 0.6131(16) 0.1789(11) 0.4388(12)
H15 H 0.6690 0.2395 0.4739
H16 H 0.5318 0.1745 0.4342
H17 H 0.6167 0.1713 0.3837
C22 C 0.6760(16) 0.0236(12) 0.5910(12)
H19 H 0.6277 0.0018 0.6229
H20 H 0.7604 0.0502 0.6278
C23 C 0.9246(12) 0.3321(9) 0.7610(8)
H21 H 0.8984 0.3722 0.7908
O12 O 0.0278(13) 0.1508(9) 0.0036(7)
O13 O 0.3097(15) 0.2141(11) 0.0718(10)
Eu23_4 Eu 1.0000 0.5000 1.0000
O57 O 0.8388(9) 0.1073(6) 0.2879(5)
O59 O 0.8750(9) 0.1924(6) 0.4130(5)
O65 O 0.2287(13) 0.4620(10) 0.1139(9)
H18 H 0.6652 0.9716 0.5474
O14 O 0.8892(11) 0.5184(7) 0.3655(7)
O15 O 0.6667(8) 0.9266(6) 0.2889(5)
O17 O 0.6544(9) 0.6033(6) 0.3423(6)
C24 C 0.7819(12) 0.6588(9) 0.3846(8)
H22 H 0.8228 0.6585 0.3451
H23 H 0.7911 0.7236 0.4077
C25 C 0.8757(14) 0.3548(9) 0.3524(8)
H24 H 0.8552 0.3517 0.3995
C26 C 0.3864(13) 0.6103(10) 0.1790(8)
C27 C 0.6141(13) 0.7334(10) 0.2864(8)
H25 H 0.6908 0.7757 0.3215
C28 C 0.8927(13) 0.4361(9) 0.3255(8)
C29 C 0.8662(12) 0.1852(9) 0.3369(8)
O19 O 0.9621(13) 0.4406(8) 0.1078(7)
C30 C 0.9192(11) 0.2796(8) 0.2386(8)
H26 H 0.9278 0.2271 0.2095
C31 C 0.8895(11) 0.2760(8) 0.3082(7)
C32 C 0.8380(14) 0.6157(9) 0.4555(8)
H27 H 0.7965 0.6171 0.4945
H28 H 0.9229 0.6544 0.4862
C33 C 0.4647(14) 0.5807(11) 0.2333(8)
H29 H 0.4399 0.5179 0.2353
C34 C 0.9361(14) 0.3624(10) 0.2122(9)
C35 C 0.5860(13) 0.6412(10) 0.2891(8)
C36 C 0.8314(15) 0.5145(9) 0.4253(9)
H30 H 0.7473 0.4728 0.3989
H31 H 0.8741 0.4923 0.4720
C37 C 0.9209(12) 0.4382(9) 0.2555(8)
H32 H 0.9302 0.4930 0.2365
C38 C 0.9749(15) 0.3735(11) 0.1393(9)
C39 C 0.4202(13) 0.7069(11) 0.1802(8)
C40 C 0.5336(13) 0.7658(10) 0.2341(9)
C41 C 0.2659(16) 0.5444(12) 0.1181(8)
O21 O 0.4956(14) 0.8923(10) 0.1804(10)
O23 O 0.2038(13) 0.5788(10) 0.0746(9)
C42 C 0.5735(14) 0.8700(11) 0.2392(9)
O48 O 0.7968(8) 0.8979(5) 0.4686(5)
O52 O 0.8965(8) 0.9016(6) 0.3336(5)
H69 H 0.357019 0.734235 0.138857
O62 O 0.0379(13) 0.5594(8) 0.8922(7)
H65 H 0.964211 0.138427 0.0281943
O54 O 0.9776(12) 0.6335(7) 0.0613(6)
H50 H 0.3348 0.0284 0.4526
O37 O 0.1108(11) 0.4816(7) 0.6345(7)
O38 O 0.3333(8) 0.0734(6) 0.7111(5)
O39 O 0.1612(9) 0.8927(6) 0.7121(5)
O40 O 0.3456(9) 0.3967(6) 0.6577(6)
O41 O 0.1250(9) 0.8076(6) 0.5870(5)
C66 C 0.2181(12) 0.3412(9) 0.6154(8)
H54 H 0.1772 0.3415 0.6549
H55 H 0.2089 0.2764 0.5923
C67 C 0.1243(14) 0.6452(9) 0.6476(8)
H56 H 0.1448 0.6483 0.6005
C68 C 0.6136(13) 0.3897(10) 0.8210(8)
C69 C 0.3859(13) 0.2666(10) 0.7136(8)
H57 H 0.3092 0.2243 0.6785
C70 C 0.1073(13) 0.5639(9) 0.6745(8)
C71 C 0.1338(12) 0.8148(9) 0.6631(8)
C72 C 0.0808(11) 0.7204(8) 0.7614(8)
H58 H 0.0722 0.7729 0.7905
C73 C 0.1105(11) 0.7240(8) 0.6918(7)
C74 C 0.1620(14) 0.3843(9) 0.5445(8)
H59 H 0.2035 0.3829 0.5055
H60 H 0.0771 0.3456 0.5138
C75 C 0.5353(14) 0.4193(11) 0.7667(8)
H61 H 0.5601 0.4821 0.7647
C76 C 0.0639(14) 0.6376(10) 0.7878(9)
C77 C 0.4140(13) 0.3588(10) 0.7109(8)
C78 C 0.1686(15) 0.4855(9) 0.5747(9)
H62 H 0.2527 0.5272 0.6011
H63 H 0.1259 0.5077 0.5280
C79 C 0.0791(12) 0.5618(9) 0.7445(8)
H64 H 0.0698 0.5070 0.7635
C80 C 0.0251(15) 0.6265(11) 0.8607(9)
C81 C 0.5798(13) 0.2931(11) 0.8198(8)
C82 C 0.4664(13) 0.2342(10) 0.7659(9)
C83 C 0.7341(16) 0.4556(12) 0.8819(8)
O44 O 0.5044(14) 0.1077(10) 0.8196(10)
O45 O 0.7713(13) 0.5380(10) 0.8861(9)
O46 O 0.7962(13) 0.4212(10) 0.9254(9)
C84 C 0.4265(14) 0.1300(11) 0.7608(9)
Eu19 Eu 0.81767(7) 0.70420(5) 0.91793(4)
H74 H 0.642981 0.265765 0.861143
O56 O 0.8674(12) 0.7202(8) 0.0659(6)
O24 O 0.0427(8) 0.9050(6) 0.4534(5)
O26 O 0.6819(10) 0.6507(8) 0.7692(6)
O27 O 0.9500(8) 0.9101(6) 0.5886(5)
O28 O 0.4604(8) 0.6257(7) 0.4538(6)
O29 O 0.1806(9) 0.6375(7) 0.3723(6)
O32 O 0.3158(9) 0.9543(7) 0.5600(7)
C43 C 0.5926(12) 0.6717(9) 0.6025(7)
H33 H 0.5380 0.6276 0.6164
O34 O 0.8219(11) 0.7912(8) 0.8120(6)
C44 C 0.7856(11) 0.7979(9) 0.6437(7)
H34 H 0.8606 0.8358 0.6850
C45 C 0.0135(12) 0.7984(8) 0.3276(7)
C47 C 0.7366(15) 0.7247(10) 0.7534(9)
C48 C 0.2627(13) 0.5137(9) 0.3835(9)
H35 H 0.1921 0.4772 0.3927
H36 H 0.2888 0.4697 0.3536
C49 C 0.2255(13) 0.5762(9) 0.3291(8)
H37 H 0.1622 0.5387 0.2753
H38 H 0.2946 0.6132 0.3188
C50 C 0.0876(12) 0.7529(9) 0.3710(7)
H39 H 0.1191 0.7678 0.4297
C51 C 0.5654(11) 0.6793(9) 0.5217(8)
C52 C 0.3641(11) 0.5649(9) 0.4683(8)
H40 H 0.3917 0.5200 0.4970
H41 H 0.3352 0.6010 0.5032
C53 C 0.1138(11) 0.6847(9) 0.3253(7)
C56 C 0.8394(11) 0.8773(8) 0.5380(7)
C58 C 0.7035(12) 0.7313(10) 0.6644(8)
N2 N 0.3635(13) 0.9029(10) 0.4478(9)
C59 C 0.6416(10) 0.7505(9) 0.5012(7)
H43 H 0.6163 0.7598 0.4471
C60 C 0.7549(12) 0.8076(9) 0.5613(7)
C61 C 0.3529(15) 0.8972(11) 0.5227(11)
C62 C 0.4069(17) 0.8449(14) 0.4019(12)
H44 H 0.4010 0.7876 0.4203
H45 H 0.3585 0.8300 0.3428
H46 H 0.4904 0.8778 0.4118
C63 C 0.3869(16) 0.8211(11) 0.5612(12)
H47 H 0.3310 0.7605 0.5261
H48 H 0.4682 0.8255 0.5658
H49 H 0.3833 0.8287 0.6163
C64 C 0.3240(16) 0.9764(12) 0.4090(12)
H51 H 0.3723 0.9982 0.3771
H52 H 0.2396 0.9498 0.3722
C65 C 0.0754(12) 0.6679(9) 0.2390(8)
H53 H 0.1016 0.6278 0.2092
O35 O 0.9722(13) 0.8492(9) 0.9964(7)
O36 O 0.6903(15) 0.7859(11) 0.9282(10)
O64 O 0.9826(11) 0.6860(8) 0.8866(6)
H70 H 0.936649 0.900721 0.994653
C46 C 0.9829(11) 0.8744(8) 0.3753(7)
C54 C 0.9643(11) 0.7760(8) 0.2416(7)
H42 H 0.9096 0.8036 0.2132
C55 C 0.9974(13) 0.7114(9) 0.1972(7)
C57 C 0.9445(16) 0.6884(11) 0.1011(8)
H70_2 H 0.0633506 0.0992793 0.00534672
H65_2 H 0.0357895 0.861573 0.971806
H71 H 0.0093265 0.846453 0.0558319
H66 H 0.990673 0.153547 0.944168
loop_
_geom_bond_atom_site_label_1
_geom_bond_atom_site_label_2
_geom_bond_site_symmetry_1
_geom_bond_site_symmetry_2
O7 C4 1_555 1_555
O8 C15 1_555 1_555
O10 C15 1_555 1_555
H10 C12 1_555 1_555
C13 C12 1_555 1_555
C15 C13 1_555 1_555
Eu23_2 O8 1_555 1_555
Eu16 O20 1_555 1_555
Eu1 O1 1_555 1_555
Eu16 O3 1_555 1_555
O2 C14 1_555 1_555
O3 C5 1_555 1_555
O49 C14 1_555 1_555
O5 C9 1_555 1_555
O6 C7 1_555 1_555
O9 Eu1 1_555 1_555
C1 H1 1_555 1_555
O11 Eu16 1_555 1_555
C2 H2 1_555 1_555
C5 O11 1_555 1_555
C6 H3 1_555 1_555
H4 C6 1_555 1_555
C7 C6 1_555 1_555
H5 C7 1_555 1_555
H6 C7 1_555 1_555
C8 C3 1_555 1_555
H7 C8 1_555 1_555
C9 C1 1_555 1_555
C10 O5 1_555 1_555
H8 C10 1_555 1_555
H9 C10 1_555 1_555
C11 O6 1_555 1_555
C14 C18 1_555 1_555
C16 C1 1_555 1_555
N1 C19 1_555 1_555
C17 C9 1_555 1_555
H11 C17 1_555 1_555
C18 C2 1_555 1_555
C19 O9 1_555 1_555
C20 N1 1_555 1_555
H12 C20 1_555 1_555
H13 C20 1_555 1_555
H14 C20 1_555 1_555
C21 C19 1_555 1_555
H15 C21 1_555 1_555
H16 C21 1_555 1_555
H17 C21 1_555 1_555
C22 N1 1_555 1_555
H19 C22 1_555 1_555
H20 C22 1_555 1_555
C23 C11 1_555 1_555
H21 C23 1_555 1_555
O12 Eu16 1_555 1_555
O13 Eu16 1_555 1_555
O57 Eu1 1_555 1_555
O59 Eu1 1_555 1_555
O65 Eu16 1_555 1_555
C2 C16 1_555 1_555
C5 C16 1_555 1_555
C6 C10 1_555 1_555
C8 C11 1_555 1_555
C17 C18 1_555 1_555
Eu23 O23 1_555 1_555
O14 C28 1_555 1_555
O57 C29 1_555 1_555
O17 C24 1_555 1_555
O59 C29 1_555 1_555
C24 H22 1_555 1_555
H23 C24 1_555 1_555
C25 H24 1_555 1_555
C26 C33 1_555 1_555
C27 H25 1_555 1_555
C28 C25 1_555 1_555
C29 C31 1_555 1_555
O19 C38 1_555 1_555
C30 H26 1_555 1_555
C31 C25 1_555 1_555
C32 C24 1_555 1_555
H27 C32 1_555 1_555
H28 C32 1_555 1_555
C33 H29 1_555 1_555
C34 C30 1_555 1_555
C35 O17 1_555 1_555
C36 O14 1_555 1_555
H30 C36 1_555 1_555
H31 C36 1_555 1_555
C37 C28 1_555 1_555
H32 C37 1_555 1_555
C38 C34 1_555 1_555
C39 C26 1_555 1_555
C40 C27 1_555 1_555
C41 C26 1_555 1_555
O21 C42 1_555 1_555
O65 C41 1_555 1_555
O23 C41 1_555 1_555
C42 O15 1_555 1_555
Eu23_3 O19 1_555 1_555
C27 C35 1_555 1_555
C30 C31 1_555 1_555
C32 C36 1_555 1_555
C33 C35 1_555 1_555
C34 C37 1_555 1_555
C39 C40 1_555 1_555
C40 C42 1_555 1_555
C39 H69 1_555 1_555
O62 Eu23_2 1_555 1_555
O54 Eu23_3 1_555 1_555
O37 C70 1_555 1_555
O39 C71 1_555 1_555
O40 C66 1_555 1_555
O41 C71 1_555 1_555
C66 H54 1_555 1_555
H55 C66 1_555 1_555
C67 H56 1_555 1_555
C68 C75 1_555 1_555
C69 H57 1_555 1_555
C70 C67 1_555 1_555
C71 C73 1_555 1_555
O62 C80 1_555 1_555
C72 H58 1_555 1_555
C73 C67 1_555 1_555
C74 C66 1_555 1_555
H59 C74 1_555 1_555
H60 C74 1_555 1_555
C75 H61 1_555 1_555
C76 C72 1_555 1_555
C77 O40 1_555 1_555
C78 O37 1_555 1_555
H62 C78 1_555 1_555
H63 C78 1_555 1_555
C79 C70 1_555 1_555
H64 C79 1_555 1_555
C80 C76 1_555 1_555
C81 C68 1_555 1_555
C82 C69 1_555 1_555
C83 C68 1_555 1_555
O44 C84 1_555 1_555
O45 C83 1_555 1_555
O46 Eu23_4 1_555 1_555
C84 O38 1_555 1_555
Eu13 O39 1_555 1_555
Eu19 O45 1_555 1_555
O41 Eu13 1_555 1_555
C69 C77 1_555 1_555
C72 C73 1_555 1_555
C74 C78 1_555 1_555
C75 C77 1_555 1_555
C76 C79 1_555 1_555
C81 C82 1_555 1_555
C82 C84 1_555 1_555
C83 O46 1_555 1_555
C81 H74 1_555 1_555
Eu13 O24 1_555 1_555
Eu19 O26 1_555 1_555
O48 C56 1_555 1_555
O26 C47 1_555 1_555
O27 C56 1_555 1_555
O28 C51 1_555 1_555
O29 C49 1_555 1_555
O32 Eu13 1_555 1_555
C43 H33 1_555 1_555
O34 Eu19 1_555 1_555
C44 H34 1_555 1_555
C47 O34 1_555 1_555
C48 H35 1_555 1_555
H36 C48 1_555 1_555
C49 C48 1_555 1_555
H37 C49 1_555 1_555
H38 C49 1_555 1_555
C50 C45 1_555 1_555
H39 C50 1_555 1_555
C51 C43 1_555 1_555
C52 O28 1_555 1_555
H40 C52 1_555 1_555
H41 C52 1_555 1_555
C53 O29 1_555 1_555
C56 C60 1_555 1_555
C58 C43 1_555 1_555
N2 C61 1_555 1_555
C59 C51 1_555 1_555
H43 C59 1_555 1_555
C60 C44 1_555 1_555
C61 O32 1_555 1_555
C62 N2 1_555 1_555
H44 C62 1_555 1_555
H45 C62 1_555 1_555
H46 C62 1_555 1_555
C63 C61 1_555 1_555
H47 C63 1_555 1_555
H48 C63 1_555 1_555
H49 C63 1_555 1_555
C64 N2 1_555 1_555
H51 C64 1_555 1_555
H52 C64 1_555 1_555
C65 C53 1_555 1_555
H53 C65 1_555 1_555
O35 Eu19 1_555 1_555
O36 Eu19 1_555 1_555
O64 Eu19 1_555 1_555
C44 C58 1_555 1_555
C47 C58 1_555 1_555
C48 C52 1_555 1_555
C50 C53 1_555 1_555
C59 C60 1_555 1_555
O35 H70 1_555 1_555
O52 C46 1_555 1_555
O54 C57 1_555 1_555
O56 C57 1_555 1_555
H42 C54 1_555 1_555
C55 C54 1_555 1_555
C57 C55 1_555 1_555
O12 H70_2 1_555 1_555

#END
