
###############################################################################
#
# This file contains modified crystal structure data generated from the
# MOF subset of the Cambridge Structural Database (CSD) v543 
# hosted by the Cambridge Crystallographic Data Centre (CCDC).
#
# This work is licensed under the Creative Commons
# Attribution-NonCommercial-ShareAlike 4.0 International License.
# To view a copy of this license, visit
# http://creativecommons.org/licenses/by-nc-sa/4.0/
# or send a letter to
# Creative Commons, PO Box 1866, Mountain View, CA 94042, USA.
#
# CIF created using the CSD Python API on 29 September 2022
# The structure has been converted into the P1 space group
# The structure has a 3D framework
# The original CSD entry ACEMII is in the monoclinic crystal system
# The framework has been calculated to contain at least 10.0% void space
# The void calculation uses a probe of radius 1.32A, grid spacing 0.4
#
###############################################################################

data_ACEMII
_chemical_formula_moiety         '(C64 H58 Cu8 O52)n'
_symmetry_cell_setting           triclinic
_symmetry_space_group_name_H-M   'P 1'
_symmetry_Int_Tables_number      1
_space_group_name_Hall           'P 1'
loop_
_symmetry_equiv_pos_site_id
_symmetry_equiv_pos_as_xyz
1 x,y,z
_cell_length_a                   13.9013(10)
_cell_length_b                   19.0555(15)
_cell_length_c                   9.9144(8)
_cell_angle_alpha                90
_cell_angle_beta                 95.246(2)
_cell_angle_gamma                90
_cell_volume                     2615.29
loop_
_atom_site_label
_atom_site_type_symbol
_atom_site_fract_x
_atom_site_fract_y
_atom_site_fract_z
H9 H 0.077946 0.286863 0.046260
Cu2 Cu 0.05069(5) 0.32905(5) 0.81244(9)
O11 O 0.0417(4) 0.2698(4) 0.9748(6)
O12 O 0.0607(5) 0.3881(4) 0.6503(8)
H11 H 0.004787 0.402942 0.620471
H12 H 0.078337 0.362542 0.586271
O13 O 0.0402(9) 0.4287(7) 0.9375(15)
H14 H 0.078274 0.468589 0.910496
O17 O 0.1924(3) 0.3231(2) 0.8437(5)
O18 O 0.1513(4) 0.2319(3) 0.7142(6)
Cu3 Cu 0.41633(4) 0.00673(3) 0.42886(6)
O7 O 0.2781(3) 0.0351(3) 0.3234(5)
H1 H 0.238049 -0.000040 0.321892
H2 H 0.284529 0.042510 0.238262
O15 O 0.4895(3) 0.0754(2) 0.3297(4)
O16 O 0.3990(3) 0.0768(2) 0.5687(4)
O1 O 0.5385(3) 0.27460(19) 0.0107(4)
O5 O 0.6319(3) 0.0640(2) 0.4513(4)
H1_2 H 0.761951 0.000040 0.678108
O8 O 0.9128(3) 0.1724(3) 0.2804(6)
C2 C 0.5770(4) 0.0900(3) 0.3556(5)
C7 C 0.5974(4) 0.2316(3) 0.0964(5)
C8 C 0.6196(4) 0.1426(3) 0.2674(5)
C10 C 0.5586(4) 0.1809(3) 0.1724(5)
H5 H 0.492610 0.171785 0.161630
C12 C 0.7183(4) 0.1554(3) 0.2777(6)
H7 H 0.759105 0.129774 0.338949
O10 O 0.8979(4) 0.2636(4) 0.1418(8)
H8 H 0.982726 0.229397 0.504400
C13 C 0.6956(4) 0.2448(3) 0.1070(6)
H10 H 0.720915 0.279279 0.054074
C15 C 0.7563(4) 0.2056(4) 0.1981(6)
C16 C 0.8648(5) 0.2156(4) 0.2064(8)
H13 H 0.977314 0.049101 0.429276
O14 O 0.5424(3) 0.0675(2) 0.6897(4)
C1 C 0.4599(4) 0.0941(3) 0.6641(5)
C3 C 0.3129(4) 0.2393(3) 0.8045(6)
C4 C 0.3813(4) 0.2695(3) 0.8996(6)
H3 H 0.365645 0.309115 0.947867
C5 C 0.4714(4) 0.2405(3) 0.9209(5)
C6 C 0.4315(4) 0.1534(3) 0.7512(5)
C9 C 0.4972(4) 0.1821(3) 0.8481(5)
H4 H 0.558437 0.162546 0.864899
C11 C 0.3393(4) 0.1811(3) 0.7306(6)
H6 H 0.294458 0.160796 0.666910
C14 C 0.2128(4) 0.2672(3) 0.7841(6)
Cu1 Cu 0.58367(4) 0.50673(3) 0.07114(6)
O7_2 O 0.7219(3) 0.5351(3) 0.1766(5)
H1_3 H 0.761951 0.499960 0.178108
H2_2 H 0.715471 0.542510 0.261738
H8_2 H 0.982726 0.270603 0.004400
O14_2 O 0.5424(3) 0.4325(2) 0.1897(4)
O15_2 O 0.5105(3) 0.5754(2) 0.1703(4)
O1_2 O 0.5385(3) 0.22540(19) 0.5107(4)
O3 O 0.4895(3) 0.4246(2) 0.8297(4)
O4 O 0.3990(3) 0.4232(2) 0.0687(4)
O5_2 O 0.6319(3) 0.4360(2) 0.9513(4)
O6 O 0.1924(3) 0.1769(2) 0.3437(5)
C1_2 C 0.4599(4) 0.4059(3) 0.1641(5)
O8_2 O 0.9128(3) 0.3276(3) 0.7804(6)
C2_2 C 0.5770(4) 0.4100(3) 0.8556(5)
C3_2 C 0.3129(4) 0.2607(3) 0.3045(6)
C4_2 C 0.3813(4) 0.2305(3) 0.3996(6)
H3_2 H 0.365645 0.190885 0.447867
C5_2 C 0.4714(4) 0.2595(3) 0.4209(5)
O9 O 0.1513(4) 0.2681(3) 0.2142(6)
C6_2 C 0.4315(4) 0.3466(3) 0.2512(5)
C7_2 C 0.5974(4) 0.2684(3) 0.5964(5)
C8_2 C 0.6196(4) 0.3574(3) 0.7674(5)
C9_2 C 0.4972(4) 0.3179(3) 0.3481(5)
H4_2 H 0.558437 0.337454 0.364899
C10_2 C 0.5586(4) 0.3191(3) 0.6724(5)
H5_2 H 0.492610 0.328215 0.661630
C11_2 C 0.3393(4) 0.3189(3) 0.2306(6)
H6_2 H 0.294458 0.339204 0.166910
C12_2 C 0.7183(4) 0.3446(3) 0.7777(6)
H7_2 H 0.759105 0.370226 0.838949
O10_2 O 0.8979(4) 0.2364(4) 0.6418(8)
C13_2 C 0.6956(4) 0.2552(3) 0.6070(6)
H10_2 H 0.720915 0.220721 0.554074
C14_2 C 0.2128(4) 0.2328(3) 0.2841(6)
C15_2 C 0.7563(4) 0.2944(4) 0.6981(6)
C16_2 C 0.8648(5) 0.2844(4) 0.7064(8)
H13_2 H 0.977314 0.450899 0.929276
Cu5 Cu 0.41633(4) 0.49327(3) 0.92886(6)
Cu6 Cu 0.05069(5) 0.17095(5) 0.31244(9)
O16_2 O 0.6010(3) 0.5768(2) 0.9313(4)
Cu2_2 Cu 0.94931(5) 0.82905(5) 0.68756(9)
O11_2 O 0.9583(4) 0.7698(4) 0.5252(6)
H9_2 H 0.922054 0.786863 0.453740
O12_2 O 0.9393(5) 0.8881(4) 0.8497(8)
H11_2 H 0.995213 0.902942 0.879529
H12_2 H 0.921663 0.862542 0.913729
O13_2 O 0.9598(9) 0.9287(7) 0.5625(15)
H14_2 H 0.921726 0.968589 0.589504
O17_2 O 0.8076(3) 0.8231(2) 0.6563(5)
O18_2 O 0.8487(4) 0.7319(3) 0.7858(6)
O1_3 O 0.4615(3) 0.77460(19) 0.4893(4)
O2 O 0.4576(3) 0.5675(2) 0.8103(4)
O5_3 O 0.3681(3) 0.5640(2) 0.0487(4)
C1_3 C 0.5401(4) 0.5941(3) 0.8359(5)
O8_3 O 0.0872(3) 0.6724(3) 0.2196(6)
C2_3 C 0.4230(4) 0.5900(3) 0.1444(5)
C3_3 C 0.6871(4) 0.7393(3) 0.6955(6)
C4_3 C 0.6187(4) 0.7695(3) 0.6004(6)
H3_3 H 0.634355 0.809115 0.552133
C5_3 C 0.5286(4) 0.7405(3) 0.5791(5)
C6_3 C 0.5685(4) 0.6534(3) 0.7488(5)
C7_3 C 0.4026(4) 0.7316(3) 0.4036(5)
C8_3 C 0.3804(4) 0.6426(3) 0.2326(5)
C9_3 C 0.5028(4) 0.6821(3) 0.6519(5)
H4_3 H 0.441563 0.662546 0.635101
C10_3 C 0.4414(4) 0.6809(3) 0.3276(5)
H5_3 H 0.507390 0.671785 0.338370
C11_3 C 0.6607(4) 0.6811(3) 0.7694(6)
H6_3 H 0.705542 0.660796 0.833090
C12_3 C 0.2817(4) 0.6554(3) 0.2223(6)
H7_3 H 0.240895 0.629774 0.161051
O10_3 O 0.1021(4) 0.7636(4) 0.3582(8)
C13_3 C 0.3044(4) 0.7448(3) 0.3930(6)
H10_3 H 0.279085 0.779279 0.445926
C14_3 C 0.7872(4) 0.7672(3) 0.7159(6)
C15_3 C 0.2437(4) 0.7056(4) 0.3019(6)
C16_3 C 0.1352(5) 0.7156(4) 0.2936(8)
H13_3 H 0.022686 0.549101 0.070724
O7_3 O 0.2781(3) 0.4649(3) 0.8234(5)
H1_4 H 0.238049 0.500040 0.821892
H2_3 H 0.284529 0.457490 0.738262
H8_3 H 0.017274 0.729397 0.995600
O11_3 O 0.0417(4) 0.2302(4) 0.4748(6)
H9_3 H 0.077946 0.213137 0.546260
O12_3 O 0.0607(5) 0.1119(4) 0.1503(8)
H11_3 H 0.004787 0.097058 0.120471
H12_3 H 0.078337 0.137458 0.086271
O13_3 O 0.0402(9) 0.0713(7) 0.4375(15)
H14_3 H 0.078274 0.031411 0.410496
O2_2 O 0.4576(3) 0.9325(2) 0.3103(4)
O4_2 O 0.6010(3) 0.9232(2) 0.4313(4)
O6_2 O 0.8076(3) 0.6769(2) 0.1563(5)
C1_4 C 0.5401(4) 0.9059(3) 0.3359(5)
C3_4 C 0.6871(4) 0.7607(3) 0.1955(6)
C4_4 C 0.6187(4) 0.7305(3) 0.1004(6)
H3_4 H 0.634355 0.690885 0.052133
C5_4 C 0.5286(4) 0.7595(3) 0.0791(5)
O9_2 O 0.8487(4) 0.7681(3) 0.2858(6)
C6_4 C 0.5685(4) 0.8466(3) 0.2488(5)
C9_4 C 0.5028(4) 0.8179(3) 0.1519(5)
H4_4 H 0.441563 0.837454 0.135101
C11_4 C 0.6607(4) 0.8189(3) 0.2694(6)
H6_4 H 0.705542 0.839204 0.333090
C14_4 C 0.7872(4) 0.7328(3) 0.2159(6)
Cu4 Cu 0.58367(4) 0.99327(3) 0.57114(6)
Cu6_2 Cu 0.94931(5) 0.67095(5) 0.18756(9)
O1_4 O 0.4615(3) 0.72540(19) 0.9893(4)
O3_2 O 0.5105(3) 0.9246(2) 0.6703(4)
O5_4 O 0.3681(3) 0.9360(2) 0.5487(4)
H1_5 H 0.238049 0.999960 0.321892
O8_4 O 0.0872(3) 0.8276(3) 0.7196(6)
C2_4 C 0.4230(4) 0.9100(3) 0.6444(5)
C7_4 C 0.4026(4) 0.7684(3) 0.9036(5)
C8_4 C 0.3804(4) 0.8574(3) 0.7326(5)
C10_4 C 0.4414(4) 0.8191(3) 0.8276(5)
H5_4 H 0.507390 0.828215 0.838370
C12_4 C 0.2817(4) 0.8446(3) 0.7223(6)
H7_4 H 0.240895 0.870226 0.661051
O10_4 O 0.1021(4) 0.7364(4) 0.8582(8)
H8_4 H 0.017274 0.770603 0.495600
C13_4 C 0.3044(4) 0.7552(3) 0.8930(6)
H10_4 H 0.279085 0.720721 0.945926
C15_4 C 0.2437(4) 0.7944(4) 0.8019(6)
C16_4 C 0.1352(5) 0.7844(4) 0.7936(8)
H13_4 H 0.022686 0.950899 0.570724
O11_4 O 0.9583(4) 0.7302(4) 0.0252(6)
O12_4 O 0.9393(5) 0.6119(4) 0.3497(8)
H11_4 H 0.995213 0.597058 0.379529
H12_4 H 0.921663 0.637458 0.413729
O13_4 O 0.9598(9) 0.5713(7) 0.0625(15)
H14_4 H 0.921726 0.531411 0.089504
O7_4 O 0.7219(3) 0.9649(3) 0.6766(5)
H1_6 H 0.761951 1.000040 0.678108
H2_4 H 0.715471 0.957490 0.761738
H9_4 H 0.922054 0.713137 0.953740
loop_
_geom_bond_atom_site_label_1
_geom_bond_atom_site_label_2
_geom_bond_site_symmetry_1
_geom_bond_site_symmetry_2
O11 Cu2 1_555 1_555
O12 Cu2 1_555 1_555
H11 O12 1_555 1_555
H12 O12 1_555 1_555
O13 Cu2 1_555 1_555
H14 O13 1_555 1_555
O17 Cu2 1_555 1_555
O18 Cu2 1_555 1_555
O7 Cu3 1_555 1_555
H1 O7 1_555 1_555
H2 O7 1_555 1_555
O15 Cu3 1_555 1_555
O16 Cu3 1_555 1_555
O15 C2 1_555 1_555
O5 C2 1_555 1_555
O8 C16 1_555 1_555
C2 C8 1_555 1_555
C7 O1 1_555 1_555
C8 C10 1_555 1_555
C10 C7 1_555 1_555
H5 C10 1_555 1_555
C12 C8 1_555 1_555
H7 C12 1_555 1_555
O10 C16 1_555 1_555
C13 C7 1_555 1_555
H10 C13 1_555 1_555
C15 C12 1_555 1_555
C16 C15 1_555 1_555
C13 C15 1_555 1_555
O14 C1 1_555 1_555
O16 C1 1_555 1_555
O17 C14 1_555 1_555
C1 C6 1_555 1_555
C3 C4 1_555 1_555
C4 H3 1_555 1_555
C5 C4 1_555 1_555
O18 C14 1_555 1_555
C6 C9 1_555 1_555
C9 C5 1_555 1_555
H4 C9 1_555 1_555
C11 C3 1_555 1_555
H6 C11 1_555 1_555
C14 C3 1_555 1_555
C6 C11 1_555 1_555
O7_2 Cu1 1_555 1_555
H1_3 O7_2 1_555 1_555
H2_2 O7_2 1_555 1_555
O14_2 Cu1 1_555 1_555
O15_2 Cu1 1_555 1_555
O1_2 C5_2 1_555 1_555
O14_2 C1_2 1_555 1_555
O3 C2_2 1_555 1_555
O4 C1_2 1_555 1_555
O5_2 C2_2 1_555 1_555
O6 C14_2 1_555 1_555
C1_2 C6_2 1_555 1_555
O8_2 C16_2 1_555 1_555
C2_2 C8_2 1_555 1_555
C3_2 C4_2 1_555 1_555
C4_2 H3_2 1_555 1_555
C5_2 C4_2 1_555 1_555
O9 C14_2 1_555 1_555
C6_2 C9_2 1_555 1_555
C7_2 O1_2 1_555 1_555
C8_2 C10_2 1_555 1_555
C9_2 C5_2 1_555 1_555
H4_2 C9_2 1_555 1_555
C10_2 C7_2 1_555 1_555
H5_2 C10_2 1_555 1_555
C11_2 C3_2 1_555 1_555
H6_2 C11_2 1_555 1_555
C12_2 C8_2 1_555 1_555
H7_2 C12_2 1_555 1_555
O10_2 C16_2 1_555 1_555
C13_2 C7_2 1_555 1_555
H10_2 C13_2 1_555 1_555
C14_2 C3_2 1_555 1_555
C15_2 C12_2 1_555 1_555
C16_2 C15_2 1_555 1_555
Cu6 O6 1_555 1_555
O3 Cu5 1_555 1_555
O9 Cu6 1_555 1_555
C6_2 C11_2 1_555 1_555
C13_2 C15_2 1_555 1_555
O11_2 Cu2_2 1_555 1_555
H9_2 O11_2 1_555 1_555
O12_2 Cu2_2 1_555 1_555
H11_2 O12_2 1_555 1_555
H12_2 O12_2 1_555 1_555
O13_2 Cu2_2 1_555 1_555
H14_2 O13_2 1_555 1_555
O17_2 Cu2_2 1_555 1_555
O18_2 Cu2_2 1_555 1_555
O1_3 C5_3 1_555 1_555
O2 C1_3 1_555 1_555
O15_2 C2_3 1_555 1_555
O16_2 C1_3 1_555 1_555
O5_3 C2_3 1_555 1_555
O17_2 C14_3 1_555 1_555
C1_3 C6_3 1_555 1_555
O8_3 C16_3 1_555 1_555
C2_3 C8_3 1_555 1_555
C3_3 C4_3 1_555 1_555
C4_3 H3_3 1_555 1_555
C5_3 C4_3 1_555 1_555
O18_2 C14_3 1_555 1_555
C6_3 C9_3 1_555 1_555
C7_3 O1_3 1_555 1_555
C8_3 C10_3 1_555 1_555
C9_3 C5_3 1_555 1_555
H4_3 C9_3 1_555 1_555
C10_3 C7_3 1_555 1_555
H5_3 C10_3 1_555 1_555
C11_3 C3_3 1_555 1_555
H6_3 C11_3 1_555 1_555
C12_3 C8_3 1_555 1_555
H7_3 C12_3 1_555 1_555
O10_3 C16_3 1_555 1_555
C13_3 C7_3 1_555 1_555
H10_3 C13_3 1_555 1_555
C14_3 C3_3 1_555 1_555
C15_3 C12_3 1_555 1_555
C16_3 C15_3 1_555 1_555
Cu5 O2 1_555 1_555
C6_3 C11_3 1_555 1_555
C13_3 C15_3 1_555 1_555
O7_3 Cu5 1_555 1_555
H1_4 O7_3 1_555 1_555
H2_3 O7_3 1_555 1_555
O11_3 Cu6 1_555 1_555
H9_3 O11_3 1_555 1_555
O12_3 Cu6 1_555 1_555
H11_3 O12_3 1_555 1_555
H12_3 O12_3 1_555 1_555
O13_3 Cu6 1_555 1_555
H14_3 O13_3 1_555 1_555
O2_2 C1_4 1_555 1_555
O4_2 C1_4 1_555 1_555
O6_2 C14_4 1_555 1_555
C1_4 C6_4 1_555 1_555
C3_4 C4_4 1_555 1_555
C4_4 H3_4 1_555 1_555
C5_4 C4_4 1_555 1_555
O9_2 C14_4 1_555 1_555
C6_4 C9_4 1_555 1_555
C9_4 C5_4 1_555 1_555
H4_4 C9_4 1_555 1_555
C11_4 C3_4 1_555 1_555
H6_4 C11_4 1_555 1_555
C14_4 C3_4 1_555 1_555
Cu4 O4_2 1_555 1_555
Cu6_2 O6_2 1_555 1_555
O9_2 Cu6_2 1_555 1_555
C6_4 C11_4 1_555 1_555
O3_2 C2_4 1_555 1_555
O5_4 C2_4 1_555 1_555
O8_4 C16_4 1_555 1_555
C2_4 C8_4 1_555 1_555
C7_4 O1_4 1_555 1_555
C8_4 C10_4 1_555 1_555
C10_4 C7_4 1_555 1_555
H5_4 C10_4 1_555 1_555
C12_4 C8_4 1_555 1_555
H7_4 C12_4 1_555 1_555
O10_4 C16_4 1_555 1_555
C13_4 C7_4 1_555 1_555
H10_4 C13_4 1_555 1_555
C15_4 C12_4 1_555 1_555
C16_4 C15_4 1_555 1_555
O3_2 Cu4 1_555 1_555
C13_4 C15_4 1_555 1_555
O11_4 Cu6_2 1_555 1_555
O12_4 Cu6_2 1_555 1_555
H11_4 O12_4 1_555 1_555
H12_4 O12_4 1_555 1_555
O13_4 Cu6_2 1_555 1_555
H14_4 O13_4 1_555 1_555
O7_4 Cu4 1_555 1_555
H1_6 O7_4 1_555 1_555
H2_4 O7_4 1_555 1_555

#END
