
###############################################################################
#
# This file contains modified crystal structure data generated from the
# MOF subset of the Cambridge Structural Database (CSD) v543 
# hosted by the Cambridge Crystallographic Data Centre (CCDC).
#
# This work is licensed under the Creative Commons
# Attribution-NonCommercial-ShareAlike 4.0 International License.
# To view a copy of this license, visit
# http://creativecommons.org/licenses/by-nc-sa/4.0/
# or send a letter to
# Creative Commons, PO Box 1866, Mountain View, CA 94042, USA.
#
# CIF created using the CSD Python API on 29 September 2022
# The structure has been converted into the P1 space group
# The structure has a 3D framework
# The original CSD entry ACIPIP is in the orthorhombic crystal system
# The framework has been calculated to contain at least 10.0% void space
# The void calculation uses a probe of radius 1.32A, grid spacing 0.4
#
###############################################################################

data_ACIPIP
_chemical_formula_moiety         '(C128 H64 In12 O80)n'
_symmetry_cell_setting           triclinic
_symmetry_space_group_name_H-M   'P 1'
_symmetry_Int_Tables_number      1
_space_group_name_Hall           'P 1'
loop_
_symmetry_equiv_pos_site_id
_symmetry_equiv_pos_as_xyz
1 x,y,z
_cell_length_a                   21.8718(6)
_cell_length_b                   23.1289(7)
_cell_length_c                   13.5024(3)
_cell_angle_alpha                90
_cell_angle_beta                 90
_cell_angle_gamma                90
_cell_volume                     6830.47
loop_
_atom_site_label
_atom_site_type_symbol
_atom_site_fract_x
_atom_site_fract_y
_atom_site_fract_z
In1 In 0.250000 0.30271(2) 0.250000
In2 In 0.250000 0.250000 0.000000
O1 O 0.27972(13) 0.24244(11) 0.14595(18)
O2 O 0.34071(12) 0.30983(12) 0.3143(2)
O3 O 0.24304(15) 0.34349(12) 0.49627(19)
O4 O 0.22147(14) 0.37329(11) 0.34297(19)
O5 O 0.34330(12) 0.25464(14) 0.4506(2)
C1 C 0.23073(18) 0.38157(16) 0.4337(3)
C2 C 0.36826(17) 0.28332(17) 0.3823(3)
C3 C 0.43664(18) 0.28477(19) 0.3818(3)
C4 C 0.2279(2) 0.44272(17) 0.4688(3)
C5 C 0.4686(2) 0.2611(3) 0.4602(4)
H1 H 0.447079 0.244718 0.514391
C6 C 0.4686(2) 0.3080(3) 0.3035(4)
H2 H 0.447074 0.324227 0.249088
C7 C 0.2315(4) 0.4859(2) 0.4062(4)
H3 H 0.233873 0.477691 0.337339
C8 C 0.2320(4) 0.4571(3) 0.5630(4)
H4 H 0.235461 0.427351 0.611229
O6 O 0.65929(12) 0.30983(12) 0.3143(2)
O7 O 0.65670(12) 0.25464(14) 0.4506(2)
C9 C 0.63174(17) 0.28332(17) 0.3823(3)
C10 C 0.56336(18) 0.28477(19) 0.3818(3)
C11 C 0.5314(2) 0.2611(3) 0.4602(4)
H5 H 0.552921 0.244718 0.514391
C12 C 0.5314(2) 0.3080(3) 0.3035(4)
H6 H 0.552926 0.324227 0.249088
O8 O 0.24304(15) 0.65651(12) 0.50373(19)
O9 O 0.22147(14) 0.62671(11) 0.65703(19)
C13 C 0.23073(18) 0.61843(16) 0.5663(3)
C14 C 0.2279(2) 0.55728(17) 0.5312(3)
C15 C 0.2315(4) 0.5141(2) 0.5938(4)
H7 H 0.233873 0.522309 0.662661
C16 C 0.2320(4) 0.5429(3) 0.4370(4)
H8 H 0.235461 0.572649 0.388771
O10 O 0.22028(13) 0.24244(11) 0.35405(18)
In3 In 0.250000 0.69729(2) 0.750000
In4 In 0.750000 0.30271(2) 0.250000
In5 In 0.750000 0.250000 0.500000
In6 In 0.250000 0.750000 0.500000
In7 In 0.250000 0.250000 0.500000
O12 O 0.15929(12) 0.30983(12) 0.1857(2)
O13 O 0.25696(15) 0.34349(12) 0.00373(19)
O15 O 0.27853(14) 0.37329(11) 0.15703(19)
O16 O 0.15670(12) 0.25464(14) 0.0494(2)
In2_2 In 0.250000 0.250000 1.000000
O11 O 0.22028(13) 0.25756(11) 0.85405(18)
O14 O 0.24304(15) 0.15651(12) 0.99627(19)
O17 O 0.34330(12) 0.24536(14) 0.9506(2)
H1_2 H 0.552921 0.255282 0.014391
C8_2 C 0.7680(4) 0.0429(3) 0.0630(4)
H4_2 H 0.764539 0.072649 0.111229
H5_2 H 0.447079 0.255282 0.014391
In7_2 In 0.750000 0.250000 -0.000000
In1_2 In 0.750000 0.19729(2) 0.750000
O1_2 O 0.72028(13) 0.25756(11) 0.64595(18)
O2_2 O 0.65929(12) 0.19017(12) 0.8143(2)
O3_2 O 0.75696(15) 0.15651(12) 0.99627(19)
O4_2 O 0.77853(14) 0.12671(11) 0.84297(19)
O5_2 O 0.65670(12) 0.24536(14) 0.9506(2)
C1_2 C 0.76927(18) 0.11843(16) 0.9337(3)
C2_2 C 0.63174(17) 0.21668(17) 0.8823(3)
C3_2 C 0.56336(18) 0.21523(19) 0.8818(3)
C4_2 C 0.7721(2) 0.05728(17) 0.9688(3)
C5_2 C 0.5314(2) 0.2389(3) 0.9602(4)
C6_2 C 0.5314(2) 0.1920(3) 0.8035(4)
H2_2 H 0.552926 0.175773 0.749088
C7_2 C 0.7685(4) 0.0141(2) 0.9062(4)
H3_2 H 0.766127 0.022309 0.837339
O6_2 O 0.34071(12) 0.19017(12) 0.8143(2)
C9_2 C 0.36826(17) 0.21668(17) 0.8823(3)
C10_2 C 0.43664(18) 0.21523(19) 0.8818(3)
C11_2 C 0.4686(2) 0.2389(3) 0.9602(4)
C12_2 C 0.4686(2) 0.1920(3) 0.8035(4)
H6_2 H 0.447074 0.175773 0.749088
O10_2 O 0.77972(13) 0.25756(11) 0.85405(18)
In4_2 In 0.250000 0.19729(2) 0.750000
In7_3 In 0.750000 0.250000 1.000000
O11_2 O 0.77972(13) 0.24244(11) 0.35405(18)
O12_2 O 0.84071(12) 0.19017(12) 0.6857(2)
O13_2 O 0.74304(15) 0.15651(12) 0.50373(19)
O14_2 O 0.75696(15) 0.34349(12) 0.49627(19)
O15_2 O 0.72147(14) 0.12671(11) 0.65703(19)
O16_2 O 0.84330(12) 0.24536(14) 0.5494(2)
O8_2 O 0.75696(15) 0.84349(12) 0.00373(19)
O9_2 O 0.77853(14) 0.87329(11) 0.15703(19)
C13_2 C 0.76927(18) 0.88157(16) 0.0663(3)
C14_2 C 0.7721(2) 0.94272(17) 0.0312(3)
C15_2 C 0.7685(4) 0.9859(2) 0.0938(4)
H7_2 H 0.766127 0.977691 0.162661
In3_2 In 0.750000 0.80271(2) 0.250000
In6_2 In 0.750000 0.750000 -0.000000
C16_2 C 0.7680(4) 0.9571(3) 0.9370(4)
H8_2 H 0.764539 0.927351 0.888771
In6_3 In 0.750000 0.750000 1.000000
In2_3 In 0.750000 0.750000 0.500000
O1_3 O 0.72028(13) 0.74244(11) 0.35405(18)
O2_3 O 0.65929(12) 0.80983(12) 0.1857(2)
O5_3 O 0.65670(12) 0.75464(14) 0.0494(2)
C2_3 C 0.63174(17) 0.78332(17) 0.1177(3)
C3_3 C 0.56336(18) 0.78477(19) 0.1182(3)
C5_3 C 0.5314(2) 0.7611(3) 0.0398(4)
C6_3 C 0.5314(2) 0.8080(3) 0.1965(4)
H2_3 H 0.552926 0.824227 0.250912
O6_3 O 0.34071(12) 0.80983(12) 0.1857(2)
O7_2 O 0.34330(12) 0.75464(14) 0.0494(2)
C9_3 C 0.36826(17) 0.78332(17) 0.1177(3)
C10_3 C 0.43664(18) 0.78477(19) 0.1182(3)
C11_3 C 0.4686(2) 0.7611(3) 0.0398(4)
C12_3 C 0.4686(2) 0.8080(3) 0.1965(4)
H6_3 H 0.447074 0.824227 0.250912
O10_3 O 0.77972(13) 0.74244(11) 0.14595(18)
In4_3 In 0.250000 0.80271(2) 0.250000
In5_2 In 0.250000 0.750000 0.000000
O11_3 O 0.77972(13) 0.75756(11) 0.64595(18)
O12_3 O 0.84071(12) 0.80983(12) 0.3143(2)
O13_3 O 0.74304(15) 0.84349(12) 0.49627(19)
O14_3 O 0.75696(15) 0.65651(12) 0.50373(19)
O15_3 O 0.72147(14) 0.87329(11) 0.34297(19)
O16_3 O 0.84330(12) 0.75464(14) 0.4506(2)
O17_2 O 0.65670(12) 0.74536(14) 0.5494(2)
H1_3 H 0.552921 0.744718 0.985609
H5_3 H 0.447079 0.744718 0.985609
In5_3 In 0.250000 0.750000 1.000000
O11_4 O 0.22028(13) 0.74244(11) 0.14595(18)
O14_4 O 0.24304(15) 0.84349(12) 0.00373(19)
O1_4 O 0.27972(13) 0.75756(11) 0.85405(18)
O2_4 O 0.34071(12) 0.69017(12) 0.6857(2)
O5_4 O 0.34330(12) 0.74536(14) 0.5494(2)
C2_4 C 0.36826(17) 0.71668(17) 0.6177(3)
C3_4 C 0.43664(18) 0.71523(19) 0.6182(3)
C5_4 C 0.4686(2) 0.7389(3) 0.5398(4)
H1_4 H 0.447079 0.755282 0.485609
C6_4 C 0.4686(2) 0.6920(3) 0.6965(4)
H2_4 H 0.447074 0.675773 0.750912
O6_4 O 0.65929(12) 0.69017(12) 0.6857(2)
C9_4 C 0.63174(17) 0.71668(17) 0.6177(3)
C10_4 C 0.56336(18) 0.71523(19) 0.6182(3)
C11_4 C 0.5314(2) 0.7389(3) 0.5398(4)
H5_4 H 0.552921 0.755282 0.485609
C12_4 C 0.5314(2) 0.6920(3) 0.6965(4)
H6_4 H 0.552926 0.675773 0.750912
O10_4 O 0.22028(13) 0.75756(11) 0.64595(18)
In4_4 In 0.750000 0.69729(2) 0.750000
O12_4 O 0.15929(12) 0.69017(12) 0.8143(2)
O13_4 O 0.25696(15) 0.65651(12) 0.99627(19)
O15_4 O 0.27853(14) 0.62671(11) 0.84297(19)
O16_4 O 0.15670(12) 0.74536(14) 0.9506(2)
O6_5 O 0.15929(12) 0.80983(12) 0.3143(2)
O7_3 O 0.15670(12) 0.75464(14) 0.4506(2)
C9_5 C 0.13174(17) 0.78332(17) 0.3823(3)
C10_5 C 0.06336(18) 0.78477(19) 0.3818(3)
C11_5 C 0.0314(2) 0.7611(3) 0.4602(4)
H5_5 H 0.052921 0.744718 0.514391
C12_5 C 0.0314(2) 0.8080(3) 0.3035(4)
H6_5 H 0.052926 0.824227 0.249088
C13_3 C 0.73073(18) 0.11843(16) 0.5663(3)
C14_3 C 0.7279(2) 0.05728(17) 0.5312(3)
C15_3 C 0.7315(4) 0.0141(2) 0.5938(4)
H7_3 H 0.733873 0.022309 0.662661
C16_3 C 0.7320(4) 0.0429(3) 0.4370(4)
H8_3 H 0.735461 0.072649 0.388771
C1_3 C 0.73073(18) 0.88157(16) 0.4337(3)
C2_5 C 0.86826(17) 0.78332(17) 0.3823(3)
C3_5 C 0.93664(18) 0.78477(19) 0.3818(3)
C4_3 C 0.7279(2) 0.94272(17) 0.4688(3)
C5_5 C 0.9686(2) 0.7611(3) 0.4602(4)
H1_5 H 0.947079 0.744718 0.514391
C6_5 C 0.9686(2) 0.8080(3) 0.3035(4)
H2_5 H 0.947074 0.824227 0.249088
C7_3 C 0.7315(4) 0.9859(2) 0.4062(4)
H3_3 H 0.733873 0.977691 0.337339
C8_3 C 0.7320(4) 0.9571(3) 0.5630(4)
H4_3 H 0.735461 0.927351 0.611229
O11_5 O 0.72028(13) 0.75756(11) 0.85405(18)
O14_5 O 0.74304(15) 0.65651(12) 0.99627(19)
O17_3 O 0.84330(12) 0.74536(14) 0.9506(2)
H1_6 H 0.052921 0.755282 0.014391
C8_4 C 0.2680(4) 0.5429(3) 0.0630(4)
H4_4 H 0.264539 0.572649 0.111229
C13_4 C 0.26927(18) 0.38157(16) 0.0663(3)
C14_4 C 0.2721(2) 0.44272(17) 0.0312(3)
C15_4 C 0.2685(4) 0.4859(2) 0.0938(4)
H7_4 H 0.266127 0.477691 0.162661
C1_4 C 0.26927(18) 0.61843(16) 0.9337(3)
C2_6 C 0.13174(17) 0.71668(17) 0.8823(3)
C3_6 C 0.06336(18) 0.71523(19) 0.8818(3)
C4_4 C 0.2721(2) 0.55728(17) 0.9688(3)
C5_6 C 0.0314(2) 0.7389(3) 0.9602(4)
C6_6 C 0.0314(2) 0.6920(3) 0.8035(4)
H2_6 H 0.052926 0.675773 0.749088
C7_4 C 0.2685(4) 0.5141(2) 0.9062(4)
H3_4 H 0.266127 0.522309 0.837339
C16_4 C 0.2680(4) 0.4571(3) 0.9370(4)
H8_4 H 0.264539 0.427351 0.888771
O11_6 O 0.27972(13) 0.74244(11) 0.35405(18)
O14_6 O 0.25696(15) 0.84349(12) 0.49627(19)
H5_6 H 0.947079 0.755282 0.014391
O6_6 O 0.84071(12) 0.69017(12) 0.8143(2)
C9_6 C 0.86826(17) 0.71668(17) 0.8823(3)
C10_6 C 0.93664(18) 0.71523(19) 0.8818(3)
C11_6 C 0.9686(2) 0.7389(3) 0.9602(4)
C12_6 C 0.9686(2) 0.6920(3) 0.8035(4)
H6_6 H 0.947074 0.675773 0.749088
C2_7 C 0.13174(17) 0.28332(17) 0.1177(3)
C3_7 C 0.06336(18) 0.28477(19) 0.1182(3)
C5_7 C 0.0314(2) 0.2611(3) 0.0398(4)
C6_7 C 0.0314(2) 0.3080(3) 0.1965(4)
H2_7 H 0.052926 0.324227 0.250912
O11_7 O 0.27972(13) 0.25756(11) 0.64595(18)
O14_7 O 0.25696(15) 0.15651(12) 0.50373(19)
O17_4 O 0.15670(12) 0.24536(14) 0.5494(2)
H1_7 H 0.052921 0.244718 0.985609
O6_7 O 0.84071(12) 0.30983(12) 0.1857(2)
O7_4 O 0.84330(12) 0.25464(14) 0.0494(2)
C9_7 C 0.86826(17) 0.28332(17) 0.1177(3)
C10_7 C 0.93664(18) 0.28477(19) 0.1182(3)
C11_7 C 0.9686(2) 0.2611(3) 0.0398(4)
C12_7 C 0.9686(2) 0.3080(3) 0.1965(4)
H6_7 H 0.947074 0.324227 0.250912
H5_7 H 0.947079 0.244718 0.985609
O6_8 O 0.15929(12) 0.19017(12) 0.6857(2)
C9_8 C 0.13174(17) 0.21668(17) 0.6177(3)
C10_8 C 0.06336(18) 0.21523(19) 0.6182(3)
C11_8 C 0.0314(2) 0.2389(3) 0.5398(4)
H5_8 H 0.052921 0.255282 0.485609
C12_8 C 0.0314(2) 0.1920(3) 0.6965(4)
H6_8 H 0.052926 0.175773 0.750912
O11_8 O 0.72028(13) 0.24244(11) 0.14595(18)
O14_8 O 0.74304(15) 0.34349(12) 0.00373(19)
C2_8 C 0.86826(17) 0.21668(17) 0.6177(3)
C3_8 C 0.93664(18) 0.21523(19) 0.6182(3)
C5_8 C 0.9686(2) 0.2389(3) 0.5398(4)
H1_8 H 0.947079 0.255282 0.485609
C6_8 C 0.9686(2) 0.1920(3) 0.6965(4)
H2_8 H 0.947074 0.175773 0.750912
O4_3 O 0.77853(14) 0.62671(11) 0.65703(19)
C1_5 C 0.76927(18) 0.61843(16) 0.5663(3)
C4_5 C 0.7721(2) 0.55728(17) 0.5312(3)
C7_5 C 0.7685(4) 0.5141(2) 0.5938(4)
H3_5 H 0.766127 0.522309 0.662661
C8_5 C 0.7680(4) 0.5429(3) 0.4370(4)
H4_5 H 0.764539 0.572649 0.388771
O9_3 O 0.77853(14) 0.37329(11) 0.34297(19)
C13_5 C 0.76927(18) 0.38157(16) 0.4337(3)
C14_5 C 0.7721(2) 0.44272(17) 0.4688(3)
C15_5 C 0.7685(4) 0.4859(2) 0.4062(4)
H7_5 H 0.766127 0.477691 0.337339
C16_5 C 0.7680(4) 0.4571(3) 0.5630(4)
H8_5 H 0.764539 0.427351 0.611229
O15_5 O 0.72147(14) 0.62671(11) 0.84297(19)
C16_6 C 0.2320(4) 0.0429(3) 0.0630(4)
H8_6 H 0.235461 0.072649 0.111229
O9_4 O 0.22147(14) 0.12671(11) 0.84297(19)
C13_6 C 0.23073(18) 0.11843(16) 0.9337(3)
C14_6 C 0.2279(2) 0.05728(17) 0.9688(3)
C15_6 C 0.2315(4) 0.0141(2) 0.9062(4)
H7_6 H 0.233873 0.022309 0.837339
O4_4 O 0.22147(14) 0.87329(11) 0.15703(19)
C1_6 C 0.23073(18) 0.88157(16) 0.0663(3)
C4_6 C 0.2279(2) 0.94272(17) 0.0312(3)
C7_6 C 0.2315(4) 0.9859(2) 0.0938(4)
H3_6 H 0.233873 0.977691 0.162661
O15_6 O 0.27853(14) 0.87329(11) 0.34297(19)
C8_6 C 0.2320(4) 0.9571(3) 0.9370(4)
H4_6 H 0.235461 0.927351 0.888771
O15_7 O 0.27853(14) 0.12671(11) 0.65703(19)
O15_8 O 0.72147(14) 0.37329(11) 0.15703(19)
C1_7 C 0.26927(18) 0.11843(16) 0.5663(3)
C4_7 C 0.2721(2) 0.05728(17) 0.5312(3)
C7_7 C 0.2685(4) 0.0141(2) 0.5938(4)
H3_7 H 0.266127 0.022309 0.662661
C8_7 C 0.2680(4) 0.0429(3) 0.4370(4)
H4_7 H 0.264539 0.072649 0.388771
C13_7 C 0.26927(18) 0.88157(16) 0.4337(3)
C14_7 C 0.2721(2) 0.94272(17) 0.4688(3)
C15_7 C 0.2685(4) 0.9859(2) 0.4062(4)
H7_7 H 0.266127 0.977691 0.337339
C16_7 C 0.2680(4) 0.9571(3) 0.5630(4)
H8_7 H 0.264539 0.927351 0.611229
C1_8 C 0.73073(18) 0.38157(16) 0.0663(3)
C4_8 C 0.7279(2) 0.44272(17) 0.0312(3)
C7_8 C 0.7315(4) 0.4859(2) 0.0938(4)
H3_8 H 0.733873 0.477691 0.162661
C16_8 C 0.7320(4) 0.5429(3) 0.0630(4)
H8_8 H 0.735461 0.572649 0.111229
C8_8 C 0.7320(4) 0.4571(3) 0.9370(4)
H4_8 H 0.735461 0.427351 0.888771
C13_8 C 0.73073(18) 0.61843(16) 0.9337(3)
C14_8 C 0.7279(2) 0.55728(17) 0.9688(3)
C15_8 C 0.7315(4) 0.5141(2) 0.9062(4)
H7_8 H 0.733873 0.522309 0.837339
loop_
_geom_bond_atom_site_label_1
_geom_bond_atom_site_label_2
_geom_bond_site_symmetry_1
_geom_bond_site_symmetry_2
In1 O1 1_555 1_555
In2 O1 1_555 1_555
O2 In1 1_555 1_555
O3 C1 1_555 1_555
O4 In1 1_555 1_555
O5 C2 1_555 1_555
C1 O4 1_555 1_555
C2 O2 1_555 1_555
C3 C2 1_555 1_555
C4 C1 1_555 1_555
C5 C3 1_555 1_555
H1 C5 1_555 1_555
C6 C3 1_555 1_555
H2 C6 1_555 1_555
C7 C4 1_555 1_555
H3 C7 1_555 1_555
C8 C4 1_555 1_555
H4 C8 1_555 1_555
O6 C9 1_555 1_555
O7 C9 1_555 1_555
C9 C10 1_555 1_555
C10 C11 1_555 1_555
C11 C5 1_555 1_555
H5 C11 1_555 1_555
C12 C6 1_555 1_555
H6 C12 1_555 1_555
O8 C13 1_555 1_555
O9 C13 1_555 1_555
C13 C14 1_555 1_555
C14 C15 1_555 1_555
C15 C8 1_555 1_555
H7 C15 1_555 1_555
C16 C7 1_555 1_555
H8 C16 1_555 1_555
O10 In1 1_555 1_555
In3 O9 1_555 1_555
In4 O6 1_555 1_555
In5 O7 1_555 1_555
In6 O8 1_555 1_555
In7 O3 1_555 1_555
O12 In1 1_555 1_555
O13 In2 1_555 1_555
O15 In1 1_555 1_555
O16 In2 1_555 1_555
O5 In7 1_555 1_555
C10 C12 1_555 1_555
C14 C16 1_555 1_555
O10 In7 1_555 1_555
O11 In2_2 1_555 1_555
O14 In2_2 1_555 1_555
O17 In2_2 1_555 1_555
H4_2 C8_2 1_555 1_555
In1_2 O1_2 1_555 1_555
In5 O1_2 1_555 1_555
O2_2 In1_2 1_555 1_555
O3_2 C1_2 1_555 1_555
O4_2 In1_2 1_555 1_555
O5_2 C2_2 1_555 1_555
C1_2 O4_2 1_555 1_555
C2_2 O2_2 1_555 1_555
C3_2 C2_2 1_555 1_555
C4_2 C1_2 1_555 1_555
C5_2 C3_2 1_555 1_555
C6_2 C3_2 1_555 1_555
H2_2 C6_2 1_555 1_555
C7_2 C4_2 1_555 1_555
H3_2 C7_2 1_555 1_555
O6_2 C9_2 1_555 1_555
O17 C9_2 1_555 1_555
C9_2 C10_2 1_555 1_555
C10_2 C11_2 1_555 1_555
C11_2 C5_2 1_555 1_555
C12_2 C6_2 1_555 1_555
H6_2 C12_2 1_555 1_555
O10_2 In1_2 1_555 1_555
In4_2 O6_2 1_555 1_555
In7_3 O3_2 1_555 1_555
O11_2 In5 1_555 1_555
O12_2 In1_2 1_555 1_555
O13_2 In5 1_555 1_555
O14_2 In5 1_555 1_555
O15_2 In1_2 1_555 1_555
O16_2 In5 1_555 1_555
O5_2 In7_3 1_555 1_555
C10_2 C12_2 1_555 1_555
O10_2 In7_3 1_555 1_555
O8_2 C13_2 1_555 1_555
O9_2 C13_2 1_555 1_555
C13_2 C14_2 1_555 1_555
C14_2 C15_2 1_555 1_555
H7_2 C15_2 1_555 1_555
In3_2 O9_2 1_555 1_555
In6_2 O8_2 1_555 1_555
H8_2 C16_2 1_555 1_555
In3_2 O1_3 1_555 1_555
In2_3 O1_3 1_555 1_555
O2_3 In3_2 1_555 1_555
O5_3 C2_3 1_555 1_555
C2_3 O2_3 1_555 1_555
C3_3 C2_3 1_555 1_555
C5_3 C3_3 1_555 1_555
C6_3 C3_3 1_555 1_555
H2_3 C6_3 1_555 1_555
O6_3 C9_3 1_555 1_555
O7_2 C9_3 1_555 1_555
C9_3 C10_3 1_555 1_555
C10_3 C11_3 1_555 1_555
C11_3 C5_3 1_555 1_555
C12_3 C6_3 1_555 1_555
H6_3 C12_3 1_555 1_555
O10_3 In3_2 1_555 1_555
In4_3 O6_3 1_555 1_555
In5_2 O7_2 1_555 1_555
O11_3 In2_3 1_555 1_555
O12_3 In3_2 1_555 1_555
O13_3 In2_3 1_555 1_555
O14_3 In2_3 1_555 1_555
O15_3 In3_2 1_555 1_555
O16_3 In2_3 1_555 1_555
O17_2 In2_3 1_555 1_555
O5_3 In6_2 1_555 1_555
C10_3 C12_3 1_555 1_555
O10_3 In6_2 1_555 1_555
O11_4 In5_2 1_555 1_555
O14_4 In5_2 1_555 1_555
In3 O1_4 1_555 1_555
In5_3 O1_4 1_555 1_555
O2_4 In3 1_555 1_555
O5_4 C2_4 1_555 1_555
C2_4 O2_4 1_555 1_555
C3_4 C2_4 1_555 1_555
C5_4 C3_4 1_555 1_555
H1_4 C5_4 1_555 1_555
C6_4 C3_4 1_555 1_555
H2_4 C6_4 1_555 1_555
O6_4 C9_4 1_555 1_555
O17_2 C9_4 1_555 1_555
C9_4 C10_4 1_555 1_555
C10_4 C11_4 1_555 1_555
C11_4 C5_4 1_555 1_555
H5_4 C11_4 1_555 1_555
C12_4 C6_4 1_555 1_555
H6_4 C12_4 1_555 1_555
O10_4 In3 1_555 1_555
In4_4 O6_4 1_555 1_555
O12_4 In3 1_555 1_555
O13_4 In5_3 1_555 1_555
O15_4 In3 1_555 1_555
O16_4 In5_3 1_555 1_555
O5_4 In6 1_555 1_555
C10_4 C12_4 1_555 1_555
O10_4 In6 1_555 1_555
O6_5 C9_5 1_555 1_555
O7_3 C9_5 1_555 1_555
C9_5 C10_5 1_555 1_555
C10_5 C11_5 1_555 1_555
H5_5 C11_5 1_555 1_555
H6_5 C12_5 1_555 1_555
In4_3 O6_5 1_555 1_555
In6 O7_3 1_555 1_555
C10_5 C12_5 1_555 1_555
O13_2 C13_3 1_555 1_555
O15_2 C13_3 1_555 1_555
C13_3 C14_3 1_555 1_555
C14_3 C15_3 1_555 1_555
H7_3 C15_3 1_555 1_555
H8_3 C16_3 1_555 1_555
C14_3 C16_3 1_555 1_555
O13_3 C1_3 1_555 1_555
O16_3 C2_5 1_555 1_555
C1_3 O15_3 1_555 1_555
C2_5 O12_3 1_555 1_555
C3_5 C2_5 1_555 1_555
C4_3 C1_3 1_555 1_555
C5_5 C3_5 1_555 1_555
H1_5 C5_5 1_555 1_555
C6_5 C3_5 1_555 1_555
H2_5 C6_5 1_555 1_555
C7_3 C4_3 1_555 1_555
H3_3 C7_3 1_555 1_555
C8_3 C4_3 1_555 1_555
H4_3 C8_3 1_555 1_555
O11_5 In6_3 1_555 1_555
O14_5 In6_3 1_555 1_555
O17_3 In6_3 1_555 1_555
H4_4 C8_4 1_555 1_555
O13 C13_4 1_555 1_555
O15 C13_4 1_555 1_555
C13_4 C14_4 1_555 1_555
C14_4 C15_4 1_555 1_555
C15_4 C8_4 1_555 1_555
H7_4 C15_4 1_555 1_555
O13_4 C1_4 1_555 1_555
O16_4 C2_6 1_555 1_555
C1_4 O15_4 1_555 1_555
C2_6 O12_4 1_555 1_555
C3_6 C2_6 1_555 1_555
C4_4 C1_4 1_555 1_555
C5_6 C3_6 1_555 1_555
C6_6 C3_6 1_555 1_555
H2_6 C6_6 1_555 1_555
C7_4 C4_4 1_555 1_555
H3_4 C7_4 1_555 1_555
C16_4 C7_4 1_555 1_555
H8_4 C16_4 1_555 1_555
O11_6 In6 1_555 1_555
O14_6 In6 1_555 1_555
O6_6 C9_6 1_555 1_555
O17_3 C9_6 1_555 1_555
C9_6 C10_6 1_555 1_555
C10_6 C11_6 1_555 1_555
H6_6 C12_6 1_555 1_555
In4_4 O6_6 1_555 1_555
C10_6 C12_6 1_555 1_555
O16 C2_7 1_555 1_555
C2_7 O12 1_555 1_555
C3_7 C2_7 1_555 1_555
C5_7 C3_7 1_555 1_555
C6_7 C3_7 1_555 1_555
H2_7 C6_7 1_555 1_555
O11_7 In7 1_555 1_555
O14_7 In7 1_555 1_555
O17_4 In7 1_555 1_555
O6_7 C9_7 1_555 1_555
O7_4 C9_7 1_555 1_555
C9_7 C10_7 1_555 1_555
C10_7 C11_7 1_555 1_555
H6_7 C12_7 1_555 1_555
In4 O6_7 1_555 1_555
In7_2 O7_4 1_555 1_555
C10_7 C12_7 1_555 1_555
O6_8 C9_8 1_555 1_555
O17_4 C9_8 1_555 1_555
C9_8 C10_8 1_555 1_555
C10_8 C11_8 1_555 1_555
H5_8 C11_8 1_555 1_555
H6_8 C12_8 1_555 1_555
In4_2 O6_8 1_555 1_555
C10_8 C12_8 1_555 1_555
O11_8 In7_2 1_555 1_555
O14_8 In7_2 1_555 1_555
O16_2 C2_8 1_555 1_555
C2_8 O12_2 1_555 1_555
C3_8 C2_8 1_555 1_555
C5_8 C3_8 1_555 1_555
H1_8 C5_8 1_555 1_555
C6_8 C3_8 1_555 1_555
H2_8 C6_8 1_555 1_555
In4_4 O11_5 1_555 1_555
O14_3 C1_5 1_555 1_555
O4_3 In4_4 1_555 1_555
C1_5 O4_3 1_555 1_555
C4_5 C1_5 1_555 1_555
C7_5 C4_5 1_555 1_555
H3_5 C7_5 1_555 1_555
C8_5 C4_5 1_555 1_555
H4_5 C8_5 1_555 1_555
O14_2 C13_5 1_555 1_555
O9_3 C13_5 1_555 1_555
C13_5 C14_5 1_555 1_555
C14_5 C15_5 1_555 1_555
C15_5 C8_5 1_555 1_555
H7_5 C15_5 1_555 1_555
C16_5 C7_5 1_555 1_555
H8_5 C16_5 1_555 1_555
O11_3 In4_4 1_555 1_555
In4 O9_3 1_555 1_555
O15_5 In4_4 1_555 1_555
C14_5 C16_5 1_555 1_555
H8_6 C16_6 1_555 1_555
O14 C13_6 1_555 1_555
O9_4 C13_6 1_555 1_555
C13_6 C14_6 1_555 1_555
C14_6 C15_6 1_555 1_555
H7_6 C15_6 1_555 1_555
In4_2 O9_4 1_555 1_555
In4_3 O11_6 1_555 1_555
O14_4 C1_6 1_555 1_555
O4_4 In4_3 1_555 1_555
C1_6 O4_4 1_555 1_555
C4_6 C1_6 1_555 1_555
C7_6 C4_6 1_555 1_555
H3_6 C7_6 1_555 1_555
O11_4 In4_3 1_555 1_555
O15_6 In4_3 1_555 1_555
H4_6 C8_6 1_555 1_555
In4_2 O11_7 1_555 1_555
O11 In4_2 1_555 1_555
O15_7 In4_2 1_555 1_555
In4 O11_8 1_555 1_555
O11_2 In4 1_555 1_555
O15_8 In4 1_555 1_555
O14_7 C1_7 1_555 1_555
C1_7 O15_7 1_555 1_555
C4_7 C1_7 1_555 1_555
C7_7 C4_7 1_555 1_555
H3_7 C7_7 1_555 1_555
C8_7 C4_7 1_555 1_555
H4_7 C8_7 1_555 1_555
O14_6 C13_7 1_555 1_555
O15_6 C13_7 1_555 1_555
C13_7 C14_7 1_555 1_555
C14_7 C15_7 1_555 1_555
H7_7 C15_7 1_555 1_555
H8_7 C16_7 1_555 1_555
C14_7 C16_7 1_555 1_555
O14_8 C1_8 1_555 1_555
C1_8 O15_8 1_555 1_555
C4_8 C1_8 1_555 1_555
C7_8 C4_8 1_555 1_555
H3_8 C7_8 1_555 1_555
C16_8 C7_8 1_555 1_555
H8_8 C16_8 1_555 1_555
H4_8 C8_8 1_555 1_555
O14_5 C13_8 1_555 1_555
O15_5 C13_8 1_555 1_555
C13_8 C14_8 1_555 1_555
C14_8 C15_8 1_555 1_555
C15_8 C8_8 1_555 1_555
H7_8 C15_8 1_555 1_555

#END
