
###############################################################################
#
# This file contains modified crystal structure data generated from the
# MOF subset of the Cambridge Structural Database (CSD) v543 
# hosted by the Cambridge Crystallographic Data Centre (CCDC).
#
# This work is licensed under the Creative Commons
# Attribution-NonCommercial-ShareAlike 4.0 International License.
# To view a copy of this license, visit
# http://creativecommons.org/licenses/by-nc-sa/4.0/
# or send a letter to
# Creative Commons, PO Box 1866, Mountain View, CA 94042, USA.
#
# CIF created using the CSD Python API on 29 September 2022
# The structure has been converted into the P1 space group
# The structure has a 3D framework
# The original CSD entry ACOBEC is in the triclinic crystal system
# The framework has been calculated to contain at least 10.0% void space
# The void calculation uses a probe of radius 1.32A, grid spacing 0.4
# H atom positions have been added when not included in the experimental data
#
###############################################################################

data_ACOBEC
_chemical_formula_moiety         '(C64 H32 O33 Sc8)n'
_symmetry_cell_setting           triclinic
_symmetry_space_group_name_H-M   'P 1'
_symmetry_Int_Tables_number      1
_space_group_name_Hall           'P 1'
loop_
_symmetry_equiv_pos_site_id
_symmetry_equiv_pos_as_xyz
1 x,y,z
_cell_length_a                   7.2688(6)
_cell_length_b                   13.4534(8)
_cell_length_c                   20.6795(12)
_cell_angle_alpha                71.576(5)
_cell_angle_beta                 84.214(8)
_cell_angle_gamma                87.717(5)
_cell_volume                     1908.75
loop_
_atom_site_label
_atom_site_type_symbol
_atom_site_fract_x
_atom_site_fract_y
_atom_site_fract_z
_atom_site_U_iso_or_equiv
_atom_site_thermal_displace_type
O26 O 0.120(4) 0.0114(25) 0.1678(14) 0.0322 Uiso
Sc11 Sc 0.1980(26) 0.0555(13) 0.2479(10) 0.0320 Uiso
O9 O 0.168(4) 0.0031(24) 0.8255(13) 0.0322 Uiso
C7 C 0.164(4) 0.017(7) 0.9579(17) 0.0250 Uiso
C14 C 0.009(5) 0.023(4) 0.8538(16) 0.0250 Uiso
C21 C 0.003(5) 0.017(5) 0.9287(10) 0.0250 Uiso
H8 H 0.293516 0.0358988 0.925409 . .
C42 C 0.1646(34) 0.993(7) 0.0291(19) 0.0250 Uiso
O58 O 0.0235(26) 0.5421(17) 0.2479(14) 0.0322 Uiso
H23 H 0.295586 0.982025 0.0518998 . .
O12 O 0.0601(26) 0.8645(17) 0.7465(14) 0.0322 Uiso
Sc16 Sc 0.3004(27) 0.9492(13) 0.7500(10) 0.0320 Uiso
Sc20 Sc 0.6996(27) 0.0508(13) 0.2500(10) 0.0320 Uiso
O16 O 0.5435(25) 0.0237(18) 0.7531(15) 0.0322 Uiso
C10 C 0.8354(34) 0.007(7) 0.9709(19) 0.0250 Uiso
O27 O 0.255(4) 0.0792(26) 0.3390(13) 0.0322 Uiso
O28 O 0.571(4) 0.1154(23) 0.3246(14) 0.0322 Uiso
C45 C 0.421(4) 0.074(6) 0.3607(10) 0.0250 Uiso
C46 C 0.640(5) 0.052(5) 0.4530(18) 0.0250 Uiso
C47 C 0.476(5) 0.032(6) 0.4315(8) 0.0250 Uiso
C48 C 0.668(4) 0.016(6) 0.5209(20) 0.0250 Uiso
O50 O 0.9266(32) 0.0890(19) 0.6987(13) 0.0322 Uiso
O56 O 0.2039(27) 0.0777(20) 0.6720(14) 0.0322 Uiso
H1 H 0.704414 0.0179753 0.9481 . .
H12 H 0.747475 0.0965719 0.415815 . .
H14 H 0.802143 0.0249011 0.537511 . .
Sc2 Sc 0.7955(27) 0.4521(13) 0.2517(10) 0.0320 Uiso
Sc4 Sc 0.2800(27) 0.4653(13) 0.2491(9) 0.0320 Uiso
O1 O 0.411(4) 0.5986(19) 0.1840(12) 0.0322 Uiso
O2 O 0.718(4) 0.5660(22) 0.1601(13) 0.0322 Uiso
O4 O 0.1544(29) 0.3288(20) 0.3195(11) 0.0322 Uiso
O5 O 0.345(4) 0.5090(25) 0.3324(13) 0.0322 Uiso
O6 O 0.646(4) 0.5324(23) 0.3111(15) 0.0322 Uiso
O7 O 0.210(4) 0.4246(25) 0.1639(12) 0.0322 Uiso
O19 O 0.5323(25) 0.3780(17) 0.2502(14) 0.0322 Uiso
C2 C 0.0149(22) 0.316(5) 0.3643(6) 0.0250 Uiso
C3 C 0.547(4) 0.5890(29) 0.1420(10) 0.0250 Uiso
C4 C 0.501(5) 0.524(4) 0.3561(9) 0.0250 Uiso
C8 C 0.042(5) 0.419(6) 0.1448(8) 0.0250 Uiso
C9 C 0.0533(24) 0.1216(31) 0.6495(9) 0.0250 Uiso
C11 C 0.715(4) 0.667(4) 0.0309(9) 0.0250 Uiso
C15 C 0.165(4) 0.509(6) 0.0246(19) 0.0250 Uiso
C18 C 0.551(4) 0.6640(32) 0.0717(9) 0.0250 Uiso
C19 C 0.502(6) 0.515(5) 0.4295(8) 0.0250 Uiso
C20 C 0.3950(30) 0.715(4) 0.0449(12) 0.0250 Uiso
C22 C 0.0118(20) 0.269(5) 0.4401(6) 0.0250 Uiso
C23 C 0.014(5) 0.460(6) 0.0709(7) 0.0250 Uiso
C26 C 0.1775(19) 0.252(4) 0.4688(8) 0.0250 Uiso
C27 C 0.1827(19) 0.199(4) 0.5376(8) 0.0250 Uiso
C29 C 0.666(4) 0.510(7) 0.4584(19) 0.0250 Uiso
C30 C 0.0206(20) 0.1850(34) 0.5796(5) 0.0250 Uiso
C32 C 0.3342(35) 0.509(8) 0.4715(20) 0.0250 Uiso
O21 O 0.655(4) 0.4910(25) 0.6676(13) 0.0322 Uiso
O22 O 0.354(4) 0.4676(23) 0.6889(15) 0.0322 Uiso
C33 C 0.499(5) 0.476(4) 0.6439(9) 0.0250 Uiso
C34 C 0.498(6) 0.485(5) 0.5705(8) 0.0250 Uiso
C35 C 0.334(4) 0.490(7) 0.5416(19) 0.0250 Uiso
C36 C 0.6658(35) 0.491(8) 0.5285(20) 0.0250 Uiso
O25 O 0.832(4) 0.9969(24) 0.1745(13) 0.0322 Uiso
C41 C 0.836(4) 0.983(7) 0.0421(17) 0.0250 Uiso
C43 C 0.991(5) 0.977(4) 0.1462(16) 0.0250 Uiso
C44 C 0.997(5) 0.983(5) 0.0713(10) 0.0250 Uiso
Sc14 Sc 0.2045(27) 0.5479(13) 0.7483(10) 0.0320 Uiso
Sc21 Sc 0.7200(27) 0.5347(13) 0.7509(9) 0.0320 Uiso
O41 O 0.8596(25) 0.3359(23) 0.3389(12) 0.0322 Uiso
O45 O 0.917(4) 0.3672(20) 0.1893(13) 0.0322 Uiso
H3 H 0.841776 0.63277 0.0528637 . .
H6 H 0.269271 0.717766 0.07774 . .
H10 H 0.289922 0.526187 0.0439217 . .
H11 H 0.203541 0.479024 0.57379 . .
H13 H 0.305174 0.280525 0.437047 . .
H15 H 0.796637 0.480599 0.551368 . .
H17 H 0.796459 0.520976 0.42621 . .
H18 H 0.706484 0.964101 0.0745909 . .
H19 H 0.203363 0.519401 0.448632 . .
H20 H 0.313002 0.168789 0.558258 . .
Sc1 Sc 0.8020(26) 0.9445(13) 0.7521(10) 0.0320 Uiso
O10 O 0.880(4) 0.9886(25) 0.8322(14) 0.0322 Uiso
O13 O 0.745(4) 0.9208(26) 0.6610(13) 0.0322 Uiso
O14 O 0.429(4) 0.8846(23) 0.6754(14) 0.0322 Uiso
O15 O 0.692(4) 0.8055(19) 0.8147(14) 0.0322 Uiso
O17 O 0.384(4) 0.8111(21) 0.8278(14) 0.0322 Uiso
C1 C 0.540(5) 0.791(6) 0.8532(12) 0.0250 Uiso
C5 C 0.7120(29) 0.715(4) 0.9613(9) 0.0250 Uiso
C6 C 0.579(4) 0.926(6) 0.6393(10) 0.0250 Uiso
C16 C 0.360(5) 0.948(5) 0.5470(18) 0.0250 Uiso
C17 C 0.524(5) 0.968(6) 0.5685(8) 0.0250 Uiso
C25 C 0.332(4) 0.984(6) 0.4791(20) 0.0250 Uiso
C28 C 0.403(4) 0.763(4) 0.9744(12) 0.0250 Uiso
C31 C 0.552(4) 0.752(5) 0.9292(9) 0.0250 Uiso
O24 O 0.083(4) 0.6328(20) 0.8107(13) 0.0322 Uiso
C38 C 0.154(4) 0.535(6) 0.9550(17) 0.0250 Uiso
O31 O 0.1404(25) 0.6641(23) 0.6611(12) 0.0322 Uiso
O33 O 0.0734(32) 0.9110(19) 0.3013(13) 0.0322 Uiso
C55 C 0.1444(20) 0.808(4) 0.4488(8) 0.0250 Uiso
C59 C 0.1492(19) 0.761(5) 0.5183(8) 0.0250 Uiso
H4 H 0.84298 0.724544 0.92948 . .
H5 H 0.252525 0.903428 0.584185 . .
H16 H 0.286468 0.811788 0.953453 . .
H21 H 0.279865 0.551732 0.92024 . .
H22 H 0.197857 0.975099 0.462489 . .
H28 H 0.281362 0.747575 0.540353 . .
H31 H 0.270184 0.839304 0.41668 . .
C12 C 0.846(4) 0.465(6) 0.0450(17) 0.0250 Uiso
C13 C 0.8556(20) 0.192(4) 0.5512(8) 0.0250 Uiso
C24 C 0.8508(19) 0.239(5) 0.4817(8) 0.0250 Uiso
O35 O 0.308(4) 0.1945(19) 0.1853(14) 0.0322 Uiso
O37 O 0.616(4) 0.1889(21) 0.1722(14) 0.0322 Uiso
C49 C 0.460(5) 0.209(6) 0.1468(12) 0.0250 Uiso
C52 C 0.2880(29) 0.285(4) 0.0387(9) 0.0250 Uiso
C62 C 0.597(4) 0.237(4) 0.0256(12) 0.0250 Uiso
C64 C 0.448(4) 0.248(5) 0.0708(9) 0.0250 Uiso
O53 O 0.9399(26) 0.1355(17) 0.2535(14) 0.0322 Uiso
H2 H 0.720135 0.448268 0.0797596 . .
H7 H 0.729816 0.160696 0.58332 . .
H9 H 0.718638 0.252425 0.459647 . .
H25 H 0.713532 0.188212 0.0465473 . .
H29 H 0.15702 0.275456 0.0705198 . .
O23 O 0.790(4) 0.5754(25) 0.8361(12) 0.0322 Uiso
C37 C 0.958(5) 0.581(6) 0.8552(8) 0.0250 Uiso
C39 C 0.835(4) 0.491(6) 0.9754(19) 0.0250 Uiso
C40 C 0.986(5) 0.540(6) 0.9291(7) 0.0250 Uiso
O29 O 0.589(4) 0.4014(19) 0.8160(12) 0.0322 Uiso
O30 O 0.282(4) 0.4340(22) 0.8399(13) 0.0322 Uiso
O32 O 0.8456(29) 0.6712(20) 0.6805(11) 0.0322 Uiso
O38 O 0.7961(27) 0.9223(20) 0.3280(14) 0.0322 Uiso
O39 O 0.4677(25) 0.6220(17) 0.7498(14) 0.0322 Uiso
O40 O 0.9765(26) 0.4579(17) 0.7521(14) 0.0322 Uiso
C50 C 0.9851(22) 0.684(5) 0.6357(6) 0.0250 Uiso
C51 C 0.453(4) 0.4110(29) 0.8580(10) 0.0250 Uiso
C53 C 0.9467(24) 0.8784(31) 0.3505(9) 0.0250 Uiso
C54 C 0.285(4) 0.333(4) 0.9691(9) 0.0250 Uiso
C56 C 0.449(4) 0.3360(32) 0.9283(9) 0.0250 Uiso
C57 C 0.6050(30) 0.285(4) 0.9551(12) 0.0250 Uiso
C58 C 0.9882(20) 0.731(5) 0.5599(6) 0.0250 Uiso
C60 C 0.8225(19) 0.748(4) 0.5312(8) 0.0250 Uiso
C61 C 0.8173(19) 0.801(4) 0.4624(8) 0.0250 Uiso
C63 C 0.9794(20) 0.8150(34) 0.4204(5) 0.0250 Uiso
H24 H 0.710078 0.473813 0.956078 . .
H26 H 0.686998 0.831211 0.441742 . .
H27 H 0.694826 0.719475 0.562953 . .
H30 H 0.730729 0.282234 0.92226 . .
H32 H 0.158224 0.36723 0.947136 . .
O36 O 0.4565(25) 0.9763(18) 0.2469(15) 0.0322 Uiso
loop_
_geom_bond_atom_site_label_1
_geom_bond_atom_site_label_2
_geom_bond_site_symmetry_1
_geom_bond_site_symmetry_2
Sc11 O26 1_555 1_555
O9 C14 1_555 1_555
C7 C21 1_555 1_555
C14 C21 1_555 1_555
C7 H8 1_555 1_555
C42 H23 1_555 1_555
O12 Sc16 1_555 1_555
O27 C45 1_555 1_555
O28 C45 1_555 1_555
C45 C47 1_555 1_555
C46 C47 1_555 1_555
Sc11 O27 1_555 1_555
Sc20 O28 1_555 1_555
C46 C48 1_555 1_555
C10 H1 1_555 1_555
C46 H12 1_555 1_555
C48 H14 1_555 1_555
Sc2 O2 1_555 1_555
Sc4 O1 1_555 1_555
O1 C3 1_555 1_555
O2 C3 1_555 1_555
O4 Sc4 1_555 1_555
O5 Sc4 1_555 1_555
O6 Sc2 1_555 1_555
O7 Sc4 1_555 1_555
O56 C9 1_555 1_555
O19 Sc2 1_555 1_555
O58 Sc4 1_555 1_555
C2 O4 1_555 1_555
C3 C18 1_555 1_555
C4 O5 1_555 1_555
C8 O7 1_555 1_555
C9 C30 1_555 1_555
C11 C18 1_555 1_555
C15 C23 1_555 1_555
C18 C20 1_555 1_555
C19 C4 1_555 1_555
C22 C2 1_555 1_555
C23 C8 1_555 1_555
C26 C22 1_555 1_555
C27 C26 1_555 1_555
C29 C19 1_555 1_555
C32 C19 1_555 1_555
O21 C33 1_555 1_555
O22 C33 1_555 1_555
C33 C34 1_555 1_555
C34 C35 1_555 1_555
C35 C32 1_555 1_555
C36 C29 1_555 1_555
O25 C43 1_555 1_555
C43 C44 1_555 1_555
C44 C41 1_555 1_555
Sc14 O22 1_555 1_555
Sc21 O21 1_555 1_555
O41 Sc2 1_555 1_555
O45 Sc2 1_555 1_555
Sc4 O19 1_555 1_555
O6 C4 1_555 1_555
C27 C30 1_555 1_555
C34 C36 1_555 1_555
C11 H3 1_555 1_555
C20 H6 1_555 1_555
C15 H10 1_555 1_555
C35 H11 1_555 1_555
C26 H13 1_555 1_555
C36 H15 1_555 1_555
C29 H17 1_555 1_555
C41 H18 1_555 1_555
C32 H19 1_555 1_555
C27 H20 1_555 1_555
Sc1 O10 1_555 1_555
Sc16 O14 1_555 1_555
O13 Sc1 1_555 1_555
O14 C6 1_555 1_555
O15 Sc1 1_555 1_555
O17 Sc16 1_555 1_555
C1 O15 1_555 1_555
C6 O13 1_555 1_555
C16 C17 1_555 1_555
C17 C6 1_555 1_555
C25 C16 1_555 1_555
C28 C31 1_555 1_555
C31 C1 1_555 1_555
C55 C59 1_555 1_555
Sc14 O24 1_555 1_555
O17 C1 1_555 1_555
C5 C31 1_555 1_555
O31 Sc14 1_555 1_555
C5 H4 1_555 1_555
C16 H5 1_555 1_555
C28 H16 1_555 1_555
C38 H21 1_555 1_555
C25 H22 1_555 1_555
C59 H28 1_555 1_555
C55 H31 1_555 1_555
C13 C24 1_555 1_555
O35 Sc11 1_555 1_555
O37 Sc20 1_555 1_555
C49 O35 1_555 1_555
C64 C49 1_555 1_555
O53 Sc20 1_555 1_555
O37 C49 1_555 1_555
C52 C64 1_555 1_555
C62 C64 1_555 1_555
C12 H2 1_555 1_555
C13 H7 1_555 1_555
C24 H9 1_555 1_555
C62 H25 1_555 1_555
C52 H29 1_555 1_555
O23 C37 1_555 1_555
C37 C40 1_555 1_555
Sc14 O30 1_555 1_555
Sc21 O23 1_555 1_555
O29 Sc21 1_555 1_555
O30 C51 1_555 1_555
O32 Sc21 1_555 1_555
O38 C53 1_555 1_555
O39 Sc14 1_555 1_555
O40 Sc21 1_555 1_555
C50 O32 1_555 1_555
C51 O29 1_555 1_555
C53 C63 1_555 1_555
C54 C56 1_555 1_555
C56 C51 1_555 1_555
C57 C56 1_555 1_555
C58 C50 1_555 1_555
C60 C58 1_555 1_555
C61 C60 1_555 1_555
C39 C40 1_555 1_555
Sc21 O39 1_555 1_555
C61 C63 1_555 1_555
C39 H24 1_555 1_555
C61 H26 1_555 1_555
C60 H27 1_555 1_555
C57 H30 1_555 1_555
C54 H32 1_555 1_555

#END
