
###############################################################################
#
# This file contains modified crystal structure data generated from the
# MOF subset of the Cambridge Structural Database (CSD) v543 
# hosted by the Cambridge Crystallographic Data Centre (CCDC).
#
# This work is licensed under the Creative Commons
# Attribution-NonCommercial-ShareAlike 4.0 International License.
# To view a copy of this license, visit
# http://creativecommons.org/licenses/by-nc-sa/4.0/
# or send a letter to
# Creative Commons, PO Box 1866, Mountain View, CA 94042, USA.
#
# CIF created using the CSD Python API on 29 September 2022
# The structure has been converted into the P1 space group
# The structure has a 3D framework
# The original CSD entry ACODAA is in the tetragonal crystal system
# The framework has been calculated to contain at least 10.0% void space
# The void calculation uses a probe of radius 1.32A, grid spacing 0.4
#
###############################################################################

data_ACODAA
_chemical_formula_moiety         '(C14 H8 Fe2 N8)n'
_symmetry_cell_setting           triclinic
_symmetry_space_group_name_H-M   'P 1'
_symmetry_Int_Tables_number      1
_space_group_name_Hall           'P 1'
loop_
_symmetry_equiv_pos_site_id
_symmetry_equiv_pos_as_xyz
1 x,y,z
_cell_length_a                   9.205(2)
_cell_length_b                   9.205(2)
_cell_length_c                   7.2374(19)
_cell_angle_alpha                90
_cell_angle_beta                 90
_cell_angle_gamma                90
_cell_volume                     613.24
loop_
_atom_site_label
_atom_site_type_symbol
_atom_site_fract_x
_atom_site_fract_y
_atom_site_fract_z
N2 N 0.5000 0.3160(10) 0.4056(13)
C3 C 0.5000 0.082(2) 0.5000
C4 C 0.5000 0.1757(14) 0.352(2)
H2 H 0.5000 0.1453 0.2262
N4 N 0.5000 0.3160(10) 0.5944(13)
C6 C 0.5000 0.1757(14) 0.648(2)
H4 H 0.5000 0.1453 0.7738
Fe2 Fe 0.5000 0.5000 0.2500
Fe4 Fe 0.5000 0.5000 0.7500
N1 N 0.5000 0.6840(10) 0.4056(13)
C1 C 0.5000 0.918(2) 0.5000
C2 C 0.5000 0.8243(14) 0.352(2)
H1 H 0.5000 0.8547 0.2262
N3 N 0.5000 0.6840(10) 0.5944(13)
C5 C 0.5000 0.8243(14) 0.648(2)
H3 H 0.5000 0.8547 0.7738
N6 N 0.6840(10) 0.5000 0.0944(13)
N7 N 0.3160(10) 0.5000 0.0944(13)
C1_2 C 0.082(2) 0.5000 0.0000
C5_2 C 0.1757(14) 0.5000 0.148(2)
H3_2 H 0.1453 0.5000 0.2738
N1_2 N 0.3160(10) 0.5000 0.9056(13)
C1_3 C 0.082(2) 0.5000 1.0000
C2_2 C 0.1757(14) 0.5000 0.852(2)
H1_2 H 0.1453 0.5000 0.7262
N5 N 0.6840(10) 0.5000 0.9056(13)
C3_2 C 0.918(2) 0.5000 0.0000
C6_2 C 0.8243(14) 0.5000 0.148(2)
H4_2 H 0.8547 0.5000 0.2738
C3_3 C 0.918(2) 0.5000 1.0000
C4_2 C 0.8243(14) 0.5000 0.852(2)
H2_2 H 0.8547 0.5000 0.7262
loop_
_geom_bond_atom_site_label_1
_geom_bond_atom_site_label_2
_geom_bond_site_symmetry_1
_geom_bond_site_symmetry_2
N2 C4 1_555 1_555
C4 C3 1_555 1_555
H2 C4 1_555 1_555
N4 N2 1_555 1_555
C6 C3 1_555 1_555
H4 C6 1_555 1_555
Fe2 N2 1_555 1_555
Fe4 N4 1_555 1_555
N4 C6 1_555 1_555
Fe2 N1 1_555 1_555
N1 C2 1_555 1_555
C1 C2 1_555 1_555
C2 H1 1_555 1_555
N3 N1 1_555 1_555
C5 C1 1_555 1_555
H3 C5 1_555 1_555
Fe4 N3 1_555 1_555
N6 Fe2 1_555 1_555
N7 Fe2 1_555 1_555
N3 C5 1_555 1_555
C5_2 C1_2 1_555 1_555
H3_2 C5_2 1_555 1_555
N7 C5_2 1_555 1_555
Fe4 N1_2 1_555 1_555
N1_2 C2_2 1_555 1_555
C1_3 C2_2 1_555 1_555
C2_2 H1_2 1_555 1_555
N5 Fe4 1_555 1_555
C6_2 C3_2 1_555 1_555
H4_2 C6_2 1_555 1_555
N6 C6_2 1_555 1_555
N5 C4_2 1_555 1_555
C4_2 C3_3 1_555 1_555
H2_2 C4_2 1_555 1_555

#END
