
###############################################################################
#
# This file contains modified crystal structure data generated from the
# MOF subset of the Cambridge Structural Database (CSD) v543 
# hosted by the Cambridge Crystallographic Data Centre (CCDC).
#
# This work is licensed under the Creative Commons
# Attribution-NonCommercial-ShareAlike 4.0 International License.
# To view a copy of this license, visit
# http://creativecommons.org/licenses/by-nc-sa/4.0/
# or send a letter to
# Creative Commons, PO Box 1866, Mountain View, CA 94042, USA.
#
# CIF created using the CSD Python API on 29 September 2022
# The structure has been converted into the P1 space group
# The structure has a 3D framework
# The original CSD entry ACUHEO is in the triclinic crystal system
# The framework has been calculated to contain at least 10.0% void space
# The void calculation uses a probe of radius 1.32A, grid spacing 0.4
#
###############################################################################

data_ACUHEO
_chemical_formula_moiety         '(C32 H18 Na2 Ni6 O32 S4)n'
_symmetry_cell_setting           triclinic
_symmetry_space_group_name_H-M   'P 1'
_symmetry_Int_Tables_number      1
_space_group_name_Hall           'P 1'
loop_
_symmetry_equiv_pos_site_id
_symmetry_equiv_pos_as_xyz
1 x,y,z
_cell_length_a                   9.8395(17)
_cell_length_b                   11.0019(19)
_cell_length_c                   12.630(2)
_cell_angle_alpha                104.144(4)
_cell_angle_beta                 92.104(4)
_cell_angle_gamma                110.804(3)
_cell_volume                     1227.79
loop_
_atom_site_label
_atom_site_type_symbol
_atom_site_fract_x
_atom_site_fract_y
_atom_site_fract_z
O3 O 0.3589(5) 0.1786(4) 0.0320(4)
O6 O 0.5555(5) 0.1757(5) 0.2211(5)
O17 O 0.1501(5) 0.1850(4) 0.1733(3)
H7 H 0.0697 0.1227 0.2002
Ni1 Ni 0.13280(9) 0.13667(8) 0.00984(7)
Ni2 Ni 0.34647(9) 0.16310(8) 0.20079(7)
Ni3 Ni 0.21651(9) 0.37349(8) 0.26637(7)
H8 H 0.572(6) 0.099(3) 0.215(5)
H9 H 0.625(5) 0.245(3) 0.271(4)
O19 O 0.2245(5) 0.4776(4) 0.1594(4)
O21 O 0.4236(5) 0.3727(4) 0.2471(3)
O22 O 0.3249(5) 0.1615(5) 0.3591(4)
O23 O 0.2296(5) 0.3212(5) 0.4050(4)
O25 O 0.0535(5) 0.4249(5) 0.3339(4)
C9 C 0.4117(7) 0.4045(6) 0.7297(5)
C10 C 0.3873(7) 0.3837(7) 0.6163(5)
H4 H 0.4211 0.4573 0.5871
C11 C 0.3140(7) 0.2564(6) 0.5467(6)
C12 C 0.2640(7) 0.1462(7) 0.5904(6)
H5 H 0.2182 0.0591 0.5440
C13 C 0.2828(7) 0.1669(6) 0.7025(5)
C14 C 0.3566(7) 0.2964(6) 0.7735(6)
H6 H 0.3684 0.3094 0.8494
C15 C 0.4927(7) 0.5444(6) 0.8025(6)
C16 C 0.2878(7) 0.2426(7) 0.4257(5)
O7 O 0.5764(5) 0.6273(4) 0.7529(3)
O8 O 0.4784(5) 0.5726(5) 0.8997(4)
O11 O 0.1127(5) 0.0649(5) 0.8361(4)
O12 O 0.3373(5) 0.0247(5) 0.8213(4)
S1 S 0.2120(2) 0.03116(16) 0.76144(14)
O18 O 0.1673(5) 0.3199(4) 0.9948(4)
Ni7 Ni 0.65353(9) 0.83690(8) 0.79921(7)
Ni11 Ni 0.78349(9) 0.62651(8) 0.73363(7)
C2 C 0.1992(7) 0.6680(6) 0.0544(6)
H1 H 0.2301 0.6981 0.1299
C7 C 0.1942(7) 0.4377(7) 0.0554(6)
C8 C 0.1811(7) 0.8939(6) 0.0566(5)
O4 O 0.0966(5) 0.9387(4) 0.0118(4)
O5 O 0.2762(5) 0.9610(4) 0.1377(4)
C1 C 0.1807(7) 0.5381(6) 0.9964(5)
C3 C 0.1713(7) 0.7542(6) 0.9989(5)
C4 C 0.1315(7) 0.7096(6) 0.8861(5)
H2 H 0.1140 0.7671 0.8490
C5 C 0.1171(7) 0.5807(6) 0.8275(5)
C6 C 0.1386(7) 0.4929(6) 0.8829(5)
H3 H 0.1249 0.4048 0.8445
O13 O 0.1348(6) 0.9118(4) 0.6723(4)
O15 O 0.1916(5) 0.6080(5) 0.6386(4)
O16 O 0.0268(6) 0.3883(5) 0.6448(4)
Na1 Na 0.0174(4) 0.7106(3) 0.5428(2)
S2 S 0.0685(2) 0.53171(17) 0.68483(14)
O20 O 0.9034(5) 0.0613(4) 0.9882(4)
Na3 Na 0.9826(4) 0.2894(3) 0.4572(2)
O14 O 0.9465(5) 0.5751(5) 0.6661(4)
O24 O 0.7704(5) 0.6788(5) 0.5950(4)
O26 O 0.9732(6) 0.6117(5) 0.3552(4)
Ni5 Ni 0.86720(9) 0.86333(8) 0.99016(7)
C1_2 C 0.8193(7) 0.4619(6) 0.0036(5)
C3_2 C 0.8287(7) 0.2458(6) 0.0011(5)
C4_2 C 0.8685(7) 0.2904(6) 0.1139(5)
H2_2 H 0.8860 0.2329 0.1510
C5_2 C 0.8829(7) 0.4193(6) 0.1725(5)
C6_2 C 0.8614(7) 0.5071(6) 0.1171(5)
H3_2 H 0.8751 0.5952 0.1555
O1 O 0.8327(5) 0.6801(4) 0.0052(4)
O13_2 O 0.8652(6) 0.0882(4) 0.3277(4)
O15_2 O 0.8084(5) 0.3920(5) 0.3614(4)
S2_2 S 0.9315(2) 0.46829(17) 0.31517(14)
C2_2 C 0.8008(7) 0.3320(6) 0.9456(6)
H1_2 H 0.7699 0.3019 0.8701
C7_2 C 0.8058(7) 0.5623(7) 0.9446(6)
C8_2 C 0.8189(7) 0.1061(6) 0.9434(5)
O2 O 0.7755(5) 0.5224(4) 0.8406(4)
O5_2 O 0.7238(5) 0.0390(4) 0.8623(4)
C9_2 C 0.5883(7) 0.5955(6) 0.2703(5)
C10_2 C 0.6127(7) 0.6163(7) 0.3837(5)
H4_2 H 0.5789 0.5427 0.4129
C11_2 C 0.6860(7) 0.7436(6) 0.4533(6)
C12_2 C 0.7360(7) 0.8538(7) 0.4096(6)
H5_2 H 0.7818 0.9409 0.4560
C13_2 C 0.7172(7) 0.8331(6) 0.2975(5)
C14_2 C 0.6434(7) 0.7036(6) 0.2265(6)
H6_2 H 0.6316 0.6906 0.1506
C15_2 C 0.5073(7) 0.4556(6) 0.1975(6)
C16_2 C 0.7122(7) 0.7574(7) 0.5743(5)
O8_2 O 0.5216(5) 0.4274(5) 0.1003(4)
O9 O 0.6751(5) 0.8385(5) 0.6409(4)
O11_2 O 0.8873(5) 0.9351(5) 0.1639(4)
O12_2 O 0.6627(5) 0.9753(5) 0.1787(4)
S1_2 S 0.7880(2) 0.96884(16) 0.23856(14)
O3_2 O 0.6411(5) 0.8214(4) 0.9680(4)
O6_2 O 0.4445(5) 0.8243(5) 0.7789(5)
O17_2 O 0.8499(5) 0.8150(4) 0.8267(3)
H7_2 H 0.9303 0.8773 0.7998
H8_2 H 0.428(6) 0.901(3) 0.785(5)
H9_2 H 0.375(5) 0.755(3) 0.729(4)
loop_
_geom_bond_atom_site_label_1
_geom_bond_atom_site_label_2
_geom_bond_site_symmetry_1
_geom_bond_site_symmetry_2
O3 Ni1 1_555 1_555
O6 Ni2 1_555 1_555
O17 H7 1_555 1_555
Ni2 O3 1_555 1_555
Ni3 O17 1_555 1_555
H8 O6 1_555 1_555
H9 O6 1_555 1_555
O19 Ni3 1_555 1_555
O21 Ni2 1_555 1_555
O22 Ni2 1_555 1_555
O23 Ni3 1_555 1_555
O25 Ni3 1_555 1_555
O17 Ni1 1_555 1_555
O17 Ni2 1_555 1_555
Ni3 O21 1_555 1_555
C9 C10 1_555 1_555
C10 H4 1_555 1_555
C11 C10 1_555 1_555
C12 C11 1_555 1_555
H5 C12 1_555 1_555
C13 C12 1_555 1_555
C14 C9 1_555 1_555
H6 C14 1_555 1_555
C15 C9 1_555 1_555
C16 C11 1_555 1_555
O7 C15 1_555 1_555
O8 C15 1_555 1_555
O22 C16 1_555 1_555
O23 C16 1_555 1_555
O11 S1 1_555 1_555
O12 S1 1_555 1_555
S1 C13 1_555 1_555
Ni7 O7 1_555 1_555
Ni11 O7 1_555 1_555
C13 C14 1_555 1_555
C2 H1 1_555 1_555
O19 C7 1_555 1_555
O4 C8 1_555 1_555
O5 C8 1_555 1_555
C4 C3 1_555 1_555
H2 C4 1_555 1_555
C5 C4 1_555 1_555
C6 C1 1_555 1_555
H3 C6 1_555 1_555
O13 Na1 1_555 1_555
O15 Na1 1_555 1_555
O16 S2 1_555 1_555
S2 C5 1_555 1_555
C5 C6 1_555 1_555
O15 S2 1_555 1_555
O24 Ni11 1_555 1_555
Ni11 O14 1_555 1_555
C4_2 C3_2 1_555 1_555
H2_2 C4_2 1_555 1_555
C5_2 C4_2 1_555 1_555
C6_2 C1_2 1_555 1_555
H3_2 C6_2 1_555 1_555
O13_2 Na3 1_555 1_555
O15_2 Na3 1_555 1_555
O26 S2_2 1_555 1_555
S2_2 C5_2 1_555 1_555
C5_2 C6_2 1_555 1_555
O15_2 S2_2 1_555 1_555
C2_2 H1_2 1_555 1_555
O2 C7_2 1_555 1_555
O20 C8_2 1_555 1_555
O5_2 C8_2 1_555 1_555
Ni11 O2 1_555 1_555
C9_2 C10_2 1_555 1_555
C10_2 H4_2 1_555 1_555
C11_2 C10_2 1_555 1_555
C12_2 C11_2 1_555 1_555
H5_2 C12_2 1_555 1_555
C13_2 C12_2 1_555 1_555
C14_2 C9_2 1_555 1_555
H6_2 C14_2 1_555 1_555
C15_2 C9_2 1_555 1_555
C16_2 C11_2 1_555 1_555
O21 C15_2 1_555 1_555
O8_2 C15_2 1_555 1_555
O9 C16_2 1_555 1_555
O24 C16_2 1_555 1_555
O11_2 S1_2 1_555 1_555
O12_2 S1_2 1_555 1_555
S1_2 C13_2 1_555 1_555
Ni7 O9 1_555 1_555
C13_2 C14_2 1_555 1_555
O3_2 Ni5 1_555 1_555
O6_2 Ni7 1_555 1_555
O17_2 H7_2 1_555 1_555
Ni7 O3_2 1_555 1_555
Ni11 O17_2 1_555 1_555
H8_2 O6_2 1_555 1_555
H9_2 O6_2 1_555 1_555
O17_2 Ni5 1_555 1_555
O17_2 Ni7 1_555 1_555

#END
