
###############################################################################
#
# This file contains modified crystal structure data generated from the
# MOF subset of the Cambridge Structural Database (CSD) v543 
# hosted by the Cambridge Crystallographic Data Centre (CCDC).
#
# This work is licensed under the Creative Commons
# Attribution-NonCommercial-ShareAlike 4.0 International License.
# To view a copy of this license, visit
# http://creativecommons.org/licenses/by-nc-sa/4.0/
# or send a letter to
# Creative Commons, PO Box 1866, Mountain View, CA 94042, USA.
#
# CIF created using the CSD Python API on 29 September 2022
# The structure has been converted into the P1 space group
# The structure has a 3D framework
# The original CSD entry ACUXUU is in the monoclinic crystal system
# The framework has been calculated to contain at least 10.0% void space
# The void calculation uses a probe of radius 1.32A, grid spacing 0.4
#
###############################################################################

data_ACUXUU
_chemical_formula_moiety         '(C124 H96 Ag16 O48)n'
_symmetry_cell_setting           triclinic
_symmetry_space_group_name_H-M   'P 1'
_symmetry_Int_Tables_number      1
_space_group_name_Hall           'P 1'
loop_
_symmetry_equiv_pos_site_id
_symmetry_equiv_pos_as_xyz
1 x,y,z
_cell_length_a                   26.064(3)
_cell_length_b                   19.397(2)
_cell_length_c                   11.0996(12)
_cell_angle_alpha                90
_cell_angle_beta                 97.166(2)
_cell_angle_gamma                90
_cell_volume                     5567.72
loop_
_atom_site_label
_atom_site_type_symbol
_atom_site_fract_x
_atom_site_fract_y
_atom_site_fract_z
H9 H 0.3879 0.5958 0.0111
Ag8 Ag 0.28536(2) 0.22557(3) 0.09891(5)
Ag11 Ag 0.25670(3) 0.70681(4) 0.10446(6)
O14 O 0.16135(18) 0.2323(3) 0.0176(4)
O15 O 0.6840(2) 0.3269(3) 0.0022(5)
Ag1 Ag 0.78536(2) 0.27443(3) 0.59891(5)
Ag2 Ag 0.74330(3) 0.29319(4) 0.89554(6)
O1 O 0.7157(2) 0.3132(3) 0.6680(5)
O2 O 0.66135(18) 0.2677(3) 0.5176(4)
O3 O 0.8285(3) 0.3917(4) 0.6432(7)
H1 H 0.8589 0.3907 0.6231
H2 H 0.8300 0.4003 0.7187
O4 O 0.8040(3) 0.4031(4) 0.8844(7)
H3 H 0.8203 0.4109 0.9543
H4 H 0.7854 0.4379 0.8615
C1 C 0.6717(2) 0.3046(4) 0.6104(6)
C2 C 0.6269(2) 0.3429(3) 0.6522(5)
C3 C 0.6360(2) 0.3984(3) 0.7319(5)
H5 H 0.6697 0.4088 0.7647
C4 C 0.5959(2) 0.4378(3) 0.7628(5)
H6 H 0.6028 0.4753 0.8145
C5 C 0.5447(2) 0.4219(3) 0.7168(5)
C6 C 0.5361(2) 0.3644(3) 0.6425(5)
H7 H 0.5023 0.3513 0.6155
C7 C 0.5764(2) 0.3265(3) 0.6081(5)
H8 H 0.5697 0.2896 0.5549
C8 C 0.3744(2) 0.6507(3) 0.8573(6)
C9 C 0.3992(2) 0.6031(3) 0.9359(6)
C10 C 0.4408(2) 0.5660(3) 0.9041(5)
H10 H 0.4579 0.5348 0.9589
C11 C 0.45718(19) 0.5751(3) 0.7905(5)
C12 C 0.4327(2) 0.6240(3) 0.7138(5)
H11 H 0.4443 0.6324 0.6392
C13 C 0.3909(2) 0.6611(4) 0.7461(6)
H12 H 0.3741 0.6929 0.6923
C14 C 0.5000 0.4625(4) 0.7500
C15 C 0.5000 0.5330(4) 0.7500
C16 C 0.3282(2) 0.6889(4) 0.8973(6)
O5 O 0.3160(2) 0.6731(3) 0.9978(5)
O6 O 0.3061(2) 0.7334(3) 0.8263(5)
O7 O 0.2843(2) 0.3132(3) 0.8320(5)
O8 O 0.33865(18) 0.2677(3) 0.9824(4)
C17 C 0.3283(2) 0.3046(4) 0.8896(6)
C18 C 0.3731(2) 0.3429(3) 0.8478(5)
C19 C 0.3640(2) 0.3984(3) 0.7681(5)
H13 H 0.3303 0.4088 0.7353
C20 C 0.4041(2) 0.4378(3) 0.7372(5)
H14 H 0.3972 0.4753 0.6855
C21 C 0.4553(2) 0.4219(3) 0.7832(5)
C22 C 0.4639(2) 0.3644(3) 0.8575(5)
H15 H 0.4977 0.3513 0.8845
C23 C 0.4236(2) 0.3265(3) 0.8919(5)
H16 H 0.4303 0.2896 0.9451
C24 C 0.6256(2) 0.6507(3) 0.6427(6)
C25 C 0.6008(2) 0.6031(3) 0.5641(6)
H17 H 0.6121 0.5958 0.4889
C26 C 0.5592(2) 0.5660(3) 0.5959(5)
H18 H 0.5421 0.5348 0.5411
C27 C 0.54282(19) 0.5751(3) 0.7095(5)
C28 C 0.5673(2) 0.6240(3) 0.7862(5)
H19 H 0.5557 0.6324 0.8608
C29 C 0.6091(2) 0.6611(4) 0.7539(6)
H20 H 0.6259 0.6929 0.8077
C30 C 0.6718(2) 0.6889(4) 0.6027(6)
O9 O 0.6840(2) 0.6731(3) 0.5022(5)
O10 O 0.6939(2) 0.7334(3) 0.6737(5)
Ag3 Ag 0.21464(2) 0.27443(3) 0.90109(5)
Ag4 Ag 0.25670(3) 0.29319(4) 0.60446(6)
O11 O 0.1715(3) 0.3917(4) 0.8568(7)
H21 H 0.1411 0.3907 0.8769
H22 H 0.1700 0.4003 0.7813
O12 O 0.1960(3) 0.4031(4) 0.6156(7)
H23 H 0.1797 0.4109 0.5457
H24 H 0.2146 0.4379 0.6385
Ag5 Ag 0.28536(2) 0.77443(3) 0.59891(5)
Ag6 Ag 0.71464(2) 0.77443(3) 0.90109(5)
Ag7 Ag 0.71464(2) 0.22557(3) 0.40109(5)
Ag9 Ag 0.24330(3) 0.79319(4) 0.89554(6)
Ag10 Ag 0.75670(3) 0.79319(4) 0.60446(6)
Ag12 Ag 0.74330(3) 0.70681(4) 0.39554(6)
O13 O 0.83865(18) 0.2323(3) 0.4824(4)
O16 O 0.3160(2) 0.3269(3) 0.4978(5)
O17 O 0.8061(2) 0.2334(3) 0.8263(5)
O18 O 0.1939(2) 0.2334(3) 0.6737(5)
C15_2 C 0.0000 0.0330(4) 0.7500
C24_2 C 0.1256(2) 0.1507(3) 0.6427(6)
C25_2 C 0.1008(2) 0.1031(3) 0.5641(6)
H17_2 H 0.1121 0.0958 0.4889
C26_2 C 0.0592(2) 0.0660(3) 0.5959(5)
H18_2 H 0.0421 0.0348 0.5411
C27_2 C 0.04282(19) 0.0751(3) 0.7095(5)
C28_2 C 0.0673(2) 0.1240(3) 0.7862(5)
H19_2 H 0.0557 0.1324 0.8608
C29_2 C 0.1091(2) 0.1611(4) 0.7539(6)
H20_2 H 0.1259 0.1929 0.8077
C30_2 C 0.1718(2) 0.1889(4) 0.6027(6)
O9_2 O 0.1840(2) 0.1731(3) 0.5022(5)
Ag12_2 Ag 0.24330(3) 0.20681(4) 0.39554(6)
O15_2 O 0.1840(2) 0.8269(3) 0.0022(5)
O1_2 O 0.2157(2) 0.8132(3) 0.6680(5)
O2_2 O 0.16135(18) 0.7677(3) 0.5176(4)
O3_2 O 0.3285(3) 0.8917(4) 0.6432(7)
H1_2 H 0.3589 0.8907 0.6231
H2_2 H 0.3300 0.9003 0.7187
O4_2 O 0.3040(3) 0.9031(4) 0.8844(7)
H3_2 H 0.3203 0.9109 0.9543
H4_2 H 0.2854 0.9379 0.8615
C1_2 C 0.1717(2) 0.8046(4) 0.6104(6)
C2_2 C 0.1269(2) 0.8429(3) 0.6522(5)
C3_2 C 0.1360(2) 0.8984(3) 0.7319(5)
H5_2 H 0.1697 0.9088 0.7647
C4_2 C 0.0959(2) 0.9378(3) 0.7628(5)
H6_2 H 0.1028 0.9753 0.8145
C5_2 C 0.0447(2) 0.9219(3) 0.7168(5)
C6_2 C 0.0361(2) 0.8644(3) 0.6425(5)
H7_2 H 0.0023 0.8513 0.6155
C7_2 C 0.0764(2) 0.8265(3) 0.6081(5)
H8_2 H 0.0697 0.7896 0.5549
C14_2 C 0.0000 0.9625(4) 0.7500
Ag7_2 Ag 0.21464(2) 0.72557(3) 0.40109(5)
O13_2 O 0.33865(18) 0.7323(3) 0.4824(4)
H9_2 H 0.8879 0.0958 0.0111
Ag11_2 Ag 0.75670(3) 0.20681(4) 0.10446(6)
C8_2 C 0.8744(2) 0.1507(3) 0.8573(6)
C9_2 C 0.8992(2) 0.1031(3) 0.9359(6)
C10_2 C 0.9408(2) 0.0660(3) 0.9041(5)
H10_2 H 0.9579 0.0348 0.9589
C11_2 C 0.95718(19) 0.0751(3) 0.7905(5)
C12_2 C 0.9327(2) 0.1240(3) 0.7138(5)
H11_2 H 0.9443 0.1324 0.6392
C13_2 C 0.8909(2) 0.1611(4) 0.7461(6)
H12_2 H 0.8741 0.1929 0.6923
C15_3 C 1.0000 0.0330(4) 0.7500
C16_2 C 0.8282(2) 0.1889(4) 0.8973(6)
O5_2 O 0.8160(2) 0.1731(3) 0.9978(5)
Ag8_2 Ag 0.78536(2) 0.72557(3) 0.09891(5)
O14_2 O 0.66135(18) 0.7323(3) 0.0176(4)
C14_3 C 1.0000 0.9625(4) 0.7500
O7_2 O 0.7843(2) 0.8132(3) 0.8320(5)
O8_2 O 0.83865(18) 0.7677(3) 0.9824(4)
C17_2 C 0.8283(2) 0.8046(4) 0.8896(6)
C18_2 C 0.8731(2) 0.8429(3) 0.8478(5)
C19_2 C 0.8640(2) 0.8984(3) 0.7681(5)
H13_2 H 0.8303 0.9088 0.7353
C20_2 C 0.9041(2) 0.9378(3) 0.7372(5)
H14_2 H 0.8972 0.9753 0.6855
C21_2 C 0.9553(2) 0.9219(3) 0.7832(5)
C22_2 C 0.9639(2) 0.8644(3) 0.8575(5)
H15_2 H 0.9977 0.8513 0.8845
C23_2 C 0.9236(2) 0.8265(3) 0.8919(5)
H16_2 H 0.9303 0.7896 0.9451
O11_2 O 0.6715(3) 0.8917(4) 0.8568(7)
H21_2 H 0.6411 0.8907 0.8769
H22_2 H 0.6700 0.9003 0.7813
O12_2 O 0.6960(3) 0.9031(4) 0.6156(7)
H23_2 H 0.6797 0.9109 0.5457
H24_2 H 0.7146 0.9379 0.6385
O16_2 O 0.8160(2) 0.8269(3) 0.4978(5)
O1_3 O 0.2843(2) 0.6868(3) 0.3320(5)
O3_3 O 0.1715(3) 0.6083(4) 0.3568(7)
H1_3 H 0.1411 0.6093 0.3769
H2_3 H 0.1700 0.5997 0.2813
O4_3 O 0.1960(3) 0.5969(4) 0.1156(7)
H3_3 H 0.1797 0.5891 0.0457
H4_3 H 0.2146 0.5621 0.1385
C1_3 C 0.3283(2) 0.6954(4) 0.3896(6)
C2_3 C 0.3731(2) 0.6571(3) 0.3478(5)
C3_3 C 0.3640(2) 0.6016(3) 0.2681(5)
H5_3 H 0.3303 0.5912 0.2353
C4_3 C 0.4041(2) 0.5622(3) 0.2372(5)
H6_3 H 0.3972 0.5247 0.1855
C5_3 C 0.4553(2) 0.5781(3) 0.2832(5)
C6_3 C 0.4639(2) 0.6356(3) 0.3575(5)
H7_3 H 0.4977 0.6487 0.3845
C7_3 C 0.4236(2) 0.6735(3) 0.3919(5)
H8_3 H 0.4303 0.7104 0.4451
C8_3 C 0.6256(2) 0.3493(3) 0.1427(6)
C9_3 C 0.6008(2) 0.3969(3) 0.0641(6)
C10_3 C 0.5592(2) 0.4340(3) 0.0959(5)
H10_3 H 0.5421 0.4652 0.0411
C11_3 C 0.54282(19) 0.4249(3) 0.2095(5)
C12_3 C 0.5673(2) 0.3760(3) 0.2862(5)
H11_3 H 0.5557 0.3676 0.3608
C13_3 C 0.6091(2) 0.3389(4) 0.2539(6)
H12_3 H 0.6259 0.3071 0.3077
C14_4 C 0.5000 0.5375(4) 0.2500
C15_4 C 0.5000 0.4670(4) 0.2500
C16_3 C 0.6718(2) 0.3111(4) 0.1027(6)
O6_2 O 0.6939(2) 0.2666(3) 0.1737(5)
O7_3 O 0.7157(2) 0.6868(3) 0.1680(5)
C17_3 C 0.6717(2) 0.6954(4) 0.1104(6)
C18_3 C 0.6269(2) 0.6571(3) 0.1522(5)
C19_3 C 0.6360(2) 0.6016(3) 0.2319(5)
H13_3 H 0.6697 0.5912 0.2647
C20_3 C 0.5959(2) 0.5622(3) 0.2628(5)
H14_3 H 0.6028 0.5247 0.3145
C21_3 C 0.5447(2) 0.5781(3) 0.2168(5)
C22_3 C 0.5361(2) 0.6356(3) 0.1425(5)
H15_3 H 0.5023 0.6487 0.1155
C23_3 C 0.5764(2) 0.6735(3) 0.1081(5)
H16_3 H 0.5697 0.7104 0.0549
C24_3 C 0.3744(2) 0.3493(3) 0.3573(6)
C25_3 C 0.3992(2) 0.3969(3) 0.4359(6)
H17_3 H 0.3879 0.4042 0.5111
C26_3 C 0.4408(2) 0.4340(3) 0.4041(5)
H18_3 H 0.4579 0.4652 0.4589
C27_3 C 0.45718(19) 0.4249(3) 0.2905(5)
C28_3 C 0.4327(2) 0.3760(3) 0.2138(5)
H19_3 H 0.4443 0.3676 0.1392
C29_3 C 0.3909(2) 0.3389(4) 0.2461(6)
H20_3 H 0.3741 0.3071 0.1923
C30_3 C 0.3282(2) 0.3111(4) 0.3973(6)
O10_2 O 0.3061(2) 0.2666(3) 0.3263(5)
O11_3 O 0.8285(3) 0.6083(4) 0.1432(7)
H21_3 H 0.8589 0.6093 0.1231
H22_3 H 0.8300 0.5997 0.2187
O12_3 O 0.8040(3) 0.5969(4) 0.3844(7)
H23_3 H 0.8203 0.5891 0.4543
H24_3 H 0.7854 0.5621 0.3615
O17_2 O 0.1939(2) 0.7666(3) 0.1737(5)
O18_2 O 0.8061(2) 0.7666(3) 0.3263(5)
H9_3 H 0.6121 0.4042 0.9889
C14_5 C 0.0000 0.0375(4) 0.2500
O7_4 O 0.2157(2) 0.1868(3) 0.1680(5)
C17_4 C 0.1717(2) 0.1954(4) 0.1104(6)
C18_4 C 0.1269(2) 0.1571(3) 0.1522(5)
C19_4 C 0.1360(2) 0.1016(3) 0.2319(5)
H13_4 H 0.1697 0.0912 0.2647
C20_4 C 0.0959(2) 0.0622(3) 0.2628(5)
H14_4 H 0.1028 0.0247 0.3145
C21_4 C 0.0447(2) 0.0781(3) 0.2168(5)
C22_4 C 0.0361(2) 0.1356(3) 0.1425(5)
H15_4 H 0.0023 0.1487 0.1155
C23_4 C 0.0764(2) 0.1735(3) 0.1081(5)
H16_4 H 0.0697 0.2104 0.0549
O11_4 O 0.3285(3) 0.1083(4) 0.1432(7)
H21_4 H 0.3589 0.1093 0.1231
H22_4 H 0.3300 0.0997 0.2187
O12_4 O 0.3040(3) 0.0969(4) 0.3844(7)
H23_4 H 0.3203 0.0891 0.4543
H24_4 H 0.2854 0.0621 0.3615
C8_4 C 0.1256(2) 0.8493(3) 0.1427(6)
C9_4 C 0.1008(2) 0.8969(3) 0.0641(6)
C10_4 C 0.0592(2) 0.9340(3) 0.0959(5)
H10_4 H 0.0421 0.9652 0.0411
C11_4 C 0.04282(19) 0.9249(3) 0.2095(5)
C12_4 C 0.0673(2) 0.8760(3) 0.2862(5)
H11_4 H 0.0557 0.8676 0.3608
C13_4 C 0.1091(2) 0.8389(4) 0.2539(6)
H12_4 H 0.1259 0.8071 0.3077
C15_5 C 0.0000 0.9670(4) 0.2500
C16_4 C 0.1718(2) 0.8111(4) 0.1027(6)
H9_4 H 0.1121 0.9042 0.9889
O1_4 O 0.7843(2) 0.1868(3) 0.3320(5)
O3_4 O 0.6715(3) 0.1083(4) 0.3568(7)
H1_4 H 0.6411 0.1093 0.3769
H2_4 H 0.6700 0.0997 0.2813
O4_4 O 0.6960(3) 0.0969(4) 0.1156(7)
H3_4 H 0.6797 0.0891 0.0457
H4_4 H 0.7146 0.0621 0.1385
C1_4 C 0.8283(2) 0.1954(4) 0.3896(6)
C2_4 C 0.8731(2) 0.1571(3) 0.3478(5)
C3_4 C 0.8640(2) 0.1016(3) 0.2681(5)
H5_4 H 0.8303 0.0912 0.2353
C4_4 C 0.9041(2) 0.0622(3) 0.2372(5)
H6_4 H 0.8972 0.0247 0.1855
C5_4 C 0.9553(2) 0.0781(3) 0.2832(5)
C6_4 C 0.9639(2) 0.1356(3) 0.3575(5)
H7_4 H 0.9977 0.1487 0.3845
C7_4 C 0.9236(2) 0.1735(3) 0.3919(5)
H8_4 H 0.9303 0.2104 0.4451
C14_6 C 1.0000 0.0375(4) 0.2500
C15_6 C 1.0000 0.9670(4) 0.2500
C24_4 C 0.8744(2) 0.8493(3) 0.3573(6)
C25_4 C 0.8992(2) 0.8969(3) 0.4359(6)
H17_4 H 0.8879 0.9042 0.5111
C26_4 C 0.9408(2) 0.9340(3) 0.4041(5)
H18_4 H 0.9579 0.9652 0.4589
C27_4 C 0.95718(19) 0.9249(3) 0.2905(5)
C28_4 C 0.9327(2) 0.8760(3) 0.2138(5)
H19_4 H 0.9443 0.8676 0.1392
C29_4 C 0.8909(2) 0.8389(4) 0.2461(6)
H20_4 H 0.8741 0.8071 0.1923
C30_4 C 0.8282(2) 0.8111(4) 0.3973(6)
loop_
_geom_bond_atom_site_label_1
_geom_bond_atom_site_label_2
_geom_bond_site_symmetry_1
_geom_bond_site_symmetry_2
Ag1 O1 1_555 1_555
Ag2 O1 1_555 1_555
O1 C1 1_555 1_555
O2 C1 1_555 1_555
O3 Ag1 1_555 1_555
H1 O3 1_555 1_555
H2 O3 1_555 1_555
O4 Ag2 1_555 1_555
H3 O4 1_555 1_555
H4 O4 1_555 1_555
C1 C2 1_555 1_555
C2 C3 1_555 1_555
C3 H5 1_555 1_555
C4 C3 1_555 1_555
H6 C4 1_555 1_555
C5 C4 1_555 1_555
C6 C5 1_555 1_555
H7 C6 1_555 1_555
C7 C2 1_555 1_555
H8 C7 1_555 1_555
C8 C9 1_555 1_555
C10 C9 1_555 1_555
H10 C10 1_555 1_555
C11 C10 1_555 1_555
C12 C11 1_555 1_555
H11 C12 1_555 1_555
C13 C8 1_555 1_555
H12 C13 1_555 1_555
C14 C5 1_555 1_555
C15 C11 1_555 1_555
C16 C8 1_555 1_555
O5 C16 1_555 1_555
O6 C16 1_555 1_555
O7 C17 1_555 1_555
O8 C17 1_555 1_555
C17 C18 1_555 1_555
C18 C19 1_555 1_555
C19 H13 1_555 1_555
C20 C19 1_555 1_555
H14 C20 1_555 1_555
C21 C14 1_555 1_555
C22 C21 1_555 1_555
H15 C22 1_555 1_555
C23 C18 1_555 1_555
H16 C23 1_555 1_555
C24 C25 1_555 1_555
C25 H17 1_555 1_555
C26 C25 1_555 1_555
H18 C26 1_555 1_555
C27 C15 1_555 1_555
C28 C27 1_555 1_555
H19 C28 1_555 1_555
C29 C24 1_555 1_555
H20 C29 1_555 1_555
C30 C24 1_555 1_555
O9 C30 1_555 1_555
O10 C30 1_555 1_555
Ag3 O7 1_555 1_555
Ag4 O7 1_555 1_555
O11 Ag3 1_555 1_555
H21 O11 1_555 1_555
H22 O11 1_555 1_555
O12 Ag4 1_555 1_555
H23 O12 1_555 1_555
H24 O12 1_555 1_555
Ag5 O6 1_555 1_555
Ag6 O10 1_555 1_555
Ag7 O2 1_555 1_555
Ag9 O6 1_555 1_555
Ag10 O10 1_555 1_555
Ag12 O9 1_555 1_555
O13 Ag1 1_555 1_555
O16 Ag4 1_555 1_555
O17 Ag1 1_555 1_555
O18 Ag3 1_555 1_555
Ag2 O17 1_555 1_555
C6 C7 1_555 1_555
C12 C13 1_555 1_555
C14 C15 1_555 1_555
C20 C21 1_555 1_555
C22 C23 1_555 1_555
C26 C27 1_555 1_555
C28 C29 1_555 1_555
Ag4 O18 1_555 1_555
C24_2 C25_2 1_555 1_555
C25_2 H17_2 1_555 1_555
C26_2 C25_2 1_555 1_555
H18_2 C26_2 1_555 1_555
C27_2 C15_2 1_555 1_555
C28_2 C27_2 1_555 1_555
H19_2 C28_2 1_555 1_555
C29_2 C24_2 1_555 1_555
H20_2 C29_2 1_555 1_555
C30_2 C24_2 1_555 1_555
O9_2 C30_2 1_555 1_555
O18 C30_2 1_555 1_555
Ag12_2 O9_2 1_555 1_555
C26_2 C27_2 1_555 1_555
C28_2 C29_2 1_555 1_555
Ag5 O1_2 1_555 1_555
Ag9 O1_2 1_555 1_555
O1_2 C1_2 1_555 1_555
O2_2 C1_2 1_555 1_555
O3_2 Ag5 1_555 1_555
H1_2 O3_2 1_555 1_555
H2_2 O3_2 1_555 1_555
O4_2 Ag9 1_555 1_555
H3_2 O4_2 1_555 1_555
H4_2 O4_2 1_555 1_555
C1_2 C2_2 1_555 1_555
C2_2 C3_2 1_555 1_555
C3_2 H5_2 1_555 1_555
C4_2 C3_2 1_555 1_555
H6_2 C4_2 1_555 1_555
C5_2 C4_2 1_555 1_555
C6_2 C5_2 1_555 1_555
H7_2 C6_2 1_555 1_555
C7_2 C2_2 1_555 1_555
H8_2 C7_2 1_555 1_555
C14_2 C5_2 1_555 1_555
Ag7_2 O2_2 1_555 1_555
O13_2 Ag5 1_555 1_555
C6_2 C7_2 1_555 1_555
C8_2 C9_2 1_555 1_555
C10_2 C9_2 1_555 1_555
H10_2 C10_2 1_555 1_555
C11_2 C10_2 1_555 1_555
C12_2 C11_2 1_555 1_555
H11_2 C12_2 1_555 1_555
C13_2 C8_2 1_555 1_555
H12_2 C13_2 1_555 1_555
C15_3 C11_2 1_555 1_555
C16_2 C8_2 1_555 1_555
O5_2 C16_2 1_555 1_555
O17 C16_2 1_555 1_555
C12_2 C13_2 1_555 1_555
O7_2 C17_2 1_555 1_555
O8_2 C17_2 1_555 1_555
C17_2 C18_2 1_555 1_555
C18_2 C19_2 1_555 1_555
C19_2 H13_2 1_555 1_555
C20_2 C19_2 1_555 1_555
H14_2 C20_2 1_555 1_555
C21_2 C14_3 1_555 1_555
C22_2 C21_2 1_555 1_555
H15_2 C22_2 1_555 1_555
C23_2 C18_2 1_555 1_555
H16_2 C23_2 1_555 1_555
Ag6 O7_2 1_555 1_555
Ag10 O7_2 1_555 1_555
O11_2 Ag6 1_555 1_555
H21_2 O11_2 1_555 1_555
H22_2 O11_2 1_555 1_555
O12_2 Ag10 1_555 1_555
H23_2 O12_2 1_555 1_555
H24_2 O12_2 1_555 1_555
O16_2 Ag10 1_555 1_555
C20_2 C21_2 1_555 1_555
C22_2 C23_2 1_555 1_555
Ag7_2 O1_3 1_555 1_555
Ag11 O1_3 1_555 1_555
O1_3 C1_3 1_555 1_555
O13_2 C1_3 1_555 1_555
O3_3 Ag7_2 1_555 1_555
H1_3 O3_3 1_555 1_555
H2_3 O3_3 1_555 1_555
O4_3 Ag11 1_555 1_555
H3_3 O4_3 1_555 1_555
H4_3 O4_3 1_555 1_555
C1_3 C2_3 1_555 1_555
C2_3 C3_3 1_555 1_555
C3_3 H5_3 1_555 1_555
C4_3 C3_3 1_555 1_555
H6_3 C4_3 1_555 1_555
C5_3 C4_3 1_555 1_555
C6_3 C5_3 1_555 1_555
H7_3 C6_3 1_555 1_555
C7_3 C2_3 1_555 1_555
H8_3 C7_3 1_555 1_555
C8_3 C9_3 1_555 1_555
C10_3 C9_3 1_555 1_555
H10_3 C10_3 1_555 1_555
C11_3 C10_3 1_555 1_555
C12_3 C11_3 1_555 1_555
H11_3 C12_3 1_555 1_555
C13_3 C8_3 1_555 1_555
H12_3 C13_3 1_555 1_555
C14_4 C5_3 1_555 1_555
C15_4 C11_3 1_555 1_555
C16_3 C8_3 1_555 1_555
O15 C16_3 1_555 1_555
O6_2 C16_3 1_555 1_555
O7_3 C17_3 1_555 1_555
O14_2 C17_3 1_555 1_555
C17_3 C18_3 1_555 1_555
C18_3 C19_3 1_555 1_555
C19_3 H13_3 1_555 1_555
C20_3 C19_3 1_555 1_555
H14_3 C20_3 1_555 1_555
C21_3 C14_4 1_555 1_555
C22_3 C21_3 1_555 1_555
H15_3 C22_3 1_555 1_555
C23_3 C18_3 1_555 1_555
H16_3 C23_3 1_555 1_555
C24_3 C25_3 1_555 1_555
C25_3 H17_3 1_555 1_555
C26_3 C25_3 1_555 1_555
H18_3 C26_3 1_555 1_555
C27_3 C15_4 1_555 1_555
C28_3 C27_3 1_555 1_555
H19_3 C28_3 1_555 1_555
C29_3 C24_3 1_555 1_555
H20_3 C29_3 1_555 1_555
C30_3 C24_3 1_555 1_555
O16 C30_3 1_555 1_555
O10_2 C30_3 1_555 1_555
Ag8_2 O7_3 1_555 1_555
Ag12 O7_3 1_555 1_555
O11_3 Ag8_2 1_555 1_555
H21_3 O11_3 1_555 1_555
H22_3 O11_3 1_555 1_555
O12_3 Ag12 1_555 1_555
H23_3 O12_3 1_555 1_555
H24_3 O12_3 1_555 1_555
Ag7 O6_2 1_555 1_555
Ag8 O10_2 1_555 1_555
Ag11_2 O6_2 1_555 1_555
Ag12_2 O10_2 1_555 1_555
O17_2 Ag7_2 1_555 1_555
O18_2 Ag8_2 1_555 1_555
Ag11 O17_2 1_555 1_555
C6_3 C7_3 1_555 1_555
C12_3 C13_3 1_555 1_555
C14_4 C15_4 1_555 1_555
C20_3 C21_3 1_555 1_555
C22_3 C23_3 1_555 1_555
C26_3 C27_3 1_555 1_555
C28_3 C29_3 1_555 1_555
Ag12 O18_2 1_555 1_555
O7_4 C17_4 1_555 1_555
O14 C17_4 1_555 1_555
C17_4 C18_4 1_555 1_555
C18_4 C19_4 1_555 1_555
C19_4 H13_4 1_555 1_555
C20_4 C19_4 1_555 1_555
H14_4 C20_4 1_555 1_555
C21_4 C14_5 1_555 1_555
C22_4 C21_4 1_555 1_555
H15_4 C22_4 1_555 1_555
C23_4 C18_4 1_555 1_555
H16_4 C23_4 1_555 1_555
Ag8 O7_4 1_555 1_555
Ag12_2 O7_4 1_555 1_555
O11_4 Ag8 1_555 1_555
H21_4 O11_4 1_555 1_555
H22_4 O11_4 1_555 1_555
O12_4 Ag12_2 1_555 1_555
H23_4 O12_4 1_555 1_555
H24_4 O12_4 1_555 1_555
C20_4 C21_4 1_555 1_555
C22_4 C23_4 1_555 1_555
C8_4 C9_4 1_555 1_555
C10_4 C9_4 1_555 1_555
H10_4 C10_4 1_555 1_555
C11_4 C10_4 1_555 1_555
C12_4 C11_4 1_555 1_555
H11_4 C12_4 1_555 1_555
C13_4 C8_4 1_555 1_555
H12_4 C13_4 1_555 1_555
C15_5 C11_4 1_555 1_555
C16_4 C8_4 1_555 1_555
O15_2 C16_4 1_555 1_555
O17_2 C16_4 1_555 1_555
C12_4 C13_4 1_555 1_555
Ag7 O1_4 1_555 1_555
Ag11_2 O1_4 1_555 1_555
O1_4 C1_4 1_555 1_555
O13 C1_4 1_555 1_555
O3_4 Ag7 1_555 1_555
H1_4 O3_4 1_555 1_555
H2_4 O3_4 1_555 1_555
O4_4 Ag11_2 1_555 1_555
H3_4 O4_4 1_555 1_555
H4_4 O4_4 1_555 1_555
C1_4 C2_4 1_555 1_555
C2_4 C3_4 1_555 1_555
C3_4 H5_4 1_555 1_555
C4_4 C3_4 1_555 1_555
H6_4 C4_4 1_555 1_555
C5_4 C4_4 1_555 1_555
C6_4 C5_4 1_555 1_555
H7_4 C6_4 1_555 1_555
C7_4 C2_4 1_555 1_555
H8_4 C7_4 1_555 1_555
C14_6 C5_4 1_555 1_555
C6_4 C7_4 1_555 1_555
C24_4 C25_4 1_555 1_555
C25_4 H17_4 1_555 1_555
C26_4 C25_4 1_555 1_555
H18_4 C26_4 1_555 1_555
C27_4 C15_6 1_555 1_555
C28_4 C27_4 1_555 1_555
H19_4 C28_4 1_555 1_555
C29_4 C24_4 1_555 1_555
H20_4 C29_4 1_555 1_555
C30_4 C24_4 1_555 1_555
O16_2 C30_4 1_555 1_555
O18_2 C30_4 1_555 1_555
C26_4 C27_4 1_555 1_555
C28_4 C29_4 1_555 1_555

#END
