
###############################################################################
#
# This file contains modified crystal structure data generated from the
# MOF subset of the Cambridge Structural Database (CSD) v543 
# hosted by the Cambridge Crystallographic Data Centre (CCDC).
#
# This work is licensed under the Creative Commons
# Attribution-NonCommercial-ShareAlike 4.0 International License.
# To view a copy of this license, visit
# http://creativecommons.org/licenses/by-nc-sa/4.0/
# or send a letter to
# Creative Commons, PO Box 1866, Mountain View, CA 94042, USA.
#
# CIF created using the CSD Python API on 29 September 2022
# The structure has been converted into the P1 space group
# The structure has a 3D framework
# The original CSD entry ACUYAB is in the monoclinic crystal system
# The framework has been calculated to contain at least 10.0% void space
# The void calculation uses a probe of radius 1.32A, grid spacing 0.4
#
###############################################################################

data_ACUYAB
_chemical_formula_moiety         '(C120 H64 Ag16 O28)n'
_symmetry_cell_setting           triclinic
_symmetry_space_group_name_H-M   'P 1'
_symmetry_Int_Tables_number      1
_space_group_name_Hall           'P 1'
loop_
_symmetry_equiv_pos_site_id
_symmetry_equiv_pos_as_xyz
1 x,y,z
_cell_length_a                   11.2473(3)
_cell_length_b                   18.5148(6)
_cell_length_c                   26.3786(8)
_cell_angle_alpha                90
_cell_angle_beta                 97.2988(13)
_cell_angle_gamma                90
_cell_volume                     5448.61
loop_
_atom_site_label
_atom_site_type_symbol
_atom_site_fract_x
_atom_site_fract_y
_atom_site_fract_z
Ag1 Ag 0.62643(9) 0.28925(7) 0.26588(4)
O1 O 0.5150(7) 0.3351(5) 0.3182(3)
C1 C 0.4134(9) 0.3179(6) 0.3287(4)
O2 O 0.3406(7) 0.2765(4) 0.3016(3)
C2 C 0.3716(9) 0.3504(6) 0.3751(4)
O3 O 0.5046(8) 0.1967(5) 0.1748(4)
Ag2 Ag 0.40107(9) 0.22691(7) 0.23455(4)
Ag3 Ag 0.13271(11) 0.21682(9) 0.29422(5)
C3 C 0.4451(9) 0.4018(6) 0.4021(4)
C4 C 0.2651(10) 0.3325(6) 0.3929(4)
O4 O 0.1941(7) 0.1797(5) 0.2220(3)
O5 O 0.0064(7) 0.2538(4) 0.3482(3)
H1 H 0.5205 0.4133 0.3915
C5 C 0.4100(9) 0.4359(5) 0.4437(4)
C6 C 0.2301(10) 0.3676(6) 0.4352(4)
H2 H 0.2154 0.2959 0.3761
H3 H 0.4625 0.4695 0.4622
C7 C 0.2984(8) 0.4221(5) 0.4596(3)
H4 H 0.1576 0.3537 0.4475
C8 C 0.2528(7) 0.4633(5) 0.5009(3)
C9 C 0.2163(8) 0.4204(5) 0.5444(3)
C10 C 0.2429(7) 0.5379(5) 0.4989(3)
C11 C 0.2931(9) 0.3696(6) 0.5687(4)
C12 C 0.1030(9) 0.4279(5) 0.5598(4)
C13 C 0.2073(8) 0.5818(5) 0.5419(3)
C14 C 0.2708(8) 0.5779(5) 0.4530(3)
C15 C 0.2608(10) 0.3301(6) 0.6084(4)
H5 H 0.3693 0.3620 0.5576
H6 H 0.0462 0.4599 0.5419
C16 C 0.0730(9) 0.3888(6) 0.6012(4)
C17 C 0.2471(8) 0.5694(5) 0.5929(3)
C18 C 0.1348(8) 0.6427(5) 0.5312(4)
C19 C 0.3509(8) 0.6370(5) 0.4586(4)
C20 C 0.2195(9) 0.5595(5) 0.4033(4)
C21 C 0.1525(9) 0.3392(6) 0.6256(4)
H7 H 0.3152 0.2954 0.6246
C22 C 0.2132(9) 0.6092(6) 0.6318(4)
H9 H 0.3014 0.5306 0.6012
H10 H 0.1110 0.6559 0.4966
C23 C 0.0971(9) 0.6840(6) 0.5695(4)
C24 C 0.3817(9) 0.6706(6) 0.4151(4)
H11 H 0.3832 0.6534 0.4916
H12 H 0.1624 0.5215 0.3985
C25 C 0.2508(9) 0.5955(6) 0.3620(4)
C26 C 0.1127(11) 0.2995(7) 0.6691(5)
C27 C 0.1338(9) 0.6679(5) 0.6197(4)
H13 H 0.2421 0.5979 0.6663
H14 H 0.0454 0.7240 0.5610
C28 C 0.3317(9) 0.6494(6) 0.3669(4)
H15 H 0.4381 0.7090 0.4186
H16 H 0.2145 0.5823 0.3288
O6 O 0.1901(7) 0.2655(5) 0.6999(3)
C29 C 0.0900(10) 0.7113(6) 0.6615(4)
C30 C 0.3746(10) 0.6844(6) 0.3201(4)
O7 O 0.5262(7) 0.2894(5) 0.6746(3)
Ag4 Ag 0.41032(10) 0.27075(9) 0.73215(4)
O8 O 0.1547(7) 0.7095(4) 0.7048(3)
O9 O 0.0046(8) 0.3033(5) 0.6748(4)
Ag5 Ag 0.12643(9) 0.21075(7) 0.76588(4)
O11 O 0.4738(7) 0.7106(5) 0.3254(3)
O12 O 0.3059(7) 0.6797(5) 0.2780(3)
O13 O 0.3453(7) 0.2095(4) 0.7952(3)
O14 O 0.0150(7) 0.1649(5) 0.8182(3)
Ag7 Ag 0.37357(9) 0.71075(7) 0.73412(4)
Ag8 Ag 0.08968(10) 0.77075(9) 0.76785(4)
Ag10 Ag 0.58968(10) 0.72925(9) 0.26785(4)
Ag11 Ag 0.36729(11) 0.71682(9) 0.20578(5)
Ag12 Ag 0.09893(9) 0.72691(7) 0.26545(4)
H8 H 0.9975 0.3962 0.6129
Ag6 Ag 0.90107(9) 0.27309(7) 0.73455(4)
O10 O 0.9936(7) 0.7462(4) 0.6518(3)
Ag9 Ag 0.86729(11) 0.78318(9) 0.70578(5)
C10_2 C 0.2571(7) 0.0379(5) 0.0011(3)
C14_2 C 0.2292(8) 0.0779(5) 0.0470(3)
C19_2 C 0.1491(8) 0.1370(5) 0.0414(4)
C20_2 C 0.2805(9) 0.0595(5) 0.0967(4)
H10_2 H 0.3890 0.1559 0.0034
C24_2 C 0.1183(9) 0.1706(6) 0.0849(4)
H11_2 H 0.1168 0.1534 0.0084
H12_2 H 0.3376 0.0215 0.1015
C25_2 C 0.2492(9) 0.0955(6) 0.1380(4)
C28_2 C 0.1683(9) 0.1494(6) 0.1331(4)
H15_2 H 0.0619 0.2090 0.0814
H16_2 H 0.2855 0.0823 0.1712
C30_2 C 0.1254(10) 0.1844(6) 0.1799(4)
O11_2 O 0.0262(7) 0.2106(5) 0.1746(3)
C13_2 C 0.2927(8) 0.0818(5) 0.9581(3)
C17_2 C 0.2529(8) 0.0694(5) 0.9071(3)
C18_2 C 0.3652(8) 0.1427(5) 0.9688(4)
C22_2 C 0.2868(9) 0.1092(6) 0.8682(4)
H9_2 H 0.1986 0.0306 0.8988
C23_2 C 0.4029(9) 0.1840(6) 0.9305(4)
C27_2 C 0.3662(9) 0.1679(5) 0.8803(4)
H13_2 H 0.2579 0.0979 0.8337
H14_2 H 0.4546 0.2240 0.9390
C29_2 C 0.4100(10) 0.2113(6) 0.8385(4)
O10_2 O 0.5064(7) 0.2462(4) 0.8482(3)
Ag9_2 Ag 0.63271(11) 0.28318(9) 0.79422(5)
C1_2 C 0.0866(9) 0.8179(6) 0.1713(4)
O2_2 O 0.1594(7) 0.7765(4) 0.1984(3)
C2_2 C 0.1284(9) 0.8504(6) 0.1249(4)
C3_2 C 0.0549(9) 0.9018(6) 0.0979(4)
C4_2 C 0.2349(10) 0.8325(6) 0.1071(4)
O5_2 O 0.4936(7) 0.7538(4) 0.1518(3)
C5_2 C 0.0900(9) 0.9359(5) 0.0563(4)
C6_2 C 0.2699(10) 0.8676(6) 0.0648(4)
H2_2 H 0.2846 0.7959 0.1239
H3_2 H 0.0375 0.9695 0.0378
C7_2 C 0.2016(8) 0.9221(5) 0.0404(3)
H4_2 H 0.3424 0.8537 0.0525
C8_2 C 0.2472(7) 0.9633(5) 0.9991(3)
C9_2 C 0.2837(8) 0.9204(5) 0.9556(3)
C11_2 C 0.2069(9) 0.8696(6) 0.9313(4)
C12_2 C 0.3970(9) 0.9279(5) 0.9402(4)
C15_2 C 0.2392(10) 0.8301(6) 0.8916(4)
H5_2 H 0.1307 0.8620 0.9424
H6_2 H 0.4538 0.9599 0.9581
C16_2 C 0.4270(9) 0.8888(6) 0.8988(4)
C21_2 C 0.3475(9) 0.8392(6) 0.8744(4)
H7_2 H 0.1848 0.7954 0.8754
H8_2 H 0.5025 0.8962 0.8871
C26_2 C 0.3873(11) 0.7995(7) 0.8309(5)
O6_2 O 0.3099(7) 0.7655(5) 0.8001(3)
O9_2 O 0.4954(8) 0.8033(5) 0.8252(4)
Ag6_2 Ag 0.59893(9) 0.77309(7) 0.76545(4)
O14_2 O 0.4850(7) 0.6649(5) 0.6818(3)
Ag10_2 Ag 0.91032(10) 0.22925(9) 0.23215(4)
Ag1_2 Ag 0.87357(9) 0.78925(7) 0.23412(4)
O1_2 O 0.9850(7) 0.8351(5) 0.1818(3)
O3_2 O 0.9954(8) 0.6967(5) 0.3252(4)
H1_2 H 0.9795 0.9133 0.1085
O7_2 O 0.9738(7) 0.7894(5) 0.8254(3)
H8_3 H 0.0025 0.6038 0.3871
C1_3 C 0.5866(9) 0.6821(6) 0.6713(4)
O2_3 O 0.6594(7) 0.7235(4) 0.6984(3)
C2_3 C 0.6284(9) 0.6496(6) 0.6249(4)
C3_3 C 0.5549(9) 0.5982(6) 0.5979(4)
C4_3 C 0.7349(10) 0.6675(6) 0.6071(4)
O4_2 O 0.8059(7) 0.8203(5) 0.7780(3)
H1_3 H 0.4795 0.5867 0.6085
C5_3 C 0.5900(9) 0.5641(5) 0.5563(4)
C6_3 C 0.7699(10) 0.6324(6) 0.5648(4)
H2_3 H 0.7846 0.7041 0.6239
H3_3 H 0.5375 0.5305 0.5378
C7_3 C 0.7016(8) 0.5779(5) 0.5404(3)
H4_3 H 0.8424 0.6463 0.5525
C8_3 C 0.7472(7) 0.5367(5) 0.4991(3)
C9_3 C 0.7837(8) 0.5796(5) 0.4556(3)
C10_3 C 0.7571(7) 0.4621(5) 0.5011(3)
C11_3 C 0.7069(9) 0.6304(6) 0.4313(4)
C12_3 C 0.8970(9) 0.5721(5) 0.4402(4)
C13_3 C 0.7927(8) 0.4182(5) 0.4581(3)
C14_3 C 0.7292(8) 0.4221(5) 0.5470(3)
C15_3 C 0.7392(10) 0.6699(6) 0.3916(4)
H5_3 H 0.6307 0.6380 0.4424
H6_3 H 0.9538 0.5401 0.4581
C16_3 C 0.9270(9) 0.6112(6) 0.3988(4)
C17_3 C 0.7529(8) 0.4306(5) 0.4071(3)
C18_3 C 0.8652(8) 0.3573(5) 0.4688(4)
C19_3 C 0.6491(8) 0.3630(5) 0.5414(4)
C20_3 C 0.7805(9) 0.4405(5) 0.5967(4)
C21_3 C 0.8475(9) 0.6608(6) 0.3744(4)
H7_3 H 0.6848 0.7046 0.3754
C22_3 C 0.7868(9) 0.3908(6) 0.3682(4)
H9_3 H 0.6986 0.4694 0.3988
H10_3 H 0.8890 0.3441 0.5034
C23_3 C 0.9029(9) 0.3160(6) 0.4305(4)
C24_3 C 0.6183(9) 0.3294(6) 0.5849(4)
H11_3 H 0.6168 0.3466 0.5084
H12_3 H 0.8376 0.4785 0.6015
C25_3 C 0.7492(9) 0.4045(6) 0.6380(4)
C26_3 C 0.8873(11) 0.7005(7) 0.3309(5)
C27_3 C 0.8662(9) 0.3321(5) 0.3803(4)
H13_3 H 0.7579 0.4021 0.3337
H14_3 H 0.9546 0.2760 0.4390
C28_3 C 0.6683(9) 0.3506(6) 0.6331(4)
H15_3 H 0.5619 0.2910 0.5814
H16_3 H 0.7855 0.4177 0.6712
O6_3 O 0.8099(7) 0.7345(5) 0.3001(3)
C29_3 C 0.9100(10) 0.2887(6) 0.3385(4)
C30_3 C 0.6254(10) 0.3156(6) 0.6799(4)
O8_2 O 0.8453(7) 0.2905(4) 0.2952(3)
O12_2 O 0.6941(7) 0.3203(5) 0.7220(3)
O13_2 O 0.6547(7) 0.7905(4) 0.2048(3)
H1_4 H 0.0205 0.0867 0.8915
C8_4 C 0.7528(7) 0.0367(5) 0.0009(3)
C9_4 C 0.7163(8) 0.0796(5) 0.0444(3)
C11_4 C 0.7931(9) 0.1304(6) 0.0687(4)
C12_4 C 0.6030(9) 0.0721(5) 0.0598(4)
C15_4 C 0.7608(10) 0.1699(6) 0.1084(4)
H5_4 H 0.8693 0.1380 0.0576
H6_4 H 0.5462 0.0401 0.0419
C16_4 C 0.5730(9) 0.1112(6) 0.1012(4)
C21_4 C 0.6525(9) 0.1608(6) 0.1256(4)
H7_4 H 0.8152 0.2046 0.1246
H8_4 H 0.4975 0.1038 0.1129
C26_4 C 0.6127(11) 0.2005(7) 0.1691(5)
O6_4 O 0.6901(7) 0.2345(5) 0.1999(3)
C1_4 C 0.9134(9) 0.1821(6) 0.8287(4)
O2_4 O 0.8406(7) 0.2235(4) 0.8016(3)
C2_4 C 0.8716(9) 0.1496(6) 0.8751(4)
C3_4 C 0.9451(9) 0.0982(6) 0.9021(4)
C4_4 C 0.7651(10) 0.1675(6) 0.8929(4)
C5_4 C 0.9100(9) 0.0641(5) 0.9437(4)
C6_4 C 0.7301(10) 0.1324(6) 0.9352(4)
H2_4 H 0.7154 0.2041 0.8761
H3_4 H 0.9625 0.0305 0.9622
C7_4 C 0.7984(8) 0.0779(5) 0.9596(3)
H4_4 H 0.6576 0.1463 0.9475
C13_4 C 0.7073(8) 0.9182(5) 0.0419(3)
C17_4 C 0.7471(8) 0.9306(5) 0.0929(3)
C18_4 C 0.6348(8) 0.8573(5) 0.0312(4)
C22_4 C 0.7132(9) 0.8908(6) 0.1318(4)
H9_4 H 0.8014 0.9694 0.1012
C23_4 C 0.5971(9) 0.8160(6) 0.0695(4)
C27_4 C 0.6338(9) 0.8321(5) 0.1197(4)
H13_4 H 0.7421 0.9021 0.1663
H14_4 H 0.5454 0.7760 0.0610
C29_4 C 0.5900(10) 0.7887(6) 0.1615(4)
C10_4 C 0.7429(7) 0.9621(5) 0.9989(3)
C14_4 C 0.7708(8) 0.9221(5) 0.9530(3)
C19_4 C 0.8509(8) 0.8630(5) 0.9586(4)
C20_4 C 0.7195(9) 0.9405(5) 0.9033(4)
H10_4 H 0.6110 0.8441 0.9966
C24_4 C 0.8817(9) 0.8294(6) 0.9151(4)
H11_4 H 0.8832 0.8466 0.9916
H12_4 H 0.6624 0.9785 0.8985
C25_4 C 0.7508(9) 0.9045(6) 0.8620(4)
C28_4 C 0.8317(9) 0.8506(6) 0.8669(4)
H15_4 H 0.9381 0.7910 0.9186
H16_4 H 0.7145 0.9177 0.8288
C30_4 C 0.8746(10) 0.8156(6) 0.8201(4)
loop_
_geom_bond_atom_site_label_1
_geom_bond_atom_site_label_2
_geom_bond_site_symmetry_1
_geom_bond_site_symmetry_2
Ag1 O1 1_555 1_555
O1 C1 1_555 1_555
C1 O2 1_555 1_555
O2 Ag2 1_555 1_555
C2 C1 1_555 1_555
O3 Ag2 1_555 1_555
Ag2 O4 1_555 1_555
Ag3 O2 1_555 1_555
C3 C2 1_555 1_555
C4 C2 1_555 1_555
O4 Ag3 1_555 1_555
O5 Ag3 1_555 1_555
H1 C3 1_555 1_555
C5 C3 1_555 1_555
C6 C4 1_555 1_555
H2 C4 1_555 1_555
H3 C5 1_555 1_555
C7 C5 1_555 1_555
H4 C6 1_555 1_555
C8 C7 1_555 1_555
C9 C8 1_555 1_555
C10 C8 1_555 1_555
C11 C9 1_555 1_555
C12 C9 1_555 1_555
C13 C10 1_555 1_555
C14 C10 1_555 1_555
C15 C11 1_555 1_555
H5 C11 1_555 1_555
H6 C12 1_555 1_555
C16 C12 1_555 1_555
C17 C13 1_555 1_555
C18 C13 1_555 1_555
C19 C14 1_555 1_555
C20 C14 1_555 1_555
C21 C15 1_555 1_555
H7 C15 1_555 1_555
C22 C17 1_555 1_555
H9 C17 1_555 1_555
H10 C18 1_555 1_555
C23 C18 1_555 1_555
C24 C19 1_555 1_555
H11 C19 1_555 1_555
H12 C20 1_555 1_555
C25 C20 1_555 1_555
C26 C21 1_555 1_555
C27 C22 1_555 1_555
H13 C22 1_555 1_555
H14 C23 1_555 1_555
C28 C24 1_555 1_555
H15 C24 1_555 1_555
H16 C25 1_555 1_555
O6 C26 1_555 1_555
C29 C27 1_555 1_555
C30 C28 1_555 1_555
O7 Ag4 1_555 1_555
Ag4 O6 1_555 1_555
O8 C29 1_555 1_555
O9 C26 1_555 1_555
Ag5 O6 1_555 1_555
O11 C30 1_555 1_555
O12 C30 1_555 1_555
O13 Ag4 1_555 1_555
O14 Ag5 1_555 1_555
Ag7 O8 1_555 1_555
Ag8 O8 1_555 1_555
Ag10 O11 1_555 1_555
Ag11 O12 1_555 1_555
Ag12 O12 1_555 1_555
C6 C7 1_555 1_555
C16 C21 1_555 1_555
C23 C27 1_555 1_555
C25 C28 1_555 1_555
Ag5 O13 1_555 1_555
Ag9 O10 1_555 1_555
C14_2 C10_2 1_555 1_555
C19_2 C14_2 1_555 1_555
C20_2 C14_2 1_555 1_555
C24_2 C19_2 1_555 1_555
H11_2 C19_2 1_555 1_555
H12_2 C20_2 1_555 1_555
C25_2 C20_2 1_555 1_555
C28_2 C24_2 1_555 1_555
H15_2 C24_2 1_555 1_555
H16_2 C25_2 1_555 1_555
C30_2 C28_2 1_555 1_555
O11_2 C30_2 1_555 1_555
O4 C30_2 1_555 1_555
C25_2 C28_2 1_555 1_555
C17_2 C13_2 1_555 1_555
C18_2 C13_2 1_555 1_555
C22_2 C17_2 1_555 1_555
H9_2 C17_2 1_555 1_555
C23_2 C18_2 1_555 1_555
C27_2 C22_2 1_555 1_555
H13_2 C22_2 1_555 1_555
H14_2 C23_2 1_555 1_555
C29_2 C27_2 1_555 1_555
O13 C29_2 1_555 1_555
O10_2 C29_2 1_555 1_555
Ag9_2 O10_2 1_555 1_555
C23_2 C27_2 1_555 1_555
C1_2 O2_2 1_555 1_555
O2_2 Ag12 1_555 1_555
C2_2 C1_2 1_555 1_555
Ag11 O2_2 1_555 1_555
C3_2 C2_2 1_555 1_555
C4_2 C2_2 1_555 1_555
O5_2 Ag11 1_555 1_555
C5_2 C3_2 1_555 1_555
C6_2 C4_2 1_555 1_555
H2_2 C4_2 1_555 1_555
H3_2 C5_2 1_555 1_555
C7_2 C5_2 1_555 1_555
H4_2 C6_2 1_555 1_555
C6_2 C7_2 1_555 1_555
C9_2 C8_2 1_555 1_555
C11_2 C9_2 1_555 1_555
C12_2 C9_2 1_555 1_555
C15_2 C11_2 1_555 1_555
H5_2 C11_2 1_555 1_555
H6_2 C12_2 1_555 1_555
C16_2 C12_2 1_555 1_555
C21_2 C15_2 1_555 1_555
H7_2 C15_2 1_555 1_555
H8_2 C16_2 1_555 1_555
C26_2 C21_2 1_555 1_555
O6_2 C26_2 1_555 1_555
Ag8 O6_2 1_555 1_555
O9_2 C26_2 1_555 1_555
Ag7 O6_2 1_555 1_555
Ag6_2 O9_2 1_555 1_555
O14_2 Ag7 1_555 1_555
C16_2 C21_2 1_555 1_555
Ag1_2 O1_2 1_555 1_555
O14_2 C1_3 1_555 1_555
C1_3 O2_3 1_555 1_555
O2_3 Ag6_2 1_555 1_555
C2_3 C1_3 1_555 1_555
Ag6_2 O4_2 1_555 1_555
Ag9 O2_3 1_555 1_555
C3_3 C2_3 1_555 1_555
C4_3 C2_3 1_555 1_555
O4_2 Ag9 1_555 1_555
H1_3 C3_3 1_555 1_555
C5_3 C3_3 1_555 1_555
C6_3 C4_3 1_555 1_555
H2_3 C4_3 1_555 1_555
H3_3 C5_3 1_555 1_555
C7_3 C5_3 1_555 1_555
H4_3 C6_3 1_555 1_555
C8_3 C7_3 1_555 1_555
C9_3 C8_3 1_555 1_555
C10_3 C8_3 1_555 1_555
C11_3 C9_3 1_555 1_555
C12_3 C9_3 1_555 1_555
C13_3 C10_3 1_555 1_555
C14_3 C10_3 1_555 1_555
C15_3 C11_3 1_555 1_555
H5_3 C11_3 1_555 1_555
H6_3 C12_3 1_555 1_555
C16_3 C12_3 1_555 1_555
C17_3 C13_3 1_555 1_555
C18_3 C13_3 1_555 1_555
C19_3 C14_3 1_555 1_555
C20_3 C14_3 1_555 1_555
C21_3 C15_3 1_555 1_555
H7_3 C15_3 1_555 1_555
C22_3 C17_3 1_555 1_555
H9_3 C17_3 1_555 1_555
H10_3 C18_3 1_555 1_555
C23_3 C18_3 1_555 1_555
C24_3 C19_3 1_555 1_555
H11_3 C19_3 1_555 1_555
H12_3 C20_3 1_555 1_555
C25_3 C20_3 1_555 1_555
C26_3 C21_3 1_555 1_555
C27_3 C22_3 1_555 1_555
H13_3 C22_3 1_555 1_555
H14_3 C23_3 1_555 1_555
C28_3 C24_3 1_555 1_555
H15_3 C24_3 1_555 1_555
H16_3 C25_3 1_555 1_555
O6_3 C26_3 1_555 1_555
C29_3 C27_3 1_555 1_555
C30_3 C28_3 1_555 1_555
Ag10 O6_3 1_555 1_555
O8_2 C29_3 1_555 1_555
O3_2 C26_3 1_555 1_555
Ag1_2 O6_3 1_555 1_555
O7 C30_3 1_555 1_555
O12_2 C30_3 1_555 1_555
O13_2 Ag10 1_555 1_555
Ag1 O8_2 1_555 1_555
Ag10_2 O8_2 1_555 1_555
Ag9_2 O12_2 1_555 1_555
Ag6 O12_2 1_555 1_555
C6_3 C7_3 1_555 1_555
C16_3 C21_3 1_555 1_555
C23_3 C27_3 1_555 1_555
C25_3 C28_3 1_555 1_555
Ag1_2 O13_2 1_555 1_555
C9_4 C8_4 1_555 1_555
C11_4 C9_4 1_555 1_555
C12_4 C9_4 1_555 1_555
C15_4 C11_4 1_555 1_555
H5_4 C11_4 1_555 1_555
H6_4 C12_4 1_555 1_555
C16_4 C12_4 1_555 1_555
C21_4 C15_4 1_555 1_555
H7_4 C15_4 1_555 1_555
H8_4 C16_4 1_555 1_555
C26_4 C21_4 1_555 1_555
O6_4 C26_4 1_555 1_555
Ag10_2 O6_4 1_555 1_555
O3 C26_4 1_555 1_555
Ag1 O6_4 1_555 1_555
C16_4 C21_4 1_555 1_555
C1_4 O2_4 1_555 1_555
O2_4 Ag6 1_555 1_555
C2_4 C1_4 1_555 1_555
Ag9_2 O2_4 1_555 1_555
C3_4 C2_4 1_555 1_555
C4_4 C2_4 1_555 1_555
C5_4 C3_4 1_555 1_555
C6_4 C4_4 1_555 1_555
H2_4 C4_4 1_555 1_555
H3_4 C5_4 1_555 1_555
C7_4 C5_4 1_555 1_555
H4_4 C6_4 1_555 1_555
C6_4 C7_4 1_555 1_555
C17_4 C13_4 1_555 1_555
C18_4 C13_4 1_555 1_555
C22_4 C17_4 1_555 1_555
H9_4 C17_4 1_555 1_555
C23_4 C18_4 1_555 1_555
C27_4 C22_4 1_555 1_555
H13_4 C22_4 1_555 1_555
H14_4 C23_4 1_555 1_555
C29_4 C27_4 1_555 1_555
O13_2 C29_4 1_555 1_555
O5_2 C29_4 1_555 1_555
C23_4 C27_4 1_555 1_555
C14_4 C10_4 1_555 1_555
C19_4 C14_4 1_555 1_555
C20_4 C14_4 1_555 1_555
C24_4 C19_4 1_555 1_555
H11_4 C19_4 1_555 1_555
H12_4 C20_4 1_555 1_555
C25_4 C20_4 1_555 1_555
C28_4 C24_4 1_555 1_555
H15_4 C24_4 1_555 1_555
H16_4 C25_4 1_555 1_555
C30_4 C28_4 1_555 1_555
O7_2 C30_4 1_555 1_555
O4_2 C30_4 1_555 1_555
C25_4 C28_4 1_555 1_555

#END
