
###############################################################################
#
# This file contains modified crystal structure data generated from the
# MOF subset of the Cambridge Structural Database (CSD) v543 
# hosted by the Cambridge Crystallographic Data Centre (CCDC).
#
# This work is licensed under the Creative Commons
# Attribution-NonCommercial-ShareAlike 4.0 International License.
# To view a copy of this license, visit
# http://creativecommons.org/licenses/by-nc-sa/4.0/
# or send a letter to
# Creative Commons, PO Box 1866, Mountain View, CA 94042, USA.
#
# CIF created using the CSD Python API on 29 September 2022
# The structure has been converted into the P1 space group
# The structure has a 3D framework
# The original CSD entry ADABAK is in the monoclinic crystal system
# The framework has been calculated to contain at least 10.0% void space
# The void calculation uses a probe of radius 1.32A, grid spacing 0.4
#
###############################################################################

data_ADABAK
_chemical_formula_moiety         '(C70 H56 Cu8 N36 O12)n'
_symmetry_cell_setting           triclinic
_symmetry_space_group_name_H-M   'P 1'
_symmetry_Int_Tables_number      1
_space_group_name_Hall           'P 1'
loop_
_symmetry_equiv_pos_site_id
_symmetry_equiv_pos_as_xyz
1 x,y,z
_cell_length_a                   28.697(2)
_cell_length_b                   9.2637(5)
_cell_length_c                   9.3223(5)
_cell_angle_alpha                90
_cell_angle_beta                 116.087(4)
_cell_angle_gamma                90
_cell_volume                     2225.78
loop_
_atom_site_label
_atom_site_type_symbol
_atom_site_fract_x
_atom_site_fract_y
_atom_site_fract_z
_atom_site_U_iso_or_equiv
_atom_site_thermal_displace_type
O1 O 0.1250(6) 0.0750(18) 0.340(2) 0.0620 Uiso
O2 O 0.1426(6) 0.177(2) 0.5772(18) 0.0620 Uiso
N1 N 0.2178(5) 0.0042(18) 0.7372(14) 0.0620 Uiso
C1 C 0.1493(3) 0.0864(14) 0.485(2) 0.0620 Uiso
Cu4 Cu 0.18682(19) 0.1711(6) 0.8113(6) 0.0360 Uiso
Cu1 Cu 0.18682(19) 0.8289(6) 0.3113(6) 0.0360 Uiso
N2 N 0.2550(4) 0.9029(19) 0.7914(13) 0.0620 Uiso
N3 N 0.2522(4) 0.8284(14) 0.6666(17) 0.0620 Uiso
N4 N 0.2139(5) 0.8802(17) 0.5343(14) 0.0620 Uiso
N5 N 0.1415(3) 0.6590(9) 0.3297(12) 0.0620 Uiso
C2 C 0.1933(3) 0.9878(11) 0.5802(13) 0.0620 Uiso
C3 C 0.1077(5) 0.7170(9) 0.3780(15) 0.0620 Uiso
C4 C 0.0702(4) 0.6392(10) 0.4014(13) 0.0620 Uiso
C5 C 0.06779(17) 0.4916(10) 0.3722(5) 0.0620 Uiso
C6 C 0.1021(3) 0.4281(9) 0.3224(14) 0.0620 Uiso
C7 C 0.1382(3) 0.5156(9) 0.3026(16) 0.0620 Uiso
C8 C 0.02799(14) 0.4000(12) 0.39533(13) 0.0620 Uiso
C9 C 0.00000 0.3057(13) 0.25000 0.0620 Uiso
H1 H 0.109707 0.819031 0.397655 0.0747 Uiso
H2 H 0.046969 0.685455 0.436102 0.0747 Uiso
H3 H 0.100856 0.326244 0.302152 0.0747 Uiso
H4 H 0.161855 0.471912 0.268001 0.0747 Uiso
H5 H 0.003934 0.46015 0.409283 0.0747 Uiso
H6 H 0.044724 0.341391 0.486102 0.0747 Uiso
H7 H 0.02337 0.24148 0.23773 0.0747 Uiso
Cu5 Cu 0.31318(19) 0.6711(6) 0.6887(6) 0.0360 Uiso
O6 O 0.1426(6) 0.823(2) 0.0772(18) 0.0620 Uiso
N8 N 0.2178(5) 0.9958(18) 0.2372(14) 0.0620 Uiso
N11 N 0.2478(4) 0.6716(14) 0.3334(17) 0.0620 Uiso
Cu3 Cu 0.81318(19) 0.1711(6) 0.6887(6) 0.0360 Uiso
O4 O 0.8574(6) 0.177(2) 0.9228(18) 0.0620 Uiso
N6 N 0.7822(5) 0.0042(18) 0.7628(14) 0.0620 Uiso
C9_2 C 1.00000 0.3057(13) 0.25000 0.0620 Uiso
Cu2 Cu 0.81318(19) 0.8289(6) 0.1887(6) 0.0360 Uiso
O5 O 0.8574(6) 0.823(2) 0.4228(18) 0.0620 Uiso
N7 N 0.7822(5) 0.9958(18) 0.2628(14) 0.0620 Uiso
N12 N 0.7522(4) 0.6716(14) 0.1666(17) 0.0620 Uiso
N14 N 0.8585(3) 0.6590(9) 0.1703(12) 0.0620 Uiso
C12 C 0.8923(5) 0.7170(9) 0.1220(15) 0.0620 Uiso
C13 C 0.9298(4) 0.6392(10) 0.0986(13) 0.0620 Uiso
C14 C 0.93221(17) 0.4916(10) 0.1278(5) 0.0620 Uiso
C15 C 0.8979(3) 0.4281(9) 0.1776(14) 0.0620 Uiso
C16 C 0.8618(3) 0.5156(9) 0.1974(16) 0.0620 Uiso
C17 C 0.97201(14) 0.4000(12) 0.10467(13) 0.0620 Uiso
H8 H 0.890293 0.819031 0.102345 0.0747 Uiso
H9 H 0.953031 0.685455 0.063898 0.0747 Uiso
H10 H 0.899144 0.326244 0.197848 0.0747 Uiso
H11 H 0.838145 0.471912 0.231999 0.0747 Uiso
H12 H 0.996066 0.46015 0.090717 0.0747 Uiso
H13 H 0.955276 0.341391 0.013898 0.0747 Uiso
H14 H 0.97663 0.24148 0.26227 0.0747 Uiso
Cu6 Cu 0.68682(19) 0.6711(6) 0.8113(6) 0.0360 Uiso
N9 N 0.7450(4) 0.9029(19) 0.7086(13) 0.0620 Uiso
N10 N 0.7478(4) 0.8284(14) 0.8334(17) 0.0620 Uiso
N13 N 0.7861(5) 0.8802(17) 0.9657(14) 0.0620 Uiso
C11 C 0.8067(3) 0.9878(11) 0.9198(13) 0.0620 Uiso
Cu1_2 Cu 0.68682(19) 0.3289(6) 0.3113(6) 0.0360 Uiso
O1_2 O 0.6250(6) 0.5750(18) 0.340(2) 0.0620 Uiso
O2_2 O 0.6426(6) 0.677(2) 0.5772(18) 0.0620 Uiso
N1_2 N 0.7178(5) 0.5042(18) 0.7372(14) 0.0620 Uiso
N2_2 N 0.7550(4) 0.4029(19) 0.7914(13) 0.0620 Uiso
N3_2 N 0.7522(4) 0.3284(14) 0.6666(17) 0.0620 Uiso
N4_2 N 0.7139(5) 0.3802(17) 0.5343(14) 0.0620 Uiso
N5_2 N 0.6415(3) 0.1590(9) 0.3297(12) 0.0620 Uiso
C1_2 C 0.6493(3) 0.5864(14) 0.485(2) 0.0620 Uiso
C2_2 C 0.6933(3) 0.4878(11) 0.5802(13) 0.0620 Uiso
C3_2 C 0.6077(5) 0.2170(9) 0.3780(15) 0.0620 Uiso
C4_2 C 0.5702(4) 0.1392(10) 0.4014(13) 0.0620 Uiso
C7_2 C 0.6382(3) 0.0156(9) 0.3026(16) 0.0620 Uiso
H1_2 H 0.609707 0.319031 0.397655 0.0747 Uiso
H2_2 H 0.546969 0.185455 0.436102 0.0747 Uiso
Cu2_2 Cu 0.31318(19) 0.3289(6) 0.1887(6) 0.0360 Uiso
O3 O 0.3750(6) 0.5750(18) 0.160(2) 0.0620 Uiso
O5_2 O 0.3574(6) 0.323(2) 0.4228(18) 0.0620 Uiso
O6_2 O 0.6426(6) 0.323(2) 0.0772(18) 0.0620 Uiso
N7_2 N 0.2822(5) 0.4958(18) 0.2628(14) 0.0620 Uiso
N8_2 N 0.7178(5) 0.4958(18) 0.2372(14) 0.0620 Uiso
N11_2 N 0.7478(4) 0.1716(14) 0.3334(17) 0.0620 Uiso
N12_2 N 0.2522(4) 0.1716(14) 0.1666(17) 0.0620 Uiso
N14_2 N 0.3585(3) 0.1590(9) 0.1703(12) 0.0620 Uiso
C10 C 0.3507(3) 0.5864(14) 0.015(2) 0.0620 Uiso
C12_2 C 0.3923(5) 0.2170(9) 0.1220(15) 0.0620 Uiso
C13_2 C 0.4298(4) 0.1392(10) 0.0986(13) 0.0620 Uiso
C16_2 C 0.3618(3) 0.0156(9) 0.1974(16) 0.0620 Uiso
H8_2 H 0.390293 0.319031 0.102345 0.0747 Uiso
H9_2 H 0.453031 0.185455 0.063898 0.0747 Uiso
O4_2 O 0.3574(6) 0.677(2) 0.9228(18) 0.0620 Uiso
N6_2 N 0.2822(5) 0.5042(18) 0.7628(14) 0.0620 Uiso
N9_2 N 0.2450(4) 0.4029(19) 0.7086(13) 0.0620 Uiso
N10_2 N 0.2478(4) 0.3284(14) 0.8334(17) 0.0620 Uiso
N13_2 N 0.2861(5) 0.3802(17) 0.9657(14) 0.0620 Uiso
C11_2 C 0.3067(3) 0.4878(11) 0.9198(13) 0.0620 Uiso
N9_3 N 0.2550(4) 0.0971(19) 0.2914(13) 0.0620 Uiso
N13_3 N 0.2139(5) 0.1198(17) 0.0343(14) 0.0620 Uiso
C11_3 C 0.1933(3) 0.0122(11) 0.0802(13) 0.0620 Uiso
C9_3 C -0.00000 0.6943(13) 0.75000 0.0620 Uiso
N14_3 N 0.1415(3) 0.3410(9) 0.8297(12) 0.0620 Uiso
C12_3 C 0.1077(5) 0.2830(9) 0.8780(15) 0.0620 Uiso
C13_3 C 0.0702(4) 0.3608(10) 0.9014(13) 0.0620 Uiso
C14_2 C 0.06779(17) 0.5084(10) 0.8722(5) 0.0620 Uiso
C15_2 C 0.1021(3) 0.5719(9) 0.8224(14) 0.0620 Uiso
C16_3 C 0.1382(3) 0.4844(9) 0.8026(16) 0.0620 Uiso
C17_2 C 0.02799(14) 0.6000(12) 0.89533(13) 0.0620 Uiso
H8_3 H 0.109707 0.180969 0.897655 0.0747 Uiso
H9_3 H 0.046969 0.314545 0.936102 0.0747 Uiso
H10_2 H 0.100856 0.673756 0.802152 0.0747 Uiso
H11_2 H 0.161855 0.528088 0.768001 0.0747 Uiso
H12_2 H 0.003934 0.53985 0.909283 0.0747 Uiso
H13_2 H 0.044724 0.658609 0.986102 0.0747 Uiso
H14_2 H 0.02337 0.75852 0.73773 0.0747 Uiso
N2_3 N 0.7450(4) 0.0971(19) 0.2086(13) 0.0620 Uiso
N4_3 N 0.7861(5) 0.1198(17) 0.4657(14) 0.0620 Uiso
N5_3 N 0.8585(3) 0.3410(9) 0.6703(12) 0.0620 Uiso
C2_3 C 0.8067(3) 0.0122(11) 0.4198(13) 0.0620 Uiso
C3_3 C 0.8923(5) 0.2830(9) 0.6220(15) 0.0620 Uiso
C4_3 C 0.9298(4) 0.3608(10) 0.5986(13) 0.0620 Uiso
C5_2 C 0.93221(17) 0.5084(10) 0.6278(5) 0.0620 Uiso
C6_2 C 0.8979(3) 0.5719(9) 0.6776(14) 0.0620 Uiso
C7_3 C 0.8618(3) 0.4844(9) 0.6974(16) 0.0620 Uiso
C8_2 C 0.97201(14) 0.6000(12) 0.60467(13) 0.0620 Uiso
C9_4 C 1.00000 0.6943(13) 0.75000 0.0620 Uiso
H1_3 H 0.890293 0.180969 0.602345 0.0747 Uiso
H2_3 H 0.953031 0.314545 0.563898 0.0747 Uiso
H3_2 H 0.899144 0.673756 0.697848 0.0747 Uiso
H4_2 H 0.838145 0.528088 0.731999 0.0747 Uiso
H5_2 H 0.996066 0.53985 0.590717 0.0747 Uiso
H6_2 H 0.955276 0.658609 0.513898 0.0747 Uiso
H7_2 H 0.97663 0.75852 0.76227 0.0747 Uiso
O1_3 O 0.8750(6) 0.9250(18) 0.660(2) 0.0620 Uiso
C1_3 C 0.8507(3) 0.9136(14) 0.515(2) 0.0620 Uiso
N9_4 N 0.7550(4) 0.5971(19) 0.2914(13) 0.0620 Uiso
N13_4 N 0.7139(5) 0.6198(17) 0.0343(14) 0.0620 Uiso
C11_4 C 0.6933(3) 0.5122(11) 0.0802(13) 0.0620 Uiso
O1_4 O 0.3750(6) 0.4250(18) 0.660(2) 0.0620 Uiso
N2_4 N 0.2450(4) 0.5971(19) 0.2086(13) 0.0620 Uiso
N4_4 N 0.2861(5) 0.6198(17) 0.4657(14) 0.0620 Uiso
N5_4 N 0.3585(3) 0.8410(9) 0.6703(12) 0.0620 Uiso
C1_4 C 0.3507(3) 0.4136(14) 0.515(2) 0.0620 Uiso
C2_4 C 0.3067(3) 0.5122(11) 0.4198(13) 0.0620 Uiso
C3_4 C 0.3923(5) 0.7830(9) 0.6220(15) 0.0620 Uiso
C4_4 C 0.4298(4) 0.8608(10) 0.5986(13) 0.0620 Uiso
C7_4 C 0.3618(3) 0.9844(9) 0.6974(16) 0.0620 Uiso
H1_4 H 0.390293 0.680969 0.602345 0.0747 Uiso
H2_4 H 0.453031 0.814545 0.563898 0.0747 Uiso
O3_2 O 0.6250(6) 0.4250(18) 0.840(2) 0.0620 Uiso
N14_4 N 0.6415(3) 0.8410(9) 0.8297(12) 0.0620 Uiso
C10_2 C 0.6493(3) 0.4136(14) 0.985(2) 0.0620 Uiso
C12_4 C 0.6077(5) 0.7830(9) 0.8780(15) 0.0620 Uiso
C13_4 C 0.5702(4) 0.8608(10) 0.9014(13) 0.0620 Uiso
C16_4 C 0.6382(3) 0.9844(9) 0.8026(16) 0.0620 Uiso
H8_4 H 0.609707 0.680969 0.897655 0.0747 Uiso
H9_4 H 0.546969 0.814545 0.936102 0.0747 Uiso
O3_3 O 0.8750(6) 0.0750(18) 0.160(2) 0.0620 Uiso
C10_3 C 0.8507(3) 0.0864(14) 0.015(2) 0.0620 Uiso
C5_3 C 0.56779(17) 0.9916(10) 0.3722(5) 0.0620 Uiso
C6_3 C 0.6021(3) 0.9281(9) 0.3224(14) 0.0620 Uiso
C8_3 C 0.52799(14) 0.9000(12) 0.39533(13) 0.0620 Uiso
C9_5 C 0.50000 0.8057(13) 0.25000 0.0620 Uiso
H3_3 H 0.600856 0.826244 0.302152 0.0747 Uiso
H4_3 H 0.661855 0.971912 0.268001 0.0747 Uiso
H5_3 H 0.503934 0.96015 0.409283 0.0747 Uiso
H6_3 H 0.544724 0.841391 0.486102 0.0747 Uiso
H7_3 H 0.52337 0.74148 0.23773 0.0747 Uiso
C14_3 C 0.43221(17) 0.9916(10) 0.1278(5) 0.0620 Uiso
C15_3 C 0.3979(3) 0.9281(9) 0.1776(14) 0.0620 Uiso
C17_3 C 0.47201(14) 0.9000(12) 0.10467(13) 0.0620 Uiso
H10_3 H 0.399144 0.826244 0.197848 0.0747 Uiso
H11_3 H 0.338145 0.971912 0.231999 0.0747 Uiso
H12_3 H 0.496066 0.96015 0.090717 0.0747 Uiso
H13_3 H 0.455276 0.841391 0.013898 0.0747 Uiso
H14_3 H 0.47663 0.74148 0.26227 0.0747 Uiso
O3_4 O 0.1250(6) 0.9250(18) 0.840(2) 0.0620 Uiso
C10_4 C 0.1493(3) 0.9136(14) 0.985(2) 0.0620 Uiso
C5_4 C 0.43221(17) 0.0084(10) 0.6278(5) 0.0620 Uiso
C6_4 C 0.3979(3) 0.0719(9) 0.6776(14) 0.0620 Uiso
C8_4 C 0.47201(14) 0.1000(12) 0.60467(13) 0.0620 Uiso
C9_6 C 0.50000 0.1943(13) 0.75000 0.0620 Uiso
H3_4 H 0.399144 0.173756 0.697848 0.0747 Uiso
H4_4 H 0.338145 0.028088 0.731999 0.0747 Uiso
H5_4 H 0.496066 0.03985 0.590717 0.0747 Uiso
H6_4 H 0.455276 0.158609 0.513898 0.0747 Uiso
H7_4 H 0.47663 0.25852 0.76227 0.0747 Uiso
C14_4 C 0.56779(17) 0.0084(10) 0.8722(5) 0.0620 Uiso
C15_4 C 0.6021(3) 0.0719(9) 0.8224(14) 0.0620 Uiso
C17_4 C 0.52799(14) 0.1000(12) 0.89533(13) 0.0620 Uiso
H10_4 H 0.600856 0.173756 0.802152 0.0747 Uiso
H11_4 H 0.661855 0.028088 0.768001 0.0747 Uiso
H12_4 H 0.503934 0.03985 0.909283 0.0747 Uiso
H13_4 H 0.544724 0.158609 0.986102 0.0747 Uiso
H14_4 H 0.52337 0.25852 0.73773 0.0747 Uiso
loop_
_geom_bond_atom_site_label_1
_geom_bond_atom_site_label_2
_geom_bond_site_symmetry_1
_geom_bond_site_symmetry_2
O1 C1 1_555 1_555
O2 C1 1_555 1_555
Cu4 O2 1_555 1_555
N1 Cu4 1_555 1_555
Cu1 N4 1_555 1_555
N2 N3 1_555 1_555
N3 N4 1_555 1_555
N4 C2 1_555 1_555
N5 Cu1 1_555 1_555
C3 N5 1_555 1_555
C4 C3 1_555 1_555
C5 C4 1_555 1_555
C6 C5 1_555 1_555
C7 N5 1_555 1_555
C8 C5 1_555 1_555
C9 C8 1_555 1_555
H1 C3 1_555 1_555
H2 C4 1_555 1_555
H3 C6 1_555 1_555
H4 C7 1_555 1_555
H5 C8 1_555 1_555
H6 C8 1_555 1_555
H7 C9 1_555 1_555
Cu5 N3 1_555 1_555
O6 Cu1 1_555 1_555
N8 Cu1 1_555 1_555
N11 Cu1 1_555 1_555
C6 C7 1_555 1_555
Cu3 O4 1_555 1_555
N6 Cu3 1_555 1_555
Cu2 O5 1_555 1_555
N7 Cu2 1_555 1_555
N12 Cu2 1_555 1_555
N14 Cu2 1_555 1_555
C12 N14 1_555 1_555
C13 C12 1_555 1_555
C14 C13 1_555 1_555
C15 C14 1_555 1_555
C16 N14 1_555 1_555
C17 C9_2 1_555 1_555
H8 C12 1_555 1_555
H9 C13 1_555 1_555
H10 C15 1_555 1_555
H11 C16 1_555 1_555
H12 C17 1_555 1_555
H13 C17 1_555 1_555
H14 C9_2 1_555 1_555
C14 C17 1_555 1_555
C15 C16 1_555 1_555
Cu6 N10 1_555 1_555
N10 N9 1_555 1_555
N10 N13 1_555 1_555
N13 C11 1_555 1_555
Cu1_2 N4_2 1_555 1_555
O1_2 C1_2 1_555 1_555
O2_2 C1_2 1_555 1_555
N1_2 N2_2 1_555 1_555
N2_2 N3_2 1_555 1_555
N3_2 N4_2 1_555 1_555
N4_2 C2_2 1_555 1_555
N5_2 Cu1_2 1_555 1_555
C1_2 C2_2 1_555 1_555
C2_2 N1_2 1_555 1_555
C3_2 N5_2 1_555 1_555
C4_2 C3_2 1_555 1_555
C7_2 N5_2 1_555 1_555
H1_2 C3_2 1_555 1_555
H2_2 C4_2 1_555 1_555
Cu2_2 O5_2 1_555 1_555
Cu6 O2_2 1_555 1_555
Cu3 N3_2 1_555 1_555
O3 C10 1_555 1_555
O6_2 Cu1_2 1_555 1_555
N7_2 Cu2_2 1_555 1_555
N8_2 Cu1_2 1_555 1_555
N11_2 Cu1_2 1_555 1_555
N12_2 Cu2_2 1_555 1_555
N14_2 Cu2_2 1_555 1_555
C12_2 N14_2 1_555 1_555
C13_2 C12_2 1_555 1_555
C16_2 N14_2 1_555 1_555
H8_2 C12_2 1_555 1_555
H9_2 C13_2 1_555 1_555
N1_2 Cu6 1_555 1_555
Cu5 O4_2 1_555 1_555
Cu4 N10_2 1_555 1_555
N6_2 Cu5 1_555 1_555
N9_2 N6_2 1_555 1_555
N10_2 N9_2 1_555 1_555
C11_2 N6_2 1_555 1_555
N10_2 N13_2 1_555 1_555
N13_2 C11_2 1_555 1_555
N12_2 N9_3 1_555 1_555
N12_2 N13_3 1_555 1_555
N13_3 C11_3 1_555 1_555
N14_3 Cu4 1_555 1_555
C12_3 N14_3 1_555 1_555
C13_3 C12_3 1_555 1_555
C14_2 C13_3 1_555 1_555
C15_2 C14_2 1_555 1_555
C16_3 N14_3 1_555 1_555
C17_2 C9_3 1_555 1_555
H8_3 C12_3 1_555 1_555
H9_3 C13_3 1_555 1_555
H10_2 C15_2 1_555 1_555
H11_2 C16_3 1_555 1_555
H12_2 C17_2 1_555 1_555
H13_2 C17_2 1_555 1_555
H14_2 C9_3 1_555 1_555
C14_2 C17_2 1_555 1_555
C15_2 C16_3 1_555 1_555
Cu3 N4_3 1_555 1_555
N2_3 N11_2 1_555 1_555
N11_2 N4_3 1_555 1_555
N4_3 C2_3 1_555 1_555
N5_3 Cu3 1_555 1_555
C3_3 N5_3 1_555 1_555
C4_3 C3_3 1_555 1_555
C5_2 C4_3 1_555 1_555
C6_2 C5_2 1_555 1_555
C7_3 N5_3 1_555 1_555
C8_2 C5_2 1_555 1_555
C9_4 C8_2 1_555 1_555
H1_3 C3_3 1_555 1_555
H2_3 C4_3 1_555 1_555
H3_2 C6_2 1_555 1_555
H4_2 C7_3 1_555 1_555
H5_2 C8_2 1_555 1_555
H6_2 C8_2 1_555 1_555
H7_2 C9_4 1_555 1_555
C6_2 C7_3 1_555 1_555
O1_3 C1_3 1_555 1_555
O5 C1_3 1_555 1_555
N9_4 N8_2 1_555 1_555
N12 N9_4 1_555 1_555
C11_4 N8_2 1_555 1_555
N12 N13_4 1_555 1_555
N13_4 C11_4 1_555 1_555
Cu5 N4_4 1_555 1_555
O1_4 C1_4 1_555 1_555
O5_2 C1_4 1_555 1_555
N7_2 N2_4 1_555 1_555
N2_4 N11 1_555 1_555
N11 N4_4 1_555 1_555
N4_4 C2_4 1_555 1_555
N5_4 Cu5 1_555 1_555
C1_4 C2_4 1_555 1_555
C2_4 N7_2 1_555 1_555
C3_4 N5_4 1_555 1_555
C4_4 C3_4 1_555 1_555
C7_4 N5_4 1_555 1_555
H1_4 C3_4 1_555 1_555
H2_4 C4_4 1_555 1_555
O3_2 C10_2 1_555 1_555
N14_4 Cu6 1_555 1_555
C12_4 N14_4 1_555 1_555
C13_4 C12_4 1_555 1_555
C16_4 N14_4 1_555 1_555
H8_4 C12_4 1_555 1_555
H9_4 C13_4 1_555 1_555
O3_3 C10_3 1_555 1_555
C6_3 C5_3 1_555 1_555
C8_3 C5_3 1_555 1_555
C9_5 C8_3 1_555 1_555
H3_3 C6_3 1_555 1_555
H5_3 C8_3 1_555 1_555
H6_3 C8_3 1_555 1_555
H7_3 C9_5 1_555 1_555
C15_3 C14_3 1_555 1_555
C17_3 C9_5 1_555 1_555
H10_3 C15_3 1_555 1_555
H12_3 C17_3 1_555 1_555
H13_3 C17_3 1_555 1_555
H14_3 C9_5 1_555 1_555
C14_3 C17_3 1_555 1_555
O3_4 C10_4 1_555 1_555
C6_4 C5_4 1_555 1_555
C8_4 C5_4 1_555 1_555
C9_6 C8_4 1_555 1_555
H3_4 C6_4 1_555 1_555
H5_4 C8_4 1_555 1_555
H6_4 C8_4 1_555 1_555
H7_4 C9_6 1_555 1_555
C15_4 C14_4 1_555 1_555
C17_4 C9_6 1_555 1_555
H10_4 C15_4 1_555 1_555
H12_4 C17_4 1_555 1_555
H13_4 C17_4 1_555 1_555
H14_4 C9_6 1_555 1_555
C14_4 C17_4 1_555 1_555

#END
