
###############################################################################
#
# This file contains modified crystal structure data generated from the
# MOF subset of the Cambridge Structural Database (CSD) v543 
# hosted by the Cambridge Crystallographic Data Centre (CCDC).
#
# This work is licensed under the Creative Commons
# Attribution-NonCommercial-ShareAlike 4.0 International License.
# To view a copy of this license, visit
# http://creativecommons.org/licenses/by-nc-sa/4.0/
# or send a letter to
# Creative Commons, PO Box 1866, Mountain View, CA 94042, USA.
#
# CIF created using the CSD Python API on 29 September 2022
# The structure has been converted into the P1 space group
# The structure has a 3D framework
# The original CSD entry ADABEO is in the monoclinic crystal system
# The framework has been calculated to contain at least 10.0% void space
# The void calculation uses a probe of radius 1.32A, grid spacing 0.4
#
###############################################################################

data_ADABEO
_chemical_formula_moiety         '(C70 H56 Cu8 N40 O16)n'
_symmetry_cell_setting           triclinic
_symmetry_space_group_name_H-M   'P 1'
_symmetry_Int_Tables_number      1
_space_group_name_Hall           'P 1'
loop_
_symmetry_equiv_pos_site_id
_symmetry_equiv_pos_as_xyz
1 x,y,z
_cell_length_a                   28.548(6)
_cell_length_b                   9.4032(19)
_cell_length_c                   9.2876(17)
_cell_angle_alpha                90
_cell_angle_beta                 117.043(10)
_cell_angle_gamma                90
_cell_volume                     2220.6
loop_
_atom_site_label
_atom_site_type_symbol
_atom_site_fract_x
_atom_site_fract_y
_atom_site_fract_z
_atom_site_U_iso_or_equiv
_atom_site_thermal_displace_type
N2 N 0.2578(8) 0.051(3) 0.343(2) 0.0900 Uiso
N3 N 0.2584(8) 0.144(2) 0.237(4) 0.0900 Uiso
N4 N 0.2211(11) 0.112(2) 0.090(3) 0.0900 Uiso
Cu3 Cu 0.3092(6) 0.3245(16) 0.161(2) 0.0900 Uiso
Cu4 Cu 0.1908(6) 0.1755(16) 0.839(2) 0.0900 Uiso
Cu1 Cu 0.1908(6) 0.8245(16) 0.339(2) 0.0900 Uiso
O2 O 0.1515(12) 0.814(4) 0.079(2) 0.0900 Uiso
N1 N 0.2193(10) 0.957(3) 0.2616(12) 0.0900 Uiso
N5 N 0.1318(7) 0.6789(14) 0.315(2) 0.0900 Uiso
C2 C 0.1976(5) 0.9964(17) 0.1079(14) 0.0900 Uiso
C3 C 0.0987(10) 0.7255(15) 0.371(3) 0.0900 Uiso
C4 C 0.0644(8) 0.639(2) 0.400(3) 0.0900 Uiso
C5 C 0.0648(4) 0.4949(18) 0.3684(9) 0.0900 Uiso
C6 C 0.0985(5) 0.4430(14) 0.310(2) 0.0900 Uiso
C7 C 0.1313(6) 0.5385(14) 0.285(2) 0.0900 Uiso
C8 C 0.0286(3) 0.394(2) 0.39717(18) 0.0900 Uiso
C9 C 0.00000 0.302(2) 0.25000 0.0900 Uiso
H1 H 0.098749 0.825409 0.392677 0.1077 Uiso
H2 H 0.041476 0.677491 0.440637 0.1077 Uiso
H3 H 0.099202 0.343598 0.287633 0.1077 Uiso
H4 H 0.154586 0.502762 0.244666 0.1077 Uiso
H5 H 0.004096 0.447135 0.416514 0.1077 Uiso
H6 H 0.048518 0.336928 0.487348 0.1077 Uiso
H7 H 0.02337 0.24148 0.23773 0.1077 Uiso
Cu6 Cu 0.3092(6) 0.6755(16) 0.661(2) 0.0900 Uiso
O3 O 0.375 0.425 0.66 0.0900 Uiso
O4 O 0.3485(12) 0.314(4) 0.421(2) 0.0900 Uiso
N6 N 0.2807(10) 0.457(3) 0.2384(12) 0.0900 Uiso
N7 N 0.2422(8) 0.551(3) 0.157(2) 0.0900 Uiso
N8 N 0.2416(8) 0.644(2) 0.263(4) 0.0900 Uiso
N10 N 0.2789(11) 0.612(2) 0.410(3) 0.0900 Uiso
N11 N 0.2211(11) 0.888(2) 0.590(3) 0.0900 Uiso
N14 N 0.3682(7) 0.1789(14) 0.185(2) 0.0900 Uiso
C10 C 0.3470(4) 0.411(2) 0.5139(3) 0.0900 Uiso
C11 C 0.3024(5) 0.4964(17) 0.3921(14) 0.0900 Uiso
O1 O 0.125 0.925 0.84 0.0900 Uiso
C1 C 0.1530(4) 0.911(2) 0.9861(3) 0.0900 Uiso
N12 N 0.2789(11) 0.388(2) 0.910(3) 0.0900 Uiso
C9_2 C 1.00000 0.302(2) 0.25000 0.0900 Uiso
Cu5 Cu 0.8092(6) 0.8245(16) 0.161(2) 0.0900 Uiso
N13 N 0.8682(7) 0.6789(14) 0.185(2) 0.0900 Uiso
C12 C 0.9013(10) 0.7255(15) 0.129(3) 0.0900 Uiso
C13 C 0.9356(8) 0.639(2) 0.100(3) 0.0900 Uiso
C14 C 0.9352(4) 0.4949(18) 0.1316(9) 0.0900 Uiso
C15 C 0.9015(5) 0.4430(14) 0.190(2) 0.0900 Uiso
C16 C 0.8687(6) 0.5385(14) 0.215(2) 0.0900 Uiso
C17 C 0.9714(3) 0.394(2) 0.10283(18) 0.0900 Uiso
H8 H 0.901251 0.825409 0.107323 0.1077 Uiso
H9 H 0.958524 0.677491 0.059363 0.1077 Uiso
H10 H 0.900798 0.343598 0.212367 0.1077 Uiso
H11 H 0.845414 0.502762 0.255334 0.1077 Uiso
H12 H 0.995904 0.447135 0.083486 0.1077 Uiso
H13 H 0.951482 0.336928 0.012652 0.1077 Uiso
H14 H 0.97663 0.24148 0.26227 0.1077 Uiso
N2_2 N 0.7422(8) 0.051(3) 0.157(2) 0.0900 Uiso
N3_2 N 0.7416(8) 0.144(2) 0.263(4) 0.0900 Uiso
N4_2 N 0.7789(11) 0.112(2) 0.410(3) 0.0900 Uiso
Cu3_2 Cu 0.6908(6) 0.3245(16) 0.339(2) 0.0900 Uiso
Cu4_2 Cu 0.8092(6) 0.1755(16) 0.661(2) 0.0900 Uiso
O1_2 O 0.875 0.925 0.66 0.0900 Uiso
O2_2 O 0.8485(12) 0.814(4) 0.421(2) 0.0900 Uiso
N1_2 N 0.7807(10) 0.957(3) 0.2384(12) 0.0900 Uiso
C1_2 C 0.8470(4) 0.911(2) 0.5139(3) 0.0900 Uiso
C2_2 C 0.8024(5) 0.9964(17) 0.3921(14) 0.0900 Uiso
O4_2 O 0.6515(12) 0.314(4) 0.079(2) 0.0900 Uiso
N6_2 N 0.7193(10) 0.457(3) 0.2616(12) 0.0900 Uiso
N7_2 N 0.7578(8) 0.551(3) 0.343(2) 0.0900 Uiso
N8_2 N 0.7584(8) 0.644(2) 0.237(4) 0.0900 Uiso
N10_2 N 0.7211(11) 0.612(2) 0.090(3) 0.0900 Uiso
N12_2 N 0.7211(11) 0.388(2) 0.590(3) 0.0900 Uiso
N14_2 N 0.6318(7) 0.1789(14) 0.315(2) 0.0900 Uiso
C11_2 C 0.6976(5) 0.4964(17) 0.1079(14) 0.0900 Uiso
Cu6_2 Cu 0.6908(6) 0.6755(16) 0.839(2) 0.0900 Uiso
O3_2 O 0.625 0.425 0.84 0.0900 Uiso
N11_2 N 0.7789(11) 0.888(2) 0.910(3) 0.0900 Uiso
C10_2 C 0.6530(4) 0.411(2) 0.9861(3) 0.0900 Uiso
C3_2 C 0.5987(10) 0.2255(15) 0.371(3) 0.0900 Uiso
C4_2 C 0.5644(8) 0.139(2) 0.400(3) 0.0900 Uiso
C7_2 C 0.6313(6) 0.0385(14) 0.285(2) 0.0900 Uiso
H1_2 H 0.598749 0.325409 0.392677 0.1077 Uiso
H2_2 H 0.541476 0.177491 0.440637 0.1077 Uiso
H4_2 H 0.654586 0.002762 0.244666 0.1077 Uiso
C12_2 C 0.4013(10) 0.2255(15) 0.129(3) 0.0900 Uiso
C13_2 C 0.4356(8) 0.139(2) 0.100(3) 0.0900 Uiso
C16_2 C 0.3687(6) 0.0385(14) 0.215(2) 0.0900 Uiso
H8_2 H 0.401251 0.325409 0.107323 0.1077 Uiso
H9_2 H 0.458524 0.177491 0.059363 0.1077 Uiso
H11_2 H 0.345414 0.002762 0.255334 0.1077 Uiso
C5_2 C 0.5648(4) 0.9949(18) 0.3684(9) 0.0900 Uiso
C6_2 C 0.5985(5) 0.9430(14) 0.310(2) 0.0900 Uiso
C8_2 C 0.5286(3) 0.894(2) 0.39717(18) 0.0900 Uiso
C9_3 C 0.50000 0.802(2) 0.25000 0.0900 Uiso
H3_2 H 0.599202 0.843598 0.287633 0.1077 Uiso
H5_2 H 0.504096 0.947135 0.416514 0.1077 Uiso
H6_2 H 0.548518 0.836928 0.487348 0.1077 Uiso
H7_2 H 0.52337 0.74148 0.23773 0.1077 Uiso
C14_2 C 0.4352(4) 0.9949(18) 0.1316(9) 0.0900 Uiso
C15_2 C 0.4015(5) 0.9430(14) 0.190(2) 0.0900 Uiso
C17_2 C 0.4714(3) 0.894(2) 0.10283(18) 0.0900 Uiso
H10_2 H 0.400798 0.843598 0.212367 0.1077 Uiso
H12_2 H 0.495904 0.947135 0.083486 0.1077 Uiso
H13_2 H 0.451482 0.836928 0.012652 0.1077 Uiso
H14_2 H 0.47663 0.74148 0.26227 0.1077 Uiso
C9_4 C -0.00000 0.698(2) 0.75000 0.0900 Uiso
N13_2 N 0.1318(7) 0.3211(14) 0.815(2) 0.0900 Uiso
C12_3 C 0.0987(10) 0.2745(15) 0.871(3) 0.0900 Uiso
C13_3 C 0.0644(8) 0.361(2) 0.900(3) 0.0900 Uiso
C14_3 C 0.0648(4) 0.5051(18) 0.8684(9) 0.0900 Uiso
C15_3 C 0.0985(5) 0.5570(14) 0.810(2) 0.0900 Uiso
C16_3 C 0.1313(6) 0.4615(14) 0.785(2) 0.0900 Uiso
C17_3 C 0.0286(3) 0.606(2) 0.89717(18) 0.0900 Uiso
H8_3 H 0.098749 0.174591 0.892677 0.1077 Uiso
H9_3 H 0.041476 0.322509 0.940637 0.1077 Uiso
H10_3 H 0.099202 0.656402 0.787633 0.1077 Uiso
H11_3 H 0.154586 0.497238 0.744666 0.1077 Uiso
H12_3 H 0.004096 0.552865 0.916514 0.1077 Uiso
H13_3 H 0.048518 0.663072 0.987348 0.1077 Uiso
H14_3 H 0.02337 0.75852 0.73773 0.1077 Uiso
O1_3 O 0.875 0.075 0.16 0.0900 Uiso
C1_3 C 0.8470(4) 0.089(2) 0.0139(3) 0.0900 Uiso
O2_3 O 0.8485(12) 0.186(4) 0.921(2) 0.0900 Uiso
N1_3 N 0.7807(10) 0.043(3) 0.7384(12) 0.0900 Uiso
N5_2 N 0.8682(7) 0.3211(14) 0.685(2) 0.0900 Uiso
C2_3 C 0.8024(5) 0.0036(17) 0.8921(14) 0.0900 Uiso
C3_3 C 0.9013(10) 0.2745(15) 0.629(3) 0.0900 Uiso
C4_3 C 0.9356(8) 0.361(2) 0.600(3) 0.0900 Uiso
C5_3 C 0.9352(4) 0.5051(18) 0.6316(9) 0.0900 Uiso
C6_3 C 0.9015(5) 0.5570(14) 0.690(2) 0.0900 Uiso
C7_3 C 0.8687(6) 0.4615(14) 0.715(2) 0.0900 Uiso
C8_3 C 0.9714(3) 0.606(2) 0.60283(18) 0.0900 Uiso
C9_5 C 1.00000 0.698(2) 0.75000 0.0900 Uiso
H1_3 H 0.901251 0.174591 0.607323 0.1077 Uiso
H2_3 H 0.958524 0.322509 0.559363 0.1077 Uiso
H3_3 H 0.900798 0.656402 0.712367 0.1077 Uiso
H4_3 H 0.845414 0.497238 0.755334 0.1077 Uiso
H5_3 H 0.995904 0.552865 0.583486 0.1077 Uiso
H6_3 H 0.951482 0.663072 0.512652 0.1077 Uiso
H7_3 H 0.97663 0.75852 0.76227 0.1077 Uiso
O3_3 O 0.625 0.575 0.34 0.0900 Uiso
O4_3 O 0.6515(12) 0.686(4) 0.579(2) 0.0900 Uiso
N6_3 N 0.7193(10) 0.543(3) 0.7616(12) 0.0900 Uiso
N7_3 N 0.7578(8) 0.449(3) 0.843(2) 0.0900 Uiso
N8_3 N 0.7584(8) 0.356(2) 0.737(4) 0.0900 Uiso
N9 N 0.7416(8) 0.856(2) 0.763(4) 0.0900 Uiso
N14_3 N 0.6318(7) 0.8211(14) 0.815(2) 0.0900 Uiso
C10_3 C 0.6530(4) 0.589(2) 0.4861(3) 0.0900 Uiso
C11_3 C 0.6976(5) 0.5036(17) 0.6079(14) 0.0900 Uiso
N2_3 N 0.7422(8) 0.949(3) 0.657(2) 0.0900 Uiso
O3_4 O 0.375 0.575 0.16 0.0900 Uiso
C10_4 C 0.3470(4) 0.589(2) 0.0139(3) 0.0900 Uiso
O1_4 O 0.125 0.075 0.34 0.0900 Uiso
O2_4 O 0.1515(12) 0.186(4) 0.579(2) 0.0900 Uiso
N1_4 N 0.2193(10) 0.043(3) 0.7616(12) 0.0900 Uiso
C1_4 C 0.1530(4) 0.089(2) 0.4861(3) 0.0900 Uiso
C2_4 C 0.1976(5) 0.0036(17) 0.6079(14) 0.0900 Uiso
O4_4 O 0.3485(12) 0.686(4) 0.921(2) 0.0900 Uiso
N6_4 N 0.2807(10) 0.543(3) 0.7384(12) 0.0900 Uiso
N7_4 N 0.2422(8) 0.449(3) 0.657(2) 0.0900 Uiso
N8_4 N 0.2416(8) 0.356(2) 0.763(4) 0.0900 Uiso
N9_2 N 0.2584(8) 0.856(2) 0.737(4) 0.0900 Uiso
N14_4 N 0.3682(7) 0.8211(14) 0.685(2) 0.0900 Uiso
C11_4 C 0.3024(5) 0.5036(17) 0.8921(14) 0.0900 Uiso
N2_4 N 0.2578(8) 0.949(3) 0.843(2) 0.0900 Uiso
C5_4 C 0.4352(4) 0.0051(18) 0.6316(9) 0.0900 Uiso
C6_4 C 0.4015(5) 0.0570(14) 0.690(2) 0.0900 Uiso
C8_4 C 0.4714(3) 0.106(2) 0.60283(18) 0.0900 Uiso
C9_6 C 0.50000 0.198(2) 0.75000 0.0900 Uiso
H3_4 H 0.400798 0.156402 0.712367 0.1077 Uiso
H5_4 H 0.495904 0.052865 0.583486 0.1077 Uiso
H6_4 H 0.451482 0.163072 0.512652 0.1077 Uiso
H7_4 H 0.47663 0.25852 0.76227 0.1077 Uiso
C14_4 C 0.5648(4) 0.0051(18) 0.8684(9) 0.0900 Uiso
C15_4 C 0.5985(5) 0.0570(14) 0.810(2) 0.0900 Uiso
C17_4 C 0.5286(3) 0.106(2) 0.89717(18) 0.0900 Uiso
H10_4 H 0.599202 0.156402 0.787633 0.1077 Uiso
H12_4 H 0.504096 0.052865 0.916514 0.1077 Uiso
H13_4 H 0.548518 0.163072 0.987348 0.1077 Uiso
H14_4 H 0.52337 0.25852 0.73773 0.1077 Uiso
C3_4 C 0.4013(10) 0.7745(15) 0.629(3) 0.0900 Uiso
C4_4 C 0.4356(8) 0.861(2) 0.600(3) 0.0900 Uiso
C7_4 C 0.3687(6) 0.9615(14) 0.715(2) 0.0900 Uiso
H1_4 H 0.401251 0.674591 0.607323 0.1077 Uiso
H2_4 H 0.458524 0.822509 0.559363 0.1077 Uiso
H4_4 H 0.345414 0.997238 0.755334 0.1077 Uiso
C12_4 C 0.5987(10) 0.7745(15) 0.871(3) 0.0900 Uiso
C13_4 C 0.5644(8) 0.861(2) 0.900(3) 0.0900 Uiso
C16_4 C 0.6313(6) 0.9615(14) 0.785(2) 0.0900 Uiso
H8_4 H 0.598749 0.674591 0.892677 0.1077 Uiso
H9_4 H 0.541476 0.822509 0.940637 0.1077 Uiso
H11_4 H 0.654586 0.997238 0.744666 0.1077 Uiso
loop_
_geom_bond_atom_site_label_1
_geom_bond_atom_site_label_2
_geom_bond_site_symmetry_1
_geom_bond_site_symmetry_2
N3 N2 1_555 1_555
N4 N3 1_555 1_555
Cu3 N3 1_555 1_555
Cu1 O2 1_555 1_555
N1 Cu1 1_555 1_555
N5 Cu1 1_555 1_555
C2 N1 1_555 1_555
C3 N5 1_555 1_555
C4 C3 1_555 1_555
C5 C4 1_555 1_555
C6 C5 1_555 1_555
C7 N5 1_555 1_555
C8 C5 1_555 1_555
C9 C8 1_555 1_555
H1 C3 1_555 1_555
H2 C4 1_555 1_555
H3 C6 1_555 1_555
H4 C7 1_555 1_555
H5 C8 1_555 1_555
H6 C8 1_555 1_555
H7 C9 1_555 1_555
Cu3 O4 1_555 1_555
Cu6 N10 1_555 1_555
O3 C10 1_555 1_555
O4 C10 1_555 1_555
N6 Cu3 1_555 1_555
N7 N6 1_555 1_555
N8 Cu1 1_555 1_555
N10 N8 1_555 1_555
N11 Cu1 1_555 1_555
N14 Cu3 1_555 1_555
C10 C11 1_555 1_555
C11 N6 1_555 1_555
C6 C7 1_555 1_555
N7 N8 1_555 1_555
N10 C11 1_555 1_555
O1 C1 1_555 1_555
Cu5 N13 1_555 1_555
N13 C12 1_555 1_555
C12 C13 1_555 1_555
C13 C14 1_555 1_555
C14 C15 1_555 1_555
C15 C16 1_555 1_555
C16 N13 1_555 1_555
C17 C9_2 1_555 1_555
H8 C12 1_555 1_555
H9 C13 1_555 1_555
H10 C15 1_555 1_555
H11 C16 1_555 1_555
H12 C17 1_555 1_555
H13 C17 1_555 1_555
H14 C9_2 1_555 1_555
C14 C17 1_555 1_555
N3_2 N2_2 1_555 1_555
N4_2 N3_2 1_555 1_555
Cu3_2 N3_2 1_555 1_555
Cu4_2 N4_2 1_555 1_555
Cu5 O2_2 1_555 1_555
O1_2 C1_2 1_555 1_555
O2_2 C1_2 1_555 1_555
N1_2 Cu5 1_555 1_555
C1_2 C2_2 1_555 1_555
C2_2 N1_2 1_555 1_555
Cu3_2 O4_2 1_555 1_555
N6_2 Cu3_2 1_555 1_555
N7_2 N6_2 1_555 1_555
N8_2 Cu5 1_555 1_555
N10_2 N8_2 1_555 1_555
N12_2 Cu3_2 1_555 1_555
N14_2 Cu3_2 1_555 1_555
C11_2 N6_2 1_555 1_555
N7_2 N8_2 1_555 1_555
N10_2 C11_2 1_555 1_555
O3_2 C10_2 1_555 1_555
C3_2 N14_2 1_555 1_555
C4_2 C3_2 1_555 1_555
C7_2 N14_2 1_555 1_555
H1_2 C3_2 1_555 1_555
H2_2 C4_2 1_555 1_555
H4_2 C7_2 1_555 1_555
N14 C12_2 1_555 1_555
C12_2 C13_2 1_555 1_555
C16_2 N14 1_555 1_555
H8_2 C12_2 1_555 1_555
H9_2 C13_2 1_555 1_555
H11_2 C16_2 1_555 1_555
C6_2 C5_2 1_555 1_555
C8_2 C5_2 1_555 1_555
C9_3 C8_2 1_555 1_555
H3_2 C6_2 1_555 1_555
H5_2 C8_2 1_555 1_555
H6_2 C8_2 1_555 1_555
H7_2 C9_3 1_555 1_555
C14_2 C15_2 1_555 1_555
C17_2 C9_3 1_555 1_555
H10_2 C15_2 1_555 1_555
H12_2 C17_2 1_555 1_555
H13_2 C17_2 1_555 1_555
H14_2 C9_3 1_555 1_555
C14_2 C17_2 1_555 1_555
Cu4 N13_2 1_555 1_555
N13_2 C12_3 1_555 1_555
C12_3 C13_3 1_555 1_555
C13_3 C14_3 1_555 1_555
C14_3 C15_3 1_555 1_555
C15_3 C16_3 1_555 1_555
C16_3 N13_2 1_555 1_555
C17_3 C9_4 1_555 1_555
H8_3 C12_3 1_555 1_555
H9_3 C13_3 1_555 1_555
H10_3 C15_3 1_555 1_555
H11_3 C16_3 1_555 1_555
H12_3 C17_3 1_555 1_555
H13_3 C17_3 1_555 1_555
H14_3 C9_4 1_555 1_555
C14_3 C17_3 1_555 1_555
O1_3 C1_3 1_555 1_555
Cu4_2 O2_3 1_555 1_555
N1_3 Cu4_2 1_555 1_555
N5_2 Cu4_2 1_555 1_555
C2_3 N1_3 1_555 1_555
C3_3 N5_2 1_555 1_555
C4_3 C3_3 1_555 1_555
C5_3 C4_3 1_555 1_555
C6_3 C5_3 1_555 1_555
C7_3 N5_2 1_555 1_555
C8_3 C5_3 1_555 1_555
C9_5 C8_3 1_555 1_555
H1_3 C3_3 1_555 1_555
H2_3 C4_3 1_555 1_555
H3_3 C6_3 1_555 1_555
H4_3 C7_3 1_555 1_555
H5_3 C8_3 1_555 1_555
H6_3 C8_3 1_555 1_555
H7_3 C9_5 1_555 1_555
Cu6_2 O4_3 1_555 1_555
O3_3 C10_3 1_555 1_555
O4_3 C10_3 1_555 1_555
N6_3 Cu6_2 1_555 1_555
N7_3 N6_3 1_555 1_555
N8_3 Cu4_2 1_555 1_555
N9 Cu6_2 1_555 1_555
N12_2 N8_3 1_555 1_555
N14_3 Cu6_2 1_555 1_555
C10_3 C11_3 1_555 1_555
C11_3 N6_3 1_555 1_555
C6_3 C7_3 1_555 1_555
N7_3 N8_3 1_555 1_555
N12_2 C11_3 1_555 1_555
N9 N2_3 1_555 1_555
N11_2 N9 1_555 1_555
O3_4 C10_4 1_555 1_555
Cu4 O2_4 1_555 1_555
O1_4 C1_4 1_555 1_555
O2_4 C1_4 1_555 1_555
N1_4 Cu4 1_555 1_555
C1_4 C2_4 1_555 1_555
C2_4 N1_4 1_555 1_555
Cu6 O4_4 1_555 1_555
N6_4 Cu6 1_555 1_555
N7_4 N6_4 1_555 1_555
N8_4 Cu4 1_555 1_555
N9_2 Cu6 1_555 1_555
N12 N8_4 1_555 1_555
N14_4 Cu6 1_555 1_555
C11_4 N6_4 1_555 1_555
N7_4 N8_4 1_555 1_555
N12 C11_4 1_555 1_555
N9_2 N2_4 1_555 1_555
N11 N9_2 1_555 1_555
C6_4 C5_4 1_555 1_555
C8_4 C5_4 1_555 1_555
C9_6 C8_4 1_555 1_555
H3_4 C6_4 1_555 1_555
H5_4 C8_4 1_555 1_555
H6_4 C8_4 1_555 1_555
H7_4 C9_6 1_555 1_555
C14_4 C15_4 1_555 1_555
C17_4 C9_6 1_555 1_555
H10_4 C15_4 1_555 1_555
H12_4 C17_4 1_555 1_555
H13_4 C17_4 1_555 1_555
H14_4 C9_6 1_555 1_555
C14_4 C17_4 1_555 1_555
C3_4 N14_4 1_555 1_555
C4_4 C3_4 1_555 1_555
C7_4 N14_4 1_555 1_555
H1_4 C3_4 1_555 1_555
H2_4 C4_4 1_555 1_555
H4_4 C7_4 1_555 1_555
N14_3 C12_4 1_555 1_555
C12_4 C13_4 1_555 1_555
C16_4 N14_3 1_555 1_555
H8_4 C12_4 1_555 1_555
H9_4 C13_4 1_555 1_555
H11_4 C16_4 1_555 1_555

#END
