
###############################################################################
#
# This file contains modified crystal structure data generated from the
# MOF subset of the Cambridge Structural Database (CSD) v543 
# hosted by the Cambridge Crystallographic Data Centre (CCDC).
#
# This work is licensed under the Creative Commons
# Attribution-NonCommercial-ShareAlike 4.0 International License.
# To view a copy of this license, visit
# http://creativecommons.org/licenses/by-nc-sa/4.0/
# or send a letter to
# Creative Commons, PO Box 1866, Mountain View, CA 94042, USA.
#
# CIF created using the CSD Python API on 29 September 2022
# The structure has been converted into the P1 space group
# The structure has a 3D framework
# The original CSD entry ADABIS is in the monoclinic crystal system
# The framework has been calculated to contain at least 10.0% void space
# The void calculation uses a probe of radius 1.32A, grid spacing 0.4
#
###############################################################################

data_ADABIS
_chemical_formula_moiety         '(C70 H56 Cu8 N40 O16)n'
_symmetry_cell_setting           triclinic
_symmetry_space_group_name_H-M   'P 1'
_symmetry_Int_Tables_number      1
_space_group_name_Hall           'P 1'
loop_
_symmetry_equiv_pos_site_id
_symmetry_equiv_pos_as_xyz
1 x,y,z
_cell_length_a                   28.561(5)
_cell_length_b                   9.3537(18)
_cell_length_c                   9.2553(15)
_cell_angle_alpha                90
_cell_angle_beta                 116.753(10)
_cell_angle_gamma                90
_cell_volume                     2207.89
loop_
_atom_site_label
_atom_site_type_symbol
_atom_site_fract_x
_atom_site_fract_y
_atom_site_fract_z
_atom_site_U_iso_or_equiv
_atom_site_thermal_displace_type
O1 O 0.1252(16) 0.103(4) 0.384(4) 0.0790 Uiso
O2 O 0.1445(16) 0.185(4) 0.634(4) 0.0790 Uiso
N1 N 0.2254(10) 0.021(3) 0.775(3) 0.0790 Uiso
C1 C 0.1508(7) 0.106(2) 0.532(4) 0.0790 Uiso
C2 C 0.1960(6) 0.0065(19) 0.617(2) 0.0790 Uiso
Cu4 Cu 0.1923(5) 0.172(2) 0.846(2) 0.0790 Uiso
Cu1 Cu 0.1923(5) 0.828(2) 0.346(2) 0.0790 Uiso
N2 N 0.2627(9) 0.920(4) 0.819(3) 0.0790 Uiso
N3 N 0.2549(10) 0.847(3) 0.687(4) 0.0790 Uiso
N4 N 0.2135(11) 0.900(3) 0.561(3) 0.0790 Uiso
N5 N 0.1410(9) 0.6864(16) 0.380(3) 0.0790 Uiso
C3 C 0.0957(9) 0.7389(15) 0.3695(19) 0.0790 Uiso
C4 C 0.0560(7) 0.6564(18) 0.3748(12) 0.0790 Uiso
C5 C 0.0643(4) 0.5096(18) 0.3923(10) 0.0790 Uiso
C6 C 0.1107(4) 0.4518(15) 0.404(2) 0.0790 Uiso
C7 C 0.1479(6) 0.5438(16) 0.397(3) 0.0790 Uiso
C8 C 0.0230(3) 0.413(2) 0.39913(10) 0.0790 Uiso
C9 C 0.00000 0.320(2) 0.25000 0.0790 Uiso
H1 H 0.090363 0.840446 0.35738 0.0947 Uiso
H2 H 0.024317 0.698776 0.366799 0.0947 Uiso
H3 H 0.116877 0.35058 0.415838 0.0947 Uiso
H4 H 0.179896 0.503917 0.404751 0.0947 Uiso
H6 H 0.038239 0.355018 0.491833 0.0947 Uiso
H7 H 0.02337 0.24148 0.23773 0.0947 Uiso
Cu5 Cu 0.3077(5) 0.672(2) 0.654(2) 0.0790 Uiso
O6 O 0.1445(16) 0.815(4) 0.134(4) 0.0790 Uiso
N8 N 0.2254(10) 0.979(3) 0.275(3) 0.0790 Uiso
N11 N 0.2451(10) 0.653(3) 0.313(4) 0.0790 Uiso
H12 H 0.003708 0.46889 0.096485 0.0947 Uiso
Cu3 Cu 0.8077(5) 0.172(2) 0.654(2) 0.0790 Uiso
O4 O 0.8555(16) 0.185(4) 0.866(4) 0.0790 Uiso
N6 N 0.7746(10) 0.021(3) 0.725(3) 0.0790 Uiso
C10 C 0.8492(7) 0.106(2) 0.968(4) 0.0790 Uiso
C11 C 0.8040(6) 0.0065(19) 0.883(2) 0.0790 Uiso
C9_2 C 1.00000 0.320(2) 0.25000 0.0790 Uiso
H5 H 0.996292 0.46889 0.403515 0.0947 Uiso
Cu2 Cu 0.8077(5) 0.828(2) 0.154(2) 0.0790 Uiso
O5 O 0.8555(16) 0.815(4) 0.366(4) 0.0790 Uiso
N7 N 0.7746(10) 0.979(3) 0.225(3) 0.0790 Uiso
N12 N 0.7549(10) 0.653(3) 0.187(4) 0.0790 Uiso
N14 N 0.8590(9) 0.6864(16) 0.120(3) 0.0790 Uiso
C12 C 0.9043(9) 0.7389(15) 0.1305(19) 0.0790 Uiso
C13 C 0.9440(7) 0.6564(18) 0.1252(12) 0.0790 Uiso
C14 C 0.9357(4) 0.5096(18) 0.1077(10) 0.0790 Uiso
C15 C 0.8893(4) 0.4518(15) 0.096(2) 0.0790 Uiso
C16 C 0.8521(6) 0.5438(16) 0.103(3) 0.0790 Uiso
C17 C 0.9770(3) 0.413(2) 0.10087(10) 0.0790 Uiso
H8 H 0.909637 0.840446 0.14262 0.0947 Uiso
H9 H 0.975683 0.698776 0.133201 0.0947 Uiso
H10 H 0.883123 0.35058 0.084162 0.0947 Uiso
H11 H 0.820104 0.503917 0.095249 0.0947 Uiso
H13 H 0.961761 0.355018 0.008167 0.0947 Uiso
H14 H 0.97663 0.24148 0.26227 0.0947 Uiso
Cu6 Cu 0.6923(5) 0.672(2) 0.846(2) 0.0790 Uiso
N9 N 0.7373(9) 0.920(4) 0.681(3) 0.0790 Uiso
N10 N 0.7451(10) 0.847(3) 0.813(4) 0.0790 Uiso
N13 N 0.7865(11) 0.900(3) 0.939(3) 0.0790 Uiso
Cu1_2 Cu 0.6923(5) 0.328(2) 0.346(2) 0.0790 Uiso
O1_2 O 0.6252(16) 0.603(4) 0.384(4) 0.0790 Uiso
O2_2 O 0.6445(16) 0.685(4) 0.634(4) 0.0790 Uiso
N1_2 N 0.7254(10) 0.521(3) 0.775(3) 0.0790 Uiso
N2_2 N 0.7627(9) 0.420(4) 0.819(3) 0.0790 Uiso
N3_2 N 0.7549(10) 0.347(3) 0.687(4) 0.0790 Uiso
N4_2 N 0.7135(11) 0.400(3) 0.561(3) 0.0790 Uiso
N5_2 N 0.6410(9) 0.1864(16) 0.380(3) 0.0790 Uiso
C1_2 C 0.6508(7) 0.606(2) 0.532(4) 0.0790 Uiso
C2_2 C 0.6960(6) 0.5065(19) 0.617(2) 0.0790 Uiso
C3_2 C 0.5957(9) 0.2389(15) 0.3695(19) 0.0790 Uiso
C4_2 C 0.5560(7) 0.1564(18) 0.3748(12) 0.0790 Uiso
C5_2 C 0.5643(4) 0.0096(18) 0.3923(10) 0.0790 Uiso
C7_2 C 0.6479(6) 0.0438(16) 0.397(3) 0.0790 Uiso
H1_2 H 0.590363 0.340446 0.35738 0.0947 Uiso
H2_2 H 0.524317 0.198776 0.366799 0.0947 Uiso
H4_2 H 0.679896 0.003917 0.404751 0.0947 Uiso
Cu2_2 Cu 0.3077(5) 0.328(2) 0.154(2) 0.0790 Uiso
O3 O 0.3748(16) 0.603(4) 0.116(4) 0.0790 Uiso
O5_2 O 0.3555(16) 0.315(4) 0.366(4) 0.0790 Uiso
O6_2 O 0.6445(16) 0.315(4) 0.134(4) 0.0790 Uiso
N7_2 N 0.2746(10) 0.479(3) 0.225(3) 0.0790 Uiso
N8_2 N 0.7254(10) 0.479(3) 0.275(3) 0.0790 Uiso
N11_2 N 0.7451(10) 0.153(3) 0.313(4) 0.0790 Uiso
N12_2 N 0.2549(10) 0.153(3) 0.187(4) 0.0790 Uiso
N14_2 N 0.3590(9) 0.1864(16) 0.120(3) 0.0790 Uiso
C12_2 C 0.4043(9) 0.2389(15) 0.1305(19) 0.0790 Uiso
C13_2 C 0.4440(7) 0.1564(18) 0.1252(12) 0.0790 Uiso
C14_2 C 0.4357(4) 0.0096(18) 0.1077(10) 0.0790 Uiso
C16_2 C 0.3521(6) 0.0438(16) 0.103(3) 0.0790 Uiso
H8_2 H 0.409637 0.340446 0.14262 0.0947 Uiso
H9_2 H 0.475683 0.198776 0.133201 0.0947 Uiso
H11_2 H 0.320104 0.003917 0.095249 0.0947 Uiso
O4_2 O 0.3555(16) 0.685(4) 0.866(4) 0.0790 Uiso
N6_2 N 0.2746(10) 0.521(3) 0.725(3) 0.0790 Uiso
N9_2 N 0.2373(9) 0.420(4) 0.681(3) 0.0790 Uiso
N10_2 N 0.2451(10) 0.347(3) 0.813(4) 0.0790 Uiso
N13_2 N 0.2865(11) 0.400(3) 0.939(3) 0.0790 Uiso
C10_2 C 0.3492(7) 0.606(2) 0.968(4) 0.0790 Uiso
C11_2 C 0.3040(6) 0.5065(19) 0.883(2) 0.0790 Uiso
N9_3 N 0.2627(9) 0.080(4) 0.319(3) 0.0790 Uiso
N13_3 N 0.2135(11) 0.100(3) 0.061(3) 0.0790 Uiso
C9_3 C -0.00000 0.680(2) 0.75000 0.0790 Uiso
H5_2 H 0.003708 0.53111 0.596485 0.0947 Uiso
N14_3 N 0.1410(9) 0.3136(16) 0.880(3) 0.0790 Uiso
C12_3 C 0.0957(9) 0.2611(15) 0.8695(19) 0.0790 Uiso
C13_3 C 0.0560(7) 0.3436(18) 0.8748(12) 0.0790 Uiso
C14_3 C 0.0643(4) 0.4904(18) 0.8923(10) 0.0790 Uiso
C15_2 C 0.1107(4) 0.5482(15) 0.904(2) 0.0790 Uiso
C16_3 C 0.1479(6) 0.4562(16) 0.897(3) 0.0790 Uiso
C17_2 C 0.0230(3) 0.587(2) 0.89913(10) 0.0790 Uiso
H8_3 H 0.090363 0.159554 0.85738 0.0947 Uiso
H9_3 H 0.024317 0.301224 0.866799 0.0947 Uiso
H10_2 H 0.116877 0.64942 0.915838 0.0947 Uiso
H11_3 H 0.179896 0.496083 0.904751 0.0947 Uiso
H13_2 H 0.038239 0.644982 0.991833 0.0947 Uiso
H14_2 H 0.02337 0.75852 0.73773 0.0947 Uiso
C10_3 C 0.1508(7) 0.894(2) 0.032(4) 0.0790 Uiso
C11_3 C 0.1960(6) 0.9935(19) 0.117(2) 0.0790 Uiso
N2_3 N 0.7373(9) 0.080(4) 0.181(3) 0.0790 Uiso
N4_3 N 0.7865(11) 0.100(3) 0.439(3) 0.0790 Uiso
N5_3 N 0.8590(9) 0.3136(16) 0.620(3) 0.0790 Uiso
C3_3 C 0.9043(9) 0.2611(15) 0.6305(19) 0.0790 Uiso
C4_3 C 0.9440(7) 0.3436(18) 0.6252(12) 0.0790 Uiso
C5_3 C 0.9357(4) 0.4904(18) 0.6077(10) 0.0790 Uiso
C6_2 C 0.8893(4) 0.5482(15) 0.596(2) 0.0790 Uiso
C7_3 C 0.8521(6) 0.4562(16) 0.603(3) 0.0790 Uiso
C8_2 C 0.9770(3) 0.587(2) 0.60087(10) 0.0790 Uiso
C9_4 C 1.00000 0.680(2) 0.75000 0.0790 Uiso
H1_3 H 0.909637 0.159554 0.64262 0.0947 Uiso
H2_3 H 0.975683 0.301224 0.633201 0.0947 Uiso
H3_2 H 0.883123 0.64942 0.584162 0.0947 Uiso
H4_3 H 0.820104 0.496083 0.595249 0.0947 Uiso
H6_2 H 0.961761 0.644982 0.508167 0.0947 Uiso
H7_2 H 0.97663 0.75852 0.76227 0.0947 Uiso
H12_2 H 0.996292 0.53111 0.903515 0.0947 Uiso
O1_3 O 0.8748(16) 0.897(4) 0.616(4) 0.0790 Uiso
C1_3 C 0.8492(7) 0.894(2) 0.468(4) 0.0790 Uiso
C2_3 C 0.8040(6) 0.9935(19) 0.383(2) 0.0790 Uiso
N9_4 N 0.7627(9) 0.580(4) 0.319(3) 0.0790 Uiso
N13_4 N 0.7135(11) 0.600(3) 0.061(3) 0.0790 Uiso
C10_4 C 0.6508(7) 0.394(2) 0.032(4) 0.0790 Uiso
C11_4 C 0.6960(6) 0.4935(19) 0.117(2) 0.0790 Uiso
O1_4 O 0.3748(16) 0.397(4) 0.616(4) 0.0790 Uiso
N2_4 N 0.2373(9) 0.580(4) 0.181(3) 0.0790 Uiso
N4_4 N 0.2865(11) 0.600(3) 0.439(3) 0.0790 Uiso
N5_4 N 0.3590(9) 0.8136(16) 0.620(3) 0.0790 Uiso
C1_4 C 0.3492(7) 0.394(2) 0.468(4) 0.0790 Uiso
C2_4 C 0.3040(6) 0.4935(19) 0.383(2) 0.0790 Uiso
C3_4 C 0.4043(9) 0.7611(15) 0.6305(19) 0.0790 Uiso
C4_4 C 0.4440(7) 0.8436(18) 0.6252(12) 0.0790 Uiso
C5_4 C 0.4357(4) 0.9904(18) 0.6077(10) 0.0790 Uiso
C7_4 C 0.3521(6) 0.9562(16) 0.603(3) 0.0790 Uiso
H1_4 H 0.409637 0.659554 0.64262 0.0947 Uiso
H2_4 H 0.475683 0.801224 0.633201 0.0947 Uiso
H4_4 H 0.320104 0.996083 0.595249 0.0947 Uiso
O3_2 O 0.6252(16) 0.397(4) 0.884(4) 0.0790 Uiso
N14_4 N 0.6410(9) 0.8136(16) 0.880(3) 0.0790 Uiso
C12_4 C 0.5957(9) 0.7611(15) 0.8695(19) 0.0790 Uiso
C13_4 C 0.5560(7) 0.8436(18) 0.8748(12) 0.0790 Uiso
C14_4 C 0.5643(4) 0.9904(18) 0.8923(10) 0.0790 Uiso
C16_4 C 0.6479(6) 0.9562(16) 0.897(3) 0.0790 Uiso
H8_4 H 0.590363 0.659554 0.85738 0.0947 Uiso
H9_4 H 0.524317 0.801224 0.866799 0.0947 Uiso
H11_4 H 0.679896 0.996083 0.904751 0.0947 Uiso
O3_3 O 0.8748(16) 0.103(4) 0.116(4) 0.0790 Uiso
C6_3 C 0.6107(4) 0.9518(15) 0.404(2) 0.0790 Uiso
C8_3 C 0.5230(3) 0.913(2) 0.39913(10) 0.0790 Uiso
C9_5 C 0.50000 0.820(2) 0.25000 0.0790 Uiso
H3_3 H 0.616877 0.85058 0.415838 0.0947 Uiso
H5_3 H 0.496292 0.96889 0.403515 0.0947 Uiso
H6_3 H 0.538239 0.855018 0.491833 0.0947 Uiso
H7_3 H 0.52337 0.74148 0.23773 0.0947 Uiso
C15_3 C 0.3893(4) 0.9518(15) 0.096(2) 0.0790 Uiso
C17_3 C 0.4770(3) 0.913(2) 0.10087(10) 0.0790 Uiso
H10_3 H 0.383123 0.85058 0.084162 0.0947 Uiso
H12_3 H 0.503708 0.96889 0.096485 0.0947 Uiso
H13_3 H 0.461761 0.855018 0.008167 0.0947 Uiso
H14_3 H 0.47663 0.74148 0.26227 0.0947 Uiso
O3_4 O 0.1252(16) 0.897(4) 0.884(4) 0.0790 Uiso
C6_4 C 0.3893(4) 0.0482(15) 0.596(2) 0.0790 Uiso
C8_4 C 0.4770(3) 0.087(2) 0.60087(10) 0.0790 Uiso
C9_6 C 0.50000 0.180(2) 0.75000 0.0790 Uiso
H3_4 H 0.383123 0.14942 0.584162 0.0947 Uiso
H5_4 H 0.503708 0.03111 0.596485 0.0947 Uiso
H6_4 H 0.461761 0.144982 0.508167 0.0947 Uiso
H7_4 H 0.47663 0.25852 0.76227 0.0947 Uiso
C15_4 C 0.6107(4) 0.0482(15) 0.904(2) 0.0790 Uiso
C17_4 C 0.5230(3) 0.087(2) 0.89913(10) 0.0790 Uiso
H10_4 H 0.616877 0.14942 0.915838 0.0947 Uiso
H12_4 H 0.496292 0.03111 0.903515 0.0947 Uiso
H13_4 H 0.538239 0.144982 0.991833 0.0947 Uiso
H14_4 H 0.52337 0.25852 0.73773 0.0947 Uiso
loop_
_geom_bond_atom_site_label_1
_geom_bond_atom_site_label_2
_geom_bond_site_symmetry_1
_geom_bond_site_symmetry_2
O1 C1 1_555 1_555
O2 C1 1_555 1_555
C1 C2 1_555 1_555
C2 N1 1_555 1_555
Cu4 O2 1_555 1_555
N1 Cu4 1_555 1_555
Cu1 N4 1_555 1_555
N2 N3 1_555 1_555
N3 N4 1_555 1_555
N5 Cu1 1_555 1_555
C3 N5 1_555 1_555
C4 C3 1_555 1_555
C5 C4 1_555 1_555
C6 C5 1_555 1_555
C7 N5 1_555 1_555
C8 C5 1_555 1_555
C9 C8 1_555 1_555
H1 C3 1_555 1_555
H2 C4 1_555 1_555
H3 C6 1_555 1_555
H4 C7 1_555 1_555
H6 C8 1_555 1_555
H7 C9 1_555 1_555
Cu5 N3 1_555 1_555
O6 Cu1 1_555 1_555
N8 Cu1 1_555 1_555
N11 Cu1 1_555 1_555
C6 C7 1_555 1_555
Cu3 O4 1_555 1_555
O4 C10 1_555 1_555
N6 Cu3 1_555 1_555
C10 C11 1_555 1_555
C11 N6 1_555 1_555
Cu2 O5 1_555 1_555
N7 Cu2 1_555 1_555
N12 Cu2 1_555 1_555
N14 Cu2 1_555 1_555
C12 N14 1_555 1_555
C13 C12 1_555 1_555
C14 C13 1_555 1_555
C15 C14 1_555 1_555
C16 N14 1_555 1_555
C17 C9_2 1_555 1_555
H8 C12 1_555 1_555
H9 C13 1_555 1_555
H10 C15 1_555 1_555
H11 C16 1_555 1_555
H13 C17 1_555 1_555
H14 C9_2 1_555 1_555
C14 C17 1_555 1_555
C15 C16 1_555 1_555
Cu6 N10 1_555 1_555
N10 N9 1_555 1_555
N10 N13 1_555 1_555
Cu1_2 N4_2 1_555 1_555
O1_2 C1_2 1_555 1_555
O2_2 C1_2 1_555 1_555
N1_2 N2_2 1_555 1_555
N2_2 N3_2 1_555 1_555
N3_2 N4_2 1_555 1_555
N4_2 C2_2 1_555 1_555
N5_2 Cu1_2 1_555 1_555
C1_2 C2_2 1_555 1_555
C2_2 N1_2 1_555 1_555
C3_2 N5_2 1_555 1_555
C4_2 C3_2 1_555 1_555
C5_2 C4_2 1_555 1_555
C7_2 N5_2 1_555 1_555
H1_2 C3_2 1_555 1_555
H2_2 C4_2 1_555 1_555
H4_2 C7_2 1_555 1_555
Cu2_2 O5_2 1_555 1_555
Cu6 O2_2 1_555 1_555
Cu3 N3_2 1_555 1_555
O6_2 Cu1_2 1_555 1_555
N7_2 Cu2_2 1_555 1_555
N8_2 Cu1_2 1_555 1_555
N11_2 Cu1_2 1_555 1_555
N12_2 Cu2_2 1_555 1_555
N14_2 Cu2_2 1_555 1_555
C12_2 N14_2 1_555 1_555
C13_2 C12_2 1_555 1_555
C14_2 C13_2 1_555 1_555
C16_2 N14_2 1_555 1_555
H8_2 C12_2 1_555 1_555
H9_2 C13_2 1_555 1_555
H11_2 C16_2 1_555 1_555
N1_2 Cu6 1_555 1_555
Cu5 O4_2 1_555 1_555
Cu4 N10_2 1_555 1_555
O4_2 C10_2 1_555 1_555
N6_2 Cu5 1_555 1_555
N9_2 N6_2 1_555 1_555
N10_2 N9_2 1_555 1_555
C10_2 C11_2 1_555 1_555
C11_2 N6_2 1_555 1_555
N10_2 N13_2 1_555 1_555
N13_2 C11_2 1_555 1_555
N12_2 N9_3 1_555 1_555
N12_2 N13_3 1_555 1_555
N14_3 Cu4 1_555 1_555
C12_3 N14_3 1_555 1_555
C13_3 C12_3 1_555 1_555
C14_3 C13_3 1_555 1_555
C15_2 C14_3 1_555 1_555
C16_3 N14_3 1_555 1_555
C17_2 C9_3 1_555 1_555
H8_3 C12_3 1_555 1_555
H9_3 C13_3 1_555 1_555
H10_2 C15_2 1_555 1_555
H11_3 C16_3 1_555 1_555
H13_2 C17_2 1_555 1_555
H14_2 C9_3 1_555 1_555
C14_3 C17_2 1_555 1_555
C15_2 C16_3 1_555 1_555
O6 C10_3 1_555 1_555
C10_3 C11_3 1_555 1_555
C11_3 N8 1_555 1_555
Cu3 N4_3 1_555 1_555
N2_3 N11_2 1_555 1_555
N11_2 N4_3 1_555 1_555
N5_3 Cu3 1_555 1_555
C3_3 N5_3 1_555 1_555
C4_3 C3_3 1_555 1_555
C5_3 C4_3 1_555 1_555
C6_2 C5_3 1_555 1_555
C7_3 N5_3 1_555 1_555
C8_2 C5_3 1_555 1_555
C9_4 C8_2 1_555 1_555
H1_3 C3_3 1_555 1_555
H2_3 C4_3 1_555 1_555
H3_2 C6_2 1_555 1_555
H4_3 C7_3 1_555 1_555
H6_2 C8_2 1_555 1_555
H7_2 C9_4 1_555 1_555
C6_2 C7_3 1_555 1_555
O1_3 C1_3 1_555 1_555
O5 C1_3 1_555 1_555
C1_3 C2_3 1_555 1_555
C2_3 N7 1_555 1_555
O6_2 C10_4 1_555 1_555
N9_4 N8_2 1_555 1_555
N12 N9_4 1_555 1_555
C10_4 C11_4 1_555 1_555
C11_4 N8_2 1_555 1_555
N12 N13_4 1_555 1_555
N13_4 C11_4 1_555 1_555
Cu5 N4_4 1_555 1_555
O1_4 C1_4 1_555 1_555
O5_2 C1_4 1_555 1_555
N7_2 N2_4 1_555 1_555
N2_4 N11 1_555 1_555
N11 N4_4 1_555 1_555
N4_4 C2_4 1_555 1_555
N5_4 Cu5 1_555 1_555
C1_4 C2_4 1_555 1_555
C2_4 N7_2 1_555 1_555
C3_4 N5_4 1_555 1_555
C4_4 C3_4 1_555 1_555
C5_4 C4_4 1_555 1_555
C7_4 N5_4 1_555 1_555
H1_4 C3_4 1_555 1_555
H2_4 C4_4 1_555 1_555
H4_4 C7_4 1_555 1_555
N14_4 Cu6 1_555 1_555
C12_4 N14_4 1_555 1_555
C13_4 C12_4 1_555 1_555
C14_4 C13_4 1_555 1_555
C16_4 N14_4 1_555 1_555
H8_4 C12_4 1_555 1_555
H9_4 C13_4 1_555 1_555
H11_4 C16_4 1_555 1_555
C9_5 C8_3 1_555 1_555
H3_3 C6_3 1_555 1_555
H5_3 C8_3 1_555 1_555
H6_3 C8_3 1_555 1_555
H7_3 C9_5 1_555 1_555
C17_3 C9_5 1_555 1_555
H10_3 C15_3 1_555 1_555
H12_3 C17_3 1_555 1_555
H13_3 C17_3 1_555 1_555
H14_3 C9_5 1_555 1_555
C9_6 C8_4 1_555 1_555
H3_4 C6_4 1_555 1_555
H5_4 C8_4 1_555 1_555
H6_4 C8_4 1_555 1_555
H7_4 C9_6 1_555 1_555
C17_4 C9_6 1_555 1_555
H10_4 C15_4 1_555 1_555
H12_4 C17_4 1_555 1_555
H13_4 C17_4 1_555 1_555
H14_4 C9_6 1_555 1_555

#END
