
###############################################################################
#
# This file contains modified crystal structure data generated from the
# MOF subset of the Cambridge Structural Database (CSD) v543 
# hosted by the Cambridge Crystallographic Data Centre (CCDC).
#
# This work is licensed under the Creative Commons
# Attribution-NonCommercial-ShareAlike 4.0 International License.
# To view a copy of this license, visit
# http://creativecommons.org/licenses/by-nc-sa/4.0/
# or send a letter to
# Creative Commons, PO Box 1866, Mountain View, CA 94042, USA.
#
# CIF created using the CSD Python API on 29 September 2022
# The structure has been converted into the P1 space group
# The structure has a 3D framework
# The original CSD entry ADINCU is in the orthorhombic crystal system
# The framework has been calculated to contain at least 10.0% void space
# The void calculation uses a probe of radius 1.32A, grid spacing 0.4
# The framework is charged, counterions have been retained in the structure
# H atom positions have been added when not included in the experimental data
#
###############################################################################

data_ADINCU
_chemical_formula_moiety         '(C24 H32 Cu6 N8 6+)n'
_symmetry_cell_setting           triclinic
_symmetry_space_group_name_H-M   'P 1'
_symmetry_Int_Tables_number      1
_space_group_name_Hall           'P 1'
loop_
_symmetry_equiv_pos_site_id
_symmetry_equiv_pos_as_xyz
1 x,y,z
_cell_length_a                   9.41(2)
_cell_length_b                   13.73(2)
_cell_length_c                   5.85(1)
_cell_angle_alpha                90
_cell_angle_beta                 90
_cell_angle_gamma                90
_cell_volume                     755.816
loop_
_atom_site_label
_atom_site_type_symbol
_atom_site_fract_x
_atom_site_fract_y
_atom_site_fract_z
N2 N 0.37100 0.42400 0.30000
C4 C 0.30600 0.39000 0.15900
Cu3 Cu 0.50000 0.50000 0.50000
H12 H 0.136495 0.288179 0.084951
N4 N 0.62900 0.57600 0.30000
C10 C 0.69400 0.61000 0.15900
H2 H 0.863505 0.711821 0.084951
N5 N 0.37100 0.57600 0.70000
N6 N 0.62900 0.42400 0.70000
C4_2 C 0.30600 0.61000 0.84100
H12_2 H 0.136495 0.711821 0.915049
C10_2 C 0.69400 0.39000 0.84100
H2_2 H 0.863505 0.288179 0.915049
Cu1 Cu -0.00000 -0.00000 -0.00000
N1 N 0.12900 0.07600 0.20000
C1 C 0.19400 0.11000 0.34100
C2 C 0.29200 0.16400 0.50900
C3 C 0.20100 0.22300 0.66700
C5 C 0.20800 0.33600 0.99100
C6 C 0.29900 0.27700 0.83300
H7 H 0.363505 0.211821 0.415049
H8 H 0.353935 0.111589 0.606962
H11 H 0.146065 0.388411 0.893038
H13 H 0.129877 0.175191 0.761731
H14 H 0.138661 0.275206 0.569096
H15 H 0.370123 0.324809 0.738269
H16 H 0.361339 0.224794 0.930904
Cu1_2 Cu 1.00000 1.00000 -0.00000
N3 N 0.87100 0.92400 0.20000
C7 C 0.80600 0.89000 0.34100
C8 C 0.70800 0.83600 0.50900
C9 C 0.79900 0.77700 0.66700
C11 C 0.79200 0.66400 0.99100
C12 C 0.70100 0.72300 0.83300
H1 H 0.853935 0.611589 0.893038
H3 H 0.870123 0.824809 0.761731
H4 H 0.861339 0.724794 0.569096
H5 H 0.629877 0.675191 0.738269
H6 H 0.638661 0.775206 0.930904
H9 H 0.636495 0.788179 0.415049
H10 H 0.646065 0.888411 0.606962
Cu1_3 Cu -0.00000 -0.00000 1.00000
Cu1_4 Cu 1.00000 1.00000 1.00000
Cu1_5 Cu -0.00000 1.00000 -0.00000
Cu1_6 Cu 1.00000 -0.00000 -0.00000
Cu1_7 Cu 0.00000 1.00000 1.00000
N5_2 N 0.12900 0.92400 0.80000
Cu1_8 Cu 1.00000 -0.00000 1.00000
N6_2 N 0.87100 0.07600 0.80000
C1_2 C 0.19400 0.89000 0.65900
C2_2 C 0.29200 0.83600 0.49100
C3_2 C 0.20100 0.77700 0.33300
C5_2 C 0.20800 0.66400 0.00900
C6_2 C 0.29900 0.72300 0.16700
H7_2 H 0.363505 0.788179 0.584951
H8_2 H 0.353935 0.888411 0.393038
H11_2 H 0.146065 0.611589 0.106962
H13_2 H 0.129877 0.824809 0.238269
H14_2 H 0.138661 0.724794 0.430904
H15_2 H 0.370123 0.675191 0.261731
H16_2 H 0.361339 0.775206 0.0690962
C7_2 C 0.80600 0.11000 0.65900
C8_2 C 0.70800 0.16400 0.49100
C9_2 C 0.79900 0.22300 0.33300
C11_2 C 0.79200 0.33600 0.00900
C12_2 C 0.70100 0.27700 0.16700
H1_2 H 0.853935 0.388411 0.106962
H3_2 H 0.870123 0.175191 0.238269
H4_2 H 0.861339 0.275206 0.430904
H5_2 H 0.629877 0.324809 0.261731
H6_2 H 0.638661 0.224794 0.0690962
H9_2 H 0.636495 0.211821 0.584951
H10_2 H 0.646065 0.111589 0.393038
loop_
_geom_bond_atom_site_label_1
_geom_bond_atom_site_label_2
_geom_bond_site_symmetry_1
_geom_bond_site_symmetry_2
N2 C4 1_555 1_555
Cu3 N2 1_555 1_555
N4 C10 1_555 1_555
Cu3 N4 1_555 1_555
N5 Cu3 1_555 1_555
N6 Cu3 1_555 1_555
N5 C4_2 1_555 1_555
N6 C10_2 1_555 1_555
Cu1 N1 1_555 1_555
N1 C1 1_555 1_555
C1 C2 1_555 1_555
C2 C3 1_555 1_555
C3 C6 1_555 1_555
C5 C6 1_555 1_555
C2 H7 1_555 1_555
C2 H8 1_555 1_555
C5 H11 1_555 1_555
C3 H13 1_555 1_555
C3 H14 1_555 1_555
C6 H15 1_555 1_555
C6 H16 1_555 1_555
N3 Cu1_2 1_555 1_555
C7 N3 1_555 1_555
C8 C7 1_555 1_555
C9 C8 1_555 1_555
C11 C12 1_555 1_555
C12 C9 1_555 1_555
C11 H1 1_555 1_555
C9 H3 1_555 1_555
C9 H4 1_555 1_555
C12 H5 1_555 1_555
C12 H6 1_555 1_555
C8 H9 1_555 1_555
C8 H10 1_555 1_555
N5_2 Cu1_7 1_555 1_555
N6_2 Cu1_8 1_555 1_555
N5_2 C1_2 1_555 1_555
C1_2 C2_2 1_555 1_555
C2_2 C3_2 1_555 1_555
C3_2 C6_2 1_555 1_555
C5_2 C6_2 1_555 1_555
C2_2 H7_2 1_555 1_555
C2_2 H8_2 1_555 1_555
C5_2 H11_2 1_555 1_555
C3_2 H13_2 1_555 1_555
C3_2 H14_2 1_555 1_555
C6_2 H15_2 1_555 1_555
C6_2 H16_2 1_555 1_555
C7_2 N6_2 1_555 1_555
C8_2 C7_2 1_555 1_555
C9_2 C8_2 1_555 1_555
C11_2 C12_2 1_555 1_555
C12_2 C9_2 1_555 1_555
C11_2 H1_2 1_555 1_555
C9_2 H3_2 1_555 1_555
C9_2 H4_2 1_555 1_555
C12_2 H5_2 1_555 1_555
C12_2 H6_2 1_555 1_555
C8_2 H9_2 1_555 1_555
C8_2 H10_2 1_555 1_555

#END
