
###############################################################################
#
# This file contains modified crystal structure data generated from the
# MOF subset of the Cambridge Structural Database (CSD) v543 
# hosted by the Cambridge Crystallographic Data Centre (CCDC).
#
# This work is licensed under the Creative Commons
# Attribution-NonCommercial-ShareAlike 4.0 International License.
# To view a copy of this license, visit
# http://creativecommons.org/licenses/by-nc-sa/4.0/
# or send a letter to
# Creative Commons, PO Box 1866, Mountain View, CA 94042, USA.
#
# CIF created using the CSD Python API on 29 September 2022
# The structure has been converted into the P1 space group
# The structure has a 3D framework
# The original CSD entry ADOBAX is in the tetragonal crystal system
# The framework has been calculated to contain at least 10.0% void space
# The void calculation uses a probe of radius 1.32A, grid spacing 0.4
#
###############################################################################

data_ADOBAX
_chemical_formula_moiety         '(C80 H64 Cl9 Mn3 N16 O82 V32 7-)n'
_symmetry_cell_setting           triclinic
_symmetry_space_group_name_H-M   'P 1'
_symmetry_Int_Tables_number      1
_space_group_name_Hall           'P 1'
loop_
_symmetry_equiv_pos_site_id
_symmetry_equiv_pos_as_xyz
1 x,y,z
_cell_length_a                   17.266(2)
_cell_length_b                   17.266(2)
_cell_length_c                   14.916(3)
_cell_angle_alpha                90
_cell_angle_beta                 90
_cell_angle_gamma                90
_cell_volume                     4446.68
loop_
_atom_site_label
_atom_site_type_symbol
_atom_site_fract_x
_atom_site_fract_y
_atom_site_fract_z
Cl1 Cl 0.0000 0.0000 0.0000
Cl1_2 Cl 0.0000 0.0000 1.0000
Cl1_3 Cl 0.0000 1.0000 0.0000
Cl1_4 Cl 0.0000 1.0000 1.0000
Cl1_5 Cl 1.0000 0.0000 0.0000
Cl1_6 Cl 1.0000 0.0000 1.0000
Cl1_7 Cl 1.0000 1.0000 0.0000
Cl1_8 Cl 1.0000 1.0000 1.0000
Cl1_9 Cl 0.5000 0.5000 0.5000
V1 V 0.12162(6) 0.10937(6) 0.12577(6)
Mn1 Mn 0.25725(5) 0.24275(5) 0.2500
C1 C 0.2375(6) 0.4125(5) 0.1797(6)
H1 H 0.2529 0.4223 0.2383
C2 C 0.2319(6) 0.4741(5) 0.1216(6)
H2 H 0.2445 0.5239 0.1405
C3 C 0.1968(5) 0.3273(4) 0.0739(5)
H3 H 0.1845 0.2769 0.0573
C4 C 0.1880(5) 0.3860(4) 0.0120(6)
H8 H 0.1704 0.6120 0.0505
C10 C 0.2073(4) 0.4613(5) 0.0350(5)
N1 N 0.2223(4) 0.3404(4) 0.1568(4)
N2 N 0.3547(3) 0.2087(4) 0.1563(4)
O1 O 0.1824(3) 0.1652(3) 0.1803(3)
O2 O 0.1282(3) 0.0066(3) 0.1792(3)
O3 O 0.1834(3) 0.0557(3) 0.0372(3)
O4 O 0.0000 0.0000 0.2809(5)
O6 O 0.0207(3) 0.1261(3) 0.1782(3)
O8 O 0.0755(3) 0.1758(3) 0.0365(3)
H20 H 0.6249 0.1691 0.0451
C23 C 0.4277(5) 0.2264(5) 0.1802(6)
H21 H 0.4371 0.2406 0.2394
C26 C 0.4891(6) 0.2246(4) 0.1219(7)
H24 H 0.5388 0.2365 0.1414
C29 C 0.3425(5) 0.1857(4) 0.0714(5)
H27 H 0.2930 0.1699 0.0551
C32 C 0.3996(5) 0.1845(5) 0.0082(6)
C35 C 0.4754(5) 0.2043(4) 0.0318(5)
N3 N 0.1596(4) 0.2777(4) 0.3432(4)
N7 N 0.2913(4) 0.1453(3) 0.3437(4)
O11 O 0.3348(3) 0.3176(3) 0.3197(3)
V4 V 0.18608(6) 0.03002(6) 0.91494(8)
H4 H 0.1691 0.3751 0.9549
C5 C 0.2264(5) 0.5723(5) 0.8198(6)
H5 H 0.2406 0.5629 0.7606
C6 C 0.2246(4) 0.5109(6) 0.8781(7)
H6 H 0.2365 0.4612 0.8586
C7 C 0.1857(4) 0.6575(5) 0.9286(5)
H7 H 0.1699 0.7070 0.9449
C8 C 0.1845(5) 0.6004(5) 0.9918(6)
C9 C 0.2043(4) 0.5246(5) 0.9682(5)
O10 O 0.2734(3) 0.0384(4) 0.8805(4)
V9 V 0.06970(10) 0.06229(9) 0.77232(9)
V11 V 0.05105(7) 0.18089(6) 0.91364(8)
Mn4 Mn 0.24275(5) 0.74275(5) 0.7500
Mn6 Mn 0.75725(5) 0.25725(5) 0.7500
C13 C 0.5875(5) 0.2375(6) 0.8203(6)
H11 H 0.5777 0.2529 0.7617
C16 C 0.5259(5) 0.2319(6) 0.8784(6)
H14 H 0.4761 0.2445 0.8595
C19 C 0.6727(4) 0.1968(5) 0.9261(5)
H17 H 0.7231 0.1845 0.9427
C22 C 0.6140(4) 0.1880(5) 0.9880(6)
H30 H 0.3880 0.1704 0.9495
C38 C 0.5387(5) 0.2073(4) 0.9650(5)
N6 N 0.6596(4) 0.2223(4) 0.8432(4)
N8 N 0.2087(4) 0.6453(3) 0.8437(4)
O22 O 0.0000 0.0000 0.7191(5)
O24 O 0.1132(4) 0.0995(4) 0.6865(4)
O29 O 0.1329(3) 0.1183(3) 0.8803(3)
O35 O 0.0718(4) 0.2660(3) 0.8782(4)
V2 V 0.06229(9) 0.93030(10) 0.22768(9)
V3 V 0.18089(6) 0.94895(7) 0.08636(8)
O4_2 O 0.0000 1.0000 0.2809(5)
O5 O 0.0995(4) 0.8868(4) 0.3135(4)
O7 O 0.1183(3) 0.8671(3) 0.1197(3)
O9 O 0.2660(3) 0.9282(4) 0.1218(4)
V15 V 0.03002(6) 0.81392(6) 0.08506(8)
H13 H 0.0239 0.7445 0.3595
C25 C 0.0723(5) 0.7264(5) 0.6802(6)
H23 H 0.0629 0.7406 0.7394
C28 C 0.0109(6) 0.7246(4) 0.6219(7)
C31 C 0.1575(5) 0.6857(4) 0.5714(5)
H29 H 0.2070 0.6699 0.5551
C34 C 0.1004(5) 0.6845(5) 0.5082(6)
H32 H 0.1120 0.6704 0.4495
C37 C 0.0246(5) 0.7043(4) 0.5318(5)
N12 N 0.1453(3) 0.7087(4) 0.6563(4)
O39 O 0.0384(4) 0.7266(3) 0.1195(4)
V7 V 0.10937(6) 0.87838(6) 0.87423(6)
O14 O 0.1652(3) 0.8176(3) 0.8197(3)
O18 O 0.0066(3) 0.8718(3) 0.8208(3)
O20 O 0.0557(3) 0.8166(3) 0.9628(3)
O22_2 O 0.0000 1.0000 0.7191(5)
O27 O 0.1261(3) 0.9793(3) 0.8218(3)
O32 O 0.1758(3) 0.9245(3) 0.9635(3)
O4_3 O 1.0000 0.0000 0.2809(5)
V8 V 0.93771(9) 0.06970(10) 0.22768(9)
V12 V 0.81911(6) 0.05105(7) 0.08636(8)
V14 V 0.96998(6) 0.18608(6) 0.08506(8)
O23 O 0.9005(4) 0.1132(4) 0.3135(4)
O30 O 0.8817(3) 0.1329(3) 0.1197(3)
O36 O 0.7340(3) 0.0718(4) 0.1218(4)
O38 O 0.9616(4) 0.2734(3) 0.1195(4)
V5 V 0.89063(6) 0.12162(6) 0.87423(6)
O12 O 0.8348(3) 0.1824(3) 0.8197(3)
O16 O 0.9934(3) 0.1282(3) 0.8208(3)
O19 O 0.9443(3) 0.1834(3) 0.9628(3)
O22_3 O 1.0000 0.0000 0.7191(5)
O28 O 0.8739(3) 0.0207(3) 0.8218(3)
O34 O 0.8242(3) 0.0755(3) 0.9635(3)
O4_4 O 1.0000 1.0000 0.2809(5)
V6 V 0.87838(6) 0.89063(6) 0.12577(6)
Mn3 Mn 0.74275(5) 0.75725(5) 0.2500
C11 C 0.7625(6) 0.5875(5) 0.1797(6)
C12 C 0.9125(5) 0.7375(6) 0.3203(6)
H9 H 0.7471 0.5777 0.2383
H10 H 0.9223 0.7529 0.2617
C14 C 0.7681(6) 0.5259(5) 0.1216(6)
C15 C 0.9741(5) 0.7319(6) 0.3784(6)
H12 H 0.7555 0.4761 0.1405
C17 C 0.8032(5) 0.6727(4) 0.0739(5)
C18 C 0.8273(4) 0.6968(5) 0.4261(5)
H15 H 0.8155 0.7231 0.0573
H16 H 0.7769 0.6845 0.4427
C20 C 0.8120(5) 0.6140(4) 0.0120(6)
C21 C 0.8860(4) 0.6880(5) 0.4880(6)
H19 H 0.8751 0.6691 0.5451
H26 H 0.9612 0.7365 0.6414
H31 H 0.8296 0.3880 0.0505
C39 C 0.7927(4) 0.5387(5) 0.0350(5)
C40 C 0.9613(5) 0.7073(4) 0.4650(5)
N4 N 0.7777(4) 0.6596(4) 0.1568(4)
N5 N 0.8404(4) 0.7223(4) 0.3432(4)
N9 N 0.6453(3) 0.7913(4) 0.1563(4)
N10 N 0.7087(4) 0.8547(3) 0.3437(4)
O13 O 0.8176(3) 0.8348(3) 0.1803(3)
O15 O 0.6652(3) 0.6824(3) 0.3197(3)
O17 O 0.8718(3) 0.9934(3) 0.1792(3)
O21 O 0.8166(3) 0.9443(3) 0.0372(3)
O26 O 0.9793(3) 0.8739(3) 0.1782(3)
O33 O 0.9245(3) 0.8242(3) 0.0365(3)
V10 V 0.93030(10) 0.93771(9) 0.77232(9)
V13 V 0.94895(7) 0.81911(6) 0.91364(8)
V16 V 0.81392(6) 0.96998(6) 0.91494(8)
H18 H 0.8309 0.6249 0.9549
C24 C 0.7736(5) 0.4277(5) 0.8198(6)
H22 H 0.7594 0.4371 0.7606
C27 C 0.7754(4) 0.4891(6) 0.8781(7)
H25 H 0.7635 0.5388 0.8586
C30 C 0.8143(4) 0.3425(5) 0.9286(5)
H28 H 0.8301 0.2930 0.9449
C33 C 0.8155(5) 0.3996(5) 0.9918(6)
C36 C 0.7957(4) 0.4754(5) 0.9682(5)
N11 N 0.7913(4) 0.3547(3) 0.8437(4)
O22_4 O 1.0000 1.0000 0.7191(5)
O25 O 0.8868(4) 0.9005(4) 0.6865(4)
O31 O 0.8671(3) 0.8817(3) 0.8803(3)
O37 O 0.9282(4) 0.7340(3) 0.8782(4)
O40 O 0.7266(3) 0.9616(4) 0.8805(4)
C12_2 C 0.0875(5) 0.2625(6) 0.3203(6)
H10_2 H 0.0777 0.2471 0.2617
C15_2 C 0.0259(5) 0.2681(6) 0.3784(6)
C18_2 C 0.1727(4) 0.3032(5) 0.4261(5)
H16_2 H 0.2231 0.3155 0.4427
C21_2 C 0.1140(4) 0.3120(5) 0.4880(6)
H19_2 H 0.1249 0.3309 0.5451
H26_2 H 0.0388 0.2635 0.6414
C40_2 C 0.0387(5) 0.2927(4) 0.4650(5)
H13_2 H 0.9761 0.2555 0.3595
C25_2 C 0.9277(5) 0.2736(5) 0.6802(6)
H23_2 H 0.9371 0.2594 0.7394
C28_2 C 0.9891(6) 0.2754(4) 0.6219(7)
C31_2 C 0.8425(5) 0.3143(4) 0.5714(5)
H29_2 H 0.7930 0.3301 0.5551
C34_2 C 0.8996(5) 0.3155(5) 0.5082(6)
H32_2 H 0.8880 0.3296 0.4495
C37_2 C 0.9754(5) 0.2957(4) 0.5318(5)
N12_2 N 0.8547(3) 0.2913(4) 0.6563(4)
H20_2 H 0.3751 0.8309 0.0451
C23_2 C 0.5723(5) 0.7736(5) 0.1802(6)
H21_2 H 0.5629 0.7594 0.2394
C26_2 C 0.5109(6) 0.7754(4) 0.1219(7)
H24_2 H 0.4612 0.7635 0.1414
C29_2 C 0.6575(5) 0.8143(4) 0.0714(5)
H27_2 H 0.7070 0.8301 0.0551
C32_2 C 0.6004(5) 0.8155(5) 0.0082(6)
C35_2 C 0.5246(5) 0.7957(4) 0.0318(5)
C13_2 C 0.4125(5) 0.7625(6) 0.8203(6)
H11_2 H 0.4223 0.7471 0.7617
C16_2 C 0.4741(5) 0.7681(6) 0.8784(6)
H14_2 H 0.5239 0.7555 0.8595
C19_2 C 0.3273(4) 0.8032(5) 0.9261(5)
H17_2 H 0.2769 0.8155 0.9427
C22_2 C 0.3860(4) 0.8120(5) 0.9880(6)
H30_2 H 0.6120 0.8296 0.9495
C38_2 C 0.4613(5) 0.7927(4) 0.9650(5)
N6_2 N 0.3404(4) 0.7777(4) 0.8432(4)
N3_2 N 0.2777(4) 0.8404(4) 0.6568(4)
O11_2 O 0.3176(3) 0.6652(3) 0.6803(3)
C12_3 C 0.7375(6) 0.0875(5) 0.6797(6)
H10_3 H 0.7529 0.0777 0.7383
C15_3 C 0.7319(6) 0.0259(5) 0.6216(6)
C18_3 C 0.6968(5) 0.1727(4) 0.5739(5)
H16_3 H 0.6845 0.2231 0.5573
C21_3 C 0.6880(5) 0.1140(4) 0.5120(6)
H19_3 H 0.6691 0.1249 0.4549
H26_3 H 0.7365 0.0388 0.3586
C40_3 C 0.7073(4) 0.0387(5) 0.5350(5)
N5_2 N 0.7223(4) 0.1596(4) 0.6568(4)
O15_2 O 0.6824(3) 0.3348(3) 0.6803(3)
H13_3 H 0.7445 0.9761 0.6405
C25_3 C 0.7264(5) 0.9277(5) 0.3198(6)
H23_3 H 0.7406 0.9371 0.2606
C28_3 C 0.7246(4) 0.9891(6) 0.3781(7)
C31_3 C 0.6857(4) 0.8425(5) 0.4286(5)
H29_3 H 0.6699 0.7930 0.4449
C34_3 C 0.6845(5) 0.8996(5) 0.4918(6)
H32_3 H 0.6704 0.8880 0.5505
C37_3 C 0.7043(4) 0.9754(5) 0.4682(5)
H13_4 H 0.2555 0.0239 0.6405
C25_4 C 0.2736(5) 0.0723(5) 0.3198(6)
H23_4 H 0.2594 0.0629 0.2606
C28_4 C 0.2754(4) 0.0109(6) 0.3781(7)
C31_4 C 0.3143(4) 0.1575(5) 0.4286(5)
H29_4 H 0.3301 0.2070 0.4449
C34_4 C 0.3155(5) 0.1004(5) 0.4918(6)
H32_4 H 0.3296 0.1120 0.5505
C37_4 C 0.2957(4) 0.0246(5) 0.4682(5)
C12_4 C 0.2625(6) 0.9125(5) 0.6797(6)
H10_4 H 0.2471 0.9223 0.7383
C15_4 C 0.2681(6) 0.9741(5) 0.6216(6)
C18_4 C 0.3032(5) 0.8273(4) 0.5739(5)
H16_4 H 0.3155 0.7769 0.5573
C21_4 C 0.3120(5) 0.8860(4) 0.5120(6)
H19_4 H 0.3309 0.8751 0.4549
H26_4 H 0.2635 0.9612 0.3586
C40_4 C 0.2927(4) 0.9613(5) 0.5350(5)
V1_2 V 0.62162(6) 0.39063(6) 0.62577(6)
V2_2 V 0.56229(9) 0.56970(10) 0.72768(9)
V3_2 V 0.68089(6) 0.55105(7) 0.58636(8)
V4_2 V 0.68608(6) 0.46998(6) 0.41494(8)
O2_2 O 0.6282(3) 0.4934(3) 0.6792(3)
O3_2 O 0.6834(3) 0.4443(3) 0.5372(3)
O4_5 O 0.5000 0.5000 0.7809(5)
O5_2 O 0.5995(4) 0.6132(4) 0.8135(4)
O6_2 O 0.5207(3) 0.3739(3) 0.6782(3)
O7_2 O 0.6183(3) 0.6329(3) 0.6197(3)
O8_2 O 0.5755(3) 0.3242(3) 0.5365(3)
O9_2 O 0.7660(3) 0.5718(4) 0.6218(4)
O10_2 O 0.7734(3) 0.4616(4) 0.3805(4)
V5_2 V 0.39063(6) 0.37838(6) 0.37423(6)
V6_2 V 0.37838(6) 0.60937(6) 0.62577(6)
V7_2 V 0.60937(6) 0.62162(6) 0.37423(6)
V8_2 V 0.43771(9) 0.43030(10) 0.72768(9)
V9_2 V 0.56970(10) 0.43771(9) 0.27232(9)
V10_2 V 0.43030(10) 0.56229(9) 0.27232(9)
V11_2 V 0.55105(7) 0.31911(6) 0.41364(8)
V12_2 V 0.31911(6) 0.44895(7) 0.58636(8)
V13_2 V 0.44895(7) 0.68089(6) 0.41364(8)
V14_2 V 0.46998(6) 0.31392(6) 0.58506(8)
V15_2 V 0.53002(6) 0.68608(6) 0.58506(8)
V16_2 V 0.31392(6) 0.53002(6) 0.41494(8)
O16_2 O 0.4934(3) 0.3718(3) 0.3208(3)
O17_2 O 0.3718(3) 0.5066(3) 0.6792(3)
O18_2 O 0.5066(3) 0.6282(3) 0.3208(3)
O19_2 O 0.4443(3) 0.3166(3) 0.4628(3)
O20_2 O 0.5557(3) 0.6834(3) 0.4628(3)
O21_2 O 0.3166(3) 0.5557(3) 0.5372(3)
O22_5 O 0.5000 0.5000 0.2191(5)
O23_2 O 0.4005(4) 0.3868(4) 0.8135(4)
O24_2 O 0.6132(4) 0.4005(4) 0.1865(4)
O25_2 O 0.3868(4) 0.5995(4) 0.1865(4)
O26_2 O 0.4793(3) 0.6261(3) 0.6782(3)
O27_2 O 0.6261(3) 0.5207(3) 0.3218(3)
O28_2 O 0.3739(3) 0.4793(3) 0.3218(3)
O29_2 O 0.6329(3) 0.3817(3) 0.3803(3)
O30_2 O 0.3817(3) 0.3671(3) 0.6197(3)
O31_2 O 0.3671(3) 0.6183(3) 0.3803(3)
O32_2 O 0.6758(3) 0.5755(3) 0.4635(3)
O33_2 O 0.4245(3) 0.6758(3) 0.5365(3)
O34_2 O 0.3242(3) 0.4245(3) 0.4635(3)
O35_2 O 0.5718(4) 0.2340(3) 0.3782(4)
O36_2 O 0.2340(3) 0.4282(4) 0.6218(4)
O37_2 O 0.4282(4) 0.7660(3) 0.3782(4)
O38_2 O 0.4616(4) 0.2266(3) 0.6195(4)
O39_2 O 0.5384(4) 0.7734(3) 0.6195(4)
O40_2 O 0.2266(3) 0.5384(4) 0.3805(4)
loop_
_geom_bond_atom_site_label_1
_geom_bond_atom_site_label_2
_geom_bond_site_symmetry_1
_geom_bond_site_symmetry_2
V1 O1 1_555 1_555
Mn1 N1 1_555 1_555
C1 H1 1_555 1_555
C2 C1 1_555 1_555
H2 C2 1_555 1_555
C3 H3 1_555 1_555
C4 C3 1_555 1_555
C10 C2 1_555 1_555
N1 C1 1_555 1_555
N2 Mn1 1_555 1_555
O1 Mn1 1_555 1_555
O2 V1 1_555 1_555
O3 V1 1_555 1_555
O6 V1 1_555 1_555
O8 V1 1_555 1_555
C23 N2 1_555 1_555
H21 C23 1_555 1_555
C26 C23 1_555 1_555
H24 C26 1_555 1_555
C29 N2 1_555 1_555
H27 C29 1_555 1_555
C32 C29 1_555 1_555
C35 C26 1_555 1_555
N3 Mn1 1_555 1_555
N7 Mn1 1_555 1_555
O11 Mn1 1_555 1_555
C3 N1 1_555 1_555
C4 C10 1_555 1_555
C32 C35 1_555 1_555
C5 H5 1_555 1_555
C6 C5 1_555 1_555
H6 C6 1_555 1_555
C7 H7 1_555 1_555
C8 C7 1_555 1_555
C9 C6 1_555 1_555
O10 V4 1_555 1_555
Mn4 N8 1_555 1_555
Mn6 N6 1_555 1_555
C13 H11 1_555 1_555
C16 C13 1_555 1_555
H14 C16 1_555 1_555
C19 H17 1_555 1_555
C22 C19 1_555 1_555
C38 C16 1_555 1_555
N6 C13 1_555 1_555
N8 C5 1_555 1_555
O22 V9 1_555 1_555
O24 V9 1_555 1_555
O29 V4 1_555 1_555
O35 V11 1_555 1_555
C7 N8 1_555 1_555
C8 C9 1_555 1_555
V9 O29 1_555 1_555
V11 O29 1_555 1_555
C19 N6 1_555 1_555
C22 C38 1_555 1_555
O4_2 V2 1_555 1_555
O5 V2 1_555 1_555
O7 V2 1_555 1_555
O9 V3 1_555 1_555
V15 O7 1_555 1_555
Mn4 N12 1_555 1_555
C25 H23 1_555 1_555
C28 C25 1_555 1_555
C31 H29 1_555 1_555
C34 C31 1_555 1_555
H32 C34 1_555 1_555
C37 C28 1_555 1_555
N12 C25 1_555 1_555
O39 V15 1_555 1_555
V3 O7 1_555 1_555
C31 N12 1_555 1_555
C34 C37 1_555 1_555
V7 O14 1_555 1_555
Mn4 O14 1_555 1_555
O18 V7 1_555 1_555
O20 V7 1_555 1_555
V7 O27 1_555 1_555
V7 O32 1_555 1_555
V8 O4_3 1_555 1_555
O23 V8 1_555 1_555
O30 V8 1_555 1_555
O36 V12 1_555 1_555
O38 V14 1_555 1_555
V12 O30 1_555 1_555
V14 O30 1_555 1_555
V5 O12 1_555 1_555
Mn6 O12 1_555 1_555
O16 V5 1_555 1_555
O19 V5 1_555 1_555
O28 V5 1_555 1_555
O34 V5 1_555 1_555
V6 O13 1_555 1_555
Mn3 N4 1_555 1_555
C11 H9 1_555 1_555
C12 H10 1_555 1_555
C14 C11 1_555 1_555
C15 C12 1_555 1_555
H12 C14 1_555 1_555
C17 H15 1_555 1_555
C18 H16 1_555 1_555
C20 C17 1_555 1_555
C21 C18 1_555 1_555
H19 C21 1_555 1_555
C39 C14 1_555 1_555
C40 C15 1_555 1_555
N4 C11 1_555 1_555
N5 Mn3 1_555 1_555
N9 Mn3 1_555 1_555
N10 Mn3 1_555 1_555
O13 Mn3 1_555 1_555
O15 Mn3 1_555 1_555
O17 V6 1_555 1_555
O21 V6 1_555 1_555
O33 V6 1_555 1_555
V6 O26 1_555 1_555
C12 N5 1_555 1_555
C17 N4 1_555 1_555
C18 N5 1_555 1_555
C20 C39 1_555 1_555
C21 C40 1_555 1_555
Mn6 N11 1_555 1_555
C24 H22 1_555 1_555
C27 C24 1_555 1_555
H25 C27 1_555 1_555
C30 H28 1_555 1_555
C33 C30 1_555 1_555
C36 C27 1_555 1_555
N11 C24 1_555 1_555
O25 V10 1_555 1_555
O31 V10 1_555 1_555
O37 V13 1_555 1_555
O40 V16 1_555 1_555
V10 O22_4 1_555 1_555
V13 O31 1_555 1_555
V16 O31 1_555 1_555
C30 N11 1_555 1_555
C33 C36 1_555 1_555
C12_2 H10_2 1_555 1_555
C15_2 C12_2 1_555 1_555
C18_2 H16_2 1_555 1_555
C21_2 C18_2 1_555 1_555
H19_2 C21_2 1_555 1_555
C40_2 C15_2 1_555 1_555
C12_2 N3 1_555 1_555
C18_2 N3 1_555 1_555
C21_2 C40_2 1_555 1_555
Mn6 N12_2 1_555 1_555
C25_2 H23_2 1_555 1_555
C28_2 C25_2 1_555 1_555
C31_2 H29_2 1_555 1_555
C34_2 C31_2 1_555 1_555
H32_2 C34_2 1_555 1_555
C37_2 C28_2 1_555 1_555
N12_2 C25_2 1_555 1_555
C31_2 N12_2 1_555 1_555
C34_2 C37_2 1_555 1_555
C23_2 N9 1_555 1_555
H21_2 C23_2 1_555 1_555
C26_2 C23_2 1_555 1_555
H24_2 C26_2 1_555 1_555
C29_2 N9 1_555 1_555
H27_2 C29_2 1_555 1_555
C32_2 C29_2 1_555 1_555
C35_2 C26_2 1_555 1_555
C32_2 C35_2 1_555 1_555
Mn4 N6_2 1_555 1_555
C13_2 H11_2 1_555 1_555
C16_2 C13_2 1_555 1_555
H14_2 C16_2 1_555 1_555
C19_2 H17_2 1_555 1_555
C22_2 C19_2 1_555 1_555
C38_2 C16_2 1_555 1_555
N6_2 C13_2 1_555 1_555
C19_2 N6_2 1_555 1_555
C22_2 C38_2 1_555 1_555
N3_2 Mn4 1_555 1_555
O11_2 Mn4 1_555 1_555
C12_3 H10_3 1_555 1_555
C15_3 C12_3 1_555 1_555
C18_3 H16_3 1_555 1_555
C21_3 C18_3 1_555 1_555
H19_3 C21_3 1_555 1_555
C40_3 C15_3 1_555 1_555
N5_2 Mn6 1_555 1_555
O15_2 Mn6 1_555 1_555
C12_3 N5_2 1_555 1_555
C18_3 N5_2 1_555 1_555
C21_3 C40_3 1_555 1_555
C25_3 H23_3 1_555 1_555
C28_3 C25_3 1_555 1_555
C31_3 H29_3 1_555 1_555
C34_3 C31_3 1_555 1_555
H32_3 C34_3 1_555 1_555
C37_3 C28_3 1_555 1_555
N10 C25_3 1_555 1_555
C31_3 N10 1_555 1_555
C34_3 C37_3 1_555 1_555
C25_4 H23_4 1_555 1_555
C28_4 C25_4 1_555 1_555
C31_4 H29_4 1_555 1_555
C34_4 C31_4 1_555 1_555
H32_4 C34_4 1_555 1_555
C37_4 C28_4 1_555 1_555
N7 C25_4 1_555 1_555
C31_4 N7 1_555 1_555
C34_4 C37_4 1_555 1_555
C12_4 H10_4 1_555 1_555
C15_4 C12_4 1_555 1_555
C18_4 H16_4 1_555 1_555
C21_4 C18_4 1_555 1_555
H19_4 C21_4 1_555 1_555
C40_4 C15_4 1_555 1_555
C12_4 N3_2 1_555 1_555
C18_4 N3_2 1_555 1_555
C21_4 C40_4 1_555 1_555
V1_2 O15_2 1_555 1_555
V2_2 O2_2 1_555 1_555
V3_2 O2_2 1_555 1_555
V4_2 O3_2 1_555 1_555
O2_2 V1_2 1_555 1_555
O3_2 V1_2 1_555 1_555
O4_5 V2_2 1_555 1_555
O5_2 V2_2 1_555 1_555
O6_2 V1_2 1_555 1_555
O7_2 V2_2 1_555 1_555
O8_2 V1_2 1_555 1_555
O9_2 V3_2 1_555 1_555
O10_2 V4_2 1_555 1_555
V5_2 O11 1_555 1_555
V6_2 O11_2 1_555 1_555
V7_2 O15 1_555 1_555
V8_2 O4_5 1_555 1_555
V9_2 O16_2 1_555 1_555
V10_2 O18_2 1_555 1_555
V11_2 O8_2 1_555 1_555
V12_2 O17_2 1_555 1_555
V13_2 O18_2 1_555 1_555
V14_2 O6_2 1_555 1_555
V15_2 O7_2 1_555 1_555
V16_2 O21_2 1_555 1_555
O16_2 V5_2 1_555 1_555
O17_2 V6_2 1_555 1_555
O18_2 V7_2 1_555 1_555
O19_2 V5_2 1_555 1_555
O20_2 V7_2 1_555 1_555
O21_2 V6_2 1_555 1_555
O22_5 V9_2 1_555 1_555
O23_2 V8_2 1_555 1_555
O24_2 V9_2 1_555 1_555
O25_2 V10_2 1_555 1_555
O26_2 V2_2 1_555 1_555
O27_2 V4_2 1_555 1_555
O28_2 V5_2 1_555 1_555
O29_2 V4_2 1_555 1_555
O30_2 V8_2 1_555 1_555
O31_2 V10_2 1_555 1_555
O32_2 V3_2 1_555 1_555
O33_2 V6_2 1_555 1_555
O34_2 V5_2 1_555 1_555
O35_2 V11_2 1_555 1_555
O36_2 V12_2 1_555 1_555
O37_2 V13_2 1_555 1_555
O38_2 V14_2 1_555 1_555
O39_2 V15_2 1_555 1_555
O40_2 V16_2 1_555 1_555
V3_2 O3_2 1_555 1_555
V3_2 O7_2 1_555 1_555
V4_2 O32_2 1_555 1_555
O6_2 V8_2 1_555 1_555
O8_2 V14_2 1_555 1_555
V6_2 O26_2 1_555 1_555
V7_2 O27_2 1_555 1_555
V7_2 O32_2 1_555 1_555
V8_2 O17_2 1_555 1_555
V9_2 O27_2 1_555 1_555
V9_2 O29_2 1_555 1_555
V10_2 O22_5 1_555 1_555
V10_2 O28_2 1_555 1_555
V11_2 O16_2 1_555 1_555
V11_2 O19_2 1_555 1_555
V11_2 O29_2 1_555 1_555
V12_2 O21_2 1_555 1_555
V12_2 O30_2 1_555 1_555
V12_2 O34_2 1_555 1_555
V13_2 O20_2 1_555 1_555
V13_2 O31_2 1_555 1_555
V13_2 O33_2 1_555 1_555
V14_2 O19_2 1_555 1_555
V14_2 O30_2 1_555 1_555
V15_2 O20_2 1_555 1_555
V15_2 O26_2 1_555 1_555
V15_2 O33_2 1_555 1_555
V16_2 O28_2 1_555 1_555
V16_2 O31_2 1_555 1_555
V16_2 O34_2 1_555 1_555

#END
