
###############################################################################
#
# This file contains modified crystal structure data generated from the
# MOF subset of the Cambridge Structural Database (CSD) v543 
# hosted by the Cambridge Crystallographic Data Centre (CCDC).
#
# This work is licensed under the Creative Commons
# Attribution-NonCommercial-ShareAlike 4.0 International License.
# To view a copy of this license, visit
# http://creativecommons.org/licenses/by-nc-sa/4.0/
# or send a letter to
# Creative Commons, PO Box 1866, Mountain View, CA 94042, USA.
#
# CIF created using the CSD Python API on 29 September 2022
# The structure has been converted into the P1 space group
# The structure has a 3D framework
# The original CSD entry ADOCAY is in the tetragonal crystal system
# The framework has been calculated to contain at least 10.0% void space
# The void calculation uses a probe of radius 1.32A, grid spacing 0.4
#
###############################################################################

data_ADOCAY
_chemical_formula_moiety         '(C80 H64 F9 N16 Ni2 O82 V32 7-)n'
_symmetry_cell_setting           triclinic
_symmetry_space_group_name_H-M   'P 1'
_symmetry_Int_Tables_number      1
_space_group_name_Hall           'P 1'
loop_
_symmetry_equiv_pos_site_id
_symmetry_equiv_pos_as_xyz
1 x,y,z
_cell_length_a                   17.0616(5)
_cell_length_b                   17.0616(5)
_cell_length_c                   14.6533(6)
_cell_angle_alpha                90
_cell_angle_beta                 90
_cell_angle_gamma                90
_cell_volume                     4265.55
loop_
_atom_site_label
_atom_site_type_symbol
_atom_site_fract_x
_atom_site_fract_y
_atom_site_fract_z
V1 V 0.12123(4) 0.11295(4) 0.12829(4)
Ni1 Ni 0.25361(3) 0.24639(3) 0.2500
O1 O 0.18184(16) 0.17090(17) 0.18179(15)
O2 O 0.18500(18) 0.05886(17) 0.0383(2)
O3 O 0.13001(19) 0.00932(17) 0.1828(2)
O6 O 0.07144(18) 0.17792(19) 0.0372(2)
O8 O 0.0186(2) 0.13000(18) 0.1817(2)
O9 O -0.0000 -0.0000 0.2843(2)
N1 N 0.3473(2) 0.2158(2) 0.1593(3)
N2 N 0.2212(2) 0.3398(2) 0.1605(3)
C1 C 0.1949(3) 0.3295(3) 0.0742(4)
H1 H 0.1803 0.2792 0.0564
C2 C 0.1885(3) 0.3887(3) 0.0117(4)
C3 C 0.2099(3) 0.4645(3) 0.0361(4)
C4 C 0.3351(3) 0.1953(3) 0.0731(4)
H3 H 0.2846 0.1816 0.0555
C5 C 0.4214(3) 0.2289(3) 0.1849(4)
H4 H 0.4313 0.2405 0.2458
C6 C 0.4843(3) 0.2257(3) 0.1247(4)
H5 H 0.5351 0.2347 0.1454
C8 C 0.3941(3) 0.1932(3) 0.0078(4)
C9 C 0.2368(3) 0.4137(3) 0.1833(4)
H7 H 0.2510 0.4237 0.2435
C10 C 0.2336(3) 0.4761(3) 0.1245(4)
H8 H 0.2474 0.5260 0.1444
O11 O 0.32910(17) 0.31816(16) 0.31821(15)
N3 N 0.2842(2) 0.1527(2) 0.3407(3)
N8 N 0.1602(2) 0.2788(2) 0.3395(3)
H12 H 0.6217 0.1700 0.0467
C29 C 0.4704(3) 0.2089(3) 0.0321(4)
H24 H 0.1811 0.6180 0.0525
V3 V 0.18854(4) 0.03374(4) 0.91271(6)
O7 O 0.2766(2) 0.0440(2) 0.8780(2)
H2 H 0.1700 0.3783 0.9533
C7 C 0.2089(3) 0.5296(3) 0.9679(4)
H6 H 0.3820 0.1811 0.9475
V8 V 0.04750(4) 0.18551(4) 0.91122(6)
V15 V 0.07086(5) 0.06638(5) 0.76972(4)
Ni2 Ni 0.24639(3) 0.74639(3) 0.7500
Ni3 Ni 0.75361(3) 0.25361(3) 0.7500
O22 O 0.0674(2) 0.2719(2) 0.8764(3)
O25 O 0.13166(18) 0.12177(17) 0.87717(17)
O37 O 0.0000 0.0000 0.7157(2)
O39 O 0.1135(2) 0.1055(2) 0.68332(18)
N4 N 0.2158(2) 0.6527(2) 0.8407(3)
N9 N 0.6602(2) 0.2212(2) 0.8395(3)
C11 C 0.6705(3) 0.1949(3) 0.9258(4)
H9 H 0.7208 0.1803 0.9436
C14 C 0.6113(3) 0.1885(3) 0.9883(4)
C17 C 0.5355(3) 0.2099(3) 0.9639(4)
C20 C 0.1953(3) 0.6649(3) 0.9269(4)
H15 H 0.1816 0.7154 0.9445
C23 C 0.2289(3) 0.5786(3) 0.8151(4)
H18 H 0.2405 0.5687 0.7542
C26 C 0.2257(3) 0.5157(3) 0.8753(4)
H21 H 0.2347 0.4649 0.8546
C32 C 0.1932(3) 0.6059(3) 0.9922(4)
C35 C 0.5863(3) 0.2368(3) 0.8167(4)
H27 H 0.5763 0.2510 0.7565
C38 C 0.5239(3) 0.2336(3) 0.8755(4)
H30 H 0.4740 0.2474 0.8556
V2 V 0.18551(4) 0.95250(4) 0.08878(6)
V4 V 0.06638(5) 0.92914(5) 0.23028(4)
O4 O 0.2719(2) 0.9326(2) 0.1236(3)
O5 O 0.12177(17) 0.86834(18) 0.12283(17)
O9_2 O -0.0000 1.0000 0.2843(2)
O10 O 0.1055(2) 0.8865(2) 0.31668(18)
V11 V 0.03374(4) 0.81146(4) 0.08729(6)
O31 O 0.0440(2) 0.7234(2) 0.1220(2)
N5 N 0.1527(2) 0.7158(2) 0.6593(3)
C21 C 0.1649(3) 0.6953(3) 0.5731(4)
H16 H 0.2154 0.6816 0.5555
C24 C 0.0786(3) 0.7289(3) 0.6849(4)
H19 H 0.0687 0.7405 0.7458
C27 C 0.0157(3) 0.7257(3) 0.6247(4)
C30 C 0.0296(3) 0.7089(3) 0.5321(4)
C33 C 0.1059(3) 0.6932(3) 0.5078(4)
H25 H 0.1180 0.6811 0.4475
H32 H 0.0260 0.7474 0.3556
V5 V 0.11295(4) 0.87877(4) 0.87171(4)
O12 O 0.17090(17) 0.81816(16) 0.81821(15)
O16 O 0.05886(17) 0.81500(18) 0.9617(2)
O21 O 0.00932(17) 0.86999(19) 0.8172(2)
O28 O 0.17792(19) 0.92856(18) 0.9628(2)
O34 O 0.13000(18) 0.9814(2) 0.8183(2)
O37_2 O -0.0000 1.0000 0.7157(2)
O9_3 O 1.0000 -0.0000 0.2843(2)
V10 V 0.81449(4) 0.04750(4) 0.08878(6)
V12 V 0.96626(4) 0.18854(4) 0.08729(6)
V14 V 0.93362(5) 0.07086(5) 0.23028(4)
O24 O 0.7281(2) 0.0674(2) 0.1236(3)
O26 O 0.87823(17) 0.13166(18) 0.12283(17)
O32 O 0.9560(2) 0.2766(2) 0.1220(2)
O38 O 0.8945(2) 0.1135(2) 0.31668(18)
N10 N 0.7212(2) 0.1602(2) 0.6605(3)
C12 C 0.6949(3) 0.1705(3) 0.5742(4)
H10 H 0.6803 0.2208 0.5564
C15 C 0.6885(3) 0.1113(3) 0.5117(4)
H13 H 0.6700 0.1217 0.4533
C18 C 0.7099(3) 0.0355(3) 0.5361(4)
H23 H 0.7347 0.0351 0.3546
C36 C 0.7368(3) 0.0863(3) 0.6833(4)
H28 H 0.7510 0.0763 0.7435
C39 C 0.7336(3) 0.0239(3) 0.6245(4)
V7 V 0.88705(4) 0.12123(4) 0.87171(4)
O14 O 0.82910(17) 0.18184(16) 0.81821(15)
O17 O 0.94114(17) 0.18500(18) 0.9617(2)
O19 O 0.99068(17) 0.13001(19) 0.8172(2)
O30 O 0.82208(19) 0.07144(18) 0.9628(2)
O36 O 0.87000(18) 0.0186(2) 0.8183(2)
O37_3 O 1.0000 0.0000 0.7157(2)
O9_4 O 1.0000 1.0000 0.2843(2)
V6 V 0.87877(4) 0.88705(4) 0.12829(4)
Ni7 Ni 0.74639(3) 0.75361(3) 0.2500
O13 O 0.81816(16) 0.82910(17) 0.18179(15)
O15 O 0.67090(17) 0.68184(16) 0.31821(15)
O18 O 0.81500(18) 0.94114(17) 0.0383(2)
O20 O 0.86999(19) 0.99068(17) 0.1828(2)
O29 O 0.92856(18) 0.82208(19) 0.0372(2)
O35 O 0.9814(2) 0.87000(18) 0.1817(2)
N6 N 0.6527(2) 0.7842(2) 0.1593(3)
N7 N 0.7158(2) 0.8473(2) 0.3407(3)
N11 N 0.7788(2) 0.6602(2) 0.1605(3)
N12 N 0.8398(2) 0.7212(2) 0.3395(3)
C13 C 0.8295(3) 0.6949(3) 0.4258(4)
H11 H 0.7792 0.6803 0.4436
C16 C 0.8887(3) 0.6885(3) 0.4883(4)
H14 H 0.8783 0.6700 0.5467
C19 C 0.9645(3) 0.7099(3) 0.4639(4)
C22 C 0.6953(3) 0.8351(3) 0.4269(4)
H17 H 0.6816 0.7846 0.4445
C25 C 0.7289(3) 0.9214(3) 0.3151(4)
H20 H 0.7405 0.9313 0.2542
C28 C 0.7257(3) 0.9843(3) 0.3753(4)
H22 H 0.9649 0.7347 0.6454
C31 C 0.7089(3) 0.9704(3) 0.4679(4)
C34 C 0.6932(3) 0.8941(3) 0.4922(4)
H26 H 0.6811 0.8820 0.5525
C37 C 0.9137(3) 0.7368(3) 0.3167(4)
H29 H 0.9237 0.7510 0.2565
C40 C 0.9761(3) 0.7336(3) 0.3755(4)
H31 H 0.7474 0.9740 0.6444
V9 V 0.95250(4) 0.81449(4) 0.91122(6)
V13 V 0.81146(4) 0.96626(4) 0.91271(6)
V16 V 0.92914(5) 0.93362(5) 0.76972(4)
O23 O 0.9326(2) 0.7281(2) 0.8764(3)
O27 O 0.86834(18) 0.87823(17) 0.87717(17)
O33 O 0.7234(2) 0.9560(2) 0.8780(2)
O37_4 O 1.0000 1.0000 0.7157(2)
O40 O 0.8865(2) 0.8945(2) 0.68332(18)
C13_2 C 0.1705(3) 0.3051(3) 0.4258(4)
H11_2 H 0.2208 0.3197 0.4436
C16_2 C 0.1113(3) 0.3115(3) 0.4883(4)
H14_2 H 0.1217 0.3300 0.5467
C19_2 C 0.0355(3) 0.2901(3) 0.4639(4)
C22_2 C 0.3047(3) 0.1649(3) 0.4269(4)
H17_2 H 0.3184 0.2154 0.4445
C25_2 C 0.2711(3) 0.0786(3) 0.3151(4)
H20_2 H 0.2595 0.0687 0.2542
C28_2 C 0.2743(3) 0.0157(3) 0.3753(4)
H22_2 H 0.0351 0.2653 0.6454
C31_2 C 0.2911(3) 0.0296(3) 0.4679(4)
C34_2 C 0.3068(3) 0.1059(3) 0.4922(4)
H26_2 H 0.3189 0.1180 0.5525
C37_2 C 0.0863(3) 0.2632(3) 0.3167(4)
H29_2 H 0.0763 0.2490 0.2565
C40_2 C 0.0239(3) 0.2664(3) 0.3755(4)
H31_2 H 0.2526 0.0260 0.6444
N10_2 N 0.2788(2) 0.8398(2) 0.6605(3)
C12_2 C 0.3051(3) 0.8295(3) 0.5742(4)
H10_2 H 0.3197 0.7792 0.5564
C15_2 C 0.3115(3) 0.8887(3) 0.5117(4)
H13_2 H 0.3300 0.8783 0.4533
C18_2 C 0.2901(3) 0.9645(3) 0.5361(4)
H23_2 H 0.2653 0.9649 0.3546
C36_2 C 0.2632(3) 0.9137(3) 0.6833(4)
H28_2 H 0.2490 0.9237 0.7435
C39_2 C 0.2664(3) 0.9761(3) 0.6245(4)
N5_2 N 0.8473(2) 0.2842(2) 0.6593(3)
C21_2 C 0.8351(3) 0.3047(3) 0.5731(4)
H16_2 H 0.7846 0.3184 0.5555
C24_2 C 0.9214(3) 0.2711(3) 0.6849(4)
H19_2 H 0.9313 0.2595 0.7458
C27_2 C 0.9843(3) 0.2743(3) 0.6247(4)
C30_2 C 0.9704(3) 0.2911(3) 0.5321(4)
C33_2 C 0.8941(3) 0.3068(3) 0.5078(4)
H25_2 H 0.8820 0.3189 0.4475
H32_2 H 0.9740 0.2526 0.3556
C1_2 C 0.8051(3) 0.6705(3) 0.0742(4)
H1_2 H 0.8197 0.7208 0.0564
C2_2 C 0.8115(3) 0.6113(3) 0.0117(4)
C3_2 C 0.7901(3) 0.5355(3) 0.0361(4)
C4_2 C 0.6649(3) 0.8047(3) 0.0731(4)
H3_2 H 0.7154 0.8184 0.0555
C5_2 C 0.5786(3) 0.7711(3) 0.1849(4)
H4_2 H 0.5687 0.7595 0.2458
C6_2 C 0.5157(3) 0.7743(3) 0.1247(4)
H5_2 H 0.4649 0.7653 0.1454
C8_2 C 0.6059(3) 0.8068(3) 0.0078(4)
C9_2 C 0.7632(3) 0.5863(3) 0.1833(4)
H7_2 H 0.7490 0.5763 0.2435
C10_2 C 0.7664(3) 0.5239(3) 0.1245(4)
H8_2 H 0.7526 0.4740 0.1444
H12_2 H 0.3783 0.8300 0.0467
C29_2 C 0.5296(3) 0.7911(3) 0.0321(4)
H24_2 H 0.8189 0.3820 0.0525
H2_2 H 0.8300 0.6217 0.9533
C7_2 C 0.7911(3) 0.4704(3) 0.9679(4)
H6_2 H 0.6180 0.8189 0.9475
N4_2 N 0.7842(2) 0.3473(2) 0.8407(3)
N9_2 N 0.3398(2) 0.7788(2) 0.8395(3)
C11_2 C 0.3295(3) 0.8051(3) 0.9258(4)
H9_2 H 0.2792 0.8197 0.9436
C14_2 C 0.3887(3) 0.8115(3) 0.9883(4)
C17_2 C 0.4645(3) 0.7901(3) 0.9639(4)
C20_2 C 0.8047(3) 0.3351(3) 0.9269(4)
H15_2 H 0.8184 0.2846 0.9445
C23_2 C 0.7711(3) 0.4214(3) 0.8151(4)
H18_2 H 0.7595 0.4313 0.7542
C26_2 C 0.7743(3) 0.4843(3) 0.8753(4)
H21_2 H 0.7653 0.5351 0.8546
C32_2 C 0.8068(3) 0.3941(3) 0.9922(4)
C35_2 C 0.4137(3) 0.7632(3) 0.8167(4)
H27_2 H 0.4237 0.7490 0.7565
C38_2 C 0.4761(3) 0.7664(3) 0.8755(4)
H30_2 H 0.5260 0.7526 0.8556
O11_2 O 0.31816(16) 0.67090(17) 0.68179(15)
O15_2 O 0.68184(16) 0.32910(17) 0.68179(15)
V1_2 V 0.62123(4) 0.38705(4) 0.62829(4)
V2_2 V 0.68551(4) 0.54750(4) 0.58878(6)
V3_2 V 0.68854(4) 0.46626(4) 0.41271(6)
V4_2 V 0.56638(5) 0.57086(5) 0.73028(4)
O2_2 O 0.68500(18) 0.44114(17) 0.5383(2)
O3_2 O 0.63001(19) 0.49068(17) 0.6828(2)
O4_2 O 0.7719(2) 0.5674(2) 0.6236(3)
O5_2 O 0.62177(17) 0.63166(18) 0.62283(17)
O6_2 O 0.57144(18) 0.32208(19) 0.5372(2)
O7_2 O 0.7766(2) 0.4560(2) 0.3780(2)
O8_2 O 0.5186(2) 0.37000(18) 0.6817(2)
O9_5 O 0.5000 0.5000 0.7843(2)
O10_2 O 0.6055(2) 0.6135(2) 0.81668(18)
V5_2 V 0.61295(4) 0.62123(4) 0.37171(4)
V6_2 V 0.37877(4) 0.61295(4) 0.62829(4)
V7_2 V 0.38705(4) 0.37877(4) 0.37171(4)
V8_2 V 0.54750(4) 0.31449(4) 0.41122(6)
V9_2 V 0.45250(4) 0.68551(4) 0.41122(6)
V10_2 V 0.31449(4) 0.45250(4) 0.58878(6)
V11_2 V 0.53374(4) 0.68854(4) 0.58729(6)
V12_2 V 0.46626(4) 0.31146(4) 0.58729(6)
V13_2 V 0.31146(4) 0.53374(4) 0.41271(6)
V14_2 V 0.43362(5) 0.42914(5) 0.73028(4)
V15_2 V 0.57086(5) 0.43362(5) 0.26972(4)
V16_2 V 0.42914(5) 0.56638(5) 0.26972(4)
O16_2 O 0.55886(17) 0.68500(18) 0.4617(2)
O17_2 O 0.44114(17) 0.31500(18) 0.4617(2)
O18_2 O 0.31500(18) 0.55886(17) 0.5383(2)
O19_2 O 0.49068(17) 0.36999(19) 0.3172(2)
O20_2 O 0.36999(19) 0.50932(17) 0.6828(2)
O21_2 O 0.50932(17) 0.63001(19) 0.3172(2)
O22_2 O 0.5674(2) 0.2281(2) 0.3764(3)
O23_2 O 0.4326(2) 0.7719(2) 0.3764(3)
O24_2 O 0.2281(2) 0.4326(2) 0.6236(3)
O25_2 O 0.63166(18) 0.37823(17) 0.37717(17)
O26_2 O 0.37823(17) 0.36834(18) 0.62283(17)
O27_2 O 0.36834(18) 0.62177(17) 0.37717(17)
O28_2 O 0.67792(19) 0.57144(18) 0.4628(2)
O29_2 O 0.42856(18) 0.67792(19) 0.5372(2)
O30_2 O 0.32208(19) 0.42856(18) 0.4628(2)
O31_2 O 0.5440(2) 0.7766(2) 0.6220(2)
O32_2 O 0.4560(2) 0.2234(2) 0.6220(2)
O33_2 O 0.2234(2) 0.5440(2) 0.3780(2)
O34_2 O 0.63000(18) 0.5186(2) 0.3183(2)
O35_2 O 0.4814(2) 0.63000(18) 0.6817(2)
O36_2 O 0.37000(18) 0.4814(2) 0.3183(2)
O37_5 O 0.5000 0.5000 0.2157(2)
O38_2 O 0.3945(2) 0.3865(2) 0.81668(18)
O39_2 O 0.6135(2) 0.3945(2) 0.18332(18)
O40_2 O 0.3865(2) 0.6055(2) 0.18332(18)
F1 F 0.0000 0.0000 0.0000
F1_2 F -0.0000 -0.0000 1.0000
F1_3 F -0.0000 1.0000 0.0000
F1_4 F -0.0000 1.0000 1.0000
F1_5 F 1.0000 0.0000 0.0000
F1_6 F 1.0000 -0.0000 1.0000
F1_7 F 1.0000 1.0000 0.0000
F1_8 F 1.0000 1.0000 1.0000
F1_9 F 0.5000 0.5000 0.5000
loop_
_geom_bond_atom_site_label_1
_geom_bond_atom_site_label_2
_geom_bond_site_symmetry_1
_geom_bond_site_symmetry_2
V1 O1 1_555 1_555
Ni1 O1 1_555 1_555
O2 V1 1_555 1_555
O3 V1 1_555 1_555
O6 V1 1_555 1_555
O8 V1 1_555 1_555
N1 Ni1 1_555 1_555
N2 Ni1 1_555 1_555
C1 N2 1_555 1_555
H1 C1 1_555 1_555
C2 C1 1_555 1_555
C3 C2 1_555 1_555
C4 N1 1_555 1_555
H3 C4 1_555 1_555
C5 N1 1_555 1_555
H4 C5 1_555 1_555
C6 C5 1_555 1_555
H5 C6 1_555 1_555
C8 C4 1_555 1_555
C9 N2 1_555 1_555
H7 C9 1_555 1_555
C10 C3 1_555 1_555
H8 C10 1_555 1_555
O11 Ni1 1_555 1_555
N3 Ni1 1_555 1_555
N8 Ni1 1_555 1_555
C29 C6 1_555 1_555
C8 C29 1_555 1_555
C9 C10 1_555 1_555
O7 V3 1_555 1_555
Ni2 N4 1_555 1_555
Ni3 N9 1_555 1_555
O22 V8 1_555 1_555
O25 V3 1_555 1_555
O37 V15 1_555 1_555
O39 V15 1_555 1_555
N4 C20 1_555 1_555
N9 C11 1_555 1_555
C11 H9 1_555 1_555
C14 C11 1_555 1_555
C17 C14 1_555 1_555
C20 H15 1_555 1_555
C23 N4 1_555 1_555
H18 C23 1_555 1_555
C26 C7 1_555 1_555
H21 C26 1_555 1_555
C32 C7 1_555 1_555
C35 N9 1_555 1_555
H27 C35 1_555 1_555
C38 C17 1_555 1_555
H30 C38 1_555 1_555
V8 O25 1_555 1_555
V15 O25 1_555 1_555
C20 C32 1_555 1_555
C23 C26 1_555 1_555
C35 C38 1_555 1_555
O4 V2 1_555 1_555
O5 V2 1_555 1_555
O9_2 V4 1_555 1_555
O10 V4 1_555 1_555
V11 O5 1_555 1_555
Ni2 N5 1_555 1_555
O31 V11 1_555 1_555
N5 C21 1_555 1_555
C21 H16 1_555 1_555
C24 N5 1_555 1_555
H19 C24 1_555 1_555
C27 C24 1_555 1_555
C33 C21 1_555 1_555
H25 C33 1_555 1_555
V4 O5 1_555 1_555
C27 C30 1_555 1_555
C30 C33 1_555 1_555
V5 O12 1_555 1_555
Ni2 O12 1_555 1_555
O16 V5 1_555 1_555
O21 V5 1_555 1_555
V5 O28 1_555 1_555
V5 O34 1_555 1_555
Ni3 N10 1_555 1_555
O24 V10 1_555 1_555
O26 V10 1_555 1_555
O32 V12 1_555 1_555
O38 V14 1_555 1_555
N10 C12 1_555 1_555
C12 H10 1_555 1_555
C15 C12 1_555 1_555
H13 C15 1_555 1_555
C18 C15 1_555 1_555
C36 N10 1_555 1_555
H28 C36 1_555 1_555
C39 C18 1_555 1_555
O9_3 V14 1_555 1_555
V12 O26 1_555 1_555
V14 O26 1_555 1_555
C36 C39 1_555 1_555
V7 O14 1_555 1_555
Ni3 O14 1_555 1_555
O17 V7 1_555 1_555
O19 V7 1_555 1_555
O30 V7 1_555 1_555
O36 V7 1_555 1_555
V6 O13 1_555 1_555
Ni7 O13 1_555 1_555
O15 Ni7 1_555 1_555
O18 V6 1_555 1_555
O20 V6 1_555 1_555
O29 V6 1_555 1_555
N6 Ni7 1_555 1_555
N7 Ni7 1_555 1_555
N11 Ni7 1_555 1_555
N12 Ni7 1_555 1_555
C13 N12 1_555 1_555
H11 C13 1_555 1_555
C16 C13 1_555 1_555
H14 C16 1_555 1_555
C19 C16 1_555 1_555
C22 N7 1_555 1_555
H17 C22 1_555 1_555
C25 N7 1_555 1_555
H20 C25 1_555 1_555
C28 C25 1_555 1_555
C34 C22 1_555 1_555
H26 C34 1_555 1_555
C37 N12 1_555 1_555
H29 C37 1_555 1_555
C40 C19 1_555 1_555
V6 O35 1_555 1_555
C28 C31 1_555 1_555
C31 C34 1_555 1_555
C37 C40 1_555 1_555
O23 V9 1_555 1_555
O27 V9 1_555 1_555
O33 V13 1_555 1_555
O40 V16 1_555 1_555
V13 O27 1_555 1_555
V16 O27 1_555 1_555
V16 O37_4 1_555 1_555
C13_2 N8 1_555 1_555
H11_2 C13_2 1_555 1_555
C16_2 C13_2 1_555 1_555
H14_2 C16_2 1_555 1_555
C19_2 C16_2 1_555 1_555
C22_2 N3 1_555 1_555
H17_2 C22_2 1_555 1_555
C25_2 N3 1_555 1_555
H20_2 C25_2 1_555 1_555
C28_2 C25_2 1_555 1_555
C34_2 C22_2 1_555 1_555
H26_2 C34_2 1_555 1_555
C37_2 N8 1_555 1_555
H29_2 C37_2 1_555 1_555
C40_2 C19_2 1_555 1_555
C28_2 C31_2 1_555 1_555
C31_2 C34_2 1_555 1_555
C37_2 C40_2 1_555 1_555
Ni2 N10_2 1_555 1_555
N10_2 C12_2 1_555 1_555
C12_2 H10_2 1_555 1_555
C15_2 C12_2 1_555 1_555
H13_2 C15_2 1_555 1_555
C18_2 C15_2 1_555 1_555
C36_2 N10_2 1_555 1_555
H28_2 C36_2 1_555 1_555
C39_2 C18_2 1_555 1_555
C36_2 C39_2 1_555 1_555
Ni3 N5_2 1_555 1_555
N5_2 C21_2 1_555 1_555
C21_2 H16_2 1_555 1_555
C24_2 N5_2 1_555 1_555
H19_2 C24_2 1_555 1_555
C27_2 C24_2 1_555 1_555
C33_2 C21_2 1_555 1_555
H25_2 C33_2 1_555 1_555
C27_2 C30_2 1_555 1_555
C30_2 C33_2 1_555 1_555
C1_2 N11 1_555 1_555
H1_2 C1_2 1_555 1_555
C2_2 C1_2 1_555 1_555
C3_2 C2_2 1_555 1_555
C4_2 N6 1_555 1_555
H3_2 C4_2 1_555 1_555
C5_2 N6 1_555 1_555
H4_2 C5_2 1_555 1_555
C6_2 C5_2 1_555 1_555
H5_2 C6_2 1_555 1_555
C8_2 C4_2 1_555 1_555
C9_2 N11 1_555 1_555
H7_2 C9_2 1_555 1_555
C10_2 C3_2 1_555 1_555
H8_2 C10_2 1_555 1_555
C29_2 C6_2 1_555 1_555
C8_2 C29_2 1_555 1_555
C9_2 C10_2 1_555 1_555
Ni3 N4_2 1_555 1_555
Ni2 N9_2 1_555 1_555
N4_2 C20_2 1_555 1_555
N9_2 C11_2 1_555 1_555
C11_2 H9_2 1_555 1_555
C14_2 C11_2 1_555 1_555
C17_2 C14_2 1_555 1_555
C20_2 H15_2 1_555 1_555
C23_2 N4_2 1_555 1_555
H18_2 C23_2 1_555 1_555
C26_2 C7_2 1_555 1_555
H21_2 C26_2 1_555 1_555
C32_2 C7_2 1_555 1_555
C35_2 N9_2 1_555 1_555
H27_2 C35_2 1_555 1_555
C38_2 C17_2 1_555 1_555
H30_2 C38_2 1_555 1_555
C20_2 C32_2 1_555 1_555
C23_2 C26_2 1_555 1_555
C35_2 C38_2 1_555 1_555
O11_2 Ni2 1_555 1_555
O15_2 Ni3 1_555 1_555
V1_2 O15_2 1_555 1_555
V2_2 O2_2 1_555 1_555
V3_2 O2_2 1_555 1_555
V4_2 O3_2 1_555 1_555
O2_2 V1_2 1_555 1_555
O3_2 V1_2 1_555 1_555
O4_2 V2_2 1_555 1_555
O5_2 V2_2 1_555 1_555
O6_2 V1_2 1_555 1_555
O7_2 V3_2 1_555 1_555
O8_2 V1_2 1_555 1_555
O9_5 V4_2 1_555 1_555
O10_2 V4_2 1_555 1_555
V5_2 O15 1_555 1_555
V6_2 O11_2 1_555 1_555
V7_2 O11 1_555 1_555
V8_2 O6_2 1_555 1_555
V9_2 O16_2 1_555 1_555
V10_2 O18_2 1_555 1_555
V11_2 O5_2 1_555 1_555
V12_2 O6_2 1_555 1_555
V13_2 O18_2 1_555 1_555
V14_2 O8_2 1_555 1_555
V15_2 O19_2 1_555 1_555
V16_2 O21_2 1_555 1_555
O16_2 V5_2 1_555 1_555
O17_2 V7_2 1_555 1_555
O18_2 V6_2 1_555 1_555
O19_2 V7_2 1_555 1_555
O20_2 V6_2 1_555 1_555
O21_2 V5_2 1_555 1_555
O22_2 V8_2 1_555 1_555
O23_2 V9_2 1_555 1_555
O24_2 V10_2 1_555 1_555
O25_2 V3_2 1_555 1_555
O26_2 V10_2 1_555 1_555
O27_2 V9_2 1_555 1_555
O28_2 V2_2 1_555 1_555
O29_2 V6_2 1_555 1_555
O30_2 V7_2 1_555 1_555
O31_2 V11_2 1_555 1_555
O32_2 V12_2 1_555 1_555
O33_2 V13_2 1_555 1_555
O34_2 V3_2 1_555 1_555
O35_2 V4_2 1_555 1_555
O36_2 V7_2 1_555 1_555
O37_5 V15_2 1_555 1_555
O38_2 V14_2 1_555 1_555
O39_2 V15_2 1_555 1_555
O40_2 V16_2 1_555 1_555
V2_2 O3_2 1_555 1_555
V3_2 O28_2 1_555 1_555
V4_2 O5_2 1_555 1_555
O8_2 V12_2 1_555 1_555
O9_5 V14_2 1_555 1_555
V5_2 O28_2 1_555 1_555
V5_2 O34_2 1_555 1_555
V6_2 O35_2 1_555 1_555
V8_2 O17_2 1_555 1_555
V8_2 O19_2 1_555 1_555
V8_2 O25_2 1_555 1_555
V9_2 O21_2 1_555 1_555
V9_2 O29_2 1_555 1_555
V10_2 O20_2 1_555 1_555
V10_2 O30_2 1_555 1_555
V11_2 O16_2 1_555 1_555
V11_2 O29_2 1_555 1_555
V11_2 O35_2 1_555 1_555
V12_2 O17_2 1_555 1_555
V12_2 O26_2 1_555 1_555
V13_2 O27_2 1_555 1_555
V13_2 O30_2 1_555 1_555
V13_2 O36_2 1_555 1_555
V14_2 O20_2 1_555 1_555
V14_2 O26_2 1_555 1_555
V15_2 O25_2 1_555 1_555
V15_2 O34_2 1_555 1_555
V16_2 O27_2 1_555 1_555
V16_2 O36_2 1_555 1_555
V16_2 O37_5 1_555 1_555

#END
