
###############################################################################
#
# This file contains modified crystal structure data generated from the
# MOF subset of the Cambridge Structural Database (CSD) v543 
# hosted by the Cambridge Crystallographic Data Centre (CCDC).
#
# This work is licensed under the Creative Commons
# Attribution-NonCommercial-ShareAlike 4.0 International License.
# To view a copy of this license, visit
# http://creativecommons.org/licenses/by-nc-sa/4.0/
# or send a letter to
# Creative Commons, PO Box 1866, Mountain View, CA 94042, USA.
#
# CIF created using the CSD Python API on 29 September 2022
# The structure has been converted into the P1 space group
# The structure has a 3D framework
# The original CSD entry ADODII is in the monoclinic crystal system
# The original CSD entry ADODII is in a Sohncke space group
# The framework has been calculated to contain at least 10.0% void space
# The void calculation uses a probe of radius 1.32A, grid spacing 0.4
#
###############################################################################

data_ADODII
_chemical_formula_moiety         '(C104 H80 O35)n'
_symmetry_cell_setting           triclinic
_symmetry_space_group_name_H-M   'P 1'
_symmetry_Int_Tables_number      1
_space_group_name_Hall           'P 1'
loop_
_symmetry_equiv_pos_site_id
_symmetry_equiv_pos_as_xyz
1 x,y,z
_cell_length_a                   33.136(6)
_cell_length_b                   7.3933(12)
_cell_length_c                   14.349(2)
_cell_angle_alpha                90
_cell_angle_beta                 104.510(3)
_cell_angle_gamma                90
_cell_volume                     3403.16
loop_
_atom_site_label
_atom_site_type_symbol
_atom_site_fract_x
_atom_site_fract_y
_atom_site_fract_z
O3 O 0.2787(2) 0.1617(9) 0.8261(4)
H10 H 0.3309 0.1069 0.7312
C26 C 0.2907(2) 0.0070(12) 0.8563(6)
La4 La 0.250658(10) 0.25673(9) 0.96377(2)
La8 La 0.749342(10) 0.25673(9) 0.03623(2)
O15 O 0.7213(2) 0.1617(9) 0.1739(4)
H30 H 0.6691 0.1069 0.2688
C52 C 0.7093(2) 0.0070(12) 0.1437(6)
La5 La 0.249342(10) 0.75673(9) 0.03623(2)
O12 O 0.80389(15) 0.0284(7) 0.0424(4)
O24 O 0.76733(15) 0.5743(7) 0.1161(3)
O27 O 0.80477(18) 0.3454(8) 0.1846(4)
O1 O 0.69611(15) 0.5284(7) 0.9576(4)
O2 O 0.67103(14) 0.2643(15) 0.9778(4)
O4 O 0.27995(16) 0.9403(7) 0.9281(4)
O5 O 0.26733(15) 0.0743(7) 0.1161(3)
O7 O 0.39790(18) 0.6110(8) 0.6846(4)
O8 O 0.39275(18) 0.4811(8) 0.4577(4)
O9 O 0.50745(16) 0.6234(8) 0.7244(4)
O10 O 0.5000 0.5775(11) 0.5000
C1 C 0.4480(2) 0.5728(11) 0.5895(5)
C2 C 0.4706(2) 0.6843(11) 0.5291(6)
H1 H 0.4506 0.7314 0.4730
H2 H 0.4844 0.7860 0.5666
C3 C 0.4256(2) 0.4139(11) 0.5339(5)
H3 H 0.4448 0.3428 0.5079
H4 H 0.4143 0.3371 0.5760
C4 C 0.4188(2) 0.7025(10) 0.6224(5)
H5 H 0.4347 0.8035 0.6563
H6 H 0.3985 0.7497 0.5669
C5 C 0.4800(2) 0.4882(11) 0.6753(6)
H7 H 0.4656 0.4324 0.7190
H8 H 0.4958 0.3952 0.6523
C6 C 0.3722(3) 0.7145(12) 0.7245(7)
C7 C 0.3637(3) 0.8918(15) 0.7019(7)
H9 H 0.3758 0.9499 0.6581
C8 C 0.3365(3) 0.9854(14) 0.7456(7)
C9 C 0.3180(3) 0.9011(13) 0.8089(6)
C10 C 0.3265(3) 0.7183(14) 0.8300(7)
H11 H 0.3142 0.6584 0.8727
C11 C 0.3533(3) 0.6280(14) 0.7871(7)
H12 H 0.3588 0.5061 0.8006
C12 C 0.5456(2) 0.5673(12) 0.7813(5)
C13 C 0.5749(2) 0.7012(11) 0.8078(6)
H13 H 0.5686 0.8206 0.7894
C14 C 0.6144(2) 0.6538(11) 0.8629(6)
H14 H 0.6347 0.7427 0.8811
C15 C 0.6238(2) 0.4761(10) 0.8911(5)
C16 C 0.5929(2) 0.3479(12) 0.8634(6)
H15 H 0.5988 0.2279 0.8812
C17 C 0.5535(2) 0.3928(12) 0.8098(6)
H16 H 0.5327 0.3053 0.7936
C18 C 0.6656(2) 0.4202(11) 0.9462(5)
C19 C 0.3710(3) 0.3577(16) 0.3949(7)
C20 C 0.3792(4) 0.1752(17) 0.3963(9)
H17 H 0.4008 0.1267 0.4440
C21 C 0.3555(3) 0.0657(16) 0.3277(8)
C22 C 0.3215(3) 0.1317(12) 0.2572(7)
C23 C 0.3133(3) 0.3146(11) 0.2564(7)
H19 H 0.2912 0.3622 0.2096
C24 C 0.3379(3) 0.4295(12) 0.3252(7)
H20 H 0.3322 0.5527 0.3244
C25 C 0.2969(2) 0.0093(11) 0.1825(5)
La3 La 0.750658(10) 0.75673(9) 0.96377(2)
O11 O 0.30389(15) 0.5284(7) 0.0424(4)
O14 O 0.32897(14) 0.2643(15) 0.0222(4)
O18 O 0.72005(16) 0.9403(7) 0.0719(4)
O20 O 0.77995(16) 0.4403(7) 0.9281(4)
O22 O 0.22005(16) 0.4403(7) 0.0719(4)
O23 O 0.73267(15) 0.0743(7) 0.8839(3)
O29 O 0.60210(18) 0.6110(8) 0.3154(4)
O30 O 0.60725(18) 0.4811(8) 0.5423(4)
O31 O 0.49255(16) 0.6234(8) 0.2756(4)
C27 C 0.5520(2) 0.5728(11) 0.4105(5)
C28 C 0.5294(2) 0.6843(11) 0.4709(6)
H21 H 0.5494 0.7314 0.5270
H22 H 0.5156 0.7860 0.4334
C29 C 0.5744(2) 0.4139(11) 0.4661(5)
H23 H 0.5552 0.3428 0.4921
H24 H 0.5857 0.3371 0.4240
C30 C 0.5812(2) 0.7025(10) 0.3776(5)
H25 H 0.5653 0.8035 0.3437
H26 H 0.6015 0.7497 0.4331
C31 C 0.5200(2) 0.4882(11) 0.3247(6)
H27 H 0.5344 0.4324 0.2810
H28 H 0.5042 0.3952 0.3477
C32 C 0.6278(3) 0.7145(12) 0.2755(7)
C33 C 0.6363(3) 0.8918(15) 0.2981(7)
H29 H 0.6242 0.9499 0.3419
C34 C 0.6635(3) 0.9854(14) 0.2544(7)
C35 C 0.6820(3) 0.9011(13) 0.1911(6)
C36 C 0.6735(3) 0.7183(14) 0.1700(7)
H31 H 0.6858 0.6584 0.1273
C37 C 0.6467(3) 0.6280(14) 0.2129(7)
H32 H 0.6412 0.5061 0.1994
C38 C 0.4544(2) 0.5673(12) 0.2187(5)
C39 C 0.4251(2) 0.7012(11) 0.1922(6)
H33 H 0.4314 0.8206 0.2106
C40 C 0.3856(2) 0.6538(11) 0.1371(6)
H34 H 0.3653 0.7427 0.1189
C41 C 0.3762(2) 0.4761(10) 0.1089(5)
C42 C 0.4071(2) 0.3479(12) 0.1366(6)
H35 H 0.4012 0.2279 0.1188
C43 C 0.4465(2) 0.3928(12) 0.1902(6)
H36 H 0.4673 0.3053 0.2064
C44 C 0.3344(2) 0.4202(11) 0.0538(5)
C45 C 0.6290(3) 0.3577(16) 0.6051(7)
C46 C 0.6208(4) 0.1752(17) 0.6037(9)
H37 H 0.5992 0.1267 0.5560
C47 C 0.6445(3) 0.0657(16) 0.6723(8)
C48 C 0.6785(3) 0.1317(12) 0.7428(7)
C49 C 0.6867(3) 0.3146(11) 0.7436(7)
H39 H 0.7088 0.3622 0.7904
C50 C 0.6621(3) 0.4295(12) 0.6748(7)
H40 H 0.6678 0.5527 0.6756
C51 C 0.7031(2) 0.0093(11) 0.8175(5)
O13 O 0.19611(15) 0.0284(7) 0.9576(4)
O25 O 0.23267(15) 0.5743(7) 0.8839(3)
O28 O 0.19523(18) 0.3454(8) 0.8154(4)
O6 O 0.30477(18) 0.8454(8) 0.1846(4)
H18 H 0.3620 0.9434 0.3278
O26 O 0.69523(18) 0.8454(8) 0.8154(4)
H38 H 0.6380 0.9434 0.6722
O9_2 O 0.00745(16) 0.1234(8) 0.7244(4)
O10_2 O -0.0000 0.0775(11) 0.5000
C12_2 C 0.0456(2) 0.0673(12) 0.7813(5)
C13_2 C 0.0749(2) 0.2012(11) 0.8078(6)
H13_2 H 0.0686 0.3206 0.7894
C14_2 C 0.1144(2) 0.1538(11) 0.8629(6)
H14_2 H 0.1347 0.2427 0.8811
O15_2 O 0.2213(2) 0.6617(9) 0.1739(4)
O29_2 O 0.10210(18) 0.1110(8) 0.3154(4)
C27_2 C 0.0520(2) 0.0728(11) 0.4105(5)
C28_2 C 0.0294(2) 0.1843(11) 0.4709(6)
H21_2 H 0.0494 0.2314 0.5270
H22_2 H 0.0156 0.2860 0.4334
C30_2 C 0.0812(2) 0.2025(10) 0.3776(5)
H25_2 H 0.0653 0.3035 0.3437
H26_2 H 0.1015 0.2497 0.4331
C32_2 C 0.1278(3) 0.2145(12) 0.2755(7)
C33_2 C 0.1363(3) 0.3918(15) 0.2981(7)
H29_2 H 0.1242 0.4499 0.3419
C34_2 C 0.1635(3) 0.4854(14) 0.2544(7)
H30_2 H 0.1691 0.6069 0.2688
C35_2 C 0.1820(3) 0.4011(13) 0.1911(6)
C36_2 C 0.1735(3) 0.2183(14) 0.1700(7)
H31_2 H 0.1858 0.1584 0.1273
C37_2 C 0.1467(3) 0.1280(14) 0.2129(7)
H32_2 H 0.1412 0.0061 0.1994
H40_2 H 0.1678 0.0527 0.6756
C52_2 C 0.2093(2) 0.5070(12) 0.1437(6)
O2_2 O 0.17103(14) 0.7643(15) 0.9778(4)
C15_2 C 0.1238(2) 0.9761(10) 0.8911(5)
C16_2 C 0.0929(2) 0.8479(12) 0.8634(6)
H15_2 H 0.0988 0.7279 0.8812
C17_2 C 0.0535(2) 0.8928(12) 0.8098(6)
H16_2 H 0.0327 0.8053 0.7936
C18_2 C 0.1656(2) 0.9202(11) 0.9462(5)
O30_2 O 0.10725(18) 0.9811(8) 0.5423(4)
C29_2 C 0.0744(2) 0.9139(11) 0.4661(5)
H23_2 H 0.0552 0.8428 0.4921
H24_2 H 0.0857 0.8371 0.4240
C31_2 C 0.0200(2) 0.9882(11) 0.3247(6)
H27_2 H 0.0344 0.9324 0.2810
H28_2 H 0.0042 0.8952 0.3477
C45_2 C 0.1290(3) 0.8577(16) 0.6051(7)
C46_2 C 0.1208(4) 0.6752(17) 0.6037(9)
H37_2 H 0.0992 0.6267 0.5560
C47_2 C 0.1445(3) 0.5657(16) 0.6723(8)
H38_2 H 0.1380 0.4434 0.6722
C48_2 C 0.1785(3) 0.6317(12) 0.7428(7)
C49_2 C 0.1867(3) 0.8146(11) 0.7436(7)
H39_2 H 0.2088 0.8622 0.7904
C50_2 C 0.1621(3) 0.9295(12) 0.6748(7)
C51_2 C 0.2031(2) 0.5093(11) 0.8175(5)
O3_2 O 0.7787(2) 0.6617(9) 0.8261(4)
O7_2 O 0.89790(18) 0.1110(8) 0.6846(4)
O10_3 O 1.0000 0.0775(11) 0.5000
C1_2 C 0.9480(2) 0.0728(11) 0.5895(5)
C2_2 C 0.9706(2) 0.1843(11) 0.5291(6)
H1_2 H 0.9506 0.2314 0.4730
H2_2 H 0.9844 0.2860 0.5666
C4_2 C 0.9188(2) 0.2025(10) 0.6224(5)
H5_2 H 0.9347 0.3035 0.6563
H6_2 H 0.8985 0.2497 0.5669
C6_2 C 0.8722(3) 0.2145(12) 0.7245(7)
C7_2 C 0.8637(3) 0.3918(15) 0.7019(7)
H9_2 H 0.8758 0.4499 0.6581
C8_2 C 0.8365(3) 0.4854(14) 0.7456(7)
H10_2 H 0.8309 0.6069 0.7312
C9_2 C 0.8180(3) 0.4011(13) 0.8089(6)
C10_2 C 0.8265(3) 0.2183(14) 0.8300(7)
H11_2 H 0.8142 0.1584 0.8727
C11_2 C 0.8533(3) 0.1280(14) 0.7871(7)
H12_2 H 0.8588 0.0061 0.8006
H20_2 H 0.8322 0.0527 0.3244
C26_2 C 0.7907(2) 0.5070(12) 0.8563(6)
O31_2 O 0.99255(16) 0.1234(8) 0.2756(4)
C38_2 C 0.9544(2) 0.0673(12) 0.2187(5)
C39_2 C 0.9251(2) 0.2012(11) 0.1922(6)
H33_2 H 0.9314 0.3206 0.2106
C40_2 C 0.8856(2) 0.1538(11) 0.1371(6)
H34_2 H 0.8653 0.2427 0.1189
O8_2 O 0.89275(18) 0.9811(8) 0.4577(4)
C3_2 C 0.9256(2) 0.9139(11) 0.5339(5)
H3_2 H 0.9448 0.8428 0.5079
H4_2 H 0.9143 0.8371 0.5760
C5_2 C 0.9800(2) 0.9882(11) 0.6753(6)
H7_2 H 0.9656 0.9324 0.7190
H8_2 H 0.9958 0.8952 0.6523
C19_2 C 0.8710(3) 0.8577(16) 0.3949(7)
C20_2 C 0.8792(4) 0.6752(17) 0.3963(9)
H17_2 H 0.9008 0.6267 0.4440
C21_2 C 0.8555(3) 0.5657(16) 0.3277(8)
H18_2 H 0.8620 0.4434 0.3278
C22_2 C 0.8215(3) 0.6317(12) 0.2572(7)
C23_2 C 0.8133(3) 0.8146(11) 0.2564(7)
H19_2 H 0.7912 0.8622 0.2096
C24_2 C 0.8379(3) 0.9295(12) 0.3252(7)
C25_2 C 0.7969(2) 0.5093(11) 0.1825(5)
O14_2 O 0.82897(14) 0.7643(15) 0.0222(4)
C41_2 C 0.8762(2) 0.9761(10) 0.1089(5)
C42_2 C 0.9071(2) 0.8479(12) 0.1366(6)
H35_2 H 0.9012 0.7279 0.1188
C43_2 C 0.9465(2) 0.8928(12) 0.1902(6)
H36_2 H 0.9673 0.8053 0.2064
C44_2 C 0.8344(2) 0.9202(11) 0.0538(5)
loop_
_geom_bond_atom_site_label_1
_geom_bond_atom_site_label_2
_geom_bond_site_symmetry_1
_geom_bond_site_symmetry_2
O3 C26 1_555 1_555
La4 O3 1_555 1_555
La8 O15 1_555 1_555
O15 C52 1_555 1_555
O12 La8 1_555 1_555
O24 La8 1_555 1_555
O27 La8 1_555 1_555
O1 C18 1_555 1_555
O5 C25 1_555 1_555
O7 C4 1_555 1_555
O8 C3 1_555 1_555
O9 C5 1_555 1_555
O10 C2 1_555 1_555
C1 C2 1_555 1_555
C2 H1 1_555 1_555
H2 C2 1_555 1_555
C3 C1 1_555 1_555
H3 C3 1_555 1_555
H4 C3 1_555 1_555
C4 C1 1_555 1_555
H5 C4 1_555 1_555
H6 C4 1_555 1_555
C5 C1 1_555 1_555
H7 C5 1_555 1_555
H8 C5 1_555 1_555
C6 O7 1_555 1_555
C7 C6 1_555 1_555
H9 C7 1_555 1_555
C8 C7 1_555 1_555
C9 C8 1_555 1_555
C10 C9 1_555 1_555
H11 C10 1_555 1_555
C11 C6 1_555 1_555
H12 C11 1_555 1_555
C12 O9 1_555 1_555
C13 C12 1_555 1_555
H13 C13 1_555 1_555
C14 C13 1_555 1_555
H14 C14 1_555 1_555
C15 C14 1_555 1_555
C16 C15 1_555 1_555
H15 C16 1_555 1_555
C17 C12 1_555 1_555
H16 C17 1_555 1_555
C18 O2 1_555 1_555
C19 O8 1_555 1_555
C20 C19 1_555 1_555
H17 C20 1_555 1_555
C21 C20 1_555 1_555
C22 C21 1_555 1_555
C23 C22 1_555 1_555
H19 C23 1_555 1_555
C24 C19 1_555 1_555
H20 C24 1_555 1_555
C25 C22 1_555 1_555
La3 O1 1_555 1_555
La5 O11 1_555 1_555
O29 C30 1_555 1_555
O30 C29 1_555 1_555
O31 C31 1_555 1_555
C27 C28 1_555 1_555
C28 O10 1_555 1_555
H21 C28 1_555 1_555
H22 C28 1_555 1_555
C29 C27 1_555 1_555
H23 C29 1_555 1_555
H24 C29 1_555 1_555
C30 C27 1_555 1_555
H25 C30 1_555 1_555
H26 C30 1_555 1_555
C31 C27 1_555 1_555
H27 C31 1_555 1_555
H28 C31 1_555 1_555
C32 O29 1_555 1_555
C33 C32 1_555 1_555
H29 C33 1_555 1_555
C34 C33 1_555 1_555
C35 C34 1_555 1_555
C36 C35 1_555 1_555
H31 C36 1_555 1_555
C37 C32 1_555 1_555
H32 C37 1_555 1_555
C38 O31 1_555 1_555
C39 C38 1_555 1_555
H33 C39 1_555 1_555
C40 C39 1_555 1_555
H34 C40 1_555 1_555
C41 C40 1_555 1_555
C42 C41 1_555 1_555
H35 C42 1_555 1_555
C43 C38 1_555 1_555
H36 C43 1_555 1_555
C44 O11 1_555 1_555
C45 O30 1_555 1_555
C46 C45 1_555 1_555
H37 C46 1_555 1_555
C47 C46 1_555 1_555
C48 C47 1_555 1_555
C49 C48 1_555 1_555
H39 C49 1_555 1_555
C50 C45 1_555 1_555
H40 C50 1_555 1_555
C51 O23 1_555 1_555
C10 C11 1_555 1_555
C15 C18 1_555 1_555
C16 C17 1_555 1_555
C23 C24 1_555 1_555
La3 O20 1_555 1_555
La5 O22 1_555 1_555
O14 C44 1_555 1_555
C36 C37 1_555 1_555
C41 C44 1_555 1_555
C42 C43 1_555 1_555
C48 C51 1_555 1_555
C49 C50 1_555 1_555
O13 La4 1_555 1_555
O25 La4 1_555 1_555
O28 La4 1_555 1_555
O26 La3 1_555 1_555
O6 La5 1_555 1_555
C12_2 O9_2 1_555 1_555
C13_2 C12_2 1_555 1_555
H13_2 C13_2 1_555 1_555
C14_2 C13_2 1_555 1_555
H14_2 C14_2 1_555 1_555
La5 O15_2 1_555 1_555
O15_2 C52_2 1_555 1_555
O29_2 C30_2 1_555 1_555
C27_2 C28_2 1_555 1_555
C28_2 O10_2 1_555 1_555
H21_2 C28_2 1_555 1_555
H22_2 C28_2 1_555 1_555
C30_2 C27_2 1_555 1_555
H25_2 C30_2 1_555 1_555
H26_2 C30_2 1_555 1_555
C32_2 O29_2 1_555 1_555
C33_2 C32_2 1_555 1_555
H29_2 C33_2 1_555 1_555
C34_2 C33_2 1_555 1_555
H30_2 C34_2 1_555 1_555
C35_2 C34_2 1_555 1_555
C36_2 C35_2 1_555 1_555
H31_2 C36_2 1_555 1_555
C37_2 C32_2 1_555 1_555
H32_2 C37_2 1_555 1_555
C52_2 O22 1_555 1_555
C35_2 C52_2 1_555 1_555
C36_2 C37_2 1_555 1_555
C16_2 C15_2 1_555 1_555
H15_2 C16_2 1_555 1_555
H16_2 C17_2 1_555 1_555
C18_2 O2_2 1_555 1_555
O30_2 C29_2 1_555 1_555
H23_2 C29_2 1_555 1_555
H24_2 C29_2 1_555 1_555
H27_2 C31_2 1_555 1_555
H28_2 C31_2 1_555 1_555
C45_2 O30_2 1_555 1_555
C46_2 C45_2 1_555 1_555
H37_2 C46_2 1_555 1_555
C47_2 C46_2 1_555 1_555
H38_2 C47_2 1_555 1_555
C48_2 C47_2 1_555 1_555
C49_2 C48_2 1_555 1_555
H39_2 C49_2 1_555 1_555
C50_2 C45_2 1_555 1_555
C51_2 O25 1_555 1_555
C15_2 C18_2 1_555 1_555
C16_2 C17_2 1_555 1_555
O28 C51_2 1_555 1_555
C48_2 C51_2 1_555 1_555
C49_2 C50_2 1_555 1_555
O3_2 C26_2 1_555 1_555
O20 C26_2 1_555 1_555
O7_2 C4_2 1_555 1_555
O10_3 C2_2 1_555 1_555
C1_2 C2_2 1_555 1_555
C2_2 H1_2 1_555 1_555
H2_2 C2_2 1_555 1_555
C4_2 C1_2 1_555 1_555
H5_2 C4_2 1_555 1_555
H6_2 C4_2 1_555 1_555
C6_2 O7_2 1_555 1_555
C7_2 C6_2 1_555 1_555
H9_2 C7_2 1_555 1_555
C8_2 C7_2 1_555 1_555
H10_2 C8_2 1_555 1_555
C9_2 C8_2 1_555 1_555
C10_2 C9_2 1_555 1_555
H11_2 C10_2 1_555 1_555
C11_2 C6_2 1_555 1_555
H12_2 C11_2 1_555 1_555
C26_2 C9_2 1_555 1_555
La3 O3_2 1_555 1_555
C38_2 O31_2 1_555 1_555
C39_2 C38_2 1_555 1_555
H33_2 C39_2 1_555 1_555
C40_2 C39_2 1_555 1_555
H34_2 C40_2 1_555 1_555
C10_2 C11_2 1_555 1_555
O24 C25_2 1_555 1_555
O27 C25_2 1_555 1_555
O8_2 C3_2 1_555 1_555
H3_2 C3_2 1_555 1_555
H4_2 C3_2 1_555 1_555
H7_2 C5_2 1_555 1_555
H8_2 C5_2 1_555 1_555
C19_2 O8_2 1_555 1_555
C20_2 C19_2 1_555 1_555
H17_2 C20_2 1_555 1_555
C21_2 C20_2 1_555 1_555
H18_2 C21_2 1_555 1_555
C22_2 C21_2 1_555 1_555
C23_2 C22_2 1_555 1_555
H19_2 C23_2 1_555 1_555
C24_2 C19_2 1_555 1_555
C25_2 C22_2 1_555 1_555
C42_2 C41_2 1_555 1_555
H35_2 C42_2 1_555 1_555
H36_2 C43_2 1_555 1_555
C23_2 C24_2 1_555 1_555
O14_2 C44_2 1_555 1_555
C41_2 C44_2 1_555 1_555
C42_2 C43_2 1_555 1_555

#END
