
###############################################################################
#
# This file contains modified crystal structure data generated from the
# MOF subset of the Cambridge Structural Database (CSD) v543 
# hosted by the Cambridge Crystallographic Data Centre (CCDC).
#
# This work is licensed under the Creative Commons
# Attribution-NonCommercial-ShareAlike 4.0 International License.
# To view a copy of this license, visit
# http://creativecommons.org/licenses/by-nc-sa/4.0/
# or send a letter to
# Creative Commons, PO Box 1866, Mountain View, CA 94042, USA.
#
# CIF created using the CSD Python API on 29 September 2022
# The structure has been converted into the P1 space group
# The structure has a 3D framework
# The original CSD entry ADODOO is in the monoclinic crystal system
# The original CSD entry ADODOO is in a Sohncke space group
# The framework has been calculated to contain at least 10.0% void space
# The void calculation uses a probe of radius 1.32A, grid spacing 0.4
#
###############################################################################

data_ADODOO
_chemical_formula_moiety         '(C104 H80 O37)n'
_symmetry_cell_setting           triclinic
_symmetry_space_group_name_H-M   'P 1'
_symmetry_Int_Tables_number      1
_space_group_name_Hall           'P 1'
loop_
_symmetry_equiv_pos_site_id
_symmetry_equiv_pos_as_xyz
1 x,y,z
_cell_length_a                   32.789(3)
_cell_length_b                   7.1091(7)
_cell_length_c                   14.5399(15)
_cell_angle_alpha                90
_cell_angle_beta                 104.454(2)
_cell_angle_gamma                90
_cell_volume                     3281.98
loop_
_atom_site_label
_atom_site_type_symbol
_atom_site_fract_x
_atom_site_fract_y
_atom_site_fract_z
O3 O 0.2824(3) 0.1829(12) 0.8407(6)
H10 H 0.3310 0.1200 0.7377
C26 C 0.2920(3) 0.0139(17) 0.8648(8)
Eu4 Eu 0.251281(11) 0.25779(13) 0.96882(2)
Eu8 Eu 0.748719(11) 0.25779(13) 0.03118(2)
O15 O 0.7176(3) 0.1829(12) 0.1593(6)
H30 H 0.6690 0.1200 0.2623
C52 C 0.7080(3) 0.0139(17) 0.1352(8)
Eu5 Eu 0.248719(11) 0.75779(13) 0.03118(2)
O12 O 0.8024(2) 0.0287(12) 0.0405(5)
O24 O 0.7644(2) 0.5665(11) 0.1111(4)
O27 O 0.8019(3) 0.3258(11) 0.1766(5)
O1 O 0.6976(2) 0.5287(12) 0.9595(5)
O2 O 0.67258(18) 0.253(2) 0.9667(5)
O4 O 0.2798(2) 0.9392(11) 0.9336(5)
O5 O 0.2644(2) 0.0665(11) 0.1111(4)
O7 O 0.3963(3) 0.6076(13) 0.6820(6)
O8 O 0.3908(2) 0.4796(12) 0.4555(5)
O9 O 0.5064(2) 0.6210(12) 0.7207(6)
O10 O 0.5000 0.5774(17) 0.5000
C1 C 0.4468(3) 0.5688(16) 0.5869(7)
C2 C 0.4698(3) 0.6878(16) 0.5285(8)
H1 H 0.4498 0.7372 0.4730
H2 H 0.4835 0.7932 0.5662
C3 C 0.4238(3) 0.4072(16) 0.5309(7)
H3 H 0.4431 0.3329 0.5050
H4 H 0.4121 0.3270 0.5718
C4 C 0.4176(3) 0.7063(16) 0.6203(7)
H5 H 0.4339 0.8099 0.6544
H6 H 0.3971 0.7571 0.5660
C5 C 0.4791(3) 0.4793(17) 0.6701(7)
H7 H 0.4647 0.4172 0.7124
H8 H 0.4954 0.3857 0.6464
C6 C 0.3709(4) 0.7123(16) 0.7223(9)
C7 C 0.3627(5) 0.899(2) 0.7034(10)
H9 H 0.3743 0.9615 0.6598
C8 C 0.3366(4) 0.993(2) 0.7507(10)
C9 C 0.3189(4) 0.907(2) 0.8154(9)
C10 C 0.3262(5) 0.715(3) 0.8316(10)
H11 H 0.3136 0.6510 0.8728
C11 C 0.3528(4) 0.621(2) 0.7850(10)
H12 H 0.3583 0.4937 0.7970
C12 C 0.5442(3) 0.5662(18) 0.7772(8)
C13 C 0.5739(3) 0.7035(16) 0.8068(8)
H13 H 0.5672 0.8282 0.7902
C14 C 0.6138(3) 0.6586(17) 0.8614(8)
H14 H 0.6340 0.7523 0.8805
C15 C 0.6235(3) 0.4727(17) 0.8871(7)
C16 C 0.5939(3) 0.3370(18) 0.8571(8)
H15 H 0.6006 0.2120 0.8727
C17 C 0.5534(3) 0.3831(19) 0.8029(9)
H16 H 0.5330 0.2901 0.7846
C18 C 0.6666(3) 0.4143(16) 0.9412(7)
C19 C 0.3692(5) 0.349(3) 0.3916(12)
C20 C 0.3770(6) 0.160(3) 0.3909(12)
H17 H 0.3984 0.1069 0.4379
C21 C 0.3528(4) 0.048(2) 0.3200(9)
C22 C 0.3188(4) 0.1217(18) 0.2546(9)
C23 C 0.3102(4) 0.3097(17) 0.2558(9)
H19 H 0.2880 0.3612 0.2100
C24 C 0.3348(4) 0.4237(18) 0.3257(9)
H20 H 0.3283 0.5505 0.3283
Eu3 Eu 0.751281(11) 0.75779(13) 0.96882(2)
O11 O 0.3024(2) 0.5287(12) 0.0405(5)
O14 O 0.32742(18) 0.253(2) 0.0333(5)
O18 O 0.7202(2) 0.9392(11) 0.0664(5)
O20 O 0.7798(2) 0.4392(11) 0.9336(5)
O22 O 0.2202(2) 0.4392(11) 0.0664(5)
O23 O 0.7356(2) 0.0665(11) 0.8889(4)
O29 O 0.6037(3) 0.6076(13) 0.3180(6)
O30 O 0.6092(2) 0.4796(12) 0.5445(5)
O31 O 0.4936(2) 0.6210(12) 0.2793(6)
C27 C 0.5532(3) 0.5688(16) 0.4131(7)
C28 C 0.5302(3) 0.6878(16) 0.4715(8)
H21 H 0.5502 0.7372 0.5270
H22 H 0.5165 0.7932 0.4338
C29 C 0.5762(3) 0.4072(16) 0.4691(7)
H23 H 0.5569 0.3329 0.4950
H24 H 0.5879 0.3270 0.4282
C30 C 0.5824(3) 0.7063(16) 0.3797(7)
H25 H 0.5661 0.8099 0.3456
H26 H 0.6029 0.7571 0.4340
C31 C 0.5209(3) 0.4793(17) 0.3299(7)
H27 H 0.5353 0.4172 0.2876
H28 H 0.5046 0.3857 0.3536
C32 C 0.6291(4) 0.7123(16) 0.2777(9)
C33 C 0.6373(5) 0.899(2) 0.2966(10)
H29 H 0.6257 0.9615 0.3402
C34 C 0.6634(4) 0.993(2) 0.2493(10)
C35 C 0.6811(4) 0.907(2) 0.1846(9)
C36 C 0.6738(5) 0.715(3) 0.1684(10)
H31 H 0.6864 0.6510 0.1272
C37 C 0.6472(4) 0.621(2) 0.2150(10)
H32 H 0.6417 0.4937 0.2030
C38 C 0.4558(3) 0.5662(18) 0.2228(8)
C39 C 0.4261(3) 0.7035(16) 0.1932(8)
H33 H 0.4328 0.8282 0.2098
C40 C 0.3862(3) 0.6586(17) 0.1386(8)
H34 H 0.3660 0.7523 0.1195
C41 C 0.3765(3) 0.4727(17) 0.1129(7)
C42 C 0.4061(3) 0.3370(18) 0.1429(8)
H35 H 0.3994 0.2120 0.1273
C43 C 0.4466(3) 0.3831(19) 0.1971(9)
H36 H 0.4670 0.2901 0.2154
C44 C 0.3334(3) 0.4143(16) 0.0588(7)
C45 C 0.6308(5) 0.349(3) 0.6084(12)
C46 C 0.6230(6) 0.160(3) 0.6091(12)
H37 H 0.6016 0.1069 0.5621
C47 C 0.6472(4) 0.048(2) 0.6800(9)
C48 C 0.6812(4) 0.1217(18) 0.7454(9)
C49 C 0.6898(4) 0.3097(17) 0.7442(9)
H39 H 0.7120 0.3612 0.7900
C50 C 0.6652(4) 0.4237(18) 0.6743(9)
H40 H 0.6717 0.5505 0.6717
O13 O 0.1976(2) 0.0287(12) 0.9595(5)
O25 O 0.2356(2) 0.5665(11) 0.8889(4)
O28 O 0.1981(3) 0.3258(11) 0.8234(5)
O6 O 0.3019(3) 0.8258(11) 0.1766(5)
H18 H 0.3597 0.9216 0.3165
C25 C 0.2940(3) 0.9960(15) 0.1771(7)
O26 O 0.6981(3) 0.8258(11) 0.8234(5)
H38 H 0.6403 0.9216 0.6835
C51 C 0.7060(3) 0.9960(15) 0.8229(7)
O9_2 O 0.0064(2) 0.1210(12) 0.7207(6)
O10_2 O -0.0000 0.0774(17) 0.5000
C12_2 C 0.0442(3) 0.0662(18) 0.7772(8)
C13_2 C 0.0739(3) 0.2035(16) 0.8068(8)
H13_2 H 0.0672 0.3282 0.7902
C14_2 C 0.1138(3) 0.1586(17) 0.8614(8)
H14_2 H 0.1340 0.2523 0.8805
O15_2 O 0.2176(3) 0.6829(12) 0.1593(6)
O29_2 O 0.1037(3) 0.1076(13) 0.3180(6)
C27_2 C 0.0532(3) 0.0688(16) 0.4131(7)
C28_2 C 0.0302(3) 0.1878(16) 0.4715(8)
H21_2 H 0.0502 0.2372 0.5270
H22_2 H 0.0165 0.2932 0.4338
C30_2 C 0.0824(3) 0.2063(16) 0.3797(7)
H25_2 H 0.0661 0.3099 0.3456
H26_2 H 0.1029 0.2571 0.4340
C32_2 C 0.1291(4) 0.2123(16) 0.2777(9)
C33_2 C 0.1373(5) 0.399(2) 0.2966(10)
H29_2 H 0.1257 0.4615 0.3402
C34_2 C 0.1634(4) 0.493(2) 0.2493(10)
H30_2 H 0.1690 0.6200 0.2623
C35_2 C 0.1811(4) 0.407(2) 0.1846(9)
C36_2 C 0.1738(5) 0.215(3) 0.1684(10)
H31_2 H 0.1864 0.1510 0.1272
C37_2 C 0.1472(4) 0.121(2) 0.2150(10)
H40_2 H 0.1717 0.0505 0.6717
C52_2 C 0.2080(3) 0.5139(17) 0.1352(8)
O2_2 O 0.17258(18) 0.753(2) 0.9667(5)
C15_2 C 0.1235(3) 0.9727(17) 0.8871(7)
C16_2 C 0.0939(3) 0.8370(18) 0.8571(8)
H15_2 H 0.1006 0.7120 0.8727
C17_2 C 0.0534(3) 0.8831(19) 0.8029(9)
H16_2 H 0.0330 0.7901 0.7846
C18_2 C 0.1666(3) 0.9143(16) 0.9412(7)
O30_2 O 0.1092(2) 0.9796(12) 0.5445(5)
C29_2 C 0.0762(3) 0.9072(16) 0.4691(7)
H23_2 H 0.0569 0.8329 0.4950
H24_2 H 0.0879 0.8270 0.4282
C31_2 C 0.0209(3) 0.9793(17) 0.3299(7)
H27_2 H 0.0353 0.9172 0.2876
H28_2 H 0.0046 0.8857 0.3536
H32_2 H 0.1417 0.9937 0.2030
C45_2 C 0.1308(5) 0.849(3) 0.6084(12)
C46_2 C 0.1230(6) 0.660(3) 0.6091(12)
H37_2 H 0.1016 0.6069 0.5621
C47_2 C 0.1472(4) 0.548(2) 0.6800(9)
H38_2 H 0.1403 0.4216 0.6835
C48_2 C 0.1812(4) 0.6217(18) 0.7454(9)
C49_2 C 0.1898(4) 0.8097(17) 0.7442(9)
H39_2 H 0.2120 0.8612 0.7900
C50_2 C 0.1652(4) 0.9237(18) 0.6743(9)
C51_2 C 0.2060(3) 0.4960(15) 0.8229(7)
O3_2 O 0.7824(3) 0.6829(12) 0.8407(6)
O7_2 O 0.8963(3) 0.1076(13) 0.6820(6)
O10_3 O 1.0000 0.0774(17) 0.5000
C1_2 C 0.9468(3) 0.0688(16) 0.5869(7)
C2_2 C 0.9698(3) 0.1878(16) 0.5285(8)
H1_2 H 0.9498 0.2372 0.4730
H2_2 H 0.9835 0.2932 0.5662
C4_2 C 0.9176(3) 0.2063(16) 0.6203(7)
H5_2 H 0.9339 0.3099 0.6544
H6_2 H 0.8971 0.2571 0.5660
C6_2 C 0.8709(4) 0.2123(16) 0.7223(9)
C7_2 C 0.8627(5) 0.399(2) 0.7034(10)
H9_2 H 0.8743 0.4615 0.6598
C8_2 C 0.8366(4) 0.493(2) 0.7507(10)
H10_2 H 0.8310 0.6200 0.7377
C9_2 C 0.8189(4) 0.407(2) 0.8154(9)
C10_2 C 0.8262(5) 0.215(3) 0.8316(10)
H11_2 H 0.8136 0.1510 0.8728
C11_2 C 0.8528(4) 0.121(2) 0.7850(10)
H20_2 H 0.8283 0.0505 0.3283
C26_2 C 0.7920(3) 0.5139(17) 0.8648(8)
O31_2 O 0.9936(2) 0.1210(12) 0.2793(6)
C38_2 C 0.9558(3) 0.0662(18) 0.2228(8)
C39_2 C 0.9261(3) 0.2035(16) 0.1932(8)
H33_2 H 0.9328 0.3282 0.2098
C40_2 C 0.8862(3) 0.1586(17) 0.1386(8)
H34_2 H 0.8660 0.2523 0.1195
O8_2 O 0.8908(2) 0.9796(12) 0.4555(5)
C3_2 C 0.9238(3) 0.9072(16) 0.5309(7)
H3_2 H 0.9431 0.8329 0.5050
H4_2 H 0.9121 0.8270 0.5718
C5_2 C 0.9791(3) 0.9793(17) 0.6701(7)
H7_2 H 0.9647 0.9172 0.7124
H8_2 H 0.9954 0.8857 0.6464
H12_2 H 0.8583 0.9937 0.7970
C19_2 C 0.8692(5) 0.849(3) 0.3916(12)
C20_2 C 0.8770(6) 0.660(3) 0.3909(12)
H17_2 H 0.8984 0.6069 0.4379
C21_2 C 0.8528(4) 0.548(2) 0.3200(9)
H18_2 H 0.8597 0.4216 0.3165
C22_2 C 0.8188(4) 0.6217(18) 0.2546(9)
C23_2 C 0.8102(4) 0.8097(17) 0.2558(9)
H19_2 H 0.7880 0.8612 0.2100
C24_2 C 0.8348(4) 0.9237(18) 0.3257(9)
C25_2 C 0.7940(3) 0.4960(15) 0.1771(7)
O14_2 O 0.82742(18) 0.753(2) 0.0333(5)
C41_2 C 0.8765(3) 0.9727(17) 0.1129(7)
C42_2 C 0.9061(3) 0.8370(18) 0.1429(8)
H35_2 H 0.8994 0.7120 0.1273
C43_2 C 0.9466(3) 0.8831(19) 0.1971(9)
H36_2 H 0.9670 0.7901 0.2154
C44_2 C 0.8334(3) 0.9143(16) 0.0588(7)
loop_
_geom_bond_atom_site_label_1
_geom_bond_atom_site_label_2
_geom_bond_site_symmetry_1
_geom_bond_site_symmetry_2
O3 C26 1_555 1_555
Eu4 O3 1_555 1_555
Eu8 O15 1_555 1_555
O15 C52 1_555 1_555
O12 Eu8 1_555 1_555
O24 Eu8 1_555 1_555
O27 Eu8 1_555 1_555
O1 C18 1_555 1_555
O7 C4 1_555 1_555
O8 C3 1_555 1_555
O9 C5 1_555 1_555
O10 C2 1_555 1_555
C1 C2 1_555 1_555
C2 H1 1_555 1_555
H2 C2 1_555 1_555
C3 C1 1_555 1_555
H3 C3 1_555 1_555
H4 C3 1_555 1_555
C4 C1 1_555 1_555
H5 C4 1_555 1_555
H6 C4 1_555 1_555
C5 C1 1_555 1_555
H7 C5 1_555 1_555
H8 C5 1_555 1_555
C6 O7 1_555 1_555
C7 C6 1_555 1_555
H9 C7 1_555 1_555
C8 C7 1_555 1_555
C9 C8 1_555 1_555
C10 C9 1_555 1_555
H11 C10 1_555 1_555
C11 C6 1_555 1_555
H12 C11 1_555 1_555
C12 O9 1_555 1_555
C13 C12 1_555 1_555
H13 C13 1_555 1_555
C14 C13 1_555 1_555
H14 C14 1_555 1_555
C15 C14 1_555 1_555
C16 C15 1_555 1_555
H15 C16 1_555 1_555
C17 C12 1_555 1_555
H16 C17 1_555 1_555
C18 O2 1_555 1_555
C19 O8 1_555 1_555
C20 C19 1_555 1_555
H17 C20 1_555 1_555
C21 C20 1_555 1_555
C22 C21 1_555 1_555
C23 C22 1_555 1_555
H19 C23 1_555 1_555
C24 C19 1_555 1_555
H20 C24 1_555 1_555
Eu3 O1 1_555 1_555
Eu5 O11 1_555 1_555
O29 C30 1_555 1_555
O30 C29 1_555 1_555
O31 C31 1_555 1_555
C27 C28 1_555 1_555
C28 O10 1_555 1_555
H21 C28 1_555 1_555
H22 C28 1_555 1_555
C29 C27 1_555 1_555
H23 C29 1_555 1_555
H24 C29 1_555 1_555
C30 C27 1_555 1_555
H25 C30 1_555 1_555
H26 C30 1_555 1_555
C31 C27 1_555 1_555
H27 C31 1_555 1_555
H28 C31 1_555 1_555
C32 O29 1_555 1_555
C33 C32 1_555 1_555
H29 C33 1_555 1_555
C34 C33 1_555 1_555
C35 C34 1_555 1_555
C36 C35 1_555 1_555
H31 C36 1_555 1_555
C37 C32 1_555 1_555
H32 C37 1_555 1_555
C38 O31 1_555 1_555
C39 C38 1_555 1_555
H33 C39 1_555 1_555
C40 C39 1_555 1_555
H34 C40 1_555 1_555
C41 C40 1_555 1_555
C42 C41 1_555 1_555
H35 C42 1_555 1_555
C43 C38 1_555 1_555
H36 C43 1_555 1_555
C44 O11 1_555 1_555
C45 O30 1_555 1_555
C46 C45 1_555 1_555
H37 C46 1_555 1_555
C47 C46 1_555 1_555
C48 C47 1_555 1_555
C49 C48 1_555 1_555
H39 C49 1_555 1_555
C50 C45 1_555 1_555
H40 C50 1_555 1_555
C10 C11 1_555 1_555
C15 C18 1_555 1_555
C16 C17 1_555 1_555
C23 C24 1_555 1_555
Eu3 O20 1_555 1_555
Eu5 O22 1_555 1_555
O14 C44 1_555 1_555
C36 C37 1_555 1_555
C41 C44 1_555 1_555
C42 C43 1_555 1_555
C49 C50 1_555 1_555
O13 Eu4 1_555 1_555
O25 Eu4 1_555 1_555
O28 Eu4 1_555 1_555
O6 C25 1_555 1_555
O26 Eu3 1_555 1_555
O6 Eu5 1_555 1_555
O26 C51 1_555 1_555
C12_2 O9_2 1_555 1_555
C13_2 C12_2 1_555 1_555
H13_2 C13_2 1_555 1_555
C14_2 C13_2 1_555 1_555
H14_2 C14_2 1_555 1_555
Eu5 O15_2 1_555 1_555
O15_2 C52_2 1_555 1_555
O29_2 C30_2 1_555 1_555
C27_2 C28_2 1_555 1_555
C28_2 O10_2 1_555 1_555
H21_2 C28_2 1_555 1_555
H22_2 C28_2 1_555 1_555
C30_2 C27_2 1_555 1_555
H25_2 C30_2 1_555 1_555
H26_2 C30_2 1_555 1_555
C32_2 O29_2 1_555 1_555
C33_2 C32_2 1_555 1_555
H29_2 C33_2 1_555 1_555
C34_2 C33_2 1_555 1_555
H30_2 C34_2 1_555 1_555
C35_2 C34_2 1_555 1_555
C36_2 C35_2 1_555 1_555
H31_2 C36_2 1_555 1_555
C37_2 C32_2 1_555 1_555
C52_2 O22 1_555 1_555
C35_2 C52_2 1_555 1_555
C36_2 C37_2 1_555 1_555
C16_2 C15_2 1_555 1_555
H15_2 C16_2 1_555 1_555
H16_2 C17_2 1_555 1_555
C18_2 O2_2 1_555 1_555
O30_2 C29_2 1_555 1_555
H23_2 C29_2 1_555 1_555
H24_2 C29_2 1_555 1_555
H27_2 C31_2 1_555 1_555
H28_2 C31_2 1_555 1_555
C45_2 O30_2 1_555 1_555
C46_2 C45_2 1_555 1_555
H37_2 C46_2 1_555 1_555
C47_2 C46_2 1_555 1_555
H38_2 C47_2 1_555 1_555
C48_2 C47_2 1_555 1_555
C49_2 C48_2 1_555 1_555
H39_2 C49_2 1_555 1_555
C50_2 C45_2 1_555 1_555
C51_2 O25 1_555 1_555
C15_2 C18_2 1_555 1_555
C16_2 C17_2 1_555 1_555
O28 C51_2 1_555 1_555
C48_2 C51_2 1_555 1_555
C49_2 C50_2 1_555 1_555
O3_2 C26_2 1_555 1_555
O20 C26_2 1_555 1_555
O7_2 C4_2 1_555 1_555
O10_3 C2_2 1_555 1_555
C1_2 C2_2 1_555 1_555
C2_2 H1_2 1_555 1_555
H2_2 C2_2 1_555 1_555
C4_2 C1_2 1_555 1_555
H5_2 C4_2 1_555 1_555
H6_2 C4_2 1_555 1_555
C6_2 O7_2 1_555 1_555
C7_2 C6_2 1_555 1_555
H9_2 C7_2 1_555 1_555
C8_2 C7_2 1_555 1_555
H10_2 C8_2 1_555 1_555
C9_2 C8_2 1_555 1_555
C10_2 C9_2 1_555 1_555
H11_2 C10_2 1_555 1_555
C11_2 C6_2 1_555 1_555
C26_2 C9_2 1_555 1_555
Eu3 O3_2 1_555 1_555
C38_2 O31_2 1_555 1_555
C39_2 C38_2 1_555 1_555
H33_2 C39_2 1_555 1_555
C40_2 C39_2 1_555 1_555
H34_2 C40_2 1_555 1_555
C10_2 C11_2 1_555 1_555
O24 C25_2 1_555 1_555
O27 C25_2 1_555 1_555
O8_2 C3_2 1_555 1_555
H3_2 C3_2 1_555 1_555
H4_2 C3_2 1_555 1_555
H7_2 C5_2 1_555 1_555
H8_2 C5_2 1_555 1_555
C19_2 O8_2 1_555 1_555
C20_2 C19_2 1_555 1_555
H17_2 C20_2 1_555 1_555
C21_2 C20_2 1_555 1_555
H18_2 C21_2 1_555 1_555
C22_2 C21_2 1_555 1_555
C23_2 C22_2 1_555 1_555
H19_2 C23_2 1_555 1_555
C24_2 C19_2 1_555 1_555
C25_2 C22_2 1_555 1_555
C42_2 C41_2 1_555 1_555
H35_2 C42_2 1_555 1_555
H36_2 C43_2 1_555 1_555
C23_2 C24_2 1_555 1_555
O14_2 C44_2 1_555 1_555
C41_2 C44_2 1_555 1_555
C42_2 C43_2 1_555 1_555

#END
