
###############################################################################
#
# This file contains modified crystal structure data generated from the
# MOF subset of the Cambridge Structural Database (CSD) v543 
# hosted by the Cambridge Crystallographic Data Centre (CCDC).
#
# This work is licensed under the Creative Commons
# Attribution-NonCommercial-ShareAlike 4.0 International License.
# To view a copy of this license, visit
# http://creativecommons.org/licenses/by-nc-sa/4.0/
# or send a letter to
# Creative Commons, PO Box 1866, Mountain View, CA 94042, USA.
#
# CIF created using the CSD Python API on 29 September 2022
# The structure has been converted into the P1 space group
# The structure has a 3D framework
# The original CSD entry ADOGUZ is in the triclinic crystal system
# The framework has been calculated to contain at least 10.0% void space
# The void calculation uses a probe of radius 1.32A, grid spacing 0.4
# H atom positions have been added when not included in the experimental data
# Generated hydrogen atom positions removed from atoms on special positions
#
###############################################################################

data_ADOGUZ
_chemical_formula_moiety         '(C72 H68 Eu4 O30)n'
_symmetry_cell_setting           triclinic
_symmetry_space_group_name_H-M   'P 1'
_symmetry_Int_Tables_number      1
_space_group_name_Hall           'P 1'
loop_
_symmetry_equiv_pos_site_id
_symmetry_equiv_pos_as_xyz
1 x,y,z
_cell_length_a                   9.6429(19)
_cell_length_b                   13.596(3)
_cell_length_c                   20.270(4)
_cell_angle_alpha                84.83(3)
_cell_angle_beta                 83.61(3)
_cell_angle_gamma                75.82(3)
_cell_volume                     2555.06
loop_
_atom_site_label
_atom_site_type_symbol
_atom_site_fract_x
_atom_site_fract_y
_atom_site_fract_z
_atom_site_U_iso_or_equiv
_atom_site_thermal_displace_type
Eu1 Eu 0.25135(8) 0.01501(6) 0.48438(4) 0.0223 Uani
O2 O 0.0833(14) 0.1737(9) 0.5187(6) 0.0410 Uani
O14 O 0.3527(13) 0.1558(9) 0.4369(7) 0.0405 Uani
O39 O 0.1111(13) 0.0712(9) 0.3939(6) 0.0375 Uani
O41 O 0.3855(12) 0.0417(9) 0.5664(5) 0.0334 Uani
Eu2 Eu 0.24994(8) 0.51169(6) 0.01833(4) 0.0223 Uani
O6 O 0.0617(13) 0.5437(9) 0.1028(6) 0.0360 Uani
O9 O 0.3285(12) 0.6422(9) 0.0716(6) 0.0328 Uani
C4 C 0.3611(14) 0.1839(10) 0.0091(9) 0.0336 Uani
O13 O 0.1905(12) 0.3380(9) 0.0318(7) 0.0372 Uani
C12 C 0.3160(17) 0.2933(11) 0.0037(8) 0.0230 Uani
C31 C 0.2667(17) 0.1222(9) 0.0317(8) 0.0339 Uani
H13 H 0.1728 0.1530 0.0467 0.0410 Uiso
C32 C 0.3071(15) 0.0168(10) 0.0328(9) 0.0392 Uani
H28 H 0.0861 0.1924 0.2951 0.0400 Uiso
O35 O 0.3761(12) 0.4143(9) 0.1087(6) 0.0360 Uani
H42 H 0.00509481 0.692014 0.0120801 . .
O1 O 0.3826(13) 0.8432(8) 0.5230(6) 0.0342 Uani
O3 O 0.1001(13) 0.6813(8) 0.9857(6) 0.0302 Uani
O4 O 0.0904(14) 0.9771(8) 0.5739(6) 0.0346 Uani
C1 C 0.0197(15) 0.9283(11) 0.6131(7) 0.0199 Uani
O5 O 0.4154(13) 0.5613(8) 0.9392(6) 0.0327 Uani
O7 O 0.6239(12) 0.5857(9) 0.8913(6) 0.0360 Uani
O12 O 0.2062(12) 0.8437(8) 0.4630(7) 0.0379 Uani
C5 C 0.3698(15) 0.6834(11) 0.4855(8) 0.0299 Uani
C6 C 0.2743(14) 0.6841(10) 0.8313(7) 0.0271 Uani
H1 H 0.2215 0.6458 0.8593 0.0320 Uiso
C7 C 0.5418(15) 0.5287(9) 0.5152(9) 0.0328 Uani
C8 C 0.0822(13) 0.8690(10) 0.6710(7) 0.0293 Uani
C9 C 0.2098(13) 0.7469(10) 0.7785(6) 0.0288 Uani
C11 C 0.2231(13) 0.8657(11) 0.6835(7) 0.0280 Uani
H3 H 0.2766 0.9038 0.6557 0.0340 Uiso
C14 C 0.4963(17) 0.6349(9) 0.5143(10) 0.0400 Uani
H4 H 0.5494 0.6725 0.5325 0.0490 Uiso
C15 C 0.3201(19) 0.7963(13) 0.4935(9) 0.0337 Uani
C16 C 0.0067(16) 0.8083(11) 0.7131(7) 0.0330 Uani
C20 C 0.4163(13) 0.6787(11) 0.8421(7) 0.0270 Uani
C21 C 0.489(2) 0.6028(13) 0.8937(8) 0.0332 Uani
C25 C 0.2845(13) 0.8051(10) 0.7377(7) 0.0302 Uani
C28 C 0.4915(17) 0.7411(12) 0.8022(8) 0.0404 Uani
H11 H 0.5857 0.7396 0.8093 0.0480 Uiso
C30 C 0.6682(16) 0.4738(13) 0.5413(9) 0.0407 Uani
H12 H 0.7238 0.5093 0.5598 0.0490 Uiso
C33 C 0.286(2) 0.6283(14) 0.4590(10) 0.0508 Uani
H15 H 0.2006 0.6617 0.4418 0.0610 Uiso
C34 C 0.4243(14) 0.8058(12) 0.7516(8) 0.0354 Uani
H16 H 0.4726 0.8501 0.7267 0.0420 Uiso
C35 C 0.0678(14) 0.7489(12) 0.7670(8) 0.0337 Uani
H17 H 0.0151 0.7107 0.7952 0.0410 Uiso
O15 O 0.3953(12) 0.3482(8) 0.9777(6) 0.0307 Uani
C36 C 0.5029(15) 0.1337(13) 0.9893(8) 0.0356 Uani
H18 H 0.5691 0.1729 0.9759 0.0420 Uiso
O17 O 0.6174(13) 0.1568(8) 0.4770(6) 0.0342 Uani
O18 O 0.7938(12) 0.1563(8) 0.5370(7) 0.0379 Uani
C37 C 0.6302(15) 0.3166(11) 0.5145(8) 0.0299 Uani
C38 C 0.4582(15) 0.4713(9) 0.4848(9) 0.0328 Uani
C39 C 0.5037(17) 0.3651(9) 0.4857(10) 0.0400 Uani
H19 H 0.4506 0.3275 0.4675 0.0490 Uiso
C40 C 0.6799(19) 0.2037(13) 0.5065(9) 0.0337 Uani
C41 C 0.3318(16) 0.5262(13) 0.4587(9) 0.0407 Uani
H20 H 0.2762 0.4907 0.4402 0.0490 Uiso
C42 C 0.714(2) 0.3717(14) 0.5410(10) 0.0508 Uani
H21 H 0.7994 0.3383 0.5582 0.0610 Uiso
C45 C 0.5506(15) 0.0270(12) 0.9886(10) 0.0385 Uani
H23 H 0.7580 0.0228 0.9529 0.0470 Uiso
O27 O 0.5806(12) 0.0576(9) 0.6077(6) 0.0365 Uani
C50 C 0.0658(16) 0.4564(12) 0.8898(8) 0.0281 Uani
C51 C 0.4461(16) 0.0788(12) 0.6061(8) 0.0261 Uani
C55 C 0.1004(16) 0.3333(12) 0.8026(8) 0.0353 Uani
H26 H 0.0029 0.3359 0.8110 0.0420 Uiso
C57 C 0.1615(15) 0.3927(11) 0.8375(8) 0.0313 Uani
C59 C 0.3068(14) 0.3910(12) 0.8246(7) 0.0343 Uani
H29 H 0.3490 0.4282 0.8493 0.0410 Uiso
C60 C 0.1223(17) 0.2118(13) 0.7172(8) 0.0372 Uani
H30 H 0.0239 0.2166 0.7233 0.0440 Uiso
C61 C 0.3340(16) 0.2689(12) 0.7406(7) 0.0289 Uani
C64 C 0.4172(15) 0.2057(11) 0.6923(7) 0.0266 Uani
H31 H 0.5147 0.2032 0.6833 0.0320 Uiso
C65 C 0.3530(13) 0.1467(12) 0.6580(7) 0.0264 Uani
C67 C 0.3880(18) 0.3330(13) 0.7746(8) 0.0387 Uani
H32 H 0.4826 0.3374 0.7635 0.0460 Uiso
C68 C 0.2063(13) 0.1477(12) 0.6709(8) 0.0322 Uani
H33 H 0.1661 0.1060 0.6487 0.0380 Uiso
C70 C 0.1825(17) 0.2699(12) 0.7551(8) 0.0351 Uani
O32 O 0.1290(14) 0.4989(9) 0.9270(6) 0.0358 Uani
Eu13 Eu 0.75006(8) 0.48831(6) 0.98167(4) 0.0223 Uani
O36 O 0.4194(12) 0.9424(9) 0.3923(6) 0.0365 Uani
H41 H 0.0865183 0.685068 0.937612 . .
C22 C 0.4494(15) 0.9730(12) 0.0114(10) 0.0385 Uani
H14 H 0.2420 0.9772 0.0471 0.0470 Uiso
O20 O 0.6047(12) 0.6518(8) 0.0223(6) 0.0307 Uani
C48 C 0.4971(15) 0.8663(13) 0.0107(8) 0.0356 Uani
H24 H 0.4309 0.8271 0.0241 0.0420 Uiso
H45 H 0.0165943 0.829978 0.4862 . .
C43 C 0.6389(14) 0.8161(10) 0.9909(9) 0.0336 Uani
O19 O 0.8095(12) 0.6620(9) 0.9682(7) 0.0372 Uani
C44 C 0.6840(17) 0.7067(11) 0.9963(8) 0.0230 Uani
C46 C 0.7333(17) 0.8778(9) 0.9683(8) 0.0339 Uani
H22 H 0.8272 0.8470 0.9533 0.0410 Uiso
C47 C 0.6929(15) 0.9832(10) 0.9672(9) 0.0392 Uani
Eu10 Eu 0.74865(8) 0.98499(6) 0.51562(4) 0.0223 Uani
C2 C 0.9342(16) 0.5436(12) 0.1102(8) 0.0281 Uani
O11 O 0.6145(12) 0.9583(9) 0.4336(5) 0.0334 Uani
C3 C 0.5539(16) 0.9212(12) 0.3939(8) 0.0261 Uani
C10 C 0.8996(16) 0.6667(12) 0.1974(8) 0.0353 Uani
H2 H 0.9971 0.6641 0.1890 0.0420 Uiso
C13 C 0.8385(15) 0.6073(11) 0.1625(8) 0.0313 Uani
C17 C 0.6932(14) 0.6090(12) 0.1754(7) 0.0343 Uani
H6 H 0.6510 0.5718 0.1507 0.0410 Uiso
C18 C 0.8777(17) 0.7882(13) 0.2828(8) 0.0372 Uani
H7 H 0.9761 0.7834 0.2767 0.0440 Uiso
C19 C 0.6660(16) 0.7311(12) 0.2594(7) 0.0289 Uani
C23 C 0.5828(15) 0.7943(11) 0.3077(7) 0.0266 Uani
H8 H 0.4853 0.7968 0.3167 0.0320 Uiso
C24 C 0.6470(13) 0.8533(12) 0.3420(7) 0.0264 Uani
C26 C 0.6120(18) 0.6670(13) 0.2254(8) 0.0387 Uani
H9 H 0.5174 0.6626 0.2365 0.0460 Uiso
C27 C 0.7937(13) 0.8523(12) 0.3291(8) 0.0322 Uani
H10 H 0.8339 0.8940 0.3513 0.0380 Uiso
C29 C 0.8175(17) 0.7301(12) 0.2449(8) 0.0351 Uani
O16 O 0.8710(14) 0.5011(9) 0.0730(6) 0.0358 Uani
O22 O 0.8999(13) 0.3187(8) 0.0143(6) 0.0302 Uani
O23 O 0.9096(14) 0.0229(8) 0.4261(6) 0.0346 Uani
C49 C 0.9803(15) 0.0717(11) 0.3869(7) 0.0199 Uani
O24 O 0.5846(13) 0.4387(8) 0.0608(6) 0.0327 Uani
C52 C 0.7257(14) 0.3159(10) 0.1687(7) 0.0271 Uani
H25 H 0.7785 0.3542 0.1407 0.0320 Uiso
C53 C 0.9178(13) 0.1310(10) 0.3290(7) 0.0293 Uani
C54 C 0.7902(13) 0.2531(10) 0.2215(6) 0.0288 Uani
C56 C 0.7769(13) 0.1343(11) 0.3165(7) 0.0280 Uani
H27 H 0.7234 0.0962 0.3443 0.0340 Uiso
C58 C 0.9933(16) 0.1917(11) 0.2869(7) 0.0330 Uani
C62 C 0.5837(13) 0.3213(11) 0.1579(7) 0.0270 Uani
C63 C 0.511(2) 0.3972(13) 0.1063(8) 0.0332 Uani
C66 C 0.7155(13) 0.1949(10) 0.2623(7) 0.0302 Uani
C69 C 0.5085(17) 0.2589(12) 0.1978(8) 0.0404 Uani
H34 H 0.4143 0.2604 0.1907 0.0480 Uiso
C71 C 0.5757(14) 0.1942(12) 0.2484(8) 0.0354 Uani
H35 H 0.5274 0.1499 0.2733 0.0420 Uiso
C72 C 0.9322(14) 0.2511(12) 0.2330(8) 0.0337 Uani
H36 H 0.9849 0.2893 0.2048 0.0410 Uiso
H47 H 0.86901 0.298284 0.0608279 . .
O10 O 0.8889(13) 0.9288(9) 0.6061(6) 0.0375 Uani
H5 H 0.9139 0.8076 0.7049 0.0400 Uiso
O25 O 0.9383(13) 0.4563(9) 0.8972(6) 0.0360 Uani
O28 O 0.6715(12) 0.3578(9) 0.9284(6) 0.0328 Uani
H48 H 0.888404 0.268115 0.984183 . .
O21 O 0.9167(14) 0.8263(9) 0.4813(6) 0.0410 Uani
O31 O 0.6473(13) 0.8442(9) 0.5631(7) 0.0405 Uani
H48_2 H 0.111596 0.731885 0.0158171 . .
H47_2 H 0.13099 0.701716 0.939172 . .
H45_2 H 0.983406 0.170022 0.5138 . .
H41_2 H 0.913482 0.314932 0.0623884 . .
H42_2 H 0.994905 0.307986 0.98792 . .
loop_
_atom_site_aniso_label
_atom_site_aniso_U_11
_atom_site_aniso_U_22
_atom_site_aniso_U_33
_atom_site_aniso_U_23
_atom_site_aniso_U_13
_atom_site_aniso_U_12
Eu1 0.0194 0.0208 0.0247 -0.0022 -0.0087 0.0024
O2 0.035 0.03 0.047 -0.003 -0.007 0.015
O14 0.022 0.035 0.063 0.015 -0.016 -0.005
O39 0.036 0.04 0.036 -0.002 -0.011 -0.005
O41 0.026 0.048 0.022 -0.01 -0.004 0.003
Eu2 0.0184 0.021 0.0248 -0.0021 -0.0063 0.0028
O6 0.036 0.036 0.036 -0.0027 -0.0031 -0.0083
O9 0.026 0.041 0.039 -0.017 -0.004 -0.017
C4 0.029 0.023 0.049 -0.015 -0.001 -0.003
O13 0.02 0.031 0.059 -0.01 -0.002 -0.001
C12 0.023 0.023 0.023 -0.0012 -0.0024 -0.0057
C31 0.036 0.027 0.033 -0.009 0.004 0.003
C32 0.021 0.042 0.055 0.004 -0.003 -0.011
O35 0.017 0.044 0.043 0.011 -0.013 0
O1 0.038 0.027 0.04 -0.009 -0.015 -0.005
O3 0.03 0.029 0.031 -0.0027 -0.0049 -0.0045
O4 0.046 0.024 0.028 0.012 -0.011 0.001
C1 0.015 0.022 0.02 0.002 -0.007 0.002
O5 0.033 0.032 0.032 0.011 -0.004 -0.01
O7 0.017 0.044 0.043 0.011 -0.013 0
O12 0.027 0.023 0.066 -0.009 -0.032 0.004
C5 0.031 0.028 0.027 0 0 -0.002
C6 0.033 0.022 0.024 0.002 -0.004 -0.003
C7 0.016 0.031 0.05 -0.016 0.001 0
C8 0.034 0.02 0.032 -0.007 -0.003 -0.001
C9 0.031 0.03 0.023 -0.009 -0.009 0.003
C11 0.017 0.034 0.026 -0.008 -0.006 0.011
C14 0.034 0.021 0.064 0.007 -0.018 -0.002
C15 0.032 0.03 0.037 -0.002 0.009 -0.009
C16 0.025 0.042 0.032 -0.002 -0.016 -0.002
C20 0.022 0.033 0.022 -0.003 -0.005 0.003
C21 0.037 0.032 0.028 -0.003 0 -0.004
C25 0.022 0.018 0.048 -0.003 -0.006 0.002
C28 0.021 0.049 0.053 0.002 -0.016 -0.008
C30 0.02 0.053 0.051 -0.026 -0.011 -0.001
C33 0.072 0.046 0.042 -0.001 -0.037 -0.015
C34 0.018 0.031 0.055 0.01 -0.006 -0.005
C35 0.024 0.033 0.041 -0.001 -0.001 -0.002
O15 0.026 0.029 0.03 -0.001 0.003 0.004
C36 0.032 0.043 0.031 0 0.006 -0.012
O17 0.038 0.027 0.04 -0.009 -0.015 -0.005
O18 0.027 0.023 0.066 -0.009 -0.032 0.004
C37 0.031 0.028 0.027 0 0 -0.002
C38 0.016 0.031 0.05 -0.016 0.001 0
C39 0.034 0.021 0.064 0.007 -0.018 -0.002
C40 0.032 0.03 0.037 -0.002 0.009 -0.009
C41 0.02 0.053 0.051 -0.026 -0.011 -0.001
C42 0.072 0.046 0.042 -0.001 -0.037 -0.015
C45 0.034 0.029 0.052 -0.006 0 -0.007
O27 0.016 0.05 0.041 -0.013 -0.002 0
C50 0.012 0.035 0.033 -0.007 0.001 0.003
C51 0.015 0.039 0.027 -0.015 0.003 -0.009
C55 0.024 0.042 0.038 -0.004 -0.007 -0.002
C57 0.041 0.023 0.03 -0.007 -0.012 -0.002
C59 0.04 0.031 0.03 -0.009 -0.008 0
C60 0.018 0.049 0.044 -0.004 -0.008 -0.004
C61 0.02 0.037 0.027 -0.005 -0.013 0.004
C64 0.022 0.032 0.028 -0.008 -0.003 -0.008
C65 0.013 0.038 0.028 -0.005 0.003 -0.007
C67 0.03 0.04 0.047 -0.029 0.008 -0.006
C68 0.028 0.039 0.035 -0.018 -0.002 -0.013
C70 0.026 0.029 0.052 -0.017 -0.005 -0.004
O32 0.047 0.033 0.029 -0.011 -0.009 -0.007
Eu13 0.0184 0.021 0.0248 -0.0021 -0.0063 0.0028
O36 0.016 0.05 0.041 -0.013 -0.002 0
C22 0.034 0.029 0.052 -0.006 0 -0.007
O20 0.026 0.029 0.03 -0.001 0.003 0.004
C48 0.032 0.043 0.031 0 0.006 -0.012
C43 0.029 0.023 0.049 -0.015 -0.001 -0.003
O19 0.02 0.031 0.059 -0.01 -0.002 -0.001
C44 0.023 0.023 0.023 -0.0012 -0.0024 -0.0057
C46 0.036 0.027 0.033 -0.009 0.004 0.003
C47 0.021 0.042 0.055 0.004 -0.003 -0.011
Eu10 0.0194 0.0208 0.0247 -0.0022 -0.0087 0.0024
C2 0.012 0.035 0.033 -0.007 0.001 0.003
O11 0.026 0.048 0.022 -0.01 -0.004 0.003
C3 0.015 0.039 0.027 -0.015 0.003 -0.009
C10 0.024 0.042 0.038 -0.004 -0.007 -0.002
C13 0.041 0.023 0.03 -0.007 -0.012 -0.002
C17 0.04 0.031 0.03 -0.009 -0.008 0
C18 0.018 0.049 0.044 -0.004 -0.008 -0.004
C19 0.02 0.037 0.027 -0.005 -0.013 0.004
C23 0.022 0.032 0.028 -0.008 -0.003 -0.008
C24 0.013 0.038 0.028 -0.005 0.003 -0.007
C26 0.03 0.04 0.047 -0.029 0.008 -0.006
C27 0.028 0.039 0.035 -0.018 -0.002 -0.013
C29 0.026 0.029 0.052 -0.017 -0.005 -0.004
O16 0.047 0.033 0.029 -0.011 -0.009 -0.007
O22 0.03 0.029 0.031 -0.0027 -0.0049 -0.0045
O23 0.046 0.024 0.028 0.012 -0.011 0.001
C49 0.015 0.022 0.02 0.002 -0.007 0.002
O24 0.033 0.032 0.032 0.011 -0.004 -0.01
C52 0.033 0.022 0.024 0.002 -0.004 -0.003
C53 0.034 0.02 0.032 -0.007 -0.003 -0.001
C54 0.031 0.03 0.023 -0.009 -0.009 0.003
C56 0.017 0.034 0.026 -0.008 -0.006 0.011
C58 0.025 0.042 0.032 -0.002 -0.016 -0.002
C62 0.022 0.033 0.022 -0.003 -0.005 0.003
C63 0.037 0.032 0.028 -0.003 0 -0.004
C66 0.022 0.018 0.048 -0.003 -0.006 0.002
C69 0.021 0.049 0.053 0.002 -0.016 -0.008
C71 0.018 0.031 0.055 0.01 -0.006 -0.005
C72 0.024 0.033 0.041 -0.001 -0.001 -0.002
O10 0.036 0.04 0.036 -0.002 -0.011 -0.005
O25 0.036 0.036 0.036 -0.0027 -0.0031 -0.0083
O28 0.026 0.041 0.039 -0.017 -0.004 -0.017
O21 0.035 0.03 0.047 -0.003 -0.007 0.015
O31 0.022 0.035 0.063 0.015 -0.016 -0.005
loop_
_geom_bond_atom_site_label_1
_geom_bond_atom_site_label_2
_geom_bond_site_symmetry_1
_geom_bond_site_symmetry_2
O2 Eu1 1_555 1_555
O14 Eu1 1_555 1_555
O39 Eu1 1_555 1_555
O41 Eu1 1_555 1_555
O6 Eu2 1_555 1_555
O9 Eu2 1_555 1_555
C4 C12 1_555 1_555
O13 Eu2 1_555 1_555
C12 O13 1_555 1_555
C31 C4 1_555 1_555
H13 C31 1_555 1_555
C32 C31 1_555 1_555
O35 Eu2 1_555 1_555
O1 C15 1_555 1_555
C1 O4 1_555 1_555
O7 C21 1_555 1_555
C5 C14 1_555 1_555
C6 H1 1_555 1_555
C7 C14 1_555 1_555
C8 C1 1_555 1_555
C9 C6 1_555 1_555
C11 C8 1_555 1_555
H3 C11 1_555 1_555
C14 H4 1_555 1_555
C15 O12 1_555 1_555
C16 C8 1_555 1_555
C20 C6 1_555 1_555
C21 O5 1_555 1_555
C25 C9 1_555 1_555
C28 C20 1_555 1_555
H11 C28 1_555 1_555
C30 C7 1_555 1_555
H12 C30 1_555 1_555
C33 C5 1_555 1_555
H15 C33 1_555 1_555
C34 C25 1_555 1_555
H16 C34 1_555 1_555
C35 C9 1_555 1_555
H17 C35 1_555 1_555
H18 C36 1_555 1_555
O17 C40 1_555 1_555
O18 C40 1_555 1_555
C37 C39 1_555 1_555
C38 C7 1_555 1_555
C39 C38 1_555 1_555
H19 C39 1_555 1_555
C40 C37 1_555 1_555
C41 C33 1_555 1_555
H20 C41 1_555 1_555
C42 C30 1_555 1_555
H21 C42 1_555 1_555
O27 C51 1_555 1_555
O41 C51 1_555 1_555
C51 C65 1_555 1_555
C55 H26 1_555 1_555
C57 C50 1_555 1_555
C59 C57 1_555 1_555
H29 C59 1_555 1_555
C60 H30 1_555 1_555
C61 C64 1_555 1_555
C64 H31 1_555 1_555
C65 C64 1_555 1_555
C67 C59 1_555 1_555
H32 C67 1_555 1_555
C68 C60 1_555 1_555
H33 C68 1_555 1_555
C70 C55 1_555 1_555
Eu13 O7 1_555 1_555
C5 C15 1_555 1_555
C11 C25 1_555 1_555
C16 C35 1_555 1_555
C20 C21 1_555 1_555
C28 C34 1_555 1_555
C36 C45 1_555 1_555
C37 C42 1_555 1_555
C38 C41 1_555 1_555
C50 O32 1_555 1_555
C55 C57 1_555 1_555
C60 C70 1_555 1_555
C61 C67 1_555 1_555
C61 C70 1_555 1_555
C65 C68 1_555 1_555
O3 H41 1_555 1_555
C48 C22 1_555 1_555
H24 C48 1_555 1_555
C43 C44 1_555 1_555
O19 C44 1_555 1_555
C46 C43 1_555 1_555
H22 C46 1_555 1_555
Eu13 O19 1_555 1_555
C46 C47 1_555 1_555
O36 C3 1_555 1_555
O11 C3 1_555 1_555
C3 C24 1_555 1_555
C10 H2 1_555 1_555
C13 C2 1_555 1_555
C17 C13 1_555 1_555
H6 C17 1_555 1_555
C18 H7 1_555 1_555
C19 C23 1_555 1_555
C23 H8 1_555 1_555
C24 C23 1_555 1_555
C26 C17 1_555 1_555
H9 C26 1_555 1_555
C27 C18 1_555 1_555
H10 C27 1_555 1_555
C29 C10 1_555 1_555
O16 C2 1_555 1_555
C49 O23 1_555 1_555
O35 C63 1_555 1_555
C52 H25 1_555 1_555
C53 C49 1_555 1_555
C54 C52 1_555 1_555
C56 C53 1_555 1_555
H27 C56 1_555 1_555
C58 C53 1_555 1_555
C62 C52 1_555 1_555
C63 O24 1_555 1_555
C66 C54 1_555 1_555
C69 C62 1_555 1_555
H34 C69 1_555 1_555
C71 C66 1_555 1_555
H35 C71 1_555 1_555
C72 C54 1_555 1_555
H36 C72 1_555 1_555
Eu10 O11 1_555 1_555
C10 C13 1_555 1_555
C18 C29 1_555 1_555
C19 C26 1_555 1_555
C19 C29 1_555 1_555
C24 C27 1_555 1_555
C56 C66 1_555 1_555
C58 C72 1_555 1_555
C62 C63 1_555 1_555
C69 C71 1_555 1_555
O22 H47 1_555 1_555
O25 Eu13 1_555 1_555
O28 Eu13 1_555 1_555
Eu10 O10 1_555 1_555
Eu10 O21 1_555 1_555
O31 Eu10 1_555 1_555
O3 H47_2 1_555 1_555
O22 H41_2 1_555 1_555

#END
