
###############################################################################
#
# This file contains modified crystal structure data generated from the
# MOF subset of the Cambridge Structural Database (CSD) v543 
# hosted by the Cambridge Crystallographic Data Centre (CCDC).
#
# This work is licensed under the Creative Commons
# Attribution-NonCommercial-ShareAlike 4.0 International License.
# To view a copy of this license, visit
# http://creativecommons.org/licenses/by-nc-sa/4.0/
# or send a letter to
# Creative Commons, PO Box 1866, Mountain View, CA 94042, USA.
#
# CIF created using the CSD Python API on 29 September 2022
# The structure has been converted into the P1 space group
# The structure has a 3D framework
# The original CSD entry ADOKEN is in the monoclinic crystal system
# The framework has been calculated to contain at least 10.0% void space
# The void calculation uses a probe of radius 1.32A, grid spacing 0.4
#
###############################################################################

data_ADOKEN
_chemical_formula_moiety         '(C104 H92 N24 O36 S4 Zn8)n'
_symmetry_cell_setting           triclinic
_symmetry_space_group_name_H-M   'P 1'
_symmetry_Int_Tables_number      1
_space_group_name_Hall           'P 1'
loop_
_symmetry_equiv_pos_site_id
_symmetry_equiv_pos_as_xyz
1 x,y,z
_cell_length_a                   10.0991(6)
_cell_length_b                   15.9353(9)
_cell_length_c                   20.1512(11)
_cell_angle_alpha                90
_cell_angle_beta                 93.981(2)
_cell_angle_gamma                90
_cell_volume                     3235.15
loop_
_atom_site_label
_atom_site_type_symbol
_atom_site_fract_x
_atom_site_fract_y
_atom_site_fract_z
H17 H 0.0041 0.3790 0.6004
O10 O 0.72678(19) 0.25587(15) 0.82051(11)
O11 O 0.6552(2) 0.37755(13) 0.87674(12)
H29 H 0.5903 0.3990 0.8922
O12 O 0.5966(2) 0.23943(16) 0.91395(11)
O13 O 0.1706(2) 0.11783(14) 0.82418(13)
O14 O 0.04352(18) 0.18854(13) 0.74898(11)
O15 O 0.6449(2) 0.41112(12) 0.71038(11)
O16 O 0.5272(2) 0.49820(12) 0.76936(11)
C33 C 0.4764(2) 0.29589(15) 0.80568(12)
C34 C 0.4559(2) 0.35903(16) 0.75860(13)
C35 C 0.3366(3) 0.36165(19) 0.72015(15)
H34 H 0.3212 0.4045 0.6892
C36 C 0.2402(3) 0.30137(19) 0.72723(15)
H35 H 0.1618 0.3030 0.7002
C37 C 0.2599(2) 0.23872(16) 0.77428(13)
C38 C 0.3785(2) 0.23602(15) 0.81353(12)
H36 H 0.3925 0.1939 0.8452
C39 C 0.5531(2) 0.42810(16) 0.74570(13)
C40 C 0.1525(3) 0.17572(18) 0.78442(14)
S2 S 0.62540(6) 0.29244(4) 0.85846(3)
Zn8 Zn 0.78273(3) 0.482940(19) 0.661555(15)
Zn10 Zn 0.59540(3) 0.607495(18) 0.739568(15)
Zn1 Zn 0.28273(3) 0.017060(19) 0.161555(15)
N3 N 0.4295(2) 0.02852(14) 0.23473(11)
N4 N 0.5515(2) 0.07485(13) 0.32163(10)
N5 N 0.7743(2) 0.29328(15) 0.51850(11)
N6 N 0.8023(2) 0.39315(14) 0.59310(11)
C11 C 0.4458(3) 0.08925(16) 0.27915(13)
H11 H 0.3909 0.1360 0.2808
C12 C 0.6034(2) 0.12850(16) 0.37419(12)
C13 C 0.5328(3) 0.19711(19) 0.39347(14)
H12 H 0.4475 0.2066 0.3745
C14 C 0.5879(3) 0.25215(19) 0.44095(15)
H13 H 0.5413 0.2996 0.4527
C15 C 0.7132(3) 0.23599(17) 0.47077(13)
C16 C 0.7814(3) 0.16582(18) 0.45322(14)
H14 H 0.8645 0.1543 0.4741
C17 C 0.7274(3) 0.11225(17) 0.40478(14)
H15 H 0.7746 0.0652 0.3927
C18 C 0.9072(3) 0.2999(3) 0.5350(2)
H16 H 0.9740 0.2680 0.5180
C19 C 0.9231(3) 0.3611(3) 0.5805(2)
C20 C 0.7169(3) 0.35265(17) 0.55366(14)
H18 H 0.6263 0.3638 0.5503
C25 C 0.3725(3) 0.01866(19) 0.47592(15)
H22 H 0.294(4) 0.034(3) 0.459(2)
N7 N 0.7614(2) 0.12931(13) 0.68803(11)
N8 N 0.6233(2) 0.09554(13) 0.60328(10)
C27 C 0.7252(2) 0.06997(16) 0.64487(12)
H24 H 0.7649 0.0174 0.6434
C28 C 0.6786(3) 0.19626(16) 0.67350(14)
H25 H 0.6816 0.2473 0.6959
C29 C 0.5920(3) 0.17646(17) 0.62159(14)
H26 H 0.5250 0.2103 0.6022
C30 C 0.5606(2) 0.04692(16) 0.55048(12)
C32 C 0.4330(3) 0.06632(18) 0.52668(14)
H28 H 0.377(4) 0.105(2) 0.5478(17)
O17 O 0.82610(19) 0.08343(11) 0.84300(9)
H30 H 0.7727 0.1303 0.8547
H31 H 0.8957 0.0765 0.8775
O18 O 0.5807(3) 0.06306(16) 0.90419(13)
H32 H 0.6297 0.0781 0.9450
H33 H 0.5044 0.0306 0.9139
C41 C 0.4714(3) 0.0274(2) 0.74990(16)
H37 H 0.4580 0.0770 0.7729
C42 C 0.3955(3) 0.0005(2) 0.69672(16)
H38 H 0.3218 0.0275 0.6763
Zn4 Zn 0.90460(3) 0.107495(18) 0.760432(15)
O19 O 0.1449(2) 0.08888(12) 0.21038(11)
O21 O 0.0272(2) 0.00180(12) 0.26936(11)
N14 N 0.3023(2) 0.10685(14) 0.09310(11)
O8 O 0.17390(19) 0.91657(11) 0.15700(9)
H2 H 0.2273 0.8697 0.1453
H3 H 0.1043 0.9235 0.1225
O9 O 0.4193(3) 0.93694(16) 0.09581(13)
H4 H 0.3703 0.9219 0.0550
H5 H 0.4956 0.9694 0.0861
N1 N 0.2386(2) 0.87069(13) 0.31197(11)
N2 N 0.3767(2) 0.90446(13) 0.39672(10)
C9 C 0.5286(3) 0.9726(2) 0.25010(16)
H9 H 0.5420 0.9230 0.2271
C10 C 0.6045(3) 0.9995(2) 0.30328(16)
H10 H 0.6782 0.9725 0.3237
C21 C 0.2748(2) 0.93003(16) 0.35513(12)
H19 H 0.2351 0.9826 0.3566
C22 C 0.3214(3) 0.80374(16) 0.32650(14)
H20 H 0.3184 0.7527 0.3041
C23 C 0.4080(3) 0.82354(17) 0.37841(14)
H21 H 0.4750 0.7897 0.3978
C24 C 0.4394(2) 0.95308(16) 0.44952(12)
C26 C 0.5670(3) 0.93368(18) 0.47332(14)
H23 H 0.623(4) 0.895(2) 0.4522(17)
Zn2 Zn 0.09540(3) 0.892505(18) 0.239568(15)
C31 C 0.6275(3) 0.98134(19) 0.52408(15)
H27 H 0.706(4) 0.966(3) 0.541(2)
Zn3 Zn 0.71727(3) 0.982940(19) 0.838445(15)
N9 N 0.5705(2) 0.97148(14) 0.76527(11)
N10 N 0.4485(2) 0.92515(13) 0.67837(10)
N11 N 0.2257(2) 0.70672(15) 0.48150(11)
N12 N 0.1977(2) 0.60685(14) 0.40690(11)
C43 C 0.5542(3) 0.91075(16) 0.72085(13)
H39 H 0.6091 0.8640 0.7192
C44 C 0.3966(2) 0.87150(16) 0.62581(12)
C45 C 0.4672(3) 0.80289(19) 0.60653(14)
H40 H 0.5525 0.7934 0.6255
C46 C 0.4121(3) 0.74785(19) 0.55905(15)
H41 H 0.4587 0.7004 0.5473
C47 C 0.2868(3) 0.76401(17) 0.52923(13)
C48 C 0.2186(3) 0.83418(18) 0.54678(14)
H42 H 0.1355 0.8457 0.5259
C49 C 0.2726(3) 0.88775(17) 0.59522(14)
H43 H 0.2254 0.9348 0.6073
C50 C 0.0928(3) 0.7001(3) 0.4650(2)
H44 H 0.0260 0.7320 0.4820
C51 C 0.0769(3) 0.6389(3) 0.4195(2)
C52 C 0.2831(3) 0.64735(17) 0.44634(14)
H46 H 0.3737 0.6362 0.4497
Zn6 Zn 0.21727(3) 0.517060(19) 0.338445(15)
O20 O 0.8551(2) 0.91112(12) 0.78962(11)
O22 O 0.9728(2) 0.99820(12) 0.73064(11)
N13 N 0.6977(2) 0.89315(14) 0.90690(11)
O1 O 0.27322(19) 0.74413(15) 0.17949(11)
O2 O 0.3448(2) 0.62245(13) 0.12326(12)
H1 H 0.4097 0.6010 0.1078
O3 O 0.4034(2) 0.76057(16) 0.08605(11)
O4 O 0.8294(2) 0.88217(14) 0.17582(13)
O5 O 0.95648(18) 0.81146(13) 0.25102(11)
O6 O 0.3551(2) 0.58888(12) 0.28962(11)
O7 O 0.4728(2) 0.50180(12) 0.23064(11)
C1 C 0.5236(2) 0.70411(15) 0.19432(12)
C2 C 0.5441(2) 0.64097(16) 0.24140(13)
C3 C 0.6634(3) 0.63835(19) 0.27985(15)
H6 H 0.6788 0.5955 0.3108
C4 C 0.7598(3) 0.69863(19) 0.27277(15)
H7 H 0.8382 0.6970 0.2998
C5 C 0.7401(2) 0.76128(16) 0.22572(13)
C6 C 0.6215(2) 0.76398(15) 0.18647(12)
H8 H 0.6075 0.8061 0.1548
C7 C 0.4469(2) 0.57190(16) 0.25430(13)
C8 C 0.8475(3) 0.82428(18) 0.21558(14)
S1 S 0.37460(6) 0.70756(4) 0.14154(3)
H45 H 0.9959 0.6210 0.3996
Zn9 Zn 0.40460(3) 0.392505(18) 0.260432(15)
O1_2 O 0.22678(19) 0.24413(15) 0.32051(11)
O2_2 O 0.1552(2) 0.12245(13) 0.37674(12)
H1_2 H 0.0903 0.1010 0.3922
O3_2 O 0.0966(2) 0.26057(16) 0.41395(11)
C7_2 C 0.0531(2) 0.07190(16) 0.24570(13)
S1_2 S 0.12540(6) 0.20756(4) 0.35846(3)
O4_2 O 0.6706(2) 0.38217(14) 0.32418(13)
O5_2 O 0.54352(18) 0.31146(13) 0.24898(11)
O8_2 O 0.32610(19) 0.41657(11) 0.34300(9)
H2_2 H 0.2727 0.3697 0.3547
H3_2 H 0.3957 0.4235 0.3775
O9_2 O 0.0807(3) 0.43694(16) 0.40419(13)
H4_2 H 0.1297 0.4219 0.4450
H5_2 H 0.0044 0.4694 0.4139
N1_2 N 0.2614(2) 0.37069(13) 0.18803(11)
N2_2 N 0.1233(2) 0.40446(13) 0.10328(10)
N3_2 N 0.0705(2) 0.52852(14) 0.26527(11)
C1_2 C 0.9764(2) 0.20411(15) 0.30568(12)
C2_2 C 0.9559(2) 0.14097(16) 0.25860(13)
C3_2 C 0.8366(3) 0.13835(19) 0.22015(15)
H6_2 H 0.8212 0.0955 0.1892
C4_2 C 0.7402(3) 0.19863(19) 0.22723(15)
H7_2 H 0.6618 0.1970 0.2002
C5_2 C 0.7599(2) 0.26128(16) 0.27428(13)
C6_2 C 0.8785(2) 0.26398(15) 0.31353(12)
H8_2 H 0.8925 0.3061 0.3452
C8_2 C 0.6525(3) 0.32428(18) 0.28442(14)
C11_2 C 0.0542(3) 0.58925(16) 0.22085(13)
H11_2 H 0.1091 0.6360 0.2192
H12_2 H 0.0525 0.7066 0.1255
C21_2 C 0.2252(2) 0.43003(16) 0.14487(12)
H19_2 H 0.2649 0.4826 0.1434
C22_2 C 0.1786(3) 0.30374(16) 0.17350(14)
H20_2 H 0.1816 0.2527 0.1959
C23_2 C 0.0920(3) 0.32354(17) 0.12159(14)
H21_2 H 0.0250 0.2897 0.1022
C24_2 C 0.0606(2) 0.45308(16) 0.05048(12)
C25_2 C 0.1275(3) 0.51866(19) 0.02408(15)
H22_2 H 0.206(4) 0.534(3) 0.041(2)
N11_2 N 0.2743(2) 0.20672(15) 0.01850(11)
C50_2 C 0.4072(3) 0.2001(3) 0.0350(2)
H44_2 H 0.4740 0.2320 0.0180
C51_2 C 0.4231(3) 0.1389(3) 0.0805(2)
H45_2 H 0.5041 0.1210 0.1004
C52_2 C 0.2169(3) 0.14735(17) 0.05366(14)
H46_2 H 0.1263 0.1362 0.0503
N5_2 N 0.7257(2) 0.79328(15) 0.98150(11)
C18_2 C 0.5928(3) 0.7999(3) 0.9650(2)
H16_2 H 0.5260 0.7680 0.9820
C19_2 C 0.5769(3) 0.8611(3) 0.9195(2)
H17_2 H 0.4959 0.8790 0.8996
C20_2 C 0.7831(3) 0.85265(17) 0.94634(14)
H18_2 H 0.8737 0.8638 0.9497
N7_2 N 0.7386(2) 0.62931(13) 0.81197(11)
N8_2 N 0.8767(2) 0.59554(13) 0.89672(10)
C27_2 C 0.7748(2) 0.56997(16) 0.85513(12)
H24_2 H 0.7351 0.5174 0.8566
C28_2 C 0.8214(3) 0.69626(16) 0.82650(14)
H25_2 H 0.8184 0.7473 0.8041
C29_2 C 0.9080(3) 0.67646(17) 0.87841(14)
H26_2 H 0.9750 0.7103 0.8978
C30_2 C 0.9394(2) 0.54692(16) 0.94952(12)
C31_2 C 0.8725(3) 0.48134(19) 0.97592(15)
H27_2 H 0.794(4) 0.466(3) 0.959(2)
O13_2 O 0.3294(2) 0.61783(14) 0.67582(13)
O14_2 O 0.45648(18) 0.68854(13) 0.75102(11)
O17_2 O 0.67390(19) 0.58343(11) 0.65700(9)
H30_2 H 0.7273 0.6303 0.6453
H31_2 H 0.6043 0.5765 0.6225
O18_2 O 0.9193(3) 0.56306(16) 0.59581(13)
H32_2 H 0.8703 0.5781 0.5550
H33_2 H 0.9956 0.5306 0.5861
N9_2 N 0.9295(2) 0.47148(14) 0.73473(11)
C33_2 C 0.0236(2) 0.79589(15) 0.69432(12)
C34_2 C 0.0441(2) 0.85903(16) 0.74140(13)
C35_2 C 0.1634(3) 0.86165(19) 0.77985(15)
H34_2 H 0.1788 0.9045 0.8108
C36_2 C 0.2598(3) 0.80137(19) 0.77277(15)
H35_2 H 0.3382 0.8030 0.7998
C37_2 C 0.2401(2) 0.73872(16) 0.72572(13)
C38_2 C 0.1215(2) 0.73602(15) 0.68647(12)
H36_2 H 0.1075 0.6939 0.6548
C40_2 C 0.3475(3) 0.67572(18) 0.71558(14)
C43_2 C 0.9458(3) 0.41075(16) 0.77915(13)
H39_2 H 0.8909 0.3640 0.7808
H40_2 H 0.9475 0.2934 0.8745
O10_2 O 0.77322(19) 0.75587(15) 0.67949(11)
O11_2 O 0.8448(2) 0.87755(13) 0.62326(12)
H29_2 H 0.9097 0.8990 0.6078
O12_2 O 0.9034(2) 0.73943(16) 0.58605(11)
C39_2 C 0.9469(2) 0.92810(16) 0.75430(13)
S2_2 S 0.87460(6) 0.79244(4) 0.64154(3)
C32_2 C 0.0670(3) 0.56632(18) 0.97332(14)
H28_2 H 0.123(4) 0.605(2) 0.9522(17)
N10_2 N 0.0515(2) 0.42515(13) 0.82163(10)
C41_2 C 0.0286(3) 0.5274(2) 0.75010(16)
H37_2 H 0.0420 0.5770 0.7271
C42_2 C 0.1045(3) 0.5005(2) 0.80328(16)
H38_2 H 0.1782 0.5275 0.8237
C44_2 C 0.1034(2) 0.37150(16) 0.87419(12)
C45_2 C 0.0328(3) 0.30289(19) 0.89347(14)
C46_2 C 0.0879(3) 0.24785(19) 0.94095(15)
H41_2 H 0.0413 0.2004 0.9527
C47_2 C 0.2132(3) 0.26401(17) 0.97077(13)
C48_2 C 0.2814(3) 0.33418(18) 0.95322(14)
H42_2 H 0.3645 0.3457 0.9741
C49_2 C 0.2274(3) 0.38775(17) 0.90478(14)
H43_2 H 0.2746 0.4348 0.8927
N4_2 N 0.9485(2) 0.57485(13) 0.17837(10)
C9_2 C 0.9714(3) 0.4726(2) 0.24990(16)
H9_2 H 0.9580 0.4230 0.2729
C10_2 C 0.8955(3) 0.4995(2) 0.19672(16)
H10_2 H 0.8218 0.4725 0.1763
C12_2 C 0.8966(2) 0.62850(16) 0.12581(12)
C13_2 C 0.9672(3) 0.69711(19) 0.10653(14)
C14_2 C 0.9121(3) 0.75215(19) 0.05905(15)
H13_2 H 0.9587 0.7996 0.0473
C15_2 C 0.7868(3) 0.73599(17) 0.02923(13)
C16_2 C 0.7186(3) 0.66582(18) 0.04678(14)
H14_2 H 0.6355 0.6543 0.0259
C17_2 C 0.7726(3) 0.61225(17) 0.09522(14)
H15_2 H 0.7254 0.5652 0.1073
C26_2 C 0.9330(3) 0.43368(18) 0.02668(14)
H23_2 H 0.877(4) 0.395(2) 0.0478(17)
loop_
_geom_bond_atom_site_label_1
_geom_bond_atom_site_label_2
_geom_bond_site_symmetry_1
_geom_bond_site_symmetry_2
O10 S2 1_555 1_555
O11 H29 1_555 1_555
O12 S2 1_555 1_555
O13 C40 1_555 1_555
O14 C40 1_555 1_555
O15 C39 1_555 1_555
O16 C39 1_555 1_555
C33 C34 1_555 1_555
C34 C35 1_555 1_555
C35 H34 1_555 1_555
C36 C35 1_555 1_555
H35 C36 1_555 1_555
C37 C36 1_555 1_555
C38 C33 1_555 1_555
H36 C38 1_555 1_555
C39 C34 1_555 1_555
C40 C37 1_555 1_555
S2 O11 1_555 1_555
Zn8 O15 1_555 1_555
Zn10 O16 1_555 1_555
C33 S2 1_555 1_555
C37 C38 1_555 1_555
N3 Zn1 1_555 1_555
N5 C15 1_555 1_555
N6 C19 1_555 1_555
C11 N3 1_555 1_555
H11 C11 1_555 1_555
C12 N4 1_555 1_555
C13 C12 1_555 1_555
H12 C13 1_555 1_555
C14 C13 1_555 1_555
H13 C14 1_555 1_555
C15 C14 1_555 1_555
C16 C15 1_555 1_555
H14 C16 1_555 1_555
C17 C12 1_555 1_555
H15 C17 1_555 1_555
C18 N5 1_555 1_555
H16 C18 1_555 1_555
C19 C18 1_555 1_555
C20 N5 1_555 1_555
H18 C20 1_555 1_555
H22 C25 1_555 1_555
N7 C27 1_555 1_555
N8 C27 1_555 1_555
C27 H24 1_555 1_555
C28 N7 1_555 1_555
H25 C28 1_555 1_555
C29 N8 1_555 1_555
H26 C29 1_555 1_555
C30 N8 1_555 1_555
C32 C25 1_555 1_555
H28 C32 1_555 1_555
O17 H30 1_555 1_555
H31 O17 1_555 1_555
H32 O18 1_555 1_555
H33 O18 1_555 1_555
H37 C41 1_555 1_555
C42 C41 1_555 1_555
H38 C42 1_555 1_555
Zn4 N7 1_555 1_555
Zn8 N6 1_555 1_555
O19 Zn1 1_555 1_555
N14 Zn1 1_555 1_555
N4 C11 1_555 1_555
N6 C20 1_555 1_555
C16 C17 1_555 1_555
C28 C29 1_555 1_555
C30 C32 1_555 1_555
O17 Zn4 1_555 1_555
O8 H2 1_555 1_555
H3 O8 1_555 1_555
H4 O9 1_555 1_555
H5 O9 1_555 1_555
N1 C21 1_555 1_555
N2 C21 1_555 1_555
H9 C9 1_555 1_555
C10 C9 1_555 1_555
H10 C10 1_555 1_555
C21 H19 1_555 1_555
C22 N1 1_555 1_555
H20 C22 1_555 1_555
C23 N2 1_555 1_555
H21 C23 1_555 1_555
C24 N2 1_555 1_555
C26 C24 1_555 1_555
H23 C26 1_555 1_555
C31 C26 1_555 1_555
H27 C31 1_555 1_555
N9 Zn3 1_555 1_555
N11 C47 1_555 1_555
N12 C51 1_555 1_555
C43 N9 1_555 1_555
H39 C43 1_555 1_555
C44 N10 1_555 1_555
C45 C44 1_555 1_555
H40 C45 1_555 1_555
C46 C45 1_555 1_555
H41 C46 1_555 1_555
C47 C46 1_555 1_555
C48 C47 1_555 1_555
H42 C48 1_555 1_555
C49 C44 1_555 1_555
H43 C49 1_555 1_555
C50 N11 1_555 1_555
H44 C50 1_555 1_555
C51 C50 1_555 1_555
C52 N11 1_555 1_555
H46 C52 1_555 1_555
Zn6 N12 1_555 1_555
O20 Zn3 1_555 1_555
N13 Zn3 1_555 1_555
O8 Zn2 1_555 1_555
N1 Zn2 1_555 1_555
C22 C23 1_555 1_555
N10 C43 1_555 1_555
N12 C52 1_555 1_555
C48 C49 1_555 1_555
O1 S1 1_555 1_555
O2 H1 1_555 1_555
O3 S1 1_555 1_555
O4 C8 1_555 1_555
O5 C8 1_555 1_555
O6 C7 1_555 1_555
O7 C7 1_555 1_555
C1 C2 1_555 1_555
C2 C3 1_555 1_555
C3 H6 1_555 1_555
C4 C3 1_555 1_555
H7 C4 1_555 1_555
C5 C4 1_555 1_555
C6 C1 1_555 1_555
H8 C6 1_555 1_555
C7 C2 1_555 1_555
C8 C5 1_555 1_555
S1 O2 1_555 1_555
Zn6 O6 1_555 1_555
Zn9 O7 1_555 1_555
C1 S1 1_555 1_555
C5 C6 1_555 1_555
O1_2 S1_2 1_555 1_555
O2_2 H1_2 1_555 1_555
O3_2 S1_2 1_555 1_555
O19 C7_2 1_555 1_555
O21 C7_2 1_555 1_555
S1_2 O2_2 1_555 1_555
Zn6 O8_2 1_555 1_555
O4_2 C8_2 1_555 1_555
O5_2 C8_2 1_555 1_555
O8_2 H2_2 1_555 1_555
H3_2 O8_2 1_555 1_555
O9_2 Zn6 1_555 1_555
H4_2 O9_2 1_555 1_555
H5_2 O9_2 1_555 1_555
N1_2 C21_2 1_555 1_555
N2_2 C21_2 1_555 1_555
N3_2 Zn6 1_555 1_555
C1_2 C2_2 1_555 1_555
C2_2 C3_2 1_555 1_555
C3_2 H6_2 1_555 1_555
C4_2 C3_2 1_555 1_555
H7_2 C4_2 1_555 1_555
C5_2 C4_2 1_555 1_555
C6_2 C1_2 1_555 1_555
H8_2 C6_2 1_555 1_555
C8_2 C5_2 1_555 1_555
C11_2 N3_2 1_555 1_555
H11_2 C11_2 1_555 1_555
C21_2 H19_2 1_555 1_555
C22_2 N1_2 1_555 1_555
H20_2 C22_2 1_555 1_555
C23_2 N2_2 1_555 1_555
H21_2 C23_2 1_555 1_555
C24_2 N2_2 1_555 1_555
C25_2 C24_2 1_555 1_555
H22_2 C25_2 1_555 1_555
Zn9 O5_2 1_555 1_555
N14 C51_2 1_555 1_555
C50_2 N11_2 1_555 1_555
H44_2 C50_2 1_555 1_555
C51_2 C50_2 1_555 1_555
H45_2 C51_2 1_555 1_555
C52_2 N11_2 1_555 1_555
H46_2 C52_2 1_555 1_555
O8_2 Zn9 1_555 1_555
N1_2 Zn9 1_555 1_555
C5_2 C6_2 1_555 1_555
C22_2 C23_2 1_555 1_555
N14 C52_2 1_555 1_555
N13 C19_2 1_555 1_555
C18_2 N5_2 1_555 1_555
H16_2 C18_2 1_555 1_555
C19_2 C18_2 1_555 1_555
H17_2 C19_2 1_555 1_555
C20_2 N5_2 1_555 1_555
H18_2 C20_2 1_555 1_555
N7_2 C27_2 1_555 1_555
N8_2 C27_2 1_555 1_555
C27_2 H24_2 1_555 1_555
C28_2 N7_2 1_555 1_555
H25_2 C28_2 1_555 1_555
C29_2 N8_2 1_555 1_555
H26_2 C29_2 1_555 1_555
C30_2 N8_2 1_555 1_555
H27_2 C31_2 1_555 1_555
Zn8 O17_2 1_555 1_555
O13_2 C40_2 1_555 1_555
O14_2 C40_2 1_555 1_555
O17_2 H30_2 1_555 1_555
H31_2 O17_2 1_555 1_555
O18_2 Zn8 1_555 1_555
H32_2 O18_2 1_555 1_555
H33_2 O18_2 1_555 1_555
N9_2 Zn8 1_555 1_555
C33_2 C34_2 1_555 1_555
C34_2 C35_2 1_555 1_555
C35_2 H34_2 1_555 1_555
C36_2 C35_2 1_555 1_555
H35_2 C36_2 1_555 1_555
C37_2 C36_2 1_555 1_555
C38_2 C33_2 1_555 1_555
H36_2 C38_2 1_555 1_555
C40_2 C37_2 1_555 1_555
C43_2 N9_2 1_555 1_555
H39_2 C43_2 1_555 1_555
Zn10 N7_2 1_555 1_555
N13 C20_2 1_555 1_555
C28_2 C29_2 1_555 1_555
C30_2 C31_2 1_555 1_555
O14_2 Zn10 1_555 1_555
O17_2 Zn10 1_555 1_555
C37_2 C38_2 1_555 1_555
O10_2 S2_2 1_555 1_555
O11_2 H29_2 1_555 1_555
O12_2 S2_2 1_555 1_555
O20 C39_2 1_555 1_555
O22 C39_2 1_555 1_555
S2_2 O11_2 1_555 1_555
H28_2 C32_2 1_555 1_555
N10_2 C42_2 1_555 1_555
H37_2 C41_2 1_555 1_555
C42_2 C41_2 1_555 1_555
H38_2 C42_2 1_555 1_555
C44_2 N10_2 1_555 1_555
C45_2 C44_2 1_555 1_555
C46_2 C45_2 1_555 1_555
H41_2 C46_2 1_555 1_555
C47_2 C46_2 1_555 1_555
C48_2 C47_2 1_555 1_555
H42_2 C48_2 1_555 1_555
C49_2 C44_2 1_555 1_555
H43_2 C49_2 1_555 1_555
C48_2 C49_2 1_555 1_555
N4_2 C10_2 1_555 1_555
H9_2 C9_2 1_555 1_555
C10_2 C9_2 1_555 1_555
H10_2 C10_2 1_555 1_555
C12_2 N4_2 1_555 1_555
C13_2 C12_2 1_555 1_555
C14_2 C13_2 1_555 1_555
H13_2 C14_2 1_555 1_555
C15_2 C14_2 1_555 1_555
C16_2 C15_2 1_555 1_555
H14_2 C16_2 1_555 1_555
C17_2 C12_2 1_555 1_555
H15_2 C17_2 1_555 1_555
H23_2 C26_2 1_555 1_555
C16_2 C17_2 1_555 1_555

#END
