
###############################################################################
#
# This file contains modified crystal structure data generated from the
# MOF subset of the Cambridge Structural Database (CSD) v543 
# hosted by the Cambridge Crystallographic Data Centre (CCDC).
#
# This work is licensed under the Creative Commons
# Attribution-NonCommercial-ShareAlike 4.0 International License.
# To view a copy of this license, visit
# http://creativecommons.org/licenses/by-nc-sa/4.0/
# or send a letter to
# Creative Commons, PO Box 1866, Mountain View, CA 94042, USA.
#
# CIF created using the CSD Python API on 29 September 2022
# The structure has been converted into the P1 space group
# The structure has a 3D framework
# The original CSD entry ADOKOX is in the monoclinic crystal system
# The framework has been calculated to contain at least 10.0% void space
# The void calculation uses a probe of radius 1.32A, grid spacing 0.4
#
###############################################################################

data_ADOKOX
_chemical_formula_moiety         '(C56 H60 B4 Cd4 N32 O8)n'
_symmetry_cell_setting           triclinic
_symmetry_space_group_name_H-M   'P 1'
_symmetry_Int_Tables_number      1
_space_group_name_Hall           'P 1'
loop_
_symmetry_equiv_pos_site_id
_symmetry_equiv_pos_as_xyz
1 x,y,z
_cell_length_a                   8.3944(7)
_cell_length_b                   17.7981(12)
_cell_length_c                   16.6732(15)
_cell_angle_alpha                90
_cell_angle_beta                 112.949(6)
_cell_angle_gamma                90
_cell_volume                     2293.89
loop_
_atom_site_label
_atom_site_type_symbol
_atom_site_fract_x
_atom_site_fract_y
_atom_site_fract_z
Cd1 Cd 0.37166(5) 0.427717(18) 0.22706(2)
O1 O 0.6466(6) 0.3681(4) 0.2930(3)
O2 O 0.5833(6) 0.4559(3) 0.3647(3)
N2 N 0.2356(6) 0.3801(2) 0.0880(3)
C2 C 0.0953(8) 0.3321(3) 0.0569(3)
H2 H 0.0323 0.3150 0.0884
C3 C 0.8556(11) 0.3971(6) 0.4350(6)
H3 H 0.8446 0.3595 0.4737
H4 H 0.8902 0.4438 0.4657
H5 H 0.9412 0.3817 0.4134
C11 C 0.6829(9) 0.4073(4) 0.3591(5)
C12 C 0.2814(7) 0.3898(3) 0.0220(3)
H13 H 0.3723 0.4208 0.0243
N9 N 0.2379(6) 0.3348(2) 0.2763(3)
N10 N 0.1697(6) 0.5105(2) 0.2383(3)
N11 N 0.4711(6) 0.5250(2) 0.1617(3)
N1 N 0.1722(5) 0.2746(2) 0.8207(2)
N3 N 0.0308(5) 0.4007(2) 0.8001(3)
N4 N 0.2379(6) 0.1652(2) 0.7763(3)
N6 N 0.3549(5) 0.3927(2) 0.8636(3)
N7 N 0.1853(5) 0.3510(2) 0.9514(2)
N8 N 0.5289(6) 0.4750(2) 0.8383(3)
C4 C 0.6263(7) 0.4247(3) 0.8991(4)
H6 H 0.7465 0.4254 0.9257
C6 C 0.0673(7) 0.1637(3) 0.7672(3)
C7 C 0.0263(7) 0.2296(3) 0.7928(3)
C8 C 0.2954(6) 0.2321(3) 0.8077(3)
H10 H 0.4075 0.2487 0.8197
C10 C 0.3673(7) 0.4540(3) 0.8192(3)
H12 H 0.2720 0.4789 0.7792
C13 C 0.0645(8) 0.3142(3) 0.9745(4)
C14 C 0.5238(7) 0.3735(3) 0.9153(3)
H15 H 0.5596 0.3332 0.9538
B1 B 0.1886(7) 0.3538(3) 0.8587(4)
Cd3 Cd 0.62834(5) 0.572283(18) 0.77294(2)
Cd4 Cd 0.37166(5) 0.072283(18) 0.72706(2)
N5 N 0.8303(6) 0.4895(2) 0.7617(3)
C1 C 0.9556(6) 0.4571(3) 0.8263(3)
H1 H 0.9892 0.4716 0.8842
C5 C 0.9437(7) 0.3974(3) 0.7105(3)
H7 H 0.9651 0.3641 0.6729
H8 H 0.9924 0.1232 0.7465
H9 H 0.9185 0.2428 0.7920
C9 C 0.8220(8) 0.4516(3) 0.6881(4)
H11 H 0.7445 0.4619 0.6316
H14 H 0.9773 0.2826 0.9389
N5_2 N 0.1697(6) 0.9895(2) 0.7383(3)
C1_2 C 0.0444(6) 0.9571(3) 0.6737(3)
H1_2 H 0.0108 0.9716 0.6158
C5_2 C 0.0563(7) 0.8974(3) 0.7895(3)
H7_2 H 0.0349 0.8641 0.8271
H8_2 H 0.0076 0.6232 0.7535
H9_2 H 0.0815 0.7428 0.7080
C9_2 C 0.1780(8) 0.9516(3) 0.8119(4)
H11_2 H 0.2555 0.9619 0.8684
H14_2 H 0.0227 0.7826 0.5611
N10_2 N 0.8303(6) 0.0105(2) 0.2617(3)
N11_2 N 0.5289(6) 0.0250(2) 0.3383(3)
Cd1_2 Cd 0.62834(5) 0.927717(18) 0.27294(2)
O1_2 O 0.3534(6) 0.8681(4) 0.2070(3)
O2_2 O 0.4167(6) 0.9559(3) 0.1353(3)
N1_2 N 0.8278(5) 0.7746(2) 0.6793(2)
N2_2 N 0.7644(6) 0.8801(2) 0.4120(3)
N3_2 N 0.9692(5) 0.9007(2) 0.6999(3)
N4_2 N 0.7621(6) 0.6652(2) 0.7237(3)
N6_2 N 0.6451(5) 0.8927(2) 0.6364(3)
N7_2 N 0.8147(5) 0.8510(2) 0.5486(2)
N8_2 N 0.4711(6) 0.9750(2) 0.6617(3)
C2_2 C 0.9047(8) 0.8321(3) 0.4431(3)
H2_2 H 0.9677 0.8150 0.4116
C3_2 C 0.1444(11) 0.8971(6) 0.0650(6)
H3_2 H 0.1554 0.8595 0.0263
H4_2 H 0.1098 0.9438 0.0343
H5_2 H 0.0588 0.8817 0.0866
C4_2 C 0.3737(7) 0.9247(3) 0.6009(4)
H6_2 H 0.2535 0.9254 0.5743
C6_2 C 0.9327(7) 0.6637(3) 0.7328(3)
C7_2 C 0.9737(7) 0.7296(3) 0.7072(3)
C8_2 C 0.7046(6) 0.7321(3) 0.6923(3)
H10_2 H 0.5925 0.7487 0.6803
C10_2 C 0.6327(7) 0.9540(3) 0.6808(3)
H12_2 H 0.7280 0.9789 0.7208
C11_2 C 0.3171(9) 0.9073(4) 0.1409(5)
C12_2 C 0.7186(7) 0.8898(3) 0.4780(3)
H13_2 H 0.6277 0.9208 0.4757
C13_2 C 0.9355(8) 0.8142(3) 0.5255(4)
C14_2 C 0.4762(7) 0.8735(3) 0.5847(3)
H15_2 H 0.4404 0.8332 0.5462
B1_2 B 0.8114(7) 0.8538(3) 0.6413(4)
N9_2 N 0.7621(6) 0.8348(2) 0.2237(3)
C1_3 C 0.0444(6) 0.5429(3) 0.1737(3)
H1_3 H 0.0108 0.5284 0.1158
C5_3 C 0.0563(7) 0.6026(3) 0.2895(3)
H7_3 H 0.0349 0.6359 0.3271
H8_3 H 0.0076 0.8768 0.2535
H9_3 H 0.0815 0.7572 0.2080
C9_3 C 0.1780(8) 0.5484(3) 0.3119(4)
H11_3 H 0.2555 0.5381 0.3684
H14_3 H 0.0227 0.7174 0.0611
N1_3 N 0.8278(5) 0.7254(2) 0.1793(2)
N3_3 N 0.9692(5) 0.5993(2) 0.1999(3)
N6_3 N 0.6451(5) 0.6073(2) 0.1364(3)
N7_3 N 0.8147(5) 0.6490(2) 0.0486(2)
C4_3 C 0.3737(7) 0.5753(3) 0.1009(4)
H6_3 H 0.2535 0.5746 0.0743
C6_3 C 0.9327(7) 0.8363(3) 0.2328(3)
C7_3 C 0.9737(7) 0.7704(3) 0.2072(3)
C8_3 C 0.7046(6) 0.7679(3) 0.1923(3)
H10_3 H 0.5925 0.7513 0.1803
C10_3 C 0.6327(7) 0.5460(3) 0.1808(3)
H12_3 H 0.7280 0.5211 0.2208
C13_3 C 0.9355(8) 0.6858(3) 0.0255(4)
C14_3 C 0.4762(7) 0.6265(3) 0.0847(3)
H15_3 H 0.4404 0.6668 0.0462
B1_3 B 0.8114(7) 0.6462(3) 0.1413(4)
O1_3 O 0.3534(6) 0.6319(4) 0.7070(3)
O2_3 O 0.4167(6) 0.5441(3) 0.6353(3)
N2_3 N 0.7644(6) 0.6199(2) 0.9120(3)
C2_3 C 0.9047(8) 0.6679(3) 0.9431(3)
H2_3 H 0.9677 0.6850 0.9116
C3_3 C 0.1444(11) 0.6029(6) 0.5650(6)
H3_3 H 0.1554 0.6405 0.5263
H4_3 H 0.1098 0.5562 0.5343
H5_3 H 0.0588 0.6183 0.5866
C11_3 C 0.3171(9) 0.5927(4) 0.6409(5)
C12_3 C 0.7186(7) 0.6102(3) 0.9780(3)
H13_3 H 0.6277 0.5792 0.9757
O1_4 O 0.6466(6) 0.1319(4) 0.7930(3)
O2_4 O 0.5833(6) 0.0441(3) 0.8647(3)
N1_4 N 0.1722(5) 0.2254(2) 0.3207(2)
N2_4 N 0.2356(6) 0.1199(2) 0.5880(3)
N3_4 N 0.0308(5) 0.0993(2) 0.3001(3)
N6_4 N 0.3549(5) 0.1073(2) 0.3636(3)
N7_4 N 0.1853(5) 0.1490(2) 0.4514(2)
C2_4 C 0.0953(8) 0.1679(3) 0.5569(3)
H2_4 H 0.0323 0.1850 0.5884
C3_4 C 0.8556(11) 0.1029(6) 0.9350(6)
H3_4 H 0.8446 0.1405 0.9737
H4_4 H 0.8902 0.0562 0.9657
H5_4 H 0.9412 0.1183 0.9134
C4_4 C 0.6263(7) 0.0753(3) 0.3991(4)
H6_4 H 0.7465 0.0746 0.4257
C6_4 C 0.0673(7) 0.3363(3) 0.2672(3)
C7_4 C 0.0263(7) 0.2704(3) 0.2928(3)
C8_4 C 0.2954(6) 0.2679(3) 0.3077(3)
H10_4 H 0.4075 0.2513 0.3197
C10_4 C 0.3673(7) 0.0460(3) 0.3192(3)
H12_4 H 0.2720 0.0211 0.2792
C11_4 C 0.6829(9) 0.0927(4) 0.8591(5)
C12_4 C 0.2814(7) 0.1102(3) 0.5220(3)
H13_4 H 0.3723 0.0792 0.5243
C13_4 C 0.0645(8) 0.1858(3) 0.4745(4)
C14_4 C 0.5238(7) 0.1265(3) 0.4153(3)
H15_4 H 0.5596 0.1668 0.4538
B1_4 B 0.1886(7) 0.1462(3) 0.3587(4)
C1_4 C 0.9556(6) 0.0429(3) 0.3263(3)
H1_4 H 0.9892 0.0284 0.3842
C5_4 C 0.9437(7) 0.1026(3) 0.2105(3)
H7_4 H 0.9651 0.1359 0.1729
H8_4 H 0.9924 0.3768 0.2465
H9_4 H 0.9185 0.2572 0.2920
C9_4 C 0.8220(8) 0.0484(3) 0.1881(4)
H11_4 H 0.7445 0.0381 0.1316
H14_4 H 0.9773 0.2174 0.4389
loop_
_geom_bond_atom_site_label_1
_geom_bond_atom_site_label_2
_geom_bond_site_symmetry_1
_geom_bond_site_symmetry_2
Cd1 O1 1_555 1_555
O1 C11 1_555 1_555
O2 Cd1 1_555 1_555
N2 Cd1 1_555 1_555
C2 N2 1_555 1_555
H2 C2 1_555 1_555
C3 H3 1_555 1_555
H4 C3 1_555 1_555
H5 C3 1_555 1_555
C11 O2 1_555 1_555
C12 N2 1_555 1_555
H13 C12 1_555 1_555
N9 Cd1 1_555 1_555
N10 Cd1 1_555 1_555
N11 Cd1 1_555 1_555
C3 C11 1_555 1_555
N1 C7 1_555 1_555
N4 C6 1_555 1_555
N6 C10 1_555 1_555
N8 C4 1_555 1_555
C4 H6 1_555 1_555
C7 C6 1_555 1_555
C8 N1 1_555 1_555
H10 C8 1_555 1_555
C10 N8 1_555 1_555
H12 C10 1_555 1_555
C13 N7 1_555 1_555
C14 N6 1_555 1_555
H15 C14 1_555 1_555
B1 N1 1_555 1_555
Cd3 N8 1_555 1_555
Cd4 N4 1_555 1_555
N3 B1 1_555 1_555
N4 C8 1_555 1_555
N6 B1 1_555 1_555
N7 B1 1_555 1_555
C4 C14 1_555 1_555
N5 C1 1_555 1_555
C1 H1 1_555 1_555
H7 C5 1_555 1_555
C9 N5 1_555 1_555
H11 C9 1_555 1_555
Cd3 N5 1_555 1_555
C5 C9 1_555 1_555
N5_2 C1_2 1_555 1_555
C1_2 H1_2 1_555 1_555
H7_2 C5_2 1_555 1_555
C9_2 N5_2 1_555 1_555
H11_2 C9_2 1_555 1_555
C5_2 C9_2 1_555 1_555
Cd1_2 O1_2 1_555 1_555
O1_2 C11_2 1_555 1_555
O2_2 Cd1_2 1_555 1_555
N1_2 C7_2 1_555 1_555
N2_2 Cd1_2 1_555 1_555
N4_2 C6_2 1_555 1_555
N6_2 C10_2 1_555 1_555
N7_2 C12_2 1_555 1_555
N8_2 C4_2 1_555 1_555
C2_2 N2_2 1_555 1_555
H2_2 C2_2 1_555 1_555
C3_2 H3_2 1_555 1_555
H4_2 C3_2 1_555 1_555
H5_2 C3_2 1_555 1_555
C4_2 H6_2 1_555 1_555
C7_2 C6_2 1_555 1_555
C8_2 N1_2 1_555 1_555
H10_2 C8_2 1_555 1_555
C10_2 N8_2 1_555 1_555
H12_2 C10_2 1_555 1_555
C11_2 O2_2 1_555 1_555
C12_2 N2_2 1_555 1_555
H13_2 C12_2 1_555 1_555
C13_2 N7_2 1_555 1_555
C14_2 N6_2 1_555 1_555
H15_2 C14_2 1_555 1_555
B1_2 N1_2 1_555 1_555
Cd3 N4_2 1_555 1_555
N9_2 Cd1_2 1_555 1_555
N3_2 B1_2 1_555 1_555
N4_2 C8_2 1_555 1_555
N6_2 B1_2 1_555 1_555
N7_2 B1_2 1_555 1_555
C2_2 C13_2 1_555 1_555
C3_2 C11_2 1_555 1_555
C4_2 C14_2 1_555 1_555
N10 C1_3 1_555 1_555
C1_3 H1_3 1_555 1_555
H7_3 C5_3 1_555 1_555
C9_3 N10 1_555 1_555
H11_3 C9_3 1_555 1_555
C5_3 C9_3 1_555 1_555
N1_3 C7_3 1_555 1_555
N9_2 C6_3 1_555 1_555
N6_3 C10_3 1_555 1_555
N11 C4_3 1_555 1_555
C4_3 H6_3 1_555 1_555
C7_3 C6_3 1_555 1_555
C8_3 N1_3 1_555 1_555
H10_3 C8_3 1_555 1_555
C10_3 N11 1_555 1_555
H12_3 C10_3 1_555 1_555
C13_3 N7_3 1_555 1_555
C14_3 N6_3 1_555 1_555
H15_3 C14_3 1_555 1_555
B1_3 N1_3 1_555 1_555
N3_3 B1_3 1_555 1_555
N9_2 C8_3 1_555 1_555
N6_3 B1_3 1_555 1_555
N7_3 B1_3 1_555 1_555
C4_3 C14_3 1_555 1_555
Cd3 O1_3 1_555 1_555
O1_3 C11_3 1_555 1_555
O2_3 Cd3 1_555 1_555
N2_3 Cd3 1_555 1_555
C2_3 N2_3 1_555 1_555
H2_3 C2_3 1_555 1_555
C3_3 H3_3 1_555 1_555
H4_3 C3_3 1_555 1_555
H5_3 C3_3 1_555 1_555
C11_3 O2_3 1_555 1_555
C12_3 N2_3 1_555 1_555
H13_3 C12_3 1_555 1_555
C3_3 C11_3 1_555 1_555
Cd4 O1_4 1_555 1_555
O1_4 C11_4 1_555 1_555
O2_4 Cd4 1_555 1_555
N1_4 C7_4 1_555 1_555
N2_4 Cd4 1_555 1_555
N9 C6_4 1_555 1_555
N6_4 C10_4 1_555 1_555
N7_4 C12_4 1_555 1_555
N11_2 C4_4 1_555 1_555
C2_4 N2_4 1_555 1_555
H2_4 C2_4 1_555 1_555
C3_4 H3_4 1_555 1_555
H4_4 C3_4 1_555 1_555
H5_4 C3_4 1_555 1_555
C4_4 H6_4 1_555 1_555
C7_4 C6_4 1_555 1_555
C8_4 N1_4 1_555 1_555
H10_4 C8_4 1_555 1_555
C10_4 N11_2 1_555 1_555
H12_4 C10_4 1_555 1_555
C11_4 O2_4 1_555 1_555
C12_4 N2_4 1_555 1_555
H13_4 C12_4 1_555 1_555
C13_4 N7_4 1_555 1_555
C14_4 N6_4 1_555 1_555
H15_4 C14_4 1_555 1_555
B1_4 N1_4 1_555 1_555
N3_4 B1_4 1_555 1_555
N9 C8_4 1_555 1_555
N6_4 B1_4 1_555 1_555
N7_4 B1_4 1_555 1_555
C2_4 C13_4 1_555 1_555
C3_4 C11_4 1_555 1_555
C4_4 C14_4 1_555 1_555
N10_2 C1_4 1_555 1_555
C1_4 H1_4 1_555 1_555
H7_4 C5_4 1_555 1_555
C9_4 N10_2 1_555 1_555
H11_4 C9_4 1_555 1_555
C5_4 C9_4 1_555 1_555

#END
