
###############################################################################
#
# This file contains modified crystal structure data generated from the
# MOF subset of the Cambridge Structural Database (CSD) v543 
# hosted by the Cambridge Crystallographic Data Centre (CCDC).
#
# This work is licensed under the Creative Commons
# Attribution-NonCommercial-ShareAlike 4.0 International License.
# To view a copy of this license, visit
# http://creativecommons.org/licenses/by-nc-sa/4.0/
# or send a letter to
# Creative Commons, PO Box 1866, Mountain View, CA 94042, USA.
#
# CIF created using the CSD Python API on 29 September 2022
# The structure has been converted into the P1 space group
# The structure has a 3D framework
# The original CSD entry ADONIT is in the orthorhombic crystal system
# The framework has been calculated to contain at least 10.0% void space
# The void calculation uses a probe of radius 1.32A, grid spacing 0.4
#
###############################################################################

data_ADONIT
_chemical_formula_moiety         '(C110 H72 N16 O22 Zn3)n'
_symmetry_cell_setting           triclinic
_symmetry_space_group_name_H-M   'P 1'
_symmetry_Int_Tables_number      1
_space_group_name_Hall           'P 1'
loop_
_symmetry_equiv_pos_site_id
_symmetry_equiv_pos_as_xyz
1 x,y,z
_cell_length_a                   11.0779(11)
_cell_length_b                   22.030(2)
_cell_length_c                   11.4217(10)
_cell_angle_alpha                90
_cell_angle_beta                 90
_cell_angle_gamma                90
_cell_volume                     2787.42
loop_
_atom_site_label
_atom_site_type_symbol
_atom_site_fract_x
_atom_site_fract_y
_atom_site_fract_z
Zn1 Zn 0.21522(6) 0.2500 0.2500
N1 N 0.3195(3) 0.30175(16) 0.1468(3)
O1 O 0.1514(3) 0.19120(13) 0.1256(2)
O2 O 0.0421(3) 0.18382(14) 0.2861(2)
C1 C 0.3415(4) 0.3633(2) 0.1546(3)
H2 H 0.3139 0.3883 0.2146
C2 C 0.3741(5) 0.2843(2) 0.0497(4)
H3 H 0.3744 0.2446 0.0220
C3 C 0.4096(4) 0.3824(2) 0.0619(3)
C4 C 0.4574(4) 0.4420(2) 0.0294(3)
C5 C 0.4200(4) 0.4930(2) 0.0904(4)
H4 H 0.3658 0.4887 0.1520
C7 C 0.0623(4) 0.16991(19) 0.1811(3)
C9 C 0.0055(4) 0.1065(2) 0.0063(3)
N4 N 0.5710(4) 0.66948(17) 0.0039(3)
H10 H 0.5307 0.6715 0.0681
C20 C 0.4613(5) 0.5496(2) 0.0614(4)
H14 H 0.4343 0.5831 0.1035
N5 N 0.3195(3) 0.19825(16) 0.3532(3)
O6 O 0.1514(3) 0.30880(13) 0.3744(2)
O7 O 0.0421(3) 0.31618(14) 0.2139(2)
N2 N 0.4290(4) 0.16948(17) 0.5039(3)
H1 H 0.4693 0.1715 0.5681
C1_2 C 0.3415(4) 0.1367(2) 0.3454(3)
H2_2 H 0.3139 0.1117 0.2854
C2_2 C 0.3741(5) 0.2157(2) 0.4503(4)
H3_2 H 0.3744 0.2554 0.4780
C3_2 C 0.4096(4) 0.1176(2) 0.4381(3)
C4_2 C 0.4574(4) 0.0580(2) 0.4706(3)
C5_2 C 0.4200(4) 0.0070(2) 0.4096(4)
H4_2 H 0.3658 0.0113 0.3480
C6 C 0.5387(5) 0.0496(2) 0.5614(4)
H5 H 0.5657 0.0831 0.6035
C7_2 C 0.0623(4) 0.33009(19) 0.3189(3)
C9_2 C 0.0055(4) 0.3935(2) 0.4937(3)
H6 H 0.0739 0.3791 0.5319
H6_2 H 0.9261 0.8791 0.0319
N2_2 N 0.4290(4) 0.33052(17) 0.9961(3)
H1_2 H 0.4693 0.3285 0.9319
C6_2 C 0.5387(5) 0.4504(2) 0.9386(4)
H5_2 H 0.5657 0.4169 0.8965
H6_3 H 0.0739 0.1209 0.9681
N3 N 0.6805(3) 0.69825(16) 0.8532(3)
C15 C 0.6585(4) 0.6367(2) 0.8454(3)
H11 H 0.6861 0.6117 0.7854
C16 C 0.6259(5) 0.7157(2) 0.9503(4)
H12 H 0.6256 0.7554 0.9780
C17 C 0.5904(4) 0.6176(2) 0.9381(3)
C18 C 0.5426(4) 0.5580(2) 0.9706(3)
C19 C 0.5800(4) 0.5070(2) 0.9096(4)
H13 H 0.6342 0.5113 0.8480
Zn3 Zn 0.78478(6) 0.7500 0.7500
N3_2 N 0.6805(3) 0.80175(16) 0.6468(3)
N4_2 N 0.5710(4) 0.83052(17) 0.4961(3)
H10_2 H 0.5307 0.8285 0.4319
C15_2 C 0.6585(4) 0.8633(2) 0.6546(3)
H11_2 H 0.6861 0.8883 0.7146
C16_2 C 0.6259(5) 0.7843(2) 0.5497(4)
H12_2 H 0.6256 0.7446 0.5220
C17_2 C 0.5904(4) 0.8824(2) 0.5619(3)
C18_2 C 0.5426(4) 0.9420(2) 0.5294(3)
C19_2 C 0.5800(4) 0.9930(2) 0.5904(4)
H13_2 H 0.6342 0.9887 0.6520
C20_2 C 0.4613(5) 0.9504(2) 0.4386(4)
H14_2 H 0.4343 0.9169 0.3965
O1_2 O 0.8486(3) 0.80880(13) 0.8744(2)
O2_2 O 0.9579(3) 0.81618(14) 0.7139(2)
C7_3 C 0.9377(4) 0.83009(19) 0.8189(3)
C9_3 C 0.9945(4) 0.8935(2) 0.9937(3)
O6_2 O 0.8486(3) 0.69120(13) 0.6256(2)
O7_2 O 0.9579(3) 0.68382(14) 0.7861(2)
C7_4 C 0.9377(4) 0.66991(19) 0.6811(3)
C9_4 C 0.9945(4) 0.6065(2) 0.5063(3)
H6_4 H 0.9261 0.6209 0.4681
C8 C 0.9798(4) 0.12626(19) 0.1193(3)
C11 C 0.8280(4) 0.0438(2) 0.0069(3)
C12 C 0.8002(4) 0.0657(2) 0.1178(4)
H8 H 0.7299 0.0528 0.1547
C13 C 0.8750(4) 0.1061(2) 0.1735(3)
H9 H 0.8554 0.1200 0.2480
O3 O 0.7500 0.0000 0.8341(4)
C10 C 0.9308(4) 0.0657(2) 0.9506(3)
H7 H 0.9489 0.0528 0.8752
C14 C 0.7500 0.0000 0.9414(5)
O4 O 0.3486(3) 0.80880(13) 0.1256(2)
O5 O 0.4579(3) 0.81618(14) 0.2861(2)
C21 C 0.4377(4) 0.83009(19) 0.1811(3)
C22 C 0.5202(4) 0.87374(19) 0.1193(3)
C23 C 0.4945(4) 0.8935(2) 0.0063(3)
C25 C 0.6720(4) 0.9562(2) 0.0069(3)
C26 C 0.6998(4) 0.9343(2) 0.1178(4)
H17 H 0.7701 0.9472 0.1547
C27 C 0.6250(4) 0.8939(2) 0.1735(3)
H18 H 0.6446 0.8800 0.2480
Zn2 Zn 0.28478(6) 0.7500 0.2500
N1_2 N 0.1805(3) 0.69825(16) 0.1468(3)
C1_3 C 0.1585(4) 0.6367(2) 0.1546(3)
H2_3 H 0.1861 0.6117 0.2146
C2_3 C 0.1259(5) 0.7157(2) 0.0497(4)
H3_3 H 0.1256 0.7554 0.0220
C3_3 C 0.0904(4) 0.6176(2) 0.0619(3)
C4_3 C 0.0426(4) 0.5580(2) 0.0294(3)
C5_3 C 0.0800(4) 0.5070(2) 0.0904(4)
H4_3 H 0.1342 0.5113 0.1520
C20_3 C 0.0387(5) 0.4504(2) 0.0614(4)
H14_3 H 0.0657 0.4169 0.1035
N5_2 N 0.1805(3) 0.80175(16) 0.3532(3)
O6_3 O 0.3486(3) 0.69120(13) 0.3744(2)
O7_3 O 0.4579(3) 0.68382(14) 0.2139(2)
O3_2 O 0.7500 0.5000 0.6659(4)
C8_2 C 0.9798(4) 0.37374(19) 0.3807(3)
C10_2 C 0.9308(4) 0.4343(2) 0.5494(3)
H7_2 H 0.9489 0.4472 0.6248
C11_2 C 0.8280(4) 0.4562(2) 0.4931(3)
C12_2 C 0.8002(4) 0.4343(2) 0.3822(4)
H8_2 H 0.7299 0.4472 0.3453
C13_2 C 0.8750(4) 0.3939(2) 0.3265(3)
H9_2 H 0.8554 0.3800 0.2520
C14_2 C 0.7500 0.5000 0.5586(5)
C21_2 C 0.4377(4) 0.66991(19) 0.3189(3)
C22_2 C 0.5202(4) 0.62626(19) 0.3807(3)
C23_2 C 0.4945(4) 0.6065(2) 0.4937(3)
H15 H 0.4261 0.6209 0.5319
C24 C 0.5692(4) 0.5657(2) 0.5494(3)
H16 H 0.5511 0.5528 0.6248
C25_2 C 0.6720(4) 0.5438(2) 0.4931(3)
C26_2 C 0.6998(4) 0.5657(2) 0.3822(4)
H17_2 H 0.7701 0.5528 0.3453
C27_2 C 0.6250(4) 0.6061(2) 0.3265(3)
H18_2 H 0.6446 0.6200 0.2520
N2_3 N 0.0710(4) 0.83052(17) 0.5039(3)
H1_3 H 0.0307 0.8285 0.5681
C1_4 C 0.1585(4) 0.8633(2) 0.3454(3)
H2_4 H 0.1861 0.8883 0.2854
C2_4 C 0.1259(5) 0.7843(2) 0.4503(4)
H3_4 H 0.1256 0.7446 0.4780
C3_4 C 0.0904(4) 0.8824(2) 0.4381(3)
C4_4 C 0.0426(4) 0.9420(2) 0.4706(3)
C5_4 C 0.0800(4) 0.9930(2) 0.4096(4)
H4_4 H 0.1342 0.9887 0.3480
O3_3 O 0.7500 1.0000 0.8341(4)
C14_3 C 0.7500 1.0000 0.9414(5)
H15_2 H 0.4261 0.8791 0.9681
C24_2 C 0.5692(4) 0.9343(2) 0.9506(3)
H16_2 H 0.5511 0.9472 0.8752
N2_4 N 0.0710(4) 0.66948(17) 0.9961(3)
H1_4 H 0.0307 0.6715 0.9319
N4_3 N 0.9290(4) 0.33052(17) 0.0039(3)
H10_3 H 0.9693 0.3285 0.0681
O3_4 O 0.2500 0.0000 0.1659(4)
C14_4 C 0.2500 -0.0000 0.0586(5)
H15_3 H 0.5739 0.1209 0.0319
C24_3 C 0.4308(4) 0.0657(2) 0.0494(3)
H16_3 H 0.4489 0.0528 0.1248
C6_3 C 0.9613(5) 0.5496(2) 0.9386(4)
H5_3 H 0.9343 0.5831 0.8965
N3_3 N 0.8195(3) 0.30175(16) 0.8532(3)
C15_3 C 0.8415(4) 0.3633(2) 0.8454(3)
H11_3 H 0.8139 0.3883 0.7854
C16_3 C 0.8741(5) 0.2843(2) 0.9503(4)
H12_3 H 0.8744 0.2446 0.9780
C17_3 C 0.9096(4) 0.3824(2) 0.9381(3)
C18_3 C 0.9574(4) 0.4420(2) 0.9706(3)
C19_3 C 0.9200(4) 0.4930(2) 0.9096(4)
H13_3 H 0.8658 0.4887 0.8480
Zn3_2 Zn 0.71522(6) 0.2500 0.7500
N3_4 N 0.8195(3) 0.19825(16) 0.6468(3)
N4_4 N 0.9290(4) 0.16948(17) 0.4961(3)
H10_4 H 0.9693 0.1715 0.4319
C15_4 C 0.8415(4) 0.1367(2) 0.6546(3)
H11_4 H 0.8139 0.1117 0.7146
C16_4 C 0.8741(5) 0.2157(2) 0.5497(4)
H12_4 H 0.8744 0.2554 0.5220
C17_4 C 0.9096(4) 0.1176(2) 0.5619(3)
C18_4 C 0.9574(4) 0.0580(2) 0.5294(3)
C19_4 C 0.9200(4) 0.0070(2) 0.5904(4)
H13_4 H 0.8658 0.0113 0.6520
O4_2 O 0.6514(3) 0.19120(13) 0.8744(2)
O5_2 O 0.5421(3) 0.18382(14) 0.7139(2)
C21_3 C 0.5623(4) 0.16991(19) 0.8189(3)
C22_3 C 0.4798(4) 0.12626(19) 0.8807(3)
C23_3 C 0.5055(4) 0.1065(2) 0.9937(3)
C25_3 C 0.3280(4) 0.0438(2) 0.9931(3)
C26_3 C 0.3002(4) 0.0657(2) 0.8822(4)
H17_3 H 0.2299 0.0528 0.8453
C27_3 C 0.3750(4) 0.1061(2) 0.8265(3)
H18_3 H 0.3554 0.1200 0.7520
O6_4 O 0.6514(3) 0.30880(13) 0.6256(2)
O7_4 O 0.5421(3) 0.31618(14) 0.7861(2)
O3_5 O 0.2500 0.5000 0.3341(4)
C8_3 C 0.0202(4) 0.62626(19) 0.6193(3)
C10_3 C 0.0692(4) 0.5657(2) 0.4506(3)
H7_3 H 0.0511 0.5528 0.3752
C11_3 C 0.1720(4) 0.5438(2) 0.5069(3)
C12_3 C 0.1998(4) 0.5657(2) 0.6178(4)
H8_3 H 0.2701 0.5528 0.6547
C13_3 C 0.1250(4) 0.6061(2) 0.6735(3)
H9_3 H 0.1446 0.6200 0.7480
C14_5 C 0.2500 0.5000 0.4414(5)
C21_4 C 0.5623(4) 0.33009(19) 0.6811(3)
C22_4 C 0.4798(4) 0.37374(19) 0.6193(3)
C23_4 C 0.5055(4) 0.3935(2) 0.5063(3)
H15_4 H 0.5739 0.3791 0.4681
C24_4 C 0.4308(4) 0.4343(2) 0.4506(3)
H16_4 H 0.4489 0.4472 0.3752
C25_4 C 0.3280(4) 0.4562(2) 0.5069(3)
C26_4 C 0.3002(4) 0.4343(2) 0.6178(4)
H17_4 H 0.2299 0.4472 0.6547
C27_4 C 0.3750(4) 0.3939(2) 0.6735(3)
H18_4 H 0.3554 0.3800 0.7480
C20_4 C 0.0387(5) 0.0496(2) 0.4386(4)
H14_4 H 0.0657 0.0831 0.3965
C6_4 C 0.9613(5) 0.9504(2) 0.5614(4)
H5_4 H 0.9343 0.9169 0.6035
O3_6 O 0.2500 1.0000 0.1659(4)
C10_4 C 0.0692(4) 0.9343(2) 0.0494(3)
H7_4 H 0.0511 0.9472 0.1248
C14_6 C 0.2500 1.0000 0.0586(5)
C8_4 C 0.0202(4) 0.87374(19) 0.8807(3)
C11_4 C 0.1720(4) 0.9562(2) 0.9931(3)
C12_4 C 0.1998(4) 0.9343(2) 0.8822(4)
H8_4 H 0.2701 0.9472 0.8453
C13_4 C 0.1250(4) 0.8939(2) 0.8265(3)
H9_4 H 0.1446 0.8800 0.7520
loop_
_geom_bond_atom_site_label_1
_geom_bond_atom_site_label_2
_geom_bond_site_symmetry_1
_geom_bond_site_symmetry_2
Zn1 N1 1_555 1_555
N1 C1 1_555 1_555
O1 Zn1 1_555 1_555
O2 Zn1 1_555 1_555
C1 H2 1_555 1_555
C2 N1 1_555 1_555
H3 C2 1_555 1_555
C4 C3 1_555 1_555
C5 C4 1_555 1_555
H4 C5 1_555 1_555
C7 O1 1_555 1_555
N4 H10 1_555 1_555
C20 C5 1_555 1_555
H14 C20 1_555 1_555
N5 Zn1 1_555 1_555
O6 Zn1 1_555 1_555
O7 Zn1 1_555 1_555
O2 C7 1_555 1_555
C1 C3 1_555 1_555
N5 C1_2 1_555 1_555
N2 H1 1_555 1_555
C1_2 H2_2 1_555 1_555
C2_2 N5 1_555 1_555
H3_2 C2_2 1_555 1_555
C3_2 N2 1_555 1_555
C4_2 C3_2 1_555 1_555
C5_2 C4_2 1_555 1_555
H4_2 C5_2 1_555 1_555
C6 C4_2 1_555 1_555
H5 C6 1_555 1_555
C7_2 O6 1_555 1_555
H6 C9_2 1_555 1_555
N2 C2_2 1_555 1_555
O7 C7_2 1_555 1_555
C1_2 C3_2 1_555 1_555
N2_2 H1_2 1_555 1_555
H5_2 C6_2 1_555 1_555
N3 C15 1_555 1_555
C15 H11 1_555 1_555
C16 N3 1_555 1_555
H12 C16 1_555 1_555
C18 C17 1_555 1_555
C19 C6_2 1_555 1_555
H13 C19 1_555 1_555
Zn3 N3 1_555 1_555
C15 C17 1_555 1_555
C18 C19 1_555 1_555
N3_2 C15_2 1_555 1_555
N4_2 H10_2 1_555 1_555
C15_2 H11_2 1_555 1_555
C16_2 N3_2 1_555 1_555
H12_2 C16_2 1_555 1_555
C17_2 N4_2 1_555 1_555
C18_2 C17_2 1_555 1_555
H13_2 C19_2 1_555 1_555
H14_2 C20_2 1_555 1_555
Zn3 N3_2 1_555 1_555
N4_2 C16_2 1_555 1_555
C15_2 C17_2 1_555 1_555
C18_2 C19_2 1_555 1_555
C18_2 C20_2 1_555 1_555
O1_2 Zn3 1_555 1_555
O2_2 Zn3 1_555 1_555
C7_3 O1_2 1_555 1_555
O6_2 Zn3 1_555 1_555
O7_2 Zn3 1_555 1_555
O2_2 C7_3 1_555 1_555
C7_4 O6_2 1_555 1_555
H6_4 C9_4 1_555 1_555
O7_2 C7_4 1_555 1_555
C12 C11 1_555 1_555
H8 C12 1_555 1_555
C13 C8 1_555 1_555
H9 C13 1_555 1_555
C12 C13 1_555 1_555
O3 C14 1_555 1_555
H7 C10 1_555 1_555
O4 C21 1_555 1_555
O5 C21 1_555 1_555
C21 C22 1_555 1_555
C22 C23 1_555 1_555
C26 C25 1_555 1_555
H17 C26 1_555 1_555
C27 C22 1_555 1_555
H18 C27 1_555 1_555
Zn2 O4 1_555 1_555
O5 Zn2 1_555 1_555
C26 C27 1_555 1_555
Zn2 N1_2 1_555 1_555
N1_2 C1_3 1_555 1_555
C1_3 H2_3 1_555 1_555
C2_3 N1_2 1_555 1_555
H3_3 C2_3 1_555 1_555
C4_3 C3_3 1_555 1_555
C5_3 C4_3 1_555 1_555
H4_3 C5_3 1_555 1_555
C20_3 C5_3 1_555 1_555
H14_3 C20_3 1_555 1_555
N5_2 Zn2 1_555 1_555
O6_3 Zn2 1_555 1_555
O7_3 Zn2 1_555 1_555
C1_3 C3_3 1_555 1_555
O3_2 C14_2 1_555 1_555
H7_2 C10_2 1_555 1_555
C11_2 C10_2 1_555 1_555
C12_2 C11_2 1_555 1_555
H8_2 C12_2 1_555 1_555
C13_2 C8_2 1_555 1_555
H9_2 C13_2 1_555 1_555
C14_2 C11_2 1_555 1_555
O6_3 C21_2 1_555 1_555
O7_3 C21_2 1_555 1_555
C21_2 C22_2 1_555 1_555
C22_2 C23_2 1_555 1_555
C23_2 H15 1_555 1_555
C24 C23_2 1_555 1_555
H16 C24 1_555 1_555
C25_2 C14_2 1_555 1_555
C26_2 C25_2 1_555 1_555
H17_2 C26_2 1_555 1_555
C27_2 C22_2 1_555 1_555
H18_2 C27_2 1_555 1_555
C12_2 C13_2 1_555 1_555
C24 C25_2 1_555 1_555
C26_2 C27_2 1_555 1_555
N5_2 C1_4 1_555 1_555
N2_3 H1_3 1_555 1_555
C1_4 H2_4 1_555 1_555
C2_4 N5_2 1_555 1_555
H3_4 C2_4 1_555 1_555
C3_4 N2_3 1_555 1_555
C4_4 C3_4 1_555 1_555
C5_4 C4_4 1_555 1_555
H4_4 C5_4 1_555 1_555
N2_3 C2_4 1_555 1_555
C1_4 C3_4 1_555 1_555
O3_3 C14_3 1_555 1_555
H16_2 C24_2 1_555 1_555
N2_4 H1_4 1_555 1_555
N4_3 H10_3 1_555 1_555
O3_4 C14_4 1_555 1_555
H16_3 C24_3 1_555 1_555
H5_3 C6_3 1_555 1_555
N3_3 C15_3 1_555 1_555
C15_3 H11_3 1_555 1_555
C16_3 N3_3 1_555 1_555
H12_3 C16_3 1_555 1_555
C18_3 C17_3 1_555 1_555
C19_3 C6_3 1_555 1_555
H13_3 C19_3 1_555 1_555
Zn3_2 N3_3 1_555 1_555
C15_3 C17_3 1_555 1_555
C18_3 C19_3 1_555 1_555
N3_4 C15_4 1_555 1_555
N4_4 H10_4 1_555 1_555
C15_4 H11_4 1_555 1_555
C16_4 N3_4 1_555 1_555
H12_4 C16_4 1_555 1_555
C17_4 N4_4 1_555 1_555
C18_4 C17_4 1_555 1_555
H13_4 C19_4 1_555 1_555
Zn3_2 N3_4 1_555 1_555
N4_4 C16_4 1_555 1_555
C15_4 C17_4 1_555 1_555
C18_4 C19_4 1_555 1_555
O4_2 C21_3 1_555 1_555
O5_2 C21_3 1_555 1_555
C21_3 C22_3 1_555 1_555
C22_3 C23_3 1_555 1_555
C26_3 C25_3 1_555 1_555
H17_3 C26_3 1_555 1_555
C27_3 C22_3 1_555 1_555
H18_3 C27_3 1_555 1_555
Zn3_2 O4_2 1_555 1_555
O5_2 Zn3_2 1_555 1_555
C26_3 C27_3 1_555 1_555
O6_4 Zn3_2 1_555 1_555
O7_4 Zn3_2 1_555 1_555
O3_5 C14_5 1_555 1_555
H7_3 C10_3 1_555 1_555
C11_3 C10_3 1_555 1_555
C12_3 C11_3 1_555 1_555
H8_3 C12_3 1_555 1_555
C13_3 C8_3 1_555 1_555
H9_3 C13_3 1_555 1_555
C14_5 C11_3 1_555 1_555
O6_4 C21_4 1_555 1_555
O7_4 C21_4 1_555 1_555
C21_4 C22_4 1_555 1_555
C22_4 C23_4 1_555 1_555
C23_4 H15_4 1_555 1_555
C24_4 C23_4 1_555 1_555
H16_4 C24_4 1_555 1_555
C25_4 C14_5 1_555 1_555
C26_4 C25_4 1_555 1_555
H17_4 C26_4 1_555 1_555
C27_4 C22_4 1_555 1_555
H18_4 C27_4 1_555 1_555
C12_3 C13_3 1_555 1_555
C24_4 C25_4 1_555 1_555
C26_4 C27_4 1_555 1_555
H14_4 C20_4 1_555 1_555
H5_4 C6_4 1_555 1_555
O3_6 C14_6 1_555 1_555
H7_4 C10_4 1_555 1_555
C12_4 C11_4 1_555 1_555
H8_4 C12_4 1_555 1_555
C13_4 C8_4 1_555 1_555
H9_4 C13_4 1_555 1_555
C12_4 C13_4 1_555 1_555

#END
