
###############################################################################
#
# This file contains modified crystal structure data generated from the
# MOF subset of the Cambridge Structural Database (CSD) v543 
# hosted by the Cambridge Crystallographic Data Centre (CCDC).
#
# This work is licensed under the Creative Commons
# Attribution-NonCommercial-ShareAlike 4.0 International License.
# To view a copy of this license, visit
# http://creativecommons.org/licenses/by-nc-sa/4.0/
# or send a letter to
# Creative Commons, PO Box 1866, Mountain View, CA 94042, USA.
#
# CIF created using the CSD Python API on 29 September 2022
# The structure has been converted into the P1 space group
# The structure has a 3D framework
# The original CSD entry ADOSUL is in the monoclinic crystal system
# The framework has been calculated to contain at least 10.0% void space
# The void calculation uses a probe of radius 1.32A, grid spacing 0.4
# H atom positions have been added when not included in the experimental data
#
###############################################################################

data_ADOSUL
_chemical_formula_moiety         '(C84 H116 Gd4 N24 O26)n'
_symmetry_cell_setting           triclinic
_symmetry_space_group_name_H-M   'P 1'
_symmetry_Int_Tables_number      1
_space_group_name_Hall           'P 1'
loop_
_symmetry_equiv_pos_site_id
_symmetry_equiv_pos_as_xyz
1 x,y,z
_cell_length_a                   16.635(5)
_cell_length_b                   26.793(5)
_cell_length_c                   8.070(5)
_cell_angle_alpha                90
_cell_angle_beta                 101.329(5)
_cell_angle_gamma                90
_cell_volume                     3526.73
loop_
_atom_site_label
_atom_site_type_symbol
_atom_site_fract_x
_atom_site_fract_y
_atom_site_fract_z
H8 H 0.585(4) 0.315(2) 0.104(9)
H10 H 0.4312 0.3190 0.1122
H20 H 0.5082 0.3999 0.0832
Gd1 Gd 0.773019(19) 0.255655(10) 0.28800(4)
O3 O 0.7094(3) 0.28430(15) 0.0135(5)
O4 O 0.8503(3) 0.33057(17) 0.2376(6)
O8 O 0.8571(3) 0.26627(17) 0.5615(6)
O9 O 0.8571(3) 0.23373(17) 0.0615(6)
O10 O 0.7138(3) 0.32410(16) 0.4086(6)
O11 O 0.7094(3) 0.21570(15) 0.5135(5)
O12 O 0.9105(3) 0.2120(2) 0.3192(6)
O13 O 0.7443(3) 0.17178(17) 0.1915(6)
O14 O 0.6244(3) 0.23483(18) 0.2780(6)
H28 H 0.81278 0.359741 0.219221
H29 H 0.894663 0.33683 0.337228
C1 C 0.0708(4) 0.2828(3) 0.7361(10)
H1 H 0.0701 0.2967 0.8468
H2 H 0.0701 0.2467 0.7454
C3 C 0.6365(4) 0.2851(2) 0.9192(8)
C4 C 0.5635(4) 0.3656(2) 0.9084(10)
H5 H 0.6149 0.3830 0.9466
H6 H 0.5537 0.3639 0.7860
C6 C 0.2790(4) 0.6532(2) 0.4565(10)
C7 C 0.5702(4) 0.3129(2) 0.9804(9)
C9 C 0.4206(4) 0.3171(2) 0.9898(10)
H9 H 0.3681 0.3009 0.9528
C10 C 0.3583(4) 0.5794(2) 0.6124(10)
H11 H 0.4105 0.5957 0.6134
H12 H 0.3399 0.5887 0.7150
C11 C 0.4868(4) 0.2867(2) 0.9345(10)
H13 H 0.4729 0.2816 0.8132
H14 H 0.4901 0.2543 0.9886
C12 C 0.3693(5) 0.5228(2) 0.6079(11)
H15 H 0.4070 0.5121 0.7090
H16 H 0.3926 0.5138 0.5108
C13 C 0.2959(4) 0.5969(2) 0.4595(9)
H17 H 0.316(4) 0.588(2) 0.357(9)
C14 C 0.0756(4) 0.3714(3) 0.5327(11)
H18 H 0.0741 0.3582 0.4201
H19 H 0.0786 0.4075 0.5270
C15 C 0.4948(4) 0.3944(2) 0.9621(11)
H21 H 0.4895 0.4268 0.9070
C16 C 0.3499(4) 0.3875(2) 0.8203(9)
C17 C 0.2150(4) 0.5697(3) 0.4574(10)
H22 H 0.1757 0.5793 0.3571
H23 H 0.1932 0.5796 0.5554
C18 C 0.2262(4) 0.5140(2) 0.4585(10)
H24 H 0.2397 0.5036 0.3521
H25 H 0.1751 0.4980 0.4688
C19 C 0.1486(4) 0.2990(2) 0.6793(11)
H26 H 0.1957 0.2905 0.7660
H27 H 0.1532 0.2812 0.5770
C20 C 0.2195(4) 0.3796(3) 0.6839(9)
C21 C 0.2882(4) 0.4505(2) 0.6607(9)
N1 N 0.4173(3) 0.3678(2) 0.9192(8)
N2 N 0.2911(4) 0.4978(2) 0.5978(8)
N3 N 0.1488(3) 0.3524(2) 0.6475(9)
N4 N 0.3556(4) 0.43432(19) 0.7640(8)
N5 N 0.2837(3) 0.3583(2) 0.7836(8)
N6 N 0.2172(3) 0.4258(2) 0.6183(8)
O2 O 0.2862(3) 0.67590(16) 0.5914(6)
O6 O 0.2557(3) 0.67178(17) 0.3085(6)
O7 O 0.6244(3) 0.26517(18) 0.7780(6)
Gd3 Gd 0.226981(19) 0.755655(10) 0.21200(4)
Gd4 Gd 0.226981(19) 0.744345(10) 0.71200(4)
Gd6 Gd 0.773019(19) 0.244345(10) 0.78800(4)
C2 C 0.9989(4) 0.3567(3) 0.5908(10)
H3 H 0.9515 0.3679 0.5090
H4 H 0.9974 0.3728 0.6979
C5 C 0.9949(4) 0.3000(2) 0.6116(9)
H7 H 0.995(4) 0.284(3) 0.502(9)
C8 C 0.9171(4) 0.2846(2) 0.6688(9)
O5 O 0.9105(3) 0.2880(2) 0.8192(6)
C2_2 C 0.0011(4) 0.8567(3) 0.9092(10)
H3_2 H 0.0485 0.8679 0.9910
H4_2 H 0.0026 0.8728 0.8021
C5_2 C 0.0051(4) 0.8000(2) 0.8884(9)
H7_2 H 0.005(4) 0.784(3) 0.998(9)
C8_2 C 0.0829(4) 0.7846(2) 0.8312(9)
O1 O 0.1429(3) 0.76627(17) 0.9385(6)
O5_2 O 0.0895(3) 0.7880(2) 0.6808(6)
C6_2 C 0.7210(4) 0.1532(2) 0.0435(10)
C13_2 C 0.7041(4) 0.0969(2) 0.0405(9)
H17_2 H 0.684(4) 0.088(2) 0.143(9)
C17_2 C 0.7850(4) 0.0697(3) 0.0426(10)
H22_2 H 0.8243 0.0793 0.1429
C18_2 C 0.7738(4) 0.0140(2) 0.0415(10)
H24_2 H 0.7603 0.0036 0.1479
C10_2 C 0.6417(4) 0.0794(2) 0.8876(10)
H11_2 H 0.5895 0.0957 0.8866
H12_2 H 0.6601 0.0887 0.7850
C12_2 C 0.6307(5) 0.0228(2) 0.8921(11)
H15_2 H 0.5930 0.0121 0.7910
H16_2 H 0.6074 0.0138 0.9892
H23_2 H 0.8068 0.0796 0.9446
O2_2 O 0.7138(3) 0.17590(16) 0.9086(6)
C1_2 C 0.9292(4) 0.7828(3) 0.7639(10)
H1_2 H 0.9299 0.7967 0.6532
H2_2 H 0.9299 0.7467 0.7546
C3_2 C 0.3635(4) 0.7851(2) 0.5808(8)
C4_2 C 0.4365(4) 0.8656(2) 0.5916(10)
H5_2 H 0.3851 0.8830 0.5534
H6_2 H 0.4463 0.8639 0.7140
C7_2 C 0.4298(4) 0.8129(2) 0.5196(9)
H8_2 H 0.415(4) 0.815(2) 0.396(9)
C9_2 C 0.5794(4) 0.8171(2) 0.5102(10)
H9_2 H 0.6319 0.8009 0.5472
H10_2 H 0.5688 0.8190 0.3878
C11_2 C 0.5132(4) 0.7867(2) 0.5655(10)
H13_2 H 0.5271 0.7816 0.6868
H14_2 H 0.5099 0.7543 0.5114
C14_2 C 0.9244(4) 0.8714(3) 0.9673(11)
H19_2 H 0.9214 0.9075 0.9730
C15_2 C 0.5052(4) 0.8944(2) 0.5379(11)
H20_2 H 0.4918 0.8999 0.4168
H21_2 H 0.5105 0.9268 0.5930
C16_2 C 0.6501(4) 0.8875(2) 0.6797(9)
C19_2 C 0.8514(4) 0.7990(2) 0.8207(11)
H26_2 H 0.8043 0.7905 0.7340
H27_2 H 0.8468 0.7812 0.9230
C20_2 C 0.7805(4) 0.8796(3) 0.8161(9)
C21_2 C 0.7118(4) 0.9505(2) 0.8393(9)
N1_2 N 0.5827(3) 0.8678(2) 0.5808(8)
N2_2 N 0.7089(4) 0.9978(2) 0.9022(8)
N3_2 N 0.8512(3) 0.8524(2) 0.8525(9)
N4_2 N 0.6444(4) 0.93432(19) 0.7360(8)
N5_2 N 0.7163(3) 0.8583(2) 0.7164(8)
N6_2 N 0.7828(3) 0.9258(2) 0.8817(8)
O3_2 O 0.2906(3) 0.78430(15) 0.4865(5)
O4_2 O 0.1497(3) 0.83057(17) 0.2624(6)
O7_2 O 0.3756(3) 0.76517(18) 0.7220(6)
O9_2 O 0.1429(3) 0.73373(17) 0.4385(6)
O10_2 O 0.2862(3) 0.82410(16) 0.0914(6)
O12_2 O 0.0895(3) 0.7120(2) 0.1808(6)
O14_2 O 0.3756(3) 0.73483(18) 0.2220(6)
H28_2 H 0.18722 0.859741 0.280779
H29_2 H 0.105337 0.83683 0.162772
O11_2 O 0.2906(3) 0.71570(15) 0.9865(5)
C2_3 C 0.0011(4) 0.6433(3) 0.4092(10)
H3_3 H 0.0485 0.6321 0.4910
H4_3 H 0.0026 0.6272 0.3021
C5_3 C 0.0051(4) 0.7000(2) 0.3884(9)
H7_3 H 0.005(4) 0.716(3) 0.498(9)
C8_3 C 0.0829(4) 0.7154(2) 0.3312(9)
C1_3 C 0.9292(4) 0.7172(3) 0.2639(10)
H1_3 H 0.9299 0.7033 0.1532
H2_3 H 0.9299 0.7533 0.2546
C3_3 C 0.3635(4) 0.7149(2) 0.0808(8)
C4_3 C 0.4365(4) 0.6344(2) 0.0916(10)
H5_3 H 0.3851 0.6170 0.0534
H6_3 H 0.4463 0.6361 0.2140
C6_3 C 0.7210(4) 0.3468(2) 0.5435(10)
C7_3 C 0.4298(4) 0.6871(2) 0.0196(9)
C9_3 C 0.5794(4) 0.6829(2) 0.0102(10)
H9_3 H 0.6319 0.6991 0.0472
C10_3 C 0.6417(4) 0.4206(2) 0.3876(10)
H11_3 H 0.5895 0.4043 0.3866
H12_3 H 0.6601 0.4113 0.2850
C11_3 C 0.5132(4) 0.7133(2) 0.0655(10)
H13_3 H 0.5271 0.7184 0.1868
H14_3 H 0.5099 0.7457 0.0114
C12_3 C 0.6307(5) 0.4772(2) 0.3921(11)
H15_3 H 0.5930 0.4879 0.2910
H16_3 H 0.6074 0.4862 0.4892
C13_3 C 0.7041(4) 0.4031(2) 0.5405(9)
H17_3 H 0.684(4) 0.412(2) 0.643(9)
C14_3 C 0.9244(4) 0.6286(3) 0.4673(11)
H18_2 H 0.9259 0.6418 0.5799
H19_3 H 0.9214 0.5925 0.4730
C15_3 C 0.5052(4) 0.6056(2) 0.0379(11)
H21_3 H 0.5105 0.5732 0.0930
C16_3 C 0.6501(4) 0.6125(2) 0.1797(9)
C17_3 C 0.7850(4) 0.4303(3) 0.5426(10)
H22_3 H 0.8243 0.4207 0.6429
H23_3 H 0.8068 0.4204 0.4446
C18_3 C 0.7738(4) 0.4860(2) 0.5415(10)
H24_3 H 0.7603 0.4964 0.6479
H25_2 H 0.8249 0.5020 0.5312
C19_3 C 0.8514(4) 0.7010(2) 0.3207(11)
H26_3 H 0.8043 0.7095 0.2340
H27_3 H 0.8468 0.7188 0.4230
C20_3 C 0.7805(4) 0.6204(3) 0.3161(9)
C21_3 C 0.7118(4) 0.5495(2) 0.3393(9)
N1_3 N 0.5827(3) 0.6322(2) 0.0808(8)
N2_3 N 0.7089(4) 0.5022(2) 0.4022(8)
N3_3 N 0.8512(3) 0.6476(2) 0.3525(9)
N4_3 N 0.6444(4) 0.56568(19) 0.2360(8)
N5_3 N 0.7163(3) 0.6417(2) 0.2164(8)
N6_3 N 0.7828(3) 0.5742(2) 0.3817(8)
O6_2 O 0.7443(3) 0.32822(17) 0.6915(6)
H8_3 H 0.415(4) 0.685(2) 0.896(9)
H10_3 H 0.5688 0.6810 0.8878
H20_3 H 0.4918 0.6001 0.9168
O4_3 O 0.1497(3) 0.66943(17) 0.7624(6)
O13_2 O 0.2557(3) 0.82822(17) 0.8085(6)
H28_3 H 0.18722 0.640259 0.780779
H29_3 H 0.105337 0.66317 0.662772
C1_4 C 0.0708(4) 0.2172(3) 0.2361(10)
H1_4 H 0.0701 0.2033 0.3468
H2_4 H 0.0701 0.2533 0.2454
C3_4 C 0.6365(4) 0.2149(2) 0.4192(8)
C4_4 C 0.5635(4) 0.1344(2) 0.4084(10)
H5_4 H 0.6149 0.1170 0.4466
H6_4 H 0.5537 0.1361 0.2860
C7_4 C 0.5702(4) 0.1871(2) 0.4804(9)
H8_4 H 0.585(4) 0.185(2) 0.604(9)
C9_4 C 0.4206(4) 0.1829(2) 0.4898(10)
H9_4 H 0.3681 0.1991 0.4528
H10_4 H 0.4312 0.1810 0.6122
C11_4 C 0.4868(4) 0.2133(2) 0.4345(10)
H13_4 H 0.4729 0.2184 0.3132
H14_4 H 0.4901 0.2457 0.4886
C14_4 C 0.0756(4) 0.1286(3) 0.0327(11)
H19_4 H 0.0786 0.0925 0.0270
C15_4 C 0.4948(4) 0.1056(2) 0.4621(11)
H20_4 H 0.5082 0.1001 0.5832
H21_4 H 0.4895 0.0732 0.4070
C16_4 C 0.3499(4) 0.1125(2) 0.3203(9)
C19_4 C 0.1486(4) 0.2010(2) 0.1793(11)
H26_4 H 0.1957 0.2095 0.2660
H27_4 H 0.1532 0.2188 0.0770
C20_4 C 0.2195(4) 0.1204(3) 0.1839(9)
C21_4 C 0.2882(4) 0.0495(2) 0.1607(9)
N1_4 N 0.4173(3) 0.1322(2) 0.4192(8)
N2_4 N 0.2911(4) 0.0022(2) 0.0978(8)
N3_4 N 0.1488(3) 0.1476(2) 0.1475(9)
N4_4 N 0.3556(4) 0.06568(19) 0.2640(8)
N5_4 N 0.2837(3) 0.1417(2) 0.2836(8)
N6_4 N 0.2172(3) 0.0742(2) 0.1183(8)
O4_4 O 0.8503(3) 0.16943(17) 0.7376(6)
H28_4 H 0.81278 0.140259 0.719221
H29_4 H 0.894663 0.16317 0.837228
C10_4 C 0.3583(4) 0.9206(2) 0.1124(10)
H11_4 H 0.4105 0.9043 0.1134
H12_4 H 0.3399 0.9113 0.2150
C12_4 C 0.3693(5) 0.9772(2) 0.1079(11)
H15_4 H 0.4070 0.9879 0.2090
H16_4 H 0.3926 0.9862 0.0108
H23_4 H 0.1932 0.9204 0.0554
C6_4 C 0.2790(4) 0.8468(2) 0.9565(10)
C13_4 C 0.2959(4) 0.9031(2) 0.9595(9)
H17_4 H 0.316(4) 0.912(2) 0.857(9)
C17_4 C 0.2150(4) 0.9303(3) 0.9574(10)
H22_4 H 0.1757 0.9207 0.8571
C18_4 C 0.2262(4) 0.9860(2) 0.9585(10)
H24_4 H 0.2397 0.9964 0.8521
C2_4 C 0.9989(4) 0.1433(3) 0.0908(10)
H3_4 H 0.9515 0.1321 0.0090
H4_4 H 0.9974 0.1272 0.1979
C5_4 C 0.9949(4) 0.2000(2) 0.1116(9)
H7_4 H 0.995(4) 0.216(3) 0.002(9)
C8_4 C 0.9171(4) 0.2154(2) 0.1688(9)
H18_3 H 0.9259 0.8582 0.0799
H25_3 H 0.8249 0.9980 0.0312
H18_4 H 0.0741 0.1418 0.9201
H25_4 H 0.1751 0.0020 0.9688
loop_
_geom_bond_atom_site_label_1
_geom_bond_atom_site_label_2
_geom_bond_site_symmetry_1
_geom_bond_site_symmetry_2
Gd1 O3 1_555 1_555
O4 Gd1 1_555 1_555
O8 Gd1 1_555 1_555
O9 Gd1 1_555 1_555
O10 Gd1 1_555 1_555
O11 Gd1 1_555 1_555
O12 Gd1 1_555 1_555
O13 Gd1 1_555 1_555
O14 Gd1 1_555 1_555
O4 H28 1_555 1_555
O4 H29 1_555 1_555
C1 H1 1_555 1_555
H2 C1 1_555 1_555
C3 C7 1_555 1_555
C4 H5 1_555 1_555
H6 C4 1_555 1_555
C6 C13 1_555 1_555
C7 C4 1_555 1_555
C9 H9 1_555 1_555
C10 H11 1_555 1_555
H12 C10 1_555 1_555
C11 C7 1_555 1_555
H13 C11 1_555 1_555
H14 C11 1_555 1_555
C12 C10 1_555 1_555
H15 C12 1_555 1_555
H16 C12 1_555 1_555
C13 C10 1_555 1_555
H17 C13 1_555 1_555
H18 C14 1_555 1_555
H19 C14 1_555 1_555
C15 C4 1_555 1_555
H21 C15 1_555 1_555
C16 N1 1_555 1_555
C17 C13 1_555 1_555
H22 C17 1_555 1_555
H23 C17 1_555 1_555
C18 C17 1_555 1_555
H24 C18 1_555 1_555
H25 C18 1_555 1_555
C19 C1 1_555 1_555
H26 C19 1_555 1_555
H27 C19 1_555 1_555
C20 N3 1_555 1_555
C21 N2 1_555 1_555
N1 C9 1_555 1_555
N2 C12 1_555 1_555
N3 C14 1_555 1_555
N4 C16 1_555 1_555
N5 C16 1_555 1_555
N6 C20 1_555 1_555
O2 C6 1_555 1_555
O6 C6 1_555 1_555
O7 C3 1_555 1_555
Gd3 O6 1_555 1_555
Gd4 O2 1_555 1_555
C9 C11 1_555 1_555
C15 N1 1_555 1_555
C18 N2 1_555 1_555
C19 N3 1_555 1_555
C20 N5 1_555 1_555
C21 N4 1_555 1_555
C21 N6 1_555 1_555
O7 Gd6 1_555 1_555
C2 H3 1_555 1_555
H4 C2 1_555 1_555
H7 C5 1_555 1_555
C8 C5 1_555 1_555
O8 C8 1_555 1_555
O5 C8 1_555 1_555
Gd6 O8 1_555 1_555
C2 C5 1_555 1_555
O5 Gd6 1_555 1_555
C2_2 H3_2 1_555 1_555
H4_2 C2_2 1_555 1_555
H7_2 C5_2 1_555 1_555
C8_2 C5_2 1_555 1_555
O1 C8_2 1_555 1_555
O5_2 C8_2 1_555 1_555
Gd4 O1 1_555 1_555
C2_2 C5_2 1_555 1_555
O5_2 Gd4 1_555 1_555
C6_2 C13_2 1_555 1_555
H17_2 C13_2 1_555 1_555
C17_2 C13_2 1_555 1_555
H22_2 C17_2 1_555 1_555
C18_2 C17_2 1_555 1_555
H24_2 C18_2 1_555 1_555
O13 C6_2 1_555 1_555
C10_2 H11_2 1_555 1_555
H12_2 C10_2 1_555 1_555
C12_2 C10_2 1_555 1_555
H15_2 C12_2 1_555 1_555
H16_2 C12_2 1_555 1_555
Gd6 O2_2 1_555 1_555
C1_2 H1_2 1_555 1_555
H2_2 C1_2 1_555 1_555
C3_2 C7_2 1_555 1_555
C4_2 H5_2 1_555 1_555
H6_2 C4_2 1_555 1_555
C7_2 C4_2 1_555 1_555
H8_2 C7_2 1_555 1_555
C9_2 H9_2 1_555 1_555
H10_2 C9_2 1_555 1_555
C11_2 C7_2 1_555 1_555
H13_2 C11_2 1_555 1_555
H14_2 C11_2 1_555 1_555
H19_2 C14_2 1_555 1_555
C15_2 C4_2 1_555 1_555
H20_2 C15_2 1_555 1_555
H21_2 C15_2 1_555 1_555
C16_2 N1_2 1_555 1_555
C19_2 C1_2 1_555 1_555
H26_2 C19_2 1_555 1_555
H27_2 C19_2 1_555 1_555
C20_2 N3_2 1_555 1_555
C21_2 N2_2 1_555 1_555
Gd3 O3_2 1_555 1_555
N1_2 C9_2 1_555 1_555
N3_2 C14_2 1_555 1_555
N4_2 C16_2 1_555 1_555
N5_2 C16_2 1_555 1_555
N6_2 C20_2 1_555 1_555
O3_2 C3_2 1_555 1_555
O4_2 Gd3 1_555 1_555
O7_2 C3_2 1_555 1_555
Gd4 O3_2 1_555 1_555
O9_2 Gd3 1_555 1_555
O10_2 Gd3 1_555 1_555
O12_2 Gd3 1_555 1_555
O14_2 Gd3 1_555 1_555
C9_2 C11_2 1_555 1_555
C15_2 N1_2 1_555 1_555
C19_2 N3_2 1_555 1_555
C20_2 N5_2 1_555 1_555
C21_2 N4_2 1_555 1_555
C21_2 N6_2 1_555 1_555
O7_2 Gd4 1_555 1_555
Gd4 O9_2 1_555 1_555
O4_2 H28_2 1_555 1_555
O4_2 H29_2 1_555 1_555
C2_3 H3_3 1_555 1_555
H4_3 C2_3 1_555 1_555
H7_3 C5_3 1_555 1_555
C8_3 C5_3 1_555 1_555
O9_2 C8_3 1_555 1_555
O12_2 C8_3 1_555 1_555
C2_3 C5_3 1_555 1_555
C1_3 H1_3 1_555 1_555
H2_3 C1_3 1_555 1_555
C3_3 C7_3 1_555 1_555
C4_3 H5_3 1_555 1_555
H6_3 C4_3 1_555 1_555
C6_3 C13_3 1_555 1_555
C7_3 C4_3 1_555 1_555
C9_3 H9_3 1_555 1_555
C10_3 H11_3 1_555 1_555
H12_3 C10_3 1_555 1_555
C11_3 C7_3 1_555 1_555
H13_3 C11_3 1_555 1_555
H14_3 C11_3 1_555 1_555
C12_3 C10_3 1_555 1_555
H15_3 C12_3 1_555 1_555
H16_3 C12_3 1_555 1_555
C13_3 C10_3 1_555 1_555
H17_3 C13_3 1_555 1_555
H18_2 C14_3 1_555 1_555
H19_3 C14_3 1_555 1_555
C15_3 C4_3 1_555 1_555
H21_3 C15_3 1_555 1_555
C16_3 N1_3 1_555 1_555
C17_3 C13_3 1_555 1_555
H22_3 C17_3 1_555 1_555
H23_3 C17_3 1_555 1_555
C18_3 C17_3 1_555 1_555
H24_3 C18_3 1_555 1_555
H25_2 C18_3 1_555 1_555
C19_3 C1_3 1_555 1_555
H26_3 C19_3 1_555 1_555
H27_3 C19_3 1_555 1_555
C20_3 N3_3 1_555 1_555
C21_3 N2_3 1_555 1_555
N1_3 C9_3 1_555 1_555
N2_3 C12_3 1_555 1_555
N3_3 C14_3 1_555 1_555
N4_3 C16_3 1_555 1_555
N5_3 C16_3 1_555 1_555
N6_3 C20_3 1_555 1_555
O10 C6_3 1_555 1_555
O6_2 C6_3 1_555 1_555
O14_2 C3_3 1_555 1_555
Gd6 O6_2 1_555 1_555
C9_3 C11_3 1_555 1_555
C15_3 N1_3 1_555 1_555
C18_3 N2_3 1_555 1_555
C19_3 N3_3 1_555 1_555
C20_3 N5_3 1_555 1_555
C21_3 N4_3 1_555 1_555
C21_3 N6_3 1_555 1_555
Gd4 O11_2 1_555 1_555
O4_3 Gd4 1_555 1_555
O13_2 Gd4 1_555 1_555
O4_3 H28_3 1_555 1_555
O4_3 H29_3 1_555 1_555
C1_4 H1_4 1_555 1_555
H2_4 C1_4 1_555 1_555
C3_4 C7_4 1_555 1_555
C4_4 H5_4 1_555 1_555
H6_4 C4_4 1_555 1_555
C7_4 C4_4 1_555 1_555
H8_4 C7_4 1_555 1_555
C9_4 H9_4 1_555 1_555
H10_4 C9_4 1_555 1_555
C11_4 C7_4 1_555 1_555
H13_4 C11_4 1_555 1_555
H14_4 C11_4 1_555 1_555
H19_4 C14_4 1_555 1_555
C15_4 C4_4 1_555 1_555
H20_4 C15_4 1_555 1_555
H21_4 C15_4 1_555 1_555
C16_4 N1_4 1_555 1_555
C19_4 C1_4 1_555 1_555
H26_4 C19_4 1_555 1_555
H27_4 C19_4 1_555 1_555
C20_4 N3_4 1_555 1_555
C21_4 N2_4 1_555 1_555
Gd6 O11 1_555 1_555
N1_4 C9_4 1_555 1_555
N3_4 C14_4 1_555 1_555
N4_4 C16_4 1_555 1_555
N5_4 C16_4 1_555 1_555
N6_4 C20_4 1_555 1_555
O11 C3_4 1_555 1_555
O4_4 Gd6 1_555 1_555
O14 C3_4 1_555 1_555
C9_4 C11_4 1_555 1_555
C15_4 N1_4 1_555 1_555
C19_4 N3_4 1_555 1_555
C20_4 N5_4 1_555 1_555
C21_4 N4_4 1_555 1_555
C21_4 N6_4 1_555 1_555
O4_4 H28_4 1_555 1_555
O4_4 H29_4 1_555 1_555
C10_4 H11_4 1_555 1_555
H12_4 C10_4 1_555 1_555
C12_4 C10_4 1_555 1_555
H15_4 C12_4 1_555 1_555
H16_4 C12_4 1_555 1_555
C6_4 C13_4 1_555 1_555
H17_4 C13_4 1_555 1_555
C17_4 C13_4 1_555 1_555
H22_4 C17_4 1_555 1_555
C18_4 C17_4 1_555 1_555
H24_4 C18_4 1_555 1_555
O13_2 C6_4 1_555 1_555
C2_4 H3_4 1_555 1_555
H4_4 C2_4 1_555 1_555
H7_4 C5_4 1_555 1_555
C8_4 C5_4 1_555 1_555
O9 C8_4 1_555 1_555
O12 C8_4 1_555 1_555
C2_4 C5_4 1_555 1_555

#END
