
###############################################################################
#
# This file contains modified crystal structure data generated from the
# MOF subset of the Cambridge Structural Database (CSD) v543 
# hosted by the Cambridge Crystallographic Data Centre (CCDC).
#
# This work is licensed under the Creative Commons
# Attribution-NonCommercial-ShareAlike 4.0 International License.
# To view a copy of this license, visit
# http://creativecommons.org/licenses/by-nc-sa/4.0/
# or send a letter to
# Creative Commons, PO Box 1866, Mountain View, CA 94042, USA.
#
# CIF created using the CSD Python API on 29 September 2022
# The structure has been converted into the P1 space group
# The structure has a 3D framework
# The original CSD entry AFADAN is in the rhombohedral crystal system
# The framework has been calculated to contain at least 10.0% void space
# The void calculation uses a probe of radius 1.32A, grid spacing 0.4
# The framework is charged, counterions have been retained in the structure
#
###############################################################################

data_AFADAN
_chemical_formula_moiety         '(C54 H72 Fe7 N54 14+)n'
_symmetry_cell_setting           triclinic
_symmetry_space_group_name_H-M   'P 1'
_symmetry_Int_Tables_number      1
_space_group_name_Hall           'P 1'
loop_
_symmetry_equiv_pos_site_id
_symmetry_equiv_pos_as_xyz
1 x,y,z
_cell_length_a                   18.7916(14)
_cell_length_b                   18.7916(14)
_cell_length_c                   7.966(2)
_cell_angle_alpha                90
_cell_angle_beta                 90
_cell_angle_gamma                120.0
_cell_volume                     2436.12
loop_
_atom_site_label
_atom_site_type_symbol
_atom_site_fract_x
_atom_site_fract_y
_atom_site_fract_z
Fe1 Fe 0.00000 0.00000 0.00000
N1 N 0.11170(12) 0.22141(11) 0.2933(3)
N2 N 0.14555(15) 0.18372(13) 0.3794(3)
N3 N 0.07295(9) 0.10760(9) 0.1592(2)
C1 C 0.11987(15) 0.11514(14) 0.2944(3)
C2 C 0.06973(14) 0.17602(12) 0.1629(3)
C3 C 0.1231(2) 0.30086(14) 0.3486(4)
H1 H 0.1327 0.0756 0.3243
H2 H 0.0423 0.1902 0.086
H3 H 0.1106 0.2986 0.465
H4 H 0.0870 0.3134 0.288
Fe2 Fe 0.33333 0.66667 0.66667
N4 N 0.22163(12) 0.44526(11) 0.3734(3)
N9 N 0.18778(15) 0.48295(13) 0.2873(3)
N14 N 0.26038(9) 0.55907(9) 0.5075(2)
C4 C 0.21346(15) 0.55153(14) 0.3723(3)
C9 C 0.26360(14) 0.49065(12) 0.5038(3)
C14 C 0.2102(2) 0.36581(14) 0.3181(4)
H5 H 0.2006 0.5911 0.3424
H10 H 0.2910 0.4765 0.580667
H15 H 0.2227 0.3681 0.201667
H20 H 0.2463 0.3533 0.378667
Fe1_2 Fe 0.00000 1.00000 0.00000
N7 N 0.10971(16) 0.88830(12) 0.2933(3)
N8 N 0.22362(16) 0.77837(12) 0.3734(3)
N12 N 0.03817(20) 0.85445(15) 0.3794(3)
N13 N 0.29516(20) 0.81222(15) 0.2873(3)
N17 N 0.03465(13) 0.92705(9) 0.1592(2)
N18 N 0.29868(13) 0.73962(9) 0.5075(2)
C8 C 0.33806(21) 0.78654(15) 0.3723(3)
C12 C 0.10629(18) 0.93027(14) 0.1629(3)
C13 C 0.22704(18) 0.73640(14) 0.5038(3)
C17 C 0.17776(24) 0.8769(2) 0.3486(4)
C18 C 0.15557(24) 0.7898(2) 0.3181(4)
H9 H 0.3904 0.7994 0.3424
H13 H 0.1479 0.9577 0.086
H14 H 0.1854 0.7090 0.580667
H18 H 0.1880 0.8894 0.465
H19 H 0.1453 0.7773 0.201667
H23 H 0.2264 0.9130 0.288
H24 H 0.1069 0.7537 0.378667
Fe1_3 Fe 1.00000 0.00000 0.00000
C5 C 0.88486(14) 0.00473(21) 0.2944(3)
H6 H 0.9244 0.0571 0.3243
Fe1_4 Fe 1.00000 1.00000 0.00000
N5 N 0.77859(11) 0.89029(16) 0.2933(3)
N6 N 0.55474(11) 0.77638(16) 0.3734(3)
N10 N 0.81628(13) 0.96183(20) 0.3794(3)
N11 N 0.51705(13) 0.70484(20) 0.2873(3)
N15 N 0.89240(9) 0.96535(13) 0.1592(2)
N16 N 0.44093(9) 0.70132(13) 0.5075(2)
C6 C 0.44847(14) 0.66194(21) 0.3723(3)
C7 C 0.99527(21) 0.88013(15) 0.2944(3)
C10 C 0.82398(12) 0.89371(18) 0.1629(3)
C11 C 0.50935(12) 0.77296(18) 0.5038(3)
C15 C 0.69914(14) 0.82224(24) 0.3486(4)
C16 C 0.63419(14) 0.84443(24) 0.3181(4)
H7 H 0.4089 0.6096 0.3424
H8 H 0.9429 0.8673 0.3243
H11 H 0.8098 0.8521 0.086
H12 H 0.5235 0.8146 0.580667
H16 H 0.7014 0.8120 0.465
H17 H 0.6319 0.8547 0.201667
H21 H 0.6866 0.7736 0.288
H22 H 0.6467 0.8931 0.378667
N9_2 N 0.52112(15) 0.14961(13) 0.9539(3)
C14_2 C 0.5436(2) 0.03247(14) 0.9847(4)
H15_2 H 0.5561 0.0347 0.868333
N1_2 N 0.44503(12) 0.88808(11) 0.9600(3)
N3_2 N 0.40628(9) 0.77427(9) 0.8259(2)
C1_2 C 0.45320(15) 0.78181(14) 0.9611(3)
C2_2 C 0.40306(14) 0.84269(12) 0.8296(3)
H1_2 H 0.4660 0.7423 0.9910
H2_2 H 0.3756 0.8569 0.752667
H4_2 H 0.4203 0.9801 0.954667
N5_2 N 0.11192(11) 0.55696(16) 0.9600(3)
N7_2 N 0.44304(16) 0.55497(12) 0.9600(3)
N13_2 N 0.62850(20) 0.47888(15) 0.9539(3)
N15_2 N 0.22573(9) 0.63202(13) 0.8259(2)
N17_2 N 0.36798(13) 0.59372(9) 0.8259(2)
C5_2 C 0.21819(14) 0.67140(21) 0.9611(3)
C7_2 C 0.32860(21) 0.54680(15) 0.9611(3)
C10_2 C 0.15731(12) 0.56038(18) 0.8296(3)
C12_2 C 0.43962(18) 0.59694(14) 0.8296(3)
C18_2 C 0.48891(24) 0.4564(2) 0.9847(4)
H6_2 H 0.2577 0.7238 0.9910
H8_2 H 0.2762 0.5340 0.9910
H11_2 H 0.1431 0.5188 0.752667
H13_2 H 0.4812 0.6244 0.752667
H19_2 H 0.4787 0.4439 0.868333
H21_2 H 0.0199 0.4403 0.954667
H23_2 H 0.5597 0.5797 0.954667
N11_2 N 0.85039(13) 0.37150(20) 0.9539(3)
C16_2 C 0.96753(14) 0.51109(24) 0.9847(4)
H17_2 H 0.9653 0.5213 0.868333
Fe1_5 Fe 0.00000 0.00000 1.00000
N20 N 0.10760(9) 0.03465(13) 0.8408(2)
Fe1_6 Fe -0.00000 1.00000 1.00000
Fe1_7 Fe 1.00000 0.00000 1.00000
N21 N 0.96535(13) 0.07295(9) 0.8408(2)
Fe1_8 Fe 1.00000 1.00000 1.00000
N19 N 0.92705(9) 0.89240(9) 0.8408(2)
Fe2_2 Fe 0.66667 0.33333 0.33333
N4_2 N 0.55497(12) 0.11192(11) 0.0400(3)
N14_2 N 0.59372(9) 0.22573(9) 0.1741(2)
C4_2 C 0.54680(15) 0.21819(14) 0.0389(3)
C9_2 C 0.59694(14) 0.15731(12) 0.1704(3)
H5_2 H 0.5340 0.2577 0.0090
H10_2 H 0.6244 0.1431 0.247333
H20_2 H 0.5797 0.0199 0.045333
N2_2 N 0.47888(15) 0.85039(13) 0.0461(3)
C3_2 C 0.4564(2) 0.96753(14) 0.0153(4)
H3_2 H 0.4439 0.9653 0.131667
N8_2 N 0.55696(16) 0.44503(12) 0.0400(3)
N10_2 N 0.14961(13) 0.62850(20) 0.0461(3)
N12_2 N 0.37150(20) 0.52112(15) 0.0461(3)
N18_2 N 0.63202(13) 0.40628(9) 0.1741(2)
C8_2 C 0.67140(21) 0.45320(15) 0.0389(3)
C13_2 C 0.56038(18) 0.40306(14) 0.1704(3)
C15_2 C 0.03247(14) 0.48891(24) 0.0153(4)
C17_2 C 0.51109(24) 0.5436(2) 0.0153(4)
H9_2 H 0.7238 0.4660 0.0090
H14_2 H 0.5188 0.3756 0.247333
H16_2 H 0.0347 0.4787 0.131667
H18_2 H 0.5213 0.5561 0.131667
H24_2 H 0.4403 0.4203 0.045333
N6_2 N 0.88808(11) 0.44304(16) 0.0400(3)
N16_2 N 0.77427(9) 0.36798(13) 0.1741(2)
C6_2 C 0.78181(14) 0.32860(21) 0.0389(3)
C11_2 C 0.84269(12) 0.43962(18) 0.1704(3)
H7_2 H 0.7423 0.2762 0.0090
H12_2 H 0.8569 0.4812 0.247333
H22_2 H 0.9801 0.5597 0.045333
C8_3 C 0.00473(21) 0.11987(15) 0.7056(3)
H9_3 H 0.0571 0.1327 0.6757
N1_3 N 0.77837(12) 0.55474(11) 0.6266(3)
N2_3 N 0.81222(15) 0.51705(13) 0.7127(3)
N3_3 N 0.73962(9) 0.44093(9) 0.4925(2)
C1_3 C 0.78654(15) 0.44847(14) 0.6277(3)
C2_3 C 0.73640(14) 0.50935(12) 0.4962(3)
C3_3 C 0.7898(2) 0.63419(14) 0.6819(4)
H1_3 H 0.7994 0.4089 0.6576
H2_3 H 0.7090 0.5235 0.419333
H3_3 H 0.7773 0.6319 0.798333
H4_3 H 0.7537 0.6467 0.621333
N4_3 N 0.88830(12) 0.77859(11) 0.7067(3)
N5_3 N 0.44526(11) 0.22362(16) 0.6266(3)
N6_3 N 0.22141(11) 0.10971(16) 0.7067(3)
N7_3 N 0.77638(16) 0.22163(12) 0.6266(3)
N8_3 N 0.89029(16) 0.11170(12) 0.7067(3)
N9_3 N 0.85445(15) 0.81628(13) 0.6206(3)
N10_3 N 0.48295(13) 0.29516(20) 0.7127(3)
N11_3 N 0.18372(13) 0.03817(20) 0.6206(3)
N12_3 N 0.70484(20) 0.18778(15) 0.7127(3)
N13_3 N 0.96183(20) 0.14555(15) 0.6206(3)
N15_3 N 0.55907(9) 0.29868(13) 0.4925(2)
N17_3 N 0.70132(13) 0.26038(9) 0.4925(2)
C4_3 C 0.88013(15) 0.88486(14) 0.7056(3)
C5_3 C 0.55153(14) 0.33806(21) 0.6277(3)
C7_3 C 0.66194(21) 0.21346(15) 0.6277(3)
C9_3 C 0.93027(14) 0.82398(12) 0.8371(3)
C10_3 C 0.49065(12) 0.22704(18) 0.4962(3)
C11_3 C 0.17602(12) 0.10629(18) 0.8371(3)
C12_3 C 0.77296(18) 0.26360(14) 0.4962(3)
C13_3 C 0.89371(18) 0.06973(14) 0.8371(3)
C14_3 C 0.8769(2) 0.69914(14) 0.6514(4)
C15_3 C 0.36581(14) 0.15557(24) 0.6819(4)
C16_3 C 0.30086(14) 0.17776(24) 0.6514(4)
C17_3 C 0.84443(24) 0.2102(2) 0.6819(4)
C18_3 C 0.82224(24) 0.1231(2) 0.6514(4)
H5_3 H 0.8673 0.9244 0.6757
H6_3 H 0.5911 0.3904 0.6576
H8_3 H 0.6096 0.2006 0.6576
H10_3 H 0.9577 0.8098 0.914000
H11_3 H 0.4765 0.1854 0.419333
H12_3 H 0.1902 0.1479 0.914000
H13_3 H 0.8146 0.2910 0.419333
H14_3 H 0.8521 0.0423 0.914000
H15_3 H 0.8894 0.7014 0.535000
H16_3 H 0.3681 0.1453 0.798333
H17_3 H 0.2986 0.1880 0.535000
H18_3 H 0.8547 0.2227 0.798333
H19_3 H 0.8120 0.1106 0.535000
H20_3 H 0.9130 0.6866 0.712000
H21_3 H 0.3533 0.1069 0.621333
H22_3 H 0.3134 0.2264 0.712000
H23_3 H 0.8931 0.2463 0.621333
H24_3 H 0.7736 0.0870 0.712000
C6_3 C 0.11514(14) 0.99527(21) 0.7056(3)
H7_3 H 0.0756 0.9429 0.6757
loop_
_geom_bond_atom_site_label_1
_geom_bond_atom_site_label_2
_geom_bond_site_symmetry_1
_geom_bond_site_symmetry_2
Fe1 N3 1_555 1_555
N1 N2 1_555 1_555
N2 C1 1_555 1_555
N3 C1 1_555 1_555
C1 H1 1_555 1_555
C2 N1 1_555 1_555
C3 N1 1_555 1_555
H2 C2 1_555 1_555
H3 C3 1_555 1_555
H4 C3 1_555 1_555
Fe2 N14 1_555 1_555
N4 N9 1_555 1_555
N9 C4 1_555 1_555
N14 C4 1_555 1_555
C4 H5 1_555 1_555
C9 N4 1_555 1_555
C14 C3 1_555 1_555
H10 C9 1_555 1_555
H15 C14 1_555 1_555
H20 C14 1_555 1_555
N3 C2 1_555 1_555
N4 C14 1_555 1_555
N14 C9 1_555 1_555
Fe2 N18 1_555 1_555
N7 N12 1_555 1_555
N8 N13 1_555 1_555
N13 C8 1_555 1_555
N17 Fe1_2 1_555 1_555
N18 C8 1_555 1_555
C8 H9 1_555 1_555
C12 N7 1_555 1_555
C13 N8 1_555 1_555
C17 N7 1_555 1_555
C18 N8 1_555 1_555
H13 C12 1_555 1_555
H14 C13 1_555 1_555
H18 C17 1_555 1_555
H19 C18 1_555 1_555
H23 C17 1_555 1_555
H24 C18 1_555 1_555
N17 C12 1_555 1_555
N18 C13 1_555 1_555
C17 C18 1_555 1_555
H6 C5 1_555 1_555
Fe2 N16 1_555 1_555
N5 N10 1_555 1_555
N6 N11 1_555 1_555
N11 C6 1_555 1_555
N15 Fe1_4 1_555 1_555
N16 C6 1_555 1_555
C6 H7 1_555 1_555
C10 N5 1_555 1_555
C11 N6 1_555 1_555
C15 N5 1_555 1_555
C16 N6 1_555 1_555
H8 C7 1_555 1_555
H11 C10 1_555 1_555
H12 C11 1_555 1_555
H16 C15 1_555 1_555
H17 C16 1_555 1_555
H21 C15 1_555 1_555
H22 C16 1_555 1_555
N15 C10 1_555 1_555
N16 C11 1_555 1_555
C15 C16 1_555 1_555
H15_2 C14_2 1_555 1_555
Fe2 N3_2 1_555 1_555
N3_2 C1_2 1_555 1_555
C1_2 H1_2 1_555 1_555
C2_2 N1_2 1_555 1_555
H2_2 C2_2 1_555 1_555
N15_2 Fe2 1_555 1_555
N17_2 Fe2 1_555 1_555
C5_2 N15_2 1_555 1_555
C7_2 N17_2 1_555 1_555
C10_2 N5_2 1_555 1_555
C12_2 N7_2 1_555 1_555
H6_2 C5_2 1_555 1_555
H8_2 C7_2 1_555 1_555
H11_2 C10_2 1_555 1_555
H13_2 C12_2 1_555 1_555
H19_2 C18_2 1_555 1_555
N3_2 C2_2 1_555 1_555
N15_2 C10_2 1_555 1_555
N17_2 C12_2 1_555 1_555
H17_2 C16_2 1_555 1_555
N20 Fe1_5 1_555 1_555
N21 Fe1_7 1_555 1_555
N19 Fe1_8 1_555 1_555
Fe2_2 N14_2 1_555 1_555
N14_2 C4_2 1_555 1_555
C4_2 H5_2 1_555 1_555
C9_2 N4_2 1_555 1_555
H10_2 C9_2 1_555 1_555
N14_2 C9_2 1_555 1_555
H3_2 C3_2 1_555 1_555
Fe2_2 N18_2 1_555 1_555
N18_2 C8_2 1_555 1_555
C8_2 H9_2 1_555 1_555
C13_2 N8_2 1_555 1_555
H14_2 C13_2 1_555 1_555
H16_2 C15_2 1_555 1_555
H18_2 C17_2 1_555 1_555
N18_2 C13_2 1_555 1_555
Fe2_2 N16_2 1_555 1_555
N16_2 C6_2 1_555 1_555
C6_2 H7_2 1_555 1_555
C11_2 N6_2 1_555 1_555
H12_2 C11_2 1_555 1_555
N16_2 C11_2 1_555 1_555
C8_3 H9_3 1_555 1_555
Fe2_2 N3_3 1_555 1_555
N1_3 N2_3 1_555 1_555
N2_3 C1_3 1_555 1_555
N3_3 C1_3 1_555 1_555
C1_3 H1_3 1_555 1_555
C2_3 N1_3 1_555 1_555
C3_3 N1_3 1_555 1_555
H2_3 C2_3 1_555 1_555
H3_3 C3_3 1_555 1_555
H4_3 C3_3 1_555 1_555
N4_3 N9_3 1_555 1_555
N5_3 N10_3 1_555 1_555
N6_3 N11_3 1_555 1_555
N7_3 N12_3 1_555 1_555
N8_3 N13_3 1_555 1_555
N9_3 C4_3 1_555 1_555
N10_3 C5_3 1_555 1_555
N12_3 C7_3 1_555 1_555
N19 C4_3 1_555 1_555
N15_3 Fe2_2 1_555 1_555
N17_3 Fe2_2 1_555 1_555
C4_3 H5_3 1_555 1_555
C5_3 N15_3 1_555 1_555
C7_3 N17_3 1_555 1_555
C9_3 N4_3 1_555 1_555
C10_3 N5_3 1_555 1_555
C11_3 N6_3 1_555 1_555
C12_3 N7_3 1_555 1_555
C13_3 N8_3 1_555 1_555
C14_3 C3_3 1_555 1_555
C15_3 N5_3 1_555 1_555
C16_3 N6_3 1_555 1_555
C17_3 N7_3 1_555 1_555
C18_3 N8_3 1_555 1_555
H6_3 C5_3 1_555 1_555
H8_3 C7_3 1_555 1_555
H10_3 C9_3 1_555 1_555
H11_3 C10_3 1_555 1_555
H12_3 C11_3 1_555 1_555
H13_3 C12_3 1_555 1_555
H14_3 C13_3 1_555 1_555
H15_3 C14_3 1_555 1_555
H16_3 C15_3 1_555 1_555
H17_3 C16_3 1_555 1_555
H18_3 C17_3 1_555 1_555
H19_3 C18_3 1_555 1_555
H20_3 C14_3 1_555 1_555
H21_3 C15_3 1_555 1_555
H22_3 C16_3 1_555 1_555
H23_3 C17_3 1_555 1_555
H24_3 C18_3 1_555 1_555
N3_3 C2_3 1_555 1_555
N4_3 C14_3 1_555 1_555
N19 C9_3 1_555 1_555
N15_3 C10_3 1_555 1_555
N20 C11_3 1_555 1_555
N17_3 C12_3 1_555 1_555
N21 C13_3 1_555 1_555
C15_3 C16_3 1_555 1_555
C17_3 C18_3 1_555 1_555
C6_3 H7_3 1_555 1_555

#END
