
###############################################################################
#
# This file contains modified crystal structure data generated from the
# MOF subset of the Cambridge Structural Database (CSD) v543 
# hosted by the Cambridge Crystallographic Data Centre (CCDC).
#
# This work is licensed under the Creative Commons
# Attribution-NonCommercial-ShareAlike 4.0 International License.
# To view a copy of this license, visit
# http://creativecommons.org/licenses/by-nc-sa/4.0/
# or send a letter to
# Creative Commons, PO Box 1866, Mountain View, CA 94042, USA.
#
# CIF created using the CSD Python API on 29 September 2022
# The structure has been converted into the P1 space group
# The structure has a 3D framework
# The original CSD entry AFECIY01 is in the monoclinic crystal system
# The framework has been calculated to contain at least 10.0% void space
# The void calculation uses a probe of radius 1.32A, grid spacing 0.4
#
###############################################################################

data_AFECIY01
_chemical_formula_moiety         '(C104 H64 N8 O40 Zn8)n'
_symmetry_cell_setting           triclinic
_symmetry_space_group_name_H-M   'P 1'
_symmetry_Int_Tables_number      1
_space_group_name_Hall           'P 1'
loop_
_symmetry_equiv_pos_site_id
_symmetry_equiv_pos_as_xyz
1 x,y,z
_cell_length_a                   10.9129(11)
_cell_length_b                   15.0557(15)
_cell_length_c                   16.4468(17)
_cell_angle_alpha                90
_cell_angle_beta                 91.800(2)
_cell_angle_gamma                90
_cell_volume                     2700.9
loop_
_atom_site_label
_atom_site_type_symbol
_atom_site_fract_x
_atom_site_fract_y
_atom_site_fract_z
O26 O 0.0037(2) 0.25213(15) 0.18049(17)
C40 C 0.0461(3) 0.0448(2) 0.11126(19)
H24 H 0.0516 0.0680 0.0591
O4 O 0.02744(19) 0.37597(15) 0.04004(12)
C17 C 0.0763(3) 0.4708(2) 0.2136(2)
H9 H 0.1327 0.4315 0.1923
C18 C 0.1169(3) 0.5396(2) 0.2599(2)
H10 H 0.2007 0.5471 0.2696
C19 C 0.0343(3) 0.60032(18) 0.29365(17)
C22 C 0.0732(3) 0.67290(18) 0.34800(17)
C23 C 0.1948(3) 0.6847(2) 0.3654(2)
H13 H 0.2529 0.6483 0.3420
C24 C 0.2294(3) 0.7500(2) 0.4170(2)
H14 H 0.3128 0.7574 0.4285
C25 C 0.0336(3) 0.7970(2) 0.4344(2)
Zn4 Zn 0.21397(3) 0.89796(2) 0.532280(19)
O13 O 0.26504(19) 0.50113(12) 0.04049(12)
O16 O 0.1386(2) 0.85158(13) 0.22908(13)
C27 C 0.2261(2) 0.56987(18) 0.00786(17)
C28 C 0.1929(3) 0.64546(17) 0.06427(16)
C29 C 0.2874(3) 0.6767(2) 0.11099(19)
H19 H 0.3646 0.6511 0.1076
C30 C 0.2695(3) 0.7471(2) 0.16415(19)
H20 H 0.3356 0.7693 0.1949
C31 C 0.1553(3) 0.78450(19) 0.17192(18)
C32 C 0.0579(3) 0.75118(19) 0.12968(17)
C33 C 0.0764(2) 0.68207(17) 0.07424(16)
C37 C 0.0284(3) 0.97914(18) 0.26668(18)
H22 H 0.0236 0.9552 0.3186
C38 C 0.0856(3) 0.93046(18) 0.20556(18)
C39 C 0.0933(3) 0.9620(2) 0.12715(19)
H23 H 0.1289 0.9285 0.0867
N5 N 0.3495(2) 0.30552(15) 0.04668(14)
N6 N 0.1505(2) 0.80552(15) 0.45332(14)
H5 H 0.0203 0.2263 0.8628
Zn3 Zn 0.28603(3) 0.39796(2) 0.967720(19)
Zn7 Zn 0.10345(3) 0.64863(2) 0.867760(19)
O11 O 0.2218(2) 0.57892(14) 0.93251(12)
O12 O 0.2481(2) 0.68170(16) 0.77910(15)
H17 H 0.259(4) 0.652(2) 0.7385(17)
H18 H 0.240(4) 0.7330(15) 0.762(2)
O15 O 0.13259(18) 0.35269(14) 0.92600(12)
O17 O 0.41658(19) 0.42153(14) 0.88800(12)
O21 O 0.1358(3) 0.80235(19) 0.89751(17)
C34 C 0.0345(3) 0.35219(17) 0.96796(17)
N3 N 0.0413(2) 0.54156(15) 0.80202(14)
O7 O 0.08342(19) 0.92153(14) 0.61200(12)
O8 O 0.1644(2) 0.83118(15) 0.70139(14)
C9 C 0.0940(3) 0.89134(18) 0.68362(17)
C10 C 0.0207(3) 0.93800(18) 0.74946(17)
C15 C 0.0104(3) 0.90413(18) 0.82861(19)
C16 C 0.0526(3) 0.8126(2) 0.8500(2)
Zn6 Zn 0.78603(3) 0.10204(2) 0.467720(19)
Zn10 Zn 0.89655(3) 0.35137(2) 0.132240(19)
O19 O 0.91658(19) 0.07847(14) 0.38800(12)
O20 O 0.8356(2) 0.16882(15) 0.29861(14)
O23 O 0.8642(3) 0.19765(19) 0.10249(17)
C35 C 0.9060(3) 0.10866(18) 0.31638(17)
C36 C 0.9793(3) 0.06200(18) 0.25054(17)
C41 C 0.9896(3) 0.09587(18) 0.17139(19)
C42 C 0.9474(3) 0.1874(2) 0.1500(2)
Zn9 Zn 0.39655(3) 0.14863(2) 0.632240(19)
C43 C 0.5763(3) 0.0292(2) 0.7136(2)
H25 H 0.6327 0.0685 0.6923
N4 N 0.4587(2) 0.04156(15) 0.69798(14)
Zn1 Zn 0.71397(3) 0.60204(2) 0.032280(19)
O1 O 0.7782(2) 0.42108(14) 0.06749(12)
O2 O 0.7519(2) 0.31830(16) 0.22090(15)
H1 H 0.741(4) 0.348(2) 0.2615(17)
H2 H 0.760(4) 0.2670(15) 0.238(2)
O5 O 0.86741(18) 0.64731(14) 0.07400(12)
C8 C 0.9655(3) 0.64781(17) 0.03204(17)
C20 C 0.9128(3) 0.5888(2) 0.2747(2)
H11 H 0.8543 0.6280 0.2936
C21 C 0.8799(3) 0.5183(2) 0.2275(2)
H12 H 0.7970 0.5108 0.2145
H15 H 0.9778 0.8361 0.4567
C26 C 0.9922(3) 0.7327(2) 0.3834(2)
H16 H 0.9086 0.7281 0.3715
N1 N 0.9587(2) 0.45844(15) 0.19798(14)
O18 O 0.58342(19) 0.57847(14) 0.11200(12)
H21 H 0.9797 0.7737 0.1372
O3 O 0.73496(19) 0.49887(12) 0.95951(12)
O6 O 0.8614(2) 0.14842(13) 0.77092(13)
C1 C 0.7739(2) 0.43013(18) 0.99214(17)
C2 C 0.8071(3) 0.35454(17) 0.93573(16)
C3 C 0.7126(3) 0.3233(2) 0.88901(19)
H3 H 0.6354 0.3489 0.8924
C4 C 0.7305(3) 0.2529(2) 0.83585(19)
H4 H 0.6644 0.2307 0.8051
C5 C 0.8447(3) 0.21550(19) 0.82808(18)
C6 C 0.9421(3) 0.24882(19) 0.87032(17)
C7 C 0.9236(2) 0.31793(17) 0.92576(16)
C11 C 0.9716(3) 0.02086(18) 0.73332(18)
H6 H 0.9764 0.0448 0.6814
C12 C 0.9144(3) 0.06954(18) 0.79444(18)
C13 C 0.9067(3) 0.0380(2) 0.87285(19)
H7 H 0.8711 0.0715 0.9133
N2 N 0.6505(2) 0.69448(15) 0.95332(14)
O14 O 0.97256(19) 0.62403(15) 0.95996(12)
O24 O 0.9963(2) 0.74787(15) 0.81951(17)
C44 C 0.6169(3) 0.9604(2) 0.7599(2)
H26 H 0.7007 0.9529 0.7696
C45 C 0.5343(3) 0.89968(18) 0.79365(17)
C46 C 0.4128(3) 0.9112(2) 0.7747(2)
H27 H 0.3543 0.8720 0.7936
C47 C 0.3799(3) 0.9817(2) 0.7275(2)
H28 H 0.2970 0.9892 0.7145
C48 C 0.5732(3) 0.82710(18) 0.84800(17)
C49 C 0.6948(3) 0.8153(2) 0.8654(2)
H29 H 0.7529 0.8517 0.8420
C50 C 0.7294(3) 0.7500(2) 0.9170(2)
H30 H 0.8128 0.7426 0.9285
C51 C 0.5336(3) 0.7030(2) 0.9344(2)
H31 H 0.4778 0.6639 0.9567
C52 C 0.4922(3) 0.7673(2) 0.8834(2)
H32 H 0.4086 0.7719 0.8715
C14 C 0.9539(3) 0.9552(2) 0.88874(19)
H8 H 0.9484 0.9320 0.9409
C46_2 C 0.0872(3) 0.4112(2) 0.7253(2)
H27_2 H 0.1457 0.3720 0.7064
C47_2 C 0.1201(3) 0.4817(2) 0.7725(2)
H28_2 H 0.2030 0.4892 0.7855
H31_2 H 0.0222 0.1639 0.5433
C52_2 C 0.0078(3) 0.2673(2) 0.6166(2)
H32_2 H 0.0914 0.2719 0.6285
O5_2 O 0.63259(18) 0.14731(14) 0.42600(12)
C8_2 C 0.5345(3) 0.14781(17) 0.46796(17)
C18_2 C 0.3831(3) 0.0396(2) 0.2401(2)
H10_2 H 0.2993 0.0471 0.2304
C19_2 C 0.4657(3) 0.10032(18) 0.20635(17)
C20_2 C 0.5872(3) 0.0888(2) 0.2253(2)
H11_2 H 0.6457 0.1280 0.2064
C21_2 C 0.6201(3) 0.0183(2) 0.2725(2)
H12_2 H 0.7030 0.0108 0.2855
C22_2 C 0.4268(3) 0.17290(18) 0.15200(17)
C23_2 C 0.3052(3) 0.1847(2) 0.1346(2)
H13_2 H 0.2471 0.1483 0.1580
C24_2 C 0.2706(3) 0.2500(2) 0.0830(2)
H14_2 H 0.1872 0.2574 0.0715
C25_2 C 0.4664(3) 0.2970(2) 0.0656(2)
H15_2 H 0.5222 0.3361 0.0433
C26_2 C 0.5078(3) 0.2327(2) 0.1166(2)
H16_2 H 0.5914 0.2281 0.1285
N2_2 N 0.8495(2) 0.19448(15) 0.54668(14)
Zn10_2 Zn 0.60345(3) 0.85137(2) 0.367760(19)
O11_2 O 0.2782(2) 0.07892(14) 0.56749(12)
O12_2 O 0.2519(2) 0.18170(16) 0.72090(15)
H17_2 H 0.241(4) 0.152(2) 0.7615(17)
H18_2 H 0.260(4) 0.2330(15) 0.738(2)
O13_2 O 0.23496(19) 0.00113(12) 0.45951(12)
O14_2 O 0.52744(19) 0.12403(15) 0.54004(12)
O16_2 O 0.3614(2) 0.35158(13) 0.27092(13)
O20_2 O 0.6644(2) 0.66882(15) 0.20139(14)
O21_2 O 0.3642(3) 0.30235(19) 0.60249(17)
O23_2 O 0.6358(3) 0.69765(19) 0.39751(17)
O24_2 O 0.5037(2) 0.24787(15) 0.68049(17)
O26_2 O 0.4963(2) 0.75213(15) 0.31951(17)
C27_2 C 0.2739(2) 0.06987(18) 0.49214(17)
C28_2 C 0.3071(3) 0.14546(17) 0.43573(16)
C29_2 C 0.2126(3) 0.1767(2) 0.38901(19)
H19_2 H 0.1354 0.1511 0.3924
C30_2 C 0.2305(3) 0.2471(2) 0.33585(19)
H20_2 H 0.1644 0.2693 0.3051
C31_2 C 0.3447(3) 0.28450(19) 0.32808(18)
C32_2 C 0.4421(3) 0.25118(19) 0.37032(17)
H21_2 H 0.5203 0.2737 0.3628
C33_2 C 0.4236(2) 0.18207(17) 0.42576(16)
C35_2 C 0.5940(3) 0.60866(18) 0.18362(17)
C36_2 C 0.5207(3) 0.56200(18) 0.24946(17)
C37_2 C 0.4716(3) 0.47914(18) 0.23332(18)
H22_2 H 0.4764 0.4552 0.1814
C38_2 C 0.4144(3) 0.43046(18) 0.29444(18)
C39_2 C 0.4067(3) 0.4620(2) 0.37285(19)
H23_2 H 0.3711 0.4285 0.4133
C40_2 C 0.4539(3) 0.5448(2) 0.38874(19)
H24_2 H 0.4484 0.5680 0.4409
C41_2 C 0.5104(3) 0.59587(18) 0.32861(19)
C42_2 C 0.5526(3) 0.6874(2) 0.3500(2)
C43_2 C 0.9237(3) 0.5292(2) 0.7864(2)
H25_2 H 0.8673 0.5685 0.8077
C44_2 C 0.8831(3) 0.4604(2) 0.7401(2)
H26_2 H 0.7993 0.4529 0.7304
C45_2 C 0.9657(3) 0.39968(18) 0.70635(17)
C48_2 C 0.9268(3) 0.32710(18) 0.65200(17)
C49_2 C 0.8052(3) 0.3153(2) 0.6346(2)
H29_2 H 0.7471 0.3517 0.6580
C50_2 C 0.7706(3) 0.2500(2) 0.5830(2)
H30_2 H 0.6872 0.2426 0.5715
C51_2 C 0.9664(3) 0.2030(2) 0.5656(2)
O1_2 O 0.7218(2) 0.92108(14) 0.43251(12)
O2_2 O 0.7481(2) 0.81830(16) 0.27910(15)
H1_2 H 0.759(4) 0.848(2) 0.2385(17)
H2_2 H 0.740(4) 0.7670(15) 0.262(2)
O3_2 O 0.76504(19) 0.99887(12) 0.54049(12)
O4_2 O 0.47256(19) 0.87597(15) 0.45996(12)
O6_2 O 0.6386(2) 0.64842(13) 0.72908(13)
O8_2 O 0.3356(2) 0.33118(15) 0.79861(14)
C1_2 C 0.7261(2) 0.93013(18) 0.50786(17)
C2_2 C 0.6929(3) 0.85454(17) 0.56427(16)
C3_2 C 0.7874(3) 0.8233(2) 0.61099(19)
H3_2 H 0.8646 0.8489 0.6076
C4_2 C 0.7695(3) 0.7529(2) 0.66415(19)
H4_2 H 0.8356 0.7307 0.6949
C5_2 C 0.6553(3) 0.71550(19) 0.67192(18)
C6_2 C 0.5579(3) 0.74882(19) 0.62968(17)
H5_2 H 0.4797 0.7263 0.6372
C7_2 C 0.5764(2) 0.81793(17) 0.57424(16)
C9_2 C 0.4060(3) 0.39134(18) 0.81638(17)
C10_2 C 0.4793(3) 0.43800(18) 0.75054(17)
C11_2 C 0.5284(3) 0.52086(18) 0.76668(18)
H6_2 H 0.5236 0.5448 0.8186
C12_2 C 0.5856(3) 0.56954(18) 0.70556(18)
C13_2 C 0.5933(3) 0.5380(2) 0.62715(19)
H7_2 H 0.6289 0.5715 0.5867
C14_2 C 0.5461(3) 0.4552(2) 0.61126(19)
H8_2 H 0.5516 0.4320 0.5591
C15_2 C 0.4896(3) 0.40413(18) 0.67139(19)
C16_2 C 0.4474(3) 0.3126(2) 0.6500(2)
C17_2 C 0.4237(3) 0.9708(2) 0.2864(2)
H9_2 H 0.3673 0.9315 0.3077
N1_2 N 0.5413(2) 0.95844(15) 0.30202(14)
O15_2 O 0.36741(18) 0.85269(14) 0.57400(12)
C34_2 C 0.4655(3) 0.85219(17) 0.53204(17)
loop_
_geom_bond_atom_site_label_1
_geom_bond_atom_site_label_2
_geom_bond_site_symmetry_1
_geom_bond_site_symmetry_2
H24 C40 1_555 1_555
C17 H9 1_555 1_555
C18 C17 1_555 1_555
H10 C18 1_555 1_555
C19 C18 1_555 1_555
C22 C19 1_555 1_555
C23 C22 1_555 1_555
H13 C23 1_555 1_555
C24 C23 1_555 1_555
H14 C24 1_555 1_555
Zn4 N6 1_555 1_555
O13 C27 1_555 1_555
O16 C31 1_555 1_555
C27 C28 1_555 1_555
C28 C29 1_555 1_555
C29 H19 1_555 1_555
C30 C29 1_555 1_555
H20 C30 1_555 1_555
C31 C30 1_555 1_555
C32 C31 1_555 1_555
C37 H22 1_555 1_555
C38 O16 1_555 1_555
C39 C38 1_555 1_555
H23 C39 1_555 1_555
N6 C24 1_555 1_555
C25 N6 1_555 1_555
C28 C33 1_555 1_555
C32 C33 1_555 1_555
C37 C38 1_555 1_555
Zn7 O11 1_555 1_555
O12 Zn7 1_555 1_555
H17 O12 1_555 1_555
H18 O12 1_555 1_555
O15 Zn3 1_555 1_555
O17 Zn3 1_555 1_555
O21 Zn7 1_555 1_555
N3 Zn7 1_555 1_555
O15 C34 1_555 1_555
O7 C9 1_555 1_555
O8 C9 1_555 1_555
O21 C16 1_555 1_555
C9 C10 1_555 1_555
C15 C10 1_555 1_555
C16 C15 1_555 1_555
Zn4 O7 1_555 1_555
Zn6 O19 1_555 1_555
Zn10 O23 1_555 1_555
O19 C35 1_555 1_555
O20 C35 1_555 1_555
O23 C42 1_555 1_555
C35 C36 1_555 1_555
C41 C36 1_555 1_555
C41 C42 1_555 1_555
Zn9 N4 1_555 1_555
C43 H25 1_555 1_555
N4 C43 1_555 1_555
Zn10 O1 1_555 1_555
O2 Zn10 1_555 1_555
H1 O2 1_555 1_555
H2 O2 1_555 1_555
O5 Zn1 1_555 1_555
C8 O5 1_555 1_555
H11 C20 1_555 1_555
C21 C20 1_555 1_555
H12 C21 1_555 1_555
H16 C26 1_555 1_555
N1 Zn10 1_555 1_555
O18 Zn1 1_555 1_555
C21 N1 1_555 1_555
O3 C1 1_555 1_555
O6 C5 1_555 1_555
C1 C2 1_555 1_555
C2 C3 1_555 1_555
C3 H3 1_555 1_555
C4 C3 1_555 1_555
H4 C4 1_555 1_555
C5 C4 1_555 1_555
C6 C5 1_555 1_555
C7 C2 1_555 1_555
C11 H6 1_555 1_555
C12 O6 1_555 1_555
C13 C12 1_555 1_555
H7 C13 1_555 1_555
H26 C44 1_555 1_555
C45 C44 1_555 1_555
C46 C45 1_555 1_555
H27 C46 1_555 1_555
C47 C46 1_555 1_555
H28 C47 1_555 1_555
C48 C45 1_555 1_555
C49 C48 1_555 1_555
H29 C49 1_555 1_555
C50 N2 1_555 1_555
H30 C50 1_555 1_555
C51 N2 1_555 1_555
H31 C51 1_555 1_555
C52 C48 1_555 1_555
H32 C52 1_555 1_555
C6 C7 1_555 1_555
C11 C12 1_555 1_555
C49 C50 1_555 1_555
C51 C52 1_555 1_555
H8 C14 1_555 1_555
H27_2 C46_2 1_555 1_555
C47_2 C46_2 1_555 1_555
H28_2 C47_2 1_555 1_555
H32_2 C52_2 1_555 1_555
C47_2 N3 1_555 1_555
O5_2 Zn6 1_555 1_555
C8_2 O5_2 1_555 1_555
H10_2 C18_2 1_555 1_555
C19_2 C18_2 1_555 1_555
C20_2 C19_2 1_555 1_555
H11_2 C20_2 1_555 1_555
C21_2 C20_2 1_555 1_555
H12_2 C21_2 1_555 1_555
C22_2 C19_2 1_555 1_555
C23_2 C22_2 1_555 1_555
H13_2 C23_2 1_555 1_555
C24_2 C23_2 1_555 1_555
H14_2 C24_2 1_555 1_555
C25_2 H15_2 1_555 1_555
C26_2 C22_2 1_555 1_555
H16_2 C26_2 1_555 1_555
N2_2 Zn6 1_555 1_555
Zn9 O11_2 1_555 1_555
Zn10_2 O23_2 1_555 1_555
O11_2 C27_2 1_555 1_555
O12_2 Zn9 1_555 1_555
H17_2 O12_2 1_555 1_555
H18_2 O12_2 1_555 1_555
O13_2 C27_2 1_555 1_555
O14_2 C8_2 1_555 1_555
O16_2 C31_2 1_555 1_555
O18 C35_2 1_555 1_555
O20_2 C35_2 1_555 1_555
O21_2 Zn9 1_555 1_555
O23_2 C42_2 1_555 1_555
O24_2 Zn9 1_555 1_555
O26_2 Zn10_2 1_555 1_555
C27_2 C28_2 1_555 1_555
C28_2 C29_2 1_555 1_555
C29_2 H19_2 1_555 1_555
C30_2 C29_2 1_555 1_555
H20_2 C30_2 1_555 1_555
C31_2 C30_2 1_555 1_555
C32_2 C31_2 1_555 1_555
H21_2 C32_2 1_555 1_555
C33_2 C8_2 1_555 1_555
C35_2 C36_2 1_555 1_555
C36_2 C37_2 1_555 1_555
C37_2 H22_2 1_555 1_555
C38_2 O16_2 1_555 1_555
C39_2 C38_2 1_555 1_555
H23_2 C39_2 1_555 1_555
C40_2 C39_2 1_555 1_555
H24_2 C40_2 1_555 1_555
C41_2 C36_2 1_555 1_555
C42_2 O26_2 1_555 1_555
C43_2 H25_2 1_555 1_555
C44_2 C43_2 1_555 1_555
H26_2 C44_2 1_555 1_555
C45_2 C44_2 1_555 1_555
C48_2 C45_2 1_555 1_555
C49_2 C48_2 1_555 1_555
H29_2 C49_2 1_555 1_555
C50_2 N2_2 1_555 1_555
H30_2 C50_2 1_555 1_555
C51_2 N2_2 1_555 1_555
N5 C24_2 1_555 1_555
C25_2 C26_2 1_555 1_555
C25_2 N5 1_555 1_555
Zn9 O14_2 1_555 1_555
C28_2 C33_2 1_555 1_555
C32_2 C33_2 1_555 1_555
C37_2 C38_2 1_555 1_555
C40_2 C41_2 1_555 1_555
C41_2 C42_2 1_555 1_555
C49_2 C50_2 1_555 1_555
Zn10_2 O1_2 1_555 1_555
O1_2 C1_2 1_555 1_555
O2_2 Zn10_2 1_555 1_555
H1_2 O2_2 1_555 1_555
H2_2 O2_2 1_555 1_555
O3_2 C1_2 1_555 1_555
O4_2 Zn10_2 1_555 1_555
O6_2 C5_2 1_555 1_555
O17 C9_2 1_555 1_555
O8_2 C9_2 1_555 1_555
O21_2 C16_2 1_555 1_555
O24_2 C16_2 1_555 1_555
C1_2 C2_2 1_555 1_555
C2_2 C3_2 1_555 1_555
C3_2 H3_2 1_555 1_555
C4_2 C3_2 1_555 1_555
H4_2 C4_2 1_555 1_555
C5_2 C4_2 1_555 1_555
C6_2 C5_2 1_555 1_555
H5_2 C6_2 1_555 1_555
C7_2 C2_2 1_555 1_555
C9_2 C10_2 1_555 1_555
C10_2 C11_2 1_555 1_555
C11_2 H6_2 1_555 1_555
C12_2 O6_2 1_555 1_555
C13_2 C12_2 1_555 1_555
H7_2 C13_2 1_555 1_555
C14_2 C13_2 1_555 1_555
H8_2 C14_2 1_555 1_555
C15_2 C10_2 1_555 1_555
C16_2 C15_2 1_555 1_555
C17_2 H9_2 1_555 1_555
N1_2 Zn10_2 1_555 1_555
O15_2 Zn4 1_555 1_555
C34_2 O4_2 1_555 1_555
C6_2 C7_2 1_555 1_555
C7_2 C34_2 1_555 1_555
C11_2 C12_2 1_555 1_555
C14_2 C15_2 1_555 1_555
C17_2 N1_2 1_555 1_555
O15_2 C34_2 1_555 1_555

#END
