
###############################################################################
#
# This file contains modified crystal structure data generated from the
# MOF subset of the Cambridge Structural Database (CSD) v543 
# hosted by the Cambridge Crystallographic Data Centre (CCDC).
#
# This work is licensed under the Creative Commons
# Attribution-NonCommercial-ShareAlike 4.0 International License.
# To view a copy of this license, visit
# http://creativecommons.org/licenses/by-nc-sa/4.0/
# or send a letter to
# Creative Commons, PO Box 1866, Mountain View, CA 94042, USA.
#
# CIF created using the CSD Python API on 29 September 2022
# The structure has been converted into the P1 space group
# The structure has a 3D framework
# The original CSD entry AFECIY is in the monoclinic crystal system
# The framework has been calculated to contain at least 10.0% void space
# The void calculation uses a probe of radius 1.32A, grid spacing 0.4
#
###############################################################################

data_AFECIY
_chemical_formula_moiety         '(C104 H64 N8 O40 Zn8)n'
_symmetry_cell_setting           triclinic
_symmetry_space_group_name_H-M   'P 1'
_symmetry_Int_Tables_number      1
_space_group_name_Hall           'P 1'
loop_
_symmetry_equiv_pos_site_id
_symmetry_equiv_pos_as_xyz
1 x,y,z
_cell_length_a                   10.9516(4)
_cell_length_b                   15.1202(5)
_cell_length_c                   16.5498(4)
_cell_angle_alpha                90
_cell_angle_beta                 92.063(1)
_cell_angle_gamma                90
_cell_volume                     2738.71
loop_
_atom_site_label
_atom_site_type_symbol
_atom_site_fract_x
_atom_site_fract_y
_atom_site_fract_z
O20 O 0.0057(3) 0.2528(2) 0.8170(2)
C39 C 0.0484(5) 0.0449(3) 0.8881(3)
H23 H 0.0554 0.0673 0.9404
Zn1 Zn 0.28659(5) 0.39722(3) 0.03206(3)
O3 O 0.1330(3) 0.3517(2) 0.07326(18)
H3 H 0.0197 0.2242 0.1377
C7 C 0.0348(4) 0.3511(3) 0.0313(3)
Zn7 Zn 0.10394(5) 0.64904(3) 0.13285(3)
O11 O 0.2490(3) 0.6823(2) 0.22115(19)
H17 H 0.2298 0.7267 0.2462
H18 H 0.2648 0.6449 0.2583
O15 O 0.2214(3) 0.5790(2) 0.06792(18)
O17 O 0.4175(3) 0.4204(2) 0.11149(18)
O25 O 0.1323(4) 0.8010(3) 0.1029(2)
N4 N 0.0411(3) 0.5410(2) 0.1978(2)
O2 O 0.0277(3) 0.3752(2) 0.95924(17)
N2 N 0.3501(3) 0.3058(2) 0.9527(2)
C18 C 0.3845(5) 0.0394(3) 0.7603(3)
H10 H 0.3017 0.0451 0.7698
C19 C 0.4661(4) 0.1006(3) 0.7929(2)
C20 C 0.5867(4) 0.0901(3) 0.7732(3)
H11 H 0.6453 0.1306 0.7915
C21 C 0.6202(5) 0.0192(3) 0.7263(3)
H12 H 0.7019 0.0133 0.7139
C22 C 0.2714(5) 0.2506(3) 0.9162(3)
H13 H 0.1888 0.2563 0.9265
C23 C 0.3063(5) 0.1853(3) 0.8639(3)
H14 H 0.2473 0.1488 0.8397
C24 C 0.4273(4) 0.1734(3) 0.8469(3)
C25 C 0.5089(4) 0.2326(3) 0.8832(3)
H15 H 0.5918 0.2287 0.8731
C26 C 0.4671(4) 0.2973(3) 0.9344(3)
H16 H 0.5235 0.3369 0.9573
Zn6 Zn 0.21341(5) 0.89722(3) 0.46794(3)
O14 O 0.2645(3) 0.50069(19) 0.96023(18)
O26 O 0.1372(3) 0.8510(2) 0.77102(18)
N5 N 0.1499(3) 0.8058(2) 0.5473(2)
C27 C 0.1547(4) 0.7839(3) 0.8289(3)
C28 C 0.0578(4) 0.7517(3) 0.8708(3)
C29 C 0.0761(4) 0.6824(3) 0.9266(2)
C30 C 0.1928(4) 0.6457(3) 0.9363(2)
C31 C 0.2867(4) 0.6764(3) 0.8896(3)
H20 H 0.3627 0.6490 0.8938
C32 C 0.2696(4) 0.7470(3) 0.8369(3)
H21 H 0.3340 0.7689 0.8077
C34 C 0.2258(4) 0.5698(3) 0.9925(3)
C35 C 0.0858(4) 0.9300(3) 0.7944(3)
C36 C 0.0280(4) 0.9788(3) 0.7331(3)
H22 H 0.0210 0.9556 0.6811
C40 C 0.0945(4) 0.9620(3) 0.8725(3)
H24 H 0.1309 0.9284 0.9138
C43 C 0.0756(4) 0.4700(3) 0.7860(3)
H25 H 0.1326 0.4294 0.8065
C44 C 0.1155(5) 0.5394(3) 0.7397(3)
H26 H 0.1983 0.5451 0.7302
C45 C 0.0339(4) 0.6006(3) 0.7071(2)
C48 C 0.2286(5) 0.7506(3) 0.5838(3)
H29 H 0.3112 0.7563 0.5735
C49 C 0.1937(5) 0.6853(3) 0.6361(3)
H30 H 0.2527 0.6488 0.6603
C50 C 0.0727(4) 0.6734(3) 0.6531(3)
C52 C 0.0329(4) 0.7973(3) 0.5656(3)
O6 O 0.0825(3) 0.9204(2) 0.38851(18)
O7 O 0.1656(3) 0.8319(2) 0.29850(19)
C11 C 0.0193(4) 0.9380(3) 0.2513(3)
C12 C 0.0088(4) 0.9037(3) 0.1728(3)
C15 C 0.0944(4) 0.8912(3) 0.3168(3)
C16 C 0.0501(5) 0.8120(3) 0.1511(3)
N1 N 0.5411(3) 0.9590(2) 0.6978(2)
C17 C 0.4244(4) 0.9700(3) 0.7140(3)
H9 H 0.3674 0.9294 0.6935
Zn9 Zn 0.60394(5) 0.85096(3) 0.63285(3)
Zn5 Zn 0.78659(5) 0.10278(3) 0.53206(3)
Zn10 Zn 0.89606(5) 0.35096(3) 0.86715(3)
O16 O 0.9175(3) 0.0796(2) 0.61149(18)
O19 O 0.8344(3) 0.1681(2) 0.70150(19)
O23 O 0.8677(4) 0.1990(3) 0.8971(2)
C37 C 0.9807(4) 0.0620(3) 0.7487(3)
C38 C 0.9912(4) 0.0963(3) 0.8272(3)
C41 C 0.9056(4) 0.1088(3) 0.6832(3)
C42 C 0.9499(5) 0.1880(3) 0.8489(3)
O4 O 0.7355(3) 0.49931(19) 0.03977(18)
O10 O 0.8628(3) 0.1490(2) 0.22898(18)
C1 C 0.8453(4) 0.2161(3) 0.1711(3)
C2 C 0.9422(4) 0.2483(3) 0.1292(3)
C3 C 0.9239(4) 0.3176(3) 0.0734(2)
C4 C 0.8072(4) 0.3543(3) 0.0637(2)
C5 C 0.7133(4) 0.3236(3) 0.1104(3)
H4 H 0.6373 0.3510 0.1062
C6 C 0.7304(4) 0.2530(3) 0.1631(3)
H5 H 0.6660 0.2311 0.1923
C8 C 0.7742(4) 0.4302(3) 0.0075(3)
C9 C 0.9142(4) 0.0700(3) 0.2056(3)
C10 C 0.9720(4) 0.0212(3) 0.2669(3)
H6 H 0.9790 0.0444 0.3189
C14 C 0.9055(4) 0.0380(3) 0.1275(3)
H8 H 0.8691 0.0716 0.0862
O12 O 0.9723(3) 0.6248(2) 0.04076(17)
O22 O 0.9943(3) 0.7472(2) 0.1830(2)
N6 N 0.6499(3) 0.6942(2) 0.0473(2)
O1 O 0.7510(3) 0.3177(2) 0.77885(19)
H1 H 0.7702 0.2733 0.7538
H2 H 0.7352 0.3551 0.7417
O5 O 0.7786(3) 0.4210(2) 0.93208(18)
Zn3 Zn 0.71341(5) 0.60278(3) 0.96794(3)
O13 O 0.8670(3) 0.6483(2) 0.92674(18)
O18 O 0.5825(3) 0.5796(2) 0.88851(18)
N3 N 0.9589(3) 0.4590(2) 0.8022(2)
H19 H 0.9803 0.7758 0.8623
C33 C 0.9652(4) 0.6489(3) 0.9687(3)
C46 C 0.9133(4) 0.5901(3) 0.7268(3)
H27 H 0.8547 0.6306 0.7085
C47 C 0.8798(5) 0.5192(3) 0.7737(3)
H28 H 0.7981 0.5133 0.7861
C51 C 0.9911(4) 0.7326(3) 0.6168(3)
H31 H 0.9082 0.7287 0.6269
H32 H 0.9765 0.8369 0.5427
C13 C 0.9516(5) 0.9551(3) 0.1119(3)
H7 H 0.9446 0.9327 0.0596
Zn7_2 Zn 0.39606(5) 0.14904(3) 0.36715(3)
O11_2 O 0.2510(3) 0.1823(2) 0.27885(19)
H17_2 H 0.2702 0.2267 0.2538
H18_2 H 0.2352 0.1449 0.2417
O12_2 O 0.5277(3) 0.1248(2) 0.45924(17)
O13_2 O 0.6330(3) 0.1483(2) 0.57326(18)
O14_2 O 0.2355(3) 0.00069(19) 0.53977(18)
O15_2 O 0.2786(3) 0.0790(2) 0.43208(18)
O19_2 O 0.6656(3) 0.6681(2) 0.79850(19)
O20_2 O 0.4943(3) 0.7528(2) 0.6830(2)
O22_2 O 0.5057(3) 0.2472(2) 0.3170(2)
O23_2 O 0.6323(4) 0.6990(3) 0.6029(2)
O25_2 O 0.3677(4) 0.3010(3) 0.3971(2)
O26_2 O 0.3628(3) 0.3510(2) 0.72898(18)
N4_2 N 0.4589(3) 0.0410(2) 0.3022(2)
N6_2 N 0.8501(3) 0.1942(2) 0.4527(2)
C27_2 C 0.3453(4) 0.2839(3) 0.6711(3)
C28_2 C 0.4422(4) 0.2517(3) 0.6292(3)
H19_2 H 0.5197 0.2758 0.6377
C29_2 C 0.4239(4) 0.1824(3) 0.5734(2)
C30_2 C 0.3072(4) 0.1457(3) 0.5637(2)
C31_2 C 0.2133(4) 0.1764(3) 0.6104(3)
H20_2 H 0.1373 0.1490 0.6062
C32_2 C 0.2304(4) 0.2470(3) 0.6631(3)
H21_2 H 0.1660 0.2689 0.6923
C33_2 C 0.5348(4) 0.1489(3) 0.5313(3)
C34_2 C 0.2742(4) 0.0698(3) 0.5075(3)
C35_2 C 0.4142(4) 0.4300(3) 0.7056(3)
C36_2 C 0.4720(4) 0.4788(3) 0.7669(3)
H22_2 H 0.4790 0.4556 0.8189
C37_2 C 0.5193(4) 0.5620(3) 0.7513(3)
C38_2 C 0.5088(4) 0.5963(3) 0.6728(3)
C39_2 C 0.4516(5) 0.5449(3) 0.6119(3)
H23_2 H 0.4446 0.5673 0.5596
C40_2 C 0.4055(4) 0.4620(3) 0.6275(3)
H24_2 H 0.3691 0.4284 0.5862
C41_2 C 0.5944(4) 0.6088(3) 0.8168(3)
C42_2 C 0.5501(5) 0.6880(3) 0.6511(3)
O1_2 O 0.7490(3) 0.8177(2) 0.72115(19)
H1_2 H 0.7298 0.7733 0.7462
H2_2 H 0.7648 0.8551 0.7583
O2_2 O 0.4723(3) 0.8752(2) 0.54076(17)
O3_2 O 0.3670(3) 0.8517(2) 0.42674(18)
O4_2 O 0.7645(3) 0.99931(19) 0.46023(18)
O5_2 O 0.7214(3) 0.9210(2) 0.56792(18)
O7_2 O 0.3344(3) 0.3319(2) 0.20150(19)
O10_2 O 0.6372(3) 0.6490(2) 0.27102(18)
C1_2 C 0.6547(4) 0.7161(3) 0.3289(3)
C2_2 C 0.5578(4) 0.7483(3) 0.3708(3)
H3_2 H 0.4803 0.7242 0.3623
C3_2 C 0.5761(4) 0.8176(3) 0.4266(2)
C4_2 C 0.6928(4) 0.8543(3) 0.4363(2)
C5_2 C 0.7867(4) 0.8236(3) 0.3896(3)
H4_2 H 0.8627 0.8510 0.3938
C6_2 C 0.7696(4) 0.7530(3) 0.3369(3)
H5_2 H 0.8340 0.7311 0.3077
C7_2 C 0.4652(4) 0.8511(3) 0.4687(3)
C8_2 C 0.7258(4) 0.9302(3) 0.4925(3)
C9_2 C 0.5858(4) 0.5700(3) 0.2944(3)
C10_2 C 0.5280(4) 0.5212(3) 0.2331(3)
H6_2 H 0.5210 0.5444 0.1811
C11_2 C 0.4807(4) 0.4380(3) 0.2487(3)
C12_2 C 0.4912(4) 0.4037(3) 0.3272(3)
C13_2 C 0.5484(5) 0.4551(3) 0.3881(3)
H7_2 H 0.5554 0.4327 0.4404
C14_2 C 0.5945(4) 0.5380(3) 0.3725(3)
H8_2 H 0.6309 0.5716 0.4138
C15_2 C 0.4056(4) 0.3912(3) 0.1832(3)
C16_2 C 0.4499(5) 0.3120(3) 0.3489(3)
C46_2 C 0.0867(4) 0.4099(3) 0.2732(3)
H27_2 H 0.1453 0.3694 0.2915
C47_2 C 0.1202(5) 0.4808(3) 0.2263(3)
H28_2 H 0.2019 0.4867 0.2139
C51_2 C 0.0089(4) 0.2674(3) 0.3832(3)
H31_2 H 0.0918 0.2713 0.3731
H32_2 H 0.0235 0.1631 0.4573
C17_2 C 0.5756(4) 0.0300(3) 0.2860(3)
H9_2 H 0.6326 0.0706 0.3065
C18_2 C 0.6155(5) 0.9606(3) 0.2397(3)
H10_2 H 0.6983 0.9549 0.2302
C19_2 C 0.5339(4) 0.8994(3) 0.2071(2)
C20_2 C 0.4133(4) 0.9099(3) 0.2268(3)
H11_2 H 0.3547 0.8694 0.2085
C21_2 C 0.3798(5) 0.9808(3) 0.2737(3)
H12_2 H 0.2981 0.9867 0.2861
C22_2 C 0.7286(5) 0.7494(3) 0.0838(3)
H13_2 H 0.8112 0.7437 0.0735
C23_2 C 0.6937(5) 0.8147(3) 0.1361(3)
H14_2 H 0.7527 0.8512 0.1603
C24_2 C 0.5727(4) 0.8266(3) 0.1531(3)
C25_2 C 0.4911(4) 0.7674(3) 0.1168(3)
H15_2 H 0.4082 0.7713 0.1269
C26_2 C 0.5329(4) 0.7027(3) 0.0656(3)
H16_2 H 0.4765 0.6631 0.0427
C43_2 C 0.9244(4) 0.5300(3) 0.2140(3)
H25_2 H 0.8674 0.5706 0.1935
C44_2 C 0.8845(5) 0.4606(3) 0.2603(3)
H26_2 H 0.8017 0.4549 0.2698
C45_2 C 0.9661(4) 0.3994(3) 0.2929(2)
C48_2 C 0.7714(5) 0.2494(3) 0.4162(3)
H29_2 H 0.6888 0.2437 0.4265
C49_2 C 0.8063(5) 0.3147(3) 0.3639(3)
H30_2 H 0.7473 0.3512 0.3397
C50_2 C 0.9273(4) 0.3266(3) 0.3469(3)
C52_2 C 0.9671(4) 0.2027(3) 0.4344(3)
loop_
_geom_bond_atom_site_label_1
_geom_bond_atom_site_label_2
_geom_bond_site_symmetry_1
_geom_bond_site_symmetry_2
H23 C39 1_555 1_555
Zn1 O3 1_555 1_555
O3 C7 1_555 1_555
Zn7 O11 1_555 1_555
O11 H17 1_555 1_555
H18 O11 1_555 1_555
O15 Zn7 1_555 1_555
O17 Zn1 1_555 1_555
O25 Zn7 1_555 1_555
N4 Zn7 1_555 1_555
H10 C18 1_555 1_555
C19 C18 1_555 1_555
C20 C19 1_555 1_555
H11 C20 1_555 1_555
H12 C21 1_555 1_555
C22 N2 1_555 1_555
H13 C22 1_555 1_555
C23 C22 1_555 1_555
H14 C23 1_555 1_555
C24 C19 1_555 1_555
C25 C24 1_555 1_555
H15 C25 1_555 1_555
C26 N2 1_555 1_555
H16 C26 1_555 1_555
Zn6 N5 1_555 1_555
O26 C27 1_555 1_555
N5 C48 1_555 1_555
C27 C28 1_555 1_555
C29 C28 1_555 1_555
C30 C29 1_555 1_555
C31 C30 1_555 1_555
H20 C31 1_555 1_555
C32 C27 1_555 1_555
H21 C32 1_555 1_555
C34 O14 1_555 1_555
C35 O26 1_555 1_555
C36 C35 1_555 1_555
H22 C36 1_555 1_555
C40 C35 1_555 1_555
H24 C40 1_555 1_555
H25 C43 1_555 1_555
C44 C43 1_555 1_555
H26 C44 1_555 1_555
C45 C44 1_555 1_555
C48 H29 1_555 1_555
C49 C48 1_555 1_555
H30 C49 1_555 1_555
C50 C45 1_555 1_555
C52 N5 1_555 1_555
C20 C21 1_555 1_555
C23 C24 1_555 1_555
C25 C26 1_555 1_555
C30 C34 1_555 1_555
C31 C32 1_555 1_555
C49 C50 1_555 1_555
O6 C15 1_555 1_555
O7 C15 1_555 1_555
O25 C16 1_555 1_555
C12 C11 1_555 1_555
C15 C11 1_555 1_555
C16 C12 1_555 1_555
Zn6 O6 1_555 1_555
N1 C17 1_555 1_555
C17 H9 1_555 1_555
Zn9 N1 1_555 1_555
Zn5 O16 1_555 1_555
O16 C41 1_555 1_555
O19 C41 1_555 1_555
O23 Zn10 1_555 1_555
C38 C37 1_555 1_555
C41 C37 1_555 1_555
C42 O23 1_555 1_555
C38 C42 1_555 1_555
O4 C8 1_555 1_555
O10 C1 1_555 1_555
C1 C2 1_555 1_555
C3 C2 1_555 1_555
C4 C3 1_555 1_555
C5 C4 1_555 1_555
H4 C5 1_555 1_555
C6 C1 1_555 1_555
H5 C6 1_555 1_555
C9 O10 1_555 1_555
C10 C9 1_555 1_555
H6 C10 1_555 1_555
C14 C9 1_555 1_555
H8 C14 1_555 1_555
C4 C8 1_555 1_555
C5 C6 1_555 1_555
Zn10 O1 1_555 1_555
O1 H1 1_555 1_555
H2 O1 1_555 1_555
O5 Zn10 1_555 1_555
O13 Zn3 1_555 1_555
O18 Zn3 1_555 1_555
N3 Zn10 1_555 1_555
H27 C46 1_555 1_555
C47 N3 1_555 1_555
H28 C47 1_555 1_555
H31 C51 1_555 1_555
O13 C33 1_555 1_555
C46 C47 1_555 1_555
H7 C13 1_555 1_555
Zn7_2 O11_2 1_555 1_555
Zn9 O20_2 1_555 1_555
O11_2 H17_2 1_555 1_555
H18_2 O11_2 1_555 1_555
O12_2 Zn7_2 1_555 1_555
O13_2 Zn5 1_555 1_555
O15_2 Zn7_2 1_555 1_555
O18 C41_2 1_555 1_555
O19_2 C41_2 1_555 1_555
O20_2 C42_2 1_555 1_555
O22_2 Zn7_2 1_555 1_555
O23_2 Zn9 1_555 1_555
O25_2 Zn7_2 1_555 1_555
O26_2 C27_2 1_555 1_555
N4_2 Zn7_2 1_555 1_555
N6_2 Zn5 1_555 1_555
C27_2 C28_2 1_555 1_555
C28_2 H19_2 1_555 1_555
C29_2 C28_2 1_555 1_555
C30_2 C29_2 1_555 1_555
C31_2 C30_2 1_555 1_555
H20_2 C31_2 1_555 1_555
C32_2 C27_2 1_555 1_555
H21_2 C32_2 1_555 1_555
C33_2 O12_2 1_555 1_555
C34_2 O14_2 1_555 1_555
C35_2 O26_2 1_555 1_555
C36_2 C35_2 1_555 1_555
H22_2 C36_2 1_555 1_555
C37_2 C36_2 1_555 1_555
C38_2 C37_2 1_555 1_555
C39_2 C38_2 1_555 1_555
H23_2 C39_2 1_555 1_555
C40_2 C35_2 1_555 1_555
H24_2 C40_2 1_555 1_555
C41_2 C37_2 1_555 1_555
C42_2 O23_2 1_555 1_555
O13_2 C33_2 1_555 1_555
O15_2 C34_2 1_555 1_555
C29_2 C33_2 1_555 1_555
C30_2 C34_2 1_555 1_555
C31_2 C32_2 1_555 1_555
C38_2 C42_2 1_555 1_555
C39_2 C40_2 1_555 1_555
Zn6 O3_2 1_555 1_555
Zn9 O1_2 1_555 1_555
O1_2 H1_2 1_555 1_555
H2_2 O1_2 1_555 1_555
O2_2 Zn9 1_555 1_555
O3_2 C7_2 1_555 1_555
O4_2 C8_2 1_555 1_555
O5_2 Zn9 1_555 1_555
O17 C15_2 1_555 1_555
O7_2 C15_2 1_555 1_555
O22_2 C16_2 1_555 1_555
O25_2 C16_2 1_555 1_555
O10_2 C1_2 1_555 1_555
C1_2 C2_2 1_555 1_555
C2_2 H3_2 1_555 1_555
C3_2 C2_2 1_555 1_555
C4_2 C3_2 1_555 1_555
C5_2 C4_2 1_555 1_555
H4_2 C5_2 1_555 1_555
C6_2 C1_2 1_555 1_555
H5_2 C6_2 1_555 1_555
C7_2 O2_2 1_555 1_555
C8_2 O5_2 1_555 1_555
C9_2 O10_2 1_555 1_555
C10_2 C9_2 1_555 1_555
H6_2 C10_2 1_555 1_555
C11_2 C10_2 1_555 1_555
C12_2 C11_2 1_555 1_555
C13_2 C12_2 1_555 1_555
H7_2 C13_2 1_555 1_555
C14_2 C9_2 1_555 1_555
H8_2 C14_2 1_555 1_555
C15_2 C11_2 1_555 1_555
C16_2 C12_2 1_555 1_555
C3_2 C7_2 1_555 1_555
C4_2 C8_2 1_555 1_555
C5_2 C6_2 1_555 1_555
C13_2 C14_2 1_555 1_555
H27_2 C46_2 1_555 1_555
C47_2 N4 1_555 1_555
H28_2 C47_2 1_555 1_555
H31_2 C51_2 1_555 1_555
C46_2 C47_2 1_555 1_555
N4_2 C17_2 1_555 1_555
C17_2 H9_2 1_555 1_555
H10_2 C18_2 1_555 1_555
C19_2 C18_2 1_555 1_555
C20_2 C19_2 1_555 1_555
H11_2 C20_2 1_555 1_555
H12_2 C21_2 1_555 1_555
C22_2 N6 1_555 1_555
H13_2 C22_2 1_555 1_555
C23_2 C22_2 1_555 1_555
H14_2 C23_2 1_555 1_555
C24_2 C19_2 1_555 1_555
C25_2 C24_2 1_555 1_555
H15_2 C25_2 1_555 1_555
C26_2 N6 1_555 1_555
H16_2 C26_2 1_555 1_555
N6_2 C48_2 1_555 1_555
H25_2 C43_2 1_555 1_555
C44_2 C43_2 1_555 1_555
H26_2 C44_2 1_555 1_555
C45_2 C44_2 1_555 1_555
C48_2 H29_2 1_555 1_555
C49_2 C48_2 1_555 1_555
H30_2 C49_2 1_555 1_555
C50_2 C45_2 1_555 1_555
C52_2 N6_2 1_555 1_555
C20_2 C21_2 1_555 1_555
C23_2 C24_2 1_555 1_555
C25_2 C26_2 1_555 1_555
C49_2 C50_2 1_555 1_555

#END
