
###############################################################################
#
# This file contains modified crystal structure data generated from the
# MOF subset of the Cambridge Structural Database (CSD) v543 
# hosted by the Cambridge Crystallographic Data Centre (CCDC).
#
# This work is licensed under the Creative Commons
# Attribution-NonCommercial-ShareAlike 4.0 International License.
# To view a copy of this license, visit
# http://creativecommons.org/licenses/by-nc-sa/4.0/
# or send a letter to
# Creative Commons, PO Box 1866, Mountain View, CA 94042, USA.
#
# CIF created using the CSD Python API on 29 September 2022
# The structure has been converted into the P1 space group
# The structure has a 3D framework
# The original CSD entry AFENUX is in the monoclinic crystal system
# The original CSD entry AFENUX is in a Sohncke space group
# The framework has been calculated to contain at least 10.0% void space
# The void calculation uses a probe of radius 1.32A, grid spacing 0.4
#
###############################################################################

data_AFENUX
_chemical_formula_moiety         '(C40 H40 Cu6 N4 O26)n'
_symmetry_cell_setting           triclinic
_symmetry_space_group_name_H-M   'P 1'
_symmetry_Int_Tables_number      1
_space_group_name_Hall           'P 1'
loop_
_symmetry_equiv_pos_site_id
_symmetry_equiv_pos_as_xyz
1 x,y,z
_cell_length_a                   10.2056(9)
_cell_length_b                   7.9516(7)
_cell_length_c                   18.2418(16)
_cell_angle_alpha                90
_cell_angle_beta                 101.4540(10)
_cell_angle_gamma                90
_cell_volume                     1450.86
loop_
_atom_site_label
_atom_site_type_symbol
_atom_site_fract_x
_atom_site_fract_y
_atom_site_fract_z
O10 O 0.0873(5) 0.0155(7) 0.8458(3)
Cu3 Cu 0.01437(7) 0.81103(11) 0.12245(4)
O1 O 0.1662(4) 0.7020(7) 0.0942(2)
N1 N 0.1067(5) 0.8212(8) 0.2300(3)
N2 N 0.6614(5) 0.7807(8) 0.7002(3)
C1 C 0.2213(6) 0.7431(10) 0.2537(3)
H5 H 0.2595 0.6863 0.2187
C2 C 0.2865(7) 0.7403(11) 0.3259(4)
H6 H 0.3680 0.6847 0.3387
C3 C 0.1751(5) 0.7289(10) 0.0251(3)
C7 C 0.7172(8) 0.8034(11) 0.6411(4)
H9 H 0.8099 0.7978 0.6479
C8 C 0.6451(8) 0.8350(12) 0.5702(4)
H10 H 0.6895 0.8492 0.5308
C9 C 0.5127(9) 0.8452(14) 0.5577(4)
C10 C 0.4533(7) 0.8223(15) 0.6190(4)
H11 H 0.3608 0.8275 0.6129
C11 C 0.5294(7) 0.7920(12) 0.6887(4)
H12 H 0.4871 0.7790 0.7290
C12 C 0.0550(7) 0.8982(12) 0.2817(4)
C13 C 0.2335(7) 0.8190(13) 0.3802(4)
C14 C 0.3001(8) 0.8159(16) 0.4626(4)
H14 H 0.2477 0.8842 0.4901
H15 H 0.2986 0.7014 0.4807
C19 C 0.1128(7) 0.9029(13) 0.3553(4)
H18 H 0.0723 0.9616 0.3889
C20 C 0.4362(9) 0.8752(15) 0.4788(5)
H19 H 0.4357 0.9951 0.4690
H20 H 0.4844 0.8214 0.4444
Cu5 Cu 0.77148(7) 0.72681(11) 0.80034(4)
O6 O 0.3367(4) 0.0507(5) 0.0624(2)
O7 O 0.3544(4) 0.0487(6) 0.1883(2)
O11 O 0.6570(5) 0.1138(7) 0.1693(3)
H1 H 0.6294 0.2050 0.1518
C16 C 0.3853(6) 0.0049(9) 0.1287(4)
H16 H 0.5843 0.0420 0.0665
Cu4 Cu 0.19925(6) 0.21834(10) 0.02941(4)
Cu6 Cu 0.22852(7) 0.22681(11) 0.19966(4)
H4 H 0.6911 0.0274 0.8811
Cu7 Cu 0.98563(7) 0.31103(11) 0.87755(4)
Cu1 Cu 0.80075(6) 0.71834(10) 0.97059(4)
O3 O 0.8963(4) 0.6670(5) 0.8909(2)
O8 O 0.9036(4) 0.8873(6) 0.7844(2)
O13 O 0.6631(5) 0.9106(6) 0.8786(3)
H3 H 0.5670 0.8979 0.8726
O14 O 0.6633(4) 0.5507(5) 0.9376(2)
O15 O 0.6456(4) 0.5487(6) 0.8117(2)
O3_2 O 0.1037(4) 0.1670(5) 0.1091(2)
O8_2 O 0.0964(4) 0.3873(6) 0.2156(2)
O13_2 O 0.3369(5) 0.4106(6) 0.1214(3)
H3_2 H 0.4330 0.3979 0.1274
H4_2 H 0.3089 0.5274 0.1189
N3 N 0.3386(5) 0.2807(8) 0.2998(3)
O2 O 0.0457(3) 0.3468(5) 0.9844(2)
O4 O 0.1509(4) 0.4056(6) 0.8574(2)
O5 O 0.2941(4) 0.2705(5) 0.9498(2)
O11_2 O 0.3430(5) 0.6138(7) 0.8307(3)
H1_2 H 0.3706 0.7050 0.8482
O12 O 0.4590(4) 0.3131(7) 0.7930(2)
H2 H 0.4880 0.2168 0.7937
H13 H 0.0265 0.4528 0.7333
C15 C 0.2650(6) 0.3781(8) 0.8977(3)
C16_2 C 0.6147(6) 0.5049(9) 0.8713(4)
C17 C 0.3801(6) 0.4856(9) 0.8859(4)
H16_2 H 0.4157 0.5420 0.9335
C18 C 0.4938(6) 0.3832(9) 0.8651(4)
H17 H 0.5176 0.2922 0.9016
O1_2 O 0.8338(4) 0.2020(7) 0.9058(2)
N1_2 N 0.8933(5) 0.3212(8) 0.7700(3)
C1_2 C 0.7787(6) 0.2431(10) 0.7463(3)
H5_2 H 0.7405 0.1863 0.7813
C2_2 C 0.7135(7) 0.2403(11) 0.6741(4)
H6_2 H 0.6320 0.1847 0.6613
C3_2 C 0.8249(5) 0.2289(10) 0.9749(3)
C7_2 C 0.2828(8) 0.3034(11) 0.3589(4)
H9_2 H 0.1901 0.2978 0.3521
C8_2 C 0.3549(8) 0.3350(12) 0.4298(4)
H10_2 H 0.3105 0.3492 0.4692
C9_2 C 0.4873(9) 0.3452(14) 0.4423(4)
C10_2 C 0.5467(7) 0.3223(15) 0.3810(4)
H11_2 H 0.6392 0.3275 0.3871
C11_2 C 0.4706(7) 0.2920(12) 0.3113(4)
H12_2 H 0.5129 0.2790 0.2710
C12_2 C 0.9450(7) 0.3982(12) 0.7183(4)
C13_2 C 0.7665(7) 0.3190(13) 0.6198(4)
C14_2 C 0.6999(8) 0.3159(16) 0.5374(4)
H14_2 H 0.7523 0.3842 0.5099
H15_2 H 0.7014 0.2014 0.5193
C19_2 C 0.8872(7) 0.4029(13) 0.6447(4)
H18_2 H 0.9277 0.4616 0.6111
C20_2 C 0.5638(9) 0.3752(15) 0.5212(5)
H19_2 H 0.5643 0.4951 0.5310
H20_2 H 0.5156 0.3214 0.5556
O9 O 0.2709(4) 0.6793(6) 0.9994(2)
C4 C 0.0632(5) 0.8306(8) 0.9787(3)
H7 H 0.0982 0.9440 0.9739
C5 C 0.0162(5) 0.7610(7) 0.8981(3)
H8 H 0.0857 0.6842 0.8882
C6 C 0.0018(6) 0.8996(9) 0.8402(4)
O2_2 O 0.9543(3) 0.8468(5) 0.0156(2)
O4_2 O 0.8491(4) 0.9056(6) 0.1426(2)
O5_2 O 0.7059(4) 0.7705(5) 0.0502(2)
O12_2 O 0.5410(4) 0.8131(7) 0.2070(2)
H2_2 H 0.5120 0.7168 0.2063
H13_2 H 0.9735 0.9528 0.2667
C15_2 C 0.7350(6) 0.8781(8) 0.1023(3)
C17_2 C 0.6199(6) 0.9856(9) 0.1141(4)
C18_2 C 0.5062(6) 0.8832(9) 0.1349(4)
H17_2 H 0.4824 0.7922 0.0984
O16 O 0.9127(5) 0.5155(7) 0.1542(3)
O9_2 O 0.7291(4) 0.1793(6) 0.0006(2)
C4_2 C 0.9368(5) 0.3306(8) 0.0213(3)
H7_2 H 0.9018 0.4440 0.0261
C5_2 C 0.9838(5) 0.2610(7) 0.1019(3)
H8_2 H 0.9143 0.1842 0.1118
C6_2 C 0.9982(6) 0.3996(9) 0.1598(4)
loop_
_geom_bond_atom_site_label_1
_geom_bond_atom_site_label_2
_geom_bond_site_symmetry_1
_geom_bond_site_symmetry_2
Cu3 O1 1_555 1_555
O1 C3 1_555 1_555
N1 Cu3 1_555 1_555
N2 C7 1_555 1_555
C1 N1 1_555 1_555
H5 C1 1_555 1_555
C2 C1 1_555 1_555
H6 C2 1_555 1_555
C7 H9 1_555 1_555
C8 C7 1_555 1_555
H10 C8 1_555 1_555
C9 C8 1_555 1_555
C10 C9 1_555 1_555
H11 C10 1_555 1_555
C11 N2 1_555 1_555
H12 C11 1_555 1_555
C12 N1 1_555 1_555
C13 C2 1_555 1_555
C14 C13 1_555 1_555
H14 C14 1_555 1_555
H15 C14 1_555 1_555
C19 C12 1_555 1_555
H18 C19 1_555 1_555
C20 C9 1_555 1_555
H19 C20 1_555 1_555
H20 C20 1_555 1_555
Cu5 N2 1_555 1_555
C10 C11 1_555 1_555
C13 C19 1_555 1_555
C14 C20 1_555 1_555
O6 C16 1_555 1_555
O7 C16 1_555 1_555
O11 H1 1_555 1_555
Cu4 O6 1_555 1_555
Cu6 O7 1_555 1_555
Cu5 O3 1_555 1_555
O3 Cu1 1_555 1_555
O8 Cu5 1_555 1_555
O13 Cu1 1_555 1_555
H3 O13 1_555 1_555
O14 Cu1 1_555 1_555
O15 Cu5 1_555 1_555
Cu5 O13 1_555 1_555
Cu6 O3_2 1_555 1_555
O3_2 Cu4 1_555 1_555
O8_2 Cu6 1_555 1_555
O13_2 Cu4 1_555 1_555
H3_2 O13_2 1_555 1_555
H4_2 O13_2 1_555 1_555
N3 Cu6 1_555 1_555
Cu6 O13_2 1_555 1_555
O14 C16_2 1_555 1_555
O15 C16_2 1_555 1_555
O11_2 H1_2 1_555 1_555
O12 H2 1_555 1_555
C15 O4 1_555 1_555
C16_2 C18 1_555 1_555
C17 O11_2 1_555 1_555
H16_2 C17 1_555 1_555
C18 O12 1_555 1_555
H17 C18 1_555 1_555
O5 C15 1_555 1_555
C15 C17 1_555 1_555
C17 C18 1_555 1_555
Cu7 O1_2 1_555 1_555
O1_2 C3_2 1_555 1_555
N1_2 Cu7 1_555 1_555
N3 C7_2 1_555 1_555
C1_2 N1_2 1_555 1_555
H5_2 C1_2 1_555 1_555
C2_2 C1_2 1_555 1_555
H6_2 C2_2 1_555 1_555
C7_2 H9_2 1_555 1_555
C8_2 C7_2 1_555 1_555
H10_2 C8_2 1_555 1_555
C9_2 C8_2 1_555 1_555
C10_2 C9_2 1_555 1_555
H11_2 C10_2 1_555 1_555
C11_2 N3 1_555 1_555
H12_2 C11_2 1_555 1_555
C12_2 N1_2 1_555 1_555
C13_2 C2_2 1_555 1_555
C14_2 C13_2 1_555 1_555
H14_2 C14_2 1_555 1_555
H15_2 C14_2 1_555 1_555
C19_2 C12_2 1_555 1_555
H18_2 C19_2 1_555 1_555
C20_2 C9_2 1_555 1_555
H19_2 C20_2 1_555 1_555
H20_2 C20_2 1_555 1_555
C10_2 C11_2 1_555 1_555
C13_2 C19_2 1_555 1_555
C14_2 C20_2 1_555 1_555
H7 C4 1_555 1_555
H8 C5 1_555 1_555
C4 C5 1_555 1_555
C5 C6 1_555 1_555
O12_2 H2_2 1_555 1_555
C15_2 O4_2 1_555 1_555
C18_2 O12_2 1_555 1_555
H17_2 C18_2 1_555 1_555
O5_2 C15_2 1_555 1_555
C15_2 C17_2 1_555 1_555
C17_2 C18_2 1_555 1_555
O16 C6_2 1_555 1_555
H7_2 C4_2 1_555 1_555
H8_2 C5_2 1_555 1_555
C4_2 C5_2 1_555 1_555
C5_2 C6_2 1_555 1_555

#END
