
###############################################################################
#
# This file contains modified crystal structure data generated from the
# MOF subset of the Cambridge Structural Database (CSD) v543 
# hosted by the Cambridge Crystallographic Data Centre (CCDC).
#
# This work is licensed under the Creative Commons
# Attribution-NonCommercial-ShareAlike 4.0 International License.
# To view a copy of this license, visit
# http://creativecommons.org/licenses/by-nc-sa/4.0/
# or send a letter to
# Creative Commons, PO Box 1866, Mountain View, CA 94042, USA.
#
# CIF created using the CSD Python API on 29 September 2022
# The structure has been converted into the P1 space group
# The structure has a 3D framework
# The original CSD entry AFITEP is in the monoclinic crystal system
# The framework has been calculated to contain at least 10.0% void space
# The void calculation uses a probe of radius 1.32A, grid spacing 0.4
#
###############################################################################

data_AFITEP
_chemical_formula_moiety         '(C104 H64 N8 O16 Zn2)n'
_symmetry_cell_setting           triclinic
_symmetry_space_group_name_H-M   'P 1'
_symmetry_Int_Tables_number      1
_space_group_name_Hall           'P 1'
loop_
_symmetry_equiv_pos_site_id
_symmetry_equiv_pos_as_xyz
1 x,y,z
_cell_length_a                   28.848(7)
_cell_length_b                   6.1751(15)
_cell_length_c                   17.144(4)
_cell_angle_alpha                90
_cell_angle_beta                 98.838(4)
_cell_angle_gamma                90
_cell_volume                     3017.76
loop_
_atom_site_label
_atom_site_type_symbol
_atom_site_fract_x
_atom_site_fract_y
_atom_site_fract_z
O5 O 0.40186(10) 0.0008(6) 0.71659(19)
O2 O 0.59814(10) 0.9992(6) 0.28341(19)
N1 N 0.50242(11) 0.8769(6) 0.1567(2)
C9 C 0.53001(16) 0.6996(8) 0.1635(2)
H5 H 0.5507 0.6778 0.2115
C10 C 0.47371(13) 0.9042(7) 0.0883(2)
C11 C 0.47158(14) 0.7614(7) 0.0264(2)
C12 C 0.52970(16) 0.5508(8) 0.1053(3)
H8 H 0.5495 0.4275 0.1134
C13 C 0.50009(13) 0.5788(7) 0.0329(2)
N3 N 0.49758(11) 0.8769(6) 0.3433(2)
H15 H 0.5495 0.2124 0.0209
H7 H 0.4505 0.7876 0.9791
N2 N 0.49758(11) 0.1231(6) 0.8433(2)
C22 C 0.46999(16) 0.3004(8) 0.8365(2)
H13 H 0.4493 0.3222 0.7885
C23 C 0.52629(13) 0.0958(7) 0.9117(2)
C24 C 0.52842(14) 0.2386(7) 0.9736(2)
C25 C 0.47030(16) 0.4492(8) 0.8947(3)
H16 H 0.4505 0.5725 0.8866
C26 C 0.49991(13) 0.4212(7) 0.9671(2)
O5_2 O 0.59814(10) 0.0008(6) 0.78341(19)
O2_2 O 0.40186(10) 0.9992(6) 0.21659(19)
C9_2 C 0.46999(16) 0.6996(8) 0.3365(2)
H5_2 H 0.4493 0.6778 0.2885
C10_2 C 0.52629(13) 0.9042(7) 0.4117(2)
C11_2 C 0.52842(14) 0.7614(7) 0.4736(2)
H7_2 H 0.5495 0.7876 0.5209
C12_2 C 0.47030(16) 0.5508(8) 0.3947(3)
H8_2 H 0.4505 0.4275 0.3866
C13_2 C 0.49991(13) 0.5788(7) 0.4671(2)
N2_2 N 0.50242(11) 0.1231(6) 0.6567(2)
C22_2 C 0.53001(16) 0.3004(8) 0.6635(2)
H13_2 H 0.5507 0.3222 0.7115
C23_2 C 0.47371(13) 0.0958(7) 0.5883(2)
C24_2 C 0.47158(14) 0.2386(7) 0.5264(2)
H15_2 H 0.4505 0.2124 0.4791
C25_2 C 0.52970(16) 0.4492(8) 0.6053(3)
H16_2 H 0.5495 0.5725 0.6134
C26_2 C 0.50009(13) 0.4212(7) 0.5329(2)
C4 C 0.12019(14) 0.0322(8) 0.3682(2)
H2 H 0.0897 0.0913 0.3538
C5 C 0.15499(15) 0.1555(8) 0.4129(3)
H3 H 0.1480 0.2971 0.4294
C7 C 0.19981(14) 0.0714(8) 0.4333(3)
C8 C 0.23547(15) 0.1960(9) 0.4803(3)
Zn2 Zn 0.5000 0.91947(11) 0.7500
O3 O 0.44948(9) 0.7185(5) 0.71438(17)
C14 C 0.40924(13) 0.8121(7) 0.6999(2)
C15 C 0.37053(13) 0.6744(7) 0.6554(2)
C16 C 0.32539(14) 0.7620(8) 0.6352(3)
H9 H 0.3188 0.9044 0.6514
C17 C 0.37981(14) 0.4678(8) 0.6318(2)
H10 H 0.4103 0.4087 0.6462
C18 C 0.34501(15) 0.3445(8) 0.5871(3)
H11 H 0.3520 0.2029 0.5706
C19 C 0.29075(14) 0.6390(8) 0.5916(3)
H12 H 0.2601 0.6973 0.5782
C20 C 0.30019(14) 0.4286(8) 0.5667(3)
C21 C 0.26453(15) 0.3040(9) 0.5197(3)
H14 H 0.5461 0.9721 0.9177
O3_2 O 0.55052(9) 0.7185(5) 0.78562(17)
C14_2 C 0.59076(13) 0.8121(7) 0.8001(2)
C15_2 C 0.62947(13) 0.6744(7) 0.8446(2)
C16_2 C 0.67461(14) 0.7620(8) 0.8648(3)
H9_2 H 0.6812 0.9044 0.8486
C17_2 C 0.62019(14) 0.4678(8) 0.8682(2)
H10_2 H 0.5897 0.4087 0.8538
C18_2 C 0.65499(15) 0.3445(8) 0.9129(3)
H11_2 H 0.6480 0.2029 0.9294
C19_2 C 0.70925(14) 0.6390(8) 0.9084(3)
H12_2 H 0.7399 0.6973 0.9218
C20_2 C 0.69981(14) 0.4286(8) 0.9333(3)
C21_2 C 0.73547(15) 0.3040(9) 0.9803(3)
H14_2 H 0.4539 0.9721 0.5823
Zn1 Zn -0.0000 0.58053(11) 0.2500
O1 O 0.05052(9) 0.7815(5) 0.28562(17)
O2_3 O 0.09814(10) 0.4992(6) 0.28341(19)
N1_2 N 0.00242(11) 0.3769(6) 0.1567(2)
C1 C 0.09076(13) 0.6879(7) 0.3001(2)
C2 C 0.12947(13) 0.8256(7) 0.3446(2)
C3 C 0.17461(14) 0.7380(8) 0.3648(3)
H1 H 0.1812 0.5956 0.3486
C6 C 0.20925(14) 0.8610(8) 0.4084(3)
H4 H 0.2399 0.8027 0.4218
C9_3 C 0.03001(16) 0.1996(8) 0.1635(2)
H5_3 H 0.0507 0.1778 0.2115
C12_3 C 0.02970(16) 0.0508(8) 0.1053(3)
C13_3 C 0.00009(13) 0.0788(7) 0.0329(2)
C10_3 C 0.02629(13) 0.4042(7) 0.4117(2)
H6 H 0.0461 0.5279 0.4177
C11_3 C 0.02842(14) 0.2614(7) 0.4736(2)
H7_3 H 0.0495 0.2876 0.5209
H16_3 H 0.0495 0.0725 0.6134
H8_3 H 0.0495 0.9275 0.1134
H15_3 H 0.0495 0.7124 0.0209
Zn3 Zn -0.0000 0.41947(11) 0.7500
C23_3 C 0.02629(13) 0.5958(7) 0.9117(2)
H14_3 H 0.0461 0.4721 0.9177
C24_3 C 0.02842(14) 0.7386(7) 0.9736(2)
N2_3 N 0.00242(11) 0.6231(6) 0.6567(2)
C22_3 C 0.03001(16) 0.8004(8) 0.6635(2)
H13_3 H 0.0507 0.8222 0.7115
C25_3 C 0.02970(16) 0.9492(8) 0.6053(3)
C26_3 C 0.00009(13) 0.9212(7) 0.5329(2)
O3_3 O 0.05052(9) 0.2185(5) 0.78562(17)
O5_3 O 0.09814(10) 0.5008(6) 0.78341(19)
C14_3 C 0.09076(13) 0.3121(7) 0.8001(2)
C15_3 C 0.12947(13) 0.1744(7) 0.8446(2)
C16_3 C 0.17461(14) 0.2620(8) 0.8648(3)
H9_3 H 0.1812 0.4044 0.8486
C19_3 C 0.20925(14) 0.1390(8) 0.9084(3)
H12_3 H 0.2399 0.1973 0.9218
Zn1_2 Zn 1.0000 0.58053(11) 0.2500
C10_4 C 0.97371(13) 0.4042(7) 0.0883(2)
H6_2 H 0.9539 0.5279 0.0823
C11_4 C 0.97158(14) 0.2614(7) 0.0264(2)
O4 O 0.94948(9) 0.7815(5) 0.21438(17)
N3_2 N 0.99758(11) 0.3769(6) 0.3433(2)
O2_4 O 0.90186(10) 0.4992(6) 0.21659(19)
C1_2 C 0.90924(13) 0.6879(7) 0.1999(2)
C2_2 C 0.87053(13) 0.8256(7) 0.1554(2)
C3_2 C 0.82539(14) 0.7380(8) 0.1352(3)
H1_2 H 0.8188 0.5956 0.1514
C6_2 C 0.79075(14) 0.8610(8) 0.0916(3)
H4_2 H 0.7601 0.8027 0.0782
C9_4 C 0.96999(16) 0.1996(8) 0.3365(2)
H5_4 H 0.9493 0.1778 0.2885
C12_4 C 0.97030(16) 0.0508(8) 0.3947(3)
C13_4 C 0.99991(13) 0.0788(7) 0.4671(2)
H7_4 H 0.9505 0.2876 0.9791
H16_4 H 0.9505 0.0725 0.8866
Zn3_2 Zn 1.0000 0.41947(11) 0.7500
N2_4 N 0.99758(11) 0.6231(6) 0.8433(2)
C22_4 C 0.96999(16) 0.8004(8) 0.8365(2)
H13_4 H 0.9493 0.8222 0.7885
C25_4 C 0.97030(16) 0.9492(8) 0.8947(3)
C26_4 C 0.99991(13) 0.9212(7) 0.9671(2)
O3_4 O 0.94948(9) 0.2185(5) 0.71438(17)
O5_4 O 0.90186(10) 0.5008(6) 0.71659(19)
C14_4 C 0.90924(13) 0.3121(7) 0.6999(2)
C15_4 C 0.87053(13) 0.1744(7) 0.6554(2)
C16_4 C 0.82539(14) 0.2620(8) 0.6352(3)
H9_4 H 0.8188 0.4044 0.6514
C19_4 C 0.79075(14) 0.1390(8) 0.5916(3)
H12_4 H 0.7601 0.1973 0.5782
H8_4 H 0.9505 0.9275 0.3866
C23_4 C 0.97371(13) 0.5958(7) 0.5883(2)
H14_4 H 0.9539 0.4721 0.5823
C24_4 C 0.97158(14) 0.7386(7) 0.5264(2)
H15_4 H 0.9505 0.7124 0.4791
Zn1_3 Zn 0.5000 0.08053(11) 0.2500
O1_2 O 0.55052(9) 0.2815(5) 0.28562(17)
C1_3 C 0.59076(13) 0.1879(7) 0.3001(2)
C2_3 C 0.62947(13) 0.3256(7) 0.3446(2)
C3_3 C 0.67461(14) 0.2380(8) 0.3648(3)
H1_3 H 0.6812 0.0956 0.3486
C4_2 C 0.62019(14) 0.5322(8) 0.3682(2)
H2_2 H 0.5897 0.5913 0.3538
C5_2 C 0.65499(15) 0.6555(8) 0.4129(3)
H3_2 H 0.6480 0.7971 0.4294
C6_3 C 0.70925(14) 0.3610(8) 0.4084(3)
H4_3 H 0.7399 0.3027 0.4218
C7_2 C 0.69981(14) 0.5714(8) 0.4333(3)
C8_2 C 0.73547(15) 0.6960(9) 0.4803(3)
H6_3 H 0.4539 0.0279 0.0823
O4_2 O 0.44948(9) 0.2815(5) 0.21438(17)
C17_3 C 0.87981(14) 0.9678(8) 0.6318(2)
H10_3 H 0.9103 0.9087 0.6462
C18_3 C 0.84501(15) 0.8445(8) 0.5871(3)
H11_3 H 0.8520 0.7029 0.5706
C20_3 C 0.80019(14) 0.9286(8) 0.5667(3)
C21_3 C 0.76453(15) 0.8040(9) 0.5197(3)
C1_4 C 0.40924(13) 0.1879(7) 0.1999(2)
C2_4 C 0.37053(13) 0.3256(7) 0.1554(2)
C3_4 C 0.32539(14) 0.2380(8) 0.1352(3)
H1_4 H 0.3188 0.0956 0.1514
C4_3 C 0.37981(14) 0.5322(8) 0.1318(2)
H2_3 H 0.4103 0.5913 0.1462
C5_3 C 0.34501(15) 0.6555(8) 0.0871(3)
H3_3 H 0.3520 0.7971 0.0706
C6_4 C 0.29075(14) 0.3610(8) 0.0916(3)
H4_4 H 0.2601 0.3027 0.0782
C7_3 C 0.30019(14) 0.5714(8) 0.0667(3)
C8_3 C 0.26453(15) 0.6960(9) 0.0197(3)
H6_4 H 0.5461 0.0279 0.4177
C4_4 C 0.87981(14) 0.0322(8) 0.1318(2)
H2_4 H 0.9103 0.0913 0.1462
C5_4 C 0.84501(15) 0.1555(8) 0.0871(3)
H3_4 H 0.8520 0.2971 0.0706
C7_4 C 0.80019(14) 0.0714(8) 0.0667(3)
C8_4 C 0.76453(15) 0.1960(9) 0.0197(3)
C17_4 C 0.12019(14) 0.9678(8) 0.8682(2)
H10_4 H 0.0897 0.9087 0.8538
C18_4 C 0.15499(15) 0.8445(8) 0.9129(3)
H11_4 H 0.1480 0.7029 0.9294
C20_4 C 0.19981(14) 0.9286(8) 0.9333(3)
C21_4 C 0.23547(15) 0.8040(9) 0.9803(3)
loop_
_geom_bond_atom_site_label_1
_geom_bond_atom_site_label_2
_geom_bond_site_symmetry_1
_geom_bond_site_symmetry_2
C9 N1 1_555 1_555
H5 C9 1_555 1_555
C10 N1 1_555 1_555
C11 C10 1_555 1_555
C12 C9 1_555 1_555
H8 C12 1_555 1_555
C13 C11 1_555 1_555
C12 C13 1_555 1_555
N2 C22 1_555 1_555
C22 H13 1_555 1_555
C23 N2 1_555 1_555
C24 C23 1_555 1_555
C25 C22 1_555 1_555
H16 C25 1_555 1_555
C24 C26 1_555 1_555
C25 C26 1_555 1_555
C9_2 N3 1_555 1_555
H5_2 C9_2 1_555 1_555
C10_2 N3 1_555 1_555
C11_2 C10_2 1_555 1_555
H7_2 C11_2 1_555 1_555
C12_2 C9_2 1_555 1_555
H8_2 C12_2 1_555 1_555
C13_2 C11_2 1_555 1_555
N2_2 C22_2 1_555 1_555
C22_2 H13_2 1_555 1_555
C23_2 N2_2 1_555 1_555
C24_2 C23_2 1_555 1_555
H15_2 C24_2 1_555 1_555
C25_2 C22_2 1_555 1_555
H16_2 C25_2 1_555 1_555
C26_2 C13_2 1_555 1_555
C12_2 C13_2 1_555 1_555
C24_2 C26_2 1_555 1_555
C25_2 C26_2 1_555 1_555
H2 C4 1_555 1_555
C5 C4 1_555 1_555
H3 C5 1_555 1_555
C7 C5 1_555 1_555
C8 C7 1_555 1_555
Zn2 O3 1_555 1_555
O3 C14 1_555 1_555
C14 C15 1_555 1_555
C15 C16 1_555 1_555
C16 H9 1_555 1_555
C17 C15 1_555 1_555
H10 C17 1_555 1_555
C18 C17 1_555 1_555
H11 C18 1_555 1_555
C19 C16 1_555 1_555
H12 C19 1_555 1_555
C20 C18 1_555 1_555
C21 C8 1_555 1_555
C19 C20 1_555 1_555
C20 C21 1_555 1_555
Zn2 O3_2 1_555 1_555
O3_2 C14_2 1_555 1_555
C14_2 C15_2 1_555 1_555
C15_2 C16_2 1_555 1_555
C16_2 H9_2 1_555 1_555
C17_2 C15_2 1_555 1_555
H10_2 C17_2 1_555 1_555
C18_2 C17_2 1_555 1_555
H11_2 C18_2 1_555 1_555
C19_2 C16_2 1_555 1_555
H12_2 C19_2 1_555 1_555
C20_2 C18_2 1_555 1_555
C19_2 C20_2 1_555 1_555
C20_2 C21_2 1_555 1_555
Zn1 O1 1_555 1_555
O1 C1 1_555 1_555
O2_3 C1 1_555 1_555
N1_2 Zn1 1_555 1_555
C1 C2 1_555 1_555
C2 C3 1_555 1_555
C3 H1 1_555 1_555
C6 C3 1_555 1_555
H4 C6 1_555 1_555
C9_3 N1_2 1_555 1_555
H5_3 C9_3 1_555 1_555
C12_3 C9_3 1_555 1_555
C12_3 C13_3 1_555 1_555
H6 C10_3 1_555 1_555
C11_3 C10_3 1_555 1_555
H7_3 C11_3 1_555 1_555
H14_3 C23_3 1_555 1_555
C24_3 C23_3 1_555 1_555
Zn3 N2_3 1_555 1_555
N2_3 C22_3 1_555 1_555
C22_3 H13_3 1_555 1_555
C25_3 C22_3 1_555 1_555
C25_3 C26_3 1_555 1_555
Zn3 O3_3 1_555 1_555
O3_3 C14_3 1_555 1_555
O5_3 C14_3 1_555 1_555
C14_3 C15_3 1_555 1_555
C15_3 C16_3 1_555 1_555
C16_3 H9_3 1_555 1_555
C19_3 C16_3 1_555 1_555
H12_3 C19_3 1_555 1_555
H6_2 C10_4 1_555 1_555
C11_4 C10_4 1_555 1_555
O4 Zn1_2 1_555 1_555
N3_2 Zn1_2 1_555 1_555
O4 C1_2 1_555 1_555
O2_4 C1_2 1_555 1_555
C1_2 C2_2 1_555 1_555
C2_2 C3_2 1_555 1_555
C3_2 H1_2 1_555 1_555
C6_2 C3_2 1_555 1_555
H4_2 C6_2 1_555 1_555
C9_4 N3_2 1_555 1_555
H5_4 C9_4 1_555 1_555
C12_4 C9_4 1_555 1_555
C12_4 C13_4 1_555 1_555
Zn3_2 N2_4 1_555 1_555
N2_4 C22_4 1_555 1_555
C22_4 H13_4 1_555 1_555
C25_4 C22_4 1_555 1_555
C25_4 C26_4 1_555 1_555
Zn3_2 O3_4 1_555 1_555
O3_4 C14_4 1_555 1_555
O5_4 C14_4 1_555 1_555
C14_4 C15_4 1_555 1_555
C15_4 C16_4 1_555 1_555
C16_4 H9_4 1_555 1_555
C19_4 C16_4 1_555 1_555
H12_4 C19_4 1_555 1_555
H14_4 C23_4 1_555 1_555
C24_4 C23_4 1_555 1_555
H15_4 C24_4 1_555 1_555
Zn1_3 O1_2 1_555 1_555
O1_2 C1_3 1_555 1_555
C1_3 C2_3 1_555 1_555
C2_3 C3_3 1_555 1_555
C3_3 H1_3 1_555 1_555
C4_2 C2_3 1_555 1_555
H2_2 C4_2 1_555 1_555
C5_2 C4_2 1_555 1_555
H3_2 C5_2 1_555 1_555
C6_3 C3_3 1_555 1_555
H4_3 C6_3 1_555 1_555
C7_2 C5_2 1_555 1_555
C8_2 C7_2 1_555 1_555
O4_2 Zn1_3 1_555 1_555
H10_3 C17_3 1_555 1_555
C18_3 C17_3 1_555 1_555
H11_3 C18_3 1_555 1_555
C20_3 C18_3 1_555 1_555
C21_3 C8_2 1_555 1_555
C6_3 C7_2 1_555 1_555
C20_3 C21_3 1_555 1_555
O4_2 C1_4 1_555 1_555
C1_4 C2_4 1_555 1_555
C2_4 C3_4 1_555 1_555
C3_4 H1_4 1_555 1_555
C4_3 C2_4 1_555 1_555
H2_3 C4_3 1_555 1_555
C5_3 C4_3 1_555 1_555
H3_3 C5_3 1_555 1_555
C6_4 C3_4 1_555 1_555
H4_4 C6_4 1_555 1_555
C7_3 C5_3 1_555 1_555
C8_3 C7_3 1_555 1_555
C6_4 C7_3 1_555 1_555
H2_4 C4_4 1_555 1_555
C5_4 C4_4 1_555 1_555
H3_4 C5_4 1_555 1_555
C7_4 C5_4 1_555 1_555
C8_4 C7_4 1_555 1_555
H10_4 C17_4 1_555 1_555
C18_4 C17_4 1_555 1_555
H11_4 C18_4 1_555 1_555
C20_4 C18_4 1_555 1_555
C20_4 C21_4 1_555 1_555

#END
