
###############################################################################
#
# This file contains modified crystal structure data generated from the
# MOF subset of the Cambridge Structural Database (CSD) v543 
# hosted by the Cambridge Crystallographic Data Centre (CCDC).
#
# This work is licensed under the Creative Commons
# Attribution-NonCommercial-ShareAlike 4.0 International License.
# To view a copy of this license, visit
# http://creativecommons.org/licenses/by-nc-sa/4.0/
# or send a letter to
# Creative Commons, PO Box 1866, Mountain View, CA 94042, USA.
#
# CIF created using the CSD Python API on 29 September 2022
# The structure has been converted into the P1 space group
# The structure has a 3D framework
# The original CSD entry AFOTOF is in the monoclinic crystal system
# The original CSD entry AFOTOF is in a Sohncke space group
# The framework has been calculated to contain at least 10.0% void space
# The void calculation uses a probe of radius 1.32A, grid spacing 0.4
#
###############################################################################

data_AFOTOF
_chemical_formula_moiety         '(C88 H56 Eu2 O30)n'
_symmetry_cell_setting           triclinic
_symmetry_space_group_name_H-M   'P 1'
_symmetry_Int_Tables_number      1
_space_group_name_Hall           'P 1'
loop_
_symmetry_equiv_pos_site_id
_symmetry_equiv_pos_as_xyz
1 x,y,z
_cell_length_a                   28.945(7)
_cell_length_b                   8.655(2)
_cell_length_c                   14.105(4)
_cell_angle_alpha                90
_cell_angle_beta                 116.326(4)
_cell_angle_gamma                90
_cell_volume                     3167.09
loop_
_atom_site_label
_atom_site_type_symbol
_atom_site_fract_x
_atom_site_fract_y
_atom_site_fract_z
H13 H 0.1744 0.0282 0.0691
O8 O 0.1030(6) 0.006(2) 0.0351(14)
Eu2 Eu 0.272770(16) 0.2323(2) 0.00551(3)
O11 O 0.2231(4) 0.2835(11) 0.0981(7)
O18 O 0.3320(4) 0.1027(12) 0.1691(7)
O23 O 0.3192(4) 0.4254(15) 0.1232(8)
H28 H 0.4167 0.5058 0.0283
H14 H 0.0833 0.0058 0.9717
C25 C 0.3198(6) 0.0314(17) 0.7539(10)
H15 H 0.3323 0.1129 0.8016
C26 C 0.3255(6) 0.0282(18) 0.6582(11)
H16 H 0.3448 0.1049 0.6464
C31 C 0.3460(5) 0.0082(19) 0.4712(10)
H19 H 0.3732 0.0482 0.5311
C32 C 0.3432(6) 0.029(2) 0.3702(10)
H20 H 0.3680 0.0894 0.3626
C36 C 0.2992(5) 0.0096(16) 0.1731(9)
C44 C 0.3519(7) 0.4552(18) 0.9507(15)
H27 H 0.3256 0.5282 0.9309
O9 O 0.2915(4) 0.0372(12) 0.9178(8)
O15 O 0.2404(3) 0.4699(10) 0.9060(6)
O20 O 0.1890(3) 0.1786(11) 0.8716(7)
O24 O 0.3402(5) 0.3189(14) 0.9610(9)
O25 O 0.3970(6) 0.506(2) 0.9649(14)
Eu6 Eu 0.772770(16) 0.7323(2) 0.00551(3)
C1 C 0.2127(5) 0.4125(17) 0.1276(10)
C2 C 0.2053(5) 0.4069(16) 0.2280(9)
C3 C 0.1802(6) 0.5314(17) 0.2461(10)
H1 H 0.1677 0.6129 0.1984
C4 C 0.1745(6) 0.5282(18) 0.3418(11)
H2 H 0.1552 0.6049 0.3536
C5 C 0.1967(6) 0.4163(18) 0.4160(10)
C6 C 0.2204(7) 0.292(2) 0.3926(12)
H3 H 0.2341 0.2113 0.4408
C7 C 0.2234(7) 0.288(2) 0.2972(12)
H4 H 0.2380 0.2024 0.2805
C8 C 0.1945(7) 0.4230(18) 0.5216(10)
C9 C 0.1540(5) 0.5082(19) 0.5288(10)
H5 H 0.1268 0.5482 0.4689
C10 C 0.1568(6) 0.529(2) 0.6298(10)
H6 H 0.1320 0.5894 0.6374
C11 C 0.1953(5) 0.4639(16) 0.7172(10)
C12 C 0.2327(6) 0.3744(17) 0.7077(10)
H7 H 0.2574 0.3239 0.7666
C13 C 0.2332(7) 0.3601(19) 0.6103(11)
H8 H 0.2600 0.3075 0.6051
C14 C 0.2008(5) 0.5096(16) 0.8269(9)
C15 C 0.3336(5) 0.5554(16) 0.1664(10)
C16 C 0.3823(5) 0.5578(17) 0.2642(10)
C17 C 0.4039(7) 0.6915(18) 0.3126(13)
H9 H 0.3860 0.7824 0.2840
C18 C 0.4519(7) 0.704(3) 0.4038(14)
H10 H 0.4666 0.7989 0.4320
C19 C 0.4768(5) 0.556(2) 0.4509(12)
C20 C 0.4556(7) 0.4248(19) 0.3978(15)
H11 H 0.4736 0.3323 0.4194
C21 C 0.4071(7) 0.4259(19) 0.3113(13)
H12 H 0.3910 0.3319 0.2846
C22 C 0.1481(7) 0.9552(18) 0.0493(15)
O1 O 0.2085(4) 0.5372(12) 0.0822(8)
O4 O 0.1680(4) 0.6027(12) 0.8309(7)
O5 O 0.3110(3) 0.6786(11) 0.1284(7)
O7 O 0.1598(5) 0.8189(14) 0.0390(9)
Eu4 Eu 0.227230(16) 0.7323(2) 0.99449(3)
Eu7 Eu 0.727230(16) 0.2323(2) 0.99449(3)
C37 C 0.6664(5) 0.5554(16) 0.8336(10)
C38 C 0.6177(5) 0.5578(17) 0.7358(10)
C39 C 0.5961(7) 0.6915(18) 0.6874(13)
H23 H 0.6140 0.7824 0.7160
C40 C 0.5481(7) 0.704(3) 0.5962(14)
H24 H 0.5334 0.7989 0.5680
C41 C 0.5232(5) 0.556(2) 0.5491(12)
C42 C 0.5444(7) 0.4248(19) 0.6022(15)
H25 H 0.5264 0.3323 0.5806
C43 C 0.5929(7) 0.4259(19) 0.6887(13)
H26 H 0.6090 0.3319 0.7154
O14 O 0.2596(3) 0.9699(10) 0.0940(6)
O19 O 0.6890(3) 0.6786(11) 0.8716(7)
O21 O 0.6808(4) 0.4254(15) 0.8768(8)
C23 C 0.2873(5) 0.9125(17) 0.8724(10)
C24 C 0.2947(5) 0.9069(16) 0.7720(9)
C27 C 0.3033(6) 0.9163(18) 0.5840(10)
C28 C 0.2796(7) 0.792(2) 0.6074(12)
H17 H 0.2659 0.7113 0.5592
C29 C 0.2766(7) 0.788(2) 0.7028(12)
H18 H 0.2620 0.7024 0.7195
C30 C 0.3055(7) 0.9230(18) 0.4784(10)
C33 C 0.3047(5) 0.9639(16) 0.2828(10)
C34 C 0.2673(6) 0.8744(17) 0.2923(10)
H21 H 0.2426 0.8239 0.2334
C35 C 0.2668(7) 0.8601(19) 0.3897(11)
H22 H 0.2400 0.8075 0.3949
O10 O 0.2769(4) 0.7835(11) 0.9019(7)
O22 O 0.1808(4) 0.9254(15) 0.8768(8)
H14_2 H 0.9167 0.0058 0.0283
C25_2 C 0.6802(6) 0.0314(17) 0.2461(10)
H15_2 H 0.6677 0.1129 0.1984
C26_2 C 0.6745(6) 0.0282(18) 0.3418(11)
H16_2 H 0.6552 0.1049 0.3536
C31_2 C 0.6540(5) 0.0082(19) 0.5288(10)
H19_2 H 0.6268 0.0482 0.4689
C32_2 C 0.6568(6) 0.029(2) 0.6298(10)
H20_2 H 0.6320 0.0894 0.6374
C36_2 C 0.7008(5) 0.0096(16) 0.8269(9)
C44_2 C 0.6481(7) 0.4552(18) 0.0493(15)
H27_2 H 0.6744 0.5282 0.0691
O9_2 O 0.7085(4) 0.0372(12) 0.0822(8)
O15_2 O 0.7596(3) 0.4699(10) 0.0940(6)
O16 O 0.6680(4) 0.1027(12) 0.8309(7)
O20_2 O 0.8110(3) 0.1786(11) 0.1284(7)
O24_2 O 0.6598(5) 0.3189(14) 0.0390(9)
O25_2 O 0.6030(6) 0.506(2) 0.0351(14)
H13_2 H 0.8256 0.0282 0.9309
O8_2 O 0.8970(6) 0.006(2) 0.9649(14)
O11_2 O 0.7769(4) 0.2835(11) 0.9019(7)
H28_2 H 0.5833 0.5058 0.9717
C23_2 C 0.7127(5) 0.9125(17) 0.1276(10)
C24_2 C 0.7053(5) 0.9069(16) 0.2280(9)
C27_2 C 0.6967(6) 0.9163(18) 0.4160(10)
C28_2 C 0.7204(7) 0.792(2) 0.3926(12)
H17_2 H 0.7341 0.7113 0.4408
C29_2 C 0.7234(7) 0.788(2) 0.2972(12)
H18_2 H 0.7380 0.7024 0.2805
C30_2 C 0.6945(7) 0.9230(18) 0.5216(10)
C33_2 C 0.6953(5) 0.9639(16) 0.7172(10)
C34_2 C 0.7327(6) 0.8744(17) 0.7077(10)
H21_2 H 0.7574 0.8239 0.7666
C35_2 C 0.7332(7) 0.8601(19) 0.6103(11)
H22_2 H 0.7600 0.8075 0.6051
O10_2 O 0.7231(4) 0.7835(11) 0.0981(7)
O12 O 0.7404(3) 0.9699(10) 0.9060(6)
O17 O 0.8320(4) 0.6027(12) 0.1691(7)
O22_2 O 0.8192(4) 0.9254(15) 0.1232(8)
C1_2 C 0.7873(5) 0.4125(17) 0.8724(10)
C2_2 C 0.7947(5) 0.4069(16) 0.7720(9)
C3_2 C 0.8198(6) 0.5314(17) 0.7539(10)
H1_2 H 0.8323 0.6129 0.8016
C4_2 C 0.8255(6) 0.5282(18) 0.6582(11)
H2_2 H 0.8448 0.6049 0.6464
C5_2 C 0.8033(6) 0.4163(18) 0.5840(10)
C6_2 C 0.7796(7) 0.292(2) 0.6074(12)
H3_2 H 0.7659 0.2113 0.5592
C7_2 C 0.7766(7) 0.288(2) 0.7028(12)
H4_2 H 0.7620 0.2024 0.7195
C8_2 C 0.8055(7) 0.4230(18) 0.4784(10)
C9_2 C 0.8460(5) 0.5082(19) 0.4712(10)
H5_2 H 0.8732 0.5482 0.5311
C10_2 C 0.8432(6) 0.529(2) 0.3702(10)
H6_2 H 0.8680 0.5894 0.3626
C11_2 C 0.8047(5) 0.4639(16) 0.2828(10)
C12_2 C 0.7673(6) 0.3744(17) 0.2923(10)
H7_2 H 0.7426 0.3239 0.2334
C13_2 C 0.7668(7) 0.3601(19) 0.3897(11)
H8_2 H 0.7400 0.3075 0.3949
C14_2 C 0.7992(5) 0.5096(16) 0.1731(9)
C22_2 C 0.8519(7) 0.9552(18) 0.9507(15)
O1_2 O 0.7915(4) 0.5372(12) 0.9178(8)
O7_2 O 0.8402(5) 0.8189(14) 0.9610(9)
C37_2 C 0.1664(5) 0.0554(16) 0.8336(10)
C38_2 C 0.1177(5) 0.0578(17) 0.7358(10)
C39_2 C 0.0961(7) 0.1915(18) 0.6874(13)
H23_2 H 0.1140 0.2824 0.7160
C40_2 C 0.0481(7) 0.204(3) 0.5962(14)
H24_2 H 0.0334 0.2989 0.5680
C41_2 C 0.0232(5) 0.056(2) 0.5491(12)
C42_2 C 0.0444(7) 0.9248(19) 0.6022(15)
H25_2 H 0.0264 0.8323 0.5806
C43_2 C 0.0929(7) 0.9259(19) 0.6887(13)
H26_2 H 0.1090 0.8319 0.7154
C15_2 C 0.8336(5) 0.0554(16) 0.1664(10)
C16_2 C 0.8823(5) 0.0578(17) 0.2642(10)
C17_2 C 0.9039(7) 0.1915(18) 0.3126(13)
H9_2 H 0.8860 0.2824 0.2840
C18_2 C 0.9519(7) 0.204(3) 0.4038(14)
H10_2 H 0.9666 0.2989 0.4320
C19_2 C 0.9768(5) 0.056(2) 0.4509(12)
C20_2 C 0.9556(7) 0.9248(19) 0.3978(15)
H11_2 H 0.9736 0.8323 0.4194
C21_2 C 0.9071(7) 0.9259(19) 0.3113(13)
H12_2 H 0.8910 0.8319 0.2846
loop_
_geom_bond_atom_site_label_1
_geom_bond_atom_site_label_2
_geom_bond_site_symmetry_1
_geom_bond_site_symmetry_2
O11 Eu2 1_555 1_555
O18 Eu2 1_555 1_555
O23 Eu2 1_555 1_555
C25 H15 1_555 1_555
C26 C25 1_555 1_555
H16 C26 1_555 1_555
H19 C31 1_555 1_555
C32 C31 1_555 1_555
H20 C32 1_555 1_555
C44 H27 1_555 1_555
O25 C44 1_555 1_555
C36 O18 1_555 1_555
C44 O24 1_555 1_555
C1 C2 1_555 1_555
C2 C3 1_555 1_555
C3 H1 1_555 1_555
C4 C3 1_555 1_555
H2 C4 1_555 1_555
C5 C4 1_555 1_555
C6 C5 1_555 1_555
H3 C6 1_555 1_555
C7 C2 1_555 1_555
H4 C7 1_555 1_555
C8 C5 1_555 1_555
C9 C8 1_555 1_555
H5 C9 1_555 1_555
C10 C9 1_555 1_555
H6 C10 1_555 1_555
C11 C10 1_555 1_555
C12 C11 1_555 1_555
H7 C12 1_555 1_555
C13 C8 1_555 1_555
H8 C13 1_555 1_555
C14 C11 1_555 1_555
C15 C16 1_555 1_555
C16 C17 1_555 1_555
C17 H9 1_555 1_555
C18 C17 1_555 1_555
H10 C18 1_555 1_555
C19 C18 1_555 1_555
C20 C19 1_555 1_555
H11 C20 1_555 1_555
C21 C16 1_555 1_555
H12 C21 1_555 1_555
O1 C1 1_555 1_555
O11 C1 1_555 1_555
O15 C14 1_555 1_555
O4 C14 1_555 1_555
O23 C15 1_555 1_555
Eu4 O15 1_555 1_555
Eu7 O21 1_555 1_555
C37 C38 1_555 1_555
C38 C39 1_555 1_555
C39 H23 1_555 1_555
C40 C39 1_555 1_555
H24 C40 1_555 1_555
C41 C19 1_555 1_555
C42 C41 1_555 1_555
H25 C42 1_555 1_555
C43 C38 1_555 1_555
H26 C43 1_555 1_555
O19 C37 1_555 1_555
O21 C37 1_555 1_555
C6 C7 1_555 1_555
C12 C13 1_555 1_555
C15 O5 1_555 1_555
C20 C21 1_555 1_555
C22 O7 1_555 1_555
O4 Eu4 1_555 1_555
C40 C41 1_555 1_555
C42 C43 1_555 1_555
C23 C24 1_555 1_555
C28 C27 1_555 1_555
H17 C28 1_555 1_555
C29 C24 1_555 1_555
H18 C29 1_555 1_555
C30 C27 1_555 1_555
C34 C33 1_555 1_555
H21 C34 1_555 1_555
C35 C30 1_555 1_555
H22 C35 1_555 1_555
O10 Eu4 1_555 1_555
O22 Eu4 1_555 1_555
C23 O10 1_555 1_555
C28 C29 1_555 1_555
C34 C35 1_555 1_555
C25_2 H15_2 1_555 1_555
C26_2 C25_2 1_555 1_555
H16_2 C26_2 1_555 1_555
H19_2 C31_2 1_555 1_555
C32_2 C31_2 1_555 1_555
H20_2 C32_2 1_555 1_555
C44_2 H27_2 1_555 1_555
O16 Eu7 1_555 1_555
O25_2 C44_2 1_555 1_555
C36_2 O16 1_555 1_555
C44_2 O24_2 1_555 1_555
O11_2 Eu7 1_555 1_555
C23_2 C24_2 1_555 1_555
C28_2 C27_2 1_555 1_555
H17_2 C28_2 1_555 1_555
C29_2 C24_2 1_555 1_555
H18_2 C29_2 1_555 1_555
C30_2 C27_2 1_555 1_555
C34_2 C33_2 1_555 1_555
H21_2 C34_2 1_555 1_555
C35_2 C30_2 1_555 1_555
H22_2 C35_2 1_555 1_555
O10_2 Eu6 1_555 1_555
O15_2 Eu6 1_555 1_555
O17 Eu6 1_555 1_555
O22_2 Eu6 1_555 1_555
C23_2 O10_2 1_555 1_555
C28_2 C29_2 1_555 1_555
C34_2 C35_2 1_555 1_555
C1_2 C2_2 1_555 1_555
C2_2 C3_2 1_555 1_555
C3_2 H1_2 1_555 1_555
C4_2 C3_2 1_555 1_555
H2_2 C4_2 1_555 1_555
C5_2 C4_2 1_555 1_555
C6_2 C5_2 1_555 1_555
H3_2 C6_2 1_555 1_555
C7_2 C2_2 1_555 1_555
H4_2 C7_2 1_555 1_555
C8_2 C5_2 1_555 1_555
C9_2 C8_2 1_555 1_555
H5_2 C9_2 1_555 1_555
C10_2 C9_2 1_555 1_555
H6_2 C10_2 1_555 1_555
C11_2 C10_2 1_555 1_555
C12_2 C11_2 1_555 1_555
H7_2 C12_2 1_555 1_555
C13_2 C8_2 1_555 1_555
H8_2 C13_2 1_555 1_555
C14_2 C11_2 1_555 1_555
O1_2 C1_2 1_555 1_555
O11_2 C1_2 1_555 1_555
O15_2 C14_2 1_555 1_555
O17 C14_2 1_555 1_555
C6_2 C7_2 1_555 1_555
C12_2 C13_2 1_555 1_555
C22_2 O7_2 1_555 1_555
C37_2 C38_2 1_555 1_555
C38_2 C39_2 1_555 1_555
C39_2 H23_2 1_555 1_555
C40_2 C39_2 1_555 1_555
H24_2 C40_2 1_555 1_555
O20 C37_2 1_555 1_555
C40_2 C41_2 1_555 1_555
H25_2 C42_2 1_555 1_555
H26_2 C43_2 1_555 1_555
C42_2 C43_2 1_555 1_555
C15_2 C16_2 1_555 1_555
C16_2 C17_2 1_555 1_555
C17_2 H9_2 1_555 1_555
C18_2 C17_2 1_555 1_555
H10_2 C18_2 1_555 1_555
C19_2 C18_2 1_555 1_555
C15_2 O20_2 1_555 1_555
H11_2 C20_2 1_555 1_555
H12_2 C21_2 1_555 1_555
C20_2 C21_2 1_555 1_555

#END
