
###############################################################################
#
# This file contains modified crystal structure data generated from the
# MOF subset of the Cambridge Structural Database (CSD) v543 
# hosted by the Cambridge Crystallographic Data Centre (CCDC).
#
# This work is licensed under the Creative Commons
# Attribution-NonCommercial-ShareAlike 4.0 International License.
# To view a copy of this license, visit
# http://creativecommons.org/licenses/by-nc-sa/4.0/
# or send a letter to
# Creative Commons, PO Box 1866, Mountain View, CA 94042, USA.
#
# CIF created using the CSD Python API on 29 September 2022
# The structure has been converted into the P1 space group
# The structure has a 3D framework
# The original CSD entry AFOVIB is in the monoclinic crystal system
# The original CSD entry AFOVIB is in a Sohncke space group
# The framework has been calculated to contain at least 10.0% void space
# The void calculation uses a probe of radius 1.32A, grid spacing 0.4
#
###############################################################################

data_AFOVIB
_chemical_formula_moiety         '(C88 H56 Gd2 O30)n'
_symmetry_cell_setting           triclinic
_symmetry_space_group_name_H-M   'P 1'
_symmetry_Int_Tables_number      1
_space_group_name_Hall           'P 1'
loop_
_symmetry_equiv_pos_site_id
_symmetry_equiv_pos_as_xyz
1 x,y,z
_cell_length_a                   28.905(8)
_cell_length_b                   8.622(3)
_cell_length_c                   14.066(4)
_cell_angle_alpha                90
_cell_angle_beta                 116.395(5)
_cell_angle_gamma                90
_cell_volume                     3140.07
loop_
_atom_site_label
_atom_site_type_symbol
_atom_site_fract_x
_atom_site_fract_y
_atom_site_fract_z
H13 H 0.1701 0.0341 0.0574
Gd2 Gd 0.272679(19) 0.23287(19) 0.00553(3)
O11 O 0.2244(5) 0.2829(12) 0.0985(9)
O18 O 0.3309(4) 0.1015(13) 0.1677(8)
O23 O 0.3182(5) 0.4248(15) 0.1250(10)
H28 H 0.4172 0.5214 0.0172
H14 H 0.0828 0.0214 0.9828
C25 C 0.3199(7) 0.0305(18) 0.7542(11)
H15 H 0.3323 0.1126 0.8018
C26 C 0.3259(7) 0.030(2) 0.6592(12)
H16 H 0.3444 0.1090 0.6469
C31 C 0.3462(7) 0.010(2) 0.4719(12)
H19 H 0.3730 0.0526 0.5317
C32 C 0.3437(7) 0.031(2) 0.3718(11)
H20 H 0.3688 0.0898 0.3645
C36 C 0.2995(6) 0.0115(17) 0.1742(10)
C44 C 0.3533(7) 0.4541(19) 0.9540(18)
H27 H 0.3299 0.5341 0.9426
O9 O 0.2917(5) 0.0348(14) 0.9167(10)
O15 O 0.2406(4) 0.4661(11) 0.9076(8)
O20 O 0.1892(5) 0.1774(14) 0.8735(9)
O24 O 0.3399(5) 0.3203(15) 0.9645(12)
O25 O 0.3978(7) 0.490(3) 0.9577(17)
Gd6 Gd 0.772679(19) 0.73287(19) 0.00553(3)
C1 C 0.2132(6) 0.4132(18) 0.1286(11)
C2 C 0.2044(6) 0.4078(17) 0.2263(11)
C3 C 0.1801(7) 0.5305(18) 0.2458(11)
H1 H 0.1677 0.6126 0.1982
C4 C 0.1741(7) 0.530(2) 0.3408(12)
H2 H 0.1556 0.6090 0.3531
C5 C 0.1955(7) 0.4123(19) 0.4158(11)
C6 C 0.2195(9) 0.291(2) 0.3928(14)
H3 H 0.2334 0.2116 0.4418
C7 C 0.2236(8) 0.285(2) 0.2971(14)
H4 H 0.2390 0.2001 0.2815
C8 C 0.1933(8) 0.422(2) 0.5199(12)
C9 C 0.1538(7) 0.510(2) 0.5281(12)
H5 H 0.1270 0.5526 0.4683
C10 C 0.1563(7) 0.531(2) 0.6282(11)
H6 H 0.1312 0.5898 0.6355
C11 C 0.1957(6) 0.4643(19) 0.7176(11)
C12 C 0.2327(8) 0.373(2) 0.7081(14)
H7 H 0.2577 0.3228 0.7674
C13 C 0.2325(8) 0.355(2) 0.6096(13)
H8 H 0.2585 0.2987 0.6036
C14 C 0.2005(6) 0.5115(17) 0.8258(10)
C15 C 0.3337(6) 0.5563(16) 0.1665(12)
C16 C 0.3821(7) 0.561(2) 0.2655(13)
C17 C 0.4032(8) 0.692(2) 0.3111(16)
H9 H 0.3866 0.7843 0.2807
C18 C 0.4497(8) 0.698(3) 0.4042(18)
H10 H 0.4634 0.7934 0.4347
C19 C 0.4759(8) 0.559(2) 0.4520(16)
C20 C 0.4555(9) 0.425(2) 0.3994(19)
H11 H 0.4734 0.3323 0.4235
C21 C 0.4081(9) 0.425(2) 0.3101(17)
H12 H 0.3934 0.3307 0.2793
C22 C 0.1467(7) 0.9541(19) 0.0460(18)
O1 O 0.2083(5) 0.5348(14) 0.0833(10)
O4 O 0.1691(4) 0.6015(13) 0.8323(8)
O5 O 0.3108(5) 0.6774(14) 0.1265(9)
O7 O 0.1601(5) 0.8203(15) 0.0355(12)
O8 O 0.1022(7) 0.990(3) 0.0423(17)
Gd4 Gd 0.227321(19) 0.73287(19) 0.99447(3)
Gd7 Gd 0.727321(19) 0.23287(19) 0.99447(3)
C37 C 0.6663(6) 0.5563(16) 0.8335(12)
C38 C 0.6179(7) 0.561(2) 0.7345(13)
C39 C 0.5968(8) 0.692(2) 0.6889(16)
H23 H 0.6134 0.7843 0.7193
C40 C 0.5503(8) 0.698(3) 0.5958(18)
H24 H 0.5366 0.7934 0.5653
C41 C 0.5241(8) 0.559(2) 0.5480(16)
C42 C 0.5445(9) 0.425(2) 0.6006(19)
H25 H 0.5266 0.3323 0.5765
C43 C 0.5919(9) 0.425(2) 0.6899(17)
H26 H 0.6066 0.3307 0.7207
O14 O 0.2594(4) 0.9661(11) 0.0924(8)
O19 O 0.6892(5) 0.6774(14) 0.8735(9)
O21 O 0.6818(5) 0.4248(15) 0.8750(10)
C23 C 0.2868(6) 0.9132(18) 0.8714(11)
C24 C 0.2956(6) 0.9078(17) 0.7737(11)
C27 C 0.3045(7) 0.9123(19) 0.5842(11)
C28 C 0.2805(9) 0.791(2) 0.6072(14)
H17 H 0.2666 0.7116 0.5582
C29 C 0.2764(8) 0.785(2) 0.7029(14)
H18 H 0.2610 0.7001 0.7185
C30 C 0.3067(8) 0.922(2) 0.4801(12)
C33 C 0.3043(6) 0.9643(19) 0.2824(11)
C34 C 0.2673(8) 0.873(2) 0.2919(14)
H21 H 0.2423 0.8228 0.2326
C35 C 0.2675(8) 0.855(2) 0.3904(13)
H22 H 0.2415 0.7987 0.3964
O10 O 0.2756(5) 0.7829(12) 0.9015(9)
O22 O 0.1818(5) 0.9248(15) 0.8750(10)
H14_2 H 0.9172 0.0214 0.0172
C25_2 C 0.6801(7) 0.0305(18) 0.2458(11)
H15_2 H 0.6677 0.1126 0.1982
C26_2 C 0.6741(7) 0.030(2) 0.3408(12)
H16_2 H 0.6556 0.1090 0.3531
C31_2 C 0.6538(7) 0.010(2) 0.5281(12)
H19_2 H 0.6270 0.0526 0.4683
C32_2 C 0.6563(7) 0.031(2) 0.6282(11)
H20_2 H 0.6312 0.0898 0.6355
C36_2 C 0.7005(6) 0.0115(17) 0.8258(10)
C44_2 C 0.6467(7) 0.4541(19) 0.0460(18)
H27_2 H 0.6701 0.5341 0.0574
O9_2 O 0.7083(5) 0.0348(14) 0.0833(10)
O15_2 O 0.7594(4) 0.4661(11) 0.0924(8)
O16 O 0.6691(4) 0.1015(13) 0.8323(8)
O20_2 O 0.8108(5) 0.1774(14) 0.1265(9)
O24_2 O 0.6601(5) 0.3203(15) 0.0355(12)
O25_2 O 0.6022(7) 0.490(3) 0.0423(17)
H13_2 H 0.8299 0.0341 0.9426
O11_2 O 0.7756(5) 0.2829(12) 0.9015(9)
H28_2 H 0.5828 0.5214 0.9828
C23_2 C 0.7132(6) 0.9132(18) 0.1286(11)
C24_2 C 0.7044(6) 0.9078(17) 0.2263(11)
C27_2 C 0.6955(7) 0.9123(19) 0.4158(11)
C28_2 C 0.7195(9) 0.791(2) 0.3928(14)
H17_2 H 0.7334 0.7116 0.4418
C29_2 C 0.7236(8) 0.785(2) 0.2971(14)
H18_2 H 0.7390 0.7001 0.2815
C30_2 C 0.6933(8) 0.922(2) 0.5199(12)
C33_2 C 0.6957(6) 0.9643(19) 0.7176(11)
C34_2 C 0.7327(8) 0.873(2) 0.7081(14)
H21_2 H 0.7577 0.8228 0.7674
C35_2 C 0.7325(8) 0.855(2) 0.6096(13)
H22_2 H 0.7585 0.7987 0.6036
O10_2 O 0.7244(5) 0.7829(12) 0.0985(9)
O12 O 0.7406(4) 0.9661(11) 0.9076(8)
O17 O 0.8309(4) 0.6015(13) 0.1677(8)
O22_2 O 0.8182(5) 0.9248(15) 0.1250(10)
C1_2 C 0.7868(6) 0.4132(18) 0.8714(11)
C2_2 C 0.7956(6) 0.4078(17) 0.7737(11)
C3_2 C 0.8199(7) 0.5305(18) 0.7542(11)
H1_2 H 0.8323 0.6126 0.8018
C4_2 C 0.8259(7) 0.530(2) 0.6592(12)
H2_2 H 0.8444 0.6090 0.6469
C5_2 C 0.8045(7) 0.4123(19) 0.5842(11)
C6_2 C 0.7805(9) 0.291(2) 0.6072(14)
H3_2 H 0.7666 0.2116 0.5582
C7_2 C 0.7764(8) 0.285(2) 0.7029(14)
H4_2 H 0.7610 0.2001 0.7185
C8_2 C 0.8067(8) 0.422(2) 0.4801(12)
C9_2 C 0.8462(7) 0.510(2) 0.4719(12)
H5_2 H 0.8730 0.5526 0.5317
C10_2 C 0.8437(7) 0.531(2) 0.3718(11)
H6_2 H 0.8688 0.5898 0.3645
C11_2 C 0.8043(6) 0.4643(19) 0.2824(11)
C12_2 C 0.7673(8) 0.373(2) 0.2919(14)
H7_2 H 0.7423 0.3228 0.2326
C13_2 C 0.7675(8) 0.355(2) 0.3904(13)
H8_2 H 0.7415 0.2987 0.3964
C14_2 C 0.7995(6) 0.5115(17) 0.1742(10)
C22_2 C 0.8533(7) 0.9541(19) 0.9540(18)
O1_2 O 0.7917(5) 0.5348(14) 0.9167(10)
O7_2 O 0.8399(5) 0.8203(15) 0.9645(12)
O8_2 O 0.8978(7) 0.990(3) 0.9577(17)
C37_2 C 0.1663(6) 0.0563(16) 0.8335(12)
C38_2 C 0.1179(7) 0.061(2) 0.7345(13)
C39_2 C 0.0968(8) 0.192(2) 0.6889(16)
H23_2 H 0.1134 0.2843 0.7193
C40_2 C 0.0503(8) 0.198(3) 0.5958(18)
H24_2 H 0.0366 0.2934 0.5653
C41_2 C 0.0241(8) 0.059(2) 0.5480(16)
C42_2 C 0.0445(9) 0.925(2) 0.6006(19)
H25_2 H 0.0266 0.8323 0.5765
C43_2 C 0.0919(9) 0.925(2) 0.6899(17)
H26_2 H 0.1066 0.8307 0.7207
C15_2 C 0.8337(6) 0.0563(16) 0.1665(12)
C16_2 C 0.8821(7) 0.061(2) 0.2655(13)
C17_2 C 0.9032(8) 0.192(2) 0.3111(16)
H9_2 H 0.8866 0.2843 0.2807
C18_2 C 0.9497(8) 0.198(3) 0.4042(18)
H10_2 H 0.9634 0.2934 0.4347
C19_2 C 0.9759(8) 0.059(2) 0.4520(16)
C20_2 C 0.9555(9) 0.925(2) 0.3994(19)
H11_2 H 0.9734 0.8323 0.4235
C21_2 C 0.9081(9) 0.925(2) 0.3101(17)
H12_2 H 0.8934 0.8307 0.2793
loop_
_geom_bond_atom_site_label_1
_geom_bond_atom_site_label_2
_geom_bond_site_symmetry_1
_geom_bond_site_symmetry_2
O11 Gd2 1_555 1_555
O18 Gd2 1_555 1_555
O23 Gd2 1_555 1_555
C25 H15 1_555 1_555
C26 C25 1_555 1_555
H16 C26 1_555 1_555
H19 C31 1_555 1_555
C32 C31 1_555 1_555
H20 C32 1_555 1_555
C44 H27 1_555 1_555
O25 C44 1_555 1_555
C36 O18 1_555 1_555
C44 O24 1_555 1_555
C1 C2 1_555 1_555
C2 C3 1_555 1_555
C3 H1 1_555 1_555
C4 C3 1_555 1_555
H2 C4 1_555 1_555
C5 C4 1_555 1_555
C6 C5 1_555 1_555
H3 C6 1_555 1_555
C7 C2 1_555 1_555
H4 C7 1_555 1_555
C8 C5 1_555 1_555
C9 C8 1_555 1_555
H5 C9 1_555 1_555
C10 C9 1_555 1_555
H6 C10 1_555 1_555
C11 C10 1_555 1_555
C12 C11 1_555 1_555
H7 C12 1_555 1_555
C13 C8 1_555 1_555
H8 C13 1_555 1_555
C14 C11 1_555 1_555
C15 C16 1_555 1_555
C16 C17 1_555 1_555
C17 H9 1_555 1_555
C18 C17 1_555 1_555
H10 C18 1_555 1_555
C19 C18 1_555 1_555
C20 C19 1_555 1_555
H11 C20 1_555 1_555
C21 C16 1_555 1_555
H12 C21 1_555 1_555
O1 C1 1_555 1_555
O11 C1 1_555 1_555
O15 C14 1_555 1_555
O4 C14 1_555 1_555
O23 C15 1_555 1_555
O8 C22 1_555 1_555
Gd4 O15 1_555 1_555
Gd7 O21 1_555 1_555
C37 C38 1_555 1_555
C38 C39 1_555 1_555
C39 H23 1_555 1_555
C40 C39 1_555 1_555
H24 C40 1_555 1_555
C41 C19 1_555 1_555
C42 C41 1_555 1_555
H25 C42 1_555 1_555
C43 C38 1_555 1_555
H26 C43 1_555 1_555
O19 C37 1_555 1_555
O21 C37 1_555 1_555
C6 C7 1_555 1_555
C12 C13 1_555 1_555
C15 O5 1_555 1_555
C20 C21 1_555 1_555
C22 O7 1_555 1_555
O4 Gd4 1_555 1_555
C40 C41 1_555 1_555
C42 C43 1_555 1_555
C23 C24 1_555 1_555
C28 C27 1_555 1_555
H17 C28 1_555 1_555
C29 C24 1_555 1_555
H18 C29 1_555 1_555
C30 C27 1_555 1_555
C34 C33 1_555 1_555
H21 C34 1_555 1_555
C35 C30 1_555 1_555
H22 C35 1_555 1_555
O10 Gd4 1_555 1_555
O22 Gd4 1_555 1_555
C23 O10 1_555 1_555
C28 C29 1_555 1_555
C34 C35 1_555 1_555
C25_2 H15_2 1_555 1_555
C26_2 C25_2 1_555 1_555
H16_2 C26_2 1_555 1_555
H19_2 C31_2 1_555 1_555
C32_2 C31_2 1_555 1_555
H20_2 C32_2 1_555 1_555
C44_2 H27_2 1_555 1_555
O16 Gd7 1_555 1_555
O25_2 C44_2 1_555 1_555
C36_2 O16 1_555 1_555
C44_2 O24_2 1_555 1_555
O11_2 Gd7 1_555 1_555
C23_2 C24_2 1_555 1_555
C28_2 C27_2 1_555 1_555
H17_2 C28_2 1_555 1_555
C29_2 C24_2 1_555 1_555
H18_2 C29_2 1_555 1_555
C30_2 C27_2 1_555 1_555
C34_2 C33_2 1_555 1_555
H21_2 C34_2 1_555 1_555
C35_2 C30_2 1_555 1_555
H22_2 C35_2 1_555 1_555
O10_2 Gd6 1_555 1_555
O15_2 Gd6 1_555 1_555
O17 Gd6 1_555 1_555
O22_2 Gd6 1_555 1_555
C23_2 O10_2 1_555 1_555
C28_2 C29_2 1_555 1_555
C34_2 C35_2 1_555 1_555
C1_2 C2_2 1_555 1_555
C2_2 C3_2 1_555 1_555
C3_2 H1_2 1_555 1_555
C4_2 C3_2 1_555 1_555
H2_2 C4_2 1_555 1_555
C5_2 C4_2 1_555 1_555
C6_2 C5_2 1_555 1_555
H3_2 C6_2 1_555 1_555
C7_2 C2_2 1_555 1_555
H4_2 C7_2 1_555 1_555
C8_2 C5_2 1_555 1_555
C9_2 C8_2 1_555 1_555
H5_2 C9_2 1_555 1_555
C10_2 C9_2 1_555 1_555
H6_2 C10_2 1_555 1_555
C11_2 C10_2 1_555 1_555
C12_2 C11_2 1_555 1_555
H7_2 C12_2 1_555 1_555
C13_2 C8_2 1_555 1_555
H8_2 C13_2 1_555 1_555
C14_2 C11_2 1_555 1_555
O1_2 C1_2 1_555 1_555
O11_2 C1_2 1_555 1_555
O15_2 C14_2 1_555 1_555
O17 C14_2 1_555 1_555
O8_2 C22_2 1_555 1_555
C6_2 C7_2 1_555 1_555
C12_2 C13_2 1_555 1_555
C22_2 O7_2 1_555 1_555
C37_2 C38_2 1_555 1_555
C38_2 C39_2 1_555 1_555
C39_2 H23_2 1_555 1_555
C40_2 C39_2 1_555 1_555
H24_2 C40_2 1_555 1_555
O20 C37_2 1_555 1_555
C40_2 C41_2 1_555 1_555
H25_2 C42_2 1_555 1_555
H26_2 C43_2 1_555 1_555
C42_2 C43_2 1_555 1_555
C15_2 C16_2 1_555 1_555
C16_2 C17_2 1_555 1_555
C17_2 H9_2 1_555 1_555
C18_2 C17_2 1_555 1_555
H10_2 C18_2 1_555 1_555
C19_2 C18_2 1_555 1_555
C15_2 O20_2 1_555 1_555
H11_2 C20_2 1_555 1_555
H12_2 C21_2 1_555 1_555
C20_2 C21_2 1_555 1_555

#END
