
###############################################################################
#
# This file contains modified crystal structure data generated from the
# MOF subset of the Cambridge Structural Database (CSD) v543 
# hosted by the Cambridge Crystallographic Data Centre (CCDC).
#
# This work is licensed under the Creative Commons
# Attribution-NonCommercial-ShareAlike 4.0 International License.
# To view a copy of this license, visit
# http://creativecommons.org/licenses/by-nc-sa/4.0/
# or send a letter to
# Creative Commons, PO Box 1866, Mountain View, CA 94042, USA.
#
# CIF created using the CSD Python API on 29 September 2022
# The structure has been converted into the P1 space group
# The structure has a 3D framework
# The original CSD entry AGARUW is in the orthorhombic crystal system
# The framework has been calculated to contain at least 10.0% void space
# The void calculation uses a probe of radius 1.32A, grid spacing 0.4
#
###############################################################################

data_AGARUW
_chemical_formula_moiety         '(C44 H32 La8 N16 O52)n'
_symmetry_cell_setting           triclinic
_symmetry_space_group_name_H-M   'P 1'
_symmetry_Int_Tables_number      1
_space_group_name_Hall           'P 1'
loop_
_symmetry_equiv_pos_site_id
_symmetry_equiv_pos_as_xyz
1 x,y,z
_cell_length_a                   8.521(2)
_cell_length_b                   18.477(4)
_cell_length_c                   15.380(4)
_cell_angle_alpha                90
_cell_angle_beta                 90
_cell_angle_gamma                90
_cell_volume                     2421.47
loop_
_atom_site_label
_atom_site_type_symbol
_atom_site_fract_x
_atom_site_fract_y
_atom_site_fract_z
La4 La 0.15604(5) 0.38324(2) 0.78446(3)
La1 La 0.34396(5) 0.61676(2) 0.28446(3)
O1 O 0.3897(7) 0.4901(4) 0.1754(4)
O2 O 0.5890(7) 0.5458(3) 0.2341(4)
C1 C 0.5309(9) 0.5035(5) 0.1781(5)
C2 C 0.6409(9) 0.4719(4) 0.1150(5)
C3 C 0.6167(9) 0.4310(4) 0.0403(5)
H1 H 0.5204 0.4137 0.0190
C4 C 0.7627(9) 0.4211(4) 0.0040(5)
N1 N 0.8658(8) 0.4549(4) 0.0577(5)
H2 H 0.9667 0.4558 0.0490
N2 N 0.7957(8) 0.4864(4) 0.1250(4)
C6 C 0.5303(13) 0.7500 0.2491(8)
O5 O 0.5867(6) 0.6892(3) 0.2265(4)
O6 O 0.4036(9) 0.7500 0.2943(6)
O7 O 0.2200(8) 0.6445(4) 0.4312(4)
H3 H 0.1886 0.6880 0.4347
H4 H 0.2808 0.6348 0.4735
La3 La 0.84396(5) 0.61676(2) 0.21554(3)
La6 La 0.34396(5) 0.88324(2) 0.28446(3)
La7 La 0.84396(5) 0.88324(2) 0.21554(3)
La8 La 0.65604(5) 0.38324(2) 0.71554(3)
O9 O 0.0890(7) 0.5458(3) 0.2659(4)
C7 C 0.0309(9) 0.5035(5) 0.3219(5)
C8 C 0.1409(9) 0.4719(4) 0.3850(5)
C9 C 0.1167(9) 0.4310(4) 0.4597(5)
H5 H 0.0204 0.4137 0.4810
C10 C 0.2627(9) 0.4211(4) 0.4960(5)
C11 C 0.3141(9) 0.3878(5) 0.5786(5)
N3 N 0.3658(8) 0.4549(4) 0.4423(5)
H6 H 0.4667 0.4558 0.4510
N4 N 0.2957(8) 0.4864(4) 0.3750(4)
O11 O 0.4572(7) 0.3909(3) 0.5941(4)
O12 O 0.5428(7) 0.6091(3) 0.4059(4)
O13 O 0.0428(7) 0.6091(3) 0.0941(4)
O14 O 0.2100(7) 0.3613(3) 0.6253(4)
O15 O 0.2900(7) 0.6387(3) 0.1253(4)
O17 O 0.5867(6) 0.8108(3) 0.2265(4)
O18 O 0.0867(6) 0.6892(3) 0.2735(4)
C5 C 0.8141(9) 0.3878(5) 0.9214(5)
O3 O 0.9572(7) 0.3909(3) 0.9059(4)
O4 O 0.7100(7) 0.3613(3) 0.8747(4)
O8 O 0.8897(7) 0.4901(4) 0.3246(4)
O16 O 0.7900(7) 0.6387(3) 0.3747(4)
O20 O 0.9036(9) 0.7500 0.2057(6)
O21 O 0.7200(8) 0.6445(4) 0.0688(4)
H7 H 0.6886 0.6880 0.0653
H8 H 0.7808 0.6348 0.0265
C11_2 C 0.1859(9) 0.6122(5) 0.0786(5)
O1_2 O 0.1103(7) 0.5099(4) 0.6754(4)
O6_2 O 0.0964(9) 0.2500 0.7943(6)
O7_2 O 0.2800(8) 0.3555(4) 0.9312(4)
H3_2 H 0.3114 0.3120 0.9347
H4_2 H 0.2192 0.3652 0.9735
La6_2 La 0.15604(5) 0.11676(2) 0.78446(3)
O8_2 O 0.6103(7) 0.5099(4) 0.8246(4)
O9_2 O 0.4110(7) 0.4542(3) 0.7659(4)
O10 O 0.9110(7) 0.4542(3) 0.7341(4)
C7_2 C 0.4691(9) 0.4965(5) 0.8219(5)
C8_2 C 0.3591(9) 0.5281(4) 0.8850(5)
C9_2 C 0.3833(9) 0.5690(4) 0.9597(5)
H5_2 H 0.4796 0.5863 0.9810
C10_2 C 0.2373(9) 0.5789(4) 0.9960(5)
N3_2 N 0.1342(8) 0.5451(4) 0.9423(5)
H6_2 H 0.0333 0.5442 0.9510
N4_2 N 0.2043(8) 0.5136(4) 0.8750(4)
N5 N 0.7043(8) 0.5136(4) 0.6250(4)
O18_2 O 0.4133(6) 0.3108(3) 0.7735(4)
O19 O 0.9133(6) 0.3108(3) 0.7265(4)
O20_2 O 0.5964(9) 0.2500 0.7057(6)
O21_2 O 0.7800(8) 0.3555(4) 0.5688(4)
H7_2 H 0.8114 0.3120 0.5653
H8_2 H 0.7192 0.3652 0.5265
C1_2 C 0.9691(9) 0.4965(5) 0.6781(5)
C2_2 C 0.8591(9) 0.5281(4) 0.6150(5)
C3_2 C 0.8833(9) 0.5690(4) 0.5403(5)
H1_2 H 0.9796 0.5863 0.5190
C4_2 C 0.7373(9) 0.5789(4) 0.5040(5)
C5_2 C 0.6859(9) 0.6122(5) 0.4214(5)
N1_2 N 0.6342(8) 0.5451(4) 0.5577(5)
H2_2 H 0.5333 0.5442 0.5490
C6_2 C 0.9697(13) 0.2500 0.7491(8)
La7_2 La 0.65604(5) 0.11676(2) 0.71554(3)
O17_2 O 0.9133(6) 0.1892(3) 0.7265(4)
O10_2 O 0.4110(7) 0.0458(3) 0.7659(4)
O16_2 O 0.2100(7) 0.1387(3) 0.6253(4)
O19_2 O 0.4133(6) 0.1892(3) 0.7735(4)
O21_3 O 0.2800(8) 0.1445(4) 0.9312(4)
H7_3 H 0.3114 0.1880 0.9347
H8_3 H 0.2192 0.1348 0.9735
O8_3 O 0.1103(7) 0.9901(4) 0.6754(4)
N5_2 N 0.2043(8) 0.9864(4) 0.8750(4)
C1_3 C 0.4691(9) 0.0035(5) 0.8219(5)
C6_3 C 0.4697(13) 0.2500 0.7509(8)
O7_3 O 0.7800(8) 0.1445(4) 0.5688(4)
H3_3 H 0.8114 0.1880 0.5653
H4_3 H 0.7192 0.1348 0.5265
O9_3 O 0.9110(7) 0.0458(3) 0.7341(4)
C7_3 C 0.9691(9) 0.0035(5) 0.6781(5)
O12_2 O 0.4572(7) 0.1091(3) 0.5941(4)
O13_2 O 0.9572(7) 0.1091(3) 0.9059(4)
O15_2 O 0.7100(7) 0.1387(3) 0.8747(4)
C5_3 C 0.1859(9) 0.8878(5) 0.0786(5)
O3_2 O 0.0428(7) 0.8909(3) 0.0941(4)
O4_2 O 0.2900(7) 0.8613(3) 0.1253(4)
O1_3 O 0.6103(7) 0.9901(4) 0.8246(4)
C2_3 C 0.3591(9) 0.9719(4) 0.8850(5)
C3_3 C 0.3833(9) 0.9310(4) 0.9597(5)
H1_3 H 0.4796 0.9137 0.9810
C4_3 C 0.2373(9) 0.9211(4) 0.9960(5)
N1_3 N 0.1342(8) 0.9549(4) 0.9423(5)
H2_3 H 0.0333 0.9558 0.9510
C8_3 C 0.8591(9) 0.9719(4) 0.6150(5)
C9_3 C 0.8833(9) 0.9310(4) 0.5403(5)
H5_3 H 0.9796 0.9137 0.5190
C10_3 C 0.7373(9) 0.9211(4) 0.5040(5)
C11_3 C 0.6859(9) 0.8878(5) 0.4214(5)
N3_3 N 0.6342(8) 0.9549(4) 0.5577(5)
H6_3 H 0.5333 0.9558 0.5490
N4_3 N 0.7043(8) 0.9864(4) 0.6250(4)
O11_2 O 0.5428(7) 0.8909(3) 0.4059(4)
O14_2 O 0.7900(7) 0.8613(3) 0.3747(4)
C2_4 C 0.1409(9) 0.0281(4) 0.3850(5)
C3_4 C 0.1167(9) 0.0690(4) 0.4597(5)
H1_4 H 0.0204 0.0863 0.4810
C4_4 C 0.2627(9) 0.0789(4) 0.4960(5)
C5_4 C 0.3141(9) 0.1122(5) 0.5786(5)
N1_4 N 0.3658(8) 0.0451(4) 0.4423(5)
H2_4 H 0.4667 0.0442 0.4510
N2_2 N 0.2957(8) 0.0136(4) 0.3750(4)
O2_2 O 0.0890(7) 0.9542(3) 0.2659(4)
C1_4 C 0.0309(9) 0.9965(5) 0.3219(5)
C6_4 C 0.0303(13) 0.7500 0.2509(8)
O5_2 O 0.0867(6) 0.8108(3) 0.2735(4)
O1_4 O 0.8897(7) 0.0099(4) 0.3246(4)
O8_4 O 0.3897(7) 0.0099(4) 0.1754(4)
C8_4 C 0.6409(9) 0.0281(4) 0.1150(5)
C9_4 C 0.6167(9) 0.0690(4) 0.0403(5)
H5_4 H 0.5204 0.0863 0.0190
C10_4 C 0.7627(9) 0.0789(4) 0.0040(5)
N3_4 N 0.8658(8) 0.0451(4) 0.0577(5)
H6_4 H 0.9667 0.0442 0.0490
N4_4 N 0.7957(8) 0.0136(4) 0.1250(4)
C11_4 C 0.8141(9) 0.1122(5) 0.9214(5)
O7_4 O 0.7200(8) 0.8555(4) 0.0688(4)
H3_4 H 0.6886 0.8120 0.0653
H4_4 H 0.7808 0.8652 0.0265
O9_4 O 0.5890(7) 0.9542(3) 0.2341(4)
C7_4 C 0.5309(9) 0.9965(5) 0.1781(5)
O21_4 O 0.2200(8) 0.8555(4) 0.4312(4)
H7_4 H 0.1886 0.8120 0.4347
H8_4 H 0.2808 0.8652 0.4735
loop_
_geom_bond_atom_site_label_1
_geom_bond_atom_site_label_2
_geom_bond_site_symmetry_1
_geom_bond_site_symmetry_2
La1 O1 1_555 1_555
O1 C1 1_555 1_555
O2 La1 1_555 1_555
C1 O2 1_555 1_555
C2 C1 1_555 1_555
C3 C2 1_555 1_555
H1 C3 1_555 1_555
C4 C3 1_555 1_555
N1 C4 1_555 1_555
H2 N1 1_555 1_555
N2 C2 1_555 1_555
C6 O5 1_555 1_555
O5 La1 1_555 1_555
O6 La1 1_555 1_555
O7 La1 1_555 1_555
H3 O7 1_555 1_555
H4 O7 1_555 1_555
La3 O2 1_555 1_555
La6 O6 1_555 1_555
La7 O17 1_555 1_555
La8 O11 1_555 1_555
La4 O14 1_555 1_555
O9 La1 1_555 1_555
C7 O9 1_555 1_555
C8 C7 1_555 1_555
C9 C8 1_555 1_555
H5 C9 1_555 1_555
C10 C9 1_555 1_555
C11 C10 1_555 1_555
N3 C10 1_555 1_555
H6 N3 1_555 1_555
N4 La1 1_555 1_555
O11 C11 1_555 1_555
O12 La1 1_555 1_555
O14 C11 1_555 1_555
O15 La1 1_555 1_555
O17 C6 1_555 1_555
O18 La1 1_555 1_555
N1 N2 1_555 1_555
N2 La3 1_555 1_555
C6 O6 1_555 1_555
O5 La3 1_555 1_555
La6 O17 1_555 1_555
C8 N4 1_555 1_555
N3 N4 1_555 1_555
O3 C5 1_555 1_555
O4 C5 1_555 1_555
La8 O4 1_555 1_555
La3 O8 1_555 1_555
O16 La3 1_555 1_555
O20 La3 1_555 1_555
O21 La3 1_555 1_555
H7 O21 1_555 1_555
H8 O21 1_555 1_555
O13 C11_2 1_555 1_555
O15 C11_2 1_555 1_555
La4 O1_2 1_555 1_555
O6_2 La4 1_555 1_555
O7_2 La4 1_555 1_555
H3_2 O7_2 1_555 1_555
H4_2 O7_2 1_555 1_555
La8 O8_2 1_555 1_555
La6_2 O6_2 1_555 1_555
O8_2 C7_2 1_555 1_555
O9_2 La4 1_555 1_555
O10 La8 1_555 1_555
C7_2 O9_2 1_555 1_555
C8_2 C7_2 1_555 1_555
C9_2 C8_2 1_555 1_555
H5_2 C9_2 1_555 1_555
C10_2 C9_2 1_555 1_555
N3_2 C10_2 1_555 1_555
H6_2 N3_2 1_555 1_555
N4_2 La4 1_555 1_555
N5 La8 1_555 1_555
O18_2 La4 1_555 1_555
O19 La8 1_555 1_555
O20_2 La8 1_555 1_555
O21_2 La8 1_555 1_555
H7_2 O21_2 1_555 1_555
H8_2 O21_2 1_555 1_555
La8 O9_2 1_555 1_555
La8 O18_2 1_555 1_555
C8_2 N4_2 1_555 1_555
N3_2 N4_2 1_555 1_555
C1_2 O10 1_555 1_555
C2_2 C1_2 1_555 1_555
C3_2 C2_2 1_555 1_555
H1_2 C3_2 1_555 1_555
C4_2 C3_2 1_555 1_555
C5_2 C4_2 1_555 1_555
N1_2 C4_2 1_555 1_555
H2_2 N1_2 1_555 1_555
N5 C2_2 1_555 1_555
O12 C5_2 1_555 1_555
O16 C5_2 1_555 1_555
C6_2 O19 1_555 1_555
La7_2 O17_2 1_555 1_555
O17_2 C6_2 1_555 1_555
N1_2 N5 1_555 1_555
O10_2 La6_2 1_555 1_555
O16_2 La6_2 1_555 1_555
O19_2 La6_2 1_555 1_555
O21_3 La6_2 1_555 1_555
H7_3 O21_3 1_555 1_555
H8_3 O21_3 1_555 1_555
O10_2 La7_2 1_555 1_555
C1_3 O10_2 1_555 1_555
C6_3 O19_2 1_555 1_555
O19_2 La7_2 1_555 1_555
O20_2 La7_2 1_555 1_555
O7_3 La7_2 1_555 1_555
H3_3 O7_3 1_555 1_555
H4_3 O7_3 1_555 1_555
O9_3 La7_2 1_555 1_555
C7_3 O9_3 1_555 1_555
O12_2 La7_2 1_555 1_555
O15_2 La7_2 1_555 1_555
O18_2 C6_3 1_555 1_555
C6_3 O20_2 1_555 1_555
O3_2 C5_3 1_555 1_555
O4_2 C5_3 1_555 1_555
La6 O4_2 1_555 1_555
C3_3 C2_3 1_555 1_555
H1_3 C3_3 1_555 1_555
C4_3 C3_3 1_555 1_555
N1_3 C4_3 1_555 1_555
H2_3 N1_3 1_555 1_555
N5_2 C2_3 1_555 1_555
La6 O11_2 1_555 1_555
La7 O14_2 1_555 1_555
C9_3 C8_3 1_555 1_555
H5_3 C9_3 1_555 1_555
C10_3 C9_3 1_555 1_555
C11_3 C10_3 1_555 1_555
N3_3 C10_3 1_555 1_555
H6_3 N3_3 1_555 1_555
O11_2 C11_3 1_555 1_555
O14_2 C11_3 1_555 1_555
N1_3 N5_2 1_555 1_555
C8_3 N4_3 1_555 1_555
N3_3 N4_3 1_555 1_555
C3_4 C2_4 1_555 1_555
H1_4 C3_4 1_555 1_555
C4_4 C3_4 1_555 1_555
C5_4 C4_4 1_555 1_555
N1_4 C4_4 1_555 1_555
H2_4 N1_4 1_555 1_555
N2_2 C2_4 1_555 1_555
O12_2 C5_4 1_555 1_555
O16_2 C5_4 1_555 1_555
N1_4 N2_2 1_555 1_555
C1_4 O2_2 1_555 1_555
C6_4 O5_2 1_555 1_555
La6 O2_2 1_555 1_555
O18 C6_4 1_555 1_555
O5_2 La6 1_555 1_555
C9_4 C8_4 1_555 1_555
H5_4 C9_4 1_555 1_555
C10_4 C9_4 1_555 1_555
N3_4 C10_4 1_555 1_555
H6_4 N3_4 1_555 1_555
C8_4 N4_4 1_555 1_555
N3_4 N4_4 1_555 1_555
O13_2 C11_4 1_555 1_555
O15_2 C11_4 1_555 1_555
O20 La7 1_555 1_555
O7_4 La7 1_555 1_555
H3_4 O7_4 1_555 1_555
H4_4 O7_4 1_555 1_555
O9_4 La7 1_555 1_555
C7_4 O9_4 1_555 1_555
O21_4 La6 1_555 1_555
H7_4 O21_4 1_555 1_555
H8_4 O21_4 1_555 1_555
La6 O9_4 1_555 1_555

#END
