
###############################################################################
#
# This file contains modified crystal structure data generated from the
# MOF subset of the Cambridge Structural Database (CSD) v543 
# hosted by the Cambridge Crystallographic Data Centre (CCDC).
#
# This work is licensed under the Creative Commons
# Attribution-NonCommercial-ShareAlike 4.0 International License.
# To view a copy of this license, visit
# http://creativecommons.org/licenses/by-nc-sa/4.0/
# or send a letter to
# Creative Commons, PO Box 1866, Mountain View, CA 94042, USA.
#
# CIF created using the CSD Python API on 29 September 2022
# The structure has been converted into the P1 space group
# The structure has a 3D framework
# The original CSD entry AGEDIC is in the monoclinic crystal system
# The framework has been calculated to contain at least 10.0% void space
# The void calculation uses a probe of radius 1.32A, grid spacing 0.4
#
###############################################################################

data_AGEDIC
_chemical_formula_moiety         '(C16 H11 Ga6 O19)n'
_symmetry_cell_setting           triclinic
_symmetry_space_group_name_H-M   'P 1'
_symmetry_Int_Tables_number      1
_space_group_name_Hall           'P 1'
loop_
_symmetry_equiv_pos_site_id
_symmetry_equiv_pos_as_xyz
1 x,y,z
_cell_length_a                   6.8404(10)
_cell_length_b                   12.133(2)
_cell_length_c                   12.315(2)
_cell_angle_alpha                90
_cell_angle_beta                 94.855(17)
_cell_angle_gamma                90
_cell_volume                     1018.41
loop_
_atom_site_label
_atom_site_type_symbol
_atom_site_fract_x
_atom_site_fract_y
_atom_site_fract_z
Ga5 Ga -0 0.500 0.000
Ga1 Ga -0 0.000 0.500
H1 H 0.25 0.150(2) 0.500
O3 O 0.25 0.075(2) 0.500
Ga3 Ga 0.5 0.000 0.500
Ga5_2 Ga -0 0.500 1.000
Ga1_2 Ga -0 1.000 0.500
Ga3_2 Ga 0.5 1.000 0.500
O6 O 0.071(3) 0.8742(8) 0.4139(8)
O8 O 0.122(3) 0.9084(8) 0.6382(8)
Ga4 Ga 0.5 0.500 0.000
Ga5_3 Ga 1 0.500 0.000
Ga1_3 Ga 1 0.000 0.500
O1 O 0.929(3) 0.1258(8) 0.5861(8)
O2 O 0.622(3) 0.0916(8) 0.6382(8)
C1 C 0.788(3) 0.1396(8) 0.6458(8)
C2 C 0.837(3) 0.2234(8) 0.7301(8)
H2 H 0.992(3) 0.2363(8) 0.7552(8)
O4 O 0.571(3) 0.3742(8) 0.9139(8)
O5 O 0.878(3) 0.4084(8) 0.8618(8)
C3 C 0.712(3) 0.3604(8) 0.8542(8)
C4 C 0.663(3) 0.2766(8) 0.7699(8)
H3 H 0.508(3) 0.2637(8) 0.7448(8)
Ga4_2 Ga 0.5 0.500 1.000
Ga5_4 Ga 1 0.500 1.000
O7 O 0.878(3) 0.0916(8) 0.3618(8)
Ga1_4 Ga 1 1.000 0.500
O9 O 0.75 0.925(2) 0.500
O1_2 O 0.571(3) 0.1258(8) 0.4139(8)
C1_2 C 0.712(3) 0.1396(8) 0.3542(8)
C2_2 C 0.663(3) 0.2234(8) 0.2699(8)
H2_2 H 0.508(3) 0.2363(8) 0.2448(8)
O4_2 O 0.929(3) 0.3742(8) 0.0861(8)
O5_2 O 0.622(3) 0.4084(8) 0.1382(8)
C3_2 C 0.788(3) 0.3604(8) 0.1458(8)
C4_2 C 0.837(3) 0.2766(8) 0.2301(8)
H3_2 H 0.992(3) 0.2637(8) 0.2552(8)
O6_2 O 0.429(3) 0.8742(8) 0.5861(8)
O8_2 O 0.378(3) 0.9084(8) 0.3618(8)
O1_3 O 0.429(3) 0.6258(8) 0.0861(8)
H1_2 H 0.75 0.650(2) 0.000
O2_2 O 0.122(3) 0.5916(8) 0.1382(8)
O3_2 O 0.75 0.575(2) 0.000
C1_3 C 0.288(3) 0.6396(8) 0.1458(8)
C2_3 C 0.337(3) 0.7234(8) 0.2301(8)
H2_3 H 0.492(3) 0.7363(8) 0.2552(8)
C3_3 C 0.212(3) 0.8604(8) 0.3542(8)
C4_3 C 0.163(3) 0.7766(8) 0.2699(8)
H3_3 H 0.008(3) 0.7637(8) 0.2448(8)
O9_2 O 0.25 0.425(2) 0.000
H1_3 H 0.75 0.650(2) 1.000
O3_3 O 0.75 0.575(2) 1.000
O7_2 O 0.378(3) 0.5916(8) 0.8618(8)
O9_3 O 0.25 0.425(2) 1.000
O1_4 O 0.071(3) 0.6258(8) 0.9139(8)
C1_4 C 0.212(3) 0.6396(8) 0.8542(8)
C2_4 C 0.163(3) 0.7234(8) 0.7699(8)
H2_4 H 0.008(3) 0.7363(8) 0.7448(8)
C3_4 C 0.288(3) 0.8604(8) 0.6458(8)
C4_4 C 0.337(3) 0.7766(8) 0.7301(8)
H3_4 H 0.492(3) 0.7637(8) 0.7552(8)
H1_4 H 0.75 0.850(2) 0.500
H1_5 H 0.25 0.350(2) 0.000
H1_6 H 0.25 0.350(2) 1.000
loop_
_geom_bond_atom_site_label_1
_geom_bond_atom_site_label_2
_geom_bond_site_symmetry_1
_geom_bond_site_symmetry_2
H1 O3 1_555 1_555
O3 Ga1 1_555 1_555
Ga3 O3 1_555 1_555
O6 Ga1_2 1_555 1_555
O8 Ga1_2 1_555 1_555
Ga1_3 O1 1_555 1_555
O1 C1 1_555 1_555
O2 C1 1_555 1_555
C1 C2 1_555 1_555
C2 H2 1_555 1_555
O4 C3 1_555 1_555
O5 C3 1_555 1_555
C3 C4 1_555 1_555
C4 C2 1_555 1_555
H3 C4 1_555 1_555
Ga3 O2 1_555 1_555
Ga4_2 O4 1_555 1_555
Ga5_4 O5 1_555 1_555
O7 Ga1_3 1_555 1_555
O9 Ga1_4 1_555 1_555
Ga3_2 O9 1_555 1_555
Ga3 O1_2 1_555 1_555
O1_2 C1_2 1_555 1_555
O7 C1_2 1_555 1_555
C1_2 C2_2 1_555 1_555
C2_2 H2_2 1_555 1_555
O4_2 C3_2 1_555 1_555
O5_2 C3_2 1_555 1_555
C3_2 C4_2 1_555 1_555
C4_2 C2_2 1_555 1_555
H3_2 C4_2 1_555 1_555
Ga5_3 O4_2 1_555 1_555
Ga4 O5_2 1_555 1_555
O6_2 Ga3_2 1_555 1_555
O8_2 Ga3_2 1_555 1_555
Ga4 O1_3 1_555 1_555
O1_3 C1_3 1_555 1_555
H1_2 O3_2 1_555 1_555
O2_2 C1_3 1_555 1_555
O3_2 Ga4 1_555 1_555
C1_3 C2_3 1_555 1_555
C2_3 H2_3 1_555 1_555
O6 C3_3 1_555 1_555
O8_2 C3_3 1_555 1_555
C3_3 C4_3 1_555 1_555
C4_3 C2_3 1_555 1_555
H3_3 C4_3 1_555 1_555
Ga5 O2_2 1_555 1_555
Ga5_3 O3_2 1_555 1_555
O9_2 Ga4 1_555 1_555
Ga5 O9_2 1_555 1_555
H1_3 O3_3 1_555 1_555
O3_3 Ga4_2 1_555 1_555
Ga5_4 O3_3 1_555 1_555
O7_2 Ga4_2 1_555 1_555
O9_3 Ga4_2 1_555 1_555
Ga5_2 O9_3 1_555 1_555
Ga5_2 O1_4 1_555 1_555
O1_4 C1_4 1_555 1_555
O7_2 C1_4 1_555 1_555
C1_4 C2_4 1_555 1_555
C2_4 H2_4 1_555 1_555
O6_2 C3_4 1_555 1_555
O8 C3_4 1_555 1_555
C3_4 C4_4 1_555 1_555
C4_4 C2_4 1_555 1_555
H3_4 C4_4 1_555 1_555
H1_4 O9 1_555 1_555
H1_5 O9_2 1_555 1_555
H1_6 O9_3 1_555 1_555

#END
