
###############################################################################
#
# This file contains modified crystal structure data generated from the
# MOF subset of the Cambridge Structural Database (CSD) v543 
# hosted by the Cambridge Crystallographic Data Centre (CCDC).
#
# This work is licensed under the Creative Commons
# Attribution-NonCommercial-ShareAlike 4.0 International License.
# To view a copy of this license, visit
# http://creativecommons.org/licenses/by-nc-sa/4.0/
# or send a letter to
# Creative Commons, PO Box 1866, Mountain View, CA 94042, USA.
#
# CIF created using the CSD Python API on 29 September 2022
# The structure has been converted into the P1 space group
# The structure has a 3D framework
# The original CSD entry AGEGUR is in the triclinic crystal system
# The framework has been calculated to contain at least 10.0% void space
# The void calculation uses a probe of radius 1.32A, grid spacing 0.4
#
###############################################################################

data_AGEGUR
_chemical_formula_moiety         '(C60 H52 N4 O15 Tb1)n'
_symmetry_cell_setting           triclinic
_symmetry_space_group_name_H-M   'P 1'
_symmetry_Int_Tables_number      1
_space_group_name_Hall           'P 1'
loop_
_symmetry_equiv_pos_site_id
_symmetry_equiv_pos_as_xyz
1 x,y,z
_cell_length_a                   10.488(2)
_cell_length_b                   11.385(2)
_cell_length_c                   13.113(3)
_cell_angle_alpha                72.46(3)
_cell_angle_beta                 89.95(3)
_cell_angle_gamma                87.75(3)
_cell_volume                     1491.72
loop_
_atom_site_label
_atom_site_type_symbol
_atom_site_fract_x
_atom_site_fract_y
_atom_site_fract_z
_atom_site_U_iso_or_equiv
_atom_site_thermal_displace_type
H19 H 0.0295 0.0474 0.8838 0.2000 Uiso
C28 C 0.0140(13) 0.9943(18) 0.8409(12) 0.1334 Uani
H20 H 0.0897 0.9855 0.8022 0.2000 Uiso
Tb7 Tb 0.48089(2) 0.04666(2) 0.339592(19) 0.0220 Uani
C1 C 0.4911(5) 0.2449(5) 0.4947(5) 0.0254 Uani
O2 O 0.4652(5) 0.0267(4) 0.8105(4) 0.0443 Uani
C2 C 0.4953(5) 0.3782(5) 0.4943(5) 0.0252 Uani
O3 O 0.5080(4) 0.1672(3) 0.5839(3) 0.0310 Uani
O4 O 0.4723(4) 0.2238(4) 0.4081(3) 0.0364 Uani
O7 O 0.2876(4) 0.0161(4) 0.6522(4) 0.0395 Uani
O8 O 0.7179(4) 0.0180(5) 0.7087(4) 0.0468 Uani
C4 C 0.3856(5) 0.4359(5) 0.5214(5) 0.0309 Uani
C5 C 0.2658(5) 0.0082(5) 0.5604(5) 0.0280 Uani
C6 C 0.1293(5) 0.0038(5) 0.5279(5) 0.0299 Uani
C7 C 0.0762(5) 0.0968(5) 0.4415(5) 0.0315 Uani
C8 C 0.6093(5) 0.4393(5) 0.4737(5) 0.0306 Uani
C11 C 0.1494(6) 0.1967(6) 0.3814(6) 0.0400 Uani
H1 H 0.2340 0.2010 0.4007 0.0480 Uiso
C15 C 0.2673(7) 0.3755(7) 0.5429(7) 0.0522 Uani
H3 H 0.2622 0.2949 0.5408 0.0620 Uiso
C17 C 0.4154(8) 0.1290(7) 0.8018(6) 0.0536 Uani
H5 H 0.4288 0.1914 0.7386 0.0650 Uiso
C18 C 0.0968(6) 0.2868(7) 0.2952(7) 0.0532 Uani
H6 H 0.1458 0.3504 0.2551 0.0640 Uiso
N1 N 0.3443(7) 0.1578(8) 0.8750(7) 0.0724 Uani
C20 C 0.7248(7) 0.3827(7) 0.4480(8) 0.0585 Uani
H8 H 0.7233 0.3032 0.4426 0.0700 Uiso
N2 N 0.9108(7) 0.0471(10) 0.7662(8) 0.0780 Uani
C23 C 0.2928(14) 0.2828(13) 0.8582(12) 0.1222 Uani
H11 H 0.3146 0.3333 0.7879 0.1830 Uiso
H12 H 0.3281 0.3158 0.9107 0.1830 Uiso
H13 H 0.2016 0.2818 0.8647 0.1830 Uiso
C25 C 0.1620(8) 0.4359(8) 0.5666(10) 0.0816 Uani
H15 H 0.0857 0.3955 0.5818 0.0980 Uiso
C27 C 0.1669(8) 0.5591(9) 0.5683(10) 0.0850 Uani
H17 H 0.0929 0.5998 0.5812 0.1020 Uiso
C29 C 0.3222(12) 0.0672(14) 0.9757(9) 0.1060 Uani
H22 H 0.2322 0.0560 0.9850 0.1590 Uiso
C30 C 0.9271(15) 0.1602(15) 0.6969(13) 0.1251 Uani
H24 H 0.8516 0.1870 0.6536 0.1870 Uiso
H25 H 0.9985 0.1566 0.6518 0.1870 Uiso
H26 H 0.9431 0.2172 0.7360 0.1870 Uiso
C39 C 0.5089(5) 0.7551(5) 0.5053(5) 0.0254 Uani
C40 C 0.5047(5) 0.6218(5) 0.5057(5) 0.0252 Uani
O11 O 0.4920(4) 0.8328(3) 0.4161(3) 0.0310 Uani
O12 O 0.5277(4) 0.7762(4) 0.5919(3) 0.0364 Uani
C41 C 0.6144(5) 0.5641(5) 0.4786(5) 0.0309 Uani
C42 C 0.3907(5) 0.5607(5) 0.5263(5) 0.0306 Uani
C43 C 0.7327(7) 0.6245(7) 0.4571(7) 0.0522 Uani
H31 H 0.7378 0.7051 0.4592 0.0620 Uiso
C44 C 0.2752(7) 0.6173(7) 0.5520(8) 0.0585 Uani
H32 H 0.2767 0.6968 0.5574 0.0700 Uiso
C45 C 0.8380(8) 0.5641(8) 0.4334(10) 0.0816 Uani
H33 H 0.9143 0.6045 0.4182 0.0980 Uiso
C46 C 0.8331(8) 0.4409(9) 0.4317(10) 0.0850 Uani
H34 H 0.9071 0.4002 0.4188 0.1020 Uiso
O18 O 0.6431(3) 0.0052(4) 0.4988(4) 0.0326 Uani
Tb4 Tb 0.51911(2) 0.95334(2) 0.660408(19) 0.0220 Uani
C14 C 0.4465(7) 0.6094(6) 0.0156(6) 0.0462 Uani
C21 C 0.3940(9) 0.7182(7) 0.0359(7) 0.0629 Uani
C26 C 0.3492(12) 0.7144(8) 0.1332(8) 0.0839 Uani
H16 H 0.3147 0.7860 0.1444 0.1010 Uiso
C47 C 0.4976(6) 0.2669(5) 0.1711(5) 0.0331 Uani
O13 O 0.3918(4) 0.2181(4) 0.1953(4) 0.0400 Uani
O14 O 0.5977(4) 0.2168(4) 0.2178(4) 0.0419 Uani
C48 C 0.5009(6) 0.3867(6) 0.0853(5) 0.0377 Uani
C49 C 0.4498(7) 0.4955(6) 0.1012(6) 0.0431 Uani
C51 C 0.4019(9) 0.4964(8) 0.2044(7) 0.0609 Uani
H35 H 0.4042 0.4235 0.2608 0.0730 Uiso
H36 H 0.6093 0.2074 0.0189 0.0760 Uiso
C53 C 0.3541(11) 0.6008(8) 0.2204(7) 0.0769 Uani
H37 H 0.3242 0.5997 0.2875 0.0920 Uiso
O1 O 0.3569(3) 0.9948(4) 0.5012(4) 0.0326 Uani
C3 C 0.5024(6) 0.7331(5) 0.8289(5) 0.0331 Uani
O5 O 0.6082(4) 0.7819(4) 0.8047(4) 0.0400 Uani
O6 O 0.4023(4) 0.7832(4) 0.7822(4) 0.0419 Uani
C10 C 0.4991(6) 0.6133(6) 0.9147(5) 0.0377 Uani
C13 C 0.5502(7) 0.5045(6) 0.8988(6) 0.0431 Uani
C19 C 0.5981(9) 0.5036(8) 0.7956(7) 0.0609 Uani
H7 H 0.5958 0.5765 0.7392 0.0730 Uiso
H9 H 0.3907 0.7926 0.9811 0.0760 Uiso
C22 C 0.8094(8) 0.9821(9) 0.7640(7) 0.0616 Uani
H10 H 0.8100 0.9017 0.8096 0.0740 Uiso
C24 C 0.6459(11) 0.3992(8) 0.7796(7) 0.0769 Uani
H14 H 0.6758 0.4003 0.7125 0.0920 Uiso
H18 H 0.9913 0.9148 0.8863 0.2000 Uiso
H21 H 0.3644 0.9904 0.9770 0.1590 Uiso
C34 C 0.0551(5) 0.9074(5) 0.5876(5) 0.0311 Uani
C36 C 0.1067(6) 0.8103(6) 0.6772(6) 0.0422 Uani
H28 H 0.1915 0.8114 0.6974 0.0510 Uiso
C37 C 0.0351(7) 0.7189(8) 0.7318(7) 0.0573 Uani
H29 H 0.0714 0.6571 0.7890 0.0690 Uiso
C50 C 0.5535(7) 0.3906(6) 0.9844(6) 0.0462 Uani
C52 C 0.6060(9) 0.2818(7) 0.9641(7) 0.0629 Uani
C54 C 0.6508(12) 0.2856(8) 0.8668(8) 0.0839 Uani
H38 H 0.6853 0.2140 0.8556 0.1010 Uiso
C9 C 0.9449(5) 0.0926(5) 0.4124(5) 0.0311 Uani
C12 C 0.8933(6) 0.1897(6) 0.3228(6) 0.0422 Uani
H2 H 0.8085 0.1886 0.3026 0.0510 Uiso
C16 C 0.9649(7) 0.2811(8) 0.2682(7) 0.0573 Uani
H4 H 0.9286 0.3429 0.2110 0.0690 Uiso
C56 C 0.1906(8) 0.0179(9) 0.2360(7) 0.0616 Uani
H40 H 0.1900 0.0983 0.1904 0.0740 Uiso
H44 H 0.0087 0.0852 0.1137 0.2000 Uiso
H47 H 0.6356 0.0096 0.0230 0.1590 Uiso
O10 O 0.7124(4) 0.9839(4) 0.3478(4) 0.0395 Uani
C31 C 0.7342(5) 0.9918(5) 0.4396(5) 0.0280 Uani
C32 C 0.8707(5) 0.9962(5) 0.4721(5) 0.0299 Uani
C33 C 0.9238(5) 0.9032(5) 0.5585(5) 0.0315 Uani
C35 C 0.8506(6) 0.8033(6) 0.6186(6) 0.0400 Uani
H27 H 0.7660 0.7990 0.5993 0.0480 Uiso
C38 C 0.9032(6) 0.7132(7) 0.7048(7) 0.0532 Uani
H30 H 0.8542 0.6496 0.7449 0.0640 Uiso
O15 O 0.5348(5) 0.9733(4) 0.1895(4) 0.0443 Uani
O16 O 0.2821(4) 0.9820(5) 0.2913(4) 0.0468 Uani
C55 C 0.5846(8) 0.8710(7) 0.1982(6) 0.0536 Uani
H39 H 0.5712 0.8086 0.2614 0.0650 Uiso
N3 N 0.6557(7) 0.8422(8) 0.1250(7) 0.0724 Uani
N4 N 0.0892(7) 0.9529(10) 0.2338(8) 0.0780 Uani
C57 C 0.7072(14) 0.7172(13) 0.1418(12) 0.1222 Uani
H41 H 0.6854 0.6667 0.2121 0.1830 Uiso
H42 H 0.6719 0.6842 0.0893 0.1830 Uiso
H43 H 0.7984 0.7182 0.1353 0.1830 Uiso
C59 C 0.6778(12) 0.9328(14) 0.0243(9) 0.1060 Uani
H48 H 0.7678 0.9440 0.0150 0.1590 Uiso
C60 C 0.0729(15) 0.8398(15) 0.3031(13) 0.1251 Uani
H50 H 0.1484 0.8130 0.3464 0.1870 Uiso
H51 H 0.0015 0.8434 0.3482 0.1870 Uiso
H52 H 0.0569 0.7828 0.2640 0.1870 Uiso
H23 H 0.3553 0.0945 0.0326 0.1590 Uiso
H49 H 0.6447 0.9055 0.9674 0.1590 Uiso
C58 C 0.9860(13) 0.0057(18) 0.1591(12) 0.1334 Uani
H46 H 0.9103 0.0145 0.1978 0.2000 Uiso
H45 H 0.9705 0.9526 0.1162 0.2000 Uiso
loop_
_atom_site_aniso_label
_atom_site_aniso_U_11
_atom_site_aniso_U_22
_atom_site_aniso_U_33
_atom_site_aniso_U_23
_atom_site_aniso_U_13
_atom_site_aniso_U_12
C28 0.082 0.221 0.13 -0.101 -0.012 -0.017
Tb7 0.0262 0.01678 0.02274 -0.00573 -0.00305 -0.00049
C1 0.032 0.016 0.029 -0.008 0 -0.0005
O2 0.058 0.046 0.034 -0.02 -0.003 0.001
C2 0.036 0.014 0.025 -0.005 -0.001 -0.0022
O3 0.046 0.0166 0.029 -0.005 -0.0005 -0.0008
O4 0.061 0.0218 0.029 -0.0115 -0.0067 -0.0014
O7 0.029 0.055 0.036 -0.016 -0.0014 -0.0031
O8 0.038 0.05 0.053 -0.016 -0.014 -0.006
C4 0.037 0.018 0.04 -0.012 0.001 -0.004
C5 0.022 0.026 0.037 -0.011 0 -0.002
C6 0.025 0.033 0.032 -0.01 0.001 -0.002
C7 0.025 0.036 0.035 -0.013 0.001 -0.001
C8 0.036 0.018 0.039 -0.01 0.003 -0.003
C11 0.026 0.04 0.05 -0.007 0 -0.006
C15 0.044 0.035 0.088 -0.033 0.011 -0.011
C17 0.073 0.051 0.042 -0.023 -0.001 0.007
C18 0.035 0.046 0.072 -0.007 0.004 -0.007
N1 0.074 0.095 0.068 -0.057 -0.005 0.019
C20 0.044 0.039 0.104 -0.039 0.018 -0.003
N2 0.047 0.118 0.091 -0.061 0.009 -0.033
C23 0.136 0.123 0.134 -0.087 -0.006 0.062
C25 0.043 0.053 0.159 -0.046 0.025 -0.013
C27 0.042 0.067 0.172 -0.075 0.029 -0.005
C29 0.114 0.148 0.061 -0.04 0.034 0
C30 0.127 0.122 0.137 -0.056 -0.016 0.003
C39 0.032 0.016 0.029 -0.008 0 -0.0005
C40 0.036 0.014 0.025 -0.005 -0.001 -0.0022
O11 0.046 0.0166 0.029 -0.005 -0.0005 -0.0008
O12 0.061 0.0218 0.029 -0.0115 -0.0067 -0.0014
C41 0.037 0.018 0.04 -0.012 0.001 -0.004
C42 0.036 0.018 0.039 -0.01 0.003 -0.003
C43 0.044 0.035 0.088 -0.033 0.011 -0.011
C44 0.044 0.039 0.104 -0.039 0.018 -0.003
C45 0.043 0.053 0.159 -0.046 0.025 -0.013
C46 0.042 0.067 0.172 -0.075 0.029 -0.005
O18 0.025 0.036 0.041 -0.018 0.0039 -0.002
Tb4 0.0262 0.01678 0.02274 -0.00573 -0.00305 -0.00049
C14 0.055 0.037 0.044 -0.009 -0.001 0.003
C21 0.101 0.031 0.049 -0.002 0.012 0.008
C26 0.136 0.042 0.071 -0.016 0.025 0.021
C47 0.046 0.024 0.027 -0.004 0.001 -0.002
O13 0.047 0.031 0.036 -0.001 -0.01 -0.0013
O14 0.039 0.035 0.043 0.001 -0.001 -0.0001
C48 0.045 0.029 0.034 -0.002 -0.002 -0.001
C49 0.053 0.033 0.039 -0.004 0.002 -0.004
C51 0.092 0.043 0.041 -0.004 0.01 0.009
C53 0.135 0.051 0.042 -0.012 0.022 0.013
O1 0.025 0.036 0.041 -0.018 0.0039 -0.002
C3 0.046 0.024 0.027 -0.004 0.001 -0.002
O5 0.047 0.031 0.036 -0.001 -0.01 -0.0013
O6 0.039 0.035 0.043 0.001 -0.001 -0.0001
C10 0.045 0.029 0.034 -0.002 -0.002 -0.001
C13 0.053 0.033 0.039 -0.004 0.002 -0.004
C19 0.092 0.043 0.041 -0.004 0.01 0.009
C22 0.061 0.078 0.049 -0.023 0.002 -0.011
C24 0.135 0.051 0.042 -0.012 0.022 0.013
C34 0.025 0.035 0.032 -0.008 0.001 -0.001
C36 0.032 0.043 0.043 0 -0.003 -0.002
C37 0.041 0.059 0.058 0.003 -0.004 0
C50 0.055 0.037 0.044 -0.009 -0.001 0.003
C52 0.101 0.031 0.049 -0.002 0.012 0.008
C54 0.136 0.042 0.071 -0.016 0.025 0.021
C9 0.025 0.035 0.032 -0.008 0.001 -0.001
C12 0.032 0.043 0.043 0 -0.003 -0.002
C16 0.041 0.059 0.058 0.003 -0.004 0
C56 0.061 0.078 0.049 -0.023 0.002 -0.011
O10 0.029 0.055 0.036 -0.016 -0.0014 -0.0031
C31 0.022 0.026 0.037 -0.011 0 -0.002
C32 0.025 0.033 0.032 -0.01 0.001 -0.002
C33 0.025 0.036 0.035 -0.013 0.001 -0.001
C35 0.026 0.04 0.05 -0.007 0 -0.006
C38 0.035 0.046 0.072 -0.007 0.004 -0.007
O15 0.058 0.046 0.034 -0.02 -0.003 0.001
O16 0.038 0.05 0.053 -0.016 -0.014 -0.006
C55 0.073 0.051 0.042 -0.023 -0.001 0.007
N3 0.074 0.095 0.068 -0.057 -0.005 0.019
N4 0.047 0.118 0.091 -0.061 0.009 -0.033
C57 0.136 0.123 0.134 -0.087 -0.006 0.062
C59 0.114 0.148 0.061 -0.04 0.034 0
C60 0.127 0.122 0.137 -0.056 -0.016 0.003
C58 0.082 0.221 0.13 -0.101 -0.012 -0.017
loop_
_geom_bond_atom_site_label_1
_geom_bond_atom_site_label_2
_geom_bond_site_symmetry_1
_geom_bond_site_symmetry_2
H20 C28 1_555 1_555
C1 C2 1_555 1_555
O2 C17 1_555 1_555
C2 C4 1_555 1_555
O4 C1 1_555 1_555
C4 C15 1_555 1_555
C6 C5 1_555 1_555
C7 C6 1_555 1_555
C8 C2 1_555 1_555
C11 C7 1_555 1_555
H1 C11 1_555 1_555
C15 H3 1_555 1_555
C17 H5 1_555 1_555
C18 C11 1_555 1_555
H6 C18 1_555 1_555
N1 C17 1_555 1_555
C20 C8 1_555 1_555
H8 C20 1_555 1_555
C23 N1 1_555 1_555
H11 C23 1_555 1_555
H12 C23 1_555 1_555
H13 C23 1_555 1_555
C25 C15 1_555 1_555
H15 C25 1_555 1_555
C27 C25 1_555 1_555
H17 C27 1_555 1_555
C29 N1 1_555 1_555
H22 C29 1_555 1_555
C30 N2 1_555 1_555
H24 C30 1_555 1_555
H25 C30 1_555 1_555
H26 C30 1_555 1_555
C39 C40 1_555 1_555
C40 C41 1_555 1_555
O11 C39 1_555 1_555
O12 C39 1_555 1_555
C41 C8 1_555 1_555
C42 C4 1_555 1_555
C43 C41 1_555 1_555
H31 C43 1_555 1_555
C44 C27 1_555 1_555
H32 C44 1_555 1_555
C45 C43 1_555 1_555
H33 C45 1_555 1_555
C46 C20 1_555 1_555
H34 C46 1_555 1_555
Tb4 O12 1_555 1_555
C1 O3 1_555 1_555
O4 Tb7 1_555 1_555
O7 C5 1_555 1_555
C40 C42 1_555 1_555
C42 C44 1_555 1_555
C45 C46 1_555 1_555
O18 Tb7 1_555 1_555
C21 C14 1_555 1_555
C26 C21 1_555 1_555
H16 C26 1_555 1_555
C47 O13 1_555 1_555
O13 Tb7 1_555 1_555
O14 C47 1_555 1_555
C48 C47 1_555 1_555
C49 C14 1_555 1_555
C51 C49 1_555 1_555
H35 C51 1_555 1_555
C53 C26 1_555 1_555
H37 C53 1_555 1_555
Tb7 O14 1_555 1_555
C48 C49 1_555 1_555
C51 C53 1_555 1_555
O1 Tb4 1_555 1_555
C3 O5 1_555 1_555
O5 Tb4 1_555 1_555
O6 Tb4 1_555 1_555
C10 C3 1_555 1_555
C13 C10 1_555 1_555
C19 C13 1_555 1_555
H7 C19 1_555 1_555
H10 C22 1_555 1_555
C24 C19 1_555 1_555
H14 C24 1_555 1_555
C36 C34 1_555 1_555
H28 C36 1_555 1_555
C37 C36 1_555 1_555
H29 C37 1_555 1_555
C50 C13 1_555 1_555
C52 C50 1_555 1_555
C54 C24 1_555 1_555
H38 C54 1_555 1_555
C3 O6 1_555 1_555
C52 C54 1_555 1_555
C12 C9 1_555 1_555
H2 C12 1_555 1_555
C16 C12 1_555 1_555
H4 C16 1_555 1_555
H40 C56 1_555 1_555
O10 C31 1_555 1_555
C31 C32 1_555 1_555
C33 C32 1_555 1_555
C35 C33 1_555 1_555
H27 C35 1_555 1_555
C38 C35 1_555 1_555
H30 C38 1_555 1_555
C55 O15 1_555 1_555
H39 C55 1_555 1_555
N3 C55 1_555 1_555
C57 N3 1_555 1_555
H41 C57 1_555 1_555
H42 C57 1_555 1_555
H43 C57 1_555 1_555
C59 N3 1_555 1_555
H48 C59 1_555 1_555
C60 N4 1_555 1_555
H50 C60 1_555 1_555
H51 C60 1_555 1_555
H52 C60 1_555 1_555
H46 C58 1_555 1_555

#END
