
###############################################################################
#
# This file contains modified crystal structure data generated from the
# MOF subset of the Cambridge Structural Database (CSD) v543 
# hosted by the Cambridge Crystallographic Data Centre (CCDC).
#
# This work is licensed under the Creative Commons
# Attribution-NonCommercial-ShareAlike 4.0 International License.
# To view a copy of this license, visit
# http://creativecommons.org/licenses/by-nc-sa/4.0/
# or send a letter to
# Creative Commons, PO Box 1866, Mountain View, CA 94042, USA.
#
# CIF created using the CSD Python API on 29 September 2022
# The structure has been converted into the P1 space group
# The structure has a 3D framework
# The original CSD entry AGIMOU is in the monoclinic crystal system
# The framework has been calculated to contain at least 10.0% void space
# The void calculation uses a probe of radius 1.32A, grid spacing 0.4
#
###############################################################################

data_AGIMOU
_chemical_formula_moiety         '(C8 H24 Cl4 Mn10 N38 O4)n'
_symmetry_cell_setting           triclinic
_symmetry_space_group_name_H-M   'P 1'
_symmetry_Int_Tables_number      1
_space_group_name_Hall           'P 1'
loop_
_symmetry_equiv_pos_site_id
_symmetry_equiv_pos_as_xyz
1 x,y,z
_cell_length_a                   9.3348(10)
_cell_length_b                   13.0009(15)
_cell_length_c                   9.3606(10)
_cell_angle_alpha                90
_cell_angle_beta                 91.282(2)
_cell_angle_gamma                90
_cell_volume                     1135.73
loop_
_atom_site_label
_atom_site_type_symbol
_atom_site_fract_x
_atom_site_fract_y
_atom_site_fract_z
Mn1 Mn 0.0000 -0.0000 0.5000
Mn2 Mn 0.21639(4) 0.24270(3) 0.48562(4)
Cl1 Cl 0.26598(6) 0.04837(5) 0.50736(7)
O1 O 0.1258(2) 0.39695(16) 0.4653(2)
H1 H 0.1651 0.4489 0.5023
H2 H 0.0402 0.4128 0.4467
N1 N 0.0513(2) 0.20207(17) 0.3155(2)
N5 N 0.0550(3) 0.3423(2) 0.1521(3)
H3 H 0.1328 0.3666 0.1895
H4 H 0.0142 0.3730 0.0808
N6 N 0.3757(2) 0.27248(17) 0.3128(2)
N7 N 0.3703(2) 0.36567(17) 0.2490(2)
N8 N 0.4717(2) 0.37169(16) 0.1569(2)
N9 N 0.5477(2) 0.28280(17) 0.1549(2)
N10 N 0.5257(3) 0.1256(2) 0.2843(3)
H5 H 0.5964 0.0978 0.2413
H6 H 0.4806 0.0915 0.3479
C2 C 0.4853(3) 0.2232(2) 0.2517(3)
Mn5 Mn 0.5000 0.5000 0.0000
N22 N 0.3778(2) 0.28918(17) 0.6529(2)
N26 N 0.0477(2) 0.21720(17) 0.6549(2)
Mn5_2 Mn 0.5000 0.5000 1.0000
Mn9 Mn 0.71639(4) 0.25730(3) 0.98562(4)
Mn7 Mn 0.28361(4) 0.74270(3) 0.01438(4)
Mn1_2 Mn 0.0000 1.0000 0.5000
N12 N 0.0385(2) 0.87935(17) 0.6709(2)
N13 N 0.1413(2) 0.87436(17) 0.7661(2)
N14 N 0.1222(2) 0.78918(17) 0.8471(2)
C3 C 0.0030(3) 0.7442(2) 0.7947(3)
N23 N 0.0283(2) 0.87169(16) 0.3431(2)
Mn1_3 Mn 1.0000 -0.0000 0.5000
N2 N 0.9615(2) 0.12065(17) 0.3291(2)
N3 N 0.8587(2) 0.12564(17) 0.2339(2)
N4 N 0.8778(2) 0.21082(17) 0.1529(2)
C1 C 0.9970(3) 0.2558(2) 0.2053(3)
N24 N 0.9717(2) 0.12831(16) 0.6569(2)
Mn1_4 Mn 1.0000 1.0000 0.5000
Mn3 Mn 0.78361(4) 0.75730(3) 0.51438(4)
Cl2 Cl 0.73402(6) 0.95163(5) 0.49264(7)
O2 O 0.8742(2) 0.60305(16) 0.5347(2)
H7 H 0.8349 0.5511 0.4977
H8 H 0.9598 0.5872 0.5533
N11 N 0.9487(2) 0.79793(17) 0.6845(2)
N15 N 0.9450(3) 0.6577(2) 0.8479(3)
H9 H 0.8672 0.6334 0.8105
H10 H 0.9858 0.6270 0.9192
N16 N 0.6243(2) 0.72752(17) 0.6872(2)
N17 N 0.6297(2) 0.63433(17) 0.7510(2)
N18 N 0.5283(2) 0.62831(16) 0.8431(2)
N19 N 0.4523(2) 0.71720(17) 0.8451(2)
N20 N 0.4743(3) 0.8744(2) 0.7157(3)
H11 H 0.4036 0.9022 0.7587
H12 H 0.5194 0.9085 0.6521
C4 C 0.5147(3) 0.7768(2) 0.7483(3)
N21 N 0.6222(2) 0.71082(17) 0.3471(2)
N25 N 0.9523(2) 0.78280(17) 0.3451(2)
N20_2 N 0.0257(3) 0.3744(2) 0.7843(3)
H11_2 H 0.0964 0.4022 0.7413
O1_2 O 0.3742(2) 0.89695(16) 0.0347(2)
H2_2 H 0.4598 0.9128 0.0533
N1_2 N 0.4487(2) 0.70207(17) 0.1845(2)
N2_2 N 0.5385(2) 0.62065(17) 0.1709(2)
N3_2 N 0.6413(2) 0.62564(17) 0.2661(2)
N5_2 N 0.4450(3) 0.8423(2) 0.3479(3)
H3_2 H 0.3672 0.8666 0.3105
H4_2 H 0.4858 0.8730 0.4192
N6_2 N 0.1243(2) 0.77248(17) 0.1872(2)
N7_2 N 0.1297(2) 0.86567(17) 0.2510(2)
H6_2 H 0.0194 0.5915 0.1521
C1_2 C 0.5030(3) 0.7558(2) 0.2947(3)
C2_2 C 0.0147(3) 0.7232(2) 0.2483(3)
Cl2_2 Cl 0.76598(6) 0.45163(5) 0.00736(7)
H7_2 H 0.6651 0.0511 0.0023
Cl1_2 Cl 0.23402(6) 0.54837(5) 0.99264(7)
H1_2 H 0.3349 0.9489 0.9977
O2_2 O 0.6258(2) 0.10305(16) 0.9653(2)
H8_2 H 0.5402 0.0872 0.9467
N11_2 N 0.5513(2) 0.29793(17) 0.8155(2)
N12_2 N 0.4615(2) 0.37935(17) 0.8291(2)
N13_2 N 0.3587(2) 0.37436(17) 0.7339(2)
N15_2 N 0.5550(3) 0.1577(2) 0.6521(3)
H9_2 H 0.6328 0.1334 0.6895
H10_2 H 0.5142 0.1270 0.5808
N16_2 N 0.8757(2) 0.22752(17) 0.8128(2)
N17_2 N 0.8703(2) 0.13433(17) 0.7490(2)
H12_2 H 0.9806 0.4085 0.8479
C3_2 C 0.4970(3) 0.2442(2) 0.7053(3)
C4_2 C 0.9853(3) 0.2768(2) 0.7517(3)
N10_2 N 0.9743(3) 0.6256(2) 0.2157(3)
H5_2 H 0.9036 0.5978 0.2587
loop_
_geom_bond_atom_site_label_1
_geom_bond_atom_site_label_2
_geom_bond_site_symmetry_1
_geom_bond_site_symmetry_2
Mn1 Cl1 1_555 1_555
Mn2 Cl1 1_555 1_555
O1 Mn2 1_555 1_555
H1 O1 1_555 1_555
H2 O1 1_555 1_555
N1 Mn2 1_555 1_555
N5 H3 1_555 1_555
H4 N5 1_555 1_555
N6 Mn2 1_555 1_555
N7 N6 1_555 1_555
N8 N7 1_555 1_555
N9 N8 1_555 1_555
N10 H5 1_555 1_555
H6 N10 1_555 1_555
C2 N6 1_555 1_555
Mn5 N8 1_555 1_555
N22 Mn2 1_555 1_555
N26 Mn2 1_555 1_555
N9 C2 1_555 1_555
N10 C2 1_555 1_555
N12 Mn1_2 1_555 1_555
N13 N12 1_555 1_555
N14 N13 1_555 1_555
N23 Mn1_2 1_555 1_555
N14 C3 1_555 1_555
N2 Mn1_3 1_555 1_555
N3 N2 1_555 1_555
N4 N3 1_555 1_555
N24 Mn1_3 1_555 1_555
N4 C1 1_555 1_555
Mn3 Cl2 1_555 1_555
Cl2 Mn1_4 1_555 1_555
O2 Mn3 1_555 1_555
H7 O2 1_555 1_555
H8 O2 1_555 1_555
N11 Mn3 1_555 1_555
N15 H9 1_555 1_555
H10 N15 1_555 1_555
N16 Mn3 1_555 1_555
N17 N16 1_555 1_555
N18 N17 1_555 1_555
N19 N18 1_555 1_555
N20 H11 1_555 1_555
H12 N20 1_555 1_555
C4 N16 1_555 1_555
Mn5_2 N18 1_555 1_555
N21 Mn3 1_555 1_555
N25 Mn3 1_555 1_555
N19 C4 1_555 1_555
N20 C4 1_555 1_555
N20_2 H11_2 1_555 1_555
O1_2 Mn7 1_555 1_555
H2_2 O1_2 1_555 1_555
N1_2 Mn7 1_555 1_555
N2_2 Mn5 1_555 1_555
N3_2 N2_2 1_555 1_555
N21 N3_2 1_555 1_555
N5_2 H3_2 1_555 1_555
H4_2 N5_2 1_555 1_555
N6_2 Mn7 1_555 1_555
N7_2 N6_2 1_555 1_555
N23 N7_2 1_555 1_555
C1_2 N1_2 1_555 1_555
C2_2 N6_2 1_555 1_555
Cl2_2 Mn5 1_555 1_555
N1_2 N2_2 1_555 1_555
N21 C1_2 1_555 1_555
N5_2 C1_2 1_555 1_555
Mn5_2 Cl1_2 1_555 1_555
O2_2 Mn9 1_555 1_555
H8_2 O2_2 1_555 1_555
N11_2 Mn9 1_555 1_555
N12_2 Mn5_2 1_555 1_555
N13_2 N12_2 1_555 1_555
N22 N13_2 1_555 1_555
N15_2 H9_2 1_555 1_555
H10_2 N15_2 1_555 1_555
N16_2 Mn9 1_555 1_555
N17_2 N16_2 1_555 1_555
N24 N17_2 1_555 1_555
C3_2 N11_2 1_555 1_555
C4_2 N16_2 1_555 1_555
N11_2 N12_2 1_555 1_555
N22 C3_2 1_555 1_555
N15_2 C3_2 1_555 1_555
N10_2 H5_2 1_555 1_555

#END
