
###############################################################################
#
# This file contains modified crystal structure data generated from the
# MOF subset of the Cambridge Structural Database (CSD) v543 
# hosted by the Cambridge Crystallographic Data Centre (CCDC).
#
# This work is licensed under the Creative Commons
# Attribution-NonCommercial-ShareAlike 4.0 International License.
# To view a copy of this license, visit
# http://creativecommons.org/licenses/by-nc-sa/4.0/
# or send a letter to
# Creative Commons, PO Box 1866, Mountain View, CA 94042, USA.
#
# CIF created using the CSD Python API on 29 September 2022
# The structure has been converted into the P1 space group
# The structure has a 3D framework
# The original CSD entry AGIMIO is in the orthorhombic crystal system
# The framework has been calculated to contain at least 10.0% void space
# The void calculation uses a probe of radius 1.32A, grid spacing 0.4
#
###############################################################################

data_AGIMIO
_chemical_formula_moiety         '(C80 H84 Mn16 N72 O40)n'
_symmetry_cell_setting           triclinic
_symmetry_space_group_name_H-M   'P 1'
_symmetry_Int_Tables_number      1
_space_group_name_Hall           'P 1'
loop_
_symmetry_equiv_pos_site_id
_symmetry_equiv_pos_as_xyz
1 x,y,z
_cell_length_a                   17.707(3)
_cell_length_b                   9.3322(15)
_cell_length_c                   22.694(4)
_cell_angle_alpha                90
_cell_angle_beta                 90
_cell_angle_gamma                90
_cell_volume                     3750.08
loop_
_atom_site_label
_atom_site_type_symbol
_atom_site_fract_x
_atom_site_fract_y
_atom_site_fract_z
N9 N 0.43410(18) 0.0404(3) 0.26887(12)
H5 H 0.3416 0.0305 0.3530
Mn3 Mn 0.54250(3) 0.09938(6) 0.15421(2)
Mn5 Mn 0.37565(3) 0.25705(5) 0.25750(2)
Mn1 Mn 0.45750(3) 0.59938(6) 0.34579(2)
O1 O 0.37006(15) 0.2584(3) 0.35154(10)
O2 O 0.44094(15) 0.4164(3) 0.40063(11)
O3 O 0.43008(15) 0.3955(3) 0.62179(11)
O4 O 0.35340(16) 0.2374(3) 0.66409(10)
O5 O 0.41638(18) 0.7212(3) 0.42088(11)
H1 H 0.4072 0.8089 0.4166
H2 H 0.4223 0.7070 0.4571
N1 N 0.32259(18) 0.4725(3) 0.26114(12)
N2 N 0.34184(18) 0.5759(3) 0.30096(12)
N3 N 0.29079(18) 0.6759(3) 0.30182(12)
N4 N 0.23569(18) 0.6430(3) 0.26237(12)
N5 N 0.21720(19) 0.4449(3) 0.19718(13)
H3 H 0.2342 0.3626 0.1837
H4 H 0.1744 0.4800 0.1838
N6 N 0.46259(17) 0.8218(3) 0.29999(12)
N7 N 0.50961(18) 0.8598(3) 0.25566(12)
N8 N 0.49386(17) 0.9888(3) 0.23758(12)
N10 N 0.36068(18) 0.9416(3) 0.34932(12)
H6 H 0.3255 0.8762 0.3395
C1 C 0.2572(2) 0.5180(4) 0.23857(14)
C2 C 0.4171(2) 0.9349(4) 0.30654(15)
C3 C 0.3532(2) 0.2720(4) 0.45419(15)
C4 C 0.3823(2) 0.3116(4) 0.50901(15)
H7 H 0.4246 0.3738 0.5113
C5 C 0.3488(2) 0.2594(4) 0.56038(15)
C6 C 0.2863(2) 0.1699(5) 0.55613(16)
H8 H 0.2642 0.1323 0.5910
C7 C 0.2559(3) 0.1350(5) 0.50216(17)
H9 H 0.2127 0.0750 0.5000
C8 C 0.2885(2) 0.1873(4) 0.45116(16)
H10 H 0.2667 0.1656 0.4140
C9 C 0.3909(2) 0.3200(4) 0.39782(15)
C10 C 0.3801(2) 0.3000(4) 0.61943(15)
Mn4 Mn 0.54250(3) 0.40062(6) 0.65421(2)
Mn6 Mn 0.62435(3) 0.75705(5) 0.24250(2)
Mn7 Mn 0.12435(3) 0.75705(5) 0.25750(2)
Mn8 Mn 0.37565(3) 0.24295(5) 0.75750(2)
O6 O 0.56992(15) 0.6045(3) 0.37821(11)
O7 O 0.35340(16) 0.2626(3) 0.16409(10)
N11 N 0.26431(18) 0.1430(3) 0.26237(12)
N12 N 0.49039(18) 0.3598(3) 0.24434(12)
N13 N 0.50614(17) 0.4888(3) 0.26242(12)
O3_2 O 0.06992(15) 0.6045(3) 0.12179(11)
O4_2 O 0.14660(16) 0.7626(3) 0.16409(10)
C4_2 C 0.1177(2) 0.6884(4) 0.00901(15)
H7_2 H 0.0754 0.6262 0.0113
C5_2 C 0.1512(2) 0.7406(4) 0.06038(15)
C6_2 C 0.2137(2) 0.8301(5) 0.05613(16)
H8_2 H 0.2358 0.8677 0.0910
C7_2 C 0.2441(3) 0.8650(5) 0.00216(17)
H9_2 H 0.2873 0.9250 0.0000
C10_2 C 0.1199(2) 0.7000(4) 0.11943(15)
Mn1_2 Mn 0.04250(3) 0.40062(6) 0.84579(2)
Mn2 Mn 0.12435(3) 0.74295(5) 0.75750(2)
O1_2 O 0.12994(15) 0.7416(3) 0.85154(10)
O2_2 O 0.05906(15) 0.5836(3) 0.90063(11)
O5_2 O 0.08362(18) 0.2788(3) 0.92088(11)
H1_2 H 0.0928 0.1911 0.9166
H2_2 H 0.0777 0.2930 0.9571
N1_2 N 0.17741(18) 0.5275(3) 0.76114(12)
N2_2 N 0.15816(18) 0.4241(3) 0.80096(12)
N3_2 N 0.20921(18) 0.3241(3) 0.80182(12)
N4_2 N 0.26431(18) 0.3570(3) 0.76237(12)
N5_2 N 0.28280(19) 0.5551(3) 0.69718(13)
H3_2 H 0.2658 0.6374 0.6837
H4_2 H 0.3256 0.5200 0.6838
N6_2 N 0.03741(17) 0.1782(3) 0.79999(12)
N8_2 N 0.00614(17) 0.0112(3) 0.73758(12)
N10_2 N 0.13932(18) 0.0584(3) 0.84932(12)
H6_2 H 0.1745 0.1238 0.8395
C1_2 C 0.2428(2) 0.4820(4) 0.73857(14)
C2_2 C 0.0829(2) 0.0651(4) 0.80654(15)
C3_2 C 0.1468(2) 0.7280(4) 0.95419(15)
H9_3 H 0.2873 0.9250 1.0000
C8_2 C 0.2115(2) 0.8127(4) 0.95116(16)
H10_2 H 0.2333 0.8344 0.9140
C9_2 C 0.1091(2) 0.6800(4) 0.89782(15)
O7_2 O 0.14660(16) 0.7374(3) 0.66409(10)
N11_2 N 0.23569(18) 0.8570(3) 0.76237(12)
N12_2 N 0.00961(18) 0.6402(3) 0.74434(12)
N14 N 0.06590(18) 0.9596(3) 0.76887(12)
H5_2 H 0.1584 0.9695 0.8530
Mn4_2 Mn 0.95750(3) 0.59938(6) 0.15421(2)
N7_2 N 0.99039(18) 0.1402(3) 0.75566(12)
Mn6_2 Mn 0.87565(3) 0.24295(5) 0.74250(2)
O6_2 O 0.93008(15) 0.3955(3) 0.87821(11)
N13_2 N 0.99386(17) 0.5112(3) 0.76242(12)
Mn3_2 Mn 0.95750(3) 0.90062(6) 0.65421(2)
Mn4_3 Mn 0.04250(3) 0.09938(6) 0.34579(2)
O6_3 O 0.06992(15) 0.8955(3) 0.62179(11)
O1_3 O 0.87006(15) 0.2416(3) 0.64846(10)
O2_3 O 0.94094(15) 0.0836(3) 0.59937(11)
O3_3 O 0.93008(15) 0.1045(3) 0.37821(11)
O4_3 O 0.85340(16) 0.2626(3) 0.33591(10)
N1_3 N 0.82259(18) 0.0275(3) 0.73886(12)
N5_3 N 0.71720(19) 0.0551(3) 0.80282(13)
H3_3 H 0.7342 0.1374 0.8163
H4_3 H 0.6744 0.0200 0.8162
C3_3 C 0.8532(2) 0.2280(4) 0.54581(15)
C4_3 C 0.8823(2) 0.1884(4) 0.49099(15)
H7_3 H 0.9246 0.1262 0.4887
C5_3 C 0.8488(2) 0.2406(4) 0.43962(15)
C6_3 C 0.7863(2) 0.3301(5) 0.44387(16)
H8_3 H 0.7642 0.3677 0.4090
C7_3 C 0.7559(3) 0.3650(5) 0.49784(17)
H9_4 H 0.7127 0.4250 0.5000
C8_3 C 0.7885(2) 0.3127(4) 0.54884(16)
H10_3 H 0.7667 0.3344 0.5860
C9_3 C 0.8909(2) 0.1800(4) 0.60218(15)
C10_3 C 0.8801(2) 0.2000(4) 0.38057(15)
Mn8_2 Mn 0.87565(3) 0.25705(5) 0.24250(2)
O7_3 O 0.85340(16) 0.2374(3) 0.83591(10)
N11_3 N 0.76431(18) 0.3570(3) 0.73763(12)
N14_2 N 0.93410(18) 0.4596(3) 0.73113(12)
O5_3 O 0.91638(18) 0.7788(3) 0.57912(11)
H1_3 H 0.9072 0.6911 0.5834
H2_3 H 0.9223 0.7930 0.5429
N2_3 N 0.84184(18) 0.9241(3) 0.69904(12)
N3_3 N 0.79079(18) 0.8241(3) 0.69818(12)
N4_3 N 0.73569(18) 0.8570(3) 0.73763(12)
N6_3 N 0.96259(17) 0.6782(3) 0.70001(12)
N10_3 N 0.86068(18) 0.5584(3) 0.65068(12)
H5_3 H 0.8416 0.4695 0.6470
H6_3 H 0.8255 0.6238 0.6605
C1_3 C 0.7572(2) 0.9820(4) 0.76143(14)
C2_3 C 0.9171(2) 0.5651(4) 0.69346(15)
Mn7_2 Mn 0.62435(3) 0.74295(5) 0.74250(2)
O5_4 O 0.58362(18) 0.2212(3) 0.07912(11)
H1_4 H 0.5928 0.3089 0.0834
H2_4 H 0.5777 0.2070 0.0429
N2_4 N 0.65816(18) 0.0759(3) 0.19904(12)
N3_4 N 0.70921(18) 0.1759(3) 0.19818(12)
N4_4 N 0.76431(18) 0.1430(3) 0.23763(12)
N6_4 N 0.53741(17) 0.3218(3) 0.20001(12)
N9_2 N 0.56590(18) 0.5404(3) 0.23113(12)
N10_4 N 0.63932(18) 0.4416(3) 0.15068(12)
H5_4 H 0.6584 0.5305 0.1470
H6_4 H 0.6745 0.3762 0.1605
C1_4 C 0.7428(2) 0.0180(4) 0.26143(14)
C2_4 C 0.5829(2) 0.4349(4) 0.19346(15)
O6_4 O 0.43008(15) 0.1045(3) 0.12179(11)
O1_4 O 0.62994(15) 0.7584(3) 0.14846(10)
O2_4 O 0.55906(15) 0.9164(3) 0.09937(11)
N1_4 N 0.67741(18) 0.9725(3) 0.23886(12)
N5_4 N 0.78280(19) 0.9449(3) 0.30282(13)
H3_4 H 0.7658 0.8626 0.3163
H4_4 H 0.8256 0.9800 0.3162
C3_4 C 0.6468(2) 0.7720(4) 0.04581(15)
H9_5 H 0.7873 0.5750 0.0000
C8_4 C 0.7115(2) 0.6873(4) 0.04884(16)
H10_4 H 0.7333 0.6656 0.0860
C9_4 C 0.6091(2) 0.8200(4) 0.10218(15)
O7_4 O 0.64660(16) 0.7626(3) 0.33591(10)
N11_4 N 0.73569(18) 0.6430(3) 0.23763(12)
O3_4 O 0.56992(15) 0.8955(3) 0.87821(11)
O4_4 O 0.64660(16) 0.7374(3) 0.83591(10)
C4_4 C 0.6177(2) 0.8116(4) 0.99099(15)
H7_4 H 0.5754 0.8738 0.9887
C5_4 C 0.6512(2) 0.7594(4) 0.93962(15)
C6_4 C 0.7137(2) 0.6699(5) 0.94387(16)
H8_4 H 0.7358 0.6323 0.9090
C7_4 C 0.7441(3) 0.6350(5) 0.99784(17)
H9_6 H 0.7873 0.5750 1.0000
C10_4 C 0.6199(2) 0.8000(4) 0.88057(15)
Mn4_4 Mn 0.45750(3) 0.90062(6) 0.84579(2)
O1_5 O 0.62994(15) 0.7416(3) 0.64846(10)
O2_5 O 0.55906(15) 0.5836(3) 0.59937(11)
O5_5 O 0.58362(18) 0.2788(3) 0.57912(11)
H1_5 H 0.5928 0.1911 0.5834
H2_5 H 0.5777 0.2930 0.5429
N1_5 N 0.67741(18) 0.5275(3) 0.73886(12)
N2_5 N 0.65816(18) 0.4241(3) 0.69904(12)
N3_5 N 0.70921(18) 0.3241(3) 0.69818(12)
N5_5 N 0.78280(19) 0.5551(3) 0.80282(13)
H3_5 H 0.7658 0.6374 0.8163
H4_5 H 0.8256 0.5200 0.8162
N6_5 N 0.53741(17) 0.1782(3) 0.70001(12)
N7_3 N 0.49039(18) 0.1402(3) 0.74434(12)
N8_3 N 0.50614(17) 0.0112(3) 0.76242(12)
N10_5 N 0.63932(18) 0.0584(3) 0.65068(12)
H6_5 H 0.6745 0.1238 0.6605
C1_5 C 0.7428(2) 0.4820(4) 0.76143(14)
C2_5 C 0.5829(2) 0.0651(4) 0.69346(15)
C3_5 C 0.6468(2) 0.7280(4) 0.54581(15)
C4_5 C 0.6177(2) 0.6884(4) 0.49099(15)
H7_5 H 0.5754 0.6262 0.4887
C5_5 C 0.6512(2) 0.7406(4) 0.43962(15)
C6_5 C 0.7137(2) 0.8301(5) 0.44387(16)
H8_5 H 0.7358 0.8677 0.4090
C7_5 C 0.7441(3) 0.8650(5) 0.49784(17)
H9_7 H 0.7873 0.9250 0.5000
C8_5 C 0.7115(2) 0.8127(4) 0.54884(16)
H10_5 H 0.7333 0.8344 0.5860
C9_5 C 0.6091(2) 0.6800(4) 0.60218(15)
C10_5 C 0.6199(2) 0.7000(4) 0.38057(15)
N12_3 N 0.50961(18) 0.6402(3) 0.75566(12)
N13_3 N 0.49386(17) 0.5112(3) 0.73758(12)
N14_3 N 0.56590(18) 0.9596(3) 0.73113(12)
H5_5 H 0.6584 0.9695 0.6470
N7_4 N 0.00961(18) 0.8598(3) 0.24434(12)
N13_4 N 0.00614(17) 0.4888(3) 0.23758(12)
N9_3 N 0.93410(18) 0.0404(3) 0.23113(12)
H5_6 H 0.8416 0.0305 0.1470
O1_6 O 0.87006(15) 0.2584(3) 0.14846(10)
O2_6 O 0.94094(15) 0.4164(3) 0.09937(11)
O5_6 O 0.91638(18) 0.7212(3) 0.07912(11)
H1_6 H 0.9072 0.8089 0.0834
H2_6 H 0.9223 0.7070 0.0429
N1_6 N 0.82259(18) 0.4725(3) 0.23886(12)
N2_6 N 0.84184(18) 0.5759(3) 0.19904(12)
N3_6 N 0.79079(18) 0.6759(3) 0.19818(12)
N5_6 N 0.71720(19) 0.4449(3) 0.30282(13)
H3_6 H 0.7342 0.3626 0.3163
H4_6 H 0.6744 0.4800 0.3162
N6_6 N 0.96259(17) 0.8218(3) 0.20001(12)
N8_4 N 0.99386(17) 0.9888(3) 0.26242(12)
N10_6 N 0.86068(18) 0.9416(3) 0.15068(12)
H6_6 H 0.8255 0.8762 0.1605
C1_6 C 0.7572(2) 0.5180(4) 0.26143(14)
C2_6 C 0.9171(2) 0.9349(4) 0.19346(15)
C3_6 C 0.8532(2) 0.2720(4) 0.04581(15)
H9_8 H 0.7127 0.0750 0.0000
C8_6 C 0.7885(2) 0.1873(4) 0.04884(16)
H10_6 H 0.7667 0.1656 0.0860
C9_6 C 0.8909(2) 0.3200(4) 0.10218(15)
N12_4 N 0.99039(18) 0.3598(3) 0.25566(12)
C4_6 C 0.8823(2) 0.3116(4) 0.99099(15)
H7_6 H 0.9246 0.3738 0.9887
C5_6 C 0.8488(2) 0.2594(4) 0.93962(15)
C6_6 C 0.7863(2) 0.1699(5) 0.94387(16)
H8_6 H 0.7642 0.1323 0.9090
C7_6 C 0.7559(3) 0.1350(5) 0.99784(17)
H9_9 H 0.7127 0.0750 1.0000
C10_6 C 0.8801(2) 0.3000(4) 0.88057(15)
O5_7 O 0.08362(18) 0.2212(3) 0.42088(11)
H1_7 H 0.0928 0.3089 0.4166
H2_7 H 0.0777 0.2070 0.4571
N2_7 N 0.15816(18) 0.0759(3) 0.30096(12)
N3_7 N 0.20921(18) 0.1759(3) 0.30182(12)
N6_7 N 0.03741(17) 0.3218(3) 0.29999(12)
N9_4 N 0.06590(18) 0.5404(3) 0.26887(12)
N10_7 N 0.13932(18) 0.4416(3) 0.34932(12)
H5_7 H 0.1584 0.5305 0.3530
H6_7 H 0.1745 0.3762 0.3395
C1_7 C 0.2428(2) 0.0180(4) 0.23857(14)
C2_7 C 0.0829(2) 0.4349(4) 0.30654(15)
O1_7 O 0.12994(15) 0.7584(3) 0.35154(10)
O2_7 O 0.05906(15) 0.9164(3) 0.40063(11)
N1_7 N 0.17741(18) 0.9725(3) 0.26114(12)
N5_7 N 0.28280(19) 0.9449(3) 0.19718(13)
H3_7 H 0.2658 0.8626 0.1837
H4_7 H 0.3256 0.9800 0.1838
C3_7 C 0.1468(2) 0.7720(4) 0.45419(15)
C4_7 C 0.1177(2) 0.8116(4) 0.50901(15)
H7_7 H 0.0754 0.8738 0.5113
C5_7 C 0.1512(2) 0.7594(4) 0.56038(15)
C6_7 C 0.2137(2) 0.6699(5) 0.55613(16)
H8_7 H 0.2358 0.6323 0.5910
C7_7 C 0.2441(3) 0.6350(5) 0.50216(17)
H9_10 H 0.2873 0.5750 0.5000
C8_7 C 0.2115(2) 0.6873(4) 0.45116(16)
H10_7 H 0.2333 0.6656 0.4140
C9_7 C 0.1091(2) 0.8200(4) 0.39782(15)
C10_7 C 0.1199(2) 0.8000(4) 0.61943(15)
C4_8 C 0.3823(2) 0.1884(4) 0.00901(15)
H7_8 H 0.4246 0.1262 0.0113
C5_8 C 0.3488(2) 0.2406(4) 0.06038(15)
C6_8 C 0.2863(2) 0.3301(5) 0.05613(16)
H8_8 H 0.2642 0.3677 0.0910
C7_8 C 0.2559(3) 0.3650(5) 0.00216(17)
H9_11 H 0.2127 0.4250 0.0000
C10_8 C 0.3801(2) 0.2000(4) 0.11943(15)
O1_8 O 0.37006(15) 0.2416(3) 0.85154(10)
O2_8 O 0.44094(15) 0.0836(3) 0.90063(11)
N1_8 N 0.32259(18) 0.0275(3) 0.76114(12)
N5_8 N 0.21720(19) 0.0551(3) 0.69718(13)
H3_8 H 0.2342 0.1374 0.6837
H4_8 H 0.1744 0.0200 0.6838
C3_8 C 0.3532(2) 0.2280(4) 0.95419(15)
H9_12 H 0.2127 0.4250 1.0000
C8_8 C 0.2885(2) 0.3127(4) 0.95116(16)
H10_8 H 0.2667 0.3344 0.9140
C9_8 C 0.3909(2) 0.1800(4) 0.89782(15)
N14_4 N 0.43410(18) 0.4596(3) 0.76887(12)
O5_8 O 0.41638(18) 0.7788(3) 0.92088(11)
H1_8 H 0.4072 0.6911 0.9166
H2_8 H 0.4223 0.7930 0.9571
N2_8 N 0.34184(18) 0.9241(3) 0.80096(12)
N3_8 N 0.29079(18) 0.8241(3) 0.80182(12)
N6_8 N 0.46259(17) 0.6782(3) 0.79999(12)
N10_8 N 0.36068(18) 0.5584(3) 0.84932(12)
H5_8 H 0.3416 0.4695 0.8530
H6_8 H 0.3255 0.6238 0.8395
C1_8 C 0.2572(2) 0.9820(4) 0.73857(14)
C2_8 C 0.4171(2) 0.5651(4) 0.80654(15)
loop_
_geom_bond_atom_site_label_1
_geom_bond_atom_site_label_2
_geom_bond_site_symmetry_1
_geom_bond_site_symmetry_2
Mn5 N9 1_555 1_555
Mn1 O2 1_555 1_555
Mn5 O1 1_555 1_555
O1 C9 1_555 1_555
O2 C9 1_555 1_555
O3 C10 1_555 1_555
O4 C10 1_555 1_555
O5 Mn1 1_555 1_555
H1 O5 1_555 1_555
H2 O5 1_555 1_555
N1 Mn5 1_555 1_555
N2 Mn1 1_555 1_555
N3 N2 1_555 1_555
N4 N3 1_555 1_555
N5 H3 1_555 1_555
H4 N5 1_555 1_555
N6 Mn1 1_555 1_555
N7 N6 1_555 1_555
N8 N7 1_555 1_555
H6 N10 1_555 1_555
C1 N1 1_555 1_555
C2 N6 1_555 1_555
C3 C4 1_555 1_555
C4 H7 1_555 1_555
C5 C4 1_555 1_555
C6 C5 1_555 1_555
H8 C6 1_555 1_555
C7 C6 1_555 1_555
H9 C7 1_555 1_555
C8 C3 1_555 1_555
H10 C8 1_555 1_555
C9 C3 1_555 1_555
C10 C5 1_555 1_555
Mn4 O3 1_555 1_555
Mn6 N7 1_555 1_555
Mn7 N4 1_555 1_555
Mn8 O4 1_555 1_555
O6 Mn1 1_555 1_555
O7 Mn5 1_555 1_555
N11 Mn5 1_555 1_555
N12 Mn5 1_555 1_555
N13 Mn1 1_555 1_555
N1 N2 1_555 1_555
N4 C1 1_555 1_555
N5 C1 1_555 1_555
N10 C2 1_555 1_555
C7 C8 1_555 1_555
N12 N13 1_555 1_555
O3_2 C10_2 1_555 1_555
O4_2 C10_2 1_555 1_555
C4_2 H7_2 1_555 1_555
C5_2 C4_2 1_555 1_555
C6_2 C5_2 1_555 1_555
H8_2 C6_2 1_555 1_555
C7_2 C6_2 1_555 1_555
H9_2 C7_2 1_555 1_555
C10_2 C5_2 1_555 1_555
Mn7 O4_2 1_555 1_555
Mn1_2 O2_2 1_555 1_555
Mn2 O1_2 1_555 1_555
O1_2 C9_2 1_555 1_555
O2_2 C9_2 1_555 1_555
O5_2 Mn1_2 1_555 1_555
H1_2 O5_2 1_555 1_555
H2_2 O5_2 1_555 1_555
N1_2 Mn2 1_555 1_555
N2_2 Mn1_2 1_555 1_555
N3_2 N2_2 1_555 1_555
N4_2 N3_2 1_555 1_555
N5_2 H3_2 1_555 1_555
H4_2 N5_2 1_555 1_555
N6_2 Mn1_2 1_555 1_555
H6_2 N10_2 1_555 1_555
C1_2 N1_2 1_555 1_555
C2_2 N6_2 1_555 1_555
C8_2 C3_2 1_555 1_555
H10_2 C8_2 1_555 1_555
C9_2 C3_2 1_555 1_555
Mn8 N4_2 1_555 1_555
O7_2 Mn2 1_555 1_555
N11_2 Mn2 1_555 1_555
N12_2 Mn2 1_555 1_555
N14 Mn2 1_555 1_555
N1_2 N2_2 1_555 1_555
N4_2 C1_2 1_555 1_555
N5_2 C1_2 1_555 1_555
N10_2 C2_2 1_555 1_555
Mn6_2 N7_2 1_555 1_555
Mn6_2 O1_3 1_555 1_555
O1_3 C9_3 1_555 1_555
O2_3 C9_3 1_555 1_555
O3_3 C10_3 1_555 1_555
O4_3 C10_3 1_555 1_555
N1_3 Mn6_2 1_555 1_555
N5_3 H3_3 1_555 1_555
H4_3 N5_3 1_555 1_555
C3_3 C4_3 1_555 1_555
C4_3 H7_3 1_555 1_555
C5_3 C4_3 1_555 1_555
C6_3 C5_3 1_555 1_555
H8_3 C6_3 1_555 1_555
C7_3 C6_3 1_555 1_555
H9_4 C7_3 1_555 1_555
C8_3 C3_3 1_555 1_555
H10_3 C8_3 1_555 1_555
C9_3 C3_3 1_555 1_555
C10_3 C5_3 1_555 1_555
Mn8_2 O4_3 1_555 1_555
O7_3 Mn6_2 1_555 1_555
N11_3 Mn6_2 1_555 1_555
N14_2 Mn6_2 1_555 1_555
C7_3 C8_3 1_555 1_555
O5_3 Mn3_2 1_555 1_555
H1_3 O5_3 1_555 1_555
H2_3 O5_3 1_555 1_555
N2_3 Mn3_2 1_555 1_555
N3_3 N2_3 1_555 1_555
N4_3 N3_3 1_555 1_555
N6_3 Mn3_2 1_555 1_555
N14_2 N13_2 1_555 1_555
N10_3 H5_3 1_555 1_555
H6_3 N10_3 1_555 1_555
C2_3 N6_3 1_555 1_555
Mn7_2 N4_3 1_555 1_555
N4_3 C1_3 1_555 1_555
N14_2 C2_3 1_555 1_555
N10_3 C2_3 1_555 1_555
O5_4 Mn3 1_555 1_555
H1_4 O5_4 1_555 1_555
H2_4 O5_4 1_555 1_555
N2_4 Mn3 1_555 1_555
N3_4 N2_4 1_555 1_555
N4_4 N3_4 1_555 1_555
N6_4 Mn3 1_555 1_555
N12 N6_4 1_555 1_555
N9_2 N13 1_555 1_555
N10_4 H5_4 1_555 1_555
H6_4 N10_4 1_555 1_555
C2_4 N6_4 1_555 1_555
Mn6 N9_2 1_555 1_555
Mn8_2 N4_4 1_555 1_555
O6_4 Mn3 1_555 1_555
N4_4 C1_4 1_555 1_555
N9_2 C2_4 1_555 1_555
N10_4 C2_4 1_555 1_555
Mn6 O1_4 1_555 1_555
O1_4 C9_4 1_555 1_555
O2_4 C9_4 1_555 1_555
N1_4 Mn6 1_555 1_555
N5_4 H3_4 1_555 1_555
H4_4 N5_4 1_555 1_555
C8_4 C3_4 1_555 1_555
H10_4 C8_4 1_555 1_555
C9_4 C3_4 1_555 1_555
O7_4 Mn6 1_555 1_555
N11_4 Mn6 1_555 1_555
O3_4 C10_4 1_555 1_555
O4_4 C10_4 1_555 1_555
C4_4 H7_4 1_555 1_555
C5_4 C4_4 1_555 1_555
C6_4 C5_4 1_555 1_555
H8_4 C6_4 1_555 1_555
C7_4 C6_4 1_555 1_555
H9_6 C7_4 1_555 1_555
C10_4 C5_4 1_555 1_555
Mn4_4 O3_4 1_555 1_555
Mn7_2 O4_4 1_555 1_555
Mn4 O2_5 1_555 1_555
Mn7_2 O1_5 1_555 1_555
O1_5 C9_5 1_555 1_555
O2_5 C9_5 1_555 1_555
O6 C10_5 1_555 1_555
O7_4 C10_5 1_555 1_555
O5_5 Mn4 1_555 1_555
H1_5 O5_5 1_555 1_555
H2_5 O5_5 1_555 1_555
N1_5 Mn7_2 1_555 1_555
N2_5 Mn4 1_555 1_555
N3_5 N2_5 1_555 1_555
N11_3 N3_5 1_555 1_555
N5_5 H3_5 1_555 1_555
H4_5 N5_5 1_555 1_555
N6_5 Mn4 1_555 1_555
N7_3 N6_5 1_555 1_555
N8_3 N7_3 1_555 1_555
H6_5 N10_5 1_555 1_555
C1_5 N1_5 1_555 1_555
C2_5 N6_5 1_555 1_555
C3_5 C4_5 1_555 1_555
C4_5 H7_5 1_555 1_555
C5_5 C4_5 1_555 1_555
C6_5 C5_5 1_555 1_555
H8_5 C6_5 1_555 1_555
C7_5 C6_5 1_555 1_555
H9_7 C7_5 1_555 1_555
C8_5 C3_5 1_555 1_555
H10_5 C8_5 1_555 1_555
C9_5 C3_5 1_555 1_555
C10_5 C5_5 1_555 1_555
Mn8 N7_3 1_555 1_555
N12_3 Mn7_2 1_555 1_555
N13_3 Mn4 1_555 1_555
N14_3 Mn7_2 1_555 1_555
N1_5 N2_5 1_555 1_555
N11_3 C1_5 1_555 1_555
N5_5 C1_5 1_555 1_555
N10_5 C2_5 1_555 1_555
C7_5 C8_5 1_555 1_555
N12_3 N13_3 1_555 1_555
Mn7 N7_4 1_555 1_555
Mn8_2 N9_3 1_555 1_555
Mn4_2 O2_6 1_555 1_555
Mn8_2 O1_6 1_555 1_555
O1_6 C9_6 1_555 1_555
O2_6 C9_6 1_555 1_555
O5_6 Mn4_2 1_555 1_555
H1_6 O5_6 1_555 1_555
H2_6 O5_6 1_555 1_555
N1_6 Mn8_2 1_555 1_555
N2_6 Mn4_2 1_555 1_555
N3_6 N2_6 1_555 1_555
N11_4 N3_6 1_555 1_555
N5_6 H3_6 1_555 1_555
H4_6 N5_6 1_555 1_555
N6_6 Mn4_2 1_555 1_555
H6_6 N10_6 1_555 1_555
C1_6 N1_6 1_555 1_555
C2_6 N6_6 1_555 1_555
C8_6 C3_6 1_555 1_555
H10_6 C8_6 1_555 1_555
C9_6 C3_6 1_555 1_555
N12_4 Mn8_2 1_555 1_555
N1_6 N2_6 1_555 1_555
N11_4 C1_6 1_555 1_555
N5_6 C1_6 1_555 1_555
N10_6 C2_6 1_555 1_555
O6_2 C10_6 1_555 1_555
O7_3 C10_6 1_555 1_555
C4_6 H7_6 1_555 1_555
C5_6 C4_6 1_555 1_555
C6_6 C5_6 1_555 1_555
H8_6 C6_6 1_555 1_555
C7_6 C6_6 1_555 1_555
H9_9 C7_6 1_555 1_555
C10_6 C5_6 1_555 1_555
O5_7 Mn4_3 1_555 1_555
H1_7 O5_7 1_555 1_555
H2_7 O5_7 1_555 1_555
N2_7 Mn4_3 1_555 1_555
N3_7 N2_7 1_555 1_555
N11 N3_7 1_555 1_555
N6_7 Mn4_3 1_555 1_555
N9_4 N13_4 1_555 1_555
N10_7 H5_7 1_555 1_555
H6_7 N10_7 1_555 1_555
C2_7 N6_7 1_555 1_555
Mn7 N9_4 1_555 1_555
N11 C1_7 1_555 1_555
N9_4 C2_7 1_555 1_555
N10_7 C2_7 1_555 1_555
Mn7 O1_7 1_555 1_555
O1_7 C9_7 1_555 1_555
O2_7 C9_7 1_555 1_555
O6_3 C10_7 1_555 1_555
O7_2 C10_7 1_555 1_555
N1_7 Mn7 1_555 1_555
N5_7 H3_7 1_555 1_555
H4_7 N5_7 1_555 1_555
C3_7 C4_7 1_555 1_555
C4_7 H7_7 1_555 1_555
C5_7 C4_7 1_555 1_555
C6_7 C5_7 1_555 1_555
H8_7 C6_7 1_555 1_555
C7_7 C6_7 1_555 1_555
H9_10 C7_7 1_555 1_555
C8_7 C3_7 1_555 1_555
H10_7 C8_7 1_555 1_555
C9_7 C3_7 1_555 1_555
C10_7 C5_7 1_555 1_555
C7_7 C8_7 1_555 1_555
O6_4 C10_8 1_555 1_555
O7 C10_8 1_555 1_555
C4_8 H7_8 1_555 1_555
C5_8 C4_8 1_555 1_555
C6_8 C5_8 1_555 1_555
H8_8 C6_8 1_555 1_555
C7_8 C6_8 1_555 1_555
H9_11 C7_8 1_555 1_555
C10_8 C5_8 1_555 1_555
Mn8 O1_8 1_555 1_555
O1_8 C9_8 1_555 1_555
O2_8 C9_8 1_555 1_555
N1_8 Mn8 1_555 1_555
N5_8 H3_8 1_555 1_555
H4_8 N5_8 1_555 1_555
C8_8 C3_8 1_555 1_555
H10_8 C8_8 1_555 1_555
C9_8 C3_8 1_555 1_555
N14_4 Mn8 1_555 1_555
O5_8 Mn4_4 1_555 1_555
H1_8 O5_8 1_555 1_555
H2_8 O5_8 1_555 1_555
N2_8 Mn4_4 1_555 1_555
N3_8 N2_8 1_555 1_555
N11_2 N3_8 1_555 1_555
N6_8 Mn4_4 1_555 1_555
N12_3 N6_8 1_555 1_555
N14_4 N13_3 1_555 1_555
N10_8 H5_8 1_555 1_555
H6_8 N10_8 1_555 1_555
C2_8 N6_8 1_555 1_555
N11_2 C1_8 1_555 1_555
N14_4 C2_8 1_555 1_555
N10_8 C2_8 1_555 1_555

#END
