
###############################################################################
#
# This file contains modified crystal structure data generated from the
# MOF subset of the Cambridge Structural Database (CSD) v543 
# hosted by the Cambridge Crystallographic Data Centre (CCDC).
#
# This work is licensed under the Creative Commons
# Attribution-NonCommercial-ShareAlike 4.0 International License.
# To view a copy of this license, visit
# http://creativecommons.org/licenses/by-nc-sa/4.0/
# or send a letter to
# Creative Commons, PO Box 1866, Mountain View, CA 94042, USA.
#
# CIF created using the CSD Python API on 29 September 2022
# The structure has been converted into the P1 space group
# The structure has a 3D framework
# The original CSD entry AHADUJ is in the monoclinic crystal system
# The framework has been calculated to contain at least 10.0% void space
# The void calculation uses a probe of radius 1.32A, grid spacing 0.4
#
###############################################################################

data_AHADUJ
_chemical_formula_moiety         '(C72 H68 Co4 N16 O16)n'
_symmetry_cell_setting           triclinic
_symmetry_space_group_name_H-M   'P 1'
_symmetry_Int_Tables_number      1
_space_group_name_Hall           'P 1'
loop_
_symmetry_equiv_pos_site_id
_symmetry_equiv_pos_as_xyz
1 x,y,z
_cell_length_a                   11.328(4)
_cell_length_b                   12.873(4)
_cell_length_c                   14.424(5)
_cell_angle_alpha                90
_cell_angle_beta                 101.925(6)
_cell_angle_gamma                90
_cell_volume                     2057.99
loop_
_atom_site_label
_atom_site_type_symbol
_atom_site_fract_x
_atom_site_fract_y
_atom_site_fract_z
N8 N 0.33251(15) 0.00190(13) 0.00299(12)
C28 C 0.0743(2) 0.13804(18) 0.00314(16)
C29 C 0.1877(2) 0.11684(16) 0.06038(16)
C30 C 0.3023(2) 0.10996(17) 0.02319(17)
H28 H 0.3682 0.1395 0.0695
C33 C 0.1953(2) 0.1018(2) 0.15714(17)
H31 H 0.2704 0.0893 0.1958
C35 C 0.0954(3) 0.1048(2) 0.19706(19)
H33 H 0.1027 0.0943 0.2618
N1 N 0.22352(17) 0.77106(14) 0.71906(13)
C2 C 0.1711(2) 0.8522(2) 0.66349(17)
H1 H 0.2057 0.9173 0.6604
C3 C 0.1442(2) 0.6945(2) 0.70191(16)
H2 H 0.1557 0.6293 0.7301
C4 C 0.0621(2) 0.8229(2) 0.61422(18)
H3 H 0.0084 0.8633 0.5715
N2 N 0.04556(19) 0.72234(16) 0.63917(14)
C16 C 0.0251(2) 0.6401(2) 0.45523(19)
H15 H 0.1009 0.6530 0.4928
C18 C 0.0150(3) 0.6236(2) 0.3596(2)
H17 H 0.0835 0.6253 0.3335
C23 C 0.0599(2) 0.1586(2) 0.89825(17)
H21 H 0.1316 0.1935 0.8870
H22 H 0.0527 0.0929 0.8646
Co4 Co 0.38422(2) 0.77267(2) 0.811975(18)
H26 H 0.3194 0.0017 0.8620
H27 H 0.2934 0.1507 0.9656
C31 C 0.3834(2) 0.83934(19) 0.01598(16)
H29 H 0.4056 0.7741 0.0413
C32 C 0.3631(2) 0.9230(2) 0.06626(17)
H30 H 0.3688 0.9263 0.1314
N9 N 0.36675(16) 0.86441(14) 0.92226(12)
C26 C 0.3363(2) 0.96336(17) 0.91778(15)
C5 C 0.9401(2) 0.6586(2) 0.60175(17)
H4 H 0.8684 0.6935 0.6130
H5 H 0.9473 0.5929 0.6354
Co1 Co 0.61578(2) 0.27267(2) 0.688025(18)
O2 O 0.61482(15) 0.12547(12) 0.64147(11)
O3 O 0.42975(16) 0.17410(12) 0.58561(12)
N3 N 0.66749(15) 0.50190(13) 0.49701(12)
N4 N 0.63325(16) 0.36441(14) 0.57774(12)
C8 C 0.6637(2) 0.46336(17) 0.58222(15)
H9 H 0.6806 0.5017 0.6380
C9 C 0.5084(2) 0.10689(16) 0.59562(14)
C10 C 0.9257(2) 0.63804(18) 0.49686(16)
C11 C 0.8123(2) 0.61684(16) 0.43962(16)
C12 C 0.6977(2) 0.60996(17) 0.47681(17)
H10 H 0.7066 0.6507 0.5344
H11 H 0.6318 0.6395 0.4305
C13 C 0.6166(2) 0.33934(19) 0.48402(16)
H12 H 0.5944 0.2741 0.4587
C14 C 0.6369(2) 0.4230(2) 0.43374(17)
H13 H 0.6312 0.4263 0.3686
C15 C 0.8047(2) 0.6018(2) 0.34286(17)
H14 H 0.7296 0.5893 0.3042
C17 C 0.9046(3) 0.6048(2) 0.30294(19)
H16 H 0.8973 0.5943 0.2382
O5 O 0.49796(15) 0.20052(13) 0.26988(11)
O6 O 0.49796(15) 0.29948(13) 0.76988(11)
C19 C 0.5139(2) 0.10944(17) 0.30459(14)
N5 N 0.77648(17) 0.27106(14) 0.78094(13)
C20 C 0.8289(2) 0.3522(2) 0.83651(17)
H18 H 0.7943 0.4173 0.8396
C21 C 0.8558(2) 0.1945(2) 0.79809(16)
H19 H 0.8443 0.1293 0.7699
C22 C 0.9379(2) 0.3229(2) 0.88578(18)
H20 H 0.9916 0.3633 0.9285
N7 N 0.95444(19) 0.22234(16) 0.86083(14)
Co5 Co 0.61578(2) 0.22733(2) 0.188025(18)
C24 C 0.51777(18) 0.00008(15) 0.45054(13)
H23 H 0.6048 0.0127 0.4603
C25 C 0.45305(19) 0.08552(16) 0.38620(13)
H24 H 0.4508 0.1481 0.4233
H25 H 0.3705 0.0642 0.3612
O10 O 0.57606(17) 0.04392(14) 0.27399(12)
O1 O 0.50204(15) 0.79948(13) 0.73012(11)
C1 C 0.4861(2) 0.89056(17) 0.69541(14)
C6 C 0.48223(18) 0.99992(15) 0.54946(13)
H6 H 0.3952 0.9873 0.5397
C7 C 0.54695(19) 0.91448(16) 0.61380(13)
H7 H 0.5492 0.8519 0.5767
H8 H 0.6295 0.9358 0.6388
O4 O 0.42394(17) 0.95608(14) 0.72601(12)
O7 O 0.50204(15) 0.70052(13) 0.23012(11)
N6 N 0.22352(17) 0.72894(14) 0.21906(13)
Co2 Co 0.38422(2) 0.72733(2) 0.311975(18)
O8 O 0.38518(15) 0.87453(12) 0.35853(11)
O9 O 0.57025(16) 0.82590(12) 0.41439(12)
N10 N 0.36675(16) 0.63559(14) 0.42226(12)
C27 C 0.4916(2) 0.89311(16) 0.40438(14)
C19_2 C 0.4861(2) 0.60944(17) 0.19541(14)
N6_2 N 0.77648(17) 0.22894(14) 0.28094(13)
O8_2 O 0.61482(15) 0.37453(12) 0.14147(11)
O9_2 O 0.42975(16) 0.32590(12) 0.08561(12)
C24_2 C 0.48223(18) 0.50008(15) 0.04946(13)
H23_2 H 0.3952 0.5127 0.0397
N10_2 N 0.63325(16) 0.13559(14) 0.07774(12)
C25_2 C 0.54695(19) 0.58552(16) 0.11380(13)
H24_2 H 0.5492 0.6481 0.0767
H25_2 H 0.6295 0.5642 0.1388
O10_2 O 0.42394(17) 0.54392(14) 0.22601(12)
C27_2 C 0.5084(2) 0.39311(16) 0.09562(14)
C1_2 C 0.5139(2) 0.39056(17) 0.80459(14)
O2_2 O 0.38518(15) 0.62547(12) 0.85853(11)
O3_2 O 0.57025(16) 0.67410(12) 0.91439(12)
C6_2 C 0.51777(18) 0.49992(15) 0.95054(13)
H6_2 H 0.6048 0.4873 0.9603
C7_2 C 0.45305(19) 0.41448(16) 0.88620(13)
H7_2 H 0.4508 0.3519 0.9233
H8_2 H 0.3705 0.4358 0.8612
O4_2 O 0.57606(17) 0.45608(14) 0.77399(12)
C9_2 C 0.4916(2) 0.60689(16) 0.90438(14)
C5_2 C 0.0599(2) 0.3414(2) 0.39825(17)
H4_2 H 0.1316 0.3065 0.3870
H5_2 H 0.0527 0.4071 0.3646
N3_2 N 0.33251(15) 0.49810(13) 0.50299(12)
C8_2 C 0.3363(2) 0.53664(17) 0.41778(15)
H9_2 H 0.3194 0.4983 0.3620
C10_2 C 0.0743(2) 0.36196(18) 0.50314(16)
C11_2 C 0.1877(2) 0.38316(16) 0.56038(16)
C12_2 C 0.3023(2) 0.39004(17) 0.52319(17)
H10_2 H 0.2934 0.3493 0.4656
H11_2 H 0.3682 0.3605 0.5695
C13_2 C 0.3834(2) 0.66066(19) 0.51598(16)
H12_2 H 0.4056 0.7259 0.5413
C14_2 C 0.3631(2) 0.5770(2) 0.56626(17)
H13_2 H 0.3688 0.5737 0.6314
C15_2 C 0.1953(2) 0.3982(2) 0.65714(17)
H14_2 H 0.2704 0.4107 0.6958
C17_2 C 0.0954(3) 0.3952(2) 0.69706(19)
H16_2 H 0.1027 0.4057 0.7618
C20_2 C 0.1711(2) 0.6478(2) 0.16349(17)
H18_2 H 0.2057 0.5827 0.1604
C21_2 C 0.1442(2) 0.8055(2) 0.20191(16)
H19_2 H 0.1557 0.8707 0.2301
C22_2 C 0.0621(2) 0.6771(2) 0.11422(18)
H20_2 H 0.0084 0.6367 0.0715
N7_2 N 0.04556(19) 0.77766(16) 0.13917(14)
C26_2 C 0.6637(2) 0.03664(17) 0.08222(15)
C31_2 C 0.6166(2) 0.16066(19) 0.98402(16)
H29_2 H 0.5944 0.2259 0.9587
C32_2 C 0.6369(2) 0.0770(2) 0.93374(17)
H30_2 H 0.6312 0.0737 0.8686
C2_2 C 0.8289(2) 0.1478(2) 0.33651(17)
H1_2 H 0.7943 0.0827 0.3396
C3_2 C 0.8558(2) 0.3055(2) 0.29809(16)
H2_2 H 0.8443 0.3707 0.2699
C4_2 C 0.9379(2) 0.1771(2) 0.38578(18)
H3_2 H 0.9916 0.1367 0.4285
N2_2 N 0.95444(19) 0.27766(16) 0.36083(14)
C16_2 C 0.9749(2) 0.3599(2) 0.54477(19)
H15_2 H 0.8991 0.3470 0.5072
C18_2 C 0.9850(3) 0.3764(2) 0.6404(2)
H17_2 H 0.9165 0.3747 0.6665
C23_2 C 0.9401(2) 0.8414(2) 0.10175(17)
H21_2 H 0.8684 0.8065 0.1130
H22_2 H 0.9473 0.9071 0.1354
H26_2 H 0.6806 0.9983 0.1380
H27_2 H 0.7066 0.8493 0.0344
C34 C 0.9749(2) 0.1401(2) 0.04477(19)
H32 H 0.8991 0.1530 0.0072
C36 C 0.9850(3) 0.1236(2) 0.1404(2)
H34 H 0.9165 0.1253 0.1665
C34_2 C 0.0251(2) 0.8599(2) 0.95523(19)
H32_2 H 0.1009 0.8470 0.9928
C36_2 C 0.0150(3) 0.8764(2) 0.8596(2)
H34_2 H 0.0835 0.8747 0.8335
N8_2 N 0.66749(15) 0.99810(13) 0.99701(12)
C28_2 C 0.9257(2) 0.86196(18) 0.99686(16)
C29_2 C 0.8123(2) 0.88316(16) 0.93962(16)
C30_2 C 0.6977(2) 0.89004(17) 0.97681(17)
H28_2 H 0.6318 0.8605 0.9305
C33_2 C 0.8047(2) 0.8982(2) 0.84286(17)
H31_2 H 0.7296 0.9107 0.8042
C35_2 C 0.9046(3) 0.8952(2) 0.80294(19)
H33_2 H 0.8973 0.9057 0.7382
loop_
_geom_bond_atom_site_label_1
_geom_bond_atom_site_label_2
_geom_bond_site_symmetry_1
_geom_bond_site_symmetry_2
C29 C28 1_555 1_555
C30 N8 1_555 1_555
H28 C30 1_555 1_555
C33 C29 1_555 1_555
H31 C33 1_555 1_555
C35 C33 1_555 1_555
H33 C35 1_555 1_555
C29 C30 1_555 1_555
N1 C2 1_555 1_555
C2 H1 1_555 1_555
C3 N1 1_555 1_555
H2 C3 1_555 1_555
C4 C2 1_555 1_555
H3 C4 1_555 1_555
N2 C3 1_555 1_555
H15 C16 1_555 1_555
C18 C16 1_555 1_555
H17 C18 1_555 1_555
H21 C23 1_555 1_555
H22 C23 1_555 1_555
Co4 N1 1_555 1_555
C4 N2 1_555 1_555
H29 C31 1_555 1_555
H30 C32 1_555 1_555
C31 C32 1_555 1_555
Co4 N9 1_555 1_555
N9 C26 1_555 1_555
H4 C5 1_555 1_555
H5 C5 1_555 1_555
Co1 O2 1_555 1_555
O2 C9 1_555 1_555
O3 C9 1_555 1_555
N3 C8 1_555 1_555
N4 Co1 1_555 1_555
C8 N4 1_555 1_555
H9 C8 1_555 1_555
C10 C5 1_555 1_555
C11 C10 1_555 1_555
C12 N3 1_555 1_555
H10 C12 1_555 1_555
H11 C12 1_555 1_555
C13 N4 1_555 1_555
H12 C13 1_555 1_555
C14 N3 1_555 1_555
H13 C14 1_555 1_555
C15 C11 1_555 1_555
H14 C15 1_555 1_555
C17 C15 1_555 1_555
H16 C17 1_555 1_555
O5 C19 1_555 1_555
O6 Co1 1_555 1_555
C19 C25 1_555 1_555
N5 Co1 1_555 1_555
C20 N5 1_555 1_555
H18 C20 1_555 1_555
C21 N5 1_555 1_555
H19 C21 1_555 1_555
C22 C20 1_555 1_555
H20 C22 1_555 1_555
N7 C21 1_555 1_555
Co5 O5 1_555 1_555
H23 C24 1_555 1_555
C25 C24 1_555 1_555
H24 C25 1_555 1_555
H25 C25 1_555 1_555
O10 C19 1_555 1_555
C11 C12 1_555 1_555
C13 C14 1_555 1_555
C22 N7 1_555 1_555
O1 C1 1_555 1_555
C1 C7 1_555 1_555
C6 H6 1_555 1_555
C7 C6 1_555 1_555
H7 C7 1_555 1_555
H8 C7 1_555 1_555
O4 C1 1_555 1_555
O7 Co2 1_555 1_555
N6 Co2 1_555 1_555
Co2 O8 1_555 1_555
Co4 O1 1_555 1_555
O8 C27 1_555 1_555
O9 C27 1_555 1_555
N10 Co2 1_555 1_555
O7 C19_2 1_555 1_555
C19_2 C25_2 1_555 1_555
N6_2 Co5 1_555 1_555
Co5 O8_2 1_555 1_555
O8_2 C27_2 1_555 1_555
O9_2 C27_2 1_555 1_555
H23_2 C24_2 1_555 1_555
N10_2 Co5 1_555 1_555
C25_2 C24_2 1_555 1_555
H24_2 C25_2 1_555 1_555
H25_2 C25_2 1_555 1_555
O10_2 C19_2 1_555 1_555
C27_2 C24_2 1_555 1_555
O6 C1_2 1_555 1_555
C1_2 C7_2 1_555 1_555
Co4 O2_2 1_555 1_555
O2_2 C9_2 1_555 1_555
O3_2 C9_2 1_555 1_555
C6_2 H6_2 1_555 1_555
C7_2 C6_2 1_555 1_555
H7_2 C7_2 1_555 1_555
H8_2 C7_2 1_555 1_555
O4_2 C1_2 1_555 1_555
C9_2 C6_2 1_555 1_555
H4_2 C5_2 1_555 1_555
H5_2 C5_2 1_555 1_555
N3_2 C8_2 1_555 1_555
C8_2 N10 1_555 1_555
H9_2 C8_2 1_555 1_555
C10_2 C5_2 1_555 1_555
C11_2 C10_2 1_555 1_555
C12_2 N3_2 1_555 1_555
H10_2 C12_2 1_555 1_555
H11_2 C12_2 1_555 1_555
C13_2 N10 1_555 1_555
H12_2 C13_2 1_555 1_555
C14_2 N3_2 1_555 1_555
H13_2 C14_2 1_555 1_555
C15_2 C11_2 1_555 1_555
H14_2 C15_2 1_555 1_555
C17_2 C15_2 1_555 1_555
H16_2 C17_2 1_555 1_555
C20_2 N6 1_555 1_555
H18_2 C20_2 1_555 1_555
C21_2 N6 1_555 1_555
H19_2 C21_2 1_555 1_555
C22_2 C20_2 1_555 1_555
H20_2 C22_2 1_555 1_555
N7_2 C21_2 1_555 1_555
C11_2 C12_2 1_555 1_555
C13_2 C14_2 1_555 1_555
C22_2 N7_2 1_555 1_555
N10_2 C26_2 1_555 1_555
H29_2 C31_2 1_555 1_555
H30_2 C32_2 1_555 1_555
C31_2 C32_2 1_555 1_555
N6_2 C2_2 1_555 1_555
C2_2 H1_2 1_555 1_555
C3_2 N6_2 1_555 1_555
H2_2 C3_2 1_555 1_555
C4_2 C2_2 1_555 1_555
H3_2 C4_2 1_555 1_555
N2_2 C3_2 1_555 1_555
H15_2 C16_2 1_555 1_555
C18_2 C16_2 1_555 1_555
H17_2 C18_2 1_555 1_555
H21_2 C23_2 1_555 1_555
H22_2 C23_2 1_555 1_555
C4_2 N2_2 1_555 1_555
H32 C34 1_555 1_555
C36 C34 1_555 1_555
H34 C36 1_555 1_555
H32_2 C34_2 1_555 1_555
C36_2 C34_2 1_555 1_555
H34_2 C36_2 1_555 1_555
C29_2 C28_2 1_555 1_555
C30_2 N8_2 1_555 1_555
H28_2 C30_2 1_555 1_555
C33_2 C29_2 1_555 1_555
H31_2 C33_2 1_555 1_555
C35_2 C33_2 1_555 1_555
H33_2 C35_2 1_555 1_555
C29_2 C30_2 1_555 1_555

#END
