
###############################################################################
#
# This file contains modified crystal structure data generated from the
# MOF subset of the Cambridge Structural Database (CSD) v543 
# hosted by the Cambridge Crystallographic Data Centre (CCDC).
#
# This work is licensed under the Creative Commons
# Attribution-NonCommercial-ShareAlike 4.0 International License.
# To view a copy of this license, visit
# http://creativecommons.org/licenses/by-nc-sa/4.0/
# or send a letter to
# Creative Commons, PO Box 1866, Mountain View, CA 94042, USA.
#
# CIF created using the CSD Python API on 29 September 2022
# The structure has been converted into the P1 space group
# The structure has a 3D framework
# The original CSD entry AHINIP is in the monoclinic crystal system
# The original CSD entry AHINIP is in a Sohncke space group
# The framework has been calculated to contain at least 10.0% void space
# The void calculation uses a probe of radius 1.32A, grid spacing 0.4
#
###############################################################################

data_AHINIP
_chemical_formula_moiety         '(C112 H104 N24 O16 Zn4)n'
_symmetry_cell_setting           triclinic
_symmetry_space_group_name_H-M   'P 1'
_symmetry_Int_Tables_number      1
_space_group_name_Hall           'P 1'
loop_
_symmetry_equiv_pos_site_id
_symmetry_equiv_pos_as_xyz
1 x,y,z
_cell_length_a                   10.592(4)
_cell_length_b                   22.306(8)
_cell_length_c                   13.120(5)
_cell_angle_alpha                90
_cell_angle_beta                 100.813(4)
_cell_angle_gamma                90
_cell_volume                     3044.76
loop_
_atom_site_label
_atom_site_type_symbol
_atom_site_fract_x
_atom_site_fract_y
_atom_site_fract_z
H17 H 0.0084 0.2503 0.6183
C34 C 0.1347(13) 0.3360(6) 0.8729(9)
H22 H 0.1339 0.3153 0.9342
C35 C 0.0955(12) 0.3611(9) 0.7107(10)
H23 H 0.0623 0.3617 0.6399
C36 C 0.1794(11) 0.3999(7) 0.7592(9)
H24 H 0.2157 0.4316 0.7287
N11 N 0.0639(9) 0.3196(5) 0.7793(8)
N12 N 0.2049(9) 0.3846(5) 0.8673(8)
Zn5 Zn 0.30466(11) 0.42922(6) 0.98770(9)
C17 C 0.1041(16) 0.5913(7) 0.9672(12)
H11 H 0.0786 0.6289 0.9402
C18 C 0.1914(15) 0.5544(8) 0.9319(14)
H12 H 0.2325 0.5620 0.8766
N6 N 0.2059(9) 0.5043(6) 0.9942(8)
Zn1 Zn 0.77725(11) 0.36159(6) 0.48448(9)
C1 C 0.4253(11) 0.2258(6) 0.6845(13)
H1 H 0.4760 0.2592 0.7058
C2 C 0.4329(11) 0.2012(8) 0.5892(11)
C3 C 0.3566(11) 0.1537(6) 0.5562(10)
H2 H 0.3583 0.1370 0.4915
C4 C 0.2791(11) 0.1304(7) 0.6152(11)
C5 C 0.2064(13) 0.0858(7) 0.5855(11)
H3 H 0.2081 0.0695 0.5206
C6 C 0.1260(13) 0.0604(7) 0.6436(11)
H4 H 0.0801 0.0263 0.6185
C7 C 0.1100(11) 0.0845(6) 0.7415(9)
C8 C 0.0281(10) 0.0606(5) 0.7963(8)
C9 C 0.0227(10) 0.0873(6) 0.8912(11)
C10 C 0.1053(11) 0.1339(7) 0.9282(10)
H6 H 0.1011 0.1507 0.9924
C11 C 0.1896(10) 0.1297(6) 0.7733(9)
C12 C 0.2742(10) 0.1553(6) 0.7079(11)
C13 C 0.6013(12) 0.2741(7) 0.5580(10)
H7 H 0.6156 0.2920 0.6232
C14 C 0.5171(14) 0.2153(7) 0.4210(11)
H8 H 0.4658 0.1882 0.3781
C15 C 0.6076(15) 0.2503(10) 0.3963(13)
H9 H 0.6325 0.2495 0.3320
C19 C 0.4319(12) 0.5710(7) 0.2121(9)
H13 H 0.4787 0.5622 0.1607
C20 C 0.4452(12) 0.5356(6) 0.3014(10)
C21 C 0.3838(12) 0.5478(6) 0.3761(9)
H14 H 0.3972 0.5236 0.4349
C22 C 0.2995(11) 0.5953(6) 0.3706(9)
C23 C 0.2282(14) 0.6099(7) 0.4482(12)
H15 H 0.2400 0.5880 0.5096
C24 C 0.1425(15) 0.6559(7) 0.4333(13)
H16 H 0.0946 0.6639 0.4843
C25 C 0.1237(12) 0.6915(6) 0.3440(9)
C26 C 0.0360(11) 0.7399(6) 0.3295(9)
C27 C 0.0169(11) 0.7709(6) 0.2396(10)
C28 C 0.0844(11) 0.7570(6) 0.1638(10)
H18 H 0.0698 0.7797 0.1033
C29 C 0.1868(11) 0.6793(6) 0.2671(9)
C30 C 0.2809(11) 0.6291(6) 0.2783(10)
C31 C 0.6042(12) 0.4630(7) 0.4021(10)
H19 H 0.5967 0.4754 0.4684
C32 C 0.5722(10) 0.4541(7) 0.2302(10)
H20 H 0.5425 0.4600 0.1596
C33 C 0.6535(11) 0.4102(7) 0.2739(11)
H21 H 0.6880 0.3799 0.2387
C37 C 0.9643(12) 0.3194(9) 0.3903(12)
H33 H 0.9995 0.2907 0.1122
H36 H 0.9433 0.3684 0.2096
C46 C 0.5321(16) 0.4656(14) 0.9392(16)
C47 C 0.6596(13) 0.4603(9) 0.9124(13)
C48 C 0.6616(12) 0.4242(10) 0.8156(10)
C49 C 0.7905(11) 0.4378(10) 0.7795(11)
H39 H 0.8547 0.4100 0.8166
C50 C 0.8295(12) 0.5003(9) 0.8199(12)
H40 H 0.8323 0.5278 0.7630
H41 H 0.9131 0.4997 0.8652
C51 C 0.7208(13) 0.5193(7) 0.8819(12)
H42 H 0.7576 0.5420 0.9434
H43 H 0.6565 0.5439 0.8387
H46 H 0.7826 0.4020 0.9924
C53 C 0.6446(14) 0.3533(10) 0.8380(12)
H47 H 0.6826 0.3445 0.9087
H48 H 0.6864 0.3301 0.7924
H49 H 0.5548 0.3434 0.8261
C54 C 0.5471(14) 0.4351(13) 0.7301(13)
H50 H 0.5742 0.4347 0.6643
H51 H 0.5099 0.4734 0.7403
H52 H 0.4844 0.4042 0.7314
C55 C 0.7860(12) 0.4281(13) 0.6679(12)
N1 N 0.3505(10) 0.2052(6) 0.7484(10)
N2 N 0.1938(10) 0.1562(5) 0.8726(9)
N3 N 0.5144(9) 0.2276(5) 0.5239(9)
N4 N 0.6615(9) 0.2882(6) 0.4765(9)
N7 N 0.3470(10) 0.6199(5) 0.2011(8)
N8 N 0.1730(9) 0.7112(5) 0.1720(8)
N9 N 0.5422(8) 0.4882(5) 0.3091(7)
N10 N 0.6753(8) 0.4186(6) 0.3793(8)
O1 O 0.9523(7) 0.3478(5) 0.4667(6)
O2 O 0.8688(9) 0.2931(6) 0.3313(7)
O5 O 0.4835(6) 0.4283(6) 0.9783(5)
O6 O 0.4627(18) 0.5074(8) 0.9052(19)
O7 O 0.7843(14) 0.4702(9) 0.6091(10)
O8 O 0.7809(8) 0.3773(6) 0.6307(7)
H5 H 0.0228 0.5277 0.2278
C16 C 0.1292(10) 0.5136(6) 0.0554(10)
H10 H 0.1196 0.4857 0.1060
N5 N 0.0618(9) 0.5650(5) 0.0457(8)
C19_2 C 0.5681(12) 0.0710(7) 0.7879(9)
H13_2 H 0.5213 0.0622 0.8393
C20_2 C 0.5548(12) 0.0356(6) 0.6986(10)
C21_2 C 0.6162(12) 0.0478(6) 0.6239(9)
H14_2 H 0.6028 0.0236 0.5651
C22_2 C 0.7005(11) 0.0953(6) 0.6294(9)
C23_2 C 0.7718(14) 0.1099(7) 0.5518(12)
H15_2 H 0.7600 0.0880 0.4904
C24_2 C 0.8575(15) 0.1559(7) 0.5667(13)
H16_2 H 0.9054 0.1639 0.5157
C25_2 C 0.8763(12) 0.1915(6) 0.6560(9)
C26_2 C 0.9640(11) 0.2399(6) 0.6705(9)
C27_2 C 0.9831(11) 0.2709(6) 0.7604(10)
C28_2 C 0.9156(11) 0.2570(6) 0.8362(10)
H18_2 H 0.9302 0.2797 0.8967
C29_2 C 0.8132(11) 0.1793(6) 0.7329(9)
C30_2 C 0.7191(11) 0.1291(6) 0.7217(10)
C50_2 C 0.1705(12) 0.0003(9) 0.1801(12)
H40_2 H 0.1677 0.0278 0.2370
C51_2 C 0.2792(13) 0.0193(7) 0.1181(12)
H42_2 H 0.2424 0.0420 0.0566
H43_2 H 0.3435 0.0439 0.1613
N7_2 N 0.6530(10) 0.1199(5) 0.7989(8)
N8_2 N 0.8270(9) 0.2112(5) 0.8280(8)
O6_2 O 0.5373(18) 0.0074(8) 0.0948(19)
N13 N 0.7941(9) 0.0043(6) 0.0058(8)
C17_2 C 0.8959(16) 0.0913(7) 0.0328(12)
H11_2 H 0.9214 0.1289 0.0598
C18_2 C 0.8086(15) 0.0544(8) 0.0681(14)
H12_2 H 0.7675 0.0620 0.1234
Zn1_2 Zn 0.22275(11) 0.86159(6) 0.51552(9)
Zn2 Zn 0.69534(11) 0.92922(6) 0.01230(9)
C1_2 C 0.5747(11) 0.7258(6) 0.3155(13)
H1_2 H 0.5240 0.7592 0.2942
C2_2 C 0.5671(11) 0.7012(8) 0.4108(11)
C3_2 C 0.6434(11) 0.6537(6) 0.4438(10)
H2_2 H 0.6417 0.6370 0.5085
C4_2 C 0.7209(11) 0.6304(7) 0.3848(11)
C5_2 C 0.7936(13) 0.5858(7) 0.4145(11)
H3_2 H 0.7919 0.5695 0.4794
C6_2 C 0.8740(13) 0.5604(7) 0.3564(11)
H4_2 H 0.9199 0.5263 0.3815
C7_2 C 0.8900(11) 0.5845(6) 0.2585(9)
C8_2 C 0.9719(10) 0.5606(5) 0.2037(8)
C9_2 C 0.9773(10) 0.5873(6) 0.1088(11)
C10_2 C 0.8947(11) 0.6339(7) 0.0718(10)
H6_2 H 0.8989 0.6507 0.0076
C11_2 C 0.8104(10) 0.6297(6) 0.2267(9)
C12_2 C 0.7258(10) 0.6553(6) 0.2921(11)
C13_2 C 0.3987(12) 0.7741(7) 0.4420(10)
H7_2 H 0.3844 0.7920 0.3768
C14_2 C 0.4829(14) 0.7153(7) 0.5790(11)
H8_2 H 0.5342 0.6882 0.6219
C15_2 C 0.3924(15) 0.7503(10) 0.6037(13)
H9_2 H 0.3675 0.7495 0.6680
C31_2 C 0.3958(12) 0.9630(7) 0.5979(10)
H19_2 H 0.4033 0.9754 0.5316
C32_2 C 0.4278(10) 0.9541(7) 0.7698(10)
H20_2 H 0.4575 0.9600 0.8404
C33_2 C 0.3465(11) 0.9102(7) 0.7261(11)
H21_2 H 0.3120 0.8799 0.7613
C37_2 C 0.0357(12) 0.8194(9) 0.6097(12)
H33_2 H 0.0005 0.7907 0.8878
H36_2 H 0.0567 0.8684 0.7904
C46_2 C 0.4679(16) 0.9656(14) 0.0608(16)
C47_2 C 0.3404(13) 0.9603(9) 0.0876(13)
C48_2 C 0.3384(12) 0.9242(10) 0.1844(10)
C49_2 C 0.2095(11) 0.9378(10) 0.2205(11)
H39_2 H 0.1453 0.9100 0.1834
H41_2 H 0.0869 0.9997 0.1348
H46_2 H 0.2174 0.9020 0.0076
C53_2 C 0.3554(14) 0.8533(10) 0.1620(12)
H47_2 H 0.3174 0.8445 0.0913
H48_2 H 0.3136 0.8301 0.2076
H49_2 H 0.4452 0.8434 0.1739
C54_2 C 0.4529(14) 0.9351(13) 0.2699(13)
H50_2 H 0.4258 0.9347 0.3357
H51_2 H 0.4901 0.9734 0.2597
H52_2 H 0.5156 0.9042 0.2686
C55_2 C 0.2140(12) 0.9281(13) 0.3321(12)
N1_2 N 0.6495(10) 0.7052(6) 0.2516(10)
N2_2 N 0.8062(10) 0.6562(5) 0.1274(9)
N3_2 N 0.4856(9) 0.7276(5) 0.4761(9)
N4_2 N 0.3385(9) 0.7882(6) 0.5235(9)
N9_2 N 0.4578(8) 0.9882(5) 0.6909(7)
N10_2 N 0.3247(8) 0.9186(6) 0.6207(8)
O1_2 O 0.0477(7) 0.8478(5) 0.5333(6)
O2_2 O 0.1312(9) 0.7931(6) 0.6687(7)
O5_2 O 0.5165(6) 0.9283(6) 0.0217(5)
O7_2 O 0.2157(14) 0.9702(9) 0.3909(10)
O8_2 O 0.2191(8) 0.8773(6) 0.3693(7)
N14 N 0.7951(9) 0.8846(5) 0.1327(8)
H5_2 H 0.9772 0.0277 0.7722
C16_2 C 0.8708(10) 0.0136(6) 0.9446(10)
H17_2 H 0.9916 0.7503 0.3817
C34_2 C 0.8653(13) 0.8360(6) 0.1271(9)
H22_2 H 0.8661 0.8153 0.0658
C35_2 C 0.9045(12) 0.8611(9) 0.2893(10)
H23_2 H 0.9377 0.8617 0.3601
C36_2 C 0.8206(11) 0.8999(7) 0.2408(9)
H24_2 H 0.7843 0.9316 0.2713
N5_2 N 0.9382(9) 0.0650(5) 0.9543(8)
N11_2 N 0.9361(9) 0.8196(5) 0.2207(8)
C52 C 0.2477(11) 0.9416(8) 0.9965(10)
H44 H 0.2882 0.9415 0.9369
H45 H 0.1765 0.9690 0.9852
O9 O 0.7205(12) 0.9099(7) 0.8668(14)
C38 C 0.8990(11) 0.8099(9) 0.6353(10)
C39 C 0.8924(11) 0.8212(7) 0.7511(9)
C40 C 0.7509(9) 0.8335(6) 0.7467(8)
H25 H 0.7063 0.7948 0.7403
C41 C 0.7055(12) 0.8663(9) 0.6558(11)
H26 H 0.7037 0.9088 0.6706
H27 H 0.6196 0.8534 0.6240
C42 C 0.8027(12) 0.8526(9) 0.5837(9)
H28 H 0.7577 0.8357 0.5187
H29 H 0.8444 0.8893 0.5684
C43 C 0.8665(19) 0.7454(11) 0.612(2)
H30 H 0.9436 0.7217 0.6267
H31 H 0.8275 0.7411 0.5404
H32 H 0.8077 0.7319 0.6548
C44 C 0.947(2) 0.7726(10) 0.8286(15)
H34 H 0.9972 0.7451 0.7965
H35 H 0.8778 0.7514 0.8505
C45 C 0.9677(13) 0.8747(8) 0.7928(13)
H37 H 0.9584 0.8812 0.8633
H38 H 0.9367 0.9091 0.7517
C56 C 0.7215(13) 0.8655(11) 0.8473(10)
O4 O 0.7076(11) 0.8159(7) 0.9094(8)
C38_2 C 0.1010(11) 0.3099(9) 0.3647(10)
C39_2 C 0.1076(11) 0.3212(7) 0.2489(9)
C40_2 C 0.2491(9) 0.3335(6) 0.2533(8)
H25_2 H 0.2937 0.2948 0.2597
C41_2 C 0.2945(12) 0.3663(9) 0.3442(11)
H26_2 H 0.2963 0.4088 0.3294
H27_2 H 0.3804 0.3534 0.3760
C42_2 C 0.1973(12) 0.3526(9) 0.4163(9)
H28_2 H 0.2423 0.3357 0.4813
H29_2 H 0.1556 0.3893 0.4316
C43_2 C 0.1335(19) 0.2454(11) 0.388(2)
H30_2 H 0.0564 0.2217 0.3733
H31_2 H 0.1725 0.2411 0.4596
H32_2 H 0.1923 0.2319 0.3452
C44_2 C 0.053(2) 0.2726(10) 0.1714(15)
H34_2 H 0.0028 0.2451 0.2035
H35_2 H 0.1222 0.2514 0.1495
C45_2 C 0.0323(13) 0.3747(8) 0.2072(13)
H37_2 H 0.0416 0.3812 0.1367
H38_2 H 0.0633 0.4091 0.2483
C56_2 C 0.2785(13) 0.3655(11) 0.1527(10)
O3 O 0.2795(12) 0.4099(7) 0.1332(14)
O4_2 O 0.2924(11) 0.3159(7) 0.0906(8)
C52_2 C 0.7523(11) 0.4416(8) 0.0035(10)
H44_2 H 0.7118 0.4415 0.0631
H45_2 H 0.8235 0.4690 0.0148
H10_2 H 0.8804 0.9857 0.8940
loop_
_geom_bond_atom_site_label_1
_geom_bond_atom_site_label_2
_geom_bond_site_symmetry_1
_geom_bond_site_symmetry_2
C34 H22 1_555 1_555
C35 H23 1_555 1_555
C36 C35 1_555 1_555
H24 C36 1_555 1_555
N12 C34 1_555 1_555
Zn5 N12 1_555 1_555
C34 N11 1_555 1_555
C35 N11 1_555 1_555
C36 N12 1_555 1_555
C17 H11 1_555 1_555
C18 C17 1_555 1_555
H12 C18 1_555 1_555
Zn5 N6 1_555 1_555
C18 N6 1_555 1_555
Zn1 N4 1_555 1_555
Zn5 O5 1_555 1_555
C1 H1 1_555 1_555
C2 C1 1_555 1_555
C3 C2 1_555 1_555
H2 C3 1_555 1_555
C4 C3 1_555 1_555
C5 C4 1_555 1_555
H3 C5 1_555 1_555
C6 C5 1_555 1_555
H4 C6 1_555 1_555
C7 C6 1_555 1_555
C8 C7 1_555 1_555
C9 C8 1_555 1_555
C10 C9 1_555 1_555
H6 C10 1_555 1_555
C11 C7 1_555 1_555
C12 C4 1_555 1_555
C13 H7 1_555 1_555
C14 H8 1_555 1_555
C15 C14 1_555 1_555
H9 C15 1_555 1_555
C19 H13 1_555 1_555
C20 C19 1_555 1_555
C21 C20 1_555 1_555
H14 C21 1_555 1_555
C22 C21 1_555 1_555
C23 C22 1_555 1_555
H15 C23 1_555 1_555
C24 C23 1_555 1_555
H16 C24 1_555 1_555
C25 C24 1_555 1_555
C26 C25 1_555 1_555
C27 C26 1_555 1_555
C28 C27 1_555 1_555
H18 C28 1_555 1_555
C29 C25 1_555 1_555
C30 C22 1_555 1_555
C31 H19 1_555 1_555
C32 H20 1_555 1_555
C33 C32 1_555 1_555
H21 C33 1_555 1_555
C46 C47 1_555 1_555
C47 C48 1_555 1_555
C48 C49 1_555 1_555
C49 H39 1_555 1_555
C50 C49 1_555 1_555
H40 C50 1_555 1_555
H41 C50 1_555 1_555
C51 C47 1_555 1_555
H42 C51 1_555 1_555
H43 C51 1_555 1_555
C53 C48 1_555 1_555
H47 C53 1_555 1_555
H48 C53 1_555 1_555
H49 C53 1_555 1_555
C54 C48 1_555 1_555
H50 C54 1_555 1_555
H51 C54 1_555 1_555
H52 C54 1_555 1_555
C55 C49 1_555 1_555
N1 C1 1_555 1_555
N2 C10 1_555 1_555
N3 C2 1_555 1_555
N4 C13 1_555 1_555
N7 C19 1_555 1_555
N8 C28 1_555 1_555
N9 C20 1_555 1_555
N10 Zn1 1_555 1_555
O1 Zn1 1_555 1_555
O2 Zn1 1_555 1_555
O5 C46 1_555 1_555
O6 Zn5 1_555 1_555
O7 C55 1_555 1_555
O8 Zn1 1_555 1_555
C11 C12 1_555 1_555
C11 N2 1_555 1_555
C12 N1 1_555 1_555
C13 N3 1_555 1_555
C14 N3 1_555 1_555
C15 N4 1_555 1_555
C29 C30 1_555 1_555
C29 N8 1_555 1_555
C30 N7 1_555 1_555
C31 N9 1_555 1_555
C31 N10 1_555 1_555
C32 N9 1_555 1_555
C33 N10 1_555 1_555
C37 O1 1_555 1_555
C37 O2 1_555 1_555
C46 O6 1_555 1_555
C50 C51 1_555 1_555
C55 O8 1_555 1_555
C16 H10 1_555 1_555
C16 N5 1_555 1_555
C19_2 H13_2 1_555 1_555
C20_2 C19_2 1_555 1_555
C21_2 C20_2 1_555 1_555
H14_2 C21_2 1_555 1_555
C22_2 C21_2 1_555 1_555
C23_2 C22_2 1_555 1_555
H15_2 C23_2 1_555 1_555
C24_2 C23_2 1_555 1_555
H16_2 C24_2 1_555 1_555
C25_2 C24_2 1_555 1_555
C26_2 C25_2 1_555 1_555
C27_2 C26_2 1_555 1_555
C28_2 C27_2 1_555 1_555
H18_2 C28_2 1_555 1_555
C29_2 C25_2 1_555 1_555
C30_2 C22_2 1_555 1_555
H40_2 C50_2 1_555 1_555
H42_2 C51_2 1_555 1_555
H43_2 C51_2 1_555 1_555
N7_2 C19_2 1_555 1_555
N8_2 C28_2 1_555 1_555
C29_2 C30_2 1_555 1_555
C29_2 N8_2 1_555 1_555
C30_2 N7_2 1_555 1_555
C50_2 C51_2 1_555 1_555
C17_2 H11_2 1_555 1_555
C18_2 C17_2 1_555 1_555
H12_2 C18_2 1_555 1_555
C18_2 N13 1_555 1_555
Zn1_2 N4_2 1_555 1_555
Zn2 O5_2 1_555 1_555
C1_2 H1_2 1_555 1_555
C2_2 C1_2 1_555 1_555
C3_2 C2_2 1_555 1_555
H2_2 C3_2 1_555 1_555
C4_2 C3_2 1_555 1_555
C5_2 C4_2 1_555 1_555
H3_2 C5_2 1_555 1_555
C6_2 C5_2 1_555 1_555
H4_2 C6_2 1_555 1_555
C7_2 C6_2 1_555 1_555
C8_2 C7_2 1_555 1_555
C9_2 C8_2 1_555 1_555
C10_2 C9_2 1_555 1_555
H6_2 C10_2 1_555 1_555
C11_2 C7_2 1_555 1_555
C12_2 C4_2 1_555 1_555
C13_2 H7_2 1_555 1_555
C14_2 H8_2 1_555 1_555
C15_2 C14_2 1_555 1_555
H9_2 C15_2 1_555 1_555
C31_2 H19_2 1_555 1_555
C32_2 H20_2 1_555 1_555
C33_2 C32_2 1_555 1_555
H21_2 C33_2 1_555 1_555
C46_2 C47_2 1_555 1_555
C47_2 C48_2 1_555 1_555
C48_2 C49_2 1_555 1_555
C49_2 H39_2 1_555 1_555
C53_2 C48_2 1_555 1_555
H47_2 C53_2 1_555 1_555
H48_2 C53_2 1_555 1_555
H49_2 C53_2 1_555 1_555
C54_2 C48_2 1_555 1_555
H50_2 C54_2 1_555 1_555
H51_2 C54_2 1_555 1_555
H52_2 C54_2 1_555 1_555
C55_2 C49_2 1_555 1_555
N1_2 C1_2 1_555 1_555
N2_2 C10_2 1_555 1_555
N3_2 C2_2 1_555 1_555
N4_2 C13_2 1_555 1_555
N10_2 Zn1_2 1_555 1_555
O1_2 Zn1_2 1_555 1_555
O2_2 Zn1_2 1_555 1_555
O5_2 C46_2 1_555 1_555
O7_2 C55_2 1_555 1_555
O8_2 Zn1_2 1_555 1_555
N14 Zn2 1_555 1_555
C11_2 C12_2 1_555 1_555
C11_2 N2_2 1_555 1_555
C12_2 N1_2 1_555 1_555
C13_2 N3_2 1_555 1_555
C14_2 N3_2 1_555 1_555
C15_2 N4_2 1_555 1_555
C31_2 N9_2 1_555 1_555
C31_2 N10_2 1_555 1_555
C32_2 N9_2 1_555 1_555
C33_2 N10_2 1_555 1_555
C37_2 O1_2 1_555 1_555
C37_2 O2_2 1_555 1_555
C55_2 O8_2 1_555 1_555
C34_2 H22_2 1_555 1_555
C35_2 H23_2 1_555 1_555
C36_2 C35_2 1_555 1_555
H24_2 C36_2 1_555 1_555
N14 C34_2 1_555 1_555
C16_2 N5_2 1_555 1_555
C34_2 N11_2 1_555 1_555
C35_2 N11_2 1_555 1_555
C36_2 N14 1_555 1_555
H44 C52 1_555 1_555
H45 C52 1_555 1_555
C38 C39 1_555 1_555
C39 C40 1_555 1_555
C40 H25 1_555 1_555
C41 C40 1_555 1_555
H26 C41 1_555 1_555
H27 C41 1_555 1_555
C42 C38 1_555 1_555
H28 C42 1_555 1_555
H29 C42 1_555 1_555
C43 C38 1_555 1_555
H30 C43 1_555 1_555
H31 C43 1_555 1_555
H32 C43 1_555 1_555
C44 C39 1_555 1_555
H34 C44 1_555 1_555
H35 C44 1_555 1_555
C45 C39 1_555 1_555
H37 C45 1_555 1_555
H38 C45 1_555 1_555
C56 C40 1_555 1_555
O9 C56 1_555 1_555
O4 C56 1_555 1_555
C41 C42 1_555 1_555
C38_2 C39_2 1_555 1_555
C39_2 C40_2 1_555 1_555
C40_2 H25_2 1_555 1_555
C41_2 C40_2 1_555 1_555
H26_2 C41_2 1_555 1_555
H27_2 C41_2 1_555 1_555
C42_2 C38_2 1_555 1_555
H28_2 C42_2 1_555 1_555
H29_2 C42_2 1_555 1_555
C43_2 C38_2 1_555 1_555
H30_2 C43_2 1_555 1_555
H31_2 C43_2 1_555 1_555
H32_2 C43_2 1_555 1_555
C44_2 C39_2 1_555 1_555
H34_2 C44_2 1_555 1_555
H35_2 C44_2 1_555 1_555
C45_2 C39_2 1_555 1_555
H37_2 C45_2 1_555 1_555
H38_2 C45_2 1_555 1_555
C56_2 C40_2 1_555 1_555
O3 C56_2 1_555 1_555
O4_2 C56_2 1_555 1_555
C41_2 C42_2 1_555 1_555
H44_2 C52_2 1_555 1_555
H45_2 C52_2 1_555 1_555

#END
