
###############################################################################
#
# This file contains modified crystal structure data generated from the
# MOF subset of the Cambridge Structural Database (CSD) v543 
# hosted by the Cambridge Crystallographic Data Centre (CCDC).
#
# This work is licensed under the Creative Commons
# Attribution-NonCommercial-ShareAlike 4.0 International License.
# To view a copy of this license, visit
# http://creativecommons.org/licenses/by-nc-sa/4.0/
# or send a letter to
# Creative Commons, PO Box 1866, Mountain View, CA 94042, USA.
#
# CIF created using the CSD Python API on 29 September 2022
# The structure has been converted into the P1 space group
# The structure has a 3D framework
# The original CSD entry AHISUI is in the monoclinic crystal system
# The framework has been calculated to contain at least 10.0% void space
# The void calculation uses a probe of radius 1.32A, grid spacing 0.4
#
###############################################################################

data_AHISUI
_chemical_formula_moiety         '(C96 H80 O64 Pr8)n'
_symmetry_cell_setting           triclinic
_symmetry_space_group_name_H-M   'P 1'
_symmetry_Int_Tables_number      1
_space_group_name_Hall           'P 1'
loop_
_symmetry_equiv_pos_site_id
_symmetry_equiv_pos_as_xyz
1 x,y,z
_cell_length_a                   13.4198(11)
_cell_length_b                   18.0543(15)
_cell_length_c                   13.6622(11)
_cell_angle_alpha                90
_cell_angle_beta                 92.0670(10)
_cell_angle_gamma                90
_cell_volume                     3307.99
loop_
_atom_site_label
_atom_site_type_symbol
_atom_site_fract_x
_atom_site_fract_y
_atom_site_fract_z
H19 H 0.4449 0.1300 0.0318
Pr1 Pr 0.354655(19) 0.010077(15) 0.90220(2)
O1 O 0.2382(3) 0.0452(2) 0.6696(3)
C1 C 0.2856(3) 0.1016(3) 0.6982(4)
C2 C 0.2790(3) 0.1711(2) 0.6383(4)
C3 C 0.3015(3) 0.3028(3) 0.6229(4)
C4 C 0.3165(3) 0.2372(3) 0.6747(4)
H1 H 0.3522 0.2378 0.7343
O3 O 0.2866(2) 0.43268(19) 0.6440(3)
O4 O 0.4061(3) 0.37513(19) 0.7288(3)
C6 C 0.3344(3) 0.3752(3) 0.6679(4)
C7 C 0.2518(4) 0.3009(3) 0.5315(4)
H2 H 0.2423 0.3445 0.4960
C10 C 0.2291(3) 0.1703(3) 0.5467(4)
H4 H 0.2040 0.1260 0.5215
C12 C 0.2168(4) 0.2345(3) 0.4936(4)
H6 H 0.1848 0.2333 0.4320
O6 O 0.3394(3) 0.10326(19) 0.7752(3)
O14 O 0.1937(2) 0.0784(2) 0.9364(3)
H17 H 0.2068 0.1154 0.9731
H18 H 0.1669 0.0933 0.8826
O16 O 0.3935(3) 0.1275(2) 0.9937(3)
H20 H 0.3552 0.1647 0.9867
Pr4 Pr 0.145345(19) 0.510077(15) 0.59780(2)
Pr7 Pr 0.406051(19) 0.468096(14) 0.85774(2)
O19 O 0.1125(3) 0.0079(2) 0.4744(3)
O20 O 0.0254(2) 0.09973(17) 0.6382(2)
O21 O 0.0516(3) 0.05561(18) 0.7871(2)
O23 O 0.5341(3) 0.0313(2) 0.9025(3)
O22 O 0.3045(3) 0.9738(2) 0.0659(3)
Pr2 Pr 0.093949(19) 0.968096(14) 0.64226(2)
O2 O 0.4027(2) 0.93698(17) 0.7512(2)
O5 O 0.4386(2) 0.88210(17) 0.8920(2)
C5 C 0.4366(3) 0.8822(3) 0.7991(4)
C8 C 0.4636(3) 0.7460(2) 0.7838(3)
H3 H 0.4433 0.7402 0.8477
C9 C 0.4712(3) 0.8164(3) 0.7441(4)
C11 C 0.5068(4) 0.8253(3) 0.6509(4)
H5 H 0.5125 0.8724 0.6242
C13 C 0.4860(3) 0.6845(3) 0.7288(4)
C14 C 0.5339(4) 0.7633(3) 0.5976(4)
H7 H 0.5611 0.7691 0.5364
C15 C 0.5205(4) 0.6930(3) 0.6355(4)
H8 H 0.5347 0.6515 0.5981
O9 O 0.4746(2) 0.59973(17) 0.8618(2)
O10 O 0.4484(3) 0.55561(18) 0.7129(2)
C21 C 0.4703(3) 0.6088(3) 0.7703(4)
O11 O 0.0510(3) 0.85513(18) 0.5403(3)
H13 H 0.0961 0.8238 0.5279
O12 O 0.2496(2) 0.89196(19) 0.6251(3)
H15 H 0.2474 0.8519 0.5925
H16 H 0.3044 0.9063 0.6519
O17 O 0.2134(2) 0.93268(19) 0.8560(3)
O18 O 0.0939(3) 0.87513(19) 0.7712(3)
C16 C 0.7573(3) 0.0021(3) 0.6400(4)
C17 C 0.7359(4) 0.0048(3) 0.7375(4)
C18 C 0.6845(4) 0.0205(3) 0.5698(4)
H10 H 0.6979 0.0178 0.5036
C20 C 0.6427(4) 0.0275(3) 0.7673(4)
C22 C 0.5702(4) 0.0470(3) 0.6969(4)
H11 H 0.5076 0.0627 0.7155
C23 C 0.5919(4) 0.0430(3) 0.5990(4)
H12 H 0.5432 0.0556 0.5518
O13 O 0.6955(3) 0.0262(2) 0.9341(3)
C24 C 0.6218(4) 0.0294(3) 0.8740(4)
Pr8 Pr 0.906051(19) 0.031904(14) 0.35774(2)
Pr5 Pr 0.645345(19) 0.989923(15) 0.09780(2)
O7 O 0.9177(3) 0.9527(2) 0.6761(3)
O8 O 0.8875(3) 0.9921(2) 0.5256(3)
H9 H 0.7845 0.9913 0.7843
C19 C 0.8601(4) 0.9805(3) 0.6111(4)
H14 H 0.9916 0.8484 0.5183
H2_2 H 0.2577 0.8445 0.0040
C12_2 C 0.2832(4) 0.7345(3) 0.0064(4)
H6_2 H 0.3152 0.7333 0.0680
Pr8_2 Pr 0.593949(19) 0.531904(14) 0.14226(2)
O19_2 O 0.3875(3) 0.5079(2) 0.0256(3)
O1_2 O 0.2618(3) 0.5452(2) 0.8304(3)
C1_2 C 0.2144(3) 0.6016(3) 0.8018(4)
C2_2 C 0.2210(3) 0.6711(2) 0.8617(4)
O2_2 O 0.0973(2) 0.43698(17) 0.7488(2)
C3_2 C 0.1985(3) 0.8028(3) 0.8771(4)
C4_2 C 0.1835(3) 0.7372(3) 0.8253(4)
H1_2 H 0.1478 0.7378 0.7657
O5_2 O 0.0614(2) 0.38210(17) 0.6080(2)
C5_2 C 0.0634(3) 0.3822(3) 0.7009(4)
C6_2 C 0.1656(3) 0.8752(3) 0.8321(4)
C7_2 C 0.2482(4) 0.8009(3) 0.9685(4)
C8_2 C 0.0364(3) 0.2460(2) 0.7162(3)
H3_2 H 0.0567 0.2402 0.6523
C9_2 C 0.0288(3) 0.3164(3) 0.7559(4)
C10_2 C 0.2709(3) 0.6703(3) 0.9533(4)
H4_2 H 0.2960 0.6260 0.9785
C13_2 C 0.0140(3) 0.1845(3) 0.7712(4)
O6_2 O 0.1606(3) 0.60326(19) 0.7248(3)
O7_2 O 0.5823(3) 0.4527(2) 0.8239(3)
O8_2 O 0.6125(3) 0.4921(2) 0.9744(3)
C16_2 C 0.7427(3) 0.5021(3) 0.8600(4)
C17_2 C 0.7641(4) 0.5048(3) 0.7625(4)
H9_2 H 0.7155 0.4913 0.7157
C18_2 C 0.8155(4) 0.5205(3) 0.9302(4)
H10_2 H 0.8021 0.5178 0.9964
C19_2 C 0.6399(4) 0.4805(3) 0.8889(4)
C20_2 C 0.8573(4) 0.5275(3) 0.7327(4)
C21_2 C 0.0297(3) 0.1088(3) 0.7297(4)
C22_2 C 0.9298(4) 0.5470(3) 0.8031(4)
H11_2 H 0.9924 0.5627 0.7845
C23_2 C 0.9081(4) 0.5430(3) 0.9010(4)
H12_2 H 0.9568 0.5556 0.9482
O11_2 O 0.4490(3) 0.35513(18) 0.9597(3)
H13_2 H 0.4039 0.3238 0.9721
H14_2 H 0.5084 0.3484 0.9817
O12_2 O 0.2504(2) 0.39196(19) 0.8749(3)
H15_2 H 0.2526 0.3519 0.9075
H16_2 H 0.1956 0.4063 0.8481
O13_2 O 0.8045(3) 0.5262(2) 0.5659(3)
O14_2 O 0.3063(2) 0.5784(2) 0.5636(3)
H17_2 H 0.2932 0.6154 0.5269
H18_2 H 0.3331 0.5933 0.6174
O15 O 0.9659(3) 0.5313(2) 0.5975(3)
O16_2 O 0.1065(3) 0.6275(2) 0.5063(3)
H19_2 H 0.0551 0.6300 0.4682
H20_2 H 0.1448 0.6647 0.5133
C24_2 C 0.8782(4) 0.5294(3) 0.6260(4)
Pr5_2 Pr 0.854655(19) 0.489923(15) 0.40220(2)
O22_2 O 0.1955(3) 0.4738(2) 0.4341(3)
C11_2 C 0.9932(4) 0.3253(3) 0.8491(4)
H5_2 H 0.9875 0.3724 0.8758
C14_2 C 0.9661(4) 0.2633(3) 0.9024(4)
H7_2 H 0.9389 0.2691 0.9636
C15_2 C 0.9795(4) 0.1930(3) 0.8645(4)
H8_2 H 0.9653 0.1515 0.9019
O7_3 O 0.0823(3) 0.0473(2) 0.3239(3)
H9_3 H 0.2155 0.0087 0.2157
C19_3 C 0.1399(4) 0.0195(3) 0.3889(4)
H14_3 H 0.0084 0.1516 0.4817
C16_3 C 0.2427(3) 0.9979(3) 0.3600(4)
C17_3 C 0.2641(4) 0.9952(3) 0.2625(4)
C18_3 C 0.3155(4) 0.9795(3) 0.4302(4)
H10_3 H 0.3021 0.9822 0.4964
C20_3 C 0.3573(4) 0.9725(3) 0.2327(4)
C22_3 C 0.4298(4) 0.9530(3) 0.3031(4)
H11_3 H 0.4924 0.9373 0.2845
C23_3 C 0.4081(4) 0.9570(3) 0.4010(4)
H12_3 H 0.4568 0.9444 0.4482
O15_2 O 0.4659(3) 0.9687(2) 0.0975(3)
C24_3 C 0.3782(4) 0.9706(3) 0.1260(4)
O2_3 O 0.5973(2) 0.06302(17) 0.2488(2)
O5_3 O 0.5614(2) 0.11790(17) 0.1080(2)
C5_3 C 0.5634(3) 0.1178(3) 0.2009(4)
C8_3 C 0.5364(3) 0.2540(2) 0.2162(3)
H3_3 H 0.5567 0.2598 0.1523
C9_3 C 0.5288(3) 0.1836(3) 0.2559(4)
C11_3 C 0.4932(4) 0.1747(3) 0.3491(4)
H5_3 H 0.4875 0.1276 0.3758
C13_3 C 0.5140(3) 0.3155(3) 0.2712(4)
C14_3 C 0.4661(4) 0.2367(3) 0.4024(4)
H7_3 H 0.4389 0.2309 0.4636
C15_3 C 0.4795(4) 0.3070(3) 0.3645(4)
H8_3 H 0.4653 0.3485 0.4019
O9_2 O 0.5254(2) 0.40027(17) 0.1382(2)
O10_2 O 0.5516(3) 0.44439(18) 0.2871(2)
C21_3 C 0.5297(3) 0.3912(3) 0.2297(4)
O11_3 O 0.9490(3) 0.14487(18) 0.4597(3)
H13_3 H 0.9039 0.1762 0.4721
O12_3 O 0.7504(2) 0.10804(19) 0.3749(3)
H15_3 H 0.7526 0.1481 0.4075
H16_3 H 0.6956 0.0937 0.3481
O17_2 O 0.7866(2) 0.06732(19) 0.1440(3)
O18_2 O 0.9061(3) 0.12487(19) 0.2288(3)
O1_3 O 0.7618(3) 0.9548(2) 0.3304(3)
C1_3 C 0.7144(3) 0.8984(3) 0.3018(4)
C2_3 C 0.7210(3) 0.8289(2) 0.3617(4)
C3_3 C 0.6985(3) 0.6972(3) 0.3771(4)
C4_3 C 0.6835(3) 0.7628(3) 0.3253(4)
H1_3 H 0.6478 0.7622 0.2657
O3_2 O 0.7134(2) 0.56732(19) 0.3560(3)
O4_2 O 0.5939(3) 0.62487(19) 0.2712(3)
C6_3 C 0.6656(3) 0.6248(3) 0.3321(4)
C7_3 C 0.7482(4) 0.6991(3) 0.4685(4)
H2_3 H 0.7577 0.6555 0.5040
C10_3 C 0.7709(3) 0.8297(3) 0.4533(4)
H4_3 H 0.7960 0.8740 0.4785
C12_3 C 0.7832(4) 0.7655(3) 0.5064(4)
H6_3 H 0.8152 0.7667 0.5680
O6_3 O 0.6606(3) 0.89674(19) 0.2248(3)
O14_3 O 0.8063(2) 0.9216(2) 0.0636(3)
H17_3 H 0.7932 0.8846 0.0269
H18_3 H 0.8331 0.9067 0.1174
O16_3 O 0.6065(3) 0.8725(2) 0.0063(3)
H20_3 H 0.6448 0.8353 0.0133
O20_2 O 0.9746(2) 0.90027(17) 0.3618(2)
O21_2 O 0.9484(3) 0.94439(18) 0.2129(2)
C11_4 C 0.0068(4) 0.6747(3) 0.1509(4)
H5_4 H 0.0125 0.6276 0.1242
C14_4 C 0.0339(4) 0.7367(3) 0.0976(4)
H7_4 H 0.0611 0.7309 0.0364
C15_4 C 0.0205(4) 0.8070(3) 0.1355(4)
H8_4 H 0.0347 0.8485 0.0981
O23_2 O 0.0341(3) 0.4687(2) 0.4025(3)
O1_4 O 0.7382(3) 0.4548(2) 0.1696(3)
C1_4 C 0.7856(3) 0.3984(3) 0.1982(4)
C2_4 C 0.7790(3) 0.3289(2) 0.1383(4)
O2_4 O 0.9027(2) 0.56302(17) 0.2512(2)
C3_4 C 0.8015(3) 0.1972(3) 0.1229(4)
C4_4 C 0.8165(3) 0.2628(3) 0.1747(4)
H1_4 H 0.8522 0.2622 0.2343
O5_4 O 0.9386(2) 0.61790(17) 0.3920(2)
C5_4 C 0.9366(3) 0.6178(3) 0.2991(4)
C6_4 C 0.8344(3) 0.1248(3) 0.1679(4)
C7_4 C 0.7518(4) 0.1991(3) 0.0315(4)
C8_4 C 0.9636(3) 0.7540(2) 0.2838(3)
H3_4 H 0.9433 0.7598 0.3477
C9_4 C 0.9712(3) 0.6836(3) 0.2441(4)
C10_4 C 0.7291(3) 0.3297(3) 0.0467(4)
H4_4 H 0.7040 0.3740 0.0215
C13_4 C 0.9860(3) 0.8155(3) 0.2288(4)
O6_4 O 0.8394(3) 0.39674(19) 0.2752(3)
O7_4 O 0.4177(3) 0.5473(2) 0.1761(3)
C16_4 C 0.2573(3) 0.4979(3) 0.1400(4)
C17_4 C 0.2359(4) 0.4952(3) 0.2375(4)
H9_4 H 0.2845 0.5087 0.2843
C18_4 C 0.1845(4) 0.4795(3) 0.0698(4)
H10_4 H 0.1979 0.4822 0.0036
C19_4 C 0.3601(4) 0.5195(3) 0.1111(4)
C20_4 C 0.1427(4) 0.4725(3) 0.2673(4)
C21_4 C 0.9703(3) 0.8912(3) 0.2703(4)
C22_4 C 0.0702(4) 0.4530(3) 0.1969(4)
H11_4 H 0.0076 0.4373 0.2155
C23_4 C 0.0919(4) 0.4570(3) 0.0990(4)
H12_4 H 0.0432 0.4444 0.0518
O11_4 O 0.5510(3) 0.64487(18) 0.0403(3)
H13_4 H 0.5961 0.6762 0.0279
H14_4 H 0.4916 0.6516 0.0183
O12_4 O 0.7496(2) 0.60804(19) 0.1251(3)
H15_4 H 0.7474 0.6481 0.0925
H16_4 H 0.8044 0.5937 0.1519
O14_4 O 0.6937(2) 0.4216(2) 0.4364(3)
H17_4 H 0.7068 0.3846 0.4731
H18_4 H 0.6669 0.4067 0.3826
O16_4 O 0.8935(3) 0.3725(2) 0.4937(3)
H19_3 H 0.9449 0.3700 0.5318
H20_4 H 0.8552 0.3353 0.4867
C24_4 C 0.1218(4) 0.4706(3) 0.3740(4)
H2_4 H 0.7423 0.1555 0.9960
C12_4 C 0.7168(4) 0.2655(3) 0.9936(4)
H6_4 H 0.6848 0.2667 0.9320
H19_4 H 0.5551 0.8700 0.9682
loop_
_geom_bond_atom_site_label_1
_geom_bond_atom_site_label_2
_geom_bond_site_symmetry_1
_geom_bond_site_symmetry_2
O1 C1 1_555 1_555
C1 C2 1_555 1_555
C2 C4 1_555 1_555
C3 C4 1_555 1_555
C4 H1 1_555 1_555
O3 C6 1_555 1_555
O4 C6 1_555 1_555
C6 C3 1_555 1_555
C7 C3 1_555 1_555
H2 C7 1_555 1_555
C10 C2 1_555 1_555
H4 C10 1_555 1_555
C12 C7 1_555 1_555
H6 C12 1_555 1_555
O6 Pr1 1_555 1_555
O14 Pr1 1_555 1_555
H17 O14 1_555 1_555
H18 O14 1_555 1_555
O16 Pr1 1_555 1_555
H20 O16 1_555 1_555
Pr4 O3 1_555 1_555
Pr7 O4 1_555 1_555
O23 Pr1 1_555 1_555
C1 O6 1_555 1_555
C10 C12 1_555 1_555
O2 C5 1_555 1_555
C5 O5 1_555 1_555
C8 H3 1_555 1_555
C9 C5 1_555 1_555
C11 C9 1_555 1_555
H5 C11 1_555 1_555
C13 C8 1_555 1_555
C14 C11 1_555 1_555
H7 C14 1_555 1_555
C15 C13 1_555 1_555
H8 C15 1_555 1_555
O9 C21 1_555 1_555
O10 C21 1_555 1_555
C21 C13 1_555 1_555
O11 Pr2 1_555 1_555
H13 O11 1_555 1_555
O12 Pr2 1_555 1_555
H15 O12 1_555 1_555
H16 O12 1_555 1_555
Pr7 O9 1_555 1_555
O18 Pr2 1_555 1_555
C8 C9 1_555 1_555
C14 C15 1_555 1_555
O10 Pr7 1_555 1_555
C16 C17 1_555 1_555
C18 C16 1_555 1_555
H10 C18 1_555 1_555
C20 C17 1_555 1_555
C22 C20 1_555 1_555
H11 C22 1_555 1_555
C23 C18 1_555 1_555
H12 C23 1_555 1_555
O13 C24 1_555 1_555
O23 C24 1_555 1_555
C24 C20 1_555 1_555
C22 C23 1_555 1_555
O8 C19 1_555 1_555
C19 O7 1_555 1_555
H6_2 C12_2 1_555 1_555
Pr4 O2_2 1_555 1_555
Pr7 O1_2 1_555 1_555
O1_2 C1_2 1_555 1_555
C1_2 C2_2 1_555 1_555
C2_2 C4_2 1_555 1_555
O2_2 C5_2 1_555 1_555
C3_2 C4_2 1_555 1_555
C4_2 H1_2 1_555 1_555
O17 C6_2 1_555 1_555
O18 C6_2 1_555 1_555
O5_2 Pr4 1_555 1_555
C5_2 O5_2 1_555 1_555
C6_2 C3_2 1_555 1_555
C7_2 C3_2 1_555 1_555
C8_2 H3_2 1_555 1_555
C9_2 C5_2 1_555 1_555
C10_2 C2_2 1_555 1_555
H4_2 C10_2 1_555 1_555
C13_2 C8_2 1_555 1_555
O6_2 Pr4 1_555 1_555
O7_2 Pr7 1_555 1_555
O8_2 C19_2 1_555 1_555
C16_2 C17_2 1_555 1_555
C17_2 H9_2 1_555 1_555
C18_2 C16_2 1_555 1_555
H10_2 C18_2 1_555 1_555
C19_2 O7_2 1_555 1_555
O20 C21_2 1_555 1_555
O21 C21_2 1_555 1_555
C20_2 C17_2 1_555 1_555
C21_2 C13_2 1_555 1_555
C22_2 C20_2 1_555 1_555
H11_2 C22_2 1_555 1_555
C23_2 C18_2 1_555 1_555
H12_2 C23_2 1_555 1_555
O11_2 Pr7 1_555 1_555
H13_2 O11_2 1_555 1_555
H14_2 O11_2 1_555 1_555
O12_2 Pr7 1_555 1_555
H15_2 O12_2 1_555 1_555
H16_2 O12_2 1_555 1_555
O13_2 C24_2 1_555 1_555
O14_2 Pr4 1_555 1_555
H17_2 O14_2 1_555 1_555
H18_2 O14_2 1_555 1_555
O15 C24_2 1_555 1_555
O16_2 Pr4 1_555 1_555
H19_2 O16_2 1_555 1_555
H20_2 O16_2 1_555 1_555
C24_2 C20_2 1_555 1_555
Pr5_2 O13_2 1_555 1_555
O22_2 Pr4 1_555 1_555
C1_2 O6_2 1_555 1_555
C8_2 C9_2 1_555 1_555
C16_2 C19_2 1_555 1_555
C22_2 C23_2 1_555 1_555
H5_2 C11_2 1_555 1_555
C14_2 C11_2 1_555 1_555
H7_2 C14_2 1_555 1_555
H8_2 C15_2 1_555 1_555
C14_2 C15_2 1_555 1_555
O19 C19_3 1_555 1_555
C19_3 O7_3 1_555 1_555
C16_3 C17_3 1_555 1_555
C18_3 C16_3 1_555 1_555
H10_3 C18_3 1_555 1_555
C20_3 C17_3 1_555 1_555
C22_3 C20_3 1_555 1_555
H11_3 C22_3 1_555 1_555
C23_3 C18_3 1_555 1_555
H12_3 C23_3 1_555 1_555
O22 C24_3 1_555 1_555
O15_2 C24_3 1_555 1_555
C24_3 C20_3 1_555 1_555
Pr5 O15_2 1_555 1_555
C22_3 C23_3 1_555 1_555
O2_3 C5_3 1_555 1_555
C5_3 O5_3 1_555 1_555
C8_3 H3_3 1_555 1_555
C9_3 C5_3 1_555 1_555
C11_3 C9_3 1_555 1_555
H5_3 C11_3 1_555 1_555
C13_3 C8_3 1_555 1_555
C14_3 C11_3 1_555 1_555
H7_3 C14_3 1_555 1_555
C15_3 C13_3 1_555 1_555
H8_3 C15_3 1_555 1_555
O9_2 C21_3 1_555 1_555
O10_2 C21_3 1_555 1_555
C21_3 C13_3 1_555 1_555
O11_3 Pr8 1_555 1_555
H13_3 O11_3 1_555 1_555
O12_3 Pr8 1_555 1_555
H15_3 O12_3 1_555 1_555
H16_3 O12_3 1_555 1_555
Pr8_2 O9_2 1_555 1_555
O18_2 Pr8 1_555 1_555
C8_3 C9_3 1_555 1_555
C14_3 C15_3 1_555 1_555
O10_2 Pr8_2 1_555 1_555
O1_3 C1_3 1_555 1_555
C1_3 C2_3 1_555 1_555
C2_3 C4_3 1_555 1_555
C3_3 C4_3 1_555 1_555
C4_3 H1_3 1_555 1_555
O3_2 C6_3 1_555 1_555
O4_2 C6_3 1_555 1_555
C6_3 C3_3 1_555 1_555
C7_3 C3_3 1_555 1_555
H2_3 C7_3 1_555 1_555
C10_3 C2_3 1_555 1_555
H4_3 C10_3 1_555 1_555
C12_3 C7_3 1_555 1_555
H6_3 C12_3 1_555 1_555
O6_3 Pr5 1_555 1_555
O14_3 Pr5 1_555 1_555
H17_3 O14_3 1_555 1_555
H18_3 O14_3 1_555 1_555
O16_3 Pr5 1_555 1_555
H20_3 O16_3 1_555 1_555
Pr5_2 O3_2 1_555 1_555
Pr8_2 O4_2 1_555 1_555
C1_3 O6_3 1_555 1_555
C10_3 C12_3 1_555 1_555
H5_4 C11_4 1_555 1_555
C14_4 C11_4 1_555 1_555
H7_4 C14_4 1_555 1_555
H8_4 C15_4 1_555 1_555
C14_4 C15_4 1_555 1_555
Pr5_2 O2_4 1_555 1_555
Pr8_2 O1_4 1_555 1_555
O1_4 C1_4 1_555 1_555
C1_4 C2_4 1_555 1_555
C2_4 C4_4 1_555 1_555
O2_4 C5_4 1_555 1_555
C3_4 C4_4 1_555 1_555
C4_4 H1_4 1_555 1_555
O17_2 C6_4 1_555 1_555
O18_2 C6_4 1_555 1_555
O5_4 Pr5_2 1_555 1_555
C5_4 O5_4 1_555 1_555
C6_4 C3_4 1_555 1_555
C7_4 C3_4 1_555 1_555
C8_4 H3_4 1_555 1_555
C9_4 C5_4 1_555 1_555
C10_4 C2_4 1_555 1_555
H4_4 C10_4 1_555 1_555
C13_4 C8_4 1_555 1_555
O6_4 Pr5_2 1_555 1_555
O7_4 Pr8_2 1_555 1_555
O19_2 C19_4 1_555 1_555
C16_4 C17_4 1_555 1_555
C17_4 H9_4 1_555 1_555
C18_4 C16_4 1_555 1_555
H10_4 C18_4 1_555 1_555
C19_4 O7_4 1_555 1_555
O20_2 C21_4 1_555 1_555
O21_2 C21_4 1_555 1_555
C20_4 C17_4 1_555 1_555
C21_4 C13_4 1_555 1_555
C22_4 C20_4 1_555 1_555
H11_4 C22_4 1_555 1_555
C23_4 C18_4 1_555 1_555
H12_4 C23_4 1_555 1_555
O11_4 Pr8_2 1_555 1_555
H13_4 O11_4 1_555 1_555
H14_4 O11_4 1_555 1_555
O12_4 Pr8_2 1_555 1_555
H15_4 O12_4 1_555 1_555
H16_4 O12_4 1_555 1_555
O22_2 C24_4 1_555 1_555
O14_4 Pr5_2 1_555 1_555
H17_4 O14_4 1_555 1_555
H18_4 O14_4 1_555 1_555
O23_2 C24_4 1_555 1_555
O16_4 Pr5_2 1_555 1_555
H19_3 O16_4 1_555 1_555
H20_4 O16_4 1_555 1_555
C24_4 C20_4 1_555 1_555
C1_4 O6_4 1_555 1_555
C8_4 C9_4 1_555 1_555
C16_4 C19_4 1_555 1_555
C22_4 C23_4 1_555 1_555
H6_4 C12_4 1_555 1_555

#END
