
###############################################################################
#
# This file contains modified crystal structure data generated from the
# MOF subset of the Cambridge Structural Database (CSD) v543 
# hosted by the Cambridge Crystallographic Data Centre (CCDC).
#
# This work is licensed under the Creative Commons
# Attribution-NonCommercial-ShareAlike 4.0 International License.
# To view a copy of this license, visit
# http://creativecommons.org/licenses/by-nc-sa/4.0/
# or send a letter to
# Creative Commons, PO Box 1866, Mountain View, CA 94042, USA.
#
# CIF created using the CSD Python API on 29 September 2022
# The structure has been converted into the P1 space group
# The structure has a 3D framework
# The original CSD entry AHITAP is in the monoclinic crystal system
# The framework has been calculated to contain at least 10.0% void space
# The void calculation uses a probe of radius 1.32A, grid spacing 0.4
#
###############################################################################

data_AHITAP
_chemical_formula_moiety         '(C96 H80 Nd8 O64)n'
_symmetry_cell_setting           triclinic
_symmetry_space_group_name_H-M   'P 1'
_symmetry_Int_Tables_number      1
_space_group_name_Hall           'P 1'
loop_
_symmetry_equiv_pos_site_id
_symmetry_equiv_pos_as_xyz
1 x,y,z
_cell_length_a                   13.4018(16)
_cell_length_b                   18.023(2)
_cell_length_c                   13.6602(16)
_cell_angle_alpha                90
_cell_angle_beta                 91.982(2)
_cell_angle_gamma                90
_cell_volume                     3297.52
loop_
_atom_site_label
_atom_site_type_symbol
_atom_site_fract_x
_atom_site_fract_y
_atom_site_fract_z
H1 H 0.0013 0.1692 0.9433
O22 O 0.0817(3) 0.0451(3) 0.8241(3)
Nd1 Nd 0.90576(2) 0.030969(17) 0.85782(2)
O5 O 0.9050(4) 0.1236(2) 0.7299(3)
O6 O 0.7871(3) 0.0665(2) 0.6422(3)
O7 O 0.8384(4) 0.3961(2) 0.7777(3)
O8 O 0.7390(3) 0.4544(2) 0.6708(4)
O12 O 0.1138(4) 0.0067(2) 0.9750(3)
O13 O 0.9503(4) 0.1436(2) 0.9569(3)
O14 O 0.7518(3) 0.1069(2) 0.8748(3)
H3 H 0.7061 0.1059 0.8301
H4 H 0.7450 0.1337 0.9252
C9 C 0.8346(5) 0.1240(3) 0.6670(4)
C10 C 0.8035(4) 0.1968(3) 0.6228(4)
C11 C 0.8168(4) 0.2626(3) 0.6754(4)
H13 H 0.8505 0.2619 0.7361
C12 C 0.7806(4) 0.3281(3) 0.6384(4)
C13 C 0.7322(5) 0.3299(4) 0.5458(5)
H14 H 0.7077 0.3745 0.5208
C14 C 0.7210(5) 0.2666(4) 0.4924(4)
H15 H 0.6905 0.2686 0.4303
C15 C 0.7545(5) 0.1988(3) 0.5295(4)
H16 H 0.7449 0.1554 0.4935
C16 C 0.7857(5) 0.3983(3) 0.7003(5)
H17 H 0.2162 0.0062 0.7144
C24 C 0.1400(5) 0.0180(3) 0.8887(5)
Nd4 Nd 0.59424(2) 0.530969(17) 0.64218(2)
Nd7 Nd 0.85371(2) 0.489828(17) 0.90263(2)
Nd8 Nd 0.35371(2) 0.010172(17) 0.40263(2)
O17 O 0.5627(3) 0.1173(2) 0.6068(3)
O18 O 0.5990(3) 0.0619(2) 0.7476(3)
O21 O 0.6931(4) 0.0268(3) 0.4340(3)
Nd5 Nd 0.09424(2) 0.969031(17) 0.14218(2)
O23 O 0.8862(4) 0.9933(2) 0.0250(3)
Nd2 Nd 0.64629(2) 0.989828(17) 0.59737(2)
O1 O 0.9729(3) 0.8999(2) 0.8631(3)
O2 O 0.9479(3) 0.9442(2) 0.7141(3)
O3 O 0.9373(3) 0.6173(2) 0.8932(3)
O4 O 0.9010(3) 0.5619(2) 0.7524(3)
O9 O 0.4680(4) 0.9687(3) 0.5990(3)
O10 O 0.3069(4) 0.9732(3) 0.5660(3)
O15 O 0.8049(3) 0.9211(2) 0.5640(3)
H5 H 0.8025 0.8803 0.5326
H6 H 0.8609 0.9386 0.5840
O16 O 0.6077(4) 0.8741(3) 0.5049(4)
H7 H 0.6547 0.8454 0.4886
H8 H 0.5475 0.8631 0.4893
C1 C 0.9689(4) 0.8907(3) 0.7710(4)
C2 C 0.9847(5) 0.8155(3) 0.7290(4)
C3 C 0.9620(4) 0.7530(3) 0.7847(4)
H9 H 0.9418 0.7588 0.8487
C4 C 0.9694(4) 0.6830(3) 0.7454(4)
C8 C 0.9353(4) 0.6173(3) 0.8005(4)
C17 C 0.3795(5) 0.9706(3) 0.6266(5)
C18 C 0.3588(5) 0.9728(3) 0.7333(4)
C19 C 0.2651(5) 0.9942(3) 0.7617(5)
C20 C 0.3169(5) 0.9795(4) 0.9312(5)
H18 H 0.3039 0.9824 0.9975
C21 C 0.4095(5) 0.9569(4) 0.9015(5)
H19 H 0.4583 0.9440 0.9485
C22 C 0.4313(5) 0.9528(4) 0.8029(5)
H20 H 0.4937 0.9369 0.7840
C23 C 0.2431(5) 0.9980(3) 0.8609(4)
O19 O 0.6616(4) 0.8961(2) 0.7223(3)
O20 O 0.7610(3) 0.9544(2) 0.8292(4)
Nd8_2 Nd 0.14629(2) 0.510172(17) 0.09737(2)
O9_2 O 0.0320(4) 0.4687(3) 0.9010(3)
O10_2 O 0.1931(4) 0.4732(3) 0.9340(3)
O11 O 0.4183(3) 0.5451(3) 0.6759(3)
O12_2 O 0.3862(4) 0.5067(2) 0.5250(3)
C17_2 C 0.1205(5) 0.4706(3) 0.8734(5)
C18_2 C 0.1412(5) 0.4728(3) 0.7667(4)
C19_2 C 0.2349(5) 0.4942(3) 0.7383(5)
H17_2 H 0.2838 0.5062 0.7856
C20_2 C 0.1831(5) 0.4795(4) 0.5688(5)
H18_2 H 0.1961 0.4824 0.5025
C21_2 C 0.0905(5) 0.4569(4) 0.5985(5)
H19_2 H 0.0417 0.4440 0.5515
C22_2 C 0.0687(5) 0.4528(4) 0.6971(5)
H20_2 H 0.0063 0.4369 0.7160
C23_2 C 0.2569(5) 0.4980(3) 0.6391(4)
C24_2 C 0.3600(5) 0.5180(3) 0.6113(5)
Nd5_2 Nd 0.40576(2) 0.469031(17) 0.35782(2)
H7_2 H 0.8453 0.3454 0.0114
H8_2 H 0.9525 0.3631 0.0107
C14_2 C 0.7790(5) 0.7666(4) 0.0076(4)
H15_2 H 0.8095 0.7686 0.0697
H16_2 H 0.7551 0.6554 0.0065
O21_2 O 0.8069(4) 0.5268(3) 0.0660(3)
O1_2 O 0.5271(3) 0.3999(2) 0.6369(3)
O2_2 O 0.5521(3) 0.4442(2) 0.7859(3)
O5_2 O 0.5950(4) 0.6236(2) 0.7701(3)
O6_2 O 0.7129(3) 0.5665(2) 0.8578(3)
O13_2 O 0.5497(4) 0.6436(2) 0.5431(3)
H1_2 H 0.4987 0.6692 0.5567
H2 H 0.5856 0.6564 0.4959
O14_2 O 0.7482(3) 0.6069(2) 0.6252(3)
H3_2 H 0.7939 0.6059 0.6699
H4_2 H 0.7550 0.6337 0.5748
O15_2 O 0.6951(3) 0.4211(2) 0.9360(3)
H5_2 H 0.6975 0.3803 0.9674
H6_2 H 0.6391 0.4386 0.9160
O16_2 O 0.8923(4) 0.3741(3) 0.9951(4)
C1_2 C 0.5311(4) 0.3907(3) 0.7290(4)
C2_2 C 0.5153(5) 0.3155(3) 0.7710(4)
C3_2 C 0.5380(4) 0.2530(3) 0.7153(4)
H9_2 H 0.5582 0.2588 0.6513
C4_2 C 0.5306(4) 0.1830(3) 0.7546(4)
C5 C 0.4961(5) 0.1746(3) 0.8496(4)
H10 H 0.4908 0.1276 0.8771
C6 C 0.4701(5) 0.2365(4) 0.9016(5)
H11 H 0.4438 0.2308 0.9632
C7 C 0.4821(5) 0.3067(4) 0.8645(4)
H12 H 0.4680 0.3480 0.9024
C8_2 C 0.5647(4) 0.1173(3) 0.6995(4)
C9_2 C 0.6654(5) 0.6240(3) 0.8330(4)
C10_2 C 0.6965(4) 0.6968(3) 0.8772(4)
C11_2 C 0.6832(4) 0.7626(3) 0.8246(4)
H13_2 H 0.6495 0.7619 0.7639
C12_2 C 0.7194(4) 0.8281(3) 0.8616(4)
C13_2 C 0.7678(5) 0.8299(4) 0.9542(5)
H14_2 H 0.7923 0.8745 0.9792
C15_2 C 0.7455(5) 0.6988(3) 0.9705(4)
C16_2 C 0.7143(5) 0.8983(3) 0.7997(5)
O23_2 O 0.6138(4) 0.4933(2) 0.4750(3)
O1_3 O 0.0271(3) 0.1001(2) 0.1369(3)
O2_3 O 0.0521(3) 0.0558(2) 0.2859(3)
O3_2 O 0.0627(3) 0.3827(2) 0.1068(3)
O4_2 O 0.0990(3) 0.4381(2) 0.2476(3)
O9_3 O 0.5320(4) 0.0313(3) 0.4010(3)
O15_3 O 0.1951(3) 0.0789(2) 0.4360(3)
H5_3 H 0.1975 0.1197 0.4674
H6_3 H 0.1391 0.0614 0.4160
O16_3 O 0.3923(4) 0.1259(3) 0.4951(4)
H7_3 H 0.3453 0.1546 0.5114
H8_3 H 0.4525 0.1369 0.5107
C1_3 C 0.0311(4) 0.1093(3) 0.2290(4)
C2_3 C 0.0153(5) 0.1845(3) 0.2710(4)
C3_3 C 0.0380(4) 0.2470(3) 0.2153(4)
H9_3 H 0.0582 0.2412 0.1513
C4_3 C 0.0306(4) 0.3170(3) 0.2546(4)
C8_3 C 0.0647(4) 0.3827(3) 0.1995(4)
C17_3 C 0.6205(5) 0.0294(3) 0.3734(5)
C18_3 C 0.6412(5) 0.0272(3) 0.2667(4)
C19_3 C 0.7349(5) 0.0058(3) 0.2383(5)
C20_3 C 0.6831(5) 0.0205(4) 0.0688(5)
H18_3 H 0.6961 0.0176 0.0025
C21_3 C 0.5905(5) 0.0431(4) 0.0985(5)
H19_3 H 0.5417 0.0560 0.0515
C22_3 C 0.5687(5) 0.0472(4) 0.1971(5)
H20_3 H 0.5063 0.0631 0.2160
C23_3 C 0.7569(5) 0.0020(3) 0.1391(4)
O19_2 O 0.3384(4) 0.1039(2) 0.2777(3)
O20_2 O 0.2390(3) 0.0456(2) 0.1708(4)
O5_3 O 0.0950(4) 0.8764(2) 0.2701(3)
O6_3 O 0.2129(3) 0.9335(2) 0.3578(3)
O7_2 O 0.1616(4) 0.6039(2) 0.2223(3)
O8_2 O 0.2610(3) 0.5456(2) 0.3292(4)
O11_2 O 0.9183(3) 0.9549(3) 0.1759(3)
O13_3 O 0.0497(4) 0.8564(2) 0.0431(3)
O14_3 O 0.2482(3) 0.8931(2) 0.1252(3)
H3_3 H 0.2939 0.8941 0.1699
H4_3 H 0.2550 0.8663 0.0748
C9_3 C 0.1654(5) 0.8760(3) 0.3330(4)
C10_3 C 0.1965(4) 0.8032(3) 0.3772(4)
C11_3 C 0.1832(4) 0.7374(3) 0.3246(4)
H13_3 H 0.1495 0.7381 0.2639
C12_3 C 0.2194(4) 0.6719(3) 0.3616(4)
C13_3 C 0.2678(5) 0.6701(4) 0.4542(5)
H14_3 H 0.2923 0.6255 0.4792
C14_3 C 0.2790(5) 0.7334(4) 0.5076(4)
H15_3 H 0.3095 0.7314 0.5697
C15_3 C 0.2455(5) 0.8012(3) 0.4705(4)
H16_3 H 0.2551 0.8446 0.5065
C16_3 C 0.2143(5) 0.6017(3) 0.2997(5)
H17_3 H 0.7838 0.9938 0.2856
C24_3 C 0.8600(5) 0.9820(3) 0.1113(5)
O17_2 O 0.4373(3) 0.8827(2) 0.3932(3)
O18_2 O 0.4010(3) 0.9381(2) 0.2524(3)
H1_3 H 0.9987 0.8308 0.0567
O1_4 O 0.4729(3) 0.6001(2) 0.3631(3)
O2_4 O 0.4479(3) 0.5558(2) 0.2141(3)
O5_4 O 0.4050(4) 0.3764(2) 0.2299(3)
O6_4 O 0.2871(3) 0.4335(2) 0.1422(3)
O13_4 O 0.4503(4) 0.3564(2) 0.4569(3)
H1_4 H 0.5013 0.3308 0.4433
H2_2 H 0.4144 0.3436 0.5041
O14_4 O 0.2518(3) 0.3931(2) 0.3748(3)
H3_4 H 0.2061 0.3941 0.3301
H4_4 H 0.2450 0.3663 0.4252
O15_4 O 0.3049(3) 0.5789(2) 0.0640(3)
H5_4 H 0.3025 0.6197 0.0326
H6_4 H 0.3609 0.5614 0.0840
O16_4 O 0.1077(4) 0.6259(3) 0.0049(4)
C1_4 C 0.4689(4) 0.6093(3) 0.2710(4)
C2_4 C 0.4847(5) 0.6845(3) 0.2290(4)
C3_4 C 0.4620(4) 0.7470(3) 0.2847(4)
H9_4 H 0.4418 0.7412 0.3487
C4_4 C 0.4694(4) 0.8170(3) 0.2454(4)
C5_2 C 0.5039(5) 0.8254(3) 0.1504(4)
H10_2 H 0.5092 0.8724 0.1229
C6_2 C 0.5299(5) 0.7635(4) 0.0984(5)
H11_2 H 0.5562 0.7692 0.0368
C7_2 C 0.5179(5) 0.6933(4) 0.1355(4)
H12_2 H 0.5320 0.6520 0.0976
C8_4 C 0.4353(4) 0.8827(3) 0.3005(4)
C9_4 C 0.3346(5) 0.3760(3) 0.1670(4)
C10_4 C 0.3035(4) 0.3032(3) 0.1228(4)
C11_4 C 0.3168(4) 0.2374(3) 0.1754(4)
H13_4 H 0.3505 0.2381 0.2361
C12_4 C 0.2806(4) 0.1719(3) 0.1384(4)
C13_4 C 0.2322(5) 0.1701(4) 0.0458(5)
H14_4 H 0.2077 0.1255 0.0208
C15_4 C 0.2545(5) 0.3012(3) 0.0295(4)
C16_4 C 0.2857(5) 0.1017(3) 0.2003(5)
O22_2 O 0.5817(3) 0.4549(3) 0.3241(3)
H7_4 H 0.1547 0.6546 0.9886
H8_4 H 0.0475 0.6369 0.9893
C14_4 C 0.2210(5) 0.2334(4) 0.9924(4)
H15_4 H 0.1905 0.2314 0.9303
H16_4 H 0.2449 0.3446 0.9935
O9_4 O 0.9680(4) 0.5313(3) 0.0990(3)
C17_4 C 0.8795(5) 0.5294(3) 0.1266(5)
C18_4 C 0.8588(5) 0.5272(3) 0.2333(4)
C19_4 C 0.7651(5) 0.5058(3) 0.2617(5)
H17_4 H 0.7162 0.4938 0.2144
C20_4 C 0.8169(5) 0.5205(4) 0.4312(5)
H18_4 H 0.8039 0.5176 0.4975
C21_4 C 0.9095(5) 0.5431(4) 0.4015(5)
H19_4 H 0.9583 0.5560 0.4485
C22_4 C 0.9313(5) 0.5472(4) 0.3029(5)
H20_4 H 0.9937 0.5631 0.2840
C23_4 C 0.7431(5) 0.5020(3) 0.3609(4)
C24_4 C 0.6400(5) 0.4820(3) 0.3887(5)
C5_3 C 0.0039(5) 0.6746(3) 0.6504(4)
H10_3 H 0.0092 0.6276 0.6229
C6_3 C 0.0299(5) 0.7365(4) 0.5984(5)
H11_3 H 0.0562 0.7308 0.5368
C7_3 C 0.0179(5) 0.8067(4) 0.6355(4)
H12_3 H 0.0320 0.8480 0.5976
H2_3 H 0.9144 0.1564 0.0041
H2_4 H 0.0856 0.8436 0.9959
C5_4 C 0.9961(5) 0.3254(3) 0.3496(4)
H10_4 H 0.9908 0.3724 0.3771
C6_4 C 0.9701(5) 0.2635(4) 0.4016(5)
H11_4 H 0.9438 0.2692 0.4632
C7_4 C 0.9821(5) 0.1933(4) 0.3645(4)
H12_4 H 0.9680 0.1520 0.4024
loop_
_geom_bond_atom_site_label_1
_geom_bond_atom_site_label_2
_geom_bond_site_symmetry_1
_geom_bond_site_symmetry_2
O5 Nd1 1_555 1_555
O6 C9 1_555 1_555
O7 C16 1_555 1_555
O8 C16 1_555 1_555
O22 C24 1_555 1_555
O12 C24 1_555 1_555
O13 Nd1 1_555 1_555
O14 Nd1 1_555 1_555
H3 O14 1_555 1_555
H4 O14 1_555 1_555
C9 O5 1_555 1_555
C10 C9 1_555 1_555
C11 C10 1_555 1_555
H13 C11 1_555 1_555
C12 C11 1_555 1_555
C13 C12 1_555 1_555
H14 C13 1_555 1_555
C14 C13 1_555 1_555
H15 C14 1_555 1_555
C15 C10 1_555 1_555
H16 C15 1_555 1_555
C16 C12 1_555 1_555
Nd4 O8 1_555 1_555
Nd7 O7 1_555 1_555
C14 C15 1_555 1_555
O1 C1 1_555 1_555
O3 C8 1_555 1_555
O4 C8 1_555 1_555
O9 Nd2 1_555 1_555
O10 C17 1_555 1_555
O15 Nd2 1_555 1_555
H5 O15 1_555 1_555
H6 O15 1_555 1_555
O16 Nd2 1_555 1_555
H7 O16 1_555 1_555
H8 O16 1_555 1_555
C1 O2 1_555 1_555
C2 C1 1_555 1_555
C3 C2 1_555 1_555
H9 C3 1_555 1_555
C4 C3 1_555 1_555
C8 C4 1_555 1_555
C17 O9 1_555 1_555
C18 C17 1_555 1_555
C19 C18 1_555 1_555
C20 H18 1_555 1_555
C21 C20 1_555 1_555
H19 C21 1_555 1_555
C22 C18 1_555 1_555
H20 C22 1_555 1_555
C23 C19 1_555 1_555
Nd7 O3 1_555 1_555
O19 Nd2 1_555 1_555
O4 Nd7 1_555 1_555
C20 C23 1_555 1_555
C21 C22 1_555 1_555
O10_2 C17_2 1_555 1_555
O11 C24_2 1_555 1_555
O12_2 C24_2 1_555 1_555
C17_2 O9_2 1_555 1_555
C18_2 C17_2 1_555 1_555
C19_2 C18_2 1_555 1_555
H17_2 C19_2 1_555 1_555
C20_2 H18_2 1_555 1_555
C21_2 C20_2 1_555 1_555
H19_2 C21_2 1_555 1_555
C22_2 C18_2 1_555 1_555
H20_2 C22_2 1_555 1_555
C23_2 C19_2 1_555 1_555
C24_2 C23_2 1_555 1_555
Nd4 O11 1_555 1_555
Nd5_2 O12_2 1_555 1_555
C20_2 C23_2 1_555 1_555
C21_2 C22_2 1_555 1_555
H15_2 C14_2 1_555 1_555
Nd4 O1_2 1_555 1_555
Nd7 O6_2 1_555 1_555
O1_2 C1_2 1_555 1_555
O2_2 Nd4 1_555 1_555
O17 C8_2 1_555 1_555
O18 C8_2 1_555 1_555
O5_2 Nd4 1_555 1_555
O6_2 C9_2 1_555 1_555
O19 C16_2 1_555 1_555
O20 C16_2 1_555 1_555
O13_2 Nd4 1_555 1_555
H1_2 O13_2 1_555 1_555
H2 O13_2 1_555 1_555
O14_2 Nd4 1_555 1_555
H3_2 O14_2 1_555 1_555
H4_2 O14_2 1_555 1_555
O15_2 Nd7 1_555 1_555
H5_2 O15_2 1_555 1_555
H6_2 O15_2 1_555 1_555
O16_2 Nd7 1_555 1_555
C1_2 O2_2 1_555 1_555
C2_2 C1_2 1_555 1_555
C3_2 C2_2 1_555 1_555
H9_2 C3_2 1_555 1_555
C4_2 C3_2 1_555 1_555
C5 C4_2 1_555 1_555
H10 C5 1_555 1_555
C6 C5 1_555 1_555
H11 C6 1_555 1_555
C7 C2_2 1_555 1_555
H12 C7 1_555 1_555
C8_2 C4_2 1_555 1_555
C9_2 O5_2 1_555 1_555
C10_2 C9_2 1_555 1_555
C11_2 C10_2 1_555 1_555
H13_2 C11_2 1_555 1_555
C12_2 C11_2 1_555 1_555
C13_2 C12_2 1_555 1_555
H14_2 C13_2 1_555 1_555
C15_2 C10_2 1_555 1_555
C16_2 C12_2 1_555 1_555
O23_2 Nd4 1_555 1_555
C6 C7 1_555 1_555
O1_3 C1_3 1_555 1_555
O3_2 C8_3 1_555 1_555
O4_2 C8_3 1_555 1_555
O9_3 Nd8 1_555 1_555
O21 C17_3 1_555 1_555
O15_3 Nd8 1_555 1_555
H5_3 O15_3 1_555 1_555
H6_3 O15_3 1_555 1_555
O16_3 Nd8 1_555 1_555
H7_3 O16_3 1_555 1_555
H8_3 O16_3 1_555 1_555
C1_3 O2_3 1_555 1_555
C2_3 C1_3 1_555 1_555
C3_3 C2_3 1_555 1_555
H9_3 C3_3 1_555 1_555
C4_3 C3_3 1_555 1_555
C8_3 C4_3 1_555 1_555
C17_3 O9_3 1_555 1_555
C18_3 C17_3 1_555 1_555
C19_3 C18_3 1_555 1_555
C20_3 H18_3 1_555 1_555
C21_3 C20_3 1_555 1_555
H19_3 C21_3 1_555 1_555
C22_3 C18_3 1_555 1_555
H20_3 C22_3 1_555 1_555
C23_3 C19_3 1_555 1_555
Nd8_2 O3_2 1_555 1_555
O19_2 Nd8 1_555 1_555
O4_2 Nd8_2 1_555 1_555
C20_3 C23_3 1_555 1_555
C21_3 C22_3 1_555 1_555
O5_3 Nd5 1_555 1_555
O6_3 C9_3 1_555 1_555
O7_2 C16_3 1_555 1_555
O8_2 C16_3 1_555 1_555
O11_2 C24_3 1_555 1_555
O23 C24_3 1_555 1_555
O13_3 Nd5 1_555 1_555
O14_3 Nd5 1_555 1_555
H3_3 O14_3 1_555 1_555
H4_3 O14_3 1_555 1_555
C9_3 O5_3 1_555 1_555
C10_3 C9_3 1_555 1_555
C11_3 C10_3 1_555 1_555
H13_3 C11_3 1_555 1_555
C12_3 C11_3 1_555 1_555
C13_3 C12_3 1_555 1_555
H14_3 C13_3 1_555 1_555
C14_3 C13_3 1_555 1_555
H15_3 C14_3 1_555 1_555
C15_3 C10_3 1_555 1_555
H16_3 C15_3 1_555 1_555
C16_3 C12_3 1_555 1_555
Nd5_2 O8_2 1_555 1_555
Nd8_2 O7_2 1_555 1_555
C14_3 C15_3 1_555 1_555
Nd5_2 O1_4 1_555 1_555
Nd8_2 O6_4 1_555 1_555
O1_4 C1_4 1_555 1_555
O2_4 Nd5_2 1_555 1_555
O17_2 C8_4 1_555 1_555
O18_2 C8_4 1_555 1_555
O5_4 Nd5_2 1_555 1_555
O6_4 C9_4 1_555 1_555
O19_2 C16_4 1_555 1_555
O20_2 C16_4 1_555 1_555
O13_4 Nd5_2 1_555 1_555
H1_4 O13_4 1_555 1_555
H2_2 O13_4 1_555 1_555
O14_4 Nd5_2 1_555 1_555
H3_4 O14_4 1_555 1_555
H4_4 O14_4 1_555 1_555
O15_4 Nd8_2 1_555 1_555
H5_4 O15_4 1_555 1_555
H6_4 O15_4 1_555 1_555
O16_4 Nd8_2 1_555 1_555
C1_4 O2_4 1_555 1_555
C2_4 C1_4 1_555 1_555
C3_4 C2_4 1_555 1_555
H9_4 C3_4 1_555 1_555
C4_4 C3_4 1_555 1_555
C5_2 C4_4 1_555 1_555
H10_2 C5_2 1_555 1_555
C6_2 C5_2 1_555 1_555
H11_2 C6_2 1_555 1_555
C7_2 C2_4 1_555 1_555
H12_2 C7_2 1_555 1_555
C8_4 C4_4 1_555 1_555
C9_4 O5_4 1_555 1_555
C10_4 C9_4 1_555 1_555
C11_4 C10_4 1_555 1_555
H13_4 C11_4 1_555 1_555
C12_4 C11_4 1_555 1_555
C13_4 C12_4 1_555 1_555
H14_4 C13_4 1_555 1_555
C15_4 C10_4 1_555 1_555
C16_4 C12_4 1_555 1_555
O22_2 Nd5_2 1_555 1_555
C6_2 C7_2 1_555 1_555
H15_4 C14_4 1_555 1_555
O21_2 C17_4 1_555 1_555
O22_2 C24_4 1_555 1_555
O23_2 C24_4 1_555 1_555
C17_4 O9_4 1_555 1_555
C18_4 C17_4 1_555 1_555
C19_4 C18_4 1_555 1_555
H17_4 C19_4 1_555 1_555
C20_4 H18_4 1_555 1_555
C21_4 C20_4 1_555 1_555
H19_4 C21_4 1_555 1_555
C22_4 C18_4 1_555 1_555
H20_4 C22_4 1_555 1_555
C23_4 C19_4 1_555 1_555
C24_4 C23_4 1_555 1_555
C20_4 C23_4 1_555 1_555
C21_4 C22_4 1_555 1_555
H10_3 C5_3 1_555 1_555
C6_3 C5_3 1_555 1_555
H11_3 C6_3 1_555 1_555
H12_3 C7_3 1_555 1_555
C6_3 C7_3 1_555 1_555
H10_4 C5_4 1_555 1_555
C6_4 C5_4 1_555 1_555
H11_4 C6_4 1_555 1_555
H12_4 C7_4 1_555 1_555
C6_4 C7_4 1_555 1_555

#END
