
###############################################################################
#
# This file contains modified crystal structure data generated from the
# MOF subset of the Cambridge Structural Database (CSD) v543 
# hosted by the Cambridge Crystallographic Data Centre (CCDC).
#
# This work is licensed under the Creative Commons
# Attribution-NonCommercial-ShareAlike 4.0 International License.
# To view a copy of this license, visit
# http://creativecommons.org/licenses/by-nc-sa/4.0/
# or send a letter to
# Creative Commons, PO Box 1866, Mountain View, CA 94042, USA.
#
# CIF created using the CSD Python API on 29 September 2022
# The structure has been converted into the P1 space group
# The structure has a 3D framework
# The original CSD entry AHITET is in the monoclinic crystal system
# The framework has been calculated to contain at least 10.0% void space
# The void calculation uses a probe of radius 1.32A, grid spacing 0.4
#
###############################################################################

data_AHITET
_chemical_formula_moiety         '(C96 H80 Gd8 O64)n'
_symmetry_cell_setting           triclinic
_symmetry_space_group_name_H-M   'P 1'
_symmetry_Int_Tables_number      1
_space_group_name_Hall           'P 1'
loop_
_symmetry_equiv_pos_site_id
_symmetry_equiv_pos_as_xyz
1 x,y,z
_cell_length_a                   13.3384(12)
_cell_length_b                   17.8639(16)
_cell_length_c                   13.6130(12)
_cell_angle_alpha                90
_cell_angle_beta                 91.6130(10)
_cell_angle_gamma                90
_cell_volume                     3242.36
loop_
_atom_site_label
_atom_site_type_symbol
_atom_site_fract_x
_atom_site_fract_y
_atom_site_fract_z
Gd3 Gd 0.09487(2) 0.029250(16) 0.64274(2)
Gd7 Gd 0.64841(2) 0.012987(16) 0.09747(2)
O21 O 0.3153(4) 0.0224(3) 0.0657(3)
O11 O 0.8844(4) 0.0053(3) 0.5208(3)
O12 O 0.9206(3) 0.0407(3) 0.6725(3)
O13 O 0.0484(4) 0.1407(2) 0.5482(3)
H2 H 0.0923 0.1738 0.5366
O14 O 0.2461(3) 0.1042(3) 0.6264(3)
H3 H 0.3016 0.0888 0.6510
H4 H 0.2433 0.1457 0.5961
H17 H 0.7827 0.0064 0.7846
C24 C 0.8606(5) 0.0161(3) 0.6092(5)
O17 O 0.3972(3) 0.0590(2) 0.7551(3)
O18 O 0.4339(3) 0.1137(2) 0.8968(3)
O19 O 0.0964(3) 0.1190(2) 0.7715(3)
O20 O 0.2136(3) 0.0632(2) 0.8623(4)
Gd2 Gd 0.35159(2) 0.987013(16) 0.90253(2)
O1 O 0.0547(3) 0.9436(2) 0.7839(3)
O2 O 0.0289(3) 0.8996(2) 0.6350(3)
O3 O 0.1028(3) 0.5590(2) 0.7449(3)
O4 O 0.0661(3) 0.6137(2) 0.6032(3)
O5 O 0.2368(3) 0.9538(2) 0.6695(4)
O6 O 0.3340(4) 0.8951(3) 0.7788(3)
O7 O 0.4036(3) 0.6190(2) 0.7285(3)
O8 O 0.2864(3) 0.5632(2) 0.6377(4)
O9 O 0.5247(4) 0.9651(3) 0.8973(4)
O10 O 0.6847(4) 0.9776(3) 0.9343(3)
O15 O 0.1964(3) 0.9189(3) 0.9381(3)
H5 H 0.1993 0.8780 0.9698
H6 H 0.1441 0.9297 0.9002
O16 O 0.3929(4) 0.8735(3) 0.9938(4)
C1 C 0.0333(4) 0.8897(3) 0.7269(4)
C2 C 0.0167(5) 0.8139(3) 0.7677(5)
C3 C 0.0391(4) 0.7513(3) 0.7119(4)
H9 H 0.0586 0.7571 0.6473
C4 C 0.0326(5) 0.6801(3) 0.7521(5)
C8 C 0.0678(4) 0.6136(3) 0.6962(5)
C9 C 0.2841(5) 0.8971(3) 0.6994(5)
C10 C 0.2807(5) 0.8281(3) 0.6377(4)
C11 C 0.3172(4) 0.7596(3) 0.6741(4)
H13 H 0.3505 0.7580 0.7350
C12 C 0.3042(4) 0.6943(3) 0.6203(4)
C13 C 0.2578(5) 0.6968(4) 0.5273(4)
H14 H 0.2496 0.6532 0.4907
C14 C 0.2240(5) 0.7644(4) 0.4899(5)
H15 H 0.1936 0.7663 0.4276
C15 C 0.2352(5) 0.8292(4) 0.5446(5)
H16 H 0.2119 0.8743 0.5187
C16 C 0.3336(4) 0.6204(3) 0.6641(4)
C17 C 0.6146(5) 0.9716(3) 0.8727(5)
C18 C 0.6390(5) 0.9720(4) 0.7657(5)
C19 C 0.7340(5) 0.9938(4) 0.7372(5)
C20 C 0.7562(5) 0.9967(4) 0.6387(5)
C21 C 0.6825(6) 0.9784(4) 0.5677(5)
H18 H 0.6967 0.9808 0.5013
C22 C 0.5877(6) 0.9564(5) 0.5968(5)
H19 H 0.5384 0.9447 0.5496
C23 C 0.5663(5) 0.9519(4) 0.6950(5)
H20 H 0.5036 0.9355 0.7141
Gd4 Gd 0.40513(2) 0.529250(16) 0.85726(2)
Gd5 Gd 0.90513(2) 0.970750(16) 0.35726(2)
Gd6 Gd 0.14841(2) 0.487013(16) 0.59747(2)
O22 O 0.1156(4) 0.9947(3) 0.4792(3)
H1 H 0.9885 0.1463 0.5266
H14_2 H 0.2504 0.1532 0.0093
C14_2 C 0.2760(5) 0.2644(4) 0.0101(5)
H15_2 H 0.3064 0.2663 0.0724
O22_2 O 0.3844(4) 0.4947(3) 0.0208(3)
O1_2 O 0.4453(3) 0.4436(2) 0.7161(3)
O2_2 O 0.4711(3) 0.3996(2) 0.8650(3)
O5_2 O 0.2632(3) 0.4538(2) 0.8305(4)
O6_2 O 0.1660(4) 0.3951(3) 0.7212(3)
O13_2 O 0.4516(4) 0.6407(2) 0.9518(3)
H1_2 H 0.5115 0.6463 0.9734
H2_2 H 0.4077 0.6738 0.9634
O14_2 O 0.2539(3) 0.6042(3) 0.8736(3)
H3_2 H 0.1984 0.5888 0.8490
H4_2 H 0.2567 0.6457 0.9039
O15_2 O 0.3036(3) 0.4189(3) 0.5619(3)
H5_2 H 0.3007 0.3780 0.5302
H6_2 H 0.3559 0.4297 0.5998
O16_2 O 0.1071(4) 0.3735(3) 0.5062(4)
H7 H 0.1535 0.3442 0.4887
H8 H 0.0462 0.3632 0.4917
C1_2 C 0.4667(4) 0.3897(3) 0.7731(4)
C2_2 C 0.4833(5) 0.3139(3) 0.7323(5)
C3_2 C 0.4609(4) 0.2513(3) 0.7881(4)
H9_2 H 0.4414 0.2571 0.8527
C4_2 C 0.4674(5) 0.1801(3) 0.7479(5)
C5 C 0.5024(5) 0.1715(4) 0.6533(5)
H10 H 0.5085 0.1240 0.6263
C6 C 0.5280(6) 0.2340(4) 0.5998(5)
H11 H 0.5529 0.2282 0.5371
C7 C 0.5174(5) 0.3044(4) 0.6376(5)
H12 H 0.5330 0.3460 0.5999
C8_2 C 0.4322(4) 0.1136(3) 0.8038(5)
C9_2 C 0.2159(5) 0.3971(3) 0.8006(5)
C10_2 C 0.2193(5) 0.3281(3) 0.8623(4)
C11_2 C 0.1828(4) 0.2596(3) 0.8259(4)
H13_2 H 0.1495 0.2580 0.7650
C12_2 C 0.1958(4) 0.1943(3) 0.8797(4)
C13_2 C 0.2422(5) 0.1968(4) 0.9727(4)
C15_2 C 0.2648(5) 0.3292(4) 0.9554(5)
H16_2 H 0.2881 0.3743 0.9813
C16_2 C 0.1664(4) 0.1204(3) 0.8359(4)
O21_2 O 0.1847(4) 0.5224(3) 0.4343(3)
O23 O 0.5794(3) 0.5407(3) 0.8275(3)
Gd5_2 Gd 0.59487(2) 0.470750(16) 0.14274(2)
O9_2 O 0.9753(4) 0.4651(3) 0.6027(4)
O10_2 O 0.8153(4) 0.4776(3) 0.5657(3)
O11_2 O 0.6156(4) 0.5053(3) 0.9792(3)
C17_2 C 0.8854(5) 0.4716(3) 0.6273(5)
C18_2 C 0.8610(5) 0.4720(4) 0.7343(5)
C19_2 C 0.7660(5) 0.4938(4) 0.7628(5)
H17_2 H 0.7173 0.5064 0.7154
C20_2 C 0.7438(5) 0.4967(4) 0.8613(5)
C21_2 C 0.8175(6) 0.4784(4) 0.9323(5)
H18_2 H 0.8033 0.4808 0.9987
C22_2 C 0.9123(6) 0.4564(5) 0.9032(5)
H19_2 H 0.9616 0.4447 0.9504
C23_2 C 0.9337(5) 0.4519(4) 0.8050(5)
H20_2 H 0.9964 0.4355 0.7859
C24_2 C 0.6394(5) 0.5161(3) 0.8908(5)
Gd7_2 Gd 0.85159(2) 0.512987(16) 0.40253(2)
H1_3 H 0.0115 0.8537 0.4734
O23_2 O 0.0794(3) 0.9593(3) 0.3275(3)
O1_3 O 0.9453(3) 0.0564(2) 0.2161(3)
O2_3 O 0.9711(3) 0.1004(2) 0.3650(3)
O3_2 O 0.8972(3) 0.4410(2) 0.2551(3)
O4_2 O 0.9339(3) 0.3863(2) 0.3968(3)
O5_3 O 0.7632(3) 0.0462(2) 0.3305(4)
O6_3 O 0.6660(4) 0.1049(3) 0.2212(3)
O7_2 O 0.5964(3) 0.3810(2) 0.2715(3)
O8_2 O 0.7136(3) 0.4368(2) 0.3623(4)
O9_3 O 0.4753(4) 0.0349(3) 0.1027(4)
O15_3 O 0.8036(3) 0.0811(3) 0.0619(3)
H5_3 H 0.8007 0.1220 0.0302
H6_3 H 0.8559 0.0703 0.0998
O16_3 O 0.6071(4) 0.1265(3) 0.0062(4)
C1_3 C 0.9667(4) 0.1103(3) 0.2731(4)
C2_3 C 0.9833(5) 0.1861(3) 0.2323(5)
C3_3 C 0.9609(4) 0.2487(3) 0.2881(4)
H9_3 H 0.9414 0.2429 0.3527
C4_3 C 0.9674(5) 0.3199(3) 0.2479(5)
C8_3 C 0.9322(4) 0.3864(3) 0.3038(5)
C9_3 C 0.7159(5) 0.1029(3) 0.3006(5)
C10_3 C 0.7193(5) 0.1719(3) 0.3623(4)
C11_3 C 0.6828(4) 0.2404(3) 0.3259(4)
H13_3 H 0.6495 0.2420 0.2650
C12_3 C 0.6958(4) 0.3057(3) 0.3797(4)
C13_3 C 0.7422(5) 0.3032(4) 0.4727(4)
H14_3 H 0.7504 0.3468 0.5093
C14_3 C 0.7760(5) 0.2356(4) 0.5101(5)
H15_3 H 0.8064 0.2337 0.5724
C15_3 C 0.7648(5) 0.1708(4) 0.4554(5)
H16_3 H 0.7881 0.1257 0.4813
C16_3 C 0.6664(4) 0.3796(3) 0.3359(4)
C17_3 C 0.3854(5) 0.0284(3) 0.1273(5)
C18_3 C 0.3610(5) 0.0280(4) 0.2343(5)
C19_3 C 0.2660(5) 0.0062(4) 0.2628(5)
C20_3 C 0.2438(5) 0.0033(4) 0.3613(5)
C21_3 C 0.3175(6) 0.0216(4) 0.4323(5)
H18_3 H 0.3033 0.0192 0.4987
C22_3 C 0.4123(6) 0.0436(5) 0.4032(5)
H19_3 H 0.4616 0.0553 0.4504
C23_3 C 0.4337(5) 0.0481(4) 0.3050(5)
H20_3 H 0.4964 0.0645 0.2859
O13_3 O 0.9516(4) 0.8593(2) 0.4518(3)
H2_3 H 0.9077 0.8262 0.4634
O14_3 O 0.7539(3) 0.8958(3) 0.3736(3)
H3_3 H 0.6984 0.9112 0.3490
H4_3 H 0.7567 0.8543 0.4039
H17_3 H 0.2173 0.9936 0.2154
C24_3 C 0.1394(5) 0.9839(3) 0.3908(5)
O17_2 O 0.6028(3) 0.9410(2) 0.2449(3)
O18_2 O 0.5661(3) 0.8863(2) 0.1032(3)
O19_2 O 0.9036(3) 0.8810(2) 0.2285(3)
O20_2 O 0.7864(3) 0.9368(2) 0.1377(4)
O9_4 O 0.0247(4) 0.5349(3) 0.3973(4)
O12_2 O 0.4206(3) 0.4593(3) 0.1725(3)
C17_4 C 0.1146(5) 0.5284(3) 0.3727(5)
C18_4 C 0.1390(5) 0.5280(4) 0.2657(5)
C19_4 C 0.2340(5) 0.5062(4) 0.2372(5)
H17_4 H 0.2827 0.4936 0.2846
C20_4 C 0.2562(5) 0.5033(4) 0.1387(5)
C21_4 C 0.1825(6) 0.5216(4) 0.0677(5)
H18_4 H 0.1967 0.5192 0.0013
C22_4 C 0.0877(6) 0.5436(5) 0.0968(5)
H19_4 H 0.0384 0.5553 0.0496
C23_4 C 0.0663(5) 0.5481(4) 0.1950(5)
H20_4 H 0.0036 0.5645 0.2141
C24_4 C 0.3606(5) 0.4839(3) 0.1092(5)
O1_4 O 0.5547(3) 0.5564(2) 0.2839(3)
O2_4 O 0.5289(3) 0.6004(2) 0.1350(3)
O5_4 O 0.7368(3) 0.5462(2) 0.1695(4)
O6_4 O 0.8340(4) 0.6049(3) 0.2788(3)
O13_4 O 0.5484(4) 0.3593(2) 0.0482(3)
H1_4 H 0.4885 0.3537 0.0266
H2_4 H 0.5923 0.3262 0.0366
O14_4 O 0.7461(3) 0.3958(3) 0.1264(3)
H3_4 H 0.8016 0.4112 0.1510
H4_4 H 0.7433 0.3543 0.0961
O15_4 O 0.6964(3) 0.5811(3) 0.4381(3)
H5_4 H 0.6993 0.6220 0.4698
H6_4 H 0.6441 0.5703 0.4002
O16_4 O 0.8929(4) 0.6265(3) 0.4938(4)
H7_2 H 0.8465 0.6558 0.5113
H8_2 H 0.9538 0.6368 0.5083
C1_4 C 0.5333(4) 0.6103(3) 0.2269(4)
C2_4 C 0.5167(5) 0.6861(3) 0.2677(5)
C3_4 C 0.5391(4) 0.7487(3) 0.2119(4)
H9_4 H 0.5586 0.7429 0.1473
C4_4 C 0.5326(5) 0.8199(3) 0.2521(5)
C5_2 C 0.4976(5) 0.8285(4) 0.3467(5)
H10_2 H 0.4915 0.8760 0.3737
C6_2 C 0.4720(6) 0.7660(4) 0.4002(5)
H11_2 H 0.4471 0.7718 0.4629
C7_2 C 0.4826(5) 0.6956(4) 0.3624(5)
H12_2 H 0.4670 0.6540 0.4001
C8_4 C 0.5678(4) 0.8864(3) 0.1962(5)
C9_4 C 0.7841(5) 0.6029(3) 0.1994(5)
C10_4 C 0.7807(5) 0.6719(3) 0.1377(4)
C11_4 C 0.8172(4) 0.7404(3) 0.1741(4)
H13_4 H 0.8505 0.7420 0.2350
C12_4 C 0.8042(4) 0.8057(3) 0.1203(4)
C13_4 C 0.7578(5) 0.8032(4) 0.0273(4)
C15_4 C 0.7352(5) 0.6708(4) 0.0446(5)
H16_4 H 0.7119 0.6257 0.0187
C16_4 C 0.8336(4) 0.8796(3) 0.1641(4)
H14_4 H 0.7496 0.8468 0.9907
C14_4 C 0.7240(5) 0.7356(4) 0.9899(5)
H15_4 H 0.6936 0.7337 0.9276
H7_3 H 0.3465 0.8442 0.0113
H8_3 H 0.4538 0.8632 0.0083
C5_3 C 0.9976(5) 0.6715(4) 0.8467(5)
H10_3 H 0.9915 0.6240 0.8737
C6_3 C 0.9720(6) 0.7340(4) 0.9002(5)
H11_3 H 0.9471 0.7282 0.9629
C7_3 C 0.9826(5) 0.8044(4) 0.8624(5)
H12_3 H 0.9670 0.8460 0.9001
C5_4 C 0.0024(5) 0.3285(4) 0.1533(5)
H10_4 H 0.0085 0.3760 0.1263
C6_4 C 0.0280(6) 0.2660(4) 0.0998(5)
H11_4 H 0.0529 0.2718 0.0371
C7_4 C 0.0174(5) 0.1956(4) 0.1376(5)
H12_4 H 0.0330 0.1540 0.0999
H7_4 H 0.6535 0.1558 0.9887
H8_4 H 0.5462 0.1368 0.9917
loop_
_geom_bond_atom_site_label_1
_geom_bond_atom_site_label_2
_geom_bond_site_symmetry_1
_geom_bond_site_symmetry_2
O11 C24 1_555 1_555
O12 C24 1_555 1_555
O13 Gd3 1_555 1_555
H2 O13 1_555 1_555
O14 Gd3 1_555 1_555
H3 O14 1_555 1_555
H4 O14 1_555 1_555
O19 Gd3 1_555 1_555
Gd2 O6 1_555 1_555
O1 C1 1_555 1_555
O3 C8 1_555 1_555
O4 C8 1_555 1_555
O6 C9 1_555 1_555
O7 C16 1_555 1_555
O8 C16 1_555 1_555
O9 Gd2 1_555 1_555
O10 C17 1_555 1_555
O15 Gd2 1_555 1_555
H5 O15 1_555 1_555
H6 O15 1_555 1_555
O16 Gd2 1_555 1_555
C1 O2 1_555 1_555
C2 C1 1_555 1_555
C3 C2 1_555 1_555
H9 C3 1_555 1_555
C4 C3 1_555 1_555
C8 C4 1_555 1_555
C9 O5 1_555 1_555
C10 C9 1_555 1_555
C11 C10 1_555 1_555
H13 C11 1_555 1_555
C12 C11 1_555 1_555
C13 C12 1_555 1_555
H14 C13 1_555 1_555
C14 C13 1_555 1_555
H15 C14 1_555 1_555
C15 C10 1_555 1_555
H16 C15 1_555 1_555
C16 C12 1_555 1_555
C17 O9 1_555 1_555
C18 C17 1_555 1_555
C19 C18 1_555 1_555
C20 C19 1_555 1_555
C21 C20 1_555 1_555
H18 C21 1_555 1_555
C22 C21 1_555 1_555
H19 C22 1_555 1_555
C23 C18 1_555 1_555
H20 C23 1_555 1_555
Gd4 O7 1_555 1_555
Gd6 O3 1_555 1_555
O4 Gd6 1_555 1_555
O8 Gd6 1_555 1_555
C14 C15 1_555 1_555
C22 C23 1_555 1_555
H15_2 C14_2 1_555 1_555
Gd4 O1_2 1_555 1_555
Gd6 O6_2 1_555 1_555
O1_2 C1_2 1_555 1_555
O2_2 Gd4 1_555 1_555
O17 C8_2 1_555 1_555
O18 C8_2 1_555 1_555
O5_2 Gd4 1_555 1_555
O6_2 C9_2 1_555 1_555
O19 C16_2 1_555 1_555
O20 C16_2 1_555 1_555
O13_2 Gd4 1_555 1_555
H1_2 O13_2 1_555 1_555
H2_2 O13_2 1_555 1_555
O14_2 Gd4 1_555 1_555
H3_2 O14_2 1_555 1_555
H4_2 O14_2 1_555 1_555
O15_2 Gd6 1_555 1_555
H5_2 O15_2 1_555 1_555
H6_2 O15_2 1_555 1_555
O16_2 Gd6 1_555 1_555
H7 O16_2 1_555 1_555
H8 O16_2 1_555 1_555
C1_2 O2_2 1_555 1_555
C2_2 C1_2 1_555 1_555
C3_2 C2_2 1_555 1_555
H9_2 C3_2 1_555 1_555
C4_2 C3_2 1_555 1_555
C5 C4_2 1_555 1_555
H10 C5 1_555 1_555
C6 C5 1_555 1_555
H11 C6 1_555 1_555
C7 C2_2 1_555 1_555
H12 C7 1_555 1_555
C8_2 C4_2 1_555 1_555
C9_2 O5_2 1_555 1_555
C10_2 C9_2 1_555 1_555
C11_2 C10_2 1_555 1_555
H13_2 C11_2 1_555 1_555
C12_2 C11_2 1_555 1_555
C13_2 C12_2 1_555 1_555
C15_2 C10_2 1_555 1_555
H16_2 C15_2 1_555 1_555
C16_2 C12_2 1_555 1_555
O21_2 Gd6 1_555 1_555
O23 Gd4 1_555 1_555
C6 C7 1_555 1_555
O10_2 C17_2 1_555 1_555
O11_2 C24_2 1_555 1_555
O23 C24_2 1_555 1_555
C17_2 O9_2 1_555 1_555
C18_2 C17_2 1_555 1_555
C19_2 C18_2 1_555 1_555
H17_2 C19_2 1_555 1_555
C20_2 C19_2 1_555 1_555
C21_2 C20_2 1_555 1_555
H18_2 C21_2 1_555 1_555
C22_2 C21_2 1_555 1_555
H19_2 C22_2 1_555 1_555
C23_2 C18_2 1_555 1_555
H20_2 C23_2 1_555 1_555
C24_2 C20_2 1_555 1_555
Gd7_2 O10_2 1_555 1_555
C22_2 C23_2 1_555 1_555
Gd7 O6_3 1_555 1_555
O1_3 C1_3 1_555 1_555
O3_2 C8_3 1_555 1_555
O4_2 C8_3 1_555 1_555
O6_3 C9_3 1_555 1_555
O7_2 C16_3 1_555 1_555
O8_2 C16_3 1_555 1_555
O9_3 Gd7 1_555 1_555
O21 C17_3 1_555 1_555
O15_3 Gd7 1_555 1_555
H5_3 O15_3 1_555 1_555
H6_3 O15_3 1_555 1_555
O16_3 Gd7 1_555 1_555
C1_3 O2_3 1_555 1_555
C2_3 C1_3 1_555 1_555
C3_3 C2_3 1_555 1_555
H9_3 C3_3 1_555 1_555
C4_3 C3_3 1_555 1_555
C8_3 C4_3 1_555 1_555
C9_3 O5_3 1_555 1_555
C10_3 C9_3 1_555 1_555
C11_3 C10_3 1_555 1_555
H13_3 C11_3 1_555 1_555
C12_3 C11_3 1_555 1_555
C13_3 C12_3 1_555 1_555
H14_3 C13_3 1_555 1_555
C14_3 C13_3 1_555 1_555
H15_3 C14_3 1_555 1_555
C15_3 C10_3 1_555 1_555
H16_3 C15_3 1_555 1_555
C16_3 C12_3 1_555 1_555
C17_3 O9_3 1_555 1_555
C18_3 C17_3 1_555 1_555
C19_3 C18_3 1_555 1_555
C20_3 C19_3 1_555 1_555
C21_3 C20_3 1_555 1_555
H18_3 C21_3 1_555 1_555
C22_3 C21_3 1_555 1_555
H19_3 C22_3 1_555 1_555
C23_3 C18_3 1_555 1_555
H20_3 C23_3 1_555 1_555
Gd5_2 O7_2 1_555 1_555
Gd7_2 O3_2 1_555 1_555
O4_2 Gd7_2 1_555 1_555
O8_2 Gd7_2 1_555 1_555
C14_3 C15_3 1_555 1_555
C22_3 C23_3 1_555 1_555
O22 C24_3 1_555 1_555
O23_2 C24_3 1_555 1_555
O13_3 Gd5 1_555 1_555
H2_3 O13_3 1_555 1_555
O14_3 Gd5 1_555 1_555
H3_3 O14_3 1_555 1_555
H4_3 O14_3 1_555 1_555
O19_2 Gd5 1_555 1_555
O21_2 C17_4 1_555 1_555
O22_2 C24_4 1_555 1_555
O12_2 C24_4 1_555 1_555
C17_4 O9_4 1_555 1_555
C18_4 C17_4 1_555 1_555
C19_4 C18_4 1_555 1_555
H17_4 C19_4 1_555 1_555
C20_4 C19_4 1_555 1_555
C21_4 C20_4 1_555 1_555
H18_4 C21_4 1_555 1_555
C22_4 C21_4 1_555 1_555
H19_4 C22_4 1_555 1_555
C23_4 C18_4 1_555 1_555
H20_4 C23_4 1_555 1_555
C24_4 C20_4 1_555 1_555
Gd5_2 O12_2 1_555 1_555
C22_4 C23_4 1_555 1_555
Gd5_2 O1_4 1_555 1_555
Gd7_2 O6_4 1_555 1_555
O1_4 C1_4 1_555 1_555
O2_4 Gd5_2 1_555 1_555
O17_2 C8_4 1_555 1_555
O18_2 C8_4 1_555 1_555
O5_4 Gd5_2 1_555 1_555
O6_4 C9_4 1_555 1_555
O19_2 C16_4 1_555 1_555
O20_2 C16_4 1_555 1_555
O13_4 Gd5_2 1_555 1_555
H1_4 O13_4 1_555 1_555
H2_4 O13_4 1_555 1_555
O14_4 Gd5_2 1_555 1_555
H3_4 O14_4 1_555 1_555
H4_4 O14_4 1_555 1_555
O15_4 Gd7_2 1_555 1_555
H5_4 O15_4 1_555 1_555
H6_4 O15_4 1_555 1_555
O16_4 Gd7_2 1_555 1_555
H7_2 O16_4 1_555 1_555
H8_2 O16_4 1_555 1_555
C1_4 O2_4 1_555 1_555
C2_4 C1_4 1_555 1_555
C3_4 C2_4 1_555 1_555
H9_4 C3_4 1_555 1_555
C4_4 C3_4 1_555 1_555
C5_2 C4_4 1_555 1_555
H10_2 C5_2 1_555 1_555
C6_2 C5_2 1_555 1_555
H11_2 C6_2 1_555 1_555
C7_2 C2_4 1_555 1_555
H12_2 C7_2 1_555 1_555
C8_4 C4_4 1_555 1_555
C9_4 O5_4 1_555 1_555
C10_4 C9_4 1_555 1_555
C11_4 C10_4 1_555 1_555
H13_4 C11_4 1_555 1_555
C12_4 C11_4 1_555 1_555
C13_4 C12_4 1_555 1_555
C15_4 C10_4 1_555 1_555
H16_4 C15_4 1_555 1_555
C16_4 C12_4 1_555 1_555
C6_2 C7_2 1_555 1_555
H15_4 C14_4 1_555 1_555
H10_3 C5_3 1_555 1_555
C6_3 C5_3 1_555 1_555
H11_3 C6_3 1_555 1_555
H12_3 C7_3 1_555 1_555
C6_3 C7_3 1_555 1_555
H10_4 C5_4 1_555 1_555
C6_4 C5_4 1_555 1_555
H11_4 C6_4 1_555 1_555
H12_4 C7_4 1_555 1_555
C6_4 C7_4 1_555 1_555

#END
