
###############################################################################
#
# This file contains modified crystal structure data generated from the
# MOF subset of the Cambridge Structural Database (CSD) v543 
# hosted by the Cambridge Crystallographic Data Centre (CCDC).
#
# This work is licensed under the Creative Commons
# Attribution-NonCommercial-ShareAlike 4.0 International License.
# To view a copy of this license, visit
# http://creativecommons.org/licenses/by-nc-sa/4.0/
# or send a letter to
# Creative Commons, PO Box 1866, Mountain View, CA 94042, USA.
#
# CIF created using the CSD Python API on 29 September 2022
# The structure has been converted into the P1 space group
# The structure has a 3D framework
# The original CSD entry AHUJEV is in the orthorhombic crystal system
# The original CSD entry AHUJEV is in a Sohncke space group
# The framework has been calculated to contain at least 10.0% void space
# The void calculation uses a probe of radius 1.32A, grid spacing 0.4
#
###############################################################################

data_AHUJEV
_chemical_formula_moiety         '(C72 H56 F16 O18 Pb4 S16)n'
_symmetry_cell_setting           triclinic
_symmetry_space_group_name_H-M   'P 1'
_symmetry_Int_Tables_number      1
_space_group_name_Hall           'P 1'
loop_
_symmetry_equiv_pos_site_id
_symmetry_equiv_pos_as_xyz
1 x,y,z
_cell_length_a                   7.1598(6)
_cell_length_b                   17.310(2)
_cell_length_c                   23.602(2)
_cell_angle_alpha                90
_cell_angle_beta                 90
_cell_angle_gamma                90
_cell_volume                     2925.14
loop_
_atom_site_label
_atom_site_type_symbol
_atom_site_fract_x
_atom_site_fract_y
_atom_site_fract_z
C1 C 0.0140(17) 0.5805(7) 0.4420(5)
C2 C 0.011(2) 0.5338(7) 0.3876(5)
C3 C 0.141(3) 0.4693(12) 0.3801(7)
C4 C 0.118(2) 0.4375(9) 0.3233(6)
C5 C 0.0095(19) 0.4568(9) 0.2839(6)
C8 C 0.227(4) 0.3323(6) 0.4330(9)
H1 H 0.2962 0.3091 0.4646
H2 H 0.0937 0.3205 0.4371
H3 H 0.2729 0.3111 0.3971
C12 C 0.055(3) 0.4041(10) 0.1308(6)
C13 C 0.0652(15) 0.4460(7) 0.1808(5)
C17 C 0.3655(16) 0.4849(10) 0.0937(7)
H7 H 0.4259 0.5107 0.0617
H8 H 0.3467 0.5220 0.1246
H9 H 0.4449 0.4425 0.1070
H12 H 0.0664 0.2075 0.2958
O1 O 0.1651(10) 0.6121(5) 0.4534(3)
O3 O 0.1170(9) 0.2607(4) 0.0522(2)
O5 O 0.0145(10) 0.8373(4) 0.5685(3)
H14 H 0.1018 0.8673 0.5579
F1 F 0.213(2) 0.3658(6) 0.3186(4)
F3 F 0.1447(15) 0.5199(5) 0.1820(4)
S1 S 0.2587(12) 0.4314(3) 0.4336(2)
S3 S 0.1427(8) 0.4469(3) 0.0716(2)
Pb1 Pb 0.03445(5) 0.69676(2) 0.53294(2)
O6 O 0.3830(9) 0.7393(4) 0.5522(2)
O9 O 0.1778(9) 0.7824(4) 0.4524(3)
Pb3 Pb 0.46555(5) 0.30324(2) 0.03294(2)
C6 C 0.902(3) 0.5226(12) 0.2916(7)
C7 C 0.910(2) 0.5539(9) 0.3397(6)
C9 C 0.5346(17) 0.5385(13) 0.2743(6)
H4 H 0.4280 0.5545 0.2510
H5 H 0.5261 0.4830 0.2821
H6 H 0.5331 0.5671 0.3102
C10 C 0.9732(13) 0.2873(6) 0.0709(5)
C11 C 0.9757(16) 0.3311(7) 0.1270(5)
C14 C 0.9861(19) 0.4173(9) 0.2258(6)
C15 C 0.899(3) 0.3378(11) 0.2254(7)
C16 C 0.906(2) 0.2969(9) 0.1757(6)
C18 C 0.931(3) 0.2003(6) 0.2935(9)
H10 H 0.8865 0.1745 0.3279
H11 H 0.9009 0.1684 0.2604
O2 O 0.8592(10) 0.5844(5) 0.4698(3)
O4 O 0.8222(9) 0.2824(4) 0.0476(3)
H13 H 0.9169 0.8631 0.5723
F2 F 0.8122(14) 0.6203(7) 0.3510(3)
F4 F 0.8086(18) 0.2205(5) 0.1720(3)
S2 S 0.7445(8) 0.5583(4) 0.2377(2)
S4 S 0.8209(12) 0.2909(3) 0.2870(2)
O7 O 0.8830(9) 0.7607(4) 0.4478(2)
O8 O 0.6778(9) 0.7176(4) 0.5476(3)
Pb4 Pb 0.96555(5) 0.19676(2) 0.96706(2)
H4_2 H 0.0720 0.4455 0.7510
O5_2 O 0.4855(10) 0.1627(4) 0.0685(3)
H13_2 H 0.5831 0.1369 0.0723
H14_2 H 0.3982 0.1327 0.0579
C1_2 C 0.4860(17) 0.4195(7) 0.9420(5)
C2_2 C 0.489(2) 0.4662(7) 0.8876(5)
C3_2 C 0.359(3) 0.5307(12) 0.8801(7)
C4_2 C 0.382(2) 0.5625(9) 0.8233(6)
C5_2 C 0.4905(19) 0.5432(9) 0.7839(6)
C6_2 C 0.598(3) 0.4774(12) 0.7916(7)
C7_2 C 0.590(2) 0.4461(9) 0.8397(6)
C8_2 C 0.273(4) 0.6677(6) 0.9330(9)
H1_2 H 0.2038 0.6909 0.9646
H2_2 H 0.4063 0.6795 0.9371
H3_2 H 0.2271 0.6889 0.8971
C9_2 C 0.9654(17) 0.4615(13) 0.7743(6)
H5_2 H 0.9739 0.5170 0.7821
H6_2 H 0.9669 0.4329 0.8102
C10_2 C 0.5268(13) 0.7127(6) 0.5709(5)
C11_2 C 0.5243(16) 0.6689(7) 0.6270(5)
C12_2 C 0.445(3) 0.5959(10) 0.6308(6)
C13_2 C 0.4348(15) 0.5540(7) 0.6808(5)
C14_2 C 0.5139(19) 0.5827(9) 0.7258(6)
C15_2 C 0.601(3) 0.6622(11) 0.7254(7)
C16_2 C 0.594(2) 0.7031(9) 0.6757(6)
C17_2 C 0.1345(16) 0.5151(10) 0.5937(7)
H7_2 H 0.0741 0.4893 0.5617
H8_2 H 0.1533 0.4780 0.6246
H9_2 H 0.0551 0.5575 0.6070
C18_2 C 0.569(3) 0.7997(6) 0.7935(9)
H10_2 H 0.6135 0.8255 0.8279
H11_2 H 0.5991 0.8316 0.7604
H12_2 H 0.4336 0.7925 0.7958
O1_2 O 0.3349(10) 0.3879(5) 0.9534(3)
O2_2 O 0.6408(10) 0.4156(5) 0.9698(3)
F1_2 F 0.287(2) 0.6342(6) 0.8186(4)
F2_2 F 0.6878(14) 0.3797(7) 0.8510(3)
F3_2 F 0.3553(15) 0.4801(5) 0.6820(4)
F4_2 F 0.6914(18) 0.7795(5) 0.6720(3)
S1_2 S 0.2413(12) 0.5686(3) 0.9336(2)
S2_2 S 0.7555(8) 0.4417(4) 0.7377(2)
S3_2 S 0.3573(8) 0.5531(3) 0.5716(2)
S4_2 S 0.6791(12) 0.7091(3) 0.7870(2)
O7_2 O 0.6170(9) 0.2393(4) 0.9478(2)
O9_2 O 0.3222(9) 0.2176(4) 0.9524(3)
Pb4_2 Pb 0.53445(5) 0.80324(2) 0.46706(2)
C6_3 C 0.098(3) 0.0226(12) 0.2084(7)
C7_3 C 0.090(2) 0.0539(9) 0.1603(6)
C9_3 C 0.4654(17) 0.0385(13) 0.2257(6)
H4_3 H 0.5720 0.0545 0.2490
H6_3 H 0.4669 0.0671 0.1898
O2_3 O 0.1408(10) 0.0844(5) 0.0302(3)
F2_3 F 0.1878(14) 0.1203(7) 0.1490(3)
S2_3 S 0.2555(8) 0.0583(4) 0.2623(2)
H13_3 H 0.0831 0.3631 0.9277
H5_3 H 0.4739 0.9830 0.2179
C10_3 C 0.0268(13) 0.7873(6) 0.4291(5)
C11_3 C 0.0243(16) 0.8311(7) 0.3730(5)
C14_3 C 0.0139(19) 0.9173(9) 0.2742(6)
C15_3 C 0.101(3) 0.8378(11) 0.2746(7)
C16_3 C 0.094(2) 0.7969(9) 0.3243(6)
C18_3 C 0.069(3) 0.7003(6) 0.2065(9)
H10_3 H 0.1135 0.6745 0.1721
H11_3 H 0.0991 0.6684 0.2396
F4_3 F 0.1914(18) 0.7205(5) 0.3280(3)
S4_3 S 0.1791(12) 0.7909(3) 0.2130(2)
C1_3 C 0.9860(17) 0.0805(7) 0.0580(5)
C2_3 C 0.989(2) 0.0338(7) 0.1124(5)
H7_3 H 0.5741 0.0107 0.4383
H8_3 H 0.6533 0.0220 0.3754
O1_3 O 0.8349(10) 0.1121(5) 0.0466(3)
F3_3 F 0.8553(15) 0.0199(5) 0.3180(4)
O5_3 O 0.9855(10) 0.3373(4) 0.9315(3)
H14_3 H 0.8982 0.3673 0.9421
C3_3 C 0.859(3) 0.9693(12) 0.1199(7)
C4_3 C 0.882(2) 0.9375(9) 0.1767(6)
C5_3 C 0.9905(19) 0.9568(9) 0.2161(6)
C8_3 C 0.773(4) 0.8323(6) 0.0670(9)
H1_3 H 0.7038 0.8091 0.0354
H2_3 H 0.9063 0.8205 0.0629
H3_3 H 0.7271 0.8111 0.1029
C12_3 C 0.945(3) 0.9041(10) 0.3692(6)
C13_3 C 0.9348(15) 0.9460(7) 0.3192(5)
C17_3 C 0.6345(16) 0.9849(10) 0.4063(7)
H9_3 H 0.5551 0.9425 0.3930
H12_3 H 0.9336 0.7075 0.2042
F1_3 F 0.787(2) 0.8658(6) 0.1814(4)
S1_3 S 0.7413(12) 0.9314(3) 0.0664(2)
S3_3 S 0.8573(8) 0.9469(3) 0.4284(2)
C3_4 C 0.641(3) 0.0307(12) 0.6199(7)
C4_4 C 0.618(2) 0.0625(9) 0.6767(6)
C5_4 C 0.5095(19) 0.0432(9) 0.7161(6)
C8_4 C 0.727(4) 0.1677(6) 0.5670(9)
H1_4 H 0.7962 0.1909 0.5354
H2_4 H 0.5937 0.1795 0.5629
H3_4 H 0.7729 0.1889 0.6029
H5_4 H 0.0261 0.0170 0.7179
C10_4 C 0.4732(13) 0.2127(6) 0.9291(5)
C11_4 C 0.4757(16) 0.1689(7) 0.8730(5)
C12_4 C 0.555(3) 0.0959(10) 0.8692(6)
C13_4 C 0.5652(15) 0.0540(7) 0.8192(5)
C14_4 C 0.4861(19) 0.0827(9) 0.7742(6)
C15_4 C 0.399(3) 0.1622(11) 0.7746(7)
C16_4 C 0.406(2) 0.2031(9) 0.8243(6)
C17_4 C 0.8655(16) 0.0151(10) 0.9063(7)
H9_4 H 0.9449 0.0575 0.8930
C18_4 C 0.431(3) 0.2997(6) 0.7065(9)
H10_4 H 0.3865 0.3255 0.6721
H11_4 H 0.4009 0.3316 0.7396
H12_4 H 0.5664 0.2925 0.7042
F1_4 F 0.713(2) 0.1342(6) 0.6814(4)
F4_4 F 0.3086(18) 0.2795(5) 0.8280(3)
S1_4 S 0.7587(12) 0.0686(3) 0.5664(2)
S3_4 S 0.6427(8) 0.0531(3) 0.9284(2)
S4_4 S 0.3209(12) 0.2091(3) 0.7130(2)
C1_4 C 0.5140(17) 0.9195(7) 0.5580(5)
C2_4 C 0.511(2) 0.9662(7) 0.6124(5)
C6_4 C 0.402(3) 0.9774(12) 0.7084(7)
C7_4 C 0.410(2) 0.9461(9) 0.6603(6)
C9_4 C 0.0346(17) 0.9615(13) 0.7257(6)
H6_4 H 0.0331 0.9329 0.6898
H7_4 H 0.9259 0.9893 0.9383
H8_4 H 0.8467 0.9780 0.8754
O1_4 O 0.6651(10) 0.8879(5) 0.5466(3)
O2_4 O 0.3592(10) 0.9156(5) 0.5302(3)
O5_4 O 0.5145(10) 0.6627(4) 0.4315(3)
H13_4 H 0.4169 0.6369 0.4277
H14_4 H 0.6018 0.6327 0.4421
F2_4 F 0.3122(14) 0.8797(7) 0.6490(3)
F3_4 F 0.6447(15) 0.9801(5) 0.8180(4)
S2_4 S 0.2445(8) 0.9417(4) 0.7623(2)
H4_4 H 0.9280 0.9455 0.7490
loop_
_geom_bond_atom_site_label_1
_geom_bond_atom_site_label_2
_geom_bond_site_symmetry_1
_geom_bond_site_symmetry_2
C1 C2 1_555 1_555
C2 C3 1_555 1_555
C3 C4 1_555 1_555
C4 C5 1_555 1_555
C8 H1 1_555 1_555
H2 C8 1_555 1_555
H3 C8 1_555 1_555
C12 C13 1_555 1_555
C17 H7 1_555 1_555
H8 C17 1_555 1_555
H9 C17 1_555 1_555
O1 C1 1_555 1_555
H14 O5 1_555 1_555
F1 C4 1_555 1_555
F3 C13 1_555 1_555
S1 C3 1_555 1_555
S3 C12 1_555 1_555
Pb1 O1 1_555 1_555
O6 Pb1 1_555 1_555
O9 Pb1 1_555 1_555
Pb3 O3 1_555 1_555
C8 S1 1_555 1_555
C17 S3 1_555 1_555
O5 Pb1 1_555 1_555
C6 C7 1_555 1_555
C9 H4 1_555 1_555
H5 C9 1_555 1_555
H6 C9 1_555 1_555
C10 C11 1_555 1_555
C15 C14 1_555 1_555
C16 C11 1_555 1_555
C18 H10 1_555 1_555
H11 C18 1_555 1_555
O4 C10 1_555 1_555
F2 C7 1_555 1_555
F4 C16 1_555 1_555
S2 C6 1_555 1_555
S4 C15 1_555 1_555
Pb3 O4 1_555 1_555
C9 S2 1_555 1_555
C15 C16 1_555 1_555
C18 S4 1_555 1_555
O5_2 H13_2 1_555 1_555
H14_2 O5_2 1_555 1_555
O5_2 Pb3 1_555 1_555
C1_2 C2_2 1_555 1_555
C2_2 C3_2 1_555 1_555
C3_2 C4_2 1_555 1_555
C4_2 C5_2 1_555 1_555
C5_2 C6_2 1_555 1_555
C6_2 C7_2 1_555 1_555
C7_2 C2_2 1_555 1_555
C8_2 H1_2 1_555 1_555
H2_2 C8_2 1_555 1_555
H3_2 C8_2 1_555 1_555
H5_2 C9_2 1_555 1_555
H6_2 C9_2 1_555 1_555
C10_2 C11_2 1_555 1_555
C11_2 C12_2 1_555 1_555
C12_2 C13_2 1_555 1_555
C13_2 C14_2 1_555 1_555
C14_2 C5_2 1_555 1_555
C15_2 C14_2 1_555 1_555
C16_2 C11_2 1_555 1_555
C17_2 H7_2 1_555 1_555
H8_2 C17_2 1_555 1_555
H9_2 C17_2 1_555 1_555
C18_2 H10_2 1_555 1_555
H11_2 C18_2 1_555 1_555
H12_2 C18_2 1_555 1_555
O1_2 C1_2 1_555 1_555
O2_2 C1_2 1_555 1_555
O6 C10_2 1_555 1_555
O8 C10_2 1_555 1_555
F1_2 C4_2 1_555 1_555
F2_2 C7_2 1_555 1_555
F3_2 C13_2 1_555 1_555
F4_2 C16_2 1_555 1_555
S1_2 C3_2 1_555 1_555
S2_2 C6_2 1_555 1_555
S3_2 C12_2 1_555 1_555
S4_2 C15_2 1_555 1_555
Pb4_2 O6 1_555 1_555
C8_2 S1_2 1_555 1_555
C9_2 S2_2 1_555 1_555
C15_2 C16_2 1_555 1_555
C17_2 S3_2 1_555 1_555
C18_2 S4_2 1_555 1_555
O8 Pb4_2 1_555 1_555
C6_3 C7_3 1_555 1_555
C9_3 H4_3 1_555 1_555
H6_3 C9_3 1_555 1_555
F2_3 C7_3 1_555 1_555
S2_3 C6_3 1_555 1_555
C9_3 S2_3 1_555 1_555
C10_3 C11_3 1_555 1_555
C15_3 C14_3 1_555 1_555
C16_3 C11_3 1_555 1_555
C18_3 H10_3 1_555 1_555
H11_3 C18_3 1_555 1_555
O9 C10_3 1_555 1_555
F4_3 C16_3 1_555 1_555
S4_3 C15_3 1_555 1_555
Pb4_2 O9 1_555 1_555
C15_3 C16_3 1_555 1_555
C18_3 S4_3 1_555 1_555
C1_3 C2_3 1_555 1_555
O1_3 C1_3 1_555 1_555
H14_3 O5_3 1_555 1_555
O7_2 Pb4 1_555 1_555
O5_3 Pb4 1_555 1_555
C3_3 C4_3 1_555 1_555
C4_3 C5_3 1_555 1_555
C8_3 H1_3 1_555 1_555
H2_3 C8_3 1_555 1_555
H3_3 C8_3 1_555 1_555
C12_3 C13_3 1_555 1_555
H9_3 C17_3 1_555 1_555
F1_3 C4_3 1_555 1_555
S1_3 C3_3 1_555 1_555
S3_3 C12_3 1_555 1_555
Pb4_2 O7 1_555 1_555
C8_3 S1_3 1_555 1_555
C17_3 S3_3 1_555 1_555
C3_4 C4_4 1_555 1_555
C4_4 C5_4 1_555 1_555
C8_4 H1_4 1_555 1_555
H2_4 C8_4 1_555 1_555
H3_4 C8_4 1_555 1_555
C10_4 C11_4 1_555 1_555
C11_4 C12_4 1_555 1_555
C12_4 C13_4 1_555 1_555
C13_4 C14_4 1_555 1_555
C14_4 C5_4 1_555 1_555
C15_4 C14_4 1_555 1_555
C16_4 C11_4 1_555 1_555
H9_4 C17_4 1_555 1_555
C18_4 H10_4 1_555 1_555
H11_4 C18_4 1_555 1_555
H12_4 C18_4 1_555 1_555
O7_2 C10_4 1_555 1_555
O9_2 C10_4 1_555 1_555
F1_4 C4_4 1_555 1_555
F4_4 C16_4 1_555 1_555
S1_4 C3_4 1_555 1_555
S3_4 C12_4 1_555 1_555
S4_4 C15_4 1_555 1_555
C8_4 S1_4 1_555 1_555
C15_4 C16_4 1_555 1_555
C17_4 S3_4 1_555 1_555
C18_4 S4_4 1_555 1_555
C1_4 C2_4 1_555 1_555
C6_4 C7_4 1_555 1_555
C7_4 C2_4 1_555 1_555
H6_4 C9_4 1_555 1_555
O1_4 C1_4 1_555 1_555
O2_4 C1_4 1_555 1_555
O5_4 H13_4 1_555 1_555
H14_4 O5_4 1_555 1_555
F2_4 C7_4 1_555 1_555
S2_4 C6_4 1_555 1_555
Pb4_2 O1_4 1_555 1_555
C9_4 S2_4 1_555 1_555
O2_4 Pb4_2 1_555 1_555
O5_4 Pb4_2 1_555 1_555

#END
