
###############################################################################
#
# This file contains modified crystal structure data generated from the
# MOF subset of the Cambridge Structural Database (CSD) v543 
# hosted by the Cambridge Crystallographic Data Centre (CCDC).
#
# This work is licensed under the Creative Commons
# Attribution-NonCommercial-ShareAlike 4.0 International License.
# To view a copy of this license, visit
# http://creativecommons.org/licenses/by-nc-sa/4.0/
# or send a letter to
# Creative Commons, PO Box 1866, Mountain View, CA 94042, USA.
#
# CIF created using the CSD Python API on 29 September 2022
# The structure has been converted into the P1 space group
# The structure has a 3D framework
# The original CSD entry AJEKIL is in the orthorhombic crystal system
# The original CSD entry AJEKIL is in a Sohncke space group
# The framework has been calculated to contain at least 10.0% void space
# The void calculation uses a probe of radius 1.32A, grid spacing 0.4
#
###############################################################################

data_AJEKIL
_chemical_formula_moiety         '(C104 H104 N16 Ni4 O32)n'
_symmetry_cell_setting           triclinic
_symmetry_space_group_name_H-M   'P 1'
_symmetry_Int_Tables_number      1
_space_group_name_Hall           'P 1'
loop_
_symmetry_equiv_pos_site_id
_symmetry_equiv_pos_as_xyz
1 x,y,z
_cell_length_a                   15.8808(17)
_cell_length_b                   18.618(2)
_cell_length_c                   9.5210(10)
_cell_angle_alpha                90
_cell_angle_beta                 90
_cell_angle_gamma                90
_cell_volume                     2815.06
loop_
_atom_site_label
_atom_site_type_symbol
_atom_site_fract_x
_atom_site_fract_y
_atom_site_fract_z
Ni2 Ni 0.06432(3) 0.26533(2) 0.04803(5)
O7 O 0.65085(16) 0.31243(13) 0.0221(3)
O8 O 0.64706(16) 0.15598(13) 0.0179(3)
H4 H 0.623(2) 0.1380(19) 0.092(3)
H14 H 0.3983 0.1600 0.0408
O9 O 0.51230(13) 0.23498(13) 0.1513(2)
O1 O 0.12380(13) 0.26196(14) 0.2424(2)
O2 O 0.25280(15) 0.22971(17) 0.1727(3)
O4 O 0.55050(16) 0.12714(13) 0.2362(3)
H1 H 0.1928(18) 0.1981(18) 0.030(4)
H2 H 0.131(2) 0.1478(13) 0.004(4)
H3 H 0.152(2) 0.3753(16) 0.045(3)
C2 C 0.2008(2) 0.24643(17) 0.2637(4)
C3 C 0.2283(2) 0.24576(17) 0.4171(3)
C4 C 0.1674(2) 0.24400(18) 0.5218(3)
H5 H 0.1096 0.2464 0.4967
C5 C 0.1894(2) 0.2388(2) 0.6616(4)
H6 H 0.1469 0.2365 0.7316
C6 C 0.2735(2) 0.2370(2) 0.6998(4)
H7 H 0.2887 0.2342 0.7962
C7 C 0.3353(2) 0.23938(19) 0.5976(3)
H8 H 0.3929 0.2392 0.6246
C8 C 0.31423(19) 0.24205(17) 0.4555(3)
C9 C 0.38287(19) 0.2384(2) 0.3512(3)
H9 H 0.3822 0.2721 0.2762
C10 C 0.4450(2) 0.19146(17) 0.3553(4)
H10 H 0.4500 0.1612 0.4352
C11 C 0.5072(2) 0.18408(18) 0.2403(4)
H11 H 0.0381 0.3639 0.2966
H22 H 0.0477 0.1459 0.2653
O3 O 0.01230(13) 0.26502(13) 0.8487(2)
O4_2 O 0.05050(16) 0.37286(13) 0.7638(3)
C11_2 C 0.0072(2) 0.31592(18) 0.7597(4)
Ni1 Ni 0.56432(3) 0.23467(2) 0.95197(5)
O1_2 O 0.62380(13) 0.23804(14) 0.7576(2)
O2_2 O 0.75280(15) 0.27029(17) 0.8273(3)
O6 O 0.18061(19) 0.04332(15) 0.1309(3)
H1_2 H 0.6928(18) 0.3019(18) 0.970(4)
H2_2 H 0.631(2) 0.3522(13) 0.996(4)
H3_2 H 0.652(2) 0.1247(16) 0.955(3)
N1 N 0.47784(19) 0.15532(16) 0.8801(3)
C2_2 C 0.7008(2) 0.25357(17) 0.7363(4)
C3_2 C 0.7283(2) 0.25424(17) 0.5829(3)
C4_2 C 0.6674(2) 0.25600(18) 0.4782(3)
H5_2 H 0.6096 0.2536 0.5033
C5_2 C 0.6894(2) 0.2612(2) 0.3384(4)
H6_2 H 0.6469 0.2635 0.2684
C6_2 C 0.7735(2) 0.2630(2) 0.3002(4)
H7_2 H 0.7887 0.2658 0.2038
C7_2 C 0.8353(2) 0.26062(19) 0.4024(3)
H8_2 H 0.8929 0.2608 0.3754
C8_2 C 0.81423(19) 0.25795(17) 0.5445(3)
C9_2 C 0.88287(19) 0.2616(2) 0.6488(3)
H9_2 H 0.8822 0.2279 0.7238
C10_2 C 0.9450(2) 0.30854(17) 0.6447(4)
H10_2 H 0.9500 0.3388 0.5648
C12 C 0.4899(2) 0.12306(19) 0.7569(4)
H11_2 H 0.5381 0.1361 0.7034
C13 C 0.4360(2) 0.07144(19) 0.7023(4)
H12 H 0.4469 0.0500 0.6136
C14 C 0.3661(2) 0.05197(18) 0.7798(4)
C15 C 0.3527(2) 0.08448(19) 0.9082(4)
H13 H 0.3057 0.0714 0.9644
C16 C 0.4089(2) 0.13658(19) 0.9539(5)
C18 C 0.2593(2) 0.06134(18) 0.5269(4)
H17 H 0.2956 0.0999 0.5650
H18 H 0.2000 0.0775 0.5339
C19 C 0.2813(3) 0.04831(19) 0.3740(4)
H19 H 0.2674 0.0914 0.3176
H20 H 0.3425 0.0391 0.3648
N5 N 0.48030(19) 0.31597(15) 0.8939(3)
O5 O 0.30515(18) 0.93763(14) 0.8104(3)
N2 N 0.2705(2) 0.99614(16) 0.6102(3)
N3 N 0.2338(2) 0.98635(15) 0.3220(3)
N4 N 0.01970(19) 0.81597(15) 0.1061(3)
C1 C 0.3095(2) 0.99122(19) 0.7343(4)
C17 C 0.2225(3) 0.93498(18) 0.5573(5)
H15 H 0.1614 0.9454 0.5634
H16 H 0.2344 0.8919 0.6149
C20 C 0.1851(2) 0.9902(2) 0.2088(4)
C21 C 0.1293(2) 0.9266(2) 0.1769(4)
C22 C 0.0562(3) 0.9157(2) 0.2523(4)
H21 H 0.0428 0.9458 0.3298
C23 C 0.0029(3) 0.8607(2) 0.2138(4)
C24 C 0.0920(2) 0.8257(2) 0.0374(5)
C25 C 0.1478(2) 0.8803(2) 0.0675(4)
H24 H 0.1980 0.8861 0.0142
C26 C 0.2469(3) 0.92096(19) 0.4055(4)
H25 H 0.3067 0.9064 0.4006
H26 H 0.2122 0.8814 0.3671
O7_2 O 0.15085(16) 0.18757(13) 0.9779(3)
O8_2 O 0.14706(16) 0.34402(13) 0.9821(3)
H4_2 H 0.123(2) 0.3620(19) 0.908(3)
O5_2 O 0.19485(18) 0.43763(14) 0.1896(3)
O6_2 O 0.31939(19) 0.54332(15) 0.8691(3)
N1_2 N 0.02216(19) 0.65532(16) 0.1199(3)
N2_2 N 0.2295(2) 0.49614(16) 0.3898(3)
N3_2 N 0.2662(2) 0.48635(15) 0.6780(3)
C1_2 C 0.1905(2) 0.49122(19) 0.2657(4)
C12_2 C 0.0101(2) 0.62306(19) 0.2431(4)
C13_2 C 0.0640(2) 0.57144(19) 0.2977(4)
H12_2 H 0.0531 0.5500 0.3864
C14_2 C 0.1339(2) 0.55197(18) 0.2202(4)
C15_2 C 0.1473(2) 0.58448(19) 0.0918(4)
H13_2 H 0.1943 0.5714 0.0356
C16_2 C 0.0911(2) 0.63658(19) 0.0461(5)
C17_2 C 0.2775(3) 0.43498(18) 0.4427(5)
H15_2 H 0.3386 0.4454 0.4366
H16_2 H 0.2656 0.3919 0.3851
C18_2 C 0.2407(2) 0.56134(18) 0.4731(4)
H17_2 H 0.2044 0.5999 0.4350
H18_2 H 0.3000 0.5775 0.4661
C19_2 C 0.2187(3) 0.54831(19) 0.6260(4)
H19_2 H 0.2326 0.5914 0.6824
H20_2 H 0.1575 0.5391 0.6352
C20_2 C 0.3149(2) 0.4902(2) 0.7912(4)
C21_2 C 0.3707(2) 0.4266(2) 0.8231(4)
C22_2 C 0.4438(3) 0.4157(2) 0.7477(4)
H21_2 H 0.4572 0.4458 0.6702
C23_2 C 0.4971(3) 0.3607(2) 0.7862(4)
H22_2 H 0.5477 0.3541 0.7347
C24_2 C 0.4080(2) 0.3257(2) 0.9626(5)
C25_2 C 0.3522(2) 0.3803(2) 0.9325(4)
H24_2 H 0.3020 0.3861 0.9858
C26_2 C 0.2531(3) 0.42096(19) 0.5945(4)
H25_2 H 0.1933 0.4064 0.5994
H26_2 H 0.2878 0.3814 0.6329
H23 H 0.1057 0.7933 0.9638
H22_3 H 0.9523 0.8541 0.2653
Ni3 Ni 0.93568(3) 0.73467(2) 0.04803(5)
O1_3 O 0.87620(13) 0.73804(14) 0.2424(2)
O2_3 O 0.74720(15) 0.77029(17) 0.1727(3)
O3_2 O 0.48770(13) 0.76502(13) 0.1513(2)
O4_3 O 0.44950(16) 0.87286(13) 0.2362(3)
H1_3 H 0.8072(18) 0.8019(18) 0.030(4)
H2_3 H 0.869(2) 0.8522(13) 0.004(4)
H3_3 H 0.848(2) 0.6247(16) 0.045(3)
C2_3 C 0.7992(2) 0.75357(17) 0.2637(4)
C3_3 C 0.7717(2) 0.75424(17) 0.4171(3)
C4_3 C 0.8326(2) 0.75600(18) 0.5218(3)
H5_3 H 0.8904 0.7536 0.4967
C5_3 C 0.8106(2) 0.7612(2) 0.6616(4)
H6_3 H 0.8531 0.7635 0.7316
C6_3 C 0.7265(2) 0.7630(2) 0.6998(4)
H7_3 H 0.7113 0.7658 0.7962
C7_3 C 0.6647(2) 0.76062(19) 0.5976(3)
H8_3 H 0.6071 0.7608 0.6246
C8_3 C 0.68577(19) 0.75795(17) 0.4555(3)
C9_3 C 0.61713(19) 0.7616(2) 0.3512(3)
H9_3 H 0.6178 0.7279 0.2762
C10_3 C 0.5550(2) 0.80854(17) 0.3553(4)
H10_3 H 0.5500 0.8388 0.4352
C11_3 C 0.4928(2) 0.81592(18) 0.2403(4)
H11_3 H 0.9619 0.6361 0.2966
O7_3 O 0.34915(16) 0.68757(13) 0.0221(3)
O8_3 O 0.35294(16) 0.84402(13) 0.0179(3)
H4_3 H 0.377(2) 0.8620(19) 0.092(3)
H14_2 H 0.6017 0.8400 0.0408
H23_2 H 0.6057 0.7067 0.0362
O5_3 O 0.80515(18) 0.56237(14) 0.1896(3)
O6_3 O 0.68061(19) 0.45668(15) 0.8691(3)
N1_3 N 0.97784(19) 0.34468(16) 0.1199(3)
N2_3 N 0.7705(2) 0.50386(16) 0.3898(3)
N3_3 N 0.7338(2) 0.51365(15) 0.6780(3)
N4_2 N 0.51970(19) 0.68403(15) 0.8939(3)
C1_3 C 0.8095(2) 0.50878(19) 0.2657(4)
C12_3 C 0.9899(2) 0.37694(19) 0.2431(4)
C13_3 C 0.9360(2) 0.42856(19) 0.2977(4)
H12_3 H 0.9469 0.4500 0.3864
C14_3 C 0.8661(2) 0.44803(18) 0.2202(4)
C15_3 C 0.8527(2) 0.41552(19) 0.0918(4)
H13_3 H 0.8057 0.4286 0.0356
C16_3 C 0.9089(2) 0.36342(19) 0.0461(5)
C17_3 C 0.7225(3) 0.56502(18) 0.4427(5)
H15_3 H 0.6614 0.5546 0.4366
H16_3 H 0.7344 0.6081 0.3851
C18_3 C 0.7593(2) 0.43866(18) 0.4731(4)
H17_3 H 0.7956 0.4001 0.4350
H18_3 H 0.7000 0.4225 0.4661
C19_3 C 0.7813(3) 0.45169(19) 0.6260(4)
H19_3 H 0.7674 0.4086 0.6824
H20_3 H 0.8425 0.4609 0.6352
C20_3 C 0.6851(2) 0.5098(2) 0.7912(4)
C21_3 C 0.6293(2) 0.5734(2) 0.8231(4)
C22_3 C 0.5562(3) 0.5843(2) 0.7477(4)
H21_3 H 0.5428 0.5542 0.6702
C23_3 C 0.5029(3) 0.6393(2) 0.7862(4)
H22_4 H 0.4523 0.6459 0.7347
C24_3 C 0.5920(2) 0.6743(2) 0.9626(5)
C25_3 C 0.6478(2) 0.6197(2) 0.9325(4)
H24_3 H 0.6980 0.6139 0.9858
C26_3 C 0.7469(3) 0.57904(19) 0.5945(4)
H25_3 H 0.8067 0.5936 0.5994
H26_3 H 0.7122 0.6186 0.6329
Ni3_2 Ni 0.43568(3) 0.76533(2) 0.95197(5)
N5_2 N 0.98030(19) 0.18403(15) 0.1061(3)
O7_4 O 0.84915(16) 0.81243(13) 0.9779(3)
O8_4 O 0.85294(16) 0.65598(13) 0.9821(3)
H4_4 H 0.877(2) 0.6380(19) 0.908(3)
O9_2 O 0.98770(13) 0.73498(13) 0.8487(2)
O5_4 O 0.69485(18) 0.06237(14) 0.8104(3)
N2_4 N 0.7295(2) 0.00386(16) 0.6102(3)
N3_4 N 0.7662(2) 0.01365(15) 0.3220(3)
C1_4 C 0.6905(2) 0.00878(19) 0.7343(4)
C17_4 C 0.7775(3) 0.06502(18) 0.5573(5)
H15_4 H 0.8386 0.0546 0.5634
H16_4 H 0.7656 0.1081 0.6149
C20_4 C 0.8149(2) 0.0098(2) 0.2088(4)
C21_4 C 0.8707(2) 0.0734(2) 0.1769(4)
C22_4 C 0.9438(3) 0.0843(2) 0.2523(4)
H21_4 H 0.9572 0.0542 0.3298
C23_4 C 0.9971(3) 0.1393(2) 0.2138(4)
C24_4 C 0.9080(2) 0.1743(2) 0.0374(5)
C25_4 C 0.8522(2) 0.1197(2) 0.0675(4)
H24_4 H 0.8020 0.1139 0.0142
C26_4 C 0.7531(3) 0.07904(19) 0.4055(4)
H25_4 H 0.6933 0.0936 0.4006
H26_4 H 0.7878 0.1186 0.3671
O1_4 O 0.37620(13) 0.76196(14) 0.7576(2)
O2_4 O 0.24720(15) 0.72971(17) 0.8273(3)
O6_4 O 0.81939(19) 0.95668(15) 0.1309(3)
H1_4 H 0.3072(18) 0.6981(18) 0.970(4)
H2_4 H 0.369(2) 0.6478(13) 0.996(4)
H3_4 H 0.348(2) 0.8753(16) 0.955(3)
N1_4 N 0.52216(19) 0.84468(16) 0.8801(3)
C2_4 C 0.2992(2) 0.74643(17) 0.7363(4)
C3_4 C 0.2717(2) 0.74576(17) 0.5829(3)
C4_4 C 0.3326(2) 0.74400(18) 0.4782(3)
H5_4 H 0.3904 0.7464 0.5033
C5_4 C 0.3106(2) 0.7388(2) 0.3384(4)
H6_4 H 0.3531 0.7365 0.2684
C6_4 C 0.2265(2) 0.7370(2) 0.3002(4)
H7_4 H 0.2113 0.7342 0.2038
C7_4 C 0.1647(2) 0.73938(19) 0.4024(3)
H8_4 H 0.1071 0.7392 0.3754
C8_4 C 0.18577(19) 0.74205(17) 0.5445(3)
C9_4 C 0.11713(19) 0.7384(2) 0.6488(3)
H9_4 H 0.1178 0.7721 0.7238
C10_4 C 0.0550(2) 0.69146(17) 0.6447(4)
H10_4 H 0.0500 0.6612 0.5648
C12_4 C 0.5101(2) 0.87694(19) 0.7569(4)
H11_4 H 0.4619 0.8639 0.7034
C13_4 C 0.5640(2) 0.92856(19) 0.7023(4)
H12_4 H 0.5531 0.9500 0.6136
C14_4 C 0.6339(2) 0.94803(18) 0.7798(4)
C15_4 C 0.6473(2) 0.91552(19) 0.9082(4)
H13_4 H 0.6943 0.9286 0.9644
C16_4 C 0.5911(2) 0.86342(19) 0.9539(5)
C18_4 C 0.7407(2) 0.93866(18) 0.5269(4)
H17_4 H 0.7044 0.9001 0.5650
H18_4 H 0.8000 0.9225 0.5339
C19_4 C 0.7187(3) 0.95169(19) 0.3740(4)
H19_4 H 0.7326 0.9086 0.3176
H20_4 H 0.6575 0.9609 0.3648
O4_4 O 0.94950(16) 0.62714(13) 0.7638(3)
C11_4 C 0.9928(2) 0.68408(18) 0.7597(4)
H14_3 H 0.8983 0.3400 0.9592
H23_3 H 0.3943 0.2933 0.0362
H14_4 H 0.1017 0.6600 0.9592
H23_4 H 0.8943 0.2067 0.9638
loop_
_geom_bond_atom_site_label_1
_geom_bond_atom_site_label_2
_geom_bond_site_symmetry_1
_geom_bond_site_symmetry_2
H4 O8 1_555 1_555
Ni2 O1 1_555 1_555
O1 C2 1_555 1_555
O2 C2 1_555 1_555
O9 C11 1_555 1_555
O4 C11 1_555 1_555
C2 C3 1_555 1_555
C3 C4 1_555 1_555
C4 H5 1_555 1_555
C5 C4 1_555 1_555
H6 C5 1_555 1_555
C6 C5 1_555 1_555
H7 C6 1_555 1_555
C7 C6 1_555 1_555
H8 C7 1_555 1_555
C8 C3 1_555 1_555
C9 C8 1_555 1_555
H9 C9 1_555 1_555
C10 C9 1_555 1_555
H10 C10 1_555 1_555
C11 C10 1_555 1_555
C7 C8 1_555 1_555
O3 C11_2 1_555 1_555
O4_2 C11_2 1_555 1_555
Ni1 O1_2 1_555 1_555
O1_2 C2_2 1_555 1_555
O2_2 C2_2 1_555 1_555
N1 Ni1 1_555 1_555
C2_2 C3_2 1_555 1_555
C3_2 C4_2 1_555 1_555
C4_2 H5_2 1_555 1_555
C5_2 C4_2 1_555 1_555
H6_2 C5_2 1_555 1_555
C6_2 C5_2 1_555 1_555
H7_2 C6_2 1_555 1_555
C7_2 C6_2 1_555 1_555
H8_2 C7_2 1_555 1_555
C8_2 C3_2 1_555 1_555
C9_2 C8_2 1_555 1_555
H9_2 C9_2 1_555 1_555
C10_2 C9_2 1_555 1_555
H10_2 C10_2 1_555 1_555
C12 N1 1_555 1_555
H11_2 C12 1_555 1_555
C13 C12 1_555 1_555
H12 C13 1_555 1_555
C14 C13 1_555 1_555
C15 C14 1_555 1_555
H13 C15 1_555 1_555
C16 N1 1_555 1_555
H17 C18 1_555 1_555
H18 C18 1_555 1_555
C19 C18 1_555 1_555
H19 C19 1_555 1_555
H20 C19 1_555 1_555
N5 Ni1 1_555 1_555
C7_2 C8_2 1_555 1_555
C15 C16 1_555 1_555
O5 C1 1_555 1_555
N2 C1 1_555 1_555
N4 C23 1_555 1_555
C17 N2 1_555 1_555
H15 C17 1_555 1_555
H16 C17 1_555 1_555
C20 N3 1_555 1_555
C21 C20 1_555 1_555
C22 C21 1_555 1_555
H21 C22 1_555 1_555
C23 C22 1_555 1_555
C24 N4 1_555 1_555
C25 C21 1_555 1_555
H24 C25 1_555 1_555
C26 N3 1_555 1_555
H25 C26 1_555 1_555
H26 C26 1_555 1_555
C17 C26 1_555 1_555
C24 C25 1_555 1_555
H4_2 O8_2 1_555 1_555
O5_2 C1_2 1_555 1_555
O6_2 C20_2 1_555 1_555
N2_2 C1_2 1_555 1_555
N3_2 C19_2 1_555 1_555
N5 C23_2 1_555 1_555
C1_2 C14_2 1_555 1_555
C12_2 N1_2 1_555 1_555
C13_2 C12_2 1_555 1_555
H12_2 C13_2 1_555 1_555
C14_2 C13_2 1_555 1_555
C15_2 C14_2 1_555 1_555
H13_2 C15_2 1_555 1_555
C16_2 N1_2 1_555 1_555
C17_2 N2_2 1_555 1_555
H15_2 C17_2 1_555 1_555
H16_2 C17_2 1_555 1_555
C18_2 N2_2 1_555 1_555
H17_2 C18_2 1_555 1_555
H18_2 C18_2 1_555 1_555
C19_2 C18_2 1_555 1_555
H19_2 C19_2 1_555 1_555
H20_2 C19_2 1_555 1_555
C20_2 N3_2 1_555 1_555
C21_2 C20_2 1_555 1_555
C22_2 C21_2 1_555 1_555
H21_2 C22_2 1_555 1_555
C23_2 C22_2 1_555 1_555
H22_2 C23_2 1_555 1_555
C24_2 N5 1_555 1_555
C25_2 C21_2 1_555 1_555
H24_2 C25_2 1_555 1_555
C26_2 N3_2 1_555 1_555
H25_2 C26_2 1_555 1_555
H26_2 C26_2 1_555 1_555
C15_2 C16_2 1_555 1_555
C17_2 C26_2 1_555 1_555
C24_2 C25_2 1_555 1_555
Ni3 O1_3 1_555 1_555
O1_3 C2_3 1_555 1_555
O2_3 C2_3 1_555 1_555
O3_2 C11_3 1_555 1_555
O4_3 C11_3 1_555 1_555
C2_3 C3_3 1_555 1_555
C3_3 C4_3 1_555 1_555
C4_3 H5_3 1_555 1_555
C5_3 C4_3 1_555 1_555
H6_3 C5_3 1_555 1_555
C6_3 C5_3 1_555 1_555
H7_3 C6_3 1_555 1_555
C7_3 C6_3 1_555 1_555
H8_3 C7_3 1_555 1_555
C8_3 C3_3 1_555 1_555
C9_3 C8_3 1_555 1_555
H9_3 C9_3 1_555 1_555
C10_3 C9_3 1_555 1_555
H10_3 C10_3 1_555 1_555
C11_3 C10_3 1_555 1_555
C7_3 C8_3 1_555 1_555
H4_3 O8_3 1_555 1_555
O5_3 C1_3 1_555 1_555
O6_3 C20_3 1_555 1_555
N2_3 C1_3 1_555 1_555
N3_3 C19_3 1_555 1_555
N4_2 C23_3 1_555 1_555
C1_3 C14_3 1_555 1_555
C12_3 N1_3 1_555 1_555
C13_3 C12_3 1_555 1_555
H12_3 C13_3 1_555 1_555
C14_3 C13_3 1_555 1_555
C15_3 C14_3 1_555 1_555
H13_3 C15_3 1_555 1_555
C16_3 N1_3 1_555 1_555
C17_3 N2_3 1_555 1_555
H15_3 C17_3 1_555 1_555
H16_3 C17_3 1_555 1_555
C18_3 N2_3 1_555 1_555
H17_3 C18_3 1_555 1_555
H18_3 C18_3 1_555 1_555
C19_3 C18_3 1_555 1_555
H19_3 C19_3 1_555 1_555
H20_3 C19_3 1_555 1_555
C20_3 N3_3 1_555 1_555
C21_3 C20_3 1_555 1_555
C22_3 C21_3 1_555 1_555
H21_3 C22_3 1_555 1_555
C23_3 C22_3 1_555 1_555
H22_4 C23_3 1_555 1_555
C24_3 N4_2 1_555 1_555
C25_3 C21_3 1_555 1_555
H24_3 C25_3 1_555 1_555
C26_3 N3_3 1_555 1_555
H25_3 C26_3 1_555 1_555
H26_3 C26_3 1_555 1_555
Ni3_2 N4_2 1_555 1_555
C15_3 C16_3 1_555 1_555
C17_3 C26_3 1_555 1_555
C24_3 C25_3 1_555 1_555
H4_4 O8_4 1_555 1_555
O5_4 C1_4 1_555 1_555
N2_4 C1_4 1_555 1_555
N5_2 C23_4 1_555 1_555
C17_4 N2_4 1_555 1_555
H15_4 C17_4 1_555 1_555
H16_4 C17_4 1_555 1_555
C20_4 N3_4 1_555 1_555
C21_4 C20_4 1_555 1_555
C22_4 C21_4 1_555 1_555
H21_4 C22_4 1_555 1_555
C23_4 C22_4 1_555 1_555
C24_4 N5_2 1_555 1_555
C25_4 C21_4 1_555 1_555
H24_4 C25_4 1_555 1_555
C26_4 N3_4 1_555 1_555
H25_4 C26_4 1_555 1_555
H26_4 C26_4 1_555 1_555
C17_4 C26_4 1_555 1_555
C24_4 C25_4 1_555 1_555
Ni3_2 O1_4 1_555 1_555
O1_4 C2_4 1_555 1_555
O2_4 C2_4 1_555 1_555
N1_4 Ni3_2 1_555 1_555
C2_4 C3_4 1_555 1_555
C3_4 C4_4 1_555 1_555
C4_4 H5_4 1_555 1_555
C5_4 C4_4 1_555 1_555
H6_4 C5_4 1_555 1_555
C6_4 C5_4 1_555 1_555
H7_4 C6_4 1_555 1_555
C7_4 C6_4 1_555 1_555
H8_4 C7_4 1_555 1_555
C8_4 C3_4 1_555 1_555
C9_4 C8_4 1_555 1_555
H9_4 C9_4 1_555 1_555
C10_4 C9_4 1_555 1_555
H10_4 C10_4 1_555 1_555
C12_4 N1_4 1_555 1_555
H11_4 C12_4 1_555 1_555
C13_4 C12_4 1_555 1_555
H12_4 C13_4 1_555 1_555
C14_4 C13_4 1_555 1_555
C15_4 C14_4 1_555 1_555
H13_4 C15_4 1_555 1_555
C16_4 N1_4 1_555 1_555
H17_4 C18_4 1_555 1_555
H18_4 C18_4 1_555 1_555
C19_4 C18_4 1_555 1_555
H19_4 C19_4 1_555 1_555
H20_4 C19_4 1_555 1_555
C7_4 C8_4 1_555 1_555
C15_4 C16_4 1_555 1_555
O9_2 C11_4 1_555 1_555
O4_4 C11_4 1_555 1_555

#END
