
###############################################################################
#
# This file contains modified crystal structure data generated from the
# MOF subset of the Cambridge Structural Database (CSD) v543 
# hosted by the Cambridge Crystallographic Data Centre (CCDC).
#
# This work is licensed under the Creative Commons
# Attribution-NonCommercial-ShareAlike 4.0 International License.
# To view a copy of this license, visit
# http://creativecommons.org/licenses/by-nc-sa/4.0/
# or send a letter to
# Creative Commons, PO Box 1866, Mountain View, CA 94042, USA.
#
# CIF created using the CSD Python API on 29 September 2022
# The structure has been converted into the P1 space group
# The structure has a 3D framework
# The original CSD entry AJIDOP is in the triclinic crystal system
# The framework has been calculated to contain at least 10.0% void space
# The void calculation uses a probe of radius 1.32A, grid spacing 0.4
#
###############################################################################

data_AJIDOP
_chemical_formula_moiety         '(C132 H88 Cd6 N4 O28)n'
_symmetry_cell_setting           triclinic
_symmetry_space_group_name_H-M   'P 1'
_symmetry_Int_Tables_number      1
_space_group_name_Hall           'P 1'
loop_
_symmetry_equiv_pos_site_id
_symmetry_equiv_pos_as_xyz
1 x,y,z
_cell_length_a                   16.320(5)
_cell_length_b                   16.974(5)
_cell_length_c                   19.292(6)
_cell_angle_alpha                88.171(7)
_cell_angle_beta                 70.164(7)
_cell_angle_gamma                62.671(6)
_cell_volume                     4416.67
loop_
_atom_site_label
_atom_site_type_symbol
_atom_site_fract_x
_atom_site_fract_y
_atom_site_fract_z
N2 N 0.4914(7) 0.2622(7) 0.0229(5)
C2 C 0.0655(8) 0.4030(9) 0.3661(7)
H6 H 0.092058 0.442139 0.357803
C3 C 0.1018(9) 0.3280(10) 0.3150(6)
C4 C 0.0635(12) 0.2736(10) 0.3280(9)
H7 H 0.086179 0.225404 0.292292
C6 C 0.1892(11) 0.3081(11) 0.2438(7)
H9 H 0.213622 0.254929 0.213271
C7 C 0.2349(9) 0.3545(11) 0.2192(7)
H10 H 0.212243 0.409202 0.246864
C8 C 0.3205(8) 0.3242(9) 0.1501(7)
C9 C 0.3613(10) 0.3781(8) 0.1222(7)
H11 H 0.331901 0.436107 0.146572
C10 C 0.4430(9) 0.3493(8) 0.0602(7)
H12 H 0.467665 0.388452 0.041694
C11 C 0.4526(11) 0.2132(10) 0.0452(8)
H13 H 0.481582 0.156500 0.018453
C12 C 0.3632(9) 0.2417(9) 0.1119(8)
H14 H 0.336241 0.203506 0.127620
Cd9 Cd 0.64130(5) 0.20179(4) 0.92410(4)
Cd1 Cd 0.73510(4) 0.28748(4) 0.73816(3)
Cd2 Cd 0.82699(4) 0.37565(4) 0.55617(4)
O1 O 0.8082(5) 0.2602(5) 0.5049(4)
O2 O 0.7215(4) 0.3215(4) 0.6214(3)
O7 O 0.5566(5) 0.2314(4) 0.8479(4)
O8 O 0.5703(4) 0.3453(5) 0.7937(4)
O13 O 0.7074(6) 0.4308(5) 0.7517(4)
H1 H 0.649473 0.468672 0.758136
H2 H 0.744161 0.451282 0.727665
O14 O 0.7610(5) 0.1466(4) 0.7190(4)
H3 H 0.733515 0.116309 0.717595
H4 H 0.819694 0.111349 0.712744
N1 N 0.9490(6) 0.3575(6) 0.4485(4)
C1 C 0.9848(8) 0.4154(8) 0.4320(7)
H5 H 0.954845 0.467162 0.465906
C5 C 0.9893(10) 0.2891(9) 0.3953(8)
H8 H 0.965387 0.248091 0.404250
C13 C 0.7426(6) 0.2697(6) 0.5660(6)
C14 C 0.6867(6) 0.2175(6) 0.5726(5)
C15 C 0.5930(6) 0.2508(6) 0.6267(6)
H15 H 0.565224 0.304290 0.658011
C16 C 0.5420(7) 0.2048(6) 0.6337(6)
H16 H 0.481066 0.224206 0.672420
C17 C 0.5799(7) 0.1293(6) 0.5838(6)
C18 C 0.6706(6) 0.0978(6) 0.5284(6)
H17 H 0.697169 0.045758 0.495748
C19 C 0.7226(6) 0.1453(6) 0.5219(5)
H18 H 0.782496 0.127370 0.482367
C28 C 0.0594(7) 0.2149(7) 0.6417(6)
C29 C 0.0963(7) 0.1422(7) 0.6765(7)
H23 H 0.053521 0.123087 0.707697
C30 C 0.1967(7) 0.0963(7) 0.6663(7)
H24 H 0.220871 0.045526 0.688673
C31 C 0.2604(7) 0.1267(7) 0.6225(6)
C32 C 0.2235(7) 0.1998(7) 0.5880(6)
H25 H 0.265767 0.220058 0.557877
C33 C 0.1238(7) 0.2440(7) 0.5976(6)
H26 H 0.100005 0.293715 0.574004
C34 C 0.5211(6) 0.0789(6) 0.5951(6)
C38 C 0.3669(6) 0.0783(6) 0.6123(6)
C39 C 0.4192(6) 0.1242(6) 0.6062(6)
H29 H 0.386961 0.186268 0.609361
C40 C 0.5219(6) 0.3076(6) 0.8261(5)
C41 C 0.4113(6) 0.3562(6) 0.8415(5)
C42 C 0.3530(6) 0.3170(6) 0.8734(5)
H30 H 0.380938 0.259533 0.885599
C43 C 0.2523(7) 0.3634(6) 0.8872(6)
H31 H 0.212585 0.337603 0.910469
C44 C 0.2099(6) 0.4480(5) 0.8668(5)
C45 C 0.2698(6) 0.4861(7) 0.8359(6)
H32 H 0.242913 0.543668 0.823608
C46 C 0.3699(7) 0.4390(7) 0.8230(6)
H33 H 0.409849 0.465049 0.800993
C61 C 0.0992(6) 0.4979(6) 0.8822(5)
C62 C 0.0484(6) 0.4509(6) 0.8861(5)
H42 H 0.081781 0.388576 0.879049
C66 C 0.0495(7) 0.5904(6) 0.8912(6)
H44 H 0.084542 0.621692 0.888054
O15 O 0.7830(6) 0.5193(4) 0.6082(5)
O16 O 0.7115(5) 0.5073(4) 0.5337(4)
O17 O 0.9226(5) 0.3321(5) 0.6226(4)
O18 O 0.8994(4) 0.2290(4) 0.6871(4)
O19 O 0.6665(6) 0.3092(6) 0.9705(4)
O20 O 0.7501(5) 0.2556(4) 0.8541(4)
O21 O 0.7694(9) 0.0611(6) 0.8705(8)
O22 O 0.6562(8) 0.0678(6) 0.9594(8)
C20 C 0.7251(7) 0.5532(6) 0.5715(6)
C21 C 0.6695(7) 0.6538(6) 0.5808(6)
C22 C 0.5941(7) 0.6949(6) 0.5528(6)
H19 H 0.579260 0.659646 0.528410
C23 C 0.5409(7) 0.7871(6) 0.5604(6)
H20 H 0.485934 0.813861 0.546529
C24 C 0.5702(6) 0.8395(6) 0.5892(6)
C25 C 0.6415(7) 0.7982(6) 0.6179(7)
H21 H 0.657425 0.833025 0.641589
C26 C 0.6923(7) 0.7050(6) 0.6134(7)
H22 H 0.741950 0.678721 0.633075
C35 C 0.5675(7) 0.9853(6) 0.5874(6)
H27 H 0.635636 0.954197 0.575789
C36 C 0.5177(7) 0.9375(6) 0.5961(6)
C37 C 0.4157(7) 0.9867(6) 0.6071(6)
H28 H 0.380380 0.955508 0.611028
C54 C 0.7388(9) 0.0195(6) 0.9172(8)
C27 C 0.9509(6) 0.2626(6) 0.6518(5)
C47 C 0.7302(7) 0.3064(6) 0.9103(5)
C48 C 0.7881(7) 0.3539(7) 0.9046(6)
C49 C 0.8755(7) 0.3319(7) 0.8480(5)
H34 H 0.900216 0.286111 0.809491
C50 C 0.9269(8) 0.3756(7) 0.8471(6)
H35 H 0.988481 0.357279 0.809478
C51 C 0.8890(7) 0.4482(6) 0.9017(6)
C52 C 0.8004(7) 0.4714(7) 0.9589(6)
H36 H 0.775167 0.518798 0.996212
C53 C 0.7488(8) 0.4263(7) 0.9620(6)
C55 C 0.7921(8) 0.9261(6) 0.9170(7)
C56 C 0.7487(9) 0.8822(9) 0.9602(9)
H38 H 0.682967 0.914962 0.992009
C57 C 0.7985(8) 0.7877(6) 0.9597(7)
H39 H 0.766267 0.760565 0.992427
C58 C 0.8959(7) 0.7358(6) 0.9099(6)
C59 C 0.9373(9) 0.7808(7) 0.8607(8)
H40 H 0.999400 0.747677 0.823646
C60 C 0.8878(9) 0.8758(8) 0.8652(8)
H41 H 0.919349 0.904230 0.833550
C63 C 0.9470(7) 0.4966(6) 0.9008(6)
C64 C 0.8986(6) 0.5901(6) 0.9111(5)
H43 H 0.830536 0.620948 0.922539
C65 C 0.9492(6) 0.6378(6) 0.9049(6)
H37 H 0.688852 0.442483 0.000986
O5 O 0.0774(5) 0.6679(5) 0.3774(4)
O6 O 0.1006(4) 0.7710(4) 0.3129(4)
O9 O 0.3335(6) 0.6908(6) 0.0295(4)
O10 O 0.2499(5) 0.7444(4) 0.1459(4)
C27_2 C 0.0491(6) 0.7374(6) 0.3482(5)
C47_2 C 0.2698(7) 0.6936(6) 0.0897(5)
C48_2 C 0.2119(7) 0.6461(7) 0.0954(6)
C49_2 C 0.1245(7) 0.6681(7) 0.1520(5)
H34_2 H 0.099784 0.713889 0.190509
C50_2 C 0.0731(8) 0.6244(7) 0.1529(6)
H35_2 H 0.011519 0.642721 0.190522
C51_2 C 0.1110(7) 0.5518(6) 0.0983(6)
C52_2 C 0.1996(7) 0.5286(7) 0.0411(6)
H36_2 H 0.224833 0.481202 0.003788
C53_2 C 0.2512(8) 0.5737(7) 0.0380(6)
C55_2 C 0.2079(8) 0.0739(6) 0.0830(7)
C56_2 C 0.2513(9) 0.1178(9) 0.0398(9)
H38_2 H 0.317033 0.085038 0.007991
C57_2 C 0.2015(8) 0.2123(6) 0.0403(7)
H39_2 H 0.233733 0.239435 0.007573
C58_2 C 0.1041(7) 0.2642(6) 0.0901(6)
C59_2 C 0.0627(9) 0.2192(7) 0.1393(8)
H40_2 H 0.000600 0.252323 0.176354
C60_2 C 0.1122(9) 0.1242(8) 0.1348(8)
H41_2 H 0.080651 0.095770 0.166450
C63_2 C 0.0530(7) 0.5034(6) 0.0992(6)
C64_2 C 0.1014(6) 0.4099(6) 0.0889(5)
H43_2 H 0.169464 0.379052 0.077461
C65_2 C 0.0508(6) 0.3622(6) 0.0951(6)
Cd4 Cd 0.26490(4) 0.71252(4) 0.26184(3)
Cd5 Cd 0.17301(4) 0.62435(4) 0.44383(4)
Cd7 Cd 0.35870(5) 0.79821(4) 0.07590(4)
O11 O 0.2306(9) 0.9389(6) 0.1295(8)
O12 O 0.3438(8) 0.9322(6) 0.0406(8)
C54_2 C 0.2612(9) 0.9805(6) 0.0828(8)
O3 O 0.2170(6) 0.4807(4) 0.3918(5)
O4 O 0.2885(5) 0.4927(4) 0.4663(4)
C20_2 C 0.2749(7) 0.4468(6) 0.4285(6)
C21_2 C 0.3305(7) 0.3462(6) 0.4192(6)
C22_2 C 0.4059(7) 0.3051(6) 0.4472(6)
H19_2 H 0.420740 0.340354 0.471590
C23_2 C 0.4591(7) 0.2129(6) 0.4396(6)
H20_2 H 0.514066 0.186139 0.453471
C24_2 C 0.4298(6) 0.1605(6) 0.4108(6)
C25_2 C 0.3585(7) 0.2018(6) 0.3821(7)
H21_2 H 0.342575 0.166975 0.358411
C26_2 C 0.3077(7) 0.2950(6) 0.3866(7)
H22_2 H 0.258050 0.321279 0.366925
C35_2 C 0.4325(7) 0.0147(6) 0.4126(6)
H27_2 H 0.364364 0.045803 0.424211
C36_2 C 0.4823(7) 0.0625(6) 0.4039(6)
C37_2 C 0.5843(7) 0.0133(6) 0.3929(6)
H28_2 H 0.619620 0.044492 0.388972
O1_2 O 0.1918(5) 0.7398(5) 0.4951(4)
O2_2 O 0.2785(4) 0.6785(4) 0.3786(3)
O7_2 O 0.4434(5) 0.7686(4) 0.1521(4)
O8_2 O 0.4297(4) 0.6547(5) 0.2063(4)
O13_2 O 0.2926(6) 0.5692(5) 0.2483(4)
H1_2 H 0.350527 0.531328 0.241864
H2_2 H 0.255839 0.548718 0.272335
O14_2 O 0.2390(5) 0.8534(4) 0.2810(4)
H3_2 H 0.266485 0.883691 0.282405
H4_2 H 0.180306 0.888651 0.287256
N1_2 N 0.0510(6) 0.6425(6) 0.5515(4)
C1_2 C 0.0152(8) 0.5846(8) 0.5680(7)
H5_2 H 0.045155 0.532838 0.534094
C5_2 C 0.0107(10) 0.7109(9) 0.6047(8)
H8_2 H 0.034613 0.751909 0.595750
C13_2 C 0.2574(6) 0.7303(6) 0.4340(6)
C14_2 C 0.3133(6) 0.7825(6) 0.4274(5)
C15_2 C 0.4070(6) 0.7492(6) 0.3733(6)
H15_2 H 0.434776 0.695710 0.341989
C16_2 C 0.4580(7) 0.7952(6) 0.3663(6)
H16_2 H 0.518934 0.775794 0.327580
C17_2 C 0.4201(7) 0.8707(6) 0.4162(6)
C18_2 C 0.3294(6) 0.9022(6) 0.4716(6)
H17_2 H 0.302831 0.954242 0.504252
C19_2 C 0.2774(6) 0.8547(6) 0.4781(5)
H18_2 H 0.217504 0.872630 0.517633
C28_2 C 0.9406(7) 0.7851(7) 0.3583(6)
C29_2 C 0.9037(7) 0.8578(7) 0.3235(7)
H23_2 H 0.946479 0.876913 0.292303
C30_2 C 0.8033(7) 0.9037(7) 0.3337(7)
H24_2 H 0.779129 0.954474 0.311327
C31_2 C 0.7396(7) 0.8733(7) 0.3775(6)
C32_2 C 0.7765(7) 0.8002(7) 0.4120(6)
H25_2 H 0.734233 0.779942 0.442123
C33_2 C 0.8762(7) 0.7560(7) 0.4024(6)
H26_2 H 0.899995 0.706285 0.425996
C34_2 C 0.4789(6) 0.9211(6) 0.4049(6)
C38_2 C 0.6331(6) 0.9217(6) 0.3877(6)
C39_2 C 0.5808(6) 0.8758(6) 0.3938(6)
H29_2 H 0.613039 0.813732 0.390639
C40_2 C 0.4781(6) 0.6924(6) 0.1739(5)
C41_2 C 0.5887(6) 0.6438(6) 0.1585(5)
C42_2 C 0.6470(6) 0.6830(6) 0.1266(5)
H30_2 H 0.619062 0.740467 0.114401
C43_2 C 0.7477(7) 0.6366(6) 0.1128(6)
H31_2 H 0.787415 0.662397 0.089531
C44_2 C 0.7901(6) 0.5520(5) 0.1332(5)
C45_2 C 0.7302(6) 0.5139(7) 0.1641(6)
H32_2 H 0.757087 0.456332 0.176392
C46_2 C 0.6301(7) 0.5610(7) 0.1770(6)
H33_2 H 0.590151 0.534951 0.199007
C61_2 C 0.9008(6) 0.5021(6) 0.1178(5)
C62_2 C 0.9516(6) 0.5491(6) 0.1139(5)
H42_2 H 0.918219 0.611424 0.120951
C66_2 C 0.9505(7) 0.4096(6) 0.1088(6)
H44_2 H 0.915458 0.378308 0.111946
H37_2 H 0.311148 0.557517 0.999014
N3 N 0.5086(7) 0.7378(7) 0.9771(5)
C2_2 C 0.9345(8) 0.5970(9) 0.6339(7)
H6_2 H 0.907942 0.557861 0.642197
C3_2 C 0.8982(9) 0.6720(10) 0.6850(6)
C4_2 C 0.9365(12) 0.7264(10) 0.6720(9)
H7_2 H 0.913821 0.774596 0.707708
C6_2 C 0.8108(11) 0.6919(11) 0.7562(7)
H9_2 H 0.786378 0.745071 0.786729
C7_2 C 0.7651(9) 0.6455(11) 0.7808(7)
H10_2 H 0.787757 0.590798 0.753136
C8_2 C 0.6795(8) 0.6758(9) 0.8499(7)
C9_2 C 0.6387(10) 0.6219(8) 0.8778(7)
H11_2 H 0.668099 0.563893 0.853428
C10_2 C 0.5570(9) 0.6507(8) 0.9398(7)
H12_2 H 0.532335 0.611548 0.958306
C11_2 C 0.5474(11) 0.7868(10) 0.9548(8)
H13_2 H 0.518418 0.843500 0.981547
C12_2 C 0.6368(9) 0.7583(9) 0.8881(8)
H14_2 H 0.663759 0.796494 0.872380
loop_
_geom_bond_atom_site_label_1
_geom_bond_atom_site_label_2
_geom_bond_site_symmetry_1
_geom_bond_site_symmetry_2
N2 C10 1_555 1_555
H6 C2 1_555 1_555
C3 C2 1_555 1_555
C4 C3 1_555 1_555
H7 C4 1_555 1_555
C6 C3 1_555 1_555
H9 C6 1_555 1_555
C7 C6 1_555 1_555
H10 C7 1_555 1_555
C8 C7 1_555 1_555
C9 C8 1_555 1_555
H11 C9 1_555 1_555
C10 C9 1_555 1_555
H12 C10 1_555 1_555
C11 N2 1_555 1_555
H13 C11 1_555 1_555
C12 C8 1_555 1_555
H14 C12 1_555 1_555
C11 C12 1_555 1_555
Cd1 O2 1_555 1_555
Cd2 O1 1_555 1_555
Cd9 O7 1_555 1_555
O1 C13 1_555 1_555
O2 Cd2 1_555 1_555
O7 C40 1_555 1_555
O8 Cd1 1_555 1_555
O13 Cd1 1_555 1_555
H1 O13 1_555 1_555
H2 O13 1_555 1_555
O14 Cd1 1_555 1_555
H3 O14 1_555 1_555
H4 O14 1_555 1_555
N1 Cd2 1_555 1_555
C1 N1 1_555 1_555
H5 C1 1_555 1_555
C5 N1 1_555 1_555
H8 C5 1_555 1_555
C13 O2 1_555 1_555
C14 C13 1_555 1_555
C15 C14 1_555 1_555
H15 C15 1_555 1_555
C16 C15 1_555 1_555
H16 C16 1_555 1_555
C17 C16 1_555 1_555
C18 C17 1_555 1_555
H17 C18 1_555 1_555
C19 C14 1_555 1_555
H18 C19 1_555 1_555
C28 C29 1_555 1_555
C29 H23 1_555 1_555
C30 C29 1_555 1_555
H24 C30 1_555 1_555
C31 C30 1_555 1_555
C32 C31 1_555 1_555
H25 C32 1_555 1_555
C33 C28 1_555 1_555
H26 C33 1_555 1_555
C34 C17 1_555 1_555
C38 C31 1_555 1_555
C39 C34 1_555 1_555
H29 C39 1_555 1_555
C40 O8 1_555 1_555
C41 C40 1_555 1_555
C42 C41 1_555 1_555
H30 C42 1_555 1_555
C43 C42 1_555 1_555
H31 C43 1_555 1_555
C44 C43 1_555 1_555
C45 C44 1_555 1_555
H32 C45 1_555 1_555
C46 C41 1_555 1_555
H33 C46 1_555 1_555
C61 C44 1_555 1_555
C62 C61 1_555 1_555
H42 C62 1_555 1_555
C66 C61 1_555 1_555
H44 C66 1_555 1_555
O15 Cd2 1_555 1_555
O16 Cd2 1_555 1_555
O17 Cd2 1_555 1_555
O18 Cd1 1_555 1_555
O19 Cd9 1_555 1_555
O20 Cd1 1_555 1_555
O21 Cd9 1_555 1_555
O22 Cd9 1_555 1_555
Cd9 O20 1_555 1_555
C18 C19 1_555 1_555
C32 C33 1_555 1_555
C38 C39 1_555 1_555
C45 C46 1_555 1_555
O15 C20 1_555 1_555
O16 C20 1_555 1_555
C20 C21 1_555 1_555
C21 C22 1_555 1_555
C22 H19 1_555 1_555
C23 C22 1_555 1_555
H20 C23 1_555 1_555
C24 C23 1_555 1_555
C25 C24 1_555 1_555
H21 C25 1_555 1_555
C26 C21 1_555 1_555
H22 C26 1_555 1_555
H27 C35 1_555 1_555
C36 C24 1_555 1_555
C37 C36 1_555 1_555
H28 C37 1_555 1_555
C25 C26 1_555 1_555
C35 C36 1_555 1_555
O21 C54 1_555 1_555
O22 C54 1_555 1_555
O17 C27 1_555 1_555
O18 C27 1_555 1_555
O19 C47 1_555 1_555
O20 C47 1_555 1_555
C47 C48 1_555 1_555
C48 C49 1_555 1_555
C49 H34 1_555 1_555
C50 C49 1_555 1_555
H35 C50 1_555 1_555
C51 C50 1_555 1_555
C52 C51 1_555 1_555
H36 C52 1_555 1_555
C53 C48 1_555 1_555
C55 C56 1_555 1_555
C56 H38 1_555 1_555
C57 C56 1_555 1_555
H39 C57 1_555 1_555
C58 C57 1_555 1_555
C59 C58 1_555 1_555
H40 C59 1_555 1_555
C60 C55 1_555 1_555
H41 C60 1_555 1_555
C63 C51 1_555 1_555
C64 C63 1_555 1_555
H43 C64 1_555 1_555
C65 C58 1_555 1_555
C52 C53 1_555 1_555
C59 C60 1_555 1_555
C64 C65 1_555 1_555
O5 C27_2 1_555 1_555
O6 C27_2 1_555 1_555
O9 C47_2 1_555 1_555
O10 C47_2 1_555 1_555
C47_2 C48_2 1_555 1_555
C48_2 C49_2 1_555 1_555
C49_2 H34_2 1_555 1_555
C50_2 C49_2 1_555 1_555
H35_2 C50_2 1_555 1_555
C51_2 C50_2 1_555 1_555
C52_2 C51_2 1_555 1_555
H36_2 C52_2 1_555 1_555
C53_2 C48_2 1_555 1_555
C55_2 C56_2 1_555 1_555
C56_2 H38_2 1_555 1_555
C57_2 C56_2 1_555 1_555
H39_2 C57_2 1_555 1_555
C58_2 C57_2 1_555 1_555
C59_2 C58_2 1_555 1_555
H40_2 C59_2 1_555 1_555
C60_2 C55_2 1_555 1_555
H41_2 C60_2 1_555 1_555
C63_2 C51_2 1_555 1_555
C64_2 C63_2 1_555 1_555
H43_2 C64_2 1_555 1_555
C65_2 C58_2 1_555 1_555
Cd4 O6 1_555 1_555
Cd5 O5 1_555 1_555
Cd7 O9 1_555 1_555
O10 Cd4 1_555 1_555
O10 Cd7 1_555 1_555
C52_2 C53_2 1_555 1_555
C59_2 C60_2 1_555 1_555
C64_2 C65_2 1_555 1_555
O11 C54_2 1_555 1_555
O12 C54_2 1_555 1_555
Cd7 O11 1_555 1_555
O12 Cd7 1_555 1_555
O3 C20_2 1_555 1_555
O4 C20_2 1_555 1_555
C20_2 C21_2 1_555 1_555
C21_2 C22_2 1_555 1_555
C22_2 H19_2 1_555 1_555
C23_2 C22_2 1_555 1_555
H20_2 C23_2 1_555 1_555
C24_2 C23_2 1_555 1_555
C25_2 C24_2 1_555 1_555
H21_2 C25_2 1_555 1_555
C26_2 C21_2 1_555 1_555
H22_2 C26_2 1_555 1_555
H27_2 C35_2 1_555 1_555
C36_2 C24_2 1_555 1_555
C37_2 C36_2 1_555 1_555
H28_2 C37_2 1_555 1_555
Cd5 O3 1_555 1_555
O4 Cd5 1_555 1_555
C25_2 C26_2 1_555 1_555
C35_2 C36_2 1_555 1_555
Cd4 O2_2 1_555 1_555
Cd5 O1_2 1_555 1_555
Cd7 O7_2 1_555 1_555
O1_2 C13_2 1_555 1_555
O2_2 Cd5 1_555 1_555
O7_2 C40_2 1_555 1_555
O8_2 Cd4 1_555 1_555
O13_2 Cd4 1_555 1_555
H1_2 O13_2 1_555 1_555
H2_2 O13_2 1_555 1_555
O14_2 Cd4 1_555 1_555
H3_2 O14_2 1_555 1_555
H4_2 O14_2 1_555 1_555
N1_2 Cd5 1_555 1_555
C1_2 N1_2 1_555 1_555
H5_2 C1_2 1_555 1_555
C5_2 N1_2 1_555 1_555
H8_2 C5_2 1_555 1_555
C13_2 O2_2 1_555 1_555
C14_2 C13_2 1_555 1_555
C15_2 C14_2 1_555 1_555
H15_2 C15_2 1_555 1_555
C16_2 C15_2 1_555 1_555
H16_2 C16_2 1_555 1_555
C17_2 C16_2 1_555 1_555
C18_2 C17_2 1_555 1_555
H17_2 C18_2 1_555 1_555
C19_2 C14_2 1_555 1_555
H18_2 C19_2 1_555 1_555
C28_2 C29_2 1_555 1_555
C29_2 H23_2 1_555 1_555
C30_2 C29_2 1_555 1_555
H24_2 C30_2 1_555 1_555
C31_2 C30_2 1_555 1_555
C32_2 C31_2 1_555 1_555
H25_2 C32_2 1_555 1_555
C33_2 C28_2 1_555 1_555
H26_2 C33_2 1_555 1_555
C34_2 C17_2 1_555 1_555
C38_2 C31_2 1_555 1_555
C39_2 C34_2 1_555 1_555
H29_2 C39_2 1_555 1_555
C40_2 O8_2 1_555 1_555
C41_2 C40_2 1_555 1_555
C42_2 C41_2 1_555 1_555
H30_2 C42_2 1_555 1_555
C43_2 C42_2 1_555 1_555
H31_2 C43_2 1_555 1_555
C44_2 C43_2 1_555 1_555
C45_2 C44_2 1_555 1_555
H32_2 C45_2 1_555 1_555
C46_2 C41_2 1_555 1_555
H33_2 C46_2 1_555 1_555
C61_2 C44_2 1_555 1_555
C62_2 C61_2 1_555 1_555
H42_2 C62_2 1_555 1_555
C66_2 C61_2 1_555 1_555
H44_2 C66_2 1_555 1_555
C18_2 C19_2 1_555 1_555
C32_2 C33_2 1_555 1_555
C38_2 C39_2 1_555 1_555
C45_2 C46_2 1_555 1_555
N3 C10_2 1_555 1_555
H6_2 C2_2 1_555 1_555
C3_2 C2_2 1_555 1_555
C4_2 C3_2 1_555 1_555
H7_2 C4_2 1_555 1_555
C6_2 C3_2 1_555 1_555
H9_2 C6_2 1_555 1_555
C7_2 C6_2 1_555 1_555
H10_2 C7_2 1_555 1_555
C8_2 C7_2 1_555 1_555
C9_2 C8_2 1_555 1_555
H11_2 C9_2 1_555 1_555
C10_2 C9_2 1_555 1_555
H12_2 C10_2 1_555 1_555
C11_2 N3 1_555 1_555
H13_2 C11_2 1_555 1_555
C12_2 C8_2 1_555 1_555
H14_2 C12_2 1_555 1_555
C11_2 C12_2 1_555 1_555

#END
