
###############################################################################
#
# This file contains modified crystal structure data generated from the
# MOF subset of the Cambridge Structural Database (CSD) v543 
# hosted by the Cambridge Crystallographic Data Centre (CCDC).
#
# This work is licensed under the Creative Commons
# Attribution-NonCommercial-ShareAlike 4.0 International License.
# To view a copy of this license, visit
# http://creativecommons.org/licenses/by-nc-sa/4.0/
# or send a letter to
# Creative Commons, PO Box 1866, Mountain View, CA 94042, USA.
#
# CIF created using the CSD Python API on 29 September 2022
# The structure has been converted into the P1 space group
# The structure has a 3D framework
# The original CSD entry AJIFAD is in the triclinic crystal system
# The framework has been calculated to contain at least 10.0% void space
# The void calculation uses a probe of radius 1.32A, grid spacing 0.4
#
###############################################################################

data_AJIFAD
_chemical_formula_moiety         '(C138 H98 Cd6 N6 O28)n'
_symmetry_cell_setting           triclinic
_symmetry_space_group_name_H-M   'P 1'
_symmetry_Int_Tables_number      1
_space_group_name_Hall           'P 1'
loop_
_symmetry_equiv_pos_site_id
_symmetry_equiv_pos_as_xyz
1 x,y,z
_cell_length_a                   16.713(3)
_cell_length_b                   16.927(2)
_cell_length_c                   17.944(3)
_cell_angle_alpha                65.931(4)
_cell_angle_beta                 77.105(4)
_cell_angle_gamma                62.489(4)
_cell_volume                     4107.1
loop_
_atom_site_label
_atom_site_type_symbol
_atom_site_fract_x
_atom_site_fract_y
_atom_site_fract_z
H21 H 0.215688 0.007520 0.028194
C30 C 0.0878(7) 0.0130(7) 0.0632(7)
H22 H 0.057842 0.078015 0.032562
O5 O 0.3740(4) 0.8747(5) 0.0579(5)
O6 O 0.3679(4) 0.7391(5) 0.1257(5)
C27 C 0.3304(6) 0.8281(7) 0.0917(5)
C28 C 0.2294(6) 0.8754(6) 0.0971(6)
C29 C 0.1838(7) 0.9700(7) 0.0584(7)
C31 C 0.0381(6) 0.9653(6) 0.1093(6)
C32 C 0.0852(7) 0.8664(7) 0.1524(8)
H23 H 0.053562 0.829595 0.185558
C33 C 0.1783(7) 0.8255(7) 0.1447(7)
H24 H 0.208810 0.759987 0.173401
Cd5 Cd 0.51144(4) 0.72326(4) 0.09539(4)
O3 O 0.5378(5) 0.5978(5) 0.0494(5)
O4 O 0.6457(4) 0.5780(4) 0.1164(4)
H15 H 0.628837 0.038340 0.116676
C20 C 0.6120(6) 0.5454(6) 0.0840(6)
C21 C 0.6605(6) 0.4460(6) 0.0876(6)
C22 C 0.6185(7) 0.4028(6) 0.0674(6)
H17 H 0.559417 0.438385 0.048843
C23 C 0.6643(7) 0.3066(7) 0.0749(6)
H18 H 0.635755 0.278498 0.060604
C24 C 0.7517(6) 0.2524(6) 0.1032(6)
C25 C 0.7926(6) 0.2977(6) 0.1201(6)
H19 H 0.852276 0.262692 0.137213
C26 C 0.7486(6) 0.3935(6) 0.1126(6)
H20 H 0.778589 0.422050 0.124405
C35 C 0.7506(6) 0.0937(6) 0.1413(6)
H25 H 0.687375 0.122108 0.148261
C36 C 0.7989(6) 0.1499(6) 0.1159(6)
C37 C 0.8918(6) 0.1061(6) 0.1044(5)
H26 H 0.924376 0.143958 0.084234
C38 C 0.9390(6) 0.0086(6) 0.1212(5)
Cd7 Cd 0.67110(5) 0.52871(4) 0.25172(5)
N2 N 0.7555(6) 0.2513(5) 0.5555(5)
C7 C 0.6665(6) 0.0696(7) 0.7677(6)
H8 H 0.637207 0.092342 0.810712
C8 C 0.6981(6) 0.1336(7) 0.6945(5)
C9 C 0.7605(7) 0.0990(7) 0.6380(6)
H9 H 0.786598 0.033497 0.647298
C10 C 0.7850(7) 0.1589(7) 0.5688(6)
H10 H 0.823735 0.134237 0.529315
C11 C 0.7018(7) 0.2814(8) 0.6148(7)
H11 H 0.682244 0.345567 0.608200
C12 C 0.6741(7) 0.2261(7) 0.6831(6)
H12 H 0.637950 0.251421 0.723150
Cd10 Cd 0.80410(5) 0.33925(5) 0.43214(5)
O1 O 0.5504(4) 0.7816(4) 0.1679(4)
O2 O 0.6814(4) 0.6610(4) 0.2228(4)
O7 O 0.6494(4) 0.4015(4) 0.2822(4)
O8 O 0.7571(5) 0.2803(4) 0.3684(4)
O13 O 0.5101(4) 0.5974(4) 0.2553(4)
O14 O 0.8270(5) 0.4529(5) 0.2455(6)
H1 H 0.852530 0.402332 0.236349
H2 H 0.857480 0.476362 0.252589
N3 N 0.4391(6) 0.5034(6) 0.3378(6)
H3 H 0.554836 0.897210 0.028601
C13 C 0.6281(6) 0.7468(6) 0.1956(5)
C14 C 0.6622(6) 0.8162(6) 0.1945(6)
C15 C 0.7444(7) 0.7798(7) 0.2316(7)
H13 H 0.772729 0.714395 0.261711
C16 C 0.7830(7) 0.8381(7) 0.2245(8)
H14 H 0.836396 0.812964 0.251335
C17 C 0.7426(6) 0.9379(7) 0.1762(7)
C18 C 0.6587(6) 0.9727(6) 0.1452(6)
C19 C 0.6184(6) 0.9149(7) 0.1549(6)
H16 H 0.560710 0.941545 0.134931
C34 C 0.7955(6) 0.9947(6) 0.1566(6)
C39 C 0.8884(6) 0.9560(6) 0.1437(6)
H27 H 0.918558 0.891020 0.150585
C40 C 0.6916(7) 0.3138(6) 0.3263(6)
C41 C 0.6533(6) 0.2487(6) 0.3272(6)
C42 C 0.5743(7) 0.2854(6) 0.2874(6)
H28 H 0.549316 0.349818 0.253582
C43 C 0.5321(7) 0.2269(6) 0.2976(6)
H29 H 0.478277 0.252341 0.271195
C44 C 0.5691(7) 0.1316(6) 0.3462(6)
C45 C 0.6531(7) 0.0958(6) 0.3771(7)
H30 H 0.683267 0.029765 0.403967
C46 C 0.6938(7) 0.1532(6) 0.3699(7)
H31 H 0.749069 0.126963 0.394199
C48 C 0.0867(7) 0.1914(8) 0.4166(8)
C49 C 0.1335(7) 0.0945(8) 0.4540(6)
H32 H 0.101374 0.057398 0.484496
C50 C 0.2257(6) 0.0513(7) 0.4476(7)
C51 C 0.2743(6) 0.1060(6) 0.4023(6)
C52 C 0.2270(7) 0.2017(7) 0.3632(7)
H34 H 0.257720 0.239908 0.331126
C53 C 0.1330(7) 0.2420(8) 0.3715(7)
H35 H 0.101266 0.307531 0.343905
C61 C 0.5217(6) 0.0694(6) 0.3639(6)
C62 C 0.4269(6) 0.1125(6) 0.3729(6)
H40 H 0.397172 0.177781 0.364934
C63 C 0.3765(6) 0.0588(7) 0.3937(6)
C67 C 0.3682(8) 0.4716(8) 0.3423(8)
H43 H 0.363444 0.428548 0.397176
H44 H 0.310694 0.526463 0.328607
H45 H 0.384184 0.439011 0.303900
C68 C 0.4855(7) 0.4691(8) 0.4109(6)
H46 H 0.462931 0.426567 0.455155
H47 H 0.549703 0.435078 0.401432
H48 H 0.474923 0.522519 0.425434
C69 C 0.4562(7) 0.5646(7) 0.2653(7)
H49 H 0.423920 0.582534 0.220107
O19 O 0.9453(5) 0.3262(6) 0.3972(5)
O20 O 0.9437(5) 0.1875(6) 0.4604(5)
O21 O 0.6849(5) 0.4889(4) 0.3915(4)
O22 O 0.7689(4) 0.4655(4) 0.4820(4)
H33 H 0.256354 0.985217 0.473572
C54 C 0.7081(6) 0.5196(6) 0.4334(6)
C55 C 0.6581(6) 0.6243(6) 0.4253(6)
C56 C 0.6924(6) 0.6635(6) 0.4554(6)
H36 H 0.747233 0.625739 0.482152
C57 C 0.6470(6) 0.7588(7) 0.4468(6)
H37 H 0.672276 0.785022 0.467270
C58 C 0.5656(6) 0.8164(7) 0.4089(6)
C59 C 0.5291(6) 0.7742(6) 0.3797(6)
H38 H 0.473287 0.810442 0.354542
C60 C 0.5756(6) 0.6812(6) 0.3883(6)
H39 H 0.551014 0.653885 0.368450
C64 C 0.4235(6) 0.9608(6) 0.4058(6)
H41 H 0.391016 0.923447 0.420395
C65 C 0.5176(6) 0.9185(6) 0.3965(6)
C66 C 0.5632(6) 0.9752(6) 0.3762(6)
H42 H 0.626502 0.946909 0.370536
C47 C 0.9841(7) 0.2391(9) 0.4259(7)
N1 N 0.5725(5) 0.8082(5) 0.9775(5)
C1 C 0.5771(7) 0.8832(7) 0.9804(6)
C2 C 0.6116(7) 0.9422(7) 0.9189(6)
H4 H 0.615116 0.992348 0.926268
C3 C 0.6402(7) 0.9263(7) 0.8478(6)
C4 C 0.6372(8) 0.8465(8) 0.8437(7)
H5 H 0.658519 0.830900 0.796222
C5 C 0.6026(8) 0.7906(8) 0.9106(7)
H6 H 0.600953 0.737565 0.906826
C6 C 0.6760(7) 0.9845(7) 0.7776(6)
H7 H 0.708173 0.959460 0.736316
O9 O 0.0547(5) 0.6738(6) 0.6028(5)
O10 O 0.0563(5) 0.8125(6) 0.5396(5)
C47_2 C 0.0159(7) 0.7609(9) 0.5741(7)
Cd8 Cd 0.19590(5) 0.66075(5) 0.56786(5)
O11 O 0.3151(5) 0.5111(4) 0.6085(4)
O12 O 0.2311(4) 0.5345(4) 0.5180(4)
H33_2 H 0.743646 0.014783 0.526428
C54_2 C 0.2919(6) 0.4804(6) 0.5666(6)
C55_2 C 0.3419(6) 0.3757(6) 0.5747(6)
C56_2 C 0.3076(6) 0.3365(6) 0.5446(6)
H36_2 H 0.252767 0.374261 0.517848
C57_2 C 0.3530(6) 0.2412(7) 0.5532(6)
H37_2 H 0.327724 0.214978 0.532730
C58_2 C 0.4344(6) 0.1836(7) 0.5911(6)
C59_2 C 0.4709(6) 0.2258(6) 0.6203(6)
H38_2 H 0.526713 0.189558 0.645458
C60_2 C 0.4244(6) 0.3188(6) 0.6117(6)
H39_2 H 0.448986 0.346115 0.631550
C64_2 C 0.5765(6) 0.0392(6) 0.5942(6)
H41_2 H 0.608984 0.076553 0.579605
C65_2 C 0.4824(6) 0.0815(6) 0.6035(6)
C66_2 C 0.4368(6) 0.0248(6) 0.6238(6)
H42_2 H 0.373498 0.053091 0.629464
Cd6 Cd 0.32890(5) 0.47129(4) 0.74828(5)
Cd1 Cd 0.48856(4) 0.27674(4) 0.90461(4)
O1_2 O 0.4496(4) 0.2184(4) 0.8321(4)
O2_2 O 0.3186(4) 0.3390(4) 0.7772(4)
O7_2 O 0.3506(4) 0.5985(4) 0.7178(4)
O8_2 O 0.2429(5) 0.7197(4) 0.6316(4)
O13_2 O 0.4899(4) 0.4026(4) 0.7447(4)
O14_2 O 0.1730(5) 0.5471(5) 0.7545(6)
H1_2 H 0.147470 0.597668 0.763651
H2_2 H 0.142520 0.523638 0.747411
N3_2 N 0.5609(6) 0.4966(6) 0.6622(6)
H3_2 H 0.445164 0.102790 0.971399
C13_2 C 0.3719(6) 0.2532(6) 0.8044(5)
C14_2 C 0.3378(6) 0.1838(6) 0.8055(6)
C15_2 C 0.2556(7) 0.2202(7) 0.7684(7)
H13_2 H 0.227271 0.285605 0.738289
C16_2 C 0.2170(7) 0.1619(7) 0.7755(8)
H14_2 H 0.163604 0.187036 0.748665
C17_2 C 0.2574(6) 0.0621(7) 0.8238(7)
C18_2 C 0.3413(6) 0.0273(6) 0.8548(6)
C19_2 C 0.3816(6) 0.0851(7) 0.8451(6)
H16_2 H 0.439290 0.058455 0.865069
C34_2 C 0.2045(6) 0.0053(6) 0.8434(6)
C39_2 C 0.1116(6) 0.0440(6) 0.8563(6)
H27_2 H 0.081442 0.108980 0.849415
C40_2 C 0.3084(7) 0.6862(6) 0.6737(6)
C41_2 C 0.3467(6) 0.7513(6) 0.6728(6)
C42_2 C 0.4257(7) 0.7146(6) 0.7126(6)
H28_2 H 0.450684 0.650182 0.746418
C43_2 C 0.4679(7) 0.7731(6) 0.7024(6)
H29_2 H 0.521723 0.747659 0.728805
C44_2 C 0.4309(7) 0.8684(6) 0.6538(6)
C45_2 C 0.3469(7) 0.9042(6) 0.6229(7)
H30_2 H 0.316733 0.970235 0.596033
C46_2 C 0.3062(7) 0.8468(6) 0.6301(7)
H31_2 H 0.250931 0.873037 0.605801
C48_2 C 0.9133(7) 0.8086(8) 0.5834(8)
C49_2 C 0.8665(7) 0.9055(8) 0.5460(6)
H32_2 H 0.898626 0.942602 0.515504
C50_2 C 0.7743(6) 0.9487(7) 0.5524(7)
C51_2 C 0.7257(6) 0.8940(6) 0.5977(6)
C52_2 C 0.7730(7) 0.7983(7) 0.6368(7)
H34_2 H 0.742280 0.760092 0.668874
C53_2 C 0.8670(7) 0.7580(8) 0.6285(7)
H35_2 H 0.898734 0.692469 0.656095
C61_2 C 0.4783(6) 0.9306(6) 0.6361(6)
C62_2 C 0.5731(6) 0.8875(6) 0.6271(6)
H40_2 H 0.602828 0.822219 0.635066
C63_2 C 0.6235(6) 0.9412(7) 0.6063(6)
C67_2 C 0.6318(8) 0.5284(8) 0.6577(8)
H43_2 H 0.636556 0.571452 0.602824
H44_2 H 0.689306 0.473537 0.671393
H45_2 H 0.615816 0.560989 0.696100
C68_2 C 0.5145(7) 0.5309(8) 0.5891(6)
H46_2 H 0.537069 0.573433 0.544845
H47_2 H 0.450297 0.564922 0.598568
H48_2 H 0.525077 0.477481 0.574566
C69_2 C 0.5438(7) 0.4354(7) 0.7347(7)
H49_2 H 0.576080 0.417466 0.779893
O15 O 0.4622(5) 0.4022(5) 0.9506(5)
O16 O 0.3543(4) 0.4220(4) 0.8836(4)
O17 O 0.6260(4) 0.1253(5) 0.9421(5)
O18 O 0.6321(4) 0.2609(5) 0.8743(5)
N4 N 0.2445(6) 0.7487(5) 0.4445(5)
C7_2 C 0.3335(6) 0.9304(7) 0.2323(6)
H8_2 H 0.362793 0.907658 0.189288
C8_2 C 0.3019(6) 0.8664(7) 0.3055(5)
C9_2 C 0.2395(7) 0.9010(7) 0.3620(6)
H9_2 H 0.213402 0.966503 0.352702
C10_2 C 0.2150(7) 0.8411(7) 0.4312(6)
H10_2 H 0.176265 0.865763 0.470685
C11_2 C 0.2982(7) 0.7186(8) 0.3852(7)
H11_2 H 0.317756 0.654433 0.391800
C12_2 C 0.3259(7) 0.7739(7) 0.3169(6)
H12_2 H 0.362050 0.748579 0.276850
H15_2 H 0.371163 0.961660 0.883324
C20_2 C 0.3880(6) 0.4546(6) 0.9160(6)
C21_2 C 0.3395(6) 0.5540(6) 0.9124(6)
C22_2 C 0.3815(7) 0.5972(6) 0.9326(6)
H17_2 H 0.440583 0.561615 0.951157
C23_2 C 0.3357(7) 0.6934(7) 0.9251(6)
H18_2 H 0.364245 0.721502 0.939396
C24_2 C 0.2483(6) 0.7476(6) 0.8968(6)
C25_2 C 0.2074(6) 0.7023(6) 0.8799(6)
H19_2 H 0.147724 0.737308 0.862787
C26_2 C 0.2514(6) 0.6065(6) 0.8874(6)
H20_2 H 0.221411 0.577950 0.875595
C35_2 C 0.2494(6) 0.9063(6) 0.8587(6)
H25_2 H 0.312625 0.877892 0.851739
C36_2 C 0.2011(6) 0.8501(6) 0.8841(6)
C37_2 C 0.1082(6) 0.8939(6) 0.8956(5)
H26_2 H 0.075624 0.856042 0.915766
C38_2 C 0.0610(6) 0.9914(6) 0.8788(5)
C27_2 C 0.6696(6) 0.1719(7) 0.9083(5)
C28_2 C 0.7706(6) 0.1246(6) 0.9029(6)
C29_2 C 0.8162(7) 0.0300(7) 0.9416(7)
C31_2 C 0.9619(6) 0.0347(6) 0.8907(6)
C32_2 C 0.9148(7) 0.1336(7) 0.8476(8)
H23_2 H 0.946438 0.170405 0.814442
C33_2 C 0.8217(7) 0.1745(7) 0.8553(7)
H24_2 H 0.791190 0.240013 0.826599
N1_2 N 0.4275(5) 0.1918(5) 0.0225(5)
C1_2 C 0.4229(7) 0.1168(7) 0.0196(6)
C2_2 C 0.3884(7) 0.0578(7) 0.0811(6)
H4_2 H 0.384884 0.007652 0.073732
C3_2 C 0.3598(7) 0.0737(7) 0.1522(6)
C4_2 C 0.3628(8) 0.1535(8) 0.1563(7)
H5_2 H 0.341481 0.169100 0.203778
C5_2 C 0.3974(8) 0.2094(8) 0.0894(7)
H6_2 H 0.399047 0.262435 0.093174
C6_2 C 0.3240(7) 0.0155(7) 0.2224(6)
H7_2 H 0.291827 0.040540 0.263684
H21_2 H 0.784312 0.992480 0.971806
C30_2 C 0.9122(7) 0.9870(7) 0.9368(7)
H22_2 H 0.942158 0.921985 0.967438
loop_
_geom_bond_atom_site_label_1
_geom_bond_atom_site_label_2
_geom_bond_site_symmetry_1
_geom_bond_site_symmetry_2
H22 C30 1_555 1_555
O5 C27 1_555 1_555
O6 C27 1_555 1_555
C27 C28 1_555 1_555
C28 C29 1_555 1_555
C32 C31 1_555 1_555
H23 C32 1_555 1_555
C33 C28 1_555 1_555
H24 C33 1_555 1_555
Cd5 O5 1_555 1_555
O6 Cd5 1_555 1_555
C32 C33 1_555 1_555
O3 C20 1_555 1_555
O4 C20 1_555 1_555
C20 C21 1_555 1_555
C21 C22 1_555 1_555
C22 H17 1_555 1_555
C23 C22 1_555 1_555
H18 C23 1_555 1_555
C24 C23 1_555 1_555
C25 C24 1_555 1_555
H19 C25 1_555 1_555
C26 C21 1_555 1_555
H20 C26 1_555 1_555
H25 C35 1_555 1_555
C36 C24 1_555 1_555
C37 C36 1_555 1_555
H26 C37 1_555 1_555
Cd5 O3 1_555 1_555
Cd7 O4 1_555 1_555
O4 Cd5 1_555 1_555
C25 C26 1_555 1_555
C35 C36 1_555 1_555
C37 C38 1_555 1_555
N2 C10 1_555 1_555
H8 C7 1_555 1_555
C8 C7 1_555 1_555
C9 C8 1_555 1_555
H9 C9 1_555 1_555
C10 C9 1_555 1_555
H10 C10 1_555 1_555
C11 N2 1_555 1_555
H11 C11 1_555 1_555
C12 C8 1_555 1_555
H12 C12 1_555 1_555
Cd10 N2 1_555 1_555
C11 C12 1_555 1_555
Cd5 O1 1_555 1_555
Cd7 O2 1_555 1_555
Cd10 O8 1_555 1_555
O1 C13 1_555 1_555
O2 C13 1_555 1_555
O7 Cd7 1_555 1_555
O8 C40 1_555 1_555
O13 Cd5 1_555 1_555
O14 Cd7 1_555 1_555
H1 O14 1_555 1_555
H2 O14 1_555 1_555
N3 C67 1_555 1_555
C13 C14 1_555 1_555
C14 C15 1_555 1_555
C15 H13 1_555 1_555
C16 C15 1_555 1_555
H14 C16 1_555 1_555
C17 C16 1_555 1_555
C18 C17 1_555 1_555
C19 C14 1_555 1_555
H16 C19 1_555 1_555
C34 C17 1_555 1_555
C39 C34 1_555 1_555
H27 C39 1_555 1_555
C40 O7 1_555 1_555
C41 C40 1_555 1_555
C42 C41 1_555 1_555
H28 C42 1_555 1_555
C43 C42 1_555 1_555
H29 C43 1_555 1_555
C44 C43 1_555 1_555
C45 C44 1_555 1_555
H30 C45 1_555 1_555
C46 C41 1_555 1_555
H31 C46 1_555 1_555
C48 C49 1_555 1_555
C49 H32 1_555 1_555
C50 C49 1_555 1_555
C51 C50 1_555 1_555
C52 C51 1_555 1_555
H34 C52 1_555 1_555
C53 C48 1_555 1_555
H35 C53 1_555 1_555
C61 C44 1_555 1_555
C62 C61 1_555 1_555
H40 C62 1_555 1_555
C63 C51 1_555 1_555
C67 H43 1_555 1_555
H44 C67 1_555 1_555
H45 C67 1_555 1_555
C68 N3 1_555 1_555
H46 C68 1_555 1_555
H47 C68 1_555 1_555
H48 C68 1_555 1_555
C69 O13 1_555 1_555
H49 C69 1_555 1_555
O19 Cd10 1_555 1_555
O20 Cd10 1_555 1_555
O21 Cd7 1_555 1_555
O22 Cd10 1_555 1_555
Cd7 O13 1_555 1_555
Cd10 O21 1_555 1_555
N3 C69 1_555 1_555
C18 C19 1_555 1_555
C45 C46 1_555 1_555
C52 C53 1_555 1_555
C62 C63 1_555 1_555
O21 C54 1_555 1_555
O22 C54 1_555 1_555
C54 C55 1_555 1_555
C55 C56 1_555 1_555
C56 H36 1_555 1_555
C57 C56 1_555 1_555
H37 C57 1_555 1_555
C58 C57 1_555 1_555
C59 C58 1_555 1_555
H38 C59 1_555 1_555
C60 C55 1_555 1_555
H39 C60 1_555 1_555
H41 C64 1_555 1_555
C65 C58 1_555 1_555
H42 C66 1_555 1_555
C59 C60 1_555 1_555
C64 C65 1_555 1_555
C65 C66 1_555 1_555
O19 C47 1_555 1_555
O20 C47 1_555 1_555
C1 N1 1_555 1_555
C2 C1 1_555 1_555
H4 C2 1_555 1_555
C3 C2 1_555 1_555
C4 C3 1_555 1_555
H5 C4 1_555 1_555
C5 N1 1_555 1_555
H6 C5 1_555 1_555
C6 C3 1_555 1_555
H7 C6 1_555 1_555
C4 C5 1_555 1_555
O9 C47_2 1_555 1_555
O10 C47_2 1_555 1_555
Cd8 O9 1_555 1_555
O10 Cd8 1_555 1_555
O11 C54_2 1_555 1_555
O12 C54_2 1_555 1_555
C54_2 C55_2 1_555 1_555
C55_2 C56_2 1_555 1_555
C56_2 H36_2 1_555 1_555
C57_2 C56_2 1_555 1_555
H37_2 C57_2 1_555 1_555
C58_2 C57_2 1_555 1_555
C59_2 C58_2 1_555 1_555
H38_2 C59_2 1_555 1_555
C60_2 C55_2 1_555 1_555
H39_2 C60_2 1_555 1_555
H41_2 C64_2 1_555 1_555
C65_2 C58_2 1_555 1_555
H42_2 C66_2 1_555 1_555
Cd6 O11 1_555 1_555
Cd8 O11 1_555 1_555
O12 Cd8 1_555 1_555
C59_2 C60_2 1_555 1_555
C64_2 C65_2 1_555 1_555
C65_2 C66_2 1_555 1_555
Cd1 O1_2 1_555 1_555
Cd6 O2_2 1_555 1_555
Cd8 O8_2 1_555 1_555
O1_2 C13_2 1_555 1_555
O2_2 C13_2 1_555 1_555
O7_2 Cd6 1_555 1_555
O8_2 C40_2 1_555 1_555
O13_2 Cd1 1_555 1_555
O14_2 Cd6 1_555 1_555
H1_2 O14_2 1_555 1_555
H2_2 O14_2 1_555 1_555
N3_2 C67_2 1_555 1_555
C13_2 C14_2 1_555 1_555
C14_2 C15_2 1_555 1_555
C15_2 H13_2 1_555 1_555
C16_2 C15_2 1_555 1_555
H14_2 C16_2 1_555 1_555
C17_2 C16_2 1_555 1_555
C18_2 C17_2 1_555 1_555
C19_2 C14_2 1_555 1_555
H16_2 C19_2 1_555 1_555
C34_2 C17_2 1_555 1_555
C39_2 C34_2 1_555 1_555
H27_2 C39_2 1_555 1_555
C40_2 O7_2 1_555 1_555
C41_2 C40_2 1_555 1_555
C42_2 C41_2 1_555 1_555
H28_2 C42_2 1_555 1_555
C43_2 C42_2 1_555 1_555
H29_2 C43_2 1_555 1_555
C44_2 C43_2 1_555 1_555
C45_2 C44_2 1_555 1_555
H30_2 C45_2 1_555 1_555
C46_2 C41_2 1_555 1_555
H31_2 C46_2 1_555 1_555
C48_2 C49_2 1_555 1_555
C49_2 H32_2 1_555 1_555
C50_2 C49_2 1_555 1_555
C51_2 C50_2 1_555 1_555
C52_2 C51_2 1_555 1_555
H34_2 C52_2 1_555 1_555
C53_2 C48_2 1_555 1_555
H35_2 C53_2 1_555 1_555
C61_2 C44_2 1_555 1_555
C62_2 C61_2 1_555 1_555
H40_2 C62_2 1_555 1_555
C63_2 C51_2 1_555 1_555
C67_2 H43_2 1_555 1_555
H44_2 C67_2 1_555 1_555
H45_2 C67_2 1_555 1_555
C68_2 N3_2 1_555 1_555
H46_2 C68_2 1_555 1_555
H47_2 C68_2 1_555 1_555
H48_2 C68_2 1_555 1_555
C69_2 O13_2 1_555 1_555
H49_2 C69_2 1_555 1_555
O15 Cd1 1_555 1_555
O16 Cd1 1_555 1_555
O17 Cd1 1_555 1_555
O18 Cd1 1_555 1_555
N4 Cd8 1_555 1_555
Cd6 O13_2 1_555 1_555
Cd6 O16 1_555 1_555
N3_2 C69_2 1_555 1_555
C18_2 C19_2 1_555 1_555
C45_2 C46_2 1_555 1_555
C52_2 C53_2 1_555 1_555
C62_2 C63_2 1_555 1_555
N4 C10_2 1_555 1_555
H8_2 C7_2 1_555 1_555
C8_2 C7_2 1_555 1_555
C9_2 C8_2 1_555 1_555
H9_2 C9_2 1_555 1_555
C10_2 C9_2 1_555 1_555
H10_2 C10_2 1_555 1_555
C11_2 N4 1_555 1_555
H11_2 C11_2 1_555 1_555
C12_2 C8_2 1_555 1_555
H12_2 C12_2 1_555 1_555
C11_2 C12_2 1_555 1_555
O15 C20_2 1_555 1_555
O16 C20_2 1_555 1_555
C20_2 C21_2 1_555 1_555
C21_2 C22_2 1_555 1_555
C22_2 H17_2 1_555 1_555
C23_2 C22_2 1_555 1_555
H18_2 C23_2 1_555 1_555
C24_2 C23_2 1_555 1_555
C25_2 C24_2 1_555 1_555
H19_2 C25_2 1_555 1_555
C26_2 C21_2 1_555 1_555
H20_2 C26_2 1_555 1_555
H25_2 C35_2 1_555 1_555
C36_2 C24_2 1_555 1_555
C37_2 C36_2 1_555 1_555
H26_2 C37_2 1_555 1_555
C25_2 C26_2 1_555 1_555
C35_2 C36_2 1_555 1_555
C37_2 C38_2 1_555 1_555
O17 C27_2 1_555 1_555
O18 C27_2 1_555 1_555
C27_2 C28_2 1_555 1_555
C28_2 C29_2 1_555 1_555
C32_2 C31_2 1_555 1_555
H23_2 C32_2 1_555 1_555
C33_2 C28_2 1_555 1_555
H24_2 C33_2 1_555 1_555
C32_2 C33_2 1_555 1_555
C1_2 N1_2 1_555 1_555
C2_2 C1_2 1_555 1_555
H4_2 C2_2 1_555 1_555
C3_2 C2_2 1_555 1_555
C4_2 C3_2 1_555 1_555
H5_2 C4_2 1_555 1_555
C5_2 N1_2 1_555 1_555
H6_2 C5_2 1_555 1_555
C6_2 C3_2 1_555 1_555
H7_2 C6_2 1_555 1_555
C4_2 C5_2 1_555 1_555
H22_2 C30_2 1_555 1_555

#END
