
###############################################################################
#
# This file contains modified crystal structure data generated from the
# MOF subset of the Cambridge Structural Database (CSD) v543 
# hosted by the Cambridge Crystallographic Data Centre (CCDC).
#
# This work is licensed under the Creative Commons
# Attribution-NonCommercial-ShareAlike 4.0 International License.
# To view a copy of this license, visit
# http://creativecommons.org/licenses/by-nc-sa/4.0/
# or send a letter to
# Creative Commons, PO Box 1866, Mountain View, CA 94042, USA.
#
# CIF created using the CSD Python API on 29 September 2022
# The structure has been converted into the P1 space group
# The structure has a 3D framework
# The original CSD entry AJIFUX is in the triclinic crystal system
# The framework has been calculated to contain at least 10.0% void space
# The void calculation uses a probe of radius 1.32A, grid spacing 0.4
#
###############################################################################

data_AJIFUX
_chemical_formula_moiety         '(C138 H98 Cd6 N6 O28)n'
_symmetry_cell_setting           triclinic
_symmetry_space_group_name_H-M   'P 1'
_symmetry_Int_Tables_number      1
_space_group_name_Hall           'P 1'
loop_
_symmetry_equiv_pos_site_id
_symmetry_equiv_pos_as_xyz
1 x,y,z
_cell_length_a                   16.754(2)
_cell_length_b                   16.894(2)
_cell_length_c                   18.001(3)
_cell_angle_alpha                66.663(4)
_cell_angle_beta                 77.370(4)
_cell_angle_gamma                62.283(3)
_cell_volume                     4137.71
loop_
_atom_site_label
_atom_site_type_symbol
_atom_site_fract_x
_atom_site_fract_y
_atom_site_fract_z
O13 O 0.0612(3) 0.1758(4) 0.6099(4)
O14 O 0.0598(3) 0.3122(4) 0.5374(4)
C57 C 0.0202(4) 0.2631(5) 0.5783(4)
Cd10 Cd 0.20028(3) 0.16584(3) 0.56472(3)
O3 O 0.4522(3) 0.7179(3) 0.8313(3)
O4 O 0.3238(3) 0.8406(3) 0.7766(3)
O8 O 0.1749(4) 0.0440(4) 0.7584(4)
H1 H 0.135780 0.046473 0.795795
H2 H 0.151720 0.053393 0.717685
O9 O 0.3154(3) 0.0133(3) 0.6113(3)
O10 O 0.2344(3) 0.0369(3) 0.5179(3)
C14 C 0.3390(4) 0.0562(4) 0.9145(4)
C15 C 0.3810(4) 0.1006(5) 0.9334(5)
H13 H 0.440441 0.064519 0.952682
C16 C 0.3375(4) 0.1952(5) 0.9244(5)
H14 H 0.367067 0.223751 0.937791
C17 C 0.2495(4) 0.2508(4) 0.8954(4)
C18 C 0.2072(4) 0.2052(4) 0.8800(4)
H15 H 0.146841 0.240433 0.862958
C19 C 0.2513(4) 0.1093(5) 0.8890(4)
H16 H 0.221081 0.080010 0.877690
C20 C 0.3767(4) 0.7527(4) 0.8028(4)
C21 C 0.3403(4) 0.6860(4) 0.8023(4)
C22 C 0.3839(4) 0.5885(4) 0.8400(4)
H17 H 0.442573 0.561451 0.859422
C23 C 0.3431(4) 0.5303(4) 0.8497(4)
H18 H 0.374423 0.463641 0.875742
C24 C 0.2578(4) 0.5663(4) 0.8225(4)
C25 C 0.2180(4) 0.6650(5) 0.7772(5)
H19 H 0.162051 0.691612 0.752965
C26 C 0.2587(5) 0.7230(5) 0.7678(4)
H20 H 0.230645 0.788842 0.737448
C34 C 0.2019(4) 0.3546(4) 0.8816(4)
C35 C 0.2505(4) 0.4102(4) 0.8560(4)
H25 H 0.314255 0.381092 0.848146
C36 C 0.2062(4) 0.5083(5) 0.8418(4)
C37 C 0.1117(4) 0.5484(4) 0.8530(4)
H26 H 0.080782 0.614855 0.843390
C38 C 0.0619(4) 0.4957(4) 0.8772(4)
C39 C 0.1088(4) 0.3982(4) 0.8916(4)
H27 H 0.075864 0.360493 0.908721
C41 C 0.5127(6) 0.0353(7) 0.5901(5)
H29 H 0.535024 0.077873 0.545687
H31 H 0.448140 0.070329 0.600828
C42 C 0.6322(6) 0.0298(6) 0.6571(6)
H32 H 0.635963 0.073272 0.602158
H33 H 0.617805 0.062433 0.695987
Cd5 Cd 0.48838(3) 0.77720(3) 0.90533(3)
Cd7 Cd 0.32887(3) 0.97437(3) 0.74953(3)
O19 O 0.3497(3) 0.1019(3) 0.7190(3)
O20 O 0.2448(3) 0.2224(3) 0.6326(3)
N4 N 0.2474(4) 0.2528(4) 0.4420(3)
N1 N 0.4268(3) 0.6929(4) 0.0195(3)
C1 C 0.3962(6) 0.7117(5) 0.0878(5)
H3 H 0.398461 0.764827 0.092239
C2 C 0.3611(6) 0.6575(6) 0.1526(5)
H4 H 0.338987 0.674670 0.199841
C3 C 0.3576(4) 0.5779(5) 0.1500(4)
C4 C 0.3885(4) 0.5591(5) 0.0776(4)
H5 H 0.385877 0.507380 0.070864
C5 C 0.4228(5) 0.6168(5) 0.0162(5)
C6 C 0.3223(5) 0.5182(5) 0.2195(4)
H7 H 0.288946 0.544019 0.260701
C7 C 0.3326(4) 0.4310(5) 0.2302(4)
H8 H 0.363330 0.405941 0.188017
C8 C 0.3004(4) 0.3708(5) 0.3017(4)
C9 C 0.2408(5) 0.4060(5) 0.3594(4)
H9 H 0.216815 0.471704 0.351918
C10 C 0.2161(5) 0.3452(5) 0.4281(5)
H10 H 0.174919 0.370870 0.466878
C11 C 0.3026(5) 0.2197(5) 0.3841(5)
H11 H 0.323293 0.154418 0.391647
C12 C 0.3304(5) 0.2748(5) 0.3153(5)
H12 H 0.370172 0.247603 0.276723
O1 O 0.3574(3) 0.9233(3) 0.8841(3)
O2 O 0.4603(3) 0.9020(3) 0.9549(3)
O7 O 0.4896(3) 0.9062(3) 0.7420(3)
N3 N 0.5614(4) 0.9998(4) 0.6625(4)
H6 H 0.445299 0.601753 0.968001
C13 C 0.3895(4) 0.9552(4) 0.9183(4)
C40 C 0.5435(4) 0.9403(5) 0.7315(5)
H28 H 0.575560 0.922600 0.777149
H30 H 0.522024 0.981775 0.575081
H34 H 0.690226 0.973944 0.669423
C43 C 0.2945(4) 0.9819(4) 0.5683(4)
C44 C 0.3448(4) 0.8789(4) 0.5757(4)
C45 C 0.4272(4) 0.8228(4) 0.6130(4)
H35 H 0.452199 0.850061 0.633416
C46 C 0.4728(4) 0.7280(4) 0.6204(4)
H36 H 0.528929 0.690804 0.646100
C47 C 0.4381(4) 0.6856(4) 0.5910(4)
C48 C 0.3558(4) 0.7415(4) 0.5543(4)
H37 H 0.330466 0.713872 0.534647
C49 C 0.3095(4) 0.8377(4) 0.5459(4)
H38 H 0.253673 0.875267 0.519664
C50 C 0.3110(4) 0.1875(4) 0.6754(4)
C51 C 0.3488(4) 0.2533(4) 0.6736(4)
C52 C 0.4272(4) 0.2171(4) 0.7140(4)
H39 H 0.452094 0.152560 0.748534
C53 C 0.4688(4) 0.2748(5) 0.7040(4)
H40 H 0.522861 0.248648 0.731032
C54 C 0.4338(4) 0.3694(4) 0.6559(4)
C55 C 0.3512(4) 0.4066(5) 0.6216(5)
H41 H 0.323197 0.472484 0.591172
C56 C 0.3096(4) 0.3491(4) 0.6312(4)
H42 H 0.252831 0.376239 0.608150
C58 C 0.9177(4) 0.3093(5) 0.5873(4)
C59 C 0.8720(4) 0.2577(6) 0.6364(5)
H43 H 0.904991 0.192299 0.665678
C60 C 0.7776(4) 0.2982(5) 0.6453(5)
H44 H 0.747189 0.260806 0.680731
C61 C 0.7284(4) 0.3944(4) 0.6012(4)
C62 C 0.7765(4) 0.4461(5) 0.5520(4)
H45 H 0.744423 0.511491 0.522010
C63 C 0.8707(4) 0.4050(5) 0.5452(4)
H46 H 0.902063 0.442242 0.511979
C64 C 0.4867(4) 0.5824(4) 0.6028(4)
C65 C 0.4380(4) 0.5263(4) 0.6241(4)
H47 H 0.373963 0.555005 0.629564
C66 C 0.4841(4) 0.4286(4) 0.6370(4)
C67 C 0.5770(4) 0.3871(4) 0.6286(4)
H48 H 0.607651 0.320996 0.636658
C68 C 0.6275(4) 0.4412(4) 0.6083(4)
C69 C 0.5798(4) 0.5382(4) 0.5956(4)
H49 H 0.612665 0.575664 0.581250
O17 O 0.6278(3) 0.6277(3) 0.9475(3)
O18 O 0.6310(3) 0.7645(3) 0.8704(3)
C27 C 0.6696(4) 0.6761(4) 0.9078(4)
C28 C 0.7727(4) 0.6287(4) 0.9013(4)
C29 C 0.8205(4) 0.5358(5) 0.9469(4)
H21 H 0.788782 0.500466 0.983334
C30 C 0.9132(4) 0.4925(5) 0.9413(4)
H22 H 0.944496 0.428222 0.974393
C31 C 0.9612(4) 0.5417(4) 0.8879(4)
C32 C 0.9136(4) 0.6371(5) 0.8416(5)
H23 H 0.945350 0.672405 0.805059
C33 C 0.8214(4) 0.6797(4) 0.8490(5)
H24 H 0.789850 0.744834 0.818081
O5 O 0.3722(3) 0.3723(3) 0.0525(3)
O6 O 0.3690(3) 0.2355(3) 0.1296(3)
C27_2 C 0.3304(4) 0.3239(4) 0.0922(4)
C28_2 C 0.2273(4) 0.3713(4) 0.0987(4)
C29_2 C 0.1795(4) 0.4642(5) 0.0531(4)
H21_2 H 0.211218 0.499534 0.016666
C30_2 C 0.0868(4) 0.5075(5) 0.0587(4)
H22_2 H 0.055504 0.571778 0.025607
C31_2 C 0.0388(4) 0.4583(4) 0.1121(4)
C32_2 C 0.0864(4) 0.3629(5) 0.1584(5)
H23_2 H 0.054650 0.327595 0.194941
C33_2 C 0.1786(4) 0.3203(4) 0.1510(5)
H24_2 H 0.210150 0.255166 0.181919
Cd4 Cd 0.51162(3) 0.22280(3) 0.09467(3)
Cd6 Cd 0.67113(3) 0.02563(3) 0.25047(3)
O1_2 O 0.6426(3) 0.0767(3) 0.1159(3)
O2_2 O 0.5397(3) 0.0980(3) 0.0451(3)
O7_2 O 0.5104(3) 0.0938(3) 0.2580(3)
O11 O 0.6503(3) 0.8981(3) 0.2810(3)
O12 O 0.7552(3) 0.7776(3) 0.3674(3)
N3_2 N 0.4386(4) 0.0002(4) 0.3375(4)
H6_2 H 0.554701 0.398247 0.031999
C13_2 C 0.6105(4) 0.0448(4) 0.0817(4)
C40_2 C 0.4565(4) 0.0597(5) 0.2685(5)
H28_2 H 0.424440 0.077400 0.222851
H30_2 H 0.477976 0.018225 0.424919
H34_2 H 0.309774 0.026056 0.330577
C43_2 C 0.7055(4) 0.0181(4) 0.4317(4)
C44_2 C 0.6552(4) 0.1211(4) 0.4243(4)
C45_2 C 0.5728(4) 0.1772(4) 0.3870(4)
H35_2 H 0.547801 0.149939 0.366584
C46_2 C 0.5272(4) 0.2720(4) 0.3796(4)
H36_2 H 0.471071 0.309196 0.353900
C47_2 C 0.5619(4) 0.3144(4) 0.4090(4)
C48_2 C 0.6442(4) 0.2585(4) 0.4457(4)
H37_2 H 0.669534 0.286128 0.465353
C49_2 C 0.6905(4) 0.1623(4) 0.4541(4)
H38_2 H 0.746327 0.124733 0.480336
C50_2 C 0.6890(4) 0.8125(4) 0.3246(4)
C51_2 C 0.6512(4) 0.7467(4) 0.3264(4)
C52_2 C 0.5728(4) 0.7829(4) 0.2860(4)
H39_2 H 0.547906 0.847440 0.251466
C53_2 C 0.5312(4) 0.7252(5) 0.2960(4)
H40_2 H 0.477139 0.751352 0.268968
C54_2 C 0.5662(4) 0.6306(4) 0.3441(4)
C55_2 C 0.6488(4) 0.5934(5) 0.3784(5)
H41_2 H 0.676803 0.527516 0.408828
C56_2 C 0.6904(4) 0.6509(4) 0.3688(4)
H42_2 H 0.747169 0.623761 0.391850
C58_2 C 0.0823(4) 0.6907(5) 0.4127(4)
C59_2 C 0.1280(4) 0.7423(6) 0.3636(5)
H43_2 H 0.095009 0.807701 0.334322
C60_2 C 0.2224(4) 0.7018(5) 0.3547(5)
H44_2 H 0.252811 0.739194 0.319269
C61_2 C 0.2716(4) 0.6056(4) 0.3988(4)
C62_2 C 0.2235(4) 0.5539(5) 0.4480(4)
H45_2 H 0.255577 0.488509 0.477990
C63_2 C 0.1293(4) 0.5950(5) 0.4548(4)
H46_2 H 0.097937 0.557758 0.488021
C64_2 C 0.5133(4) 0.4176(4) 0.3972(4)
C65_2 C 0.5620(4) 0.4737(4) 0.3759(4)
H47_2 H 0.626037 0.444995 0.370436
C66_2 C 0.5159(4) 0.5714(4) 0.3630(4)
C67_2 C 0.4230(4) 0.6129(4) 0.3714(4)
H48_2 H 0.392349 0.679004 0.363342
C68_2 C 0.3725(4) 0.5588(4) 0.3917(4)
C69_2 C 0.4202(4) 0.4618(4) 0.4044(4)
H49_2 H 0.387335 0.424336 0.418750
Cd8 Cd 0.79972(3) 0.83416(3) 0.43528(3)
O15 O 0.5478(3) 0.2821(3) 0.1687(3)
O16 O 0.6762(3) 0.1594(3) 0.2234(3)
N1_2 N 0.5732(3) 0.3071(4) 0.9805(3)
N2 N 0.7526(4) 0.7472(4) 0.5580(3)
C1_2 C 0.6038(6) 0.2883(5) 0.9122(5)
H3_2 H 0.601539 0.235173 0.907761
C2_2 C 0.6389(6) 0.3425(6) 0.8474(5)
H4_2 H 0.661013 0.325330 0.800159
C3_2 C 0.6424(4) 0.4221(5) 0.8500(4)
C4_2 C 0.6115(4) 0.4409(5) 0.9224(4)
H5_2 H 0.614123 0.492620 0.929136
C5_2 C 0.5772(5) 0.3832(5) 0.9838(5)
C6_2 C 0.6777(5) 0.4818(5) 0.7805(4)
H7_2 H 0.711054 0.455981 0.739299
C7_2 C 0.6674(4) 0.5690(5) 0.7698(4)
H8_2 H 0.636670 0.594059 0.811983
C8_2 C 0.6996(4) 0.6292(5) 0.6983(4)
C9_2 C 0.7592(5) 0.5940(5) 0.6406(4)
H9_2 H 0.783185 0.528296 0.648082
C10_2 C 0.7839(5) 0.6548(5) 0.5719(5)
H10_2 H 0.825081 0.629130 0.533122
C11_2 C 0.6974(5) 0.7803(5) 0.6159(5)
H11_2 H 0.676707 0.845582 0.608353
C12_2 C 0.6696(5) 0.7252(5) 0.6847(5)
H12_2 H 0.629828 0.752397 0.723277
O8_2 O 0.8251(4) 0.9560(4) 0.2416(4)
H1_2 H 0.864220 0.953527 0.204205
H2_2 H 0.848280 0.946607 0.282315
O9_2 O 0.6846(3) 0.9867(3) 0.3887(3)
O10_2 O 0.7656(3) 0.9631(3) 0.4821(3)
C14_2 C 0.6610(4) 0.9438(4) 0.0855(4)
C15_2 C 0.6190(4) 0.8994(5) 0.0666(5)
H13_2 H 0.559559 0.935481 0.047318
C16_2 C 0.6625(4) 0.8048(5) 0.0756(5)
H14_2 H 0.632933 0.776249 0.062209
C17_2 C 0.7505(4) 0.7492(4) 0.1046(4)
C18_2 C 0.7928(4) 0.7948(4) 0.1200(4)
H15_2 H 0.853159 0.759567 0.137042
C19_2 C 0.7487(4) 0.8907(5) 0.1110(4)
H16_2 H 0.778919 0.919990 0.122310
C20_2 C 0.6233(4) 0.2473(4) 0.1972(4)
C21_2 C 0.6597(4) 0.3140(4) 0.1977(4)
C22_2 C 0.6161(4) 0.4115(4) 0.1600(4)
H17_2 H 0.557427 0.438549 0.140578
C23_2 C 0.6569(4) 0.4697(4) 0.1503(4)
H18_2 H 0.625577 0.536359 0.124258
C24_2 C 0.7422(4) 0.4337(4) 0.1775(4)
C25_2 C 0.7820(4) 0.3350(5) 0.2228(5)
H19_2 H 0.837949 0.308388 0.247035
C26_2 C 0.7413(5) 0.2770(5) 0.2322(4)
H20_2 H 0.769355 0.211158 0.262552
C34_2 C 0.7981(4) 0.6454(4) 0.1184(4)
C35_2 C 0.7495(4) 0.5898(4) 0.1440(4)
H25_2 H 0.685745 0.618908 0.151854
C36_2 C 0.7938(4) 0.4917(5) 0.1582(4)
C37_2 C 0.8883(4) 0.4516(4) 0.1470(4)
H26_2 H 0.919218 0.385145 0.156610
C38_2 C 0.9381(4) 0.5043(4) 0.1228(4)
C39_2 C 0.8912(4) 0.6018(4) 0.1084(4)
H27_2 H 0.924136 0.639507 0.091279
C41_2 C 0.4873(6) 0.9647(7) 0.4099(5)
H29_2 H 0.464976 0.922127 0.454313
H31_2 H 0.551860 0.929671 0.399172
C42_2 C 0.3678(6) 0.9702(6) 0.3429(6)
H32_2 H 0.364037 0.926728 0.397842
H33_2 H 0.382195 0.937567 0.304013
O21 O 0.9388(3) 0.8242(4) 0.3901(4)
O22 O 0.9402(3) 0.6878(4) 0.4626(4)
C57_2 C 0.9798(4) 0.7369(5) 0.4217(4)
loop_
_geom_bond_atom_site_label_1
_geom_bond_atom_site_label_2
_geom_bond_site_symmetry_1
_geom_bond_site_symmetry_2
O13 C57 1_555 1_555
O14 C57 1_555 1_555
Cd10 O13 1_555 1_555
O14 Cd10 1_555 1_555
Cd10 O9 1_555 1_555
O3 C20 1_555 1_555
O4 C20 1_555 1_555
H1 O8 1_555 1_555
H2 O8 1_555 1_555
O10 Cd10 1_555 1_555
C15 C14 1_555 1_555
H13 C15 1_555 1_555
C16 C15 1_555 1_555
H14 C16 1_555 1_555
C17 C16 1_555 1_555
C18 C17 1_555 1_555
H15 C18 1_555 1_555
C19 C14 1_555 1_555
H16 C19 1_555 1_555
C20 C21 1_555 1_555
C21 C22 1_555 1_555
C22 H17 1_555 1_555
C23 C22 1_555 1_555
H18 C23 1_555 1_555
C24 C23 1_555 1_555
C25 C24 1_555 1_555
H19 C25 1_555 1_555
C26 C21 1_555 1_555
H20 C26 1_555 1_555
C34 C17 1_555 1_555
C35 C34 1_555 1_555
H25 C35 1_555 1_555
C36 C24 1_555 1_555
C37 C36 1_555 1_555
H26 C37 1_555 1_555
C39 C34 1_555 1_555
H27 C39 1_555 1_555
H29 C41 1_555 1_555
H31 C41 1_555 1_555
H32 C42 1_555 1_555
H33 C42 1_555 1_555
Cd5 O3 1_555 1_555
Cd7 O4 1_555 1_555
O20 Cd10 1_555 1_555
N4 Cd10 1_555 1_555
C18 C19 1_555 1_555
C25 C26 1_555 1_555
C35 C36 1_555 1_555
C37 C38 1_555 1_555
C38 C39 1_555 1_555
N4 C10 1_555 1_555
C1 N1 1_555 1_555
H3 C1 1_555 1_555
C2 C1 1_555 1_555
H4 C2 1_555 1_555
C3 C2 1_555 1_555
C4 C3 1_555 1_555
H5 C4 1_555 1_555
C5 N1 1_555 1_555
C6 C3 1_555 1_555
H7 C6 1_555 1_555
C7 C6 1_555 1_555
H8 C7 1_555 1_555
C8 C7 1_555 1_555
C9 C8 1_555 1_555
H9 C9 1_555 1_555
C10 C9 1_555 1_555
H10 C10 1_555 1_555
C11 N4 1_555 1_555
H11 C11 1_555 1_555
C12 C8 1_555 1_555
H12 C12 1_555 1_555
C4 C5 1_555 1_555
C11 C12 1_555 1_555
Cd5 O1 1_555 1_555
Cd7 O1 1_555 1_555
O1 C13 1_555 1_555
O2 Cd5 1_555 1_555
O7 Cd7 1_555 1_555
O19 C50 1_555 1_555
O20 C50 1_555 1_555
N3 C40 1_555 1_555
C13 O2 1_555 1_555
C40 O7 1_555 1_555
H28 C40 1_555 1_555
C44 C43 1_555 1_555
C45 C44 1_555 1_555
H35 C45 1_555 1_555
C46 C45 1_555 1_555
H36 C46 1_555 1_555
C47 C46 1_555 1_555
C48 C47 1_555 1_555
H37 C48 1_555 1_555
C49 C44 1_555 1_555
H38 C49 1_555 1_555
C50 C51 1_555 1_555
C51 C52 1_555 1_555
C52 H39 1_555 1_555
C53 C52 1_555 1_555
H40 C53 1_555 1_555
C54 C53 1_555 1_555
C55 C54 1_555 1_555
H41 C55 1_555 1_555
C56 C51 1_555 1_555
H42 C56 1_555 1_555
C58 C59 1_555 1_555
C59 H43 1_555 1_555
C60 C59 1_555 1_555
H44 C60 1_555 1_555
C61 C60 1_555 1_555
C62 C61 1_555 1_555
H45 C62 1_555 1_555
C63 C58 1_555 1_555
H46 C63 1_555 1_555
C64 C47 1_555 1_555
C65 C64 1_555 1_555
H47 C65 1_555 1_555
C66 C54 1_555 1_555
C67 C66 1_555 1_555
H48 C67 1_555 1_555
C68 C61 1_555 1_555
C69 C64 1_555 1_555
H49 C69 1_555 1_555
O17 Cd5 1_555 1_555
O18 Cd5 1_555 1_555
C48 C49 1_555 1_555
C55 C56 1_555 1_555
C62 C63 1_555 1_555
C65 C66 1_555 1_555
C67 C68 1_555 1_555
C68 C69 1_555 1_555
O17 C27 1_555 1_555
O18 C27 1_555 1_555
C27 C28 1_555 1_555
C28 C29 1_555 1_555
C29 H21 1_555 1_555
C30 C29 1_555 1_555
H22 C30 1_555 1_555
C31 C30 1_555 1_555
C32 C31 1_555 1_555
H23 C32 1_555 1_555
C33 C28 1_555 1_555
H24 C33 1_555 1_555
C32 C33 1_555 1_555
O5 C27_2 1_555 1_555
O6 C27_2 1_555 1_555
C27_2 C28_2 1_555 1_555
C28_2 C29_2 1_555 1_555
C29_2 H21_2 1_555 1_555
C30_2 C29_2 1_555 1_555
H22_2 C30_2 1_555 1_555
C31_2 C30_2 1_555 1_555
C32_2 C31_2 1_555 1_555
H23_2 C32_2 1_555 1_555
C33_2 C28_2 1_555 1_555
H24_2 C33_2 1_555 1_555
Cd4 O5 1_555 1_555
O6 Cd4 1_555 1_555
C32_2 C33_2 1_555 1_555
Cd4 O1_2 1_555 1_555
Cd6 O1_2 1_555 1_555
O1_2 C13_2 1_555 1_555
O2_2 Cd4 1_555 1_555
O7_2 Cd6 1_555 1_555
O11 C50_2 1_555 1_555
O12 C50_2 1_555 1_555
N3_2 C40_2 1_555 1_555
C13_2 O2_2 1_555 1_555
C40_2 O7_2 1_555 1_555
H28_2 C40_2 1_555 1_555
C44_2 C43_2 1_555 1_555
C45_2 C44_2 1_555 1_555
H35_2 C45_2 1_555 1_555
C46_2 C45_2 1_555 1_555
H36_2 C46_2 1_555 1_555
C47_2 C46_2 1_555 1_555
C48_2 C47_2 1_555 1_555
H37_2 C48_2 1_555 1_555
C49_2 C44_2 1_555 1_555
H38_2 C49_2 1_555 1_555
C50_2 C51_2 1_555 1_555
C51_2 C52_2 1_555 1_555
C52_2 H39_2 1_555 1_555
C53_2 C52_2 1_555 1_555
H40_2 C53_2 1_555 1_555
C54_2 C53_2 1_555 1_555
C55_2 C54_2 1_555 1_555
H41_2 C55_2 1_555 1_555
C56_2 C51_2 1_555 1_555
H42_2 C56_2 1_555 1_555
C58_2 C59_2 1_555 1_555
C59_2 H43_2 1_555 1_555
C60_2 C59_2 1_555 1_555
H44_2 C60_2 1_555 1_555
C61_2 C60_2 1_555 1_555
C62_2 C61_2 1_555 1_555
H45_2 C62_2 1_555 1_555
C63_2 C58_2 1_555 1_555
H46_2 C63_2 1_555 1_555
C64_2 C47_2 1_555 1_555
C65_2 C64_2 1_555 1_555
H47_2 C65_2 1_555 1_555
C66_2 C54_2 1_555 1_555
C67_2 C66_2 1_555 1_555
H48_2 C67_2 1_555 1_555
C68_2 C61_2 1_555 1_555
C69_2 C64_2 1_555 1_555
H49_2 C69_2 1_555 1_555
Cd8 O12 1_555 1_555
O15 Cd4 1_555 1_555
O16 Cd6 1_555 1_555
C48_2 C49_2 1_555 1_555
C55_2 C56_2 1_555 1_555
C62_2 C63_2 1_555 1_555
C65_2 C66_2 1_555 1_555
C67_2 C68_2 1_555 1_555
C68_2 C69_2 1_555 1_555
N2 C10_2 1_555 1_555
C1_2 N1_2 1_555 1_555
H3_2 C1_2 1_555 1_555
C2_2 C1_2 1_555 1_555
H4_2 C2_2 1_555 1_555
C3_2 C2_2 1_555 1_555
C4_2 C3_2 1_555 1_555
H5_2 C4_2 1_555 1_555
C5_2 N1_2 1_555 1_555
C6_2 C3_2 1_555 1_555
H7_2 C6_2 1_555 1_555
C7_2 C6_2 1_555 1_555
H8_2 C7_2 1_555 1_555
C8_2 C7_2 1_555 1_555
C9_2 C8_2 1_555 1_555
H9_2 C9_2 1_555 1_555
C10_2 C9_2 1_555 1_555
H10_2 C10_2 1_555 1_555
C11_2 N2 1_555 1_555
H11_2 C11_2 1_555 1_555
C12_2 C8_2 1_555 1_555
H12_2 C12_2 1_555 1_555
Cd8 N2 1_555 1_555
C4_2 C5_2 1_555 1_555
C11_2 C12_2 1_555 1_555
Cd8 O9_2 1_555 1_555
O15 C20_2 1_555 1_555
O16 C20_2 1_555 1_555
H1_2 O8_2 1_555 1_555
H2_2 O8_2 1_555 1_555
O10_2 Cd8 1_555 1_555
C15_2 C14_2 1_555 1_555
H13_2 C15_2 1_555 1_555
C16_2 C15_2 1_555 1_555
H14_2 C16_2 1_555 1_555
C17_2 C16_2 1_555 1_555
C18_2 C17_2 1_555 1_555
H15_2 C18_2 1_555 1_555
C19_2 C14_2 1_555 1_555
H16_2 C19_2 1_555 1_555
C20_2 C21_2 1_555 1_555
C21_2 C22_2 1_555 1_555
C22_2 H17_2 1_555 1_555
C23_2 C22_2 1_555 1_555
H18_2 C23_2 1_555 1_555
C24_2 C23_2 1_555 1_555
C25_2 C24_2 1_555 1_555
H19_2 C25_2 1_555 1_555
C26_2 C21_2 1_555 1_555
H20_2 C26_2 1_555 1_555
C34_2 C17_2 1_555 1_555
C35_2 C34_2 1_555 1_555
H25_2 C35_2 1_555 1_555
C36_2 C24_2 1_555 1_555
C37_2 C36_2 1_555 1_555
H26_2 C37_2 1_555 1_555
C39_2 C34_2 1_555 1_555
H27_2 C39_2 1_555 1_555
H29_2 C41_2 1_555 1_555
H31_2 C41_2 1_555 1_555
H32_2 C42_2 1_555 1_555
H33_2 C42_2 1_555 1_555
O21 Cd8 1_555 1_555
O22 Cd8 1_555 1_555
C18_2 C19_2 1_555 1_555
C25_2 C26_2 1_555 1_555
C35_2 C36_2 1_555 1_555
C37_2 C38_2 1_555 1_555
C38_2 C39_2 1_555 1_555
O21 C57_2 1_555 1_555
O22 C57_2 1_555 1_555

#END
