
###############################################################################
#
# This file contains modified crystal structure data generated from the
# MOF subset of the Cambridge Structural Database (CSD) v543 
# hosted by the Cambridge Crystallographic Data Centre (CCDC).
#
# This work is licensed under the Creative Commons
# Attribution-NonCommercial-ShareAlike 4.0 International License.
# To view a copy of this license, visit
# http://creativecommons.org/licenses/by-nc-sa/4.0/
# or send a letter to
# Creative Commons, PO Box 1866, Mountain View, CA 94042, USA.
#
# CIF created using the CSD Python API on 29 September 2022
# The structure has been converted into the P1 space group
# The structure has a 3D framework
# The original CSD entry AJIMEN is in the triclinic crystal system
# The framework has been calculated to contain at least 10.0% void space
# The void calculation uses a probe of radius 1.32A, grid spacing 0.4
#
###############################################################################

data_AJIMEN
_chemical_formula_moiety         '(C16 H20 N20 O8 Zn4)n'
_symmetry_cell_setting           triclinic
_symmetry_space_group_name_H-M   'P 1'
_symmetry_Int_Tables_number      1
_space_group_name_Hall           'P 1'
loop_
_symmetry_equiv_pos_site_id
_symmetry_equiv_pos_as_xyz
1 x,y,z
_cell_length_a                   9.1754(7)
_cell_length_b                   10.0864(7)
_cell_length_c                   11.9515(8)
_cell_angle_alpha                107.567(6)
_cell_angle_beta                 101.469(6)
_cell_angle_gamma                92.975(6)
_cell_volume                     1025.99
loop_
_atom_site_label
_atom_site_type_symbol
_atom_site_fract_x
_atom_site_fract_y
_atom_site_fract_z
Zn6 Zn 0.09612(4) 0.14656(4) 0.63291(3)
N13 N 0.1083(3) 0.8556(3) 0.4630(2)
C3 C 0.7451(3) 0.1049(3) 0.3580(3)
C4 C 0.8046(3) 0.2454(3) 0.5382(3)
N6 N 0.6772(4) 0.0457(3) 0.2425(3)
H8 H 0.6083 0.0852 0.2090
N7 N 0.8065(4) 0.3545(3) 0.6360(3)
H9 H 0.8669 0.3621 0.7032
H10 H 0.7474 0.4171 0.6316
N8 N 0.7094(3) 0.2249(3) 0.4290(2)
N9 N 0.8526(3) 0.0507(3) 0.4163(2)
N10 N 0.8917(3) 0.1444(3) 0.5370(2)
Zn5 Zn 0.54869(4) 0.34630(4) 0.39441(3)
Zn1 Zn 0.45131(4) 0.65370(4) 0.60559(3)
Zn2 Zn 0.90388(4) 0.85344(4) 0.36709(3)
C1 C 0.6567(4) 0.7658(3) 0.4793(3)
C2 C 0.7489(4) 0.5878(3) 0.3874(3)
C5 C 0.8902(4) 0.7054(4) 0.1233(3)
H2 H 0.6683 0.8122 0.0030
N1 N 0.6299(4) 0.9003(3) 0.5233(4)
H3 H 0.5633 0.9201 0.5652
H4 H 0.6796 0.9659 0.5094
N2 N 0.8314(5) 0.5055(4) 0.3226(4)
H5 H 0.8193 0.4165 0.3093
H6 H 0.8968 0.5414 0.2942
N3 N 0.7598(3) 0.7276(3) 0.4117(2)
N4 N 0.5869(3) 0.6586(3) 0.4956(2)
N5 N 0.6458(3) 0.5404(3) 0.4343(2)
H7 H 0.7023 0.9681 0.2013
O1 O 0.8465(3) 0.8103(3) 0.19251(19)
O2 O 0.9699(3) 0.6265(3) 0.1596(2)
N11 N 0.3542(3) 0.4596(3) 0.5657(2)
N12 N 0.2906(3) 0.7751(3) 0.5710(2)
O5 O 0.5250(3) 0.7487(3) 0.7798(2)
C6 C 0.8348(6) 0.6736(5) 0.9883(3)
H1 H 0.8800 0.6135 0.9332
C7 C 0.7059(5) 0.7428(4) 0.9491(3)
C8 C 0.6396(4) 0.6934(4) 0.8162(3)
O4 O 0.6921(4) 0.6038(3) 0.7463(2)
C6_2 C 0.1652(6) 0.3264(5) 0.0117(3)
H1_2 H 0.1200 0.3865 0.0668
C7_2 C 0.2941(5) 0.2572(4) 0.0509(3)
C8_2 C 0.3604(4) 0.3066(4) 0.1838(3)
O3 O 0.4750(3) 0.2513(3) 0.2202(2)
O4_2 O 0.3079(4) 0.3962(3) 0.2537(2)
C1_2 C 0.3433(4) 0.2342(3) 0.5207(3)
C2_2 C 0.2511(4) 0.4122(3) 0.6126(3)
C5_2 C 0.1098(4) 0.2946(4) 0.8767(3)
H2_2 H 0.3317 0.1878 0.9970
N1_2 N 0.3701(4) 0.0997(3) 0.4767(4)
H3_2 H 0.4367 0.0799 0.4348
H4_2 H 0.3204 0.0341 0.4906
N2_2 N 0.1686(5) 0.4945(4) 0.6774(4)
H5_2 H 0.1807 0.5835 0.6907
H6_2 H 0.1032 0.4586 0.7058
N3_2 N 0.2402(3) 0.2724(3) 0.5883(2)
N4_2 N 0.4131(3) 0.3414(3) 0.5044(2)
H7_2 H 0.2977 0.0319 0.7987
O1_2 O 0.1535(3) 0.1897(3) 0.80749(19)
O2_2 O 0.0301(3) 0.3735(3) 0.8404(2)
C3_2 C 0.2549(3) 0.8951(3) 0.6420(3)
C4_2 C 0.1954(3) 0.7546(3) 0.4618(3)
N6_2 N 0.3228(4) 0.9543(3) 0.7575(3)
H8_2 H 0.3917 0.9148 0.7910
N7_2 N 0.1935(4) 0.6455(3) 0.3640(3)
H9_2 H 0.1331 0.6379 0.2968
H10_2 H 0.2526 0.5829 0.3684
N9_2 N 0.1474(3) 0.9493(3) 0.5837(2)
loop_
_geom_bond_atom_site_label_1
_geom_bond_atom_site_label_2
_geom_bond_site_symmetry_1
_geom_bond_site_symmetry_2
C3 N6 1_555 1_555
C4 N7 1_555 1_555
H8 N6 1_555 1_555
N7 H9 1_555 1_555
H10 N7 1_555 1_555
N8 C3 1_555 1_555
N10 C4 1_555 1_555
Zn5 N8 1_555 1_555
C3 N9 1_555 1_555
C4 N8 1_555 1_555
N9 N10 1_555 1_555
Zn1 N4 1_555 1_555
Zn2 N3 1_555 1_555
C1 N1 1_555 1_555
C2 N2 1_555 1_555
N1 H3 1_555 1_555
H4 N1 1_555 1_555
N2 H5 1_555 1_555
H6 N2 1_555 1_555
N3 C1 1_555 1_555
N4 C1 1_555 1_555
N5 C2 1_555 1_555
O1 Zn2 1_555 1_555
O2 C5 1_555 1_555
Zn5 N5 1_555 1_555
N11 Zn1 1_555 1_555
N12 Zn1 1_555 1_555
O5 Zn1 1_555 1_555
C2 N3 1_555 1_555
C5 O1 1_555 1_555
N4 N5 1_555 1_555
C6 H1 1_555 1_555
C7 C6 1_555 1_555
C8 C7 1_555 1_555
O5 C8 1_555 1_555
O4 C8 1_555 1_555
C6_2 H1_2 1_555 1_555
C7_2 C6_2 1_555 1_555
C8_2 C7_2 1_555 1_555
O3 C8_2 1_555 1_555
O4_2 C8_2 1_555 1_555
Zn5 O3 1_555 1_555
Zn5 N4_2 1_555 1_555
Zn6 N3_2 1_555 1_555
C1_2 N1_2 1_555 1_555
C2_2 N2_2 1_555 1_555
N1_2 H3_2 1_555 1_555
H4_2 N1_2 1_555 1_555
N2_2 H5_2 1_555 1_555
H6_2 N2_2 1_555 1_555
N3_2 C1_2 1_555 1_555
N4_2 C1_2 1_555 1_555
N11 C2_2 1_555 1_555
O1_2 Zn6 1_555 1_555
O2_2 C5_2 1_555 1_555
C2_2 N3_2 1_555 1_555
C5_2 O1_2 1_555 1_555
N4_2 N11 1_555 1_555
C3_2 N6_2 1_555 1_555
C4_2 N7_2 1_555 1_555
H8_2 N6_2 1_555 1_555
N7_2 H9_2 1_555 1_555
H10_2 N7_2 1_555 1_555
N12 C3_2 1_555 1_555
N13 C4_2 1_555 1_555
C3_2 N9_2 1_555 1_555
C4_2 N12 1_555 1_555
N9_2 N13 1_555 1_555

#END
