
###############################################################################
#
# This file contains modified crystal structure data generated from the
# MOF subset of the Cambridge Structural Database (CSD) v543 
# hosted by the Cambridge Crystallographic Data Centre (CCDC).
#
# This work is licensed under the Creative Commons
# Attribution-NonCommercial-ShareAlike 4.0 International License.
# To view a copy of this license, visit
# http://creativecommons.org/licenses/by-nc-sa/4.0/
# or send a letter to
# Creative Commons, PO Box 1866, Mountain View, CA 94042, USA.
#
# CIF created using the CSD Python API on 29 September 2022
# The structure has been converted into the P1 space group
# The structure has a 3D framework
# The original CSD entry AKEPOY is in the orthorhombic crystal system
# The framework has been calculated to contain at least 10.0% void space
# The void calculation uses a probe of radius 1.32A, grid spacing 0.4
#
###############################################################################

data_AKEPOY
_chemical_formula_moiety         '(C96 H72 O30 P12 Y4)n'
_symmetry_cell_setting           triclinic
_symmetry_space_group_name_H-M   'P 1'
_symmetry_Int_Tables_number      1
_space_group_name_Hall           'P 1'
loop_
_symmetry_equiv_pos_site_id
_symmetry_equiv_pos_as_xyz
1 x,y,z
_cell_length_a                   9.835(3)
_cell_length_b                   16.634(5)
_cell_length_c                   23.500(8)
_cell_angle_alpha                90
_cell_angle_beta                 90
_cell_angle_gamma                90
_cell_volume                     3844.49
loop_
_atom_site_label
_atom_site_type_symbol
_atom_site_fract_x
_atom_site_fract_y
_atom_site_fract_z
Y1 Y 0.82083(10) 0.74279(8) 0.79728(9)
P1 P 0.5671(4) 0.5975(3) 0.8120(3)
O1 O 0.6914(10) 0.6342(6) 0.7846(7)
O2 O 0.4486(10) 0.6510(7) 0.8196(6)
O3 O 0.6123(19) 0.5662(9) 0.8741(8)
H1 H 0.6615 0.5252 0.8706
O5 O 0.0351(10) 0.3375(7) 0.3421(5)
C1 C 0.5103(15) 0.5093(11) 0.7724(9)
C2 C 0.371(2) 0.4966(16) 0.7624(14)
H4 H 0.3026 0.5312 0.7773
C3 C 0.3397(17) 0.4321(14) 0.7301(12)
H5 H 0.2472 0.4262 0.7193
C4 C 0.4261(16) 0.3754(11) 0.7117(9)
C5 C 0.5599(17) 0.3828(14) 0.7283(13)
H6 H 0.6234 0.3420 0.7185
C6 C 0.603(2) 0.4494(13) 0.7591(12)
H7 H 0.6948 0.4538 0.7708
C7 C 0.3838(17) 0.3050(11) 0.6767(8)
C8 C 0.2840(16) 0.3165(11) 0.6332(8)
H8 H 0.2431 0.3679 0.6289
C9 C 0.2469(17) 0.2567(11) 0.5983(9)
C10 C 0.3001(13) 0.1784(11) 0.6081(8)
H9 H 0.2740 0.1355 0.5838
C11 C 0.3898(14) 0.1637(10) 0.6528(8)
C12 C 0.4345(16) 0.2277(11) 0.6870(8)
H10 H 0.4982 0.2187 0.7167
C13 C 0.1566(14) 0.2750(11) 0.5512(8)
C14 C 0.163(2) 0.3477(13) 0.5245(10)
H11 H 0.2197 0.3879 0.5407
C15 C 0.0921(19) 0.3672(14) 0.4750(9)
H12 H 0.1068 0.4177 0.4572
C18 C 0.0656(17) 0.2209(13) 0.5260(9)
H14 H 0.0565 0.1692 0.5427
C19 C 0.4410(12) 0.0804(10) 0.6632(8)
C20 C 0.4605(16) 0.0547(11) 0.7200(8)
H15 H 0.4456 0.0896 0.7515
C24 C 0.4729(19) 0.0306(12) 0.6207(8)
H18 H 0.4640 0.0493 0.5827
Y3 Y 0.17917(10) 0.25721(8) 0.29728(9)
Y5 Y 0.32083(10) 0.75721(8) 0.79728(9)
O10 O 0.9486(10) 0.8490(7) 0.8196(6)
O11 O 0.9649(10) 0.6625(7) 0.8421(5)
O12 O 0.6886(10) 0.7767(8) 0.8725(6)
O13 O 0.6901(10) 0.8152(8) 0.7388(6)
O14 O 0.9468(10) 0.7213(8) 0.7173(6)
P3 P 0.5729(4) 0.8196(3) 0.6980(2)
O7 O 0.6139(16) 0.7811(10) 0.6392(6)
H3 H 0.6400 0.7336 0.6444
O9 O 0.4468(10) 0.7787(8) 0.7173(6)
C21 C 0.5036(19) 0.9738(12) 0.7273(9)
H16 H 0.5142 0.9548 0.7652
C22 C 0.5304(14) 0.9221(11) 0.6850(8)
C23 C 0.519(2) 0.9514(14) 0.6298(10)
H17 H 0.5430 0.9183 0.5983
P2 P 0.9217(4) 0.3338(3) 0.3850(2)
O4 O 0.8628(13) 0.4229(8) 0.3883(6)
H2 H 0.8306 0.4312 0.4209
O6 O 0.8114(10) 0.2767(8) 0.3725(6)
C16 C 0.9984(14) 0.3122(11) 0.4512(8)
C17 C 0.9873(16) 0.2379(11) 0.4779(8)
H13 H 0.9264 0.1986 0.4634
Y6 Y 0.67917(10) 0.24279(8) 0.29728(9)
P2_2 P 0.0783(4) 0.6662(3) 0.8850(2)
O4_2 O 0.1372(13) 0.5771(8) 0.8883(6)
H2_2 H 0.1694 0.5688 0.9209
O6_2 O 0.1886(10) 0.7233(8) 0.8725(6)
C16_2 C 0.0016(14) 0.6878(11) 0.9512(8)
C17_2 C 0.0127(16) 0.7621(11) 0.9779(8)
H13_2 H 0.0736 0.8014 0.9634
P3_2 P 0.4271(4) 0.1804(3) 0.1980(2)
O7_2 O 0.3861(16) 0.2189(10) 0.1392(6)
H3_2 H 0.3600 0.2664 0.1444
O8 O 0.3099(10) 0.1848(8) 0.2388(6)
O9_2 O 0.5532(10) 0.2213(8) 0.2173(6)
C21_2 C 0.4964(19) 0.0262(12) 0.2273(9)
H16_2 H 0.4858 0.0452 0.2652
C22_2 C 0.4696(14) 0.0779(11) 0.1850(8)
C23_2 C 0.481(2) 0.0486(14) 0.1298(10)
H17_2 H 0.4570 0.0817 0.0983
P1_2 P 0.4329(4) 0.4025(3) 0.3120(3)
O1_2 O 0.3086(10) 0.3658(6) 0.2846(7)
O2_2 O 0.5514(10) 0.3490(7) 0.3196(6)
O3_2 O 0.3877(19) 0.4338(9) 0.3741(8)
H1_2 H 0.3385 0.4748 0.3706
C1_2 C 0.4897(15) 0.4907(11) 0.2724(9)
C2_2 C 0.629(2) 0.5034(16) 0.2624(14)
H4_2 H 0.6974 0.4688 0.2773
C3_2 C 0.6603(17) 0.5679(14) 0.2301(12)
H5_2 H 0.7528 0.5738 0.2193
C4_2 C 0.5739(16) 0.6246(11) 0.2117(9)
C5_2 C 0.4401(17) 0.6172(14) 0.2283(13)
H6_2 H 0.3766 0.6580 0.2185
C6_2 C 0.397(2) 0.5506(13) 0.2591(12)
H7_2 H 0.3052 0.5462 0.2708
C7_2 C 0.6162(17) 0.6950(11) 0.1767(8)
C8_2 C 0.7160(16) 0.6835(11) 0.1332(8)
H8_2 H 0.7569 0.6321 0.1289
C9_2 C 0.7531(17) 0.7433(11) 0.0983(9)
C10_2 C 0.6999(13) 0.8216(11) 0.1081(8)
H9_2 H 0.7260 0.8645 0.0838
C11_2 C 0.6102(14) 0.8363(10) 0.1528(8)
C12_2 C 0.5655(16) 0.7723(11) 0.1870(8)
H10_2 H 0.5018 0.7813 0.2167
C13_2 C 0.8434(14) 0.7250(11) 0.0512(8)
C14_2 C 0.837(2) 0.6523(13) 0.0245(10)
H11_2 H 0.7803 0.6121 0.0407
C18_2 C 0.9344(17) 0.7791(13) 0.0260(9)
H14_2 H 0.9435 0.8308 0.0427
C19_2 C 0.5590(12) 0.9196(10) 0.1632(8)
C20_2 C 0.5395(16) 0.9453(11) 0.2200(8)
H15_2 H 0.5544 0.9104 0.2515
C24_2 C 0.5271(19) 0.9694(12) 0.1207(8)
H18_2 H 0.5360 0.9507 0.0827
O10_2 O 0.0514(10) 0.1510(7) 0.3196(6)
O12_2 O 0.3114(10) 0.2233(8) 0.3725(6)
O14_2 O 0.0532(10) 0.2787(8) 0.2173(6)
C15_2 C 0.9079(19) 0.6328(14) 0.9750(9)
H12_2 H 0.8932 0.5823 0.9572
P3_3 P 0.0729(4) 0.6804(3) 0.6980(2)
O7_3 O 0.1139(16) 0.7189(10) 0.6392(6)
H3_3 H 0.1400 0.7664 0.6444
O8_2 O 0.1901(10) 0.6848(8) 0.7388(6)
C5_3 C 0.0599(17) 0.1172(14) 0.7283(13)
H6_3 H 0.1234 0.1580 0.7185
C6_3 C 0.103(2) 0.0506(13) 0.7591(12)
H7_3 H 0.1948 0.0462 0.7708
C21_3 C 0.0036(19) 0.5262(12) 0.7273(9)
H16_3 H 0.0142 0.5452 0.7652
C22_3 C 0.0304(14) 0.5779(11) 0.6850(8)
C23_3 C 0.019(2) 0.5486(14) 0.6298(10)
H17_3 H 0.0430 0.5817 0.5983
P1_3 P 0.0671(4) 0.9025(3) 0.8120(3)
O1_3 O 0.1914(10) 0.8658(6) 0.7846(7)
O3_3 O 0.1123(19) 0.9338(9) 0.8741(8)
H1_3 H 0.1615 0.9748 0.8706
C1_3 C 0.0103(15) 0.9907(11) 0.7724(9)
O11_2 O 0.4649(10) 0.8375(7) 0.8421(5)
P2_3 P 0.4217(4) 0.1662(3) 0.3850(2)
O4_3 O 0.3628(13) 0.0771(8) 0.3883(6)
H2_3 H 0.3306 0.0688 0.4209
O5_2 O 0.5351(10) 0.1625(7) 0.3421(5)
C2_3 C 0.871(2) 0.0034(16) 0.7624(14)
C3_3 C 0.8397(17) 0.0679(14) 0.7301(12)
H5_3 H 0.7472 0.0738 0.7193
C4_3 C 0.9261(16) 0.1246(11) 0.7117(9)
C7_3 C 0.8838(17) 0.1950(11) 0.6767(8)
C8_3 C 0.7840(16) 0.1835(11) 0.6332(8)
H8_3 H 0.7431 0.1321 0.6289
C9_3 C 0.7469(17) 0.2433(11) 0.5983(9)
C10_3 C 0.8001(13) 0.3216(11) 0.6081(8)
H9_3 H 0.7740 0.3645 0.5838
C11_3 C 0.8898(14) 0.3363(10) 0.6528(8)
C12_3 C 0.9345(16) 0.2723(11) 0.6870(8)
H10_3 H 0.9982 0.2813 0.7167
C13_3 C 0.6566(14) 0.2250(11) 0.5512(8)
C14_3 C 0.663(2) 0.1523(13) 0.5245(10)
H11_3 H 0.7197 0.1121 0.5407
C15_3 C 0.5921(19) 0.1328(14) 0.4750(9)
H12_3 H 0.6068 0.0823 0.4572
C16_3 C 0.4984(14) 0.1878(11) 0.4512(8)
C17_3 C 0.4873(16) 0.2621(11) 0.4779(8)
H13_3 H 0.4264 0.3014 0.4634
C18_3 C 0.5656(17) 0.2791(13) 0.5260(9)
H14_3 H 0.5565 0.3308 0.5427
C19_3 C 0.9410(12) 0.4196(10) 0.6632(8)
C20_3 C 0.9605(16) 0.4453(11) 0.7200(8)
H15_3 H 0.9456 0.4104 0.7515
C24_3 C 0.9729(19) 0.4694(12) 0.6207(8)
H18_3 H 0.9640 0.4507 0.5827
H4_3 H 0.8026 0.9688 0.7773
H4_4 H 0.1974 0.0312 0.2773
C2_4 C 0.129(2) 0.9966(16) 0.2624(14)
C3_4 C 0.1603(17) 0.9321(14) 0.2301(12)
H5_4 H 0.2528 0.9262 0.2193
C4_4 C 0.0739(16) 0.8754(11) 0.2117(9)
C7_4 C 0.1162(17) 0.8050(11) 0.1767(8)
C8_4 C 0.2160(16) 0.8165(11) 0.1332(8)
H8_4 H 0.2569 0.8679 0.1289
C9_4 C 0.2531(17) 0.7567(11) 0.0983(9)
C10_4 C 0.1999(13) 0.6784(11) 0.1081(8)
H9_4 H 0.2260 0.6355 0.0838
C11_4 C 0.1102(14) 0.6637(10) 0.1528(8)
C12_4 C 0.0655(16) 0.7277(11) 0.1870(8)
H10_4 H 0.0018 0.7187 0.2167
C13_4 C 0.3434(14) 0.7750(11) 0.0512(8)
C14_4 C 0.337(2) 0.8477(13) 0.0245(10)
H11_4 H 0.2803 0.8879 0.0407
C18_4 C 0.4344(17) 0.7209(13) 0.0260(9)
H14_4 H 0.4435 0.6692 0.0427
C19_4 C 0.0590(12) 0.5804(10) 0.1632(8)
C20_4 C 0.0395(16) 0.5547(11) 0.2200(8)
H15_4 H 0.0544 0.5896 0.2515
C24_4 C 0.0271(19) 0.5306(12) 0.1207(8)
H18_4 H 0.0360 0.5493 0.0827
P2_4 P 0.5783(4) 0.8338(3) 0.8850(2)
O4_4 O 0.6372(13) 0.9229(8) 0.8883(6)
H2_4 H 0.6694 0.9312 0.9209
C15_4 C 0.4079(19) 0.8672(14) 0.9750(9)
H12_4 H 0.3932 0.9177 0.9572
C16_4 C 0.5016(14) 0.8122(11) 0.9512(8)
C17_4 C 0.5127(16) 0.7379(11) 0.9779(8)
H13_4 H 0.5736 0.6986 0.9634
P1_4 P 0.9329(4) 0.0975(3) 0.3120(3)
O1_4 O 0.8086(10) 0.1342(6) 0.2846(7)
O3_4 O 0.8877(19) 0.0662(9) 0.3741(8)
H1_4 H 0.8385 0.0252 0.3706
C1_4 C 0.9897(15) 0.0093(11) 0.2724(9)
O13_2 O 0.8099(10) 0.3152(8) 0.2388(6)
P3_4 P 0.9271(4) 0.3196(3) 0.1980(2)
O7_4 O 0.8861(16) 0.2811(10) 0.1392(6)
H3_4 H 0.8600 0.2336 0.1444
C5_4 C 0.9401(17) 0.8828(14) 0.2283(13)
H6_4 H 0.8766 0.8420 0.2185
C6_4 C 0.897(2) 0.9494(13) 0.2591(12)
H7_4 H 0.8052 0.9538 0.2708
C21_4 C 0.9964(19) 0.4738(12) 0.2273(9)
H16_4 H 0.9858 0.4548 0.2652
C22_4 C 0.9696(14) 0.4221(11) 0.1850(8)
C23_4 C 0.981(2) 0.4514(14) 0.1298(10)
H17_4 H 0.9570 0.4183 0.0983
loop_
_geom_bond_atom_site_label_1
_geom_bond_atom_site_label_2
_geom_bond_site_symmetry_1
_geom_bond_site_symmetry_2
Y1 O1 1_555 1_555
P1 O1 1_555 1_555
O2 P1 1_555 1_555
O3 P1 1_555 1_555
H1 O3 1_555 1_555
C1 P1 1_555 1_555
C2 C1 1_555 1_555
H4 C2 1_555 1_555
C3 C2 1_555 1_555
H5 C3 1_555 1_555
C4 C3 1_555 1_555
C5 C4 1_555 1_555
H6 C5 1_555 1_555
C6 C1 1_555 1_555
H7 C6 1_555 1_555
C7 C4 1_555 1_555
C8 C7 1_555 1_555
H8 C8 1_555 1_555
C9 C8 1_555 1_555
C10 C9 1_555 1_555
H9 C10 1_555 1_555
C11 C10 1_555 1_555
C12 C7 1_555 1_555
H10 C12 1_555 1_555
C13 C9 1_555 1_555
C14 C13 1_555 1_555
H11 C14 1_555 1_555
C15 C14 1_555 1_555
H12 C15 1_555 1_555
C18 C13 1_555 1_555
H14 C18 1_555 1_555
C19 C11 1_555 1_555
C20 C19 1_555 1_555
H15 C20 1_555 1_555
C24 C19 1_555 1_555
H18 C24 1_555 1_555
Y3 O5 1_555 1_555
Y5 O2 1_555 1_555
O10 Y1 1_555 1_555
O11 Y1 1_555 1_555
O12 Y1 1_555 1_555
O13 Y1 1_555 1_555
O14 Y1 1_555 1_555
C5 C6 1_555 1_555
C11 C12 1_555 1_555
P3 O7 1_555 1_555
O7 H3 1_555 1_555
O13 P3 1_555 1_555
O9 P3 1_555 1_555
H16 C21 1_555 1_555
C22 P3 1_555 1_555
C23 C22 1_555 1_555
H17 C23 1_555 1_555
Y5 O9 1_555 1_555
C21 C22 1_555 1_555
P2 O4 1_555 1_555
O4 H2 1_555 1_555
O6 P2 1_555 1_555
C16 P2 1_555 1_555
C17 C16 1_555 1_555
H13 C17 1_555 1_555
Y6 O6 1_555 1_555
P2_2 O4_2 1_555 1_555
O4_2 H2_2 1_555 1_555
O6_2 P2_2 1_555 1_555
C16_2 P2_2 1_555 1_555
C17_2 C16_2 1_555 1_555
H13_2 C17_2 1_555 1_555
Y5 O6_2 1_555 1_555
P3_2 O7_2 1_555 1_555
O7_2 H3_2 1_555 1_555
O8 P3_2 1_555 1_555
O9_2 P3_2 1_555 1_555
H16_2 C21_2 1_555 1_555
C22_2 P3_2 1_555 1_555
C23_2 C22_2 1_555 1_555
H17_2 C23_2 1_555 1_555
Y3 O8 1_555 1_555
Y6 O9_2 1_555 1_555
C21_2 C22_2 1_555 1_555
Y3 O1_2 1_555 1_555
P1_2 O1_2 1_555 1_555
O2_2 P1_2 1_555 1_555
O3_2 P1_2 1_555 1_555
H1_2 O3_2 1_555 1_555
C1_2 P1_2 1_555 1_555
C2_2 C1_2 1_555 1_555
H4_2 C2_2 1_555 1_555
C3_2 C2_2 1_555 1_555
H5_2 C3_2 1_555 1_555
C4_2 C3_2 1_555 1_555
C5_2 C4_2 1_555 1_555
H6_2 C5_2 1_555 1_555
C6_2 C1_2 1_555 1_555
H7_2 C6_2 1_555 1_555
C7_2 C4_2 1_555 1_555
C8_2 C7_2 1_555 1_555
H8_2 C8_2 1_555 1_555
C9_2 C8_2 1_555 1_555
C10_2 C9_2 1_555 1_555
H9_2 C10_2 1_555 1_555
C11_2 C10_2 1_555 1_555
C12_2 C7_2 1_555 1_555
H10_2 C12_2 1_555 1_555
C13_2 C9_2 1_555 1_555
C14_2 C13_2 1_555 1_555
H11_2 C14_2 1_555 1_555
C18_2 C13_2 1_555 1_555
H14_2 C18_2 1_555 1_555
C19_2 C11_2 1_555 1_555
C20_2 C19_2 1_555 1_555
H15_2 C20_2 1_555 1_555
C24_2 C19_2 1_555 1_555
H18_2 C24_2 1_555 1_555
Y6 O2_2 1_555 1_555
O10_2 Y3 1_555 1_555
O12_2 Y3 1_555 1_555
O14_2 Y3 1_555 1_555
C5_2 C6_2 1_555 1_555
C11_2 C12_2 1_555 1_555
H12_2 C15_2 1_555 1_555
P3_3 O7_3 1_555 1_555
O7_3 H3_3 1_555 1_555
O8_2 P3_3 1_555 1_555
H6_3 C5_3 1_555 1_555
H7_3 C6_3 1_555 1_555
H16_3 C21_3 1_555 1_555
C22_3 P3_3 1_555 1_555
C23_3 C22_3 1_555 1_555
H17_3 C23_3 1_555 1_555
Y5 O8_2 1_555 1_555
C5_3 C6_3 1_555 1_555
C21_3 C22_3 1_555 1_555
Y5 O1_3 1_555 1_555
P1_3 O1_3 1_555 1_555
O3_3 P1_3 1_555 1_555
H1_3 O3_3 1_555 1_555
C1_3 P1_3 1_555 1_555
O11_2 Y5 1_555 1_555
P2_3 O4_3 1_555 1_555
O4_3 H2_3 1_555 1_555
O5_2 P2_3 1_555 1_555
O12_2 P2_3 1_555 1_555
C3_3 C2_3 1_555 1_555
H5_3 C3_3 1_555 1_555
C4_3 C3_3 1_555 1_555
C7_3 C4_3 1_555 1_555
C8_3 C7_3 1_555 1_555
H8_3 C8_3 1_555 1_555
C9_3 C8_3 1_555 1_555
C10_3 C9_3 1_555 1_555
H9_3 C10_3 1_555 1_555
C11_3 C10_3 1_555 1_555
C12_3 C7_3 1_555 1_555
H10_3 C12_3 1_555 1_555
C13_3 C9_3 1_555 1_555
C14_3 C13_3 1_555 1_555
H11_3 C14_3 1_555 1_555
C15_3 C14_3 1_555 1_555
H12_3 C15_3 1_555 1_555
C16_3 P2_3 1_555 1_555
C17_3 C16_3 1_555 1_555
H13_3 C17_3 1_555 1_555
C18_3 C13_3 1_555 1_555
H14_3 C18_3 1_555 1_555
C19_3 C11_3 1_555 1_555
C20_3 C19_3 1_555 1_555
H15_3 C20_3 1_555 1_555
C24_3 C19_3 1_555 1_555
H18_3 C24_3 1_555 1_555
Y6 O5_2 1_555 1_555
C11_3 C12_3 1_555 1_555
C15_3 C16_3 1_555 1_555
C17_3 C18_3 1_555 1_555
C3_4 C2_4 1_555 1_555
H5_4 C3_4 1_555 1_555
C4_4 C3_4 1_555 1_555
C7_4 C4_4 1_555 1_555
C8_4 C7_4 1_555 1_555
H8_4 C8_4 1_555 1_555
C9_4 C8_4 1_555 1_555
C10_4 C9_4 1_555 1_555
H9_4 C10_4 1_555 1_555
C11_4 C10_4 1_555 1_555
C12_4 C7_4 1_555 1_555
H10_4 C12_4 1_555 1_555
C13_4 C9_4 1_555 1_555
C14_4 C13_4 1_555 1_555
H11_4 C14_4 1_555 1_555
C18_4 C13_4 1_555 1_555
H14_4 C18_4 1_555 1_555
C19_4 C11_4 1_555 1_555
C20_4 C19_4 1_555 1_555
H15_4 C20_4 1_555 1_555
C24_4 C19_4 1_555 1_555
H18_4 C24_4 1_555 1_555
C11_4 C12_4 1_555 1_555
P2_4 O4_4 1_555 1_555
O4_4 H2_4 1_555 1_555
O11_2 P2_4 1_555 1_555
O12 P2_4 1_555 1_555
H12_4 C15_4 1_555 1_555
C16_4 P2_4 1_555 1_555
C17_4 C16_4 1_555 1_555
H13_4 C17_4 1_555 1_555
C15_4 C16_4 1_555 1_555
Y6 O1_4 1_555 1_555
P1_4 O1_4 1_555 1_555
O3_4 P1_4 1_555 1_555
H1_4 O3_4 1_555 1_555
C1_4 P1_4 1_555 1_555
O13_2 Y6 1_555 1_555
P3_4 O7_4 1_555 1_555
O7_4 H3_4 1_555 1_555
O13_2 P3_4 1_555 1_555
H6_4 C5_4 1_555 1_555
H7_4 C6_4 1_555 1_555
H16_4 C21_4 1_555 1_555
C22_4 P3_4 1_555 1_555
C23_4 C22_4 1_555 1_555
H17_4 C23_4 1_555 1_555
C5_4 C6_4 1_555 1_555
C21_4 C22_4 1_555 1_555

#END
