
###############################################################################
#
# This file contains modified crystal structure data generated from the
# MOF subset of the Cambridge Structural Database (CSD) v543 
# hosted by the Cambridge Crystallographic Data Centre (CCDC).
#
# This work is licensed under the Creative Commons
# Attribution-NonCommercial-ShareAlike 4.0 International License.
# To view a copy of this license, visit
# http://creativecommons.org/licenses/by-nc-sa/4.0/
# or send a letter to
# Creative Commons, PO Box 1866, Mountain View, CA 94042, USA.
#
# CIF created using the CSD Python API on 29 September 2022
# The structure has been converted into the P1 space group
# The structure has a 3D framework
# The original CSD entry AKOJAO is in the monoclinic crystal system
# The framework has been calculated to contain at least 10.0% void space
# The void calculation uses a probe of radius 1.32A, grid spacing 0.4
#
###############################################################################

data_AKOJAO
_chemical_formula_moiety         '(C112 H48 Cd8 N16 O78 U8)n'
_symmetry_cell_setting           triclinic
_symmetry_space_group_name_H-M   'P 1'
_symmetry_Int_Tables_number      1
_space_group_name_Hall           'P 1'
loop_
_symmetry_equiv_pos_site_id
_symmetry_equiv_pos_as_xyz
1 x,y,z
_cell_length_a                   24.153(4)
_cell_length_b                   11.8639(18)
_cell_length_c                   17.927(3)
_cell_angle_alpha                90
_cell_angle_beta                 95.599(3)
_cell_angle_gamma                90
_cell_volume                     5112.45
loop_
_atom_site_label
_atom_site_type_symbol
_atom_site_fract_x
_atom_site_fract_y
_atom_site_fract_z
Cd2 Cd 0.28902(2) 0.10771(4) 0.00442(3)
C3 C 0.3098(3) 0.1035(6) 0.6009(4)
C4 C 0.2836(3) 0.0476(6) 0.7285(5)
H1 H 0.2979 0.1155 0.7479
C8 C 0.2851(3) 0.0234(6) 0.6537(4)
O1 O 0.3185(2) 0.2009(4) 0.6254(3)
O2 O 0.3172(2) 0.0701(4) 0.5368(3)
O4 O 0.3839(3) 0.4021(5) 0.6571(4)
O5 O 0.3180(3) 0.3236(5) 0.4794(4)
O9 O 0.2862(2) 0.0811(4) 0.8807(3)
U1 U 0.351442(12) 0.36268(2) 0.567729(19)
O11 O 0.2672(2) 0.4347(4) 0.6044(3)
O12 O 0.4232(2) 0.2171(5) 0.5590(4)
O13 O 0.4429(3) 0.3844(5) 0.5190(5)
O14 O 0.3549(3) 0.5488(4) 0.5266(4)
C1 C 0.3439(3) 0.6498(6) 0.5173(5)
C2 C 0.2609(3) 0.9713(6) 0.7745(4)
C5 C 0.2594(3) 0.9971(6) 0.8573(4)
C6 C 0.4456(3) 0.6832(7) 0.4973(5)
H2 H 0.4527 0.6067 0.5045
C7 C 0.3925(3) 0.7272(6) 0.5042(5)
C9 C 0.2449(4) 0.8507(7) 0.6694(5)
H3 H 0.2314 0.7826 0.6492
C10 C 0.2413(4) 0.8713(7) 0.7438(5)
H4 H 0.2256 0.8180 0.7735
C11 C 0.4732(4) 0.8680(6) 0.4669(7)
H5 H 0.4990 0.9181 0.4503
C12 C 0.4869(4) 0.7548(7) 0.4796(6)
C13 C 0.4201(4) 0.9040(7) 0.4799(7)
H6 H 0.4121 0.9806 0.4764
C14 C 0.5429(4) 0.7138(7) 0.4653(7)
Cd1 Cd 0.28902(2) 0.89229(4) 0.50442(3)
N1 N 0.2669(3) 0.9245(5) 0.6247(4)
N2 N 0.3809(3) 0.8343(5) 0.4967(4)
O3 O 0.2328(2) 0.9347(4) 0.8956(3)
O6 O 0.5768(2) 0.7829(5) 0.4410(4)
O7 O 0.5571(3) 0.6156(5) 0.4810(5)
O10 O 0.29753(19) 0.6936(4) 0.5174(3)
Cd3 Cd 0.21098(2) 0.60771(4) 0.49558(3)
O15 O 0.2862(2) 0.9189(4) 0.3807(3)
O16 O 0.20247(19) 0.8064(4) 0.4826(3)
U3 U 0.148558(12) 0.86268(2) 0.932271(19)
U4 U 0.648558(12) 0.63732(2) 0.432271(19)
C3_2 C 0.6902(3) 0.1035(6) 0.8991(4)
C4_2 C 0.7164(3) 0.0476(6) 0.7715(5)
H1_2 H 0.7021 0.1155 0.7521
C8_2 C 0.7149(3) 0.0234(6) 0.8463(4)
O1_2 O 0.6815(2) 0.2009(4) 0.8746(3)
O2_2 O 0.6828(2) 0.0701(4) 0.9632(3)
O4_2 O 0.6161(3) 0.4021(5) 0.8429(4)
O9_2 O 0.7138(2) 0.0811(4) 0.6193(3)
U1_2 U 0.648558(12) 0.36268(2) 0.932271(19)
Cd2_2 Cd 0.71098(2) 0.10771(4) 0.49558(3)
O11_2 O 0.7328(2) 0.4347(4) 0.8956(3)
O12_2 O 0.5768(2) 0.2171(5) 0.9410(4)
O13_2 O 0.5571(3) 0.3844(5) 0.9810(5)
O14_2 O 0.6451(3) 0.5488(4) 0.9734(4)
C6_2 C 0.5544(3) 0.6832(7) 0.0027(5)
C11_2 C 0.5268(4) 0.8680(6) 0.0331(7)
H5_2 H 0.5010 0.9181 0.0497
C12_2 C 0.5131(4) 0.7548(7) 0.0204(6)
C13_2 C 0.5799(4) 0.9040(7) 0.0201(7)
H6_2 H 0.5879 0.9806 0.0236
C14_2 C 0.4571(4) 0.7138(7) 0.0347(7)
N2_2 N 0.6191(3) 0.8343(5) 0.0033(4)
O6_2 O 0.4232(2) 0.7829(5) 0.0590(4)
O7_2 O 0.4429(3) 0.6156(5) 0.0190(5)
Cd3_2 Cd 0.78902(2) 0.60771(4) 0.00442(3)
O15_2 O 0.7138(2) 0.9189(4) 0.1193(3)
O16_2 O 0.79753(19) 0.8064(4) 0.0174(3)
U4_2 U 0.351442(12) 0.63732(2) 0.067729(19)
C1_2 C 0.6561(3) 0.6498(6) 0.9827(5)
C2_2 C 0.7391(3) 0.9713(6) 0.7255(4)
C5_2 C 0.7406(3) 0.9971(6) 0.6427(4)
H2_2 H 0.5473 0.6067 0.9955
C7_2 C 0.6075(3) 0.7272(6) 0.9958(5)
C9_2 C 0.7551(4) 0.8507(7) 0.8306(5)
H3_2 H 0.7686 0.7826 0.8508
C10_2 C 0.7587(4) 0.8713(7) 0.7562(5)
H4_2 H 0.7744 0.8180 0.7265
Cd1_2 Cd 0.71098(2) 0.89229(4) 0.99558(3)
N1_2 N 0.7331(3) 0.9245(5) 0.8753(4)
O3_2 O 0.7672(2) 0.9347(4) 0.6044(3)
O10_2 O 0.70247(19) 0.6936(4) 0.9826(3)
U3_2 U 0.851442(12) 0.86268(2) 0.567729(19)
C14_3 C 0.0429(4) 0.2138(7) 0.4653(7)
O6_3 O 0.0768(2) 0.2829(5) 0.4410(4)
O7_3 O 0.0571(3) 0.1156(5) 0.4810(5)
U4_3 U 0.148558(12) 0.13732(2) 0.432271(19)
O14_3 O 0.8549(3) 0.0488(4) 0.5266(4)
C1_3 C 0.8439(3) 0.1498(6) 0.5173(5)
C2_3 C 0.7609(3) 0.4713(6) 0.7745(4)
C3_3 C 0.8098(3) 0.6035(6) 0.6009(4)
C4_3 C 0.7836(3) 0.5476(6) 0.7285(5)
H1_3 H 0.7979 0.6155 0.7479
C5_3 C 0.7594(3) 0.4971(6) 0.8573(4)
C6_3 C 0.9456(3) 0.1832(7) 0.4973(5)
H2_3 H 0.9527 0.1067 0.5045
C7_3 C 0.8925(3) 0.2272(6) 0.5042(5)
C8_3 C 0.7851(3) 0.5234(6) 0.6537(4)
C9_3 C 0.7449(4) 0.3507(7) 0.6694(5)
H3_3 H 0.7314 0.2826 0.6492
C10_3 C 0.7413(4) 0.3713(7) 0.7438(5)
H4_3 H 0.7256 0.3180 0.7735
C11_3 C 0.9732(4) 0.3680(6) 0.4669(7)
H5_3 H 0.9990 0.4181 0.4503
C12_3 C 0.9869(4) 0.2548(7) 0.4796(6)
C13_3 C 0.9201(4) 0.4040(7) 0.4799(7)
H6_3 H 0.9121 0.4806 0.4764
Cd1_3 Cd 0.78902(2) 0.39229(4) 0.50442(3)
N1_3 N 0.7669(3) 0.4245(5) 0.6247(4)
N2_3 N 0.8809(3) 0.3343(5) 0.4967(4)
O1_3 O 0.8185(2) 0.7009(4) 0.6254(3)
O2_3 O 0.8172(2) 0.5701(4) 0.5368(3)
O4_3 O 0.8839(3) 0.9021(5) 0.6571(4)
O5_2 O 0.8180(3) 0.8236(5) 0.4794(4)
O9_3 O 0.7862(2) 0.5811(4) 0.8807(3)
O10_3 O 0.79753(19) 0.1936(4) 0.5174(3)
O12_3 O 0.9232(2) 0.7171(5) 0.5590(4)
O13_3 O 0.9429(3) 0.8844(5) 0.5190(5)
O15_3 O 0.7862(2) 0.4189(4) 0.3807(3)
O16_3 O 0.70247(19) 0.3064(4) 0.4826(3)
O14_4 O 0.1451(3) 0.0488(4) 0.9734(4)
C6_4 C 0.0544(3) 0.1832(7) 0.0027(5)
C11_4 C 0.0268(4) 0.3680(6) 0.0331(7)
H5_4 H 0.0010 0.4181 0.0497
C12_4 C 0.0131(4) 0.2548(7) 0.0204(6)
C13_4 C 0.0799(4) 0.4040(7) 0.0201(7)
H6_4 H 0.0879 0.4806 0.0236
N2_4 N 0.1191(3) 0.3343(5) 0.0033(4)
O5_3 O 0.1820(3) 0.8236(5) 0.0206(4)
O15_4 O 0.2138(2) 0.4189(4) 0.1193(3)
O16_4 O 0.29753(19) 0.3064(4) 0.0174(3)
C1_4 C 0.1561(3) 0.1498(6) 0.9827(5)
C2_4 C 0.2391(3) 0.4713(6) 0.7255(4)
C3_4 C 0.1902(3) 0.6035(6) 0.8991(4)
C4_4 C 0.2164(3) 0.5476(6) 0.7715(5)
H1_4 H 0.2021 0.6155 0.7521
C5_4 C 0.2406(3) 0.4971(6) 0.6427(4)
H2_4 H 0.0473 0.1067 0.9955
C7_4 C 0.1075(3) 0.2272(6) 0.9958(5)
C8_4 C 0.2149(3) 0.5234(6) 0.8463(4)
C9_4 C 0.2551(4) 0.3507(7) 0.8306(5)
H3_4 H 0.2686 0.2826 0.8508
C10_4 C 0.2587(4) 0.3713(7) 0.7562(5)
H4_4 H 0.2744 0.3180 0.7265
Cd1_4 Cd 0.21098(2) 0.39229(4) 0.99558(3)
N1_4 N 0.2331(3) 0.4245(5) 0.8753(4)
O1_4 O 0.1815(2) 0.7009(4) 0.8746(3)
O2_4 O 0.1828(2) 0.5701(4) 0.9632(3)
O4_4 O 0.1161(3) 0.9021(5) 0.8429(4)
O9_4 O 0.2138(2) 0.5811(4) 0.6193(3)
O10_4 O 0.20247(19) 0.1936(4) 0.9826(3)
O12_4 O 0.0768(2) 0.7171(5) 0.9410(4)
O13_4 O 0.0571(3) 0.8844(5) 0.9810(5)
C14_4 C 0.9571(4) 0.2138(7) 0.0347(7)
O6_4 O 0.9232(2) 0.2829(5) 0.0590(4)
O7_4 O 0.9429(3) 0.1156(5) 0.0190(5)
U4_4 U 0.851442(12) 0.13732(2) 0.067729(19)
C1_5 C 0.6561(3) 0.3502(6) 0.4827(5)
C2_5 C 0.7391(3) 0.0287(6) 0.2255(4)
C5_5 C 0.7406(3) 0.0029(6) 0.1427(4)
C6_5 C 0.5544(3) 0.3168(7) 0.5027(5)
H2_5 H 0.5473 0.3933 0.4955
C7_5 C 0.6075(3) 0.2728(6) 0.4958(5)
C9_5 C 0.7551(4) 0.1493(7) 0.3306(5)
H3_5 H 0.7686 0.2174 0.3508
C10_5 C 0.7587(4) 0.1287(7) 0.2562(5)
H4_5 H 0.7744 0.1820 0.2265
C11_5 C 0.5268(4) 0.1320(6) 0.5331(7)
H5_5 H 0.5010 0.0819 0.5497
C12_5 C 0.5131(4) 0.2452(7) 0.5204(6)
C13_5 C 0.5799(4) 0.0960(7) 0.5201(7)
H6_5 H 0.5879 0.0194 0.5236
C14_5 C 0.4571(4) 0.2862(7) 0.5347(7)
N1_5 N 0.7331(3) 0.0755(5) 0.3753(4)
N2_5 N 0.6191(3) 0.1657(5) 0.5033(4)
O3_3 O 0.7672(2) 0.0653(4) 0.1044(3)
O8 O 0.6451(3) 0.4512(4) 0.4734(4)
C3_5 C 0.6902(3) 0.8965(6) 0.3991(4)
C4_5 C 0.7164(3) 0.9524(6) 0.2715(5)
H1_5 H 0.7021 0.8845 0.2521
C8_5 C 0.7149(3) 0.9766(6) 0.3463(4)
O1_5 O 0.6815(2) 0.7991(4) 0.3746(3)
O2_5 O 0.6828(2) 0.9299(4) 0.4632(3)
O4_5 O 0.6161(3) 0.5979(5) 0.3429(4)
O5_4 O 0.6820(3) 0.6764(5) 0.5206(4)
O11_3 O 0.7328(2) 0.5653(4) 0.3956(3)
C1_6 C 0.3439(3) 0.3502(6) 0.0173(5)
C2_6 C 0.2609(3) 0.0287(6) 0.2745(4)
C5_6 C 0.2594(3) 0.0029(6) 0.3573(4)
H2_6 H 0.4527 0.3933 0.0045
C7_6 C 0.3925(3) 0.2728(6) 0.0042(5)
C9_6 C 0.2449(4) 0.1493(7) 0.1694(5)
H3_6 H 0.2314 0.2174 0.1492
C10_6 C 0.2413(4) 0.1287(7) 0.2438(5)
H4_6 H 0.2256 0.1820 0.2735
N1_6 N 0.2669(3) 0.0755(5) 0.1247(4)
O3_4 O 0.2328(2) 0.0653(4) 0.3956(3)
O8_2 O 0.3549(3) 0.4512(4) 0.0266(4)
C6_6 C 0.4456(3) 0.3168(7) 0.9973(5)
C11_6 C 0.4732(4) 0.1320(6) 0.9669(7)
H5_6 H 0.4990 0.0819 0.9503
C12_6 C 0.4869(4) 0.2452(7) 0.9796(6)
C13_6 C 0.4201(4) 0.0960(7) 0.9799(7)
H6_6 H 0.4121 0.0194 0.9764
C14_6 C 0.5429(4) 0.2862(7) 0.9653(7)
N2_6 N 0.3809(3) 0.1657(5) 0.9967(4)
C3_6 C 0.3098(3) 0.8965(6) 0.1009(4)
C4_6 C 0.2836(3) 0.9524(6) 0.2285(5)
H1_6 H 0.2979 0.8845 0.2479
C8_6 C 0.2851(3) 0.9766(6) 0.1537(4)
O1_6 O 0.3185(2) 0.7991(4) 0.1254(3)
O2_6 O 0.3172(2) 0.9299(4) 0.0368(3)
O4_6 O 0.3839(3) 0.5979(5) 0.1571(4)
O11_4 O 0.2672(2) 0.5653(4) 0.1044(3)
C1_7 C 0.1561(3) 0.8502(6) 0.4827(5)
C2_7 C 0.2391(3) 0.5287(6) 0.2255(4)
C3_7 C 0.1902(3) 0.3965(6) 0.3991(4)
C4_7 C 0.2164(3) 0.4524(6) 0.2715(5)
H1_7 H 0.2021 0.3845 0.2521
C5_7 C 0.2406(3) 0.5029(6) 0.1427(4)
C6_7 C 0.0544(3) 0.8168(7) 0.5027(5)
H2_7 H 0.0473 0.8933 0.4955
C7_7 C 0.1075(3) 0.7728(6) 0.4958(5)
C8_7 C 0.2149(3) 0.4766(6) 0.3463(4)
C9_7 C 0.2551(4) 0.6493(7) 0.3306(5)
H3_7 H 0.2686 0.7174 0.3508
C10_7 C 0.2587(4) 0.6287(7) 0.2562(5)
H4_7 H 0.2744 0.6820 0.2265
C11_7 C 0.0268(4) 0.6320(6) 0.5331(7)
H5_7 H 0.0010 0.5819 0.5497
C12_7 C 0.0131(4) 0.7452(7) 0.5204(6)
C13_7 C 0.0799(4) 0.5960(7) 0.5201(7)
H6_7 H 0.0879 0.5194 0.5236
N1_7 N 0.2331(3) 0.5755(5) 0.3753(4)
N2_7 N 0.1191(3) 0.6657(5) 0.5033(4)
O1_7 O 0.1815(2) 0.2991(4) 0.3746(3)
O2_7 O 0.1828(2) 0.4299(4) 0.4632(3)
O4_7 O 0.1161(3) 0.0979(5) 0.3429(4)
O5_5 O 0.1820(3) 0.1764(5) 0.5206(4)
O8_3 O 0.1451(3) 0.9512(4) 0.4734(4)
C14_7 C 0.9571(4) 0.7862(7) 0.5347(7)
C14_8 C 0.0429(4) 0.7862(7) 0.9653(7)
C1_8 C 0.8439(3) 0.8502(6) 0.0173(5)
C2_8 C 0.7609(3) 0.5287(6) 0.2745(4)
C3_8 C 0.8098(3) 0.3965(6) 0.1009(4)
C4_8 C 0.7836(3) 0.4524(6) 0.2285(5)
H1_8 H 0.7979 0.3845 0.2479
C5_8 C 0.7594(3) 0.5029(6) 0.3573(4)
H2_8 H 0.9527 0.8933 0.0045
C7_8 C 0.8925(3) 0.7728(6) 0.0042(5)
C8_8 C 0.7851(3) 0.4766(6) 0.1537(4)
C9_8 C 0.7449(4) 0.6493(7) 0.1694(5)
H3_8 H 0.7314 0.7174 0.1492
C10_8 C 0.7413(4) 0.6287(7) 0.2438(5)
H4_8 H 0.7256 0.6820 0.2735
N1_8 N 0.7669(3) 0.5755(5) 0.1247(4)
O1_8 O 0.8185(2) 0.2991(4) 0.1254(3)
O2_8 O 0.8172(2) 0.4299(4) 0.0368(3)
O4_8 O 0.8839(3) 0.0979(5) 0.1571(4)
O8_4 O 0.8549(3) 0.9512(4) 0.0266(4)
C6_8 C 0.9456(3) 0.8168(7) 0.9973(5)
C11_8 C 0.9732(4) 0.6320(6) 0.9669(7)
H5_8 H 0.9990 0.5819 0.9503
C12_8 C 0.9869(4) 0.7452(7) 0.9796(6)
C13_8 C 0.9201(4) 0.5960(7) 0.9799(7)
H6_8 H 0.9121 0.5194 0.9764
N2_8 N 0.8809(3) 0.6657(5) 0.9967(4)
O5_6 O 0.8180(3) 0.1764(5) 0.9794(4)
O5_7 O 0.6820(3) 0.3236(5) 0.0206(4)
O5_8 O 0.3180(3) 0.6764(5) 0.9794(4)
loop_
_geom_bond_atom_site_label_1
_geom_bond_atom_site_label_2
_geom_bond_site_symmetry_1
_geom_bond_site_symmetry_2
C3 C8 1_555 1_555
C4 H1 1_555 1_555
C8 C4 1_555 1_555
O1 C3 1_555 1_555
O2 C3 1_555 1_555
O4 U1 1_555 1_555
O5 U1 1_555 1_555
U1 O1 1_555 1_555
O11 U1 1_555 1_555
O12 U1 1_555 1_555
O13 U1 1_555 1_555
O14 U1 1_555 1_555
C1 C7 1_555 1_555
C5 C2 1_555 1_555
C6 H2 1_555 1_555
C7 C6 1_555 1_555
C9 H3 1_555 1_555
C10 C2 1_555 1_555
H4 C10 1_555 1_555
C11 H5 1_555 1_555
C12 C6 1_555 1_555
C13 C11 1_555 1_555
H6 C13 1_555 1_555
C14 C12 1_555 1_555
Cd1 N1 1_555 1_555
N2 C7 1_555 1_555
O3 C5 1_555 1_555
O6 C14 1_555 1_555
O7 C14 1_555 1_555
O14 C1 1_555 1_555
O10 C1 1_555 1_555
Cd3 O10 1_555 1_555
O15 Cd1 1_555 1_555
O16 Cd1 1_555 1_555
U3 O3 1_555 1_555
U4 O6 1_555 1_555
C9 C10 1_555 1_555
C9 N1 1_555 1_555
C11 C12 1_555 1_555
C13 N2 1_555 1_555
Cd1 N2 1_555 1_555
Cd1 O10 1_555 1_555
O7 U4 1_555 1_555
Cd3 O16 1_555 1_555
C3_2 C8_2 1_555 1_555
C4_2 H1_2 1_555 1_555
C8_2 C4_2 1_555 1_555
O1_2 C3_2 1_555 1_555
O2_2 C3_2 1_555 1_555
O4_2 U1_2 1_555 1_555
U1_2 O1_2 1_555 1_555
Cd2_2 O9_2 1_555 1_555
O11_2 U1_2 1_555 1_555
O12_2 U1_2 1_555 1_555
O13_2 U1_2 1_555 1_555
O14_2 U1_2 1_555 1_555
C11_2 H5_2 1_555 1_555
C12_2 C6_2 1_555 1_555
C13_2 C11_2 1_555 1_555
H6_2 C13_2 1_555 1_555
C14_2 C12_2 1_555 1_555
O6_2 C14_2 1_555 1_555
O7_2 C14_2 1_555 1_555
U4_2 O6_2 1_555 1_555
C11_2 C12_2 1_555 1_555
C13_2 N2_2 1_555 1_555
O7_2 U4_2 1_555 1_555
Cd3_2 O16_2 1_555 1_555
C1_2 C7_2 1_555 1_555
C5_2 C2_2 1_555 1_555
C9_2 H3_2 1_555 1_555
C10_2 C2_2 1_555 1_555
H4_2 C10_2 1_555 1_555
Cd1_2 N1_2 1_555 1_555
O3_2 C5_2 1_555 1_555
O14_2 C1_2 1_555 1_555
O10_2 C1_2 1_555 1_555
U3_2 O3_2 1_555 1_555
C9_2 C10_2 1_555 1_555
C9_2 N1_2 1_555 1_555
Cd1_2 O10_2 1_555 1_555
O6_3 C14_3 1_555 1_555
O7_3 C14_3 1_555 1_555
U4_3 O6_3 1_555 1_555
O7_3 U4_3 1_555 1_555
C1_3 C7_3 1_555 1_555
C2_3 C4_3 1_555 1_555
C3_3 C8_3 1_555 1_555
C4_3 H1_3 1_555 1_555
C5_3 C2_3 1_555 1_555
C6_3 H2_3 1_555 1_555
C7_3 C6_3 1_555 1_555
C8_3 C4_3 1_555 1_555
C9_3 H3_3 1_555 1_555
C10_3 C2_3 1_555 1_555
H4_3 C10_3 1_555 1_555
C11_3 H5_3 1_555 1_555
C12_3 C6_3 1_555 1_555
C13_3 C11_3 1_555 1_555
H6_3 C13_3 1_555 1_555
Cd1_3 N1_3 1_555 1_555
N1_3 C8_3 1_555 1_555
N2_3 C7_3 1_555 1_555
O1_3 C3_3 1_555 1_555
O2_3 C3_3 1_555 1_555
O11_2 C5_3 1_555 1_555
O4_3 U3_2 1_555 1_555
O5_2 U3_2 1_555 1_555
O14_3 C1_3 1_555 1_555
O9_3 C5_3 1_555 1_555
O10_3 C1_3 1_555 1_555
U3_2 O1_3 1_555 1_555
Cd2_2 O10_3 1_555 1_555
O12_3 U3_2 1_555 1_555
O13_3 U3_2 1_555 1_555
O15_3 Cd1_3 1_555 1_555
O16_3 Cd1_3 1_555 1_555
C9_3 C10_3 1_555 1_555
C9_3 N1_3 1_555 1_555
C11_3 C12_3 1_555 1_555
C13_3 N2_3 1_555 1_555
Cd1_3 N2_3 1_555 1_555
Cd1_3 O2_3 1_555 1_555
Cd1_3 O10_3 1_555 1_555
Cd2_2 O16_3 1_555 1_555
C11_4 H5_4 1_555 1_555
C12_4 C6_4 1_555 1_555
C13_4 C11_4 1_555 1_555
H6_4 C13_4 1_555 1_555
C11_4 C12_4 1_555 1_555
C13_4 N2_4 1_555 1_555
Cd2 O16_4 1_555 1_555
C1_4 C7_4 1_555 1_555
C2_4 C4_4 1_555 1_555
C3_4 C8_4 1_555 1_555
C4_4 H1_4 1_555 1_555
C5_4 C2_4 1_555 1_555
C8_4 C4_4 1_555 1_555
C9_4 H3_4 1_555 1_555
C10_4 C2_4 1_555 1_555
H4_4 C10_4 1_555 1_555
Cd1_4 N1_4 1_555 1_555
N1_4 C8_4 1_555 1_555
O1_4 C3_4 1_555 1_555
O2_4 C3_4 1_555 1_555
O11 C5_4 1_555 1_555
O4_4 U3 1_555 1_555
O14_4 C1_4 1_555 1_555
O9_4 C5_4 1_555 1_555
O10_4 C1_4 1_555 1_555
U3 O1_4 1_555 1_555
Cd3 O9_4 1_555 1_555
O12_4 U3 1_555 1_555
O13_4 U3 1_555 1_555
C9_4 C10_4 1_555 1_555
C9_4 N1_4 1_555 1_555
Cd1_4 O2_4 1_555 1_555
Cd1_4 O10_4 1_555 1_555
O6_4 C14_4 1_555 1_555
O7_4 C14_4 1_555 1_555
U4_4 O6_4 1_555 1_555
O7_4 U4_4 1_555 1_555
C1_5 C7_5 1_555 1_555
C5_5 C2_5 1_555 1_555
C6_5 H2_5 1_555 1_555
C7_5 C6_5 1_555 1_555
C9_5 H3_5 1_555 1_555
C10_5 C2_5 1_555 1_555
H4_5 C10_5 1_555 1_555
C11_5 H5_5 1_555 1_555
C12_5 C6_5 1_555 1_555
C13_5 C11_5 1_555 1_555
H6_5 C13_5 1_555 1_555
C14_5 C12_5 1_555 1_555
Cd2_2 N1_5 1_555 1_555
N2_5 C7_5 1_555 1_555
O3_3 C5_5 1_555 1_555
O12 C14_5 1_555 1_555
O13 C14_5 1_555 1_555
O8 C1_5 1_555 1_555
O16_3 C1_5 1_555 1_555
U4 O8 1_555 1_555
U4_4 O3_3 1_555 1_555
C9_5 C10_5 1_555 1_555
C9_5 N1_5 1_555 1_555
C11_5 C12_5 1_555 1_555
C13_5 N2_5 1_555 1_555
Cd2_2 N2_5 1_555 1_555
C3_5 C8_5 1_555 1_555
C4_5 H1_5 1_555 1_555
C8_5 C4_5 1_555 1_555
O1_5 C3_5 1_555 1_555
O2_5 C3_5 1_555 1_555
O4_5 U4 1_555 1_555
O5_4 U4 1_555 1_555
U4 O1_5 1_555 1_555
O11_3 U4 1_555 1_555
C1_6 C7_6 1_555 1_555
C5_6 C2_6 1_555 1_555
C9_6 H3_6 1_555 1_555
C10_6 C2_6 1_555 1_555
H4_6 C10_6 1_555 1_555
Cd2 N1_6 1_555 1_555
O3_4 C5_6 1_555 1_555
O8_2 C1_6 1_555 1_555
O16_4 C1_6 1_555 1_555
U4_2 O8_2 1_555 1_555
U4_3 O3_4 1_555 1_555
C9_6 C10_6 1_555 1_555
C9_6 N1_6 1_555 1_555
C11_6 H5_6 1_555 1_555
C12_6 C6_6 1_555 1_555
C13_6 C11_6 1_555 1_555
H6_6 C13_6 1_555 1_555
C14_6 C12_6 1_555 1_555
O12_2 C14_6 1_555 1_555
O13_2 C14_6 1_555 1_555
C11_6 C12_6 1_555 1_555
C13_6 N2_6 1_555 1_555
C3_6 C8_6 1_555 1_555
C4_6 H1_6 1_555 1_555
C8_6 C4_6 1_555 1_555
O1_6 C3_6 1_555 1_555
O2_6 C3_6 1_555 1_555
O4_6 U4_2 1_555 1_555
U4_2 O1_6 1_555 1_555
O11_4 U4_2 1_555 1_555
C1_7 C7_7 1_555 1_555
C2_7 C4_7 1_555 1_555
C3_7 C8_7 1_555 1_555
C4_7 H1_7 1_555 1_555
C5_7 C2_7 1_555 1_555
C6_7 H2_7 1_555 1_555
C7_7 C6_7 1_555 1_555
C8_7 C4_7 1_555 1_555
C9_7 H3_7 1_555 1_555
C10_7 C2_7 1_555 1_555
H4_7 C10_7 1_555 1_555
C11_7 H5_7 1_555 1_555
C12_7 C6_7 1_555 1_555
C13_7 C11_7 1_555 1_555
H6_7 C13_7 1_555 1_555
Cd3 N1_7 1_555 1_555
N1_7 C8_7 1_555 1_555
N2_7 C7_7 1_555 1_555
O1_7 C3_7 1_555 1_555
O2_7 C3_7 1_555 1_555
O11_4 C5_7 1_555 1_555
O4_7 U4_3 1_555 1_555
O5_5 U4_3 1_555 1_555
O8_3 C1_7 1_555 1_555
O15_4 C5_7 1_555 1_555
O16 C1_7 1_555 1_555
U4_3 O1_7 1_555 1_555
C9_7 C10_7 1_555 1_555
C9_7 N1_7 1_555 1_555
C11_7 C12_7 1_555 1_555
C13_7 N2_7 1_555 1_555
Cd3 N2_7 1_555 1_555
Cd3 O2_7 1_555 1_555
O12_3 C14_7 1_555 1_555
O13_3 C14_7 1_555 1_555
O12_4 C14_8 1_555 1_555
O13_4 C14_8 1_555 1_555
C1_8 C7_8 1_555 1_555
C2_8 C4_8 1_555 1_555
C3_8 C8_8 1_555 1_555
C4_8 H1_8 1_555 1_555
C5_8 C2_8 1_555 1_555
C8_8 C4_8 1_555 1_555
C9_8 H3_8 1_555 1_555
C10_8 C2_8 1_555 1_555
H4_8 C10_8 1_555 1_555
Cd3_2 N1_8 1_555 1_555
N1_8 C8_8 1_555 1_555
O1_8 C3_8 1_555 1_555
O2_8 C3_8 1_555 1_555
O11_3 C5_8 1_555 1_555
O4_8 U4_4 1_555 1_555
O8_4 C1_8 1_555 1_555
O15_3 C5_8 1_555 1_555
O16_2 C1_8 1_555 1_555
U4_4 O1_8 1_555 1_555
C9_8 C10_8 1_555 1_555
C9_8 N1_8 1_555 1_555
Cd3_2 O2_8 1_555 1_555
C11_8 H5_8 1_555 1_555
C12_8 C6_8 1_555 1_555
C13_8 C11_8 1_555 1_555
H6_8 C13_8 1_555 1_555
C11_8 C12_8 1_555 1_555
C13_8 N2_8 1_555 1_555

#END
