
###############################################################################
#
# This file contains modified crystal structure data generated from the
# MOF subset of the Cambridge Structural Database (CSD) v543 
# hosted by the Cambridge Crystallographic Data Centre (CCDC).
#
# This work is licensed under the Creative Commons
# Attribution-NonCommercial-ShareAlike 4.0 International License.
# To view a copy of this license, visit
# http://creativecommons.org/licenses/by-nc-sa/4.0/
# or send a letter to
# Creative Commons, PO Box 1866, Mountain View, CA 94042, USA.
#
# CIF created using the CSD Python API on 29 September 2022
# The structure has been converted into the P1 space group
# The structure has a 3D framework
# The original CSD entry AKORUQ is in the triclinic crystal system
# The framework has been calculated to contain at least 10.0% void space
# The void calculation uses a probe of radius 1.32A, grid spacing 0.4
#
###############################################################################

data_AKORUQ
_chemical_formula_moiety         '(C82 H60 N4 O20 Zn2)n'
_symmetry_cell_setting           triclinic
_symmetry_space_group_name_H-M   'P 1'
_symmetry_Int_Tables_number      1
_space_group_name_Hall           'P 1'
loop_
_symmetry_equiv_pos_site_id
_symmetry_equiv_pos_as_xyz
1 x,y,z
_cell_length_a                   11.1318(7)
_cell_length_b                   14.5051(9)
_cell_length_c                   15.0639(10)
_cell_angle_alpha                86.179(4)
_cell_angle_beta                 75.574(3)
_cell_angle_gamma                70.113(3)
_cell_volume                     2214.73
loop_
_atom_site_label
_atom_site_type_symbol
_atom_site_fract_x
_atom_site_fract_y
_atom_site_fract_z
O11 O 0.07275(10) 0.04134(7) 0.78194(7)
N3 N 0.13748(11) 0.01464(8) 0.59486(8)
Zn1 Zn 0.051658(15) 0.939919(11) 0.706567(10)
O10 O 0.21382(10) 0.41567(7) 0.83528(8)
C9 C 0.07513(13) 0.18222(9) 0.84835(9)
C15 C 0.02894(13) 0.09629(9) 0.85169(9)
C16 C 0.19396(15) 0.57907(10) 0.85052(10)
H6 H 0.28184(15) 0.55670(10) 0.85733(10)
C17 C 0.13378(14) 0.51237(10) 0.83916(10)
C18 C 0.12448(15) 0.67810(10) 0.85179(9)
H7 H 0.16568(15) 0.72418(10) 0.85776(9)
C20 C 0.15931(15) 0.34171(10) 0.83922(10)
C33 C 0.00548(15) 0.54356(10) 0.82954(11)
C35 C 0.03642(15) 0.24411(11) 0.92400(10)
C36 C 0.07892(16) 0.32421(11) 0.92039(11)
H23 H 0.05347(16) 0.36623(11) 0.97247(11)
C40 C 0.19673(16) 0.28231(12) 0.76282(11)
H29 H 0.25023(16) 0.29618(12) 0.70745(11)
C41 C 0.15500(16) 0.20163(12) 0.76793(10)
H30 H 0.18138(16) 0.15940(12) 0.71590(10)
O12 O 0.25237(10) 0.81376(7) 0.68580(7)
O14 O 0.07407(10) 0.80977(7) 0.65039(7)
N2 N 0.72737(11) 0.01220(8) 0.03567(8)
C19 C 0.25871(14) 0.01611(11) 0.58928(9)
C21 C 0.24055(14) 0.14323(10) 0.47765(9)
C23 C 0.52667(15) 0.06644(11) 0.19760(9)
C24 C 0.11626(15) 0.13925(11) 0.48141(10)
H10 H 0.06452(15) 0.17968(11) 0.44295(10)
C28 C 0.63180(14) 0.10180(11) 0.17827(9)
H14 H 0.63726(14) 0.14505(11) 0.22061(9)
C31 C 0.29142(15) 0.21591(11) 0.41775(11)
H17 H 0.22318(15) 0.25505(11) 0.38597(11)
H18 H 0.30455(15) 0.26149(11) 0.45755(11)
C32 C 0.31293(14) 0.07853(11) 0.53347(10)
H19 H 0.39886(14) 0.07750(11) 0.53302(10)
C34 C 0.06809(14) 0.07634(10) 0.54123(10)
C37 C 0.72821(14) 0.07423(10) 0.09776(9)
H24 H 0.79819(14) 0.10023(10) 0.08573(9)
C38 C 0.41063(16) 0.10011(13) 0.27986(10)
H25 H 0.32999(16) 0.13186(13) 0.25750(10)
H26 H 0.40045(16) 0.04160(13) 0.31431(10)
C39 C 0.42011(15) 0.17115(11) 0.34577(11)
H27 H 0.44512(15) 0.22453(11) 0.31028(11)
H28 H 0.49058(15) 0.13608(11) 0.37722(11)
O2 O 0.86592(10) 0.01295(7) 0.69457(7)
O6 O 0.74212(10) 0.08311(7) 0.83050(6)
O8 O 0.42360(10) 0.36253(7) 0.56640(7)
C1 C 0.19292(14) 0.76718(9) 0.65649(9)
C2 C 0.37061(14) 0.46129(10) 0.59228(9)
C3 C 0.76887(13) 0.07680(9) 0.74394(9)
C4 C 0.38694(14) 0.61235(10) 0.63407(10)
H1 H 0.43670(14) 0.64766(10) 0.65002(10)
C5 C 0.24180(14) 0.50812(10) 0.58740(10)
H2 H 0.19261(14) 0.47260(10) 0.57103(10)
C7 C 0.50918(14) 0.29755(9) 0.61211(9)
C8 C 0.67663(13) 0.15226(9) 0.69746(9)
C10 C 0.25693(13) 0.66123(9) 0.63063(9)
C12 C 0.44490(15) 0.51225(10) 0.61440(10)
H3 H 0.53406(15) 0.47926(10) 0.61608(10)
C13 C 0.59756(14) 0.21344(10) 0.56248(9)
H4 H 0.60036(14) 0.20561(10) 0.49980(9)
C14 C 0.58666(14) 0.23610(10) 0.74616(9)
H5 H 0.58190(14) 0.24308(10) 0.80933(9)
C25 C 0.18513(14) 0.60866(10) 0.60698(10)
H11 H 0.09644(14) 0.64163(10) 0.60413(10)
C26 C 0.50418(15) 0.30928(10) 0.70379(10)
H12 H 0.44478(15) 0.36692(10) 0.73711(10)
C29 C 0.68083(14) 0.14176(10) 0.60533(9)
H15 H 0.74154(14) 0.08476(10) 0.57166(9)
O13 O 0.94789(10) 0.08585(7) 0.92408(7)
H8 H 0.31030(14) 0.97180(11) 0.62569(9)
C27 C 0.52916(15) 0.99871(12) 0.13482(10)
H13 H 0.46201(15) 0.96986(12) 0.14643(10)
C30 C 0.62916(15) 0.97366(11) 0.05587(10)
H16 H 0.62891(15) 0.92750(11) 0.01411(10)
Zn2 Zn 0.849279(15) 0.998623(11) 0.910115(10)
O1 O 0.98165(10) 0.87791(7) 0.85009(7)
O9 O 0.79433(11) 0.84708(8) 0.87543(8)
C6 C 0.99402(15) 0.71119(10) 0.84436(9)
C11 C 0.91571(15) 0.81733(10) 0.85543(9)
C22 C 0.93547(15) 0.64307(10) 0.83296(10)
H9 H 0.84695(15) 0.66511(10) 0.82750(10)
H20 H 0.96605(15) 0.49728(10) 0.82071(11)
H22 H 0.98039(15) 0.23167(11) 0.97877(10)
H21 H 0.98152(14) 0.07693(10) 0.54442(10)
H21_2 H 0.01848(14) 0.92307(10) 0.45558(10)
Zn6 Zn 0.150721(15) 0.001377(11) 0.089885(10)
O1_2 O 0.01835(10) 0.12209(7) 0.14991(7)
O5 O 0.05211(10) 0.91415(7) 0.07592(7)
O9_2 O 0.20567(11) 0.15292(8) 0.12457(8)
C6_2 C 0.00598(15) 0.28881(10) 0.15564(9)
C11_2 C 0.08429(15) 0.18267(10) 0.14457(9)
C22_2 C 0.06453(15) 0.35693(10) 0.16704(10)
H9_2 H 0.15305(15) 0.33489(10) 0.17250(10)
H20_2 H 0.03395(15) 0.50272(10) 0.17929(11)
H22_2 H 0.01961(15) 0.76833(11) 0.02123(10)
H8_2 H 0.68970(14) 0.02820(11) 0.37431(9)
C27_2 C 0.47084(15) 0.00129(12) 0.86518(10)
H13_2 H 0.53799(15) 0.03014(12) 0.85357(10)
C30_2 C 0.37084(15) 0.02634(11) 0.94413(10)
H16_2 H 0.37109(15) 0.07250(11) 0.98589(10)
Zn3 Zn 0.948342(15) 0.060081(11) 0.293433(10)
O2_2 O 0.13408(10) 0.98705(7) 0.30543(7)
O4 O 0.74763(10) 0.18624(7) 0.31420(7)
O6_2 O 0.25788(10) 0.91689(7) 0.16950(6)
O7 O 0.92593(10) 0.19023(7) 0.34961(7)
O8_2 O 0.57640(10) 0.63747(7) 0.43360(7)
C1_2 C 0.80708(14) 0.23282(9) 0.34351(9)
C2_2 C 0.62939(14) 0.53871(10) 0.40772(9)
C3_2 C 0.23113(13) 0.92320(9) 0.25606(9)
C4_2 C 0.61306(14) 0.38765(10) 0.36593(10)
H1_2 H 0.56330(14) 0.35234(10) 0.34998(10)
C5_2 C 0.75820(14) 0.49188(10) 0.41260(10)
H2_2 H 0.80739(14) 0.52740(10) 0.42897(10)
C7_2 C 0.49082(14) 0.70245(9) 0.38789(9)
C8_2 C 0.32337(13) 0.84774(9) 0.30254(9)
C10_2 C 0.74307(13) 0.33877(9) 0.36937(9)
C12_2 C 0.55510(15) 0.48775(10) 0.38560(10)
H3_2 H 0.46594(15) 0.52074(10) 0.38392(10)
C13_2 C 0.40244(14) 0.78656(10) 0.43752(9)
H4_2 H 0.39964(14) 0.79439(10) 0.50020(9)
C14_2 C 0.41334(14) 0.76390(10) 0.25384(9)
H5_2 H 0.41810(14) 0.75692(10) 0.19067(9)
C25_2 C 0.81487(14) 0.39134(10) 0.39302(10)
H11_2 H 0.90356(14) 0.35837(10) 0.39587(10)
C26_2 C 0.49582(15) 0.69072(10) 0.29621(10)
H12_2 H 0.55522(15) 0.63308(10) 0.26289(10)
C29_2 C 0.31917(14) 0.85824(10) 0.39467(9)
H15_2 H 0.25846(14) 0.91524(10) 0.42834(9)
N1 N 0.86252(11) 0.98536(8) 0.40514(8)
N2_2 N 0.27263(11) 0.98780(8) 0.96433(8)
C19_2 C 0.74129(14) 0.98389(11) 0.41072(9)
C21_2 C 0.75945(14) 0.85677(10) 0.52235(9)
C23_2 C 0.47333(15) 0.93356(11) 0.80240(9)
C24_2 C 0.88374(15) 0.86075(11) 0.51859(10)
H10_2 H 0.93548(15) 0.82032(11) 0.55705(10)
C28_2 C 0.36820(14) 0.89820(11) 0.82173(9)
H14_2 H 0.36274(14) 0.85495(11) 0.77939(9)
C31_2 C 0.70858(15) 0.78409(11) 0.58225(11)
H17_2 H 0.77682(15) 0.74495(11) 0.61403(11)
H18_2 H 0.69545(15) 0.73851(11) 0.54245(11)
C32_2 C 0.68707(14) 0.92147(11) 0.46653(10)
H19_2 H 0.60114(14) 0.92250(11) 0.46698(10)
C34_2 C 0.93191(14) 0.92366(10) 0.45877(10)
C37_2 C 0.27179(14) 0.92577(10) 0.90224(9)
H24_2 H 0.20181(14) 0.89977(10) 0.91427(9)
C38_2 C 0.58937(16) 0.89989(13) 0.72014(10)
H25_2 H 0.67001(16) 0.86814(13) 0.74250(10)
H26_2 H 0.59955(16) 0.95840(13) 0.68569(10)
C39_2 C 0.57989(15) 0.82885(11) 0.65423(11)
H27_2 H 0.55488(15) 0.77547(11) 0.68972(11)
H28_2 H 0.50942(15) 0.86392(11) 0.62278(11)
O3 O 0.92725(10) 0.95866(7) 0.21806(7)
O10_2 O 0.78618(10) 0.58433(7) 0.16472(8)
C9_2 C 0.92487(13) 0.81778(9) 0.15165(9)
C15_2 C 0.97106(13) 0.90371(9) 0.14831(9)
C16_2 C 0.80604(15) 0.42093(10) 0.14948(10)
H6_2 H 0.71816(15) 0.44330(10) 0.14267(10)
C17_2 C 0.86622(14) 0.48763(10) 0.16084(10)
C18_2 C 0.87552(15) 0.32190(10) 0.14821(9)
H7_2 H 0.83432(15) 0.27582(10) 0.14224(9)
C20_2 C 0.84069(15) 0.65829(10) 0.16078(10)
C33_2 C 0.99452(15) 0.45644(10) 0.17046(11)
C35_2 C 0.96358(15) 0.75589(11) 0.07600(10)
C36_2 C 0.92108(16) 0.67579(11) 0.07961(11)
H23_2 H 0.94653(16) 0.63377(11) 0.02753(11)
C40_2 C 0.80327(16) 0.71769(12) 0.23718(11)
H29_2 H 0.74977(16) 0.70382(12) 0.29255(11)
C41_2 C 0.84500(16) 0.79837(12) 0.23207(10)
H30_2 H 0.81862(16) 0.84060(12) 0.28410(10)
loop_
_geom_bond_atom_site_label_1
_geom_bond_atom_site_label_2
_geom_bond_site_symmetry_1
_geom_bond_site_symmetry_2
O11 C15 1_555 1_555
O10 C17 1_555 1_555
C9 C15 1_555 1_555
C16 H6 1_555 1_555
C17 C16 1_555 1_555
H7 C18 1_555 1_555
C20 O10 1_555 1_555
C33 C17 1_555 1_555
C35 C9 1_555 1_555
C36 C20 1_555 1_555
H23 C36 1_555 1_555
C40 C20 1_555 1_555
H29 C40 1_555 1_555
C41 C9 1_555 1_555
H30 C41 1_555 1_555
O12 Zn1 1_555 1_555
O14 Zn1 1_555 1_555
C16 C18 1_555 1_555
C35 C36 1_555 1_555
C40 C41 1_555 1_555
N3 C19 1_555 1_555
C21 C24 1_555 1_555
C24 H10 1_555 1_555
C28 C23 1_555 1_555
H14 C28 1_555 1_555
C31 C21 1_555 1_555
H17 C31 1_555 1_555
H18 C31 1_555 1_555
C32 C19 1_555 1_555
H19 C32 1_555 1_555
C34 N3 1_555 1_555
C37 N2 1_555 1_555
H24 C37 1_555 1_555
C38 C23 1_555 1_555
H25 C38 1_555 1_555
H26 C38 1_555 1_555
C39 C31 1_555 1_555
H27 C39 1_555 1_555
H28 C39 1_555 1_555
C21 C32 1_555 1_555
C24 C34 1_555 1_555
C28 C37 1_555 1_555
C38 C39 1_555 1_555
O12 C1 1_555 1_555
O14 C1 1_555 1_555
O8 C2 1_555 1_555
C1 C10 1_555 1_555
C2 C5 1_555 1_555
C3 O2 1_555 1_555
C4 H1 1_555 1_555
C5 H2 1_555 1_555
C7 O8 1_555 1_555
C8 C3 1_555 1_555
C10 C4 1_555 1_555
C12 C2 1_555 1_555
H3 C12 1_555 1_555
C13 C7 1_555 1_555
H4 C13 1_555 1_555
C14 C8 1_555 1_555
H5 C14 1_555 1_555
C25 C5 1_555 1_555
H11 C25 1_555 1_555
C26 C7 1_555 1_555
H12 C26 1_555 1_555
C29 C8 1_555 1_555
H15 C29 1_555 1_555
O6 C3 1_555 1_555
C4 C12 1_555 1_555
C10 C25 1_555 1_555
C13 C29 1_555 1_555
C14 C26 1_555 1_555
C27 H13 1_555 1_555
H16 C30 1_555 1_555
C27 C30 1_555 1_555
Zn2 O1 1_555 1_555
O1 C11 1_555 1_555
O9 C11 1_555 1_555
C6 C11 1_555 1_555
C22 C6 1_555 1_555
H9 C22 1_555 1_555
Zn6 O1_2 1_555 1_555
O1_2 C11_2 1_555 1_555
O9_2 C11_2 1_555 1_555
C6_2 C11_2 1_555 1_555
C22_2 C6_2 1_555 1_555
H9_2 C22_2 1_555 1_555
C27_2 H13_2 1_555 1_555
H16_2 C30_2 1_555 1_555
C27_2 C30_2 1_555 1_555
O4 C1_2 1_555 1_555
O7 C1_2 1_555 1_555
O8_2 C2_2 1_555 1_555
C1_2 C10_2 1_555 1_555
C2_2 C5_2 1_555 1_555
C3_2 O2_2 1_555 1_555
C4_2 H1_2 1_555 1_555
C5_2 H2_2 1_555 1_555
C7_2 O8_2 1_555 1_555
C8_2 C3_2 1_555 1_555
C10_2 C4_2 1_555 1_555
C12_2 C2_2 1_555 1_555
H3_2 C12_2 1_555 1_555
C13_2 C7_2 1_555 1_555
H4_2 C13_2 1_555 1_555
C14_2 C8_2 1_555 1_555
H5_2 C14_2 1_555 1_555
C25_2 C5_2 1_555 1_555
H11_2 C25_2 1_555 1_555
C26_2 C7_2 1_555 1_555
H12_2 C26_2 1_555 1_555
C29_2 C8_2 1_555 1_555
H15_2 C29_2 1_555 1_555
Zn3 O4 1_555 1_555
O6_2 C3_2 1_555 1_555
O7 Zn3 1_555 1_555
C4_2 C12_2 1_555 1_555
C10_2 C25_2 1_555 1_555
C13_2 C29_2 1_555 1_555
C14_2 C26_2 1_555 1_555
N1 C19_2 1_555 1_555
C21_2 C24_2 1_555 1_555
C24_2 H10_2 1_555 1_555
C28_2 C23_2 1_555 1_555
H14_2 C28_2 1_555 1_555
C31_2 C21_2 1_555 1_555
H17_2 C31_2 1_555 1_555
H18_2 C31_2 1_555 1_555
C32_2 C19_2 1_555 1_555
H19_2 C32_2 1_555 1_555
C34_2 N1 1_555 1_555
C37_2 N2_2 1_555 1_555
H24_2 C37_2 1_555 1_555
C38_2 C23_2 1_555 1_555
H25_2 C38_2 1_555 1_555
H26_2 C38_2 1_555 1_555
C39_2 C31_2 1_555 1_555
H27_2 C39_2 1_555 1_555
H28_2 C39_2 1_555 1_555
C21_2 C32_2 1_555 1_555
C24_2 C34_2 1_555 1_555
C28_2 C37_2 1_555 1_555
C38_2 C39_2 1_555 1_555
O3 C15_2 1_555 1_555
O10_2 C17_2 1_555 1_555
C9_2 C15_2 1_555 1_555
C16_2 H6_2 1_555 1_555
C17_2 C16_2 1_555 1_555
H7_2 C18_2 1_555 1_555
C20_2 O10_2 1_555 1_555
C33_2 C17_2 1_555 1_555
C35_2 C9_2 1_555 1_555
C36_2 C20_2 1_555 1_555
H23_2 C36_2 1_555 1_555
C40_2 C20_2 1_555 1_555
H29_2 C40_2 1_555 1_555
C41_2 C9_2 1_555 1_555
H30_2 C41_2 1_555 1_555
C16_2 C18_2 1_555 1_555
C35_2 C36_2 1_555 1_555
C40_2 C41_2 1_555 1_555

#END
