
###############################################################################
#
# This file contains modified crystal structure data generated from the
# MOF subset of the Cambridge Structural Database (CSD) v543 
# hosted by the Cambridge Crystallographic Data Centre (CCDC).
#
# This work is licensed under the Creative Commons
# Attribution-NonCommercial-ShareAlike 4.0 International License.
# To view a copy of this license, visit
# http://creativecommons.org/licenses/by-nc-sa/4.0/
# or send a letter to
# Creative Commons, PO Box 1866, Mountain View, CA 94042, USA.
#
# CIF created using the CSD Python API on 29 September 2022
# The structure has been converted into the P1 space group
# The structure has a 3D framework
# The original CSD entry ALAJOP01 is in the triclinic crystal system
# The framework has been calculated to contain at least 10.0% void space
# The void calculation uses a probe of radius 1.32A, grid spacing 0.4
# H atom positions have been added when not included in the experimental data
#
###############################################################################

data_ALAJOP01
_chemical_formula_moiety         '(C124 H96 N4 O16 Zn4)n'
_symmetry_cell_setting           triclinic
_symmetry_space_group_name_H-M   'P 1'
_symmetry_Int_Tables_number      1
_space_group_name_Hall           'P 1'
loop_
_symmetry_equiv_pos_site_id
_symmetry_equiv_pos_as_xyz
1 x,y,z
_cell_length_a                   18.278(2)
_cell_length_b                   19.403(3)
_cell_length_c                   19.438(3)
_cell_angle_alpha                68.819(4)
_cell_angle_beta                 87.825(4)
_cell_angle_gamma                80.484(4)
_cell_volume                     6337.71
loop_
_atom_site_label
_atom_site_type_symbol
_atom_site_fract_x
_atom_site_fract_y
_atom_site_fract_z
N1 N 0.0163(15) 0.6963(14) 0.2061(14)
N2 N 0.6305(15) 0.7275(14) 0.2115(19)
C1 C 0.5315(15) 0.6758(17) 0.1853(16)
H1 H 0.5159(15) 0.6435(17) 0.1655(16)
C3 C 0.480(2) 0.713(2) 0.214(3)
C4 C 0.169(2) 0.704(2) 0.198(2)
C5 C 0.6032(19) 0.680(2) 0.1823(17)
H2 H 0.6354(19) 0.652(2) 0.1607(17)
C7 C 0.3586(14) 0.7014(15) 0.2792(19)
C8 C 0.1366(15) 0.6446(17) 0.2554(12)
H3 H 0.1676(15) 0.6076(17) 0.2917(12)
C13 C 0.2804(13) 0.6931(16) 0.2727(18)
H6 H 0.2547(13) 0.6768(16) 0.3163(18)
C14 C 0.242(3) 0.707(3) 0.208(3)
C17 C 0.5133(13) 0.7723(17) 0.2452(15)
C20 C 0.5824(19) 0.7689(15) 0.2426(15)
H9 H 0.6030(19) 0.7973(15) 0.2640(15)
C21 C 0.3680(17) 0.7202(15) 0.148(2)
H10 H 0.4001(17) 0.7268(15) 0.109(2)
C24 C 0.1200(15) 0.753(2) 0.150(2)
H12 H 0.1381(15) 0.788(2) 0.109(2)
C25 C 0.0443(17) 0.7562(18) 0.1546(16)
C26 C 0.0609(16) 0.6422(16) 0.2564(14)
H13 H 0.0417(16) 0.6032(16) 0.2920(14)
C27 C 0.3955(18) 0.713(2) 0.2208(19)
C29 C 0.2926(15) 0.7175(15) 0.138(2)
C31 C 0.386(3) 0.696(4) 0.356(3)
H15 H 0.36(3) 0.73(3) 0.37(3)
H16 H 0.38(3) 0.65(3) 0.39(3)
C36 C 0.2637(14) 0.724(2) 0.0687(19)
H18 H 0.2117(14) 0.721(2) 0.0726(19)
H19 H 0.2704(14) 0.772(2) 0.0324(19)
H20 H 0.2894(14) 0.685(2) 0.0541(19)
Zn7 Zn 0.7405(2) 0.7322(2) 0.2030(2)
H46 H 0.444317 0.702028 0.353849
H47 H 0.477563 0.810756 0.266088
H48 H 0.0070726 0.804677 0.118624
O2 O 0.877(2) 0.727(2) 0.0967(12)
O3 O 0.7578(15) 0.7536(14) 0.0930(13)
C10 C 0.8201(17) 0.741(2) 0.0659(17)
Zn4 Zn 0.90447(19) 0.7033(2) 0.2080(2)
O1 O 0.7736(13) 0.6197(12) 0.2140(13)
O5 O 0.8866(19) 0.600(2) 0.2230(19)
O6 O 0.7617(11) 0.7115(16) 0.3098(14)
O7 O 0.887(2) 0.685(3) 0.3195(18)
C2 C 0.835(3) 0.502(2) 0.211(2)
C6 C 0.832(3) 0.5799(19) 0.219(2)
C9 C 0.8228(16) 0.7443(16) 0.9885(17)
C11 C 0.757(2) 0.758(2) 0.944(2)
H4 H 0.711(2) 0.764(2) 0.965(2)
C12 C 0.765(3) 0.487(3) 0.197(5)
H5 H 0.722(3) 0.518(3) 0.199(5)
C18 C 0.8892(19) 0.729(2) 0.9558(18)
H7 H 0.9338(19) 0.718(2) 0.9820(18)
C19 C 0.763(2) 0.425(3) 0.180(3)
H8 H 0.720(2) 0.420(3) 0.159(3)
C22 C 0.833(4) 0.738(3) 0.772(3)
C23 C 0.891(2) 0.459(2) 0.220(3)
H11 H 0.935(2) 0.473(2) 0.231(3)
C28 C 0.827(4) 0.695(3) 0.342(4)
C30 C 0.758(3) 0.715(4) 0.460(3)
H14 H 0.713(3) 0.727(4) 0.435(3)
C32 C 0.826(2) 0.367(2) 0.197(2)
C33 C 0.824(14) 0.697(9) 0.420(6)
C35 C 0.798(3) 0.795(2) 0.703(2)
C37 C 0.866(2) 0.670(3) 0.7589(18)
H21 H 0.888(2) 0.630(3) 0.7991(18)
C38 C 0.8664(18) 0.661(3) 0.6947(18)
C39 C 0.758(3) 0.763(2) 0.870(3)
H22 H 0.715(3) 0.776(2) 0.841(3)
C40 C 0.758(3) 0.714(4) 0.524(3)
H23 H 0.713(3) 0.721(4) 0.546(3)
C41 C 0.830(4) 0.079(3) 0.169(3)
C42 C 0.892(3) 0.689(6) 0.451(3)
H24 H 0.936(3) 0.681(6) 0.427(3)
C43 C 0.832(4) 0.718(4) 0.632(3)
C44 C 0.8765(15) 0.2712(19) 0.147(3)
H25 H 0.9111(15) 0.3021(19) 0.125(3)
C45 C 0.825(4) 0.705(6) 0.564(4)
C46 C 0.896(3) 0.381(3) 0.215(3)
H26 H 0.940(3) 0.347(3) 0.223(3)
C47 C 0.889(2) 0.730(3) 0.886(2)
H27 H 0.935(2) 0.719(3) 0.866(2)
C48 C 0.825(3) 0.155(3) 0.172(7)
C49 C 0.760(2) 0.053(2) 0.171(3)
H28 H 0.718(2) 0.086(2) 0.172(3)
C50 C 0.823(9) 0.292(6) 0.189(4)
C51 C 0.886(3) 0.026(3) 0.179(4)
H29 H 0.932(3) 0.039(3) 0.184(4)
C52 C 0.802(3) 0.779(3) 0.641(2)
H30 H 0.780(3) 0.817(3) 0.599(2)
C53 C 0.879(2) 0.1990(18) 0.138(3)
C54 C 0.890(5) 0.693(10) 0.525(5)
H31 H 0.935(5) 0.687(10) 0.548(5)
C55 C 0.827(3) 0.745(3) 0.841(2)
C56 C 0.898(3) 0.587(3) 0.692(2)
H32 H 0.895(3) 0.588(3) 0.643(2)
H33 H 0.949(3) 0.574(3) 0.709(2)
H34 H 0.871(3) 0.550(3) 0.724(2)
C57 C 0.776(3) 0.177(2) 0.221(3)
H35 H 0.741(3) 0.146(2) 0.244(3)
C59 C 0.777(3) 0.247(2) 0.236(4)
C60 C 0.929(4) 0.188(3) 0.083(5)
H37 H 0.960(4) 0.227(3) 0.069(5)
H38 H 0.960(4) 0.140(3) 0.103(5)
H39 H 0.902(4) 0.192(3) 0.041(5)
C61 C 0.766(4) 0.877(3) 0.713(2)
H40 H 0.770(4) 0.871(3) 0.764(2)
H41 H 0.795(4) 0.914(3) 0.683(2)
H42 H 0.715(4) 0.892(3) 0.697(2)
C62 C 0.715(4) 0.267(3) 0.286(6)
H43 H 0.692(4) 0.224(3) 0.312(6)
H44 H 0.735(4) 0.284(3) 0.320(6)
H45 H 0.678(4) 0.306(3) 0.255(6)
O13 O 0.880(2) 0.8126(18) 0.187(2)
O4 O 0.7482(12) 0.8427(12) 0.1799(15)
C15 C 0.818(2) 0.932(3) 0.176(5)
C16 C 0.8151(19) 0.856(3) 0.185(2)
C34 C 0.750(2) 0.991(2) 0.172(4)
H17 H 0.703(2) 0.981(2) 0.170(4)
C58 C 0.889(3) 0.956(4) 0.183(5)
H36 H 0.934(3) 0.923(4) 0.189(5)
Zn2 Zn 0.2595(2) 0.2678(2) 0.7970(2)
O4_2 O 0.2518(12) 0.1573(12) 0.8201(15)
O8 O 0.120(2) 0.1874(18) 0.813(2)
C15_2 C 0.182(2) 0.068(3) 0.824(5)
C16_2 C 0.1849(19) 0.144(3) 0.815(2)
C34_2 C 0.250(2) 0.009(2) 0.828(4)
H17_2 H 0.297(2) 0.019(2) 0.830(4)
C58_2 C 0.111(3) 0.044(4) 0.817(5)
H36_2 H 0.066(3) 0.077(4) 0.811(5)
Zn3 Zn 0.09553(19) 0.2967(2) 0.7920(2)
O9 O 0.2264(13) 0.3803(12) 0.7860(13)
O11 O 0.2422(15) 0.2464(14) 0.9070(13)
O12 O 0.2383(11) 0.2885(16) 0.6902(14)
N3 N 0.3695(15) 0.2725(14) 0.7885(19)
O5_2 O 0.1134(19) 0.400(2) 0.7770(19)
O7_2 O 0.113(2) 0.315(3) 0.6805(18)
C2_2 C 0.165(3) 0.498(2) 0.789(2)
C6_2 C 0.168(3) 0.4201(19) 0.781(2)
C9_2 C 0.1772(16) 0.2557(16) 0.0115(17)
C11_2 C 0.243(2) 0.242(2) 0.056(2)
H4_2 H 0.289(2) 0.236(2) 0.035(2)
C12_2 C 0.235(3) 0.513(3) 0.803(5)
H5_2 H 0.278(3) 0.482(3) 0.801(5)
C18_2 C 0.1108(19) 0.271(2) 0.0442(18)
H7_2 H 0.0662(19) 0.282(2) 0.0180(18)
C19_2 C 0.237(2) 0.575(3) 0.820(3)
H8_2 H 0.280(2) 0.580(3) 0.841(3)
C22_2 C 0.167(4) 0.262(3) 0.228(3)
C23_2 C 0.109(2) 0.541(2) 0.780(3)
H11_2 H 0.065(2) 0.527(2) 0.769(3)
C28_2 C 0.173(4) 0.305(3) 0.658(4)
C30_2 C 0.242(3) 0.285(4) 0.540(3)
H14_2 H 0.287(3) 0.273(4) 0.565(3)
C32_2 C 0.174(2) 0.633(2) 0.803(2)
C33_2 C 0.176(14) 0.303(9) 0.580(6)
C35_2 C 0.202(3) 0.205(2) 0.297(2)
C37_2 C 0.134(2) 0.330(3) 0.2411(18)
H21_2 H 0.112(2) 0.370(3) 0.2009(18)
C38_2 C 0.1336(18) 0.339(3) 0.3053(18)
C39_2 C 0.242(3) 0.237(2) 0.130(3)
H22_2 H 0.285(3) 0.224(2) 0.159(3)
C40_2 C 0.242(3) 0.286(4) 0.476(3)
H23_2 H 0.287(3) 0.279(4) 0.454(3)
C41_2 C 0.170(4) 0.921(3) 0.831(3)
C42_2 C 0.108(3) 0.311(6) 0.549(3)
H24_2 H 0.064(3) 0.319(6) 0.573(3)
C43_2 C 0.168(4) 0.282(4) 0.368(3)
C44_2 C 0.1235(15) 0.7288(19) 0.853(3)
H25_2 H 0.0889(15) 0.6979(19) 0.875(3)
C45_2 C 0.175(4) 0.295(6) 0.436(4)
C46_2 C 0.104(3) 0.619(3) 0.785(3)
H26_2 H 0.060(3) 0.653(3) 0.777(3)
C47_2 C 0.111(2) 0.270(3) 0.114(2)
H27_2 H 0.065(2) 0.281(3) 0.134(2)
C48_2 C 0.175(3) 0.845(3) 0.828(7)
C49_2 C 0.240(2) 0.947(2) 0.829(3)
H28_2 H 0.282(2) 0.914(2) 0.828(3)
C50_2 C 0.177(9) 0.708(6) 0.811(4)
C51_2 C 0.114(3) 0.974(3) 0.821(4)
H29_2 H 0.068(3) 0.961(3) 0.816(4)
C52_2 C 0.198(3) 0.221(3) 0.359(2)
H30_2 H 0.220(3) 0.183(3) 0.401(2)
C53_2 C 0.121(2) 0.8010(18) 0.862(3)
C54_2 C 0.110(5) 0.307(10) 0.475(5)
H31_2 H 0.065(5) 0.313(10) 0.452(5)
C55_2 C 0.173(3) 0.255(3) 0.159(2)
C56_2 C 0.102(3) 0.413(3) 0.308(2)
H32_2 H 0.105(3) 0.412(3) 0.357(2)
H33_2 H 0.051(3) 0.426(3) 0.291(2)
H34_2 H 0.129(3) 0.450(3) 0.276(2)
C57_2 C 0.224(3) 0.823(2) 0.779(3)
H35_2 H 0.259(3) 0.854(2) 0.756(3)
C59_2 C 0.223(3) 0.753(2) 0.764(4)
C60_2 C 0.071(4) 0.812(3) 0.917(5)
H37_2 H 0.040(4) 0.773(3) 0.931(5)
H38_2 H 0.040(4) 0.860(3) 0.897(5)
H39_2 H 0.098(4) 0.808(3) 0.959(5)
C61_2 C 0.234(4) 0.123(3) 0.287(2)
H40_2 H 0.230(4) 0.129(3) 0.236(2)
H41_2 H 0.205(4) 0.086(3) 0.317(2)
H42_2 H 0.285(4) 0.108(3) 0.303(2)
C62_2 C 0.285(4) 0.733(3) 0.714(6)
H43_2 H 0.308(4) 0.776(3) 0.688(6)
H44_2 H 0.265(4) 0.716(3) 0.680(6)
H45_2 H 0.322(4) 0.694(3) 0.745(6)
O10 O 0.123(2) 0.273(2) 0.9033(12)
C10_2 C 0.1799(17) 0.259(2) 0.9341(17)
N1_2 N 0.9837(15) 0.3037(14) 0.7939(14)
C1_2 C 0.4685(15) 0.3242(17) 0.8147(16)
H1_2 H 0.4841(15) 0.3565(17) 0.8345(16)
C3_2 C 0.520(2) 0.287(2) 0.786(3)
C4_2 C 0.831(2) 0.296(2) 0.802(2)
C5_2 C 0.3968(19) 0.320(2) 0.8177(17)
H2_2 H 0.3646(19) 0.348(2) 0.8393(17)
C7_2 C 0.6414(14) 0.2986(15) 0.7208(19)
C8_2 C 0.8634(15) 0.3554(17) 0.7446(12)
H3_2 H 0.8324(15) 0.3924(17) 0.7083(12)
C13_2 C 0.7196(13) 0.3069(16) 0.7273(18)
H6_2 H 0.7453(13) 0.3232(16) 0.6837(18)
C14_2 C 0.758(3) 0.293(3) 0.792(3)
C17_2 C 0.4867(13) 0.2277(17) 0.7548(15)
C20_2 C 0.4176(19) 0.2311(15) 0.7574(15)
H9_2 H 0.3970(19) 0.2027(15) 0.7360(15)
C21_2 C 0.6320(17) 0.2798(15) 0.852(2)
H10_2 H 0.5999(17) 0.2732(15) 0.891(2)
C24_2 C 0.8800(15) 0.247(2) 0.850(2)
H12_2 H 0.8619(15) 0.212(2) 0.891(2)
C25_2 C 0.9557(17) 0.2438(18) 0.8454(16)
C26_2 C 0.9391(16) 0.3578(16) 0.7436(14)
H13_2 H 0.9583(16) 0.3968(16) 0.7080(14)
C27_2 C 0.6045(18) 0.287(2) 0.7792(19)
C29_2 C 0.7074(15) 0.2825(15) 0.862(2)
C31_2 C 0.614(3) 0.304(4) 0.644(3)
H15_2 H 0.64(3) 0.27(3) 0.63(3)
H16_2 H 0.62(3) 0.35(3) 0.61(3)
C36_2 C 0.7363(14) 0.276(2) 0.9313(19)
H18_2 H 0.7883(14) 0.279(2) 0.9274(19)
H19_2 H 0.7296(14) 0.228(2) 0.9676(19)
H20_2 H 0.7106(14) 0.315(2) 0.9459(19)
H46_2 H 0.555683 0.297972 0.646151
H47_2 H 0.522437 0.189244 0.733912
H48_2 H 0.992927 0.195323 0.881376
loop_
_geom_bond_atom_site_label_1
_geom_bond_atom_site_label_2
_geom_bond_site_symmetry_1
_geom_bond_site_symmetry_2
N2 C5 1_555 1_555
C1 H1 1_555 1_555
C3 C1 1_555 1_555
C4 C8 1_555 1_555
C5 C1 1_555 1_555
H2 C5 1_555 1_555
C7 C13 1_555 1_555
C8 H3 1_555 1_555
C13 H6 1_555 1_555
C14 C4 1_555 1_555
C17 C3 1_555 1_555
C20 N2 1_555 1_555
H9 C20 1_555 1_555
C21 H10 1_555 1_555
C24 C4 1_555 1_555
H12 C24 1_555 1_555
C25 N1 1_555 1_555
C26 N1 1_555 1_555
H13 C26 1_555 1_555
C27 C3 1_555 1_555
C29 C14 1_555 1_555
C31 C7 1_555 1_555
H15 C31 1_555 1_555
H16 C31 1_555 1_555
C36 C29 1_555 1_555
H18 C36 1_555 1_555
H19 C36 1_555 1_555
H20 C36 1_555 1_555
Zn7 N2 1_555 1_555
C7 C27 1_555 1_555
C8 C26 1_555 1_555
C13 C14 1_555 1_555
C17 C20 1_555 1_555
C21 C27 1_555 1_555
C21 C29 1_555 1_555
C24 C25 1_555 1_555
C31 H46 1_555 1_555
C17 H47 1_555 1_555
C25 H48 1_555 1_555
O2 C10 1_555 1_555
O3 C10 1_555 1_555
Zn4 O2 1_555 1_555
Zn7 O3 1_555 1_555
Zn4 O5 1_555 1_555
O1 C6 1_555 1_555
O5 C6 1_555 1_555
O6 C28 1_555 1_555
O7 Zn4 1_555 1_555
C2 C6 1_555 1_555
C11 C9 1_555 1_555
H4 C11 1_555 1_555
C12 C2 1_555 1_555
H5 C12 1_555 1_555
C18 C9 1_555 1_555
H7 C18 1_555 1_555
C19 C12 1_555 1_555
H8 C19 1_555 1_555
C22 C35 1_555 1_555
C23 C2 1_555 1_555
H11 C23 1_555 1_555
C28 O7 1_555 1_555
C30 H14 1_555 1_555
C32 C19 1_555 1_555
C33 C28 1_555 1_555
C35 C52 1_555 1_555
C37 C22 1_555 1_555
H21 C37 1_555 1_555
C38 C37 1_555 1_555
C39 C11 1_555 1_555
H22 C39 1_555 1_555
C40 C30 1_555 1_555
H23 C40 1_555 1_555
C41 C48 1_555 1_555
C42 C33 1_555 1_555
H24 C42 1_555 1_555
C43 C38 1_555 1_555
C44 H25 1_555 1_555
C45 C40 1_555 1_555
C46 C23 1_555 1_555
H26 C46 1_555 1_555
C47 C18 1_555 1_555
H27 C47 1_555 1_555
C48 C53 1_555 1_555
H28 C49 1_555 1_555
C50 C32 1_555 1_555
C51 C41 1_555 1_555
H29 C51 1_555 1_555
C52 C43 1_555 1_555
H30 C52 1_555 1_555
C53 C44 1_555 1_555
C54 C42 1_555 1_555
H31 C54 1_555 1_555
C55 C22 1_555 1_555
C56 C38 1_555 1_555
H32 C56 1_555 1_555
H33 C56 1_555 1_555
H34 C56 1_555 1_555
C57 C48 1_555 1_555
H35 C57 1_555 1_555
C59 C50 1_555 1_555
C60 C53 1_555 1_555
H37 C60 1_555 1_555
H38 C60 1_555 1_555
H39 C60 1_555 1_555
C61 C35 1_555 1_555
H40 C61 1_555 1_555
H41 C61 1_555 1_555
H42 C61 1_555 1_555
C62 C59 1_555 1_555
H43 C62 1_555 1_555
H44 C62 1_555 1_555
H45 C62 1_555 1_555
Zn7 O1 1_555 1_555
O13 Zn4 1_555 1_555
O6 Zn7 1_555 1_555
C30 C33 1_555 1_555
C32 C46 1_555 1_555
C39 C55 1_555 1_555
C41 C49 1_555 1_555
C43 C45 1_555 1_555
C44 C50 1_555 1_555
C45 C54 1_555 1_555
C47 C55 1_555 1_555
C57 C59 1_555 1_555
Zn7 O4 1_555 1_555
O4 C16 1_555 1_555
O13 C16 1_555 1_555
C15 C16 1_555 1_555
C34 C15 1_555 1_555
H17 C34 1_555 1_555
C58 C15 1_555 1_555
H36 C58 1_555 1_555
Zn2 O4_2 1_555 1_555
O4_2 C16_2 1_555 1_555
O8 C16_2 1_555 1_555
C15_2 C16_2 1_555 1_555
C34_2 C15_2 1_555 1_555
H17_2 C34_2 1_555 1_555
C58_2 C15_2 1_555 1_555
H36_2 C58_2 1_555 1_555
Zn3 O8 1_555 1_555
O9 Zn2 1_555 1_555
O11 Zn2 1_555 1_555
O12 Zn2 1_555 1_555
N3 Zn2 1_555 1_555
Zn3 O5_2 1_555 1_555
O9 C6_2 1_555 1_555
O5_2 C6_2 1_555 1_555
O12 C28_2 1_555 1_555
O7_2 Zn3 1_555 1_555
C2_2 C6_2 1_555 1_555
C11_2 C9_2 1_555 1_555
H4_2 C11_2 1_555 1_555
C12_2 C2_2 1_555 1_555
H5_2 C12_2 1_555 1_555
C18_2 C9_2 1_555 1_555
H7_2 C18_2 1_555 1_555
C19_2 C12_2 1_555 1_555
H8_2 C19_2 1_555 1_555
C22_2 C35_2 1_555 1_555
C23_2 C2_2 1_555 1_555
H11_2 C23_2 1_555 1_555
C28_2 O7_2 1_555 1_555
C30_2 H14_2 1_555 1_555
C32_2 C19_2 1_555 1_555
C33_2 C28_2 1_555 1_555
C35_2 C52_2 1_555 1_555
C37_2 C22_2 1_555 1_555
H21_2 C37_2 1_555 1_555
C38_2 C37_2 1_555 1_555
C39_2 C11_2 1_555 1_555
H22_2 C39_2 1_555 1_555
C40_2 C30_2 1_555 1_555
H23_2 C40_2 1_555 1_555
C41_2 C48_2 1_555 1_555
C42_2 C33_2 1_555 1_555
H24_2 C42_2 1_555 1_555
C43_2 C38_2 1_555 1_555
C44_2 H25_2 1_555 1_555
C45_2 C40_2 1_555 1_555
C46_2 C23_2 1_555 1_555
H26_2 C46_2 1_555 1_555
C47_2 C18_2 1_555 1_555
H27_2 C47_2 1_555 1_555
C48_2 C53_2 1_555 1_555
H28_2 C49_2 1_555 1_555
C50_2 C32_2 1_555 1_555
C51_2 C41_2 1_555 1_555
H29_2 C51_2 1_555 1_555
C52_2 C43_2 1_555 1_555
H30_2 C52_2 1_555 1_555
C53_2 C44_2 1_555 1_555
C54_2 C42_2 1_555 1_555
H31_2 C54_2 1_555 1_555
C55_2 C22_2 1_555 1_555
C56_2 C38_2 1_555 1_555
H32_2 C56_2 1_555 1_555
H33_2 C56_2 1_555 1_555
H34_2 C56_2 1_555 1_555
C57_2 C48_2 1_555 1_555
H35_2 C57_2 1_555 1_555
C59_2 C50_2 1_555 1_555
C60_2 C53_2 1_555 1_555
H37_2 C60_2 1_555 1_555
H38_2 C60_2 1_555 1_555
H39_2 C60_2 1_555 1_555
C61_2 C35_2 1_555 1_555
H40_2 C61_2 1_555 1_555
H41_2 C61_2 1_555 1_555
H42_2 C61_2 1_555 1_555
C62_2 C59_2 1_555 1_555
H43_2 C62_2 1_555 1_555
H44_2 C62_2 1_555 1_555
H45_2 C62_2 1_555 1_555
O10 Zn3 1_555 1_555
C30_2 C33_2 1_555 1_555
C32_2 C46_2 1_555 1_555
C39_2 C55_2 1_555 1_555
C41_2 C49_2 1_555 1_555
C43_2 C45_2 1_555 1_555
C44_2 C50_2 1_555 1_555
C45_2 C54_2 1_555 1_555
C47_2 C55_2 1_555 1_555
C57_2 C59_2 1_555 1_555
O10 C10_2 1_555 1_555
O11 C10_2 1_555 1_555
N3 C5_2 1_555 1_555
C1_2 H1_2 1_555 1_555
C3_2 C1_2 1_555 1_555
C4_2 C8_2 1_555 1_555
C5_2 C1_2 1_555 1_555
H2_2 C5_2 1_555 1_555
C7_2 C13_2 1_555 1_555
C8_2 H3_2 1_555 1_555
C13_2 H6_2 1_555 1_555
C14_2 C4_2 1_555 1_555
C17_2 C3_2 1_555 1_555
C20_2 N3 1_555 1_555
H9_2 C20_2 1_555 1_555
C21_2 H10_2 1_555 1_555
C24_2 C4_2 1_555 1_555
H12_2 C24_2 1_555 1_555
C25_2 N1_2 1_555 1_555
C26_2 N1_2 1_555 1_555
H13_2 C26_2 1_555 1_555
C27_2 C3_2 1_555 1_555
C29_2 C14_2 1_555 1_555
C31_2 C7_2 1_555 1_555
H15_2 C31_2 1_555 1_555
H16_2 C31_2 1_555 1_555
C36_2 C29_2 1_555 1_555
H18_2 C36_2 1_555 1_555
H19_2 C36_2 1_555 1_555
H20_2 C36_2 1_555 1_555
C7_2 C27_2 1_555 1_555
C8_2 C26_2 1_555 1_555
C13_2 C14_2 1_555 1_555
C17_2 C20_2 1_555 1_555
C21_2 C27_2 1_555 1_555
C21_2 C29_2 1_555 1_555
C24_2 C25_2 1_555 1_555
C31_2 H46_2 1_555 1_555
C17_2 H47_2 1_555 1_555
C25_2 H48_2 1_555 1_555

#END
