
###############################################################################
#
# This file contains modified crystal structure data generated from the
# MOF subset of the Cambridge Structural Database (CSD) v543 
# hosted by the Cambridge Crystallographic Data Centre (CCDC).
#
# This work is licensed under the Creative Commons
# Attribution-NonCommercial-ShareAlike 4.0 International License.
# To view a copy of this license, visit
# http://creativecommons.org/licenses/by-nc-sa/4.0/
# or send a letter to
# Creative Commons, PO Box 1866, Mountain View, CA 94042, USA.
#
# CIF created using the CSD Python API on 29 September 2022
# The structure has been converted into the P1 space group
# The structure has a 3D framework
# The original CSD entry ALICEE is in the tetragonal crystal system
# The original CSD entry ALICEE is in a Sohncke space group
# The framework has been calculated to contain at least 10.0% void space
# The void calculation uses a probe of radius 1.32A, grid spacing 0.4
# The framework is charged, counterions have been retained in the structure
#
###############################################################################

data_ALICEE
_chemical_formula_moiety         '(C16 H16 Cu19 N26 13+)n'
_symmetry_cell_setting           triclinic
_symmetry_space_group_name_H-M   'P 1'
_symmetry_Int_Tables_number      1
_space_group_name_Hall           'P 1'
loop_
_symmetry_equiv_pos_site_id
_symmetry_equiv_pos_as_xyz
1 x,y,z
_cell_length_a                   19.9156(2)
_cell_length_b                   19.9156(2)
_cell_length_c                   3.2237(3)
_cell_angle_alpha                90
_cell_angle_beta                 90
_cell_angle_gamma                90
_cell_volume                     1278.62
loop_
_atom_site_label
_atom_site_type_symbol
_atom_site_fract_x
_atom_site_fract_y
_atom_site_fract_z
N1 N 0.0671(6) 0.0671(6) 0.0000
Cu2 Cu 0.0000 0.0000 0.0000
Cu3 Cu 0.1333(2) 0.2500 0.1250
C2 C 0.0498(7) 0.1356(6) 0.108(7)
H2 H 0.0099 0.1559 0.1911
N4 N 0.1181(6) 0.1614(6) 0.041(3)
N8 N 0.1181(6) 0.3386(6) 0.209(3)
Cu1 Cu 0.2500 0.1333(2) 0.8750
N1_2 N 0.0671(6) 0.0671(6) 1.0000
C1 C 0.1356(6) 0.0498(7) 0.892(7)
H1 H 0.1559 0.0099 0.8089
Cu2_2 Cu 0.0000 0.0000 1.0000
N2 N 0.1614(6) 0.1181(6) 0.959(3)
N7 N 0.3386(6) 0.1181(6) 0.791(3)
Cu2_3 Cu 1.0000 1.0000 0.0000
Cu5 Cu 0.8667(2) 0.7500 0.1250
N3 N 0.9329(6) 0.9329(6) 0.0000
C4 C 0.9502(7) 0.8644(6) 0.108(7)
H4 H 0.9901 0.8441 0.1911
N6 N 0.8819(6) 0.8386(6) 0.041(3)
Cu2_4 Cu 1.0000 1.0000 1.0000
Cu4 Cu 0.7500 0.8667(2) 0.8750
N3_2 N 0.9329(6) 0.9329(6) 1.0000
C3 C 0.8644(6) 0.9502(7) 0.892(7)
H3 H 0.8441 0.9901 0.8089
N5 N 0.8386(6) 0.8819(6) 0.959(3)
Cu2_5 Cu 0.0000 0.5000 0.2500
Cu5_2 Cu 0.2500 0.3667(2) 0.3750
N3_3 N 0.0671(6) 0.4329(6) 0.2500
C3_2 C 0.0498(7) 0.3644(6) 0.142(7)
C4_2 C 0.1356(6) 0.4502(7) 0.358(7)
H3_2 H 0.0099 0.3441 0.0589
H4_2 H 0.1559 0.4901 0.4411
N6_2 N 0.1614(6) 0.3819(6) 0.291(3)
N1_3 N 0.9329(6) 0.5671(6) 0.2500
C1_2 C 0.9502(7) 0.6356(6) 0.142(7)
H1_2 H 0.9901 0.6559 0.0589
Cu2_6 Cu 1.0000 0.5000 0.2500
N2_2 N 0.8819(6) 0.6614(6) 0.209(3)
Cu3_2 Cu 0.7500 0.6333(2) 0.3750
C2_2 C 0.8644(6) 0.5498(7) 0.358(7)
H2_2 H 0.8441 0.5099 0.4411
N4_2 N 0.8386(6) 0.6181(6) 0.291(3)
N8_2 N 0.6614(6) 0.6181(6) 0.459(3)
N7_2 N 0.6614(6) 0.8819(6) 0.791(3)
N8_3 N 0.3386(6) 0.3819(6) 0.459(3)
N1_4 N 0.5671(6) 0.5671(6) 0.5000
C1_3 C 0.6356(6) 0.5498(7) 0.392(7)
H1_3 H 0.6559 0.5099 0.3089
Cu2_7 Cu 0.5000 0.5000 0.5000
Cu3_3 Cu 0.6333(2) 0.7500 0.6250
Cu5_3 Cu 0.3667(2) 0.2500 0.6250
N3_4 N 0.4329(6) 0.4329(6) 0.5000
C2_3 C 0.5498(7) 0.6356(6) 0.608(7)
C3_3 C 0.3644(6) 0.4502(7) 0.392(7)
C4_3 C 0.4502(7) 0.3644(6) 0.608(7)
H2_3 H 0.5099 0.6559 0.6911
H3_3 H 0.3441 0.4901 0.3089
H4_3 H 0.4901 0.3441 0.6911
N4_3 N 0.6181(6) 0.6614(6) 0.541(3)
N6_3 N 0.3819(6) 0.3386(6) 0.541(3)
N8_4 N 0.6181(6) 0.8386(6) 0.709(3)
N1_5 N 0.4329(6) 0.0671(6) 0.7500
C1_4 C 0.4502(7) 0.1356(6) 0.642(7)
H1_4 H 0.4901 0.1559 0.5589
Cu2_8 Cu 0.5000 0.0000 0.7500
N2_3 N 0.3819(6) 0.1614(6) 0.709(3)
C2_4 C 0.3644(6) 0.0498(7) 0.858(7)
H2_4 H 0.3441 0.0099 0.9411
Cu2_9 Cu 0.5000 1.0000 0.7500
N3_5 N 0.5671(6) 0.9329(6) 0.7500
C3_4 C 0.5498(7) 0.8644(6) 0.642(7)
C4_4 C 0.6356(6) 0.9502(7) 0.858(7)
H3_4 H 0.5099 0.8441 0.5589
H4_4 H 0.6559 0.9901 0.9411
Cu2_10 Cu 0.0000 1.0000 0.0000
Cu2_11 Cu 0.0000 1.0000 1.0000
Cu2_12 Cu 1.0000 0.0000 0.0000
Cu2_13 Cu 1.0000 0.0000 1.0000
loop_
_geom_bond_atom_site_label_1
_geom_bond_atom_site_label_2
_geom_bond_site_symmetry_1
_geom_bond_site_symmetry_2
Cu2 N1 1_555 1_555
Cu3 N4 1_555 1_555
C2 N1 1_555 1_555
H2 C2 1_555 1_555
N8 Cu3 1_555 1_555
C2 N4 1_555 1_555
Cu1 N2 1_555 1_555
N1_2 C1 1_555 1_555
C1 H1 1_555 1_555
Cu2_2 N1_2 1_555 1_555
N2 C1 1_555 1_555
N7 Cu1 1_555 1_555
Cu5 N6 1_555 1_555
N3 Cu2_3 1_555 1_555
C4 N3 1_555 1_555
H4 C4 1_555 1_555
N6 C4 1_555 1_555
Cu4 N5 1_555 1_555
N3_2 Cu2_4 1_555 1_555
C3 N3_2 1_555 1_555
H3 C3 1_555 1_555
N5 C3 1_555 1_555
Cu5_2 N6_2 1_555 1_555
N3_3 Cu2_5 1_555 1_555
C3_2 N3_3 1_555 1_555
C4_2 N3_3 1_555 1_555
H3_2 C3_2 1_555 1_555
H4_2 C4_2 1_555 1_555
N8 C3_2 1_555 1_555
N6_2 C4_2 1_555 1_555
N8 N6_2 1_555 1_555
Cu5 N2_2 1_555 1_555
N1_3 C1_2 1_555 1_555
C1_2 H1_2 1_555 1_555
Cu2_6 N1_3 1_555 1_555
N2_2 C1_2 1_555 1_555
Cu3_2 N4_2 1_555 1_555
C2_2 N1_3 1_555 1_555
H2_2 C2_2 1_555 1_555
N4_2 N2_2 1_555 1_555
N8_2 Cu3_2 1_555 1_555
C2_2 N4_2 1_555 1_555
N7_2 Cu4 1_555 1_555
N8_3 Cu5_2 1_555 1_555
N1_4 C1_3 1_555 1_555
C1_3 H1_3 1_555 1_555
Cu2_7 N1_4 1_555 1_555
N8_2 C1_3 1_555 1_555
Cu3_3 N4_3 1_555 1_555
Cu5_3 N6_3 1_555 1_555
N3_4 Cu2_7 1_555 1_555
C2_3 N1_4 1_555 1_555
C3_3 N3_4 1_555 1_555
C4_3 N3_4 1_555 1_555
H2_3 C2_3 1_555 1_555
H3_3 C3_3 1_555 1_555
H4_3 C4_3 1_555 1_555
N4_3 N8_2 1_555 1_555
N8_3 C3_3 1_555 1_555
N6_3 C4_3 1_555 1_555
N8_4 Cu3_3 1_555 1_555
C2_3 N4_3 1_555 1_555
N8_3 N6_3 1_555 1_555
Cu5_3 N2_3 1_555 1_555
N1_5 C1_4 1_555 1_555
C1_4 H1_4 1_555 1_555
Cu2_8 N1_5 1_555 1_555
N2_3 C1_4 1_555 1_555
C2_4 N1_5 1_555 1_555
H2_4 C2_4 1_555 1_555
N7 N2_3 1_555 1_555
C2_4 N7 1_555 1_555
N3_5 Cu2_9 1_555 1_555
C3_4 N3_5 1_555 1_555
C4_4 N3_5 1_555 1_555
H3_4 C3_4 1_555 1_555
H4_4 C4_4 1_555 1_555
N8_4 C3_4 1_555 1_555
N7_2 C4_4 1_555 1_555
N8_4 N7_2 1_555 1_555

#END
