
###############################################################################
#
# This file contains modified crystal structure data generated from the
# MOF subset of the Cambridge Structural Database (CSD) v543 
# hosted by the Cambridge Crystallographic Data Centre (CCDC).
#
# This work is licensed under the Creative Commons
# Attribution-NonCommercial-ShareAlike 4.0 International License.
# To view a copy of this license, visit
# http://creativecommons.org/licenses/by-nc-sa/4.0/
# or send a letter to
# Creative Commons, PO Box 1866, Mountain View, CA 94042, USA.
#
# CIF created using the CSD Python API on 29 September 2022
# The structure has been converted into the P1 space group
# The structure has a 3D framework
# The original CSD entry ALIXOJ is in the monoclinic crystal system
# The framework has been calculated to contain at least 10.0% void space
# The void calculation uses a probe of radius 1.32A, grid spacing 0.4
#
###############################################################################

data_ALIXOJ
_chemical_formula_moiety         '(C80 H92 N4 Ni8 O52)n'
_symmetry_cell_setting           triclinic
_symmetry_space_group_name_H-M   'P 1'
_symmetry_Int_Tables_number      1
_space_group_name_Hall           'P 1'
loop_
_symmetry_equiv_pos_site_id
_symmetry_equiv_pos_as_xyz
1 x,y,z
_cell_length_a                   10.247(2)
_cell_length_b                   15.250(3)
_cell_length_c                   20.946(4)
_cell_angle_alpha                90
_cell_angle_beta                 99.91(3)
_cell_angle_gamma                90
_cell_volume                     3224.33
loop_
_atom_site_label
_atom_site_type_symbol
_atom_site_fract_x
_atom_site_fract_y
_atom_site_fract_z
C11 C 0.0183(6) 0.1936(4) 0.5026(3)
H7 H 0.0804 0.2384 0.5037
C15 C 0.0115(7) 0.2240(5) 0.6187(3)
C16 C 0.0443(7) 0.1653(4) 0.3878(3)
H16 H 0.0218 0.2223 0.7011
O4 O 0.0694(5) 0.2960(3) 0.6137(2)
O5 O 0.1422(5) 0.2151(3) 0.3968(2)
Ni3 Ni 0.25327(8) 0.26181(5) 0.33127(4)
Ni5 Ni 0.20295(8) 0.35709(5) 0.68574(4)
Ni2 Ni 0.20295(8) 0.14291(5) 0.18574(4)
C1 C 0.4830(6) 0.0217(4) 0.3380(3)
C2 C 0.5496(7) 0.0323(4) 0.4017(3)
H1 H 0.5292 0.0799 0.4260
H5 H 0.6621 0.0056 0.5249
C8 C 0.8287(6) 0.0613(4) 0.4976(3)
C9 C 0.8688(7) 0.1079(5) 0.5552(3)
H6 H 0.8326 0.0949 0.5919
C10 C 0.9646(7) 0.1747(5) 0.5572(3)
C12 C 0.9792(7) 0.1454(4) 0.4454(3)
C13 C 0.8841(7) 0.0804(5) 0.4439(3)
H8 H 0.8572 0.0491 0.4058
C14 C 0.3819(7) 0.0886(4) 0.3088(3)
C18 C 0.4247(8) 0.2714(5) 0.4583(4)
H9 H 0.3923 0.2147 0.4604
C19 C 0.5678(11) 0.3873(7) 0.5075(5)
H10 H 0.6298 0.3961 0.5469
H11 H 0.4982 0.4300 0.5047
H12 H 0.6126 0.3937 0.4711
C20 C 0.5532(10) 0.2456(7) 0.5642(5)
H13 H 0.6174 0.2774 0.5943
H14 H 0.5921 0.1922 0.5520
H15 H 0.4781 0.2320 0.5843
O1 O 0.3296(5) 0.0748(3) 0.2502(2)
O2 O 0.3644(5) 0.1530(3) 0.3431(2)
O3 O 0.9920(6) 0.1901(4) 0.6707(2)
O6 O 0.9923(5) 0.1309(3) 0.3344(2)
O9 O 0.1187(5) 0.2077(3) 0.2556(2)
H17 H 0.046(8) 0.181(8) 0.271(6)
O10 O 0.3817(5) 0.3154(3) 0.4085(2)
O11 O 0.1463(5) 0.3770(3) 0.3334(3)
O12 O 0.2842(5) 0.0763(4) 0.1162(3)
O13 O 0.0678(5) 0.0415(3) 0.1808(3)
N1 N 0.5109(6) 0.2986(4) 0.5073(3)
H18 H 0.142(12) 0.409(6) 0.295(3)
H19 H 0.191(11) 0.406(6) 0.372(3)
H20 H 0.284(11) 0.059(7) 0.0705(17)
H21 H 0.353(9) 0.041(7) 0.144(4)
H22 H 0.010(9) 0.047(8) 0.140(3)
H23 H 0.021(9) 0.012(8) 0.210(4)
O14 O 0.0694(5) 0.2040(3) 0.1137(2)
O16 O 0.3207(5) 0.2472(3) 0.1791(2)
O17 O 0.3526(5) 0.3280(3) 0.2699(2)
C3 C 0.6460(6) 0.9728(4) 0.4293(3)
C4 C 0.6737(6) 0.9025(4) 0.3922(3)
H2 H 0.7366 0.8615 0.4103
C5 C 0.6099(7) 0.8917(4) 0.3287(3)
C6 C 0.5140(7) 0.9522(5) 0.3012(3)
H3 H 0.4715 0.9456 0.2585
C7 C 0.7231(7) 0.9890(5) 0.4963(3)
H4 H 0.7662 0.9349 0.5128
C17 C 0.6486(6) 0.8157(4) 0.2895(3)
O7 O 0.6793(5) 0.7472(3) 0.3209(2)
O8 O 0.6474(5) 0.8280(3) 0.2301(2)
Ni4 Ni 0.74673(8) 0.76181(5) 0.16873(4)
Ni6 Ni 0.79705(8) 0.64291(5) 0.31426(4)
C1_2 C 0.5170(6) 0.5217(4) 0.1620(3)
C2_2 C 0.4504(7) 0.5323(4) 0.0983(3)
H1_2 H 0.4708 0.5799 0.0740
C3_2 C 0.3540(6) 0.4728(4) 0.0707(3)
C4_2 C 0.3263(6) 0.4025(4) 0.1078(3)
H2_2 H 0.2634 0.3615 0.0897
C5_2 C 0.3901(7) 0.3917(4) 0.1713(3)
C6_2 C 0.4860(7) 0.4522(5) 0.1988(3)
H3_2 H 0.5285 0.4456 0.2415
C7_2 C 0.2769(7) 0.4890(5) 0.0037(3)
C8_2 C 0.1713(6) 0.5613(4) 0.0024(3)
C12_2 C 0.0208(7) 0.6454(4) 0.0546(3)
C13_2 C 0.1159(7) 0.5804(5) 0.0561(3)
H8_2 H 0.1428 0.5491 0.0942
C14_2 C 0.6181(7) 0.5886(4) 0.1912(3)
C17_2 C 0.3514(6) 0.3157(4) 0.2105(3)
C18_2 C 0.5753(8) 0.7714(5) 0.0417(4)
H9_2 H 0.6077 0.7147 0.0396
H12_2 H 0.3874 0.8937 0.0289
O1_2 O 0.6704(5) 0.5748(3) 0.2498(2)
O2_2 O 0.6356(5) 0.6530(3) 0.1569(2)
O6_2 O 0.0077(5) 0.6309(3) 0.1656(2)
O9_2 O 0.8813(5) 0.7077(3) 0.2444(2)
H17_2 H 0.954(8) 0.681(8) 0.229(6)
O10_2 O 0.6183(5) 0.8154(3) 0.0915(2)
O11_2 O 0.8537(5) 0.8770(3) 0.1666(3)
O12_2 O 0.7158(5) 0.5763(4) 0.3838(3)
O13_2 O 0.9322(5) 0.5415(3) 0.3192(3)
H18_2 H 0.858(12) 0.909(6) 0.205(3)
H19_2 H 0.809(11) 0.906(6) 0.128(3)
H20_2 H 0.716(11) 0.559(7) 0.4295(17)
H21_2 H 0.647(9) 0.541(7) 0.356(4)
H22_2 H 0.990(9) 0.547(8) 0.360(3)
H23_2 H 0.979(9) 0.512(8) 0.290(4)
O14_2 O 0.9306(5) 0.7040(3) 0.3863(2)
O15 O 0.8578(5) 0.7151(3) 0.1032(2)
C16_2 C 0.9557(7) 0.6653(4) 0.1122(3)
C11_2 C 0.9817(6) 0.6936(4) 0.9974(3)
H7_2 H 0.9196 0.7384 0.9963
C15_2 C 0.9885(7) 0.7240(5) 0.8813(3)
H16_2 H 0.9782 0.7223 0.7989
O4_2 O 0.9306(5) 0.7960(3) 0.8863(2)
Ni5_2 Ni 0.79705(8) 0.85709(5) 0.81426(4)
C3_3 C 0.3540(6) 0.0272(4) 0.5707(3)
C4_3 C 0.3263(6) 0.0975(4) 0.6078(3)
H2_3 H 0.2634 0.1385 0.5897
C5_3 C 0.3901(7) 0.1083(4) 0.6713(3)
C6_3 C 0.4860(7) 0.0478(5) 0.6988(3)
H3_3 H 0.5285 0.0544 0.7415
C7_3 C 0.2769(7) 0.0110(5) 0.5037(3)
H4_2 H 0.2338 0.0651 0.4872
C17_3 C 0.3514(6) 0.1843(4) 0.7105(3)
O7_2 O 0.3207(5) 0.2528(3) 0.6791(2)
O8_2 O 0.3526(5) 0.1720(3) 0.7699(2)
Ni4_2 Ni 0.25327(8) 0.23819(5) 0.83127(4)
Ni1 Ni 0.74673(8) 0.73819(5) 0.66873(4)
C1_3 C 0.5170(6) 0.9783(4) 0.6620(3)
C2_3 C 0.4504(7) 0.9677(4) 0.5983(3)
H1_3 H 0.4708 0.9201 0.5740
H5_2 H 0.3379 0.9944 0.4751
C8_3 C 0.1713(6) 0.9387(4) 0.5024(3)
C9_2 C 0.1312(7) 0.8921(5) 0.4448(3)
H6_2 H 0.1674 0.9051 0.4081
C10_2 C 0.0354(7) 0.8253(5) 0.4428(3)
C12_3 C 0.0208(7) 0.8546(4) 0.5546(3)
C13_3 C 0.1159(7) 0.9196(5) 0.5561(3)
H8_3 H 0.1428 0.9509 0.5942
C14_3 C 0.6181(7) 0.9114(4) 0.6912(3)
C18_3 C 0.5753(8) 0.7286(5) 0.5417(4)
H9_3 H 0.6077 0.7853 0.5396
C19_2 C 0.4322(11) 0.6127(7) 0.4925(5)
H10_2 H 0.3702 0.6039 0.4531
H11_2 H 0.5018 0.5700 0.4953
H12_3 H 0.3874 0.6063 0.5289
C20_2 C 0.4468(10) 0.7544(7) 0.4358(5)
H13_2 H 0.3826 0.7226 0.4057
H14_2 H 0.4079 0.8078 0.4480
H15_2 H 0.5219 0.7680 0.4157
O1_3 O 0.6704(5) 0.9252(3) 0.7498(2)
O2_3 O 0.6356(5) 0.8470(3) 0.6569(2)
O3_2 O 0.0080(6) 0.8099(4) 0.3293(2)
O6_3 O 0.0077(5) 0.8691(3) 0.6656(2)
O9_3 O 0.8813(5) 0.7923(3) 0.7444(2)
H17_3 H 0.954(8) 0.819(8) 0.729(6)
O10_3 O 0.6183(5) 0.6846(3) 0.5915(2)
O11_3 O 0.8537(5) 0.6230(3) 0.6666(3)
O12_3 O 0.7158(5) 0.9237(4) 0.8838(3)
O13_3 O 0.9322(5) 0.9585(3) 0.8192(3)
N1_2 N 0.4891(6) 0.7014(4) 0.4927(3)
H18_3 H 0.858(12) 0.591(6) 0.705(3)
H19_3 H 0.809(11) 0.594(6) 0.628(3)
H20_3 H 0.716(11) 0.941(7) 0.9295(17)
H21_3 H 0.647(9) 0.959(7) 0.856(4)
H22_3 H 0.990(9) 0.953(8) 0.860(3)
H23_3 H 0.979(9) 0.988(8) 0.790(4)
O15_2 O 0.8578(5) 0.7849(3) 0.6032(2)
O16_2 O 0.6793(5) 0.7528(3) 0.8209(2)
O17_2 O 0.6474(5) 0.6720(3) 0.7301(2)
C11_3 C 0.9817(6) 0.8064(4) 0.4974(3)
H7_3 H 0.9196 0.7616 0.4963
C15_3 C 0.9885(7) 0.7760(5) 0.3813(3)
C16_3 C 0.9557(7) 0.8347(4) 0.6122(3)
H16_3 H 0.9782 0.7777 0.2989
C11_4 C 0.0183(6) 0.3064(4) 0.0026(3)
H7_4 H 0.0804 0.2616 0.0037
C15_4 C 0.0115(7) 0.2760(5) 0.1187(3)
H16_4 H 0.0218 0.2777 0.2011
C16_4 C 0.0443(7) 0.3347(4) 0.8878(3)
O5_2 O 0.1422(5) 0.2849(3) 0.8968(2)
C1_4 C 0.4830(6) 0.4783(4) 0.8380(3)
C2_4 C 0.5496(7) 0.4677(4) 0.9017(3)
H1_4 H 0.5292 0.4201 0.9260
C3_4 C 0.6460(6) 0.5272(4) 0.9293(3)
C4_4 C 0.6737(6) 0.5975(4) 0.8922(3)
H2_4 H 0.7366 0.6385 0.9103
C5_4 C 0.6099(7) 0.6083(4) 0.8287(3)
C6_4 C 0.5140(7) 0.5478(5) 0.8012(3)
H3_4 H 0.4715 0.5544 0.7585
C7_4 C 0.7231(7) 0.5110(5) 0.9963(3)
C8_4 C 0.8287(6) 0.4387(4) 0.9976(3)
C12_4 C 0.9792(7) 0.3546(4) 0.9454(3)
C13_4 C 0.8841(7) 0.4196(5) 0.9439(3)
H8_4 H 0.8572 0.4509 0.9058
C14_4 C 0.3819(7) 0.4114(4) 0.8088(3)
C17_4 C 0.6486(6) 0.6843(4) 0.7895(3)
C18_4 C 0.4247(8) 0.2286(5) 0.9583(4)
H9_4 H 0.3923 0.2853 0.9604
H12_4 H 0.6126 0.1063 0.9711
O1_4 O 0.3296(5) 0.4252(3) 0.7502(2)
O2_4 O 0.3644(5) 0.3470(3) 0.8431(2)
O6_4 O 0.9923(5) 0.3691(3) 0.8344(2)
O9_4 O 0.1187(5) 0.2923(3) 0.7556(2)
H17_4 H 0.046(8) 0.319(8) 0.771(6)
O10_4 O 0.3817(5) 0.1846(3) 0.9085(2)
O11_4 O 0.1463(5) 0.1230(3) 0.8334(3)
O12_4 O 0.2842(5) 0.4237(4) 0.6162(3)
O13_4 O 0.0678(5) 0.4585(3) 0.6808(3)
H18_4 H 0.142(12) 0.091(6) 0.795(3)
H19_4 H 0.191(11) 0.094(6) 0.872(3)
H20_4 H 0.284(11) 0.441(7) 0.5705(17)
H21_4 H 0.353(9) 0.459(7) 0.644(4)
H22_4 H 0.010(9) 0.453(8) 0.640(3)
H23_4 H 0.021(9) 0.488(8) 0.710(4)
H4_3 H 0.2338 0.4349 0.9872
H5_3 H 0.3379 0.5056 0.9751
C9_3 C 0.1312(7) 0.6079(5) 0.9448(3)
H6_3 H 0.1674 0.5949 0.9081
C10_3 C 0.0354(7) 0.6747(5) 0.9428(3)
C19_3 C 0.4322(11) 0.8873(7) 0.9925(5)
H10_3 H 0.3702 0.8961 0.9531
H11_3 H 0.5018 0.9300 0.9953
C20_3 C 0.4468(10) 0.7456(7) 0.9358(5)
H13_3 H 0.3826 0.7774 0.9057
H14_3 H 0.4079 0.6922 0.9480
H15_3 H 0.5219 0.7320 0.9157
O3_3 O 0.0080(6) 0.6901(4) 0.8293(2)
N1_3 N 0.4891(6) 0.7986(4) 0.9927(3)
H4_4 H 0.7662 0.5651 0.0128
H5_4 H 0.6621 0.4944 0.0249
C9_4 C 0.8688(7) 0.3921(5) 0.0552(3)
H6_4 H 0.8326 0.4051 0.0919
C10_4 C 0.9646(7) 0.3253(5) 0.0572(3)
C19_4 C 0.5678(11) 0.1127(7) 0.0075(5)
H10_4 H 0.6298 0.1039 0.0469
H11_4 H 0.4982 0.0700 0.0047
C20_4 C 0.5532(10) 0.2544(7) 0.0642(5)
H13_4 H 0.6174 0.2226 0.0943
H14_4 H 0.5921 0.3078 0.0520
H15_4 H 0.4781 0.2680 0.0843
O3_4 O 0.9920(6) 0.3099(4) 0.1707(2)
N1_4 N 0.5109(6) 0.2014(4) 0.0073(3)
loop_
_geom_bond_atom_site_label_1
_geom_bond_atom_site_label_2
_geom_bond_site_symmetry_1
_geom_bond_site_symmetry_2
H7 C11 1_555 1_555
O4 C15 1_555 1_555
O5 C16 1_555 1_555
Ni3 O5 1_555 1_555
Ni5 O4 1_555 1_555
Ni3 O2 1_555 1_555
Ni2 O1 1_555 1_555
C1 C2 1_555 1_555
C2 H1 1_555 1_555
C9 C8 1_555 1_555
H6 C9 1_555 1_555
C10 C9 1_555 1_555
C13 C8 1_555 1_555
H8 C13 1_555 1_555
C14 C1 1_555 1_555
C18 H9 1_555 1_555
C19 H10 1_555 1_555
H11 C19 1_555 1_555
H12 C19 1_555 1_555
C20 H13 1_555 1_555
H14 C20 1_555 1_555
H15 C20 1_555 1_555
O1 C14 1_555 1_555
O2 C14 1_555 1_555
O9 Ni3 1_555 1_555
H17 O9 1_555 1_555
O10 Ni3 1_555 1_555
O11 Ni3 1_555 1_555
O12 Ni2 1_555 1_555
O13 Ni2 1_555 1_555
N1 C18 1_555 1_555
H18 O11 1_555 1_555
H19 O11 1_555 1_555
H20 O12 1_555 1_555
H21 O12 1_555 1_555
H22 O13 1_555 1_555
H23 O13 1_555 1_555
O14 Ni2 1_555 1_555
O16 Ni2 1_555 1_555
O17 Ni3 1_555 1_555
Ni2 O9 1_555 1_555
C12 C13 1_555 1_555
C18 O10 1_555 1_555
C19 N1 1_555 1_555
C20 N1 1_555 1_555
C4 C3 1_555 1_555
H2 C4 1_555 1_555
C5 C4 1_555 1_555
H3 C6 1_555 1_555
C7 C3 1_555 1_555
H4 C7 1_555 1_555
C17 C5 1_555 1_555
O7 C17 1_555 1_555
O8 C17 1_555 1_555
Ni4 O8 1_555 1_555
Ni6 O7 1_555 1_555
C5 C6 1_555 1_555
Ni4 O2_2 1_555 1_555
Ni6 O1_2 1_555 1_555
C1_2 C2_2 1_555 1_555
C2_2 H1_2 1_555 1_555
C3_2 C2_2 1_555 1_555
C4_2 C3_2 1_555 1_555
H2_2 C4_2 1_555 1_555
C5_2 C4_2 1_555 1_555
C6_2 C1_2 1_555 1_555
H3_2 C6_2 1_555 1_555
C7_2 C3_2 1_555 1_555
C8_2 C7_2 1_555 1_555
C13_2 C8_2 1_555 1_555
H8_2 C13_2 1_555 1_555
C14_2 C1_2 1_555 1_555
C17_2 C5_2 1_555 1_555
C18_2 H9_2 1_555 1_555
O1_2 C14_2 1_555 1_555
O2_2 C14_2 1_555 1_555
O16 C17_2 1_555 1_555
O17 C17_2 1_555 1_555
O9_2 Ni4 1_555 1_555
H17_2 O9_2 1_555 1_555
O10_2 Ni4 1_555 1_555
O11_2 Ni4 1_555 1_555
O12_2 Ni6 1_555 1_555
O13_2 Ni6 1_555 1_555
H18_2 O11_2 1_555 1_555
H19_2 O11_2 1_555 1_555
H20_2 O12_2 1_555 1_555
H21_2 O12_2 1_555 1_555
H22_2 O13_2 1_555 1_555
H23_2 O13_2 1_555 1_555
O14_2 Ni6 1_555 1_555
O15 Ni4 1_555 1_555
Ni6 O9_2 1_555 1_555
C5_2 C6_2 1_555 1_555
C12_2 C13_2 1_555 1_555
C18_2 O10_2 1_555 1_555
O15 C16_2 1_555 1_555
H7_2 C11_2 1_555 1_555
O4_2 C15_2 1_555 1_555
Ni5_2 O4_2 1_555 1_555
C4_3 C3_3 1_555 1_555
H2_3 C4_3 1_555 1_555
C5_3 C4_3 1_555 1_555
H3_3 C6_3 1_555 1_555
C7_3 C3_3 1_555 1_555
H4_2 C7_3 1_555 1_555
C17_3 C5_3 1_555 1_555
O7_2 C17_3 1_555 1_555
O8_2 C17_3 1_555 1_555
Ni4_2 O8_2 1_555 1_555
Ni5 O7_2 1_555 1_555
C5_3 C6_3 1_555 1_555
Ni1 O2_3 1_555 1_555
Ni5_2 O1_3 1_555 1_555
C1_3 C2_3 1_555 1_555
C2_3 H1_3 1_555 1_555
C9_2 C8_3 1_555 1_555
H6_2 C9_2 1_555 1_555
C10_2 C9_2 1_555 1_555
C13_3 C8_3 1_555 1_555
H8_3 C13_3 1_555 1_555
C14_3 C1_3 1_555 1_555
C18_3 H9_3 1_555 1_555
C19_2 H10_2 1_555 1_555
H11_2 C19_2 1_555 1_555
H12_3 C19_2 1_555 1_555
C20_2 H13_2 1_555 1_555
H14_2 C20_2 1_555 1_555
H15_2 C20_2 1_555 1_555
O1_3 C14_3 1_555 1_555
O2_3 C14_3 1_555 1_555
O9_3 Ni1 1_555 1_555
H17_3 O9_3 1_555 1_555
O10_3 Ni1 1_555 1_555
O11_3 Ni1 1_555 1_555
O12_3 Ni5_2 1_555 1_555
O13_3 Ni5_2 1_555 1_555
N1_2 C18_3 1_555 1_555
H18_3 O11_3 1_555 1_555
H19_3 O11_3 1_555 1_555
H20_3 O12_3 1_555 1_555
H21_3 O12_3 1_555 1_555
H22_3 O13_3 1_555 1_555
H23_3 O13_3 1_555 1_555
O15_2 Ni1 1_555 1_555
O16_2 Ni5_2 1_555 1_555
O17_2 Ni1 1_555 1_555
Ni5_2 O9_3 1_555 1_555
C12_3 C13_3 1_555 1_555
C18_3 O10_3 1_555 1_555
C19_2 N1_2 1_555 1_555
C20_2 N1_2 1_555 1_555
H7_3 C11_3 1_555 1_555
O14_2 C15_3 1_555 1_555
O15_2 C16_3 1_555 1_555
H7_4 C11_4 1_555 1_555
O14 C15_4 1_555 1_555
O5_2 C16_4 1_555 1_555
Ni4_2 O5_2 1_555 1_555
Ni4_2 O2_4 1_555 1_555
Ni5 O1_4 1_555 1_555
C1_4 C2_4 1_555 1_555
C2_4 H1_4 1_555 1_555
C3_4 C2_4 1_555 1_555
C4_4 C3_4 1_555 1_555
H2_4 C4_4 1_555 1_555
C5_4 C4_4 1_555 1_555
C6_4 C1_4 1_555 1_555
H3_4 C6_4 1_555 1_555
C7_4 C3_4 1_555 1_555
C8_4 C7_4 1_555 1_555
C13_4 C8_4 1_555 1_555
H8_4 C13_4 1_555 1_555
C14_4 C1_4 1_555 1_555
C17_4 C5_4 1_555 1_555
C18_4 H9_4 1_555 1_555
O1_4 C14_4 1_555 1_555
O2_4 C14_4 1_555 1_555
O16_2 C17_4 1_555 1_555
O17_2 C17_4 1_555 1_555
O9_4 Ni4_2 1_555 1_555
H17_4 O9_4 1_555 1_555
O10_4 Ni4_2 1_555 1_555
O11_4 Ni4_2 1_555 1_555
O12_4 Ni5 1_555 1_555
O13_4 Ni5 1_555 1_555
H18_4 O11_4 1_555 1_555
H19_4 O11_4 1_555 1_555
H20_4 O12_4 1_555 1_555
H21_4 O12_4 1_555 1_555
H22_4 O13_4 1_555 1_555
H23_4 O13_4 1_555 1_555
Ni5 O9_4 1_555 1_555
C5_4 C6_4 1_555 1_555
C12_4 C13_4 1_555 1_555
C18_4 O10_4 1_555 1_555
H6_3 C9_3 1_555 1_555
C10_3 C9_3 1_555 1_555
C19_3 H10_3 1_555 1_555
H11_3 C19_3 1_555 1_555
C20_3 H13_3 1_555 1_555
H14_3 C20_3 1_555 1_555
H15_3 C20_3 1_555 1_555
C19_3 N1_3 1_555 1_555
C20_3 N1_3 1_555 1_555
H6_4 C9_4 1_555 1_555
C10_4 C9_4 1_555 1_555
C19_4 H10_4 1_555 1_555
H11_4 C19_4 1_555 1_555
C20_4 H13_4 1_555 1_555
H14_4 C20_4 1_555 1_555
H15_4 C20_4 1_555 1_555
C19_4 N1_4 1_555 1_555
C20_4 N1_4 1_555 1_555

#END
