
###############################################################################
#
# This file contains modified crystal structure data generated from the
# MOF subset of the Cambridge Structural Database (CSD) v543 
# hosted by the Cambridge Crystallographic Data Centre (CCDC).
#
# This work is licensed under the Creative Commons
# Attribution-NonCommercial-ShareAlike 4.0 International License.
# To view a copy of this license, visit
# http://creativecommons.org/licenses/by-nc-sa/4.0/
# or send a letter to
# Creative Commons, PO Box 1866, Mountain View, CA 94042, USA.
#
# CIF created using the CSD Python API on 29 September 2022
# The structure has been converted into the P1 space group
# The structure has a 3D framework
# The original CSD entry ALOVAB is in the monoclinic crystal system
# The framework has been calculated to contain at least 10.0% void space
# The void calculation uses a probe of radius 1.32A, grid spacing 0.4
#
###############################################################################

data_ALOVAB
_chemical_formula_moiety         '(C48 H40 Co11 N24 O24)n'
_symmetry_cell_setting           triclinic
_symmetry_space_group_name_H-M   'P 1'
_symmetry_Int_Tables_number      1
_space_group_name_Hall           'P 1'
loop_
_symmetry_equiv_pos_site_id
_symmetry_equiv_pos_as_xyz
1 x,y,z
_cell_length_a                   11.1096(5)
_cell_length_b                   15.5982(7)
_cell_length_c                   16.7051(9)
_cell_angle_alpha                90
_cell_angle_beta                 108.394(6)
_cell_angle_gamma                90
_cell_volume                     2746.92
loop_
_atom_site_label
_atom_site_type_symbol
_atom_site_fract_x
_atom_site_fract_y
_atom_site_fract_z
Co3 Co 0.000000 -0.000000 0.000000
Co3_2 Co 0.000000 -0.000000 1.000000
Co3_3 Co -0.000000 1.000000 0.000000
O5 O 0.0071(3) 0.79040(17) 0.94607(18)
Co2 Co -0.000000 0.500000 0.500000
Co3_4 Co -0.000000 1.000000 1.000000
Co3_5 Co 1.000000 -0.000000 0.000000
Co4 Co 0.500000 -0.000000 0.000000
H8 H 0.511044 0.048346 0.811108
Co3_6 Co 1.000000 -0.000000 1.000000
Co4_2 Co 0.500000 -0.000000 1.000000
Co3_7 Co 1.000000 1.000000 0.000000
Co4_3 Co 0.500000 1.000000 0.000000
Co1 Co 0.500000 0.500000 0.500000
O1 O 0.6124(2) 0.59231(14) 0.58148(15)
O2 O 0.3470(2) 0.58777(15) 0.46360(16)
H1 H 0.277334 0.560376 0.445708
H2 H 0.350669 0.616530 0.421133
O3 O 0.4929(3) 0.70960(17) 0.55393(18)
N1 N 0.9375(3) 0.54317(19) 0.60050(18)
N2 N 0.8616(3) 0.61988(18) 0.68212(18)
C1 C 0.8010(3) 0.6845(2) 0.7152(2)
C2 C 0.8789(3) 0.6147(2) 0.6067(2)
H3 H 0.852997 0.655930 0.564547
C3 C 0.5868(3) 0.6677(2) 0.5957(2)
C4 C 0.6770(3) 0.7101(2) 0.6739(2)
C5 C 0.8715(3) 0.7229(2) 0.7896(2)
H4 H 0.953635 0.703744 0.816295
N3 N 0.9073(6) 0.5487(3) 0.7266(3)
C6 C 0.9511(8) 0.5051(3) 0.6750(4)
H5 H 0.988956 0.451654 0.688892
O4 O 0.8876(2) 0.90769(14) 0.91852(15)
N4 N 0.5625(3) 0.95683(19) 0.89950(18)
N5 N 0.6384(3) 0.88012(18) 0.81788(18)
C7 C 0.6990(3) 0.8155(2) 0.7848(2)
C8 C 0.6211(3) 0.8853(2) 0.8933(2)
H6 H 0.647003 0.844070 0.935453
C9 C 0.9132(3) 0.8323(2) 0.9043(2)
C10 C 0.8230(3) 0.7899(2) 0.8261(2)
C11 C 0.6285(3) 0.7771(2) 0.7104(2)
H7 H 0.546365 0.796256 0.683705
N6 N 0.5927(6) 0.9513(3) 0.7734(3)
C12 C 0.5489(8) 0.9949(3) 0.8250(4)
O6 O 0.6530(2) 0.41223(15) 0.53640(16)
H9 H 0.722666 0.439624 0.554292
H10 H 0.649331 0.383470 0.578867
Co2_2 Co 1.000000 0.500000 0.500000
Co3_8 Co 1.000000 1.000000 1.000000
Co4_4 Co 0.500000 1.000000 1.000000
O7 O 0.3876(2) 0.40769(14) 0.41852(15)
N7 N 0.5625(3) 0.54317(19) 0.39950(18)
N8 N 0.4375(3) 0.45683(19) 0.60050(18)
O2_2 O 0.1530(2) 0.58777(15) 0.53640(16)
H1_2 H 0.222666 0.560376 0.554292
H2_2 H 0.149331 0.616530 0.578867
O3_2 O 0.0071(3) 0.70960(17) 0.44607(18)
O7_2 O 0.1124(2) 0.40769(14) 0.58148(15)
N8_2 N 0.0625(3) 0.45683(19) 0.39950(18)
H8_2 H 0.988956 0.048346 0.188892
O1_2 O 0.8876(2) 0.59231(14) 0.41852(15)
N2_2 N 0.6384(3) 0.61988(18) 0.31788(18)
C1_2 C 0.6990(3) 0.6845(2) 0.2848(2)
C2_2 C 0.6211(3) 0.6147(2) 0.3933(2)
H3_2 H 0.647003 0.655930 0.435453
C3_2 C 0.9132(3) 0.6677(2) 0.4043(2)
C4_2 C 0.8230(3) 0.7101(2) 0.3261(2)
C5_2 C 0.6285(3) 0.7229(2) 0.2104(2)
H4_2 H 0.546365 0.703744 0.183705
N3_2 N 0.5927(6) 0.5487(3) 0.2734(3)
C6_2 C 0.5489(8) 0.5051(3) 0.3250(4)
H5_2 H 0.511044 0.451654 0.311108
O4_2 O 0.6124(2) 0.90769(14) 0.08148(15)
O5_2 O 0.4929(3) 0.79040(17) 0.05393(18)
N4_2 N 0.9375(3) 0.95683(19) 0.10050(18)
N5_2 N 0.8616(3) 0.88012(18) 0.18212(18)
C7_2 C 0.8010(3) 0.8155(2) 0.2152(2)
C8_2 C 0.8789(3) 0.8853(2) 0.1067(2)
H6_2 H 0.852997 0.844070 0.064547
C9_2 C 0.5868(3) 0.8323(2) 0.0957(2)
C10_2 C 0.6770(3) 0.7899(2) 0.1739(2)
C11_2 C 0.8715(3) 0.7771(2) 0.2896(2)
H7_2 H 0.953635 0.796256 0.316295
N6_2 N 0.9073(6) 0.9513(3) 0.2266(3)
C12_2 C 0.9511(8) 0.9949(3) 0.1750(4)
O6_2 O 0.8470(2) 0.41223(15) 0.46360(16)
H9_2 H 0.777334 0.439624 0.445708
H10_2 H 0.850669 0.383470 0.421133
O1_3 O 0.1124(2) 0.09231(14) 0.08148(15)
N1_2 N 0.4375(3) 0.04317(19) 0.10050(18)
N2_3 N 0.3616(3) 0.11988(18) 0.18212(18)
C1_3 C 0.3010(3) 0.1845(2) 0.2152(2)
C2_3 C 0.3789(3) 0.1147(2) 0.1067(2)
H3_3 H 0.352997 0.155930 0.064547
C3_3 C 0.0868(3) 0.1677(2) 0.0957(2)
C4_3 C 0.1770(3) 0.2101(2) 0.1739(2)
C5_3 C 0.3715(3) 0.2229(2) 0.2896(2)
H4_3 H 0.453635 0.203744 0.316295
N3_3 N 0.4073(6) 0.0487(3) 0.2266(3)
C6_3 C 0.4511(8) 0.0051(3) 0.1750(4)
O5_3 O 0.5071(3) 0.29040(17) 0.44607(18)
N5_3 N 0.1384(3) 0.38012(18) 0.31788(18)
C7_3 C 0.1990(3) 0.3155(2) 0.2848(2)
C8_3 C 0.1211(3) 0.3853(2) 0.3933(2)
H6_3 H 0.147003 0.344070 0.435453
C9_3 C 0.4132(3) 0.3323(2) 0.4043(2)
C10_3 C 0.3230(3) 0.2899(2) 0.3261(2)
C11_3 C 0.1285(3) 0.2771(2) 0.2104(2)
H7_3 H 0.046365 0.296256 0.183705
N6_3 N 0.0927(6) 0.4513(3) 0.2734(3)
C12_3 C 0.0489(8) 0.4949(3) 0.3250(4)
H8_3 H 0.011044 0.548346 0.311108
N7_2 N 0.0625(3) 0.04317(19) 0.89950(18)
H5_3 H 0.488956 0.951654 0.188892
O6_3 O 0.1530(2) 0.91223(15) 0.03640(16)
H9_3 H 0.222666 0.939624 0.054292
H10_3 H 0.149331 0.883470 0.078867
O3_3 O 0.9929(3) 0.20960(17) 0.05393(18)
O2_3 O 0.8470(2) 0.08777(15) 0.96360(16)
H1_3 H 0.777334 0.060376 0.945708
H2_3 H 0.850669 0.116530 0.921133
O2_4 O 0.6530(2) 0.08777(15) 0.03640(16)
H1_4 H 0.722666 0.060376 0.054292
H2_4 H 0.649331 0.116530 0.078867
O1_4 O 0.3876(2) 0.09231(14) 0.91852(15)
O3_4 O 0.5071(3) 0.20960(17) 0.94607(18)
N2_4 N 0.1384(3) 0.11988(18) 0.81788(18)
C1_4 C 0.1990(3) 0.1845(2) 0.7848(2)
C2_4 C 0.1211(3) 0.1147(2) 0.8933(2)
H3_4 H 0.147003 0.155930 0.935453
C3_4 C 0.4132(3) 0.1677(2) 0.9043(2)
C4_4 C 0.3230(3) 0.2101(2) 0.8261(2)
C5_4 C 0.1285(3) 0.2229(2) 0.7104(2)
H4_4 H 0.046365 0.203744 0.683705
N3_4 N 0.0927(6) 0.0487(3) 0.7734(3)
C6_4 C 0.0489(8) 0.0051(3) 0.8250(4)
N5_4 N 0.3616(3) 0.38012(18) 0.68212(18)
C7_4 C 0.3010(3) 0.3155(2) 0.7152(2)
C8_4 C 0.3789(3) 0.3853(2) 0.6067(2)
H6_4 H 0.352997 0.344070 0.564547
C9_4 C 0.0868(3) 0.3323(2) 0.5957(2)
C10_4 C 0.1770(3) 0.2899(2) 0.6739(2)
C11_4 C 0.3715(3) 0.2771(2) 0.7896(2)
H7_4 H 0.453635 0.296256 0.816295
N6_4 N 0.4073(6) 0.4513(3) 0.7266(3)
C12_4 C 0.4511(8) 0.4949(3) 0.6750(4)
H8_4 H 0.488956 0.548346 0.688892
H5_4 H 0.011044 0.951654 0.811108
O6_4 O 0.3470(2) 0.91223(15) 0.96360(16)
H9_4 H 0.277334 0.939624 0.945708
H10_4 H 0.350669 0.883470 0.921133
O5_4 O 0.9929(3) 0.29040(17) 0.55393(18)
loop_
_geom_bond_atom_site_label_1
_geom_bond_atom_site_label_2
_geom_bond_site_symmetry_1
_geom_bond_site_symmetry_2
Co1 O1 1_555 1_555
O1 C3 1_555 1_555
O2 Co1 1_555 1_555
H1 O2 1_555 1_555
H2 O2 1_555 1_555
O3 C3 1_555 1_555
N1 C2 1_555 1_555
N2 C1 1_555 1_555
C1 C4 1_555 1_555
C2 N2 1_555 1_555
H3 C2 1_555 1_555
C3 C4 1_555 1_555
C4 C11 1_555 1_555
C5 C1 1_555 1_555
H4 C5 1_555 1_555
N3 N2 1_555 1_555
C6 N1 1_555 1_555
H5 C6 1_555 1_555
O4 C9 1_555 1_555
N4 C8 1_555 1_555
N5 C7 1_555 1_555
C7 C10 1_555 1_555
C8 N5 1_555 1_555
H6 C8 1_555 1_555
C9 C10 1_555 1_555
C10 C5 1_555 1_555
C11 C7 1_555 1_555
H7 C11 1_555 1_555
N6 N5 1_555 1_555
C12 N4 1_555 1_555
O6 Co1 1_555 1_555
H9 O6 1_555 1_555
H10 O6 1_555 1_555
Co2_2 N1 1_555 1_555
Co3_8 O4 1_555 1_555
Co4_4 N4 1_555 1_555
O7 Co1 1_555 1_555
N7 Co1 1_555 1_555
N8 Co1 1_555 1_555
N3 C6 1_555 1_555
N6 C12 1_555 1_555
O2_2 Co2 1_555 1_555
H1_2 O2_2 1_555 1_555
H2_2 O2_2 1_555 1_555
O7_2 Co2 1_555 1_555
N8_2 Co2 1_555 1_555
Co2_2 O1_2 1_555 1_555
O1_2 C3_2 1_555 1_555
N7 C2_2 1_555 1_555
N2_2 C1_2 1_555 1_555
C1_2 C4_2 1_555 1_555
C2_2 N2_2 1_555 1_555
H3_2 C2_2 1_555 1_555
C3_2 C4_2 1_555 1_555
C4_2 C11_2 1_555 1_555
C5_2 C1_2 1_555 1_555
H4_2 C5_2 1_555 1_555
N3_2 N2_2 1_555 1_555
C6_2 N7 1_555 1_555
H5_2 C6_2 1_555 1_555
O4_2 C9_2 1_555 1_555
O5_2 C9_2 1_555 1_555
N4_2 C8_2 1_555 1_555
N5_2 C7_2 1_555 1_555
C7_2 C10_2 1_555 1_555
C8_2 N5_2 1_555 1_555
H6_2 C8_2 1_555 1_555
C9_2 C10_2 1_555 1_555
C10_2 C5_2 1_555 1_555
C11_2 C7_2 1_555 1_555
H7_2 C11_2 1_555 1_555
N6_2 N5_2 1_555 1_555
C12_2 N4_2 1_555 1_555
O6_2 Co2_2 1_555 1_555
H9_2 O6_2 1_555 1_555
H10_2 O6_2 1_555 1_555
Co4_3 O4_2 1_555 1_555
Co3_7 N4_2 1_555 1_555
N3_2 C6_2 1_555 1_555
N6_2 C12_2 1_555 1_555
Co3 O1_3 1_555 1_555
O1_3 C3_3 1_555 1_555
N1_2 C2_3 1_555 1_555
N2_3 C1_3 1_555 1_555
C1_3 C4_3 1_555 1_555
C2_3 N2_3 1_555 1_555
H3_3 C2_3 1_555 1_555
C3_3 C4_3 1_555 1_555
C4_3 C11_3 1_555 1_555
C5_3 C1_3 1_555 1_555
H4_3 C5_3 1_555 1_555
N3_3 N2_3 1_555 1_555
C6_3 N1_2 1_555 1_555
O7 C9_3 1_555 1_555
O5_3 C9_3 1_555 1_555
N8_2 C8_3 1_555 1_555
N5_3 C7_3 1_555 1_555
C7_3 C10_3 1_555 1_555
C8_3 N5_3 1_555 1_555
H6_3 C8_3 1_555 1_555
C9_3 C10_3 1_555 1_555
C10_3 C5_3 1_555 1_555
C11_3 C7_3 1_555 1_555
H7_3 C11_3 1_555 1_555
N6_3 N5_3 1_555 1_555
C12_3 N8_2 1_555 1_555
H8_3 C12_3 1_555 1_555
Co4 N1_2 1_555 1_555
N3_3 C6_3 1_555 1_555
N6_3 C12_3 1_555 1_555
N7_2 Co3_2 1_555 1_555
O6_3 Co3_3 1_555 1_555
H9_3 O6_3 1_555 1_555
H10_3 O6_3 1_555 1_555
O2_3 Co3_6 1_555 1_555
H1_3 O2_3 1_555 1_555
H2_3 O2_3 1_555 1_555
O2_4 Co4 1_555 1_555
H1_4 O2_4 1_555 1_555
H2_4 O2_4 1_555 1_555
Co4_2 O1_4 1_555 1_555
O1_4 C3_4 1_555 1_555
O3_4 C3_4 1_555 1_555
N7_2 C2_4 1_555 1_555
N2_4 C1_4 1_555 1_555
C1_4 C4_4 1_555 1_555
C2_4 N2_4 1_555 1_555
H3_4 C2_4 1_555 1_555
C3_4 C4_4 1_555 1_555
C4_4 C11_4 1_555 1_555
C5_4 C1_4 1_555 1_555
H4_4 C5_4 1_555 1_555
N3_4 N2_4 1_555 1_555
C6_4 N7_2 1_555 1_555
O7_2 C9_4 1_555 1_555
N8 C8_4 1_555 1_555
N5_4 C7_4 1_555 1_555
C7_4 C10_4 1_555 1_555
C8_4 N5_4 1_555 1_555
H6_4 C8_4 1_555 1_555
C9_4 C10_4 1_555 1_555
C10_4 C5_4 1_555 1_555
C11_4 C7_4 1_555 1_555
H7_4 C11_4 1_555 1_555
N6_4 N5_4 1_555 1_555
C12_4 N8 1_555 1_555
H8_4 C12_4 1_555 1_555
N3_4 C6_4 1_555 1_555
N6_4 C12_4 1_555 1_555
O6_4 Co4_4 1_555 1_555
H9_4 O6_4 1_555 1_555
H10_4 O6_4 1_555 1_555

#END
