
###############################################################################
#
# This file contains modified crystal structure data generated from the
# MOF subset of the Cambridge Structural Database (CSD) v543 
# hosted by the Cambridge Crystallographic Data Centre (CCDC).
#
# This work is licensed under the Creative Commons
# Attribution-NonCommercial-ShareAlike 4.0 International License.
# To view a copy of this license, visit
# http://creativecommons.org/licenses/by-nc-sa/4.0/
# or send a letter to
# Creative Commons, PO Box 1866, Mountain View, CA 94042, USA.
#
# CIF created using the CSD Python API on 29 September 2022
# The structure has been converted into the P1 space group
# The structure has a 3D framework
# The original CSD entry ALUDIX is in the trigonal crystal system
# The original CSD entry ALUDIX is in a Sohncke space group
# The framework has been calculated to contain at least 10.0% void space
# The void calculation uses a probe of radius 1.32A, grid spacing 0.4
# H atom positions have been added when not included in the experimental data
#
###############################################################################

data_ALUDIX
_chemical_formula_moiety         '(C42 H30 N18 O18 Zn2)n'
_symmetry_cell_setting           triclinic
_symmetry_space_group_name_H-M   'P 1'
_symmetry_Int_Tables_number      1
_space_group_name_Hall           'P 1'
loop_
_symmetry_equiv_pos_site_id
_symmetry_equiv_pos_as_xyz
1 x,y,z
_cell_length_a                   10.0172(3)
_cell_length_b                   10.0172(3)
_cell_length_c                   26.2843(8)
_cell_angle_alpha                90
_cell_angle_beta                 90
_cell_angle_gamma                120
_cell_volume                     2284.12
loop_
_atom_site_label
_atom_site_type_symbol
_atom_site_fract_x
_atom_site_fract_y
_atom_site_fract_z
O1 O 0.5630(11) 0.7190(12) 0.2203(3)
O2 O 0.3275(13) 0.5360(14) 0.2278(4)
O3 O 0.0291(14) 0.2378(15) 0.0312(5)
N1 N 0.1162(12) 0.5655(14) 0.0446(3)
N2 N 0.1587(12) 0.6532(16) 0.0029(4)
N3 N 0.2994(12) 0.7820(13) 0.0085(4)
C1 C 0.4244(15) 0.6362(15) 0.2031(5)
C2 C 0.4042(15) 0.6893(15) 0.1505(4)
C3 C 0.2561(15) 0.5879(15) 0.1272(4)
H1 H 0.1788 0.5005 0.1431
C4 C 0.2407(13) 0.6337(14) 0.0788(4)
C5 C 0.3582(14) 0.7733(14) 0.0562(4)
C6 C 0.4980(14) 0.8620(14) 0.0813(4)
H2 H 0.5789 0.9486 0.0661
C7 C 0.5107(14) 0.8186(13) 0.1268(5)
H3 H 0.6009 0.8822 0.1445
Zn3 Zn 0.56806(22) 0.63545(16) 0.28621(4)
H4 H 0.107535 0.255542 0.0574703
Zn2 Zn 0.36455(16) 0.93261(15) 0.95288(4)
Zn1 Zn 0.93261(15) 0.36455(16) 0.04712(4)
O4 O 0.8440(16) 0.2810(12) 0.1130(3)
H5 H 0.948661 0.12706 0.0308786
N4 N 0.7820(13) 0.2994(12) 0.9915(4)
Zn1_2 Zn 0.63545(16) 0.56806(22) 0.71379(4)
O1_2 O 0.2810(12) 0.8440(16) 0.8870(3)
O2_2 O 0.4640(14) 0.7915(19) 0.8945(4)
O3_2 O 0.7622(15) 0.7913(21) 0.6979(5)
N1_2 N 0.4345(14) 0.5507(18) 0.7113(3)
N2_2 N 0.3468(16) 0.5055(20) 0.6696(4)
N3_2 N 0.2180(13) 0.5174(18) 0.6752(4)
C1_2 C 0.3638(15) 0.7882(21) 0.8698(5)
C2_2 C 0.3107(15) 0.7149(21) 0.8172(4)
C3_2 C 0.4121(15) 0.6682(21) 0.7939(4)
H1_2 H 0.4995 0.6783 0.8098
C4_2 C 0.3663(14) 0.6070(19) 0.7455(4)
C5_2 C 0.2267(14) 0.5849(20) 0.7229(4)
C6_2 C 0.1380(14) 0.6360(20) 0.7480(4)
H2_2 H 0.0514 0.6303 0.7328
C7_2 C 0.1814(13) 0.6921(19) 0.7935(5)
H3_2 H 0.1178 0.7187 0.8112
Zn2_2 Zn 0.06739(15) 0.43194(22) 0.61955(4)
O4_2 O 0.7190(12) 0.5630(20) 0.7797(3)
N4_2 N 0.7006(12) 0.4826(18) 0.6582(4)
H4_2 H 0.744458 0.851993 0.724137
H5_2 H 0.87294 0.821601 0.697545
Zn1_3 Zn 0.43194(22) 0.06739(15) 0.38045(4)
O4_3 O 0.4370(20) 0.1560(16) 0.4464(3)
N4_3 N 0.5174(18) 0.2180(13) 0.3248(4)
H5_3 H 0.178399 0.0513389 0.364212
O1_3 O 0.1560(16) 0.4370(11) 0.5536(3)
O2_3 O 0.2085(19) 0.6725(13) 0.5611(4)
O3_3 O 0.2087(21) 0.9709(14) 0.3645(5)
N1_3 N 0.4493(18) 0.8838(12) 0.3779(3)
N2_3 N 0.4945(20) 0.8413(12) 0.3362(4)
N3_3 N 0.4826(18) 0.7006(12) 0.3418(4)
C1_3 C 0.2118(21) 0.5756(15) 0.5364(5)
C2_3 C 0.2851(21) 0.5958(15) 0.4838(4)
C3_3 C 0.3318(21) 0.7439(15) 0.4605(4)
H1_3 H 0.3217 0.8212 0.4764
C4_3 C 0.3930(19) 0.7593(13) 0.4121(4)
C5_3 C 0.4151(20) 0.6418(14) 0.3895(4)
C6_3 C 0.3640(20) 0.5020(14) 0.4146(4)
H2_3 H 0.3697 0.4211 0.3994
C7_3 C 0.3079(19) 0.4893(14) 0.4601(5)
H3_3 H 0.2813 0.3991 0.4778
H4_3 H 0.148007 0.892465 0.390804
O2_4 O 0.5360(14) 0.3275(13) 0.7722(4)
O3_4 O 0.2378(15) 0.0291(14) 0.9688(5)
N1_4 N 0.5655(14) 0.1162(12) 0.9554(3)
N2_4 N 0.6532(16) 0.1587(12) 0.9971(4)
C1_4 C 0.6362(15) 0.4244(15) 0.7969(5)
C2_4 C 0.6893(15) 0.4042(15) 0.8495(4)
C3_4 C 0.5879(15) 0.2561(15) 0.8728(4)
H1_4 H 0.5005 0.1788 0.8569
C4_4 C 0.6337(14) 0.2407(13) 0.9212(4)
C5_4 C 0.7733(14) 0.3582(14) 0.9438(4)
C6_4 C 0.8620(14) 0.4980(14) 0.9187(4)
H2_4 H 0.9486 0.5789 0.9339
C7_4 C 0.8186(13) 0.5107(14) 0.8732(5)
H3_4 H 0.8822 0.6009 0.8555
H4_4 H 0.255542 0.107535 0.94253
H5_4 H 0.12706 0.948661 0.969121
O2_5 O 0.7915(19) 0.4640(14) 0.1055(4)
O3_5 O 0.7913(21) 0.7622(15) 0.3021(5)
N1_5 N 0.5507(18) 0.4345(14) 0.2887(3)
N2_5 N 0.5055(20) 0.3468(16) 0.3304(4)
C1_5 C 0.7882(21) 0.3638(15) 0.1302(5)
C2_5 C 0.7149(21) 0.3107(15) 0.1828(4)
C3_5 C 0.6682(21) 0.4121(15) 0.2061(4)
H1_5 H 0.6783 0.4995 0.1902
C4_5 C 0.6070(19) 0.3663(14) 0.2545(4)
C5_5 C 0.5849(20) 0.2267(14) 0.2771(4)
C6_5 C 0.6360(20) 0.1380(14) 0.2520(4)
H2_5 H 0.6303 0.0514 0.2672
C7_5 C 0.6921(19) 0.1814(13) 0.2065(5)
H3_5 H 0.7187 0.1178 0.1888
H4_5 H 0.851993 0.744458 0.275863
H5_5 H 0.821601 0.87294 0.302455
H5_6 H 0.0513389 0.178399 0.635788
O2_6 O 0.6725(13) 0.2085(19) 0.4389(4)
O3_6 O 0.9709(14) 0.2087(21) 0.6355(5)
N1_6 N 0.8838(12) 0.4493(18) 0.6221(3)
N2_6 N 0.8413(12) 0.4945(20) 0.6638(4)
C1_6 C 0.5756(15) 0.2118(21) 0.4636(5)
C2_6 C 0.5958(15) 0.2851(21) 0.5162(4)
C3_6 C 0.7439(15) 0.3318(21) 0.5395(4)
H1_6 H 0.8212 0.3217 0.5236
C4_6 C 0.7593(13) 0.3930(19) 0.5879(4)
C5_6 C 0.6418(14) 0.4151(20) 0.6105(4)
C6_6 C 0.5020(14) 0.3640(20) 0.5854(4)
H2_6 H 0.4211 0.3697 0.6006
C7_6 C 0.4893(14) 0.3079(19) 0.5399(5)
H3_6 H 0.3991 0.2813 0.5222
H4_6 H 0.892465 0.148007 0.609196
loop_
_geom_bond_atom_site_label_1
_geom_bond_atom_site_label_2
_geom_bond_site_symmetry_1
_geom_bond_site_symmetry_2
O1 C1 1_555 1_555
O2 C1 1_555 1_555
N2 N1 1_555 1_555
N3 N2 1_555 1_555
C1 C2 1_555 1_555
C2 C3 1_555 1_555
C3 H1 1_555 1_555
C4 N1 1_555 1_555
C5 N3 1_555 1_555
C6 C5 1_555 1_555
H2 C6 1_555 1_555
C7 C2 1_555 1_555
H3 C7 1_555 1_555
Zn3 O1 1_555 1_555
C3 C4 1_555 1_555
C4 C5 1_555 1_555
C6 C7 1_555 1_555
O3 H4 1_555 1_555
O4 Zn1 1_555 1_555
Zn1_2 O3_2 1_555 1_555
O1_2 C1_2 1_555 1_555
O2_2 C1_2 1_555 1_555
N1_2 Zn1_2 1_555 1_555
N2_2 N1_2 1_555 1_555
N3_2 N2_2 1_555 1_555
C1_2 C2_2 1_555 1_555
C2_2 C3_2 1_555 1_555
C3_2 H1_2 1_555 1_555
C4_2 N1_2 1_555 1_555
C5_2 N3_2 1_555 1_555
C6_2 C5_2 1_555 1_555
H2_2 C6_2 1_555 1_555
C7_2 C2_2 1_555 1_555
H3_2 C7_2 1_555 1_555
Zn2_2 N3_2 1_555 1_555
Zn2 O1_2 1_555 1_555
O4_2 Zn1_2 1_555 1_555
N4_2 Zn1_2 1_555 1_555
C3_2 C4_2 1_555 1_555
C4_2 C5_2 1_555 1_555
C6_2 C7_2 1_555 1_555
O3_2 H4_2 1_555 1_555
O3_2 H5_2 1_555 1_555
O4_3 Zn1_3 1_555 1_555
N4_3 Zn1_3 1_555 1_555
O1_3 C1_3 1_555 1_555
O2_3 C1_3 1_555 1_555
N2_3 N1_3 1_555 1_555
N3_3 N2_3 1_555 1_555
C1_3 C2_3 1_555 1_555
C2_3 C3_3 1_555 1_555
C3_3 H1_3 1_555 1_555
C4_3 N1_3 1_555 1_555
C5_3 N3_3 1_555 1_555
C6_3 C5_3 1_555 1_555
H2_3 C6_3 1_555 1_555
C7_3 C2_3 1_555 1_555
H3_3 C7_3 1_555 1_555
Zn3 N3_3 1_555 1_555
Zn2_2 O1_3 1_555 1_555
C3_3 C4_3 1_555 1_555
C4_3 C5_3 1_555 1_555
C6_3 C7_3 1_555 1_555
O3_3 H4_3 1_555 1_555
O4_2 C1_4 1_555 1_555
O2_4 C1_4 1_555 1_555
N2_4 N1_4 1_555 1_555
N4 N2_4 1_555 1_555
C1_4 C2_4 1_555 1_555
C2_4 C3_4 1_555 1_555
C3_4 H1_4 1_555 1_555
C4_4 N1_4 1_555 1_555
C5_4 N4 1_555 1_555
C6_4 C5_4 1_555 1_555
H2_4 C6_4 1_555 1_555
C7_4 C2_4 1_555 1_555
H3_4 C7_4 1_555 1_555
C3_4 C4_4 1_555 1_555
C4_4 C5_4 1_555 1_555
C6_4 C7_4 1_555 1_555
O3_4 H4_4 1_555 1_555
Zn3 O3_5 1_555 1_555
O4 C1_5 1_555 1_555
O2_5 C1_5 1_555 1_555
N1_5 Zn3 1_555 1_555
N2_5 N1_5 1_555 1_555
N4_3 N2_5 1_555 1_555
C1_5 C2_5 1_555 1_555
C2_5 C3_5 1_555 1_555
C3_5 H1_5 1_555 1_555
C4_5 N1_5 1_555 1_555
C5_5 N4_3 1_555 1_555
C6_5 C5_5 1_555 1_555
H2_5 C6_5 1_555 1_555
C7_5 C2_5 1_555 1_555
H3_5 C7_5 1_555 1_555
C3_5 C4_5 1_555 1_555
C4_5 C5_5 1_555 1_555
C6_5 C7_5 1_555 1_555
O3_5 H4_5 1_555 1_555
O3_5 H5_5 1_555 1_555
O4_3 C1_6 1_555 1_555
O2_6 C1_6 1_555 1_555
N2_6 N1_6 1_555 1_555
N4_2 N2_6 1_555 1_555
C1_6 C2_6 1_555 1_555
C2_6 C3_6 1_555 1_555
C3_6 H1_6 1_555 1_555
C4_6 N1_6 1_555 1_555
C5_6 N4_2 1_555 1_555
C6_6 C5_6 1_555 1_555
H2_6 C6_6 1_555 1_555
C7_6 C2_6 1_555 1_555
H3_6 C7_6 1_555 1_555
C3_6 C4_6 1_555 1_555
C4_6 C5_6 1_555 1_555
C6_6 C7_6 1_555 1_555
O3_6 H4_6 1_555 1_555

#END
