
###############################################################################
#
# This file contains modified crystal structure data generated from the
# MOF subset of the Cambridge Structural Database (CSD) v543 
# hosted by the Cambridge Crystallographic Data Centre (CCDC).
#
# This work is licensed under the Creative Commons
# Attribution-NonCommercial-ShareAlike 4.0 International License.
# To view a copy of this license, visit
# http://creativecommons.org/licenses/by-nc-sa/4.0/
# or send a letter to
# Creative Commons, PO Box 1866, Mountain View, CA 94042, USA.
#
# CIF created using the CSD Python API on 29 September 2022
# The structure has been converted into the P1 space group
# The structure has a 3D framework
# The original CSD entry ALULID is in the triclinic crystal system
# The framework has been calculated to contain at least 10.0% void space
# The void calculation uses a probe of radius 1.32A, grid spacing 0.4
#
###############################################################################

data_ALULID
_chemical_formula_moiety         '(C84 H60 Ce4 N12 O28)n'
_symmetry_cell_setting           triclinic
_symmetry_space_group_name_H-M   'P 1'
_symmetry_Int_Tables_number      1
_space_group_name_Hall           'P 1'
loop_
_symmetry_equiv_pos_site_id
_symmetry_equiv_pos_as_xyz
1 x,y,z
_cell_length_a                   15.7428(17)
_cell_length_b                   16.5562(19)
_cell_length_c                   16.976(2)
_cell_angle_alpha                99.866(1)
_cell_angle_beta                 95.617(1)
_cell_angle_gamma                115.060(2)
_cell_volume                     3876.16
loop_
_atom_site_label
_atom_site_type_symbol
_atom_site_fract_x
_atom_site_fract_y
_atom_site_fract_z
_atom_site_U_iso_or_equiv
_atom_site_thermal_displace_type
Ce6 Ce 0.47106(4) 0.46071(4) 0.36548(3) 0.0171 Uani
Ce14 Ce 0.44698(5) 0.51738(4) 0.13974(4) 0.0263 Uani
O24 O 0.3522(5) 0.3984(5) 0.2041(5) 0.0370 Uani
O26 O 0.2867(6) 0.3619(6) 0.3072(5) 0.0426 Uani
C62 C 0.2860(9) 0.3463(8) 0.2342(8) 0.0405 Uani
C63 C 0.2095(9) 0.2607(9) 0.1774(7) 0.0478 Uani
C64 C 0.1310(10) 0.2085(10) 0.2080(9) 0.0633 Uani
H47 H 0.1238 0.2288 0.2604 0.0760 Uiso
C65 C 0.0634(11) 0.1249(10) 0.1583(9) 0.0721 Uani
H48 H 0.0125 0.0871 0.1791 0.0870 Uiso
C66 C 0.0700(12) 0.0975(10) 0.0809(9) 0.0683 Uani
C67 C 0.1501(11) 0.1501(10) 0.0509(9) 0.0651 Uani
C68 C 0.2184(11) 0.2311(9) 0.1018(8) 0.0613 Uani
H50 H 0.2724 0.2664 0.0829 0.0730 Uiso
Ce8 Ce 0.52894(4) 0.53929(4) 0.63452(3) 0.0171 Uani
O28 O 0.3997(5) 0.3383(5) 0.4401(4) 0.0300 Uani
O30 O 0.3982(6) 0.3853(5) 0.5698(5) 0.0357 Uani
H49 H 0.1571 0.1311 0.9981 0.0780 Uiso
C69 C 0.3648(8) 0.3306(7) 0.5013(7) 0.0304 Uani
C70 C 0.2757(9) 0.2458(8) 0.4969(7) 0.0364 Uani
C71 C 0.2433(10) 0.2194(9) 0.5657(8) 0.0534 Uani
H51 H 0.2792 0.2540 0.6171 0.0650 Uiso
C72 C 0.1576(10) 0.1416(9) 0.5587(9) 0.0593 Uani
H52 H 0.1364 0.1244 0.6052 0.0710 Uiso
C73 C 0.1040(10) 0.0899(9) 0.4823(8) 0.0556 Uani
C74 C 0.1348(10) 0.1147(9) 0.4125(8) 0.0543 Uani
H53 H 0.0986 0.0806 0.3611 0.0650 Uiso
C75 C 0.2214(10) 0.1923(9) 0.4213(8) 0.0541 Uani
H54 H 0.2435 0.2086 0.3748 0.0640 Uiso
N11 N 0.0128(9) 0.0078(8) 0.4686(7) 0.0607 Uani
N4 N 0.0053(11) 0.9875(10) 0.9660(8) 0.0749 Uani
O22 O 0.4555(8) 0.3794(6) 0.0779(6) 0.0534 Uani
C56 C 0.4861(15) 0.2641(10) 0.0025(10) 0.0690 Uani
C57 C 0.4623(15) 0.2161(10) 0.0593(10) 0.0731 Uani
H43 H 0.4418 0.2380 0.1041 0.0870 Uiso
C58 C 0.4678(16) 0.1342(11) 0.0519(11) 0.0835 Uani
H44 H 0.4500 0.0999 0.0908 0.1010 Uiso
N10 N 0.9947(11) 0.0125(10) 0.0340(8) 0.0749 Uani
C83 C 0.4791(12) 0.3518(9) 0.0137(8) 0.0507 Uani
Ce13 Ce 0.55302(5) 0.48262(4) 0.86026(4) 0.0263 Uani
C59 C 0.5000(17) 0.1043(11) 0.9864(11) 0.0830 Uani
C60 C 0.5100(16) 0.1456(10) 0.9249(11) 0.0787 Uani
H45 H 0.5173 0.1176 0.8754 0.0950 Uiso
C61 C 0.5096(15) 0.2296(10) 0.9341(10) 0.0735 Uani
H46 H 0.5253 0.2624 0.8940 0.0880 Uiso
N9 N 0.5049(15) 0.0161(10) 0.9708(9) 0.0915 Uani
O40 O 0.5049(9) 0.3983(6) 0.9625(6) 0.0584 Uani
H2 H 0.6583 0.5593 0.0349 0.0860 Uiso
C17 C 0.5000(17) 0.8957(11) 0.0136(11) 0.0830 Uani
C18 C 0.4900(16) 0.8544(10) 0.0751(11) 0.0787 Uani
H15 H 0.4827 0.8824 0.1246 0.0950 Uiso
C19 C 0.4904(15) 0.7704(10) 0.0659(10) 0.0735 Uani
H16 H 0.4747 0.7376 0.1060 0.0880 Uiso
H19 H 0.8429 0.8689 0.0019 0.0780 Uiso
N3 N 0.4951(15) 0.9839(10) 0.0292(9) 0.0915 Uani
O15 O 0.4951(9) 0.6017(6) 0.0375(6) 0.0584 Uani
O1 O 0.4306(6) 0.4942(5) 0.7464(4) 0.0318 Uani
O2 O 0.3749(5) 0.4490(5) 0.8480(4) 0.0307 Uani
O5 O 0.5445(8) 0.6206(6) 0.9221(6) 0.0534 Uani
O6 O 0.6478(5) 0.6016(5) 0.7959(5) 0.0370 Uani
O7 O 0.7133(6) 0.6381(6) 0.6928(5) 0.0426 Uani
O8 O 0.6003(5) 0.6617(5) 0.5599(4) 0.0300 Uani
O9 O 0.6018(6) 0.6147(5) 0.4302(5) 0.0357 Uani
O10 O 0.5550(6) 0.4160(5) 0.6978(5) 0.0343 Uani
O11 O 0.4676(7) 0.3218(5) 0.7691(5) 0.0473 Uani
O12 O 0.6836(8) 0.5661(8) 0.9930(6) 0.0720 Uani
H1 H 0.7230 0.5434 0.9936 0.0860 Uiso
O13 O 0.5486(8) 0.6966(5) 0.7241(5) 0.0505 Uani
H3 H 0.5614 0.6959 0.7737 0.0610 Uiso
H4 H 0.4949 0.6975 0.7167 0.0610 Uiso
C1 C 0.2694(9) 0.4567(11) 0.7517(8) 0.0481 Uani
C2 C 0.2171(11) 0.4760(13) 0.8044(10) 0.0681 Uani
H5 H 0.2369 0.4853 0.8601 0.0820 Uiso
C3 C 0.1326(12) 0.4822(14) 0.7759(11) 0.0779 Uani
H6 H 0.1033 0.5073 0.8107 0.0940 Uiso
C4 C 0.0965(11) 0.4482(13) 0.6926(10) 0.0667 Uani
C5 C 0.1494(10) 0.4310(12) 0.6416(9) 0.0611 Uani
H7 H 0.1273 0.4152 0.5856 0.0730 Uiso
C6 C 0.2372(10) 0.4368(11) 0.6721(9) 0.0529 Uani
H8 H 0.2744 0.4266 0.6361 0.0640 Uiso
C14 C 0.5139(15) 0.7359(10) 0.9975(10) 0.0690 Uani
C15 C 0.5377(15) 0.7839(10) 0.9407(10) 0.0731 Uani
H13 H 0.5582 0.7620 0.8959 0.0870 Uiso
C16 C 0.5322(16) 0.8658(11) 0.9481(11) 0.0835 Uani
H14 H 0.5500 0.9001 0.9092 0.1010 Uiso
C20 C 0.7140(9) 0.6537(8) 0.7658(8) 0.0405 Uani
C21 C 0.7905(9) 0.7393(9) 0.8226(7) 0.0478 Uani
C22 C 0.8690(10) 0.7915(10) 0.7920(9) 0.0633 Uani
H17 H 0.8762 0.7712 0.7396 0.0760 Uiso
C23 C 0.9366(11) 0.8751(10) 0.8417(9) 0.0721 Uani
H18 H 0.9875 0.9129 0.8209 0.0870 Uiso
C24 C 0.9300(12) 0.9025(10) 0.9191(9) 0.0683 Uani
C25 C 0.8499(11) 0.8499(10) 0.9491(9) 0.0651 Uani
C26 C 0.7816(11) 0.7689(9) 0.8982(8) 0.0613 Uani
H20 H 0.7276 0.7336 0.9171 0.0730 Uiso
C27 C 0.6352(8) 0.6694(7) 0.4987(7) 0.0304 Uani
C28 C 0.7243(9) 0.7542(8) 0.5031(7) 0.0364 Uani
C29 C 0.7567(10) 0.7806(9) 0.4343(8) 0.0534 Uani
H21 H 0.7208 0.7460 0.3829 0.0650 Uiso
C30 C 0.8424(10) 0.8584(9) 0.4413(9) 0.0593 Uani
H22 H 0.8636 0.8756 0.3948 0.0710 Uiso
C31 C 0.8960(10) 0.9101(9) 0.5177(8) 0.0556 Uani
C32 C 0.8652(10) 0.8853(9) 0.5875(8) 0.0543 Uani
H23 H 0.9014 0.9194 0.6389 0.0650 Uiso
C33 C 0.7786(10) 0.8077(9) 0.5787(8) 0.0541 Uani
H24 H 0.7565 0.7914 0.6252 0.0640 Uiso
C34 C 0.5080(11) 0.3361(8) 0.7101(8) 0.0465 Uani
C35 C 0.5088(11) 0.2576(8) 0.6516(8) 0.0507 Uani
C36 C 0.4720(14) 0.1715(10) 0.6713(10) 0.0697 Uani
H25 H 0.4464 0.1632 0.7181 0.0840 Uiso
C37 C 0.4754(14) 0.0989(10) 0.6179(10) 0.0758 Uani
H26 H 0.4534 0.0420 0.6309 0.0910 Uiso
C38 C 0.5099(13) 0.1085(9) 0.5475(9) 0.0617 Uani
C39 C 0.5381(13) 0.1916(9) 0.5281(9) 0.0652 Uani
H27 H 0.5574 0.1989 0.4787 0.0780 Uiso
C40 C 0.5381(12) 0.2642(9) 0.5807(9) 0.0538 Uani
H28 H 0.5593 0.3204 0.5664 0.0650 Uiso
N1 N 0.0080(10) 0.4540(12) 0.6685(9) 0.0776 Uani
N5 N 0.9872(9) 0.9922(8) 0.5314(7) 0.0607 Uani
N6 N 0.5111(12) 0.0355(8) 0.4894(8) 0.0660 Uani
C41 C 0.5209(12) 0.6482(9) 0.9863(8) 0.0507 Uani
O14 O 0.6807(9) 0.4244(9) 0.8500(7) 0.0776 Uani
H29 H 0.6438 0.3680 0.8455 0.0930 Uiso
H30 H 0.7065 0.4438 0.9002 0.0930 Uiso
C42 C 0.3637(8) 0.4680(9) 0.7845(7) 0.0349 Uani
O18 O 0.3939(6) 0.5759(6) 0.5915(5) 0.0380 Uani
O19 O 0.4009(5) 0.5174(5) 0.4685(5) 0.0338 Uani
O20 O 0.5991(5) 0.4826(5) 0.5315(5) 0.0338 Uani
C49 C 0.1066(11) 0.5618(13) 0.4273(10) 0.0641 Uani
C50 C 0.1444(12) 0.5192(13) 0.3737(11) 0.0739 Uani
H39 H 0.1162 0.4944 0.3189 0.0890 Uiso
C51 C 0.2265(11) 0.5158(12) 0.4065(10) 0.0684 Uani
H40 H 0.2512 0.4854 0.3716 0.0820 Uiso
C52 C 0.2754(9) 0.5534(10) 0.4864(8) 0.0429 Uani
C53 C 0.2350(10) 0.5991(11) 0.5344(9) 0.0544 Uani
H41 H 0.2656 0.6273 0.5883 0.0650 Uiso
C54 C 0.1521(10) 0.6055(11) 0.5073(9) 0.0575 Uani
H42 H 0.1284 0.6377 0.5415 0.0690 Uiso
C55 C 0.3607(8) 0.5476(9) 0.5178(7) 0.0342 Uani
N8 N 0.0223(9) 0.5721(11) 0.4038(9) 0.0710 Uani
O33 O 0.4450(6) 0.5840(5) 0.3022(5) 0.0343 Uani
O35 O 0.5324(7) 0.6782(5) 0.2309(5) 0.0473 Uani
C76 C 0.4920(11) 0.6639(8) 0.2899(8) 0.0465 Uani
C77 C 0.4912(11) 0.7424(8) 0.3484(8) 0.0507 Uani
C78 C 0.5280(14) 0.8285(10) 0.3287(10) 0.0697 Uani
H55 H 0.5536 0.8368 0.2819 0.0840 Uiso
C79 C 0.5246(14) 0.9011(10) 0.3821(10) 0.0758 Uani
H56 H 0.5466 0.9580 0.3691 0.0910 Uiso
C80 C 0.4901(13) 0.8915(9) 0.4525(9) 0.0617 Uani
C81 C 0.4619(13) 0.8084(9) 0.4719(9) 0.0652 Uani
H57 H 0.4426 0.8011 0.5213 0.0780 Uiso
C82 C 0.4619(12) 0.7358(9) 0.4193(9) 0.0538 Uani
H58 H 0.4407 0.6796 0.4336 0.0650 Uiso
N12 N 0.4889(12) 0.9645(8) 0.5106(8) 0.0660 Uani
O3 O 0.6061(6) 0.4241(6) 0.4085(5) 0.0380 Uani
C7 C 0.8934(11) 0.4382(13) 0.5727(10) 0.0641 Uani
C8 C 0.8556(12) 0.4808(13) 0.6263(11) 0.0739 Uani
H9 H 0.8838 0.5056 0.6811 0.0890 Uiso
C9 C 0.7735(11) 0.4842(12) 0.5935(10) 0.0684 Uani
H10 H 0.7488 0.5146 0.6284 0.0820 Uiso
C10 C 0.7246(9) 0.4466(10) 0.5136(8) 0.0429 Uani
C11 C 0.7650(10) 0.4009(11) 0.4656(9) 0.0544 Uani
H11 H 0.7344 0.3727 0.4117 0.0650 Uiso
C12 C 0.8479(10) 0.3945(11) 0.4927(9) 0.0575 Uani
H12 H 0.8716 0.3623 0.4585 0.0690 Uiso
C13 C 0.6393(8) 0.4524(9) 0.4822(7) 0.0342 Uani
N2 N 0.9777(9) 0.4279(11) 0.5962(9) 0.0710 Uani
O16 O 0.5694(6) 0.5058(5) 0.2536(4) 0.0318 Uani
O17 O 0.6251(5) 0.5510(5) 0.1520(4) 0.0307 Uani
O37 O 0.3164(8) 0.4339(8) 0.0070(6) 0.0720 Uani
H31 H 0.2770 0.4566 0.0064 0.0860 Uiso
O38 O 0.4514(8) 0.3034(5) 0.2759(5) 0.0505 Uani
H33 H 0.4386 0.3041 0.2263 0.0610 Uiso
H34 H 0.5051 0.3025 0.2833 0.0610 Uiso
C43 C 0.7306(9) 0.5433(11) 0.2483(8) 0.0481 Uani
C44 C 0.7829(11) 0.5240(13) 0.1956(10) 0.0681 Uani
H35 H 0.7631 0.5147 0.1399 0.0820 Uiso
C45 C 0.8674(12) 0.5178(14) 0.2241(11) 0.0779 Uani
H36 H 0.8967 0.4927 0.1893 0.0940 Uiso
C46 C 0.9035(11) 0.5518(13) 0.3074(10) 0.0667 Uani
C47 C 0.8506(10) 0.5690(12) 0.3584(9) 0.0611 Uani
H37 H 0.8727 0.5848 0.4144 0.0730 Uiso
C48 C 0.7628(10) 0.5632(11) 0.3279(9) 0.0529 Uani
H38 H 0.7256 0.5734 0.3639 0.0640 Uiso
N7 N 0.9920(10) 0.5460(12) 0.3315(9) 0.0776 Uani
O39 O 0.3193(9) 0.5756(9) 0.1500(7) 0.0776 Uani
H59 H 0.3562 0.6320 0.1545 0.0930 Uiso
H60 H 0.2935 0.5562 0.0998 0.0930 Uiso
C84 C 0.6363(8) 0.5320(9) 0.2155(7) 0.0349 Uani
H32 H 0.3417 0.4407 0.9651 0.0860 Uiso
loop_
_atom_site_aniso_label
_atom_site_aniso_U_11
_atom_site_aniso_U_22
_atom_site_aniso_U_33
_atom_site_aniso_U_23
_atom_site_aniso_U_13
_atom_site_aniso_U_12
Ce6 0.009 0.0145 0.017 0.0004 0.0027 -0.0035
Ce14 0.0362 0.0249 0.0261 0.0046 0.0087 0.0212
O24 0.025 0.034 0.0263 0.002 -0.0076 -0.0059
O26 0.022 0.041 0.028 0.003 -0.0095 -0.015
C62 0.033 0.027 0.04 0.003 0.004 -0.004
C63 0.037 0.045 0.028 -0.005 0.004 -0.007
C64 0.044 0.056 0.039 -0.004 0.004 -0.018
C65 0.05 0.056 0.049 -0.008 0.004 -0.024
C66 0.056 0.05 0.044 -0.011 0.001 -0.017
C67 0.056 0.053 0.046 -0.007 0.01 -0.006
C68 0.054 0.044 0.037 -0.009 0.008 -0.016
Ce8 0.009 0.0145 0.017 0.0004 0.0027 -0.0035
O28 0.032 0.015 0.031 0.004 0.006 0
O30 0.031 0.03 0.028 0.006 0.017 -0.005
C69 0.027 0.019 0.04 0.006 0.006 0.006
C70 0.032 0.026 0.034 0.004 0.003 -0.001
C71 0.039 0.04 0.041 -0.002 0.003 -0.014
C72 0.05 0.045 0.047 0.017 0.014 -0.015
C73 0.042 0.039 0.046 0.007 0.006 -0.017
C74 0.041 0.041 0.044 0.001 0.002 -0.011
C75 0.04 0.045 0.04 0.007 0.007 -0.014
N11 0.044 0.045 0.048 0.004 0.008 -0.019
N4 0.064 0.055 0.062 -0.006 0.011 -0.006
O22 0.082 0.038 0.044 0.011 0.031 0.026
C56 0.13 0.037 0.058 0.014 0.033 0.05
C57 0.134 0.048 0.065 0.019 0.04 0.06
C58 0.15 0.055 0.072 0.027 0.041 0.062
N10 0.064 0.055 0.062 -0.006 0.011 -0.006
C83 0.102 0.033 0.046 0.024 0.026 0.049
Ce13 0.0362 0.0249 0.0261 0.0046 0.0087 0.0212
C59 0.16 0.049 0.076 0.027 0.045 0.071
C60 0.149 0.048 0.072 0.022 0.043 0.067
C61 0.137 0.047 0.064 0.018 0.042 0.06
N9 0.167 0.059 0.08 0.03 0.047 0.07
O40 0.111 0.03 0.048 0.009 0.018 0.044
C17 0.16 0.049 0.076 0.027 0.045 0.071
C18 0.149 0.048 0.072 0.022 0.043 0.067
C19 0.137 0.047 0.064 0.018 0.042 0.06
N3 0.167 0.059 0.08 0.03 0.047 0.07
O15 0.111 0.03 0.048 0.009 0.018 0.044
O1 0.034 0.038 0.027 0.009 0.011 0.018
O2 0.0324 0.035 0.026 0.014 0.009 0.013
O5 0.082 0.038 0.044 0.011 0.031 0.026
O6 0.025 0.034 0.0263 0.002 -0.0076 -0.0059
O7 0.022 0.041 0.028 0.003 -0.0095 -0.015
O8 0.032 0.015 0.031 0.004 0.006 0
O9 0.031 0.03 0.028 0.006 0.017 -0.005
O10 0.043 0.027 0.036 0.001 0.012 0.02
O11 0.084 0.021 0.045 0.0139 0.03 0.025
O12 0.064 0.109 0.032 0.01 -0.004 0.034
O13 0.099 0.029 0.031 0.01 0.02 0.033
C1 0.036 0.08 0.036 0.017 0.011 0.031
C2 0.048 0.104 0.052 0.005 0.018 0.037
C3 0.05 0.119 0.063 0.009 0.011 0.041
C4 0.039 0.109 0.062 0.014 0.008 0.045
C5 0.036 0.101 0.046 0.015 0.009 0.031
C6 0.044 0.081 0.046 0.022 0.012 0.036
C14 0.13 0.037 0.058 0.014 0.033 0.05
C15 0.134 0.048 0.065 0.019 0.04 0.06
C16 0.15 0.055 0.072 0.027 0.041 0.062
C20 0.033 0.027 0.04 0.003 0.004 -0.004
C21 0.037 0.045 0.028 -0.005 0.004 -0.007
C22 0.044 0.056 0.039 -0.004 0.004 -0.018
C23 0.05 0.056 0.049 -0.008 0.004 -0.024
C24 0.056 0.05 0.044 -0.011 0.001 -0.017
C25 0.056 0.053 0.046 -0.007 0.01 -0.006
C26 0.054 0.044 0.037 -0.009 0.008 -0.016
C27 0.027 0.019 0.04 0.006 0.006 0.006
C28 0.032 0.026 0.034 0.004 0.003 -0.001
C29 0.039 0.04 0.041 -0.002 0.003 -0.014
C30 0.05 0.045 0.047 0.017 0.014 -0.015
C31 0.042 0.039 0.046 0.007 0.006 -0.017
C32 0.041 0.041 0.044 0.001 0.002 -0.011
C33 0.04 0.045 0.04 0.007 0.007 -0.014
C34 0.075 0.024 0.049 0.013 0.019 0.027
C35 0.077 0.027 0.047 0 0.024 0.023
C36 0.103 0.036 0.062 0.002 0.036 0.023
C37 0.114 0.032 0.07 0.009 0.034 0.02
C38 0.088 0.035 0.06 -0.001 0.03 0.027
C39 0.107 0.028 0.055 0.002 0.04 0.023
C40 0.082 0.028 0.056 0.007 0.032 0.026
N1 0.047 0.115 0.069 0.011 0.01 0.039
N5 0.044 0.045 0.048 0.004 0.008 -0.019
N6 0.099 0.037 0.059 0.002 0.031 0.028
C41 0.102 0.033 0.046 0.024 0.026 0.049
O14 0.091 0.13 0.064 0.033 0.01 0.095
C42 0.03 0.059 0.028 0.023 0.018 0.024
O18 0.035 0.051 0.038 0.01 0.015 0.027
O19 0.025 0.028 0.042 -0.003 0.003 0.011
O20 0.025 0.028 0.042 -0.003 0.003 0.011
C49 0.043 0.092 0.06 0.007 0.005 0.038
C50 0.05 0.099 0.068 -0.002 -0.002 0.04
C51 0.049 0.087 0.063 -0.012 0.005 0.037
C52 0.036 0.06 0.041 0.004 0.013 0.031
C53 0.04 0.076 0.054 -0.002 0.013 0.038
C54 0.042 0.087 0.058 0.01 0.015 0.044
C55 0.027 0.049 0.034 0.004 0.011 0.025
N8 0.047 0.102 0.063 0.01 0.011 0.036
O33 0.043 0.027 0.036 0.001 0.012 0.02
O35 0.084 0.021 0.045 0.0139 0.03 0.025
C76 0.075 0.024 0.049 0.013 0.019 0.027
C77 0.077 0.027 0.047 0 0.024 0.023
C78 0.103 0.036 0.062 0.002 0.036 0.023
C79 0.114 0.032 0.07 0.009 0.034 0.02
C80 0.088 0.035 0.06 -0.001 0.03 0.027
C81 0.107 0.028 0.055 0.002 0.04 0.023
C82 0.082 0.028 0.056 0.007 0.032 0.026
N12 0.099 0.037 0.059 0.002 0.031 0.028
O3 0.035 0.051 0.038 0.01 0.015 0.027
C7 0.043 0.092 0.06 0.007 0.005 0.038
C8 0.05 0.099 0.068 -0.002 -0.002 0.04
C9 0.049 0.087 0.063 -0.012 0.005 0.037
C10 0.036 0.06 0.041 0.004 0.013 0.031
C11 0.04 0.076 0.054 -0.002 0.013 0.038
C12 0.042 0.087 0.058 0.01 0.015 0.044
C13 0.027 0.049 0.034 0.004 0.011 0.025
N2 0.047 0.102 0.063 0.01 0.011 0.036
O16 0.034 0.038 0.027 0.009 0.011 0.018
O17 0.0324 0.035 0.026 0.014 0.009 0.013
O37 0.064 0.109 0.032 0.01 -0.004 0.034
O38 0.099 0.029 0.031 0.01 0.02 0.033
C43 0.036 0.08 0.036 0.017 0.011 0.031
C44 0.048 0.104 0.052 0.005 0.018 0.037
C45 0.05 0.119 0.063 0.009 0.011 0.041
C46 0.039 0.109 0.062 0.014 0.008 0.045
C47 0.036 0.101 0.046 0.015 0.009 0.031
C48 0.044 0.081 0.046 0.022 0.012 0.036
N7 0.047 0.115 0.069 0.011 0.01 0.039
O39 0.091 0.13 0.064 0.033 0.01 0.095
C84 0.03 0.059 0.028 0.023 0.018 0.024
loop_
_geom_bond_atom_site_label_1
_geom_bond_atom_site_label_2
_geom_bond_site_symmetry_1
_geom_bond_site_symmetry_2
Ce6 O24 1_555 1_555
Ce14 O24 1_555 1_555
O24 C62 1_555 1_555
O26 Ce6 1_555 1_555
C62 O26 1_555 1_555
C63 C62 1_555 1_555
C64 C63 1_555 1_555
H47 C64 1_555 1_555
C65 C64 1_555 1_555
H48 C65 1_555 1_555
C66 C65 1_555 1_555
C67 C66 1_555 1_555
C68 C63 1_555 1_555
H50 C68 1_555 1_555
C67 C68 1_555 1_555
Ce6 O28 1_555 1_555
Ce8 O30 1_555 1_555
O28 C69 1_555 1_555
O30 C69 1_555 1_555
C69 C70 1_555 1_555
C70 C71 1_555 1_555
C71 H51 1_555 1_555
C72 C71 1_555 1_555
H52 C72 1_555 1_555
C73 C72 1_555 1_555
C74 C73 1_555 1_555
H53 C74 1_555 1_555
C75 C70 1_555 1_555
H54 C75 1_555 1_555
C73 N11 1_555 1_555
C74 C75 1_555 1_555
Ce14 O22 1_555 1_555
O22 C83 1_555 1_555
C56 C57 1_555 1_555
C57 H43 1_555 1_555
C58 C57 1_555 1_555
H44 C58 1_555 1_555
C83 C56 1_555 1_555
Ce13 O40 1_555 1_555
C60 C59 1_555 1_555
H45 C60 1_555 1_555
H46 C61 1_555 1_555
C59 N9 1_555 1_555
C60 C61 1_555 1_555
C18 C17 1_555 1_555
H15 C18 1_555 1_555
H16 C19 1_555 1_555
N3 C17 1_555 1_555
Ce14 O15 1_555 1_555
C18 C19 1_555 1_555
Ce8 O1 1_555 1_555
Ce13 O1 1_555 1_555
O1 C42 1_555 1_555
O2 Ce13 1_555 1_555
O5 Ce13 1_555 1_555
O6 Ce8 1_555 1_555
O7 Ce8 1_555 1_555
O8 Ce8 1_555 1_555
O9 C27 1_555 1_555
O10 Ce8 1_555 1_555
O11 Ce13 1_555 1_555
O12 Ce13 1_555 1_555
H1 O12 1_555 1_555
O13 Ce8 1_555 1_555
H3 O13 1_555 1_555
H4 O13 1_555 1_555
C1 C2 1_555 1_555
C2 H5 1_555 1_555
C3 C2 1_555 1_555
H6 C3 1_555 1_555
C4 C3 1_555 1_555
C5 C4 1_555 1_555
H7 C5 1_555 1_555
C6 C1 1_555 1_555
H8 C6 1_555 1_555
C14 C15 1_555 1_555
C15 H13 1_555 1_555
C16 C15 1_555 1_555
H14 C16 1_555 1_555
C20 O6 1_555 1_555
C21 C20 1_555 1_555
C22 C21 1_555 1_555
H17 C22 1_555 1_555
C23 C22 1_555 1_555
H18 C23 1_555 1_555
C24 C23 1_555 1_555
C25 C24 1_555 1_555
C26 C21 1_555 1_555
H20 C26 1_555 1_555
C27 O8 1_555 1_555
C28 C27 1_555 1_555
C29 C28 1_555 1_555
H21 C29 1_555 1_555
C30 C29 1_555 1_555
H22 C30 1_555 1_555
C31 C30 1_555 1_555
C32 C31 1_555 1_555
H23 C32 1_555 1_555
C33 C28 1_555 1_555
H24 C33 1_555 1_555
C34 O10 1_555 1_555
C35 C34 1_555 1_555
C36 C35 1_555 1_555
H25 C36 1_555 1_555
C37 C36 1_555 1_555
H26 C37 1_555 1_555
C38 C37 1_555 1_555
C39 C38 1_555 1_555
H27 C39 1_555 1_555
C40 C35 1_555 1_555
H28 C40 1_555 1_555
N1 C4 1_555 1_555
N5 C31 1_555 1_555
N6 C38 1_555 1_555
C41 O5 1_555 1_555
O14 Ce13 1_555 1_555
H29 O14 1_555 1_555
H30 O14 1_555 1_555
C42 O2 1_555 1_555
Ce6 O9 1_555 1_555
O18 Ce8 1_555 1_555
O19 Ce6 1_555 1_555
O20 Ce8 1_555 1_555
C49 C50 1_555 1_555
C50 H39 1_555 1_555
C51 C50 1_555 1_555
H40 C51 1_555 1_555
C52 C51 1_555 1_555
C53 C52 1_555 1_555
H41 C53 1_555 1_555
C54 C49 1_555 1_555
H42 C54 1_555 1_555
C55 O18 1_555 1_555
N8 C49 1_555 1_555
Ce13 O6 1_555 1_555
Ce13 O10 1_555 1_555
O7 C20 1_555 1_555
O11 C34 1_555 1_555
C1 C42 1_555 1_555
C5 C6 1_555 1_555
C14 C41 1_555 1_555
C25 C26 1_555 1_555
C32 C33 1_555 1_555
C39 C40 1_555 1_555
O19 C55 1_555 1_555
C52 C55 1_555 1_555
C53 C54 1_555 1_555
Ce6 O33 1_555 1_555
Ce14 O33 1_555 1_555
O33 C76 1_555 1_555
O35 Ce14 1_555 1_555
C76 O35 1_555 1_555
C77 C76 1_555 1_555
C78 C77 1_555 1_555
H55 C78 1_555 1_555
C79 C78 1_555 1_555
H56 C79 1_555 1_555
C80 C79 1_555 1_555
C81 C80 1_555 1_555
H57 C81 1_555 1_555
C82 C77 1_555 1_555
H58 C82 1_555 1_555
C80 N12 1_555 1_555
C81 C82 1_555 1_555
O3 C13 1_555 1_555
O20 C13 1_555 1_555
C7 C8 1_555 1_555
C8 H9 1_555 1_555
C9 C8 1_555 1_555
H10 C9 1_555 1_555
C10 C9 1_555 1_555
C11 C10 1_555 1_555
H11 C11 1_555 1_555
C12 C7 1_555 1_555
H12 C12 1_555 1_555
C13 C10 1_555 1_555
N2 C7 1_555 1_555
Ce6 O3 1_555 1_555
Ce14 O16 1_555 1_555
O16 Ce6 1_555 1_555
O17 Ce14 1_555 1_555
O37 Ce14 1_555 1_555
H31 O37 1_555 1_555
O38 Ce6 1_555 1_555
H33 O38 1_555 1_555
H34 O38 1_555 1_555
C43 C44 1_555 1_555
C44 H35 1_555 1_555
C45 C44 1_555 1_555
H36 C45 1_555 1_555
C46 C45 1_555 1_555
C47 C46 1_555 1_555
H37 C47 1_555 1_555
C48 C43 1_555 1_555
H38 C48 1_555 1_555
N7 C46 1_555 1_555
O39 Ce14 1_555 1_555
H59 O39 1_555 1_555
H60 O39 1_555 1_555
C84 O16 1_555 1_555
C11 C12 1_555 1_555
O17 C84 1_555 1_555
C43 C84 1_555 1_555
C47 C48 1_555 1_555

#END
