
###############################################################################
#
# This file contains modified crystal structure data generated from the
# MOF subset of the Cambridge Structural Database (CSD) v543 
# hosted by the Cambridge Crystallographic Data Centre (CCDC).
#
# This work is licensed under the Creative Commons
# Attribution-NonCommercial-ShareAlike 4.0 International License.
# To view a copy of this license, visit
# http://creativecommons.org/licenses/by-nc-sa/4.0/
# or send a letter to
# Creative Commons, PO Box 1866, Mountain View, CA 94042, USA.
#
# CIF created using the CSD Python API on 29 September 2022
# The structure has been converted into the P1 space group
# The structure has a 3D framework
# The original CSD entry ALURIL is in the tetragonal crystal system
# The original CSD entry ALURIL is in a Sohncke space group
# The framework has been calculated to contain at least 10.0% void space
# The void calculation uses a probe of radius 1.32A, grid spacing 0.4
#
###############################################################################

data_ALURIL
_chemical_formula_moiety         '(C56 H32 N4 O24 Tb4)n'
_symmetry_cell_setting           triclinic
_symmetry_space_group_name_H-M   'P 1'
_symmetry_Int_Tables_number      1
_space_group_name_Hall           'P 1'
loop_
_symmetry_equiv_pos_site_id
_symmetry_equiv_pos_as_xyz
1 x,y,z
_cell_length_a                   12.396
_cell_length_b                   12.396
_cell_length_c                   14.60440(10)
_cell_angle_alpha                90
_cell_angle_beta                 90
_cell_angle_gamma                90
_cell_volume                     2244.12
loop_
_atom_site_label
_atom_site_type_symbol
_atom_site_fract_x
_atom_site_fract_y
_atom_site_fract_z
O6 O 0.0336(3) 0.0680(4) 0.4260(3)
Tb5 Tb 0.01092(2) 0.17988(2) 0.28858(5)
O10 O 0.0111(4) 0.0740(4) 0.0063(4)
Tb3 Tb 0.17988(2) 0.98908(2) 0.53858(5)
Tb1 Tb 0.82012(2) 0.01092(2) 0.03858(5)
N1 N 0.8404(4) 0.0888(4) 0.3521(4)
O2 O 0.6261(4) 0.0676(4) 0.0537(3)
O3 O 0.2721(3) 0.1197(4) 0.4548(3)
O4 O 0.1884(3) 0.1856(4) 0.3315(3)
C1 C 0.5368(5) 0.0601(6) 0.1968(5)
C2 C 0.4374(6) 0.0897(8) 0.1606(5)
H3 H 0.429080 0.092894 0.097328
C3 C 0.3509(6) 0.1143(8) 0.2159(5)
H4 H 0.285473 0.133684 0.189484
C4 C 0.3599(5) 0.1107(6) 0.3109(4)
C5 C 0.4588(5) 0.0815(6) 0.3489(5)
H5 H 0.466108 0.077872 0.412237
C6 C 0.5479(5) 0.0574(5) 0.2926(6)
C7 C 0.6539(5) 0.0384(6) 0.3385(5)
C10 C 0.8535(5) 0.0112(5) 0.4152(5)
C11 C 0.7424(5) 0.1017(5) 0.3151(4)
H8 H 0.733049 0.155608 0.271503
C12 C 0.6253(5) 0.0302(6) 0.1324(5)
C13 C 0.2666(5) 0.1399(5) 0.3697(5)
C14 C 0.9644(5) 0.0002(5) 0.4519(4)
O9 O 0.8144(4) 0.1884(3) 0.0815(3)
O12 O 0.9320(4) 0.0336(3) 0.1760(3)
O1 O 0.7008(4) 0.9671(4) 0.1592(4)
O5 O 0.9889(4) 0.9260(4) 0.5063(4)
C8 C 0.6668(6) 0.9604(7) 0.4060(6)
H6 H 0.608626 0.918886 0.425395
C9 C 0.7675(6) 0.9460(7) 0.4434(6)
H7 H 0.778552 0.892937 0.487510
N2 N 0.9112(4) 0.8404(4) 0.1021(4)
O8 O 0.7279(3) 0.8803(4) 0.9548(3)
O11 O 0.9664(3) 0.9320(4) 0.9260(3)
O1_2 O 0.2992(4) 0.0329(4) 0.6592(4)
C8_2 C 0.3332(6) 0.0396(7) 0.9060(6)
H6_2 H 0.391374 0.081114 0.925395
C9_2 C 0.2325(6) 0.0540(7) 0.9434(6)
H7_2 H 0.221448 0.107063 0.987510
N2_2 N 0.0888(4) 0.1596(4) 0.6021(4)
N1_2 N 0.1596(4) 0.9112(4) 0.8521(4)
O2_2 O 0.3739(4) 0.9324(4) 0.5537(3)
O4_2 O 0.8116(3) 0.8144(4) 0.8315(3)
O7 O 0.2005(4) 0.9041(4) 0.3925(3)
H1 H 0.164974 0.927954 0.354373
H2 H 0.255424 0.910924 0.367023
C1_2 C 0.4632(5) 0.9399(6) 0.6968(5)
C2_2 C 0.5626(6) 0.9103(8) 0.6606(5)
H3_2 H 0.570920 0.907106 0.597328
C3_2 C 0.6491(6) 0.8857(8) 0.7159(5)
H4_2 H 0.714527 0.866316 0.689484
C4_2 C 0.6401(5) 0.8893(6) 0.8109(4)
C5_2 C 0.5412(5) 0.9185(6) 0.8489(5)
H5_2 H 0.533892 0.922128 0.912237
C6_2 C 0.4521(5) 0.9426(5) 0.7926(6)
C7_2 C 0.3461(5) 0.9616(6) 0.8385(5)
C10_2 C 0.1465(5) 0.9888(5) 0.9152(5)
C11_2 C 0.2576(5) 0.8983(5) 0.8151(4)
H8_2 H 0.266951 0.844392 0.771503
C12_2 C 0.3747(5) 0.9698(6) 0.6324(5)
C13_2 C 0.7334(5) 0.8601(5) 0.8697(5)
C14_2 C 0.0356(5) 0.9998(5) 0.9519(4)
Tb4 Tb 0.98908(2) 0.82012(2) 0.78858(5)
O9_2 O 0.1856(4) 0.8116(3) 0.5815(3)
O12_2 O 0.0680(4) 0.9664(3) 0.6760(3)
O5_2 O 0.0740(4) 0.9889(4) 0.2563(4)
C8_3 C 0.0396(7) 0.6668(6) 0.1560(6)
H6_3 H 0.081114 0.608626 0.175395
C9_3 C 0.0540(7) 0.7675(6) 0.1934(6)
H7_3 H 0.107063 0.778552 0.237510
O1_3 O 0.0329(4) 0.7008(4) 0.9092(4)
O8_2 O 0.1197(4) 0.7279(3) 0.7048(3)
O10_2 O 0.9260(4) 0.0111(4) 0.7563(4)
O3_2 O 0.8803(4) 0.2721(3) 0.2048(3)
C4_3 C 0.8893(6) 0.3599(5) 0.0609(4)
C5_3 C 0.9185(6) 0.4588(5) 0.0989(5)
H5_3 H 0.922128 0.466108 0.162237
C6_3 C 0.9426(5) 0.5479(5) 0.0426(6)
C7_3 C 0.9616(6) 0.6539(5) 0.0885(5)
C10_3 C 0.9888(5) 0.8535(5) 0.1652(5)
C11_3 C 0.8983(5) 0.7424(5) 0.0651(4)
H8_3 H 0.844392 0.733049 0.021503
C13_3 C 0.8601(5) 0.2666(5) 0.1197(5)
C14_3 C 0.9998(5) 0.9644(5) 0.2019(4)
O2_3 O 0.9324(4) 0.6261(4) 0.8037(3)
O7_2 O 0.9041(4) 0.7995(4) 0.6425(3)
H1_2 H 0.927954 0.835026 0.604373
H2_2 H 0.910924 0.744576 0.617023
C1_3 C 0.9399(6) 0.5368(5) 0.9468(5)
C2_3 C 0.9103(8) 0.4374(6) 0.9106(5)
H3_3 H 0.907106 0.429080 0.847328
C3_3 C 0.8857(8) 0.3509(6) 0.9659(5)
H4_3 H 0.866316 0.285473 0.939484
C12_3 C 0.9698(6) 0.6253(5) 0.8824(5)
O2_4 O 0.0676(4) 0.3739(4) 0.3037(3)
O7_3 O 0.0959(4) 0.2005(4) 0.1425(3)
H1_3 H 0.072046 0.164974 0.104373
H2_3 H 0.089076 0.255424 0.117023
C1_4 C 0.0601(6) 0.4632(5) 0.4468(5)
C2_4 C 0.0897(8) 0.5626(6) 0.4106(5)
H3_4 H 0.092894 0.570920 0.347328
C3_4 C 0.1143(8) 0.6491(6) 0.4659(5)
H4_4 H 0.133684 0.714527 0.439484
C4_4 C 0.1107(6) 0.6401(5) 0.5609(4)
C5_4 C 0.0815(6) 0.5412(5) 0.5989(5)
H5_4 H 0.077872 0.533892 0.662237
C6_4 C 0.0574(5) 0.4521(5) 0.5426(6)
C7_4 C 0.0384(6) 0.3461(5) 0.5885(5)
C10_4 C 0.0112(5) 0.1465(5) 0.6652(5)
C11_4 C 0.1017(5) 0.2576(5) 0.5651(4)
H8_4 H 0.155608 0.266951 0.521503
C12_4 C 0.0302(6) 0.3747(5) 0.3824(5)
C13_4 C 0.1399(5) 0.7334(5) 0.6197(5)
C14_4 C 0.0002(5) 0.0356(5) 0.7019(4)
O1_4 O 0.9671(4) 0.2992(4) 0.4092(4)
C8_4 C 0.9604(7) 0.3332(6) 0.6560(6)
H6_4 H 0.918886 0.391374 0.675395
C9_4 C 0.9460(7) 0.2325(6) 0.6934(6)
H7_4 H 0.892937 0.221448 0.737510
O7_4 O 0.7995(4) 0.0959(4) 0.8925(3)
H1_4 H 0.835026 0.072046 0.854373
H2_4 H 0.744576 0.089076 0.867023
loop_
_geom_bond_atom_site_label_1
_geom_bond_atom_site_label_2
_geom_bond_site_symmetry_1
_geom_bond_site_symmetry_2
O6 Tb5 1_555 1_555
N1 C10 1_555 1_555
O2 Tb1 1_555 1_555
O3 C13 1_555 1_555
O4 C13 1_555 1_555
C1 C2 1_555 1_555
C2 H3 1_555 1_555
C3 C2 1_555 1_555
H4 C3 1_555 1_555
C4 C3 1_555 1_555
C5 C4 1_555 1_555
H5 C5 1_555 1_555
C6 C1 1_555 1_555
C7 C6 1_555 1_555
C11 N1 1_555 1_555
H8 C11 1_555 1_555
C12 O2 1_555 1_555
C13 C4 1_555 1_555
C14 C10 1_555 1_555
Tb5 O4 1_555 1_555
O9 Tb1 1_555 1_555
O12 Tb1 1_555 1_555
C1 C12 1_555 1_555
C5 C6 1_555 1_555
C7 C11 1_555 1_555
H6 C8 1_555 1_555
C9 C8 1_555 1_555
H7 C9 1_555 1_555
H6_2 C8_2 1_555 1_555
C9_2 C8_2 1_555 1_555
H7_2 C9_2 1_555 1_555
N1_2 C10_2 1_555 1_555
O2_2 Tb3 1_555 1_555
O8 C13_2 1_555 1_555
O4_2 C13_2 1_555 1_555
O7 Tb3 1_555 1_555
H1 O7 1_555 1_555
H2 O7 1_555 1_555
C1_2 C2_2 1_555 1_555
C2_2 H3_2 1_555 1_555
C3_2 C2_2 1_555 1_555
H4_2 C3_2 1_555 1_555
C4_2 C3_2 1_555 1_555
C5_2 C4_2 1_555 1_555
H5_2 C5_2 1_555 1_555
C6_2 C1_2 1_555 1_555
C7_2 C6_2 1_555 1_555
C11_2 N1_2 1_555 1_555
H8_2 C11_2 1_555 1_555
C12_2 O2_2 1_555 1_555
C13_2 C4_2 1_555 1_555
C14_2 C10_2 1_555 1_555
Tb4 O4_2 1_555 1_555
O9_2 Tb3 1_555 1_555
O12_2 Tb3 1_555 1_555
C1_2 C12_2 1_555 1_555
C5_2 C6_2 1_555 1_555
C7_2 C11_2 1_555 1_555
O11 Tb4 1_555 1_555
H6_3 C8_3 1_555 1_555
C9_3 C8_3 1_555 1_555
H7_3 C9_3 1_555 1_555
N2 C10_3 1_555 1_555
O3_2 C13_3 1_555 1_555
O9 C13_3 1_555 1_555
C5_3 C4_3 1_555 1_555
H5_3 C5_3 1_555 1_555
C7_3 C6_3 1_555 1_555
C11_3 N2 1_555 1_555
H8_3 C11_3 1_555 1_555
C13_3 C4_3 1_555 1_555
C14_3 C10_3 1_555 1_555
C5_3 C6_3 1_555 1_555
C7_3 C11_3 1_555 1_555
O2_3 Tb4 1_555 1_555
O7_2 Tb4 1_555 1_555
H1_2 O7_2 1_555 1_555
H2_2 O7_2 1_555 1_555
C1_3 C2_3 1_555 1_555
C2_3 H3_3 1_555 1_555
C3_3 C2_3 1_555 1_555
H4_3 C3_3 1_555 1_555
C12_3 O2_3 1_555 1_555
C1_3 C12_3 1_555 1_555
N2_2 C10_4 1_555 1_555
O2_4 Tb5 1_555 1_555
O8_2 C13_4 1_555 1_555
O9_2 C13_4 1_555 1_555
O7_3 Tb5 1_555 1_555
H1_3 O7_3 1_555 1_555
H2_3 O7_3 1_555 1_555
C1_4 C2_4 1_555 1_555
C2_4 H3_4 1_555 1_555
C3_4 C2_4 1_555 1_555
H4_4 C3_4 1_555 1_555
C4_4 C3_4 1_555 1_555
C5_4 C4_4 1_555 1_555
H5_4 C5_4 1_555 1_555
C6_4 C1_4 1_555 1_555
C7_4 C6_4 1_555 1_555
C11_4 N2_2 1_555 1_555
H8_4 C11_4 1_555 1_555
C12_4 O2_4 1_555 1_555
C13_4 C4_4 1_555 1_555
C14_4 C10_4 1_555 1_555
C1_4 C12_4 1_555 1_555
C5_4 C6_4 1_555 1_555
C7_4 C11_4 1_555 1_555
H6_4 C8_4 1_555 1_555
C9_4 C8_4 1_555 1_555
H7_4 C9_4 1_555 1_555
H1_4 O7_4 1_555 1_555
H2_4 O7_4 1_555 1_555

#END
