
###############################################################################
#
# This file contains modified crystal structure data generated from the
# MOF subset of the Cambridge Structural Database (CSD) v543 
# hosted by the Cambridge Crystallographic Data Centre (CCDC).
#
# This work is licensed under the Creative Commons
# Attribution-NonCommercial-ShareAlike 4.0 International License.
# To view a copy of this license, visit
# http://creativecommons.org/licenses/by-nc-sa/4.0/
# or send a letter to
# Creative Commons, PO Box 1866, Mountain View, CA 94042, USA.
#
# CIF created using the CSD Python API on 29 September 2022
# The structure has been converted into the P1 space group
# The structure has a 3D framework
# The original CSD entry ALURAD is in the tetragonal crystal system
# The original CSD entry ALURAD is in a Sohncke space group
# The framework has been calculated to contain at least 10.0% void space
# The void calculation uses a probe of radius 1.32A, grid spacing 0.4
#
###############################################################################

data_ALURAD
_chemical_formula_moiety         '(C56 H32 Eu4 N4 O27)n'
_symmetry_cell_setting           triclinic
_symmetry_space_group_name_H-M   'P 1'
_symmetry_Int_Tables_number      1
_space_group_name_Hall           'P 1'
loop_
_symmetry_equiv_pos_site_id
_symmetry_equiv_pos_as_xyz
1 x,y,z
_cell_length_a                   12.35620(10)
_cell_length_b                   12.35620(10)
_cell_length_c                   14.7154(2)
_cell_angle_alpha                90
_cell_angle_beta                 90
_cell_angle_gamma                90
_cell_volume                     2246.68
loop_
_atom_site_label
_atom_site_type_symbol
_atom_site_fract_x
_atom_site_fract_y
_atom_site_fract_z
Eu1 Eu 0.31919(3) 0.50954(3) 0.17020(5)
N1 N 0.3385(5) 0.5856(6) 0.4823(5)
O1 O 0.1228(5) 0.5636(5) 0.1864(4)
O2 O 0.1980(4) 0.4615(5) 0.2915(4)
O5 O 0.4882(5) 0.4233(5) 0.6368(4)
O6 O 0.5326(4) 0.5665(4) 0.5574(4)
O7 O 0.2957(5) 0.5943(5) 0.0229(4)
H2 H 0.247202 0.630093 0.000531
C1 C 0.0338(7) 0.5564(8) 0.3302(6)
C6 C 0.0458(6) 0.5534(7) 0.4248(7)
C7 C 0.1516(6) 0.5337(8) 0.4685(6)
C8 C 0.1651(7) 0.4551(9) 0.5369(7)
H6 H 0.107224 0.413054 0.556454
C9 C 0.2686(8) 0.4423(9) 0.5745(7)
H7 H 0.280594 0.389740 0.618639
C10 C 0.3528(7) 0.5077(6) 0.5462(6)
C11 C 0.2409(7) 0.5959(7) 0.4458(5)
H8 H 0.231776 0.648880 0.401520
C12 C 0.1234(7) 0.5256(7) 0.2657(6)
C14 C 0.4642(6) 0.4976(7) 0.5834(5)
Eu3 Eu 0.68081(3) 0.49046(3) 0.67020(5)
Eu5 Eu 0.50954(3) 0.68081(3) 0.42020(5)
N2 N 0.4144(6) 0.3385(5) 0.2323(5)
O8 O 0.3095(5) 0.6886(4) 0.2145(4)
O9 O 0.2270(4) 0.3756(4) 0.0869(4)
O10 O 0.5118(5) 0.5767(5) 0.1368(4)
O11 O 0.4674(4) 0.4335(4) 0.0574(4)
O12 O 0.4335(4) 0.5326(4) 0.3074(4)
O3 O 0.6886(4) 0.6905(5) 0.4645(4)
O4 O 0.7730(4) 0.6244(4) 0.5869(4)
C2 C 0.9359(7) 0.5873(10) 0.2939(6)
H3 H 0.928035 0.589949 0.231070
C3 C 0.8492(7) 0.6146(9) 0.3484(7)
H4 H 0.783918 0.635654 0.322450
C4 C 0.8602(6) 0.6105(7) 0.4420(6)
C5 C 0.9578(6) 0.5786(7) 0.4798(6)
H5 H 0.964554 0.573934 0.542597
C13 C 0.7670(6) 0.6431(7) 0.5021(6)
H5_2 H 0.035446 0.426066 0.042597
C13_2 C 0.2330(6) 0.3569(7) 0.0021(6)
O3_2 O 0.3114(4) 0.3095(5) 0.9645(4)
C2_2 C 0.0641(7) 0.4127(10) 0.7939(6)
H3_2 H 0.071965 0.410051 0.731070
C3_2 C 0.1508(7) 0.3854(9) 0.8484(7)
H4_2 H 0.216082 0.364346 0.822450
C4_2 C 0.1398(6) 0.3895(7) 0.9420(6)
C5_2 C 0.0422(6) 0.4214(7) 0.9798(6)
Eu4 Eu 0.49046(3) 0.31919(3) 0.92020(5)
C8_2 C 0.8349(7) 0.5449(9) 0.0369(7)
H6_2 H 0.892776 0.586946 0.056454
C9_2 C 0.7314(8) 0.5577(9) 0.0745(7)
H7_2 H 0.719406 0.610260 0.118639
C10_2 C 0.6472(7) 0.4923(6) 0.0462(6)
C14_2 C 0.5358(6) 0.5024(7) 0.0834(5)
N1_2 N 0.6615(5) 0.4144(6) 0.9823(5)
O1_2 O 0.8772(5) 0.4364(5) 0.6864(4)
O2_2 O 0.8020(4) 0.5385(5) 0.7915(4)
O7_2 O 0.7043(5) 0.4057(5) 0.5229(4)
H1 H 0.664658 0.431417 0.480901
H2_2 H 0.752798 0.369907 0.500531
C1_2 C 0.9662(7) 0.4436(8) 0.8302(6)
C6_2 C 0.9542(6) 0.4466(7) 0.9248(7)
C7_2 C 0.8484(6) 0.4663(8) 0.9685(6)
C11_2 C 0.7591(7) 0.4041(7) 0.9458(5)
H8_2 H 0.768224 0.351120 0.901520
C12_2 C 0.8766(7) 0.4744(7) 0.7657(6)
N2_2 N 0.5856(6) 0.6615(5) 0.7323(5)
O8_2 O 0.6905(5) 0.3114(4) 0.7145(4)
O12_2 O 0.5665(4) 0.4674(4) 0.8074(4)
O2_3 O 0.5385(5) 0.1980(4) 0.0415(4)
O5_2 O 0.5767(5) 0.4882(5) 0.3868(4)
C1_3 C 0.4436(8) 0.0338(7) 0.0802(6)
C6_3 C 0.4466(7) 0.0458(6) 0.1748(7)
C7_3 C 0.4663(8) 0.1516(6) 0.2185(6)
C8_3 C 0.5449(9) 0.1651(7) 0.2869(7)
H6_3 H 0.586946 0.107224 0.306454
C9_3 C 0.5577(9) 0.2686(8) 0.3245(7)
H7_3 H 0.610260 0.280594 0.368639
C10_3 C 0.4923(6) 0.3528(7) 0.2962(6)
C11_3 C 0.4041(7) 0.2409(7) 0.1958(5)
H8_3 H 0.351120 0.231776 0.151520
C12_3 C 0.4744(7) 0.1234(7) 0.0157(6)
C14_3 C 0.5024(7) 0.4642(6) 0.3334(5)
O1_3 O 0.4364(5) 0.1228(5) 0.9364(4)
O7_3 O 0.4057(5) 0.2957(5) 0.7729(4)
H1_2 H 0.431417 0.335342 0.730901
H2_3 H 0.369907 0.247202 0.750531
O9_2 O 0.6244(4) 0.2270(4) 0.8369(4)
O10_2 O 0.4233(5) 0.5118(5) 0.8868(4)
O4_2 O 0.3756(4) 0.7730(4) 0.3369(4)
C2_3 C 0.4127(10) 0.9359(7) 0.0439(6)
C3_3 C 0.3854(9) 0.8492(7) 0.0984(7)
H4_3 H 0.364346 0.783918 0.072450
C4_3 C 0.3895(7) 0.8602(6) 0.1920(6)
C5_3 C 0.4214(7) 0.9578(6) 0.2298(6)
H5_3 H 0.426066 0.964554 0.292597
C13_3 C 0.3569(7) 0.7670(6) 0.2521(6)
C2_4 C 0.5873(10) 0.0641(7) 0.5439(6)
H3_3 H 0.589949 0.071965 0.481070
C3_4 C 0.6146(9) 0.1508(7) 0.5984(7)
H4_4 H 0.635654 0.216082 0.572450
C4_4 C 0.6105(7) 0.1398(6) 0.6920(6)
C5_4 C 0.5786(7) 0.0422(6) 0.7298(6)
H5_4 H 0.573934 0.035446 0.792597
C13_4 C 0.6431(7) 0.2330(6) 0.7521(6)
O1_4 O 0.5636(5) 0.8772(5) 0.4364(4)
O2_4 O 0.4615(5) 0.8020(4) 0.5415(4)
O7_4 O 0.5943(5) 0.7043(5) 0.2729(4)
H1_3 H 0.568583 0.664658 0.230901
H2_4 H 0.630093 0.752798 0.250531
C1_4 C 0.5564(8) 0.9662(7) 0.5802(6)
C6_4 C 0.5534(7) 0.9542(6) 0.6748(7)
C7_4 C 0.5337(8) 0.8484(6) 0.7185(6)
C8_4 C 0.4551(9) 0.8349(7) 0.7869(7)
H6_4 H 0.413054 0.892776 0.806454
C9_4 C 0.4423(9) 0.7314(8) 0.8245(7)
H7_4 H 0.389740 0.719406 0.868639
C10_4 C 0.5077(6) 0.6472(7) 0.7962(6)
C11_4 C 0.5959(7) 0.7591(7) 0.6958(5)
H8_4 H 0.648880 0.768224 0.651520
C12_4 C 0.5256(7) 0.8766(7) 0.5157(6)
C14_4 C 0.4976(7) 0.5358(6) 0.8334(5)
H1_4 H 0.335342 0.568583 0.980901
H3_4 H 0.410051 0.928035 0.981070
loop_
_geom_bond_atom_site_label_1
_geom_bond_atom_site_label_2
_geom_bond_site_symmetry_1
_geom_bond_site_symmetry_2
Eu1 O1 1_555 1_555
N1 C10 1_555 1_555
O1 C12 1_555 1_555
O2 Eu1 1_555 1_555
O5 C14 1_555 1_555
O6 C14 1_555 1_555
O7 Eu1 1_555 1_555
H2 O7 1_555 1_555
C6 C1 1_555 1_555
C7 C6 1_555 1_555
C8 C7 1_555 1_555
H6 C8 1_555 1_555
C9 C8 1_555 1_555
H7 C9 1_555 1_555
C10 C9 1_555 1_555
C11 N1 1_555 1_555
H8 C11 1_555 1_555
C12 O2 1_555 1_555
C14 C10 1_555 1_555
Eu3 O5 1_555 1_555
Eu5 N1 1_555 1_555
N2 Eu1 1_555 1_555
O8 Eu1 1_555 1_555
O9 Eu1 1_555 1_555
O10 Eu1 1_555 1_555
O11 Eu1 1_555 1_555
O12 Eu1 1_555 1_555
O6 Eu3 1_555 1_555
O6 Eu5 1_555 1_555
C1 C12 1_555 1_555
C7 C11 1_555 1_555
Eu5 O12 1_555 1_555
O3 C13 1_555 1_555
O4 C13 1_555 1_555
C2 H3 1_555 1_555
C3 C2 1_555 1_555
H4 C3 1_555 1_555
C4 C3 1_555 1_555
C5 C4 1_555 1_555
H5 C5 1_555 1_555
C13 C4 1_555 1_555
Eu3 O4 1_555 1_555
Eu5 O3 1_555 1_555
O9 C13_2 1_555 1_555
C2_2 H3_2 1_555 1_555
C3_2 C2_2 1_555 1_555
H4_2 C3_2 1_555 1_555
C4_2 C3_2 1_555 1_555
C5_2 C4_2 1_555 1_555
Eu4 O3_2 1_555 1_555
O10 C14_2 1_555 1_555
O11 C14_2 1_555 1_555
H6_2 C8_2 1_555 1_555
C9_2 C8_2 1_555 1_555
H7_2 C9_2 1_555 1_555
C10_2 C9_2 1_555 1_555
C14_2 C10_2 1_555 1_555
Eu3 O1_2 1_555 1_555
O1_2 C12_2 1_555 1_555
O2_2 Eu3 1_555 1_555
O7_2 Eu3 1_555 1_555
H1 O7_2 1_555 1_555
H2_2 O7_2 1_555 1_555
C6_2 C1_2 1_555 1_555
C7_2 C6_2 1_555 1_555
C11_2 N1_2 1_555 1_555
H8_2 C11_2 1_555 1_555
C12_2 O2_2 1_555 1_555
Eu4 N1_2 1_555 1_555
N2_2 Eu3 1_555 1_555
O8_2 Eu3 1_555 1_555
O12_2 Eu3 1_555 1_555
C1_2 C12_2 1_555 1_555
C7_2 C11_2 1_555 1_555
Eu4 O12_2 1_555 1_555
N2 C10_3 1_555 1_555
O5_2 C14_3 1_555 1_555
O12 C14_3 1_555 1_555
C6_3 C1_3 1_555 1_555
C7_3 C6_3 1_555 1_555
C8_3 C7_3 1_555 1_555
H6_3 C8_3 1_555 1_555
C9_3 C8_3 1_555 1_555
H7_3 C9_3 1_555 1_555
C10_3 C9_3 1_555 1_555
C11_3 N2 1_555 1_555
H8_3 C11_3 1_555 1_555
C12_3 O2_3 1_555 1_555
C14_3 C10_3 1_555 1_555
Eu5 O5_2 1_555 1_555
C1_3 C12_3 1_555 1_555
C7_3 C11_3 1_555 1_555
Eu4 O1_3 1_555 1_555
O7_3 Eu4 1_555 1_555
H1_2 O7_3 1_555 1_555
H2_3 O7_3 1_555 1_555
O9_2 Eu4 1_555 1_555
O10_2 Eu4 1_555 1_555
O8 C13_3 1_555 1_555
O4_2 C13_3 1_555 1_555
C3_3 C2_3 1_555 1_555
H4_3 C3_3 1_555 1_555
C4_3 C3_3 1_555 1_555
C5_3 C4_3 1_555 1_555
H5_3 C5_3 1_555 1_555
C13_3 C4_3 1_555 1_555
Eu5 O4_2 1_555 1_555
O8_2 C13_4 1_555 1_555
O9_2 C13_4 1_555 1_555
C2_4 H3_3 1_555 1_555
C3_4 C2_4 1_555 1_555
H4_4 C3_4 1_555 1_555
C4_4 C3_4 1_555 1_555
C5_4 C4_4 1_555 1_555
H5_4 C5_4 1_555 1_555
C13_4 C4_4 1_555 1_555
Eu5 O1_4 1_555 1_555
N2_2 C10_4 1_555 1_555
O1_4 C12_4 1_555 1_555
O2_4 Eu5 1_555 1_555
O10_2 C14_4 1_555 1_555
O12_2 C14_4 1_555 1_555
O7_4 Eu5 1_555 1_555
H1_3 O7_4 1_555 1_555
H2_4 O7_4 1_555 1_555
C6_4 C1_4 1_555 1_555
C7_4 C6_4 1_555 1_555
C8_4 C7_4 1_555 1_555
H6_4 C8_4 1_555 1_555
C9_4 C8_4 1_555 1_555
H7_4 C9_4 1_555 1_555
C10_4 C9_4 1_555 1_555
C11_4 N2_2 1_555 1_555
H8_4 C11_4 1_555 1_555
C12_4 O2_4 1_555 1_555
C14_4 C10_4 1_555 1_555
C1_4 C12_4 1_555 1_555
C7_4 C11_4 1_555 1_555

#END
