
###############################################################################
#
# This file contains modified crystal structure data generated from the
# MOF subset of the Cambridge Structural Database (CSD) v543 
# hosted by the Cambridge Crystallographic Data Centre (CCDC).
#
# This work is licensed under the Creative Commons
# Attribution-NonCommercial-ShareAlike 4.0 International License.
# To view a copy of this license, visit
# http://creativecommons.org/licenses/by-nc-sa/4.0/
# or send a letter to
# Creative Commons, PO Box 1866, Mountain View, CA 94042, USA.
#
# CIF created using the CSD Python API on 29 September 2022
# The structure has been converted into the P1 space group
# The structure has a 3D framework
# The original CSD entry ALUREH is in the tetragonal crystal system
# The original CSD entry ALUREH is in a Sohncke space group
# The framework has been calculated to contain at least 10.0% void space
# The void calculation uses a probe of radius 1.32A, grid spacing 0.4
#
###############################################################################

data_ALUREH
_chemical_formula_moiety         '(C56 H32 Gd4 N4 O27)n'
_symmetry_cell_setting           triclinic
_symmetry_space_group_name_H-M   'P 1'
_symmetry_Int_Tables_number      1
_space_group_name_Hall           'P 1'
loop_
_symmetry_equiv_pos_site_id
_symmetry_equiv_pos_as_xyz
1 x,y,z
_cell_length_a                   12.32110(10)
_cell_length_b                   12.32110(10)
_cell_length_c                   14.6636(2)
_cell_angle_alpha                90
_cell_angle_beta                 90
_cell_angle_gamma                90
_cell_volume                     2226.07
loop_
_atom_site_label
_atom_site_type_symbol
_atom_site_fract_x
_atom_site_fract_y
_atom_site_fract_z
O2 O 0.3122(4) 0.6923(5) 0.0909(4)
C1 C 0.1407(6) 0.6106(7) 0.1129(6)
C2 C 0.1511(8) 0.6151(9) 0.2071(6)
H3 H 0.216021 0.637978 0.233092
C3 C 0.0651(8) 0.5856(10) 0.2621(6)
H4 H 0.074057 0.587133 0.325086
C6 C 0.0438(6) 0.5785(7) 0.0747(6)
H5 H 0.037185 0.574203 0.011602
C12 C 0.2329(6) 0.6444(6) 0.0523(6)
Gd2 Gd 0.49092(3) 0.68119(3) 0.13532(5)
O1 O 0.2273(4) 0.6253(4) 0.9683(4)
Gd4 Gd 0.31881(3) 0.49092(3) 0.88532(5)
N1 N 0.6620(5) 0.5855(6) 0.0725(5)
O3 O 0.8020(4) 0.4614(5) 0.2645(4)
O4 O 0.8782(5) 0.5617(5) 0.3703(4)
O7 O 0.4061(5) 0.7051(5) 0.2825(4)
H1 H 0.372509 0.760099 0.275775
H2 H 0.430659 0.668439 0.322475
C4 C 0.9666(7) 0.5540(8) 0.2268(6)
C5 C 0.9549(6) 0.5523(7) 0.1305(7)
C7 C 0.8490(6) 0.5319(8) 0.0860(6)
C8 C 0.8351(7) 0.4530(9) 0.0188(7)
C10 C 0.6482(7) 0.5051(6) 0.0092(6)
C11 C 0.7594(6) 0.5961(7) 0.1084(5)
H8 H 0.769317 0.650285 0.151751
C13 C 0.8770(7) 0.5250(7) 0.2903(6)
Gd5 Gd 0.68119(3) 0.50908(3) 0.38532(5)
O8 O 0.6253(4) 0.7727(4) 0.2183(4)
O10 O 0.5386(5) 0.8020(4) 0.0145(4)
O11 O 0.4383(5) 0.8782(5) 0.1203(4)
O12 O 0.4222(5) 0.4897(5) 0.1683(4)
O13 O 0.5672(4) 0.5336(4) 0.2479(4)
O5 O 0.5103(5) 0.4222(5) 0.9183(4)
O6 O 0.4664(4) 0.5672(4) 0.9979(4)
H6 H 0.893087 0.410557 0.999286
C9 C 0.7309(7) 0.4396(8) 0.9815(7)
H7 H 0.718470 0.386051 0.937979
C14 C 0.5347(6) 0.4968(7) 0.9726(5)
Gd1 Gd 0.50908(3) 0.31881(3) 0.63532(5)
N1_2 N 0.3380(5) 0.4145(6) 0.5725(5)
O3_2 O 0.1980(4) 0.5386(5) 0.7645(4)
O4_2 O 0.1218(5) 0.4383(5) 0.8703(4)
O5_2 O 0.4897(5) 0.5778(5) 0.4183(4)
O6_2 O 0.5336(4) 0.4328(4) 0.4979(4)
O7_2 O 0.5939(5) 0.2949(5) 0.7825(4)
H1_2 H 0.627491 0.239901 0.775775
H2_2 H 0.569341 0.331561 0.822475
C4_2 C 0.0334(7) 0.4460(8) 0.7268(6)
C5_2 C 0.0451(6) 0.4477(7) 0.6305(7)
C7_2 C 0.1510(6) 0.4681(8) 0.5860(6)
C8_2 C 0.1649(7) 0.5470(9) 0.5188(7)
H6_2 H 0.106913 0.589443 0.499286
C9_2 C 0.2691(7) 0.5604(8) 0.4815(7)
H7_2 H 0.281530 0.613949 0.437979
C10_2 C 0.3518(7) 0.4949(6) 0.5092(6)
C11_2 C 0.2406(6) 0.4039(7) 0.6084(5)
H8_2 H 0.230683 0.349715 0.651751
C13_2 C 0.1230(7) 0.4750(7) 0.7903(6)
C14_2 C 0.4653(6) 0.5032(7) 0.4726(5)
O8_2 O 0.3747(4) 0.2273(4) 0.7183(4)
O9 O 0.6878(4) 0.3077(5) 0.5909(4)
O10_2 O 0.4614(5) 0.1980(4) 0.5145(4)
O11_2 O 0.5617(5) 0.1218(5) 0.6203(4)
O12_2 O 0.5778(5) 0.5103(5) 0.6683(4)
O13_2 O 0.4328(4) 0.4664(4) 0.7479(4)
O1_2 O 0.7727(4) 0.3747(4) 0.4683(4)
C1_2 C 0.8593(6) 0.3894(7) 0.6129(6)
C2_2 C 0.8489(8) 0.3849(9) 0.7071(6)
H3_2 H 0.783979 0.362022 0.733092
C3_2 C 0.9349(8) 0.4144(10) 0.7621(6)
H4_2 H 0.925943 0.412867 0.825086
C6_2 C 0.9562(6) 0.4215(7) 0.5747(6)
H5_2 H 0.962815 0.425797 0.511602
C12_2 C 0.7671(6) 0.3556(6) 0.5523(6)
O2_2 O 0.3077(5) 0.3122(4) 0.8409(4)
C1_3 C 0.3894(7) 0.1407(6) 0.8629(6)
C2_3 C 0.3849(9) 0.1511(8) 0.9571(6)
H3_3 H 0.362022 0.216021 0.983092
C6_3 C 0.4215(7) 0.0438(6) 0.8247(6)
H5_3 H 0.425797 0.037185 0.761602
C12_3 C 0.3556(6) 0.2329(6) 0.8023(6)
O7_3 O 0.2949(5) 0.4061(5) 0.0325(4)
H1_3 H 0.239901 0.372509 0.025775
H2_3 H 0.331561 0.430659 0.072475
C13_3 C 0.4750(7) 0.8770(7) 0.0403(6)
N1_3 N 0.4145(6) 0.6620(5) 0.8225(5)
C4_3 C 0.4460(8) 0.9666(7) 0.9768(6)
C5_3 C 0.4477(7) 0.9549(6) 0.8805(7)
C7_3 C 0.4681(8) 0.8490(6) 0.8360(6)
C8_3 C 0.5470(9) 0.8351(7) 0.7688(7)
H6_3 H 0.589443 0.893087 0.749286
C9_3 C 0.5604(8) 0.7309(7) 0.7315(7)
H7_3 H 0.613949 0.718470 0.687979
C10_3 C 0.4949(6) 0.6482(7) 0.7592(6)
C11_3 C 0.4039(7) 0.7594(6) 0.8584(5)
H8_3 H 0.349715 0.769317 0.901751
C14_3 C 0.5032(7) 0.5347(6) 0.7226(5)
N1_4 N 0.5855(6) 0.3380(5) 0.3225(5)
O7_4 O 0.7051(5) 0.5939(5) 0.5325(4)
H1_4 H 0.760099 0.627491 0.525775
H2_4 H 0.668439 0.569341 0.572475
C4_4 C 0.5540(8) 0.0334(7) 0.4768(6)
C5_4 C 0.5523(7) 0.0451(6) 0.3805(7)
C7_4 C 0.5319(8) 0.1510(6) 0.3360(6)
C8_4 C 0.4530(9) 0.1649(7) 0.2688(7)
H6_4 H 0.410557 0.106913 0.249286
C9_4 C 0.4396(8) 0.2691(7) 0.2315(7)
H7_4 H 0.386051 0.281530 0.187979
C10_4 C 0.5051(6) 0.3518(7) 0.2592(6)
C11_4 C 0.5961(7) 0.2406(6) 0.3584(5)
H8_4 H 0.650285 0.230683 0.401751
C13_4 C 0.5250(7) 0.1230(7) 0.5403(6)
C14_4 C 0.4968(7) 0.4653(6) 0.2226(5)
O9_2 O 0.6923(5) 0.6878(4) 0.3409(4)
C1_4 C 0.6106(7) 0.8593(6) 0.3629(6)
C2_4 C 0.6151(9) 0.8489(8) 0.4571(6)
H3_4 H 0.637978 0.783979 0.483092
C3_3 C 0.5856(10) 0.9349(8) 0.5121(6)
H4_3 H 0.587133 0.925943 0.575086
C6_4 C 0.5785(7) 0.9562(6) 0.3247(6)
H5_4 H 0.574203 0.962815 0.261602
C12_4 C 0.6444(6) 0.7671(6) 0.3023(6)
C3_4 C 0.4144(10) 0.0651(8) 0.0121(6)
H4_4 H 0.412867 0.074057 0.075086
loop_
_geom_bond_atom_site_label_1
_geom_bond_atom_site_label_2
_geom_bond_site_symmetry_1
_geom_bond_site_symmetry_2
O2 C12 1_555 1_555
C1 C2 1_555 1_555
C2 H3 1_555 1_555
C3 C2 1_555 1_555
H4 C3 1_555 1_555
C6 C1 1_555 1_555
H5 C6 1_555 1_555
C12 C1 1_555 1_555
Gd2 O2 1_555 1_555
Gd4 O1 1_555 1_555
Gd2 N1 1_555 1_555
N1 C10 1_555 1_555
O3 C13 1_555 1_555
O4 C13 1_555 1_555
O7 Gd2 1_555 1_555
H1 O7 1_555 1_555
H2 O7 1_555 1_555
C5 C4 1_555 1_555
C7 C5 1_555 1_555
C8 C7 1_555 1_555
C11 N1 1_555 1_555
H8 C11 1_555 1_555
C13 C4 1_555 1_555
Gd5 O3 1_555 1_555
O8 Gd2 1_555 1_555
O10 Gd2 1_555 1_555
O11 Gd2 1_555 1_555
O12 Gd2 1_555 1_555
O13 Gd2 1_555 1_555
O4 Gd5 1_555 1_555
C7 C11 1_555 1_555
Gd5 O13 1_555 1_555
O5 C14 1_555 1_555
H7 C9 1_555 1_555
C14 O6 1_555 1_555
Gd4 O5 1_555 1_555
O6 Gd4 1_555 1_555
Gd1 N1_2 1_555 1_555
N1_2 C10_2 1_555 1_555
O3_2 C13_2 1_555 1_555
O4_2 C13_2 1_555 1_555
O5_2 C14_2 1_555 1_555
O6_2 Gd1 1_555 1_555
O7_2 Gd1 1_555 1_555
H1_2 O7_2 1_555 1_555
H2_2 O7_2 1_555 1_555
C5_2 C4_2 1_555 1_555
C7_2 C5_2 1_555 1_555
C8_2 C7_2 1_555 1_555
H6_2 C8_2 1_555 1_555
C9_2 C8_2 1_555 1_555
H7_2 C9_2 1_555 1_555
C10_2 C9_2 1_555 1_555
C11_2 N1_2 1_555 1_555
H8_2 C11_2 1_555 1_555
C13_2 C4_2 1_555 1_555
C14_2 O6_2 1_555 1_555
Gd5 O5_2 1_555 1_555
Gd4 O3_2 1_555 1_555
O8_2 Gd1 1_555 1_555
O9 Gd1 1_555 1_555
O10_2 Gd1 1_555 1_555
O11_2 Gd1 1_555 1_555
O12_2 Gd1 1_555 1_555
O13_2 Gd1 1_555 1_555
O4_2 Gd4 1_555 1_555
O6_2 Gd5 1_555 1_555
C7_2 C11_2 1_555 1_555
C10_2 C14_2 1_555 1_555
Gd4 O13_2 1_555 1_555
O1_2 C12_2 1_555 1_555
O9 C12_2 1_555 1_555
C1_2 C2_2 1_555 1_555
C2_2 H3_2 1_555 1_555
C3_2 C2_2 1_555 1_555
H4_2 C3_2 1_555 1_555
C6_2 C1_2 1_555 1_555
H5_2 C6_2 1_555 1_555
C12_2 C1_2 1_555 1_555
Gd5 O1_2 1_555 1_555
O8_2 C12_3 1_555 1_555
O2_2 C12_3 1_555 1_555
C1_3 C2_3 1_555 1_555
C2_3 H3_3 1_555 1_555
C6_3 C1_3 1_555 1_555
H5_3 C6_3 1_555 1_555
C12_3 C1_3 1_555 1_555
Gd4 O2_2 1_555 1_555
O10 C13_3 1_555 1_555
O11 C13_3 1_555 1_555
H1_3 O7_3 1_555 1_555
H2_3 O7_3 1_555 1_555
Gd4 N1_3 1_555 1_555
N1_3 C10_3 1_555 1_555
O12_2 C14_3 1_555 1_555
C5_3 C4_3 1_555 1_555
C7_3 C5_3 1_555 1_555
C8_3 C7_3 1_555 1_555
H6_3 C8_3 1_555 1_555
C9_3 C8_3 1_555 1_555
H7_3 C9_3 1_555 1_555
C10_3 C9_3 1_555 1_555
C11_3 N1_3 1_555 1_555
H8_3 C11_3 1_555 1_555
C14_3 O13_2 1_555 1_555
C7_3 C11_3 1_555 1_555
C10_3 C14_3 1_555 1_555
Gd5 N1_4 1_555 1_555
N1_4 C10_4 1_555 1_555
O10_2 C13_4 1_555 1_555
O11_2 C13_4 1_555 1_555
O12 C14_4 1_555 1_555
O7_4 Gd5 1_555 1_555
H1_4 O7_4 1_555 1_555
H2_4 O7_4 1_555 1_555
C5_4 C4_4 1_555 1_555
C7_4 C5_4 1_555 1_555
C8_4 C7_4 1_555 1_555
H6_4 C8_4 1_555 1_555
C9_4 C8_4 1_555 1_555
H7_4 C9_4 1_555 1_555
C10_4 C9_4 1_555 1_555
C11_4 N1_4 1_555 1_555
H8_4 C11_4 1_555 1_555
C13_4 C4_4 1_555 1_555
C14_4 O13 1_555 1_555
O9_2 Gd5 1_555 1_555
C7_4 C11_4 1_555 1_555
C10_4 C14_4 1_555 1_555
O8 C12_4 1_555 1_555
O9_2 C12_4 1_555 1_555
C1_4 C2_4 1_555 1_555
C2_4 H3_4 1_555 1_555
C3_3 C2_4 1_555 1_555
H4_3 C3_3 1_555 1_555
C6_4 C1_4 1_555 1_555
H5_4 C6_4 1_555 1_555
C12_4 C1_4 1_555 1_555
H4_4 C3_4 1_555 1_555

#END
