
###############################################################################
#
# This file contains modified crystal structure data generated from the
# MOF subset of the Cambridge Structural Database (CSD) v543 
# hosted by the Cambridge Crystallographic Data Centre (CCDC).
#
# This work is licensed under the Creative Commons
# Attribution-NonCommercial-ShareAlike 4.0 International License.
# To view a copy of this license, visit
# http://creativecommons.org/licenses/by-nc-sa/4.0/
# or send a letter to
# Creative Commons, PO Box 1866, Mountain View, CA 94042, USA.
#
# CIF created using the CSD Python API on 29 September 2022
# The structure has been converted into the P1 space group
# The structure has a 3D framework
# The original CSD entry AMAVOC is in the orthorhombic crystal system
# The framework has been calculated to contain at least 10.0% void space
# The void calculation uses a probe of radius 1.32A, grid spacing 0.4
#
###############################################################################

data_AMAVOC
_chemical_formula_moiety         '(C92 H64 Mn2 O29)n'
_symmetry_cell_setting           triclinic
_symmetry_space_group_name_H-M   'P 1'
_symmetry_Int_Tables_number      1
_space_group_name_Hall           'P 1'
loop_
_symmetry_equiv_pos_site_id
_symmetry_equiv_pos_as_xyz
1 x,y,z
_cell_length_a                   18.780(4)
_cell_length_b                   24.303(5)
_cell_length_c                   4.7114(11)
_cell_angle_alpha                90
_cell_angle_beta                 90
_cell_angle_gamma                90
_cell_volume                     2150.33
loop_
_atom_site_label
_atom_site_type_symbol
_atom_site_fract_x
_atom_site_fract_y
_atom_site_fract_z
O3 O 0.1146(2) 0.00704(16) 0.5487(10)
C5 C 0.2258(3) 0.0735(3) 0.3849(16)
H5 H 0.2355 0.0477 0.5254
C8 C 0.2744(3) 0.1145(3) 0.324(2)
H7 H 0.3173 0.1156 0.4227
C9 C 0.1485(3) 0.1100(3) 0.0231(17)
C10 C 0.2607(3) 0.1542(2) 0.1183(17)
O4 O 0.05214(18) 0.02303(16) 0.1530(10)
C13 C 0.3130(3) 0.1998(2) 0.0608(19)
H11 H 0.3316 0.2140 0.2383
C14 C 0.1059(3) 0.03035(19) 0.3161(17)
C15 C 0.1619(3) 0.0712(2) 0.2329(14)
O7 O 0.4355(2) 0.38288(16) 0.0214(11)
Mn2 Mn 0.44788(4) 0.45617(3) 0.3093(3)
O1 O 0.4921(2) 0.39979(15) 0.6152(10)
C1 C 0.4176(3) 0.2719(2) 0.8573(16)
H2 H 0.3859 0.2854 0.9920
C2 C 0.4657(3) 0.3069(2) 0.7240(14)
C6 C 0.4672(3) 0.1943(3) 0.5904(17)
H6 H 0.4673 0.1571 0.5458
C7 C 0.4178(3) 0.2161(2) 0.7855(18)
H8 H 0.1061 0.1084 0.9212
O5 O 0.3698(2) 0.17816(16) 0.8918(12)
H10 H 0.2896 0.2296 0.9608
C16 C 0.1975(3) 0.1510(3) 0.9641(17)
H12 H 0.1883 0.1765 0.8214
C17 C 0.4652(3) 0.36759(19) 0.7889(17)
C18 C 0.5160(3) 0.2303(2) 0.4661(15)
C19 C 0.5133(3) 0.2863(2) 0.5263(15)
H13 H 0.5438 0.3103 0.4324
C20 C 0.6332(3) 0.1471(2) 0.0193(16)
C21 C 0.6638(4) 0.0947(3) 0.0101(19)
H14 H 0.6455 0.0668 0.1239
O8 O 0.5661(2) 0.21371(16) 0.2728(13)
C23 C 0.5702(4) 0.1564(2) 0.2148(17)
H15 H 0.5765 0.1360 0.3898
H16 H 0.5267 0.1440 0.1244
O9 O 0.3854(2) 0.50704(16) 0.0487(10)
O10 O 0.55214(18) 0.47697(16) 0.1530(10)
O11 O 0.44786(18) 0.52303(16) 0.6530(10)
O12 O 0.3406(2) 0.43139(16) 0.4801(11)
O2 O 0.8304(2) 0.15413(16) 0.3161(15)
H1 H 0.8621 0.1439 0.2090
C3 C 0.6603(3) 0.1874(2) 0.8527(18)
H3 H 0.6404 0.2224 0.8585
C4 C 0.7173(3) 0.1769(2) 0.6734(17)
H4 H 0.7351 0.2050 0.5592
C11 C 0.7208(3) 0.0839(2) 0.834(2)
H9 H 0.7409 0.0489 0.8299
C12 C 0.7479(3) 0.1251(2) 0.6631(16)
O6 O 0.8406(2) 0.06861(16) 0.4801(11)
C22 C 0.8107(3) 0.1129(2) 0.4807(14)
Mn4 Mn 0.94788(4) 0.04383(3) 0.3093(3)
Mn6 Mn 0.05212(4) 0.95617(3) 0.8093(3)
O3_2 O 0.8854(2) 0.99296(16) 0.0487(10)
H5_2 H 0.7645 0.9523 0.0254
O1_2 O 0.5079(2) 0.60021(15) 0.1152(10)
C1_2 C 0.5824(3) 0.7281(2) 0.3573(16)
H2_2 H 0.6141 0.7146 0.4920
C2_2 C 0.5343(3) 0.6931(2) 0.2240(14)
C5_2 C 0.7742(3) 0.9265(3) 0.8849(16)
C6_2 C 0.5328(3) 0.8057(3) 0.0904(17)
H6_2 H 0.5327 0.8429 0.0458
C7_2 C 0.5822(3) 0.7839(2) 0.2855(18)
C8_2 C 0.7256(3) 0.8855(3) 0.824(2)
H7_2 H 0.6827 0.8844 0.9227
C9_2 C 0.8515(3) 0.8900(3) 0.5231(17)
H8_2 H 0.8939 0.8916 0.4212
C10_2 C 0.7393(3) 0.8458(2) 0.6183(17)
O4_2 O 0.94786(18) 0.97697(16) 0.6530(10)
O5_2 O 0.6302(2) 0.82184(16) 0.3918(12)
C13_2 C 0.6870(3) 0.8002(2) 0.5608(19)
H10_2 H 0.7104 0.7704 0.4608
H11_2 H 0.6684 0.7860 0.7383
C14_2 C 0.8941(3) 0.96965(19) 0.8161(17)
C15_2 C 0.8381(3) 0.9288(2) 0.7329(14)
C16_2 C 0.8025(3) 0.8490(3) 0.4641(17)
H12_2 H 0.8117 0.8235 0.3214
C17_2 C 0.5348(3) 0.63241(19) 0.2889(17)
C19_2 C 0.4867(3) 0.7137(2) 0.0263(15)
O7_2 O 0.5645(2) 0.61712(16) 0.5214(11)
Mn2_2 Mn 0.55212(4) 0.54383(3) 0.8093(3)
C3_2 C 0.3397(3) 0.8126(2) 0.3527(18)
H3_2 H 0.3596 0.7776 0.3585
C4_2 C 0.2827(3) 0.8231(2) 0.1734(17)
H4_2 H 0.2649 0.7950 0.0592
C11_2 C 0.2792(3) 0.9161(2) 0.334(2)
H9_2 H 0.2591 0.9511 0.3299
C12_2 C 0.2521(3) 0.8749(2) 0.1631(16)
C18_2 C 0.4840(3) 0.7697(2) 0.9661(15)
H13_2 H 0.4562 0.6897 0.9324
C20_2 C 0.3668(3) 0.8529(2) 0.5193(16)
C21_2 C 0.3362(4) 0.9053(3) 0.5101(19)
H14_2 H 0.3545 0.9332 0.6239
O8_2 O 0.4339(2) 0.78629(16) 0.7728(13)
C23_2 C 0.4298(4) 0.8436(2) 0.7148(17)
H15_2 H 0.4235 0.8640 0.8898
H16_2 H 0.4733 0.8560 0.6244
O9_2 O 0.6146(2) 0.49296(16) 0.5487(10)
O12_2 O 0.6594(2) 0.56861(16) 0.9801(11)
O2_2 O 0.1696(2) 0.84587(16) 0.8161(15)
H1_2 H 0.1379 0.8561 0.7090
O6_2 O 0.1594(2) 0.93139(16) 0.9801(11)
C22_2 C 0.1893(3) 0.8871(2) 0.9807(14)
C18_3 C 0.0160(3) 0.2697(2) 0.4661(15)
C19_3 C 0.0133(3) 0.2137(2) 0.5263(15)
H13_3 H 0.0438 0.1897 0.4324
C20_3 C 0.1332(3) 0.3529(2) 0.0193(16)
C21_3 C 0.1638(4) 0.4053(3) 0.0101(19)
H14_3 H 0.1455 0.4332 0.1239
O8_3 O 0.0661(2) 0.28629(16) 0.2728(13)
C23_3 C 0.0702(4) 0.3436(2) 0.2148(17)
H15_3 H 0.0765 0.3640 0.3898
H16_3 H 0.0267 0.3560 0.1244
O2_3 O 0.3304(2) 0.34587(16) 0.3161(15)
H1_3 H 0.3621 0.3561 0.2090
C3_3 C 0.1603(3) 0.3126(2) 0.8527(18)
H3_3 H 0.1404 0.2776 0.8585
C4_3 C 0.2173(3) 0.3231(2) 0.6734(17)
H4_3 H 0.2351 0.2950 0.5592
C11_3 C 0.2208(3) 0.4161(2) 0.834(2)
H9_3 H 0.2409 0.4511 0.8299
C12_3 C 0.2479(3) 0.3749(2) 0.6631(16)
C22_3 C 0.3107(3) 0.3871(2) 0.4807(14)
C5_3 C 0.7258(3) 0.4265(3) 0.3849(16)
H5_3 H 0.7355 0.4523 0.5254
C8_3 C 0.7744(3) 0.3855(3) 0.324(2)
H7_3 H 0.8173 0.3844 0.4227
C9_3 C 0.6485(3) 0.3900(3) 0.0231(17)
C10_3 C 0.7607(3) 0.3458(2) 0.1183(17)
C13_3 C 0.8130(3) 0.3002(2) 0.0608(19)
H11_3 H 0.8316 0.2860 0.2383
C14_3 C 0.6059(3) 0.46965(19) 0.3161(17)
C15_3 C 0.6619(3) 0.4288(2) 0.2329(14)
O7_3 O 0.9355(2) 0.11712(16) 0.0214(11)
O1_3 O 0.9921(2) 0.10021(15) 0.6152(10)
C1_3 C 0.9176(3) 0.2281(2) 0.8573(16)
H2_3 H 0.8859 0.2146 0.9920
C2_3 C 0.9657(3) 0.1931(2) 0.7240(14)
C6_3 C 0.9672(3) 0.3057(3) 0.5904(17)
H6_3 H 0.9673 0.3429 0.5458
C7_3 C 0.9178(3) 0.2839(2) 0.7855(18)
H8_3 H 0.6061 0.3916 0.9212
O5_3 O 0.8698(2) 0.32184(16) 0.8918(12)
H10_3 H 0.7896 0.2704 0.9608
C16_3 C 0.6975(3) 0.3490(3) 0.9641(17)
H12_3 H 0.6883 0.3235 0.8214
C17_3 C 0.9652(3) 0.13241(19) 0.7889(17)
H5_4 H 0.2645 0.5477 0.0254
O1_4 O 0.0079(2) 0.89979(15) 0.1152(10)
C1_4 C 0.0824(3) 0.7719(2) 0.3573(16)
H2_4 H 0.1141 0.7854 0.4920
C2_4 C 0.0343(3) 0.8069(2) 0.2240(14)
C5_4 C 0.2742(3) 0.5735(3) 0.8849(16)
C6_4 C 0.0328(3) 0.6943(3) 0.0904(17)
H6_4 H 0.0327 0.6571 0.0458
C7_4 C 0.0822(3) 0.7161(2) 0.2855(18)
C8_4 C 0.2256(3) 0.6145(3) 0.824(2)
H7_4 H 0.1827 0.6156 0.9227
C9_4 C 0.3515(3) 0.6100(3) 0.5231(17)
H8_4 H 0.3939 0.6084 0.4212
C10_4 C 0.2393(3) 0.6542(2) 0.6183(17)
O5_4 O 0.1302(2) 0.67816(16) 0.3918(12)
C13_4 C 0.1870(3) 0.6998(2) 0.5608(19)
H10_4 H 0.2104 0.7296 0.4608
H11_4 H 0.1684 0.7140 0.7383
C14_4 C 0.3941(3) 0.53035(19) 0.8161(17)
C15_4 C 0.3381(3) 0.5712(2) 0.7329(14)
C16_4 C 0.3025(3) 0.6510(3) 0.4641(17)
H12_4 H 0.3117 0.6765 0.3214
C17_4 C 0.0348(3) 0.86759(19) 0.2889(17)
O7_4 O 0.0645(2) 0.88288(16) 0.5214(11)
C3_4 C 0.8397(3) 0.6874(2) 0.3527(18)
H3_4 H 0.8596 0.7224 0.3585
C4_4 C 0.7827(3) 0.6769(2) 0.1734(17)
H4_4 H 0.7649 0.7050 0.0592
C11_4 C 0.7792(3) 0.5839(2) 0.334(2)
H9_4 H 0.7591 0.5489 0.3299
C12_4 C 0.7521(3) 0.6251(2) 0.1631(16)
C18_4 C 0.9840(3) 0.7303(2) 0.9661(15)
H13_4 H 0.9562 0.8103 0.9324
C20_4 C 0.8668(3) 0.6471(2) 0.5193(16)
C21_4 C 0.8362(4) 0.5947(3) 0.5101(19)
H14_4 H 0.8545 0.5668 0.6239
O8_4 O 0.9339(2) 0.71371(16) 0.7728(13)
C23_4 C 0.9298(4) 0.6564(2) 0.7148(17)
H15_4 H 0.9235 0.6360 0.8898
H16_4 H 0.9733 0.6440 0.6244
O2_4 O 0.6696(2) 0.65413(16) 0.8161(15)
H1_4 H 0.6379 0.6439 0.7090
C22_4 C 0.6893(3) 0.6129(2) 0.9807(14)
C19_4 C 0.9867(3) 0.7863(2) 0.0263(15)
loop_
_geom_bond_atom_site_label_1
_geom_bond_atom_site_label_2
_geom_bond_site_symmetry_1
_geom_bond_site_symmetry_2
O3 C14 1_555 1_555
C5 H5 1_555 1_555
C8 C5 1_555 1_555
H7 C8 1_555 1_555
C10 C8 1_555 1_555
O4 C14 1_555 1_555
C13 C10 1_555 1_555
H11 C13 1_555 1_555
C14 C15 1_555 1_555
C15 C5 1_555 1_555
Mn2 O7 1_555 1_555
C9 C15 1_555 1_555
Mn2 O1 1_555 1_555
O1 C17 1_555 1_555
C1 H2 1_555 1_555
C2 C1 1_555 1_555
C6 H6 1_555 1_555
C7 C1 1_555 1_555
O5 C7 1_555 1_555
H12 C16 1_555 1_555
C17 C2 1_555 1_555
C18 C6 1_555 1_555
C19 C2 1_555 1_555
H13 C19 1_555 1_555
H14 C21 1_555 1_555
O8 C18 1_555 1_555
C23 C20 1_555 1_555
H15 C23 1_555 1_555
H16 C23 1_555 1_555
O9 Mn2 1_555 1_555
O10 Mn2 1_555 1_555
O11 Mn2 1_555 1_555
O12 Mn2 1_555 1_555
C6 C7 1_555 1_555
C18 C19 1_555 1_555
C20 C21 1_555 1_555
O8 C23 1_555 1_555
O2 H1 1_555 1_555
C3 H3 1_555 1_555
C4 C3 1_555 1_555
H4 C4 1_555 1_555
C11 H9 1_555 1_555
C12 C4 1_555 1_555
O6 C22 1_555 1_555
C22 O2 1_555 1_555
Mn4 O6 1_555 1_555
C11 C12 1_555 1_555
C12 C22 1_555 1_555
O1_2 C17_2 1_555 1_555
C1_2 H2_2 1_555 1_555
C2_2 C1_2 1_555 1_555
C6_2 H6_2 1_555 1_555
C7_2 C1_2 1_555 1_555
C8_2 C5_2 1_555 1_555
H7_2 C8_2 1_555 1_555
C9_2 H8_2 1_555 1_555
C10_2 C8_2 1_555 1_555
O4_2 C14_2 1_555 1_555
O5_2 C7_2 1_555 1_555
C13_2 C10_2 1_555 1_555
H10_2 C13_2 1_555 1_555
H11_2 C13_2 1_555 1_555
C14_2 C15_2 1_555 1_555
C15_2 C5_2 1_555 1_555
C16_2 C9_2 1_555 1_555
H12_2 C16_2 1_555 1_555
C17_2 C2_2 1_555 1_555
C19_2 C2_2 1_555 1_555
O7_2 C17_2 1_555 1_555
Mn2_2 O7_2 1_555 1_555
C6_2 C7_2 1_555 1_555
C9_2 C15_2 1_555 1_555
C10_2 C16_2 1_555 1_555
O5_2 C13_2 1_555 1_555
C3_2 H3_2 1_555 1_555
C4_2 C3_2 1_555 1_555
H4_2 C4_2 1_555 1_555
C11_2 H9_2 1_555 1_555
C12_2 C4_2 1_555 1_555
C20_2 C3_2 1_555 1_555
C21_2 C11_2 1_555 1_555
H14_2 C21_2 1_555 1_555
O8_2 C18_2 1_555 1_555
C23_2 C20_2 1_555 1_555
H15_2 C23_2 1_555 1_555
H16_2 C23_2 1_555 1_555
O9_2 Mn2_2 1_555 1_555
O11 Mn2_2 1_555 1_555
O12_2 Mn2_2 1_555 1_555
C11_2 C12_2 1_555 1_555
C20_2 C21_2 1_555 1_555
O8_2 C23_2 1_555 1_555
O2_2 H1_2 1_555 1_555
O6_2 C22_2 1_555 1_555
C22_2 O2_2 1_555 1_555
Mn6 O6_2 1_555 1_555
H13_3 C19_3 1_555 1_555
H14_3 C21_3 1_555 1_555
O8_3 C18_3 1_555 1_555
C23_3 C20_3 1_555 1_555
H15_3 C23_3 1_555 1_555
H16_3 C23_3 1_555 1_555
C18_3 C19_3 1_555 1_555
C20_3 C21_3 1_555 1_555
O8_3 C23_3 1_555 1_555
O2_3 H1_3 1_555 1_555
C3_3 H3_3 1_555 1_555
C4_3 C3_3 1_555 1_555
H4_3 C4_3 1_555 1_555
C11_3 H9_3 1_555 1_555
C12_3 C4_3 1_555 1_555
O12 C22_3 1_555 1_555
C22_3 O2_3 1_555 1_555
C11_3 C12_3 1_555 1_555
C12_3 C22_3 1_555 1_555
O9_2 C14_3 1_555 1_555
C5_3 H5_3 1_555 1_555
C8_3 C5_3 1_555 1_555
H7_3 C8_3 1_555 1_555
C10_3 C8_3 1_555 1_555
O10 C14_3 1_555 1_555
C13_3 C10_3 1_555 1_555
H11_3 C13_3 1_555 1_555
C14_3 C15_3 1_555 1_555
C15_3 C5_3 1_555 1_555
Mn4 O7_3 1_555 1_555
C9_3 C15_3 1_555 1_555
Mn4 O1_3 1_555 1_555
O1_3 C17_3 1_555 1_555
C1_3 H2_3 1_555 1_555
C2_3 C1_3 1_555 1_555
C6_3 H6_3 1_555 1_555
C7_3 C1_3 1_555 1_555
O5_3 C7_3 1_555 1_555
H12_3 C16_3 1_555 1_555
C17_3 C2_3 1_555 1_555
C6_3 C7_3 1_555 1_555
O1_4 C17_4 1_555 1_555
C1_4 H2_4 1_555 1_555
C2_4 C1_4 1_555 1_555
C6_4 H6_4 1_555 1_555
C7_4 C1_4 1_555 1_555
C8_4 C5_4 1_555 1_555
H7_4 C8_4 1_555 1_555
C9_4 H8_4 1_555 1_555
C10_4 C8_4 1_555 1_555
O11 C14_4 1_555 1_555
O5_4 C7_4 1_555 1_555
C13_4 C10_4 1_555 1_555
H10_4 C13_4 1_555 1_555
H11_4 C13_4 1_555 1_555
C14_4 C15_4 1_555 1_555
C15_4 C5_4 1_555 1_555
C16_4 C9_4 1_555 1_555
H12_4 C16_4 1_555 1_555
C17_4 C2_4 1_555 1_555
O7_4 C17_4 1_555 1_555
Mn6 O7_4 1_555 1_555
C6_4 C7_4 1_555 1_555
C9_4 C15_4 1_555 1_555
C10_4 C16_4 1_555 1_555
O5_4 C13_4 1_555 1_555
C3_4 H3_4 1_555 1_555
C4_4 C3_4 1_555 1_555
H4_4 C4_4 1_555 1_555
C11_4 H9_4 1_555 1_555
C12_4 C4_4 1_555 1_555
C20_4 C3_4 1_555 1_555
C21_4 C11_4 1_555 1_555
H14_4 C21_4 1_555 1_555
O8_4 C18_4 1_555 1_555
C23_4 C20_4 1_555 1_555
H15_4 C23_4 1_555 1_555
H16_4 C23_4 1_555 1_555
C11_4 C12_4 1_555 1_555
C20_4 C21_4 1_555 1_555
O8_4 C23_4 1_555 1_555
O2_4 H1_4 1_555 1_555
O12_2 C22_4 1_555 1_555
C22_4 O2_4 1_555 1_555

#END
