
###############################################################################
#
# This file contains modified crystal structure data generated from the
# MOF subset of the Cambridge Structural Database (CSD) v543 
# hosted by the Cambridge Crystallographic Data Centre (CCDC).
#
# This work is licensed under the Creative Commons
# Attribution-NonCommercial-ShareAlike 4.0 International License.
# To view a copy of this license, visit
# http://creativecommons.org/licenses/by-nc-sa/4.0/
# or send a letter to
# Creative Commons, PO Box 1866, Mountain View, CA 94042, USA.
#
# CIF created using the CSD Python API on 29 September 2022
# The structure has been converted into the P1 space group
# The structure has a 3D framework
# The original CSD entry AMAVIW is in the monoclinic crystal system
# The framework has been calculated to contain at least 10.0% void space
# The void calculation uses a probe of radius 1.32A, grid spacing 0.4
#
###############################################################################

data_AMAVIW
_chemical_formula_moiety         '(C98 H65 Cu8 O35)n'
_symmetry_cell_setting           triclinic
_symmetry_space_group_name_H-M   'P 1'
_symmetry_Int_Tables_number      1
_space_group_name_Hall           'P 1'
loop_
_symmetry_equiv_pos_site_id
_symmetry_equiv_pos_as_xyz
1 x,y,z
_cell_length_a                   17.948(5)
_cell_length_b                   25.517(7)
_cell_length_c                   5.7716(16)
_cell_angle_alpha                90
_cell_angle_beta                 99.040(5)
_cell_angle_gamma                90
_cell_volume                     2610.44
loop_
_atom_site_label
_atom_site_type_symbol
_atom_site_fract_x
_atom_site_fract_y
_atom_site_fract_z
Cu4 Cu 0.91680(3) 0.02183(2) 0.54876(11)
Cu3 Cu 0.08320(3) 0.02183(2) 0.95124(11)
Cu7 Cu 0.91680(3) 0.97817(2) 0.04876(11)
O2 O 0.5873(2) 0.78445(14) 0.0880(7)
O3 O 0.8327(2) 0.94511(14) 0.8459(7)
O4 O 0.8692(2) 0.95369(14) 0.4939(7)
H2 H 0.5738 0.6808 0.0532
C6 C 0.6389(3) 0.7605(2) 0.2743(10)
H4 H 0.6669 0.7325 0.2135
H5 H 0.6118 0.7461 0.3926
C7 C 0.6911(3) 0.8031(2) 0.3764(10)
C8 C 0.7471(3) 0.8201(2) 0.2594(11)
H6 H 0.7554 0.8028 0.1239
C9 C 0.7911(3) 0.8622(2) 0.3387(11)
H7 H 0.8270 0.8744 0.2521
C10 C 0.7826(3) 0.8866(2) 0.5458(9)
C11 C 0.7289(3) 0.8681(2) 0.6703(10)
H8 H 0.7236 0.8832 0.8133
C12 C 0.6829(3) 0.8270(2) 0.5836(10)
H9 H 0.6458 0.8153 0.6669
C13 C 0.8313(3) 0.9318(2) 0.6353(10)
Cu5 Cu 0.41680(3) 0.47817(2) 0.04876(11)
O10 O 0.6673(2) 0.55489(14) 0.1541(7)
O13 O 0.6308(2) 0.45369(14) 0.0061(7)
O15 O 0.5000 0.50894(18) 0.2500
Cu1 Cu 0.58320(3) 0.52183(2) 0.95124(11)
O1 O 0.5399(2) 0.59165(13) 0.9197(6)
O5 O 0.5000 0.49106(18) 0.7500
H1 H 0.5000 0.4581(8) 0.7500
C1 C 0.5000 0.6141(3) 0.7500
C2 C 0.5000 0.6723(3) 0.7500
C3 C 0.5445(3) 0.6990(2) 0.9317(9)
C4 C 0.5440(3) 0.7533(2) 0.9265(10)
C5 C 0.5000 0.7800(3) 0.7500
H3 H 0.5000 0.8164 0.7500
O6 O 0.4601(2) 0.59165(13) 0.5803(6)
O7 O 0.4127(2) 0.78445(14) 0.4120(7)
O9 O 0.1308(2) 0.95369(14) 0.0061(7)
C14 C 0.4555(3) 0.6990(2) 0.5683(9)
H10 H 0.4262 0.6808 0.4468
C15 C 0.4560(3) 0.7533(2) 0.5735(10)
C16 C 0.3611(3) 0.7605(2) 0.2257(10)
H11 H 0.3331 0.7325 0.2865
H12 H 0.3882 0.7461 0.1074
C17 C 0.3089(3) 0.8031(2) 0.1236(10)
C18 C 0.2529(3) 0.8201(2) 0.2406(11)
H13 H 0.2446 0.8028 0.3761
C19 C 0.2089(3) 0.8622(2) 0.1613(11)
H14 H 0.1730 0.8744 0.2479
Cu2 Cu 0.41680(3) 0.52183(2) 0.54876(11)
Cu6 Cu 0.58320(3) 0.47817(2) 0.45124(11)
O11 O 0.3327(2) 0.55489(14) 0.3459(7)
O12 O 0.3692(2) 0.45369(14) 0.4939(7)
O8 O 0.1673(2) 0.94511(14) 0.6541(7)
C20 C 0.2174(3) 0.8866(2) 0.9542(9)
C21 C 0.2711(3) 0.8681(2) 0.8297(10)
H15 H 0.2764 0.8832 0.6867
C22 C 0.3171(3) 0.8270(2) 0.9164(10)
H16 H 0.3542 0.8153 0.8331
C23 C 0.1687(3) 0.9318(2) 0.8647(10)
Cu8 Cu 0.08320(3) 0.97817(2) 0.45124(11)
O2_2 O 0.0873(2) 0.28445(14) 0.0880(7)
O3_2 O 0.3327(2) 0.44511(14) 0.8459(7)
H2_2 H 0.0738 0.1808 0.0532
C6_2 C 0.1389(3) 0.2605(2) 0.2743(10)
H4_2 H 0.1669 0.2325 0.2135
H5_2 H 0.1118 0.2461 0.3926
C7_2 C 0.1911(3) 0.3031(2) 0.3764(10)
C8_2 C 0.2471(3) 0.3201(2) 0.2594(11)
H6_2 H 0.2554 0.3028 0.1239
C9_2 C 0.2911(3) 0.3622(2) 0.3387(11)
H7_2 H 0.3270 0.3744 0.2521
C10_2 C 0.2826(3) 0.3866(2) 0.5458(9)
C11_2 C 0.2289(3) 0.3681(2) 0.6703(10)
H8_2 H 0.2236 0.3832 0.8133
C12_2 C 0.1829(3) 0.3270(2) 0.5836(10)
H9_2 H 0.1458 0.3153 0.6669
C13_2 C 0.3313(3) 0.4318(2) 0.6353(10)
O10_2 O 0.1673(2) 0.05489(14) 0.1541(7)
O15_2 O -0.0000 0.00894(18) 0.2500
O1_2 O 0.0399(2) 0.09165(13) 0.9197(6)
C1_2 C 0.0000 0.1141(3) 0.7500
C2_2 C -0.0000 0.1723(3) 0.7500
C3_2 C 0.0445(3) 0.1990(2) 0.9317(9)
C4_2 C 0.0440(3) 0.2533(2) 0.9265(10)
C5_2 C -0.0000 0.2800(3) 0.7500
H3_2 H -0.0000 0.3164 0.7500
O5_2 O -0.0000 0.99106(18) 0.7500
H1_2 H -0.0000 0.9581(8) 0.7500
O15_3 O 1.0000 0.00894(18) 0.2500
C1_3 C 1.0000 0.1141(3) 0.7500
C2_3 C 1.0000 0.1723(3) 0.7500
C5_3 C 1.0000 0.2800(3) 0.7500
H3_3 H 1.0000 0.3164 0.7500
O6_2 O 0.9601(2) 0.09165(13) 0.5803(6)
O7_2 O 0.9127(2) 0.28445(14) 0.4120(7)
C14_2 C 0.9555(3) 0.1990(2) 0.5683(9)
H10_2 H 0.9262 0.1808 0.4468
C15_2 C 0.9560(3) 0.2533(2) 0.5735(10)
C16_2 C 0.8611(3) 0.2605(2) 0.2257(10)
H11_2 H 0.8331 0.2325 0.2865
H12_2 H 0.8882 0.2461 0.1074
C17_2 C 0.8089(3) 0.3031(2) 0.1236(10)
C18_2 C 0.7529(3) 0.3201(2) 0.2406(11)
H13_2 H 0.7446 0.3028 0.3761
C19_2 C 0.7089(3) 0.3622(2) 0.1613(11)
H14_2 H 0.6730 0.3744 0.2479
O11_2 O 0.8327(2) 0.05489(14) 0.3459(7)
O8_2 O 0.6673(2) 0.44511(14) 0.6541(7)
C20_2 C 0.7174(3) 0.3866(2) 0.9542(9)
C21_2 C 0.7711(3) 0.3681(2) 0.8297(10)
H15_2 H 0.7764 0.3832 0.6867
C22_2 C 0.8171(3) 0.3270(2) 0.9164(10)
H16_2 H 0.8542 0.3153 0.8331
C23_2 C 0.6687(3) 0.4318(2) 0.8647(10)
O5_3 O 1.0000 0.99106(18) 0.7500
H1_3 H 1.0000 0.9581(8) 0.7500
C20_3 C 0.7826(3) 0.1134(2) 0.0458(9)
C21_3 C 0.7289(3) 0.1319(2) 0.1703(10)
H15_3 H 0.7236 0.1168 0.3133
C22_3 C 0.6829(3) 0.1730(2) 0.0836(10)
H16_3 H 0.6458 0.1847 0.1669
C23_3 C 0.8313(3) 0.0682(2) 0.1353(10)
O1_3 O 0.4601(2) 0.40835(13) 0.0803(6)
H1_4 H 0.5000 0.5419(8) 0.2500
C1_4 C 0.5000 0.3859(3) 0.2500
C2_4 C 0.5000 0.3277(3) 0.2500
C3_3 C 0.4555(3) 0.3010(2) 0.0683(9)
C4_3 C 0.4560(3) 0.2467(2) 0.0735(10)
C5_4 C 0.5000 0.2200(3) 0.2500
H3_4 H 0.5000 0.1836 0.2500
O6_3 O 0.5399(2) 0.40835(13) 0.4197(6)
O7_3 O 0.5873(2) 0.21555(14) 0.5880(7)
O9_2 O 0.8692(2) 0.04631(14) 0.9939(7)
C14_3 C 0.5445(3) 0.3010(2) 0.4317(9)
H10_3 H 0.5738 0.3192 0.5532
C15_3 C 0.5440(3) 0.2467(2) 0.4265(10)
C16_3 C 0.6389(3) 0.2395(2) 0.7743(10)
H11_3 H 0.6669 0.2675 0.7135
H12_3 H 0.6118 0.2539 0.8926
C17_3 C 0.6911(3) 0.1969(2) 0.8764(10)
C18_3 C 0.7471(3) 0.1799(2) 0.7594(11)
H13_3 H 0.7554 0.1972 0.6239
C19_3 C 0.7911(3) 0.1378(2) 0.8387(11)
H14_3 H 0.8270 0.1256 0.7521
O12_2 O 0.6308(2) 0.54631(14) 0.5061(7)
O2_3 O 0.4127(2) 0.21555(14) 0.9120(7)
O4_2 O 0.1308(2) 0.04631(14) 0.5061(7)
H2_3 H 0.4262 0.3192 0.9468
C6_3 C 0.3611(3) 0.2395(2) 0.7257(10)
H4_3 H 0.3331 0.2675 0.7865
H5_3 H 0.3882 0.2539 0.6074
C7_3 C 0.3089(3) 0.1969(2) 0.6236(10)
C8_3 C 0.2529(3) 0.1799(2) 0.7406(11)
H6_3 H 0.2446 0.1972 0.8761
C9_3 C 0.2089(3) 0.1378(2) 0.6613(11)
H7_3 H 0.1730 0.1256 0.7479
C10_3 C 0.2174(3) 0.1134(2) 0.4542(9)
C11_3 C 0.2711(3) 0.1319(2) 0.3297(10)
H8_3 H 0.2764 0.1168 0.1867
C12_3 C 0.3171(3) 0.1730(2) 0.4164(10)
H9_3 H 0.3542 0.1847 0.3331
C13_3 C 0.1687(3) 0.0682(2) 0.3647(10)
O13_2 O 0.3692(2) 0.54631(14) 0.9939(7)
H1_5 H 0.0000 0.0419(8) 0.2500
C20_4 C 0.2826(3) 0.6134(2) 0.0458(9)
C21_4 C 0.2289(3) 0.6319(2) 0.1703(10)
H15_4 H 0.2236 0.6168 0.3133
C22_4 C 0.1829(3) 0.6730(2) 0.0836(10)
H16_4 H 0.1458 0.6847 0.1669
C23_4 C 0.3313(3) 0.5682(2) 0.1353(10)
C1_5 C 0.0000 0.8859(3) 0.2500
C2_5 C 0.0000 0.8277(3) 0.2500
C5_5 C 0.0000 0.7200(3) 0.2500
H3_5 H 0.0000 0.6836 0.2500
O6_4 O 0.0399(2) 0.90835(13) 0.4197(6)
O7_4 O 0.0873(2) 0.71555(14) 0.5880(7)
C14_4 C 0.0445(3) 0.8010(2) 0.4317(9)
H10_4 H 0.0738 0.8192 0.5532
C15_4 C 0.0440(3) 0.7467(2) 0.4265(10)
C16_4 C 0.1389(3) 0.7395(2) 0.7743(10)
H11_4 H 0.1669 0.7675 0.7135
H12_4 H 0.1118 0.7539 0.8926
C17_4 C 0.1911(3) 0.6969(2) 0.8764(10)
C18_4 C 0.2471(3) 0.6799(2) 0.7594(11)
H13_4 H 0.2554 0.6972 0.6239
C19_4 C 0.2911(3) 0.6378(2) 0.8387(11)
H14_4 H 0.3270 0.6256 0.7521
H1_6 H 1.0000 0.0419(8) 0.2500
O1_4 O 0.9601(2) 0.90835(13) 0.0803(6)
C1_6 C 1.0000 0.8859(3) 0.2500
C2_6 C 1.0000 0.8277(3) 0.2500
C3_4 C 0.9555(3) 0.8010(2) 0.0683(9)
C4_4 C 0.9560(3) 0.7467(2) 0.0735(10)
C5_6 C 1.0000 0.7200(3) 0.2500
H3_6 H 1.0000 0.6836 0.2500
O2_4 O 0.9127(2) 0.71555(14) 0.9120(7)
H2_4 H 0.9262 0.8192 0.9468
C6_4 C 0.8611(3) 0.7395(2) 0.7257(10)
H4_4 H 0.8331 0.7675 0.7865
H5_4 H 0.8882 0.7539 0.6074
C7_4 C 0.8089(3) 0.6969(2) 0.6236(10)
C8_4 C 0.7529(3) 0.6799(2) 0.7406(11)
H6_4 H 0.7446 0.6972 0.8761
C9_4 C 0.7089(3) 0.6378(2) 0.6613(11)
H7_4 H 0.6730 0.6256 0.7479
C10_4 C 0.7174(3) 0.6134(2) 0.4542(9)
C11_4 C 0.7711(3) 0.6319(2) 0.3297(10)
H8_4 H 0.7764 0.6168 0.1867
C12_4 C 0.8171(3) 0.6730(2) 0.4164(10)
H9_4 H 0.8542 0.6847 0.3331
C13_4 C 0.6687(3) 0.5682(2) 0.3647(10)
loop_
_geom_bond_atom_site_label_1
_geom_bond_atom_site_label_2
_geom_bond_site_symmetry_1
_geom_bond_site_symmetry_2
O3 C13 1_555 1_555
O4 C13 1_555 1_555
C6 O2 1_555 1_555
H4 C6 1_555 1_555
H5 C6 1_555 1_555
C7 C6 1_555 1_555
C8 C7 1_555 1_555
H6 C8 1_555 1_555
C9 C8 1_555 1_555
H7 C9 1_555 1_555
C10 C9 1_555 1_555
C11 C10 1_555 1_555
H8 C11 1_555 1_555
C12 C7 1_555 1_555
H9 C12 1_555 1_555
C13 C10 1_555 1_555
C11 C12 1_555 1_555
Cu5 O15 1_555 1_555
Cu1 O1 1_555 1_555
O1 C1 1_555 1_555
O5 Cu1 1_555 1_555
H1 O5 1_555 1_555
C1 C2 1_555 1_555
C2 C3 1_555 1_555
C4 C3 1_555 1_555
C5 C4 1_555 1_555
H3 C5 1_555 1_555
O6 C1 1_555 1_555
O7 C15 1_555 1_555
C14 C2 1_555 1_555
H10 C14 1_555 1_555
C15 C5 1_555 1_555
C16 O7 1_555 1_555
H11 C16 1_555 1_555
H12 C16 1_555 1_555
C17 C16 1_555 1_555
C18 C17 1_555 1_555
H13 C18 1_555 1_555
C19 C18 1_555 1_555
H14 C19 1_555 1_555
Cu2 O5 1_555 1_555
Cu6 O5 1_555 1_555
O11 Cu2 1_555 1_555
O12 Cu2 1_555 1_555
O15 Cu2 1_555 1_555
O6 Cu2 1_555 1_555
C14 C15 1_555 1_555
Cu6 O15 1_555 1_555
O8 C23 1_555 1_555
C21 C20 1_555 1_555
H15 C21 1_555 1_555
H16 C22 1_555 1_555
C23 C20 1_555 1_555
Cu8 O8 1_555 1_555
C21 C22 1_555 1_555
O3_2 C13_2 1_555 1_555
O12 C13_2 1_555 1_555
C6_2 O2_2 1_555 1_555
H4_2 C6_2 1_555 1_555
H5_2 C6_2 1_555 1_555
C7_2 C6_2 1_555 1_555
C8_2 C7_2 1_555 1_555
H6_2 C8_2 1_555 1_555
C9_2 C8_2 1_555 1_555
H7_2 C9_2 1_555 1_555
C10_2 C9_2 1_555 1_555
C11_2 C10_2 1_555 1_555
H8_2 C11_2 1_555 1_555
C12_2 C7_2 1_555 1_555
H9_2 C12_2 1_555 1_555
C13_2 C10_2 1_555 1_555
C11_2 C12_2 1_555 1_555
Cu3 O1_2 1_555 1_555
O1_2 C1_2 1_555 1_555
C1_2 C2_2 1_555 1_555
C2_2 C3_2 1_555 1_555
C4_2 C3_2 1_555 1_555
C5_2 C4_2 1_555 1_555
H3_2 C5_2 1_555 1_555
H1_2 O5_2 1_555 1_555
Cu8 O5_2 1_555 1_555
C1_3 C2_3 1_555 1_555
H3_3 C5_3 1_555 1_555
O6_2 C1_3 1_555 1_555
O7_2 C15_2 1_555 1_555
C14_2 C2_3 1_555 1_555
H10_2 C14_2 1_555 1_555
C15_2 C5_3 1_555 1_555
C16_2 O7_2 1_555 1_555
H11_2 C16_2 1_555 1_555
H12_2 C16_2 1_555 1_555
C17_2 C16_2 1_555 1_555
C18_2 C17_2 1_555 1_555
H13_2 C18_2 1_555 1_555
C19_2 C18_2 1_555 1_555
H14_2 C19_2 1_555 1_555
O11_2 Cu4 1_555 1_555
O15_3 Cu4 1_555 1_555
O6_2 Cu4 1_555 1_555
C14_2 C15_2 1_555 1_555
O8_2 C23_2 1_555 1_555
C21_2 C20_2 1_555 1_555
H15_2 C21_2 1_555 1_555
H16_2 C22_2 1_555 1_555
C23_2 C20_2 1_555 1_555
Cu6 O8_2 1_555 1_555
C21_2 C22_2 1_555 1_555
H1_3 O5_3 1_555 1_555
O11_2 C23_3 1_555 1_555
C21_3 C20_3 1_555 1_555
H15_3 C21_3 1_555 1_555
H16_3 C22_3 1_555 1_555
C23_3 C20_3 1_555 1_555
C21_3 C22_3 1_555 1_555
Cu5 O1_3 1_555 1_555
O1_3 C1_4 1_555 1_555
H1_4 O15 1_555 1_555
C1_4 C2_4 1_555 1_555
C2_4 C3_3 1_555 1_555
C4_3 C3_3 1_555 1_555
C5_4 C4_3 1_555 1_555
H3_4 C5_4 1_555 1_555
O6_3 C1_4 1_555 1_555
O7_3 C15_3 1_555 1_555
C14_3 C2_4 1_555 1_555
H10_3 C14_3 1_555 1_555
C15_3 C5_4 1_555 1_555
C16_3 O7_3 1_555 1_555
H11_3 C16_3 1_555 1_555
H12_3 C16_3 1_555 1_555
C17_3 C16_3 1_555 1_555
C18_3 C17_3 1_555 1_555
H13_3 C18_3 1_555 1_555
C19_3 C18_3 1_555 1_555
H14_3 C19_3 1_555 1_555
O12_2 Cu6 1_555 1_555
O6_3 Cu6 1_555 1_555
C14_3 C15_3 1_555 1_555
O10_2 C13_3 1_555 1_555
O4_2 C13_3 1_555 1_555
C6_3 O2_3 1_555 1_555
H4_3 C6_3 1_555 1_555
H5_3 C6_3 1_555 1_555
C7_3 C6_3 1_555 1_555
C8_3 C7_3 1_555 1_555
H6_3 C8_3 1_555 1_555
C9_3 C8_3 1_555 1_555
H7_3 C9_3 1_555 1_555
C10_3 C9_3 1_555 1_555
C11_3 C10_3 1_555 1_555
H8_3 C11_3 1_555 1_555
C12_3 C7_3 1_555 1_555
H9_3 C12_3 1_555 1_555
C13_3 C10_3 1_555 1_555
C11_3 C12_3 1_555 1_555
H1_5 O15_2 1_555 1_555
O11 C23_4 1_555 1_555
C21_4 C20_4 1_555 1_555
H15_4 C21_4 1_555 1_555
H16_4 C22_4 1_555 1_555
C23_4 C20_4 1_555 1_555
C21_4 C22_4 1_555 1_555
C1_5 C2_5 1_555 1_555
H3_5 C5_5 1_555 1_555
O6_4 C1_5 1_555 1_555
O7_4 C15_4 1_555 1_555
C14_4 C2_5 1_555 1_555
H10_4 C14_4 1_555 1_555
C15_4 C5_5 1_555 1_555
C16_4 O7_4 1_555 1_555
H11_4 C16_4 1_555 1_555
H12_4 C16_4 1_555 1_555
C17_4 C16_4 1_555 1_555
C18_4 C17_4 1_555 1_555
H13_4 C18_4 1_555 1_555
C19_4 C18_4 1_555 1_555
H14_4 C19_4 1_555 1_555
O6_4 Cu8 1_555 1_555
C14_4 C15_4 1_555 1_555
H1_6 O15_3 1_555 1_555
Cu7 O1_4 1_555 1_555
O1_4 C1_6 1_555 1_555
C1_6 C2_6 1_555 1_555
C2_6 C3_4 1_555 1_555
C4_4 C3_4 1_555 1_555
C5_6 C4_4 1_555 1_555
H3_6 C5_6 1_555 1_555
O10 C13_4 1_555 1_555
O12_2 C13_4 1_555 1_555
C6_4 O2_4 1_555 1_555
H4_4 C6_4 1_555 1_555
H5_4 C6_4 1_555 1_555
C7_4 C6_4 1_555 1_555
C8_4 C7_4 1_555 1_555
H6_4 C8_4 1_555 1_555
C9_4 C8_4 1_555 1_555
H7_4 C9_4 1_555 1_555
C10_4 C9_4 1_555 1_555
C11_4 C10_4 1_555 1_555
H8_4 C11_4 1_555 1_555
C12_4 C7_4 1_555 1_555
H9_4 C12_4 1_555 1_555
C13_4 C10_4 1_555 1_555
C11_4 C12_4 1_555 1_555

#END
