
###############################################################################
#
# This file contains modified crystal structure data generated from the
# MOF subset of the Cambridge Structural Database (CSD) v543 
# hosted by the Cambridge Crystallographic Data Centre (CCDC).
#
# This work is licensed under the Creative Commons
# Attribution-NonCommercial-ShareAlike 4.0 International License.
# To view a copy of this license, visit
# http://creativecommons.org/licenses/by-nc-sa/4.0/
# or send a letter to
# Creative Commons, PO Box 1866, Mountain View, CA 94042, USA.
#
# CIF created using the CSD Python API on 29 September 2022
# The structure has been converted into the P1 space group
# The structure has a 3D framework
# The original CSD entry AMOGIV is in the tetragonal crystal system
# The original CSD entry AMOGIV is in a Sohncke space group
# The framework has been calculated to contain at least 10.0% void space
# The void calculation uses a probe of radius 1.32A, grid spacing 0.4
#
###############################################################################

data_AMOGIV
_chemical_formula_moiety         '(C84 H38 O33 V8)n'
_symmetry_cell_setting           triclinic
_symmetry_space_group_name_H-M   'P 1'
_symmetry_Int_Tables_number      1
_space_group_name_Hall           'P 1'
loop_
_symmetry_equiv_pos_site_id
_symmetry_equiv_pos_as_xyz
1 x,y,z
_cell_length_a                   15.1706(8)
_cell_length_b                   15.1706(8)
_cell_length_c                   12.1041(9)
_cell_angle_alpha                90
_cell_angle_beta                 90
_cell_angle_gamma                90
_cell_volume                     2785.72
loop_
_atom_site_label
_atom_site_type_symbol
_atom_site_fract_x
_atom_site_fract_y
_atom_site_fract_z
V1 V 0.19046(4) 0.30954(4) 0.750000
O1 O 0.2504(3) 0.250000 0.625000
H1 H 0.313703 0.250000 0.625000
O2 O 0.10138(18) 0.28877(17) 0.4936(3)
O3 O 0.1164(2) 0.3777(2) 0.6413(2)
C1 C -0.000000 0.500000 0.3115(5)
C2 C 0.0403(3) 0.4317(3) 0.4862(4)
C3 C -0.000000 0.500000 0.5439(5)
H2 H -0.000002 0.499999 0.620705
C4 C 0.0891(3) 0.3603(3) 0.5455(3)
C5 C 0.0376(3) 0.4311(3) 0.3703(4)
H3 H 0.061490 0.383524 0.332085
C6 C -0.000000 0.500000 0.1885(5)
O8 O 0.21123(17) 0.39862(18) 0.0064(3)
C14 C 0.0683(3) 0.4597(3) 0.0138(4)
C16 C 0.0689(3) 0.4624(3) 0.1297(4)
H7 H 0.116476 0.438510 0.167915
V2 V 0.30954(4) 0.30954(4) 0.000000
O10 O 0.2496(3) 0.250000 0.125000
H8 H 0.186297 0.250000 0.125000
V4 V 0.30954(4) 0.19046(4) 0.250000
V7 V 0.19046(4) 0.19046(4) 0.500000
O12 O 0.250000 0.2496(3) 0.875000
O14 O 0.10138(18) 0.21123(17) 0.7564(3)
O15 O 0.28877(17) 0.39862(18) 0.7436(3)
O16 O 0.3836(2) 0.3777(2) 0.1087(2)
O18 O 0.1223(2) 0.3836(2) 0.8587(2)
C8 C -0.000000 0.500000 0.9561(5)
H4 H -0.000001 0.499998 0.879295
C15 C 0.1397(3) 0.4109(3) 0.9545(3)
V2_2 V 0.30954(4) 0.30954(4) 1.000000
O13 O 0.39862(18) 0.21123(17) 0.9936(3)
O17 O 0.3777(2) 0.3836(2) 0.8913(2)
C1_2 C 1.000000 0.500000 0.3115(5)
C3_2 C 1.000000 0.500000 0.5439(5)
H2_2 H 0.999998 0.499999 0.620705
O4 O 0.78877(17) 0.60138(18) 0.0064(3)
C6_2 C 1.000000 0.500000 0.1885(5)
C7 C 0.9317(3) 0.5403(3) 0.0138(4)
C10 C 0.9311(3) 0.5376(3) 0.1297(4)
H5 H 0.883524 0.561490 0.167915
O6 O 0.89862(18) 0.71123(17) 0.4936(3)
O7 O 0.8836(2) 0.6223(2) 0.6413(2)
C11 C 0.9597(3) 0.5683(3) 0.4862(4)
C12 C 0.9109(3) 0.6397(3) 0.5455(3)
C13 C 0.9624(3) 0.5689(3) 0.3703(4)
H6 H 0.938510 0.616476 0.332085
V5 V 0.69046(4) 0.69046(4) 0.000000
V6 V 0.80954(4) 0.80954(4) 0.500000
V9 V 0.80954(4) 0.69046(4) 0.750000
O5 O 0.8777(2) 0.6164(2) 0.8587(2)
C8_2 C 1.000000 0.500000 0.9561(5)
H4_2 H 0.999999 0.499998 0.879295
C9 C 0.8603(3) 0.5891(3) 0.9545(3)
V5_2 V 0.69046(4) 0.69046(4) 1.000000
O3_2 O 0.3836(2) 0.1223(2) 0.1413(2)
C3_3 C 0.500000 0.000000 0.0439(5)
H2_3 H 0.500002 0.000001 0.120705
C4_2 C 0.4109(3) 0.1397(3) 0.0455(3)
O12_2 O 0.250000 0.2504(3) 0.375000
O14_2 O 0.39862(18) 0.28877(17) 0.2564(3)
O15_2 O 0.21123(17) 0.10138(18) 0.2436(3)
O18_2 O 0.3777(2) 0.1164(2) 0.3587(2)
C1_3 C 0.500000 0.000000 0.8115(5)
C2_2 C 0.4597(3) 0.0683(3) 0.9862(4)
C5_2 C 0.4624(3) 0.0689(3) 0.8703(4)
H3_2 H 0.438510 0.116476 0.832085
C6_3 C 0.500000 0.000000 0.6885(5)
C8_3 C 0.500000 0.000000 0.4561(5)
H4_3 H 0.500001 0.000002 0.379295
O8_2 O 0.28877(17) 0.10138(18) 0.5064(3)
C14_2 C 0.4317(3) 0.0403(3) 0.5138(4)
C15_2 C 0.3603(3) 0.0891(3) 0.4545(3)
C16_2 C 0.4311(3) 0.0376(3) 0.6297(4)
H7_2 H 0.383524 0.061490 0.667915
O16_2 O 0.1164(2) 0.1223(2) 0.6087(2)
O17_2 O 0.1223(2) 0.1164(2) 0.3913(2)
C3_4 C 0.500000 1.000000 0.0439(5)
H2_4 H 0.500002 1.000001 0.120705
O7_2 O 0.6164(2) 0.8777(2) 0.1413(2)
C12_2 C 0.5891(3) 0.8603(3) 0.0455(3)
V9_2 V 0.69046(4) 0.80954(4) 0.250000
C1_4 C 0.500000 1.000000 0.8115(5)
O4_2 O 0.71123(17) 0.89862(18) 0.5064(3)
O5_2 O 0.6223(2) 0.8836(2) 0.3587(2)
C6_4 C 0.500000 1.000000 0.6885(5)
C7_2 C 0.5683(3) 0.9597(3) 0.5138(4)
C8_4 C 0.500000 1.000000 0.4561(5)
H4_4 H 0.500001 1.000002 0.379295
C9_2 C 0.6397(3) 0.9109(3) 0.4545(3)
C10_2 C 0.5689(3) 0.9624(3) 0.6297(4)
H5_2 H 0.616476 0.938510 0.667915
O6_2 O 0.60138(18) 0.78877(17) 0.9936(3)
C11_2 C 0.5403(3) 0.9317(3) 0.9862(4)
C13_2 C 0.5376(3) 0.9311(3) 0.8703(4)
H6_2 H 0.561490 0.883524 0.832085
O12_3 O 0.7504(3) 0.750000 0.125000
O18_3 O 0.6164(2) 0.6223(2) 0.1087(2)
O1_2 O 0.750000 0.7504(3) 0.875000
H1_2 H 0.750000 0.813703 0.875000
O2_2 O 0.71123(17) 0.60138(18) 0.7436(3)
O3_3 O 0.6223(2) 0.6164(2) 0.8913(2)
C1_5 C 0.500000 0.500000 0.5615(5)
C2_3 C 0.5683(3) 0.5403(3) 0.7362(4)
C3_5 C 0.500000 0.500000 0.7939(5)
H2_5 H 0.500001 0.499998 0.870705
C4_3 C 0.6397(3) 0.5891(3) 0.7955(3)
C5_3 C 0.5689(3) 0.5376(3) 0.6203(4)
H3_3 H 0.616476 0.561490 0.582085
C6_5 C 0.500000 0.500000 0.4385(5)
C7_3 C 0.4597(3) 0.4317(3) 0.2638(4)
C8_5 C 0.500000 0.500000 0.2061(5)
H4_5 H 0.500002 0.499999 0.129295
C9_3 C 0.4109(3) 0.3603(3) 0.2045(3)
C10_3 C 0.4624(3) 0.4311(3) 0.3797(4)
H5_3 H 0.438510 0.383524 0.417915
C11_3 C 0.4317(3) 0.4597(3) 0.7362(4)
C12_3 C 0.3603(3) 0.4109(3) 0.7955(3)
C13_3 C 0.4311(3) 0.4624(3) 0.6203(4)
H6_3 H 0.383524 0.438510 0.582085
O8_3 O 0.60138(18) 0.71123(17) 0.2564(3)
C14_3 C 0.5403(3) 0.5683(3) 0.2638(4)
C15_3 C 0.5891(3) 0.6397(3) 0.2045(3)
C16_3 C 0.5376(3) 0.5689(3) 0.3797(4)
H7_3 H 0.561490 0.616476 0.417915
O10_2 O 0.750000 0.7496(3) 0.375000
H8_2 H 0.750000 0.686297 0.375000
O13_2 O 0.78877(17) 0.89862(18) 0.2436(3)
C1_6 C -0.000000 0.000000 0.0615(5)
C3_6 C -0.000000 0.000000 0.2939(5)
H2_6 H -0.000001 0.000002 0.370705
C11_4 C 0.0683(3) 0.0403(3) 0.2362(4)
C12_4 C 0.1397(3) 0.0891(3) 0.2955(3)
C13_4 C 0.0689(3) 0.0376(3) 0.1203(4)
H6_4 H 0.116476 0.061490 0.082085
C6_6 C -0.000000 -0.000000 0.9385(5)
C7_4 C 0.0403(3) 0.0683(3) 0.7638(4)
C8_6 C -0.000000 -0.000000 0.7061(5)
H4_6 H -0.000002 0.000001 0.629295
C9_4 C 0.0891(3) 0.1397(3) 0.7045(3)
C10_4 C 0.0376(3) 0.0689(3) 0.8797(4)
H5_4 H 0.061490 0.116476 0.917915
O3_4 O 0.8777(2) 0.8836(2) 0.3913(2)
C1_7 C 1.000000 1.000000 0.0615(5)
C2_4 C 0.9317(3) 0.9597(3) 0.2362(4)
C3_7 C 1.000000 1.000000 0.2939(5)
H2_7 H 0.999999 1.000002 0.370705
C4_4 C 0.8603(3) 0.9109(3) 0.2955(3)
C5_4 C 0.9311(3) 0.9624(3) 0.1203(4)
H3_4 H 0.883524 0.938510 0.082085
O12_4 O 0.7496(3) 0.750000 0.625000
O18_4 O 0.8836(2) 0.8777(2) 0.6087(2)
C6_7 C 1.000000 1.000000 0.9385(5)
C8_7 C 1.000000 1.000000 0.7061(5)
H4_7 H 0.999998 1.000001 0.629295
O8_4 O 0.89862(18) 0.78877(17) 0.7564(3)
C14_4 C 0.9597(3) 0.9317(3) 0.7638(4)
C15_4 C 0.9109(3) 0.8603(3) 0.7045(3)
C16_4 C 0.9624(3) 0.9311(3) 0.8797(4)
H7_4 H 0.938510 0.883524 0.917915
H1_3 H 0.813703 0.750000 0.125000
H8_3 H 0.686297 0.750000 0.625000
H1_4 H 0.250000 0.313703 0.375000
H8_4 H 0.250000 0.186297 0.875000
C1_8 C -0.000000 1.000000 0.0615(5)
C3_8 C -0.000000 1.000000 0.2939(5)
H2_8 H -0.000001 1.000002 0.370705
C6_8 C -0.000000 1.000000 0.9385(5)
C8_8 C -0.000000 1.000000 0.7061(5)
H4_8 H -0.000002 1.000001 0.629295
C1_9 C 1.000000 0.000000 0.0615(5)
C3_9 C 1.000000 0.000000 0.2939(5)
H2_9 H 0.999999 0.000002 0.370705
C6_9 C 1.000000 -0.000000 0.9385(5)
C8_9 C 1.000000 -0.000000 0.7061(5)
H4_9 H 0.999998 0.000001 0.629295
loop_
_geom_bond_atom_site_label_1
_geom_bond_atom_site_label_2
_geom_bond_site_symmetry_1
_geom_bond_site_symmetry_2
V1 O1 1_555 1_555
O1 H1 1_555 1_555
O2 C4 1_555 1_555
O3 V1 1_555 1_555
C1 C5 1_555 1_555
C2 C3 1_555 1_555
C3 H2 1_555 1_555
C4 O3 1_555 1_555
C5 C2 1_555 1_555
H3 C5 1_555 1_555
C6 C1 1_555 1_555
C16 C6 1_555 1_555
H7 C16 1_555 1_555
V2 O8 1_555 1_555
O10 V2 1_555 1_555
H8 O10 1_555 1_555
V4 O10 1_555 1_555
V7 O1 1_555 1_555
O12 V1 1_555 1_555
O14 V1 1_555 1_555
O15 V1 1_555 1_555
O16 V2 1_555 1_555
O18 V1 1_555 1_555
O2 V7 1_555 1_555
C2 C4 1_555 1_555
C14 C16 1_555 1_555
C8 H4 1_555 1_555
O18 C15 1_555 1_555
O12 V2_2 1_555 1_555
O13 V2_2 1_555 1_555
O17 V2_2 1_555 1_555
C3_2 H2_2 1_555 1_555
C6_2 C1_2 1_555 1_555
C10 C6_2 1_555 1_555
H5 C10 1_555 1_555
O6 C12 1_555 1_555
O7 C12 1_555 1_555
C11 C3_2 1_555 1_555
C12 C11 1_555 1_555
C13 C1_2 1_555 1_555
H6 C13 1_555 1_555
V5 O4 1_555 1_555
V6 O6 1_555 1_555
V9 O7 1_555 1_555
C7 C10 1_555 1_555
C11 C13 1_555 1_555
O5 C9 1_555 1_555
C8_2 H4_2 1_555 1_555
V9 O5 1_555 1_555
O3_2 V4 1_555 1_555
C3_3 H2_3 1_555 1_555
C4_2 O3_2 1_555 1_555
O12_2 V4 1_555 1_555
O14_2 V4 1_555 1_555
O15_2 V4 1_555 1_555
O18_2 V4 1_555 1_555
C1_3 C5_2 1_555 1_555
C5_2 C2_2 1_555 1_555
H3_2 C5_2 1_555 1_555
C6_3 C1_3 1_555 1_555
C8_3 H4_3 1_555 1_555
O8_2 C15_2 1_555 1_555
O18_2 C15_2 1_555 1_555
C14_2 C8_3 1_555 1_555
C15_2 C14_2 1_555 1_555
C16_2 C6_3 1_555 1_555
H7_2 C16_2 1_555 1_555
V7 O8_2 1_555 1_555
O12_2 V7 1_555 1_555
O16_2 V7 1_555 1_555
O17_2 V7 1_555 1_555
C14_2 C16_2 1_555 1_555
C3_4 H2_4 1_555 1_555
O7_2 C12_2 1_555 1_555
V9_2 O7_2 1_555 1_555
O4_2 C9_2 1_555 1_555
O5_2 C9_2 1_555 1_555
C6_4 C1_4 1_555 1_555
C7_2 C8_4 1_555 1_555
C8_4 H4_4 1_555 1_555
C9_2 C7_2 1_555 1_555
C10_2 C6_4 1_555 1_555
H5_2 C10_2 1_555 1_555
C13_2 C1_4 1_555 1_555
H6_2 C13_2 1_555 1_555
V6 O4_2 1_555 1_555
V5_2 O6_2 1_555 1_555
V9_2 O5_2 1_555 1_555
C7_2 C10_2 1_555 1_555
C11_2 C13_2 1_555 1_555
O12_3 V5 1_555 1_555
O18_3 V5 1_555 1_555
V5_2 O1_2 1_555 1_555
O1_2 H1_2 1_555 1_555
O2_2 C4_3 1_555 1_555
O3_3 V5_2 1_555 1_555
C1_5 C5_3 1_555 1_555
C2_3 C3_5 1_555 1_555
C3_5 H2_5 1_555 1_555
C4_3 O3_3 1_555 1_555
C5_3 C2_3 1_555 1_555
H3_3 C5_3 1_555 1_555
O14_2 C9_3 1_555 1_555
O16 C9_3 1_555 1_555
C6_5 C1_5 1_555 1_555
C7_3 C8_5 1_555 1_555
C8_5 H4_5 1_555 1_555
C9_3 C7_3 1_555 1_555
C10_3 C6_5 1_555 1_555
H5_3 C10_3 1_555 1_555
O15 C12_3 1_555 1_555
O17 C12_3 1_555 1_555
C11_3 C3_5 1_555 1_555
C12_3 C11_3 1_555 1_555
C13_3 C1_5 1_555 1_555
H6_3 C13_3 1_555 1_555
O8_3 C15_3 1_555 1_555
O18_3 C15_3 1_555 1_555
C14_3 C8_5 1_555 1_555
C15_3 C14_3 1_555 1_555
C16_3 C6_5 1_555 1_555
H7_3 C16_3 1_555 1_555
V9_2 O8_3 1_555 1_555
O10_2 V9_2 1_555 1_555
H8_2 O10_2 1_555 1_555
V6 O10_2 1_555 1_555
V9 O1_2 1_555 1_555
O12_3 V9_2 1_555 1_555
O13_2 V9_2 1_555 1_555
O2_2 V9 1_555 1_555
C2_3 C4_3 1_555 1_555
C7_3 C10_3 1_555 1_555
C11_3 C13_3 1_555 1_555
C14_3 C16_3 1_555 1_555
C3_6 H2_6 1_555 1_555
O15_2 C12_4 1_555 1_555
O17_2 C12_4 1_555 1_555
C11_4 C3_6 1_555 1_555
C12_4 C11_4 1_555 1_555
C13_4 C1_6 1_555 1_555
H6_4 C13_4 1_555 1_555
C11_4 C13_4 1_555 1_555
O14 C9_4 1_555 1_555
O16_2 C9_4 1_555 1_555
C7_4 C8_6 1_555 1_555
C8_6 H4_6 1_555 1_555
C9_4 C7_4 1_555 1_555
C10_4 C6_6 1_555 1_555
H5_4 C10_4 1_555 1_555
C7_4 C10_4 1_555 1_555
O13_2 C4_4 1_555 1_555
O3_4 V6 1_555 1_555
C1_7 C5_4 1_555 1_555
C2_4 C3_7 1_555 1_555
C3_7 H2_7 1_555 1_555
C4_4 O3_4 1_555 1_555
C5_4 C2_4 1_555 1_555
H3_4 C5_4 1_555 1_555
O12_4 V6 1_555 1_555
O18_4 V6 1_555 1_555
C2_4 C4_4 1_555 1_555
C8_7 H4_7 1_555 1_555
O8_4 C15_4 1_555 1_555
O18_4 C15_4 1_555 1_555
C14_4 C8_7 1_555 1_555
C15_4 C14_4 1_555 1_555
C16_4 C6_7 1_555 1_555
H7_4 C16_4 1_555 1_555
V9 O8_4 1_555 1_555
O12_4 V9 1_555 1_555
C14_4 C16_4 1_555 1_555
O12_3 H1_3 1_555 1_555
H8_3 O12_4 1_555 1_555
O12_2 H1_4 1_555 1_555
H8_4 O12 1_555 1_555
C3_8 H2_8 1_555 1_555
C8_8 H4_8 1_555 1_555
C3_9 H2_9 1_555 1_555
C8_9 H4_9 1_555 1_555

#END
