
###############################################################################
#
# This file contains modified crystal structure data generated from the
# MOF subset of the Cambridge Structural Database (CSD) v543 
# hosted by the Cambridge Crystallographic Data Centre (CCDC).
#
# This work is licensed under the Creative Commons
# Attribution-NonCommercial-ShareAlike 4.0 International License.
# To view a copy of this license, visit
# http://creativecommons.org/licenses/by-nc-sa/4.0/
# or send a letter to
# Creative Commons, PO Box 1866, Mountain View, CA 94042, USA.
#
# CIF created using the CSD Python API on 29 September 2022
# The structure has been converted into the P1 space group
# The structure has a 3D framework
# The original CSD entry AMOHOC01 is in the tetragonal crystal system
# The original CSD entry AMOHOC01 is in a Sohncke space group
# The framework has been calculated to contain at least 10.0% void space
# The void calculation uses a probe of radius 1.32A, grid spacing 0.4
#
###############################################################################

data_AMOHOC01
_chemical_formula_moiety         '(C84 H34 O33 V8)n'
_symmetry_cell_setting           triclinic
_symmetry_space_group_name_H-M   'P 1'
_symmetry_Int_Tables_number      1
_space_group_name_Hall           'P 1'
loop_
_symmetry_equiv_pos_site_id
_symmetry_equiv_pos_as_xyz
1 x,y,z
_cell_length_a                   15.0794(10)
_cell_length_b                   15.0794(10)
_cell_length_c                   12.0289(11)
_cell_angle_alpha                90
_cell_angle_beta                 90
_cell_angle_gamma                90
_cell_volume                     2735.23
loop_
_atom_site_label
_atom_site_type_symbol
_atom_site_fract_x
_atom_site_fract_y
_atom_site_fract_z
V1 V 0.19502(6) 0.30498(6) 0.750000
O1 O 0.2441(3) 0.250000 0.625000
O2 O 0.1019(2) 0.2870(2) 0.4930(3)
O3 O 0.1195(2) 0.3777(2) 0.6424(3)
C1 C -0.000000 0.500000 0.3123(5)
C2 C 0.0387(4) 0.4313(4) 0.3710(4)
H1 H 0.063596 0.383962 0.332534
C3 C 0.0412(3) 0.4317(3) 0.4873(5)
C4 C -0.000000 0.500000 0.5453(5)
H2 H 0.000001 0.499999 0.622609
C5 C 0.0904(3) 0.3600(4) 0.5463(4)
C6 C -0.000000 0.500000 0.1877(5)
O8 O 0.2130(2) 0.3981(2) 0.0070(3)
C14 C 0.0687(4) 0.4613(4) 0.1290(4)
H6 H 0.116038 0.436404 0.167466
C15 C 0.0683(3) 0.4588(3) 0.0127(5)
V2 V 0.30498(6) 0.30498(6) 0.000000
O10 O 0.2559(3) 0.250000 0.125000
V4 V 0.30498(6) 0.19502(6) 0.250000
V7 V 0.19502(6) 0.19502(6) 0.500000
O12 O 0.250000 0.2559(3) 0.875000
O14 O 0.1019(2) 0.2130(2) 0.7570(3)
O15 O 0.2870(2) 0.3981(2) 0.7430(3)
O16 O 0.3805(2) 0.3777(2) 0.1076(3)
O18 O 0.1223(2) 0.3805(2) 0.8576(3)
C9 C 0.000000 0.500000 0.9547(5)
H4 H -0.000001 0.500001 0.877391
C16 C 0.1400(4) 0.4096(3) 0.9537(4)
V2_2 V 0.30498(6) 0.30498(6) 1.000000
O13 O 0.3981(2) 0.2130(2) 0.9930(3)
O17 O 0.3777(2) 0.3805(2) 0.8924(3)
C1_2 C 1.000000 0.500000 0.3123(5)
C4_2 C 1.000000 0.500000 0.5453(5)
H2_2 H 1.000001 0.499999 0.622609
O4 O 0.7870(2) 0.6019(2) 0.0070(3)
C6_2 C 1.000000 0.500000 0.1877(5)
C7 C 0.9313(4) 0.5387(4) 0.1290(4)
H3 H 0.883962 0.563596 0.167466
C8 C 0.9317(3) 0.5412(3) 0.0127(5)
O6 O 0.8981(2) 0.7130(2) 0.4930(3)
O7 O 0.8805(2) 0.6223(2) 0.6424(3)
C11 C 0.9613(4) 0.5687(4) 0.3710(4)
H5 H 0.936404 0.616038 0.332534
C12 C 0.9588(3) 0.5683(3) 0.4873(5)
C13 C 0.9096(3) 0.6400(4) 0.5463(4)
V5 V 0.69502(6) 0.69502(6) 0.000000
V6 V 0.80498(6) 0.80498(6) 0.500000
V9 V 0.80498(6) 0.69502(6) 0.750000
O5 O 0.8777(2) 0.6195(2) 0.8576(3)
C9_2 C 1.000000 0.500000 0.9547(5)
H4_2 H 0.999999 0.500001 0.877391
C10 C 0.8600(4) 0.5904(3) 0.9537(4)
V5_2 V 0.69502(6) 0.69502(6) 1.000000
O3_2 O 0.3805(2) 0.1223(2) 0.1424(3)
C4_3 C 0.500000 0.000000 0.0453(5)
H2_3 H 0.499999 0.000001 0.122609
C5_2 C 0.4096(3) 0.1400(4) 0.0463(4)
O12_2 O 0.250000 0.2441(3) 0.375000
O14_2 O 0.3981(2) 0.2870(2) 0.2570(3)
O15_2 O 0.2130(2) 0.1019(2) 0.2430(3)
O18_2 O 0.3777(2) 0.1195(2) 0.3576(3)
C1_3 C 0.500000 0.000000 0.8123(5)
C2_2 C 0.4613(4) 0.0687(4) 0.8710(4)
H1_2 H 0.436404 0.116038 0.832534
C3_2 C 0.4588(3) 0.0683(3) 0.9873(5)
C6_3 C 0.500000 -0.000000 0.6877(5)
C9_3 C 0.500000 0.000000 0.4547(5)
H4_3 H 0.500001 -0.000001 0.377391
O8_2 O 0.2870(2) 0.1019(2) 0.5070(3)
C14_2 C 0.4313(4) 0.0387(4) 0.6290(4)
H6_2 H 0.383962 0.063596 0.667466
C15_2 C 0.4317(3) 0.0412(3) 0.5127(5)
C16_2 C 0.3600(4) 0.0904(3) 0.4537(4)
O16_2 O 0.1195(2) 0.1223(2) 0.6076(3)
O17_2 O 0.1223(2) 0.1195(2) 0.3924(3)
C4_4 C 0.500000 1.000000 0.0453(5)
H2_4 H 0.499999 1.000001 0.122609
O7_2 O 0.6195(2) 0.8777(2) 0.1424(3)
C13_2 C 0.5904(3) 0.8600(4) 0.0463(4)
V9_2 V 0.69502(6) 0.80498(6) 0.250000
C1_4 C 0.500000 1.000000 0.8123(5)
O4_2 O 0.7130(2) 0.8981(2) 0.5070(3)
O5_2 O 0.6223(2) 0.8805(2) 0.3576(3)
C6_4 C 0.500000 1.000000 0.6877(5)
C7_2 C 0.5687(4) 0.9613(4) 0.6290(4)
H3_2 H 0.616038 0.936404 0.667466
C8_2 C 0.5683(3) 0.9588(3) 0.5127(5)
C9_4 C 0.500000 1.000000 0.4547(5)
H4_4 H 0.500001 0.999999 0.377391
C10_2 C 0.6400(4) 0.9096(3) 0.4537(4)
O6_2 O 0.6019(2) 0.7870(2) 0.9930(3)
C11_2 C 0.5387(4) 0.9313(4) 0.8710(4)
H5_2 H 0.563596 0.883962 0.832534
C12_2 C 0.5412(3) 0.9317(3) 0.9873(5)
O12_3 O 0.7441(3) 0.750000 0.125000
O18_3 O 0.6195(2) 0.6223(2) 0.1076(3)
O1_2 O 0.750000 0.7441(3) 0.875000
O2_2 O 0.7130(2) 0.6019(2) 0.7430(3)
O3_3 O 0.6223(2) 0.6195(2) 0.8924(3)
C1_5 C 0.500000 0.500000 0.5623(5)
C2_3 C 0.5687(4) 0.5387(4) 0.6210(4)
H1_3 H 0.616038 0.563596 0.582534
C3_3 C 0.5683(3) 0.5412(3) 0.7373(5)
C4_5 C 0.500000 0.500000 0.7953(5)
H2_5 H 0.500001 0.500001 0.872609
C5_3 C 0.6400(4) 0.5904(3) 0.7963(4)
C6_5 C 0.500000 0.500000 0.4377(5)
C7_3 C 0.4613(4) 0.4313(4) 0.3790(4)
H3_3 H 0.436404 0.383962 0.417466
C8_3 C 0.4588(3) 0.4317(3) 0.2627(5)
C9_5 C 0.500000 0.500000 0.2047(5)
H4_5 H 0.499999 0.499999 0.127391
C10_3 C 0.4096(3) 0.3600(4) 0.2037(4)
C11_3 C 0.4313(4) 0.4613(4) 0.6210(4)
H5_3 H 0.383962 0.436404 0.582534
C12_3 C 0.4317(3) 0.4588(3) 0.7373(5)
C13_3 C 0.3600(4) 0.4096(3) 0.7963(4)
O8_3 O 0.6019(2) 0.7130(2) 0.2570(3)
C14_3 C 0.5387(4) 0.5687(4) 0.3790(4)
H6_3 H 0.563596 0.616038 0.417466
C15_3 C 0.5412(3) 0.5683(3) 0.2627(5)
C16_3 C 0.5904(3) 0.6400(4) 0.2037(4)
O10_2 O 0.750000 0.7559(3) 0.375000
O13_2 O 0.7870(2) 0.8981(2) 0.2430(3)
C1_6 C -0.000000 0.000000 0.0623(5)
C4_6 C 0.000000 0.000000 0.2953(5)
H2_6 H -0.000001 -0.000001 0.372609
C11_4 C 0.0687(4) 0.0387(4) 0.1210(4)
H5_4 H 0.116038 0.063596 0.082534
C12_4 C 0.0683(3) 0.0412(3) 0.2373(5)
C13_4 C 0.1400(4) 0.0904(3) 0.2963(4)
C6_6 C 0.000000 0.000000 0.9377(5)
C7_4 C 0.0387(4) 0.0687(4) 0.8790(4)
H3_4 H 0.063596 0.116038 0.917466
C8_4 C 0.0412(3) 0.0683(3) 0.7627(5)
C9_6 C 0.000000 0.000000 0.7047(5)
H4_6 H 0.000001 0.000001 0.627391
C10_4 C 0.0904(3) 0.1400(4) 0.7037(4)
O3_4 O 0.8777(2) 0.8805(2) 0.3924(3)
C1_7 C 1.000000 1.000000 0.0623(5)
C2_4 C 0.9313(4) 0.9613(4) 0.1210(4)
H1_4 H 0.883962 0.936404 0.082534
C3_4 C 0.9317(3) 0.9588(3) 0.2373(5)
C4_7 C 1.000000 1.000000 0.2953(5)
H2_7 H 0.999999 0.999999 0.372609
C5_4 C 0.8600(4) 0.9096(3) 0.2963(4)
O12_4 O 0.7559(3) 0.750000 0.625000
O18_4 O 0.8805(2) 0.8777(2) 0.6076(3)
C6_7 C 1.000000 1.000000 0.9377(5)
C9_7 C 1.000000 1.000000 0.7047(5)
H4_7 H 1.000001 1.000001 0.627391
O8_4 O 0.8981(2) 0.7870(2) 0.7570(3)
C14_4 C 0.9613(4) 0.9313(4) 0.8790(4)
H6_4 H 0.936404 0.883962 0.917466
C15_4 C 0.9588(3) 0.9317(3) 0.7627(5)
C16_4 C 0.9096(3) 0.8600(4) 0.7037(4)
C1_8 C -0.000000 1.000000 0.0623(5)
C4_8 C -0.000000 1.000000 0.2953(5)
H2_8 H -0.000001 0.999999 0.372609
C6_8 C 0.000000 1.000000 0.9377(5)
C9_8 C -0.000000 1.000000 0.7047(5)
H4_8 H 0.000001 1.000001 0.627391
C1_9 C 1.000000 0.000000 0.0623(5)
C4_9 C 1.000000 0.000000 0.2953(5)
H2_9 H 0.999999 -0.000001 0.372609
C6_9 C 1.000000 0.000000 0.9377(5)
C9_9 C 1.000000 0.000000 0.7047(5)
H4_9 H 1.000001 0.000001 0.627391
loop_
_geom_bond_atom_site_label_1
_geom_bond_atom_site_label_2
_geom_bond_site_symmetry_1
_geom_bond_site_symmetry_2
V1 O1 1_555 1_555
O1 V7 1_555 1_555
O2 C5 1_555 1_555
O3 V1 1_555 1_555
C1 C2 1_555 1_555
C2 H1 1_555 1_555
C3 C2 1_555 1_555
C4 C3 1_555 1_555
H2 C4 1_555 1_555
C5 O3 1_555 1_555
C6 C1 1_555 1_555
C14 C6 1_555 1_555
H6 C14 1_555 1_555
V2 O8 1_555 1_555
O10 V2 1_555 1_555
V4 O10 1_555 1_555
V7 O2 1_555 1_555
O12 V1 1_555 1_555
O14 V1 1_555 1_555
O15 V1 1_555 1_555
O16 V2 1_555 1_555
O18 V1 1_555 1_555
C3 C5 1_555 1_555
C14 C15 1_555 1_555
H4 C9 1_555 1_555
O18 C16 1_555 1_555
O12 V2_2 1_555 1_555
O13 V2_2 1_555 1_555
O17 V2_2 1_555 1_555
H2_2 C4_2 1_555 1_555
C6_2 C1_2 1_555 1_555
C7 C6_2 1_555 1_555
H3 C7 1_555 1_555
C8 C7 1_555 1_555
O6 C13 1_555 1_555
O7 C13 1_555 1_555
C11 C1_2 1_555 1_555
H5 C11 1_555 1_555
C12 C4_2 1_555 1_555
C13 C12 1_555 1_555
V5 O4 1_555 1_555
V6 O6 1_555 1_555
V9 O7 1_555 1_555
C11 C12 1_555 1_555
O5 C10 1_555 1_555
H4_2 C9_2 1_555 1_555
V9 O5 1_555 1_555
O3_2 V4 1_555 1_555
H2_3 C4_3 1_555 1_555
C5_2 O3_2 1_555 1_555
O12_2 V4 1_555 1_555
O14_2 V4 1_555 1_555
O15_2 V4 1_555 1_555
O18_2 V4 1_555 1_555
C1_3 C2_2 1_555 1_555
C2_2 H1_2 1_555 1_555
C3_2 C2_2 1_555 1_555
C6_3 C1_3 1_555 1_555
H4_3 C9_3 1_555 1_555
O8_2 C16_2 1_555 1_555
O18_2 C16_2 1_555 1_555
C14_2 C6_3 1_555 1_555
H6_2 C14_2 1_555 1_555
C15_2 C9_3 1_555 1_555
C16_2 C15_2 1_555 1_555
V7 O8_2 1_555 1_555
O12_2 V7 1_555 1_555
O16_2 V7 1_555 1_555
O17_2 V7 1_555 1_555
C14_2 C15_2 1_555 1_555
H2_4 C4_4 1_555 1_555
O7_2 C13_2 1_555 1_555
V9_2 O7_2 1_555 1_555
O4_2 C10_2 1_555 1_555
O5_2 C10_2 1_555 1_555
C6_4 C1_4 1_555 1_555
C7_2 C6_4 1_555 1_555
H3_2 C7_2 1_555 1_555
C8_2 C7_2 1_555 1_555
C9_4 C8_2 1_555 1_555
H4_4 C9_4 1_555 1_555
C10_2 C8_2 1_555 1_555
C11_2 C1_4 1_555 1_555
H5_2 C11_2 1_555 1_555
V6 O4_2 1_555 1_555
V5_2 O6_2 1_555 1_555
V9_2 O5_2 1_555 1_555
C11_2 C12_2 1_555 1_555
O12_3 V5 1_555 1_555
O18_3 V5 1_555 1_555
V5_2 O1_2 1_555 1_555
O1_2 V9 1_555 1_555
O2_2 C5_3 1_555 1_555
O3_3 V5_2 1_555 1_555
C1_5 C2_3 1_555 1_555
C2_3 H1_3 1_555 1_555
C3_3 C2_3 1_555 1_555
C4_5 C3_3 1_555 1_555
H2_5 C4_5 1_555 1_555
C5_3 O3_3 1_555 1_555
O14_2 C10_3 1_555 1_555
O16 C10_3 1_555 1_555
C6_5 C1_5 1_555 1_555
C7_3 C6_5 1_555 1_555
H3_3 C7_3 1_555 1_555
C8_3 C7_3 1_555 1_555
C9_5 C8_3 1_555 1_555
H4_5 C9_5 1_555 1_555
C10_3 C8_3 1_555 1_555
O15 C13_3 1_555 1_555
O17 C13_3 1_555 1_555
C11_3 C1_5 1_555 1_555
H5_3 C11_3 1_555 1_555
C12_3 C4_5 1_555 1_555
C13_3 C12_3 1_555 1_555
O8_3 C16_3 1_555 1_555
O18_3 C16_3 1_555 1_555
C14_3 C6_5 1_555 1_555
H6_3 C14_3 1_555 1_555
C15_3 C9_5 1_555 1_555
C16_3 C15_3 1_555 1_555
V9_2 O8_3 1_555 1_555
O10_2 V9_2 1_555 1_555
V6 O10_2 1_555 1_555
V9 O2_2 1_555 1_555
O12_3 V9_2 1_555 1_555
O13_2 V9_2 1_555 1_555
C3_3 C5_3 1_555 1_555
C11_3 C12_3 1_555 1_555
C14_3 C15_3 1_555 1_555
H2_6 C4_6 1_555 1_555
O15_2 C13_4 1_555 1_555
O17_2 C13_4 1_555 1_555
C11_4 C1_6 1_555 1_555
H5_4 C11_4 1_555 1_555
C12_4 C4_6 1_555 1_555
C13_4 C12_4 1_555 1_555
C11_4 C12_4 1_555 1_555
O14 C10_4 1_555 1_555
O16_2 C10_4 1_555 1_555
C7_4 C6_6 1_555 1_555
H3_4 C7_4 1_555 1_555
C8_4 C7_4 1_555 1_555
C9_6 C8_4 1_555 1_555
H4_6 C9_6 1_555 1_555
C10_4 C8_4 1_555 1_555
O13_2 C5_4 1_555 1_555
O3_4 V6 1_555 1_555
C1_7 C2_4 1_555 1_555
C2_4 H1_4 1_555 1_555
C3_4 C2_4 1_555 1_555
C4_7 C3_4 1_555 1_555
H2_7 C4_7 1_555 1_555
C5_4 O3_4 1_555 1_555
O12_4 V6 1_555 1_555
O18_4 V6 1_555 1_555
C3_4 C5_4 1_555 1_555
H4_7 C9_7 1_555 1_555
O8_4 C16_4 1_555 1_555
O18_4 C16_4 1_555 1_555
C14_4 C6_7 1_555 1_555
H6_4 C14_4 1_555 1_555
C15_4 C9_7 1_555 1_555
C16_4 C15_4 1_555 1_555
V9 O8_4 1_555 1_555
O12_4 V9 1_555 1_555
C14_4 C15_4 1_555 1_555
H2_8 C4_8 1_555 1_555
H4_8 C9_8 1_555 1_555
H2_9 C4_9 1_555 1_555
H4_9 C9_9 1_555 1_555

#END
