
###############################################################################
#
# This file contains modified crystal structure data generated from the
# MOF subset of the Cambridge Structural Database (CSD) v543 
# hosted by the Cambridge Crystallographic Data Centre (CCDC).
#
# This work is licensed under the Creative Commons
# Attribution-NonCommercial-ShareAlike 4.0 International License.
# To view a copy of this license, visit
# http://creativecommons.org/licenses/by-nc-sa/4.0/
# or send a letter to
# Creative Commons, PO Box 1866, Mountain View, CA 94042, USA.
#
# CIF created using the CSD Python API on 29 September 2022
# The structure has been converted into the P1 space group
# The structure has a 3D framework
# The original CSD entry AMOHIW is in the tetragonal crystal system
# The original CSD entry AMOHIW is in a Sohncke space group
# The framework has been calculated to contain at least 10.0% void space
# The void calculation uses a probe of radius 1.32A, grid spacing 0.4
#
###############################################################################

data_AMOHIW
_chemical_formula_moiety         '(C84 H34 O33 V8)n'
_symmetry_cell_setting           triclinic
_symmetry_space_group_name_H-M   'P 1'
_symmetry_Int_Tables_number      1
_space_group_name_Hall           'P 1'
loop_
_symmetry_equiv_pos_site_id
_symmetry_equiv_pos_as_xyz
1 x,y,z
_cell_length_a                   15.0801(11)
_cell_length_b                   15.0801(11)
_cell_length_c                   12.0041(13)
_cell_angle_alpha                90
_cell_angle_beta                 90
_cell_angle_gamma                90
_cell_volume                     2729.85
loop_
_atom_site_label
_atom_site_type_symbol
_atom_site_fract_x
_atom_site_fract_y
_atom_site_fract_z
V1 V 0.19619(9) 0.30381(9) 0.750000
O1 O 0.2443(5) 0.250000 0.625000
O2 O 0.1020(3) 0.2874(3) 0.4948(5)
O3 O 0.1211(4) 0.3788(4) 0.6427(4)
C1 C 0.000000 0.500000 0.3116(9)
C2 C 0.0418(5) 0.4321(5) 0.4883(7)
C3 C 0.000000 0.500000 0.5461(8)
H1 H 0.000000 0.499999 0.623599
C4 C 0.0910(5) 0.3606(6) 0.5469(7)
C5 C 0.0394(5) 0.4312(6) 0.3703(7)
H2 H 0.064525 0.383961 0.331717
C6 C -0.000000 0.500000 0.1884(9)
O8 O 0.2126(3) 0.3980(3) 0.0052(5)
C14 C 0.0679(5) 0.4582(5) 0.0117(7)
C16 C 0.0688(6) 0.4606(5) 0.1297(7)
H6 H 0.116039 0.435475 0.168283
V2 V 0.30381(9) 0.30381(9) 0.000000
O10 O 0.2557(5) 0.250000 0.125000
V4 V 0.30381(9) 0.19619(9) 0.250000
V7 V 0.19619(9) 0.19619(9) 0.500000
O12 O 0.250000 0.2557(5) 0.875000
O14 O 0.1020(3) 0.2126(3) 0.7552(5)
O15 O 0.2874(3) 0.3980(3) 0.7448(5)
O16 O 0.3789(4) 0.3788(4) 0.1073(4)
O18 O 0.1212(4) 0.3789(4) 0.8573(4)
C8 C 0.000000 0.500000 0.9539(8)
H3 H -0.000001 0.500000 0.876401
C15 C 0.1394(6) 0.4090(5) 0.9531(7)
V2_2 V 0.30381(9) 0.30381(9) 1.000000
O13 O 0.3980(3) 0.2126(3) 0.9948(5)
O17 O 0.3788(4) 0.3789(4) 0.8927(4)
C1_2 C 1.000000 0.500000 0.3116(9)
C3_2 C 1.000000 0.500000 0.5461(8)
H1_2 H 1.000000 0.499999 0.623599
O4 O 0.7874(3) 0.6020(3) 0.0052(5)
C6_2 C 1.000000 0.500000 0.1884(9)
C7 C 0.9321(5) 0.5418(5) 0.0117(7)
C10 C 0.9312(6) 0.5394(5) 0.1297(7)
H4 H 0.883961 0.564525 0.168283
O6 O 0.8980(3) 0.7126(3) 0.4948(5)
O7 O 0.8789(4) 0.6212(4) 0.6427(4)
C11 C 0.9582(5) 0.5679(5) 0.4883(7)
C12 C 0.9090(5) 0.6394(6) 0.5469(7)
C13 C 0.9606(5) 0.5688(6) 0.3703(7)
H5 H 0.935475 0.616039 0.331717
V5 V 0.69619(9) 0.69619(9) 0.000000
V6 V 0.80381(9) 0.80381(9) 0.500000
V9 V 0.80381(9) 0.69619(9) 0.750000
O5 O 0.8788(4) 0.6211(4) 0.8573(4)
C8_2 C 1.000000 0.500000 0.9539(8)
H3_2 H 0.999999 0.500000 0.876401
C9 C 0.8606(6) 0.5910(5) 0.9531(7)
V5_2 V 0.69619(9) 0.69619(9) 1.000000
O3_2 O 0.3789(4) 0.1212(4) 0.1427(4)
C3_3 C 0.500000 0.000000 0.0461(8)
H1_3 H 0.500000 0.000001 0.123599
C4_2 C 0.4090(5) 0.1394(6) 0.0469(7)
O12_2 O 0.250000 0.2443(5) 0.375000
O14_2 O 0.3980(3) 0.2874(3) 0.2552(5)
O15_2 O 0.2126(3) 0.1020(3) 0.2448(5)
O18_2 O 0.3788(4) 0.1211(4) 0.3573(4)
C1_3 C 0.500000 0.000000 0.8116(9)
C2_2 C 0.4582(5) 0.0679(5) 0.9883(7)
C5_2 C 0.4606(5) 0.0688(6) 0.8703(7)
H2_2 H 0.435475 0.116039 0.831717
C6_3 C 0.500000 0.000000 0.6884(9)
C8_3 C 0.500000 0.000000 0.4539(8)
H3_3 H 0.500001 0.000000 0.376401
O8_2 O 0.2874(3) 0.1020(3) 0.5052(5)
C14_2 C 0.4321(5) 0.0418(5) 0.5117(7)
C15_2 C 0.3606(6) 0.0910(5) 0.4531(7)
C16_2 C 0.4312(6) 0.0394(5) 0.6297(7)
H6_2 H 0.383961 0.064525 0.668283
O16_2 O 0.1211(4) 0.1212(4) 0.6073(4)
O17_2 O 0.1212(4) 0.1211(4) 0.3927(4)
C3_4 C 0.500000 1.000000 0.0461(8)
H1_4 H 0.500000 1.000001 0.123599
O7_2 O 0.6211(4) 0.8788(4) 0.1427(4)
C12_2 C 0.5910(5) 0.8606(6) 0.0469(7)
V9_2 V 0.69619(9) 0.80381(9) 0.250000
C1_4 C 0.500000 1.000000 0.8116(9)
O4_2 O 0.7126(3) 0.8980(3) 0.5052(5)
O5_2 O 0.6212(4) 0.8789(4) 0.3573(4)
C6_4 C 0.500000 1.000000 0.6884(9)
C7_2 C 0.5679(5) 0.9582(5) 0.5117(7)
C8_4 C 0.500000 1.000000 0.4539(8)
H3_4 H 0.500001 1.000000 0.376401
C9_2 C 0.6394(6) 0.9090(5) 0.4531(7)
C10_2 C 0.5688(6) 0.9606(5) 0.6297(7)
H4_2 H 0.616039 0.935475 0.668283
O6_2 O 0.6020(3) 0.7874(3) 0.9948(5)
C11_2 C 0.5418(5) 0.9321(5) 0.9883(7)
C13_2 C 0.5394(5) 0.9312(6) 0.8703(7)
H5_2 H 0.564525 0.883961 0.831717
O12_3 O 0.7443(5) 0.750000 0.125000
O18_3 O 0.6211(4) 0.6212(4) 0.1073(4)
O1_2 O 0.750000 0.7443(5) 0.875000
O2_2 O 0.7126(3) 0.6020(3) 0.7448(5)
O3_3 O 0.6212(4) 0.6211(4) 0.8927(4)
C1_5 C 0.500000 0.500000 0.5616(9)
C2_3 C 0.5679(5) 0.5418(5) 0.7383(7)
C3_5 C 0.500000 0.500000 0.7961(8)
H1_5 H 0.500001 0.500000 0.873599
C4_3 C 0.6394(6) 0.5910(5) 0.7969(7)
C5_3 C 0.5688(6) 0.5394(5) 0.6203(7)
H2_3 H 0.616039 0.564525 0.581717
C6_5 C 0.500000 0.500000 0.4384(9)
C7_3 C 0.4582(5) 0.4321(5) 0.2617(7)
C8_5 C 0.500000 0.500000 0.2039(8)
H3_5 H 0.500000 0.499999 0.126401
C9_3 C 0.4090(5) 0.3606(6) 0.2031(7)
C10_3 C 0.4606(5) 0.4312(6) 0.3797(7)
H4_3 H 0.435475 0.383961 0.418283
C11_3 C 0.4321(5) 0.4582(5) 0.7383(7)
C12_3 C 0.3606(6) 0.4090(5) 0.7969(7)
C13_3 C 0.4312(6) 0.4606(5) 0.6203(7)
H5_3 H 0.383961 0.435475 0.581717
O8_3 O 0.6020(3) 0.7126(3) 0.2552(5)
C14_3 C 0.5418(5) 0.5679(5) 0.2617(7)
C15_3 C 0.5910(5) 0.6394(6) 0.2031(7)
C16_3 C 0.5394(5) 0.5688(6) 0.3797(7)
H6_3 H 0.564525 0.616039 0.418283
O10_2 O 0.750000 0.7557(5) 0.375000
O13_2 O 0.7874(3) 0.8980(3) 0.2448(5)
C1_6 C 0.000000 0.000000 0.0616(9)
C3_6 C -0.000000 -0.000000 0.2961(8)
H1_6 H -0.000001 -0.000000 0.373599
C11_4 C 0.0679(5) 0.0418(5) 0.2383(7)
C12_4 C 0.1394(6) 0.0910(5) 0.2969(7)
C13_4 C 0.0688(6) 0.0394(5) 0.1203(7)
H5_4 H 0.116039 0.064525 0.081717
C6_6 C 0.000000 0.000000 0.9384(9)
C7_4 C 0.0418(5) 0.0679(5) 0.7617(7)
C8_6 C 0.000000 0.000000 0.7039(8)
H3_6 H -0.000000 0.000001 0.626401
C9_4 C 0.0910(5) 0.1394(6) 0.7031(7)
C10_4 C 0.0394(5) 0.0688(6) 0.8797(7)
H4_4 H 0.064525 0.116039 0.918283
O3_4 O 0.8788(4) 0.8789(4) 0.3927(4)
C1_7 C 1.000000 1.000000 0.0616(9)
C2_4 C 0.9321(5) 0.9582(5) 0.2383(7)
C3_7 C 1.000000 1.000000 0.2961(8)
H1_7 H 0.999999 1.000000 0.373599
C4_4 C 0.8606(6) 0.9090(5) 0.2969(7)
C5_4 C 0.9312(6) 0.9606(5) 0.1203(7)
H2_4 H 0.883961 0.935475 0.081717
O12_4 O 0.7557(5) 0.750000 0.625000
O18_4 O 0.8789(4) 0.8788(4) 0.6073(4)
C6_7 C 1.000000 1.000000 0.9384(9)
C8_7 C 1.000000 1.000000 0.7039(8)
H3_7 H 1.000000 1.000001 0.626401
O8_4 O 0.8980(3) 0.7874(3) 0.7552(5)
C14_4 C 0.9582(5) 0.9321(5) 0.7617(7)
C15_4 C 0.9090(5) 0.8606(6) 0.7031(7)
C16_4 C 0.9606(5) 0.9312(6) 0.8797(7)
H6_4 H 0.935475 0.883961 0.918283
C1_8 C 0.000000 1.000000 0.0616(9)
C3_8 C -0.000000 1.000000 0.2961(8)
H1_8 H -0.000001 1.000000 0.373599
C6_8 C 0.000000 1.000000 0.9384(9)
C8_8 C 0.000000 1.000000 0.7039(8)
H3_8 H -0.000000 1.000001 0.626401
C1_9 C 1.000000 0.000000 0.0616(9)
C3_9 C 1.000000 -0.000000 0.2961(8)
H1_9 H 0.999999 -0.000000 0.373599
C6_9 C 1.000000 0.000000 0.9384(9)
C8_9 C 1.000000 0.000000 0.7039(8)
H3_9 H 1.000000 0.000001 0.626401
loop_
_geom_bond_atom_site_label_1
_geom_bond_atom_site_label_2
_geom_bond_site_symmetry_1
_geom_bond_site_symmetry_2
V1 O1 1_555 1_555
O1 V7 1_555 1_555
O2 C4 1_555 1_555
O3 V1 1_555 1_555
C1 C5 1_555 1_555
C2 C3 1_555 1_555
C3 H1 1_555 1_555
C4 O3 1_555 1_555
C5 C2 1_555 1_555
H2 C5 1_555 1_555
C6 C1 1_555 1_555
C16 C6 1_555 1_555
H6 C16 1_555 1_555
V2 O8 1_555 1_555
O10 V2 1_555 1_555
V4 O10 1_555 1_555
V7 O2 1_555 1_555
O12 V1 1_555 1_555
O14 V1 1_555 1_555
O15 V1 1_555 1_555
O16 V2 1_555 1_555
O18 V1 1_555 1_555
C2 C4 1_555 1_555
C14 C16 1_555 1_555
C8 H3 1_555 1_555
O18 C15 1_555 1_555
O12 V2_2 1_555 1_555
O13 V2_2 1_555 1_555
O17 V2_2 1_555 1_555
C3_2 H1_2 1_555 1_555
C6_2 C1_2 1_555 1_555
C10 C6_2 1_555 1_555
H4 C10 1_555 1_555
O6 C12 1_555 1_555
O7 C12 1_555 1_555
C11 C3_2 1_555 1_555
C12 C11 1_555 1_555
C13 C1_2 1_555 1_555
H5 C13 1_555 1_555
V5 O4 1_555 1_555
V6 O6 1_555 1_555
V9 O7 1_555 1_555
C7 C10 1_555 1_555
C11 C13 1_555 1_555
O5 C9 1_555 1_555
C8_2 H3_2 1_555 1_555
V9 O5 1_555 1_555
O3_2 V4 1_555 1_555
C3_3 H1_3 1_555 1_555
C4_2 O3_2 1_555 1_555
O12_2 V4 1_555 1_555
O14_2 V4 1_555 1_555
O15_2 V4 1_555 1_555
O18_2 V4 1_555 1_555
C1_3 C5_2 1_555 1_555
C5_2 C2_2 1_555 1_555
H2_2 C5_2 1_555 1_555
C6_3 C1_3 1_555 1_555
C8_3 H3_3 1_555 1_555
O8_2 C15_2 1_555 1_555
O18_2 C15_2 1_555 1_555
C14_2 C8_3 1_555 1_555
C15_2 C14_2 1_555 1_555
C16_2 C6_3 1_555 1_555
H6_2 C16_2 1_555 1_555
V7 O8_2 1_555 1_555
O12_2 V7 1_555 1_555
O16_2 V7 1_555 1_555
O17_2 V7 1_555 1_555
C14_2 C16_2 1_555 1_555
C3_4 H1_4 1_555 1_555
O7_2 C12_2 1_555 1_555
V9_2 O7_2 1_555 1_555
O4_2 C9_2 1_555 1_555
O5_2 C9_2 1_555 1_555
C6_4 C1_4 1_555 1_555
C7_2 C8_4 1_555 1_555
C8_4 H3_4 1_555 1_555
C9_2 C7_2 1_555 1_555
C10_2 C6_4 1_555 1_555
H4_2 C10_2 1_555 1_555
C13_2 C1_4 1_555 1_555
H5_2 C13_2 1_555 1_555
V6 O4_2 1_555 1_555
V5_2 O6_2 1_555 1_555
V9_2 O5_2 1_555 1_555
C7_2 C10_2 1_555 1_555
C11_2 C13_2 1_555 1_555
O12_3 V5 1_555 1_555
O18_3 V5 1_555 1_555
V5_2 O1_2 1_555 1_555
O1_2 V9 1_555 1_555
O2_2 C4_3 1_555 1_555
O3_3 V5_2 1_555 1_555
C1_5 C5_3 1_555 1_555
C2_3 C3_5 1_555 1_555
C3_5 H1_5 1_555 1_555
C4_3 O3_3 1_555 1_555
C5_3 C2_3 1_555 1_555
H2_3 C5_3 1_555 1_555
O14_2 C9_3 1_555 1_555
O16 C9_3 1_555 1_555
C6_5 C1_5 1_555 1_555
C7_3 C8_5 1_555 1_555
C8_5 H3_5 1_555 1_555
C9_3 C7_3 1_555 1_555
C10_3 C6_5 1_555 1_555
H4_3 C10_3 1_555 1_555
O15 C12_3 1_555 1_555
O17 C12_3 1_555 1_555
C11_3 C3_5 1_555 1_555
C12_3 C11_3 1_555 1_555
C13_3 C1_5 1_555 1_555
H5_3 C13_3 1_555 1_555
O8_3 C15_3 1_555 1_555
O18_3 C15_3 1_555 1_555
C14_3 C8_5 1_555 1_555
C15_3 C14_3 1_555 1_555
C16_3 C6_5 1_555 1_555
H6_3 C16_3 1_555 1_555
V9_2 O8_3 1_555 1_555
O10_2 V9_2 1_555 1_555
V6 O10_2 1_555 1_555
V9 O2_2 1_555 1_555
O12_3 V9_2 1_555 1_555
O13_2 V9_2 1_555 1_555
C2_3 C4_3 1_555 1_555
C7_3 C10_3 1_555 1_555
C11_3 C13_3 1_555 1_555
C14_3 C16_3 1_555 1_555
C3_6 H1_6 1_555 1_555
O15_2 C12_4 1_555 1_555
O17_2 C12_4 1_555 1_555
C11_4 C3_6 1_555 1_555
C12_4 C11_4 1_555 1_555
C13_4 C1_6 1_555 1_555
H5_4 C13_4 1_555 1_555
C11_4 C13_4 1_555 1_555
O14 C9_4 1_555 1_555
O16_2 C9_4 1_555 1_555
C7_4 C8_6 1_555 1_555
C8_6 H3_6 1_555 1_555
C9_4 C7_4 1_555 1_555
C10_4 C6_6 1_555 1_555
H4_4 C10_4 1_555 1_555
C7_4 C10_4 1_555 1_555
O13_2 C4_4 1_555 1_555
O3_4 V6 1_555 1_555
C1_7 C5_4 1_555 1_555
C2_4 C3_7 1_555 1_555
C3_7 H1_7 1_555 1_555
C4_4 O3_4 1_555 1_555
C5_4 C2_4 1_555 1_555
H2_4 C5_4 1_555 1_555
O12_4 V6 1_555 1_555
O18_4 V6 1_555 1_555
C2_4 C4_4 1_555 1_555
C8_7 H3_7 1_555 1_555
O8_4 C15_4 1_555 1_555
O18_4 C15_4 1_555 1_555
C14_4 C8_7 1_555 1_555
C15_4 C14_4 1_555 1_555
C16_4 C6_7 1_555 1_555
H6_4 C16_4 1_555 1_555
V9 O8_4 1_555 1_555
O12_4 V9 1_555 1_555
C14_4 C16_4 1_555 1_555
C3_8 H1_8 1_555 1_555
C8_8 H3_8 1_555 1_555
C3_9 H1_9 1_555 1_555
C8_9 H3_9 1_555 1_555

#END
