
###############################################################################
#
# This file contains modified crystal structure data generated from the
# MOF subset of the Cambridge Structural Database (CSD) v543 
# hosted by the Cambridge Crystallographic Data Centre (CCDC).
#
# This work is licensed under the Creative Commons
# Attribution-NonCommercial-ShareAlike 4.0 International License.
# To view a copy of this license, visit
# http://creativecommons.org/licenses/by-nc-sa/4.0/
# or send a letter to
# Creative Commons, PO Box 1866, Mountain View, CA 94042, USA.
#
# CIF created using the CSD Python API on 29 September 2022
# The structure has been converted into the P1 space group
# The structure has a 3D framework
# The original CSD entry AMOJIY is in the tetragonal crystal system
# The original CSD entry AMOJIY is in a Sohncke space group
# The framework has been calculated to contain at least 10.0% void space
# The void calculation uses a probe of radius 1.32A, grid spacing 0.4
#
###############################################################################

data_AMOJIY
_chemical_formula_moiety         '(C84 H34 O33 V8)n'
_symmetry_cell_setting           triclinic
_symmetry_space_group_name_H-M   'P 1'
_symmetry_Int_Tables_number      1
_space_group_name_Hall           'P 1'
loop_
_symmetry_equiv_pos_site_id
_symmetry_equiv_pos_as_xyz
1 x,y,z
_cell_length_a                   15.0960(11)
_cell_length_b                   15.0960(11)
_cell_length_c                   12.0244(13)
_cell_angle_alpha                90
_cell_angle_beta                 90
_cell_angle_gamma                90
_cell_volume                     2740.23
loop_
_atom_site_label
_atom_site_type_symbol
_atom_site_fract_x
_atom_site_fract_y
_atom_site_fract_z
V1 V 0.19607(11) 0.30393(11) 0.750000
O1 O 0.2454(7) 0.250000 0.625000
O2 O 0.1015(4) 0.2872(4) 0.4947(6)
O3 O 0.1211(5) 0.3786(4) 0.6423(5)
C1 C 0.000000 0.500000 0.3119(11)
C2 C 0.0416(7) 0.4321(7) 0.4883(9)
C3 C 0.000000 0.500000 0.5460(10)
H1 H -0.000001 0.500000 0.623385
C4 C 0.0910(6) 0.3596(7) 0.5460(8)
C5 C 0.0387(6) 0.4310(7) 0.3701(8)
H2 H 0.062946 0.383377 0.331603
C6 C 0.000000 0.500000 0.1881(11)
O8 O 0.2128(4) 0.3985(4) 0.0053(6)
C14 C 0.0679(7) 0.4584(7) 0.0117(9)
C16 C 0.0690(7) 0.4613(6) 0.1299(8)
H6 H 0.116623 0.437054 0.168397
V2 V 0.30393(11) 0.30393(11) 0.000000
O10 O 0.2546(7) 0.250000 0.125000
V4 V 0.30393(11) 0.19607(11) 0.250000
V7 V 0.19607(11) 0.19607(11) 0.500000
O12 O 0.250000 0.2546(7) 0.875000
O14 O 0.1015(4) 0.2128(4) 0.7553(6)
O15 O 0.2872(4) 0.3985(4) 0.7447(6)
O16 O 0.3789(5) 0.3786(4) 0.1077(5)
O18 O 0.1214(4) 0.3789(5) 0.8577(5)
C8 C -0.000000 0.500000 0.9540(10)
H3 H 0.000000 0.499999 0.876615
C15 C 0.1404(7) 0.4090(6) 0.9540(8)
V2_2 V 0.30393(11) 0.30393(11) 1.000000
O13 O 0.3985(4) 0.2128(4) 0.9947(6)
O17 O 0.3786(4) 0.3789(5) 0.8923(5)
C1_2 C 1.000000 0.500000 0.3119(11)
C3_2 C 1.000000 0.500000 0.5460(10)
H1_2 H 0.999999 0.500000 0.623385
O4 O 0.7872(4) 0.6015(4) 0.0053(6)
C6_2 C 1.000000 0.500000 0.1881(11)
C7 C 0.9321(7) 0.5416(7) 0.0117(9)
C10 C 0.9310(7) 0.5387(6) 0.1299(8)
H4 H 0.883377 0.562946 0.168397
O6 O 0.8985(4) 0.7128(4) 0.4947(6)
O7 O 0.8789(5) 0.6214(4) 0.6423(5)
C11 C 0.9584(7) 0.5679(7) 0.4883(9)
C12 C 0.9090(6) 0.6404(7) 0.5460(8)
C13 C 0.9613(6) 0.5690(7) 0.3701(8)
H5 H 0.937054 0.616623 0.331603
V5 V 0.69607(11) 0.69607(11) 0.000000
V6 V 0.80393(11) 0.80393(11) 0.500000
V9 V 0.80393(11) 0.69607(11) 0.750000
O5 O 0.8786(4) 0.6211(5) 0.8577(5)
C8_2 C 1.000000 0.500000 0.9540(10)
H3_2 H 1.000000 0.499999 0.876615
C9 C 0.8596(7) 0.5910(6) 0.9540(8)
V5_2 V 0.69607(11) 0.69607(11) 1.000000
O3_2 O 0.3789(5) 0.1214(4) 0.1423(5)
C3_3 C 0.500000 0.000000 0.0460(10)
H1_3 H 0.500001 -0.000000 0.123385
C4_2 C 0.4090(6) 0.1404(7) 0.0460(8)
O12_2 O 0.250000 0.2454(7) 0.375000
O14_2 O 0.3985(4) 0.2872(4) 0.2553(6)
O15_2 O 0.2128(4) 0.1015(4) 0.2447(6)
O18_2 O 0.3786(4) 0.1211(5) 0.3577(5)
C1_3 C 0.500000 0.000000 0.8119(11)
C2_2 C 0.4584(7) 0.0679(7) 0.9883(9)
C5_2 C 0.4613(6) 0.0690(7) 0.8701(8)
H2_2 H 0.437054 0.116623 0.831603
C6_3 C 0.500000 0.000000 0.6881(11)
C8_3 C 0.500000 0.000000 0.4540(10)
H3_3 H 0.500000 0.000001 0.376615
O8_2 O 0.2872(4) 0.1015(4) 0.5053(6)
C14_2 C 0.4321(7) 0.0416(7) 0.5117(9)
C15_2 C 0.3596(7) 0.0910(6) 0.4540(8)
C16_2 C 0.4310(7) 0.0387(6) 0.6299(8)
H6_2 H 0.383377 0.062946 0.668397
O16_2 O 0.1211(5) 0.1214(4) 0.6077(5)
O17_2 O 0.1214(4) 0.1211(5) 0.3923(5)
C3_4 C 0.500000 1.000000 0.0460(10)
H1_4 H 0.500001 1.000000 0.123385
O7_2 O 0.6211(5) 0.8786(4) 0.1423(5)
C12_2 C 0.5910(6) 0.8596(7) 0.0460(8)
V9_2 V 0.69607(11) 0.80393(11) 0.250000
C1_4 C 0.500000 1.000000 0.8119(11)
O4_2 O 0.7128(4) 0.8985(4) 0.5053(6)
O5_2 O 0.6214(4) 0.8789(5) 0.3577(5)
C6_4 C 0.500000 1.000000 0.6881(11)
C7_2 C 0.5679(7) 0.9584(7) 0.5117(9)
C8_4 C 0.500000 1.000000 0.4540(10)
H3_4 H 0.500000 1.000001 0.376615
C9_2 C 0.6404(7) 0.9090(6) 0.4540(8)
C10_2 C 0.5690(7) 0.9613(6) 0.6299(8)
H4_2 H 0.616623 0.937054 0.668397
O6_2 O 0.6015(4) 0.7872(4) 0.9947(6)
C11_2 C 0.5416(7) 0.9321(7) 0.9883(9)
C13_2 C 0.5387(6) 0.9310(7) 0.8701(8)
H5_2 H 0.562946 0.883377 0.831603
O12_3 O 0.7454(7) 0.750000 0.125000
O18_3 O 0.6211(5) 0.6214(4) 0.1077(5)
O1_2 O 0.750000 0.7454(7) 0.875000
O2_2 O 0.7128(4) 0.6015(4) 0.7447(6)
O3_3 O 0.6214(4) 0.6211(5) 0.8923(5)
C1_5 C 0.500000 0.500000 0.5619(11)
C2_3 C 0.5679(7) 0.5416(7) 0.7383(9)
C3_5 C 0.500000 0.500000 0.7960(10)
H1_5 H 0.500000 0.499999 0.873385
C4_3 C 0.6404(7) 0.5910(6) 0.7960(8)
C5_3 C 0.5690(7) 0.5387(6) 0.6201(8)
H2_3 H 0.616623 0.562946 0.581603
C6_5 C 0.500000 0.500000 0.4381(11)
C7_3 C 0.4584(7) 0.4321(7) 0.2617(9)
C8_5 C 0.500000 0.500000 0.2040(10)
H3_5 H 0.500001 0.500000 0.126615
C9_3 C 0.4090(6) 0.3596(7) 0.2040(8)
C10_3 C 0.4613(6) 0.4310(7) 0.3799(8)
H4_3 H 0.437054 0.383377 0.418397
C11_3 C 0.4321(7) 0.4584(7) 0.7383(9)
C12_3 C 0.3596(7) 0.4090(6) 0.7960(8)
C13_3 C 0.4310(7) 0.4613(6) 0.6201(8)
H5_3 H 0.383377 0.437054 0.581603
O8_3 O 0.6015(4) 0.7128(4) 0.2553(6)
C14_3 C 0.5416(7) 0.5679(7) 0.2617(9)
C15_3 C 0.5910(6) 0.6404(7) 0.2040(8)
C16_3 C 0.5387(6) 0.5690(7) 0.3799(8)
H6_3 H 0.562946 0.616623 0.418397
O10_2 O 0.750000 0.7546(7) 0.375000
O13_2 O 0.7872(4) 0.8985(4) 0.2447(6)
C1_6 C 0.000000 -0.000000 0.0619(11)
C3_6 C 0.000000 -0.000000 0.2960(10)
H1_6 H 0.000000 0.000001 0.373385
C11_4 C 0.0679(7) 0.0416(7) 0.2383(9)
C12_4 C 0.1404(7) 0.0910(6) 0.2960(8)
C13_4 C 0.0690(7) 0.0387(6) 0.1201(8)
H5_4 H 0.116623 0.062946 0.081603
C6_6 C 0.000000 -0.000000 0.9381(11)
C7_4 C 0.0416(7) 0.0679(7) 0.7617(9)
C8_6 C 0.000000 -0.000000 0.7040(10)
H3_6 H -0.000001 -0.000000 0.626615
C9_4 C 0.0910(6) 0.1404(7) 0.7040(8)
C10_4 C 0.0387(6) 0.0690(7) 0.8799(8)
H4_4 H 0.062946 0.116623 0.918397
O3_4 O 0.8786(4) 0.8789(5) 0.3923(5)
C1_7 C 1.000000 1.000000 0.0619(11)
C2_4 C 0.9321(7) 0.9584(7) 0.2383(9)
C3_7 C 1.000000 1.000000 0.2960(10)
H1_7 H 1.000000 1.000001 0.373385
C4_4 C 0.8596(7) 0.9090(6) 0.2960(8)
C5_4 C 0.9310(7) 0.9613(6) 0.1201(8)
H2_4 H 0.883377 0.937054 0.081603
O12_4 O 0.7546(7) 0.750000 0.625000
O18_4 O 0.8789(5) 0.8786(4) 0.6077(5)
C6_7 C 1.000000 1.000000 0.9381(11)
C8_7 C 1.000000 1.000000 0.7040(10)
H3_7 H 0.999999 1.000000 0.626615
O8_4 O 0.8985(4) 0.7872(4) 0.7553(6)
C14_4 C 0.9584(7) 0.9321(7) 0.7617(9)
C15_4 C 0.9090(6) 0.8596(7) 0.7040(8)
C16_4 C 0.9613(6) 0.9310(7) 0.8799(8)
H6_4 H 0.937054 0.883377 0.918397
C1_8 C 0.000000 1.000000 0.0619(11)
C3_8 C 0.000000 1.000000 0.2960(10)
H1_8 H 0.000000 1.000001 0.373385
C6_8 C 0.000000 1.000000 0.9381(11)
C8_8 C 0.000000 1.000000 0.7040(10)
H3_8 H -0.000001 1.000000 0.626615
C1_9 C 1.000000 -0.000000 0.0619(11)
C3_9 C 1.000000 -0.000000 0.2960(10)
H1_9 H 1.000000 0.000001 0.373385
C6_9 C 1.000000 -0.000000 0.9381(11)
C8_9 C 1.000000 -0.000000 0.7040(10)
H3_9 H 0.999999 -0.000000 0.626615
loop_
_geom_bond_atom_site_label_1
_geom_bond_atom_site_label_2
_geom_bond_site_symmetry_1
_geom_bond_site_symmetry_2
V1 O1 1_555 1_555
O1 V7 1_555 1_555
O2 C4 1_555 1_555
O3 V1 1_555 1_555
C1 C5 1_555 1_555
C2 C3 1_555 1_555
C3 H1 1_555 1_555
C4 O3 1_555 1_555
C5 C2 1_555 1_555
H2 C5 1_555 1_555
C6 C1 1_555 1_555
C16 C6 1_555 1_555
H6 C16 1_555 1_555
V2 O8 1_555 1_555
O10 V2 1_555 1_555
V4 O10 1_555 1_555
V7 O2 1_555 1_555
O12 V1 1_555 1_555
O14 V1 1_555 1_555
O15 V1 1_555 1_555
O16 V2 1_555 1_555
O18 V1 1_555 1_555
C2 C4 1_555 1_555
C14 C16 1_555 1_555
C8 H3 1_555 1_555
O18 C15 1_555 1_555
O12 V2_2 1_555 1_555
O13 V2_2 1_555 1_555
O17 V2_2 1_555 1_555
C3_2 H1_2 1_555 1_555
C6_2 C1_2 1_555 1_555
C10 C6_2 1_555 1_555
H4 C10 1_555 1_555
O6 C12 1_555 1_555
O7 C12 1_555 1_555
C11 C3_2 1_555 1_555
C12 C11 1_555 1_555
C13 C1_2 1_555 1_555
H5 C13 1_555 1_555
V5 O4 1_555 1_555
V6 O6 1_555 1_555
V9 O7 1_555 1_555
C7 C10 1_555 1_555
C11 C13 1_555 1_555
O5 C9 1_555 1_555
C8_2 H3_2 1_555 1_555
V9 O5 1_555 1_555
O3_2 V4 1_555 1_555
C3_3 H1_3 1_555 1_555
C4_2 O3_2 1_555 1_555
O12_2 V4 1_555 1_555
O14_2 V4 1_555 1_555
O15_2 V4 1_555 1_555
O18_2 V4 1_555 1_555
C1_3 C5_2 1_555 1_555
C5_2 C2_2 1_555 1_555
H2_2 C5_2 1_555 1_555
C6_3 C1_3 1_555 1_555
C8_3 H3_3 1_555 1_555
O8_2 C15_2 1_555 1_555
O18_2 C15_2 1_555 1_555
C14_2 C8_3 1_555 1_555
C15_2 C14_2 1_555 1_555
C16_2 C6_3 1_555 1_555
H6_2 C16_2 1_555 1_555
V7 O8_2 1_555 1_555
O12_2 V7 1_555 1_555
O16_2 V7 1_555 1_555
O17_2 V7 1_555 1_555
C14_2 C16_2 1_555 1_555
C3_4 H1_4 1_555 1_555
O7_2 C12_2 1_555 1_555
V9_2 O7_2 1_555 1_555
O4_2 C9_2 1_555 1_555
O5_2 C9_2 1_555 1_555
C6_4 C1_4 1_555 1_555
C7_2 C8_4 1_555 1_555
C8_4 H3_4 1_555 1_555
C9_2 C7_2 1_555 1_555
C10_2 C6_4 1_555 1_555
H4_2 C10_2 1_555 1_555
C13_2 C1_4 1_555 1_555
H5_2 C13_2 1_555 1_555
V6 O4_2 1_555 1_555
V5_2 O6_2 1_555 1_555
V9_2 O5_2 1_555 1_555
C7_2 C10_2 1_555 1_555
C11_2 C13_2 1_555 1_555
O12_3 V5 1_555 1_555
O18_3 V5 1_555 1_555
V5_2 O1_2 1_555 1_555
O1_2 V9 1_555 1_555
O2_2 C4_3 1_555 1_555
O3_3 V5_2 1_555 1_555
C1_5 C5_3 1_555 1_555
C2_3 C3_5 1_555 1_555
C3_5 H1_5 1_555 1_555
C4_3 O3_3 1_555 1_555
C5_3 C2_3 1_555 1_555
H2_3 C5_3 1_555 1_555
O14_2 C9_3 1_555 1_555
O16 C9_3 1_555 1_555
C6_5 C1_5 1_555 1_555
C7_3 C8_5 1_555 1_555
C8_5 H3_5 1_555 1_555
C9_3 C7_3 1_555 1_555
C10_3 C6_5 1_555 1_555
H4_3 C10_3 1_555 1_555
O15 C12_3 1_555 1_555
O17 C12_3 1_555 1_555
C11_3 C3_5 1_555 1_555
C12_3 C11_3 1_555 1_555
C13_3 C1_5 1_555 1_555
H5_3 C13_3 1_555 1_555
O8_3 C15_3 1_555 1_555
O18_3 C15_3 1_555 1_555
C14_3 C8_5 1_555 1_555
C15_3 C14_3 1_555 1_555
C16_3 C6_5 1_555 1_555
H6_3 C16_3 1_555 1_555
V9_2 O8_3 1_555 1_555
O10_2 V9_2 1_555 1_555
V6 O10_2 1_555 1_555
V9 O2_2 1_555 1_555
O12_3 V9_2 1_555 1_555
O13_2 V9_2 1_555 1_555
C2_3 C4_3 1_555 1_555
C7_3 C10_3 1_555 1_555
C11_3 C13_3 1_555 1_555
C14_3 C16_3 1_555 1_555
C3_6 H1_6 1_555 1_555
O15_2 C12_4 1_555 1_555
O17_2 C12_4 1_555 1_555
C11_4 C3_6 1_555 1_555
C12_4 C11_4 1_555 1_555
C13_4 C1_6 1_555 1_555
H5_4 C13_4 1_555 1_555
C11_4 C13_4 1_555 1_555
O14 C9_4 1_555 1_555
O16_2 C9_4 1_555 1_555
C7_4 C8_6 1_555 1_555
C8_6 H3_6 1_555 1_555
C9_4 C7_4 1_555 1_555
C10_4 C6_6 1_555 1_555
H4_4 C10_4 1_555 1_555
C7_4 C10_4 1_555 1_555
O13_2 C4_4 1_555 1_555
O3_4 V6 1_555 1_555
C1_7 C5_4 1_555 1_555
C2_4 C3_7 1_555 1_555
C3_7 H1_7 1_555 1_555
C4_4 O3_4 1_555 1_555
C5_4 C2_4 1_555 1_555
H2_4 C5_4 1_555 1_555
O12_4 V6 1_555 1_555
O18_4 V6 1_555 1_555
C2_4 C4_4 1_555 1_555
C8_7 H3_7 1_555 1_555
O8_4 C15_4 1_555 1_555
O18_4 C15_4 1_555 1_555
C14_4 C8_7 1_555 1_555
C15_4 C14_4 1_555 1_555
C16_4 C6_7 1_555 1_555
H6_4 C16_4 1_555 1_555
V9 O8_4 1_555 1_555
O12_4 V9 1_555 1_555
C14_4 C16_4 1_555 1_555
C3_8 H1_8 1_555 1_555
C8_8 H3_8 1_555 1_555
C3_9 H1_9 1_555 1_555
C8_9 H3_9 1_555 1_555

#END
