
###############################################################################
#
# This file contains modified crystal structure data generated from the
# MOF subset of the Cambridge Structural Database (CSD) v543 
# hosted by the Cambridge Crystallographic Data Centre (CCDC).
#
# This work is licensed under the Creative Commons
# Attribution-NonCommercial-ShareAlike 4.0 International License.
# To view a copy of this license, visit
# http://creativecommons.org/licenses/by-nc-sa/4.0/
# or send a letter to
# Creative Commons, PO Box 1866, Mountain View, CA 94042, USA.
#
# CIF created using the CSD Python API on 29 September 2022
# The structure has been converted into the P1 space group
# The structure has a 3D framework
# The original CSD entry AMOJEU is in the tetragonal crystal system
# The original CSD entry AMOJEU is in a Sohncke space group
# The framework has been calculated to contain at least 10.0% void space
# The void calculation uses a probe of radius 1.32A, grid spacing 0.4
#
###############################################################################

data_AMOJEU
_chemical_formula_moiety         '(C84 H34 O33 V8)n'
_symmetry_cell_setting           triclinic
_symmetry_space_group_name_H-M   'P 1'
_symmetry_Int_Tables_number      1
_space_group_name_Hall           'P 1'
loop_
_symmetry_equiv_pos_site_id
_symmetry_equiv_pos_as_xyz
1 x,y,z
_cell_length_a                   15.0700(12)
_cell_length_b                   15.0700(12)
_cell_length_c                   11.9839(13)
_cell_angle_alpha                90
_cell_angle_beta                 90
_cell_angle_gamma                90
_cell_volume                     2721.6
loop_
_atom_site_label
_atom_site_type_symbol
_atom_site_fract_x
_atom_site_fract_y
_atom_site_fract_z
V1 V 0.19618(4) 0.30382(4) 0.750000
O1 O 0.2436(3) 0.250000 0.625000
O2 O 0.10249(16) 0.28796(16) 0.4944(2)
O3 O 0.12108(19) 0.37794(18) 0.64296(19)
C1 C 0.000000 0.500000 0.3120(4)
C2 C 0.0415(3) 0.4319(2) 0.4881(4)
C3 C -0.000000 0.500000 0.5469(4)
H1 H -0.000000 0.500001 0.624522
C4 C 0.0916(3) 0.3603(3) 0.5472(3)
C5 C 0.0392(3) 0.4310(3) 0.3714(3)
H2 H 0.064245 0.383531 0.332971
C6 C -0.000000 0.500000 0.1880(4)
O8 O 0.21204(16) 0.39751(16) 0.0056(2)
C14 C 0.0681(2) 0.4585(3) 0.0119(4)
C16 C 0.0690(3) 0.4608(3) 0.1286(3)
H6 H 0.116469 0.435755 0.167029
V2 V 0.30382(4) 0.30382(4) 0.000000
O10 O 0.2564(3) 0.250000 0.125000
V4 V 0.30382(4) 0.19618(4) 0.250000
V7 V 0.19618(4) 0.19618(4) 0.500000
O12 O 0.250000 0.2564(3) 0.875000
O14 O 0.10249(16) 0.21204(16) 0.7556(2)
O15 O 0.28796(16) 0.39751(16) 0.7444(2)
O16 O 0.37892(19) 0.37794(18) 0.10704(19)
O18 O 0.12206(18) 0.37892(19) 0.85704(19)
C8 C -0.000000 0.500000 0.9531(4)
H3 H 0.000001 0.500000 0.875478
C15 C 0.1397(3) 0.4084(3) 0.9528(3)
V2_2 V 0.30382(4) 0.30382(4) 1.000000
O13 O 0.39751(16) 0.21204(16) 0.9944(2)
O17 O 0.37794(18) 0.37892(19) 0.89296(19)
C1_2 C 1.000000 0.500000 0.3120(4)
C3_2 C 1.000000 0.500000 0.5469(4)
H1_2 H 1.000000 0.500001 0.624522
O4 O 0.78796(16) 0.60249(16) 0.0056(2)
C6_2 C 1.000000 0.500000 0.1880(4)
C7 C 0.9319(2) 0.5415(3) 0.0119(4)
C10 C 0.9310(3) 0.5392(3) 0.1286(3)
H4 H 0.883531 0.564245 0.167029
O6 O 0.89751(16) 0.71204(16) 0.4944(2)
O7 O 0.87892(19) 0.62206(18) 0.64296(19)
C11 C 0.9585(3) 0.5681(2) 0.4881(4)
C12 C 0.9084(3) 0.6397(3) 0.5472(3)
C13 C 0.9608(3) 0.5690(3) 0.3714(3)
H5 H 0.935755 0.616469 0.332971
V5 V 0.69618(4) 0.69618(4) 0.000000
V6 V 0.80382(4) 0.80382(4) 0.500000
V9 V 0.80382(4) 0.69618(4) 0.750000
O5 O 0.87794(18) 0.62108(19) 0.85704(19)
C8_2 C 1.000000 0.500000 0.9531(4)
H3_2 H 1.000001 0.500000 0.875478
C9 C 0.8603(3) 0.5916(3) 0.9528(3)
V5_2 V 0.69618(4) 0.69618(4) 1.000000
O3_2 O 0.37892(19) 0.12206(18) 0.14296(19)
C3_3 C 0.500000 0.000000 0.0469(4)
H1_3 H 0.500000 -0.000001 0.124522
C4_2 C 0.4084(3) 0.1397(3) 0.0472(3)
O12_2 O 0.250000 0.2436(3) 0.375000
O14_2 O 0.39751(16) 0.28796(16) 0.2556(2)
O15_2 O 0.21204(16) 0.10249(16) 0.2444(2)
O18_2 O 0.37794(18) 0.12108(19) 0.35704(19)
C1_3 C 0.500000 0.000000 0.8120(4)
C2_2 C 0.4585(3) 0.0681(2) 0.9881(4)
C5_2 C 0.4608(3) 0.0690(3) 0.8714(3)
H2_2 H 0.435755 0.116469 0.832971
C6_3 C 0.500000 0.000000 0.6880(4)
C8_3 C 0.500000 0.000000 0.4531(4)
H3_3 H 0.499999 0.000000 0.375478
O8_2 O 0.28796(16) 0.10249(16) 0.5056(2)
C14_2 C 0.4319(2) 0.0415(3) 0.5119(4)
C15_2 C 0.3603(3) 0.0916(3) 0.4528(3)
C16_2 C 0.4310(3) 0.0392(3) 0.6286(3)
H6_2 H 0.383531 0.064245 0.667029
O16_2 O 0.12108(19) 0.12206(18) 0.60704(19)
O17_2 O 0.12206(18) 0.12108(19) 0.39296(19)
C3_4 C 0.500000 1.000000 0.0469(4)
H1_4 H 0.500000 0.999999 0.124522
O7_2 O 0.62108(19) 0.87794(18) 0.14296(19)
C12_2 C 0.5916(3) 0.8603(3) 0.0472(3)
V9_2 V 0.69618(4) 0.80382(4) 0.250000
C1_4 C 0.500000 1.000000 0.8120(4)
O4_2 O 0.71204(16) 0.89751(16) 0.5056(2)
O5_2 O 0.62206(18) 0.87892(19) 0.35704(19)
C6_4 C 0.500000 1.000000 0.6880(4)
C7_2 C 0.5681(2) 0.9585(3) 0.5119(4)
C8_4 C 0.500000 1.000000 0.4531(4)
H3_4 H 0.499999 1.000000 0.375478
C9_2 C 0.6397(3) 0.9084(3) 0.4528(3)
C10_2 C 0.5690(3) 0.9608(3) 0.6286(3)
H4_2 H 0.616469 0.935755 0.667029
O6_2 O 0.60249(16) 0.78796(16) 0.9944(2)
C11_2 C 0.5415(3) 0.9319(2) 0.9881(4)
C13_2 C 0.5392(3) 0.9310(3) 0.8714(3)
H5_2 H 0.564245 0.883531 0.832971
O12_3 O 0.7436(3) 0.750000 0.125000
O18_3 O 0.62108(19) 0.62206(18) 0.10704(19)
O1_2 O 0.750000 0.7436(3) 0.875000
O2_2 O 0.71204(16) 0.60249(16) 0.7444(2)
O3_3 O 0.62206(18) 0.62108(19) 0.89296(19)
C1_5 C 0.500000 0.500000 0.5620(4)
C2_3 C 0.5681(2) 0.5415(3) 0.7381(4)
C3_5 C 0.500000 0.500000 0.7969(4)
H1_5 H 0.499999 0.500000 0.874522
C4_3 C 0.6397(3) 0.5916(3) 0.7972(3)
C5_3 C 0.5690(3) 0.5392(3) 0.6214(3)
H2_3 H 0.616469 0.564245 0.582971
C6_5 C 0.500000 0.500000 0.4380(4)
C7_3 C 0.4585(3) 0.4319(2) 0.2619(4)
C8_5 C 0.500000 0.500000 0.2031(4)
H3_5 H 0.500000 0.500001 0.125478
C9_3 C 0.4084(3) 0.3603(3) 0.2028(3)
C10_3 C 0.4608(3) 0.4310(3) 0.3786(3)
H4_3 H 0.435755 0.383531 0.417029
C11_3 C 0.4319(2) 0.4585(3) 0.7381(4)
C12_3 C 0.3603(3) 0.4084(3) 0.7972(3)
C13_3 C 0.4310(3) 0.4608(3) 0.6214(3)
H5_3 H 0.383531 0.435755 0.582971
O8_3 O 0.60249(16) 0.71204(16) 0.2556(2)
C14_3 C 0.5415(3) 0.5681(2) 0.2619(4)
C15_3 C 0.5916(3) 0.6397(3) 0.2028(3)
C16_3 C 0.5392(3) 0.5690(3) 0.3786(3)
H6_3 H 0.564245 0.616469 0.417029
O10_2 O 0.750000 0.7564(3) 0.375000
O13_2 O 0.78796(16) 0.89751(16) 0.2444(2)
C1_6 C -0.000000 -0.000000 0.0620(4)
C3_6 C 0.000000 0.000000 0.2969(4)
H1_6 H 0.000001 0.000000 0.374522
C11_4 C 0.0681(2) 0.0415(3) 0.2381(4)
C12_4 C 0.1397(3) 0.0916(3) 0.2972(3)
C13_4 C 0.0690(3) 0.0392(3) 0.1214(3)
H5_4 H 0.116469 0.064245 0.082971
C6_6 C 0.000000 0.000000 0.9380(4)
C7_4 C 0.0415(3) 0.0681(2) 0.7619(4)
C8_6 C 0.000000 0.000000 0.7031(4)
H3_6 H 0.000000 -0.000001 0.625478
C9_4 C 0.0916(3) 0.1397(3) 0.7028(3)
C10_4 C 0.0392(3) 0.0690(3) 0.8786(3)
H4_4 H 0.064245 0.116469 0.917029
O3_4 O 0.87794(18) 0.87892(19) 0.39296(19)
C1_7 C 1.000000 1.000000 0.0620(4)
C2_4 C 0.9319(2) 0.9585(3) 0.2381(4)
C3_7 C 1.000000 1.000000 0.2969(4)
H1_7 H 1.000001 1.000000 0.374522
C4_4 C 0.8603(3) 0.9084(3) 0.2972(3)
C5_4 C 0.9310(3) 0.9608(3) 0.1214(3)
H2_4 H 0.883531 0.935755 0.082971
O12_4 O 0.7564(3) 0.750000 0.625000
O18_4 O 0.87892(19) 0.87794(18) 0.60704(19)
C6_7 C 1.000000 1.000000 0.9380(4)
C8_7 C 1.000000 1.000000 0.7031(4)
H3_7 H 1.000000 0.999999 0.625478
O8_4 O 0.89751(16) 0.78796(16) 0.7556(2)
C14_4 C 0.9585(3) 0.9319(2) 0.7619(4)
C15_4 C 0.9084(3) 0.8603(3) 0.7028(3)
C16_4 C 0.9608(3) 0.9310(3) 0.8786(3)
H6_4 H 0.935755 0.883531 0.917029
C1_8 C -0.000000 1.000000 0.0620(4)
C3_8 C 0.000000 1.000000 0.2969(4)
H1_8 H 0.000001 1.000000 0.374522
C6_8 C 0.000000 1.000000 0.9380(4)
C8_8 C 0.000000 1.000000 0.7031(4)
H3_8 H -0.000000 0.999999 0.625478
C1_9 C 1.000000 -0.000000 0.0620(4)
C3_9 C 1.000000 0.000000 0.2969(4)
H1_9 H 1.000001 0.000000 0.374522
C6_9 C 1.000000 0.000000 0.9380(4)
C8_9 C 1.000000 0.000000 0.7031(4)
H3_9 H 1.000000 -0.000001 0.625478
loop_
_geom_bond_atom_site_label_1
_geom_bond_atom_site_label_2
_geom_bond_site_symmetry_1
_geom_bond_site_symmetry_2
V1 O1 1_555 1_555
O1 V7 1_555 1_555
O2 C4 1_555 1_555
O3 V1 1_555 1_555
C1 C5 1_555 1_555
C2 C3 1_555 1_555
C3 H1 1_555 1_555
C4 O3 1_555 1_555
C5 C2 1_555 1_555
H2 C5 1_555 1_555
C6 C1 1_555 1_555
C16 C6 1_555 1_555
H6 C16 1_555 1_555
V2 O8 1_555 1_555
O10 V2 1_555 1_555
V4 O10 1_555 1_555
V7 O2 1_555 1_555
O12 V1 1_555 1_555
O14 V1 1_555 1_555
O15 V1 1_555 1_555
O16 V2 1_555 1_555
O18 V1 1_555 1_555
C2 C4 1_555 1_555
C14 C16 1_555 1_555
C8 H3 1_555 1_555
O18 C15 1_555 1_555
O12 V2_2 1_555 1_555
O13 V2_2 1_555 1_555
O17 V2_2 1_555 1_555
C3_2 H1_2 1_555 1_555
C6_2 C1_2 1_555 1_555
C10 C6_2 1_555 1_555
H4 C10 1_555 1_555
O6 C12 1_555 1_555
O7 C12 1_555 1_555
C11 C3_2 1_555 1_555
C12 C11 1_555 1_555
C13 C1_2 1_555 1_555
H5 C13 1_555 1_555
V5 O4 1_555 1_555
V6 O6 1_555 1_555
V9 O7 1_555 1_555
C7 C10 1_555 1_555
C11 C13 1_555 1_555
O5 C9 1_555 1_555
C8_2 H3_2 1_555 1_555
V9 O5 1_555 1_555
O3_2 V4 1_555 1_555
C3_3 H1_3 1_555 1_555
C4_2 O3_2 1_555 1_555
O12_2 V4 1_555 1_555
O14_2 V4 1_555 1_555
O15_2 V4 1_555 1_555
O18_2 V4 1_555 1_555
C1_3 C5_2 1_555 1_555
C5_2 C2_2 1_555 1_555
H2_2 C5_2 1_555 1_555
C6_3 C1_3 1_555 1_555
C8_3 H3_3 1_555 1_555
O8_2 C15_2 1_555 1_555
O18_2 C15_2 1_555 1_555
C14_2 C8_3 1_555 1_555
C15_2 C14_2 1_555 1_555
C16_2 C6_3 1_555 1_555
H6_2 C16_2 1_555 1_555
V7 O8_2 1_555 1_555
O12_2 V7 1_555 1_555
O16_2 V7 1_555 1_555
O17_2 V7 1_555 1_555
C14_2 C16_2 1_555 1_555
C3_4 H1_4 1_555 1_555
O7_2 C12_2 1_555 1_555
V9_2 O7_2 1_555 1_555
O4_2 C9_2 1_555 1_555
O5_2 C9_2 1_555 1_555
C6_4 C1_4 1_555 1_555
C7_2 C8_4 1_555 1_555
C8_4 H3_4 1_555 1_555
C9_2 C7_2 1_555 1_555
C10_2 C6_4 1_555 1_555
H4_2 C10_2 1_555 1_555
C13_2 C1_4 1_555 1_555
H5_2 C13_2 1_555 1_555
V6 O4_2 1_555 1_555
V5_2 O6_2 1_555 1_555
V9_2 O5_2 1_555 1_555
C7_2 C10_2 1_555 1_555
C11_2 C13_2 1_555 1_555
O12_3 V5 1_555 1_555
O18_3 V5 1_555 1_555
V5_2 O1_2 1_555 1_555
O1_2 V9 1_555 1_555
O2_2 C4_3 1_555 1_555
O3_3 V5_2 1_555 1_555
C1_5 C5_3 1_555 1_555
C2_3 C3_5 1_555 1_555
C3_5 H1_5 1_555 1_555
C4_3 O3_3 1_555 1_555
C5_3 C2_3 1_555 1_555
H2_3 C5_3 1_555 1_555
O14_2 C9_3 1_555 1_555
O16 C9_3 1_555 1_555
C6_5 C1_5 1_555 1_555
C7_3 C8_5 1_555 1_555
C8_5 H3_5 1_555 1_555
C9_3 C7_3 1_555 1_555
C10_3 C6_5 1_555 1_555
H4_3 C10_3 1_555 1_555
O15 C12_3 1_555 1_555
O17 C12_3 1_555 1_555
C11_3 C3_5 1_555 1_555
C12_3 C11_3 1_555 1_555
C13_3 C1_5 1_555 1_555
H5_3 C13_3 1_555 1_555
O8_3 C15_3 1_555 1_555
O18_3 C15_3 1_555 1_555
C14_3 C8_5 1_555 1_555
C15_3 C14_3 1_555 1_555
C16_3 C6_5 1_555 1_555
H6_3 C16_3 1_555 1_555
V9_2 O8_3 1_555 1_555
O10_2 V9_2 1_555 1_555
V6 O10_2 1_555 1_555
V9 O2_2 1_555 1_555
O12_3 V9_2 1_555 1_555
O13_2 V9_2 1_555 1_555
C2_3 C4_3 1_555 1_555
C7_3 C10_3 1_555 1_555
C11_3 C13_3 1_555 1_555
C14_3 C16_3 1_555 1_555
C3_6 H1_6 1_555 1_555
O15_2 C12_4 1_555 1_555
O17_2 C12_4 1_555 1_555
C11_4 C3_6 1_555 1_555
C12_4 C11_4 1_555 1_555
C13_4 C1_6 1_555 1_555
H5_4 C13_4 1_555 1_555
C11_4 C13_4 1_555 1_555
O14 C9_4 1_555 1_555
O16_2 C9_4 1_555 1_555
C7_4 C8_6 1_555 1_555
C8_6 H3_6 1_555 1_555
C9_4 C7_4 1_555 1_555
C10_4 C6_6 1_555 1_555
H4_4 C10_4 1_555 1_555
C7_4 C10_4 1_555 1_555
O13_2 C4_4 1_555 1_555
O3_4 V6 1_555 1_555
C1_7 C5_4 1_555 1_555
C2_4 C3_7 1_555 1_555
C3_7 H1_7 1_555 1_555
C4_4 O3_4 1_555 1_555
C5_4 C2_4 1_555 1_555
H2_4 C5_4 1_555 1_555
O12_4 V6 1_555 1_555
O18_4 V6 1_555 1_555
C2_4 C4_4 1_555 1_555
C8_7 H3_7 1_555 1_555
O8_4 C15_4 1_555 1_555
O18_4 C15_4 1_555 1_555
C14_4 C8_7 1_555 1_555
C15_4 C14_4 1_555 1_555
C16_4 C6_7 1_555 1_555
H6_4 C16_4 1_555 1_555
V9 O8_4 1_555 1_555
O12_4 V9 1_555 1_555
C14_4 C16_4 1_555 1_555
C3_8 H1_8 1_555 1_555
C8_8 H3_8 1_555 1_555
C3_9 H1_9 1_555 1_555
C8_9 H3_9 1_555 1_555

#END
