
###############################################################################
#
# This file contains modified crystal structure data generated from the
# MOF subset of the Cambridge Structural Database (CSD) v543 
# hosted by the Cambridge Crystallographic Data Centre (CCDC).
#
# This work is licensed under the Creative Commons
# Attribution-NonCommercial-ShareAlike 4.0 International License.
# To view a copy of this license, visit
# http://creativecommons.org/licenses/by-nc-sa/4.0/
# or send a letter to
# Creative Commons, PO Box 1866, Mountain View, CA 94042, USA.
#
# CIF created using the CSD Python API on 29 September 2022
# The structure has been converted into the P1 space group
# The structure has a 3D framework
# The original CSD entry AMOJAQ is in the tetragonal crystal system
# The original CSD entry AMOJAQ is in a Sohncke space group
# The framework has been calculated to contain at least 10.0% void space
# The void calculation uses a probe of radius 1.32A, grid spacing 0.4
#
###############################################################################

data_AMOJAQ
_chemical_formula_moiety         '(C84 H34 O33 V8)n'
_symmetry_cell_setting           triclinic
_symmetry_space_group_name_H-M   'P 1'
_symmetry_Int_Tables_number      1
_space_group_name_Hall           'P 1'
loop_
_symmetry_equiv_pos_site_id
_symmetry_equiv_pos_as_xyz
1 x,y,z
_cell_length_a                   15.0623(9)
_cell_length_b                   15.0623(9)
_cell_length_c                   11.9745(11)
_cell_angle_alpha                90
_cell_angle_beta                 90
_cell_angle_gamma                90
_cell_volume                     2716.69
loop_
_atom_site_label
_atom_site_type_symbol
_atom_site_fract_x
_atom_site_fract_y
_atom_site_fract_z
V1 V 0.19611(4) 0.30389(4) 0.750000
O1 O 0.2433(2) 0.250000 0.625000
O2 O 0.10263(15) 0.28789(15) 0.4938(2)
O3 O 0.12076(18) 0.37740(17) 0.64314(18)
C1 C -0.000000 0.500000 0.3123(4)
C2 C 0.0411(2) 0.4319(2) 0.4880(3)
C3 C -0.000000 0.500000 0.5470(4)
H1 H -0.000000 0.500000 0.624619
C4 C 0.0915(3) 0.3602(3) 0.5470(3)
C5 C 0.0394(3) 0.4310(3) 0.3716(3)
H2 H 0.064881 0.383804 0.333223
C6 C -0.000000 0.500000 0.1877(4)
O8 O 0.21211(15) 0.39737(15) 0.0062(2)
C14 C 0.0681(2) 0.4589(2) 0.0120(3)
C16 C 0.0690(3) 0.4606(3) 0.1284(3)
H6 H 0.116196 0.435119 0.166777
V2 V 0.30389(4) 0.30389(4) 0.000000
O10 O 0.2567(2) 0.250000 0.125000
V4 V 0.30389(4) 0.19611(4) 0.250000
V7 V 0.19611(4) 0.19611(4) 0.500000
O12 O 0.250000 0.2567(2) 0.875000
O14 O 0.10263(15) 0.21211(15) 0.7562(2)
O15 O 0.28789(15) 0.39737(15) 0.7438(2)
O16 O 0.37924(18) 0.37740(17) 0.10686(18)
O18 O 0.12260(17) 0.37924(18) 0.85686(18)
C8 C -0.000000 0.500000 0.9530(4)
H3 H -0.000000 0.500000 0.875381
C15 C 0.1398(3) 0.4085(3) 0.9530(3)
V2_2 V 0.30389(4) 0.30389(4) 1.000000
O13 O 0.39737(15) 0.21211(15) 0.9938(2)
O17 O 0.37740(17) 0.37924(18) 0.89314(18)
C1_2 C 1.000000 0.500000 0.3123(4)
C3_2 C 1.000000 0.500000 0.5470(4)
H1_2 H 1.000000 0.500000 0.624619
O4 O 0.78789(15) 0.60263(15) 0.0062(2)
C6_2 C 1.000000 0.500000 0.1877(4)
C7 C 0.9319(2) 0.5411(2) 0.0120(3)
C10 C 0.9310(3) 0.5394(3) 0.1284(3)
H4 H 0.883804 0.564881 0.166777
O6 O 0.89737(15) 0.71211(15) 0.4938(2)
O7 O 0.87924(18) 0.62260(17) 0.64314(18)
C11 C 0.9589(2) 0.5681(2) 0.4880(3)
C12 C 0.9085(3) 0.6398(3) 0.5470(3)
C13 C 0.9606(3) 0.5690(3) 0.3716(3)
H5 H 0.935119 0.616196 0.333223
V5 V 0.69611(4) 0.69611(4) 0.000000
V6 V 0.80389(4) 0.80389(4) 0.500000
V9 V 0.80389(4) 0.69611(4) 0.750000
O5 O 0.87740(17) 0.62076(18) 0.85686(18)
C8_2 C 1.000000 0.500000 0.9530(4)
H3_2 H 1.000000 0.500000 0.875381
C9 C 0.8602(3) 0.5915(3) 0.9530(3)
V5_2 V 0.69611(4) 0.69611(4) 1.000000
O3_2 O 0.37924(18) 0.12260(17) 0.14314(18)
C3_3 C 0.500000 0.000000 0.0470(4)
H1_3 H 0.500000 0.000000 0.124619
C4_2 C 0.4085(3) 0.1398(3) 0.0470(3)
O12_2 O 0.250000 0.2433(2) 0.375000
O14_2 O 0.39737(15) 0.28789(15) 0.2562(2)
O15_2 O 0.21211(15) 0.10263(15) 0.2438(2)
O18_2 O 0.37740(17) 0.12076(18) 0.35686(18)
C1_3 C 0.500000 0.000000 0.8123(4)
C2_2 C 0.4589(2) 0.0681(2) 0.9880(3)
C5_2 C 0.4606(3) 0.0690(3) 0.8716(3)
H2_2 H 0.435119 0.116196 0.833223
C6_3 C 0.500000 0.000000 0.6877(4)
C8_3 C 0.500000 0.000000 0.4530(4)
H3_3 H 0.500000 0.000000 0.375381
O8_2 O 0.28789(15) 0.10263(15) 0.5062(2)
C14_2 C 0.4319(2) 0.0411(2) 0.5120(3)
C15_2 C 0.3602(3) 0.0915(3) 0.4530(3)
C16_2 C 0.4310(3) 0.0394(3) 0.6284(3)
H6_2 H 0.383804 0.064881 0.666777
O16_2 O 0.12076(18) 0.12260(17) 0.60686(18)
O17_2 O 0.12260(17) 0.12076(18) 0.39314(18)
C3_4 C 0.500000 1.000000 0.0470(4)
H1_4 H 0.500000 1.000000 0.124619
O7_2 O 0.62076(18) 0.87740(17) 0.14314(18)
C12_2 C 0.5915(3) 0.8602(3) 0.0470(3)
V9_2 V 0.69611(4) 0.80389(4) 0.250000
C1_4 C 0.500000 1.000000 0.8123(4)
O4_2 O 0.71211(15) 0.89737(15) 0.5062(2)
O5_2 O 0.62260(17) 0.87924(18) 0.35686(18)
C6_4 C 0.500000 1.000000 0.6877(4)
C7_2 C 0.5681(2) 0.9589(2) 0.5120(3)
C8_4 C 0.500000 1.000000 0.4530(4)
H3_4 H 0.500000 1.000000 0.375381
C9_2 C 0.6398(3) 0.9085(3) 0.4530(3)
C10_2 C 0.5690(3) 0.9606(3) 0.6284(3)
H4_2 H 0.616196 0.935119 0.666777
O6_2 O 0.60263(15) 0.78789(15) 0.9938(2)
C11_2 C 0.5411(2) 0.9319(2) 0.9880(3)
C13_2 C 0.5394(3) 0.9310(3) 0.8716(3)
H5_2 H 0.564881 0.883804 0.833223
O12_3 O 0.7433(2) 0.750000 0.125000
O18_3 O 0.62076(18) 0.62260(17) 0.10686(18)
O1_2 O 0.750000 0.7433(2) 0.875000
O2_2 O 0.71211(15) 0.60263(15) 0.7438(2)
O3_3 O 0.62260(17) 0.62076(18) 0.89314(18)
C1_5 C 0.500000 0.500000 0.5623(4)
C2_3 C 0.5681(2) 0.5411(2) 0.7380(3)
C3_5 C 0.500000 0.500000 0.7970(4)
H1_5 H 0.500000 0.500000 0.874619
C4_3 C 0.6398(3) 0.5915(3) 0.7970(3)
C5_3 C 0.5690(3) 0.5394(3) 0.6216(3)
H2_3 H 0.616196 0.564881 0.583223
C6_5 C 0.500000 0.500000 0.4377(4)
C7_3 C 0.4589(2) 0.4319(2) 0.2620(3)
C8_5 C 0.500000 0.500000 0.2030(4)
H3_5 H 0.500000 0.500000 0.125381
C9_3 C 0.4085(3) 0.3602(3) 0.2030(3)
C10_3 C 0.4606(3) 0.4310(3) 0.3784(3)
H4_3 H 0.435119 0.383804 0.416777
C11_3 C 0.4319(2) 0.4589(2) 0.7380(3)
C12_3 C 0.3602(3) 0.4085(3) 0.7970(3)
C13_3 C 0.4310(3) 0.4606(3) 0.6216(3)
H5_3 H 0.383804 0.435119 0.583223
O8_3 O 0.60263(15) 0.71211(15) 0.2562(2)
C14_3 C 0.5411(2) 0.5681(2) 0.2620(3)
C15_3 C 0.5915(3) 0.6398(3) 0.2030(3)
C16_3 C 0.5394(3) 0.5690(3) 0.3784(3)
H6_3 H 0.564881 0.616196 0.416777
O10_2 O 0.750000 0.7567(2) 0.375000
O13_2 O 0.78789(15) 0.89737(15) 0.2438(2)
C1_6 C 0.000000 0.000000 0.0623(4)
C3_6 C 0.000000 0.000000 0.2970(4)
H1_6 H -0.000000 0.000000 0.374619
C11_4 C 0.0681(2) 0.0411(2) 0.2380(3)
C12_4 C 0.1398(3) 0.0915(3) 0.2970(3)
C13_4 C 0.0690(3) 0.0394(3) 0.1216(3)
H5_4 H 0.116196 0.064881 0.083223
C6_6 C 0.000000 0.000000 0.9377(4)
C7_4 C 0.0411(2) 0.0681(2) 0.7620(3)
C8_6 C 0.000000 0.000000 0.7030(4)
H3_6 H 0.000000 0.000000 0.625381
C9_4 C 0.0915(3) 0.1398(3) 0.7030(3)
C10_4 C 0.0394(3) 0.0690(3) 0.8784(3)
H4_4 H 0.064881 0.116196 0.916777
O3_4 O 0.87740(17) 0.87924(18) 0.39314(18)
C1_7 C 1.000000 1.000000 0.0623(4)
C2_4 C 0.9319(2) 0.9589(2) 0.2380(3)
C3_7 C 1.000000 1.000000 0.2970(4)
H1_7 H 1.000000 1.000000 0.374619
C4_4 C 0.8602(3) 0.9085(3) 0.2970(3)
C5_4 C 0.9310(3) 0.9606(3) 0.1216(3)
H2_4 H 0.883804 0.935119 0.083223
O12_4 O 0.7567(2) 0.750000 0.625000
O18_4 O 0.87924(18) 0.87740(17) 0.60686(18)
C6_7 C 1.000000 1.000000 0.9377(4)
C8_7 C 1.000000 1.000000 0.7030(4)
H3_7 H 1.000000 1.000000 0.625381
O8_4 O 0.89737(15) 0.78789(15) 0.7562(2)
C14_4 C 0.9589(2) 0.9319(2) 0.7620(3)
C15_4 C 0.9085(3) 0.8602(3) 0.7030(3)
C16_4 C 0.9606(3) 0.9310(3) 0.8784(3)
H6_4 H 0.935119 0.883804 0.916777
C1_8 C 0.000000 1.000000 0.0623(4)
C3_8 C -0.000000 1.000000 0.2970(4)
H1_8 H -0.000000 1.000000 0.374619
C6_8 C -0.000000 1.000000 0.9377(4)
C8_8 C -0.000000 1.000000 0.7030(4)
H3_8 H -0.000000 1.000000 0.625381
C1_9 C 1.000000 0.000000 0.0623(4)
C3_9 C 1.000000 0.000000 0.2970(4)
H1_9 H 1.000000 0.000000 0.374619
C6_9 C 1.000000 0.000000 0.9377(4)
C8_9 C 1.000000 0.000000 0.7030(4)
H3_9 H 1.000000 0.000000 0.625381
loop_
_geom_bond_atom_site_label_1
_geom_bond_atom_site_label_2
_geom_bond_site_symmetry_1
_geom_bond_site_symmetry_2
V1 O1 1_555 1_555
O1 V7 1_555 1_555
O2 C4 1_555 1_555
O3 V1 1_555 1_555
C1 C5 1_555 1_555
C2 C3 1_555 1_555
C3 H1 1_555 1_555
C4 O3 1_555 1_555
C5 C2 1_555 1_555
H2 C5 1_555 1_555
C6 C1 1_555 1_555
C16 C6 1_555 1_555
H6 C16 1_555 1_555
V2 O8 1_555 1_555
O10 V2 1_555 1_555
V4 O10 1_555 1_555
V7 O2 1_555 1_555
O12 V1 1_555 1_555
O14 V1 1_555 1_555
O15 V1 1_555 1_555
O16 V2 1_555 1_555
O18 V1 1_555 1_555
C2 C4 1_555 1_555
C14 C16 1_555 1_555
C8 H3 1_555 1_555
O18 C15 1_555 1_555
O12 V2_2 1_555 1_555
O13 V2_2 1_555 1_555
O17 V2_2 1_555 1_555
C3_2 H1_2 1_555 1_555
C6_2 C1_2 1_555 1_555
C10 C6_2 1_555 1_555
H4 C10 1_555 1_555
O6 C12 1_555 1_555
O7 C12 1_555 1_555
C11 C3_2 1_555 1_555
C12 C11 1_555 1_555
C13 C1_2 1_555 1_555
H5 C13 1_555 1_555
V5 O4 1_555 1_555
V6 O6 1_555 1_555
V9 O7 1_555 1_555
C7 C10 1_555 1_555
C11 C13 1_555 1_555
O5 C9 1_555 1_555
C8_2 H3_2 1_555 1_555
V9 O5 1_555 1_555
O3_2 V4 1_555 1_555
C3_3 H1_3 1_555 1_555
C4_2 O3_2 1_555 1_555
O12_2 V4 1_555 1_555
O14_2 V4 1_555 1_555
O15_2 V4 1_555 1_555
O18_2 V4 1_555 1_555
C1_3 C5_2 1_555 1_555
C5_2 C2_2 1_555 1_555
H2_2 C5_2 1_555 1_555
C6_3 C1_3 1_555 1_555
C8_3 H3_3 1_555 1_555
O8_2 C15_2 1_555 1_555
O18_2 C15_2 1_555 1_555
C14_2 C8_3 1_555 1_555
C15_2 C14_2 1_555 1_555
C16_2 C6_3 1_555 1_555
H6_2 C16_2 1_555 1_555
V7 O8_2 1_555 1_555
O12_2 V7 1_555 1_555
O16_2 V7 1_555 1_555
O17_2 V7 1_555 1_555
C14_2 C16_2 1_555 1_555
C3_4 H1_4 1_555 1_555
O7_2 C12_2 1_555 1_555
V9_2 O7_2 1_555 1_555
O4_2 C9_2 1_555 1_555
O5_2 C9_2 1_555 1_555
C6_4 C1_4 1_555 1_555
C7_2 C8_4 1_555 1_555
C8_4 H3_4 1_555 1_555
C9_2 C7_2 1_555 1_555
C10_2 C6_4 1_555 1_555
H4_2 C10_2 1_555 1_555
C13_2 C1_4 1_555 1_555
H5_2 C13_2 1_555 1_555
V6 O4_2 1_555 1_555
V5_2 O6_2 1_555 1_555
V9_2 O5_2 1_555 1_555
C7_2 C10_2 1_555 1_555
C11_2 C13_2 1_555 1_555
O12_3 V5 1_555 1_555
O18_3 V5 1_555 1_555
V5_2 O1_2 1_555 1_555
O1_2 V9 1_555 1_555
O2_2 C4_3 1_555 1_555
O3_3 V5_2 1_555 1_555
C1_5 C5_3 1_555 1_555
C2_3 C3_5 1_555 1_555
C3_5 H1_5 1_555 1_555
C4_3 O3_3 1_555 1_555
C5_3 C2_3 1_555 1_555
H2_3 C5_3 1_555 1_555
O14_2 C9_3 1_555 1_555
O16 C9_3 1_555 1_555
C6_5 C1_5 1_555 1_555
C7_3 C8_5 1_555 1_555
C8_5 H3_5 1_555 1_555
C9_3 C7_3 1_555 1_555
C10_3 C6_5 1_555 1_555
H4_3 C10_3 1_555 1_555
O15 C12_3 1_555 1_555
O17 C12_3 1_555 1_555
C11_3 C3_5 1_555 1_555
C12_3 C11_3 1_555 1_555
C13_3 C1_5 1_555 1_555
H5_3 C13_3 1_555 1_555
O8_3 C15_3 1_555 1_555
O18_3 C15_3 1_555 1_555
C14_3 C8_5 1_555 1_555
C15_3 C14_3 1_555 1_555
C16_3 C6_5 1_555 1_555
H6_3 C16_3 1_555 1_555
V9_2 O8_3 1_555 1_555
O10_2 V9_2 1_555 1_555
V6 O10_2 1_555 1_555
V9 O2_2 1_555 1_555
O12_3 V9_2 1_555 1_555
O13_2 V9_2 1_555 1_555
C2_3 C4_3 1_555 1_555
C7_3 C10_3 1_555 1_555
C11_3 C13_3 1_555 1_555
C14_3 C16_3 1_555 1_555
C3_6 H1_6 1_555 1_555
O15_2 C12_4 1_555 1_555
O17_2 C12_4 1_555 1_555
C11_4 C3_6 1_555 1_555
C12_4 C11_4 1_555 1_555
C13_4 C1_6 1_555 1_555
H5_4 C13_4 1_555 1_555
C11_4 C13_4 1_555 1_555
O14 C9_4 1_555 1_555
O16_2 C9_4 1_555 1_555
C7_4 C8_6 1_555 1_555
C8_6 H3_6 1_555 1_555
C9_4 C7_4 1_555 1_555
C10_4 C6_6 1_555 1_555
H4_4 C10_4 1_555 1_555
C7_4 C10_4 1_555 1_555
O13_2 C4_4 1_555 1_555
O3_4 V6 1_555 1_555
C1_7 C5_4 1_555 1_555
C2_4 C3_7 1_555 1_555
C3_7 H1_7 1_555 1_555
C4_4 O3_4 1_555 1_555
C5_4 C2_4 1_555 1_555
H2_4 C5_4 1_555 1_555
O12_4 V6 1_555 1_555
O18_4 V6 1_555 1_555
C2_4 C4_4 1_555 1_555
C8_7 H3_7 1_555 1_555
O8_4 C15_4 1_555 1_555
O18_4 C15_4 1_555 1_555
C14_4 C8_7 1_555 1_555
C15_4 C14_4 1_555 1_555
C16_4 C6_7 1_555 1_555
H6_4 C16_4 1_555 1_555
V9 O8_4 1_555 1_555
O12_4 V9 1_555 1_555
C14_4 C16_4 1_555 1_555
C3_8 H1_8 1_555 1_555
C8_8 H3_8 1_555 1_555
C3_9 H1_9 1_555 1_555
C8_9 H3_9 1_555 1_555

#END
