
###############################################################################
#
# This file contains modified crystal structure data generated from the
# MOF subset of the Cambridge Structural Database (CSD) v543 
# hosted by the Cambridge Crystallographic Data Centre (CCDC).
#
# This work is licensed under the Creative Commons
# Attribution-NonCommercial-ShareAlike 4.0 International License.
# To view a copy of this license, visit
# http://creativecommons.org/licenses/by-nc-sa/4.0/
# or send a letter to
# Creative Commons, PO Box 1866, Mountain View, CA 94042, USA.
#
# CIF created using the CSD Python API on 29 September 2022
# The structure has been converted into the P1 space group
# The structure has a 3D framework
# The original CSD entry AMOKEV is in the tetragonal crystal system
# The original CSD entry AMOKEV is in a Sohncke space group
# The framework has been calculated to contain at least 10.0% void space
# The void calculation uses a probe of radius 1.32A, grid spacing 0.4
#
###############################################################################

data_AMOKEV
_chemical_formula_moiety         '(C84 H40 Fe6 O38)n'
_symmetry_cell_setting           triclinic
_symmetry_space_group_name_H-M   'P 1'
_symmetry_Int_Tables_number      1
_space_group_name_Hall           'P 1'
loop_
_symmetry_equiv_pos_site_id
_symmetry_equiv_pos_as_xyz
1 x,y,z
_cell_length_a                   15.102(2)
_cell_length_b                   15.102(2)
_cell_length_c                   11.9998(15)
_cell_angle_alpha                90
_cell_angle_beta                 90
_cell_angle_gamma                90
_cell_volume                     2736.8
loop_
_atom_site_label
_atom_site_type_symbol
_atom_site_fract_x
_atom_site_fract_y
_atom_site_fract_z
_atom_site_U_iso_or_equiv
_atom_site_thermal_displace_type
O4 O 0.6221(7) 0.3834(7) 0.3925(5) 0.0129 Uiso
O5 O 0.7107(5) 0.4025(8) 0.2535(6) 0.0129 Uiso
C6 C 0.6394(4) 0.4106(6) 0.2996(4) 0.0253 Uiso
C7 C 0.56891(15) 0.4566(2) 0.2384(3) 0.0253 Uiso
C8 C 0.500 0.500 0.2976(4) 0.0253 Uiso
C9 C 0.56891(15) 0.4566(2) 0.1201(2) 0.0253 Uiso
C10 C 0.500 0.500 0.0609(2) 0.0253 Uiso
H3 H 0.500 0.500 0.3851(7) 0.0253 Uiso
H4 H 0.6199(4) 0.4245(4) 0.0763(4) 0.0253 Uiso
O6 O 0.3779(7) 0.6166(7) 0.3925(5) 0.0129 Uiso
O7 O 0.2893(5) 0.5975(8) 0.2535(6) 0.0129 Uiso
C11 C 0.3606(4) 0.5894(6) 0.2996(4) 0.0253 Uiso
C12 C 0.43109(15) 0.5434(2) 0.2384(3) 0.0253 Uiso
C13 C 0.43109(15) 0.5434(2) 0.1201(2) 0.0253 Uiso
H5 H 0.3801(4) 0.5755(4) 0.0763(4) 0.0253 Uiso
Fe2 Fe 0.8020(2) 0.3020(2) 0.250 0.0391 Uiso
O10 O 0.7454(6) 0.250 0.125 0.0129 Uiso
Fe3 Fe 0.6980(2) 0.3020(2) 0.500 0.0391 Uiso
Fe5 Fe 0.8020(2) 0.1980(2) -0.000 0.0391 Uiso
Fe7 Fe 0.1980(2) 0.6980(2) 0.250 0.0391 Uiso
Fe9 Fe 0.3020(2) 0.6980(2) 0.500 0.0391 Uiso
O12 O 0.750 0.2454(6) 0.375 0.0129 Uiso
O13 O 0.8834(7) 0.3779(7) 0.1425(5) 0.0129 Uiso
O15 O 0.8779(7) 0.3834(7) 0.3575(5) 0.0129 Uiso
O18 O 0.9025(8) 0.2107(5) 0.2465(6) 0.0129 Uiso
O1 O 0.7546(6) 0.250 0.625 0.0129 Uiso
O2 O 0.6166(7) 0.3779(7) 0.6075(5) 0.0129 Uiso
O3 O 0.5975(8) 0.2893(5) 0.7465(6) 0.0129 Uiso
C1 C 0.5894(6) 0.3606(4) 0.7004(4) 0.0253 Uiso
C2 C 0.5434(2) 0.43109(15) 0.7616(3) 0.0253 Uiso
C3 C 0.500 0.500 0.7024(4) 0.0253 Uiso
C4 C 0.5434(2) 0.43109(15) 0.8799(2) 0.0253 Uiso
C5 C 0.500 0.500 0.9391(2) 0.0253 Uiso
D1 D 0.8142(12) 0.250 0.625 0.0129 Uiso
H1 H 0.500 0.500 0.6149(7) 0.0253 Uiso
H2 H 0.5755(4) 0.3801(4) 0.9237(4) 0.0253 Uiso
O8 O 0.3834(7) 0.6221(7) 0.6075(5) 0.0129 Uiso
O9 O 0.4025(8) 0.7107(5) 0.7465(6) 0.0129 Uiso
C14 C 0.4106(6) 0.6394(4) 0.7004(4) 0.0253 Uiso
C15 C 0.4566(2) 0.56891(15) 0.7616(3) 0.0253 Uiso
C16 C 0.4566(2) 0.56891(15) 0.8799(2) 0.0253 Uiso
H6 H 0.4245(4) 0.6199(4) 0.9237(4) 0.0253 Uiso
Fe4 Fe 0.6980(2) 0.1980(2) 0.750 0.0391 Uiso
Fe5_2 Fe 0.8020(2) 0.1980(2) 1.000 0.0391 Uiso
Fe6 Fe 0.3020(2) 0.8020(2) 0.750 0.0391 Uiso
O16 O 0.7893(5) 0.4025(8) 0.4965(6) 0.0129 Uiso
O17 O 0.5975(8) 0.2107(5) 0.5035(6) 0.0129 Uiso
C3_2 C -0.000 0.500 0.0476(4) 0.0253 Uiso
H1_2 H -0.000 0.500 0.1351(7) 0.0253 Uiso
O8_2 O 0.1166(7) 0.6221(7) 0.1425(5) 0.0129 Uiso
O9_2 O 0.0975(8) 0.7107(5) 0.0035(6) 0.0129 Uiso
C14_2 C 0.0894(6) 0.6394(4) 0.0496(4) 0.0253 Uiso
Fe6_2 Fe 0.1980(2) 0.8020(2) 0.000 0.0391 Uiso
C5_2 C -0.000 0.500 0.8109(2) 0.0253 Uiso
C8_2 C 0.000 0.500 0.4524(4) 0.0253 Uiso
C10_2 C -0.000 0.500 0.6891(2) 0.0253 Uiso
H3_2 H -0.000 0.500 0.3649(7) 0.0253 Uiso
O6_2 O 0.1221(7) 0.6166(7) 0.3575(5) 0.0129 Uiso
O7_2 O 0.2107(5) 0.5975(8) 0.4965(6) 0.0129 Uiso
C11_2 C 0.1394(4) 0.5894(6) 0.4504(4) 0.0253 Uiso
C12_2 C 0.06891(15) 0.5434(2) 0.5116(3) 0.0253 Uiso
C13_2 C 0.06891(15) 0.5434(2) 0.6299(2) 0.0253 Uiso
H5_2 H 0.1199(4) 0.5755(4) 0.6737(4) 0.0253 Uiso
C15_2 C 0.0434(2) 0.56891(15) 0.9884(3) 0.0253 Uiso
C16_2 C 0.0434(2) 0.56891(15) 0.8701(2) 0.0253 Uiso
H6_2 H 0.0755(4) 0.6199(4) 0.8263(4) 0.0253 Uiso
Fe6_3 Fe 0.1980(2) 0.8020(2) 1.000 0.0391 Uiso
O3_2 O 0.9025(8) 0.2893(5) 0.0035(6) 0.0129 Uiso
C1_2 C 0.9106(6) 0.3606(4) 0.0496(4) 0.0253 Uiso
C3_3 C 1.000 0.500 0.0476(4) 0.0253 Uiso
D1_2 D 0.6858(12) 0.250 0.125 0.0129 Uiso
H1_3 H 1.000 0.500 0.1351(7) 0.0253 Uiso
C2_2 C 0.9566(2) 0.43109(15) 0.9884(3) 0.0253 Uiso
C4_2 C 0.9566(2) 0.43109(15) 0.8701(2) 0.0253 Uiso
C5_3 C 1.000 0.500 0.8109(2) 0.0253 Uiso
H2_2 H 0.9245(4) 0.3801(4) 0.8263(4) 0.0253 Uiso
C6_2 C 0.8606(4) 0.4106(6) 0.4504(4) 0.0253 Uiso
C7_2 C 0.93109(15) 0.4566(2) 0.5116(3) 0.0253 Uiso
C8_3 C 1.000 0.500 0.4524(4) 0.0253 Uiso
C9_2 C 0.93109(15) 0.4566(2) 0.6299(2) 0.0253 Uiso
C10_3 C 1.000 0.500 0.6891(2) 0.0253 Uiso
H3_3 H 1.000 0.500 0.3649(7) 0.0253 Uiso
H4_2 H 0.8801(4) 0.4245(4) 0.6737(4) 0.0253 Uiso
D1_3 D 0.750 0.1858(12) 0.375 0.0129 Uiso
O10_2 O 0.750 0.2546(6) 0.875 0.0129 Uiso
O13_2 O 0.6221(7) 0.1166(7) 0.8575(5) 0.0129 Uiso
O15_2 O 0.6166(7) 0.1221(7) 0.6425(5) 0.0129 Uiso
O18_2 O 0.7893(5) 0.0975(8) 0.7535(6) 0.0129 Uiso
C2_3 C 0.56891(15) 0.0434(2) 0.0116(3) 0.0253 Uiso
C4_3 C 0.56891(15) 0.0434(2) 0.1299(2) 0.0253 Uiso
C5_4 C 0.500 0.000 0.1891(2) 0.0253 Uiso
H2_3 H 0.6199(4) 0.0755(4) 0.1737(4) 0.0253 Uiso
C6_3 C 0.5894(6) 0.1394(4) 0.5496(4) 0.0253 Uiso
C7_3 C 0.5434(2) 0.06891(15) 0.4884(3) 0.0253 Uiso
C8_4 C 0.500 0.000 0.5476(4) 0.0253 Uiso
C9_3 C 0.5434(2) 0.06891(15) 0.3701(2) 0.0253 Uiso
C10_4 C 0.500 0.000 0.3109(2) 0.0253 Uiso
H3_4 H 0.500 0.000 0.6351(7) 0.0253 Uiso
H4_3 H 0.5755(4) 0.1199(4) 0.3263(4) 0.0253 Uiso
O3_3 O 0.7107(5) 0.0975(8) 0.9965(6) 0.0129 Uiso
C1_3 C 0.6394(4) 0.0894(6) 0.9504(4) 0.0253 Uiso
C3_4 C 0.500 0.000 0.9524(4) 0.0253 Uiso
D1_4 D 0.750 0.3142(12) 0.875 0.0129 Uiso
H1_4 H 0.500 0.000 0.8649(7) 0.0253 Uiso
C5_5 C 0.500 1.000 0.1891(2) 0.0253 Uiso
C8_5 C 0.500 1.000 0.5476(4) 0.0253 Uiso
C10_5 C 0.500 1.000 0.3109(2) 0.0253 Uiso
H3_5 H 0.500 1.000 0.6351(7) 0.0253 Uiso
O6_3 O 0.3834(7) 0.8779(7) 0.6425(5) 0.0129 Uiso
O7_3 O 0.4025(8) 0.7893(5) 0.5035(6) 0.0129 Uiso
C11_3 C 0.4106(6) 0.8606(4) 0.5496(4) 0.0253 Uiso
C12_3 C 0.4566(2) 0.93109(15) 0.4884(3) 0.0253 Uiso
C13_3 C 0.4566(2) 0.93109(15) 0.3701(2) 0.0253 Uiso
H5_3 H 0.4245(4) 0.8801(4) 0.3263(4) 0.0253 Uiso
C15_3 C 0.43109(15) 0.9566(2) 0.0116(3) 0.0253 Uiso
C16_3 C 0.43109(15) 0.9566(2) 0.1299(2) 0.0253 Uiso
H6_3 H 0.3801(4) 0.9245(4) 0.1737(4) 0.0253 Uiso
C3_5 C 0.500 1.000 0.9524(4) 0.0253 Uiso
H1_5 H 0.500 1.000 0.8649(7) 0.0253 Uiso
O8_3 O 0.3779(7) 0.8834(7) 0.8575(5) 0.0129 Uiso
O9_3 O 0.2893(5) 0.9025(8) 0.9965(6) 0.0129 Uiso
C14_3 C 0.3606(4) 0.9106(6) 0.9504(4) 0.0253 Uiso
O15_3 O 0.8834(7) 0.1221(7) 0.1075(5) 0.0129 Uiso
O13_3 O 0.8779(7) 0.1166(7) 0.8925(5) 0.0129 Uiso
C3_6 C -0.000 1.000 0.7976(4) 0.0253 Uiso
C5_6 C -0.000 1.000 0.5609(2) 0.0253 Uiso
H1_6 H -0.000 1.000 0.8851(7) 0.0253 Uiso
C8_6 C -0.000 1.000 0.2024(4) 0.0253 Uiso
C10_6 C -0.000 1.000 0.4391(2) 0.0253 Uiso
H3_6 H -0.000 1.000 0.1149(7) 0.0253 Uiso
O6_4 O 0.1166(7) 0.8779(7) 0.1075(5) 0.0129 Uiso
O7_4 O 0.0975(8) 0.7893(5) 0.2465(6) 0.0129 Uiso
C11_4 C 0.0894(6) 0.8606(4) 0.2004(4) 0.0253 Uiso
C12_4 C 0.0434(2) 0.93109(15) 0.2616(3) 0.0253 Uiso
C13_4 C 0.0434(2) 0.93109(15) 0.3799(2) 0.0253 Uiso
H5_4 H 0.0755(4) 0.8801(4) 0.4237(4) 0.0253 Uiso
O8_4 O 0.1221(7) 0.8834(7) 0.8925(5) 0.0129 Uiso
O9_4 O 0.2107(5) 0.9025(8) 0.7535(6) 0.0129 Uiso
C14_4 C 0.1394(4) 0.9106(6) 0.7996(4) 0.0253 Uiso
C15_4 C 0.06891(15) 0.9566(2) 0.7384(3) 0.0253 Uiso
C16_4 C 0.06891(15) 0.9566(2) 0.6201(2) 0.0253 Uiso
H6_4 H 0.1199(4) 0.9245(4) 0.5763(4) 0.0253 Uiso
C1_4 C 0.8606(4) 0.0894(6) 0.7996(4) 0.0253 Uiso
C2_4 C 0.93109(15) 0.0434(2) 0.7384(3) 0.0253 Uiso
C3_7 C 1.000 0.000 0.7976(4) 0.0253 Uiso
C4_4 C 0.93109(15) 0.0434(2) 0.6201(2) 0.0253 Uiso
C5_7 C 1.000 0.000 0.5609(2) 0.0253 Uiso
H1_7 H 1.000 0.000 0.8851(7) 0.0253 Uiso
H2_4 H 0.8801(4) 0.0755(4) 0.5763(4) 0.0253 Uiso
C6_4 C 0.9106(6) 0.1394(4) 0.2004(4) 0.0253 Uiso
C7_4 C 0.9566(2) 0.06891(15) 0.2616(3) 0.0253 Uiso
C8_7 C 1.000 0.000 0.2024(4) 0.0253 Uiso
C9_4 C 0.9566(2) 0.06891(15) 0.3799(2) 0.0253 Uiso
C10_7 C 1.000 0.000 0.4391(2) 0.0253 Uiso
H3_7 H 1.000 0.000 0.1149(7) 0.0253 Uiso
H4_4 H 0.9245(4) 0.1199(4) 0.4237(4) 0.0253 Uiso
O1_2 O 0.2546(6) 0.750 0.125 0.0129 Uiso
D1_5 D 0.3142(12) 0.750 0.125 0.0129 Uiso
O10_3 O 0.2454(6) 0.750 0.625 0.0129 Uiso
O12_2 O 0.250 0.7454(6) 0.875 0.0129 Uiso
D1_6 D 0.1858(12) 0.750 0.625 0.0129 Uiso
D1_7 D 0.250 0.6858(12) 0.875 0.0129 Uiso
O10_4 O 0.250 0.7546(6) 0.375 0.0129 Uiso
D1_8 D 0.250 0.8142(12) 0.375 0.0129 Uiso
C3_8 C -0.000 0.000 0.7976(4) 0.0253 Uiso
C5_8 C -0.000 0.000 0.5609(2) 0.0253 Uiso
H1_8 H -0.000 0.000 0.8851(7) 0.0253 Uiso
C8_8 C -0.000 0.000 0.2024(4) 0.0253 Uiso
C10_8 C -0.000 0.000 0.4391(2) 0.0253 Uiso
H3_8 H -0.000 0.000 0.1149(7) 0.0253 Uiso
C3_9 C 1.000 1.000 0.7976(4) 0.0253 Uiso
C5_9 C 1.000 1.000 0.5609(2) 0.0253 Uiso
H1_9 H 1.000 1.000 0.8851(7) 0.0253 Uiso
C8_9 C 1.000 1.000 0.2024(4) 0.0253 Uiso
C10_9 C 1.000 1.000 0.4391(2) 0.0253 Uiso
H3_9 H 1.000 1.000 0.1149(7) 0.0253 Uiso
loop_
_geom_bond_atom_site_label_1
_geom_bond_atom_site_label_2
_geom_bond_site_symmetry_1
_geom_bond_site_symmetry_2
O4 C6 1_555 1_555
O5 C6 1_555 1_555
C6 C7 1_555 1_555
C7 C8 1_555 1_555
C8 H3 1_555 1_555
C9 C7 1_555 1_555
H4 C9 1_555 1_555
O6 C11 1_555 1_555
O7 C11 1_555 1_555
C11 C12 1_555 1_555
C12 C8 1_555 1_555
C13 C10 1_555 1_555
H5 C13 1_555 1_555
Fe2 O5 1_555 1_555
O10 Fe2 1_555 1_555
Fe3 O4 1_555 1_555
Fe5 O10 1_555 1_555
Fe7 O7 1_555 1_555
Fe9 O6 1_555 1_555
O12 Fe2 1_555 1_555
O13 Fe2 1_555 1_555
O15 Fe2 1_555 1_555
O18 Fe2 1_555 1_555
C9 C10 1_555 1_555
C12 C13 1_555 1_555
Fe3 O12 1_555 1_555
Fe3 O1 1_555 1_555
O1 D1 1_555 1_555
O2 Fe3 1_555 1_555
O3 C1 1_555 1_555
C1 O2 1_555 1_555
C2 C1 1_555 1_555
C3 C2 1_555 1_555
C4 C2 1_555 1_555
C5 C4 1_555 1_555
H1 C3 1_555 1_555
H2 C4 1_555 1_555
O8 C14 1_555 1_555
O9 C14 1_555 1_555
C14 C15 1_555 1_555
C15 C3 1_555 1_555
C16 C5 1_555 1_555
H6 C16 1_555 1_555
Fe4 O1 1_555 1_555
Fe6 O9 1_555 1_555
Fe9 O8 1_555 1_555
O16 Fe3 1_555 1_555
O17 Fe3 1_555 1_555
O3 Fe4 1_555 1_555
C15 C16 1_555 1_555
H1_2 C3_2 1_555 1_555
O8_2 C14_2 1_555 1_555
O9_2 C14_2 1_555 1_555
Fe6_2 O9_2 1_555 1_555
Fe7 O8_2 1_555 1_555
C8_2 H3_2 1_555 1_555
C10_2 C5_2 1_555 1_555
O6_2 C11_2 1_555 1_555
O7_2 C11_2 1_555 1_555
C11_2 C12_2 1_555 1_555
C12_2 C8_2 1_555 1_555
C13_2 C10_2 1_555 1_555
H5_2 C13_2 1_555 1_555
C16_2 C5_2 1_555 1_555
H6_2 C16_2 1_555 1_555
Fe9 O7_2 1_555 1_555
Fe7 O6_2 1_555 1_555
C12_2 C13_2 1_555 1_555
C15_2 C16_2 1_555 1_555
O10 D1_2 1_555 1_555
O3_2 C1_2 1_555 1_555
C1_2 O13 1_555 1_555
H1_3 C3_3 1_555 1_555
O3_2 Fe5 1_555 1_555
C4_2 C2_2 1_555 1_555
C5_3 C4_2 1_555 1_555
H2_2 C4_2 1_555 1_555
O15 C6_2 1_555 1_555
O16 C6_2 1_555 1_555
C6_2 C7_2 1_555 1_555
C7_2 C8_3 1_555 1_555
C8_3 H3_3 1_555 1_555
C9_2 C7_2 1_555 1_555
C10_3 C5_3 1_555 1_555
H4_2 C9_2 1_555 1_555
C9_2 C10_3 1_555 1_555
O12 D1_3 1_555 1_555
O10_2 Fe4 1_555 1_555
Fe5_2 O10_2 1_555 1_555
O13_2 Fe4 1_555 1_555
O15_2 Fe4 1_555 1_555
O18_2 Fe4 1_555 1_555
C4_3 C2_3 1_555 1_555
C5_4 C4_3 1_555 1_555
H2_3 C4_3 1_555 1_555
O15_2 C6_3 1_555 1_555
O17 C6_3 1_555 1_555
C6_3 C7_3 1_555 1_555
C7_3 C8_4 1_555 1_555
C8_4 H3_4 1_555 1_555
C9_3 C7_3 1_555 1_555
C10_4 C5_4 1_555 1_555
H4_3 C9_3 1_555 1_555
C9_3 C10_4 1_555 1_555
O10_2 D1_4 1_555 1_555
O3_3 C1_3 1_555 1_555
C1_3 O13_2 1_555 1_555
H1_4 C3_4 1_555 1_555
O3_3 Fe5_2 1_555 1_555
C8_5 H3_5 1_555 1_555
C10_5 C5_5 1_555 1_555
O6_3 C11_3 1_555 1_555
O7_3 C11_3 1_555 1_555
C11_3 C12_3 1_555 1_555
C12_3 C8_5 1_555 1_555
C13_3 C10_5 1_555 1_555
H5_3 C13_3 1_555 1_555
C16_3 C5_5 1_555 1_555
H6_3 C16_3 1_555 1_555
Fe9 O7_3 1_555 1_555
Fe6 O6_3 1_555 1_555
C12_3 C13_3 1_555 1_555
C15_3 C16_3 1_555 1_555
H1_5 C3_5 1_555 1_555
O8_3 C14_3 1_555 1_555
O9_3 C14_3 1_555 1_555
Fe6_3 O9_3 1_555 1_555
Fe6 O8_3 1_555 1_555
O15_3 Fe5 1_555 1_555
O13_3 Fe5_2 1_555 1_555
H1_6 C3_6 1_555 1_555
C8_6 H3_6 1_555 1_555
C10_6 C5_6 1_555 1_555
O6_4 C11_4 1_555 1_555
O7_4 C11_4 1_555 1_555
C11_4 C12_4 1_555 1_555
C12_4 C8_6 1_555 1_555
C13_4 C10_6 1_555 1_555
H5_4 C13_4 1_555 1_555
O8_4 C14_4 1_555 1_555
O9_4 C14_4 1_555 1_555
C14_4 C15_4 1_555 1_555
C15_4 C3_6 1_555 1_555
C16_4 C5_6 1_555 1_555
H6_4 C16_4 1_555 1_555
Fe6 O9_4 1_555 1_555
Fe7 O7_4 1_555 1_555
Fe6_3 O8_4 1_555 1_555
Fe6_2 O6_4 1_555 1_555
C12_4 C13_4 1_555 1_555
C15_4 C16_4 1_555 1_555
O18_2 C1_4 1_555 1_555
C1_4 O13_3 1_555 1_555
C2_4 C1_4 1_555 1_555
C3_7 C2_4 1_555 1_555
C4_4 C2_4 1_555 1_555
C5_7 C4_4 1_555 1_555
H1_7 C3_7 1_555 1_555
H2_4 C4_4 1_555 1_555
O15_3 C6_4 1_555 1_555
O18 C6_4 1_555 1_555
C6_4 C7_4 1_555 1_555
C7_4 C8_7 1_555 1_555
C8_7 H3_7 1_555 1_555
C9_4 C7_4 1_555 1_555
C10_7 C5_7 1_555 1_555
H4_4 C9_4 1_555 1_555
C9_4 C10_7 1_555 1_555
Fe6_2 O1_2 1_555 1_555
O1_2 D1_5 1_555 1_555
O10_3 Fe6 1_555 1_555
Fe7 O1_2 1_555 1_555
Fe9 O10_3 1_555 1_555
O12_2 Fe6 1_555 1_555
Fe6_3 O12_2 1_555 1_555
O10_3 D1_6 1_555 1_555
O12_2 D1_7 1_555 1_555
O10_4 Fe7 1_555 1_555
Fe9 O10_4 1_555 1_555
O10_4 D1_8 1_555 1_555
H1_8 C3_8 1_555 1_555
C8_8 H3_8 1_555 1_555
C10_8 C5_8 1_555 1_555
H1_9 C3_9 1_555 1_555
C8_9 H3_9 1_555 1_555
C10_9 C5_9 1_555 1_555

#END
