
###############################################################################
#
# This file contains modified crystal structure data generated from the
# MOF subset of the Cambridge Structural Database (CSD) v543 
# hosted by the Cambridge Crystallographic Data Centre (CCDC).
#
# This work is licensed under the Creative Commons
# Attribution-NonCommercial-ShareAlike 4.0 International License.
# To view a copy of this license, visit
# http://creativecommons.org/licenses/by-nc-sa/4.0/
# or send a letter to
# Creative Commons, PO Box 1866, Mountain View, CA 94042, USA.
#
# CIF created using the CSD Python API on 29 September 2022
# The structure has been converted into the P1 space group
# The structure has a 3D framework
# The original CSD entry AMOKIZ is in the tetragonal crystal system
# The original CSD entry AMOKIZ is in a Sohncke space group
# The framework has been calculated to contain at least 10.0% void space
# The void calculation uses a probe of radius 1.32A, grid spacing 0.4
#
###############################################################################

data_AMOKIZ
_chemical_formula_moiety         '(C84 H40 In6 O34)n'
_symmetry_cell_setting           triclinic
_symmetry_space_group_name_H-M   'P 1'
_symmetry_Int_Tables_number      1
_space_group_name_Hall           'P 1'
loop_
_symmetry_equiv_pos_site_id
_symmetry_equiv_pos_as_xyz
1 x,y,z
_cell_length_a                   15.4911(12)
_cell_length_b                   15.4911(12)
_cell_length_c                   12.3275(9)
_cell_angle_alpha                90
_cell_angle_beta                 90
_cell_angle_gamma                90
_cell_volume                     2958.28
loop_
_atom_site_label
_atom_site_type_symbol
_atom_site_fract_x
_atom_site_fract_y
_atom_site_fract_z
_atom_site_U_iso_or_equiv
_atom_site_thermal_displace_type
O4 O 0.6162(5) 0.3873(5) 0.3877(3) 0.0063 Uiso
O5 O 0.7103(3) 0.4085(5) 0.2440(4) 0.0063 Uiso
C6 C 0.6369(3) 0.4159(4) 0.2929(3) 0.0090 Uiso
C7 C 0.56871(9) 0.46253(13) 0.2332(2) 0.0090 Uiso
C8 C 0.500 0.500 0.2900(2) 0.0090 Uiso
C9 C 0.56871(9) 0.46253(13) 0.11965(16) 0.0090 Uiso
C10 C 0.500 0.500 0.06287(16) 0.0090 Uiso
H4 H 0.500 0.500 0.3723(5) 0.0090 Uiso
H5 H 0.6185(3) 0.4354(3) 0.0785(3) 0.0090 Uiso
O6 O 0.3838(5) 0.6127(5) 0.3877(3) 0.0063 Uiso
O7 O 0.2897(3) 0.5915(5) 0.2440(4) 0.0063 Uiso
C11 C 0.3631(3) 0.5841(4) 0.2929(3) 0.0090 Uiso
C12 C 0.43129(9) 0.53747(13) 0.2332(2) 0.0090 Uiso
C13 C 0.43129(9) 0.53747(13) 0.11965(16) 0.0090 Uiso
H6 H 0.3815(3) 0.5646(3) 0.0785(3) 0.0090 Uiso
In2 In 0.8111(3) 0.3111(3) 0.250 0.0063 Uiso
O10 O 0.7482(4) 0.250 0.125 0.0063 Uiso
In3 In 0.6889(3) 0.3111(3) 0.500 0.0063 Uiso
In5 In 0.8111(3) 0.1889(3) 0.000 0.0063 Uiso
In7 In 0.1889(3) 0.6889(3) 0.250 0.0063 Uiso
In9 In 0.3111(3) 0.6889(3) 0.500 0.0063 Uiso
O12 O 0.750 0.2482(4) 0.375 0.0063 Uiso
O13 O 0.8873(5) 0.3838(5) 0.1377(3) 0.0063 Uiso
O15 O 0.8838(5) 0.3873(5) 0.3623(3) 0.0063 Uiso
O18 O 0.9085(5) 0.2103(3) 0.2560(4) 0.0063 Uiso
O1 O 0.7518(4) 0.250 0.625 0.0063 Uiso
O2 O 0.6127(5) 0.3838(5) 0.6123(3) 0.0063 Uiso
O3 O 0.5915(5) 0.2897(3) 0.7560(4) 0.0063 Uiso
C1 C 0.5841(4) 0.3631(3) 0.7071(3) 0.0090 Uiso
C2 C 0.53747(13) 0.43129(9) 0.7668(2) 0.0090 Uiso
C3 C 0.500 0.500 0.7100(2) 0.0090 Uiso
C4 C 0.53747(13) 0.43129(9) 0.88035(16) 0.0090 Uiso
C5 C 0.500 0.500 0.93713(16) 0.0090 Uiso
H1 H 0.8183(17) 0.250 0.625 0.0063 Uiso
H2 H 0.500 0.500 0.6277(5) 0.0090 Uiso
H3 H 0.5646(3) 0.3815(3) 0.9215(3) 0.0090 Uiso
O8 O 0.3873(5) 0.6162(5) 0.6123(3) 0.0063 Uiso
O9 O 0.4085(5) 0.7103(3) 0.7560(4) 0.0063 Uiso
C14 C 0.4159(4) 0.6369(3) 0.7071(3) 0.0090 Uiso
C15 C 0.46253(13) 0.56871(9) 0.7668(2) 0.0090 Uiso
C16 C 0.46253(13) 0.56871(9) 0.88035(16) 0.0090 Uiso
H7 H 0.4354(3) 0.6185(3) 0.9215(3) 0.0090 Uiso
In4 In 0.6889(3) 0.1889(3) 0.750 0.0063 Uiso
In5_2 In 0.8111(3) 0.1889(3) 1.000 0.0063 Uiso
In6 In 0.3111(3) 0.8111(3) 0.750 0.0063 Uiso
O16 O 0.7897(3) 0.4085(5) 0.5060(4) 0.0063 Uiso
O17 O 0.5915(5) 0.2103(3) 0.4940(4) 0.0063 Uiso
C3_2 C -0.000 0.500 0.0400(2) 0.0090 Uiso
H2_2 H -0.000 0.500 0.1223(5) 0.0090 Uiso
O8_2 O 0.1127(5) 0.6162(5) 0.1377(3) 0.0063 Uiso
C14_2 C 0.0841(4) 0.6369(3) 0.0429(3) 0.0090 Uiso
In6_2 In 0.1889(3) 0.8111(3) -0.000 0.0063 Uiso
C5_2 C -0.000 0.500 0.81287(16) 0.0090 Uiso
C8_2 C -0.000 0.500 0.4600(2) 0.0090 Uiso
C10_2 C -0.000 0.500 0.68713(16) 0.0090 Uiso
H4_2 H -0.000 0.500 0.3777(5) 0.0090 Uiso
O6_2 O 0.1162(5) 0.6127(5) 0.3623(3) 0.0063 Uiso
O7_2 O 0.2103(3) 0.5915(5) 0.5060(4) 0.0063 Uiso
C11_2 C 0.1369(3) 0.5841(4) 0.4571(3) 0.0090 Uiso
C12_2 C 0.06871(9) 0.53747(13) 0.5168(2) 0.0090 Uiso
C13_2 C 0.06871(9) 0.53747(13) 0.63035(16) 0.0090 Uiso
H6_2 H 0.1185(3) 0.5646(3) 0.6715(3) 0.0090 Uiso
O9_2 O 0.0915(5) 0.7103(3) 0.9940(4) 0.0063 Uiso
C15_2 C 0.03747(13) 0.56871(9) 0.9832(2) 0.0090 Uiso
C16_2 C 0.03747(13) 0.56871(9) 0.86965(16) 0.0090 Uiso
H7_2 H 0.0646(3) 0.6185(3) 0.8285(3) 0.0090 Uiso
In6_3 In 0.1889(3) 0.8111(3) 1.000 0.0063 Uiso
C1_2 C 0.9159(4) 0.3631(3) 0.0429(3) 0.0090 Uiso
C3_3 C 1.000 0.500 0.0400(2) 0.0090 Uiso
H1_2 H 0.6817(17) 0.250 0.125 0.0063 Uiso
H2_3 H 1.000 0.500 0.1223(5) 0.0090 Uiso
O3_2 O 0.9085(5) 0.2897(3) 0.9940(4) 0.0063 Uiso
C2_2 C 0.96253(13) 0.43129(9) 0.9832(2) 0.0090 Uiso
C4_2 C 0.96253(13) 0.43129(9) 0.86965(16) 0.0090 Uiso
C5_3 C 1.000 0.500 0.81287(16) 0.0090 Uiso
H3_2 H 0.9354(3) 0.3815(3) 0.8285(3) 0.0090 Uiso
C6_2 C 0.8631(3) 0.4159(4) 0.4571(3) 0.0090 Uiso
C7_2 C 0.93129(9) 0.46253(13) 0.5168(2) 0.0090 Uiso
C8_3 C 1.000 0.500 0.4600(2) 0.0090 Uiso
C9_2 C 0.93129(9) 0.46253(13) 0.63035(16) 0.0090 Uiso
C10_3 C 1.000 0.500 0.68713(16) 0.0090 Uiso
H4_3 H 1.000 0.500 0.3777(5) 0.0090 Uiso
H5_2 H 0.8815(3) 0.4354(3) 0.6715(3) 0.0090 Uiso
H1_3 H 0.750 0.1817(17) 0.375 0.0063 Uiso
O10_2 O 0.750 0.2518(4) 0.875 0.0063 Uiso
O13_2 O 0.6162(5) 0.1127(5) 0.8623(3) 0.0063 Uiso
O15_2 O 0.6127(5) 0.1162(5) 0.6377(3) 0.0063 Uiso
O18_2 O 0.7897(3) 0.0915(5) 0.7440(4) 0.0063 Uiso
O3_3 O 0.7103(3) 0.0915(5) 0.0060(4) 0.0063 Uiso
C2_3 C 0.56871(9) 0.03747(13) 0.0168(2) 0.0090 Uiso
C4_3 C 0.56871(9) 0.03747(13) 0.13035(16) 0.0090 Uiso
C5_4 C 0.500 0.000 0.18713(16) 0.0090 Uiso
H3_3 H 0.6185(3) 0.0646(3) 0.1715(3) 0.0090 Uiso
C6_3 C 0.5841(4) 0.1369(3) 0.5429(3) 0.0090 Uiso
C7_3 C 0.53747(13) 0.06871(9) 0.4832(2) 0.0090 Uiso
C8_4 C 0.500 -0.000 0.5400(2) 0.0090 Uiso
C9_3 C 0.53747(13) 0.06871(9) 0.36965(16) 0.0090 Uiso
C10_4 C 0.500 0.000 0.31287(16) 0.0090 Uiso
H4_4 H 0.500 0.000 0.6223(5) 0.0090 Uiso
H5_3 H 0.5646(3) 0.1185(3) 0.3285(3) 0.0090 Uiso
C1_3 C 0.6369(3) 0.0841(4) 0.9571(3) 0.0090 Uiso
C3_4 C 0.500 0.000 0.9600(2) 0.0090 Uiso
H1_4 H 0.750 0.3183(17) 0.875 0.0063 Uiso
H2_4 H 0.500 0.000 0.8777(5) 0.0090 Uiso
C5_5 C 0.500 1.000 0.18713(16) 0.0090 Uiso
C8_5 C 0.500 1.000 0.5400(2) 0.0090 Uiso
C10_5 C 0.500 1.000 0.31287(16) 0.0090 Uiso
H4_5 H 0.500 1.000 0.6223(5) 0.0090 Uiso
O6_3 O 0.3873(5) 0.8838(5) 0.6377(3) 0.0063 Uiso
O7_3 O 0.4085(5) 0.7897(3) 0.4940(4) 0.0063 Uiso
C11_3 C 0.4159(4) 0.8631(3) 0.5429(3) 0.0090 Uiso
C12_3 C 0.46253(13) 0.93129(9) 0.4832(2) 0.0090 Uiso
C13_3 C 0.46253(13) 0.93129(9) 0.36965(16) 0.0090 Uiso
H6_3 H 0.4354(3) 0.8815(3) 0.3285(3) 0.0090 Uiso
O9_3 O 0.2897(3) 0.9085(5) 0.0060(4) 0.0063 Uiso
C15_3 C 0.43129(9) 0.96253(13) 0.0168(2) 0.0090 Uiso
C16_3 C 0.43129(9) 0.96253(13) 0.13035(16) 0.0090 Uiso
H7_3 H 0.3815(3) 0.9354(3) 0.1715(3) 0.0090 Uiso
C3_5 C 0.500 1.000 0.9600(2) 0.0090 Uiso
H2_5 H 0.500 1.000 0.8777(5) 0.0090 Uiso
O8_3 O 0.3838(5) 0.8873(5) 0.8623(3) 0.0063 Uiso
C14_3 C 0.3631(3) 0.9159(4) 0.9571(3) 0.0090 Uiso
O15_3 O 0.8873(5) 0.1162(5) 0.1123(3) 0.0063 Uiso
O13_3 O 0.8838(5) 0.1127(5) 0.8877(3) 0.0063 Uiso
C3_6 C -0.000 1.000 0.7900(2) 0.0090 Uiso
C5_6 C -0.000 1.000 0.56287(16) 0.0090 Uiso
H2_6 H -0.000 1.000 0.8723(5) 0.0090 Uiso
C8_6 C -0.000 1.000 0.2100(2) 0.0090 Uiso
C10_6 C -0.000 1.000 0.43713(16) 0.0090 Uiso
H4_6 H -0.000 1.000 0.1277(5) 0.0090 Uiso
O6_4 O 0.1127(5) 0.8838(5) 0.1123(3) 0.0063 Uiso
O7_4 O 0.0915(5) 0.7897(3) 0.2560(4) 0.0063 Uiso
C11_4 C 0.0841(4) 0.8631(3) 0.2071(3) 0.0090 Uiso
C12_4 C 0.03747(13) 0.93129(9) 0.2668(2) 0.0090 Uiso
C13_4 C 0.03747(13) 0.93129(9) 0.38035(16) 0.0090 Uiso
H6_4 H 0.0646(3) 0.8815(3) 0.4215(3) 0.0090 Uiso
O8_4 O 0.1162(5) 0.8873(5) 0.8877(3) 0.0063 Uiso
O9_4 O 0.2103(3) 0.9085(5) 0.7440(4) 0.0063 Uiso
C14_4 C 0.1369(3) 0.9159(4) 0.7929(3) 0.0090 Uiso
C15_4 C 0.06871(9) 0.96253(13) 0.7332(2) 0.0090 Uiso
C16_4 C 0.06871(9) 0.96253(13) 0.61965(16) 0.0090 Uiso
H7_4 H 0.1185(3) 0.9354(3) 0.5785(3) 0.0090 Uiso
C1_4 C 0.8631(3) 0.0841(4) 0.7929(3) 0.0090 Uiso
C2_4 C 0.93129(9) 0.03747(13) 0.7332(2) 0.0090 Uiso
C3_7 C 1.000 0.000 0.7900(2) 0.0090 Uiso
C4_4 C 0.93129(9) 0.03747(13) 0.61965(16) 0.0090 Uiso
C5_7 C 1.000 0.000 0.56287(16) 0.0090 Uiso
H2_7 H 1.000 0.000 0.8723(5) 0.0090 Uiso
H3_4 H 0.8815(3) 0.0646(3) 0.5785(3) 0.0090 Uiso
C6_4 C 0.9159(4) 0.1369(3) 0.2071(3) 0.0090 Uiso
C7_4 C 0.96253(13) 0.06871(9) 0.2668(2) 0.0090 Uiso
C8_7 C 1.000 -0.000 0.2100(2) 0.0090 Uiso
C9_4 C 0.96253(13) 0.06871(9) 0.38035(16) 0.0090 Uiso
C10_7 C 1.000 0.000 0.43713(16) 0.0090 Uiso
H4_7 H 1.000 -0.000 0.1277(5) 0.0090 Uiso
H5_4 H 0.9354(3) 0.1185(3) 0.4215(3) 0.0090 Uiso
O1_2 O 0.2518(4) 0.750 0.125 0.0063 Uiso
H1_5 H 0.3183(17) 0.750 0.125 0.0063 Uiso
O10_3 O 0.2482(4) 0.750 0.625 0.0063 Uiso
O12_2 O 0.250 0.7482(4) 0.875 0.0063 Uiso
H1_6 H 0.1817(17) 0.750 0.625 0.0063 Uiso
H1_7 H 0.250 0.6817(17) 0.875 0.0063 Uiso
O10_4 O 0.250 0.7518(4) 0.375 0.0063 Uiso
H1_8 H 0.250 0.8183(17) 0.375 0.0063 Uiso
C3_8 C -0.000 0.000 0.7900(2) 0.0090 Uiso
C5_8 C -0.000 0.000 0.56287(16) 0.0090 Uiso
H2_8 H -0.000 0.000 0.8723(5) 0.0090 Uiso
C8_8 C -0.000 -0.000 0.2100(2) 0.0090 Uiso
C10_8 C -0.000 0.000 0.43713(16) 0.0090 Uiso
H4_8 H -0.000 -0.000 0.1277(5) 0.0090 Uiso
C3_9 C 1.000 1.000 0.7900(2) 0.0090 Uiso
C5_9 C 1.000 1.000 0.56287(16) 0.0090 Uiso
H2_9 H 1.000 1.000 0.8723(5) 0.0090 Uiso
C8_9 C 1.000 1.000 0.2100(2) 0.0090 Uiso
C10_9 C 1.000 1.000 0.43713(16) 0.0090 Uiso
H4_9 H 1.000 1.000 0.1277(5) 0.0090 Uiso
loop_
_geom_bond_atom_site_label_1
_geom_bond_atom_site_label_2
_geom_bond_site_symmetry_1
_geom_bond_site_symmetry_2
O4 C6 1_555 1_555
O5 C6 1_555 1_555
C6 C7 1_555 1_555
C7 C8 1_555 1_555
C8 H4 1_555 1_555
C9 C7 1_555 1_555
H5 C9 1_555 1_555
O6 C11 1_555 1_555
O7 C11 1_555 1_555
C11 C12 1_555 1_555
C12 C8 1_555 1_555
C13 C10 1_555 1_555
H6 C13 1_555 1_555
In2 O5 1_555 1_555
O10 In2 1_555 1_555
In3 O4 1_555 1_555
In5 O10 1_555 1_555
In7 O7 1_555 1_555
In9 O6 1_555 1_555
O12 In2 1_555 1_555
O13 In2 1_555 1_555
O15 In2 1_555 1_555
O18 In2 1_555 1_555
C9 C10 1_555 1_555
C12 C13 1_555 1_555
In3 O12 1_555 1_555
In3 O1 1_555 1_555
O1 H1 1_555 1_555
O2 In3 1_555 1_555
O3 C1 1_555 1_555
C1 O2 1_555 1_555
C2 C1 1_555 1_555
C3 C2 1_555 1_555
C4 C2 1_555 1_555
C5 C4 1_555 1_555
H2 C3 1_555 1_555
H3 C4 1_555 1_555
O8 C14 1_555 1_555
O9 C14 1_555 1_555
C14 C15 1_555 1_555
C15 C3 1_555 1_555
C16 C5 1_555 1_555
H7 C16 1_555 1_555
In4 O1 1_555 1_555
In6 O9 1_555 1_555
In9 O8 1_555 1_555
O16 In3 1_555 1_555
O17 In3 1_555 1_555
O3 In4 1_555 1_555
C15 C16 1_555 1_555
H2_2 C3_2 1_555 1_555
O8_2 C14_2 1_555 1_555
In7 O8_2 1_555 1_555
C8_2 H4_2 1_555 1_555
C10_2 C5_2 1_555 1_555
O6_2 C11_2 1_555 1_555
O7_2 C11_2 1_555 1_555
C11_2 C12_2 1_555 1_555
C12_2 C8_2 1_555 1_555
C13_2 C10_2 1_555 1_555
H6_2 C13_2 1_555 1_555
C16_2 C5_2 1_555 1_555
H7_2 C16_2 1_555 1_555
In6_3 O9_2 1_555 1_555
In9 O7_2 1_555 1_555
In7 O6_2 1_555 1_555
C12_2 C13_2 1_555 1_555
C15_2 C16_2 1_555 1_555
O10 H1_2 1_555 1_555
C1_2 O13 1_555 1_555
H2_3 C3_3 1_555 1_555
C4_2 C2_2 1_555 1_555
C5_3 C4_2 1_555 1_555
H3_2 C4_2 1_555 1_555
O15 C6_2 1_555 1_555
O16 C6_2 1_555 1_555
C6_2 C7_2 1_555 1_555
C7_2 C8_3 1_555 1_555
C8_3 H4_3 1_555 1_555
C9_2 C7_2 1_555 1_555
C10_3 C5_3 1_555 1_555
H5_2 C9_2 1_555 1_555
O3_2 In5_2 1_555 1_555
C9_2 C10_3 1_555 1_555
O12 H1_3 1_555 1_555
O10_2 In4 1_555 1_555
In5_2 O10_2 1_555 1_555
O13_2 In4 1_555 1_555
O15_2 In4 1_555 1_555
O18_2 In4 1_555 1_555
C4_3 C2_3 1_555 1_555
C5_4 C4_3 1_555 1_555
H3_3 C4_3 1_555 1_555
O15_2 C6_3 1_555 1_555
O17 C6_3 1_555 1_555
C6_3 C7_3 1_555 1_555
C7_3 C8_4 1_555 1_555
C8_4 H4_4 1_555 1_555
C9_3 C7_3 1_555 1_555
C10_4 C5_4 1_555 1_555
H5_3 C9_3 1_555 1_555
O3_3 In5 1_555 1_555
C9_3 C10_4 1_555 1_555
O10_2 H1_4 1_555 1_555
C1_3 O13_2 1_555 1_555
H2_4 C3_4 1_555 1_555
C8_5 H4_5 1_555 1_555
C10_5 C5_5 1_555 1_555
O6_3 C11_3 1_555 1_555
O7_3 C11_3 1_555 1_555
C11_3 C12_3 1_555 1_555
C12_3 C8_5 1_555 1_555
C13_3 C10_5 1_555 1_555
H6_3 C13_3 1_555 1_555
C16_3 C5_5 1_555 1_555
H7_3 C16_3 1_555 1_555
In6_2 O9_3 1_555 1_555
In9 O7_3 1_555 1_555
In6 O6_3 1_555 1_555
C12_3 C13_3 1_555 1_555
C15_3 C16_3 1_555 1_555
H2_5 C3_5 1_555 1_555
O8_3 C14_3 1_555 1_555
In6 O8_3 1_555 1_555
O15_3 In5 1_555 1_555
O13_3 In5_2 1_555 1_555
H2_6 C3_6 1_555 1_555
C8_6 H4_6 1_555 1_555
C10_6 C5_6 1_555 1_555
O6_4 C11_4 1_555 1_555
O7_4 C11_4 1_555 1_555
C11_4 C12_4 1_555 1_555
C12_4 C8_6 1_555 1_555
C13_4 C10_6 1_555 1_555
H6_4 C13_4 1_555 1_555
O8_4 C14_4 1_555 1_555
O9_4 C14_4 1_555 1_555
C14_4 C15_4 1_555 1_555
C15_4 C3_6 1_555 1_555
C16_4 C5_6 1_555 1_555
H7_4 C16_4 1_555 1_555
In6 O9_4 1_555 1_555
In7 O7_4 1_555 1_555
In6_3 O8_4 1_555 1_555
In6_2 O6_4 1_555 1_555
C12_4 C13_4 1_555 1_555
C15_4 C16_4 1_555 1_555
O18_2 C1_4 1_555 1_555
C1_4 O13_3 1_555 1_555
C2_4 C1_4 1_555 1_555
C3_7 C2_4 1_555 1_555
C4_4 C2_4 1_555 1_555
C5_7 C4_4 1_555 1_555
H2_7 C3_7 1_555 1_555
H3_4 C4_4 1_555 1_555
O15_3 C6_4 1_555 1_555
O18 C6_4 1_555 1_555
C6_4 C7_4 1_555 1_555
C7_4 C8_7 1_555 1_555
C8_7 H4_7 1_555 1_555
C9_4 C7_4 1_555 1_555
C10_7 C5_7 1_555 1_555
H5_4 C9_4 1_555 1_555
C9_4 C10_7 1_555 1_555
In6_2 O1_2 1_555 1_555
O1_2 H1_5 1_555 1_555
O10_3 In6 1_555 1_555
In7 O1_2 1_555 1_555
In9 O10_3 1_555 1_555
O12_2 In6 1_555 1_555
In6_3 O12_2 1_555 1_555
O10_3 H1_6 1_555 1_555
O12_2 H1_7 1_555 1_555
O10_4 In7 1_555 1_555
In9 O10_4 1_555 1_555
O10_4 H1_8 1_555 1_555
H2_8 C3_8 1_555 1_555
C8_8 H4_8 1_555 1_555
C10_8 C5_8 1_555 1_555
H2_9 C3_9 1_555 1_555
C8_9 H4_9 1_555 1_555
C10_9 C5_9 1_555 1_555

#END
