
###############################################################################
#
# This file contains modified crystal structure data generated from the
# MOF subset of the Cambridge Structural Database (CSD) v543 
# hosted by the Cambridge Crystallographic Data Centre (CCDC).
#
# This work is licensed under the Creative Commons
# Attribution-NonCommercial-ShareAlike 4.0 International License.
# To view a copy of this license, visit
# http://creativecommons.org/licenses/by-nc-sa/4.0/
# or send a letter to
# Creative Commons, PO Box 1866, Mountain View, CA 94042, USA.
#
# CIF created using the CSD Python API on 29 September 2022
# The structure has been converted into the P1 space group
# The structure has a 3D framework
# The original CSD entry AMUFUM is in the monoclinic crystal system
# The framework has been calculated to contain at least 10.0% void space
# The void calculation uses a probe of radius 1.32A, grid spacing 0.4
#
###############################################################################

data_AMUFUM
_chemical_formula_moiety         '(C152 H80 N16 O30 Zn8)n'
_symmetry_cell_setting           triclinic
_symmetry_space_group_name_H-M   'P 1'
_symmetry_Int_Tables_number      1
_space_group_name_Hall           'P 1'
loop_
_symmetry_equiv_pos_site_id
_symmetry_equiv_pos_as_xyz
1 x,y,z
_cell_length_a                   24.720(15)
_cell_length_b                   7.429(3)
_cell_length_c                   24.864(10)
_cell_angle_alpha                90
_cell_angle_beta                 117.29(4)
_cell_angle_gamma                90
_cell_volume                     4057.92
loop_
_atom_site_label
_atom_site_type_symbol
_atom_site_fract_x
_atom_site_fract_y
_atom_site_fract_z
Zn1 Zn 0.42748(2) 0.19545(9) 0.45640(3)
O1 O 0.34553(18) 0.2507(8) 0.4426(2)
O2 O 0.32198(18) 0.2397(7) 0.3448(2)
O3 O 0.05450(17) 0.5513(5) 0.06214(17)
N1 N 0.06583(18) 0.4898(6) 0.3234(2)
C1 C 0.3076(2) 0.2645(8) 0.3853(3)
C2 C 0.2436(2) 0.3162(8) 0.3714(3)
C3 C 0.2258(2) 0.3251(9) 0.4177(3)
H1 H 0.2540 0.2936 0.4568
C4 C 0.2015(2) 0.3610(8) 0.3113(2)
H2 H 0.2122 0.3523 0.2800
C5 C 0.1681(2) 0.3788(9) 0.4076(2)
H3 H 0.1570 0.3807 0.4387
C6 C 0.1432(2) 0.4188(7) 0.2999(2)
C7 C 0.1270(2) 0.4304(7) 0.3482(2)
C8 C 0.0904(2) 0.4730(7) 0.2448(2)
C9 C 0.0810(2) 0.4954(7) 0.1854(2)
H4 H 0.1118 0.4683 0.1750
C10 C 0.0248(2) 0.5592(7) 0.1419(2)
C11 C 0.0148(2) 0.5999(7) 0.0787(2)
C14 C 0.0431(2) 0.5125(7) 0.2605(2)
C15 C 0.0349(2) 0.5401(7) 0.3581(2)
C16 C 0.0665(2) 0.6275(8) 0.4135(3)
H7 H 0.1080 0.6498 0.4294
C17 C 0.0344(3) 0.6803(8) 0.4441(3)
H8 H 0.0554 0.7377 0.4812
Zn4 Zn 0.07252(2) 0.30455(9) 0.04360(3)
O6 O 0.46658(19) 0.1875(6) 0.54528(19)
N3 N 0.4734(2) 0.3479(7) 0.4224(2)
O5 O 0.44550(17) 0.9487(5) 0.43786(17)
O4 O 0.96658(19) 0.6875(6) 0.04528(19)
N2 N 0.9734(2) 0.6521(7) 0.4224(2)
C12 C 0.9772(2) 0.5932(8) 0.1577(2)
H5 H 0.9394 0.6302 0.1277
C13 C 0.9853(2) 0.5728(8) 0.2166(2)
H6 H 0.9541 0.5977 0.2266
C18 C 0.9728(2) 0.5025(8) 0.3365(2)
H9 H 0.9515 0.4376 0.3009
C19 C 0.9437(2) 0.5635(7) 0.3690(2)
H10 H 0.9021 0.5430 0.3538
Zn3 Zn 0.92748(2) 0.80455(9) 0.45640(3)
Zn2 Zn 0.92748(2) 0.69545(9) 0.95640(3)
Zn2_2 Zn 0.57252(2) 0.69545(9) 0.04360(3)
Zn1_2 Zn 0.07252(2) 0.19545(9) 0.54360(3)
O1_2 O 0.15447(18) 0.2507(8) 0.5574(2)
O2_2 O 0.17802(18) 0.2397(7) 0.6552(2)
O3_2 O 0.44550(17) 0.5513(5) 0.93786(17)
O4_2 O 0.53342(19) 0.6875(6) 0.95472(19)
N1_2 N 0.43417(18) 0.4898(6) 0.6766(2)
N2_2 N 0.5266(2) 0.6521(7) 0.5776(2)
C1_2 C 0.1924(2) 0.2645(8) 0.6147(3)
C2_2 C 0.2564(2) 0.3162(8) 0.6286(3)
C3_2 C 0.2742(2) 0.3251(9) 0.5823(3)
H1_2 H 0.2460 0.2936 0.5432
C4_2 C 0.2985(2) 0.3610(8) 0.6887(2)
H2_2 H 0.2878 0.3523 0.7200
C5_2 C 0.3319(2) 0.3788(9) 0.5924(2)
H3_2 H 0.3430 0.3807 0.5613
C6_2 C 0.3568(2) 0.4188(7) 0.7001(2)
C7_2 C 0.3730(2) 0.4304(7) 0.6518(2)
C8_2 C 0.4096(2) 0.4730(7) 0.7552(2)
C9_2 C 0.4190(2) 0.4954(7) 0.8146(2)
H4_2 H 0.3882 0.4683 0.8250
C10_2 C 0.4752(2) 0.5592(7) 0.8581(2)
C11_2 C 0.4852(2) 0.5999(7) 0.9213(2)
C12_2 C 0.5228(2) 0.5932(8) 0.8423(2)
H5_2 H 0.5606 0.6302 0.8723
C13_2 C 0.5147(2) 0.5728(8) 0.7834(2)
H6_2 H 0.5459 0.5977 0.7734
C14_2 C 0.4569(2) 0.5125(7) 0.7395(2)
C15_2 C 0.4651(2) 0.5401(7) 0.6419(2)
C16_2 C 0.4335(2) 0.6275(8) 0.5865(3)
H7_2 H 0.3920 0.6498 0.5706
C17_2 C 0.4656(3) 0.6803(8) 0.5559(3)
H8_2 H 0.4446 0.7377 0.5188
C18_2 C 0.5272(2) 0.5025(8) 0.6635(2)
H9_2 H 0.5485 0.4376 0.6991
C19_2 C 0.5563(2) 0.5635(7) 0.6310(2)
H10_2 H 0.5979 0.5430 0.6462
Zn3_2 Zn 0.57252(2) 0.80455(9) 0.54360(3)
Zn4_2 Zn 0.42748(2) 0.30455(9) 0.95640(3)
O6_2 O 0.03342(19) 0.1875(6) 0.45472(19)
N3_2 N 0.0266(2) 0.3479(7) 0.5776(2)
O3_3 O 0.55450(17) 0.0513(5) 0.56214(17)
N2_3 N 0.4734(2) 0.1521(7) 0.9224(2)
C10_3 C 0.5248(2) 0.0592(7) 0.6419(2)
C11_3 C 0.5148(2) 0.0999(7) 0.5787(2)
C12_3 C 0.4772(2) 0.0932(8) 0.6577(2)
H5_3 H 0.4394 0.1302 0.6277
C13_3 C 0.4853(2) 0.0728(8) 0.7166(2)
H6_3 H 0.4541 0.0977 0.7266
C14_3 C 0.5431(2) 0.0125(7) 0.7605(2)
C15_3 C 0.5349(2) 0.0401(7) 0.8581(2)
C16_3 C 0.5665(2) 0.1275(8) 0.9135(3)
H7_3 H 0.6080 0.1498 0.9294
C17_3 C 0.5344(3) 0.1803(8) 0.9441(3)
H8_3 H 0.5554 0.2377 0.9812
C18_3 C 0.4728(2) 0.0025(8) 0.8365(2)
C19_3 C 0.4437(2) 0.0635(7) 0.8690(2)
H10_3 H 0.4021 0.0430 0.8538
O1_3 O 0.84553(18) 0.7507(8) 0.9426(2)
O2_3 O 0.82198(18) 0.7397(7) 0.8448(2)
N1_3 N 0.56583(18) 0.9898(6) 0.8234(2)
C1_3 C 0.8076(2) 0.7645(8) 0.8853(3)
C2_3 C 0.7436(2) 0.8162(8) 0.8714(3)
C3_3 C 0.7258(2) 0.8251(9) 0.9177(3)
H1_3 H 0.7540 0.7936 0.9568
C4_3 C 0.7015(2) 0.8610(8) 0.8113(2)
H2_3 H 0.7122 0.8523 0.7800
C5_3 C 0.6681(2) 0.8788(9) 0.9076(2)
H3_3 H 0.6570 0.8807 0.9387
C6_3 C 0.6432(2) 0.9188(7) 0.7999(2)
C7_3 C 0.6270(2) 0.9304(7) 0.8482(2)
C8_3 C 0.5904(2) 0.9730(7) 0.7448(2)
C9_3 C 0.5810(2) 0.9954(7) 0.6854(2)
H4_3 H 0.6118 0.9683 0.6750
H9_3 H 0.4515 0.9376 0.8009
O5_2 O 0.94550(17) 0.4487(5) 0.93786(17)
N3_3 N 0.9734(2) 0.8479(7) 0.9224(2)
N2_4 N 0.0266(2) 0.1521(7) 0.0776(2)
C12_4 C 0.0228(2) 0.0932(8) 0.3423(2)
H5_4 H 0.0606 0.1302 0.3723
C13_4 C 0.0147(2) 0.0728(8) 0.2834(2)
H6_4 H 0.0459 0.0977 0.2734
C18_4 C 0.0272(2) 0.0025(8) 0.1635(2)
C19_4 C 0.0563(2) 0.0635(7) 0.1310(2)
H10_4 H 0.0979 0.0430 0.1462
O1_4 O 0.65447(18) 0.7507(8) 0.0574(2)
O2_4 O 0.67802(18) 0.7397(7) 0.1552(2)
N1_4 N 0.93417(18) 0.9898(6) 0.1766(2)
C1_4 C 0.6924(2) 0.7645(8) 0.1147(3)
C2_4 C 0.7564(2) 0.8162(8) 0.1286(3)
C3_4 C 0.7742(2) 0.8251(9) 0.0823(3)
H1_4 H 0.7460 0.7936 0.0432
C4_4 C 0.7985(2) 0.8610(8) 0.1887(2)
H2_4 H 0.7878 0.8523 0.2200
C5_4 C 0.8319(2) 0.8788(9) 0.0924(2)
H3_4 H 0.8430 0.8807 0.0613
C6_4 C 0.8568(2) 0.9188(7) 0.2001(2)
C7_4 C 0.8730(2) 0.9304(7) 0.1518(2)
C8_4 C 0.9096(2) 0.9730(7) 0.2552(2)
C9_4 C 0.9190(2) 0.9954(7) 0.3146(2)
H4_4 H 0.8882 0.9683 0.3250
O5_3 O 0.55450(17) 0.4487(5) 0.06214(17)
N3_4 N 0.5266(2) 0.8479(7) 0.0776(2)
O4_3 O 0.03342(19) 0.3125(6) 0.95472(19)
C12_5 C 0.0228(2) 0.4068(8) 0.8423(2)
H5_5 H 0.0606 0.3698 0.8723
C13_5 C 0.0147(2) 0.4272(8) 0.7834(2)
H6_5 H 0.0459 0.4023 0.7734
C18_5 C 0.0272(2) 0.4975(8) 0.6635(2)
H9_4 H 0.0485 0.5624 0.6991
C19_5 C 0.0563(2) 0.4365(7) 0.6310(2)
H10_5 H 0.0979 0.4570 0.6462
O1_5 O 0.65447(18) 0.7493(8) 0.5574(2)
O2_5 O 0.67802(18) 0.7603(7) 0.6552(2)
N1_5 N 0.93417(18) 0.5102(6) 0.6766(2)
C1_5 C 0.6924(2) 0.7355(8) 0.6147(3)
C2_5 C 0.7564(2) 0.6838(8) 0.6286(3)
C3_5 C 0.7742(2) 0.6749(9) 0.5823(3)
H1_5 H 0.7460 0.7064 0.5432
C4_5 C 0.7985(2) 0.6390(8) 0.6887(2)
H2_5 H 0.7878 0.6477 0.7200
C5_5 C 0.8319(2) 0.6212(9) 0.5924(2)
H3_5 H 0.8430 0.6193 0.5613
C6_5 C 0.8568(2) 0.5812(7) 0.7001(2)
C7_5 C 0.8730(2) 0.5696(7) 0.6518(2)
C8_5 C 0.9096(2) 0.5270(7) 0.7552(2)
C9_5 C 0.9190(2) 0.5046(7) 0.8146(2)
H4_5 H 0.8882 0.5317 0.8250
C10_4 C 0.9752(2) 0.4408(7) 0.8581(2)
C11_4 C 0.9852(2) 0.4001(7) 0.9213(2)
C14_4 C 0.9569(2) 0.4875(7) 0.7395(2)
C15_4 C 0.9651(2) 0.4599(7) 0.6419(2)
C16_4 C 0.9335(2) 0.3725(8) 0.5865(3)
H7_4 H 0.8920 0.3502 0.5706
C17_4 C 0.9656(3) 0.3197(8) 0.5559(3)
H8_4 H 0.9446 0.2623 0.5188
O6_3 O 0.53342(19) 0.8125(6) 0.45472(19)
O1_6 O 0.84553(18) 0.7493(8) 0.4426(2)
O2_6 O 0.82198(18) 0.7603(7) 0.3448(2)
O4_4 O 0.46658(19) 0.3125(6) 0.04528(19)
N1_6 N 0.56583(18) 0.5102(6) 0.3234(2)
C1_6 C 0.8076(2) 0.7355(8) 0.3853(3)
C2_6 C 0.7436(2) 0.6838(8) 0.3714(3)
C3_6 C 0.7258(2) 0.6749(9) 0.4177(3)
H1_6 H 0.7540 0.7064 0.4568
C4_6 C 0.7015(2) 0.6390(8) 0.3113(2)
H2_6 H 0.7122 0.6477 0.2800
C5_6 C 0.6681(2) 0.6212(9) 0.4076(2)
H3_6 H 0.6570 0.6193 0.4387
C6_6 C 0.6432(2) 0.5812(7) 0.2999(2)
C7_6 C 0.6270(2) 0.5696(7) 0.3482(2)
C8_6 C 0.5904(2) 0.5270(7) 0.2448(2)
C9_6 C 0.5810(2) 0.5046(7) 0.1854(2)
H4_6 H 0.6118 0.5317 0.1750
C10_5 C 0.5248(2) 0.4408(7) 0.1419(2)
C11_5 C 0.5148(2) 0.4001(7) 0.0787(2)
C12_6 C 0.4772(2) 0.4068(8) 0.1577(2)
H5_6 H 0.4394 0.3698 0.1277
C13_6 C 0.4853(2) 0.4272(8) 0.2166(2)
H6_6 H 0.4541 0.4023 0.2266
C14_5 C 0.5431(2) 0.4875(7) 0.2605(2)
C15_5 C 0.5349(2) 0.4599(7) 0.3581(2)
C16_5 C 0.5665(2) 0.3725(8) 0.4135(3)
H7_5 H 0.6080 0.3502 0.4294
C17_5 C 0.5344(3) 0.3197(8) 0.4441(3)
H8_5 H 0.5554 0.2623 0.4812
C18_6 C 0.4728(2) 0.4975(8) 0.3365(2)
H9_5 H 0.4515 0.5624 0.3009
C19_6 C 0.4437(2) 0.4365(7) 0.3690(2)
H10_6 H 0.4021 0.4570 0.3538
O6_4 O 0.96658(19) 0.8125(6) 0.54528(19)
O1_7 O 0.15447(18) 0.2493(8) 0.0574(2)
O2_7 O 0.17802(18) 0.2603(7) 0.1552(2)
N1_7 N 0.43417(18) 0.0102(6) 0.1766(2)
C1_7 C 0.1924(2) 0.2355(8) 0.1147(3)
C2_7 C 0.2564(2) 0.1838(8) 0.1286(3)
C3_7 C 0.2742(2) 0.1749(9) 0.0823(3)
H1_7 H 0.2460 0.2064 0.0432
C4_7 C 0.2985(2) 0.1390(8) 0.1887(2)
H2_7 H 0.2878 0.1477 0.2200
C5_7 C 0.3319(2) 0.1212(9) 0.0924(2)
H3_7 H 0.3430 0.1193 0.0613
C6_7 C 0.3568(2) 0.0812(7) 0.2001(2)
C7_7 C 0.3730(2) 0.0696(7) 0.1518(2)
C8_7 C 0.4096(2) 0.0270(7) 0.2552(2)
C9_7 C 0.4190(2) 0.0046(7) 0.3146(2)
H4_7 H 0.3882 0.0317 0.3250
H9_6 H 0.5485 0.0624 0.1991
C10_6 C 0.4752(2) 0.9408(7) 0.3581(2)
C11_6 C 0.4852(2) 0.9001(7) 0.4213(2)
C12_7 C 0.5228(2) 0.9068(8) 0.3423(2)
H5_7 H 0.5606 0.8698 0.3723
C13_7 C 0.5147(2) 0.9272(8) 0.2834(2)
H6_7 H 0.5459 0.9023 0.2734
C14_6 C 0.4569(2) 0.9875(7) 0.2395(2)
C15_6 C 0.4651(2) 0.9599(7) 0.1419(2)
C16_6 C 0.4335(2) 0.8725(8) 0.0865(3)
H7_6 H 0.3920 0.8502 0.0706
C17_6 C 0.4656(3) 0.8197(8) 0.0559(3)
H8_6 H 0.4446 0.7623 0.0188
C18_7 C 0.5272(2) 0.9975(8) 0.1635(2)
C19_7 C 0.5563(2) 0.9365(7) 0.1310(2)
H10_7 H 0.5979 0.9570 0.1462
O1_8 O 0.34553(18) 0.2493(8) 0.9426(2)
O2_8 O 0.32198(18) 0.2603(7) 0.8448(2)
N1_8 N 0.06583(18) 0.0102(6) 0.8234(2)
C1_8 C 0.3076(2) 0.2355(8) 0.8853(3)
C2_8 C 0.2436(2) 0.1838(8) 0.8714(3)
C3_8 C 0.2258(2) 0.1749(9) 0.9177(3)
H1_8 H 0.2540 0.2064 0.9568
C4_8 C 0.2015(2) 0.1390(8) 0.8113(2)
H2_8 H 0.2122 0.1477 0.7800
C5_8 C 0.1681(2) 0.1212(9) 0.9076(2)
H3_8 H 0.1570 0.1193 0.9387
C6_8 C 0.1432(2) 0.0812(7) 0.7999(2)
C7_8 C 0.1270(2) 0.0696(7) 0.8482(2)
C8_8 C 0.0904(2) 0.0270(7) 0.7448(2)
C9_8 C 0.0810(2) 0.0046(7) 0.6854(2)
H4_8 H 0.1118 0.0317 0.6750
C12_8 C 0.9772(2) 0.9068(8) 0.6577(2)
H5_8 H 0.9394 0.8698 0.6277
C13_8 C 0.9853(2) 0.9272(8) 0.7166(2)
H6_8 H 0.9541 0.9023 0.7266
C18_8 C 0.9728(2) 0.9975(8) 0.8365(2)
C19_8 C 0.9437(2) 0.9365(7) 0.8690(2)
H10_8 H 0.9021 0.9570 0.8538
O5_4 O 0.05450(17) 0.9487(5) 0.56214(17)
C10_7 C 0.0248(2) 0.9408(7) 0.6419(2)
C11_7 C 0.0148(2) 0.9001(7) 0.5787(2)
C14_7 C 0.0431(2) 0.9875(7) 0.7605(2)
C15_7 C 0.0349(2) 0.9599(7) 0.8581(2)
C16_7 C 0.0665(2) 0.8725(8) 0.9135(3)
H7_7 H 0.1080 0.8502 0.9294
C17_7 C 0.0344(3) 0.8197(8) 0.9441(3)
H8_7 H 0.0554 0.7623 0.9812
H9_7 H 0.0485 0.9376 0.1991
O3_4 O 0.94550(17) 0.0513(5) 0.43786(17)
C10_8 C 0.9752(2) 0.0592(7) 0.3581(2)
C11_8 C 0.9852(2) 0.0999(7) 0.4213(2)
C14_8 C 0.9569(2) 0.0125(7) 0.2395(2)
C15_8 C 0.9651(2) 0.0401(7) 0.1419(2)
C16_8 C 0.9335(2) 0.1275(8) 0.0865(3)
H7_8 H 0.8920 0.1498 0.0706
C17_8 C 0.9656(3) 0.1803(8) 0.0559(3)
H8_8 H 0.9446 0.2377 0.0188
H9_8 H 0.9515 0.0624 0.8009
loop_
_geom_bond_atom_site_label_1
_geom_bond_atom_site_label_2
_geom_bond_site_symmetry_1
_geom_bond_site_symmetry_2
Zn1 O1 1_555 1_555
O1 C1 1_555 1_555
O2 C1 1_555 1_555
O3 C11 1_555 1_555
N1 C7 1_555 1_555
C1 C2 1_555 1_555
C2 C3 1_555 1_555
C3 H1 1_555 1_555
C4 C2 1_555 1_555
H2 C4 1_555 1_555
C5 C3 1_555 1_555
H3 C5 1_555 1_555
C6 C4 1_555 1_555
C7 C5 1_555 1_555
C8 C6 1_555 1_555
C9 C8 1_555 1_555
H4 C9 1_555 1_555
C10 C9 1_555 1_555
C11 C10 1_555 1_555
C14 N1 1_555 1_555
C15 N1 1_555 1_555
C16 C15 1_555 1_555
H7 C16 1_555 1_555
C17 C16 1_555 1_555
H8 C17 1_555 1_555
Zn4 O3 1_555 1_555
O6 Zn1 1_555 1_555
N3 Zn1 1_555 1_555
C6 C7 1_555 1_555
C8 C14 1_555 1_555
H5 C12 1_555 1_555
C13 C12 1_555 1_555
H6 C13 1_555 1_555
H9 C18 1_555 1_555
C19 N2 1_555 1_555
H10 C19 1_555 1_555
Zn3 N2 1_555 1_555
C18 C19 1_555 1_555
Zn1_2 O1_2 1_555 1_555
O1_2 C1_2 1_555 1_555
O2_2 C1_2 1_555 1_555
O3_2 C11_2 1_555 1_555
O4_2 C11_2 1_555 1_555
N1_2 C7_2 1_555 1_555
N2_2 C17_2 1_555 1_555
C1_2 C2_2 1_555 1_555
C2_2 C3_2 1_555 1_555
C3_2 H1_2 1_555 1_555
C4_2 C2_2 1_555 1_555
H2_2 C4_2 1_555 1_555
C5_2 C3_2 1_555 1_555
H3_2 C5_2 1_555 1_555
C6_2 C4_2 1_555 1_555
C7_2 C5_2 1_555 1_555
C8_2 C6_2 1_555 1_555
C9_2 C8_2 1_555 1_555
H4_2 C9_2 1_555 1_555
C10_2 C9_2 1_555 1_555
C11_2 C10_2 1_555 1_555
C12_2 C10_2 1_555 1_555
H5_2 C12_2 1_555 1_555
C13_2 C12_2 1_555 1_555
H6_2 C13_2 1_555 1_555
C14_2 N1_2 1_555 1_555
C15_2 N1_2 1_555 1_555
C16_2 C15_2 1_555 1_555
H7_2 C16_2 1_555 1_555
C17_2 C16_2 1_555 1_555
H8_2 C17_2 1_555 1_555
C18_2 C15_2 1_555 1_555
H9_2 C18_2 1_555 1_555
C19_2 N2_2 1_555 1_555
H10_2 C19_2 1_555 1_555
Zn3_2 N2_2 1_555 1_555
Zn4_2 O3_2 1_555 1_555
O6_2 Zn1_2 1_555 1_555
N3_2 Zn1_2 1_555 1_555
C6_2 C7_2 1_555 1_555
C8_2 C14_2 1_555 1_555
C13_2 C14_2 1_555 1_555
C18_2 C19_2 1_555 1_555
O3_3 C11_3 1_555 1_555
O6 C11_3 1_555 1_555
N2_3 C17_3 1_555 1_555
C11_3 C10_3 1_555 1_555
C12_3 C10_3 1_555 1_555
H5_3 C12_3 1_555 1_555
C13_3 C12_3 1_555 1_555
H6_3 C13_3 1_555 1_555
C16_3 C15_3 1_555 1_555
H7_3 C16_3 1_555 1_555
C17_3 C16_3 1_555 1_555
H8_3 C17_3 1_555 1_555
C18_3 C15_3 1_555 1_555
C19_3 N2_3 1_555 1_555
H10_3 C19_3 1_555 1_555
Zn4_2 N2_3 1_555 1_555
C13_3 C14_3 1_555 1_555
C18_3 C19_3 1_555 1_555
Zn2 O1_3 1_555 1_555
O1_3 C1_3 1_555 1_555
O2_3 C1_3 1_555 1_555
N1_3 C7_3 1_555 1_555
C1_3 C2_3 1_555 1_555
C2_3 C3_3 1_555 1_555
C3_3 H1_3 1_555 1_555
C4_3 C2_3 1_555 1_555
H2_3 C4_3 1_555 1_555
C5_3 C3_3 1_555 1_555
H3_3 C5_3 1_555 1_555
C6_3 C4_3 1_555 1_555
C7_3 C5_3 1_555 1_555
C8_3 C6_3 1_555 1_555
C9_3 C8_3 1_555 1_555
H4_3 C9_3 1_555 1_555
O5_2 Zn2 1_555 1_555
N3_3 Zn2 1_555 1_555
C6_3 C7_3 1_555 1_555
H5_4 C12_4 1_555 1_555
C13_4 C12_4 1_555 1_555
H6_4 C13_4 1_555 1_555
C19_4 N2_4 1_555 1_555
H10_4 C19_4 1_555 1_555
Zn4 N2_4 1_555 1_555
C18_4 C19_4 1_555 1_555
Zn2_2 O1_4 1_555 1_555
O1_4 C1_4 1_555 1_555
O2_4 C1_4 1_555 1_555
N1_4 C7_4 1_555 1_555
C1_4 C2_4 1_555 1_555
C2_4 C3_4 1_555 1_555
C3_4 H1_4 1_555 1_555
C4_4 C2_4 1_555 1_555
H2_4 C4_4 1_555 1_555
C5_4 C3_4 1_555 1_555
H3_4 C5_4 1_555 1_555
C6_4 C4_4 1_555 1_555
C7_4 C5_4 1_555 1_555
C8_4 C6_4 1_555 1_555
C9_4 C8_4 1_555 1_555
H4_4 C9_4 1_555 1_555
O5_3 Zn2_2 1_555 1_555
N3_4 Zn2_2 1_555 1_555
C6_4 C7_4 1_555 1_555
H5_5 C12_5 1_555 1_555
C13_5 C12_5 1_555 1_555
H6_5 C13_5 1_555 1_555
H9_4 C18_5 1_555 1_555
C19_5 N3_2 1_555 1_555
H10_5 C19_5 1_555 1_555
C18_5 C19_5 1_555 1_555
Zn3_2 O1_5 1_555 1_555
O1_5 C1_5 1_555 1_555
O2_5 C1_5 1_555 1_555
O5_2 C11_4 1_555 1_555
N1_5 C7_5 1_555 1_555
C1_5 C2_5 1_555 1_555
C2_5 C3_5 1_555 1_555
C3_5 H1_5 1_555 1_555
C4_5 C2_5 1_555 1_555
H2_5 C4_5 1_555 1_555
C5_5 C3_5 1_555 1_555
H3_5 C5_5 1_555 1_555
C6_5 C4_5 1_555 1_555
C7_5 C5_5 1_555 1_555
C8_5 C6_5 1_555 1_555
C9_5 C8_5 1_555 1_555
H4_5 C9_5 1_555 1_555
C10_4 C9_5 1_555 1_555
C11_4 C10_4 1_555 1_555
C14_4 N1_5 1_555 1_555
C15_4 N1_5 1_555 1_555
C16_4 C15_4 1_555 1_555
H7_4 C16_4 1_555 1_555
C17_4 C16_4 1_555 1_555
H8_4 C17_4 1_555 1_555
O6_3 Zn3_2 1_555 1_555
C6_5 C7_5 1_555 1_555
C8_5 C14_4 1_555 1_555
Zn3 O1_6 1_555 1_555
O1_6 C1_6 1_555 1_555
O2_6 C1_6 1_555 1_555
O5_3 C11_5 1_555 1_555
O4_4 C11_5 1_555 1_555
N1_6 C7_6 1_555 1_555
N3 C17_5 1_555 1_555
C1_6 C2_6 1_555 1_555
C2_6 C3_6 1_555 1_555
C3_6 H1_6 1_555 1_555
C4_6 C2_6 1_555 1_555
H2_6 C4_6 1_555 1_555
C5_6 C3_6 1_555 1_555
H3_6 C5_6 1_555 1_555
C6_6 C4_6 1_555 1_555
C7_6 C5_6 1_555 1_555
C8_6 C6_6 1_555 1_555
C9_6 C8_6 1_555 1_555
H4_6 C9_6 1_555 1_555
C10_5 C9_6 1_555 1_555
C11_5 C10_5 1_555 1_555
C12_6 C10_5 1_555 1_555
H5_6 C12_6 1_555 1_555
C13_6 C12_6 1_555 1_555
H6_6 C13_6 1_555 1_555
C14_5 N1_6 1_555 1_555
C15_5 N1_6 1_555 1_555
C16_5 C15_5 1_555 1_555
H7_5 C16_5 1_555 1_555
C17_5 C16_5 1_555 1_555
H8_5 C17_5 1_555 1_555
C18_6 C15_5 1_555 1_555
H9_5 C18_6 1_555 1_555
C19_6 N3 1_555 1_555
H10_6 C19_6 1_555 1_555
O6_4 Zn3 1_555 1_555
C6_6 C7_6 1_555 1_555
C8_6 C14_5 1_555 1_555
C13_6 C14_5 1_555 1_555
C18_6 C19_6 1_555 1_555
Zn4 O1_7 1_555 1_555
O1_7 C1_7 1_555 1_555
O2_7 C1_7 1_555 1_555
N1_7 C7_7 1_555 1_555
C1_7 C2_7 1_555 1_555
C2_7 C3_7 1_555 1_555
C3_7 H1_7 1_555 1_555
C4_7 C2_7 1_555 1_555
H2_7 C4_7 1_555 1_555
C5_7 C3_7 1_555 1_555
H3_7 C5_7 1_555 1_555
C6_7 C4_7 1_555 1_555
C7_7 C5_7 1_555 1_555
C8_7 C6_7 1_555 1_555
C9_7 C8_7 1_555 1_555
H4_7 C9_7 1_555 1_555
C6_7 C7_7 1_555 1_555
O5 C11_6 1_555 1_555
O6_3 C11_6 1_555 1_555
N3_4 C17_6 1_555 1_555
C11_6 C10_6 1_555 1_555
C12_7 C10_6 1_555 1_555
H5_7 C12_7 1_555 1_555
C13_7 C12_7 1_555 1_555
H6_7 C13_7 1_555 1_555
C16_6 C15_6 1_555 1_555
H7_6 C16_6 1_555 1_555
C17_6 C16_6 1_555 1_555
H8_6 C17_6 1_555 1_555
C18_7 C15_6 1_555 1_555
C19_7 N3_4 1_555 1_555
H10_7 C19_7 1_555 1_555
C13_7 C14_6 1_555 1_555
C18_7 C19_7 1_555 1_555
Zn4_2 O1_8 1_555 1_555
O1_8 C1_8 1_555 1_555
O2_8 C1_8 1_555 1_555
N1_8 C7_8 1_555 1_555
C1_8 C2_8 1_555 1_555
C2_8 C3_8 1_555 1_555
C3_8 H1_8 1_555 1_555
C4_8 C2_8 1_555 1_555
H2_8 C4_8 1_555 1_555
C5_8 C3_8 1_555 1_555
H3_8 C5_8 1_555 1_555
C6_8 C4_8 1_555 1_555
C7_8 C5_8 1_555 1_555
C8_8 C6_8 1_555 1_555
C9_8 C8_8 1_555 1_555
H4_8 C9_8 1_555 1_555
C6_8 C7_8 1_555 1_555
H5_8 C12_8 1_555 1_555
C13_8 C12_8 1_555 1_555
H6_8 C13_8 1_555 1_555
C19_8 N3_3 1_555 1_555
H10_8 C19_8 1_555 1_555
C18_8 C19_8 1_555 1_555
O5_4 C11_7 1_555 1_555
C11_7 C10_7 1_555 1_555
C16_7 C15_7 1_555 1_555
H7_7 C16_7 1_555 1_555
C17_7 C16_7 1_555 1_555
H8_7 C17_7 1_555 1_555
O3_4 C11_8 1_555 1_555
C11_8 C10_8 1_555 1_555
C16_8 C15_8 1_555 1_555
H7_8 C16_8 1_555 1_555
C17_8 C16_8 1_555 1_555
H8_8 C17_8 1_555 1_555

#END
