
###############################################################################
#
# This file contains modified crystal structure data generated from the
# MOF subset of the Cambridge Structural Database (CSD) v543 
# hosted by the Cambridge Crystallographic Data Centre (CCDC).
#
# This work is licensed under the Creative Commons
# Attribution-NonCommercial-ShareAlike 4.0 International License.
# To view a copy of this license, visit
# http://creativecommons.org/licenses/by-nc-sa/4.0/
# or send a letter to
# Creative Commons, PO Box 1866, Mountain View, CA 94042, USA.
#
# CIF created using the CSD Python API on 29 September 2022
# The structure has been converted into the P1 space group
# The structure has a 3D framework
# The original CSD entry AMUXEO is in the triclinic crystal system
# The framework has been calculated to contain at least 10.0% void space
# The void calculation uses a probe of radius 1.32A, grid spacing 0.4
#
###############################################################################

data_AMUXEO
_chemical_formula_moiety         '(C56 H40 Cd4 N8 O22)n'
_symmetry_cell_setting           triclinic
_symmetry_space_group_name_H-M   'P 1'
_symmetry_Int_Tables_number      1
_space_group_name_Hall           'P 1'
loop_
_symmetry_equiv_pos_site_id
_symmetry_equiv_pos_as_xyz
1 x,y,z
_cell_length_a                   9.9872(13)
_cell_length_b                   11.7110(17)
_cell_length_c                   15.696(2)
_cell_angle_alpha                101.113(4)
_cell_angle_beta                 97.282(4)
_cell_angle_gamma                110.277(4)
_cell_volume                     1651.97
loop_
_atom_site_label
_atom_site_type_symbol
_atom_site_fract_x
_atom_site_fract_y
_atom_site_fract_z
Cd5 Cd 0.15043(3) 0.06148(2) 0.36967(2)
C1 C 0.4447(4) 0.3460(3) 0.2176(2)
C2 C 0.5670(4) 0.4734(3) 0.2422(2)
C3 C 0.6957(4) 0.4975(3) 0.2086(2)
C4 C 0.8051(4) 0.6176(3) 0.2354(2)
H1 H 0.8919 0.6340 0.2128
C5 C 0.7884(4) 0.7135(3) 0.2948(2)
C6 C 0.6606(4) 0.6919(3) 0.3262(2)
H2 H 0.6477 0.7584 0.3650
C7 C 0.5518(4) 0.5726(3) 0.3003(3)
H3 H 0.4649 0.5577 0.3226
C8 C 0.9138(4) 0.8394(3) 0.3254(2)
C9 C 0.8052(4) 0.4039(3) 0.0949(3)
C10 C 0.7856(4) 0.2802(3) 0.0354(2)
C11 C 0.7081(4) 0.1634(3) 0.0495(2)
H4 H 0.6585 0.1576 0.0973
O1 O 0.4586(3) 0.2530(2) 0.16851(18)
O2 O 0.3307(3) 0.3335(2) 0.24647(19)
O4 O 0.9017(3) 0.9302(2) 0.37760(16)
O5 O 0.9013(4) 0.5003(3) 0.0922(3)
N1 N 0.7091(3) 0.3983(3) 0.14827(19)
H19 H 0.6462 0.3224 0.1451
Cd4 Cd 0.22234(2) 0.11587(2) 0.16224(2)
Cd1 Cd 0.77766(2) 0.88413(2) 0.83776(2)
C15 C 0.5534(4) 0.8741(3) 0.6690(2)
C16 C 0.4299(4) 0.8992(3) 0.7046(2)
C17 C 0.2877(4) 0.8059(3) 0.6831(2)
C18 C 0.1775(4) 0.8344(3) 0.7174(2)
H8 H 0.0809 0.7726 0.7027
C19 C 0.2070(4) 0.9515(3) 0.7725(2)
C20 C 0.0844(4) 0.9759(3) 0.8089(2)
C23 C 0.1465(4) 0.5777(4) 0.6151(3)
C24 C 0.1518(4) 0.4659(4) 0.5524(3)
C25 C 0.0373(4) 0.3509(4) 0.5413(3)
C26 C 0.0397(4) 0.2448(4) 0.4872(3)
C27 C 0.2544(5) 0.3566(4) 0.4532(3)
H13 H 0.3302 0.3591 0.4218
C28 C 0.2610(4) 0.4689(4) 0.5058(3)
H14 H 0.3386 0.5461 0.5097
O6 O 0.6826(3) 0.9457(2) 0.71159(17)
O7 O 0.5280(3) 0.7892(3) 0.60064(19)
O10 O 0.0430(3) 0.5661(3) 0.6526(2)
O11 O 0.8747(4) 0.8228(3) 0.9510(2)
H15 H 0.8174 0.8103 0.9870
H16 H 0.9566 0.8803 0.9781
O12 O 0.2539(3) 0.0298(3) 0.49685(18)
H17 H 0.1997 0.0302 0.5344
N3 N 0.2613(3) 0.6873(3) 0.6276(2)
H20 H 0.3285 0.6840 0.5971
N4 N 0.1486(3) 0.2459(3) 0.4442(2)
Cd7 Cd 0.84957(3) 0.93852(2) 0.63033(2)
O13 O 0.5414(3) 0.7470(2) 0.83149(18)
O14 O 0.6693(3) 0.6665(2) 0.75353(19)
O17 O 0.3174(3) 0.0543(2) 0.28841(17)
O18 O 0.9553(3) 0.9053(2) 0.76480(17)
O19 O 0.0447(3) 0.0947(2) 0.23520(17)
H11 H 0.9588 0.3461 0.5708
H12 H 0.9609 0.1669 0.4796
O16 O 0.0983(3) 0.0698(2) 0.62240(16)
H11_2 H 0.0412 0.6539 0.4292
H12_2 H 0.0391 0.8331 0.5204
C15_2 C 0.4466(4) 0.1259(3) 0.3310(2)
C16_2 C 0.5701(4) 0.1008(3) 0.2954(2)
C17_2 C 0.7123(4) 0.1941(3) 0.3169(2)
C18_2 C 0.8225(4) 0.1656(3) 0.2826(2)
H8_2 H 0.9191 0.2274 0.2973
C19_2 C 0.7930(4) 0.0485(3) 0.2275(2)
C20_2 C 0.9156(4) 0.0241(3) 0.1911(2)
C23_2 C 0.8535(4) 0.4223(4) 0.3849(3)
C24_2 C 0.8482(4) 0.5341(4) 0.4476(3)
C25_2 C 0.9627(4) 0.6491(4) 0.4587(3)
C26_2 C 0.9603(4) 0.7552(4) 0.5128(3)
C27_2 C 0.7456(5) 0.6434(4) 0.5468(3)
H13_2 H 0.6698 0.6409 0.5782
C28_2 C 0.7390(4) 0.5311(4) 0.4942(3)
H14_2 H 0.6614 0.4539 0.4903
O7_2 O 0.4720(3) 0.2108(3) 0.39936(19)
O10_2 O 0.9570(3) 0.4339(3) 0.3474(2)
O11_2 O 0.1253(4) 0.1772(3) 0.0490(2)
H15_2 H 0.1826 0.1897 0.0130
H16_2 H 0.0434 0.1197 0.0219
O12_2 O 0.7461(3) 0.9702(3) 0.50315(18)
H17_2 H 0.8003 0.9698 0.4656
N3_2 N 0.7387(3) 0.3127(3) 0.3724(2)
H20_2 H 0.6715 0.3160 0.4029
N4_2 N 0.8514(3) 0.7541(3) 0.5558(2)
C1_2 C 0.5553(4) 0.6540(3) 0.7824(2)
C2_2 C 0.4330(4) 0.5266(3) 0.7578(2)
C3_2 C 0.3043(4) 0.5025(3) 0.7914(2)
C4_2 C 0.1949(4) 0.3824(3) 0.7646(2)
H1_2 H 0.1081 0.3660 0.7872
C5_2 C 0.2116(4) 0.2865(3) 0.7052(2)
C6_2 C 0.3394(4) 0.3081(3) 0.6738(2)
H2_2 H 0.3523 0.2416 0.6350
C7_2 C 0.4482(4) 0.4274(3) 0.6997(3)
H3_2 H 0.5351 0.4423 0.6774
C8_2 C 0.0862(4) 0.1606(3) 0.6746(2)
C9_2 C 0.1948(4) 0.5961(3) 0.9051(3)
C10_2 C 0.2144(4) 0.7198(3) 0.9646(2)
C11_2 C 0.2919(4) 0.8366(3) 0.9505(2)
H4_2 H 0.3415 0.8424 0.9027
O5_2 O 0.0987(4) 0.4997(3) 0.9078(3)
N1_2 N 0.2909(3) 0.6017(3) 0.85173(19)
H19_2 H 0.3538 0.6776 0.8549
O3 O 0.0304(3) 0.8503(2) 0.29893(18)
H18 H 0.2625 0.9590 0.4850
C12 C 0.7052(4) 0.0562(3) 0.9922(2)
C13 C 0.8435(4) 0.1705(3) 0.9093(3)
H6 H 0.8901 0.1729 0.8601
C14 C 0.8527(4) 0.2824(3) 0.9627(3)
H7 H 0.9042 0.3601 0.9501
C21 C 0.3486(4) 0.0445(3) 0.7946(3)
H9 H 0.3694 0.1247 0.8329
C22 C 0.4578(4) 0.0169(3) 0.7592(3)
H10 H 0.5536 0.0798 0.7728
O8 O 0.1126(3) 0.0591(3) 0.8786(2)
N2 N 0.7718(3) 0.0591(3) 0.92389(19)
H5 H 0.6532 0.9767 0.0022
H18_2 H 0.7375 0.0410 0.5150
O15 O 0.9696(3) 0.1497(2) 0.70107(18)
H5_2 H 0.3468 0.0233 0.9978
C12_2 C 0.2948(4) 0.9438(3) 0.0078(2)
C13_2 C 0.1565(4) 0.8295(3) 0.0907(3)
H6_2 H 0.1099 0.8271 0.1399
C14_2 C 0.1473(4) 0.7176(3) 0.0373(3)
H7_2 H 0.0958 0.6399 0.0499
C21_2 C 0.6514(4) 0.9555(3) 0.2054(3)
H9_2 H 0.6306 0.8753 0.1671
C22_2 C 0.5422(4) 0.9831(3) 0.2408(3)
H10_2 H 0.4464 0.9202 0.2272
O8_2 O 0.8874(3) 0.9409(3) 0.1214(2)
N2_2 N 0.2282(3) 0.9409(3) 0.07611(19)
loop_
_geom_bond_atom_site_label_1
_geom_bond_atom_site_label_2
_geom_bond_site_symmetry_1
_geom_bond_site_symmetry_2
C1 C2 1_555 1_555
C2 C3 1_555 1_555
C3 C4 1_555 1_555
C4 H1 1_555 1_555
C5 C4 1_555 1_555
C6 C5 1_555 1_555
H2 C6 1_555 1_555
C7 C2 1_555 1_555
H3 C7 1_555 1_555
C8 C5 1_555 1_555
C9 C10 1_555 1_555
C10 C11 1_555 1_555
C11 H4 1_555 1_555
O1 C1 1_555 1_555
O2 C1 1_555 1_555
O4 C8 1_555 1_555
O5 C9 1_555 1_555
N1 C3 1_555 1_555
H19 N1 1_555 1_555
Cd4 O1 1_555 1_555
C6 C7 1_555 1_555
C9 N1 1_555 1_555
O2 Cd4 1_555 1_555
Cd1 O6 1_555 1_555
Cd5 O12 1_555 1_555
C15 C16 1_555 1_555
C16 C17 1_555 1_555
C17 C18 1_555 1_555
C18 H8 1_555 1_555
C19 C18 1_555 1_555
C20 C19 1_555 1_555
C23 C24 1_555 1_555
C24 C25 1_555 1_555
C26 C25 1_555 1_555
C27 H13 1_555 1_555
C28 C24 1_555 1_555
H14 C28 1_555 1_555
O6 C15 1_555 1_555
O7 C15 1_555 1_555
O10 C23 1_555 1_555
O11 Cd1 1_555 1_555
H15 O11 1_555 1_555
H16 O11 1_555 1_555
O12 H17 1_555 1_555
N3 C17 1_555 1_555
H20 N3 1_555 1_555
N4 Cd5 1_555 1_555
Cd7 O6 1_555 1_555
O13 Cd1 1_555 1_555
O14 Cd1 1_555 1_555
O17 Cd5 1_555 1_555
O18 Cd1 1_555 1_555
O19 Cd5 1_555 1_555
C23 N3 1_555 1_555
C26 N4 1_555 1_555
C27 C28 1_555 1_555
C27 N4 1_555 1_555
Cd7 O18 1_555 1_555
Cd4 O19 1_555 1_555
Cd4 O17 1_555 1_555
Cd7 O12_2 1_555 1_555
C15_2 C16_2 1_555 1_555
C16_2 C17_2 1_555 1_555
C17_2 C18_2 1_555 1_555
C18_2 H8_2 1_555 1_555
C19_2 C18_2 1_555 1_555
C20_2 C19_2 1_555 1_555
C23_2 C24_2 1_555 1_555
C24_2 C25_2 1_555 1_555
C26_2 C25_2 1_555 1_555
C27_2 H13_2 1_555 1_555
C28_2 C24_2 1_555 1_555
H14_2 C28_2 1_555 1_555
O17 C15_2 1_555 1_555
O7_2 C15_2 1_555 1_555
O10_2 C23_2 1_555 1_555
O11_2 Cd4 1_555 1_555
H15_2 O11_2 1_555 1_555
H16_2 O11_2 1_555 1_555
O12_2 H17_2 1_555 1_555
N3_2 C17_2 1_555 1_555
H20_2 N3_2 1_555 1_555
N4_2 Cd7 1_555 1_555
C23_2 N3_2 1_555 1_555
C26_2 N4_2 1_555 1_555
C27_2 C28_2 1_555 1_555
C27_2 N4_2 1_555 1_555
C1_2 C2_2 1_555 1_555
C2_2 C3_2 1_555 1_555
C3_2 C4_2 1_555 1_555
C4_2 H1_2 1_555 1_555
C5_2 C4_2 1_555 1_555
C6_2 C5_2 1_555 1_555
H2_2 C6_2 1_555 1_555
C7_2 C2_2 1_555 1_555
H3_2 C7_2 1_555 1_555
C8_2 C5_2 1_555 1_555
C9_2 C10_2 1_555 1_555
C10_2 C11_2 1_555 1_555
C11_2 H4_2 1_555 1_555
O13 C1_2 1_555 1_555
O14 C1_2 1_555 1_555
O16 C8_2 1_555 1_555
O5_2 C9_2 1_555 1_555
N1_2 C3_2 1_555 1_555
H19_2 N1_2 1_555 1_555
C6_2 C7_2 1_555 1_555
C9_2 N1_2 1_555 1_555
C13 H6 1_555 1_555
H7 C14 1_555 1_555
H9 C21 1_555 1_555
H10 C22 1_555 1_555
C12 N2 1_555 1_555
C13 C14 1_555 1_555
C13 N2 1_555 1_555
C21 C22 1_555 1_555
C13_2 H6_2 1_555 1_555
H7_2 C14_2 1_555 1_555
H9_2 C21_2 1_555 1_555
H10_2 C22_2 1_555 1_555
C12_2 N2_2 1_555 1_555
C13_2 C14_2 1_555 1_555
C13_2 N2_2 1_555 1_555
C21_2 C22_2 1_555 1_555

#END
