
###############################################################################
#
# This file contains modified crystal structure data generated from the
# MOF subset of the Cambridge Structural Database (CSD) v543 
# hosted by the Cambridge Crystallographic Data Centre (CCDC).
#
# This work is licensed under the Creative Commons
# Attribution-NonCommercial-ShareAlike 4.0 International License.
# To view a copy of this license, visit
# http://creativecommons.org/licenses/by-nc-sa/4.0/
# or send a letter to
# Creative Commons, PO Box 1866, Mountain View, CA 94042, USA.
#
# CIF created using the CSD Python API on 29 September 2022
# The structure has been converted into the P1 space group
# The structure has a 3D framework
# The original CSD entry ANAKUX is in the triclinic crystal system
# The framework has been calculated to contain at least 10.0% void space
# The void calculation uses a probe of radius 1.32A, grid spacing 0.4
#
###############################################################################

data_ANAKUX
_chemical_formula_moiety         '(C90 H64 Cd6 N10 O30)n'
_symmetry_cell_setting           triclinic
_symmetry_space_group_name_H-M   'P 1'
_symmetry_Int_Tables_number      1
_space_group_name_Hall           'P 1'
loop_
_symmetry_equiv_pos_site_id
_symmetry_equiv_pos_as_xyz
1 x,y,z
_cell_length_a                   13.3760(4)
_cell_length_b                   14.5340(4)
_cell_length_c                   15.6086(4)
_cell_angle_alpha                82.4060(10)
_cell_angle_beta                 66.5580(10)
_cell_angle_gamma                65.7560(10)
_cell_volume                     2536.67
loop_
_atom_site_label
_atom_site_type_symbol
_atom_site_fract_x
_atom_site_fract_y
_atom_site_fract_z
_atom_site_U_iso_or_equiv
_atom_site_thermal_displace_type
O9 O 0.0444(3) 0.0639(2) 0.2783(2) 0.0370 Uani
O10 O 0.2103(3) 0.0707(2) 0.2708(3) 0.0489 Uani
N2 N 0.5308(3) 0.2613(3) 0.5279(3) 0.0362 Uani
C12 C 0.1554(4) 0.0267(3) 0.2601(3) 0.0286 Uani
C20 C 0.2550(5) 0.0043(4) 0.4862(3) 0.0502 Uani
C21 C 0.3188(5) 0.0592(4) 0.4775(3) 0.0516 Uani
H12 H 0.3574 0.0783 0.4185 0.0620 Uiso
C22 C 0.3281(4) 0.0876(3) 0.5539(3) 0.0317 Uani
C23 C 0.2690(6) 0.0545(5) 0.6375(4) 0.0585 Uani
H13 H 0.2716 0.0702 0.6923 0.0700 Uiso
C25 C 0.3971(4) 0.1482(3) 0.5456(3) 0.0321 Uani
C26 C 0.4500(5) 0.1856(4) 0.4611(4) 0.0498 Uani
H15 H 0.4420 0.1733 0.4078 0.0600 Uiso
C27 C 0.5138(5) 0.2403(4) 0.4559(3) 0.0488 Uani
H16 H 0.5477 0.2646 0.3982 0.0590 Uiso
C28 C 0.4810(5) 0.2253(4) 0.6094(3) 0.0468 Uani
H17 H 0.4915 0.2384 0.6613 0.0560 Uiso
C29 C 0.4150(5) 0.1702(4) 0.6207(4) 0.0488 Uani
H18 H 0.3818 0.1472 0.6794 0.0590 Uiso
Cd12 Cd 0.63627(2) 0.35880(2) 0.516512(19) 0.0251 Uani
O5 O 0.0027(3) 0.7844(3) 0.0061(3) 0.0591 Uani
H37 H 0.0374 0.0024 0.0976 0.0600 Uiso
Cd1 Cd 0.08499(2) 0.88043(2) 0.576025(19) 0.0254 Uani
Cd2 Cd 0.36373(2) 0.64120(2) 0.483488(19) 0.0251 Uani
O1 O 0.2245(3) 0.7793(2) 0.73326(19) 0.0323 Uani
O2 O 0.1982(2) 0.7226(2) 0.62229(18) 0.0288 Uani
O3 O 0.4293(2) 0.5654(2) 0.5989(2) 0.0361 Uani
O4 O 0.4983(3) 0.4182(2) 0.6606(2) 0.0364 Uani
O7 O 0.2418(3) 0.7824(2) 0.4299(2) 0.0371 Uani
O8 O 0.1073(3) 0.9294(2) 0.42076(19) 0.0322 Uani
O13 O 0.0164(3) 0.7343(2) 0.8390(2) 0.0447 Uani
O14 O 0.2528(3) 0.9891(2) 0.07312(19) 0.0338 Uani
N1 N 0.1973(3) 0.9724(3) 0.5669(3) 0.0334 Uani
C1 C 0.2124(3) 0.7142(3) 0.6984(3) 0.0251 Uani
C2 C 0.4177(3) 0.5023(3) 0.6615(3) 0.0270 Uani
C3 C 0.3009(4) 0.5273(3) 0.7420(3) 0.0302 Uani
C4 C 0.2075(4) 0.6216(3) 0.7557(3) 0.0269 Uani
C5 C 0.1008(4) 0.6378(3) 0.8312(3) 0.0366 Uani
C6 C 0.0856(5) 0.5621(4) 0.8924(4) 0.0587 Uani
H3 H 0.0134 0.5735 0.9418 0.0700 Uiso
C7 C 0.1792(5) 0.4695(4) 0.8790(4) 0.0682 Uani
H4 H 0.1705 0.4187 0.9206 0.0820 Uiso
C8 C 0.2855(4) 0.4516(3) 0.8048(4) 0.0496 Uani
H5 H 0.3475 0.3886 0.7963 0.0600 Uiso
C11 C 0.1980(4) 0.8514(3) 0.3815(3) 0.0289 Uani
C13 C 0.2535(4) 0.8383(3) 0.2774(3) 0.0296 Uani
C14 C 0.3348(4) 0.7428(3) 0.2369(3) 0.0395 Uani
H8 H 0.3533 0.6883 0.2745 0.0470 Uiso
C15 C 0.3870(4) 0.7298(3) 0.1415(3) 0.0448 Uani
H9 H 0.4421 0.6663 0.1150 0.0530 Uiso
C16 C 0.3599(4) 0.8081(3) 0.0842(3) 0.0394 Uani
H10 H 0.3937 0.7973 0.0196 0.0470 Uiso
C17 C 0.2815(3) 0.9037(3) 0.1236(3) 0.0273 Uani
C18 C 0.2278(3) 0.9198(3) 0.2203(3) 0.0247 Uani
H11 H 0.2513 0.9877 0.4323 0.0600 Uiso
C24 C 0.2064(6) 0.9983(5) 0.6412(4) 0.0567 Uani
H14 H 0.1679 0.9772 0.6992 0.0680 Uiso
H22 H 0.0094 0.8080 0.4261 0.0530 Uiso
H27 H 0.1752 0.6444 0.0326 0.0790 Uiso
C41 C 0.3377(6) 0.5598(5) 0.0302(5) 0.0720 Uani
H28 H 0.3123 0.5291 0.0863 0.0870 Uiso
N6 N 0.7167(4) 0.3235(3) 0.0804(3) 0.0446 Uani
C46 C 0.7449(5) 0.3702(5) 0.0026(5) 0.0656 Uani
C48 C 0.5449(5) 0.4645(3) 0.0181(4) 0.0447 Uani
C49 C 0.5154(5) 0.4172(5) 0.1011(4) 0.0668 Uani
H35 H 0.4362 0.4316 0.1383 0.0800 Uiso
C50 C 0.6026(5) 0.3488(4) 0.1290(4) 0.0664 Uani
H36 H 0.5798 0.3185 0.1858 0.0800 Uiso
N9 N 0.0099(3) 0.2163(3) 0.4431(2) 0.0318 Uani
N10 N 0.2713(3) 0.5397(3) 0.4782(3) 0.0370 Uani
C59 C 0.0935(4) 0.2415(4) 0.0830(4) 0.0486 Uani
H42 H 0.1221 0.2943 0.0774 0.0580 Uiso
H43 H 0.1513 0.1790 0.0941 0.0580 Uiso
C80 C 0.0521(4) 0.2682(4) 0.3719(3) 0.0408 Uani
H55 H 0.0463 0.2618 0.3157 0.0490 Uiso
C81 C 0.1038(5) 0.3310(4) 0.3760(3) 0.0440 Uani
H56 H 0.1325 0.3653 0.3235 0.0530 Uiso
C82 C 0.1133(4) 0.3432(3) 0.4586(3) 0.0362 Uani
C83 C 0.0687(5) 0.2897(4) 0.5338(4) 0.0479 Uani
H57 H 0.0722 0.2956 0.5911 0.0570 Uiso
C84 C 0.0192(5) 0.2279(4) 0.5228(3) 0.0443 Uani
C85 C 0.1687(4) 0.4103(3) 0.4660(3) 0.0379 Uani
C86 C 0.2417(6) 0.4407(5) 0.3877(5) 0.0656 Uani
H59 H 0.2582 0.4179 0.3287 0.0790 Uiso
C87 C 0.2903(6) 0.5044(5) 0.3960(4) 0.0638 Uani
H60 H 0.3387 0.5238 0.3418 0.0770 Uiso
C88 C 0.2085(6) 0.5049(5) 0.5518(4) 0.0647 Uani
H61 H 0.1972 0.5252 0.6102 0.0770 Uiso
C89 C 0.1577(6) 0.4399(5) 0.5490(4) 0.0662 Uani
H62 H 0.1161 0.4166 0.6043 0.0790 Uiso
Cd13 Cd 0.14387(3) 0.82128(2) 0.88797(2) 0.0311 Uani
Cd15 Cd 0.85613(3) 0.17872(2) 0.11203(2) 0.0311 Uani
O34 O 0.5017(3) 0.5818(2) 0.3394(2) 0.0364 Uani
N12 N 0.4692(3) 0.7387(3) 0.4721(3) 0.0362 Uani
O11 O 0.1493(3) 0.9143(2) 0.9974(2) 0.0390 Uani
O12 O 0.2905(3) 0.8929(3) 0.8576(2) 0.0449 Uani
O15 O 0.0202(3) 0.9654(2) 0.8537(2) 0.0398 Uani
H2 H 0.0002 0.9581 0.8106 0.0600 Uiso
N5 N 0.2833(4) 0.6765(3) 0.9196(3) 0.0446 Uani
C19 C 0.2416(4) 0.9246(3) 0.9412(3) 0.0331 Uani
C40 C 0.2551(5) 0.6298(5) 0.9974(5) 0.0656 Uani
C42 C 0.4551(5) 0.5355(3) 0.9819(4) 0.0447 Uani
C43 C 0.4846(5) 0.5828(5) 0.8989(4) 0.0668 Uani
H29 H 0.5638 0.5684 0.8617 0.0800 Uiso
C44 C 0.3974(5) 0.6512(4) 0.8710(4) 0.0664 Uani
H30 H 0.4202 0.6815 0.8142 0.0800 Uiso
C45 C 0.2978(4) 0.9767(3) 0.9744(3) 0.0362 Uani
H31 H 0.3827 0.9376 0.9520 0.0430 Uiso
H33 H 0.8248 0.3556 0.9674 0.0790 Uiso
C47 C 0.6623(6) 0.4402(5) 0.9698(5) 0.0720 Uani
H34 H 0.6877 0.4709 0.9137 0.0870 Uiso
O21 O 0.1664(4) 0.2339(3) 0.9188(3) 0.0705 Uani
C60 C 0.0837(4) 0.2298(3) 0.9914(4) 0.0482 Uani
Cd8 Cd 0.91501(2) 0.11957(2) 0.423975(19) 0.0254 Uani
O6 O 0.8336(4) 0.7661(3) 0.0812(3) 0.0705 Uani
C10 C 0.9163(4) 0.7702(3) 0.0086(4) 0.0482 Uani
O26 O 0.8507(3) 0.0857(2) 0.0026(2) 0.0390 Uani
O27 O 0.7095(3) 0.1071(3) 0.1424(2) 0.0449 Uani
O30 O 0.9798(3) 0.0346(2) 0.1463(2) 0.0398 Uani
H38 H 0.9998 0.0419 0.1894 0.0600 Uiso
C69 C 0.7584(4) 0.0754(3) 0.0588(3) 0.0331 Uani
C90 C 0.7022(4) 0.0233(3) 0.0256(3) 0.0362 Uani
H63 H 0.6173 0.0624 0.0480 0.0430 Uiso
O32 O 0.7755(3) 0.2207(2) 0.26674(19) 0.0323 Uani
N3 N 0.9901(3) 0.7837(3) 0.5569(2) 0.0318 Uani
N4 N 0.7287(3) 0.4603(3) 0.5218(3) 0.0370 Uani
C9 C 0.9065(4) 0.7585(4) 0.9170(4) 0.0486 Uani
H6 H 0.8779 0.7057 0.9226 0.0580 Uiso
H7 H 0.8487 0.8210 0.9059 0.0580 Uiso
C30 C 0.9479(4) 0.7318(4) 0.6281(3) 0.0408 Uani
H19 H 0.9537 0.7382 0.6843 0.0490 Uiso
C31 C 0.8962(5) 0.6690(4) 0.6240(3) 0.0440 Uani
H20 H 0.8675 0.6347 0.6765 0.0530 Uiso
C32 C 0.8867(4) 0.6568(3) 0.5414(3) 0.0362 Uani
C33 C 0.9313(5) 0.7103(4) 0.4662(4) 0.0479 Uani
H21 H 0.9278 0.7044 0.4089 0.0570 Uiso
C34 C 0.9808(5) 0.7721(4) 0.4772(3) 0.0443 Uani
C35 C 0.8313(4) 0.5897(3) 0.5340(3) 0.0379 Uani
C36 C 0.7583(6) 0.5593(5) 0.6123(5) 0.0656 Uani
H23 H 0.7418 0.5821 0.6713 0.0790 Uiso
C37 C 0.7097(6) 0.4956(5) 0.6040(4) 0.0638 Uani
H24 H 0.6613 0.4762 0.6582 0.0770 Uiso
C38 C 0.7915(6) 0.4951(5) 0.4482(4) 0.0647 Uani
H25 H 0.8028 0.4748 0.3898 0.0770 Uiso
C39 C 0.8423(6) 0.5601(5) 0.4510(4) 0.0662 Uani
H26 H 0.8839 0.5834 0.3957 0.0790 Uiso
O17 O 0.8018(2) 0.2774(2) 0.37771(18) 0.0288 Uani
O18 O 0.5707(2) 0.4346(2) 0.4011(2) 0.0361 Uani
O22 O 0.7582(3) 0.2176(2) 0.5701(2) 0.0371 Uani
O23 O 0.8927(3) 0.0706(2) 0.57924(19) 0.0322 Uani
O28 O 0.9836(3) 0.2657(2) 0.1610(2) 0.0447 Uani
O29 O 0.7472(3) 0.0109(2) 0.92688(19) 0.0338 Uani
N7 N 0.8027(3) 0.0276(3) 0.4331(3) 0.0334 Uani
C51 C 0.7876(3) 0.2858(3) 0.3016(3) 0.0251 Uani
C52 C 0.5823(3) 0.4977(3) 0.3385(3) 0.0270 Uani
C53 C 0.6991(4) 0.4727(3) 0.2580(3) 0.0302 Uani
C54 C 0.7925(4) 0.3784(3) 0.2443(3) 0.0269 Uani
C55 C 0.8992(4) 0.3622(3) 0.1688(3) 0.0366 Uani
C56 C 0.9144(5) 0.4379(4) 0.1076(4) 0.0587 Uani
H39 H 0.9866 0.4265 0.0582 0.0700 Uiso
C57 C 0.8208(5) 0.5305(4) 0.1210(4) 0.0682 Uani
H40 H 0.8295 0.5813 0.0794 0.0820 Uiso
C58 C 0.7145(4) 0.5484(3) 0.1952(4) 0.0496 Uani
H41 H 0.6525 0.6114 0.2037 0.0600 Uiso
C61 C 0.8020(4) 0.1486(3) 0.6185(3) 0.0289 Uani
C63 C 0.7465(4) 0.1617(3) 0.7226(3) 0.0296 Uani
C64 C 0.6652(4) 0.2572(3) 0.7631(3) 0.0395 Uani
H44 H 0.6467 0.3117 0.7255 0.0470 Uiso
C65 C 0.6130(4) 0.2702(3) 0.8585(3) 0.0448 Uani
H45 H 0.5579 0.3337 0.8850 0.0530 Uiso
C66 C 0.6401(4) 0.1919(3) 0.9158(3) 0.0394 Uani
H46 H 0.6063 0.2027 0.9804 0.0470 Uiso
C67 C 0.7185(3) 0.0963(3) 0.8764(3) 0.0273 Uani
C68 C 0.7722(3) 0.0802(3) 0.7797(3) 0.0247 Uani
H47 H 0.7487 0.0123 0.5677 0.0600 Uiso
C74 C 0.7936(6) 0.0017(5) 0.3588(4) 0.0567 Uani
H50 H 0.8321 0.0228 0.3008 0.0680 Uiso
H58 H 0.9906 0.1920 0.5739 0.0530 Uiso
O36 O 0.9973(3) 0.2156(3) 0.9939(3) 0.0591 Uani
O38 O 0.9556(3) 0.9361(2) 0.7217(2) 0.0370 Uani
H1 H 0.9626 0.9976 0.9024 0.0600 Uiso
O25 O 0.7897(3) 0.9293(2) 0.7292(3) 0.0489 Uani
C62 C 0.8446(4) 0.9733(3) 0.7399(3) 0.0286 Uani
C70 C 0.7450(5) 0.9957(4) 0.5138(3) 0.0502 Uani
C71 C 0.6812(5) 0.9408(4) 0.5225(3) 0.0516 Uani
H48 H 0.6426 0.9217 0.5815 0.0620 Uiso
C72 C 0.6719(4) 0.9124(3) 0.4461(3) 0.0317 Uani
C73 C 0.7310(6) 0.9455(5) 0.3625(4) 0.0585 Uani
H49 H 0.7284 0.9298 0.3077 0.0700 Uiso
C75 C 0.6029(4) 0.8518(3) 0.4544(3) 0.0321 Uani
C76 C 0.5500(5) 0.8144(4) 0.5389(4) 0.0498 Uani
H51 H 0.5580 0.8267 0.5922 0.0600 Uiso
C77 C 0.4862(5) 0.7597(4) 0.5441(3) 0.0488 Uani
H52 H 0.4523 0.7354 0.6018 0.0590 Uiso
C78 C 0.5190(5) 0.7747(4) 0.3906(3) 0.0468 Uani
H53 H 0.5085 0.7616 0.3387 0.0560 Uiso
C79 C 0.5850(5) 0.8298(4) 0.3793(4) 0.0488 Uani
H54 H 0.6182 0.8528 0.3206 0.0590 Uiso
H32 H 0.2847 0.0425 0.9473 0.0430 Uiso
H64 H 0.7153 0.9575 0.0527 0.0430 Uiso
loop_
_atom_site_aniso_label
_atom_site_aniso_U_11
_atom_site_aniso_U_22
_atom_site_aniso_U_33
_atom_site_aniso_U_23
_atom_site_aniso_U_13
_atom_site_aniso_U_12
O9 0.0299 0.0438 0.0281 -0.0056 -0.0128 -0.0021
O10 0.0471 0.0386 0.064 -0.0148 -0.0178 -0.018
N2 0.037 0.037 0.045 0.004 -0.0184 -0.0223
C12 0.029 0.0251 0.028 -0.0008 -0.0126 -0.005
C20 0.07 0.068 0.036 0.002 -0.016 -0.053
C21 0.068 0.072 0.036 0.006 -0.013 -0.055
C22 0.033 0.029 0.039 0.0031 -0.0151 -0.0168
C23 0.092 0.082 0.042 0.016 -0.031 -0.071
C25 0.031 0.03 0.041 0.0028 -0.0143 -0.0173
C26 0.069 0.068 0.041 0.01 -0.024 -0.053
C27 0.067 0.063 0.039 0.009 -0.019 -0.05
C28 0.066 0.058 0.042 0.012 -0.026 -0.046
C29 0.069 0.064 0.041 0.015 -0.025 -0.052
Cd12 0.02528 0.02426 0.02997 0.00044 -0.01034 -0.01379
O5 0.051 0.067 0.051 0.0115 -0.008 -0.0293
Cd1 0.02869 0.02654 0.0265 -0.00051 -0.00942 -0.01662
Cd2 0.02528 0.02426 0.02997 0.00044 -0.01034 -0.01379
O1 0.0432 0.0281 0.0287 0 -0.011 -0.0192
O2 0.0312 0.0268 0.027 -0.0003 -0.0127 -0.0081
O3 0.0269 0.0386 0.0384 0.0122 -0.011 -0.0132
O4 0.0325 0.0287 0.0395 0.0033 -0.0098 -0.0085
O7 0.0371 0.0421 0.03 0.008 -0.0151 -0.0133
O8 0.0352 0.0322 0.0288 -0.0014 -0.0111 -0.0131
O13 0.0289 0.0318 0.052 0.0064 -0.004 -0.0042
O14 0.0431 0.0293 0.0284 0.0013 -0.016 -0.0114
N1 0.0359 0.0319 0.041 0.0042 -0.0161 -0.0208
C1 0.024 0.0217 0.0258 0.0018 -0.0073 -0.0077
C2 0.028 0.0264 0.031 -0.0024 -0.0129 -0.0122
C3 0.03 0.0232 0.033 -0.0003 -0.0078 -0.0101
C4 0.031 0.0243 0.028 0.0018 -0.0122 -0.0125
C5 0.028 0.026 0.044 0.0029 -0.0053 -0.0082
C6 0.043 0.036 0.059 0.008 0.013 -0.013
C7 0.06 0.029 0.065 0.017 0.012 -0.009
C8 0.046 0.022 0.053 0.0079 0 -0.0075
C11 0.03 0.034 0.034 0.0033 -0.0162 -0.0198
C13 0.03 0.029 0.034 0.0004 -0.0164 -0.0111
C14 0.05 0.026 0.044 0.0015 -0.027 -0.0077
C15 0.052 0.026 0.044 -0.0111 -0.02 0.0015
C16 0.044 0.036 0.031 -0.0108 -0.0138 -0.0058
C17 0.0268 0.0279 0.029 0.0002 -0.0139 -0.0089
C18 0.0233 0.0241 0.0289 -0.0027 -0.0131 -0.0073
C24 0.089 0.075 0.039 0.014 -0.025 -0.066
C41 0.068 0.08 0.085 0.051 -0.05 -0.039
N6 0.051 0.037 0.045 0.0015 -0.028 -0.0072
C46 0.054 0.072 0.083 0.037 -0.042 -0.031
C48 0.056 0.028 0.054 0 -0.033 -0.008
C49 0.046 0.068 0.048 0.005 -0.015 0.01
C50 0.06 0.062 0.041 0.008 -0.019 0.008
N9 0.0315 0.0295 0.04 -0.0006 -0.0156 -0.0147
N10 0.0333 0.0311 0.053 0.0004 -0.0154 -0.0194
C59 0.022 0.036 0.066 0.003 -0.001 -0.0066
C80 0.051 0.044 0.041 0.001 -0.021 -0.028
C81 0.062 0.048 0.041 0.005 -0.02 -0.04
C82 0.035 0.031 0.048 -0.0029 -0.016 -0.0166
C83 0.064 0.062 0.044 0.005 -0.026 -0.045
C84 0.054 0.053 0.044 0.009 -0.022 -0.037
C85 0.039 0.029 0.055 -0.0052 -0.0238 -0.0144
C86 0.0677 0.0669 0.0659 0.0016 -0.0231 -0.0318
C87 0.0673 0.0661 0.0631 -0.0009 -0.0246 -0.0302
C88 0.092 0.093 0.043 -0.003 -0.018 -0.074
C89 0.098 0.09 0.047 0.005 -0.021 -0.078
Cd13 0.03193 0.03192 0.02861 8e-05 -0.01334 -0.00975
Cd15 0.03193 0.03192 0.02861 8e-05 -0.01334 -0.00975
O34 0.0325 0.0287 0.0395 0.0033 -0.0098 -0.0085
N12 0.037 0.037 0.045 0.004 -0.0184 -0.0223
O11 0.0377 0.0452 0.0325 -0.0034 -0.0104 -0.0163
O12 0.0493 0.061 0.0282 -0.0066 -0.0103 -0.027
O15 0.0316 0.0442 0.0347 -0.009 -0.0156 -0.0007
N5 0.051 0.037 0.045 0.0015 -0.028 -0.0072
C19 0.035 0.03 0.033 0.0011 -0.019 -0.0058
C40 0.054 0.072 0.083 0.037 -0.042 -0.031
C42 0.056 0.028 0.054 0 -0.033 -0.008
C43 0.046 0.068 0.048 0.005 -0.015 0.01
C44 0.06 0.062 0.041 0.008 -0.019 0.008
C45 0.043 0.039 0.028 0.0021 -0.0136 -0.0177
C47 0.068 0.08 0.085 0.051 -0.05 -0.039
O21 0.051 0.07 0.06 0.007 0.0094 -0.026
C60 0.035 0.029 0.055 0.007 -0.002 -0.0049
Cd8 0.02869 0.02654 0.0265 -0.00051 -0.00942 -0.01662
O6 0.051 0.07 0.06 0.007 0.0094 -0.026
C10 0.035 0.029 0.055 0.007 -0.002 -0.0049
O26 0.0377 0.0452 0.0325 -0.0034 -0.0104 -0.0163
O27 0.0493 0.061 0.0282 -0.0066 -0.0103 -0.027
O30 0.0316 0.0442 0.0347 -0.009 -0.0156 -0.0007
C69 0.035 0.03 0.033 0.0011 -0.019 -0.0058
C90 0.043 0.039 0.028 0.0021 -0.0136 -0.0177
O32 0.0432 0.0281 0.0287 0 -0.011 -0.0192
N3 0.0315 0.0295 0.04 -0.0006 -0.0156 -0.0147
N4 0.0333 0.0311 0.053 0.0004 -0.0154 -0.0194
C9 0.022 0.036 0.066 0.003 -0.001 -0.0066
C30 0.051 0.044 0.041 0.001 -0.021 -0.028
C31 0.062 0.048 0.041 0.005 -0.02 -0.04
C32 0.035 0.031 0.048 -0.0029 -0.016 -0.0166
C33 0.064 0.062 0.044 0.005 -0.026 -0.045
C34 0.054 0.053 0.044 0.009 -0.022 -0.037
C35 0.039 0.029 0.055 -0.0052 -0.0238 -0.0144
C36 0.0677 0.0669 0.0659 0.0016 -0.0231 -0.0318
C37 0.0673 0.0661 0.0631 -0.0009 -0.0246 -0.0302
C38 0.092 0.093 0.043 -0.003 -0.018 -0.074
C39 0.098 0.09 0.047 0.005 -0.021 -0.078
O17 0.0312 0.0268 0.027 -0.0003 -0.0127 -0.0081
O18 0.0269 0.0386 0.0384 0.0122 -0.011 -0.0132
O22 0.0371 0.0421 0.03 0.008 -0.0151 -0.0133
O23 0.0352 0.0322 0.0288 -0.0014 -0.0111 -0.0131
O28 0.0289 0.0318 0.052 0.0064 -0.004 -0.0042
O29 0.0431 0.0293 0.0284 0.0013 -0.016 -0.0114
N7 0.0359 0.0319 0.041 0.0042 -0.0161 -0.0208
C51 0.024 0.0217 0.0258 0.0018 -0.0073 -0.0077
C52 0.028 0.0264 0.031 -0.0024 -0.0129 -0.0122
C53 0.03 0.0232 0.033 -0.0003 -0.0078 -0.0101
C54 0.031 0.0243 0.028 0.0018 -0.0122 -0.0125
C55 0.028 0.026 0.044 0.0029 -0.0053 -0.0082
C56 0.043 0.036 0.059 0.008 0.013 -0.013
C57 0.06 0.029 0.065 0.017 0.012 -0.009
C58 0.046 0.022 0.053 0.0079 0 -0.0075
C61 0.03 0.034 0.034 0.0033 -0.0162 -0.0198
C63 0.03 0.029 0.034 0.0004 -0.0164 -0.0111
C64 0.05 0.026 0.044 0.0015 -0.027 -0.0077
C65 0.052 0.026 0.044 -0.0111 -0.02 0.0015
C66 0.044 0.036 0.031 -0.0108 -0.0138 -0.0058
C67 0.0268 0.0279 0.029 0.0002 -0.0139 -0.0089
C68 0.0233 0.0241 0.0289 -0.0027 -0.0131 -0.0073
C74 0.089 0.075 0.039 0.014 -0.025 -0.066
O36 0.051 0.067 0.051 0.0115 -0.008 -0.0293
O38 0.0299 0.0438 0.0281 -0.0056 -0.0128 -0.0021
O25 0.0471 0.0386 0.064 -0.0148 -0.0178 -0.018
C62 0.029 0.0251 0.028 -0.0008 -0.0126 -0.005
C70 0.07 0.068 0.036 0.002 -0.016 -0.053
C71 0.068 0.072 0.036 0.006 -0.013 -0.055
C72 0.033 0.029 0.039 0.0031 -0.0151 -0.0168
C73 0.092 0.082 0.042 0.016 -0.031 -0.071
C75 0.031 0.03 0.041 0.0028 -0.0143 -0.0173
C76 0.069 0.068 0.041 0.01 -0.024 -0.053
C77 0.067 0.063 0.039 0.009 -0.019 -0.05
C78 0.066 0.058 0.042 0.012 -0.026 -0.046
C79 0.069 0.064 0.041 0.015 -0.025 -0.052
loop_
_geom_bond_atom_site_label_1
_geom_bond_atom_site_label_2
_geom_bond_site_symmetry_1
_geom_bond_site_symmetry_2
O9 C12 1_555 1_555
O10 C12 1_555 1_555
N2 C27 1_555 1_555
C21 C20 1_555 1_555
H12 C21 1_555 1_555
C22 C21 1_555 1_555
C23 C22 1_555 1_555
H13 C23 1_555 1_555
C25 C22 1_555 1_555
C26 C25 1_555 1_555
H15 C26 1_555 1_555
C27 C26 1_555 1_555
H16 C27 1_555 1_555
C28 N2 1_555 1_555
H17 C28 1_555 1_555
C29 C25 1_555 1_555
H18 C29 1_555 1_555
Cd12 N2 1_555 1_555
C28 C29 1_555 1_555
Cd1 O2 1_555 1_555
Cd2 O2 1_555 1_555
O1 C1 1_555 1_555
O2 C1 1_555 1_555
O3 Cd2 1_555 1_555
O4 C2 1_555 1_555
O7 Cd1 1_555 1_555
O8 Cd1 1_555 1_555
O13 C5 1_555 1_555
O14 C17 1_555 1_555
N1 Cd1 1_555 1_555
C1 C4 1_555 1_555
C2 O3 1_555 1_555
C3 C2 1_555 1_555
C4 C3 1_555 1_555
C5 C4 1_555 1_555
C6 C5 1_555 1_555
H3 C6 1_555 1_555
C7 C6 1_555 1_555
H4 C7 1_555 1_555
C8 C3 1_555 1_555
H5 C8 1_555 1_555
C11 O7 1_555 1_555
C13 C11 1_555 1_555
C14 C13 1_555 1_555
H8 C14 1_555 1_555
C15 C14 1_555 1_555
H9 C15 1_555 1_555
C16 C15 1_555 1_555
H10 C16 1_555 1_555
C17 C16 1_555 1_555
C18 C13 1_555 1_555
C24 N1 1_555 1_555
H14 C24 1_555 1_555
H28 C41 1_555 1_555
N6 C46 1_555 1_555
C49 C48 1_555 1_555
H35 C49 1_555 1_555
C50 N6 1_555 1_555
H36 C50 1_555 1_555
N10 Cd2 1_555 1_555
H42 C59 1_555 1_555
H43 C59 1_555 1_555
C80 N9 1_555 1_555
H55 C80 1_555 1_555
C81 C80 1_555 1_555
H56 C81 1_555 1_555
C82 C81 1_555 1_555
C83 C82 1_555 1_555
H57 C83 1_555 1_555
C84 N9 1_555 1_555
C85 C82 1_555 1_555
C86 C85 1_555 1_555
H59 C86 1_555 1_555
C87 N10 1_555 1_555
H60 C87 1_555 1_555
C88 N10 1_555 1_555
H61 C88 1_555 1_555
C89 C85 1_555 1_555
H62 C89 1_555 1_555
Cd12 O4 1_555 1_555
Cd13 O1 1_555 1_555
Cd15 N6 1_555 1_555
O34 Cd2 1_555 1_555
N12 Cd2 1_555 1_555
Cd2 O7 1_555 1_555
O8 C11 1_555 1_555
C7 C8 1_555 1_555
C17 C18 1_555 1_555
C49 C50 1_555 1_555
C83 C84 1_555 1_555
C86 C87 1_555 1_555
C88 C89 1_555 1_555
Cd13 O11 1_555 1_555
O11 C19 1_555 1_555
O12 Cd13 1_555 1_555
O15 Cd13 1_555 1_555
H2 O15 1_555 1_555
N5 Cd13 1_555 1_555
C19 O12 1_555 1_555
C40 N5 1_555 1_555
C43 C42 1_555 1_555
H29 C43 1_555 1_555
C44 N5 1_555 1_555
H30 C44 1_555 1_555
H31 C45 1_555 1_555
H34 C47 1_555 1_555
O21 C60 1_555 1_555
C19 C45 1_555 1_555
C43 C44 1_555 1_555
O6 C10 1_555 1_555
Cd15 O26 1_555 1_555
O26 C69 1_555 1_555
O27 Cd15 1_555 1_555
O30 Cd15 1_555 1_555
H38 O30 1_555 1_555
C69 O27 1_555 1_555
H63 C90 1_555 1_555
O32 Cd15 1_555 1_555
C69 C90 1_555 1_555
N4 C37 1_555 1_555
H6 C9 1_555 1_555
H7 C9 1_555 1_555
C30 N3 1_555 1_555
H19 C30 1_555 1_555
C31 C30 1_555 1_555
H20 C31 1_555 1_555
C32 C31 1_555 1_555
C33 C32 1_555 1_555
H21 C33 1_555 1_555
C34 N3 1_555 1_555
C35 C32 1_555 1_555
C36 C35 1_555 1_555
H23 C36 1_555 1_555
C37 C36 1_555 1_555
H24 C37 1_555 1_555
C38 N4 1_555 1_555
H25 C38 1_555 1_555
C39 C35 1_555 1_555
H26 C39 1_555 1_555
Cd8 O17 1_555 1_555
Cd12 N4 1_555 1_555
O32 C51 1_555 1_555
O17 Cd12 1_555 1_555
O18 Cd12 1_555 1_555
O34 C52 1_555 1_555
O22 Cd8 1_555 1_555
O23 Cd8 1_555 1_555
O28 C55 1_555 1_555
O29 C67 1_555 1_555
N7 Cd8 1_555 1_555
C51 O17 1_555 1_555
C52 O18 1_555 1_555
C53 C52 1_555 1_555
C54 C51 1_555 1_555
C55 C54 1_555 1_555
C56 C55 1_555 1_555
H39 C56 1_555 1_555
C57 C56 1_555 1_555
H40 C57 1_555 1_555
C58 C53 1_555 1_555
H41 C58 1_555 1_555
C61 O22 1_555 1_555
C63 C61 1_555 1_555
C64 C63 1_555 1_555
H44 C64 1_555 1_555
C65 C64 1_555 1_555
H45 C65 1_555 1_555
C66 C65 1_555 1_555
H46 C66 1_555 1_555
C67 C66 1_555 1_555
C68 C63 1_555 1_555
C74 N7 1_555 1_555
H50 C74 1_555 1_555
C33 C34 1_555 1_555
C38 C39 1_555 1_555
Cd12 O22 1_555 1_555
O23 C61 1_555 1_555
C53 C54 1_555 1_555
C57 C58 1_555 1_555
C67 C68 1_555 1_555
O38 C62 1_555 1_555
O25 C62 1_555 1_555
N12 C77 1_555 1_555
C71 C70 1_555 1_555
H48 C71 1_555 1_555
C72 C71 1_555 1_555
C73 C72 1_555 1_555
H49 C73 1_555 1_555
C75 C72 1_555 1_555
C76 C75 1_555 1_555
H51 C76 1_555 1_555
C77 C76 1_555 1_555
H52 C77 1_555 1_555
C78 N12 1_555 1_555
H53 C78 1_555 1_555
C79 C75 1_555 1_555
H54 C79 1_555 1_555
C78 C79 1_555 1_555

#END
