
###############################################################################
#
# This file contains modified crystal structure data generated from the
# MOF subset of the Cambridge Structural Database (CSD) v543 
# hosted by the Cambridge Crystallographic Data Centre (CCDC).
#
# This work is licensed under the Creative Commons
# Attribution-NonCommercial-ShareAlike 4.0 International License.
# To view a copy of this license, visit
# http://creativecommons.org/licenses/by-nc-sa/4.0/
# or send a letter to
# Creative Commons, PO Box 1866, Mountain View, CA 94042, USA.
#
# CIF created using the CSD Python API on 29 September 2022
# The structure has been converted into the P1 space group
# The structure has a 3D framework
# The original CSD entry ANANAH is in the tetragonal crystal system
# The original CSD entry ANANAH is in a Sohncke space group
# The framework has been calculated to contain at least 10.0% void space
# The void calculation uses a probe of radius 1.32A, grid spacing 0.4
#
###############################################################################

data_ANANAH
_chemical_formula_moiety         '(C120 H72 Eu8 O56)n'
_symmetry_cell_setting           triclinic
_symmetry_space_group_name_H-M   'P 1'
_symmetry_Int_Tables_number      1
_space_group_name_Hall           'P 1'
loop_
_symmetry_equiv_pos_site_id
_symmetry_equiv_pos_as_xyz
1 x,y,z
_cell_length_a                   14.942(5)
_cell_length_b                   14.942(5)
_cell_length_c                   14.456(8)
_cell_angle_alpha                90
_cell_angle_beta                 90
_cell_angle_gamma                90
_cell_volume                     3227.5
loop_
_atom_site_label
_atom_site_type_symbol
_atom_site_fract_x
_atom_site_fract_y
_atom_site_fract_z
Eu4 Eu 0.82672(4) 0.11450(3) 0.62893(8)
Eu1 Eu 0.61450(3) 0.17328(4) 0.37893(8)
O1 O 0.8558(8) 0.2630(6) 0.6402(9)
O2 O 0.6133(7) 0.0316(6) 0.4455(8)
H1 H 0.5695 0.0233 0.4963
H2 H 0.6683 0.0139 0.4803
O3 O 0.8870(6) 0.9663(5) 0.6110(7)
O4 O 0.8676(7) 0.3807(7) 0.7326(6)
O5 O 0.7512(7) 0.9865(6) 0.5622(8)
O6 O 0.6753(7) 0.3076(7) 0.3472(9)
O7 O 0.7157(10) 0.4302(10) 0.2730(8)
C1 C 0.8160(9) 0.9348(8) 0.5767(9)
C2 C 0.8502(10) 0.3449(9) 0.6560(9)
C3 C 0.7101(12) 0.3852(10) 0.3455(10)
C4 C 0.7473(10) 0.4256(9) 0.4315(10)
C5 C 0.8207(9) 0.4049(8) 0.5784(8)
C6 C 0.8125(9) 0.8386(8) 0.5531(9)
C7 C 0.7796(10) 0.3693(9) 0.5003(10)
H3 H 0.7738 0.3077 0.4941
C8 C 0.8894(10) 0.7837(9) 0.5590(10)
H4 H 0.9452 0.8093 0.5700
C9 C 0.8270(11) 0.4966(9) 0.5879(10)
H5 H 0.8540 0.5207 0.6403
C10 C 0.7541(10) 0.5143(9) 0.4415(10)
H6 H 0.7321 0.5512 0.3950
C11 C 0.8819(10) 0.6926(9) 0.5487(11)
H7 H 0.9325 0.6570 0.5556
C12 C 0.8009(10) 0.6526(8) 0.5281(9)
C13 C 0.7315(11) 0.7996(9) 0.5323(10)
H8 H 0.6805 0.8350 0.5268
C14 C 0.7254(11) 0.7062(9) 0.5193(10)
H9 H 0.6706 0.6803 0.5047
C15 C 0.7934(11) 0.5535(9) 0.5197(9)
Eu2 Eu 0.88550(3) 0.32672(4) 0.87893(8)
Eu5 Eu 0.67328(4) 0.38550(3) 0.12893(8)
O8 O 0.7630(6) 0.1442(8) 0.3902(9)
O9 O 0.4663(5) 0.1130(6) 0.3610(7)
O10 O 0.6324(7) 0.1193(7) 0.2326(6)
O11 O 0.4865(6) 0.2488(7) 0.3122(8)
O12 O 0.5698(10) 0.2157(10) 0.5230(8)
O9_2 O 0.0337(5) 0.3870(6) 0.8610(7)
O11_2 O 0.0135(6) 0.2512(7) 0.8122(8)
O1_2 O 0.6442(8) 0.2370(6) 0.1402(9)
C2_2 C 0.6498(10) 0.1551(9) 0.1560(9)
C5_2 C 0.6793(9) 0.0951(8) 0.0784(8)
C7_2 C 0.7204(10) 0.1307(9) 0.0003(10)
C9_2 C 0.6730(11) 0.0034(9) 0.0879(10)
O12_2 O 0.9302(10) 0.2843(10) 0.0230(8)
O2_2 O 0.8867(7) 0.4684(6) 0.9455(8)
H1_2 H 0.9305 0.4767 0.9963
H2_2 H 0.8317 0.4861 0.9803
O6_2 O 0.8247(7) 0.1924(7) 0.8472(9)
O7_2 O 0.7843(10) 0.0698(10) 0.7730(8)
C3_2 C 0.7899(12) 0.1148(10) 0.8455(10)
C4_2 C 0.7527(10) 0.0744(9) 0.9315(10)
H3_2 H 0.7262 0.1923 0.9941
O8_2 O 0.7370(6) 0.3558(8) 0.8902(9)
O3_2 O 0.6130(6) 0.5337(5) 0.1110(7)
O5_2 O 0.7488(7) 0.5135(6) 0.0622(8)
C1_2 C 0.6840(9) 0.5652(8) 0.0767(9)
C6_2 C 0.6875(9) 0.6614(8) 0.0531(9)
C8_2 C 0.6106(10) 0.7163(9) 0.0590(10)
H4_2 H 0.5548 0.6907 0.0700
H5_2 H 0.6460 0.9793 0.1403
C11_2 C 0.6181(10) 0.8074(9) 0.0487(11)
H7_2 H 0.5675 0.8430 0.0556
C12_2 C 0.6991(10) 0.8474(8) 0.0281(9)
C13_2 C 0.7685(11) 0.7004(9) 0.0323(10)
H8_2 H 0.8195 0.6650 0.0268
C14_2 C 0.7746(11) 0.7938(9) 0.0193(10)
H9_2 H 0.8294 0.8197 0.0047
C15_2 C 0.7066(11) 0.9465(9) 0.0197(9)
O2_3 O 0.9684(6) 0.1133(7) 0.6955(8)
H1_3 H 0.9767 0.0695 0.7463
H2_3 H 0.9861 0.1683 0.7303
O4_2 O 0.6193(7) 0.3676(7) 0.9826(6)
O6_3 O 0.6924(7) 0.1753(7) 0.5972(9)
C1_3 C 0.0652(8) 0.3160(9) 0.8267(9)
C2_3 C 0.6551(9) 0.3502(10) 0.9060(9)
C3_3 C 0.6148(10) 0.2101(12) 0.5955(10)
C4_3 C 0.5744(9) 0.2473(10) 0.6815(10)
C5_3 C 0.5951(8) 0.3207(9) 0.8284(8)
C6_3 C 0.1614(8) 0.3125(9) 0.8031(9)
C7_3 C 0.6307(9) 0.2796(10) 0.7503(10)
H3_3 H 0.6923 0.2738 0.7441
C8_3 C 0.2163(9) 0.3894(10) 0.8090(10)
H4_3 H 0.1907 0.4452 0.8200
C9_3 C 0.5034(9) 0.3270(11) 0.8379(10)
H5_3 H 0.4793 0.3540 0.8903
C10_2 C 0.4857(9) 0.2541(10) 0.6915(10)
H6_2 H 0.4488 0.2321 0.6450
C11_3 C 0.3074(9) 0.3819(10) 0.7987(11)
H7_3 H 0.3430 0.4325 0.8056
C12_3 C 0.3474(8) 0.3009(10) 0.7781(9)
C13_3 C 0.2004(9) 0.2315(11) 0.7823(10)
H8_3 H 0.1650 0.1805 0.7768
C14_3 C 0.2938(9) 0.2254(11) 0.7693(10)
H9_3 H 0.3197 0.1706 0.7547
C15_3 C 0.4465(9) 0.2934(11) 0.7697(9)
O10_2 O 0.8807(7) 0.1324(7) 0.4826(6)
C1_4 C 0.4348(8) 0.1840(9) 0.3267(9)
C6_4 C 0.3386(8) 0.1875(9) 0.3031(9)
C8_4 C 0.2837(9) 0.1106(10) 0.3090(10)
H4_4 H 0.3093 0.0548 0.3200
H5_4 H 0.0207 0.1460 0.3903
C10_3 C 0.0143(9) 0.2459(10) 0.1915(10)
H6_3 H 0.0512 0.2679 0.1450
C11_4 C 0.1926(9) 0.1181(10) 0.2987(11)
H7_4 H 0.1570 0.0675 0.3056
C12_4 C 0.1526(8) 0.1991(10) 0.2781(9)
C13_4 C 0.2996(9) 0.2685(11) 0.2823(10)
H8_4 H 0.3350 0.3195 0.2768
C14_4 C 0.2062(9) 0.2746(11) 0.2693(10)
H9_4 H 0.1803 0.3294 0.2547
C15_4 C 0.0535(9) 0.2066(11) 0.2697(9)
O2_4 O 0.5316(6) 0.3867(7) 0.1955(8)
H1_4 H 0.5233 0.4305 0.2463
H2_4 H 0.5139 0.3317 0.2303
O6_4 O 0.8076(7) 0.3247(7) 0.0972(9)
C2_4 C 0.8449(9) 0.1498(10) 0.4060(9)
C3_4 C 0.8852(10) 0.2899(12) 0.0955(10)
C4_4 C 0.9256(9) 0.2527(10) 0.1815(10)
C5_4 C 0.9049(8) 0.1793(9) 0.3284(8)
C7_4 C 0.8693(9) 0.2204(10) 0.2503(10)
H3_4 H 0.8077 0.2262 0.2441
C9_4 C 0.9966(9) 0.1730(11) 0.3379(10)
C10_4 C 0.7459(10) 0.9857(9) 0.9415(10)
H6_4 H 0.7679 0.9488 0.8950
O3_3 O 0.3870(6) 0.4663(5) 0.1110(7)
O5_3 O 0.2512(7) 0.4865(6) 0.0622(8)
C1_5 C 0.3160(9) 0.4348(8) 0.0767(9)
C6_5 C 0.3125(9) 0.3386(8) 0.0531(9)
C8_5 C 0.3894(10) 0.2837(9) 0.0590(10)
H4_5 H 0.4452 0.3093 0.0700
H5_5 H 0.3540 0.0207 0.1403
C11_5 C 0.3819(10) 0.1926(9) 0.0487(11)
H7_5 H 0.4325 0.1570 0.0556
C12_5 C 0.3009(10) 0.1526(8) 0.0281(9)
C13_5 C 0.2315(11) 0.2996(9) 0.0323(10)
H8_5 H 0.1805 0.3350 0.0268
C14_5 C 0.2254(11) 0.2062(9) 0.0193(10)
H9_5 H 0.1706 0.1803 0.0047
C15_5 C 0.2934(11) 0.0535(9) 0.0197(9)
Eu4_2 Eu 0.32672(4) 0.61450(3) 0.12893(8)
O1_3 O 0.3558(8) 0.7630(6) 0.1402(9)
O4_3 O 0.3676(7) 0.8807(7) 0.2326(6)
C2_5 C 0.3502(10) 0.8449(9) 0.1560(9)
C5_5 C 0.3207(9) 0.9049(8) 0.0784(8)
C7_5 C 0.2796(10) 0.8693(9) 0.0003(10)
C9_5 C 0.3270(11) 0.9966(9) 0.0879(10)
Eu2_2 Eu 0.38550(3) 0.82672(4) 0.37893(8)
O12_3 O 0.0698(10) 0.7157(10) 0.0230(8)
Eu1_2 Eu 0.11450(3) 0.67328(4) 0.87893(8)
O2_5 O 0.1133(7) 0.5316(6) 0.9455(8)
H1_5 H 0.0695 0.5233 0.9963
H2_5 H 0.1683 0.5139 0.9803
O6_5 O 0.1753(7) 0.8076(7) 0.8472(9)
O7_3 O 0.2157(10) 0.9302(10) 0.7730(8)
C3_5 C 0.2101(12) 0.8852(10) 0.8455(10)
C4_5 C 0.2473(10) 0.9256(9) 0.9315(10)
H3_5 H 0.2738 0.8077 0.9941
Eu5_2 Eu 0.17328(4) 0.88550(3) 0.62893(8)
O8_3 O 0.2630(6) 0.6442(8) 0.8902(9)
O10_3 O 0.1324(7) 0.6193(7) 0.7326(6)
O9_3 O 0.9663(5) 0.6130(6) 0.8610(7)
O11_3 O 0.9865(6) 0.7488(7) 0.8122(8)
O1_4 O 0.1442(8) 0.7370(6) 0.6402(9)
O2_6 O 0.3867(7) 0.9684(6) 0.4455(8)
H1_6 H 0.4305 0.9767 0.4963
H2_6 H 0.3317 0.9861 0.4803
O3_4 O 0.1130(6) 0.0337(5) 0.6110(7)
O5_4 O 0.2488(7) 0.0135(6) 0.5622(8)
O6_6 O 0.3247(7) 0.6924(7) 0.3472(9)
O7_4 O 0.2843(10) 0.5698(10) 0.2730(8)
C1_6 C 0.1840(9) 0.0652(8) 0.5767(9)
C2_6 C 0.1498(10) 0.6551(9) 0.6560(9)
C3_6 C 0.2899(12) 0.6148(10) 0.3455(10)
C4_6 C 0.2527(10) 0.5744(9) 0.4315(10)
C5_6 C 0.1793(9) 0.5951(8) 0.5784(8)
C6_6 C 0.1875(9) 0.1614(8) 0.5531(9)
C7_6 C 0.2204(10) 0.6307(9) 0.5003(10)
H3_6 H 0.2262 0.6923 0.4941
C8_6 C 0.1106(10) 0.2163(9) 0.5590(10)
H4_6 H 0.0548 0.1907 0.5700
C9_6 C 0.1730(11) 0.5034(9) 0.5879(10)
H5_6 H 0.1460 0.4793 0.6403
C10_5 C 0.2459(10) 0.4857(9) 0.4415(10)
H6_5 H 0.2679 0.4488 0.3950
C11_6 C 0.1181(10) 0.3074(9) 0.5487(11)
H7_6 H 0.0675 0.3430 0.5556
C12_6 C 0.1991(10) 0.3474(8) 0.5281(9)
C13_6 C 0.2685(11) 0.2004(9) 0.5323(10)
H8_6 H 0.3195 0.1650 0.5268
C14_6 C 0.2746(11) 0.2938(9) 0.5193(10)
H9_6 H 0.3294 0.3197 0.5047
C15_6 C 0.2066(11) 0.4465(9) 0.5197(9)
O8_4 O 0.2370(6) 0.8558(8) 0.3902(9)
O9_4 O 0.5337(5) 0.8870(6) 0.3610(7)
O11_4 O 0.5135(6) 0.7512(7) 0.3122(8)
O12_4 O 0.4302(10) 0.7843(10) 0.5230(8)
O2_7 O 0.4684(6) 0.6133(7) 0.1955(8)
H1_7 H 0.4767 0.5695 0.2463
H2_7 H 0.4861 0.6683 0.2303
O4_4 O 0.1193(7) 0.8676(7) 0.4826(6)
O6_7 O 0.1924(7) 0.6753(7) 0.0972(9)
C2_7 C 0.1551(9) 0.8502(10) 0.4060(9)
C3_7 C 0.1148(10) 0.7101(12) 0.0955(10)
C4_7 C 0.0744(9) 0.7473(10) 0.1815(10)
C5_7 C 0.0951(8) 0.8207(9) 0.3284(8)
C7_7 C 0.1307(9) 0.7796(10) 0.2503(10)
H3_7 H 0.1923 0.7738 0.2441
C9_7 C 0.0034(9) 0.8270(11) 0.3379(10)
O10_4 O 0.3807(7) 0.6324(7) 0.9826(6)
C1_7 C 0.5652(8) 0.8160(9) 0.3267(9)
C6_7 C 0.6614(8) 0.8125(9) 0.3031(9)
C8_7 C 0.7163(9) 0.8894(10) 0.3090(10)
H4_7 H 0.6907 0.9452 0.3200
H5_7 H 0.9793 0.8540 0.3903
C10_6 C 0.9857(9) 0.7541(10) 0.1915(10)
H6_6 H 0.9488 0.7321 0.1450
C11_7 C 0.8074(9) 0.8819(10) 0.2987(11)
H7_7 H 0.8430 0.9325 0.3056
C12_7 C 0.8474(8) 0.8009(10) 0.2781(9)
C13_7 C 0.7004(9) 0.7315(11) 0.2823(10)
H8_7 H 0.6650 0.6805 0.2768
C14_7 C 0.7938(9) 0.7254(11) 0.2693(10)
H9_7 H 0.8197 0.6706 0.2547
C15_7 C 0.9465(9) 0.7934(11) 0.2697(9)
O2_8 O 0.0316(6) 0.8867(7) 0.6955(8)
H1_8 H 0.0233 0.9305 0.7463
H2_8 H 0.0139 0.8317 0.7303
O6_8 O 0.3076(7) 0.8247(7) 0.5972(9)
C1_8 C 0.9348(8) 0.6840(9) 0.8267(9)
C2_8 C 0.3449(9) 0.6498(10) 0.9060(9)
C3_8 C 0.3852(10) 0.7899(12) 0.5955(10)
C4_8 C 0.4256(9) 0.7527(10) 0.6815(10)
C5_8 C 0.4049(8) 0.6793(9) 0.8284(8)
C6_8 C 0.8386(8) 0.6875(9) 0.8031(9)
C7_8 C 0.3693(9) 0.7204(10) 0.7503(10)
H3_8 H 0.3077 0.7262 0.7441
C8_8 C 0.7837(9) 0.6106(10) 0.8090(10)
H4_8 H 0.8093 0.5548 0.8200
C9_8 C 0.4966(9) 0.6730(11) 0.8379(10)
H5_8 H 0.5207 0.6460 0.8903
C10_7 C 0.5143(9) 0.7459(10) 0.6915(10)
H6_7 H 0.5512 0.7679 0.6450
C11_8 C 0.6926(9) 0.6181(10) 0.7987(11)
H7_8 H 0.6570 0.5675 0.8056
C12_8 C 0.6526(8) 0.6991(10) 0.7781(9)
C13_8 C 0.7996(9) 0.7685(11) 0.7823(10)
H8_8 H 0.8350 0.8195 0.7768
C14_8 C 0.7062(9) 0.7746(11) 0.7693(10)
H9_8 H 0.6803 0.8294 0.7547
C15_8 C 0.5535(9) 0.7066(11) 0.7697(9)
C10_8 C 0.2541(10) 0.0143(9) 0.9415(10)
H6_8 H 0.2321 0.0512 0.8950
loop_
_geom_bond_atom_site_label_1
_geom_bond_atom_site_label_2
_geom_bond_site_symmetry_1
_geom_bond_site_symmetry_2
Eu1 O2 1_555 1_555
O1 C2 1_555 1_555
O2 H1 1_555 1_555
H2 O2 1_555 1_555
O3 C1 1_555 1_555
O4 C2 1_555 1_555
O5 C1 1_555 1_555
O6 Eu1 1_555 1_555
O7 C3 1_555 1_555
C1 C6 1_555 1_555
C2 C5 1_555 1_555
C3 O6 1_555 1_555
C4 C3 1_555 1_555
C5 C7 1_555 1_555
C6 C8 1_555 1_555
C7 C4 1_555 1_555
H3 C7 1_555 1_555
C8 H4 1_555 1_555
C9 C5 1_555 1_555
H5 C9 1_555 1_555
C10 C4 1_555 1_555
H6 C10 1_555 1_555
C11 C8 1_555 1_555
H7 C11 1_555 1_555
C12 C11 1_555 1_555
C13 C6 1_555 1_555
H8 C13 1_555 1_555
C14 C12 1_555 1_555
H9 C14 1_555 1_555
C15 C9 1_555 1_555
Eu2 O4 1_555 1_555
Eu4 O1 1_555 1_555
Eu5 O7 1_555 1_555
O8 Eu1 1_555 1_555
O9 Eu1 1_555 1_555
O10 Eu1 1_555 1_555
O11 Eu1 1_555 1_555
O12 Eu1 1_555 1_555
C10 C15 1_555 1_555
C12 C15 1_555 1_555
C13 C14 1_555 1_555
O1_2 C2_2 1_555 1_555
O10 C2_2 1_555 1_555
C2_2 C5_2 1_555 1_555
C5_2 C7_2 1_555 1_555
C9_2 C5_2 1_555 1_555
Eu5 O1_2 1_555 1_555
Eu2 O2_2 1_555 1_555
O2_2 H1_2 1_555 1_555
H2_2 O2_2 1_555 1_555
O6_2 Eu2 1_555 1_555
O7_2 C3_2 1_555 1_555
C3_2 O6_2 1_555 1_555
C4_2 C3_2 1_555 1_555
Eu4 O7_2 1_555 1_555
O8_2 Eu2 1_555 1_555
O3_2 C1_2 1_555 1_555
O5_2 C1_2 1_555 1_555
C1_2 C6_2 1_555 1_555
C6_2 C8_2 1_555 1_555
C8_2 H4_2 1_555 1_555
C11_2 C8_2 1_555 1_555
H7_2 C11_2 1_555 1_555
C12_2 C11_2 1_555 1_555
C13_2 C6_2 1_555 1_555
H8_2 C13_2 1_555 1_555
C14_2 C12_2 1_555 1_555
H9_2 C14_2 1_555 1_555
Eu5 O3_2 1_555 1_555
O5_2 Eu5 1_555 1_555
C12_2 C15_2 1_555 1_555
C13_2 C14_2 1_555 1_555
Eu4 O2_3 1_555 1_555
O8_2 C2_3 1_555 1_555
O2_3 H1_3 1_555 1_555
H2_3 O2_3 1_555 1_555
O9_2 C1_3 1_555 1_555
O4_2 C2_3 1_555 1_555
O11_2 C1_3 1_555 1_555
O6_3 Eu4 1_555 1_555
O12 C3_3 1_555 1_555
C1_3 C6_3 1_555 1_555
C2_3 C5_3 1_555 1_555
C3_3 O6_3 1_555 1_555
C4_3 C3_3 1_555 1_555
C5_3 C7_3 1_555 1_555
C6_3 C8_3 1_555 1_555
C7_3 C4_3 1_555 1_555
H3_3 C7_3 1_555 1_555
C8_3 H4_3 1_555 1_555
C9_3 C5_3 1_555 1_555
H5_3 C9_3 1_555 1_555
C10_2 C4_3 1_555 1_555
H6_2 C10_2 1_555 1_555
C11_3 C8_3 1_555 1_555
H7_3 C11_3 1_555 1_555
C12_3 C11_3 1_555 1_555
C13_3 C6_3 1_555 1_555
H8_3 C13_3 1_555 1_555
C14_3 C12_3 1_555 1_555
H9_3 C14_3 1_555 1_555
C15_3 C9_3 1_555 1_555
O10_2 Eu4 1_555 1_555
C10_2 C15_3 1_555 1_555
C12_3 C15_3 1_555 1_555
C13_3 C14_3 1_555 1_555
O9 C1_4 1_555 1_555
O11 C1_4 1_555 1_555
C1_4 C6_4 1_555 1_555
C6_4 C8_4 1_555 1_555
C8_4 H4_4 1_555 1_555
H6_3 C10_3 1_555 1_555
C11_4 C8_4 1_555 1_555
H7_4 C11_4 1_555 1_555
C12_4 C11_4 1_555 1_555
C13_4 C6_4 1_555 1_555
H8_4 C13_4 1_555 1_555
C14_4 C12_4 1_555 1_555
H9_4 C14_4 1_555 1_555
C10_3 C15_4 1_555 1_555
C12_4 C15_4 1_555 1_555
C13_4 C14_4 1_555 1_555
Eu5 O2_4 1_555 1_555
O8 C2_4 1_555 1_555
O2_4 H1_4 1_555 1_555
H2_4 O2_4 1_555 1_555
O10_2 C2_4 1_555 1_555
O6_4 Eu5 1_555 1_555
O12_2 C3_4 1_555 1_555
C2_4 C5_4 1_555 1_555
C3_4 O6_4 1_555 1_555
C4_4 C3_4 1_555 1_555
C5_4 C7_4 1_555 1_555
C7_4 C4_4 1_555 1_555
H3_4 C7_4 1_555 1_555
C9_4 C5_4 1_555 1_555
H6_4 C10_4 1_555 1_555
O3_3 C1_5 1_555 1_555
O5_3 C1_5 1_555 1_555
C1_5 C6_5 1_555 1_555
C6_5 C8_5 1_555 1_555
C8_5 H4_5 1_555 1_555
C11_5 C8_5 1_555 1_555
H7_5 C11_5 1_555 1_555
C12_5 C11_5 1_555 1_555
C13_5 C6_5 1_555 1_555
H8_5 C13_5 1_555 1_555
C14_5 C12_5 1_555 1_555
H9_5 C14_5 1_555 1_555
Eu4_2 O3_3 1_555 1_555
O5_3 Eu4_2 1_555 1_555
C12_5 C15_5 1_555 1_555
C13_5 C14_5 1_555 1_555
O1_3 C2_5 1_555 1_555
O4_3 C2_5 1_555 1_555
C2_5 C5_5 1_555 1_555
C5_5 C7_5 1_555 1_555
C9_5 C5_5 1_555 1_555
Eu2_2 O4_3 1_555 1_555
Eu4_2 O1_3 1_555 1_555
Eu1_2 O2_5 1_555 1_555
O2_5 H1_5 1_555 1_555
H2_5 O2_5 1_555 1_555
O6_5 Eu1_2 1_555 1_555
O7_3 C3_5 1_555 1_555
C3_5 O6_5 1_555 1_555
C4_5 C3_5 1_555 1_555
Eu5_2 O7_3 1_555 1_555
O8_3 Eu1_2 1_555 1_555
O10_3 Eu1_2 1_555 1_555
Eu2_2 O2_6 1_555 1_555
O1_4 C2_6 1_555 1_555
O2_6 H1_6 1_555 1_555
H2_6 O2_6 1_555 1_555
O3_4 C1_6 1_555 1_555
O10_3 C2_6 1_555 1_555
O5_4 C1_6 1_555 1_555
O6_6 Eu2_2 1_555 1_555
O7_4 C3_6 1_555 1_555
C1_6 C6_6 1_555 1_555
C2_6 C5_6 1_555 1_555
C3_6 O6_6 1_555 1_555
C4_6 C3_6 1_555 1_555
C5_6 C7_6 1_555 1_555
C6_6 C8_6 1_555 1_555
C7_6 C4_6 1_555 1_555
H3_6 C7_6 1_555 1_555
C8_6 H4_6 1_555 1_555
C9_6 C5_6 1_555 1_555
H5_6 C9_6 1_555 1_555
C10_5 C4_6 1_555 1_555
H6_5 C10_5 1_555 1_555
C11_6 C8_6 1_555 1_555
H7_6 C11_6 1_555 1_555
C12_6 C11_6 1_555 1_555
C13_6 C6_6 1_555 1_555
H8_6 C13_6 1_555 1_555
C14_6 C12_6 1_555 1_555
H9_6 C14_6 1_555 1_555
C15_6 C9_6 1_555 1_555
Eu5_2 O1_4 1_555 1_555
Eu4_2 O7_4 1_555 1_555
O8_4 Eu2_2 1_555 1_555
O9_4 Eu2_2 1_555 1_555
O11_4 Eu2_2 1_555 1_555
O12_4 Eu2_2 1_555 1_555
C10_5 C15_6 1_555 1_555
C12_6 C15_6 1_555 1_555
C13_6 C14_6 1_555 1_555
Eu4_2 O2_7 1_555 1_555
O8_4 C2_7 1_555 1_555
O2_7 H1_7 1_555 1_555
H2_7 O2_7 1_555 1_555
O4_4 C2_7 1_555 1_555
O6_7 Eu4_2 1_555 1_555
O12_3 C3_7 1_555 1_555
C2_7 C5_7 1_555 1_555
C3_7 O6_7 1_555 1_555
C4_7 C3_7 1_555 1_555
C5_7 C7_7 1_555 1_555
C7_7 C4_7 1_555 1_555
H3_7 C7_7 1_555 1_555
C9_7 C5_7 1_555 1_555
Eu5_2 O4_4 1_555 1_555
O9_4 C1_7 1_555 1_555
O11_4 C1_7 1_555 1_555
C1_7 C6_7 1_555 1_555
C6_7 C8_7 1_555 1_555
C8_7 H4_7 1_555 1_555
H6_6 C10_6 1_555 1_555
C11_7 C8_7 1_555 1_555
H7_7 C11_7 1_555 1_555
C12_7 C11_7 1_555 1_555
C13_7 C6_7 1_555 1_555
H8_7 C13_7 1_555 1_555
C14_7 C12_7 1_555 1_555
H9_7 C14_7 1_555 1_555
C10_6 C15_7 1_555 1_555
C12_7 C15_7 1_555 1_555
C13_7 C14_7 1_555 1_555
Eu5_2 O2_8 1_555 1_555
O8_3 C2_8 1_555 1_555
O2_8 H1_8 1_555 1_555
H2_8 O2_8 1_555 1_555
O9_3 C1_8 1_555 1_555
O10_4 C2_8 1_555 1_555
O11_3 C1_8 1_555 1_555
O6_8 Eu5_2 1_555 1_555
O12_4 C3_8 1_555 1_555
C1_8 C6_8 1_555 1_555
C2_8 C5_8 1_555 1_555
C3_8 O6_8 1_555 1_555
C4_8 C3_8 1_555 1_555
C5_8 C7_8 1_555 1_555
C6_8 C8_8 1_555 1_555
C7_8 C4_8 1_555 1_555
H3_8 C7_8 1_555 1_555
C8_8 H4_8 1_555 1_555
C9_8 C5_8 1_555 1_555
H5_8 C9_8 1_555 1_555
C10_7 C4_8 1_555 1_555
H6_7 C10_7 1_555 1_555
C11_8 C8_8 1_555 1_555
H7_8 C11_8 1_555 1_555
C12_8 C11_8 1_555 1_555
C13_8 C6_8 1_555 1_555
H8_8 C13_8 1_555 1_555
C14_8 C12_8 1_555 1_555
H9_8 C14_8 1_555 1_555
C15_8 C9_8 1_555 1_555
C10_7 C15_8 1_555 1_555
C12_8 C15_8 1_555 1_555
C13_8 C14_8 1_555 1_555
H6_8 C10_8 1_555 1_555

#END
