
###############################################################################
#
# This file contains modified crystal structure data generated from the
# MOF subset of the Cambridge Structural Database (CSD) v543 
# hosted by the Cambridge Crystallographic Data Centre (CCDC).
#
# This work is licensed under the Creative Commons
# Attribution-NonCommercial-ShareAlike 4.0 International License.
# To view a copy of this license, visit
# http://creativecommons.org/licenses/by-nc-sa/4.0/
# or send a letter to
# Creative Commons, PO Box 1866, Mountain View, CA 94042, USA.
#
# CIF created using the CSD Python API on 29 September 2022
# The structure has been converted into the P1 space group
# The structure has a 3D framework
# The original CSD entry ANAWIX is in the monoclinic crystal system
# The framework has been calculated to contain at least 10.0% void space
# The void calculation uses a probe of radius 1.32A, grid spacing 0.4
#
###############################################################################

data_ANAWIX
_chemical_formula_moiety         '(C64 H24 F32 In16 O48)n'
_symmetry_cell_setting           triclinic
_symmetry_space_group_name_H-M   'P 1'
_symmetry_Int_Tables_number      1
_space_group_name_Hall           'P 1'
loop_
_symmetry_equiv_pos_site_id
_symmetry_equiv_pos_as_xyz
1 x,y,z
_cell_length_a                   16.264(3)
_cell_length_b                   15.110(2)
_cell_length_c                   14.376(3)
_cell_angle_alpha                90
_cell_angle_beta                 115.148(7)
_cell_angle_gamma                90
_cell_volume                     3198.02
loop_
_atom_site_label
_atom_site_type_symbol
_atom_site_fract_x
_atom_site_fract_y
_atom_site_fract_z
In5 In -0.0000 0.0000 -0.0000
In5_2 In -0.0000 0.0000 1.0000
In5_3 In -0.0000 1.0000 -0.0000
In5_4 In -0.0000 1.0000 1.0000
In6 In 0.0000 0.93551(2) 0.7500
In7 In 0.0000 0.06449(2) 0.2500
In3 In 0.5000 0.5000 -0.0000
In5_5 In 1.0000 0.0000 -0.0000
C1 C 0.6861(3) 0.4043(3) 0.5672(4)
C2 C 0.7433(3) 0.3257(3) 0.6237(4)
C3 C 0.7073(3) 0.2414(3) 0.6046(4)
C4 C 0.7569(4) 0.1691(3) 0.6604(4)
C5 C 0.8445(3) 0.1796(3) 0.7365(3)
C6 C 0.8800(3) 0.2641(3) 0.7557(4)
C7 C 0.8306(4) 0.3360(3) 0.6991(4)
C8 C 0.8980(3) 0.1003(3) 0.7937(4)
O1 O 0.6116(2) 0.4098(2) 0.5774(3)
O2 O 0.7126(3) 0.4536(3) 0.5181(3)
O3 O 0.9337(2) 0.1047(2) 0.8892(3)
O4 O 0.9014(3) 0.0370(2) 0.7383(3)
O5 O 0.4400(2) 0.4442(2) 0.5896(2)
H1 H 0.390(3) 0.469(4) 0.576(5)
O6 O 0.5899(3) 0.3370(2) 0.7382(3)
H2 H 0.596(4) 0.346(4) 0.683(3)
H3 H 0.644(2) 0.335(4) 0.786(3)
F1 F 0.6237(2) 0.2270(2) 0.5314(3)
F2 F 0.7171(2) 0.08970(19) 0.6410(3)
F3 F 0.9643(2) 0.2778(2) 0.8283(2)
F4 F 0.8680(2) 0.4164(2) 0.7230(3)
In1 In 0.5000 0.5000 0.5000
In2 In 0.5000 0.43551(2) 0.7500
O7 O 0.5600(2) 0.4442(2) 0.9104(2)
H4 H 0.610(3) 0.469(4) 0.924(5)
O8 O 0.4101(3) 0.3370(2) 0.7618(3)
H5 H 0.404(4) 0.346(4) 0.817(3)
H6 H 0.356(2) 0.335(4) 0.714(3)
C9 C 0.3139(3) 0.5957(3) 0.4328(4)
C10 C 0.2567(3) 0.6743(3) 0.3763(4)
C11 C 0.2927(3) 0.7586(3) 0.3954(4)
C12 C 0.2431(4) 0.8309(3) 0.3396(4)
C13 C 0.1555(3) 0.8204(3) 0.2635(3)
C14 C 0.1200(3) 0.7359(3) 0.2443(4)
C15 C 0.1694(4) 0.6640(3) 0.3009(4)
C16 C 0.1020(3) 0.8997(3) 0.2063(4)
O9 O 0.3884(2) 0.5902(2) 0.4226(3)
O10 O 0.2874(3) 0.5464(3) 0.4819(3)
O11 O 0.0663(2) 0.8953(2) 0.1108(3)
O12 O 0.0986(3) 0.9630(2) 0.2617(3)
F5 F 0.3763(2) 0.7730(2) 0.4686(3)
F6 F 0.2829(2) 0.91030(19) 0.3590(3)
F7 F 0.0357(2) 0.7222(2) 0.1717(2)
F8 F 0.1320(2) 0.5836(2) 0.2770(3)
O13 O 0.5663(2) 0.6047(2) 0.6108(3)
O14 O 0.4337(2) 0.3953(2) 0.3892(3)
O15 O 0.4014(3) 0.5370(2) 0.7383(3)
O16 O 0.5986(3) 0.5370(2) 0.7617(3)
O17 O 0.5600(2) 0.5558(2) 0.4104(2)
In3_2 In 0.5000 0.5000 1.0000
In5_6 In 1.0000 0.0000 1.0000
In5_7 In 1.0000 1.0000 -0.0000
In5_8 In 1.0000 1.0000 1.0000
In6_2 In 1.0000 0.93551(2) 0.7500
In7_2 In 1.0000 0.06449(2) 0.2500
In4 In 0.0000 0.0000 0.5000
In4_2 In 0.0000 1.0000 0.5000
In4_3 In 1.0000 0.0000 0.5000
C9_2 C 0.6861(3) 0.5957(3) 0.0672(4)
C10_2 C 0.7433(3) 0.6743(3) 0.1237(4)
C11_2 C 0.7073(3) 0.7586(3) 0.1046(4)
C12_2 C 0.7569(4) 0.8309(3) 0.1604(4)
C13_2 C 0.8445(3) 0.8204(3) 0.2365(3)
C14_2 C 0.8800(3) 0.7359(3) 0.2557(4)
C15_2 C 0.8306(4) 0.6640(3) 0.1991(4)
C16_2 C 0.8980(3) 0.8997(3) 0.2937(4)
O9_2 O 0.6116(2) 0.5902(2) 0.0774(3)
O10_2 O 0.7126(3) 0.5464(3) 0.0181(3)
O11_2 O 0.9337(2) 0.8953(2) 0.3892(3)
O12_2 O 0.9014(3) 0.9630(2) 0.2383(3)
F5_2 F 0.6237(2) 0.7730(2) 0.0314(3)
F6_2 F 0.7171(2) 0.91030(19) 0.1410(3)
F7_2 F 0.9643(2) 0.7222(2) 0.3283(2)
F8_2 F 0.8680(2) 0.5836(2) 0.2230(3)
O14_2 O 0.5663(2) 0.3953(2) 0.1108(3)
O17_2 O 0.4400(2) 0.5558(2) 0.0896(2)
In4_4 In 1.0000 1.0000 0.5000
C1_2 C 0.3139(3) 0.4043(3) 0.9328(4)
C2_2 C 0.2567(3) 0.3257(3) 0.8763(4)
C3_2 C 0.2927(3) 0.2414(3) 0.8954(4)
C4_2 C 0.2431(4) 0.1691(3) 0.8396(4)
C5_2 C 0.1555(3) 0.1796(3) 0.7635(3)
C6_2 C 0.1200(3) 0.2641(3) 0.7443(4)
C7_2 C 0.1694(4) 0.3360(3) 0.8009(4)
C8_2 C 0.1020(3) 0.1003(3) 0.7063(4)
O1_2 O 0.3884(2) 0.4098(2) 0.9226(3)
O2_2 O 0.2874(3) 0.4536(3) 0.9819(3)
O3_2 O 0.0663(2) 0.1047(2) 0.6108(3)
O4_2 O 0.0986(3) 0.0370(2) 0.7617(3)
F1_2 F 0.3763(2) 0.2270(2) 0.9686(3)
F2_2 F 0.2829(2) 0.08970(19) 0.8590(3)
F3_2 F 0.0357(2) 0.2778(2) 0.6717(2)
F4_2 F 0.1320(2) 0.4164(2) 0.7770(3)
O13_2 O 0.4337(2) 0.6047(2) 0.8892(3)
O17_3 O 0.0600(2) 0.0558(2) 0.4104(2)
C1_3 C 0.1861(3) 0.9043(3) 0.5672(4)
C2_3 C 0.2433(3) 0.8257(3) 0.6237(4)
C3_3 C 0.2073(3) 0.7414(3) 0.6046(4)
C4_3 C 0.2569(4) 0.6691(3) 0.6604(4)
C5_3 C 0.3445(3) 0.6796(3) 0.7365(3)
C6_3 C 0.3800(3) 0.7641(3) 0.7557(4)
C7_3 C 0.3306(4) 0.8360(3) 0.6991(4)
C8_3 C 0.3980(3) 0.6003(3) 0.7937(4)
O1_3 O 0.1116(2) 0.9098(2) 0.5774(3)
O2_3 O 0.2126(3) 0.9536(3) 0.5181(3)
O6_2 O 0.0899(3) 0.8370(2) 0.7382(3)
H2_2 H 0.096(4) 0.846(4) 0.683(3)
H3_2 H 0.144(2) 0.835(4) 0.786(3)
F1_3 F 0.1237(2) 0.7270(2) 0.5314(3)
F2_3 F 0.2171(2) 0.58970(19) 0.6410(3)
F3_3 F 0.4643(2) 0.7778(2) 0.8283(2)
F4_3 F 0.3680(2) 0.9164(2) 0.7230(3)
O7_2 O 0.0600(2) 0.9442(2) 0.9104(2)
H4_2 H 0.110(3) 0.969(4) 0.924(5)
C9_3 C 0.8139(3) 0.0957(3) 0.4328(4)
C10_3 C 0.7567(3) 0.1743(3) 0.3763(4)
C11_3 C 0.7927(3) 0.2586(3) 0.3954(4)
C12_3 C 0.7431(4) 0.3309(3) 0.3396(4)
C13_3 C 0.6555(3) 0.3204(3) 0.2635(3)
C14_3 C 0.6200(3) 0.2359(3) 0.2443(4)
C15_3 C 0.6694(4) 0.1640(3) 0.3009(4)
C16_3 C 0.6020(3) 0.3997(3) 0.2063(4)
O9_3 O 0.8884(2) 0.0902(2) 0.4226(3)
O10_3 O 0.7874(3) 0.0464(3) 0.4819(3)
O12_3 O 0.5986(3) 0.4630(2) 0.2617(3)
F5_3 F 0.8763(2) 0.2730(2) 0.4686(3)
F6_3 F 0.7829(2) 0.41030(19) 0.3590(3)
F7_3 F 0.5357(2) 0.2222(2) 0.1717(2)
F8_3 F 0.6320(2) 0.0836(2) 0.2770(3)
In7_3 In 0.5000 0.56449(2) 0.2500
O5_2 O 0.9400(2) 0.9442(2) 0.5896(2)
H1_2 H 0.890(3) 0.969(4) 0.576(5)
O8_2 O 0.9101(3) 0.8370(2) 0.7618(3)
H5_2 H 0.904(4) 0.846(4) 0.817(3)
H6_2 H 0.856(2) 0.835(4) 0.714(3)
C9_4 C 0.1861(3) 0.0957(3) 0.0672(4)
C10_4 C 0.2433(3) 0.1743(3) 0.1237(4)
C11_4 C 0.2073(3) 0.2586(3) 0.1046(4)
C12_4 C 0.2569(4) 0.3309(3) 0.1604(4)
C13_4 C 0.3445(3) 0.3204(3) 0.2365(3)
C14_4 C 0.3800(3) 0.2359(3) 0.2557(4)
C15_4 C 0.3306(4) 0.1640(3) 0.1991(4)
C16_4 C 0.3980(3) 0.3997(3) 0.2937(4)
O9_4 O 0.1116(2) 0.0902(2) 0.0774(3)
O10_4 O 0.2126(3) 0.0464(3) 0.0181(3)
O12_4 O 0.4014(3) 0.4630(2) 0.2383(3)
F5_4 F 0.1237(2) 0.2730(2) 0.0314(3)
F6_4 F 0.2171(2) 0.41030(19) 0.1410(3)
F7_4 F 0.4643(2) 0.2222(2) 0.3283(2)
F8_4 F 0.3680(2) 0.0836(2) 0.2230(3)
O17_4 O 0.9400(2) 0.0558(2) 0.0896(2)
C1_4 C 0.8139(3) 0.9043(3) 0.9328(4)
C2_4 C 0.7567(3) 0.8257(3) 0.8763(4)
C3_4 C 0.7927(3) 0.7414(3) 0.8954(4)
C4_4 C 0.7431(4) 0.6691(3) 0.8396(4)
C5_4 C 0.6555(3) 0.6796(3) 0.7635(3)
C6_4 C 0.6200(3) 0.7641(3) 0.7443(4)
C7_4 C 0.6694(4) 0.8360(3) 0.8009(4)
C8_4 C 0.6020(3) 0.6003(3) 0.7063(4)
O1_4 O 0.8884(2) 0.9098(2) 0.9226(3)
O2_4 O 0.7874(3) 0.9536(3) 0.9819(3)
F1_4 F 0.8763(2) 0.7270(2) 0.9686(3)
F2_4 F 0.7829(2) 0.58970(19) 0.8590(3)
F3_4 F 0.5357(2) 0.7778(2) 0.6717(2)
F4_4 F 0.6320(2) 0.9164(2) 0.7770(3)
H1_3 H 0.610(3) 0.531(4) 0.424(5)
O6_3 O 0.4101(3) 0.6630(2) 0.2618(3)
H2_3 H 0.404(4) 0.654(4) 0.317(3)
H3_3 H 0.356(2) 0.665(4) 0.214(3)
H4_3 H 0.390(3) 0.531(4) 0.076(5)
O8_3 O 0.5899(3) 0.6630(2) 0.2382(3)
H5_3 H 0.596(4) 0.654(4) 0.183(3)
H6_3 H 0.644(2) 0.665(4) 0.286(3)
H1_4 H 0.110(3) 0.031(4) 0.424(5)
O8_4 O 0.0899(3) 0.1630(2) 0.2382(3)
H5_4 H 0.096(4) 0.154(4) 0.183(3)
H6_4 H 0.144(2) 0.165(4) 0.286(3)
O6_4 O 0.9101(3) 0.1630(2) 0.2618(3)
H2_4 H 0.904(4) 0.154(4) 0.317(3)
H3_4 H 0.856(2) 0.165(4) 0.214(3)
H4_4 H 0.890(3) 0.031(4) 0.076(5)
loop_
_geom_bond_atom_site_label_1
_geom_bond_atom_site_label_2
_geom_bond_site_symmetry_1
_geom_bond_site_symmetry_2
C1 C2 1_555 1_555
C2 C3 1_555 1_555
C3 C4 1_555 1_555
C4 C5 1_555 1_555
C5 C6 1_555 1_555
C6 C7 1_555 1_555
C7 C2 1_555 1_555
C8 C5 1_555 1_555
O1 C1 1_555 1_555
O2 C1 1_555 1_555
O3 C8 1_555 1_555
O4 C8 1_555 1_555
O5 H1 1_555 1_555
O6 H2 1_555 1_555
H3 O6 1_555 1_555
F1 C3 1_555 1_555
F2 C4 1_555 1_555
F3 C6 1_555 1_555
F4 C7 1_555 1_555
In1 O1 1_555 1_555
In2 O5 1_555 1_555
O7 In2 1_555 1_555
H4 O7 1_555 1_555
O8 In2 1_555 1_555
H5 O8 1_555 1_555
H6 O8 1_555 1_555
C9 C10 1_555 1_555
C10 C11 1_555 1_555
C11 C12 1_555 1_555
C12 C13 1_555 1_555
C13 C14 1_555 1_555
C14 C15 1_555 1_555
C15 C10 1_555 1_555
C16 C13 1_555 1_555
O9 In1 1_555 1_555
O10 C9 1_555 1_555
O11 C16 1_555 1_555
O12 C16 1_555 1_555
F5 C11 1_555 1_555
F6 C12 1_555 1_555
F7 C14 1_555 1_555
F8 C15 1_555 1_555
O13 In1 1_555 1_555
O14 In1 1_555 1_555
O15 In2 1_555 1_555
O16 In2 1_555 1_555
O17 In1 1_555 1_555
In3_2 O7 1_555 1_555
In5_3 O11 1_555 1_555
In5_6 O3 1_555 1_555
O5 In1 1_555 1_555
O6 In2 1_555 1_555
C9 O9 1_555 1_555
C9_2 C10_2 1_555 1_555
C10_2 C11_2 1_555 1_555
C11_2 C12_2 1_555 1_555
C12_2 C13_2 1_555 1_555
C13_2 C14_2 1_555 1_555
C14_2 C15_2 1_555 1_555
C15_2 C10_2 1_555 1_555
C16_2 C13_2 1_555 1_555
O9_2 In3 1_555 1_555
O10_2 C9_2 1_555 1_555
O11_2 C16_2 1_555 1_555
O12_2 C16_2 1_555 1_555
F5_2 C11_2 1_555 1_555
F6_2 C12_2 1_555 1_555
F7_2 C14_2 1_555 1_555
F8_2 C15_2 1_555 1_555
O14_2 In3 1_555 1_555
O17_2 In3 1_555 1_555
In4_4 O11_2 1_555 1_555
C9_2 O9_2 1_555 1_555
C1_2 C2_2 1_555 1_555
C2_2 C3_2 1_555 1_555
C3_2 C4_2 1_555 1_555
C4_2 C5_2 1_555 1_555
C5_2 C6_2 1_555 1_555
C6_2 C7_2 1_555 1_555
C7_2 C2_2 1_555 1_555
C8_2 C5_2 1_555 1_555
O1_2 C1_2 1_555 1_555
O2_2 C1_2 1_555 1_555
O3_2 C8_2 1_555 1_555
O4_2 C8_2 1_555 1_555
F1_2 C3_2 1_555 1_555
F2_2 C4_2 1_555 1_555
F3_2 C6_2 1_555 1_555
F4_2 C7_2 1_555 1_555
In3_2 O1_2 1_555 1_555
O13_2 In3_2 1_555 1_555
In4 O3_2 1_555 1_555
O17_3 In4 1_555 1_555
C1_3 C2_3 1_555 1_555
C2_3 C3_3 1_555 1_555
C3_3 C4_3 1_555 1_555
C4_3 C5_3 1_555 1_555
C5_3 C6_3 1_555 1_555
C6_3 C7_3 1_555 1_555
C7_3 C2_3 1_555 1_555
C8_3 C5_3 1_555 1_555
O1_3 C1_3 1_555 1_555
O2_3 C1_3 1_555 1_555
O13_2 C8_3 1_555 1_555
O15 C8_3 1_555 1_555
O6_2 H2_2 1_555 1_555
H3_2 O6_2 1_555 1_555
F1_3 C3_3 1_555 1_555
F2_3 C4_3 1_555 1_555
F3_3 C6_3 1_555 1_555
F4_3 C7_3 1_555 1_555
In4_2 O1_3 1_555 1_555
O7_2 In6 1_555 1_555
H4_2 O7_2 1_555 1_555
In5_4 O7_2 1_555 1_555
O6_2 In6 1_555 1_555
C9_3 C10_3 1_555 1_555
C10_3 C11_3 1_555 1_555
C11_3 C12_3 1_555 1_555
C12_3 C13_3 1_555 1_555
C13_3 C14_3 1_555 1_555
C14_3 C15_3 1_555 1_555
C15_3 C10_3 1_555 1_555
C16_3 C13_3 1_555 1_555
O9_3 In4_3 1_555 1_555
O10_3 C9_3 1_555 1_555
O14_2 C16_3 1_555 1_555
O12_3 C16_3 1_555 1_555
F5_3 C11_3 1_555 1_555
F6_3 C12_3 1_555 1_555
F7_3 C14_3 1_555 1_555
F8_3 C15_3 1_555 1_555
In7_3 O12_3 1_555 1_555
C9_3 O9_3 1_555 1_555
O5_2 H1_2 1_555 1_555
In6_2 O5_2 1_555 1_555
O8_2 In6_2 1_555 1_555
H5_2 O8_2 1_555 1_555
H6_2 O8_2 1_555 1_555
O5_2 In4_4 1_555 1_555
C9_4 C10_4 1_555 1_555
C10_4 C11_4 1_555 1_555
C11_4 C12_4 1_555 1_555
C12_4 C13_4 1_555 1_555
C13_4 C14_4 1_555 1_555
C14_4 C15_4 1_555 1_555
C15_4 C10_4 1_555 1_555
C16_4 C13_4 1_555 1_555
O9_4 In5 1_555 1_555
O10_4 C9_4 1_555 1_555
O14 C16_4 1_555 1_555
O12_4 C16_4 1_555 1_555
F5_4 C11_4 1_555 1_555
F6_4 C12_4 1_555 1_555
F7_4 C14_4 1_555 1_555
F8_4 C15_4 1_555 1_555
In7_3 O12_4 1_555 1_555
C9_4 O9_4 1_555 1_555
O17_4 In5_5 1_555 1_555
C1_4 C2_4 1_555 1_555
C2_4 C3_4 1_555 1_555
C3_4 C4_4 1_555 1_555
C4_4 C5_4 1_555 1_555
C5_4 C6_4 1_555 1_555
C6_4 C7_4 1_555 1_555
C7_4 C2_4 1_555 1_555
C8_4 C5_4 1_555 1_555
O1_4 C1_4 1_555 1_555
O2_4 C1_4 1_555 1_555
O13 C8_4 1_555 1_555
O16 C8_4 1_555 1_555
F1_4 C3_4 1_555 1_555
F2_4 C4_4 1_555 1_555
F3_4 C6_4 1_555 1_555
F4_4 C7_4 1_555 1_555
In5_8 O1_4 1_555 1_555
O17 H1_3 1_555 1_555
O6_3 H2_3 1_555 1_555
H3_3 O6_3 1_555 1_555
In7_3 O17 1_555 1_555
O17_2 In7_3 1_555 1_555
H4_3 O17_2 1_555 1_555
O8_3 In7_3 1_555 1_555
H5_3 O8_3 1_555 1_555
H6_3 O8_3 1_555 1_555
O6_3 In7_3 1_555 1_555
O17_3 H1_4 1_555 1_555
In7 O17_3 1_555 1_555
O8_4 In7 1_555 1_555
H5_4 O8_4 1_555 1_555
H6_4 O8_4 1_555 1_555
O6_4 H2_4 1_555 1_555
H3_4 O6_4 1_555 1_555
O17_4 In7_2 1_555 1_555
H4_4 O17_4 1_555 1_555
O6_4 In7_2 1_555 1_555

#END
