
###############################################################################
#
# This file contains modified crystal structure data generated from the
# MOF subset of the Cambridge Structural Database (CSD) v543 
# hosted by the Cambridge Crystallographic Data Centre (CCDC).
#
# This work is licensed under the Creative Commons
# Attribution-NonCommercial-ShareAlike 4.0 International License.
# To view a copy of this license, visit
# http://creativecommons.org/licenses/by-nc-sa/4.0/
# or send a letter to
# Creative Commons, PO Box 1866, Mountain View, CA 94042, USA.
#
# CIF created using the CSD Python API on 29 September 2022
# The structure has been converted into the P1 space group
# The structure has a 3D framework
# The original CSD entry ANEKUC is in the monoclinic crystal system
# The framework has been calculated to contain at least 10.0% void space
# The void calculation uses a probe of radius 1.32A, grid spacing 0.4
#
###############################################################################

data_ANEKUC
_chemical_formula_moiety         '(C48 H34 Ca2 O28 Zn4)n'
_symmetry_cell_setting           triclinic
_symmetry_space_group_name_H-M   'P 1'
_symmetry_Int_Tables_number      1
_space_group_name_Hall           'P 1'
loop_
_symmetry_equiv_pos_site_id
_symmetry_equiv_pos_as_xyz
1 x,y,z
_cell_length_a                   11.4902(10)
_cell_length_b                   17.3323(15)
_cell_length_c                   12.9586(11)
_cell_angle_alpha                90
_cell_angle_beta                 107.835(10)
_cell_angle_gamma                90
_cell_volume                     2456.7
loop_
_atom_site_label
_atom_site_type_symbol
_atom_site_fract_x
_atom_site_fract_y
_atom_site_fract_z
Ca1 Ca -0.0000 0.0000 0.5000
O19 O 0.0757(4) 0.1087(2) 0.5957(3)
Ca1_2 Ca -0.0000 1.0000 0.5000
Zn3 Zn 0.03075(3) 0.96523(2) 0.22104(3)
O15 O 0.0616(4) 0.9422(2) 0.6637(3)
O20 O 0.1762(3) 0.9722(3) 0.4655(3)
Zn1 Zn 0.46925(3) 0.46523(2) 0.27896(3)
Ca1_3 Ca 1.0000 0.0000 0.5000
O1 O 0.9384(4) 0.0578(2) 0.3363(3)
O2 O 0.4432(3) 0.4314(2) 0.4191(2)
H1 H 0.4281 0.3831 0.4159
H2 H 0.3784 0.4520 0.4254
O3 O 0.9309(3) 0.05884(17) 0.1690(2)
O4 O 0.5757(4) 0.3913(2) 0.0957(3)
O5 O 0.5623(3) 0.37699(16) 0.2623(2)
O6 O 0.2995(2) 0.47870(19) 0.1978(2)
O7 O 0.3238(3) 0.4722(3) 0.0345(3)
C1 C 0.9033(4) 0.0867(2) 0.2470(3)
C2 C 0.8241(4) 0.1562(2) 0.2289(3)
C3 C 0.7902(6) 0.1942(3) 0.1333(4)
H3 H 0.8174 0.1764 0.0770
C4 C 0.7154(5) 0.2595(3) 0.1166(3)
H4 H 0.6927 0.2845 0.0499
C5 C 0.6758(4) 0.2862(2) 0.1994(3)
C6 C 0.7073(5) 0.2474(3) 0.2956(4)
H5 H 0.6816 0.2653 0.3527
C7 C 0.7782(5) 0.1808(3) 0.3079(4)
H6 H 0.7945 0.1526 0.3718
C8 C 0.5998(4) 0.3569(2) 0.1828(4)
C9 C 0.2594(4) 0.4813(3) 0.0964(4)
C11 C 0.1247(3) 0.4908(3) 0.0467(3)
C12 C 0.0474(4) 0.4890(4) 0.1100(4)
H8 H 0.0784 0.4808 0.1844
Ca4 Ca 0.5000 0.5000 0.0000
O16 O 0.5691(3) 0.55884(17) 0.3310(2)
O21 O 0.8238(3) 0.0278(3) 0.5345(3)
C10 C 0.0760(4) 0.5005(4) 0.9383(4)
H7 H 0.1276 0.5000 0.8953
Ca4_2 Ca 0.5000 0.5000 1.0000
Ca1_4 Ca 1.0000 1.0000 0.5000
O18 O 0.9243(4) 0.8913(2) 0.4043(3)
C14 C 0.9240(4) 0.4995(4) 0.0617(4)
H9 H 0.8724 0.5000 0.1047
O8 O 0.7005(2) 0.52130(19) 0.8022(2)
O9 O 0.6762(3) 0.5278(3) 0.9655(3)
C13 C 0.7406(4) 0.5187(3) 0.9036(4)
C15 C 0.8753(3) 0.5092(3) 0.9533(3)
C16 C 0.9526(4) 0.5110(4) 0.8900(4)
H10 H 0.9216 0.5192 0.8156
Zn2 Zn 0.53075(3) 0.53477(2) 0.72104(3)
O11 O 0.5568(3) 0.5686(2) 0.5809(2)
H11 H 0.5719 0.6169 0.5841
H12 H 0.6216 0.5480 0.5746
O12 O 0.0691(3) 0.94116(17) 0.8310(2)
O13 O 0.4243(4) 0.6087(2) 0.9043(3)
O14 O 0.4377(3) 0.62301(16) 0.7377(2)
C17 C 0.0967(4) 0.9133(2) 0.7530(3)
C18 C 0.1759(4) 0.8438(2) 0.7711(3)
C19 C 0.2098(6) 0.8058(3) 0.8667(4)
H13 H 0.1826 0.8236 0.9230
C20 C 0.2846(5) 0.7405(3) 0.8834(3)
H14 H 0.3073 0.7155 0.9501
C21 C 0.3242(4) 0.7138(2) 0.8006(3)
C22 C 0.2927(5) 0.7526(3) 0.7044(4)
H15 H 0.3184 0.7347 0.6473
C23 C 0.2218(5) 0.8192(3) 0.6921(4)
H16 H 0.2055 0.8474 0.6282
C24 C 0.4002(4) 0.6431(2) 0.8172(4)
O17 O 0.4309(3) 0.44116(17) 0.6690(2)
Zn4 Zn 0.96925(3) 0.03477(2) 0.77896(3)
O10 O 0.4384(4) 0.4422(2) 0.8363(3)
O14_2 O 0.0623(3) 0.12301(16) 0.7623(2)
C17_2 C 0.4033(4) 0.4133(2) 0.7470(3)
C18_2 C 0.3241(4) 0.3438(2) 0.7289(3)
C19_2 C 0.2902(6) 0.3058(3) 0.6333(4)
H13_2 H 0.3174 0.3236 0.5770
C20_2 C 0.2154(5) 0.2405(3) 0.6166(3)
H14_2 H 0.1927 0.2155 0.5499
C21_2 C 0.1758(4) 0.2138(2) 0.6994(3)
C22_2 C 0.2073(5) 0.2526(3) 0.7956(4)
H15_2 H 0.1816 0.2347 0.8527
C23_2 C 0.2782(5) 0.3192(3) 0.8079(4)
H16_2 H 0.2945 0.3474 0.8718
C24_2 C 0.0998(4) 0.1431(2) 0.6828(4)
C10_2 C 0.4240(4) 0.0005(4) 0.5617(4)
H7_2 H 0.3724 0.0000 0.6047
O8_2 O 0.7995(2) 0.02130(19) 0.6978(2)
C13_2 C 0.7594(4) 0.0187(3) 0.5964(4)
H9_2 H 0.6276 0.0000 0.3953
C15_2 C 0.6247(3) 0.0092(3) 0.5467(3)
C16_2 C 0.5474(4) 0.0110(4) 0.6100(4)
H10_2 H 0.5784 0.0192 0.6844
O11_2 O 0.9432(3) 0.0686(2) 0.9191(2)
H11_2 H 0.9281 0.1169 0.9159
H12_2 H 0.8784 0.0480 0.9254
O2_2 O 0.0568(3) 0.9314(2) 0.0809(2)
H1_2 H 0.0719 0.8831 0.0841
H2_2 H 0.1216 0.9520 0.0746
O6_2 O 0.2005(2) 0.97870(19) 0.3022(2)
C9_2 C 0.2406(4) 0.9813(3) 0.4036(4)
H7_3 H 0.3724 1.0000 0.6047
C11_2 C 0.3753(3) 0.9908(3) 0.4533(3)
C12_2 C 0.4526(4) 0.9890(4) 0.3900(4)
H8_2 H 0.4216 0.9808 0.3156
C14_2 C 0.5760(4) 0.9995(4) 0.4383(4)
H9_3 H 0.6276 1.0000 0.3953
O1_2 O 0.5616(4) 0.5578(2) 0.1637(3)
O5_2 O 0.9377(3) 0.87699(16) 0.2377(2)
C1_2 C 0.5967(4) 0.5867(2) 0.2530(3)
C2_2 C 0.6759(4) 0.6562(2) 0.2711(3)
C3_2 C 0.7098(6) 0.6942(3) 0.3667(4)
H3_2 H 0.6826 0.6764 0.4230
C4_2 C 0.7846(5) 0.7595(3) 0.3834(3)
H4_2 H 0.8073 0.7845 0.4501
C5_2 C 0.8242(4) 0.7862(2) 0.3006(3)
C6_2 C 0.7927(5) 0.7474(3) 0.2044(4)
H5_2 H 0.8184 0.7653 0.1473
C7_2 C 0.7218(5) 0.6808(3) 0.1921(4)
H6_2 H 0.7055 0.6526 0.1282
C8_2 C 0.9002(4) 0.8569(2) 0.3172(4)
loop_
_geom_bond_atom_site_label_1
_geom_bond_atom_site_label_2
_geom_bond_site_symmetry_1
_geom_bond_site_symmetry_2
O19 Ca1 1_555 1_555
O15 Ca1_2 1_555 1_555
O20 Ca1_2 1_555 1_555
Zn1 O2 1_555 1_555
Ca1_3 O1 1_555 1_555
O1 C1 1_555 1_555
O2 H1 1_555 1_555
H2 O2 1_555 1_555
O3 C1 1_555 1_555
O4 C8 1_555 1_555
O5 Zn1 1_555 1_555
O6 Zn1 1_555 1_555
O7 C9 1_555 1_555
C1 C2 1_555 1_555
C2 C3 1_555 1_555
C3 H3 1_555 1_555
C4 C3 1_555 1_555
H4 C4 1_555 1_555
C5 C4 1_555 1_555
C6 C5 1_555 1_555
H5 C6 1_555 1_555
C7 C2 1_555 1_555
H6 C7 1_555 1_555
C8 O5 1_555 1_555
C9 O6 1_555 1_555
C11 C9 1_555 1_555
C12 C11 1_555 1_555
H8 C12 1_555 1_555
Ca4 O4 1_555 1_555
O16 Zn1 1_555 1_555
O21 Ca1_3 1_555 1_555
O7 Ca4 1_555 1_555
C5 C8 1_555 1_555
C6 C7 1_555 1_555
C10 H7 1_555 1_555
O18 Ca1_4 1_555 1_555
H9 C14 1_555 1_555
O8 C13 1_555 1_555
O9 C13 1_555 1_555
C13 C15 1_555 1_555
H10 C16 1_555 1_555
Zn2 O8 1_555 1_555
O15 C17 1_555 1_555
O11 Zn2 1_555 1_555
H11 O11 1_555 1_555
H12 O11 1_555 1_555
O12 C17 1_555 1_555
O13 C24 1_555 1_555
O14 Zn2 1_555 1_555
C17 C18 1_555 1_555
C18 C19 1_555 1_555
C19 H13 1_555 1_555
C20 C19 1_555 1_555
H14 C20 1_555 1_555
C21 C20 1_555 1_555
C22 C21 1_555 1_555
H15 C22 1_555 1_555
C23 C18 1_555 1_555
H16 C23 1_555 1_555
C24 O14 1_555 1_555
Ca4_2 O9 1_555 1_555
O17 Zn2 1_555 1_555
C15 C16 1_555 1_555
O13 Ca4_2 1_555 1_555
C21 C24 1_555 1_555
C22 C23 1_555 1_555
O10 C17_2 1_555 1_555
O17 C17_2 1_555 1_555
O19 C24_2 1_555 1_555
C17_2 C18_2 1_555 1_555
C18_2 C19_2 1_555 1_555
C19_2 H13_2 1_555 1_555
C20_2 C19_2 1_555 1_555
H14_2 C20_2 1_555 1_555
C21_2 C20_2 1_555 1_555
C22_2 C21_2 1_555 1_555
H15_2 C22_2 1_555 1_555
C23_2 C18_2 1_555 1_555
H16_2 C23_2 1_555 1_555
C24_2 O14_2 1_555 1_555
Ca4_2 O10 1_555 1_555
C21_2 C24_2 1_555 1_555
C22_2 C23_2 1_555 1_555
C10_2 H7_2 1_555 1_555
O8_2 C13_2 1_555 1_555
O21 C13_2 1_555 1_555
C13_2 C15_2 1_555 1_555
C16_2 C10_2 1_555 1_555
H10_2 C16_2 1_555 1_555
Zn4 O8_2 1_555 1_555
O11_2 Zn4 1_555 1_555
H11_2 O11_2 1_555 1_555
H12_2 O11_2 1_555 1_555
C15_2 C16_2 1_555 1_555
Zn3 O2_2 1_555 1_555
O2_2 H1_2 1_555 1_555
H2_2 O2_2 1_555 1_555
O6_2 Zn3 1_555 1_555
O20 C9_2 1_555 1_555
C9_2 O6_2 1_555 1_555
C11_2 C9_2 1_555 1_555
C12_2 C11_2 1_555 1_555
H8_2 C12_2 1_555 1_555
C14_2 C12_2 1_555 1_555
H9_3 C14_2 1_555 1_555
Ca4 O1_2 1_555 1_555
O1_2 C1_2 1_555 1_555
O16 C1_2 1_555 1_555
O18 C8_2 1_555 1_555
C1_2 C2_2 1_555 1_555
C2_2 C3_2 1_555 1_555
C3_2 H3_2 1_555 1_555
C4_2 C3_2 1_555 1_555
H4_2 C4_2 1_555 1_555
C5_2 C4_2 1_555 1_555
C6_2 C5_2 1_555 1_555
H5_2 C6_2 1_555 1_555
C7_2 C2_2 1_555 1_555
H6_2 C7_2 1_555 1_555
C8_2 O5_2 1_555 1_555
C5_2 C8_2 1_555 1_555
C6_2 C7_2 1_555 1_555

#END
