
###############################################################################
#
# This file contains modified crystal structure data generated from the
# MOF subset of the Cambridge Structural Database (CSD) v543 
# hosted by the Cambridge Crystallographic Data Centre (CCDC).
#
# This work is licensed under the Creative Commons
# Attribution-NonCommercial-ShareAlike 4.0 International License.
# To view a copy of this license, visit
# http://creativecommons.org/licenses/by-nc-sa/4.0/
# or send a letter to
# Creative Commons, PO Box 1866, Mountain View, CA 94042, USA.
#
# CIF created using the CSD Python API on 29 September 2022
# The structure has been converted into the P1 space group
# The structure has a 3D framework
# The original CSD entry ANOMIC is in the monoclinic crystal system
# The original CSD entry ANOMIC is in a Sohncke space group
# The framework has been calculated to contain at least 10.0% void space
# The void calculation uses a probe of radius 1.32A, grid spacing 0.4
# H atom positions have been added when not included in the experimental data
#
###############################################################################

data_ANOMIC
_chemical_formula_moiety         '(C94 H90 Cl4 Cu12 N18 O49)n'
_symmetry_cell_setting           triclinic
_symmetry_space_group_name_H-M   'P 1'
_symmetry_Int_Tables_number      1
_space_group_name_Hall           'P 1'
loop_
_symmetry_equiv_pos_site_id
_symmetry_equiv_pos_as_xyz
1 x,y,z
_cell_length_a                   14.9785(6)
_cell_length_b                   18.7174(8)
_cell_length_c                   15.2305(6)
_cell_angle_alpha                90
_cell_angle_beta                 102.450(2)
_cell_angle_gamma                90
_cell_volume                     4169.59
loop_
_atom_site_label
_atom_site_type_symbol
_atom_site_fract_x
_atom_site_fract_y
_atom_site_fract_z
O1 O 0.3739(2) 0.5559(2) 0.5048(2)
O3 O 0.4005(2) 0.6080(2) 0.3795(2)
O7 O 0.1170(2) 0.5543(2) 0.12438(19)
O14 O 0.0056(2) 0.45489(18) 0.0135(2)
O23 O 0.0064(4) 0.2269(3) 0.5069(4)
N1 N 0.0997(3) 0.5868(3) 0.4238(3)
N3 N 0.3460(5) 0.4984(6) 0.1007(6)
C1 C 0.1912(3) 0.5852(3) 0.4499(3)
H1 H 0.2176 0.5844 0.5125
C3 C 0.2726(5) 0.5252(7) 0.0485(6)
H3 H 0.2656 0.5757 0.0473
C4 C 0.2489(3) 0.5848(3) 0.3905(3)
C5 C 0.4150(6) 0.5430(10) 0.1562(9)
H4 H 0.4640 0.5128 0.1900
H5 H 0.4403 0.5760 0.1179
H6 H 0.3873 0.5704 0.1983
C6 C 0.2101(3) 0.5863(3) 0.2991(3)
H7 H 0.2474 0.5867 0.2560
C8 C 0.3609(11) 0.4151(10) 0.1000(14)
H11 H 0.4181 0.4028 0.1420
H12 H 0.3098 0.3910 0.1184
H13 H 0.3640 0.3996 0.0393
C9 C 0.1166(3) 0.5871(3) 0.2725(3)
C11 C 0.0630(3) 0.5881(3) 0.3351(3)
C13 C 0.3491(3) 0.5827(3) 0.4272(3)
C15 C 0.0716(3) 0.5838(3) 0.1733(3)
Cu10 Cu 0.49914(4) 0.54503(3) 0.57420(4)
Cu14 Cu 0.53217(4) 0.61397(3) 0.43053(4)
Cu16 Cu 0.02698(4) 0.57866(5) 0.51830(4)
O31 O 0.0012(2) 0.69205(18) 0.0014(2)
N11 N 0.0643(2) 0.0806(3) 0.4030(2)
Cu1 Cu 0.07953(4) 0.53906(3) 0.99485(4)
O2 O 0.2069(3) 0.4862(3) 0.9968(3)
O20 O 0.0246(2) 0.5371(2) 0.8672(2)
H37 H 0.0293 0.5693 0.7078
Cu11 Cu 0.06834(4) 0.10773(3) 0.97720(4)
O30 O 0.1244(2) 0.63566(17) 0.9760(2)
O34 O 0.0227(3) 0.9892(3) 0.5327(3)
Cu2 Cu 0.50086(4) 0.04503(3) 0.42580(4)
Cu3 Cu 0.93166(4) 0.60773(3) 0.02280(4)
Cu4 Cu 0.46783(4) 0.11397(3) 0.56947(4)
Cu5 Cu 0.66508(5) 0.32126(5) 0.16823(5)
Cu6 Cu 0.97302(4) 0.07866(5) 0.48170(4)
Cl1 Cl 0.60459(17) 0.43217(16) 0.10370(18)
Cl2 Cl 0.6135(3) 0.2084(2) 0.1161(3)
O4 O 0.8005(2) 0.6597(2) 0.0052(3)
O5 O 0.9927(2) 0.6109(2) 0.15001(19)
O6 O 0.4304(3) 0.1600(2) 0.6848(3)
O9 O 0.5127(2) 0.14056(18) 0.3759(2)
O10 O 0.8633(4) 0.0113(4) 0.3871(4)
O11 O 0.4896(2) 0.19794(19) 0.4980(2)
O12 O 0.5444(2) 0.51696(18) 0.3835(2)
O13 O 0.5152(2) 0.46019(19) 0.5047(2)
O15 O 0.8832(2) 0.51269(18) 0.0427(2)
O16 O 0.8756(2) 0.13566(17) 0.0240(2)
O22 O 0.9078(3) 0.1596(3) 0.4150(3)
O24 O 0.8608(3) 0.5355(3) 0.3646(3)
O25 O 0.9773(3) 0.4892(3) 0.4673(3)
N2 N 0.6563(12) 0.0215(13) 0.2296(10)
N4 N 0.5858(3) 0.3245(3) 0.2647(3)
N6 N 0.7658(3) 0.3227(2) 0.0930(3)
N7 N 0.3452(6) 0.1408(5) 0.7903(5)
N9 N 0.7752(3) 0.3317(3) 0.2787(3)
C2 C 0.6146(18) 0.0244(15) 0.2925(13)
H2 H 0.6438 0.0567 0.3377
H15 H 0.9984 0.5896 0.3153
C16 C 0.3668(5) 0.1307(4) 0.7124(4)
H22 H 0.3304 0.0976 0.6729
C17 C 0.5634(3) 0.2636(3) 0.3025(3)
H23 H 0.5709 0.2192 0.2747
C18 C 0.4009(11) 0.1835(12) 0.8592(9)
H24 H 0.3735 0.1847 0.9121
H25 H 0.4623 0.1628 0.8757
H26 H 0.4049 0.2322 0.8368
C19 C 0.5295(3) 0.2640(3) 0.3808(3)
C20 C 0.2730(8) 0.1091(9) 0.8198(8)
H27 H 0.2724 0.1260 0.8806
H28 H 0.2152 0.1218 0.7790
H29 H 0.2806 0.0571 0.8207
C21 C 0.5200(3) 0.3289(3) 0.4237(3)
H30 H 0.4997 0.3302 0.4786
C22 C 0.5412(3) 0.3908(3) 0.3834(3)
C23 C 0.5743(3) 0.3868(3) 0.3053(3)
H31 H 0.5896 0.4299 0.2791
C24 C 0.5097(3) 0.1950(3) 0.4224(3)
C25 C 0.5334(3) 0.4617(3) 0.4275(3)
C26 C 0.8047(3) 0.3839(3) 0.0782(3)
H32 H 0.7776 0.4273 0.0913
C27 C 0.8846(3) 0.3870(3) 0.0437(3)
C28 C 0.9236(3) 0.3237(3) 0.0259(3)
H33 H 0.9792 0.3240 0.0056
C29 C 0.8821(3) 0.2600(3) 0.0374(3)
C30 C 0.8030(3) 0.2613(3) 0.0723(3)
H34 H 0.7746 0.2174 0.0817
C31 C 0.9282(3) 0.4580(3) 0.0334(3)
C32 C 0.9217(3) 0.1901(3) 0.0178(3)
C40 C 0.8181(4) 0.2753(3) 0.3222(4)
H38 H 0.7983 0.2286 0.3023
C41 C 0.8919(4) 0.2828(4) 0.3970(4)
C42 C 0.9219(4) 0.3510(4) 0.4239(4)
H39 H 0.9723 0.3577 0.4732
C43 C 0.8776(4) 0.4097(4) 0.3781(4)
C44 C 0.8049(4) 0.3983(3) 0.3061(4)
H40 H 0.7747 0.4384 0.2748
C45 C 0.9415(4) 0.2193(4) 0.4456(4)
C46 C 0.9068(5) 0.4863(4) 0.4041(5)
C47 C 0.7536(14) 0.0593(12) 0.2068(10)
H41 H 0.7622 0.0423 0.1483
H42 H 0.7474 0.1114 0.2053
H43 H 0.8066 0.0457 0.2536
Cu7 Cu 0.92047(4) 0.03906(3) 0.00515(4)
O26 O 0.6261(2) 0.0559(2) 0.4952(2)
O27 O 0.5995(2) 0.1080(2) 0.6205(2)
O28 O 0.4556(2) 0.01696(18) 0.6165(2)
O32 O 0.34105(19) 0.1081(2) 0.5011(2)
O33 O 0.3686(2) 0.0509(2) 0.3791(2)
N10 N 0.9003(3) 0.0868(3) 0.5762(3)
H44 H 0.867087 0.0201151 0.323714
O17 O 0.9988(2) 0.19205(18) 0.9986(2)
O18 O 0.65895(19) 0.6081(2) 0.4989(2)
O19 O 0.6314(2) 0.5509(2) 0.6209(2)
O21 O 0.8973(2) 0.5898(2) 0.8910(2)
N5 N 0.6632(4) 0.6500(4) 0.9061(4)
N8 N 0.9357(2) 0.5806(3) 0.5970(2)
C10 C 0.7374(4) 0.6240(4) 0.9539(4)
H14 H 0.7461 0.5739 0.9507
C12 C 0.5947(6) 0.6042(8) 0.8480(8)
H16 H 0.5433 0.6336 0.8172
H17 H 0.6227 0.5803 0.8034
H18 H 0.5726 0.5681 0.8849
C14 C 0.6471(6) 0.7281(6) 0.9054(7)
H19 H 0.5878 0.7390 0.8659
H20 H 0.6471 0.7444 0.9665
H21 H 0.6957 0.7527 0.8832
C33 C 0.8455(3) 0.5845(3) 0.5622(3)
H35 H 0.8243 0.5909 0.4992
C34 C 0.7834(3) 0.5792(3) 0.6169(3)
C35 C 0.8145(3) 0.5718(3) 0.7092(3)
H36 H 0.7725 0.5685 0.7477
C36 C 0.9070(3) 0.5693(3) 0.7436(3)
C37 C 0.9653(3) 0.5727(3) 0.6844(3)
C38 C 0.6821(3) 0.5789(3) 0.5760(3)
C39 C 0.9465(3) 0.5645(3) 0.8425(3)
O8 O 0.5398(3) 0.9946(3) 0.3147(3)
C7 C 0.6010(18) 0.9722(19) 0.141(3)
H8 H 0.6368 0.9719 0.0940
H9 H 0.5937 0.9231 0.1605
H10 H 0.5408 0.9931 0.1167
O29 O 0.4848(2) 0.96019(19) 0.4953(2)
H45 H 0.874002 0.959826 0.401349
O21_2 O 0.1027(2) 0.0898(2) 0.1090(2)
N5_2 N 0.3368(4) 0.1500(4) 0.0939(4)
C10_2 C 0.2626(4) 0.1240(4) 0.0461(4)
H14_2 H 0.2539 0.0739 0.0493
C12_2 C 0.4053(6) 0.1042(8) 0.1520(8)
H16_2 H 0.4567 0.1336 0.1828
H17_2 H 0.3773 0.0803 0.1966
H18_2 H 0.4274 0.0681 0.1151
C14_2 C 0.3529(6) 0.2281(6) 0.0946(7)
H19_2 H 0.4122 0.2390 0.1341
H20_2 H 0.3529 0.2444 0.0335
H21_2 H 0.3043 0.2527 0.1168
C33_2 C 0.1545(3) 0.0845(3) 0.4378(3)
H35_2 H 0.1757 0.0909 0.5008
C34_2 C 0.2166(3) 0.0792(3) 0.3831(3)
C35_2 C 0.1855(3) 0.0718(3) 0.2908(3)
H36_2 H 0.2275 0.0685 0.2523
C36_2 C 0.0930(3) 0.0693(3) 0.2564(3)
C37_2 C 0.0347(3) 0.0727(3) 0.3156(3)
C38_2 C 0.3179(3) 0.0789(3) 0.4240(3)
C39_2 C 0.0535(3) 0.0645(3) 0.1575(3)
O4_2 O 0.1995(2) 0.1597(2) 0.9948(3)
O5_2 O 0.0073(2) 0.1109(2) 0.84999(19)
O15_2 O 0.1168(2) 0.01269(18) 0.9573(2)
O24_2 O 0.1392(3) 0.0355(3) 0.6354(3)
H15_2 H 0.0016 0.0896 0.6847
Cu5_2 Cu 0.33492(5) 0.82126(5) 0.83177(5)
Cl1_2 Cl 0.39541(17) 0.93217(16) 0.89630(18)
Cl2_2 Cl 0.3865(3) 0.7084(2) 0.8839(3)
O6_2 O 0.5696(3) 0.6600(2) 0.3152(3)
O8_2 O 0.4602(3) 0.4946(3) 0.6853(3)
O9_2 O 0.4873(2) 0.64056(18) 0.6241(2)
O10_2 O 0.1367(4) 0.5113(4) 0.6129(4)
O11_2 O 0.5104(2) 0.69794(19) 0.5020(2)
O22_2 O 0.0922(3) 0.6596(3) 0.5850(3)
N2_2 N 0.3437(12) 0.5215(13) 0.7704(10)
N4_2 N 0.4142(3) 0.8245(3) 0.7353(3)
N6_2 N 0.2342(3) 0.8227(2) 0.9070(3)
N7_2 N 0.6548(6) 0.6408(5) 0.2097(5)
N9_2 N 0.2248(3) 0.8317(3) 0.7213(3)
C2_2 C 0.3854(18) 0.5244(15) 0.7075(13)
H2_2 H 0.3562 0.5567 0.6623
C7_2 C 0.3990(18) 0.4722(19) 0.859(3)
H8_2 H 0.3632 0.4719 0.9060
H9_2 H 0.4063 0.4231 0.8395
H10_2 H 0.4592 0.4931 0.8833
C16_2 C 0.6332(5) 0.6307(4) 0.2876(4)
H22_2 H 0.6696 0.5976 0.3271
C17_2 C 0.4366(3) 0.7636(3) 0.6975(3)
H23_2 H 0.4291 0.7192 0.7253
C18_2 C 0.5991(11) 0.6835(12) 0.1408(9)
H24_2 H 0.6265 0.6847 0.0879
H25_2 H 0.5377 0.6628 0.1243
H26_2 H 0.5951 0.7322 0.1632
C19_2 C 0.4705(3) 0.7640(3) 0.6192(3)
C20_2 C 0.7270(8) 0.6091(9) 0.1802(8)
H27_2 H 0.7276 0.6260 0.1194
H28_2 H 0.7848 0.6218 0.2210
H29_2 H 0.7194 0.5571 0.1793
C21_2 C 0.4800(3) 0.8289(3) 0.5763(3)
H30_2 H 0.5003 0.8302 0.5214
C22_2 C 0.4588(3) 0.8908(3) 0.6166(3)
C23_2 C 0.4257(3) 0.8868(3) 0.6947(3)
H31_2 H 0.4104 0.9299 0.7209
C24_2 C 0.4903(3) 0.6950(3) 0.5776(3)
C25_2 C 0.4666(3) 0.9617(3) 0.5725(3)
C26_2 C 0.1953(3) 0.8839(3) 0.9218(3)
H32_2 H 0.2224 0.9273 0.9087
C27_2 C 0.1154(3) 0.8870(3) 0.9563(3)
C28_2 C 0.0764(3) 0.8237(3) 0.9741(3)
H33_2 H 0.0208 0.8240 0.9944
C29_2 C 0.1179(3) 0.7600(3) 0.9626(3)
C30_2 C 0.1970(3) 0.7613(3) 0.9277(3)
H34_2 H 0.2254 0.7174 0.9183
C31_2 C 0.0718(3) 0.9580(3) 0.9666(3)
C32_2 C 0.0783(3) 0.6901(3) 0.9822(3)
C40_2 C 0.1819(4) 0.7753(3) 0.6778(4)
H38_2 H 0.2017 0.7286 0.6977
C41_2 C 0.1081(4) 0.7828(4) 0.6030(4)
C42_2 C 0.0781(4) 0.8510(4) 0.5761(4)
H39_2 H 0.0277 0.8577 0.5268
C43_2 C 0.1224(4) 0.9097(4) 0.6219(4)
C44_2 C 0.1951(4) 0.8983(3) 0.6939(4)
H40_2 H 0.2253 0.9384 0.7252
C45_2 C 0.0585(4) 0.7193(4) 0.5544(4)
C46_2 C 0.0932(5) 0.9863(4) 0.5959(5)
C47_2 C 0.2464(14) 0.5593(12) 0.7932(10)
H41_2 H 0.2378 0.5423 0.8517
H42_2 H 0.2526 0.6114 0.7947
H43_2 H 0.1934 0.5457 0.7464
H44_2 H 0.132913 0.520115 0.676286
H45_2 H 0.125998 0.459826 0.598651
O20_2 O 0.9754(2) 0.0371(2) 0.1328(2)
H37_2 H 0.9707 0.0693 0.2922
O7_2 O 0.8830(2) 0.0543(2) 0.87562(19)
C1_2 C 0.8088(3) 0.0852(3) 0.5501(3)
H1_2 H 0.7824 0.0844 0.4875
C3_2 C 0.7274(5) 0.0252(7) 0.9515(6)
H3_2 H 0.7344 0.0757 0.9527
C4_2 C 0.7511(3) 0.0848(3) 0.6095(3)
C5_2 C 0.5850(6) 0.0430(10) 0.8438(9)
H4_2 H 0.5360 0.0128 0.8100
H5_2 H 0.5597 0.0760 0.8821
H6_2 H 0.6127 0.0704 0.8017
C6_2 C 0.7899(3) 0.0863(3) 0.7009(3)
H7_2 H 0.7526 0.0867 0.7440
C9_2 C 0.8834(3) 0.0871(3) 0.7275(3)
C11_2 C 0.9370(3) 0.0881(3) 0.6649(3)
C13_2 C 0.6509(3) 0.0827(3) 0.5728(3)
C15_2 C 0.9284(3) 0.0838(3) 0.8267(3)
O2_2 O 0.7931(3) 0.9862(3) 0.0032(3)
O14_2 O 0.9944(2) 0.95489(18) 0.9865(2)
O23_2 O 0.9936(4) 0.7269(3) 0.4931(4)
N3_2 N 0.6540(5) 0.9984(6) 0.8993(6)
C8_2 C 0.6391(11) 0.9151(10) 0.9000(14)
H11_2 H 0.5819 0.9028 0.8580
H12_2 H 0.6902 0.8910 0.8816
H13_2 H 0.6360 0.8996 0.9607
loop_
_geom_bond_atom_site_label_1
_geom_bond_atom_site_label_2
_geom_bond_site_symmetry_1
_geom_bond_site_symmetry_2
O1 C13 1_555 1_555
O3 C13 1_555 1_555
N1 C1 1_555 1_555
N3 C3 1_555 1_555
C1 H1 1_555 1_555
C3 H3 1_555 1_555
C4 C1 1_555 1_555
C5 N3 1_555 1_555
H4 C5 1_555 1_555
H5 C5 1_555 1_555
H6 C5 1_555 1_555
C6 C4 1_555 1_555
H7 C6 1_555 1_555
C8 N3 1_555 1_555
H11 C8 1_555 1_555
H12 C8 1_555 1_555
H13 C8 1_555 1_555
C9 C6 1_555 1_555
C11 N1 1_555 1_555
C13 C4 1_555 1_555
Cu10 O1 1_555 1_555
Cu14 O3 1_555 1_555
O7 C15 1_555 1_555
N1 Cu16 1_555 1_555
C9 C11 1_555 1_555
C9 C15 1_555 1_555
Cu1 O2 1_555 1_555
O20 Cu1 1_555 1_555
O30 Cu1 1_555 1_555
Cu3 O4 1_555 1_555
Cu4 O6 1_555 1_555
Cu5 Cl1 1_555 1_555
Cu6 O10 1_555 1_555
Cl2 Cu5 1_555 1_555
O5 Cu3 1_555 1_555
O6 C16 1_555 1_555
O9 Cu2 1_555 1_555
O11 Cu4 1_555 1_555
O12 C25 1_555 1_555
O13 C25 1_555 1_555
O15 Cu3 1_555 1_555
O16 C32 1_555 1_555
O22 Cu6 1_555 1_555
O24 C46 1_555 1_555
O25 C46 1_555 1_555
N2 C2 1_555 1_555
N4 Cu5 1_555 1_555
N6 Cu5 1_555 1_555
N7 C16 1_555 1_555
N9 Cu5 1_555 1_555
C2 H2 1_555 1_555
C16 H22 1_555 1_555
C17 N4 1_555 1_555
H23 C17 1_555 1_555
C18 N7 1_555 1_555
H24 C18 1_555 1_555
H25 C18 1_555 1_555
H26 C18 1_555 1_555
C19 C17 1_555 1_555
C20 N7 1_555 1_555
H27 C20 1_555 1_555
H28 C20 1_555 1_555
H29 C20 1_555 1_555
C21 C19 1_555 1_555
H30 C21 1_555 1_555
C22 C21 1_555 1_555
C23 N4 1_555 1_555
H31 C23 1_555 1_555
C24 O9 1_555 1_555
C25 C22 1_555 1_555
C26 N6 1_555 1_555
H32 C26 1_555 1_555
C27 C26 1_555 1_555
C28 C27 1_555 1_555
H33 C28 1_555 1_555
C29 C28 1_555 1_555
C30 N6 1_555 1_555
H34 C30 1_555 1_555
C32 C29 1_555 1_555
C40 N9 1_555 1_555
H38 C40 1_555 1_555
C41 C40 1_555 1_555
C42 C41 1_555 1_555
H39 C42 1_555 1_555
C43 C42 1_555 1_555
C44 N9 1_555 1_555
H40 C44 1_555 1_555
C45 O22 1_555 1_555
C46 C43 1_555 1_555
C47 N2 1_555 1_555
H41 C47 1_555 1_555
H42 C47 1_555 1_555
H43 C47 1_555 1_555
Cu7 O16 1_555 1_555
Cu10 O13 1_555 1_555
Cu14 O12 1_555 1_555
O26 Cu2 1_555 1_555
O27 Cu4 1_555 1_555
O28 Cu4 1_555 1_555
O32 Cu4 1_555 1_555
O33 Cu2 1_555 1_555
N10 Cu6 1_555 1_555
O11 C24 1_555 1_555
O15 C31 1_555 1_555
C19 C24 1_555 1_555
C22 C23 1_555 1_555
C27 C31 1_555 1_555
C29 C30 1_555 1_555
C41 C45 1_555 1_555
C43 C44 1_555 1_555
O10 H44 1_555 1_555
O18 C38 1_555 1_555
O19 C38 1_555 1_555
N5 C10 1_555 1_555
N8 C33 1_555 1_555
C10 H14 1_555 1_555
C12 N5 1_555 1_555
H16 C12 1_555 1_555
H17 C12 1_555 1_555
H18 C12 1_555 1_555
C14 N5 1_555 1_555
H19 C14 1_555 1_555
H20 C14 1_555 1_555
H21 C14 1_555 1_555
C33 H35 1_555 1_555
C34 C33 1_555 1_555
C35 C34 1_555 1_555
H36 C35 1_555 1_555
C36 C35 1_555 1_555
C37 N8 1_555 1_555
C38 C34 1_555 1_555
Cu10 O19 1_555 1_555
Cu14 O18 1_555 1_555
O21 C39 1_555 1_555
C36 C37 1_555 1_555
C36 C39 1_555 1_555
H8 C7 1_555 1_555
H9 C7 1_555 1_555
H10 C7 1_555 1_555
O32 C38_2 1_555 1_555
O33 C38_2 1_555 1_555
N5_2 C10_2 1_555 1_555
N11 C33_2 1_555 1_555
C10_2 H14_2 1_555 1_555
C12_2 N5_2 1_555 1_555
H16_2 C12_2 1_555 1_555
H17_2 C12_2 1_555 1_555
H18_2 C12_2 1_555 1_555
C14_2 N5_2 1_555 1_555
H19_2 C14_2 1_555 1_555
H20_2 C14_2 1_555 1_555
H21_2 C14_2 1_555 1_555
C33_2 H35_2 1_555 1_555
C34_2 C33_2 1_555 1_555
C35_2 C34_2 1_555 1_555
H36_2 C35_2 1_555 1_555
C36_2 C35_2 1_555 1_555
C37_2 N11 1_555 1_555
C38_2 C34_2 1_555 1_555
O21_2 C39_2 1_555 1_555
C36_2 C37_2 1_555 1_555
C36_2 C39_2 1_555 1_555
Cu11 O4_2 1_555 1_555
O5_2 Cu11 1_555 1_555
O15_2 Cu11 1_555 1_555
Cu10 O8_2 1_555 1_555
Cu14 O6_2 1_555 1_555
Cu5_2 Cl1_2 1_555 1_555
Cu16 O10_2 1_555 1_555
Cl2_2 Cu5_2 1_555 1_555
O6_2 C16_2 1_555 1_555
O8_2 C2_2 1_555 1_555
O9_2 Cu10 1_555 1_555
O11_2 Cu14 1_555 1_555
O29 C25_2 1_555 1_555
O30 C32_2 1_555 1_555
O22_2 Cu16 1_555 1_555
O34 C46_2 1_555 1_555
N2_2 C2_2 1_555 1_555
N4_2 Cu5_2 1_555 1_555
N6_2 Cu5_2 1_555 1_555
N7_2 C16_2 1_555 1_555
N9_2 Cu5_2 1_555 1_555
C2_2 H2_2 1_555 1_555
C7_2 N2_2 1_555 1_555
H8_2 C7_2 1_555 1_555
H9_2 C7_2 1_555 1_555
H10_2 C7_2 1_555 1_555
C16_2 H22_2 1_555 1_555
C17_2 N4_2 1_555 1_555
H23_2 C17_2 1_555 1_555
C18_2 N7_2 1_555 1_555
H24_2 C18_2 1_555 1_555
H25_2 C18_2 1_555 1_555
H26_2 C18_2 1_555 1_555
C19_2 C17_2 1_555 1_555
C20_2 N7_2 1_555 1_555
H27_2 C20_2 1_555 1_555
H28_2 C20_2 1_555 1_555
H29_2 C20_2 1_555 1_555
C21_2 C19_2 1_555 1_555
H30_2 C21_2 1_555 1_555
C22_2 C21_2 1_555 1_555
C23_2 N4_2 1_555 1_555
H31_2 C23_2 1_555 1_555
C24_2 O9_2 1_555 1_555
C25_2 C22_2 1_555 1_555
C26_2 N6_2 1_555 1_555
H32_2 C26_2 1_555 1_555
C27_2 C26_2 1_555 1_555
C28_2 C27_2 1_555 1_555
H33_2 C28_2 1_555 1_555
C29_2 C28_2 1_555 1_555
C30_2 N6_2 1_555 1_555
H34_2 C30_2 1_555 1_555
C32_2 C29_2 1_555 1_555
C40_2 N9_2 1_555 1_555
H38_2 C40_2 1_555 1_555
C41_2 C40_2 1_555 1_555
C42_2 C41_2 1_555 1_555
H39_2 C42_2 1_555 1_555
C43_2 C42_2 1_555 1_555
C44_2 N9_2 1_555 1_555
H40_2 C44_2 1_555 1_555
C45_2 O22_2 1_555 1_555
C46_2 C43_2 1_555 1_555
C47_2 N2_2 1_555 1_555
H41_2 C47_2 1_555 1_555
H42_2 C47_2 1_555 1_555
H43_2 C47_2 1_555 1_555
O11_2 C24_2 1_555 1_555
C19_2 C24_2 1_555 1_555
C22_2 C23_2 1_555 1_555
C27_2 C31_2 1_555 1_555
C29_2 C30_2 1_555 1_555
C41_2 C45_2 1_555 1_555
C43_2 C44_2 1_555 1_555
O10_2 H44_2 1_555 1_555
O10_2 H45_2 1_555 1_555
O20_2 Cu7 1_555 1_555
O26 C13_2 1_555 1_555
O27 C13_2 1_555 1_555
N10 C1_2 1_555 1_555
C1_2 H1_2 1_555 1_555
C3_2 H3_2 1_555 1_555
C4_2 C1_2 1_555 1_555
H4_2 C5_2 1_555 1_555
H5_2 C5_2 1_555 1_555
H6_2 C5_2 1_555 1_555
C6_2 C4_2 1_555 1_555
H7_2 C6_2 1_555 1_555
C9_2 C6_2 1_555 1_555
C11_2 N10 1_555 1_555
C13_2 C4_2 1_555 1_555
O7_2 C15_2 1_555 1_555
C9_2 C11_2 1_555 1_555
C9_2 C15_2 1_555 1_555
C8_2 N3_2 1_555 1_555
H11_2 C8_2 1_555 1_555
H12_2 C8_2 1_555 1_555
H13_2 C8_2 1_555 1_555

#END
