
###############################################################################
#
# This file contains modified crystal structure data generated from the
# MOF subset of the Cambridge Structural Database (CSD) v543 
# hosted by the Cambridge Crystallographic Data Centre (CCDC).
#
# This work is licensed under the Creative Commons
# Attribution-NonCommercial-ShareAlike 4.0 International License.
# To view a copy of this license, visit
# http://creativecommons.org/licenses/by-nc-sa/4.0/
# or send a letter to
# Creative Commons, PO Box 1866, Mountain View, CA 94042, USA.
#
# CIF created using the CSD Python API on 29 September 2022
# The structure has been converted into the P1 space group
# The structure has a 3D framework
# The original CSD entry AQAGEH is in the triclinic crystal system
# The framework has been calculated to contain at least 10.0% void space
# The void calculation uses a probe of radius 1.32A, grid spacing 0.4
# The framework is charged, counterions have been retained in the structure
# H atom positions have been added when not included in the experimental data
# Generated hydrogen atom positions removed from atoms on special positions
#
###############################################################################

data_AQAGEH
_chemical_formula_moiety         '(C52 H48 K2 Mn3 N2 O26)n'
_symmetry_cell_setting           triclinic
_symmetry_space_group_name_H-M   'P 1'
_symmetry_Int_Tables_number      1
_space_group_name_Hall           'P 1'
loop_
_symmetry_equiv_pos_site_id
_symmetry_equiv_pos_as_xyz
1 x,y,z
_cell_length_a                   10.084(4)
_cell_length_b                   11.003(4)
_cell_length_c                   16.105(6)
_cell_angle_alpha                92.464(7)
_cell_angle_beta                 96.609(7)
_cell_angle_gamma                112.347(7)
_cell_volume                     1634.4
loop_
_atom_site_label
_atom_site_type_symbol
_atom_site_fract_x
_atom_site_fract_y
_atom_site_fract_z
C27 C 0.0685(3) 0.1218(3) 0.41679(19)
H9 H 0.160392 0.136238 0.403690
C28 C 0.0518(3) 0.2027(3) 0.47918(19)
C36 C 0.1833(3) 0.3138(3) 0.52516(19)
O18 O 0.3030(2) 0.3334(2) 0.50155(15)
O19 O 0.1615(2) 0.3822(2) 0.58266(13)
K3 K -0.000000 0.500000 0.500000
Mn8 Mn 0.26958(4) 0.55023(4) 0.66986(3)
Mn12 Mn 0.500000 0.500000 0.500000
C1 C 0.0376(4) 0.0734(3) 0.6904(2)
C7 C 0.1894(3) 0.0011(3) 0.60688(19)
H3 H 0.270402 0.069095 0.636101
C9 C 0.4372(3) 0.0871(3) 0.51306(19)
H4 H 0.394922 0.147522 0.522069
O1 O 0.1421(3) 0.1542(3) 0.73566(18)
C26 C 0.9487(3) 0.0191(3) 0.3736(2)
C29 C 0.9140(3) 0.1789(3) 0.49897(19)
H10 H 0.903037 0.231190 0.542396
C30 C 0.7947(3) 0.0800(3) 0.45583(18)
C32 C 0.6429(3) 0.0449(3) 0.47876(18)
C34 C 0.5770(3) 0.1344(3) 0.49215(18)
C35 C 0.6416(3) 0.2797(3) 0.47828(19)
O16 O 0.7226(2) 0.3122(2) 0.42274(15)
O17 O 0.6081(2) 0.35813(19) 0.52201(14)
K3_2 K 1.000000 0.500000 0.500000
Mn5 Mn 0.73042(4) 0.44977(4) 0.33014(3)
C2 C 0.0513(3) 0.9809(3) 0.6264(2)
C5 C 0.0860(3) 0.8211(3) 0.50103(19)
H2 H 0.096963 0.768810 0.457604
C6 C 0.2053(3) 0.9200(3) 0.54417(18)
C8 C 0.3571(3) 0.9551(3) 0.52124(18)
C10 C 0.4230(3) 0.8656(3) 0.50785(18)
C11 C 0.3584(3) 0.7203(3) 0.52172(19)
C14 C 0.0376(3) 0.3255(3) 0.24746(19)
C15 C 0.1801(3) 0.3710(3) 0.28851(18)
H5 H 0.208724 0.430808 0.336074
C16 C 0.2777(3) 0.3271(3) 0.25839(19)
C17 C 0.2357(3) 0.2391(3) 0.18673(19)
H6 H 0.302990 0.211265 0.166139
C18 C 0.0945(3) 0.1920(3) 0.14538(19)
C20 C 0.4316(3) 0.3746(3) 0.3013(2)
C21 C 0.0473(3) 0.0958(3) 0.0697(2)
O3 O 0.2774(2) 0.6878(2) 0.57726(15)
O4 O 0.3919(2) 0.64187(19) 0.47799(14)
O9 O 0.4737(2) 0.4585(2) 0.36379(14)
O10 O 0.5141(2) 0.3301(2) 0.27079(16)
O11 O 0.2349(6) 0.3477(4) 0.0006(4)
C25 C 0.9624(4) 0.9266(3) 0.3096(2)
C31 C 0.8106(3) 0.9989(3) 0.39312(19)
H11 H 0.729598 0.930905 0.363899
C33 C 0.5628(3) 0.9129(3) 0.48694(19)
H12 H 0.605078 0.852478 0.477931
O14 O 0.8579(3) 0.8458(3) 0.26434(18)
O30 O 0.6970(2) 0.6666(2) 0.49845(15)
O35 O 0.5263(2) 0.5415(2) 0.63621(14)
O38 O 0.0283(2) 0.5331(2) 0.66646(15)
C37 C 0.0713(3) 0.6284(3) 0.7227(2)
C43 C 0.0034(3) 0.7655(3) 0.8236(2)
H15 H 0.098582 0.797690 0.850303
O20 O 0.2013(2) 0.6827(3) 0.75478(16)
C3 C 0.9315(3) 0.8782(3) 0.58321(19)
H1 H 0.839608 0.863762 0.596310
C4 C 0.9482(3) 0.7973(3) 0.52082(19)
C12 C 0.8167(3) 0.6862(3) 0.47484(19)
C13 C 0.9287(3) 0.3716(3) 0.2773(2)
C19 C 0.9966(3) 0.2345(3) 0.1764(2)
H7 H 0.901418 0.202310 0.149697
O6 O 0.8385(2) 0.6178(2) 0.41734(13)
O7 O 0.7351(4) 0.5783(3) 0.23165(18)
O8 O 0.7987(2) 0.3173(3) 0.24522(16)
O13 O 0.9717(2) 0.4669(2) 0.33354(15)
H25 H 0.84423 0.972543 0.705093
C38 C 0.9624(3) 0.6745(3) 0.75254(19)
C39 C 0.8199(3) 0.6290(3) 0.71149(18)
H13 H 0.791276 0.569192 0.663926
C40 C 0.7223(3) 0.6729(3) 0.74161(19)
C41 C 0.7643(3) 0.7609(3) 0.81327(19)
H14 H 0.697010 0.788735 0.833861
C42 C 0.9055(3) 0.8080(3) 0.85462(19)
C44 C 0.5684(3) 0.6254(3) 0.6987(2)
C45 C 0.9527(3) 0.9042(3) 0.9303(2)
O22 O 0.4859(2) 0.6699(2) 0.72921(16)
O23 O 0.7651(6) 0.6523(4) 0.9994(4)
O26 O 0.2649(4) 0.4217(3) 0.76835(18)
H32 H 0.603821 0.804374 0.968456
H32_2 H 0.396179 0.195626 0.0315444
H25_2 H 0.15577 0.0274572 0.294907
O15 O 0.0958(3) 0.9369(4) 0.3074(3)
H31 H 0.136071 0.919221 0.362642
C23 C 0.1206(4) 0.1172(3) 0.9997(2)
C24 C 0.2499(5) 0.2455(4) 0.9937(3)
O12 O 0.3643(4) 0.2368(4) 0.9837(3)
C46 C 0.0729(3) 0.0220(3) 0.9321(2)
H16 H 0.122873 0.037116 0.886085
H26 H 0.350784 0.181454 0.930599
O2 O 0.9042(3) 0.0631(4) 0.6926(3)
H31_2 H 0.863929 0.0807794 0.637358
C22 C 0.9271(3) 0.9780(3) 0.0679(2)
H8 H 0.877127 0.962884 0.113915
C47 C 0.8794(4) 0.8828(3) 0.0003(2)
C48 C 0.7501(5) 0.7545(4) 0.0063(3)
O24 O 0.6357(4) 0.7632(4) 0.0163(3)
H26_2 H 0.649216 0.818546 0.069401
N1 N 0.5399(7) 0.0718(6) 0.2122(5)
H17 H 0.610627 0.146950 0.235002
H18 H 0.492260 0.089913 0.167601
C49 C 0.4431(8) 0.0202(6) 0.2717(4)
H19 H 0.496442 0.011437 0.322837
H21 H 0.396096 0.079189 0.282943
H20 H 0.371555 0.935312 0.249356
C50 C 0.6048(8) 0.9773(8) 0.1845(5)
H22 H 0.696670 0.997409 0.218298
H23 H 0.618115 0.985344 0.126653
H24 H 0.540966 0.888704 0.190906
H20_2 H 0.628445 0.064688 0.750644
C50_2 C 0.3952(8) 0.0227(8) 0.8155(5)
H22_2 H 0.303330 0.002591 0.781702
H23_2 H 0.381885 0.014656 0.873347
H24_2 H 0.459034 0.111296 0.809094
N1_2 N 0.4601(7) 0.9282(6) 0.7878(5)
H17_2 H 0.389373 0.853050 0.764998
H18_2 H 0.507740 0.910087 0.832399
C49_2 C 0.5569(8) 0.9798(6) 0.7283(4)
H19_2 H 0.503558 0.988563 0.677163
H21_2 H 0.603904 0.920811 0.717057
loop_
_geom_bond_atom_site_label_1
_geom_bond_atom_site_label_2
_geom_bond_site_symmetry_1
_geom_bond_site_symmetry_2
C27 H9 1_555 1_555
C28 C27 1_555 1_555
C36 C28 1_555 1_555
O18 C36 1_555 1_555
O19 C36 1_555 1_555
Mn8 O19 1_555 1_555
Mn12 O18 1_555 1_555
O19 K3 1_555 1_555
H3 C7 1_555 1_555
H4 C9 1_555 1_555
O1 C1 1_555 1_555
H10 C29 1_555 1_555
C30 C29 1_555 1_555
C32 C30 1_555 1_555
C34 C9 1_555 1_555
C35 C34 1_555 1_555
O16 C35 1_555 1_555
O17 C35 1_555 1_555
K3_2 O16 1_555 1_555
Mn5 O16 1_555 1_555
Mn12 O17 1_555 1_555
C32 C34 1_555 1_555
H2 C5 1_555 1_555
C6 C5 1_555 1_555
C8 C6 1_555 1_555
C10 C8 1_555 1_555
C11 C10 1_555 1_555
C14 C15 1_555 1_555
C15 H5 1_555 1_555
C16 C15 1_555 1_555
C17 C16 1_555 1_555
H6 C17 1_555 1_555
C18 C17 1_555 1_555
C20 C16 1_555 1_555
C21 C18 1_555 1_555
K3 O3 1_555 1_555
Mn12 O4 1_555 1_555
O3 C11 1_555 1_555
O4 C11 1_555 1_555
O9 C20 1_555 1_555
O10 C20 1_555 1_555
H11 C31 1_555 1_555
C33 C10 1_555 1_555
H12 C33 1_555 1_555
O14 C25 1_555 1_555
Mn5 O10 1_555 1_555
Mn8 O3 1_555 1_555
O30 Mn12 1_555 1_555
O35 Mn12 1_555 1_555
O38 K3 1_555 1_555
Mn12 O9 1_555 1_555
Mn8 O38 1_555 1_555
H15 C43 1_555 1_555
O20 C37 1_555 1_555
O38 C37 1_555 1_555
Mn8 O20 1_555 1_555
C3 H1 1_555 1_555
C4 C3 1_555 1_555
C12 C4 1_555 1_555
H7 C19 1_555 1_555
Mn5 O6 1_555 1_555
O30 C12 1_555 1_555
O6 C12 1_555 1_555
O7 Mn5 1_555 1_555
O8 C13 1_555 1_555
O13 C13 1_555 1_555
K3_2 O6 1_555 1_555
K3_2 O13 1_555 1_555
Mn5 O8 1_555 1_555
Mn5 O13 1_555 1_555
C38 C39 1_555 1_555
C39 H13 1_555 1_555
C40 C39 1_555 1_555
C41 C40 1_555 1_555
H14 C41 1_555 1_555
C42 C41 1_555 1_555
C44 C40 1_555 1_555
C45 C42 1_555 1_555
O35 C44 1_555 1_555
O22 C44 1_555 1_555
Mn8 O22 1_555 1_555
O26 Mn8 1_555 1_555
O15 H31 1_555 1_555
C24 C23 1_555 1_555
O12 C24 1_555 1_555
C46 C23 1_555 1_555
H16 C46 1_555 1_555
O12 H26 1_555 1_555
O2 H31_2 1_555 1_555
H8 C22 1_555 1_555
C47 C22 1_555 1_555
C48 C47 1_555 1_555
O24 C48 1_555 1_555
O24 H26_2 1_555 1_555
N1 H17 1_555 1_555
H18 N1 1_555 1_555
C49 N1 1_555 1_555
H19 C49 1_555 1_555
H21 C49 1_555 1_555
H22 C50 1_555 1_555
H23 C50 1_555 1_555
H24 C50 1_555 1_555
H22_2 C50_2 1_555 1_555
H23_2 C50_2 1_555 1_555
H24_2 C50_2 1_555 1_555
N1_2 H17_2 1_555 1_555
H18_2 N1_2 1_555 1_555
C49_2 N1_2 1_555 1_555
H19_2 C49_2 1_555 1_555
H21_2 C49_2 1_555 1_555

#END
