
###############################################################################
#
# This file contains modified crystal structure data generated from the
# MOF subset of the Cambridge Structural Database (CSD) v543 
# hosted by the Cambridge Crystallographic Data Centre (CCDC).
#
# This work is licensed under the Creative Commons
# Attribution-NonCommercial-ShareAlike 4.0 International License.
# To view a copy of this license, visit
# http://creativecommons.org/licenses/by-nc-sa/4.0/
# or send a letter to
# Creative Commons, PO Box 1866, Mountain View, CA 94042, USA.
#
# CIF created using the CSD Python API on 29 September 2022
# The structure has been converted into the P1 space group
# The structure has a 3D framework
# The original CSD entry AQIROJ is in the monoclinic crystal system
# The framework has been calculated to contain at least 10.0% void space
# The void calculation uses a probe of radius 1.32A, grid spacing 0.4
#
###############################################################################

data_AQIROJ
_chemical_formula_moiety         '(C24 H40 N46 O4 Zn8)n'
_symmetry_cell_setting           triclinic
_symmetry_space_group_name_H-M   'P 1'
_symmetry_Int_Tables_number      1
_space_group_name_Hall           'P 1'
loop_
_symmetry_equiv_pos_site_id
_symmetry_equiv_pos_as_xyz
1 x,y,z
_cell_length_a                   12.0236(8)
_cell_length_b                   9.9851(6)
_cell_length_c                   15.8600(9)
_cell_angle_alpha                90
_cell_angle_beta                 105.201(6)
_cell_angle_gamma                90
_cell_volume                     1837.48
loop_
_atom_site_label
_atom_site_type_symbol
_atom_site_fract_x
_atom_site_fract_y
_atom_site_fract_z
N7 N 0.4173(4) 0.0645(4) 0.3106(3)
N8 N 0.5154(3) 0.0698(4) 0.2833(2)
Zn3 Zn 0.63323(4) 0.21484(5) 0.32374(3)
Zn1 Zn 0.36677(4) 0.71484(5) 0.17626(3)
Zn2 Zn 0.14974(4) 0.73005(5) 0.28540(3)
H1 H 0.1196 0.7172 0.0586
C3 C 0.5151(4) 0.9611(4) 0.2352(3)
C4 C 0.6022(5) 0.9245(6) 0.1879(4)
H4 H 0.6609 0.9921 0.1974
H5 H 0.5655 0.9176 0.1265
H6 H 0.6364 0.8400 0.2091
N1 N 0.3291(3) 0.7399(4) 0.0458(2)
N2 N 0.4125(4) 0.7587(5) 0.0049(3)
N5 N 0.4206(3) 0.8902(4) 0.2317(2)
N6 N 0.3601(4) 0.9583(4) 0.2797(3)
N9 N 0.0417(3) 0.5749(4) 0.2904(2)
N10 N 0.0762(4) 0.4908(5) 0.3590(3)
N11 N 0.0175(4) 0.3815(4) 0.3421(3)
O1 O 0.2270(3) 0.6643(3) 0.20347(19)
H10 H 0.2159 0.5826 0.1885
N13 N 0.2520(3) 0.7433(4) 0.4061(2)
N14 N 0.4846(3) 0.5698(4) 0.2167(2)
N15 N 0.0572(3) 0.8924(4) 0.2381(2)
C1 C 0.2301(4) 0.7400(4) 0.9836(3)
C2 C 0.1134(5) 0.7274(7) 0.9974(4)
H2 H 0.0755 0.6504 0.9664
H3 H 0.0694 0.8063 0.9760
N3 N 0.3678(3) 0.7688(5) 0.9219(3)
N4 N 0.2520(3) 0.7567(4) 0.9061(2)
Zn5 Zn 0.14974(4) 0.76995(5) 0.78540(3)
C5 C 0.9589(4) 0.5118(5) 0.2323(3)
C6 C 0.8923(6) 0.5680(7) 0.1479(4)
H7 H 0.9199 0.6563 0.1408
H8 H 0.8122 0.5723 0.1471
H9 H 0.9014 0.5117 0.1011
N12 N 0.9428(3) 0.3924(4) 0.2619(2)
Zn4 Zn 0.85026(4) 0.23005(5) 0.21460(3)
C1_2 C 0.7699(4) 0.2400(4) 0.5164(3)
C2_2 C 0.8866(5) 0.2274(7) 0.5026(4)
H1_2 H 0.8804 0.2172 0.4414
H2_2 H 0.9245 0.1504 0.5336
H3_2 H 0.9306 0.3063 0.5240
C3_2 C 0.4849(4) 0.4611(4) 0.2648(3)
C4_2 C 0.3978(5) 0.4245(6) 0.3121(4)
H4_2 H 0.3391 0.4921 0.3026
H5_2 H 0.4345 0.4176 0.3735
H6_2 H 0.3636 0.3400 0.2909
N1_2 N 0.6709(3) 0.2399(4) 0.4542(2)
N2_2 N 0.5875(4) 0.2587(5) 0.4951(3)
N3_2 N 0.6322(3) 0.2688(5) 0.5781(3)
N4_2 N 0.7480(3) 0.2567(4) 0.5939(2)
N5_2 N 0.5794(3) 0.3902(4) 0.2683(2)
N6_2 N 0.6399(4) 0.4583(4) 0.2203(3)
N7_2 N 0.5827(4) 0.5645(4) 0.1894(3)
N9_2 N 0.9583(3) 0.0749(4) 0.2096(2)
O1_2 O 0.7730(3) 0.1643(3) 0.29653(19)
H10_2 H 0.7841 0.0826 0.3115
Zn5_2 Zn 0.85026(4) 0.26995(5) 0.71460(3)
N13_2 N 0.7480(3) 0.2433(4) 0.0939(2)
C5_2 C 0.0411(4) 0.4882(5) 0.7677(3)
C6_2 C 0.1077(6) 0.4320(7) 0.8521(4)
H7_2 H 0.0801 0.3437 0.8592
H8_2 H 0.1878 0.4277 0.8529
H9_2 H 0.0986 0.4883 0.8989
N12_2 N 0.0572(3) 0.6076(4) 0.7381(2)
C1_3 C 0.7699(4) 0.2600(4) 0.0164(3)
C2_3 C 0.8866(5) 0.2726(7) 0.0026(4)
H2_3 H 0.9245 0.3496 0.0336
H3_3 H 0.9306 0.1937 0.0240
N3_3 N 0.6322(3) 0.2312(5) 0.0781(3)
Zn1_2 Zn 0.63323(4) 0.28516(5) 0.82374(3)
H1_3 H 0.8804 0.2828 0.9414
C3_3 C 0.4849(4) 0.0389(4) 0.7648(3)
C4_3 C 0.3978(5) 0.0755(6) 0.8121(4)
H4_3 H 0.3391 0.0079 0.8026
H5_3 H 0.4345 0.0824 0.8735
H6_3 H 0.3636 0.1600 0.7909
N1_3 N 0.6709(3) 0.2601(4) 0.9542(2)
N2_3 N 0.5875(4) 0.2413(5) 0.9951(3)
N5_3 N 0.5794(3) 0.1098(4) 0.7683(2)
N6_3 N 0.6399(4) 0.0417(4) 0.7203(3)
N9_3 N 0.9583(3) 0.4251(4) 0.7096(2)
N10_2 N 0.9238(4) 0.5092(5) 0.6410(3)
N11_2 N 0.9825(4) 0.6185(4) 0.6579(3)
O1_3 O 0.7730(3) 0.3357(3) 0.79653(19)
H10_3 H 0.7841 0.4174 0.8115
N14_2 N 0.5154(3) 0.4302(4) 0.7833(2)
N15_2 N 0.9428(3) 0.1076(4) 0.7619(2)
N7_3 N 0.5827(4) 0.9355(4) 0.6894(3)
N8_2 N 0.4846(3) 0.9302(4) 0.7167(2)
Zn3_2 Zn 0.36677(4) 0.78516(5) 0.67626(3)
C1_4 C 0.2301(4) 0.7600(4) 0.4836(3)
C2_4 C 0.1134(5) 0.7726(7) 0.4974(4)
H1_4 H 0.1196 0.7828 0.5586
H2_4 H 0.0755 0.8496 0.4664
H3_4 H 0.0694 0.6937 0.4760
C3_4 C 0.5151(4) 0.5389(4) 0.7352(3)
C4_4 C 0.6022(5) 0.5755(6) 0.6879(4)
H4_4 H 0.6609 0.5079 0.6974
H5_4 H 0.5655 0.5824 0.6265
H6_4 H 0.6364 0.6600 0.7091
N1_4 N 0.3291(3) 0.7601(4) 0.5458(2)
N2_4 N 0.4125(4) 0.7413(5) 0.5049(3)
N3_4 N 0.3678(3) 0.7312(5) 0.4219(3)
N5_4 N 0.4206(3) 0.6098(4) 0.7317(2)
N6_4 N 0.3601(4) 0.5417(4) 0.7797(3)
N7_4 N 0.4173(4) 0.4355(4) 0.8106(3)
N9_4 N 0.0417(3) 0.9251(4) 0.7904(2)
O1_4 O 0.2270(3) 0.8357(3) 0.70347(19)
H10_4 H 0.2159 0.9174 0.6885
C5_3 C 0.0411(4) 0.0118(5) 0.2677(3)
C6_3 C 0.1077(6) 0.0680(7) 0.3521(4)
H7_3 H 0.0801 0.1563 0.3592
H8_3 H 0.1878 0.0723 0.3529
H9_3 H 0.0986 0.0117 0.3989
N10_3 N 0.9238(4) 0.9908(5) 0.1410(3)
N11_3 N 0.9825(4) 0.8815(4) 0.1579(3)
N10_4 N 0.0762(4) 0.0092(5) 0.8590(3)
N11_4 N 0.0175(4) 0.1185(4) 0.8421(3)
C5_4 C 0.9589(4) 0.9882(5) 0.7323(3)
C6_4 C 0.8923(6) 0.9320(7) 0.6479(4)
H7_4 H 0.9199 0.8437 0.6408
H8_4 H 0.8122 0.9277 0.6471
H9_4 H 0.9014 0.9883 0.6011
loop_
_geom_bond_atom_site_label_1
_geom_bond_atom_site_label_2
_geom_bond_site_symmetry_1
_geom_bond_site_symmetry_2
Zn3 N8 1_555 1_555
N7 N8 1_555 1_555
Zn1 N1 1_555 1_555
Zn2 N9 1_555 1_555
C3 C4 1_555 1_555
C4 H4 1_555 1_555
H5 C4 1_555 1_555
H6 C4 1_555 1_555
N2 N1 1_555 1_555
N5 Zn1 1_555 1_555
N6 N5 1_555 1_555
N10 N9 1_555 1_555
N11 N10 1_555 1_555
O1 Zn1 1_555 1_555
H10 O1 1_555 1_555
N13 Zn2 1_555 1_555
N14 Zn1 1_555 1_555
N15 Zn2 1_555 1_555
Zn2 O1 1_555 1_555
C3 N5 1_555 1_555
C1 C2 1_555 1_555
H2 C2 1_555 1_555
H3 C2 1_555 1_555
N4 C1 1_555 1_555
Zn5 N4 1_555 1_555
N3 N4 1_555 1_555
C5 C6 1_555 1_555
C6 H7 1_555 1_555
H8 C6 1_555 1_555
H9 C6 1_555 1_555
N12 C5 1_555 1_555
Zn4 N12 1_555 1_555
Zn3 N1_2 1_555 1_555
Zn4 N9_2 1_555 1_555
C1_2 C2_2 1_555 1_555
C2_2 H1_2 1_555 1_555
H2_2 C2_2 1_555 1_555
H3_2 C2_2 1_555 1_555
C3_2 C4_2 1_555 1_555
C4_2 H4_2 1_555 1_555
H5_2 C4_2 1_555 1_555
H6_2 C4_2 1_555 1_555
N1_2 C1_2 1_555 1_555
N2_2 N1_2 1_555 1_555
N3_2 N2_2 1_555 1_555
N4_2 C1_2 1_555 1_555
N5_2 Zn3 1_555 1_555
N6_2 N5_2 1_555 1_555
N7_2 N6_2 1_555 1_555
N14 C3_2 1_555 1_555
O1_2 Zn3 1_555 1_555
H10_2 O1_2 1_555 1_555
Zn5_2 N4_2 1_555 1_555
N13_2 Zn4 1_555 1_555
Zn4 O1_2 1_555 1_555
C3_2 N5_2 1_555 1_555
N3_2 N4_2 1_555 1_555
N7_2 N14 1_555 1_555
C5_2 C6_2 1_555 1_555
C6_2 H7_2 1_555 1_555
H8_2 C6_2 1_555 1_555
H9_2 C6_2 1_555 1_555
N12_2 C5_2 1_555 1_555
Zn5 N12_2 1_555 1_555
C1_3 C2_3 1_555 1_555
H2_3 C2_3 1_555 1_555
H3_3 C2_3 1_555 1_555
N13_2 C1_3 1_555 1_555
N3_3 N13_2 1_555 1_555
Zn1_2 N1_3 1_555 1_555
Zn5_2 N9_3 1_555 1_555
C3_3 C4_3 1_555 1_555
C4_3 H4_3 1_555 1_555
H5_3 C4_3 1_555 1_555
H6_3 C4_3 1_555 1_555
N2_3 N1_3 1_555 1_555
N5_3 Zn1_2 1_555 1_555
N6_3 N5_3 1_555 1_555
N10_2 N9_3 1_555 1_555
N11_2 N10_2 1_555 1_555
O1_3 Zn1_2 1_555 1_555
H10_3 O1_3 1_555 1_555
N14_2 Zn1_2 1_555 1_555
N15_2 Zn5_2 1_555 1_555
Zn5_2 O1_3 1_555 1_555
C3_3 N5_3 1_555 1_555
Zn3_2 N8_2 1_555 1_555
N7_3 N8_2 1_555 1_555
Zn3_2 N1_4 1_555 1_555
Zn5 N9_4 1_555 1_555
C1_4 C2_4 1_555 1_555
C2_4 H1_4 1_555 1_555
H2_4 C2_4 1_555 1_555
H3_4 C2_4 1_555 1_555
C3_4 C4_4 1_555 1_555
C4_4 H4_4 1_555 1_555
H5_4 C4_4 1_555 1_555
H6_4 C4_4 1_555 1_555
N1_4 C1_4 1_555 1_555
N2_4 N1_4 1_555 1_555
N3_4 N2_4 1_555 1_555
N13 C1_4 1_555 1_555
N5_4 Zn3_2 1_555 1_555
N6_4 N5_4 1_555 1_555
N7_4 N6_4 1_555 1_555
N14_2 C3_4 1_555 1_555
O1_4 Zn3_2 1_555 1_555
H10_4 O1_4 1_555 1_555
Zn5 O1_4 1_555 1_555
C3_4 N5_4 1_555 1_555
N3_4 N13 1_555 1_555
N7_4 N14_2 1_555 1_555
C5_3 C6_3 1_555 1_555
C6_3 H7_3 1_555 1_555
H8_3 C6_3 1_555 1_555
H9_3 C6_3 1_555 1_555
N11_3 N10_3 1_555 1_555
N11_4 N10_4 1_555 1_555
C5_4 C6_4 1_555 1_555
C6_4 H7_4 1_555 1_555
H8_4 C6_4 1_555 1_555
H9_4 C6_4 1_555 1_555

#END
