
###############################################################################
#
# This file contains modified crystal structure data generated from the
# MOF subset of the Cambridge Structural Database (CSD) v543 
# hosted by the Cambridge Crystallographic Data Centre (CCDC).
#
# This work is licensed under the Creative Commons
# Attribution-NonCommercial-ShareAlike 4.0 International License.
# To view a copy of this license, visit
# http://creativecommons.org/licenses/by-nc-sa/4.0/
# or send a letter to
# Creative Commons, PO Box 1866, Mountain View, CA 94042, USA.
#
# CIF created using the CSD Python API on 29 September 2022
# The structure has been converted into the P1 space group
# The structure has a 3D framework
# The original CSD entry AQUCOG is in the rhombohedral crystal system
# The framework has been calculated to contain at least 10.0% void space
# The void calculation uses a probe of radius 1.32A, grid spacing 0.4
#
###############################################################################

data_AQUCOG
_chemical_formula_moiety         '(C72 H18 Ni8 O48)n'
_symmetry_cell_setting           triclinic
_symmetry_space_group_name_H-M   'P 1'
_symmetry_Int_Tables_number      1
_space_group_name_Hall           'P 1'
loop_
_symmetry_equiv_pos_site_id
_symmetry_equiv_pos_as_xyz
1 x,y,z
_cell_length_a                   25.7542(3)
_cell_length_b                   25.7542(3)
_cell_length_c                   6.7550(3)
_cell_angle_alpha                90
_cell_angle_beta                 90
_cell_angle_gamma                120
_cell_volume                     3880.18
loop_
_atom_site_label
_atom_site_type_symbol
_atom_site_fract_x
_atom_site_fract_y
_atom_site_fract_z
_atom_site_U_iso_or_equiv
_atom_site_thermal_displace_type
Ni1 Ni 0.61862(8) 0.64787(9) 0.3529(3) 0.0517 Uiso
O1 O 0.437857 0.407712 0.437046 0.0517 Uiso
O2 O 0.368793 0.365412 0.218203 0.0517 Uiso
O3 O 0.613564 0.583693 0.15751 0.0517 Uiso
C1 C 0.41774 0.407263 0.255159 0.0517 Uiso
C2 C 0.46225 0.45323 0.118479 0.0517 Uiso
C3 C 0.559044 0.548737 0.079096 0.0517 Uiso
C4 C 0.517431 0.497293 0.194567 0.0517 Uiso
H1 H 0.528002 0.493244 0.327656 0.0621 Uiso
Ni4 Ni 0.38138(8) 0.35213(9) 0.6471(3) 0.0517 Uiso
Ni7 Ni 0.68546(9) 0.63742(12) 0.0196(3) 0.0517 Uiso
Ni8 Ni 0.30408(12) 0.28529(8) 0.3138(3) 0.0517 Uiso
O8 O 0.562143 0.592288 0.562954 0.0517 Uiso
O10 O 0.670048 0.702126 0.115130 0.0517 Uiso
O12 O 0.698745 0.663286 0.448464 0.0517 Uiso
O13 O 0.636796 0.719769 0.49084 0.0517 Uiso
O5 O 0.631207 0.634588 0.781797 0.0517 Uiso
O6 O 0.386436 0.416307 0.84249 0.0517 Uiso
C5 C 0.58226 0.592737 0.744841 0.0517 Uiso
C6 C 0.53775 0.54677 0.881521 0.0517 Uiso
C7 C 0.440956 0.451263 0.920904 0.0517 Uiso
C8 C 0.482569 0.502707 0.805433 0.0517 Uiso
H2 H 0.471998 0.506756 0.672344 0.0621 Uiso
Ni5 Ni 0.69592(12) 0.71471(8) 0.6862(3) 0.0517 Uiso
Ni6 Ni 0.31454(9) 0.36258(12) 0.9804(3) 0.0517 Uiso
O9 O 0.301255 0.336714 0.551536 0.0517 Uiso
O11 O 0.329952 0.297874 0.884870 0.0517 Uiso
O14 O 0.363204 0.280231 0.50916 0.0517 Uiso
O1_2 O 0.592288 0.030145 0.437046 0.0517 Uiso
O2_2 O 0.634588 0.003381 0.218203 0.0517 Uiso
O3_2 O 0.416307 0.029871 0.15751 0.0517 Uiso
C1_2 C 0.592737 0.010477 0.255159 0.0517 Uiso
C2_2 C 0.54677 0.00902 0.118479 0.0517 Uiso
C3_2 C 0.451263 0.010307 0.079096 0.0517 Uiso
C4_2 C 0.502707 0.020138 0.194567 0.0517 Uiso
H1_2 H 0.506756 0.034758 0.327656 0.0621 Uiso
Ni4_2 Ni 0.64787(9) 0.02925(12) 0.6471(3) 0.0517 Uiso
Ni7_2 Ni 0.36258(12) 0.04805(15) 0.0196(3) 0.0517 Uiso
Ni8_2 Ni 0.71471(8) 0.01880(14) 0.3138(3) 0.0517 Uiso
O12_2 O 0.336714 0.035460 0.448464 0.0517 Uiso
O11_2 O 0.702126 0.032079 0.884870 0.0517 Uiso
O14_2 O 0.719769 0.082974 0.50916 0.0517 Uiso
Ni1_2 Ni 0.35213(9) 0.97075(12) 0.3529(3) 0.0517 Uiso
O8_2 O 0.407712 0.969855 0.562954 0.0517 Uiso
O10_2 O 0.297874 0.967921 0.115130 0.0517 Uiso
O13_2 O 0.280231 0.917026 0.49084 0.0517 Uiso
O5_2 O 0.365412 0.996619 0.781797 0.0517 Uiso
O6_2 O 0.583693 0.970129 0.84249 0.0517 Uiso
C5_2 C 0.407263 0.989523 0.744841 0.0517 Uiso
C6_2 C 0.45323 0.99098 0.881521 0.0517 Uiso
C7_2 C 0.548737 0.989693 0.920904 0.0517 Uiso
C8_2 C 0.497293 0.979862 0.805433 0.0517 Uiso
H2_2 H 0.493244 0.965242 0.672344 0.0621 Uiso
Ni5_2 Ni 0.28529(8) 0.98120(14) 0.6862(3) 0.0517 Uiso
Ni6_2 Ni 0.63742(12) 0.95195(15) 0.9804(3) 0.0517 Uiso
O9_2 O 0.663286 0.964540 0.551536 0.0517 Uiso
Ni1_3 Ni 0.02925(12) 0.38138(8) 0.3529(3) 0.0517 Uiso
O8_3 O 0.030145 0.437857 0.562954 0.0517 Uiso
O10_3 O 0.032079 0.329952 0.115130 0.0517 Uiso
O13_3 O 0.082974 0.363204 0.49084 0.0517 Uiso
O5_3 O 0.003381 0.368793 0.781797 0.0517 Uiso
O6_3 O 0.029871 0.613564 0.84249 0.0517 Uiso
C5_3 C 0.010477 0.41774 0.744841 0.0517 Uiso
C6_3 C 0.00902 0.46225 0.881521 0.0517 Uiso
C7_3 C 0.010307 0.559044 0.920904 0.0517 Uiso
C8_3 C 0.020138 0.517431 0.805433 0.0517 Uiso
H2_3 H 0.034758 0.528002 0.672344 0.0621 Uiso
Ni5_3 Ni 0.01880(14) 0.30408(12) 0.6862(3) 0.0517 Uiso
Ni6_3 Ni 0.04805(15) 0.68546(9) 0.9804(3) 0.0517 Uiso
O9_3 O 0.035460 0.698745 0.551536 0.0517 Uiso
O1_3 O 0.969855 0.562143 0.437046 0.0517 Uiso
O2_3 O 0.996619 0.631207 0.218203 0.0517 Uiso
O3_3 O 0.970129 0.386436 0.15751 0.0517 Uiso
C1_3 C 0.989523 0.58226 0.255159 0.0517 Uiso
C2_3 C 0.99098 0.53775 0.118479 0.0517 Uiso
C3_3 C 0.989693 0.440956 0.079096 0.0517 Uiso
C4_3 C 0.979862 0.482569 0.194567 0.0517 Uiso
H1_3 H 0.965242 0.471998 0.327656 0.0621 Uiso
Ni4_3 Ni 0.97075(12) 0.61862(8) 0.6471(3) 0.0517 Uiso
Ni7_3 Ni 0.95195(15) 0.31454(9) 0.0196(3) 0.0517 Uiso
Ni8_3 Ni 0.98120(14) 0.69592(12) 0.3138(3) 0.0517 Uiso
O12_3 O 0.964540 0.301255 0.448464 0.0517 Uiso
O11_3 O 0.967921 0.670048 0.884870 0.0517 Uiso
O14_3 O 0.917026 0.636796 0.50916 0.0517 Uiso
O13_4 O 0.303462 0.053103 0.82418 0.0517 Uiso
O1_4 O 0.104524 0.741045 0.770379 0.0517 Uiso
C1_4 C 0.08441 0.740596 0.588492 0.0517 Uiso
C2_4 C 0.12892 0.78656 0.451812 0.0517 Uiso
C3_4 C 0.225711 0.882070 0.412429 0.0517 Uiso
C4_4 C 0.184098 0.830626 0.527900 0.0517 Uiso
H1_4 H 0.194669 0.826577 0.660989 0.0621 Uiso
O6_4 O 0.053103 0.749640 0.17582 0.0517 Uiso
C5_4 C 0.24893 0.926070 0.078174 0.0517 Uiso
C6_4 C 0.20442 0.88010 0.214854 0.0517 Uiso
C7_4 C 0.107623 0.784596 0.254237 0.0517 Uiso
C8_4 C 0.149236 0.836040 0.138766 0.0517 Uiso
H2_4 H 0.138665 0.840089 0.005677 0.0621 Uiso
O8_4 O 0.228810 0.925621 0.896287 0.0517 Uiso
O1_5 O 0.258955 0.363478 0.770379 0.0517 Uiso
C1_5 C 0.259404 0.343810 0.588492 0.0517 Uiso
C2_5 C 0.21344 0.34235 0.451812 0.0517 Uiso
C3_5 C 0.117930 0.343640 0.412429 0.0517 Uiso
C4_5 C 0.169374 0.353471 0.527900 0.0517 Uiso
H1_5 H 0.173423 0.368091 0.660989 0.0621 Uiso
O6_5 O 0.250360 0.303462 0.17582 0.0517 Uiso
C5_5 C 0.073930 0.322856 0.078174 0.0517 Uiso
C6_5 C 0.11990 0.32431 0.214854 0.0517 Uiso
C7_5 C 0.215404 0.323026 0.254237 0.0517 Uiso
C8_5 C 0.163960 0.313195 0.138766 0.0517 Uiso
H2_5 H 0.159911 0.298575 0.005677 0.0621 Uiso
O8_5 O 0.074379 0.303188 0.896287 0.0517 Uiso
O13_5 O 0.946897 0.250360 0.82418 0.0517 Uiso
O1_6 O 0.636522 0.895476 0.770379 0.0517 Uiso
C1_6 C 0.656190 0.91559 0.588492 0.0517 Uiso
C2_6 C 0.65765 0.87108 0.451812 0.0517 Uiso
C3_6 C 0.656360 0.774289 0.412429 0.0517 Uiso
C4_6 C 0.646529 0.815902 0.527900 0.0517 Uiso
H1_6 H 0.631909 0.805331 0.660989 0.0621 Uiso
O6_6 O 0.696538 0.946897 0.17582 0.0517 Uiso
C5_6 C 0.677144 0.75107 0.078174 0.0517 Uiso
C6_6 C 0.67569 0.79558 0.214854 0.0517 Uiso
C7_6 C 0.676974 0.892377 0.254237 0.0517 Uiso
C8_6 C 0.686805 0.850764 0.138766 0.0517 Uiso
H2_6 H 0.701425 0.861335 0.005677 0.0621 Uiso
O8_6 O 0.696812 0.771190 0.896287 0.0517 Uiso
O13_6 O 0.749640 0.696538 0.82418 0.0517 Uiso
O1_7 O 0.771190 0.074379 0.103713 0.0517 Uiso
O8_7 O 0.895476 0.258955 0.229621 0.0517 Uiso
C1_7 C 0.75107 0.073930 0.921826 0.0517 Uiso
C2_7 C 0.79558 0.11990 0.785146 0.0517 Uiso
C3_7 C 0.892377 0.215404 0.745763 0.0517 Uiso
C4_7 C 0.850764 0.163960 0.861234 0.0517 Uiso
H1_7 H 0.861335 0.159911 0.994323 0.0621 Uiso
C5_7 C 0.91559 0.259404 0.411508 0.0517 Uiso
C6_7 C 0.87108 0.21344 0.548188 0.0517 Uiso
C7_7 C 0.774289 0.117930 0.587571 0.0517 Uiso
C8_7 C 0.815902 0.169374 0.472100 0.0517 Uiso
H2_7 H 0.805331 0.173423 0.339011 0.0621 Uiso
O1_8 O 0.925621 0.696812 0.103713 0.0517 Uiso
O8_8 O 0.741045 0.636522 0.229621 0.0517 Uiso
C1_8 C 0.926070 0.677144 0.921826 0.0517 Uiso
C2_8 C 0.88010 0.67569 0.785146 0.0517 Uiso
C3_8 C 0.784596 0.676974 0.745763 0.0517 Uiso
C4_8 C 0.836040 0.686805 0.861234 0.0517 Uiso
H1_8 H 0.840089 0.701425 0.994323 0.0621 Uiso
C5_8 C 0.740596 0.656190 0.411508 0.0517 Uiso
C6_8 C 0.78656 0.65765 0.548188 0.0517 Uiso
C7_8 C 0.882070 0.656360 0.587571 0.0517 Uiso
C8_8 C 0.830626 0.646529 0.472100 0.0517 Uiso
H2_8 H 0.826577 0.631909 0.339011 0.0621 Uiso
O1_9 O 0.303188 0.228810 0.103713 0.0517 Uiso
O8_9 O 0.363478 0.104524 0.229621 0.0517 Uiso
C1_9 C 0.322856 0.24893 0.921826 0.0517 Uiso
C2_9 C 0.32431 0.20442 0.785146 0.0517 Uiso
C3_9 C 0.323026 0.107623 0.745763 0.0517 Uiso
C4_9 C 0.313195 0.149236 0.861234 0.0517 Uiso
H1_9 H 0.298575 0.138665 0.994323 0.0621 Uiso
C5_9 C 0.343810 0.08441 0.411508 0.0517 Uiso
C6_9 C 0.34235 0.12892 0.548188 0.0517 Uiso
C7_9 C 0.343640 0.225711 0.587571 0.0517 Uiso
C8_9 C 0.353471 0.184098 0.472100 0.0517 Uiso
H2_9 H 0.368091 0.194669 0.339011 0.0621 Uiso
loop_
_geom_bond_atom_site_label_1
_geom_bond_atom_site_label_2
_geom_bond_site_symmetry_1
_geom_bond_site_symmetry_2
Ni1 O3 1_555 1_555
O1 C1 1_555 1_555
O2 C1 1_555 1_555
O3 C3 1_555 1_555
C1 C2 1_555 1_555
C2 C4 1_555 1_555
C3 C4 1_555 1_555
C4 H1 1_555 1_555
Ni4 O1 1_555 1_555
Ni7 O3 1_555 1_555
Ni8 O2 1_555 1_555
O8 Ni1 1_555 1_555
O10 Ni1 1_555 1_555
O12 Ni1 1_555 1_555
O13 Ni1 1_555 1_555
Ni7 O10 1_555 1_555
O8 C5 1_555 1_555
O5 C5 1_555 1_555
O6 C7 1_555 1_555
C5 C6 1_555 1_555
C8 C6 1_555 1_555
H2 C8 1_555 1_555
Ni4 O6 1_555 1_555
Ni5 O5 1_555 1_555
O9 Ni4 1_555 1_555
O11 Ni4 1_555 1_555
O14 Ni4 1_555 1_555
O6 Ni6 1_555 1_555
C7 C8 1_555 1_555
Ni6 O11 1_555 1_555
O1_2 C1_2 1_555 1_555
O2_2 C1_2 1_555 1_555
O3_2 C3_2 1_555 1_555
C1_2 C2_2 1_555 1_555
C2_2 C4_2 1_555 1_555
C3_2 C4_2 1_555 1_555
C4_2 H1_2 1_555 1_555
Ni4_2 O1_2 1_555 1_555
Ni7_2 O3_2 1_555 1_555
Ni8_2 O2_2 1_555 1_555
O11_2 Ni4_2 1_555 1_555
O14_2 Ni4_2 1_555 1_555
O8_2 Ni1_2 1_555 1_555
O10_2 Ni1_2 1_555 1_555
O13_2 Ni1_2 1_555 1_555
O8_2 C5_2 1_555 1_555
O5_2 C5_2 1_555 1_555
O6_2 C7_2 1_555 1_555
C5_2 C6_2 1_555 1_555
C8_2 C6_2 1_555 1_555
H2_2 C8_2 1_555 1_555
Ni5_2 O5_2 1_555 1_555
O6_2 Ni6_2 1_555 1_555
C7_2 C8_2 1_555 1_555
O8_3 Ni1_3 1_555 1_555
O10_3 Ni1_3 1_555 1_555
O13_3 Ni1_3 1_555 1_555
O8_3 C5_3 1_555 1_555
O5_3 C5_3 1_555 1_555
O6_3 C7_3 1_555 1_555
C5_3 C6_3 1_555 1_555
C8_3 C6_3 1_555 1_555
H2_3 C8_3 1_555 1_555
Ni5_3 O5_3 1_555 1_555
O6_3 Ni6_3 1_555 1_555
C7_3 C8_3 1_555 1_555
O1_3 C1_3 1_555 1_555
O2_3 C1_3 1_555 1_555
O3_3 C3_3 1_555 1_555
C1_3 C2_3 1_555 1_555
C2_3 C4_3 1_555 1_555
C3_3 C4_3 1_555 1_555
C4_3 H1_3 1_555 1_555
Ni4_3 O1_3 1_555 1_555
Ni7_3 O3_3 1_555 1_555
Ni8_3 O2_3 1_555 1_555
O11_3 Ni4_3 1_555 1_555
O14_3 Ni4_3 1_555 1_555
Ni5_2 O13_2 1_555 1_555
O1_4 C1_4 1_555 1_555
O9_3 C1_4 1_555 1_555
O13_2 C3_4 1_555 1_555
C1_4 C2_4 1_555 1_555
C2_4 C4_4 1_555 1_555
C3_4 C4_4 1_555 1_555
C4_4 H1_4 1_555 1_555
O10_2 C5_4 1_555 1_555
O6_4 C7_4 1_555 1_555
C5_4 C6_4 1_555 1_555
C6_4 C3_4 1_555 1_555
C7_4 C2_4 1_555 1_555
C8_4 C6_4 1_555 1_555
H2_4 C8_4 1_555 1_555
Ni6_3 O1_4 1_555 1_555
O8_4 Ni5_2 1_555 1_555
C7_4 C8_4 1_555 1_555
Ni5_3 O13_3 1_555 1_555
O1_5 C1_5 1_555 1_555
O9 C1_5 1_555 1_555
O13_3 C3_5 1_555 1_555
C1_5 C2_5 1_555 1_555
C2_5 C4_5 1_555 1_555
C3_5 C4_5 1_555 1_555
C4_5 H1_5 1_555 1_555
O10_3 C5_5 1_555 1_555
O6_5 C7_5 1_555 1_555
C5_5 C6_5 1_555 1_555
C6_5 C3_5 1_555 1_555
C7_5 C2_5 1_555 1_555
C8_5 C6_5 1_555 1_555
H2_5 C8_5 1_555 1_555
Ni6 O1_5 1_555 1_555
Ni8 O9 1_555 1_555
O8_5 Ni5_3 1_555 1_555
O6_5 Ni8 1_555 1_555
C7_5 C8_5 1_555 1_555
Ni5 O13 1_555 1_555
O1_6 C1_6 1_555 1_555
O9_2 C1_6 1_555 1_555
O13 C3_6 1_555 1_555
C1_6 C2_6 1_555 1_555
C2_6 C4_6 1_555 1_555
C3_6 C4_6 1_555 1_555
C4_6 H1_6 1_555 1_555
O10 C5_6 1_555 1_555
O6_6 C7_6 1_555 1_555
C5_6 C6_6 1_555 1_555
C6_6 C3_6 1_555 1_555
C7_6 C2_6 1_555 1_555
C8_6 C6_6 1_555 1_555
H2_6 C8_6 1_555 1_555
Ni6_2 O1_6 1_555 1_555
O8_6 Ni5 1_555 1_555
O12 Ni5 1_555 1_555
O13_6 Ni5 1_555 1_555
C7_6 C8_6 1_555 1_555
Ni8_2 O1_7 1_555 1_555
O8_7 Ni7_3 1_555 1_555
O11_2 C1_7 1_555 1_555
O13_5 C3_7 1_555 1_555
C1_7 C2_7 1_555 1_555
C2_7 C4_7 1_555 1_555
C3_7 C4_7 1_555 1_555
C4_7 H1_7 1_555 1_555
O8_7 C5_7 1_555 1_555
O12_3 C5_7 1_555 1_555
O14_2 C7_7 1_555 1_555
C5_7 C6_7 1_555 1_555
C6_7 C3_7 1_555 1_555
C7_7 C2_7 1_555 1_555
C8_7 C6_7 1_555 1_555
H2_7 C8_7 1_555 1_555
Ni8_2 O14_2 1_555 1_555
C7_7 C8_7 1_555 1_555
Ni8_3 O1_8 1_555 1_555
O8_8 Ni7 1_555 1_555
O11_3 C1_8 1_555 1_555
O13_6 C3_8 1_555 1_555
C1_8 C2_8 1_555 1_555
C2_8 C4_8 1_555 1_555
C3_8 C4_8 1_555 1_555
C4_8 H1_8 1_555 1_555
O8_8 C5_8 1_555 1_555
O12 C5_8 1_555 1_555
O14_3 C7_8 1_555 1_555
C5_8 C6_8 1_555 1_555
C6_8 C3_8 1_555 1_555
C7_8 C2_8 1_555 1_555
C8_8 C6_8 1_555 1_555
H2_8 C8_8 1_555 1_555
Ni8_3 O14_3 1_555 1_555
C7_8 C8_8 1_555 1_555
Ni8 O1_9 1_555 1_555
O8_9 Ni7_2 1_555 1_555
O11 C1_9 1_555 1_555
O13_4 C3_9 1_555 1_555
C1_9 C2_9 1_555 1_555
C2_9 C4_9 1_555 1_555
C3_9 C4_9 1_555 1_555
C4_9 H1_9 1_555 1_555
O8_9 C5_9 1_555 1_555
O12_2 C5_9 1_555 1_555
O14 C7_9 1_555 1_555
C5_9 C6_9 1_555 1_555
C6_9 C3_9 1_555 1_555
C7_9 C2_9 1_555 1_555
C8_9 C6_9 1_555 1_555
H2_9 C8_9 1_555 1_555
Ni8 O14 1_555 1_555
C7_9 C8_9 1_555 1_555

#END
