
###############################################################################
#
# This file contains modified crystal structure data generated from the
# MOF subset of the Cambridge Structural Database (CSD) v543 
# hosted by the Cambridge Crystallographic Data Centre (CCDC).
#
# This work is licensed under the Creative Commons
# Attribution-NonCommercial-ShareAlike 4.0 International License.
# To view a copy of this license, visit
# http://creativecommons.org/licenses/by-nc-sa/4.0/
# or send a letter to
# Creative Commons, PO Box 1866, Mountain View, CA 94042, USA.
#
# CIF created using the CSD Python API on 29 September 2022
# The structure has been converted into the P1 space group
# The structure has a 3D framework
# The original CSD entry ARAJIO is in the tetragonal crystal system
# The original CSD entry ARAJIO is in a Sohncke space group
# The framework has been calculated to contain at least 10.0% void space
# The void calculation uses a probe of radius 1.32A, grid spacing 0.4
#
###############################################################################

data_ARAJIO
_chemical_formula_moiety         '(C160 H96 Co8 N16 O32)n'
_symmetry_cell_setting           triclinic
_symmetry_space_group_name_H-M   'P 1'
_symmetry_Int_Tables_number      1
_space_group_name_Hall           'P 1'
loop_
_symmetry_equiv_pos_site_id
_symmetry_equiv_pos_as_xyz
1 x,y,z
_cell_length_a                   17.2059(6)
_cell_length_b                   17.2059(6)
_cell_length_c                   15.5195(7)
_cell_angle_alpha                90
_cell_angle_beta                 90
_cell_angle_gamma                90
_cell_volume                     4594.44
loop_
_atom_site_label
_atom_site_type_symbol
_atom_site_fract_x
_atom_site_fract_y
_atom_site_fract_z
Co1 Co 0.74568(4) 0.25497(4) 0.01682(4)
N1 N 0.7366(3) 0.6341(2) 0.2413(3)
O1 O 0.7493(2) 0.34627(19) 0.1079(2)
C1 C 0.7423(3) 0.5140(3) 0.1529(3)
C2 C 0.7530(4) 0.3972(3) 0.0490(3)
O3 O 0.6095(2) 0.2646(2) 0.0112(2)
C3 C 0.7750(4) 0.6435(3) 0.0930(4)
H1 H 0.7826 0.6966 0.1004
C5 C 0.7178(4) 0.4717(3) 0.2253(4)
H2 H 0.7107 0.4182 0.2210
H5 H 0.4904 0.1916 0.0170
H6 H 0.3643 0.1597 0.0422
C13 C 0.7591(3) 0.4814(3) 0.0708(3)
C15 C 0.7807(4) 0.5312(3) 0.0037(4)
C16 C 0.7508(3) 0.5977(3) 0.1638(3)
C17 C 0.7041(4) 0.5092(4) 0.3037(3)
H9 H 0.6892 0.4810 0.3520
C18 C 0.7874(5) 0.6113(3) 0.0151(4)
C20 C 0.7131(4) 0.5903(4) 0.3082(4)
H12 H 0.7022 0.6149 0.3602
Co3 Co 0.75497(4) 0.75432(4) 0.26682(4)
N4 N 0.7292(3) 0.1599(2) 0.0987(3)
O2 O 0.7534(3) 0.3764(2) 0.9716(2)
N2 N 0.3401(2) 0.2292(3) 0.8487(3)
C4 C 0.4160(3) 0.2439(3) 0.8316(3)
O4 O 0.68628(19) 0.2262(2) 0.9065(2)
C6 C 0.4761(3) 0.2329(3) 0.8937(3)
C7 C 0.5123(4) 0.2839(4) 0.7275(3)
H3 H 0.5251 0.3004 0.6722
C8 C 0.6201(3) 0.2458(4) 0.9346(3)
C9 C 0.4360(3) 0.2703(4) 0.7472(3)
H4 H 0.3975 0.2781 0.7061
C10 C 0.4531(3) 0.2004(4) 0.9747(3)
C11 C 0.5546(3) 0.2489(3) 0.8698(3)
C12 C 0.3787(3) 0.1827(3) 0.9904(3)
C14 C 0.5711(3) 0.2739(4) 0.7877(3)
H7 H 0.6223 0.2842 0.7723
H8 H 0.7909 0.5102 0.9497
H10 H 0.8004 0.6427 0.9685
C19 C 0.3213(3) 0.2000(3) 0.9253(3)
H11 H 0.2692 0.1905 0.9374
Co2 Co 0.24503(4) 0.24568(4) 0.76682(4)
N3 N 0.8659(2) 0.2366(3) 0.9913(3)
Co1_2 Co 0.25432(4) 0.74503(4) 0.51682(4)
N1_2 N 0.2634(3) 0.3659(2) 0.7413(3)
O1_2 O 0.2507(2) 0.65373(19) 0.6079(2)
O2_2 O 0.2466(3) 0.6236(2) 0.4716(2)
C1_2 C 0.2577(3) 0.4860(3) 0.6529(3)
C2_2 C 0.2470(4) 0.6028(3) 0.5490(3)
O3_2 O 0.3905(2) 0.7354(2) 0.5112(2)
N2_2 N 0.6599(2) 0.7708(3) 0.3487(3)
C3_2 C 0.2250(4) 0.3565(3) 0.5930(4)
H1_2 H 0.2174 0.3034 0.6004
C4_2 C 0.5840(3) 0.7561(3) 0.3316(3)
C5_2 C 0.2822(4) 0.5283(3) 0.7253(4)
H2_2 H 0.2893 0.5818 0.7210
O4_2 O 0.31372(19) 0.7738(2) 0.4065(2)
C6_2 C 0.5239(3) 0.7671(3) 0.3937(3)
C7_2 C 0.4877(4) 0.7161(4) 0.2275(3)
H3_2 H 0.4749 0.6996 0.1722
C8_2 C 0.3799(3) 0.7542(4) 0.4346(3)
C9_2 C 0.5640(3) 0.7297(4) 0.2472(3)
H4_2 H 0.6025 0.7219 0.2061
C10_2 C 0.5469(3) 0.7996(4) 0.4747(3)
H5_2 H 0.5096 0.8084 0.5170
C11_2 C 0.4454(3) 0.7511(3) 0.3698(3)
C12_2 C 0.6213(3) 0.8173(3) 0.4904(3)
H6_2 H 0.6357 0.8403 0.5422
C13_2 C 0.2409(3) 0.5186(3) 0.5708(3)
C14_2 C 0.4289(3) 0.7261(4) 0.2877(3)
H7_2 H 0.3777 0.7158 0.2723
C15_2 C 0.2193(4) 0.4688(3) 0.5037(4)
H8_2 H 0.2091 0.4898 0.4497
C16_2 C 0.2492(3) 0.4023(3) 0.6638(3)
C17_2 C 0.2959(4) 0.4908(4) 0.8037(3)
H9_2 H 0.3108 0.5190 0.8520
C18_2 C 0.2126(5) 0.3887(3) 0.5151(4)
H10_2 H 0.1996 0.3573 0.4685
C19_2 C 0.6787(3) 0.8000(3) 0.4253(3)
H11_2 H 0.7308 0.8095 0.4374
C20_2 C 0.2869(4) 0.4097(4) 0.8082(4)
H12_2 H 0.2978 0.3851 0.8602
N3_2 N 0.1341(2) 0.7634(3) 0.4913(3)
N4_2 N 0.2708(3) 0.8401(2) 0.5987(3)
O1_3 O 0.15373(19) 0.2493(2) 0.8579(2)
O2_3 O 0.1236(2) 0.2534(3) 0.7216(2)
C2_3 C 0.1028(3) 0.2530(4) 0.7990(3)
O3_3 O 0.2354(2) 0.1095(2) 0.7612(2)
C5_3 C 0.0283(3) 0.2178(4) 0.9753(4)
H2_3 H 0.0818 0.2107 0.9710
O4_3 O 0.2738(2) 0.18628(19) 0.6565(2)
C7_3 C 0.2161(4) 0.0123(4) 0.4775(3)
H3_3 H 0.1996 0.0251 0.4222
C8_3 C 0.2542(4) 0.1201(3) 0.6846(3)
C11_3 C 0.2511(3) 0.0546(3) 0.6198(3)
C13_3 C 0.0186(3) 0.2591(3) 0.8208(3)
C14_3 C 0.2261(4) 0.0711(3) 0.5377(3)
H7_3 H 0.2158 0.1223 0.5223
C4_3 C 0.2561(3) 0.9160(3) 0.5816(3)
C6_3 C 0.2671(3) 0.9761(3) 0.6437(3)
C9_3 C 0.2297(4) 0.9360(3) 0.4972(3)
H4_3 H 0.2219 0.8975 0.4561
C10_3 C 0.2996(4) 0.9531(3) 0.7247(3)
H5_3 H 0.3084 0.9904 0.7670
C12_3 C 0.3173(3) 0.8787(3) 0.7404(3)
H6_3 H 0.3403 0.8643 0.7922
C19_3 C 0.3000(3) 0.8213(3) 0.6753(3)
H11_3 H 0.3095 0.7692 0.6874
C17_3 C 0.9908(4) 0.2041(4) 0.0537(3)
C20_3 C 0.9097(4) 0.2131(4) 0.0582(4)
H12_3 H 0.8851 0.2022 0.1102
C1_3 C 0.9860(3) 0.2423(3) 0.9029(3)
C3_3 C 0.8565(3) 0.2750(4) 0.8430(4)
H1_3 H 0.8034 0.2826 0.8504
C15_3 C 0.9688(3) 0.2807(4) 0.7537(4)
H8_3 H 0.9898 0.2909 0.6997
C16_3 C 0.9023(3) 0.2508(3) 0.9138(3)
C18_3 C 0.8887(3) 0.2874(5) 0.7651(4)
H10_3 H 0.8573 0.3004 0.7185
C1_4 C 0.0140(3) 0.7577(3) 0.4029(3)
C3_4 C 0.1435(3) 0.7250(4) 0.3430(4)
H1_4 H 0.1966 0.7174 0.3504
C15_4 C 0.0312(3) 0.7193(4) 0.2537(4)
H8_4 H 0.0102 0.7091 0.1997
C16_4 C 0.0977(3) 0.7492(3) 0.4138(3)
C17_4 C 0.0092(4) 0.7959(4) 0.5537(3)
C18_4 C 0.1113(3) 0.7126(5) 0.2651(4)
H10_4 H 0.1427 0.6996 0.2185
C20_4 C 0.0903(4) 0.7869(4) 0.5582(4)
H12_4 H 0.1149 0.7978 0.6102
C4_4 C 0.7439(3) 0.0840(3) 0.0816(3)
C6_4 C 0.7329(3) 0.0239(3) 0.1437(3)
C10_4 C 0.7004(4) 0.0469(3) 0.2247(3)
H5_4 H 0.6916 0.0096 0.2670
C12_4 C 0.6827(3) 0.1213(3) 0.2404(3)
H6_4 H 0.6597 0.1357 0.2922
C19_4 C 0.7000(3) 0.1787(3) 0.1753(3)
H11_4 H 0.6905 0.2308 0.1874
O1_4 O 0.84627(19) 0.7507(2) 0.3579(2)
O2_4 O 0.8764(2) 0.7466(3) 0.2216(2)
C2_4 C 0.8972(3) 0.7470(4) 0.2990(3)
O3_4 O 0.7646(2) 0.8905(2) 0.2612(2)
C5_4 C 0.9717(3) 0.7822(4) 0.4753(4)
H2_4 H 0.9182 0.7893 0.4710
O4_4 O 0.7262(2) 0.81372(19) 0.1565(2)
C8_4 C 0.7458(4) 0.8799(3) 0.1846(3)
C11_4 C 0.7489(3) 0.9454(3) 0.1198(3)
C13_4 C 0.9814(3) 0.7409(3) 0.3208(3)
C14_4 C 0.7739(4) 0.9289(3) 0.0377(3)
H7_4 H 0.7842 0.8777 0.0223
H9_3 H 0.9810 0.8108 0.6020
H9_4 H 0.0190 0.1892 0.1020
C9_4 C 0.7703(4) 0.0640(3) 0.9972(3)
H4_4 H 0.7781 0.1025 0.9561
C7_4 C 0.7839(4) 0.9877(4) 0.9775(3)
H3_4 H 0.8004 0.9749 0.9222
C9_5 C 0.0640(3) 0.7703(4) 0.0028(3)
H4_5 H 0.1025 0.7781 0.0439
N2_3 N 0.1599(2) 0.7292(3) 0.9013(3)
C4_5 C 0.0840(3) 0.7439(3) 0.9184(3)
C6_5 C 0.0239(3) 0.7329(3) 0.8563(3)
C10_5 C 0.0469(3) 0.7004(4) 0.7753(3)
H5_5 H 0.0096 0.6916 0.7330
C12_5 C 0.1213(3) 0.6827(3) 0.7596(3)
H6_5 H 0.1357 0.6597 0.7078
C19_5 C 0.1787(3) 0.7000(3) 0.8247(3)
H11_5 H 0.2308 0.6905 0.8126
Co2_2 Co 0.25497(4) 0.74568(4) 0.98318(4)
N1_3 N 0.7634(3) 0.1341(2) 0.5087(3)
C1_5 C 0.7577(3) 0.0140(3) 0.5971(3)
C3_5 C 0.7250(4) 0.1435(3) 0.6570(4)
H1_5 H 0.7174 0.1966 0.6496
C15_5 C 0.7193(4) 0.0312(3) 0.7463(4)
H8_5 H 0.7091 0.0102 0.8003
C16_5 C 0.7492(3) 0.0977(3) 0.5862(3)
C17_5 C 0.7959(4) 0.0092(4) 0.4463(3)
C18_5 C 0.7126(5) 0.1113(3) 0.7349(4)
H10_5 H 0.6996 0.1427 0.7815
C20_5 C 0.7869(4) 0.0903(4) 0.4418(4)
H12_5 H 0.7978 0.1149 0.3898
Co3_2 Co 0.74503(4) 0.25432(4) 0.48318(4)
Co1_3 Co 0.75432(4) 0.75497(4) 0.73318(4)
O1_5 O 0.7507(2) 0.84627(19) 0.6421(2)
O2_5 O 0.7466(3) 0.8764(2) 0.7784(2)
C2_5 C 0.7470(4) 0.8972(3) 0.7010(3)
O3_5 O 0.8905(2) 0.7646(2) 0.7388(2)
C5_5 C 0.7822(4) 0.9717(3) 0.5247(4)
H2_5 H 0.7893 0.9182 0.5290
O4_5 O 0.81372(19) 0.7262(2) 0.8435(2)
C8_5 C 0.8799(3) 0.7458(4) 0.8154(3)
C11_5 C 0.9454(3) 0.7489(3) 0.8802(3)
C13_5 C 0.7409(3) 0.9814(3) 0.6792(3)
C14_5 C 0.9289(3) 0.7739(4) 0.9623(3)
H7_5 H 0.8777 0.7842 0.9777
H9_5 H 0.8108 0.9810 0.3980
N3_3 N 0.6341(2) 0.7366(3) 0.7587(3)
N4_3 N 0.7708(3) 0.6599(2) 0.6513(3)
Co1_4 Co 0.24568(4) 0.24503(4) 0.23318(4)
O1_6 O 0.2493(2) 0.15373(19) 0.1421(2)
O2_6 O 0.2534(3) 0.1236(2) 0.2784(2)
C2_6 C 0.2530(4) 0.1028(3) 0.2010(3)
O3_6 O 0.1095(2) 0.2354(2) 0.2388(2)
C5_6 C 0.2178(4) 0.0283(3) 0.0247(4)
H2_6 H 0.2107 0.0818 0.0290
O4_6 O 0.18628(19) 0.2738(2) 0.3435(2)
C7_5 C 0.0123(4) 0.2161(4) 0.5225(3)
H3_5 H 0.0251 0.1996 0.5778
C8_6 C 0.1201(3) 0.2542(4) 0.3154(3)
C11_6 C 0.0546(3) 0.2511(3) 0.3802(3)
C13_6 C 0.2591(3) 0.0186(3) 0.1792(3)
C14_6 C 0.0711(3) 0.2261(4) 0.4623(3)
H7_6 H 0.1223 0.2158 0.4777
N3_4 N 0.3659(2) 0.2634(3) 0.2587(3)
N4_4 N 0.2292(3) 0.3401(2) 0.1513(3)
N1_4 N 0.2366(3) 0.8659(2) 0.0087(3)
C1_6 C 0.2423(3) 0.9860(3) 0.0971(3)
C3_6 C 0.2750(4) 0.8565(3) 0.1570(4)
H1_6 H 0.2826 0.8034 0.1496
C15_6 C 0.2807(4) 0.9688(3) 0.2463(4)
H8_6 H 0.2909 0.9898 0.3003
C16_6 C 0.2508(3) 0.9023(3) 0.0862(3)
C18_6 C 0.2874(5) 0.8887(3) 0.2349(4)
H10_6 H 0.3004 0.8573 0.2815
C17_6 C 0.2041(4) 0.9908(4) 0.9463(3)
C20_6 C 0.2131(4) 0.9097(4) 0.9418(4)
H12_6 H 0.2022 0.8851 0.8898
N2_4 N 0.8401(2) 0.2708(3) 0.4013(3)
C4_6 C 0.9160(3) 0.2561(3) 0.4184(3)
C6_6 C 0.9761(3) 0.2671(3) 0.3563(3)
C9_6 C 0.9360(3) 0.2297(4) 0.5028(3)
H4_6 H 0.8975 0.2219 0.5439
C10_6 C 0.9531(3) 0.2996(4) 0.2753(3)
H5_6 H 0.9904 0.3084 0.2330
C12_6 C 0.8787(3) 0.3173(3) 0.2596(3)
H6_6 H 0.8643 0.3403 0.2078
C19_6 C 0.8213(3) 0.3000(3) 0.3247(3)
H11_6 H 0.7692 0.3095 0.3126
O2_7 O 0.3764(2) 0.7534(3) 0.0284(2)
C4_7 C 0.2439(3) 0.4160(3) 0.1684(3)
O4_7 O 0.2262(2) 0.68628(19) 0.0935(2)
C6_7 C 0.2329(3) 0.4761(3) 0.1063(3)
C7_6 C 0.2839(4) 0.5123(4) 0.2725(3)
H3_6 H 0.3004 0.5251 0.3278
C8_7 C 0.2458(4) 0.6201(3) 0.0654(3)
C9_7 C 0.2703(4) 0.4360(3) 0.2528(3)
H4_7 H 0.2781 0.3975 0.2939
C10_7 C 0.2004(4) 0.4531(3) 0.0253(3)
C11_7 C 0.2489(3) 0.5546(3) 0.1302(3)
C12_7 C 0.1827(3) 0.3787(3) 0.0096(3)
C14_7 C 0.2739(4) 0.5711(3) 0.2123(3)
H7_7 H 0.2842 0.6223 0.2277
H8_7 H 0.5102 0.7909 0.0503
H10_7 H 0.6427 0.8004 0.0315
C19_7 C 0.2000(3) 0.3213(3) 0.0747(3)
H11_7 H 0.1905 0.2692 0.0626
O1_7 O 0.34627(19) 0.7493(2) 0.8921(2)
C1_7 C 0.5140(3) 0.7423(3) 0.8471(3)
C2_7 C 0.3972(3) 0.7530(4) 0.9510(3)
O3_7 O 0.2646(2) 0.6095(2) 0.9888(2)
C3_7 C 0.6435(3) 0.7750(4) 0.9070(4)
H1_7 H 0.6966 0.7826 0.8996
C5_7 C 0.4717(3) 0.7178(4) 0.7747(4)
H2_7 H 0.4182 0.7107 0.7790
H5_7 H 0.1916 0.4904 0.9830
H6_7 H 0.1597 0.3643 0.9578
C13_7 C 0.4814(3) 0.7591(3) 0.9292(3)
C15_7 C 0.5312(3) 0.7807(4) 0.9963(4)
C16_7 C 0.5977(3) 0.7508(3) 0.8362(3)
C17_7 C 0.5092(4) 0.7041(4) 0.6963(3)
H9_6 H 0.4810 0.6892 0.6480
C18_7 C 0.6113(3) 0.7874(5) 0.9849(4)
C20_7 C 0.5903(4) 0.7131(4) 0.6918(4)
H12_7 H 0.6149 0.7022 0.6398
O1_8 O 0.65373(19) 0.2507(2) 0.3921(2)
O2_8 O 0.6236(2) 0.2466(3) 0.5284(2)
C1_8 C 0.4860(3) 0.2577(3) 0.3471(3)
C2_8 C 0.6028(3) 0.2470(4) 0.4510(3)
O3_8 O 0.7354(2) 0.3905(2) 0.4888(2)
C3_8 C 0.3565(3) 0.2250(4) 0.4070(4)
H1_8 H 0.3034 0.2174 0.3996
C4_8 C 0.7561(3) 0.5840(3) 0.6684(3)
C5_8 C 0.5283(3) 0.2822(4) 0.2747(4)
H2_8 H 0.5818 0.2893 0.2790
O4_8 O 0.7738(2) 0.31372(19) 0.5935(2)
C6_8 C 0.7671(3) 0.5239(3) 0.6063(3)
C7_7 C 0.7161(4) 0.4877(4) 0.7725(3)
H3_7 H 0.6996 0.4749 0.8278
C8_8 C 0.7542(4) 0.3799(3) 0.5654(3)
C9_8 C 0.7297(4) 0.5640(3) 0.7528(3)
H4_8 H 0.7219 0.6025 0.7939
C10_8 C 0.7996(4) 0.5469(3) 0.5253(3)
H5_8 H 0.8084 0.5096 0.4830
C11_8 C 0.7511(3) 0.4454(3) 0.6302(3)
C12_8 C 0.8173(3) 0.6213(3) 0.5096(3)
H6_8 H 0.8403 0.6357 0.4578
C13_8 C 0.5186(3) 0.2409(3) 0.4292(3)
C14_8 C 0.7261(4) 0.4289(3) 0.7123(3)
H7_8 H 0.7158 0.3777 0.7277
C15_8 C 0.4688(3) 0.2193(4) 0.4963(4)
H8_8 H 0.4898 0.2091 0.5503
C16_8 C 0.4023(3) 0.2492(3) 0.3362(3)
C17_8 C 0.4908(4) 0.2959(4) 0.1963(3)
H9_7 H 0.5190 0.3108 0.1480
C18_8 C 0.3887(3) 0.2126(5) 0.4849(4)
H10_8 H 0.3573 0.1996 0.5315
C19_8 C 0.8000(3) 0.6787(3) 0.5747(3)
H11_8 H 0.8095 0.7308 0.5626
C20_8 C 0.4097(4) 0.2869(4) 0.1918(4)
H12_8 H 0.3851 0.2978 0.1398
C7_8 C 0.9877(4) 0.7839(4) 0.0225(3)
H3_8 H 0.9749 0.8004 0.0778
H9_8 H 0.1892 0.0190 0.8980
loop_
_geom_bond_atom_site_label_1
_geom_bond_atom_site_label_2
_geom_bond_site_symmetry_1
_geom_bond_site_symmetry_2
Co1 O1 1_555 1_555
N1 C16 1_555 1_555
O1 C2 1_555 1_555
C1 C5 1_555 1_555
O3 Co1 1_555 1_555
C3 H1 1_555 1_555
C5 H2 1_555 1_555
C13 C1 1_555 1_555
C15 C13 1_555 1_555
C16 C1 1_555 1_555
C17 C5 1_555 1_555
H9 C17 1_555 1_555
C18 C3 1_555 1_555
C20 N1 1_555 1_555
H12 C20 1_555 1_555
Co3 N1 1_555 1_555
N4 Co1 1_555 1_555
C2 C13 1_555 1_555
C3 C16 1_555 1_555
C15 C18 1_555 1_555
C17 C20 1_555 1_555
N2 C4 1_555 1_555
C4 C6 1_555 1_555
C6 C10 1_555 1_555
C7 H3 1_555 1_555
C9 C4 1_555 1_555
H4 C9 1_555 1_555
C11 C6 1_555 1_555
C12 C10 1_555 1_555
C14 C7 1_555 1_555
H7 C14 1_555 1_555
C19 N2 1_555 1_555
H11 C19 1_555 1_555
Co2 N2 1_555 1_555
O4 C8 1_555 1_555
C7 C9 1_555 1_555
C8 C11 1_555 1_555
C11 C14 1_555 1_555
C12 C19 1_555 1_555
Co1_2 O1_2 1_555 1_555
N1_2 C16_2 1_555 1_555
O1_2 C2_2 1_555 1_555
O2_2 Co1_2 1_555 1_555
C1_2 C5_2 1_555 1_555
C2_2 O2_2 1_555 1_555
O3_2 Co1_2 1_555 1_555
N2_2 C4_2 1_555 1_555
C3_2 H1_2 1_555 1_555
C4_2 C6_2 1_555 1_555
C5_2 H2_2 1_555 1_555
O4_2 Co1_2 1_555 1_555
C6_2 C10_2 1_555 1_555
C7_2 H3_2 1_555 1_555
C8_2 O3_2 1_555 1_555
C9_2 C4_2 1_555 1_555
H4_2 C9_2 1_555 1_555
C10_2 H5_2 1_555 1_555
C11_2 C6_2 1_555 1_555
C12_2 C10_2 1_555 1_555
H6_2 C12_2 1_555 1_555
C13_2 C1_2 1_555 1_555
C14_2 C7_2 1_555 1_555
H7_2 C14_2 1_555 1_555
C15_2 C13_2 1_555 1_555
H8_2 C15_2 1_555 1_555
C16_2 C1_2 1_555 1_555
C17_2 C5_2 1_555 1_555
H9_2 C17_2 1_555 1_555
C18_2 C3_2 1_555 1_555
H10_2 C18_2 1_555 1_555
C19_2 N2_2 1_555 1_555
H11_2 C19_2 1_555 1_555
C20_2 N1_2 1_555 1_555
H12_2 C20_2 1_555 1_555
Co3 N2_2 1_555 1_555
Co2 N1_2 1_555 1_555
N3_2 Co1_2 1_555 1_555
N4_2 Co1_2 1_555 1_555
C2_2 C13_2 1_555 1_555
C3_2 C16_2 1_555 1_555
O4_2 C8_2 1_555 1_555
C7_2 C9_2 1_555 1_555
C8_2 C11_2 1_555 1_555
C11_2 C14_2 1_555 1_555
C12_2 C19_2 1_555 1_555
C15_2 C18_2 1_555 1_555
C17_2 C20_2 1_555 1_555
Co2 O1_3 1_555 1_555
O1_3 C2_3 1_555 1_555
O2_3 Co2 1_555 1_555
C2_3 O2_3 1_555 1_555
O3_3 Co2 1_555 1_555
C5_3 H2_3 1_555 1_555
O4_3 Co2 1_555 1_555
C7_3 H3_3 1_555 1_555
C8_3 O3_3 1_555 1_555
C14_3 C7_3 1_555 1_555
H7_3 C14_3 1_555 1_555
C2_3 C13_3 1_555 1_555
O4_3 C8_3 1_555 1_555
C8_3 C11_3 1_555 1_555
C11_3 C14_3 1_555 1_555
N4_2 C4_3 1_555 1_555
C4_3 C6_3 1_555 1_555
C6_3 C10_3 1_555 1_555
C9_3 C4_3 1_555 1_555
H4_3 C9_3 1_555 1_555
C10_3 H5_3 1_555 1_555
C12_3 C10_3 1_555 1_555
H6_3 C12_3 1_555 1_555
C19_3 N4_2 1_555 1_555
H11_3 C19_3 1_555 1_555
C12_3 C19_3 1_555 1_555
H12_3 C20_3 1_555 1_555
C17_3 C20_3 1_555 1_555
N3 C16_3 1_555 1_555
C3_3 H1_3 1_555 1_555
H8_3 C15_3 1_555 1_555
C16_3 C1_3 1_555 1_555
C18_3 C3_3 1_555 1_555
H10_3 C18_3 1_555 1_555
C3_3 C16_3 1_555 1_555
C15_3 C18_3 1_555 1_555
N3_2 C16_4 1_555 1_555
C3_4 H1_4 1_555 1_555
H8_4 C15_4 1_555 1_555
C16_4 C1_4 1_555 1_555
C18_4 C3_4 1_555 1_555
H10_4 C18_4 1_555 1_555
C20_4 N3_2 1_555 1_555
H12_4 C20_4 1_555 1_555
C3_4 C16_4 1_555 1_555
C15_4 C18_4 1_555 1_555
C17_4 C20_4 1_555 1_555
N4 C4_4 1_555 1_555
C4_4 C6_4 1_555 1_555
C6_4 C10_4 1_555 1_555
C10_4 H5_4 1_555 1_555
C12_4 C10_4 1_555 1_555
H6_4 C12_4 1_555 1_555
C19_4 N4 1_555 1_555
H11_4 C19_4 1_555 1_555
C12_4 C19_4 1_555 1_555
Co3 O1_4 1_555 1_555
O1_4 C2_4 1_555 1_555
O2_4 Co3 1_555 1_555
C2_4 O2_4 1_555 1_555
O3_4 Co3 1_555 1_555
C5_4 H2_4 1_555 1_555
O4_4 Co3 1_555 1_555
C8_4 O3_4 1_555 1_555
H7_4 C14_4 1_555 1_555
C2_4 C13_4 1_555 1_555
O4_4 C8_4 1_555 1_555
C8_4 C11_4 1_555 1_555
C11_4 C14_4 1_555 1_555
H4_4 C9_4 1_555 1_555
C7_4 H3_4 1_555 1_555
H4_5 C9_5 1_555 1_555
N2_3 C4_5 1_555 1_555
C4_5 C6_5 1_555 1_555
C6_5 C10_5 1_555 1_555
C10_5 H5_5 1_555 1_555
C12_5 C10_5 1_555 1_555
H6_5 C12_5 1_555 1_555
C19_5 N2_3 1_555 1_555
H11_5 C19_5 1_555 1_555
Co2_2 N2_3 1_555 1_555
C12_5 C19_5 1_555 1_555
N1_3 C16_5 1_555 1_555
C3_5 H1_5 1_555 1_555
H8_5 C15_5 1_555 1_555
C16_5 C1_5 1_555 1_555
C18_5 C3_5 1_555 1_555
H10_5 C18_5 1_555 1_555
C20_5 N1_3 1_555 1_555
H12_5 C20_5 1_555 1_555
Co3_2 N1_3 1_555 1_555
C3_5 C16_5 1_555 1_555
C15_5 C18_5 1_555 1_555
C17_5 C20_5 1_555 1_555
Co1_3 O1_5 1_555 1_555
O1_5 C2_5 1_555 1_555
O2_5 Co1_3 1_555 1_555
C2_5 O2_5 1_555 1_555
O3_5 Co1_3 1_555 1_555
C5_5 H2_5 1_555 1_555
O4_5 Co1_3 1_555 1_555
C8_5 O3_5 1_555 1_555
H7_5 C14_5 1_555 1_555
N3_3 Co1_3 1_555 1_555
N4_3 Co1_3 1_555 1_555
C2_5 C13_5 1_555 1_555
O4_5 C8_5 1_555 1_555
C8_5 C11_5 1_555 1_555
C11_5 C14_5 1_555 1_555
Co1_4 O1_6 1_555 1_555
O1_6 C2_6 1_555 1_555
O2_6 Co1_4 1_555 1_555
C2_6 O2_6 1_555 1_555
O3_6 Co1_4 1_555 1_555
C5_6 H2_6 1_555 1_555
O4_6 Co1_4 1_555 1_555
C7_5 H3_5 1_555 1_555
C8_6 O3_6 1_555 1_555
C14_6 C7_5 1_555 1_555
H7_6 C14_6 1_555 1_555
N3_4 Co1_4 1_555 1_555
N4_4 Co1_4 1_555 1_555
C2_6 C13_6 1_555 1_555
O4_6 C8_6 1_555 1_555
C8_6 C11_6 1_555 1_555
C11_6 C14_6 1_555 1_555
N1_4 C16_6 1_555 1_555
C3_6 H1_6 1_555 1_555
H8_6 C15_6 1_555 1_555
C16_6 C1_6 1_555 1_555
C18_6 C3_6 1_555 1_555
H10_6 C18_6 1_555 1_555
C3_6 C16_6 1_555 1_555
C15_6 C18_6 1_555 1_555
H12_6 C20_6 1_555 1_555
C17_6 C20_6 1_555 1_555
N2_4 C4_6 1_555 1_555
C4_6 C6_6 1_555 1_555
C6_6 C10_6 1_555 1_555
C9_6 C4_6 1_555 1_555
H4_6 C9_6 1_555 1_555
C10_6 H5_6 1_555 1_555
C12_6 C10_6 1_555 1_555
H6_6 C12_6 1_555 1_555
C19_6 N2_4 1_555 1_555
H11_6 C19_6 1_555 1_555
Co3_2 N2_4 1_555 1_555
C12_6 C19_6 1_555 1_555
N4_4 C4_7 1_555 1_555
C4_7 C6_7 1_555 1_555
C6_7 C10_7 1_555 1_555
C7_6 H3_6 1_555 1_555
C9_7 C4_7 1_555 1_555
H4_7 C9_7 1_555 1_555
C11_7 C6_7 1_555 1_555
C12_7 C10_7 1_555 1_555
C14_7 C7_6 1_555 1_555
H7_7 C14_7 1_555 1_555
C19_7 N4_4 1_555 1_555
H11_7 C19_7 1_555 1_555
O4_7 C8_7 1_555 1_555
C7_6 C9_7 1_555 1_555
C8_7 C11_7 1_555 1_555
C11_7 C14_7 1_555 1_555
C12_7 C19_7 1_555 1_555
Co2_2 O1_7 1_555 1_555
N3_3 C16_7 1_555 1_555
O1_7 C2_7 1_555 1_555
C1_7 C5_7 1_555 1_555
O3_7 Co2_2 1_555 1_555
C3_7 H1_7 1_555 1_555
C5_7 H2_7 1_555 1_555
C13_7 C1_7 1_555 1_555
C15_7 C13_7 1_555 1_555
C16_7 C1_7 1_555 1_555
C17_7 C5_7 1_555 1_555
H9_6 C17_7 1_555 1_555
C18_7 C3_7 1_555 1_555
C20_7 N3_3 1_555 1_555
H12_7 C20_7 1_555 1_555
C2_7 C13_7 1_555 1_555
C3_7 C16_7 1_555 1_555
C15_7 C18_7 1_555 1_555
C17_7 C20_7 1_555 1_555
Co3_2 O1_8 1_555 1_555
N3_4 C16_8 1_555 1_555
O1_8 C2_8 1_555 1_555
O2_8 Co3_2 1_555 1_555
C1_8 C5_8 1_555 1_555
C2_8 O2_8 1_555 1_555
O3_8 Co3_2 1_555 1_555
N4_3 C4_8 1_555 1_555
C3_8 H1_8 1_555 1_555
C4_8 C6_8 1_555 1_555
C5_8 H2_8 1_555 1_555
O4_8 Co3_2 1_555 1_555
C6_8 C10_8 1_555 1_555
C7_7 H3_7 1_555 1_555
C8_8 O3_8 1_555 1_555
C9_8 C4_8 1_555 1_555
H4_8 C9_8 1_555 1_555
C10_8 H5_8 1_555 1_555
C11_8 C6_8 1_555 1_555
C12_8 C10_8 1_555 1_555
H6_8 C12_8 1_555 1_555
C13_8 C1_8 1_555 1_555
C14_8 C7_7 1_555 1_555
H7_8 C14_8 1_555 1_555
C15_8 C13_8 1_555 1_555
H8_8 C15_8 1_555 1_555
C16_8 C1_8 1_555 1_555
C17_8 C5_8 1_555 1_555
H9_7 C17_8 1_555 1_555
C18_8 C3_8 1_555 1_555
H10_8 C18_8 1_555 1_555
C19_8 N4_3 1_555 1_555
H11_8 C19_8 1_555 1_555
C20_8 N3_4 1_555 1_555
H12_8 C20_8 1_555 1_555
C2_8 C13_8 1_555 1_555
C3_8 C16_8 1_555 1_555
O4_8 C8_8 1_555 1_555
C7_7 C9_8 1_555 1_555
C8_8 C11_8 1_555 1_555
C11_8 C14_8 1_555 1_555
C12_8 C19_8 1_555 1_555
C15_8 C18_8 1_555 1_555
C17_8 C20_8 1_555 1_555
C7_8 H3_8 1_555 1_555

#END
