
###############################################################################
#
# This file contains modified crystal structure data generated from the
# MOF subset of the Cambridge Structural Database (CSD) v543 
# hosted by the Cambridge Crystallographic Data Centre (CCDC).
#
# This work is licensed under the Creative Commons
# Attribution-NonCommercial-ShareAlike 4.0 International License.
# To view a copy of this license, visit
# http://creativecommons.org/licenses/by-nc-sa/4.0/
# or send a letter to
# Creative Commons, PO Box 1866, Mountain View, CA 94042, USA.
#
# CIF created using the CSD Python API on 29 September 2022
# The structure has been converted into the P1 space group
# The structure has a 3D framework
# The original CSD entry ARAZOL is in the triclinic crystal system
# The framework has been calculated to contain at least 10.0% void space
# The void calculation uses a probe of radius 1.32A, grid spacing 0.4
#
###############################################################################

data_ARAZOL
_chemical_formula_moiety         '(C100 H64 Cd2 N12 O8)n'
_symmetry_cell_setting           triclinic
_symmetry_space_group_name_H-M   'P 1'
_symmetry_Int_Tables_number      1
_space_group_name_Hall           'P 1'
loop_
_symmetry_equiv_pos_site_id
_symmetry_equiv_pos_as_xyz
1 x,y,z
_cell_length_a                   14.5402(14)
_cell_length_b                   15.0699(13)
_cell_length_c                   15.3074(15)
_cell_angle_alpha                96.787(3)
_cell_angle_beta                 105.180(3)
_cell_angle_gamma                116.708(3)
_cell_volume                     2781.42
loop_
_atom_site_label
_atom_site_type_symbol
_atom_site_fract_x
_atom_site_fract_y
_atom_site_fract_z
_atom_site_U_iso_or_equiv
_atom_site_thermal_displace_type
H27 H 0.057747 0.052256 0.658769 0.0920 Uiso
N8 N 0.0078(3) 0.2640(2) 0.3294(2) 0.0348 Uani
C52 C 0.0231(3) 0.3634(3) 0.2314(3) 0.0333 Uani
C53 C 0.0020(4) 0.0391(3) 0.4732(3) 0.0452 Uani
C54 C 0.0489(3) 0.4029(3) 0.1574(3) 0.0445 Uani
H34 H 0.036120 0.456492 0.141645 0.0540 Uiso
C55 C 0.0418(3) 0.2836(3) 0.2538(3) 0.0365 Uani
C56 C 0.0073(3) 0.1884(3) 0.3780(3) 0.0397 Uani
C57 C 0.0456(4) 0.2152(3) 0.4742(3) 0.0478 Uani
H35 H 0.074313 0.284337 0.508652 0.0580 Uiso
C58 C 0.0425(4) 0.1412(3) 0.5218(3) 0.0499 Uani
H36 H 0.068582 0.160486 0.588654 0.0600 Uiso
C59 C 0.0879(4) 0.2415(3) 0.2053(3) 0.0544 Uani
H37 H 0.101338 0.188350 0.221337 0.0650 Uiso
C60 C 0.0936(4) 0.3609(3) 0.1083(3) 0.0581 Uani
H38 H 0.111534 0.385850 0.057408 0.0700 Uiso
C63 C 0.1133(4) 0.2818(4) 0.1318(4) 0.0661 Uani
H41 H 0.144742 0.255126 0.096645 0.0790 Uiso
H49 H 0.046892 0.858086 0.189180 0.0890 Uiso
C76 C 0.0434(4) 0.9414(4) 0.0941(4) 0.0735 Uani
H50 H 0.120214 0.974917 0.105768 0.0880 Uiso
O5 O 0.0685(2) 0.64573(18) 0.30191(19) 0.0382 Uani
O6 O 0.0341(2) 0.64539(18) 0.43474(19) 0.0430 Uani
C77 C 0.1825(3) 0.8010(3) 0.4276(3) 0.0305 Uani
C84 C 0.0890(3) 0.6898(3) 0.3865(3) 0.0330 Uani
C85 C 0.2179(3) 0.8533(3) 0.5212(3) 0.0375 Uani
H53 H 0.180134 0.820191 0.560165 0.0450 Uiso
C86 C 0.2371(3) 0.8517(3) 0.3716(3) 0.0349 Uani
H54 H 0.212763 0.817902 0.306875 0.0420 Uiso
C92 C 0.3078(3) 0.9533(3) 0.5594(3) 0.0360 Uani
H57 H 0.330636 0.987583 0.623802 0.0430 Uiso
C97 C 0.3267(3) 0.9509(3) 0.4085(3) 0.0424 Uani
H62 H 0.363216 0.983993 0.368883 0.0510 Uiso
O7 O 0.8834(2) 0.4808(2) 0.11894(19) 0.0475 Uani
O8 O 0.7378(3) 0.3565(2) 0.1357(2) 0.0589 Uani
C100 C 0.7902(4) 0.3987(3) 0.0861(3) 0.0420 Uani
Cd7 Cd 0.90166(2) 0.50167(2) 0.27765(2) 0.0269 Uani
H20 H 0.182569 0.071774 0.028894 0.0570 Uiso
N11 N 0.5081(2) 0.1428(2) 0.6389(2) 0.0299 Uani
C78 C 0.6677(3) 0.3208(3) 0.4689(2) 0.0286 Uani
C79 C 0.6076(3) 0.2616(3) 0.5272(3) 0.0292 Uani
C80 C 0.4650(3) 0.1087(3) 0.5450(3) 0.0285 Uani
C81 C 0.5122(3) 0.1659(3) 0.4877(3) 0.0297 Uani
H51 H 0.478766 0.139236 0.421190 0.0350 Uiso
C82 C 0.6511(3) 0.2973(3) 0.6251(3) 0.0335 Uani
H52 H 0.715196 0.363182 0.655321 0.0400 Uiso
C83 C 0.6005(3) 0.2364(3) 0.6788(3) 0.0307 Uani
C87 C 0.3641(3) 0.0030(3) 0.5033(3) 0.0304 Uani
C88 C 0.7408(3) 0.3519(3) 0.9802(3) 0.0382 Uani
C89 C 0.6498(3) 0.2726(3) 0.7841(3) 0.0321 Uani
C90 C 0.7628(3) 0.3410(3) 0.8301(3) 0.0405 Uani
H55 H 0.809686 0.360808 0.794406 0.0480 Uiso
C91 C 0.8070(4) 0.3803(3) 0.9272(3) 0.0416 Uani
H56 H 0.883764 0.427320 0.957360 0.0500 Uiso
C93 C 0.6317(4) 0.2800(3) 0.9365(3) 0.0447 Uani
H58 H 0.586884 0.256828 0.973428 0.0530 Uiso
C94 C 0.8133(4) 0.4667(3) 0.4503(3) 0.0537 Uani
H59 H 0.874309 0.534766 0.478453 0.0640 Uiso
C95 C 0.5848(3) 0.2398(3) 0.8392(3) 0.0389 Uani
H60 H 0.508566 0.190185 0.810386 0.0470 Uiso
C96 C 0.7535(4) 0.4199(3) 0.5048(3) 0.0582 Uani
H61 H 0.772251 0.456848 0.567350 0.0700 Uiso
C98 C 0.7064(3) 0.3272(3) 0.3264(3) 0.0501 Uani
H63 H 0.687672 0.293170 0.262768 0.0610 Uiso
C99 C 0.6435(3) 0.2739(3) 0.3767(3) 0.0505 Uani
H64 H 0.583951 0.205204 0.347654 0.0600 Uiso
N12 N 0.7914(2) 0.4233(2) 0.3623(2) 0.0282 Uani
N7 N 0.9777(2) 0.3909(2) 0.2925(2) 0.0295 Uani
C51 C 0.9702(3) 0.3300(3) 0.3485(3) 0.0305 Uani
H33 H 0.941442 0.331654 0.397367 0.0370 Uiso
C61 C 0.9676(5) 0.0158(3) 0.3763(3) 0.0763 Uani
C62 C 0.9691(5) 0.0885(3) 0.3292(3) 0.0745 Uani
H40 H 0.943553 0.069539 0.262344 0.0890 Uiso
N9 N 0.8438(3) 0.7436(2) 0.1747(2) 0.0435 Uani
N10 N 0.8302(3) 0.6152(2) 0.2406(2) 0.0416 Uani
C64 C 0.7722(3) 0.7322(3) 0.2235(3) 0.0401 Uani
C65 C 0.7645(3) 0.6514(3) 0.2638(3) 0.0383 Uani
C66 C 0.8881(4) 0.8199(3) 0.1272(3) 0.0443 Uani
C67 C 0.8735(4) 0.6715(3) 0.1878(3) 0.0468 Uani
H42 H 0.921754 0.662559 0.160989 0.0560 Uiso
C68 C 0.9764(4) 0.9635(3) 0.0278(3) 0.0451 Uani
C69 C 0.8212(4) 0.8425(3) 0.0627(3) 0.0477 Uani
H43 H 0.744396 0.809025 0.051434 0.0570 Uiso
C70 C 0.8649(4) 0.9134(3) 0.0145(3) 0.0468 Uani
C71 C 0.7010(4) 0.6228(3) 0.3203(3) 0.0501 Uani
H45 H 0.692884 0.566934 0.346704 0.0600 Uiso
C72 C 0.7199(4) 0.7875(4) 0.2391(3) 0.0590 Uani
H46 H 0.725345 0.841693 0.210800 0.0710 Uiso
C73 C 0.6599(4) 0.7598(4) 0.2974(4) 0.0665 Uani
H47 H 0.624905 0.797003 0.311067 0.0800 Uiso
C74 C 0.6494(4) 0.6785(4) 0.3369(3) 0.0605 Uani
H48 H 0.606334 0.660723 0.375870 0.0720 Uiso
C75 C 0.9994(4) 0.8710(4) 0.1436(4) 0.0739 Uani
Cd1 Cd 0.09834(2) 0.49833(2) 0.72235(2) 0.0269 Uani
N2 N 0.0223(2) 0.6091(2) 0.7075(2) 0.0295 Uani
N4 N 0.1562(3) 0.2564(2) 0.8253(2) 0.0435 Uani
N5 N 0.1698(3) 0.3848(2) 0.7594(2) 0.0416 Uani
C4 C 0.0298(3) 0.6700(3) 0.6515(3) 0.0305 Uani
H1 H 0.058558 0.668346 0.602633 0.0370 Uiso
C22 C 0.2278(3) 0.2678(3) 0.7765(3) 0.0401 Uani
C24 C 0.2355(3) 0.3486(3) 0.7362(3) 0.0383 Uani
C27 C 0.1119(4) 0.1801(3) 0.8728(3) 0.0443 Uani
C30 C 0.1265(4) 0.3285(3) 0.8122(3) 0.0468 Uani
H14 H 0.078246 0.337441 0.839011 0.0560 Uiso
C32 C 0.0236(4) 0.0365(3) 0.9722(3) 0.0451 Uani
C36 C 0.1788(4) 0.1575(3) 0.9373(3) 0.0477 Uani
H19 H 0.255604 0.190975 0.948566 0.0570 Uiso
C37 C 0.1351(4) 0.0866(3) 0.9855(3) 0.0468 Uani
C39 C 0.2990(4) 0.3772(3) 0.6797(3) 0.0501 Uani
H22 H 0.307116 0.433066 0.653296 0.0600 Uiso
C41 C 0.2801(4) 0.2125(4) 0.7609(3) 0.0590 Uani
H24 H 0.274655 0.158307 0.789200 0.0710 Uiso
C43 C 0.3401(4) 0.2402(4) 0.7026(4) 0.0665 Uani
H26 H 0.375095 0.202997 0.688933 0.0800 Uiso
C44 C 0.0324(5) 0.9842(3) 0.6237(3) 0.0763 Uani
C45 C 0.3506(4) 0.3215(4) 0.6631(3) 0.0605 Uani
H28 H 0.393666 0.339277 0.624130 0.0720 Uiso
C46 C 0.0006(4) 0.1290(4) 0.8564(4) 0.0739 Uani
C47 C 0.0309(5) 0.9115(3) 0.6708(3) 0.0745 Uani
H30 H 0.056447 0.930461 0.737656 0.0890 Uiso
O9 O 0.1166(2) 0.5192(2) 0.88106(19) 0.0475 Uani
N14 N 0.2086(2) 0.5767(2) 0.6377(2) 0.0282 Uani
O11 O 0.2622(3) 0.6435(2) 0.8643(2) 0.0589 Uani
N1 N 0.4919(2) 0.8572(2) 0.3611(2) 0.0299 Uani
C2 C 0.3323(3) 0.6792(3) 0.5311(2) 0.0286 Uani
C3 C 0.3924(3) 0.7384(3) 0.4728(3) 0.0292 Uani
C5 C 0.5350(3) 0.8913(3) 0.4550(3) 0.0285 Uani
C6 C 0.4878(3) 0.8341(3) 0.5123(3) 0.0297 Uani
H2 H 0.521234 0.860764 0.578810 0.0350 Uiso
C8 C 0.3489(3) 0.7027(3) 0.3749(3) 0.0335 Uani
H3 H 0.284804 0.636818 0.344679 0.0400 Uiso
C9 C 0.3995(3) 0.7636(3) 0.3212(3) 0.0307 Uani
C13 C 0.6359(3) 0.9970(3) 0.4967(3) 0.0304 Uani
C16 C 0.2592(3) 0.6481(3) 0.0198(3) 0.0382 Uani
C17 C 0.3502(3) 0.7274(3) 0.2159(3) 0.0321 Uani
C19 C 0.2372(3) 0.6590(3) 0.1699(3) 0.0405 Uani
H7 H 0.190314 0.639192 0.205594 0.0480 Uiso
C20 C 0.1930(4) 0.6197(3) 0.0728(3) 0.0416 Uani
H8 H 0.116236 0.572680 0.042640 0.0500 Uiso
C25 C 0.3683(4) 0.7200(3) 0.0635(3) 0.0447 Uani
H10 H 0.413116 0.743172 0.026572 0.0530 Uiso
C26 C 0.1867(4) 0.5333(3) 0.5497(3) 0.0537 Uani
H11 H 0.125691 0.465234 0.521547 0.0640 Uiso
C28 C 0.4152(3) 0.7602(3) 0.1608(3) 0.0389 Uani
H12 H 0.491434 0.809815 0.189614 0.0470 Uiso
C29 C 0.2465(4) 0.5801(3) 0.4952(3) 0.0582 Uani
H13 H 0.227749 0.543152 0.432650 0.0700 Uiso
C35 C 0.2936(3) 0.6728(3) 0.6736(3) 0.0501 Uani
H18 H 0.312328 0.706830 0.737232 0.0610 Uiso
C38 C 0.3565(3) 0.7261(3) 0.6233(3) 0.0505 Uani
H21 H 0.416049 0.794796 0.652346 0.0600 Uiso
H44 H 0.817431 0.928226 0.971106 0.0570 Uiso
C50 C 0.2098(4) 0.6013(3) 0.9139(3) 0.0420 Uani
O1 O 0.9315(2) 0.35427(18) 0.69809(19) 0.0382 Uani
O2 O 0.9659(2) 0.35461(18) 0.56526(19) 0.0430 Uani
N3 N 0.9922(3) 0.7360(2) 0.6706(2) 0.0348 Uani
C1 C 0.8175(3) 0.1990(3) 0.5724(3) 0.0305 Uani
C7 C 0.9769(3) 0.6366(3) 0.7686(3) 0.0333 Uani
C10 C 0.9110(3) 0.3102(3) 0.6135(3) 0.0330 Uani
C11 C 0.7821(3) 0.1467(3) 0.4788(3) 0.0375 Uani
H4 H 0.819866 0.179809 0.439835 0.0450 Uiso
C12 C 0.7629(3) 0.1483(3) 0.6284(3) 0.0349 Uani
H5 H 0.787237 0.182098 0.693125 0.0420 Uiso
C14 C 0.9980(4) 0.9609(3) 0.5268(3) 0.0452 Uani
C15 C 0.9511(3) 0.5971(3) 0.8426(3) 0.0445 Uani
H6 H 0.963880 0.543508 0.858355 0.0540 Uiso
C18 C 0.9582(3) 0.7164(3) 0.7462(3) 0.0365 Uani
C21 C 0.9927(3) 0.8116(3) 0.6220(3) 0.0397 Uani
C23 C 0.6922(3) 0.0467(3) 0.4406(3) 0.0360 Uani
H9 H 0.669364 0.012417 0.376198 0.0430 Uiso
C31 C 0.9544(4) 0.7848(3) 0.5258(3) 0.0478 Uani
H15 H 0.925687 0.715663 0.491348 0.0580 Uiso
C33 C 0.6733(3) 0.0491(3) 0.5915(3) 0.0424 Uani
H16 H 0.636784 0.016007 0.631117 0.0510 Uiso
C34 C 0.9575(4) 0.8588(3) 0.4782(3) 0.0499 Uani
H17 H 0.931418 0.839514 0.411346 0.0600 Uiso
C40 C 0.9121(4) 0.7585(3) 0.7947(3) 0.0544 Uani
H23 H 0.898662 0.811650 0.778663 0.0650 Uiso
C42 C 0.9064(4) 0.6391(3) 0.8917(3) 0.0581 Uani
H25 H 0.888466 0.614150 0.942592 0.0700 Uiso
H29 H 0.953108 0.141914 0.810820 0.0890 Uiso
C48 C 0.8867(4) 0.7182(4) 0.8682(4) 0.0661 Uani
H31 H 0.855258 0.744874 0.903355 0.0790 Uiso
C49 C 0.9566(4) 0.0586(4) 0.9059(4) 0.0735 Uani
H32 H 0.879786 0.025083 0.894232 0.0880 Uiso
H39 H 0.942253 0.947744 0.341231 0.0920 Uiso
loop_
_atom_site_aniso_label
_atom_site_aniso_U_11
_atom_site_aniso_U_22
_atom_site_aniso_U_33
_atom_site_aniso_U_23
_atom_site_aniso_U_13
_atom_site_aniso_U_12
N8 0.037 0.0245 0.041 0.012 0.0094 0.0155
C52 0.032 0.028 0.039 0.0096 0.017 0.0119
C53 0.051 0.028 0.049 0.014 0.01 0.017
C54 0.056 0.031 0.056 0.023 0.036 0.018
C55 0.038 0.027 0.041 0.0104 0.014 0.0132
C56 0.046 0.029 0.04 0.016 0.008 0.018
C57 0.068 0.028 0.047 0.011 0.012 0.028
C58 0.063 0.035 0.037 0.007 0 0.023
C59 0.061 0.04 0.077 0.022 0.035 0.03
C60 0.077 0.052 0.065 0.023 0.05 0.033
C63 0.081 0.05 0.083 0.014 0.052 0.034
C76 0.056 0.087 0.08 0.065 0.022 0.029
O5 0.0396 0.0255 0.0375 0.0033 0.0162 0.0067
O6 0.0447 0.0252 0.0468 0.0108 0.0243 0.0031
C77 0.028 0.0232 0.03 0.0059 0.0075 0.0065
C84 0.03 0.025 0.037 0.0064 0.009 0.0102
C85 0.035 0.035 0.028 0.0101 0.0153 0.0035
C86 0.034 0.025 0.024 -0.0038 0.0088 0.0007
C92 0.035 0.026 0.027 0.0018 0.0127 -0.0003
C97 0.046 0.033 0.029 0.006 0.019 0.002
O7 0.053 0.0499 0.0305 0.0025 0.0046 0.0261
O8 0.072 0.067 0.0285 0.0119 0.0178 0.0279
C100 0.053 0.049 0.031 0.011 0.015 0.031
Cd7 0.03176 0.02089 0.02325 0.00735 0.01004 0.00879
N11 0.0275 0.0266 0.0221 0.001 0.0103 0.0033
C78 0.026 0.028 0.023 0.0066 0.0079 0.0071
C79 0.031 0.029 0.025 0.0091 0.0136 0.0107
C80 0.026 0.028 0.025 0.0062 0.0109 0.0077
C81 0.028 0.026 0.02 0.0039 0.0061 0.0033
C82 0.033 0.027 0.028 0.0059 0.0121 0.0048
C83 0.032 0.028 0.024 0.005 0.0122 0.0078
C87 0.028 0.0251 0.024 0.0024 0.0068 0.0043
C88 0.047 0.04 0.026 0.0055 0.01 0.023
C89 0.038 0.0238 0.026 0.0045 0.0122 0.0089
C90 0.038 0.039 0.026 0.0055 0.01 0.006
C91 0.045 0.034 0.027 0.0061 0.006 0.009
C93 0.048 0.05 0.027 0.012 0.019 0.014
C94 0.066 0.027 0.034 -0.002 0.026 -0.006
C95 0.033 0.037 0.03 0.006 0.01 0.0057
C96 0.073 0.03 0.029 0 0.027 -0.011
C98 0.05 0.041 0.024 0.001 0.016 -0.005
C99 0.046 0.037 0.032 0.005 0.015 -0.008
N12 0.0344 0.0197 0.0207 0.0045 0.0099 0.006
N7 0.0318 0.0198 0.0341 0.0112 0.0113 0.0099
C51 0.038 0.0247 0.027 0.0109 0.0121 0.013
C61 0.132 0.029 0.042 0.009 0.003 0.035
C62 0.127 0.03 0.034 0.004 -0.004 0.032
N9 0.056 0.0371 0.05 0.0235 0.023 0.0283
N10 0.051 0.0387 0.048 0.0215 0.0257 0.0262
C64 0.04 0.044 0.041 0.014 0.015 0.024
C65 0.039 0.033 0.039 0.012 0.011 0.016
C66 0.061 0.04 0.049 0.027 0.028 0.031
C67 0.065 0.044 0.054 0.028 0.034 0.035
C68 0.058 0.041 0.048 0.024 0.025 0.028
C69 0.051 0.052 0.054 0.027 0.026 0.03
C70 0.065 0.052 0.049 0.031 0.029 0.041
C71 0.044 0.051 0.054 0.02 0.022 0.019
C72 0.076 0.074 0.055 0.03 0.027 0.055
C73 0.07 0.093 0.068 0.034 0.034 0.058
C74 0.048 0.084 0.058 0.026 0.027 0.034
C75 0.056 0.086 0.093 0.069 0.026 0.036
Cd1 0.03176 0.02089 0.02325 0.00735 0.01004 0.00879
N2 0.0318 0.0198 0.0341 0.0112 0.0113 0.0099
N4 0.056 0.0371 0.05 0.0235 0.023 0.0283
N5 0.051 0.0387 0.048 0.0215 0.0257 0.0262
C4 0.038 0.0247 0.027 0.0109 0.0121 0.013
C22 0.04 0.044 0.041 0.014 0.015 0.024
C24 0.039 0.033 0.039 0.012 0.011 0.016
C27 0.061 0.04 0.049 0.027 0.028 0.031
C30 0.065 0.044 0.054 0.028 0.034 0.035
C32 0.058 0.041 0.048 0.024 0.025 0.028
C36 0.051 0.052 0.054 0.027 0.026 0.03
C37 0.065 0.052 0.049 0.031 0.029 0.041
C39 0.044 0.051 0.054 0.02 0.022 0.019
C41 0.076 0.074 0.055 0.03 0.027 0.055
C43 0.07 0.093 0.068 0.034 0.034 0.058
C44 0.132 0.029 0.042 0.009 0.003 0.035
C45 0.048 0.084 0.058 0.026 0.027 0.034
C46 0.056 0.086 0.093 0.069 0.026 0.036
C47 0.127 0.03 0.034 0.004 -0.004 0.032
O9 0.053 0.0499 0.0305 0.0025 0.0046 0.0261
N14 0.0344 0.0197 0.0207 0.0045 0.0099 0.006
O11 0.072 0.067 0.0285 0.0119 0.0178 0.0279
N1 0.0275 0.0266 0.0221 0.001 0.0103 0.0033
C2 0.026 0.028 0.023 0.0066 0.0079 0.0071
C3 0.031 0.029 0.025 0.0091 0.0136 0.0107
C5 0.026 0.028 0.025 0.0062 0.0109 0.0077
C6 0.028 0.026 0.02 0.0039 0.0061 0.0033
C8 0.033 0.027 0.028 0.0059 0.0121 0.0048
C9 0.032 0.028 0.024 0.005 0.0122 0.0078
C13 0.028 0.0251 0.024 0.0024 0.0068 0.0043
C16 0.047 0.04 0.026 0.0055 0.01 0.023
C17 0.038 0.0238 0.026 0.0045 0.0122 0.0089
C19 0.038 0.039 0.026 0.0055 0.01 0.006
C20 0.045 0.034 0.027 0.0061 0.006 0.009
C25 0.048 0.05 0.027 0.012 0.019 0.014
C26 0.066 0.027 0.034 -0.002 0.026 -0.006
C28 0.033 0.037 0.03 0.006 0.01 0.0057
C29 0.073 0.03 0.029 0 0.027 -0.011
C35 0.05 0.041 0.024 0.001 0.016 -0.005
C38 0.046 0.037 0.032 0.005 0.015 -0.008
C50 0.053 0.049 0.031 0.011 0.015 0.031
O1 0.0396 0.0255 0.0375 0.0033 0.0162 0.0067
O2 0.0447 0.0252 0.0468 0.0108 0.0243 0.0031
N3 0.037 0.0245 0.041 0.012 0.0094 0.0155
C1 0.028 0.0232 0.03 0.0059 0.0075 0.0065
C7 0.032 0.028 0.039 0.0096 0.017 0.0119
C10 0.03 0.025 0.037 0.0064 0.009 0.0102
C11 0.035 0.035 0.028 0.0101 0.0153 0.0035
C12 0.034 0.025 0.024 -0.0038 0.0088 0.0007
C14 0.051 0.028 0.049 0.014 0.01 0.017
C15 0.056 0.031 0.056 0.023 0.036 0.018
C18 0.038 0.027 0.041 0.0104 0.014 0.0132
C21 0.046 0.029 0.04 0.016 0.008 0.018
C23 0.035 0.026 0.027 0.0018 0.0127 -0.0003
C31 0.068 0.028 0.047 0.011 0.012 0.028
C33 0.046 0.033 0.029 0.006 0.019 0.002
C34 0.063 0.035 0.037 0.007 0 0.023
C40 0.061 0.04 0.077 0.022 0.035 0.03
C42 0.077 0.052 0.065 0.023 0.05 0.033
C48 0.081 0.05 0.083 0.014 0.052 0.034
C49 0.056 0.087 0.08 0.065 0.022 0.029
loop_
_geom_bond_atom_site_label_1
_geom_bond_atom_site_label_2
_geom_bond_site_symmetry_1
_geom_bond_site_symmetry_2
C54 C52 1_555 1_555
H34 C54 1_555 1_555
C55 N8 1_555 1_555
C56 N8 1_555 1_555
C57 C56 1_555 1_555
H35 C57 1_555 1_555
C58 C53 1_555 1_555
H36 C58 1_555 1_555
C59 C55 1_555 1_555
H37 C59 1_555 1_555
C60 C54 1_555 1_555
H38 C60 1_555 1_555
C63 C59 1_555 1_555
H41 C63 1_555 1_555
C52 C55 1_555 1_555
C57 C58 1_555 1_555
C60 C63 1_555 1_555
H50 C76 1_555 1_555
C77 C84 1_555 1_555
C84 O5 1_555 1_555
C85 C77 1_555 1_555
H53 C85 1_555 1_555
C86 C77 1_555 1_555
H54 C86 1_555 1_555
C92 C85 1_555 1_555
H57 C92 1_555 1_555
C97 C86 1_555 1_555
H62 C97 1_555 1_555
O6 C84 1_555 1_555
O7 C100 1_555 1_555
O8 C100 1_555 1_555
Cd7 O7 1_555 1_555
O8 Cd7 1_555 1_555
N11 C80 1_555 1_555
C78 C79 1_555 1_555
C79 C81 1_555 1_555
C80 C81 1_555 1_555
C81 H51 1_555 1_555
C82 C79 1_555 1_555
H52 C82 1_555 1_555
C83 N11 1_555 1_555
C87 C80 1_555 1_555
C88 C91 1_555 1_555
C89 C83 1_555 1_555
C90 C89 1_555 1_555
H55 C90 1_555 1_555
C91 C90 1_555 1_555
H56 C91 1_555 1_555
C93 C88 1_555 1_555
H58 C93 1_555 1_555
C94 H59 1_555 1_555
C95 C89 1_555 1_555
H60 C95 1_555 1_555
C96 C78 1_555 1_555
H61 C96 1_555 1_555
C98 H63 1_555 1_555
C99 C78 1_555 1_555
H64 C99 1_555 1_555
N12 C94 1_555 1_555
Cd7 N12 1_555 1_555
C82 C83 1_555 1_555
C93 C95 1_555 1_555
C94 C96 1_555 1_555
C98 C99 1_555 1_555
C98 N12 1_555 1_555
N7 C51 1_555 1_555
C51 H33 1_555 1_555
H40 C62 1_555 1_555
Cd7 N7 1_555 1_555
C61 C62 1_555 1_555
N9 C64 1_555 1_555
N10 C65 1_555 1_555
C64 C65 1_555 1_555
C65 C71 1_555 1_555
C66 N9 1_555 1_555
C67 N9 1_555 1_555
H42 C67 1_555 1_555
C69 C66 1_555 1_555
H43 C69 1_555 1_555
C70 C68 1_555 1_555
C71 H45 1_555 1_555
C72 C64 1_555 1_555
H46 C72 1_555 1_555
C73 C72 1_555 1_555
H47 C73 1_555 1_555
C74 C71 1_555 1_555
H48 C74 1_555 1_555
C75 C66 1_555 1_555
Cd7 N10 1_555 1_555
N10 C67 1_555 1_555
C69 C70 1_555 1_555
C73 C74 1_555 1_555
N2 Cd1 1_555 1_555
N4 C22 1_555 1_555
N5 Cd1 1_555 1_555
C4 N2 1_555 1_555
H1 C4 1_555 1_555
C22 C24 1_555 1_555
C24 N5 1_555 1_555
C27 N4 1_555 1_555
C30 N4 1_555 1_555
H14 C30 1_555 1_555
C32 C37 1_555 1_555
C36 C27 1_555 1_555
H19 C36 1_555 1_555
C37 C36 1_555 1_555
C39 C24 1_555 1_555
H22 C39 1_555 1_555
C41 C22 1_555 1_555
H24 C41 1_555 1_555
C43 C41 1_555 1_555
H26 C43 1_555 1_555
C45 C39 1_555 1_555
H28 C45 1_555 1_555
C46 C27 1_555 1_555
H30 C47 1_555 1_555
O9 Cd1 1_555 1_555
N14 Cd1 1_555 1_555
O11 Cd1 1_555 1_555
N5 C30 1_555 1_555
C43 C45 1_555 1_555
C44 C47 1_555 1_555
N1 C5 1_555 1_555
C2 C3 1_555 1_555
C3 C6 1_555 1_555
C5 C6 1_555 1_555
C6 H2 1_555 1_555
C8 C3 1_555 1_555
H3 C8 1_555 1_555
C9 N1 1_555 1_555
C13 C5 1_555 1_555
C16 C20 1_555 1_555
C17 C9 1_555 1_555
C19 C17 1_555 1_555
H7 C19 1_555 1_555
C20 C19 1_555 1_555
H8 C20 1_555 1_555
C25 C16 1_555 1_555
H10 C25 1_555 1_555
C26 H11 1_555 1_555
C28 C17 1_555 1_555
H12 C28 1_555 1_555
C29 C2 1_555 1_555
H13 C29 1_555 1_555
C35 H18 1_555 1_555
C38 C2 1_555 1_555
H21 C38 1_555 1_555
N14 C26 1_555 1_555
C8 C9 1_555 1_555
C25 C28 1_555 1_555
C26 C29 1_555 1_555
C35 C38 1_555 1_555
C35 N14 1_555 1_555
O9 C50 1_555 1_555
O11 C50 1_555 1_555
O1 C10 1_555 1_555
C1 C10 1_555 1_555
C10 O2 1_555 1_555
C11 C1 1_555 1_555
H4 C11 1_555 1_555
C12 C1 1_555 1_555
H5 C12 1_555 1_555
C14 C34 1_555 1_555
C15 C7 1_555 1_555
H6 C15 1_555 1_555
C18 N3 1_555 1_555
C21 N3 1_555 1_555
C23 C11 1_555 1_555
H9 C23 1_555 1_555
C31 C21 1_555 1_555
H15 C31 1_555 1_555
C33 C12 1_555 1_555
H16 C33 1_555 1_555
C34 C31 1_555 1_555
H17 C34 1_555 1_555
C40 C18 1_555 1_555
H23 C40 1_555 1_555
C42 C15 1_555 1_555
H25 C42 1_555 1_555
C48 C40 1_555 1_555
H31 C48 1_555 1_555
H32 C49 1_555 1_555
C7 C18 1_555 1_555
C42 C48 1_555 1_555

#END
