
###############################################################################
#
# This file contains modified crystal structure data generated from the
# MOF subset of the Cambridge Structural Database (CSD) v543 
# hosted by the Cambridge Crystallographic Data Centre (CCDC).
#
# This work is licensed under the Creative Commons
# Attribution-NonCommercial-ShareAlike 4.0 International License.
# To view a copy of this license, visit
# http://creativecommons.org/licenses/by-nc-sa/4.0/
# or send a letter to
# Creative Commons, PO Box 1866, Mountain View, CA 94042, USA.
#
# CIF created using the CSD Python API on 29 September 2022
# The structure has been converted into the P1 space group
# The structure has a 3D framework
# The original CSD entry ARINUL is in the tetragonal crystal system
# The framework has been calculated to contain at least 10.0% void space
# The void calculation uses a probe of radius 1.32A, grid spacing 0.4
# The framework is charged, counterions have been retained in the structure
#
###############################################################################

data_ARINUL
_chemical_formula_moiety         '(C112 H112 Cl4 Cu6 N32 O16 2+)n'
_symmetry_cell_setting           triclinic
_symmetry_space_group_name_H-M   'P 1'
_symmetry_Int_Tables_number      1
_space_group_name_Hall           'P 1'
loop_
_symmetry_equiv_pos_site_id
_symmetry_equiv_pos_as_xyz
1 x,y,z
_cell_length_a                   20.586(3)
_cell_length_b                   20.586(3)
_cell_length_c                   7.5220(13)
_cell_angle_alpha                90
_cell_angle_beta                 90
_cell_angle_gamma                90
_cell_volume                     3187.7
loop_
_atom_site_label
_atom_site_type_symbol
_atom_site_fract_x
_atom_site_fract_y
_atom_site_fract_z
Cu4 Cu 0.5000 -0.0000 0.0000
Cu4_2 Cu 0.5000 1.0000 0.0000
N9 N 0.5059(5) 0.0763(5) 0.1732(13)
N10 N 0.4941(5) 0.9237(5) 0.1732(13)
C1 C 0.5178(7) 0.1751(6) 0.4305(14)
C2 C 0.4608(6) 0.1447(7) 0.393(2)
H1 H 0.4236 0.1559 0.4564
C3 C 0.4574(7) 0.0988(7) 0.267(2)
H2 H 0.4166 0.0813 0.2444
C4 C 0.5621(7) 0.1022(6) 0.2149(18)
H3 H 0.5987 0.0869 0.1559
C5 C 0.5257(6) 0.2258(6) 0.571(2)
N2 N 0.4884(7) 0.2212(8) 0.694(2)
H4 H 0.5504 0.3624 0.9736
C10 C 0.4584(6) 0.2734(6) 0.9495(19)
N4 N 0.4976(7) 0.2690(7) 0.828(3)
C11 C 0.5742(7) 0.2758(6) 0.5470(17)
H7 H 0.5939 0.2859 0.6593
H8 H 0.6069 0.2607 0.4659
H9 H 0.5541 0.3141 0.4994
C12 C 0.4057(10) 0.2275(10) 0.950(2)
H10 H 0.3690 0.2458 0.8897
H11 H 0.4190 0.1884 0.8912
C14 C 0.5708(6) 0.1496(8) 0.337(2)
H14 H 0.6124 0.1654 0.3597
C15 C 0.4822(7) 0.8249(6) 0.4305(14)
C18 C 0.5392(6) 0.8553(7) 0.393(2)
H15 H 0.5764 0.8441 0.4564
C21 C 0.5426(7) 0.9012(7) 0.267(2)
H18 H 0.5834 0.9187 0.2444
C24 C 0.4379(7) 0.8978(6) 0.2149(18)
H21 H 0.4013 0.9131 0.1559
C27 C 0.4743(6) 0.7742(6) 0.571(2)
N11 N 0.5116(7) 0.7788(8) 0.694(2)
H24 H 0.4496 0.6376 0.9736
C42 C 0.5416(6) 0.7266(6) 0.9495(19)
N17 N 0.5024(7) 0.7310(7) 0.828(3)
C45 C 0.4258(7) 0.7242(6) 0.5470(17)
H33 H 0.4061 0.7141 0.6593
H36 H 0.3931 0.7393 0.4659
H39 H 0.4459 0.6859 0.4994
C48 C 0.5943(10) 0.7725(10) 0.950(2)
H42 H 0.6310 0.7542 0.8897
H45 H 0.5810 0.8116 0.8912
C54 C 0.4292(6) 0.8504(8) 0.337(2)
H54 H 0.3876 0.8346 0.3597
Cu4_3 Cu 0.5000 -0.0000 1.0000
C19 C 0.3553(7) 0.0392(6) 0.607(2)
H16 H 0.3441 0.0764 0.5436
C22 C 0.4012(7) 0.0426(7) 0.733(2)
H19 H 0.4187 0.0834 0.7556
N12 N 0.2788(8) 0.0116(7) 0.306(2)
C43 C 0.2266(6) 0.0416(6) 0.0505(19)
N18 N 0.2310(7) 0.0024(7) 0.172(3)
C49 C 0.2725(10) 0.0943(10) 0.050(2)
H43 H 0.2542 0.1310 0.1103
H46 H 0.3116 0.0810 0.1088
Cu4_4 Cu 0.5000 1.0000 1.0000
N6 N 0.4237(5) 0.9941(5) 0.8268(13)
C16 C 0.3249(6) 0.9822(7) 0.5695(14)
C25 C 0.3978(6) 0.9379(7) 0.7851(18)
H22 H 0.4131 0.9013 0.8441
C28 C 0.2742(6) 0.9743(6) 0.429(2)
H25 H 0.1376 0.9496 0.0264
C46 C 0.2242(6) 0.9258(7) 0.4530(17)
H34 H 0.2141 0.9061 0.3407
H37 H 0.2393 0.8931 0.5341
H40 H 0.1859 0.9459 0.5006
C55 C 0.3504(8) 0.9292(6) 0.663(2)
H55 H 0.3346 0.8876 0.6403
N7 N 0.5763(5) 0.0059(5) 0.8268(13)
C17 C 0.6751(6) 0.0178(7) 0.5695(14)
C26 C 0.6022(6) 0.0621(7) 0.7851(18)
H23 H 0.5869 0.0987 0.8441
C29 C 0.7258(6) 0.0257(6) 0.429(2)
H26 H 0.8624 0.0504 0.0264
C47 C 0.7758(6) 0.0742(7) 0.4530(17)
H35 H 0.7859 0.0939 0.3407
H38 H 0.7607 0.1069 0.5341
H41 H 0.8141 0.0541 0.5006
C56 C 0.6496(8) 0.0708(6) 0.663(2)
H56 H 0.6654 0.1124 0.6403
C20 C 0.6447(7) 0.9608(6) 0.607(2)
H17 H 0.6559 0.9236 0.5436
C23 C 0.5988(7) 0.9574(7) 0.733(2)
H20 H 0.5813 0.9166 0.7556
N13 N 0.7212(8) 0.9884(7) 0.306(2)
C44 C 0.7734(6) 0.9584(6) 0.0505(19)
N19 N 0.7690(7) 0.9976(7) 0.172(3)
C50 C 0.7275(10) 0.9057(10) 0.050(2)
H44 H 0.7458 0.8690 0.1103
H47 H 0.6884 0.9190 0.1088
Cu1 Cu 0.0000 -0.0000 0.5000
C7 C 0.0218(6) 0.1349(6) 0.0692(15)
C8 C 0.0297(6) 0.0860(6) 0.1980(18)
H5 H 0.0633 0.0563 0.1831
N15 N 0.0798(4) 0.0091(5) 0.6575(12)
C31 C 0.1781(5) 0.0277(6) 0.9149(17)
C40 C 0.1704(5) 0.0671(5) 0.7712(16)
H31 H 0.1985 0.1020 0.7546
H49 H 0.2823 0.1061 0.9291
C52 C 0.1210(6) 0.0560(6) 0.6489(15)
H52 H 0.1175 0.0846 0.5536
Cu2 Cu 0.0000 0.5000 0.0000
N1 N 0.0059(5) 0.4237(5) 0.1732(13)
C1_2 C 0.0178(7) 0.3249(6) 0.4305(14)
C4_2 C 0.0621(7) 0.3978(6) 0.2149(18)
H3_2 H 0.0987 0.4131 0.1559
C5_2 C 0.0257(6) 0.2742(6) 0.571(2)
H4_2 H 0.0504 0.1376 0.9736
C11_2 C 0.0742(7) 0.2242(6) 0.5470(17)
H7_2 H 0.0939 0.2141 0.6593
H8_2 H 0.1069 0.2393 0.4659
H9_2 H 0.0541 0.1859 0.4994
C14_2 C 0.0708(6) 0.3504(8) 0.337(2)
H14_2 H 0.1124 0.3346 0.3597
C18_2 C 0.0392(6) 0.6447(7) 0.393(2)
H15_2 H 0.0764 0.6559 0.4564
C21_2 C 0.0426(7) 0.5988(7) 0.267(2)
H18_2 H 0.0834 0.5813 0.2444
N11_2 N 0.0116(7) 0.7212(8) 0.694(2)
C42_2 C 0.0416(6) 0.7734(6) 0.9495(19)
N17_2 N 0.0024(7) 0.7690(7) 0.828(3)
C48_2 C 0.0943(10) 0.7275(10) 0.950(2)
H42_2 H 0.1310 0.7458 0.8897
H45_2 H 0.0810 0.6884 0.8912
Cu2_2 Cu 1.0000 0.5000 0.0000
C2_2 C 0.9608(6) 0.3553(7) 0.393(2)
H1_2 H 0.9236 0.3441 0.4564
C3_2 C 0.9574(7) 0.4012(7) 0.267(2)
H2_2 H 0.9166 0.4187 0.2444
N2_2 N 0.9884(7) 0.2788(8) 0.694(2)
C10_2 C 0.9584(6) 0.2266(6) 0.9495(19)
N4_2 N 0.9976(7) 0.2310(7) 0.828(3)
C12_2 C 0.9057(10) 0.2725(10) 0.950(2)
H10_2 H 0.8690 0.2542 0.8897
H11_2 H 0.9190 0.3116 0.8912
N8 N 0.9941(5) 0.5763(5) 0.1732(13)
C15_2 C 0.9822(7) 0.6751(6) 0.4305(14)
C24_2 C 0.9379(7) 0.6022(6) 0.2149(18)
H21_2 H 0.9013 0.5869 0.1559
C27_2 C 0.9743(6) 0.7258(6) 0.571(2)
H24_2 H 0.9496 0.8624 0.9736
C45_2 C 0.9258(7) 0.7758(6) 0.5470(17)
H33_2 H 0.9061 0.7859 0.6593
H36_2 H 0.8931 0.7607 0.4659
H39_2 H 0.9459 0.8141 0.4994
C54_2 C 0.9292(6) 0.6496(8) 0.337(2)
H54_2 H 0.8876 0.6654 0.3597
Cu2_3 Cu 0.0000 0.5000 1.0000
N10_2 N 0.0763(5) 0.4941(5) 0.8268(13)
Cu2_4 Cu 1.0000 0.5000 1.0000
N9_2 N 0.9237(5) 0.5059(5) 0.8268(13)
C16_2 C 0.8249(6) 0.5178(7) 0.5695(14)
C17_2 C 0.1751(6) 0.4822(7) 0.5695(14)
C19_2 C 0.8553(7) 0.4608(6) 0.607(2)
C20_2 C 0.1447(7) 0.5392(6) 0.607(2)
H16_2 H 0.8441 0.4236 0.5436
H17_2 H 0.1559 0.5764 0.5436
C22_2 C 0.9012(7) 0.4574(7) 0.733(2)
C23_2 C 0.0988(7) 0.5426(7) 0.733(2)
H19_2 H 0.9187 0.4166 0.7556
H20_2 H 0.0813 0.5834 0.7556
C25_2 C 0.8978(6) 0.5621(7) 0.7851(18)
C26_2 C 0.1022(6) 0.4379(7) 0.7851(18)
H22_2 H 0.9131 0.5987 0.8441
H23_2 H 0.0869 0.4013 0.8441
C28_2 C 0.7742(6) 0.5257(6) 0.429(2)
C29_2 C 0.2258(6) 0.4743(6) 0.429(2)
N12_2 N 0.7788(8) 0.4884(7) 0.306(2)
N13_2 N 0.2212(8) 0.5116(7) 0.306(2)
H25_2 H 0.6376 0.5504 0.0264
H26_2 H 0.3624 0.4496 0.0264
C43_2 C 0.7266(6) 0.4584(6) 0.0505(19)
C44_2 C 0.2734(6) 0.5416(6) 0.0505(19)
N18_2 N 0.7310(7) 0.4976(7) 0.172(3)
N19_2 N 0.2690(7) 0.5024(7) 0.172(3)
C46_2 C 0.7242(6) 0.5742(7) 0.4530(17)
C47_2 C 0.2758(6) 0.4258(7) 0.4530(17)
H34_2 H 0.7141 0.5939 0.3407
H35_2 H 0.2859 0.4061 0.3407
H37_2 H 0.7393 0.6069 0.5341
H38_2 H 0.2607 0.3931 0.5341
H40_2 H 0.6859 0.5541 0.5006
H41_2 H 0.3141 0.4459 0.5006
C49_2 C 0.7725(10) 0.4057(10) 0.050(2)
C50_2 C 0.2275(10) 0.5943(10) 0.050(2)
H43_2 H 0.7542 0.3690 0.1103
H44_2 H 0.2458 0.6310 0.1103
H46_2 H 0.8116 0.4190 0.1088
H47_2 H 0.1884 0.5810 0.1088
C55_2 C 0.8504(8) 0.5708(6) 0.663(2)
C56_2 C 0.1496(8) 0.4292(6) 0.663(2)
H55_2 H 0.8346 0.6124 0.6403
H56_2 H 0.1654 0.3876 0.6403
Cu1_2 Cu 0.0000 1.0000 0.5000
N14 N 0.0091(5) 0.9202(4) 0.3425(12)
C30 C 0.0277(6) 0.8219(5) 0.0851(17)
C34 C 0.1349(6) 0.9782(6) 0.9308(15)
C37 C 0.0860(6) 0.9703(6) 0.8020(18)
H28 H 0.0563 0.9367 0.8169
C39 C 0.0671(5) 0.8296(5) 0.2288(16)
H30 H 0.1020 0.8015 0.2454
H48 H 0.1061 0.7177 0.0709
C51 C 0.0560(6) 0.8790(6) 0.3511(15)
H51 H 0.0846 0.8825 0.4464
Cu1_3 Cu 1.0000 -0.0000 0.5000
N3 N 0.9909(5) 0.0798(4) 0.3425(12)
C6 C 0.9723(6) 0.1781(5) 0.0851(17)
C9 C 0.9329(5) 0.1704(5) 0.2288(16)
H6 H 0.8980 0.1985 0.2454
H12 H 0.8939 0.2823 0.0709
C13 C 0.9440(6) 0.1210(6) 0.3511(15)
H13 H 0.9154 0.1175 0.4464
C35 C 0.8651(6) 0.0218(6) 0.9308(15)
C38 C 0.9140(6) 0.0297(6) 0.8020(18)
H29 H 0.9437 0.0633 0.8169
Cu1_4 Cu 1.0000 1.0000 0.5000
N16 N 0.9202(4) 0.9909(5) 0.6575(12)
C32 C 0.8219(5) 0.9723(6) 0.9149(17)
C33 C 0.9782(6) 0.8651(6) 0.0692(15)
C36 C 0.9703(6) 0.9140(6) 0.1980(18)
H27 H 0.9367 0.9437 0.1831
C41 C 0.8296(5) 0.9329(5) 0.7712(16)
H32 H 0.8015 0.8980 0.7546
H50 H 0.7177 0.8939 0.9291
C53 C 0.8790(6) 0.9440(6) 0.6489(15)
H53 H 0.8825 0.9154 0.5536
Cu1_5 Cu 0.5000 0.5000 0.5000
N3_2 N 0.4909(5) 0.4202(4) 0.3425(12)
C6_2 C 0.4723(6) 0.3219(5) 0.0851(17)
C7_2 C 0.5218(6) 0.3651(6) 0.0692(15)
C8_2 C 0.5297(6) 0.4140(6) 0.1980(18)
H5_2 H 0.5633 0.4437 0.1831
C9_2 C 0.4329(5) 0.3296(5) 0.2288(16)
H6_2 H 0.3980 0.3015 0.2454
H12_2 H 0.3939 0.2177 0.0709
C13_2 C 0.4440(6) 0.3790(6) 0.3511(15)
H13_2 H 0.4154 0.3825 0.4464
N14_2 N 0.5091(5) 0.5798(4) 0.3425(12)
N15_2 N 0.5798(4) 0.4909(5) 0.6575(12)
N16_2 N 0.4202(4) 0.5091(5) 0.6575(12)
C30_2 C 0.5277(6) 0.6781(5) 0.0851(17)
C31_2 C 0.6781(5) 0.4723(6) 0.9149(17)
C32_2 C 0.3219(5) 0.5277(6) 0.9149(17)
C33_2 C 0.4782(6) 0.6349(6) 0.0692(15)
C34_2 C 0.6349(6) 0.5218(6) 0.9308(15)
C35_2 C 0.3651(6) 0.4782(6) 0.9308(15)
C36_2 C 0.4703(6) 0.5860(6) 0.1980(18)
C37_2 C 0.5860(6) 0.5297(6) 0.8020(18)
C38_2 C 0.4140(6) 0.4703(6) 0.8020(18)
H27_2 H 0.4367 0.5563 0.1831
H28_2 H 0.5563 0.5633 0.8169
H29_2 H 0.4437 0.4367 0.8169
C39_2 C 0.5671(5) 0.6704(5) 0.2288(16)
C40_2 C 0.6704(5) 0.4329(5) 0.7712(16)
C41_2 C 0.3296(5) 0.5671(5) 0.7712(16)
H30_2 H 0.6020 0.6985 0.2454
H31_2 H 0.6985 0.3980 0.7546
H32_2 H 0.3015 0.6020 0.7546
H48_2 H 0.6061 0.7823 0.0709
H49_2 H 0.7823 0.3939 0.9291
H50_2 H 0.2177 0.6061 0.9291
C51_2 C 0.5560(6) 0.6210(6) 0.3511(15)
C52_2 C 0.6210(6) 0.4440(6) 0.6489(15)
C53_2 C 0.3790(6) 0.5560(6) 0.6489(15)
H51_2 H 0.5846 0.6175 0.4464
H52_2 H 0.6175 0.4154 0.5536
H53_2 H 0.3825 0.5846 0.5536
Cl1 Cl 0.2718(2) 0.2282(2) 0.5000
O1 O 0.3102(6) 0.2219(7) 0.357(2)
O2 O 0.2194(9) 0.233(3) 0.482(7)
O3 O 0.2781(7) 0.1898(6) 0.643(2)
O4 O 0.267(3) 0.2806(9) 0.518(7)
Cl1_2 Cl 0.7282(2) 0.7718(2) 0.5000
O1_2 O 0.6898(6) 0.7781(7) 0.357(2)
O2_2 O 0.7806(9) 0.767(3) 0.482(7)
O3_2 O 0.7219(7) 0.8102(6) 0.643(2)
O4_2 O 0.733(3) 0.7194(9) 0.518(7)
Cl1_3 Cl 0.2282(2) 0.7282(2) 0.5000
O1_3 O 0.2219(7) 0.6898(6) 0.643(2)
O2_3 O 0.233(3) 0.7806(9) 0.518(7)
O3_3 O 0.1898(6) 0.7219(7) 0.357(2)
O4_3 O 0.2806(9) 0.733(3) 0.482(7)
Cl1_4 Cl 0.7718(2) 0.2718(2) 0.5000
O1_4 O 0.7781(7) 0.3102(6) 0.643(2)
O2_4 O 0.767(3) 0.2194(9) 0.518(7)
O3_4 O 0.8102(6) 0.2781(7) 0.357(2)
O4_4 O 0.7194(9) 0.267(3) 0.482(7)
loop_
_geom_bond_atom_site_label_1
_geom_bond_atom_site_label_2
_geom_bond_site_symmetry_1
_geom_bond_site_symmetry_2
N9 Cu4 1_555 1_555
N10 Cu4_2 1_555 1_555
N9 C3 1_555 1_555
C1 C2 1_555 1_555
C2 H1 1_555 1_555
C3 C2 1_555 1_555
H2 C3 1_555 1_555
C4 N9 1_555 1_555
H3 C4 1_555 1_555
C5 C1 1_555 1_555
N2 C5 1_555 1_555
N4 N2 1_555 1_555
C11 C5 1_555 1_555
H7 C11 1_555 1_555
H8 C11 1_555 1_555
H9 C11 1_555 1_555
C12 C10 1_555 1_555
H10 C12 1_555 1_555
H11 C12 1_555 1_555
C14 C1 1_555 1_555
H14 C14 1_555 1_555
N10 C21 1_555 1_555
C15 C18 1_555 1_555
C18 H15 1_555 1_555
C21 C18 1_555 1_555
H18 C21 1_555 1_555
C24 N10 1_555 1_555
H21 C24 1_555 1_555
C27 C15 1_555 1_555
N11 C27 1_555 1_555
N17 N11 1_555 1_555
C45 C27 1_555 1_555
H33 C45 1_555 1_555
H36 C45 1_555 1_555
H39 C45 1_555 1_555
C48 C42 1_555 1_555
H42 C48 1_555 1_555
H45 C48 1_555 1_555
C54 C15 1_555 1_555
H54 C54 1_555 1_555
C4 C14 1_555 1_555
C10 N4 1_555 1_555
C24 C54 1_555 1_555
C42 N17 1_555 1_555
C19 H16 1_555 1_555
C22 C19 1_555 1_555
H19 C22 1_555 1_555
N18 N12 1_555 1_555
C49 C43 1_555 1_555
H43 C49 1_555 1_555
H46 C49 1_555 1_555
C43 N18 1_555 1_555
Cu4_4 N6 1_555 1_555
C25 N6 1_555 1_555
H22 C25 1_555 1_555
C28 C16 1_555 1_555
C46 C28 1_555 1_555
H34 C46 1_555 1_555
H37 C46 1_555 1_555
H40 C46 1_555 1_555
C55 C16 1_555 1_555
H55 C55 1_555 1_555
C25 C55 1_555 1_555
Cu4_3 N7 1_555 1_555
C26 N7 1_555 1_555
H23 C26 1_555 1_555
C29 C17 1_555 1_555
C47 C29 1_555 1_555
H35 C47 1_555 1_555
H38 C47 1_555 1_555
H41 C47 1_555 1_555
C56 C17 1_555 1_555
H56 C56 1_555 1_555
C26 C56 1_555 1_555
C20 H17 1_555 1_555
C23 C20 1_555 1_555
H20 C23 1_555 1_555
N19 N13 1_555 1_555
C50 C44 1_555 1_555
H44 C50 1_555 1_555
H47 C50 1_555 1_555
C44 N19 1_555 1_555
C8 C7 1_555 1_555
H5 C8 1_555 1_555
N15 Cu1 1_555 1_555
C40 C31 1_555 1_555
H31 C40 1_555 1_555
C52 N15 1_555 1_555
H52 C52 1_555 1_555
C40 C52 1_555 1_555
Cu2 N1 1_555 1_555
C4_2 N1 1_555 1_555
H3_2 C4_2 1_555 1_555
C5_2 C1_2 1_555 1_555
C11_2 C5_2 1_555 1_555
H7_2 C11_2 1_555 1_555
H8_2 C11_2 1_555 1_555
H9_2 C11_2 1_555 1_555
C14_2 C1_2 1_555 1_555
H14_2 C14_2 1_555 1_555
C4_2 C14_2 1_555 1_555
C18_2 H15_2 1_555 1_555
C21_2 C18_2 1_555 1_555
H18_2 C21_2 1_555 1_555
N17_2 N11_2 1_555 1_555
C48_2 C42_2 1_555 1_555
H42_2 C48_2 1_555 1_555
H45_2 C48_2 1_555 1_555
C42_2 N17_2 1_555 1_555
C2_2 H1_2 1_555 1_555
C3_2 C2_2 1_555 1_555
H2_2 C3_2 1_555 1_555
N4_2 N2_2 1_555 1_555
C12_2 C10_2 1_555 1_555
H10_2 C12_2 1_555 1_555
H11_2 C12_2 1_555 1_555
N8 Cu2_2 1_555 1_555
C10_2 N4_2 1_555 1_555
C24_2 N8 1_555 1_555
H21_2 C24_2 1_555 1_555
C27_2 C15_2 1_555 1_555
C45_2 C27_2 1_555 1_555
H33_2 C45_2 1_555 1_555
H36_2 C45_2 1_555 1_555
H39_2 C45_2 1_555 1_555
C54_2 C15_2 1_555 1_555
H54_2 C54_2 1_555 1_555
C24_2 C54_2 1_555 1_555
N10_2 Cu2_3 1_555 1_555
N9_2 Cu2_4 1_555 1_555
N9_2 C22_2 1_555 1_555
N10_2 C23_2 1_555 1_555
C16_2 C19_2 1_555 1_555
C17_2 C20_2 1_555 1_555
C19_2 H16_2 1_555 1_555
C20_2 H17_2 1_555 1_555
C22_2 C19_2 1_555 1_555
C23_2 C20_2 1_555 1_555
H19_2 C22_2 1_555 1_555
H20_2 C23_2 1_555 1_555
C25_2 N9_2 1_555 1_555
C26_2 N10_2 1_555 1_555
H22_2 C25_2 1_555 1_555
H23_2 C26_2 1_555 1_555
C28_2 C16_2 1_555 1_555
C29_2 C17_2 1_555 1_555
N12_2 C28_2 1_555 1_555
N13_2 C29_2 1_555 1_555
N18_2 N12_2 1_555 1_555
N19_2 N13_2 1_555 1_555
C46_2 C28_2 1_555 1_555
C47_2 C29_2 1_555 1_555
H34_2 C46_2 1_555 1_555
H35_2 C47_2 1_555 1_555
H37_2 C46_2 1_555 1_555
H38_2 C47_2 1_555 1_555
H40_2 C46_2 1_555 1_555
H41_2 C47_2 1_555 1_555
C49_2 C43_2 1_555 1_555
C50_2 C44_2 1_555 1_555
H43_2 C49_2 1_555 1_555
H44_2 C50_2 1_555 1_555
H46_2 C49_2 1_555 1_555
H47_2 C50_2 1_555 1_555
C55_2 C16_2 1_555 1_555
C56_2 C17_2 1_555 1_555
H55_2 C55_2 1_555 1_555
H56_2 C56_2 1_555 1_555
C25_2 C55_2 1_555 1_555
C26_2 C56_2 1_555 1_555
C43_2 N18_2 1_555 1_555
C44_2 N19_2 1_555 1_555
N14 Cu1_2 1_555 1_555
H28 C37 1_555 1_555
C39 C30 1_555 1_555
H30 C39 1_555 1_555
C51 N14 1_555 1_555
H51 C51 1_555 1_555
C34 C37 1_555 1_555
C39 C51 1_555 1_555
Cu1_3 N3 1_555 1_555
C9 C6 1_555 1_555
H6 C9 1_555 1_555
C13 N3 1_555 1_555
H13 C13 1_555 1_555
H29 C38 1_555 1_555
C9 C13 1_555 1_555
C35 C38 1_555 1_555
N16 Cu1_4 1_555 1_555
H27 C36 1_555 1_555
C41 C32 1_555 1_555
H32 C41 1_555 1_555
C53 N16 1_555 1_555
H53 C53 1_555 1_555
C33 C36 1_555 1_555
C41 C53 1_555 1_555
Cu1_5 N3_2 1_555 1_555
N3_2 C8_2 1_555 1_555
C6_2 C7_2 1_555 1_555
C8_2 C7_2 1_555 1_555
H5_2 C8_2 1_555 1_555
C9_2 C6_2 1_555 1_555
H6_2 C9_2 1_555 1_555
C13_2 N3_2 1_555 1_555
H13_2 C13_2 1_555 1_555
N14_2 Cu1_5 1_555 1_555
N15_2 Cu1_5 1_555 1_555
N16_2 Cu1_5 1_555 1_555
C30_2 C33_2 1_555 1_555
C31_2 C34_2 1_555 1_555
C32_2 C35_2 1_555 1_555
C36_2 N14_2 1_555 1_555
C37_2 N15_2 1_555 1_555
C38_2 N16_2 1_555 1_555
H27_2 C36_2 1_555 1_555
H28_2 C37_2 1_555 1_555
H29_2 C38_2 1_555 1_555
C39_2 C30_2 1_555 1_555
C40_2 C31_2 1_555 1_555
C41_2 C32_2 1_555 1_555
H30_2 C39_2 1_555 1_555
H31_2 C40_2 1_555 1_555
H32_2 C41_2 1_555 1_555
C51_2 N14_2 1_555 1_555
C52_2 N15_2 1_555 1_555
C53_2 N16_2 1_555 1_555
H51_2 C51_2 1_555 1_555
H52_2 C52_2 1_555 1_555
H53_2 C53_2 1_555 1_555
C9_2 C13_2 1_555 1_555
C33_2 C36_2 1_555 1_555
C34_2 C37_2 1_555 1_555
C35_2 C38_2 1_555 1_555
C39_2 C51_2 1_555 1_555
C40_2 C52_2 1_555 1_555
C41_2 C53_2 1_555 1_555
Cl1 O1 1_555 1_555
O2 Cl1 1_555 1_555
O3 Cl1 1_555 1_555
O4 Cl1 1_555 1_555
Cl1_2 O1_2 1_555 1_555
O2_2 Cl1_2 1_555 1_555
O3_2 Cl1_2 1_555 1_555
O4_2 Cl1_2 1_555 1_555
Cl1_3 O1_3 1_555 1_555
O2_3 Cl1_3 1_555 1_555
O3_3 Cl1_3 1_555 1_555
O4_3 Cl1_3 1_555 1_555
Cl1_4 O1_4 1_555 1_555
O2_4 Cl1_4 1_555 1_555
O3_4 Cl1_4 1_555 1_555
O4_4 Cl1_4 1_555 1_555

#END
