
###############################################################################
#
# This file contains modified crystal structure data generated from the
# MOF subset of the Cambridge Structural Database (CSD) v543 
# hosted by the Cambridge Crystallographic Data Centre (CCDC).
#
# This work is licensed under the Creative Commons
# Attribution-NonCommercial-ShareAlike 4.0 International License.
# To view a copy of this license, visit
# http://creativecommons.org/licenses/by-nc-sa/4.0/
# or send a letter to
# Creative Commons, PO Box 1866, Mountain View, CA 94042, USA.
#
# CIF created using the CSD Python API on 29 September 2022
# The structure has been converted into the P1 space group
# The structure has a 3D framework
# The original CSD entry ARIQIE is in the monoclinic crystal system
# The framework has been calculated to contain at least 10.0% void space
# The void calculation uses a probe of radius 1.32A, grid spacing 0.4
#
###############################################################################

data_ARIQIE
_chemical_formula_moiety         '(C156 H96 Eu2 N4 O20)n'
_symmetry_cell_setting           triclinic
_symmetry_space_group_name_H-M   'P 1'
_symmetry_Int_Tables_number      1
_space_group_name_Hall           'P 1'
loop_
_symmetry_equiv_pos_site_id
_symmetry_equiv_pos_as_xyz
1 x,y,z
_cell_length_a                   7.181(2)
_cell_length_b                   25.271(8)
_cell_length_c                   22.110(7)
_cell_angle_alpha                90
_cell_angle_beta                 91.847(13)
_cell_angle_gamma                90
_cell_volume                     4010.24
loop_
_atom_site_label
_atom_site_type_symbol
_atom_site_fract_x
_atom_site_fract_y
_atom_site_fract_z
O5 O 0.3066(17) 0.1118(5) 0.2927(9)
O6 O 0.0563(18) 0.0603(5) 0.2919(7)
C1 C 0.133(3) 0.1079(7) 0.2933(10)
H2 H 0.0149 0.2809 0.3134
C9 C 0.009(4) 0.1521(12) 0.2963(18)
C16 C 0.081(4) 0.2033(11) 0.3082(13)
H9 H 0.2079 0.2077 0.3160
Eu5 Eu 0.36570(18) 0.01668(3) 0.28895(10)
O7 O 0.6484(19) 0.0364(5) 0.2289(7)
O9 O 0.6668(18) 0.0371(5) 0.3490(6)
O10 O 0.376(3) 0.0486(10) 0.1828(10)
O11 O 0.395(3) 0.0436(11) 0.3944(10)
H20 H 0.0532 0.0866 0.0750
C19 C 0.546(3) 0.0469(8) 0.1797(9)
C20 C 0.654(3) 0.0584(8) 0.1248(10)
C21 C 0.839(5) 0.0697(14) 0.1278(16)
H10 H 0.9040 0.0727 0.1648
C22 C 0.558(3) 0.0535(9) 0.0691(10)
H11 H 0.4315 0.0461 0.0674
C23 C 0.656(3) 0.0599(10) 0.0152(11)
C33 C 0.929(3) 0.0765(9) 0.0736(12)
C37 C 0.842(4) 0.0689(13) 0.0177(15)
C2 C 0.677(3) 0.0581(7) 0.4551(9)
C3 C 0.580(3) 0.0594(9) 0.5098(11)
H1 H 0.4505 0.0561 0.5087
C7 C 0.870(5) 0.0674(12) 0.4605(16)
H4 H 0.9389 0.0687 0.4257
C8 C 0.566(4) 0.0481(8) 0.3970(9)
H12 H 0.5930 0.0579 0.9780
C26 C 0.947(3) 0.0752(9) 0.9589(11)
H15 H 0.9846 0.0232 0.8306
C28 C 0.917(3) 0.0412(9) 0.9121(11)
H16 H 0.8327 0.0136 0.9155
C29 C 0.961(3) 0.0989(9) 0.7331(11)
H17 H 0.8995 0.1123 0.7660
C32 C 0.959(3) 0.0755(8) 0.6285(11)
C34 C 0.671(3) 0.0651(9) 0.5626(10)
H21 H 0.6022 0.0634 0.5975
C35 C 0.859(5) 0.0733(12) 0.5695(17)
C36 C 0.955(3) 0.0743(9) 0.5137(14)
C38 C 0.871(3) 0.0962(10) 0.6771(11)
H23 H 0.7490 0.1085 0.6724
N1 N 0.239(2) 0.4089(6) 0.2979(9)
C4 C 0.963(4) 0.2474(10) 0.3085(13)
C5 C 0.773(4) 0.2423(10) 0.3016(12)
C6 C 0.706(4) 0.1928(12) 0.2938(15)
H3 H 0.5780 0.1874 0.2898
C10 C 0.375(7) 0.3696(7) 0.295(2)
C11 C 0.650(3) 0.2887(8) 0.2980(11)
C12 C 0.499(3) 0.2888(9) 0.2565(12)
H5 H 0.4878 0.2617 0.2282
C13 C 0.367(3) 0.3283(9) 0.2568(10)
H6 H 0.2674 0.3262 0.2291
C14 C 0.536(3) 0.3715(9) 0.3338(11)
H7 H 0.5532 0.4004 0.3594
C15 C 0.665(3) 0.3323(9) 0.3348(11)
H8 H 0.7669 0.3350 0.3614
C17 C 0.138(3) 0.4177(8) 0.2402(10)
C18 C 0.139(3) 0.4140(8) 0.3511(10)
C24 C 0.169(3) 0.3807(9) 0.3993(12)
H13 H 0.2564 0.3537 0.3956
C25 C 0.076(3) 0.3850(10) 0.4537(11)
H14 H 0.1013 0.3616 0.4855
C27 C 0.010(3) 0.4527(10) 0.3617(10)
C30 C 0.138(3) 0.4412(10) 0.1391(12)
H18 H 0.2026 0.4554 0.1072
C31 C 0.225(3) 0.4378(10) 0.1952(11)
H19 H 0.3470 0.4499 0.2008
H20_2 H 0.0532 0.4134 0.5750
H22 H 0.0825 0.4199 0.0150
C39 C 0.822(5) 0.1510(11) 0.292(2)
H24 H 0.7666 0.1180 0.2871
O7_2 O 0.1484(19) 0.5364(5) 0.7289(7)
O9_2 O 0.1668(18) 0.5371(5) 0.8490(6)
O14 O 0.0563(18) 0.4397(5) 0.7919(7)
Eu1 Eu 0.86570(18) 0.51668(3) 0.78895(10)
O1 O 0.6484(19) 0.4636(5) 0.7289(7)
O3 O 0.376(3) 0.4514(10) 0.6828(10)
C3_2 C 0.580(3) 0.4406(9) 0.0098(11)
H1_2 H 0.4505 0.4439 0.0087
C19_2 C 0.546(3) 0.4531(8) 0.6797(9)
C20_2 C 0.654(3) 0.4416(8) 0.6248(10)
C21_2 C 0.839(5) 0.4303(14) 0.6278(16)
H10_2 H 0.9040 0.4273 0.6648
C22_2 C 0.558(3) 0.4465(9) 0.5691(10)
H11_2 H 0.4315 0.4539 0.5674
C23_2 C 0.656(3) 0.4401(10) 0.5152(11)
H12_2 H 0.5930 0.4421 0.4780
C26_2 C 0.947(3) 0.4248(9) 0.4589(11)
H15_2 H 0.9846 0.4768 0.3306
C28_2 C 0.917(3) 0.4588(9) 0.4121(11)
H16_2 H 0.8327 0.4864 0.4155
C29_2 C 0.961(3) 0.4011(9) 0.2331(11)
H17_2 H 0.8995 0.3877 0.2660
C32_2 C 0.959(3) 0.4245(8) 0.1285(11)
C33_2 C 0.929(3) 0.4235(9) 0.5736(12)
C34_2 C 0.671(3) 0.4349(9) 0.0626(10)
H21_2 H 0.6022 0.4366 0.0975
C35_2 C 0.859(5) 0.4267(12) 0.0695(17)
C36_2 C 0.955(3) 0.4257(9) 0.0137(14)
C37_2 C 0.842(4) 0.4311(13) 0.5177(15)
C38_2 C 0.871(3) 0.4038(10) 0.1771(11)
H23_2 H 0.7490 0.3915 0.1724
Eu4 Eu 0.36570(18) 0.48332(3) 0.78895(10)
O8 O 0.6668(18) 0.4629(5) 0.8490(6)
O10_2 O 0.876(3) 0.5486(10) 0.6828(10)
O11_2 O 0.895(3) 0.5436(11) 0.8944(10)
O12 O 0.8066(17) 0.6118(5) 0.7927(9)
O13 O 0.5563(18) 0.5603(5) 0.7919(7)
O4 O 0.395(3) 0.4564(11) 0.8944(10)
C2_2 C 0.677(3) 0.4419(7) 0.9551(9)
C7_2 C 0.870(5) 0.4326(12) 0.9605(16)
H4_2 H 0.9389 0.4313 0.9257
C8_2 C 0.566(4) 0.4519(8) 0.8970(9)
N1_2 N 0.739(2) 0.5911(6) 0.2979(9)
C3_3 C 0.080(3) 0.5594(9) 0.0098(11)
C10_2 C 0.875(7) 0.6304(7) 0.295(2)
C12_2 C 0.999(3) 0.7112(9) 0.2565(12)
H5_2 H 0.9878 0.7383 0.2282
C13_2 C 0.867(3) 0.6717(9) 0.2568(10)
H6_2 H 0.7674 0.6738 0.2291
C17_2 C 0.638(3) 0.5823(8) 0.2402(10)
C18_2 C 0.639(3) 0.5860(8) 0.3511(10)
C19_3 C 0.046(3) 0.5469(8) 0.6797(9)
C20_3 C 0.154(3) 0.5584(8) 0.6248(10)
C21_3 C 0.339(5) 0.5697(14) 0.6278(16)
H10_3 H 0.4040 0.5727 0.6648
C22_3 C 0.058(3) 0.5535(9) 0.5691(10)
C23_3 C 0.156(3) 0.5599(10) 0.5152(11)
H12_3 H 0.0930 0.5579 0.4780
C24_2 C 0.669(3) 0.6193(9) 0.3993(12)
H13_2 H 0.7564 0.6463 0.3956
C25_2 C 0.576(3) 0.6150(10) 0.4537(11)
H14_2 H 0.6013 0.6384 0.4855
C26_3 C 0.447(3) 0.5752(9) 0.4589(11)
C27_2 C 0.510(3) 0.5473(10) 0.3617(10)
H15_3 H 0.4846 0.5232 0.3306
C28_3 C 0.417(3) 0.5412(9) 0.4121(11)
H16_3 H 0.3327 0.5136 0.4155
C29_3 C 0.461(3) 0.5989(9) 0.2331(11)
H17_3 H 0.3995 0.6123 0.2660
C30_2 C 0.638(3) 0.5588(10) 0.1391(12)
H18_2 H 0.7026 0.5446 0.1072
C31_2 C 0.725(3) 0.5622(10) 0.1952(11)
H19_2 H 0.8470 0.5501 0.2008
C32_3 C 0.459(3) 0.5755(8) 0.1285(11)
C33_3 C 0.429(3) 0.5765(9) 0.5736(12)
H20_3 H 0.5532 0.5866 0.5750
C34_3 C 0.171(3) 0.5651(9) 0.0626(10)
H21_3 H 0.1022 0.5634 0.0975
C35_3 C 0.359(5) 0.5733(12) 0.0695(17)
C36_3 C 0.455(3) 0.5743(9) 0.0137(14)
H22_2 H 0.5825 0.5801 0.0150
C37_3 C 0.342(4) 0.5689(13) 0.5177(15)
C38_3 C 0.371(3) 0.5962(10) 0.1771(11)
H23_3 H 0.2490 0.6085 0.1724
O12_2 O 0.3066(17) 0.3882(5) 0.7927(9)
C2_3 C 0.177(3) 0.5581(7) 0.9551(9)
C7_3 C 0.370(5) 0.5674(12) 0.9605(16)
H4_3 H 0.4389 0.5687 0.9257
C8_3 C 0.066(4) 0.5481(8) 0.8970(9)
H1_3 H 0.9505 0.5561 0.0087
H11_3 H 0.9315 0.5461 0.5674
C1_2 C 0.633(3) 0.6079(7) 0.7933(10)
C4_2 C 0.463(4) 0.7474(10) 0.8085(13)
H2_2 H 0.5149 0.7809 0.8134
C5_2 C 0.273(4) 0.7423(10) 0.8016(12)
C6_2 C 0.206(4) 0.6928(12) 0.7938(15)
H3_2 H 0.0780 0.6874 0.7898
C9_2 C 0.509(4) 0.6521(12) 0.7963(18)
C11_2 C 0.150(3) 0.7887(8) 0.7980(11)
C14_2 C 0.036(3) 0.8715(9) 0.8338(11)
H7_2 H 0.0532 0.9004 0.8594
C15_2 C 0.165(3) 0.8323(9) 0.8348(11)
H8_2 H 0.2669 0.8350 0.8614
C16_2 C 0.581(4) 0.7033(11) 0.8082(13)
H9_2 H 0.7079 0.7077 0.8160
C39_2 C 0.322(5) 0.6510(11) 0.792(2)
H24_2 H 0.2666 0.6180 0.7871
C1_3 C 0.133(3) 0.3921(7) 0.7933(10)
H2_3 H 0.0149 0.2191 0.8134
C9_3 C 0.009(4) 0.3479(12) 0.7963(18)
C16_3 C 0.081(4) 0.2967(11) 0.8082(13)
H9_3 H 0.2079 0.2923 0.8160
N1_3 N 0.239(2) 0.0911(6) 0.7979(9)
C4_3 C 0.963(4) 0.2526(10) 0.8085(13)
C5_3 C 0.773(4) 0.2577(10) 0.8016(12)
C6_3 C 0.706(4) 0.3072(12) 0.7938(15)
H3_3 H 0.5780 0.3126 0.7898
C10_3 C 0.375(7) 0.1304(7) 0.795(2)
C11_3 C 0.650(3) 0.2113(8) 0.7980(11)
C12_3 C 0.499(3) 0.2112(9) 0.7565(12)
H5_3 H 0.4878 0.2383 0.7282
C13_3 C 0.367(3) 0.1717(9) 0.7568(10)
H6_3 H 0.2674 0.1738 0.7291
C14_3 C 0.536(3) 0.1285(9) 0.8338(11)
H7_3 H 0.5532 0.0996 0.8594
C15_3 C 0.665(3) 0.1677(9) 0.8348(11)
H8_3 H 0.7669 0.1650 0.8614
C17_3 C 0.138(3) 0.0823(8) 0.7402(10)
C18_3 C 0.139(3) 0.0860(8) 0.8511(10)
C24_3 C 0.169(3) 0.1193(9) 0.8993(12)
H13_3 H 0.2564 0.1463 0.8956
C25_3 C 0.076(3) 0.1150(10) 0.9537(11)
H14_3 H 0.1013 0.1384 0.9855
C27_3 C 0.010(3) 0.0473(10) 0.8617(10)
C30_3 C 0.138(3) 0.0588(10) 0.6391(12)
H18_3 H 0.2026 0.0446 0.6072
C31_3 C 0.225(3) 0.0622(10) 0.6952(11)
H19_3 H 0.3470 0.0501 0.7008
H22_3 H 0.0825 0.0801 0.5150
C39_3 C 0.822(5) 0.3490(11) 0.792(2)
H24_3 H 0.7666 0.3820 0.7871
Eu6 Eu 0.86570(18) 0.98332(3) 0.28895(10)
O5_2 O 0.8066(17) 0.8882(5) 0.2927(9)
O6_2 O 0.5563(18) 0.9397(5) 0.2919(7)
C1_4 C 0.633(3) 0.8921(7) 0.2933(10)
C4_4 C 0.463(4) 0.7526(10) 0.3085(13)
H2_4 H 0.5149 0.7191 0.3134
C5_4 C 0.273(4) 0.7577(10) 0.3016(12)
C6_4 C 0.206(4) 0.8072(12) 0.2938(15)
H3_4 H 0.0780 0.8126 0.2898
C9_4 C 0.509(4) 0.8479(12) 0.2963(18)
C11_4 C 0.150(3) 0.7113(8) 0.2980(11)
C14_4 C 0.036(3) 0.6285(9) 0.3338(11)
H7_4 H 0.0532 0.5996 0.3594
C15_4 C 0.165(3) 0.6677(9) 0.3348(11)
H8_4 H 0.2669 0.6650 0.3614
C16_4 C 0.581(4) 0.7967(11) 0.3082(13)
H9_4 H 0.7079 0.7923 0.3160
C39_4 C 0.322(5) 0.8490(11) 0.292(2)
H24_4 H 0.2666 0.8820 0.2871
O1_2 O 0.1484(19) 0.9636(5) 0.2289(7)
C19_4 C 0.046(3) 0.9531(8) 0.1797(9)
C20_4 C 0.154(3) 0.9416(8) 0.1248(10)
C21_4 C 0.339(5) 0.9303(14) 0.1278(16)
H10_4 H 0.4040 0.9273 0.1648
C22_4 C 0.058(3) 0.9465(9) 0.0691(10)
C23_4 C 0.156(3) 0.9401(10) 0.0152(11)
C33_4 C 0.429(3) 0.9235(9) 0.0736(12)
H20_4 H 0.5532 0.9134 0.0750
C37_4 C 0.342(4) 0.9311(13) 0.0177(15)
O8_2 O 0.1668(18) 0.9629(5) 0.3490(6)
N1_4 N 0.739(2) 0.9089(6) 0.7979(9)
C2_4 C 0.177(3) 0.9419(7) 0.4551(9)
C3_4 C 0.080(3) 0.9406(9) 0.5098(11)
C7_4 C 0.370(5) 0.9326(12) 0.4605(16)
H4_4 H 0.4389 0.9313 0.4257
C8_4 C 0.066(4) 0.9519(8) 0.3970(9)
C10_4 C 0.875(7) 0.8696(7) 0.795(2)
C12_4 C 0.999(3) 0.7888(9) 0.7565(12)
H5_4 H 0.9878 0.7617 0.7282
C13_4 C 0.867(3) 0.8283(9) 0.7568(10)
H6_4 H 0.7674 0.8262 0.7291
C17_4 C 0.638(3) 0.9177(8) 0.7402(10)
C18_4 C 0.639(3) 0.9140(8) 0.8511(10)
H12_4 H 0.0930 0.9421 0.9780
C24_4 C 0.669(3) 0.8807(9) 0.8993(12)
H13_4 H 0.7564 0.8537 0.8956
C25_4 C 0.576(3) 0.8850(10) 0.9537(11)
H14_4 H 0.6013 0.8616 0.9855
C26_4 C 0.447(3) 0.9248(9) 0.9589(11)
C27_4 C 0.510(3) 0.9527(10) 0.8617(10)
H15_4 H 0.4846 0.9768 0.8306
C28_4 C 0.417(3) 0.9588(9) 0.9121(11)
H16_4 H 0.3327 0.9864 0.9155
C29_4 C 0.461(3) 0.9011(9) 0.7331(11)
H17_4 H 0.3995 0.8877 0.7660
C30_4 C 0.638(3) 0.9412(10) 0.6391(12)
H18_4 H 0.7026 0.9554 0.6072
C31_4 C 0.725(3) 0.9378(10) 0.6952(11)
H19_4 H 0.8470 0.9499 0.7008
C32_4 C 0.459(3) 0.9245(8) 0.6285(11)
C34_4 C 0.171(3) 0.9349(9) 0.5626(10)
H21_4 H 0.1022 0.9366 0.5975
C35_4 C 0.359(5) 0.9267(12) 0.5695(17)
C36_4 C 0.455(3) 0.9257(9) 0.5137(14)
H22_4 H 0.5825 0.9199 0.5150
C38_4 C 0.371(3) 0.9038(10) 0.6771(11)
H23_4 H 0.2490 0.8915 0.6724
O3_2 O 0.876(3) 0.9514(10) 0.1828(10)
H11_4 H 0.9315 0.9539 0.0674
O4_2 O 0.895(3) 0.9564(11) 0.3944(10)
H1_4 H 0.9505 0.9439 0.5087
loop_
_geom_bond_atom_site_label_1
_geom_bond_atom_site_label_2
_geom_bond_site_symmetry_1
_geom_bond_site_symmetry_2
O5 C1 1_555 1_555
O6 C1 1_555 1_555
C1 C9 1_555 1_555
C9 C16 1_555 1_555
H9 C16 1_555 1_555
Eu5 O5 1_555 1_555
O6 Eu5 1_555 1_555
O7 Eu5 1_555 1_555
O9 Eu5 1_555 1_555
O10 Eu5 1_555 1_555
O11 Eu5 1_555 1_555
O7 C19 1_555 1_555
O10 C19 1_555 1_555
C19 C20 1_555 1_555
C20 C21 1_555 1_555
C21 H10 1_555 1_555
C22 C20 1_555 1_555
H11 C22 1_555 1_555
C23 C22 1_555 1_555
C33 C21 1_555 1_555
C37 C23 1_555 1_555
C33 C37 1_555 1_555
O9 C8 1_555 1_555
O11 C8 1_555 1_555
C2 C3 1_555 1_555
C3 H1 1_555 1_555
C7 C2 1_555 1_555
H4 C7 1_555 1_555
C8 C2 1_555 1_555
C28 C26 1_555 1_555
H16 C28 1_555 1_555
H17 C29 1_555 1_555
C34 C3 1_555 1_555
H21 C34 1_555 1_555
C35 C32 1_555 1_555
C36 C7 1_555 1_555
C38 C29 1_555 1_555
H23 C38 1_555 1_555
C32 C38 1_555 1_555
C34 C35 1_555 1_555
C35 C36 1_555 1_555
N1 C10 1_555 1_555
C5 C4 1_555 1_555
C6 C5 1_555 1_555
H3 C6 1_555 1_555
C10 C13 1_555 1_555
C11 C5 1_555 1_555
C12 C11 1_555 1_555
H5 C12 1_555 1_555
C13 C12 1_555 1_555
H6 C13 1_555 1_555
C14 C10 1_555 1_555
H7 C14 1_555 1_555
C15 C11 1_555 1_555
H8 C15 1_555 1_555
C17 N1 1_555 1_555
C18 N1 1_555 1_555
C24 C18 1_555 1_555
H13 C24 1_555 1_555
C25 C24 1_555 1_555
H14 C25 1_555 1_555
C27 C18 1_555 1_555
C30 H18 1_555 1_555
C31 C17 1_555 1_555
H19 C31 1_555 1_555
C39 C6 1_555 1_555
H24 C39 1_555 1_555
C14 C15 1_555 1_555
C30 C31 1_555 1_555
Eu1 O1 1_555 1_555
O1 C19_2 1_555 1_555
O3 C19_2 1_555 1_555
C3_2 H1_2 1_555 1_555
C19_2 C20_2 1_555 1_555
C20_2 C21_2 1_555 1_555
C21_2 H10_2 1_555 1_555
C22_2 C20_2 1_555 1_555
H11_2 C22_2 1_555 1_555
C23_2 C22_2 1_555 1_555
H12_2 C23_2 1_555 1_555
C28_2 C26_2 1_555 1_555
H16_2 C28_2 1_555 1_555
H17_2 C29_2 1_555 1_555
C33_2 C21_2 1_555 1_555
C34_2 C3_2 1_555 1_555
H21_2 C34_2 1_555 1_555
C35_2 C32_2 1_555 1_555
C37_2 C23_2 1_555 1_555
C38_2 C29_2 1_555 1_555
H23_2 C38_2 1_555 1_555
Eu4 O1 1_555 1_555
O8 Eu1 1_555 1_555
O10_2 Eu1 1_555 1_555
O11_2 Eu1 1_555 1_555
O12 Eu1 1_555 1_555
O13 Eu1 1_555 1_555
O3 Eu4 1_555 1_555
C26_2 C37_2 1_555 1_555
C32_2 C38_2 1_555 1_555
C33_2 C37_2 1_555 1_555
C34_2 C35_2 1_555 1_555
C35_2 C36_2 1_555 1_555
Eu4 O8 1_555 1_555
Eu4 O13 1_555 1_555
O8 C8_2 1_555 1_555
O4 C8_2 1_555 1_555
C7_2 C2_2 1_555 1_555
H4_2 C7_2 1_555 1_555
C8_2 C2_2 1_555 1_555
O4 Eu4 1_555 1_555
Eu4 O7_2 1_555 1_555
O7_2 C19_3 1_555 1_555
N1_2 C10_2 1_555 1_555
C10_2 C13_2 1_555 1_555
H5_2 C12_2 1_555 1_555
C13_2 C12_2 1_555 1_555
H6_2 C13_2 1_555 1_555
C17_2 N1_2 1_555 1_555
C18_2 N1_2 1_555 1_555
C19_3 C20_3 1_555 1_555
C20_3 C21_3 1_555 1_555
C21_3 H10_3 1_555 1_555
C22_3 C20_3 1_555 1_555
C23_3 C22_3 1_555 1_555
H12_3 C23_3 1_555 1_555
C24_2 C18_2 1_555 1_555
H13_2 C24_2 1_555 1_555
C25_2 C24_2 1_555 1_555
H14_2 C25_2 1_555 1_555
C26_3 C25_2 1_555 1_555
C27_2 C18_2 1_555 1_555
H15_3 C27_2 1_555 1_555
C28_3 C26_3 1_555 1_555
H16_3 C28_3 1_555 1_555
C29_3 C17_2 1_555 1_555
H17_3 C29_3 1_555 1_555
C30_2 H18_2 1_555 1_555
C31_2 C17_2 1_555 1_555
H19_2 C31_2 1_555 1_555
C32_3 C30_2 1_555 1_555
C33_3 C21_3 1_555 1_555
H20_3 C33_3 1_555 1_555
C34_3 C3_3 1_555 1_555
H21_3 C34_3 1_555 1_555
C35_3 C32_3 1_555 1_555
H22_2 C36_3 1_555 1_555
C37_3 C23_3 1_555 1_555
C38_3 C29_3 1_555 1_555
H23_3 C38_3 1_555 1_555
O9_2 Eu4 1_555 1_555
O12_2 Eu4 1_555 1_555
O14 Eu4 1_555 1_555
C26_3 C37_3 1_555 1_555
C27_2 C28_3 1_555 1_555
C30_2 C31_2 1_555 1_555
C32_3 C38_3 1_555 1_555
C33_3 C37_3 1_555 1_555
C34_3 C35_3 1_555 1_555
C35_3 C36_3 1_555 1_555
O9_2 C8_3 1_555 1_555
C7_3 C2_3 1_555 1_555
H4_3 C7_3 1_555 1_555
C8_3 C2_3 1_555 1_555
O12 C1_2 1_555 1_555
O13 C1_2 1_555 1_555
C1_2 C9_2 1_555 1_555
C4_2 H2_2 1_555 1_555
C5_2 C4_2 1_555 1_555
C6_2 C5_2 1_555 1_555
H3_2 C6_2 1_555 1_555
C9_2 C16_2 1_555 1_555
C11_2 C5_2 1_555 1_555
H7_2 C14_2 1_555 1_555
C15_2 C11_2 1_555 1_555
H8_2 C15_2 1_555 1_555
C16_2 C4_2 1_555 1_555
H9_2 C16_2 1_555 1_555
C39_2 C6_2 1_555 1_555
H24_2 C39_2 1_555 1_555
C9_2 C39_2 1_555 1_555
C14_2 C15_2 1_555 1_555
O12_2 C1_3 1_555 1_555
O14 C1_3 1_555 1_555
C1_3 C9_3 1_555 1_555
C9_3 C16_3 1_555 1_555
H9_3 C16_3 1_555 1_555
N1_3 C10_3 1_555 1_555
C5_3 C4_3 1_555 1_555
C6_3 C5_3 1_555 1_555
H3_3 C6_3 1_555 1_555
C10_3 C13_3 1_555 1_555
C11_3 C5_3 1_555 1_555
C12_3 C11_3 1_555 1_555
H5_3 C12_3 1_555 1_555
C13_3 C12_3 1_555 1_555
H6_3 C13_3 1_555 1_555
C14_3 C10_3 1_555 1_555
H7_3 C14_3 1_555 1_555
C15_3 C11_3 1_555 1_555
H8_3 C15_3 1_555 1_555
C17_3 N1_3 1_555 1_555
C18_3 N1_3 1_555 1_555
C24_3 C18_3 1_555 1_555
H13_3 C24_3 1_555 1_555
C25_3 C24_3 1_555 1_555
H14_3 C25_3 1_555 1_555
C27_3 C18_3 1_555 1_555
C30_3 H18_3 1_555 1_555
C31_3 C17_3 1_555 1_555
H19_3 C31_3 1_555 1_555
C39_3 C6_3 1_555 1_555
H24_3 C39_3 1_555 1_555
C14_3 C15_3 1_555 1_555
C30_3 C31_3 1_555 1_555
O5_2 C1_4 1_555 1_555
O6_2 C1_4 1_555 1_555
C1_4 C9_4 1_555 1_555
C4_4 H2_4 1_555 1_555
C5_4 C4_4 1_555 1_555
C6_4 C5_4 1_555 1_555
H3_4 C6_4 1_555 1_555
C9_4 C16_4 1_555 1_555
C11_4 C5_4 1_555 1_555
H7_4 C14_4 1_555 1_555
C15_4 C11_4 1_555 1_555
H8_4 C15_4 1_555 1_555
C16_4 C4_4 1_555 1_555
H9_4 C16_4 1_555 1_555
C39_4 C6_4 1_555 1_555
H24_4 C39_4 1_555 1_555
Eu6 O5_2 1_555 1_555
O6_2 Eu6 1_555 1_555
C9_4 C39_4 1_555 1_555
C14_4 C15_4 1_555 1_555
O1_2 C19_4 1_555 1_555
C19_4 C20_4 1_555 1_555
C20_4 C21_4 1_555 1_555
C21_4 H10_4 1_555 1_555
C22_4 C20_4 1_555 1_555
C23_4 C22_4 1_555 1_555
C33_4 C21_4 1_555 1_555
H20_4 C33_4 1_555 1_555
C37_4 C23_4 1_555 1_555
C33_4 C37_4 1_555 1_555
O8_2 C8_4 1_555 1_555
N1_4 C10_4 1_555 1_555
C2_4 C3_4 1_555 1_555
C7_4 C2_4 1_555 1_555
H4_4 C7_4 1_555 1_555
C8_4 C2_4 1_555 1_555
C10_4 C13_4 1_555 1_555
H5_4 C12_4 1_555 1_555
C13_4 C12_4 1_555 1_555
H6_4 C13_4 1_555 1_555
C17_4 N1_4 1_555 1_555
C18_4 N1_4 1_555 1_555
C24_4 C18_4 1_555 1_555
H13_4 C24_4 1_555 1_555
C25_4 C24_4 1_555 1_555
H14_4 C25_4 1_555 1_555
C26_4 C25_4 1_555 1_555
C27_4 C18_4 1_555 1_555
H15_4 C27_4 1_555 1_555
C28_4 C26_4 1_555 1_555
H16_4 C28_4 1_555 1_555
C29_4 C17_4 1_555 1_555
H17_4 C29_4 1_555 1_555
C30_4 H18_4 1_555 1_555
C31_4 C17_4 1_555 1_555
H19_4 C31_4 1_555 1_555
C32_4 C30_4 1_555 1_555
C34_4 C3_4 1_555 1_555
H21_4 C34_4 1_555 1_555
C35_4 C32_4 1_555 1_555
C36_4 C7_4 1_555 1_555
H22_4 C36_4 1_555 1_555
C38_4 C29_4 1_555 1_555
H23_4 C38_4 1_555 1_555
C27_4 C28_4 1_555 1_555
C30_4 C31_4 1_555 1_555
C32_4 C38_4 1_555 1_555
C34_4 C35_4 1_555 1_555
C35_4 C36_4 1_555 1_555
O3_2 Eu6 1_555 1_555
O4_2 Eu6 1_555 1_555

#END
