
###############################################################################
#
# This file contains modified crystal structure data generated from the
# MOF subset of the Cambridge Structural Database (CSD) v543 
# hosted by the Cambridge Crystallographic Data Centre (CCDC).
#
# This work is licensed under the Creative Commons
# Attribution-NonCommercial-ShareAlike 4.0 International License.
# To view a copy of this license, visit
# http://creativecommons.org/licenses/by-nc-sa/4.0/
# or send a letter to
# Creative Commons, PO Box 1866, Mountain View, CA 94042, USA.
#
# CIF created using the CSD Python API on 29 September 2022
# The structure has been converted into the P1 space group
# The structure has a 3D framework
# The original CSD entry ARUCOH01 is in the monoclinic crystal system
# The framework has been calculated to contain at least 10.0% void space
# The void calculation uses a probe of radius 1.32A, grid spacing 0.4
#
###############################################################################

data_ARUCOH01
_chemical_formula_moiety         '(C128 H88 Co4 N16 O26)n'
_symmetry_cell_setting           triclinic
_symmetry_space_group_name_H-M   'P 1'
_symmetry_Int_Tables_number      1
_space_group_name_Hall           'P 1'
loop_
_symmetry_equiv_pos_site_id
_symmetry_equiv_pos_as_xyz
1 x,y,z
_cell_length_a                   10.061(3)
_cell_length_b                   25.034(8)
_cell_length_c                   14.690(5)
_cell_angle_alpha                90
_cell_angle_beta                 103.081(4)
_cell_angle_gamma                90
_cell_volume                     3603.92
loop_
_atom_site_label
_atom_site_type_symbol
_atom_site_fract_x
_atom_site_fract_y
_atom_site_fract_z
C35 C 0.0331(4) 0.02624(16) 0.4256(3)
H23 H 0.0551 0.0441 0.3755
O8 O 0.3013(3) 0.02376(10) 0.40783(18)
Co4 Co 0.47290(5) 0.02123(2) 0.35893(3)
C28 C 0.0996(4) 0.97345(16) 0.5643(3)
H18 H 0.1666 0.9557 0.6078
C33 C 0.2779(4) 0.99857(15) 0.4771(3)
C34 C 0.1340(4) 0.99964(15) 0.4890(3)
O9 O 0.3635(3) 0.97256(10) 0.53460(19)
Co7 Co 0.52710(5) 0.97877(2) 0.64107(3)
C25 C 0.7221(4) 0.00143(15) 0.5229(3)
C26 C 0.8660(4) 0.00036(15) 0.5110(3)
C30 C 0.3755(4) 0.01102(16) 0.0207(3)
H20 H 0.2918 0.0183 0.0348
C31 C 0.4920(4) 0.00628(15) 0.0923(3)
C32 C 0.4845(4) 0.01357(15) 0.1920(3)
O5 O 0.6365(3) 0.02744(10) 0.46540(19)
O6 O 0.3698(3) 0.01728(11) 0.21199(19)
O7 O 0.5929(3) 0.01619(11) 0.25365(19)
C36 C 0.9004(4) 0.02655(16) 0.4357(3)
H24 H 0.8334 0.0443 0.3922
N9 N 0.4735(3) 0.10694(13) 0.3519(2)
C29 C 0.3841(4) 0.00489(16) 0.9288(3)
H19 H 0.3062 0.0083 0.8810
C41 C 0.3997(4) 0.08894(16) 0.6379(3)
H27 H 0.3220 0.0680 0.6326
C42 C 0.3853(5) 0.14327(17) 0.6406(3)
H28 H 0.3000 0.1583 0.6380
C43 C 0.4988(5) 0.17568(17) 0.6473(3)
C44 C 0.6240(5) 0.15055(17) 0.6547(3)
H29 H 0.7038 0.1704 0.6617
C45 C 0.6272(5) 0.09572(17) 0.6515(3)
H30 H 0.7116 0.0794 0.6559
C46 C 0.5734(6) 0.26974(18) 0.6447(4)
C47 C 0.5287(5) 0.32602(17) 0.6547(3)
C48 C 0.3939(5) 0.34077(18) 0.6445(4)
H31 H 0.3256 0.3152 0.6281
C49 C 0.3592(5) 0.39319(18) 0.6582(4)
H32 H 0.2684 0.4030 0.6514
C50 C 0.4614(4) 0.43059(15) 0.6821(3)
C51 C 0.5954(4) 0.41712(17) 0.6919(3)
H33 H 0.6635 0.4428 0.7083
C52 C 0.6278(5) 0.36476(17) 0.6771(3)
H34 H 0.7187 0.3554 0.6824
C53 C 0.4720(4) 0.52809(16) 0.6897(3)
C54 C 0.4345(5) 0.56927(17) 0.7403(3)
H35 H 0.3848 0.5622 0.7852
C55 C 0.4698(5) 0.62069(18) 0.7250(3)
H36 H 0.4446 0.6483 0.7599
C56 C 0.5427(5) 0.63190(17) 0.6583(3)
C57 C 0.5827(5) 0.58961(18) 0.6094(4)
H37 H 0.6357 0.5962 0.5663
C58 C 0.5445(5) 0.53788(18) 0.6242(4)
H38 H 0.5684 0.5099 0.5894
C59 C 0.5824(5) 0.68746(17) 0.6367(4)
C60 C 0.5147(5) 0.78130(16) 0.6545(3)
C61 C 0.4327(5) 0.8134(2) 0.6944(4)
H39 H 0.3716 0.7980 0.7257
C62 C 0.4404(5) 0.86756(18) 0.6883(4)
H40 H 0.3811 0.8879 0.7143
C63 C 0.6048(5) 0.86180(17) 0.6103(4)
H41 H 0.6672 0.8780 0.5811
C64 C 0.6009(6) 0.80690(18) 0.6111(4)
H42 H 0.6577 0.7874 0.5817
N5 N 0.5184(3) 0.06413(13) 0.6424(2)
N6 N 0.4798(4) 0.23080(14) 0.6487(3)
H43 H 0.4001 0.2415 0.6526
N7 N 0.4995(4) 0.72611(14) 0.6600(3)
H44 H 0.4305 0.7151 0.6802
N8 N 0.5265(3) 0.89306(13) 0.6481(2)
O12 O 0.6880(4) 0.25967(13) 0.6378(3)
O13 O 0.4168(3) 0.47944(11) 0.7060(2)
O14 O 0.6761(4) 0.69669(13) 0.6017(3)
C1 C 0.6003(4) 0.91106(16) 0.3621(3)
H1 H 0.6780 0.9320 0.3674
C2 C 0.6147(5) 0.85673(17) 0.3594(3)
H2 H 0.7000 0.8417 0.3620
C3 C 0.5012(5) 0.82432(17) 0.3527(3)
C4 C 0.3760(5) 0.84945(17) 0.3453(3)
H3 H 0.2962 0.8296 0.3383
C5 C 0.3728(5) 0.90428(17) 0.3485(3)
H4 H 0.2884 0.9206 0.3441
C6 C 0.4266(6) 0.73026(18) 0.3553(4)
C7 C 0.4713(5) 0.67398(17) 0.3453(3)
C8 C 0.6061(5) 0.65923(18) 0.3555(4)
H5 H 0.6744 0.6848 0.3719
C9 C 0.6408(5) 0.60681(18) 0.3418(4)
H6 H 0.7316 0.5970 0.3486
C10 C 0.5386(4) 0.56941(15) 0.3179(3)
C11 C 0.4046(4) 0.58288(17) 0.3081(3)
H7 H 0.3365 0.5572 0.2917
C12 C 0.3722(5) 0.63524(17) 0.3229(3)
H8 H 0.2813 0.6446 0.3176
C13 C 0.5280(4) 0.47191(16) 0.3103(3)
C14 C 0.5655(5) 0.43073(17) 0.2597(3)
H9 H 0.6152 0.4378 0.2148
C15 C 0.5302(5) 0.37931(18) 0.2750(3)
H10 H 0.5554 0.3517 0.2401
C16 C 0.4573(5) 0.36810(17) 0.3417(3)
C17 C 0.4173(5) 0.41039(18) 0.3906(4)
H11 H 0.3643 0.4038 0.4337
C18 C 0.4555(5) 0.46212(18) 0.3758(4)
H12 H 0.4316 0.4901 0.4106
C19 C 0.4176(5) 0.31254(17) 0.3633(4)
C20 C 0.4853(5) 0.21870(16) 0.3455(3)
C21 C 0.5673(5) 0.1866(2) 0.3056(4)
H13 H 0.6284 0.2020 0.2743
C22 C 0.5596(5) 0.13244(18) 0.3117(4)
H14 H 0.6189 0.1121 0.2857
C23 C 0.3952(5) 0.13820(17) 0.3897(4)
H15 H 0.3328 0.1220 0.4189
C24 C 0.3991(6) 0.19310(18) 0.3889(4)
H16 H 0.3423 0.2126 0.4183
C27 C 0.9669(4) 0.97376(16) 0.5744(3)
H17 H 0.9449 0.9559 0.6245
N1 N 0.4816(3) 0.93587(13) 0.3576(2)
N2 N 0.5202(4) 0.76920(14) 0.3513(3)
H21 H 0.5999 0.7585 0.3474
N3 N 0.5005(4) 0.27389(14) 0.3400(3)
H22 H 0.5695 0.2849 0.3198
O1 O 0.3120(4) 0.74033(13) 0.3622(3)
O2 O 0.5832(3) 0.52056(11) 0.2940(2)
O3 O 0.3239(4) 0.30331(13) 0.3983(3)
O4 O 0.6987(3) 0.97624(10) 0.59217(18)
C37 C 0.6159(4) 0.99511(16) 0.0712(3)
H25 H 0.6938 0.9917 0.1190
C38 C 0.6245(4) 0.98898(16) 0.9793(3)
H26 H 0.7082 0.9817 0.9652
C39 C 0.5080(4) 0.99372(15) 0.9077(3)
C40 C 0.5155(4) 0.98643(15) 0.8080(3)
O10 O 0.6302(3) 0.98272(11) 0.78801(19)
O11 O 0.4071(3) 0.98381(11) 0.74635(19)
C53_2 C 0.0280(4) 0.02809(16) 0.8103(3)
C54_2 C 0.0655(5) 0.06927(17) 0.7597(3)
H35_2 H 0.1152 0.0622 0.7148
C55_2 C 0.0302(5) 0.12069(18) 0.7750(3)
H36_2 H 0.0554 0.1483 0.7401
C61_2 C 0.0673(5) 0.3134(2) 0.8056(4)
H39_2 H 0.1284 0.2980 0.7743
C62_2 C 0.0596(5) 0.36756(18) 0.8117(4)
H40_2 H 0.1189 0.3879 0.7857
N7_2 N 0.0005(4) 0.22611(14) 0.8400(3)
H44_2 H 0.0695 0.2151 0.8198
Co1 Co 0.02710(5) 0.52123(2) 0.14107(3)
C4_2 C 0.1240(5) 0.34945(17) 0.1547(3)
H3_2 H 0.2038 0.3296 0.1617
C5_2 C 0.1272(5) 0.40428(17) 0.1515(3)
H4_2 H 0.2116 0.4206 0.1559
C6_2 C 0.0734(6) 0.23026(18) 0.1447(4)
C7_2 C 0.0287(5) 0.17398(17) 0.1547(3)
C11_2 C 0.0954(4) 0.08288(17) 0.1919(3)
H7_2 H 0.1635 0.0572 0.2083
C12_2 C 0.1278(5) 0.13524(17) 0.1771(3)
H8_2 H 0.2187 0.1446 0.1824
C29_2 C 0.1159(4) 0.50489(16) 0.5712(3)
H19_2 H 0.1938 0.5083 0.6190
C30_2 C 0.1245(4) 0.51102(16) 0.4793(3)
H20_2 H 0.2082 0.5183 0.4652
C31_2 C 0.0080(4) 0.50628(15) 0.4077(3)
C32_2 C 0.0155(4) 0.51357(15) 0.3080(3)
N1_2 N 0.0184(3) 0.43587(13) 0.1424(2)
O1_2 O 0.1880(4) 0.24033(13) 0.1378(3)
O6_2 O 0.1302(3) 0.51728(11) 0.28801(19)
O11_2 O 0.0929(3) 0.48381(11) 0.75365(19)
C41_2 C 0.1003(4) 0.58894(16) 0.8621(3)
H27_2 H 0.1780 0.5680 0.8674
C42_2 C 0.1147(5) 0.64327(17) 0.8594(3)
H28_2 H 0.2000 0.6583 0.8620
C43_2 C 0.0012(5) 0.67568(17) 0.8527(3)
C48_2 C 0.1061(5) 0.84077(18) 0.8555(4)
H31_2 H 0.1744 0.8152 0.8719
C49_2 C 0.1408(5) 0.89319(18) 0.8418(4)
H32_2 H 0.2316 0.9030 0.8486
C50_2 C 0.0386(4) 0.93059(15) 0.8179(3)
N6_2 N 0.0202(4) 0.73080(14) 0.8513(3)
H43_2 H 0.0999 0.7415 0.8474
O13_2 O 0.0832(3) 0.97944(11) 0.7940(2)
N9_2 N 0.0265(3) 0.60694(13) 0.1481(2)
O16 O 0.1987(3) 0.52376(10) 0.09217(18)
O17 O 0.1365(3) 0.47256(10) 0.96540(19)
C16_2 C 0.0427(5) 0.86810(17) 0.1583(3)
C17_2 C 0.0827(5) 0.91039(18) 0.1094(4)
H11_2 H 0.1357 0.9038 0.0663
C18_2 C 0.0445(5) 0.96212(18) 0.1242(4)
H12_2 H 0.0684 0.9901 0.0894
C19_2 C 0.0824(5) 0.81254(17) 0.1367(4)
C20_2 C 0.0147(5) 0.71870(16) 0.1545(3)
C23_2 C 0.1048(5) 0.63820(17) 0.1103(4)
H15_2 H 0.1672 0.6220 0.0811
C24_2 C 0.1009(6) 0.69310(18) 0.1111(4)
H16_2 H 0.1577 0.7126 0.0817
O3_2 O 0.1761(4) 0.80331(13) 0.1017(3)
C56_2 C 0.9573(5) 0.13190(17) 0.8417(3)
C57_2 C 0.9173(5) 0.08961(18) 0.8906(4)
H37_2 H 0.8643 0.0962 0.9337
C58_2 C 0.9555(5) 0.03788(18) 0.8758(4)
H38_2 H 0.9316 0.0099 0.9106
C59_2 C 0.9176(5) 0.18746(17) 0.8633(4)
C60_2 C 0.9853(5) 0.28130(16) 0.8455(3)
C63_2 C 0.8952(5) 0.36180(17) 0.8897(4)
H41_2 H 0.8328 0.3780 0.9189
C64_2 C 0.8991(6) 0.30690(18) 0.8889(4)
H42_2 H 0.8423 0.2874 0.9183
N8_2 N 0.9735(3) 0.39306(13) 0.8519(2)
O14_2 O 0.8239(4) 0.19669(13) 0.8983(3)
Co6 Co 0.97290(5) 0.47877(2) 0.85893(3)
C1_2 C 0.8997(4) 0.41106(16) 0.1379(3)
H1_2 H 0.8220 0.4320 0.1326
C2_2 C 0.8853(5) 0.35673(17) 0.1406(3)
H2_2 H 0.8000 0.3417 0.1380
C3_2 C 0.9988(5) 0.32432(17) 0.1473(3)
C8_2 C 0.8939(5) 0.15923(18) 0.1445(4)
H5_2 H 0.8256 0.1848 0.1281
C9_2 C 0.8592(5) 0.10681(18) 0.1582(4)
H6_2 H 0.7684 0.0970 0.1514
C10_2 C 0.9614(4) 0.06941(15) 0.1821(3)
N2_2 N 0.9798(4) 0.26920(14) 0.1487(3)
H21_2 H 0.9001 0.2585 0.1526
O2_2 O 0.9168(3) 0.02056(11) 0.2060(2)
O5_2 O 0.8635(3) 0.52744(10) 0.03460(19)
O7_2 O 0.9071(3) 0.51619(11) 0.24635(19)
C33_2 C 0.2221(4) 0.49857(15) 0.0229(3)
C34_2 C 0.3660(4) 0.49964(15) 0.0110(3)
C35_2 C 0.4669(4) 0.52624(16) 0.0744(3)
H23_2 H 0.4449 0.5441 0.1245
C36_2 C 0.5996(4) 0.52655(16) 0.0643(3)
H24_2 H 0.6666 0.5443 0.1078
C37_2 C 0.8841(4) 0.49511(16) 0.4288(3)
H25_2 H 0.8062 0.4917 0.3810
C38_2 C 0.8755(4) 0.48898(16) 0.5207(3)
H26_2 H 0.7918 0.4817 0.5348
C39_2 C 0.9920(4) 0.49372(15) 0.5923(3)
C40_2 C 0.9845(4) 0.48643(15) 0.6920(3)
O10_2 O 0.8698(3) 0.48272(11) 0.71199(19)
C44_2 C 0.8760(5) 0.65055(17) 0.8453(3)
H29_2 H 0.7962 0.6704 0.8383
C45_2 C 0.8728(5) 0.59572(17) 0.8485(3)
H30_2 H 0.7884 0.5794 0.8441
C46_2 C 0.9266(6) 0.76974(18) 0.8553(4)
C47_2 C 0.9713(5) 0.82602(17) 0.8453(3)
C51_2 C 0.9046(4) 0.91712(17) 0.8081(3)
H33_2 H 0.8365 0.9428 0.7917
C52_2 C 0.8722(5) 0.86476(17) 0.8229(3)
H34_2 H 0.7813 0.8554 0.8176
N5_2 N 0.9816(3) 0.56413(13) 0.8576(2)
O12_2 O 0.8120(4) 0.75967(13) 0.8622(3)
O15 O 0.8013(3) 0.47624(10) 0.90783(18)
C25_2 C 0.7779(4) 0.50143(15) 0.9771(3)
C26_2 C 0.6340(4) 0.50036(15) 0.9890(3)
C27_2 C 0.5331(4) 0.47376(16) 0.9256(3)
H17_2 H 0.5551 0.4559 0.8755
C28_2 C 0.4004(4) 0.47345(16) 0.9357(3)
H18_2 H 0.3334 0.4557 0.8922
C13_2 C 0.9720(4) 0.97191(16) 0.1897(3)
C14_2 C 0.9345(5) 0.93073(17) 0.2403(3)
H9_2 H 0.8848 0.9378 0.2852
C15_2 C 0.9698(5) 0.87931(18) 0.2250(3)
H10_2 H 0.9446 0.8517 0.2599
C21_2 C 0.9327(5) 0.6866(2) 0.1944(4)
H13_2 H 0.8716 0.7020 0.2257
C22_2 C 0.9404(5) 0.63244(18) 0.1883(4)
H14_2 H 0.8811 0.6121 0.2143
N3_2 N 0.9995(4) 0.77389(14) 0.1600(3)
H22_2 H 0.9305 0.7849 0.1802
loop_
_geom_bond_atom_site_label_1
_geom_bond_atom_site_label_2
_geom_bond_site_symmetry_1
_geom_bond_site_symmetry_2
H23 C35 1_555 1_555
Co4 O8 1_555 1_555
H18 C28 1_555 1_555
C33 C34 1_555 1_555
C34 C28 1_555 1_555
O9 C33 1_555 1_555
Co7 O9 1_555 1_555
C25 C26 1_555 1_555
H20 C30 1_555 1_555
C31 C30 1_555 1_555
C32 C31 1_555 1_555
O5 Co4 1_555 1_555
O6 Co4 1_555 1_555
O7 Co4 1_555 1_555
C36 C26 1_555 1_555
H24 C36 1_555 1_555
N9 Co4 1_555 1_555
C25 O5 1_555 1_555
C32 O6 1_555 1_555
C32 O7 1_555 1_555
C29 H19 1_555 1_555
C41 H27 1_555 1_555
C42 C41 1_555 1_555
H28 C42 1_555 1_555
C43 C42 1_555 1_555
C44 C43 1_555 1_555
H29 C44 1_555 1_555
C45 C44 1_555 1_555
H30 C45 1_555 1_555
C46 C47 1_555 1_555
C47 C48 1_555 1_555
C48 H31 1_555 1_555
C49 C48 1_555 1_555
H32 C49 1_555 1_555
C50 C49 1_555 1_555
C51 C50 1_555 1_555
H33 C51 1_555 1_555
C52 C47 1_555 1_555
H34 C52 1_555 1_555
C53 C54 1_555 1_555
C54 H35 1_555 1_555
C55 C54 1_555 1_555
H36 C55 1_555 1_555
C56 C55 1_555 1_555
C57 C56 1_555 1_555
H37 C57 1_555 1_555
C58 C53 1_555 1_555
H38 C58 1_555 1_555
C59 C56 1_555 1_555
C60 C61 1_555 1_555
C61 H39 1_555 1_555
C62 C61 1_555 1_555
H40 C62 1_555 1_555
C63 H41 1_555 1_555
C64 C60 1_555 1_555
H42 C64 1_555 1_555
N6 C43 1_555 1_555
H43 N6 1_555 1_555
N7 C59 1_555 1_555
H44 N7 1_555 1_555
N8 C62 1_555 1_555
O12 C46 1_555 1_555
O13 C50 1_555 1_555
O14 C59 1_555 1_555
Co7 N8 1_555 1_555
C41 N5 1_555 1_555
C45 N5 1_555 1_555
C46 N6 1_555 1_555
C51 C52 1_555 1_555
C53 O13 1_555 1_555
C57 C58 1_555 1_555
C60 N7 1_555 1_555
C63 C64 1_555 1_555
C63 N8 1_555 1_555
C1 H1 1_555 1_555
C2 C1 1_555 1_555
H2 C2 1_555 1_555
C3 C2 1_555 1_555
C4 C3 1_555 1_555
H3 C4 1_555 1_555
C5 C4 1_555 1_555
H4 C5 1_555 1_555
C6 C7 1_555 1_555
C7 C8 1_555 1_555
C8 H5 1_555 1_555
C9 C8 1_555 1_555
H6 C9 1_555 1_555
C10 C9 1_555 1_555
C11 C10 1_555 1_555
H7 C11 1_555 1_555
C12 C7 1_555 1_555
H8 C12 1_555 1_555
C13 C14 1_555 1_555
C14 H9 1_555 1_555
C15 C14 1_555 1_555
H10 C15 1_555 1_555
C16 C15 1_555 1_555
C17 C16 1_555 1_555
H11 C17 1_555 1_555
C18 C13 1_555 1_555
H12 C18 1_555 1_555
C19 C16 1_555 1_555
C20 C21 1_555 1_555
C21 H13 1_555 1_555
C22 C21 1_555 1_555
H14 C22 1_555 1_555
C23 H15 1_555 1_555
C24 C20 1_555 1_555
H16 C24 1_555 1_555
C27 H17 1_555 1_555
N1 C1 1_555 1_555
N2 C3 1_555 1_555
H21 N2 1_555 1_555
N3 C19 1_555 1_555
H22 N3 1_555 1_555
N9 C22 1_555 1_555
O1 C6 1_555 1_555
O2 C10 1_555 1_555
O3 C19 1_555 1_555
H25 C37 1_555 1_555
Co7 O4 1_555 1_555
C5 N1 1_555 1_555
C6 N2 1_555 1_555
C11 C12 1_555 1_555
C13 O2 1_555 1_555
C17 C18 1_555 1_555
C20 N3 1_555 1_555
C23 C24 1_555 1_555
C23 N9 1_555 1_555
H26 C38 1_555 1_555
C40 C39 1_555 1_555
O10 C40 1_555 1_555
O11 C40 1_555 1_555
Co7 O10 1_555 1_555
C38 C39 1_555 1_555
O11 Co7 1_555 1_555
C53_2 C54_2 1_555 1_555
C54_2 H35_2 1_555 1_555
C55_2 C54_2 1_555 1_555
H36_2 C55_2 1_555 1_555
C61_2 H39_2 1_555 1_555
C62_2 C61_2 1_555 1_555
H40_2 C62_2 1_555 1_555
H44_2 N7_2 1_555 1_555
Co1 N1_2 1_555 1_555
H3_2 C4_2 1_555 1_555
C5_2 C4_2 1_555 1_555
H4_2 C5_2 1_555 1_555
C6_2 C7_2 1_555 1_555
H7_2 C11_2 1_555 1_555
C12_2 C7_2 1_555 1_555
H8_2 C12_2 1_555 1_555
C29_2 H19_2 1_555 1_555
C30_2 C29_2 1_555 1_555
H20_2 C30_2 1_555 1_555
C31_2 C30_2 1_555 1_555
C32_2 C31_2 1_555 1_555
O1_2 C6_2 1_555 1_555
O6_2 Co1 1_555 1_555
C41_2 H27_2 1_555 1_555
C42_2 C41_2 1_555 1_555
H28_2 C42_2 1_555 1_555
C43_2 C42_2 1_555 1_555
C48_2 H31_2 1_555 1_555
C49_2 C48_2 1_555 1_555
H32_2 C49_2 1_555 1_555
C50_2 C49_2 1_555 1_555
N6_2 C43_2 1_555 1_555
H43_2 N6_2 1_555 1_555
O13_2 C50_2 1_555 1_555
N9_2 Co1 1_555 1_555
O16 Co1 1_555 1_555
C5_2 N1_2 1_555 1_555
C11_2 C12_2 1_555 1_555
C32_2 O6_2 1_555 1_555
C17_2 C16_2 1_555 1_555
H11_2 C17_2 1_555 1_555
H12_2 C18_2 1_555 1_555
C19_2 C16_2 1_555 1_555
C23_2 H15_2 1_555 1_555
C24_2 C20_2 1_555 1_555
H16_2 C24_2 1_555 1_555
O3_2 C19_2 1_555 1_555
C17_2 C18_2 1_555 1_555
C23_2 C24_2 1_555 1_555
C23_2 N9_2 1_555 1_555
C57_2 C56_2 1_555 1_555
H37_2 C57_2 1_555 1_555
H38_2 C58_2 1_555 1_555
C59_2 C56_2 1_555 1_555
C63_2 H41_2 1_555 1_555
C64_2 C60_2 1_555 1_555
H42_2 C64_2 1_555 1_555
O14_2 C59_2 1_555 1_555
Co6 N8_2 1_555 1_555
C57_2 C58_2 1_555 1_555
C63_2 C64_2 1_555 1_555
C63_2 N8_2 1_555 1_555
C1_2 H1_2 1_555 1_555
C2_2 C1_2 1_555 1_555
H2_2 C2_2 1_555 1_555
C3_2 C2_2 1_555 1_555
C8_2 H5_2 1_555 1_555
C9_2 C8_2 1_555 1_555
H6_2 C9_2 1_555 1_555
C10_2 C9_2 1_555 1_555
N2_2 C3_2 1_555 1_555
H21_2 N2_2 1_555 1_555
O2_2 C10_2 1_555 1_555
C33_2 C34_2 1_555 1_555
C35_2 C34_2 1_555 1_555
H23_2 C35_2 1_555 1_555
H24_2 C36_2 1_555 1_555
O16 C33_2 1_555 1_555
H25_2 C37_2 1_555 1_555
C38_2 C37_2 1_555 1_555
H26_2 C38_2 1_555 1_555
C40_2 C39_2 1_555 1_555
O10_2 C40_2 1_555 1_555
Co6 O10_2 1_555 1_555
H29_2 C44_2 1_555 1_555
C45_2 C44_2 1_555 1_555
H30_2 C45_2 1_555 1_555
C46_2 C47_2 1_555 1_555
H33_2 C51_2 1_555 1_555
C52_2 C47_2 1_555 1_555
H34_2 C52_2 1_555 1_555
N5_2 Co6 1_555 1_555
O12_2 C46_2 1_555 1_555
O15 Co6 1_555 1_555
C35_2 C36_2 1_555 1_555
C38_2 C39_2 1_555 1_555
C45_2 N5_2 1_555 1_555
C51_2 C52_2 1_555 1_555
C25_2 C26_2 1_555 1_555
C26_2 C27_2 1_555 1_555
C27_2 H17_2 1_555 1_555
C28_2 C27_2 1_555 1_555
H18_2 C28_2 1_555 1_555
O15 C25_2 1_555 1_555
C13_2 C14_2 1_555 1_555
C14_2 H9_2 1_555 1_555
C15_2 C14_2 1_555 1_555
H10_2 C15_2 1_555 1_555
C21_2 H13_2 1_555 1_555
C22_2 C21_2 1_555 1_555
H14_2 C22_2 1_555 1_555
H22_2 N3_2 1_555 1_555

#END
