
###############################################################################
#
# This file contains modified crystal structure data generated from the
# MOF subset of the Cambridge Structural Database (CSD) v543 
# hosted by the Cambridge Crystallographic Data Centre (CCDC).
#
# This work is licensed under the Creative Commons
# Attribution-NonCommercial-ShareAlike 4.0 International License.
# To view a copy of this license, visit
# http://creativecommons.org/licenses/by-nc-sa/4.0/
# or send a letter to
# Creative Commons, PO Box 1866, Mountain View, CA 94042, USA.
#
# CIF created using the CSD Python API on 29 September 2022
# The structure has been converted into the P1 space group
# The structure has a 3D framework
# The original CSD entry ARUPUB is in the monoclinic crystal system
# The framework has been calculated to contain at least 10.0% void space
# The void calculation uses a probe of radius 1.32A, grid spacing 0.4
#
###############################################################################

data_ARUPUB
_chemical_formula_moiety         '(C176 H120 N8 O20 Zn4)n'
_symmetry_cell_setting           triclinic
_symmetry_space_group_name_H-M   'P 1'
_symmetry_Int_Tables_number      1
_space_group_name_Hall           'P 1'
loop_
_symmetry_equiv_pos_site_id
_symmetry_equiv_pos_as_xyz
1 x,y,z
_cell_length_a                   22.0754(8)
_cell_length_b                   11.5498(4)
_cell_length_c                   20.1047(7)
_cell_angle_alpha                90
_cell_angle_beta                 107.8460(10)
_cell_angle_gamma                90
_cell_volume                     4879.38
loop_
_atom_site_label
_atom_site_type_symbol
_atom_site_fract_x
_atom_site_fract_y
_atom_site_fract_z
Zn2 Zn 0.00059(2) 0.41247(3) 0.58532(2)
O1 O 0.01410(14) 0.6964(2) 0.49537(14)
N1 N 0.10052(18) 0.4069(4) 0.5979(2)
N2 N 0.90275(16) 0.3788(3) 0.57914(17)
C1 C 0.1346(2) 0.4906(5) 0.5814(2)
H2 H 0.114522 0.562761 0.566106
C2 C 0.1975(2) 0.4781(6) 0.5853(3)
H3 H 0.219504 0.540764 0.572527
C3 C 0.2288(3) 0.3752(6) 0.6076(3)
C4 C 0.1951(3) 0.2917(7) 0.6302(5)
H4 H 0.215036 0.221131 0.649398
C5 C 0.1320(3) 0.3114(7) 0.6246(4)
H5 H 0.109739 0.253027 0.640985
C6 C 0.3238(3) 0.4123(6) 0.5666(4)
H6 H 0.299834 0.469235 0.535439
C7 C 0.3860(3) 0.3898(7) 0.5688(4)
H7 H 0.404343 0.431307 0.538876
C8 C 0.4221(3) 0.3067(7) 0.6145(3)
C9 C 0.3945(3) 0.2467(8) 0.6584(4)
H8 H 0.418967 0.191522 0.690548
C10 C 0.3319(3) 0.2670(7) 0.6555(4)
H9 H 0.313195 0.223647 0.684234
C11 C 0.2961(3) 0.3518(7) 0.6100(3)
C12 C 0.4912(3) 0.2870(8) 0.6212(4)
C13 C 0.5122(3) 0.2785(7) 0.5653(4)
C14 C 0.5810(3) 0.2906(7) 0.5706(3)
C15 C 0.6087(3) 0.2167(7) 0.5329(4)
H10 H 0.584166 0.156446 0.505206
C16 C 0.6721(3) 0.2314(7) 0.5359(3)
H11 H 0.690902 0.179188 0.511506
C17 C 0.7085(3) 0.3225(6) 0.5745(3)
C18 C 0.6798(3) 0.3960(7) 0.6112(3)
H12 H 0.703422 0.458475 0.637489
C19 C 0.6173(3) 0.3787(8) 0.6096(4)
H13 H 0.598981 0.428511 0.635827
C20 C 0.5689(5) 0.1749(11) 0.7118(5)
H14 H 0.570574 0.126102 0.674331
C21 C 0.6047(6) 0.1366(13) 0.7815(7)
H15 H 0.626532 0.064845 0.792469
C22 C 0.6021(6) 0.2214(13) 0.8299(7)
H16 H 0.625355 0.205405 0.877252
C23 C 0.5698(6) 0.3263(13) 0.8176(6)
H17 H 0.572873 0.379929 0.854302
C24 C 0.5312(4) 0.3510(10) 0.7462(5)
H18 H 0.505271 0.418296 0.735191
C25 C 0.5337(4) 0.2712(9) 0.6941(4)
C26 C 0.7758(2) 0.3413(6) 0.5762(3)
C27 C 0.8086(3) 0.4427(6) 0.6029(3)
H19 H 0.787791 0.501839 0.620495
C28 C 0.8709(2) 0.4578(4) 0.6039(3)
H20 H 0.892138 0.527400 0.623110
C29 C 0.8716(2) 0.2806(4) 0.5538(2)
H21 H 0.893539 0.222994 0.536408
C30 C 0.8094(2) 0.2585(5) 0.5516(3)
H22 H 0.789793 0.187206 0.533392
C31 C 0.4692(3) 0.2562(7) 0.4934(4)
C32 C 0.4716(4) 0.3247(9) 0.4366(4)
H23 H 0.499625 0.389140 0.443868
C33 C 0.4324(5) 0.2975(10) 0.3690(5)
H24 H 0.434204 0.342791 0.330227
C34 C 0.3904(5) 0.2026(10) 0.3590(6)
H25 H 0.363369 0.185556 0.313250
C35 C 0.3876(5) 0.1337(10) 0.4143(5)
H26 H 0.360298 0.068240 0.406800
C36 C 0.4266(4) 0.1631(9) 0.4826(5)
H27 H 0.423663 0.119106 0.521447
C38 C 0.0082(2) 0.8853(3) 0.5765(2)
H28 H 0.013246 0.898326 0.531864
C39 C 0.00093(19) 0.7738(3) 0.59842(19)
C42 C 0.0081(2) 0.9783(3) 0.6209(2)
C43 C 0.0006(2) 0.9586(3) 0.6859(2)
O7 O 0.02024(14) 0.4170(2) 0.68855(13)
O2 O 0.98117(15) 0.5779(2) 0.56498(15)
O4 O 0.97976(14) 0.9170(2) 0.81145(13)
O5 O 0.99437(19) 0.7280(2) 0.80374(15)
C37 C 0.99890(17) 0.6754(3) 0.54955(18)
C40 C 0.99423(19) 0.7531(3) 0.66381(18)
H29 H 0.989658 0.676276 0.678387
C41 C 0.99429(18) 0.8459(3) 0.70768(18)
C44 C 0.98861(19) 0.8272(3) 0.77956(19)
Zn3 Zn 0.99941(2) 0.91247(3) 0.91468(2)
Zn4 Zn 0.99941(2) 0.58753(3) 0.41468(2)
O6 O 0.98590(14) 0.3036(2) 0.50463(14)
Zn4_2 Zn 0.00059(2) 0.08753(3) 0.08532(2)
O2_2 O 0.01883(15) 0.0779(2) 0.93502(15)
O5_2 O 0.00563(19) 0.2280(2) 0.69626(15)
C37_2 C 0.00110(17) 0.1754(3) 0.95045(18)
C40_2 C 0.00577(19) 0.2531(3) 0.83619(18)
H29_2 H 0.010342 0.176276 0.821613
C41_2 C 0.00571(18) 0.3459(3) 0.79232(18)
H30 H 0.000136 0.522053 0.784265
C44_2 C 0.01139(19) 0.3272(3) 0.72044(19)
O6_2 O 0.01410(14) 0.8036(2) 0.99537(14)
N3 N 0.09725(16) 0.8788(3) 0.92086(17)
O1_2 O 0.98590(14) 0.1964(2) 0.00463(14)
N1_2 N 0.89948(18) 0.9069(4) 0.9021(2)
C1_2 C 0.8654(2) 0.9906(5) 0.9186(2)
C2_2 C 0.8025(2) 0.9781(6) 0.9147(3)
C3_2 C 0.7712(3) 0.8752(6) 0.8924(3)
C4_2 C 0.8049(3) 0.7917(7) 0.8698(5)
H4_2 H 0.784964 0.721131 0.850602
C5_2 C 0.8680(3) 0.8114(7) 0.8754(4)
H5_2 H 0.890261 0.753027 0.859015
C6_2 C 0.6762(3) 0.9123(6) 0.9334(4)
H6_2 H 0.700166 0.969235 0.964561
C7_2 C 0.6140(3) 0.8898(7) 0.9312(4)
H7_2 H 0.595657 0.931307 0.961124
C8_2 C 0.5779(3) 0.8067(7) 0.8855(3)
C9_2 C 0.6055(3) 0.7467(8) 0.8416(4)
H8_2 H 0.581033 0.691522 0.809452
C10_2 C 0.6681(3) 0.7670(7) 0.8445(4)
H9_2 H 0.686805 0.723647 0.815766
C11_2 C 0.7039(3) 0.8518(7) 0.8900(3)
C12_2 C 0.5088(3) 0.7870(8) 0.8788(4)
C13_2 C 0.4878(3) 0.7785(7) 0.9347(4)
C14_2 C 0.4190(3) 0.7906(7) 0.9294(3)
C15_2 C 0.3913(3) 0.7167(7) 0.9671(4)
H10_2 H 0.415834 0.656446 0.994794
C16_2 C 0.3279(3) 0.7314(7) 0.9641(3)
H11_2 H 0.309098 0.679188 0.988494
C17_2 C 0.2915(3) 0.8225(6) 0.9255(3)
C18_2 C 0.3202(3) 0.8960(7) 0.8888(3)
H12_2 H 0.296578 0.958475 0.862511
C19_2 C 0.3827(3) 0.8787(8) 0.8904(4)
H13_2 H 0.401019 0.928511 0.864173
C20_2 C 0.4311(5) 0.6749(11) 0.7882(5)
H14_2 H 0.429426 0.626102 0.825669
C21_2 C 0.3953(6) 0.6366(13) 0.7185(7)
H15_2 H 0.373468 0.564845 0.707531
C22_2 C 0.3979(6) 0.7214(13) 0.6701(7)
H16_2 H 0.374645 0.705405 0.622748
C23_2 C 0.4302(6) 0.8263(13) 0.6824(6)
H17_2 H 0.427127 0.879929 0.645698
C24_2 C 0.4688(4) 0.8510(10) 0.7538(5)
H18_2 H 0.494729 0.918296 0.764809
C25_2 C 0.4663(4) 0.7712(9) 0.8059(4)
C26_2 C 0.2242(2) 0.8413(6) 0.9238(3)
C27_2 C 0.1914(3) 0.9427(6) 0.8971(3)
C28_2 C 0.1291(2) 0.9578(4) 0.8961(3)
C29_2 C 0.1284(2) 0.7806(4) 0.9462(2)
H21_2 H 0.106461 0.722994 0.963592
C30_2 C 0.1906(2) 0.7585(5) 0.9484(3)
H22_2 H 0.210207 0.687206 0.966608
H27_2 H 0.576337 0.619106 0.978553
O2_3 O 0.01883(15) 0.4221(2) 0.43502(15)
O4_2 O 0.02024(14) 0.0830(2) 0.18855(13)
O5_3 O 0.00563(19) 0.2720(2) 0.19626(15)
C37_3 C 0.00110(17) 0.3246(3) 0.45045(18)
C40_3 C 0.00577(19) 0.2469(3) 0.33619(18)
H29_3 H 0.010342 0.323724 0.321613
C41_3 C 0.00571(18) 0.1541(3) 0.29232(18)
C44_3 C 0.01139(19) 0.1728(3) 0.22044(19)
N3_2 N 0.09725(16) 0.6212(3) 0.42086(17)
N1_3 N 0.89948(18) 0.5931(4) 0.4021(2)
C1_3 C 0.8654(2) 0.5094(5) 0.4186(2)
H2_2 H 0.885478 0.437239 0.433894
C2_3 C 0.8025(2) 0.5219(6) 0.4147(3)
H3_2 H 0.780496 0.459236 0.427473
C3_3 C 0.7712(3) 0.6248(6) 0.3924(3)
C4_3 C 0.8049(3) 0.7083(7) 0.3698(5)
H4_3 H 0.784964 0.778869 0.350602
C5_3 C 0.8680(3) 0.6886(7) 0.3754(4)
H5_3 H 0.890261 0.746973 0.359015
C6_3 C 0.6762(3) 0.5877(6) 0.4334(4)
H6_3 H 0.700166 0.530765 0.464561
C7_3 C 0.6140(3) 0.6102(7) 0.4312(4)
H7_3 H 0.595657 0.568693 0.461124
C8_3 C 0.5779(3) 0.6933(7) 0.3855(3)
C9_3 C 0.6055(3) 0.7533(8) 0.3416(4)
H8_3 H 0.581033 0.808478 0.309452
C10_3 C 0.6681(3) 0.7330(7) 0.3445(4)
H9_3 H 0.686805 0.776353 0.315766
C11_3 C 0.7039(3) 0.6482(7) 0.3900(3)
C12_3 C 0.5088(3) 0.7130(8) 0.3788(4)
C13_3 C 0.4878(3) 0.7215(7) 0.4347(4)
C14_3 C 0.4190(3) 0.7094(7) 0.4294(3)
C15_3 C 0.3913(3) 0.7833(7) 0.4671(4)
H10_3 H 0.415834 0.843554 0.494794
C16_3 C 0.3279(3) 0.7686(7) 0.4641(3)
H11_3 H 0.309098 0.820812 0.488494
C17_3 C 0.2915(3) 0.6775(6) 0.4255(3)
C18_3 C 0.3202(3) 0.6040(7) 0.3888(3)
H12_3 H 0.296578 0.541525 0.362511
C19_3 C 0.3827(3) 0.6213(8) 0.3904(4)
H13_3 H 0.401019 0.571489 0.364173
C20_3 C 0.4311(5) 0.8251(11) 0.2882(5)
H14_3 H 0.429426 0.873898 0.325669
C21_3 C 0.3953(6) 0.8634(13) 0.2185(7)
H15_3 H 0.373468 0.935155 0.207531
C22_3 C 0.3979(6) 0.7786(13) 0.1701(7)
H16_3 H 0.374645 0.794595 0.122748
C23_3 C 0.4302(6) 0.6737(13) 0.1824(6)
H17_3 H 0.427127 0.620071 0.145698
C24_3 C 0.4688(4) 0.6490(10) 0.2538(5)
H18_3 H 0.494729 0.581704 0.264809
C25_3 C 0.4663(4) 0.7288(9) 0.3059(4)
C26_3 C 0.2242(2) 0.6587(6) 0.4238(3)
C27_3 C 0.1914(3) 0.5573(6) 0.3971(3)
H19_2 H 0.212209 0.498161 0.379505
C28_3 C 0.1291(2) 0.5422(4) 0.3961(3)
H20_2 H 0.107862 0.472600 0.376890
C29_3 C 0.1284(2) 0.7194(4) 0.4462(2)
H21_3 H 0.106461 0.777006 0.463592
C30_3 C 0.1906(2) 0.7415(5) 0.4484(3)
H22_3 H 0.210207 0.812794 0.466608
C31_2 C 0.5308(3) 0.7438(7) 0.5066(4)
C32_2 C 0.5284(4) 0.6753(9) 0.5634(4)
H23_2 H 0.500375 0.610860 0.556132
C33_2 C 0.5676(5) 0.7025(10) 0.6310(5)
H24_2 H 0.565796 0.657209 0.669773
C34_2 C 0.6096(5) 0.7974(10) 0.6410(6)
H25_2 H 0.636631 0.814444 0.686750
C35_2 C 0.6124(5) 0.8663(10) 0.5857(5)
H26_2 H 0.639702 0.931760 0.593200
C36_2 C 0.5734(4) 0.8369(9) 0.5174(5)
H27_3 H 0.576337 0.880894 0.478553
C38_2 C 0.9918(2) 0.1147(3) 0.4235(2)
H28_2 H 0.986754 0.101674 0.468136
C39_2 C 0.99907(19) 0.2262(3) 0.40158(19)
C42_2 C 0.9919(2) 0.0217(3) 0.3791(2)
C43_2 C 0.9994(2) 0.0414(3) 0.3141(2)
O7_2 O 0.97976(14) 0.5830(2) 0.31145(13)
N1_4 N 0.10052(18) 0.0931(4) 0.0979(2)
N2_2 N 0.90275(16) 0.1212(3) 0.07914(17)
C1_4 C 0.1346(2) 0.0094(5) 0.0814(2)
C2_4 C 0.1975(2) 0.0219(6) 0.0853(3)
C3_4 C 0.2288(3) 0.1248(6) 0.1076(3)
C4_4 C 0.1951(3) 0.2083(7) 0.1302(5)
H4_4 H 0.215036 0.278869 0.149398
C5_4 C 0.1320(3) 0.1886(7) 0.1246(4)
H5_4 H 0.109739 0.246973 0.140985
C6_4 C 0.3238(3) 0.0877(6) 0.0666(4)
H6_4 H 0.299834 0.030765 0.035439
C7_4 C 0.3860(3) 0.1102(7) 0.0688(4)
H7_4 H 0.404343 0.068693 0.038876
C8_4 C 0.4221(3) 0.1933(7) 0.1145(3)
C9_4 C 0.3945(3) 0.2533(8) 0.1584(4)
H8_4 H 0.418967 0.308478 0.190548
C10_4 C 0.3319(3) 0.2330(7) 0.1555(4)
H9_4 H 0.313195 0.276353 0.184234
C11_4 C 0.2961(3) 0.1482(7) 0.1100(3)
C12_4 C 0.4912(3) 0.2130(8) 0.1212(4)
C13_4 C 0.5122(3) 0.2215(7) 0.0653(4)
C14_4 C 0.5810(3) 0.2094(7) 0.0706(3)
C15_4 C 0.6087(3) 0.2833(7) 0.0329(4)
H10_4 H 0.584166 0.343554 0.005206
C16_4 C 0.6721(3) 0.2686(7) 0.0359(3)
H11_4 H 0.690902 0.320812 0.011506
C17_4 C 0.7085(3) 0.1775(6) 0.0745(3)
C18_4 C 0.6798(3) 0.1040(7) 0.1112(3)
H12_4 H 0.703422 0.041525 0.137489
C19_4 C 0.6173(3) 0.1213(8) 0.1096(4)
H13_4 H 0.598981 0.071489 0.135827
C20_4 C 0.5689(5) 0.3251(11) 0.2118(5)
H14_4 H 0.570574 0.373898 0.174331
C21_4 C 0.6047(6) 0.3634(13) 0.2815(7)
H15_4 H 0.626532 0.435155 0.292469
C22_4 C 0.6021(6) 0.2786(13) 0.3299(7)
H16_4 H 0.625355 0.294595 0.377252
C23_4 C 0.5698(6) 0.1737(13) 0.3176(6)
H17_4 H 0.572873 0.120071 0.354302
C24_4 C 0.5312(4) 0.1490(10) 0.2462(5)
H18_4 H 0.505271 0.081704 0.235191
C25_4 C 0.5337(4) 0.2288(9) 0.1941(4)
C26_4 C 0.7758(2) 0.1587(6) 0.0762(3)
C27_4 C 0.8086(3) 0.0573(6) 0.1029(3)
C28_4 C 0.8709(2) 0.0422(4) 0.1039(3)
C29_4 C 0.8716(2) 0.2194(4) 0.0538(2)
H21_4 H 0.893539 0.277006 0.036408
C30_4 C 0.8094(2) 0.2415(5) 0.0516(3)
H22_4 H 0.789793 0.312794 0.033392
H27_4 H 0.423663 0.380894 0.021447
O2_4 O 0.98117(15) 0.9221(2) 0.06498(15)
O5_4 O 0.99437(19) 0.7720(2) 0.30374(15)
C37_4 C 0.99890(17) 0.8246(3) 0.04955(18)
C40_4 C 0.99423(19) 0.7469(3) 0.16381(18)
H29_4 H 0.989658 0.823724 0.178387
C41_4 C 0.99429(18) 0.6541(3) 0.20768(18)
H30_2 H 0.999864 0.477947 0.215735
C44_4 C 0.98861(19) 0.6728(3) 0.27956(19)
O3 O 0.0146(2) 0.0866(2) 0.59712(17)
H1 H 0.012106 0.135740 0.626989
H30_3 H 0.999864 0.022053 0.715735
O3_2 O 0.9854(2) 0.5866(2) 0.90288(17)
H1_2 H 0.987894 0.635740 0.873011
H2_3 H 0.885478 0.062761 0.933894
H3_3 H 0.780496 0.040764 0.927473
H19_3 H 0.212209 0.001839 0.879505
H20_3 H 0.107862 0.027400 0.876890
C38_3 C 0.9918(2) 0.3853(3) 0.9235(2)
H28_3 H 0.986754 0.398326 0.968136
C39_3 C 0.99907(19) 0.2738(3) 0.90158(19)
C42_3 C 0.9919(2) 0.4783(3) 0.8791(2)
C43_3 C 0.9994(2) 0.4586(3) 0.8141(2)
C31_3 C 0.5308(3) 0.7562(7) 0.0066(4)
C32_3 C 0.5284(4) 0.8247(9) 0.0634(4)
H23_3 H 0.500375 0.889140 0.056132
C33_3 C 0.5676(5) 0.7975(10) 0.1310(5)
H24_3 H 0.565796 0.842791 0.169773
C34_3 C 0.6096(5) 0.7026(10) 0.1410(6)
H25_3 H 0.636631 0.685556 0.186750
C35_3 C 0.6124(5) 0.6337(10) 0.0857(5)
H26_3 H 0.639702 0.568240 0.093200
C36_3 C 0.5734(4) 0.6631(9) 0.0174(5)
H30_4 H 0.000136 0.977947 0.284265
O3_3 O 0.9854(2) 0.9134(2) 0.40288(17)
H1_3 H 0.987894 0.864260 0.373011
C31_4 C 0.4692(3) 0.2438(7) 0.9934(4)
C32_4 C 0.4716(4) 0.1753(9) 0.9366(4)
H23_4 H 0.499625 0.110860 0.943868
C33_4 C 0.4324(5) 0.2025(10) 0.8690(5)
H24_4 H 0.434204 0.157209 0.830227
C34_4 C 0.3904(5) 0.2974(10) 0.8590(6)
H25_4 H 0.363369 0.314444 0.813250
C35_4 C 0.3876(5) 0.3663(10) 0.9143(5)
H26_4 H 0.360298 0.431760 0.906800
C36_4 C 0.4266(4) 0.3369(9) 0.9826(5)
O3_4 O 0.0146(2) 0.4134(2) 0.09712(17)
H1_4 H 0.012106 0.364260 0.126989
H2_4 H 0.114522 0.937239 0.066106
H3_4 H 0.219504 0.959236 0.072527
H19_4 H 0.787791 0.998161 0.120495
H20_4 H 0.892138 0.972600 0.123110
C38_4 C 0.0082(2) 0.6147(3) 0.0765(2)
H28_4 H 0.013246 0.601674 0.031864
C39_4 C 0.00093(19) 0.7262(3) 0.09842(19)
C42_4 C 0.0081(2) 0.5217(3) 0.1209(2)
C43_4 C 0.0006(2) 0.5414(3) 0.1859(2)
loop_
_geom_bond_atom_site_label_1
_geom_bond_atom_site_label_2
_geom_bond_site_symmetry_1
_geom_bond_site_symmetry_2
N1 Zn2 1_555 1_555
N2 C28 1_555 1_555
C1 N1 1_555 1_555
H2 C1 1_555 1_555
C2 C1 1_555 1_555
H3 C2 1_555 1_555
C3 C2 1_555 1_555
C4 C3 1_555 1_555
H4 C4 1_555 1_555
C5 N1 1_555 1_555
H5 C5 1_555 1_555
C6 H6 1_555 1_555
C7 C6 1_555 1_555
H7 C7 1_555 1_555
C8 C7 1_555 1_555
C9 C8 1_555 1_555
H8 C9 1_555 1_555
C10 C9 1_555 1_555
H9 C10 1_555 1_555
C11 C3 1_555 1_555
C12 C8 1_555 1_555
C13 C12 1_555 1_555
C14 C13 1_555 1_555
C15 C14 1_555 1_555
H10 C15 1_555 1_555
C16 C15 1_555 1_555
H11 C16 1_555 1_555
C17 C16 1_555 1_555
C18 C17 1_555 1_555
H12 C18 1_555 1_555
C19 C14 1_555 1_555
H13 C19 1_555 1_555
C20 H14 1_555 1_555
C21 C20 1_555 1_555
H15 C21 1_555 1_555
C22 C21 1_555 1_555
H16 C22 1_555 1_555
C23 C22 1_555 1_555
H17 C23 1_555 1_555
C24 C23 1_555 1_555
H18 C24 1_555 1_555
C25 C12 1_555 1_555
C26 C17 1_555 1_555
C27 C26 1_555 1_555
H19 C27 1_555 1_555
C28 C27 1_555 1_555
H20 C28 1_555 1_555
C29 N2 1_555 1_555
H21 C29 1_555 1_555
C30 C26 1_555 1_555
H22 C30 1_555 1_555
C31 C13 1_555 1_555
C32 C31 1_555 1_555
H23 C32 1_555 1_555
C33 C32 1_555 1_555
H24 C33 1_555 1_555
C34 C33 1_555 1_555
H25 C34 1_555 1_555
C35 C34 1_555 1_555
H26 C35 1_555 1_555
C36 C31 1_555 1_555
H27 C36 1_555 1_555
C38 H28 1_555 1_555
C39 C38 1_555 1_555
O7 Zn2 1_555 1_555
C4 C5 1_555 1_555
C6 C11 1_555 1_555
C10 C11 1_555 1_555
C18 C19 1_555 1_555
C20 C25 1_555 1_555
C24 C25 1_555 1_555
C29 C30 1_555 1_555
C35 C36 1_555 1_555
C38 C42 1_555 1_555
C42 C43 1_555 1_555
O2 C37 1_555 1_555
O4 C44 1_555 1_555
O5 C44 1_555 1_555
H29 C40 1_555 1_555
C41 C40 1_555 1_555
C44 C41 1_555 1_555
Zn3 O4 1_555 1_555
O2_2 C37_2 1_555 1_555
O7 C44_2 1_555 1_555
O5_2 C44_2 1_555 1_555
H29_2 C40_2 1_555 1_555
C41_2 C40_2 1_555 1_555
C44_2 C41_2 1_555 1_555
N1_2 Zn3 1_555 1_555
N3 C28_2 1_555 1_555
C1_2 N1_2 1_555 1_555
C2_2 C1_2 1_555 1_555
C3_2 C2_2 1_555 1_555
C4_2 C3_2 1_555 1_555
H4_2 C4_2 1_555 1_555
C5_2 N1_2 1_555 1_555
H5_2 C5_2 1_555 1_555
C6_2 H6_2 1_555 1_555
C7_2 C6_2 1_555 1_555
H7_2 C7_2 1_555 1_555
C8_2 C7_2 1_555 1_555
C9_2 C8_2 1_555 1_555
H8_2 C9_2 1_555 1_555
C10_2 C9_2 1_555 1_555
H9_2 C10_2 1_555 1_555
C11_2 C3_2 1_555 1_555
C12_2 C8_2 1_555 1_555
C13_2 C12_2 1_555 1_555
C14_2 C13_2 1_555 1_555
C15_2 C14_2 1_555 1_555
H10_2 C15_2 1_555 1_555
C16_2 C15_2 1_555 1_555
H11_2 C16_2 1_555 1_555
C17_2 C16_2 1_555 1_555
C18_2 C17_2 1_555 1_555
H12_2 C18_2 1_555 1_555
C19_2 C14_2 1_555 1_555
H13_2 C19_2 1_555 1_555
C20_2 H14_2 1_555 1_555
C21_2 C20_2 1_555 1_555
H15_2 C21_2 1_555 1_555
C22_2 C21_2 1_555 1_555
H16_2 C22_2 1_555 1_555
C23_2 C22_2 1_555 1_555
H17_2 C23_2 1_555 1_555
C24_2 C23_2 1_555 1_555
H18_2 C24_2 1_555 1_555
C25_2 C12_2 1_555 1_555
C26_2 C17_2 1_555 1_555
C27_2 C26_2 1_555 1_555
C28_2 C27_2 1_555 1_555
C29_2 N3 1_555 1_555
H21_2 C29_2 1_555 1_555
C30_2 C26_2 1_555 1_555
H22_2 C30_2 1_555 1_555
C4_2 C5_2 1_555 1_555
C6_2 C11_2 1_555 1_555
C10_2 C11_2 1_555 1_555
C18_2 C19_2 1_555 1_555
C20_2 C25_2 1_555 1_555
C24_2 C25_2 1_555 1_555
C29_2 C30_2 1_555 1_555
O2_3 C37_3 1_555 1_555
O4_2 C44_3 1_555 1_555
O5_3 C44_3 1_555 1_555
H29_3 C40_3 1_555 1_555
C41_3 C40_3 1_555 1_555
C44_3 C41_3 1_555 1_555
Zn4_2 O4_2 1_555 1_555
N1_3 Zn4 1_555 1_555
N3_2 C28_3 1_555 1_555
C1_3 N1_3 1_555 1_555
H2_2 C1_3 1_555 1_555
C2_3 C1_3 1_555 1_555
H3_2 C2_3 1_555 1_555
C3_3 C2_3 1_555 1_555
C4_3 C3_3 1_555 1_555
H4_3 C4_3 1_555 1_555
C5_3 N1_3 1_555 1_555
H5_3 C5_3 1_555 1_555
C6_3 H6_3 1_555 1_555
C7_3 C6_3 1_555 1_555
H7_3 C7_3 1_555 1_555
C8_3 C7_3 1_555 1_555
C9_3 C8_3 1_555 1_555
H8_3 C9_3 1_555 1_555
C10_3 C9_3 1_555 1_555
H9_3 C10_3 1_555 1_555
C11_3 C3_3 1_555 1_555
C12_3 C8_3 1_555 1_555
C13_3 C12_3 1_555 1_555
C14_3 C13_3 1_555 1_555
C15_3 C14_3 1_555 1_555
H10_3 C15_3 1_555 1_555
C16_3 C15_3 1_555 1_555
H11_3 C16_3 1_555 1_555
C17_3 C16_3 1_555 1_555
C18_3 C17_3 1_555 1_555
H12_3 C18_3 1_555 1_555
C19_3 C14_3 1_555 1_555
H13_3 C19_3 1_555 1_555
C20_3 H14_3 1_555 1_555
C21_3 C20_3 1_555 1_555
H15_3 C21_3 1_555 1_555
C22_3 C21_3 1_555 1_555
H16_3 C22_3 1_555 1_555
C23_3 C22_3 1_555 1_555
H17_3 C23_3 1_555 1_555
C24_3 C23_3 1_555 1_555
H18_3 C24_3 1_555 1_555
C25_3 C12_3 1_555 1_555
C26_3 C17_3 1_555 1_555
C27_3 C26_3 1_555 1_555
H19_2 C27_3 1_555 1_555
C28_3 C27_3 1_555 1_555
H20_2 C28_3 1_555 1_555
C29_3 N3_2 1_555 1_555
H21_3 C29_3 1_555 1_555
C30_3 C26_3 1_555 1_555
H22_3 C30_3 1_555 1_555
C31_2 C13_3 1_555 1_555
C32_2 C31_2 1_555 1_555
H23_2 C32_2 1_555 1_555
C33_2 C32_2 1_555 1_555
H24_2 C33_2 1_555 1_555
C34_2 C33_2 1_555 1_555
H25_2 C34_2 1_555 1_555
C35_2 C34_2 1_555 1_555
H26_2 C35_2 1_555 1_555
C36_2 C31_2 1_555 1_555
H27_3 C36_2 1_555 1_555
C38_2 H28_2 1_555 1_555
C39_2 C38_2 1_555 1_555
O7_2 Zn4 1_555 1_555
C4_3 C5_3 1_555 1_555
C6_3 C11_3 1_555 1_555
C10_3 C11_3 1_555 1_555
C18_3 C19_3 1_555 1_555
C20_3 C25_3 1_555 1_555
C24_3 C25_3 1_555 1_555
C29_3 C30_3 1_555 1_555
C35_2 C36_2 1_555 1_555
C38_2 C42_2 1_555 1_555
C42_2 C43_2 1_555 1_555
N1_4 Zn4_2 1_555 1_555
N2_2 C28_4 1_555 1_555
C1_4 N1_4 1_555 1_555
C2_4 C1_4 1_555 1_555
C3_4 C2_4 1_555 1_555
C4_4 C3_4 1_555 1_555
H4_4 C4_4 1_555 1_555
C5_4 N1_4 1_555 1_555
H5_4 C5_4 1_555 1_555
C6_4 H6_4 1_555 1_555
C7_4 C6_4 1_555 1_555
H7_4 C7_4 1_555 1_555
C8_4 C7_4 1_555 1_555
C9_4 C8_4 1_555 1_555
H8_4 C9_4 1_555 1_555
C10_4 C9_4 1_555 1_555
H9_4 C10_4 1_555 1_555
C11_4 C3_4 1_555 1_555
C12_4 C8_4 1_555 1_555
C13_4 C12_4 1_555 1_555
C14_4 C13_4 1_555 1_555
C15_4 C14_4 1_555 1_555
H10_4 C15_4 1_555 1_555
C16_4 C15_4 1_555 1_555
H11_4 C16_4 1_555 1_555
C17_4 C16_4 1_555 1_555
C18_4 C17_4 1_555 1_555
H12_4 C18_4 1_555 1_555
C19_4 C14_4 1_555 1_555
H13_4 C19_4 1_555 1_555
C20_4 H14_4 1_555 1_555
C21_4 C20_4 1_555 1_555
H15_4 C21_4 1_555 1_555
C22_4 C21_4 1_555 1_555
H16_4 C22_4 1_555 1_555
C23_4 C22_4 1_555 1_555
H17_4 C23_4 1_555 1_555
C24_4 C23_4 1_555 1_555
H18_4 C24_4 1_555 1_555
C25_4 C12_4 1_555 1_555
C26_4 C17_4 1_555 1_555
C27_4 C26_4 1_555 1_555
C28_4 C27_4 1_555 1_555
C29_4 N2_2 1_555 1_555
H21_4 C29_4 1_555 1_555
C30_4 C26_4 1_555 1_555
H22_4 C30_4 1_555 1_555
C4_4 C5_4 1_555 1_555
C6_4 C11_4 1_555 1_555
C10_4 C11_4 1_555 1_555
C18_4 C19_4 1_555 1_555
C20_4 C25_4 1_555 1_555
C24_4 C25_4 1_555 1_555
C29_4 C30_4 1_555 1_555
O2_4 C37_4 1_555 1_555
O7_2 C44_4 1_555 1_555
O5_4 C44_4 1_555 1_555
H29_4 C40_4 1_555 1_555
C41_4 C40_4 1_555 1_555
C44_4 C41_4 1_555 1_555
O3 H1 1_555 1_555
O3_2 H1_2 1_555 1_555
C38_3 H28_3 1_555 1_555
C39_3 C38_3 1_555 1_555
C42_3 O3_2 1_555 1_555
C38_3 C42_3 1_555 1_555
C42_3 C43_3 1_555 1_555
C32_3 C31_3 1_555 1_555
H23_3 C32_3 1_555 1_555
C33_3 C32_3 1_555 1_555
H24_3 C33_3 1_555 1_555
C34_3 C33_3 1_555 1_555
H25_3 C34_3 1_555 1_555
C35_3 C34_3 1_555 1_555
H26_3 C35_3 1_555 1_555
C36_3 C31_3 1_555 1_555
C35_3 C36_3 1_555 1_555
O3_3 H1_3 1_555 1_555
C32_4 C31_4 1_555 1_555
H23_4 C32_4 1_555 1_555
C33_4 C32_4 1_555 1_555
H24_4 C33_4 1_555 1_555
C34_4 C33_4 1_555 1_555
H25_4 C34_4 1_555 1_555
C35_4 C34_4 1_555 1_555
H26_4 C35_4 1_555 1_555
C36_4 C31_4 1_555 1_555
C35_4 C36_4 1_555 1_555
O3_4 H1_4 1_555 1_555
C38_4 H28_4 1_555 1_555
C39_4 C38_4 1_555 1_555
C42_4 O3_4 1_555 1_555
C38_4 C42_4 1_555 1_555
C42_4 C43_4 1_555 1_555

#END
