
###############################################################################
#
# This file contains modified crystal structure data generated from the
# MOF subset of the Cambridge Structural Database (CSD) v543 
# hosted by the Cambridge Crystallographic Data Centre (CCDC).
#
# This work is licensed under the Creative Commons
# Attribution-NonCommercial-ShareAlike 4.0 International License.
# To view a copy of this license, visit
# http://creativecommons.org/licenses/by-nc-sa/4.0/
# or send a letter to
# Creative Commons, PO Box 1866, Mountain View, CA 94042, USA.
#
# CIF created using the CSD Python API on 29 September 2022
# The structure has been converted into the P1 space group
# The structure has a 3D framework
# The original CSD entry ASEPOG is in the monoclinic crystal system
# The framework has been calculated to contain at least 10.0% void space
# The void calculation uses a probe of radius 1.32A, grid spacing 0.4
#
###############################################################################

data_ASEPOG
_chemical_formula_moiety         '(C64 H56 Cd8 O42)n'
_symmetry_cell_setting           triclinic
_symmetry_space_group_name_H-M   'P 1'
_symmetry_Int_Tables_number      1
_space_group_name_Hall           'P 1'
loop_
_symmetry_equiv_pos_site_id
_symmetry_equiv_pos_as_xyz
1 x,y,z
_cell_length_a                   7.60650(10)
_cell_length_b                   13.9939(3)
_cell_length_c                   20.8616(4)
_cell_angle_alpha                90
_cell_angle_beta                 91.090(2)
_cell_angle_gamma                90
_cell_volume                     2220.2
loop_
_atom_site_label
_atom_site_type_symbol
_atom_site_fract_x
_atom_site_fract_y
_atom_site_fract_z
O8 O 0.1117(4) 0.1075(2) 0.72071(14)
C12 C 0.0945(5) 0.1770(3) 0.5908(2)
H12 H 0.1986 0.1459 0.6021
C13 C 0.0837(5) 0.2284(3) 0.5351(2)
H13 H 0.1798 0.2310 0.5083
Cd6 Cd 0.37762(3) 0.17043(2) 0.74042(2)
Cd2 Cd 0.37762(3) 0.32957(2) 0.24042(2)
O1 O 0.2481(5) 0.4055(4) 0.35602(17)
O2 O 0.4743(5) 0.3135(3) 0.34140(14)
O3 O 0.0985(4) 0.5013(3) 0.58147(16)
O4 O 0.2808(4) 0.4641(2) 0.66003(13)
O5 O 0.6436(4) 0.2551(2) 0.70946(14)
O6 O 0.5091(4) 0.1595(2) 0.64110(14)
O7 O 0.8353(4) 0.0716(3) 0.71270(15)
O9 O 0.1178(7) 0.5920(4) 0.2746(3)
H1 H 0.1904 0.6282 0.3056
H2 H 0.0368 0.6445 0.2618
O11 O 0.4696(5) 0.4886(3) 0.24606(19)
H5 H 0.5358 0.5037 0.2130
H6 H 0.5417 0.4981 0.2793
O12 O 0.2399(6) 0.1860(3) 0.2429(2)
H7 H 0.2413 0.1635 0.2815
H8 H 0.2994 0.1445 0.2217
C1 C 0.3145(5) 0.4158(3) 0.48936(18)
H9 H 0.2148 0.4475 0.4741
C2 C 0.4213(5) 0.3659(3) 0.44773(18)
C3 C 0.5704(5) 0.3187(3) 0.47085(18)
H10 H 0.6394 0.2845 0.4425
C4 C 0.6183(5) 0.3215(3) 0.53529(19)
C5 C 0.5112(5) 0.3727(3) 0.57687(18)
H11 H 0.5420 0.3767 0.6201
C6 C 0.3597(5) 0.4175(3) 0.55436(18)
C7 C 0.3762(5) 0.3609(3) 0.37729(18)
C8 C 0.2396(5) 0.4648(3) 0.60048(19)
C9 C 0.7817(5) 0.2708(3) 0.55702(18)
C10 C 0.7938(5) 0.2178(3) 0.61372(17)
C11 C 0.9506(5) 0.1712(3) 0.63075(18)
C14 C 0.9295(5) 0.2768(3) 0.51838(19)
H14 H 0.9248 0.3133 0.4812
C15 C 0.6392(5) 0.2103(3) 0.65771(18)
C16 C 0.9649(5) 0.1130(3) 0.69111(18)
Cd3 Cd 0.01362(4) 0.54478(2) 0.68359(2)
Cd4 Cd 0.98638(4) 0.04478(2) 0.81641(2)
O15 O 0.6436(4) 0.2449(2) 0.20946(14)
O16 O 0.5091(4) 0.3405(2) 0.14110(14)
O18 O 0.1117(4) 0.3925(2) 0.22071(14)
Cd1 Cd 0.98638(4) 0.45522(2) 0.31641(2)
O10 O 0.8646(6) 0.3076(3) 0.3358(2)
H3 H 0.9444 0.2624 0.3325
H4 H 0.7875 0.2923 0.3055
O13 O 0.9015(4) 0.4987(3) 0.41853(16)
O14 O 0.7192(4) 0.5359(2) 0.33997(13)
O17 O 0.8353(4) 0.4284(3) 0.21270(15)
O14_2 O 0.2808(4) 0.0359(2) 0.16003(13)
Cd1_2 Cd 0.01362(4) 0.95522(2) 0.18359(2)
O10_2 O 0.1354(6) 0.8076(3) 0.1642(2)
H3_2 H 0.0556 0.7624 0.1675
H4_2 H 0.2125 0.7923 0.1945
O13_2 O 0.0985(4) 0.9987(3) 0.08147(16)
O17_2 O 0.1647(4) 0.9284(3) 0.28730(15)
O3_2 O 0.9015(4) 0.0013(3) 0.91853(16)
Cd2_2 Cd 0.62238(3) 0.82957(2) 0.25958(2)
O1_2 O 0.7519(5) 0.9055(4) 0.14398(17)
O2_2 O 0.5257(5) 0.8135(3) 0.15860(14)
O11_2 O 0.5304(5) 0.9886(3) 0.25394(19)
H6_2 H 0.4583 0.9981 0.2207
O12_2 O 0.7601(6) 0.6860(3) 0.2571(2)
H7_2 H 0.7587 0.6635 0.2185
H8_2 H 0.7006 0.6445 0.2783
C1_2 C 0.6855(5) 0.9158(3) 0.01064(18)
H9_2 H 0.7852 0.9475 0.0259
C2_2 C 0.5787(5) 0.8659(3) 0.05227(18)
C3_2 C 0.4296(5) 0.8187(3) 0.02915(18)
H10_2 H 0.3606 0.7845 0.0575
C7_2 C 0.6238(5) 0.8609(3) 0.12271(18)
H14_2 H 0.0752 0.8133 0.0188
O15_2 O 0.3564(4) 0.7449(2) 0.29054(14)
O16_2 O 0.4909(4) 0.8405(2) 0.35890(14)
O18_2 O 0.8883(4) 0.8925(2) 0.27929(14)
O4_2 O 0.7192(4) 0.9641(2) 0.83997(13)
O5_2 O 0.3564(4) 0.7551(2) 0.79054(14)
O6_2 O 0.4909(4) 0.6595(2) 0.85890(14)
O7_2 O 0.1647(4) 0.5716(3) 0.78730(15)
C4_2 C 0.3817(5) 0.8215(3) 0.96471(19)
C5_2 C 0.4888(5) 0.8727(3) 0.92313(18)
H11_2 H 0.4580 0.8767 0.8799
C6_2 C 0.6403(5) 0.9175(3) 0.94564(18)
C8_2 C 0.7604(5) 0.9648(3) 0.89952(19)
C9_2 C 0.2183(5) 0.7708(3) 0.94298(18)
C10_2 C 0.2062(5) 0.7178(3) 0.88628(17)
C11_2 C 0.0494(5) 0.6712(3) 0.86925(18)
C14_2 C 0.0705(5) 0.7768(3) 0.98162(19)
C15_2 C 0.3608(5) 0.7103(3) 0.84229(18)
C16_2 C 0.0351(5) 0.6130(3) 0.80889(18)
Cd5 Cd 0.62238(3) 0.67043(2) 0.75958(2)
O8_2 O 0.8883(4) 0.6075(2) 0.77929(14)
C12_2 C 0.9055(5) 0.6770(3) 0.9092(2)
H12_2 H 0.8014 0.6459 0.8979
C13_2 C 0.9163(5) 0.7284(3) 0.9649(2)
H13_2 H 0.8202 0.7310 0.9917
O10_3 O 0.1354(6) 0.6924(3) 0.6642(2)
H3_3 H 0.0556 0.7376 0.6675
H4_3 H 0.2125 0.7077 0.6945
O1_3 O 0.7519(5) 0.5945(4) 0.64398(17)
O2_3 O 0.5257(5) 0.6865(3) 0.65860(14)
O9_2 O 0.8822(7) 0.4080(4) 0.7254(3)
H1_2 H 0.8096 0.3718 0.6944
H2_2 H 0.9632 0.3555 0.7382
O11_3 O 0.5304(5) 0.5114(3) 0.75394(19)
H5_2 H 0.4642 0.4963 0.7870
H6_3 H 0.4583 0.5019 0.7207
O12_3 O 0.7601(6) 0.8140(3) 0.7571(2)
H7_3 H 0.7587 0.8365 0.7185
H8_3 H 0.7006 0.8555 0.7783
C1_3 C 0.6855(5) 0.5842(3) 0.51064(18)
H9_3 H 0.7852 0.5525 0.5259
C2_3 C 0.5787(5) 0.6341(3) 0.55227(18)
C3_3 C 0.4296(5) 0.6813(3) 0.52915(18)
H10_3 H 0.3606 0.7155 0.5575
C4_3 C 0.3817(5) 0.6785(3) 0.46471(19)
C5_3 C 0.4888(5) 0.6273(3) 0.42313(18)
H11_3 H 0.4580 0.6233 0.3799
C6_3 C 0.6403(5) 0.5825(3) 0.44564(18)
C7_3 C 0.6238(5) 0.6391(3) 0.62271(18)
C8_3 C 0.7604(5) 0.5352(3) 0.39952(19)
C9_3 C 0.2183(5) 0.7292(3) 0.44298(18)
C10_3 C 0.2062(5) 0.7822(3) 0.38628(17)
C11_3 C 0.0494(5) 0.8288(3) 0.36925(18)
C14_3 C 0.0705(5) 0.7232(3) 0.48162(19)
H14_3 H 0.0752 0.6867 0.5188
C15_3 C 0.3608(5) 0.7897(3) 0.34229(18)
C16_3 C 0.0351(5) 0.8870(3) 0.30889(18)
C12_3 C 0.9055(5) 0.8230(3) 0.4092(2)
H12_3 H 0.8014 0.8541 0.3979
C13_3 C 0.9163(5) 0.7716(3) 0.4649(2)
H13_3 H 0.8202 0.7690 0.4917
C12_4 C 0.0945(5) 0.3230(3) 0.0908(2)
H12_4 H 0.1986 0.3541 0.1021
C13_4 C 0.0837(5) 0.2716(3) 0.0351(2)
H13_4 H 0.1798 0.2690 0.0083
C4_4 C 0.6183(5) 0.1785(3) 0.03529(19)
C5_4 C 0.5112(5) 0.1273(3) 0.07687(18)
H11_4 H 0.5420 0.1233 0.1201
C6_4 C 0.3597(5) 0.0825(3) 0.05436(18)
C8_4 C 0.2396(5) 0.0352(3) 0.10048(19)
C9_4 C 0.7817(5) 0.2292(3) 0.05702(18)
C10_4 C 0.7938(5) 0.2822(3) 0.11372(17)
C11_4 C 0.9506(5) 0.3288(3) 0.13075(18)
C14_4 C 0.9295(5) 0.2232(3) 0.01838(19)
C15_4 C 0.6392(5) 0.2897(3) 0.15771(18)
C16_4 C 0.9649(5) 0.3870(3) 0.19111(18)
O1_4 O 0.2481(5) 0.0945(4) 0.85602(17)
O2_4 O 0.4743(5) 0.1865(3) 0.84140(14)
O11_4 O 0.4696(5) 0.0114(3) 0.74606(19)
H6_4 H 0.5417 0.0019 0.7793
O12_4 O 0.2399(6) 0.3140(3) 0.7429(2)
H7_4 H 0.2413 0.3365 0.7815
H8_4 H 0.2994 0.3555 0.7217
C1_4 C 0.3145(5) 0.0842(3) 0.98936(18)
H9_4 H 0.2148 0.0525 0.9741
C2_4 C 0.4213(5) 0.1341(3) 0.94773(18)
C3_4 C 0.5704(5) 0.1813(3) 0.97085(18)
H10_4 H 0.6394 0.2155 0.9425
C7_4 C 0.3762(5) 0.1391(3) 0.87729(18)
H14_4 H 0.9248 0.1867 0.9812
O10_4 O 0.8646(6) 0.1924(3) 0.8358(2)
H3_4 H 0.9444 0.2376 0.8325
H4_4 H 0.7875 0.2077 0.8055
O9_3 O 0.8822(7) 0.0920(4) 0.2254(3)
H1_3 H 0.8096 0.1282 0.1944
H2_3 H 0.9632 0.1445 0.2382
H5_3 H 0.4642 0.0037 0.2870
O9_4 O 0.1178(7) 0.9080(4) 0.7746(3)
H1_4 H 0.1904 0.8718 0.8056
H2_4 H 0.0368 0.8555 0.7618
H5_4 H 0.5358 0.9963 0.7130
loop_
_geom_bond_atom_site_label_1
_geom_bond_atom_site_label_2
_geom_bond_site_symmetry_1
_geom_bond_site_symmetry_2
H12 C12 1_555 1_555
C13 C12 1_555 1_555
H13 C13 1_555 1_555
Cd6 O8 1_555 1_555
Cd2 O2 1_555 1_555
O1 C7 1_555 1_555
O2 C7 1_555 1_555
O3 C8 1_555 1_555
O4 C8 1_555 1_555
O5 C15 1_555 1_555
O6 C15 1_555 1_555
O7 C16 1_555 1_555
H1 O9 1_555 1_555
H2 O9 1_555 1_555
O11 Cd2 1_555 1_555
H5 O11 1_555 1_555
H6 O11 1_555 1_555
O12 Cd2 1_555 1_555
H7 O12 1_555 1_555
H8 O12 1_555 1_555
C1 H9 1_555 1_555
C2 C1 1_555 1_555
C3 C2 1_555 1_555
H10 C3 1_555 1_555
C4 C3 1_555 1_555
C5 C4 1_555 1_555
H11 C5 1_555 1_555
C6 C1 1_555 1_555
C7 C2 1_555 1_555
C8 C6 1_555 1_555
C9 C4 1_555 1_555
C10 C9 1_555 1_555
C11 C10 1_555 1_555
C14 C9 1_555 1_555
H14 C14 1_555 1_555
C15 C10 1_555 1_555
C16 C11 1_555 1_555
Cd3 O3 1_555 1_555
Cd4 O7 1_555 1_555
Cd6 O5 1_555 1_555
O15 Cd2 1_555 1_555
O16 Cd2 1_555 1_555
Cd2 O18 1_555 1_555
O4 Cd3 1_555 1_555
O6 Cd6 1_555 1_555
C5 C6 1_555 1_555
O10 Cd1 1_555 1_555
H3 O10 1_555 1_555
H4 O10 1_555 1_555
O13 Cd1 1_555 1_555
O14 Cd1 1_555 1_555
O17 Cd1 1_555 1_555
O10_2 Cd1_2 1_555 1_555
H3_2 O10_2 1_555 1_555
H4_2 O10_2 1_555 1_555
O13_2 Cd1_2 1_555 1_555
O17_2 Cd1_2 1_555 1_555
Cd4 O3_2 1_555 1_555
Cd2_2 O2_2 1_555 1_555
O1_2 C7_2 1_555 1_555
O2_2 C7_2 1_555 1_555
O11_2 Cd2_2 1_555 1_555
H6_2 O11_2 1_555 1_555
O12_2 Cd2_2 1_555 1_555
H7_2 O12_2 1_555 1_555
H8_2 O12_2 1_555 1_555
C1_2 H9_2 1_555 1_555
C2_2 C1_2 1_555 1_555
C3_2 C2_2 1_555 1_555
H10_2 C3_2 1_555 1_555
C7_2 C2_2 1_555 1_555
O15_2 Cd2_2 1_555 1_555
O16_2 Cd2_2 1_555 1_555
Cd2_2 O18_2 1_555 1_555
O4_2 C8_2 1_555 1_555
O5_2 C15_2 1_555 1_555
O6_2 C15_2 1_555 1_555
O7_2 C16_2 1_555 1_555
C5_2 C4_2 1_555 1_555
H11_2 C5_2 1_555 1_555
C8_2 C6_2 1_555 1_555
C9_2 C4_2 1_555 1_555
C10_2 C9_2 1_555 1_555
C11_2 C10_2 1_555 1_555
C14_2 C9_2 1_555 1_555
C15_2 C10_2 1_555 1_555
C16_2 C11_2 1_555 1_555
Cd3 O7_2 1_555 1_555
Cd5 O5_2 1_555 1_555
O6_2 Cd5 1_555 1_555
C5_2 C6_2 1_555 1_555
H12_2 C12_2 1_555 1_555
C13_2 C12_2 1_555 1_555
H13_2 C13_2 1_555 1_555
Cd5 O8_2 1_555 1_555
O10_3 Cd3 1_555 1_555
H3_3 O10_3 1_555 1_555
H4_3 O10_3 1_555 1_555
Cd5 O2_3 1_555 1_555
O1_3 C7_3 1_555 1_555
O2_3 C7_3 1_555 1_555
O13 C8_3 1_555 1_555
O14 C8_3 1_555 1_555
O15_2 C15_3 1_555 1_555
O16_2 C15_3 1_555 1_555
O17_2 C16_3 1_555 1_555
H1_2 O9_2 1_555 1_555
H2_2 O9_2 1_555 1_555
O11_3 Cd5 1_555 1_555
H5_2 O11_3 1_555 1_555
H6_3 O11_3 1_555 1_555
O12_3 Cd5 1_555 1_555
H7_3 O12_3 1_555 1_555
H8_3 O12_3 1_555 1_555
C1_3 H9_3 1_555 1_555
C2_3 C1_3 1_555 1_555
C3_3 C2_3 1_555 1_555
H10_3 C3_3 1_555 1_555
C4_3 C3_3 1_555 1_555
C5_3 C4_3 1_555 1_555
H11_3 C5_3 1_555 1_555
C6_3 C1_3 1_555 1_555
C7_3 C2_3 1_555 1_555
C8_3 C6_3 1_555 1_555
C9_3 C4_3 1_555 1_555
C10_3 C9_3 1_555 1_555
C11_3 C10_3 1_555 1_555
C14_3 C9_3 1_555 1_555
H14_3 C14_3 1_555 1_555
C15_3 C10_3 1_555 1_555
C16_3 C11_3 1_555 1_555
C5_3 C6_3 1_555 1_555
H12_3 C12_3 1_555 1_555
C13_3 C12_3 1_555 1_555
H13_3 C13_3 1_555 1_555
H12_4 C12_4 1_555 1_555
C13_4 C12_4 1_555 1_555
H13_4 C13_4 1_555 1_555
O14_2 C8_4 1_555 1_555
O15 C15_4 1_555 1_555
O16 C15_4 1_555 1_555
O17 C16_4 1_555 1_555
C5_4 C4_4 1_555 1_555
H11_4 C5_4 1_555 1_555
C8_4 C6_4 1_555 1_555
C9_4 C4_4 1_555 1_555
C10_4 C9_4 1_555 1_555
C11_4 C10_4 1_555 1_555
C14_4 C9_4 1_555 1_555
C15_4 C10_4 1_555 1_555
C16_4 C11_4 1_555 1_555
C5_4 C6_4 1_555 1_555
Cd6 O2_4 1_555 1_555
O1_4 C7_4 1_555 1_555
O2_4 C7_4 1_555 1_555
O11_4 Cd6 1_555 1_555
H6_4 O11_4 1_555 1_555
O12_4 Cd6 1_555 1_555
H7_4 O12_4 1_555 1_555
H8_4 O12_4 1_555 1_555
C1_4 H9_4 1_555 1_555
C2_4 C1_4 1_555 1_555
C3_4 C2_4 1_555 1_555
H10_4 C3_4 1_555 1_555
C7_4 C2_4 1_555 1_555
O10_4 Cd4 1_555 1_555
H3_4 O10_4 1_555 1_555
H4_4 O10_4 1_555 1_555
H1_3 O9_3 1_555 1_555
H2_3 O9_3 1_555 1_555
H1_4 O9_4 1_555 1_555
H2_4 O9_4 1_555 1_555

#END
