
###############################################################################
#
# This file contains modified crystal structure data generated from the
# MOF subset of the Cambridge Structural Database (CSD) v543 
# hosted by the Cambridge Crystallographic Data Centre (CCDC).
#
# This work is licensed under the Creative Commons
# Attribution-NonCommercial-ShareAlike 4.0 International License.
# To view a copy of this license, visit
# http://creativecommons.org/licenses/by-nc-sa/4.0/
# or send a letter to
# Creative Commons, PO Box 1866, Mountain View, CA 94042, USA.
#
# CIF created using the CSD Python API on 29 September 2022
# The structure has been converted into the P1 space group
# The structure has a 3D framework
# The original CSD entry ASIQIE is in the tetragonal crystal system
# The framework has been calculated to contain at least 10.0% void space
# The void calculation uses a probe of radius 1.32A, grid spacing 0.4
# The framework is charged, counterions have been retained in the structure
#
###############################################################################

data_ASIQIE
_chemical_formula_moiety         '(C104 H72 Cu10 N32 O16 12+)n'
_symmetry_cell_setting           triclinic
_symmetry_space_group_name_H-M   'P 1'
_symmetry_Int_Tables_number      1
_space_group_name_Hall           'P 1'
loop_
_symmetry_equiv_pos_site_id
_symmetry_equiv_pos_as_xyz
1 x,y,z
_cell_length_a                   18.120(5)
_cell_length_b                   18.120(5)
_cell_length_c                   12.905(5)
_cell_angle_alpha                90
_cell_angle_beta                 90
_cell_angle_gamma                90
_cell_volume                     4237.16
loop_
_atom_site_label
_atom_site_type_symbol
_atom_site_fract_x
_atom_site_fract_y
_atom_site_fract_z
Cu3 Cu -0.0000 0.0000 0.0000
Cu3_2 Cu -0.0000 1.0000 1.0000
Cu4 Cu 0.5000 0.5000 -0.0000
C4 C 0.6082(4) 0.1502(4) 0.9562(5)
C6 C 0.6846(4) 0.1456(4) 0.9590(5)
H4 H 0.7126 0.1677 0.9072
O1 O 0.6021(4) 0.2171(6) 0.8005(7)
C12 C 0.5696(5) 0.1923(5) 0.8727(6)
O2 O 0.4989(3) 0.2025(4) 0.8865(5)
Cu3_3 Cu 1.0000 0.0000 1.0000
Cu1 Cu 0.5000 1.0000 0.5000
H1 H 0.4683 0.9980 0.1113
C2 C 0.4651(4) 0.9861(4) 0.2692(5)
H2 H 0.4216 0.9604 0.2812
H3 H 0.8251 0.9989 0.0266
N5 N 0.4856(3) 0.9900(3) 0.6543(4)
C14 C 0.5090(4) 0.9935(4) 0.8252(5)
N6 N 0.4423(3) 0.9576(3) 0.8095(4)
N7 N 0.2020(3) 0.8930(3) 0.9600(4)
C16 C 0.3977(4) 0.9232(4) 0.8877(5)
N8 N 0.0868(3) 0.9332(3) 0.9752(4)
C18 C 0.1579(4) 0.9527(4) 0.9703(5)
C20 C 0.1561(4) 0.8333(4) 0.9530(8)
H14 H 0.1706 0.7845 0.9437
C21 C 0.3215(4) 0.9283(4) 0.8854(5)
H15 H 0.2977 0.9554 0.8342
C22 C 0.2812(4) 0.8916(4) 0.9619(5)
C23 C 0.4314(4) 0.9566(4) 0.7047(5)
H16 H 0.3908 0.9350 0.6727
C24 C 0.4332(4) 0.8841(4) 0.9642(5)
H17 H 0.4844 0.8801 0.9636
C26 C 0.0863(4) 0.8577(4) 0.9618(6)
H18 H 0.0442 0.8283 0.9593
Cu3_4 Cu 1.0000 1.0000 0.0000
N10 N 0.4332(3) 0.9132(3) 0.4752(4)
N16 N 0.4900(3) 0.5144(3) 0.1543(4)
N17 N 0.5868(3) 0.4332(3) 0.0248(4)
C40 C 0.5139(4) 0.4651(4) 0.2308(5)
C41 C 0.4566(4) 0.5686(4) 0.2047(5)
C42 C 0.4232(4) 0.6023(4) 0.3877(5)
C43 C 0.3841(4) 0.5668(4) 0.4642(5)
N18 N 0.3930(3) 0.7980(3) 0.4600(4)
C44 C 0.4527(4) 0.8421(4) 0.4703(5)
H28 H 0.5011 0.8251 0.4734
C45 C 0.3333(4) 0.8439(4) 0.4530(8)
C46 C 0.3577(4) 0.9137(4) 0.4618(6)
C47 C 0.4283(4) 0.6785(4) 0.3854(5)
H29 H 0.4554 0.7023 0.3342
C48 C 0.3498(4) 0.6082(4) 0.5438(5)
C49 C 0.3077(5) 0.5696(5) 0.6273(6)
C50 C 0.4935(4) 0.4910(4) 0.3252(5)
N19 N 0.4576(3) 0.5577(3) 0.3095(4)
C51 C 0.3916(4) 0.7188(4) 0.4619(5)
H30 H 0.4350 0.6092 0.1727
H31 H 0.5396 0.4216 0.2188
C52 C 0.3544(4) 0.6846(4) 0.5410(5)
H32 H 0.3323 0.7126 0.5928
H33 H 0.3801 0.5156 0.4636
O7 O 0.2829(6) 0.6021(4) 0.6995(7)
O8 O 0.2975(4) 0.4989(3) 0.6135(5)
H34 H 0.5020 0.4683 0.3887
H35 H 0.2845 0.8294 0.4437
H36 H 0.3283 0.9558 0.4593
C50_2 C 0.0065(4) 0.0090(4) 0.3252(5)
O8_2 O 0.2025(4) 0.0011(3) 0.6135(5)
C17 C 0.1082(4) 0.6502(4) 0.0438(5)
C19 C 0.1846(4) 0.6456(4) 0.0410(5)
H13 H 0.2126 0.6677 0.0928
O3 O 0.1021(4) 0.7171(6) 0.1995(7)
C25 C 0.0696(5) 0.6923(5) 0.1273(6)
O2_2 O 0.0011(3) 0.2975(4) 0.8865(5)
C29 C 0.0139(4) 0.9651(4) 0.7692(5)
H19 H 0.0396 0.9216 0.7812
H20 H 0.0020 0.9683 0.6113
N14 N 0.9900(3) 0.0144(3) 0.8457(4)
Cu1_2 Cu 1.0000 0.5000 0.5000
N1 N 0.9856(3) 0.4900(3) 0.3457(4)
N2 N 0.9423(3) 0.4576(3) 0.1905(4)
N3 N 0.7020(3) 0.3930(3) 0.0400(4)
C3 C 0.8977(4) 0.4232(4) 0.1123(5)
C5 C 0.6579(4) 0.4527(4) 0.0297(5)
H3_2 H 0.6749 0.5011 0.0266
C7 C 0.6561(4) 0.3333(4) 0.0470(8)
H5 H 0.6706 0.2845 0.0563
C8 C 0.8215(4) 0.4283(4) 0.1146(5)
H6 H 0.7977 0.4554 0.1658
C9 C 0.7812(4) 0.3916(4) 0.0381(5)
C10 C 0.9314(4) 0.4566(4) 0.2953(5)
H7 H 0.8908 0.4350 0.3273
C11 C 0.9332(4) 0.3841(4) 0.0358(5)
H8 H 0.9844 0.3801 0.0364
C13 C 0.5863(4) 0.3577(4) 0.0382(6)
H9 H 0.5442 0.3283 0.0407
C14_2 C 0.9910(4) 0.5065(4) 0.8252(5)
H10 H 0.9683 0.4980 0.8887
C15 C 0.9651(4) 0.4861(4) 0.7308(5)
H11 H 0.9216 0.4604 0.7188
N9 N 0.9332(3) 0.4132(3) 0.5248(4)
C27 C 0.9232(4) 0.1023(4) 0.6123(5)
C28 C 0.8841(4) 0.0668(4) 0.5358(5)
N12 N 0.9576(3) 0.0577(3) 0.6905(4)
N13 N 0.8930(3) 0.2980(3) 0.5400(4)
C31 C 0.9527(4) 0.3421(4) 0.5297(5)
C32 C 0.8498(4) 0.1082(4) 0.4562(5)
C33 C 0.8544(4) 0.1846(4) 0.4590(5)
C34 C 0.8077(5) 0.0696(5) 0.3727(6)
C35 C 0.8577(4) 0.4137(4) 0.5382(6)
C36 C 0.9566(4) 0.0686(4) 0.7953(5)
C37 C 0.8333(4) 0.3439(4) 0.5470(8)
C38 C 0.8916(4) 0.2188(4) 0.5381(5)
C39 C 0.9283(4) 0.1785(4) 0.6146(5)
H21 H 0.8801 0.0156 0.5364
O5 O 0.7829(6) 0.1021(4) 0.3005(7)
H22 H 0.8283 0.4558 0.5407
H23 H 0.7845 0.3294 0.5563
H25 H 0.9350 0.1092 0.8273
H26 H 0.8323 0.2126 0.4072
H27 H 0.9554 0.2023 0.6658
H28_2 H 0.9989 0.6749 0.4734
Cu3_5 Cu -0.0000 0.0000 1.0000
Cu3_6 Cu -0.0000 1.0000 0.0000
Cu1_3 Cu 0.5000 0.0000 0.5000
N1_2 N 0.5144(3) 0.0100(3) 0.3457(4)
C1 C 0.4910(4) 0.0065(4) 0.1748(5)
N2_2 N 0.5577(3) 0.0424(3) 0.1905(4)
N3_2 N 0.7980(3) 0.1070(3) 0.0400(4)
C3_2 C 0.6023(4) 0.0768(4) 0.1123(5)
N4 N 0.9132(3) 0.0668(3) 0.0248(4)
C5_2 C 0.8421(4) 0.0473(4) 0.0297(5)
C7_2 C 0.8439(4) 0.1667(4) 0.0470(8)
H5_2 H 0.8294 0.2155 0.0563
C8_2 C 0.6785(4) 0.0717(4) 0.1146(5)
H6_2 H 0.7023 0.0446 0.1658
C9_2 C 0.7188(4) 0.1084(4) 0.0381(5)
C10_2 C 0.5686(4) 0.0434(4) 0.2953(5)
H7_2 H 0.6092 0.0650 0.3273
C11_2 C 0.5668(4) 0.1159(4) 0.0358(5)
H8_2 H 0.5156 0.1199 0.0364
C13_2 C 0.9137(4) 0.1423(4) 0.0382(6)
H9_2 H 0.9558 0.1717 0.0407
H10_2 H 0.5317 0.0020 0.8887
C15_2 C 0.5349(4) 0.0139(4) 0.7308(5)
H11_2 H 0.5784 0.0396 0.7188
H12 H 0.1749 0.0011 0.9734
Cu3_7 Cu 1.0000 0.0000 0.0000
N9_2 N 0.5668(3) 0.0868(3) 0.5248(4)
Cu4_2 Cu 0.5000 0.5000 1.0000
N11 N 0.5100(3) 0.4856(3) 0.8457(4)
C27_2 C 0.5768(4) 0.3977(4) 0.6123(5)
C28_2 C 0.6159(4) 0.4332(4) 0.5358(5)
C29_2 C 0.4861(4) 0.5349(4) 0.7692(5)
H19_2 H 0.4604 0.5784 0.7812
C30 C 0.5065(4) 0.5090(4) 0.6748(5)
N12_2 N 0.5424(3) 0.4423(3) 0.6905(4)
N13_2 N 0.6070(3) 0.2020(3) 0.5400(4)
C31_2 C 0.5473(4) 0.1579(4) 0.5297(5)
C32_2 C 0.6502(4) 0.3918(4) 0.4562(5)
C33_2 C 0.6456(4) 0.3154(4) 0.4590(5)
C34_2 C 0.6923(5) 0.4304(5) 0.3727(6)
C35_2 C 0.6423(4) 0.0863(4) 0.5382(6)
C36_2 C 0.5434(4) 0.4314(4) 0.7953(5)
H20_2 H 0.4980 0.5317 0.6113
C37_2 C 0.6667(4) 0.1561(4) 0.5470(8)
C38_2 C 0.6084(4) 0.2812(4) 0.5381(5)
C39_2 C 0.5717(4) 0.3215(4) 0.6146(5)
H21_2 H 0.6199 0.4844 0.5364
O5_2 O 0.7171(6) 0.3979(4) 0.3005(7)
O6 O 0.7025(4) 0.5011(3) 0.3865(5)
H22_2 H 0.6717 0.0442 0.5407
H23_2 H 0.7155 0.1706 0.5563
H24 H 0.4989 0.1749 0.5266
H25_2 H 0.5650 0.3908 0.8273
H26_2 H 0.6677 0.2874 0.4072
H27_2 H 0.5446 0.2977 0.6658
C17_2 C 0.3918(4) 0.8498(4) 0.0438(5)
C19_2 C 0.3154(4) 0.8544(4) 0.0410(5)
H13_2 H 0.2874 0.8323 0.0928
O3_2 O 0.3979(4) 0.7829(6) 0.1995(7)
C25_2 C 0.4304(5) 0.8077(5) 0.1273(6)
O4 O 0.5011(3) 0.7975(4) 0.1135(5)
Cu3_8 Cu 1.0000 1.0000 1.0000
N15 N 0.4132(3) 0.5668(3) 0.9752(4)
Cu1_4 Cu 0.0000 0.5000 0.5000
C1_2 C 0.0090(4) 0.4935(4) 0.1748(5)
H1_2 H 0.0317 0.5020 0.1113
C2_2 C 0.0349(4) 0.5139(4) 0.2692(5)
H2_2 H 0.0784 0.5396 0.2812
N5_2 N 0.0144(3) 0.5100(3) 0.6543(4)
N6_2 N 0.0577(3) 0.5424(3) 0.8095(4)
N7_2 N 0.2980(3) 0.6070(3) 0.9600(4)
C16_2 C 0.1023(4) 0.5768(4) 0.8877(5)
C18_2 C 0.3421(4) 0.5473(4) 0.9703(5)
H12_2 H 0.3251 0.4989 0.9734
C20_2 C 0.3439(4) 0.6667(4) 0.9530(8)
H14_2 H 0.3294 0.7155 0.9437
C21_2 C 0.1785(4) 0.5717(4) 0.8854(5)
H15_2 H 0.2023 0.5446 0.8342
C22_2 C 0.2188(4) 0.6084(4) 0.9619(5)
C23_2 C 0.0686(4) 0.5434(4) 0.7047(5)
H16_2 H 0.1092 0.5650 0.6727
C24_2 C 0.0668(4) 0.6159(4) 0.9642(5)
H17_2 H 0.0156 0.6199 0.9636
C26_2 C 0.4137(4) 0.6423(4) 0.9618(6)
H18_2 H 0.4558 0.6717 0.9593
N10_2 N 0.0668(3) 0.5868(3) 0.4752(4)
H24_2 H 0.0011 0.3251 0.5266
N16_2 N 0.0100(3) 0.9856(3) 0.1543(4)
C41_2 C 0.0434(4) 0.9314(4) 0.2047(5)
C42_2 C 0.0768(4) 0.8977(4) 0.3877(5)
C43_2 C 0.1159(4) 0.9332(4) 0.4642(5)
N18_2 N 0.1070(3) 0.7020(3) 0.4600(4)
C44_2 C 0.0473(4) 0.6579(4) 0.4703(5)
C45_2 C 0.1667(4) 0.6561(4) 0.4530(8)
C46_2 C 0.1423(4) 0.5863(4) 0.4618(6)
C47_2 C 0.0717(4) 0.8215(4) 0.3854(5)
H29_2 H 0.0446 0.7977 0.3342
C48_2 C 0.1502(4) 0.8918(4) 0.5438(5)
C49_2 C 0.1923(5) 0.9304(5) 0.6273(6)
N19_2 N 0.0424(3) 0.9423(3) 0.3095(4)
C51_2 C 0.1084(4) 0.7812(4) 0.4619(5)
H30_2 H 0.0650 0.8908 0.1727
C52_2 C 0.1456(4) 0.8154(4) 0.5410(5)
H32_2 H 0.1677 0.7874 0.5928
H33_2 H 0.1199 0.9844 0.4636
O7_2 O 0.2171(6) 0.8979(4) 0.6995(7)
H35_2 H 0.2155 0.6706 0.4437
H36_2 H 0.1717 0.5442 0.4593
C40_2 C 0.9861(4) 0.0349(4) 0.2308(5)
H31_2 H 0.9604 0.0784 0.2188
H34_2 H 0.9980 0.0317 0.3887
O4_2 O 0.9989(3) 0.7025(4) 0.1135(5)
C4_2 C 0.8918(4) 0.3498(4) 0.9562(5)
C6_2 C 0.8154(4) 0.3544(4) 0.9590(5)
H4_2 H 0.7874 0.3323 0.9072
O1_2 O 0.8979(4) 0.2829(6) 0.8005(7)
C12_2 C 0.9304(5) 0.3077(5) 0.8727(6)
C30_2 C 0.9935(4) 0.9910(4) 0.6748(5)
O6_2 O 0.7975(4) 0.9989(3) 0.3865(5)
loop_
_geom_bond_atom_site_label_1
_geom_bond_atom_site_label_2
_geom_bond_site_symmetry_1
_geom_bond_site_symmetry_2
C4 C6 1_555 1_555
C6 H4 1_555 1_555
O1 C12 1_555 1_555
C12 C4 1_555 1_555
O2 C12 1_555 1_555
H2 C2 1_555 1_555
N5 Cu1 1_555 1_555
N6 C14 1_555 1_555
N7 C18 1_555 1_555
C16 N6 1_555 1_555
N8 C18 1_555 1_555
C20 N7 1_555 1_555
H14 C20 1_555 1_555
C21 C16 1_555 1_555
H15 C21 1_555 1_555
C22 N7 1_555 1_555
C23 N5 1_555 1_555
H16 C23 1_555 1_555
C24 C16 1_555 1_555
H17 C24 1_555 1_555
C26 N8 1_555 1_555
H18 C26 1_555 1_555
Cu3_2 N8 1_555 1_555
N10 Cu1 1_555 1_555
N16 Cu4 1_555 1_555
N17 Cu4 1_555 1_555
C40 N16 1_555 1_555
C41 N16 1_555 1_555
C42 C43 1_555 1_555
C43 C48 1_555 1_555
N18 C44 1_555 1_555
C44 N10 1_555 1_555
H28 C44 1_555 1_555
C45 N18 1_555 1_555
C46 N10 1_555 1_555
C47 C42 1_555 1_555
H29 C47 1_555 1_555
C48 C49 1_555 1_555
C49 O7 1_555 1_555
C50 C40 1_555 1_555
N19 C41 1_555 1_555
C51 N18 1_555 1_555
H30 C41 1_555 1_555
H31 C40 1_555 1_555
C52 C48 1_555 1_555
H32 C52 1_555 1_555
H33 C43 1_555 1_555
O8 C49 1_555 1_555
H34 C50 1_555 1_555
H35 C45 1_555 1_555
H36 C46 1_555 1_555
N6 C23 1_555 1_555
C20 C26 1_555 1_555
C21 C22 1_555 1_555
C42 N19 1_555 1_555
C45 C46 1_555 1_555
C47 C51 1_555 1_555
C50 N19 1_555 1_555
C51 C52 1_555 1_555
C17 C19 1_555 1_555
C19 H13 1_555 1_555
O3 C25 1_555 1_555
C25 C17 1_555 1_555
C29 H19 1_555 1_555
Cu3_3 N14 1_555 1_555
Cu1_2 N1 1_555 1_555
N3 C5 1_555 1_555
C3 N2 1_555 1_555
N17 C5 1_555 1_555
C5 H3_2 1_555 1_555
C7 N3 1_555 1_555
H5 C7 1_555 1_555
C8 C3 1_555 1_555
H6 C8 1_555 1_555
C9 N3 1_555 1_555
C10 N1 1_555 1_555
H7 C10 1_555 1_555
C11 C3 1_555 1_555
H8 C11 1_555 1_555
C13 N17 1_555 1_555
H9 C13 1_555 1_555
C14_2 H10 1_555 1_555
H11 C15 1_555 1_555
N9 Cu1_2 1_555 1_555
C27 C28 1_555 1_555
C28 C32 1_555 1_555
N12 C27 1_555 1_555
N13 C31 1_555 1_555
C31 N9 1_555 1_555
C32 C33 1_555 1_555
C33 C38 1_555 1_555
C34 C32 1_555 1_555
C35 N9 1_555 1_555
C36 N14 1_555 1_555
C37 N13 1_555 1_555
C38 N13 1_555 1_555
C39 C27 1_555 1_555
H21 C28 1_555 1_555
O5 C34 1_555 1_555
H22 C35 1_555 1_555
H23 C37 1_555 1_555
H25 C36 1_555 1_555
H26 C33 1_555 1_555
H27 C39 1_555 1_555
N2 C10 1_555 1_555
C7 C13 1_555 1_555
C8 C9 1_555 1_555
C14_2 C15 1_555 1_555
N12 C36 1_555 1_555
C35 C37 1_555 1_555
C38 C39 1_555 1_555
Cu1_3 N1_2 1_555 1_555
N2_2 C1 1_555 1_555
N3_2 C5_2 1_555 1_555
C3_2 N2_2 1_555 1_555
N4 C5_2 1_555 1_555
C7_2 N3_2 1_555 1_555
H5_2 C7_2 1_555 1_555
C8_2 C3_2 1_555 1_555
H6_2 C8_2 1_555 1_555
C9_2 N3_2 1_555 1_555
C10_2 N1_2 1_555 1_555
H7_2 C10_2 1_555 1_555
C11_2 C3_2 1_555 1_555
H8_2 C11_2 1_555 1_555
C13_2 N4 1_555 1_555
H9_2 C13_2 1_555 1_555
H11_2 C15_2 1_555 1_555
Cu3_7 N4 1_555 1_555
N9_2 Cu1_3 1_555 1_555
Cu4_2 N11 1_555 1_555
N11 C29_2 1_555 1_555
C27_2 C28_2 1_555 1_555
C28_2 C32_2 1_555 1_555
C29_2 H19_2 1_555 1_555
C30 C29_2 1_555 1_555
N12_2 C27_2 1_555 1_555
N13_2 C31_2 1_555 1_555
C31_2 N9_2 1_555 1_555
C32_2 C33_2 1_555 1_555
C33_2 C38_2 1_555 1_555
C34_2 C32_2 1_555 1_555
C35_2 N9_2 1_555 1_555
C36_2 N11 1_555 1_555
H20_2 C30 1_555 1_555
C37_2 N13_2 1_555 1_555
C38_2 N13_2 1_555 1_555
C39_2 C27_2 1_555 1_555
H21_2 C28_2 1_555 1_555
O5_2 C34_2 1_555 1_555
O6 C34_2 1_555 1_555
H22_2 C35_2 1_555 1_555
H23_2 C37_2 1_555 1_555
H24 C31_2 1_555 1_555
H25_2 C36_2 1_555 1_555
H26_2 C33_2 1_555 1_555
H27_2 C39_2 1_555 1_555
N2_2 C10_2 1_555 1_555
C7_2 C13_2 1_555 1_555
C8_2 C9_2 1_555 1_555
C30 N12_2 1_555 1_555
N12_2 C36_2 1_555 1_555
C35_2 C37_2 1_555 1_555
C38_2 C39_2 1_555 1_555
C17_2 C19_2 1_555 1_555
C19_2 H13_2 1_555 1_555
O3_2 C25_2 1_555 1_555
C25_2 C17_2 1_555 1_555
O4 C25_2 1_555 1_555
N15 Cu4_2 1_555 1_555
C1_2 H1_2 1_555 1_555
C2_2 C1_2 1_555 1_555
H2_2 C2_2 1_555 1_555
N5_2 Cu1_4 1_555 1_555
N7_2 C18_2 1_555 1_555
C16_2 N6_2 1_555 1_555
N15 C18_2 1_555 1_555
C18_2 H12_2 1_555 1_555
C20_2 N7_2 1_555 1_555
H14_2 C20_2 1_555 1_555
C21_2 C16_2 1_555 1_555
H15_2 C21_2 1_555 1_555
C22_2 N7_2 1_555 1_555
C23_2 N5_2 1_555 1_555
H16_2 C23_2 1_555 1_555
C24_2 C16_2 1_555 1_555
H17_2 C24_2 1_555 1_555
C26_2 N15 1_555 1_555
H18_2 C26_2 1_555 1_555
N10_2 Cu1_4 1_555 1_555
N16_2 Cu3_6 1_555 1_555
C41_2 N16_2 1_555 1_555
C42_2 C43_2 1_555 1_555
C43_2 C48_2 1_555 1_555
N18_2 C44_2 1_555 1_555
C44_2 N10_2 1_555 1_555
C45_2 N18_2 1_555 1_555
C46_2 N10_2 1_555 1_555
C47_2 C42_2 1_555 1_555
H29_2 C47_2 1_555 1_555
C48_2 C49_2 1_555 1_555
C49_2 O7_2 1_555 1_555
N19_2 C41_2 1_555 1_555
C51_2 N18_2 1_555 1_555
H30_2 C41_2 1_555 1_555
C52_2 C48_2 1_555 1_555
H32_2 C52_2 1_555 1_555
H33_2 C43_2 1_555 1_555
H35_2 C45_2 1_555 1_555
H36_2 C46_2 1_555 1_555
N6_2 C23_2 1_555 1_555
C20_2 C26_2 1_555 1_555
C21_2 C22_2 1_555 1_555
C42_2 N19_2 1_555 1_555
C45_2 C46_2 1_555 1_555
C47_2 C51_2 1_555 1_555
C51_2 C52_2 1_555 1_555
H31_2 C40_2 1_555 1_555
C4_2 C6_2 1_555 1_555
C6_2 H4_2 1_555 1_555
O1_2 C12_2 1_555 1_555
C12_2 C4_2 1_555 1_555

#END
