
###############################################################################
#
# This file contains modified crystal structure data generated from the
# MOF subset of the Cambridge Structural Database (CSD) v543 
# hosted by the Cambridge Crystallographic Data Centre (CCDC).
#
# This work is licensed under the Creative Commons
# Attribution-NonCommercial-ShareAlike 4.0 International License.
# To view a copy of this license, visit
# http://creativecommons.org/licenses/by-nc-sa/4.0/
# or send a letter to
# Creative Commons, PO Box 1866, Mountain View, CA 94042, USA.
#
# CIF created using the CSD Python API on 29 September 2022
# The structure has been converted into the P1 space group
# The structure has a 3D framework
# The original CSD entry ASITAA is in the triclinic crystal system
# The framework has been calculated to contain at least 10.0% void space
# The void calculation uses a probe of radius 1.32A, grid spacing 0.4
# The framework is charged, counterions have been retained in the structure
#
###############################################################################

data_ASITAA
_chemical_formula_moiety         '(C30 H38 O40 Sm4)n'
_symmetry_cell_setting           triclinic
_symmetry_space_group_name_H-M   'P 1'
_symmetry_Int_Tables_number      1
_space_group_name_Hall           'P 1'
loop_
_symmetry_equiv_pos_site_id
_symmetry_equiv_pos_as_xyz
1 x,y,z
_cell_length_a                   10.1211(11)
_cell_length_b                   11.5033(12)
_cell_length_c                   12.8650(14)
_cell_angle_alpha                108.536(3)
_cell_angle_beta                 97.069(3)
_cell_angle_gamma                96.610(3)
_cell_volume                     1390.26
loop_
_atom_site_label
_atom_site_type_symbol
_atom_site_fract_x
_atom_site_fract_y
_atom_site_fract_z
_atom_site_U_iso_or_equiv
_atom_site_thermal_displace_type
O9 O 0.01019(19) 0.42379(19) 0.81602(18) 0.0318 Uani
H4 H 0.073637 0.402934 0.852757 0.0480 Uiso
O10 O 0.0131(2) 0.7235(2) 0.95261(16) 0.0336 Uani
H5 H 0.090995 0.758650 0.989533 0.0500 Uiso
O14 O 0.0781(2) 0.79394(18) 0.75349(18) 0.0301 Uani
H7 H 0.107270 0.843540 0.820068 0.0450 Uiso
H8 H 0.149896 0.779241 0.726046 0.0450 Uiso
O43 O 0.21238(17) 0.60894(16) 0.80161(14) 0.0198 Uani
O48 O 0.10616(17) 0.50654(17) 0.63114(14) 0.0212 Uani
Sm9 Sm 0.04823(2) 0.40301(2) 0.24172(2) 0.0119 Uani
H6 H 0.962634 0.729073 0.001577 0.0500 Uiso
O13 O 0.67598(19) 0.80622(18) 0.02387(19) 0.0338 Uani
O17 O 0.82388(17) 0.71094(16) 0.09354(15) 0.0224 Uani
C8 C 0.4871(2) 0.6163(2) 0.06859(19) 0.0164 Uani
H18 H 0.477981 0.694721 0.114559 0.0200 Uiso
C12 C 0.6009(2) 0.6018(2) 0.01895(19) 0.0149 Uani
C15 C 0.7090(2) 0.7140(2) 0.0472(2) 0.0167 Uani
O21 O 0.2332(2) 0.63967(18) 0.1390(2) 0.0371 Uani
O22 O 0.21946(17) 0.44637(16) 0.14021(15) 0.0209 Uani
C16 C 0.2701(2) 0.5356(2) 0.1134(2) 0.0195 Uani
C18 C 0.3861(2) 0.5157(2) 0.05087(19) 0.0150 Uani
Sm1 Sm 0.56783(2) 0.07720(2) 0.38349(2) 0.0115 Uani
Sm2 Sm 0.95177(2) 0.59699(2) 0.75828(2) 0.0119 Uani
O1 O 0.33514(17) 0.72942(15) 0.64737(15) 0.0198 Uani
O3 O 0.42571(17) 0.09656(14) 0.52722(13) 0.0159 Uani
O4 O 0.68533(16) 0.21518(15) 0.56347(14) 0.0180 Uani
O5 O 0.55447(17) 0.76070(15) 0.65359(16) 0.0211 Uani
O6 O 0.7668(2) 0.36033(18) 0.8610(2) 0.0371 Uani
O7 O 0.78054(17) 0.55363(16) 0.85979(15) 0.0209 Uani
H3 H 0.939116 0.382946 0.824411 0.0480 Uiso
O12 O 0.80588(16) 0.40484(15) 0.63191(14) 0.0179 Uani
O15 O 0.86727(19) 0.62502(17) 0.58352(15) 0.0257 Uani
H9 H 0.905590 0.582619 0.531974 0.0390 Uiso
H10 H 0.891804 0.700258 0.588134 0.0390 Uiso
O16 O 0.80029(19) 0.05773(19) 0.39578(18) 0.0327 Uani
H11 H 0.840424 0.011131 0.348737 0.0490 Uiso
H12 H 0.862321 0.097583 0.450671 0.0490 Uiso
O18 O 0.7976(2) 0.76042(18) 0.79283(17) 0.0294 Uani
H13 H 0.735697 0.742064 0.736510 0.0440 Uiso
H14 H 0.841429 0.829645 0.796486 0.0440 Uiso
C1 C 0.4471(2) 0.6923(2) 0.65353(18) 0.0135 Uani
C2 C 0.4357(2) 0.1784(2) 0.62304(19) 0.0132 Uani
O19 O 0.4233(2) 0.14736(15) 0.70573(15) 0.0254 Uani
C3 C 0.5649(2) 0.5089(2) 0.63394(19) 0.0128 Uani
H15 H 0.641056 0.556364 0.625544 0.0150 Uiso
O20 O 0.5766(3) 0.02379(18) 0.18564(16) 0.0341 Uani
H16 H 0.579536 0.073774 0.149254 0.0510 Uiso
C4 C 0.7299(2) 0.4644(2) 0.8866(2) 0.0195 Uani
C5 C 0.6963(2) 0.3325(2) 0.60549(18) 0.0128 Uani
C6 C 0.5680(2) 0.3850(2) 0.62478(18) 0.0114 Uani
C7 C 0.2120(2) 0.5429(2) 0.7036(2) 0.0142 Uani
C9 C 0.4507(2) 0.56302(19) 0.65531(18) 0.0121 Uani
C10 C 0.6139(2) 0.4843(2) 0.94913(19) 0.0150 Uani
C11 C 0.3383(2) 0.4934(2) 0.67260(19) 0.0126 Uani
C13 C 0.3405(2) 0.3700(2) 0.66308(19) 0.0147 Uani
H19 H 0.265835 0.323744 0.674964 0.0180 Uiso
C14 C 0.4522(2) 0.31427(19) 0.63612(18) 0.0120 Uani
O23 O 0.32402(19) 0.19378(18) 0.97613(19) 0.0338 Uani
O24 O 0.17612(17) 0.28906(16) 0.90646(15) 0.0224 Uani
C17 C 0.5129(2) 0.3837(2) 0.93141(19) 0.0164 Uani
H20 H 0.522019 0.305279 0.885441 0.0200 Uiso
C19 C 0.3991(2) 0.3982(2) 0.98105(19) 0.0149 Uani
C20 C 0.2910(2) 0.2860(2) 0.9528(2) 0.0167 Uani
O30 O 0.66601(19) 0.03466(18) 0.69395(16) 0.0309 Uani
H21 H 0.683592 0.089860 0.664215 0.0460 Uiso
H22 H 0.719722 0.063060 0.756405 0.0460 Uiso
H37 H 0.402630 0.042146 0.857170 0.0510 Uiso
Sm6 Sm 0.43217(2) 0.92280(2) 0.61651(2) 0.0115 Uani
O42 O 0.66486(17) 0.27058(15) 0.35263(15) 0.0198 Uani
O46 O 0.44553(17) 0.23930(15) 0.34641(16) 0.0211 Uani
O8 O 0.33399(19) 0.96534(18) 0.30605(16) 0.0309 Uani
H1 H 0.316408 0.910140 0.335785 0.0460 Uiso
H2 H 0.280278 0.936940 0.243595 0.0460 Uiso
H17 H 0.597370 0.957854 0.142830 0.0510 Uiso
O26 O 0.78762(17) 0.39106(16) 0.19839(14) 0.0198 Uani
O27 O 0.57429(17) 0.90344(14) 0.47278(13) 0.0159 Uani
O28 O 0.31467(16) 0.78482(15) 0.43653(14) 0.0180 Uani
H23 H 0.060884 0.617054 0.175589 0.0480 Uiso
O33 O 0.89384(17) 0.49346(17) 0.36886(14) 0.0212 Uani
O34 O 0.19412(16) 0.59516(15) 0.36809(14) 0.0179 Uani
O36 O 0.13273(19) 0.37498(17) 0.41648(15) 0.0257 Uani
H29 H 0.094410 0.417381 0.468026 0.0390 Uiso
H30 H 0.108196 0.299742 0.411866 0.0390 Uiso
O37 O 0.19971(19) 0.94227(19) 0.60422(18) 0.0327 Uani
H31 H 0.159576 0.988869 0.651263 0.0490 Uiso
H32 H 0.137679 0.902417 0.549329 0.0490 Uiso
O38 O 0.2024(2) 0.23958(18) 0.20717(17) 0.0294 Uani
H33 H 0.264303 0.257936 0.263490 0.0440 Uiso
H34 H 0.158571 0.170355 0.203514 0.0440 Uiso
C21 C 0.5529(2) 0.3077(2) 0.34647(18) 0.0135 Uani
C22 C 0.5643(2) 0.8216(2) 0.37696(19) 0.0132 Uani
O39 O 0.5767(2) 0.85264(15) 0.29427(15) 0.0254 Uani
C23 C 0.4351(2) 0.4911(2) 0.36606(19) 0.0128 Uani
H35 H 0.358944 0.443636 0.374456 0.0150 Uiso
O40 O 0.4234(3) 0.97621(18) 0.81436(16) 0.0341 Uani
H36 H 0.420464 0.926226 0.850746 0.0510 Uiso
C24 C 0.3037(2) 0.6675(2) 0.39451(18) 0.0128 Uani
C25 C 0.4320(2) 0.6150(2) 0.37522(18) 0.0114 Uani
C26 C 0.7880(2) 0.4571(2) 0.2964(2) 0.0142 Uani
C27 C 0.5493(2) 0.43698(19) 0.34469(18) 0.0121 Uani
C28 C 0.6617(2) 0.5066(2) 0.32740(19) 0.0126 Uani
C29 C 0.6595(2) 0.6300(2) 0.33692(19) 0.0147 Uani
H38 H 0.734165 0.676256 0.325036 0.0180 Uiso
C30 C 0.5478(2) 0.68573(19) 0.36388(18) 0.0120 Uani
H26 H 0.037366 0.270927 0.998423 0.0500 Uiso
O31 O 0.98981(19) 0.57621(19) 0.18398(18) 0.0318 Uani
H24 H 0.926363 0.597066 0.147243 0.0480 Uiso
O32 O 0.9869(2) 0.2765(2) 0.04739(16) 0.0336 Uani
H25 H 0.909005 0.241350 0.010467 0.0500 Uiso
O35 O 0.9219(2) 0.20606(18) 0.24651(18) 0.0301 Uani
H27 H 0.892730 0.156460 0.179932 0.0450 Uiso
H28 H 0.850104 0.220759 0.273954 0.0450 Uiso
loop_
_atom_site_aniso_label
_atom_site_aniso_U_11
_atom_site_aniso_U_22
_atom_site_aniso_U_33
_atom_site_aniso_U_23
_atom_site_aniso_U_13
_atom_site_aniso_U_12
O9 0.0177 0.0371 0.0565 0.0349 0.011 0.0079
O10 0.0249 0.0458 0.0192 0.0006 0.0061 -0.0099
O14 0.0262 0.0232 0.0408 0.0118 0.0083 -0.0016
O43 0.0168 0.0205 0.0207 0.003 0.007 0.0044
O48 0.0125 0.0278 0.0209 0.0036 0.0041 0.0059
Sm9 0.01005 0.01109 0.01491 0.00379 0.00463 0.00157
O13 0.0235 0.0232 0.0568 0.0227 -0.0029 -0.0046
O17 0.0152 0.0238 0.0253 0.0069 -0.0001 -0.0003
C8 0.0178 0.0139 0.0166 0.0037 0.006 0.0004
C12 0.0137 0.0157 0.0144 0.0049 0.0034 -0.0016
C15 0.016 0.0168 0.0171 0.0056 0.0055 -0.0012
O21 0.0364 0.0226 0.0646 0.0191 0.0357 0.0119
O22 0.0214 0.0186 0.0233 0.0063 0.012 -0.0004
C16 0.0166 0.0205 0.0206 0.0049 0.008 0.0008
C18 0.0127 0.0169 0.0161 0.0063 0.0051 0.0003
Sm1 0.01475 0.00712 0.01343 0.00421 0.00366 0.00166
Sm2 0.01005 0.01109 0.01491 0.00379 0.00463 0.00157
O1 0.0158 0.0143 0.0347 0.0136 0.0072 0.0057
O3 0.0209 0.0095 0.017 0.0029 0.0066 0.002
O4 0.0154 0.0104 0.0247 0.0007 0.0027 0.0046
O5 0.0157 0.014 0.0383 0.0147 0.0062 0.0025
O6 0.0364 0.0226 0.0646 0.0191 0.0357 0.0119
O7 0.0214 0.0186 0.0233 0.0063 0.012 -0.0004
O12 0.0112 0.0155 0.0234 0.0024 0.0024 -0.0001
O15 0.0344 0.0228 0.0205 0.007 0.005 0.0073
O16 0.0198 0.0327 0.0357 -0.0031 0.0055 0.0064
O18 0.0285 0.0271 0.0328 0.0081 0.0046 0.0117
C1 0.0172 0.0111 0.0137 0.0052 0.0037 0.0038
C2 0.0119 0.0101 0.0185 0.0056 0.0032 0.002
O19 0.0482 0.0111 0.0175 0.0057 0.0072 0.0035
C3 0.011 0.0106 0.0169 0.0047 0.0037 0.0011
O20 0.0683 0.0203 0.0198 0.0107 0.0151 0.012
C4 0.0166 0.0205 0.0206 0.0049 0.008 0.0008
C5 0.0134 0.0131 0.0119 0.004 0.0017 0.0033
C6 0.0113 0.0109 0.0117 0.0032 0.0013 0.003
C7 0.0129 0.0109 0.0218 0.0079 0.007 0.0027
C9 0.013 0.0084 0.0156 0.0049 0.0022 0.0022
C10 0.0127 0.0169 0.0161 0.0063 0.0051 0.0003
C11 0.0121 0.0118 0.0159 0.0058 0.0047 0.0045
C13 0.0129 0.0116 0.0207 0.006 0.0058 0.0013
C14 0.0147 0.0088 0.013 0.0042 0.0025 0.0026
O23 0.0235 0.0232 0.0568 0.0227 -0.0029 -0.0046
O24 0.0152 0.0238 0.0253 0.0069 -0.0001 -0.0003
C17 0.0178 0.0139 0.0166 0.0037 0.006 0.0004
C19 0.0137 0.0157 0.0144 0.0049 0.0034 -0.0016
C20 0.016 0.0168 0.0171 0.0056 0.0055 -0.0012
O30 0.0258 0.0311 0.0277 0.0045 -0.0024 -0.0048
Sm6 0.01475 0.00712 0.01343 0.00421 0.00366 0.00166
O42 0.0158 0.0143 0.0347 0.0136 0.0072 0.0057
O46 0.0157 0.014 0.0383 0.0147 0.0062 0.0025
O8 0.0258 0.0311 0.0277 0.0045 -0.0024 -0.0048
O26 0.0168 0.0205 0.0207 0.003 0.007 0.0044
O27 0.0209 0.0095 0.017 0.0029 0.0066 0.002
O28 0.0154 0.0104 0.0247 0.0007 0.0027 0.0046
O33 0.0125 0.0278 0.0209 0.0036 0.0041 0.0059
O34 0.0112 0.0155 0.0234 0.0024 0.0024 -0.0001
O36 0.0344 0.0228 0.0205 0.007 0.005 0.0073
O37 0.0198 0.0327 0.0357 -0.0031 0.0055 0.0064
O38 0.0285 0.0271 0.0328 0.0081 0.0046 0.0117
C21 0.0172 0.0111 0.0137 0.0052 0.0037 0.0038
C22 0.0119 0.0101 0.0185 0.0056 0.0032 0.002
O39 0.0482 0.0111 0.0175 0.0057 0.0072 0.0035
C23 0.011 0.0106 0.0169 0.0047 0.0037 0.0011
O40 0.0683 0.0203 0.0198 0.0107 0.0151 0.012
C24 0.0134 0.0131 0.0119 0.004 0.0017 0.0033
C25 0.0113 0.0109 0.0117 0.0032 0.0013 0.003
C26 0.0129 0.0109 0.0218 0.0079 0.007 0.0027
C27 0.013 0.0084 0.0156 0.0049 0.0022 0.0022
C28 0.0121 0.0118 0.0159 0.0058 0.0047 0.0045
C29 0.0129 0.0116 0.0207 0.006 0.0058 0.0013
C30 0.0147 0.0088 0.013 0.0042 0.0025 0.0026
O31 0.0177 0.0371 0.0565 0.0349 0.011 0.0079
O32 0.0249 0.0458 0.0192 0.0006 0.0061 -0.0099
O35 0.0262 0.0232 0.0408 0.0118 0.0083 -0.0016
loop_
_geom_bond_atom_site_label_1
_geom_bond_atom_site_label_2
_geom_bond_site_symmetry_1
_geom_bond_site_symmetry_2
H4 O9 1_555 1_555
H5 O10 1_555 1_555
H7 O14 1_555 1_555
H8 O14 1_555 1_555
O13 C15 1_555 1_555
O17 C15 1_555 1_555
C8 H18 1_555 1_555
C12 C8 1_555 1_555
C15 C12 1_555 1_555
O21 C16 1_555 1_555
O22 C16 1_555 1_555
C16 C18 1_555 1_555
C18 C8 1_555 1_555
Sm9 O22 1_555 1_555
Sm1 O3 1_555 1_555
Sm2 O7 1_555 1_555
O1 C1 1_555 1_555
O43 C7 1_555 1_555
O3 C2 1_555 1_555
O4 Sm1 1_555 1_555
O5 C1 1_555 1_555
O6 C4 1_555 1_555
O7 C4 1_555 1_555
O48 C7 1_555 1_555
O12 Sm2 1_555 1_555
O15 Sm2 1_555 1_555
H9 O15 1_555 1_555
H10 O15 1_555 1_555
O16 Sm1 1_555 1_555
H11 O16 1_555 1_555
H12 O16 1_555 1_555
O18 Sm2 1_555 1_555
H13 O18 1_555 1_555
H14 O18 1_555 1_555
C1 C9 1_555 1_555
C2 O19 1_555 1_555
C3 H15 1_555 1_555
O20 Sm1 1_555 1_555
H16 O20 1_555 1_555
C4 C10 1_555 1_555
C5 O4 1_555 1_555
C6 C3 1_555 1_555
C7 C11 1_555 1_555
C9 C3 1_555 1_555
C11 C9 1_555 1_555
C13 C11 1_555 1_555
H19 C13 1_555 1_555
C14 C2 1_555 1_555
O23 C20 1_555 1_555
O24 C20 1_555 1_555
C17 C10 1_555 1_555
H20 C17 1_555 1_555
C19 C17 1_555 1_555
C20 C19 1_555 1_555
H21 O30 1_555 1_555
H22 O30 1_555 1_555
Sm6 O1 1_555 1_555
O42 Sm1 1_555 1_555
O46 Sm1 1_555 1_555
O5 Sm6 1_555 1_555
O12 C5 1_555 1_555
C5 C6 1_555 1_555
C6 C14 1_555 1_555
C13 C14 1_555 1_555
H1 O8 1_555 1_555
H2 O8 1_555 1_555
O42 C21 1_555 1_555
O26 C26 1_555 1_555
O28 Sm6 1_555 1_555
O46 C21 1_555 1_555
O33 C26 1_555 1_555
O34 Sm9 1_555 1_555
O36 Sm9 1_555 1_555
H29 O36 1_555 1_555
H30 O36 1_555 1_555
O37 Sm6 1_555 1_555
H31 O37 1_555 1_555
H32 O37 1_555 1_555
O38 Sm9 1_555 1_555
H33 O38 1_555 1_555
H34 O38 1_555 1_555
C21 C27 1_555 1_555
C22 O27 1_555 1_555
C23 H35 1_555 1_555
O40 Sm6 1_555 1_555
H36 O40 1_555 1_555
C24 O28 1_555 1_555
C25 C23 1_555 1_555
C26 C28 1_555 1_555
C27 C23 1_555 1_555
C28 C27 1_555 1_555
C29 C28 1_555 1_555
H38 C29 1_555 1_555
C30 C22 1_555 1_555
Sm6 O27 1_555 1_555
O34 C24 1_555 1_555
C22 O39 1_555 1_555
C24 C25 1_555 1_555
C25 C30 1_555 1_555
C29 C30 1_555 1_555
H24 O31 1_555 1_555
H25 O32 1_555 1_555
H27 O35 1_555 1_555
H28 O35 1_555 1_555

#END
