
###############################################################################
#
# This file contains modified crystal structure data generated from the
# MOF subset of the Cambridge Structural Database (CSD) v543 
# hosted by the Cambridge Crystallographic Data Centre (CCDC).
#
# This work is licensed under the Creative Commons
# Attribution-NonCommercial-ShareAlike 4.0 International License.
# To view a copy of this license, visit
# http://creativecommons.org/licenses/by-nc-sa/4.0/
# or send a letter to
# Creative Commons, PO Box 1866, Mountain View, CA 94042, USA.
#
# CIF created using the CSD Python API on 29 September 2022
# The structure has been converted into the P1 space group
# The structure has a 3D framework
# The original CSD entry ASOZAM is in the monoclinic crystal system
# The framework has been calculated to contain at least 10.0% void space
# The void calculation uses a probe of radius 1.32A, grid spacing 0.4
#
###############################################################################

data_ASOZAM
_chemical_formula_moiety         '(C84 H56 Cd4 N22 O16 S4)n'
_symmetry_cell_setting           triclinic
_symmetry_space_group_name_H-M   'P 1'
_symmetry_Int_Tables_number      1
_space_group_name_Hall           'P 1'
loop_
_symmetry_equiv_pos_site_id
_symmetry_equiv_pos_as_xyz
1 x,y,z
_cell_length_a                   11.692(2)
_cell_length_b                   25.537(5)
_cell_length_c                   12.694(2)
_cell_angle_alpha                90
_cell_angle_beta                 110.776(2)
_cell_angle_gamma                90
_cell_volume                     3543.7
loop_
_atom_site_label
_atom_site_type_symbol
_atom_site_fract_x
_atom_site_fract_y
_atom_site_fract_z
N3 N 0.16492(18) 0.34238(7) 0.51337(17)
C10 C 0.0064(2) 0.30099(9) 0.3853(2)
C11 C 0.1097(2) 0.29454(9) 0.4766(2)
H8 H 0.1393 0.2625 0.5098
C12 C 0.0945(2) 0.37778(9) 0.4452(2)
H9 H 0.1095 0.4136 0.4508
Cd3 Cd 0.344511(15) 0.340310(6) 0.672290(14)
N5 N 0.52670(18) 0.33348(7) 0.83301(17)
N6 N 0.67392(18) 0.35215(8) 0.99427(17)
C13 C 0.7278(2) 0.32566(9) 0.9289(2)
H10 H 0.8100 0.3171 0.9484
C14 C 0.6365(2) 0.31478(9) 0.8309(2)
H11 H 0.6463 0.2972 0.7705
C15 C 0.5529(2) 0.35536(10) 0.9328(2)
H12 H 0.4955 0.3710 0.9579
Cd1 Cd 0.844511(15) 0.159690(6) 0.172290(14)
S1 S 0.57459(6) 0.22405(3) 0.43053(6)
O1 O 0.76846(16) 0.23056(7) 0.23252(15)
O2 O 0.7091(2) 0.16139(7) 0.30716(19)
O3 O 0.46490(18) 0.34388(8) 0.56507(16)
O4 O 0.43795(19) 0.25840(9) 0.57972(17)
N1 N 0.85444(18) 0.07048(8) 0.20099(18)
C1 C 0.7699(2) 0.03631(9) 0.2009(2)
H1 H 0.6864 0.0433 0.1744
C2 C 0.9650(2) 0.04439(10) 0.2467(2)
C16 C 0.7153(2) 0.20939(10) 0.2935(2)
C17 C 0.6598(2) 0.24658(10) 0.3532(2)
C18 C 0.6700(2) 0.29967(10) 0.3584(2)
H13 H 0.7125 0.3188 0.3218
C19 C 0.6094(2) 0.32266(11) 0.4253(2)
H14 H 0.6079 0.3585 0.4373
C20 C 0.5535(2) 0.28688(10) 0.4705(2)
C21 C 0.4794(2) 0.29630(12) 0.5437(2)
O5 O 0.96490(18) 0.15612(8) 0.06507(16)
O6 O 0.93795(19) 0.24160(9) 0.07972(17)
N7 N 0.66492(18) 0.15762(7) 0.01337(17)
S1_2 S 0.07459(6) 0.27595(3) 0.93053(6)
O1_2 O 0.26846(16) 0.26944(7) 0.73252(15)
O2_2 O 0.2091(2) 0.33861(7) 0.80716(19)
N1_2 N 0.35444(18) 0.42952(8) 0.70099(18)
N2 N 0.32024(18) 0.51030(7) 0.74420(17)
N4 N 0.00343(18) 0.64540(7) 0.63473(17)
C1_2 C 0.2699(2) 0.46369(9) 0.7009(2)
H1_2 H 0.1864 0.4567 0.6744
C2_2 C 0.4650(2) 0.45561(10) 0.7467(2)
H2 H 0.5412 0.4412 0.7569
C3 C 0.4455(2) 0.50524(10) 0.7744(2)
H3 H 0.5043 0.5307 0.8071
C4 C 0.1543(2) 0.57528(9) 0.6892(2)
H4 H 0.1170 0.5590 0.6199
C5 C 0.2608(2) 0.55530(9) 0.7690(2)
C6 C 0.3154(2) 0.57857(9) 0.8734(2)
H5 H 0.3845 0.5637 0.9264
C7 C 0.2662(2) 0.62410(9) 0.89806(19)
C8 C 0.1601(2) 0.64579(9) 0.8213(2)
H6 H 0.1264 0.6761 0.8386
C9 C 0.1059(2) 0.62093(9) 0.7179(2)
H7 H 0.0467 0.7250 0.6554
C16_2 C 0.2153(2) 0.29061(10) 0.7935(2)
C17_2 C 0.1598(2) 0.25342(10) 0.8532(2)
C18_2 C 0.1700(2) 0.20033(10) 0.8584(2)
H13_2 H 0.2125 0.1812 0.8218
C19_2 C 0.1094(2) 0.17734(11) 0.9253(2)
H14_2 H 0.1079 0.1415 0.9373
C20_2 C 0.0535(2) 0.21312(10) 0.9705(2)
C21_2 C 0.9794(2) 0.20370(12) 0.0437(2)
H8_2 H 0.6393 0.2375 0.0098
H3_2 H 0.9957 0.0307 0.6929
H12_2 H 0.9955 0.1290 0.4579
O3_2 O 0.03510(18) 0.84388(8) 0.93493(16)
O4_2 O 0.06205(19) 0.75840(9) 0.92028(17)
C21_3 C 0.0206(2) 0.79630(12) 0.9563(2)
Cd4 Cd 0.155489(15) 0.840310(6) 0.827710(14)
Cd1_2 Cd 0.655489(15) 0.659690(6) 0.327710(14)
S1_3 S 0.92541(6) 0.72405(3) 0.06947(6)
O1_3 O 0.73154(16) 0.73056(7) 0.26748(15)
O2_3 O 0.7909(2) 0.66139(7) 0.19284(19)
N1_3 N 0.64556(18) 0.57048(8) 0.29901(18)
N2_2 N 0.67976(18) 0.48970(7) 0.25580(17)
N4_2 N 0.99657(18) 0.35460(7) 0.36527(17)
C1_3 C 0.7301(2) 0.53631(9) 0.2991(2)
H1_3 H 0.8136 0.5433 0.3256
C2_3 C 0.5350(2) 0.54439(10) 0.2533(2)
H2_2 H 0.4588 0.5588 0.2431
C3_2 C 0.5545(2) 0.49476(10) 0.2256(2)
H3_3 H 0.4957 0.4693 0.1929
C4_2 C 0.8457(2) 0.42472(9) 0.3108(2)
H4_2 H 0.8830 0.4410 0.3801
C5_2 C 0.7392(2) 0.44470(9) 0.2310(2)
C6_2 C 0.6846(2) 0.42143(9) 0.1266(2)
H5_2 H 0.6155 0.4363 0.0736
C7_2 C 0.7338(2) 0.37590(9) 0.10194(19)
C8_2 C 0.8399(2) 0.35421(9) 0.1787(2)
H6_2 H 0.8736 0.3239 0.1614
C9_2 C 0.8941(2) 0.37907(9) 0.2821(2)
H7_2 H 0.9533 0.2750 0.3446
C16_3 C 0.7847(2) 0.70939(10) 0.2065(2)
C17_3 C 0.8402(2) 0.74658(10) 0.1468(2)
C18_3 C 0.8300(2) 0.79967(10) 0.1416(2)
H13_3 H 0.7875 0.8188 0.1782
C19_3 C 0.8906(2) 0.82266(11) 0.0747(2)
H14_3 H 0.8921 0.8585 0.0627
C20_3 C 0.9465(2) 0.78688(10) 0.0295(2)
O5_2 O 0.53510(18) 0.65612(8) 0.43493(16)
O6_2 O 0.56205(19) 0.74160(9) 0.42028(17)
N7_2 N 0.83508(18) 0.65762(7) 0.48663(17)
N8 N 0.47330(18) 0.66652(7) 0.16699(17)
H3_4 H 0.0043 0.9693 0.3071
H12_3 H 0.0045 0.8710 0.5421
N3_2 N 0.33508(18) 0.84238(7) 0.98663(17)
H8_3 H 0.3607 0.7625 0.9902
N6_2 N 0.32608(18) 0.64785(8) 0.00573(17)
C13_2 C 0.2722(2) 0.67434(9) 0.0711(2)
H10_2 H 0.1900 0.6829 0.0516
C14_2 C 0.3635(2) 0.68522(9) 0.1691(2)
H11_2 H 0.3537 0.7028 0.2295
C15_2 C 0.4471(2) 0.64464(10) 0.0672(2)
H12_4 H 0.5045 0.6290 0.0421
C10_2 C 0.9936(2) 0.69901(9) 0.6147(2)
C11_2 C 0.8903(2) 0.70546(9) 0.5234(2)
H8_4 H 0.8607 0.7375 0.4902
C12_2 C 0.9055(2) 0.62222(9) 0.5548(2)
H9_2 H 0.8905 0.5864 0.5492
S1_4 S 0.42541(6) 0.77595(3) 0.56947(6)
O1_4 O 0.23154(16) 0.76944(7) 0.76748(15)
O2_4 O 0.2909(2) 0.83861(7) 0.69284(19)
N1_4 N 0.14556(18) 0.92952(8) 0.79901(18)
C1_4 C 0.2301(2) 0.96369(9) 0.7991(2)
H1_4 H 0.3136 0.9567 0.8256
C2_4 C 0.0350(2) 0.95561(10) 0.7533(2)
C16_4 C 0.2847(2) 0.79061(10) 0.7065(2)
C17_4 C 0.3402(2) 0.75342(10) 0.6468(2)
C18_4 C 0.3300(2) 0.70033(10) 0.6416(2)
H13_4 H 0.2875 0.6812 0.6782
C19_4 C 0.3906(2) 0.67734(11) 0.5747(2)
H14_4 H 0.3921 0.6415 0.5627
C20_4 C 0.4465(2) 0.71312(10) 0.5295(2)
C21_4 C 0.5206(2) 0.70370(12) 0.4563(2)
H2_3 H 0.0412 0.0588 0.2569
N8_2 N 0.02670(18) 0.16652(7) 0.33301(17)
N2_3 N 0.17976(18) 0.01030(7) 0.75580(17)
N4_3 N 0.49657(18) 0.14540(7) 0.86527(17)
N6_3 N 0.17392(18) 0.14785(8) 0.49427(17)
C3_3 C 0.0545(2) 0.00524(10) 0.7256(2)
C4_3 C 0.3457(2) 0.07528(9) 0.8108(2)
H4_3 H 0.3830 0.0590 0.8801
C5_3 C 0.2392(2) 0.05530(9) 0.7310(2)
C6_3 C 0.1846(2) 0.07857(9) 0.6266(2)
H5_3 H 0.1155 0.0637 0.5736
C7_3 C 0.2338(2) 0.12410(9) 0.60194(19)
C8_3 C 0.3399(2) 0.14579(9) 0.6787(2)
H6_3 H 0.3736 0.1761 0.6614
C9_3 C 0.3941(2) 0.12093(9) 0.7821(2)
C10_3 C 0.5064(2) 0.19901(9) 0.8853(2)
H7_3 H 0.4533 0.2250 0.8446
C11_3 C 0.6097(2) 0.20546(9) 0.9766(2)
C12_3 C 0.5945(2) 0.12222(9) 0.9452(2)
H9_3 H 0.6095 0.0864 0.9508
C13_3 C 0.2278(2) 0.17434(9) 0.4289(2)
H10_3 H 0.3100 0.1829 0.4484
C14_3 C 0.1365(2) 0.18522(9) 0.3309(2)
H11_3 H 0.1463 0.2028 0.2705
C15_3 C 0.0529(2) 0.14464(10) 0.4328(2)
N2_4 N 0.82024(18) 0.98970(7) 0.24420(17)
N4_4 N 0.50343(18) 0.85460(7) 0.13473(17)
N5_2 N 0.97330(18) 0.83348(7) 0.66699(17)
N6_4 N 0.82608(18) 0.85215(8) 0.50573(17)
C3_4 C 0.9455(2) 0.99476(10) 0.2744(2)
C4_4 C 0.6543(2) 0.92472(9) 0.1892(2)
H4_4 H 0.6170 0.9410 0.1199
C5_4 C 0.7608(2) 0.94470(9) 0.2690(2)
C6_4 C 0.8154(2) 0.92143(9) 0.3734(2)
H5_4 H 0.8845 0.9363 0.4264
C7_4 C 0.7662(2) 0.87590(9) 0.39806(19)
C8_4 C 0.6601(2) 0.85421(9) 0.3213(2)
H6_4 H 0.6264 0.8239 0.3386
C9_4 C 0.6059(2) 0.87907(9) 0.2179(2)
C10_4 C 0.4936(2) 0.80099(9) 0.1147(2)
H7_4 H 0.5467 0.7750 0.1554
C11_4 C 0.3903(2) 0.79454(9) 0.0234(2)
C12_4 C 0.4055(2) 0.87778(9) 0.0548(2)
H9_4 H 0.3905 0.9136 0.0492
C13_4 C 0.7722(2) 0.82566(9) 0.5711(2)
H10_4 H 0.6900 0.8171 0.5516
C14_4 C 0.8635(2) 0.81478(9) 0.6691(2)
H11_4 H 0.8537 0.7972 0.7295
C15_4 C 0.9471(2) 0.85536(10) 0.5672(2)
H2_4 H 0.9588 0.9412 0.7431
loop_
_geom_bond_atom_site_label_1
_geom_bond_atom_site_label_2
_geom_bond_site_symmetry_1
_geom_bond_site_symmetry_2
N3 C11 1_555 1_555
C11 C10 1_555 1_555
H8 C11 1_555 1_555
C12 N3 1_555 1_555
H9 C12 1_555 1_555
Cd3 N3 1_555 1_555
N5 C14 1_555 1_555
C13 N6 1_555 1_555
H10 C13 1_555 1_555
C14 C13 1_555 1_555
H11 C14 1_555 1_555
C15 N5 1_555 1_555
H12 C15 1_555 1_555
Cd3 N5 1_555 1_555
N6 C15 1_555 1_555
Cd1 O1 1_555 1_555
S1 C17 1_555 1_555
O1 C16 1_555 1_555
O2 Cd1 1_555 1_555
O3 C21 1_555 1_555
O4 C21 1_555 1_555
N1 Cd1 1_555 1_555
C1 N1 1_555 1_555
H1 C1 1_555 1_555
C2 N1 1_555 1_555
C16 O2 1_555 1_555
C17 C16 1_555 1_555
C18 C17 1_555 1_555
H13 C18 1_555 1_555
C19 C18 1_555 1_555
H14 C19 1_555 1_555
C20 S1 1_555 1_555
C21 C20 1_555 1_555
Cd3 O3 1_555 1_555
O5 Cd1 1_555 1_555
O6 Cd1 1_555 1_555
N7 Cd1 1_555 1_555
O4 Cd3 1_555 1_555
C19 C20 1_555 1_555
Cd3 O1_2 1_555 1_555
S1_2 C17_2 1_555 1_555
O1_2 C16_2 1_555 1_555
O2_2 Cd3 1_555 1_555
N1_2 Cd3 1_555 1_555
N2 C1_2 1_555 1_555
N4 C9 1_555 1_555
C1_2 N1_2 1_555 1_555
H1_2 C1_2 1_555 1_555
C2_2 N1_2 1_555 1_555
H2 C2_2 1_555 1_555
C3 N2 1_555 1_555
H3 C3 1_555 1_555
C4 H4 1_555 1_555
C5 N2 1_555 1_555
C6 C5 1_555 1_555
H5 C6 1_555 1_555
C7 C6 1_555 1_555
C8 C7 1_555 1_555
H6 C8 1_555 1_555
C9 C4 1_555 1_555
C16_2 O2_2 1_555 1_555
C17_2 C16_2 1_555 1_555
C18_2 C17_2 1_555 1_555
H13_2 C18_2 1_555 1_555
C19_2 C18_2 1_555 1_555
H14_2 C19_2 1_555 1_555
C20_2 S1_2 1_555 1_555
C2_2 C3 1_555 1_555
C4 C5 1_555 1_555
C8 C9 1_555 1_555
C19_2 C20_2 1_555 1_555
O5 C21_2 1_555 1_555
O6 C21_2 1_555 1_555
O3_2 C21_3 1_555 1_555
O4_2 C21_3 1_555 1_555
Cd4 O3_2 1_555 1_555
O4_2 Cd4 1_555 1_555
Cd1_2 O1_3 1_555 1_555
S1_3 C17_3 1_555 1_555
O1_3 C16_3 1_555 1_555
O2_3 Cd1_2 1_555 1_555
N1_3 Cd1_2 1_555 1_555
N2_2 C1_3 1_555 1_555
N4_2 C9_2 1_555 1_555
C1_3 N1_3 1_555 1_555
H1_3 C1_3 1_555 1_555
C2_3 N1_3 1_555 1_555
H2_2 C2_3 1_555 1_555
C3_2 N2_2 1_555 1_555
H3_3 C3_2 1_555 1_555
C4_2 H4_2 1_555 1_555
C5_2 N2_2 1_555 1_555
C6_2 C5_2 1_555 1_555
H5_2 C6_2 1_555 1_555
C7_2 C6_2 1_555 1_555
C8_2 C7_2 1_555 1_555
H6_2 C8_2 1_555 1_555
C9_2 C4_2 1_555 1_555
C16_3 O2_3 1_555 1_555
C17_3 C16_3 1_555 1_555
C18_3 C17_3 1_555 1_555
H13_3 C18_3 1_555 1_555
C19_3 C18_3 1_555 1_555
H14_3 C19_3 1_555 1_555
C20_3 S1_3 1_555 1_555
O5_2 Cd1_2 1_555 1_555
O6_2 Cd1_2 1_555 1_555
N7_2 Cd1_2 1_555 1_555
N8 Cd1_2 1_555 1_555
C2_3 C3_2 1_555 1_555
C4_2 C5_2 1_555 1_555
C8_2 C9_2 1_555 1_555
C19_3 C20_3 1_555 1_555
Cd4 N3_2 1_555 1_555
N8 C14_2 1_555 1_555
C13_2 N6_2 1_555 1_555
H10_2 C13_2 1_555 1_555
C14_2 C13_2 1_555 1_555
H11_2 C14_2 1_555 1_555
C15_2 N8 1_555 1_555
H12_4 C15_2 1_555 1_555
N6_2 C15_2 1_555 1_555
N7_2 C11_2 1_555 1_555
C11_2 C10_2 1_555 1_555
H8_4 C11_2 1_555 1_555
C12_2 N7_2 1_555 1_555
H9_2 C12_2 1_555 1_555
Cd4 O1_4 1_555 1_555
S1_4 C17_4 1_555 1_555
O1_4 C16_4 1_555 1_555
O2_4 Cd4 1_555 1_555
O5_2 C21_4 1_555 1_555
O6_2 C21_4 1_555 1_555
N1_4 Cd4 1_555 1_555
C1_4 N1_4 1_555 1_555
H1_4 C1_4 1_555 1_555
C2_4 N1_4 1_555 1_555
C16_4 O2_4 1_555 1_555
C17_4 C16_4 1_555 1_555
C18_4 C17_4 1_555 1_555
H13_4 C18_4 1_555 1_555
C19_4 C18_4 1_555 1_555
H14_4 C19_4 1_555 1_555
C20_4 S1_4 1_555 1_555
C21_4 C20_4 1_555 1_555
C19_4 C20_4 1_555 1_555
N4_3 C9_3 1_555 1_555
N8_2 C14_3 1_555 1_555
N6_3 C7_3 1_555 1_555
C3_3 N2_3 1_555 1_555
C4_3 H4_3 1_555 1_555
C5_3 N2_3 1_555 1_555
C6_3 C5_3 1_555 1_555
H5_3 C6_3 1_555 1_555
C7_3 C6_3 1_555 1_555
C8_3 C7_3 1_555 1_555
H6_3 C8_3 1_555 1_555
C9_3 C4_3 1_555 1_555
C10_3 N4_3 1_555 1_555
H7_3 C10_3 1_555 1_555
C11_3 C10_3 1_555 1_555
H9_3 C12_3 1_555 1_555
C13_3 N6_3 1_555 1_555
H10_3 C13_3 1_555 1_555
C14_3 C13_3 1_555 1_555
H11_3 C14_3 1_555 1_555
C15_3 N8_2 1_555 1_555
N4_3 C12_3 1_555 1_555
N6_3 C15_3 1_555 1_555
C4_3 C5_3 1_555 1_555
C8_3 C9_3 1_555 1_555
N4_4 C9_4 1_555 1_555
N5_2 C14_4 1_555 1_555
N6_4 C7_4 1_555 1_555
C3_4 N2_4 1_555 1_555
C4_4 H4_4 1_555 1_555
C5_4 N2_4 1_555 1_555
C6_4 C5_4 1_555 1_555
H5_4 C6_4 1_555 1_555
C7_4 C6_4 1_555 1_555
C8_4 C7_4 1_555 1_555
H6_4 C8_4 1_555 1_555
C9_4 C4_4 1_555 1_555
C10_4 N4_4 1_555 1_555
H7_4 C10_4 1_555 1_555
C11_4 C10_4 1_555 1_555
H9_4 C12_4 1_555 1_555
C13_4 N6_4 1_555 1_555
H10_4 C13_4 1_555 1_555
C14_4 C13_4 1_555 1_555
H11_4 C14_4 1_555 1_555
C15_4 N5_2 1_555 1_555
N4_4 C12_4 1_555 1_555
N6_4 C15_4 1_555 1_555
C4_4 C5_4 1_555 1_555
C8_4 C9_4 1_555 1_555

#END
