
###############################################################################
#
# This file contains modified crystal structure data generated from the
# MOF subset of the Cambridge Structural Database (CSD) v543 
# hosted by the Cambridge Crystallographic Data Centre (CCDC).
#
# This work is licensed under the Creative Commons
# Attribution-NonCommercial-ShareAlike 4.0 International License.
# To view a copy of this license, visit
# http://creativecommons.org/licenses/by-nc-sa/4.0/
# or send a letter to
# Creative Commons, PO Box 1866, Mountain View, CA 94042, USA.
#
# CIF created using the CSD Python API on 29 September 2022
# The structure has been converted into the P1 space group
# The structure has a 3D framework
# The original CSD entry ATIBOU01 is in the monoclinic crystal system
# The framework has been calculated to contain at least 10.0% void space
# The void calculation uses a probe of radius 1.32A, grid spacing 0.4
#
###############################################################################

data_ATIBOU01
_chemical_formula_moiety         '(C24 H24 Mn21 O46)n'
_symmetry_cell_setting           triclinic
_symmetry_space_group_name_H-M   'P 1'
_symmetry_Int_Tables_number      1
_space_group_name_Hall           'P 1'
loop_
_symmetry_equiv_pos_site_id
_symmetry_equiv_pos_as_xyz
1 x,y,z
_cell_length_a                   11.683(2)
_cell_length_b                   10.250(2)
_cell_length_c                   15.154(3)
_cell_angle_alpha                90
_cell_angle_beta                 91.86(3)
_cell_angle_gamma                90
_cell_volume                     1813.75
loop_
_atom_site_label
_atom_site_type_symbol
_atom_site_fract_x
_atom_site_fract_y
_atom_site_fract_z
H1 H 0.0078 0.2863 0.0358
Mn3 Mn 0.0000 0.0000 0.0000
O15 O 0.15501(12) 0.09550(16) 0.04309(11)
Mn14 Mn 0.0000 0.5000 0.5000
O33 O 0.03799(12) 0.49240(17) 0.36155(10)
H11 H 0.0204 0.4586 0.2431
Mn3_2 Mn 0.0000 -0.0000 1.0000
Mn3_3 Mn 0.0000 1.0000 0.0000
O11 O 0.00243(13) 0.87495(16) 0.11447(10)
Mn3_4 Mn -0.0000 1.0000 1.0000
O13 O 0.09939(12) 0.63370(13) 0.89533(9)
C7 C 0.05784(16) 0.72867(18) 0.93264(13)
Mn5 Mn 0.24391(2) 0.92343(2) 0.868664(15)
Mn8 Mn 0.23947(2) 0.61240(2) 0.809070(16)
O24 O 0.09538(10) 0.84441(12) 0.93236(8)
O1 O 0.90061(12) 0.36630(13) 0.10467(9)
C1 C 0.94216(16) 0.27133(18) 0.06736(13)
O3 O 0.52240(13) 0.20868(15) 0.00699(10)
C2 C 0.57600(17) 0.28472(18) 0.05491(13)
H2 H 0.5560 0.3724 0.0508
Mn1 Mn 0.75609(2) 0.07657(2) 0.131336(15)
Mn2 Mn 0.76053(2) 0.38760(2) 0.190930(16)
Mn3_5 Mn 1.0000 0.0000 0.0000
Mn4 Mn 0.5000 0.0000 0.0000
O6 O 0.90462(10) 0.15559(12) 0.06764(8)
O7 O 0.80414(11) 0.19488(12) 0.24994(8)
O9 O 0.65634(11) 0.25528(12) 0.10972(8)
O10 O 0.80842(14) 0.06016(13) 0.36562(9)
C5 C 0.82300(17) 0.16761(17) 0.33029(12)
H5 H 0.8505 0.2346 0.3665
Mn6 Mn 0.74391(2) 0.57657(2) 0.368664(15)
Mn10 Mn 0.73947(2) 0.88760(2) 0.309070(16)
Mn14_2 Mn 1.0000 0.5000 0.5000
O18 O 0.87342(10) 0.48806(12) 0.28509(8)
O21 O 0.65021(10) 0.41557(12) 0.30581(8)
O26 O 0.69586(11) 0.69488(12) 0.25006(8)
O30 O 0.69158(14) 0.56016(13) 0.13438(9)
C9 C 0.25904(15) 0.09652(19) 0.03471(12)
H9 H 0.3018 0.1510 0.0721
C10 C 0.67700(17) 0.66761(17) 0.16971(12)
H10 H 0.6495 0.7346 0.1335
C11 C 0.98092(15) 0.4784(2) 0.29371(12)
Mn3_6 Mn 1.0000 -0.0000 1.0000
Mn4_2 Mn 0.5000 -0.0000 1.0000
Mn12 Mn 0.26053(2) 0.11240(2) 0.690930(16)
O19 O 0.37342(10) 0.01194(12) 0.78509(8)
O22 O 0.15021(10) 0.08443(12) 0.80581(8)
O28 O 0.31353(10) 0.02952(13) 0.97931(8)
O32 O 0.99757(13) 0.12505(16) 0.88553(10)
O34 O 0.53799(12) 0.00760(17) 0.86155(10)
C12 C 0.48092(15) 0.0216(2) 0.79371(12)
H12 H 0.5204 0.0414 0.7431
Mn3_7 Mn 1.0000 1.0000 0.0000
Mn4_3 Mn 0.5000 1.0000 0.0000
O4 O 0.62658(10) 0.98806(12) 0.21491(8)
O5 O 0.84979(10) 0.91557(12) 0.19419(8)
O8 O 0.68647(10) 0.97048(13) 0.02069(8)
O12 O 0.46201(12) 0.99240(17) 0.13845(10)
C3 C 0.94070(17) 0.8548(2) 0.17684(13)
H3 H 0.9628 0.7882 0.2154
C6 C 0.51908(15) 0.9784(2) 0.20629(12)
H6 H 0.4796 0.9586 0.2569
O2 O 0.84499(12) 0.90450(16) 0.95691(11)
Mn3_8 Mn 1.0000 1.0000 1.0000
Mn4_4 Mn 0.5000 1.0000 1.0000
C4 C 0.74096(15) 0.90348(19) 0.96529(12)
H4 H 0.6982 0.8490 0.9279
H7 H 0.9922 0.7137 0.9642
O17 O 0.47760(13) 0.79132(15) 0.99301(10)
C8 C 0.42400(17) 0.71528(18) 0.94509(13)
H8 H 0.4440 0.6276 0.9492
O20 O 0.12658(10) 0.51194(12) 0.71491(8)
O23 O 0.34979(10) 0.58443(12) 0.69419(8)
O27 O 0.19586(11) 0.80512(12) 0.75006(8)
O29 O 0.34366(11) 0.74472(12) 0.89028(8)
O31 O 0.30842(14) 0.43984(13) 0.86562(9)
O14 O 0.40061(12) 0.13370(13) 0.60467(9)
O16 O 0.34499(12) 0.59550(16) 0.45691(11)
O17_2 O 0.02240(13) 0.29132(15) 0.50699(10)
C8_2 C 0.07600(17) 0.21528(18) 0.55491(13)
H8_2 H 0.0560 0.1276 0.5508
Mn7 Mn 0.25609(2) 0.42343(2) 0.631336(15)
Mn13 Mn 0.5000 0.5000 0.5000
O25 O 0.40462(10) 0.34441(12) 0.56764(8)
O27_2 O 0.30414(11) 0.30512(12) 0.74994(8)
O28_2 O 0.18647(10) 0.52952(13) 0.52069(8)
O29_2 O 0.15634(11) 0.24472(12) 0.60972(8)
C9_2 C 0.24096(15) 0.59652(19) 0.46529(12)
H9_2 H 0.1982 0.6510 0.4279
C12_2 C 0.01908(15) 0.5216(2) 0.70629(12)
O31_2 O 0.19158(14) 0.93984(13) 0.63438(9)
O1_2 O 0.59939(12) 0.86630(13) 0.39533(9)
C1_2 C 0.55784(16) 0.77133(18) 0.43264(13)
H1_2 H 0.4922 0.7863 0.4642
O2_2 O 0.65501(12) 0.40450(16) 0.54309(11)
O3_2 O 0.97760(13) 0.70868(15) 0.49301(10)
C2_2 C 0.92400(17) 0.78472(18) 0.44509(13)
H2_2 H 0.9440 0.8724 0.4492
O6_2 O 0.59538(10) 0.65559(12) 0.43236(8)
O8_2 O 0.81353(10) 0.47048(13) 0.47931(8)
O9_2 O 0.84366(11) 0.75528(12) 0.39028(8)
O11_2 O 0.49757(13) 0.37495(16) 0.38553(10)
C3_2 C 0.55930(17) 0.3548(2) 0.32316(13)
H3_2 H 0.5372 0.2882 0.2846
C4_2 C 0.75904(15) 0.40348(19) 0.53471(12)
H4_2 H 0.8018 0.3490 0.5721
C7_2 C 0.44216(16) 0.22867(18) 0.56736(13)
H7_2 H 0.5078 0.2137 0.5358
O32_2 O 0.50243(13) 0.62505(16) 0.61447(10)
O34_2 O 0.96201(12) 0.50760(17) 0.63845(10)
H12_2 H 0.9796 0.5414 0.7569
C3_3 C 0.05930(17) 0.1452(2) 0.82316(13)
H3_3 H 0.0372 0.2118 0.7846
C5_2 C 0.17700(17) 0.83239(17) 0.66971(12)
H5_2 H 0.1495 0.7654 0.6335
C10_2 C 0.32300(17) 0.33239(17) 0.83029(12)
H10_2 H 0.3505 0.2654 0.8665
C3_4 C 0.44070(17) 0.6452(2) 0.67684(13)
H3_4 H 0.4628 0.7118 0.7154
loop_
_geom_bond_atom_site_label_1
_geom_bond_atom_site_label_2
_geom_bond_site_symmetry_1
_geom_bond_site_symmetry_2
O15 Mn3 1_555 1_555
Mn14 O33 1_555 1_555
O11 Mn3_3 1_555 1_555
O13 C7 1_555 1_555
Mn5 O24 1_555 1_555
Mn8 O13 1_555 1_555
O24 Mn3_4 1_555 1_555
C7 O24 1_555 1_555
O1 C1 1_555 1_555
O3 C2 1_555 1_555
C2 H2 1_555 1_555
Mn2 O1 1_555 1_555
Mn3_5 O6 1_555 1_555
Mn4 O3 1_555 1_555
O6 C1 1_555 1_555
O7 Mn1 1_555 1_555
O9 C2 1_555 1_555
O10 C5 1_555 1_555
C5 O7 1_555 1_555
H5 C5 1_555 1_555
Mn6 O18 1_555 1_555
Mn10 O26 1_555 1_555
O18 Mn2 1_555 1_555
O21 Mn2 1_555 1_555
O26 Mn6 1_555 1_555
O30 Mn2 1_555 1_555
C9 O15 1_555 1_555
H9 C9 1_555 1_555
C10 O26 1_555 1_555
H10 C10 1_555 1_555
C11 O18 1_555 1_555
Mn1 O6 1_555 1_555
Mn1 O9 1_555 1_555
Mn2 O7 1_555 1_555
Mn2 O9 1_555 1_555
Mn6 O21 1_555 1_555
O30 C10 1_555 1_555
Mn12 O19 1_555 1_555
O19 C12 1_555 1_555
O28 Mn4_2 1_555 1_555
O32 Mn3_6 1_555 1_555
O34 Mn4_2 1_555 1_555
C12 O34 1_555 1_555
H12 C12 1_555 1_555
Mn12 O22 1_555 1_555
O4 C6 1_555 1_555
O12 Mn4_3 1_555 1_555
C3 O5 1_555 1_555
H3 C3 1_555 1_555
C6 O12 1_555 1_555
H6 C6 1_555 1_555
Mn10 O4 1_555 1_555
Mn4_3 O8 1_555 1_555
O5 Mn10 1_555 1_555
O2 Mn3_8 1_555 1_555
C4 O2 1_555 1_555
H4 C4 1_555 1_555
O17 Mn4_4 1_555 1_555
C8 O17 1_555 1_555
H8 C8 1_555 1_555
Mn8 O20 1_555 1_555
O23 Mn8 1_555 1_555
O27 Mn5 1_555 1_555
O29 C8 1_555 1_555
O31 Mn8 1_555 1_555
Mn5 O29 1_555 1_555
Mn8 O27 1_555 1_555
Mn8 O29 1_555 1_555
O14 Mn12 1_555 1_555
O16 Mn13 1_555 1_555
O17_2 Mn14 1_555 1_555
C8_2 O17_2 1_555 1_555
H8_2 C8_2 1_555 1_555
Mn7 O20 1_555 1_555
Mn13 O25 1_555 1_555
O20 C12_2 1_555 1_555
O23 Mn7 1_555 1_555
O25 Mn7 1_555 1_555
O27_2 Mn7 1_555 1_555
O28_2 Mn14 1_555 1_555
O29_2 C8_2 1_555 1_555
C9_2 O16 1_555 1_555
H9_2 C9_2 1_555 1_555
Mn7 O28_2 1_555 1_555
Mn7 O29_2 1_555 1_555
Mn12 O27_2 1_555 1_555
Mn12 O29_2 1_555 1_555
O28_2 C9_2 1_555 1_555
O1_2 C1_2 1_555 1_555
C1_2 H1_2 1_555 1_555
O2_2 Mn13 1_555 1_555
O3_2 C2_2 1_555 1_555
C2_2 H2_2 1_555 1_555
Mn10 O1_2 1_555 1_555
Mn13 O6_2 1_555 1_555
Mn14_2 O3_2 1_555 1_555
O6_2 C1_2 1_555 1_555
O8_2 Mn6 1_555 1_555
O9_2 C2_2 1_555 1_555
O11_2 Mn13 1_555 1_555
C3_2 O21 1_555 1_555
H3_2 C3_2 1_555 1_555
C4_2 O2_2 1_555 1_555
H4_2 C4_2 1_555 1_555
O14 C7_2 1_555 1_555
C7_2 H7_2 1_555 1_555
O32_2 Mn13 1_555 1_555
O34_2 Mn14_2 1_555 1_555
Mn6 O6_2 1_555 1_555
Mn6 O9_2 1_555 1_555
Mn10 O9_2 1_555 1_555
Mn14_2 O8_2 1_555 1_555
O8_2 C4_2 1_555 1_555
O11_2 C3_2 1_555 1_555
C7_2 O25 1_555 1_555
C3_3 O22 1_555 1_555
H3_3 C3_3 1_555 1_555
O31_2 C5_2 1_555 1_555
C5_2 O27 1_555 1_555
H5_2 C5_2 1_555 1_555
C10_2 O27_2 1_555 1_555
H10_2 C10_2 1_555 1_555
O31 C10_2 1_555 1_555
C3_4 O23 1_555 1_555
H3_4 C3_4 1_555 1_555
O32_2 C3_4 1_555 1_555

#END
