
###############################################################################
#
# This file contains modified crystal structure data generated from the
# MOF subset of the Cambridge Structural Database (CSD) v543 
# hosted by the Cambridge Crystallographic Data Centre (CCDC).
#
# This work is licensed under the Creative Commons
# Attribution-NonCommercial-ShareAlike 4.0 International License.
# To view a copy of this license, visit
# http://creativecommons.org/licenses/by-nc-sa/4.0/
# or send a letter to
# Creative Commons, PO Box 1866, Mountain View, CA 94042, USA.
#
# CIF created using the CSD Python API on 29 September 2022
# The structure has been converted into the P1 space group
# The structure has a 3D framework
# The original CSD entry ATIFIV is in the monoclinic crystal system
# The framework has been calculated to contain at least 10.0% void space
# The void calculation uses a probe of radius 1.32A, grid spacing 0.4
# H atom positions have been added when not included in the experimental data
#
###############################################################################

data_ATIFIV
_chemical_formula_moiety         '(C72 H32 La8 N24 O50)n'
_symmetry_cell_setting           triclinic
_symmetry_space_group_name_H-M   'P 1'
_symmetry_Int_Tables_number      1
_space_group_name_Hall           'P 1'
loop_
_symmetry_equiv_pos_site_id
_symmetry_equiv_pos_as_xyz
1 x,y,z
_cell_length_a                   8.9637(3)
_cell_length_b                   16.9171(6)
_cell_length_c                   15.4942(5)
_cell_angle_alpha                90
_cell_angle_beta                 101.36
_cell_angle_gamma                90
_cell_volume                     2303.51
loop_
_atom_site_label
_atom_site_type_symbol
_atom_site_fract_x
_atom_site_fract_y
_atom_site_fract_z
La7 La 0.14467(3) 0.152777(19) 0.127655(15)
C13 C 0.0258(5) 0.1189(4) 0.8954(3)
O20 O 0.1076(4) 0.1047(2) 0.9725(2)
O21 O 0.0737(4) 0.1036(2) 0.8269(2)
La8 La 0.36179(3) 0.088424(19) 0.920484(15)
O5 O 0.4107(4) 0.1543(2) 0.0710(2)
O11 O 0.1388(4) 0.2767(3) 0.0512(2)
O12 O 0.4248(4) 0.1448(3) 0.2149(2)
N2 N 0.1118(5) 0.1036(3) 0.2886(3)
C14 C 0.2293(5) 0.3236(4) 0.0245(3)
O13 O 0.3606(5) 0.3399(3) 0.0617(3)
O16 O 0.2035(4) 0.2488(3) 0.2526(2)
O18 O 0.1978(4) 0.0042(3) 0.1238(2)
O1 O 0.2948(4) 0.2280(2) 0.8948(2)
O3 O 0.6185(4) 0.0169(3) 0.9534(2)
O4 O 0.4098(5) 0.0962(3) 0.7651(3)
N1 N 0.6262(4) 0.1725(3) 0.9194(2)
C1 C 0.2267(5) 0.2703(4) 0.8316(3)
C3 C 0.7239(5) 0.0404(3) 0.9127(3)
C4 C 0.6391(5) 0.2484(4) 0.9139(3)
C5 C 0.7437(5) 0.1272(4) 0.9088(3)
O8 O 0.2035(4) 0.2512(3) 0.7526(2)
C6 C 0.1674(5) 0.3486(3) 0.8560(3)
C8 C 0.7710(6) 0.2862(4) 0.8951(3)
C9 C 0.8800(5) 0.1633(3) 0.8934(3)
C10 C 0.1631(5) 0.3707(4) 0.9425(3)
N4 N 0.8918(4) 0.2412(3) 0.8861(2)
N5 N 0.1014(5) 0.4400(4) 0.9592(3)
C15 C 0.0526(6) 0.4644(4) 0.8053(3)
C17 C 0.0454(6) 0.4879(4) 0.8917(4)
La4 La 0.14467(3) 0.347223(19) 0.627655(15)
N7 N 0.1118(5) 0.3964(3) 0.7886(3)
H1 H 0.489763 0.136261 0.762502
H2 H 0.444067 0.0438212 0.74758
H3 H 0.54443 0.285195 0.924152
H5 H 0.774598 0.350186 0.888089
H8 H 0.00773826 0.503804 0.750776
O14 O 0.3815(4) 0.9831(3) 0.0466(2)
La3 La 0.63821(3) 0.911576(19) 0.079516(15)
O2 O 0.3195(4) 0.9524(3) 0.8571(2)
C2 C 0.2181(5) 0.9054(4) 0.8714(3)
O9 O 0.0987(4) 0.9247(2) 0.8978(2)
C7 C 0.2378(5) 0.8202(4) 0.8524(3)
O10 O 0.8022(4) 0.9958(3) 0.8762(2)
C11 C 0.3711(5) 0.7884(4) 0.8356(3)
C12 C 0.5205(5) 0.8354(4) 0.8497(3)
N6 N 0.3839(4) 0.7135(3) 0.8105(2)
C16 C 0.1263(5) 0.6979(4) 0.8306(3)
C18 C 0.2606(6) 0.6666(4) 0.8099(3)
O15 O 0.5893(4) 0.8457(2) 0.9290(2)
N8 N 0.1134(4) 0.7732(3) 0.8501(2)
La6 La 0.85533(3) 0.847223(19) 0.872345(15)
O19 O 0.5752(4) 0.8552(3) 0.7851(2)
H4 H 0.0299591 0.65866 0.830505
H7 H 0.265667 0.604244 0.793263
N3 N 0.8866(4) 0.2268(3) 0.1499(2)
O17 O 0.9013(4) 0.0753(2) 0.1022(2)
N3_2 N 0.1134(4) 0.7268(3) 0.3501(2)
O17_2 O 0.0987(4) 0.5753(2) 0.3978(2)
La1 La 0.63821(3) 0.588424(19) 0.579516(15)
O1_2 O 0.7052(4) 0.7280(2) 0.6052(2)
O2_2 O 0.6805(4) 0.4524(3) 0.6429(2)
O3_2 O 0.3815(4) 0.5169(3) 0.5466(2)
O4_2 O 0.5902(5) 0.5962(3) 0.7349(3)
N1_2 N 0.3738(4) 0.6725(3) 0.5806(2)
O5_2 O 0.5893(4) 0.6543(2) 0.4290(2)
O6 O 0.8924(4) 0.6047(2) 0.5275(2)
O7 O 0.9263(4) 0.6036(2) 0.6731(2)
C1_2 C 0.7733(5) 0.7703(4) 0.6684(3)
C2_2 C 0.7819(5) 0.4054(4) 0.6286(3)
C3_2 C 0.2761(5) 0.5404(3) 0.5873(3)
C4_2 C 0.3609(5) 0.7484(4) 0.5861(3)
C5_2 C 0.2563(5) 0.6272(4) 0.5912(3)
La2 La 0.85533(3) 0.652777(19) 0.372345(15)
O8_2 O 0.7965(4) 0.7512(3) 0.7474(2)
C6_2 C 0.8326(5) 0.8486(3) 0.6440(3)
O9_2 O 0.9013(4) 0.4247(2) 0.6022(2)
C7_2 C 0.7622(5) 0.3202(4) 0.6476(3)
O10_2 O 0.1978(4) 0.4958(3) 0.6238(2)
C8_2 C 0.2290(6) 0.7862(4) 0.6049(3)
C9_2 C 0.1200(5) 0.6633(3) 0.6066(3)
O11_2 O 0.8612(4) 0.7767(3) 0.4488(2)
O12_2 O 0.5752(4) 0.6448(3) 0.2851(2)
N2_2 N 0.8882(5) 0.6036(3) 0.2114(3)
C10_2 C 0.8369(5) 0.8707(4) 0.5575(3)
C11_2 C 0.6289(5) 0.2884(4) 0.6644(3)
C12_2 C 0.4795(5) 0.3354(4) 0.6503(3)
N4_2 N 0.1082(4) 0.7412(3) 0.6139(2)
C14_2 C 0.7707(5) 0.8236(4) 0.4755(3)
N5_2 N 0.8986(5) 0.9400(4) 0.5408(3)
C15_2 C 0.9474(6) 0.9644(4) 0.6947(3)
N6_2 N 0.6161(4) 0.2135(3) 0.6895(2)
C16_2 C 0.8737(5) 0.1979(4) 0.6694(3)
O13_2 O 0.6394(5) 0.8399(3) 0.4383(3)
C17_2 C 0.9546(6) 0.9879(4) 0.6083(4)
C18_2 C 0.7394(6) 0.1666(4) 0.6901(3)
O14_2 O 0.6185(4) 0.4831(3) 0.4534(2)
La3_2 La 0.36179(3) 0.411576(19) 0.420484(15)
O15_2 O 0.4107(4) 0.3457(2) 0.5710(2)
O16_2 O 0.7965(4) 0.7488(3) 0.2474(2)
O18_2 O 0.8022(4) 0.5042(3) 0.3762(2)
N7_2 N 0.8882(5) 0.8964(3) 0.7114(3)
N8_2 N 0.8866(4) 0.2732(3) 0.6499(2)
O19_2 O 0.4248(4) 0.3552(3) 0.7149(2)
H1_2 H 0.510237 0.636261 0.737498
H2_2 H 0.555933 0.543821 0.75242
H3_2 H 0.45557 0.785195 0.575848
H4_2 H 0.970041 0.15866 0.669495
H5_2 H 0.225402 0.850186 0.611911
H7_2 H 0.734333 0.104244 0.706737
C13_2 C 0.9742(5) 0.6189(4) 0.6046(3)
O2_3 O 0.6805(4) 0.0476(3) 0.1429(2)
C2_3 C 0.7819(5) 0.0946(4) 0.1286(3)
C7_3 C 0.7622(5) 0.1798(4) 0.1476(3)
C11_3 C 0.6289(5) 0.2116(4) 0.1644(3)
C12_3 C 0.4795(5) 0.1646(4) 0.1503(3)
N6_3 N 0.6161(4) 0.2865(3) 0.1895(2)
C16_3 C 0.8737(5) 0.3021(4) 0.1694(3)
C18_3 C 0.7394(6) 0.3334(4) 0.1901(3)
H4_3 H 0.970041 0.34134 0.169495
H7_3 H 0.734333 0.395756 0.206737
O1_3 O 0.7052(4) 0.7720(2) 0.1052(2)
O4_3 O 0.5902(5) 0.9038(3) 0.2349(3)
N1_3 N 0.3738(4) 0.8275(3) 0.0806(2)
O6_2 O 0.8924(4) 0.8953(2) 0.0275(2)
O7_2 O 0.9263(4) 0.8964(2) 0.1731(2)
C1_3 C 0.7733(5) 0.7297(4) 0.1684(3)
C3_3 C 0.2761(5) 0.9596(3) 0.0873(3)
C4_3 C 0.3609(5) 0.7516(4) 0.0861(3)
C5_3 C 0.2563(5) 0.8728(4) 0.0912(3)
C6_3 C 0.8326(5) 0.6514(3) 0.1440(3)
C8_3 C 0.2290(6) 0.7138(4) 0.1049(3)
C9_3 C 0.1200(5) 0.8367(3) 0.1066(3)
C10_3 C 0.8369(5) 0.6293(4) 0.0575(3)
N4_3 N 0.1082(4) 0.7588(3) 0.1139(2)
N5_3 N 0.8986(5) 0.5600(4) 0.0408(3)
C15_3 C 0.9474(6) 0.5356(4) 0.1947(3)
C17_3 C 0.9546(6) 0.5121(4) 0.1083(4)
H1_3 H 0.510237 0.863739 0.237498
H2_3 H 0.555933 0.956179 0.25242
H3_3 H 0.45557 0.714805 0.0758481
H5_3 H 0.225402 0.649814 0.111911
H8_2 H 0.992262 0.496196 0.249224
O11_3 O 0.8612(4) 0.7233(3) 0.9488(2)
C14_3 C 0.7707(5) 0.6764(4) 0.9755(3)
O13_3 O 0.6394(5) 0.6601(3) 0.9383(3)
C13_3 C 0.9742(5) 0.8811(4) 0.1046(3)
C13_4 C 0.0258(5) 0.3811(4) 0.3954(3)
O20_2 O 0.1076(4) 0.3953(2) 0.4725(2)
O21_2 O 0.0737(4) 0.3964(2) 0.3269(2)
O1_4 O 0.2948(4) 0.2720(2) 0.3948(2)
O2_4 O 0.3195(4) 0.5476(3) 0.3571(2)
O4_4 O 0.4098(5) 0.4038(3) 0.2651(3)
N1_4 N 0.6262(4) 0.3275(3) 0.4194(2)
C1_4 C 0.2267(5) 0.2297(4) 0.3316(3)
C2_4 C 0.2181(5) 0.5946(4) 0.3714(3)
C3_4 C 0.7239(5) 0.4596(3) 0.4127(3)
C4_4 C 0.6391(5) 0.2516(4) 0.4139(3)
C5_4 C 0.7437(5) 0.3728(4) 0.4088(3)
C6_4 C 0.1674(5) 0.1514(3) 0.3560(3)
C7_4 C 0.2378(5) 0.6798(4) 0.3524(3)
C8_4 C 0.7710(6) 0.2138(4) 0.3951(3)
C9_4 C 0.8800(5) 0.3367(3) 0.3934(3)
O11_4 O 0.1388(4) 0.2233(3) 0.5512(2)
C10_4 C 0.1631(5) 0.1293(4) 0.4425(3)
C11_4 C 0.3711(5) 0.7116(4) 0.3356(3)
C12_4 C 0.5205(5) 0.6646(4) 0.3497(3)
N4_4 N 0.8918(4) 0.2588(3) 0.3861(2)
C14_4 C 0.2293(5) 0.1764(4) 0.5245(3)
N5_4 N 0.1014(5) 0.0600(4) 0.4592(3)
C15_4 C 0.0526(6) 0.0356(4) 0.3053(3)
N6_4 N 0.3839(4) 0.7865(3) 0.3105(2)
C16_4 C 0.1263(5) 0.8021(4) 0.3306(3)
O13_4 O 0.3606(5) 0.1601(3) 0.5617(3)
C17_4 C 0.0454(6) 0.0121(4) 0.3917(4)
C18_4 C 0.2606(6) 0.8334(4) 0.3099(3)
H1_4 H 0.489763 0.363739 0.262502
H2_4 H 0.444067 0.456179 0.24758
H3_4 H 0.54443 0.214805 0.424152
H4_4 H 0.0299591 0.84134 0.330505
H5_4 H 0.774598 0.149814 0.388089
H7_4 H 0.265667 0.895756 0.293263
H6 H 0.994816 0.544432 0.903456
H6_2 H 0.00518364 0.0444319 0.596544
H8_3 H 0.992262 0.00380361 0.749224
H6_3 H 0.00518364 0.455568 0.0965437
H8_4 H 0.00773826 0.996196 0.250776
H6_4 H 0.994816 0.955568 0.403456
loop_
_geom_bond_atom_site_label_1
_geom_bond_atom_site_label_2
_geom_bond_site_symmetry_1
_geom_bond_site_symmetry_2
O20 C13 1_555 1_555
O21 C13 1_555 1_555
La8 O20 1_555 1_555
O21 La8 1_555 1_555
La7 O5 1_555 1_555
O11 La7 1_555 1_555
O12 La7 1_555 1_555
N2 La7 1_555 1_555
C14 O11 1_555 1_555
O13 C14 1_555 1_555
O16 La7 1_555 1_555
O18 La7 1_555 1_555
La8 O1 1_555 1_555
O1 C1 1_555 1_555
O3 La8 1_555 1_555
O4 La8 1_555 1_555
N1 La8 1_555 1_555
C1 O8 1_555 1_555
C3 O3 1_555 1_555
C4 N1 1_555 1_555
C5 N1 1_555 1_555
O8 La4 1_555 1_555
C6 C1 1_555 1_555
C8 C4 1_555 1_555
C9 C5 1_555 1_555
C10 C6 1_555 1_555
N4 C8 1_555 1_555
N5 C10 1_555 1_555
C15 C17 1_555 1_555
C17 N5 1_555 1_555
La4 N7 1_555 1_555
N7 C6 1_555 1_555
C3 C5 1_555 1_555
C9 N4 1_555 1_555
C15 N7 1_555 1_555
O4 H1 1_555 1_555
O4 H2 1_555 1_555
C4 H3 1_555 1_555
C8 H5 1_555 1_555
C15 H8 1_555 1_555
O14 La3 1_555 1_555
C2 O2 1_555 1_555
O9 C2 1_555 1_555
C7 C2 1_555 1_555
C11 C7 1_555 1_555
C12 C11 1_555 1_555
N6 C11 1_555 1_555
C16 C18 1_555 1_555
C18 N6 1_555 1_555
O15 C12 1_555 1_555
N8 C7 1_555 1_555
La6 O10 1_555 1_555
O19 C12 1_555 1_555
C16 N8 1_555 1_555
O15 La6 1_555 1_555
La6 O19 1_555 1_555
C16 H4 1_555 1_555
C18 H7 1_555 1_555
La1 O1_2 1_555 1_555
O1_2 C1_2 1_555 1_555
O2_2 La1 1_555 1_555
O3_2 La1 1_555 1_555
O4_2 La1 1_555 1_555
N1_2 La1 1_555 1_555
O5_2 La1 1_555 1_555
O6 La1 1_555 1_555
O7 La1 1_555 1_555
C1_2 O8_2 1_555 1_555
C2_2 O2_2 1_555 1_555
C3_2 O3_2 1_555 1_555
C4_2 N1_2 1_555 1_555
C5_2 N1_2 1_555 1_555
La2 O5_2 1_555 1_555
O8_2 La6 1_555 1_555
C6_2 C1_2 1_555 1_555
O9_2 C2_2 1_555 1_555
C7_2 C2_2 1_555 1_555
O10_2 C3_2 1_555 1_555
C8_2 C4_2 1_555 1_555
C9_2 C5_2 1_555 1_555
O11_2 La2 1_555 1_555
O12_2 La2 1_555 1_555
N2_2 La2 1_555 1_555
C10_2 C6_2 1_555 1_555
C11_2 C7_2 1_555 1_555
C12_2 C11_2 1_555 1_555
N4_2 C8_2 1_555 1_555
C14_2 O11_2 1_555 1_555
N5_2 C10_2 1_555 1_555
C15_2 C17_2 1_555 1_555
N6_2 C11_2 1_555 1_555
C16_2 C18_2 1_555 1_555
O13_2 C14_2 1_555 1_555
C17_2 N5_2 1_555 1_555
C18_2 N6_2 1_555 1_555
O14_2 La1 1_555 1_555
La3_2 O3_2 1_555 1_555
O15_2 C12_2 1_555 1_555
O16_2 La2 1_555 1_555
O18_2 La2 1_555 1_555
La6 N7_2 1_555 1_555
N7_2 C6_2 1_555 1_555
N8_2 C7_2 1_555 1_555
La4 O10_2 1_555 1_555
O19_2 C12_2 1_555 1_555
O6 La2 1_555 1_555
C3_2 C5_2 1_555 1_555
C9_2 N4_2 1_555 1_555
C10_2 C14_2 1_555 1_555
C15_2 N7_2 1_555 1_555
C16_2 N8_2 1_555 1_555
O14_2 La3_2 1_555 1_555
La3_2 O15_2 1_555 1_555
O15_2 La4 1_555 1_555
La4 O19_2 1_555 1_555
O4_2 H1_2 1_555 1_555
O4_2 H2_2 1_555 1_555
C4_2 H3_2 1_555 1_555
C16_2 H4_2 1_555 1_555
C8_2 H5_2 1_555 1_555
C18_2 H7_2 1_555 1_555
O6 C13_2 1_555 1_555
O7 C13_2 1_555 1_555
C2_3 O2_3 1_555 1_555
O17 C2_3 1_555 1_555
C7_3 C2_3 1_555 1_555
C11_3 C7_3 1_555 1_555
C12_3 C11_3 1_555 1_555
N6_3 C11_3 1_555 1_555
C16_3 C18_3 1_555 1_555
C18_3 N6_3 1_555 1_555
O5 C12_3 1_555 1_555
N3 C7_3 1_555 1_555
O12 C12_3 1_555 1_555
C16_3 N3 1_555 1_555
C16_3 H4_3 1_555 1_555
C18_3 H7_3 1_555 1_555
La3 O1_3 1_555 1_555
O1_3 C1_3 1_555 1_555
O4_3 La3 1_555 1_555
N1_3 La3 1_555 1_555
O6_2 La3 1_555 1_555
O7_2 La3 1_555 1_555
C1_3 O16_2 1_555 1_555
C3_3 O14 1_555 1_555
C4_3 N1_3 1_555 1_555
C5_3 N1_3 1_555 1_555
C6_3 C1_3 1_555 1_555
C8_3 C4_3 1_555 1_555
C9_3 C5_3 1_555 1_555
C10_3 C6_3 1_555 1_555
N4_3 C8_3 1_555 1_555
N5_3 C10_3 1_555 1_555
C15_3 C17_3 1_555 1_555
C17_3 N5_3 1_555 1_555
N2_2 C6_3 1_555 1_555
C3_3 C5_3 1_555 1_555
C9_3 N4_3 1_555 1_555
C15_3 N2_2 1_555 1_555
O4_3 H1_3 1_555 1_555
O4_3 H2_3 1_555 1_555
C4_3 H3_3 1_555 1_555
C8_3 H5_3 1_555 1_555
C15_3 H8_2 1_555 1_555
O11_3 La6 1_555 1_555
C14_3 O11_3 1_555 1_555
O13_3 C14_3 1_555 1_555
O6_2 C13_3 1_555 1_555
O7_2 C13_3 1_555 1_555
O20_2 C13_4 1_555 1_555
O21_2 C13_4 1_555 1_555
La4 O20_2 1_555 1_555
La3_2 O20_2 1_555 1_555
O21_2 La3_2 1_555 1_555
La3_2 O1_4 1_555 1_555
O1_4 C1_4 1_555 1_555
O2_4 La3_2 1_555 1_555
O4_4 La3_2 1_555 1_555
N1_4 La3_2 1_555 1_555
C1_4 O16 1_555 1_555
C2_4 O2_4 1_555 1_555
C3_4 O14_2 1_555 1_555
C4_4 N1_4 1_555 1_555
C5_4 N1_4 1_555 1_555
C6_4 C1_4 1_555 1_555
O17_2 C2_4 1_555 1_555
C7_4 C2_4 1_555 1_555
O18_2 C3_4 1_555 1_555
C8_4 C4_4 1_555 1_555
C9_4 C5_4 1_555 1_555
O11_4 La4 1_555 1_555
C10_4 C6_4 1_555 1_555
C11_4 C7_4 1_555 1_555
C12_4 C11_4 1_555 1_555
N4_4 C8_4 1_555 1_555
C14_4 O11_4 1_555 1_555
N5_4 C10_4 1_555 1_555
C15_4 C17_4 1_555 1_555
N6_4 C11_4 1_555 1_555
C16_4 C18_4 1_555 1_555
O13_4 C14_4 1_555 1_555
C17_4 N5_4 1_555 1_555
C18_4 N6_4 1_555 1_555
O5_2 C12_4 1_555 1_555
N2 C6_4 1_555 1_555
N3_2 C7_4 1_555 1_555
O12_2 C12_4 1_555 1_555
C3_4 C5_4 1_555 1_555
C9_4 N4_4 1_555 1_555
C10_4 C14_4 1_555 1_555
C15_4 N2 1_555 1_555
C16_4 N3_2 1_555 1_555
O4_4 H1_4 1_555 1_555
O4_4 H2_4 1_555 1_555
C4_4 H3_4 1_555 1_555
C16_4 H4_4 1_555 1_555
C8_4 H5_4 1_555 1_555
C18_4 H7_4 1_555 1_555

#END
