
###############################################################################
#
# This file contains modified crystal structure data generated from the
# MOF subset of the Cambridge Structural Database (CSD) v543 
# hosted by the Cambridge Crystallographic Data Centre (CCDC).
#
# This work is licensed under the Creative Commons
# Attribution-NonCommercial-ShareAlike 4.0 International License.
# To view a copy of this license, visit
# http://creativecommons.org/licenses/by-nc-sa/4.0/
# or send a letter to
# Creative Commons, PO Box 1866, Mountain View, CA 94042, USA.
#
# CIF created using the CSD Python API on 29 September 2022
# The structure has been converted into the P1 space group
# The structure has a 3D framework
# The original CSD entry ATIGUI is in the monoclinic crystal system
# The framework has been calculated to contain at least 10.0% void space
# The void calculation uses a probe of radius 1.32A, grid spacing 0.4
#
###############################################################################

data_ATIGUI
_chemical_formula_moiety         '(C102 H78 Ce8 N2 O60)n'
_symmetry_cell_setting           triclinic
_symmetry_space_group_name_H-M   'P 1'
_symmetry_Int_Tables_number      1
_space_group_name_Hall           'P 1'
loop_
_symmetry_equiv_pos_site_id
_symmetry_equiv_pos_as_xyz
1 x,y,z
_cell_length_a                   18.927(4)
_cell_length_b                   10.867(2)
_cell_length_c                   16.999(3)
_cell_angle_alpha                90
_cell_angle_beta                 95.742(6)
_cell_angle_gamma                90
_cell_volume                     3478.81
loop_
_atom_site_label
_atom_site_type_symbol
_atom_site_fract_x
_atom_site_fract_y
_atom_site_fract_z
C1 C 0.1075(13) 0.251(2) 0.6611(14)
C2 C 0.0914(14) 0.174(2) 0.7198(16)
H1 H 0.1268 0.1568 0.7604
C3 C 0.0277(15) 0.121(3) 0.7230(18)
H2 H 0.0183 0.0787 0.7684
C6 C 0.0537(15) 0.270(2) 0.6024(17)
H4 H 0.0606 0.3254 0.5620
C7 C 0.1801(13) 0.3029(19) 0.6585(14)
O1 O 0.2226(9) 0.2819(15) 0.7150(10)
O2 O 0.1895(10) 0.3681(15) 0.5992(12)
Ce9 Ce 0.29598(5) 0.41854(10) 0.53502(6)
Ce12 Ce 0.29755(5) 0.38641(9) 0.81768(6)
C4 C 0.9766(12) 0.1276(19) 0.6606(14)
C5 C 0.9889(16) 0.210(3) 0.6018(18)
H3 H 0.9533 0.2255 0.5612
C8 C 0.9071(13) 0.0620(19) 0.6613(15)
C9 C 0.6228(13) 0.158(2) 0.6472(15)
C10 C 0.5856(14) 0.235(2) 0.5911(16)
H5 H 0.6052 0.2566 0.5449
C11 C 0.5175(17) 0.281(3) 0.606(2)
H6 H 0.4909 0.3274 0.5676
C12 C 0.4925(14) 0.257(2) 0.6739(16)
C13 C 0.5284(13) 0.179(2) 0.7316(15)
H7 H 0.5089 0.1596 0.7781
C14 C 0.5927(15) 0.134(2) 0.7162(17)
H8 H 0.6176 0.0842 0.7540
C15 C 0.6905(14) 0.107(2) 0.6280(16)
C16 C 0.4188(12) 0.3001(18) 0.6898(14)
O3 O 0.8930(9) 0.0130(15) 0.7268(10)
O4 O 0.8671(9) 0.0538(14) 0.6000(11)
O6 O 0.7093(9) 0.1219(14) 0.5601(10)
O7 O 0.7298(9) 0.0454(13) 0.6836(11)
O8 O 0.4027(10) 0.3217(16) 0.7553(12)
O9 O 0.3745(9) 0.3015(14) 0.6284(10)
Ce15 Ce 0.79640(6) 0.04555(10) 0.46788(7)
Ce1 Ce 0.79885(6) 0.85826(10) 0.68479(7)
Ce3 Ce 0.29755(5) 0.61359(9) 0.31768(6)
C17 C 0.6132(14) 0.785(2) 0.5054(15)
C18 C 0.5928(15) 0.736(2) 0.5697(17)
H9 H 0.6227 0.7411 0.6164
C19 C 0.5282(16) 0.677(3) 0.5703(18)
H10 H 0.5165 0.6408 0.6168
C20 C 0.4824(14) 0.671(2) 0.5059(16)
C21 C 0.5019(19) 0.714(3) 0.437(2)
H11 H 0.4723 0.7070 0.3898
C22 C 0.5700(17) 0.772(3) 0.438(2)
H12 H 0.5849 0.8013 0.3915
C23 C 0.6843(13) 0.847(2) 0.5015(15)
C24 C 0.4138(14) 0.600(2) 0.5056(16)
C25 C 0.4722(15) 0.314(2) 0.3608(17)
C26 C 0.5057(16) 0.224(3) 0.4006(19)
H13 H 0.4818 0.1861 0.4394
C27 C 0.5696(14) 0.180(2) 0.3912(16)
H14 H 0.5902 0.1177 0.4228
C28 C 0.6058(13) 0.2366(19) 0.3287(14)
C29 C 0.5722(16) 0.335(3) 0.2895(18)
H15 H 0.5958 0.3785 0.2531
C30 C 0.5064(14) 0.368(2) 0.3028(16)
H16 H 0.4834 0.4288 0.2717
C31 C 0.4016(13) 0.365(2) 0.3779(16)
C32 C 0.6804(14) 0.195(2) 0.3180(16)
C33 C 0.1158(13) 0.695(2) 0.4851(15)
C34 C 0.0885(16) 0.663(3) 0.5556(18)
H17 H 0.1167 0.6181 0.5930
C35 C 0.0247(15) 0.695(2) 0.5713(17)
H18 H 0.0076 0.6672 0.6176
C37 C 0.0025(15) 0.798(2) 0.4501(17)
C38 C 0.0714(17) 0.752(3) 0.431(2)
H20 H 0.0847 0.7631 0.3807
C39 C 0.1909(12) 0.6587(19) 0.4682(14)
C41 C 0.1168(13) 0.344(2) 0.3451(15)
C42 C 0.1061(13) 0.261(2) 0.4041(15)
H21 H 0.1427 0.2451 0.4435
C43 C 0.0411(14) 0.200(2) 0.4057(16)
H22 H 0.0353 0.1405 0.4439
C46 C 0.0589(8) 0.3777(14) 0.2955(10)
H24 H 0.0661 0.4394 0.2592
H25 H 0.8340 0.5896 0.6567
H26 H 0.7905 0.5685 0.7236
H27 H 0.2888 0.8964 0.3458
H28 H 0.3263 0.7925 0.2931
C47 C 0.1836(12) 0.4175(17) 0.3443(14)
C49 C 0.3121(15) 0.101(2) 0.5214(17)
H33 H 0.3585 0.1129 0.5094
O5 O 0.7969(13) 0.603(3) 0.6793(15)
O10 O 0.7253(10) 0.8497(15) 0.5607(11)
O11 O 0.6951(12) 0.899(2) 0.4388(14)
O12 O 0.3698(9) 0.6029(15) 0.4457(11)
O13 O 0.4004(10) 0.5553(16) 0.5690(11)
O14 O 0.3669(9) 0.4245(14) 0.3243(11)
O15 O 0.3818(8) 0.3363(14) 0.4437(10)
O16 O 0.7151(11) 0.1399(18) 0.3705(12)
O17 O 0.6951(10) 0.2093(16) 0.2486(12)
O18 O 0.3203(9) 0.8367(15) 0.3389(10)
O19 O 0.2691(11) 0.187(2) 0.5186(13)
O20 O 0.2981(8) 0.5282(12) 0.6777(9)
O21 O 0.2281(9) 0.6105(13) 0.5233(10)
O22 O 0.2062(9) 0.6867(15) 0.4011(11)
O25 O 0.1954(10) 0.4688(16) 0.2803(12)
O26 O 0.2285(9) 0.4184(13) 0.4050(11)
Ce7 Ce 0.79885(6) 0.14174(10) 0.18479(7)
O31 O 0.2226(9) 0.7181(15) 0.2150(10)
O35 O 0.4027(10) 0.6783(16) 0.2553(12)
O39 O 0.6951(10) 0.7907(16) 0.7486(12)
O40 O 0.2981(8) 0.4718(12) 0.1777(9)
O41 O 0.8913(9) 0.7851(15) 0.6072(11)
O43 O 0.8640(10) 0.7908(17) 0.8046(11)
C36 C 0.9816(12) 0.7705(19) 0.5193(14)
H19 H 0.9742 0.8453 0.4139
C40 C 0.9121(13) 0.808(2) 0.5422(15)
C44 C 0.9864(13) 0.229(2) 0.3501(15)
C45 C 0.9911(16) 0.331(3) 0.2929(18)
H23 H 0.9528 0.3597 0.2594
H29 H 0.8551 0.2562 0.5169
H30 H 0.7861 0.3258 0.4943
C48 C 0.9152(14) 0.178(2) 0.3545(15)
O24 O 0.8706(12) 0.8636(18) 0.4874(13)
O27 O 0.8640(10) 0.2092(17) 0.3046(11)
O28 O 0.9070(11) 0.1000(17) 0.4109(13)
O29 O 0.8165(9) 0.2707(17) 0.4886(12)
H31 H 0.8244 0.9739 0.3165
H32 H 0.8251 0.8539 0.3665
O30 O 0.8033(9) 0.9163(15) 0.3402(11)
C1_2 C 0.1075(13) 0.749(2) 0.1611(14)
C2_2 C 0.0914(14) 0.826(2) 0.2198(16)
H1_2 H 0.1268 0.8432 0.2604
C3_2 C 0.0277(15) 0.879(3) 0.2230(18)
H2_2 H 0.0183 0.9213 0.2684
C6_2 C 0.0537(15) 0.730(2) 0.1024(17)
H4_2 H 0.0606 0.6746 0.0620
C7_2 C 0.1801(13) 0.6971(19) 0.1585(14)
O2_2 O 0.1895(10) 0.6319(15) 0.0992(12)
Ce9_2 Ce 0.29598(5) 0.58146(10) 0.03502(6)
C17_2 C 0.6132(14) 0.215(2) 0.0054(15)
C18_2 C 0.5928(15) 0.264(2) 0.0697(17)
H9_2 H 0.6227 0.2589 0.1164
C19_2 C 0.5282(16) 0.323(3) 0.0703(18)
H10_2 H 0.5165 0.3592 0.1168
C20_2 C 0.4824(14) 0.329(2) 0.0059(16)
C23_2 C 0.6843(13) 0.153(2) 0.0015(15)
C24_2 C 0.4138(14) 0.400(2) 0.0056(16)
C34_2 C 0.0885(16) 0.337(3) 0.0556(18)
H17_2 H 0.1167 0.3819 0.0930
C35_2 C 0.0247(15) 0.305(2) 0.0713(17)
H18_2 H 0.0076 0.3328 0.1176
H25_2 H 0.8340 0.4104 0.1567
H26_2 H 0.7905 0.4315 0.2236
C49_2 C 0.3121(15) 0.899(2) 0.0214(17)
H33_2 H 0.3585 0.8871 0.0094
O5_2 O 0.7969(13) 0.397(3) 0.1793(15)
O10_2 O 0.7253(10) 0.1503(15) 0.0607(11)
O13_2 O 0.4004(10) 0.4447(16) 0.0690(11)
O19_2 O 0.2691(11) 0.813(2) 0.0186(13)
O21_2 O 0.2281(9) 0.3895(13) 0.0233(10)
O36 O 0.3745(9) 0.6985(14) 0.1284(10)
O41_2 O 0.8913(9) 0.2149(15) 0.1072(11)
C21_2 C 0.5019(19) 0.286(3) 0.937(2)
H11_2 H 0.4723 0.2930 0.8898
C22_2 C 0.5700(17) 0.228(3) 0.938(2)
H12_2 H 0.5849 0.1987 0.8915
C25_2 C 0.4722(15) 0.686(2) 0.8608(17)
C26_2 C 0.5057(16) 0.776(3) 0.9006(19)
H13_2 H 0.4818 0.8139 0.9394
C27_2 C 0.5696(14) 0.820(2) 0.8912(16)
H14_2 H 0.5902 0.8823 0.9228
C28_2 C 0.6058(13) 0.7634(19) 0.8287(14)
C29_2 C 0.5722(16) 0.665(3) 0.7895(18)
H15_2 H 0.5958 0.6215 0.7531
C30_2 C 0.5064(14) 0.632(2) 0.8028(16)
H16_2 H 0.4834 0.5712 0.7717
C31_2 C 0.4016(13) 0.635(2) 0.8779(16)
C32_2 C 0.6804(14) 0.805(2) 0.8180(16)
C33_2 C 0.1158(13) 0.305(2) 0.9851(15)
C37_2 C 0.0025(15) 0.202(2) 0.9501(17)
C38_2 C 0.0714(17) 0.248(3) 0.931(2)
H20_2 H 0.0847 0.2369 0.8807
C39_2 C 0.1909(12) 0.3413(19) 0.9682(14)
C41_2 C 0.1168(13) 0.656(2) 0.8451(15)
C42_2 C 0.1061(13) 0.739(2) 0.9041(15)
H21_2 H 0.1427 0.7549 0.9435
C43_2 C 0.0411(14) 0.800(2) 0.9057(16)
H22_2 H 0.0353 0.8595 0.9439
C46_2 C 0.0589(8) 0.6223(14) 0.7955(10)
H24_2 H 0.0661 0.5606 0.7592
H27_2 H 0.2888 0.1036 0.8458
H28_2 H 0.3263 0.2075 0.7931
C47_2 C 0.1836(12) 0.5825(17) 0.8443(14)
O11_2 O 0.6951(12) 0.101(2) 0.9388(14)
O12_2 O 0.3698(9) 0.3971(15) 0.9457(11)
O14_2 O 0.3669(9) 0.5755(14) 0.8243(11)
O15_2 O 0.3818(8) 0.6637(14) 0.9437(10)
O16_2 O 0.7151(11) 0.8601(18) 0.8705(12)
O18_2 O 0.3203(9) 0.1633(15) 0.8389(10)
O22_2 O 0.2062(9) 0.3133(15) 0.9011(11)
O25_2 O 0.1954(10) 0.5312(16) 0.7803(12)
O26_2 O 0.2285(9) 0.5816(13) 0.9050(11)
Ce14 Ce 0.79640(6) 0.95445(10) 0.96788(7)
C4_2 C 0.9766(12) 0.8724(19) 0.1606(14)
C5_2 C 0.9889(16) 0.790(3) 0.1018(18)
H3_2 H 0.9533 0.7745 0.0612
C8_2 C 0.9071(13) 0.9380(19) 0.1613(15)
C9_2 C 0.6228(13) 0.842(2) 0.1472(15)
C10_2 C 0.5856(14) 0.765(2) 0.0911(16)
H5_2 H 0.6052 0.7434 0.0449
C11_2 C 0.5175(17) 0.719(3) 0.106(2)
H6_2 H 0.4909 0.6726 0.0676
C12_2 C 0.4925(14) 0.743(2) 0.1739(16)
C13_2 C 0.5284(13) 0.821(2) 0.2316(15)
H7_2 H 0.5089 0.8404 0.2781
C14_2 C 0.5927(15) 0.866(2) 0.2162(17)
H8_2 H 0.6176 0.9158 0.2540
C15_2 C 0.6905(14) 0.893(2) 0.1280(16)
C16_2 C 0.4188(12) 0.6999(18) 0.1898(14)
O3_2 O 0.8930(9) 0.9870(15) 0.2268(10)
O4_2 O 0.8671(9) 0.9462(14) 0.1000(11)
O6_2 O 0.7093(9) 0.8781(14) 0.0601(10)
O7_2 O 0.7298(9) 0.9546(13) 0.1836(11)
H31_2 H 0.8244 0.0261 0.8165
H32_2 H 0.8251 0.1461 0.8665
O30_2 O 0.8033(9) 0.0837(15) 0.8402(11)
O42 O 0.8706(12) 0.1364(18) 0.9874(13)
C36_2 C 0.9816(12) 0.2295(19) 0.0193(14)
C40_2 C 0.9121(13) 0.192(2) 0.0422(15)
H29_2 H 0.8551 0.7438 0.0169
H19_2 H 0.9742 0.1547 0.9139
C44_2 C 0.9864(13) 0.771(2) 0.8501(15)
C45_2 C 0.9911(16) 0.669(3) 0.7929(18)
H23_2 H 0.9528 0.6403 0.7594
H30_2 H 0.7861 0.6742 0.9943
C48_2 C 0.9152(14) 0.822(2) 0.8545(15)
O28_2 O 0.9070(11) 0.9000(17) 0.9109(13)
O29_2 O 0.8165(9) 0.7293(17) 0.9886(12)
C50 C 0.3532(14) 0.896(2) 0.5437(16)
H34 H 0.3944 0.9348 0.5259
H35 H 0.3389 0.8284 0.5097
H36 H 0.3642 0.8672 0.5968
C51 C 0.2177(13) 0.947(2) 0.5438(16)
H37 H 0.1932 0.9973 0.5788
H38 H 0.2193 0.8637 0.5624
H39 H 0.1931 0.9501 0.4916
N1 N 0.2905(12) 0.993(2) 0.5415(14)
C50_2 C 0.3532(14) 0.104(2) 0.0437(16)
H34_2 H 0.3944 0.0652 0.0259
H35_2 H 0.3389 0.1716 0.0097
H36_2 H 0.3642 0.1328 0.0968
C51_2 C 0.2177(13) 0.053(2) 0.0438(16)
H37_2 H 0.1932 0.0027 0.0788
H38_2 H 0.2193 0.1363 0.0624
N1_2 N 0.2905(12) 0.007(2) 0.0415(14)
H39_2 H 0.1931 0.0499 0.9916
loop_
_geom_bond_atom_site_label_1
_geom_bond_atom_site_label_2
_geom_bond_site_symmetry_1
_geom_bond_site_symmetry_2
C1 C2 1_555 1_555
C2 H1 1_555 1_555
C3 C2 1_555 1_555
H2 C3 1_555 1_555
C6 C1 1_555 1_555
H4 C6 1_555 1_555
C7 C1 1_555 1_555
O1 C7 1_555 1_555
O2 C7 1_555 1_555
Ce9 O2 1_555 1_555
Ce12 O1 1_555 1_555
C5 C4 1_555 1_555
H3 C5 1_555 1_555
C8 C4 1_555 1_555
C9 C10 1_555 1_555
C10 H5 1_555 1_555
C11 C10 1_555 1_555
H6 C11 1_555 1_555
C12 C11 1_555 1_555
C13 C12 1_555 1_555
H7 C13 1_555 1_555
C14 C9 1_555 1_555
H8 C14 1_555 1_555
C15 C9 1_555 1_555
C16 C12 1_555 1_555
O3 C8 1_555 1_555
O6 C15 1_555 1_555
O8 C16 1_555 1_555
O9 C16 1_555 1_555
Ce9 O9 1_555 1_555
Ce12 O8 1_555 1_555
Ce15 O4 1_555 1_555
C8 O4 1_555 1_555
C13 C14 1_555 1_555
C15 O7 1_555 1_555
O6 Ce15 1_555 1_555
Ce9 O12 1_555 1_555
Ce3 O12 1_555 1_555
C17 C18 1_555 1_555
C18 H9 1_555 1_555
C19 C18 1_555 1_555
H10 C19 1_555 1_555
C20 C19 1_555 1_555
C21 C20 1_555 1_555
H11 C21 1_555 1_555
C22 C17 1_555 1_555
H12 C22 1_555 1_555
C23 C17 1_555 1_555
C24 C20 1_555 1_555
C25 C26 1_555 1_555
C26 H13 1_555 1_555
C27 C26 1_555 1_555
H14 C27 1_555 1_555
C28 C27 1_555 1_555
C29 C28 1_555 1_555
H15 C29 1_555 1_555
C30 C25 1_555 1_555
H16 C30 1_555 1_555
C31 C25 1_555 1_555
C32 C28 1_555 1_555
C33 C34 1_555 1_555
C34 H17 1_555 1_555
C35 C34 1_555 1_555
H18 C35 1_555 1_555
C38 C33 1_555 1_555
H20 C38 1_555 1_555
C39 C33 1_555 1_555
C41 C42 1_555 1_555
C42 H21 1_555 1_555
C43 C42 1_555 1_555
H22 C43 1_555 1_555
C46 C41 1_555 1_555
H24 C46 1_555 1_555
H25 O5 1_555 1_555
H26 O5 1_555 1_555
H27 O18 1_555 1_555
H28 O18 1_555 1_555
C47 C41 1_555 1_555
C49 H33 1_555 1_555
O5 Ce1 1_555 1_555
O10 Ce1 1_555 1_555
O11 C23 1_555 1_555
O12 C24 1_555 1_555
O13 Ce9 1_555 1_555
O14 Ce3 1_555 1_555
O15 Ce9 1_555 1_555
O16 C32 1_555 1_555
O17 C32 1_555 1_555
O18 Ce3 1_555 1_555
O19 Ce9 1_555 1_555
O20 Ce9 1_555 1_555
O21 Ce9 1_555 1_555
O22 Ce3 1_555 1_555
O25 Ce3 1_555 1_555
O26 Ce9 1_555 1_555
Ce7 O17 1_555 1_555
Ce12 O20 1_555 1_555
Ce15 O16 1_555 1_555
O31 Ce3 1_555 1_555
O35 Ce3 1_555 1_555
O39 Ce1 1_555 1_555
O40 Ce3 1_555 1_555
O41 Ce1 1_555 1_555
O43 Ce1 1_555 1_555
C21 C22 1_555 1_555
C23 O10 1_555 1_555
C24 O13 1_555 1_555
C29 C30 1_555 1_555
C31 O14 1_555 1_555
C31 O15 1_555 1_555
C37 C38 1_555 1_555
C39 O21 1_555 1_555
C39 O22 1_555 1_555
C47 O25 1_555 1_555
C47 O26 1_555 1_555
C49 O19 1_555 1_555
Ce15 O28 1_555 1_555
C40 C36 1_555 1_555
C45 C44 1_555 1_555
H23 C45 1_555 1_555
H29 O29 1_555 1_555
H30 O29 1_555 1_555
C48 C44 1_555 1_555
O41 C40 1_555 1_555
O24 C40 1_555 1_555
O27 C48 1_555 1_555
O28 C48 1_555 1_555
O29 Ce15 1_555 1_555
Ce7 O27 1_555 1_555
H31 O30 1_555 1_555
H32 O30 1_555 1_555
C1_2 C2_2 1_555 1_555
C2_2 H1_2 1_555 1_555
C3_2 C2_2 1_555 1_555
H2_2 C3_2 1_555 1_555
C6_2 C1_2 1_555 1_555
H4_2 C6_2 1_555 1_555
C7_2 C1_2 1_555 1_555
O31 C7_2 1_555 1_555
O2_2 C7_2 1_555 1_555
Ce9_2 O2_2 1_555 1_555
C17_2 C18_2 1_555 1_555
C18_2 H9_2 1_555 1_555
C19_2 C18_2 1_555 1_555
H10_2 C19_2 1_555 1_555
C20_2 C19_2 1_555 1_555
C23_2 C17_2 1_555 1_555
C24_2 C20_2 1_555 1_555
C34_2 H17_2 1_555 1_555
C35_2 C34_2 1_555 1_555
H18_2 C35_2 1_555 1_555
H25_2 O5_2 1_555 1_555
H26_2 O5_2 1_555 1_555
C49_2 H33_2 1_555 1_555
O5_2 Ce7 1_555 1_555
O10_2 Ce7 1_555 1_555
O13_2 Ce9_2 1_555 1_555
O19_2 Ce9_2 1_555 1_555
O40 Ce9_2 1_555 1_555
O21_2 Ce9_2 1_555 1_555
O36 Ce9_2 1_555 1_555
O41_2 Ce7 1_555 1_555
C23_2 O10_2 1_555 1_555
C24_2 O13_2 1_555 1_555
C49_2 O19_2 1_555 1_555
Ce12 O12_2 1_555 1_555
H11_2 C21_2 1_555 1_555
H12_2 C22_2 1_555 1_555
C25_2 C26_2 1_555 1_555
C26_2 H13_2 1_555 1_555
C27_2 C26_2 1_555 1_555
H14_2 C27_2 1_555 1_555
C28_2 C27_2 1_555 1_555
C29_2 C28_2 1_555 1_555
H15_2 C29_2 1_555 1_555
C30_2 C25_2 1_555 1_555
H16_2 C30_2 1_555 1_555
C31_2 C25_2 1_555 1_555
C32_2 C28_2 1_555 1_555
C38_2 C33_2 1_555 1_555
H20_2 C38_2 1_555 1_555
C39_2 C33_2 1_555 1_555
C41_2 C42_2 1_555 1_555
C42_2 H21_2 1_555 1_555
C43_2 C42_2 1_555 1_555
H22_2 C43_2 1_555 1_555
C46_2 C41_2 1_555 1_555
H24_2 C46_2 1_555 1_555
H27_2 O18_2 1_555 1_555
H28_2 O18_2 1_555 1_555
C47_2 C41_2 1_555 1_555
O14_2 Ce12 1_555 1_555
O16_2 C32_2 1_555 1_555
O39 C32_2 1_555 1_555
O18_2 Ce12 1_555 1_555
O22_2 Ce12 1_555 1_555
O25_2 Ce12 1_555 1_555
Ce14 O16_2 1_555 1_555
C21_2 C22_2 1_555 1_555
C29_2 C30_2 1_555 1_555
C31_2 O14_2 1_555 1_555
C31_2 O15_2 1_555 1_555
C37_2 C38_2 1_555 1_555
C39_2 O22_2 1_555 1_555
C47_2 O25_2 1_555 1_555
C47_2 O26_2 1_555 1_555
C5_2 C4_2 1_555 1_555
H3_2 C5_2 1_555 1_555
C8_2 C4_2 1_555 1_555
C9_2 C10_2 1_555 1_555
C10_2 H5_2 1_555 1_555
C11_2 C10_2 1_555 1_555
H6_2 C11_2 1_555 1_555
C12_2 C11_2 1_555 1_555
C13_2 C12_2 1_555 1_555
H7_2 C13_2 1_555 1_555
C14_2 C9_2 1_555 1_555
H8_2 C14_2 1_555 1_555
C15_2 C9_2 1_555 1_555
C16_2 C12_2 1_555 1_555
O3_2 C8_2 1_555 1_555
O6_2 C15_2 1_555 1_555
O35 C16_2 1_555 1_555
O36 C16_2 1_555 1_555
C8_2 O4_2 1_555 1_555
C13_2 C14_2 1_555 1_555
C15_2 O7_2 1_555 1_555
H31_2 O30_2 1_555 1_555
H32_2 O30_2 1_555 1_555
C40_2 C36_2 1_555 1_555
O41_2 C40_2 1_555 1_555
Ce14 O28_2 1_555 1_555
C45_2 C44_2 1_555 1_555
H23_2 C45_2 1_555 1_555
H30_2 O29_2 1_555 1_555
C48_2 C44_2 1_555 1_555
O43 C48_2 1_555 1_555
O28_2 C48_2 1_555 1_555
O29_2 Ce14 1_555 1_555
C50 H34 1_555 1_555
H35 C50 1_555 1_555
H36 C50 1_555 1_555
C51 H37 1_555 1_555
H38 C51 1_555 1_555
H39 C51 1_555 1_555
C50 N1 1_555 1_555
C51 N1 1_555 1_555
C50_2 H34_2 1_555 1_555
H35_2 C50_2 1_555 1_555
H36_2 C50_2 1_555 1_555
C51_2 H37_2 1_555 1_555
H38_2 C51_2 1_555 1_555
C50_2 N1_2 1_555 1_555
C51_2 N1_2 1_555 1_555

#END
