
###############################################################################
#
# This file contains modified crystal structure data generated from the
# MOF subset of the Cambridge Structural Database (CSD) v543 
# hosted by the Cambridge Crystallographic Data Centre (CCDC).
#
# This work is licensed under the Creative Commons
# Attribution-NonCommercial-ShareAlike 4.0 International License.
# To view a copy of this license, visit
# http://creativecommons.org/licenses/by-nc-sa/4.0/
# or send a letter to
# Creative Commons, PO Box 1866, Mountain View, CA 94042, USA.
#
# CIF created using the CSD Python API on 29 September 2022
# The structure has been converted into the P1 space group
# The structure has a 3D framework
# The original CSD entry ATOGUO is in the orthorhombic crystal system
# The original CSD entry ATOGUO is in a Sohncke space group
# The framework has been calculated to contain at least 10.0% void space
# The void calculation uses a probe of radius 1.32A, grid spacing 0.4
#
###############################################################################

data_ATOGUO
_chemical_formula_moiety         '(C68 H88 N12 Na4 O24 S4)n'
_symmetry_cell_setting           triclinic
_symmetry_space_group_name_H-M   'P 1'
_symmetry_Int_Tables_number      1
_space_group_name_Hall           'P 1'
loop_
_symmetry_equiv_pos_site_id
_symmetry_equiv_pos_as_xyz
1 x,y,z
_cell_length_a                   9.9361(7)
_cell_length_b                   15.3223(10)
_cell_length_c                   15.6894(9)
_cell_angle_alpha                90
_cell_angle_beta                 90
_cell_angle_gamma                90
_cell_volume                     2388.62
loop_
_atom_site_label
_atom_site_type_symbol
_atom_site_fract_x
_atom_site_fract_y
_atom_site_fract_z
O5 O 0.3114(4) 0.2698(2) 0.7602(2)
H1 H 0.335241 0.288864 0.712296
C4 C 0.1188(5) 0.0923(3) 0.6635(3)
H7 H 0.107698 0.065216 0.609482
C5 C 0.2273(5) 0.2009(3) 0.7495(3)
C6 C 0.0438(5) 0.0625(3) 0.7318(3)
C9 C 0.0648(5) 0.1019(3) 0.8111(3)
H9 H 0.016842 0.081598 0.859556
C12 C 0.2094(6) 0.1602(4) 0.6713(3)
H12 H 0.259506 0.178982 0.623127
C14 C 0.1552(6) 0.1702(4) 0.8195(3)
H13 H 0.168144 0.196524 0.873679
H3 H 0.033501 0.915304 0.798832
S1 S 0.77450(13) 0.28392(9) 0.65833(9)
Na1 Na 0.1855(2) 0.46405(13) 0.58493(12)
O1 O 0.4093(3) 0.4272(2) 0.5062(2)
O2 O 0.5526(3) 0.1247(2) 0.5037(2)
O3 O 0.3278(3) 0.3480(2) 0.6127(2)
O4 O 0.7367(4) 0.0380(2) 0.7925(2)
N1 N 0.5406(4) 0.2340(3) 0.6088(2)
O6 O 0.1599(4) 0.5886(3) 0.5006(3)
H2 H 0.234(4) 0.612(4) 0.487(5)
N3 N 0.7558(4) 0.0745(3) 0.6541(2)
H5 H 0.801291 0.070571 0.606131
C1 C 0.4183(5) 0.3679(3) 0.5603(3)
C2 C 0.5687(5) 0.1535(3) 0.5742(3)
C3 C 0.5528(5) 0.3182(3) 0.5656(3)
H6 H 0.587098 0.308132 0.506471
C7 C 0.6317(5) 0.1217(3) 0.6581(3)
H8 H 0.563983 0.088187 0.691972
C8 C 0.8009(5) 0.0363(3) 0.7262(3)
C10 C 0.6278(5) 0.2197(3) 0.6832(3)
H10 H 0.585374 0.232457 0.739622
C13 C 0.6614(5) 0.3702(3) 0.6170(3)
C15 C 0.7412(6) 0.4313(3) 0.5594(3)
H14 H 0.809064 0.462124 0.593277
H15 H 0.680031 0.473722 0.533291
H16 H 0.785737 0.397248 0.514717
C16 C 0.6013(6) 0.4208(4) 0.6919(3)
H17 H 0.554321 0.380313 0.730005
H18 H 0.537554 0.464407 0.670451
H19 H 0.673529 0.450215 0.723335
C17 C 0.0570(7) 0.6035(4) 0.4392(4)
H20 H 0.090645 0.588398 0.382362
H21 H 0.030897 0.665177 0.440242
Na3 Na 0.6855(2) 0.03595(13) 0.41507(12)
O7 O 0.0526(3) 0.3753(2) 0.4963(2)
O8 O 0.2633(4) 0.5380(2) 0.7075(2)
N4 N 0.0541(4) 0.4242(3) 0.7157(3)
N2 N 0.9459(4) 0.9242(3) 0.7843(3)
H4 H 0.913209 0.873371 0.762545
C11 C 0.9386(5) 0.9928(3) 0.7183(3)
H11 H 0.949000 0.966365 0.660454
Na2 Na 0.8145(2) 0.96405(13) 0.91507(12)
Na1_2 Na 0.3145(2) 0.53595(13) 0.08493(12)
O1_2 O 0.0907(3) 0.5728(2) 0.0062(2)
O3_2 O 0.1722(3) 0.6520(2) 0.1127(2)
O6_2 O 0.3401(4) 0.4114(3) 0.0006(3)
C1_2 C 0.0817(5) 0.6321(3) 0.0603(3)
O8_2 O 0.2367(4) 0.4620(2) 0.2075(2)
N4_2 N 0.4459(4) 0.5758(3) 0.2157(3)
H2_2 H 0.266(4) 0.388(4) 0.987(5)
C17_2 C 0.4430(7) 0.3965(4) 0.9392(4)
H20_2 H 0.409355 0.411602 0.882362
H21_2 H 0.469103 0.334823 0.940242
H22 H 0.521318 0.432800 0.952703
O7_2 O 0.4474(3) 0.6247(2) 0.9963(2)
N2_2 N 0.5541(4) 0.0758(3) 0.2843(3)
H3_2 H 0.466499 0.084696 0.298832
H4_2 H 0.586791 0.126629 0.262545
C11_2 C 0.5614(5) 0.0072(3) 0.2183(3)
H11_2 H 0.551000 0.033635 0.160454
S1_2 S 0.72550(13) 0.71608(9) 0.15833(9)
O2_2 O 0.9474(3) 0.8753(2) 0.0037(2)
O4_2 O 0.7633(4) 0.9620(2) 0.2925(2)
O5_2 O 0.1886(4) 0.7302(2) 0.2602(2)
H1_2 H 0.164759 0.711136 0.212296
N1_2 N 0.9594(4) 0.7660(3) 0.1088(2)
N3_2 N 0.7442(4) 0.9255(3) 0.1541(2)
H5_2 H 0.698709 0.929429 0.106131
C2_2 C 0.9313(5) 0.8465(3) 0.0742(3)
C3_2 C 0.9472(5) 0.6818(3) 0.0656(3)
H6_2 H 0.912902 0.691868 0.006471
C4_2 C 0.3812(5) 0.9077(3) 0.1635(3)
H7_2 H 0.392302 0.934784 0.109482
C5_2 C 0.2727(5) 0.7991(3) 0.2495(3)
C6_2 C 0.4562(5) 0.9375(3) 0.2318(3)
C7_2 C 0.8683(5) 0.8783(3) 0.1581(3)
H8_2 H 0.936017 0.911813 0.191972
C8_2 C 0.6991(5) 0.9637(3) 0.2262(3)
C9_2 C 0.4352(5) 0.8981(3) 0.3111(3)
H9_2 H 0.483158 0.918402 0.359556
C10_2 C 0.8722(5) 0.7803(3) 0.1832(3)
H10_2 H 0.914626 0.767543 0.239622
C12_2 C 0.2906(6) 0.8398(4) 0.1713(3)
H12_2 H 0.240494 0.821018 0.123127
C13_2 C 0.8386(5) 0.6298(3) 0.1170(3)
C14_2 C 0.3448(6) 0.8298(4) 0.3195(3)
H13_2 H 0.331856 0.803476 0.373679
C15_2 C 0.7588(6) 0.5687(3) 0.0594(3)
H14_2 H 0.690936 0.537876 0.093277
H15_2 H 0.819969 0.526278 0.033291
H16_2 H 0.714263 0.602752 0.014717
C16_2 C 0.8987(6) 0.5792(4) 0.1919(3)
H17_2 H 0.945679 0.619687 0.230005
H18_2 H 0.962446 0.535593 0.170451
H19_2 H 0.826471 0.549785 0.223335
O6_3 O 0.8401(4) 0.0886(3) 0.9994(3)
S1_3 S 0.22550(13) 0.78392(9) 0.84167(9)
O1_3 O 0.5907(3) 0.9272(2) 0.9938(2)
O3_3 O 0.6722(3) 0.8480(2) 0.8873(2)
N1_3 N 0.4594(4) 0.7340(3) 0.8912(2)
H4_3 H 0.086791 0.373371 0.737455
N3_3 N 0.2442(4) 0.5745(3) 0.8459(2)
H5_3 H 0.198709 0.570571 0.893869
C1_3 C 0.5817(5) 0.8679(3) 0.9397(3)
C2_3 C 0.4313(5) 0.6535(3) 0.9258(3)
C3_3 C 0.4472(5) 0.8182(3) 0.9344(3)
H6_3 H 0.412902 0.808132 0.993529
C7_3 C 0.3683(5) 0.6217(3) 0.8419(3)
H8_3 H 0.436017 0.588187 0.808028
C8_3 C 0.1991(5) 0.5363(3) 0.7738(3)
C10_3 C 0.3722(5) 0.7197(3) 0.8168(3)
H10_3 H 0.414626 0.732457 0.760378
C11_3 C 0.0614(5) 0.4928(3) 0.7817(3)
H11_3 H 0.051000 0.466365 0.839546
C13_3 C 0.3386(5) 0.8702(3) 0.8830(3)
C15_3 C 0.2588(6) 0.9313(3) 0.9406(3)
H14_3 H 0.190936 0.962124 0.906723
H15_3 H 0.319969 0.973722 0.966709
H16_3 H 0.214263 0.897248 0.985283
C16_3 C 0.3987(6) 0.9208(4) 0.8081(3)
H17_3 H 0.445679 0.880313 0.769995
H18_3 H 0.462446 0.964407 0.829549
H19_3 H 0.326471 0.950215 0.776665
S1_4 S 0.27450(13) 0.21608(9) 0.34167(9)
O5_3 O 0.8114(4) 0.2302(2) 0.2398(2)
H1_3 H 0.835241 0.211136 0.287704
N1_4 N 0.0406(4) 0.2660(3) 0.3912(2)
H3_3 H 0.533501 0.584696 0.201168
H4_4 H 0.413209 0.626629 0.237455
N3_4 N 0.2558(4) 0.4255(3) 0.3459(2)
H5_4 H 0.301291 0.429429 0.393869
C2_4 C 0.0687(5) 0.3465(3) 0.4258(3)
C3_4 C 0.0528(5) 0.1818(3) 0.4344(3)
H6_4 H 0.087098 0.191868 0.493529
C4_3 C 0.6188(5) 0.4077(3) 0.3365(3)
H7_3 H 0.607698 0.434784 0.390518
C5_3 C 0.7273(5) 0.2991(3) 0.2505(3)
C6_3 C 0.5438(5) 0.4375(3) 0.2682(3)
C7_4 C 0.1317(5) 0.3783(3) 0.3419(3)
H8_4 H 0.063983 0.411813 0.308028
C8_4 C 0.3009(5) 0.4637(3) 0.2738(3)
C9_3 C 0.5648(5) 0.3981(3) 0.1889(3)
H9_3 H 0.516842 0.418402 0.140444
C10_4 C 0.1278(5) 0.2803(3) 0.3168(3)
H10_4 H 0.085374 0.267543 0.260378
C11_4 C 0.4386(5) 0.5072(3) 0.2817(3)
H11_4 H 0.449000 0.533635 0.339546
C12_3 C 0.7094(6) 0.3398(4) 0.3287(3)
H12_3 H 0.759506 0.321018 0.376873
C13_4 C 0.1614(5) 0.1298(3) 0.3830(3)
C14_3 C 0.6552(6) 0.3298(4) 0.1805(3)
H13_3 H 0.668144 0.303476 0.126321
C15_4 C 0.2412(6) 0.0687(3) 0.4406(3)
H14_4 H 0.309064 0.037876 0.406723
H15_4 H 0.180031 0.026278 0.466709
H16_4 H 0.285737 0.102752 0.485283
C16_4 C 0.1013(6) 0.0792(4) 0.3081(3)
H17_4 H 0.054321 0.119687 0.269995
H18_4 H 0.037554 0.035593 0.329549
H19_4 H 0.173529 0.049785 0.276665
O1_4 O 0.9093(3) 0.0728(2) 0.4938(2)
O3_4 O 0.8278(3) 0.1520(2) 0.3873(2)
C1_4 C 0.9183(5) 0.1321(3) 0.4397(3)
O6_4 O 0.6599(4) 0.9114(3) 0.4994(3)
H2_3 H 0.734(4) 0.888(4) 0.513(5)
C17_3 C 0.5570(7) 0.8965(4) 0.5608(4)
H20_3 H 0.590645 0.911602 0.617638
H21_3 H 0.530897 0.834823 0.559758
H22_2 H 0.478682 0.932800 0.547297
H22_3 H 0.978682 0.567200 0.452703
H22_4 H 0.021318 0.067200 0.047297
H2_4 H 0.766(4) 0.112(4) 0.013(5)
C17_4 C 0.9430(7) 0.1035(4) 0.0608(4)
H20_4 H 0.909355 0.088398 0.117638
H21_4 H 0.969103 0.165177 0.059758
O5_4 O 0.6886(4) 0.7698(2) 0.7398(2)
H1_4 H 0.664759 0.788864 0.787704
H3_4 H 0.966499 0.415304 0.701168
C4_4 C 0.8812(5) 0.5923(3) 0.8365(3)
H7_4 H 0.892302 0.565216 0.890518
C5_4 C 0.7727(5) 0.7009(3) 0.7505(3)
C6_4 C 0.9562(5) 0.5625(3) 0.7682(3)
C9_4 C 0.9352(5) 0.6019(3) 0.6889(3)
H9_4 H 0.983158 0.581598 0.640444
C12_4 C 0.7906(6) 0.6602(4) 0.8287(3)
H12_4 H 0.740494 0.678982 0.876873
C14_4 C 0.8448(6) 0.6702(4) 0.6805(3)
H13_4 H 0.831856 0.696524 0.626321
loop_
_geom_bond_atom_site_label_1
_geom_bond_atom_site_label_2
_geom_bond_site_symmetry_1
_geom_bond_site_symmetry_2
O5 H1 1_555 1_555
C4 H7 1_555 1_555
C5 O5 1_555 1_555
C6 C4 1_555 1_555
C9 C6 1_555 1_555
H9 C9 1_555 1_555
C12 C4 1_555 1_555
H12 C12 1_555 1_555
C14 C5 1_555 1_555
H13 C14 1_555 1_555
C5 C12 1_555 1_555
C9 C14 1_555 1_555
S1 C10 1_555 1_555
Na1 O1 1_555 1_555
O1 C1 1_555 1_555
O2 C2 1_555 1_555
O3 Na1 1_555 1_555
O4 C8 1_555 1_555
N1 C2 1_555 1_555
O6 Na1 1_555 1_555
H2 O6 1_555 1_555
N3 H5 1_555 1_555
C1 O3 1_555 1_555
C2 C7 1_555 1_555
C3 N1 1_555 1_555
H6 C3 1_555 1_555
C7 N3 1_555 1_555
H8 C7 1_555 1_555
C8 N3 1_555 1_555
C10 N1 1_555 1_555
H10 C10 1_555 1_555
C13 S1 1_555 1_555
C15 C13 1_555 1_555
H14 C15 1_555 1_555
H15 C15 1_555 1_555
H16 C15 1_555 1_555
C16 C13 1_555 1_555
H17 C16 1_555 1_555
H18 C16 1_555 1_555
H19 C16 1_555 1_555
C17 O6 1_555 1_555
H20 C17 1_555 1_555
H21 C17 1_555 1_555
Na3 O2 1_555 1_555
O7 Na1 1_555 1_555
O8 Na1 1_555 1_555
N4 Na1 1_555 1_555
C1 C3 1_555 1_555
C3 C13 1_555 1_555
C7 C10 1_555 1_555
H4 N2 1_555 1_555
C11 N2 1_555 1_555
H11 C11 1_555 1_555
N2 Na2 1_555 1_555
Na1_2 O1_2 1_555 1_555
O1_2 C1_2 1_555 1_555
O3_2 Na1_2 1_555 1_555
O6_2 Na1_2 1_555 1_555
C1_2 O3_2 1_555 1_555
O8_2 Na1_2 1_555 1_555
N4_2 Na1_2 1_555 1_555
H20_2 C17_2 1_555 1_555
H21_2 C17_2 1_555 1_555
H22 C17_2 1_555 1_555
N2_2 H3_2 1_555 1_555
H4_2 N2_2 1_555 1_555
C11_2 N2_2 1_555 1_555
H11_2 C11_2 1_555 1_555
N2_2 Na3 1_555 1_555
S1_2 C10_2 1_555 1_555
O2_2 C2_2 1_555 1_555
O4_2 C8_2 1_555 1_555
O5_2 H1_2 1_555 1_555
N1_2 C2_2 1_555 1_555
N3_2 H5_2 1_555 1_555
C2_2 C7_2 1_555 1_555
C3_2 N1_2 1_555 1_555
H6_2 C3_2 1_555 1_555
C4_2 H7_2 1_555 1_555
C5_2 O5_2 1_555 1_555
C6_2 C4_2 1_555 1_555
C7_2 N3_2 1_555 1_555
H8_2 C7_2 1_555 1_555
C8_2 N3_2 1_555 1_555
C9_2 C6_2 1_555 1_555
H9_2 C9_2 1_555 1_555
C10_2 N1_2 1_555 1_555
H10_2 C10_2 1_555 1_555
C12_2 C4_2 1_555 1_555
H12_2 C12_2 1_555 1_555
C13_2 S1_2 1_555 1_555
C14_2 C5_2 1_555 1_555
H13_2 C14_2 1_555 1_555
C15_2 C13_2 1_555 1_555
H14_2 C15_2 1_555 1_555
H15_2 C15_2 1_555 1_555
H16_2 C15_2 1_555 1_555
C16_2 C13_2 1_555 1_555
H17_2 C16_2 1_555 1_555
H18_2 C16_2 1_555 1_555
H19_2 C16_2 1_555 1_555
C3_2 C13_2 1_555 1_555
C5_2 C12_2 1_555 1_555
C7_2 C10_2 1_555 1_555
C9_2 C14_2 1_555 1_555
S1_3 C10_3 1_555 1_555
Na2 O1_3 1_555 1_555
O1_3 C1_3 1_555 1_555
O7_2 C2_3 1_555 1_555
O3_3 Na2 1_555 1_555
O8 C8_3 1_555 1_555
N1_3 C2_3 1_555 1_555
H4_3 N4 1_555 1_555
N3_3 H5_3 1_555 1_555
C1_3 O3_3 1_555 1_555
C2_3 C7_3 1_555 1_555
C3_3 N1_3 1_555 1_555
H6_3 C3_3 1_555 1_555
C7_3 N3_3 1_555 1_555
H8_3 C7_3 1_555 1_555
C8_3 N3_3 1_555 1_555
C10_3 N1_3 1_555 1_555
H10_3 C10_3 1_555 1_555
C11_3 N4 1_555 1_555
H11_3 C11_3 1_555 1_555
C13_3 S1_3 1_555 1_555
C15_3 C13_3 1_555 1_555
H14_3 C15_3 1_555 1_555
H15_3 C15_3 1_555 1_555
H16_3 C15_3 1_555 1_555
C16_3 C13_3 1_555 1_555
H17_3 C16_3 1_555 1_555
H18_3 C16_3 1_555 1_555
H19_3 C16_3 1_555 1_555
C1_3 C3_3 1_555 1_555
C3_3 C13_3 1_555 1_555
C7_3 C10_3 1_555 1_555
C8_3 C11_3 1_555 1_555
S1_4 C10_4 1_555 1_555
O7 C2_4 1_555 1_555
O8_2 C8_4 1_555 1_555
O5_3 H1_3 1_555 1_555
N1_4 C2_4 1_555 1_555
N4_2 H3_3 1_555 1_555
H4_4 N4_2 1_555 1_555
N3_4 H5_4 1_555 1_555
C2_4 C7_4 1_555 1_555
C3_4 N1_4 1_555 1_555
H6_4 C3_4 1_555 1_555
C4_3 H7_3 1_555 1_555
C5_3 O5_3 1_555 1_555
C6_3 C4_3 1_555 1_555
C7_4 N3_4 1_555 1_555
H8_4 C7_4 1_555 1_555
C8_4 N3_4 1_555 1_555
C9_3 C6_3 1_555 1_555
H9_3 C9_3 1_555 1_555
C10_4 N1_4 1_555 1_555
H10_4 C10_4 1_555 1_555
C11_4 N4_2 1_555 1_555
H11_4 C11_4 1_555 1_555
C12_3 C4_3 1_555 1_555
H12_3 C12_3 1_555 1_555
C13_4 S1_4 1_555 1_555
C14_3 C5_3 1_555 1_555
H13_3 C14_3 1_555 1_555
C15_4 C13_4 1_555 1_555
H14_4 C15_4 1_555 1_555
H15_4 C15_4 1_555 1_555
H16_4 C15_4 1_555 1_555
C16_4 C13_4 1_555 1_555
H17_4 C16_4 1_555 1_555
H18_4 C16_4 1_555 1_555
H19_4 C16_4 1_555 1_555
C3_4 C13_4 1_555 1_555
C5_3 C12_3 1_555 1_555
C6_3 C11_4 1_555 1_555
C7_4 C10_4 1_555 1_555
C8_4 C11_4 1_555 1_555
C9_3 C14_3 1_555 1_555
Na3 O1_4 1_555 1_555
O1_4 C1_4 1_555 1_555
O3_4 Na3 1_555 1_555
C1_4 O3_4 1_555 1_555
H2_3 O6_4 1_555 1_555
C17_3 O6_4 1_555 1_555
H20_3 C17_3 1_555 1_555
H21_3 C17_3 1_555 1_555
H22_2 C17_3 1_555 1_555
H20_4 C17_4 1_555 1_555
H21_4 C17_4 1_555 1_555
O5_4 H1_4 1_555 1_555
C4_4 H7_4 1_555 1_555
C5_4 O5_4 1_555 1_555
C6_4 C4_4 1_555 1_555
C9_4 C6_4 1_555 1_555
H9_4 C9_4 1_555 1_555
C12_4 C4_4 1_555 1_555
H12_4 C12_4 1_555 1_555
C14_4 C5_4 1_555 1_555
H13_4 C14_4 1_555 1_555
C5_4 C12_4 1_555 1_555
C9_4 C14_4 1_555 1_555

#END
