
###############################################################################
#
# This file contains modified crystal structure data generated from the
# MOF subset of the Cambridge Structural Database (CSD) v543 
# hosted by the Cambridge Crystallographic Data Centre (CCDC).
#
# This work is licensed under the Creative Commons
# Attribution-NonCommercial-ShareAlike 4.0 International License.
# To view a copy of this license, visit
# http://creativecommons.org/licenses/by-nc-sa/4.0/
# or send a letter to
# Creative Commons, PO Box 1866, Mountain View, CA 94042, USA.
#
# CIF created using the CSD Python API on 29 September 2022
# The structure has been converted into the P1 space group
# The structure has a 3D framework
# The original CSD entry ATOMEE is in the monoclinic crystal system
# The framework has been calculated to contain at least 10.0% void space
# The void calculation uses a probe of radius 1.32A, grid spacing 0.4
#
###############################################################################

data_ATOMEE
_chemical_formula_moiety         '(C84 H68 Co4 N8 O20)n'
_symmetry_cell_setting           triclinic
_symmetry_space_group_name_H-M   'P 1'
_symmetry_Int_Tables_number      1
_space_group_name_Hall           'P 1'
loop_
_symmetry_equiv_pos_site_id
_symmetry_equiv_pos_as_xyz
1 x,y,z
_cell_length_a                   8.4456(17)
_cell_length_b                   14.373(3)
_cell_length_c                   17.776(5)
_cell_angle_alpha                90
_cell_angle_beta                 107.42(3)
_cell_angle_gamma                90
_cell_volume                     2058.84
loop_
_atom_site_label
_atom_site_type_symbol
_atom_site_fract_x
_atom_site_fract_y
_atom_site_fract_z
N4 N 0.3081(8) 0.7369(4) 0.3060(4)
C38 C 0.0144(11) 0.8401(5) 0.2451(5)
C39 C 0.0534(12) 0.8008(7) 0.3177(5)
C40 C 0.1990(12) 0.7496(7) 0.3455(5)
H32 H 0.2214 0.7223 0.3950
C41 C 0.2656(11) 0.7745(6) 0.2326(5)
H33 H 0.3355 0.7656 0.2015
C42 C 0.1231(12) 0.8253(6) 0.2028(6)
H34 H 0.0998 0.8503 0.1524
Co6 Co 0.52253(13) 0.65355(8) 0.34503(7)
O3 O 0.5839(7) 0.6653(4) 0.2453(3)
O4 O 0.7971(10) 0.5745(6) 0.2984(4)
C2 C 0.7476(9) 0.7110(5) 0.0478(4)
C3 C 0.6904(9) 0.7000(5) 0.1118(4)
H1 H 0.5940 0.7300 0.1135
C4 C 0.7792(8) 0.6428(5) 0.1752(4)
C5 C 0.9268(9) 0.6036(5) 0.1720(4)
H2 H 0.9891 0.5684 0.2145
C6 C 0.9837(8) 0.6154(5) 0.1078(4)
C7 C 0.8938(9) 0.6711(5) 0.0446(4)
H3 H 0.9322 0.6809 0.0014
C8 C 0.7182(10) 0.6256(5) 0.2441(4)
Co1 Co 0.52253(13) 0.84645(8) 0.84503(7)
O1 O 0.5284(7) 0.8139(4) 0.9772(3)
O2 O 0.6987(7) 0.7626(5) 0.9149(3)
N1 N 0.3963(8) 0.9717(4) 0.8351(4)
C1 C 0.6533(9) 0.7659(6) 0.9772(5)
C12 C 0.2928(11) 0.9863(6) 0.8781(5)
H10 H 0.3075 0.9529 0.9244
O12 O 0.5839(7) 0.8347(4) 0.7453(3)
N5 N 0.3081(8) 0.7631(4) 0.8060(4)
C17 C 0.0144(11) 0.6599(5) 0.7451(5)
C18 C 0.0534(12) 0.6992(7) 0.8177(5)
C19 C 0.1990(12) 0.7504(7) 0.8455(5)
H15 H 0.2214 0.7777 0.8950
C20 C 0.2656(11) 0.7255(6) 0.7326(5)
H16 H 0.3355 0.7344 0.7015
C21 C 0.1231(12) 0.6747(6) 0.7028(6)
H17 H 0.0998 0.6497 0.6524
O6 O 0.5284(7) 0.6861(4) 0.4772(3)
O7 O 0.6987(7) 0.7374(5) 0.4149(3)
O9 O 0.7971(10) 0.9255(6) 0.7984(4)
C22 C 0.6533(9) 0.7341(6) 0.4772(5)
C23 C 0.7476(9) 0.7890(5) 0.5478(4)
C24 C 0.6904(9) 0.8000(5) 0.6118(4)
H18 H 0.5940 0.7700 0.6135
C25 C 0.7792(8) 0.8572(5) 0.6752(4)
C26 C 0.9268(9) 0.8964(5) 0.6720(4)
H19 H 0.9891 0.9316 0.7145
C27 C 0.9837(8) 0.8846(5) 0.6078(4)
C28 C 0.8938(9) 0.8289(5) 0.5446(4)
H20 H 0.9322 0.8191 0.5014
C29 C 0.7182(10) 0.8744(5) 0.7441(4)
N3 N 0.3963(8) 0.5283(4) 0.3351(4)
C33 C 0.2928(11) 0.5137(6) 0.3781(5)
H27 H 0.3075 0.5471 0.4244
C34 C 0.1642(11) 0.4501(6) 0.3552(5)
H28 H 0.0940 0.4422 0.3862
C35 C 0.1376(10) 0.3971(5) 0.2861(4)
C36 C 0.2582(11) 0.4079(5) 0.2484(5)
H29 H 0.2567 0.3695 0.2061
C37 C 0.3795(10) 0.4740(5) 0.2720(5)
H30 H 0.4536 0.4816 0.2429
H31 H 0.0168 0.3082 0.1511
O6_2 O 0.4716(7) 0.1861(4) 0.0228(3)
O7_2 O 0.3013(7) 0.2374(5) 0.0851(3)
C22_2 C 0.3467(9) 0.2341(6) 0.0228(5)
Co2 Co 0.47747(13) 0.15355(8) 0.15497(7)
N3_2 N 0.6037(8) 0.0283(4) 0.1649(4)
C33_2 C 0.7072(11) 0.0137(6) 0.1219(5)
H27_2 H 0.6925 0.0471 0.0756
O11 O 0.4161(7) 0.1653(4) 0.2547(3)
N6 N 0.6919(8) 0.2369(4) 0.1940(4)
O8 O 0.4161(7) 0.3347(4) 0.7547(3)
O9_2 O 0.2029(10) 0.4255(6) 0.7016(4)
C23_2 C 0.2524(9) 0.2890(5) 0.9522(4)
C24_2 C 0.3096(9) 0.3000(5) 0.8882(4)
H18_2 H 0.4060 0.2700 0.8865
C25_2 C 0.2208(8) 0.3572(5) 0.8248(4)
C26_2 C 0.0732(9) 0.3964(5) 0.8280(4)
H19_2 H 0.0109 0.4316 0.7855
C27_2 C 0.0163(8) 0.3846(5) 0.8922(4)
C28_2 C 0.1062(9) 0.3289(5) 0.9554(4)
H20_2 H 0.0678 0.3191 0.9986
C29_2 C 0.2818(10) 0.3744(5) 0.7559(4)
Co4 Co 0.47747(13) 0.34645(8) 0.65497(7)
N2 N 0.6919(8) 0.2631(4) 0.6940(4)
C17_2 C 0.9856(11) 0.1599(5) 0.7549(5)
C18_2 C 0.9466(12) 0.1992(7) 0.6823(5)
C19_2 C 0.8010(12) 0.2504(7) 0.6545(5)
H15_2 H 0.7786 0.2777 0.6050
C20_2 C 0.7344(11) 0.2255(6) 0.7674(5)
H16_2 H 0.6645 0.2344 0.7985
C21_2 C 0.8769(12) 0.1747(6) 0.7972(6)
H17_2 H 0.9002 0.1497 0.8476
O1_2 O 0.4716(7) 0.3139(4) 0.5228(3)
O2_2 O 0.3013(7) 0.2626(5) 0.5851(3)
O4_2 O 0.2029(10) 0.0745(6) 0.2016(4)
N1_2 N 0.6037(8) 0.4717(4) 0.6649(4)
C1_2 C 0.3467(9) 0.2659(6) 0.5228(5)
C2_2 C 0.2524(9) 0.2110(5) 0.4522(4)
C3_2 C 0.3096(9) 0.2000(5) 0.3882(4)
H1_2 H 0.4060 0.2300 0.3865
C4_2 C 0.2208(8) 0.1428(5) 0.3248(4)
C5_2 C 0.0732(9) 0.1036(5) 0.3280(4)
H2_2 H 0.0109 0.0684 0.2855
C6_2 C 0.0163(8) 0.1154(5) 0.3922(4)
C7_2 C 0.1062(9) 0.1711(5) 0.4554(4)
H3_2 H 0.0678 0.1809 0.4986
C8_2 C 0.2818(10) 0.1256(5) 0.2559(4)
C12_2 C 0.7072(11) 0.4863(6) 0.6219(5)
H10_2 H 0.6925 0.4529 0.5756
C13 C 0.8358(11) 0.5499(6) 0.6448(5)
H11 H 0.9060 0.5578 0.6138
C14 C 0.8624(10) 0.6029(5) 0.7139(4)
C15 C 0.7418(11) 0.5921(5) 0.7516(5)
H12 H 0.7433 0.6305 0.7939
C16 C 0.6205(10) 0.5260(5) 0.7280(5)
H13 H 0.5464 0.5184 0.7571
H14 H 0.9832 0.6918 0.8489
C38_2 C 0.9856(11) 0.3401(5) 0.2549(5)
C39_2 C 0.9466(12) 0.3008(7) 0.1823(5)
C40_2 C 0.8010(12) 0.2496(7) 0.1545(5)
H32_2 H 0.7786 0.2223 0.1050
C41_2 C 0.7344(11) 0.2745(6) 0.2674(5)
H33_2 H 0.6645 0.2656 0.2985
C42_2 C 0.8769(12) 0.3253(6) 0.2972(6)
H34_2 H 0.9002 0.3503 0.3476
C34_2 C 0.8358(11) 0.9501(6) 0.1448(5)
H28_2 H 0.9060 0.9422 0.1138
C35_2 C 0.8624(10) 0.8971(5) 0.2139(4)
C36_2 C 0.7418(11) 0.9079(5) 0.2516(5)
H29_2 H 0.7433 0.8695 0.2939
C37_2 C 0.6205(10) 0.9740(5) 0.2280(5)
H30_2 H 0.5464 0.9816 0.2571
H31_2 H 0.9832 0.8082 0.3489
O5 O 0.1306(6) 0.5722(4) 0.1120(3)
C9 C 0.1925(10) 0.5834(6) 0.0455(5)
H4 H 0.2161 0.6484 0.0388
C10 C 0.3499(9) 0.5260(6) 0.0621(5)
H6 H 0.3258 0.4622 0.0727
H7 H 0.4314 0.5500 0.1089
H22 H 0.8890 0.4381 0.0023
C32 C 0.5775(8) 0.4722(6) 0.0067(4)
H25 H 0.6601 0.4958 0.0533
H26 H 0.5544 0.4082 0.0171
H5 H 0.1110 0.5619 0.9977
C11 C 0.4225(8) 0.5278(6) 0.9933(4)
H8 H 0.3399 0.5042 0.9467
H9 H 0.4456 0.5918 0.9829
O10 O 0.8694(6) 0.4278(4) 0.8880(3)
C30 C 0.8075(10) 0.4166(6) 0.9545(5)
H21 H 0.7839 0.3516 0.9612
C31 C 0.6501(9) 0.4740(6) 0.9379(5)
H23 H 0.6742 0.5378 0.9273
H24 H 0.5686 0.4500 0.8911
C13_2 C 0.1642(11) 0.0499(6) 0.8552(5)
H11_2 H 0.0940 0.0578 0.8862
C14_2 C 0.1376(10) 0.1029(5) 0.7861(4)
C15_2 C 0.2582(11) 0.0921(5) 0.7484(5)
H12_2 H 0.2567 0.1305 0.7061
C16_2 C 0.3795(10) 0.0260(5) 0.7720(5)
H13_2 H 0.4536 0.0184 0.7429
H14_2 H 0.0168 0.1918 0.6511
O5_2 O 0.8694(6) 0.0722(4) 0.3880(3)
C9_2 C 0.8075(10) 0.0834(6) 0.4545(5)
H4_2 H 0.7839 0.1484 0.4612
H5_2 H 0.8890 0.0619 0.5023
C10_2 C 0.6501(9) 0.0260(6) 0.4379(5)
H7_2 H 0.5686 0.0500 0.3911
C11_2 C 0.5775(8) 0.0278(6) 0.5067(4)
H8_2 H 0.6601 0.0042 0.5533
H9_2 H 0.5544 0.0918 0.5171
H23_2 H 0.3258 0.0378 0.5727
H6_2 H 0.6742 0.9622 0.4273
O10_2 O 0.1306(6) 0.9278(4) 0.6120(3)
C30_2 C 0.1925(10) 0.9166(6) 0.5455(5)
H21_2 H 0.2161 0.8516 0.5388
H22_2 H 0.1110 0.9381 0.4977
C31_2 C 0.3499(9) 0.9740(6) 0.5621(5)
H24_2 H 0.4314 0.9500 0.6089
C32_2 C 0.4225(8) 0.9722(6) 0.4933(4)
H25_2 H 0.3399 0.9958 0.4467
H26_2 H 0.4456 0.9082 0.4829
loop_
_geom_bond_atom_site_label_1
_geom_bond_atom_site_label_2
_geom_bond_site_symmetry_1
_geom_bond_site_symmetry_2
N4 C40 1_555 1_555
C39 C38 1_555 1_555
C40 C39 1_555 1_555
H32 C40 1_555 1_555
C41 N4 1_555 1_555
H33 C41 1_555 1_555
C42 C38 1_555 1_555
H34 C42 1_555 1_555
Co6 N4 1_555 1_555
C41 C42 1_555 1_555
O3 C8 1_555 1_555
O4 C8 1_555 1_555
C3 C2 1_555 1_555
H1 C3 1_555 1_555
C4 C3 1_555 1_555
C5 C4 1_555 1_555
H2 C5 1_555 1_555
C6 C5 1_555 1_555
C7 C2 1_555 1_555
H3 C7 1_555 1_555
C8 C4 1_555 1_555
Co6 O3 1_555 1_555
C6 C7 1_555 1_555
Co1 O1 1_555 1_555
O1 C1 1_555 1_555
O2 Co1 1_555 1_555
N1 Co1 1_555 1_555
C1 O2 1_555 1_555
C12 N1 1_555 1_555
H10 C12 1_555 1_555
O12 Co1 1_555 1_555
N5 Co1 1_555 1_555
N5 C19 1_555 1_555
C18 C17 1_555 1_555
C19 C18 1_555 1_555
H15 C19 1_555 1_555
C20 N5 1_555 1_555
H16 C20 1_555 1_555
C21 C17 1_555 1_555
H17 C21 1_555 1_555
C20 C21 1_555 1_555
O6 C22 1_555 1_555
O7 C22 1_555 1_555
O12 C29 1_555 1_555
O9 C29 1_555 1_555
C22 C23 1_555 1_555
C23 C24 1_555 1_555
C24 H18 1_555 1_555
C25 C24 1_555 1_555
C26 C25 1_555 1_555
H19 C26 1_555 1_555
C27 C26 1_555 1_555
C28 C23 1_555 1_555
H20 C28 1_555 1_555
C29 C25 1_555 1_555
Co6 O6 1_555 1_555
N3 Co6 1_555 1_555
C33 N3 1_555 1_555
H27 C33 1_555 1_555
C34 C33 1_555 1_555
H28 C34 1_555 1_555
C35 C34 1_555 1_555
C36 C35 1_555 1_555
H29 C36 1_555 1_555
C37 N3 1_555 1_555
H30 C37 1_555 1_555
O7 Co6 1_555 1_555
C27 C28 1_555 1_555
C36 C37 1_555 1_555
O6_2 C22_2 1_555 1_555
O7_2 C22_2 1_555 1_555
Co2 O6_2 1_555 1_555
N3_2 Co2 1_555 1_555
C33_2 N3_2 1_555 1_555
H27_2 C33_2 1_555 1_555
O11 Co2 1_555 1_555
N6 Co2 1_555 1_555
O7_2 Co2 1_555 1_555
O8 C29_2 1_555 1_555
O9_2 C29_2 1_555 1_555
C23_2 C24_2 1_555 1_555
C24_2 H18_2 1_555 1_555
C25_2 C24_2 1_555 1_555
C26_2 C25_2 1_555 1_555
H19_2 C26_2 1_555 1_555
C27_2 C26_2 1_555 1_555
C28_2 C23_2 1_555 1_555
H20_2 C28_2 1_555 1_555
C29_2 C25_2 1_555 1_555
Co4 O8 1_555 1_555
C27_2 C28_2 1_555 1_555
N2 C19_2 1_555 1_555
C18_2 C17_2 1_555 1_555
C19_2 C18_2 1_555 1_555
H15_2 C19_2 1_555 1_555
C20_2 N2 1_555 1_555
H16_2 C20_2 1_555 1_555
C21_2 C17_2 1_555 1_555
H17_2 C21_2 1_555 1_555
Co4 N2 1_555 1_555
C20_2 C21_2 1_555 1_555
Co4 O1_2 1_555 1_555
O1_2 C1_2 1_555 1_555
O2_2 Co4 1_555 1_555
O11 C8_2 1_555 1_555
O4_2 C8_2 1_555 1_555
N1_2 Co4 1_555 1_555
C1_2 O2_2 1_555 1_555
C2_2 C1_2 1_555 1_555
C3_2 C2_2 1_555 1_555
H1_2 C3_2 1_555 1_555
C4_2 C3_2 1_555 1_555
C5_2 C4_2 1_555 1_555
H2_2 C5_2 1_555 1_555
C6_2 C5_2 1_555 1_555
C7_2 C2_2 1_555 1_555
H3_2 C7_2 1_555 1_555
C8_2 C4_2 1_555 1_555
C12_2 N1_2 1_555 1_555
H10_2 C12_2 1_555 1_555
C13 C12_2 1_555 1_555
H11 C13 1_555 1_555
C14 C13 1_555 1_555
C15 C14 1_555 1_555
H12 C15 1_555 1_555
C16 N1_2 1_555 1_555
H13 C16 1_555 1_555
C6_2 C7_2 1_555 1_555
C15 C16 1_555 1_555
N6 C40_2 1_555 1_555
C39_2 C38_2 1_555 1_555
C40_2 C39_2 1_555 1_555
H32_2 C40_2 1_555 1_555
C41_2 N6 1_555 1_555
H33_2 C41_2 1_555 1_555
C42_2 C38_2 1_555 1_555
H34_2 C42_2 1_555 1_555
C41_2 C42_2 1_555 1_555
H28_2 C34_2 1_555 1_555
C35_2 C34_2 1_555 1_555
C36_2 C35_2 1_555 1_555
H29_2 C36_2 1_555 1_555
H30_2 C37_2 1_555 1_555
C36_2 C37_2 1_555 1_555
C9 O5 1_555 1_555
H4 C9 1_555 1_555
C10 C9 1_555 1_555
H6 C10 1_555 1_555
H7 C10 1_555 1_555
H25 C32 1_555 1_555
H26 C32 1_555 1_555
H8 C11 1_555 1_555
H9 C11 1_555 1_555
C30 O10 1_555 1_555
H21 C30 1_555 1_555
C31 C30 1_555 1_555
H23 C31 1_555 1_555
H24 C31 1_555 1_555
H11_2 C13_2 1_555 1_555
C14_2 C13_2 1_555 1_555
C15_2 C14_2 1_555 1_555
H12_2 C15_2 1_555 1_555
H13_2 C16_2 1_555 1_555
C15_2 C16_2 1_555 1_555
C9_2 O5_2 1_555 1_555
H4_2 C9_2 1_555 1_555
H5_2 C9_2 1_555 1_555
C10_2 C9_2 1_555 1_555
H7_2 C10_2 1_555 1_555
C11_2 C10_2 1_555 1_555
H8_2 C11_2 1_555 1_555
H9_2 C11_2 1_555 1_555
C30_2 O10_2 1_555 1_555
H21_2 C30_2 1_555 1_555
H22_2 C30_2 1_555 1_555
C31_2 C30_2 1_555 1_555
H24_2 C31_2 1_555 1_555
H25_2 C32_2 1_555 1_555
H26_2 C32_2 1_555 1_555
C31_2 C32_2 1_555 1_555

#END
