
###############################################################################
#
# This file contains modified crystal structure data generated from the
# MOF subset of the Cambridge Structural Database (CSD) v543 
# hosted by the Cambridge Crystallographic Data Centre (CCDC).
#
# This work is licensed under the Creative Commons
# Attribution-NonCommercial-ShareAlike 4.0 International License.
# To view a copy of this license, visit
# http://creativecommons.org/licenses/by-nc-sa/4.0/
# or send a letter to
# Creative Commons, PO Box 1866, Mountain View, CA 94042, USA.
#
# CIF created using the CSD Python API on 29 September 2022
# The structure has been converted into the P1 space group
# The structure has a 3D framework
# The original CSD entry ATOTIM is in the orthorhombic crystal system
# The framework has been calculated to contain at least 10.0% void space
# The void calculation uses a probe of radius 1.32A, grid spacing 0.4
#
###############################################################################

data_ATOTIM
_chemical_formula_moiety         '(C96 H48 O55 V10)n'
_symmetry_cell_setting           triclinic
_symmetry_space_group_name_H-M   'P 1'
_symmetry_Int_Tables_number      1
_space_group_name_Hall           'P 1'
loop_
_symmetry_equiv_pos_site_id
_symmetry_equiv_pos_as_xyz
1 x,y,z
_cell_length_a                   21.2105(18)
_cell_length_b                   36.721(4)
_cell_length_c                   6.8606(6)
_cell_angle_alpha                90
_cell_angle_beta                 90
_cell_angle_gamma                90
_cell_volume                     5343.52
loop_
_atom_site_label
_atom_site_type_symbol
_atom_site_fract_x
_atom_site_fract_y
_atom_site_fract_z
H2 H 0.1809 0.1425 0.0378
H3 H 0.1263 0.0886 0.0402
H4 H 0.4472 0.2313 0.0393
H5 H 0.5528 0.2313 0.0393
V3 V 0.2500 0.2500 -0.0000
V7 V 0.7500 0.2500 -0.0000
V8 V -0.0000 0.0000 -0.0000
V1 V -0.0000 0.0000 0.5000
V2 V 0.2500 0.2500 0.5000
O1 O 0.33667(7) 0.23833(5) 0.5904(2)
O2 O 0.06257(9) 0.03720(4) 0.5841(2)
O3 O 0.22314(9) 0.20075(5) 0.5849(2)
O4 O -0.0000 0.01756(13) 0.2500
O5 O 0.27004(16) 0.22866(9) 0.2500
C1 C 0.43577(16) 0.23267(9) 0.7500
C2 C 0.46885(12) 0.23184(8) 0.5786(4)
H1 H 0.4472 0.2313 0.4607
C3 C 0.20721(18) 0.18816(11) 0.7500
C4 C 0.36013(17) 0.23763(9) 0.7500
C5 C 0.16879(14) 0.13181(7) 0.9208(4)
C6 C 0.18335(19) 0.14837(9) 0.7500
C7 C 0.08027(19) 0.04964(9) 0.7500
C8 C 0.12093(19) 0.08481(9) 0.7500
C9 C 0.13690(14) 0.09988(7) 0.9233(4)
O6 O 0.33667(7) 0.23833(5) 0.9096(2)
C10 C 0.53115(12) 0.23184(8) 0.5786(4)
C11 C 0.56423(16) 0.23267(9) 0.7500
C12 C 0.53115(12) 0.23184(8) 0.9214(4)
C13 C 0.46885(12) 0.23184(8) 0.9214(4)
C14 C 0.63987(17) 0.23763(9) 0.7500
O7 O 0.66333(7) 0.23833(5) 0.5904(2)
O8 O 0.66333(7) 0.23833(5) 0.9096(2)
H6 H 0.5528 0.2313 0.4607
O9 O 0.06257(9) 0.03720(4) 0.9159(2)
O10 O 0.22314(9) 0.20075(5) 0.9151(2)
C15 C 0.16879(14) 0.13181(7) 0.5792(4)
H7 H 0.1809 0.1425 0.4622
C16 C 0.13690(14) 0.09988(7) 0.5767(4)
H8 H 0.1263 0.0886 0.4598
V3_2 V 0.2500 0.2500 1.0000
O13 O 0.22996(16) 0.27134(9) 0.7500
O17 O 0.16333(7) 0.26167(5) 0.4096(2)
O18 O 0.27686(9) 0.29925(5) 0.4151(2)
V6 V 0.7500 0.2500 0.5000
V7_2 V 0.7500 0.2500 1.0000
V8_2 V -0.0000 0.0000 1.0000
V8_3 V 0.0000 1.0000 -0.0000
V1_2 V 0.0000 1.0000 0.5000
O15 O 0.06257(9) 0.96280(4) 0.4159(2)
O16 O -0.0000 0.98244(13) 0.7500
V8_4 V -0.0000 1.0000 1.0000
V8_5 V 1.0000 0.0000 -0.0000
V1_3 V 1.0000 0.0000 0.5000
O4_2 O 1.0000 0.01756(13) 0.2500
O11 O 0.93743(9) 0.03720(4) 0.5841(2)
O12 O 0.93743(9) 0.03720(4) 0.9159(2)
V8_6 V 1.0000 0.0000 1.0000
V8_7 V 1.0000 1.0000 -0.0000
V1_4 V 1.0000 1.0000 0.5000
O14 O 0.93743(9) 0.96280(4) 0.4159(2)
O16_2 O 1.0000 0.98244(13) 0.7500
V8_8 V 1.0000 1.0000 1.0000
H5_2 H 0.0528 0.7313 0.0393
V7_3 V 0.2500 0.7500 -0.0000
C10_2 C 0.03115(12) 0.73184(8) 0.5786(4)
C11_2 C 0.06423(16) 0.73267(9) 0.7500
C12_2 C 0.03115(12) 0.73184(8) 0.9214(4)
C14_2 C 0.13987(17) 0.73763(9) 0.7500
O7_2 O 0.16333(7) 0.73833(5) 0.5904(2)
O8_2 O 0.16333(7) 0.73833(5) 0.9096(2)
H6_2 H 0.0528 0.7313 0.4607
V6_2 V 0.2500 0.7500 0.5000
V7_4 V 0.2500 0.7500 1.0000
H2_2 H 0.6809 0.6425 0.0378
H3_2 H 0.6263 0.5886 0.0402
H4_2 H 0.9472 0.7313 0.0393
V3_3 V 0.7500 0.7500 -0.0000
V8_9 V 0.5000 0.5000 -0.0000
V1_5 V 0.5000 0.5000 0.5000
V2_2 V 0.7500 0.7500 0.5000
O1_2 O 0.83667(7) 0.73833(5) 0.5904(2)
O2_2 O 0.56257(9) 0.53720(4) 0.5841(2)
O3_2 O 0.72314(9) 0.70075(5) 0.5849(2)
O4_3 O 0.5000 0.51756(13) 0.2500
O5_2 O 0.77004(16) 0.72866(9) 0.2500
C1_2 C 0.93577(16) 0.73267(9) 0.7500
C2_2 C 0.96885(12) 0.73184(8) 0.5786(4)
H1_2 H 0.9472 0.7313 0.4607
C3_2 C 0.70721(18) 0.68816(11) 0.7500
C4_2 C 0.86013(17) 0.73763(9) 0.7500
C5_2 C 0.66879(14) 0.63181(7) 0.9208(4)
C6_2 C 0.68335(19) 0.64837(9) 0.7500
C7_2 C 0.58027(19) 0.54964(9) 0.7500
C8_2 C 0.62093(19) 0.58481(9) 0.7500
C9_2 C 0.63690(14) 0.59988(7) 0.9233(4)
O6_2 O 0.83667(7) 0.73833(5) 0.9096(2)
C13_2 C 0.96885(12) 0.73184(8) 0.9214(4)
O9_2 O 0.56257(9) 0.53720(4) 0.9159(2)
O10_2 O 0.72314(9) 0.70075(5) 0.9151(2)
C15_2 C 0.66879(14) 0.63181(7) 0.5792(4)
H7_2 H 0.6809 0.6425 0.4622
C16_2 C 0.63690(14) 0.59988(7) 0.5767(4)
H8_2 H 0.6263 0.5886 0.4598
O11_2 O 0.43743(9) 0.53720(4) 0.5841(2)
O12_2 O 0.43743(9) 0.53720(4) 0.9159(2)
V3_4 V 0.7500 0.7500 1.0000
O13_2 O 0.72996(16) 0.77134(9) 0.7500
O14_2 O 0.43743(9) 0.46280(4) 0.4159(2)
O15_2 O 0.56257(9) 0.46280(4) 0.4159(2)
O16_3 O 0.5000 0.48244(13) 0.7500
O17_2 O 0.66333(7) 0.76167(5) 0.4096(2)
O18_2 O 0.77686(9) 0.79925(5) 0.4151(2)
V8_10 V 0.5000 0.5000 1.0000
O17_3 O 0.16333(7) 0.26167(5) 0.0904(2)
O18_3 O 0.27686(9) 0.29925(5) 0.0849(2)
O15_3 O 0.06257(9) 0.96280(4) 0.0841(2)
O14_3 O 0.93743(9) 0.96280(4) 0.0841(2)
O1_3 O 0.33667(7) 0.76167(5) 0.0904(2)
O3_3 O 0.22314(9) 0.79925(5) 0.0849(2)
C1_3 C 0.43577(16) 0.76733(9) 0.2500
C2_3 C 0.46885(12) 0.76816(8) 0.0786(4)
C3_3 C 0.20721(18) 0.81184(11) 0.2500
C4_3 C 0.36013(17) 0.76237(9) 0.2500
C5_3 C 0.16879(14) 0.86819(7) 0.4208(4)
H2_3 H 0.1809 0.8575 0.5378
C6_3 C 0.18335(19) 0.85163(9) 0.2500
C7_3 C 0.08027(19) 0.95036(9) 0.2500
C8_3 C 0.12093(19) 0.91519(9) 0.2500
C9_3 C 0.13690(14) 0.90012(7) 0.4233(4)
H3_3 H 0.1263 0.9114 0.5402
O6_3 O 0.33667(7) 0.76167(5) 0.4096(2)
C10_3 C 0.53115(12) 0.76816(8) 0.0786(4)
C11_3 C 0.56423(16) 0.76733(9) 0.2500
C12_3 C 0.53115(12) 0.76816(8) 0.4214(4)
C13_3 C 0.46885(12) 0.76816(8) 0.4214(4)
H4_3 H 0.4472 0.7687 0.5393
H5_3 H 0.5528 0.7687 0.5393
C14_3 C 0.63987(17) 0.76237(9) 0.2500
O7_3 O 0.66333(7) 0.76167(5) 0.0904(2)
O10_3 O 0.22314(9) 0.79925(5) 0.4151(2)
C15_3 C 0.16879(14) 0.86819(7) 0.0792(4)
C16_3 C 0.13690(14) 0.90012(7) 0.0767(4)
O13_3 O 0.22996(16) 0.72866(9) 0.2500
O5_3 O 0.27004(16) 0.77134(9) 0.7500
H1_3 H 0.4472 0.7687 0.9607
H6_3 H 0.5528 0.7687 0.9607
H7_3 H 0.1809 0.8575 0.9622
H8_3 H 0.1263 0.9114 0.9598
O18_4 O 0.27686(9) 0.70075(5) 0.9151(2)
H2_4 H 0.8191 0.1425 0.0378
H3_4 H 0.8737 0.0886 0.0402
O3_4 O 0.77686(9) 0.20075(5) 0.5849(2)
O5_4 O 0.72996(16) 0.22866(9) 0.2500
C3_4 C 0.79279(18) 0.18816(11) 0.7500
C5_4 C 0.83121(14) 0.13181(7) 0.9208(4)
C6_4 C 0.81665(19) 0.14837(9) 0.7500
C7_4 C 0.91973(19) 0.04964(9) 0.7500
C8_4 C 0.87907(19) 0.08481(9) 0.7500
C9_4 C 0.86310(14) 0.09988(7) 0.9233(4)
O10_4 O 0.77686(9) 0.20075(5) 0.9151(2)
C15_4 C 0.83121(14) 0.13181(7) 0.5792(4)
H7_4 H 0.8191 0.1425 0.4622
C16_4 C 0.86310(14) 0.09988(7) 0.5767(4)
H8_4 H 0.8737 0.0886 0.4598
O13_4 O 0.77004(16) 0.27134(9) 0.7500
O17_4 O 0.83667(7) 0.26167(5) 0.4096(2)
O18_5 O 0.72314(9) 0.29925(5) 0.4151(2)
O14_4 O 0.43743(9) 0.46280(4) 0.0841(2)
O15_4 O 0.56257(9) 0.46280(4) 0.0841(2)
O18_6 O 0.77686(9) 0.79925(5) 0.0849(2)
C10_4 C 0.03115(12) 0.26816(8) 0.0786(4)
C11_4 C 0.06423(16) 0.26733(9) 0.2500
C12_4 C 0.03115(12) 0.26816(8) 0.4214(4)
H5_4 H 0.0528 0.2687 0.5393
C14_4 C 0.13987(17) 0.26237(9) 0.2500
H6_4 H 0.0528 0.2687 0.9607
O1_4 O 0.83667(7) 0.26167(5) 0.0904(2)
O3_5 O 0.72314(9) 0.29925(5) 0.0849(2)
C1_4 C 0.93577(16) 0.26733(9) 0.2500
C2_4 C 0.96885(12) 0.26816(8) 0.0786(4)
C3_5 C 0.70721(18) 0.31184(11) 0.2500
C4_4 C 0.86013(17) 0.26237(9) 0.2500
C5_5 C 0.66879(14) 0.36819(7) 0.4208(4)
H2_5 H 0.6809 0.3575 0.5378
C6_5 C 0.68335(19) 0.35163(9) 0.2500
C7_5 C 0.58027(19) 0.45036(9) 0.2500
C8_5 C 0.62093(19) 0.41519(9) 0.2500
C9_5 C 0.63690(14) 0.40012(7) 0.4233(4)
H3_5 H 0.6263 0.4114 0.5402
C13_4 C 0.96885(12) 0.26816(8) 0.4214(4)
H4_4 H 0.9472 0.2687 0.5393
C15_5 C 0.66879(14) 0.36819(7) 0.0792(4)
C16_5 C 0.63690(14) 0.40012(7) 0.0767(4)
H1_4 H 0.9472 0.2687 0.9607
H7_5 H 0.6809 0.3575 0.9622
H8_5 H 0.6263 0.4114 0.9598
H2_6 H 0.3191 0.6425 0.0378
H3_6 H 0.3737 0.5886 0.0402
O3_6 O 0.27686(9) 0.70075(5) 0.5849(2)
C3_6 C 0.29279(18) 0.68816(11) 0.7500
C5_6 C 0.33121(14) 0.63181(7) 0.9208(4)
C6_6 C 0.31665(19) 0.64837(9) 0.7500
C7_6 C 0.41973(19) 0.54964(9) 0.7500
C8_6 C 0.37907(19) 0.58481(9) 0.7500
C9_6 C 0.36310(14) 0.59988(7) 0.9233(4)
C15_6 C 0.33121(14) 0.63181(7) 0.5792(4)
H7_6 H 0.3191 0.6425 0.4622
C16_6 C 0.36310(14) 0.59988(7) 0.5767(4)
H8_6 H 0.3737 0.5886 0.4598
C3_7 C 0.79279(18) 0.81184(11) 0.2500
C5_7 C 0.83121(14) 0.86819(7) 0.0792(4)
C6_7 C 0.81665(19) 0.85163(9) 0.2500
C7_7 C 0.91973(19) 0.95036(9) 0.2500
C8_7 C 0.87907(19) 0.91519(9) 0.2500
C9_7 C 0.86310(14) 0.90012(7) 0.0767(4)
C15_7 C 0.83121(14) 0.86819(7) 0.4208(4)
H7_7 H 0.8191 0.8575 0.5378
C16_7 C 0.86310(14) 0.90012(7) 0.4233(4)
H8_7 H 0.8737 0.9114 0.5402
H2_7 H 0.8191 0.8575 0.9622
H3_7 H 0.8737 0.9114 0.9598
C3_8 C 0.29279(18) 0.31184(11) 0.2500
C5_8 C 0.33121(14) 0.36819(7) 0.0792(4)
C6_8 C 0.31665(19) 0.35163(9) 0.2500
C7_8 C 0.41973(19) 0.45036(9) 0.2500
C8_8 C 0.37907(19) 0.41519(9) 0.2500
C9_8 C 0.36310(14) 0.40012(7) 0.0767(4)
C15_8 C 0.33121(14) 0.36819(7) 0.4208(4)
H7_8 H 0.3191 0.3575 0.5378
C16_8 C 0.36310(14) 0.40012(7) 0.4233(4)
H8_8 H 0.3737 0.4114 0.5402
H2_8 H 0.3191 0.3575 0.9622
H3_8 H 0.3737 0.4114 0.9598
loop_
_geom_bond_atom_site_label_1
_geom_bond_atom_site_label_2
_geom_bond_site_symmetry_1
_geom_bond_site_symmetry_2
V1 O2 1_555 1_555
V2 O1 1_555 1_555
O1 C4 1_555 1_555
O2 C7 1_555 1_555
O3 V2 1_555 1_555
O4 V1 1_555 1_555
O5 V2 1_555 1_555
C1 C2 1_555 1_555
C2 H1 1_555 1_555
C3 O3 1_555 1_555
C4 C1 1_555 1_555
C6 C3 1_555 1_555
C7 C8 1_555 1_555
C8 C9 1_555 1_555
C9 C5 1_555 1_555
O6 C4 1_555 1_555
C10 C2 1_555 1_555
C11 C10 1_555 1_555
C12 C11 1_555 1_555
C13 C1 1_555 1_555
C14 C11 1_555 1_555
O7 C14 1_555 1_555
O8 C14 1_555 1_555
H6 C10 1_555 1_555
O9 C7 1_555 1_555
O10 C3 1_555 1_555
C15 C6 1_555 1_555
H7 C15 1_555 1_555
C16 C8 1_555 1_555
H8 C16 1_555 1_555
V3_2 O6 1_555 1_555
O13 V2 1_555 1_555
O17 V2 1_555 1_555
O18 V2 1_555 1_555
V8 O4 1_555 1_555
V3 O5 1_555 1_555
V6 O7 1_555 1_555
V7_2 O8 1_555 1_555
V8_2 O9 1_555 1_555
C5 C6 1_555 1_555
C12 C13 1_555 1_555
O10 V3_2 1_555 1_555
C15 C16 1_555 1_555
V3_2 O13 1_555 1_555
O15 V1_2 1_555 1_555
O16 V1_2 1_555 1_555
O16 V8_4 1_555 1_555
O4_2 V1_3 1_555 1_555
O11 V1_3 1_555 1_555
O12 V8_6 1_555 1_555
V8_5 O4_2 1_555 1_555
O14 V1_4 1_555 1_555
O16_2 V1_4 1_555 1_555
O16_2 V8_8 1_555 1_555
C11_2 C10_2 1_555 1_555
C12_2 C11_2 1_555 1_555
C14_2 C11_2 1_555 1_555
O7_2 C14_2 1_555 1_555
O8_2 C14_2 1_555 1_555
H6_2 C10_2 1_555 1_555
V6_2 O7_2 1_555 1_555
V7_4 O8_2 1_555 1_555
V1_5 O2_2 1_555 1_555
V2_2 O1_2 1_555 1_555
O1_2 C4_2 1_555 1_555
O2_2 C7_2 1_555 1_555
O3_2 V2_2 1_555 1_555
O4_3 V1_5 1_555 1_555
O5_2 V2_2 1_555 1_555
C1_2 C2_2 1_555 1_555
C2_2 H1_2 1_555 1_555
C3_2 O3_2 1_555 1_555
C4_2 C1_2 1_555 1_555
C6_2 C3_2 1_555 1_555
C7_2 C8_2 1_555 1_555
C8_2 C9_2 1_555 1_555
C9_2 C5_2 1_555 1_555
O6_2 C4_2 1_555 1_555
C13_2 C1_2 1_555 1_555
O9_2 C7_2 1_555 1_555
O10_2 C3_2 1_555 1_555
C15_2 C6_2 1_555 1_555
H7_2 C15_2 1_555 1_555
C16_2 C8_2 1_555 1_555
H8_2 C16_2 1_555 1_555
O11_2 V1_5 1_555 1_555
O12_2 V8_10 1_555 1_555
V3_4 O6_2 1_555 1_555
O13_2 V2_2 1_555 1_555
O14_2 V1_5 1_555 1_555
O15_2 V1_5 1_555 1_555
O16_3 V1_5 1_555 1_555
O17_2 V2_2 1_555 1_555
O18_2 V2_2 1_555 1_555
V8_9 O4_3 1_555 1_555
V3_3 O5_2 1_555 1_555
V8_10 O9_2 1_555 1_555
C5_2 C6_2 1_555 1_555
O10_2 V3_4 1_555 1_555
C15_2 C16_2 1_555 1_555
V3_4 O13_2 1_555 1_555
O16_3 V8_10 1_555 1_555
O17_3 V3 1_555 1_555
O18_3 V3 1_555 1_555
O15_3 V8_3 1_555 1_555
O14_3 V8_7 1_555 1_555
V7_3 O1_3 1_555 1_555
O1_3 C4_3 1_555 1_555
O15_3 C7_3 1_555 1_555
O3_3 V7_3 1_555 1_555
C1_3 C2_3 1_555 1_555
C3_3 O3_3 1_555 1_555
C4_3 C1_3 1_555 1_555
C5_3 H2_3 1_555 1_555
C6_3 C3_3 1_555 1_555
C7_3 C8_3 1_555 1_555
C8_3 C9_3 1_555 1_555
C9_3 C5_3 1_555 1_555
H3_3 C9_3 1_555 1_555
O6_3 C4_3 1_555 1_555
C10_3 C2_3 1_555 1_555
C11_3 C10_3 1_555 1_555
C12_3 C11_3 1_555 1_555
C13_3 C1_3 1_555 1_555
H4_3 C13_3 1_555 1_555
H5_3 C12_3 1_555 1_555
C14_3 C11_3 1_555 1_555
O7_3 C14_3 1_555 1_555
O17_2 C14_3 1_555 1_555
O15 C7_3 1_555 1_555
O10_3 C3_3 1_555 1_555
C15_3 C6_3 1_555 1_555
C16_3 C8_3 1_555 1_555
V6_2 O6_3 1_555 1_555
O13_3 V7_3 1_555 1_555
V3_3 O7_3 1_555 1_555
C5_3 C6_3 1_555 1_555
C12_3 C13_3 1_555 1_555
O10_3 V6_2 1_555 1_555
C15_3 C16_3 1_555 1_555
V6_2 O13_3 1_555 1_555
O5_3 V7_4 1_555 1_555
O18_4 V7_4 1_555 1_555
V6_2 O5_3 1_555 1_555
O11 C7_4 1_555 1_555
O3_4 V6 1_555 1_555
O5_4 V6 1_555 1_555
C3_4 O3_4 1_555 1_555
C6_4 C3_4 1_555 1_555
C7_4 C8_4 1_555 1_555
C8_4 C9_4 1_555 1_555
C9_4 C5_4 1_555 1_555
O12 C7_4 1_555 1_555
O10_4 C3_4 1_555 1_555
C15_4 C6_4 1_555 1_555
H7_4 C15_4 1_555 1_555
C16_4 C8_4 1_555 1_555
H8_4 C16_4 1_555 1_555
O13_4 V6 1_555 1_555
O17_4 V6 1_555 1_555
O18_5 V6 1_555 1_555
V7 O5_4 1_555 1_555
C5_4 C6_4 1_555 1_555
O10_4 V7_2 1_555 1_555
C15_4 C16_4 1_555 1_555
V7_2 O13_4 1_555 1_555
O14_4 V8_9 1_555 1_555
O15_4 V8_9 1_555 1_555
O18_6 V3_3 1_555 1_555
C11_4 C10_4 1_555 1_555
C12_4 C11_4 1_555 1_555
H5_4 C12_4 1_555 1_555
C14_4 C11_4 1_555 1_555
O17_3 C14_4 1_555 1_555
O17 C14_4 1_555 1_555
V7 O1_4 1_555 1_555
O1_4 C4_4 1_555 1_555
O15_4 C7_5 1_555 1_555
O3_5 V7 1_555 1_555
C1_4 C2_4 1_555 1_555
C3_5 O3_5 1_555 1_555
C4_4 C1_4 1_555 1_555
C5_5 H2_5 1_555 1_555
C6_5 C3_5 1_555 1_555
C7_5 C8_5 1_555 1_555
C8_5 C9_5 1_555 1_555
C9_5 C5_5 1_555 1_555
H3_5 C9_5 1_555 1_555
O17_4 C4_4 1_555 1_555
C13_4 C1_4 1_555 1_555
H4_4 C13_4 1_555 1_555
O15_2 C7_5 1_555 1_555
O18_5 C3_5 1_555 1_555
C15_5 C6_5 1_555 1_555
C16_5 C8_5 1_555 1_555
C5_5 C6_5 1_555 1_555
C15_5 C16_5 1_555 1_555
O11_2 C7_6 1_555 1_555
O3_6 V6_2 1_555 1_555
C3_6 O3_6 1_555 1_555
C6_6 C3_6 1_555 1_555
C7_6 C8_6 1_555 1_555
C8_6 C9_6 1_555 1_555
C9_6 C5_6 1_555 1_555
O12_2 C7_6 1_555 1_555
O18_4 C3_6 1_555 1_555
C15_6 C6_6 1_555 1_555
H7_6 C15_6 1_555 1_555
C16_6 C8_6 1_555 1_555
H8_6 C16_6 1_555 1_555
C5_6 C6_6 1_555 1_555
C15_6 C16_6 1_555 1_555
O14 C7_7 1_555 1_555
C3_7 O18_2 1_555 1_555
C6_7 C3_7 1_555 1_555
C7_7 C8_7 1_555 1_555
C8_7 C9_7 1_555 1_555
C9_7 C5_7 1_555 1_555
O14_3 C7_7 1_555 1_555
O18_6 C3_7 1_555 1_555
C15_7 C6_7 1_555 1_555
H7_7 C15_7 1_555 1_555
C16_7 C8_7 1_555 1_555
H8_7 C16_7 1_555 1_555
C5_7 C6_7 1_555 1_555
C15_7 C16_7 1_555 1_555
O14_2 C7_8 1_555 1_555
C3_8 O18 1_555 1_555
C6_8 C3_8 1_555 1_555
C7_8 C8_8 1_555 1_555
C8_8 C9_8 1_555 1_555
C9_8 C5_8 1_555 1_555
O14_4 C7_8 1_555 1_555
O18_3 C3_8 1_555 1_555
C15_8 C6_8 1_555 1_555
H7_8 C15_8 1_555 1_555
C16_8 C8_8 1_555 1_555
H8_8 C16_8 1_555 1_555
C5_8 C6_8 1_555 1_555
C15_8 C16_8 1_555 1_555

#END
