
###############################################################################
#
# This file contains modified crystal structure data generated from the
# MOF subset of the Cambridge Structural Database (CSD) v543 
# hosted by the Cambridge Crystallographic Data Centre (CCDC).
#
# This work is licensed under the Creative Commons
# Attribution-NonCommercial-ShareAlike 4.0 International License.
# To view a copy of this license, visit
# http://creativecommons.org/licenses/by-nc-sa/4.0/
# or send a letter to
# Creative Commons, PO Box 1866, Mountain View, CA 94042, USA.
#
# CIF created using the CSD Python API on 29 September 2022
# The structure has been converted into the P1 space group
# The structure has a 3D framework
# The original CSD entry ATOWOW is in the monoclinic crystal system
# The framework has been calculated to contain at least 10.0% void space
# The void calculation uses a probe of radius 1.32A, grid spacing 0.4
#
###############################################################################

data_ATOWOW
_chemical_formula_moiety         '(C80 H64 N14 O32 Zn8)n'
_symmetry_cell_setting           triclinic
_symmetry_space_group_name_H-M   'P 1'
_symmetry_Int_Tables_number      1
_space_group_name_Hall           'P 1'
loop_
_symmetry_equiv_pos_site_id
_symmetry_equiv_pos_as_xyz
1 x,y,z
_cell_length_a                   20.915(7)
_cell_length_b                   18.796(6)
_cell_length_c                   14.350(9)
_cell_angle_alpha                90
_cell_angle_beta                 130.717(4)
_cell_angle_gamma                90
_cell_volume                     4275.73
loop_
_atom_site_label
_atom_site_type_symbol
_atom_site_fract_x
_atom_site_fract_y
_atom_site_fract_z
Zn4 Zn 0.0000 0.09951(5) 0.5000
Zn6 Zn 0.0000 0.90049(5) 0.5000
C1 C 0.6111(4) 0.4019(3) 0.1257(6)
C2 C 0.6730(5) 0.3424(4) 0.1987(7)
C3 C 0.7255(7) 0.3221(5) 0.1780(9)
H1 H 0.7209 0.3439 0.1157
C4 C 0.7865(7) 0.2687(5) 0.2496(9)
H2 H 0.8250 0.2583 0.2392
C5 C 0.7891(5) 0.2325(4) 0.3334(7)
C6 C 0.7346(6) 0.2525(5) 0.3525(9)
H3 H 0.7357 0.2281 0.4099
C7 C 0.6779(6) 0.3087(5) 0.2862(9)
H4 H 0.6435 0.3230 0.3025
C8 C 0.8540(6) 0.1746(4) 0.4101(8)
O1 O 0.6027(3) 0.4241(3) 0.0350(4)
O2 O 0.5731(3) 0.4243(3) 0.1580(5)
O3 O 0.9071(4) 0.1650(3) 0.4015(5)
O4 O 0.8472(6) 0.1362(4) 0.4746(8)
H8 H 0.8281 0.1033 0.4928
Zn3 Zn 0.48025(6) 0.5000 0.08429(8)
Zn4_2 Zn 1.0000 0.09951(5) 0.5000
Zn6_2 Zn 1.0000 0.90049(5) 0.5000
C11 C 0.6111(4) 0.5981(3) 0.1257(6)
C12 C 0.6730(5) 0.6576(4) 0.1987(7)
C13 C 0.7255(7) 0.6779(5) 0.1780(9)
H9 H 0.7209 0.6561 0.1157
C14 C 0.7865(7) 0.7313(5) 0.2496(9)
H10 H 0.8250 0.7417 0.2392
C15 C 0.7891(5) 0.7675(4) 0.3334(7)
C16 C 0.7346(6) 0.7475(5) 0.3525(9)
H11 H 0.7357 0.7719 0.4099
C17 C 0.6779(6) 0.6913(5) 0.2862(9)
H12 H 0.6435 0.6770 0.3025
C18 C 0.8540(6) 0.8254(4) 0.4101(8)
O5 O 0.6027(3) 0.5759(3) 0.0350(4)
O6 O 0.5731(3) 0.5757(3) 0.1580(5)
O9 O 0.9071(4) 0.8350(3) 0.4015(5)
O12 O 0.8472(6) 0.8638(4) 0.4746(8)
H16 H 0.8281 0.8967 0.4928
Zn1 Zn 0.51975(6) 0.5000 0.91571(8)
Zn2 Zn 0.5000 0.40049(5) 0.5000
C9 C 0.5252(4) 0.4437(3) 0.7228(5)
C10 C 0.5322(6) 0.3687(3) 0.7613(7)
H5 H 0.5849 0.3491 0.7905
H6 H 0.4865 0.3414 0.6925
H7 H 0.5299 0.3672 0.8259
N1 N 0.5302(5) 0.5000 0.7842(6)
N2 N 0.5143(3) 0.4629(2) 0.6253(4)
Zn5 Zn 0.5000 0.59951(5) 0.5000
C19 C 0.5252(4) 0.5563(3) 0.7228(5)
C20 C 0.5322(6) 0.6313(3) 0.7613(7)
H13 H 0.5849 0.6509 0.7905
H14 H 0.4865 0.6586 0.6925
H15 H 0.5299 0.6328 0.8259
N3 N 0.5143(3) 0.5371(2) 0.6253(4)
N4 N 0.4857(3) 0.4629(2) 0.3747(4)
O7 O 0.4269(3) 0.4243(3) 0.8420(5)
O8 O 0.4269(3) 0.5757(3) 0.8420(5)
O10 O 0.5929(4) 0.3350(3) 0.5985(5)
O11 O 0.4071(4) 0.3350(3) 0.4015(5)
C9_2 C 0.4748(4) 0.4437(3) 0.2772(5)
C10_2 C 0.4678(6) 0.3687(3) 0.2387(7)
H5_2 H 0.4151 0.3491 0.2095
H6_2 H 0.5135 0.3414 0.3075
H7_2 H 0.4701 0.3672 0.1741
N1_2 N 0.4698(5) 0.5000 0.2158(6)
C19_2 C 0.4748(4) 0.5563(3) 0.2772(5)
C20_2 C 0.4678(6) 0.6313(3) 0.2387(7)
H13_2 H 0.4151 0.6509 0.2095
H14_2 H 0.5135 0.6586 0.3075
H15_2 H 0.4701 0.6328 0.1741
N3_2 N 0.4857(3) 0.5371(2) 0.3747(4)
C1_2 C 0.3889(4) 0.4019(3) 0.8743(6)
C2_2 C 0.3270(5) 0.3424(4) 0.8013(7)
C3_2 C 0.2745(7) 0.3221(5) 0.8220(9)
H1_2 H 0.2791 0.3439 0.8843
C4_2 C 0.2135(7) 0.2687(5) 0.7504(9)
H2_2 H 0.1750 0.2583 0.7608
C5_2 C 0.2109(5) 0.2325(4) 0.6666(7)
C6_2 C 0.2654(6) 0.2525(5) 0.6475(9)
H3_2 H 0.2643 0.2281 0.5901
C7_2 C 0.3221(6) 0.3087(5) 0.7138(9)
H4_2 H 0.3565 0.3230 0.6975
C8_2 C 0.1460(6) 0.1746(4) 0.5899(8)
O1_2 O 0.3973(3) 0.4241(3) 0.9650(4)
O3_2 O 0.0929(4) 0.1650(3) 0.5985(5)
O4_2 O 0.1528(6) 0.1362(4) 0.5254(8)
H8_2 H 0.1719 0.1033 0.5072
C11_2 C 0.3889(4) 0.5981(3) 0.8743(6)
C12_2 C 0.3270(5) 0.6576(4) 0.8013(7)
C13_2 C 0.2745(7) 0.6779(5) 0.8220(9)
H9_2 H 0.2791 0.6561 0.8843
C14_2 C 0.2135(7) 0.7313(5) 0.7504(9)
H10_2 H 0.1750 0.7417 0.7608
C15_2 C 0.2109(5) 0.7675(4) 0.6666(7)
C16_2 C 0.2654(6) 0.7475(5) 0.6475(9)
H11_2 H 0.2643 0.7719 0.5901
C17_2 C 0.3221(6) 0.6913(5) 0.7138(9)
H12_2 H 0.3565 0.6770 0.6975
C18_2 C 0.1460(6) 0.8254(4) 0.5899(8)
O5_2 O 0.3973(3) 0.5759(3) 0.9650(4)
O9_2 O 0.0929(4) 0.8350(3) 0.5985(5)
O12_2 O 0.1528(6) 0.8638(4) 0.5254(8)
H16_2 H 0.1719 0.8967 0.5072
C11_3 C 0.1111(4) 0.0981(3) 0.1257(6)
C12_3 C 0.1730(5) 0.1576(4) 0.1987(7)
C13_3 C 0.2255(7) 0.1779(5) 0.1780(9)
H9_3 H 0.2209 0.1561 0.1157
C14_3 C 0.2865(7) 0.2313(5) 0.2496(9)
H10_3 H 0.3250 0.2417 0.2392
C15_3 C 0.2891(5) 0.2675(4) 0.3334(7)
C16_3 C 0.2346(6) 0.2475(5) 0.3525(9)
H11_3 H 0.2357 0.2719 0.4099
C17_3 C 0.1779(6) 0.1913(5) 0.2862(9)
H12_3 H 0.1435 0.1770 0.3025
C18_3 C 0.3540(6) 0.3254(4) 0.4101(8)
O5_3 O 0.1027(3) 0.0759(3) 0.0350(4)
O6_2 O 0.0731(3) 0.0757(3) 0.1580(5)
O12_3 O 0.3472(6) 0.3638(4) 0.4746(8)
H16_3 H 0.3281 0.3967 0.4928
Zn1_2 Zn 0.01975(6) -0.0000 0.91571(8)
N1_3 N 0.0302(5) -0.0000 0.7842(6)
C19_3 C 0.0252(4) 0.0563(3) 0.7228(5)
C20_3 C 0.0322(6) 0.1313(3) 0.7613(7)
H13_3 H 0.0849 0.1509 0.7905
H15_3 H 0.0299 0.1328 0.8259
N3_3 N 0.0143(3) 0.0371(2) 0.6253(4)
C1_3 C 0.1111(4) 0.9019(3) 0.1257(6)
C2_3 C 0.1730(5) 0.8424(4) 0.1987(7)
C3_3 C 0.2255(7) 0.8221(5) 0.1780(9)
H1_3 H 0.2209 0.8439 0.1157
C4_3 C 0.2865(7) 0.7687(5) 0.2496(9)
H2_3 H 0.3250 0.7583 0.2392
C5_3 C 0.2891(5) 0.7325(4) 0.3334(7)
C6_3 C 0.2346(6) 0.7525(5) 0.3525(9)
H3_3 H 0.2357 0.7281 0.4099
C7_3 C 0.1779(6) 0.8087(5) 0.2862(9)
H4_3 H 0.1435 0.8230 0.3025
C8_3 C 0.3540(6) 0.6746(4) 0.4101(8)
O1_3 O 0.1027(3) 0.9241(3) 0.0350(4)
O2_2 O 0.0731(3) 0.9243(3) 0.1580(5)
O3_3 O 0.4071(4) 0.6650(3) 0.4015(5)
O4_3 O 0.3472(6) 0.6362(4) 0.4746(8)
H8_3 H 0.3281 0.6033 0.4928
Zn1_3 Zn 0.01975(6) 1.0000 0.91571(8)
C9_3 C 0.0252(4) 0.9437(3) 0.7228(5)
C10_3 C 0.0322(6) 0.8687(3) 0.7613(7)
H5_3 H 0.0849 0.8491 0.7905
H7_3 H 0.0299 0.8672 0.8259
N1_4 N 0.0302(5) 1.0000 0.7842(6)
N2_2 N 0.0143(3) 0.9629(2) 0.6253(4)
Zn3_2 Zn 0.98025(6) -0.0000 0.08429(8)
H14_3 H 0.9865 0.1586 0.6925
O8_2 O 0.9269(3) 0.0757(3) 0.8420(5)
Zn3_3 Zn 0.98025(6) 1.0000 0.08429(8)
H6_3 H 0.9865 0.8414 0.6925
N4_2 N 0.9857(3) 0.9629(2) 0.3747(4)
O7_2 O 0.9269(3) 0.9243(3) 0.8420(5)
H14_4 H 0.0135 0.1586 0.3075
H6_4 H 0.0135 0.8414 0.3075
N1_5 N 0.9698(5) 0.0000 0.2158(6)
C19_4 C 0.9748(4) 0.0563(3) 0.2772(5)
C20_4 C 0.9678(6) 0.1313(3) 0.2387(7)
H13_4 H 0.9151 0.1509 0.2095
H15_4 H 0.9701 0.1328 0.1741
N3_4 N 0.9857(3) 0.0371(2) 0.3747(4)
C11_4 C 0.8889(4) 0.0981(3) 0.8743(6)
C12_4 C 0.8270(5) 0.1576(4) 0.8013(7)
C13_4 C 0.7745(7) 0.1779(5) 0.8220(9)
H9_4 H 0.7791 0.1561 0.8843
C14_4 C 0.7135(7) 0.2313(5) 0.7504(9)
H10_4 H 0.6750 0.2417 0.7608
C15_4 C 0.7109(5) 0.2675(4) 0.6666(7)
C16_4 C 0.7654(6) 0.2475(5) 0.6475(9)
H11_4 H 0.7643 0.2719 0.5901
C17_4 C 0.8221(6) 0.1913(5) 0.7138(9)
H12_4 H 0.8565 0.1770 0.6975
C18_4 C 0.6460(6) 0.3254(4) 0.5899(8)
O5_4 O 0.8973(3) 0.0759(3) 0.9650(4)
O12_4 O 0.6528(6) 0.3638(4) 0.5254(8)
H16_4 H 0.6719 0.3967 0.5072
C9_4 C 0.9748(4) 0.9437(3) 0.2772(5)
C10_4 C 0.9678(6) 0.8687(3) 0.2387(7)
H5_4 H 0.9151 0.8491 0.2095
H7_4 H 0.9701 0.8672 0.1741
N1_6 N 0.9698(5) 1.0000 0.2158(6)
C1_4 C 0.8889(4) 0.9019(3) 0.8743(6)
C2_4 C 0.8270(5) 0.8424(4) 0.8013(7)
C3_4 C 0.7745(7) 0.8221(5) 0.8220(9)
H1_4 H 0.7791 0.8439 0.8843
C4_4 C 0.7135(7) 0.7687(5) 0.7504(9)
H2_4 H 0.6750 0.7583 0.7608
C5_4 C 0.7109(5) 0.7325(4) 0.6666(7)
C6_4 C 0.7654(6) 0.7525(5) 0.6475(9)
H3_4 H 0.7643 0.7281 0.5901
C7_4 C 0.8221(6) 0.8087(5) 0.7138(9)
H4_4 H 0.8565 0.8230 0.6975
C8_4 C 0.6460(6) 0.6746(4) 0.5899(8)
O1_4 O 0.8973(3) 0.9241(3) 0.9650(4)
O3_4 O 0.5929(4) 0.6650(3) 0.5985(5)
O4_4 O 0.6528(6) 0.6362(4) 0.5254(8)
H8_4 H 0.6719 0.6033 0.5072
loop_
_geom_bond_atom_site_label_1
_geom_bond_atom_site_label_2
_geom_bond_site_symmetry_1
_geom_bond_site_symmetry_2
C1 C2 1_555 1_555
C2 C3 1_555 1_555
C3 H1 1_555 1_555
C4 C3 1_555 1_555
H2 C4 1_555 1_555
C5 C4 1_555 1_555
C6 C5 1_555 1_555
H3 C6 1_555 1_555
C7 C2 1_555 1_555
H4 C7 1_555 1_555
C8 C5 1_555 1_555
O2 C1 1_555 1_555
O3 C8 1_555 1_555
O4 C8 1_555 1_555
H8 O4 1_555 1_555
Zn3 O2 1_555 1_555
Zn4_2 O3 1_555 1_555
Zn6_2 O9 1_555 1_555
C11 C12 1_555 1_555
C12 C13 1_555 1_555
C13 H9 1_555 1_555
C14 C13 1_555 1_555
H10 C14 1_555 1_555
C15 C14 1_555 1_555
C16 C15 1_555 1_555
H11 C16 1_555 1_555
C17 C12 1_555 1_555
H12 C17 1_555 1_555
C18 C15 1_555 1_555
O6 Zn3 1_555 1_555
O9 C18 1_555 1_555
O12 C18 1_555 1_555
H16 O12 1_555 1_555
C1 O1 1_555 1_555
C6 C7 1_555 1_555
C11 O5 1_555 1_555
C11 O6 1_555 1_555
C16 C17 1_555 1_555
Zn1 N1 1_555 1_555
Zn2 N2 1_555 1_555
C9 C10 1_555 1_555
C10 H5 1_555 1_555
H6 C10 1_555 1_555
H7 C10 1_555 1_555
N1 C9 1_555 1_555
N2 C9 1_555 1_555
Zn5 N3 1_555 1_555
C19 N1 1_555 1_555
C20 C19 1_555 1_555
H13 C20 1_555 1_555
H14 C20 1_555 1_555
H15 C20 1_555 1_555
N3 N2 1_555 1_555
N4 Zn2 1_555 1_555
O7 Zn1 1_555 1_555
O8 Zn1 1_555 1_555
O10 Zn2 1_555 1_555
O11 Zn2 1_555 1_555
C19 N3 1_555 1_555
Zn3 N1_2 1_555 1_555
C9_2 C10_2 1_555 1_555
C10_2 H5_2 1_555 1_555
H6_2 C10_2 1_555 1_555
H7_2 C10_2 1_555 1_555
N1_2 C9_2 1_555 1_555
N4 C9_2 1_555 1_555
Zn5 N3_2 1_555 1_555
C19_2 N1_2 1_555 1_555
C20_2 C19_2 1_555 1_555
H13_2 C20_2 1_555 1_555
H14_2 C20_2 1_555 1_555
H15_2 C20_2 1_555 1_555
N3_2 N4 1_555 1_555
C19_2 N3_2 1_555 1_555
C1_2 C2_2 1_555 1_555
C2_2 C3_2 1_555 1_555
C3_2 H1_2 1_555 1_555
C4_2 C3_2 1_555 1_555
H2_2 C4_2 1_555 1_555
C5_2 C4_2 1_555 1_555
C6_2 C5_2 1_555 1_555
H3_2 C6_2 1_555 1_555
C7_2 C2_2 1_555 1_555
H4_2 C7_2 1_555 1_555
C8_2 C5_2 1_555 1_555
O7 C1_2 1_555 1_555
O3_2 C8_2 1_555 1_555
O4_2 C8_2 1_555 1_555
H8_2 O4_2 1_555 1_555
Zn4 O3_2 1_555 1_555
Zn6 O9_2 1_555 1_555
C11_2 C12_2 1_555 1_555
C12_2 C13_2 1_555 1_555
C13_2 H9_2 1_555 1_555
C14_2 C13_2 1_555 1_555
H10_2 C14_2 1_555 1_555
C15_2 C14_2 1_555 1_555
C16_2 C15_2 1_555 1_555
H11_2 C16_2 1_555 1_555
C17_2 C12_2 1_555 1_555
H12_2 C17_2 1_555 1_555
C18_2 C15_2 1_555 1_555
O9_2 C18_2 1_555 1_555
O12_2 C18_2 1_555 1_555
H16_2 O12_2 1_555 1_555
C1_2 O1_2 1_555 1_555
C6_2 C7_2 1_555 1_555
C11_2 O5_2 1_555 1_555
C11_2 O8 1_555 1_555
C16_2 C17_2 1_555 1_555
C11_3 C12_3 1_555 1_555
C12_3 C13_3 1_555 1_555
C13_3 H9_3 1_555 1_555
C14_3 C13_3 1_555 1_555
H10_3 C14_3 1_555 1_555
C15_3 C14_3 1_555 1_555
C16_3 C15_3 1_555 1_555
H11_3 C16_3 1_555 1_555
C17_3 C12_3 1_555 1_555
H12_3 C17_3 1_555 1_555
C18_3 C15_3 1_555 1_555
O11 C18_3 1_555 1_555
O12_3 C18_3 1_555 1_555
H16_3 O12_3 1_555 1_555
C11_3 O5_3 1_555 1_555
C11_3 O6_2 1_555 1_555
C16_3 C17_3 1_555 1_555
Zn1_2 N1_3 1_555 1_555
Zn4 N3_3 1_555 1_555
C19_3 N1_3 1_555 1_555
C20_3 C19_3 1_555 1_555
H13_3 C20_3 1_555 1_555
H15_3 C20_3 1_555 1_555
C19_3 N3_3 1_555 1_555
C1_3 C2_3 1_555 1_555
C2_3 C3_3 1_555 1_555
C3_3 H1_3 1_555 1_555
C4_3 C3_3 1_555 1_555
H2_3 C4_3 1_555 1_555
C5_3 C4_3 1_555 1_555
C6_3 C5_3 1_555 1_555
H3_3 C6_3 1_555 1_555
C7_3 C2_3 1_555 1_555
H4_3 C7_3 1_555 1_555
C8_3 C5_3 1_555 1_555
O2_2 C1_3 1_555 1_555
O3_3 C8_3 1_555 1_555
O4_3 C8_3 1_555 1_555
H8_3 O4_3 1_555 1_555
Zn5 O3_3 1_555 1_555
C1_3 O1_3 1_555 1_555
C6_3 C7_3 1_555 1_555
Zn1_3 N1_4 1_555 1_555
Zn6 N2_2 1_555 1_555
C9_3 C10_3 1_555 1_555
C10_3 H5_3 1_555 1_555
H7_3 C10_3 1_555 1_555
N1_4 C9_3 1_555 1_555
N2_2 C9_3 1_555 1_555
N4_2 Zn6_2 1_555 1_555
Zn3_2 N1_5 1_555 1_555
Zn4_2 N3_4 1_555 1_555
C19_4 N1_5 1_555 1_555
C20_4 C19_4 1_555 1_555
H13_4 C20_4 1_555 1_555
H15_4 C20_4 1_555 1_555
C19_4 N3_4 1_555 1_555
C11_4 C12_4 1_555 1_555
C12_4 C13_4 1_555 1_555
C13_4 H9_4 1_555 1_555
C14_4 C13_4 1_555 1_555
H10_4 C14_4 1_555 1_555
C15_4 C14_4 1_555 1_555
C16_4 C15_4 1_555 1_555
H11_4 C16_4 1_555 1_555
C17_4 C12_4 1_555 1_555
H12_4 C17_4 1_555 1_555
C18_4 C15_4 1_555 1_555
O10 C18_4 1_555 1_555
O12_4 C18_4 1_555 1_555
H16_4 O12_4 1_555 1_555
C11_4 O5_4 1_555 1_555
C11_4 O8_2 1_555 1_555
C16_4 C17_4 1_555 1_555
Zn3_3 N1_6 1_555 1_555
C9_4 C10_4 1_555 1_555
C10_4 H5_4 1_555 1_555
H7_4 C10_4 1_555 1_555
N1_6 C9_4 1_555 1_555
N4_2 C9_4 1_555 1_555
C1_4 C2_4 1_555 1_555
C2_4 C3_4 1_555 1_555
C3_4 H1_4 1_555 1_555
C4_4 C3_4 1_555 1_555
H2_4 C4_4 1_555 1_555
C5_4 C4_4 1_555 1_555
C6_4 C5_4 1_555 1_555
H3_4 C6_4 1_555 1_555
C7_4 C2_4 1_555 1_555
H4_4 C7_4 1_555 1_555
C8_4 C5_4 1_555 1_555
O7_2 C1_4 1_555 1_555
O3_4 C8_4 1_555 1_555
O4_4 C8_4 1_555 1_555
H8_4 O4_4 1_555 1_555
Zn5 O3_4 1_555 1_555
C1_4 O1_4 1_555 1_555
C6_4 C7_4 1_555 1_555

#END
