
###############################################################################
#
# This file contains modified crystal structure data generated from the
# MOF subset of the Cambridge Structural Database (CSD) v543 
# hosted by the Cambridge Crystallographic Data Centre (CCDC).
#
# This work is licensed under the Creative Commons
# Attribution-NonCommercial-ShareAlike 4.0 International License.
# To view a copy of this license, visit
# http://creativecommons.org/licenses/by-nc-sa/4.0/
# or send a letter to
# Creative Commons, PO Box 1866, Mountain View, CA 94042, USA.
#
# CIF created using the CSD Python API on 29 September 2022
# The structure has been converted into the P1 space group
# The structure has a 3D framework
# The original CSD entry ATUXUK is in the triclinic crystal system
# The framework has been calculated to contain at least 10.0% void space
# The void calculation uses a probe of radius 1.32A, grid spacing 0.4
# The framework is charged, counterions have been retained in the structure
# H atom positions have been added when not included in the experimental data
#
###############################################################################

data_ATUXUK
_chemical_formula_moiety         '(C64 H32 K4 O38 Tb4)n'
_symmetry_cell_setting           triclinic
_symmetry_space_group_name_H-M   'P 1'
_symmetry_Int_Tables_number      1
_space_group_name_Hall           'P 1'
loop_
_symmetry_equiv_pos_site_id
_symmetry_equiv_pos_as_xyz
1 x,y,z
_cell_length_a                   11.0252(9)
_cell_length_b                   12.6045(10)
_cell_length_c                   16.0080(13)
_cell_angle_alpha                100.2370(10)
_cell_angle_beta                 106.0700(10)
_cell_angle_gamma                95.7250(10)
_cell_volume                     2077.37
loop_
_atom_site_label
_atom_site_type_symbol
_atom_site_fract_x
_atom_site_fract_y
_atom_site_fract_z
O10 O 0.1378(3) 0.1155(3) 0.1109(2)
O13 O 0.0380(3) 0.1225(3) 0.4846(2)
O14 O 0.0788(3) 0.2994(3) 0.4919(2)
C17 C 0.1082(4) 0.1413(4) 0.1899(3)
C18 C 0.0754(5) 0.0541(4) 0.2247(3)
C19 C 0.0574(4) 0.0729(4) 0.3092(3)
C20 C 0.0718(4) 0.1790(4) 0.3569(3)
C21 C 0.1032(5) 0.2659(4) 0.3188(3)
H8 H 0.1121 0.3372 0.3502
C22 C 0.1211(5) 0.2475(4) 0.2356(3)
H9 H 0.1415 0.3057 0.2109
C24 C 0.0610(4) 0.2033(4) 0.4495(3)
C25 C 0.0812(4) 0.1618(4) 0.0401(3)
Tb4 Tb 0.05916(2) 0.24040(2) 0.62800(2)
O15 O 0.1270(3) 0.2757(3) 0.7813(2)
O16 O 0.2878(3) 0.2111(3) 0.8653(2)
O19 O 0.1644(5) 0.4286(3) 0.6800(3)
C26 C 0.1522(4) 0.1762(4) 0.9834(3)
H10 H 0.2352 0.1605 0.9958
C27 C 0.0978(4) 0.2148(4) 0.9065(3)
C31 C 0.1770(4) 0.2345(4) 0.8462(3)
Tb7 Tb 0.50248(2) 0.25910(2) 0.88275(2)
O25 O 0.2690(3) 0.2238(3) 0.6278(2)
O27 O 0.0961(3) 0.0620(3) 0.6708(2)
H13 H 0.169823 0.453813 0.743515
H14 H 0.251848 0.433987 0.673823
O11 O 0.1059(3) 0.9166(3) 0.3707(2)
H7 H 0.0653 0.9831 0.1924
C23 C 0.0206(5) 0.9708(4) 0.3403(3)
C30 C 0.9581(5) 0.1853(4) 0.0240(3)
H12 H 0.9123 0.1768 0.0639
O23 O 0.4930(3) 0.2028(3) 0.0238(2)
O24 O 0.4869(3) 0.3756(3) 0.0188(2)
O1 O 0.4120(3) 0.3803(3) 0.4000(2)
O2 O 0.5965(3) 0.5766(3) 0.1704(2)
O3 O 0.3869(3) 0.5643(3) 0.1230(2)
O6 O 0.8781(3) 0.3207(3) 0.6707(2)
O7 O 0.8489(3) 0.2556(3) 0.5292(2)
O9 O 0.4470(3) 0.2173(3) 0.7309(2)
O17 O 0.7007(3) 0.2243(3) 0.8452(2)
O18 O 0.7219(3) 0.2775(3) 0.9872(2)
O20 O 0.4933(4) 0.0636(3) 0.8513(3)
C1 C 0.4407(4) 0.3567(4) 0.3203(3)
C2 C 0.4532(5) 0.4431(4) 0.2802(3)
H1 H 0.4507 0.5133 0.3093
C3 C 0.4698(4) 0.4256(4) 0.1953(3)
C4 C 0.4738(4) 0.3209(4) 0.1524(3)
C5 C 0.4619(5) 0.2351(4) 0.1954(3)
H2 H 0.4646 0.1647 0.1670
C6 C 0.4463(5) 0.2518(4) 0.2787(3)
H3 H 0.4396 0.1938 0.3067
C7 C 0.4867(5) 0.5269(4) 0.1593(3)
C8 C 0.4860(4) 0.2977(4) 0.0602(3)
C9 C 0.4766(4) 0.3381(4) 0.4715(3)
C10 C 0.6048(4) 0.3328(4) 0.4918(3)
H4 H 0.6505 0.3498 0.4537
C11 C 0.6658(4) 0.3016(4) 0.5703(3)
C12 C 0.5964(4) 0.2734(4) 0.6256(3)
H5 H 0.6376 0.2547 0.6788
C13 C 0.4654(4) 0.2732(4) 0.6012(3)
C14 C 0.4049(4) 0.3067(4) 0.5239(3)
H6 H 0.3173 0.3080 0.5078
C15 C 0.8062(4) 0.2932(4) 0.5917(3)
C16 C 0.3871(4) 0.2361(4) 0.6576(3)
C28 C 0.9727(4) 0.2357(4) 0.8877(3)
H11 H 0.9353 0.2588 0.8359
C29 C 0.9037(4) 0.2219(4) 0.9466(3)
C32 C 0.7679(4) 0.2431(4) 0.9253(3)
Tb8 Tb 0.49752(2) 0.74090(2) 0.11725(2)
O21 O 0.4035(3) 0.4234(3) 0.8296(2)
O22 O 0.6131(3) 0.4357(3) 0.8770(2)
O26 O 0.8941(3) 0.0834(3) 0.6293(2)
H15 H 0.555739 0.0440227 0.819079
H16 H 0.514533 0.037903 0.908018
O12 O 0.9039(3) 0.9380(3) 0.3292(2)
Tb5 Tb 0.94084(2) 0.75960(2) 0.37200(2)
O1_2 O 0.5880(3) 0.6197(3) 0.6000(2)
O4 O 0.5070(3) 0.7972(3) 0.9762(2)
O5 O 0.5131(3) 0.6244(3) 0.9812(2)
O6_2 O 0.1219(3) 0.6793(3) 0.3293(2)
O7_2 O 0.1511(3) 0.7444(3) 0.4708(2)
O8 O 0.7310(3) 0.7762(3) 0.3722(2)
O9_2 O 0.5530(3) 0.7827(3) 0.2691(2)
O17_2 O 0.2993(3) 0.7757(3) 0.1548(2)
O18_2 O 0.2781(3) 0.7225(3) 0.0128(2)
O20_2 O 0.5067(4) 0.9364(3) 0.1487(3)
C1_2 C 0.5593(4) 0.6433(4) 0.6797(3)
C2_2 C 0.5468(5) 0.5569(4) 0.7198(3)
H1_2 H 0.5493 0.4867 0.6907
C3_2 C 0.5302(4) 0.5744(4) 0.8047(3)
C4_2 C 0.5262(4) 0.6791(4) 0.8476(3)
C5_2 C 0.5381(5) 0.7649(4) 0.8046(3)
H2_2 H 0.5354 0.8353 0.8330
C6_2 C 0.5537(5) 0.7482(4) 0.7213(3)
H3_2 H 0.5604 0.8062 0.6933
C7_2 C 0.5133(5) 0.4731(4) 0.8407(3)
C8_2 C 0.5140(4) 0.7023(4) 0.9398(3)
C9_2 C 0.5234(4) 0.6619(4) 0.5285(3)
C10_2 C 0.3952(4) 0.6672(4) 0.5082(3)
H4_2 H 0.3495 0.6502 0.5463
C11_2 C 0.3342(4) 0.6984(4) 0.4297(3)
C12_2 C 0.4036(4) 0.7266(4) 0.3744(3)
H5_2 H 0.3624 0.7453 0.3212
C13_2 C 0.5346(4) 0.7268(4) 0.3988(3)
C14_2 C 0.5951(4) 0.6933(4) 0.4761(3)
H6_2 H 0.6827 0.6920 0.4922
C15_2 C 0.1938(4) 0.7068(4) 0.4083(3)
C16_2 C 0.6129(4) 0.7639(4) 0.3424(3)
C28_2 C 0.0273(4) 0.7643(4) 0.1123(3)
H11_2 H 0.0647 0.7412 0.1641
C29_2 C 0.0963(4) 0.7781(4) 0.0534(3)
C32_2 C 0.2321(4) 0.7569(4) 0.0747(3)
O30 O 0.7122(3) 0.7889(3) 0.1347(2)
H15_2 H 0.444261 0.955977 0.180921
H16_2 H 0.485467 0.962097 0.0919822
C30_2 C 0.0419(5) 0.8147(4) 0.9760(3)
H12_2 H 0.0877 0.8232 0.9361
H7_2 H 0.9347 0.0169 0.8076
C23_2 C 0.9794(5) 0.0292(4) 0.6597(3)
O15_2 O 0.8730(3) 0.7243(3) 0.2187(2)
O19_2 O 0.8356(5) 0.5714(3) 0.3200(3)
C26_2 C 0.8478(4) 0.8238(4) 0.0166(3)
H10_2 H 0.7648 0.8395 0.0042
C27_2 C 0.9022(4) 0.7852(4) 0.0935(3)
C31_2 C 0.8230(4) 0.7655(4) 0.1538(3)
O28 O 0.9620(3) 0.8775(3) 0.5154(2)
O29 O 0.9212(3) 0.7006(3) 0.5081(2)
H13_2 H 0.830177 0.546187 0.256485
H14_2 H 0.748152 0.566013 0.326177
O10_2 O 0.8622(3) 0.8845(3) 0.8891(2)
C17_2 C 0.8918(4) 0.8587(4) 0.8101(3)
C18_2 C 0.9246(5) 0.9459(4) 0.7753(3)
C19_2 C 0.9426(4) 0.9271(4) 0.6908(3)
C20_2 C 0.9282(4) 0.8210(4) 0.6431(3)
C21_2 C 0.8968(5) 0.7341(4) 0.6812(3)
H8_2 H 0.8879 0.6628 0.6498
C22_2 C 0.8789(5) 0.7525(4) 0.7644(3)
H9_2 H 0.8585 0.6943 0.7891
C24_2 C 0.9390(4) 0.7967(4) 0.5505(3)
C25_2 C 0.9188(4) 0.8382(4) 0.9599(3)
K1 K 0.73197(13) 0.50936(11) 0.05690(9)
K1_2 K 0.26803(13) 0.49064(11) 0.94310(9)
K2 K 0.78170(12) 0.02368(12) 0.44521(9)
K2_2 K 0.21830(12) 0.97632(12) 0.55479(9)
loop_
_geom_bond_atom_site_label_1
_geom_bond_atom_site_label_2
_geom_bond_site_symmetry_1
_geom_bond_site_symmetry_2
O10 C17 1_555 1_555
O13 C24 1_555 1_555
O14 C24 1_555 1_555
C17 C18 1_555 1_555
C19 C18 1_555 1_555
C20 C19 1_555 1_555
C21 C20 1_555 1_555
H8 C21 1_555 1_555
C22 C17 1_555 1_555
H9 C22 1_555 1_555
C24 C20 1_555 1_555
C25 O10 1_555 1_555
Tb4 O13 1_555 1_555
O14 Tb4 1_555 1_555
C21 C22 1_555 1_555
O15 Tb4 1_555 1_555
O16 C31 1_555 1_555
O19 Tb4 1_555 1_555
H10 C26 1_555 1_555
C27 C26 1_555 1_555
C31 O15 1_555 1_555
Tb7 O16 1_555 1_555
O25 Tb4 1_555 1_555
O27 Tb4 1_555 1_555
C27 C31 1_555 1_555
O19 H13 1_555 1_555
O19 H14 1_555 1_555
O11 C23 1_555 1_555
H12 C30 1_555 1_555
Tb7 O9 1_555 1_555
O1 C1 1_555 1_555
O2 C7 1_555 1_555
O3 C7 1_555 1_555
O23 C8 1_555 1_555
O24 C8 1_555 1_555
O6 C15 1_555 1_555
O25 C16 1_555 1_555
O9 C16 1_555 1_555
O17 Tb7 1_555 1_555
O18 Tb7 1_555 1_555
O20 Tb7 1_555 1_555
C1 C2 1_555 1_555
C2 H1 1_555 1_555
C3 C2 1_555 1_555
C4 C3 1_555 1_555
C5 C4 1_555 1_555
H2 C5 1_555 1_555
C6 C1 1_555 1_555
H3 C6 1_555 1_555
C7 C3 1_555 1_555
C8 C4 1_555 1_555
C9 O1 1_555 1_555
C10 C9 1_555 1_555
H4 C10 1_555 1_555
C11 C10 1_555 1_555
C12 C11 1_555 1_555
H5 C12 1_555 1_555
C13 C12 1_555 1_555
C14 C9 1_555 1_555
H6 C14 1_555 1_555
C15 O7 1_555 1_555
C16 C13 1_555 1_555
H11 C28 1_555 1_555
C29 C28 1_555 1_555
C32 O17 1_555 1_555
Tb8 O2 1_555 1_555
O21 Tb7 1_555 1_555
O22 Tb7 1_555 1_555
O3 Tb8 1_555 1_555
O18 C32 1_555 1_555
C5 C6 1_555 1_555
C11 C15 1_555 1_555
C13 C14 1_555 1_555
C29 C32 1_555 1_555
O20 H15 1_555 1_555
O20 H16 1_555 1_555
O12 Tb5 1_555 1_555
Tb8 O9_2 1_555 1_555
O1_2 C1_2 1_555 1_555
O21 C7_2 1_555 1_555
O22 C7_2 1_555 1_555
O4 C8_2 1_555 1_555
O5 C8_2 1_555 1_555
O6_2 C15_2 1_555 1_555
O8 C16_2 1_555 1_555
O9_2 C16_2 1_555 1_555
O17_2 Tb8 1_555 1_555
O18_2 Tb8 1_555 1_555
O20_2 Tb8 1_555 1_555
C1_2 C2_2 1_555 1_555
C2_2 H1_2 1_555 1_555
C3_2 C2_2 1_555 1_555
C4_2 C3_2 1_555 1_555
C5_2 C4_2 1_555 1_555
H2_2 C5_2 1_555 1_555
C6_2 C1_2 1_555 1_555
H3_2 C6_2 1_555 1_555
C7_2 C3_2 1_555 1_555
C8_2 C4_2 1_555 1_555
C9_2 O1_2 1_555 1_555
C10_2 C9_2 1_555 1_555
H4_2 C10_2 1_555 1_555
C11_2 C10_2 1_555 1_555
C12_2 C11_2 1_555 1_555
H5_2 C12_2 1_555 1_555
C13_2 C12_2 1_555 1_555
C14_2 C9_2 1_555 1_555
H6_2 C14_2 1_555 1_555
C15_2 O7_2 1_555 1_555
C16_2 C13_2 1_555 1_555
H11_2 C28_2 1_555 1_555
C29_2 C28_2 1_555 1_555
C32_2 O17_2 1_555 1_555
Tb5 O8 1_555 1_555
O30 Tb8 1_555 1_555
O18_2 C32_2 1_555 1_555
C5_2 C6_2 1_555 1_555
C11_2 C15_2 1_555 1_555
C13_2 C14_2 1_555 1_555
C29_2 C32_2 1_555 1_555
O20_2 H15_2 1_555 1_555
O20_2 H16_2 1_555 1_555
H12_2 C30_2 1_555 1_555
O26 C23_2 1_555 1_555
O15_2 Tb5 1_555 1_555
O30 C31_2 1_555 1_555
O19_2 Tb5 1_555 1_555
H10_2 C26_2 1_555 1_555
C27_2 C26_2 1_555 1_555
C31_2 O15_2 1_555 1_555
O28 Tb5 1_555 1_555
O29 Tb5 1_555 1_555
C27_2 C31_2 1_555 1_555
O19_2 H13_2 1_555 1_555
O19_2 H14_2 1_555 1_555
O10_2 C17_2 1_555 1_555
O28 C24_2 1_555 1_555
O29 C24_2 1_555 1_555
C17_2 C18_2 1_555 1_555
C19_2 C18_2 1_555 1_555
C20_2 C19_2 1_555 1_555
C21_2 C20_2 1_555 1_555
H8_2 C21_2 1_555 1_555
C22_2 C17_2 1_555 1_555
H9_2 C22_2 1_555 1_555
C24_2 C20_2 1_555 1_555
C25_2 O10_2 1_555 1_555
C21_2 C22_2 1_555 1_555

#END
