
###############################################################################
#
# This file contains modified crystal structure data generated from the
# MOF subset of the Cambridge Structural Database (CSD) v543 
# hosted by the Cambridge Crystallographic Data Centre (CCDC).
#
# This work is licensed under the Creative Commons
# Attribution-NonCommercial-ShareAlike 4.0 International License.
# To view a copy of this license, visit
# http://creativecommons.org/licenses/by-nc-sa/4.0/
# or send a letter to
# Creative Commons, PO Box 1866, Mountain View, CA 94042, USA.
#
# CIF created using the CSD Python API on 29 September 2022
# The structure has been converted into the P1 space group
# The structure has a 3D framework
# The original CSD entry AVAQIX01 is in the orthorhombic crystal system
# The framework has been calculated to contain at least 10.0% void space
# The void calculation uses a probe of radius 1.32A, grid spacing 0.4
#
###############################################################################

data_AVAQIX01
_chemical_formula_moiety         '(C96 H80 Cd8 N16 O40)n'
_symmetry_cell_setting           triclinic
_symmetry_space_group_name_H-M   'P 1'
_symmetry_Int_Tables_number      1
_space_group_name_Hall           'P 1'
loop_
_symmetry_equiv_pos_site_id
_symmetry_equiv_pos_as_xyz
1 x,y,z
_cell_length_a                   12.2463(14)
_cell_length_b                   15.4577(18)
_cell_length_c                   18.8454(19)
_cell_angle_alpha                90
_cell_angle_beta                 90
_cell_angle_gamma                90
_cell_volume                     3567.43
loop_
_atom_site_label
_atom_site_type_symbol
_atom_site_fract_x
_atom_site_fract_y
_atom_site_fract_z
Cd1 Cd 0.19250(2) 0.21535(2) 0.31604(2)
O1 O 0.3483(2) 0.16968(16) 0.38357(12)
O2 O 0.31260(18) 0.31011(16) 0.38237(12)
C1 C 0.3649(2) 0.2459(2) 0.40454(16)
C2 C 0.4490(2) 0.2598(2) 0.46186(16)
C3 C 0.4420(3) 0.3312(2) 0.5052(2)
H1 H 0.3892 0.3749 0.4963
C4 C 0.5131(3) 0.3382(2) 0.5620(2)
H2 H 0.5065 0.3869 0.5925
N1 N 0.5909(2) 0.27966(18) 0.57617(15)
C5 C 0.6007(3) 0.2133(3) 0.5312(2)
H3 H 0.6575 0.1725 0.5390
C6 C 0.5317(3) 0.2012(3) 0.4737(2)
H4 H 0.5413 0.1531 0.4429
N2 N 0.1144(2) 0.34607(17) 0.27772(14)
C7 C 0.1387(3) 0.4222(2) 0.30871(17)
H5 H 0.1960 0.4235 0.3427
C8 C 0.0845(3) 0.4989(2) 0.29353(17)
H6 H 0.1043 0.5513 0.3165
C9 C 0.0003(3) 0.4971(2) 0.24396(17)
C11 C 0.0347(3) 0.3455(2) 0.22920(18)
H8 H 0.0176 0.2924 0.2063
O5 O 0.3063(2) 0.20216(16) 0.21905(13)
H9 H 0.2864 0.1657 0.1841
H10 H 0.3751 0.1860 0.2263
Cd2 Cd 0.69250(2) 0.28465(2) 0.68396(2)
N3 N 0.0909(2) 0.22034(18) 0.42383(15)
O6 O 0.02543(19) 0.15022(14) 0.25810(13)
O7 O 0.15294(19) 0.06808(15) 0.30607(13)
C4_2 C 0.0131(3) 0.1618(2) 0.4380(2)
H2_2 H 0.0065 0.1131 0.4075
C5_2 C 0.1007(3) 0.2867(3) 0.4688(2)
H3_2 H 0.1575 0.3275 0.4610
C6_2 C 0.0317(3) 0.2988(3) 0.5263(2)
H4_2 H 0.0413 0.3469 0.5571
O1_2 O 0.8483(2) 0.33032(16) 0.61643(12)
O2_2 O 0.81260(18) 0.18989(16) 0.61763(12)
C1_2 C 0.8649(2) 0.2541(2) 0.59546(16)
C2_2 C 0.9490(2) 0.2402(2) 0.53814(16)
C3_2 C 0.9420(3) 0.1688(2) 0.4948(2)
H1_2 H 0.8892 0.1251 0.5037
N2_2 N 0.6144(2) 0.15393(17) 0.72228(14)
C7_2 C 0.6387(3) 0.0778(2) 0.69129(17)
H5_2 H 0.6960 0.0765 0.6573
C8_2 C 0.5845(3) 0.0011(2) 0.70647(17)
C9_2 C 0.5003(3) 0.0029(2) 0.75604(17)
C10 C 0.4757(3) 0.0810(2) 0.78936(18)
H7 H 0.4196 0.0840 0.8241
C11_2 C 0.5347(3) 0.1545(2) 0.77080(18)
H8_2 H 0.5176 0.2076 0.7937
O5_2 O 0.8063(2) 0.29784(16) 0.78095(13)
H9_2 H 0.7864 0.3343 0.8159
H10_2 H 0.8751 0.3140 0.7737
O6_2 O 0.52543(19) 0.34978(14) 0.74190(13)
O7_2 O 0.65294(19) 0.43192(15) 0.69393(13)
H6_2 H 0.6043 0.9487 0.6835
C12 C 0.4359(2) 0.9225(2) 0.77422(16)
O3 O 0.47457(19) 0.84978(14) 0.75810(13)
O4 O 0.34706(19) 0.93192(15) 0.80607(13)
Cd3 Cd 0.30750(2) 0.78465(2) 0.81604(2)
C12_2 C 0.0641(2) 0.0775(2) 0.27422(16)
C3_3 C 0.5580(3) 0.8312(2) 0.9948(2)
C4_3 C 0.4869(3) 0.8382(2) 0.9380(2)
H2_3 H 0.4935 0.8869 0.9075
N1_2 N 0.4091(2) 0.77966(18) 0.92383(15)
C5_3 C 0.3993(3) 0.7133(3) 0.9688(2)
H3_3 H 0.3425 0.6725 0.9610
O1_3 O 0.1517(2) 0.83032(16) 0.88357(12)
O2_3 O 0.18740(18) 0.68989(16) 0.88237(12)
C1_3 C 0.1351(2) 0.7541(2) 0.90454(16)
C2_3 C 0.0510(2) 0.7402(2) 0.96186(16)
H1_3 H 0.1108 0.6251 0.9963
N2_3 N 0.3856(2) 0.65393(17) 0.77772(14)
C7_3 C 0.3613(3) 0.5778(2) 0.80871(17)
H5_3 H 0.3040 0.5765 0.8427
C8_3 C 0.4155(3) 0.5011(2) 0.79353(17)
H6_3 H 0.3957 0.4487 0.8165
C9_3 C 0.4997(3) 0.5029(2) 0.74396(17)
C10_2 C 0.5243(3) 0.5810(2) 0.71064(18)
H7_2 H 0.5804 0.5840 0.6759
C11_3 C 0.4653(3) 0.6545(2) 0.72920(18)
H8_3 H 0.4824 0.7076 0.7063
C12_3 C 0.5641(2) 0.4225(2) 0.72578(16)
O5_3 O 0.1937(2) 0.79784(16) 0.71905(13)
H9_3 H 0.2136 0.8343 0.6841
H10_3 H 0.1249 0.8140 0.7263
C10_3 C 0.9757(3) 0.4190(2) 0.21064(18)
H7_3 H 0.9196 0.4160 0.1759
C12_4 C 0.9359(2) 0.5775(2) 0.22578(16)
O3_2 O 0.97457(19) 0.65022(14) 0.24190(13)
O4_2 O 0.84706(19) 0.56808(15) 0.19393(13)
Cd3_2 Cd 0.80750(2) 0.71535(2) 0.18396(2)
O1_4 O 0.6517(2) 0.66968(16) 0.11643(12)
O2_4 O 0.68740(18) 0.81011(16) 0.11763(12)
C1_4 C 0.6351(2) 0.7459(2) 0.09546(16)
C2_4 C 0.5510(2) 0.7598(2) 0.03814(16)
H1_4 H 0.6108 0.8749 0.0037
C6_3 C 0.4683(3) 0.7012(3) 0.0263(2)
H4_3 H 0.4587 0.6531 0.0571
N2_4 N 0.8856(2) 0.84607(17) 0.22228(14)
C7_4 C 0.8613(3) 0.9222(2) 0.19129(17)
H5_4 H 0.8040 0.9235 0.1573
C8_4 C 0.9155(3) 0.9989(2) 0.20647(17)
C9_4 C 0.9997(3) 0.9971(2) 0.25604(17)
C11_4 C 0.9653(3) 0.8455(2) 0.27080(18)
H8_4 H 0.9824 0.7924 0.2937
O5_4 O 0.6937(2) 0.70216(16) 0.28095(13)
H9_4 H 0.7136 0.6657 0.3159
H10_4 H 0.6249 0.6860 0.2737
N3_2 N 0.9091(2) 0.72034(18) 0.07617(15)
C4_4 C 0.9869(3) 0.6618(2) 0.0620(2)
H2_4 H 0.9935 0.6131 0.0925
C5_4 C 0.8993(3) 0.7867(3) 0.0312(2)
H3_4 H 0.8425 0.8275 0.0390
C10_4 C 0.0243(3) 0.9190(2) 0.28936(18)
H7_4 H 0.0804 0.9160 0.3241
H6_4 H 0.8957 0.0513 0.1835
C3_4 C 0.0580(3) 0.6688(2) 0.0052(2)
C6_4 C 0.9683(3) 0.7988(3) 0.9737(2)
H4_4 H 0.9587 0.8469 0.9429
C10_5 C 0.0243(3) 0.5810(2) 0.78936(18)
H7_5 H 0.0804 0.5840 0.8241
C12_5 C 0.0641(2) 0.4225(2) 0.77422(16)
O3_3 O 0.02543(19) 0.34978(14) 0.75810(13)
O4_3 O 0.15294(19) 0.43192(15) 0.80607(13)
Cd3_3 Cd 0.19250(2) 0.28465(2) 0.81604(2)
O1_5 O 0.3483(2) 0.33032(16) 0.88357(12)
O2_5 O 0.31260(18) 0.18989(16) 0.88237(12)
C1_5 C 0.3649(2) 0.2541(2) 0.90454(16)
C2_5 C 0.4490(2) 0.2402(2) 0.96186(16)
H1_5 H 0.3892 0.1251 0.9963
C6_5 C 0.5317(3) 0.2988(3) 0.9737(2)
H4_5 H 0.5413 0.3469 0.9429
N2_5 N 0.1144(2) 0.15393(17) 0.77772(14)
C7_5 C 0.1387(3) 0.0778(2) 0.80871(17)
H5_5 H 0.1960 0.0765 0.8427
C8_5 C 0.0845(3) 0.0011(2) 0.79353(17)
C9_5 C 0.0003(3) 0.0029(2) 0.74396(17)
C11_5 C 0.0347(3) 0.1545(2) 0.72920(18)
H8_5 H 0.0176 0.2076 0.7063
O5_5 O 0.3063(2) 0.29784(16) 0.71905(13)
H9_5 H 0.2864 0.3343 0.6841
H10_5 H 0.3751 0.3140 0.7263
N3_3 N 0.0909(2) 0.27966(18) 0.92383(15)
C4_5 C 0.0131(3) 0.3382(2) 0.9380(2)
H2_5 H 0.0065 0.3869 0.9075
C5_5 C 0.1007(3) 0.2133(3) 0.9688(2)
H3_5 H 0.1575 0.1725 0.9610
Cd1_2 Cd 0.80750(2) 0.78465(2) 0.68396(2)
O1_6 O 0.6517(2) 0.83032(16) 0.61643(12)
O2_6 O 0.68740(18) 0.68989(16) 0.61763(12)
C1_6 C 0.6351(2) 0.7541(2) 0.59546(16)
C2_6 C 0.5510(2) 0.7402(2) 0.53814(16)
C3_5 C 0.5580(3) 0.6688(2) 0.4948(2)
H1_6 H 0.6108 0.6251 0.5037
C4_6 C 0.4869(3) 0.6618(2) 0.4380(2)
H2_6 H 0.4935 0.6131 0.4075
N1_3 N 0.4091(2) 0.72034(18) 0.42383(15)
C5_6 C 0.3993(3) 0.7867(3) 0.4688(2)
H3_6 H 0.3425 0.8275 0.4610
C6_6 C 0.4683(3) 0.7988(3) 0.5263(2)
H4_6 H 0.4587 0.8469 0.5571
N2_6 N 0.8856(2) 0.65393(17) 0.72228(14)
C7_6 C 0.8613(3) 0.5778(2) 0.69129(17)
H5_6 H 0.8040 0.5765 0.6573
C8_6 C 0.9155(3) 0.5011(2) 0.70647(17)
H6_5 H 0.8957 0.4487 0.6835
C9_6 C 0.9997(3) 0.5029(2) 0.75604(17)
C11_6 C 0.9653(3) 0.6545(2) 0.77080(18)
H8_6 H 0.9824 0.7076 0.7937
O5_6 O 0.6937(2) 0.79784(16) 0.78095(13)
H9_6 H 0.7136 0.8343 0.8159
H10_6 H 0.6249 0.8140 0.7737
Cd2_2 Cd 0.30750(2) 0.71535(2) 0.31604(2)
N3_4 N 0.9091(2) 0.77966(18) 0.57617(15)
O6_3 O 0.97457(19) 0.84978(14) 0.74190(13)
O7_3 O 0.84706(19) 0.93192(15) 0.69393(13)
H6_6 H 0.3957 0.0513 0.3165
C12_6 C 0.5641(2) 0.0775(2) 0.22578(16)
O3_4 O 0.52543(19) 0.15022(14) 0.24190(13)
O4_4 O 0.65294(19) 0.06808(15) 0.19393(13)
Cd3_4 Cd 0.69250(2) 0.21535(2) 0.18396(2)
O1_7 O 0.1517(2) 0.66968(16) 0.38357(12)
O2_7 O 0.18740(18) 0.81011(16) 0.38237(12)
C1_7 C 0.1351(2) 0.7459(2) 0.40454(16)
C2_7 C 0.0510(2) 0.7598(2) 0.46186(16)
C3_6 C 0.0580(3) 0.8312(2) 0.5052(2)
H1_7 H 0.1108 0.8749 0.4963
N2_7 N 0.3856(2) 0.84607(17) 0.27772(14)
C7_7 C 0.3613(3) 0.9222(2) 0.30871(17)
H5_7 H 0.3040 0.9235 0.3427
C8_7 C 0.4155(3) 0.9989(2) 0.29353(17)
C9_7 C 0.4997(3) 0.9971(2) 0.24396(17)
C10_6 C 0.5243(3) 0.9190(2) 0.21064(18)
H7_6 H 0.5804 0.9160 0.1759
C11_7 C 0.4653(3) 0.8455(2) 0.22920(18)
H8_7 H 0.4824 0.7924 0.2063
O5_7 O 0.1937(2) 0.70216(16) 0.21905(13)
H9_7 H 0.2136 0.6657 0.1841
H10_7 H 0.1249 0.6860 0.2263
O6_4 O 0.47457(19) 0.65022(14) 0.25810(13)
O7_4 O 0.34706(19) 0.56808(15) 0.30607(13)
C4_7 C 0.9869(3) 0.8382(2) 0.5620(2)
H2_7 H 0.9935 0.8869 0.5925
C5_7 C 0.8993(3) 0.7133(3) 0.5312(2)
H3_7 H 0.8425 0.6725 0.5390
C6_7 C 0.9683(3) 0.7012(3) 0.4737(2)
H4_7 H 0.9587 0.6531 0.4429
C3_7 C 0.4420(3) 0.1688(2) 0.0052(2)
C4_8 C 0.5131(3) 0.1618(2) 0.0620(2)
H2_8 H 0.5065 0.1131 0.0925
N1_4 N 0.5909(2) 0.22034(18) 0.07617(15)
C5_8 C 0.6007(3) 0.2867(3) 0.0312(2)
H3_8 H 0.6575 0.3275 0.0390
C12_7 C 0.9359(2) 0.9225(2) 0.72578(16)
O1_8 O 0.8483(2) 0.16968(16) 0.11643(12)
O2_8 O 0.81260(18) 0.31011(16) 0.11763(12)
C1_8 C 0.8649(2) 0.2459(2) 0.09546(16)
C2_8 C 0.9490(2) 0.2598(2) 0.03814(16)
H1_8 H 0.8892 0.3749 0.0037
N2_8 N 0.6144(2) 0.34607(17) 0.22228(14)
C7_8 C 0.6387(3) 0.4222(2) 0.19129(17)
H5_8 H 0.6960 0.4235 0.1573
C8_8 C 0.5845(3) 0.4989(2) 0.20647(17)
H6_7 H 0.6043 0.5513 0.1835
C9_8 C 0.5003(3) 0.4971(2) 0.25604(17)
C10_7 C 0.4757(3) 0.4190(2) 0.28936(18)
H7_7 H 0.4196 0.4160 0.3241
C11_8 C 0.5347(3) 0.3455(2) 0.27080(18)
H8_8 H 0.5176 0.2924 0.2937
C12_8 C 0.4359(2) 0.5775(2) 0.27422(16)
O5_8 O 0.8063(2) 0.20216(16) 0.28095(13)
H9_8 H 0.7864 0.1657 0.3159
H10_8 H 0.8751 0.1860 0.2737
H6_8 H 0.1043 0.9487 0.8165
C10_8 C 0.9757(3) 0.0810(2) 0.71064(18)
H7_8 H 0.9196 0.0840 0.6759
C6_8 C 0.0317(3) 0.2012(3) 0.0263(2)
H4_8 H 0.0413 0.1531 0.0571
C3_8 C 0.9420(3) 0.3312(2) 0.9948(2)
loop_
_geom_bond_atom_site_label_1
_geom_bond_atom_site_label_2
_geom_bond_site_symmetry_1
_geom_bond_site_symmetry_2
Cd1 O1 1_555 1_555
O1 C1 1_555 1_555
O2 Cd1 1_555 1_555
C1 O2 1_555 1_555
C2 C1 1_555 1_555
C3 C2 1_555 1_555
H1 C3 1_555 1_555
C4 C3 1_555 1_555
H2 C4 1_555 1_555
N1 C4 1_555 1_555
C5 N1 1_555 1_555
H3 C5 1_555 1_555
C6 C2 1_555 1_555
H4 C6 1_555 1_555
N2 Cd1 1_555 1_555
C7 N2 1_555 1_555
H5 C7 1_555 1_555
C8 C7 1_555 1_555
H6 C8 1_555 1_555
C9 C8 1_555 1_555
C11 N2 1_555 1_555
H8 C11 1_555 1_555
O5 Cd1 1_555 1_555
H9 O5 1_555 1_555
H10 O5 1_555 1_555
Cd2 N1 1_555 1_555
N3 Cd1 1_555 1_555
O6 Cd1 1_555 1_555
O7 Cd1 1_555 1_555
C5 C6 1_555 1_555
H2_2 C4_2 1_555 1_555
N3 C4_2 1_555 1_555
C5_2 N3 1_555 1_555
H3_2 C5_2 1_555 1_555
H4_2 C6_2 1_555 1_555
C5_2 C6_2 1_555 1_555
Cd2 O1_2 1_555 1_555
O1_2 C1_2 1_555 1_555
O2_2 Cd2 1_555 1_555
C1_2 O2_2 1_555 1_555
C2_2 C1_2 1_555 1_555
C3_2 C2_2 1_555 1_555
H1_2 C3_2 1_555 1_555
N2_2 Cd2 1_555 1_555
C7_2 N2_2 1_555 1_555
H5_2 C7_2 1_555 1_555
C8_2 C7_2 1_555 1_555
C9_2 C8_2 1_555 1_555
C10 C9_2 1_555 1_555
H7 C10 1_555 1_555
C11_2 N2_2 1_555 1_555
H8_2 C11_2 1_555 1_555
O5_2 Cd2 1_555 1_555
H9_2 O5_2 1_555 1_555
H10_2 O5_2 1_555 1_555
O6_2 Cd2 1_555 1_555
O7_2 Cd2 1_555 1_555
C10 C11_2 1_555 1_555
O3 C12 1_555 1_555
O4 C12 1_555 1_555
Cd3 O3 1_555 1_555
O4 Cd3 1_555 1_555
O6 C12_2 1_555 1_555
O7 C12_2 1_555 1_555
C4_3 C3_3 1_555 1_555
H2_3 C4_3 1_555 1_555
N1_2 C4_3 1_555 1_555
C5_3 N1_2 1_555 1_555
H3_3 C5_3 1_555 1_555
Cd3 N1_2 1_555 1_555
Cd3 O1_3 1_555 1_555
O1_3 C1_3 1_555 1_555
O2_3 Cd3 1_555 1_555
C1_3 O2_3 1_555 1_555
C2_3 C1_3 1_555 1_555
N2_3 Cd3 1_555 1_555
C7_3 N2_3 1_555 1_555
H5_3 C7_3 1_555 1_555
C8_3 C7_3 1_555 1_555
H6_3 C8_3 1_555 1_555
C9_3 C8_3 1_555 1_555
C10_2 C9_3 1_555 1_555
H7_2 C10_2 1_555 1_555
C11_3 N2_3 1_555 1_555
H8_3 C11_3 1_555 1_555
C12_3 C9_3 1_555 1_555
O6_2 C12_3 1_555 1_555
O7_2 C12_3 1_555 1_555
O5_3 Cd3 1_555 1_555
H9_3 O5_3 1_555 1_555
H10_3 O5_3 1_555 1_555
C10_2 C11_3 1_555 1_555
H7_3 C10_3 1_555 1_555
O3_2 C12_4 1_555 1_555
O4_2 C12_4 1_555 1_555
Cd3_2 O3_2 1_555 1_555
O4_2 Cd3_2 1_555 1_555
Cd3_2 O1_4 1_555 1_555
O1_4 C1_4 1_555 1_555
O2_4 Cd3_2 1_555 1_555
C1_4 O2_4 1_555 1_555
C2_4 C1_4 1_555 1_555
C6_3 C2_4 1_555 1_555
H4_3 C6_3 1_555 1_555
N2_4 Cd3_2 1_555 1_555
C7_4 N2_4 1_555 1_555
H5_4 C7_4 1_555 1_555
C8_4 C7_4 1_555 1_555
C9_4 C8_4 1_555 1_555
C11_4 N2_4 1_555 1_555
H8_4 C11_4 1_555 1_555
O5_4 Cd3_2 1_555 1_555
H9_4 O5_4 1_555 1_555
H10_4 O5_4 1_555 1_555
N3_2 Cd3_2 1_555 1_555
H2_4 C4_4 1_555 1_555
N3_2 C4_4 1_555 1_555
C5_4 N3_2 1_555 1_555
H3_4 C5_4 1_555 1_555
H7_4 C10_4 1_555 1_555
H4_4 C6_4 1_555 1_555
H7_5 C10_5 1_555 1_555
O3_3 C12_5 1_555 1_555
O4_3 C12_5 1_555 1_555
Cd3_3 O3_3 1_555 1_555
O4_3 Cd3_3 1_555 1_555
Cd3_3 O1_5 1_555 1_555
O1_5 C1_5 1_555 1_555
O2_5 Cd3_3 1_555 1_555
C1_5 O2_5 1_555 1_555
C2_5 C1_5 1_555 1_555
C6_5 C2_5 1_555 1_555
H4_5 C6_5 1_555 1_555
N2_5 Cd3_3 1_555 1_555
C7_5 N2_5 1_555 1_555
H5_5 C7_5 1_555 1_555
C8_5 C7_5 1_555 1_555
C9_5 C8_5 1_555 1_555
C11_5 N2_5 1_555 1_555
H8_5 C11_5 1_555 1_555
O5_5 Cd3_3 1_555 1_555
H9_5 O5_5 1_555 1_555
H10_5 O5_5 1_555 1_555
N3_3 Cd3_3 1_555 1_555
H2_5 C4_5 1_555 1_555
N3_3 C4_5 1_555 1_555
C5_5 N3_3 1_555 1_555
H3_5 C5_5 1_555 1_555
Cd1_2 O1_6 1_555 1_555
O1_6 C1_6 1_555 1_555
O2_6 Cd1_2 1_555 1_555
C1_6 O2_6 1_555 1_555
C2_6 C1_6 1_555 1_555
C3_5 C2_6 1_555 1_555
H1_6 C3_5 1_555 1_555
C4_6 C3_5 1_555 1_555
H2_6 C4_6 1_555 1_555
N1_3 C4_6 1_555 1_555
C5_6 N1_3 1_555 1_555
H3_6 C5_6 1_555 1_555
C6_6 C2_6 1_555 1_555
H4_6 C6_6 1_555 1_555
N2_6 Cd1_2 1_555 1_555
C7_6 N2_6 1_555 1_555
H5_6 C7_6 1_555 1_555
C8_6 C7_6 1_555 1_555
H6_5 C8_6 1_555 1_555
C9_6 C8_6 1_555 1_555
C11_6 N2_6 1_555 1_555
H8_6 C11_6 1_555 1_555
O5_6 Cd1_2 1_555 1_555
H9_6 O5_6 1_555 1_555
H10_6 O5_6 1_555 1_555
Cd2_2 N1_3 1_555 1_555
N3_4 Cd1_2 1_555 1_555
O6_3 Cd1_2 1_555 1_555
O7_3 Cd1_2 1_555 1_555
C5_6 C6_6 1_555 1_555
O3_4 C12_6 1_555 1_555
O4_4 C12_6 1_555 1_555
Cd3_4 O3_4 1_555 1_555
O4_4 Cd3_4 1_555 1_555
Cd2_2 O1_7 1_555 1_555
O1_7 C1_7 1_555 1_555
O2_7 Cd2_2 1_555 1_555
C1_7 O2_7 1_555 1_555
C2_7 C1_7 1_555 1_555
C3_6 C2_7 1_555 1_555
H1_7 C3_6 1_555 1_555
N2_7 Cd2_2 1_555 1_555
C7_7 N2_7 1_555 1_555
H5_7 C7_7 1_555 1_555
C8_7 C7_7 1_555 1_555
C9_7 C8_7 1_555 1_555
C10_6 C9_7 1_555 1_555
H7_6 C10_6 1_555 1_555
C11_7 N2_7 1_555 1_555
H8_7 C11_7 1_555 1_555
O5_7 Cd2_2 1_555 1_555
H9_7 O5_7 1_555 1_555
H10_7 O5_7 1_555 1_555
O6_4 Cd2_2 1_555 1_555
O7_4 Cd2_2 1_555 1_555
C10_6 C11_7 1_555 1_555
H2_7 C4_7 1_555 1_555
N3_4 C4_7 1_555 1_555
C5_7 N3_4 1_555 1_555
H3_7 C5_7 1_555 1_555
H4_7 C6_7 1_555 1_555
C5_7 C6_7 1_555 1_555
C4_8 C3_7 1_555 1_555
H2_8 C4_8 1_555 1_555
N1_4 C4_8 1_555 1_555
C5_8 N1_4 1_555 1_555
H3_8 C5_8 1_555 1_555
Cd3_4 N1_4 1_555 1_555
O6_3 C12_7 1_555 1_555
O7_3 C12_7 1_555 1_555
Cd3_4 O1_8 1_555 1_555
O1_8 C1_8 1_555 1_555
O2_8 Cd3_4 1_555 1_555
C1_8 O2_8 1_555 1_555
C2_8 C1_8 1_555 1_555
N2_8 Cd3_4 1_555 1_555
C7_8 N2_8 1_555 1_555
H5_8 C7_8 1_555 1_555
C8_8 C7_8 1_555 1_555
H6_7 C8_8 1_555 1_555
C9_8 C8_8 1_555 1_555
C10_7 C9_8 1_555 1_555
H7_7 C10_7 1_555 1_555
C11_8 N2_8 1_555 1_555
H8_8 C11_8 1_555 1_555
C12_8 C9_8 1_555 1_555
O6_4 C12_8 1_555 1_555
O7_4 C12_8 1_555 1_555
O5_8 Cd3_4 1_555 1_555
H9_8 O5_8 1_555 1_555
H10_8 O5_8 1_555 1_555
C10_7 C11_8 1_555 1_555
H7_8 C10_8 1_555 1_555
H4_8 C6_8 1_555 1_555

#END
