
###############################################################################
#
# This file contains modified crystal structure data generated from the
# MOF subset of the Cambridge Structural Database (CSD) v543 
# hosted by the Cambridge Crystallographic Data Centre (CCDC).
#
# This work is licensed under the Creative Commons
# Attribution-NonCommercial-ShareAlike 4.0 International License.
# To view a copy of this license, visit
# http://creativecommons.org/licenses/by-nc-sa/4.0/
# or send a letter to
# Creative Commons, PO Box 1866, Mountain View, CA 94042, USA.
#
# CIF created using the CSD Python API on 29 September 2022
# The structure has been converted into the P1 space group
# The structure has a 3D framework
# The original CSD entry AVAQIX is in the orthorhombic crystal system
# The framework has been calculated to contain at least 10.0% void space
# The void calculation uses a probe of radius 1.32A, grid spacing 0.4
#
###############################################################################

data_AVAQIX
_chemical_formula_moiety         '(C96 H80 Cd8 N16 O40)n'
_symmetry_cell_setting           triclinic
_symmetry_space_group_name_H-M   'P 1'
_symmetry_Int_Tables_number      1
_space_group_name_Hall           'P 1'
loop_
_symmetry_equiv_pos_site_id
_symmetry_equiv_pos_as_xyz
1 x,y,z
_cell_length_a                   12.3397(6)
_cell_length_b                   15.5050(8)
_cell_length_c                   18.9437(10)
_cell_angle_alpha                90
_cell_angle_beta                 90
_cell_angle_gamma                90
_cell_volume                     3624.44
loop_
_atom_site_label
_atom_site_type_symbol
_atom_site_fract_x
_atom_site_fract_y
_atom_site_fract_z
Cd1 Cd 0.311340(8) 0.216005(6) 0.682185(6)
O1 O 0.47841(11) 0.15007(7) 0.74117(8)
O2 O 0.35107(11) 0.06985(8) 0.69414(8)
O3 O 0.15422(11) 0.17189(9) 0.61663(7)
O4 O 0.19024(9) 0.31116(9) 0.61708(7)
O5 O 0.19832(13) 0.20297(9) 0.77944(8)
H2 H 0.6043 0.0499 0.8156
C6 C 0.43867(13) 0.07856(10) 0.72583(9)
C9 C 0.05386(13) 0.26105(11) 0.53936(8)
C10 C 0.06265(18) 0.32916(14) 0.49360(11)
H7 H 0.1159 0.3708 0.5004
H8 H 0.0006 0.3816 0.4063
C12 C 0.13778(12) 0.24714(11) 0.59606(8)
H9 H 0.223(2) 0.171(2) 0.8086(14)
H10 H 0.143(2) 0.1862(17) 0.7683(15)
N3 N 0.38933(11) 0.34626(8) 0.72034(7)
N4 N 0.41285(13) 0.22042(9) 0.57449(8)
N1 N 0.61067(11) 0.84626(8) 0.77966(7)
C1 C 0.63670(15) 0.92202(11) 0.80928(9)
H1 H 0.6930 0.9232 0.8419
C2 C 0.58392(14) 0.99871(10) 0.79369(10)
C3 C 0.50051(13) 0.99756(9) 0.74509(9)
C4 C 0.47416(15) 0.91984(10) 0.71317(10)
H3 H 0.4193 0.9172 0.6796
C5 C 0.53064(15) 0.84643(10) 0.73208(10)
H4 H 0.5121 0.7945 0.7106
Cd2 Cd 0.688660(8) 0.716005(6) 0.817815(6)
N2 N 0.91285(13) 0.27958(9) 0.42551(8)
C7 C 0.90185(17) 0.21581(12) 0.47191(12)
H5 H 0.8451 0.1771 0.4657
C8 C 0.97017(17) 0.20392(13) 0.52890(11)
H6 H 0.9597 0.1580 0.5597
C11 C 0.99217(19) 0.33567(14) 0.43742(12)
Cd3 Cd 0.811340(8) 0.283995(6) 0.317815(6)
N2_2 N 0.58715(13) 0.72042(9) 0.92551(8)
C7_2 C 0.59815(17) 0.78419(12) 0.97191(12)
H5_2 H 0.6549 0.8229 0.9657
C10_2 C 0.43735(18) 0.67084(14) 0.99360(11)
C11_2 C 0.50783(19) 0.66433(14) 0.93742(12)
H8_2 H 0.4994 0.6184 0.9063
N1_2 N 0.88933(11) 0.15374(8) 0.27966(7)
C1_2 C 0.86330(15) 0.07798(11) 0.30928(9)
H1_2 H 0.8070 0.0768 0.3419
C2_2 C 0.91608(14) 0.00129(10) 0.29369(10)
C3_2 C 0.99949(13) 0.00244(9) 0.24509(9)
C5_2 C 0.96936(15) 0.15357(10) 0.23208(10)
H4_2 H 0.9879 0.2055 0.2106
O1_2 O 0.52159(11) 0.65007(7) 0.75883(8)
O2_2 O 0.64893(11) 0.56985(8) 0.80586(8)
O3_2 O 0.84578(11) 0.67189(9) 0.88337(7)
O4_2 O 0.80976(9) 0.81116(9) 0.88292(7)
O5_2 O 0.80168(13) 0.70297(9) 0.72056(8)
C1_3 C 0.36330(15) 0.42202(11) 0.69072(9)
H1_3 H 0.3070 0.4232 0.6581
C2_3 C 0.41608(14) 0.49871(10) 0.70631(10)
H2_2 H 0.3957 0.5499 0.6844
C3_3 C 0.49949(13) 0.49756(9) 0.75491(9)
C4_2 C 0.52584(15) 0.41984(10) 0.78683(10)
H3_2 H 0.5807 0.4172 0.8204
C5_3 C 0.46936(15) 0.34643(10) 0.76792(10)
H4_3 H 0.4879 0.2945 0.7894
C6_2 C 0.56133(13) 0.57856(10) 0.77417(9)
C9_2 C 0.94614(13) 0.76105(11) 0.96064(8)
H7_2 H 0.8841 0.8708 0.9996
C12_2 C 0.86222(12) 0.74714(11) 0.90394(8)
H9_2 H 0.777(2) 0.671(2) 0.6914(14)
H10_2 H 0.857(2) 0.6862(17) 0.7317(15)
O1_3 O 0.97841(11) 0.34993(7) 0.25883(8)
O2_3 O 0.85107(11) 0.43015(8) 0.30586(8)
O3_3 O 0.65422(11) 0.32811(9) 0.38337(7)
O4_3 O 0.69024(9) 0.18884(9) 0.38292(7)
O5_3 O 0.69832(13) 0.29703(9) 0.22056(8)
C4_3 C 0.97416(15) 0.58016(10) 0.28683(10)
H3_3 H 0.9193 0.5828 0.3204
C6_3 C 0.93867(13) 0.42144(10) 0.27417(9)
C7_3 C 0.40185(17) 0.28419(12) 0.52809(12)
H5_3 H 0.3451 0.3229 0.5343
C8_2 C 0.47017(17) 0.29608(13) 0.47110(11)
H6_2 H 0.4597 0.3420 0.4403
C9_3 C 0.55386(13) 0.23895(11) 0.46064(8)
C10_3 C 0.56265(18) 0.17084(14) 0.50640(11)
H7_3 H 0.6159 0.1292 0.4996
C11_3 C 0.49217(19) 0.16433(14) 0.56258(12)
H8_3 H 0.5006 0.1184 0.5937
C12_3 C 0.63778(12) 0.25286(11) 0.40394(8)
H9_3 H 0.723(2) 0.329(2) 0.1914(14)
H10_3 H 0.643(2) 0.3138(17) 0.2317(15)
C4_4 C 0.02584(15) 0.08016(10) 0.21317(10)
H3_4 H 0.0807 0.0828 0.1796
Cd1_2 Cd 0.188660(8) 0.783995(6) 0.182185(6)
O1_4 O 0.02159(11) 0.84993(7) 0.24117(8)
O2_4 O 0.14893(11) 0.93015(8) 0.19414(8)
O3_4 O 0.34578(11) 0.82811(9) 0.11663(7)
O4_4 O 0.30976(9) 0.68884(9) 0.11708(7)
O5_4 O 0.30168(13) 0.79703(9) 0.27944(8)
C6_4 C 0.06133(13) 0.92144(10) 0.22583(9)
C8_3 C 0.52983(17) 0.79608(13) 0.02890(11)
H6_3 H 0.5403 0.8420 0.0597
C9_4 C 0.44614(13) 0.73895(11) 0.03936(8)
H7_4 H 0.3841 0.6292 0.0004
C12_4 C 0.36222(12) 0.75286(11) 0.09606(8)
H9_4 H 0.277(2) 0.829(2) 0.3086(14)
H10_4 H 0.357(2) 0.8138(17) 0.2683(15)
N3_2 N 0.11067(11) 0.65374(8) 0.22034(7)
N4_2 N 0.08715(13) 0.77958(9) 0.07449(8)
C7_4 C 0.09815(17) 0.71581(12) 0.02809(12)
H5_4 H 0.1549 0.6771 0.0343
C11_4 C 0.00783(19) 0.83567(14) 0.06258(12)
C1_4 C 0.13670(15) 0.57798(11) 0.19072(9)
H1_4 H 0.1930 0.5768 0.1581
C2_4 C 0.08392(14) 0.50129(10) 0.20631(10)
H2_3 H 0.1043 0.4501 0.1844
C3_4 C 0.00051(13) 0.50244(9) 0.25491(9)
C5_4 C 0.03064(15) 0.65357(10) 0.26792(10)
H4_4 H 0.0121 0.7055 0.2894
H2_4 H 0.8957 0.9501 0.3156
C8_4 C 0.02983(17) 0.70392(13) 0.97110(11)
H6_4 H 0.0403 0.6580 0.9403
C10_4 C 0.93735(18) 0.82916(14) 0.00640(11)
H8_4 H 0.9994 0.8816 0.0937
N2_3 N 0.08715(13) 0.72042(9) 0.57449(8)
C7_5 C 0.09815(17) 0.78419(12) 0.52809(12)
H5_5 H 0.1549 0.8229 0.5343
C8_5 C 0.02983(17) 0.79608(13) 0.47110(11)
H6_5 H 0.0403 0.8420 0.4403
C11_5 C 0.00783(19) 0.66433(14) 0.56258(12)
Cd3_2 Cd 0.188660(8) 0.716005(6) 0.682185(6)
N1_3 N 0.38933(11) 0.15374(8) 0.22034(7)
C1_5 C 0.36330(15) 0.07798(11) 0.19072(9)
H1_5 H 0.3070 0.0768 0.1581
C2_5 C 0.41608(14) 0.00129(10) 0.20631(10)
C3_5 C 0.49949(13) 0.00244(9) 0.25491(9)
C4_5 C 0.52584(15) 0.08016(10) 0.28683(10)
H3_5 H 0.5807 0.0828 0.3204
C5_5 C 0.46936(15) 0.15357(10) 0.26792(10)
H4_5 H 0.4879 0.2055 0.2894
Cd2_2 Cd 0.311340(8) 0.283995(6) 0.182185(6)
Cd1_3 Cd 0.688660(8) 0.783995(6) 0.317815(6)
O1_5 O 0.52159(11) 0.84993(7) 0.25883(8)
O2_5 O 0.64893(11) 0.93015(8) 0.30586(8)
O3_5 O 0.84578(11) 0.82811(9) 0.38337(7)
O4_5 O 0.80976(9) 0.68884(9) 0.38292(7)
O5_5 O 0.80168(13) 0.79703(9) 0.22056(8)
H2_5 H 0.3957 0.9501 0.1844
C6_5 C 0.56133(13) 0.92144(10) 0.27417(9)
C9_5 C 0.94614(13) 0.73895(11) 0.46064(8)
C10_5 C 0.93735(18) 0.67084(14) 0.50640(11)
H7_5 H 0.8841 0.6292 0.4996
H8_5 H 0.9994 0.6184 0.5937
C12_5 C 0.86222(12) 0.75286(11) 0.40394(8)
H9_5 H 0.777(2) 0.829(2) 0.1914(14)
H10_5 H 0.857(2) 0.8138(17) 0.2317(15)
N3_3 N 0.61067(11) 0.65374(8) 0.27966(7)
N4_3 N 0.58715(13) 0.77958(9) 0.42551(8)
N1_4 N 0.11067(11) 0.84626(8) 0.72034(7)
C1_6 C 0.13670(15) 0.92202(11) 0.69072(9)
H1_6 H 0.1930 0.9232 0.6581
C2_6 C 0.08392(14) 0.99871(10) 0.70631(10)
C3_6 C 0.00051(13) 0.99756(9) 0.75491(9)
C5_6 C 0.03064(15) 0.84643(10) 0.76792(10)
H4_6 H 0.0121 0.7945 0.7894
N2_4 N 0.41285(13) 0.27958(9) 0.07449(8)
C7_6 C 0.40185(17) 0.21581(12) 0.02809(12)
H5_6 H 0.3451 0.1771 0.0343
C10_6 C 0.56265(18) 0.32916(14) 0.00640(11)
C11_6 C 0.49217(19) 0.33567(14) 0.06258(12)
H8_6 H 0.5006 0.3816 0.0937
O1_6 O 0.47841(11) 0.34993(7) 0.24117(8)
O2_6 O 0.35107(11) 0.43015(8) 0.19414(8)
O3_6 O 0.15422(11) 0.32811(9) 0.11663(7)
O4_6 O 0.19024(9) 0.18884(9) 0.11708(7)
O5_6 O 0.19832(13) 0.29703(9) 0.27944(8)
C1_7 C 0.63670(15) 0.57798(11) 0.30928(9)
H1_7 H 0.6930 0.5768 0.3419
C2_7 C 0.58392(14) 0.50129(10) 0.29369(10)
H2_6 H 0.6043 0.4501 0.3156
C3_7 C 0.50051(13) 0.50244(9) 0.24509(9)
C4_6 C 0.47416(15) 0.58016(10) 0.21317(10)
H3_6 H 0.4193 0.5828 0.1796
C5_7 C 0.53064(15) 0.65357(10) 0.23208(10)
H4_7 H 0.5121 0.7055 0.2106
C6_6 C 0.43867(13) 0.42144(10) 0.22583(9)
C9_6 C 0.05386(13) 0.23895(11) 0.03936(8)
H7_6 H 0.1159 0.1292 0.0004
C12_6 C 0.13778(12) 0.25286(11) 0.09606(8)
H9_6 H 0.223(2) 0.329(2) 0.3086(14)
H10_6 H 0.143(2) 0.3138(17) 0.2683(15)
O1_7 O 0.02159(11) 0.65007(7) 0.74117(8)
O2_7 O 0.14893(11) 0.56985(8) 0.69414(8)
O3_7 O 0.34578(11) 0.67189(9) 0.61663(7)
O4_7 O 0.30976(9) 0.81116(9) 0.61708(7)
O5_7 O 0.30168(13) 0.70297(9) 0.77944(8)
C4_7 C 0.02584(15) 0.41984(10) 0.71317(10)
H3_7 H 0.0807 0.4172 0.6796
C6_7 C 0.06133(13) 0.57856(10) 0.72583(9)
C7_7 C 0.59815(17) 0.71581(12) 0.47191(12)
H5_7 H 0.6549 0.6771 0.4657
C8_6 C 0.52983(17) 0.70392(13) 0.52890(11)
H6_6 H 0.5403 0.6580 0.5597
C9_7 C 0.44614(13) 0.76105(11) 0.53936(8)
C10_7 C 0.43735(18) 0.82916(14) 0.49360(11)
H7_7 H 0.3841 0.8708 0.5004
C11_7 C 0.50783(19) 0.83567(14) 0.43742(12)
H8_7 H 0.4994 0.8816 0.4063
C12_7 C 0.36222(12) 0.74714(11) 0.59606(8)
H9_7 H 0.277(2) 0.671(2) 0.8086(14)
H10_7 H 0.357(2) 0.6862(17) 0.7683(15)
H2_7 H 0.1043 0.0499 0.6844
Cd1_4 Cd 0.811340(8) 0.216005(6) 0.817815(6)
O1_8 O 0.97841(11) 0.15007(7) 0.75883(8)
O2_8 O 0.85107(11) 0.06985(8) 0.80586(8)
O3_8 O 0.65422(11) 0.17189(9) 0.88337(7)
O4_8 O 0.69024(9) 0.31116(9) 0.88292(7)
O5_8 O 0.69832(13) 0.20297(9) 0.72056(8)
C6_8 C 0.93867(13) 0.07856(10) 0.77417(9)
C8_7 C 0.47017(17) 0.20392(13) 0.97110(11)
H6_7 H 0.4597 0.1580 0.9403
C9_8 C 0.55386(13) 0.26105(11) 0.96064(8)
H7_8 H 0.6159 0.3708 0.9996
C12_8 C 0.63778(12) 0.24714(11) 0.90394(8)
H9_8 H 0.723(2) 0.171(2) 0.6914(14)
H10_8 H 0.643(2) 0.1862(17) 0.7317(15)
N3_4 N 0.88933(11) 0.34626(8) 0.77966(7)
N4_4 N 0.91285(13) 0.22042(9) 0.92551(8)
C7_8 C 0.90185(17) 0.28419(12) 0.97191(12)
H5_8 H 0.8451 0.3229 0.9657
C11_8 C 0.99217(19) 0.16433(14) 0.93742(12)
C1_8 C 0.86330(15) 0.42202(11) 0.80928(9)
H1_8 H 0.8070 0.4232 0.8419
C2_8 C 0.91608(14) 0.49871(10) 0.79369(10)
H2_8 H 0.8957 0.5499 0.8156
C3_8 C 0.99949(13) 0.49756(9) 0.74509(9)
C5_8 C 0.96936(15) 0.34643(10) 0.73208(10)
H4_8 H 0.9879 0.2945 0.7106
C4_8 C 0.97416(15) 0.91984(10) 0.78683(10)
H3_8 H 0.9193 0.9172 0.8204
C10_8 C 0.06265(18) 0.17084(14) 0.99360(11)
H8_8 H 0.0006 0.1184 0.9063
C8_8 C 0.97017(17) 0.29608(13) 0.02890(11)
H6_8 H 0.9597 0.3420 0.0597
loop_
_geom_bond_atom_site_label_1
_geom_bond_atom_site_label_2
_geom_bond_site_symmetry_1
_geom_bond_site_symmetry_2
Cd1 O1 1_555 1_555
O1 C6 1_555 1_555
O2 Cd1 1_555 1_555
O3 Cd1 1_555 1_555
O4 Cd1 1_555 1_555
O5 Cd1 1_555 1_555
C6 O2 1_555 1_555
C10 C9 1_555 1_555
H7 C10 1_555 1_555
C12 O3 1_555 1_555
H9 O5 1_555 1_555
H10 O5 1_555 1_555
N3 Cd1 1_555 1_555
N4 Cd1 1_555 1_555
O4 C12 1_555 1_555
C9 C12 1_555 1_555
N1 C1 1_555 1_555
C1 H1 1_555 1_555
C2 C1 1_555 1_555
C3 C2 1_555 1_555
C4 C3 1_555 1_555
H3 C4 1_555 1_555
C5 N1 1_555 1_555
H4 C5 1_555 1_555
Cd2 N1 1_555 1_555
C4 C5 1_555 1_555
N2 C7 1_555 1_555
C7 H5 1_555 1_555
C8 C7 1_555 1_555
H6 C8 1_555 1_555
C11 N2 1_555 1_555
Cd3 N2 1_555 1_555
N2_2 C7_2 1_555 1_555
C7_2 H5_2 1_555 1_555
C11_2 N2_2 1_555 1_555
H8_2 C11_2 1_555 1_555
Cd2 N2_2 1_555 1_555
C10_2 C11_2 1_555 1_555
N1_2 C1_2 1_555 1_555
C1_2 H1_2 1_555 1_555
C2_2 C1_2 1_555 1_555
C3_2 C2_2 1_555 1_555
C5_2 N1_2 1_555 1_555
H4_2 C5_2 1_555 1_555
Cd3 N1_2 1_555 1_555
Cd2 O1_2 1_555 1_555
O1_2 C6_2 1_555 1_555
O2_2 Cd2 1_555 1_555
O3_2 Cd2 1_555 1_555
O4_2 Cd2 1_555 1_555
O5_2 Cd2 1_555 1_555
N3 C1_3 1_555 1_555
C1_3 H1_3 1_555 1_555
C2_3 C1_3 1_555 1_555
H2_2 C2_3 1_555 1_555
C3_3 C2_3 1_555 1_555
C4_2 C3_3 1_555 1_555
H3_2 C4_2 1_555 1_555
C5_3 N3 1_555 1_555
H4_3 C5_3 1_555 1_555
C6_2 O2_2 1_555 1_555
C12_2 O3_2 1_555 1_555
H9_2 O5_2 1_555 1_555
H10_2 O5_2 1_555 1_555
O4_2 C12_2 1_555 1_555
C3_3 C6_2 1_555 1_555
C4_2 C5_3 1_555 1_555
C9_2 C12_2 1_555 1_555
Cd3 O1_3 1_555 1_555
O1_3 C6_3 1_555 1_555
O2_3 Cd3 1_555 1_555
O3_3 Cd3 1_555 1_555
O4_3 Cd3 1_555 1_555
O5_3 Cd3 1_555 1_555
N4 C7_3 1_555 1_555
H3_3 C4_3 1_555 1_555
C6_3 O2_3 1_555 1_555
C7_3 H5_3 1_555 1_555
C8_2 C7_3 1_555 1_555
H6_2 C8_2 1_555 1_555
C9_3 C8_2 1_555 1_555
C10_3 C9_3 1_555 1_555
H7_3 C10_3 1_555 1_555
C11_3 N4 1_555 1_555
H8_3 C11_3 1_555 1_555
C12_3 O3_3 1_555 1_555
H9_3 O5_3 1_555 1_555
H10_3 O5_3 1_555 1_555
O4_3 C12_3 1_555 1_555
C9_3 C12_3 1_555 1_555
C10_3 C11_3 1_555 1_555
H3_4 C4_4 1_555 1_555
Cd1_2 O1_4 1_555 1_555
O1_4 C6_4 1_555 1_555
O2_4 Cd1_2 1_555 1_555
O3_4 Cd1_2 1_555 1_555
O4_4 Cd1_2 1_555 1_555
O5_4 Cd1_2 1_555 1_555
C6_4 O2_4 1_555 1_555
H6_3 C8_3 1_555 1_555
C9_4 C8_3 1_555 1_555
C12_4 O3_4 1_555 1_555
H9_4 O5_4 1_555 1_555
H10_4 O5_4 1_555 1_555
N3_2 Cd1_2 1_555 1_555
N4_2 Cd1_2 1_555 1_555
O4_4 C12_4 1_555 1_555
C9_4 C12_4 1_555 1_555
N4_2 C7_4 1_555 1_555
C7_4 H5_4 1_555 1_555
C11_4 N4_2 1_555 1_555
N3_2 C1_4 1_555 1_555
C1_4 H1_4 1_555 1_555
C2_4 C1_4 1_555 1_555
H2_3 C2_4 1_555 1_555
C3_4 C2_4 1_555 1_555
C5_4 N3_2 1_555 1_555
H4_4 C5_4 1_555 1_555
H6_4 C8_4 1_555 1_555
N2_3 C7_5 1_555 1_555
C7_5 H5_5 1_555 1_555
C8_5 C7_5 1_555 1_555
H6_5 C8_5 1_555 1_555
C11_5 N2_3 1_555 1_555
Cd3_2 N2_3 1_555 1_555
N1_3 C1_5 1_555 1_555
C1_5 H1_5 1_555 1_555
C2_5 C1_5 1_555 1_555
C3_5 C2_5 1_555 1_555
C4_5 C3_5 1_555 1_555
H3_5 C4_5 1_555 1_555
C5_5 N1_3 1_555 1_555
H4_5 C5_5 1_555 1_555
Cd2_2 N1_3 1_555 1_555
C4_5 C5_5 1_555 1_555
Cd1_3 O1_5 1_555 1_555
O1_5 C6_5 1_555 1_555
O2_5 Cd1_3 1_555 1_555
O3_5 Cd1_3 1_555 1_555
O4_5 Cd1_3 1_555 1_555
O5_5 Cd1_3 1_555 1_555
C6_5 O2_5 1_555 1_555
C10_5 C9_5 1_555 1_555
H7_5 C10_5 1_555 1_555
C12_5 O3_5 1_555 1_555
H9_5 O5_5 1_555 1_555
H10_5 O5_5 1_555 1_555
N3_3 Cd1_3 1_555 1_555
N4_3 Cd1_3 1_555 1_555
O4_5 C12_5 1_555 1_555
C9_5 C12_5 1_555 1_555
N1_4 C1_6 1_555 1_555
C1_6 H1_6 1_555 1_555
C2_6 C1_6 1_555 1_555
C3_6 C2_6 1_555 1_555
C5_6 N1_4 1_555 1_555
H4_6 C5_6 1_555 1_555
Cd3_2 N1_4 1_555 1_555
N2_4 C7_6 1_555 1_555
C7_6 H5_6 1_555 1_555
C11_6 N2_4 1_555 1_555
H8_6 C11_6 1_555 1_555
Cd2_2 N2_4 1_555 1_555
C10_6 C11_6 1_555 1_555
Cd2_2 O1_6 1_555 1_555
O1_6 C6_6 1_555 1_555
O2_6 Cd2_2 1_555 1_555
O3_6 Cd2_2 1_555 1_555
O4_6 Cd2_2 1_555 1_555
O5_6 Cd2_2 1_555 1_555
N3_3 C1_7 1_555 1_555
C1_7 H1_7 1_555 1_555
C2_7 C1_7 1_555 1_555
H2_6 C2_7 1_555 1_555
C3_7 C2_7 1_555 1_555
C4_6 C3_7 1_555 1_555
H3_6 C4_6 1_555 1_555
C5_7 N3_3 1_555 1_555
H4_7 C5_7 1_555 1_555
C6_6 O2_6 1_555 1_555
C12_6 O3_6 1_555 1_555
H9_6 O5_6 1_555 1_555
H10_6 O5_6 1_555 1_555
O4_6 C12_6 1_555 1_555
C3_7 C6_6 1_555 1_555
C4_6 C5_7 1_555 1_555
C9_6 C12_6 1_555 1_555
Cd3_2 O1_7 1_555 1_555
O1_7 C6_7 1_555 1_555
O2_7 Cd3_2 1_555 1_555
O3_7 Cd3_2 1_555 1_555
O4_7 Cd3_2 1_555 1_555
O5_7 Cd3_2 1_555 1_555
N4_3 C7_7 1_555 1_555
H3_7 C4_7 1_555 1_555
C6_7 O2_7 1_555 1_555
C7_7 H5_7 1_555 1_555
C8_6 C7_7 1_555 1_555
H6_6 C8_6 1_555 1_555
C9_7 C8_6 1_555 1_555
C10_7 C9_7 1_555 1_555
H7_7 C10_7 1_555 1_555
C11_7 N4_3 1_555 1_555
H8_7 C11_7 1_555 1_555
C12_7 O3_7 1_555 1_555
H9_7 O5_7 1_555 1_555
H10_7 O5_7 1_555 1_555
O4_7 C12_7 1_555 1_555
C9_7 C12_7 1_555 1_555
C10_7 C11_7 1_555 1_555
Cd1_4 O1_8 1_555 1_555
O1_8 C6_8 1_555 1_555
O2_8 Cd1_4 1_555 1_555
O3_8 Cd1_4 1_555 1_555
O4_8 Cd1_4 1_555 1_555
O5_8 Cd1_4 1_555 1_555
C6_8 O2_8 1_555 1_555
H6_7 C8_7 1_555 1_555
C9_8 C8_7 1_555 1_555
C12_8 O3_8 1_555 1_555
H9_8 O5_8 1_555 1_555
H10_8 O5_8 1_555 1_555
N3_4 Cd1_4 1_555 1_555
N4_4 Cd1_4 1_555 1_555
O4_8 C12_8 1_555 1_555
C9_8 C12_8 1_555 1_555
N4_4 C7_8 1_555 1_555
C7_8 H5_8 1_555 1_555
C11_8 N4_4 1_555 1_555
N3_4 C1_8 1_555 1_555
C1_8 H1_8 1_555 1_555
C2_8 C1_8 1_555 1_555
H2_8 C2_8 1_555 1_555
C3_8 C2_8 1_555 1_555
C5_8 N3_4 1_555 1_555
H4_8 C5_8 1_555 1_555
H3_8 C4_8 1_555 1_555
H6_8 C8_8 1_555 1_555

#END
