
###############################################################################
#
# This file contains modified crystal structure data generated from the
# MOF subset of the Cambridge Structural Database (CSD) v543 
# hosted by the Cambridge Crystallographic Data Centre (CCDC).
#
# This work is licensed under the Creative Commons
# Attribution-NonCommercial-ShareAlike 4.0 International License.
# To view a copy of this license, visit
# http://creativecommons.org/licenses/by-nc-sa/4.0/
# or send a letter to
# Creative Commons, PO Box 1866, Mountain View, CA 94042, USA.
#
# CIF created using the CSD Python API on 29 September 2022
# The structure has been converted into the P1 space group
# The structure has a 3D framework
# The original CSD entry AVELOD is in the tetragonal crystal system
# The framework has been calculated to contain at least 10.0% void space
# The void calculation uses a probe of radius 1.32A, grid spacing 0.4
# H atom positions have been added when not included in the experimental data
#
###############################################################################

data_AVELOD
_chemical_formula_moiety         '(C120 H128 Cu6 N24 O16)n'
_symmetry_cell_setting           triclinic
_symmetry_space_group_name_H-M   'P 1'
_symmetry_Int_Tables_number      1
_space_group_name_Hall           'P 1'
loop_
_symmetry_equiv_pos_site_id
_symmetry_equiv_pos_as_xyz
1 x,y,z
_cell_length_a                   13.7561(3)
_cell_length_b                   13.7561(3)
_cell_length_c                   25.5306(12)
_cell_angle_alpha                90
_cell_angle_beta                 90
_cell_angle_gamma                90
_cell_volume                     4831.16
loop_
_atom_site_label
_atom_site_type_symbol
_atom_site_fract_x
_atom_site_fract_y
_atom_site_fract_z
Cu1 Cu 0.09339(8) 0.24926(11) 0.47627(6)
N1 N 0.0304(6) 0.3016(7) 0.4108(3)
N2 N 0.2191(7) 0.3127(7) 0.4595(4)
N3 N 0.1374(7) 0.2098(7) 0.5480(3)
H1 H 0.1971 0.2027 0.5571
C2 C 0.0575(9) 0.1952(10) 0.5812(4)
H2 H 0.0461 0.2566 0.5997
C3 C 0.0730(12) 0.1184(15) 0.6221(6)
H3 H 0.0809 0.0563 0.6054
H4 H 0.0177 0.1162 0.6450
H5 H 0.1302 0.1334 0.6420
C4 C 0.0666(12) 0.2837(11) 0.3643(5)
H6 H 0.1214 0.2443 0.3621
C5 C 0.0280(10) 0.3199(12) 0.3186(5)
H7 H 0.0574 0.3068 0.2866
C10 C 0.3042(9) 0.2670(9) 0.4551(6)
H11 H 0.3026 0.1998 0.4586
C11 C 0.3897(10) 0.3055(12) 0.4466(7)
H12 H 0.4450 0.2666 0.4458
C12 C 0.3969(10) 0.4057(10) 0.4385(5)
C13 C 0.3086(11) 0.4596(11) 0.4421(5)
H13 H 0.3081 0.5268 0.4382
C14 C 0.2229(10) 0.4081(10) 0.4518(5)
H14 H 0.1649 0.4428 0.4529
C15 C 0.4926(9) 0.4538(10) 0.4328(6)
H15 H 0.5467 0.4139 0.4289
Cu5 Cu 0.90661(8) 0.75074(11) 0.47627(6)
O3 O 0.2017(6) 0.0303(5) 0.4993(3)
O4 O 0.1361(7) 0.1094(5) 0.4318(3)
N6 N 0.7809(7) 0.6873(7) 0.4595(4)
C16 C 0.1711(8) 0.0395(8) 0.4513(5)
C25 C 0.6958(9) 0.7330(9) 0.4551(6)
H26 H 0.6974 0.8002 0.4586
C26 C 0.6103(10) 0.6945(12) 0.4466(7)
H27 H 0.5550 0.7334 0.4458
C27 C 0.6031(10) 0.5943(10) 0.4385(5)
C28 C 0.6914(11) 0.5404(11) 0.4421(5)
H28 H 0.6919 0.4732 0.4382
C29 C 0.7771(10) 0.5919(10) 0.4518(5)
H29 H 0.8351 0.5572 0.4529
C30 C 0.5074(9) 0.5462(10) 0.4328(6)
H30 H 0.4533 0.5861 0.4289
H31 H 0.140072 0.280719 0.558879
C6 C 0.3773(9) 0.0568(9) 0.6790(5)
C7 C 0.3945(10) 0.0931(12) 0.6309(7)
H8 H 0.4327 0.1485 0.6273
C8 C 0.3550(10) 0.0480(10) 0.5856(5)
H9 H 0.3673 0.0747 0.5527
C9 C 0.4170(11) 0.1042(10) 0.7255(5)
H10 H 0.4615 0.1540 0.7200
Cu4 Cu 0.59339(8) 0.25074(11) 0.97627(6)
N4 N 0.5304(6) 0.1984(7) 0.9108(3)
C19 C 0.5666(12) 0.2163(11) 0.8643(5)
H21 H 0.6214 0.2557 0.8621
C20 C 0.5280(10) 0.1801(12) 0.8186(5)
H22 H 0.5574 0.1932 0.7866
C21 C 0.4432(9) 0.1227(9) 0.8210(5)
C22 C 0.4069(12) 0.1055(10) 0.8691(7)
H23 H 0.3515 0.0673 0.8727
C23 C 0.4520(10) 0.1450(10) 0.9144(5)
H24 H 0.4253 0.1327 0.9473
C24 C 0.3958(10) 0.0830(11) 0.7745(5)
H25 H 0.3460 0.0385 0.7800
O5 O 0.8639(7) 0.8906(5) 0.4318(3)
N5 N 0.9696(6) 0.6984(7) 0.4108(3)
N8 N 0.8626(7) 0.7902(7) 0.5480(3)
H16 H 0.8029 0.7973 0.5571
C17 C 0.9425(9) 0.8048(10) 0.5812(4)
H17 H 0.9539 0.7434 0.5997
C18 C 0.9270(12) 0.8816(15) 0.6221(6)
H18 H 0.9191 0.9437 0.6054
H19 H 0.9823 0.8838 0.6450
H20 H 0.8698 0.8666 0.6420
H32 H 0.859928 0.719281 0.558879
C4_2 C 0.9334(12) 0.7163(11) 0.3643(5)
H6_2 H 0.8786 0.7557 0.3621
C5_2 C 0.9720(10) 0.6801(12) 0.3186(5)
H7_2 H 0.9426 0.6932 0.2866
O3_2 O 0.7983(6) 0.9697(5) 0.4993(3)
C16_2 C 0.8289(8) 0.9605(8) 0.4513(5)
C6_2 C 0.6227(9) 0.9432(9) 0.6790(5)
C7_2 C 0.6055(10) 0.9069(12) 0.6309(7)
H8_2 H 0.5673 0.8515 0.6273
C8_2 C 0.6450(10) 0.9520(10) 0.5856(5)
H9_2 H 0.6327 0.9253 0.5527
C9_2 C 0.5830(11) 0.8958(10) 0.7255(5)
H10_2 H 0.5385 0.8460 0.7200
Cu4_2 Cu 0.40661(8) 0.74926(11) 0.97627(6)
N4_2 N 0.4696(6) 0.8016(7) 0.9108(3)
C19_2 C 0.4334(12) 0.7837(11) 0.8643(5)
H21_2 H 0.3786 0.7443 0.8621
C20_2 C 0.4720(10) 0.8199(12) 0.8186(5)
H22_2 H 0.4426 0.8068 0.7866
C21_2 C 0.5568(9) 0.8773(9) 0.8210(5)
C22_2 C 0.5931(12) 0.8945(10) 0.8691(7)
H23_2 H 0.6485 0.9327 0.8727
C23_2 C 0.5480(10) 0.8550(10) 0.9144(5)
H24_2 H 0.5747 0.8673 0.9473
C24_2 C 0.6042(10) 0.9170(11) 0.7745(5)
H25_2 H 0.6540 0.9615 0.7800
N2_2 N 0.2809(7) 0.8127(7) 0.9595(4)
C10_2 C 0.1958(9) 0.7670(9) 0.9551(6)
H11_2 H 0.1974 0.6998 0.9586
C11_2 C 0.1103(10) 0.8055(12) 0.9466(7)
H12_2 H 0.0550 0.7666 0.9458
C12_2 C 0.1031(10) 0.9057(10) 0.9385(5)
C13_2 C 0.1914(11) 0.9596(11) 0.9421(5)
C14_2 C 0.2771(10) 0.9081(10) 0.9518(5)
H14_2 H 0.3351 0.9428 0.9529
C15_2 C 0.0074(9) 0.9538(10) 0.9328(6)
O3_3 O 0.2983(6) 0.5303(5) 0.9993(3)
O4_2 O 0.3639(7) 0.6094(5) 0.9318(3)
N8_2 N 0.2902(7) 0.3626(7) 0.9520(3)
H16_2 H 0.2973 0.3029 0.9429
C16_3 C 0.3289(8) 0.5395(8) 0.9513(5)
C17_2 C 0.3048(10) 0.4425(9) 0.9188(4)
H17_2 H 0.2434 0.4539 0.9003
C18_2 C 0.3816(15) 0.4270(12) 0.8779(6)
H18_2 H 0.4437 0.4191 0.8946
H19_2 H 0.3838 0.4823 0.8550
H20_2 H 0.3666 0.3698 0.8580
H32_2 H 0.219281 0.359928 0.941121
N6_2 N 0.7191(7) 0.1873(7) 0.9595(4)
C25_2 C 0.8042(9) 0.2330(9) 0.9551(6)
H26_2 H 0.8026 0.3002 0.9586
C26_2 C 0.8897(10) 0.1945(12) 0.9466(7)
H27_2 H 0.9450 0.2334 0.9458
C27_2 C 0.8969(10) 0.0943(10) 0.9385(5)
C28_2 C 0.8086(11) 0.0404(11) 0.9421(5)
C29_2 C 0.7229(10) 0.0919(10) 0.9518(5)
H29_2 H 0.6649 0.0572 0.9529
C30_2 C 0.9926(9) 0.0462(10) 0.9328(6)
H13_2 H 0.0268 0.8081 0.0618
H30_2 H 0.0861 0.9533 0.0711
H15_2 H 0.9139 0.0467 0.0711
H28_2 H 0.9732 0.1919 0.0618
O1 O 0.7017(6) 0.4697(5) 0.9993(3)
O2 O 0.6361(7) 0.3906(5) 0.9318(3)
N3_2 N 0.7098(7) 0.6374(7) 0.9520(3)
H1_2 H 0.7027 0.6971 0.9429
C1 C 0.6711(8) 0.4605(8) 0.9513(5)
C2_2 C 0.6952(10) 0.5575(9) 0.9188(4)
H2_2 H 0.7566 0.5461 0.9003
C3_2 C 0.6184(15) 0.5730(12) 0.8779(6)
H3_2 H 0.5563 0.5809 0.8946
H4_2 H 0.6162 0.5177 0.8550
H5_2 H 0.6334 0.6302 0.8580
H31_2 H 0.780719 0.640072 0.941121
Cu2 Cu 0.24926(11) 0.90661(8) 0.52373(6)
O5_2 O 0.1094(5) 0.8639(7) 0.5682(3)
N5_2 N 0.3016(7) 0.9696(6) 0.5892(3)
N7 N 0.3127(7) 0.7809(7) 0.5405(4)
N8_3 N 0.2098(7) 0.8626(7) 0.4520(3)
H16_3 H 0.2027 0.8029 0.4429
C17_3 C 0.1952(10) 0.9425(9) 0.4188(4)
H17_3 H 0.2566 0.9539 0.4003
C18_3 C 0.1184(15) 0.9270(12) 0.3779(6)
H18_3 H 0.0563 0.9191 0.3946
H19_3 H 0.1162 0.9823 0.3550
H20_3 H 0.1334 0.8698 0.3580
H32_3 H 0.280719 0.859928 0.441121
O1_2 O 0.9697(5) 0.2017(6) 0.5007(3)
O2_2 O 0.8906(5) 0.1361(7) 0.5682(3)
C1_2 C 0.9605(8) 0.1711(8) 0.5487(5)
C6_3 C 0.9432(9) 0.3773(9) 0.3210(5)
C7_3 C 0.9069(12) 0.3945(10) 0.3691(7)
H8_3 H 0.8515 0.4327 0.3727
C8_3 C 0.9520(10) 0.3550(10) 0.4144(5)
H9_3 H 0.9253 0.3673 0.4473
C9_3 C 0.8958(10) 0.4170(11) 0.2745(5)
H10_3 H 0.8460 0.4615 0.2800
Cu3 Cu 0.75074(11) 0.09339(8) 0.52373(6)
Cu4_3 Cu 0.74926(11) 0.59339(8) 0.02373(6)
N4_3 N 0.8016(7) 0.5304(6) 0.0892(3)
C19_3 C 0.7837(11) 0.5666(12) 0.1357(5)
H21_3 H 0.7443 0.6214 0.1379
C20_3 C 0.8199(12) 0.5280(10) 0.1814(5)
H22_3 H 0.8068 0.5574 0.2134
C21_3 C 0.8773(9) 0.4432(9) 0.1790(5)
C22_3 C 0.8945(10) 0.4069(12) 0.1309(7)
H23_3 H 0.9327 0.3515 0.1273
C23_3 C 0.8550(10) 0.4520(10) 0.0856(5)
H24_3 H 0.8673 0.4253 0.0527
C24_3 C 0.9170(11) 0.3958(10) 0.2255(5)
H25_3 H 0.9615 0.3460 0.2200
C4_3 C 0.2837(11) 0.9334(12) 0.6357(5)
H6_3 H 0.2443 0.8786 0.6379
C5_3 C 0.3199(12) 0.9720(10) 0.6814(5)
H7_3 H 0.3068 0.9426 0.7134
C10_3 C 0.2670(9) 0.6958(9) 0.5449(6)
H11_3 H 0.1998 0.6974 0.5414
C11_3 C 0.3055(12) 0.6103(10) 0.5534(7)
H12_3 H 0.2666 0.5550 0.5542
C12_3 C 0.4057(10) 0.6031(10) 0.5615(5)
C13_3 C 0.4596(11) 0.6914(11) 0.5579(5)
H13_3 H 0.5268 0.6919 0.5618
C14_3 C 0.4081(10) 0.7771(10) 0.5482(5)
H14_3 H 0.4428 0.8351 0.5471
C15_3 C 0.4538(10) 0.5074(9) 0.5672(6)
H15_3 H 0.4139 0.4533 0.5711
O3_4 O 0.0303(5) 0.7983(6) 0.5007(3)
N6_3 N 0.6873(7) 0.2191(7) 0.5405(4)
C16_4 C 0.0395(8) 0.8289(8) 0.5487(5)
C25_3 C 0.7330(9) 0.3042(9) 0.5449(6)
H26_3 H 0.8002 0.3026 0.5414
C26_3 C 0.6945(12) 0.3897(10) 0.5534(7)
H27_3 H 0.7334 0.4450 0.5542
C27_3 C 0.5943(10) 0.3969(10) 0.5615(5)
C28_3 C 0.5404(11) 0.3086(11) 0.5579(5)
H28_3 H 0.4732 0.3081 0.5618
C29_3 C 0.5919(10) 0.2229(10) 0.5482(5)
H29_3 H 0.5572 0.1649 0.5471
C30_3 C 0.5462(10) 0.4926(9) 0.5672(6)
H30_3 H 0.5861 0.5467 0.5711
C6_4 C 0.0568(9) 0.6227(9) 0.3210(5)
C7_4 C 0.0931(12) 0.6055(10) 0.3691(7)
H8_4 H 0.1485 0.5673 0.3727
C8_4 C 0.0480(10) 0.6450(10) 0.4144(5)
H9_4 H 0.0747 0.6327 0.4473
C9_4 C 0.1042(10) 0.5830(11) 0.2745(5)
H10_4 H 0.1540 0.5385 0.2800
Cu4_4 Cu 0.25074(11) 0.40661(8) 0.02373(6)
N4_4 N 0.1984(7) 0.4696(6) 0.0892(3)
C19_4 C 0.2163(11) 0.4334(12) 0.1357(5)
H21_4 H 0.2557 0.3786 0.1379
C20_4 C 0.1801(12) 0.4720(10) 0.1814(5)
H22_4 H 0.1932 0.4426 0.2134
C21_4 C 0.1227(9) 0.5568(9) 0.1790(5)
C22_4 C 0.1055(10) 0.5931(12) 0.1309(7)
H23_4 H 0.0673 0.6485 0.1273
C23_4 C 0.1450(10) 0.5480(10) 0.0856(5)
H24_4 H 0.1327 0.5747 0.0527
C24_4 C 0.0830(11) 0.6042(10) 0.2255(5)
H25_4 H 0.0385 0.6540 0.2200
N5_3 N 0.6984(7) 0.0304(6) 0.5892(3)
N8_4 N 0.7902(7) 0.1374(7) 0.4520(3)
H16_4 H 0.7973 0.1971 0.4429
C17_4 C 0.8048(10) 0.0575(9) 0.4188(4)
H17_4 H 0.7434 0.0461 0.4003
C18_4 C 0.8816(15) 0.0730(12) 0.3779(6)
H18_4 H 0.9437 0.0809 0.3946
H19_4 H 0.8838 0.0177 0.3550
H20_4 H 0.8666 0.1302 0.3580
H32_4 H 0.719281 0.140072 0.441121
C4_4 C 0.7163(11) 0.0666(12) 0.6357(5)
H6_4 H 0.7557 0.1214 0.6379
C5_4 C 0.6801(12) 0.0280(10) 0.6814(5)
H7_4 H 0.6932 0.0574 0.7134
H13_4 H 0.1919 0.0268 0.9382
H30_4 H 0.0467 0.0861 0.9289
O1_3 O 0.5303(5) 0.7017(6) 0.0007(3)
O2_3 O 0.6094(5) 0.6361(7) 0.0682(3)
N3_3 N 0.3626(7) 0.7098(7) 0.0480(3)
H1_3 H 0.3029 0.7027 0.0571
C1_3 C 0.5395(8) 0.6711(8) 0.0487(5)
C2_3 C 0.4425(9) 0.6952(10) 0.0812(4)
H2_3 H 0.4539 0.7566 0.0997
C3_3 C 0.4270(12) 0.6184(15) 0.1221(6)
H3_3 H 0.4191 0.5563 0.1054
H4_3 H 0.4823 0.6162 0.1450
H5_3 H 0.3698 0.6334 0.1420
O5_3 O 0.3906(5) 0.3639(7) 0.0682(3)
N7_2 N 0.1873(7) 0.2809(7) 0.0405(4)
H31_3 H 0.359928 0.780719 0.0588785
H15_4 H 0.9533 0.9139 0.9289
H28_4 H 0.8081 0.9732 0.9382
C25_4 C 0.2330(9) 0.1958(9) 0.0449(6)
H26_4 H 0.3002 0.1974 0.0414
C26_4 C 0.1945(12) 0.1103(10) 0.0534(7)
H27_4 H 0.2334 0.0550 0.0542
C27_4 C 0.0943(10) 0.1031(10) 0.0615(5)
C28_4 C 0.0404(11) 0.1914(11) 0.0579(5)
C29_4 C 0.0919(10) 0.2771(10) 0.0482(5)
H29_4 H 0.0572 0.3351 0.0471
C30_4 C 0.0462(10) 0.0074(9) 0.0672(6)
N2_3 N 0.8127(7) 0.7191(7) 0.0405(4)
C10_4 C 0.7670(9) 0.8042(9) 0.0449(6)
H11_4 H 0.6998 0.8026 0.0414
C11_4 C 0.8055(12) 0.8897(10) 0.0534(7)
H12_4 H 0.7666 0.9450 0.0542
C12_4 C 0.9057(10) 0.8969(10) 0.0615(5)
C13_4 C 0.9596(11) 0.8086(11) 0.0579(5)
C14_4 C 0.9081(10) 0.7229(10) 0.0482(5)
H14_4 H 0.9428 0.6649 0.0471
C15_4 C 0.9538(10) 0.9926(9) 0.0672(6)
O1_4 O 0.4697(5) 0.2983(6) 0.0007(3)
N3_4 N 0.6374(7) 0.2902(7) 0.0480(3)
H1_4 H 0.6971 0.2973 0.0571
C1_4 C 0.4605(8) 0.3289(8) 0.0487(5)
C2_4 C 0.5575(9) 0.3048(10) 0.0812(4)
H2_4 H 0.5461 0.2434 0.0997
C3_4 C 0.5730(12) 0.3816(15) 0.1221(6)
H3_4 H 0.5809 0.4437 0.1054
H4_4 H 0.5177 0.3838 0.1450
H5_4 H 0.6302 0.3666 0.1420
H31_4 H 0.640072 0.219281 0.0588785
loop_
_geom_bond_atom_site_label_1
_geom_bond_atom_site_label_2
_geom_bond_site_symmetry_1
_geom_bond_site_symmetry_2
N1 Cu1 1_555 1_555
N2 Cu1 1_555 1_555
N3 Cu1 1_555 1_555
H1 N3 1_555 1_555
C2 N3 1_555 1_555
H2 C2 1_555 1_555
C3 C2 1_555 1_555
H3 C3 1_555 1_555
H4 C3 1_555 1_555
H5 C3 1_555 1_555
C4 N1 1_555 1_555
H6 C4 1_555 1_555
C5 C4 1_555 1_555
H7 C5 1_555 1_555
C10 N2 1_555 1_555
H11 C10 1_555 1_555
C11 C10 1_555 1_555
H12 C11 1_555 1_555
C12 C11 1_555 1_555
C13 C12 1_555 1_555
H13 C13 1_555 1_555
C14 N2 1_555 1_555
H14 C14 1_555 1_555
C15 C12 1_555 1_555
H15 C15 1_555 1_555
Cu5 N6 1_555 1_555
O3 C16 1_555 1_555
O4 Cu1 1_555 1_555
N6 C25 1_555 1_555
C16 O4 1_555 1_555
C25 H26 1_555 1_555
C26 C25 1_555 1_555
H27 C26 1_555 1_555
C27 C26 1_555 1_555
C28 C27 1_555 1_555
H28 C28 1_555 1_555
C29 N6 1_555 1_555
H29 C29 1_555 1_555
C30 C15 1_555 1_555
H30 C30 1_555 1_555
C13 C14 1_555 1_555
C27 C30 1_555 1_555
C28 C29 1_555 1_555
N3 H31 1_555 1_555
C7 C6 1_555 1_555
H8 C7 1_555 1_555
H9 C8 1_555 1_555
C9 C6 1_555 1_555
H10 C9 1_555 1_555
Cu4 N4 1_555 1_555
N4 C19 1_555 1_555
C19 H21 1_555 1_555
C20 C19 1_555 1_555
H22 C20 1_555 1_555
C21 C20 1_555 1_555
C22 C21 1_555 1_555
H23 C22 1_555 1_555
C23 N4 1_555 1_555
H24 C23 1_555 1_555
C24 C9 1_555 1_555
H25 C24 1_555 1_555
C7 C8 1_555 1_555
C21 C24 1_555 1_555
C22 C23 1_555 1_555
O5 Cu5 1_555 1_555
N5 Cu5 1_555 1_555
N8 Cu5 1_555 1_555
H16 N8 1_555 1_555
C17 N8 1_555 1_555
H17 C17 1_555 1_555
C18 C17 1_555 1_555
H18 C18 1_555 1_555
H19 C18 1_555 1_555
H20 C18 1_555 1_555
N8 H32 1_555 1_555
C4_2 N5 1_555 1_555
H6_2 C4_2 1_555 1_555
C5_2 C4_2 1_555 1_555
H7_2 C5_2 1_555 1_555
O3_2 C16_2 1_555 1_555
C16_2 O5 1_555 1_555
C7_2 C6_2 1_555 1_555
H8_2 C7_2 1_555 1_555
H9_2 C8_2 1_555 1_555
C9_2 C6_2 1_555 1_555
H10_2 C9_2 1_555 1_555
Cu4_2 N4_2 1_555 1_555
N4_2 C19_2 1_555 1_555
C19_2 H21_2 1_555 1_555
C20_2 C19_2 1_555 1_555
H22_2 C20_2 1_555 1_555
C21_2 C20_2 1_555 1_555
C22_2 C21_2 1_555 1_555
H23_2 C22_2 1_555 1_555
C23_2 N4_2 1_555 1_555
H24_2 C23_2 1_555 1_555
C24_2 C9_2 1_555 1_555
H25_2 C24_2 1_555 1_555
C7_2 C8_2 1_555 1_555
C21_2 C24_2 1_555 1_555
C22_2 C23_2 1_555 1_555
N2_2 Cu4_2 1_555 1_555
C10_2 N2_2 1_555 1_555
H11_2 C10_2 1_555 1_555
C11_2 C10_2 1_555 1_555
H12_2 C11_2 1_555 1_555
C12_2 C11_2 1_555 1_555
C13_2 C12_2 1_555 1_555
C14_2 N2_2 1_555 1_555
H14_2 C14_2 1_555 1_555
C15_2 C12_2 1_555 1_555
O3_3 C16_3 1_555 1_555
O4_2 Cu4_2 1_555 1_555
H16_2 N8_2 1_555 1_555
C16_3 O4_2 1_555 1_555
C17_2 N8_2 1_555 1_555
H17_2 C17_2 1_555 1_555
C18_2 C17_2 1_555 1_555
H18_2 C18_2 1_555 1_555
H19_2 C18_2 1_555 1_555
H20_2 C18_2 1_555 1_555
C13_2 C14_2 1_555 1_555
C16_3 C17_2 1_555 1_555
N8_2 H32_2 1_555 1_555
Cu4 N6_2 1_555 1_555
N6_2 C25_2 1_555 1_555
C25_2 H26_2 1_555 1_555
C26_2 C25_2 1_555 1_555
H27_2 C26_2 1_555 1_555
C27_2 C26_2 1_555 1_555
C28_2 C27_2 1_555 1_555
C29_2 N6_2 1_555 1_555
H29_2 C29_2 1_555 1_555
C27_2 C30_2 1_555 1_555
C28_2 C29_2 1_555 1_555
O1 C1 1_555 1_555
O2 C1 1_555 1_555
H1_2 N3_2 1_555 1_555
C1 C2_2 1_555 1_555
C2_2 N3_2 1_555 1_555
H2_2 C2_2 1_555 1_555
C3_2 C2_2 1_555 1_555
H3_2 C3_2 1_555 1_555
H4_2 C3_2 1_555 1_555
H5_2 C3_2 1_555 1_555
Cu4 O2 1_555 1_555
N3_2 H31_2 1_555 1_555
O5_2 Cu2 1_555 1_555
N5_2 Cu2 1_555 1_555
N7 Cu2 1_555 1_555
N8_3 Cu2 1_555 1_555
H16_3 N8_3 1_555 1_555
C17_3 N8_3 1_555 1_555
H17_3 C17_3 1_555 1_555
C18_3 C17_3 1_555 1_555
H18_3 C18_3 1_555 1_555
H19_3 C18_3 1_555 1_555
H20_3 C18_3 1_555 1_555
N8_3 H32_3 1_555 1_555
O1_2 C1_2 1_555 1_555
O2_2 C1_2 1_555 1_555
C7_3 C6_3 1_555 1_555
H8_3 C7_3 1_555 1_555
H9_3 C8_3 1_555 1_555
C9_3 C6_3 1_555 1_555
H10_3 C9_3 1_555 1_555
Cu3 O2_2 1_555 1_555
Cu4_3 N4_3 1_555 1_555
N4_3 C19_3 1_555 1_555
C19_3 H21_3 1_555 1_555
C20_3 C19_3 1_555 1_555
H22_3 C20_3 1_555 1_555
C21_3 C20_3 1_555 1_555
C22_3 C21_3 1_555 1_555
H23_3 C22_3 1_555 1_555
C23_3 N4_3 1_555 1_555
H24_3 C23_3 1_555 1_555
C24_3 C9_3 1_555 1_555
H25_3 C24_3 1_555 1_555
C7_3 C8_3 1_555 1_555
C21_3 C24_3 1_555 1_555
C22_3 C23_3 1_555 1_555
C4_3 N5_2 1_555 1_555
H6_3 C4_3 1_555 1_555
C5_3 C4_3 1_555 1_555
H7_3 C5_3 1_555 1_555
C10_3 N7 1_555 1_555
H11_3 C10_3 1_555 1_555
C11_3 C10_3 1_555 1_555
H12_3 C11_3 1_555 1_555
C12_3 C11_3 1_555 1_555
C13_3 C12_3 1_555 1_555
H13_3 C13_3 1_555 1_555
C14_3 N7 1_555 1_555
H14_3 C14_3 1_555 1_555
C15_3 C12_3 1_555 1_555
H15_3 C15_3 1_555 1_555
Cu3 N6_3 1_555 1_555
O3_4 C16_4 1_555 1_555
N6_3 C25_3 1_555 1_555
C16_4 O5_2 1_555 1_555
C25_3 H26_3 1_555 1_555
C26_3 C25_3 1_555 1_555
H27_3 C26_3 1_555 1_555
C27_3 C26_3 1_555 1_555
C28_3 C27_3 1_555 1_555
H28_3 C28_3 1_555 1_555
C29_3 N6_3 1_555 1_555
H29_3 C29_3 1_555 1_555
C30_3 C15_3 1_555 1_555
H30_3 C30_3 1_555 1_555
C13_3 C14_3 1_555 1_555
C27_3 C30_3 1_555 1_555
C28_3 C29_3 1_555 1_555
C7_4 C6_4 1_555 1_555
H8_4 C7_4 1_555 1_555
H9_4 C8_4 1_555 1_555
C9_4 C6_4 1_555 1_555
H10_4 C9_4 1_555 1_555
Cu4_4 N4_4 1_555 1_555
N4_4 C19_4 1_555 1_555
C19_4 H21_4 1_555 1_555
C20_4 C19_4 1_555 1_555
H22_4 C20_4 1_555 1_555
C21_4 C20_4 1_555 1_555
C22_4 C21_4 1_555 1_555
H23_4 C22_4 1_555 1_555
C23_4 N4_4 1_555 1_555
H24_4 C23_4 1_555 1_555
C24_4 C9_4 1_555 1_555
H25_4 C24_4 1_555 1_555
C7_4 C8_4 1_555 1_555
C21_4 C24_4 1_555 1_555
C22_4 C23_4 1_555 1_555
N5_3 Cu3 1_555 1_555
N8_4 Cu3 1_555 1_555
H16_4 N8_4 1_555 1_555
C17_4 N8_4 1_555 1_555
H17_4 C17_4 1_555 1_555
C18_4 C17_4 1_555 1_555
H18_4 C18_4 1_555 1_555
H19_4 C18_4 1_555 1_555
H20_4 C18_4 1_555 1_555
N8_4 H32_4 1_555 1_555
C4_4 N5_3 1_555 1_555
H6_4 C4_4 1_555 1_555
C5_4 C4_4 1_555 1_555
H7_4 C5_4 1_555 1_555
O1_3 C1_3 1_555 1_555
O2_3 C1_3 1_555 1_555
H1_3 N3_3 1_555 1_555
C1_3 C2_3 1_555 1_555
C2_3 N3_3 1_555 1_555
H2_3 C2_3 1_555 1_555
C3_3 C2_3 1_555 1_555
H3_3 C3_3 1_555 1_555
H4_3 C3_3 1_555 1_555
H5_3 C3_3 1_555 1_555
Cu4_3 O2_3 1_555 1_555
O5_3 Cu4_4 1_555 1_555
N7_2 Cu4_4 1_555 1_555
N3_3 H31_3 1_555 1_555
N7_2 C25_4 1_555 1_555
C25_4 H26_4 1_555 1_555
C26_4 C25_4 1_555 1_555
H27_4 C26_4 1_555 1_555
C27_4 C26_4 1_555 1_555
C28_4 C27_4 1_555 1_555
C29_4 N7_2 1_555 1_555
H29_4 C29_4 1_555 1_555
C27_4 C30_4 1_555 1_555
C28_4 C29_4 1_555 1_555
N2_3 Cu4_3 1_555 1_555
C10_4 N2_3 1_555 1_555
H11_4 C10_4 1_555 1_555
C11_4 C10_4 1_555 1_555
H12_4 C11_4 1_555 1_555
C12_4 C11_4 1_555 1_555
C13_4 C12_4 1_555 1_555
C14_4 N2_3 1_555 1_555
H14_4 C14_4 1_555 1_555
C15_4 C12_4 1_555 1_555
C13_4 C14_4 1_555 1_555
O1_4 C1_4 1_555 1_555
O5_3 C1_4 1_555 1_555
H1_4 N3_4 1_555 1_555
C1_4 C2_4 1_555 1_555
C2_4 N3_4 1_555 1_555
H2_4 C2_4 1_555 1_555
C3_4 C2_4 1_555 1_555
H3_4 C3_4 1_555 1_555
H4_4 C3_4 1_555 1_555
H5_4 C3_4 1_555 1_555
N3_4 H31_4 1_555 1_555

#END
