
###############################################################################
#
# This file contains modified crystal structure data generated from the
# MOF subset of the Cambridge Structural Database (CSD) v543 
# hosted by the Cambridge Crystallographic Data Centre (CCDC).
#
# This work is licensed under the Creative Commons
# Attribution-NonCommercial-ShareAlike 4.0 International License.
# To view a copy of this license, visit
# http://creativecommons.org/licenses/by-nc-sa/4.0/
# or send a letter to
# Creative Commons, PO Box 1866, Mountain View, CA 94042, USA.
#
# CIF created using the CSD Python API on 29 September 2022
# The structure has been converted into the P1 space group
# The structure has a 3D framework
# The original CSD entry AVIHOE is in the tetragonal crystal system
# The original CSD entry AVIHOE is in a Sohncke space group
# The framework has been calculated to contain at least 10.0% void space
# The void calculation uses a probe of radius 1.32A, grid spacing 0.4
# H atom positions have been added when not included in the experimental data
# Generated hydrogen atom positions removed from atoms on special positions
#
###############################################################################

data_AVIHOE
_chemical_formula_moiety         '(C54 H34 O28 Tm4)n'
_symmetry_cell_setting           triclinic
_symmetry_space_group_name_H-M   'P 1'
_symmetry_Int_Tables_number      1
_space_group_name_Hall           'P 1'
loop_
_symmetry_equiv_pos_site_id
_symmetry_equiv_pos_as_xyz
1 x,y,z
_cell_length_a                   10.2000(4)
_cell_length_b                   10.2000(4)
_cell_length_c                   14.4386(9)
_cell_angle_alpha                90
_cell_angle_beta                 90
_cell_angle_gamma                90
_cell_volume                     1502.19
loop_
_atom_site_label
_atom_site_type_symbol
_atom_site_fract_x
_atom_site_fract_y
_atom_site_fract_z
Tm5 Tm 0.14978(2) 0.14978(2) 0.3750
O10 O 0.1148(5) 0.0648(4) 0.1499(3)
Tm1 Tm 0.14978(2) 0.85022(2) 0.1250
O4 O 0.3132(4) 0.6868(4) 0.1250
O8 O 0.3350(4) 0.9265(5) 0.1919(3)
O9 O 0.0735(5) 0.6650(4) 0.0581(3)
O12 O 0.0961(4) 0.7601(5) 0.2628(3)
O11 O 0.2399(5) 0.9039(4) 0.9872(3)
C3 C 0.5375(8) 0.0000 0.2500
C5 C 0.8082(8) 0.0000 0.2500
H2 H 0.9013 0.0000 0.2500
C6 C 0.3898(9) 0.0000 0.2500
O5 O 0.9352(4) 0.1148(5) 0.3999(3)
C7 C 0.8189(6) 0.0885(6) 0.4102(4)
C8 C 0.7406(6) 0.0416(7) 0.3273(4)
C9 C 0.6057(6) 0.0427(6) 0.3273(4)
H3 H 0.5593 0.0728 0.3802
O6 O 0.3350(4) 0.0735(5) 0.3081(3)
O7 O 0.7601(5) 0.0961(4) 0.4872(3)
Tm3 Tm 0.85022(2) 0.14978(2) 0.6250
O2 O 0.9352(4) 0.8852(5) 0.1001(3)
O3 O 0.7601(5) 0.9039(4) 0.0128(3)
C1 C 0.8189(6) 0.9115(6) 0.0898(4)
C2 C 0.7406(6) 0.9584(7) 0.1727(4)
C3_2 C 0.5375(8) 1.0000 0.2500
C4 C 0.6057(6) 0.9573(6) 0.1727(4)
H1 H 0.5593 0.9272 0.1198
C5_2 C 0.8082(8) 1.0000 0.2500
H2_2 H 0.9013 1.0000 0.2500
C6_2 C 0.3898(9) 1.0000 0.2500
Tm6 Tm 0.85022(2) 0.85022(2) 0.8750
O1 O 0.6650(4) 0.0735(5) 0.6919(3)
O2_2 O 0.0648(4) 0.1148(5) 0.6001(3)
O3_2 O 0.2399(5) 0.0961(4) 0.5128(3)
C1_2 C 0.1811(6) 0.0885(6) 0.5898(4)
C2_2 C 0.2594(6) 0.0416(7) 0.6727(4)
C3_3 C 0.4625(8) 0.0000 0.7500
C4_2 C 0.3943(6) 0.0427(6) 0.6727(4)
H1_2 H 0.4407 0.0728 0.6198
C5_3 C 0.1918(8) 0.0000 0.7500
H2_3 H 0.0987 0.0000 0.7500
C6_3 C 0.6102(9) 0.0000 0.7500
C3_4 C 0.4625(8) 1.0000 0.7500
C5_4 C 0.1918(8) 1.0000 0.7500
H2_4 H 0.0987 1.0000 0.7500
C6_4 C 0.6102(9) 1.0000 0.7500
O5_2 O 0.0648(4) 0.8852(5) 0.8999(3)
C7_2 C 0.1811(6) 0.9115(6) 0.9102(4)
C8_2 C 0.2594(6) 0.9584(7) 0.8273(4)
C9_2 C 0.3943(6) 0.9573(6) 0.8273(4)
H3_2 H 0.4407 0.9272 0.8802
O6_2 O 0.6650(4) 0.9265(5) 0.8081(3)
O4_2 O 0.6868(4) 0.3132(4) 0.6250
O9_2 O 0.9265(5) 0.3350(4) 0.5581(3)
O12_2 O 0.9039(4) 0.2399(5) 0.7628(3)
O10_2 O 0.8852(5) 0.9352(4) 0.6499(3)
O4_3 O 0.3132(4) 0.3132(4) 0.3750
O9_3 O 0.0735(5) 0.3350(4) 0.4419(3)
O12_3 O 0.0961(4) 0.2399(5) 0.2372(3)
O10_3 O 0.1148(5) 0.9352(4) 0.3501(3)
O10_4 O 0.8852(5) 0.0648(4) 0.8501(3)
O4_4 O 0.6868(4) 0.6868(4) 0.8750
O9_4 O 0.9265(5) 0.6650(4) 0.9419(3)
O12_4 O 0.9039(4) 0.7601(5) 0.7372(3)
C1_3 C 0.0885(6) 0.1811(6) 0.1602(4)
C2_3 C 0.0416(7) 0.2594(6) 0.0773(4)
C3_5 C 0.0000 0.4625(8) 0.0000
C4_3 C 0.0427(6) 0.3943(6) 0.0773(4)
H1_3 H 0.0728 0.4407 0.1302
C5_5 C 0.0000 0.1918(8) 0.0000
H2_5 H 0.0000 0.0987 0.0000
C6_5 C 0.0000 0.6102(9) 0.0000
C3_6 C 1.0000 0.4625(8) 1.0000
C5_6 C 1.0000 0.1918(8) 1.0000
H2_6 H 1.0000 0.0987 1.0000
C6_6 C 1.0000 0.6102(9) 1.0000
C7_3 C 0.9115(6) 0.1811(6) 0.8398(4)
C8_3 C 0.9584(7) 0.2594(6) 0.9227(4)
C9_3 C 0.9573(6) 0.3943(6) 0.9227(4)
H3_3 H 0.9272 0.4407 0.8698
C3_7 C -0.0000 0.5375(8) 0.5000
C5_7 C 0.0000 0.8082(8) 0.5000
H2_7 H 0.0000 0.9013 0.5000
C6_7 C 0.0000 0.3898(9) 0.5000
C7_4 C 0.0885(6) 0.8189(6) 0.3398(4)
C8_4 C 0.0416(7) 0.7406(6) 0.4227(4)
C9_4 C 0.0427(6) 0.6057(6) 0.4227(4)
H3_4 H 0.0728 0.5593 0.3698
C1_4 C 0.9115(6) 0.8189(6) 0.6602(4)
C2_4 C 0.9584(7) 0.7406(6) 0.5773(4)
C3_8 C 1.0000 0.5375(8) 0.5000
C4_4 C 0.9573(6) 0.6057(6) 0.5773(4)
H1_4 H 0.9272 0.5593 0.6302
C5_8 C 1.0000 0.8082(8) 0.5000
H2_8 H 1.0000 0.9013 0.5000
C6_8 C 1.0000 0.3898(9) 0.5000
C3_9 C 0.0000 0.4625(8) 1.0000
C5_9 C -0.0000 0.1918(8) 1.0000
H2_9 H 0.0000 0.0987 1.0000
C6_9 C -0.0000 0.6102(9) 1.0000
C3_10 C 1.0000 0.4625(8) 0.0000
C5_10 C 1.0000 0.1918(8) 0.0000
H2_10 H 1.0000 0.0987 0.0000
C6_10 C 1.0000 0.6102(9) 0.0000
loop_
_geom_bond_atom_site_label_1
_geom_bond_atom_site_label_2
_geom_bond_site_symmetry_1
_geom_bond_site_symmetry_2
O4 Tm1 1_555 1_555
O8 Tm1 1_555 1_555
O9 Tm1 1_555 1_555
O12 Tm1 1_555 1_555
H2 C5 1_555 1_555
C6 C3 1_555 1_555
O5 C7 1_555 1_555
C7 C8 1_555 1_555
C8 C5 1_555 1_555
C9 C3 1_555 1_555
H3 C9 1_555 1_555
O6 C6 1_555 1_555
O7 C7 1_555 1_555
Tm3 O7 1_555 1_555
Tm5 O6 1_555 1_555
C8 C9 1_555 1_555
O8 C6_2 1_555 1_555
O2 C1 1_555 1_555
O3 C1 1_555 1_555
C1 C2 1_555 1_555
C2 C4 1_555 1_555
C3_2 C4 1_555 1_555
C4 H1 1_555 1_555
C5_2 C2 1_555 1_555
H2_2 C5_2 1_555 1_555
C6_2 C3_2 1_555 1_555
O1 C6_3 1_555 1_555
O2_2 C1_2 1_555 1_555
O3_2 C1_2 1_555 1_555
C1_2 C2_2 1_555 1_555
C2_2 C4_2 1_555 1_555
C3_3 C4_2 1_555 1_555
C4_2 H1_2 1_555 1_555
C5_3 C2_2 1_555 1_555
H2_3 C5_3 1_555 1_555
C6_3 C3_3 1_555 1_555
Tm3 O1 1_555 1_555
Tm5 O3_2 1_555 1_555
H2_4 C5_4 1_555 1_555
C6_4 C3_4 1_555 1_555
O5_2 C7_2 1_555 1_555
C7_2 C8_2 1_555 1_555
C8_2 C5_4 1_555 1_555
C9_2 C3_4 1_555 1_555
H3_2 C9_2 1_555 1_555
O6_2 C6_4 1_555 1_555
O11 C7_2 1_555 1_555
Tm6 O6_2 1_555 1_555
C8_2 C9_2 1_555 1_555
O4_2 Tm3 1_555 1_555
O9_2 Tm3 1_555 1_555
O12_2 Tm3 1_555 1_555
O4_3 Tm5 1_555 1_555
O9_3 Tm5 1_555 1_555
O12_3 Tm5 1_555 1_555
O4_4 Tm6 1_555 1_555
O9_4 Tm6 1_555 1_555
O12_4 Tm6 1_555 1_555
O9 C6_5 1_555 1_555
O10 C1_3 1_555 1_555
O12_3 C1_3 1_555 1_555
C1_3 C2_3 1_555 1_555
C2_3 C4_3 1_555 1_555
C3_5 C4_3 1_555 1_555
C4_3 H1_3 1_555 1_555
C5_5 C2_3 1_555 1_555
H2_5 C5_5 1_555 1_555
C6_5 C3_5 1_555 1_555
H2_6 C5_6 1_555 1_555
C6_6 C3_6 1_555 1_555
O10_4 C7_3 1_555 1_555
C7_3 C8_3 1_555 1_555
C8_3 C5_6 1_555 1_555
C9_3 C3_6 1_555 1_555
H3_3 C9_3 1_555 1_555
O9_4 C6_6 1_555 1_555
O12_2 C7_3 1_555 1_555
C8_3 C9_3 1_555 1_555
H2_7 C5_7 1_555 1_555
C6_7 C3_7 1_555 1_555
O10_3 C7_4 1_555 1_555
C7_4 C8_4 1_555 1_555
C8_4 C5_7 1_555 1_555
C9_4 C3_7 1_555 1_555
H3_4 C9_4 1_555 1_555
O9_3 C6_7 1_555 1_555
O12 C7_4 1_555 1_555
C8_4 C9_4 1_555 1_555
O9_2 C6_8 1_555 1_555
O10_2 C1_4 1_555 1_555
O12_4 C1_4 1_555 1_555
C1_4 C2_4 1_555 1_555
C2_4 C4_4 1_555 1_555
C3_8 C4_4 1_555 1_555
C4_4 H1_4 1_555 1_555
C5_8 C2_4 1_555 1_555
H2_8 C5_8 1_555 1_555
C6_8 C3_8 1_555 1_555
H2_9 C5_9 1_555 1_555
C6_9 C3_9 1_555 1_555
H2_10 C5_10 1_555 1_555
C6_10 C3_10 1_555 1_555

#END
