
###############################################################################
#
# This file contains modified crystal structure data generated from the
# MOF subset of the Cambridge Structural Database (CSD) v543 
# hosted by the Cambridge Crystallographic Data Centre (CCDC).
#
# This work is licensed under the Creative Commons
# Attribution-NonCommercial-ShareAlike 4.0 International License.
# To view a copy of this license, visit
# http://creativecommons.org/licenses/by-nc-sa/4.0/
# or send a letter to
# Creative Commons, PO Box 1866, Mountain View, CA 94042, USA.
#
# CIF created using the CSD Python API on 29 September 2022
# The structure has been converted into the P1 space group
# The structure has a 3D framework
# The original CSD entry AVIMOI is in the monoclinic crystal system
# The framework has been calculated to contain at least 10.0% void space
# The void calculation uses a probe of radius 1.32A, grid spacing 0.4
#
###############################################################################

data_AVIMOI
_chemical_formula_moiety         '(C120 H88 O48 Zn8)n'
_symmetry_cell_setting           triclinic
_symmetry_space_group_name_H-M   'P 1'
_symmetry_Int_Tables_number      1
_space_group_name_Hall           'P 1'
loop_
_symmetry_equiv_pos_site_id
_symmetry_equiv_pos_as_xyz
1 x,y,z
_cell_length_a                   9.3243(9)
_cell_length_b                   26.939(3)
_cell_length_c                   14.4535(14)
_cell_angle_alpha                90
_cell_angle_beta                 93.0680(10)
_cell_angle_gamma                90
_cell_volume                     3625.33
loop_
_atom_site_label
_atom_site_type_symbol
_atom_site_fract_x
_atom_site_fract_y
_atom_site_fract_z
C1 C 0.0556(4) 0.68450(12) 0.6451(2)
C5 C 0.0230(4) 0.74198(12) 0.5188(2)
C6 C 0.1050(4) 0.72471(12) 0.5947(2)
H3 H 0.1922 0.7397 0.6120
C7 C 0.1331(4) 0.66849(13) 0.7319(2)
C8 C 0.0764(4) 0.78636(12) 0.4674(2)
O1 O 0.2286(3) 0.69671(9) 0.76713(16)
O2 O 0.0999(3) 0.62816(8) 0.76319(16)
O8 O 0.2068(3) 0.79468(9) 0.47055(16)
O11 O 0.4906(3) 0.65580(9) 0.77956(16)
H19 H 0.4891 0.6246 0.7707
H20 H 0.5761 0.6665 0.7878
O12 O 0.4816(3) 0.73540(9) 0.91648(17)
H21 H 0.5260 0.7432 0.8687
H22 H 0.5446 0.7344 0.9612
Zn1 Zn 0.35235(4) 0.679037(15) 0.87819(3)
Zn2 Zn 0.03233(5) 0.620401(14) 0.88807(3)
O14 O 0.1842(2) 0.58584(9) 0.95950(16)
O15 O 0.2068(3) 0.70532(9) 0.97055(16)
O17 O 0.3998(3) 0.62005(9) 0.95442(16)
Zn3 Zn 0.35235(4) 0.820963(15) 0.37819(3)
Zn7 Zn 0.03233(5) 0.879599(14) 0.38807(3)
C29 C 0.3134(4) 0.58810(13) 0.9822(2)
C1_2 C 0.0556(4) 0.81550(12) 0.1451(2)
C5_2 C 0.0230(4) 0.75802(12) 0.0188(2)
C6_2 C 0.1050(4) 0.77529(12) 0.0947(2)
H3_2 H 0.1922 0.7603 0.1120
C7_2 C 0.1331(4) 0.83151(13) 0.2319(2)
O1_2 O 0.2286(3) 0.80329(9) 0.26713(16)
O2_2 O 0.0999(3) 0.87184(8) 0.26319(16)
O11_2 O 0.4906(3) 0.84420(9) 0.27956(16)
H19_2 H 0.4891 0.8754 0.2707
H20_2 H 0.5761 0.8335 0.2878
O12_2 O 0.4816(3) 0.76460(9) 0.41648(17)
H21_2 H 0.5260 0.7568 0.3687
H22_2 H 0.5446 0.7656 0.4612
O14_2 O 0.1842(2) 0.91416(9) 0.45950(16)
O17_2 O 0.3998(3) 0.87995(9) 0.45442(16)
C8_2 C 0.0764(4) 0.71364(12) 0.9674(2)
C17 C 0.9988(4) 0.93629(15) 0.9267(3)
H10 H 0.9953 0.9159 0.9784
C18 C 0.8790(5) 0.95143(15) 0.8749(3)
H11 H 0.7960 0.9331 0.8828
C19 C 0.8654(4) 0.99101(13) 0.8113(2)
C23 C 0.5472(4) 0.98329(12) 0.6572(2)
C24 C 0.4997(4) 0.94634(13) 0.5947(2)
H16 H 0.5566 0.9187 0.5850
C25 C 0.3672(4) 0.95131(12) 0.5474(2)
C26 C 0.2807(4) 0.99145(12) 0.5630(2)
H17 H 0.1909 0.9938 0.5320
C29_2 C 0.3134(4) 0.91190(13) 0.4822(2)
O4 O 0.6770(3) 0.97403(9) 0.70094(16)
C2 C 0.9283(4) 0.66181(13) 0.6189(2)
H1 H 0.8959 0.6351 0.6528
C3 C 0.8480(4) 0.67861(13) 0.5417(2)
C4 C 0.8937(4) 0.71928(12) 0.4906(2)
H2 H 0.8392 0.7308 0.4393
C9 C 0.6719(4) 0.61753(14) 0.5643(3)
H4 H 0.6633 0.6282 0.6279
H5 H 0.7402 0.5904 0.5637
C10 C 0.5265(4) 0.60093(13) 0.5224(2)
C11 C 0.3984(5) 0.61693(15) 0.5559(3)
H6 H 0.3969 0.6388 0.6056
C12 C 0.2718(4) 0.59929(15) 0.5127(2)
H7 H 0.1861 0.6106 0.5350
C13 C 0.2623(4) 0.56611(13) 0.4389(2)
C14 C 0.3889(5) 0.55005(15) 0.4027(3)
H8 H 0.3929 0.5324 0.3476
C15 C 0.5074(5) 0.56319(16) 0.4574(3)
H9 H 0.5882 0.5437 0.4498
C16 C 0.1254(4) 0.54543(13) 0.3941(3)
C21 C 0.1238(4) 0.50962(13) 0.3251(2)
H13 H 0.2106 0.4970 0.3065
O3 O 0.7181(3) 0.65724(9) 0.51001(16)
O9 O 0.9783(3) 0.81395(9) 0.42796(16)
O13 O 0.8885(3) 0.57131(8) 0.90341(16)
O16 O 0.9783(3) 0.68605(9) 0.92796(16)
C20 C 0.0037(4) 0.99197(15) 0.2171(3)
H12 H 0.0011 0.9687 0.2644
C22 C 0.2719(4) 0.98898(13) 0.2305(2)
H14 H 0.2562 0.9573 0.2600
H15 H 0.3413 0.9845 0.1835
C27 C 0.6734(4) 0.97123(12) 0.3750(2)
C28 C 0.5400(4) 0.97774(13) 0.3264(2)
H18 H 0.5107 0.9546 0.2815
C30 C 0.7666(4) 0.92891(12) 0.3584(2)
O5 O 0.7331(3) 0.89478(9) 0.30130(16)
O6 O 0.8885(3) 0.92869(8) 0.40341(16)
C17_2 C 0.0012(4) 0.43629(15) 0.5733(3)
H10_2 H 0.0047 0.4159 0.5216
C18_2 C 0.1210(5) 0.45143(15) 0.6251(3)
H11_2 H 0.2040 0.4331 0.6172
C19_2 C 0.1346(4) 0.49101(13) 0.6887(2)
C20_2 C 0.0037(4) 0.50803(15) 0.7171(3)
H12_2 H 0.0011 0.5313 0.7644
C22_2 C 0.2719(4) 0.51102(13) 0.7305(2)
H14_2 H 0.2562 0.5427 0.7600
H15_2 H 0.3413 0.5155 0.6835
C23_2 C 0.4528(4) 0.48329(12) 0.8428(2)
C24_2 C 0.5003(4) 0.44634(13) 0.9053(2)
H16_2 H 0.4434 0.4187 0.9150
C25_2 C 0.6328(4) 0.45131(12) 0.9526(2)
C26_2 C 0.7193(4) 0.49145(12) 0.9370(2)
H17_2 H 0.8091 0.4938 0.9680
C27_2 C 0.6734(4) 0.52877(12) 0.8750(2)
C28_2 C 0.5400(4) 0.52226(13) 0.8264(2)
H18_2 H 0.5107 0.5454 0.7815
C30_2 C 0.7666(4) 0.57109(12) 0.8584(2)
O4_2 O 0.3230(3) 0.47403(9) 0.79906(16)
O5_2 O 0.7331(3) 0.60522(9) 0.80130(16)
C2_2 C 0.9283(4) 0.83819(13) 0.1189(2)
H1_2 H 0.8959 0.8649 0.1528
C3_2 C 0.8480(4) 0.82139(13) 0.0417(2)
C9_2 C 0.6719(4) 0.88247(14) 0.0643(3)
H4_2 H 0.6633 0.8718 0.1279
H5_2 H 0.7402 0.9096 0.0637
C10_2 C 0.5265(4) 0.89907(13) 0.0224(2)
C11_2 C 0.3984(5) 0.88307(15) 0.0559(3)
H6_2 H 0.3969 0.8612 0.1056
C12_2 C 0.2718(4) 0.90071(15) 0.0127(2)
H7_2 H 0.1861 0.8894 0.0350
O3_2 O 0.7181(3) 0.84276(9) 0.01001(16)
C4_2 C 0.8937(4) 0.78072(12) 0.9906(2)
H2_2 H 0.8392 0.7692 0.9393
C13_2 C 0.2623(4) 0.93389(13) 0.9389(2)
C14_2 C 0.3889(5) 0.94995(15) 0.9027(3)
H8_2 H 0.3929 0.9676 0.8476
C15_2 C 0.5074(5) 0.93681(16) 0.9574(3)
H9_2 H 0.5882 0.9563 0.9498
C16_2 C 0.1254(4) 0.95457(13) 0.8941(3)
C21_2 C 0.1238(4) 0.99038(13) 0.8251(2)
C17_3 C 0.9988(4) 0.56371(15) 0.4267(3)
H10_3 H 0.9953 0.5841 0.4784
C18_3 C 0.8790(5) 0.54857(15) 0.3749(3)
H11_3 H 0.7960 0.5669 0.3828
C19_3 C 0.8654(4) 0.50899(13) 0.3113(2)
C20_3 C 0.9963(4) 0.49197(15) 0.2829(3)
H12_3 H 0.9989 0.4687 0.2356
C22_3 C 0.7281(4) 0.48898(13) 0.2695(2)
H14_3 H 0.7438 0.4573 0.2400
H15_3 H 0.6587 0.4845 0.3165
C23_3 C 0.5472(4) 0.51671(12) 0.1572(2)
C24_3 C 0.4997(4) 0.55366(13) 0.0947(2)
H16_3 H 0.5566 0.5813 0.0850
C25_3 C 0.3672(4) 0.54869(12) 0.0474(2)
C26_3 C 0.2807(4) 0.50855(12) 0.0630(2)
H17_3 H 0.1909 0.5062 0.0320
C27_3 C 0.3266(4) 0.47123(12) 0.1250(2)
C28_3 C 0.4600(4) 0.47774(13) 0.1736(2)
H18_3 H 0.4893 0.4546 0.2185
C30_3 C 0.2334(4) 0.42891(12) 0.1416(2)
O4_3 O 0.6770(3) 0.52597(9) 0.20094(16)
O5_3 O 0.2669(3) 0.39478(9) 0.19870(16)
O6_2 O 0.1115(3) 0.42869(8) 0.09659(16)
C4_3 C 0.1063(4) 0.21928(12) 0.0094(2)
H2_3 H 0.1608 0.2308 0.0607
C13_3 C 0.7377(4) 0.06611(13) 0.0611(2)
C14_3 C 0.6111(5) 0.05005(15) 0.0973(3)
H8_3 H 0.6071 0.0324 0.1524
C15_3 C 0.4926(5) 0.06319(16) 0.0426(3)
H9_3 H 0.4118 0.0437 0.0502
C16_3 C 0.8746(4) 0.04543(13) 0.1059(3)
C21_3 C 0.8762(4) 0.00962(13) 0.1749(2)
O9_2 O 0.0217(3) 0.31395(9) 0.07204(16)
C2_3 C 0.0717(4) 0.16181(13) 0.8811(2)
H1_3 H 0.1041 0.1351 0.8472
C3_3 C 0.1520(4) 0.17861(13) 0.9583(2)
C9_3 C 0.3281(4) 0.11753(14) 0.9357(3)
H4_3 H 0.3367 0.1282 0.8721
H5_3 H 0.2598 0.0904 0.9363
C10_3 C 0.4735(4) 0.10093(13) 0.9776(2)
C11_3 C 0.6016(5) 0.11693(15) 0.9441(3)
H6_3 H 0.6031 0.1388 0.8944
C12_3 C 0.7282(4) 0.09929(15) 0.9873(2)
H7_3 H 0.8139 0.1106 0.9650
O3_3 O 0.2819(3) 0.15724(9) 0.98999(16)
O13_2 O 0.1115(3) 0.07131(8) 0.59659(16)
O16_2 O 0.0217(3) 0.18605(9) 0.57204(16)
C2_4 C 0.0717(4) 0.33819(13) 0.3811(2)
H1_4 H 0.1041 0.3649 0.3472
C3_4 C 0.1520(4) 0.32139(13) 0.4583(2)
C4_4 C 0.1063(4) 0.28072(12) 0.5094(2)
H2_4 H 0.1608 0.2692 0.5607
C9_4 C 0.3281(4) 0.38247(14) 0.4357(3)
H4_4 H 0.3367 0.3718 0.3721
H5_4 H 0.2598 0.4096 0.4363
C10_4 C 0.4735(4) 0.39907(13) 0.4776(2)
C11_4 C 0.6016(5) 0.38307(15) 0.4441(3)
H6_4 H 0.6031 0.3612 0.3944
C12_4 C 0.7282(4) 0.40071(15) 0.4873(2)
H7_4 H 0.8139 0.3894 0.4650
C13_4 C 0.7377(4) 0.43389(13) 0.5611(2)
C14_4 C 0.6111(5) 0.44995(15) 0.5973(3)
H8_4 H 0.6071 0.4676 0.6524
C15_4 C 0.4926(5) 0.43681(16) 0.5426(3)
H9_4 H 0.4118 0.4563 0.5502
C16_4 C 0.8746(4) 0.45457(13) 0.6059(3)
C21_4 C 0.8762(4) 0.49038(13) 0.6749(2)
H13_2 H 0.7894 0.5030 0.6935
O3_4 O 0.2819(3) 0.34276(9) 0.48999(16)
C20_4 C 0.9963(4) 0.00803(15) 0.7829(3)
H12_4 H 0.9989 0.0313 0.7356
C22_4 C 0.7281(4) 0.01102(13) 0.7695(2)
H14_4 H 0.7438 0.0427 0.7400
H15_4 H 0.6587 0.0155 0.8165
C27_4 C 0.3266(4) 0.02877(12) 0.6250(2)
C28_4 C 0.4600(4) 0.02226(13) 0.6736(2)
H18_4 H 0.4893 0.0454 0.7185
C30_4 C 0.2334(4) 0.07109(12) 0.6416(2)
O5_4 O 0.2669(3) 0.10522(9) 0.69870(16)
Zn5 Zn 0.96767(5) 0.379599(14) 0.11193(3)
C17_4 C 0.0012(4) 0.06371(15) 0.0733(3)
H10_4 H 0.0047 0.0841 0.0216
C18_4 C 0.1210(5) 0.04857(15) 0.1251(3)
H11_4 H 0.2040 0.0669 0.1172
C19_4 C 0.1346(4) 0.00899(13) 0.1887(2)
C23_4 C 0.4528(4) 0.01671(12) 0.3428(2)
C24_4 C 0.5003(4) 0.05366(13) 0.4053(2)
H16_4 H 0.4434 0.0813 0.4150
C25_4 C 0.6328(4) 0.04869(12) 0.4526(2)
C26_4 C 0.7193(4) 0.00855(12) 0.4370(2)
H17_4 H 0.8091 0.0062 0.4680
C29_3 C 0.6866(4) 0.08810(13) 0.5178(2)
O4_4 O 0.3230(3) 0.02597(9) 0.29906(16)
O7 O 0.8158(2) 0.08584(9) 0.54050(16)
O10 O 0.6002(3) 0.12005(9) 0.54558(16)
Zn4 Zn 0.64765(4) 0.179037(15) 0.62181(3)
Zn6 Zn 0.96767(5) 0.120401(14) 0.61193(3)
C8_3 C 0.9236(4) 0.28636(12) 0.0326(2)
O8_2 O 0.7932(3) 0.29468(9) 0.02945(16)
Zn3_2 Zn 0.64765(4) 0.320963(15) 0.12181(3)
C1_3 C 0.9444(4) 0.18450(12) 0.8549(2)
C5_3 C 0.9770(4) 0.24198(12) 0.9812(2)
C6_3 C 0.8950(4) 0.22471(12) 0.9053(2)
H3_3 H 0.8078 0.2397 0.8880
C7_3 C 0.8669(4) 0.16849(13) 0.7681(2)
O1_3 O 0.7714(3) 0.19671(9) 0.73287(16)
O2_3 O 0.9001(3) 0.12816(8) 0.73681(16)
O11_3 O 0.5094(3) 0.15580(9) 0.72044(16)
H19_3 H 0.5109 0.1246 0.7293
H20_3 H 0.4239 0.1665 0.7122
O12_3 O 0.5184(3) 0.23540(9) 0.58352(17)
H21_3 H 0.4740 0.2432 0.6313
H22_3 H 0.4554 0.2344 0.5388
O15_2 O 0.7932(3) 0.20532(9) 0.52945(16)
C29_4 C 0.6866(4) 0.41190(13) 0.0178(2)
O7_2 O 0.8158(2) 0.41416(9) 0.04050(16)
O10_2 O 0.6002(3) 0.37995(9) 0.04558(16)
C1_4 C 0.9444(4) 0.31550(12) 0.3549(2)
C5_4 C 0.9770(4) 0.25802(12) 0.4812(2)
C6_4 C 0.8950(4) 0.27529(12) 0.4053(2)
H3_4 H 0.8078 0.2603 0.3880
C7_4 C 0.8669(4) 0.33151(13) 0.2681(2)
C8_4 C 0.9236(4) 0.21364(12) 0.5326(2)
O1_4 O 0.7714(3) 0.30329(9) 0.23287(16)
O2_4 O 0.9001(3) 0.37184(8) 0.23681(16)
O11_4 O 0.5094(3) 0.34420(9) 0.22044(16)
H19_4 H 0.5109 0.3754 0.2293
H20_4 H 0.4239 0.3335 0.2122
O12_4 O 0.5184(3) 0.26460(9) 0.08352(17)
H21_4 H 0.4740 0.2568 0.1313
H22_4 H 0.4554 0.2656 0.0388
H13_3 H 0.7894 0.9970 0.1935
H13_4 H 0.2106 0.0030 0.8065
loop_
_geom_bond_atom_site_label_1
_geom_bond_atom_site_label_2
_geom_bond_site_symmetry_1
_geom_bond_site_symmetry_2
C6 C1 1_555 1_555
H3 C6 1_555 1_555
C7 C1 1_555 1_555
C8 C5 1_555 1_555
O1 C7 1_555 1_555
O2 C7 1_555 1_555
O8 C8 1_555 1_555
O11 H19 1_555 1_555
H20 O11 1_555 1_555
O12 H21 1_555 1_555
H22 O12 1_555 1_555
Zn1 O1 1_555 1_555
Zn2 O2 1_555 1_555
O14 Zn2 1_555 1_555
O15 Zn1 1_555 1_555
O17 Zn1 1_555 1_555
Zn3 O8 1_555 1_555
C5 C6 1_555 1_555
O11 Zn1 1_555 1_555
O12 Zn1 1_555 1_555
O14 C29 1_555 1_555
O17 C29 1_555 1_555
C6_2 C1_2 1_555 1_555
H3_2 C6_2 1_555 1_555
C7_2 C1_2 1_555 1_555
O1_2 C7_2 1_555 1_555
O2_2 C7_2 1_555 1_555
O11_2 H19_2 1_555 1_555
H20_2 O11_2 1_555 1_555
O12_2 H21_2 1_555 1_555
H22_2 O12_2 1_555 1_555
Zn3 O1_2 1_555 1_555
Zn7 O2_2 1_555 1_555
O14_2 Zn7 1_555 1_555
O17_2 Zn3 1_555 1_555
C5_2 C6_2 1_555 1_555
O11_2 Zn3 1_555 1_555
O12_2 Zn3 1_555 1_555
O15 C8_2 1_555 1_555
H10 C17 1_555 1_555
C18 C17 1_555 1_555
H11 C18 1_555 1_555
C19 C18 1_555 1_555
C23 C24 1_555 1_555
C24 H16 1_555 1_555
C25 C24 1_555 1_555
C26 C25 1_555 1_555
H17 C26 1_555 1_555
C29_2 C25 1_555 1_555
O14_2 C29_2 1_555 1_555
O17_2 C29_2 1_555 1_555
C23 O4 1_555 1_555
C2 H1 1_555 1_555
C3 C2 1_555 1_555
C4 C3 1_555 1_555
H2 C4 1_555 1_555
C9 H4 1_555 1_555
H5 C9 1_555 1_555
C10 C9 1_555 1_555
C11 C10 1_555 1_555
H6 C11 1_555 1_555
C12 C11 1_555 1_555
H7 C12 1_555 1_555
C13 C12 1_555 1_555
C14 C13 1_555 1_555
H8 C14 1_555 1_555
C15 C10 1_555 1_555
H9 C15 1_555 1_555
C16 C13 1_555 1_555
C21 C16 1_555 1_555
H13 C21 1_555 1_555
O3 C3 1_555 1_555
C9 O3 1_555 1_555
C14 C15 1_555 1_555
H12 C20 1_555 1_555
H14 C22 1_555 1_555
H15 C22 1_555 1_555
H18 C28 1_555 1_555
C30 C27 1_555 1_555
O5 C30 1_555 1_555
O6 C30 1_555 1_555
C27 C28 1_555 1_555
H10_2 C17_2 1_555 1_555
C18_2 C17_2 1_555 1_555
H11_2 C18_2 1_555 1_555
C19_2 C18_2 1_555 1_555
C20_2 C19_2 1_555 1_555
H12_2 C20_2 1_555 1_555
C22_2 C19_2 1_555 1_555
H14_2 C22_2 1_555 1_555
H15_2 C22_2 1_555 1_555
C23_2 C24_2 1_555 1_555
C24_2 H16_2 1_555 1_555
C25_2 C24_2 1_555 1_555
C26_2 C25_2 1_555 1_555
H17_2 C26_2 1_555 1_555
C27_2 C26_2 1_555 1_555
C28_2 C23_2 1_555 1_555
H18_2 C28_2 1_555 1_555
C30_2 C27_2 1_555 1_555
O4_2 C22_2 1_555 1_555
O5_2 C30_2 1_555 1_555
O13 C30_2 1_555 1_555
C23_2 O4_2 1_555 1_555
C27_2 C28_2 1_555 1_555
C2_2 H1_2 1_555 1_555
C3_2 C2_2 1_555 1_555
C9_2 H4_2 1_555 1_555
H5_2 C9_2 1_555 1_555
C10_2 C9_2 1_555 1_555
C11_2 C10_2 1_555 1_555
H6_2 C11_2 1_555 1_555
C12_2 C11_2 1_555 1_555
H7_2 C12_2 1_555 1_555
O3_2 C3_2 1_555 1_555
C9_2 O3_2 1_555 1_555
H2_2 C4_2 1_555 1_555
C14_2 C13_2 1_555 1_555
H8_2 C14_2 1_555 1_555
H9_2 C15_2 1_555 1_555
C16_2 C13_2 1_555 1_555
C21_2 C16_2 1_555 1_555
C14_2 C15_2 1_555 1_555
H10_3 C17_3 1_555 1_555
C18_3 C17_3 1_555 1_555
H11_3 C18_3 1_555 1_555
C19_3 C18_3 1_555 1_555
C20_3 C19_3 1_555 1_555
H12_3 C20_3 1_555 1_555
C22_3 C19_3 1_555 1_555
H14_3 C22_3 1_555 1_555
H15_3 C22_3 1_555 1_555
C23_3 C24_3 1_555 1_555
C24_3 H16_3 1_555 1_555
C25_3 C24_3 1_555 1_555
C26_3 C25_3 1_555 1_555
H17_3 C26_3 1_555 1_555
C27_3 C26_3 1_555 1_555
C28_3 C23_3 1_555 1_555
H18_3 C28_3 1_555 1_555
C30_3 C27_3 1_555 1_555
O4_3 C22_3 1_555 1_555
O5_3 C30_3 1_555 1_555
O6_2 C30_3 1_555 1_555
C23_3 O4_3 1_555 1_555
C27_3 C28_3 1_555 1_555
H2_3 C4_3 1_555 1_555
C14_3 C13_3 1_555 1_555
H8_3 C14_3 1_555 1_555
H9_3 C15_3 1_555 1_555
C16_3 C13_3 1_555 1_555
C21_3 C16_3 1_555 1_555
C14_3 C15_3 1_555 1_555
C2_3 H1_3 1_555 1_555
C3_3 C2_3 1_555 1_555
C9_3 H4_3 1_555 1_555
H5_3 C9_3 1_555 1_555
C10_3 C9_3 1_555 1_555
C11_3 C10_3 1_555 1_555
H6_3 C11_3 1_555 1_555
C12_3 C11_3 1_555 1_555
H7_3 C12_3 1_555 1_555
O3_3 C3_3 1_555 1_555
C9_3 O3_3 1_555 1_555
C2_4 H1_4 1_555 1_555
C3_4 C2_4 1_555 1_555
C4_4 C3_4 1_555 1_555
H2_4 C4_4 1_555 1_555
C9_4 H4_4 1_555 1_555
H5_4 C9_4 1_555 1_555
C10_4 C9_4 1_555 1_555
C11_4 C10_4 1_555 1_555
H6_4 C11_4 1_555 1_555
C12_4 C11_4 1_555 1_555
H7_4 C12_4 1_555 1_555
C13_4 C12_4 1_555 1_555
C14_4 C13_4 1_555 1_555
H8_4 C14_4 1_555 1_555
C15_4 C10_4 1_555 1_555
H9_4 C15_4 1_555 1_555
C16_4 C13_4 1_555 1_555
C21_4 C16_4 1_555 1_555
H13_2 C21_4 1_555 1_555
O3_4 C3_4 1_555 1_555
C9_4 O3_4 1_555 1_555
C14_4 C15_4 1_555 1_555
H12_4 C20_4 1_555 1_555
H14_4 C22_4 1_555 1_555
H15_4 C22_4 1_555 1_555
H18_4 C28_4 1_555 1_555
C30_4 C27_4 1_555 1_555
O5_4 C30_4 1_555 1_555
O13_2 C30_4 1_555 1_555
C27_4 C28_4 1_555 1_555
H10_4 C17_4 1_555 1_555
C18_4 C17_4 1_555 1_555
H11_4 C18_4 1_555 1_555
C19_4 C18_4 1_555 1_555
C23_4 C24_4 1_555 1_555
C24_4 H16_4 1_555 1_555
C25_4 C24_4 1_555 1_555
C26_4 C25_4 1_555 1_555
H17_4 C26_4 1_555 1_555
C29_3 C25_4 1_555 1_555
O7 C29_3 1_555 1_555
O10 C29_3 1_555 1_555
Zn4 O10 1_555 1_555
Zn6 O7 1_555 1_555
C23_4 O4_4 1_555 1_555
O8_2 C8_3 1_555 1_555
Zn3_2 O8_2 1_555 1_555
C6_3 C1_3 1_555 1_555
H3_3 C6_3 1_555 1_555
C7_3 C1_3 1_555 1_555
O1_3 C7_3 1_555 1_555
O2_3 C7_3 1_555 1_555
O11_3 H19_3 1_555 1_555
H20_3 O11_3 1_555 1_555
O12_3 H21_3 1_555 1_555
H22_3 O12_3 1_555 1_555
Zn4 O1_3 1_555 1_555
Zn6 O2_3 1_555 1_555
O15_2 Zn4 1_555 1_555
C5_3 C6_3 1_555 1_555
O11_3 Zn4 1_555 1_555
O12_3 Zn4 1_555 1_555
O7_2 C29_4 1_555 1_555
O10_2 C29_4 1_555 1_555
Zn3_2 O10_2 1_555 1_555
Zn5 O7_2 1_555 1_555
C6_4 C1_4 1_555 1_555
H3_4 C6_4 1_555 1_555
C7_4 C1_4 1_555 1_555
C8_4 C5_4 1_555 1_555
O1_4 C7_4 1_555 1_555
O2_4 C7_4 1_555 1_555
O15_2 C8_4 1_555 1_555
O11_4 H19_4 1_555 1_555
H20_4 O11_4 1_555 1_555
O12_4 H21_4 1_555 1_555
H22_4 O12_4 1_555 1_555
Zn3_2 O1_4 1_555 1_555
Zn5 O2_4 1_555 1_555
C5_4 C6_4 1_555 1_555
O11_4 Zn3_2 1_555 1_555
O12_4 Zn3_2 1_555 1_555

#END
