
###############################################################################
#
# This file contains modified crystal structure data generated from the
# MOF subset of the Cambridge Structural Database (CSD) v543 
# hosted by the Cambridge Crystallographic Data Centre (CCDC).
#
# This work is licensed under the Creative Commons
# Attribution-NonCommercial-ShareAlike 4.0 International License.
# To view a copy of this license, visit
# http://creativecommons.org/licenses/by-nc-sa/4.0/
# or send a letter to
# Creative Commons, PO Box 1866, Mountain View, CA 94042, USA.
#
# CIF created using the CSD Python API on 29 September 2022
# The structure has been converted into the P1 space group
# The structure has a 3D framework
# The original CSD entry AVIMUO is in the monoclinic crystal system
# The framework has been calculated to contain at least 10.0% void space
# The void calculation uses a probe of radius 1.32A, grid spacing 0.4
#
###############################################################################

data_AVIMUO
_chemical_formula_moiety         '(C120 H88 Mn8 O44)n'
_symmetry_cell_setting           triclinic
_symmetry_space_group_name_H-M   'P 1'
_symmetry_Int_Tables_number      1
_space_group_name_Hall           'P 1'
loop_
_symmetry_equiv_pos_site_id
_symmetry_equiv_pos_as_xyz
1 x,y,z
_cell_length_a                   8.6801(11)
_cell_length_b                   28.708(4)
_cell_length_c                   13.9279(18)
_cell_angle_alpha                90
_cell_angle_beta                 90.910(2)
_cell_angle_gamma                90
_cell_volume                     3470.23
loop_
_atom_site_label
_atom_site_type_symbol
_atom_site_fract_x
_atom_site_fract_y
_atom_site_fract_z
Mn4 Mn 0.02907(6) 0.126709(17) 0.94851(4)
C23 C 0.4851(3) 0.04038(11) 0.8365(2)
H14 H 0.4311 0.0646 0.8070
C24 C 0.6288(4) 0.04891(11) 0.8797(2)
C25 C 0.7085(4) 0.01288(11) 0.9230(2)
H15 H 0.8046 0.0185 0.9510
C28 C 0.6907(3) 0.09584(10) 0.8786(2)
C30 C 0.1377(4) 0.00663(13) 0.8219(3)
H17 H 0.1267 0.0004 0.8899
H18 H 0.1415 0.0402 0.8141
O7 O 0.6048(2) 0.13150(8) 0.87116(16)
O8 O 0.8376(2) 0.09880(8) 0.88140(17)
Mn7 Mn 0.42118(6) 0.164901(17) 0.93774(4)
O9 O 0.8580(3) 0.93621(8) 0.00564(16)
Mn5 Mn 0.97093(6) 0.873291(17) 0.05149(4)
Mn8 Mn 0.57882(6) 0.835099(17) 0.06226(4)
C20 C 0.0024(4) 0.94715(12) 0.7266(3)
H13 H 0.0894 0.9283 0.7308
C21 C 0.0035(4) 0.98977(12) 0.7730(3)
C22 C 0.4229(4) 0.99567(12) 0.8375(2)
C26 C 0.6465(4) 0.96819(12) 0.9251(2)
C27 C 0.5046(4) 0.95903(12) 0.8807(2)
H16 H 0.4648 0.9290 0.8799
C29 C 0.7259(3) 0.92782(10) 0.9732(2)
O6 O 0.2854(3) 0.98723(8) 0.79144(16)
O10 O 0.6512(2) 0.88983(8) 0.97742(16)
C2 C 0.0061(4) 0.84146(11) 0.3310(2)
H1 H 0.0348 0.8676 0.2962
C3 C 0.0965(4) 0.82540(12) 0.4086(2)
C4 C 0.0521(3) 0.78719(9) 0.4609(2)
H2 H 0.1132 0.7771 0.5122
C9 C 0.2037(4) 0.89459(12) 0.4756(3)
H4 H 0.1181 0.8932 0.5195
H5 H 0.1756 0.9160 0.4244
C10 C 0.3395(4) 0.91317(12) 0.5276(2)
C11 C 0.3359(4) 0.94293(11) 0.6051(3)
H6 H 0.2405 0.9545 0.6228
C12 C 0.4618(4) 0.95671(12) 0.6579(3)
H7 H 0.4521 0.9743 0.7136
C13 C 0.6041(3) 0.94326(10) 0.6247(2)
C14 C 0.6152(4) 0.91544(12) 0.5440(3)
H8 H 0.7116 0.9069 0.5217
C15 C 0.4830(4) 0.90035(13) 0.4965(3)
H9 H 0.4913 0.8813 0.4429
C17 C 0.7344(4) 0.99872(12) 0.7293(2)
C18 C 0.7394(4) 0.95709(11) 0.6773(3)
C19 C 0.8745(4) 0.93166(12) 0.6736(3)
H12 H 0.8800 0.9048 0.6366
O5 O 0.2264(2) 0.84891(8) 0.43475(17)
O16 O 0.1624(2) 0.90120(8) 0.11860(17)
C1 C 0.8720(3) 0.81706(10) 0.3075(2)
C5 C 0.9161(4) 0.76345(11) 0.4378(2)
C6 C 0.8265(4) 0.77881(11) 0.3611(2)
H3 H 0.7353 0.7634 0.3454
C7 C 0.7806(3) 0.83270(10) 0.22194(19)
C8 C 0.8829(4) 0.71990(13) 0.4916(3)
O1 O 0.8295(3) 0.86669(8) 0.17190(16)
O2 O 0.6576(2) 0.81166(8) 0.20103(16)
O3 O 0.7380(3) 0.71181(8) 0.48846(17)
O4 O 0.9759(3) 0.69984(8) 0.54448(17)
Mn3 Mn 0.97093(6) 0.626709(17) 0.55149(4)
Mn6 Mn 0.57882(6) 0.664901(17) 0.56226(4)
O14 O 0.9759(3) 0.80016(8) 0.04448(17)
O15 O 0.3952(2) 0.86850(8) 0.12884(16)
H19 H 0.9832 0.8912 0.8653
O12 O 0.3991(2) 0.80072(8) 0.96782(17)
H21 H 0.4392 0.7772 0.9407
H22 H 0.3718 0.8198 0.9240
O13 O 0.7380(3) 0.78819(8) 0.98846(17)
C1_2 C 0.1280(3) 0.31706(10) 0.1925(2)
C5_2 C 0.0839(4) 0.26345(11) 0.0622(2)
C6_2 C 0.1735(4) 0.27881(11) 0.1389(2)
H3_2 H 0.2647 0.2634 0.1546
C7_2 C 0.2194(3) 0.33270(10) 0.27806(19)
C8_2 C 0.1171(4) 0.21990(13) 0.0084(3)
Mn1 Mn 0.02907(6) 0.373291(17) 0.44851(4)
Mn2 Mn 0.42118(6) 0.335099(17) 0.43774(4)
O1_2 O 0.1705(3) 0.36669(8) 0.32810(16)
O2_2 O 0.3424(2) 0.31166(8) 0.29897(16)
O3_2 O 0.2620(3) 0.21181(8) 0.01154(17)
H19_2 H 0.0168 0.3912 0.6347
O12_2 O 0.6009(2) 0.30072(8) 0.53218(17)
H21_2 H 0.5608 0.2772 0.5593
H22_2 H 0.6282 0.3198 0.5760
O13_2 O 0.2620(3) 0.28819(8) 0.51154(17)
O14_2 O 0.0241(3) 0.30016(8) 0.45552(17)
O15_2 O 0.6048(2) 0.36850(8) 0.37116(16)
O17 O 0.1420(3) 0.43621(8) 0.49436(16)
O18 O 0.3488(2) 0.38983(8) 0.52258(16)
O4_2 O 0.0241(3) 0.19984(8) 0.95552(17)
C2_2 C 0.9939(4) 0.34146(11) 0.1690(2)
H1_2 H 0.9652 0.3676 0.2038
C3_2 C 0.9035(4) 0.32540(12) 0.0914(2)
C4_2 C 0.9479(3) 0.28719(9) 0.0391(2)
C9_2 C 0.7963(4) 0.39459(12) 0.0244(3)
H5_2 H 0.8244 0.4160 0.0756
C15_2 C 0.5170(4) 0.40035(13) 0.0035(3)
H9_2 H 0.5087 0.3813 0.0571
O5_2 O 0.7736(2) 0.34891(8) 0.06525(17)
O11 O 0.9408(3) 0.39160(8) 0.59544(17)
H20 H 0.8789 0.3703 0.6125
O16_2 O 0.8376(2) 0.40120(8) 0.38140(17)
C20_2 C 0.9976(4) 0.44715(12) 0.7734(3)
H13_2 H 0.9106 0.4283 0.7692
C21_2 C 0.9965(4) 0.48977(12) 0.7270(3)
C22_2 C 0.5771(4) 0.49567(12) 0.6625(2)
C23_2 C 0.5149(3) 0.54038(11) 0.6635(2)
H14_2 H 0.5689 0.5646 0.6930
C24_2 C 0.3712(4) 0.54891(11) 0.6203(2)
C25_2 C 0.2915(4) 0.51288(11) 0.5770(2)
H15_2 H 0.1954 0.5185 0.5490
C26_2 C 0.3535(4) 0.46819(12) 0.5749(2)
C27_2 C 0.4954(4) 0.45903(12) 0.6193(2)
H16_2 H 0.5352 0.4290 0.6201
C28_2 C 0.3093(3) 0.59584(10) 0.6214(2)
C29_2 C 0.2741(3) 0.42782(10) 0.5268(2)
C30_2 C 0.8623(4) 0.50663(13) 0.6781(3)
H17_2 H 0.8733 0.5004 0.6101
H18_2 H 0.8585 0.5402 0.6859
O6_2 O 0.7146(3) 0.48723(8) 0.70856(16)
O7_2 O 0.3952(2) 0.63150(8) 0.62884(16)
O8_2 O 0.1624(2) 0.59880(8) 0.61860(17)
H19_3 H 0.0168 0.1088 0.1347
O12_3 O 0.6009(2) 0.19928(8) 0.03218(17)
H21_3 H 0.5608 0.2228 0.0593
H22_3 H 0.6282 0.1802 0.0760
O18_2 O 0.3488(2) 0.11017(8) 0.02258(16)
C1_3 C 0.1280(3) 0.18294(10) 0.6925(2)
C5_3 C 0.0839(4) 0.23655(11) 0.5622(2)
C6_3 C 0.1735(4) 0.22119(11) 0.6389(2)
H3_3 H 0.2647 0.2366 0.6546
C7_3 C 0.2194(3) 0.16730(10) 0.77806(19)
C8_3 C 0.1171(4) 0.28010(13) 0.5084(3)
O1_3 O 0.1705(3) 0.13331(8) 0.82810(16)
O2_3 O 0.3424(2) 0.18834(8) 0.79897(16)
O17_2 O 0.1420(3) 0.06379(8) 0.99436(16)
C2_3 C 0.9939(4) 0.15854(11) 0.6690(2)
H1_3 H 0.9652 0.1324 0.7038
C3_3 C 0.9035(4) 0.17460(12) 0.5914(2)
C4_3 C 0.9479(3) 0.21281(9) 0.5391(2)
H2_2 H 0.8868 0.2229 0.4878
C9_3 C 0.7963(4) 0.10541(12) 0.5244(3)
H4_2 H 0.8819 0.1068 0.4805
H5_3 H 0.8244 0.0840 0.5756
C10_2 C 0.6605(4) 0.08683(12) 0.4724(2)
C11_2 C 0.6641(4) 0.05707(11) 0.3949(3)
H6_2 H 0.7595 0.0455 0.3772
C12_2 C 0.5382(4) 0.04329(12) 0.3421(3)
H7_2 H 0.5479 0.0257 0.2864
C13_2 C 0.3959(3) 0.05674(10) 0.3753(2)
C14_2 C 0.3848(4) 0.08456(12) 0.4560(3)
H8_2 H 0.2884 0.0931 0.4783
C15_3 C 0.5170(4) 0.09965(13) 0.5035(3)
H9_3 H 0.5087 0.1187 0.5571
C17_2 C 0.2656(4) 0.00128(12) 0.2707(2)
C18_2 C 0.2606(4) 0.04291(11) 0.3227(3)
C19_2 C 0.1255(4) 0.06834(12) 0.3264(3)
H12_2 H 0.1200 0.0952 0.3634
O5_3 O 0.7736(2) 0.15109(8) 0.56525(17)
C20_3 C 0.9976(4) 0.05285(12) 0.2734(3)
H13_3 H 0.9106 0.0717 0.2692
C21_3 C 0.9965(4) 0.01023(12) 0.2270(3)
C22_3 C 0.5771(4) 0.00433(12) 0.1625(2)
C26_3 C 0.3535(4) 0.03181(12) 0.0749(2)
C27_3 C 0.4954(4) 0.04097(12) 0.1193(2)
H16_3 H 0.5352 0.0710 0.1201
C29_3 C 0.2741(3) 0.07218(10) 0.0268(2)
O6_3 O 0.7146(3) 0.01277(8) 0.20856(16)
C23_3 C 0.5149(3) 0.95962(11) 0.1635(2)
H14_3 H 0.5689 0.9354 0.1930
C24_3 C 0.3712(4) 0.95109(11) 0.1203(2)
C25_3 C 0.2915(4) 0.98712(11) 0.0770(2)
H15_3 H 0.1954 0.9815 0.0490
C28_3 C 0.3093(3) 0.90416(10) 0.1214(2)
C30_3 C 0.8623(4) 0.99337(13) 0.1781(3)
H17_3 H 0.8733 0.9996 0.1101
H18_3 H 0.8585 0.9598 0.1859
C20_4 C 0.0024(4) 0.55285(12) 0.2266(3)
H13_4 H 0.0894 0.5717 0.2308
C21_4 C 0.0035(4) 0.51023(12) 0.2730(3)
C22_4 C 0.4229(4) 0.50433(12) 0.3375(2)
C23_4 C 0.4851(3) 0.45962(11) 0.3365(2)
H14_4 H 0.4311 0.4354 0.3070
C24_4 C 0.6288(4) 0.45109(11) 0.3797(2)
C25_4 C 0.7085(4) 0.48712(11) 0.4230(2)
H15_4 H 0.8046 0.4815 0.4510
C26_4 C 0.6465(4) 0.53181(12) 0.4251(2)
C27_4 C 0.5046(4) 0.54097(12) 0.3807(2)
H16_4 H 0.4648 0.5710 0.3799
C28_4 C 0.6907(3) 0.40416(10) 0.3786(2)
C29_4 C 0.7259(3) 0.57218(10) 0.4732(2)
C30_4 C 0.1377(4) 0.49337(13) 0.3219(3)
H17_4 H 0.1267 0.4996 0.3899
H18_4 H 0.1415 0.4598 0.3141
O6_4 O 0.2854(3) 0.51277(8) 0.29144(16)
O9_2 O 0.8580(3) 0.56379(8) 0.50564(16)
O10_2 O 0.6512(2) 0.61017(8) 0.47742(16)
C2_4 C 0.0061(4) 0.65854(11) 0.8310(2)
H1_4 H 0.0348 0.6324 0.7962
C3_4 C 0.0965(4) 0.67460(12) 0.9086(2)
C4_4 C 0.0521(3) 0.71281(9) 0.9609(2)
C9_4 C 0.2037(4) 0.60541(12) 0.9756(3)
H5_4 H 0.1756 0.5840 0.9244
C15_4 C 0.4830(4) 0.59965(13) 0.9965(3)
H9_4 H 0.4913 0.6187 0.9429
O5_4 O 0.2264(2) 0.65109(8) 0.93475(17)
O11_2 O 0.0592(3) 0.60840(8) 0.40456(17)
H20_2 H 0.1211 0.6297 0.3875
C1_4 C 0.8720(3) 0.68294(10) 0.8075(2)
C5_4 C 0.9161(4) 0.73655(11) 0.9378(2)
C6_4 C 0.8265(4) 0.72119(11) 0.8611(2)
H3_4 H 0.7353 0.7366 0.8454
C7_4 C 0.7806(3) 0.66730(10) 0.72194(19)
C8_4 C 0.8829(4) 0.78010(13) 0.9916(3)
O1_4 O 0.8295(3) 0.63331(8) 0.67190(16)
O2_4 O 0.6576(2) 0.68834(8) 0.70103(16)
H19_4 H 0.9832 0.6088 0.3653
O12_4 O 0.3991(2) 0.69928(8) 0.46782(17)
H21_4 H 0.4392 0.7228 0.4407
H22_4 H 0.3718 0.6802 0.4240
C16 C 0.8659(4) 0.01498(12) 0.7762(3)
H10 H 0.8625 0.0429 0.8100
H11 H 0.6429 0.0155 0.7324
O11_3 O 0.0592(3) 0.89160(8) 0.90456(17)
H20_3 H 0.1211 0.8703 0.8875
H2_3 H 0.8868 0.2771 0.9878
H4_3 H 0.8819 0.3932 0.9805
C10_3 C 0.6605(4) 0.41317(12) 0.9724(2)
C11_3 C 0.6641(4) 0.44293(11) 0.8949(3)
H6_3 H 0.7595 0.4545 0.8772
C12_3 C 0.5382(4) 0.45671(12) 0.8421(3)
H7_3 H 0.5479 0.4743 0.7864
C13_3 C 0.3959(3) 0.44326(10) 0.8753(2)
C14_3 C 0.3848(4) 0.41544(12) 0.9560(3)
H8_3 H 0.2884 0.4069 0.9783
C16_2 C 0.1341(4) 0.51498(12) 0.7238(3)
H10_2 H 0.1375 0.5429 0.6900
C17_3 C 0.2656(4) 0.49872(12) 0.7707(2)
H11_2 H 0.3571 0.5155 0.7676
C18_3 C 0.2606(4) 0.45709(11) 0.8227(3)
C19_3 C 0.1255(4) 0.43166(12) 0.8264(3)
H12_3 H 0.1200 0.4048 0.8634
O11_4 O 0.9408(3) 0.10840(8) 0.09544(17)
H20_4 H 0.8789 0.1297 0.1125
C16_3 C 0.1341(4) 0.98502(12) 0.2238(3)
H10_3 H 0.1375 0.9571 0.1900
H11_3 H 0.3571 0.9845 0.2676
H2_4 H 0.1132 0.7229 0.0122
H4_4 H 0.1181 0.6068 0.0195
C10_4 C 0.3395(4) 0.58683(12) 0.0276(2)
C11_4 C 0.3359(4) 0.55707(11) 0.1051(3)
H6_4 H 0.2405 0.5455 0.1228
C12_4 C 0.4618(4) 0.54329(12) 0.1579(3)
H7_4 H 0.4521 0.5257 0.2136
C13_4 C 0.6041(3) 0.55674(10) 0.1247(2)
C14_4 C 0.6152(4) 0.58456(12) 0.0440(3)
H8_4 H 0.7116 0.5931 0.0217
C16_4 C 0.8659(4) 0.48502(12) 0.2762(3)
H10_4 H 0.8625 0.4571 0.3100
C17_4 C 0.7344(4) 0.50128(12) 0.2293(2)
H11_4 H 0.6429 0.4845 0.2324
C18_4 C 0.7394(4) 0.54291(11) 0.1773(3)
C19_4 C 0.8745(4) 0.56834(12) 0.1736(3)
H12_4 H 0.8800 0.5952 0.1366
loop_
_geom_bond_atom_site_label_1
_geom_bond_atom_site_label_2
_geom_bond_site_symmetry_1
_geom_bond_site_symmetry_2
C23 H14 1_555 1_555
C24 C23 1_555 1_555
C25 C24 1_555 1_555
H15 C25 1_555 1_555
C28 C24 1_555 1_555
H17 C30 1_555 1_555
H18 C30 1_555 1_555
O7 C28 1_555 1_555
O8 C28 1_555 1_555
Mn7 O7 1_555 1_555
Mn5 O9 1_555 1_555
H13 C20 1_555 1_555
C27 C22 1_555 1_555
H16 C27 1_555 1_555
C29 C26 1_555 1_555
O6 C22 1_555 1_555
O10 C29 1_555 1_555
C20 C21 1_555 1_555
C26 C27 1_555 1_555
C2 H1 1_555 1_555
C3 C2 1_555 1_555
C4 C3 1_555 1_555
H2 C4 1_555 1_555
C9 H4 1_555 1_555
H5 C9 1_555 1_555
C10 C9 1_555 1_555
C11 C10 1_555 1_555
H6 C11 1_555 1_555
C12 C11 1_555 1_555
H7 C12 1_555 1_555
C13 C12 1_555 1_555
C14 C13 1_555 1_555
H8 C14 1_555 1_555
C15 C10 1_555 1_555
H9 C15 1_555 1_555
C18 C13 1_555 1_555
C19 C18 1_555 1_555
H12 C19 1_555 1_555
O5 C3 1_555 1_555
C9 O5 1_555 1_555
C14 C15 1_555 1_555
C17 C18 1_555 1_555
C6 C1 1_555 1_555
H3 C6 1_555 1_555
C7 C1 1_555 1_555
C8 C5 1_555 1_555
Mn5 O1 1_555 1_555
Mn8 O2 1_555 1_555
O1 C7 1_555 1_555
O2 C7 1_555 1_555
O3 C8 1_555 1_555
O4 C8 1_555 1_555
Mn3 O4 1_555 1_555
Mn6 O3 1_555 1_555
O14 Mn5 1_555 1_555
O15 Mn8 1_555 1_555
C5 C6 1_555 1_555
H21 O12 1_555 1_555
H22 O12 1_555 1_555
C6_2 C1_2 1_555 1_555
H3_2 C6_2 1_555 1_555
C7_2 C1_2 1_555 1_555
C8_2 C5_2 1_555 1_555
Mn1 O1_2 1_555 1_555
Mn2 O2_2 1_555 1_555
O1_2 C7_2 1_555 1_555
O2_2 C7_2 1_555 1_555
O3_2 C8_2 1_555 1_555
O12_2 Mn2 1_555 1_555
H21_2 O12_2 1_555 1_555
H22_2 O12_2 1_555 1_555
O13_2 Mn2 1_555 1_555
O14_2 Mn1 1_555 1_555
O15_2 Mn2 1_555 1_555
O17 Mn1 1_555 1_555
O18 Mn2 1_555 1_555
C5_2 C6_2 1_555 1_555
Mn4 O4_2 1_555 1_555
C2_2 H1_2 1_555 1_555
C3_2 C2_2 1_555 1_555
C4_2 C3_2 1_555 1_555
H5_2 C9_2 1_555 1_555
H9_2 C15_2 1_555 1_555
O5_2 C3_2 1_555 1_555
H20 O11 1_555 1_555
C9_2 O5_2 1_555 1_555
H13_2 C20_2 1_555 1_555
C22_2 C23_2 1_555 1_555
C23_2 H14_2 1_555 1_555
C24_2 C23_2 1_555 1_555
C25_2 C24_2 1_555 1_555
H15_2 C25_2 1_555 1_555
C26_2 C25_2 1_555 1_555
C27_2 C22_2 1_555 1_555
H16_2 C27_2 1_555 1_555
C28_2 C24_2 1_555 1_555
C29_2 C26_2 1_555 1_555
C30_2 C21_2 1_555 1_555
H17_2 C30_2 1_555 1_555
H18_2 C30_2 1_555 1_555
O6_2 C22_2 1_555 1_555
O7_2 C28_2 1_555 1_555
O8_2 C28_2 1_555 1_555
O17 C29_2 1_555 1_555
O18 C29_2 1_555 1_555
Mn6 O7_2 1_555 1_555
C20_2 C21_2 1_555 1_555
C26_2 C27_2 1_555 1_555
C30_2 O6_2 1_555 1_555
H21_3 O12_3 1_555 1_555
H22_3 O12_3 1_555 1_555
C6_3 C1_3 1_555 1_555
H3_3 C6_3 1_555 1_555
C7_3 C1_3 1_555 1_555
C8_3 C5_3 1_555 1_555
Mn4 O1_3 1_555 1_555
Mn7 O2_3 1_555 1_555
O1_3 C7_3 1_555 1_555
O2_3 C7_3 1_555 1_555
O13_2 C8_3 1_555 1_555
O14_2 C8_3 1_555 1_555
O17_2 Mn4 1_555 1_555
C5_3 C6_3 1_555 1_555
C2_3 H1_3 1_555 1_555
C3_3 C2_3 1_555 1_555
C4_3 C3_3 1_555 1_555
H2_2 C4_3 1_555 1_555
C9_3 H4_2 1_555 1_555
H5_3 C9_3 1_555 1_555
C10_2 C9_3 1_555 1_555
C11_2 C10_2 1_555 1_555
H6_2 C11_2 1_555 1_555
C12_2 C11_2 1_555 1_555
H7_2 C12_2 1_555 1_555
C13_2 C12_2 1_555 1_555
C14_2 C13_2 1_555 1_555
H8_2 C14_2 1_555 1_555
C15_3 C10_2 1_555 1_555
H9_3 C15_3 1_555 1_555
C18_2 C13_2 1_555 1_555
C19_2 C18_2 1_555 1_555
H12_2 C19_2 1_555 1_555
O5_3 C3_3 1_555 1_555
C9_3 O5_3 1_555 1_555
C14_2 C15_3 1_555 1_555
C17_2 C18_2 1_555 1_555
H13_3 C20_3 1_555 1_555
C27_3 C22_3 1_555 1_555
H16_3 C27_3 1_555 1_555
C29_3 C26_3 1_555 1_555
O6_3 C22_3 1_555 1_555
O18_2 C29_3 1_555 1_555
C20_3 C21_3 1_555 1_555
C26_3 C27_3 1_555 1_555
C23_3 H14_3 1_555 1_555
C24_3 C23_3 1_555 1_555
C25_3 C24_3 1_555 1_555
H15_3 C25_3 1_555 1_555
C28_3 C24_3 1_555 1_555
H17_3 C30_3 1_555 1_555
H18_3 C30_3 1_555 1_555
O15 C28_3 1_555 1_555
O16 C28_3 1_555 1_555
H13_4 C20_4 1_555 1_555
C22_4 C23_4 1_555 1_555
C23_4 H14_4 1_555 1_555
C24_4 C23_4 1_555 1_555
C25_4 C24_4 1_555 1_555
H15_4 C25_4 1_555 1_555
C26_4 C25_4 1_555 1_555
C27_4 C22_4 1_555 1_555
H16_4 C27_4 1_555 1_555
C28_4 C24_4 1_555 1_555
C29_4 C26_4 1_555 1_555
C30_4 C21_4 1_555 1_555
H17_4 C30_4 1_555 1_555
H18_4 C30_4 1_555 1_555
O6_4 C22_4 1_555 1_555
O15_2 C28_4 1_555 1_555
O16_2 C28_4 1_555 1_555
O9_2 C29_4 1_555 1_555
O10_2 C29_4 1_555 1_555
Mn3 O9_2 1_555 1_555
Mn6 O10_2 1_555 1_555
C20_4 C21_4 1_555 1_555
C26_4 C27_4 1_555 1_555
C30_4 O6_4 1_555 1_555
C2_4 H1_4 1_555 1_555
C3_4 C2_4 1_555 1_555
C4_4 C3_4 1_555 1_555
H5_4 C9_4 1_555 1_555
H9_4 C15_4 1_555 1_555
O5_4 C3_4 1_555 1_555
H20_2 O11_2 1_555 1_555
C9_4 O5_4 1_555 1_555
C6_4 C1_4 1_555 1_555
H3_4 C6_4 1_555 1_555
C7_4 C1_4 1_555 1_555
C8_4 C5_4 1_555 1_555
Mn3 O1_4 1_555 1_555
Mn6 O2_4 1_555 1_555
O1_4 C7_4 1_555 1_555
O2_4 C7_4 1_555 1_555
O13 C8_4 1_555 1_555
O12_4 Mn6 1_555 1_555
H21_4 O12_4 1_555 1_555
H22_4 O12_4 1_555 1_555
C5_4 C6_4 1_555 1_555
C16 H10 1_555 1_555
H20_3 O11_3 1_555 1_555
C11_3 C10_3 1_555 1_555
H6_3 C11_3 1_555 1_555
C12_3 C11_3 1_555 1_555
H7_3 C12_3 1_555 1_555
C13_3 C12_3 1_555 1_555
C14_3 C13_3 1_555 1_555
H8_3 C14_3 1_555 1_555
C16_2 H10_2 1_555 1_555
C17_3 C16_2 1_555 1_555
H11_2 C17_3 1_555 1_555
C18_3 C13_3 1_555 1_555
C19_3 C18_3 1_555 1_555
H12_3 C19_3 1_555 1_555
C17_3 C18_3 1_555 1_555
H20_4 O11_4 1_555 1_555
C16_3 H10_3 1_555 1_555
C11_4 C10_4 1_555 1_555
H6_4 C11_4 1_555 1_555
C12_4 C11_4 1_555 1_555
H7_4 C12_4 1_555 1_555
C13_4 C12_4 1_555 1_555
C14_4 C13_4 1_555 1_555
H8_4 C14_4 1_555 1_555
C16_4 H10_4 1_555 1_555
C17_4 C16_4 1_555 1_555
H11_4 C17_4 1_555 1_555
C18_4 C13_4 1_555 1_555
C19_4 C18_4 1_555 1_555
H12_4 C19_4 1_555 1_555
C17_4 C18_4 1_555 1_555

#END
