
###############################################################################
#
# This file contains modified crystal structure data generated from the
# MOF subset of the Cambridge Structural Database (CSD) v543 
# hosted by the Cambridge Crystallographic Data Centre (CCDC).
#
# This work is licensed under the Creative Commons
# Attribution-NonCommercial-ShareAlike 4.0 International License.
# To view a copy of this license, visit
# http://creativecommons.org/licenses/by-nc-sa/4.0/
# or send a letter to
# Creative Commons, PO Box 1866, Mountain View, CA 94042, USA.
#
# CIF created using the CSD Python API on 29 September 2022
# The structure has been converted into the P1 space group
# The structure has a 3D framework
# The original CSD entry AVIPOL is in the monoclinic crystal system
# The framework has been calculated to contain at least 10.0% void space
# The void calculation uses a probe of radius 1.32A, grid spacing 0.4
#
###############################################################################

data_AVIPOL
_chemical_formula_moiety         '(C68 H60 Mg8 N12 O40)n'
_symmetry_cell_setting           triclinic
_symmetry_space_group_name_H-M   'P 1'
_symmetry_Int_Tables_number      1
_space_group_name_Hall           'P 1'
loop_
_symmetry_equiv_pos_site_id
_symmetry_equiv_pos_as_xyz
1 x,y,z
_cell_length_a                   13.7442(14)
_cell_length_b                   14.2887(15)
_cell_length_c                   14.1178(14)
_cell_angle_alpha                90
_cell_angle_beta                 104.912(2)
_cell_angle_gamma                90
_cell_volume                     2679.18
loop_
_atom_site_label
_atom_site_type_symbol
_atom_site_fract_x
_atom_site_fract_y
_atom_site_fract_z
Mg4 Mg 0.62529(5) 0.29123(6) 0.01738(5)
Mg1 Mg 0.12529(5) 0.20877(6) 0.51738(5)
Mg2 Mg 0.38341(5) 0.09888(5) 0.55142(5)
O1 O 0.19145(12) 0.22052(12) 0.40448(11)
O2 O 0.35618(13) 0.18963(13) 0.43698(12)
O3 O 0.13693(13) 0.49403(14) 0.04613(14)
O4 O 0.03124(12) 0.41132(13) 0.10807(13)
O5 O 0.38565(12) 0.20130(12) 0.65092(12)
O6 O 0.23710(12) 0.27378(12) 0.61779(12)
O7 O 0.31728(17) 0.57459(12) 0.95772(13)
O8 O 0.18032(14) 0.50920(13) 0.86580(13)
O9 O 0.05565(15) 0.1942(2) 0.62942(15)
H2 H 0.094(3) 0.190(3) 0.6871(14)
N1 N 0.37116(16) 0.31887(19) 0.17735(17)
N2 N 0.48396(14) 0.34107(15) 0.91229(13)
C1 C 0.27576(17) 0.22438(16) 0.38628(16)
C2 C 0.27990(16) 0.27669(17) 0.29475(16)
C3 C 0.36424(18) 0.2739(2) 0.25820(18)
H3 H 0.4192 0.2387 0.2919
C4 C 0.29223(18) 0.3709(2) 0.13069(18)
H4 H 0.2972 0.4046 0.0758
C5 C 0.20354(16) 0.37721(17) 0.15988(16)
C6 C 0.11645(16) 0.43276(17) 0.09951(16)
C7 C 0.19757(16) 0.32831(16) 0.24281(16)
H5 H 0.1387 0.3300 0.2637
C8 C 0.32456(16) 0.25948(16) 0.66813(16)
C9 C 0.35959(16) 0.31742(16) 0.75953(15)
C10 C 0.45061(17) 0.29710(17) 0.82593(16)
H6 H 0.4907 0.2505 0.8098
C11 C 0.42648(16) 0.40988(16) 0.93231(16)
H7 H 0.4484 0.4412 0.9917
C12 C 0.33553(16) 0.43730(16) 0.86910(16)
C13 C 0.27400(19) 0.51340(16) 0.89882(16)
C14 C 0.30124(16) 0.38875(16) 0.78197(16)
H8 H 0.2397 0.4039 0.7391
O10 O 0.06375(15) 0.34176(15) 0.47477(15)
C15 C 0.1101(3) 0.4132(3) 0.4666(2)
H9 H 0.178(3) 0.418(2) 0.505(3)
N3 N 0.0746(3) 0.4838(2) 0.4084(2)
C17 C 0.1341(5) 0.5667(4) 0.4026(6)
H13 H 0.0946 0.6097 0.3561
H14 H 0.1929 0.5491 0.3820
H15 H 0.1541 0.5959 0.4658
Mg3 Mg 0.37471(5) 0.70877(6) 0.98262(5)
Mg7 Mg 0.11659(5) 0.59888(5) 0.94858(5)
O12 O 0.53124(12) 0.08868(13) 0.60807(13)
O13 O 0.18272(17) 0.07459(12) 0.54228(13)
O14 O 0.31968(14) 0.00920(13) 0.63420(13)
O11 O 0.36307(13) 0.99403(14) 0.45387(14)
H1 H 0.9979(15) 0.191(3) 0.641(3)
C16 C 0.9753(4) 0.4815(3) 0.3453(3)
H10 H 0.9625 0.5384 0.3081
H11 H 0.9275 0.4753 0.3840
H12 H 0.9690 0.4292 0.3015
Mg6 Mg 0.88341(5) 0.40112(5) 0.05142(5)
N4 N 0.98396(14) 0.15893(15) 0.41229(13)
H10_2 H 0.5375 0.0384 0.1919
C17_2 C 0.3659(5) 0.0667(4) 0.0974(6)
H13_2 H 0.4054 0.1097 0.1439
H14_2 H 0.3071 0.0491 0.1180
H15_2 H 0.3459 0.0959 0.0342
C13_2 C 0.22600(19) 0.01340(16) 0.60118(16)
O1_2 O 0.30855(12) 0.72052(12) 0.09552(11)
O2_2 O 0.14382(13) 0.68963(13) 0.06302(12)
O4_2 O 0.46876(12) 0.91132(13) 0.39193(13)
N1_2 N 0.12884(16) 0.81887(19) 0.32265(17)
C1_2 C 0.22424(17) 0.72438(16) 0.11372(16)
C2_2 C 0.22010(16) 0.77669(17) 0.20525(16)
C3_2 C 0.13576(18) 0.7739(2) 0.24180(18)
H3_2 H 0.0808 0.7387 0.2081
C4_2 C 0.20777(18) 0.8709(2) 0.36931(18)
H4_2 H 0.2028 0.9046 0.4242
C5_2 C 0.29646(16) 0.87721(17) 0.34012(16)
C6_2 C 0.38355(16) 0.93276(17) 0.40049(16)
C7_2 C 0.30243(16) 0.82831(16) 0.25719(16)
H5_2 H 0.3613 0.8300 0.2363
O10_2 O 0.43625(15) 0.84176(15) 0.02523(15)
C15_2 C 0.3899(3) 0.9132(3) 0.0334(2)
N3_2 N 0.4254(3) 0.9838(2) 0.0916(2)
C16_2 C 0.5247(4) 0.9815(3) 0.1547(3)
H11_2 H 0.5725 0.9753 0.1160
H12_2 H 0.5310 0.9292 0.1985
Mg6_2 Mg 0.61659(5) 0.90112(5) 0.44858(5)
N4_2 N 0.51604(14) 0.65893(15) 0.08771(13)
O5_2 O 0.11435(12) 0.70130(12) 0.84908(12)
O6_2 O 0.26290(12) 0.77378(12) 0.88221(12)
O9_2 O 0.44435(15) 0.6942(2) 0.87058(15)
H1_2 H 0.5021(15) 0.691(3) 0.859(3)
H2_2 H 0.406(3) 0.690(3) 0.8129(14)
N2_2 N 0.01604(14) 0.84107(15) 0.58771(13)
C8_2 C 0.17544(16) 0.75948(16) 0.83187(16)
C9_2 C 0.14041(16) 0.81742(16) 0.74047(15)
C10_2 C 0.04939(17) 0.79710(17) 0.67407(16)
H6_2 H 0.0093 0.7505 0.6902
C11_2 C 0.07352(16) 0.90988(16) 0.56769(16)
H7_2 H 0.0516 0.9412 0.5083
C12_2 C 0.16447(16) 0.93730(16) 0.63090(16)
C14_2 C 0.19876(16) 0.88875(16) 0.71803(16)
H8_2 H 0.2603 0.9039 0.7609
H9_2 H 0.322(3) 0.918(2) 0.995(3)
Mg4_2 Mg 0.87471(5) 0.79123(6) 0.48262(5)
O12_2 O 0.96876(12) 0.58868(13) 0.89193(13)
H1_3 H 0.0021(15) 0.809(3) 0.359(3)
C16_3 C 0.0247(4) 0.5185(3) 0.6547(3)
H10_3 H 0.0375 0.4616 0.6919
H11_3 H 0.0725 0.5247 0.6160
H12_3 H 0.0310 0.5708 0.6985
O11_2 O 0.63693(13) 0.00597(14) 0.54613(14)
O1_3 O 0.80855(12) 0.77948(12) 0.59552(11)
O2_3 O 0.64382(13) 0.81037(13) 0.56302(12)
O3_2 O 0.86307(13) 0.50597(14) 0.95387(14)
O5_3 O 0.61435(12) 0.79870(12) 0.34908(12)
O6_3 O 0.76290(12) 0.72622(12) 0.38221(12)
O7_2 O 0.68272(17) 0.42541(12) 0.04228(13)
O8_2 O 0.81968(14) 0.49080(13) 0.13420(13)
O9_3 O 0.94435(15) 0.8058(2) 0.37058(15)
H2_3 H 0.906(3) 0.810(3) 0.3129(14)
N1_3 N 0.62884(16) 0.68113(19) 0.82265(17)
C1_3 C 0.72424(17) 0.77562(16) 0.61372(16)
C2_3 C 0.72010(16) 0.72331(17) 0.70525(16)
C3_3 C 0.63576(18) 0.7261(2) 0.74180(18)
H3_3 H 0.5808 0.7613 0.7081
C4_3 C 0.70777(18) 0.6291(2) 0.86931(18)
H4_3 H 0.7028 0.5954 0.9242
C5_3 C 0.79646(16) 0.62279(17) 0.84012(16)
C6_3 C 0.88355(16) 0.56724(17) 0.90049(16)
C7_3 C 0.80243(16) 0.67169(16) 0.75719(16)
H5_3 H 0.8613 0.6700 0.7363
C8_3 C 0.67544(16) 0.74052(16) 0.33187(16)
C9_3 C 0.64041(16) 0.68258(16) 0.24047(15)
C10_3 C 0.54939(17) 0.70290(17) 0.17407(16)
H6_3 H 0.5093 0.7495 0.1902
C11_3 C 0.57352(16) 0.59012(16) 0.06769(16)
H7_3 H 0.5516 0.5588 0.0083
C12_3 C 0.66447(16) 0.56270(16) 0.13090(16)
C13_3 C 0.72600(19) 0.48660(16) 0.10118(16)
C14_3 C 0.69876(16) 0.61125(16) 0.21803(16)
H8_3 H 0.7603 0.5961 0.2609
O10_3 O 0.93625(15) 0.65824(15) 0.52523(15)
C15_3 C 0.8899(3) 0.5868(3) 0.5334(2)
H9_3 H 0.822(3) 0.582(2) 0.495(3)
N3_3 N 0.9254(3) 0.5162(2) 0.5916(2)
C17_3 C 0.8659(5) 0.4333(4) 0.5974(6)
H13_3 H 0.9054 0.3903 0.6439
H14_3 H 0.8071 0.4509 0.6180
H15_3 H 0.8459 0.4041 0.5342
O13_2 O 0.81728(17) 0.92541(12) 0.45772(13)
O14_2 O 0.68032(14) 0.99080(13) 0.36580(13)
O5_4 O 0.88565(12) 0.29870(12) 0.15092(12)
O6_4 O 0.73710(12) 0.22622(12) 0.11779(12)
O9_4 O 0.55565(15) 0.3058(2) 0.12942(15)
H1_4 H 0.4979(15) 0.309(3) 0.141(3)
H2_4 H 0.594(3) 0.310(3) 0.1871(14)
C8_4 C 0.82456(16) 0.24052(16) 0.16813(16)
C9_4 C 0.85959(16) 0.18258(16) 0.25953(15)
C10_4 C 0.95061(17) 0.20290(17) 0.32593(16)
H6_4 H 0.9907 0.2495 0.3098
C11_4 C 0.92648(16) 0.09012(16) 0.43231(16)
H7_4 H 0.9484 0.0588 0.4917
C12_4 C 0.83553(16) 0.06270(16) 0.36910(16)
C14_4 C 0.80124(16) 0.11125(16) 0.28197(16)
H8_4 H 0.7397 0.0961 0.2391
H9_4 H 0.678(3) 0.082(2) 0.005(3)
O1_4 O 0.69145(12) 0.27948(12) 0.90448(11)
O2_4 O 0.85618(13) 0.31037(13) 0.93698(12)
N1_4 N 0.87116(16) 0.18113(19) 0.67735(17)
C1_4 C 0.77576(17) 0.27562(16) 0.88628(16)
C2_4 C 0.77990(16) 0.22331(17) 0.79475(16)
C3_4 C 0.86424(18) 0.2261(2) 0.75820(18)
H3_4 H 0.9192 0.2613 0.7919
C4_4 C 0.79223(18) 0.1291(2) 0.63069(18)
H4_4 H 0.7972 0.0954 0.5758
C5_4 C 0.70354(16) 0.12279(17) 0.65988(16)
C6_4 C 0.61645(16) 0.06724(17) 0.59951(16)
C7_4 C 0.69757(16) 0.17169(16) 0.74281(16)
H5_4 H 0.6387 0.1700 0.7637
O10_4 O 0.56375(15) 0.15824(15) 0.97477(15)
C15_4 C 0.6101(3) 0.0868(3) 0.9666(2)
N3_4 N 0.5746(3) 0.0162(2) 0.9084(2)
C16_4 C 0.4753(4) 0.0185(3) 0.8453(3)
H11_4 H 0.4275 0.0247 0.8840
H12_4 H 0.4690 0.0708 0.8015
C13_4 C 0.77400(19) 0.98660(16) 0.39882(16)
H10_4 H 0.4625 0.9616 0.8081
C17_4 C 0.6341(5) 0.9333(4) 0.9026(6)
H13_4 H 0.5946 0.8903 0.8561
H14_4 H 0.6929 0.9509 0.8820
H15_4 H 0.6541 0.9041 0.9658
loop_
_geom_bond_atom_site_label_1
_geom_bond_atom_site_label_2
_geom_bond_site_symmetry_1
_geom_bond_site_symmetry_2
Mg1 O1 1_555 1_555
Mg2 O2 1_555 1_555
O1 C1 1_555 1_555
O2 C1 1_555 1_555
O3 C6 1_555 1_555
O4 C6 1_555 1_555
O5 Mg2 1_555 1_555
O6 Mg1 1_555 1_555
O7 C13 1_555 1_555
O8 C13 1_555 1_555
O9 Mg1 1_555 1_555
H2 O9 1_555 1_555
N1 C3 1_555 1_555
N2 C10 1_555 1_555
C1 C2 1_555 1_555
C2 C3 1_555 1_555
C3 H3 1_555 1_555
C4 N1 1_555 1_555
H4 C4 1_555 1_555
C5 C4 1_555 1_555
C6 C5 1_555 1_555
C7 C2 1_555 1_555
H5 C7 1_555 1_555
C8 O5 1_555 1_555
C9 C8 1_555 1_555
C10 C9 1_555 1_555
H6 C10 1_555 1_555
C11 N2 1_555 1_555
H7 C11 1_555 1_555
C12 C11 1_555 1_555
C13 C12 1_555 1_555
C14 C9 1_555 1_555
H8 C14 1_555 1_555
O10 Mg1 1_555 1_555
C15 O10 1_555 1_555
H9 C15 1_555 1_555
N3 C15 1_555 1_555
C17 N3 1_555 1_555
H13 C17 1_555 1_555
H14 C17 1_555 1_555
H15 C17 1_555 1_555
Mg3 O7 1_555 1_555
Mg7 O7 1_555 1_555
O12 Mg2 1_555 1_555
O13 Mg1 1_555 1_555
O14 Mg2 1_555 1_555
Mg2 O13 1_555 1_555
O6 C8 1_555 1_555
O8 Mg7 1_555 1_555
C5 C7 1_555 1_555
C12 C14 1_555 1_555
H10 C16 1_555 1_555
H11 C16 1_555 1_555
H12 C16 1_555 1_555
H13_2 C17_2 1_555 1_555
H14_2 C17_2 1_555 1_555
H15_2 C17_2 1_555 1_555
O13 C13_2 1_555 1_555
O14 C13_2 1_555 1_555
O1_2 C1_2 1_555 1_555
O2_2 C1_2 1_555 1_555
O11 C6_2 1_555 1_555
O4_2 C6_2 1_555 1_555
N1_2 C3_2 1_555 1_555
C1_2 C2_2 1_555 1_555
C2_2 C3_2 1_555 1_555
C3_2 H3_2 1_555 1_555
C4_2 N1_2 1_555 1_555
H4_2 C4_2 1_555 1_555
C5_2 C4_2 1_555 1_555
C6_2 C5_2 1_555 1_555
C7_2 C2_2 1_555 1_555
H5_2 C7_2 1_555 1_555
C15_2 O10_2 1_555 1_555
N3_2 C15_2 1_555 1_555
C16_2 N3_2 1_555 1_555
H11_2 C16_2 1_555 1_555
H12_2 C16_2 1_555 1_555
Mg6_2 O4_2 1_555 1_555
C5_2 C7_2 1_555 1_555
O5_2 Mg7 1_555 1_555
O6_2 Mg3 1_555 1_555
O9_2 Mg3 1_555 1_555
H1_2 O9_2 1_555 1_555
H2_2 O9_2 1_555 1_555
N2_2 C10_2 1_555 1_555
C8_2 O5_2 1_555 1_555
C9_2 C8_2 1_555 1_555
C10_2 C9_2 1_555 1_555
H6_2 C10_2 1_555 1_555
C11_2 N2_2 1_555 1_555
H7_2 C11_2 1_555 1_555
C12_2 C11_2 1_555 1_555
C14_2 C9_2 1_555 1_555
H8_2 C14_2 1_555 1_555
O6_2 C8_2 1_555 1_555
C12_2 C14_2 1_555 1_555
H10_3 C16_3 1_555 1_555
H11_3 C16_3 1_555 1_555
H12_3 C16_3 1_555 1_555
Mg4_2 O1_3 1_555 1_555
Mg6_2 O2_3 1_555 1_555
O1_3 C1_3 1_555 1_555
O2_3 C1_3 1_555 1_555
O3_2 C6_3 1_555 1_555
O12_2 C6_3 1_555 1_555
O5_3 Mg6_2 1_555 1_555
O6_3 Mg4_2 1_555 1_555
O7_2 C13_3 1_555 1_555
O8_2 C13_3 1_555 1_555
O9_3 Mg4_2 1_555 1_555
H2_3 O9_3 1_555 1_555
N1_3 C3_3 1_555 1_555
N4_2 C10_3 1_555 1_555
C1_3 C2_3 1_555 1_555
C2_3 C3_3 1_555 1_555
C3_3 H3_3 1_555 1_555
C4_3 N1_3 1_555 1_555
H4_3 C4_3 1_555 1_555
C5_3 C4_3 1_555 1_555
C6_3 C5_3 1_555 1_555
C7_3 C2_3 1_555 1_555
H5_3 C7_3 1_555 1_555
C8_3 O5_3 1_555 1_555
C9_3 C8_3 1_555 1_555
C10_3 C9_3 1_555 1_555
H6_3 C10_3 1_555 1_555
C11_3 N4_2 1_555 1_555
H7_3 C11_3 1_555 1_555
C12_3 C11_3 1_555 1_555
C13_3 C12_3 1_555 1_555
C14_3 C9_3 1_555 1_555
H8_3 C14_3 1_555 1_555
O10_3 Mg4_2 1_555 1_555
C15_3 O10_3 1_555 1_555
H9_3 C15_3 1_555 1_555
N3_3 C15_3 1_555 1_555
C17_3 N3_3 1_555 1_555
H13_3 C17_3 1_555 1_555
H14_3 C17_3 1_555 1_555
H15_3 C17_3 1_555 1_555
Mg4 O7_2 1_555 1_555
Mg6 O7_2 1_555 1_555
O13_2 Mg4_2 1_555 1_555
O14_2 Mg6_2 1_555 1_555
Mg6_2 O13_2 1_555 1_555
O6_3 C8_3 1_555 1_555
O8_2 Mg6 1_555 1_555
C5_3 C7_3 1_555 1_555
C12_3 C14_3 1_555 1_555
O5_4 Mg6 1_555 1_555
O6_4 Mg4 1_555 1_555
O9_4 Mg4 1_555 1_555
H1_4 O9_4 1_555 1_555
H2_4 O9_4 1_555 1_555
N4 C10_4 1_555 1_555
C8_4 O5_4 1_555 1_555
C9_4 C8_4 1_555 1_555
C10_4 C9_4 1_555 1_555
H6_4 C10_4 1_555 1_555
C11_4 N4 1_555 1_555
H7_4 C11_4 1_555 1_555
C12_4 C11_4 1_555 1_555
C14_4 C9_4 1_555 1_555
H8_4 C14_4 1_555 1_555
O6_4 C8_4 1_555 1_555
C12_4 C14_4 1_555 1_555
O1_4 C1_4 1_555 1_555
O2_4 C1_4 1_555 1_555
O11_2 C6_4 1_555 1_555
O12 C6_4 1_555 1_555
N1_4 C3_4 1_555 1_555
C1_4 C2_4 1_555 1_555
C2_4 C3_4 1_555 1_555
C3_4 H3_4 1_555 1_555
C4_4 N1_4 1_555 1_555
H4_4 C4_4 1_555 1_555
C5_4 C4_4 1_555 1_555
C6_4 C5_4 1_555 1_555
C7_4 C2_4 1_555 1_555
H5_4 C7_4 1_555 1_555
C15_4 O10_4 1_555 1_555
N3_4 C15_4 1_555 1_555
C16_4 N3_4 1_555 1_555
H11_4 C16_4 1_555 1_555
H12_4 C16_4 1_555 1_555
C5_4 C7_4 1_555 1_555
O13_2 C13_4 1_555 1_555
O14_2 C13_4 1_555 1_555
H13_4 C17_4 1_555 1_555
H14_4 C17_4 1_555 1_555
H15_4 C17_4 1_555 1_555

#END
