
###############################################################################
#
# This file contains modified crystal structure data generated from the
# MOF subset of the Cambridge Structural Database (CSD) v543 
# hosted by the Cambridge Crystallographic Data Centre (CCDC).
#
# This work is licensed under the Creative Commons
# Attribution-NonCommercial-ShareAlike 4.0 International License.
# To view a copy of this license, visit
# http://creativecommons.org/licenses/by-nc-sa/4.0/
# or send a letter to
# Creative Commons, PO Box 1866, Mountain View, CA 94042, USA.
#
# CIF created using the CSD Python API on 29 September 2022
# The structure has been converted into the P1 space group
# The structure has a 3D framework
# The original CSD entry AVIRIJ is in the triclinic crystal system
# The framework has been calculated to contain at least 10.0% void space
# The void calculation uses a probe of radius 1.32A, grid spacing 0.4
# H atom positions have been added when not included in the experimental data
#
###############################################################################

data_AVIRIJ
_chemical_formula_moiety         '(C12 H22 Ba2 N2 O6 P2)n'
_symmetry_cell_setting           triclinic
_symmetry_space_group_name_H-M   'P 1'
_symmetry_Int_Tables_number      1
_space_group_name_Hall           'P 1'
loop_
_symmetry_equiv_pos_site_id
_symmetry_equiv_pos_as_xyz
1 x,y,z
_cell_length_a                   6.2432(2)
_cell_length_b                   6.6474(3)
_cell_length_c                   13.6807(10)
_cell_angle_alpha                99.996(3)
_cell_angle_beta                 95.484(4)
_cell_angle_gamma                85.982(3)
_cell_volume                     555.757
loop_
_atom_site_label
_atom_site_type_symbol
_atom_site_fract_x
_atom_site_fract_y
_atom_site_fract_z
_atom_site_U_iso_or_equiv
_atom_site_thermal_displace_type
H22 H 0.171146 0.15492 0.0421897 . .
O5 O 0.492(4) 0.493(4) 0.605(2) 0.0224 Uiso
O6 O 0.096(4) 0.454(3) 0.604(2) 0.0224 Uiso
O7 O 0.346(3) 0.150(4) 0.567(3) 0.0224 Uiso
P2 P 0.3172(18) 0.360(2) 0.6349(14) 0.0266 Uiso
C7 C 0.328(6) 0.359(6) 0.773(4) 0.0266 Uiso
N2 N 0.244(5) 0.179(5) 0.800(3) 0.0266 Uiso
C8 C 0.374(6) 0.042(6) 0.858(3) 0.0266 Uiso
C10 C 0.075(6) 0.067(6) 0.981(4) 0.0266 Uiso
C12 C 0.099(6) 0.307(6) 0.866(3) 0.0266 Uiso
Ba6 Ba 0.7574(7) 0.2353(7) 0.4994(6) 0.0224 Uiso
Ba10 Ba 0.2426(7) 0.7647(7) 0.5006(6) 0.0224 Uiso
H8 H 0.234414 0.493308 0.80664 . .
H9 H 0.495535 0.368216 0.803183 . .
H14 H 0.481786 0.129806 0.914255 . .
H20 H 0.00303495 0.406753 0.821396 . .
H21 H 0.19996 0.398894 0.923753 . .
C5 C 0.059(6) 0.794(7) 0.081(3) 0.0266 Uiso
H5 H 0.169298 0.883025 0.135488 . .
H6 H 0.15058 0.677856 0.0331375 . .
C9 C 0.218(7) 0.933(6) 0.908(4) 0.0266 Uiso
H15 H 0.468373 0.930514 0.809101 . .
H18 H 0.313361 0.825733 0.948584 . .
H19 H 0.112449 0.848982 0.849293 . .
O4 O 0.059(4) 0.998(4) 0.367(2) 0.0224 Uiso
C3 C 0.782(7) 0.067(6) 0.092(4) 0.0266 Uiso
H3 H 0.531627 0.0694856 0.190899 . .
H12 H 0.887551 0.151018 0.150707 . .
H13 H 0.686639 0.174267 0.0514157 . .
C11 C 0.941(6) 0.206(7) 0.919(3) 0.0266 Uiso
H16 H 0.84942 0.322144 0.966862 . .
H17 H 0.830702 0.116975 0.864512 . .
O1 O 0.508(4) 0.507(4) 0.395(2) 0.0224 Uiso
O2 O 0.904(4) 0.546(3) 0.396(2) 0.0224 Uiso
O3 O 0.654(3) 0.850(4) 0.433(3) 0.0224 Uiso
P1 P 0.6828(18) 0.640(2) 0.3651(14) 0.0266 Uiso
C1 C 0.672(6) 0.641(6) 0.227(4) 0.0266 Uiso
N1 N 0.756(5) 0.821(5) 0.200(3) 0.0266 Uiso
C2 C 0.626(6) 0.958(6) 0.142(3) 0.0266 Uiso
C4 C 0.925(6) 0.933(6) 0.019(4) 0.0266 Uiso
C6 C 0.901(6) 0.693(6) 0.134(3) 0.0266 Uiso
O17 O 0.941(4) 0.002(4) 0.633(2) 0.0224 Uiso
H1 H 0.504465 0.631784 0.196817 . .
H2 H 0.765586 0.506692 0.19336 . .
H4 H 0.518214 0.870194 0.0857451 . .
H10 H 0.80004 0.601106 0.0762471 . .
H11 H 0.996965 0.593247 0.178604 . .
H7 H 0.828854 0.84508 0.95781 . .
loop_
_geom_bond_atom_site_label_1
_geom_bond_atom_site_label_2
_geom_bond_site_symmetry_1
_geom_bond_site_symmetry_2
O5 P2 1_555 1_555
O6 P2 1_555 1_555
O7 P2 1_555 1_555
P2 C7 1_555 1_555
C7 N2 1_555 1_555
N2 C8 1_555 1_555
C12 N2 1_555 1_555
Ba6 O5 1_555 1_555
Ba10 O5 1_555 1_555
O6 Ba10 1_555 1_555
O7 Ba6 1_555 1_555
C7 H8 1_555 1_555
C7 H9 1_555 1_555
C8 H14 1_555 1_555
C12 H20 1_555 1_555
C12 H21 1_555 1_555
C5 H5 1_555 1_555
C5 H6 1_555 1_555
C9 H18 1_555 1_555
C9 H19 1_555 1_555
Ba10 O4 1_555 1_555
C3 H12 1_555 1_555
C3 H13 1_555 1_555
C11 H16 1_555 1_555
C11 H17 1_555 1_555
Ba6 O1 1_555 1_555
O1 P1 1_555 1_555
O2 Ba6 1_555 1_555
O3 P1 1_555 1_555
P1 O2 1_555 1_555
C1 P1 1_555 1_555
N1 C1 1_555 1_555
C2 N1 1_555 1_555
C6 N1 1_555 1_555
Ba10 O1 1_555 1_555
O17 Ba6 1_555 1_555
O3 Ba10 1_555 1_555
C1 H1 1_555 1_555
C1 H2 1_555 1_555
C2 H4 1_555 1_555
C6 H10 1_555 1_555
C6 H11 1_555 1_555

#END
