
###############################################################################
#
# This file contains modified crystal structure data generated from the
# MOF subset of the Cambridge Structural Database (CSD) v543 
# hosted by the Cambridge Crystallographic Data Centre (CCDC).
#
# This work is licensed under the Creative Commons
# Attribution-NonCommercial-ShareAlike 4.0 International License.
# To view a copy of this license, visit
# http://creativecommons.org/licenses/by-nc-sa/4.0/
# or send a letter to
# Creative Commons, PO Box 1866, Mountain View, CA 94042, USA.
#
# CIF created using the CSD Python API on 29 September 2022
# The structure has been converted into the P1 space group
# The structure has a 3D framework
# The original CSD entry AVUJAF is in the triclinic crystal system
# The framework has been calculated to contain at least 10.0% void space
# The void calculation uses a probe of radius 1.32A, grid spacing 0.4
#
###############################################################################

data_AVUJAF
_chemical_formula_moiety         '(C144 H92 Co4 N8 O18)n'
_symmetry_cell_setting           triclinic
_symmetry_space_group_name_H-M   'P 1'
_symmetry_Int_Tables_number      1
_space_group_name_Hall           'P 1'
loop_
_symmetry_equiv_pos_site_id
_symmetry_equiv_pos_as_xyz
1 x,y,z
_cell_length_a                   15.6949(7)
_cell_length_b                   16.2787(7)
_cell_length_c                   17.4503(8)
_cell_angle_alpha                78.711(2)
_cell_angle_beta                 80.290(2)
_cell_angle_gamma                72.523(2)
_cell_volume                     4141.46
loop_
_atom_site_label
_atom_site_type_symbol
_atom_site_fract_x
_atom_site_fract_y
_atom_site_fract_z
Co1 Co 0.15031(3) 0.33368(2) 0.06999(2)
O4 O 0.15613(14) 0.09764(12) 0.03984(11)
O5 O 0.18546(14) 0.20214(12) 0.08746(11)
O6 O 0.17689(15) 0.15603(13) 0.80071(12)
O7 O 0.18479(15) 0.03248(13) 0.88026(11)
N3 N 0.01198(16) 0.33974(15) 0.07496(14)
C21 C 0.16639(19) 0.13089(17) 0.09581(16)
C22 C 0.1571(2) 0.08200(18) 0.17703(16)
C23 C 0.1554(2) 0.12050(19) 0.24224(17)
H12 H 0.162371 0.177617 0.234993
C24 C 0.1437(2) 0.07587(19) 0.31692(17)
H13 H 0.141115 0.103583 0.360714
H16 H 0.185825 0.004965 0.463803
C35 C 0.1499(3) 0.0527(2) 0.60849(18)
H19 H 0.143104 0.088318 0.558582
C36 C 0.1624(2) 0.0871(2) 0.67086(18)
H20 H 0.164018 0.146017 0.663530
C37 C 0.1728(2) 0.0355(2) 0.74461(17)
C40 C 0.1798(2) 0.07613(19) 0.81277(17)
H23 H 0.010088 0.246683 0.167025
Co8 Co 0.16115(3) 0.15646(2) 0.92596(2)
O10 O 0.13367(15) 0.33304(12) 0.19586(11)
O11 O 0.12155(14) 0.45599(12) 0.11582(11)
N6 N 0.28910(17) 0.32595(16) 0.06566(14)
O15 O 0.15779(13) 0.39201(12) 0.95533(11)
H35 H 0.014913 0.073808 0.022628
O9 O 0.12640(14) 0.28729(12) 0.90951(11)
N1 N 0.02033(16) 0.16925(16) 0.93274(14)
C1 C 0.1230(2) 0.41397(18) 0.18435(17)
C2 C 0.1151(2) 0.45943(19) 0.25264(17)
C3 C 0.1113(3) 0.5472(2) 0.24282(17)
H1 H 0.112549 0.579971 0.191432
C4 C 0.1058(3) 0.5872(2) 0.30722(17)
H2 H 0.104778 0.646936 0.299185
C5 C 0.1017(2) 0.54159(19) 0.38385(17)
C6 C 0.1054(3) 0.4532(2) 0.39296(17)
H3 H 0.102382 0.420540 0.444332
C7 C 0.1134(2) 0.4126(2) 0.32851(18)
H4 H 0.117842 0.352153 0.336041
C8 C 0.0914(2) 0.58320(19) 0.45425(17)
C9 C 0.0475(2) 0.67206(19) 0.45328(16)
H5 H 0.025441 0.707133 0.406630
C10 C 0.0366(2) 0.70781(18) 0.52037(17)
C11 C 0.0640(2) 0.65876(19) 0.59098(17)
H6 H 0.054376 0.685373 0.636708
C12 C 0.1060(2) 0.56996(19) 0.59361(17)
C13 C 0.1223(2) 0.5341(2) 0.52440(17)
H7 H 0.155242 0.474657 0.524945
C14 C 0.1264(2) 0.51368(19) 0.66997(17)
C15 C 0.1392(3) 0.5474(2) 0.73389(17)
H8 H 0.143053 0.605630 0.726454
C16 C 0.1462(2) 0.4976(2) 0.80720(18)
H9 H 0.153850 0.522229 0.849748
C17 C 0.1423(2) 0.41194(19) 0.81992(17)
C18 C 0.1321(2) 0.37678(19) 0.75650(17)
H10 H 0.130411 0.317879 0.763868
C19 C 0.1245(2) 0.42676(19) 0.68309(17)
H11 H 0.117789 0.401533 0.640547
C20 C 0.14307(19) 0.35936(18) 0.90038(16)
C25 C 0.1356(2) 0.99058(19) 0.33036(17)
C26 C 0.1384(3) 0.9528(2) 0.26451(18)
H14 H 0.133395 0.894969 0.271680
C27 C 0.1481(3) 0.99750(19) 0.18904(18)
H15 H 0.148765 0.970633 0.145199
C28 C 0.1185(2) 0.94622(19) 0.41163(17)
C29 C 0.1485(2) 0.96676(19) 0.47444(17)
C30 C 0.1252(2) 0.93297(19) 0.55241(17)
C31 C 0.0738(2) 0.87420(19) 0.56706(17)
H17 H 0.057210 0.849938 0.619552
C32 C 0.0469(2) 0.85124(18) 0.50435(17)
C33 C 0.0677(2) 0.88617(18) 0.42761(17)
H18 H 0.047789 0.869712 0.385907
C34 C 0.1472(3) 0.9659(2) 0.61805(17)
C38 C 0.1727(3) 0.9493(2) 0.75436(19)
H21 H 0.181304 0.913426 0.803957
C39 C 0.1600(3) 0.9150(2) 0.69160(19)
H22 H 0.159990 0.855604 0.698951
N5 N 0.29874(17) 0.15155(16) 0.92128(14)
C41 C 0.9745(2) 0.2849(2) 0.12866(18)
C42 C 0.8878(2) 0.2813(2) 0.13102(18)
H24 H 0.864911 0.242245 0.171242
C43 C 0.8329(2) 0.33418(19) 0.07504(17)
C44 C 0.8719(2) 0.39098(19) 0.01918(17)
C45 C 0.9590(2) 0.39095(19) 0.02138(17)
C46 C 0.7397(2) 0.33355(19) 0.07507(18)
C47 C 0.6898(2) 0.3025(2) 0.1425(2)
H27 H 0.716600 0.281519 0.190015
C48 C 0.6018(2) 0.3014(2) 0.1417(2)
H28 H 0.569607 0.280005 0.188701
C49 C 0.5597(2) 0.3313(2) 0.0732(2)
C50 C 0.6093(2) 0.3631(2) 0.00588(19)
C51 C 0.6964(2) 0.3641(2) 0.00681(19)
C52 C 0.4669(2) 0.3292(2) 0.0713(2)
C53 C 0.4310(2) 0.2662(2) 0.1179(2)
H31 H 0.466094 0.222581 0.153587
C54 C 0.3442(2) 0.2664(2) 0.1129(2)
H32 H 0.322042 0.221258 0.145147
C55 C 0.3246(2) 0.3882(2) 0.0208(2)
C56 C 0.4113(2) 0.3917(2) 0.02170(19)
O1 O 0.98986(15) 0.79616(12) 0.52022(11)
C57 C 0.9800(2) 0.1148(2) 0.98519(19)
C58 C 0.8921(2) 0.1152(2) 0.98743(19)
C59 C 0.8384(2) 0.17218(19) 0.93258(18)
C60 C 0.8799(2) 0.2291(2) 0.8789(2)
H37 H 0.846505 0.271403 0.841225
C61 C 0.9682(2) 0.2236(2) 0.8808(2)
H38 H 0.994437 0.261543 0.842012
C62 C 0.7444(2) 0.17356(19) 0.93224(18)
C63 C 0.6975(2) 0.1347(2) 0.9973(2)
C64 C 0.6100(2) 0.1343(2) 0.9962(2)
C65 C 0.5646(2) 0.1715(2) 0.9300(2)
C66 C 0.6115(2) 0.2118(2) 0.86505(19)
H41 H 0.582308 0.239386 0.819492
C67 C 0.6984(2) 0.2122(2) 0.8662(2)
H42 H 0.728428 0.239322 0.821038
C68 C 0.4728(2) 0.1662(2) 0.9268(2)
C69 C 0.4352(2) 0.1084(2) 0.98211(19)
C70 C 0.3503(2) 0.1035(2) 0.97657(19)
C71 C 0.3352(2) 0.2091(2) 0.8692(2)
H45 H 0.300485 0.245432 0.829393
C72 C 0.4192(2) 0.2181(2) 0.8704(2)
H46 H 0.440607 0.260023 0.832472
H25 H 0.838121 0.429520 0.979769
H26 H 0.983461 0.429866 0.982268
H29 H 0.582305 0.384350 0.958444
H30 H 0.728075 0.386121 0.959850
H33 H 0.287767 0.432061 0.986584
H34 H 0.432722 0.436735 0.988498
H36 H 0.867575 0.076467 0.026663
H39 H 0.726389 0.108052 0.043198
H40 H 0.579692 0.107917 0.041709
H43 H 0.467943 0.072712 0.023380
H44 H 0.326813 0.063132 0.014741
O1_2 O 0.01014(15) 0.20384(12) 0.47978(11)
N2 N 0.70126(17) 0.84845(16) 0.07872(14)
C57_2 C 0.0200(2) 0.8852(2) 0.01481(19)
C58_2 C 0.1079(2) 0.8848(2) 0.01257(19)
C59_2 C 0.1616(2) 0.82782(19) 0.06742(18)
C60_2 C 0.1201(2) 0.7709(2) 0.1211(2)
H37_2 H 0.153495 0.728597 0.158775
C61_2 C 0.0318(2) 0.7764(2) 0.1192(2)
H38_2 H 0.005563 0.738457 0.157988
C62_2 C 0.2556(2) 0.82644(19) 0.06776(18)
C63_2 C 0.3025(2) 0.8653(2) 0.0027(2)
C64_2 C 0.3900(2) 0.8657(2) 0.0038(2)
C65_2 C 0.4354(2) 0.8285(2) 0.0700(2)
C66_2 C 0.3885(2) 0.7882(2) 0.13495(19)
H41_2 H 0.417692 0.760614 0.180508
C67_2 C 0.3016(2) 0.7878(2) 0.1338(2)
H42_2 H 0.271572 0.760678 0.178962
C68_2 C 0.5272(2) 0.8338(2) 0.0732(2)
C69_2 C 0.5648(2) 0.8916(2) 0.01789(19)
C70_2 C 0.6497(2) 0.8965(2) 0.02343(19)
C71_2 C 0.6648(2) 0.7909(2) 0.1308(2)
H45_2 H 0.699515 0.754568 0.170607
C72_2 C 0.5808(2) 0.7819(2) 0.1296(2)
H46_2 H 0.559393 0.739977 0.167528
Co6 Co 0.83885(3) 0.84354(2) 0.07404(2)
N4 N 0.71090(17) 0.67405(16) 0.93434(14)
C41_2 C 0.0255(2) 0.7151(2) 0.87134(18)
C42_2 C 0.1122(2) 0.7187(2) 0.86898(18)
H24_2 H 0.135089 0.757755 0.828758
C43_2 C 0.1671(2) 0.66582(19) 0.92496(17)
C44_2 C 0.1281(2) 0.60902(19) 0.98082(17)
C45_2 C 0.0410(2) 0.60905(19) 0.97862(17)
C46_2 C 0.2603(2) 0.66645(19) 0.92493(18)
C47_2 C 0.3102(2) 0.6975(2) 0.8575(2)
H27_2 H 0.283400 0.718481 0.809985
C48_2 C 0.3982(2) 0.6986(2) 0.8583(2)
H28_2 H 0.430393 0.719995 0.811299
C49_2 C 0.4403(2) 0.6687(2) 0.9268(2)
C50_2 C 0.3907(2) 0.6369(2) 0.99412(19)
C51_2 C 0.3036(2) 0.6359(2) 0.99319(19)
C52_2 C 0.5331(2) 0.6708(2) 0.9287(2)
C53_2 C 0.5690(2) 0.7338(2) 0.8821(2)
H31_2 H 0.533906 0.777419 0.846413
C54_2 C 0.6558(2) 0.7336(2) 0.8871(2)
H32_2 H 0.677958 0.778742 0.854853
C55_2 C 0.6754(2) 0.6118(2) 0.9792(2)
C56_2 C 0.5887(2) 0.6083(2) 0.97830(19)
Co3 Co 0.84969(3) 0.66632(2) 0.93001(2)
O2 O 0.86633(15) 0.66696(12) 0.80414(11)
O3 O 0.87845(14) 0.54401(12) 0.88418(11)
O8 O 0.84221(13) 0.60799(12) 0.04467(11)
O9_2 O 0.87360(14) 0.71271(12) 0.09049(11)
N1_2 N 0.97967(16) 0.83075(16) 0.06726(14)
C1_2 C 0.8770(2) 0.58603(18) 0.81565(17)
C2_2 C 0.8849(2) 0.54057(19) 0.74736(17)
C3_2 C 0.8887(3) 0.4528(2) 0.75718(17)
H1_2 H 0.887451 0.420029 0.808568
C4_2 C 0.8942(3) 0.4128(2) 0.69278(17)
H2_2 H 0.895222 0.353064 0.700815
C5_2 C 0.8983(2) 0.45841(19) 0.61615(17)
C6_2 C 0.8946(3) 0.5468(2) 0.60704(17)
H3_2 H 0.897618 0.579460 0.555668
C7_2 C 0.8866(2) 0.5874(2) 0.67149(18)
H4_2 H 0.882158 0.647847 0.663959
C8_2 C 0.9086(2) 0.41680(19) 0.54575(17)
C9_2 C 0.9525(2) 0.32794(19) 0.54672(16)
H5_2 H 0.974559 0.292867 0.593370
C10_2 C 0.9634(2) 0.29219(18) 0.47963(17)
C11_2 C 0.9360(2) 0.34124(19) 0.40902(17)
H6_2 H 0.945624 0.314627 0.363292
C12_2 C 0.8940(2) 0.43004(19) 0.40639(17)
C13_2 C 0.8777(2) 0.4659(2) 0.47560(17)
H7_2 H 0.844758 0.525343 0.475055
C14_2 C 0.8736(2) 0.48632(19) 0.33003(17)
C15_2 C 0.8608(3) 0.4526(2) 0.26611(17)
H8_2 H 0.856947 0.394370 0.273546
C16_2 C 0.8538(2) 0.5024(2) 0.19280(18)
H9_2 H 0.846150 0.477771 0.150252
C17_2 C 0.8577(2) 0.58806(19) 0.18008(17)
C18_2 C 0.8679(2) 0.62322(19) 0.24350(17)
H10_2 H 0.869589 0.682121 0.236132
C19_2 C 0.8755(2) 0.57324(19) 0.31691(17)
H11_2 H 0.882211 0.598467 0.359453
C20_2 C 0.85693(19) 0.64064(18) 0.09962(16)
C25_2 C 0.8644(2) 0.00942(19) 0.66964(17)
C26_2 C 0.8616(3) 0.0472(2) 0.73549(18)
H14_2 H 0.866605 0.105031 0.728320
C27_2 C 0.8519(3) 0.00250(19) 0.81096(18)
H15_2 H 0.851235 0.029367 0.854801
C28_2 C 0.8815(2) 0.05378(19) 0.58837(17)
C29_2 C 0.8515(2) 0.03324(19) 0.52556(17)
C30_2 C 0.8748(2) 0.06703(19) 0.44759(17)
C31_2 C 0.9262(2) 0.12580(19) 0.43294(17)
H17_2 H 0.942790 0.150062 0.380448
C32_2 C 0.9531(2) 0.14876(18) 0.49565(17)
C33_2 C 0.9323(2) 0.11383(18) 0.57239(17)
H18_2 H 0.952211 0.130288 0.614093
C34_2 C 0.8528(3) 0.0341(2) 0.38195(17)
C38_2 C 0.8273(3) 0.0507(2) 0.24564(19)
H21_2 H 0.818696 0.086574 0.196043
C39_2 C 0.8400(3) 0.0850(2) 0.30840(19)
H22_2 H 0.840010 0.144396 0.301049
O13 O 0.82311(15) 0.84397(13) 0.19929(12)
O14 O 0.81521(15) 0.96752(13) 0.11974(11)
H35_2 H 0.985087 0.926192 0.977372
O12 O 0.84387(14) 0.90236(12) 0.96016(11)
O5_2 O 0.81454(14) 0.79786(12) 0.91254(11)
N3_2 N 0.98802(16) 0.66026(15) 0.92504(14)
C21_2 C 0.83361(19) 0.86911(17) 0.90419(16)
C22_2 C 0.8429(2) 0.91800(18) 0.82297(16)
C23_2 C 0.8446(2) 0.87950(19) 0.75776(17)
H12_2 H 0.837629 0.822383 0.765007
C24_2 C 0.8563(2) 0.92413(19) 0.68308(17)
H13_2 H 0.858885 0.896417 0.639286
H16_2 H 0.814175 0.995035 0.536197
C35_2 C 0.8501(3) 0.9473(2) 0.39151(18)
H19_2 H 0.856896 0.911682 0.441418
C36_2 C 0.8376(2) 0.9129(2) 0.32914(18)
H20_2 H 0.835982 0.853983 0.336470
C37_2 C 0.8272(2) 0.9645(2) 0.25539(17)
C40_2 C 0.8202(2) 0.92387(19) 0.18723(17)
H23_2 H 0.989912 0.753317 0.832975
H36_2 H 0.132425 0.923533 0.973337
H39_2 H 0.273611 0.891948 0.956802
H40_2 H 0.420308 0.892083 0.958291
H43_2 H 0.532057 0.927288 0.976620
H44_2 H 0.673187 0.936868 0.985259
H25_2 H 0.161879 0.570480 0.020231
H26_2 H 0.016539 0.570134 0.017732
H29_2 H 0.417695 0.615650 0.041556
H30_2 H 0.271925 0.613879 0.040150
H33_2 H 0.712233 0.567939 0.013416
H34_2 H 0.567278 0.563265 0.011502
loop_
_geom_bond_atom_site_label_1
_geom_bond_atom_site_label_2
_geom_bond_site_symmetry_1
_geom_bond_site_symmetry_2
Co1 O5 1_555 1_555
O4 C21 1_555 1_555
O5 C21 1_555 1_555
O6 C40 1_555 1_555
O7 C40 1_555 1_555
N3 Co1 1_555 1_555
C21 C22 1_555 1_555
C22 C23 1_555 1_555
C23 H12 1_555 1_555
C24 C23 1_555 1_555
H13 C24 1_555 1_555
H19 C35 1_555 1_555
C36 C35 1_555 1_555
H20 C36 1_555 1_555
C37 C36 1_555 1_555
C40 C37 1_555 1_555
Co8 O6 1_555 1_555
O10 Co1 1_555 1_555
O11 Co1 1_555 1_555
N6 Co1 1_555 1_555
O7 Co8 1_555 1_555
Co8 O9 1_555 1_555
O10 C1 1_555 1_555
O11 C1 1_555 1_555
O15 C20 1_555 1_555
O9 C20 1_555 1_555
N1 Co8 1_555 1_555
C1 C2 1_555 1_555
C2 C3 1_555 1_555
C3 H1 1_555 1_555
C4 C3 1_555 1_555
H2 C4 1_555 1_555
C5 C4 1_555 1_555
C6 C5 1_555 1_555
H3 C6 1_555 1_555
C7 C2 1_555 1_555
H4 C7 1_555 1_555
C8 C5 1_555 1_555
C9 C8 1_555 1_555
H5 C9 1_555 1_555
C10 C9 1_555 1_555
C11 C10 1_555 1_555
H6 C11 1_555 1_555
C12 C11 1_555 1_555
C13 C8 1_555 1_555
H7 C13 1_555 1_555
C14 C12 1_555 1_555
C15 C14 1_555 1_555
H8 C15 1_555 1_555
C16 C15 1_555 1_555
H9 C16 1_555 1_555
C17 C16 1_555 1_555
C18 C17 1_555 1_555
H10 C18 1_555 1_555
C19 C14 1_555 1_555
H11 C19 1_555 1_555
C20 C17 1_555 1_555
C26 C25 1_555 1_555
H14 C26 1_555 1_555
H15 C27 1_555 1_555
C28 C25 1_555 1_555
C29 C28 1_555 1_555
C30 C29 1_555 1_555
C31 C30 1_555 1_555
H17 C31 1_555 1_555
C33 C28 1_555 1_555
H18 C33 1_555 1_555
C34 C30 1_555 1_555
H21 C38 1_555 1_555
C39 C34 1_555 1_555
H22 C39 1_555 1_555
N5 Co8 1_555 1_555
C6 C7 1_555 1_555
C12 C13 1_555 1_555
C18 C19 1_555 1_555
C26 C27 1_555 1_555
C31 C32 1_555 1_555
C32 C33 1_555 1_555
C38 C39 1_555 1_555
N6 C54 1_555 1_555
C42 C41 1_555 1_555
H24 C42 1_555 1_555
C43 C42 1_555 1_555
C44 C43 1_555 1_555
C46 C43 1_555 1_555
C47 C46 1_555 1_555
H27 C47 1_555 1_555
C48 C47 1_555 1_555
H28 C48 1_555 1_555
C49 C48 1_555 1_555
C50 C49 1_555 1_555
C51 C46 1_555 1_555
C52 C49 1_555 1_555
C53 C52 1_555 1_555
H31 C53 1_555 1_555
C54 C53 1_555 1_555
H32 C54 1_555 1_555
C55 N6 1_555 1_555
C56 C52 1_555 1_555
C44 C45 1_555 1_555
C50 C51 1_555 1_555
C55 C56 1_555 1_555
N5 C70 1_555 1_555
C58 C57 1_555 1_555
C59 C58 1_555 1_555
C60 C59 1_555 1_555
H37 C60 1_555 1_555
H38 C61 1_555 1_555
C62 C59 1_555 1_555
C63 C62 1_555 1_555
C64 C63 1_555 1_555
C65 C64 1_555 1_555
C66 C65 1_555 1_555
H41 C66 1_555 1_555
C67 C62 1_555 1_555
H42 C67 1_555 1_555
C68 C65 1_555 1_555
C69 C68 1_555 1_555
C70 C69 1_555 1_555
C71 N5 1_555 1_555
H45 C71 1_555 1_555
C72 C68 1_555 1_555
H46 C72 1_555 1_555
C60 C61 1_555 1_555
C66 C67 1_555 1_555
C71 C72 1_555 1_555
N2 C70_2 1_555 1_555
C58_2 C57_2 1_555 1_555
C59_2 C58_2 1_555 1_555
C60_2 C59_2 1_555 1_555
H37_2 C60_2 1_555 1_555
H38_2 C61_2 1_555 1_555
C62_2 C59_2 1_555 1_555
C63_2 C62_2 1_555 1_555
C64_2 C63_2 1_555 1_555
C65_2 C64_2 1_555 1_555
C66_2 C65_2 1_555 1_555
H41_2 C66_2 1_555 1_555
C67_2 C62_2 1_555 1_555
H42_2 C67_2 1_555 1_555
C68_2 C65_2 1_555 1_555
C69_2 C68_2 1_555 1_555
C70_2 C69_2 1_555 1_555
C71_2 N2 1_555 1_555
H45_2 C71_2 1_555 1_555
C72_2 C68_2 1_555 1_555
H46_2 C72_2 1_555 1_555
Co6 N2 1_555 1_555
C60_2 C61_2 1_555 1_555
C66_2 C67_2 1_555 1_555
C71_2 C72_2 1_555 1_555
N4 C54_2 1_555 1_555
C42_2 C41_2 1_555 1_555
H24_2 C42_2 1_555 1_555
C43_2 C42_2 1_555 1_555
C44_2 C43_2 1_555 1_555
C46_2 C43_2 1_555 1_555
C47_2 C46_2 1_555 1_555
H27_2 C47_2 1_555 1_555
C48_2 C47_2 1_555 1_555
H28_2 C48_2 1_555 1_555
C49_2 C48_2 1_555 1_555
C50_2 C49_2 1_555 1_555
C51_2 C46_2 1_555 1_555
C52_2 C49_2 1_555 1_555
C53_2 C52_2 1_555 1_555
H31_2 C53_2 1_555 1_555
C54_2 C53_2 1_555 1_555
H32_2 C54_2 1_555 1_555
C55_2 N4 1_555 1_555
C56_2 C52_2 1_555 1_555
Co3 N4 1_555 1_555
C44_2 C45_2 1_555 1_555
C50_2 C51_2 1_555 1_555
C55_2 C56_2 1_555 1_555
Co6 O9_2 1_555 1_555
O2 C1_2 1_555 1_555
O3 C1_2 1_555 1_555
O8 C20_2 1_555 1_555
O9_2 C20_2 1_555 1_555
N1_2 Co6 1_555 1_555
C1_2 C2_2 1_555 1_555
C2_2 C3_2 1_555 1_555
C3_2 H1_2 1_555 1_555
C4_2 C3_2 1_555 1_555
H2_2 C4_2 1_555 1_555
C5_2 C4_2 1_555 1_555
C6_2 C5_2 1_555 1_555
H3_2 C6_2 1_555 1_555
C7_2 C2_2 1_555 1_555
H4_2 C7_2 1_555 1_555
C8_2 C5_2 1_555 1_555
C9_2 C8_2 1_555 1_555
H5_2 C9_2 1_555 1_555
C10_2 C9_2 1_555 1_555
C11_2 C10_2 1_555 1_555
H6_2 C11_2 1_555 1_555
C12_2 C11_2 1_555 1_555
C13_2 C8_2 1_555 1_555
H7_2 C13_2 1_555 1_555
C14_2 C12_2 1_555 1_555
C15_2 C14_2 1_555 1_555
H8_2 C15_2 1_555 1_555
C16_2 C15_2 1_555 1_555
H9_2 C16_2 1_555 1_555
C17_2 C16_2 1_555 1_555
C18_2 C17_2 1_555 1_555
H10_2 C18_2 1_555 1_555
C19_2 C14_2 1_555 1_555
H11_2 C19_2 1_555 1_555
C20_2 C17_2 1_555 1_555
C26_2 C25_2 1_555 1_555
H14_2 C26_2 1_555 1_555
H15_2 C27_2 1_555 1_555
C28_2 C25_2 1_555 1_555
C29_2 C28_2 1_555 1_555
C30_2 C29_2 1_555 1_555
C31_2 C30_2 1_555 1_555
H17_2 C31_2 1_555 1_555
C33_2 C28_2 1_555 1_555
H18_2 C33_2 1_555 1_555
C34_2 C30_2 1_555 1_555
H21_2 C38_2 1_555 1_555
C39_2 C34_2 1_555 1_555
H22_2 C39_2 1_555 1_555
Co3 O2 1_555 1_555
O13 Co6 1_555 1_555
O14 Co6 1_555 1_555
O3 Co3 1_555 1_555
C6_2 C7_2 1_555 1_555
C12_2 C13_2 1_555 1_555
C18_2 C19_2 1_555 1_555
C26_2 C27_2 1_555 1_555
C31_2 C32_2 1_555 1_555
C32_2 C33_2 1_555 1_555
C38_2 C39_2 1_555 1_555
Co3 O5_2 1_555 1_555
O12 C21_2 1_555 1_555
O5_2 C21_2 1_555 1_555
O13 C40_2 1_555 1_555
O14 C40_2 1_555 1_555
N3_2 Co3 1_555 1_555
C21_2 C22_2 1_555 1_555
C22_2 C23_2 1_555 1_555
C23_2 H12_2 1_555 1_555
C24_2 C23_2 1_555 1_555
H13_2 C24_2 1_555 1_555
H19_2 C35_2 1_555 1_555
C36_2 C35_2 1_555 1_555
H20_2 C36_2 1_555 1_555
C37_2 C36_2 1_555 1_555
C40_2 C37_2 1_555 1_555

#END
