
###############################################################################
#
# This file contains modified crystal structure data generated from the
# MOF subset of the Cambridge Structural Database (CSD) v543 
# hosted by the Cambridge Crystallographic Data Centre (CCDC).
#
# This work is licensed under the Creative Commons
# Attribution-NonCommercial-ShareAlike 4.0 International License.
# To view a copy of this license, visit
# http://creativecommons.org/licenses/by-nc-sa/4.0/
# or send a letter to
# Creative Commons, PO Box 1866, Mountain View, CA 94042, USA.
#
# CIF created using the CSD Python API on 29 September 2022
# The structure has been converted into the P1 space group
# The structure has a 3D framework
# The original CSD entry AVUJUZ is in the triclinic crystal system
# The framework has been calculated to contain at least 10.0% void space
# The void calculation uses a probe of radius 1.32A, grid spacing 0.4
#
###############################################################################

data_AVUJUZ
_chemical_formula_moiety         '(C142 H88 Co4 N10 O18)n'
_symmetry_cell_setting           triclinic
_symmetry_space_group_name_H-M   'P 1'
_symmetry_Int_Tables_number      1
_space_group_name_Hall           'P 1'
loop_
_symmetry_equiv_pos_site_id
_symmetry_equiv_pos_as_xyz
1 x,y,z
_cell_length_a                   15.6045(5)
_cell_length_b                   16.0443(5)
_cell_length_c                   17.3893(5)
_cell_angle_alpha                78.7890(10)
_cell_angle_beta                 80.4680(10)
_cell_angle_gamma                80.0540(10)
_cell_volume                     4166.93
loop_
_atom_site_label
_atom_site_type_symbol
_atom_site_fract_x
_atom_site_fract_y
_atom_site_fract_z
N6 N 0.04521(12) 0.33563(12) 0.07225(11)
H19 H 0.0293 0.2453 0.1663
C30 C -0.00004(16) 0.38764(15) 0.01808(14)
Co5 Co 0.18394(2) 0.33307(2) 0.06858(2)
N3 N 0.03623(13) 0.16736(13) 0.93248(11)
H9 H 0.0257 0.2589 0.8393
Co8 Co 0.17696(2) 0.15787(2) 0.92739(2)
O3 O 0.18549(12) 0.03545(11) 0.88412(9)
O4 O 0.19099(12) 0.15759(11) 0.80199(9)
O5 O 0.20255(11) 0.20293(10) 0.08824(9)
O6 O 0.16497(10) 0.09660(10) 0.04141(9)
N4 N 0.32261(13) 0.32572(13) 0.06344(11)
N5 N 0.7320(2) 0.2655(3) 0.1129(2)
C16 C 0.36730(18) 0.27094(19) 0.11551(17)
H12 H 0.3365 0.2317 0.1536
C17 C 0.45585(18) 0.2679(2) 0.11748(19)
H13 H 0.4843 0.2273 0.1562
C18 C 0.50318(17) 0.32360(17) 0.06336(16)
C19 C 0.45685(19) 0.3788(2) 0.0088(2)
C20 C 0.36879(19) 0.3782(2) 0.01033(18)
C21 C 0.6454(2) 0.2645(3) 0.1111(2)
H16 H 0.6177 0.2196 0.1444
C22 C 0.59753(17) 0.32471(19) 0.06371(17)
C23 C 0.6384(2) 0.3865(2) 0.0165(3)
C24 C 0.7255(2) 0.3879(3) 0.0164(3)
C25 C 0.77351(16) 0.32789(17) 0.06531(16)
C26 C 0.99983(16) 0.28168(16) 0.12583(14)
C27 C 0.91272(16) 0.27619(17) 0.12537(15)
H20 H 0.8841 0.2360 0.1642
C28 C 0.86683(16) 0.32965(16) 0.06796(15)
C29 C 0.91365(16) 0.38658(17) 0.01337(15)
C30_2 C 0.99996(16) 0.38764(15) 0.01808(14)
H35 H 0.1704 0.0156 0.4686
C59 C 0.17249(19) 0.03734(17) 0.74890(14)
C60 C 0.1676(3) 0.0886(2) 0.67420(18)
H38 H 0.1757 0.1471 0.6660
C61 C 0.1510(3) 0.0536(2) 0.61258(17)
H39 H 0.1491 0.0882 0.5618
C62 C 0.18454(16) 0.07865(16) 0.81538(14)
C66 C 0.15916(16) 0.08317(15) 0.17966(13)
C67 C 0.16066(17) 0.12189(15) 0.24411(14)
H42 H 0.1736 0.1789 0.2359
C68 C 0.14340(18) 0.07766(16) 0.32038(14)
H43 H 0.1437 0.1053 0.3639
C69 C 0.17671(14) 0.13157(14) 0.09740(13)
O14 O 0.16324(12) 0.45600(10) 0.11418(9)
O15 O 0.16395(12) 0.33240(10) 0.19371(9)
H14 H 0.4862 0.4180 0.9694
H15 H 0.3392 0.4173 0.9714
H17 H 0.6063 0.4300 0.9827
H18 H 0.7534 0.4317 0.9814
H21 H 0.8857 0.4247 0.9729
O10 O 0.19416(10) 0.39662(10) 0.95352(9)
H1 H 0.3341 0.0654 0.0126
H2 H 0.4797 0.0741 0.0155
H7 H 0.7436 0.0707 0.0052
H11 H 0.8676 0.0808 0.0271
O1 O 0.15900(11) 0.28608(10) 0.91200(9)
N1 N 0.31469(12) 0.15731(13) 0.92105(11)
N2 N 0.62893(17) 0.11365(18) 0.9677(2)
C1 C 0.36183(16) 0.10666(16) 0.97429(15)
C2 C 0.44913(17) 0.11143(17) 0.97630(16)
C3 C 0.49202(16) 0.17069(17) 0.92111(16)
C4 C 0.44269(17) 0.22297(19) 0.86542(17)
H3 H 0.4688 0.2644 0.8260
C5 C 0.35610(17) 0.21446(19) 0.86764(16)
H4 H 0.3239 0.2511 0.8292
C6 C 0.58572(17) 0.17573(17) 0.92217(17)
C7 C 0.6273(2) 0.2414(3) 0.8769(2)
H5 H 0.5957 0.2872 0.8447
C8 C 0.7151(2) 0.2398(3) 0.8789(2)
H6 H 0.7446 0.2839 0.8464
C9 C 0.76058(16) 0.17646(16) 0.92655(16)
C10 C 0.7140(2) 0.1153(2) 0.9704(3)
C11 C 0.85547(16) 0.17315(16) 0.92949(15)
C12 C 0.90597(18) 0.22571(18) 0.87378(17)
H8 H 0.8797 0.2648 0.8328
C13 C 0.99334(18) 0.22130(18) 0.87778(17)
C14 C 0.98754(16) 0.11671(17) 0.98621(15)
C15 C 0.89889(17) 0.11784(18) 0.98708(16)
C31 C 0.17455(14) 0.36175(15) 0.90089(13)
C32 C 0.16299(16) 0.41547(15) 0.82159(13)
C33 C 0.15054(17) 0.37681(16) 0.75996(14)
H23 H 0.1543 0.3161 0.7672
C34 C 0.13284(18) 0.42612(16) 0.68846(14)
H24 H 0.1244 0.3987 0.6471
C35 C 0.12709(18) 0.51513(16) 0.67571(14)
C36 C 0.1430(2) 0.55306(17) 0.73672(15)
H25 H 0.1421 0.6135 0.7287
C37 C 0.1602(2) 0.50370(16) 0.80883(15)
H26 H 0.1701 0.5307 0.8499
C38 C 0.10250(18) 0.56687(16) 0.60016(14)
C39 C 0.12074(18) 0.53289(16) 0.53054(14)
H27 H 0.1547 0.4777 0.5308
C40 C 0.09081(18) 0.57714(16) 0.45984(14)
C41 C 0.04467(18) 0.65956(15) 0.45973(14)
H28 H 0.0238 0.6915 0.4128
C42 C 0.02945(17) 0.69452(15) 0.52786(14)
C43 C 0.05648(18) 0.65009(15) 0.59801(14)
H29 H 0.0440 0.6757 0.6443
C44 C 0.10835(18) 0.53622(16) 0.38838(14)
C45 C 0.1252(2) 0.44720(16) 0.39435(14)
H30 H 0.1265 0.4124 0.4452
C46 C 0.14006(19) 0.40864(16) 0.32873(14)
H31 H 0.1514 0.3478 0.3348
C47 C 0.13879(17) 0.45719(15) 0.25355(13)
C48 C 0.1223(2) 0.54545(17) 0.24622(15)
H32 H 0.1211 0.5798 0.1952
C49 C 0.1074(2) 0.58447(17) 0.31244(15)
H33 H 0.0962 0.6454 0.3061
C50 C 0.15611(15) 0.41310(15) 0.18293(13)
C51 C 0.03495(17) 0.84158(14) 0.51104(14)
C52 C 0.06138(18) 0.86763(16) 0.57302(14)
H34 H 0.0454 0.8405 0.6259
C53 C 0.11173(19) 0.93413(16) 0.55779(14)
C54 C 0.1342(2) 0.97168(16) 0.47963(14)
C55 C 0.10541(18) 0.94723(15) 0.41689(14)
C56 C 0.1371(2) 0.96800(17) 0.62368(15)
C57 C 0.1386(4) 0.9221(2) 0.69786(19)
H36 H 0.1280 0.8642 0.7076
C58 C 0.1549(3) 0.9569(2) 0.75959(18)
H37 H 0.1537 0.9229 0.8109
C63 C 0.12554(19) 0.99325(16) 0.33467(14)
C64 C 0.1237(2) 0.95541(17) 0.26939(15)
H40 H 0.1114 0.8982 0.2774
C65 C 0.1396(2) 0.99984(16) 0.19296(15)
H41 H 0.1372 0.9731 0.1493
C70 C 0.05522(18) 0.88039(15) 0.43325(14)
H44 H 0.0352 0.8617 0.3916
H22 H 0.0299 0.4279 0.9805
H10 H 0.0158 0.0777 0.0260
O9 O 0.98080(12) 0.77693(10) 0.52720(9)
O9_2 O 0.01920(12) 0.22307(10) 0.47280(9)
Co2 Co 0.82304(2) 0.84213(2) 0.07261(2)
O1_2 O 0.84100(11) 0.71392(10) 0.08800(9)
O2 O 0.80584(10) 0.60338(10) 0.04648(9)
O7 O 0.83676(12) 0.54400(10) 0.88582(9)
O8 O 0.83605(12) 0.66760(10) 0.80629(9)
N1_2 N 0.68531(12) 0.84269(13) 0.07895(11)
N2_2 N 0.37107(17) 0.88635(18) 0.0323(2)
C1_2 C 0.63817(16) 0.89334(16) 0.02571(15)
C2_2 C 0.55087(17) 0.88857(17) 0.02370(16)
C3_2 C 0.50798(16) 0.82931(17) 0.07889(16)
C4_2 C 0.55731(17) 0.77703(19) 0.13458(17)
H3_2 H 0.5312 0.7356 0.1740
C5_2 C 0.64390(17) 0.78554(19) 0.13236(16)
H4_2 H 0.6761 0.7489 0.1708
C6_2 C 0.41428(17) 0.82427(17) 0.07783(17)
C7_2 C 0.3727(2) 0.7586(3) 0.1231(2)
H5_2 H 0.4043 0.7128 0.1553
C8_2 C 0.2849(2) 0.7602(3) 0.1211(2)
H6_2 H 0.2554 0.7161 0.1536
C9_2 C 0.23942(16) 0.82354(16) 0.07345(16)
C10_2 C 0.2860(2) 0.8847(2) 0.0296(3)
C11_2 C 0.14453(16) 0.82685(16) 0.07051(15)
C12_2 C 0.09403(18) 0.77429(18) 0.12622(17)
H8_2 H 0.1203 0.7352 0.1672
C13_2 C 0.00666(18) 0.77870(18) 0.12222(17)
C14_2 C 0.01246(16) 0.88329(17) 0.01379(15)
C15_2 C 0.10111(17) 0.88216(18) 0.01292(16)
C31_2 C 0.82545(14) 0.63825(15) 0.09911(13)
C32_2 C 0.83701(16) 0.58453(15) 0.17841(13)
C33_2 C 0.84946(17) 0.62319(16) 0.24004(14)
H23_2 H 0.8457 0.6839 0.2328
C34_2 C 0.86716(18) 0.57388(16) 0.31154(14)
H24_2 H 0.8756 0.6013 0.3529
C35_2 C 0.87291(18) 0.48487(16) 0.32429(14)
C36_2 C 0.8570(2) 0.44694(17) 0.26328(15)
H25_2 H 0.8579 0.3865 0.2713
C37_2 C 0.8398(2) 0.49630(16) 0.19117(15)
H26_2 H 0.8299 0.4693 0.1501
C38_2 C 0.89750(18) 0.43313(16) 0.39984(14)
C39_2 C 0.87926(18) 0.46711(16) 0.46946(14)
H27_2 H 0.8453 0.5223 0.4692
C40_2 C 0.90919(18) 0.42286(16) 0.54016(14)
C41_2 C 0.95533(18) 0.34044(15) 0.54027(14)
H28_2 H 0.9762 0.3085 0.5872
C42_2 C 0.97055(17) 0.30548(15) 0.47214(14)
C43_2 C 0.94352(18) 0.34991(15) 0.40199(14)
H29_2 H 0.9560 0.3243 0.3557
C44_2 C 0.89165(18) 0.46378(16) 0.61162(14)
C45_2 C 0.8748(2) 0.55280(16) 0.60565(14)
H30_2 H 0.8735 0.5876 0.5548
C46_2 C 0.85994(19) 0.59136(16) 0.67127(14)
H31_2 H 0.8486 0.6522 0.6652
C47_2 C 0.86121(17) 0.54281(15) 0.74645(13)
C48_2 C 0.8777(2) 0.45455(17) 0.75378(15)
H32_2 H 0.8789 0.4202 0.8048
C49_2 C 0.8926(2) 0.41553(17) 0.68756(15)
H33_2 H 0.9038 0.3546 0.6939
C50_2 C 0.84389(15) 0.58690(15) 0.81707(13)
C51_2 C 0.96505(17) 0.15842(14) 0.48896(14)
C52_2 C 0.93862(18) 0.13237(16) 0.42698(14)
H34_2 H 0.9546 0.1595 0.3741
C53_2 C 0.88827(19) 0.06587(16) 0.44221(14)
C54_2 C 0.8658(2) 0.02832(16) 0.52037(14)
C55_2 C 0.89459(18) 0.05277(15) 0.58311(14)
C56_2 C 0.8629(2) 0.03200(17) 0.37632(15)
C57_2 C 0.8614(4) 0.0779(2) 0.30214(19)
H36_2 H 0.8720 0.1358 0.2924
C58_2 C 0.8451(3) 0.0431(2) 0.24041(18)
H37_2 H 0.8463 0.0771 0.1891
C63_2 C 0.87446(19) 0.00675(16) 0.66533(14)
C64_2 C 0.8763(2) 0.04459(17) 0.73061(15)
H40_2 H 0.8886 0.1018 0.7226
C65_2 C 0.8604(2) 0.00016(16) 0.80704(15)
H41_2 H 0.8628 0.0269 0.8507
C70_2 C 0.94478(18) 0.11961(15) 0.56675(14)
H44_2 H 0.9648 0.1383 0.6084
Co3 Co 0.81606(2) 0.66693(2) 0.93142(2)
O11 O 0.81451(12) 0.96455(11) 0.11588(9)
O12 O 0.80901(12) 0.84241(11) 0.19801(9)
N7 N 0.96377(13) 0.83264(13) 0.06752(11)
H1_2 H 0.6659 0.9346 0.9874
H2_2 H 0.5203 0.9259 0.9845
H7_2 H 0.2564 0.9293 0.9948
H11_2 H 0.1324 0.9192 0.9729
O13 O 0.83503(10) 0.90340(10) 0.95859(9)
H14_2 H 0.5138 0.5820 0.0306
H15_2 H 0.6608 0.5827 0.0286
H17_2 H 0.3937 0.5700 0.0173
H18_2 H 0.2466 0.5683 0.0186
H21_2 H 0.1143 0.5753 0.0271
O5_2 O 0.79745(11) 0.79707(10) 0.91176(9)
N4_2 N 0.67739(13) 0.67428(13) 0.93656(11)
N5_2 N 0.2680(2) 0.7345(3) 0.8871(2)
C16_2 C 0.63270(18) 0.72906(19) 0.88449(17)
H12_2 H 0.6635 0.7683 0.8464
C17_2 C 0.54415(18) 0.7321(2) 0.88252(19)
H13_2 H 0.5157 0.7727 0.8438
C18_2 C 0.49682(17) 0.67640(17) 0.93664(16)
C19_2 C 0.54315(19) 0.6212(2) 0.9912(2)
C20_2 C 0.63121(19) 0.6218(2) 0.98967(18)
C21_2 C 0.3546(2) 0.7355(3) 0.8889(2)
H16_2 H 0.3823 0.7804 0.8556
C22_2 C 0.40247(17) 0.67529(19) 0.93629(17)
C23_2 C 0.3616(2) 0.6135(2) 0.9835(3)
C24_2 C 0.2745(2) 0.6121(3) 0.9836(3)
C25_2 C 0.22649(16) 0.67211(17) 0.93469(16)
C26_2 C 0.00017(16) 0.71832(16) 0.87417(14)
C27_2 C 0.08728(16) 0.72381(17) 0.87463(15)
H20_2 H 0.1159 0.7640 0.8358
C28_2 C 0.13317(16) 0.67035(16) 0.93204(15)
C29_2 C 0.08635(16) 0.61342(17) 0.98663(15)
C30_3 C 0.00004(16) 0.61236(15) 0.98192(14)
H35_2 H 0.8296 0.9844 0.5314
C59_2 C 0.82751(19) 0.96266(17) 0.25110(14)
C60_2 C 0.8324(3) 0.9114(2) 0.32580(18)
H38_2 H 0.8243 0.8529 0.3340
C61_2 C 0.8490(3) 0.9464(2) 0.38742(17)
H39_2 H 0.8509 0.9118 0.4382
C62_2 C 0.81546(16) 0.92135(16) 0.18462(14)
C66_2 C 0.84084(16) 0.91683(15) 0.82034(13)
C67_2 C 0.83934(17) 0.87811(15) 0.75589(14)
H42_2 H 0.8264 0.8211 0.7641
C68_2 C 0.85660(18) 0.92234(16) 0.67962(14)
H43_2 H 0.8563 0.8947 0.6361
C69_2 C 0.82329(14) 0.86843(14) 0.90260(13)
N8 N 0.95479(12) 0.66437(12) 0.92775(11)
H9_2 H 0.9743 0.7411 0.1607
H19_2 H 0.9707 0.7547 0.8337
C30_4 C 1.00004(16) 0.61236(15) 0.98192(14)
H10_2 H 0.9842 0.9223 0.9740
H22_2 H 0.9701 0.5721 0.0195
loop_
_geom_bond_atom_site_label_1
_geom_bond_atom_site_label_2
_geom_bond_site_symmetry_1
_geom_bond_site_symmetry_2
C30 N6 1_555 1_555
Co5 N6 1_555 1_555
Co8 N3 1_555 1_555
Co5 O5 1_555 1_555
O3 C62 1_555 1_555
O4 C62 1_555 1_555
O5 C69 1_555 1_555
O6 C69 1_555 1_555
N4 Co5 1_555 1_555
N5 C21 1_555 1_555
C16 N4 1_555 1_555
H12 C16 1_555 1_555
C17 C16 1_555 1_555
H13 C17 1_555 1_555
C18 C17 1_555 1_555
C19 C18 1_555 1_555
C20 N4 1_555 1_555
C21 H16 1_555 1_555
C22 C18 1_555 1_555
C23 C22 1_555 1_555
C24 C23 1_555 1_555
C25 N5 1_555 1_555
C27 C26 1_555 1_555
H20 C27 1_555 1_555
C28 C25 1_555 1_555
C29 C28 1_555 1_555
C60 C59 1_555 1_555
H38 C60 1_555 1_555
H39 C61 1_555 1_555
C62 C59 1_555 1_555
C67 C66 1_555 1_555
H42 C67 1_555 1_555
H43 C68 1_555 1_555
C69 C66 1_555 1_555
Co8 O3 1_555 1_555
O14 Co5 1_555 1_555
O15 Co5 1_555 1_555
O4 Co8 1_555 1_555
C19 C20 1_555 1_555
C21 C22 1_555 1_555
C24 C25 1_555 1_555
C27 C28 1_555 1_555
C29 C30_2 1_555 1_555
C60 C61 1_555 1_555
C67 C68 1_555 1_555
Co8 O1 1_555 1_555
O1 C31 1_555 1_555
O10 C31 1_555 1_555
O14 C50 1_555 1_555
O15 C50 1_555 1_555
N1 Co8 1_555 1_555
N2 C6 1_555 1_555
C1 N1 1_555 1_555
C2 C1 1_555 1_555
C3 C2 1_555 1_555
C4 C3 1_555 1_555
H3 C4 1_555 1_555
C5 N1 1_555 1_555
H4 C5 1_555 1_555
C6 C3 1_555 1_555
C7 C6 1_555 1_555
H5 C7 1_555 1_555
C8 C7 1_555 1_555
H6 C8 1_555 1_555
C9 C8 1_555 1_555
C10 N2 1_555 1_555
C11 C9 1_555 1_555
C12 C11 1_555 1_555
H8 C12 1_555 1_555
C13 C12 1_555 1_555
C15 C11 1_555 1_555
C31 C32 1_555 1_555
C32 C33 1_555 1_555
C33 H23 1_555 1_555
C34 C33 1_555 1_555
H24 C34 1_555 1_555
C35 C34 1_555 1_555
C36 C35 1_555 1_555
H25 C36 1_555 1_555
C37 C32 1_555 1_555
H26 C37 1_555 1_555
C38 C35 1_555 1_555
C39 C38 1_555 1_555
H27 C39 1_555 1_555
C40 C39 1_555 1_555
C41 C40 1_555 1_555
H28 C41 1_555 1_555
C42 C41 1_555 1_555
C43 C38 1_555 1_555
H29 C43 1_555 1_555
C44 C40 1_555 1_555
C45 C44 1_555 1_555
H30 C45 1_555 1_555
C46 C45 1_555 1_555
H31 C46 1_555 1_555
C47 C46 1_555 1_555
C48 C47 1_555 1_555
H32 C48 1_555 1_555
C49 C44 1_555 1_555
H33 C49 1_555 1_555
C50 C47 1_555 1_555
C52 C51 1_555 1_555
H34 C52 1_555 1_555
C53 C52 1_555 1_555
C54 C53 1_555 1_555
C55 C54 1_555 1_555
C56 C53 1_555 1_555
C57 C56 1_555 1_555
H36 C57 1_555 1_555
C58 C57 1_555 1_555
H37 C58 1_555 1_555
C63 C55 1_555 1_555
C64 C63 1_555 1_555
H40 C64 1_555 1_555
C65 C64 1_555 1_555
H41 C65 1_555 1_555
C70 C51 1_555 1_555
H44 C70 1_555 1_555
C4 C5 1_555 1_555
C9 C10 1_555 1_555
C14 C15 1_555 1_555
C36 C37 1_555 1_555
C42 C43 1_555 1_555
C48 C49 1_555 1_555
C55 C70 1_555 1_555
Co2 O1_2 1_555 1_555
O1_2 C31_2 1_555 1_555
O2 C31_2 1_555 1_555
O7 C50_2 1_555 1_555
O8 C50_2 1_555 1_555
N1_2 Co2 1_555 1_555
N2_2 C6_2 1_555 1_555
C1_2 N1_2 1_555 1_555
C2_2 C1_2 1_555 1_555
C3_2 C2_2 1_555 1_555
C4_2 C3_2 1_555 1_555
H3_2 C4_2 1_555 1_555
C5_2 N1_2 1_555 1_555
H4_2 C5_2 1_555 1_555
C6_2 C3_2 1_555 1_555
C7_2 C6_2 1_555 1_555
H5_2 C7_2 1_555 1_555
C8_2 C7_2 1_555 1_555
H6_2 C8_2 1_555 1_555
C9_2 C8_2 1_555 1_555
C10_2 N2_2 1_555 1_555
C11_2 C9_2 1_555 1_555
C12_2 C11_2 1_555 1_555
H8_2 C12_2 1_555 1_555
C13_2 C12_2 1_555 1_555
C15_2 C11_2 1_555 1_555
C31_2 C32_2 1_555 1_555
C32_2 C33_2 1_555 1_555
C33_2 H23_2 1_555 1_555
C34_2 C33_2 1_555 1_555
H24_2 C34_2 1_555 1_555
C35_2 C34_2 1_555 1_555
C36_2 C35_2 1_555 1_555
H25_2 C36_2 1_555 1_555
C37_2 C32_2 1_555 1_555
H26_2 C37_2 1_555 1_555
C38_2 C35_2 1_555 1_555
C39_2 C38_2 1_555 1_555
H27_2 C39_2 1_555 1_555
C40_2 C39_2 1_555 1_555
C41_2 C40_2 1_555 1_555
H28_2 C41_2 1_555 1_555
C42_2 C41_2 1_555 1_555
C43_2 C38_2 1_555 1_555
H29_2 C43_2 1_555 1_555
C44_2 C40_2 1_555 1_555
C45_2 C44_2 1_555 1_555
H30_2 C45_2 1_555 1_555
C46_2 C45_2 1_555 1_555
H31_2 C46_2 1_555 1_555
C47_2 C46_2 1_555 1_555
C48_2 C47_2 1_555 1_555
H32_2 C48_2 1_555 1_555
C49_2 C44_2 1_555 1_555
H33_2 C49_2 1_555 1_555
C50_2 C47_2 1_555 1_555
C52_2 C51_2 1_555 1_555
H34_2 C52_2 1_555 1_555
C53_2 C52_2 1_555 1_555
C54_2 C53_2 1_555 1_555
C55_2 C54_2 1_555 1_555
C56_2 C53_2 1_555 1_555
C57_2 C56_2 1_555 1_555
H36_2 C57_2 1_555 1_555
C58_2 C57_2 1_555 1_555
H37_2 C58_2 1_555 1_555
C63_2 C55_2 1_555 1_555
C64_2 C63_2 1_555 1_555
H40_2 C64_2 1_555 1_555
C65_2 C64_2 1_555 1_555
H41_2 C65_2 1_555 1_555
C70_2 C51_2 1_555 1_555
H44_2 C70_2 1_555 1_555
Co3 O7 1_555 1_555
O11 Co2 1_555 1_555
O12 Co2 1_555 1_555
N7 Co2 1_555 1_555
O8 Co3 1_555 1_555
C4_2 C5_2 1_555 1_555
C9_2 C10_2 1_555 1_555
C14_2 C15_2 1_555 1_555
C36_2 C37_2 1_555 1_555
C42_2 C43_2 1_555 1_555
C48_2 C49_2 1_555 1_555
C55_2 C70_2 1_555 1_555
Co3 O5_2 1_555 1_555
O11 C62_2 1_555 1_555
O12 C62_2 1_555 1_555
O5_2 C69_2 1_555 1_555
O13 C69_2 1_555 1_555
N4_2 Co3 1_555 1_555
N5_2 C21_2 1_555 1_555
C16_2 N4_2 1_555 1_555
H12_2 C16_2 1_555 1_555
C17_2 C16_2 1_555 1_555
H13_2 C17_2 1_555 1_555
C18_2 C17_2 1_555 1_555
C19_2 C18_2 1_555 1_555
C20_2 N4_2 1_555 1_555
C21_2 H16_2 1_555 1_555
C22_2 C18_2 1_555 1_555
C23_2 C22_2 1_555 1_555
C24_2 C23_2 1_555 1_555
C25_2 N5_2 1_555 1_555
C27_2 C26_2 1_555 1_555
H20_2 C27_2 1_555 1_555
C28_2 C25_2 1_555 1_555
C29_2 C28_2 1_555 1_555
C60_2 C59_2 1_555 1_555
H38_2 C60_2 1_555 1_555
H39_2 C61_2 1_555 1_555
C62_2 C59_2 1_555 1_555
C67_2 C66_2 1_555 1_555
H42_2 C67_2 1_555 1_555
H43_2 C68_2 1_555 1_555
C69_2 C66_2 1_555 1_555
N8 Co3 1_555 1_555
C19_2 C20_2 1_555 1_555
C21_2 C22_2 1_555 1_555
C24_2 C25_2 1_555 1_555
C27_2 C28_2 1_555 1_555
C29_2 C30_3 1_555 1_555
C60_2 C61_2 1_555 1_555
C67_2 C68_2 1_555 1_555
C30_4 N8 1_555 1_555

#END
