
###############################################################################
#
# This file contains modified crystal structure data generated from the
# MOF subset of the Cambridge Structural Database (CSD) v543 
# hosted by the Cambridge Crystallographic Data Centre (CCDC).
#
# This work is licensed under the Creative Commons
# Attribution-NonCommercial-ShareAlike 4.0 International License.
# To view a copy of this license, visit
# http://creativecommons.org/licenses/by-nc-sa/4.0/
# or send a letter to
# Creative Commons, PO Box 1866, Mountain View, CA 94042, USA.
#
# CIF created using the CSD Python API on 29 September 2022
# The structure has been converted into the P1 space group
# The structure has a 3D framework
# The original CSD entry AVUKEK is in the triclinic crystal system
# The framework has been calculated to contain at least 10.0% void space
# The void calculation uses a probe of radius 1.32A, grid spacing 0.4
#
###############################################################################

data_AVUKEK
_chemical_formula_moiety         '(C136 H84 Co4 N14 O18)n'
_symmetry_cell_setting           triclinic
_symmetry_space_group_name_H-M   'P 1'
_symmetry_Int_Tables_number      1
_space_group_name_Hall           'P 1'
loop_
_symmetry_equiv_pos_site_id
_symmetry_equiv_pos_as_xyz
1 x,y,z
_cell_length_a                   15.5470(5)
_cell_length_b                   16.0134(5)
_cell_length_c                   17.4005(6)
_cell_angle_alpha                78.694(2)
_cell_angle_beta                 81.9740(10)
_cell_angle_gamma                79.5270(10)
_cell_volume                     4152.84
loop_
_atom_site_label
_atom_site_type_symbol
_atom_site_fract_x
_atom_site_fract_y
_atom_site_fract_z
O9 O 0.01515(11) 0.21691(10) 0.47809(9)
Co2 Co 0.82007(2) 0.83912(2) 0.07075(2)
O3 O 0.82742(11) 0.54111(10) 0.88580(9)
O4 O 0.82785(11) 0.66487(10) 0.80628(9)
O5 O 0.83878(11) 0.71050(10) 0.08592(9)
O6 O 0.80049(10) 0.60063(10) 0.04579(8)
N5 N 0.68106(12) 0.84013(12) 0.07756(11)
N6 N 0.36829(13) 0.88701(15) 0.02105(14)
N7 N 0.27711(14) 0.76802(16) 0.12156(15)
C15 C 0.63292(15) 0.89071(15) 0.02335(14)
C16 C 0.54544(15) 0.88711(16) 0.02075(14)
C17 C 0.50337(15) 0.82986(15) 0.07723(14)
C18 C 0.55270(16) 0.77774(18) 0.13407(15)
H13 H 0.5267 0.7376 0.1742
C19 C 0.64048(16) 0.78504(17) 0.13154(14)
H14 H 0.6737 0.7486 0.1706
C20 C 0.40907(15) 0.82716(15) 0.07445(14)
C21 C 0.36217(18) 0.7677(2) 0.12400(19)
H15 H 0.3924 0.7249 0.1612
C22 C 0.23695(15) 0.82779(15) 0.06844(14)
C23 C 0.28359(17) 0.88653(18) 0.01808(17)
C24 C 0.00611(15) 0.88331(16) 0.01058(14)
C25 C 0.09477(15) 0.88507(16) 0.00897(14)
C26 C 0.14184(15) 0.82910(14) 0.06569(13)
C27 C 0.09634(16) 0.77377(17) 0.12126(16)
H19 H 0.1258 0.7345 0.1612
C28 C 0.00725(16) 0.77638(17) 0.11786(15)
C33 C 0.86593(18) 0.00450(16) 0.66543(14)
C34 C 0.8665(2) 0.04264(18) 0.73114(15)
H23 H 0.8783 0.1000 0.7237
H24 H 0.8523 0.0250 0.8500
C36 C 0.88699(18) 0.04997(15) 0.58372(13)
C37 C 0.85958(18) 0.02509(15) 0.51972(14)
C38 C 0.88419(18) 0.06132(15) 0.44254(14)
C39 C 0.93565(17) 0.12667(15) 0.42880(14)
H26 H 0.9536 0.1523 0.3764
C40 C 0.96032(16) 0.15391(14) 0.49161(13)
C41 C 0.93733(17) 0.11619(15) 0.56861(13)
H27 H 0.9558 0.1354 0.6110
C42 C 0.86052(18) 0.02705(16) 0.37594(14)
C46 C 0.8289(2) 0.04569(16) 0.24125(14)
H30 H 0.8186 0.0824 0.1924
C47 C 0.8457(2) 0.07963(16) 0.30368(15)
H31 H 0.8470 0.1397 0.2973
C49 C 0.96740(16) 0.30010(14) 0.47595(13)
C50 C 0.95238(17) 0.33628(15) 0.54346(13)
H32 H 0.9733 0.3042 0.5910
C51 C 0.90680(18) 0.41947(15) 0.54179(13)
C52 C 0.87784(18) 0.46505(15) 0.47028(14)
H33 H 0.8451 0.5215 0.4687
C53 C 0.89570(17) 0.42988(15) 0.40150(14)
C54 C 0.94023(17) 0.34592(15) 0.40524(13)
H34 H 0.9520 0.3201 0.3594
C55 C 0.88921(18) 0.46061(15) 0.61325(14)
C56 C 0.8788(3) 0.41245(17) 0.68843(15)
H35 H 0.8829 0.3516 0.6949
C57 C 0.8626(2) 0.45197(18) 0.75433(15)
H36 H 0.8560 0.4178 0.8054
C58 C 0.85586(16) 0.53973(15) 0.74665(13)
C59 C 0.86592(18) 0.58827(16) 0.67198(14)
H37 H 0.8613 0.6491 0.6657
C60 C 0.88263(19) 0.54911(16) 0.60647(14)
H38 H 0.8898 0.5835 0.5556
C61 C 0.83586(14) 0.58411(14) 0.81711(12)
C62 C 0.87137(17) 0.48249(15) 0.32456(13)
C63 C 0.8545(2) 0.44439(16) 0.26394(14)
H39 H 0.8553 0.3838 0.2724
C64 C 0.83653(19) 0.49360(16) 0.19182(14)
H40 H 0.8251 0.4664 0.1513
C65 C 0.83490(15) 0.58169(14) 0.17768(13)
C66 C 0.84950(17) 0.62043(15) 0.23891(13)
H41 H 0.8469 0.6812 0.2309
C67 C 0.86759(18) 0.57135(16) 0.31086(14)
H42 H 0.8776 0.5988 0.3518
C68 C 0.82259(14) 0.63505(14) 0.09791(12)
Co5 Co 0.80793(2) 0.66448(2) 0.93091(2)
O14 O 0.81155(11) 0.96243(10) 0.11395(9)
O15 O 0.81106(11) 0.83872(10) 0.19423(9)
N10 N 0.96138(12) 0.83077(12) 0.06409(11)
H11 H 0.6603 0.9312 0.9847
H12 H 0.5142 0.9237 0.9804
H16 H 0.2536 0.9281 0.9799
H18 H 0.1232 0.9240 0.9696
O10 O 0.82660(10) 0.90122(10) 0.95727(8)
H3 H 0.5049 0.5808 0.0271
H4 H 0.6549 0.5779 0.0243
H6 H 0.2446 0.5739 0.0235
H9 H 0.1116 0.5749 0.0290
O1 O 0.78798(10) 0.79551(10) 0.90992(9)
N1 N 0.66816(12) 0.67262(12) 0.93488(11)
N2 N 0.35628(13) 0.61831(16) 0.98667(14)
N3 N 0.25314(13) 0.73869(14) 0.88543(14)
C1 C 0.62253(17) 0.73008(18) 0.88338(17)
H1 H 0.6529 0.7698 0.8466
C2 C 0.53319(17) 0.73508(18) 0.88055(17)
H2 H 0.5039 0.7763 0.8417
C3 C 0.48678(15) 0.67949(15) 0.93479(14)
C4 C 0.53377(17) 0.62042(19) 0.98876(17)
C5 C 0.62365(16) 0.61918(18) 0.98669(17)
C6 C 0.39081(15) 0.67977(16) 0.93533(15)
C7 C 0.33844(16) 0.74020(18) 0.88603(18)
H5 H 0.3644 0.7846 0.8512
C8 C 0.21865(15) 0.67616(15) 0.93618(14)
C9 C 0.27085(17) 0.61697(18) 0.98708(17)
C11 C 0.07692(15) 0.72471(15) 0.87630(14)
H8 H 0.1037 0.7657 0.8378
C12 C 0.12499(14) 0.67169(14) 0.93418(13)
C13 C 0.08156(15) 0.61297(15) 0.98870(14)
C29 C 0.81388(14) 0.86675(14) 0.90148(12)
C30 C 0.83118(15) 0.91552(14) 0.81970(13)
C31 C 0.83016(17) 0.87624(16) 0.75464(14)
H21 H 0.8169 0.8194 0.7625
C32 C 0.84838(18) 0.92010(16) 0.67940(14)
H22 H 0.8490 0.8922 0.6359
C35 C 0.8503(2) 0.99816(17) 0.80630(15)
H25 H 0.8229 0.9819 0.5294
C43 C 0.85652(18) 0.93991(16) 0.38434(14)
H28 H 0.8652 0.9033 0.4336
C44 C 0.84002(18) 0.90560(16) 0.32198(14)
H29 H 0.8374 0.8458 0.3286
C45 C 0.82723(17) 0.95828(15) 0.24965(13)
C48 C 0.81487(15) 0.91812(14) 0.18182(13)
N9 N 0.94720(12) 0.66215(12) 0.92848(11)
H20 H 0.9772 0.7374 0.1558
C10 C 0.98982(15) 0.71726(15) 0.87533(14)
H7 H 0.9585 0.7532 0.8347
C14 C 0.99412(15) 0.61093(14) 0.98325(13)
H17 H 0.9750 0.9218 0.9712
H10 H 0.9656 0.5705 0.0209
N4 N 0.05280(12) 0.33785(12) 0.07152(11)
C10_2 C 0.01018(15) 0.28274(15) 0.12467(14)
H7_2 H 0.0415 0.2468 0.1653
C14_2 C 0.00588(15) 0.38907(14) 0.01675(13)
Co3 Co 0.19207(2) 0.33552(2) 0.06909(2)
N8 N 0.03862(12) 0.16923(12) 0.93591(11)
H20_2 H 0.0228 0.2626 0.8442
Co6 Co 0.17993(2) 0.16088(2) 0.92925(2)
O1_2 O 0.21202(10) 0.20449(10) 0.09008(9)
O2 O 0.17340(10) 0.09878(10) 0.04273(8)
O7 O 0.18845(11) 0.03757(10) 0.88605(9)
O8 O 0.18894(11) 0.16128(10) 0.80577(9)
N1_2 N 0.33184(12) 0.32738(12) 0.06512(11)
N2_2 N 0.64372(13) 0.38169(16) 0.01333(14)
N3_2 N 0.74686(13) 0.26131(14) 0.11457(14)
C1_2 C 0.37747(17) 0.26992(18) 0.11662(17)
H1_2 H 0.3471 0.2302 0.1534
C2_2 C 0.46681(17) 0.26492(18) 0.11945(17)
H2_2 H 0.4961 0.2237 0.1583
C3_2 C 0.51322(15) 0.32051(15) 0.06521(14)
C4_2 C 0.46623(17) 0.37958(19) 0.01124(17)
C5_2 C 0.37635(16) 0.38082(18) 0.01331(17)
C6_2 C 0.60919(15) 0.32023(16) 0.06467(15)
C7_2 C 0.66156(16) 0.25980(18) 0.11397(18)
H5_2 H 0.6356 0.2154 0.1488
C8_2 C 0.78135(15) 0.32384(15) 0.06382(14)
C9_2 C 0.72915(17) 0.38303(18) 0.01292(17)
C11_2 C 0.92308(15) 0.27529(15) 0.12370(14)
H8_2 H 0.8963 0.2343 0.1622
C12_2 C 0.87501(14) 0.32831(14) 0.06582(13)
C13_2 C 0.91844(15) 0.38703(15) 0.01130(14)
C29_2 C 0.18612(14) 0.13325(14) 0.09852(12)
C30_2 C 0.16882(15) 0.08448(14) 0.18030(13)
C31_2 C 0.16984(17) 0.12376(16) 0.24536(14)
H21_2 H 0.1831 0.1806 0.2375
C32_2 C 0.15162(18) 0.07990(16) 0.32060(14)
H22_2 H 0.1510 0.1078 0.3641
C35_2 C 0.1497(2) 0.00184(17) 0.19370(15)
H25_2 H 0.1771 0.0181 0.4706
C43_2 C 0.14348(18) 0.06009(16) 0.61566(14)
H28_2 H 0.1348 0.0967 0.5664
C44_2 C 0.15998(18) 0.09440(16) 0.67802(14)
H29_2 H 0.1626 0.1542 0.6714
C45_2 C 0.17277(17) 0.04172(15) 0.75035(13)
C48_2 C 0.18513(15) 0.08188(14) 0.81818(13)
O11 O 0.17258(11) 0.45889(10) 0.11420(9)
O12 O 0.17215(11) 0.33513(10) 0.19372(9)
H3_2 H 0.4951 0.4192 0.9729
H4_2 H 0.3451 0.4221 0.9757
H6_2 H 0.7554 0.4261 0.9765
H9_2 H 0.8884 0.4251 0.9710
O13 O 0.19951(10) 0.39937(10) 0.95421(8)
H11_2 H 0.3397 0.0688 0.0153
H12_2 H 0.4858 0.0763 0.0196
H16_2 H 0.7464 0.0719 0.0201
H18_2 H 0.8768 0.0760 0.0304
O5_2 O 0.16122(11) 0.28950(10) 0.91408(9)
N5_2 N 0.31894(12) 0.15987(12) 0.92244(11)
N6_2 N 0.63171(13) 0.11299(15) 0.97895(14)
N7_2 N 0.72289(14) 0.23198(16) 0.87844(15)
C15_2 C 0.36708(15) 0.10929(15) 0.97665(14)
C16_2 C 0.45456(15) 0.11289(16) 0.97925(14)
C17_2 C 0.49663(15) 0.17014(15) 0.92277(14)
C18_2 C 0.44730(16) 0.22226(18) 0.86593(15)
H13_2 H 0.4733 0.2624 0.8258
C19_2 C 0.35952(16) 0.21496(17) 0.86846(14)
H14_2 H 0.3263 0.2514 0.8294
C20_2 C 0.59093(15) 0.17284(15) 0.92555(14)
C21_2 C 0.63783(18) 0.2323(2) 0.87600(19)
H15_2 H 0.6076 0.2751 0.8388
C22_2 C 0.76305(15) 0.17221(15) 0.93156(14)
C23_2 C 0.71641(17) 0.11347(18) 0.98192(17)
C24_2 C 0.99389(15) 0.11669(16) 0.98942(14)
C25_2 C 0.90523(15) 0.11493(16) 0.99103(14)
C26_2 C 0.85816(15) 0.17090(14) 0.93431(13)
C27_2 C 0.90366(16) 0.22623(17) 0.87874(16)
H19_2 H 0.8742 0.2655 0.8388
C28_2 C 0.99275(16) 0.22362(17) 0.88214(15)
C33_2 C 0.13407(18) 0.99550(16) 0.33457(14)
C34_2 C 0.1335(2) 0.95736(18) 0.26886(15)
H23_2 H 0.1217 0.9000 0.2763
H24_2 H 0.1477 0.9750 0.1500
C36_2 C 0.11301(18) 0.95003(15) 0.41628(13)
C37_2 C 0.14042(18) 0.97491(15) 0.48028(14)
C38_2 C 0.11581(18) 0.93868(15) 0.55746(14)
C39_2 C 0.06435(17) 0.87333(15) 0.57120(14)
H26_2 H 0.0464 0.8477 0.6236
C40_2 C 0.03968(16) 0.84609(14) 0.50839(13)
C41_2 C 0.06267(17) 0.88381(15) 0.43139(13)
H27_2 H 0.0442 0.8646 0.3890
C42_2 C 0.13948(18) 0.97295(16) 0.62406(14)
C46_2 C 0.1711(2) 0.95431(16) 0.75875(14)
H30_2 H 0.1814 0.9176 0.8076
C47_2 C 0.1543(2) 0.92037(16) 0.69632(15)
H31_2 H 0.1530 0.8603 0.7027
C49_2 C 0.03260(16) 0.69990(14) 0.52405(13)
C50_2 C 0.04762(17) 0.66372(15) 0.45654(13)
H32_2 H 0.0267 0.6958 0.4090
C51_2 C 0.09320(18) 0.58053(15) 0.45821(13)
C52_2 C 0.12216(18) 0.53495(15) 0.52972(14)
H33_2 H 0.1549 0.4785 0.5313
C53_2 C 0.10430(17) 0.57012(15) 0.59850(14)
C54_2 C 0.05977(17) 0.65408(15) 0.59476(13)
H34_2 H 0.0480 0.6799 0.6406
C55_2 C 0.11079(18) 0.53939(15) 0.38675(14)
C56_2 C 0.1212(3) 0.58755(17) 0.31157(15)
H35_2 H 0.1171 0.6484 0.3051
C57_2 C 0.1374(2) 0.54803(18) 0.24567(15)
H36_2 H 0.1440 0.5822 0.1946
C58_2 C 0.14414(16) 0.46027(15) 0.25335(13)
C59_2 C 0.13408(18) 0.41173(16) 0.32802(14)
H37_2 H 0.1387 0.3509 0.3343
C60_2 C 0.11737(19) 0.45089(16) 0.39353(14)
H38_2 H 0.1102 0.4165 0.4444
C61_2 C 0.16414(14) 0.41589(14) 0.18289(12)
C62_2 C 0.12863(17) 0.51751(15) 0.67544(13)
C63_2 C 0.1455(2) 0.55561(16) 0.73606(14)
H39_2 H 0.1447 0.6162 0.7276
C64_2 C 0.16347(19) 0.50640(16) 0.80818(14)
H40_2 H 0.1749 0.5336 0.8487
C65_2 C 0.16510(15) 0.41831(14) 0.82232(13)
C66_2 C 0.15050(17) 0.37957(15) 0.76109(13)
H41_2 H 0.1531 0.3188 0.7691
C67_2 C 0.13241(18) 0.42865(16) 0.68914(14)
H42_2 H 0.1224 0.4012 0.6482
C68_2 C 0.17741(14) 0.36495(14) 0.90209(12)
H10_2 H 0.0344 0.4295 0.9791
H17_2 H 0.0250 0.0782 0.0288
O9_2 O 0.98485(11) 0.78309(10) 0.52191(9)
loop_
_geom_bond_atom_site_label_1
_geom_bond_atom_site_label_2
_geom_bond_site_symmetry_1
_geom_bond_site_symmetry_2
Co2 O5 1_555 1_555
O3 C61 1_555 1_555
O4 C61 1_555 1_555
O5 C68 1_555 1_555
O6 C68 1_555 1_555
N5 Co2 1_555 1_555
N6 C20 1_555 1_555
N7 C21 1_555 1_555
C15 N5 1_555 1_555
C16 C15 1_555 1_555
C17 C16 1_555 1_555
C18 C17 1_555 1_555
H13 C18 1_555 1_555
C19 N5 1_555 1_555
H14 C19 1_555 1_555
C20 C17 1_555 1_555
C21 C20 1_555 1_555
H15 C21 1_555 1_555
C22 N7 1_555 1_555
C23 N6 1_555 1_555
C25 C24 1_555 1_555
C26 C22 1_555 1_555
C27 C26 1_555 1_555
H19 C27 1_555 1_555
C34 C33 1_555 1_555
H23 C34 1_555 1_555
C36 C33 1_555 1_555
C37 C36 1_555 1_555
C38 C37 1_555 1_555
C39 C38 1_555 1_555
H26 C39 1_555 1_555
C40 C39 1_555 1_555
C41 C36 1_555 1_555
H27 C41 1_555 1_555
C42 C38 1_555 1_555
H30 C46 1_555 1_555
C47 C42 1_555 1_555
H31 C47 1_555 1_555
C50 C49 1_555 1_555
H32 C50 1_555 1_555
C51 C50 1_555 1_555
C52 C51 1_555 1_555
H33 C52 1_555 1_555
C53 C52 1_555 1_555
C54 C49 1_555 1_555
H34 C54 1_555 1_555
C55 C51 1_555 1_555
C56 C55 1_555 1_555
H35 C56 1_555 1_555
C57 C56 1_555 1_555
H36 C57 1_555 1_555
C58 C57 1_555 1_555
C59 C58 1_555 1_555
H37 C59 1_555 1_555
C60 C55 1_555 1_555
H38 C60 1_555 1_555
C61 C58 1_555 1_555
C62 C53 1_555 1_555
C63 C62 1_555 1_555
H39 C63 1_555 1_555
C64 C63 1_555 1_555
H40 C64 1_555 1_555
C65 C64 1_555 1_555
C66 C65 1_555 1_555
H41 C66 1_555 1_555
C67 C62 1_555 1_555
H42 C67 1_555 1_555
C68 C65 1_555 1_555
Co5 O3 1_555 1_555
O14 Co2 1_555 1_555
O15 Co2 1_555 1_555
N10 Co2 1_555 1_555
O4 Co5 1_555 1_555
C18 C19 1_555 1_555
C22 C23 1_555 1_555
C25 C26 1_555 1_555
C27 C28 1_555 1_555
C40 C41 1_555 1_555
C46 C47 1_555 1_555
C53 C54 1_555 1_555
C59 C60 1_555 1_555
C66 C67 1_555 1_555
Co5 O1 1_555 1_555
O1 C29 1_555 1_555
O10 C29 1_555 1_555
O14 C48 1_555 1_555
O15 C48 1_555 1_555
N1 Co5 1_555 1_555
N2 C6 1_555 1_555
N3 C7 1_555 1_555
C1 N1 1_555 1_555
H1 C1 1_555 1_555
C2 C1 1_555 1_555
H2 C2 1_555 1_555
C3 C2 1_555 1_555
C4 C3 1_555 1_555
C5 N1 1_555 1_555
C6 C3 1_555 1_555
C7 C6 1_555 1_555
H5 C7 1_555 1_555
C8 N3 1_555 1_555
C9 N2 1_555 1_555
H8 C11 1_555 1_555
C12 C8 1_555 1_555
C13 C12 1_555 1_555
C29 C30 1_555 1_555
C30 C31 1_555 1_555
C31 H21 1_555 1_555
C32 C31 1_555 1_555
H22 C32 1_555 1_555
C35 C30 1_555 1_555
H28 C43 1_555 1_555
C44 C43 1_555 1_555
H29 C44 1_555 1_555
C45 C44 1_555 1_555
C48 C45 1_555 1_555
N9 Co5 1_555 1_555
C4 C5 1_555 1_555
C8 C9 1_555 1_555
C11 C12 1_555 1_555
N9 C10 1_555 1_555
C10 H7 1_555 1_555
C14 N9 1_555 1_555
N4 C10_2 1_555 1_555
C10_2 H7_2 1_555 1_555
C14_2 N4 1_555 1_555
Co3 N4 1_555 1_555
Co6 N8 1_555 1_555
Co3 O1_2 1_555 1_555
O1_2 C29_2 1_555 1_555
O2 C29_2 1_555 1_555
O7 C48_2 1_555 1_555
O8 C48_2 1_555 1_555
N1_2 Co3 1_555 1_555
N2_2 C6_2 1_555 1_555
N3_2 C7_2 1_555 1_555
C1_2 N1_2 1_555 1_555
H1_2 C1_2 1_555 1_555
C2_2 C1_2 1_555 1_555
H2_2 C2_2 1_555 1_555
C3_2 C2_2 1_555 1_555
C4_2 C3_2 1_555 1_555
C5_2 N1_2 1_555 1_555
C6_2 C3_2 1_555 1_555
C7_2 C6_2 1_555 1_555
H5_2 C7_2 1_555 1_555
C8_2 N3_2 1_555 1_555
C9_2 N2_2 1_555 1_555
H8_2 C11_2 1_555 1_555
C12_2 C8_2 1_555 1_555
C13_2 C12_2 1_555 1_555
C29_2 C30_2 1_555 1_555
C30_2 C31_2 1_555 1_555
C31_2 H21_2 1_555 1_555
C32_2 C31_2 1_555 1_555
H22_2 C32_2 1_555 1_555
C35_2 C30_2 1_555 1_555
H28_2 C43_2 1_555 1_555
C44_2 C43_2 1_555 1_555
H29_2 C44_2 1_555 1_555
C45_2 C44_2 1_555 1_555
C48_2 C45_2 1_555 1_555
Co6 O7 1_555 1_555
O11 Co3 1_555 1_555
O12 Co3 1_555 1_555
O8 Co6 1_555 1_555
C4_2 C5_2 1_555 1_555
C8_2 C9_2 1_555 1_555
C11_2 C12_2 1_555 1_555
Co6 O5_2 1_555 1_555
O11 C61_2 1_555 1_555
O12 C61_2 1_555 1_555
O5_2 C68_2 1_555 1_555
O13 C68_2 1_555 1_555
N5_2 Co6 1_555 1_555
N6_2 C20_2 1_555 1_555
N7_2 C21_2 1_555 1_555
C15_2 N5_2 1_555 1_555
C16_2 C15_2 1_555 1_555
C17_2 C16_2 1_555 1_555
C18_2 C17_2 1_555 1_555
H13_2 C18_2 1_555 1_555
C19_2 N5_2 1_555 1_555
H14_2 C19_2 1_555 1_555
C20_2 C17_2 1_555 1_555
C21_2 C20_2 1_555 1_555
H15_2 C21_2 1_555 1_555
C22_2 N7_2 1_555 1_555
C23_2 N6_2 1_555 1_555
C25_2 C24_2 1_555 1_555
C26_2 C22_2 1_555 1_555
C27_2 C26_2 1_555 1_555
H19_2 C27_2 1_555 1_555
C34_2 C33_2 1_555 1_555
H23_2 C34_2 1_555 1_555
C36_2 C33_2 1_555 1_555
C37_2 C36_2 1_555 1_555
C38_2 C37_2 1_555 1_555
C39_2 C38_2 1_555 1_555
H26_2 C39_2 1_555 1_555
C40_2 C39_2 1_555 1_555
C41_2 C36_2 1_555 1_555
H27_2 C41_2 1_555 1_555
C42_2 C38_2 1_555 1_555
H30_2 C46_2 1_555 1_555
C47_2 C42_2 1_555 1_555
H31_2 C47_2 1_555 1_555
C50_2 C49_2 1_555 1_555
H32_2 C50_2 1_555 1_555
C51_2 C50_2 1_555 1_555
C52_2 C51_2 1_555 1_555
H33_2 C52_2 1_555 1_555
C53_2 C52_2 1_555 1_555
C54_2 C49_2 1_555 1_555
H34_2 C54_2 1_555 1_555
C55_2 C51_2 1_555 1_555
C56_2 C55_2 1_555 1_555
H35_2 C56_2 1_555 1_555
C57_2 C56_2 1_555 1_555
H36_2 C57_2 1_555 1_555
C58_2 C57_2 1_555 1_555
C59_2 C58_2 1_555 1_555
H37_2 C59_2 1_555 1_555
C60_2 C55_2 1_555 1_555
H38_2 C60_2 1_555 1_555
C61_2 C58_2 1_555 1_555
C62_2 C53_2 1_555 1_555
C63_2 C62_2 1_555 1_555
H39_2 C63_2 1_555 1_555
C64_2 C63_2 1_555 1_555
H40_2 C64_2 1_555 1_555
C65_2 C64_2 1_555 1_555
C66_2 C65_2 1_555 1_555
H41_2 C66_2 1_555 1_555
C67_2 C62_2 1_555 1_555
H42_2 C67_2 1_555 1_555
C68_2 C65_2 1_555 1_555
C18_2 C19_2 1_555 1_555
C22_2 C23_2 1_555 1_555
C25_2 C26_2 1_555 1_555
C27_2 C28_2 1_555 1_555
C40_2 C41_2 1_555 1_555
C46_2 C47_2 1_555 1_555
C53_2 C54_2 1_555 1_555
C59_2 C60_2 1_555 1_555
C66_2 C67_2 1_555 1_555

#END
