
###############################################################################
#
# This file contains modified crystal structure data generated from the
# MOF subset of the Cambridge Structural Database (CSD) v543 
# hosted by the Cambridge Crystallographic Data Centre (CCDC).
#
# This work is licensed under the Creative Commons
# Attribution-NonCommercial-ShareAlike 4.0 International License.
# To view a copy of this license, visit
# http://creativecommons.org/licenses/by-nc-sa/4.0/
# or send a letter to
# Creative Commons, PO Box 1866, Mountain View, CA 94042, USA.
#
# CIF created using the CSD Python API on 29 September 2022
# The structure has been converted into the P1 space group
# The structure has a 3D framework
# The original CSD entry AWEGEP is in the orthorhombic crystal system
# The framework has been calculated to contain at least 10.0% void space
# The void calculation uses a probe of radius 1.32A, grid spacing 0.4
# H atom positions have been added when not included in the experimental data
# Generated hydrogen atom positions removed from atoms on special positions
#
###############################################################################

data_AWEGEP
_chemical_formula_moiety         '(C84 H96 Cs12 O84 P12 U12)n'
_symmetry_cell_setting           triclinic
_symmetry_space_group_name_H-M   'P 1'
_symmetry_Int_Tables_number      1
_space_group_name_Hall           'P 1'
loop_
_symmetry_equiv_pos_site_id
_symmetry_equiv_pos_as_xyz
1 x,y,z
_cell_length_a                   22.0556(18)
_cell_length_b                   20.5225(16)
_cell_length_c                   11.9563(9)
_cell_angle_alpha                90
_cell_angle_beta                 90
_cell_angle_gamma                90
_cell_volume                     5411.85
loop_
_atom_site_label
_atom_site_type_symbol
_atom_site_fract_x
_atom_site_fract_y
_atom_site_fract_z
U2 U 0.55992(3) 0.2500 0.08961(5)
Cs1 Cs 0.34487(5) 0.2500 0.00247(11)
O3 O 0.6403(5) 0.2500 0.0773(9)
O4 O 0.4792(5) 0.2500 0.1075(9)
O9 O 0.5758(3) 0.0238(4) 0.0875(6)
O10 O 0.5590(4) 0.1411(4) 0.0576(7)
U6 U 0.572418(17) 0.583194(18) 0.14023(3)
Cs6 Cs 0.45990(5) 0.08032(5) 0.23765(8)
Cs8 Cs 0.45990(5) 0.41968(5) 0.23765(8)
O23 O 0.5663(4) 0.1960(4) 0.2759(6)
O24 O 0.5663(4) 0.3040(4) 0.2759(6)
O28 O 0.5758(3) 0.4762(4) 0.0875(6)
O33 O 0.5590(4) 0.3589(4) 0.0576(7)
U1 U 0.427582(17) 0.083194(18) 0.85977(3)
P1 P 0.49501(17) 0.2500 0.8198(3)
P2 P 0.57290(12) 0.07770(13) 0.9997(2)
O1 O 0.4498(4) 0.0608(4) 0.7194(6)
O2 O 0.4043(3) 0.1048(4) 0.9986(6)
O5 O 0.5498(4) 0.2500 0.8979(9)
O6 O 0.4574(3) 0.1889(3) 0.8348(6)
O8 O 0.5266(3) 0.0633(4) 0.9085(6)
O11 O 0.8368(3) 0.1418(4) 0.7152(7)
O12 O 0.8300(3) 0.0355(4) 0.6974(7)
O13 O 0.1952(7) 0.2500 0.9297(15)
C1 C 0.5239(6) 0.2500 0.6793(12)
C2 C 0.5333(5) 0.1916(5) 0.6197(10)
H1 H 0.5291 0.1514 0.6582
C3 C 0.5484(6) 0.1905(6) 0.5083(10)
H2 H 0.5543 0.1504 0.4701
C4 C 0.5549(7) 0.2500 0.4527(12)
C5 C 0.5647(8) 0.2500 0.3302(14)
C6 C 0.6446(5) 0.0833(5) 0.9286(9)
C7 C 0.6844(5) 0.0310(6) 0.9287(11)
C8 C 0.7374(5) 0.0318(6) 0.8658(12)
C9 C 0.7513(5) 0.0882(5) 0.8037(11)
C10 C 0.7122(5) 0.1414(5) 0.8059(10)
H5 H 0.7221 0.1799 0.7655
C11 C 0.6592(5) 0.1384(6) 0.8667(10)
H6 H 0.6322 0.1745 0.8663
C12 C 0.8084(5) 0.0889(6) 0.7335(10)
O14 O 0.4496(11) 0.0436(12) 0.4819(14)
U3 U 0.427582(17) 0.416806(18) 0.85977(3)
U5 U 0.927582(17) 0.083194(18) 0.64023(3)
U7 U 0.927582(17) 0.416806(18) 0.64023(3)
Cs3 Cs 0.84487(5) 0.2500 0.49753(11)
Cs7 Cs 0.54010(5) 0.58032(5) 0.76235(8)
P3 P 0.57290(12) 0.42230(13) 0.9997(2)
O16 O 0.4498(4) 0.4392(4) 0.7194(6)
O17 O 0.5502(4) 0.5608(4) 0.2806(6)
O18 O 0.4043(3) 0.3952(4) 0.9986(6)
O21 O 0.4574(3) 0.3111(3) 0.8348(6)
O25 O 0.5266(3) 0.4367(4) 0.9085(6)
O27 O 0.4734(3) 0.5633(4) 0.0915(6)
O31 O 0.4242(3) 0.5238(4) 0.9125(6)
O36 O 0.8368(3) 0.3582(4) 0.7152(7)
O37 O 0.3368(3) 0.1418(4) 0.7848(7)
O38 O 0.3368(3) 0.3582(4) 0.7848(7)
O39 O 0.8300(3) 0.4645(4) 0.6974(7)
O40 O 0.3300(3) 0.0355(4) 0.8026(7)
O41 O 0.3300(3) 0.4645(4) 0.8026(7)
C13 C 0.5333(5) 0.3084(5) 0.6197(10)
H7 H 0.5291 0.3486 0.6582
C14 C 0.5484(6) 0.3095(6) 0.5083(10)
H8 H 0.5543 0.3496 0.4701
C15 C 0.6446(5) 0.4167(5) 0.9286(9)
C16 C 0.6844(5) 0.4690(6) 0.9287(11)
H9 H 0.6753 0.5062 0.9728
C17 C 0.7374(5) 0.4682(6) 0.8658(12)
H10 H 0.7637 0.5049 0.8647
C18 C 0.7513(5) 0.4118(5) 0.8037(11)
C19 C 0.7122(5) 0.3586(5) 0.8059(10)
H11 H 0.7221 0.3201 0.7655
C20 C 0.6592(5) 0.3616(6) 0.8667(10)
H12 H 0.6322 0.3255 0.8663
C21 C 0.8084(5) 0.4111(6) 0.7335(10)
O42 O 0.4496(11) 0.4564(12) 0.4819(14)
U4 U 0.572418(17) 0.916806(18) 0.14023(3)
H3 H 0.6753 0.9938 0.9728
H4 H 0.7637 0.9951 0.8647
Cs5 Cs 0.54010(5) 0.91968(5) 0.76235(8)
O15 O 0.5502(4) 0.9392(4) 0.2806(6)
O26 O 0.4734(3) 0.9367(4) 0.0915(6)
O29 O 0.4242(3) 0.9762(4) 0.9125(6)
O29_2 O 0.0758(3) 0.0238(4) 0.4125(6)
O26_2 O 0.0266(3) 0.0633(4) 0.5915(6)
U1_2 U 0.072418(17) 0.916806(18) 0.35977(3)
Cs1_2 Cs 0.15513(5) 0.7500 0.50247(11)
P1_2 P 0.00499(17) 0.7500 0.3198(3)
O1_2 O 0.0502(4) 0.9392(4) 0.2194(6)
O2_2 O 0.0957(3) 0.8952(4) 0.4986(6)
O4_2 O 0.0208(5) 0.7500 0.6075(9)
O6_2 O 0.0426(3) 0.8111(3) 0.3348(6)
O13_2 O 0.3048(7) 0.7500 0.4297(15)
U3_2 U 0.072418(17) 0.583194(18) 0.35977(3)
Cs6_2 Cs 0.04010(5) 0.91968(5) 0.73765(8)
Cs8_2 Cs 0.04010(5) 0.58032(5) 0.73765(8)
O16_2 O 0.0502(4) 0.5608(4) 0.2194(6)
O18_2 O 0.0957(3) 0.6048(4) 0.4986(6)
O21_2 O 0.0426(3) 0.6889(3) 0.3348(6)
O31_2 O 0.0758(3) 0.4762(4) 0.4125(6)
O37_2 O 0.1632(3) 0.8582(4) 0.2848(7)
O38_2 O 0.1632(3) 0.6418(4) 0.2848(7)
O40_2 O 0.1700(3) 0.9645(4) 0.3026(7)
O41_2 O 0.1700(3) 0.5355(4) 0.3026(7)
H15 H 0.0632068 0.917725 0.0258644
H18 H 0.0774859 0.574996 0.0205916
O14_2 O 0.0504(11) 0.9564(12) 0.9819(14)
O27_2 O 0.0266(3) 0.4367(4) 0.5915(6)
O42_2 O 0.0504(11) 0.5436(12) 0.9819(14)
H16 H 0.0809213 0.991608 0.990598
H17 H 0.067502 0.498999 0.988363
H3_2 H 0.8247 0.0062 0.4728
H4_2 H 0.7363 0.0049 0.3647
Cs5_2 Cs 0.95990(5) 0.08032(5) 0.26235(8)
O15_2 O 0.9498(4) 0.0608(4) 0.7806(6)
U2_2 U 0.94008(3) 0.7500 0.58961(5)
P2_2 P 0.92710(12) 0.92230(13) 0.4997(2)
O3_2 O 0.8597(5) 0.7500 0.5773(9)
O5_2 O 0.9502(4) 0.7500 0.3979(9)
O8_2 O 0.9734(3) 0.9367(4) 0.4085(6)
O9_2 O 0.9242(3) 0.9762(4) 0.5875(6)
O10_2 O 0.9410(4) 0.8589(4) 0.5576(7)
O11_2 O 0.6632(3) 0.8582(4) 0.2152(7)
O12_2 O 0.6700(3) 0.9645(4) 0.1974(7)
C1_2 C 0.9761(6) 0.7500 0.1793(12)
C2_2 C 0.9667(5) 0.8084(5) 0.1197(10)
H1_2 H 0.9709 0.8486 0.1582
C3_2 C 0.9516(6) 0.8095(6) 0.0083(10)
C6_2 C 0.8554(5) 0.9167(5) 0.4286(9)
C7_2 C 0.8156(5) 0.9690(6) 0.4287(11)
C8_2 C 0.7626(5) 0.9682(6) 0.3658(12)
C9_2 C 0.7487(5) 0.9118(5) 0.3037(11)
C10_2 C 0.7878(5) 0.8586(5) 0.3059(10)
H5_2 H 0.7779 0.8201 0.2655
C11_2 C 0.8408(5) 0.8616(6) 0.3667(10)
H6_2 H 0.8678 0.8255 0.3663
C12_2 C 0.6916(5) 0.9111(6) 0.2335(10)
Cs7_2 Cs 0.95990(5) 0.41968(5) 0.26235(8)
P3_2 P 0.92710(12) 0.57770(13) 0.4997(2)
O23_2 O 0.9337(4) 0.8040(4) 0.7759(6)
O24_2 O 0.9337(4) 0.6960(4) 0.7759(6)
O25_2 O 0.9734(3) 0.5633(4) 0.4085(6)
O28_2 O 0.9242(3) 0.5238(4) 0.5875(6)
O33_2 O 0.9410(4) 0.6411(4) 0.5576(7)
O36_2 O 0.6632(3) 0.6418(4) 0.2152(7)
O39_2 O 0.6700(3) 0.5355(4) 0.1974(7)
C13_2 C 0.9667(5) 0.6916(5) 0.1197(10)
H7_2 H 0.9709 0.6514 0.1582
C14_2 C 0.9516(6) 0.6905(6) 0.0083(10)
C15_2 C 0.8554(5) 0.5833(5) 0.4286(9)
C16_2 C 0.8156(5) 0.5310(6) 0.4287(11)
H9_2 H 0.8247 0.4938 0.4728
C17_2 C 0.7626(5) 0.5318(6) 0.3658(12)
H10_2 H 0.7363 0.4951 0.3647
C18_2 C 0.7487(5) 0.5882(5) 0.3037(11)
C19_2 C 0.7878(5) 0.6414(5) 0.3059(10)
H11_2 H 0.7779 0.6799 0.2655
C20_2 C 0.8408(5) 0.6384(6) 0.3667(10)
H12_2 H 0.8678 0.6745 0.3663
C21_2 C 0.6916(5) 0.5889(6) 0.2335(10)
H2_2 H 0.9457 0.8496 0.9701
C4_2 C 0.9451(7) 0.7500 0.9527(12)
C5_2 C 0.9353(8) 0.7500 0.8302(14)
Cs3_2 Cs 0.65513(5) 0.7500 0.99753(11)
O17_2 O 0.9498(4) 0.4392(4) 0.7806(6)
H8_2 H 0.9457 0.6504 0.9701
H9_3 H 0.3247 0.0062 0.0272
H10_3 H 0.2363 0.0049 0.1353
H17_2 H 0.567502 0.00100055 0.511637
O19 O 0.5957(3) 0.6048(4) 0.0014(6)
O20 O 0.5957(3) 0.8952(4) 0.0014(6)
P1_3 P 0.50499(17) 0.7500 0.1802(3)
P2_3 P 0.42710(12) 0.57770(13) 0.0003(2)
O5_3 O 0.4502(4) 0.7500 0.1021(9)
O6_3 O 0.5426(3) 0.6889(3) 0.1652(6)
O7 O 0.4337(4) 0.6960(4) 0.7241(6)
O13_3 O 0.8048(7) 0.7500 0.0703(15)
C1_3 C 0.4761(6) 0.7500 0.3207(12)
C2_3 C 0.4667(5) 0.6916(5) 0.3803(10)
H1_3 H 0.4709 0.6514 0.3418
C3_3 C 0.4516(6) 0.6905(6) 0.4917(10)
H2_3 H 0.4457 0.6504 0.5299
C4_3 C 0.4451(7) 0.7500 0.5473(12)
C5_3 C 0.4353(8) 0.7500 0.6698(14)
C6_3 C 0.3554(5) 0.5833(5) 0.0714(9)
C7_3 C 0.3156(5) 0.5310(6) 0.0713(11)
H3_3 H 0.3247 0.4938 0.0272
C8_3 C 0.2626(5) 0.5318(6) 0.1342(12)
H4_3 H 0.2363 0.4951 0.1353
C9_3 C 0.2487(5) 0.5882(5) 0.1963(11)
C10_3 C 0.2878(5) 0.6414(5) 0.1941(10)
H5_3 H 0.2779 0.6799 0.2345
C11_3 C 0.3408(5) 0.6384(6) 0.1333(10)
H6_3 H 0.3678 0.6745 0.1337
C12_3 C 0.1916(5) 0.5889(6) 0.2665(10)
O14_3 O 0.5504(11) 0.5436(12) 0.5181(14)
U9 U 0.44008(3) 0.7500 0.91039(5)
P3_3 P 0.42710(12) 0.92230(13) 0.0003(2)
O21_3 O 0.5426(3) 0.8111(3) 0.1652(6)
O22 O 0.4337(4) 0.8040(4) 0.7241(6)
O34 O 0.4410(4) 0.6411(4) 0.9424(7)
O35 O 0.4410(4) 0.8589(4) 0.9424(7)
C13_3 C 0.4667(5) 0.8084(5) 0.3803(10)
H7_3 H 0.4709 0.8486 0.3418
C14_3 C 0.4516(6) 0.8095(6) 0.4917(10)
H8_3 H 0.4457 0.8496 0.5299
C15_3 C 0.3554(5) 0.9167(5) 0.0714(9)
C16_3 C 0.3156(5) 0.9690(6) 0.0713(11)
C17_3 C 0.2626(5) 0.9682(6) 0.1342(12)
C18_3 C 0.2487(5) 0.9118(5) 0.1963(11)
C19_3 C 0.2878(5) 0.8586(5) 0.1941(10)
H11_3 H 0.2779 0.8201 0.2345
C20_3 C 0.3408(5) 0.8616(6) 0.1333(10)
H12_3 H 0.3678 0.8255 0.1337
C21_3 C 0.1916(5) 0.9111(6) 0.2665(10)
O42_3 O 0.5504(11) 0.9564(12) 0.5181(14)
O3_3 O 0.3597(5) 0.7500 0.9227(9)
O4_3 O 0.5208(5) 0.7500 0.8925(9)
O7_2 O 0.0663(4) 0.3040(4) 0.2241(6)
H2_4 H 0.0543 0.3496 0.0299
C4_4 C 0.0549(7) 0.2500 0.0473(12)
C5_4 C 0.0647(8) 0.2500 0.1698(14)
U9_2 U 0.05992(3) 0.2500 0.41039(5)
O22_2 O 0.0663(4) 0.1960(4) 0.2241(6)
O34_2 O 0.0590(4) 0.3589(4) 0.4424(7)
O35_2 O 0.0590(4) 0.1411(4) 0.4424(7)
H8_4 H 0.0543 0.1504 0.0299
P2_4 P 0.07290(12) 0.42230(13) 0.5003(2)
O3_4 O 0.1403(5) 0.2500 0.4227(9)
O5_4 O 0.0498(4) 0.2500 0.6021(9)
C1_4 C 0.0239(6) 0.2500 0.8207(12)
C2_4 C 0.0333(5) 0.3084(5) 0.8803(10)
H1_4 H 0.0291 0.3486 0.8418
C3_4 C 0.0484(6) 0.3095(6) 0.9917(10)
C6_4 C 0.1446(5) 0.4167(5) 0.5714(9)
C7_4 C 0.1844(5) 0.4690(6) 0.5713(11)
H3_4 H 0.1753 0.5062 0.5272
C8_4 C 0.2374(5) 0.4682(6) 0.6342(12)
H4_4 H 0.2637 0.5049 0.6353
C9_4 C 0.2513(5) 0.4118(5) 0.6963(11)
C10_4 C 0.2122(5) 0.3586(5) 0.6941(10)
H5_4 H 0.2221 0.3201 0.7345
C11_4 C 0.1592(5) 0.3616(6) 0.6333(10)
H6_4 H 0.1322 0.3255 0.6337
C12_4 C 0.3084(5) 0.4111(6) 0.7665(10)
P3_4 P 0.07290(12) 0.07770(13) 0.5003(2)
C13_4 C 0.0333(5) 0.1916(5) 0.8803(10)
H7_4 H 0.0291 0.1514 0.8418
C14_4 C 0.0484(6) 0.1905(6) 0.9917(10)
C15_4 C 0.1446(5) 0.0833(5) 0.5714(9)
C16_4 C 0.1844(5) 0.0310(6) 0.5713(11)
C17_4 C 0.2374(5) 0.0318(6) 0.6342(12)
C18_4 C 0.2513(5) 0.0882(5) 0.6963(11)
C19_4 C 0.2122(5) 0.1414(5) 0.6941(10)
H11_4 H 0.2221 0.1799 0.7345
C20_4 C 0.1592(5) 0.1384(6) 0.6333(10)
H12_4 H 0.1322 0.1745 0.6337
C21_4 C 0.3084(5) 0.0889(6) 0.7665(10)
H9_4 H 0.1753 0.9938 0.5272
H10_4 H 0.2637 0.9951 0.6353
O14_4 O 0.9496(11) 0.4564(12) 0.0181(14)
O19_2 O 0.9043(3) 0.3952(4) 0.5014(6)
O20_2 O 0.9043(3) 0.1048(4) 0.5014(6)
O42_4 O 0.9496(11) 0.0436(12) 0.0181(14)
H16_2 H 0.919079 0.491608 0.00940235
P1_4 P 0.99501(17) 0.2500 0.6802(3)
O4_4 O 0.9792(5) 0.2500 0.3925(9)
O6_4 O 0.9574(3) 0.3111(3) 0.6652(6)
O13_4 O 0.6952(7) 0.2500 0.5703(15)
O21_4 O 0.9574(3) 0.1889(3) 0.6652(6)
H15_2 H 0.936793 0.417725 0.974136
H18_2 H 0.922514 0.0749963 0.979408
H17_3 H 0.932498 0.998999 0.011637
H16_3 H 0.919079 0.00839212 0.00940235
H17_4 H 0.932498 0.501001 0.011637
H15_3 H 0.936793 0.0822745 0.974136
H18_3 H 0.922514 0.425004 0.979408
H17_5 H 0.432498 0.998999 0.488363
H17_6 H 0.067502 0.00100055 0.988363
H15_4 H 0.0632068 0.582275 0.0258644
H18_4 H 0.0774859 0.925004 0.0205916
H16_4 H 0.0809213 0.508392 0.990598
loop_
_geom_bond_atom_site_label_1
_geom_bond_atom_site_label_2
_geom_bond_site_symmetry_1
_geom_bond_site_symmetry_2
U2 O3 1_555 1_555
O4 U2 1_555 1_555
O10 U2 1_555 1_555
U6 O28 1_555 1_555
O23 U2 1_555 1_555
O24 U2 1_555 1_555
O28 Cs8 1_555 1_555
O33 U2 1_555 1_555
Cs1 O4 1_555 1_555
O9 Cs6 1_555 1_555
O10 Cs6 1_555 1_555
Cs6 O23 1_555 1_555
Cs8 O24 1_555 1_555
Cs8 O33 1_555 1_555
U1 O1 1_555 1_555
P1 O5 1_555 1_555
P2 O8 1_555 1_555
O2 U1 1_555 1_555
O6 U1 1_555 1_555
O23 C5 1_555 1_555
O8 U1 1_555 1_555
O11 C12 1_555 1_555
O12 C12 1_555 1_555
C1 P1 1_555 1_555
C2 C1 1_555 1_555
H1 C2 1_555 1_555
C3 C2 1_555 1_555
H2 C3 1_555 1_555
C4 C3 1_555 1_555
C5 C4 1_555 1_555
C6 P2 1_555 1_555
C7 C6 1_555 1_555
C8 C7 1_555 1_555
C9 C8 1_555 1_555
C10 C9 1_555 1_555
H5 C10 1_555 1_555
C11 C6 1_555 1_555
H6 C11 1_555 1_555
C12 C9 1_555 1_555
O14 Cs6 1_555 1_555
U3 O16 1_555 1_555
U5 O11 1_555 1_555
U7 O36 1_555 1_555
Cs3 O11 1_555 1_555
Cs8 O17 1_555 1_555
Cs7 O16 1_555 1_555
P3 O25 1_555 1_555
O24 C5 1_555 1_555
O25 U3 1_555 1_555
O27 Cs8 1_555 1_555
O31 U3 1_555 1_555
O36 Cs3 1_555 1_555
O37 U1 1_555 1_555
O39 U7 1_555 1_555
O40 U1 1_555 1_555
O41 U3 1_555 1_555
C13 C1 1_555 1_555
H7 C13 1_555 1_555
C14 C4 1_555 1_555
H8 C14 1_555 1_555
C15 P3 1_555 1_555
C16 C15 1_555 1_555
H9 C16 1_555 1_555
C17 C16 1_555 1_555
H10 C17 1_555 1_555
C18 C17 1_555 1_555
C19 C18 1_555 1_555
H11 C19 1_555 1_555
C20 C15 1_555 1_555
H12 C20 1_555 1_555
C21 O36 1_555 1_555
O42 Cs8 1_555 1_555
P1 O6 1_555 1_555
P1 O21 1_555 1_555
O12 U5 1_555 1_555
C10 C11 1_555 1_555
U3 O18 1_555 1_555
U3 O21 1_555 1_555
U3 O38 1_555 1_555
Cs7 O25 1_555 1_555
Cs7 O31 1_555 1_555
O39 C21 1_555 1_555
C13 C14 1_555 1_555
C18 C21 1_555 1_555
C19 C20 1_555 1_555
U4 O15 1_555 1_555
U4 O26 1_555 1_555
Cs5 O29 1_555 1_555
U1_2 O1_2 1_555 1_555
Cs1_2 O2_2 1_555 1_555
O2_2 U1_2 1_555 1_555
O6_2 U1_2 1_555 1_555
O13_2 Cs1_2 1_555 1_555
U3_2 O16_2 1_555 1_555
Cs6_2 O2_2 1_555 1_555
Cs8_2 O18_2 1_555 1_555
O18_2 Cs1_2 1_555 1_555
O21_2 Cs1_2 1_555 1_555
O31_2 U3_2 1_555 1_555
O37_2 U1_2 1_555 1_555
O38_2 Cs1_2 1_555 1_555
O40_2 U1_2 1_555 1_555
O41_2 U3_2 1_555 1_555
Cs1_2 O4_2 1_555 1_555
Cs1_2 O6_2 1_555 1_555
Cs1_2 O37_2 1_555 1_555
P1_2 O6_2 1_555 1_555
P1_2 O21_2 1_555 1_555
U3_2 O18_2 1_555 1_555
U3_2 O21_2 1_555 1_555
U3_2 O38_2 1_555 1_555
O14_2 Cs6_2 1_555 1_555
O27_2 Cs8_2 1_555 1_555
O42_2 Cs8_2 1_555 1_555
O14_2 H16 1_555 1_555
O42_2 H17 1_555 1_555
U5 O15_2 1_555 1_555
U2_2 O3_2 1_555 1_555
P2_2 O8_2 1_555 1_555
O5_2 U2_2 1_555 1_555
O9_2 P2_2 1_555 1_555
O10_2 U2_2 1_555 1_555
O11_2 C12_2 1_555 1_555
O12_2 C12_2 1_555 1_555
C2_2 C1_2 1_555 1_555
H1_2 C2_2 1_555 1_555
C3_2 C2_2 1_555 1_555
C6_2 P2_2 1_555 1_555
C7_2 C6_2 1_555 1_555
C8_2 C7_2 1_555 1_555
C9_2 C8_2 1_555 1_555
C10_2 C9_2 1_555 1_555
H5_2 C10_2 1_555 1_555
C11_2 C6_2 1_555 1_555
H6_2 C11_2 1_555 1_555
C12_2 C9_2 1_555 1_555
U4 O11_2 1_555 1_555
U7 O28_2 1_555 1_555
U6 O36_2 1_555 1_555
P3_2 O25_2 1_555 1_555
O23_2 U2_2 1_555 1_555
O24_2 U2_2 1_555 1_555
O33_2 U2_2 1_555 1_555
O39_2 U6 1_555 1_555
C13_2 C1_2 1_555 1_555
H7_2 C13_2 1_555 1_555
C15_2 P3_2 1_555 1_555
C16_2 C15_2 1_555 1_555
H9_2 C16_2 1_555 1_555
C17_2 C16_2 1_555 1_555
H10_2 C17_2 1_555 1_555
C18_2 C17_2 1_555 1_555
C19_2 C18_2 1_555 1_555
H11_2 C19_2 1_555 1_555
C20_2 C15_2 1_555 1_555
H12_2 C20_2 1_555 1_555
C21_2 O36_2 1_555 1_555
P2_2 O10_2 1_555 1_555
O12_2 U4 1_555 1_555
C10_2 C11_2 1_555 1_555
Cs7_2 O25_2 1_555 1_555
P3_2 O28_2 1_555 1_555
P3_2 O33_2 1_555 1_555
O39_2 C21_2 1_555 1_555
C13_2 C14_2 1_555 1_555
C18_2 C21_2 1_555 1_555
C19_2 C20_2 1_555 1_555
O23_2 C5_2 1_555 1_555
C5_2 C4_2 1_555 1_555
O24_2 C5_2 1_555 1_555
U6 O17 1_555 1_555
Cs7 O7 1_555 1_555
P1_3 O5_3 1_555 1_555
P2_3 O27 1_555 1_555
O19 U6 1_555 1_555
O6_3 U6 1_555 1_555
O7 C5_3 1_555 1_555
O27 U6 1_555 1_555
O38_2 C12_3 1_555 1_555
O41_2 C12_3 1_555 1_555
C1_3 P1_3 1_555 1_555
C2_3 C1_3 1_555 1_555
H1_3 C2_3 1_555 1_555
C3_3 C2_3 1_555 1_555
H2_3 C3_3 1_555 1_555
C4_3 C3_3 1_555 1_555
C5_3 C4_3 1_555 1_555
C6_3 P2_3 1_555 1_555
C7_3 C6_3 1_555 1_555
H3_3 C7_3 1_555 1_555
C8_3 C7_3 1_555 1_555
H4_3 C8_3 1_555 1_555
C9_3 C8_3 1_555 1_555
C10_3 C9_3 1_555 1_555
H5_3 C10_3 1_555 1_555
C11_3 C6_3 1_555 1_555
H6_3 C11_3 1_555 1_555
C12_3 C9_3 1_555 1_555
O14_3 Cs7 1_555 1_555
U9 O7 1_555 1_555
P3_3 O26 1_555 1_555
O22 C5_3 1_555 1_555
O34 Cs7 1_555 1_555
O35 U9 1_555 1_555
C13_3 C1_3 1_555 1_555
H7_3 C13_3 1_555 1_555
C14_3 C4_3 1_555 1_555
H8_3 C14_3 1_555 1_555
C15_3 P3_3 1_555 1_555
C16_3 C15_3 1_555 1_555
C17_3 C16_3 1_555 1_555
C18_3 C17_3 1_555 1_555
C19_3 C18_3 1_555 1_555
H11_3 C19_3 1_555 1_555
C20_3 C15_3 1_555 1_555
H12_3 C20_3 1_555 1_555
C21_3 O37_2 1_555 1_555
O42_3 Cs5 1_555 1_555
P1_3 O6_3 1_555 1_555
P1_3 O21_3 1_555 1_555
C10_3 C11_3 1_555 1_555
U4 O20 1_555 1_555
U4 O21_3 1_555 1_555
U9 O22 1_555 1_555
U9 O34 1_555 1_555
Cs5 O22 1_555 1_555
Cs5 O35 1_555 1_555
O40_2 C21_3 1_555 1_555
C13_3 C14_3 1_555 1_555
C18_3 C21_3 1_555 1_555
C19_3 C20_3 1_555 1_555
U9 O3_3 1_555 1_555
O4_3 U9 1_555 1_555
Cs3_2 O4_3 1_555 1_555
O7_2 C5_4 1_555 1_555
C5_4 C4_4 1_555 1_555
U9_2 O7_2 1_555 1_555
O22_2 C5_4 1_555 1_555
O35_2 U9_2 1_555 1_555
U9_2 O22_2 1_555 1_555
U9_2 O34_2 1_555 1_555
U9_2 O3_4 1_555 1_555
P2_4 O27_2 1_555 1_555
O5_4 U9_2 1_555 1_555
O31_2 P2_4 1_555 1_555
O38 C12_4 1_555 1_555
O41 C12_4 1_555 1_555
C2_4 C1_4 1_555 1_555
H1_4 C2_4 1_555 1_555
C3_4 C2_4 1_555 1_555
C6_4 P2_4 1_555 1_555
C7_4 C6_4 1_555 1_555
H3_4 C7_4 1_555 1_555
C8_4 C7_4 1_555 1_555
H4_4 C8_4 1_555 1_555
C9_4 C8_4 1_555 1_555
C10_4 C9_4 1_555 1_555
H5_4 C10_4 1_555 1_555
C11_4 C6_4 1_555 1_555
H6_4 C11_4 1_555 1_555
C12_4 C9_4 1_555 1_555
P3_4 O26_2 1_555 1_555
C13_4 C1_4 1_555 1_555
H7_4 C13_4 1_555 1_555
C15_4 P3_4 1_555 1_555
C16_4 C15_4 1_555 1_555
C17_4 C16_4 1_555 1_555
C18_4 C17_4 1_555 1_555
C19_4 C18_4 1_555 1_555
H11_4 C19_4 1_555 1_555
C20_4 C15_4 1_555 1_555
H12_4 C20_4 1_555 1_555
C21_4 O37 1_555 1_555
P2_4 O34_2 1_555 1_555
C10_4 C11_4 1_555 1_555
P3_4 O29_2 1_555 1_555
P3_4 O35_2 1_555 1_555
O40 C21_4 1_555 1_555
C13_4 C14_4 1_555 1_555
C18_4 C21_4 1_555 1_555
C19_4 C20_4 1_555 1_555
O14_4 Cs7_2 1_555 1_555
O19_2 Cs7_2 1_555 1_555
O20_2 Cs5_2 1_555 1_555
O42_4 Cs5_2 1_555 1_555
O14_4 H16_2 1_555 1_555
U7 O17_2 1_555 1_555
Cs3 O19_2 1_555 1_555
O19_2 U7 1_555 1_555
O6_4 U7 1_555 1_555
O13_4 Cs3 1_555 1_555
O20_2 Cs3 1_555 1_555
O21_4 Cs3 1_555 1_555
Cs3 O4_4 1_555 1_555
Cs3 O6_4 1_555 1_555
P1_4 O6_4 1_555 1_555
P1_4 O21_4 1_555 1_555
U5 O20_2 1_555 1_555
U5 O21_4 1_555 1_555
O42_4 H16_3 1_555 1_555
O14_4 H17_4 1_555 1_555
O42_2 H16_4 1_555 1_555

#END
