
###############################################################################
#
# This file contains modified crystal structure data generated from the
# MOF subset of the Cambridge Structural Database (CSD) v543 
# hosted by the Cambridge Crystallographic Data Centre (CCDC).
#
# This work is licensed under the Creative Commons
# Attribution-NonCommercial-ShareAlike 4.0 International License.
# To view a copy of this license, visit
# http://creativecommons.org/licenses/by-nc-sa/4.0/
# or send a letter to
# Creative Commons, PO Box 1866, Mountain View, CA 94042, USA.
#
# CIF created using the CSD Python API on 29 September 2022
# The structure has been converted into the P1 space group
# The structure has a 3D framework
# The original CSD entry AXABUZ is in the orthorhombic crystal system
# The original CSD entry AXABUZ is in a Sohncke space group
# The framework has been calculated to contain at least 10.0% void space
# The void calculation uses a probe of radius 1.32A, grid spacing 0.4
#
###############################################################################

data_AXABUZ
_chemical_formula_moiety         '(C72 H56 O64 Sr6 Zn8)n'
_symmetry_cell_setting           triclinic
_symmetry_space_group_name_H-M   'P 1'
_symmetry_Int_Tables_number      1
_space_group_name_Hall           'P 1'
loop_
_symmetry_equiv_pos_site_id
_symmetry_equiv_pos_as_xyz
1 x,y,z
_cell_length_a                   14.3852(16)
_cell_length_b                   17.1631(14)
_cell_length_c                   13.4979(12)
_cell_angle_alpha                90
_cell_angle_beta                 90
_cell_angle_gamma                90
_cell_volume                     3332.56
loop_
_atom_site_label
_atom_site_type_symbol
_atom_site_fract_x
_atom_site_fract_y
_atom_site_fract_z
Sr5 Sr 0.0000 0.19718(5) 0.7500
Sr1 Sr 0.5000 0.30282(5) 0.2500
Zn1 Zn 0.81533(6) 0.10944(5) 0.56463(6)
O1 O 0.4188(4) 0.4105(3) 0.5253(4)
O2 O 0.7159(4) 0.5202(3) 0.8464(4)
O3 O 0.7109(4) 0.0909(3) 0.4646(4)
H1 H 0.6624 0.0733 0.4943
H2 H 0.7262 0.0540 0.4248
O4 O 0.6033(4) 0.5767(3) 0.7646(5)
O5 O 0.7657(5) 0.2086(3) 0.5945(5)
O6 O 0.5045(5) 0.3340(3) 0.4298(4)
O7 O 0.8447(5) 0.2664(4) 0.7154(5)
C1 C 0.5720(5) 0.3843(4) 0.5773(5)
C2 C 0.5778(5) 0.4489(4) 0.6416(5)
H3 H 0.5334 0.4883 0.6388
C3 C 0.7101(5) 0.3299(5) 0.6513(6)
C4 C 0.6563(5) 0.5219(4) 0.7756(5)
C5 C 0.7167(5) 0.3934(4) 0.7140(5)
H4 H 0.7652 0.3965 0.7594
C6 C 0.4934(6) 0.3758(4) 0.5039(5)
C7 C 0.6391(6) 0.3271(4) 0.5825(6)
H5 H 0.6365 0.2854 0.5385
C8 C 0.6504(6) 0.4531(4) 0.7090(5)
C9 C 0.7807(6) 0.2642(5) 0.6557(6)
O8 O 0.5393(11) 0.1663(7) 0.3420(11)
H6 H 0.4917 0.1369 0.3433
H7 H 0.5495 0.1773 0.4025
O11 O 0.2891(4) 0.0909(3) 0.0354(4)
H8 H 0.3376 0.0733 0.0057
H9 H 0.2738 0.0540 0.0752
O14 O 0.4955(5) 0.3340(3) 0.0702(4)
O16 O 0.4607(11) 0.1663(7) 0.1580(11)
H13 H 0.5083 0.1369 0.1567
H14 H 0.4505 0.1773 0.0975
Sr3 Sr 0.5000 0.69718(5) 0.7500
Sr5_2 Sr 1.0000 0.19718(5) 0.7500
Zn4 Zn 0.68467(6) 0.39056(5) 0.06463(6)
Zn5 Zn 0.68467(6) 0.60944(5) 0.93537(6)
Zn6 Zn 0.31533(6) 0.39056(5) 0.43537(6)
O17 O 0.0812(4) 0.0895(3) 0.0253(4)
O18 O 0.9188(4) 0.0895(3) 0.4747(4)
O20 O 0.7841(4) 0.0202(3) 0.6536(4)
O21 O 0.3967(4) 0.4233(3) 0.2646(5)
O22 O 0.6033(4) 0.4233(3) 0.2354(5)
O23 O 0.6553(5) 0.2336(4) 0.2154(5)
O24 O 0.3447(5) 0.2336(4) 0.2846(5)
Zn2 Zn 0.18467(6) 0.10944(5) 0.93537(6)
O9 O 0.5812(4) 0.4105(3) 0.9747(4)
O10 O 0.2841(4) 0.5202(3) 0.6536(4)
O12 O 0.3967(4) 0.5767(3) 0.7354(5)
O13 O 0.2343(5) 0.2086(3) 0.9055(5)
O15 O 0.1553(5) 0.2664(4) 0.7846(5)
C10 C 0.4280(5) 0.3843(4) 0.9227(5)
C11 C 0.4222(5) 0.4489(4) 0.8584(5)
H10 H 0.4666 0.4883 0.8612
C12 C 0.2899(5) 0.3299(5) 0.8487(6)
C13 C 0.3437(5) 0.5219(4) 0.7244(5)
C14 C 0.2833(5) 0.3934(4) 0.7860(5)
H11 H 0.2348 0.3965 0.7406
C15 C 0.5066(6) 0.3758(4) 0.9961(5)
C16 C 0.3609(6) 0.3271(4) 0.9175(6)
H12 H 0.3635 0.2854 0.9615
C17 C 0.3496(6) 0.4531(4) 0.7910(5)
C18 C 0.2193(6) 0.2642(5) 0.8443(6)
Zn3 Zn 0.31533(6) 0.60944(5) 0.56463(6)
O19 O 0.2159(4) 0.0202(3) 0.8464(4)
Sr4 Sr -0.0000 0.80282(5) 0.2500
Zn1_2 Zn 0.18467(6) 0.89056(5) 0.06463(6)
O1_2 O 0.5812(4) 0.5895(3) 0.0253(4)
O2_2 O 0.2841(4) 0.4798(3) 0.3464(4)
O5_2 O 0.2343(5) 0.7914(3) 0.0945(5)
O7_2 O 0.1553(5) 0.7336(4) 0.2154(5)
C1_2 C 0.4280(5) 0.6157(4) 0.0773(5)
C2_2 C 0.4222(5) 0.5511(4) 0.1416(5)
H3_2 H 0.4666 0.5117 0.1388
C3_2 C 0.2899(5) 0.6701(5) 0.1513(6)
C4_2 C 0.3437(5) 0.4781(4) 0.2756(5)
C5_2 C 0.2833(5) 0.6066(4) 0.2140(5)
H4_2 H 0.2348 0.6035 0.2594
C6_2 C 0.5066(6) 0.6242(4) 0.0039(5)
C7_2 C 0.3609(6) 0.6729(4) 0.0825(6)
H5_2 H 0.3635 0.7146 0.0385
C8_2 C 0.3496(6) 0.5469(4) 0.2090(5)
C9_2 C 0.2193(6) 0.7358(5) 0.1557(6)
O20_2 O 0.2159(4) 0.9798(3) 0.1536(4)
O3_2 O 0.2891(4) 0.9091(3) 0.9646(4)
H1_2 H 0.3376 0.9267 0.9943
H2_2 H 0.2738 0.9460 0.9248
O6_2 O 0.4955(5) 0.6660(3) 0.9298(4)
O8_2 O 0.4607(11) 0.8337(7) 0.8420(11)
H6_2 H 0.5083 0.8631 0.8433
H7_2 H 0.4505 0.8227 0.9025
Zn2_2 Zn 0.81533(6) 0.89056(5) 0.43537(6)
O9_2 O 0.4188(4) 0.5895(3) 0.4747(4)
O10_2 O 0.7159(4) 0.4798(3) 0.1536(4)
O11_2 O 0.7109(4) 0.9091(3) 0.5354(4)
H8_2 H 0.6624 0.9267 0.5057
H9_2 H 0.7262 0.9460 0.5752
O13_2 O 0.7657(5) 0.7914(3) 0.4055(5)
O14_2 O 0.5045(5) 0.6660(3) 0.5702(4)
O15_2 O 0.8447(5) 0.7336(4) 0.2846(5)
C10_2 C 0.5720(5) 0.6157(4) 0.4227(5)
C11_2 C 0.5778(5) 0.5511(4) 0.3584(5)
H10_2 H 0.5334 0.5117 0.3612
C12_2 C 0.7101(5) 0.6701(5) 0.3487(6)
C13_2 C 0.6563(5) 0.4781(4) 0.2244(5)
C14_2 C 0.7167(5) 0.6066(4) 0.2860(5)
H11_2 H 0.7652 0.6035 0.2406
C15_2 C 0.4934(6) 0.6242(4) 0.4961(5)
C16_2 C 0.6391(6) 0.6729(4) 0.4175(6)
H12_2 H 0.6365 0.7146 0.4615
C17_2 C 0.6504(6) 0.5469(4) 0.2910(5)
C18_2 C 0.7807(6) 0.7358(5) 0.3443(6)
O16_2 O 0.5393(11) 0.8337(7) 0.6580(11)
H13_2 H 0.4917 0.8631 0.6567
H14_2 H 0.5495 0.8227 0.5975
Sr4_2 Sr 1.0000 0.80282(5) 0.2500
O17_2 O 0.9188(4) 0.9105(3) 0.5253(4)
O18_2 O 0.0812(4) 0.9105(3) 0.9747(4)
O19_2 O 0.7841(4) 0.9798(3) 0.3464(4)
O23_2 O 0.3447(5) 0.7664(4) 0.7154(5)
O24_2 O 0.6553(5) 0.7664(4) 0.7846(5)
O4_2 O 0.1033(4) 0.0767(3) 0.7646(5)
C4_3 C 0.1563(5) 0.0219(4) 0.7756(5)
O3_3 O 0.2109(4) 0.5909(3) 0.4646(4)
H1_3 H 0.1624 0.5733 0.4943
H2_3 H 0.2262 0.5540 0.4248
O5_3 O 0.2657(5) 0.7086(3) 0.5945(5)
O6_3 O 0.0045(5) 0.8340(3) 0.4298(4)
C1_3 C 0.0720(5) 0.8843(4) 0.5773(5)
C2_3 C 0.0778(5) 0.9489(4) 0.6416(5)
H3_3 H 0.0334 0.9883 0.6388
C3_3 C 0.2101(5) 0.8299(5) 0.6513(6)
C5_3 C 0.2167(5) 0.8934(4) 0.7140(5)
H4_3 H 0.2652 0.8965 0.7594
C7_3 C 0.1391(6) 0.8271(4) 0.5825(6)
H5_3 H 0.1365 0.7854 0.5385
C8_3 C 0.1504(6) 0.9531(4) 0.7090(5)
C9_3 C 0.2807(6) 0.7642(5) 0.6557(6)
O8_3 O 0.0393(11) 0.6663(7) 0.3420(11)
H7_3 H 0.0495 0.6773 0.4025
H13_3 H 0.0083 0.6369 0.1567
O22_2 O 0.1033(4) 0.9233(3) 0.2354(5)
C15_3 C 0.0066(6) 0.8758(4) 0.9961(5)
O12_2 O 0.8967(4) 0.0767(3) 0.7354(5)
C13_3 C 0.8437(5) 0.0219(4) 0.7244(5)
C6_3 C 0.9934(6) 0.8758(4) 0.5039(5)
H6_3 H 0.9917 0.6369 0.3433
O11_3 O 0.7891(4) 0.5909(3) 0.0354(4)
H8_3 H 0.8376 0.5733 0.0057
H9_3 H 0.7738 0.5540 0.0752
O14_3 O 0.9955(5) 0.8340(3) 0.0702(4)
O16_3 O 0.9607(11) 0.6663(7) 0.1580(11)
H14_3 H 0.9505 0.6773 0.0975
O21_2 O 0.8967(4) 0.9233(3) 0.2646(5)
O13_3 O 0.7343(5) 0.7086(3) 0.9055(5)
C10_3 C 0.9280(5) 0.8843(4) 0.9227(5)
C11_3 C 0.9222(5) 0.9489(4) 0.8584(5)
H10_3 H 0.9666 0.9883 0.8612
C12_3 C 0.7899(5) 0.8299(5) 0.8487(6)
C14_3 C 0.7833(5) 0.8934(4) 0.7860(5)
H11_3 H 0.7348 0.8965 0.7406
C16_3 C 0.8609(6) 0.8271(4) 0.9175(6)
H12_3 H 0.8635 0.7854 0.9615
C17_3 C 0.8496(6) 0.9531(4) 0.7910(5)
C18_3 C 0.7193(6) 0.7642(5) 0.8443(6)
C6_4 C 0.0066(6) 0.1242(4) 0.0039(5)
H6_4 H 0.0083 0.3631 0.8433
O11_4 O 0.2109(4) 0.4091(3) 0.5354(4)
H8_4 H 0.1624 0.4267 0.5057
H9_4 H 0.2262 0.4460 0.5752
O13_4 O 0.2657(5) 0.2914(3) 0.4055(5)
O14_4 O 0.0045(5) 0.1660(3) 0.5702(4)
C10_4 C 0.0720(5) 0.1157(4) 0.4227(5)
C11_4 C 0.0778(5) 0.0511(4) 0.3584(5)
H10_4 H 0.0334 0.0117 0.3612
C12_4 C 0.2101(5) 0.1701(5) 0.3487(6)
C14_4 C 0.2167(5) 0.1066(4) 0.2860(5)
H11_4 H 0.2652 0.1035 0.2406
C16_4 C 0.1391(6) 0.1729(4) 0.4175(6)
H12_4 H 0.1365 0.2146 0.4615
C17_4 C 0.1504(6) 0.0469(4) 0.2910(5)
C18_4 C 0.2807(6) 0.2358(5) 0.3443(6)
O16_4 O 0.0393(11) 0.3337(7) 0.6580(11)
H14_4 H 0.0495 0.3227 0.5975
C13_4 C 0.1563(5) 0.9781(4) 0.2244(5)
O5_4 O 0.7343(5) 0.2914(3) 0.0945(5)
C1_4 C 0.9280(5) 0.1157(4) 0.0773(5)
C2_4 C 0.9222(5) 0.0511(4) 0.1416(5)
H3_4 H 0.9666 0.0117 0.1388
C3_4 C 0.7899(5) 0.1701(5) 0.1513(6)
C5_4 C 0.7833(5) 0.1066(4) 0.2140(5)
H4_4 H 0.7348 0.1035 0.2594
C7_4 C 0.8609(6) 0.1729(4) 0.0825(6)
H5_4 H 0.8635 0.2146 0.0385
C8_4 C 0.8496(6) 0.0469(4) 0.2090(5)
C9_4 C 0.7193(6) 0.2358(5) 0.1557(6)
O3_4 O 0.7891(4) 0.4091(3) 0.9646(4)
H1_4 H 0.8376 0.4267 0.9943
H2_4 H 0.7738 0.4460 0.9248
O6_4 O 0.9955(5) 0.1660(3) 0.9298(4)
O8_4 O 0.9607(11) 0.3337(7) 0.8420(11)
H7_4 H 0.9505 0.3227 0.9025
C15_4 C 0.9934(6) 0.1242(4) 0.4961(5)
H13_4 H 0.9917 0.3631 0.6567
C4_4 C 0.8437(5) 0.9781(4) 0.2756(5)
loop_
_geom_bond_atom_site_label_1
_geom_bond_atom_site_label_2
_geom_bond_site_symmetry_1
_geom_bond_site_symmetry_2
Sr1 O6 1_555 1_555
Zn1 O3 1_555 1_555
O1 C6 1_555 1_555
O2 C4 1_555 1_555
O3 H1 1_555 1_555
H2 O3 1_555 1_555
O4 C4 1_555 1_555
O5 Zn1 1_555 1_555
O6 C6 1_555 1_555
O7 C9 1_555 1_555
C1 C2 1_555 1_555
C2 H3 1_555 1_555
C3 C5 1_555 1_555
C4 C8 1_555 1_555
C5 H4 1_555 1_555
C6 C1 1_555 1_555
C7 C1 1_555 1_555
H5 C7 1_555 1_555
C8 C2 1_555 1_555
C9 O5 1_555 1_555
O8 Sr1 1_555 1_555
H6 O8 1_555 1_555
H7 O8 1_555 1_555
O11 H8 1_555 1_555
H9 O11 1_555 1_555
O14 Sr1 1_555 1_555
O16 Sr1 1_555 1_555
H13 O16 1_555 1_555
H14 O16 1_555 1_555
Sr3 O4 1_555 1_555
Sr5_2 O7 1_555 1_555
Zn5 O2 1_555 1_555
Zn6 O1 1_555 1_555
O18 Zn1 1_555 1_555
O20 Zn1 1_555 1_555
O21 Sr1 1_555 1_555
O22 Sr1 1_555 1_555
O23 Sr1 1_555 1_555
O24 Sr1 1_555 1_555
C3 C7 1_555 1_555
C3 C9 1_555 1_555
C5 C8 1_555 1_555
O9 C15 1_555 1_555
O10 C13 1_555 1_555
O12 C13 1_555 1_555
O13 Zn2 1_555 1_555
O15 C18 1_555 1_555
C10 C11 1_555 1_555
C11 H10 1_555 1_555
C12 C14 1_555 1_555
C13 C17 1_555 1_555
C14 H11 1_555 1_555
C16 C10 1_555 1_555
H12 C16 1_555 1_555
C17 C11 1_555 1_555
C18 O13 1_555 1_555
Sr3 O12 1_555 1_555
Sr5 O15 1_555 1_555
Zn3 O10 1_555 1_555
O19 Zn2 1_555 1_555
C10 C15 1_555 1_555
C12 C16 1_555 1_555
C12 C18 1_555 1_555
C14 C17 1_555 1_555
O1_2 C6_2 1_555 1_555
O2_2 C4_2 1_555 1_555
O21 C4_2 1_555 1_555
O5_2 Zn1_2 1_555 1_555
O7_2 C9_2 1_555 1_555
C1_2 C2_2 1_555 1_555
C2_2 H3_2 1_555 1_555
C3_2 C5_2 1_555 1_555
C4_2 C8_2 1_555 1_555
C5_2 H4_2 1_555 1_555
C6_2 C1_2 1_555 1_555
C7_2 C1_2 1_555 1_555
H5_2 C7_2 1_555 1_555
C8_2 C2_2 1_555 1_555
C9_2 O5_2 1_555 1_555
Sr4 O7_2 1_555 1_555
Zn6 O2_2 1_555 1_555
O20_2 Zn1_2 1_555 1_555
C3_2 C7_2 1_555 1_555
C3_2 C9_2 1_555 1_555
C5_2 C8_2 1_555 1_555
Sr3 O6_2 1_555 1_555
O3_2 H1_2 1_555 1_555
H2_2 O3_2 1_555 1_555
O8_2 Sr3 1_555 1_555
H6_2 O8_2 1_555 1_555
H7_2 O8_2 1_555 1_555
Zn2_2 O11_2 1_555 1_555
O9_2 C15_2 1_555 1_555
O10_2 C13_2 1_555 1_555
O11_2 H8_2 1_555 1_555
H9_2 O11_2 1_555 1_555
O22 C13_2 1_555 1_555
O13_2 Zn2_2 1_555 1_555
O14_2 Sr3 1_555 1_555
O15_2 C18_2 1_555 1_555
C10_2 C11_2 1_555 1_555
C11_2 H10_2 1_555 1_555
C12_2 C14_2 1_555 1_555
C13_2 C17_2 1_555 1_555
C14_2 H11_2 1_555 1_555
C15_2 O14_2 1_555 1_555
C16_2 C10_2 1_555 1_555
H12_2 C16_2 1_555 1_555
C17_2 C11_2 1_555 1_555
C18_2 O13_2 1_555 1_555
O16_2 Sr3 1_555 1_555
H13_2 O16_2 1_555 1_555
H14_2 O16_2 1_555 1_555
Sr4_2 O15_2 1_555 1_555
Zn4 O10_2 1_555 1_555
Zn3 O9_2 1_555 1_555
O17_2 Zn2_2 1_555 1_555
O19_2 Zn2_2 1_555 1_555
O23_2 Sr3 1_555 1_555
O24_2 Sr3 1_555 1_555
C10_2 C15_2 1_555 1_555
C12_2 C16_2 1_555 1_555
C12_2 C18_2 1_555 1_555
C14_2 C17_2 1_555 1_555
O19 C4_3 1_555 1_555
O4_2 C4_3 1_555 1_555
Sr5 O4_2 1_555 1_555
Sr4 O6_3 1_555 1_555
Zn3 O3_3 1_555 1_555
O3_3 H1_3 1_555 1_555
H2_3 O3_3 1_555 1_555
O5_3 Zn3 1_555 1_555
O23_2 C9_3 1_555 1_555
C1_3 C2_3 1_555 1_555
C2_3 H3_3 1_555 1_555
C3_3 C5_3 1_555 1_555
C5_3 H4_3 1_555 1_555
C7_3 C1_3 1_555 1_555
H5_3 C7_3 1_555 1_555
C8_3 C2_3 1_555 1_555
C9_3 O5_3 1_555 1_555
O8_3 Sr4 1_555 1_555
H7_3 O8_3 1_555 1_555
O22_2 Sr4 1_555 1_555
C3_3 C7_3 1_555 1_555
C3_3 C9_3 1_555 1_555
C5_3 C8_3 1_555 1_555
O18_2 C15_3 1_555 1_555
O20 C13_3 1_555 1_555
O12_2 C13_3 1_555 1_555
Sr5_2 O12_2 1_555 1_555
O17_2 C6_3 1_555 1_555
O11_3 H8_3 1_555 1_555
H9_3 O11_3 1_555 1_555
O14_3 Sr4_2 1_555 1_555
O16_3 Sr4_2 1_555 1_555
H14_3 O16_3 1_555 1_555
O21_2 Sr4_2 1_555 1_555
O13_3 Zn5 1_555 1_555
O24_2 C18_3 1_555 1_555
C10_3 C11_3 1_555 1_555
C11_3 H10_3 1_555 1_555
C12_3 C14_3 1_555 1_555
C14_3 H11_3 1_555 1_555
C16_3 C10_3 1_555 1_555
H12_3 C16_3 1_555 1_555
C17_3 C11_3 1_555 1_555
C18_3 O13_3 1_555 1_555
C12_3 C16_3 1_555 1_555
C12_3 C18_3 1_555 1_555
C14_3 C17_3 1_555 1_555
O17 C6_4 1_555 1_555
Zn6 O11_4 1_555 1_555
O11_4 H8_4 1_555 1_555
H9_4 O11_4 1_555 1_555
O13_4 Zn6 1_555 1_555
O14_4 Sr5 1_555 1_555
O24 C18_4 1_555 1_555
C10_4 C11_4 1_555 1_555
C11_4 H10_4 1_555 1_555
C12_4 C14_4 1_555 1_555
C14_4 H11_4 1_555 1_555
C16_4 C10_4 1_555 1_555
H12_4 C16_4 1_555 1_555
C17_4 C11_4 1_555 1_555
C18_4 O13_4 1_555 1_555
O16_4 Sr5 1_555 1_555
H14_4 O16_4 1_555 1_555
C12_4 C16_4 1_555 1_555
C12_4 C18_4 1_555 1_555
C14_4 C17_4 1_555 1_555
O20_2 C13_4 1_555 1_555
O22_2 C13_4 1_555 1_555
O5_4 Zn4 1_555 1_555
O23 C9_4 1_555 1_555
C1_4 C2_4 1_555 1_555
C2_4 H3_4 1_555 1_555
C3_4 C5_4 1_555 1_555
C5_4 H4_4 1_555 1_555
C7_4 C1_4 1_555 1_555
H5_4 C7_4 1_555 1_555
C8_4 C2_4 1_555 1_555
C9_4 O5_4 1_555 1_555
C3_4 C7_4 1_555 1_555
C3_4 C9_4 1_555 1_555
C5_4 C8_4 1_555 1_555
Sr5_2 O6_4 1_555 1_555
O3_4 H1_4 1_555 1_555
H2_4 O3_4 1_555 1_555
O8_4 Sr5_2 1_555 1_555
H7_4 O8_4 1_555 1_555
O18 C15_4 1_555 1_555
O19_2 C4_4 1_555 1_555
O21_2 C4_4 1_555 1_555

#END
