
###############################################################################
#
# This file contains modified crystal structure data generated from the
# MOF subset of the Cambridge Structural Database (CSD) v543 
# hosted by the Cambridge Crystallographic Data Centre (CCDC).
#
# This work is licensed under the Creative Commons
# Attribution-NonCommercial-ShareAlike 4.0 International License.
# To view a copy of this license, visit
# http://creativecommons.org/licenses/by-nc-sa/4.0/
# or send a letter to
# Creative Commons, PO Box 1866, Mountain View, CA 94042, USA.
#
# CIF created using the CSD Python API on 29 September 2022
# The structure has been converted into the P1 space group
# The structure has a 3D framework
# The original CSD entry AXEKAS is in the monoclinic crystal system
# The framework has been calculated to contain at least 10.0% void space
# The void calculation uses a probe of radius 1.32A, grid spacing 0.4
#
###############################################################################

data_AXEKAS
_chemical_formula_moiety         '(C120 H104 Ho8 N8 O54)n'
_symmetry_cell_setting           triclinic
_symmetry_space_group_name_H-M   'P 1'
_symmetry_Int_Tables_number      1
_space_group_name_Hall           'P 1'
loop_
_symmetry_equiv_pos_site_id
_symmetry_equiv_pos_as_xyz
1 x,y,z
_cell_length_a                   18.731(4)
_cell_length_b                   11.059(2)
_cell_length_c                   18.201(4)
_cell_angle_alpha                90
_cell_angle_beta                 108.096(5)
_cell_angle_gamma                90
_cell_volume                     3583.78
loop_
_atom_site_label
_atom_site_type_symbol
_atom_site_fract_x
_atom_site_fract_y
_atom_site_fract_z
C11 C 0.45085(16) 0.0320(3) 0.57846(17)
H5 H 0.4233 0.0374 0.5251
C12 C 0.51953(15) 0.0909(3) 0.60683(16)
H6 H 0.5389 0.1361 0.5729
C13 C 0.55966(15) 0.0833(3) 0.68489(16)
C14 C 0.52942(16) 0.0217(3) 0.73476(17)
H7 H 0.5557 0.0203 0.7886
C16 C 0.63773(14) 0.1347(2) 0.71523(16)
O7 O 0.66162(10) 0.19656(18) 0.66966(12)
O8 O 0.67478(11) 0.10792(19) 0.78343(11)
C19 C 0.02651(15) 0.0237(2) 0.43824(16)
H9 H 0.0448 0.0394 0.3960
O14 O 0.30529(12) 0.04068(18) 0.38941(13)
C28 C 0.30257(17) 0.1021(3) 0.33116(19)
H20 H 0.2643 0.0838 0.2843
N2 N 0.34941(15) 0.1910(2) 0.33030(17)
C29 C 0.40901(19) 0.2262(3) 0.4001(2)
H21 H 0.3928 0.2105 0.4455
H22 H 0.4198 0.3126 0.3976
H23 H 0.4544 0.1792 0.4040
C30 C 0.3475(2) 0.2514(3) 0.2582(2)
H24 H 0.3929 0.2311 0.2450
H25 H 0.3450 0.3391 0.2647
H26 H 0.3031 0.2245 0.2166
Ho5 Ho 0.75558(2) 0.17342(2) 0.89757(2)
Ho13 Ho 0.74138(2) 0.15791(2) 0.60047(2)
Ho1 Ho 0.24442(2) 0.67342(2) 0.60243(2)
Ho2 Ho 0.25862(2) 0.84209(2) 0.39953(2)
O1 O 0.17402(11) 0.6378(2) 0.47746(12)
O2 O 0.16914(11) 0.69331(19) 0.35850(12)
C1 C 0.14327(15) 0.6390(3) 0.40560(16)
C2 C 0.06936(15) 0.5740(3) 0.37378(16)
C3 C 0.02361(17) 0.5971(3) 0.29876(17)
H1 H 0.0393 0.6530 0.2672
C7 C 0.04618(15) 0.4930(3) 0.41999(17)
H4 H 0.0770 0.4787 0.4715
O5 O 0.33304(11) 0.82411(19) 0.64062(14)
O6 O 0.32228(12) 0.8935(2) 0.52313(13)
C9 C 0.35362(15) 0.8897(3) 0.59488(17)
C10 C 0.42249(15) 0.9657(3) 0.62743(16)
C15 C 0.46118(16) 0.9622(3) 0.70653(17)
H8 H 0.4409 0.9194 0.7407
O9 O 0.18006(11) 0.84718(18) 0.56072(12)
O10 O 0.16212(11) 0.91546(19) 0.44002(12)
C17 C 0.14245(15) 0.9007(2) 0.49959(16)
C18 C 0.06804(14) 0.9513(2) 0.49929(16)
C20 C 0.04138(15) 0.9272(2) 0.56105(16)
H10 H 0.0695 0.8774 0.6025
O11 O 0.34006(11) 0.58373(19) 0.56549(12)
O12 O 0.32676(12) 0.6751(2) 0.45352(14)
C21 C 0.36036(14) 0.6067(2) 0.50760(17)
C22 C 0.43244(14) 0.5496(2) 0.50356(16)
C23 C 0.47076(15) 0.4652(2) 0.55840(16)
H11 H 0.4507 0.4407 0.5980
C24 C 0.46178(15) 0.5835(2) 0.44468(16)
H12 H 0.4355 0.6400 0.4066
O13 O 0.20988(12) 0.46864(18) 0.60221(13)
C25 C 0.23307(18) 0.3807(3) 0.57464(19)
H13 H 0.2792 0.3888 0.5636
N1 N 0.19768(18) 0.2759(2) 0.55949(18)
C26 C 0.1250(2) 0.2588(3) 0.5698(2)
H14 H 0.1152 0.3248 0.6014
H15 H 0.1242 0.1815 0.5959
H16 H 0.0861 0.2585 0.5193
C27 C 0.2280(3) 0.1755(4) 0.5259(3)
H17 H 0.2776 0.1977 0.5226
H18 H 0.1941 0.1578 0.4741
H19 H 0.2327 0.1037 0.5587
O17 O 0.65994(11) 0.41627(19) 0.43451(12)
O18 O 0.67324(12) 0.3249(2) 0.54648(14)
C35 C 0.63964(14) 0.3933(2) 0.49240(17)
C36 C 0.56756(14) 0.4504(2) 0.49644(16)
C37 C 0.52924(15) 0.5348(2) 0.44160(16)
H29 H 0.5493 0.5593 0.4020
C38 C 0.53822(15) 0.4165(2) 0.55532(16)
H30 H 0.5645 0.3600 0.5934
C42 C 0.04513(16) 0.4618(3) 0.73005(17)
H32 H 0.0767 0.4454 0.7810
C43 C 0.06769(14) 0.5449(2) 0.68404(16)
C44 C 0.02190(15) 0.5673(3) 0.60879(17)
H33 H 0.0372 0.6236 0.5772
C46 C 0.14263(14) 0.6075(2) 0.71570(16)
O21 O 0.18094(10) 0.58486(18) 0.78375(11)
O22 O 0.16149(10) 0.67876(17) 0.67044(11)
Ho7 Ho 0.75558(2) 0.32658(2) 0.39757(2)
Ho14 Ho 0.25862(2) 0.65791(2) 0.89953(2)
O29 O 0.18094(10) 0.91514(18) 0.28375(11)
O32 O 0.33838(10) 0.80344(18) 0.33034(12)
O33 O 0.32522(11) 0.60792(19) 0.71657(11)
O15 O 0.81994(11) 0.15282(18) 0.43928(12)
O16 O 0.83788(11) 0.08454(19) 0.55998(12)
C31 C 0.85755(15) 0.0993(2) 0.50041(16)
C32 C 0.93196(14) 0.0487(2) 0.50071(16)
C34 C 0.95862(15) 0.0728(2) 0.43895(16)
H28 H 0.9305 0.1226 0.3975
C4 C 0.95487(16) 0.5382(3) 0.26995(17)
H2 H 0.9233 0.5546 0.2190
C5 C 0.93231(14) 0.4551(2) 0.31596(16)
C6 C 0.97810(15) 0.4327(3) 0.39121(17)
H3 H 0.9628 0.3764 0.4228
C8 C 0.85737(14) 0.3925(2) 0.28430(16)
O3 O 0.81906(10) 0.41514(18) 0.21625(11)
O4 O 0.83851(10) 0.32124(17) 0.32956(11)
C33 C 0.97349(15) 0.9763(2) 0.56176(16)
H27 H 0.9552 0.9606 0.6040
O19 O 0.82598(11) 0.3622(2) 0.52254(12)
O20 O 0.83086(11) 0.30669(19) 0.64150(12)
C39 C 0.85673(15) 0.3610(3) 0.59440(16)
C40 C 0.93064(15) 0.4260(3) 0.62622(16)
C41 C 0.97639(17) 0.4029(3) 0.70124(17)
H31 H 0.9607 0.3470 0.7328
C45 C 0.95382(15) 0.5070(3) 0.58001(17)
H34 H 0.9230 0.5213 0.5285
O23 O 0.66696(11) 0.17589(19) 0.35938(14)
O24 O 0.67772(12) 0.1065(2) 0.47687(13)
C47 C 0.64638(15) 0.1103(3) 0.40512(17)
C48 C 0.57751(15) 0.0343(3) 0.37257(16)
C53 C 0.53882(16) 0.0378(3) 0.29347(17)
H38 H 0.5591 0.0806 0.2593
O27 O 0.79012(12) 0.53136(18) 0.39779(13)
C55 C 0.76693(18) 0.6193(3) 0.42536(19)
H39 H 0.7208 0.6112 0.4364
N3 N 0.80232(18) 0.7241(2) 0.44051(18)
C56 C 0.8750(2) 0.7412(3) 0.4302(2)
H40 H 0.8848 0.6752 0.3986
H41 H 0.8758 0.8185 0.4041
H42 H 0.9139 0.7415 0.4807
C57 C 0.7720(3) 0.8245(4) 0.4741(3)
H43 H 0.7224 0.8023 0.4774
H44 H 0.8059 0.8422 0.5259
H45 H 0.7673 0.8963 0.4413
Ho10 Ho 0.74138(2) 0.34209(2) 0.10047(2)
O30 O 0.81906(10) 0.08486(18) 0.71625(11)
O34 O 0.67478(11) 0.39208(19) 0.28343(11)
C49 C 0.54915(16) 0.9680(3) 0.42154(17)
H35 H 0.5767 0.9626 0.4749
C50 C 0.48047(15) 0.9091(3) 0.39317(16)
H36 H 0.4611 0.8639 0.4271
C51 C 0.44034(15) 0.9167(3) 0.31511(16)
C52 C 0.47058(16) 0.9783(3) 0.26524(17)
H37 H 0.4443 0.9797 0.2114
C54 C 0.36227(14) 0.8653(2) 0.28477(16)
O26 O 0.32522(11) 0.89208(19) 0.21657(11)
O28 O 0.69471(12) 0.95932(18) 0.61059(13)
C58 C 0.69743(17) 0.8979(3) 0.66884(19)
H46 H 0.7357 0.9162 0.7157
N4 N 0.65059(15) 0.8090(2) 0.66970(17)
C59 C 0.59099(19) 0.7738(3) 0.5999(2)
H47 H 0.6072 0.7895 0.5545
H48 H 0.5802 0.6874 0.6024
H49 H 0.5456 0.8208 0.5960
C60 C 0.6525(2) 0.7486(3) 0.7418(2)
H50 H 0.6071 0.7689 0.7550
H51 H 0.6550 0.6609 0.7353
H52 H 0.6969 0.7755 0.7834
Ho8 Ho 0.24442(2) 0.82658(2) 0.10243(2)
C4_2 C 0.04513(16) 0.0382(3) 0.23005(17)
H2_2 H 0.0767 0.0546 0.2810
O15_2 O 0.18006(11) 0.65282(18) 0.06072(12)
C34_2 C 0.04138(15) 0.5728(2) 0.06105(16)
H28_2 H 0.0695 0.6226 0.1025
O27_2 O 0.20988(12) 0.03136(18) 0.10221(13)
C55_2 C 0.23307(18) 0.1193(3) 0.07464(19)
H39_2 H 0.2792 0.1112 0.0636
N3_2 N 0.19768(18) 0.2241(2) 0.05949(18)
C56_2 C 0.1250(2) 0.2412(3) 0.0698(2)
H40_2 H 0.1152 0.1752 0.1014
H41_2 H 0.1242 0.3185 0.0959
H42_2 H 0.0861 0.2415 0.0193
C57_2 C 0.2280(3) 0.3245(4) 0.0259(3)
H43_2 H 0.2776 0.3023 0.0226
H45_2 H 0.2327 0.3963 0.0587
O16_2 O 0.16212(11) 0.58454(19) 0.94002(12)
C31_2 C 0.14245(15) 0.5993(2) 0.99959(16)
C32_2 C 0.06804(14) 0.5487(2) 0.99929(16)
C33_2 C 0.02651(15) 0.4763(2) 0.93824(16)
H27_2 H 0.0448 0.4606 0.8960
C45_2 C 0.04618(15) 0.0070(3) 0.91999(17)
H34_2 H 0.0770 0.0213 0.9715
H44_2 H 0.1941 0.3422 0.9741
C5_2 C 0.06769(14) 0.9551(2) 0.18404(16)
C6_2 C 0.02190(15) 0.9327(3) 0.10879(17)
H3_2 H 0.0372 0.8764 0.0772
C8_2 C 0.14263(14) 0.8925(2) 0.21570(16)
O4_2 O 0.16149(10) 0.82124(17) 0.17044(11)
O23_2 O 0.33304(11) 0.67589(19) 0.14062(14)
O24_2 O 0.32228(12) 0.6065(2) 0.02313(13)
C47_2 C 0.35362(15) 0.6103(3) 0.09488(17)
C48_2 C 0.42249(15) 0.5343(3) 0.12743(16)
C49_2 C 0.45085(16) 0.4680(3) 0.07846(17)
H35_2 H 0.4233 0.4626 0.0251
C50_2 C 0.51953(15) 0.4091(3) 0.10683(16)
H36_2 H 0.5389 0.3639 0.0729
C51_2 C 0.55966(15) 0.4167(3) 0.18489(16)
C52_2 C 0.52942(16) 0.4783(3) 0.23476(17)
H37_2 H 0.5557 0.4797 0.2886
C53_2 C 0.46118(16) 0.5378(3) 0.20653(17)
H38_2 H 0.4409 0.5806 0.2407
C54_2 C 0.63773(14) 0.3653(2) 0.21523(16)
O25 O 0.66162(10) 0.30344(18) 0.16966(12)
O37 O 0.34006(11) 0.91627(19) 0.06549(12)
O19_2 O 0.17402(11) 0.8622(2) 0.97746(12)
O20_2 O 0.16914(11) 0.80669(19) 0.85850(12)
C39_2 C 0.14327(15) 0.8610(3) 0.90560(16)
C40_2 C 0.06936(15) 0.9260(3) 0.87378(16)
C41_2 C 0.02361(17) 0.9029(3) 0.79876(17)
H31_2 H 0.0393 0.8470 0.7672
O28_2 O 0.30529(12) 0.45932(18) 0.88941(13)
C58_2 C 0.30257(17) 0.3979(3) 0.83116(19)
H46_2 H 0.2643 0.4162 0.7843
N4_2 N 0.34941(15) 0.3090(2) 0.83030(17)
C59_2 C 0.40901(19) 0.2738(3) 0.9001(2)
H47_2 H 0.3928 0.2895 0.9455
H48_2 H 0.4198 0.1874 0.8976
H49_2 H 0.4544 0.3208 0.9040
C60_2 C 0.3475(2) 0.2486(3) 0.7582(2)
H50_2 H 0.3929 0.2689 0.7450
H51_2 H 0.3450 0.1609 0.7647
H52_2 H 0.3031 0.2755 0.7166
O31 O 0.33838(10) 0.69656(18) 0.83034(12)
O38 O 0.32676(12) 0.8249(2) 0.95352(14)
O1_2 O 0.82598(11) 0.1378(2) 0.02254(12)
O2_2 O 0.83086(11) 0.19331(19) 0.14150(12)
C1_2 C 0.85673(15) 0.1390(3) 0.09440(16)
C2_2 C 0.93064(15) 0.0740(3) 0.12622(16)
C3_2 C 0.97639(17) 0.0971(3) 0.20124(17)
H1_2 H 0.9607 0.1530 0.2328
O10_2 O 0.83788(11) 0.41546(19) 0.05998(12)
C17_2 C 0.85755(15) 0.4007(2) 0.00041(16)
C18_2 C 0.93196(14) 0.4513(2) 0.00071(16)
C19_2 C 0.97349(15) 0.5237(2) 0.06176(16)
H9_2 H 0.9552 0.5394 0.1040
O12_2 O 0.67324(12) 0.1751(2) 0.04648(14)
C24_2 C 0.53822(15) 0.0835(2) 0.05532(16)
H12_2 H 0.5645 0.1400 0.0934
O14_2 O 0.69471(12) 0.54068(18) 0.11059(13)
C28_2 C 0.69743(17) 0.6021(3) 0.16884(19)
H20_2 H 0.7357 0.5838 0.2157
N2_2 N 0.65059(15) 0.6910(2) 0.16970(17)
C29_2 C 0.59099(19) 0.7262(3) 0.0999(2)
H21_2 H 0.6072 0.7105 0.0545
H22_2 H 0.5802 0.8126 0.1024
H23_2 H 0.5456 0.6792 0.0960
C30_2 C 0.6525(2) 0.7514(3) 0.2418(2)
H24_2 H 0.6071 0.7311 0.2550
H25_2 H 0.6550 0.8391 0.2353
H26_2 H 0.6969 0.7245 0.2834
C37_2 C 0.47076(15) 0.0348(2) 0.05840(16)
H29_2 H 0.4507 0.0593 0.0980
O5_2 O 0.66696(11) 0.32411(19) 0.85938(14)
O6_2 O 0.67772(12) 0.3935(2) 0.97687(13)
C9_2 C 0.64638(15) 0.3897(3) 0.90512(17)
C10_2 C 0.57751(15) 0.4657(3) 0.87257(16)
C11_2 C 0.54915(16) 0.5320(3) 0.92154(17)
H5_2 H 0.5767 0.5374 0.9749
C12_2 C 0.48047(15) 0.5909(3) 0.89317(16)
H6_2 H 0.4611 0.6361 0.9271
C13_2 C 0.44034(15) 0.5833(3) 0.81511(16)
C14_2 C 0.47058(16) 0.5217(3) 0.76524(17)
H7_2 H 0.4443 0.5203 0.7114
C15_2 C 0.53882(16) 0.4622(3) 0.79347(17)
H8_2 H 0.5591 0.4194 0.7593
C16_2 C 0.36227(14) 0.6347(2) 0.78477(16)
O9_2 O 0.81994(11) 0.34718(18) 0.93928(12)
C20_2 C 0.95862(15) 0.4272(2) 0.93895(16)
H10_2 H 0.9305 0.3774 0.8975
O11_2 O 0.65994(11) 0.08373(19) 0.93451(12)
C21_2 C 0.63964(14) 0.1067(2) 0.99240(17)
C22_2 C 0.56756(14) 0.0496(2) 0.99644(16)
C43_2 C 0.93231(14) 0.0449(2) 0.81596(16)
C44_2 C 0.97810(15) 0.0673(3) 0.89121(17)
H33_2 H 0.9628 0.1236 0.9228
C46_2 C 0.85737(14) 0.1075(2) 0.78430(16)
O22_2 O 0.83851(10) 0.17876(17) 0.82956(11)
C7_2 C 0.95382(15) 0.9930(3) 0.08001(17)
H4_2 H 0.9230 0.9787 0.0285
H18_2 H 0.8059 0.6578 0.0259
C35_2 C 0.36036(14) 0.8933(2) 0.00760(17)
C36_2 C 0.43244(14) 0.9504(2) 0.00356(16)
C23_2 C 0.52924(15) 0.9652(2) 0.94160(16)
H11_2 H 0.5493 0.9407 0.9020
O13_2 O 0.79012(12) 0.96864(18) 0.89779(13)
C25_2 C 0.76693(18) 0.8807(3) 0.92536(19)
H13_2 H 0.7208 0.8888 0.9364
N1_2 N 0.80232(18) 0.7759(2) 0.94051(18)
C26_2 C 0.8750(2) 0.7588(3) 0.9302(2)
H14_2 H 0.8848 0.8248 0.8986
H15_2 H 0.8758 0.6815 0.9041
H16_2 H 0.9139 0.7585 0.9807
C27_2 C 0.7720(3) 0.6755(4) 0.9741(3)
H17_2 H 0.7224 0.6977 0.9774
H19_2 H 0.7673 0.6037 0.9413
C38_2 C 0.46178(15) 0.9165(2) 0.94468(16)
H30_2 H 0.4355 0.8600 0.9066
C42_2 C 0.95487(16) 0.9618(3) 0.76995(17)
H32_2 H 0.9233 0.9454 0.7190
loop_
_geom_bond_atom_site_label_1
_geom_bond_atom_site_label_2
_geom_bond_site_symmetry_1
_geom_bond_site_symmetry_2
H5 C11 1_555 1_555
C12 C11 1_555 1_555
H6 C12 1_555 1_555
C13 C12 1_555 1_555
C14 C13 1_555 1_555
H7 C14 1_555 1_555
C16 C13 1_555 1_555
O7 C16 1_555 1_555
O8 C16 1_555 1_555
H9 C19 1_555 1_555
C28 O14 1_555 1_555
H20 C28 1_555 1_555
N2 C28 1_555 1_555
C29 N2 1_555 1_555
H21 C29 1_555 1_555
H22 C29 1_555 1_555
H23 C29 1_555 1_555
C30 N2 1_555 1_555
H24 C30 1_555 1_555
H25 C30 1_555 1_555
H26 C30 1_555 1_555
Ho5 O8 1_555 1_555
Ho13 O7 1_555 1_555
Ho1 O1 1_555 1_555
Ho2 O2 1_555 1_555
O1 C1 1_555 1_555
O2 C1 1_555 1_555
C1 C2 1_555 1_555
C2 C3 1_555 1_555
C3 H1 1_555 1_555
C7 C2 1_555 1_555
H4 C7 1_555 1_555
O5 Ho1 1_555 1_555
O6 Ho2 1_555 1_555
C9 O5 1_555 1_555
C10 C9 1_555 1_555
C15 C10 1_555 1_555
H8 C15 1_555 1_555
O9 Ho1 1_555 1_555
O10 Ho2 1_555 1_555
C17 O9 1_555 1_555
C18 C17 1_555 1_555
C20 C18 1_555 1_555
H10 C20 1_555 1_555
O11 Ho1 1_555 1_555
O12 Ho2 1_555 1_555
C21 O11 1_555 1_555
C22 C21 1_555 1_555
C23 C22 1_555 1_555
H11 C23 1_555 1_555
C24 C22 1_555 1_555
H12 C24 1_555 1_555
O13 Ho1 1_555 1_555
C25 O13 1_555 1_555
H13 C25 1_555 1_555
N1 C25 1_555 1_555
C26 N1 1_555 1_555
H14 C26 1_555 1_555
H15 C26 1_555 1_555
H16 C26 1_555 1_555
C27 N1 1_555 1_555
H17 C27 1_555 1_555
H18 C27 1_555 1_555
H19 C27 1_555 1_555
O17 C35 1_555 1_555
O18 C35 1_555 1_555
C35 C36 1_555 1_555
C36 C37 1_555 1_555
C37 C24 1_555 1_555
H29 C37 1_555 1_555
C38 C23 1_555 1_555
H30 C38 1_555 1_555
H32 C42 1_555 1_555
C43 C42 1_555 1_555
C44 C43 1_555 1_555
H33 C44 1_555 1_555
C46 C43 1_555 1_555
O21 C46 1_555 1_555
O22 Ho1 1_555 1_555
Ho7 O17 1_555 1_555
Ho13 O18 1_555 1_555
Ho14 O21 1_555 1_555
O29 Ho2 1_555 1_555
O32 Ho2 1_555 1_555
O33 Ho1 1_555 1_555
O6 C9 1_555 1_555
O10 C17 1_555 1_555
O12 C21 1_555 1_555
C36 C38 1_555 1_555
C46 O22 1_555 1_555
O15 C31 1_555 1_555
O16 C31 1_555 1_555
C31 C32 1_555 1_555
H28 C34 1_555 1_555
Ho7 O15 1_555 1_555
Ho13 O16 1_555 1_555
C32 C34 1_555 1_555
H2 C4 1_555 1_555
C5 C4 1_555 1_555
C6 C5 1_555 1_555
H3 C6 1_555 1_555
C8 C5 1_555 1_555
O3 C8 1_555 1_555
O4 C8 1_555 1_555
H27 C33 1_555 1_555
Ho7 O4 1_555 1_555
Ho13 O20 1_555 1_555
O19 Ho7 1_555 1_555
O20 C39 1_555 1_555
C39 O19 1_555 1_555
C40 C39 1_555 1_555
C41 C40 1_555 1_555
H31 C41 1_555 1_555
C45 C40 1_555 1_555
H34 C45 1_555 1_555
O23 Ho7 1_555 1_555
O24 Ho13 1_555 1_555
C47 O23 1_555 1_555
C48 C47 1_555 1_555
C53 C48 1_555 1_555
H38 C53 1_555 1_555
O27 Ho7 1_555 1_555
C55 O27 1_555 1_555
H39 C55 1_555 1_555
N3 C55 1_555 1_555
C56 N3 1_555 1_555
H40 C56 1_555 1_555
H41 C56 1_555 1_555
H42 C56 1_555 1_555
C57 N3 1_555 1_555
H43 C57 1_555 1_555
H44 C57 1_555 1_555
H45 C57 1_555 1_555
Ho10 O3 1_555 1_555
O30 Ho13 1_555 1_555
O34 Ho7 1_555 1_555
O24 C47 1_555 1_555
H35 C49 1_555 1_555
C50 C49 1_555 1_555
H36 C50 1_555 1_555
C51 C50 1_555 1_555
C52 C51 1_555 1_555
H37 C52 1_555 1_555
C54 C51 1_555 1_555
O32 C54 1_555 1_555
O26 C54 1_555 1_555
C58 O28 1_555 1_555
H46 C58 1_555 1_555
N4 C58 1_555 1_555
C59 N4 1_555 1_555
H47 C59 1_555 1_555
H48 C59 1_555 1_555
H49 C59 1_555 1_555
C60 N4 1_555 1_555
H50 C60 1_555 1_555
H51 C60 1_555 1_555
H52 C60 1_555 1_555
Ho8 O26 1_555 1_555
H2_2 C4_2 1_555 1_555
H28_2 C34_2 1_555 1_555
C55_2 O27_2 1_555 1_555
H39_2 C55_2 1_555 1_555
N3_2 C55_2 1_555 1_555
C56_2 N3_2 1_555 1_555
H40_2 C56_2 1_555 1_555
H41_2 C56_2 1_555 1_555
H42_2 C56_2 1_555 1_555
C57_2 N3_2 1_555 1_555
H43_2 C57_2 1_555 1_555
H45_2 C57_2 1_555 1_555
Ho8 O15_2 1_555 1_555
O16_2 C31_2 1_555 1_555
C31_2 C32_2 1_555 1_555
C32_2 C33_2 1_555 1_555
H27_2 C33_2 1_555 1_555
H34_2 C45_2 1_555 1_555
Ho14 O16_2 1_555 1_555
C6_2 C5_2 1_555 1_555
H3_2 C6_2 1_555 1_555
C8_2 C5_2 1_555 1_555
O29 C8_2 1_555 1_555
O4_2 C8_2 1_555 1_555
Ho8 O4_2 1_555 1_555
O23_2 Ho8 1_555 1_555
C47_2 O23_2 1_555 1_555
C48_2 C47_2 1_555 1_555
C49_2 C48_2 1_555 1_555
H35_2 C49_2 1_555 1_555
C50_2 C49_2 1_555 1_555
H36_2 C50_2 1_555 1_555
C51_2 C50_2 1_555 1_555
C52_2 C51_2 1_555 1_555
H37_2 C52_2 1_555 1_555
C53_2 C48_2 1_555 1_555
H38_2 C53_2 1_555 1_555
C54_2 C51_2 1_555 1_555
O25 C54_2 1_555 1_555
O34 C54_2 1_555 1_555
Ho10 O25 1_555 1_555
O37 Ho8 1_555 1_555
O24_2 C47_2 1_555 1_555
C52_2 C53_2 1_555 1_555
Ho14 O20_2 1_555 1_555
O20_2 C39_2 1_555 1_555
C39_2 O19_2 1_555 1_555
C40_2 C39_2 1_555 1_555
C41_2 C40_2 1_555 1_555
H31_2 C41_2 1_555 1_555
O28_2 Ho14 1_555 1_555
C58_2 O28_2 1_555 1_555
H46_2 C58_2 1_555 1_555
N4_2 C58_2 1_555 1_555
C59_2 N4_2 1_555 1_555
H47_2 C59_2 1_555 1_555
H48_2 C59_2 1_555 1_555
H49_2 C59_2 1_555 1_555
C60_2 N4_2 1_555 1_555
H50_2 C60_2 1_555 1_555
H51_2 C60_2 1_555 1_555
H52_2 C60_2 1_555 1_555
O31 Ho14 1_555 1_555
O38 Ho14 1_555 1_555
Ho10 O2_2 1_555 1_555
O1_2 C1_2 1_555 1_555
O2_2 C1_2 1_555 1_555
C1_2 C2_2 1_555 1_555
C2_2 C3_2 1_555 1_555
C3_2 H1_2 1_555 1_555
O10_2 Ho10 1_555 1_555
C18_2 C17_2 1_555 1_555
C19_2 C18_2 1_555 1_555
H9_2 C19_2 1_555 1_555
O12_2 Ho10 1_555 1_555
H12_2 C24_2 1_555 1_555
O14_2 Ho10 1_555 1_555
C28_2 O14_2 1_555 1_555
H20_2 C28_2 1_555 1_555
N2_2 C28_2 1_555 1_555
C29_2 N2_2 1_555 1_555
H21_2 C29_2 1_555 1_555
H22_2 C29_2 1_555 1_555
H23_2 C29_2 1_555 1_555
C30_2 N2_2 1_555 1_555
H24_2 C30_2 1_555 1_555
H25_2 C30_2 1_555 1_555
H26_2 C30_2 1_555 1_555
C37_2 C24_2 1_555 1_555
H29_2 C37_2 1_555 1_555
O10_2 C17_2 1_555 1_555
O5_2 Ho5 1_555 1_555
C9_2 O5_2 1_555 1_555
C10_2 C9_2 1_555 1_555
C11_2 C10_2 1_555 1_555
H5_2 C11_2 1_555 1_555
C12_2 C11_2 1_555 1_555
H6_2 C12_2 1_555 1_555
C13_2 C12_2 1_555 1_555
C14_2 C13_2 1_555 1_555
H7_2 C14_2 1_555 1_555
C15_2 C10_2 1_555 1_555
H8_2 C15_2 1_555 1_555
C16_2 C13_2 1_555 1_555
O31 C16_2 1_555 1_555
O33 C16_2 1_555 1_555
O9_2 Ho5 1_555 1_555
H10_2 C20_2 1_555 1_555
O11_2 Ho5 1_555 1_555
C21_2 O11_2 1_555 1_555
C22_2 C21_2 1_555 1_555
C44_2 C43_2 1_555 1_555
H33_2 C44_2 1_555 1_555
C46_2 C43_2 1_555 1_555
O30 C46_2 1_555 1_555
O22_2 Ho5 1_555 1_555
O6_2 C9_2 1_555 1_555
C14_2 C15_2 1_555 1_555
C46_2 O22_2 1_555 1_555
H4_2 C7_2 1_555 1_555
O37 C35_2 1_555 1_555
C35_2 C36_2 1_555 1_555
H11_2 C23_2 1_555 1_555
C25_2 O13_2 1_555 1_555
H13_2 C25_2 1_555 1_555
N1_2 C25_2 1_555 1_555
C26_2 N1_2 1_555 1_555
H14_2 C26_2 1_555 1_555
H15_2 C26_2 1_555 1_555
H16_2 C26_2 1_555 1_555
C27_2 N1_2 1_555 1_555
H17_2 C27_2 1_555 1_555
H19_2 C27_2 1_555 1_555
C38_2 C23_2 1_555 1_555
H30_2 C38_2 1_555 1_555
H32_2 C42_2 1_555 1_555

#END
