
###############################################################################
#
# This file contains modified crystal structure data generated from the
# MOF subset of the Cambridge Structural Database (CSD) v543 
# hosted by the Cambridge Crystallographic Data Centre (CCDC).
#
# This work is licensed under the Creative Commons
# Attribution-NonCommercial-ShareAlike 4.0 International License.
# To view a copy of this license, visit
# http://creativecommons.org/licenses/by-nc-sa/4.0/
# or send a letter to
# Creative Commons, PO Box 1866, Mountain View, CA 94042, USA.
#
# CIF created using the CSD Python API on 29 September 2022
# The structure has been converted into the P1 space group
# The structure has a 3D framework
# The original CSD entry AXEQUS is in the monoclinic crystal system
# The framework has been calculated to contain at least 10.0% void space
# The void calculation uses a probe of radius 1.32A, grid spacing 0.4
#
###############################################################################

data_AXEQUS
_chemical_formula_moiety         '(C88 H24 N48 O16 Pb6)n'
_symmetry_cell_setting           triclinic
_symmetry_space_group_name_H-M   'P 1'
_symmetry_Int_Tables_number      1
_space_group_name_Hall           'P 1'
loop_
_symmetry_equiv_pos_site_id
_symmetry_equiv_pos_as_xyz
1 x,y,z
_cell_length_a                   15.0906(6)
_cell_length_b                   10.7420(3)
_cell_length_c                   20.5344(6)
_cell_angle_alpha                90
_cell_angle_beta                 110.834(4)
_cell_angle_gamma                90
_cell_volume                     3111.05
loop_
_atom_site_label
_atom_site_type_symbol
_atom_site_fract_x
_atom_site_fract_y
_atom_site_fract_z
C12 C 0.1720(3) 0.2185(3) 0.15318(19)
H4 H 0.106852 0.245733 0.127751
H5 H 0.214362 0.290813 0.163911
H6 H 0.175184 0.177649 0.196626
N7 N 0.2017(2) 0.1299(2) 0.10983(14)
O3 O 0.2595(2) 0.1634(2) 0.08393(13)
O4 O 0.16679(19) 0.0263(2) 0.10119(13)
Pb3 Pb 0.750000 0.05365(2) 0.000000
N13 N 0.4284(2) 0.0362(3) 0.05291(17)
C1 C 0.3280(3) 0.2185(3) 0.84682(19)
H1 H 0.393148 0.245733 0.872249
H2 H 0.285638 0.290813 0.836089
H3 H 0.324816 0.177649 0.803374
N1 N 0.2983(2) 0.1299(2) 0.89017(14)
O1 O 0.2405(2) 0.1634(2) 0.91607(13)
O2 O 0.33321(19) 0.0263(2) 0.89881(13)
Pb3_2 Pb 0.750000 0.05365(2) 1.000000
N14 N 0.0716(2) 0.0362(3) 0.94709(17)
Pb1 Pb 0.250000 0.94635(2) 0.000000
C13 C 0.1091(2) 0.7374(3) 0.12973(15)
C14 C 0.0374(2) 0.8096(3) 0.14000(16)
C15 C 0.0364(2) 0.7834(3) 0.20640(16)
C16 C 0.1076(2) 0.6959(3) 0.23775(15)
C17 C 0.1527(2) 0.6657(3) 0.19043(15)
C18 C 0.1340(2) 0.7434(3) 0.06915(16)
C21 C 0.1350(2) 0.6546(3) 0.30784(16)
C22 C 0.2295(3) 0.5803(3) 0.20235(16)
N8 N 0.1530(2) 0.7542(2) 0.02024(14)
N11 N 0.1586(2) 0.6264(2) 0.36519(14)
N12 N 0.2911(2) 0.5125(3) 0.21245(16)
Pb5 Pb 0.250000 0.55365(2) 0.500000
N16 N 0.3414(2) 0.8736(2) 0.13481(14)
Pb1_2 Pb 0.250000 0.94635(2) 1.000000
C2 C 0.3909(2) 0.7374(3) 0.87027(15)
C3 C 0.4626(2) 0.8096(3) 0.86000(16)
C4 C 0.4636(2) 0.7834(3) 0.79360(16)
C5 C 0.3924(2) 0.6959(3) 0.76225(15)
C6 C 0.3473(2) 0.6657(3) 0.80957(15)
C7 C 0.3660(2) 0.7434(3) 0.93085(16)
C8 C 0.5233(2) 0.8948(3) 0.90830(17)
C9 C 0.5255(3) 0.8379(3) 0.76265(16)
C10 C 0.3650(2) 0.6546(3) 0.69216(16)
C11 C 0.2705(3) 0.5803(3) 0.79765(16)
N2 N 0.3470(2) 0.7542(2) 0.97976(14)
N3 N 0.5716(2) 0.9638(3) 0.94709(17)
N4 N 0.5758(2) 0.8798(3) 0.73783(16)
N5 N 0.3414(2) 0.6264(2) 0.63481(14)
N6 N 0.2089(2) 0.5125(3) 0.78755(16)
N15 N 0.1586(2) 0.8736(2) 0.86519(14)
C19 C 0.9767(2) 0.8948(3) 0.09170(17)
C20 C 0.9745(3) 0.8379(3) 0.23735(16)
N9 N 0.9284(2) 0.9638(3) 0.05291(17)
N10 N 0.9242(2) 0.8798(3) 0.26217(16)
C8_2 C 0.0233(2) 0.3948(3) 0.40830(17)
C9_2 C 0.0255(3) 0.3379(3) 0.26265(16)
N3_2 N 0.0716(2) 0.4638(3) 0.44709(17)
N4_2 N 0.0758(2) 0.3798(3) 0.23783(16)
Pb1_3 Pb 0.750000 0.44635(2) 0.500000
C1_2 C 0.8280(3) 0.7185(3) 0.34682(19)
H1_2 H 0.893148 0.745733 0.372249
H2_2 H 0.785638 0.790813 0.336089
H3_2 H 0.824816 0.677649 0.303374
N1_2 N 0.7983(2) 0.6299(2) 0.39017(14)
O1_2 O 0.7405(2) 0.6634(2) 0.41607(13)
O2_2 O 0.83321(19) 0.5263(2) 0.39881(13)
C2_2 C 0.8909(2) 0.2374(3) 0.37027(15)
C3_2 C 0.9626(2) 0.3096(3) 0.36000(16)
C4_2 C 0.9636(2) 0.2834(3) 0.29360(16)
C5_2 C 0.8924(2) 0.1959(3) 0.26225(15)
C6_2 C 0.8473(2) 0.1657(3) 0.30957(15)
C7_2 C 0.8660(2) 0.2434(3) 0.43085(16)
C10_2 C 0.8650(2) 0.1546(3) 0.19216(16)
C11_2 C 0.7705(3) 0.0803(3) 0.29765(16)
N2_2 N 0.8470(2) 0.2542(2) 0.47976(14)
N5_2 N 0.8414(2) 0.1264(2) 0.13481(14)
N6_2 N 0.7089(2) 0.0125(3) 0.28755(16)
C12_2 C 0.6720(3) 0.7185(3) 0.65318(19)
H4_2 H 0.606852 0.745733 0.627751
H5_2 H 0.714362 0.790813 0.663911
H6_2 H 0.675184 0.677649 0.696626
N7_2 N 0.7017(2) 0.6299(2) 0.60983(14)
O3_2 O 0.7595(2) 0.6634(2) 0.58393(13)
O4_2 O 0.66679(19) 0.5263(2) 0.60119(13)
C13_2 C 0.6091(2) 0.2374(3) 0.62973(15)
C14_2 C 0.5374(2) 0.3096(3) 0.64000(16)
C15_2 C 0.5364(2) 0.2834(3) 0.70640(16)
C16_2 C 0.6076(2) 0.1959(3) 0.73775(15)
C17_2 C 0.6527(2) 0.1657(3) 0.69043(15)
C18_2 C 0.6340(2) 0.2434(3) 0.56915(16)
C19_2 C 0.4767(2) 0.3948(3) 0.59170(17)
C20_2 C 0.4745(3) 0.3379(3) 0.73735(16)
C21_2 C 0.6350(2) 0.1546(3) 0.80784(16)
C22_2 C 0.7295(3) 0.0803(3) 0.70235(16)
N8_2 N 0.6530(2) 0.2542(2) 0.52024(14)
N9_2 N 0.4284(2) 0.4638(3) 0.55291(17)
N10_2 N 0.4242(2) 0.3798(3) 0.76217(16)
N11_2 N 0.6586(2) 0.1264(2) 0.86519(14)
N12_2 N 0.7911(2) 0.0125(3) 0.71245(16)
N13_2 N 0.9284(2) 0.5362(3) 0.55291(17)
N14_2 N 0.5716(2) 0.5362(3) 0.44709(17)
N15_2 N 0.6586(2) 0.3736(2) 0.36519(14)
N16_2 N 0.8414(2) 0.3736(2) 0.63481(14)
C19_3 C 0.0233(2) 0.1052(3) 0.90830(17)
C20_3 C 0.0255(3) 0.1621(3) 0.76265(16)
N10_3 N 0.0758(2) 0.1202(3) 0.73783(16)
C2_3 C 0.6091(2) 0.2626(3) 0.12973(15)
C3_3 C 0.5374(2) 0.1904(3) 0.14000(16)
C4_3 C 0.5364(2) 0.2166(3) 0.20640(16)
C5_3 C 0.6076(2) 0.3041(3) 0.23775(15)
C6_3 C 0.6527(2) 0.3343(3) 0.19043(15)
C7_3 C 0.6340(2) 0.2566(3) 0.06915(16)
C8_3 C 0.4767(2) 0.1052(3) 0.09170(17)
C9_3 C 0.4745(3) 0.1621(3) 0.23735(16)
C10_3 C 0.6350(2) 0.3454(3) 0.30784(16)
C11_3 C 0.7295(3) 0.4197(3) 0.20235(16)
N2_3 N 0.6530(2) 0.2458(2) 0.02024(14)
N4_3 N 0.4242(2) 0.1202(3) 0.26217(16)
N6_3 N 0.7911(2) 0.4875(3) 0.21245(16)
C13_3 C 0.8909(2) 0.2626(3) 0.87027(15)
C14_3 C 0.9626(2) 0.1904(3) 0.86000(16)
C15_3 C 0.9636(2) 0.2166(3) 0.79360(16)
C16_3 C 0.8924(2) 0.3041(3) 0.76225(15)
C17_3 C 0.8473(2) 0.3343(3) 0.80957(15)
C18_3 C 0.8660(2) 0.2566(3) 0.93085(16)
C21_3 C 0.8650(2) 0.3454(3) 0.69216(16)
C22_3 C 0.7705(3) 0.4197(3) 0.79765(16)
N8_3 N 0.8470(2) 0.2458(2) 0.97976(14)
N12_3 N 0.7089(2) 0.4875(3) 0.78755(16)
C1_3 C 0.6720(3) 0.7815(3) 0.15318(19)
H1_3 H 0.606852 0.754267 0.127751
H2_3 H 0.714362 0.709187 0.163911
H3_3 H 0.675184 0.822351 0.196626
N1_3 N 0.7017(2) 0.8701(2) 0.10983(14)
O1_3 O 0.7595(2) 0.8366(2) 0.08393(13)
O2_3 O 0.66679(19) 0.9737(2) 0.10119(13)
C12_3 C 0.8280(3) 0.7815(3) 0.84682(19)
H4_3 H 0.893148 0.754267 0.872249
H5_3 H 0.785638 0.709187 0.836089
H6_3 H 0.824816 0.822351 0.803374
N7_3 N 0.7983(2) 0.8701(2) 0.89017(14)
O3_3 O 0.7405(2) 0.8366(2) 0.91607(13)
O4_3 O 0.83321(19) 0.9737(2) 0.89881(13)
C1_4 C 0.1720(3) 0.2815(3) 0.65318(19)
H1_4 H 0.106852 0.254267 0.627751
H2_4 H 0.214362 0.209187 0.663911
H3_4 H 0.175184 0.322351 0.696626
N1_4 N 0.2017(2) 0.3701(2) 0.60983(14)
O1_4 O 0.2595(2) 0.3366(2) 0.58393(13)
O2_4 O 0.16679(19) 0.4737(2) 0.60119(13)
C2_4 C 0.1091(2) 0.7626(3) 0.62973(15)
C3_4 C 0.0374(2) 0.6904(3) 0.64000(16)
C4_4 C 0.0364(2) 0.7166(3) 0.70640(16)
C5_4 C 0.1076(2) 0.8041(3) 0.73775(15)
C6_4 C 0.1527(2) 0.8343(3) 0.69043(15)
C7_4 C 0.1340(2) 0.7566(3) 0.56915(16)
C10_4 C 0.1350(2) 0.8454(3) 0.80784(16)
C11_4 C 0.2295(3) 0.9197(3) 0.70235(16)
N2_4 N 0.1530(2) 0.7458(2) 0.52024(14)
N6_4 N 0.2911(2) 0.9875(3) 0.71245(16)
C12_4 C 0.3280(3) 0.2815(3) 0.34682(19)
H4_4 H 0.393148 0.254267 0.372249
H5_4 H 0.285638 0.209187 0.336089
H6_4 H 0.324816 0.322351 0.303374
N7_4 N 0.2983(2) 0.3701(2) 0.39017(14)
O3_4 O 0.2405(2) 0.3366(2) 0.41607(13)
O4_4 O 0.33321(19) 0.4737(2) 0.39881(13)
C13_4 C 0.3909(2) 0.7626(3) 0.37027(15)
C14_4 C 0.4626(2) 0.6904(3) 0.36000(16)
C15_4 C 0.4636(2) 0.7166(3) 0.29360(16)
C16_4 C 0.3924(2) 0.8041(3) 0.26225(15)
C17_4 C 0.3473(2) 0.8343(3) 0.30957(15)
C18_4 C 0.3660(2) 0.7566(3) 0.43085(16)
C19_4 C 0.5233(2) 0.6052(3) 0.40830(17)
C20_4 C 0.5255(3) 0.6621(3) 0.26265(16)
C21_4 C 0.3650(2) 0.8454(3) 0.19216(16)
C22_4 C 0.2705(3) 0.9197(3) 0.29765(16)
N8_4 N 0.3470(2) 0.7458(2) 0.47976(14)
N10_4 N 0.5758(2) 0.6202(3) 0.23783(16)
N12_4 N 0.2089(2) 0.9875(3) 0.28755(16)
C8_4 C 0.9767(2) 0.6052(3) 0.59170(17)
C9_4 C 0.9745(3) 0.6621(3) 0.73735(16)
N4_4 N 0.9242(2) 0.6202(3) 0.76217(16)
loop_
_geom_bond_atom_site_label_1
_geom_bond_atom_site_label_2
_geom_bond_site_symmetry_1
_geom_bond_site_symmetry_2
C12 H4 1_555 1_555
H5 C12 1_555 1_555
H6 C12 1_555 1_555
N7 C12 1_555 1_555
N7 O3 1_555 1_555
N7 O4 1_555 1_555
C1 H1 1_555 1_555
H2 C1 1_555 1_555
H3 C1 1_555 1_555
N1 C1 1_555 1_555
O1 N1 1_555 1_555
N1 O2 1_555 1_555
C13 C14 1_555 1_555
C14 C15 1_555 1_555
C15 C16 1_555 1_555
C16 C17 1_555 1_555
C17 C13 1_555 1_555
C18 C13 1_555 1_555
C21 C16 1_555 1_555
C22 C17 1_555 1_555
N8 Pb1 1_555 1_555
N11 C21 1_555 1_555
N12 C22 1_555 1_555
Pb5 N11 1_555 1_555
N16 Pb1 1_555 1_555
C18 N8 1_555 1_555
C2 C3 1_555 1_555
C3 C4 1_555 1_555
C4 C5 1_555 1_555
C5 C6 1_555 1_555
C6 C2 1_555 1_555
C7 C2 1_555 1_555
C8 C3 1_555 1_555
C9 C4 1_555 1_555
C10 C5 1_555 1_555
C11 C6 1_555 1_555
N2 Pb1_2 1_555 1_555
N3 C8 1_555 1_555
N4 C9 1_555 1_555
N5 C10 1_555 1_555
N6 C11 1_555 1_555
Pb5 N5 1_555 1_555
N15 Pb1_2 1_555 1_555
C7 N2 1_555 1_555
N9 C19 1_555 1_555
N10 C20 1_555 1_555
N3_2 C8_2 1_555 1_555
N4_2 C9_2 1_555 1_555
Pb5 N3_2 1_555 1_555
Pb1_3 O1_2 1_555 1_555
C1_2 H1_2 1_555 1_555
H2_2 C1_2 1_555 1_555
H3_2 C1_2 1_555 1_555
N1_2 C1_2 1_555 1_555
O1_2 N1_2 1_555 1_555
O2_2 Pb1_3 1_555 1_555
C2_2 C3_2 1_555 1_555
C3_2 C4_2 1_555 1_555
C4_2 C5_2 1_555 1_555
C5_2 C6_2 1_555 1_555
C6_2 C2_2 1_555 1_555
C7_2 C2_2 1_555 1_555
C10_2 C5_2 1_555 1_555
C11_2 C6_2 1_555 1_555
N2_2 Pb1_3 1_555 1_555
N5_2 C10_2 1_555 1_555
N6_2 C11_2 1_555 1_555
C12_2 H4_2 1_555 1_555
H5_2 C12_2 1_555 1_555
H6_2 C12_2 1_555 1_555
N7_2 C12_2 1_555 1_555
O3_2 Pb1_3 1_555 1_555
O4_2 Pb1_3 1_555 1_555
C13_2 C14_2 1_555 1_555
C14_2 C15_2 1_555 1_555
C15_2 C16_2 1_555 1_555
C16_2 C17_2 1_555 1_555
C17_2 C13_2 1_555 1_555
C18_2 C13_2 1_555 1_555
C19_2 C14_2 1_555 1_555
C20_2 C15_2 1_555 1_555
C21_2 C16_2 1_555 1_555
C22_2 C17_2 1_555 1_555
N8_2 Pb1_3 1_555 1_555
N9_2 C19_2 1_555 1_555
N10_2 C20_2 1_555 1_555
N11_2 C21_2 1_555 1_555
N12_2 C22_2 1_555 1_555
Pb5 N9_2 1_555 1_555
Pb3 N5_2 1_555 1_555
Pb3_2 N11_2 1_555 1_555
N13_2 Pb1_3 1_555 1_555
N14_2 Pb1_3 1_555 1_555
N15_2 Pb1_3 1_555 1_555
N16_2 Pb1_3 1_555 1_555
N1_2 O2_2 1_555 1_555
C7_2 N2_2 1_555 1_555
N7_2 O3_2 1_555 1_555
N7_2 O4_2 1_555 1_555
C18_2 N8_2 1_555 1_555
N14 C19_3 1_555 1_555
N10_3 C20_3 1_555 1_555
C2_3 C3_3 1_555 1_555
C3_3 C4_3 1_555 1_555
C4_3 C5_3 1_555 1_555
C5_3 C6_3 1_555 1_555
C6_3 C2_3 1_555 1_555
C7_3 C2_3 1_555 1_555
C8_3 C3_3 1_555 1_555
C9_3 C4_3 1_555 1_555
C10_3 C5_3 1_555 1_555
C11_3 C6_3 1_555 1_555
N2_3 Pb3 1_555 1_555
N13 C8_3 1_555 1_555
N4_3 C9_3 1_555 1_555
N15_2 C10_3 1_555 1_555
N6_3 C11_3 1_555 1_555
C7_3 N2_3 1_555 1_555
C13_3 C14_3 1_555 1_555
C14_3 C15_3 1_555 1_555
C15_3 C16_3 1_555 1_555
C16_3 C17_3 1_555 1_555
C17_3 C13_3 1_555 1_555
C18_3 C13_3 1_555 1_555
C21_3 C16_3 1_555 1_555
C22_3 C17_3 1_555 1_555
N8_3 Pb3_2 1_555 1_555
N16_2 C21_3 1_555 1_555
N12_3 C22_3 1_555 1_555
C18_3 N8_3 1_555 1_555
C1_3 H1_3 1_555 1_555
H2_3 C1_3 1_555 1_555
H3_3 C1_3 1_555 1_555
N1_3 C1_3 1_555 1_555
O1_3 N1_3 1_555 1_555
N1_3 O2_3 1_555 1_555
C12_3 H4_3 1_555 1_555
H5_3 C12_3 1_555 1_555
H6_3 C12_3 1_555 1_555
N7_3 C12_3 1_555 1_555
N7_3 O3_3 1_555 1_555
N7_3 O4_3 1_555 1_555
Pb5 O1_4 1_555 1_555
C1_4 H1_4 1_555 1_555
H2_4 C1_4 1_555 1_555
H3_4 C1_4 1_555 1_555
N1_4 C1_4 1_555 1_555
O1_4 N1_4 1_555 1_555
O2_4 Pb5 1_555 1_555
C2_4 C3_4 1_555 1_555
C3_4 C4_4 1_555 1_555
C4_4 C5_4 1_555 1_555
C5_4 C6_4 1_555 1_555
C6_4 C2_4 1_555 1_555
C7_4 C2_4 1_555 1_555
C10_4 C5_4 1_555 1_555
C11_4 C6_4 1_555 1_555
N2_4 Pb5 1_555 1_555
N15 C10_4 1_555 1_555
N6_4 C11_4 1_555 1_555
C12_4 H4_4 1_555 1_555
H5_4 C12_4 1_555 1_555
H6_4 C12_4 1_555 1_555
N7_4 C12_4 1_555 1_555
O3_4 Pb5 1_555 1_555
O4_4 Pb5 1_555 1_555
C13_4 C14_4 1_555 1_555
C14_4 C15_4 1_555 1_555
C15_4 C16_4 1_555 1_555
C16_4 C17_4 1_555 1_555
C17_4 C13_4 1_555 1_555
C18_4 C13_4 1_555 1_555
C19_4 C14_4 1_555 1_555
C20_4 C15_4 1_555 1_555
C21_4 C16_4 1_555 1_555
C22_4 C17_4 1_555 1_555
N8_4 Pb5 1_555 1_555
N14_2 C19_4 1_555 1_555
N10_4 C20_4 1_555 1_555
N16 C21_4 1_555 1_555
N12_4 C22_4 1_555 1_555
N1_4 O2_4 1_555 1_555
C7_4 N2_4 1_555 1_555
N7_4 O3_4 1_555 1_555
N7_4 O4_4 1_555 1_555
C18_4 N8_4 1_555 1_555
N13_2 C8_4 1_555 1_555
N4_4 C9_4 1_555 1_555

#END
