
###############################################################################
#
# This file contains modified crystal structure data generated from the
# MOF subset of the Cambridge Structural Database (CSD) v543 
# hosted by the Cambridge Crystallographic Data Centre (CCDC).
#
# This work is licensed under the Creative Commons
# Attribution-NonCommercial-ShareAlike 4.0 International License.
# To view a copy of this license, visit
# http://creativecommons.org/licenses/by-nc-sa/4.0/
# or send a letter to
# Creative Commons, PO Box 1866, Mountain View, CA 94042, USA.
#
# CIF created using the CSD Python API on 29 September 2022
# The structure has been converted into the P1 space group
# The structure has a 3D framework
# The original CSD entry AXIPEE is in the monoclinic crystal system
# The framework has been calculated to contain at least 10.0% void space
# The void calculation uses a probe of radius 1.32A, grid spacing 0.4
#
###############################################################################

data_AXIPEE
_chemical_formula_moiety         '(C144 H80 Au12 Fe8 N64)n'
_symmetry_cell_setting           triclinic
_symmetry_space_group_name_H-M   'P 1'
_symmetry_Int_Tables_number      1
_space_group_name_Hall           'P 1'
loop_
_symmetry_equiv_pos_site_id
_symmetry_equiv_pos_as_xyz
1 x,y,z
_cell_length_a                   14.2256(2)
_cell_length_b                   14.4645(3)
_cell_length_c                   30.4429(5)
_cell_angle_alpha                90
_cell_angle_beta                 96.104(2)
_cell_angle_gamma                90
_cell_volume                     6228.61
loop_
_atom_site_label
_atom_site_type_symbol
_atom_site_fract_x
_atom_site_fract_y
_atom_site_fract_z
Au4 Au 0.049825(18) 0.731137(19) 0.544013(8)
C19 C 0.0477(5) 0.8655(5) 0.4441(2)
Fe1 Fe 0.69945(7) 0.51999(6) 0.45031(3)
Au1 Au 0.450175(18) 0.768863(19) 0.455987(8)
Au2 Au 0.956038(18) 0.763538(18) 0.447354(8)
C1 C 0.8589(5) 0.6657(5) 0.4504(2)
C2 C 0.5490(5) 0.6747(5) 0.4488(2)
C3 C 0.5477(5) 0.3655(5) 0.4441(2)
C4 C 0.8503(5) 0.3641(5) 0.4587(2)
N1 N 0.7998(4) 0.6116(4) 0.45203(18)
N2 N 0.6053(4) 0.6180(4) 0.44623(18)
N3 N 0.6012(4) 0.4261(4) 0.44576(18)
N4 N 0.7936(4) 0.4210(4) 0.45664(18)
N5 N 0.6980(4) 0.5156(4) 0.38451(19)
C5 C 0.7789(5) 0.5117(5) 0.3659(2)
H1 H 0.8368 0.5152 0.3845
C6 C 0.7824(5) 0.5027(5) 0.3210(2)
H2 H 0.8416 0.4993 0.3093
C7 C 0.6986(5) 0.4986(5) 0.2930(2)
C8 C 0.6147(5) 0.5057(6) 0.3119(2)
H3 H 0.5560 0.5047 0.2939
C9 C 0.6167(5) 0.5144(6) 0.3573(2)
H4 H 0.5585 0.5197 0.3698
C10 C 0.7013(5) 0.4853(6) 0.2447(2)
C11 C 0.7739(6) 0.4347(6) 0.2284(3)
H5 H 0.8231 0.4077 0.2477
N6 N 0.6302(5) 0.5161(5) 0.1742(2)
N7 N 0.6307(5) 0.5222(5) 0.2183(2)
C12 C 0.7715(6) 0.4255(6) 0.1838(3)
H6 H 0.8183 0.3906 0.1712
C13 C 0.6988(5) 0.4685(5) 0.1574(2)
C14 C 0.6962(5) 0.4688(5) 0.1085(2)
C15 C 0.6671(6) 0.5468(6) 0.0844(2)
H7 H 0.6445 0.5993 0.0988
C16 C 0.6711(6) 0.5479(6) 0.0393(2)
H8 H 0.6534 0.6030 0.0236
C17 C 0.7233(5) 0.3989(5) 0.0398(2)
H9 H 0.7408 0.3455 0.0244
C18 C 0.7247(5) 0.3937(5) 0.0854(2)
H10 H 0.7451 0.3387 0.1006
N8 N 0.6986(4) 0.4751(4) 0.01636(18)
Au3 Au 0.950175(18) 0.268863(19) 0.455987(8)
Au5 Au 0.456038(18) 0.263538(18) 0.447354(8)
Au6 Au 0.543962(18) 0.736462(18) 0.552646(8)
C20 C 0.3503(5) 0.8641(5) 0.4587(2)
N9 N 0.6986(4) 0.5249(4) 0.51636(18)
Fe2 Fe 0.69945(7) 0.48001(6) 0.95031(3)
Fe1_2 Fe 0.30055(7) 0.51999(6) 0.04969(3)
Au1_2 Au 0.549825(18) 0.768863(19) 0.044013(8)
Au2_2 Au 0.043962(18) 0.763538(18) 0.052646(8)
C1_2 C 0.1411(5) 0.6657(5) 0.0496(2)
C2_2 C 0.4510(5) 0.6747(5) 0.0512(2)
C3_2 C 0.4523(5) 0.3655(5) 0.0559(2)
C4_2 C 0.1497(5) 0.3641(5) 0.0413(2)
N1_2 N 0.2002(4) 0.6116(4) 0.04797(18)
N2_2 N 0.3947(4) 0.6180(4) 0.05377(18)
N3_2 N 0.3988(4) 0.4261(4) 0.05424(18)
N4_2 N 0.2064(4) 0.4210(4) 0.04336(18)
N5_2 N 0.3020(4) 0.5156(4) 0.11549(19)
C5_2 C 0.2211(5) 0.5117(5) 0.1341(2)
H1_2 H 0.1632 0.5152 0.1155
C6_2 C 0.2176(5) 0.5027(5) 0.1790(2)
H2_2 H 0.1584 0.4993 0.1907
C7_2 C 0.3014(5) 0.4986(5) 0.2070(2)
C8_2 C 0.3853(5) 0.5057(6) 0.1881(2)
H3_2 H 0.4440 0.5047 0.2061
C9_2 C 0.3833(5) 0.5144(6) 0.1427(2)
H4_2 H 0.4415 0.5197 0.1302
C10_2 C 0.2987(5) 0.4853(6) 0.2553(2)
C11_2 C 0.2261(6) 0.4347(6) 0.2716(3)
H5_2 H 0.1769 0.4077 0.2523
N6_2 N 0.3698(5) 0.5161(5) 0.3258(2)
N7_2 N 0.3693(5) 0.5222(5) 0.2817(2)
C12_2 C 0.2285(6) 0.4255(6) 0.3162(3)
H6_2 H 0.1817 0.3906 0.3288
C13_2 C 0.3012(5) 0.4685(5) 0.3426(2)
C14_2 C 0.3038(5) 0.4688(5) 0.3915(2)
C15_2 C 0.3329(6) 0.5468(6) 0.4156(2)
H7_2 H 0.3555 0.5993 0.4012
C16_2 C 0.3289(6) 0.5479(6) 0.4607(2)
H8_2 H 0.3466 0.6030 0.4764
C17_2 C 0.2767(5) 0.3989(5) 0.4602(2)
H9_2 H 0.2592 0.3455 0.4756
C18_2 C 0.2753(5) 0.3937(5) 0.4146(2)
H10_2 H 0.2549 0.3387 0.3994
N8_2 N 0.3014(4) 0.4751(4) 0.48364(18)
Fe2_2 Fe 0.30055(7) 0.48001(6) 0.54969(3)
Au3_2 Au 0.049825(18) 0.268863(19) 0.044013(8)
Au5_2 Au 0.543962(18) 0.263538(18) 0.052646(8)
C20_2 C 0.6497(5) 0.8641(5) 0.0413(2)
Au6_2 Au 0.456038(18) 0.736462(18) 0.947354(8)
N9_2 N 0.3014(4) 0.5249(4) 0.98364(18)
C19_2 C 0.9523(5) 0.8655(5) 0.0559(2)
Au4_2 Au 0.950175(18) 0.731137(19) 0.955987(8)
Fe1_3 Fe 0.19945(7) 0.01999(6) 0.45031(3)
C1_3 C 0.3589(5) 0.1657(5) 0.4504(2)
C2_3 C 0.0490(5) 0.1747(5) 0.4488(2)
N1_3 N 0.2998(4) 0.1116(4) 0.45203(18)
N2_3 N 0.1053(4) 0.1180(4) 0.44623(18)
N5_3 N 0.1980(4) 0.0156(4) 0.38451(19)
C5_3 C 0.2789(5) 0.0117(5) 0.3659(2)
H1_3 H 0.3368 0.0152 0.3845
C6_3 C 0.2824(5) 0.0027(5) 0.3210(2)
C8_3 C 0.1147(5) 0.0057(6) 0.3119(2)
H3_3 H 0.0560 0.0047 0.2939
C9_3 C 0.1167(5) 0.0144(6) 0.3573(2)
H4_3 H 0.0585 0.0197 0.3698
N6_3 N 0.1302(5) 0.0161(5) 0.1742(2)
N7_3 N 0.1307(5) 0.0222(5) 0.2183(2)
C15_3 C 0.1671(6) 0.0468(6) 0.0844(2)
H7_3 H 0.1445 0.0993 0.0988
C16_3 C 0.1711(6) 0.0479(6) 0.0393(2)
H8_3 H 0.1534 0.1030 0.0236
Au4_3 Au 0.549825(18) 0.231137(19) 0.544013(8)
Au6_3 Au 0.043962(18) 0.236462(18) 0.552646(8)
N9_3 N 0.1986(4) 0.0249(4) 0.51636(18)
N3_3 N 0.1012(4) 0.9261(4) 0.44576(18)
N4_3 N 0.2936(4) 0.9210(4) 0.45664(18)
H2_3 H 0.3416 0.9993 0.3093
C7_3 C 0.1986(5) 0.9986(5) 0.2930(2)
C10_3 C 0.2013(5) 0.9853(6) 0.2447(2)
C11_3 C 0.2739(6) 0.9347(6) 0.2284(3)
H5_3 H 0.3231 0.9077 0.2477
C12_3 C 0.2715(6) 0.9255(6) 0.1838(3)
H6_3 H 0.3183 0.8906 0.1712
C13_3 C 0.1988(5) 0.9685(5) 0.1574(2)
C14_3 C 0.1962(5) 0.9688(5) 0.1085(2)
C17_3 C 0.2233(5) 0.8989(5) 0.0398(2)
H9_3 H 0.2408 0.8455 0.0244
C18_3 C 0.2247(5) 0.8937(5) 0.0854(2)
H10_3 H 0.2451 0.8387 0.1006
N8_3 N 0.1986(4) 0.9751(4) 0.01636(18)
Fe2_3 Fe 0.19945(7) 0.98001(6) 0.95031(3)
Fe1_4 Fe 0.80055(7) 0.01999(6) 0.04969(3)
C1_4 C 0.6411(5) 0.1657(5) 0.0496(2)
C2_4 C 0.9510(5) 0.1747(5) 0.0512(2)
N1_4 N 0.7002(4) 0.1116(4) 0.04797(18)
N2_4 N 0.8947(4) 0.1180(4) 0.05377(18)
N5_4 N 0.8020(4) 0.0156(4) 0.11549(19)
C5_4 C 0.7211(5) 0.0117(5) 0.1341(2)
H1_4 H 0.6632 0.0152 0.1155
C6_4 C 0.7176(5) 0.0027(5) 0.1790(2)
C8_4 C 0.8853(5) 0.0057(6) 0.1881(2)
H3_4 H 0.9440 0.0047 0.2061
C9_4 C 0.8833(5) 0.0144(6) 0.1427(2)
H4_4 H 0.9415 0.0197 0.1302
N6_4 N 0.8698(5) 0.0161(5) 0.3258(2)
N7_4 N 0.8693(5) 0.0222(5) 0.2817(2)
C15_4 C 0.8329(6) 0.0468(6) 0.4156(2)
H7_4 H 0.8555 0.0993 0.4012
C16_4 C 0.8289(6) 0.0479(6) 0.4607(2)
H8_4 H 0.8466 0.1030 0.4764
Au4_4 Au 0.450175(18) 0.231137(19) 0.955987(8)
Au6_4 Au 0.956038(18) 0.236462(18) 0.947354(8)
N9_4 N 0.8014(4) 0.0249(4) 0.98364(18)
N3_4 N 0.8988(4) 0.9261(4) 0.05424(18)
N4_4 N 0.7064(4) 0.9210(4) 0.04336(18)
H2_4 H 0.6584 0.9993 0.1907
C7_4 C 0.8014(5) 0.9986(5) 0.2070(2)
C10_4 C 0.7987(5) 0.9853(6) 0.2553(2)
C11_4 C 0.7261(6) 0.9347(6) 0.2716(3)
H5_4 H 0.6769 0.9077 0.2523
C12_4 C 0.7285(6) 0.9255(6) 0.3162(3)
H6_4 H 0.6817 0.8906 0.3288
C13_4 C 0.8012(5) 0.9685(5) 0.3426(2)
C14_4 C 0.8038(5) 0.9688(5) 0.3915(2)
C17_4 C 0.7767(5) 0.8989(5) 0.4602(2)
H9_4 H 0.7592 0.8455 0.4756
C18_4 C 0.7753(5) 0.8937(5) 0.4146(2)
H10_4 H 0.7549 0.8387 0.3994
N8_4 N 0.8014(4) 0.9751(4) 0.48364(18)
Fe2_4 Fe 0.80055(7) 0.98001(6) 0.54969(3)
C1_5 C 0.1411(5) 0.3343(5) 0.5496(2)
C2_5 C 0.4510(5) 0.3253(5) 0.5512(2)
C3_3 C 0.4523(5) 0.6345(5) 0.5559(2)
C4_3 C 0.1497(5) 0.6359(5) 0.5413(2)
N1_5 N 0.2002(4) 0.3884(4) 0.54797(18)
N2_5 N 0.3947(4) 0.3820(4) 0.55377(18)
N3_5 N 0.3988(4) 0.5739(4) 0.55424(18)
N4_5 N 0.2064(4) 0.5790(4) 0.54336(18)
N5_5 N 0.3020(4) 0.4844(4) 0.61549(19)
C5_5 C 0.2211(5) 0.4883(5) 0.6341(2)
H1_5 H 0.1632 0.4848 0.6155
C6_5 C 0.2176(5) 0.4973(5) 0.6790(2)
H2_5 H 0.1584 0.5007 0.6907
C7_5 C 0.3014(5) 0.5014(5) 0.7070(2)
C8_5 C 0.3853(5) 0.4943(6) 0.6881(2)
H3_5 H 0.4440 0.4953 0.7061
C9_5 C 0.3833(5) 0.4856(6) 0.6427(2)
H4_5 H 0.4415 0.4803 0.6302
C10_5 C 0.2987(5) 0.5147(6) 0.7553(2)
C11_5 C 0.2261(6) 0.5653(6) 0.7716(3)
H5_5 H 0.1769 0.5923 0.7523
N6_5 N 0.3698(5) 0.4839(5) 0.8258(2)
N7_5 N 0.3693(5) 0.4778(5) 0.7817(2)
C12_5 C 0.2285(6) 0.5745(6) 0.8162(3)
H6_5 H 0.1817 0.6094 0.8288
C13_5 C 0.3012(5) 0.5315(5) 0.8426(2)
C14_5 C 0.3038(5) 0.5312(5) 0.8915(2)
C15_5 C 0.3329(6) 0.4532(6) 0.9156(2)
H7_5 H 0.3555 0.4007 0.9012
C16_5 C 0.3289(6) 0.4521(6) 0.9607(2)
H8_5 H 0.3466 0.3970 0.9764
C17_5 C 0.2767(5) 0.6011(5) 0.9602(2)
H9_5 H 0.2592 0.6545 0.9756
C18_5 C 0.2753(5) 0.6063(5) 0.9146(2)
H10_5 H 0.2549 0.6613 0.8994
C20_3 C 0.6497(5) 0.1359(5) 0.5413(2)
C19_3 C 0.9523(5) 0.1345(5) 0.5559(2)
C19_4 C 0.0477(5) 0.1345(5) 0.9441(2)
C1_6 C 0.8589(5) 0.3343(5) 0.9504(2)
C2_6 C 0.5490(5) 0.3253(5) 0.9488(2)
C3_4 C 0.5477(5) 0.6345(5) 0.9441(2)
C4_4 C 0.8503(5) 0.6359(5) 0.9587(2)
N1_6 N 0.7998(4) 0.3884(4) 0.95203(18)
N2_6 N 0.6053(4) 0.3820(4) 0.94623(18)
N3_6 N 0.6012(4) 0.5739(4) 0.94576(18)
N4_6 N 0.7936(4) 0.5790(4) 0.95664(18)
N5_6 N 0.6980(4) 0.4844(4) 0.88451(19)
C5_6 C 0.7789(5) 0.4883(5) 0.8659(2)
H1_6 H 0.8368 0.4848 0.8845
C6_6 C 0.7824(5) 0.4973(5) 0.8210(2)
H2_6 H 0.8416 0.5007 0.8093
C7_6 C 0.6986(5) 0.5014(5) 0.7930(2)
C8_6 C 0.6147(5) 0.4943(6) 0.8119(2)
H3_6 H 0.5560 0.4953 0.7939
C9_6 C 0.6167(5) 0.4856(6) 0.8573(2)
H4_6 H 0.5585 0.4803 0.8698
C10_6 C 0.7013(5) 0.5147(6) 0.7447(2)
C11_6 C 0.7739(6) 0.5653(6) 0.7284(3)
H5_6 H 0.8231 0.5923 0.7477
N6_6 N 0.6302(5) 0.4839(5) 0.6742(2)
N7_6 N 0.6307(5) 0.4778(5) 0.7183(2)
C12_6 C 0.7715(6) 0.5745(6) 0.6838(3)
H6_6 H 0.8183 0.6094 0.6712
C13_6 C 0.6988(5) 0.5315(5) 0.6574(2)
C14_6 C 0.6962(5) 0.5312(5) 0.6085(2)
C15_6 C 0.6671(6) 0.4532(6) 0.5844(2)
H7_6 H 0.6445 0.4007 0.5988
C16_6 C 0.6711(6) 0.4521(6) 0.5393(2)
H8_6 H 0.6534 0.3970 0.5236
C17_6 C 0.7233(5) 0.6011(5) 0.5398(2)
H9_6 H 0.7408 0.6545 0.5244
C18_6 C 0.7247(5) 0.6063(5) 0.5854(2)
H10_6 H 0.7451 0.6613 0.6006
C20_4 C 0.3503(5) 0.1359(5) 0.9587(2)
N3_7 N 0.8988(4) 0.0739(4) 0.55424(18)
N4_7 N 0.7064(4) 0.0790(4) 0.54336(18)
H2_7 H 0.6584 0.0007 0.6907
C7_7 C 0.8014(5) 0.0014(5) 0.7070(2)
C10_7 C 0.7987(5) 0.0147(6) 0.7553(2)
C11_7 C 0.7261(6) 0.0653(6) 0.7716(3)
H5_7 H 0.6769 0.0923 0.7523
C12_7 C 0.7285(6) 0.0745(6) 0.8162(3)
H6_7 H 0.6817 0.1094 0.8288
C13_7 C 0.8012(5) 0.0315(5) 0.8426(2)
C14_7 C 0.8038(5) 0.0312(5) 0.8915(2)
C17_7 C 0.7767(5) 0.1011(5) 0.9602(2)
H9_7 H 0.7592 0.1545 0.9756
C18_7 C 0.7753(5) 0.1063(5) 0.9146(2)
H10_7 H 0.7549 0.1613 0.8994
C1_7 C 0.6411(5) 0.8343(5) 0.5496(2)
C2_7 C 0.9510(5) 0.8253(5) 0.5512(2)
N1_7 N 0.7002(4) 0.8884(4) 0.54797(18)
N2_7 N 0.8947(4) 0.8820(4) 0.55377(18)
N5_7 N 0.8020(4) 0.9844(4) 0.61549(19)
C5_7 C 0.7211(5) 0.9883(5) 0.6341(2)
H1_7 H 0.6632 0.9848 0.6155
C6_7 C 0.7176(5) 0.9973(5) 0.6790(2)
C8_7 C 0.8853(5) 0.9943(6) 0.6881(2)
H3_7 H 0.9440 0.9953 0.7061
C9_7 C 0.8833(5) 0.9856(6) 0.6427(2)
H4_7 H 0.9415 0.9803 0.6302
N6_7 N 0.8698(5) 0.9839(5) 0.8258(2)
N7_7 N 0.8693(5) 0.9778(5) 0.7817(2)
C15_7 C 0.8329(6) 0.9532(6) 0.9156(2)
H7_7 H 0.8555 0.9007 0.9012
C16_7 C 0.8289(6) 0.9521(6) 0.9607(2)
H8_7 H 0.8466 0.8970 0.9764
N3_8 N 0.1012(4) 0.0739(4) 0.94576(18)
N4_8 N 0.2936(4) 0.0790(4) 0.95664(18)
H2_8 H 0.3416 0.0007 0.8093
C7_8 C 0.1986(5) 0.0014(5) 0.7930(2)
C10_8 C 0.2013(5) 0.0147(6) 0.7447(2)
C11_8 C 0.2739(6) 0.0653(6) 0.7284(3)
H5_8 H 0.3231 0.0923 0.7477
C12_8 C 0.2715(6) 0.0745(6) 0.6838(3)
H6_8 H 0.3183 0.1094 0.6712
C13_8 C 0.1988(5) 0.0315(5) 0.6574(2)
C14_8 C 0.1962(5) 0.0312(5) 0.6085(2)
C17_8 C 0.2233(5) 0.1011(5) 0.5398(2)
H9_8 H 0.2408 0.1545 0.5244
C18_8 C 0.2247(5) 0.1063(5) 0.5854(2)
H10_8 H 0.2451 0.1613 0.6006
C1_8 C 0.3589(5) 0.8343(5) 0.9504(2)
C2_8 C 0.0490(5) 0.8253(5) 0.9488(2)
N1_8 N 0.2998(4) 0.8884(4) 0.95203(18)
N2_8 N 0.1053(4) 0.8820(4) 0.94623(18)
N5_8 N 0.1980(4) 0.9844(4) 0.88451(19)
C5_8 C 0.2789(5) 0.9883(5) 0.8659(2)
H1_8 H 0.3368 0.9848 0.8845
C6_8 C 0.2824(5) 0.9973(5) 0.8210(2)
C8_8 C 0.1147(5) 0.9943(6) 0.8119(2)
H3_8 H 0.0560 0.9953 0.7939
C9_8 C 0.1167(5) 0.9856(6) 0.8573(2)
H4_8 H 0.0585 0.9803 0.8698
N6_8 N 0.1302(5) 0.9839(5) 0.6742(2)
N7_8 N 0.1307(5) 0.9778(5) 0.7183(2)
C15_8 C 0.1671(6) 0.9532(6) 0.5844(2)
H7_8 H 0.1445 0.9007 0.5988
C16_8 C 0.1711(6) 0.9521(6) 0.5393(2)
H8_8 H 0.1534 0.8970 0.5236
loop_
_geom_bond_atom_site_label_1
_geom_bond_atom_site_label_2
_geom_bond_site_symmetry_1
_geom_bond_site_symmetry_2
Fe1 N1 1_555 1_555
Au1 C2 1_555 1_555
Au2 C1 1_555 1_555
C1 N1 1_555 1_555
C2 N2 1_555 1_555
C3 N3 1_555 1_555
C4 N4 1_555 1_555
N2 Fe1 1_555 1_555
N3 Fe1 1_555 1_555
N4 Fe1 1_555 1_555
N5 Fe1 1_555 1_555
C5 N5 1_555 1_555
H1 C5 1_555 1_555
C6 C5 1_555 1_555
H2 C6 1_555 1_555
C7 C6 1_555 1_555
C8 C7 1_555 1_555
H3 C8 1_555 1_555
C9 N5 1_555 1_555
H4 C9 1_555 1_555
C10 C7 1_555 1_555
C11 C10 1_555 1_555
H5 C11 1_555 1_555
N6 N7 1_555 1_555
N7 C10 1_555 1_555
C12 C11 1_555 1_555
H6 C12 1_555 1_555
C13 N6 1_555 1_555
C14 C13 1_555 1_555
C15 C14 1_555 1_555
H7 C15 1_555 1_555
C16 C15 1_555 1_555
H8 C16 1_555 1_555
C17 H9 1_555 1_555
C18 C14 1_555 1_555
H10 C18 1_555 1_555
N8 C16 1_555 1_555
Au3 C4 1_555 1_555
Au5 C3 1_555 1_555
Au6 Au1 1_555 1_555
C20 Au1 1_555 1_555
N9 Fe1 1_555 1_555
C8 C9 1_555 1_555
C12 C13 1_555 1_555
C17 C18 1_555 1_555
C17 N8 1_555 1_555
Fe1_2 N1_2 1_555 1_555
Au1_2 C2_2 1_555 1_555
Au2_2 C1_2 1_555 1_555
C1_2 N1_2 1_555 1_555
C2_2 N2_2 1_555 1_555
C3_2 N3_2 1_555 1_555
C4_2 N4_2 1_555 1_555
N2_2 Fe1_2 1_555 1_555
N3_2 Fe1_2 1_555 1_555
N4_2 Fe1_2 1_555 1_555
N5_2 Fe1_2 1_555 1_555
C5_2 N5_2 1_555 1_555
H1_2 C5_2 1_555 1_555
C6_2 C5_2 1_555 1_555
H2_2 C6_2 1_555 1_555
C7_2 C6_2 1_555 1_555
C8_2 C7_2 1_555 1_555
H3_2 C8_2 1_555 1_555
C9_2 N5_2 1_555 1_555
H4_2 C9_2 1_555 1_555
C10_2 C7_2 1_555 1_555
C11_2 C10_2 1_555 1_555
H5_2 C11_2 1_555 1_555
N6_2 N7_2 1_555 1_555
N7_2 C10_2 1_555 1_555
C12_2 C11_2 1_555 1_555
H6_2 C12_2 1_555 1_555
C13_2 N6_2 1_555 1_555
C14_2 C13_2 1_555 1_555
C15_2 C14_2 1_555 1_555
H7_2 C15_2 1_555 1_555
C16_2 C15_2 1_555 1_555
H8_2 C16_2 1_555 1_555
C17_2 H9_2 1_555 1_555
C18_2 C14_2 1_555 1_555
H10_2 C18_2 1_555 1_555
N8_2 C16_2 1_555 1_555
Fe2_2 N8_2 1_555 1_555
Au3_2 C4_2 1_555 1_555
Au5_2 C3_2 1_555 1_555
C20_2 Au1_2 1_555 1_555
C8_2 C9_2 1_555 1_555
C12_2 C13_2 1_555 1_555
C17_2 C18_2 1_555 1_555
C17_2 N8_2 1_555 1_555
Fe1_3 N1_3 1_555 1_555
Au5 C1_3 1_555 1_555
C1_3 N1_3 1_555 1_555
C2_3 N2_3 1_555 1_555
N2_3 Fe1_3 1_555 1_555
N5_3 Fe1_3 1_555 1_555
C5_3 N5_3 1_555 1_555
H1_3 C5_3 1_555 1_555
C6_3 C5_3 1_555 1_555
H3_3 C8_3 1_555 1_555
C9_3 N5_3 1_555 1_555
H4_3 C9_3 1_555 1_555
N6_3 N7_3 1_555 1_555
H7_3 C15_3 1_555 1_555
C16_3 C15_3 1_555 1_555
H8_3 C16_3 1_555 1_555
Au4_3 Au5 1_555 1_555
N9_3 Fe1_3 1_555 1_555
C8_3 C9_3 1_555 1_555
C19 N3_3 1_555 1_555
C20 N4_3 1_555 1_555
C10_3 C7_3 1_555 1_555
C11_3 C10_3 1_555 1_555
H5_3 C11_3 1_555 1_555
C12_3 C11_3 1_555 1_555
H6_3 C12_3 1_555 1_555
C14_3 C13_3 1_555 1_555
C17_3 H9_3 1_555 1_555
C18_3 C14_3 1_555 1_555
H10_3 C18_3 1_555 1_555
C12_3 C13_3 1_555 1_555
C17_3 C18_3 1_555 1_555
C17_3 N8_3 1_555 1_555
Fe1_4 N1_4 1_555 1_555
Au5_2 C1_4 1_555 1_555
C1_4 N1_4 1_555 1_555
C2_4 N2_4 1_555 1_555
N2_4 Fe1_4 1_555 1_555
N5_4 Fe1_4 1_555 1_555
C5_4 N5_4 1_555 1_555
H1_4 C5_4 1_555 1_555
C6_4 C5_4 1_555 1_555
H3_4 C8_4 1_555 1_555
C9_4 N5_4 1_555 1_555
H4_4 C9_4 1_555 1_555
N6_4 N7_4 1_555 1_555
H7_4 C15_4 1_555 1_555
C16_4 C15_4 1_555 1_555
H8_4 C16_4 1_555 1_555
C8_4 C9_4 1_555 1_555
C19_2 N3_4 1_555 1_555
C20_2 N4_4 1_555 1_555
C10_4 C7_4 1_555 1_555
C11_4 C10_4 1_555 1_555
H5_4 C11_4 1_555 1_555
C12_4 C11_4 1_555 1_555
H6_4 C12_4 1_555 1_555
C14_4 C13_4 1_555 1_555
C17_4 H9_4 1_555 1_555
C18_4 C14_4 1_555 1_555
H10_4 C18_4 1_555 1_555
Fe2_4 N8_4 1_555 1_555
C12_4 C13_4 1_555 1_555
C17_4 C18_4 1_555 1_555
C17_4 N8_4 1_555 1_555
Fe2_2 N1_5 1_555 1_555
Au4_3 C2_5 1_555 1_555
Au6_3 C1_5 1_555 1_555
C1_5 N1_5 1_555 1_555
C2_5 N2_5 1_555 1_555
C3_3 N3_5 1_555 1_555
C4_3 N4_5 1_555 1_555
N2_5 Fe2_2 1_555 1_555
N3_5 Fe2_2 1_555 1_555
N4_5 Fe2_2 1_555 1_555
N5_5 Fe2_2 1_555 1_555
C5_5 N5_5 1_555 1_555
H1_5 C5_5 1_555 1_555
C6_5 C5_5 1_555 1_555
H2_5 C6_5 1_555 1_555
C7_5 C6_5 1_555 1_555
C8_5 C7_5 1_555 1_555
H3_5 C8_5 1_555 1_555
C9_5 N5_5 1_555 1_555
H4_5 C9_5 1_555 1_555
C10_5 C7_5 1_555 1_555
C11_5 C10_5 1_555 1_555
H5_5 C11_5 1_555 1_555
N6_5 N7_5 1_555 1_555
N7_5 C10_5 1_555 1_555
C12_5 C11_5 1_555 1_555
H6_5 C12_5 1_555 1_555
C13_5 N6_5 1_555 1_555
C14_5 C13_5 1_555 1_555
C15_5 C14_5 1_555 1_555
H7_5 C15_5 1_555 1_555
C16_5 C15_5 1_555 1_555
H8_5 C16_5 1_555 1_555
C17_5 H9_5 1_555 1_555
C18_5 C14_5 1_555 1_555
H10_5 C18_5 1_555 1_555
N9_2 C16_5 1_555 1_555
Au4 C4_3 1_555 1_555
Au6 C3_3 1_555 1_555
C20_3 Au4_3 1_555 1_555
C8_5 C9_5 1_555 1_555
C12_5 C13_5 1_555 1_555
C17_5 C18_5 1_555 1_555
C17_5 N9_2 1_555 1_555
Fe2 N1_6 1_555 1_555
Au4_4 C2_6 1_555 1_555
Au6_4 C1_6 1_555 1_555
C1_6 N1_6 1_555 1_555
C2_6 N2_6 1_555 1_555
C3_4 N3_6 1_555 1_555
C4_4 N4_6 1_555 1_555
N2_6 Fe2 1_555 1_555
N3_6 Fe2 1_555 1_555
N4_6 Fe2 1_555 1_555
N5_6 Fe2 1_555 1_555
C5_6 N5_6 1_555 1_555
H1_6 C5_6 1_555 1_555
C6_6 C5_6 1_555 1_555
H2_6 C6_6 1_555 1_555
C7_6 C6_6 1_555 1_555
C8_6 C7_6 1_555 1_555
H3_6 C8_6 1_555 1_555
C9_6 N5_6 1_555 1_555
H4_6 C9_6 1_555 1_555
C10_6 C7_6 1_555 1_555
C11_6 C10_6 1_555 1_555
H5_6 C11_6 1_555 1_555
N6_6 N7_6 1_555 1_555
N7_6 C10_6 1_555 1_555
C12_6 C11_6 1_555 1_555
H6_6 C12_6 1_555 1_555
C13_6 N6_6 1_555 1_555
C14_6 C13_6 1_555 1_555
C15_6 C14_6 1_555 1_555
H7_6 C15_6 1_555 1_555
C16_6 C15_6 1_555 1_555
H8_6 C16_6 1_555 1_555
C17_6 H9_6 1_555 1_555
C18_6 C14_6 1_555 1_555
H10_6 C18_6 1_555 1_555
N9 C16_6 1_555 1_555
Au4_2 C4_4 1_555 1_555
Au6_2 C3_4 1_555 1_555
C20_4 Au4_4 1_555 1_555
C8_6 C9_6 1_555 1_555
C12_6 C13_6 1_555 1_555
C17_6 C18_6 1_555 1_555
C17_6 N9 1_555 1_555
C19_3 N3_7 1_555 1_555
C20_3 N4_7 1_555 1_555
C10_7 C7_7 1_555 1_555
C11_7 C10_7 1_555 1_555
H5_7 C11_7 1_555 1_555
C12_7 C11_7 1_555 1_555
H6_7 C12_7 1_555 1_555
C14_7 C13_7 1_555 1_555
C17_7 H9_7 1_555 1_555
C18_7 C14_7 1_555 1_555
H10_7 C18_7 1_555 1_555
C12_7 C13_7 1_555 1_555
C17_7 C18_7 1_555 1_555
C17_7 N9_4 1_555 1_555
Fe2_4 N1_7 1_555 1_555
Au6 C1_7 1_555 1_555
C1_7 N1_7 1_555 1_555
C2_7 N2_7 1_555 1_555
N2_7 Fe2_4 1_555 1_555
N5_7 Fe2_4 1_555 1_555
C5_7 N5_7 1_555 1_555
H1_7 C5_7 1_555 1_555
C6_7 C5_7 1_555 1_555
H3_7 C8_7 1_555 1_555
C9_7 N5_7 1_555 1_555
H4_7 C9_7 1_555 1_555
N6_7 N7_7 1_555 1_555
H7_7 C15_7 1_555 1_555
C16_7 C15_7 1_555 1_555
H8_7 C16_7 1_555 1_555
C8_7 C9_7 1_555 1_555
C19_4 N3_8 1_555 1_555
C20_4 N4_8 1_555 1_555
C10_8 C7_8 1_555 1_555
C11_8 C10_8 1_555 1_555
H5_8 C11_8 1_555 1_555
C12_8 C11_8 1_555 1_555
H6_8 C12_8 1_555 1_555
C14_8 C13_8 1_555 1_555
C17_8 H9_8 1_555 1_555
C18_8 C14_8 1_555 1_555
H10_8 C18_8 1_555 1_555
C12_8 C13_8 1_555 1_555
C17_8 C18_8 1_555 1_555
C17_8 N9_3 1_555 1_555
Fe2_3 N1_8 1_555 1_555
Au6_2 C1_8 1_555 1_555
C1_8 N1_8 1_555 1_555
C2_8 N2_8 1_555 1_555
N2_8 Fe2_3 1_555 1_555
N5_8 Fe2_3 1_555 1_555
C5_8 N5_8 1_555 1_555
H1_8 C5_8 1_555 1_555
C6_8 C5_8 1_555 1_555
H3_8 C8_8 1_555 1_555
C9_8 N5_8 1_555 1_555
H4_8 C9_8 1_555 1_555
N6_8 N7_8 1_555 1_555
H7_8 C15_8 1_555 1_555
C16_8 C15_8 1_555 1_555
H8_8 C16_8 1_555 1_555
C8_8 C9_8 1_555 1_555

#END
