
###############################################################################
#
# This file contains modified crystal structure data generated from the
# MOF subset of the Cambridge Structural Database (CSD) v543 
# hosted by the Cambridge Crystallographic Data Centre (CCDC).
#
# This work is licensed under the Creative Commons
# Attribution-NonCommercial-ShareAlike 4.0 International License.
# To view a copy of this license, visit
# http://creativecommons.org/licenses/by-nc-sa/4.0/
# or send a letter to
# Creative Commons, PO Box 1866, Mountain View, CA 94042, USA.
#
# CIF created using the CSD Python API on 29 September 2022
# The structure has been converted into the P1 space group
# The structure has a 3D framework
# The original CSD entry AXIPEE03 is in the monoclinic crystal system
# The framework has been calculated to contain at least 10.0% void space
# The void calculation uses a probe of radius 1.32A, grid spacing 0.4
#
###############################################################################

data_AXIPEE03
_chemical_formula_moiety         '(C144 H80 Au12 Fe8 N64)n'
_symmetry_cell_setting           triclinic
_symmetry_space_group_name_H-M   'P 1'
_symmetry_Int_Tables_number      1
_space_group_name_Hall           'P 1'
loop_
_symmetry_equiv_pos_site_id
_symmetry_equiv_pos_as_xyz
1 x,y,z
_cell_length_a                   14.4444(3)
_cell_length_b                   14.7116(2)
_cell_length_c                   30.7720(5)
_cell_angle_alpha                90
_cell_angle_beta                 96.966(2)
_cell_angle_gamma                90
_cell_volume                     6490.79
loop_
_atom_site_label
_atom_site_type_symbol
_atom_site_fract_x
_atom_site_fract_y
_atom_site_fract_z
C1 C 0.1343(5) 0.3294(5) 0.5492(3)
C2 C 0.4597(6) 0.3169(6) 0.5520(2)
C3 C 0.4589(5) 0.6416(5) 0.5567(2)
C5 C 0.3530(5) 0.1616(5) 0.4507(2)
C6 C 0.0490(5) 0.1697(5) 0.4475(2)
C9 C 0.2731(6) 0.4012(6) 0.4554(3)
H1 H 0.2487 0.3515 0.4701
C10 C 0.3450(7) 0.5380(6) 0.4572(3)
H2 H 0.3713 0.5886 0.4734
C11 C 0.2718(6) 0.3968(6) 0.4107(3)
H3 H 0.2445 0.3456 0.3952
C12 C 0.3486(7) 0.5379(7) 0.4129(3)
H4 H 0.3775 0.5865 0.3993
C13 C 0.3091(5) 0.4651(6) 0.3882(3)
C14 C 0.3038(6) 0.4664(6) 0.3401(3)
C15 C 0.2290(6) 0.4295(6) 0.3132(3)
H5 H 0.1803 0.3987 0.3253
C16 C 0.2271(7) 0.4384(7) 0.2694(3)
H6 H 0.1763 0.4154 0.2500
C17 C 0.3005(6) 0.4816(6) 0.2534(3)
C18 C 0.3033(6) 0.4948(6) 0.2057(3)
C19 C 0.2206(6) 0.5001(6) 0.1773(3)
H7 H 0.1622 0.4973 0.1885
C20 C 0.3861(6) 0.5024(6) 0.1874(3)
H8 H 0.4441 0.5014 0.2056
C21 C 0.2239(6) 0.5094(6) 0.1332(3)
H9 H 0.1667 0.5130 0.1144
C22 C 0.3837(6) 0.5114(6) 0.1427(3)
H10 H 0.4411 0.5163 0.1307
C24 C 0.2214(6) 0.1000(6) 0.5390(3)
H12 H 0.2370 0.1528 0.5236
C26 C 0.2241(6) 0.1054(6) 0.5843(3)
H14 H 0.2442 0.1595 0.5994
C27 C 0.1970(5) 0.0309(6) 0.6069(3)
C28 C 0.2001(6) 0.0320(6) 0.6553(3)
C29 C 0.2731(6) 0.0748(6) 0.6819(3)
H15 H 0.3199 0.1083 0.6697
C30 C 0.2741(7) 0.0662(7) 0.7259(3)
H16 H 0.3222 0.0934 0.7454
C31 C 0.2037(6) 0.0169(6) 0.7419(3)
C32 C 0.1995(6) 0.0046(6) 0.7897(3)
H17 H 0.0589 0.0024 0.7890
H20 H 0.3405 0.0021 0.8072
N1 N 0.1930(5) 0.3820(5) 0.5472(2)
N2 N 0.4037(5) 0.3722(5) 0.5562(2)
N3 N 0.4085(5) 0.5819(5) 0.5565(2)
N5 N 0.2963(5) 0.1103(4) 0.45245(19)
N6 N 0.1040(4) 0.1156(4) 0.4455(2)
N9 N 0.3078(5) 0.4732(5) 0.4791(2)
N10 N 0.3741(5) 0.5085(6) 0.3235(2)
N11 N 0.3728(5) 0.5153(6) 0.2800(2)
N12 N 0.3037(4) 0.5135(4) 0.1154(2)
N13 N 0.1982(4) 0.0246(4) 0.51584(19)
Fe1 Fe 0.30264(7) 0.48066(7) 0.54986(3)
Fe2 Fe 0.19774(7) 0.01916(7) 0.45022(3)
Au1 Au 0.04099(2) 0.23334(2) 0.552685(10)
Au3 Au 0.55408(2) 0.22598(2) 0.543507(10)
Au4 Au 0.54989(2) 0.74145(2) 0.552677(10)
C37 C 0.6525(5) 0.1325(5) 0.5401(3)
C38 C 0.6470(5) 0.8384(5) 0.5493(2)
N18 N 0.2012(5) 0.5871(5) 0.5409(2)
N19 N 0.1963(4) 0.0135(4) 0.3846(2)
N20 N 0.3025(5) 0.4856(5) 0.6203(2)
Fe5 Fe 0.30226(7) 0.51916(7) 0.04978(3)
Au6 Au 0.44592(2) 0.77402(2) 0.456493(10)
Au7 Au 0.45011(2) 0.25855(2) 0.447323(10)
C4 C 0.3475(5) 0.8675(5) 0.4599(3)
C23 C 0.1717(6) 0.9540(6) 0.5387(3)
H11 H 0.1532 0.9000 0.5231
C25 C 0.1694(6) 0.9542(6) 0.5829(3)
H13 H 0.1490 0.9019 0.5971
C33 C 0.1167(6) 0.9994(7) 0.8074(3)
C34 C 0.1184(6) 0.9900(6) 0.8518(3)
H18 H 0.0606 0.9865 0.8635
C35 C 0.2773(6) 0.9896(6) 0.8622(3)
H19 H 0.3342 0.9855 0.8812
C36 C 0.2818(6) 0.9992(6) 0.8182(3)
N4 N 0.2920(5) 0.9232(4) 0.4574(2)
N14 N 0.1326(5) 0.9866(6) 0.6715(2)
N15 N 0.1330(5) 0.9803(6) 0.7153(2)
N16 N 0.1975(5) 0.9856(5) 0.8797(2)
N17 N 0.1010(5) 0.9263(4) 0.4456(2)
Fe3 Fe 0.19736(7) 0.98066(7) 0.95014(3)
C7 C 0.9504(5) 0.1329(5) 0.5562(3)
C8 C 0.8548(6) 0.3567(6) 0.4590(3)
N7 N 0.8990(5) 0.0737(4) 0.5544(2)
N8 N 0.7988(5) 0.4129(5) 0.4591(2)
Au2 Au 0.95278(2) 0.26414(2) 0.455212(10)
Fe4 Fe 0.69736(7) 0.51934(7) 0.45014(3)
Fe6 Fe 0.80226(7) 0.98084(7) 0.54978(3)
C10_2 C 0.1550(7) 0.0380(6) 0.0428(3)
H2_2 H 0.1287 0.0886 0.0266
C12_2 C 0.1514(7) 0.0379(7) 0.0871(3)
H4_2 H 0.1225 0.0865 0.1007
C19_2 C 0.2794(6) 0.0001(6) 0.3227(3)
C20_2 C 0.1139(6) 0.0024(6) 0.3126(3)
H8_2 H 0.0559 0.0014 0.2944
C21_2 C 0.2761(6) 0.0094(6) 0.3668(3)
H9_2 H 0.3333 0.0130 0.3856
C22_2 C 0.1163(6) 0.0114(6) 0.3573(3)
H10_2 H 0.0589 0.0163 0.3693
N10_2 N 0.1259(5) 0.0085(6) 0.1765(2)
N11_2 N 0.1272(5) 0.0153(6) 0.2200(2)
Fe4_2 Fe 0.80264(7) 0.01934(7) 0.04986(3)
Au6_2 Au 0.05408(2) 0.27402(2) 0.043507(10)
C3_2 C 0.0411(5) 0.1416(5) 0.9433(2)
N3_2 N 0.0915(5) 0.0819(5) 0.9435(2)
N18_2 N 0.2988(5) 0.0871(5) 0.9591(2)
C4_2 C 0.1525(5) 0.3675(5) 0.0401(3)
C5_2 C 0.1470(5) 0.6616(5) 0.0493(2)
C6_2 C 0.4510(5) 0.6697(5) 0.0525(2)
C8_2 C 0.6452(6) 0.8567(6) 0.0410(3)
C9_2 C 0.2269(6) 0.9012(6) 0.0446(3)
H1_2 H 0.2513 0.8515 0.0299
C11_2 C 0.2282(6) 0.8968(6) 0.0893(3)
H3_2 H 0.2555 0.8456 0.1048
C13_2 C 0.1909(5) 0.9651(6) 0.1118(3)
C14_2 C 0.1962(6) 0.9664(6) 0.1599(3)
C15_2 C 0.2710(6) 0.9295(6) 0.1868(3)
H5_2 H 0.3197 0.8987 0.1747
C16_2 C 0.2729(7) 0.9384(7) 0.2306(3)
H6_2 H 0.3237 0.9154 0.2500
C17_2 C 0.1995(6) 0.9816(6) 0.2466(3)
C18_2 C 0.1967(6) 0.9948(6) 0.2943(3)
H7_2 H 0.3378 0.9973 0.3115
N4_2 N 0.2080(5) 0.4232(4) 0.0426(2)
N5_2 N 0.2037(5) 0.6103(4) 0.04755(19)
N6_2 N 0.3960(4) 0.6156(4) 0.0545(2)
N8_2 N 0.7012(5) 0.9129(5) 0.0409(2)
N9_2 N 0.1922(5) 0.9732(5) 0.0209(2)
Au2_2 Au 0.54722(2) 0.76414(2) 0.044788(10)
N17_2 N 0.3990(5) 0.4263(4) 0.0544(2)
Au7_2 Au 0.04989(2) 0.75855(2) 0.052677(10)
C1_2 C 0.3657(5) 0.8294(5) 0.9508(3)
C2_2 C 0.0403(6) 0.8169(6) 0.9480(2)
C7_2 C 0.5496(5) 0.6329(5) 0.9438(3)
C23_2 C 0.3283(6) 0.4540(6) 0.9613(3)
H11_2 H 0.3468 0.4000 0.9769
C24_2 C 0.2786(6) 0.6000(6) 0.9610(3)
H12_2 H 0.2630 0.6528 0.9764
C25_2 C 0.3306(6) 0.4542(6) 0.9171(3)
H13_2 H 0.3510 0.4019 0.9029
C26_2 C 0.2759(6) 0.6054(6) 0.9157(3)
H14_2 H 0.2558 0.6595 0.9006
C27_2 C 0.3030(5) 0.5309(6) 0.8931(3)
C28_2 C 0.2999(6) 0.5320(6) 0.8447(3)
C29_2 C 0.2269(6) 0.5748(6) 0.8181(3)
H15_2 H 0.1801 0.6083 0.8303
C30_2 C 0.2259(7) 0.5662(7) 0.7741(3)
H16_2 H 0.1778 0.5934 0.7546
C31_2 C 0.2963(6) 0.5169(6) 0.7581(3)
C32_2 C 0.3005(6) 0.5046(6) 0.7103(3)
C33_2 C 0.3833(6) 0.4994(7) 0.6926(3)
H17_2 H 0.4411 0.5024 0.7110
C34_2 C 0.3816(6) 0.4900(6) 0.6482(3)
H18_2 H 0.4394 0.4865 0.6365
C35_2 C 0.2227(6) 0.4896(6) 0.6378(3)
H19_2 H 0.1658 0.4855 0.6188
C36_2 C 0.2182(6) 0.4992(6) 0.6818(3)
H20_2 H 0.1595 0.5021 0.6928
N1_2 N 0.3070(5) 0.8820(5) 0.9528(2)
N2_2 N 0.0963(5) 0.8722(5) 0.9438(2)
N7_2 N 0.6010(5) 0.5737(4) 0.9456(2)
N13_2 N 0.3018(4) 0.5246(4) 0.98416(19)
N14_2 N 0.3674(5) 0.4866(6) 0.8285(2)
N15_2 N 0.3670(5) 0.4803(6) 0.7847(2)
Au1_2 Au 0.45901(2) 0.73334(2) 0.947315(10)
Fe6_2 Fe 0.69774(7) 0.48084(7) 0.95022(3)
Au4_2 Au 0.95011(2) 0.24145(2) 0.947323(10)
C38_2 C 0.8530(5) 0.3384(5) 0.9507(2)
Au3_2 Au 0.94592(2) 0.72598(2) 0.956493(10)
C37_2 C 0.8475(5) 0.6325(5) 0.9599(3)
C7_3 C 0.0496(5) 0.8671(5) 0.4438(3)
C8_3 C 0.1452(6) 0.6433(6) 0.5410(3)
Au2_3 Au 0.04722(2) 0.73586(2) 0.544788(10)
C23_3 C 0.8283(6) 0.0460(6) 0.4613(3)
H11_3 H 0.8468 0.1000 0.4769
C25_3 C 0.8306(6) 0.0458(6) 0.4171(3)
H13_3 H 0.8510 0.0981 0.4029
C33_3 C 0.8833(6) 0.0006(7) 0.1926(3)
C34_3 C 0.8816(6) 0.0100(6) 0.1482(3)
H18_3 H 0.9394 0.0135 0.1365
C35_3 C 0.7227(6) 0.0104(6) 0.1378(3)
H19_3 H 0.6658 0.0145 0.1188
C36_3 C 0.7182(6) 0.0008(6) 0.1818(3)
N4_3 N 0.7080(5) 0.0768(4) 0.5426(2)
N14_3 N 0.8674(5) 0.0134(6) 0.3285(2)
N15_3 N 0.8670(5) 0.0197(6) 0.2847(2)
N16_2 N 0.8025(5) 0.0144(5) 0.1203(2)
C1_3 C 0.8657(5) 0.6706(5) 0.4508(3)
C2_3 C 0.5403(6) 0.6831(6) 0.4480(2)
C3_3 C 0.5411(5) 0.3584(5) 0.4433(2)
C6_3 C 0.9510(5) 0.8303(5) 0.5525(2)
C9_3 C 0.7269(6) 0.5988(6) 0.5446(3)
H1_3 H 0.7513 0.6485 0.5299
C10_3 C 0.6550(7) 0.4620(6) 0.5428(3)
H2_3 H 0.6287 0.4114 0.5266
C11_3 C 0.7282(6) 0.6032(6) 0.5893(3)
H3_3 H 0.7555 0.6544 0.6048
C12_3 C 0.6514(7) 0.4621(7) 0.5871(3)
H4_3 H 0.6225 0.4135 0.6007
C13_3 C 0.6909(5) 0.5349(6) 0.6118(3)
C14_3 C 0.6962(6) 0.5336(6) 0.6599(3)
C15_3 C 0.7710(6) 0.5705(6) 0.6868(3)
H5_3 H 0.8197 0.6013 0.6747
C16_3 C 0.7729(7) 0.5616(7) 0.7306(3)
H6_3 H 0.8237 0.5846 0.7500
C17_3 C 0.6995(6) 0.5184(6) 0.7466(3)
C18_3 C 0.6967(6) 0.5052(6) 0.7943(3)
C19_3 C 0.7794(6) 0.4999(6) 0.8227(3)
H7_3 H 0.8378 0.5027 0.8115
C20_3 C 0.6139(6) 0.4976(6) 0.8126(3)
H8_3 H 0.5559 0.4986 0.7944
C21_3 C 0.7761(6) 0.4906(6) 0.8668(3)
H9_3 H 0.8333 0.4870 0.8856
C22_3 C 0.6163(6) 0.4886(6) 0.8573(3)
H10_3 H 0.5589 0.4837 0.8693
C24_3 C 0.7786(6) 0.9000(6) 0.4610(3)
H12_3 H 0.7630 0.8472 0.4764
C26_3 C 0.7759(6) 0.8946(6) 0.4157(3)
H14_3 H 0.7558 0.8405 0.4006
C27_3 C 0.8030(5) 0.9691(6) 0.3931(3)
C28_3 C 0.7999(6) 0.9680(6) 0.3447(3)
C29_3 C 0.7269(6) 0.9252(6) 0.3181(3)
H15_3 H 0.6801 0.8917 0.3303
C30_3 C 0.7259(7) 0.9338(7) 0.2741(3)
H16_3 H 0.6778 0.9066 0.2546
C31_3 C 0.7963(6) 0.9831(6) 0.2581(3)
C32_3 C 0.8005(6) 0.9954(6) 0.2103(3)
H17_3 H 0.9411 0.9976 0.2110
H20_3 H 0.6595 0.9979 0.1928
N1_3 N 0.8070(5) 0.6180(5) 0.4528(2)
N2_3 N 0.5963(5) 0.6278(5) 0.4438(2)
N3_3 N 0.5915(5) 0.4181(5) 0.4435(2)
N5_3 N 0.7037(5) 0.8897(4) 0.54755(19)
N6_3 N 0.8960(4) 0.8844(4) 0.5545(2)
N9_3 N 0.6922(5) 0.5268(5) 0.5209(2)
N10_3 N 0.6259(5) 0.4915(6) 0.6765(2)
N11_3 N 0.6272(5) 0.4847(6) 0.7200(2)
N12_2 N 0.6963(4) 0.4865(4) 0.8846(2)
N13_3 N 0.8018(4) 0.9754(4) 0.48416(19)
Au1_3 Au 0.95901(2) 0.76666(2) 0.447315(10)
N19_2 N 0.8037(4) 0.9865(4) 0.6154(2)
N20_2 N 0.6975(5) 0.5144(5) 0.3797(2)
C1_4 C 0.6343(5) 0.1706(5) 0.0492(3)
C2_4 C 0.9597(6) 0.1831(6) 0.0520(2)
C7_4 C 0.4504(5) 0.3671(5) 0.0562(3)
C23_4 C 0.6717(6) 0.5460(6) 0.0387(3)
H11_4 H 0.6532 0.6000 0.0231
C24_4 C 0.7214(6) 0.4000(6) 0.0390(3)
H12_4 H 0.7370 0.3472 0.0236
C25_4 C 0.6694(6) 0.5458(6) 0.0829(3)
H13_4 H 0.6490 0.5981 0.0971
C26_4 C 0.7241(6) 0.3946(6) 0.0843(3)
H14_4 H 0.7442 0.3405 0.0994
C27_4 C 0.6970(5) 0.4691(6) 0.1069(3)
C28_4 C 0.7001(6) 0.4680(6) 0.1553(3)
C29_4 C 0.7731(6) 0.4252(6) 0.1819(3)
H15_4 H 0.8199 0.3917 0.1697
C30_4 C 0.7741(7) 0.4338(7) 0.2259(3)
H16_4 H 0.8222 0.4066 0.2454
C31_4 C 0.7037(6) 0.4831(6) 0.2419(3)
C32_4 C 0.6995(6) 0.4954(6) 0.2897(3)
C33_4 C 0.6167(6) 0.5006(7) 0.3074(3)
H17_4 H 0.5589 0.4976 0.2890
C34_4 C 0.6184(6) 0.5100(6) 0.3518(3)
H18_4 H 0.5606 0.5135 0.3635
C35_4 C 0.7773(6) 0.5104(6) 0.3622(3)
H19_4 H 0.8342 0.5145 0.3812
C36_4 C 0.7818(6) 0.5008(6) 0.3182(3)
H20_4 H 0.8405 0.4979 0.3072
N1_4 N 0.6930(5) 0.1180(5) 0.0472(2)
N2_4 N 0.9037(5) 0.1278(5) 0.0562(2)
N13_4 N 0.6982(4) 0.4754(4) 0.01584(19)
N14_4 N 0.6326(5) 0.5134(6) 0.1715(2)
N15_4 N 0.6330(5) 0.5197(6) 0.2153(2)
Au1_4 Au 0.54099(2) 0.26666(2) 0.052685(10)
C6_4 C 0.5490(5) 0.3303(5) 0.9475(2)
C8_4 C 0.3548(6) 0.1433(6) 0.9590(3)
C9_4 C 0.7731(6) 0.0988(6) 0.9554(3)
H1_4 H 0.7487 0.1485 0.9701
C11_4 C 0.7718(6) 0.1032(6) 0.9107(3)
H3_4 H 0.7445 0.1544 0.8952
C13_4 C 0.8091(5) 0.0349(6) 0.8882(3)
C14_4 C 0.8038(6) 0.0336(6) 0.8401(3)
C15_4 C 0.7290(6) 0.0705(6) 0.8132(3)
H5_4 H 0.6803 0.1013 0.8253
C16_4 C 0.7271(7) 0.0616(7) 0.7694(3)
H6_4 H 0.6763 0.0846 0.7500
C17_4 C 0.8005(6) 0.0184(6) 0.7534(3)
C18_4 C 0.8033(6) 0.0052(6) 0.7057(3)
H7_4 H 0.6622 0.0027 0.6885
N4_4 N 0.7920(5) 0.5768(4) 0.9574(2)
N5_4 N 0.7963(5) 0.3897(4) 0.95245(19)
N6_4 N 0.6040(4) 0.3844(4) 0.9455(2)
N9_4 N 0.8078(5) 0.0268(5) 0.9791(2)
Au2_4 Au 0.45278(2) 0.23586(2) 0.955212(10)
C3_4 C 0.9589(5) 0.8584(5) 0.0567(2)
N3_4 N 0.9085(5) 0.9181(5) 0.0565(2)
C10_4 C 0.8450(7) 0.9620(6) 0.9572(3)
H2_4 H 0.8713 0.9114 0.9734
C12_4 C 0.8486(7) 0.9621(7) 0.9129(3)
H4_4 H 0.8775 0.9135 0.8993
C19_4 C 0.7206(6) 0.9999(6) 0.6773(3)
C20_4 C 0.8861(6) 0.9976(6) 0.6874(3)
H8_4 H 0.9441 0.9986 0.7056
C21_4 C 0.7239(6) 0.9906(6) 0.6332(3)
H9_4 H 0.6667 0.9870 0.6144
C22_4 C 0.8837(6) 0.9886(6) 0.6427(3)
H10_4 H 0.9411 0.9837 0.6307
N10_4 N 0.8741(5) 0.9915(6) 0.8235(2)
N11_4 N 0.8728(5) 0.9847(6) 0.7800(2)
loop_
_geom_bond_atom_site_label_1
_geom_bond_atom_site_label_2
_geom_bond_site_symmetry_1
_geom_bond_site_symmetry_2
C1 N1 1_555 1_555
C2 N2 1_555 1_555
C3 N3 1_555 1_555
C5 N5 1_555 1_555
C6 N6 1_555 1_555
C9 H1 1_555 1_555
C10 H2 1_555 1_555
C11 C9 1_555 1_555
H3 C11 1_555 1_555
C12 C10 1_555 1_555
H4 C12 1_555 1_555
C13 C11 1_555 1_555
C14 C13 1_555 1_555
C15 C14 1_555 1_555
H5 C15 1_555 1_555
C16 C15 1_555 1_555
H6 C16 1_555 1_555
C17 C16 1_555 1_555
C18 C17 1_555 1_555
C19 C18 1_555 1_555
H7 C19 1_555 1_555
C20 C18 1_555 1_555
H8 C20 1_555 1_555
C21 C19 1_555 1_555
H9 C21 1_555 1_555
C22 C20 1_555 1_555
H10 C22 1_555 1_555
C24 H12 1_555 1_555
C26 C24 1_555 1_555
H14 C26 1_555 1_555
C28 C27 1_555 1_555
C29 C28 1_555 1_555
H15 C29 1_555 1_555
C30 C29 1_555 1_555
H16 C30 1_555 1_555
C31 C30 1_555 1_555
C32 C31 1_555 1_555
N1 Fe1 1_555 1_555
N2 Fe1 1_555 1_555
N3 Fe1 1_555 1_555
N5 Fe2 1_555 1_555
N6 Fe2 1_555 1_555
N9 C9 1_555 1_555
N10 C14 1_555 1_555
N11 C17 1_555 1_555
N12 C21 1_555 1_555
Fe1 N9 1_555 1_555
Fe2 N13 1_555 1_555
Au1 C1 1_555 1_555
Au3 C2 1_555 1_555
Au4 C3 1_555 1_555
C37 Au3 1_555 1_555
C38 Au4 1_555 1_555
N18 Fe1 1_555 1_555
N19 Fe2 1_555 1_555
N20 Fe1 1_555 1_555
Fe5 N12 1_555 1_555
Au6 Au4 1_555 1_555
Au7 C5 1_555 1_555
C10 N9 1_555 1_555
C12 C13 1_555 1_555
C22 N12 1_555 1_555
C24 N13 1_555 1_555
C26 C27 1_555 1_555
N10 N11 1_555 1_555
Au3 Au7 1_555 1_555
C4 N4 1_555 1_555
C23 H11 1_555 1_555
C25 C23 1_555 1_555
H13 C25 1_555 1_555
C34 C33 1_555 1_555
H18 C34 1_555 1_555
C35 H19 1_555 1_555
N16 C34 1_555 1_555
Fe3 N16 1_555 1_555
Au6 C4 1_555 1_555
C35 C36 1_555 1_555
C35 N16 1_555 1_555
N14 N15 1_555 1_555
C7 N7 1_555 1_555
C8 N8 1_555 1_555
N8 Fe4 1_555 1_555
C8 Au2 1_555 1_555
C10_2 H2_2 1_555 1_555
C12_2 C10_2 1_555 1_555
H4_2 C12_2 1_555 1_555
H8_2 C20_2 1_555 1_555
C21_2 C19_2 1_555 1_555
H9_2 C21_2 1_555 1_555
C22_2 C20_2 1_555 1_555
H10_2 C22_2 1_555 1_555
N19 C21_2 1_555 1_555
C22_2 N19 1_555 1_555
N10_2 N11_2 1_555 1_555
C3_2 N3_2 1_555 1_555
C4_2 N4_2 1_555 1_555
C5_2 N5_2 1_555 1_555
C6_2 N6_2 1_555 1_555
C8_2 N8_2 1_555 1_555
C9_2 H1_2 1_555 1_555
C11_2 C9_2 1_555 1_555
H3_2 C11_2 1_555 1_555
C13_2 C11_2 1_555 1_555
C14_2 C13_2 1_555 1_555
C15_2 C14_2 1_555 1_555
H5_2 C15_2 1_555 1_555
C16_2 C15_2 1_555 1_555
H6_2 C16_2 1_555 1_555
C17_2 C16_2 1_555 1_555
C18_2 C17_2 1_555 1_555
N4_2 Fe5 1_555 1_555
N5_2 Fe5 1_555 1_555
N6_2 Fe5 1_555 1_555
N9_2 C9_2 1_555 1_555
Au2_2 C6_2 1_555 1_555
N17_2 Fe5 1_555 1_555
Au6_2 C4_2 1_555 1_555
Au7_2 C5_2 1_555 1_555
C8_2 Au2_2 1_555 1_555
C1_2 N1_2 1_555 1_555
C2_2 N2_2 1_555 1_555
C7_2 N7_2 1_555 1_555
C23_2 H11_2 1_555 1_555
C24_2 H12_2 1_555 1_555
C25_2 C23_2 1_555 1_555
H13_2 C25_2 1_555 1_555
C26_2 C24_2 1_555 1_555
H14_2 C26_2 1_555 1_555
C27_2 C25_2 1_555 1_555
C28_2 C27_2 1_555 1_555
C29_2 C28_2 1_555 1_555
H15_2 C29_2 1_555 1_555
C30_2 C29_2 1_555 1_555
H16_2 C30_2 1_555 1_555
C31_2 C30_2 1_555 1_555
C32_2 C31_2 1_555 1_555
C33_2 C32_2 1_555 1_555
H17_2 C33_2 1_555 1_555
C34_2 C33_2 1_555 1_555
H18_2 C34_2 1_555 1_555
C35_2 H19_2 1_555 1_555
C36_2 C32_2 1_555 1_555
H20_2 C36_2 1_555 1_555
N1_2 Fe3 1_555 1_555
N2_2 Fe3 1_555 1_555
N7_2 Fe6_2 1_555 1_555
N13_2 C23_2 1_555 1_555
N14_2 C28_2 1_555 1_555
N15_2 C31_2 1_555 1_555
N20 C34_2 1_555 1_555
Au1_2 C1_2 1_555 1_555
C7_2 Au1_2 1_555 1_555
C24_2 N13_2 1_555 1_555
C26_2 C27_2 1_555 1_555
C35_2 C36_2 1_555 1_555
C35_2 N20 1_555 1_555
N14_2 N15_2 1_555 1_555
C38_2 Au4_2 1_555 1_555
C37_2 Au3_2 1_555 1_555
C7_3 N17 1_555 1_555
C8_3 N18 1_555 1_555
C8_3 Au2_3 1_555 1_555
C37 N4_3 1_555 1_555
C23_3 H11_3 1_555 1_555
C25_3 C23_3 1_555 1_555
H13_3 C25_3 1_555 1_555
C34_3 C33_3 1_555 1_555
H18_3 C34_3 1_555 1_555
C35_3 H19_3 1_555 1_555
N16_2 C34_3 1_555 1_555
Fe4_2 N16_2 1_555 1_555
C35_3 C36_3 1_555 1_555
C35_3 N16_2 1_555 1_555
N14_3 N15_3 1_555 1_555
C1_3 N1_3 1_555 1_555
C2_3 N2_3 1_555 1_555
C3_3 N3_3 1_555 1_555
C38 N5_3 1_555 1_555
C6_3 N6_3 1_555 1_555
C9_3 H1_3 1_555 1_555
C10_3 H2_3 1_555 1_555
C11_3 C9_3 1_555 1_555
H3_3 C11_3 1_555 1_555
C12_3 C10_3 1_555 1_555
H4_3 C12_3 1_555 1_555
C13_3 C11_3 1_555 1_555
C14_3 C13_3 1_555 1_555
C15_3 C14_3 1_555 1_555
H5_3 C15_3 1_555 1_555
C16_3 C15_3 1_555 1_555
H6_3 C16_3 1_555 1_555
C17_3 C16_3 1_555 1_555
C18_3 C17_3 1_555 1_555
C19_3 C18_3 1_555 1_555
H7_3 C19_3 1_555 1_555
C20_3 C18_3 1_555 1_555
H8_3 C20_3 1_555 1_555
C21_3 C19_3 1_555 1_555
H9_3 C21_3 1_555 1_555
C22_3 C20_3 1_555 1_555
H10_3 C22_3 1_555 1_555
C24_3 H12_3 1_555 1_555
C26_3 C24_3 1_555 1_555
H14_3 C26_3 1_555 1_555
C28_3 C27_3 1_555 1_555
C29_3 C28_3 1_555 1_555
H15_3 C29_3 1_555 1_555
C30_3 C29_3 1_555 1_555
H16_3 C30_3 1_555 1_555
C31_3 C30_3 1_555 1_555
C32_3 C31_3 1_555 1_555
N1_3 Fe4 1_555 1_555
N2_3 Fe4 1_555 1_555
N3_3 Fe4 1_555 1_555
N5_3 Fe6 1_555 1_555
N6_3 Fe6 1_555 1_555
N9_3 C9_3 1_555 1_555
N10_3 C14_3 1_555 1_555
N11_3 C17_3 1_555 1_555
N12_2 C21_3 1_555 1_555
Fe4 N9_3 1_555 1_555
Fe6 N13_3 1_555 1_555
Au1_3 C1_3 1_555 1_555
Au6 C2_3 1_555 1_555
Au7 C3_3 1_555 1_555
N19_2 Fe6 1_555 1_555
N20_2 Fe4 1_555 1_555
Fe6_2 N12_2 1_555 1_555
C10_3 N9_3 1_555 1_555
C12_3 C13_3 1_555 1_555
C22_3 N12_2 1_555 1_555
C24_3 N13_3 1_555 1_555
C26_3 C27_3 1_555 1_555
N10_3 N11_3 1_555 1_555
C1_4 N1_4 1_555 1_555
C2_4 N2_4 1_555 1_555
C7_4 N17_2 1_555 1_555
C23_4 H11_4 1_555 1_555
C24_4 H12_4 1_555 1_555
C25_4 C23_4 1_555 1_555
H13_4 C25_4 1_555 1_555
C26_4 C24_4 1_555 1_555
H14_4 C26_4 1_555 1_555
C27_4 C25_4 1_555 1_555
C28_4 C27_4 1_555 1_555
C29_4 C28_4 1_555 1_555
H15_4 C29_4 1_555 1_555
C30_4 C29_4 1_555 1_555
H16_4 C30_4 1_555 1_555
C31_4 C30_4 1_555 1_555
C32_4 C31_4 1_555 1_555
C33_4 C32_4 1_555 1_555
H17_4 C33_4 1_555 1_555
C34_4 C33_4 1_555 1_555
H18_4 C34_4 1_555 1_555
C35_4 H19_4 1_555 1_555
C36_4 C32_4 1_555 1_555
H20_4 C36_4 1_555 1_555
N1_4 Fe4_2 1_555 1_555
N2_4 Fe4_2 1_555 1_555
N13_4 C23_4 1_555 1_555
N14_4 C28_4 1_555 1_555
N15_4 C31_4 1_555 1_555
N20_2 C34_4 1_555 1_555
Au1_4 C1_4 1_555 1_555
C7_4 Au1_4 1_555 1_555
C24_4 N13_4 1_555 1_555
C26_4 C27_4 1_555 1_555
C35_4 C36_4 1_555 1_555
C35_4 N20_2 1_555 1_555
N14_4 N15_4 1_555 1_555
C37_2 N4_4 1_555 1_555
C38_2 N5_4 1_555 1_555
C6_4 N6_4 1_555 1_555
C8_4 N18_2 1_555 1_555
C9_4 H1_4 1_555 1_555
C11_4 C9_4 1_555 1_555
H3_4 C11_4 1_555 1_555
C13_4 C11_4 1_555 1_555
C14_4 C13_4 1_555 1_555
C15_4 C14_4 1_555 1_555
H5_4 C15_4 1_555 1_555
C16_4 C15_4 1_555 1_555
H6_4 C16_4 1_555 1_555
C17_4 C16_4 1_555 1_555
C18_4 C17_4 1_555 1_555
N4_4 Fe6_2 1_555 1_555
N5_4 Fe6_2 1_555 1_555
N6_4 Fe6_2 1_555 1_555
N9_4 C9_4 1_555 1_555
Au2_4 C6_4 1_555 1_555
C8_4 Au2_4 1_555 1_555
C3_4 N3_4 1_555 1_555
C10_4 H2_4 1_555 1_555
C12_4 C10_4 1_555 1_555
H4_4 C12_4 1_555 1_555
H8_4 C20_4 1_555 1_555
C21_4 C19_4 1_555 1_555
H9_4 C21_4 1_555 1_555
C22_4 C20_4 1_555 1_555
H10_4 C22_4 1_555 1_555
N19_2 C21_4 1_555 1_555
C22_4 N19_2 1_555 1_555
N10_4 N11_4 1_555 1_555

#END
