
###############################################################################
#
# This file contains modified crystal structure data generated from the
# MOF subset of the Cambridge Structural Database (CSD) v543 
# hosted by the Cambridge Crystallographic Data Centre (CCDC).
#
# This work is licensed under the Creative Commons
# Attribution-NonCommercial-ShareAlike 4.0 International License.
# To view a copy of this license, visit
# http://creativecommons.org/licenses/by-nc-sa/4.0/
# or send a letter to
# Creative Commons, PO Box 1866, Mountain View, CA 94042, USA.
#
# CIF created using the CSD Python API on 29 September 2022
# The structure has been converted into the P1 space group
# The structure has a 3D framework
# The original CSD entry AXITOR is in the monoclinic crystal system
# The framework has been calculated to contain at least 10.0% void space
# The void calculation uses a probe of radius 1.32A, grid spacing 0.4
#
###############################################################################

data_AXITOR
_chemical_formula_moiety         '(C72 H72 N40 O12 Zn8)n'
_symmetry_cell_setting           triclinic
_symmetry_space_group_name_H-M   'P 1'
_symmetry_Int_Tables_number      1
_space_group_name_Hall           'P 1'
loop_
_symmetry_equiv_pos_site_id
_symmetry_equiv_pos_as_xyz
1 x,y,z
_cell_length_a                   17.910(3)
_cell_length_b                   16.295(3)
_cell_length_c                   10.2009(18)
_cell_angle_alpha                90
_cell_angle_beta                 123.401(2)
_cell_angle_gamma                90
_cell_volume                     2485.37
loop_
_atom_site_label
_atom_site_type_symbol
_atom_site_fract_x
_atom_site_fract_y
_atom_site_fract_z
Zn1 Zn 0.24267(2) 0.10344(2) 0.15805(4)
N1 N 0.35232(16) 0.17963(16) 0.2730(3)
C1 C 0.4979(2) 0.2848(2) 0.4211(4)
C2 C 0.4122(2) 0.3141(2) 0.3193(4)
H1 H 0.4022 0.3700 0.2993
C3 C 0.3425(2) 0.2602(2) 0.2484(4)
H2 H 0.2853 0.2808 0.1793
C4 C 0.4349(2) 0.1514(2) 0.3709(5)
H3 H 0.4431 0.0952 0.3893
C5 C 0.5087(2) 0.2017(2) 0.4461(5)
H4 H 0.5654 0.1796 0.5133
C6 C 0.5760(2) 0.3439(2) 0.4972(4)
O1 O 0.56357(18) 0.41717(17) 0.4787(4)
O2 O 0.65291(14) 0.31078(15) 0.5809(3)
Zn3 Zn 0.74267(2) 0.39656(2) 0.65805(4)
O3 O 0.15291(14) 0.18922(15) 0.0809(3)
N6 N 0.25668(16) 0.02554(16) 0.3209(3)
Zn1_2 Zn 0.74267(2) 0.60344(2) 0.15805(4)
N1_2 N 0.85232(16) 0.67963(16) 0.2730(3)
C1_2 C 0.9979(2) 0.7848(2) 0.4211(4)
C2_2 C 0.9122(2) 0.8141(2) 0.3193(4)
H1_2 H 0.9022 0.8700 0.2993
C3_2 C 0.8425(2) 0.7602(2) 0.2484(4)
H2_2 H 0.7853 0.7808 0.1793
C4_2 C 0.9349(2) 0.6514(2) 0.3709(5)
H3_2 H 0.9431 0.5952 0.3893
H9 H 0.7292 0.3490 0.0536
O3_2 O 0.65291(14) 0.68922(15) 0.0809(3)
N6_2 N 0.75668(16) 0.52554(16) 0.3209(3)
N2 N 0.75763(16) 0.54678(16) 0.9998(3)
C7 C 0.7213(2) 0.4828(2) 0.9049(4)
N3 N 0.8166(2) 0.5787(2) 0.9717(4)
N4 N 0.75668(16) 0.47446(16) 0.8209(3)
N5 N 0.8162(2) 0.5359(2) 0.8654(4)
C8 C 0.6493(4) 0.4294(3) 0.8903(7)
H5 H 0.6276 0.4531 0.9506
H6 H 0.5997 0.4274 0.7811
C9 C 0.6806(6) 0.3473(4) 0.9452(9)
H7 H 0.7008 0.3232 0.8841
H8 H 0.6328 0.3150 0.9346
C7_2 C 0.2213(2) 0.0172(2) 0.4049(4)
C8_2 C 0.1493(4) 0.0706(3) 0.3903(7)
H5_2 H 0.1276 0.0469 0.4506
H6_2 H 0.0997 0.0726 0.2811
C9_2 C 0.1806(6) 0.1527(4) 0.4452(9)
H7_2 H 0.2008 0.1768 0.3841
H8_2 H 0.1328 0.1850 0.4346
H9_2 H 0.2292 0.1510 0.5536
H4_2 H 0.5654 0.8204 0.0133
H4_3 H 0.0654 0.3204 0.0133
N1_3 N 0.85232(16) 0.32037(16) 0.7730(3)
C1_3 C 0.9979(2) 0.2152(2) 0.9211(4)
C2_3 C 0.9122(2) 0.1859(2) 0.8193(4)
H1_3 H 0.9022 0.1300 0.7993
C3_3 C 0.8425(2) 0.2398(2) 0.7484(4)
H2_3 H 0.7853 0.2192 0.6793
C4_3 C 0.9349(2) 0.3486(2) 0.8709(5)
H3_3 H 0.9431 0.4048 0.8893
N2_2 N 0.75763(16) 0.45322(16) 0.4998(3)
C7_3 C 0.7213(2) 0.5172(2) 0.4049(4)
N3_2 N 0.8166(2) 0.4213(2) 0.4717(4)
N5_2 N 0.8162(2) 0.4641(2) 0.3654(4)
C8_3 C 0.6493(4) 0.5706(3) 0.3903(7)
H5_3 H 0.6276 0.5469 0.4506
H6_3 H 0.5997 0.5726 0.2811
C9_3 C 0.6806(6) 0.6527(4) 0.4452(9)
H7_3 H 0.7008 0.6768 0.3841
H8_3 H 0.6328 0.6850 0.4346
H9_3 H 0.7292 0.6510 0.5536
N2_3 N 0.25763(16) 0.04678(16) 0.9998(3)
N3_3 N 0.3166(2) 0.0787(2) 0.9717(4)
N5_3 N 0.3162(2) 0.0359(2) 0.8654(4)
H9_4 H 0.2292 0.8490 0.0536
C7_4 C 0.2213(2) 0.9828(2) 0.9049(4)
N4_2 N 0.25668(16) 0.97446(16) 0.8209(3)
C8_4 C 0.1493(4) 0.9294(3) 0.8903(7)
H5_4 H 0.1276 0.9531 0.9506
H6_4 H 0.0997 0.9274 0.7811
C9_4 C 0.1806(6) 0.8473(4) 0.9452(9)
H7_4 H 0.2008 0.8232 0.8841
H8_4 H 0.1328 0.8150 0.9346
Zn2 Zn 0.24267(2) 0.89656(2) 0.65805(4)
C5_2 C 0.0087(2) 0.7017(2) 0.4461(5)
H4_4 H 0.0654 0.6796 0.5133
C6_2 C 0.0760(2) 0.8439(2) 0.4972(4)
O1_2 O 0.06357(18) 0.91717(17) 0.4787(4)
O2_2 O 0.15291(14) 0.81078(15) 0.5809(3)
N1_4 N 0.35232(16) 0.82037(16) 0.7730(3)
C1_4 C 0.4979(2) 0.7152(2) 0.9211(4)
C2_4 C 0.4122(2) 0.6859(2) 0.8193(4)
H1_4 H 0.4022 0.6300 0.7993
C3_4 C 0.3425(2) 0.7398(2) 0.7484(4)
H2_4 H 0.2853 0.7192 0.6793
C4_4 C 0.4349(2) 0.8486(2) 0.8709(5)
H3_4 H 0.4431 0.9048 0.8893
C5_3 C 0.5087(2) 0.7983(2) 0.9461(5)
C6_3 C 0.5760(2) 0.6561(2) 0.9972(4)
O1_3 O 0.56357(18) 0.58283(17) 0.9787(4)
N2_4 N 0.25763(16) 0.95322(16) 0.4998(3)
N3_4 N 0.3166(2) 0.9213(2) 0.4717(4)
N5_4 N 0.3162(2) 0.9641(2) 0.3654(4)
Zn1_3 Zn 0.75733(2) 0.10344(2) 0.34195(4)
N1_5 N 0.64768(16) 0.17963(16) 0.2270(3)
C1_5 C 0.5021(2) 0.2848(2) 0.0789(4)
C2_5 C 0.5878(2) 0.3141(2) 0.1807(4)
H1_5 H 0.5978 0.3700 0.2007
C3_5 C 0.6575(2) 0.2602(2) 0.2516(4)
H2_5 H 0.7147 0.2808 0.3207
C4_5 C 0.5651(2) 0.1514(2) 0.1291(5)
H3_5 H 0.5569 0.0952 0.1107
C5_4 C 0.4913(2) 0.2017(2) 0.0539(5)
C6_4 C 0.4240(2) 0.3439(2) 0.0028(4)
O1_4 O 0.43643(18) 0.41717(17) 0.0213(4)
N2_5 N 0.74237(16) 0.04678(16) 0.5002(3)
N3_5 N 0.6834(2) 0.0787(2) 0.5283(4)
N5_5 N 0.6838(2) 0.0359(2) 0.6346(4)
O3_3 O 0.84709(14) 0.18922(15) 0.4191(3)
N6_3 N 0.74332(16) 0.02554(16) 0.1791(3)
C7_5 C 0.7787(2) 0.0172(2) 0.0951(4)
C8_5 C 0.8507(4) 0.0706(3) 0.1097(7)
H5_5 H 0.8724 0.0469 0.0494
H6_5 H 0.9003 0.0726 0.2189
C9_5 C 0.8194(6) 0.1527(4) 0.0548(9)
H7_5 H 0.7992 0.1768 0.1159
H8_5 H 0.8672 0.1850 0.0654
C5_5 C 0.9913(2) 0.2983(2) 0.5539(5)
H4_5 H 0.9346 0.3204 0.4867
C6_5 C 0.9240(2) 0.1561(2) 0.5028(4)
O1_5 O 0.93643(18) 0.08283(17) 0.5213(4)
H4_6 H 0.4346 0.1796 0.9867
O2_3 O 0.34709(14) 0.31078(15) 0.9191(3)
Zn3_2 Zn 0.25733(2) 0.39656(2) 0.84195(4)
C7_6 C 0.7787(2) 0.9828(2) 0.5951(4)
N4_3 N 0.74332(16) 0.97446(16) 0.6791(3)
C8_6 C 0.8507(4) 0.9294(3) 0.6097(7)
H5_6 H 0.8724 0.9531 0.5494
H6_6 H 0.9003 0.9274 0.7189
C9_6 C 0.8194(6) 0.8473(4) 0.5548(9)
H7_6 H 0.7992 0.8232 0.6159
H8_6 H 0.8672 0.8150 0.5654
H9_5 H 0.7708 0.8490 0.4464
Zn2_2 Zn 0.75733(2) 0.89656(2) 0.84195(4)
Zn1_4 Zn 0.25733(2) 0.60344(2) 0.34195(4)
N1_6 N 0.14768(16) 0.67963(16) 0.2270(3)
C1_6 C 0.0021(2) 0.7848(2) 0.0789(4)
C2_6 C 0.0878(2) 0.8141(2) 0.1807(4)
H1_6 H 0.0978 0.8700 0.2007
C3_6 C 0.1575(2) 0.7602(2) 0.2516(4)
H2_6 H 0.2147 0.7808 0.3207
C4_6 C 0.0651(2) 0.6514(2) 0.1291(5)
H3_6 H 0.0569 0.5952 0.1107
N2_6 N 0.24237(16) 0.54678(16) 0.5002(3)
C7_7 C 0.2787(2) 0.4828(2) 0.5951(4)
N3_6 N 0.1834(2) 0.5787(2) 0.5283(4)
N4_4 N 0.24332(16) 0.47446(16) 0.6791(3)
N5_6 N 0.1838(2) 0.5359(2) 0.6346(4)
C8_7 C 0.3507(4) 0.4294(3) 0.6097(7)
H5_7 H 0.3724 0.4531 0.5494
H6_7 H 0.4003 0.4274 0.7189
C9_7 C 0.3194(6) 0.3473(4) 0.5548(9)
H7_7 H 0.2992 0.3232 0.6159
H8_7 H 0.3672 0.3150 0.5654
H9_6 H 0.2708 0.3490 0.4464
O3_4 O 0.34709(14) 0.68922(15) 0.4191(3)
N6_4 N 0.24332(16) 0.52554(16) 0.1791(3)
H4_7 H 0.9346 0.6796 0.9867
O2_4 O 0.84709(14) 0.81078(15) 0.9191(3)
N1_7 N 0.64768(16) 0.82037(16) 0.7270(3)
C1_7 C 0.5021(2) 0.7152(2) 0.5789(4)
C2_7 C 0.5878(2) 0.6859(2) 0.6807(4)
H1_7 H 0.5978 0.6300 0.7007
C3_7 C 0.6575(2) 0.7398(2) 0.7516(4)
H2_7 H 0.7147 0.7192 0.8207
C4_7 C 0.5651(2) 0.8486(2) 0.6291(5)
H3_7 H 0.5569 0.9048 0.6107
C5_6 C 0.4913(2) 0.7983(2) 0.5539(5)
H4_8 H 0.4346 0.8204 0.4867
C6_6 C 0.4240(2) 0.6561(2) 0.5028(4)
O1_6 O 0.43643(18) 0.58283(17) 0.5213(4)
N2_7 N 0.24237(16) 0.45322(16) 0.0002(3)
C7_8 C 0.2787(2) 0.5172(2) 0.0951(4)
N3_7 N 0.1834(2) 0.4213(2) 0.0283(4)
N5_7 N 0.1838(2) 0.4641(2) 0.1346(4)
C8_8 C 0.3507(4) 0.5706(3) 0.1097(7)
H5_8 H 0.3724 0.5469 0.0494
H6_8 H 0.4003 0.5726 0.2189
C9_8 C 0.3194(6) 0.6527(4) 0.0548(9)
H7_8 H 0.2992 0.6768 0.1159
H8_8 H 0.3672 0.6850 0.0654
N1_8 N 0.14768(16) 0.32037(16) 0.7270(3)
C1_8 C 0.0021(2) 0.2152(2) 0.5789(4)
C2_8 C 0.0878(2) 0.1859(2) 0.6807(4)
H1_8 H 0.0978 0.1300 0.7007
C3_8 C 0.1575(2) 0.2398(2) 0.7516(4)
H2_8 H 0.2147 0.2192 0.8207
C4_8 C 0.0651(2) 0.3486(2) 0.6291(5)
H3_8 H 0.0569 0.4048 0.6107
H9_7 H 0.2708 0.6510 0.9464
C5_7 C 0.9913(2) 0.7017(2) 0.0539(5)
C6_7 C 0.9240(2) 0.8439(2) 0.0028(4)
O1_7 O 0.93643(18) 0.91717(17) 0.0213(4)
H9_8 H 0.7708 0.1510 0.9464
N2_8 N 0.74237(16) 0.95322(16) 0.0002(3)
N3_8 N 0.6834(2) 0.9213(2) 0.0283(4)
N5_8 N 0.6838(2) 0.9641(2) 0.1346(4)
C5_8 C 0.0087(2) 0.2983(2) 0.9461(5)
C6_8 C 0.0760(2) 0.1561(2) 0.9972(4)
O1_8 O 0.06357(18) 0.08283(17) 0.9787(4)
loop_
_geom_bond_atom_site_label_1
_geom_bond_atom_site_label_2
_geom_bond_site_symmetry_1
_geom_bond_site_symmetry_2
Zn1 N1 1_555 1_555
N1 C3 1_555 1_555
C1 C2 1_555 1_555
C2 H1 1_555 1_555
C3 C2 1_555 1_555
H2 C3 1_555 1_555
C4 N1 1_555 1_555
H3 C4 1_555 1_555
C5 C1 1_555 1_555
H4 C5 1_555 1_555
C6 C1 1_555 1_555
O1 C6 1_555 1_555
O2 C6 1_555 1_555
Zn3 O2 1_555 1_555
O3 Zn1 1_555 1_555
N6 Zn1 1_555 1_555
C4 C5 1_555 1_555
Zn1_2 N1_2 1_555 1_555
N1_2 C3_2 1_555 1_555
C1_2 C2_2 1_555 1_555
C2_2 H1_2 1_555 1_555
C3_2 C2_2 1_555 1_555
H2_2 C3_2 1_555 1_555
C4_2 N1_2 1_555 1_555
H3_2 C4_2 1_555 1_555
O3_2 Zn1_2 1_555 1_555
N6_2 Zn1_2 1_555 1_555
C7 N2 1_555 1_555
N3 N2 1_555 1_555
N4 C7 1_555 1_555
N5 N3 1_555 1_555
C8 C7 1_555 1_555
H5 C8 1_555 1_555
H6 C8 1_555 1_555
C9 C8 1_555 1_555
H7 C9 1_555 1_555
H8 C9 1_555 1_555
Zn3 N4 1_555 1_555
N4 N5 1_555 1_555
N6 C7_2 1_555 1_555
C8_2 C7_2 1_555 1_555
H5_2 C8_2 1_555 1_555
H6_2 C8_2 1_555 1_555
C9_2 C8_2 1_555 1_555
H7_2 C9_2 1_555 1_555
H8_2 C9_2 1_555 1_555
H9_2 C9_2 1_555 1_555
Zn3 N1_3 1_555 1_555
N1_3 C3_3 1_555 1_555
C1_3 C2_3 1_555 1_555
C2_3 H1_3 1_555 1_555
C3_3 C2_3 1_555 1_555
H2_3 C3_3 1_555 1_555
C4_3 N1_3 1_555 1_555
H3_3 C4_3 1_555 1_555
N2_2 Zn3 1_555 1_555
C7_3 N2_2 1_555 1_555
N3_2 N2_2 1_555 1_555
N6_2 C7_3 1_555 1_555
N5_2 N3_2 1_555 1_555
C8_3 C7_3 1_555 1_555
H5_3 C8_3 1_555 1_555
H6_3 C8_3 1_555 1_555
C9_3 C8_3 1_555 1_555
H7_3 C9_3 1_555 1_555
H8_3 C9_3 1_555 1_555
H9_3 C9_3 1_555 1_555
N6_2 N5_2 1_555 1_555
N3_3 N2_3 1_555 1_555
N5_3 N3_3 1_555 1_555
N4_2 C7_4 1_555 1_555
C8_4 C7_4 1_555 1_555
H5_4 C8_4 1_555 1_555
H6_4 C8_4 1_555 1_555
C9_4 C8_4 1_555 1_555
H7_4 C9_4 1_555 1_555
H8_4 C9_4 1_555 1_555
Zn2 N4_2 1_555 1_555
H4_4 C5_2 1_555 1_555
O1_2 C6_2 1_555 1_555
O2_2 C6_2 1_555 1_555
Zn2 O2_2 1_555 1_555
Zn2 N1_4 1_555 1_555
N1_4 C3_4 1_555 1_555
C1_4 C2_4 1_555 1_555
C2_4 H1_4 1_555 1_555
C3_4 C2_4 1_555 1_555
H2_4 C3_4 1_555 1_555
C4_4 N1_4 1_555 1_555
H3_4 C4_4 1_555 1_555
C5_3 C1_4 1_555 1_555
C6_3 C1_4 1_555 1_555
O1_3 C6_3 1_555 1_555
N2_4 Zn2 1_555 1_555
N3_4 N2_4 1_555 1_555
N5_4 N3_4 1_555 1_555
C4_4 C5_3 1_555 1_555
Zn1_3 N1_5 1_555 1_555
N1_5 C3_5 1_555 1_555
C1_5 C2_5 1_555 1_555
C2_5 H1_5 1_555 1_555
C3_5 C2_5 1_555 1_555
H2_5 C3_5 1_555 1_555
C4_5 N1_5 1_555 1_555
H3_5 C4_5 1_555 1_555
C5_4 C1_5 1_555 1_555
C6_4 C1_5 1_555 1_555
O1_4 C6_4 1_555 1_555
N2_5 Zn1_3 1_555 1_555
N3_5 N2_5 1_555 1_555
N5_5 N3_5 1_555 1_555
O3_3 Zn1_3 1_555 1_555
N6_3 Zn1_3 1_555 1_555
C4_5 C5_4 1_555 1_555
N6_3 C7_5 1_555 1_555
C8_5 C7_5 1_555 1_555
H5_5 C8_5 1_555 1_555
H6_5 C8_5 1_555 1_555
C9_5 C8_5 1_555 1_555
H7_5 C9_5 1_555 1_555
H8_5 C9_5 1_555 1_555
H4_5 C5_5 1_555 1_555
O1_5 C6_5 1_555 1_555
O3_3 C6_5 1_555 1_555
Zn3_2 O2_3 1_555 1_555
N4_3 C7_6 1_555 1_555
C8_6 C7_6 1_555 1_555
H5_6 C8_6 1_555 1_555
H6_6 C8_6 1_555 1_555
C9_6 C8_6 1_555 1_555
H7_6 C9_6 1_555 1_555
H8_6 C9_6 1_555 1_555
H9_5 C9_6 1_555 1_555
Zn2_2 N4_3 1_555 1_555
Zn1_4 N1_6 1_555 1_555
N1_6 C3_6 1_555 1_555
C1_6 C2_6 1_555 1_555
C2_6 H1_6 1_555 1_555
C3_6 C2_6 1_555 1_555
H2_6 C3_6 1_555 1_555
C4_6 N1_6 1_555 1_555
H3_6 C4_6 1_555 1_555
N2_6 Zn1_4 1_555 1_555
C7_7 N2_6 1_555 1_555
N3_6 N2_6 1_555 1_555
N4_4 C7_7 1_555 1_555
N5_6 N3_6 1_555 1_555
C8_7 C7_7 1_555 1_555
H5_7 C8_7 1_555 1_555
H6_7 C8_7 1_555 1_555
C9_7 C8_7 1_555 1_555
H7_7 C9_7 1_555 1_555
H8_7 C9_7 1_555 1_555
H9_6 C9_7 1_555 1_555
Zn3_2 N4_4 1_555 1_555
O3_4 Zn1_4 1_555 1_555
N6_4 Zn1_4 1_555 1_555
N4_4 N5_6 1_555 1_555
Zn2_2 O2_4 1_555 1_555
Zn2_2 N1_7 1_555 1_555
N1_7 C3_7 1_555 1_555
C1_7 C2_7 1_555 1_555
C2_7 H1_7 1_555 1_555
C3_7 C2_7 1_555 1_555
H2_7 C3_7 1_555 1_555
C4_7 N1_7 1_555 1_555
H3_7 C4_7 1_555 1_555
C5_6 C1_7 1_555 1_555
H4_8 C5_6 1_555 1_555
C6_6 C1_7 1_555 1_555
O1_6 C6_6 1_555 1_555
O3_4 C6_6 1_555 1_555
C4_7 C5_6 1_555 1_555
C7_8 N2_7 1_555 1_555
N3_7 N2_7 1_555 1_555
N6_4 C7_8 1_555 1_555
N5_7 N3_7 1_555 1_555
C8_8 C7_8 1_555 1_555
H5_8 C8_8 1_555 1_555
H6_8 C8_8 1_555 1_555
C9_8 C8_8 1_555 1_555
H7_8 C9_8 1_555 1_555
H8_8 C9_8 1_555 1_555
N6_4 N5_7 1_555 1_555
Zn3_2 N1_8 1_555 1_555
N1_8 C3_8 1_555 1_555
C1_8 C2_8 1_555 1_555
C2_8 H1_8 1_555 1_555
C3_8 C2_8 1_555 1_555
H2_8 C3_8 1_555 1_555
C4_8 N1_8 1_555 1_555
H3_8 C4_8 1_555 1_555
O1_7 C6_7 1_555 1_555
N3_8 N2_8 1_555 1_555
N5_8 N3_8 1_555 1_555
O1_8 C6_8 1_555 1_555

#END
