
###############################################################################
#
# This file contains modified crystal structure data generated from the
# MOF subset of the Cambridge Structural Database (CSD) v543 
# hosted by the Cambridge Crystallographic Data Centre (CCDC).
#
# This work is licensed under the Creative Commons
# Attribution-NonCommercial-ShareAlike 4.0 International License.
# To view a copy of this license, visit
# http://creativecommons.org/licenses/by-nc-sa/4.0/
# or send a letter to
# Creative Commons, PO Box 1866, Mountain View, CA 94042, USA.
#
# CIF created using the CSD Python API on 29 September 2022
# The structure has been converted into the P1 space group
# The structure has a 3D framework
# The original CSD entry AXIXAJ is in the orthorhombic crystal system
# The original CSD entry AXIXAJ is in a Sohncke space group
# The framework has been calculated to contain at least 10.0% void space
# The void calculation uses a probe of radius 1.32A, grid spacing 0.4
#
###############################################################################

data_AXIXAJ
_chemical_formula_moiety         '(C36 H52 Ag4 N12 O30 P4)n'
_symmetry_cell_setting           triclinic
_symmetry_space_group_name_H-M   'P 1'
_symmetry_Int_Tables_number      1
_space_group_name_Hall           'P 1'
loop_
_symmetry_equiv_pos_site_id
_symmetry_equiv_pos_as_xyz
1 x,y,z
_cell_length_a                   4.65313(7)
_cell_length_b                   17.3555(2)
_cell_length_c                   18.4714(3)
_cell_angle_alpha                90
_cell_angle_beta                 90
_cell_angle_gamma                90
_cell_volume                     1491.7
loop_
_atom_site_label
_atom_site_type_symbol
_atom_site_fract_x
_atom_site_fract_y
_atom_site_fract_z
H5 H 0.830(11) 0.565(3) 0.018(3)
Ag4 Ag 0.52592(7) 0.70093(2) 0.03364(2)
Ag1 Ag 0.02592(7) 0.79907(2) 0.96636(2)
P1 P 0.4276(2) 0.37774(6) 0.66620(5)
O2 O 0.0751(6) 0.69065(16) 0.90618(15)
O4 O 0.3774(8) 0.67870(17) 0.62879(16)
H2 H 0.529(14) 0.702(3) 0.643(3)
O5 O 0.3749(6) 0.46903(16) 0.67132(16)
O6 O 0.6510(7) 0.36556(18) 0.72733(16)
H3 H 0.819(15) 0.361(3) 0.714(3)
O7 O 0.5377(8) 0.35890(17) 0.59256(15)
O8 O 0.1561(8) 0.3370(2) 0.6870(2)
N1 N 0.1777(8) 0.5843(2) 0.84291(18)
N2 N 0.4372(7) 0.61397(19) 0.94960(17)
N3 N 0.7952(8) 0.5312(2) 0.9881(2)
H4 H 0.880(12) 0.485(3) 0.985(3)
C2 C 0.2271(9) 0.6324(2) 0.9019(2)
C3 C 0.1047(9) 0.6808(2) 0.7449(2)
H7 H 0.2319 0.7126 0.7748
C4 C 0.2701(9) 0.6348(2) 0.6876(2)
H8 H 0.4309 0.6083 0.7111
C5 C 0.5827(9) 0.5468(2) 0.9427(2)
C6 C 0.0452(9) 0.5755(2) 0.66613(19)
C7 C 0.5116(11) 0.4940(2) 0.88636(19)
H10 H 0.6003 0.4460 0.8837
C8 C 0.1466(9) 0.5029(2) 0.6298(2)
H12 H 0.2144 0.5146 0.5814
C9 C 0.3138(10) 0.5149(2) 0.8371(2)
H13 H 0.2697 0.4820 0.7989
Ag2 Ag 0.97408(7) 0.29907(2) 0.53364(2)
O9 O 0.4623(8) 0.85890(17) 0.90744(15)
N4 N 0.9372(7) 0.88603(19) 0.05040(17)
Ag1_2 Ag 0.47408(7) 0.20093(2) 0.46636(2)
P1_2 P 0.0724(2) 0.62226(6) 0.16620(5)
O1 O 0.5840(6) 0.44451(15) 0.23572(14)
O2_2 O 0.4249(6) 0.30935(16) 0.40618(15)
O3 O 0.6170(7) 0.27543(17) 0.21198(16)
H1 H 0.633(13) 0.240(3) 0.234(3)
O4_2 O 0.1226(8) 0.32130(17) 0.12879(16)
O5_2 O 0.1251(6) 0.53097(16) 0.17132(16)
O8_2 O 0.3439(8) 0.6630(2) 0.1870(2)
N1_2 N 0.3223(8) 0.4157(2) 0.34291(18)
N2_2 N 0.0628(7) 0.38603(19) 0.44960(17)
C1 C 0.5261(10) 0.3861(2) 0.28709(19)
H6 H 0.7053 0.3696 0.3102
C2_2 C 0.2729(9) 0.3676(2) 0.4019(2)
C3_2 C 0.3953(9) 0.3192(2) 0.2449(2)
H7_2 H 0.2681 0.2874 0.2748
C4_2 C 0.2299(9) 0.3652(2) 0.1876(2)
H8_2 H 0.0691 0.3917 0.2111
C6_2 C 0.4548(9) 0.4245(2) 0.16613(19)
H9 H 0.6001 0.3997 0.1356
C8_2 C 0.3534(9) 0.4971(2) 0.1298(2)
H11 H 0.5116 0.5333 0.1258
H12_2 H 0.2856 0.4854 0.0814
C9_2 C 0.1862(10) 0.4851(2) 0.3371(2)
H13_2 H 0.2303 0.5180 0.2989
O9_2 O 0.0377(8) 0.14110(17) 0.40744(15)
N4_2 N 0.5628(7) 0.11397(19) 0.55040(17)
H2_2 H 0.971(14) 0.298(3) 0.143(3)
O6_2 O 0.8490(7) 0.63444(18) 0.22733(16)
H3_2 H 0.681(15) 0.639(3) 0.214(3)
O7_2 O 0.9623(8) 0.64110(17) 0.09256(15)
N3_2 N 0.7048(8) 0.4688(2) 0.4881(2)
H4_2 H 0.620(12) 0.515(3) 0.485(3)
H5_2 H 0.670(11) 0.435(3) 0.518(3)
C5_2 C 0.9173(9) 0.4532(2) 0.4427(2)
C7_2 C 0.9884(11) 0.5060(2) 0.38636(19)
H10_2 H 0.8997 0.5540 0.3837
O1_2 O 0.0840(6) 0.05549(15) 0.76428(14)
O3_2 O 0.1170(7) 0.22457(17) 0.78802(16)
H1_2 H 0.133(13) 0.260(3) 0.766(3)
C1_2 C 0.0261(10) 0.1139(2) 0.71291(19)
H6_2 H 0.2053 0.1304 0.6898
H9_2 H 0.1001 0.1003 0.8644
O2_3 O 0.9249(6) 0.19065(16) 0.59382(15)
O4_3 O 0.6226(8) 0.17870(17) 0.87121(16)
H2_3 H 0.471(14) 0.202(3) 0.857(3)
N1_3 N 0.8223(8) 0.0843(2) 0.65709(18)
N3_3 N 0.2048(8) 0.0312(2) 0.5119(2)
H5_3 H 0.170(11) 0.065(3) 0.482(3)
C2_3 C 0.7729(9) 0.1324(2) 0.5981(2)
C3_3 C 0.8953(9) 0.1808(2) 0.7551(2)
H7_3 H 0.7681 0.2126 0.7252
C4_3 C 0.7299(9) 0.1348(2) 0.8124(2)
H8_3 H 0.5691 0.1083 0.7889
C5_3 C 0.4173(9) 0.0468(2) 0.5573(2)
C6_3 C 0.9548(9) 0.0755(2) 0.83387(19)
C8_3 C 0.8534(9) 0.0029(2) 0.8702(2)
H12_3 H 0.7856 0.0146 0.9186
C9_3 C 0.6862(10) 0.0149(2) 0.6629(2)
P1_3 P 0.5724(2) 0.87774(6) 0.83380(5)
O5_3 O 0.6251(6) 0.96903(16) 0.82868(16)
O6_3 O 0.3490(7) 0.86556(18) 0.77267(16)
H3_3 H 0.181(15) 0.861(3) 0.786(3)
O8_3 O 0.8439(8) 0.8370(2) 0.8130(2)
H4_3 H 0.120(12) 0.985(3) 0.515(3)
C7_3 C 0.4884(11) 0.9940(2) 0.61364(19)
H10_3 H 0.3997 0.9460 0.6163
H13_3 H 0.7303 0.9820 0.7011
O6_4 O 0.1510(7) 0.13444(18) 0.27267(16)
H3_4 H 0.319(15) 0.139(3) 0.286(3)
H4_4 H 0.380(12) 0.015(3) 0.015(3)
C7_4 C 0.0116(11) 0.0060(2) 0.11364(19)
H10_4 H 0.1003 0.0540 0.1163
H5_4 H 0.330(11) 0.935(3) 0.982(3)
O1_3 O 0.4160(6) 0.94451(15) 0.26428(14)
O2_4 O 0.5751(6) 0.80935(16) 0.09382(15)
O3_3 O 0.3830(7) 0.77543(17) 0.28802(16)
H1_3 H 0.367(13) 0.740(3) 0.266(3)
O4_4 O 0.8774(8) 0.82130(17) 0.37121(16)
N1_4 N 0.6777(8) 0.9157(2) 0.15709(18)
C1_3 C 0.4739(10) 0.8861(2) 0.21291(19)
H6_3 H 0.2947 0.8696 0.1898
C2_4 C 0.7271(9) 0.8676(2) 0.0981(2)
C3_4 C 0.6047(9) 0.8192(2) 0.2551(2)
H7_4 H 0.7319 0.7874 0.2252
C4_4 C 0.7701(9) 0.8652(2) 0.3124(2)
H8_4 H 0.9309 0.8917 0.2889
C6_4 C 0.5452(9) 0.9245(2) 0.33387(19)
H9_3 H 0.3999 0.8997 0.3644
C8_4 C 0.6466(9) 0.9971(2) 0.3702(2)
H12_4 H 0.7144 0.9854 0.4186
C9_4 C 0.8138(10) 0.9851(2) 0.1629(2)
O1_4 O 0.9160(6) 0.55549(15) 0.73572(14)
O3_4 O 0.8830(7) 0.72457(17) 0.71198(16)
H1_4 H 0.867(13) 0.760(3) 0.734(3)
C1_4 C 0.9739(10) 0.6139(2) 0.78709(19)
H6_4 H 0.7947 0.6304 0.8102
H9_4 H 0.8999 0.6003 0.6356
H11_2 H 0.9884 0.4667 0.6258
H11_3 H 0.0116 0.9667 0.8742
H2_4 H 0.029(14) 0.798(3) 0.357(3)
N3_4 N 0.2952(8) 0.9688(2) 0.0119(2)
C5_4 C 0.0827(9) 0.9532(2) 0.0573(2)
P1_4 P 0.9276(2) 0.12226(6) 0.33380(5)
O5_4 O 0.8749(6) 0.03097(16) 0.32868(16)
O8_4 O 0.6561(8) 0.1630(2) 0.3130(2)
H11_4 H 0.4884 0.0333 0.3742
H13_4 H 0.7697 0.0180 0.2011
loop_
_geom_bond_atom_site_label_1
_geom_bond_atom_site_label_2
_geom_bond_site_symmetry_1
_geom_bond_site_symmetry_2
Ag1 O2 1_555 1_555
P1 O5 1_555 1_555
O2 C2 1_555 1_555
O4 H2 1_555 1_555
O5 C8 1_555 1_555
O6 P1 1_555 1_555
H3 O6 1_555 1_555
O7 P1 1_555 1_555
O8 P1 1_555 1_555
N2 C2 1_555 1_555
N3 H4 1_555 1_555
C2 N1 1_555 1_555
H7 C3 1_555 1_555
C4 O4 1_555 1_555
H8 C4 1_555 1_555
C5 N2 1_555 1_555
C7 C5 1_555 1_555
H10 C7 1_555 1_555
C8 C6 1_555 1_555
H12 C8 1_555 1_555
C9 N1 1_555 1_555
H13 C9 1_555 1_555
Ag2 O7 1_555 1_555
O9 Ag1 1_555 1_555
N3 C5 1_555 1_555
C3 C4 1_555 1_555
C4 C6 1_555 1_555
C7 C9 1_555 1_555
Ag1_2 O2_2 1_555 1_555
P1_2 O5_2 1_555 1_555
O1 C1 1_555 1_555
O2_2 C2_2 1_555 1_555
O3 H1 1_555 1_555
O5_2 C8_2 1_555 1_555
O8_2 P1_2 1_555 1_555
N1_2 C1 1_555 1_555
N2_2 C2_2 1_555 1_555
C1 H6 1_555 1_555
C2_2 N1_2 1_555 1_555
C3_2 O3 1_555 1_555
H7_2 C3_2 1_555 1_555
C4_2 O4_2 1_555 1_555
H8_2 C4_2 1_555 1_555
C6_2 O1 1_555 1_555
H9 C6_2 1_555 1_555
C8_2 C6_2 1_555 1_555
H11 C8_2 1_555 1_555
H12_2 C8_2 1_555 1_555
C9_2 N1_2 1_555 1_555
H13_2 C9_2 1_555 1_555
Ag2 Ag1_2 1_555 1_555
O9_2 Ag1_2 1_555 1_555
N4_2 Ag1_2 1_555 1_555
C1 C3_2 1_555 1_555
C3_2 C4_2 1_555 1_555
C4_2 C6_2 1_555 1_555
H3_2 O6_2 1_555 1_555
N3_2 H4_2 1_555 1_555
H5_2 N3_2 1_555 1_555
C7_2 C5_2 1_555 1_555
H10_2 C7_2 1_555 1_555
Ag4 O7_2 1_555 1_555
N3_2 C5_2 1_555 1_555
O1_2 C1_2 1_555 1_555
O3_2 H1_2 1_555 1_555
C1_2 H6_2 1_555 1_555
Ag2 O2_3 1_555 1_555
O2_3 C2_3 1_555 1_555
O4_3 H2_3 1_555 1_555
N4_2 C2_3 1_555 1_555
H5_3 N3_3 1_555 1_555
C2_3 N1_3 1_555 1_555
H7_3 C3_3 1_555 1_555
C4_3 O4_3 1_555 1_555
H8_3 C4_3 1_555 1_555
C5_3 N4_2 1_555 1_555
C8_3 C6_3 1_555 1_555
H12_3 C8_3 1_555 1_555
C9_3 N1_3 1_555 1_555
N3_3 C5_3 1_555 1_555
C3_3 C4_3 1_555 1_555
C4_3 C6_3 1_555 1_555
P1_3 O5_3 1_555 1_555
O6_3 P1_3 1_555 1_555
H3_3 O6_3 1_555 1_555
O9 P1_3 1_555 1_555
O8_3 P1_3 1_555 1_555
H10_3 C7_3 1_555 1_555
H3_4 O6_4 1_555 1_555
H10_4 C7_4 1_555 1_555
Ag4 O2_4 1_555 1_555
O1_3 C1_3 1_555 1_555
O2_4 C2_4 1_555 1_555
O3_3 H1_3 1_555 1_555
N1_4 C1_3 1_555 1_555
N4 C2_4 1_555 1_555
C1_3 H6_3 1_555 1_555
C2_4 N1_4 1_555 1_555
C3_4 O3_3 1_555 1_555
H7_4 C3_4 1_555 1_555
C4_4 O4_4 1_555 1_555
H8_4 C4_4 1_555 1_555
C6_4 O1_3 1_555 1_555
H9_3 C6_4 1_555 1_555
C8_4 C6_4 1_555 1_555
H12_4 C8_4 1_555 1_555
C9_4 N1_4 1_555 1_555
C1_3 C3_4 1_555 1_555
C3_4 C4_4 1_555 1_555
C4_4 C6_4 1_555 1_555
O1_4 C1_4 1_555 1_555
O3_4 H1_4 1_555 1_555
C1_4 H6_4 1_555 1_555
N3_4 C5_4 1_555 1_555
P1_4 O5_4 1_555 1_555
O8_4 P1_4 1_555 1_555

#END
