
###############################################################################
#
# This file contains modified crystal structure data generated from the
# MOF subset of the Cambridge Structural Database (CSD) v543 
# hosted by the Cambridge Crystallographic Data Centre (CCDC).
#
# This work is licensed under the Creative Commons
# Attribution-NonCommercial-ShareAlike 4.0 International License.
# To view a copy of this license, visit
# http://creativecommons.org/licenses/by-nc-sa/4.0/
# or send a letter to
# Creative Commons, PO Box 1866, Mountain View, CA 94042, USA.
#
# CIF created using the CSD Python API on 29 September 2022
# The structure has been converted into the P1 space group
# The structure has a 3D framework
# The original CSD entry AXOWIW is in the triclinic crystal system
# The framework has been calculated to contain at least 10.0% void space
# The void calculation uses a probe of radius 1.32A, grid spacing 0.4
#
###############################################################################

data_AXOWIW
_chemical_formula_moiety         '(C68 H40 Co4 N4 O16)n'
_symmetry_cell_setting           triclinic
_symmetry_space_group_name_H-M   'P 1'
_symmetry_Int_Tables_number      1
_space_group_name_Hall           'P 1'
loop_
_symmetry_equiv_pos_site_id
_symmetry_equiv_pos_as_xyz
1 x,y,z
_cell_length_a                   12.114(4)
_cell_length_b                   12.253(4)
_cell_length_c                   13.670(5)
_cell_angle_alpha                65.948(4)
_cell_angle_beta                 73.596(5)
_cell_angle_gamma                64.543(5)
_cell_volume                     1658.8
loop_
_atom_site_label
_atom_site_type_symbol
_atom_site_fract_x
_atom_site_fract_y
_atom_site_fract_z
C2 C 0.1381(8) 0.1903(8) 0.6905(7)
H1 H 0.123109 0.249491 0.622040
C3 C 0.2379(8) 0.0752(8) 0.6999(6)
C5 C 0.1792(9) 0.0162(10) 0.8971(7)
C6 C 0.0622(8) 0.2190(8) 0.7778(7)
C15 C 0.0820(9) 0.1282(9) 0.8827(7)
H9 H 0.027412 0.145876 0.942370
C17 C 0.3197(9) 0.0431(8) 0.6112(7)
H10 H 0.310460 0.102667 0.542091
O3 O 0.5633(5) 0.6410(5) 0.8328(4)
O4 O 0.6036(5) 0.6941(5) 0.6529(4)
C4 C 0.2593(8) 0.9837(9) 0.8054(8)
H2 H 0.194221 0.960171 0.966526
C9 C 0.3587(8) 0.8647(8) 0.8177(6)
H4 H 0.373155 0.804660 0.886016
C10 C 0.5404(7) 0.7154(8) 0.7391(6)
C13 C 0.4114(8) 0.9273(8) 0.6246(7)
H7 H 0.460290 0.906352 0.564154
C18 C 0.4337(7) 0.8394(8) 0.7266(7)
Co5 Co 0.71851(10) 0.49016(10) 0.86698(8)
Co7 Co 0.77434(10) 0.56181(11) 0.63737(8)
N3 N 0.7305(7) 0.5072(7) 0.0050(6)
O1 O 0.9274(5) 0.4086(5) 0.6708(5)
O2 O 0.8908(5) 0.3640(6) 0.8511(5)
C1 C 0.9529(8) 0.3410(8) 0.7641(7)
N1 N 0.7570(7) 0.5519(7) 0.4964(5)
C7 C 0.7441(9) 0.5421(10) 0.3000(7)
C8 C 0.8566(8) 0.4868(9) 0.4397(7)
H3 H 0.931647 0.444749 0.467179
C11 C 0.8131(10) 0.5441(10) 0.0149(8)
C12 C 0.8509(9) 0.4807(11) 0.3430(8)
H6 H 0.921060 0.433925 0.307223
C14 C 0.6426(9) 0.4921(10) 0.0922(8)
H8 H 0.577604 0.474303 0.087001
C16 C 0.7376(9) 0.5359(10) 0.1964(8)
C19 C 0.6466(10) 0.5021(11) 0.1859(7)
H11 H 0.587331 0.486113 0.244567
C20 C 0.8220(10) 0.5590(11) 0.1085(8)
H12 H 0.883620 0.583888 0.110411
C21 C 0.6531(9) 0.6118(11) 0.4532(8)
H13 H 0.583834 0.658801 0.489552
C22 C 0.6418(9) 0.6085(12) 0.3572(8)
H14 H 0.565997 0.650535 0.331023
O5 O 0.6512(6) 0.3445(6) 0.9150(5)
O6 O 0.6818(6) 0.4294(6) 0.7358(6)
C24 C 0.6634(8) 0.2282(9) 0.8068(8)
C25 C 0.6633(8) 0.3415(8) 0.8211(8)
C27 C 0.7397(10) 0.0858(9) 0.7007(8)
C29 C 0.7212(10) 0.2027(10) 0.7116(8)
H16 H 0.748272 0.263193 0.653968
C30 C 0.6213(10) 0.1377(10) 0.8930(8)
H17 H 0.582890 0.154095 0.957438
C31 C 0.6360(10) 0.0260(10) 0.8832(8)
C33 C 0.8007(12) 0.0577(10) 0.6058(9)
H19 H 0.825888 0.118813 0.547155
O11 O 0.8401(6) 0.7082(6) 0.5894(5)
O12 O 0.8044(6) 0.6334(6) 0.7680(5)
H5 H 0.870315 0.561802 0.954722
C23 C 0.8141(8) 0.7223(9) 0.6810(7)
C26 C 0.7233(10) 0.8773(9) 0.7786(8)
H15 H 0.695251 0.816549 0.834866
C28 C 0.7895(9) 0.8510(9) 0.6861(7)
H18 H 0.604634 0.968560 0.940332
C32 C 0.6979(9) 0.9953(9) 0.7884(8)
C34 C 0.8235(10) 0.9445(10) 0.5978(9)
H20 H 0.861982 0.928347 0.533327
O7 O 0.1599(6) 0.2918(6) 0.4106(5)
O8 O 0.1956(6) 0.3666(6) 0.2320(5)
C23_2 C 0.1859(8) 0.2777(9) 0.3190(7)
C26_2 C 0.2767(10) 0.1227(9) 0.2214(8)
H15_2 H 0.304749 0.183451 0.165134
C28_2 C 0.2105(9) 0.1490(9) 0.3139(7)
H18_2 H 0.395366 0.031440 0.059668
C32_2 C 0.3021(9) 0.0047(9) 0.2116(8)
C34_2 C 0.1765(10) 0.0555(10) 0.4022(9)
H20_2 H 0.138018 0.071653 0.466673
Co3 Co 0.28149(10) 0.50984(10) 0.13302(8)
Co6 Co 0.22566(10) 0.43819(11) 0.36263(8)
H5_2 H 0.129685 0.438198 0.045278
O1_2 O 0.0726(5) 0.5914(5) 0.3292(5)
O2_2 O 0.1092(5) 0.6360(6) 0.1489(5)
C1_2 C 0.0471(8) 0.6590(8) 0.2359(7)
N1_2 N 0.2430(7) 0.4481(7) 0.5036(5)
N2 N 0.2695(7) 0.4928(7) 0.9950(6)
C7_2 C 0.2559(9) 0.4579(10) 0.7000(7)
C8_2 C 0.1434(8) 0.5132(9) 0.5603(7)
H3_2 H 0.068353 0.555251 0.532821
C11_2 C 0.1869(10) 0.4559(10) 0.9851(8)
C12_2 C 0.1491(9) 0.5193(11) 0.6570(8)
H6_2 H 0.078940 0.566075 0.692777
C14_2 C 0.3574(9) 0.5079(10) 0.9078(8)
H8_2 H 0.422396 0.525697 0.912999
C16_2 C 0.2624(9) 0.4641(10) 0.8036(8)
C19_2 C 0.3534(10) 0.4979(11) 0.8141(7)
H11_2 H 0.412669 0.513887 0.755433
C20_2 C 0.1780(10) 0.4410(11) 0.8915(8)
H12_2 H 0.116380 0.416112 0.889589
C21_2 C 0.3469(9) 0.3882(11) 0.5468(8)
H13_2 H 0.416166 0.341199 0.510448
C22_2 C 0.3582(9) 0.3915(12) 0.6428(8)
H14_2 H 0.434003 0.349465 0.668977
O5_2 O 0.3488(6) 0.6555(6) 0.0850(5)
O6_2 O 0.3182(6) 0.5706(6) 0.2642(6)
C24_2 C 0.3366(8) 0.7718(9) 0.1932(8)
C25_2 C 0.3367(8) 0.6585(8) 0.1789(8)
C27_2 C 0.2603(10) 0.9142(9) 0.2993(8)
C29_2 C 0.2788(10) 0.7973(10) 0.2884(8)
H16_2 H 0.251728 0.736807 0.346032
C30_2 C 0.3787(10) 0.8623(10) 0.1070(8)
H17_2 H 0.417110 0.845905 0.042562
C31_2 C 0.3640(10) 0.9740(10) 0.1168(8)
C33_2 C 0.1993(12) 0.9423(10) 0.3942(9)
H19_2 H 0.174112 0.881187 0.452845
O9 O 0.4367(5) 0.3590(5) 0.1672(4)
O10 O 0.3964(5) 0.3059(5) 0.3471(4)
C4_2 C 0.7407(8) 0.0163(9) 0.1946(8)
H2_2 H 0.805779 0.039829 0.033474
C9_2 C 0.6413(8) 0.1353(8) 0.1823(6)
H4_2 H 0.626845 0.195340 0.113984
C10_2 C 0.4596(7) 0.2846(8) 0.2609(6)
C13_2 C 0.5886(8) 0.0727(8) 0.3754(7)
H7_2 H 0.539710 0.093648 0.435846
C18_2 C 0.5663(7) 0.1606(8) 0.2734(7)
C2_2 C 0.8619(8) 0.8097(8) 0.3095(7)
H1_2 H 0.876891 0.750509 0.377960
C3_2 C 0.7621(8) 0.9248(8) 0.3001(6)
C5_2 C 0.8208(9) 0.9838(10) 0.1029(7)
C6_2 C 0.9378(8) 0.7810(8) 0.2222(7)
C15_2 C 0.9180(9) 0.8718(9) 0.1173(7)
H9_2 H 0.972588 0.854124 0.057630
C17_2 C 0.6803(9) 0.9569(8) 0.3888(7)
H10_2 H 0.689540 0.897333 0.457909
loop_
_geom_bond_atom_site_label_1
_geom_bond_atom_site_label_2
_geom_bond_site_symmetry_1
_geom_bond_site_symmetry_2
C2 H1 1_555 1_555
C3 C2 1_555 1_555
C6 C2 1_555 1_555
C15 C5 1_555 1_555
H9 C15 1_555 1_555
C17 C3 1_555 1_555
H10 C17 1_555 1_555
C6 C15 1_555 1_555
O3 C10 1_555 1_555
O4 C10 1_555 1_555
C9 C4 1_555 1_555
H4 C9 1_555 1_555
C10 C18 1_555 1_555
C13 H7 1_555 1_555
C18 C9 1_555 1_555
Co5 O3 1_555 1_555
Co7 O4 1_555 1_555
C13 C18 1_555 1_555
Co5 O2 1_555 1_555
Co7 O1 1_555 1_555
O1 C1 1_555 1_555
O2 C1 1_555 1_555
N1 Co7 1_555 1_555
N3 C11 1_555 1_555
C7 C12 1_555 1_555
C8 N1 1_555 1_555
H3 C8 1_555 1_555
C12 C8 1_555 1_555
H6 C12 1_555 1_555
C14 N3 1_555 1_555
H8 C14 1_555 1_555
C16 C7 1_555 1_555
C19 C14 1_555 1_555
H11 C19 1_555 1_555
C20 C11 1_555 1_555
H12 C20 1_555 1_555
C21 N1 1_555 1_555
H13 C21 1_555 1_555
C22 C7 1_555 1_555
H14 C22 1_555 1_555
O5 Co5 1_555 1_555
O6 Co5 1_555 1_555
C24 C25 1_555 1_555
C25 O5 1_555 1_555
C27 C29 1_555 1_555
C29 C24 1_555 1_555
H16 C29 1_555 1_555
C30 C24 1_555 1_555
H17 C30 1_555 1_555
C31 C30 1_555 1_555
C33 C27 1_555 1_555
H19 C33 1_555 1_555
O11 Co7 1_555 1_555
O12 Co5 1_555 1_555
Co7 O6 1_555 1_555
Co7 O12 1_555 1_555
C16 C19 1_555 1_555
C16 C20 1_555 1_555
C21 C22 1_555 1_555
O6 C25 1_555 1_555
O11 C23 1_555 1_555
O12 C23 1_555 1_555
C23 C28 1_555 1_555
C26 H15 1_555 1_555
C28 C26 1_555 1_555
C32 C26 1_555 1_555
C34 C28 1_555 1_555
H20 C34 1_555 1_555
O7 C23_2 1_555 1_555
O8 C23_2 1_555 1_555
C23_2 C28_2 1_555 1_555
C26_2 H15_2 1_555 1_555
C28_2 C26_2 1_555 1_555
C32_2 C26_2 1_555 1_555
C34_2 C28_2 1_555 1_555
H20_2 C34_2 1_555 1_555
Co3 O8 1_555 1_555
Co6 O7 1_555 1_555
O8 Co6 1_555 1_555
Co3 O2_2 1_555 1_555
Co6 O1_2 1_555 1_555
O1_2 C1_2 1_555 1_555
O2_2 C1_2 1_555 1_555
N1_2 Co6 1_555 1_555
N2 C11_2 1_555 1_555
C7_2 C12_2 1_555 1_555
C8_2 N1_2 1_555 1_555
H3_2 C8_2 1_555 1_555
C12_2 C8_2 1_555 1_555
H6_2 C12_2 1_555 1_555
C14_2 N2 1_555 1_555
H8_2 C14_2 1_555 1_555
C16_2 C7_2 1_555 1_555
C19_2 C14_2 1_555 1_555
H11_2 C19_2 1_555 1_555
C20_2 C11_2 1_555 1_555
H12_2 C20_2 1_555 1_555
C21_2 N1_2 1_555 1_555
H13_2 C21_2 1_555 1_555
C22_2 C7_2 1_555 1_555
H14_2 C22_2 1_555 1_555
O5_2 Co3 1_555 1_555
O6_2 Co3 1_555 1_555
C24_2 C25_2 1_555 1_555
C25_2 O5_2 1_555 1_555
C27_2 C29_2 1_555 1_555
C29_2 C24_2 1_555 1_555
H16_2 C29_2 1_555 1_555
C30_2 C24_2 1_555 1_555
H17_2 C30_2 1_555 1_555
C31_2 C30_2 1_555 1_555
C33_2 C27_2 1_555 1_555
H19_2 C33_2 1_555 1_555
O9 Co3 1_555 1_555
O10 Co6 1_555 1_555
Co6 O6_2 1_555 1_555
C16_2 C19_2 1_555 1_555
C16_2 C20_2 1_555 1_555
C21_2 C22_2 1_555 1_555
O6_2 C25_2 1_555 1_555
O9 C10_2 1_555 1_555
O10 C10_2 1_555 1_555
C9_2 C4_2 1_555 1_555
H4_2 C9_2 1_555 1_555
C10_2 C18_2 1_555 1_555
C13_2 H7_2 1_555 1_555
C18_2 C9_2 1_555 1_555
C13_2 C18_2 1_555 1_555
C2_2 H1_2 1_555 1_555
C3_2 C2_2 1_555 1_555
C6_2 C2_2 1_555 1_555
C15_2 C5_2 1_555 1_555
H9_2 C15_2 1_555 1_555
C17_2 C3_2 1_555 1_555
H10_2 C17_2 1_555 1_555
C6_2 C15_2 1_555 1_555

#END
