
###############################################################################
#
# This file contains modified crystal structure data generated from the
# MOF subset of the Cambridge Structural Database (CSD) v543 
# hosted by the Cambridge Crystallographic Data Centre (CCDC).
#
# This work is licensed under the Creative Commons
# Attribution-NonCommercial-ShareAlike 4.0 International License.
# To view a copy of this license, visit
# http://creativecommons.org/licenses/by-nc-sa/4.0/
# or send a letter to
# Creative Commons, PO Box 1866, Mountain View, CA 94042, USA.
#
# CIF created using the CSD Python API on 29 September 2022
# The structure has been converted into the P1 space group
# The structure has a 3D framework
# The original CSD entry AXUVIB is in the triclinic crystal system
# The framework has been calculated to contain at least 10.0% void space
# The void calculation uses a probe of radius 1.32A, grid spacing 0.4
#
###############################################################################

data_AXUVIB
_chemical_formula_moiety         '(C92 H56 N12 O15 Zn4)n'
_symmetry_cell_setting           triclinic
_symmetry_space_group_name_H-M   'P 1'
_symmetry_Int_Tables_number      1
_space_group_name_Hall           'P 1'
loop_
_symmetry_equiv_pos_site_id
_symmetry_equiv_pos_as_xyz
1 x,y,z
_cell_length_a                   15.4213(13)
_cell_length_b                   15.5574(14)
_cell_length_c                   15.5593(14)
_cell_angle_alpha                101.193(8)
_cell_angle_beta                 96.924(7)
_cell_angle_gamma                100.486(7)
_cell_volume                     3553.43
loop_
_atom_site_label
_atom_site_type_symbol
_atom_site_fract_x
_atom_site_fract_y
_atom_site_fract_z
_atom_site_U_iso_or_equiv
_atom_site_thermal_displace_type
O10 O 0.0138(3) 0.0127(3) 0.1163(3) 0.0656 Uani
Zn9 Zn 0.03285(5) 0.14809(5) 0.13513(5) 0.0572 Uani
O19 O 0.0226(5) 0.7170(8) 0.8416(7) 0.1820 Uani
O21 O 0.1060(5) 0.8530(6) 0.8882(4) 0.1323 Uani
O15 O 0.3657(3) 0.8937(4) 0.1057(4) 0.0863 Uani
O16 O 0.4431(3) 0.9277(4) 0.2380(4) 0.0946 Uani
C78 C 0.0463(4) 0.9043(5) 0.3390(4) 0.0646 Uani
C79 C 0.0426(4) 0.8845(5) 0.4224(4) 0.0643 Uani
H48 H 0.0925 0.8718 0.4533 0.0770 Uiso
C81 C 0.0302(4) 0.8395(5) 0.6843(5) 0.0753 Uani
H49 H 0.0799 0.8275 0.7162 0.0900 Uiso
C82 C 0.0352(4) 0.8488(5) 0.6007(4) 0.0751 Uani
H50 H 0.0873 0.8440 0.5772 0.0900 Uiso
C86 C 0.1289(4) 0.9080(5) 0.2995(4) 0.0697 Uani
C87 C 0.1273(4) 0.8887(5) 0.2082(5) 0.0732 Uani
H53 H 0.0728 0.8745 0.1702 0.0880 Uiso
C88 C 0.2038(4) 0.8905(5) 0.1737(5) 0.0753 Uani
H54 H 0.2009 0.8756 0.1125 0.0900 Uiso
C89 C 0.2857(4) 0.9137(5) 0.2272(5) 0.0766 Uani
C90 C 0.2883(4) 0.9337(6) 0.3164(5) 0.0842 Uani
H55 H 0.3435 0.9498 0.3533 0.1010 Uiso
C91 C 0.2120(4) 0.9308(6) 0.3536(5) 0.0836 Uani
H56 H 0.2158 0.9442 0.4150 0.1000 Uiso
C92 C 0.3700(4) 0.9104(5) 0.1884(6) 0.0757 Uani
Zn11 Zn 0.51522(5) 0.91306(6) 0.13121(6) 0.0633 Uani
Zn1 Zn 0.96715(5) 0.85191(5) 0.86487(5) 0.0572 Uani
Zn2 Zn 0.48478(5) 0.08694(6) 0.86879(6) 0.0633 Uani
O2 O 0.9862(3) 0.9873(3) 0.8837(3) 0.0656 Uani
O3 O 0.4664(3) 0.1017(3) 0.9982(3) 0.0642 Uani
N1 N 0.8337(3) 0.7893(4) 0.8568(3) 0.0604 Uani
N2 N 0.5699(3) 0.5564(4) 0.8714(4) 0.0692 Uani
N3 N 0.4921(3) 0.2306(4) 0.8807(4) 0.0710 Uani
N4 N 0.3580(3) 0.0575(4) 0.7953(4) 0.0684 Uani
N5 N 0.1085(3) 0.1016(4) 0.5836(3) 0.0629 Uani
N6 N 0.0410(3) 0.1537(4) 0.2749(3) 0.0606 Uani
C2 C 0.8096(4) 0.7012(5) 0.8289(5) 0.0763 Uani
H1 H 0.8514 0.6702 0.8073 0.0920 Uiso
C3 C 0.7268(4) 0.6536(5) 0.8304(5) 0.0766 Uani
H2 H 0.7128 0.5919 0.8080 0.0920 Uiso
C4 C 0.6626(4) 0.6964(4) 0.8651(5) 0.0670 Uani
C5 C 0.6865(4) 0.7865(4) 0.8918(5) 0.0699 Uani
H3 H 0.6452 0.8187 0.9126 0.0840 Uiso
C6 C 0.7729(4) 0.8323(5) 0.8888(5) 0.0731 Uani
H4 H 0.7883 0.8942 0.9096 0.0880 Uiso
C7 C 0.5734(4) 0.6432(4) 0.8699(5) 0.0695 Uani
C8 C 0.4989(4) 0.6812(5) 0.8710(5) 0.0699 Uani
H5 H 0.5035 0.7416 0.8707 0.0840 Uiso
C9 C 0.4164(4) 0.6265(5) 0.8727(5) 0.0725 Uani
C10 C 0.4132(4) 0.5378(4) 0.8766(5) 0.0708 Uani
H6 H 0.3600 0.5006 0.8803 0.0850 Uiso
C11 C 0.4920(4) 0.5056(5) 0.8748(5) 0.0712 Uani
C12 C 0.3340(4) 0.6639(5) 0.8730(6) 0.0810 Uani
C13 C 0.3353(5) 0.7489(5) 0.9102(6) 0.0877 Uani
H7 H 0.3899 0.7866 0.9364 0.1050 Uiso
C14 C 0.2587(5) 0.7834(6) 0.9114(6) 0.0957 Uani
H8 H 0.2620 0.8425 0.9401 0.1150 Uiso
C15 C 0.1783(5) 0.7301(6) 0.8704(7) 0.0970 Uani
C16 C 0.1737(5) 0.6433(7) 0.8306(7) 0.1083 Uani
H9 H 0.1182 0.6070 0.8052 0.1300 Uiso
C17 C 0.2510(5) 0.6064(6) 0.8266(7) 0.1013 Uani
H10 H 0.2483 0.5482 0.7956 0.1220 Uiso
C18 C 0.4916(4) 0.4098(5) 0.8794(6) 0.0790 Uani
C19 C 0.4198(5) 0.3526(5) 0.8958(6) 0.0838 Uani
H11 H 0.3677 0.3727 0.9051 0.1010 Uiso
C20 C 0.4244(5) 0.2687(5) 0.8983(6) 0.0888 Uani
H12 H 0.3757 0.2337 0.9139 0.1070 Uiso
C21 C 0.5628(5) 0.2870(5) 0.8685(7) 0.0954 Uani
H13 H 0.6138 0.2646 0.8597 0.1150 Uiso
C22 C 0.5666(5) 0.3756(5) 0.8678(6) 0.0909 Uani
H14 H 0.6188 0.4117 0.8598 0.1090 Uiso
C23 C 0.0959(6) 0.7713(8) 0.8691(7) 0.0991 Uani
C25 C 0.2833(4) 0.0377(5) 0.8286(5) 0.0742 Uani
H15 H 0.2871 0.0185 0.8816 0.0890 Uiso
C26 C 0.2008(4) 0.0441(5) 0.7890(5) 0.0707 Uani
H16 H 0.1508 0.0297 0.8155 0.0850 Uiso
C27 C 0.1920(4) 0.0715(5) 0.7105(4) 0.0648 Uani
C28 C 0.2693(4) 0.0872(5) 0.6726(5) 0.0761 Uani
H17 H 0.2661 0.1022 0.6175 0.0920 Uiso
C29 C 0.3503(4) 0.0807(6) 0.7164(5) 0.0796 Uani
H18 H 0.4012 0.0927 0.6905 0.0960 Uiso
C30 C 0.1063(4) 0.0835(5) 0.6644(4) 0.0619 Uani
C31 C 0.0306(4) 0.0805(4) 0.7047(4) 0.0619 Uani
H19 H 0.0318 0.0684 0.7610 0.0740 Uiso
C34 C 0.0334(4) 0.1166(5) 0.5410(4) 0.0631 Uani
C37 C 0.0374(4) 0.1345(5) 0.4505(4) 0.0685 Uani
C38 C 0.1117(4) 0.1291(5) 0.4105(4) 0.0725 Uani
H23 H 0.1626 0.1185 0.4416 0.0870 Uiso
C39 C 0.1110(4) 0.1393(5) 0.3250(4) 0.0730 Uani
H24 H 0.1626 0.1361 0.3003 0.0880 Uiso
O23 O 0.6343(3) 0.1063(4) 0.8943(4) 0.0863 Uani
O25 O 0.5569(3) 0.0723(4) 0.7620(4) 0.0946 Uani
N14 N 0.9590(3) 0.8463(4) 0.7251(3) 0.0606 Uani
O11 O 0.5336(3) 0.8983(3) 0.0018(3) 0.0642 Uani
O13 O 0.9774(5) 0.2830(8) 0.1584(7) 0.1820 Uani
O14 O 0.8940(5) 0.1470(6) 0.1118(4) 0.1323 Uani
N7 N 0.1663(3) 0.2107(4) 0.1432(3) 0.0604 Uani
N8 N 0.4301(3) 0.4436(4) 0.1286(4) 0.0692 Uani
N9 N 0.5079(3) 0.7694(4) 0.1193(4) 0.0710 Uani
N10 N 0.6420(3) 0.9425(4) 0.2047(4) 0.0684 Uani
N11 N 0.8915(3) 0.8984(4) 0.4164(3) 0.0629 Uani
C49 C 0.1904(4) 0.2988(5) 0.1711(5) 0.0763 Uani
H29 H 0.1486 0.3298 0.1927 0.0920 Uiso
C50 C 0.2732(4) 0.3464(5) 0.1696(5) 0.0766 Uani
H30 H 0.2872 0.4081 0.1920 0.0920 Uiso
C51 C 0.3374(4) 0.3036(4) 0.1349(5) 0.0670 Uani
C52 C 0.3135(4) 0.2135(4) 0.1082(5) 0.0699 Uani
H31 H 0.3548 0.1813 0.0874 0.0840 Uiso
C53 C 0.2271(4) 0.1677(5) 0.1112(5) 0.0731 Uani
H32 H 0.2117 0.1058 0.0904 0.0880 Uiso
C54 C 0.4266(4) 0.3568(4) 0.1301(5) 0.0695 Uani
C55 C 0.5011(4) 0.3188(5) 0.1290(5) 0.0699 Uani
H33 H 0.4965 0.2584 0.1293 0.0840 Uiso
C56 C 0.5836(4) 0.3735(5) 0.1273(5) 0.0725 Uani
C57 C 0.5868(4) 0.4622(4) 0.1234(5) 0.0708 Uani
H34 H 0.6400 0.4994 0.1197 0.0850 Uiso
C58 C 0.5080(4) 0.4944(5) 0.1252(5) 0.0712 Uani
C59 C 0.6660(4) 0.3361(5) 0.1270(6) 0.0810 Uani
C60 C 0.6647(5) 0.2511(5) 0.0898(6) 0.0877 Uani
H35 H 0.6101 0.2134 0.0636 0.1050 Uiso
C61 C 0.7413(5) 0.2166(6) 0.0886(6) 0.0957 Uani
H36 H 0.7380 0.1575 0.0599 0.1150 Uiso
C62 C 0.8217(5) 0.2699(6) 0.1296(7) 0.0970 Uani
C63 C 0.8263(5) 0.3567(7) 0.1694(7) 0.1083 Uani
H37 H 0.8818 0.3930 0.1948 0.1300 Uiso
C64 C 0.7490(5) 0.3936(6) 0.1734(7) 0.1013 Uani
H38 H 0.7517 0.4518 0.2044 0.1220 Uiso
C65 C 0.5084(4) 0.5902(5) 0.1206(6) 0.0790 Uani
C66 C 0.5802(5) 0.6474(5) 0.1042(6) 0.0838 Uani
H39 H 0.6323 0.6273 0.0949 0.1010 Uiso
C67 C 0.5756(5) 0.7313(5) 0.1017(6) 0.0888 Uani
H40 H 0.6243 0.7663 0.0861 0.1070 Uiso
C68 C 0.4372(5) 0.7130(5) 0.1315(7) 0.0954 Uani
H41 H 0.3862 0.7354 0.1403 0.1150 Uiso
C69 C 0.4334(5) 0.6244(5) 0.1322(6) 0.0909 Uani
H42 H 0.3812 0.5883 0.1402 0.1090 Uiso
C70 C 0.9041(6) 0.2287(8) 0.1309(7) 0.0991 Uani
C71 C 0.7167(4) 0.9623(5) 0.1714(5) 0.0742 Uani
H43 H 0.7129 0.9815 0.1184 0.0890 Uiso
C72 C 0.7992(4) 0.9559(5) 0.2110(5) 0.0707 Uani
H44 H 0.8492 0.9703 0.1845 0.0850 Uiso
C73 C 0.8080(4) 0.9285(5) 0.2895(4) 0.0648 Uani
C74 C 0.7307(4) 0.9128(5) 0.3274(5) 0.0761 Uani
H45 H 0.7339 0.8978 0.3825 0.0920 Uiso
C75 C 0.6497(4) 0.9193(6) 0.2836(5) 0.0796 Uani
H46 H 0.5988 0.9073 0.3095 0.0960 Uiso
C76 C 0.8937(4) 0.9165(5) 0.3356(4) 0.0619 Uani
C77 C 0.9694(4) 0.9195(4) 0.2953(4) 0.0619 Uani
H47 H 0.9682 0.9316 0.2390 0.0740 Uiso
C80 C 0.9666(4) 0.8834(5) 0.4590(4) 0.0631 Uani
C83 C 0.9626(4) 0.8655(5) 0.5495(4) 0.0685 Uani
C84 C 0.8883(4) 0.8709(5) 0.5895(4) 0.0725 Uani
H51 H 0.8374 0.8815 0.5584 0.0870 Uiso
C85 C 0.8890(4) 0.8607(5) 0.6750(4) 0.0730 Uani
H52 H 0.8374 0.8639 0.6997 0.0880 Uiso
C32 C 0.9537(4) 0.0957(5) 0.6610(4) 0.0646 Uani
C33 C 0.9574(4) 0.1155(5) 0.5776(4) 0.0643 Uani
H20 H 0.9075 0.1282 0.5467 0.0770 Uiso
C35 C 0.9698(4) 0.1605(5) 0.3157(5) 0.0753 Uani
H21 H 0.9201 0.1725 0.2838 0.0900 Uiso
C36 C 0.9648(4) 0.1512(5) 0.3993(4) 0.0751 Uani
H22 H 0.9127 0.1560 0.4228 0.0900 Uiso
C40 C 0.8711(4) 0.0920(5) 0.7005(4) 0.0697 Uani
C41 C 0.8727(4) 0.1113(5) 0.7918(5) 0.0732 Uani
H25 H 0.9272 0.1255 0.8298 0.0880 Uiso
C42 C 0.7962(4) 0.1095(5) 0.8263(5) 0.0753 Uani
H26 H 0.7991 0.1244 0.8875 0.0900 Uiso
C43 C 0.7143(4) 0.0863(5) 0.7728(5) 0.0766 Uani
C44 C 0.7117(4) 0.0663(6) 0.6836(5) 0.0842 Uani
H27 H 0.6565 0.0502 0.6467 0.1010 Uiso
C45 C 0.7880(4) 0.0692(6) 0.6464(5) 0.0836 Uani
H28 H 0.7842 0.0558 0.5850 0.1000 Uiso
C46 C 0.6300(4) 0.0896(5) 0.8116(6) 0.0757 Uani
O1 O 0.0291(3) 0.1121(3) 0.9925(3) 0.0689 Uani
C1 C 0.0050(4) 0.0294(5) 0.9648(4) 0.0564 Uani
O12 O 0.4870(3) 0.9539(3) 0.8863(3) 0.0695 Uani
C48 C 0.5067(4) 0.9590(4) 0.9679(4) 0.0583 Uani
O4 O 0.5130(3) 0.0461(3) 0.1137(3) 0.0695 Uani
C24 C 0.4933(4) 0.0410(4) 0.0321(4) 0.0583 Uani
O9 O 0.9709(3) 0.8879(3) 0.0075(3) 0.0689 Uani
C47 C 0.9950(4) 0.9706(5) 0.0352(4) 0.0564 Uani
loop_
_atom_site_aniso_label
_atom_site_aniso_U_11
_atom_site_aniso_U_22
_atom_site_aniso_U_33
_atom_site_aniso_U_23
_atom_site_aniso_U_13
_atom_site_aniso_U_12
O10 0.074 0.082 0.057 0.031 0.0226 0.033
Zn9 0.0411 0.0737 0.0697 0.0266 0.0188 0.027
O19 0.07 0.349 0.23 0.205 0.082 0.119
O21 0.133 0.23 0.086 0.053 0.038 0.139
O15 0.062 0.102 0.113 0.037 0.042 0.031
O16 0.05 0.13 0.128 0.051 0.029 0.047
C78 0.041 0.097 0.07 0.032 0.016 0.032
C79 0.04 0.099 0.068 0.032 0.015 0.032
C81 0.048 0.126 0.072 0.037 0.024 0.044
C82 0.048 0.123 0.074 0.039 0.02 0.043
C86 0.038 0.108 0.077 0.03 0.017 0.036
C87 0.047 0.109 0.079 0.037 0.018 0.033
C88 0.053 0.106 0.085 0.036 0.024 0.039
C89 0.05 0.103 0.094 0.035 0.024 0.038
C90 0.049 0.123 0.092 0.03 0.017 0.037
C91 0.047 0.127 0.084 0.025 0.01 0.035
C92 0.049 0.094 0.105 0.036 0.035 0.039
Zn11 0.0421 0.0825 0.0855 0.0402 0.023 0.0332
Zn1 0.0411 0.0737 0.0697 0.0266 0.0188 0.027
Zn2 0.0421 0.0825 0.0855 0.0402 0.023 0.0332
O2 0.074 0.082 0.057 0.031 0.0226 0.033
O3 0.056 0.068 0.092 0.039 0.033 0.036
N1 0.039 0.073 0.078 0.021 0.021 0.022
N2 0.039 0.075 0.109 0.036 0.024 0.027
N3 0.053 0.067 0.118 0.044 0.039 0.035
N4 0.038 0.105 0.082 0.043 0.016 0.038
N5 0.042 0.092 0.067 0.028 0.019 0.028
N6 0.041 0.086 0.066 0.026 0.015 0.028
C2 0.042 0.077 0.117 0.016 0.031 0.025
C3 0.047 0.074 0.118 0.021 0.029 0.026
C4 0.042 0.071 0.103 0.03 0.027 0.029
C5 0.044 0.072 0.107 0.025 0.032 0.028
C6 0.047 0.071 0.11 0.02 0.031 0.023
C7 0.044 0.068 0.11 0.031 0.024 0.027
C8 0.04 0.07 0.115 0.033 0.028 0.027
C9 0.042 0.073 0.118 0.041 0.023 0.024
C10 0.041 0.068 0.122 0.044 0.028 0.025
C11 0.044 0.067 0.123 0.047 0.03 0.025
C12 0.043 0.085 0.136 0.049 0.025 0.034
C13 0.053 0.09 0.141 0.046 0.029 0.038
C14 0.063 0.108 0.142 0.053 0.028 0.05
C15 0.06 0.123 0.14 0.067 0.032 0.05
C16 0.056 0.125 0.161 0.057 0.02 0.034
C17 0.053 0.106 0.159 0.049 0.018 0.031
C18 0.05 0.073 0.136 0.046 0.033 0.033
C19 0.056 0.077 0.142 0.045 0.047 0.032
C20 0.065 0.083 0.142 0.048 0.052 0.028
C21 0.055 0.081 0.17 0.047 0.03 0.037
C22 0.054 0.079 0.159 0.05 0.031 0.029
C23 0.068 0.143 0.127 0.079 0.038 0.059
C25 0.05 0.101 0.093 0.049 0.023 0.034
C26 0.04 0.107 0.084 0.046 0.022 0.029
C27 0.036 0.102 0.075 0.038 0.023 0.033
C28 0.048 0.119 0.081 0.044 0.024 0.036
C29 0.041 0.128 0.091 0.048 0.027 0.036
C30 0.038 0.095 0.068 0.032 0.019 0.031
C31 0.042 0.094 0.064 0.03 0.016 0.033
C34 0.04 0.099 0.066 0.033 0.016 0.034
C37 0.044 0.109 0.07 0.034 0.02 0.039
C38 0.041 0.119 0.074 0.036 0.019 0.037
C39 0.04 0.124 0.069 0.028 0.022 0.037
O23 0.062 0.102 0.113 0.037 0.042 0.031
O25 0.05 0.13 0.128 0.051 0.029 0.047
N14 0.041 0.086 0.066 0.026 0.015 0.028
O11 0.056 0.068 0.092 0.039 0.033 0.036
O13 0.07 0.349 0.23 0.205 0.082 0.119
O14 0.133 0.23 0.086 0.053 0.038 0.139
N7 0.039 0.073 0.078 0.021 0.021 0.022
N8 0.039 0.075 0.109 0.036 0.024 0.027
N9 0.053 0.067 0.118 0.044 0.039 0.035
N10 0.038 0.105 0.082 0.043 0.016 0.038
N11 0.042 0.092 0.067 0.028 0.019 0.028
C49 0.042 0.077 0.117 0.016 0.031 0.025
C50 0.047 0.074 0.118 0.021 0.029 0.026
C51 0.042 0.071 0.103 0.03 0.027 0.029
C52 0.044 0.072 0.107 0.025 0.032 0.028
C53 0.047 0.071 0.11 0.02 0.031 0.023
C54 0.044 0.068 0.11 0.031 0.024 0.027
C55 0.04 0.07 0.115 0.033 0.028 0.027
C56 0.042 0.073 0.118 0.041 0.023 0.024
C57 0.041 0.068 0.122 0.044 0.028 0.025
C58 0.044 0.067 0.123 0.047 0.03 0.025
C59 0.043 0.085 0.136 0.049 0.025 0.034
C60 0.053 0.09 0.141 0.046 0.029 0.038
C61 0.063 0.108 0.142 0.053 0.028 0.05
C62 0.06 0.123 0.14 0.067 0.032 0.05
C63 0.056 0.125 0.161 0.057 0.02 0.034
C64 0.053 0.106 0.159 0.049 0.018 0.031
C65 0.05 0.073 0.136 0.046 0.033 0.033
C66 0.056 0.077 0.142 0.045 0.047 0.032
C67 0.065 0.083 0.142 0.048 0.052 0.028
C68 0.055 0.081 0.17 0.047 0.03 0.037
C69 0.054 0.079 0.159 0.05 0.031 0.029
C70 0.068 0.143 0.127 0.079 0.038 0.059
C71 0.05 0.101 0.093 0.049 0.023 0.034
C72 0.04 0.107 0.084 0.046 0.022 0.029
C73 0.036 0.102 0.075 0.038 0.023 0.033
C74 0.048 0.119 0.081 0.044 0.024 0.036
C75 0.041 0.128 0.091 0.048 0.027 0.036
C76 0.038 0.095 0.068 0.032 0.019 0.031
C77 0.042 0.094 0.064 0.03 0.016 0.033
C80 0.04 0.099 0.066 0.033 0.016 0.034
C83 0.044 0.109 0.07 0.034 0.02 0.039
C84 0.041 0.119 0.074 0.036 0.019 0.037
C85 0.04 0.124 0.069 0.028 0.022 0.037
C32 0.041 0.097 0.07 0.032 0.016 0.032
C33 0.04 0.099 0.068 0.032 0.015 0.032
C35 0.048 0.126 0.072 0.037 0.024 0.044
C36 0.048 0.123 0.074 0.039 0.02 0.043
C40 0.038 0.108 0.077 0.03 0.017 0.036
C41 0.047 0.109 0.079 0.037 0.018 0.033
C42 0.053 0.106 0.085 0.036 0.024 0.039
C43 0.05 0.103 0.094 0.035 0.024 0.038
C44 0.049 0.123 0.092 0.03 0.017 0.037
C45 0.047 0.127 0.084 0.025 0.01 0.035
C46 0.049 0.094 0.105 0.036 0.035 0.039
O1 0.078 0.07 0.074 0.035 0.024 0.027
C1 0.045 0.08 0.065 0.039 0.024 0.032
O12 0.068 0.074 0.081 0.026 0.028 0.032
C48 0.038 0.072 0.079 0.03 0.019 0.027
O4 0.068 0.074 0.081 0.026 0.028 0.032
C24 0.038 0.072 0.079 0.03 0.019 0.027
O9 0.078 0.07 0.074 0.035 0.024 0.027
C47 0.045 0.08 0.065 0.039 0.024 0.032
loop_
_geom_bond_atom_site_label_1
_geom_bond_atom_site_label_2
_geom_bond_site_symmetry_1
_geom_bond_site_symmetry_2
O10 Zn9 1_555 1_555
O15 C92 1_555 1_555
O16 C92 1_555 1_555
C79 C78 1_555 1_555
H48 C79 1_555 1_555
C81 H49 1_555 1_555
C82 C81 1_555 1_555
H50 C82 1_555 1_555
C86 C78 1_555 1_555
C87 C86 1_555 1_555
H53 C87 1_555 1_555
C88 C87 1_555 1_555
H54 C88 1_555 1_555
C89 C88 1_555 1_555
C90 C89 1_555 1_555
H55 C90 1_555 1_555
C91 C86 1_555 1_555
H56 C91 1_555 1_555
C92 C89 1_555 1_555
Zn11 O15 1_555 1_555
O16 Zn11 1_555 1_555
C90 C91 1_555 1_555
Zn1 O2 1_555 1_555
Zn2 O3 1_555 1_555
O19 C23 1_555 1_555
O21 C23 1_555 1_555
N1 Zn1 1_555 1_555
N2 C7 1_555 1_555
N3 Zn2 1_555 1_555
N4 Zn2 1_555 1_555
N5 C30 1_555 1_555
C2 N1 1_555 1_555
H1 C2 1_555 1_555
C3 C2 1_555 1_555
H2 C3 1_555 1_555
C4 C3 1_555 1_555
C5 C4 1_555 1_555
H3 C5 1_555 1_555
C6 N1 1_555 1_555
H4 C6 1_555 1_555
C7 C4 1_555 1_555
C8 C7 1_555 1_555
H5 C8 1_555 1_555
C9 C8 1_555 1_555
C10 C9 1_555 1_555
H6 C10 1_555 1_555
C11 N2 1_555 1_555
C12 C9 1_555 1_555
C13 C12 1_555 1_555
H7 C13 1_555 1_555
C14 C13 1_555 1_555
H8 C14 1_555 1_555
C15 C14 1_555 1_555
C16 C15 1_555 1_555
H9 C16 1_555 1_555
C17 C12 1_555 1_555
H10 C17 1_555 1_555
C18 C11 1_555 1_555
C19 C18 1_555 1_555
H11 C19 1_555 1_555
C20 N3 1_555 1_555
H12 C20 1_555 1_555
C21 N3 1_555 1_555
H13 C21 1_555 1_555
C22 C18 1_555 1_555
H14 C22 1_555 1_555
C23 C15 1_555 1_555
C25 N4 1_555 1_555
H15 C25 1_555 1_555
C26 C25 1_555 1_555
H16 C26 1_555 1_555
C27 C26 1_555 1_555
C28 C27 1_555 1_555
H17 C28 1_555 1_555
C29 N4 1_555 1_555
H18 C29 1_555 1_555
C30 C27 1_555 1_555
C31 C30 1_555 1_555
H19 C31 1_555 1_555
C34 N5 1_555 1_555
C37 C34 1_555 1_555
C38 C37 1_555 1_555
H23 C38 1_555 1_555
C39 N6 1_555 1_555
H24 C39 1_555 1_555
Zn9 N6 1_555 1_555
O23 Zn2 1_555 1_555
O25 Zn2 1_555 1_555
N14 Zn1 1_555 1_555
C5 C6 1_555 1_555
C10 C11 1_555 1_555
C16 C17 1_555 1_555
C19 C20 1_555 1_555
C21 C22 1_555 1_555
C28 C29 1_555 1_555
C38 C39 1_555 1_555
Zn9 N7 1_555 1_555
O13 C70 1_555 1_555
O14 C70 1_555 1_555
N7 C49 1_555 1_555
N8 C54 1_555 1_555
N9 Zn11 1_555 1_555
N10 Zn11 1_555 1_555
N11 C76 1_555 1_555
C49 H29 1_555 1_555
C50 C49 1_555 1_555
H30 C50 1_555 1_555
C51 C50 1_555 1_555
C52 C51 1_555 1_555
H31 C52 1_555 1_555
C53 N7 1_555 1_555
H32 C53 1_555 1_555
C54 C51 1_555 1_555
C55 C54 1_555 1_555
H33 C55 1_555 1_555
C56 C55 1_555 1_555
C57 C56 1_555 1_555
H34 C57 1_555 1_555
C58 N8 1_555 1_555
C59 C56 1_555 1_555
C60 C59 1_555 1_555
H35 C60 1_555 1_555
C61 C60 1_555 1_555
H36 C61 1_555 1_555
C62 C61 1_555 1_555
C63 C62 1_555 1_555
H37 C63 1_555 1_555
C64 C59 1_555 1_555
H38 C64 1_555 1_555
C65 C58 1_555 1_555
C66 C65 1_555 1_555
H39 C66 1_555 1_555
C67 N9 1_555 1_555
H40 C67 1_555 1_555
C68 N9 1_555 1_555
H41 C68 1_555 1_555
C69 C65 1_555 1_555
H42 C69 1_555 1_555
C70 C62 1_555 1_555
C71 N10 1_555 1_555
H43 C71 1_555 1_555
C72 C71 1_555 1_555
H44 C72 1_555 1_555
C73 C72 1_555 1_555
C74 C73 1_555 1_555
H45 C74 1_555 1_555
C75 N10 1_555 1_555
H46 C75 1_555 1_555
C76 C73 1_555 1_555
C77 C76 1_555 1_555
H47 C77 1_555 1_555
C80 N11 1_555 1_555
C83 C80 1_555 1_555
C84 C83 1_555 1_555
H51 C84 1_555 1_555
C85 N14 1_555 1_555
H52 C85 1_555 1_555
O11 Zn11 1_555 1_555
C52 C53 1_555 1_555
C57 C58 1_555 1_555
C63 C64 1_555 1_555
C66 C67 1_555 1_555
C68 C69 1_555 1_555
C74 C75 1_555 1_555
C84 C85 1_555 1_555
O23 C46 1_555 1_555
O25 C46 1_555 1_555
C33 C32 1_555 1_555
H20 C33 1_555 1_555
C35 H21 1_555 1_555
C36 C35 1_555 1_555
H22 C36 1_555 1_555
C40 C32 1_555 1_555
C41 C40 1_555 1_555
H25 C41 1_555 1_555
C42 C41 1_555 1_555
H26 C42 1_555 1_555
C43 C42 1_555 1_555
C44 C43 1_555 1_555
H27 C44 1_555 1_555
C45 C40 1_555 1_555
H28 C45 1_555 1_555
C46 C43 1_555 1_555
C44 C45 1_555 1_555
O1 C1 1_555 1_555
C48 O12 1_555 1_555
O4 C24 1_555 1_555
C47 O9 1_555 1_555

#END
