
###############################################################################
#
# This file contains modified crystal structure data generated from the
# MOF subset of the Cambridge Structural Database (CSD) v543 
# hosted by the Cambridge Crystallographic Data Centre (CCDC).
#
# This work is licensed under the Creative Commons
# Attribution-NonCommercial-ShareAlike 4.0 International License.
# To view a copy of this license, visit
# http://creativecommons.org/licenses/by-nc-sa/4.0/
# or send a letter to
# Creative Commons, PO Box 1866, Mountain View, CA 94042, USA.
#
# CIF created using the CSD Python API on 29 September 2022
# The structure has been converted into the P1 space group
# The structure has a 3D framework
# The original CSD entry AXUVAT is in the monoclinic crystal system
# The framework has been calculated to contain at least 10.0% void space
# The void calculation uses a probe of radius 1.32A, grid spacing 0.4
#
###############################################################################

data_AXUVAT
_chemical_formula_moiety         '(C44 H54 N4 O23 Sr4)n'
_symmetry_cell_setting           triclinic
_symmetry_space_group_name_H-M   'P 1'
_symmetry_Int_Tables_number      1
_space_group_name_Hall           'P 1'
loop_
_symmetry_equiv_pos_site_id
_symmetry_equiv_pos_as_xyz
1 x,y,z
_cell_length_a                   13.0186(8)
_cell_length_b                   6.8556(4)
_cell_length_c                   18.1198(12)
_cell_angle_alpha                90
_cell_angle_beta                 103.328(7)
_cell_angle_gamma                90
_cell_volume                     1573.64
loop_
_atom_site_label
_atom_site_type_symbol
_atom_site_fract_x
_atom_site_fract_y
_atom_site_fract_z
O1 O 0.6740(3) 0.1316(6) 0.6813(2)
C6 C 0.5661(5) 0.1519(10) 0.5276(4)
H5 H 0.6111 0.2552 0.5459
O8 O 0.3384(3) 0.1872(6) 0.3214(2)
C12 C 0.3612(4) 0.0236(8) 0.3505(4)
C13 C 0.4331(5) 0.0129(8) 0.4282(4)
C14 C 0.5001(5) 0.1642(10) 0.4578(4)
H14 H 0.5000 0.2770 0.4293
H25 H 0.6839 0.0203 0.3955
Sr3 Sr 0.66422(4) 0.47224(8) 0.72367(3)
Sr6 Sr 0.33578(4) 0.52776(8) 0.27633(3)
Sr7 Sr 0.16422(4) 0.02776(8) 0.22367(3)
O9 O 0.4093(4) 0.6804(8) 0.1644(3)
O10 O 0.4117(4) 0.3633(8) 0.1699(3)
C16 C 0.4633(6) 0.5099(9) 0.0661(4)
C17 C 0.4659(5) 0.3359(11) 0.0305(4)
H16 H 0.4417 0.2241 0.0501
C18 C 0.4246(5) 0.5170(10) 0.1378(4)
C19 C 0.4956(5) 0.6769(11) 0.0351(4)
H17 H 0.4917 0.7974 0.0579
O2 O 0.6616(3) 0.8128(6) 0.6786(2)
O3 O 0.7924(4) 0.4771(7) 0.6346(3)
H1 H 0.7591 0.4518 0.5873
H2 H 0.8379 0.3803 0.6455
O4 O 0.5907(4) 0.3196(8) 0.8356(3)
O5 O 0.5883(4) 0.6367(8) 0.8301(3)
O6 O 0.4745(4) 0.4423(9) 0.6532(4)
C1 C 0.6388(4) 0.9764(8) 0.6495(4)
C2 C 0.5669(5) 0.9871(8) 0.5718(4)
C3 C 0.4999(5) 0.8358(10) 0.5422(4)
H3 H 0.5000 0.7230 0.5707
C4 C 0.5367(6) 0.4901(9) 0.9339(4)
C5 C 0.5341(5) 0.6641(11) 0.9695(4)
H4 H 0.5583 0.7759 0.9499
C7 C 0.5754(5) 0.4830(10) 0.8622(4)
C8 C 0.5044(5) 0.3231(11) 0.9649(4)
H6 H 0.5083 0.2026 0.9421
N1 N 0.3239(8) 0.280(2) 0.6071(8)
C9 C 0.4205(9) 0.313(3) 0.6486(8)
H7 H 0.4465 0.1981 0.6734
C10 C 0.2864(12) 0.409(3) 0.5501(11)
H8 H 0.2853 0.5349 0.5728
H9 H 0.3313 0.4121 0.5149
H10 H 0.2161 0.3734 0.5238
C11 C 0.2669(13) 0.084(3) 0.6041(13)
H11 H 0.2389 0.0764 0.6485
H13 H 0.2103 0.0738 0.5596
O7 O 0.3260(3) 0.8684(6) 0.3187(2)
C15 C 0.4339(5) 0.8481(10) 0.4724(4)
H15 H 0.3889 0.7448 0.4541
O11 O 0.2076(4) 0.5229(7) 0.3654(3)
H18 H 0.2409 0.5482 0.4127
H19 H 0.1621 0.6197 0.3545
O12 O 0.5255(4) 0.5577(9) 0.3468(4)
N2 N 0.6761(8) 0.720(2) 0.3929(8)
C20 C 0.5795(9) 0.687(3) 0.3514(8)
H20 H 0.5535 0.8019 0.3266
C21 C 0.7136(12) 0.591(3) 0.4499(11)
H21 H 0.7147 0.4651 0.4272
H22 H 0.6687 0.5879 0.4851
H23 H 0.7839 0.6266 0.4762
C22 C 0.7331(13) 0.916(3) 0.3959(13)
H24 H 0.7611 0.9236 0.3515
H26 H 0.7897 0.9262 0.4404
Sr4 Sr 0.83578(4) 0.97224(8) 0.77633(3)
O14 O 0.8260(3) 0.6316(6) 0.8187(2)
O15 O 0.1740(3) 0.3684(6) 0.1813(2)
O16 O 0.8384(3) 0.3128(6) 0.8214(2)
O18 O 0.1616(3) 0.6872(6) 0.1786(2)
H12 H 0.3161 0.9797 0.6045
C12_2 C 0.1388(4) 0.5236(8) 0.1495(4)
C13_2 C 0.0669(5) 0.5129(8) 0.0718(4)
H14_2 H 0.0000 0.7770 0.0707
C15_2 C 0.0661(5) 0.3481(10) 0.0276(4)
H15_2 H 0.1111 0.2448 0.0459
O11_2 O 0.2924(4) 0.0229(7) 0.1346(3)
H18_2 H 0.2591 0.0482 0.0873
H19_2 H 0.3379 0.1197 0.1455
O19 O 0.0907(4) 0.1804(8) 0.3356(3)
C3_2 C 0.0001(5) 0.3358(10) 0.9578(4)
H3_2 H 0.0000 0.2230 0.9293
H8_2 H 0.2147 0.0349 0.9272
C16_2 C 0.0367(6) 0.0099(9) 0.4339(4)
C18_2 C 0.0754(5) 0.0170(10) 0.3622(4)
C19_2 C 0.0044(5) 0.1769(11) 0.4649(4)
H17_2 H 0.0083 0.2974 0.4421
O20 O 0.0883(4) 0.8633(8) 0.3301(3)
O6_2 O 0.0255(4) 0.9423(9) 0.8468(4)
N1_2 N 0.1761(8) 0.780(2) 0.8929(8)
C9_2 C 0.0795(9) 0.813(3) 0.8514(8)
H7_2 H 0.0535 0.6981 0.8266
C10_2 C 0.2136(12) 0.909(3) 0.9499(11)
H9_2 H 0.1687 0.9121 0.9851
H10_2 H 0.2839 0.8734 0.9762
C11_2 C 0.2331(13) 0.584(3) 0.8959(13)
H11_2 H 0.2611 0.5764 0.8515
H12_2 H 0.1839 0.4797 0.8955
H13_2 H 0.2897 0.5738 0.9404
C17_2 C 0.0341(5) 0.8359(11) 0.4695(4)
H16_2 H 0.0583 0.7241 0.4499
C14_2 C 0.9999(5) 0.6642(10) 0.0422(4)
H14_3 H 1.0000 0.7770 0.0707
O12_2 O 0.9745(4) 0.0577(9) 0.1532(4)
N2_2 N 0.8239(8) 0.220(2) 0.1071(8)
C20_2 C 0.9205(9) 0.187(3) 0.1486(8)
H20_2 H 0.9465 0.3019 0.1734
C21_2 C 0.7864(12) 0.091(3) 0.0501(11)
H22_2 H 0.8313 0.0879 0.0149
H23_2 H 0.7161 0.1266 0.0238
C22_2 C 0.7669(13) 0.416(3) 0.1041(13)
H24_2 H 0.7389 0.4236 0.1485
H25_2 H 0.8161 0.5203 0.1045
H26_2 H 0.7103 0.4262 0.0596
O5_2 O 0.9117(4) 0.1367(8) 0.6699(3)
C1_2 C 0.8612(4) 0.4764(8) 0.8505(4)
C2_2 C 0.9331(5) 0.4871(8) 0.9282(4)
H3_3 H 1.0000 0.2230 0.9293
C5_2 C 0.9659(5) 0.1641(11) 0.5305(4)
H4_2 H 0.9417 0.2759 0.5501
C6_2 C 0.9339(5) 0.6519(10) 0.9724(4)
H5_2 H 0.8889 0.7552 0.9541
H21_2 H 0.7853 0.9651 0.0728
O3_2 O 0.7076(4) 0.9771(7) 0.8654(3)
H1_2 H 0.7409 0.9518 0.9127
H2_2 H 0.6621 0.8803 0.8545
O4_2 O 0.9093(4) 0.8196(8) 0.6644(3)
C4_2 C 0.9633(6) 0.9901(9) 0.5661(4)
C7_2 C 0.9246(5) 0.9830(10) 0.6378(4)
C8_2 C 0.9956(5) 0.8231(11) 0.5351(4)
H6_2 H 0.9917 0.7026 0.5579
loop_
_geom_bond_atom_site_label_1
_geom_bond_atom_site_label_2
_geom_bond_site_symmetry_1
_geom_bond_site_symmetry_2
H5 C6 1_555 1_555
O8 C12 1_555 1_555
C12 C13 1_555 1_555
C13 C14 1_555 1_555
C14 C6 1_555 1_555
H14 C14 1_555 1_555
Sr3 O1 1_555 1_555
Sr6 O8 1_555 1_555
O8 Sr7 1_555 1_555
O9 C18 1_555 1_555
O10 C18 1_555 1_555
C16 C17 1_555 1_555
H16 C17 1_555 1_555
C18 C16 1_555 1_555
H17 C19 1_555 1_555
Sr6 O9 1_555 1_555
O10 Sr6 1_555 1_555
C16 C19 1_555 1_555
Sr3 O2 1_555 1_555
O2 C1 1_555 1_555
O3 Sr3 1_555 1_555
H1 O3 1_555 1_555
H2 O3 1_555 1_555
O4 Sr3 1_555 1_555
O5 Sr3 1_555 1_555
O6 Sr3 1_555 1_555
C1 C2 1_555 1_555
C2 C3 1_555 1_555
C3 H3 1_555 1_555
C4 C5 1_555 1_555
C5 H4 1_555 1_555
C7 O4 1_555 1_555
C8 C4 1_555 1_555
H6 C8 1_555 1_555
N1 C9 1_555 1_555
C9 O6 1_555 1_555
H7 C9 1_555 1_555
C10 N1 1_555 1_555
H8 C10 1_555 1_555
H9 C10 1_555 1_555
H10 C10 1_555 1_555
C11 N1 1_555 1_555
H11 C11 1_555 1_555
H13 C11 1_555 1_555
C15 C3 1_555 1_555
H15 C15 1_555 1_555
Sr6 O7 1_555 1_555
O11 Sr6 1_555 1_555
H18 O11 1_555 1_555
H19 O11 1_555 1_555
O12 Sr6 1_555 1_555
N2 C20 1_555 1_555
C20 O12 1_555 1_555
H20 C20 1_555 1_555
C21 N2 1_555 1_555
H21 C21 1_555 1_555
H22 C21 1_555 1_555
H23 C21 1_555 1_555
C22 N2 1_555 1_555
H24 C22 1_555 1_555
H26 C22 1_555 1_555
O14 Sr3 1_555 1_555
O15 Sr6 1_555 1_555
O16 Sr3 1_555 1_555
O18 Sr6 1_555 1_555
O2 Sr4 1_555 1_555
O5 C7 1_555 1_555
C4 C7 1_555 1_555
Sr4 O14 1_555 1_555
O15 C12_2 1_555 1_555
O18 C12_2 1_555 1_555
C12_2 C13_2 1_555 1_555
H15_2 C15_2 1_555 1_555
Sr7 O15 1_555 1_555
O11_2 Sr7 1_555 1_555
H18_2 O11_2 1_555 1_555
H19_2 O11_2 1_555 1_555
O19 Sr7 1_555 1_555
C13_2 C15_2 1_555 1_555
C3_2 H3_2 1_555 1_555
O19 C18_2 1_555 1_555
C18_2 C16_2 1_555 1_555
H17_2 C19_2 1_555 1_555
C16_2 C19_2 1_555 1_555
N1_2 C9_2 1_555 1_555
C9_2 O6_2 1_555 1_555
H7_2 C9_2 1_555 1_555
C10_2 N1_2 1_555 1_555
H9_2 C10_2 1_555 1_555
H10_2 C10_2 1_555 1_555
C11_2 N1_2 1_555 1_555
H11_2 C11_2 1_555 1_555
H12_2 C11_2 1_555 1_555
H13_2 C11_2 1_555 1_555
H16_2 C17_2 1_555 1_555
H14_3 C14_2 1_555 1_555
N2_2 C20_2 1_555 1_555
C20_2 O12_2 1_555 1_555
H20_2 C20_2 1_555 1_555
C21_2 N2_2 1_555 1_555
H22_2 C21_2 1_555 1_555
H23_2 C21_2 1_555 1_555
C22_2 N2_2 1_555 1_555
H24_2 C22_2 1_555 1_555
H25_2 C22_2 1_555 1_555
H26_2 C22_2 1_555 1_555
O14 C1_2 1_555 1_555
O16 C1_2 1_555 1_555
C1_2 C2_2 1_555 1_555
C5_2 H4_2 1_555 1_555
C6_2 C2_2 1_555 1_555
H5_2 C6_2 1_555 1_555
O3_2 Sr4 1_555 1_555
H1_2 O3_2 1_555 1_555
H2_2 O3_2 1_555 1_555
O4_2 Sr4 1_555 1_555
C7_2 O4_2 1_555 1_555
C8_2 C4_2 1_555 1_555
H6_2 C8_2 1_555 1_555
C4_2 C7_2 1_555 1_555

#END
