
###############################################################################
#
# This file contains modified crystal structure data generated from the
# MOF subset of the Cambridge Structural Database (CSD) v543 
# hosted by the Cambridge Crystallographic Data Centre (CCDC).
#
# This work is licensed under the Creative Commons
# Attribution-NonCommercial-ShareAlike 4.0 International License.
# To view a copy of this license, visit
# http://creativecommons.org/licenses/by-nc-sa/4.0/
# or send a letter to
# Creative Commons, PO Box 1866, Mountain View, CA 94042, USA.
#
# CIF created using the CSD Python API on 29 September 2022
# The structure has been converted into the P1 space group
# The structure has a 3D framework
# The original CSD entry AYATUR is in the triclinic crystal system
# The framework has been calculated to contain at least 10.0% void space
# The void calculation uses a probe of radius 1.32A, grid spacing 0.4
#
###############################################################################

data_AYATUR
_chemical_formula_moiety         '(C16 H12 Ag2 O25 U4)n'
_symmetry_cell_setting           triclinic
_symmetry_space_group_name_H-M   'P 1'
_symmetry_Int_Tables_number      1
_space_group_name_Hall           'P 1'
loop_
_symmetry_equiv_pos_site_id
_symmetry_equiv_pos_as_xyz
1 x,y,z
_cell_length_a                   8.7147(5)
_cell_length_b                   10.2265(7)
_cell_length_c                   10.4323(6)
_cell_angle_alpha                113.368(4)
_cell_angle_beta                 99.416(4)
_cell_angle_gamma                110.693(4)
_cell_volume                     746.8
loop_
_atom_site_label
_atom_site_type_symbol
_atom_site_fract_x
_atom_site_fract_y
_atom_site_fract_z
U4 U 0.33112(3) 0.19338(3) 0.72808(3)
U2 U -0.0000 0.5000 0.5000
O3 O 0.1180(6) 0.5275(6) 0.6704(6)
O6 O 0.0552(6) 0.9997(5) 0.7143(6)
O7 O 0.0846(6) 0.7769(5) 0.6484(6)
Ag4 Ag 0.35510(8) 0.86232(7) 0.88453(8)
O27 O 0.2499(6) 0.6749(5) 0.4758(7)
O35 O 0.2414(6) 0.4043(5) 0.4152(6)
O25 O 0.7618(6) 0.0488(5) 0.4963(6)
H7 H 0.7483 0.1161 0.4795
H8 H 0.7837 0.0465 0.5902
Ag6 Ag 0.64490(8) 0.13768(7) 0.11547(8)
O29 O 0.9448(6) 0.0003(5) 0.2857(6)
O9 O 0.7657(6) 0.0078(6) 0.9837(7)
O11 O 0.7368(6) 0.7018(5) 0.0539(6)
U3 U 0.66888(3) 0.80662(3) 0.27192(3)
O14 O 0.5406(6) 0.8690(6) 0.1828(6)
O15 O 0.7972(6) 0.7492(6) 0.3651(6)
O16 O 0.4734(6) 0.7601(5) 0.4073(6)
O20 O 0.4650(6) 0.2291(6) 0.1833(7)
O22 O 0.4540(7) 0.5419(6) 0.1285(6)
C9 C 0.3438(8) 0.4855(7) 0.3505(8)
H9 H 0.4627 0.4911 0.3737
C10 C 0.1837(9) 0.2334(7) 0.3221(8)
H10 H 0.2658 0.2004 0.3638
C11 C 0.1803(8) 0.2046(7) 0.1639(8)
H11 H 0.0584 0.1299 0.0897
C12 C 0.2382(8) 0.3766(7) 0.1838(9)
H12 H 0.1300 0.3899 0.1638
C13 C 0.3590(8) 0.6527(7) 0.4139(8)
C14 C 0.0009(8) 0.1457(7) 0.3219(8)
C15 C 0.3043(8) 0.1364(8) 0.1193(8)
C16 C 0.3258(9) 0.4061(8) 0.0789(9)
O32 O 0.9154(6) 0.2231(5) 0.3516(6)
O34 O 0.2343(6) 0.9922(6) 0.0163(7)
U2_2 U 1.0000 0.5000 0.5000
O1 O 0.4594(6) 0.1310(6) 0.8172(6)
O2 O 0.2028(6) 0.2508(6) 0.6349(6)
O4 O 0.5266(6) 0.2399(5) 0.5927(6)
O5 O 0.7501(6) 0.3251(5) 0.5242(7)
O8 O 0.5350(6) 0.7709(6) 0.8167(7)
O10 O 0.5460(7) 0.4581(6) 0.8715(6)
O12 O 0.7586(6) 0.5957(5) 0.5848(6)
C1 C 0.6562(8) 0.5145(7) 0.6495(8)
H3 H 0.5373 0.5089 0.6263
C2 C 0.8163(9) 0.7666(7) 0.6779(8)
H4 H 0.7342 0.7996 0.6362
C3 C 0.8197(8) 0.7954(7) 0.8361(8)
H5 H 0.9416 0.8701 0.9103
C4 C 0.7618(8) 0.6234(7) 0.8162(9)
H6 H 0.8700 0.6101 0.8362
C5 C 0.6410(8) 0.3473(7) 0.5861(8)
C6 C 0.9991(8) 0.8543(7) 0.6781(8)
C7 C 0.6957(8) 0.8636(8) 0.8807(8)
C8 C 0.6742(9) 0.5939(8) 0.9211(9)
O23 O 0.2632(6) 0.2982(5) 0.9461(6)
O26 O 0.8820(6) 0.4725(6) 0.3296(6)
O13 O 0.2382(6) 0.9512(5) 0.5037(6)
H1 H 0.2517 0.8839 0.5205
H2 H 0.2163 0.9535 0.4098
loop_
_geom_bond_atom_site_label_1
_geom_bond_atom_site_label_2
_geom_bond_site_symmetry_1
_geom_bond_site_symmetry_2
U2 O3 1_555 1_555
O7 U2 1_555 1_555
Ag4 O7 1_555 1_555
O27 U2 1_555 1_555
O35 U2 1_555 1_555
H7 O25 1_555 1_555
H8 O25 1_555 1_555
U3 O11 1_555 1_555
Ag6 O20 1_555 1_555
O14 U3 1_555 1_555
O15 U3 1_555 1_555
O16 U3 1_555 1_555
O27 C13 1_555 1_555
O20 C15 1_555 1_555
O22 U3 1_555 1_555
O35 C9 1_555 1_555
C9 H9 1_555 1_555
C10 O35 1_555 1_555
H10 C10 1_555 1_555
C11 C10 1_555 1_555
H11 C11 1_555 1_555
C12 C9 1_555 1_555
H12 C12 1_555 1_555
C13 O16 1_555 1_555
C14 C10 1_555 1_555
C15 C11 1_555 1_555
C16 O22 1_555 1_555
O32 Ag6 1_555 1_555
C9 C13 1_555 1_555
C11 C12 1_555 1_555
C12 C16 1_555 1_555
U4 O1 1_555 1_555
Ag4 O8 1_555 1_555
O2 U4 1_555 1_555
O4 U4 1_555 1_555
O5 U2_2 1_555 1_555
O8 C7 1_555 1_555
O10 U4 1_555 1_555
O12 U2_2 1_555 1_555
C1 O12 1_555 1_555
H3 C1 1_555 1_555
C2 O12 1_555 1_555
H4 C2 1_555 1_555
C3 C2 1_555 1_555
H5 C3 1_555 1_555
C4 C1 1_555 1_555
H6 C4 1_555 1_555
C5 O4 1_555 1_555
C7 C3 1_555 1_555
C8 O10 1_555 1_555
O23 U4 1_555 1_555
O26 U2_2 1_555 1_555
O32 U2_2 1_555 1_555
O5 C5 1_555 1_555
C1 C5 1_555 1_555
C2 C6 1_555 1_555
C3 C4 1_555 1_555
C4 C8 1_555 1_555
H1 O13 1_555 1_555
H2 O13 1_555 1_555

#END
