
###############################################################################
#
# This file contains modified crystal structure data generated from the
# MOF subset of the Cambridge Structural Database (CSD) v543 
# hosted by the Cambridge Crystallographic Data Centre (CCDC).
#
# This work is licensed under the Creative Commons
# Attribution-NonCommercial-ShareAlike 4.0 International License.
# To view a copy of this license, visit
# http://creativecommons.org/licenses/by-nc-sa/4.0/
# or send a letter to
# Creative Commons, PO Box 1866, Mountain View, CA 94042, USA.
#
# CIF created using the CSD Python API on 29 September 2022
# The structure has been converted into the P1 space group
# The structure has a 3D framework
# The original CSD entry AYEQEC is in the monoclinic crystal system
# The framework has been calculated to contain at least 10.0% void space
# The void calculation uses a probe of radius 1.32A, grid spacing 0.4
#
###############################################################################

data_AYEQEC
_chemical_formula_moiety         '(C80 H64 Cu11 F23 N20 Si4)n'
_symmetry_cell_setting           triclinic
_symmetry_space_group_name_H-M   'P 1'
_symmetry_Int_Tables_number      1
_space_group_name_Hall           'P 1'
loop_
_symmetry_equiv_pos_site_id
_symmetry_equiv_pos_as_xyz
1 x,y,z
_cell_length_a                   16.3875(2)
_cell_length_b                   16.6136(2)
_cell_length_c                   14.7959(2)
_cell_angle_alpha                90
_cell_angle_beta                 90.6540(10)
_cell_angle_gamma                90
_cell_volume                     4028
loop_
_atom_site_label
_atom_site_type_symbol
_atom_site_fract_x
_atom_site_fract_y
_atom_site_fract_z
Cu4 Cu 0.0000 0.0000 0.0000
Cu4_2 Cu 0.0000 0.0000 1.0000
Cu7 Cu 0.5000 0.0000 -0.0000
Cu1 Cu 0.0000 0.5000 0.5000
Cu2 Cu 0.5000 0.5000 0.5000
Si1 Si 0.24851(2) 0.50181(2) 0.49951(2)
F1 F 0.14392(6) 0.50149(4) 0.50157(6)
F2 F 0.35288(6) 0.49872(4) 0.49705(6)
F3 F 0.25214(6) 0.49217(7) 0.61255(7)
F4 F 0.25001(5) 0.60099(6) 0.50857(8)
F5 F 0.24470(6) 0.51068(7) 0.38628(7)
F6 F 0.24575(5) 0.40086(6) 0.48849(9)
N2 N -0.00003(7) 0.09067(7) 0.90635(7)
N3 N 0.50157(7) 0.08206(7) 0.10342(7)
N4 N 0.50009(7) 0.40834(7) 0.41061(7)
C1 C 0.50172(8) 0.27683(8) 0.29304(9)
C2 C 0.56598(8) 0.33166(8) 0.29579(9)
H1 H 0.6114 0.3250 0.2572
C3 C 0.50242(8) 0.20746(8) 0.23027(9)
C5 C 0.43162(8) 0.11255(8) 0.13529(9)
H2 H 0.3814 0.0907 0.1139
C7 C 0.43615(8) 0.29027(8) 0.35038(9)
H3 H 0.3911 0.2543 0.3504
C8 C 0.56320(8) 0.39594(8) 0.35523(9)
H4 H 0.6076 0.4327 0.3569
C9 C 0.07202(8) 0.18464(9) 0.81404(10)
H5 H 0.1227 0.2038 0.7920
C11 C 0.42956(8) 0.17432(9) 0.19781(9)
H7 H 0.3787 0.1941 0.2186
C12 C 0.43721(8) 0.35642(8) 0.40738(9)
H8 H 0.3919 0.3654 0.4455
C13 C 0.06999(8) 0.11997(9) 0.87270(10)
H9 H 0.1200 0.0952 0.8900
C14 C 0.06262(8) 0.29879(9) 0.66202(10)
H10 H 0.1066 0.2616 0.6620
C15 C 0.57206(8) 0.11186(9) 0.13636(10)
H11 H 0.6220 0.0897 0.1158
C16 C 0.57484(8) 0.17385(9) 0.19922(10)
H12 H 0.6259 0.1933 0.2210
C20 C 0.06131(8) 0.36237(9) 0.60178(10)
H16 H 0.1058 0.3687 0.5618
N5 N 0.00035(7) 0.58457(7) 0.40234(8)
N6 N 0.00003(7) 0.90933(7) 0.09365(7)
C21 C 0.00106(8) 0.71033(8) 0.27718(9)
C22 C 0.00090(8) 0.77830(8) 0.21262(9)
C24 C 0.06460(8) 0.65430(8) 0.28109(9)
H18 H 0.1089 0.6582 0.2405
C27 C 0.07321(8) 0.80833(9) 0.17696(9)
H21 H 0.1240 0.7844 0.1928
C28 C 0.07035(8) 0.87337(9) 0.11816(9)
H22 H 0.1200 0.8932 0.0943
C29 C 0.06252(8) 0.59319(8) 0.34451(9)
H23 H 0.1065 0.5560 0.3473
N7 N 0.50157(7) 0.41794(7) 0.60342(7)
N8 N 0.50009(7) 0.09166(7) 0.91061(7)
C31 C 0.50172(8) 0.22317(8) 0.79304(9)
C32 C 0.56598(8) 0.16834(8) 0.79579(9)
H25 H 0.6114 0.1750 0.7572
C33 C 0.50242(8) 0.29254(8) 0.73027(9)
C34 C 0.43162(8) 0.38745(8) 0.63529(9)
H26 H 0.3814 0.4093 0.6139
C35 C 0.43615(8) 0.20973(8) 0.85038(9)
H27 H 0.3911 0.2457 0.8504
C36 C 0.56320(8) 0.10406(8) 0.85523(9)
H28 H 0.6076 0.0673 0.8569
C37 C 0.42956(8) 0.32568(9) 0.69781(9)
H29 H 0.3787 0.3059 0.7186
C38 C 0.43721(8) 0.14358(8) 0.90738(9)
H30 H 0.3919 0.1346 0.9455
C39 C 0.57206(8) 0.38814(9) 0.63636(10)
H31 H 0.6220 0.4103 0.6158
C40 C 0.57484(8) 0.32615(9) 0.69922(10)
H32 H 0.6259 0.3067 0.7210
Cu4_3 Cu 0.0000 1.0000 0.0000
Cu7_2 Cu 0.5000 0.0000 1.0000
F13 F 0.64712(6) 0.50128(4) 0.50295(6)
N9 N 0.00003(7) 0.59067(7) 0.59365(7)
N10 N -0.00003(7) 0.40933(7) 0.40635(7)
N11 N 0.49843(7) 0.58206(7) 0.39658(7)
N12 N 0.49991(7) 0.59166(7) 0.58939(7)
Cu4_4 Cu 0.0000 1.0000 1.0000
Cu7_3 Cu 0.5000 1.0000 -0.0000
Cu7_4 Cu 0.5000 1.0000 1.0000
Cu4_5 Cu 1.0000 0.0000 0.0000
Cu4_6 Cu 1.0000 0.0000 1.0000
Cu1_2 Cu 1.0000 0.5000 0.5000
N1 N 0.99965(7) 0.41543(7) 0.59766(8)
N2_2 N 0.99997(7) 0.09067(7) 0.90635(7)
C4 C 0.99894(8) 0.28967(8) 0.72282(9)
C6 C 0.99910(8) 0.22170(8) 0.78738(9)
C10 C 0.93540(8) 0.34570(8) 0.71891(9)
H6 H 0.8911 0.3418 0.7595
C17 C 0.92679(8) 0.19167(9) 0.82304(9)
H13 H 0.8760 0.2156 0.8072
C18 C 0.92965(8) 0.12663(9) 0.88184(9)
H14 H 0.8800 0.1068 0.9057
C19 C 0.93748(8) 0.40681(8) 0.65549(9)
H15 H 0.8935 0.4440 0.6527
Si2 Si 0.75149(2) 0.49819(2) 0.50049(2)
F7 F 0.85608(6) 0.49851(4) 0.49843(6)
F9 F 0.74786(6) 0.50783(7) 0.38745(7)
F10 F 0.74999(5) 0.39901(6) 0.49143(8)
F11 F 0.75530(6) 0.48932(7) 0.61372(7)
F12 F 0.75425(5) 0.59914(6) 0.51151(9)
N6_2 N 1.00003(7) 0.90933(7) 0.09365(7)
C23 C 0.92798(8) 0.81536(9) 0.18596(10)
H17 H 0.8773 0.7962 0.2080
C25 C 0.93001(8) 0.88003(9) 0.12730(10)
H19 H 0.8800 0.9048 0.1100
C26 C 0.93738(8) 0.70121(9) 0.33798(10)
H20 H 0.8934 0.7384 0.3380
C30 C 0.93869(8) 0.63763(9) 0.39822(10)
H24 H 0.8942 0.6313 0.4382
Cu4_7 Cu 1.0000 1.0000 0.0000
N9_2 N 1.00003(7) 0.59067(7) 0.59365(7)
N10_2 N 0.99997(7) 0.40933(7) 0.40635(7)
Cu4_8 Cu 1.0000 1.0000 1.0000
F9_2 F 0.25214(6) 0.00783(7) 0.11255(7)
C23_2 C 0.07202(8) 0.31536(9) 0.31404(10)
H17_2 H 0.1227 0.2962 0.2920
C25_2 C 0.06999(8) 0.38003(9) 0.37270(10)
H19_2 H 0.1200 0.4048 0.3900
C26_2 C 0.06262(8) 0.20121(9) 0.16202(10)
H20_2 H 0.1066 0.2384 0.1620
C30_2 C 0.06131(8) 0.13763(9) 0.10178(10)
H24_2 H 0.1058 0.1313 0.0618
F8 F 0.35288(6) 0.00128(4) 0.99705(6)
F12_2 F 0.24575(5) 0.09914(6) 0.98849(9)
F7_2 F 0.14392(6) 0.99851(4) 0.00157(6)
F10_2 F 0.25001(5) 0.89901(6) 0.00857(8)
N1_2 N 0.00035(7) 0.91543(7) 0.90234(8)
C4_2 C 0.00106(8) 0.78967(8) 0.77718(9)
C6_2 C 0.00090(8) 0.72170(8) 0.71262(9)
C10_2 C 0.06460(8) 0.84570(8) 0.78109(9)
H6_2 H 0.1089 0.8418 0.7405
C17_2 C 0.07321(8) 0.69167(9) 0.67696(9)
H13_2 H 0.1240 0.7156 0.6928
C18_2 C 0.07035(8) 0.62663(9) 0.61816(9)
H14_2 H 0.1200 0.6068 0.5943
C19_2 C 0.06252(8) 0.90681(8) 0.84451(9)
H15_2 H 0.1065 0.9440 0.8473
Si2_2 Si 0.24851(2) 0.99819(2) 0.99951(2)
F11_2 F 0.24470(6) 0.98932(7) 0.88628(7)
Si1_2 Si 0.75149(2) 0.00181(2) 0.00049(2)
F5_2 F 0.75530(6) 0.01068(7) 0.11372(7)
N5_2 N 0.99965(7) 0.08457(7) 0.09766(8)
C21_2 C 0.99894(8) 0.21033(8) 0.22282(9)
C22_2 C 0.99910(8) 0.27830(8) 0.28738(9)
C24_2 C 0.93540(8) 0.15430(8) 0.21891(9)
H18_2 H 0.8911 0.1582 0.2595
C27_2 C 0.92679(8) 0.30833(9) 0.32304(9)
H21_2 H 0.8760 0.2844 0.3072
C28_2 C 0.92965(8) 0.37337(9) 0.38184(9)
H22_2 H 0.8800 0.3932 0.4057
C29_2 C 0.93748(8) 0.09319(8) 0.15549(9)
H23_2 H 0.8935 0.0560 0.1527
F1_2 F 0.85608(6) 0.00149(4) 0.99843(6)
F4_2 F 0.74999(5) 0.10099(6) 0.99143(8)
F2_2 F 0.64712(6) 0.99872(4) 0.00295(6)
F6_2 F 0.75425(5) 0.90086(6) 0.01151(9)
N4_2 N 0.49991(7) 0.90834(7) 0.08939(7)
C1_2 C 0.49828(8) 0.77683(8) 0.20696(9)
C2_2 C 0.43402(8) 0.83166(8) 0.20421(9)
H1_2 H 0.3886 0.8250 0.2428
C3_2 C 0.49758(8) 0.70746(8) 0.26973(9)
C5_2 C 0.56838(8) 0.61255(8) 0.36471(9)
H2_2 H 0.6186 0.5907 0.3861
C7_2 C 0.56385(8) 0.79027(8) 0.14962(9)
H3_2 H 0.6089 0.7543 0.1496
C8_2 C 0.43680(8) 0.89594(8) 0.14477(9)
H4_2 H 0.3924 0.9327 0.1431
C11_2 C 0.57044(8) 0.67432(9) 0.30219(9)
H7_2 H 0.6213 0.6941 0.2814
C12_2 C 0.56279(8) 0.85642(8) 0.09262(9)
H8_2 H 0.6081 0.8654 0.0545
C15_2 C 0.42794(8) 0.61186(9) 0.36364(10)
H11_2 H 0.3780 0.5897 0.3842
C16_2 C 0.42516(8) 0.67385(9) 0.30078(10)
H12_2 H 0.3741 0.6933 0.2790
F3_2 F 0.74786(6) 0.99217(7) 0.88745(7)
C9_2 C 0.92798(8) 0.68464(9) 0.68596(10)
H5_2 H 0.8773 0.7038 0.7080
C13_2 C 0.93001(8) 0.61997(9) 0.62730(10)
H9_2 H 0.8800 0.5952 0.6100
C14_2 C 0.93738(8) 0.79879(9) 0.83798(10)
H10_2 H 0.8934 0.7616 0.8380
C20_2 C 0.93869(8) 0.86237(9) 0.89822(10)
H16_2 H 0.8942 0.8687 0.9382
N7_2 N 0.49843(7) 0.91794(7) 0.89658(7)
C31_2 C 0.49828(8) 0.72317(8) 0.70696(9)
C32_2 C 0.43402(8) 0.66834(8) 0.70421(9)
H25_2 H 0.3886 0.6750 0.7428
C33_2 C 0.49758(8) 0.79254(8) 0.76973(9)
C34_2 C 0.56838(8) 0.88745(8) 0.86471(9)
H26_2 H 0.6186 0.9093 0.8861
C35_2 C 0.56385(8) 0.70973(8) 0.64962(9)
H27_2 H 0.6089 0.7457 0.6496
C36_2 C 0.43680(8) 0.60406(8) 0.64477(9)
H28_2 H 0.3924 0.5673 0.6431
C37_2 C 0.57044(8) 0.82568(9) 0.80219(9)
H29_2 H 0.6213 0.8059 0.7814
C38_2 C 0.56279(8) 0.64358(8) 0.59262(9)
H30_2 H 0.6081 0.6346 0.5545
C39_2 C 0.42794(8) 0.88814(9) 0.86364(10)
H31_2 H 0.3780 0.9103 0.8842
C40_2 C 0.42516(8) 0.82615(9) 0.80078(10)
H32_2 H 0.3741 0.8067 0.7790
loop_
_geom_bond_atom_site_label_1
_geom_bond_atom_site_label_2
_geom_bond_site_symmetry_1
_geom_bond_site_symmetry_2
Cu1 F1 1_555 1_555
Cu2 F2 1_555 1_555
Si1 F1 1_555 1_555
F2 Si1 1_555 1_555
F3 Si1 1_555 1_555
F4 Si1 1_555 1_555
F5 Si1 1_555 1_555
F6 Si1 1_555 1_555
N2 C13 1_555 1_555
N3 C5 1_555 1_555
N4 Cu2 1_555 1_555
C1 C2 1_555 1_555
C2 H1 1_555 1_555
C3 C1 1_555 1_555
C5 H2 1_555 1_555
C7 C1 1_555 1_555
H3 C7 1_555 1_555
C8 N4 1_555 1_555
H4 C8 1_555 1_555
C9 H5 1_555 1_555
C11 C3 1_555 1_555
H7 C11 1_555 1_555
C12 N4 1_555 1_555
H8 C12 1_555 1_555
C13 C9 1_555 1_555
H9 C13 1_555 1_555
H10 C14 1_555 1_555
C15 N3 1_555 1_555
H11 C15 1_555 1_555
C16 C3 1_555 1_555
H12 C16 1_555 1_555
H16 C20 1_555 1_555
N5 Cu1 1_555 1_555
C21 C22 1_555 1_555
C24 C21 1_555 1_555
H18 C24 1_555 1_555
C27 C22 1_555 1_555
H21 C27 1_555 1_555
C28 N6 1_555 1_555
H22 C28 1_555 1_555
C29 N5 1_555 1_555
H23 C29 1_555 1_555
N7 Cu2 1_555 1_555
N8 C36 1_555 1_555
C31 C32 1_555 1_555
C32 H25 1_555 1_555
C33 C31 1_555 1_555
C34 N7 1_555 1_555
H26 C34 1_555 1_555
C35 C31 1_555 1_555
H27 C35 1_555 1_555
C36 C32 1_555 1_555
H28 C36 1_555 1_555
C37 C33 1_555 1_555
H29 C37 1_555 1_555
C38 N8 1_555 1_555
H30 C38 1_555 1_555
C39 N7 1_555 1_555
H31 C39 1_555 1_555
C40 C33 1_555 1_555
H32 C40 1_555 1_555
Cu4_2 N2 1_555 1_555
Cu4_3 N6 1_555 1_555
Cu7 N3 1_555 1_555
Cu7_2 N8 1_555 1_555
F13 Cu2 1_555 1_555
N9 Cu1 1_555 1_555
N10 Cu1 1_555 1_555
N11 Cu2 1_555 1_555
N12 Cu2 1_555 1_555
C2 C8 1_555 1_555
C5 C11 1_555 1_555
C7 C12 1_555 1_555
C14 C20 1_555 1_555
C15 C16 1_555 1_555
C24 C29 1_555 1_555
C27 C28 1_555 1_555
C34 C37 1_555 1_555
C35 C38 1_555 1_555
C39 C40 1_555 1_555
N1 Cu1_2 1_555 1_555
C4 C6 1_555 1_555
C10 C4 1_555 1_555
H6 C10 1_555 1_555
C17 C6 1_555 1_555
H13 C17 1_555 1_555
C18 N2_2 1_555 1_555
H14 C18 1_555 1_555
C19 N1 1_555 1_555
H15 C19 1_555 1_555
Si2 F7 1_555 1_555
F7 Cu1_2 1_555 1_555
F13 Si2 1_555 1_555
F9 Si2 1_555 1_555
F10 Si2 1_555 1_555
F11 Si2 1_555 1_555
F12 Si2 1_555 1_555
N6_2 C25 1_555 1_555
C23 H17 1_555 1_555
C25 C23 1_555 1_555
H19 C25 1_555 1_555
H20 C26 1_555 1_555
H24 C30 1_555 1_555
Cu4_6 N2_2 1_555 1_555
Cu4_7 N6_2 1_555 1_555
N9_2 Cu1_2 1_555 1_555
N10_2 Cu1_2 1_555 1_555
C10 C19 1_555 1_555
C17 C18 1_555 1_555
C26 C30 1_555 1_555
N10 C25_2 1_555 1_555
C23_2 H17_2 1_555 1_555
C25_2 C23_2 1_555 1_555
H19_2 C25_2 1_555 1_555
H20_2 C26_2 1_555 1_555
H24_2 C30_2 1_555 1_555
C26_2 C30_2 1_555 1_555
Cu7_2 F8 1_555 1_555
F7_2 Cu4_3 1_555 1_555
N1_2 Cu4_4 1_555 1_555
C4_2 C6_2 1_555 1_555
C10_2 C4_2 1_555 1_555
H6_2 C10_2 1_555 1_555
C17_2 C6_2 1_555 1_555
H13_2 C17_2 1_555 1_555
C18_2 N9 1_555 1_555
H14_2 C18_2 1_555 1_555
C19_2 N1_2 1_555 1_555
H15_2 C19_2 1_555 1_555
F11_2 Si2_2 1_555 1_555
C10_2 C19_2 1_555 1_555
C17_2 C18_2 1_555 1_555
F5_2 Si1_2 1_555 1_555
N5_2 Cu4_5 1_555 1_555
C21_2 C22_2 1_555 1_555
C24_2 C21_2 1_555 1_555
H18_2 C24_2 1_555 1_555
C27_2 C22_2 1_555 1_555
H21_2 C27_2 1_555 1_555
C28_2 N10_2 1_555 1_555
H22_2 C28_2 1_555 1_555
C29_2 N5_2 1_555 1_555
H23_2 C29_2 1_555 1_555
C24_2 C29_2 1_555 1_555
C27_2 C28_2 1_555 1_555
Cu4_6 F1_2 1_555 1_555
Cu7_3 F2_2 1_555 1_555
N11 C5_2 1_555 1_555
N4_2 Cu7_3 1_555 1_555
C1_2 C2_2 1_555 1_555
C2_2 H1_2 1_555 1_555
C3_2 C1_2 1_555 1_555
C5_2 H2_2 1_555 1_555
C7_2 C1_2 1_555 1_555
H3_2 C7_2 1_555 1_555
C8_2 N4_2 1_555 1_555
H4_2 C8_2 1_555 1_555
C11_2 C3_2 1_555 1_555
H7_2 C11_2 1_555 1_555
C12_2 N4_2 1_555 1_555
H8_2 C12_2 1_555 1_555
C15_2 N11 1_555 1_555
H11_2 C15_2 1_555 1_555
C16_2 C3_2 1_555 1_555
H12_2 C16_2 1_555 1_555
C2_2 C8_2 1_555 1_555
C5_2 C11_2 1_555 1_555
C7_2 C12_2 1_555 1_555
C15_2 C16_2 1_555 1_555
N9_2 C13_2 1_555 1_555
C9_2 H5_2 1_555 1_555
C13_2 C9_2 1_555 1_555
H9_2 C13_2 1_555 1_555
H10_2 C14_2 1_555 1_555
H16_2 C20_2 1_555 1_555
N7_2 Cu7_4 1_555 1_555
N12 C36_2 1_555 1_555
C31_2 C32_2 1_555 1_555
C32_2 H25_2 1_555 1_555
C33_2 C31_2 1_555 1_555
C34_2 N7_2 1_555 1_555
H26_2 C34_2 1_555 1_555
C35_2 C31_2 1_555 1_555
H27_2 C35_2 1_555 1_555
C36_2 C32_2 1_555 1_555
H28_2 C36_2 1_555 1_555
C37_2 C33_2 1_555 1_555
H29_2 C37_2 1_555 1_555
C38_2 N12 1_555 1_555
H30_2 C38_2 1_555 1_555
C39_2 N7_2 1_555 1_555
H31_2 C39_2 1_555 1_555
C40_2 C33_2 1_555 1_555
H32_2 C40_2 1_555 1_555
C14_2 C20_2 1_555 1_555
C34_2 C37_2 1_555 1_555
C35_2 C38_2 1_555 1_555
C39_2 C40_2 1_555 1_555

#END
