
###############################################################################
#
# This file contains modified crystal structure data generated from the
# MOF subset of the Cambridge Structural Database (CSD) v543 
# hosted by the Cambridge Crystallographic Data Centre (CCDC).
#
# This work is licensed under the Creative Commons
# Attribution-NonCommercial-ShareAlike 4.0 International License.
# To view a copy of this license, visit
# http://creativecommons.org/licenses/by-nc-sa/4.0/
# or send a letter to
# Creative Commons, PO Box 1866, Mountain View, CA 94042, USA.
#
# CIF created using the CSD Python API on 29 September 2022
# The structure has been converted into the P1 space group
# The structure has a 3D framework
# The original CSD entry AYONOT is in the orthorhombic crystal system
# The framework has been calculated to contain at least 10.0% void space
# The void calculation uses a probe of radius 1.32A, grid spacing 0.4
#
###############################################################################

data_AYONOT
_chemical_formula_moiety         '(C12 H12 Cu11 O24)n'
_symmetry_cell_setting           triclinic
_symmetry_space_group_name_H-M   'P 1'
_symmetry_Int_Tables_number      1
_space_group_name_Hall           'P 1'
loop_
_symmetry_equiv_pos_site_id
_symmetry_equiv_pos_as_xyz
1 x,y,z
_cell_length_a                   8.5555(12)
_cell_length_b                   11.4445(16)
_cell_length_c                   8.1060(11)
_cell_angle_alpha                90
_cell_angle_beta                 90
_cell_angle_gamma                90
_cell_volume                     793.686
loop_
_atom_site_label
_atom_site_type_symbol
_atom_site_fract_x
_atom_site_fract_y
_atom_site_fract_z
Cu1 Cu 0.0000 0.5000 0.0000
O3 O 0.02269(16) 0.34585(11) 0.11649(16)
C2 C 0.0045(2) 0.2500 0.0454(4)
O4 O 0.02269(16) 0.15415(11) 0.11649(16)
Cu4 Cu 0.0000 0.0000 0.0000
O8 O 0.25331(15) 0.56226(12) 0.08663(15)
Cu1_2 Cu 0.0000 0.5000 1.0000
O5 O 0.08010(14) 0.43314(10) 0.79484(14)
O6 O 0.24669(15) 0.43774(12) 0.58663(15)
C3 C 0.1984(2) 0.47187(17) 0.7228(2)
H3 H 0.251(3) 0.531(3) 0.771(4)
Cu3 Cu 0.5000 0.5000 0.5000
Cu4_2 Cu 0.0000 0.0000 1.0000
Cu4_3 Cu 0.0000 1.0000 0.0000
Cu4_4 Cu 0.0000 1.0000 1.0000
Cu1_3 Cu 1.0000 0.5000 0.0000
O1 O 0.91990(14) 0.56686(10) 0.20516(14)
O2 O 0.75331(15) 0.56226(12) 0.41337(15)
C1 C 0.8016(2) 0.52813(17) 0.2772(2)
H1 H 0.749(3) 0.469(3) 0.229(4)
Cu4_5 Cu 1.0000 0.0000 0.0000
Cu1_4 Cu 1.0000 0.5000 1.0000
H2 H 0.975(4) 0.2500 0.931(6)
Cu4_6 Cu 1.0000 0.0000 1.0000
O7 O 0.74669(15) 0.43774(12) 0.91337(15)
O9 O 0.97731(16) 0.65415(11) 0.88351(16)
Cu4_7 Cu 1.0000 1.0000 0.0000
Cu4_8 Cu 1.0000 1.0000 1.0000
Cu4_9 Cu 0.5000 0.0000 0.5000
O1_2 O 0.58010(14) 0.43314(10) 0.70516(14)
O3_2 O 0.47731(16) 0.65415(11) 0.61649(16)
C1_2 C 0.6984(2) 0.47187(17) 0.7772(2)
C2_2 C 0.4955(2) 0.7500 0.5454(4)
H1_2 H 0.751(3) 0.531(3) 0.729(4)
H2_2 H 0.525(4) 0.7500 0.431(6)
O4_2 O 0.47731(16) 0.84585(11) 0.61649(16)
O5_2 O 0.41990(14) 0.56686(10) 0.29484(14)
C3_2 C 0.3016(2) 0.52813(17) 0.2228(2)
H3_2 H 0.249(3) 0.469(3) 0.271(4)
Cu4_10 Cu 0.5000 1.0000 0.5000
O9_2 O 0.52269(16) 0.34585(11) 0.38351(16)
O1_3 O 0.08010(14) 0.06686(10) 0.79484(14)
O2_2 O 0.24669(15) 0.06226(12) 0.58663(15)
C1_3 C 0.1984(2) 0.02813(17) 0.7228(2)
H2_3 H 0.025(4) 0.7500 0.069(6)
O7_2 O 0.25331(15) 0.93774(12) 0.08663(15)
H1_3 H 0.251(3) 0.969(3) 0.771(4)
H3_3 H 0.749(3) 0.031(3) 0.229(4)
O8_2 O 0.74669(15) 0.06226(12) 0.91337(15)
O5_3 O 0.91990(14) 0.93314(10) 0.20516(14)
O6_2 O 0.75331(15) 0.93774(12) 0.41337(15)
C3_3 C 0.8016(2) 0.97187(17) 0.2772(2)
O3_3 O 0.97731(16) 0.84585(11) 0.88351(16)
C2_3 C 0.9955(2) 0.7500 0.9546(4)
O3_4 O 0.52269(16) 0.15415(11) 0.38351(16)
C2_4 C 0.5045(2) 0.2500 0.4546(4)
H1_4 H 0.249(3) 0.031(3) 0.271(4)
H2_4 H 0.475(4) 0.2500 0.569(6)
O5_4 O 0.58010(14) 0.06686(10) 0.70516(14)
C3_4 C 0.6984(2) 0.02813(17) 0.7772(2)
O1_4 O 0.41990(14) 0.93314(10) 0.29484(14)
C1_4 C 0.3016(2) 0.97187(17) 0.2228(2)
H3_4 H 0.751(3) 0.969(3) 0.729(4)
loop_
_geom_bond_atom_site_label_1
_geom_bond_atom_site_label_2
_geom_bond_site_symmetry_1
_geom_bond_site_symmetry_2
O3 Cu1 1_555 1_555
C2 O3 1_555 1_555
O4 C2 1_555 1_555
Cu4 O4 1_555 1_555
O8 Cu1 1_555 1_555
O5 Cu1_2 1_555 1_555
O6 C3 1_555 1_555
C3 O5 1_555 1_555
H3 C3 1_555 1_555
Cu3 O6 1_555 1_555
Cu1_3 O1 1_555 1_555
O1 C1 1_555 1_555
O2 C1 1_555 1_555
C1 H1 1_555 1_555
Cu3 O2 1_555 1_555
O7 Cu1_4 1_555 1_555
O9 Cu1_4 1_555 1_555
Cu3 O1_2 1_555 1_555
O1_2 C1_2 1_555 1_555
O7 C1_2 1_555 1_555
O3_2 Cu3 1_555 1_555
C1_2 H1_2 1_555 1_555
C2_2 O3_2 1_555 1_555
H2_2 C2_2 1_555 1_555
O4_2 C2_2 1_555 1_555
O5_2 Cu3 1_555 1_555
O8 C3_2 1_555 1_555
C3_2 O5_2 1_555 1_555
H3_2 C3_2 1_555 1_555
Cu4_10 O4_2 1_555 1_555
O9_2 Cu3 1_555 1_555
Cu4_2 O1_3 1_555 1_555
O1_3 C1_3 1_555 1_555
O2_2 C1_3 1_555 1_555
Cu4_9 O2_2 1_555 1_555
O7_2 Cu4_3 1_555 1_555
O8_2 Cu4_6 1_555 1_555
O5_3 Cu4_7 1_555 1_555
O6_2 C3_3 1_555 1_555
C3_3 O5_3 1_555 1_555
Cu4_10 O6_2 1_555 1_555
O3_3 Cu4_8 1_555 1_555
C2_3 O3_3 1_555 1_555
O9 C2_3 1_555 1_555
O3_4 Cu4_9 1_555 1_555
C2_4 O3_4 1_555 1_555
H2_4 C2_4 1_555 1_555
O9_2 C2_4 1_555 1_555
O5_4 Cu4_9 1_555 1_555
O8_2 C3_4 1_555 1_555
C3_4 O5_4 1_555 1_555
Cu4_10 O1_4 1_555 1_555
O1_4 C1_4 1_555 1_555
O7_2 C1_4 1_555 1_555

#END
