
###############################################################################
#
# This file contains modified crystal structure data generated from the
# MOF subset of the Cambridge Structural Database (CSD) v543 
# hosted by the Cambridge Crystallographic Data Centre (CCDC).
#
# This work is licensed under the Creative Commons
# Attribution-NonCommercial-ShareAlike 4.0 International License.
# To view a copy of this license, visit
# http://creativecommons.org/licenses/by-nc-sa/4.0/
# or send a letter to
# Creative Commons, PO Box 1866, Mountain View, CA 94042, USA.
#
# CIF created using the CSD Python API on 29 September 2022
# The structure has been converted into the P1 space group
# The structure has a 3D framework
# The original CSD entry AYOYEU is in the triclinic crystal system
# The framework has been calculated to contain at least 10.0% void space
# The void calculation uses a probe of radius 1.32A, grid spacing 0.4
#
###############################################################################

data_AYOYEU
_chemical_formula_moiety         '(C80 H72 Co4 N16 O15)n'
_symmetry_cell_setting           triclinic
_symmetry_space_group_name_H-M   'P 1'
_symmetry_Int_Tables_number      1
_space_group_name_Hall           'P 1'
loop_
_symmetry_equiv_pos_site_id
_symmetry_equiv_pos_as_xyz
1 x,y,z
_cell_length_a                   12.4970(14)
_cell_length_b                   12.5646(15)
_cell_length_c                   15.1697(15)
_cell_angle_alpha                75.523(4)
_cell_angle_beta                 77.748(4)
_cell_angle_gamma                85.439(4)
_cell_volume                     2252.9
loop_
_atom_site_label
_atom_site_type_symbol
_atom_site_fract_x
_atom_site_fract_y
_atom_site_fract_z
_atom_site_U_iso_or_equiv
_atom_site_thermal_displace_type
C10 C 0.6349(4) 0.0862(3) 0.6371(3) 0.0220 Uani
H7 H 0.7824 0.0146 0.6569 0.0530 Uiso
C12 C 0.7399(4) 0.4032(4) 0.6216(4) 0.0287 Uani
H10 H 0.7633 0.4733 0.6164 0.0350 Uiso
C13 C 0.7826(4) 0.2128(4) 0.6317(4) 0.0332 Uani
H11 H 0.8329 0.1540 0.6346 0.0400 Uiso
C14 C 0.6732(4) 0.1961(3) 0.6338(3) 0.0220 Uani
C15 C 0.6019(3) 0.2876(3) 0.6313(3) 0.0201 Uani
H12 H 0.5283 0.2775 0.6340 0.0240 Uiso
C35 C 0.3356(4) 0.0717(4) 0.5858(4) 0.0335 Uani
H31 H 0.2691 0.0482 0.5752 0.0500 Uiso
H32 H 0.3187 0.1085 0.6356 0.0500 Uiso
H33 H 0.3718 0.1213 0.5303 0.0500 Uiso
N2 N 0.6334(3) 0.3895(3) 0.6250(2) 0.0215 Uani
N5 N 0.5361(3) 0.0822(3) 0.6261(3) 0.0251 Uani
C40 C 0.8163(4) 0.3169(4) 0.6254(5) 0.0383 Uani
H36 H 0.8892 0.3289 0.6237 0.0460 Uiso
Co6 Co 0.52394(4) 0.53148(4) 0.62335(4) 0.0149 Uani
C38 C 0.0055(3) 0.0129(4) 0.4501(3) 0.0231 Uani
H35 H 0.0392 0.0779 0.4158 0.0280 Uiso
O5 O 0.0423(3) 0.0578(3) 0.2513(2) 0.0254 Uani
O7 O 0.1124(2) 0.1377(3) 0.0461(2) 0.0221 Uani
Co2 Co 0.01125(4) 0.00965(4) 0.12617(4) 0.0164 Uani
C41 C 0.4540(4) 0.4728(3) 0.2157(3) 0.0239 Uani
C42 C 0.4340(4) 0.4697(4) 0.1231(3) 0.0274 Uani
H37 H 0.3685 0.4423 0.1195 0.0330 Uiso
C43 C 0.5074(4) 0.5051(4) 0.0451(3) 0.0271 Uani
H38 H 0.5703 0.5374 0.0484 0.0320 Uiso
O9 O 0.3910(3) 0.4168(3) 0.2865(2) 0.0274 Uani
O10 O 0.5299(3) 0.5264(3) 0.2236(2) 0.0277 Uani
C44 C 0.0134(3) 0.0229(4) 0.6987(3) 0.0205 Uani
C45 C 0.0295(4) 0.0501(4) 0.5956(3) 0.0244 Uani
H39 H 0.0656 0.1140 0.5617 0.0290 Uiso
O12 O 0.0550(3) 0.0850(3) 0.7354(2) 0.0297 Uani
Co9 Co 0.47606(4) 0.46852(4) 0.37665(4) 0.0149 Uani
C1 C 0.5460(4) 0.5272(3) 0.7843(3) 0.0239 Uani
C2 C 0.5660(4) 0.5303(4) 0.8769(3) 0.0274 Uani
H1 H 0.6315 0.5577 0.8805 0.0330 Uiso
C3 C 0.4926(4) 0.4949(4) 0.9549(3) 0.0271 Uani
H2 H 0.4297 0.4626 0.9516 0.0320 Uiso
C4 C 0.4424(3) 0.7728(3) 0.6158(3) 0.0192 Uani
H3 H 0.5167 0.7835 0.6095 0.0230 Uiso
C5 C 0.3703(3) 0.8634(3) 0.6163(3) 0.0208 Uani
C6 C 0.2597(4) 0.8466(4) 0.6242(4) 0.0291 Uani
H4 H 0.2093 0.9053 0.6232 0.0350 Uiso
C7 C 0.2257(4) 0.7422(4) 0.6334(4) 0.0352 Uani
H5 H 0.1520 0.7294 0.6392 0.0420 Uiso
C8 C 0.3023(4) 0.6565(4) 0.6339(4) 0.0283 Uani
H6 H 0.2785 0.5860 0.6414 0.0340 Uiso
C9 C 0.4090(3) 0.9740(3) 0.6108(3) 0.0213 Uani
C11 C 0.7143(4) 0.9903(4) 0.6502(4) 0.0355 Uani
H8 H 0.6847 0.9358 0.7049 0.0530 Uiso
H9 H 0.7266 0.9591 0.5971 0.0530 Uiso
C30 C 0.1815(3) 0.2359(3) 0.8921(3) 0.0197 Uani
H27 H 0.2171 0.2840 0.9132 0.0240 Uiso
C31 C 0.1914(3) 0.2472(3) 0.8013(3) 0.0202 Uani
H28 H 0.1484 0.2038 0.7821 0.0240 Uiso
C32 C 0.2644(3) 0.3224(3) 0.7298(3) 0.0191 Uani
H29 H 0.3058 0.3693 0.7470 0.0230 Uiso
C33 C 0.2733(3) 0.3255(3) 0.6405(3) 0.0185 Uani
H30 H 0.2255 0.2848 0.6237 0.0220 Uiso
C34 C 0.3570(3) 0.3918(3) 0.5658(3) 0.0151 Uani
C39 C 0.1142(3) 0.1473(3) 0.9608(3) 0.0169 Uani
N1 N 0.4096(3) 0.6712(3) 0.6241(2) 0.0201 Uani
N6 N 0.5047(3) 0.9761(3) 0.6294(3) 0.0242 Uani
O1 O 0.6090(3) 0.5832(3) 0.7135(2) 0.0274 Uani
O2 O 0.4701(3) 0.4736(3) 0.7764(2) 0.0277 Uani
O3 O 0.4116(3) 0.4578(3) 0.5861(2) 0.0230 Uani
O4 O 0.3672(2) 0.3774(2) 0.4853(2) 0.0204 Uani
O8 O 0.0624(3) 0.0853(3) 0.9336(2) 0.0259 Uani
C66 C 0.5461(3) 0.1052(4) 0.8863(3) 0.0218 Uani
C67 C 0.4490(4) 0.1798(4) 0.9062(5) 0.0411 Uani
H58 H 0.4731 0.2466 0.9145 0.0620 Uiso
H59 H 0.4001 0.1440 0.9617 0.0620 Uiso
H60 H 0.4116 0.1965 0.8550 0.0620 Uiso
C68 C 0.7474(3) 0.0718(3) 0.8828(3) 0.0204 Uani
C69 C 0.6563(4) 0.1429(4) 0.8831(3) 0.0228 Uani
C70 C 0.6728(4) 0.2525(4) 0.8807(4) 0.0313 Uani
H62 H 0.6141 0.3029 0.8817 0.0380 Uiso
C71 C 0.7770(4) 0.2852(4) 0.8767(4) 0.0373 Uani
H63 H 0.7892 0.3577 0.8755 0.0450 Uiso
C72 C 0.8634(4) 0.2087(4) 0.8746(4) 0.0297 Uani
H64 H 0.9335 0.2317 0.8707 0.0360 Uiso
N11 N 0.8495(3) 0.1026(3) 0.8781(2) 0.0212 Uani
N15 N 0.5423(3) 0.0095(3) 0.8718(3) 0.0263 Uani
O20 O 0.6328(2) 0.6226(2) 0.5147(2) 0.0204 Uani
N19 N 0.1505(3) 0.8974(3) 0.1219(2) 0.0212 Uani
C59 C 0.1166(4) 0.7739(4) 0.8745(3) 0.0269 Uani
H51 H 0.0467 0.7507 0.8780 0.0320 Uiso
C60 C 0.2027(4) 0.6976(4) 0.8719(4) 0.0339 Uani
H52 H 0.1909 0.6248 0.8739 0.0400 Uiso
C61 C 0.3068(4) 0.7325(4) 0.8662(4) 0.0298 Uani
H53 H 0.3662 0.6830 0.8635 0.0360 Uiso
C62 C 0.3229(4) 0.8416(4) 0.8646(3) 0.0227 Uani
C63 C 0.2303(3) 0.9121(4) 0.8674(3) 0.0218 Uani
H54 H 0.2395 0.9853 0.8657 0.0260 Uiso
C64 C 0.4331(4) 0.8808(4) 0.8611(3) 0.0235 Uani
C65 C 0.5303(4) 0.8060(4) 0.8428(4) 0.0358 Uani
H55 H 0.5065 0.7391 0.8344 0.0530 Uiso
H56 H 0.5666 0.7896 0.8947 0.0530 Uiso
H57 H 0.5801 0.8414 0.7877 0.0530 Uiso
H61 H 0.7371 0.9983 0.8860 0.0250 Uiso
N12 N 0.1288(3) 0.8795(3) 0.8722(2) 0.0218 Uani
N16 N 0.4362(3) 0.9776(3) 0.8754(3) 0.0258 Uani
Co12 Co 0.98875(4) 0.99035(4) 0.87383(4) 0.0164 Uani
C16 C 0.8834(4) 0.2261(4) 0.1255(3) 0.0269 Uani
H13 H 0.9533 0.2493 0.1220 0.0320 Uiso
C17 C 0.7973(4) 0.3024(4) 0.1281(4) 0.0339 Uani
H14 H 0.8091 0.3752 0.1261 0.0400 Uiso
C18 C 0.6932(4) 0.2675(4) 0.1338(4) 0.0298 Uani
H15 H 0.6338 0.3170 0.1365 0.0360 Uiso
C19 C 0.6771(4) 0.1584(4) 0.1354(3) 0.0227 Uani
C20 C 0.7697(3) 0.0879(4) 0.1326(3) 0.0218 Uani
H16 H 0.7605 0.0147 0.1343 0.0260 Uiso
C21 C 0.5669(4) 0.1192(4) 0.1389(3) 0.0235 Uani
C22 C 0.4697(4) 0.1940(4) 0.1572(4) 0.0358 Uani
H17 H 0.4935 0.2609 0.1656 0.0530 Uiso
H18 H 0.4334 0.2104 0.1053 0.0530 Uiso
H19 H 0.4199 0.1586 0.2123 0.0530 Uiso
H23 H 0.2629 0.0017 0.1140 0.0250 Uiso
N4 N 0.8712(3) 0.1205(3) 0.1278(2) 0.0218 Uani
N8 N 0.5638(3) 0.0224(3) 0.1246(3) 0.0258 Uani
C23 C 0.4539(3) 0.8948(4) 0.1137(3) 0.0218 Uani
C24 C 0.5510(4) 0.8202(4) 0.0938(5) 0.0411 Uani
H20 H 0.5269 0.7534 0.0855 0.0620 Uiso
H21 H 0.5999 0.8560 0.0383 0.0620 Uiso
H22 H 0.5884 0.8035 0.1450 0.0620 Uiso
C25 C 0.2526(3) 0.9282(3) 0.1172(3) 0.0204 Uani
C26 C 0.3437(4) 0.8571(4) 0.1169(3) 0.0228 Uani
C27 C 0.3272(4) 0.7475(4) 0.1193(4) 0.0313 Uani
H24 H 0.3859 0.6971 0.1183 0.0380 Uiso
C28 C 0.2230(4) 0.7148(4) 0.1233(4) 0.0373 Uani
H25 H 0.2108 0.6423 0.1245 0.0450 Uiso
C29 C 0.1366(4) 0.7913(4) 0.1254(4) 0.0297 Uani
H26 H 0.0665 0.7683 0.1293 0.0360 Uiso
C36 C 0.9866(3) 0.9771(4) 0.3013(3) 0.0205 Uani
C37 C 0.9705(4) 0.9499(4) 0.4044(3) 0.0244 Uani
H34 H 0.9344 0.8860 0.4383 0.0290 Uiso
N7 N 0.4577(3) 0.9905(3) 0.1282(3) 0.0263 Uani
O6 O 0.9450(3) 0.9150(3) 0.2646(2) 0.0297 Uani
C46 C 0.9945(3) 0.9871(4) 0.5499(3) 0.0231 Uani
H40 H 0.9608 0.9221 0.5842 0.0280 Uiso
O11 O 0.9577(3) 0.9422(3) 0.7487(2) 0.0254 Uani
C47 C 0.5576(3) 0.2272(3) 0.3842(3) 0.0192 Uani
H41 H 0.4833 0.2165 0.3905 0.0230 Uiso
C48 C 0.6297(3) 0.1366(3) 0.3837(3) 0.0208 Uani
C49 C 0.7403(4) 0.1534(4) 0.3758(4) 0.0291 Uani
H42 H 0.7907 0.0947 0.3768 0.0350 Uiso
C50 C 0.7743(4) 0.2578(4) 0.3666(4) 0.0352 Uani
H43 H 0.8480 0.2706 0.3608 0.0420 Uiso
C51 C 0.6977(4) 0.3435(4) 0.3661(4) 0.0283 Uani
H44 H 0.7215 0.4140 0.3586 0.0340 Uiso
C52 C 0.5910(3) 0.0260(3) 0.3892(3) 0.0213 Uani
C54 C 0.2857(4) 0.0097(4) 0.3498(4) 0.0355 Uani
H46 H 0.3153 0.0642 0.2951 0.0530 Uiso
H47 H 0.2734 0.0409 0.4029 0.0530 Uiso
C73 C 0.8185(3) 0.7641(3) 0.1079(3) 0.0197 Uani
H65 H 0.7829 0.7160 0.0868 0.0240 Uiso
C74 C 0.8086(3) 0.7528(3) 0.1987(3) 0.0202 Uani
H66 H 0.8516 0.7962 0.2179 0.0240 Uiso
C75 C 0.7356(3) 0.6776(3) 0.2702(3) 0.0191 Uani
H67 H 0.6942 0.6307 0.2530 0.0230 Uiso
C76 C 0.7267(3) 0.6745(3) 0.3595(3) 0.0185 Uani
H68 H 0.7745 0.7152 0.3763 0.0220 Uiso
C77 C 0.6430(3) 0.6082(3) 0.4342(3) 0.0151 Uani
C79 C 0.8858(3) 0.8527(3) 0.0392(3) 0.0169 Uani
N9 N 0.5904(3) 0.3288(3) 0.3759(2) 0.0201 Uani
N14 N 0.4953(3) 0.0239(3) 0.3706(3) 0.0242 Uani
O13 O 0.5884(3) 0.5422(3) 0.4139(2) 0.0230 Uani
O16 O 0.9376(3) 0.9147(3) 0.0664(2) 0.0259 Uani
N18 N 0.3666(3) 0.6105(3) 0.3750(2) 0.0215 Uani
O15 O 0.8876(2) 0.8623(3) 0.9539(2) 0.0221 Uani
C53 C 0.3651(4) 0.9138(3) 0.3629(3) 0.0220 Uani
H45 H 0.2176 0.9854 0.3431 0.0530 Uiso
C55 C 0.2601(4) 0.5968(4) 0.3784(4) 0.0287 Uani
H48 H 0.2367 0.5267 0.3836 0.0350 Uiso
C56 C 0.2174(4) 0.7872(4) 0.3683(4) 0.0332 Uani
H49 H 0.1671 0.8460 0.3654 0.0400 Uiso
C57 C 0.3268(4) 0.8039(3) 0.3662(3) 0.0220 Uani
C58 C 0.3981(3) 0.7124(3) 0.3687(3) 0.0201 Uani
H50 H 0.4717 0.7225 0.3660 0.0240 Uiso
C78 C 0.6644(4) 0.9283(4) 0.4142(4) 0.0335 Uani
H69 H 0.7309 0.9518 0.4248 0.0500 Uiso
H70 H 0.6813 0.8915 0.3644 0.0500 Uiso
H71 H 0.6282 0.8787 0.4697 0.0500 Uiso
N13 N 0.4639(3) 0.9178(3) 0.3739(3) 0.0251 Uani
C80 C 0.1837(4) 0.6831(4) 0.3746(5) 0.0383 Uani
H72 H 0.1108 0.6711 0.3763 0.0460 Uiso
loop_
_atom_site_aniso_label
_atom_site_aniso_U_11
_atom_site_aniso_U_22
_atom_site_aniso_U_33
_atom_site_aniso_U_23
_atom_site_aniso_U_13
_atom_site_aniso_U_12
C10 0.02 0.0149 0.031 -0.0064 -0.004 0.0008
C12 0.024 0.022 0.043 -0.0119 -0.0069 -0.0033
C13 0.016 0.027 0.06 -0.017 -0.008 0.0017
C14 0.022 0.0166 0.028 -0.0072 -0.004 -0.0009
C15 0.0182 0.0175 0.025 -0.006 -0.0036 -0.002
C35 0.024 0.016 0.063 -0.009 -0.017 0.006
N2 0.0253 0.0181 0.0211 -0.0061 -0.0032 0.0005
N5 0.026 0.0139 0.037 -0.0075 -0.0083 0.0006
C40 0.021 0.024 0.074 -0.017 -0.012 -0.0017
Co6 0.0182 0.0107 0.0155 -0.00287 -0.00173 -0.00413
C38 0.0145 0.033 0.021 -0.007 -0.0029 0.0048
O5 0.024 0.0309 0.0209 -0.004 -0.0051 -0.0046
O7 0.0199 0.026 0.0176 -0.0009 -0.0021 -0.0026
Co2 0.0126 0.0179 0.0182 -0.0032 -0.00233 -0.00276
C41 0.036 0.0166 0.02 -0.0065 -0.0074 0.005
C42 0.042 0.021 0.022 -0.0075 -0.0121 0.0059
C43 0.044 0.018 0.02 -0.0043 -0.0106 0.0063
O9 0.0332 0.0292 0.0215 -0.0076 -0.0059 -0.005
O10 0.0364 0.0243 0.0211 -0.0039 -0.0047 -0.001
C44 0.0146 0.028 0.0198 -0.0074 -0.0044 0.0013
C45 0.019 0.033 0.019 -0.0043 -0.002 0.0016
O12 0.0292 0.039 0.0219 -0.0072 -0.004 -0.0107
Co9 0.0182 0.0107 0.0155 -0.00287 -0.00173 -0.00413
C1 0.036 0.0166 0.02 -0.0065 -0.0074 0.005
C2 0.042 0.021 0.022 -0.0075 -0.0121 0.0059
C3 0.044 0.018 0.02 -0.0043 -0.0106 0.0063
C4 0.0171 0.0183 0.023 -0.0058 -0.0048 0.0005
C5 0.02 0.0171 0.026 -0.0061 -0.0051 0.0003
C6 0.017 0.021 0.05 -0.01 -0.0079 0.0033
C7 0.018 0.03 0.06 -0.016 -0.006 -0.0029
C8 0.025 0.018 0.042 -0.0084 -0.0036 -0.0064
C9 0.0176 0.0173 0.028 -0.0055 -0.0038 0.0029
C11 0.022 0.018 0.069 -0.013 -0.012 0.0008
C30 0.0153 0.0181 0.023 -0.0022 -0.0003 -0.0028
C31 0.0162 0.0188 0.023 -0.0018 -0.0014 -0.0026
C32 0.0155 0.0152 0.024 -0.0024 -0.0005 -0.0023
C33 0.0176 0.0135 0.023 -0.0038 -0.001 -0.0022
C34 0.0129 0.0109 0.0199 -0.0024 -0.0024 0.0024
C39 0.0104 0.0177 0.0197 -0.0023 -0.0002 0.0022
N1 0.0183 0.0199 0.022 -0.0059 -0.0025 -0.0004
N6 0.0201 0.0149 0.039 -0.0072 -0.0076 -0.001
O1 0.0332 0.0292 0.0215 -0.0076 -0.0059 -0.005
O2 0.0364 0.0243 0.0211 -0.0039 -0.0047 -0.001
O3 0.0243 0.0201 0.0251 -0.0062 -0.0019 -0.0086
O4 0.023 0.0184 0.0181 -0.0035 0.0003 -0.0058
O8 0.0257 0.0257 0.0264 -0.0044 -0.0039 -0.0115
C66 0.014 0.02 0.03 -0.0046 -0.0044 0.0041
C67 0.018 0.028 0.08 -0.02 -0.011 0.0091
C68 0.02 0.0172 0.023 -0.0043 -0.003 0.0002
C69 0.019 0.022 0.026 -0.0053 -0.0028 0.0018
C70 0.021 0.018 0.053 -0.007 -0.006 0.0028
C71 0.029 0.014 0.067 -0.007 -0.008 -0.003
C72 0.02 0.024 0.043 -0.0039 -0.0053 -0.0033
N11 0.0207 0.0196 0.0219 -0.0032 -0.0042 0.0013
N15 0.013 0.0249 0.042 -0.01 -0.0054 0.0006
O20 0.023 0.0184 0.0181 -0.0035 0.0003 -0.0058
N19 0.0207 0.0196 0.0219 -0.0032 -0.0042 0.0013
C59 0.019 0.027 0.036 -0.0093 -0.0056 -0.0025
C60 0.028 0.023 0.053 -0.012 -0.009 -0.002
C61 0.021 0.023 0.046 -0.009 -0.009 0.0042
C62 0.019 0.023 0.025 -0.0038 -0.0039 -0.001
C63 0.019 0.022 0.024 -0.0047 -0.0054 0.0015
C64 0.018 0.02 0.031 -0.0034 -0.0055 0.0021
C65 0.015 0.022 0.071 -0.014 -0.008 0.0042
N12 0.0183 0.025 0.0215 -0.0055 -0.0036 0.001
N16 0.0156 0.0226 0.04 -0.0091 -0.0054 0.0003
Co12 0.0126 0.0179 0.0182 -0.0032 -0.00233 -0.00276
C16 0.019 0.027 0.036 -0.0093 -0.0056 -0.0025
C17 0.028 0.023 0.053 -0.012 -0.009 -0.002
C18 0.021 0.023 0.046 -0.009 -0.009 0.0042
C19 0.019 0.023 0.025 -0.0038 -0.0039 -0.001
C20 0.019 0.022 0.024 -0.0047 -0.0054 0.0015
C21 0.018 0.02 0.031 -0.0034 -0.0055 0.0021
C22 0.015 0.022 0.071 -0.014 -0.008 0.0042
N4 0.0183 0.025 0.0215 -0.0055 -0.0036 0.001
N8 0.0156 0.0226 0.04 -0.0091 -0.0054 0.0003
C23 0.014 0.02 0.03 -0.0046 -0.0044 0.0041
C24 0.018 0.028 0.08 -0.02 -0.011 0.0091
C25 0.02 0.0172 0.023 -0.0043 -0.003 0.0002
C26 0.019 0.022 0.026 -0.0053 -0.0028 0.0018
C27 0.021 0.018 0.053 -0.007 -0.006 0.0028
C28 0.029 0.014 0.067 -0.007 -0.008 -0.003
C29 0.02 0.024 0.043 -0.0039 -0.0053 -0.0033
C36 0.0146 0.028 0.0198 -0.0074 -0.0044 0.0013
C37 0.019 0.033 0.019 -0.0043 -0.002 0.0016
N7 0.013 0.0249 0.042 -0.01 -0.0054 0.0006
O6 0.0292 0.039 0.0219 -0.0072 -0.004 -0.0107
C46 0.0145 0.033 0.021 -0.007 -0.0029 0.0048
O11 0.024 0.0309 0.0209 -0.004 -0.0051 -0.0046
C47 0.0171 0.0183 0.023 -0.0058 -0.0048 0.0005
C48 0.02 0.0171 0.026 -0.0061 -0.0051 0.0003
C49 0.017 0.021 0.05 -0.01 -0.0079 0.0033
C50 0.018 0.03 0.06 -0.016 -0.006 -0.0029
C51 0.025 0.018 0.042 -0.0084 -0.0036 -0.0064
C52 0.0176 0.0173 0.028 -0.0055 -0.0038 0.0029
C54 0.022 0.018 0.069 -0.013 -0.012 0.0008
C73 0.0153 0.0181 0.023 -0.0022 -0.0003 -0.0028
C74 0.0162 0.0188 0.023 -0.0018 -0.0014 -0.0026
C75 0.0155 0.0152 0.024 -0.0024 -0.0005 -0.0023
C76 0.0176 0.0135 0.023 -0.0038 -0.001 -0.0022
C77 0.0129 0.0109 0.0199 -0.0024 -0.0024 0.0024
C79 0.0104 0.0177 0.0197 -0.0023 -0.0002 0.0022
N9 0.0183 0.0199 0.022 -0.0059 -0.0025 -0.0004
N14 0.0201 0.0149 0.039 -0.0072 -0.0076 -0.001
O13 0.0243 0.0201 0.0251 -0.0062 -0.0019 -0.0086
O16 0.0257 0.0257 0.0264 -0.0044 -0.0039 -0.0115
N18 0.0253 0.0181 0.0211 -0.0061 -0.0032 0.0005
O15 0.0199 0.026 0.0176 -0.0009 -0.0021 -0.0026
C53 0.02 0.0149 0.031 -0.0064 -0.004 0.0008
C55 0.024 0.022 0.043 -0.0119 -0.0069 -0.0033
C56 0.016 0.027 0.06 -0.017 -0.008 0.0017
C57 0.022 0.0166 0.028 -0.0072 -0.004 -0.0009
C58 0.0182 0.0175 0.025 -0.006 -0.0036 -0.002
C78 0.024 0.016 0.063 -0.009 -0.017 0.006
N13 0.026 0.0139 0.037 -0.0075 -0.0083 0.0006
C80 0.021 0.024 0.074 -0.017 -0.012 -0.0017
loop_
_geom_bond_atom_site_label_1
_geom_bond_atom_site_label_2
_geom_bond_site_symmetry_1
_geom_bond_site_symmetry_2
C12 H10 1_555 1_555
C13 H11 1_555 1_555
C14 C10 1_555 1_555
C15 C14 1_555 1_555
H12 C15 1_555 1_555
H31 C35 1_555 1_555
H32 C35 1_555 1_555
H33 C35 1_555 1_555
N2 C12 1_555 1_555
N5 C10 1_555 1_555
C40 C12 1_555 1_555
H36 C40 1_555 1_555
Co6 N2 1_555 1_555
C13 C14 1_555 1_555
C13 C40 1_555 1_555
C15 N2 1_555 1_555
H35 C38 1_555 1_555
C41 C42 1_555 1_555
C42 H37 1_555 1_555
H38 C43 1_555 1_555
O9 C41 1_555 1_555
O10 C41 1_555 1_555
C44 C45 1_555 1_555
C45 H39 1_555 1_555
O12 C44 1_555 1_555
Co9 O9 1_555 1_555
O5 Co2 1_555 1_555
O7 Co2 1_555 1_555
C42 C43 1_555 1_555
O10 Co9 1_555 1_555
C1 C2 1_555 1_555
C2 H1 1_555 1_555
C3 C2 1_555 1_555
H2 C3 1_555 1_555
C4 H3 1_555 1_555
C5 C4 1_555 1_555
C6 C5 1_555 1_555
H4 C6 1_555 1_555
C7 C6 1_555 1_555
H5 C7 1_555 1_555
C8 C7 1_555 1_555
H6 C8 1_555 1_555
C9 C5 1_555 1_555
H8 C11 1_555 1_555
H9 C11 1_555 1_555
C30 H27 1_555 1_555
C31 C30 1_555 1_555
H28 C31 1_555 1_555
C32 C31 1_555 1_555
H29 C32 1_555 1_555
C33 C32 1_555 1_555
H30 C33 1_555 1_555
C34 C33 1_555 1_555
C39 C30 1_555 1_555
N1 C4 1_555 1_555
N6 C9 1_555 1_555
O1 C1 1_555 1_555
O2 C1 1_555 1_555
O3 C34 1_555 1_555
O4 C34 1_555 1_555
O8 C39 1_555 1_555
Co6 N1 1_555 1_555
C66 C67 1_555 1_555
C67 H58 1_555 1_555
H59 C67 1_555 1_555
H60 C67 1_555 1_555
C69 C66 1_555 1_555
C70 C69 1_555 1_555
H62 C70 1_555 1_555
C71 C70 1_555 1_555
H63 C71 1_555 1_555
C72 C71 1_555 1_555
H64 C72 1_555 1_555
N11 C68 1_555 1_555
N15 C66 1_555 1_555
O20 Co6 1_555 1_555
Co9 O4 1_555 1_555
C8 N1 1_555 1_555
O1 Co6 1_555 1_555
O2 Co6 1_555 1_555
O3 Co6 1_555 1_555
C68 C69 1_555 1_555
C72 N11 1_555 1_555
C59 H51 1_555 1_555
C60 C59 1_555 1_555
H52 C60 1_555 1_555
C61 C60 1_555 1_555
H53 C61 1_555 1_555
C62 C61 1_555 1_555
C63 C62 1_555 1_555
H54 C63 1_555 1_555
C64 C62 1_555 1_555
C65 C64 1_555 1_555
H55 C65 1_555 1_555
H56 C65 1_555 1_555
H57 C65 1_555 1_555
N12 C59 1_555 1_555
N16 C64 1_555 1_555
C63 N12 1_555 1_555
C16 H13 1_555 1_555
C17 C16 1_555 1_555
H14 C17 1_555 1_555
C18 C17 1_555 1_555
H15 C18 1_555 1_555
C19 C18 1_555 1_555
C20 C19 1_555 1_555
H16 C20 1_555 1_555
C21 C19 1_555 1_555
C22 C21 1_555 1_555
H17 C22 1_555 1_555
H18 C22 1_555 1_555
H19 C22 1_555 1_555
N4 C16 1_555 1_555
N8 C21 1_555 1_555
C20 N4 1_555 1_555
C23 C24 1_555 1_555
C24 H20 1_555 1_555
H21 C24 1_555 1_555
H22 C24 1_555 1_555
C26 C23 1_555 1_555
C27 C26 1_555 1_555
H24 C27 1_555 1_555
C28 C27 1_555 1_555
H25 C28 1_555 1_555
C29 C28 1_555 1_555
H26 C29 1_555 1_555
C36 C37 1_555 1_555
C37 H34 1_555 1_555
N19 C25 1_555 1_555
N7 C23 1_555 1_555
O6 C36 1_555 1_555
H40 C46 1_555 1_555
C47 H41 1_555 1_555
C48 C47 1_555 1_555
C49 C48 1_555 1_555
H42 C49 1_555 1_555
C50 C49 1_555 1_555
H43 C50 1_555 1_555
C51 C50 1_555 1_555
H44 C51 1_555 1_555
C52 C48 1_555 1_555
H46 C54 1_555 1_555
H47 C54 1_555 1_555
C73 H65 1_555 1_555
C74 C73 1_555 1_555
H66 C74 1_555 1_555
C75 C74 1_555 1_555
H67 C75 1_555 1_555
C76 C75 1_555 1_555
H68 C76 1_555 1_555
C77 C76 1_555 1_555
C79 C73 1_555 1_555
N9 C47 1_555 1_555
N14 C52 1_555 1_555
O13 C77 1_555 1_555
O20 C77 1_555 1_555
Co9 N9 1_555 1_555
N18 Co9 1_555 1_555
Co12 O11 1_555 1_555
C25 C26 1_555 1_555
C29 N19 1_555 1_555
C51 N9 1_555 1_555
C79 O16 1_555 1_555
O13 Co9 1_555 1_555
O15 Co12 1_555 1_555
C55 H48 1_555 1_555
C56 H49 1_555 1_555
C57 C53 1_555 1_555
C58 C57 1_555 1_555
H50 C58 1_555 1_555
H69 C78 1_555 1_555
H70 C78 1_555 1_555
H71 C78 1_555 1_555
N18 C55 1_555 1_555
N13 C53 1_555 1_555
C80 C55 1_555 1_555
H72 C80 1_555 1_555
C56 C57 1_555 1_555
C56 C80 1_555 1_555
C58 N18 1_555 1_555

#END
