
###############################################################################
#
# This file contains modified crystal structure data generated from the
# MOF subset of the Cambridge Structural Database (CSD) v543 
# hosted by the Cambridge Crystallographic Data Centre (CCDC).
#
# This work is licensed under the Creative Commons
# Attribution-NonCommercial-ShareAlike 4.0 International License.
# To view a copy of this license, visit
# http://creativecommons.org/licenses/by-nc-sa/4.0/
# or send a letter to
# Creative Commons, PO Box 1866, Mountain View, CA 94042, USA.
#
# CIF created using the CSD Python API on 29 September 2022
# The structure has been converted into the P1 space group
# The structure has a 3D framework
# The original CSD entry AYUDUV is in the monoclinic crystal system
# The framework has been calculated to contain at least 10.0% void space
# The void calculation uses a probe of radius 1.32A, grid spacing 0.4
#
###############################################################################

data_AYUDUV
_chemical_formula_moiety         '(C156 H108 Cd4 N24 O32)n'
_symmetry_cell_setting           triclinic
_symmetry_space_group_name_H-M   'P 1'
_symmetry_Int_Tables_number      1
_space_group_name_Hall           'P 1'
loop_
_symmetry_equiv_pos_site_id
_symmetry_equiv_pos_as_xyz
1 x,y,z
_cell_length_a                   9.662(3)
_cell_length_b                   18.233(5)
_cell_length_c                   23.172(7)
_cell_angle_alpha                90
_cell_angle_beta                 94.419(9)
_cell_angle_gamma                90
_cell_volume                     4070.01
loop_
_atom_site_label
_atom_site_type_symbol
_atom_site_fract_x
_atom_site_fract_y
_atom_site_fract_z
C1 C 0.1801(11) 0.6442(6) 0.2256(5)
H2 H 0.2394 0.6273 0.2563
C4 C 0.0680(9) 0.6869(5) 0.2362(4)
H3 H 0.0515 0.6988 0.2741
C6 C 0.2048(11) 0.6263(6) 0.1700(5)
H4 H 0.2804 0.5969 0.1632
C8 C 0.1193(10) 0.6513(4) 0.1243(4)
H5 H 0.1381 0.6402 0.0865
C9 C 0.0046(8) 0.6932(4) 0.1350(3)
N7 N 0.0774(6) 0.4467(3) 0.1116(2)
N8 N 0.1981(6) 0.3949(3) 0.1849(2)
C40 C 0.0405(8) 0.4730(4) 0.0543(3)
C41 C 0.1380(8) 0.4990(4) 0.0203(3)
H28 H 0.2312 0.4980 0.0337
C43 C 0.1978(8) 0.4119(4) 0.1290(3)
H30 H 0.2691 0.4016 0.1055
C44 C 0.0007(9) 0.4530(5) 0.1585(3)
C45 C 0.0786(9) 0.4204(5) 0.2026(3)
H32 H 0.0523 0.4164 0.2402
Cd4 Cd 0.36043(6) 0.34075(3) 0.25047(2)
C25 C 0.0993(8) 0.5270(4) 0.9654(3)
H14 H 0.1658 0.5455 0.9423
H16 H 0.0859 0.5251 0.8400
O1 O 0.7966(7) 0.7437(4) 0.2504(2)
O2 O 0.8208(7) 0.8134(4) 0.1740(3)
O3 O 0.9222(6) 0.7191(3) 0.0872(2)
O4 O 0.6599(6) 0.4968(3) 0.1497(2)
H1 H 0.6267 0.4596 0.1630
O5 O 0.4636(7) 0.4959(4) 0.0927(3)
C2 C 0.8570(10) 0.7592(4) 0.2055(4)
C3 C 0.9787(8) 0.7127(4) 0.1906(3)
C10 C 0.8017(7) 0.6819(4) 0.0714(3)
C11 C 0.7533(7) 0.6236(4) 0.1009(3)
H6 H 0.8009 0.6072 0.1348
C12 C 0.6300(7) 0.5885(4) 0.0791(3)
C13 C 0.5726(8) 0.5234(4) 0.1076(3)
C14 C 0.5560(8) 0.6138(4) 0.0285(3)
H7 H 0.4740 0.5911 0.0143
C15 C 0.6084(8) 0.6734(4) 0.0002(3)
C16 C 0.7316(8) 0.7073(4) 0.0206(3)
H8 H 0.7666 0.7465 0.0005
H9 H 0.3485 0.7163 0.0196
C42 C 0.9007(8) 0.4730(4) 0.0346(3)
H29 H 0.8342 0.4545 0.0577
H31 H 0.9141 0.4749 0.1600
Cd5 Cd 0.63957(6) 0.84075(3) 0.24953(2)
Cd1 Cd 0.63957(6) 0.65925(3) 0.74953(2)
O6 O 0.5472(6) 0.6992(3) 0.9485(2)
O7 O 0.5343(6) 0.7277(3) 0.8227(2)
O8 O 0.4373(6) 0.6211(3) 0.8062(2)
N1 N 0.9226(6) 0.5533(3) 0.8884(2)
N2 N 0.8019(6) 0.6051(3) 0.8151(2)
N3 N 0.6219(8) 0.5411(4) 0.7059(3)
N4 N 0.6016(7) 0.3488(4) 0.4113(3)
N5 N 0.5264(8) 0.3059(4) 0.3250(3)
N6 N 0.5941(7) 0.4607(3) 0.6362(3)
C5 C 0.5982(9) 0.4300(4) 0.5795(3)
C7 C 0.9595(8) 0.5270(4) 0.9457(3)
C17 C 0.4028(8) 0.7003(4) 0.9384(3)
C18 C 0.3140(10) 0.7126(4) 0.9812(3)
C19 C 0.1727(9) 0.7194(5) 0.9664(4)
H10 H 0.1128 0.7287 0.9950
C20 C 0.1208(9) 0.7125(5) 0.9102(4)
H11 H 0.0260 0.7171 0.9004
C21 C 0.2111(9) 0.6985(5) 0.8680(4)
H12 H 0.1755 0.6929 0.8298
C22 C 0.3534(7) 0.6927(4) 0.8811(3)
C23 C 0.4477(8) 0.6796(4) 0.8344(3)
C24 C 0.8620(8) 0.5010(4) 0.9797(3)
H13 H 0.7688 0.5020 0.9663
C26 C 0.8022(8) 0.5881(4) 0.8710(3)
H15 H 0.7309 0.5984 0.8945
C27 C 0.9993(9) 0.5470(5) 0.8415(3)
C28 C 0.9214(9) 0.5796(5) 0.7974(3)
H17 H 0.9477 0.5836 0.7598
C29 C 0.5384(10) 0.4849(4) 0.7238(4)
H18 H 0.5007 0.4815 0.7594
C30 C 0.5218(10) 0.4360(5) 0.6799(4)
H19 H 0.4699 0.3930 0.6798
C31 C 0.6525(9) 0.5252(4) 0.6547(3)
H20 H 0.7080 0.5541 0.6328
C32 C 0.4757(9) 0.4087(5) 0.5506(3)
H21 H 0.3928 0.4121 0.5684
C33 C 0.4768(10) 0.3818(5) 0.4944(4)
H22 H 0.3940 0.3674 0.4744
C34 C 0.5979(8) 0.3764(4) 0.4685(3)
C35 C 0.7206(10) 0.3991(5) 0.4981(4)
H23 H 0.8035 0.3966 0.4804
C36 C 0.7198(10) 0.4255(6) 0.5539(4)
H24 H 0.8023 0.4401 0.5739
C37 C 0.4927(10) 0.3213(5) 0.3780(3)
H25 H 0.4048 0.3142 0.3908
C38 C 0.6636(11) 0.3227(7) 0.3247(4)
H26 H 0.7168 0.3169 0.2932
C39 C 0.7099(12) 0.3485(7) 0.3761(4)
H27 H 0.8002 0.3638 0.3865
O14 O 0.4528(6) 0.3008(3) 0.0515(2)
O15 O 0.4657(6) 0.2723(3) 0.1773(2)
O16 O 0.5627(6) 0.3789(3) 0.1938(2)
N9 N 0.3781(8) 0.4589(4) 0.2941(3)
N10 N 0.3984(7) 0.6512(4) 0.5887(3)
N11 N 0.4736(8) 0.6941(4) 0.6750(3)
N12 N 0.4059(7) 0.5393(3) 0.3638(3)
C50 C 0.4018(9) 0.5700(4) 0.4205(3)
C61 C 0.5972(8) 0.2997(4) 0.0616(3)
C62 C 0.6860(10) 0.2874(4) 0.0188(3)
C63 C 0.8273(9) 0.2806(5) 0.0336(4)
H42 H 0.8872 0.2713 0.0050
C64 C 0.8792(9) 0.2875(5) 0.0898(4)
H43 H 0.9740 0.2829 0.0996
C65 C 0.7889(9) 0.3015(5) 0.1320(4)
H44 H 0.8245 0.3071 0.1702
C66 C 0.6466(7) 0.3073(4) 0.1189(3)
C67 C 0.5523(8) 0.3204(4) 0.1656(3)
C68 C 0.4616(10) 0.5151(4) 0.2762(4)
H45 H 0.4993 0.5185 0.2406
C69 C 0.4782(10) 0.5640(5) 0.3201(4)
H46 H 0.5301 0.6070 0.3202
C70 C 0.3475(9) 0.4748(4) 0.3453(3)
H47 H 0.2920 0.4459 0.3672
C71 C 0.5243(9) 0.5913(5) 0.4494(3)
H48 H 0.6072 0.5879 0.4316
C72 C 0.5232(10) 0.6182(5) 0.5056(4)
H49 H 0.6060 0.6326 0.5256
C73 C 0.4021(8) 0.6236(4) 0.5315(3)
C74 C 0.2794(10) 0.6009(5) 0.5019(4)
H50 H 0.1965 0.6034 0.5196
C75 C 0.2802(10) 0.5745(6) 0.4461(4)
H51 H 0.1977 0.5599 0.4261
C76 C 0.5073(10) 0.6787(5) 0.6220(3)
H52 H 0.5952 0.6858 0.6092
C77 C 0.3364(11) 0.6773(7) 0.6753(4)
H53 H 0.2832 0.6831 0.7068
C78 C 0.2901(12) 0.6515(7) 0.6239(4)
H54 H 0.1998 0.6362 0.6135
O17 O 0.2034(7) 0.2437(4) 0.2496(2)
O18 O 0.7966(7) 0.7563(4) 0.7504(2)
O19 O 0.1792(7) 0.3134(4) 0.3260(3)
O20 O 0.8208(7) 0.6866(4) 0.6740(3)
O9 O 0.2034(7) 0.2563(4) 0.7496(2)
O10 O 0.1792(7) 0.1866(4) 0.8260(3)
O11 O 0.0778(6) 0.2809(3) 0.9128(2)
O12 O 0.3401(6) 0.5032(3) 0.8503(2)
H33 H 0.3733 0.5404 0.8370
O13 O 0.5364(7) 0.5041(4) 0.9073(3)
C47 C 0.1430(10) 0.2408(4) 0.7945(4)
C48 C 0.0213(8) 0.2873(4) 0.8094(3)
C54 C 0.1983(7) 0.3181(4) 0.9286(3)
C55 C 0.2467(7) 0.3764(4) 0.8991(3)
H38 H 0.1991 0.3928 0.8652
C56 C 0.3700(7) 0.4115(4) 0.9209(3)
C57 C 0.4274(8) 0.4766(4) 0.8924(3)
C58 C 0.4440(8) 0.3862(4) 0.9715(3)
H39 H 0.5260 0.4089 0.9857
C59 C 0.3916(8) 0.3266(4) 0.9998(3)
C60 C 0.2684(8) 0.2927(4) 0.9794(3)
H40 H 0.2334 0.2535 0.9995
H41 H 0.6515 0.2837 0.9804
Cd3 Cd 0.36043(6) 0.15925(3) 0.75047(2)
C46 C 0.8199(11) 0.3558(6) 0.7744(5)
H34 H 0.7606 0.3727 0.7437
C49 C 0.9320(9) 0.3131(5) 0.7638(4)
H35 H 0.9485 0.3012 0.7259
C51 C 0.7952(11) 0.3737(6) 0.8300(5)
H36 H 0.7196 0.4031 0.8368
C52 C 0.8807(10) 0.3487(4) 0.8757(4)
H37 H 0.8619 0.3598 0.9135
C53 C 0.9954(8) 0.3068(4) 0.8650(3)
O3_2 O 0.0778(6) 0.2191(3) 0.4128(2)
O6_2 O 0.4528(6) 0.1992(3) 0.5515(2)
O7_2 O 0.4657(6) 0.2277(3) 0.6773(2)
O8_2 O 0.5627(6) 0.1211(3) 0.6938(2)
N1_2 N 0.0774(6) 0.0533(3) 0.6116(2)
N2_2 N 0.1981(6) 0.1051(3) 0.6849(2)
N3_2 N 0.3781(8) 0.0411(4) 0.7941(3)
C2_2 C 0.1430(10) 0.2592(4) 0.2945(4)
C3_2 C 0.0213(8) 0.2127(4) 0.3094(3)
C7_2 C 0.0405(8) 0.0270(4) 0.5543(3)
C10_2 C 0.1983(7) 0.1819(4) 0.4286(3)
C11_2 C 0.2467(7) 0.1236(4) 0.3991(3)
H6_2 H 0.1991 0.1072 0.3652
C12_2 C 0.3700(7) 0.0885(4) 0.4209(3)
C13_2 C 0.4274(8) 0.0234(4) 0.3924(3)
C14_2 C 0.4440(8) 0.1138(4) 0.4715(3)
H7_2 H 0.5260 0.0911 0.4857
C15_2 C 0.3916(8) 0.1734(4) 0.4998(3)
C16_2 C 0.2684(8) 0.2073(4) 0.4794(3)
H8_2 H 0.2334 0.2465 0.4995
C17_2 C 0.5972(8) 0.2003(4) 0.5616(3)
C18_2 C 0.6860(10) 0.2126(4) 0.5188(3)
H9_2 H 0.6515 0.2163 0.4804
C19_2 C 0.8273(9) 0.2194(5) 0.5336(4)
H10_2 H 0.8872 0.2287 0.5050
C20_2 C 0.8792(9) 0.2125(5) 0.5898(4)
H11_2 H 0.9740 0.2171 0.5996
C21_2 C 0.7889(9) 0.1985(5) 0.6320(4)
H12_2 H 0.8245 0.1929 0.6702
C22_2 C 0.6466(7) 0.1927(4) 0.6189(3)
C23_2 C 0.5523(8) 0.1796(4) 0.6656(3)
C24_2 C 0.1380(8) 0.0010(4) 0.5203(3)
H13_2 H 0.2312 0.0020 0.5337
C26_2 C 0.1978(8) 0.0881(4) 0.6290(3)
H15_2 H 0.2691 0.0984 0.6055
C27_2 C 0.0007(9) 0.0470(5) 0.6585(3)
C28_2 C 0.0786(9) 0.0796(5) 0.7026(3)
H17_2 H 0.0523 0.0836 0.7402
C31_2 C 0.3475(9) 0.0252(4) 0.8453(3)
H20_2 H 0.2920 0.0541 0.8672
N10_2 N 0.6016(7) 0.1512(4) 0.9113(3)
N11_2 N 0.5264(8) 0.1941(4) 0.8250(3)
C72_2 C 0.4768(10) 0.1182(5) 0.9944(4)
H49_2 H 0.3940 0.1326 0.9744
C73_2 C 0.5979(8) 0.1236(4) 0.9685(3)
C74_2 C 0.7206(10) 0.1009(5) 0.9981(4)
H50_2 H 0.8035 0.1034 0.9804
C76_2 C 0.4927(10) 0.1787(5) 0.8780(3)
H52_2 H 0.4048 0.1858 0.8908
C77_2 C 0.6636(11) 0.1773(7) 0.8247(4)
H53_2 H 0.7168 0.1831 0.7932
C78_2 C 0.7099(12) 0.1515(7) 0.8761(4)
H54_2 H 0.8002 0.1362 0.8865
N4_2 N 0.3984(7) 0.8488(4) 0.0887(3)
N5_2 N 0.4736(8) 0.8059(4) 0.1750(3)
C33_2 C 0.5232(10) 0.8818(5) 0.0056(4)
H22_2 H 0.6060 0.8674 0.0256
C34_2 C 0.4021(8) 0.8764(4) 0.0315(3)
C35_2 C 0.2794(10) 0.8991(5) 0.0019(4)
H23_2 H 0.1965 0.8966 0.0196
C37_2 C 0.5073(10) 0.8213(5) 0.1220(3)
H25_2 H 0.5952 0.8142 0.1092
C38_2 C 0.3364(11) 0.8227(7) 0.1753(4)
H26_2 H 0.2832 0.8169 0.2068
C39_2 C 0.2901(12) 0.8485(7) 0.1239(4)
H27_2 H 0.1998 0.8638 0.1135
O11_2 O 0.9222(6) 0.7809(3) 0.5872(2)
O14_2 O 0.5472(6) 0.8008(3) 0.4485(2)
O15_2 O 0.5343(6) 0.7723(3) 0.3227(2)
O16_2 O 0.4373(6) 0.8789(3) 0.3062(2)
N9_2 N 0.6219(8) 0.9589(4) 0.2059(3)
C47_2 C 0.8570(10) 0.7408(4) 0.7055(4)
C48_2 C 0.9787(8) 0.7873(4) 0.6906(3)
C54_2 C 0.8017(7) 0.8181(4) 0.5714(3)
C55_2 C 0.7533(7) 0.8764(4) 0.6009(3)
H38_2 H 0.8009 0.8928 0.6348
C56_2 C 0.6300(7) 0.9115(4) 0.5791(3)
C57_2 C 0.5726(8) 0.9766(4) 0.6076(3)
C58_2 C 0.5560(8) 0.8862(4) 0.5285(3)
H39_2 H 0.4740 0.9089 0.5143
C59_2 C 0.6084(8) 0.8266(4) 0.5002(3)
C60_2 C 0.7316(8) 0.7927(4) 0.5206(3)
H40_2 H 0.7666 0.7535 0.5005
C61_2 C 0.4028(8) 0.7997(4) 0.4384(3)
C62_2 C 0.3140(10) 0.7874(4) 0.4812(3)
H41_2 H 0.3485 0.7837 0.5196
C63_2 C 0.1727(9) 0.7806(5) 0.4664(4)
H42_2 H 0.1128 0.7713 0.4950
C64_2 C 0.1208(9) 0.7875(5) 0.4102(4)
H43_2 H 0.0260 0.7829 0.4004
C65_2 C 0.2111(9) 0.8015(5) 0.3680(4)
H44_2 H 0.1755 0.8071 0.3298
C66_2 C 0.3534(7) 0.8073(4) 0.3811(3)
C67_2 C 0.4477(8) 0.8204(4) 0.3344(3)
C70_2 C 0.6525(9) 0.9748(4) 0.1547(3)
H47_2 H 0.7080 0.9459 0.1328
N13 N 0.8019(6) 0.8949(3) 0.3151(2)
N7_2 N 0.9226(6) 0.9467(3) 0.3884(2)
C40_2 C 0.9595(8) 0.9730(4) 0.4457(3)
C41_2 C 0.8620(8) 0.9990(4) 0.4797(3)
H28_2 H 0.7688 0.9980 0.4663
C43_2 C 0.8022(8) 0.9119(4) 0.3710(3)
H30_2 H 0.7309 0.9016 0.3945
C44_2 C 0.9993(9) 0.9530(5) 0.3415(3)
C45_2 C 0.9214(9) 0.9204(5) 0.2974(3)
H32_2 H 0.9477 0.9164 0.2598
C46_2 C 0.1801(11) 0.8558(6) 0.7256(5)
H34_2 H 0.2394 0.8727 0.7563
C49_2 C 0.0680(9) 0.8131(5) 0.7362(4)
H35_2 H 0.0515 0.8012 0.7741
C51_2 C 0.2048(11) 0.8737(6) 0.6700(5)
H36_2 H 0.2804 0.9031 0.6632
C52_2 C 0.1193(10) 0.8487(4) 0.6243(4)
H37_2 H 0.1381 0.8598 0.5865
C53_2 C 0.0046(8) 0.8068(4) 0.6350(3)
O4_2 O 0.3401(6) 0.9968(3) 0.3503(2)
H1_2 H 0.3733 0.9596 0.3370
O5_2 O 0.5364(7) 0.9959(4) 0.4073(3)
N6_2 N 0.4059(7) 0.9607(3) 0.8638(3)
C5_2 C 0.4018(9) 0.9300(4) 0.9205(3)
C29_2 C 0.4616(10) 0.9849(4) 0.7762(4)
H18_2 H 0.4993 0.9815 0.7406
C30_2 C 0.4782(10) 0.9360(5) 0.8201(4)
H19_2 H 0.5301 0.8930 0.8202
C32_2 C 0.5243(9) 0.9087(5) 0.9494(3)
H21_2 H 0.6072 0.9121 0.9316
C36_2 C 0.2802(10) 0.9255(6) 0.9461(4)
H24_2 H 0.1977 0.9401 0.9261
C42_2 C 0.0993(8) 0.9730(4) 0.4654(3)
H29_2 H 0.1658 0.9545 0.4423
H31_2 H 0.0859 0.9749 0.3400
O12_2 O 0.6599(6) 0.0032(3) 0.6497(2)
H33_2 H 0.6267 0.0404 0.6630
O13_2 O 0.4636(7) 0.0041(4) 0.5927(3)
N12_2 N 0.5941(7) 0.0393(3) 0.1362(3)
C50_2 C 0.5982(9) 0.0700(4) 0.0795(3)
C68_2 C 0.5384(10) 0.0151(4) 0.2238(4)
H45_2 H 0.5007 0.0185 0.2594
C69_2 C 0.5218(10) 0.0640(5) 0.1799(4)
H46_2 H 0.4699 0.1070 0.1798
C71_2 C 0.4757(9) 0.0913(5) 0.0506(3)
H48_2 H 0.3928 0.0879 0.0684
C75_2 C 0.7198(10) 0.0745(6) 0.0539(4)
H51_2 H 0.8023 0.0599 0.0739
C1_2 C 0.8199(11) 0.1442(6) 0.2744(5)
H2_2 H 0.7606 0.1273 0.2437
C4_2 C 0.9320(9) 0.1869(5) 0.2638(4)
H3_2 H 0.9485 0.1988 0.2259
C6_2 C 0.7952(11) 0.1263(6) 0.3300(5)
H4_2 H 0.7196 0.0969 0.3368
C8_2 C 0.8807(10) 0.1513(4) 0.3757(4)
H5_2 H 0.8619 0.1402 0.4135
C9_2 C 0.9954(8) 0.1932(4) 0.3650(3)
C25_2 C 0.9007(8) 0.0270(4) 0.5346(3)
H14_2 H 0.8342 0.0455 0.5577
H16_2 H 0.9141 0.0251 0.6600
loop_
_geom_bond_atom_site_label_1
_geom_bond_atom_site_label_2
_geom_bond_site_symmetry_1
_geom_bond_site_symmetry_2
C1 H2 1_555 1_555
C4 C1 1_555 1_555
H3 C4 1_555 1_555
C6 C1 1_555 1_555
H4 C6 1_555 1_555
C8 C6 1_555 1_555
H5 C8 1_555 1_555
N7 C40 1_555 1_555
N8 C43 1_555 1_555
C40 C41 1_555 1_555
H28 C41 1_555 1_555
C43 N7 1_555 1_555
H30 C43 1_555 1_555
C44 N7 1_555 1_555
C45 N8 1_555 1_555
H32 C45 1_555 1_555
Cd4 N8 1_555 1_555
C8 C9 1_555 1_555
C44 C45 1_555 1_555
H14 C25 1_555 1_555
O1 C2 1_555 1_555
O2 C2 1_555 1_555
O4 H1 1_555 1_555
O5 C13 1_555 1_555
C2 C3 1_555 1_555
C10 O3 1_555 1_555
C11 C10 1_555 1_555
H6 C11 1_555 1_555
C12 C11 1_555 1_555
C13 O4 1_555 1_555
C14 C12 1_555 1_555
H7 C14 1_555 1_555
C15 C14 1_555 1_555
C16 C10 1_555 1_555
H8 C16 1_555 1_555
H29 C42 1_555 1_555
Cd5 O1 1_555 1_555
O2 Cd5 1_555 1_555
C12 C13 1_555 1_555
C15 C16 1_555 1_555
Cd1 O7 1_555 1_555
O7 C23 1_555 1_555
O8 Cd1 1_555 1_555
N1 C7 1_555 1_555
N2 Cd1 1_555 1_555
N3 Cd1 1_555 1_555
N4 C34 1_555 1_555
N5 C37 1_555 1_555
N6 C5 1_555 1_555
C5 C32 1_555 1_555
C7 C24 1_555 1_555
C17 O6 1_555 1_555
C18 C17 1_555 1_555
C19 C18 1_555 1_555
H10 C19 1_555 1_555
C20 C19 1_555 1_555
H11 C20 1_555 1_555
C21 C20 1_555 1_555
H12 C21 1_555 1_555
C22 C17 1_555 1_555
C23 O8 1_555 1_555
C24 H13 1_555 1_555
C26 N1 1_555 1_555
H15 C26 1_555 1_555
C27 N1 1_555 1_555
C28 N2 1_555 1_555
H17 C28 1_555 1_555
C29 N3 1_555 1_555
H18 C29 1_555 1_555
C30 N6 1_555 1_555
H19 C30 1_555 1_555
C31 N3 1_555 1_555
H20 C31 1_555 1_555
C32 H21 1_555 1_555
C33 C32 1_555 1_555
H22 C33 1_555 1_555
C34 C33 1_555 1_555
C35 C34 1_555 1_555
H23 C35 1_555 1_555
C36 C5 1_555 1_555
H24 C36 1_555 1_555
C37 N4 1_555 1_555
H25 C37 1_555 1_555
C38 N5 1_555 1_555
H26 C38 1_555 1_555
C39 N4 1_555 1_555
H27 C39 1_555 1_555
Cd4 N5 1_555 1_555
O15 Cd4 1_555 1_555
O16 Cd4 1_555 1_555
N9 Cd4 1_555 1_555
N10 C73 1_555 1_555
N11 Cd1 1_555 1_555
N12 C50 1_555 1_555
C50 C71 1_555 1_555
C61 O14 1_555 1_555
C62 C61 1_555 1_555
C63 C62 1_555 1_555
H42 C63 1_555 1_555
C64 C63 1_555 1_555
H43 C64 1_555 1_555
C65 C64 1_555 1_555
H44 C65 1_555 1_555
C66 C61 1_555 1_555
C67 O15 1_555 1_555
C68 N9 1_555 1_555
H45 C68 1_555 1_555
C69 N12 1_555 1_555
H46 C69 1_555 1_555
C70 N9 1_555 1_555
H47 C70 1_555 1_555
C71 H48 1_555 1_555
C72 C71 1_555 1_555
H49 C72 1_555 1_555
C73 C72 1_555 1_555
C74 C73 1_555 1_555
H50 C74 1_555 1_555
C75 C50 1_555 1_555
H51 C75 1_555 1_555
C76 N10 1_555 1_555
H52 C76 1_555 1_555
C77 N11 1_555 1_555
H53 C77 1_555 1_555
C78 N10 1_555 1_555
H54 C78 1_555 1_555
O17 Cd4 1_555 1_555
O18 Cd1 1_555 1_555
O19 Cd4 1_555 1_555
O20 Cd1 1_555 1_555
N2 C26 1_555 1_555
N6 C31 1_555 1_555
C21 C22 1_555 1_555
C22 C23 1_555 1_555
C27 C28 1_555 1_555
C29 C30 1_555 1_555
C35 C36 1_555 1_555
C38 C39 1_555 1_555
O16 C67 1_555 1_555
N11 C76 1_555 1_555
N12 C70 1_555 1_555
C65 C66 1_555 1_555
C66 C67 1_555 1_555
C68 C69 1_555 1_555
C74 C75 1_555 1_555
C77 C78 1_555 1_555
O9 C47 1_555 1_555
O10 C47 1_555 1_555
O12 H33 1_555 1_555
O13 C57 1_555 1_555
C47 C48 1_555 1_555
C54 O11 1_555 1_555
C55 C54 1_555 1_555
H38 C55 1_555 1_555
C56 C55 1_555 1_555
C57 O12 1_555 1_555
C58 C56 1_555 1_555
H39 C58 1_555 1_555
C59 C58 1_555 1_555
C60 C54 1_555 1_555
H40 C60 1_555 1_555
Cd3 O9 1_555 1_555
O10 Cd3 1_555 1_555
C56 C57 1_555 1_555
C59 C60 1_555 1_555
C46 H34 1_555 1_555
C49 C46 1_555 1_555
H35 C49 1_555 1_555
C51 C46 1_555 1_555
H36 C51 1_555 1_555
C52 C51 1_555 1_555
H37 C52 1_555 1_555
C52 C53 1_555 1_555
Cd3 O7_2 1_555 1_555
O17 C2_2 1_555 1_555
O19 C2_2 1_555 1_555
O6_2 C15_2 1_555 1_555
O7_2 C23_2 1_555 1_555
O8_2 Cd3 1_555 1_555
N1_2 C7_2 1_555 1_555
N2_2 Cd3 1_555 1_555
N3_2 Cd3 1_555 1_555
C2_2 C3_2 1_555 1_555
C7_2 C24_2 1_555 1_555
C10_2 O3_2 1_555 1_555
C11_2 C10_2 1_555 1_555
H6_2 C11_2 1_555 1_555
C12_2 C11_2 1_555 1_555
C14_2 C12_2 1_555 1_555
H7_2 C14_2 1_555 1_555
C15_2 C14_2 1_555 1_555
C16_2 C10_2 1_555 1_555
H8_2 C16_2 1_555 1_555
C17_2 O6_2 1_555 1_555
C18_2 C17_2 1_555 1_555
H9_2 C18_2 1_555 1_555
C19_2 C18_2 1_555 1_555
H10_2 C19_2 1_555 1_555
C20_2 C19_2 1_555 1_555
H11_2 C20_2 1_555 1_555
C21_2 C20_2 1_555 1_555
H12_2 C21_2 1_555 1_555
C22_2 C17_2 1_555 1_555
C23_2 O8_2 1_555 1_555
C24_2 H13_2 1_555 1_555
C26_2 N1_2 1_555 1_555
H15_2 C26_2 1_555 1_555
C27_2 N1_2 1_555 1_555
C28_2 N2_2 1_555 1_555
H17_2 C28_2 1_555 1_555
C31_2 N3_2 1_555 1_555
H20_2 C31_2 1_555 1_555
N10_2 C73_2 1_555 1_555
N11_2 Cd3 1_555 1_555
H49_2 C72_2 1_555 1_555
C73_2 C72_2 1_555 1_555
C74_2 C73_2 1_555 1_555
H50_2 C74_2 1_555 1_555
C76_2 N10_2 1_555 1_555
H52_2 C76_2 1_555 1_555
C77_2 N11_2 1_555 1_555
H53_2 C77_2 1_555 1_555
C78_2 N10_2 1_555 1_555
H54_2 C78_2 1_555 1_555
N2_2 C26_2 1_555 1_555
C12_2 C13_2 1_555 1_555
C15_2 C16_2 1_555 1_555
C21_2 C22_2 1_555 1_555
C22_2 C23_2 1_555 1_555
C27_2 C28_2 1_555 1_555
N11_2 C76_2 1_555 1_555
C77_2 C78_2 1_555 1_555
N4_2 C34_2 1_555 1_555
N5_2 C37_2 1_555 1_555
H22_2 C33_2 1_555 1_555
C34_2 C33_2 1_555 1_555
C35_2 C34_2 1_555 1_555
H23_2 C35_2 1_555 1_555
C37_2 N4_2 1_555 1_555
H25_2 C37_2 1_555 1_555
C38_2 N5_2 1_555 1_555
H26_2 C38_2 1_555 1_555
C39_2 N4_2 1_555 1_555
H27_2 C39_2 1_555 1_555
Cd5 N5_2 1_555 1_555
O18 C47_2 1_555 1_555
O20 C47_2 1_555 1_555
O14_2 C59_2 1_555 1_555
O15_2 Cd5 1_555 1_555
O16_2 Cd5 1_555 1_555
N9_2 Cd5 1_555 1_555
C47_2 C48_2 1_555 1_555
C54_2 O11_2 1_555 1_555
C55_2 C54_2 1_555 1_555
H38_2 C55_2 1_555 1_555
C56_2 C55_2 1_555 1_555
C58_2 C56_2 1_555 1_555
H39_2 C58_2 1_555 1_555
C59_2 C58_2 1_555 1_555
C60_2 C54_2 1_555 1_555
H40_2 C60_2 1_555 1_555
C61_2 O14_2 1_555 1_555
C62_2 C61_2 1_555 1_555
H41_2 C62_2 1_555 1_555
C63_2 C62_2 1_555 1_555
H42_2 C63_2 1_555 1_555
C64_2 C63_2 1_555 1_555
H43_2 C64_2 1_555 1_555
C65_2 C64_2 1_555 1_555
H44_2 C65_2 1_555 1_555
C66_2 C61_2 1_555 1_555
C67_2 O15_2 1_555 1_555
C70_2 N9_2 1_555 1_555
H47_2 C70_2 1_555 1_555
N13 Cd5 1_555 1_555
C38_2 C39_2 1_555 1_555
O16_2 C67_2 1_555 1_555
C56_2 C57_2 1_555 1_555
C59_2 C60_2 1_555 1_555
C65_2 C66_2 1_555 1_555
C66_2 C67_2 1_555 1_555
N7_2 C40_2 1_555 1_555
N13 C43_2 1_555 1_555
C40_2 C41_2 1_555 1_555
H28_2 C41_2 1_555 1_555
C43_2 N7_2 1_555 1_555
H30_2 C43_2 1_555 1_555
C44_2 N7_2 1_555 1_555
C45_2 N13 1_555 1_555
H32_2 C45_2 1_555 1_555
C44_2 C45_2 1_555 1_555
C46_2 H34_2 1_555 1_555
C49_2 C46_2 1_555 1_555
H35_2 C49_2 1_555 1_555
C51_2 C46_2 1_555 1_555
H36_2 C51_2 1_555 1_555
C52_2 C51_2 1_555 1_555
H37_2 C52_2 1_555 1_555
C52_2 C53_2 1_555 1_555
O4_2 H1_2 1_555 1_555
N6_2 C5_2 1_555 1_555
C5_2 C32_2 1_555 1_555
H18_2 C29_2 1_555 1_555
C30_2 N6_2 1_555 1_555
H19_2 C30_2 1_555 1_555
C32_2 H21_2 1_555 1_555
C36_2 C5_2 1_555 1_555
H24_2 C36_2 1_555 1_555
H29_2 C42_2 1_555 1_555
C29_2 C30_2 1_555 1_555
O12_2 H33_2 1_555 1_555
N12_2 C50_2 1_555 1_555
C50_2 C71_2 1_555 1_555
H45_2 C68_2 1_555 1_555
C69_2 N12_2 1_555 1_555
H46_2 C69_2 1_555 1_555
C71_2 H48_2 1_555 1_555
C75_2 C50_2 1_555 1_555
H51_2 C75_2 1_555 1_555
C68_2 C69_2 1_555 1_555
C1_2 H2_2 1_555 1_555
C4_2 C1_2 1_555 1_555
H3_2 C4_2 1_555 1_555
C6_2 C1_2 1_555 1_555
H4_2 C6_2 1_555 1_555
C8_2 C6_2 1_555 1_555
H5_2 C8_2 1_555 1_555
H14_2 C25_2 1_555 1_555
C8_2 C9_2 1_555 1_555

#END
