
###############################################################################
#
# This file contains modified crystal structure data generated from the
# MOF subset of the Cambridge Structural Database (CSD) v543 
# hosted by the Cambridge Crystallographic Data Centre (CCDC).
#
# This work is licensed under the Creative Commons
# Attribution-NonCommercial-ShareAlike 4.0 International License.
# To view a copy of this license, visit
# http://creativecommons.org/licenses/by-nc-sa/4.0/
# or send a letter to
# Creative Commons, PO Box 1866, Mountain View, CA 94042, USA.
#
# CIF created using the CSD Python API on 29 September 2022
# The structure has been converted into the P1 space group
# The structure has a 3D framework
# The original CSD entry BABJIB is in the monoclinic crystal system
# The framework has been calculated to contain at least 10.0% void space
# The void calculation uses a probe of radius 1.32A, grid spacing 0.4
#
###############################################################################

data_BABJIB
_chemical_formula_moiety         '(C48 H48 Eu8 O60)n'
_symmetry_cell_setting           triclinic
_symmetry_space_group_name_H-M   'P 1'
_symmetry_Int_Tables_number      1
_space_group_name_Hall           'P 1'
loop_
_symmetry_equiv_pos_site_id
_symmetry_equiv_pos_as_xyz
1 x,y,z
_cell_length_a                   13.6222(8)
_cell_length_b                   14.6147(8)
_cell_length_c                   10.3301(6)
_cell_angle_alpha                90
_cell_angle_beta                 108.619(6)
_cell_angle_gamma                90
_cell_volume                     1948.93
loop_
_atom_site_label
_atom_site_type_symbol
_atom_site_fract_x
_atom_site_fract_y
_atom_site_fract_z
O8 O 0.1184(9) 0.2830(9) 0.0143(12)
H3 H 0.1697 0.2926 0.0855
O21 O 0.2462(7) 0.1340(7) 0.1636(10)
O23 O 0.0977(8) 0.1334(7) 0.2032(11)
Eu1 Eu 0.08341(5) 0.11736(4) 0.96051(7)
O7 O 0.0000 0.0354(8) 0.7500
H2 H 0.1351 0.3009 0.9458
H10 H 0.0455 0.0008 0.7354
O19 O 0.0829(6) 0.0473(6) 0.5267(8)
O25 O 0.1879(7) 0.1644(7) 0.8222(9)
O27 O 0.0591(7) 0.2152(7) 0.6456(9)
O2 O 0.0829(6) 0.9527(6) 0.0267(8)
O9 O 0.2896(7) 0.5092(6) 0.0468(9)
C7 C 0.3422(9) 0.5708(8) 0.0138(12)
C8 C 0.3186(9) 0.6710(8) 0.0227(12)
H7 H 0.3843 0.7026 0.0666
C9 C 0.2502(9) 0.6841(8) 0.1122(12)
H8 H 0.1844 0.6517 0.0722
C10 C 0.2288(9) 0.7889(9) 0.1251(12)
H9 H 0.2946 0.8199 0.1710
O11 O 0.2538(7) 0.6340(7) 0.3364(10)
O12 O 0.4023(8) 0.6334(7) 0.2968(11)
C11 C 0.3049(11) 0.6481(10) 0.2590(14)
O13 O 0.1879(7) 0.8356(7) 0.3222(9)
O14 O 0.0591(7) 0.7848(7) 0.1456(9)
C12 C 0.1541(10) 0.8050(9) 0.2069(13)
Eu5 Eu 0.41659(5) 0.61736(4) 0.53949(7)
Eu8 Eu 0.08341(5) 0.88264(4) 0.46051(7)
Eu9 Eu 0.41659(5) 0.38264(4) 0.03949(7)
O1 O 0.2104(7) 0.9908(6) 0.9532(9)
O3 O 0.2462(7) 0.8660(7) 0.6636(10)
O4 O 0.0977(8) 0.8666(7) 0.7032(11)
O5 O 0.3121(7) 0.6644(7) 0.6778(9)
O6 O 0.4409(7) 0.7152(7) 0.8544(9)
C1 C 0.1578(9) 0.9292(8) 0.9862(12)
C2 C 0.1951(11) 0.8519(10) 0.7410(14)
C3 C 0.3459(10) 0.6950(9) 0.7931(13)
C4 C 0.1814(9) 0.8290(8) 0.9773(12)
H4 H 0.1157 0.7974 0.9334
C5 C 0.2498(9) 0.8159(8) 0.8878(12)
H5 H 0.3156 0.8483 0.9278
C6 C 0.2712(9) 0.7111(9) 0.8749(12)
H6 H 0.2054 0.6801 0.8290
O10 O 0.4171(6) 0.5473(6) 0.9733(8)
Eu3 Eu 0.58341(5) 0.61736(4) 0.96051(7)
O7_2 O 1.0000 0.0354(8) 0.7500
H1 H 0.9545 0.0008 0.7646
Eu2 Eu 0.91659(5) 0.11736(4) 0.53949(7)
O15 O 0.8816(9) 0.2830(9) 0.4857(12)
H11 H 0.8649 0.3009 0.5542
H12 H 0.8303 0.2926 0.4145
O18 O 0.9171(6) 0.0473(6) 0.9733(8)
O20 O 0.7538(7) 0.1340(7) 0.3364(10)
O22 O 0.9023(8) 0.1334(7) 0.2968(11)
O24 O 0.8121(7) 0.1644(7) 0.6778(9)
O26 O 0.9409(7) 0.2152(7) 0.8544(9)
Eu6 Eu 0.91659(5) 0.88264(4) 0.03949(7)
O16 O 0.7896(7) 0.9908(6) 0.5468(9)
O17 O 0.9171(6) 0.9527(6) 0.4733(8)
O3_2 O 0.7538(7) 0.8660(7) 0.8364(10)
O4_2 O 0.9023(8) 0.8666(7) 0.7968(11)
O5_2 O 0.6879(7) 0.6644(7) 0.8222(9)
O6_2 O 0.5591(7) 0.7152(7) 0.6456(9)
C1_2 C 0.8422(9) 0.9292(8) 0.5138(12)
C2_2 C 0.8049(11) 0.8519(10) 0.7590(14)
C3_2 C 0.6541(10) 0.6950(9) 0.7069(13)
C4_2 C 0.8186(9) 0.8290(8) 0.5227(12)
H4_2 H 0.8843 0.7974 0.5666
C5_2 C 0.7502(9) 0.8159(8) 0.6122(12)
H5_2 H 0.6844 0.8483 0.5722
C6_2 C 0.7288(9) 0.7111(9) 0.6251(12)
H6_2 H 0.7946 0.6801 0.6710
O9_2 O 0.7104(7) 0.5092(6) 0.4532(9)
O10_2 O 0.5829(6) 0.5473(6) 0.5267(8)
C7_2 C 0.6578(9) 0.5708(8) 0.4862(12)
C8_2 C 0.6814(9) 0.6710(8) 0.4773(12)
H7_2 H 0.6157 0.7026 0.4334
C9_2 C 0.7498(9) 0.6841(8) 0.3878(12)
H8_2 H 0.8156 0.6517 0.4278
C10_2 C 0.7712(9) 0.7889(9) 0.3749(12)
H9_2 H 0.7054 0.8199 0.3290
O11_2 O 0.7462(7) 0.6340(7) 0.1636(10)
O12_2 O 0.5977(8) 0.6334(7) 0.2032(11)
C11_2 C 0.6951(11) 0.6481(10) 0.2410(14)
O13_2 O 0.8121(7) 0.8356(7) 0.1778(9)
O14_2 O 0.9409(7) 0.7848(7) 0.3544(9)
C12_2 C 0.8459(10) 0.8050(9) 0.2931(13)
Eu9_2 Eu 0.58341(5) 0.38264(4) 0.46051(7)
O2_2 O 0.5829(6) 0.4527(6) 0.0267(8)
O8_2 O 0.6184(9) 0.7830(9) 0.0143(12)
H3_2 H 0.6697 0.7926 0.0855
O9_3 O 0.7896(7) 0.0092(6) 0.0468(9)
C7_3 C 0.8422(9) 0.0708(8) 0.0138(12)
C8_3 C 0.8186(9) 0.1710(8) 0.0227(12)
H7_3 H 0.8843 0.2026 0.0666
C9_3 C 0.7502(9) 0.1841(8) 0.1122(12)
H8_3 H 0.6844 0.1517 0.0722
C10_3 C 0.7288(9) 0.2889(9) 0.1251(12)
H9_3 H 0.7946 0.3199 0.1710
C11_3 C 0.8049(11) 0.1481(10) 0.2590(14)
O13_3 O 0.6879(7) 0.3356(7) 0.3222(9)
O14_3 O 0.5591(7) 0.2848(7) 0.1456(9)
C12_3 C 0.6541(10) 0.3050(9) 0.2069(13)
O1_2 O 0.7104(7) 0.4908(6) 0.9532(9)
O3_3 O 0.7462(7) 0.3660(7) 0.6636(10)
O4_3 O 0.5977(8) 0.3666(7) 0.7032(11)
O7_3 O 0.5000 0.5354(8) 0.7500
H1_2 H 0.4545 0.5008 0.7646
H2_2 H 0.6351 0.8009 0.9458
C1_3 C 0.6578(9) 0.4292(8) 0.9862(12)
C2_3 C 0.6951(11) 0.3519(10) 0.7410(14)
C3_3 C 0.8459(10) 0.1950(9) 0.7931(13)
C4_3 C 0.6814(9) 0.3290(8) 0.9773(12)
H4_3 H 0.6157 0.2974 0.9334
C5_3 C 0.7498(9) 0.3159(8) 0.8878(12)
H5_3 H 0.8156 0.3483 0.9278
C6_3 C 0.7712(9) 0.2111(9) 0.8749(12)
H6_3 H 0.7054 0.1801 0.8290
H10_2 H 0.5455 0.5008 0.7354
O15_2 O 0.3816(9) 0.7830(9) 0.4857(12)
H11_2 H 0.3649 0.8009 0.5542
H12_2 H 0.3303 0.7926 0.4145
O16_2 O 0.2896(7) 0.4908(6) 0.5468(9)
O17_2 O 0.4171(6) 0.4527(6) 0.4733(8)
O3_4 O 0.2538(7) 0.3660(7) 0.8364(10)
O4_4 O 0.4023(8) 0.3666(7) 0.7968(11)
C1_4 C 0.3422(9) 0.4292(8) 0.5138(12)
C2_4 C 0.3049(11) 0.3519(10) 0.7590(14)
C3_4 C 0.1541(10) 0.1950(9) 0.7069(13)
C4_4 C 0.3186(9) 0.3290(8) 0.5227(12)
H4_4 H 0.3843 0.2974 0.5666
C5_4 C 0.2502(9) 0.3159(8) 0.6122(12)
H5_4 H 0.1844 0.3483 0.5722
C6_4 C 0.2288(9) 0.2111(9) 0.6251(12)
H6_4 H 0.2946 0.1801 0.6710
O9_4 O 0.2104(7) 0.0092(6) 0.4532(9)
C7_4 C 0.1578(9) 0.0708(8) 0.4862(12)
C8_4 C 0.1814(9) 0.1710(8) 0.4773(12)
H7_4 H 0.1157 0.2026 0.4334
C9_4 C 0.2498(9) 0.1841(8) 0.3878(12)
H8_4 H 0.3156 0.1517 0.4278
C10_4 C 0.2712(9) 0.2889(9) 0.3749(12)
H9_4 H 0.2054 0.3199 0.3290
C11_4 C 0.1951(11) 0.1481(10) 0.2410(14)
O13_4 O 0.3121(7) 0.3356(7) 0.1778(9)
O14_4 O 0.4409(7) 0.2848(7) 0.3544(9)
C12_4 C 0.3459(10) 0.3050(9) 0.2931(13)
O7_4 O 0.0000 0.9646(8) 0.2500
H1_3 H 0.0455 0.9992 0.2354
O15_3 O 0.1184(9) 0.7170(9) 0.5143(12)
H11_3 H 0.1351 0.6991 0.4458
H12_3 H 0.1697 0.7074 0.5855
O7_5 O 1.0000 0.9646(8) 0.2500
H2_3 H 0.8649 0.6991 0.0542
H10_3 H 0.9545 0.9992 0.2646
O8_3 O 0.8816(9) 0.7170(9) 0.9857(12)
H3_3 H 0.8303 0.7074 0.9145
O7_6 O 0.5000 0.4646(8) 0.2500
H1_4 H 0.5455 0.4992 0.2354
H2_4 H 0.3649 0.1991 0.0542
H10_4 H 0.4545 0.4992 0.2646
O15_4 O 0.6184(9) 0.2170(9) 0.5143(12)
H11_4 H 0.6351 0.1991 0.4458
H12_4 H 0.6697 0.2074 0.5855
O8_4 O 0.3816(9) 0.2170(9) 0.9857(12)
H3_4 H 0.3303 0.2074 0.9145
loop_
_geom_bond_atom_site_label_1
_geom_bond_atom_site_label_2
_geom_bond_site_symmetry_1
_geom_bond_site_symmetry_2
H3 O8 1_555 1_555
O7 Eu1 1_555 1_555
H10 O7 1_555 1_555
O25 Eu1 1_555 1_555
O9 C7 1_555 1_555
C7 C8 1_555 1_555
H7 C8 1_555 1_555
C9 C8 1_555 1_555
H8 C9 1_555 1_555
H9 C10 1_555 1_555
O11 C11 1_555 1_555
O12 C11 1_555 1_555
C11 C9 1_555 1_555
O13 C12 1_555 1_555
O14 C12 1_555 1_555
C12 C10 1_555 1_555
Eu5 O11 1_555 1_555
Eu8 O13 1_555 1_555
Eu9 O9 1_555 1_555
C9 C10 1_555 1_555
O12 Eu5 1_555 1_555
O1 C1 1_555 1_555
O3 C2 1_555 1_555
O4 C2 1_555 1_555
O5 C3 1_555 1_555
O6 C3 1_555 1_555
C2 C5 1_555 1_555
C3 C6 1_555 1_555
C4 C1 1_555 1_555
H4 C4 1_555 1_555
C5 C4 1_555 1_555
H5 C5 1_555 1_555
C6 C5 1_555 1_555
H6 C6 1_555 1_555
Eu3 O6 1_555 1_555
Eu5 O5 1_555 1_555
Eu8 O3 1_555 1_555
O4 Eu8 1_555 1_555
O10 Eu3 1_555 1_555
H1 O7_2 1_555 1_555
Eu2 O7_2 1_555 1_555
O15 Eu2 1_555 1_555
H11 O15 1_555 1_555
H12 O15 1_555 1_555
O20 Eu2 1_555 1_555
O22 Eu2 1_555 1_555
O24 Eu2 1_555 1_555
O16 C1_2 1_555 1_555
O3_2 C2_2 1_555 1_555
O4_2 C2_2 1_555 1_555
O5_2 C3_2 1_555 1_555
O6_2 C3_2 1_555 1_555
C1_2 O17 1_555 1_555
C2_2 C5_2 1_555 1_555
C3_2 C6_2 1_555 1_555
C4_2 C1_2 1_555 1_555
H4_2 C4_2 1_555 1_555
C5_2 C4_2 1_555 1_555
H5_2 C5_2 1_555 1_555
C6_2 C5_2 1_555 1_555
H6_2 C6_2 1_555 1_555
O9_2 C7_2 1_555 1_555
O10_2 C7_2 1_555 1_555
C7_2 C8_2 1_555 1_555
C8_2 C6_2 1_555 1_555
H7_2 C8_2 1_555 1_555
C9_2 C8_2 1_555 1_555
H8_2 C9_2 1_555 1_555
C10_2 C4_2 1_555 1_555
H9_2 C10_2 1_555 1_555
O11_2 C11_2 1_555 1_555
O12_2 C11_2 1_555 1_555
C11_2 C9_2 1_555 1_555
O13_2 C12_2 1_555 1_555
O14_2 C12_2 1_555 1_555
C12_2 C10_2 1_555 1_555
Eu5 O6_2 1_555 1_555
Eu3 O5_2 1_555 1_555
Eu6 O13_2 1_555 1_555
Eu9_2 O9_2 1_555 1_555
O10_2 Eu5 1_555 1_555
O10_2 Eu9_2 1_555 1_555
C9_2 C10_2 1_555 1_555
H3_2 O8_2 1_555 1_555
O9_3 C7_3 1_555 1_555
C7_3 C8_3 1_555 1_555
H7_3 C8_3 1_555 1_555
C9_3 C8_3 1_555 1_555
H8_3 C9_3 1_555 1_555
H9_3 C10_3 1_555 1_555
O20 C11_3 1_555 1_555
O22 C11_3 1_555 1_555
C11_3 C9_3 1_555 1_555
O13_3 C12_3 1_555 1_555
O14_3 C12_3 1_555 1_555
C12_3 C10_3 1_555 1_555
Eu9 O2_2 1_555 1_555
Eu9_2 O13_3 1_555 1_555
C9_3 C10_3 1_555 1_555
O14_3 Eu9 1_555 1_555
Eu3 O1_2 1_555 1_555
O1_2 C1_3 1_555 1_555
O3_3 C2_3 1_555 1_555
O4_3 C2_3 1_555 1_555
O24 C3_3 1_555 1_555
O26 C3_3 1_555 1_555
O7_3 Eu3 1_555 1_555
H1_2 O7_3 1_555 1_555
C2_3 C5_3 1_555 1_555
C3_3 C6_3 1_555 1_555
C4_3 C1_3 1_555 1_555
H4_3 C4_3 1_555 1_555
C5_3 C4_3 1_555 1_555
H5_3 C5_3 1_555 1_555
C6_3 C5_3 1_555 1_555
H6_3 C6_3 1_555 1_555
H10_2 O7_3 1_555 1_555
Eu5 O7_3 1_555 1_555
O15_2 Eu5 1_555 1_555
H11_2 O15_2 1_555 1_555
H12_2 O15_2 1_555 1_555
Eu9_2 O3_3 1_555 1_555
O16_2 Eu5 1_555 1_555
O17_2 Eu5 1_555 1_555
O4_3 Eu9_2 1_555 1_555
Eu9_2 O17_2 1_555 1_555
O16_2 C1_4 1_555 1_555
O3_4 C2_4 1_555 1_555
O4_4 C2_4 1_555 1_555
O25 C3_4 1_555 1_555
O27 C3_4 1_555 1_555
C1_4 O17_2 1_555 1_555
C2_4 C5_4 1_555 1_555
C3_4 C6_4 1_555 1_555
C4_4 C1_4 1_555 1_555
H4_4 C4_4 1_555 1_555
C5_4 C4_4 1_555 1_555
H5_4 C5_4 1_555 1_555
C6_4 C5_4 1_555 1_555
H6_4 C6_4 1_555 1_555
O9_4 C7_4 1_555 1_555
O19 C7_4 1_555 1_555
C7_4 C8_4 1_555 1_555
C8_4 C6_4 1_555 1_555
H7_4 C8_4 1_555 1_555
C9_4 C8_4 1_555 1_555
H8_4 C9_4 1_555 1_555
C10_4 C4_4 1_555 1_555
H9_4 C10_4 1_555 1_555
O21 C11_4 1_555 1_555
O23 C11_4 1_555 1_555
C11_4 C9_4 1_555 1_555
O13_4 C12_4 1_555 1_555
O14_4 C12_4 1_555 1_555
C12_4 C10_4 1_555 1_555
Eu9 O13_4 1_555 1_555
C9_4 C10_4 1_555 1_555
O14_4 Eu9_2 1_555 1_555
H1_3 O7_4 1_555 1_555
Eu8 O7_4 1_555 1_555
O15_3 Eu8 1_555 1_555
H11_3 O15_3 1_555 1_555
H12_3 O15_3 1_555 1_555
O7_5 Eu6 1_555 1_555
H10_3 O7_5 1_555 1_555
H3_3 O8_3 1_555 1_555
O7_6 Eu9 1_555 1_555
H1_4 O7_6 1_555 1_555
H10_4 O7_6 1_555 1_555
Eu9_2 O7_6 1_555 1_555
O15_4 Eu9_2 1_555 1_555
H11_4 O15_4 1_555 1_555
H12_4 O15_4 1_555 1_555
H3_4 O8_4 1_555 1_555

#END
