
###############################################################################
#
# This file contains modified crystal structure data generated from the
# MOF subset of the Cambridge Structural Database (CSD) v543 
# hosted by the Cambridge Crystallographic Data Centre (CCDC).
#
# This work is licensed under the Creative Commons
# Attribution-NonCommercial-ShareAlike 4.0 International License.
# To view a copy of this license, visit
# http://creativecommons.org/licenses/by-nc-sa/4.0/
# or send a letter to
# Creative Commons, PO Box 1866, Mountain View, CA 94042, USA.
#
# CIF created using the CSD Python API on 29 September 2022
# The structure has been converted into the P1 space group
# The structure has a 3D framework
# The original CSD entry BACGAQ is in the triclinic crystal system
# The framework has been calculated to contain at least 10.0% void space
# The void calculation uses a probe of radius 1.32A, grid spacing 0.4
#
###############################################################################

data_BACGAQ
_chemical_formula_moiety         '(C64 H52 Cd2 N8 O8)n'
_symmetry_cell_setting           triclinic
_symmetry_space_group_name_H-M   'P 1'
_symmetry_Int_Tables_number      1
_space_group_name_Hall           'P 1'
loop_
_symmetry_equiv_pos_site_id
_symmetry_equiv_pos_as_xyz
1 x,y,z
_cell_length_a                   10.312(2)
_cell_length_b                   13.919(3)
_cell_length_c                   14.174(3)
_cell_angle_alpha                88.350(3)
_cell_angle_beta                 69.287(4)
_cell_angle_gamma                74.727(4)
_cell_volume                     1831.05
loop_
_atom_site_label
_atom_site_type_symbol
_atom_site_fract_x
_atom_site_fract_y
_atom_site_fract_z
_atom_site_U_iso_or_equiv
_atom_site_thermal_displace_type
C25 C 0.1061(6) 0.2807(4) 0.3062(4) 0.0644 Uani
H20 H 0.1432 0.2871 0.3560 0.0770 Uiso
C26 C 0.1974(6) 0.2257(4) 0.2151(5) 0.0679 Uani
H21 H 0.2935 0.1963 0.2059 0.0810 Uiso
C27 C 0.1480(5) 0.2142(3) 0.1390(4) 0.0575 Uani
H22 H 0.2079 0.1771 0.0786 0.0690 Uiso
C28 C 0.0049(5) 0.2605(3) 0.1569(3) 0.0437 Uani
H30 H 0.3721 0.0579 0.6785 0.0690 Uiso
H31 H 0.3156 0.0222 0.5417 0.0610 Uiso
C43 C 0.0942(6) 0.0270(4) 0.4162(4) 0.0646 Uani
H35 H 0.1578 0.0472 0.3596 0.0780 Uiso
H23 H 0.0609 0.2253 0.9551 0.0640 Uiso
C32 C 0.0663(5) 0.0417(3) 0.9137(3) 0.0476 Uani
H26 H 0.1133 0.0693 0.8552 0.0580 Uiso
N5 N 0.4352(4) 0.7035(2) 0.5618(3) 0.0435 Uani
N6 N 0.3533(4) 0.8248(2) 0.4750(3) 0.0427 Uani
C33 C 0.3896(5) 0.7258(3) 0.4862(3) 0.0430 Uani
H27 H 0.3830 0.6782 0.4447 0.0520 Uiso
C34 C 0.4293(4) 0.7950(3) 0.6037(3) 0.0383 Uani
C35 C 0.4646(5) 0.8173(3) 0.6852(3) 0.0495 Uani
H28 H 0.5012 0.7672 0.7212 0.0600 Uiso
C36 C 0.4431(5) 0.9165(4) 0.7103(4) 0.0554 Uani
H29 H 0.4669 0.9336 0.7638 0.0670 Uiso
C37 C 0.3869(5) 0.9918(3) 0.6580(4) 0.0573 Uani
C38 C 0.3526(5) 0.9716(3) 0.5771(4) 0.0505 Uani
C39 C 0.3762(4) 0.8711(3) 0.5506(3) 0.0410 Uani
C40 C 0.2911(5) 0.8730(3) 0.4021(3) 0.0509 Uani
H32 H 0.3511 0.9133 0.3614 0.0610 Uiso
H33 H 0.2897 0.8223 0.3573 0.0610 Uiso
C41 C 0.0450(6) 0.9124(4) 0.5390(4) 0.0639 Uani
H34 H 0.0746 0.8533 0.5672 0.0770 Uiso
C42 C 0.1392(5) 0.9388(3) 0.4536(3) 0.0437 Uani
C51 C 0.0308(6) 0.7854(3) 0.0030(3) 0.0532 Uani
H42 H 0.1004 0.7563 0.0346 0.0640 Uiso
Cd6 Cd 0.43904(3) 0.55318(2) 0.63386(2) 0.0363 Uani
N7 N 0.2248(4) 0.6462(2) 0.7580(3) 0.0425 Uani
N8 N 0.0775(4) 0.7343(2) 0.9029(3) 0.0438 Uani
C44 C 0.2120(5) 0.6780(3) 0.8479(3) 0.0453 Uani
H36 H 0.2878 0.6634 0.8718 0.0540 Uiso
C45 C 0.0878(5) 0.6842(3) 0.7531(3) 0.0402 Uani
C46 C 0.0370(5) 0.6746(3) 0.6757(4) 0.0517 Uani
H37 H 0.0976 0.6394 0.6144 0.0620 Uiso
C52 C 0.0787(5) 0.9407(3) 0.9121(3) 0.0506 Uani
H43 H 0.1306 0.9013 0.8519 0.0610 Uiso
C53 C 0.0151(5) 0.8976(3) 0.9989(3) 0.0403 Uani
Cd1 Cd 0.56096(3) 0.44682(2) 0.36614(2) 0.0363 Uani
N1 N 0.5648(4) 0.2965(2) 0.4382(3) 0.0435 Uani
N2 N 0.6467(4) 0.1752(2) 0.5250(3) 0.0427 Uani
N3 N 0.7752(4) 0.3538(2) 0.2420(3) 0.0425 Uani
N4 N 0.9225(4) 0.2657(2) 0.0971(3) 0.0438 Uani
O2 O 0.3475(3) 0.5042(2) 0.5227(2) 0.0420 Uani
O3 O 0.2822(3) 0.4243(2) 0.6606(2) 0.0484 Uani
C1 C 0.2789(4) 0.4455(3) 0.5766(3) 0.0351 Uani
C2 C 0.1926(5) 0.4025(4) 0.5305(3) 0.0471 Uani
H1 H 0.1411 0.4557 0.5007 0.0570 Uiso
H2 H 0.2591 0.3534 0.4761 0.0570 Uiso
C3 C 0.0855(4) 0.3540(3) 0.6024(3) 0.0389 Uani
C4 C 0.1171(6) 0.2515(4) 0.6086(4) 0.0627 Uani
H3 H 0.2056 0.2113 0.5667 0.0750 Uiso
C5 C 0.0196(7) 0.2084(4) 0.6756(5) 0.0781 Uani
H4 H 0.0434 0.1395 0.6789 0.0930 Uiso
C11 C 0.6104(5) 0.2742(3) 0.5138(3) 0.0430 Uani
H9 H 0.6170 0.3218 0.5553 0.0520 Uiso
C12 C 0.5707(4) 0.2050(3) 0.3963(3) 0.0383 Uani
C13 C 0.5354(5) 0.1827(3) 0.3148(3) 0.0495 Uani
H10 H 0.4988 0.2328 0.2788 0.0600 Uiso
C14 C 0.5569(5) 0.0835(4) 0.2897(4) 0.0554 Uani
H11 H 0.5331 0.0664 0.2362 0.0670 Uiso
C15 C 0.6131(5) 0.0082(3) 0.3420(4) 0.0573 Uani
C16 C 0.6474(5) 0.0284(3) 0.4229(4) 0.0505 Uani
C17 C 0.6238(4) 0.1289(3) 0.4494(3) 0.0410 Uani
C18 C 0.7089(5) 0.1270(3) 0.5979(3) 0.0509 Uani
H14 H 0.6489 0.0867 0.6386 0.0610 Uiso
H15 H 0.7103 0.1777 0.6427 0.0610 Uiso
C19 C 0.9550(6) 0.0876(4) 0.4610(4) 0.0639 Uani
H16 H 0.9254 0.1467 0.4328 0.0770 Uiso
C20 C 0.8608(5) 0.0612(3) 0.5464(3) 0.0437 Uani
C22 C 0.7880(5) 0.3220(3) 0.1521(3) 0.0453 Uani
H18 H 0.7122 0.3366 0.1282 0.0540 Uiso
C23 C 0.9122(5) 0.3158(3) 0.2469(3) 0.0402 Uani
C24 C 0.9630(5) 0.3254(3) 0.3243(4) 0.0517 Uani
H19 H 0.9024 0.3606 0.3856 0.0620 Uiso
C30 C 0.9213(5) 0.0593(3) 0.0879(3) 0.0506 Uani
H25 H 0.8694 0.0987 0.1481 0.0610 Uiso
C31 C 0.9849(5) 0.1024(3) 0.0011(3) 0.0403 Uani
O5 O 0.4459(4) 0.4267(3) 0.2456(3) 0.0792 Uani
O8 O 0.4178(3) 0.5736(2) 0.3087(2) 0.0530 Uani
C60 C 0.1123(6) 0.7346(4) 0.2621(4) 0.0676 Uani
H49 H 0.1780 0.7650 0.2179 0.0810 Uiso
C61 C 0.1478(5) 0.6310(4) 0.2653(3) 0.0463 Uani
C62 C 0.0478(4) 0.5894(3) 0.3335(3) 0.0402 Uani
H50 H 0.0709 0.5204 0.3365 0.0480 Uiso
C63 C 0.2921(5) 0.5655(5) 0.1994(4) 0.0666 Uani
H51 H 0.3399 0.6050 0.1481 0.0800 Uiso
H52 H 0.2767 0.5126 0.1651 0.0800 Uiso
C64 C 0.3902(4) 0.5191(4) 0.2552(3) 0.0466 Uani
O10 O 0.6525(3) 0.4958(2) 0.4773(2) 0.0420 Uani
O12 O 0.7178(3) 0.5757(2) 0.3394(2) 0.0484 Uani
C29 C 0.9692(6) 0.2146(3) 0.9970(3) 0.0532 Uani
H24 H 0.8996 0.2437 0.9654 0.0640 Uiso
O1 O 0.5541(4) 0.5733(3) 0.7544(3) 0.0792 Uani
O4 O 0.5822(3) 0.4264(2) 0.6913(2) 0.0530 Uani
C6 C 0.8877(6) 0.2654(4) 0.7379(4) 0.0676 Uani
H5 H 0.8220 0.2350 0.7821 0.0810 Uiso
C7 C 0.8522(5) 0.3690(4) 0.7347(3) 0.0463 Uani
C8 C 0.9522(4) 0.4106(3) 0.6665(3) 0.0402 Uani
H6 H 0.9291 0.4796 0.6635 0.0480 Uiso
C9 C 0.7079(5) 0.4345(5) 0.8006(4) 0.0666 Uani
H7 H 0.6601 0.3950 0.8519 0.0800 Uiso
H8 H 0.7233 0.4874 0.8349 0.0800 Uiso
C10 C 0.6098(4) 0.4809(4) 0.7448(3) 0.0466 Uani
C55 C 0.7211(4) 0.5545(3) 0.4234(3) 0.0351 Uani
C56 C 0.8074(5) 0.5975(4) 0.4695(3) 0.0471 Uani
H45 H 0.8589 0.5443 0.4993 0.0570 Uiso
H46 H 0.7409 0.6466 0.5239 0.0570 Uiso
C57 C 0.9145(4) 0.6460(3) 0.3976(3) 0.0389 Uani
C58 C 0.8829(6) 0.7485(4) 0.3914(4) 0.0627 Uani
H47 H 0.7944 0.7887 0.4333 0.0750 Uiso
C59 C 0.9804(7) 0.7916(4) 0.3244(5) 0.0781 Uani
H48 H 0.9566 0.8605 0.3211 0.0930 Uiso
H12 H 0.6279 0.9421 0.3215 0.0690 Uiso
H13 H 0.6844 0.9778 0.4583 0.0610 Uiso
C21 C 0.9058(6) 0.9730(4) 0.5838(4) 0.0646 Uani
H17 H 0.8422 0.9528 0.6404 0.0780 Uiso
H41 H 0.9391 0.7747 0.0449 0.0640 Uiso
C54 C 0.9337(5) 0.9583(3) 0.0863(3) 0.0476 Uani
H44 H 0.8867 0.9307 0.1448 0.0580 Uiso
C47 C 0.8939(6) 0.7193(4) 0.6938(4) 0.0644 Uani
H38 H 0.8568 0.7129 0.6440 0.0770 Uiso
C48 C 0.8026(6) 0.7743(4) 0.7849(5) 0.0679 Uani
H39 H 0.7065 0.8037 0.7941 0.0810 Uiso
C49 C 0.8520(5) 0.7858(3) 0.8610(4) 0.0575 Uani
H40 H 0.7921 0.8229 0.9214 0.0690 Uiso
C50 C 0.9951(5) 0.7395(3) 0.8431(3) 0.0437 Uani
loop_
_atom_site_aniso_label
_atom_site_aniso_U_11
_atom_site_aniso_U_22
_atom_site_aniso_U_33
_atom_site_aniso_U_23
_atom_site_aniso_U_13
_atom_site_aniso_U_12
C25 0.063 0.059 0.081 0.001 -0.039 -0.014
C26 0.042 0.054 0.099 0.001 -0.021 -0.004
C27 0.04 0.047 0.067 -0.007 -0.002 -0.004
C28 0.036 0.036 0.048 0.0004 -0.003 -0.0079
C43 0.052 0.062 0.067 0.027 -0.011 -0.011
C32 0.055 0.044 0.03 -0.0062 -0.002 -0.008
N5 0.043 0.0358 0.044 -0.0059 -0.0102 -0.0047
N6 0.042 0.038 0.043 -0.0081 -0.0174 0.0019
C33 0.04 0.038 0.044 -0.011 -0.011 -0.003
C34 0.032 0.036 0.04 -0.0092 -0.0074 -0.0044
C35 0.053 0.05 0.045 -0.003 -0.02 -0.009
C36 0.058 0.059 0.052 -0.015 -0.02 -0.018
C37 0.062 0.042 0.064 -0.017 -0.013 -0.019
C38 0.049 0.037 0.06 0 -0.016 -0.007
C39 0.036 0.037 0.043 -0.006 -0.0089 -0.0047
C40 0.049 0.056 0.042 0 -0.019 -0.001
C41 0.058 0.054 0.067 0.026 -0.015 -0.007
C42 0.041 0.044 0.047 0.004 -0.02 -0.007
C51 0.069 0.04 0.035 -0.007 -0.005 -0.007
Cd6 0.03264 0.03515 0.03603 -0.00815 -0.00929 -0.00386
N7 0.035 0.0405 0.042 -0.0141 -0.0047 -0.0045
N8 0.049 0.0291 0.041 -0.0063 -0.0065 -0.0027
C44 0.042 0.035 0.05 -0.006 -0.01 -0.004
C45 0.036 0.033 0.044 -0.0027 -0.0068 -0.0069
C46 0.051 0.048 0.052 -0.006 -0.016 -0.009
C52 0.059 0.042 0.031 -0.0122 0.003 -0.006
C53 0.041 0.035 0.034 -0.0084 -0.0061 -0.0012
Cd1 0.03264 0.03515 0.03603 -0.00815 -0.00929 -0.00386
N1 0.043 0.0358 0.044 -0.0059 -0.0102 -0.0047
N2 0.042 0.038 0.043 -0.0081 -0.0174 0.0019
N3 0.035 0.0405 0.042 -0.0141 -0.0047 -0.0045
N4 0.049 0.0291 0.041 -0.0063 -0.0065 -0.0027
O2 0.0365 0.0411 0.0429 -0.0097 -0.0049 -0.0129
O3 0.047 0.064 0.0386 -0.0035 -0.0179 -0.0178
C1 0.023 0.038 0.037 -0.0106 -0.0061 -0.0014
C2 0.039 0.065 0.044 -0.004 -0.018 -0.02
C3 0.032 0.043 0.045 -0.0023 -0.0155 -0.0129
C4 0.045 0.042 0.092 -0.008 -0.022 0.001
C5 0.08 0.042 0.116 0.015 -0.037 -0.021
C11 0.04 0.038 0.044 -0.011 -0.011 -0.003
C12 0.032 0.036 0.04 -0.0092 -0.0074 -0.0044
C13 0.053 0.05 0.045 -0.003 -0.02 -0.009
C14 0.058 0.059 0.052 -0.015 -0.02 -0.018
C15 0.062 0.042 0.064 -0.017 -0.013 -0.019
C16 0.049 0.037 0.06 0 -0.016 -0.007
C17 0.036 0.037 0.043 -0.006 -0.0089 -0.0047
C18 0.049 0.056 0.042 0 -0.019 -0.001
C19 0.058 0.054 0.067 0.026 -0.015 -0.007
C20 0.041 0.044 0.047 0.004 -0.02 -0.007
C22 0.042 0.035 0.05 -0.006 -0.01 -0.004
C23 0.036 0.033 0.044 -0.0027 -0.0068 -0.0069
C24 0.051 0.048 0.052 -0.006 -0.016 -0.009
C30 0.059 0.042 0.031 -0.0122 0.003 -0.006
C31 0.041 0.035 0.034 -0.0084 -0.0061 -0.0012
O5 0.084 0.075 0.103 -0.008 -0.061 -0.022
O8 0.0425 0.068 0.051 -0.0068 -0.0244 -0.0075
C60 0.065 0.075 0.081 0.031 -0.033 -0.042
C61 0.035 0.07 0.042 0.004 -0.022 -0.016
C62 0.038 0.036 0.048 -0.0008 -0.02 -0.0058
C63 0.034 0.121 0.04 -0.011 -0.012 -0.013
C64 0.025 0.061 0.049 -0.001 -0.0069 -0.012
O10 0.0365 0.0411 0.0429 -0.0097 -0.0049 -0.0129
O12 0.047 0.064 0.0386 -0.0035 -0.0179 -0.0178
C29 0.069 0.04 0.035 -0.007 -0.005 -0.007
O1 0.084 0.075 0.103 -0.008 -0.061 -0.022
O4 0.0425 0.068 0.051 -0.0068 -0.0244 -0.0075
C6 0.065 0.075 0.081 0.031 -0.033 -0.042
C7 0.035 0.07 0.042 0.004 -0.022 -0.016
C8 0.038 0.036 0.048 -0.0008 -0.02 -0.0058
C9 0.034 0.121 0.04 -0.011 -0.012 -0.013
C10 0.025 0.061 0.049 -0.001 -0.0069 -0.012
C55 0.023 0.038 0.037 -0.0106 -0.0061 -0.0014
C56 0.039 0.065 0.044 -0.004 -0.018 -0.02
C57 0.032 0.043 0.045 -0.0023 -0.0155 -0.0129
C58 0.045 0.042 0.092 -0.008 -0.022 0.001
C59 0.08 0.042 0.116 0.015 -0.037 -0.021
C21 0.052 0.062 0.067 0.027 -0.011 -0.011
C54 0.055 0.044 0.03 -0.0062 -0.002 -0.008
C47 0.063 0.059 0.081 0.001 -0.039 -0.014
C48 0.042 0.054 0.099 0.001 -0.021 -0.004
C49 0.04 0.047 0.067 -0.007 -0.002 -0.004
C50 0.036 0.036 0.048 0.0004 -0.003 -0.0079
loop_
_geom_bond_atom_site_label_1
_geom_bond_atom_site_label_2
_geom_bond_site_symmetry_1
_geom_bond_site_symmetry_2
H20 C25 1_555 1_555
C26 C25 1_555 1_555
H21 C26 1_555 1_555
C27 C26 1_555 1_555
H22 C27 1_555 1_555
H35 C43 1_555 1_555
C27 C28 1_555 1_555
H26 C32 1_555 1_555
N5 C33 1_555 1_555
N6 C33 1_555 1_555
C33 H27 1_555 1_555
C34 N5 1_555 1_555
C35 C34 1_555 1_555
H28 C35 1_555 1_555
C36 C35 1_555 1_555
H29 C36 1_555 1_555
C37 C36 1_555 1_555
C38 C37 1_555 1_555
C39 N6 1_555 1_555
C40 N6 1_555 1_555
H32 C40 1_555 1_555
H33 C40 1_555 1_555
H34 C41 1_555 1_555
C42 C40 1_555 1_555
H42 C51 1_555 1_555
Cd6 N5 1_555 1_555
C34 C39 1_555 1_555
C38 C39 1_555 1_555
C41 C42 1_555 1_555
N7 C44 1_555 1_555
N8 C44 1_555 1_555
C44 H36 1_555 1_555
C45 N7 1_555 1_555
C46 C45 1_555 1_555
H37 C46 1_555 1_555
H43 C52 1_555 1_555
Cd6 N7 1_555 1_555
C52 C53 1_555 1_555
Cd1 N1 1_555 1_555
N1 C11 1_555 1_555
N2 C11 1_555 1_555
N3 Cd1 1_555 1_555
N4 C22 1_555 1_555
O2 Cd1 1_555 1_555
O3 C1 1_555 1_555
C1 O2 1_555 1_555
C2 C1 1_555 1_555
H1 C2 1_555 1_555
H2 C2 1_555 1_555
C3 C2 1_555 1_555
C4 C3 1_555 1_555
H3 C4 1_555 1_555
C5 C4 1_555 1_555
H4 C5 1_555 1_555
C11 H9 1_555 1_555
C12 N1 1_555 1_555
C13 C12 1_555 1_555
H10 C13 1_555 1_555
C14 C13 1_555 1_555
H11 C14 1_555 1_555
C15 C14 1_555 1_555
C16 C15 1_555 1_555
C17 N2 1_555 1_555
C18 N2 1_555 1_555
H14 C18 1_555 1_555
H15 C18 1_555 1_555
C19 H16 1_555 1_555
C20 C18 1_555 1_555
C22 N3 1_555 1_555
H18 C22 1_555 1_555
C23 N3 1_555 1_555
C24 C23 1_555 1_555
H19 C24 1_555 1_555
C30 H25 1_555 1_555
O5 Cd1 1_555 1_555
O8 Cd1 1_555 1_555
H49 C60 1_555 1_555
C61 C60 1_555 1_555
H50 C62 1_555 1_555
C63 C61 1_555 1_555
H51 C63 1_555 1_555
H52 C63 1_555 1_555
C64 O5 1_555 1_555
Cd6 O2 1_555 1_555
O10 Cd1 1_555 1_555
O12 Cd1 1_555 1_555
O3 Cd6 1_555 1_555
C12 C17 1_555 1_555
C16 C17 1_555 1_555
C19 C20 1_555 1_555
C30 C31 1_555 1_555
O8 C64 1_555 1_555
C61 C62 1_555 1_555
C63 C64 1_555 1_555
Cd6 O10 1_555 1_555
H24 C29 1_555 1_555
O1 C10 1_555 1_555
O4 C10 1_555 1_555
H5 C6 1_555 1_555
C7 C6 1_555 1_555
H6 C8 1_555 1_555
C9 C7 1_555 1_555
H7 C9 1_555 1_555
H8 C9 1_555 1_555
C10 C9 1_555 1_555
Cd6 O1 1_555 1_555
O12 C55 1_555 1_555
C55 O10 1_555 1_555
C56 C55 1_555 1_555
H45 C56 1_555 1_555
H46 C56 1_555 1_555
C57 C56 1_555 1_555
C58 C57 1_555 1_555
H47 C58 1_555 1_555
C59 C58 1_555 1_555
H48 C59 1_555 1_555
O4 Cd6 1_555 1_555
C7 C8 1_555 1_555
H17 C21 1_555 1_555
H44 C54 1_555 1_555
H38 C47 1_555 1_555
C48 C47 1_555 1_555
H39 C48 1_555 1_555
C49 C48 1_555 1_555
H40 C49 1_555 1_555
C49 C50 1_555 1_555

#END
