
###############################################################################
#
# This file contains modified crystal structure data generated from the
# MOF subset of the Cambridge Structural Database (CSD) v543 
# hosted by the Cambridge Crystallographic Data Centre (CCDC).
#
# This work is licensed under the Creative Commons
# Attribution-NonCommercial-ShareAlike 4.0 International License.
# To view a copy of this license, visit
# http://creativecommons.org/licenses/by-nc-sa/4.0/
# or send a letter to
# Creative Commons, PO Box 1866, Mountain View, CA 94042, USA.
#
# CIF created using the CSD Python API on 29 September 2022
# The structure has been converted into the P1 space group
# The structure has a 3D framework
# The original CSD entry BACSIL is in the triclinic crystal system
# The framework has been calculated to contain at least 10.0% void space
# The void calculation uses a probe of radius 1.32A, grid spacing 0.4
# H atom positions have been added when not included in the experimental data
#
###############################################################################

data_BACSIL
_chemical_formula_moiety         '(C164 H104 Cd6 N16 O38)n'
_symmetry_cell_setting           triclinic
_symmetry_space_group_name_H-M   'P 1'
_symmetry_Int_Tables_number      1
_space_group_name_Hall           'P 1'
loop_
_symmetry_equiv_pos_site_id
_symmetry_equiv_pos_as_xyz
1 x,y,z
_cell_length_a                   14.865(2)
_cell_length_b                   15.836(3)
_cell_length_c                   19.119(3)
_cell_angle_alpha                84.748(4)
_cell_angle_beta                 89.922(4)
_cell_angle_gamma                87.094(4)
_cell_volume                     4475.97
loop_
_atom_site_label
_atom_site_type_symbol
_atom_site_fract_x
_atom_site_fract_y
_atom_site_fract_z
Cd4 Cd 0.06447(4) 0.01167(4) 0.07102(3)
O12 O 0.0098(4) 0.1495(4) 0.0361(3)
O23 O 0.1420(5) 0.0715(4) 0.1570(3)
O33 O 0.2082(4) 0.0090(4) 0.0060(3)
H31 H 0.042786 0.436312 0.913446
C58 C 0.0088(7) 0.3197(6) 0.9501(5)
H32 H 0.066145 0.294109 0.946889
O30 O 0.0844(4) 0.0158(4) 0.9453(3)
O24 O 0.0828(5) 0.9516(5) 0.1911(4)
O31 O 0.0786(4) 0.8679(4) 0.0574(3)
Cd3 Cd 0.36094(5) 0.05437(4) 0.02797(4)
O8 O 0.4715(5) 0.1401(5) 0.0648(4)
O10 O 0.5502(5) 0.0527(4) 0.2982(3)
O17 O 0.5615(5) 0.0294(4) 0.0468(4)
O18 O 0.2687(5) 0.1588(4) 0.0837(4)
H4 H 0.301731 0.197554 0.097242
H5 H 0.246710 0.135860 0.122270
C1 C 0.7816(6) 0.1893(5) 0.0539(4)
H23 H 0.440146 0.009719 0.192344
C37 C 0.5478(7) 0.1066(6) 0.0530(5)
C38 C 0.6238(6) 0.1635(5) 0.0396(5)
C39 C 0.7088(6) 0.1401(5) 0.0713(4)
C40 C 0.7174(6) 0.0657(5) 0.1244(4)
C45 C 0.6662(6) 0.0640(6) 0.1847(4)
H27 H 0.625905 0.109431 0.191127
C51 C 0.7745(6) 0.2588(5) 0.0037(5)
Cd5 Cd 0.54575(5) 0.03688(4) 0.41920(3)
H52 H 0.845944 0.173133 0.0801876
O13 O 0.9595(5) 0.5776(4) 0.8952(4)
H3 H 0.944339 0.627744 0.885063
O14 O 0.8258(5) 0.5743(4) 0.9464(5)
O15 O 0.9214(4) 0.1321(4) 0.9426(3)
C48 C 0.9573(6) 0.1755(6) 0.9843(5)
C49 C 0.9380(6) 0.2706(6) 0.9729(5)
C50 C 0.8528(6) 0.3087(5) 0.9811(4)
C52 C 0.6899(7) 0.2835(6) 0.9744(5)
H28 H 0.682728 0.330707 0.941754
C53 C 0.6166(6) 0.2358(6) 0.9952(5)
H29 H 0.559838 0.254326 0.977857
C54 C 0.8421(6) 0.3964(5) 0.9668(5)
H30 H 0.785955 0.422931 0.973819
C55 C 0.9120(7) 0.4456(5) 0.9427(5)
C56 C 0.8934(7) 0.5393(6) 0.9288(5)
C57 C 0.9957(7) 0.4052(6) 0.9324(5)
N9 N 0.3590(6) 0.1507(5) 0.9355(4)
Cd2 Cd 0.13527(5) 0.05526(4) 0.52373(3)
O4 O 0.2880(4) 0.0013(4) 0.5123(3)
O7 O 0.2251(4) 0.1485(4) 0.5872(3)
H1 H 0.268994 0.136109 0.615711
H2 H 0.239184 0.196549 0.560241
O9 O 0.6298(5) 0.9450(4) 0.3512(3)
O11 O 0.9156(4) 0.9842(4) 0.0547(3)
N1 N 0.1293(6) 0.1567(5) 0.4308(4)
N2 N 0.1338(6) 0.2792(5) 0.3661(4)
N3 N 0.3294(5) 0.8509(4) 0.1938(4)
N4 N 0.3530(5) 0.9636(4) 0.1230(4)
C14 C 0.2974(6) 0.0591(5) 0.3396(5)
H10 H 0.336919 0.101124 0.346860
C15 C 0.2465(6) 0.0644(6) 0.2791(5)
H11 H 0.250790 0.110903 0.246013
C16 C 0.1890(6) 0.0012(5) 0.2672(4)
C18 C 0.1342(7) 0.0087(6) 0.2017(5)
C21 C 0.1650(9) 0.2305(7) 0.4243(6)
H13 H 0.206632 0.247805 0.455565
C22 C 0.1593(7) 0.3611(6) 0.3426(5)
C23 C 0.2176(8) 0.4033(7) 0.3815(6)
H14 H 0.241636 0.377230 0.423350
C24 C 0.2403(8) 0.4853(7) 0.3578(6)
H15 H 0.277778 0.513650 0.385573
C25 C 0.2098(8) 0.5259(6) 0.2952(6)
C26 C 0.1527(10) 0.4823(7) 0.2587(6)
H16 H 0.130190 0.507785 0.216128
C27 C 0.1257(10) 0.4020(7) 0.2814(7)
H17 H 0.084726 0.375773 0.254914
C28 C 0.2374(7) 0.6107(6) 0.2702(6)
C29 C 0.1872(7) 0.6654(6) 0.2223(5)
H18 H 0.132858 0.648344 0.205647
C30 C 0.2161(7) 0.7441(5) 0.1991(5)
H19 H 0.180100 0.779973 0.168324
C31 C 0.2961(7) 0.7703(5) 0.2203(5)
C32 C 0.3478(8) 0.7175(7) 0.2661(7)
H20 H 0.402975 0.734691 0.280967
C33 C 0.3191(8) 0.6391(7) 0.2903(7)
H21 H 0.355789 0.604024 0.321256
C34 C 0.3091(6) 0.8952(5) 0.1316(5)
H22 H 0.268653 0.878504 0.099051
C35 C 0.4030(6) 0.9664(5) 0.1833(5)
C36 C 0.3897(7) 0.8972(6) 0.2269(5)
H24 H 0.415942 0.883100 0.270835
C41 C 0.7794(6) 0.9970(5) 0.1170(4)
C42 C 0.7880(7) 0.9304(6) 0.1694(5)
H25 H 0.830742 0.886331 0.164866
C43 C 0.7341(7) 0.9286(6) 0.2280(5)
H26 H 0.738353 0.882608 0.261976
C44 C 0.6732(6) 0.9966(5) 0.2354(5)
C46 C 0.6132(7) 0.9978(6) 0.2977(5)
C47 C 0.8329(6) 0.9906(5) 0.0513(5)
C59 C 0.0778(9) 0.2280(7) 0.3345(7)
H33 H 0.046929 0.241768 0.292384
C60 C 0.0756(8) 0.1559(6) 0.3742(6)
H34 H 0.041586 0.110563 0.364541
H48 H 0.050441 0.034443 0.691020
O25 O 0.5795(4) 0.0179(4) 0.5366(3)
O27 O 0.0150(5) 0.1350(4) 0.5634(4)
O35 O 0.6176(5) 0.1608(4) 0.4143(3)
O36 O 0.4745(5) 0.1742(4) 0.4416(4)
O16 O 0.7918(4) 0.9910(4) 0.9940(3)
Cd9 Cd 0.63906(5) 0.94563(4) 0.97203(4)
Cd11 Cd 0.93553(4) 0.98833(4) 0.92898(3)
O34 O 0.4385(5) 0.9706(4) 0.9532(4)
O3 O 0.4205(4) 0.9821(4) 0.4634(3)
O5 O 0.0689(4) 0.9731(4) 0.4513(3)
O19 O 0.3824(5) 0.8392(4) 0.5857(3)
O20 O 0.5255(5) 0.8258(4) 0.5584(4)
O21 O 0.3454(6) 0.4118(4) 0.5365(5)
H6 H 0.344542 0.359854 0.540313
O22 O 0.4674(6) 0.3853(4) 0.6017(5)
N5 N 0.1361(5) 0.9729(4) 0.6259(4)
N6 N 0.1581(5) 0.8639(5) 0.7045(4)
N7 N 0.3460(6) 0.2729(5) 0.8716(5)
C2 C 0.2965(6) 0.7961(5) 0.4537(5)
C3 C 0.4147(8) 0.4349(6) 0.5705(6)
C4 C 0.4227(7) 0.5289(5) 0.5674(5)
C5 C 0.3566(7) 0.5836(5) 0.5355(5)
H7 H 0.307072 0.561491 0.515335
C6 C 0.3627(6) 0.6713(5) 0.5329(5)
C7 C 0.2855(6) 0.7283(5) 0.5030(5)
C8 C 0.2015(7) 0.7104(5) 0.5280(6)
H8 H 0.193617 0.663503 0.560020
C9 C 0.1277(6) 0.7639(6) 0.5047(5)
H9 H 0.070153 0.751316 0.520219
C10 C 0.1391(6) 0.8334(5) 0.4601(5)
C11 C 0.2230(6) 0.8511(5) 0.4318(4)
C12 C 0.2338(6) 0.9251(5) 0.3780(4)
C13 C 0.2895(6) 0.9898(5) 0.3901(4)
C17 C 0.1844(6) 0.9317(5) 0.3170(4)
H12 H 0.146774 0.888484 0.308700
C19 C 0.3336(6) 0.9915(5) 0.4598(4)
C20 C 0.0608(6) 0.8949(5) 0.4479(5)
C61 C 0.1789(6) 0.8990(5) 0.6399(5)
H35 H 0.218565 0.873948 0.609330
C62 C 0.1878(7) 0.7810(5) 0.7332(5)
C63 C 0.1332(7) 0.7357(6) 0.7798(5)
H36 H 0.078763 0.759902 0.794240
C64 C 0.1608(8) 0.6545(6) 0.8044(6)
H37 H 0.124970 0.624415 0.836790
C65 C 0.2398(8) 0.6161(6) 0.7826(6)
C66 C 0.2937(8) 0.6645(6) 0.7380(7)
H38 H 0.348232 0.640693 0.723424
C67 C 0.2686(8) 0.7483(7) 0.7142(7)
H39 H 0.306929 0.780948 0.685740
C68 C 0.2682(8) 0.5275(7) 0.8064(6)
C69 C 0.2406(8) 0.4881(7) 0.8703(6)
H40 H 0.203527 0.518892 0.899003
C70 C 0.2657(10) 0.4065(7) 0.8925(6)
H41 H 0.247855 0.382538 0.936204
C71 C 0.3191(8) 0.3587(6) 0.8482(6)
C72 C 0.3462(10) 0.3944(7) 0.7866(7)
H42 H 0.382822 0.362960 0.757954
C73 C 0.3206(10) 0.4773(7) 0.7647(7)
H43 H 0.338933 0.500293 0.720747
C74 C 0.3166(7) 0.2263(6) 0.9285(5)
H44 H 0.272395 0.244789 0.958788
C75 C 0.4156(8) 0.1495(6) 0.8794(6)
H45 H 0.454588 0.103877 0.870636
C76 C 0.4075(8) 0.2217(7) 0.8390(6)
H46 H 0.437272 0.235334 0.797019
C77 C 0.0983(7) 0.9199(6) 0.7323(5)
H47 H 0.070954 0.912924 0.776080
C78 C 0.0867(7) 0.9861(6) 0.6850(5)
C79 C 0.4390(7) 0.7009(5) 0.5602(5)
C80 C 0.5047(7) 0.6458(6) 0.5921(6)
H49 H 0.554924 0.667680 0.611416
C81 C 0.4977(7) 0.5595(6) 0.5958(6)
H50 H 0.542509 0.522852 0.617047
C82 C 0.4502(7) 0.7946(6) 0.5682(5)
Cd6 Cd 0.45425(5) 0.96312(4) 0.58080(3)
O26 O 0.7120(4) 0.9987(4) 0.4877(3)
H51 H 0.362889 0.807044 0.431559
O6 O 0.9850(5) 0.8650(4) 0.4366(4)
Cd7 Cd 0.86473(5) 0.94474(4) 0.47627(3)
O2 O 0.9172(5) 0.0484(5) 0.8089(4)
O5_2 O 0.9311(4) 0.0269(4) 0.5487(3)
O21_2 O 0.6546(6) 0.5882(4) 0.4635(5)
H6_2 H 0.655458 0.640146 0.459687
O22_2 O 0.5326(6) 0.6147(4) 0.3983(5)
N5_2 N 0.8639(5) 0.0271(4) 0.3741(4)
N6_2 N 0.8419(5) 0.1361(5) 0.2955(4)
N7_2 N 0.6540(6) 0.7271(5) 0.1284(5)
N8 N 0.6410(6) 0.8493(5) 0.0645(4)
C2_2 C 0.7035(6) 0.2039(5) 0.5463(5)
C3_2 C 0.5853(8) 0.5651(6) 0.4295(6)
C4_2 C 0.5773(7) 0.4711(5) 0.4326(5)
C5_2 C 0.6434(7) 0.4164(5) 0.4645(5)
H7_2 H 0.692928 0.438509 0.484665
C6_2 C 0.6373(6) 0.3287(5) 0.4671(5)
C7_2 C 0.7145(6) 0.2717(5) 0.4970(5)
C8_2 C 0.7985(7) 0.2896(5) 0.4720(6)
H8_2 H 0.806383 0.336497 0.439980
C9_2 C 0.8723(6) 0.2361(6) 0.4953(5)
H9_2 H 0.929847 0.248684 0.479781
C10_2 C 0.8609(6) 0.1666(5) 0.5399(5)
C11_2 C 0.7770(6) 0.1489(5) 0.5682(4)
C12_2 C 0.7662(6) 0.0749(5) 0.6220(4)
C13_2 C 0.7105(6) 0.0102(5) 0.6099(4)
C17_2 C 0.8156(6) 0.0683(5) 0.6830(4)
H12_2 H 0.853226 0.111516 0.691300
C19_2 C 0.6664(6) 0.0085(5) 0.5402(4)
C20_2 C 0.9392(6) 0.1051(5) 0.5521(5)
C61_2 C 0.8211(6) 0.1010(5) 0.3601(5)
H35_2 H 0.781435 0.126052 0.390670
C62_2 C 0.8122(7) 0.2190(5) 0.2668(5)
C63_2 C 0.8668(7) 0.2643(6) 0.2202(5)
H36_2 H 0.921237 0.240098 0.205760
C64_2 C 0.8392(8) 0.3455(6) 0.1956(6)
H37_2 H 0.875030 0.375585 0.163210
C65_2 C 0.7602(8) 0.3839(6) 0.2174(6)
C66_2 C 0.7063(8) 0.3355(6) 0.2620(7)
H38_2 H 0.651768 0.359307 0.276576
C67_2 C 0.7314(8) 0.2517(7) 0.2858(7)
H39_2 H 0.693071 0.219052 0.314260
C68_2 C 0.7318(8) 0.4725(7) 0.1936(6)
C69_2 C 0.7594(8) 0.5119(7) 0.1297(6)
H40_2 H 0.796473 0.481108 0.100997
C70_2 C 0.7343(10) 0.5935(7) 0.1075(6)
H41_2 H 0.752145 0.617462 0.063796
C71_2 C 0.6809(8) 0.6413(6) 0.1518(6)
C72_2 C 0.6538(10) 0.6056(7) 0.2134(7)
H42_2 H 0.617178 0.637040 0.242046
C73_2 C 0.6794(10) 0.5227(7) 0.2353(7)
H43_2 H 0.661067 0.499707 0.279253
C74_2 C 0.6834(7) 0.7737(6) 0.0715(5)
H44_2 H 0.727605 0.755211 0.041212
C75_2 C 0.5844(8) 0.8505(6) 0.1206(6)
H45_2 H 0.545412 0.896123 0.129364
C76_2 C 0.5925(8) 0.7783(7) 0.1610(6)
H46_2 H 0.562728 0.764666 0.202981
C77_2 C 0.9017(7) 0.0801(6) 0.2677(5)
H47_2 H 0.929046 0.087076 0.223920
C78_2 C 0.9133(7) 0.0139(6) 0.3150(5)
C79_2 C 0.5610(7) 0.2991(5) 0.4398(5)
C80_2 C 0.4953(7) 0.3542(6) 0.4079(6)
H49_2 H 0.445076 0.332320 0.388584
C81_2 C 0.5023(7) 0.4405(6) 0.4042(6)
H50_2 H 0.457491 0.477148 0.382953
C82_2 C 0.5498(7) 0.2054(6) 0.4318(5)
O28 O 0.3702(5) 0.0550(4) 0.6488(3)
H51_2 H 0.637111 0.192956 0.568441
O1 O 0.8580(5) 0.9285(4) 0.8430(3)
O7_2 O 0.7749(4) 0.8515(4) 0.4128(3)
H1_2 H 0.731006 0.863891 0.384289
H2_2 H 0.760816 0.803451 0.439759
N1_2 N 0.8707(6) 0.8433(5) 0.5692(4)
N2_2 N 0.8662(6) 0.7208(5) 0.6339(4)
N3_2 N 0.6706(5) 0.1491(4) 0.8062(4)
N4_2 N 0.6470(5) 0.0364(4) 0.8770(4)
C14_2 C 0.7026(6) 0.9409(5) 0.6604(5)
H10_2 H 0.663081 0.898876 0.653140
C15_2 C 0.7535(6) 0.9356(6) 0.7209(5)
H11_2 H 0.749210 0.889097 0.753987
C16_2 C 0.8110(6) 0.9988(5) 0.7328(4)
C18_2 C 0.8658(7) 0.9913(6) 0.7983(5)
C21_2 C 0.8350(9) 0.7695(7) 0.5757(6)
H13_2 H 0.793368 0.752195 0.544435
C22_2 C 0.8407(7) 0.6389(6) 0.6574(5)
C23_2 C 0.7824(8) 0.5967(7) 0.6185(6)
H14_2 H 0.758364 0.622770 0.576650
C24_2 C 0.7597(8) 0.5147(7) 0.6422(6)
H15_2 H 0.722222 0.486350 0.614427
C25_2 C 0.7902(8) 0.4741(6) 0.7048(6)
C26_2 C 0.8473(10) 0.5177(7) 0.7413(6)
H16_2 H 0.869810 0.492215 0.783872
C27_2 C 0.8743(10) 0.5980(7) 0.7186(7)
H17_2 H 0.915274 0.624227 0.745086
C28_2 C 0.7626(7) 0.3893(6) 0.7298(6)
C29_2 C 0.8128(7) 0.3346(6) 0.7777(5)
H18_2 H 0.867142 0.351656 0.794353
C30_2 C 0.7839(7) 0.2559(5) 0.8009(5)
H19_2 H 0.819900 0.220027 0.831676
C31_2 C 0.7039(7) 0.2297(5) 0.7797(5)
C32_2 C 0.6522(8) 0.2825(7) 0.7339(7)
H20_2 H 0.597025 0.265309 0.719033
C33_2 C 0.6809(8) 0.3609(7) 0.7097(7)
H21_2 H 0.644211 0.395976 0.678744
C34_2 C 0.6909(6) 0.1048(5) 0.8684(5)
H22_2 H 0.731347 0.121496 0.900949
C35_2 C 0.5970(6) 0.0336(5) 0.8167(5)
C36_2 C 0.6103(7) 0.1028(6) 0.7731(5)
H24_2 H 0.584058 0.116900 0.729165
C41_2 C 0.2206(6) 0.0030(5) 0.8830(4)
C42_2 C 0.2120(7) 0.0696(6) 0.8306(5)
H25_2 H 0.169258 0.113669 0.835134
C43_2 C 0.2659(7) 0.0714(6) 0.7720(5)
H26_2 H 0.261647 0.117392 0.738024
C44_2 C 0.3268(6) 0.0034(5) 0.7646(5)
C46_2 C 0.3868(7) 0.0022(6) 0.7023(5)
C47_2 C 0.1671(6) 0.0094(5) 0.9487(5)
C59_2 C 0.9222(9) 0.7720(7) 0.6655(7)
H33_2 H 0.953071 0.758232 0.707616
C60_2 C 0.9244(8) 0.8441(6) 0.6258(6)
H34_2 H 0.958414 0.889437 0.635459
H48_2 H 0.949559 0.965557 0.308980
O29 O 0.4498(5) 0.9473(4) 0.7018(3)
O13_2 O 0.0405(5) 0.4224(4) 0.1048(4)
H3_2 H 0.055661 0.372256 0.114937
O14_2 O 0.1742(5) 0.4257(4) 0.0536(5)
C48_2 C 0.0427(6) 0.8245(6) 0.0157(5)
C49_2 C 0.0620(6) 0.7294(6) 0.0271(5)
C50_2 C 0.1472(6) 0.6913(5) 0.0189(4)
C52_2 C 0.3101(7) 0.7165(6) 0.0256(5)
H28_2 H 0.317272 0.669293 0.058246
C53_2 C 0.3834(6) 0.7642(6) 0.0048(5)
H29_2 H 0.440162 0.745674 0.022143
C54_2 C 0.1579(6) 0.6036(5) 0.0332(5)
H30_2 H 0.214045 0.577069 0.026181
C55_2 C 0.0880(7) 0.5544(5) 0.0573(5)
C56_2 C 0.1066(7) 0.4607(6) 0.0712(5)
C57_2 C 0.0043(7) 0.5948(6) 0.0676(5)
O8_2 O 0.5285(5) 0.8599(5) 0.9352(4)
O18_2 O 0.7313(5) 0.8412(4) 0.9163(4)
H4_2 H 0.698269 0.802446 0.902758
H5_2 H 0.753290 0.864140 0.877730
C1_2 C 0.2184(6) 0.8107(5) 0.9461(4)
H23_2 H 0.559854 0.990281 0.807656
C37_2 C 0.4522(7) 0.8934(6) 0.9470(5)
C38_2 C 0.3762(6) 0.8365(5) 0.9604(5)
C39_2 C 0.2912(6) 0.8599(5) 0.9287(4)
C40_2 C 0.2826(6) 0.9343(5) 0.8756(4)
C45_2 C 0.3338(6) 0.9360(6) 0.8153(4)
H27_2 H 0.374095 0.890569 0.808873
C51_2 C 0.2255(6) 0.7412(5) 0.9963(5)
H52_2 H 0.154056 0.826867 0.919812
H31_2 H 0.957214 0.563688 0.086554
C58_2 C 0.9912(7) 0.6803(6) 0.0499(5)
H32_2 H 0.933855 0.705891 0.053111
O12_2 O 0.9902(4) 0.8505(4) 0.9639(3)
loop_
_geom_bond_atom_site_label_1
_geom_bond_atom_site_label_2
_geom_bond_site_symmetry_1
_geom_bond_site_symmetry_2
O12 Cd4 1_555 1_555
O23 Cd4 1_555 1_555
O33 Cd4 1_555 1_555
H32 C58 1_555 1_555
Cd3 O8 1_555 1_555
O8 C37 1_555 1_555
O17 C37 1_555 1_555
O18 Cd3 1_555 1_555
H4 O18 1_555 1_555
H5 O18 1_555 1_555
C1 C39 1_555 1_555
C37 C38 1_555 1_555
C38 C39 1_555 1_555
C39 C40 1_555 1_555
C45 C40 1_555 1_555
H27 C45 1_555 1_555
C51 C1 1_555 1_555
O33 Cd3 1_555 1_555
O10 Cd5 1_555 1_555
C1 H52 1_555 1_555
O13 H3 1_555 1_555
O14 C56 1_555 1_555
O15 C48 1_555 1_555
C49 C48 1_555 1_555
C50 C49 1_555 1_555
H28 C52 1_555 1_555
H29 C53 1_555 1_555
C54 C50 1_555 1_555
H30 C54 1_555 1_555
C55 C54 1_555 1_555
C56 O13 1_555 1_555
C57 C55 1_555 1_555
C52 C53 1_555 1_555
C55 C56 1_555 1_555
Cd2 O4 1_555 1_555
O23 C18 1_555 1_555
O7 Cd2 1_555 1_555
H1 O7 1_555 1_555
H2 O7 1_555 1_555
O9 C46 1_555 1_555
O11 C47 1_555 1_555
N1 Cd2 1_555 1_555
N2 C21 1_555 1_555
N3 C31 1_555 1_555
H10 C14 1_555 1_555
C15 C14 1_555 1_555
H11 C15 1_555 1_555
C16 C15 1_555 1_555
C18 C16 1_555 1_555
C21 N1 1_555 1_555
H13 C21 1_555 1_555
C22 N2 1_555 1_555
C23 C22 1_555 1_555
H14 C23 1_555 1_555
C24 C23 1_555 1_555
H15 C24 1_555 1_555
C25 C24 1_555 1_555
C26 C25 1_555 1_555
H16 C26 1_555 1_555
C27 C22 1_555 1_555
H17 C27 1_555 1_555
C28 C25 1_555 1_555
C29 C28 1_555 1_555
H18 C29 1_555 1_555
C30 C29 1_555 1_555
H19 C30 1_555 1_555
C31 C30 1_555 1_555
C32 C31 1_555 1_555
H20 C32 1_555 1_555
C33 C28 1_555 1_555
H21 C33 1_555 1_555
C34 N3 1_555 1_555
H22 C34 1_555 1_555
C35 N4 1_555 1_555
C36 N3 1_555 1_555
H24 C36 1_555 1_555
C41 C42 1_555 1_555
C42 H25 1_555 1_555
C43 C42 1_555 1_555
H26 C43 1_555 1_555
C44 C43 1_555 1_555
C46 C44 1_555 1_555
C47 C41 1_555 1_555
C59 N2 1_555 1_555
H33 C59 1_555 1_555
C60 N1 1_555 1_555
H34 C60 1_555 1_555
O25 Cd5 1_555 1_555
O27 Cd2 1_555 1_555
O35 Cd5 1_555 1_555
O36 Cd5 1_555 1_555
N4 C34 1_555 1_555
C26 C27 1_555 1_555
C32 C33 1_555 1_555
C35 C36 1_555 1_555
C59 C60 1_555 1_555
Cd9 O16 1_555 1_555
O16 Cd11 1_555 1_555
O3 C19 1_555 1_555
O19 C82 1_555 1_555
O20 C82 1_555 1_555
O21 H6 1_555 1_555
O22 C3 1_555 1_555
N6 C61 1_555 1_555
N7 C71 1_555 1_555
N9 C74 1_555 1_555
C2 C7 1_555 1_555
C3 O21 1_555 1_555
C4 C3 1_555 1_555
C5 C4 1_555 1_555
H7 C5 1_555 1_555
C6 C5 1_555 1_555
C7 C6 1_555 1_555
C8 C7 1_555 1_555
H8 C8 1_555 1_555
C9 C8 1_555 1_555
H9 C9 1_555 1_555
C10 C9 1_555 1_555
C11 C2 1_555 1_555
C12 C11 1_555 1_555
C13 C12 1_555 1_555
C17 C12 1_555 1_555
H12 C17 1_555 1_555
C19 C13 1_555 1_555
C20 O5 1_555 1_555
C61 N5 1_555 1_555
H35 C61 1_555 1_555
C62 N6 1_555 1_555
C63 C62 1_555 1_555
H36 C63 1_555 1_555
C64 C63 1_555 1_555
H37 C64 1_555 1_555
C65 C64 1_555 1_555
C66 C65 1_555 1_555
H38 C66 1_555 1_555
C67 C62 1_555 1_555
H39 C67 1_555 1_555
C68 C65 1_555 1_555
C69 C68 1_555 1_555
H40 C69 1_555 1_555
C70 C69 1_555 1_555
H41 C70 1_555 1_555
C71 C70 1_555 1_555
C72 C71 1_555 1_555
H42 C72 1_555 1_555
C73 C68 1_555 1_555
H43 C73 1_555 1_555
C74 N7 1_555 1_555
H44 C74 1_555 1_555
C75 N9 1_555 1_555
H45 C75 1_555 1_555
C76 N7 1_555 1_555
H46 C76 1_555 1_555
C77 N6 1_555 1_555
H47 C77 1_555 1_555
C78 N5 1_555 1_555
C79 C6 1_555 1_555
C80 C79 1_555 1_555
H49 C80 1_555 1_555
C81 C4 1_555 1_555
H50 C81 1_555 1_555
C82 C79 1_555 1_555
Cd6 O3 1_555 1_555
O19 Cd6 1_555 1_555
O20 Cd6 1_555 1_555
C10 C11 1_555 1_555
C10 C20 1_555 1_555
C66 C67 1_555 1_555
C72 C73 1_555 1_555
C75 C76 1_555 1_555
C77 C78 1_555 1_555
C80 C81 1_555 1_555
C2 H51 1_555 1_555
Cd7 O6 1_555 1_555
O25 C19_2 1_555 1_555
O35 C82_2 1_555 1_555
O36 C82_2 1_555 1_555
O21_2 H6_2 1_555 1_555
O22_2 C3_2 1_555 1_555
N6_2 C61_2 1_555 1_555
N7_2 C71_2 1_555 1_555
N8 C74_2 1_555 1_555
C2_2 C7_2 1_555 1_555
C3_2 O21_2 1_555 1_555
C4_2 C3_2 1_555 1_555
C5_2 C4_2 1_555 1_555
H7_2 C5_2 1_555 1_555
C6_2 C5_2 1_555 1_555
C7_2 C6_2 1_555 1_555
C8_2 C7_2 1_555 1_555
H8_2 C8_2 1_555 1_555
C9_2 C8_2 1_555 1_555
H9_2 C9_2 1_555 1_555
C10_2 C9_2 1_555 1_555
C11_2 C2_2 1_555 1_555
C12_2 C11_2 1_555 1_555
C13_2 C12_2 1_555 1_555
C17_2 C12_2 1_555 1_555
H12_2 C17_2 1_555 1_555
C19_2 C13_2 1_555 1_555
C20_2 O5_2 1_555 1_555
C61_2 N5_2 1_555 1_555
H35_2 C61_2 1_555 1_555
C62_2 N6_2 1_555 1_555
C63_2 C62_2 1_555 1_555
H36_2 C63_2 1_555 1_555
C64_2 C63_2 1_555 1_555
H37_2 C64_2 1_555 1_555
C65_2 C64_2 1_555 1_555
C66_2 C65_2 1_555 1_555
H38_2 C66_2 1_555 1_555
C67_2 C62_2 1_555 1_555
H39_2 C67_2 1_555 1_555
C68_2 C65_2 1_555 1_555
C69_2 C68_2 1_555 1_555
H40_2 C69_2 1_555 1_555
C70_2 C69_2 1_555 1_555
H41_2 C70_2 1_555 1_555
C71_2 C70_2 1_555 1_555
C72_2 C71_2 1_555 1_555
H42_2 C72_2 1_555 1_555
C73_2 C68_2 1_555 1_555
H43_2 C73_2 1_555 1_555
C74_2 N7_2 1_555 1_555
H44_2 C74_2 1_555 1_555
C75_2 N8 1_555 1_555
H45_2 C75_2 1_555 1_555
C76_2 N7_2 1_555 1_555
H46_2 C76_2 1_555 1_555
C77_2 N6_2 1_555 1_555
H47_2 C77_2 1_555 1_555
C78_2 N5_2 1_555 1_555
C79_2 C6_2 1_555 1_555
C80_2 C79_2 1_555 1_555
H49_2 C80_2 1_555 1_555
C81_2 C4_2 1_555 1_555
H50_2 C81_2 1_555 1_555
C82_2 C79_2 1_555 1_555
C10_2 C11_2 1_555 1_555
C10_2 C20_2 1_555 1_555
C66_2 C67_2 1_555 1_555
C72_2 C73_2 1_555 1_555
C75_2 C76_2 1_555 1_555
C77_2 C78_2 1_555 1_555
C80_2 C81_2 1_555 1_555
C2_2 H51_2 1_555 1_555
Cd7 O26 1_555 1_555
O1 C18_2 1_555 1_555
O7_2 Cd7 1_555 1_555
H1_2 O7_2 1_555 1_555
H2_2 O7_2 1_555 1_555
O28 C46_2 1_555 1_555
O30 C47_2 1_555 1_555
N1_2 Cd7 1_555 1_555
N2_2 C21_2 1_555 1_555
N3_2 C31_2 1_555 1_555
H10_2 C14_2 1_555 1_555
C15_2 C14_2 1_555 1_555
H11_2 C15_2 1_555 1_555
C16_2 C15_2 1_555 1_555
C18_2 C16_2 1_555 1_555
C21_2 N1_2 1_555 1_555
H13_2 C21_2 1_555 1_555
C22_2 N2_2 1_555 1_555
C23_2 C22_2 1_555 1_555
H14_2 C23_2 1_555 1_555
C24_2 C23_2 1_555 1_555
H15_2 C24_2 1_555 1_555
C25_2 C24_2 1_555 1_555
C26_2 C25_2 1_555 1_555
H16_2 C26_2 1_555 1_555
C27_2 C22_2 1_555 1_555
H17_2 C27_2 1_555 1_555
C28_2 C25_2 1_555 1_555
C29_2 C28_2 1_555 1_555
H18_2 C29_2 1_555 1_555
C30_2 C29_2 1_555 1_555
H19_2 C30_2 1_555 1_555
C31_2 C30_2 1_555 1_555
C32_2 C31_2 1_555 1_555
H20_2 C32_2 1_555 1_555
C33_2 C28_2 1_555 1_555
H21_2 C33_2 1_555 1_555
C34_2 N3_2 1_555 1_555
H22_2 C34_2 1_555 1_555
C35_2 N4_2 1_555 1_555
C36_2 N3_2 1_555 1_555
H24_2 C36_2 1_555 1_555
C41_2 C42_2 1_555 1_555
C42_2 H25_2 1_555 1_555
C43_2 C42_2 1_555 1_555
H26_2 C43_2 1_555 1_555
C44_2 C43_2 1_555 1_555
C46_2 C44_2 1_555 1_555
C47_2 C41_2 1_555 1_555
C59_2 N2_2 1_555 1_555
H33_2 C59_2 1_555 1_555
C60_2 N1_2 1_555 1_555
H34_2 C60_2 1_555 1_555
Cd11 O1 1_555 1_555
O29 Cd6 1_555 1_555
N4_2 C34_2 1_555 1_555
C26_2 C27_2 1_555 1_555
C32_2 C33_2 1_555 1_555
C35_2 C36_2 1_555 1_555
C59_2 C60_2 1_555 1_555
O13_2 H3_2 1_555 1_555
O14_2 C56_2 1_555 1_555
O31 C48_2 1_555 1_555
C49_2 C48_2 1_555 1_555
C50_2 C49_2 1_555 1_555
H28_2 C52_2 1_555 1_555
H29_2 C53_2 1_555 1_555
C54_2 C50_2 1_555 1_555
H30_2 C54_2 1_555 1_555
C55_2 C54_2 1_555 1_555
C56_2 O13_2 1_555 1_555
C57_2 C55_2 1_555 1_555
C52_2 C53_2 1_555 1_555
C55_2 C56_2 1_555 1_555
Cd9 O8_2 1_555 1_555
O8_2 C37_2 1_555 1_555
O34 C37_2 1_555 1_555
O18_2 Cd9 1_555 1_555
H4_2 O18_2 1_555 1_555
H5_2 O18_2 1_555 1_555
C1_2 C39_2 1_555 1_555
C37_2 C38_2 1_555 1_555
C38_2 C39_2 1_555 1_555
C39_2 C40_2 1_555 1_555
C45_2 C40_2 1_555 1_555
H27_2 C45_2 1_555 1_555
C51_2 C1_2 1_555 1_555
C1_2 H52_2 1_555 1_555
H32_2 C58_2 1_555 1_555
O12_2 Cd11 1_555 1_555

#END
