
###############################################################################
#
# This file contains modified crystal structure data generated from the
# MOF subset of the Cambridge Structural Database (CSD) v543 
# hosted by the Cambridge Crystallographic Data Centre (CCDC).
#
# This work is licensed under the Creative Commons
# Attribution-NonCommercial-ShareAlike 4.0 International License.
# To view a copy of this license, visit
# http://creativecommons.org/licenses/by-nc-sa/4.0/
# or send a letter to
# Creative Commons, PO Box 1866, Mountain View, CA 94042, USA.
#
# CIF created using the CSD Python API on 29 September 2022
# The structure has been converted into the P1 space group
# The structure has a 3D framework
# The original CSD entry BAFBES is in the triclinic crystal system
# The framework has been calculated to contain at least 10.0% void space
# The void calculation uses a probe of radius 1.32A, grid spacing 0.4
# The framework is charged, counterions have been retained in the structure
# H atom positions have been added when not included in the experimental data
#
###############################################################################

data_BAFBES
_chemical_formula_moiety         '(C16 H18 Ag13 N24 2+)n'
_symmetry_cell_setting           triclinic
_symmetry_space_group_name_H-M   'P 1'
_symmetry_Int_Tables_number      1
_space_group_name_Hall           'P 1'
loop_
_symmetry_equiv_pos_site_id
_symmetry_equiv_pos_as_xyz
1 x,y,z
_cell_length_a                   11.0514(8)
_cell_length_b                   12.3081(9)
_cell_length_c                   13.1573(9)
_cell_angle_alpha                79.1800(10)
_cell_angle_beta                 66.2190(10)
_cell_angle_gamma                72.2760(10)
_cell_volume                     1555.65
loop_
_atom_site_label
_atom_site_type_symbol
_atom_site_fract_x
_atom_site_fract_y
_atom_site_fract_z
Ag2 Ag -0.0000 0.0000 0.5000
Ag2_2 Ag -0.0000 1.0000 0.5000
Ag3 Ag 0.28732(6) 0.48088(4) 0.55374(5)
Ag4 Ag 0.50827(6) 0.51061(4) 0.69953(5)
N1 N 0.4882(6) 0.3535(4) 0.6762(5)
N2 N 0.4295(6) 0.3469(4) 0.6040(5)
C1 C 0.4720(8) 0.2398(6) 0.5802(6)
H1 H 0.4462 0.2117 0.5332
N3 N 0.5567(6) 0.1749(4) 0.6306(5)
C2 C 0.5646(7) 0.2496(5) 0.6878(5)
H2 H 0.6180 0.2305 0.7311
C3 C 0.1348(8) 0.7401(5) 0.5448(6)
H3 H 0.1461 0.7528 0.6076
N4 N 0.0787(6) 0.8233(4) 0.4826(5)
N6 N 0.1719(7) 0.6389(5) 0.5068(5)
C6 C 0.0817(6) 0.7663(5) 0.4040(5)
H6 H 0.0495 0.8010 0.3475
N9 N 0.1349(6) 0.6562(4) 0.4156(4)
N26 N 0.2871(6) 0.3575(5) 0.4134(6)
N27 N 0.5900(6) 0.6505(4) 0.6775(5)
Ag16 Ag 0.18824(6) 0.53832(4) 0.29421(5)
Ag6 Ag 0.5000 0.5000 0.0000
C7 C 0.6998(9) 0.6265(8) 0.0008(7)
H7 H 0.6416 0.6496 0.0715
N31 N 0.3269(6) 0.4307(6) 0.0578(6)
Ag1 Ag 0.62011(5) 0.99326(4) 0.64254(4)
N5 N 0.6449(6) 0.8138(4) 0.6519(5)
C4 C 0.5534(7) 0.7530(5) 0.7134(6)
H4 H 0.4744 0.7799 0.7736
C5 C 0.7395(7) 0.7417(6) 0.5762(7)
H5 H 0.8169 0.7603 0.5213
N7 N 0.7129(6) 0.6425(5) 0.5866(6)
Ag5 Ag 0.81176(6) 0.46168(4) 0.70579(5)
Ag6_2 Ag 0.5000 0.5000 1.0000
N10 N 0.7823(6) 0.5525(5) 0.8434(5)
N11 N 0.6731(6) 0.5693(6) 0.9422(6)
N12 N 0.8218(7) 0.6475(6) 0.9456(6)
C8 C 0.8710(8) 0.6002(7) 0.8480(7)
H8 H 0.9556 0.6011 0.7919
Ag12 Ag 0.71268(6) 0.51912(4) 0.44626(5)
N30 N 0.8651(6) 0.3438(4) 0.5844(4)
H17 H 0.868164 0.69027 0.971619
Ag7 Ag 0.37989(5) 0.00674(4) 0.35746(4)
N17 N 0.3551(6) 0.1862(4) 0.3481(5)
C12 C 0.4466(7) 0.2470(5) 0.2866(6)
H12 H 0.5256 0.2201 0.2264
C13 C 0.2605(7) 0.2583(6) 0.4238(7)
H13 H 0.1831 0.2397 0.4787
N20 N 0.4100(6) 0.3495(4) 0.3225(5)
N22 N 0.2177(6) 0.4475(5) 0.1566(5)
N24 N 0.1782(7) 0.3525(6) 0.0544(6)
C16 C 0.1290(8) 0.3998(7) 0.1520(7)
H16 H 0.0444 0.3989 0.2081
Ag14 Ag 0.49173(6) 0.48939(4) 0.30047(5)
H18 H 0.131836 0.30973 0.0283805
C15 C 0.3002(9) 0.3735(8) 0.9992(7)
H15 H 0.3584 0.3504 0.9285
Ag2_3 Ag 1.0000 0.0000 0.5000
N13 N 0.5118(6) 0.6465(4) 0.3238(5)
N14 N 0.5705(6) 0.6531(4) 0.3960(5)
C9 C 0.5280(8) 0.7602(6) 0.4198(6)
H9 H 0.5538 0.7883 0.4668
N15 N 0.4433(6) 0.8251(4) 0.3694(5)
C10 C 0.4354(7) 0.7504(5) 0.3122(5)
H10 H 0.3820 0.7695 0.2689
C11 C 0.8652(8) 0.2599(5) 0.4552(6)
H11 H 0.8539 0.2472 0.3924
N16 N 0.9213(6) 0.1767(4) 0.5174(5)
N18 N 0.8281(7) 0.3611(5) 0.4932(5)
C14 C 0.9183(6) 0.2337(5) 0.5960(5)
H14 H 0.9505 0.1990 0.6525
Ag2_4 Ag 1.0000 1.0000 0.5000
loop_
_geom_bond_atom_site_label_1
_geom_bond_atom_site_label_2
_geom_bond_site_symmetry_1
_geom_bond_site_symmetry_2
Ag2_2 N4 1_555 1_555
Ag3 N2 1_555 1_555
Ag4 N1 1_555 1_555
N1 N2 1_555 1_555
N2 C1 1_555 1_555
C1 H1 1_555 1_555
N3 C1 1_555 1_555
C2 N1 1_555 1_555
H2 C2 1_555 1_555
C3 H3 1_555 1_555
N4 C3 1_555 1_555
N6 Ag3 1_555 1_555
C6 N4 1_555 1_555
H6 C6 1_555 1_555
N9 N6 1_555 1_555
N26 Ag3 1_555 1_555
N27 Ag4 1_555 1_555
Ag16 N9 1_555 1_555
N3 C2 1_555 1_555
C3 N6 1_555 1_555
C6 N9 1_555 1_555
N26 Ag16 1_555 1_555
H7 C7 1_555 1_555
N31 Ag6 1_555 1_555
N5 Ag1 1_555 1_555
C4 N5 1_555 1_555
H4 C4 1_555 1_555
C5 N5 1_555 1_555
H5 C5 1_555 1_555
N7 C5 1_555 1_555
N27 C4 1_555 1_555
Ag5 N7 1_555 1_555
Ag6_2 N11 1_555 1_555
N10 Ag5 1_555 1_555
N11 N10 1_555 1_555
C8 N10 1_555 1_555
H8 C8 1_555 1_555
Ag12 N7 1_555 1_555
N30 Ag5 1_555 1_555
N7 N27 1_555 1_555
N12 C8 1_555 1_555
N12 H17 1_555 1_555
N17 Ag7 1_555 1_555
C12 N17 1_555 1_555
H12 C12 1_555 1_555
C13 N17 1_555 1_555
H13 C13 1_555 1_555
N26 C13 1_555 1_555
N20 C12 1_555 1_555
N22 Ag16 1_555 1_555
N31 N22 1_555 1_555
C16 N22 1_555 1_555
H16 C16 1_555 1_555
Ag14 N20 1_555 1_555
N26 N20 1_555 1_555
N24 C16 1_555 1_555
N24 H18 1_555 1_555
H15 C15 1_555 1_555
Ag12 N14 1_555 1_555
Ag14 N13 1_555 1_555
N13 N14 1_555 1_555
N14 C9 1_555 1_555
C9 H9 1_555 1_555
N15 C9 1_555 1_555
C10 N13 1_555 1_555
H10 C10 1_555 1_555
C11 H11 1_555 1_555
N16 Ag2_3 1_555 1_555
N18 Ag12 1_555 1_555
C14 N16 1_555 1_555
H14 C14 1_555 1_555
N30 N18 1_555 1_555
N15 C10 1_555 1_555
C11 N16 1_555 1_555
C11 N18 1_555 1_555
C14 N30 1_555 1_555

#END
