
###############################################################################
#
# This file contains modified crystal structure data generated from the
# MOF subset of the Cambridge Structural Database (CSD) v543 
# hosted by the Cambridge Crystallographic Data Centre (CCDC).
#
# This work is licensed under the Creative Commons
# Attribution-NonCommercial-ShareAlike 4.0 International License.
# To view a copy of this license, visit
# http://creativecommons.org/licenses/by-nc-sa/4.0/
# or send a letter to
# Creative Commons, PO Box 1866, Mountain View, CA 94042, USA.
#
# CIF created using the CSD Python API on 29 September 2022
# The structure has been converted into the P1 space group
# The structure has a 3D framework
# The original CSD entry BAGHEA is in the tetragonal crystal system
# The original CSD entry BAGHEA is in a Sohncke space group
# The framework has been calculated to contain at least 10.0% void space
# The void calculation uses a probe of radius 1.32A, grid spacing 0.4
#
###############################################################################

data_BAGHEA
_chemical_formula_moiety         '(C96 H56 N4 O20 Zn3)n'
_symmetry_cell_setting           triclinic
_symmetry_space_group_name_H-M   'P 1'
_symmetry_Int_Tables_number      1
_space_group_name_Hall           'P 1'
loop_
_symmetry_equiv_pos_site_id
_symmetry_equiv_pos_as_xyz
1 x,y,z
_cell_length_a                   16.32840(10)
_cell_length_b                   16.32840(10)
_cell_length_c                   10.98880(10)
_cell_angle_alpha                90
_cell_angle_beta                 90
_cell_angle_gamma                90
_cell_volume                     2929.8
loop_
_atom_site_label
_atom_site_type_symbol
_atom_site_fract_x
_atom_site_fract_y
_atom_site_fract_z
O6 O 0.1757(6) 0.0235(5) 0.8221(9)
O7 O 0.2730(5) 0.0118(5) 0.9638(9)
Zn1 Zn 0.28560(4) 0.91950(3) 0.81194(10)
O1 O 0.2735(4) 0.9206(4) 0.6098(9)
N1 N 0.4169(5) 0.9124(4) 0.7377(7)
C1 C 0.4793(7) 0.9183(7) 0.9382(11)
H1 H 0.534238 0.918229 0.974002
H2 H 0.450915 0.969041 0.960612
H3 H 0.448310 0.871221 0.968769
O2 O 0.0235(5) 0.8243(6) 0.0721(9)
C2 C 0.4860(6) 0.9130(5) 0.8004(10)
O3 O 0.0118(5) 0.7270(5) 0.2138(9)
C3 C 0.5610(7) 0.9067(7) 0.7403(11)
H4 H 0.610600 0.912860 0.784493
O4 O 0.8118(4) 0.8053(5) 0.0888(9)
C4 C 0.5631(6) 0.8919(7) 0.6202(10)
H5 H 0.614521 0.885841 0.580723
O5 O 0.8074(4) 0.6917(5) 0.1916(8)
C5 C 0.4918(5) 0.8854(5) 0.5529(11)
C6 C 0.4176(6) 0.9007(5) 0.6129(8)
C7 C 0.3398(5) 0.9041(5) 0.5513(9)
C8 C 0.3407(5) 0.8842(5) 0.4287(9)
C9 C 0.4146(6) 0.8674(6) 0.3673(9)
H6 H 0.412210 0.855163 0.282829
C10 C 0.4886(6) 0.8678(6) 0.4217(9)
C11 C 0.2606(5) 0.8691(6) 0.3625(9)
C12 C 0.2017(6) 0.8213(7) 0.4187(10)
H7 H 0.209694 0.803966 0.500369
C13 C 0.1303(6) 0.7982(7) 0.3565(10)
H8 H 0.089938 0.765522 0.395449
C14 C 0.1194(6) 0.8243(7) 0.2355(10)
C15 C 0.1752(6) 0.8745(6) 0.1838(10)
H9 H 0.164838 0.896069 0.104982
C16 C 0.2495(6) 0.8960(6) 0.2446(10)
H10 H 0.290099 0.927977 0.204940
C17 C 0.0463(6) 0.7897(6) 0.1705(9)
C18 C 0.5636(6) 0.8439(6) 0.3589(10)
C19 C 0.6124(7) 0.7793(7) 0.4032(12)
H11 H 0.597978 0.753958 0.477931
C20 C 0.6810(6) 0.7516(7) 0.3408(10)
H12 H 0.712809 0.707726 0.372216
C21 C 0.7025(6) 0.7890(7) 0.2321(11)
C22 C 0.6538(6) 0.8529(6) 0.1858(10)
H13 H 0.669413 0.878667 0.111828
C23 C 0.5856(6) 0.8785(6) 0.2436(11)
H14 H 0.552072 0.919548 0.207875
C24 C 0.7787(6) 0.7607(6) 0.1668(11)
Zn3 Zn 0.91950(3) 0.71440(4) 0.06194(10)
O8 O 0.1947(5) 0.8118(4) 0.8388(9)
O9 O 0.3083(5) 0.8074(4) 0.9416(8)
C14_2 C 0.1757(7) 0.1194(6) 0.9855(10)
C15_2 C 0.1255(6) 0.1752(6) 0.9338(10)
H9_2 H 0.103931 0.164838 0.854982
C16_2 C 0.1040(6) 0.2495(6) 0.9946(10)
H10_2 H 0.072023 0.290099 0.954940
C17_2 C 0.2103(6) 0.0463(6) 0.9205(9)
C21_2 C 0.2110(7) 0.7025(6) 0.9821(11)
C22_2 C 0.1471(6) 0.6538(6) 0.9358(10)
H13_2 H 0.121333 0.669413 0.861828
C23_2 C 0.1215(6) 0.5856(6) 0.9936(11)
H14_2 H 0.080452 0.552072 0.957875
C24_2 C 0.2393(6) 0.7787(6) 0.9168(11)
C1_2 C 0.9183(7) 0.5207(7) 0.1882(11)
H1_2 H 0.918229 0.465762 0.224002
H2_2 H 0.969041 0.549085 0.210612
H3_2 H 0.871221 0.551690 0.218769
C2_2 C 0.9130(5) 0.5140(6) 0.0504(10)
H4_2 H 0.912860 0.389400 0.034493
Zn1_2 Zn 0.08050(3) 0.28560(4) 0.56194(10)
O1_2 O 0.0794(4) 0.2735(4) 0.3598(9)
N1_2 N 0.0876(4) 0.4169(5) 0.4877(7)
C1_3 C 0.0817(7) 0.4793(7) 0.6882(11)
H1_3 H 0.081771 0.534238 0.724002
H2_3 H 0.030959 0.450915 0.710612
H3_3 H 0.128779 0.448310 0.718769
C2_3 C 0.0870(5) 0.4860(6) 0.5504(10)
C3_2 C 0.0933(7) 0.5610(7) 0.4903(11)
H4_3 H 0.087140 0.610600 0.534493
C4_2 C 0.1081(7) 0.5631(6) 0.3702(10)
H5_2 H 0.114159 0.614521 0.330723
C5_2 C 0.1146(5) 0.4918(5) 0.3029(11)
C6_2 C 0.0993(5) 0.4176(6) 0.3629(8)
C7_2 C 0.0959(5) 0.3398(5) 0.3013(9)
C8_2 C 0.1158(5) 0.3407(5) 0.1787(9)
C9_2 C 0.1326(6) 0.4146(6) 0.1173(9)
H6_2 H 0.144837 0.412210 0.032829
C10_2 C 0.1322(6) 0.4886(6) 0.1717(9)
C11_2 C 0.1309(6) 0.2606(5) 0.1125(9)
C12_2 C 0.1787(7) 0.2017(6) 0.1687(10)
H7_2 H 0.196034 0.209694 0.250369
C13_2 C 0.2018(7) 0.1303(6) 0.1065(10)
H8_2 H 0.234478 0.089938 0.145449
C18_2 C 0.1561(6) 0.5636(6) 0.1089(10)
C19_2 C 0.2207(7) 0.6124(7) 0.1532(12)
H11_2 H 0.246042 0.597978 0.227931
C20_2 C 0.2484(7) 0.6810(6) 0.0908(10)
H12_2 H 0.292274 0.712809 0.122216
O8_2 O 0.1882(4) 0.1947(5) 0.5888(9)
O9_2 O 0.1926(4) 0.3083(5) 0.6916(8)
O6_2 O 0.9765(5) 0.1757(6) 0.5721(9)
O7_2 O 0.9882(5) 0.2730(5) 0.7138(9)
C8_3 C 0.6593(5) 0.1158(5) 0.9287(9)
C9_3 C 0.5854(6) 0.1326(6) 0.8673(9)
H6_3 H 0.587790 0.144837 0.782829
C10_3 C 0.5114(6) 0.1322(6) 0.9217(9)
C11_3 C 0.7394(5) 0.1309(6) 0.8625(9)
C12_3 C 0.7983(6) 0.1787(7) 0.9187(10)
C13_3 C 0.8697(6) 0.2018(7) 0.8565(10)
H8_3 H 0.910062 0.234478 0.895449
C14_3 C 0.8806(6) 0.1757(7) 0.7355(10)
C15_3 C 0.8248(6) 0.1255(6) 0.6838(10)
H9_3 H 0.835162 0.103931 0.604982
C16_3 C 0.7505(6) 0.1040(6) 0.7446(10)
H10_3 H 0.709901 0.072023 0.704940
C17_3 C 0.9537(6) 0.2103(6) 0.6705(9)
C18_3 C 0.4364(6) 0.1561(6) 0.8589(10)
C19_3 C 0.3876(7) 0.2207(7) 0.9032(12)
H11_3 H 0.402022 0.246042 0.977931
C20_3 C 0.3190(6) 0.2484(7) 0.8408(10)
H12_3 H 0.287191 0.292274 0.872216
C21_3 C 0.2975(6) 0.2110(7) 0.7321(11)
C22_3 C 0.3462(6) 0.1471(6) 0.6858(10)
H13_3 H 0.330587 0.121333 0.611828
C23_3 C 0.4144(6) 0.1215(6) 0.7436(11)
H14_3 H 0.447928 0.080452 0.707875
C24_3 C 0.2213(6) 0.2393(6) 0.6668(11)
Zn1_3 Zn 0.71440(4) 0.08050(3) 0.31194(10)
O1_3 O 0.7265(4) 0.0794(4) 0.1098(9)
N1_3 N 0.5831(5) 0.0876(4) 0.2377(7)
C1_4 C 0.5207(7) 0.0817(7) 0.4382(11)
H1_4 H 0.465762 0.081771 0.474002
H2_4 H 0.549085 0.030959 0.460612
H3_4 H 0.551690 0.128779 0.468769
C2_4 C 0.5140(6) 0.0870(5) 0.3004(10)
C3_3 C 0.4390(7) 0.0933(7) 0.2403(11)
H4_4 H 0.389400 0.087140 0.284493
C4_3 C 0.4369(6) 0.1081(7) 0.1202(10)
H5_3 H 0.385479 0.114159 0.080723
C5_3 C 0.5082(5) 0.1146(5) 0.0529(11)
C6_3 C 0.5824(6) 0.0993(5) 0.1129(8)
C7_3 C 0.6602(5) 0.0959(5) 0.0513(9)
H7_3 H 0.790306 0.196034 0.000369
O8_3 O 0.8053(5) 0.1882(4) 0.3388(9)
O9_3 O 0.6917(5) 0.1926(4) 0.4416(8)
O6_3 O 0.8243(6) 0.9765(5) 0.3221(9)
O7_3 O 0.7270(5) 0.9882(5) 0.4638(9)
O1_4 O 0.9206(4) 0.7265(4) 0.8598(9)
N1_4 N 0.9124(4) 0.5831(5) 0.9877(7)
C3_4 C 0.9067(7) 0.4390(7) 0.9903(11)
C4_4 C 0.8919(7) 0.4369(6) 0.8702(10)
H5_4 H 0.885841 0.385479 0.830723
C5_4 C 0.8854(5) 0.5082(5) 0.8029(11)
C6_4 C 0.9007(5) 0.5824(6) 0.8629(8)
C7_4 C 0.9041(5) 0.6602(5) 0.8013(9)
C8_4 C 0.8842(5) 0.6593(5) 0.6787(9)
C9_4 C 0.8674(6) 0.5854(6) 0.6173(9)
H6_4 H 0.855163 0.587790 0.532829
C10_4 C 0.8678(6) 0.5114(6) 0.6717(9)
C11_4 C 0.8691(6) 0.7394(5) 0.6125(9)
C12_4 C 0.8213(7) 0.7983(6) 0.6687(10)
H7_4 H 0.803966 0.790306 0.750369
C13_4 C 0.7982(7) 0.8697(6) 0.6065(10)
H8_4 H 0.765522 0.910062 0.645449
C14_4 C 0.8243(7) 0.8806(6) 0.4855(10)
C15_4 C 0.8745(6) 0.8248(6) 0.4338(10)
H9_4 H 0.896069 0.835162 0.354982
C16_4 C 0.8960(6) 0.7505(6) 0.4946(10)
H10_4 H 0.927977 0.709901 0.454940
C17_4 C 0.7897(6) 0.9537(6) 0.4205(9)
C18_4 C 0.8439(6) 0.4364(6) 0.6089(10)
C19_4 C 0.7793(7) 0.3876(7) 0.6532(12)
H11_4 H 0.753958 0.402022 0.727931
C20_4 C 0.7516(7) 0.3190(6) 0.5908(10)
H12_4 H 0.707726 0.287191 0.622216
C21_4 C 0.7890(7) 0.2975(6) 0.4821(11)
C22_4 C 0.8529(6) 0.3462(6) 0.4358(10)
H13_4 H 0.878667 0.330587 0.361828
C23_4 C 0.8785(6) 0.4144(6) 0.4936(11)
H14_4 H 0.919548 0.447928 0.457875
C24_4 C 0.7607(6) 0.2213(6) 0.4168(11)
loop_
_geom_bond_atom_site_label_1
_geom_bond_atom_site_label_2
_geom_bond_site_symmetry_1
_geom_bond_site_symmetry_2
Zn1 O1 1_555 1_555
O1 C7 1_555 1_555
N1 Zn1 1_555 1_555
C1 H1 1_555 1_555
H2 C1 1_555 1_555
H3 C1 1_555 1_555
O2 C17 1_555 1_555
C2 N1 1_555 1_555
O3 C17 1_555 1_555
C3 C2 1_555 1_555
H4 C3 1_555 1_555
O4 C24 1_555 1_555
C4 C3 1_555 1_555
H5 C4 1_555 1_555
O5 C24 1_555 1_555
C5 C4 1_555 1_555
C6 N1 1_555 1_555
C7 C6 1_555 1_555
C8 C7 1_555 1_555
C9 C8 1_555 1_555
H6 C9 1_555 1_555
C10 C5 1_555 1_555
C11 C8 1_555 1_555
C12 C11 1_555 1_555
H7 C12 1_555 1_555
C13 C12 1_555 1_555
H8 C13 1_555 1_555
C14 C13 1_555 1_555
C15 C14 1_555 1_555
H9 C15 1_555 1_555
C16 C11 1_555 1_555
H10 C16 1_555 1_555
C17 C14 1_555 1_555
C18 C10 1_555 1_555
C19 C18 1_555 1_555
H11 C19 1_555 1_555
C20 C19 1_555 1_555
H12 C20 1_555 1_555
C21 C20 1_555 1_555
C22 C21 1_555 1_555
H13 C22 1_555 1_555
C23 C18 1_555 1_555
H14 C23 1_555 1_555
C24 C21 1_555 1_555
Zn3 O4 1_555 1_555
O8 Zn1 1_555 1_555
O9 Zn1 1_555 1_555
C1 C2 1_555 1_555
O5 Zn3 1_555 1_555
C5 C6 1_555 1_555
C9 C10 1_555 1_555
C15 C16 1_555 1_555
C22 C23 1_555 1_555
O6 C17_2 1_555 1_555
O7 C17_2 1_555 1_555
O8 C24_2 1_555 1_555
O9 C24_2 1_555 1_555
C15_2 C14_2 1_555 1_555
H9_2 C15_2 1_555 1_555
H10_2 C16_2 1_555 1_555
C17_2 C14_2 1_555 1_555
C22_2 C21_2 1_555 1_555
H13_2 C22_2 1_555 1_555
H14_2 C23_2 1_555 1_555
C24_2 C21_2 1_555 1_555
C15_2 C16_2 1_555 1_555
C22_2 C23_2 1_555 1_555
C1_2 H1_2 1_555 1_555
H2_2 C1_2 1_555 1_555
H3_2 C1_2 1_555 1_555
C1_2 C2_2 1_555 1_555
Zn1_2 O1_2 1_555 1_555
O1_2 C7_2 1_555 1_555
N1_2 Zn1_2 1_555 1_555
C1_3 H1_3 1_555 1_555
H2_3 C1_3 1_555 1_555
H3_3 C1_3 1_555 1_555
C2_3 N1_2 1_555 1_555
C3_2 C2_3 1_555 1_555
H4_3 C3_2 1_555 1_555
C4_2 C3_2 1_555 1_555
H5_2 C4_2 1_555 1_555
C5_2 C4_2 1_555 1_555
C6_2 N1_2 1_555 1_555
C7_2 C6_2 1_555 1_555
C8_2 C7_2 1_555 1_555
C9_2 C8_2 1_555 1_555
H6_2 C9_2 1_555 1_555
C10_2 C5_2 1_555 1_555
C11_2 C8_2 1_555 1_555
C12_2 C11_2 1_555 1_555
H7_2 C12_2 1_555 1_555
C13_2 C12_2 1_555 1_555
H8_2 C13_2 1_555 1_555
C18_2 C10_2 1_555 1_555
C19_2 C18_2 1_555 1_555
H11_2 C19_2 1_555 1_555
C20_2 C19_2 1_555 1_555
H12_2 C20_2 1_555 1_555
O8_2 Zn1_2 1_555 1_555
O9_2 Zn1_2 1_555 1_555
C1_3 C2_3 1_555 1_555
C5_2 C6_2 1_555 1_555
C9_2 C10_2 1_555 1_555
O6_2 C17_3 1_555 1_555
O7_2 C17_3 1_555 1_555
O8_2 C24_3 1_555 1_555
O9_2 C24_3 1_555 1_555
C9_3 C8_3 1_555 1_555
H6_3 C9_3 1_555 1_555
C11_3 C8_3 1_555 1_555
C12_3 C11_3 1_555 1_555
C13_3 C12_3 1_555 1_555
H8_3 C13_3 1_555 1_555
C14_3 C13_3 1_555 1_555
C15_3 C14_3 1_555 1_555
H9_3 C15_3 1_555 1_555
C16_3 C11_3 1_555 1_555
H10_3 C16_3 1_555 1_555
C17_3 C14_3 1_555 1_555
C18_3 C10_3 1_555 1_555
C19_3 C18_3 1_555 1_555
H11_3 C19_3 1_555 1_555
C20_3 C19_3 1_555 1_555
H12_3 C20_3 1_555 1_555
C21_3 C20_3 1_555 1_555
C22_3 C21_3 1_555 1_555
H13_3 C22_3 1_555 1_555
C23_3 C18_3 1_555 1_555
H14_3 C23_3 1_555 1_555
C24_3 C21_3 1_555 1_555
C9_3 C10_3 1_555 1_555
C15_3 C16_3 1_555 1_555
C22_3 C23_3 1_555 1_555
Zn1_3 O1_3 1_555 1_555
O1_3 C7_3 1_555 1_555
N1_3 Zn1_3 1_555 1_555
C1_4 H1_4 1_555 1_555
H2_4 C1_4 1_555 1_555
H3_4 C1_4 1_555 1_555
C2_4 N1_3 1_555 1_555
C3_3 C2_4 1_555 1_555
H4_4 C3_3 1_555 1_555
C4_3 C3_3 1_555 1_555
H5_3 C4_3 1_555 1_555
C5_3 C4_3 1_555 1_555
C6_3 N1_3 1_555 1_555
C7_3 C6_3 1_555 1_555
O8_3 Zn1_3 1_555 1_555
O9_3 Zn1_3 1_555 1_555
C1_4 C2_4 1_555 1_555
C5_3 C6_3 1_555 1_555
O1_4 C7_4 1_555 1_555
O6_3 C17_4 1_555 1_555
O7_3 C17_4 1_555 1_555
O8_3 C24_4 1_555 1_555
C4_4 C3_4 1_555 1_555
H5_4 C4_4 1_555 1_555
O9_3 C24_4 1_555 1_555
C5_4 C4_4 1_555 1_555
C6_4 N1_4 1_555 1_555
C7_4 C6_4 1_555 1_555
C8_4 C7_4 1_555 1_555
C9_4 C8_4 1_555 1_555
H6_4 C9_4 1_555 1_555
C10_4 C5_4 1_555 1_555
C11_4 C8_4 1_555 1_555
C12_4 C11_4 1_555 1_555
H7_4 C12_4 1_555 1_555
C13_4 C12_4 1_555 1_555
H8_4 C13_4 1_555 1_555
C14_4 C13_4 1_555 1_555
C15_4 C14_4 1_555 1_555
H9_4 C15_4 1_555 1_555
C16_4 C11_4 1_555 1_555
H10_4 C16_4 1_555 1_555
C17_4 C14_4 1_555 1_555
C18_4 C10_4 1_555 1_555
C19_4 C18_4 1_555 1_555
H11_4 C19_4 1_555 1_555
C20_4 C19_4 1_555 1_555
H12_4 C20_4 1_555 1_555
C21_4 C20_4 1_555 1_555
C22_4 C21_4 1_555 1_555
H13_4 C22_4 1_555 1_555
C23_4 C18_4 1_555 1_555
H14_4 C23_4 1_555 1_555
C24_4 C21_4 1_555 1_555
C5_4 C6_4 1_555 1_555
C9_4 C10_4 1_555 1_555
C15_4 C16_4 1_555 1_555
C22_4 C23_4 1_555 1_555

#END
