
###############################################################################
#
# This file contains modified crystal structure data generated from the
# MOF subset of the Cambridge Structural Database (CSD) v543 
# hosted by the Cambridge Crystallographic Data Centre (CCDC).
#
# This work is licensed under the Creative Commons
# Attribution-NonCommercial-ShareAlike 4.0 International License.
# To view a copy of this license, visit
# http://creativecommons.org/licenses/by-nc-sa/4.0/
# or send a letter to
# Creative Commons, PO Box 1866, Mountain View, CA 94042, USA.
#
# CIF created using the CSD Python API on 29 September 2022
# The structure has been converted into the P1 space group
# The structure has a 3D framework
# The original CSD entry BAHGUN02 is in the monoclinic crystal system
# The framework has been calculated to contain at least 10.0% void space
# The void calculation uses a probe of radius 1.32A, grid spacing 0.4
#
###############################################################################

data_BAHGUN02
_chemical_formula_moiety         '(C48 H32 Cu4 N8 O15)n'
_symmetry_cell_setting           triclinic
_symmetry_space_group_name_H-M   'P 1'
_symmetry_Int_Tables_number      1
_space_group_name_Hall           'P 1'
loop_
_symmetry_equiv_pos_site_id
_symmetry_equiv_pos_as_xyz
1 x,y,z
_cell_length_a                   4.9410(2)
_cell_length_b                   25.0290(10)
_cell_length_c                   10.9600(4)
_cell_angle_alpha                90
_cell_angle_beta                 97.834(2)
_cell_angle_gamma                90
_cell_volume                     1342.75
loop_
_atom_site_label
_atom_site_type_symbol
_atom_site_fract_x
_atom_site_fract_y
_atom_site_fract_z
O2 O 0.1402(7) 0.34147(14) 0.7145(4)
H3 H 0.0826(11) 0.2723(2) 0.5428(4)
Cu2 Cu 0.00262(11) 0.38679(2) 0.94296(8)
Cu1 Cu 0.50262(11) 0.11321(2) 0.44296(8)
N1 N 0.6586(11) 0.1741(2) 0.5497(5)
C1 C 0.9409(13) 0.3167(3) 0.7465(6)
O1 O 0.8214(9) 0.3293(2) 0.8375(4)
C2 C 0.5527(14) 0.1890(3) 0.6519(6)
H1 H 0.4200(14) 0.1676(3) 0.6799(6)
C3 C 0.6364(13) 0.2353(3) 0.7163(7)
H2 H 0.5594(13) 0.2448(3) 0.7860(7)
C4 C 0.8350(13) 0.2672(3) 0.6759(6)
C5 C 0.9471(11) 0.2519(2) 0.5714(4)
C6 C 0.8522(10) 0.2056(2) 0.5110(4)
H4 H 0.9252(10) 0.1957(2) 0.4405(4)
N2 N 0.3468(9) 0.0558(2) 0.3253(4)
C8 C 0.1148(11) 0.0645(2) 0.2488(5)
H5 H 0.0310(11) 0.0977(2) 0.2504(5)
C12 C 0.4648(11) 0.0068(2) 0.3212(5)
O5 O 0.3214(9) 0.1707(2) 0.3375(4)
O6 O 0.7404(8) 0.0602(2) 0.5369(4)
O7 O 0.1449(7) 0.10337(13) 0.5483(3)
O4 O 0.1449(7) 0.89663(13) 0.0483(3)
C10 C 0.1179(10) 0.9768(2) 0.1613(4)
C11 C 0.3587(10) 0.9677(2) 0.2394(5)
H7 H 0.4490(10) 0.9352(2) 0.2368(5)
H8 H 0.6222(11) 0.9994(2) 0.3754(5)
Cu4 Cu 0.50262(11) 0.88679(2) 0.94296(8)
C7 C 0.9945(10) 0.9337(2) 0.0744(5)
O3 O 0.7404(8) 0.9398(2) 0.0369(4)
O2_2 O 0.1402(7) 0.65853(14) 0.2145(4)
H3_2 H 0.0826(11) 0.7277(2) 0.0428(4)
Cu2_2 Cu 0.00262(11) 0.61321(2) 0.44296(8)
C10_2 C 0.1179(10) 0.0232(2) 0.6613(4)
C11_2 C 0.3587(10) 0.0323(2) 0.7394(5)
H7_2 H 0.4490(10) 0.0648(2) 0.7368(5)
H8_2 H 0.6222(11) 0.0006(2) 0.8754(5)
N1_2 N 0.6586(11) 0.8259(2) 0.0497(5)
C1_2 C 0.9409(13) 0.6833(3) 0.2465(6)
O1_2 O 0.8214(9) 0.6707(2) 0.3375(4)
C2_2 C 0.5527(14) 0.8110(3) 0.1519(6)
H1_2 H 0.4200(14) 0.8324(3) 0.1799(6)
C3_2 C 0.6364(13) 0.7647(3) 0.2163(7)
H2_2 H 0.5594(13) 0.7552(3) 0.2860(7)
C4_2 C 0.8350(13) 0.7328(3) 0.1759(6)
C5_2 C 0.9471(11) 0.7481(2) 0.0714(4)
C6_2 C 0.8522(10) 0.7944(2) 0.0110(4)
H4_2 H 0.9252(10) 0.8043(2) 0.9405(4)
N2_2 N 0.3468(9) 0.9442(2) 0.8253(4)
C8_2 C 0.1148(11) 0.9355(2) 0.7488(5)
H5_2 H 0.0310(11) 0.9023(2) 0.7504(5)
C12_2 C 0.4648(11) 0.9932(2) 0.8212(5)
O5_2 O 0.3214(9) 0.8293(2) 0.8375(4)
C7_2 C 0.9945(10) 0.0663(2) 0.5744(5)
N1_3 N 0.1586(11) 0.6741(2) 0.5497(5)
C1_3 C 0.4409(13) 0.8167(3) 0.7465(6)
O2_3 O 0.6402(7) 0.84147(14) 0.7145(4)
C2_3 C 0.0527(14) 0.6890(3) 0.6519(6)
C3_3 C 0.1364(13) 0.7353(3) 0.7163(7)
H2_3 H 0.0594(13) 0.7448(3) 0.7860(7)
C4_3 C 0.3350(13) 0.7672(3) 0.6759(6)
C5_3 C 0.4471(11) 0.7519(2) 0.5714(4)
H3_3 H 0.5826(11) 0.7723(2) 0.5428(4)
C6_3 C 0.3522(10) 0.7056(2) 0.5110(4)
H4_3 H 0.4252(10) 0.6957(2) 0.4405(4)
H8_3 H 0.1222(11) 0.4994(2) 0.3754(5)
O6_2 O 0.2404(8) 0.5602(2) 0.5369(4)
H1_3 H 0.9200(14) 0.6676(3) 0.6799(6)
N2_3 N 0.8468(9) 0.5558(2) 0.3253(4)
C7_3 C 0.4945(10) 0.4337(2) 0.0744(5)
O3_2 O 0.2404(8) 0.4398(2) 0.0369(4)
O4_2 O 0.6449(7) 0.39663(13) 0.0483(3)
C8_3 C 0.6148(11) 0.5645(2) 0.2488(5)
H5_3 H 0.5310(11) 0.5977(2) 0.2504(5)
C9 C 0.4954(11) 0.5264(2) 0.1680(5)
H6 H 0.3324(11) 0.5339(2) 0.1179(5)
C10_3 C 0.6179(10) 0.4768(2) 0.1613(4)
C11_3 C 0.8587(10) 0.4677(2) 0.2394(5)
H7_3 H 0.9490(10) 0.4352(2) 0.2368(5)
C12_3 C 0.9648(11) 0.5068(2) 0.3212(5)
O7_2 O 0.6449(7) 0.60337(13) 0.5483(3)
N1_4 N 0.1586(11) 0.3259(2) 0.0497(5)
C1_4 C 0.4409(13) 0.1833(3) 0.2465(6)
O2_4 O 0.6402(7) 0.15853(14) 0.2145(4)
C2_4 C 0.0527(14) 0.3110(3) 0.1519(6)
C3_4 C 0.1364(13) 0.2647(3) 0.2163(7)
H2_4 H 0.0594(13) 0.2552(3) 0.2860(7)
C4_4 C 0.3350(13) 0.2328(3) 0.1759(6)
C5_4 C 0.4471(11) 0.2481(2) 0.0714(4)
H3_4 H 0.5826(11) 0.2277(2) 0.0428(4)
C6_4 C 0.3522(10) 0.2944(2) 0.0110(4)
H4_4 H 0.4252(10) 0.3043(2) 0.9405(4)
H8_4 H 0.1222(11) 0.5006(2) 0.8754(5)
H1_4 H 0.9200(14) 0.3324(3) 0.1799(6)
N2_4 N 0.8468(9) 0.4442(2) 0.8253(4)
C7_4 C 0.4945(10) 0.5663(2) 0.5744(5)
C8_4 C 0.6148(11) 0.4355(2) 0.7488(5)
H5_4 H 0.5310(11) 0.4023(2) 0.7504(5)
C9_2 C 0.4954(11) 0.4736(2) 0.6680(5)
H6_2 H 0.3324(11) 0.4661(2) 0.6179(5)
C10_4 C 0.6179(10) 0.5232(2) 0.6613(4)
C11_4 C 0.8587(10) 0.5323(2) 0.7394(5)
H7_4 H 0.9490(10) 0.5648(2) 0.7368(5)
C12_4 C 0.9648(11) 0.4932(2) 0.8212(5)
C9_3 C 0.9954(11) 0.0264(2) 0.1680(5)
H6_3 H 0.8324(11) 0.0339(2) 0.1179(5)
C9_4 C 0.9954(11) 0.9736(2) 0.6680(5)
H6_4 H 0.8324(11) 0.9661(2) 0.6179(5)
loop_
_geom_bond_atom_site_label_1
_geom_bond_atom_site_label_2
_geom_bond_site_symmetry_1
_geom_bond_site_symmetry_2
Cu1 N1 1_555 1_555
N1 C2 1_555 1_555
C1 O1 1_555 1_555
C2 H1 1_555 1_555
C3 C2 1_555 1_555
H2 C3 1_555 1_555
C4 C1 1_555 1_555
C5 C4 1_555 1_555
C6 N1 1_555 1_555
H4 C6 1_555 1_555
N2 Cu1 1_555 1_555
C8 N2 1_555 1_555
H5 C8 1_555 1_555
C12 N2 1_555 1_555
O5 Cu1 1_555 1_555
O6 Cu1 1_555 1_555
O7 Cu1 1_555 1_555
C3 C4 1_555 1_555
C5 C6 1_555 1_555
C11 C10 1_555 1_555
H7 C11 1_555 1_555
C7 O3 1_555 1_555
C11_2 C10_2 1_555 1_555
H7_2 C11_2 1_555 1_555
N1_2 C2_2 1_555 1_555
C1_2 O1_2 1_555 1_555
C2_2 H1_2 1_555 1_555
C3_2 C2_2 1_555 1_555
H2_2 C3_2 1_555 1_555
C4_2 C1_2 1_555 1_555
C5_2 C4_2 1_555 1_555
C6_2 N1_2 1_555 1_555
C3_2 C4_2 1_555 1_555
C5_2 C6_2 1_555 1_555
N2_2 Cu4 1_555 1_555
C8_2 N2_2 1_555 1_555
H5_2 C8_2 1_555 1_555
C12_2 N2_2 1_555 1_555
O5_2 Cu4 1_555 1_555
C7_2 O6 1_555 1_555
Cu2_2 N1_3 1_555 1_555
N1_3 C2_3 1_555 1_555
C1_3 O5_2 1_555 1_555
O2_3 C1_3 1_555 1_555
C3_3 C2_3 1_555 1_555
H2_3 C3_3 1_555 1_555
C4_3 C1_3 1_555 1_555
C5_3 C4_3 1_555 1_555
H3_3 C5_3 1_555 1_555
C6_3 N1_3 1_555 1_555
H4_3 C6_3 1_555 1_555
O6_2 Cu2_2 1_555 1_555
C3_3 C4_3 1_555 1_555
C5_3 C6_3 1_555 1_555
C7_3 O3_2 1_555 1_555
O4_2 C7_3 1_555 1_555
C8_3 N2_3 1_555 1_555
H5_3 C8_3 1_555 1_555
C9 C8_3 1_555 1_555
H6 C9 1_555 1_555
C10_3 C7_3 1_555 1_555
C11_3 C10_3 1_555 1_555
H7_3 C11_3 1_555 1_555
C12_3 N2_3 1_555 1_555
C9 C10_3 1_555 1_555
C11_3 C12_3 1_555 1_555
N1_4 C2_4 1_555 1_555
C1_4 O5 1_555 1_555
O2_4 C1_4 1_555 1_555
C3_4 C2_4 1_555 1_555
H2_4 C3_4 1_555 1_555
C4_4 C1_4 1_555 1_555
C5_4 C4_4 1_555 1_555
H3_4 C5_4 1_555 1_555
C6_4 N1_4 1_555 1_555
C3_4 C4_4 1_555 1_555
C5_4 C6_4 1_555 1_555
C7_4 O6_2 1_555 1_555
O7_2 C7_4 1_555 1_555
C8_4 N2_4 1_555 1_555
H5_4 C8_4 1_555 1_555
C9_2 C8_4 1_555 1_555
H6_2 C9_2 1_555 1_555
C10_4 C7_4 1_555 1_555
C11_4 C10_4 1_555 1_555
H7_4 C11_4 1_555 1_555
C12_4 N2_4 1_555 1_555
C9_2 C10_4 1_555 1_555
C11_4 C12_4 1_555 1_555
H6_3 C9_3 1_555 1_555
H6_4 C9_4 1_555 1_555

#END
