
###############################################################################
#
# This file contains modified crystal structure data generated from the
# MOF subset of the Cambridge Structural Database (CSD) v543 
# hosted by the Cambridge Crystallographic Data Centre (CCDC).
#
# This work is licensed under the Creative Commons
# Attribution-NonCommercial-ShareAlike 4.0 International License.
# To view a copy of this license, visit
# http://creativecommons.org/licenses/by-nc-sa/4.0/
# or send a letter to
# Creative Commons, PO Box 1866, Mountain View, CA 94042, USA.
#
# CIF created using the CSD Python API on 29 September 2022
# The structure has been converted into the P1 space group
# The structure has a 3D framework
# The original CSD entry BAHGUN03 is in the monoclinic crystal system
# The framework has been calculated to contain at least 10.0% void space
# The void calculation uses a probe of radius 1.32A, grid spacing 0.4
#
###############################################################################

data_BAHGUN03
_chemical_formula_moiety         '(C48 H32 Cu4 N8 O12)n'
_symmetry_cell_setting           triclinic
_symmetry_space_group_name_H-M   'P 1'
_symmetry_Int_Tables_number      1
_space_group_name_Hall           'P 1'
loop_
_symmetry_equiv_pos_site_id
_symmetry_equiv_pos_as_xyz
1 x,y,z
_cell_length_a                   4.981(1)
_cell_length_b                   25.067(3)
_cell_length_c                   11.019(2)
_cell_angle_alpha                90
_cell_angle_beta                 98.57(1)
_cell_angle_gamma                90
_cell_volume                     1360.46
loop_
_atom_site_label
_atom_site_type_symbol
_atom_site_fract_x
_atom_site_fract_y
_atom_site_fract_z
O1 O 0.5499(6) 0.43919(11) 0.7101(2)
O2 O 0.1500(5) 0.39754(9) 0.7012(2)
C1 C 0.2969(7) 0.43397(12) 0.6733(3)
C2 C 0.1734(7) 0.47712(13) 0.5866(3)
C5 C 0.1787(8) 0.56411(14) 0.4971(4)
H3 H 0.2632 0.5971 0.4945
C6 C 0.2992(8) 0.52625(14) 0.5784(4)
H4 H 0.4637 0.5335 0.6275
O6 O 0.1500(5) 0.60246(9) 0.2012(2)
Cu2 Cu 0.78732(5) 0.386610(12) 0.80450(4)
Cu1 Cu 0.78732(5) 0.613390(12) 0.30450(4)
N1 N 0.9463(7) 0.55560(13) 0.4219(3)
N2 N 0.6370(8) 0.67461(16) 0.1966(3)
O4 O 0.1591(6) 0.84126(11) 0.0309(3)
C3 C 0.9330(8) 0.46832(14) 0.5087(3)
H1 H 0.8422 0.436 0.5111
C4 C 0.8285(8) 0.50746(14) 0.4275(3)
H2 H 0.6695 0.5004 0.3743
C7 C 0.3548(9) 0.81711(17) 0.0002(4)
C8 C 0.4590(10) 0.76718(19) 0.0690(4)
C9 C 0.6538(11) 0.73507(17) 0.0302(4)
C10 C 0.7371(11) 0.69025(19) 0.0962(4)
H6 H 0.8715 0.6694 0.0696
C11 C 0.4427(8) 0.70548(13) 0.2340(3)
H7 H 0.3685 0.6952 0.303
C12 C 0.3499(8) 0.75180(13) 0.1736(3)
H8 H 0.217 0.7724 0.202
O5 O 0.5499(6) 0.56081(11) 0.2101(2)
O7 O 0.9731(7) 0.67089(13) 0.4097(3)
C1_2 C 0.2969(7) 0.56603(12) 0.1733(3)
C2_2 C 0.1734(7) 0.52288(13) 0.0866(3)
C6_2 C 0.2992(8) 0.47375(14) 0.0784(4)
H4_2 H 0.4637 0.4665 0.1275
C5_2 C 0.1787(8) 0.43589(14) 0.9971(4)
H3_2 H 0.2632 0.4029 0.9945
C3_2 C 0.9330(8) 0.53168(14) 0.0087(3)
H1_2 H 0.8422 0.564 0.0111
N1_2 N 0.9463(7) 0.44440(13) 0.9219(3)
N2_2 N 0.6370(8) 0.32539(16) 0.6966(3)
O3 O 0.4731(7) 0.17089(13) 0.4097(3)
O4_2 O 0.1591(6) 0.15874(11) 0.5309(3)
C4_2 C 0.8285(8) 0.49254(14) 0.9275(3)
H2_2 H 0.6695 0.4996 0.8743
C7_2 C 0.3548(9) 0.18289(17) 0.5002(4)
C8_2 C 0.4590(10) 0.23282(19) 0.5690(4)
C9_2 C 0.6538(11) 0.26493(17) 0.5302(4)
H5 H 0.7277 0.2563 0.4601
C10_2 C 0.7371(11) 0.30975(19) 0.5962(4)
H6_2 H 0.8715 0.3306 0.5696
C11_2 C 0.4427(8) 0.29452(13) 0.7340(3)
H7_2 H 0.3685 0.3048 0.803
C12_2 C 0.3499(8) 0.24820(13) 0.6736(3)
H8_2 H 0.217 0.2276 0.702
O7_2 O 0.9731(7) 0.32911(13) 0.9097(3)
Cu4 Cu 0.28732(5) 0.113390(12) 0.30450(4)
N1_3 N 0.4463(7) 0.05560(13) 0.4219(3)
N2_3 N 0.1370(8) 0.17461(16) 0.1966(3)
C4_3 C 0.3285(8) 0.00746(14) 0.4275(3)
H2_3 H 0.1695 0.0004 0.3743
C5_3 C 0.6787(8) 0.06411(14) 0.4971(4)
H3_3 H 0.7632 0.0971 0.4945
C6_3 C 0.7992(8) 0.02625(14) 0.5784(4)
H4_3 H 0.9637 0.0335 0.6275
C9_3 C 0.1538(11) 0.23507(17) 0.0302(4)
C10_3 C 0.2371(11) 0.19025(19) 0.0962(4)
H6_3 H 0.3715 0.1694 0.0696
O5_2 O 0.0499(6) 0.06081(11) 0.2101(2)
O6_2 O 0.6500(5) 0.10246(9) 0.2012(2)
C1_3 C 0.7969(7) 0.06603(12) 0.1733(3)
C2_3 C 0.6734(7) 0.02288(13) 0.0866(3)
C3_3 C 0.4330(8) 0.03168(14) 0.0087(3)
H1_3 H 0.3422 0.064 0.0111
O4_3 O 0.6591(6) 0.65874(11) 0.5309(3)
C7_3 C 0.8548(9) 0.68289(17) 0.5002(4)
C8_3 C 0.9590(10) 0.73282(19) 0.5690(4)
C11_3 C 0.9427(8) 0.79452(13) 0.7340(3)
H7_3 H 0.8685 0.8048 0.803
C12_3 C 0.8499(8) 0.74820(13) 0.6736(3)
H8_3 H 0.717 0.7276 0.702
O3_2 O 0.4731(7) 0.82911(13) 0.9097(3)
H5_2 H 0.7277 0.7437 0.9601
Cu4_2 Cu 0.28732(5) 0.886610(12) 0.80450(4)
O1_2 O 0.0499(6) 0.93919(11) 0.7101(2)
O2_2 O 0.6500(5) 0.89754(9) 0.7012(2)
C1_4 C 0.7969(7) 0.93397(12) 0.6733(3)
C2_4 C 0.6734(7) 0.97712(13) 0.5866(3)
C3_4 C 0.4330(8) 0.96832(14) 0.5087(3)
H1_4 H 0.3422 0.936 0.5111
N1_4 N 0.4463(7) 0.94440(13) 0.9219(3)
N2_4 N 0.1370(8) 0.82539(16) 0.6966(3)
C4_4 C 0.3285(8) 0.99254(14) 0.9275(3)
H2_4 H 0.1695 0.9996 0.8743
C5_4 C 0.6787(8) 0.93589(14) 0.9971(4)
H3_4 H 0.7632 0.9029 0.9945
C9_4 C 0.1538(11) 0.76493(17) 0.5302(4)
H5_3 H 0.2277 0.7563 0.4601
C10_4 C 0.2371(11) 0.80975(19) 0.5962(4)
H6_4 H 0.3715 0.8306 0.5696
H5_4 H 0.2277 0.2437 0.9601
O4_4 O 0.6591(6) 0.34126(11) 0.0309(3)
C7_4 C 0.8548(9) 0.31711(17) 0.0002(4)
C8_4 C 0.9590(10) 0.26718(19) 0.0690(4)
C11_4 C 0.9427(8) 0.20548(13) 0.2340(3)
H7_4 H 0.8685 0.1952 0.303
C12_4 C 0.8499(8) 0.25180(13) 0.1736(3)
H8_4 H 0.717 0.2724 0.202
C6_4 C 0.7992(8) 0.97375(14) 0.0784(4)
H4_4 H 0.9637 0.9665 0.1275
loop_
_geom_bond_atom_site_label_1
_geom_bond_atom_site_label_2
_geom_bond_site_symmetry_1
_geom_bond_site_symmetry_2
O1 C1 1_555 1_555
O2 C1 1_555 1_555
C1 C2 1_555 1_555
H3 C5 1_555 1_555
C6 C2 1_555 1_555
H4 C6 1_555 1_555
Cu2 O1 1_555 1_555
C5 C6 1_555 1_555
Cu1 N1 1_555 1_555
N1 C4 1_555 1_555
N2 Cu1 1_555 1_555
O4 C7 1_555 1_555
C3 H1 1_555 1_555
C4 C3 1_555 1_555
H2 C4 1_555 1_555
C7 C8 1_555 1_555
C8 C9 1_555 1_555
C10 N2 1_555 1_555
H6 C10 1_555 1_555
C11 N2 1_555 1_555
H7 C11 1_555 1_555
C12 C8 1_555 1_555
H8 C12 1_555 1_555
O5 Cu1 1_555 1_555
O7 Cu1 1_555 1_555
C9 C10 1_555 1_555
C11 C12 1_555 1_555
O5 C1_2 1_555 1_555
O6 C1_2 1_555 1_555
C1_2 C2_2 1_555 1_555
C6_2 C2_2 1_555 1_555
H4_2 C6_2 1_555 1_555
H3_2 C5_2 1_555 1_555
C3_2 H1_2 1_555 1_555
Cu2 N1_2 1_555 1_555
N1_2 C4_2 1_555 1_555
N2_2 Cu2 1_555 1_555
O3 C7_2 1_555 1_555
O4_2 C7_2 1_555 1_555
H2_2 C4_2 1_555 1_555
C7_2 C8_2 1_555 1_555
C8_2 C9_2 1_555 1_555
C9_2 H5 1_555 1_555
C10_2 N2_2 1_555 1_555
H6_2 C10_2 1_555 1_555
C11_2 N2_2 1_555 1_555
H7_2 C11_2 1_555 1_555
C12_2 C8_2 1_555 1_555
H8_2 C12_2 1_555 1_555
O7_2 Cu2 1_555 1_555
Cu4 O3 1_555 1_555
C9_2 C10_2 1_555 1_555
C11_2 C12_2 1_555 1_555
Cu4 N1_3 1_555 1_555
N1_3 C4_3 1_555 1_555
N2_3 Cu4 1_555 1_555
H2_3 C4_3 1_555 1_555
C5_3 N1_3 1_555 1_555
H3_3 C5_3 1_555 1_555
H4_3 C6_3 1_555 1_555
C10_3 N2_3 1_555 1_555
H6_3 C10_3 1_555 1_555
O5_2 Cu4 1_555 1_555
O6_2 Cu4 1_555 1_555
C5_3 C6_3 1_555 1_555
C9_3 C10_3 1_555 1_555
O6_2 C1_3 1_555 1_555
C1_3 C2_3 1_555 1_555
C2_3 C3_3 1_555 1_555
C3_3 H1_3 1_555 1_555
O7 C7_3 1_555 1_555
O4_3 C7_3 1_555 1_555
C7_3 C8_3 1_555 1_555
H7_3 C11_3 1_555 1_555
C12_3 C8_3 1_555 1_555
H8_3 C12_3 1_555 1_555
C11_3 C12_3 1_555 1_555
Cu4_2 O3_2 1_555 1_555
Cu4_2 O1_2 1_555 1_555
O2_2 C1_4 1_555 1_555
C1_4 C2_4 1_555 1_555
C2_4 C3_4 1_555 1_555
C3_4 H1_4 1_555 1_555
Cu4_2 O2_2 1_555 1_555
Cu4_2 N1_4 1_555 1_555
N1_4 C4_4 1_555 1_555
N2_4 Cu4_2 1_555 1_555
H2_4 C4_4 1_555 1_555
C5_4 N1_4 1_555 1_555
H3_4 C5_4 1_555 1_555
C9_4 H5_3 1_555 1_555
C10_4 N2_4 1_555 1_555
H6_4 C10_4 1_555 1_555
C9_4 C10_4 1_555 1_555
O4_4 C7_4 1_555 1_555
C7_4 C8_4 1_555 1_555
H7_4 C11_4 1_555 1_555
C12_4 C8_4 1_555 1_555
H8_4 C12_4 1_555 1_555
C11_4 C12_4 1_555 1_555
H4_4 C6_4 1_555 1_555

#END
