
###############################################################################
#
# This file contains modified crystal structure data generated from the
# MOF subset of the Cambridge Structural Database (CSD) v543 
# hosted by the Cambridge Crystallographic Data Centre (CCDC).
#
# This work is licensed under the Creative Commons
# Attribution-NonCommercial-ShareAlike 4.0 International License.
# To view a copy of this license, visit
# http://creativecommons.org/licenses/by-nc-sa/4.0/
# or send a letter to
# Creative Commons, PO Box 1866, Mountain View, CA 94042, USA.
#
# CIF created using the CSD Python API on 29 September 2022
# The structure has been converted into the P1 space group
# The structure has a 3D framework
# The original CSD entry BAHLUS is in the monoclinic crystal system
# The framework has been calculated to contain at least 10.0% void space
# The void calculation uses a probe of radius 1.32A, grid spacing 0.4
#
###############################################################################

data_BAHLUS
_chemical_formula_moiety         '(C40 H64 Ag8 N16 O18)n'
_symmetry_cell_setting           triclinic
_symmetry_space_group_name_H-M   'P 1'
_symmetry_Int_Tables_number      1
_space_group_name_Hall           'P 1'
loop_
_symmetry_equiv_pos_site_id
_symmetry_equiv_pos_as_xyz
1 x,y,z
_cell_length_a                   6.366(3)
_cell_length_b                   11.736(7)
_cell_length_c                   21.998(12)
_cell_angle_alpha                90
_cell_angle_beta                 97.60
_cell_angle_gamma                90
_cell_volume                     1629.06
loop_
_atom_site_label
_atom_site_type_symbol
_atom_site_fract_x
_atom_site_fract_y
_atom_site_fract_z
Ag1 Ag 0.01103(10) 0.61882(5) 0.70629(3)
N2 N 0.2428(7) 0.4457(4) 0.8832(2)
N3 N 0.0228(7) 0.5003(4) 0.7889(2)
N4 N 0.0268(7) 0.3020(4) 0.8244(2)
C1 C 0.0629(9) 0.4706(5) 0.9170(3)
H1 H 0.0709 0.5488 0.9298
H2 H 0.0728 0.4239 0.9530
C2 C 0.2297(9) 0.3247(5) 0.8642(3)
H3 H 0.3476 0.3057 0.8431
H4 H 0.2363 0.2774 0.9001
C4 C 0.2257(9) 0.5187(5) 0.8288(3)
H7 H 0.2357 0.5970 0.8415
H8 H 0.3418 0.5027 0.8064
C5 C 0.0097(9) 0.3786(5) 0.7704(3)
H10 H 0.1210 0.3616 0.7464
O1 O 0.6689(9) 0.1807(5) 0.4923(3)
O2 O 0.4112(9) 0.1814(4) 0.5510(3)
O3 O 0.4780(10) 0.4012(5) 0.5803(4)
O4 O 0.2389(12) 0.5197(5) 0.6485(3)
O5 O 0.5269(13) 0.6033(5) 0.6987(3)
C7 C 0.5577(11) 0.2284(6) 0.5270(3)
C8 C 0.6111(13) 0.3500(7) 0.5417(4)
H13 H 0.6912 0.4463 0.6448
H14 H 0.6353 0.5398 0.5956
C9 C 0.5751(14) 0.4821(7) 0.6190(4)
H15 H 0.6030 0.3921 0.5039
H16 H 0.7551 0.3548 0.5615
C10 C 0.4369(17) 0.5383(7) 0.6594(4)
Ag3 Ag 0.58354(7) 0.48651(4) 0.94302(2)
Ag5 Ag 0.58354(7) 0.01349(4) 0.44302(2)
Ag6 Ag 0.41646(7) 0.98651(4) 0.55698(2)
N1 N 0.8576(7) 0.4510(4) 0.8794(2)
C3 C 0.8504(9) 0.3302(5) 0.8600(3)
H5 H 0.8591 0.2821 0.8955
H6 H 0.7172 0.3158 0.8353
H9 H 0.8767 0.3652 0.7454
C6 C 0.8458(9) 0.5235(5) 0.8242(3)
H11 H 0.7135 0.5098 0.7988
H12 H 0.8498 0.6022 0.8362
O6 O 0.6689(9) 0.3193(5) 0.9923(3)
N5 N 0.9732(7) 0.8020(4) 0.6756(2)
Ag4 Ag 0.98897(10) 0.11882(5) 0.79371(3)
O7 O 0.5888(9) 0.6814(4) 0.9490(3)
C6_2 C 0.1542(9) 0.0235(5) 0.6758(3)
H11_2 H 0.2865 0.0098 0.7012
H12_2 H 0.1502 0.1022 0.6638
N1_2 N 0.1424(7) 0.9510(4) 0.6206(2)
C3_2 C 0.1496(9) 0.8302(5) 0.6400(3)
H5_2 H 0.1409 0.7821 0.6045
H6_2 H 0.2828 0.8158 0.6647
H9_2 H 0.1233 0.8652 0.7546
O6_2 O 0.3311(9) 0.8193(5) 0.5077(3)
N6 N 0.7572(7) 0.9457(4) 0.6168(2)
N3_2 N 0.9772(7) 0.0003(4) 0.7111(2)
H1_2 H 0.9291 0.0488 0.5702
C4_2 C 0.7743(9) 0.0187(5) 0.6712(3)
H7_2 H 0.7643 0.0970 0.6585
H8_2 H 0.6582 0.0027 0.6936
O4_2 O 0.7611(12) 0.0197(5) 0.8515(3)
O5_2 O 0.4731(13) 0.1033(5) 0.8013(3)
H14_2 H 0.3647 0.0398 0.9044
C10_2 C 0.5631(17) 0.0383(7) 0.8406(4)
O1_2 O 0.3311(9) 0.6807(5) 0.0077(3)
Ag5_2 Ag 0.41646(7) 0.51349(4) 0.05698(2)
C1_2 C 0.9371(9) 0.9706(5) 0.5830(3)
H2_2 H 0.9272 0.9239 0.5470
C2_2 C 0.7703(9) 0.8247(5) 0.6358(3)
H3_2 H 0.6524 0.8057 0.6569
H4_2 H 0.7637 0.7774 0.5999
C5_2 C 0.9903(9) 0.8786(5) 0.7296(3)
H10_2 H 0.8790 0.8616 0.7536
O3_2 O 0.5220(10) 0.9012(5) 0.9197(4)
C7_2 C 0.4423(11) 0.7284(6) 0.9730(3)
C8_2 C 0.3889(13) 0.8500(7) 0.9583(4)
H13_2 H 0.3088 0.9463 0.8552
C9_2 C 0.4249(14) 0.9821(7) 0.8810(4)
H15_2 H 0.3970 0.8921 0.9961
H16_2 H 0.2449 0.8548 0.9385
N1_3 N 0.1424(7) 0.5490(4) 0.1206(2)
C3_3 C 0.1496(9) 0.6698(5) 0.1400(3)
H5_3 H 0.1409 0.7179 0.1045
H6_3 H 0.2828 0.6842 0.1647
H9_3 H 0.1233 0.6348 0.2546
C6_3 C 0.1542(9) 0.4765(5) 0.1758(3)
H11_3 H 0.2865 0.4902 0.2012
H12_3 H 0.1502 0.3978 0.1638
N5_2 N 0.0268(7) 0.1980(4) 0.3244(2)
Ag4_2 Ag 0.01103(10) 0.88118(5) 0.20629(3)
N6_2 N 0.7572(7) 0.5543(4) 0.1168(2)
O7_2 O 0.4112(9) 0.3186(4) 0.0510(3)
Ag1_2 Ag 0.98897(10) 0.38118(5) 0.29371(3)
N3_3 N 0.9772(7) 0.4997(4) 0.2111(2)
N4_2 N 0.9732(7) 0.6980(4) 0.1756(2)
C1_3 C 0.9371(9) 0.5294(5) 0.0830(3)
H1_3 H 0.9291 0.4512 0.0702
H2_3 H 0.9272 0.5761 0.0470
C2_3 C 0.7703(9) 0.6753(5) 0.1358(3)
H3_3 H 0.6524 0.6943 0.1569
H4_3 H 0.7637 0.7226 0.0999
C4_3 C 0.7743(9) 0.4813(5) 0.1712(3)
H7_3 H 0.7643 0.4030 0.1585
H8_3 H 0.6582 0.4973 0.1936
C5_3 C 0.9903(9) 0.6214(5) 0.2296(3)
H10_3 H 0.8790 0.6384 0.2536
O2_2 O 0.5888(9) 0.8186(4) 0.4490(3)
O3_3 O 0.5220(10) 0.5988(5) 0.4197(4)
O4_3 O 0.7611(12) 0.4803(5) 0.3515(3)
O5_3 O 0.4731(13) 0.3967(5) 0.3013(3)
C7_3 C 0.4423(11) 0.7716(6) 0.4730(3)
C8_3 C 0.3889(13) 0.6500(7) 0.4583(4)
H13_3 H 0.3088 0.5537 0.3552
H14_3 H 0.3647 0.4602 0.4044
C9_3 C 0.4249(14) 0.5179(7) 0.3810(4)
H15_3 H 0.3970 0.6079 0.4961
H16_3 H 0.2449 0.6452 0.4385
C10_3 C 0.5631(17) 0.4617(7) 0.3406(4)
N2_2 N 0.2428(7) 0.0543(4) 0.3832(2)
C1_4 C 0.0629(9) 0.0294(5) 0.4170(3)
H2_4 H 0.0728 0.0761 0.4530
C2_4 C 0.2297(9) 0.1753(5) 0.3642(3)
H3_4 H 0.3476 0.1943 0.3431
H4_4 H 0.2363 0.2226 0.4001
C5_4 C 0.0097(9) 0.1214(5) 0.2704(3)
H10_4 H 0.1210 0.1384 0.2464
O3_4 O 0.4780(10) 0.0988(5) 0.0803(4)
C7_4 C 0.5577(11) 0.2716(6) 0.0270(3)
C8_4 C 0.6111(13) 0.1500(7) 0.0417(4)
H13_4 H 0.6912 0.0537 0.1448
C9_4 C 0.5751(14) 0.0179(7) 0.1190(4)
H15_4 H 0.6030 0.1079 0.0039
H16_4 H 0.7551 0.1452 0.0615
N3_4 N 0.0228(7) 0.9997(4) 0.2889(2)
H1_4 H 0.0709 0.9512 0.4298
C4_4 C 0.2257(9) 0.9813(5) 0.3288(3)
H7_4 H 0.2357 0.9030 0.3415
H8_4 H 0.3418 0.9973 0.3064
O4_4 O 0.2389(12) 0.9803(5) 0.1485(3)
O5_4 O 0.5269(13) 0.8967(5) 0.1987(3)
H14_4 H 0.6353 0.9602 0.0956
C10_4 C 0.4369(17) 0.9617(7) 0.1594(4)
N1_4 N 0.8576(7) 0.0490(4) 0.3794(2)
C3_4 C 0.8504(9) 0.1698(5) 0.3600(3)
H5_4 H 0.8591 0.2179 0.3955
H6_4 H 0.7172 0.1842 0.3353
H9_4 H 0.8767 0.1348 0.2454
C6_4 C 0.8458(9) 0.9765(5) 0.3242(3)
H11_4 H 0.7135 0.9902 0.2988
H12_4 H 0.8498 0.8978 0.3362
loop_
_geom_bond_atom_site_label_1
_geom_bond_atom_site_label_2
_geom_bond_site_symmetry_1
_geom_bond_site_symmetry_2
Ag1 N3 1_555 1_555
N2 C1 1_555 1_555
N3 C4 1_555 1_555
N4 C2 1_555 1_555
C1 H1 1_555 1_555
H2 C1 1_555 1_555
C2 N2 1_555 1_555
H3 C2 1_555 1_555
H4 C2 1_555 1_555
C4 N2 1_555 1_555
H7 C4 1_555 1_555
H8 C4 1_555 1_555
C5 N3 1_555 1_555
H10 C5 1_555 1_555
O1 C7 1_555 1_555
O2 C7 1_555 1_555
O3 C8 1_555 1_555
O4 Ag1 1_555 1_555
O5 C10 1_555 1_555
C7 C8 1_555 1_555
C8 H15 1_555 1_555
H13 C9 1_555 1_555
H14 C9 1_555 1_555
C9 O3 1_555 1_555
H16 C8 1_555 1_555
C10 O4 1_555 1_555
Ag3 N2 1_555 1_555
Ag5 O1 1_555 1_555
N4 C5 1_555 1_555
C9 C10 1_555 1_555
Ag3 N1 1_555 1_555
C3 N1 1_555 1_555
H5 C3 1_555 1_555
H6 C3 1_555 1_555
C6 N1 1_555 1_555
H11 C6 1_555 1_555
H12 C6 1_555 1_555
O6 Ag3 1_555 1_555
O7 Ag3 1_555 1_555
H11_2 C6_2 1_555 1_555
H12_2 C6_2 1_555 1_555
Ag6 N1_2 1_555 1_555
C3_2 N1_2 1_555 1_555
H5_2 C3_2 1_555 1_555
H6_2 C3_2 1_555 1_555
O6_2 Ag6 1_555 1_555
N6 Ag6 1_555 1_555
Ag4 N3_2 1_555 1_555
N3_2 C4_2 1_555 1_555
H7_2 C4_2 1_555 1_555
H8_2 C4_2 1_555 1_555
O4_2 Ag4 1_555 1_555
O5_2 C10_2 1_555 1_555
C10_2 O4_2 1_555 1_555
Ag5_2 O1_2 1_555 1_555
N6 C1_2 1_555 1_555
N5 C2_2 1_555 1_555
H2_2 C1_2 1_555 1_555
C2_2 N6 1_555 1_555
H3_2 C2_2 1_555 1_555
H4_2 C2_2 1_555 1_555
H10_2 C5_2 1_555 1_555
O7 C7_2 1_555 1_555
O3_2 C8_2 1_555 1_555
C7_2 C8_2 1_555 1_555
C8_2 H15_2 1_555 1_555
H13_2 C9_2 1_555 1_555
C9_2 O3_2 1_555 1_555
H16_2 C8_2 1_555 1_555
N5 C5_2 1_555 1_555
Ag5_2 N1_3 1_555 1_555
C3_3 N1_3 1_555 1_555
H5_3 C3_3 1_555 1_555
H6_3 C3_3 1_555 1_555
C6_3 N1_3 1_555 1_555
H11_3 C6_3 1_555 1_555
H12_3 C6_3 1_555 1_555
N6_2 Ag5_2 1_555 1_555
O7_2 Ag5_2 1_555 1_555
Ag1_2 N3_3 1_555 1_555
N6_2 C1_3 1_555 1_555
N3_3 C4_3 1_555 1_555
N4_2 C2_3 1_555 1_555
C1_3 H1_3 1_555 1_555
H2_3 C1_3 1_555 1_555
C2_3 N6_2 1_555 1_555
H3_3 C2_3 1_555 1_555
H4_3 C2_3 1_555 1_555
C4_3 N6_2 1_555 1_555
H7_3 C4_3 1_555 1_555
H8_3 C4_3 1_555 1_555
C5_3 N3_3 1_555 1_555
H10_3 C5_3 1_555 1_555
O6_2 C7_3 1_555 1_555
O2_2 C7_3 1_555 1_555
O3_3 C8_3 1_555 1_555
O4_3 Ag1_2 1_555 1_555
O5_3 C10_3 1_555 1_555
C7_3 C8_3 1_555 1_555
C8_3 H15_3 1_555 1_555
H13_3 C9_3 1_555 1_555
H14_3 C9_3 1_555 1_555
C9_3 O3_3 1_555 1_555
H16_3 C8_3 1_555 1_555
C10_3 O4_3 1_555 1_555
N4_2 C5_3 1_555 1_555
C9_3 C10_3 1_555 1_555
N2_2 C1_4 1_555 1_555
N5_2 C2_4 1_555 1_555
H2_4 C1_4 1_555 1_555
C2_4 N2_2 1_555 1_555
H3_4 C2_4 1_555 1_555
H4_4 C2_4 1_555 1_555
H10_4 C5_4 1_555 1_555
O7_2 C7_4 1_555 1_555
O3_4 C8_4 1_555 1_555
C7_4 C8_4 1_555 1_555
C8_4 H15_4 1_555 1_555
H13_4 C9_4 1_555 1_555
C9_4 O3_4 1_555 1_555
H16_4 C8_4 1_555 1_555
Ag5 N2_2 1_555 1_555
N5_2 C5_4 1_555 1_555
Ag4_2 N3_4 1_555 1_555
N3_4 C4_4 1_555 1_555
H7_4 C4_4 1_555 1_555
H8_4 C4_4 1_555 1_555
O4_4 Ag4_2 1_555 1_555
O5_4 C10_4 1_555 1_555
C10_4 O4_4 1_555 1_555
Ag5 N1_4 1_555 1_555
C3_4 N1_4 1_555 1_555
H5_4 C3_4 1_555 1_555
H6_4 C3_4 1_555 1_555
H11_4 C6_4 1_555 1_555
H12_4 C6_4 1_555 1_555

#END
