
###############################################################################
#
# This file contains modified crystal structure data generated from the
# MOF subset of the Cambridge Structural Database (CSD) v543 
# hosted by the Cambridge Crystallographic Data Centre (CCDC).
#
# This work is licensed under the Creative Commons
# Attribution-NonCommercial-ShareAlike 4.0 International License.
# To view a copy of this license, visit
# http://creativecommons.org/licenses/by-nc-sa/4.0/
# or send a letter to
# Creative Commons, PO Box 1866, Mountain View, CA 94042, USA.
#
# CIF created using the CSD Python API on 29 September 2022
# The structure has been converted into the P1 space group
# The structure has a 3D framework
# The original CSD entry BAHMAZ is in the monoclinic crystal system
# The framework has been calculated to contain at least 10.0% void space
# The void calculation uses a probe of radius 1.32A, grid spacing 0.4
#
###############################################################################

data_BAHMAZ
_chemical_formula_moiety         '(C112 H128 Ag16 N32 O28)n'
_symmetry_cell_setting           triclinic
_symmetry_space_group_name_H-M   'P 1'
_symmetry_Int_Tables_number      1
_space_group_name_Hall           'P 1'
loop_
_symmetry_equiv_pos_site_id
_symmetry_equiv_pos_as_xyz
1 x,y,z
_cell_length_a                   12.944(4)
_cell_length_b                   11.998(7)
_cell_length_c                   23.491(14)
_cell_angle_alpha                90
_cell_angle_beta                 95.49
_cell_angle_gamma                90
_cell_volume                     3631.47
loop_
_atom_site_label
_atom_site_type_symbol
_atom_site_fract_x
_atom_site_fract_y
_atom_site_fract_z
Ag4 Ag 0.00554(7) 0.30924(7) 0.24469(3)
N6 N 0.0025(5) 0.4537(6) 0.3086(3)
N7 N 0.1061(6) 0.5460(6) 0.3879(3)
N8 N 0.0008(6) 0.6565(6) 0.3149(3)
C8 C 0.0169(7) 0.5418(8) 0.4210(3)
H15 H 0.0204 0.4754 0.4439
H16 H 0.0198 0.6046 0.4464
C10 C 0.0990(7) 0.6512(8) 0.3550(4)
H19 H 0.1579 0.6572 0.3333
H20 H 0.1006 0.7131 0.3810
C11 C 0.1004(8) 0.4508(7) 0.3476(4)
H21 H 0.1588 0.4530 0.3254
H22 H 0.1033 0.3823 0.3689
H24 H 0.0574 0.5628 0.2544
Ag6 Ag 0.27000(6) 0.52693(6) 0.44203(3)
Ag8 Ag 0.22866(6) 0.04412(6) 0.05635(3)
Ag11 Ag 0.73000(6) 0.02693(6) 0.05797(3)
Ag1 Ag 0.50482(6) 0.34058(5) 0.23053(3)
Ag2 Ag 0.77134(6) 0.54412(6) 0.44365(3)
N1 N 0.6030(5) 0.5536(5) 0.3826(3)
N2 N 0.5011(5) 0.4716(5) 0.3002(3)
N3 N 0.4153(5) 0.5510(6) 0.3783(3)
N4 N 0.4991(5) 0.6754(5) 0.3153(3)
C1 C 0.5992(7) 0.4640(7) 0.3384(3)
H1 H 0.6034 0.3924 0.3566
H2 H 0.6574 0.4717 0.3163
C2 C 0.5136(6) 0.5425(7) 0.4159(3)
H3 H 0.5167 0.4718 0.4352
H4 H 0.5160 0.6002 0.4443
C3 C 0.5973(7) 0.6624(7) 0.3529(3)
H5 H 0.6549 0.6685 0.3302
H6 H 0.6029 0.7212 0.3807
C4 C 0.4101(6) 0.6610(7) 0.3502(3)
H7 H 0.3460 0.6673 0.3262
H8 H 0.4116 0.7184 0.3787
C5 C 0.4125(7) 0.4631(7) 0.3343(3)
H9 H 0.4136 0.3915 0.3526
H10 H 0.3492 0.4689 0.3096
C6 C 0.4961(8) 0.5827(6) 0.2725(3)
H11 H 0.4329 0.5875 0.2476
H12 H 0.5532 0.5908 0.2496
N5 N 0.9154(6) 0.5442(6) 0.3838(3)
C7 C 0.9124(7) 0.4505(7) 0.3436(3)
H13 H 0.8488 0.4525 0.3189
H14 H 0.9141 0.3820 0.3647
C9 C 0.9123(7) 0.6480(7) 0.3498(4)
H17 H 0.9137 0.7107 0.3752
H18 H 0.8488 0.6512 0.3251
C12 C 0.9986(8) 0.5594(7) 0.2763(3)
H23 H 0.9368 0.5617 0.2502
O1 O 0.2386(6) 0.8498(5) 0.0562(3)
C13 C 0.3161(8) 0.8054(8) 0.0361(4)
C14 C 0.3615(7) 0.7005(7) 0.0643(3)
C15 C 0.4491(7) 0.6531(8) 0.0447(4)
H25 H 0.4822 0.6901 0.0150
C16 C 0.4886(8) 0.5542(8) 0.0669(4)
H26 H 0.5508 0.5235 0.0541
C17 C 0.4369(8) 0.5008(8) 0.1091(4)
H27 H 0.4613 0.4299 0.1237
C18 C 0.3507(7) 0.5470(7) 0.1293(3)
C19 C 0.3106(7) 0.6492(7) 0.1070(3)
H28 H 0.2503 0.6821 0.1209
C20 C 0.2959(7) 0.4865(7) 0.1747(4)
O3 O 0.2260(6) 0.5375(6) 0.1973(3)
O4 O 0.3240(6) 0.3898(6) 0.1885(3)
O6 O 0.7064(7) 0.8393(6) 0.0610(3)
C21 C 0.7439(8) 0.7687(8) 0.0321(4)
C22 C 0.7478(8) 0.6500(8) 0.0547(3)
C23 C 0.7688(8) 0.5620(8) 0.0196(4)
C24 C 0.7748(9) 0.4543(9) 0.0406(4)
H30 H 0.7915 0.3938 0.0163
C25 C 0.7574(9) 0.4339(8) 0.0963(4)
H31 H 0.7602 0.3591 0.1109
C26 C 0.7338(7) 0.5211(7) 0.1327(4)
C27 C 0.7311(7) 0.6296(7) 0.1112(4)
H32 H 0.7188 0.6909 0.1360
C28 C 0.7135(7) 0.4949(8) 0.1937(4)
O7 O 0.7294(6) 0.5712(6) 0.2298(3)
O8 O 0.6783(6) 0.4010(5) 0.2032(3)
N9 N 0.5009(5) 0.1754(5) 0.1847(3)
N11 N 0.9992(6) 0.1565(6) 0.1851(3)
Ag5 Ag 0.49518(6) 0.84058(5) 0.26947(3)
Ag7 Ag 0.99446(7) 0.80924(7) 0.25531(3)
O9 O 0.7614(6) 0.3498(5) 0.4438(3)
O10 O 0.3606(5) 0.6566(6) 0.4950(3)
O11 O 0.7783(7) 0.7153(6) 0.4848(3)
O12 O 0.2936(7) 0.3393(6) 0.4390(3)
O2 O 0.3606(5) 0.8434(6) 0.9950(3)
O5 O 0.7783(7) 0.7847(6) 0.9848(3)
H29 H 0.7806 0.5767 0.9806
Ag9 Ag 0.27000(6) 0.97307(6) 0.94203(3)
Ag10 Ag 0.77134(6) 0.95588(6) 0.94365(3)
N1_2 N 0.3970(5) 0.0536(5) 0.1174(3)
N3_2 N 0.5847(5) 0.0510(6) 0.1217(3)
C2_2 C 0.4864(6) 0.0425(7) 0.0841(3)
H4_2 H 0.4840 0.1002 0.0557
C3_2 C 0.4027(7) 0.1624(7) 0.1471(3)
H5_2 H 0.3451 0.1685 0.1698
H6_2 H 0.3971 0.2212 0.1193
C4_2 C 0.5899(6) 0.1610(7) 0.1498(3)
H7_2 H 0.6540 0.1673 0.1738
H8_2 H 0.5884 0.2184 0.1213
C6_2 C 0.5039(8) 0.0827(6) 0.2275(3)
H11_2 H 0.5671 0.0875 0.2524
H12_2 H 0.4468 0.0908 0.2504
N5_2 N 0.0846(6) 0.0442(6) 0.1162(3)
C9_2 C 0.0877(7) 0.1480(7) 0.1502(4)
H17_2 H 0.0863 0.2107 0.1248
H18_2 H 0.1512 0.1512 0.1749
C12_2 C 0.0014(8) 0.0594(7) 0.2237(3)
H23_2 H 0.0632 0.0617 0.2498
O2_2 O 0.6394(5) 0.3434(6) 0.5050(3)
C13_2 C 0.6839(8) 0.3054(8) 0.4639(4)
C14_2 C 0.6385(7) 0.2005(7) 0.4357(3)
C15_2 C 0.5509(7) 0.1531(8) 0.4553(4)
H25_2 H 0.5178 0.1901 0.4850
C16_2 C 0.5114(8) 0.0542(8) 0.4331(4)
H26_2 H 0.4492 0.0235 0.4459
C17_2 C 0.5631(8) 0.0008(8) 0.3909(4)
C18_2 C 0.6493(7) 0.0470(7) 0.3707(3)
C19_2 C 0.6894(7) 0.1492(7) 0.3930(3)
H28_2 H 0.7497 0.1821 0.3791
O3_2 O 0.7740(6) 0.0375(6) 0.3027(3)
O5_2 O 0.2217(7) 0.2847(6) 0.5152(3)
C21_2 C 0.2561(8) 0.2687(8) 0.4679(4)
C22_2 C 0.2522(8) 0.1500(8) 0.4453(3)
C23_2 C 0.2312(8) 0.0620(8) 0.4804(4)
H29_2 H 0.2194 0.0767 0.5194
C26_2 C 0.2662(7) 0.0211(7) 0.3673(4)
C27_2 C 0.2689(7) 0.1296(7) 0.3888(4)
H32_2 H 0.2812 0.1909 0.3640
O7_2 O 0.2706(6) 0.0712(6) 0.2702(3)
N10 N 0.8939(6) 0.0460(6) 0.1121(3)
O10_2 O 0.6394(5) 0.1566(6) 0.0050(3)
O11_2 O 0.2217(7) 0.2153(6) 0.0152(3)
Ag9_2 Ag 0.73000(6) 0.47307(6) 0.55797(3)
Ag10_2 Ag 0.22866(6) 0.45588(6) 0.55635(3)
N2_2 N 0.4989(5) 0.9716(5) 0.1998(3)
C1_2 C 0.4008(7) 0.9640(7) 0.1616(3)
H1_2 H 0.3966 0.8924 0.1434
H2_2 H 0.3426 0.9717 0.1837
H3_2 H 0.4833 0.9718 0.0648
C5_2 C 0.5875(7) 0.9631(7) 0.1657(3)
H9_2 H 0.5864 0.8915 0.1474
H10_2 H 0.6508 0.9689 0.1904
C7_2 C 0.0876(7) 0.9505(7) 0.1564(3)
H13_2 H 0.1512 0.9525 0.1811
H14_2 H 0.0859 0.8820 0.1353
H27_2 H 0.5387 0.9299 0.3763
C20_2 C 0.7041(7) 0.9865(7) 0.3253(4)
O4_2 O 0.6760(6) 0.8898(6) 0.3115(3)
C24_2 C 0.2252(9) 0.9543(9) 0.4594(4)
H30_2 H 0.2085 0.8938 0.4837
C25_2 C 0.2426(9) 0.9339(8) 0.4037(4)
H31_2 H 0.2398 0.8591 0.3891
C28_2 C 0.2865(7) 0.9949(8) 0.3063(4)
O8_2 O 0.3217(6) 0.9010(5) 0.2968(3)
C8_2 C 0.9831(7) 0.0418(8) 0.0790(3)
H16_2 H 0.9802 0.1046 0.0536
C10_2 C 0.9010(7) 0.1512(8) 0.1450(4)
H19_2 H 0.8421 0.1572 0.1667
H20_2 H 0.8994 0.2131 0.1190
H24_2 H 0.9426 0.0628 0.2456
N6_2 N 0.9975(5) 0.9537(6) 0.1914(3)
H15_2 H 0.9796 0.9754 0.0561
C11_2 C 0.8996(8) 0.9508(7) 0.1524(4)
H21_2 H 0.8412 0.9530 0.1746
H22_2 H 0.8967 0.8823 0.1311
H29_3 H 0.2194 0.4233 0.0194
Ag1_2 Ag 0.49518(6) 0.65942(5) 0.76947(3)
N1_3 N 0.3970(5) 0.4464(5) 0.6174(3)
N2_3 N 0.4989(5) 0.5284(5) 0.6998(3)
N3_3 N 0.5847(5) 0.4490(6) 0.6217(3)
N4_2 N 0.5009(5) 0.3246(5) 0.6847(3)
C1_3 C 0.4008(7) 0.5360(7) 0.6616(3)
H1_3 H 0.3966 0.6076 0.6434
H2_3 H 0.3426 0.5283 0.6837
C2_3 C 0.4864(6) 0.4575(7) 0.5841(3)
H3_3 H 0.4833 0.5282 0.5648
H4_3 H 0.4840 0.3998 0.5557
C3_3 C 0.4027(7) 0.3376(7) 0.6471(3)
H5_3 H 0.3451 0.3315 0.6698
H6_3 H 0.3971 0.2788 0.6193
C4_3 C 0.5899(6) 0.3390(7) 0.6498(3)
H7_3 H 0.6540 0.3327 0.6738
H8_3 H 0.5884 0.2816 0.6213
C5_3 C 0.5875(7) 0.5369(7) 0.6657(3)
H9_3 H 0.5864 0.6085 0.6474
H10_3 H 0.6508 0.5311 0.6904
C6_3 C 0.5039(8) 0.4173(6) 0.7275(3)
H11_3 H 0.5671 0.4125 0.7524
H12_3 H 0.4468 0.4092 0.7504
N5_3 N 0.0846(6) 0.4558(6) 0.6162(3)
C7_3 C 0.0876(7) 0.5495(7) 0.6564(3)
H13_3 H 0.1512 0.5475 0.6811
H14_3 H 0.0859 0.6180 0.6353
C9_3 C 0.0877(7) 0.3520(7) 0.6502(4)
H17_3 H 0.0863 0.2893 0.6248
H18_3 H 0.1512 0.3488 0.6749
C12_3 C 0.0014(8) 0.4406(7) 0.7237(3)
H23_3 H 0.0632 0.4383 0.7498
O1_2 O 0.7614(6) 0.1502(5) 0.9438(3)
C13_3 C 0.6839(8) 0.1946(8) 0.9639(4)
C14_3 C 0.6385(7) 0.2995(7) 0.9357(3)
C15_3 C 0.5509(7) 0.3469(8) 0.9553(4)
H25_3 H 0.5178 0.3099 0.9850
C16_3 C 0.5114(8) 0.4458(8) 0.9331(4)
H26_3 H 0.4492 0.4765 0.9459
C17_3 C 0.5631(8) 0.4992(8) 0.8909(4)
H27_3 H 0.5387 0.5701 0.8763
C18_3 C 0.6493(7) 0.4530(7) 0.8707(3)
C19_3 C 0.6894(7) 0.3508(7) 0.8930(3)
H28_3 H 0.7497 0.3179 0.8791
C20_3 C 0.7041(7) 0.5135(7) 0.8253(4)
O3_3 O 0.7740(6) 0.4625(6) 0.8027(3)
O4_3 O 0.6760(6) 0.6102(6) 0.8115(3)
O6_2 O 0.2936(7) 0.1607(6) 0.9390(3)
C21_3 C 0.2561(8) 0.2313(8) 0.9679(4)
C22_3 C 0.2522(8) 0.3500(8) 0.9453(3)
C23_3 C 0.2312(8) 0.4380(8) 0.9804(4)
C24_3 C 0.2252(9) 0.5457(9) 0.9594(4)
H30_3 H 0.2085 0.6062 0.9837
C25_3 C 0.2426(9) 0.5661(8) 0.9037(4)
H31_3 H 0.2398 0.6409 0.8891
C26_3 C 0.2662(7) 0.4789(7) 0.8673(4)
C27_3 C 0.2689(7) 0.3704(7) 0.8888(4)
H32_3 H 0.2812 0.3091 0.8640
C28_3 C 0.2865(7) 0.5051(8) 0.8063(4)
O7_3 O 0.2706(6) 0.4288(6) 0.7702(3)
O8_3 O 0.3217(6) 0.5990(5) 0.7968(3)
N9_2 N 0.4991(5) 0.8246(5) 0.8153(3)
N10_2 N 0.8939(6) 0.4540(6) 0.6121(3)
N11_2 N 0.0008(6) 0.8435(6) 0.8149(3)
Ag5_2 Ag 0.50482(6) 0.15942(5) 0.73053(3)
Ag7_2 Ag 0.00554(7) 0.19076(7) 0.74469(3)
O9_2 O 0.2386(6) 0.6502(5) 0.5562(3)
O12_2 O 0.7064(7) 0.6607(6) 0.5610(3)
Ag4_2 Ag 0.99446(7) 0.69076(7) 0.75531(3)
N6_3 N 0.9975(5) 0.5463(6) 0.6914(3)
N8_2 N 0.9992(6) 0.3435(6) 0.6851(3)
C8_3 C 0.9831(7) 0.4582(8) 0.5790(3)
H15_3 H 0.9796 0.5246 0.5561
H16_3 H 0.9802 0.3954 0.5536
C10_3 C 0.9010(7) 0.3488(8) 0.6450(4)
H19_3 H 0.8421 0.3428 0.6667
H20_3 H 0.8994 0.2869 0.6190
C11_3 C 0.8996(8) 0.5492(7) 0.6524(4)
H21_3 H 0.8412 0.5470 0.6746
H22_3 H 0.8967 0.6177 0.6311
H24_3 H 0.9426 0.4372 0.7456
N6_4 N 0.0025(5) 0.0463(6) 0.8086(3)
H15_4 H 0.0204 0.0246 0.9439
C11_4 C 0.1004(8) 0.0492(7) 0.8476(4)
H21_4 H 0.1588 0.0470 0.8254
H22_4 H 0.1033 0.1177 0.8689
N7_2 N 0.1061(6) 0.9540(6) 0.8879(3)
C8_4 C 0.0169(7) 0.9582(8) 0.9210(3)
H16_4 H 0.0198 0.8954 0.9464
C10_4 C 0.0990(7) 0.8488(8) 0.8550(4)
H19_4 H 0.1579 0.8428 0.8333
H20_4 H 0.1006 0.7869 0.8810
H24_4 H 0.0574 0.9372 0.7544
N2_4 N 0.5011(5) 0.0284(5) 0.8002(3)
C1_4 C 0.5992(7) 0.0360(7) 0.8384(3)
H1_4 H 0.6034 0.1076 0.8566
H2_4 H 0.6574 0.0283 0.8163
H3_4 H 0.5167 0.0282 0.9352
C5_4 C 0.4125(7) 0.0369(7) 0.8343(3)
H9_4 H 0.4136 0.1085 0.8526
H10_4 H 0.3492 0.0311 0.8096
C7_4 C 0.9124(7) 0.0495(7) 0.8436(3)
H13_4 H 0.8488 0.0475 0.8189
H14_4 H 0.9141 0.1180 0.8647
H27_4 H 0.4613 0.0701 0.6237
C20_4 C 0.2959(7) 0.0135(7) 0.6747(4)
O4_4 O 0.3240(6) 0.1102(6) 0.6885(3)
C24_4 C 0.7748(9) 0.0457(9) 0.5406(4)
H30_4 H 0.7915 0.1062 0.5163
C25_4 C 0.7574(9) 0.0661(8) 0.5963(4)
H31_4 H 0.7602 0.1409 0.6109
C28_4 C 0.7135(7) 0.0051(8) 0.6937(4)
O8_4 O 0.6783(6) 0.0990(5) 0.7032(3)
N1_4 N 0.6030(5) 0.9464(5) 0.8826(3)
N3_4 N 0.4153(5) 0.9490(6) 0.8783(3)
C2_4 C 0.5136(6) 0.9575(7) 0.9159(3)
H4_4 H 0.5160 0.8998 0.9443
C3_4 C 0.5973(7) 0.8376(7) 0.8529(3)
H5_4 H 0.6549 0.8315 0.8302
H6_4 H 0.6029 0.7788 0.8807
C4_4 C 0.4101(6) 0.8390(7) 0.8502(3)
H7_4 H 0.3460 0.8327 0.8262
H8_4 H 0.4116 0.7816 0.8787
C6_4 C 0.4961(8) 0.9173(6) 0.7725(3)
H11_4 H 0.4329 0.9125 0.7476
H12_4 H 0.5532 0.9092 0.7496
N5_4 N 0.9154(6) 0.9558(6) 0.8838(3)
C9_4 C 0.9123(7) 0.8520(7) 0.8498(4)
H17_4 H 0.9137 0.7893 0.8752
H18_4 H 0.8488 0.8488 0.8251
C12_4 C 0.9986(8) 0.9406(7) 0.7763(3)
H23_4 H 0.9368 0.9383 0.7502
C13_4 C 0.3161(8) 0.6946(8) 0.5361(4)
C14_4 C 0.3615(7) 0.7995(7) 0.5643(3)
C15_4 C 0.4491(7) 0.8469(8) 0.5447(4)
H25_4 H 0.4822 0.8099 0.5150
C16_4 C 0.4886(8) 0.9458(8) 0.5669(4)
H26_4 H 0.5508 0.9765 0.5541
C17_4 C 0.4369(8) 0.9992(8) 0.6091(4)
C18_4 C 0.3507(7) 0.9530(7) 0.6293(3)
C19_4 C 0.3106(7) 0.8508(7) 0.6070(3)
H28_4 H 0.2503 0.8179 0.6209
O3_4 O 0.2260(6) 0.9625(6) 0.6973(3)
C21_4 C 0.7439(8) 0.7313(8) 0.5321(4)
C22_4 C 0.7478(8) 0.8500(8) 0.5547(3)
C23_4 C 0.7688(8) 0.9380(8) 0.5196(4)
H29_4 H 0.7806 0.9233 0.4806
C26_4 C 0.7338(7) 0.9789(7) 0.6327(4)
C27_4 C 0.7311(7) 0.8704(7) 0.6112(4)
H32_4 H 0.7188 0.8091 0.6360
O7_4 O 0.7294(6) 0.9288(6) 0.7298(3)
loop_
_geom_bond_atom_site_label_1
_geom_bond_atom_site_label_2
_geom_bond_site_symmetry_1
_geom_bond_site_symmetry_2
Ag4 N6 1_555 1_555
N7 C8 1_555 1_555
H15 C8 1_555 1_555
H16 C8 1_555 1_555
C10 N7 1_555 1_555
H19 C10 1_555 1_555
H20 C10 1_555 1_555
C11 N6 1_555 1_555
H21 C11 1_555 1_555
H22 C11 1_555 1_555
Ag6 N7 1_555 1_555
N7 C11 1_555 1_555
N8 C10 1_555 1_555
Ag1 N2 1_555 1_555
Ag2 N1 1_555 1_555
Ag6 N3 1_555 1_555
N1 C1 1_555 1_555
N2 C1 1_555 1_555
N3 C2 1_555 1_555
N4 C3 1_555 1_555
C1 H1 1_555 1_555
H2 C1 1_555 1_555
C2 N1 1_555 1_555
H3 C2 1_555 1_555
H4 C2 1_555 1_555
C3 N1 1_555 1_555
H5 C3 1_555 1_555
H6 C3 1_555 1_555
C4 N3 1_555 1_555
H7 C4 1_555 1_555
H8 C4 1_555 1_555
C5 N2 1_555 1_555
H9 C5 1_555 1_555
H10 C5 1_555 1_555
C6 N2 1_555 1_555
H11 C6 1_555 1_555
H12 C6 1_555 1_555
N5 Ag2 1_555 1_555
C7 N5 1_555 1_555
H13 C7 1_555 1_555
H14 C7 1_555 1_555
C9 N5 1_555 1_555
H17 C9 1_555 1_555
H18 C9 1_555 1_555
H23 C12 1_555 1_555
O1 C13 1_555 1_555
C13 C14 1_555 1_555
C14 C15 1_555 1_555
C15 H25 1_555 1_555
C16 C15 1_555 1_555
H26 C16 1_555 1_555
C17 C16 1_555 1_555
H27 C17 1_555 1_555
C18 C17 1_555 1_555
C19 C14 1_555 1_555
H28 C19 1_555 1_555
C20 C18 1_555 1_555
O3 C20 1_555 1_555
O4 Ag1 1_555 1_555
O6 C21 1_555 1_555
C21 C22 1_555 1_555
C22 C23 1_555 1_555
C24 C23 1_555 1_555
H30 C24 1_555 1_555
C25 C24 1_555 1_555
H31 C25 1_555 1_555
C26 C25 1_555 1_555
C27 C22 1_555 1_555
H32 C27 1_555 1_555
C28 C26 1_555 1_555
O7 C28 1_555 1_555
O8 Ag1 1_555 1_555
N9 Ag1 1_555 1_555
Ag5 N4 1_555 1_555
O9 Ag2 1_555 1_555
O10 Ag6 1_555 1_555
O11 Ag2 1_555 1_555
O12 Ag6 1_555 1_555
N3 C5 1_555 1_555
N4 C4 1_555 1_555
N4 C6 1_555 1_555
C18 C19 1_555 1_555
C20 O4 1_555 1_555
C26 C27 1_555 1_555
C28 O8 1_555 1_555
Ag9 O2 1_555 1_555
Ag10 O5 1_555 1_555
Ag8 N1_2 1_555 1_555
Ag11 N3_2 1_555 1_555
N3_2 C2_2 1_555 1_555
N9 C3_2 1_555 1_555
C2_2 N1_2 1_555 1_555
H4_2 C2_2 1_555 1_555
C3_2 N1_2 1_555 1_555
H5_2 C3_2 1_555 1_555
H6_2 C3_2 1_555 1_555
C4_2 N3_2 1_555 1_555
H7_2 C4_2 1_555 1_555
H8_2 C4_2 1_555 1_555
H11_2 C6_2 1_555 1_555
H12_2 C6_2 1_555 1_555
N5_2 Ag8 1_555 1_555
C9_2 N5_2 1_555 1_555
H17_2 C9_2 1_555 1_555
H18_2 C9_2 1_555 1_555
H23_2 C12_2 1_555 1_555
O9 C13_2 1_555 1_555
O2_2 C13_2 1_555 1_555
C13_2 C14_2 1_555 1_555
C14_2 C15_2 1_555 1_555
C15_2 H25_2 1_555 1_555
C16_2 C15_2 1_555 1_555
H26_2 C16_2 1_555 1_555
C17_2 C16_2 1_555 1_555
C18_2 C17_2 1_555 1_555
C19_2 C14_2 1_555 1_555
H28_2 C19_2 1_555 1_555
O5_2 C21_2 1_555 1_555
O12 C21_2 1_555 1_555
C21_2 C22_2 1_555 1_555
C22_2 C23_2 1_555 1_555
C23_2 H29_2 1_555 1_555
C27_2 C22_2 1_555 1_555
H32_2 C27_2 1_555 1_555
N10 Ag11 1_555 1_555
O10_2 Ag11 1_555 1_555
O11_2 Ag8 1_555 1_555
Ag9_2 O2_2 1_555 1_555
Ag10_2 O5_2 1_555 1_555
N9 C4_2 1_555 1_555
N9 C6_2 1_555 1_555
C18_2 C19_2 1_555 1_555
C26_2 C27_2 1_555 1_555
Ag5 N2_2 1_555 1_555
N2_2 C1_2 1_555 1_555
C1_2 H1_2 1_555 1_555
H2_2 C1_2 1_555 1_555
C5_2 N2_2 1_555 1_555
H9_2 C5_2 1_555 1_555
H10_2 C5_2 1_555 1_555
H13_2 C7_2 1_555 1_555
H14_2 C7_2 1_555 1_555
O4_2 Ag5 1_555 1_555
H30_2 C24_2 1_555 1_555
C25_2 C24_2 1_555 1_555
H31_2 C25_2 1_555 1_555
O8_2 Ag5 1_555 1_555
C20_2 O4_2 1_555 1_555
C28_2 O8_2 1_555 1_555
N10 C8_2 1_555 1_555
H16_2 C8_2 1_555 1_555
C10_2 N10 1_555 1_555
H19_2 C10_2 1_555 1_555
H20_2 C10_2 1_555 1_555
N11 C10_2 1_555 1_555
Ag7 N6_2 1_555 1_555
C11_2 N6_2 1_555 1_555
H21_2 C11_2 1_555 1_555
H22_2 C11_2 1_555 1_555
Ag1_2 N2_3 1_555 1_555
Ag10_2 N1_3 1_555 1_555
Ag9_2 N3_3 1_555 1_555
N1_3 C1_3 1_555 1_555
N2_3 C1_3 1_555 1_555
N3_3 C2_3 1_555 1_555
N4_2 C3_3 1_555 1_555
C1_3 H1_3 1_555 1_555
H2_3 C1_3 1_555 1_555
C2_3 N1_3 1_555 1_555
H3_3 C2_3 1_555 1_555
H4_3 C2_3 1_555 1_555
C3_3 N1_3 1_555 1_555
H5_3 C3_3 1_555 1_555
H6_3 C3_3 1_555 1_555
C4_3 N3_3 1_555 1_555
H7_3 C4_3 1_555 1_555
H8_3 C4_3 1_555 1_555
C5_3 N2_3 1_555 1_555
H9_3 C5_3 1_555 1_555
H10_3 C5_3 1_555 1_555
C6_3 N2_3 1_555 1_555
H11_3 C6_3 1_555 1_555
H12_3 C6_3 1_555 1_555
N5_3 Ag10_2 1_555 1_555
C7_3 N5_3 1_555 1_555
H13_3 C7_3 1_555 1_555
H14_3 C7_3 1_555 1_555
C9_3 N5_3 1_555 1_555
H17_3 C9_3 1_555 1_555
H18_3 C9_3 1_555 1_555
H23_3 C12_3 1_555 1_555
O1_2 C13_3 1_555 1_555
C13_3 C14_3 1_555 1_555
C14_3 C15_3 1_555 1_555
C15_3 H25_3 1_555 1_555
C16_3 C15_3 1_555 1_555
H26_3 C16_3 1_555 1_555
C17_3 C16_3 1_555 1_555
H27_3 C17_3 1_555 1_555
C18_3 C17_3 1_555 1_555
C19_3 C14_3 1_555 1_555
H28_3 C19_3 1_555 1_555
C20_3 C18_3 1_555 1_555
O3_3 C20_3 1_555 1_555
O4_3 Ag1_2 1_555 1_555
O6_2 C21_3 1_555 1_555
C21_3 C22_3 1_555 1_555
C22_3 C23_3 1_555 1_555
C24_3 C23_3 1_555 1_555
H30_3 C24_3 1_555 1_555
C25_3 C24_3 1_555 1_555
H31_3 C25_3 1_555 1_555
C26_3 C25_3 1_555 1_555
C27_3 C22_3 1_555 1_555
H32_3 C27_3 1_555 1_555
C28_3 C26_3 1_555 1_555
O7_3 C28_3 1_555 1_555
O8_3 Ag1_2 1_555 1_555
N9_2 Ag1_2 1_555 1_555
N10_2 Ag9_2 1_555 1_555
Ag5_2 N4_2 1_555 1_555
O9_2 Ag10_2 1_555 1_555
O12_2 Ag9_2 1_555 1_555
N3_3 C5_3 1_555 1_555
N4_2 C4_3 1_555 1_555
N4_2 C6_3 1_555 1_555
C18_3 C19_3 1_555 1_555
C20_3 O4_3 1_555 1_555
C26_3 C27_3 1_555 1_555
C28_3 O8_3 1_555 1_555
Ag4_2 N6_3 1_555 1_555
N10_2 C8_3 1_555 1_555
H15_3 C8_3 1_555 1_555
H16_3 C8_3 1_555 1_555
C10_3 N10_2 1_555 1_555
H19_3 C10_3 1_555 1_555
H20_3 C10_3 1_555 1_555
C11_3 N6_3 1_555 1_555
H21_3 C11_3 1_555 1_555
H22_3 C11_3 1_555 1_555
N10_2 C11_3 1_555 1_555
N8_2 C10_3 1_555 1_555
Ag7_2 N6_4 1_555 1_555
C11_4 N6_4 1_555 1_555
H21_4 C11_4 1_555 1_555
H22_4 C11_4 1_555 1_555
N7_2 C8_4 1_555 1_555
H16_4 C8_4 1_555 1_555
C10_4 N7_2 1_555 1_555
H19_4 C10_4 1_555 1_555
H20_4 C10_4 1_555 1_555
Ag9 N7_2 1_555 1_555
N11_2 C10_4 1_555 1_555
Ag5_2 N2_4 1_555 1_555
N2_4 C1_4 1_555 1_555
C1_4 H1_4 1_555 1_555
H2_4 C1_4 1_555 1_555
C5_4 N2_4 1_555 1_555
H9_4 C5_4 1_555 1_555
H10_4 C5_4 1_555 1_555
H13_4 C7_4 1_555 1_555
H14_4 C7_4 1_555 1_555
O4_4 Ag5_2 1_555 1_555
H30_4 C24_4 1_555 1_555
C25_4 C24_4 1_555 1_555
H31_4 C25_4 1_555 1_555
O8_4 Ag5_2 1_555 1_555
C20_4 O4_4 1_555 1_555
C28_4 O8_4 1_555 1_555
Ag10 N1_4 1_555 1_555
Ag9 N3_4 1_555 1_555
N3_4 C2_4 1_555 1_555
N9_2 C3_4 1_555 1_555
C2_4 N1_4 1_555 1_555
H4_4 C2_4 1_555 1_555
C3_4 N1_4 1_555 1_555
H5_4 C3_4 1_555 1_555
H6_4 C3_4 1_555 1_555
C4_4 N3_4 1_555 1_555
H7_4 C4_4 1_555 1_555
H8_4 C4_4 1_555 1_555
H11_4 C6_4 1_555 1_555
H12_4 C6_4 1_555 1_555
N5_4 Ag10 1_555 1_555
C9_4 N5_4 1_555 1_555
H17_4 C9_4 1_555 1_555
H18_4 C9_4 1_555 1_555
H23_4 C12_4 1_555 1_555
O9_2 C13_4 1_555 1_555
O10 C13_4 1_555 1_555
C13_4 C14_4 1_555 1_555
C14_4 C15_4 1_555 1_555
C15_4 H25_4 1_555 1_555
C16_4 C15_4 1_555 1_555
H26_4 C16_4 1_555 1_555
C17_4 C16_4 1_555 1_555
C18_4 C17_4 1_555 1_555
C19_4 C14_4 1_555 1_555
H28_4 C19_4 1_555 1_555
O11 C21_4 1_555 1_555
O12_2 C21_4 1_555 1_555
C21_4 C22_4 1_555 1_555
C22_4 C23_4 1_555 1_555
C23_4 H29_4 1_555 1_555
C27_4 C22_4 1_555 1_555
H32_4 C27_4 1_555 1_555
N9_2 C4_4 1_555 1_555
N9_2 C6_4 1_555 1_555
C18_4 C19_4 1_555 1_555
C26_4 C27_4 1_555 1_555

#END
