
###############################################################################
#
# This file contains modified crystal structure data generated from the
# MOF subset of the Cambridge Structural Database (CSD) v543 
# hosted by the Cambridge Crystallographic Data Centre (CCDC).
#
# This work is licensed under the Creative Commons
# Attribution-NonCommercial-ShareAlike 4.0 International License.
# To view a copy of this license, visit
# http://creativecommons.org/licenses/by-nc-sa/4.0/
# or send a letter to
# Creative Commons, PO Box 1866, Mountain View, CA 94042, USA.
#
# CIF created using the CSD Python API on 29 September 2022
# The structure has been converted into the P1 space group
# The structure has a 3D framework
# The original CSD entry BAKGAX is in the orthorhombic crystal system
# The framework has been calculated to contain at least 10.0% void space
# The void calculation uses a probe of radius 1.32A, grid spacing 0.4
#
###############################################################################

data_BAKGAX
_chemical_formula_moiety         '(C36 H48 Co12 N47 O36 S4)n'
_symmetry_cell_setting           triclinic
_symmetry_space_group_name_H-M   'P 1'
_symmetry_Int_Tables_number      1
_space_group_name_Hall           'P 1'
loop_
_symmetry_equiv_pos_site_id
_symmetry_equiv_pos_as_xyz
1 x,y,z
_cell_length_a                   7.3246(4)
_cell_length_b                   13.2240(7)
_cell_length_c                   22.7669(12)
_cell_angle_alpha                90
_cell_angle_beta                 90
_cell_angle_gamma                90
_cell_volume                     2205.21
loop_
_atom_site_label
_atom_site_type_symbol
_atom_site_fract_x
_atom_site_fract_y
_atom_site_fract_z
Co4 Co 0.34357(8) 0.2500 0.25854(2)
Co7 Co 0.32688(6) 0.11722(3) 0.389388(17)
N7 N 0.3593(4) 0.0934(2) 0.25756(11)
N9 N 0.3448(4) 0.0446(2) 0.30816(11)
N11 N 0.3659(3) 0.0273(2) 0.21343(11)
S1 S 0.67587(14) 0.2500 0.35208(4)
O1 O 0.2561(4) 0.2500 0.34536(13)
H1 H 0.1397 0.2500 0.3495
O2 O 0.6050(4) 0.2500 0.28984(12)
O3 O 0.8736(4) 0.2500 0.34439(14)
O4 O 0.6107(3) 0.15912(16) 0.38253(9)
O6 O 0.0608(4) 0.0634(2) 0.39740(10)
N1 N 0.3593(4) 0.4066(2) 0.25756(11)
N2 N 0.3448(4) 0.4554(2) 0.30816(11)
N3 N 0.3659(3) 0.4727(2) 0.21343(11)
N4 N 0.3406(4) 0.5550(2) 0.29829(12)
N5 N 0.2231(4) 0.66638(19) 0.02271(11)
C1 C 0.3526(4) 0.5627(2) 0.23987(13)
C2 C 0.3415(4) 0.6592(2) 0.20813(13)
C3 C 0.3641(6) 0.7500 0.23785(18)
H6 H 0.3950 0.7500 0.2784
C4 C 0.2994(4) 0.6591(2) 0.14831(13)
H7 H 0.2834 0.5969 0.1281
C5 C 0.2808(6) 0.7500 0.11837(18)
C6 C 0.2409(6) 0.7500 0.05478(18)
Co3 Co 0.84357(8) 0.2500 0.24146(2)
Co5 Co 0.32688(6) 0.38278(3) 0.389388(17)
O7 O 0.1050(4) 0.2500 0.21016(12)
O8 O 0.3736(4) 0.2500 0.15561(14)
O9 O 0.6107(3) 0.34088(16) 0.38253(9)
O10 O 0.4122(4) 0.51725(19) 0.42899(13)
H8 H 0.3518 0.5323 0.4607
H9 H 0.5254 0.5118 0.4379
O11 O 0.0608(4) 0.4366(2) 0.39740(10)
N12 N 0.3406(4) 0.9450(2) 0.29829(12)
N13 N 0.2231(4) 0.83362(19) 0.02271(11)
N15 N 0.3057(3) 0.20000(19) 0.46832(11)
N16 N 0.3057(3) 0.30000(19) 0.46832(11)
C7 C 0.3526(4) 0.9373(2) 0.23987(13)
C8 C 0.3415(4) 0.8408(2) 0.20813(13)
C9 C 0.2994(4) 0.8409(2) 0.14831(13)
H12 H 0.2834 0.9031 0.1281
N6 N 0.1943(3) 0.70000(19) 0.96832(11)
Co6 Co 0.17312(6) 0.61722(3) 0.889388(17)
Co8 Co 0.17312(6) 0.88278(3) 0.889388(17)
N14 N 0.1943(3) 0.80000(19) 0.96832(11)
O5 O 0.4122(4) 0.98275(19) 0.42899(13)
H2 H 0.3518 0.9677 0.4607
H3 H 0.5254 0.9882 0.4379
O5_2 O 0.0878(4) 0.01725(19) 0.92899(13)
H2_2 H 0.1482 0.0323 0.9607
Co1 Co 0.15643(8) 0.7500 0.75854(2)
O1_2 O 0.2439(4) 0.7500 0.84536(13)
H1_2 H 0.3603 0.7500 0.8495
O6_2 O 0.4392(4) 0.9366(2) 0.89740(10)
H4 H 0.5053 0.9399 0.8664
H5 H 0.5014 0.9289 0.9290
N1_2 N 0.1407(4) 0.5934(2) 0.75756(11)
N2_2 N 0.1552(4) 0.5446(2) 0.80816(11)
N3_2 N 0.1341(3) 0.5273(2) 0.71343(11)
N4_2 N 0.1594(4) 0.4450(2) 0.79829(12)
N5_2 N 0.2769(4) 0.33362(19) 0.52271(11)
C1_2 C 0.1474(4) 0.4373(2) 0.73987(13)
C2_2 C 0.1585(4) 0.3408(2) 0.70813(13)
C3_2 C 0.1359(6) 0.2500 0.73785(18)
H6_2 H 0.1050 0.2500 0.7784
C4_2 C 0.2006(4) 0.3409(2) 0.64831(13)
H7_2 H 0.2166 0.4031 0.6281
C5_2 C 0.2192(6) 0.2500 0.61837(18)
C6_2 C 0.2591(6) 0.2500 0.55478(18)
O7_2 O 0.3950(4) 0.7500 0.71016(12)
O8_2 O 0.1264(4) 0.7500 0.65561(14)
O10_2 O 0.0878(4) 0.48275(19) 0.92899(13)
H8_2 H 0.1482 0.4677 0.9607
O11_2 O 0.4392(4) 0.5634(2) 0.89740(10)
H10 H 0.5053 0.5601 0.8664
H11 H 0.5014 0.5711 0.9290
N8 N 0.1407(4) 0.9066(2) 0.75756(11)
N10 N 0.1552(4) 0.9554(2) 0.80816(11)
N12_2 N 0.1594(4) 0.0550(2) 0.79829(12)
N13_2 N 0.2769(4) 0.16638(19) 0.52271(11)
C7_2 C 0.1474(4) 0.0627(2) 0.73987(13)
C8_2 C 0.1585(4) 0.1592(2) 0.70813(13)
C9_2 C 0.2006(4) 0.1591(2) 0.64831(13)
H12_2 H 0.2166 0.0969 0.6281
N11_2 N 0.1341(3) 0.9727(2) 0.71343(11)
S1_2 S 0.82413(14) 0.7500 0.85208(4)
O2_2 O 0.8950(4) 0.7500 0.78984(12)
O3_2 O 0.6264(4) 0.7500 0.84439(14)
O4_2 O 0.8893(3) 0.84088(16) 0.88253(9)
Co3_2 Co 0.65643(8) 0.7500 0.74146(2)
O9_2 O 0.8893(3) 0.65912(16) 0.88253(9)
H9_2 H 0.9746 0.4882 0.9379
N6_2 N 0.8057(3) 0.20000(19) 0.03168(11)
Co6_2 Co 0.82688(6) 0.11722(3) 0.110612(17)
Co8_2 Co 0.82688(6) 0.38278(3) 0.110612(17)
N14_2 N 0.8057(3) 0.30000(19) 0.03168(11)
N4_3 N 0.6594(4) 0.0550(2) 0.70171(12)
N5_3 N 0.7769(4) 0.16638(19) 0.97729(11)
C1_3 C 0.6474(4) 0.0627(2) 0.76013(13)
C2_3 C 0.6585(4) 0.1592(2) 0.79187(13)
C3_3 C 0.6359(6) 0.2500 0.76215(18)
H6_3 H 0.6050 0.2500 0.7216
C4_3 C 0.7006(4) 0.1591(2) 0.85169(13)
H7_3 H 0.7166 0.0969 0.8719
C5_3 C 0.7192(6) 0.2500 0.88163(18)
C6_3 C 0.7591(6) 0.2500 0.94522(18)
Co7_2 Co 0.67312(6) 0.61722(3) 0.610612(17)
O10_3 O 0.5878(4) 0.01725(19) 0.57101(13)
H8_3 H 0.6482 0.0323 0.5393
H9_3 H 0.4746 0.0118 0.5621
N7_2 N 0.6407(4) 0.5934(2) 0.74244(11)
N9_2 N 0.6552(4) 0.5446(2) 0.69184(11)
N11_3 N 0.6341(3) 0.5273(2) 0.78657(11)
N12_3 N 0.6594(4) 0.4450(2) 0.70171(12)
N13_3 N 0.7769(4) 0.33362(19) 0.97729(11)
C7_3 C 0.6474(4) 0.4373(2) 0.76013(13)
C8_3 C 0.6585(4) 0.3408(2) 0.79187(13)
C9_3 C 0.7006(4) 0.3409(2) 0.85169(13)
H12_3 H 0.7166 0.4031 0.8719
S1_3 S 0.32413(14) 0.7500 0.64792(4)
O1_3 O 0.7439(4) 0.7500 0.65464(13)
H1_3 H 0.8603 0.7500 0.6505
O4_3 O 0.3893(3) 0.65912(16) 0.61747(9)
O5_3 O 0.5878(4) 0.48275(19) 0.57101(13)
H2_3 H 0.6482 0.4677 0.5393
H3_2 H 0.4746 0.4882 0.5621
O6_3 O 0.9392(4) 0.5634(2) 0.60260(10)
N1_3 N 0.6407(4) 0.9066(2) 0.74244(11)
N2_3 N 0.6552(4) 0.9554(2) 0.69184(11)
N3_3 N 0.6341(3) 0.9727(2) 0.78657(11)
Co5_2 Co 0.67312(6) 0.88278(3) 0.610612(17)
O9_3 O 0.3893(3) 0.84088(16) 0.61747(9)
O11_3 O 0.9392(4) 0.9366(2) 0.60260(10)
N15_2 N 0.6943(3) 0.70000(19) 0.53168(11)
N16_2 N 0.6943(3) 0.80000(19) 0.53168(11)
S1_4 S 0.17587(14) 0.2500 0.14792(4)
O4_4 O 0.1107(3) 0.34088(16) 0.11747(9)
H3_3 H 0.0254 0.5118 0.0621
O9_4 O 0.1107(3) 0.15912(16) 0.11747(9)
O1_4 O 0.7561(4) 0.2500 0.15464(13)
H1_4 H 0.6397 0.2500 0.1505
O5_4 O 0.9122(4) 0.51725(19) 0.07101(13)
H2_4 H 0.8518 0.5323 0.0393
O6_4 O 0.5608(4) 0.4366(2) 0.10260(10)
H4_2 H 0.4947 0.4399 0.1336
H5_2 H 0.4986 0.4289 0.0710
N1_4 N 0.8593(4) 0.0934(2) 0.24244(11)
N2_4 N 0.8448(4) 0.0446(2) 0.19184(11)
N3_4 N 0.8659(3) 0.0273(2) 0.28657(11)
O11_4 O 0.5608(4) 0.0634(2) 0.10260(10)
H10_2 H 0.4947 0.0601 0.1336
H11_2 H 0.4986 0.0711 0.0710
N8_2 N 0.8593(4) 0.4066(2) 0.24244(11)
N10_2 N 0.8448(4) 0.4554(2) 0.19184(11)
N4_4 N 0.8406(4) 0.9450(2) 0.20171(12)
N5_4 N 0.7231(4) 0.83362(19) 0.47729(11)
C1_4 C 0.8526(4) 0.9373(2) 0.26013(13)
C2_4 C 0.8415(4) 0.8408(2) 0.29187(13)
C3_4 C 0.8641(6) 0.7500 0.26215(18)
H6_4 H 0.8950 0.7500 0.2216
C4_4 C 0.7994(4) 0.8409(2) 0.35169(13)
H7_4 H 0.7834 0.9031 0.3719
C5_4 C 0.7808(6) 0.7500 0.38163(18)
C6_4 C 0.7409(6) 0.7500 0.44522(18)
O10_4 O 0.9122(4) 0.98275(19) 0.07101(13)
H8_4 H 0.8518 0.9677 0.0393
N11_4 N 0.8659(3) 0.4727(2) 0.28657(11)
N12_4 N 0.8406(4) 0.5550(2) 0.20171(12)
N13_4 N 0.7231(4) 0.66638(19) 0.47729(11)
C7_4 C 0.8526(4) 0.5627(2) 0.26013(13)
C8_4 C 0.8415(4) 0.6592(2) 0.29187(13)
C9_4 C 0.7994(4) 0.6591(2) 0.35169(13)
H12_4 H 0.7834 0.5969 0.3719
H4_3 H 0.9947 0.0601 0.3664
H5_3 H 0.9986 0.0711 0.4290
H10_3 H 0.9947 0.4399 0.3664
H11_3 H 0.9986 0.4289 0.4290
H3_4 H 0.9746 0.0118 0.9379
H4_4 H 0.0053 0.5601 0.6336
H5_4 H 0.0014 0.5711 0.5710
H10_4 H 0.0053 0.9399 0.6336
H11_4 H 0.0014 0.9289 0.5710
H9_4 H 0.0254 0.9882 0.0621
loop_
_geom_bond_atom_site_label_1
_geom_bond_atom_site_label_2
_geom_bond_site_symmetry_1
_geom_bond_site_symmetry_2
Co4 N7 1_555 1_555
Co7 N9 1_555 1_555
N7 N9 1_555 1_555
N11 N7 1_555 1_555
Co4 O1 1_555 1_555
Co7 O1 1_555 1_555
S1 O2 1_555 1_555
O1 H1 1_555 1_555
O2 Co4 1_555 1_555
O3 S1 1_555 1_555
O4 Co7 1_555 1_555
O6 Co7 1_555 1_555
N1 Co4 1_555 1_555
N2 N1 1_555 1_555
N3 N1 1_555 1_555
N4 N2 1_555 1_555
C1 N3 1_555 1_555
C2 C1 1_555 1_555
C3 C2 1_555 1_555
H6 C3 1_555 1_555
C4 C2 1_555 1_555
H7 C4 1_555 1_555
C5 C4 1_555 1_555
C6 N5 1_555 1_555
Co3 O2 1_555 1_555
Co5 O1 1_555 1_555
O7 Co4 1_555 1_555
O8 Co4 1_555 1_555
O9 S1 1_555 1_555
O10 Co5 1_555 1_555
H8 O10 1_555 1_555
H9 O10 1_555 1_555
O11 Co5 1_555 1_555
N12 C7 1_555 1_555
N13 C6 1_555 1_555
N15 Co7 1_555 1_555
N16 Co5 1_555 1_555
C8 C3 1_555 1_555
C9 C5 1_555 1_555
H12 C9 1_555 1_555
S1 O4 1_555 1_555
O3 Co3 1_555 1_555
N2 Co5 1_555 1_555
N4 C1 1_555 1_555
C5 C6 1_555 1_555
Co5 O9 1_555 1_555
N15 N16 1_555 1_555
C7 C8 1_555 1_555
C8 C9 1_555 1_555
N6 Co6 1_555 1_555
Co8 N14 1_555 1_555
N14 N6 1_555 1_555
H2 O5 1_555 1_555
H3 O5 1_555 1_555
H2_2 O5_2 1_555 1_555
Co1 O1_2 1_555 1_555
Co8 O1_2 1_555 1_555
O1_2 H1_2 1_555 1_555
O6_2 Co8 1_555 1_555
H4 O6_2 1_555 1_555
H5 O6_2 1_555 1_555
N1_2 Co1 1_555 1_555
N2_2 N1_2 1_555 1_555
N3_2 N1_2 1_555 1_555
N4_2 N2_2 1_555 1_555
N5_2 N16 1_555 1_555
C1_2 N3_2 1_555 1_555
C2_2 C1_2 1_555 1_555
C3_2 C2_2 1_555 1_555
H6_2 C3_2 1_555 1_555
C4_2 C2_2 1_555 1_555
H7_2 C4_2 1_555 1_555
C5_2 C4_2 1_555 1_555
C6_2 N5_2 1_555 1_555
Co6 O1_2 1_555 1_555
O7_2 Co1 1_555 1_555
O8_2 Co1 1_555 1_555
O10_2 Co6 1_555 1_555
H8_2 O10_2 1_555 1_555
O11_2 Co6 1_555 1_555
H10 O11_2 1_555 1_555
H11 O11_2 1_555 1_555
N8 Co1 1_555 1_555
N10 Co8 1_555 1_555
N12_2 C7_2 1_555 1_555
N13_2 C6_2 1_555 1_555
C8_2 C3_2 1_555 1_555
C9_2 C5_2 1_555 1_555
H12_2 C9_2 1_555 1_555
N2_2 Co6 1_555 1_555
N4_2 C1_2 1_555 1_555
C5_2 C6_2 1_555 1_555
N8 N10 1_555 1_555
N13_2 N15 1_555 1_555
C7_2 C8_2 1_555 1_555
C8_2 C9_2 1_555 1_555
N11_2 N8 1_555 1_555
S1_2 O2_2 1_555 1_555
O3_2 S1_2 1_555 1_555
Co3_2 O2_2 1_555 1_555
O9_2 S1_2 1_555 1_555
S1_2 O4_2 1_555 1_555
O3_2 Co3_2 1_555 1_555
N6_2 Co6_2 1_555 1_555
Co8_2 N14_2 1_555 1_555
N14_2 N6_2 1_555 1_555
C2_3 C1_3 1_555 1_555
C3_3 C2_3 1_555 1_555
H6_3 C3_3 1_555 1_555
C4_3 C2_3 1_555 1_555
H7_3 C4_3 1_555 1_555
C5_3 C4_3 1_555 1_555
C6_3 N5_3 1_555 1_555
Co3_2 N7_2 1_555 1_555
Co7_2 N9_2 1_555 1_555
H8_3 O10_3 1_555 1_555
H9_3 O10_3 1_555 1_555
N7_2 N9_2 1_555 1_555
N9_2 N12_3 1_555 1_555
N11_3 N7_2 1_555 1_555
N12_3 C7_3 1_555 1_555
N13_3 C6_3 1_555 1_555
C7_3 N11_3 1_555 1_555
C8_3 C3_3 1_555 1_555
C9_3 C5_3 1_555 1_555
H12_3 C9_3 1_555 1_555
N4_3 C1_3 1_555 1_555
C5_3 C6_3 1_555 1_555
C7_3 C8_3 1_555 1_555
C8_3 C9_3 1_555 1_555
Co3_2 O1_3 1_555 1_555
Co7_2 O1_3 1_555 1_555
S1_3 O7_2 1_555 1_555
O1_3 H1_3 1_555 1_555
O7_2 Co3_2 1_555 1_555
O8_2 S1_3 1_555 1_555
O4_3 Co7_2 1_555 1_555
O5_3 Co7_2 1_555 1_555
H2_3 O5_3 1_555 1_555
H3_2 O5_3 1_555 1_555
O6_3 Co7_2 1_555 1_555
N1_3 Co3_2 1_555 1_555
N2_3 N1_3 1_555 1_555
N3_3 N1_3 1_555 1_555
Co5_2 O1_3 1_555 1_555
O9_3 S1_3 1_555 1_555
O11_3 Co5_2 1_555 1_555
N15_2 Co7_2 1_555 1_555
N16_2 Co5_2 1_555 1_555
S1_3 O4_3 1_555 1_555
N2_3 Co5_2 1_555 1_555
Co5_2 O9_3 1_555 1_555
N15_2 N16_2 1_555 1_555
S1_4 O7 1_555 1_555
O8 S1_4 1_555 1_555
O9_4 S1_4 1_555 1_555
S1_4 O4_4 1_555 1_555
Co3 O1_4 1_555 1_555
Co8_2 O1_4 1_555 1_555
O1_4 H1_4 1_555 1_555
O5_4 Co8_2 1_555 1_555
H2_4 O5_4 1_555 1_555
O6_4 Co8_2 1_555 1_555
H4_2 O6_4 1_555 1_555
H5_2 O6_4 1_555 1_555
N1_4 Co3 1_555 1_555
N2_4 N1_4 1_555 1_555
N3_4 N1_4 1_555 1_555
Co6_2 O1_4 1_555 1_555
O11_4 Co6_2 1_555 1_555
H10_2 O11_4 1_555 1_555
H11_2 O11_4 1_555 1_555
N8_2 Co3 1_555 1_555
N10_2 Co8_2 1_555 1_555
N2_4 Co6_2 1_555 1_555
N8_2 N10_2 1_555 1_555
N5_4 N16_2 1_555 1_555
C2_4 C1_4 1_555 1_555
C3_4 C2_4 1_555 1_555
H6_4 C3_4 1_555 1_555
C4_4 C2_4 1_555 1_555
H7_4 C4_4 1_555 1_555
C5_4 C4_4 1_555 1_555
C6_4 N5_4 1_555 1_555
H8_4 O10_4 1_555 1_555
N10_2 N12_4 1_555 1_555
N11_4 N8_2 1_555 1_555
N12_4 C7_4 1_555 1_555
N13_4 C6_4 1_555 1_555
C7_4 N11_4 1_555 1_555
C8_4 C3_4 1_555 1_555
C9_4 C5_4 1_555 1_555
H12_4 C9_4 1_555 1_555
N4_4 C1_4 1_555 1_555
C5_4 C6_4 1_555 1_555
N13_4 N15_2 1_555 1_555
C7_4 C8_4 1_555 1_555
C8_4 C9_4 1_555 1_555

#END
