
###############################################################################
#
# This file contains modified crystal structure data generated from the
# MOF subset of the Cambridge Structural Database (CSD) v543 
# hosted by the Cambridge Crystallographic Data Centre (CCDC).
#
# This work is licensed under the Creative Commons
# Attribution-NonCommercial-ShareAlike 4.0 International License.
# To view a copy of this license, visit
# http://creativecommons.org/licenses/by-nc-sa/4.0/
# or send a letter to
# Creative Commons, PO Box 1866, Mountain View, CA 94042, USA.
#
# CIF created using the CSD Python API on 29 September 2022
# The structure has been converted into the P1 space group
# The structure has a 3D framework
# The original CSD entry BAMKOS is in the monoclinic crystal system
# The framework has been calculated to contain at least 10.0% void space
# The void calculation uses a probe of radius 1.32A, grid spacing 0.4
# The framework is charged, counterions have been retained in the structure
# H atom positions have been added when not included in the experimental data
#
###############################################################################

data_BAMKOS
_chemical_formula_moiety         '(C88 H92 Cr8 Cu4 N24 O48 6-)n'
_symmetry_cell_setting           triclinic
_symmetry_space_group_name_H-M   'P 1'
_symmetry_Int_Tables_number      1
_space_group_name_Hall           'P 1'
loop_
_symmetry_equiv_pos_site_id
_symmetry_equiv_pos_as_xyz
1 x,y,z
_cell_length_a                   9.6691(3)
_cell_length_b                   17.4598(5)
_cell_length_c                   20.4487(6)
_cell_angle_alpha                90
_cell_angle_beta                 94.891(2)
_cell_angle_gamma                90
_cell_volume                     3439.59
loop_
_atom_site_label
_atom_site_type_symbol
_atom_site_fract_x
_atom_site_fract_y
_atom_site_fract_z
Cu1 Cu 0.30000(5) 0.50752(3) 0.52443(3)
O1 O 0.3135(3) 0.9030(2) 0.08153(17)
O2 O 0.1087(3) 0.9016(2) 0.12555(16)
O3 O 0.0481(4) 0.5562(3) 0.3293(2)
O5 O 0.1213(3) 0.5394(2) 0.48474(16)
H1 H 0.124(8) 0.582(2) 0.465(3)
N1 N 0.2779(4) 0.4110(2) 0.46916(18)
N2 N 0.1506(4) 0.3971(2) 0.43645(19)
N3 N 0.2845(4) 0.3003(2) 0.4201(2)
N4 N 0.4589(4) 0.0364(2) 0.08032(19)
N5 N 0.5803(4) 0.0643(2) 0.05820(19)
N6 N 0.5830(4) 0.0827(3) 0.1640(2)
C1 C 0.3565(5) 0.3523(3) 0.4582(2)
H2 H 0.4488 0.3471 0.4744
C2 C 0.1570(5) 0.3308(3) 0.4086(3)
H3 H 0.0835 0.3074 0.3841
C3 C 0.3332(6) 0.2271(3) 0.3952(3)
H4 H 0.2573 0.1906 0.3932
H5 H 0.4065 0.2074 0.4260
C4 C 0.3868(5) 0.2329(3) 0.3284(3)
C5 C 0.3554(6) 0.2926(3) 0.2855(3)
H6 H 0.2981 0.3321 0.2973
C6 C 0.4093(7) 0.2938(4) 0.2247(3)
H7 H 0.3869 0.3338 0.1957
C7 C 0.4961(6) 0.2358(4) 0.2071(3)
H8 H 0.5340 0.2376 0.1668
C8 C 0.5267(5) 0.1749(3) 0.2493(3)
C9 C 0.4721(5) 0.1738(3) 0.3092(3)
H9 H 0.4924 0.1328 0.3375
C10 C 0.6229(6) 0.1112(4) 0.2310(3)
H10 H 0.7175 0.1301 0.2335
H11 H 0.6193 0.0694 0.2621
C11 C 0.4626(5) 0.0477(3) 0.1433(2)
H12 H 0.3933 0.0338 0.1698
C12 C 0.6517(5) 0.0924(3) 0.1099(3)
H13 H 0.7380 0.1158 0.1094
C13 C 0.2273(5) 0.8753(3) 0.1176(3)
C14 C 0.2753(6) 0.8031(4) 0.1532(4)
H14 H 0.3546 0.8157 0.1836
H15 H 0.3069 0.7674 0.1213
C15 C 0.1683(6) 0.7630(4) 0.1910(4)
C16 C 0.1408(8) 0.7877(5) 0.2512(4)
H16 H 0.1880 0.8298 0.2699
C17 C 0.0413(8) 0.7500(5) 0.2857(4)
H17 H 0.0239 0.7680 0.3270
C20 C 0.0973(7) 0.7007(5) 0.1653(4)
H19 H 0.1147 0.6825 0.1240
Cu5 Cu 0.30000(5) 0.99248(3) 0.02443(3)
Cu6 Cu 0.00015(5) 0.97758(3) 0.07297(3)
Cu7 Cu 0.00015(5) 0.52242(3) 0.57297(3)
O6 O 0.3135(3) 0.5970(2) 0.58153(17)
N7 N 0.4589(4) 0.4636(2) 0.58032(19)
N8 N 0.4197(4) 0.5643(2) 0.44180(19)
Cu3 Cu 0.70000(5) 0.00752(3) 0.97557(3)
Cu2 Cu 0.99985(5) 0.47758(3) 0.42703(3)
O4 O 0.8771(4) 0.5644(2) 0.39258(19)
C18 C 0.9706(7) 0.6892(5) 0.2612(5)
C19 C 0.9993(7) 0.6644(5) 0.2005(5)
H18 H 0.9521 0.6221 0.1822
C21 C 0.8688(7) 0.6448(6) 0.2991(5)
H20 H 0.8191 0.6804 0.3250
H21 H 0.8014 0.6200 0.2681
C22 C 0.9372(6) 0.5854(4) 0.3436(3)
O7 O 0.8913(3) 0.4016(2) 0.37445(16)
O8 O 0.8787(3) 0.4606(2) 0.51526(16)
O8_2 O 0.1213(3) 0.9606(2) 0.98474(16)
O1_2 O 0.6865(3) 0.4030(2) 0.41847(17)
O3_2 O 0.9519(4) 0.0562(3) 0.1707(2)
O5_2 O 0.8787(3) 0.0394(2) 0.01526(16)
H1_2 H 0.876(8) 0.082(2) 0.035(3)
C13_2 C 0.7727(5) 0.3753(3) 0.3824(3)
C14_2 C 0.7247(6) 0.3031(4) 0.3468(4)
H14_2 H 0.6454 0.3157 0.3164
H15_2 H 0.6931 0.2674 0.3787
C15_2 C 0.8317(6) 0.2630(4) 0.3090(4)
C16_2 C 0.8592(8) 0.2877(5) 0.2488(4)
H16_2 H 0.8120 0.3298 0.2301
C17_2 C 0.9587(8) 0.2500(5) 0.2143(4)
H17_2 H 0.9761 0.2680 0.1730
C20_2 C 0.9027(7) 0.2007(5) 0.3347(4)
H19_2 H 0.8853 0.1825 0.3760
Cu5_2 Cu 0.70000(5) 0.49248(3) 0.47557(3)
Cu7_2 Cu 0.99985(5) 0.02242(3) 0.92703(3)
O6_2 O 0.6865(3) 0.0970(2) 0.91847(17)
N1_2 N 0.7221(4) 0.9110(2) 0.03084(18)
N2_2 N 0.8494(4) 0.8971(2) 0.06355(19)
N3_2 N 0.7155(4) 0.8003(2) 0.0799(2)
N4_2 N 0.5411(4) 0.5364(2) 0.41968(19)
N6_2 N 0.4170(4) 0.5827(3) 0.3360(2)
C1_2 C 0.6435(5) 0.8523(3) 0.0418(2)
H2_2 H 0.5512 0.8471 0.0256
C2_2 C 0.8430(5) 0.8308(3) 0.0914(3)
H3_2 H 0.9165 0.8074 0.1159
C3_2 C 0.6668(6) 0.7271(3) 0.1048(3)
H4_2 H 0.7427 0.6906 0.1068
H5_2 H 0.5935 0.7074 0.0740
C4_2 C 0.6132(5) 0.7329(3) 0.1716(3)
C5_2 C 0.6446(6) 0.7926(3) 0.2145(3)
H6_2 H 0.7019 0.8321 0.2027
C6_2 C 0.5907(7) 0.7938(4) 0.2753(3)
H7_2 H 0.6131 0.8338 0.3043
C7_2 C 0.5039(6) 0.7358(4) 0.2929(3)
H8_2 H 0.4660 0.7376 0.3332
C8_2 C 0.4733(5) 0.6749(3) 0.2507(3)
C9_2 C 0.5279(5) 0.6738(3) 0.1908(3)
H9_2 H 0.5076 0.6328 0.1625
C10_2 C 0.3771(6) 0.6112(4) 0.2690(3)
H10_2 H 0.2825 0.6301 0.2665
H11_2 H 0.3807 0.5694 0.2379
C11_2 C 0.5374(5) 0.5477(3) 0.3567(2)
H12_2 H 0.6067 0.5338 0.3302
C12_2 C 0.3483(5) 0.5924(3) 0.3901(3)
H13_2 H 0.2620 0.6158 0.3906
N7_2 N 0.5411(4) 0.9636(2) 0.91968(19)
O4_2 O 0.1229(4) 0.4356(2) 0.60742(19)
C18_2 C 0.0294(7) 0.3108(5) 0.7388(5)
C19_2 C 0.0007(7) 0.3356(5) 0.7995(5)
H18_2 H 0.0479 0.3779 0.8178
C21_2 C 0.1312(7) 0.3552(6) 0.7009(5)
H20_2 H 0.1809 0.3196 0.6750
H21_2 H 0.1986 0.3800 0.7319
C22_2 C 0.0628(6) 0.4146(4) 0.6564(3)
O7_2 O 0.1087(3) 0.5984(2) 0.62555(16)
O2_2 O 0.8913(3) 0.0984(2) 0.87445(16)
O3_3 O 0.9519(4) 0.4438(3) 0.6707(2)
H1_3 H 0.876(8) 0.418(2) 0.535(3)
N1_3 N 0.7221(4) 0.5890(2) 0.53084(18)
N2_3 N 0.8494(4) 0.6029(2) 0.56355(19)
N3_3 N 0.7155(4) 0.6997(2) 0.5799(2)
N5_2 N 0.4197(4) 0.9357(2) 0.94180(19)
N6_3 N 0.4170(4) 0.9173(3) 0.8360(2)
C1_3 C 0.6435(5) 0.6477(3) 0.5418(2)
H2_3 H 0.5512 0.6529 0.5256
C2_3 C 0.8430(5) 0.6692(3) 0.5914(3)
H3_3 H 0.9165 0.6926 0.6159
C3_3 C 0.6668(6) 0.7729(3) 0.6048(3)
H4_3 H 0.7427 0.8094 0.6068
H5_3 H 0.5935 0.7926 0.5740
C4_3 C 0.6132(5) 0.7671(3) 0.6716(3)
C5_3 C 0.6446(6) 0.7074(3) 0.7145(3)
H6_3 H 0.7019 0.6679 0.7027
C6_3 C 0.5907(7) 0.7062(4) 0.7753(3)
H7_3 H 0.6131 0.6662 0.8043
C7_3 C 0.5039(6) 0.7642(4) 0.7929(3)
H8_3 H 0.4660 0.7624 0.8332
C8_3 C 0.4733(5) 0.8251(3) 0.7507(3)
C9_3 C 0.5279(5) 0.8262(3) 0.6908(3)
H9_3 H 0.5076 0.8672 0.6625
C10_3 C 0.3771(6) 0.8888(4) 0.7690(3)
H10_3 H 0.2825 0.8699 0.7665
H11_3 H 0.3807 0.9306 0.7379
C11_3 C 0.5374(5) 0.9523(3) 0.8567(2)
H12_3 H 0.6067 0.9662 0.8302
C12_3 C 0.3483(5) 0.9076(3) 0.8901(3)
H13_3 H 0.2620 0.8842 0.8906
C13_3 C 0.7727(5) 0.1247(3) 0.8824(3)
C14_3 C 0.7247(6) 0.1969(4) 0.8468(4)
H14_3 H 0.6454 0.1843 0.8164
H15_3 H 0.6931 0.2326 0.8787
C15_3 C 0.8317(6) 0.2370(4) 0.8090(4)
C16_3 C 0.8592(8) 0.2123(5) 0.7488(4)
H16_3 H 0.8120 0.1702 0.7301
C17_3 C 0.9587(8) 0.2500(5) 0.7143(4)
H17_3 H 0.9761 0.2320 0.6730
C20_3 C 0.9027(7) 0.2993(5) 0.8347(4)
H19_3 H 0.8853 0.3175 0.8760
N8_2 N 0.5803(4) 0.4357(2) 0.55820(19)
N1_4 N 0.2779(4) 0.0890(2) 0.96916(18)
N2_4 N 0.1506(4) 0.1029(2) 0.93645(19)
N3_4 N 0.2845(4) 0.1997(2) 0.9201(2)
N6_4 N 0.5830(4) 0.4173(3) 0.6640(2)
C1_4 C 0.3565(5) 0.1477(3) 0.9582(2)
H2_4 H 0.4488 0.1529 0.9744
C2_4 C 0.1570(5) 0.1692(3) 0.9086(3)
H3_4 H 0.0835 0.1926 0.8841
C3_4 C 0.3332(6) 0.2729(3) 0.8952(3)
H4_4 H 0.2573 0.3094 0.8932
H5_4 H 0.4065 0.2926 0.9260
C4_4 C 0.3868(5) 0.2671(3) 0.8284(3)
C5_4 C 0.3554(6) 0.2074(3) 0.7855(3)
H6_4 H 0.2981 0.1679 0.7973
C6_4 C 0.4093(7) 0.2062(4) 0.7247(3)
H7_4 H 0.3869 0.1662 0.6957
C7_4 C 0.4961(6) 0.2642(4) 0.7071(3)
H8_4 H 0.5340 0.2624 0.6668
C8_4 C 0.5267(5) 0.3251(3) 0.7493(3)
C9_4 C 0.4721(5) 0.3262(3) 0.8092(3)
H9_4 H 0.4924 0.3672 0.8375
C10_4 C 0.6229(6) 0.3888(4) 0.7310(3)
H10_4 H 0.7175 0.3699 0.7335
H11_4 H 0.6193 0.4306 0.7621
C11_4 C 0.4626(5) 0.4523(3) 0.6433(2)
H12_4 H 0.3933 0.4662 0.6698
C12_4 C 0.6517(5) 0.4076(3) 0.6099(3)
H13_4 H 0.7380 0.3842 0.6094
O3_4 O 0.0481(4) 0.9438(3) 0.8293(2)
H1_4 H 0.124(8) 0.918(2) 0.965(3)
C13_4 C 0.2273(5) 0.6247(3) 0.6176(3)
C14_4 C 0.2753(6) 0.6969(4) 0.6532(4)
H14_4 H 0.3546 0.6843 0.6836
H15_4 H 0.3069 0.7326 0.6213
C15_4 C 0.1683(6) 0.7370(4) 0.6910(4)
C16_4 C 0.1408(8) 0.7123(5) 0.7512(4)
H16_4 H 0.1880 0.6702 0.7699
C17_4 C 0.0413(8) 0.7500(5) 0.7857(4)
H17_4 H 0.0239 0.7320 0.8270
C20_4 C 0.0973(7) 0.7993(5) 0.6653(4)
H19_4 H 0.1147 0.8175 0.6240
O4_3 O 0.1229(4) 0.0644(2) 0.10742(19)
C18_3 C 0.0294(7) 0.1892(5) 0.2388(5)
C19_3 C 0.0007(7) 0.1644(5) 0.2995(5)
H18_3 H 0.0479 0.1221 0.3178
C21_3 C 0.1312(7) 0.1448(6) 0.2009(5)
H20_3 H 0.1809 0.1804 0.1750
H21_3 H 0.1986 0.1200 0.2319
C22_3 C 0.0628(6) 0.0854(4) 0.1564(3)
O4_4 O 0.8771(4) 0.9356(2) 0.89258(19)
C18_4 C 0.9706(7) 0.8108(5) 0.7612(5)
C19_4 C 0.9993(7) 0.8356(5) 0.7005(5)
H18_4 H 0.9521 0.8779 0.6822
C21_4 C 0.8688(7) 0.8552(6) 0.7991(5)
H20_4 H 0.8191 0.8196 0.8250
H21_4 H 0.8014 0.8800 0.7681
C22_4 C 0.9372(6) 0.9146(4) 0.8436(3)
O10 O 0.307(2) 0.0355(13) 0.3903(11)
H23 H 0.604368 0.0356362 0.359148
Cr1 Cr 0.3661(5) 0.97226(18) 0.34909(19)
Cr2 Cr 0.3799(6) 0.8489(2) 0.4636(2)
O9 O 0.3396(18) 0.9755(7) 0.2735(6)
O11 O 0.573(4) 0.9854(14) 0.3752(17)
O12 O 0.366(2) 0.8851(9) 0.3851(7)
O13 O 0.4029(16) 0.7740(9) 0.4678(7)
O14 O 0.455(3) 0.9006(13) 0.5145(12)
O15 O 0.569(2) 0.8136(14) 0.4450(9)
H22 H 0.626149 0.858479 0.434463
Cr1_2 Cr 0.6339(5) 0.47226(18) 0.15091(19)
Cr2_2 Cr 0.6201(6) 0.3489(2) 0.0364(2)
O9_2 O 0.6604(18) 0.4755(7) 0.2265(6)
O10_2 O 0.693(2) 0.5355(13) 0.1097(11)
O11_2 O 0.427(4) 0.4854(14) 0.1248(17)
O12_2 O 0.634(2) 0.3851(9) 0.1149(7)
O13_2 O 0.5971(16) 0.2740(9) 0.0322(7)
O15_2 O 0.431(2) 0.3136(14) 0.0550(9)
H22_2 H 0.373851 0.358479 0.0655367
H23_2 H 0.395632 0.535636 0.140852
O14_2 O 0.545(3) 0.4006(13) 0.9855(12)
Cr1_3 Cr 0.6339(5) 0.02774(18) 0.65091(19)
Cr2_3 Cr 0.6201(6) 0.1511(2) 0.5364(2)
O9_3 O 0.6604(18) 0.0245(7) 0.7265(6)
O11_3 O 0.427(4) 0.0146(14) 0.6248(17)
O12_3 O 0.634(2) 0.1149(9) 0.6149(7)
O13_3 O 0.5971(16) 0.2260(9) 0.5322(7)
O14_3 O 0.545(3) 0.0994(13) 0.4855(12)
O15_3 O 0.431(2) 0.1864(14) 0.5550(9)
H22_3 H 0.373851 0.141521 0.565537
O10_3 O 0.693(2) 0.9645(13) 0.6097(11)
H23_3 H 0.395632 0.964364 0.640852
O14_4 O 0.455(3) 0.5994(13) 0.0145(12)
Cr1_4 Cr 0.3661(5) 0.52774(18) 0.84909(19)
Cr2_4 Cr 0.3799(6) 0.6511(2) 0.9636(2)
O9_4 O 0.3396(18) 0.5245(7) 0.7735(6)
O10_4 O 0.307(2) 0.4645(13) 0.8903(11)
O11_4 O 0.573(4) 0.5146(14) 0.8752(17)
O12_4 O 0.366(2) 0.6149(9) 0.8851(7)
O13_4 O 0.4029(16) 0.7260(9) 0.9678(7)
O15_4 O 0.569(2) 0.6864(14) 0.9450(9)
H22_4 H 0.626149 0.641521 0.934463
H23_4 H 0.604368 0.464364 0.859148
loop_
_geom_bond_atom_site_label_1
_geom_bond_atom_site_label_2
_geom_bond_site_symmetry_1
_geom_bond_site_symmetry_2
Cu1 O5 1_555 1_555
O1 C13 1_555 1_555
O2 C13 1_555 1_555
H1 O5 1_555 1_555
N1 Cu1 1_555 1_555
N3 C1 1_555 1_555
N4 N5 1_555 1_555
N5 C12 1_555 1_555
N6 C10 1_555 1_555
C1 N1 1_555 1_555
H2 C1 1_555 1_555
C2 N2 1_555 1_555
H3 C2 1_555 1_555
C3 N3 1_555 1_555
H4 C3 1_555 1_555
H5 C3 1_555 1_555
C4 C3 1_555 1_555
C5 C4 1_555 1_555
H6 C5 1_555 1_555
C6 C5 1_555 1_555
H7 C6 1_555 1_555
C7 C6 1_555 1_555
H8 C7 1_555 1_555
C8 C7 1_555 1_555
C9 C4 1_555 1_555
H9 C9 1_555 1_555
C10 C8 1_555 1_555
H10 C10 1_555 1_555
H11 C10 1_555 1_555
C11 N4 1_555 1_555
H12 C11 1_555 1_555
C12 N6 1_555 1_555
H13 C12 1_555 1_555
C13 C14 1_555 1_555
C14 H14 1_555 1_555
H15 C14 1_555 1_555
C15 C14 1_555 1_555
C16 C15 1_555 1_555
H16 C16 1_555 1_555
C17 C16 1_555 1_555
H17 C17 1_555 1_555
C20 C15 1_555 1_555
H19 C20 1_555 1_555
Cu5 O1 1_555 1_555
Cu6 O2 1_555 1_555
Cu7 O5 1_555 1_555
O6 Cu1 1_555 1_555
N7 Cu1 1_555 1_555
N8 Cu1 1_555 1_555
N1 N2 1_555 1_555
N3 C2 1_555 1_555
N6 C11 1_555 1_555
C8 C9 1_555 1_555
O4 Cu2 1_555 1_555
C19 C18 1_555 1_555
H18 C19 1_555 1_555
C21 C18 1_555 1_555
H20 C21 1_555 1_555
H21 C21 1_555 1_555
C22 O4 1_555 1_555
O7 Cu2 1_555 1_555
O8 Cu2 1_555 1_555
C21 C22 1_555 1_555
O1_2 C13_2 1_555 1_555
O7 C13_2 1_555 1_555
H1_2 O5_2 1_555 1_555
C13_2 C14_2 1_555 1_555
C14_2 H14_2 1_555 1_555
H15_2 C14_2 1_555 1_555
C15_2 C14_2 1_555 1_555
C16_2 C15_2 1_555 1_555
H16_2 C16_2 1_555 1_555
C17_2 C16_2 1_555 1_555
H17_2 C17_2 1_555 1_555
C20_2 C15_2 1_555 1_555
H19_2 C20_2 1_555 1_555
Cu5_2 O1_2 1_555 1_555
O6_2 Cu3 1_555 1_555
N3_2 C1_2 1_555 1_555
N4_2 N8 1_555 1_555
N8 C12_2 1_555 1_555
N6_2 C10_2 1_555 1_555
C1_2 N1_2 1_555 1_555
H2_2 C1_2 1_555 1_555
C2_2 N2_2 1_555 1_555
H3_2 C2_2 1_555 1_555
C3_2 N3_2 1_555 1_555
H4_2 C3_2 1_555 1_555
H5_2 C3_2 1_555 1_555
C4_2 C3_2 1_555 1_555
C5_2 C4_2 1_555 1_555
H6_2 C5_2 1_555 1_555
C6_2 C5_2 1_555 1_555
H7_2 C6_2 1_555 1_555
C7_2 C6_2 1_555 1_555
H8_2 C7_2 1_555 1_555
C8_2 C7_2 1_555 1_555
C9_2 C4_2 1_555 1_555
H9_2 C9_2 1_555 1_555
C10_2 C8_2 1_555 1_555
H10_2 C10_2 1_555 1_555
H11_2 C10_2 1_555 1_555
C11_2 N4_2 1_555 1_555
H12_2 C11_2 1_555 1_555
C12_2 N6_2 1_555 1_555
H13_2 C12_2 1_555 1_555
Cu5_2 N4_2 1_555 1_555
N1_2 N2_2 1_555 1_555
N3_2 C2_2 1_555 1_555
N6_2 C11_2 1_555 1_555
C8_2 C9_2 1_555 1_555
O4_2 Cu7 1_555 1_555
C19_2 C18_2 1_555 1_555
H18_2 C19_2 1_555 1_555
C21_2 C18_2 1_555 1_555
H20_2 C21_2 1_555 1_555
H21_2 C21_2 1_555 1_555
C22_2 O4_2 1_555 1_555
O7_2 Cu7 1_555 1_555
C21_2 C22_2 1_555 1_555
Cu5_2 O8 1_555 1_555
O6_2 C13_3 1_555 1_555
O2_2 C13_3 1_555 1_555
H1_3 O8 1_555 1_555
N1_3 Cu5_2 1_555 1_555
N3_3 C1_3 1_555 1_555
N7_2 N5_2 1_555 1_555
N5_2 C12_3 1_555 1_555
N6_3 C10_3 1_555 1_555
C1_3 N1_3 1_555 1_555
H2_3 C1_3 1_555 1_555
C2_3 N2_3 1_555 1_555
H3_3 C2_3 1_555 1_555
C3_3 N3_3 1_555 1_555
H4_3 C3_3 1_555 1_555
H5_3 C3_3 1_555 1_555
C4_3 C3_3 1_555 1_555
C5_3 C4_3 1_555 1_555
H6_3 C5_3 1_555 1_555
C6_3 C5_3 1_555 1_555
H7_3 C6_3 1_555 1_555
C7_3 C6_3 1_555 1_555
H8_3 C7_3 1_555 1_555
C8_3 C7_3 1_555 1_555
C9_3 C4_3 1_555 1_555
H9_3 C9_3 1_555 1_555
C10_3 C8_3 1_555 1_555
H10_3 C10_3 1_555 1_555
H11_3 C10_3 1_555 1_555
C11_3 N7_2 1_555 1_555
H12_3 C11_3 1_555 1_555
C12_3 N6_3 1_555 1_555
H13_3 C12_3 1_555 1_555
C13_3 C14_3 1_555 1_555
C14_3 H14_3 1_555 1_555
H15_3 C14_3 1_555 1_555
C15_3 C14_3 1_555 1_555
C16_3 C15_3 1_555 1_555
H16_3 C16_3 1_555 1_555
C17_3 C16_3 1_555 1_555
H17_3 C17_3 1_555 1_555
C20_3 C15_3 1_555 1_555
H19_3 C20_3 1_555 1_555
Cu7_2 O2_2 1_555 1_555
N8_2 Cu5_2 1_555 1_555
N1_3 N2_3 1_555 1_555
N3_3 C2_3 1_555 1_555
N6_3 C11_3 1_555 1_555
C8_3 C9_3 1_555 1_555
N3_4 C1_4 1_555 1_555
N7 N8_2 1_555 1_555
N8_2 C12_4 1_555 1_555
N6_4 C10_4 1_555 1_555
C1_4 N1_4 1_555 1_555
H2_4 C1_4 1_555 1_555
C2_4 N2_4 1_555 1_555
H3_4 C2_4 1_555 1_555
C3_4 N3_4 1_555 1_555
H4_4 C3_4 1_555 1_555
H5_4 C3_4 1_555 1_555
C4_4 C3_4 1_555 1_555
C5_4 C4_4 1_555 1_555
H6_4 C5_4 1_555 1_555
C6_4 C5_4 1_555 1_555
H7_4 C6_4 1_555 1_555
C7_4 C6_4 1_555 1_555
H8_4 C7_4 1_555 1_555
C8_4 C7_4 1_555 1_555
C9_4 C4_4 1_555 1_555
H9_4 C9_4 1_555 1_555
C10_4 C8_4 1_555 1_555
H10_4 C10_4 1_555 1_555
H11_4 C10_4 1_555 1_555
C11_4 N7 1_555 1_555
H12_4 C11_4 1_555 1_555
C12_4 N6_4 1_555 1_555
H13_4 C12_4 1_555 1_555
N1_4 N2_4 1_555 1_555
N3_4 C2_4 1_555 1_555
N6_4 C11_4 1_555 1_555
C8_4 C9_4 1_555 1_555
O6 C13_4 1_555 1_555
O7_2 C13_4 1_555 1_555
H1_4 O8_2 1_555 1_555
C13_4 C14_4 1_555 1_555
C14_4 H14_4 1_555 1_555
H15_4 C14_4 1_555 1_555
C15_4 C14_4 1_555 1_555
C16_4 C15_4 1_555 1_555
H16_4 C16_4 1_555 1_555
C17_4 C16_4 1_555 1_555
H17_4 C17_4 1_555 1_555
C20_4 C15_4 1_555 1_555
H19_4 C20_4 1_555 1_555
C19_3 C18_3 1_555 1_555
H18_3 C19_3 1_555 1_555
C21_3 C18_3 1_555 1_555
H20_3 C21_3 1_555 1_555
H21_3 C21_3 1_555 1_555
C22_3 O4_3 1_555 1_555
C21_3 C22_3 1_555 1_555
C19_4 C18_4 1_555 1_555
H18_4 C19_4 1_555 1_555
C21_4 C18_4 1_555 1_555
H20_4 C21_4 1_555 1_555
H21_4 C21_4 1_555 1_555
C22_4 O4_4 1_555 1_555
C21_4 C22_4 1_555 1_555
Cr1 O9 1_555 1_555
Cr2 O12 1_555 1_555
O11 Cr1 1_555 1_555
O12 Cr1 1_555 1_555
O13 Cr2 1_555 1_555
O14 Cr2 1_555 1_555
O15 Cr2 1_555 1_555
O15 H22 1_555 1_555
Cr1_2 O9_2 1_555 1_555
Cr2_2 O12_2 1_555 1_555
O10_2 Cr1_2 1_555 1_555
O11_2 Cr1_2 1_555 1_555
O12_2 Cr1_2 1_555 1_555
O13_2 Cr2_2 1_555 1_555
O15_2 Cr2_2 1_555 1_555
O15_2 H22_2 1_555 1_555
O11_2 H23_2 1_555 1_555
Cr1_3 O9_3 1_555 1_555
Cr2_3 O12_3 1_555 1_555
O11_3 Cr1_3 1_555 1_555
O12_3 Cr1_3 1_555 1_555
O13_3 Cr2_3 1_555 1_555
O14_3 Cr2_3 1_555 1_555
O15_3 Cr2_3 1_555 1_555
O15_3 H22_3 1_555 1_555
Cr1_4 O9_4 1_555 1_555
Cr2_4 O12_4 1_555 1_555
O10_4 Cr1_4 1_555 1_555
O11_4 Cr1_4 1_555 1_555
O12_4 Cr1_4 1_555 1_555
O13_4 Cr2_4 1_555 1_555
O15_4 Cr2_4 1_555 1_555
O15_4 H22_4 1_555 1_555
O11_4 H23_4 1_555 1_555

#END
