
###############################################################################
#
# This file contains modified crystal structure data generated from the
# MOF subset of the Cambridge Structural Database (CSD) v543 
# hosted by the Cambridge Crystallographic Data Centre (CCDC).
#
# This work is licensed under the Creative Commons
# Attribution-NonCommercial-ShareAlike 4.0 International License.
# To view a copy of this license, visit
# http://creativecommons.org/licenses/by-nc-sa/4.0/
# or send a letter to
# Creative Commons, PO Box 1866, Mountain View, CA 94042, USA.
#
# CIF created using the CSD Python API on 29 September 2022
# The structure has been converted into the P1 space group
# The structure has a 3D framework
# The original CSD entry BAMMOU is in the hexagonal crystal system
# The original CSD entry BAMMOU is in a Sohncke space group
# The framework has been calculated to contain at least 10.0% void space
# The void calculation uses a probe of radius 1.32A, grid spacing 0.4
# The framework is charged, counterions have been retained in the structure
#
###############################################################################

data_BAMMOU
_chemical_formula_moiety         '(C72 H120 Cu20 N36 O24 4+)n'
_symmetry_cell_setting           triclinic
_symmetry_space_group_name_H-M   'P 1'
_symmetry_Int_Tables_number      1
_space_group_name_Hall           'P 1'
loop_
_symmetry_equiv_pos_site_id
_symmetry_equiv_pos_as_xyz
1 x,y,z
_cell_length_a                   19.6977(13)
_cell_length_b                   19.6977(13)
_cell_length_c                   13.8757(10)
_cell_angle_alpha                90
_cell_angle_beta                 90
_cell_angle_gamma                120
_cell_volume                     4662.48
loop_
_atom_site_label
_atom_site_type_symbol
_atom_site_fract_x
_atom_site_fract_y
_atom_site_fract_z
Cu9 Cu 0.000000 0.45634(10) 0.000000
Cu3 Cu 0.000000 0.54366(10) 0.500000
N20 N 0.0974(4) 0.5951(6) 0.4381(5)
Cu9_2 Cu 0.000000 0.45634(10) 1.000000
C21 C 0.6262(8) 0.1695(8) 0.0405(9)
H31 H 0.668210 0.224224 0.045737
O7 O 0.6584(8) 0.1196(9) 0.0285(9)
H32 H 0.643402 0.087492 0.072420
C22 C 0.5767(9) 0.1445(11) 0.1315(9)
H33 H 0.554316 0.177581 0.141036
H34 H 0.535461 0.091057 0.125262
H35 H 0.608984 0.149262 0.185824
C27 C 0.8305(8) 0.4567(11) 0.0405(9)
H41 H 0.775776 0.443986 0.045737
O9 O 0.8804(9) 0.5388(12) 0.0285(9)
H42 H 0.912508 0.555910 0.072420
C28 C 0.8555(11) 0.4322(14) 0.1315(9)
H43 H 0.822419 0.376735 0.141036
H44 H 0.908943 0.444404 0.125262
H45 H 0.850738 0.459722 0.185824
C33 C 0.5433(11) 0.3738(8) 0.0405(9)
H51 H 0.556014 0.331790 0.045737
O11 O 0.4612(12) 0.3416(8) 0.0285(9)
H52 H 0.444090 0.356598 0.072420
C34 C 0.5678(14) 0.4233(9) 0.1315(9)
H53 H 0.623265 0.445684 0.141036
H54 H 0.555596 0.464539 0.125262
H55 H 0.540278 0.391016 0.185824
Cu9_3 Cu 1.000000 0.45634(10) 0.000000
Cu10 Cu 0.45634(10) 0.000000 0.000000
Cu11 Cu 0.54366(10) 0.54366(10) 0.000000
C1 C 0.8391(5) 0.4312(7) 0.5381(6)
C2 C 0.8768(6) 0.5214(6) 0.6359(6)
C3 C 0.8305(8) 0.3738(8) 0.4595(9)
H1 H 0.775776 0.331790 0.454263
O1 O 0.8804(9) 0.3416(8) 0.4715(9)
H2 H 0.912508 0.356598 0.427580
N1 N 0.8054(3) 0.4748(4) 0.6564(4)
N2 N 0.7782(4) 0.4133(4) 0.5935(5)
N3 N 0.9026(4) 0.4977(5) 0.5619(5)
Cu1 Cu 0.73939(4) 0.47879(7) 0.750000
Cu2 Cu 0.666667 0.333333 0.59178(11)
Cu3_2 Cu 1.000000 0.54366(10) 0.500000
C4 C 0.8555(11) 0.4233(9) 0.3685(9)
H3 H 0.822419 0.445684 0.358964
H4 H 0.908943 0.464539 0.374738
H5 H 0.850738 0.391016 0.314176
C5 C 0.9321(7) 0.6001(8) 0.6860(8)
H6 H 0.965345 0.639341 0.638164
O2 O 0.9792(8) 0.5936(8) 0.7588(11)
H7 H 0.965575 0.601139 0.811739
C6 C 0.8780(8) 0.6244(10) 0.7338(15)
H8 H 0.845617 0.629154 0.685734
H9 H 0.845535 0.585398 0.780145
H10 H 0.908834 0.673829 0.765610
C7 C 0.5688(7) 0.4079(9) 0.5381(6)
C8 C 0.4786(6) 0.3554(8) 0.6359(6)
C9 C 0.6262(8) 0.4567(11) 0.4595(9)
H11 H 0.668210 0.443986 0.454263
O3 O 0.6584(8) 0.5388(12) 0.4715(9)
H12 H 0.643402 0.555910 0.427580
N4 N 0.5252(4) 0.3306(5) 0.6564(4)
N5 N 0.5867(4) 0.3649(6) 0.5935(5)
N6 N 0.5023(5) 0.4049(6) 0.5619(5)
Cu4 Cu 0.52121(7) 0.26060(8) 0.750000
Cu5 Cu 0.45634(10) 0.45634(10) 0.500000
C10 C 0.5767(9) 0.4322(14) 0.3685(9)
H13 H 0.554316 0.376735 0.358964
H14 H 0.535461 0.444404 0.374738
H15 H 0.608984 0.459722 0.314176
C11 C 0.3999(8) 0.3320(11) 0.6860(8)
H16 H 0.360659 0.326004 0.638164
O4 O 0.4064(8) 0.3856(11) 0.7588(11)
H17 H 0.398861 0.364436 0.811739
C12 C 0.3756(10) 0.2536(13) 0.7338(15)
H18 H 0.370846 0.216463 0.685734
H19 H 0.414602 0.260137 0.780145
H20 H 0.326171 0.235005 0.765610
C13 C 0.5921(9) 0.1609(5) 0.5381(6)
C14 C 0.6446(8) 0.1232(6) 0.6359(6)
C15 C 0.5433(11) 0.1695(8) 0.4595(9)
H21 H 0.556014 0.224224 0.454263
O5 O 0.4612(12) 0.1196(9) 0.4715(9)
H22 H 0.444090 0.087492 0.427580
N7 N 0.6694(5) 0.1946(3) 0.6564(4)
N8 N 0.6351(6) 0.2218(4) 0.5935(5)
N9 N 0.5951(6) 0.0974(4) 0.5619(5)
Cu6 Cu 0.73940(8) 0.26061(4) 0.750000
Cu7 Cu 0.54366(10) 0.000000 0.500000
C16 C 0.5678(14) 0.1445(11) 0.3685(9)
H23 H 0.623265 0.177581 0.358964
H24 H 0.555596 0.091057 0.374738
H25 H 0.540278 0.149262 0.314176
C17 C 0.6680(11) 0.0679(7) 0.6860(8)
H26 H 0.673996 0.034655 0.638164
O6 O 0.6144(11) 0.0208(8) 0.7588(11)
H27 H 0.635564 0.034425 0.811739
C18 C 0.7464(13) 0.1220(8) 0.7338(15)
H28 H 0.783537 0.154383 0.685734
H29 H 0.739863 0.154465 0.780145
H30 H 0.764995 0.091166 0.765610
C19 C 0.5688(7) 0.1609(5) 0.9619(6)
C20 C 0.4786(6) 0.1232(6) 0.8641(6)
N10 N 0.5252(4) 0.1946(3) 0.8436(4)
N11 N 0.5867(4) 0.2218(4) 0.9065(5)
N12 N 0.5023(5) 0.0974(4) 0.9381(5)
Cu8 Cu 0.666667 0.333333 0.90822(11)
C23 C 0.3999(8) 0.0679(7) 0.8140(8)
H36 H 0.360659 0.034655 0.861836
O8 O 0.4064(8) 0.0208(8) 0.7412(11)
H37 H 0.398861 0.034425 0.688261
C24 C 0.3756(10) 0.1220(8) 0.7662(15)
H38 H 0.370846 0.154383 0.814266
H39 H 0.414602 0.154465 0.719855
H40 H 0.326171 0.091166 0.734390
C25 C 0.8391(5) 0.4079(9) 0.9619(6)
C26 C 0.8768(6) 0.3554(8) 0.8641(6)
N13 N 0.8054(3) 0.3306(5) 0.8436(4)
N14 N 0.7782(4) 0.3649(6) 0.9065(5)
N15 N 0.9026(4) 0.4049(6) 0.9381(5)
C29 C 0.9321(7) 0.3320(11) 0.8140(8)
H46 H 0.965345 0.326004 0.861836
O10 O 0.9792(8) 0.3856(11) 0.7412(11)
H47 H 0.965575 0.364436 0.688261
C30 C 0.8780(8) 0.2536(13) 0.7662(15)
H48 H 0.845617 0.216463 0.814266
H49 H 0.845535 0.260137 0.719855
H50 H 0.908834 0.235005 0.734390
C31 C 0.5921(9) 0.4312(7) 0.9619(6)
C32 C 0.6446(8) 0.5214(6) 0.8641(6)
N16 N 0.6694(5) 0.4748(4) 0.8436(4)
N17 N 0.6351(6) 0.4133(4) 0.9065(5)
N18 N 0.5951(6) 0.4977(5) 0.9381(5)
C35 C 0.6680(11) 0.6001(8) 0.8140(8)
H56 H 0.673996 0.639341 0.861836
O12 O 0.6144(11) 0.5936(8) 0.7412(11)
H57 H 0.635564 0.601139 0.688261
C36 C 0.7464(13) 0.6244(10) 0.7662(15)
H58 H 0.783537 0.629154 0.814266
H59 H 0.739863 0.585398 0.719855
H60 H 0.764995 0.673829 0.734390
N19 N 0.4049(6) 0.5023(5) 0.4381(5)
Cu9_4 Cu 1.000000 0.45634(10) 1.000000
Cu10_2 Cu 0.45634(10) 0.000000 1.000000
Cu11_2 Cu 0.54366(10) 0.54366(10) 1.000000
Cu10_3 Cu 0.45634(10) 1.000000 0.000000
Cu7_2 Cu 0.54366(10) 1.000000 0.500000
N21 N 0.4977(5) 0.9026(4) 0.4381(5)
Cu10_4 Cu 0.45634(10) 1.000000 1.000000
C1_2 C 0.1609(5) 0.5688(7) 0.0381(6)
C2_2 C 0.1232(6) 0.4786(6) 0.1359(6)
N1_2 N 0.1946(3) 0.5252(4) 0.1564(4)
N2_2 N 0.2218(4) 0.5867(4) 0.0935(5)
N3_2 N 0.0974(4) 0.5023(5) 0.0619(5)
Cu1_2 Cu 0.26061(4) 0.52121(7) 0.250000
Cu2_2 Cu 0.333333 0.666667 0.09178(11)
C5_2 C 0.0679(7) 0.3999(8) 0.1860(8)
H6_2 H 0.034655 0.360659 0.138164
O2_2 O 0.0208(8) 0.4064(8) 0.2588(11)
H7_2 H 0.034425 0.398861 0.311739
C6_2 C 0.1220(8) 0.3756(10) 0.2338(15)
H8_2 H 0.154383 0.370846 0.185734
H9_2 H 0.154465 0.414602 0.280145
H10_2 H 0.091166 0.326171 0.265610
C7_2 C 0.4312(7) 0.5921(9) 0.0381(6)
C8_2 C 0.5214(6) 0.6446(8) 0.1359(6)
N4_2 N 0.4748(4) 0.6694(5) 0.1564(4)
N5_2 N 0.4133(4) 0.6351(6) 0.0935(5)
N6_2 N 0.4977(5) 0.5951(6) 0.0619(5)
Cu4_2 Cu 0.47879(7) 0.73940(8) 0.250000
C11_2 C 0.6001(8) 0.6680(11) 0.1860(8)
H16_2 H 0.639341 0.673996 0.138164
O4_2 O 0.5936(8) 0.6144(11) 0.2588(11)
H17_2 H 0.601139 0.635564 0.311739
C12_2 C 0.6244(10) 0.7464(13) 0.2338(15)
H18_2 H 0.629154 0.783537 0.185734
H19_2 H 0.585398 0.739863 0.280145
H20_2 H 0.673829 0.764995 0.265610
C13_2 C 0.4079(9) 0.8391(5) 0.0381(6)
C14_2 C 0.3554(8) 0.8768(6) 0.1359(6)
N7_2 N 0.3306(5) 0.8054(3) 0.1564(4)
N8_2 N 0.3649(6) 0.7782(4) 0.0935(5)
N9_2 N 0.4049(6) 0.9026(4) 0.0619(5)
Cu6_2 Cu 0.26060(8) 0.73939(4) 0.250000
C17_2 C 0.3320(11) 0.9321(7) 0.1860(8)
H26_2 H 0.326004 0.965345 0.138164
O6_2 O 0.3856(11) 0.9792(8) 0.2588(11)
H27_2 H 0.364436 0.965575 0.311739
C18_2 C 0.2536(13) 0.8780(8) 0.2338(15)
H28_2 H 0.216463 0.845617 0.185734
H29_2 H 0.260137 0.845535 0.280145
H30_2 H 0.235005 0.908834 0.265610
C19_2 C 0.4312(7) 0.8391(5) 0.4619(6)
C20_2 C 0.5214(6) 0.8768(6) 0.3641(6)
C21_2 C 0.3738(8) 0.8305(8) 0.5405(9)
H31_2 H 0.331790 0.775776 0.545737
O7_2 O 0.3416(8) 0.8804(9) 0.5285(9)
H32_2 H 0.356598 0.912508 0.572420
N10_2 N 0.4748(4) 0.8054(3) 0.3436(4)
N11_2 N 0.4133(4) 0.7782(4) 0.4065(5)
Cu8_2 Cu 0.333333 0.666667 0.40822(11)
C22_2 C 0.4233(9) 0.8555(11) 0.6315(9)
H33_2 H 0.445684 0.822419 0.641036
H34_2 H 0.464539 0.908943 0.625262
H35_2 H 0.391016 0.850738 0.685824
C23_2 C 0.6001(8) 0.9321(7) 0.3140(8)
H36_2 H 0.639341 0.965345 0.361836
O8_2 O 0.5936(8) 0.9792(8) 0.2412(11)
H37_2 H 0.601139 0.965575 0.188261
C24_2 C 0.6244(10) 0.8780(8) 0.2662(15)
H38_2 H 0.629154 0.845617 0.314266
H39_2 H 0.585398 0.845535 0.219855
H40_2 H 0.673829 0.908834 0.234390
C25_2 C 0.1609(5) 0.5921(9) 0.4619(6)
C26_2 C 0.1232(6) 0.6446(8) 0.3641(6)
C27_2 C 0.1695(8) 0.5433(11) 0.5405(9)
H41_2 H 0.224224 0.556014 0.545737
O9_2 O 0.1196(9) 0.4612(12) 0.5285(9)
H42_2 H 0.087492 0.444090 0.572420
N13_2 N 0.1946(3) 0.6694(5) 0.3436(4)
N14_2 N 0.2218(4) 0.6351(6) 0.4065(5)
C28_2 C 0.1445(11) 0.5678(14) 0.6315(9)
H43_2 H 0.177581 0.623265 0.641036
H44_2 H 0.091057 0.555596 0.625262
H45_2 H 0.149262 0.540278 0.685824
C29_2 C 0.0679(7) 0.6680(11) 0.3140(8)
H46_2 H 0.034655 0.673996 0.361836
O10_2 O 0.0208(8) 0.6144(11) 0.2412(11)
H47_2 H 0.034425 0.635564 0.188261
C30_2 C 0.1220(8) 0.7464(13) 0.2662(15)
H48_2 H 0.154383 0.783537 0.314266
H49_2 H 0.154465 0.739863 0.219855
H50_2 H 0.091166 0.764995 0.234390
C31_2 C 0.4079(9) 0.5688(7) 0.4619(6)
C32_2 C 0.3554(8) 0.4786(6) 0.3641(6)
C33_2 C 0.4567(11) 0.6262(8) 0.5405(9)
H51_2 H 0.443986 0.668210 0.545737
O11_2 O 0.5388(12) 0.6584(8) 0.5285(9)
H52_2 H 0.555910 0.643402 0.572420
N16_2 N 0.3306(5) 0.5252(4) 0.3436(4)
N17_2 N 0.3649(6) 0.5867(4) 0.4065(5)
C34_2 C 0.4322(14) 0.5767(9) 0.6315(9)
H53_2 H 0.376735 0.554316 0.641036
H54_2 H 0.444404 0.535461 0.625262
H55_2 H 0.459722 0.608984 0.685824
C35_2 C 0.3320(11) 0.3999(8) 0.3140(8)
H56_2 H 0.326004 0.360659 0.361836
O12_2 O 0.3856(11) 0.4064(8) 0.2412(11)
H57_2 H 0.364436 0.398861 0.188261
C36_2 C 0.2536(13) 0.3756(10) 0.2662(15)
H58_2 H 0.216463 0.370846 0.314266
H59_2 H 0.260137 0.414602 0.219855
H60_2 H 0.235005 0.326171 0.234390
C3_2 C 0.1695(8) 0.6262(8) 0.9595(9)
H1_2 H 0.224224 0.668210 0.954263
O1_2 O 0.1196(9) 0.6584(8) 0.9715(9)
H2_2 H 0.087492 0.643402 0.927580
C4_2 C 0.1445(11) 0.5767(9) 0.8685(9)
H3_2 H 0.177581 0.554316 0.858964
H4_2 H 0.091057 0.535461 0.874738
H5_2 H 0.149262 0.608984 0.814176
C9_2 C 0.3738(8) 0.5433(11) 0.9595(9)
H11_2 H 0.331790 0.556014 0.954263
O3_2 O 0.3416(8) 0.4612(12) 0.9715(9)
H12_2 H 0.356598 0.444090 0.927580
C10_2 C 0.4233(9) 0.5678(14) 0.8685(9)
H13_2 H 0.445684 0.623265 0.858964
H14_2 H 0.464539 0.555596 0.874738
H15_2 H 0.391016 0.540278 0.814176
C15_2 C 0.4567(11) 0.8305(8) 0.9595(9)
H21_2 H 0.443986 0.775776 0.954263
O5_2 O 0.5388(12) 0.8804(9) 0.9715(9)
H22_2 H 0.555910 0.912508 0.927580
C16_2 C 0.4322(14) 0.8555(11) 0.8685(9)
H23_2 H 0.376735 0.822419 0.858964
H24_2 H 0.444404 0.908943 0.874738
H25_2 H 0.459722 0.850738 0.814176
loop_
_geom_bond_atom_site_label_1
_geom_bond_atom_site_label_2
_geom_bond_site_symmetry_1
_geom_bond_site_symmetry_2
N20 Cu3 1_555 1_555
C21 H31 1_555 1_555
O7 C21 1_555 1_555
H32 O7 1_555 1_555
C22 C21 1_555 1_555
H33 C22 1_555 1_555
H34 C22 1_555 1_555
H35 C22 1_555 1_555
C27 H41 1_555 1_555
O9 C27 1_555 1_555
H42 O9 1_555 1_555
C28 C27 1_555 1_555
H43 C28 1_555 1_555
H44 C28 1_555 1_555
H45 C28 1_555 1_555
C33 H51 1_555 1_555
O11 C33 1_555 1_555
H52 O11 1_555 1_555
C34 C33 1_555 1_555
H53 C34 1_555 1_555
H54 C34 1_555 1_555
H55 C34 1_555 1_555
C1 C3 1_555 1_555
C2 N1 1_555 1_555
C3 H1 1_555 1_555
O1 C3 1_555 1_555
H2 O1 1_555 1_555
N1 N2 1_555 1_555
N2 C1 1_555 1_555
N3 C1 1_555 1_555
Cu1 N1 1_555 1_555
Cu2 N2 1_555 1_555
Cu3_2 N3 1_555 1_555
C4 C3 1_555 1_555
H3 C4 1_555 1_555
H4 C4 1_555 1_555
H5 C4 1_555 1_555
C5 C2 1_555 1_555
H6 C5 1_555 1_555
O2 C5 1_555 1_555
H7 O2 1_555 1_555
C6 C5 1_555 1_555
H8 C6 1_555 1_555
H9 C6 1_555 1_555
H10 C6 1_555 1_555
C7 C9 1_555 1_555
C8 N4 1_555 1_555
C9 H11 1_555 1_555
O3 C9 1_555 1_555
H12 O3 1_555 1_555
N4 N5 1_555 1_555
N5 Cu2 1_555 1_555
N6 C7 1_555 1_555
Cu4 N4 1_555 1_555
Cu5 N6 1_555 1_555
C10 C9 1_555 1_555
H13 C10 1_555 1_555
H14 C10 1_555 1_555
H15 C10 1_555 1_555
C11 C8 1_555 1_555
H16 C11 1_555 1_555
O4 C11 1_555 1_555
H17 O4 1_555 1_555
C12 C11 1_555 1_555
H18 C12 1_555 1_555
H19 C12 1_555 1_555
H20 C12 1_555 1_555
C13 C15 1_555 1_555
C14 N7 1_555 1_555
C15 H21 1_555 1_555
O5 C15 1_555 1_555
H22 O5 1_555 1_555
N7 N8 1_555 1_555
N8 Cu2 1_555 1_555
N9 C13 1_555 1_555
Cu6 N7 1_555 1_555
Cu7 N9 1_555 1_555
C16 C15 1_555 1_555
H23 C16 1_555 1_555
H24 C16 1_555 1_555
H25 C16 1_555 1_555
C17 C14 1_555 1_555
H26 C17 1_555 1_555
O6 C17 1_555 1_555
H27 O6 1_555 1_555
C18 C17 1_555 1_555
H28 C18 1_555 1_555
H29 C18 1_555 1_555
H30 C18 1_555 1_555
C20 N10 1_555 1_555
N10 Cu4 1_555 1_555
N11 C19 1_555 1_555
N12 C19 1_555 1_555
Cu8 N11 1_555 1_555
C23 C20 1_555 1_555
H36 C23 1_555 1_555
O8 C23 1_555 1_555
H37 O8 1_555 1_555
C24 C23 1_555 1_555
H38 C24 1_555 1_555
H39 C24 1_555 1_555
H40 C24 1_555 1_555
C26 N13 1_555 1_555
N13 Cu6 1_555 1_555
N14 Cu8 1_555 1_555
N15 C25 1_555 1_555
C29 C26 1_555 1_555
H46 C29 1_555 1_555
O10 C29 1_555 1_555
H47 O10 1_555 1_555
C30 C29 1_555 1_555
H48 C30 1_555 1_555
H49 C30 1_555 1_555
H50 C30 1_555 1_555
C32 N16 1_555 1_555
N16 Cu1 1_555 1_555
N17 Cu8 1_555 1_555
N18 C31 1_555 1_555
C35 C32 1_555 1_555
H56 C35 1_555 1_555
O12 C35 1_555 1_555
H57 O12 1_555 1_555
C36 C35 1_555 1_555
H58 C36 1_555 1_555
H59 C36 1_555 1_555
H60 C36 1_555 1_555
N19 Cu5 1_555 1_555
Cu9_4 N15 1_555 1_555
Cu10_2 N12 1_555 1_555
Cu11_2 N18 1_555 1_555
C2 N3 1_555 1_555
C7 N5 1_555 1_555
C8 N6 1_555 1_555
C13 N8 1_555 1_555
C14 N9 1_555 1_555
C20 N12 1_555 1_555
N10 N11 1_555 1_555
C25 N14 1_555 1_555
C26 N15 1_555 1_555
N13 N14 1_555 1_555
C31 N17 1_555 1_555
C32 N18 1_555 1_555
N16 N17 1_555 1_555
N21 Cu7_2 1_555 1_555
C2_2 N1_2 1_555 1_555
N1_2 N2_2 1_555 1_555
N2_2 C1_2 1_555 1_555
N3_2 C1_2 1_555 1_555
Cu1_2 N1_2 1_555 1_555
Cu2_2 N2_2 1_555 1_555
Cu9 N3_2 1_555 1_555
C5_2 C2_2 1_555 1_555
H6_2 C5_2 1_555 1_555
O2_2 C5_2 1_555 1_555
H7_2 O2_2 1_555 1_555
C6_2 C5_2 1_555 1_555
H8_2 C6_2 1_555 1_555
H9_2 C6_2 1_555 1_555
H10_2 C6_2 1_555 1_555
C8_2 N4_2 1_555 1_555
N4_2 N5_2 1_555 1_555
N5_2 Cu2_2 1_555 1_555
N6_2 C7_2 1_555 1_555
Cu4_2 N4_2 1_555 1_555
Cu11 N6_2 1_555 1_555
C11_2 C8_2 1_555 1_555
H16_2 C11_2 1_555 1_555
O4_2 C11_2 1_555 1_555
H17_2 O4_2 1_555 1_555
C12_2 C11_2 1_555 1_555
H18_2 C12_2 1_555 1_555
H19_2 C12_2 1_555 1_555
H20_2 C12_2 1_555 1_555
C14_2 N7_2 1_555 1_555
N7_2 N8_2 1_555 1_555
N8_2 Cu2_2 1_555 1_555
N9_2 C13_2 1_555 1_555
Cu6_2 N7_2 1_555 1_555
Cu10_3 N9_2 1_555 1_555
C17_2 C14_2 1_555 1_555
H26_2 C17_2 1_555 1_555
O6_2 C17_2 1_555 1_555
H27_2 O6_2 1_555 1_555
C18_2 C17_2 1_555 1_555
H28_2 C18_2 1_555 1_555
H29_2 C18_2 1_555 1_555
H30_2 C18_2 1_555 1_555
C19_2 C21_2 1_555 1_555
C20_2 N10_2 1_555 1_555
C21_2 H31_2 1_555 1_555
O7_2 C21_2 1_555 1_555
H32_2 O7_2 1_555 1_555
N10_2 Cu4_2 1_555 1_555
N11_2 C19_2 1_555 1_555
N21 C19_2 1_555 1_555
Cu8_2 N11_2 1_555 1_555
C22_2 C21_2 1_555 1_555
H33_2 C22_2 1_555 1_555
H34_2 C22_2 1_555 1_555
H35_2 C22_2 1_555 1_555
C23_2 C20_2 1_555 1_555
H36_2 C23_2 1_555 1_555
O8_2 C23_2 1_555 1_555
H37_2 O8_2 1_555 1_555
C24_2 C23_2 1_555 1_555
H38_2 C24_2 1_555 1_555
H39_2 C24_2 1_555 1_555
H40_2 C24_2 1_555 1_555
C25_2 C27_2 1_555 1_555
C26_2 N13_2 1_555 1_555
C27_2 H41_2 1_555 1_555
O9_2 C27_2 1_555 1_555
H42_2 O9_2 1_555 1_555
N13_2 Cu6_2 1_555 1_555
N14_2 Cu8_2 1_555 1_555
N20 C25_2 1_555 1_555
C28_2 C27_2 1_555 1_555
H43_2 C28_2 1_555 1_555
H44_2 C28_2 1_555 1_555
H45_2 C28_2 1_555 1_555
C29_2 C26_2 1_555 1_555
H46_2 C29_2 1_555 1_555
O10_2 C29_2 1_555 1_555
H47_2 O10_2 1_555 1_555
C30_2 C29_2 1_555 1_555
H48_2 C30_2 1_555 1_555
H49_2 C30_2 1_555 1_555
H50_2 C30_2 1_555 1_555
C31_2 C33_2 1_555 1_555
C32_2 N16_2 1_555 1_555
C33_2 H51_2 1_555 1_555
O11_2 C33_2 1_555 1_555
H52_2 O11_2 1_555 1_555
N16_2 Cu1_2 1_555 1_555
N17_2 Cu8_2 1_555 1_555
N19 C31_2 1_555 1_555
C34_2 C33_2 1_555 1_555
H53_2 C34_2 1_555 1_555
H54_2 C34_2 1_555 1_555
H55_2 C34_2 1_555 1_555
C35_2 C32_2 1_555 1_555
H56_2 C35_2 1_555 1_555
O12_2 C35_2 1_555 1_555
H57_2 O12_2 1_555 1_555
C36_2 C35_2 1_555 1_555
H58_2 C36_2 1_555 1_555
H59_2 C36_2 1_555 1_555
H60_2 C36_2 1_555 1_555
C2_2 N3_2 1_555 1_555
C7_2 N5_2 1_555 1_555
C8_2 N6_2 1_555 1_555
C13_2 N8_2 1_555 1_555
C14_2 N9_2 1_555 1_555
C20_2 N21 1_555 1_555
N10_2 N11_2 1_555 1_555
C25_2 N14_2 1_555 1_555
C26_2 N20 1_555 1_555
N13_2 N14_2 1_555 1_555
C31_2 N17_2 1_555 1_555
C32_2 N19 1_555 1_555
N16_2 N17_2 1_555 1_555
C3_2 H1_2 1_555 1_555
O1_2 C3_2 1_555 1_555
H2_2 O1_2 1_555 1_555
C4_2 C3_2 1_555 1_555
H3_2 C4_2 1_555 1_555
H4_2 C4_2 1_555 1_555
H5_2 C4_2 1_555 1_555
C9_2 H11_2 1_555 1_555
O3_2 C9_2 1_555 1_555
H12_2 O3_2 1_555 1_555
C10_2 C9_2 1_555 1_555
H13_2 C10_2 1_555 1_555
H14_2 C10_2 1_555 1_555
H15_2 C10_2 1_555 1_555
C15_2 H21_2 1_555 1_555
O5_2 C15_2 1_555 1_555
H22_2 O5_2 1_555 1_555
C16_2 C15_2 1_555 1_555
H23_2 C16_2 1_555 1_555
H24_2 C16_2 1_555 1_555
H25_2 C16_2 1_555 1_555

#END
