
###############################################################################
#
# This file contains modified crystal structure data generated from the
# MOF subset of the Cambridge Structural Database (CSD) v543 
# hosted by the Cambridge Crystallographic Data Centre (CCDC).
#
# This work is licensed under the Creative Commons
# Attribution-NonCommercial-ShareAlike 4.0 International License.
# To view a copy of this license, visit
# http://creativecommons.org/licenses/by-nc-sa/4.0/
# or send a letter to
# Creative Commons, PO Box 1866, Mountain View, CA 94042, USA.
#
# CIF created using the CSD Python API on 29 September 2022
# The structure has been converted into the P1 space group
# The structure has a 3D framework
# The original CSD entry BANJUZ is in the triclinic crystal system
# The framework has been calculated to contain at least 10.0% void space
# The void calculation uses a probe of radius 1.32A, grid spacing 0.4
#
###############################################################################

data_BANJUZ
_chemical_formula_moiety         '(C150 H132 Cl2 Cu2 Mn8 N24 O20)n'
_symmetry_cell_setting           triclinic
_symmetry_space_group_name_H-M   'P 1'
_symmetry_Int_Tables_number      1
_space_group_name_Hall           'P 1'
loop_
_symmetry_equiv_pos_site_id
_symmetry_equiv_pos_as_xyz
1 x,y,z
_cell_length_a                   12.308(3)
_cell_length_b                   12.898(3)
_cell_length_c                   30.822(6)
_cell_angle_alpha                94.70(3)
_cell_angle_beta                 95.44(3)
_cell_angle_gamma                92.66(3)
_cell_volume                     4847.29
loop_
_atom_site_label
_atom_site_type_symbol
_atom_site_fract_x
_atom_site_fract_y
_atom_site_fract_z
Mn1 Mn -0.000000 0.500000 0.500000
Mn3 Mn -0.000000 0.500000 0.000000
H11 H 0.004056 0.219619 0.548391
H12 H 0.000446 0.050441 0.572464
C150 C 0.0085(8) 0.4398(6) 0.0998(6)
O23 O 0.0794(6) 0.4584(5) 0.1334(4)
O24 O 0.0321(5) 0.4242(4) 0.0611(3)
Mn18 Mn 0.20894(10) 0.43419(7) 0.08034(6)
O25 O 0.0940(6) 0.6192(4) 0.4752(3)
O28 O 0.0013(5) 0.4034(3) 0.4384(3)
O31 O 0.1368(5) 0.4218(4) 0.5254(3)
O33 O 0.1159(6) 0.6231(4) 0.0253(3)
Mn3_2 Mn -0.000000 0.500000 1.000000
O16 O 0.0104(5) 0.4092(4) 0.3658(3)
Mn13 Mn 0.16702(10) 0.40366(7) 0.41894(5)
O32 O 0.1168(5) 0.4072(4) 0.9720(3)
Mn1_2 Mn 1.000000 0.500000 0.500000
Mn2 Mn 0.83298(10) 0.59634(7) 0.58106(5)
Mn3_3 Mn 1.000000 0.500000 0.000000
H6 H 0.816789 0.042456 0.690834
C7 C 0.8573(7) 0.0531(5) 0.5975(4)
C8 C 0.7719(7) 0.1156(5) 0.6050(4)
H9 H 0.712846 0.091473 0.618794
C9 C 0.7765(8) 0.2144(6) 0.5916(4)
H10 H 0.717797 0.255446 0.596047
C10 C 0.8576(8) 0.2548(5) 0.5730(4)
C11 C 0.9471(7) 0.1944(6) 0.5630(4)
C12 C 0.9427(8) 0.0926(5) 0.5772(4)
C13 C 0.8601(9) 0.3653(6) 0.5583(4)
O1 O 0.8154(5) 0.4329(4) 0.5825(3)
O2 O 0.9060(6) 0.3808(4) 0.5248(3)
C26 C 0.4020(11) 0.8529(12) 0.2438(5)
H23 H 0.355574 0.789453 0.238724
H24 H 0.354868 0.910983 0.242170
N5 N 0.4557(12) 0.8574(10) 0.2873(5)
N6 N 0.5071(14) 0.9455(10) 0.2994(5)
C27 C 0.5578(19) 0.9242(12) 0.3394(6)
C28 C 0.5419(12) 0.8255(9) 0.3494(5)
C29 C 0.4810(11) 0.7798(9) 0.3133(5)
C31 C 0.4460(18) 0.6695(11) 0.3002(7)
H28 H 0.435519 0.633965 0.325752
H29 H 0.501191 0.636826 0.284662
H30 H 0.378647 0.666070 0.281531
C32 C 0.5992(12) 0.7713(9) 0.3846(5)
C33 C 0.6780(11) 0.7026(9) 0.3736(5)
H31 H 0.693168 0.688552 0.344799
C34 C 0.7352(9) 0.6539(8) 0.4091(5)
H32 H 0.787306 0.606515 0.402579
C35 C 0.7166(8) 0.6738(6) 0.4502(5)
C36 C 0.6385(8) 0.7413(8) 0.4592(5)
H33 H 0.623131 0.753343 0.488128
C37 C 0.5815(13) 0.7924(9) 0.4281(6)
H34 H 0.531428 0.840635 0.436032
C38 C 0.7810(8) 0.6215(6) 0.4857(5)
O5 O 0.8632(5) 0.5782(4) 0.4746(3)
O6 O 0.7488(6) 0.6298(4) 0.5231(3)
N7 N 0.4704(10) 0.8557(9) 0.2095(4)
N8 N 0.5179(9) 0.9494(9) 0.2044(5)
C39 C 0.5712(12) 0.9302(11) 0.1741(6)
C40 C 0.5628(11) 0.8307(10) 0.1570(5)
C41 C 0.4989(12) 0.7778(10) 0.1793(5)
C43 C 0.4552(13) 0.6713(11) 0.1788(6)
H38 H 0.468041 0.633113 0.151893
H39 H 0.378040 0.671078 0.181321
H40 H 0.490606 0.639131 0.202980
C44 C 0.6243(10) 0.7828(9) 0.1192(5)
C45 C 0.5938(9) 0.7908(8) 0.0766(5)
H41 H 0.535175 0.831547 0.069795
C46 C 0.6420(8) 0.7437(7) 0.0424(4)
H42 H 0.614642 0.750753 0.013634
C47 C 0.7364(7) 0.6828(6) 0.0516(5)
C48 C 0.7700(11) 0.6774(9) 0.0970(5)
H43 H 0.829436 0.638461 0.104789
C49 C 0.7178(11) 0.7275(11) 0.1298(5)
H44 H 0.744375 0.724822 0.158891
C50 C 0.7883(8) 0.6277(6) 0.0177(5)
O8 O 0.8832(5) 0.5928(4) 0.0280(3)
C126 C 0.2970(7) 0.3377(5) 0.1713(4)
H111 H 0.320044 0.314957 0.199770
H112 H 0.244671 0.390901 0.175107
N21 N 0.2456(6) 0.2491(4) 0.1424(3)
N22 N 0.1942(7) 0.2675(4) 0.1044(3)
C127 C 0.1659(7) 0.1772(5) 0.0826(4)
C128 C 0.2048(6) 0.0973(5) 0.1084(4)
C129 C 0.2538(7) 0.1470(5) 0.1483(4)
C130 C 0.1051(11) 0.1670(6) 0.0380(4)
H113 H 0.156177 0.168972 0.016373
H114 H 0.062655 0.101991 0.033727
H115 H 0.057436 0.223438 0.035309
C131 C 0.2969(9) 0.1050(7) 0.1890(4)
H116 H 0.278210 0.148633 0.213636
H117 H 0.265778 0.035722 0.190049
H118 H 0.375012 0.103173 0.189915
N23 N 0.3896(5) 0.3799(4) 0.1524(3)
N24 N 0.3689(5) 0.4299(5) 0.1162(3)
C139 C 0.4669(9) 0.4515(6) 0.1034(4)
C140 C 0.5530(7) 0.4107(6) 0.1312(4)
C141 C 0.5003(8) 0.3657(6) 0.1620(4)
C142 C 0.4807(9) 0.5082(11) 0.0615(6)
H123 H 0.452617 0.576262 0.064907
H124 H 0.556830 0.514577 0.057116
H125 H 0.441292 0.468741 0.036754
C143 C 0.5451(9) 0.3134(8) 0.2016(5)
H126 H 0.505210 0.248043 0.202678
H127 H 0.620965 0.301406 0.199618
H128 H 0.537656 0.357493 0.227686
C144 C 0.6696(9) 0.4141(7) 0.1237(5)
C145 C 0.7498(8) 0.4507(8) 0.1591(5)
H129 H 0.726446 0.469354 0.186380
C146 C 0.8582(9) 0.4591(9) 0.1545(5)
H130 H 0.909172 0.483768 0.177712
C147 C 0.8903(8) 0.4278(6) 0.1118(5)
C148 C 0.8176(9) 0.3906(7) 0.0775(5)
H131 H 0.841398 0.371154 0.050436
C149 C 0.6996(8) 0.3814(7) 0.0838(6)
H132 H 0.648044 0.354197 0.061255
N25 N 0.8566(6) 0.7700(4) 0.6053(3)
N27 N 0.6908(6) 0.6037(5) 0.6185(3)
O26 O 0.9987(5) 0.5966(3) 0.5616(3)
O29 O 0.9896(5) 0.5908(4) 0.6342(3)
Mn3_4 Mn 1.000000 0.500000 1.000000
Mn4 Mn 0.79106(10) 0.56581(7) 0.91966(6)
O7 O 0.7459(6) 0.6239(4) 0.9795(3)
C57 C 0.8095(7) 0.0186(5) 0.9045(4)
C58 C 0.9006(7) 0.0650(5) 0.9245(4)
H53 H 0.961426 0.026059 0.929807
C59 C 0.9078(8) 0.1729(6) 0.9381(4)
H54 H 0.970468 0.204143 0.954028
C60 C 0.8177(7) 0.2310(5) 0.9269(4)
C61 C 0.7271(7) 0.1853(6) 0.9067(4)
H55 H 0.666393 0.224709 0.901824
C62 C 0.7188(7) 0.0757(5) 0.8918(4)
H56 H 0.657432 0.044789 0.874882
C63 C 0.8271(8) 0.3471(6) 0.9414(5)
O9 O 0.8841(6) 0.3769(4) 0.9747(3)
O10 O 0.7677(5) 0.4044(4) 0.9176(3)
C76 C 0.2116(6) 0.2689(5) 0.3257(4)
H67 H 0.224993 0.232157 0.298105
H68 H 0.155708 0.318054 0.319997
N13 N 0.1772(6) 0.1959(4) 0.3559(3)
N14 N 0.1434(6) 0.2300(4) 0.3947(3)
C77 C 0.1213(7) 0.1470(5) 0.4180(4)
C78 C 0.1456(7) 0.0539(5) 0.3893(4)
C79 C 0.1798(8) 0.0881(5) 0.3519(4)
C80 C 0.0869(10) 0.1558(5) 0.4603(4)
H69 H 0.014186 0.124876 0.459515
H70 H 0.135608 0.120455 0.479581
H71 H 0.087467 0.228027 0.470758
C81 C 0.2059(8) 0.0298(6) 0.3094(4)
H73 H 0.167650 0.058937 0.284997
H74 H 0.283109 0.036347 0.307152
N15 N 0.3133(6) 0.3238(5) 0.3471(3)
N16 N 0.3092(6) 0.3963(5) 0.3815(3)
C89 C 0.4143(8) 0.4237(6) 0.3957(4)
C90 C 0.4824(7) 0.3673(6) 0.3690(4)
C91 C 0.4182(7) 0.3030(6) 0.3385(4)
C92 C 0.4465(9) 0.5069(8) 0.4339(6)
H79 H 0.508285 0.485523 0.451688
H80 H 0.465190 0.571935 0.422567
H81 H 0.386178 0.515393 0.451181
C93 C 0.4440(8) 0.2260(7) 0.3027(5)
H82 H 0.445083 0.259306 0.276014
H83 H 0.514223 0.199376 0.310221
H84 H 0.389234 0.169621 0.298855
C94 C 0.6054(7) 0.3737(6) 0.3746(4)
C95 C 0.6578(6) 0.3562(6) 0.4161(4)
H85 H 0.616419 0.338936 0.438426
C96 C 0.7710(7) 0.3649(6) 0.4233(4)
H86 H 0.806072 0.354320 0.450534
C97 C 0.8316(7) 0.3896(6) 0.3891(4)
C98 C 0.7790(7) 0.4032(7) 0.3489(4)
H87 H 0.819979 0.416540 0.325892
C99 C 0.6674(8) 0.3974(7) 0.3419(4)
H88 H 0.633473 0.409629 0.314708
C100 C 0.9558(7) 0.4021(5) 0.3979(5)
N29 N 0.8058(7) 0.7325(4) 0.8956(3)
N31 N 0.6311(5) 0.5701(5) 0.8838(3)
O34 O 0.9206(6) 0.5416(5) 0.8666(4)
O36 O 0.9679(5) 0.5758(4) 0.9389(3)
C1 C 0.7884(6) 0.7311(5) 0.6743(4)
H1 H 0.775007 0.767843 0.701895
H2 H 0.844292 0.681946 0.680003
N1 N 0.8228(6) 0.8041(4) 0.6441(3)
C2 C 0.8787(7) 0.8530(5) 0.5820(4)
C3 C 0.8544(7) 0.9461(5) 0.6107(4)
C4 C 0.8202(8) 0.9119(5) 0.6481(4)
C5 C 0.9131(10) 0.8442(5) 0.5397(4)
H3 H 0.985814 0.875124 0.540485
H4 H 0.864392 0.879545 0.520419
H5 H 0.912533 0.771973 0.529242
C6 C 0.7941(8) 0.9702(6) 0.6906(4)
H7 H 0.832350 0.941063 0.715003
H8 H 0.716891 0.963653 0.692848
N3 N 0.6867(6) 0.6762(5) 0.6529(3)
C14 C 0.5857(8) 0.5763(6) 0.6043(4)
C15 C 0.5176(7) 0.6327(6) 0.6310(4)
C16 C 0.5818(7) 0.6970(6) 0.6615(4)
C17 C 0.5535(9) 0.4931(8) 0.5661(6)
H13 H 0.491715 0.514477 0.548312
H14 H 0.534810 0.428065 0.577433
H15 H 0.613822 0.484607 0.548819
C18 C 0.5560(8) 0.7740(7) 0.6973(5)
H16 H 0.554917 0.740694 0.723986
H17 H 0.485777 0.800624 0.689779
H18 H 0.610766 0.830379 0.701145
C19 C 0.3946(7) 0.6263(6) 0.6254(4)
C20 C 0.3422(6) 0.6438(6) 0.5839(4)
H19 H 0.383581 0.661064 0.561574
C21 C 0.2290(7) 0.6351(6) 0.5767(4)
H20 H 0.193928 0.645680 0.549466
C22 C 0.1684(7) 0.6104(6) 0.6109(4)
C23 C 0.2210(7) 0.5968(7) 0.6511(4)
H21 H 0.180021 0.583460 0.674108
C24 C 0.3326(8) 0.6026(7) 0.6581(4)
H22 H 0.366527 0.590371 0.685292
C25 C 0.0442(7) 0.5979(5) 0.6021(5)
O19 O 0.2541(6) 0.3761(4) 0.0205(3)
C132 C 0.1905(7) 0.9814(5) 0.0955(4)
C133 C 0.0994(7) 0.9350(5) 0.0755(4)
H119 H 0.038574 0.973941 0.070193
C134 C 0.0922(8) 0.8271(6) 0.0619(4)
H120 H 0.029532 0.795857 0.045972
C135 C 0.1823(7) 0.7690(5) 0.0731(4)
C136 C 0.2729(7) 0.8147(6) 0.0933(4)
H121 H 0.333607 0.775291 0.098176
C137 C 0.2812(7) 0.9243(5) 0.1082(4)
H122 H 0.342568 0.955211 0.125118
C138 C 0.1729(8) 0.6529(6) 0.0586(5)
O22 O 0.2323(5) 0.5956(4) 0.0824(3)
C51 C 0.7030(7) 0.6623(5) 0.8287(4)
H45 H 0.679956 0.685043 0.800230
H46 H 0.755329 0.609099 0.824893
N9 N 0.7544(6) 0.7509(4) 0.8576(3)
C52 C 0.8341(7) 0.8228(5) 0.9174(4)
C53 C 0.7952(6) 0.9027(5) 0.8916(4)
C54 C 0.7462(7) 0.8530(5) 0.8517(4)
C55 C 0.8949(11) 0.8330(6) 0.9620(4)
H47 H 0.843823 0.831028 0.983627
H48 H 0.937345 0.898009 0.966273
H49 H 0.942564 0.776562 0.964691
C56 C 0.7031(9) 0.8950(7) 0.8110(4)
H50 H 0.721790 0.851367 0.786364
H51 H 0.734222 0.964278 0.809951
H52 H 0.624988 0.896827 0.810085
N11 N 0.6104(5) 0.6201(4) 0.8476(3)
C64 C 0.5331(9) 0.5485(6) 0.8966(4)
C65 C 0.4470(7) 0.5893(6) 0.8688(4)
C66 C 0.4997(8) 0.6343(6) 0.8380(4)
C67 C 0.5193(9) 0.4918(11) 0.9385(6)
H57 H 0.547383 0.423738 0.935093
H58 H 0.443170 0.485423 0.942884
H59 H 0.558708 0.531259 0.963246
C68 C 0.4549(9) 0.6866(8) 0.7984(5)
H60 H 0.494790 0.751957 0.797322
H61 H 0.379035 0.698594 0.800382
H62 H 0.462344 0.642507 0.772314
C69 C 0.3304(9) 0.5859(7) 0.8763(5)
C70 C 0.2502(8) 0.5493(8) 0.8409(5)
H63 H 0.273554 0.530646 0.813620
C71 C 0.1418(9) 0.5409(9) 0.8455(5)
H64 H 0.090828 0.516232 0.822288
C72 C 0.1097(8) 0.5722(6) 0.8882(5)
C73 C 0.1824(9) 0.6094(7) 0.9225(5)
H65 H 0.158602 0.628846 0.949564
C74 C 0.3004(8) 0.6186(7) 0.9162(6)
H66 H 0.351956 0.645803 0.938745
H72 H 0.183211 0.957544 0.309166
C82 C 0.1427(7) 0.9469(5) 0.4025(4)
C83 C 0.2281(7) 0.8844(5) 0.3950(4)
H75 H 0.287154 0.908527 0.381206
C84 C 0.2235(8) 0.7856(6) 0.4084(4)
H76 H 0.282203 0.744554 0.403953
C85 C 0.1424(8) 0.7452(5) 0.4270(4)
C86 C 0.0529(7) 0.8056(6) 0.4370(4)
C87 C 0.0573(8) 0.9074(5) 0.4228(4)
C88 C 0.1399(9) 0.6347(6) 0.4417(4)
O13 O 0.1846(5) 0.5671(4) 0.4175(3)
C101 C 0.5980(11) 0.1471(12) 0.7562(5)
H89 H 0.644426 0.210547 0.761276
H90 H 0.645132 0.089017 0.757830
N17 N 0.5443(12) 0.1426(10) 0.7127(5)
N18 N 0.4929(14) 0.0545(10) 0.7006(5)
C102 C 0.4422(19) 0.0758(12) 0.6606(6)
C103 C 0.4581(12) 0.1745(9) 0.6506(5)
C104 C 0.5190(11) 0.2202(9) 0.6867(5)
C106 C 0.5540(18) 0.3305(11) 0.6998(7)
H94 H 0.564481 0.366035 0.674248
H95 H 0.498809 0.363174 0.715338
H96 H 0.621353 0.333930 0.718469
C107 C 0.4008(12) 0.2287(9) 0.6154(5)
C108 C 0.3220(11) 0.2974(9) 0.6264(5)
H97 H 0.306832 0.311448 0.655201
C109 C 0.2648(9) 0.3461(8) 0.5909(5)
H98 H 0.212694 0.393485 0.597421
C110 C 0.2834(8) 0.3262(6) 0.5498(5)
C111 C 0.3615(8) 0.2587(8) 0.5408(5)
H99 H 0.376869 0.246657 0.511872
C112 C 0.4185(13) 0.2076(9) 0.5719(6)
H100 H 0.468572 0.159365 0.563968
C113 C 0.2190(8) 0.3785(6) 0.5143(5)
O18 O 0.2512(6) 0.3702(4) 0.4769(3)
N19 N 0.5296(10) 0.1443(9) 0.7905(4)
N20 N 0.4821(9) 0.0506(9) 0.7956(5)
C114 C 0.4288(12) 0.0698(11) 0.8259(6)
C115 C 0.4372(11) 0.1693(10) 0.8430(5)
C116 C 0.5011(12) 0.2222(10) 0.8207(5)
C118 C 0.5448(13) 0.3287(11) 0.8212(6)
H104 H 0.531959 0.366887 0.848107
H105 H 0.621960 0.328922 0.818679
H106 H 0.509394 0.360869 0.797020
C119 C 0.3757(10) 0.2172(9) 0.8808(5)
C120 C 0.4062(9) 0.2092(8) 0.9234(5)
H107 H 0.464825 0.168453 0.930205
C121 C 0.3580(8) 0.2563(7) 0.9576(4)
H108 H 0.385358 0.249247 0.986366
C122 C 0.2636(7) 0.3172(6) 0.9484(5)
C123 C 0.2300(11) 0.3226(9) 0.9030(5)
H109 H 0.170564 0.361539 0.895211
C124 C 0.2822(11) 0.2725(11) 0.8702(5)
H110 H 0.255625 0.275178 0.841109
C125 C 0.2117(8) 0.3723(6) 0.9823(5)
C75 C 0.9915(8) 0.5602(6) 0.9002(6)
H77 H 0.995944 0.780381 0.451609
H78 H 0.999554 0.949559 0.427536
Cu1 Cu 0.5786(2) 0.03613(17) 0.25835(9)
Cl1 Cl 0.7074(4) 0.1527(5) 0.2633(2)
C30 C 0.607(3) 0.0148(13) 0.3687(7)
H25 H 0.608320 0.075701 0.352795
H26 H 0.565191 0.026212 0.393119
H27 H 0.680901 0.000907 0.379116
C42 C 0.6364(13) 0.0154(12) 0.1565(7)
H35 H 0.614340 0.081794 0.168036
H36 H 0.623878 0.009847 0.125191
H37 H 0.712670 0.009342 0.165143
Cu2 Cu 0.4214(2) 0.96387(17) 0.74165(9)
Cl2 Cl 0.2926(4) 0.8473(5) 0.7367(2)
C105 C 0.393(3) 0.9852(13) 0.6313(7)
H91 H 0.391680 0.924299 0.647205
H92 H 0.434809 0.973788 0.606881
H93 H 0.319099 0.999093 0.620884
C117 C 0.3636(13) 0.9846(12) 0.8435(7)
H101 H 0.385660 0.918206 0.831964
H102 H 0.376122 0.990153 0.874809
H103 H 0.287330 0.990658 0.834857
loop_
_geom_bond_atom_site_label_1
_geom_bond_atom_site_label_2
_geom_bond_site_symmetry_1
_geom_bond_site_symmetry_2
O23 C150 1_555 1_555
O24 Mn3 1_555 1_555
Mn18 O23 1_555 1_555
O25 Mn1 1_555 1_555
O28 Mn1 1_555 1_555
O31 Mn1 1_555 1_555
O33 Mn3 1_555 1_555
C150 O24 1_555 1_555
O24 Mn18 1_555 1_555
Mn13 O28 1_555 1_555
O32 Mn3_2 1_555 1_555
O16 Mn13 1_555 1_555
Mn1_2 O2 1_555 1_555
Mn2 O1 1_555 1_555
Mn3_3 O8 1_555 1_555
C8 C7 1_555 1_555
H9 C8 1_555 1_555
C9 C8 1_555 1_555
H10 C9 1_555 1_555
C10 C9 1_555 1_555
C11 C10 1_555 1_555
C12 C7 1_555 1_555
C13 C10 1_555 1_555
O1 C13 1_555 1_555
O2 C13 1_555 1_555
C26 H23 1_555 1_555
H24 C26 1_555 1_555
N5 C26 1_555 1_555
C27 N6 1_555 1_555
C28 C27 1_555 1_555
C29 N5 1_555 1_555
C31 C29 1_555 1_555
H28 C31 1_555 1_555
H29 C31 1_555 1_555
H30 C31 1_555 1_555
C32 C28 1_555 1_555
C33 C32 1_555 1_555
H31 C33 1_555 1_555
C34 C33 1_555 1_555
H32 C34 1_555 1_555
C35 C34 1_555 1_555
C36 C35 1_555 1_555
H33 C36 1_555 1_555
C37 C32 1_555 1_555
H34 C37 1_555 1_555
C38 C35 1_555 1_555
O5 Mn1_2 1_555 1_555
O6 Mn2 1_555 1_555
N7 C26 1_555 1_555
C39 N8 1_555 1_555
C40 C39 1_555 1_555
C41 N7 1_555 1_555
C43 C41 1_555 1_555
H38 C43 1_555 1_555
H39 C43 1_555 1_555
H40 C43 1_555 1_555
C44 C40 1_555 1_555
C45 C44 1_555 1_555
H41 C45 1_555 1_555
C46 C45 1_555 1_555
H42 C46 1_555 1_555
C47 C46 1_555 1_555
C48 C47 1_555 1_555
H43 C48 1_555 1_555
C49 C44 1_555 1_555
H44 C49 1_555 1_555
C50 C47 1_555 1_555
O8 C50 1_555 1_555
C126 H111 1_555 1_555
H112 C126 1_555 1_555
N21 C126 1_555 1_555
N22 N21 1_555 1_555
C127 N22 1_555 1_555
C128 C127 1_555 1_555
C129 N21 1_555 1_555
C130 C127 1_555 1_555
H113 C130 1_555 1_555
H114 C130 1_555 1_555
H115 C130 1_555 1_555
C131 C129 1_555 1_555
H116 C131 1_555 1_555
H117 C131 1_555 1_555
H118 C131 1_555 1_555
N23 C126 1_555 1_555
N24 N23 1_555 1_555
C139 N24 1_555 1_555
C140 C139 1_555 1_555
C141 N23 1_555 1_555
C142 C139 1_555 1_555
H123 C142 1_555 1_555
H124 C142 1_555 1_555
H125 C142 1_555 1_555
C143 C141 1_555 1_555
H126 C143 1_555 1_555
H127 C143 1_555 1_555
H128 C143 1_555 1_555
C144 C140 1_555 1_555
C145 C144 1_555 1_555
H129 C145 1_555 1_555
C146 C145 1_555 1_555
H130 C146 1_555 1_555
C147 C146 1_555 1_555
C148 C147 1_555 1_555
H131 C148 1_555 1_555
C149 C144 1_555 1_555
H132 C149 1_555 1_555
Mn18 N22 1_555 1_555
N25 Mn2 1_555 1_555
N27 Mn2 1_555 1_555
O26 Mn1_2 1_555 1_555
O29 Mn2 1_555 1_555
Mn2 O26 1_555 1_555
C11 C12 1_555 1_555
N5 N6 1_555 1_555
C28 C29 1_555 1_555
C36 C37 1_555 1_555
C38 O5 1_555 1_555
C38 O6 1_555 1_555
N7 N8 1_555 1_555
C40 C41 1_555 1_555
C48 C49 1_555 1_555
C128 C129 1_555 1_555
N24 Mn18 1_555 1_555
C140 C141 1_555 1_555
C148 C149 1_555 1_555
Mn4 O7 1_555 1_555
C58 C57 1_555 1_555
H53 C58 1_555 1_555
C59 C58 1_555 1_555
H54 C59 1_555 1_555
C60 C59 1_555 1_555
C61 C60 1_555 1_555
H55 C61 1_555 1_555
C62 C57 1_555 1_555
H56 C62 1_555 1_555
C63 C60 1_555 1_555
O9 Mn3_4 1_555 1_555
O10 Mn4 1_555 1_555
C76 H67 1_555 1_555
H68 C76 1_555 1_555
N13 C76 1_555 1_555
N14 N13 1_555 1_555
C77 N14 1_555 1_555
C78 C77 1_555 1_555
C79 N13 1_555 1_555
C80 C77 1_555 1_555
H69 C80 1_555 1_555
H70 C80 1_555 1_555
H71 C80 1_555 1_555
C81 C79 1_555 1_555
H73 C81 1_555 1_555
H74 C81 1_555 1_555
N15 C76 1_555 1_555
N16 N15 1_555 1_555
C89 N16 1_555 1_555
C90 C89 1_555 1_555
C91 N15 1_555 1_555
C92 C89 1_555 1_555
H79 C92 1_555 1_555
H80 C92 1_555 1_555
H81 C92 1_555 1_555
C93 C91 1_555 1_555
H82 C93 1_555 1_555
H83 C93 1_555 1_555
H84 C93 1_555 1_555
C94 C90 1_555 1_555
C95 C94 1_555 1_555
H85 C95 1_555 1_555
C96 C95 1_555 1_555
H86 C96 1_555 1_555
C97 C96 1_555 1_555
C98 C97 1_555 1_555
H87 C98 1_555 1_555
C99 C94 1_555 1_555
H88 C99 1_555 1_555
C100 C97 1_555 1_555
Mn13 N14 1_555 1_555
N29 Mn4 1_555 1_555
N31 Mn4 1_555 1_555
O34 Mn4 1_555 1_555
O36 Mn3_4 1_555 1_555
Mn4 O36 1_555 1_555
C61 C62 1_555 1_555
C63 O9 1_555 1_555
C63 O10 1_555 1_555
C78 C79 1_555 1_555
N16 Mn13 1_555 1_555
C90 C91 1_555 1_555
C98 C99 1_555 1_555
C1 H1 1_555 1_555
H2 C1 1_555 1_555
N1 C1 1_555 1_555
N25 N1 1_555 1_555
C2 N25 1_555 1_555
C3 C2 1_555 1_555
C4 N1 1_555 1_555
C5 C2 1_555 1_555
H3 C5 1_555 1_555
H4 C5 1_555 1_555
H5 C5 1_555 1_555
C6 C4 1_555 1_555
H7 C6 1_555 1_555
H8 C6 1_555 1_555
N3 C1 1_555 1_555
N27 N3 1_555 1_555
C14 N27 1_555 1_555
C15 C14 1_555 1_555
C16 N3 1_555 1_555
C17 C14 1_555 1_555
H13 C17 1_555 1_555
H14 C17 1_555 1_555
H15 C17 1_555 1_555
C18 C16 1_555 1_555
H16 C18 1_555 1_555
H17 C18 1_555 1_555
H18 C18 1_555 1_555
C19 C15 1_555 1_555
C20 C19 1_555 1_555
H19 C20 1_555 1_555
C21 C20 1_555 1_555
H20 C21 1_555 1_555
C22 C21 1_555 1_555
C23 C22 1_555 1_555
H21 C23 1_555 1_555
C24 C19 1_555 1_555
H22 C24 1_555 1_555
C25 C22 1_555 1_555
Mn18 O19 1_555 1_555
C133 C132 1_555 1_555
H119 C133 1_555 1_555
C134 C133 1_555 1_555
H120 C134 1_555 1_555
C135 C134 1_555 1_555
C136 C135 1_555 1_555
H121 C136 1_555 1_555
C137 C132 1_555 1_555
H122 C137 1_555 1_555
C138 C135 1_555 1_555
O33 C138 1_555 1_555
O22 Mn18 1_555 1_555
C3 C4 1_555 1_555
C15 C16 1_555 1_555
C23 C24 1_555 1_555
C136 C137 1_555 1_555
C138 O22 1_555 1_555
C51 H45 1_555 1_555
H46 C51 1_555 1_555
N9 C51 1_555 1_555
N29 N9 1_555 1_555
C52 N29 1_555 1_555
C53 C52 1_555 1_555
C54 N9 1_555 1_555
C55 C52 1_555 1_555
H47 C55 1_555 1_555
H48 C55 1_555 1_555
H49 C55 1_555 1_555
C56 C54 1_555 1_555
H50 C56 1_555 1_555
H51 C56 1_555 1_555
H52 C56 1_555 1_555
N11 C51 1_555 1_555
N31 N11 1_555 1_555
C64 N31 1_555 1_555
C65 C64 1_555 1_555
C66 N11 1_555 1_555
C67 C64 1_555 1_555
H57 C67 1_555 1_555
H58 C67 1_555 1_555
H59 C67 1_555 1_555
C68 C66 1_555 1_555
H60 C68 1_555 1_555
H61 C68 1_555 1_555
H62 C68 1_555 1_555
C69 C65 1_555 1_555
C70 C69 1_555 1_555
H63 C70 1_555 1_555
C71 C70 1_555 1_555
H64 C71 1_555 1_555
C72 C71 1_555 1_555
C73 C72 1_555 1_555
H65 C73 1_555 1_555
C74 C69 1_555 1_555
H66 C74 1_555 1_555
Mn13 O13 1_555 1_555
C83 C82 1_555 1_555
H75 C83 1_555 1_555
C84 C83 1_555 1_555
H76 C84 1_555 1_555
C85 C84 1_555 1_555
C86 C85 1_555 1_555
C87 C82 1_555 1_555
C88 C85 1_555 1_555
O13 C88 1_555 1_555
O25 C88 1_555 1_555
C101 H89 1_555 1_555
H90 C101 1_555 1_555
N17 C101 1_555 1_555
C102 N18 1_555 1_555
C103 C102 1_555 1_555
C104 N17 1_555 1_555
C106 C104 1_555 1_555
H94 C106 1_555 1_555
H95 C106 1_555 1_555
H96 C106 1_555 1_555
C107 C103 1_555 1_555
C108 C107 1_555 1_555
H97 C108 1_555 1_555
C109 C108 1_555 1_555
H98 C109 1_555 1_555
C110 C109 1_555 1_555
C111 C110 1_555 1_555
H99 C111 1_555 1_555
C112 C107 1_555 1_555
H100 C112 1_555 1_555
C113 C110 1_555 1_555
O31 C113 1_555 1_555
O18 Mn13 1_555 1_555
N19 C101 1_555 1_555
C114 N20 1_555 1_555
C115 C114 1_555 1_555
C116 N19 1_555 1_555
C118 C116 1_555 1_555
H104 C118 1_555 1_555
H105 C118 1_555 1_555
H106 C118 1_555 1_555
C119 C115 1_555 1_555
C120 C119 1_555 1_555
H107 C120 1_555 1_555
C121 C120 1_555 1_555
H108 C121 1_555 1_555
C122 C121 1_555 1_555
C123 C122 1_555 1_555
H109 C123 1_555 1_555
C124 C119 1_555 1_555
H110 C124 1_555 1_555
C125 C122 1_555 1_555
O32 C125 1_555 1_555
C53 C54 1_555 1_555
C65 C66 1_555 1_555
C73 C74 1_555 1_555
C86 C87 1_555 1_555
N17 N18 1_555 1_555
C103 C104 1_555 1_555
C111 C112 1_555 1_555
C113 O18 1_555 1_555
N19 N20 1_555 1_555
C115 C116 1_555 1_555
C123 C124 1_555 1_555
O34 C75 1_555 1_555
O36 C75 1_555 1_555
Cu1 Cl1 1_555 1_555
H25 C30 1_555 1_555
H26 C30 1_555 1_555
H27 C30 1_555 1_555
H35 C42 1_555 1_555
H36 C42 1_555 1_555
H37 C42 1_555 1_555
Cu2 Cl2 1_555 1_555
H91 C105 1_555 1_555
H92 C105 1_555 1_555
H93 C105 1_555 1_555
H101 C117 1_555 1_555
H102 C117 1_555 1_555
H103 C117 1_555 1_555

#END
