
###############################################################################
#
# This file contains modified crystal structure data generated from the
# MOF subset of the Cambridge Structural Database (CSD) v543 
# hosted by the Cambridge Crystallographic Data Centre (CCDC).
#
# This work is licensed under the Creative Commons
# Attribution-NonCommercial-ShareAlike 4.0 International License.
# To view a copy of this license, visit
# http://creativecommons.org/licenses/by-nc-sa/4.0/
# or send a letter to
# Creative Commons, PO Box 1866, Mountain View, CA 94042, USA.
#
# CIF created using the CSD Python API on 29 September 2022
# The structure has been converted into the P1 space group
# The structure has a 3D framework
# The original CSD entry BANKEK is in the triclinic crystal system
# The framework has been calculated to contain at least 10.0% void space
# The void calculation uses a probe of radius 1.32A, grid spacing 0.4
#
###############################################################################

data_BANKEK
_chemical_formula_moiety         '(C150 H132 Mn11 N24 O20)n'
_symmetry_cell_setting           triclinic
_symmetry_space_group_name_H-M   'P 1'
_symmetry_Int_Tables_number      1
_space_group_name_Hall           'P 1'
loop_
_symmetry_equiv_pos_site_id
_symmetry_equiv_pos_as_xyz
1 x,y,z
_cell_length_a                   12.341(3)
_cell_length_b                   12.924(3)
_cell_length_c                   27.121(5)
_cell_angle_alpha                96.83(3)
_cell_angle_beta                 91.48(3)
_cell_angle_gamma                90.60(3)
_cell_volume                     4293.14
loop_
_atom_site_label
_atom_site_type_symbol
_atom_site_fract_x
_atom_site_fract_y
_atom_site_fract_z
C62 C 0.0423(5) 0.4319(9) 0.6397(5)
H51 H 0.016619 0.461730 0.540053
H52 H 0.033979 0.572357 0.572818
C65 C 0.0227(17) 0.3532(16) 0.7265(9)
H54 H 0.102034 0.350618 0.728792
C66 C 0.1610(7) 0.4374(10) 0.6379(6)
C67 C 0.2305(10) 0.4992(10) 0.6705(5)
H57 H 0.202606 0.539519 0.698789
C68 C 0.3409(9) 0.5019(9) 0.6616(6)
H58 H 0.388396 0.544078 0.683851
C69 C 0.3817(7) 0.4429(9) 0.6202(6)
C70 C 0.3121(10) 0.3811(8) 0.5876(5)
H59 H 0.340045 0.340770 0.559266
C71 C 0.2018(9) 0.3784(9) 0.5965(6)
H60 H 0.154255 0.336211 0.574202
C72 C 0.4979(12) 0.4551(13) 0.6103(13)
O11 O 0.5640(7) 0.4876(7) 0.6516(6)
O12 O 0.5312(9) 0.4212(6) 0.5654(7)
Mn12 Mn 0.000000 0.000000 0.000000
Mn15 Mn 0.500000 0.500000 0.500000
Mn17 Mn 0.70762(18) 0.44288(12) 0.58479(12)
Mn12_2 Mn 0.000000 0.000000 1.000000
O3 O 0.0420(7) 0.9026(7) 0.8477(5)
O4 O 0.0104(6) 0.8941(5) 0.9270(4)
Mn8 Mn 0.18745(11) 0.89579(11) 0.91070(9)
Mn12_3 Mn 0.000000 1.000000 1.000000
N9 N 0.7408(7) 0.2674(5) 0.6603(4)
N10 N 0.6938(8) 0.2839(4) 0.6136(4)
C49 C 0.6680(8) 0.1849(5) 0.5870(4)
C50 C 0.6991(8) 0.1073(3) 0.6173(4)
C51 C 0.7441(8) 0.1583(6) 0.6626(4)
C52 C 0.6140(16) 0.1730(9) 0.5386(8)
H41 H 0.603997 0.098754 0.526902
H42 H 0.543197 0.206609 0.540931
H43 H 0.658347 0.205718 0.515080
C53 C 0.8111(17) 0.1202(10) 0.7079(8)
H44 H 0.807534 0.043939 0.705509
H45 H 0.886916 0.142983 0.706780
H46 H 0.780208 0.150130 0.739244
N11 N 0.8750(6) 0.3942(6) 0.6688(4)
N12 N 0.8589(6) 0.4441(6) 0.6254(4)
C61 C 0.9623(8) 0.4674(8) 0.6074(4)
C63 C 0.9884(7) 0.3867(8) 0.6777(4)
C64 C 0.9838(16) 0.5132(15) 0.5645(9)
H53 H 0.916035 0.537619 0.550558
H55 H 0.992199 0.283891 0.729349
H56 H 0.996500 0.403062 0.753530
C75 C 0.7806(12) 0.3493(10) 0.6924(8)
H65 H 0.803553 0.325108 0.724306
H66 H 0.724169 0.402592 0.699035
Mn12_4 Mn 1.000000 0.000000 0.000000
C37 C 0.8538(8) 0.0105(9) 0.2949(6)
C38 C 0.7677(10) 0.0199(9) 0.3288(5)
C40 C 0.9540(15) 0.0727(18) 0.2853(12)
H31 H 0.953741 0.140131 0.306073
H33 H 0.954160 0.084134 0.250179
C42 C 0.7641(17) 0.1173(15) 0.3677(10)
C43 C 0.8367(17) 0.1415(16) 0.3961(10)
H37 H 0.901433 0.102707 0.391657
C44 C 0.8370(15) 0.2342(18) 0.4417(11)
H38 H 0.891964 0.250621 0.466660
C45 C 0.7387(13) 0.2847(11) 0.4364(9)
C46 C 0.6596(15) 0.2527(12) 0.3999(9)
H39 H 0.593667 0.289529 0.398229
C47 C 0.6770(14) 0.1760(13) 0.3700(9)
H40 H 0.621200 0.156552 0.345773
C48 C 0.7173(15) 0.3733(10) 0.4803(10)
O7 O 0.6440(8) 0.4330(7) 0.4690(6)
O8 O 0.7747(12) 0.3781(9) 0.5175(7)
C54 C 0.6934(8) 0.9955(7) 0.6044(6)
C55 C 0.5973(12) 0.9493(9) 0.5842(6)
H47 H 0.534611 0.990470 0.581396
C56 C 0.5927(11) 0.8450(9) 0.5683(7)
H48 H 0.533008 0.818306 0.547681
C57 C 0.6675(12) 0.7798(9) 0.5805(8)
C58 C 0.7588(12) 0.8186(9) 0.6028(7)
H49 H 0.815258 0.773244 0.610486
C59 C 0.7716(11) 0.9252(9) 0.6148(7)
H50 H 0.837276 0.951144 0.630916
C60 C 0.6660(14) 0.6707(9) 0.5640(9)
O9 O 0.5845(12) 0.6392(6) 0.5345(6)
O10 O 0.7267(8) 0.6111(6) 0.5841(6)
Mn12_5 Mn 1.000000 1.000000 0.000000
O29 O 0.3560(8) 0.5670(7) 0.5310(6)
O30 O 0.4155(12) 0.3608(6) 0.4655(6)
O33 O 0.4688(9) 0.5788(6) 0.4346(7)
N1 N 0.2183(8) 0.6799(7) 0.8429(4)
N2 N 0.1656(9) 0.7171(7) 0.8857(5)
C1 C 0.1425(7) 0.6370(7) 0.9121(5)
C2 C 0.1791(9) 0.5433(8) 0.8847(6)
C3 C 0.2258(10) 0.5710(8) 0.8392(6)
C4 C 0.0881(11) 0.6527(10) 0.9561(7)
H1 H 0.094276 0.726237 0.969804
H2 H 0.120045 0.609384 0.979912
H3 H 0.011525 0.633486 0.950007
C5 C 0.2899(14) 0.5100(9) 0.8036(7)
H4 H 0.287308 0.436888 0.809805
H5 H 0.365133 0.535567 0.806642
H6 H 0.261189 0.515977 0.770070
C6 C 0.1739(10) 0.4397(7) 0.8977(7)
C7 C 0.0794(11) 0.4056(8) 0.9150(7)
H7 H 0.018562 0.450210 0.917044
C8 C 0.0697(11) 0.3026(8) 0.9305(8)
H8 H 0.007190 0.279366 0.945901
C9 C 0.1657(8) 0.2364(7) 0.9201(7)
C10 C 0.2529(11) 0.2745(8) 0.8986(7)
H9 H 0.312158 0.229333 0.891503
C11 C 0.2610(12) 0.3766(9) 0.8863(8)
H10 H 0.323196 0.400799 0.870957
C12 C 0.1584(10) 0.1287(7) 0.9384(7)
O1 O 0.1036(7) 0.1093(5) 0.9720(5)
O2 O 0.2070(7) 0.0585(6) 0.9112(5)
N3 N 0.3444(7) 0.8003(7) 0.8267(5)
N4 N 0.3410(7) 0.8704(6) 0.8694(4)
C13 C 0.4441(7) 0.9038(8) 0.8873(6)
C14 C 0.5159(9) 0.8420(8) 0.8505(5)
C15 C 0.4527(9) 0.7831(8) 0.8180(6)
C16 C 0.4646(8) 0.9630(11) 0.9328(7)
H12 H 0.539041 0.990601 0.934016
H13 H 0.455549 0.919280 0.959574
C17 C 0.4951(13) 0.7220(10) 0.7738(7)
H14 H 0.569416 0.700916 0.780827
H15 H 0.494855 0.764497 0.746154
H16 H 0.449361 0.659865 0.764796
C18 C 0.6340(9) 0.8505(8) 0.8592(6)
C19 C 0.6960(9) 0.8682(11) 0.8191(7)
H17 H 0.662189 0.867019 0.787150
C20 C 0.8157(10) 0.8893(12) 0.8253(7)
H18 H 0.858947 0.911696 0.800039
C21 C 0.8570(8) 0.8727(9) 0.8719(7)
C22 C 0.7969(9) 0.8459(10) 0.9096(6)
H19 H 0.829716 0.835746 0.940670
C23 C 0.6855(9) 0.8335(9) 0.9012(6)
H20 H 0.643579 0.811727 0.927072
C24 C 0.9818(8) 0.8930(9) 0.8804(8)
C73 C 0.2536(10) 0.7469(9) 0.8104(6)
H61 H 0.267383 0.706121 0.777954
H62 H 0.195467 0.796922 0.805140
Mn12_6 Mn 1.000000 1.000000 1.000000
O6 O 0.2560(8) 0.8672(7) 0.9796(5)
Mn5 Mn 0.81255(11) 0.10421(11) 0.08930(9)
O18 O 0.7440(8) 0.1328(7) 0.0204(5)
N26 N 0.8344(9) 0.2829(7) 0.1143(5)
N28 N 0.6590(7) 0.1296(6) 0.1306(4)
O26 O 0.9580(7) 0.0974(7) 0.1523(5)
O28 O 0.9896(6) 0.1059(5) 0.0730(4)
N13 N 0.7817(8) 0.3201(7) 0.1571(4)
C76 C 0.8575(7) 0.3630(7) 0.0879(5)
C77 C 0.8209(9) 0.4567(8) 0.1153(6)
C78 C 0.7742(10) 0.4290(8) 0.1608(6)
C79 C 0.9119(11) 0.3473(10) 0.0439(7)
H67 H 0.905724 0.273763 0.030196
H68 H 0.879955 0.390616 0.020088
H69 H 0.988475 0.366514 0.049993
C80 C 0.7101(14) 0.4900(9) 0.1964(7)
H70 H 0.712692 0.563112 0.190195
H71 H 0.634867 0.464433 0.193358
H72 H 0.738811 0.484023 0.229930
C81 C 0.8261(10) 0.5603(7) 0.1023(7)
C82 C 0.9206(11) 0.5944(8) 0.0850(7)
H73 H 0.981438 0.549790 0.082956
C83 C 0.9303(11) 0.6974(8) 0.0695(8)
H74 H 0.992810 0.720634 0.054099
C84 C 0.8343(8) 0.7636(7) 0.0799(7)
C85 C 0.7471(11) 0.7255(8) 0.1014(7)
H75 H 0.687842 0.770667 0.108497
C86 C 0.7390(12) 0.6234(9) 0.1137(8)
H76 H 0.676804 0.599201 0.129043
C87 C 0.8416(10) 0.8713(7) 0.0616(7)
O13 O 0.8964(7) 0.8907(5) 0.0280(5)
O14 O 0.7930(7) 0.9415(6) 0.0888(5)
N15 N 0.6556(7) 0.1997(7) 0.1733(5)
C88 C 0.5559(7) 0.0962(8) 0.1127(6)
C89 C 0.4841(9) 0.1580(8) 0.1495(5)
C90 C 0.5473(9) 0.2169(8) 0.1820(6)
C91 C 0.5354(8) 0.0370(11) 0.0672(7)
H78 H 0.460959 0.009399 0.065984
H79 H 0.544451 0.080720 0.040426
C92 C 0.5049(13) 0.2780(10) 0.2262(7)
H80 H 0.430584 0.299084 0.219173
H81 H 0.505145 0.235503 0.253846
H82 H 0.550639 0.340135 0.235204
C93 C 0.3660(9) 0.1495(8) 0.1408(6)
C94 C 0.3040(9) 0.1318(11) 0.1809(7)
H83 H 0.337811 0.132981 0.212850
C95 C 0.1843(10) 0.1107(12) 0.1747(7)
H84 H 0.141053 0.088304 0.199961
C96 C 0.1430(8) 0.1273(9) 0.1281(7)
C97 C 0.2031(9) 0.1541(10) 0.0904(6)
H85 H 0.170284 0.164254 0.059330
C98 C 0.3145(9) 0.1665(9) 0.0988(6)
H86 H 0.356421 0.188273 0.072928
C99 C 0.0182(8) 0.1070(9) 0.1196(8)
C148 C 0.7464(10) 0.2531(9) 0.1896(6)
H127 H 0.732617 0.293879 0.222046
H128 H 0.804533 0.203078 0.194860
Mn6 Mn 0.29238(18) 0.55712(12) 0.41521(12)
C112 C 0.1462(8) 0.9895(9) 0.7051(6)
C113 C 0.2323(10) 0.9801(9) 0.6712(5)
C115 C 0.0460(15) 0.9273(18) 0.7147(12)
H97 H 0.046259 0.859869 0.693927
H99 H 0.045840 0.915866 0.749821
C117 C 0.2359(17) 0.8827(15) 0.6323(10)
C118 C 0.1633(17) 0.8585(16) 0.6039(10)
H103 H 0.098567 0.897293 0.608343
C119 C 0.1630(15) 0.7658(18) 0.5583(11)
H104 H 0.108036 0.749379 0.533340
C120 C 0.2613(13) 0.7153(11) 0.5636(9)
C121 C 0.3404(15) 0.7473(12) 0.6001(9)
H105 H 0.406333 0.710471 0.601771
C122 C 0.3230(14) 0.8240(13) 0.6300(9)
H106 H 0.378800 0.843448 0.654227
C123 C 0.2827(15) 0.6267(10) 0.5197(10)
O20 O 0.2253(12) 0.6219(9) 0.4825(7)
C129 C 0.3066(8) 0.0045(7) 0.3956(6)
C130 C 0.4027(12) 0.0507(9) 0.4158(6)
H113 H 0.465389 0.009530 0.418604
C131 C 0.4073(11) 0.1550(9) 0.4317(7)
H114 H 0.466992 0.181694 0.452319
C132 C 0.3325(12) 0.2202(9) 0.4195(8)
C133 C 0.2412(12) 0.1814(9) 0.3972(7)
H115 H 0.184742 0.226756 0.389514
C134 C 0.2284(11) 0.0748(9) 0.3852(7)
H116 H 0.162724 0.048856 0.369084
C135 C 0.3340(14) 0.3293(9) 0.4360(9)
O22 O 0.2733(8) 0.3889(6) 0.4159(6)
N30 N 0.3062(8) 0.7161(4) 0.3864(4)
N32 N 0.1411(6) 0.5559(6) 0.3746(4)
N21 N 0.2592(7) 0.7326(5) 0.3397(4)
C124 C 0.3320(8) 0.8151(5) 0.4130(4)
C125 C 0.3009(8) 0.8927(3) 0.3827(4)
C126 C 0.2559(8) 0.8417(6) 0.3374(4)
C127 C 0.3860(16) 0.8270(9) 0.4614(8)
H107 H 0.396003 0.901246 0.473098
H108 H 0.456803 0.793391 0.459069
H109 H 0.341653 0.794282 0.484920
C128 C 0.1889(17) 0.8798(10) 0.2921(8)
H110 H 0.192466 0.956061 0.294491
H111 H 0.113084 0.857017 0.293220
H112 H 0.219792 0.849870 0.260756
N23 N 0.1250(6) 0.6058(6) 0.3312(4)
C136 C 0.0377(8) 0.5326(8) 0.3926(4)
C138 C 0.0116(7) 0.6133(8) 0.3223(4)
C139 C 0.0162(16) 0.4868(15) 0.4355(9)
H119 H 0.083965 0.462381 0.449442
H121 H 0.007801 0.716109 0.270651
H122 H 0.003500 0.596938 0.246470
C150 C 0.2194(12) 0.6507(10) 0.3076(8)
H131 H 0.196447 0.674892 0.275694
H132 H 0.275831 0.597408 0.300965
C137 C 0.9577(5) 0.5681(9) 0.3603(5)
H117 H 0.983381 0.538270 0.459947
H118 H 0.966021 0.427643 0.427182
C140 C 0.9773(17) 0.6468(16) 0.2735(9)
H120 H 0.897966 0.649382 0.271208
C141 C 0.8390(7) 0.5626(10) 0.3621(6)
C142 C 0.7695(10) 0.5008(10) 0.3295(5)
H123 H 0.797394 0.460481 0.301211
C143 C 0.6591(9) 0.4981(9) 0.3384(6)
H124 H 0.611604 0.455922 0.316149
C144 C 0.6183(7) 0.5571(9) 0.3798(6)
C145 C 0.6879(10) 0.6189(8) 0.4124(5)
H125 H 0.659955 0.659230 0.440734
C146 C 0.7982(9) 0.6216(9) 0.4035(6)
H126 H 0.845745 0.663789 0.425798
C147 C 0.5021(12) 0.5449(13) 0.3897(13)
O23 O 0.4360(7) 0.5124(7) 0.3484(6)
H32 H 0.018835 0.034288 0.293294
Mn12_7 Mn 0.000000 1.000000 0.000000
N5 N 0.6182(8) 0.7593(7) 0.2427(4)
N6 N 0.5517(10) 0.6699(7) 0.2455(4)
C25 C 0.4692(8) 0.6674(9) 0.2078(5)
C26 C 0.4847(9) 0.7553(10) 0.1819(4)
C27 C 0.5767(10) 0.8121(7) 0.2034(5)
C28 C 0.3924(18) 0.5778(18) 0.2014(11)
H21 H 0.407240 0.532284 0.227132
H22 H 0.318025 0.603157 0.204150
H23 H 0.401174 0.538484 0.168544
C29 C 0.643(2) 0.9090(16) 0.1893(9)
H24 H 0.632333 0.914003 0.153699
H25 H 0.719751 0.900648 0.197026
H26 H 0.616524 0.972691 0.208355
C30 C 0.4164(7) 0.7855(8) 0.1401(4)
C31 C 0.3265(9) 0.8475(10) 0.1503(4)
H27 H 0.309875 0.871252 0.183725
C32 C 0.2610(8) 0.8748(9) 0.1116(4)
H28 H 0.199510 0.917253 0.118548
C33 C 0.2853(7) 0.8401(7) 0.0627(4)
C34 C 0.3752(7) 0.7781(7) 0.0525(4)
H29 H 0.391855 0.754340 0.019092
C35 C 0.4408(6) 0.7507(7) 0.0912(4)
H30 H 0.502222 0.708338 0.084268
C36 C 0.2161(10) 0.8765(9) 0.0171(8)
O5 O 0.1228(6) 0.9193(7) 0.0301(5)
N7 N 0.7534(9) 0.8584(7) 0.2832(5)
N8 N 0.8450(9) 0.9107(10) 0.2667(4)
C39 C 0.7056(8) 0.9259(10) 0.3215(5)
C41 C 0.6268(15) 0.8954(16) 0.3535(10)
H34 H 0.554483 0.908613 0.340105
H35 H 0.637205 0.935442 0.386393
H36 H 0.633826 0.820926 0.356493
C74 C 0.7178(12) 0.7604(12) 0.2637(9)
H63 H 0.769182 0.731269 0.238395
H64 H 0.717905 0.714643 0.290470
H77 H 0.586220 0.979055 0.063119
H11 H 0.413780 0.020945 0.936881
Mn12_8 Mn 1.000000 0.000000 1.000000
N17 N 0.3818(8) 0.2407(7) 0.7573(4)
N18 N 0.4483(10) 0.3301(7) 0.7545(4)
C100 C 0.5308(8) 0.3326(9) 0.7922(5)
C101 C 0.5153(9) 0.2447(10) 0.8181(4)
C102 C 0.4233(10) 0.1879(7) 0.7966(5)
C103 C 0.6076(18) 0.4222(18) 0.7986(11)
H87 H 0.592760 0.467716 0.772868
H88 H 0.681975 0.396843 0.795850
H89 H 0.598826 0.461516 0.831456
C104 C 0.357(2) 0.0910(16) 0.8107(9)
H90 H 0.367667 0.085997 0.846301
H91 H 0.280249 0.099352 0.802974
H92 H 0.383476 0.027309 0.791645
C105 C 0.5836(7) 0.2145(8) 0.8599(4)
C106 C 0.6735(9) 0.1525(10) 0.8497(4)
H93 H 0.690125 0.128748 0.816275
C107 C 0.7390(8) 0.1252(9) 0.8884(4)
H94 H 0.800490 0.082747 0.881452
C108 C 0.7147(7) 0.1599(7) 0.9373(4)
C109 C 0.6248(7) 0.2219(7) 0.9475(4)
H95 H 0.608145 0.245660 0.980908
C110 C 0.5592(6) 0.2493(7) 0.9088(4)
H96 H 0.497778 0.291662 0.915732
C111 C 0.7839(10) 0.1235(9) 0.9829(8)
O17 O 0.8772(6) 0.0807(7) 0.9699(5)
N19 N 0.2466(9) 0.1416(7) 0.7168(5)
N20 N 0.1550(9) 0.0893(10) 0.7333(4)
C114 C 0.2944(8) 0.0741(10) 0.6785(5)
C116 C 0.3732(15) 0.1046(16) 0.6465(10)
H100 H 0.445517 0.091387 0.659895
H101 H 0.362795 0.064558 0.613607
H102 H 0.366174 0.179074 0.643507
C149 C 0.2822(12) 0.2396(12) 0.7363(9)
H129 H 0.230818 0.268731 0.761605
H130 H 0.282095 0.285357 0.709530
H98 H 0.981165 0.965712 0.706706
loop_
_geom_bond_atom_site_label_1
_geom_bond_atom_site_label_2
_geom_bond_site_symmetry_1
_geom_bond_site_symmetry_2
H54 C65 1_555 1_555
C66 C62 1_555 1_555
C67 C66 1_555 1_555
H57 C67 1_555 1_555
C68 C67 1_555 1_555
H58 C68 1_555 1_555
C69 C68 1_555 1_555
C70 C69 1_555 1_555
H59 C70 1_555 1_555
C71 C66 1_555 1_555
H60 C71 1_555 1_555
C72 C69 1_555 1_555
O11 C72 1_555 1_555
O12 C72 1_555 1_555
Mn15 O12 1_555 1_555
Mn17 O12 1_555 1_555
C70 C71 1_555 1_555
Mn8 O3 1_555 1_555
Mn12_3 O4 1_555 1_555
O4 Mn8 1_555 1_555
N9 N10 1_555 1_555
N10 C49 1_555 1_555
C49 C50 1_555 1_555
C50 C51 1_555 1_555
C51 N9 1_555 1_555
C52 C49 1_555 1_555
H41 C52 1_555 1_555
H42 C52 1_555 1_555
H43 C52 1_555 1_555
C53 C51 1_555 1_555
H44 C53 1_555 1_555
H45 C53 1_555 1_555
H46 C53 1_555 1_555
N11 N12 1_555 1_555
N12 C61 1_555 1_555
C63 N11 1_555 1_555
C64 C61 1_555 1_555
H53 C64 1_555 1_555
C75 N9 1_555 1_555
H65 C75 1_555 1_555
H66 C75 1_555 1_555
Mn17 N10 1_555 1_555
N11 C75 1_555 1_555
N12 Mn17 1_555 1_555
Mn15 O7 1_555 1_555
Mn17 O8 1_555 1_555
C37 C38 1_555 1_555
C40 C37 1_555 1_555
H31 C40 1_555 1_555
H33 C40 1_555 1_555
C42 C38 1_555 1_555
C43 C42 1_555 1_555
H37 C43 1_555 1_555
C44 C43 1_555 1_555
H38 C44 1_555 1_555
C45 C44 1_555 1_555
C46 C45 1_555 1_555
H39 C46 1_555 1_555
C47 C42 1_555 1_555
H40 C47 1_555 1_555
C48 C45 1_555 1_555
O7 C48 1_555 1_555
O8 C48 1_555 1_555
C55 C54 1_555 1_555
H47 C55 1_555 1_555
C56 C55 1_555 1_555
H48 C56 1_555 1_555
C57 C56 1_555 1_555
C58 C57 1_555 1_555
H49 C58 1_555 1_555
C59 C54 1_555 1_555
H50 C59 1_555 1_555
C60 C57 1_555 1_555
O9 Mn15 1_555 1_555
O10 Mn17 1_555 1_555
O29 Mn15 1_555 1_555
O30 Mn15 1_555 1_555
O33 Mn15 1_555 1_555
C46 C47 1_555 1_555
C58 C59 1_555 1_555
C60 O9 1_555 1_555
C60 O10 1_555 1_555
Mn12_2 O1 1_555 1_555
N1 N2 1_555 1_555
N2 C1 1_555 1_555
C1 C2 1_555 1_555
C2 C3 1_555 1_555
C3 N1 1_555 1_555
C4 C1 1_555 1_555
H1 C4 1_555 1_555
H2 C4 1_555 1_555
H3 C4 1_555 1_555
C5 C3 1_555 1_555
H4 C5 1_555 1_555
H5 C5 1_555 1_555
H6 C5 1_555 1_555
C6 C2 1_555 1_555
C7 C6 1_555 1_555
H7 C7 1_555 1_555
C8 C7 1_555 1_555
H8 C8 1_555 1_555
C9 C8 1_555 1_555
C10 C9 1_555 1_555
H9 C10 1_555 1_555
C11 C6 1_555 1_555
H10 C11 1_555 1_555
C12 C9 1_555 1_555
O1 C12 1_555 1_555
O2 C12 1_555 1_555
N3 N4 1_555 1_555
N4 C13 1_555 1_555
C13 C14 1_555 1_555
C14 C15 1_555 1_555
C15 N3 1_555 1_555
C16 C13 1_555 1_555
H12 C16 1_555 1_555
H13 C16 1_555 1_555
C17 C15 1_555 1_555
H14 C17 1_555 1_555
H15 C17 1_555 1_555
H16 C17 1_555 1_555
C18 C14 1_555 1_555
C19 C18 1_555 1_555
H17 C19 1_555 1_555
C20 C19 1_555 1_555
H18 C20 1_555 1_555
C21 C20 1_555 1_555
C22 C21 1_555 1_555
H19 C22 1_555 1_555
C23 C18 1_555 1_555
H20 C23 1_555 1_555
C24 C21 1_555 1_555
C73 N1 1_555 1_555
H61 C73 1_555 1_555
H62 C73 1_555 1_555
Mn8 N2 1_555 1_555
C10 C11 1_555 1_555
N3 C73 1_555 1_555
N4 Mn8 1_555 1_555
C22 C23 1_555 1_555
O6 Mn8 1_555 1_555
O18 Mn5 1_555 1_555
N26 Mn5 1_555 1_555
N28 Mn5 1_555 1_555
O26 Mn5 1_555 1_555
O28 Mn12_4 1_555 1_555
Mn5 O28 1_555 1_555
N13 N26 1_555 1_555
N26 C76 1_555 1_555
C76 C77 1_555 1_555
C77 C78 1_555 1_555
C78 N13 1_555 1_555
C79 C76 1_555 1_555
H67 C79 1_555 1_555
H68 C79 1_555 1_555
H69 C79 1_555 1_555
C80 C78 1_555 1_555
H70 C80 1_555 1_555
H71 C80 1_555 1_555
H72 C80 1_555 1_555
C81 C77 1_555 1_555
C82 C81 1_555 1_555
H73 C82 1_555 1_555
C83 C82 1_555 1_555
H74 C83 1_555 1_555
C84 C83 1_555 1_555
C85 C84 1_555 1_555
H75 C85 1_555 1_555
C86 C81 1_555 1_555
H76 C86 1_555 1_555
C87 C84 1_555 1_555
O13 Mn12_5 1_555 1_555
O14 C87 1_555 1_555
N15 N28 1_555 1_555
N28 C88 1_555 1_555
C88 C89 1_555 1_555
C89 C90 1_555 1_555
C90 N15 1_555 1_555
C91 C88 1_555 1_555
H78 C91 1_555 1_555
H79 C91 1_555 1_555
C92 C90 1_555 1_555
H80 C92 1_555 1_555
H81 C92 1_555 1_555
H82 C92 1_555 1_555
C93 C89 1_555 1_555
C94 C93 1_555 1_555
H83 C94 1_555 1_555
C95 C94 1_555 1_555
H84 C95 1_555 1_555
C96 C95 1_555 1_555
C97 C96 1_555 1_555
H85 C97 1_555 1_555
C98 C93 1_555 1_555
H86 C98 1_555 1_555
C99 C96 1_555 1_555
C148 N13 1_555 1_555
H127 C148 1_555 1_555
H128 C148 1_555 1_555
C85 C86 1_555 1_555
C87 O13 1_555 1_555
N15 C148 1_555 1_555
C97 C98 1_555 1_555
Mn6 O20 1_555 1_555
C112 C113 1_555 1_555
C115 C112 1_555 1_555
H97 C115 1_555 1_555
H99 C115 1_555 1_555
C117 C113 1_555 1_555
C118 C117 1_555 1_555
H103 C118 1_555 1_555
C119 C118 1_555 1_555
H104 C119 1_555 1_555
C120 C119 1_555 1_555
C121 C120 1_555 1_555
H105 C121 1_555 1_555
C122 C117 1_555 1_555
H106 C122 1_555 1_555
C123 C120 1_555 1_555
O29 C123 1_555 1_555
O20 C123 1_555 1_555
C130 C129 1_555 1_555
H113 C130 1_555 1_555
C131 C130 1_555 1_555
H114 C131 1_555 1_555
C132 C131 1_555 1_555
C133 C132 1_555 1_555
H115 C133 1_555 1_555
C134 C129 1_555 1_555
H116 C134 1_555 1_555
C135 C132 1_555 1_555
O30 C135 1_555 1_555
O22 Mn6 1_555 1_555
N30 Mn6 1_555 1_555
N32 Mn6 1_555 1_555
O33 Mn6 1_555 1_555
C121 C122 1_555 1_555
C133 C134 1_555 1_555
C135 O22 1_555 1_555
N21 N30 1_555 1_555
N30 C124 1_555 1_555
C124 C125 1_555 1_555
C125 C126 1_555 1_555
C126 N21 1_555 1_555
C127 C124 1_555 1_555
H107 C127 1_555 1_555
H108 C127 1_555 1_555
H109 C127 1_555 1_555
C128 C126 1_555 1_555
H110 C128 1_555 1_555
H111 C128 1_555 1_555
H112 C128 1_555 1_555
N23 N32 1_555 1_555
N32 C136 1_555 1_555
C138 N23 1_555 1_555
C139 C136 1_555 1_555
H119 C139 1_555 1_555
C150 N21 1_555 1_555
H131 C150 1_555 1_555
H132 C150 1_555 1_555
N23 C150 1_555 1_555
H120 C140 1_555 1_555
C141 C137 1_555 1_555
C142 C141 1_555 1_555
H123 C142 1_555 1_555
C143 C142 1_555 1_555
H124 C143 1_555 1_555
C144 C143 1_555 1_555
C145 C144 1_555 1_555
H125 C145 1_555 1_555
C146 C141 1_555 1_555
H126 C146 1_555 1_555
C147 C144 1_555 1_555
O23 C147 1_555 1_555
O33 C147 1_555 1_555
C145 C146 1_555 1_555
N5 N6 1_555 1_555
N6 C25 1_555 1_555
C25 C26 1_555 1_555
C26 C27 1_555 1_555
C27 N5 1_555 1_555
C28 C25 1_555 1_555
H21 C28 1_555 1_555
H22 C28 1_555 1_555
H23 C28 1_555 1_555
C29 C27 1_555 1_555
H24 C29 1_555 1_555
H25 C29 1_555 1_555
H26 C29 1_555 1_555
C30 C26 1_555 1_555
C31 C30 1_555 1_555
H27 C31 1_555 1_555
C32 C31 1_555 1_555
H28 C32 1_555 1_555
C33 C32 1_555 1_555
C34 C33 1_555 1_555
H29 C34 1_555 1_555
C35 C30 1_555 1_555
H30 C35 1_555 1_555
C36 C33 1_555 1_555
O5 Mn12_7 1_555 1_555
N7 N8 1_555 1_555
C39 N7 1_555 1_555
C41 C39 1_555 1_555
H34 C41 1_555 1_555
H35 C41 1_555 1_555
H36 C41 1_555 1_555
C74 N5 1_555 1_555
H63 C74 1_555 1_555
H64 C74 1_555 1_555
C34 C35 1_555 1_555
C36 O5 1_555 1_555
N7 C74 1_555 1_555
N17 N18 1_555 1_555
N18 C100 1_555 1_555
C100 C101 1_555 1_555
C101 C102 1_555 1_555
C102 N17 1_555 1_555
C103 C100 1_555 1_555
H87 C103 1_555 1_555
H88 C103 1_555 1_555
H89 C103 1_555 1_555
C104 C102 1_555 1_555
H90 C104 1_555 1_555
H91 C104 1_555 1_555
H92 C104 1_555 1_555
C105 C101 1_555 1_555
C106 C105 1_555 1_555
H93 C106 1_555 1_555
C107 C106 1_555 1_555
H94 C107 1_555 1_555
C108 C107 1_555 1_555
C109 C108 1_555 1_555
H95 C109 1_555 1_555
C110 C105 1_555 1_555
H96 C110 1_555 1_555
C111 C108 1_555 1_555
O17 Mn12_8 1_555 1_555
N19 N20 1_555 1_555
C114 N19 1_555 1_555
C116 C114 1_555 1_555
H100 C116 1_555 1_555
H101 C116 1_555 1_555
H102 C116 1_555 1_555
C149 N17 1_555 1_555
H129 C149 1_555 1_555
H130 C149 1_555 1_555
C109 C110 1_555 1_555
C111 O17 1_555 1_555
N19 C149 1_555 1_555

#END
