
###############################################################################
#
# This file contains modified crystal structure data generated from the
# MOF subset of the Cambridge Structural Database (CSD) v543 
# hosted by the Cambridge Crystallographic Data Centre (CCDC).
#
# This work is licensed under the Creative Commons
# Attribution-NonCommercial-ShareAlike 4.0 International License.
# To view a copy of this license, visit
# http://creativecommons.org/licenses/by-nc-sa/4.0/
# or send a letter to
# Creative Commons, PO Box 1866, Mountain View, CA 94042, USA.
#
# CIF created using the CSD Python API on 29 September 2022
# The structure has been converted into the P1 space group
# The structure has a 3D framework
# The original CSD entry BANXOH is in the monoclinic crystal system
# The framework has been calculated to contain at least 10.0% void space
# The void calculation uses a probe of radius 1.32A, grid spacing 0.4
#
###############################################################################

data_BANXOH
_chemical_formula_moiety         '(C150 H132 Cu2 I2 Mn6 N24 O23)n'
_symmetry_cell_setting           triclinic
_symmetry_space_group_name_H-M   'P 1'
_symmetry_Int_Tables_number      1
_space_group_name_Hall           'P 1'
loop_
_symmetry_equiv_pos_site_id
_symmetry_equiv_pos_as_xyz
1 x,y,z
_cell_length_a                   12.334(2)
_cell_length_b                   34.440(8)
_cell_length_c                   13.084(2)
_cell_angle_alpha                90
_cell_angle_beta                 94.47(2)
_cell_angle_gamma                90
_cell_volume                     5540.95
loop_
_atom_site_label
_atom_site_type_symbol
_atom_site_fract_x
_atom_site_fract_y
_atom_site_fract_z
Mn2 Mn 0.500000 -0.000000 0.500000
H13 H 0.284661 0.000315 0.142355
C28 C 0.021(2) 0.1596(8) 0.278(2)
C30 C 0.030(2) 0.1585(8) 0.0878(18)
H25 H 0.049178 0.180269 0.044308
H27 H 0.092579 0.141174 0.099525
H30 H 0.046981 0.191289 0.487293
C32 C 0.085(2) 0.1258(8) 0.3154(19)
C33 C 0.181(2) 0.1272(7) 0.3719(19)
H31 H 0.207329 0.151758 0.395482
C34 C 0.239(2) 0.0958(7) 0.396(2)
H32 H 0.303450 0.098084 0.440554
C35 C 0.207(2) 0.0593(7) 0.357(2)
C36 C 0.117(2) 0.0576(8) 0.2927(18)
H33 H 0.095343 0.033100 0.264514
C37 C 0.052(2) 0.0910(8) 0.264(2)
C38 C 0.267(2) 0.0240(7) 0.393(2)
O5 O 0.3661(15) 0.0285(5) 0.4273(14)
C40 C 0.021(2) 0.3404(8) 0.278(2)
C42 C 0.030(2) 0.3415(8) 0.0878(18)
H35 H 0.049178 0.319731 0.044308
H37 H 0.092579 0.358826 0.099525
H40 H 0.046981 0.308711 0.487293
C44 C 0.085(2) 0.3742(8) 0.3154(19)
C45 C 0.181(2) 0.3728(7) 0.3719(19)
H41 H 0.207329 0.348242 0.395482
C46 C 0.239(2) 0.4042(7) 0.396(2)
H42 H 0.303450 0.401916 0.440554
C47 C 0.207(2) 0.4407(7) 0.357(2)
C48 C 0.117(2) 0.4424(8) 0.2927(18)
H43 H 0.095343 0.466900 0.264514
C49 C 0.052(2) 0.4090(8) 0.264(2)
C50 C 0.267(2) 0.4760(7) 0.393(2)
O7 O 0.3661(15) 0.4715(5) 0.4273(14)
O8 O 0.2301(15) 0.5079(5) 0.3696(12)
C53 C 0.042(2) 0.1042(8) 0.654(2)
H48 H 0.034850 0.039339 0.536180
C56 C 0.027(2) 0.1603(8) 0.797(2)
H51 H 0.104093 0.155813 0.817931
H52 H 0.018287 0.185820 0.764527
C57 C 0.159(2) 0.1001(8) 0.6584(19)
C58 C 0.227(2) 0.1318(9) 0.648(2)
H53 H 0.196885 0.157268 0.643488
C59 C 0.341(2) 0.1265(8) 0.6438(18)
H54 H 0.388485 0.148062 0.643698
C60 C 0.382(2) 0.0872(7) 0.6398(19)
C61 C 0.318(2) 0.0568(9) 0.6507(18)
H55 H 0.347325 0.031329 0.649138
C62 C 0.203(2) 0.0624(8) 0.6653(18)
H56 H 0.158895 0.040856 0.679259
C63 C 0.503(2) 0.0833(7) 0.6279(18)
O9 O 0.5662(14) 0.1114(5) 0.6233(14)
O10 O 0.5319(13) 0.0490(6) 0.6160(13)
Mn7 Mn 0.7062(3) 0.06389(12) 0.6084(3)
Mn8 Mn 0.2938(3) 0.56389(12) 0.3916(3)
Mn12 Mn 0.500000 0.500000 0.500000
O20 O 0.5959(16) 0.0293(6) 0.3994(14)
Mn1 Mn 0.2938(3) 0.93611(12) 0.3916(3)
C1 C 0.214(2) 0.8587(7) 0.2592(17)
H1 H 0.194637 0.833577 0.225564
H2 H 0.271805 0.853735 0.314381
Mn2_2 Mn 0.500000 1.000000 0.500000
N1 N 0.1216(17) 0.8741(6) 0.3021(14)
N2 N 0.1361(15) 0.9019(6) 0.3776(13)
C2 C 0.036(2) 0.9141(8) 0.4016(19)
C4 C 0.014(2) 0.8709(8) 0.2772(18)
C5 C 0.0346(19) 0.9469(7) 0.4746(16)
H3 H 0.043039 0.936891 0.544956
H5 H 0.094372 0.964738 0.463524
H6 H 0.014717 0.840436 0.141870
N3 N 0.2544(17) 0.8850(6) 0.1848(14)
N4 N 0.2755(15) 0.9242(6) 0.2163(14)
C14 C 0.304(2) 0.9417(8) 0.1294(19)
C15 C 0.285(2) 0.9129(7) 0.045(2)
C16 C 0.267(2) 0.8785(7) 0.0811(18)
C17 C 0.346(2) 0.9823(7) 0.140(2)
H14 H 0.387390 0.988659 0.081369
H15 H 0.393288 0.984609 0.203522
C18 C 0.247(2) 0.8394(6) 0.0317(17)
H17 H 0.168785 0.835936 0.014130
H18 H 0.273125 0.818931 0.079597
O6 O 0.2301(15) 0.9921(5) 0.3696(12)
O13 O 0.4338(14) 0.8886(5) 0.3767(14)
O15 O 0.4681(13) 0.9510(6) 0.3840(13)
O17 O 0.2884(14) 0.9251(5) 0.5518(13)
O19 O 0.4041(16) 0.9707(6) 0.6006(14)
O21 O 0.6339(15) 0.9715(5) 0.5727(14)
H16 H 0.285758 0.837752 0.969327
C19 C 0.301(2) 0.9239(8) 0.937(2)
C20 C 0.375(2) 0.9493(7) 0.9074(18)
H19 H 0.420356 0.962930 0.957653
C21 C 0.387(2) 0.9559(8) 0.8056(18)
H20 H 0.441137 0.974010 0.789524
C22 C 0.3289(18) 0.9391(7) 0.7261(15)
C23 C 0.2558(19) 0.9112(7) 0.7608(18)
H21 H 0.214306 0.896140 0.711089
C24 C 0.241(2) 0.9045(7) 0.8670(18)
H22 H 0.188634 0.886237 0.886327
C25 C 0.342(2) 0.9443(8) 0.6163(16)
H60 H 0.714242 0.162248 0.030673
C69 C 0.699(2) 0.0761(8) 0.063(2)
C70 C 0.625(2) 0.0507(7) 0.0926(18)
H63 H 0.579644 0.037070 0.042347
C71 C 0.613(2) 0.0441(8) 0.1944(18)
H64 H 0.558863 0.025990 0.210476
C72 C 0.6711(18) 0.0609(7) 0.2739(15)
C73 C 0.7442(19) 0.0888(7) 0.2392(18)
H65 H 0.785694 0.103860 0.288911
C74 C 0.759(2) 0.0955(7) 0.1330(18)
H66 H 0.811366 0.113763 0.113673
C75 C 0.658(2) 0.0557(8) 0.3837(16)
O11 O 0.7116(14) 0.0749(5) 0.4482(13)
Cu1 Cu 0.9190(4) 0.250000 0.0752(4)
C26 C 0.873(3) 0.250000 0.314(3)
H23 H 0.795785 0.250000 0.287639
H24 H 0.877189 0.250000 0.389728
N5 N 0.9285(19) 0.2158(7) 0.2766(18)
N6 N 0.9447(18) 0.2067(7) 0.1800(18)
C27 C 0.999(2) 0.1735(8) 0.186(2)
C29 C 0.978(2) 0.1843(8) 0.3423(18)
H26 H 0.968756 0.144196 0.053619
C31 C 0.973(3) 0.1873(9) 0.4551(17)
H28 H 0.943094 0.163307 0.481302
H29 H 0.927274 0.209301 0.471071
H34 H 0.991477 0.089921 0.215208
N7 N 0.9285(19) 0.2842(7) 0.2766(18)
N8 N 0.9447(18) 0.2933(7) 0.1800(18)
C39 C 0.999(2) 0.3265(8) 0.186(2)
C41 C 0.978(2) 0.3157(8) 0.3423(18)
H36 H 0.968756 0.355804 0.053619
C43 C 0.973(3) 0.3127(9) 0.4551(17)
H38 H 0.943094 0.336693 0.481302
H39 H 0.927274 0.290699 0.471071
H44 H 0.991477 0.410079 0.215208
C51 C 0.786(2) 0.1413(7) 0.7408(17)
H45 H 0.805363 0.166423 0.774436
H46 H 0.728195 0.146265 0.685619
N9 N 0.8784(17) 0.1259(6) 0.6979(14)
N10 N 0.8639(15) 0.0981(6) 0.6224(13)
C52 C 0.964(2) 0.0859(8) 0.5984(19)
C54 C 0.986(2) 0.1291(8) 0.7228(18)
C55 C 0.9654(19) 0.0531(7) 0.5254(16)
H47 H 0.956961 0.063109 0.455044
H49 H 0.905628 0.035262 0.536476
H50 H 0.985283 0.159564 0.858130
N11 N 0.7456(17) 0.1150(6) 0.8152(14)
N12 N 0.7245(15) 0.0758(6) 0.7837(14)
C64 C 0.696(2) 0.0583(8) 0.8706(19)
C65 C 0.715(2) 0.0871(7) 0.955(2)
C66 C 0.733(2) 0.1215(7) 0.9189(18)
C67 C 0.654(2) 0.0177(7) 0.860(2)
H58 H 0.612610 0.011341 0.918631
H59 H 0.606712 0.015391 0.796478
C68 C 0.753(2) 0.1606(6) 0.9683(17)
H61 H 0.831215 0.164064 0.985870
H62 H 0.726875 0.181069 0.920403
O22 O 0.7699(15) 0.0079(5) 0.6304(12)
C3 C 0.958(2) 0.8958(8) 0.346(2)
H4 H 0.965150 0.960661 0.463820
C6 C 0.973(2) 0.8397(8) 0.203(2)
H7 H 0.895907 0.844187 0.182069
H8 H 0.981713 0.814180 0.235473
C7 C 0.841(2) 0.8999(8) 0.3416(19)
C8 C 0.773(2) 0.8682(9) 0.352(2)
H9 H 0.803115 0.842732 0.356512
C9 C 0.659(2) 0.8735(8) 0.3562(18)
H10 H 0.611515 0.851938 0.356302
C10 C 0.618(2) 0.9128(7) 0.3602(19)
C11 C 0.682(2) 0.9432(9) 0.3493(18)
H11 H 0.652675 0.968671 0.350862
C12 C 0.797(2) 0.9376(8) 0.3347(18)
H12 H 0.841105 0.959144 0.320741
C13 C 0.497(2) 0.9167(7) 0.3721(18)
H57 H 0.715339 0.999685 0.857645
Cu1_2 Cu 0.0810(4) 0.750000 0.9248(4)
C3_2 C 0.042(2) 0.3958(8) 0.654(2)
H4_2 H 0.034850 0.460661 0.536180
C6_2 C 0.027(2) 0.3397(8) 0.797(2)
H7_2 H 0.104093 0.344187 0.817931
H8_2 H 0.018287 0.314180 0.764527
C7_2 C 0.159(2) 0.3999(8) 0.6584(19)
C8_2 C 0.227(2) 0.3682(9) 0.648(2)
H9_2 H 0.196885 0.342732 0.643488
C9_2 C 0.341(2) 0.3735(8) 0.6438(18)
H10_2 H 0.388485 0.351938 0.643698
C10_2 C 0.382(2) 0.4128(7) 0.6398(19)
C11_2 C 0.318(2) 0.4432(9) 0.6507(18)
H11_2 H 0.347325 0.468671 0.649138
C12_2 C 0.203(2) 0.4376(8) 0.6653(18)
H12_2 H 0.158895 0.459144 0.679259
C13_2 C 0.503(2) 0.4167(7) 0.6279(18)
O1 O 0.5662(14) 0.3886(5) 0.6233(14)
O2 O 0.5319(13) 0.4510(6) 0.6160(13)
C26_2 C 0.127(3) 0.750000 0.686(3)
H23_2 H 0.204215 0.750000 0.712361
H24_2 H 0.122811 0.750000 0.610272
N5_2 N 0.0715(19) 0.7158(7) 0.7234(18)
N6_2 N 0.0553(18) 0.7067(7) 0.8200(18)
C27_2 C 0.001(2) 0.6735(8) 0.814(2)
C29_2 C 0.022(2) 0.6843(8) 0.6577(18)
H26_2 H 0.031244 0.644196 0.946381
C31_2 C 0.027(3) 0.6873(9) 0.5449(17)
H28_2 H 0.056906 0.663307 0.518698
H29_2 H 0.072726 0.709301 0.528929
H34_2 H 0.008523 0.589921 0.784792
N7_2 N 0.0715(19) 0.7842(7) 0.7234(18)
N8_2 N 0.0553(18) 0.7933(7) 0.8200(18)
C39_2 C 0.001(2) 0.8265(8) 0.814(2)
C41_2 C 0.022(2) 0.8157(8) 0.6577(18)
H36_2 H 0.031244 0.855804 0.946381
C43_2 C 0.027(3) 0.8127(9) 0.5449(17)
H38_2 H 0.056906 0.836693 0.518698
H39_2 H 0.072726 0.790699 0.528929
H44_2 H 0.008523 0.910079 0.784792
C51_2 C 0.214(2) 0.6413(7) 0.2592(17)
H45_2 H 0.194637 0.666423 0.225564
H46_2 H 0.271805 0.646265 0.314381
N9_2 N 0.1216(17) 0.6259(6) 0.3021(14)
N10_2 N 0.1361(15) 0.5981(6) 0.3776(13)
C52_2 C 0.036(2) 0.5859(8) 0.4016(19)
C54_2 C 0.014(2) 0.6291(8) 0.2772(18)
C55_2 C 0.0346(19) 0.5531(7) 0.4746(16)
H47_2 H 0.043039 0.563109 0.544956
H49_2 H 0.094372 0.535262 0.463524
H50_2 H 0.014717 0.659564 0.141870
N11_2 N 0.2544(17) 0.6150(6) 0.1848(14)
N12_2 N 0.2755(15) 0.5758(6) 0.2163(14)
C64_2 C 0.304(2) 0.5583(8) 0.1294(19)
C65_2 C 0.285(2) 0.5871(7) 0.045(2)
C66_2 C 0.267(2) 0.6215(7) 0.0811(18)
C67_2 C 0.346(2) 0.5177(7) 0.140(2)
H57_2 H 0.284661 0.499685 0.142355
H58_2 H 0.387390 0.511341 0.081369
H59_2 H 0.393288 0.515391 0.203522
C68_2 C 0.247(2) 0.6606(6) 0.0317(17)
H61_2 H 0.168785 0.664064 0.014130
H62_2 H 0.273125 0.681069 0.079597
Mn4 Mn 0.7062(3) 0.43611(12) 0.6084(3)
O14 O 0.4338(14) 0.6114(5) 0.3767(14)
O16 O 0.4681(13) 0.5490(6) 0.3840(13)
O18 O 0.2884(14) 0.5749(5) 0.5518(13)
H60_2 H 0.285758 0.662248 0.969327
C69_2 C 0.301(2) 0.5761(8) 0.937(2)
C70_2 C 0.375(2) 0.5507(7) 0.9074(18)
H63_2 H 0.420356 0.537070 0.957653
C71_2 C 0.387(2) 0.5441(8) 0.8056(18)
H64_2 H 0.441137 0.525990 0.789524
C72_2 C 0.3289(18) 0.5609(7) 0.7261(15)
C73_2 C 0.2558(19) 0.5888(7) 0.7608(18)
H65_2 H 0.214306 0.603860 0.711089
C74_2 C 0.241(2) 0.5955(7) 0.8670(18)
H66_2 H 0.188634 0.613763 0.886327
C75_2 C 0.342(2) 0.5557(8) 0.6163(16)
O12 O 0.4041(16) 0.5293(6) 0.6006(14)
H16_2 H 0.714242 0.337752 0.030673
C19_2 C 0.699(2) 0.4239(8) 0.063(2)
C20_2 C 0.625(2) 0.4493(7) 0.0926(18)
H19_2 H 0.579644 0.462930 0.042347
C21_2 C 0.613(2) 0.4559(8) 0.1944(18)
H20_2 H 0.558863 0.474010 0.210476
C22_2 C 0.6711(18) 0.4391(7) 0.2739(15)
C23_2 C 0.7442(19) 0.4112(7) 0.2392(18)
H21_2 H 0.785694 0.396140 0.288911
C24_2 C 0.759(2) 0.4045(7) 0.1330(18)
H22_2 H 0.811366 0.386237 0.113673
C25_2 C 0.658(2) 0.4443(8) 0.3837(16)
O3 O 0.7116(14) 0.4251(5) 0.4482(13)
O4 O 0.5959(16) 0.4707(6) 0.3994(14)
C1_2 C 0.786(2) 0.3587(7) 0.7408(17)
H1_2 H 0.805363 0.333577 0.774436
H2_2 H 0.728195 0.353735 0.685619
N1_2 N 0.8784(17) 0.3741(6) 0.6979(14)
N2_2 N 0.8639(15) 0.4019(6) 0.6224(13)
C2_2 C 0.964(2) 0.4141(8) 0.5984(19)
C4_2 C 0.986(2) 0.3709(8) 0.7228(18)
C5_2 C 0.9654(19) 0.4469(7) 0.5254(16)
H3_2 H 0.956961 0.436891 0.455044
H5_2 H 0.905628 0.464738 0.536476
H6_2 H 0.985283 0.340436 0.858130
N3_2 N 0.7456(17) 0.3850(6) 0.8152(14)
N4_2 N 0.7245(15) 0.4242(6) 0.7837(14)
C14_2 C 0.696(2) 0.4417(8) 0.8706(19)
C15_2 C 0.715(2) 0.4129(7) 0.955(2)
C16_2 C 0.733(2) 0.3785(7) 0.9189(18)
C17_2 C 0.654(2) 0.4823(7) 0.860(2)
H13_2 H 0.715339 0.500315 0.857645
H14_2 H 0.612610 0.488659 0.918631
H15_2 H 0.606712 0.484609 0.796478
C18_2 C 0.753(2) 0.3394(6) 0.9683(17)
H17_2 H 0.831215 0.335936 0.985870
H18_2 H 0.726875 0.318931 0.920403
C28_2 C 0.979(2) 0.6596(8) 0.722(2)
C30_2 C 0.970(2) 0.6585(8) 0.9122(18)
H25_2 H 0.950822 0.680269 0.955692
H27_2 H 0.907421 0.641174 0.900475
H30_2 H 0.953019 0.691289 0.512707
C32_2 C 0.915(2) 0.6258(8) 0.6846(19)
C33_2 C 0.819(2) 0.6272(7) 0.6281(19)
H31_2 H 0.792671 0.651758 0.604518
C34_2 C 0.761(2) 0.5958(7) 0.604(2)
H32_2 H 0.696550 0.598084 0.559446
C35_2 C 0.793(2) 0.5593(7) 0.643(2)
C36_2 C 0.883(2) 0.5576(8) 0.7073(18)
H33_2 H 0.904657 0.533100 0.735486
C37_2 C 0.948(2) 0.5910(8) 0.736(2)
C38_2 C 0.733(2) 0.5240(7) 0.607(2)
O5_2 O 0.6339(15) 0.5285(5) 0.5727(14)
O6_2 O 0.7699(15) 0.4921(5) 0.6304(12)
C40_2 C 0.979(2) 0.8404(8) 0.722(2)
C42_2 C 0.970(2) 0.8415(8) 0.9122(18)
H35_2 H 0.950822 0.819731 0.955692
H37_2 H 0.907421 0.858826 0.900475
H40_2 H 0.953019 0.808711 0.512707
C44_2 C 0.915(2) 0.8742(8) 0.6846(19)
C45_2 C 0.819(2) 0.8728(7) 0.6281(19)
H41_2 H 0.792671 0.848242 0.604518
C46_2 C 0.761(2) 0.9042(7) 0.604(2)
H42_2 H 0.696550 0.901916 0.559446
C47_2 C 0.793(2) 0.9407(7) 0.643(2)
C48_2 C 0.883(2) 0.9424(8) 0.7073(18)
H43_2 H 0.904657 0.966900 0.735486
C49_2 C 0.948(2) 0.9090(8) 0.736(2)
C50_2 C 0.733(2) 0.9760(7) 0.607(2)
C53_2 C 0.958(2) 0.6042(8) 0.346(2)
H48_2 H 0.965150 0.539339 0.463820
C56_2 C 0.973(2) 0.6603(8) 0.203(2)
H51_2 H 0.895907 0.655813 0.182069
H52_2 H 0.981713 0.685820 0.235473
C57_2 C 0.841(2) 0.6001(8) 0.3416(19)
C58_2 C 0.773(2) 0.6318(9) 0.352(2)
H53_2 H 0.803115 0.657268 0.356512
C59_2 C 0.659(2) 0.6265(8) 0.3562(18)
H54_2 H 0.611515 0.648062 0.356302
C60_2 C 0.618(2) 0.5872(7) 0.3602(19)
C61_2 C 0.682(2) 0.5568(9) 0.3493(18)
H55_2 H 0.652675 0.531329 0.350862
C62_2 C 0.797(2) 0.5624(8) 0.3347(18)
H56_2 H 0.841105 0.540856 0.320741
C63_2 C 0.497(2) 0.5833(7) 0.3721(18)
I1 I 0.8916(3) 0.250000 0.8873(2)
I1_2 I 0.1084(3) 0.750000 0.1127(2)
loop_
_geom_bond_atom_site_label_1
_geom_bond_atom_site_label_2
_geom_bond_site_symmetry_1
_geom_bond_site_symmetry_2
Mn2 O5 1_555 1_555
H25 C30 1_555 1_555
H27 C30 1_555 1_555
C32 C28 1_555 1_555
C33 C32 1_555 1_555
H31 C33 1_555 1_555
C34 C33 1_555 1_555
H32 C34 1_555 1_555
C35 C34 1_555 1_555
C36 C35 1_555 1_555
H33 C36 1_555 1_555
C37 C32 1_555 1_555
C38 C35 1_555 1_555
O5 C38 1_555 1_555
H35 C42 1_555 1_555
H37 C42 1_555 1_555
C44 C40 1_555 1_555
C45 C44 1_555 1_555
H41 C45 1_555 1_555
C46 C45 1_555 1_555
H42 C46 1_555 1_555
C47 C46 1_555 1_555
C48 C47 1_555 1_555
H43 C48 1_555 1_555
C49 C44 1_555 1_555
C50 C47 1_555 1_555
O7 C50 1_555 1_555
O8 C50 1_555 1_555
H51 C56 1_555 1_555
H52 C56 1_555 1_555
C57 C53 1_555 1_555
C58 C57 1_555 1_555
H53 C58 1_555 1_555
C59 C58 1_555 1_555
H54 C59 1_555 1_555
C60 C59 1_555 1_555
C61 C60 1_555 1_555
H55 C61 1_555 1_555
C62 C57 1_555 1_555
H56 C62 1_555 1_555
C63 C60 1_555 1_555
O9 C63 1_555 1_555
O10 Mn2 1_555 1_555
Mn7 O9 1_555 1_555
Mn8 O8 1_555 1_555
Mn12 O7 1_555 1_555
O20 Mn2 1_555 1_555
C36 C37 1_555 1_555
C48 C49 1_555 1_555
C61 C62 1_555 1_555
C63 O10 1_555 1_555
O10 Mn7 1_555 1_555
Mn1 N2 1_555 1_555
C1 H1 1_555 1_555
H2 C1 1_555 1_555
N1 C1 1_555 1_555
N2 N1 1_555 1_555
C2 N2 1_555 1_555
C4 N1 1_555 1_555
C5 C2 1_555 1_555
H3 C5 1_555 1_555
H5 C5 1_555 1_555
N3 C1 1_555 1_555
N4 Mn1 1_555 1_555
C14 N4 1_555 1_555
C15 C14 1_555 1_555
C16 N3 1_555 1_555
C17 C14 1_555 1_555
H14 C17 1_555 1_555
H15 C17 1_555 1_555
C18 C16 1_555 1_555
H17 C18 1_555 1_555
H18 C18 1_555 1_555
O6 Mn1 1_555 1_555
O13 Mn1 1_555 1_555
O15 Mn1 1_555 1_555
O17 Mn1 1_555 1_555
O19 Mn2_2 1_555 1_555
O21 Mn2_2 1_555 1_555
Mn2_2 O15 1_555 1_555
N3 N4 1_555 1_555
C15 C16 1_555 1_555
C20 C19 1_555 1_555
H19 C20 1_555 1_555
C21 C20 1_555 1_555
H20 C21 1_555 1_555
C22 C21 1_555 1_555
C23 C22 1_555 1_555
H21 C23 1_555 1_555
C24 C19 1_555 1_555
H22 C24 1_555 1_555
C25 C22 1_555 1_555
O17 C25 1_555 1_555
O19 C25 1_555 1_555
C23 C24 1_555 1_555
C70 C69 1_555 1_555
H63 C70 1_555 1_555
C71 C70 1_555 1_555
H64 C71 1_555 1_555
C72 C71 1_555 1_555
C73 C72 1_555 1_555
H65 C73 1_555 1_555
C74 C69 1_555 1_555
H66 C74 1_555 1_555
C75 C72 1_555 1_555
O11 C75 1_555 1_555
O20 C75 1_555 1_555
Mn7 O11 1_555 1_555
C73 C74 1_555 1_555
Cu1 N6 1_555 1_555
C26 H23 1_555 1_555
H24 C26 1_555 1_555
N5 C26 1_555 1_555
N6 N5 1_555 1_555
C27 N6 1_555 1_555
C29 N5 1_555 1_555
C31 C29 1_555 1_555
H28 C31 1_555 1_555
H29 C31 1_555 1_555
N7 C26 1_555 1_555
N8 Cu1 1_555 1_555
C39 N8 1_555 1_555
C41 N7 1_555 1_555
C43 C41 1_555 1_555
H38 C43 1_555 1_555
H39 C43 1_555 1_555
Mn7 N10 1_555 1_555
C51 H45 1_555 1_555
H46 C51 1_555 1_555
N9 C51 1_555 1_555
N10 N9 1_555 1_555
C52 N10 1_555 1_555
C54 N9 1_555 1_555
C55 C52 1_555 1_555
H47 C55 1_555 1_555
H49 C55 1_555 1_555
N11 C51 1_555 1_555
N12 Mn7 1_555 1_555
C64 N12 1_555 1_555
C65 C64 1_555 1_555
C66 N11 1_555 1_555
C67 C64 1_555 1_555
H58 C67 1_555 1_555
H59 C67 1_555 1_555
C68 C66 1_555 1_555
H61 C68 1_555 1_555
H62 C68 1_555 1_555
O22 Mn7 1_555 1_555
N7 N8 1_555 1_555
N11 N12 1_555 1_555
C65 C66 1_555 1_555
H7 C6 1_555 1_555
H8 C6 1_555 1_555
C7 C3 1_555 1_555
C8 C7 1_555 1_555
H9 C8 1_555 1_555
C9 C8 1_555 1_555
H10 C9 1_555 1_555
C10 C9 1_555 1_555
C11 C10 1_555 1_555
H11 C11 1_555 1_555
C12 C7 1_555 1_555
H12 C12 1_555 1_555
C13 C10 1_555 1_555
O13 C13 1_555 1_555
O15 C13 1_555 1_555
C11 C12 1_555 1_555
Cu1_2 N6_2 1_555 1_555
H7_2 C6_2 1_555 1_555
H8_2 C6_2 1_555 1_555
C7_2 C3_2 1_555 1_555
C8_2 C7_2 1_555 1_555
H9_2 C8_2 1_555 1_555
C9_2 C8_2 1_555 1_555
H10_2 C9_2 1_555 1_555
C10_2 C9_2 1_555 1_555
C11_2 C10_2 1_555 1_555
H11_2 C11_2 1_555 1_555
C12_2 C7_2 1_555 1_555
H12_2 C12_2 1_555 1_555
C13_2 C10_2 1_555 1_555
O1 C13_2 1_555 1_555
O2 C13_2 1_555 1_555
C26_2 H23_2 1_555 1_555
H24_2 C26_2 1_555 1_555
N5_2 C26_2 1_555 1_555
N6_2 N5_2 1_555 1_555
C27_2 N6_2 1_555 1_555
C29_2 N5_2 1_555 1_555
C31_2 C29_2 1_555 1_555
H28_2 C31_2 1_555 1_555
H29_2 C31_2 1_555 1_555
N7_2 C26_2 1_555 1_555
N8_2 Cu1_2 1_555 1_555
C39_2 N8_2 1_555 1_555
C41_2 N7_2 1_555 1_555
C43_2 C41_2 1_555 1_555
H38_2 C43_2 1_555 1_555
H39_2 C43_2 1_555 1_555
Mn8 N10_2 1_555 1_555
C51_2 H45_2 1_555 1_555
H46_2 C51_2 1_555 1_555
N9_2 C51_2 1_555 1_555
N10_2 N9_2 1_555 1_555
C52_2 N10_2 1_555 1_555
C54_2 N9_2 1_555 1_555
C55_2 C52_2 1_555 1_555
H47_2 C55_2 1_555 1_555
H49_2 C55_2 1_555 1_555
N11_2 C51_2 1_555 1_555
N12_2 Mn8 1_555 1_555
C64_2 N12_2 1_555 1_555
C65_2 C64_2 1_555 1_555
C66_2 N11_2 1_555 1_555
C67_2 C64_2 1_555 1_555
H57_2 C67_2 1_555 1_555
H58_2 C67_2 1_555 1_555
H59_2 C67_2 1_555 1_555
C68_2 C66_2 1_555 1_555
H61_2 C68_2 1_555 1_555
H62_2 C68_2 1_555 1_555
Mn4 O1 1_555 1_555
Mn12 O2 1_555 1_555
O14 Mn8 1_555 1_555
O16 Mn8 1_555 1_555
O18 Mn8 1_555 1_555
C11_2 C12_2 1_555 1_555
O2 Mn4 1_555 1_555
N7_2 N8_2 1_555 1_555
N11_2 N12_2 1_555 1_555
C65_2 C66_2 1_555 1_555
Mn12 O16 1_555 1_555
C70_2 C69_2 1_555 1_555
H63_2 C70_2 1_555 1_555
C71_2 C70_2 1_555 1_555
H64_2 C71_2 1_555 1_555
C72_2 C71_2 1_555 1_555
C73_2 C72_2 1_555 1_555
H65_2 C73_2 1_555 1_555
C74_2 C69_2 1_555 1_555
H66_2 C74_2 1_555 1_555
C75_2 C72_2 1_555 1_555
O18 C75_2 1_555 1_555
O12 C75_2 1_555 1_555
Mn12 O12 1_555 1_555
C73_2 C74_2 1_555 1_555
C20_2 C19_2 1_555 1_555
H19_2 C20_2 1_555 1_555
C21_2 C20_2 1_555 1_555
H20_2 C21_2 1_555 1_555
C22_2 C21_2 1_555 1_555
C23_2 C22_2 1_555 1_555
H21_2 C23_2 1_555 1_555
C24_2 C19_2 1_555 1_555
H22_2 C24_2 1_555 1_555
C25_2 C22_2 1_555 1_555
O3 C25_2 1_555 1_555
O4 C25_2 1_555 1_555
Mn4 O3 1_555 1_555
Mn12 O4 1_555 1_555
C23_2 C24_2 1_555 1_555
Mn4 N2_2 1_555 1_555
C1_2 H1_2 1_555 1_555
H2_2 C1_2 1_555 1_555
Mn12 O5_2 1_555 1_555
N1_2 C1_2 1_555 1_555
N2_2 N1_2 1_555 1_555
C2_2 N2_2 1_555 1_555
C4_2 N1_2 1_555 1_555
C5_2 C2_2 1_555 1_555
H3_2 C5_2 1_555 1_555
H5_2 C5_2 1_555 1_555
N3_2 C1_2 1_555 1_555
N4_2 Mn4 1_555 1_555
C14_2 N4_2 1_555 1_555
C15_2 C14_2 1_555 1_555
C16_2 N3_2 1_555 1_555
C17_2 C14_2 1_555 1_555
H13_2 C17_2 1_555 1_555
H14_2 C17_2 1_555 1_555
H15_2 C17_2 1_555 1_555
C18_2 C16_2 1_555 1_555
H17_2 C18_2 1_555 1_555
H18_2 C18_2 1_555 1_555
H25_2 C30_2 1_555 1_555
H27_2 C30_2 1_555 1_555
C32_2 C28_2 1_555 1_555
C33_2 C32_2 1_555 1_555
H31_2 C33_2 1_555 1_555
C34_2 C33_2 1_555 1_555
H32_2 C34_2 1_555 1_555
C35_2 C34_2 1_555 1_555
C36_2 C35_2 1_555 1_555
H33_2 C36_2 1_555 1_555
C37_2 C32_2 1_555 1_555
C38_2 C35_2 1_555 1_555
O5_2 C38_2 1_555 1_555
O6_2 Mn4 1_555 1_555
H35_2 C42_2 1_555 1_555
H37_2 C42_2 1_555 1_555
C44_2 C40_2 1_555 1_555
C45_2 C44_2 1_555 1_555
H41_2 C45_2 1_555 1_555
C46_2 C45_2 1_555 1_555
H42_2 C46_2 1_555 1_555
C47_2 C46_2 1_555 1_555
C48_2 C47_2 1_555 1_555
H43_2 C48_2 1_555 1_555
C49_2 C44_2 1_555 1_555
C50_2 C47_2 1_555 1_555
O21 C50_2 1_555 1_555
H51_2 C56_2 1_555 1_555
H52_2 C56_2 1_555 1_555
C57_2 C53_2 1_555 1_555
C58_2 C57_2 1_555 1_555
H53_2 C58_2 1_555 1_555
C59_2 C58_2 1_555 1_555
H54_2 C59_2 1_555 1_555
C60_2 C59_2 1_555 1_555
C61_2 C60_2 1_555 1_555
H55_2 C61_2 1_555 1_555
C62_2 C57_2 1_555 1_555
H56_2 C62_2 1_555 1_555
C63_2 C60_2 1_555 1_555
O14 C63_2 1_555 1_555
N3_2 N4_2 1_555 1_555
C15_2 C16_2 1_555 1_555
C36_2 C37_2 1_555 1_555
C38_2 O6_2 1_555 1_555
C48_2 C49_2 1_555 1_555
C61_2 C62_2 1_555 1_555
C63_2 O16 1_555 1_555

#END
