
###############################################################################
#
# This file contains modified crystal structure data generated from the
# MOF subset of the Cambridge Structural Database (CSD) v543 
# hosted by the Cambridge Crystallographic Data Centre (CCDC).
#
# This work is licensed under the Creative Commons
# Attribution-NonCommercial-ShareAlike 4.0 International License.
# To view a copy of this license, visit
# http://creativecommons.org/licenses/by-nc-sa/4.0/
# or send a letter to
# Creative Commons, PO Box 1866, Mountain View, CA 94042, USA.
#
# CIF created using the CSD Python API on 29 September 2022
# The structure has been converted into the P1 space group
# The structure has a 3D framework
# The original CSD entry BAQMOW is in the rhombohedral crystal system
# The framework has been calculated to contain at least 10.0% void space
# The void calculation uses a probe of radius 1.32A, grid spacing 0.4
#
###############################################################################

data_BAQMOW
_chemical_formula_moiety         '(C36 H36 Mn11 O50)n'
_symmetry_cell_setting           triclinic
_symmetry_space_group_name_H-M   'P 1'
_symmetry_Int_Tables_number      1
_space_group_name_Hall           'P 1'
loop_
_symmetry_equiv_pos_site_id
_symmetry_equiv_pos_as_xyz
1 x,y,z
_cell_length_a                   11.607(11)
_cell_length_b                   11.607(11)
_cell_length_c                   14.66(3)
_cell_angle_alpha                90
_cell_angle_beta                 90
_cell_angle_gamma                120
_cell_volume                     1710.43
loop_
_atom_site_label
_atom_site_type_symbol
_atom_site_fract_x
_atom_site_fract_y
_atom_site_fract_z
Mn1 Mn 0.3333 0.1667 0.1667
O1 O 0.17386(14) 0.00842(13) 0.09142(9)
O2 O 0.48331(13) 0.12569(15) 0.11367(9)
O3 O 0.71047(13) 0.06015(13) 0.04803(9)
C1 C 0.49137(17) 0.05645(19) 0.05129(12)
C2 C 0.59481(17) 0.02720(17) 0.02224(12)
O6 O 0.49281(14) 0.32491(13) 0.24191(9)
H3 H 0.554(3) 0.392(3) 0.2102(19)
H4 H 0.475(3) 0.361(3) 0.286(2)
O7 O 0.18336(13) 0.20764(15) 0.21966(9)
O8 O 0.34968(18) 0.28953(13) 0.04803(9)
O9 O 0.31699(18) 0.04380(13) 0.28530(9)
Mn2 Mn 0.8333 0.1666 0.1667
C3 C 0.50863(17) 0.94355(19) 0.94871(12)
O4 O 0.51669(13) 0.87431(15) 0.88633(9)
C4 C 0.40519(17) 0.97280(17) 0.97776(12)
O5 O 0.28953(13) 0.93985(13) 0.95197(9)
Mn3 Mn 0.6666 0.8334 0.8334
Mn4 Mn 0.1667 0.8334 0.8333
C3_2 C 0.05645(19) 0.56508(25) 0.94871(12)
O4_2 O 0.12569(15) 0.64238(20) 0.88633(9)
C4_2 C 0.02720(17) 0.43239(24) 0.97776(12)
O5_2 O 0.06015(13) 0.34968(18) 0.95197(9)
Mn4_2 Mn 0.1666 0.3333 0.8333
O1_2 O 0.99158(13) 0.16544(19) 0.09142(9)
O2_2 O 0.87431(15) 0.35762(20) 0.11367(9)
O3_2 O 0.93985(13) 0.65032(18) 0.04803(9)
C1_2 C 0.94355(19) 0.43492(25) 0.05129(12)
C2_2 C 0.97280(17) 0.56761(24) 0.02224(12)
O6_2 O 0.67509(13) 0.16789(19) 0.24191(9)
H3_2 H 0.608(3) 0.161(4) 0.2102(19)
H4_2 H 0.639(3) 0.113(4) 0.286(2)
O9_2 O 0.95620(13) 0.27318(22) 0.28530(9)
Mn2_2 Mn 0.8334 0.6667 0.1667
O7_2 O 0.79236(15) 0.97571(20) 0.21966(9)
O7_3 O 0.02429(20) 0.81664(13) 0.21966(9)
O1_3 O 0.83456(19) 0.82614(14) 0.09142(9)
O2_3 O 0.64238(20) 0.51669(13) 0.11367(9)
C1_3 C 0.56508(25) 0.50863(17) 0.05129(12)
C2_3 C 0.43239(24) 0.40519(17) 0.02224(12)
H1 H 0.828(4) 0.887(3) 0.1231(19)
H2 H 0.780(4) 0.808(3) 0.047(2)
O6_3 O 0.83211(19) 0.50719(14) 0.24191(9)
H3_3 H 0.839(4) 0.446(3) 0.2102(19)
H4_3 H 0.887(4) 0.525(3) 0.286(2)
O9_3 O 0.72682(22) 0.68301(18) 0.28530(9)
C3_3 C 0.43492(25) 0.49137(17) 0.94871(12)
O4_3 O 0.35762(20) 0.48331(13) 0.88633(9)
C4_3 C 0.56761(24) 0.59481(17) 0.97776(12)
O5_3 O 0.65032(18) 0.71047(13) 0.95197(9)
Mn1_2 Mn -0.0000 0.5000 0.5000
O2_4 O 0.14998(13) 0.45902(15) 0.44700(9)
O3_3 O 0.37714(13) 0.39348(13) 0.38136(9)
C1_4 C 0.15804(17) 0.38978(19) 0.38462(12)
C2_4 C 0.26148(17) 0.36053(17) 0.35557(12)
C3_4 C 0.17530(17) 0.27688(19) 0.28204(12)
C4_4 C 0.07186(17) 0.30613(17) 0.31109(12)
O6_4 O 0.15947(14) 0.65825(13) 0.57525(9)
H3_4 H 0.220(3) 0.726(3) 0.5436(19)
H4_4 H 0.141(3) 0.695(3) 0.620(2)
O8_2 O 0.01635(18) 0.62286(13) 0.38136(9)
Mn2_3 Mn 0.5000 0.4999 0.5000
Mn1_3 Mn 1.0000 0.5000 0.5000
O1_4 O 0.84053(14) 0.34175(13) 0.42475(9)
H1_2 H 0.780(3) 0.274(3) 0.4564(19)
H2_2 H 0.859(3) 0.305(3) 0.380(2)
O7_4 O 0.85002(13) 0.54098(15) 0.55300(9)
O9_4 O 0.98365(18) 0.37714(13) 0.61864(9)
Mn2_4 Mn 0.5001 0.0000 0.5000
O1_5 O 0.65825(13) 0.49877(19) 0.42475(9)
O2_5 O 0.54098(15) 0.69095(20) 0.44700(9)
O3_4 O 0.60652(13) 0.98365(18) 0.38136(9)
C1_5 C 0.61022(19) 0.76825(25) 0.38462(12)
C2_5 C 0.63947(17) 0.90094(24) 0.35557(12)
H1_3 H 0.726(3) 0.505(4) 0.4564(19)
H2_3 H 0.695(3) 0.553(4) 0.380(2)
C3_5 C 0.72312(19) 0.89841(25) 0.28204(12)
C4_5 C 0.69387(17) 0.76572(24) 0.31109(12)
O6_5 O 0.34175(13) 0.50123(19) 0.57525(9)
H3_5 H 0.274(3) 0.495(4) 0.5436(19)
H4_5 H 0.305(3) 0.447(4) 0.620(2)
O7_5 O 0.45902(15) 0.30905(20) 0.55300(9)
O9_5 O 0.62286(13) 0.60652(22) 0.61864(9)
Mn2_5 Mn 0.5001 1.0000 0.5000
O1_6 O 0.50123(19) 0.15947(14) 0.42475(9)
H1_4 H 0.495(4) 0.220(3) 0.4564(19)
H2_4 H 0.447(4) 0.141(3) 0.380(2)
O7_6 O 0.69095(20) 0.14998(13) 0.55300(9)
O9_6 O 0.39348(22) 0.01635(18) 0.61864(9)
O2_6 O 0.30905(20) 0.85002(13) 0.44700(9)
C1_6 C 0.23175(25) 0.84196(17) 0.38462(12)
C2_6 C 0.09906(24) 0.73852(17) 0.35557(12)
C3_6 C 0.10159(25) 0.82470(17) 0.28204(12)
C4_6 C 0.23428(24) 0.92814(17) 0.31109(12)
O6_6 O 0.49877(19) 0.84053(14) 0.57525(9)
H3_6 H 0.505(4) 0.780(3) 0.5436(19)
H4_6 H 0.553(4) 0.859(3) 0.620(2)
O3_5 O 0.04380(13) 0.72682(13) 0.71470(9)
O1_7 O 0.50719(14) 0.67509(13) 0.75809(9)
O2_7 O 0.81664(13) 0.79236(15) 0.78034(9)
C1_7 C 0.82470(17) 0.72312(19) 0.71796(12)
C2_7 C 0.92814(17) 0.69387(17) 0.68891(12)
H1_5 H 0.446(3) 0.608(3) 0.7898(19)
H2_5 H 0.525(3) 0.639(3) 0.714(2)
C3_7 C 0.84196(17) 0.61022(19) 0.61538(12)
C4_7 C 0.73852(17) 0.63947(17) 0.64443(12)
O6_7 O 0.82614(14) 0.99158(13) 0.90858(9)
O8_3 O 0.68301(18) 0.95620(13) 0.71470(9)
O2_8 O 0.20764(15) 0.02429(20) 0.78034(9)
O3_6 O 0.27318(13) 0.31699(18) 0.71470(9)
C1_8 C 0.27688(19) 0.10159(25) 0.71796(12)
C2_8 C 0.30613(17) 0.23428(24) 0.68891(12)
C3_8 C 0.38978(19) 0.23175(25) 0.61538(12)
C4_8 C 0.36053(17) 0.09906(24) 0.64443(12)
O1_8 O 0.32491(13) 0.83211(19) 0.75809(9)
H1_6 H 0.392(3) 0.839(4) 0.7898(19)
H2_6 H 0.361(3) 0.887(4) 0.714(2)
O6_8 O 0.00842(13) 0.83456(19) 0.90858(9)
O1_9 O 0.16789(19) 0.49281(14) 0.75809(9)
H1_7 H 0.161(4) 0.554(3) 0.7898(19)
H2_7 H 0.113(4) 0.475(3) 0.714(2)
O6_9 O 0.16544(19) 0.17386(14) 0.90858(9)
H3_7 H 0.172(4) 0.113(3) 0.8769(19)
H4_7 H 0.220(4) 0.192(3) 0.953(2)
O2_9 O 0.97571(20) 0.18336(13) 0.78034(9)
C1_9 C 0.89841(25) 0.17530(17) 0.71796(12)
C2_9 C 0.76572(24) 0.07186(17) 0.68891(12)
C3_9 C 0.76825(25) 0.15804(17) 0.61538(12)
C4_9 C 0.90094(24) 0.26148(17) 0.64443(12)
H1_8 H 0.113(3) 0.941(3) 0.1231(19)
H2_8 H 0.192(3) 0.972(3) 0.047(2)
H1_9 H 0.059(3) 0.172(4) 0.1231(19)
H2_9 H 0.028(3) 0.220(4) 0.047(2)
H3_8 H 0.887(3) 0.059(3) 0.8769(19)
H4_8 H 0.808(3) 0.028(3) 0.953(2)
H3_9 H 0.941(3) 0.828(4) 0.8769(19)
H4_9 H 0.972(3) 0.780(4) 0.953(2)
loop_
_geom_bond_atom_site_label_1
_geom_bond_atom_site_label_2
_geom_bond_site_symmetry_1
_geom_bond_site_symmetry_2
Mn1 O1 1_555 1_555
O2 Mn1 1_555 1_555
O3 C2 1_555 1_555
C1 O2 1_555 1_555
C2 C1 1_555 1_555
O6 Mn1 1_555 1_555
H3 O6 1_555 1_555
H4 O6 1_555 1_555
O7 Mn1 1_555 1_555
O8 Mn1 1_555 1_555
O9 Mn1 1_555 1_555
Mn2 O3 1_555 1_555
O4 C3 1_555 1_555
O5 C4 1_555 1_555
Mn3 O4 1_555 1_555
Mn4 O5 1_555 1_555
C3 C4 1_555 1_555
O4_2 C3_2 1_555 1_555
O5_2 C4_2 1_555 1_555
Mn4 O4_2 1_555 1_555
Mn4_2 O5_2 1_555 1_555
C3_2 C4_2 1_555 1_555
Mn2 O1_2 1_555 1_555
O2_2 Mn2 1_555 1_555
O3_2 C2_2 1_555 1_555
C1_2 O2_2 1_555 1_555
C2_2 C1_2 1_555 1_555
O6_2 Mn2 1_555 1_555
H3_2 O6_2 1_555 1_555
H4_2 O6_2 1_555 1_555
O9_2 Mn2 1_555 1_555
Mn2_2 O3_2 1_555 1_555
Mn2_2 O1_3 1_555 1_555
O1_3 H1 1_555 1_555
O2_3 Mn2_2 1_555 1_555
O8 C2_3 1_555 1_555
C1_3 O2_3 1_555 1_555
C2_3 C1_3 1_555 1_555
H2 O1_3 1_555 1_555
O6_3 Mn2_2 1_555 1_555
H3_3 O6_3 1_555 1_555
H4_3 O6_3 1_555 1_555
O9_3 Mn2_2 1_555 1_555
O4_3 C3_3 1_555 1_555
O5_3 C4_3 1_555 1_555
Mn4_2 O4_3 1_555 1_555
Mn3 O5_3 1_555 1_555
C3_3 C4_3 1_555 1_555
O2_4 Mn1_2 1_555 1_555
O3_3 C2_4 1_555 1_555
C1_4 O2_4 1_555 1_555
C2_4 C1_4 1_555 1_555
C3_4 C2_4 1_555 1_555
O7 C3_4 1_555 1_555
C4_4 C1_4 1_555 1_555
O6_4 Mn1_2 1_555 1_555
H3_4 O6_4 1_555 1_555
H4_4 O6_4 1_555 1_555
O8_2 Mn1_2 1_555 1_555
Mn2_3 O3_3 1_555 1_555
C3_4 C4_4 1_555 1_555
Mn1_3 O1_4 1_555 1_555
O1_4 H1_2 1_555 1_555
H2_2 O1_4 1_555 1_555
O7_4 Mn1_3 1_555 1_555
O9_4 Mn1_3 1_555 1_555
Mn2_3 O1_5 1_555 1_555
O1_5 H1_3 1_555 1_555
O2_5 Mn2_3 1_555 1_555
O3_4 C2_5 1_555 1_555
C1_5 O2_5 1_555 1_555
C2_5 C1_5 1_555 1_555
H2_3 O1_5 1_555 1_555
C3_5 C2_5 1_555 1_555
O7_2 C3_5 1_555 1_555
C4_5 C1_5 1_555 1_555
O9_3 C4_5 1_555 1_555
O6_5 Mn2_3 1_555 1_555
H3_5 O6_5 1_555 1_555
H4_5 O6_5 1_555 1_555
O7_5 Mn2_3 1_555 1_555
O9_5 Mn2_3 1_555 1_555
Mn2_5 O3_4 1_555 1_555
C3_5 C4_5 1_555 1_555
Mn2_4 O1_6 1_555 1_555
O1_6 H1_4 1_555 1_555
H2_4 O1_6 1_555 1_555
O7_6 Mn2_4 1_555 1_555
O9_6 Mn2_4 1_555 1_555
O2_6 Mn2_5 1_555 1_555
O8_2 C2_6 1_555 1_555
C1_6 O2_6 1_555 1_555
C2_6 C1_6 1_555 1_555
C3_6 C2_6 1_555 1_555
O7_3 C3_6 1_555 1_555
C4_6 C1_6 1_555 1_555
O6_6 Mn2_5 1_555 1_555
H3_6 O6_6 1_555 1_555
H4_6 O6_6 1_555 1_555
C3_6 C4_6 1_555 1_555
Mn4 O3_5 1_555 1_555
Mn3 O1_7 1_555 1_555
O1_7 H1_5 1_555 1_555
O2_7 Mn3 1_555 1_555
C1_7 O2_7 1_555 1_555
C2_7 C1_7 1_555 1_555
H2_5 O1_7 1_555 1_555
C3_7 C2_7 1_555 1_555
O7_4 C3_7 1_555 1_555
C4_7 C1_7 1_555 1_555
O9_5 C4_7 1_555 1_555
O6_7 Mn3 1_555 1_555
O8_3 Mn3 1_555 1_555
C3_7 C4_7 1_555 1_555
O3_6 C2_8 1_555 1_555
C1_8 O2_8 1_555 1_555
C2_8 C1_8 1_555 1_555
C3_8 C2_8 1_555 1_555
O7_5 C3_8 1_555 1_555
C4_8 C1_8 1_555 1_555
O9_6 C4_8 1_555 1_555
Mn4_2 O3_6 1_555 1_555
C3_8 C4_8 1_555 1_555
Mn4 O1_8 1_555 1_555
O1_8 H1_6 1_555 1_555
H2_6 O1_8 1_555 1_555
O6_8 Mn4 1_555 1_555
Mn4_2 O1_9 1_555 1_555
O1_9 H1_7 1_555 1_555
H2_7 O1_9 1_555 1_555
O6_9 Mn4_2 1_555 1_555
H3_7 O6_9 1_555 1_555
H4_7 O6_9 1_555 1_555
C1_9 O2_9 1_555 1_555
C2_9 C1_9 1_555 1_555
C3_9 C2_9 1_555 1_555
O7_6 C3_9 1_555 1_555
C4_9 C1_9 1_555 1_555
O9_4 C4_9 1_555 1_555
C3_9 C4_9 1_555 1_555

#END
