
###############################################################################
#
# This file contains modified crystal structure data generated from the
# MOF subset of the Cambridge Structural Database (CSD) v543 
# hosted by the Cambridge Crystallographic Data Centre (CCDC).
#
# This work is licensed under the Creative Commons
# Attribution-NonCommercial-ShareAlike 4.0 International License.
# To view a copy of this license, visit
# http://creativecommons.org/licenses/by-nc-sa/4.0/
# or send a letter to
# Creative Commons, PO Box 1866, Mountain View, CA 94042, USA.
#
# CIF created using the CSD Python API on 29 September 2022
# The structure has been converted into the P1 space group
# The structure has a 3D framework
# The original CSD entry BASMUG is in the monoclinic crystal system
# The framework has been calculated to contain at least 10.0% void space
# The void calculation uses a probe of radius 1.32A, grid spacing 0.4
#
###############################################################################

data_BASMUG
_chemical_formula_moiety         '(C40 H28 N8 O12 Zn4)n'
_symmetry_cell_setting           triclinic
_symmetry_space_group_name_H-M   'P 1'
_symmetry_Int_Tables_number      1
_space_group_name_Hall           'P 1'
loop_
_symmetry_equiv_pos_site_id
_symmetry_equiv_pos_as_xyz
1 x,y,z
_cell_length_a                   10.918(2)
_cell_length_b                   13.246(3)
_cell_length_c                   11.454(3)
_cell_angle_alpha                90
_cell_angle_beta                 103.092(4)
_cell_angle_gamma                90
_cell_volume                     1613.42
loop_
_atom_site_label
_atom_site_type_symbol
_atom_site_fract_x
_atom_site_fract_y
_atom_site_fract_z
Zn6 Zn 0.03252(4) 0.48418(3) 0.63383(3)
Zn5 Zn 0.03252(4) 0.01582(3) 0.13383(3)
C17 C 0.1129(4) 0.3562(3) 0.0380(3)
H11 H 0.1267 0.3296 0.1150
C20 C 0.1514(4) 0.4517(3) 0.0211(3)
H12 H 0.1934 0.4899 0.0860
O8 O 0.0359(3) 0.1562(2) 0.0582(2)
H1 H 0.0112 0.6948 0.2386
C7 C 0.2361(4) 0.5106(3) 0.5057(4)
C8 C 0.3727(4) 0.5054(3) 0.5024(4)
C9 C 0.4660(5) 0.5106(4) 0.6082(5)
H4 H 0.4434 0.5188 0.6812
C10 C 0.4089(5) 0.4964(4) 0.3947(4)
H5 H 0.3480 0.4950 0.3233
O1 O 0.0205(3) 0.8608(2) 0.1418(2)
O3 O 0.1584(3) 0.5185(3) 0.4065(3)
O4 O 0.2093(3) 0.5034(3) 0.6071(3)
C11 C 0.7639(4) 0.4894(3) 0.4943(4)
C12 C 0.6273(4) 0.4946(3) 0.4976(4)
C13 C 0.5340(5) 0.4894(4) 0.3918(5)
H8 H 0.5566 0.4812 0.3188
C14 C 0.5911(5) 0.5036(4) 0.6053(4)
H9 H 0.6520 0.5050 0.6767
O5 O 0.8416(3) 0.4815(3) 0.5935(3)
O6 O 0.7907(3) 0.4966(3) 0.3929(3)
C15 C 0.0305(4) 0.3424(3) 0.8274(3)
C16 C 0.0522(3) 0.2974(3) 0.9392(3)
C18 C 0.1268(4) 0.4926(3) 0.9033(4)
C19 C 0.0188(4) 0.1898(3) 0.9527(3)
N3 N 0.0664(3) 0.4371(2) 0.8090(3)
N4 N 0.1629(4) 0.5877(3) 0.8845(3)
H13 H 0.1473 0.6121 0.8131
H14 H 0.2015 0.6238 0.9440
Zn3 Zn 0.96748(4) 0.51582(3) 0.36617(3)
O10 O 0.0205(3) 0.6392(2) 0.6418(2)
O11 O 0.0359(3) 0.3438(2) 0.5582(2)
C1 C 0.9695(4) 0.6576(3) 0.1726(3)
C2 C 0.9478(3) 0.7026(3) 0.0608(3)
C4 C 0.8732(4) 0.5074(3) 0.0967(4)
C5 C 0.9812(4) 0.8102(3) 0.0473(3)
N1 N 0.9336(3) 0.5629(2) 0.1910(3)
N2 N 0.8371(4) 0.4123(3) 0.1155(3)
H6 H 0.8527 0.3879 0.1869
H7 H 0.7985 0.3762 0.0560
H10 H 0.9888 0.3052 0.7614
O7 O 0.9795(3) 0.1392(2) 0.8582(2)
O9 O 0.9795(3) 0.3608(2) 0.3582(2)
O12 O 0.9641(3) 0.6562(2) 0.4418(2)
C3 C 0.8871(4) 0.6438(3) 0.9620(3)
H2 H 0.8733 0.6704 0.8850
C6 C 0.8486(4) 0.5483(3) 0.9789(3)
H3 H 0.8066 0.5101 0.9140
O2 O 0.9641(3) 0.8438(2) 0.9418(2)
Zn8 Zn 0.96748(4) 0.98418(3) 0.86617(3)
C1_2 C 0.0305(4) 0.1576(3) 0.3274(3)
C2_2 C 0.0522(3) 0.2026(3) 0.4392(3)
C3_2 C 0.1129(4) 0.1438(3) 0.5380(3)
H2_2 H 0.1267 0.1704 0.6150
C4_2 C 0.1268(4) 0.0074(3) 0.4033(4)
C5_2 C 0.0188(4) 0.3102(3) 0.4527(3)
C6_2 C 0.1514(4) 0.0483(3) 0.5211(3)
H3_2 H 0.1934 0.0101 0.5860
N1_2 N 0.0664(3) 0.0629(2) 0.3090(3)
N2_2 N 0.1629(4) 0.9123(3) 0.3845(3)
H6_2 H 0.1473 0.8879 0.3131
H7_2 H 0.2015 0.8762 0.4440
O14 O 0.2093(3) 0.9966(3) 0.1071(3)
H10_2 H 0.0112 0.8052 0.7386
O13 O 0.1584(3) 0.9815(3) 0.9065(3)
H1_2 H 0.9888 0.1948 0.2614
O3_2 O 0.8416(3) 0.0185(3) 0.0935(3)
C7_2 C 0.7639(4) 0.0106(3) 0.9943(4)
C8_2 C 0.6273(4) 0.0054(3) 0.9976(4)
C9_2 C 0.5340(5) 0.0106(4) 0.8918(5)
H4_2 H 0.5566 0.0188 0.8188
O4_2 O 0.7907(3) 0.0034(3) 0.8929(3)
C14_2 C 0.4089(5) 0.0036(4) 0.8947(4)
H9_2 H 0.3480 0.0050 0.8233
N4_2 N 0.8371(4) 0.0877(3) 0.6155(3)
H13_2 H 0.8527 0.1121 0.6869
H14_2 H 0.7985 0.1238 0.5560
C10_2 C 0.5911(5) 0.9964(4) 0.1053(4)
H5_2 H 0.6520 0.9950 0.1767
C11_2 C 0.2361(4) 0.9894(3) 0.0057(4)
C12_2 C 0.3727(4) 0.9946(3) 0.0024(4)
C13_2 C 0.4660(5) 0.9894(4) 0.1082(5)
H8_2 H 0.4434 0.9812 0.1812
C15_2 C 0.9695(4) 0.8424(3) 0.6726(3)
C16_2 C 0.9478(3) 0.7974(3) 0.5608(3)
C17_2 C 0.8871(4) 0.8562(3) 0.4620(3)
H11_2 H 0.8733 0.8296 0.3850
C18_2 C 0.8732(4) 0.9926(3) 0.5967(4)
C19_2 C 0.9812(4) 0.6898(3) 0.5473(3)
C20_2 C 0.8486(4) 0.9517(3) 0.4789(3)
H12_2 H 0.8066 0.9899 0.4140
N3_2 N 0.9336(3) 0.9371(2) 0.6910(3)
loop_
_geom_bond_atom_site_label_1
_geom_bond_atom_site_label_2
_geom_bond_site_symmetry_1
_geom_bond_site_symmetry_2
H11 C17 1_555 1_555
C20 C17 1_555 1_555
H12 C20 1_555 1_555
Zn5 O8 1_555 1_555
C7 C8 1_555 1_555
C8 C9 1_555 1_555
C9 H4 1_555 1_555
C10 C8 1_555 1_555
H5 C10 1_555 1_555
O4 C7 1_555 1_555
C11 C12 1_555 1_555
C12 C13 1_555 1_555
C13 C10 1_555 1_555
H8 C13 1_555 1_555
C14 C9 1_555 1_555
H9 C14 1_555 1_555
O5 C11 1_555 1_555
O6 C11 1_555 1_555
Zn6 O4 1_555 1_555
C16 C15 1_555 1_555
C19 C16 1_555 1_555
N3 Zn6 1_555 1_555
N4 C18 1_555 1_555
H13 N4 1_555 1_555
H14 N4 1_555 1_555
Zn3 O6 1_555 1_555
O10 Zn6 1_555 1_555
O11 Zn6 1_555 1_555
C7 O3 1_555 1_555
C12 C14 1_555 1_555
C15 N3 1_555 1_555
C18 N3 1_555 1_555
Zn3 N1 1_555 1_555
C2 C1 1_555 1_555
C5 C2 1_555 1_555
N1 C1 1_555 1_555
N2 C4 1_555 1_555
H6 N2 1_555 1_555
H7 N2 1_555 1_555
O9 Zn3 1_555 1_555
O12 Zn3 1_555 1_555
C4 N1 1_555 1_555
H2 C3 1_555 1_555
C6 C3 1_555 1_555
H3 C6 1_555 1_555
Zn8 O2 1_555 1_555
Zn5 N1_2 1_555 1_555
C2_2 C1_2 1_555 1_555
C3_2 C2_2 1_555 1_555
H2_2 C3_2 1_555 1_555
C4_2 C6_2 1_555 1_555
C5_2 C2_2 1_555 1_555
C6_2 C3_2 1_555 1_555
H3_2 C6_2 1_555 1_555
N1_2 C1_2 1_555 1_555
O11 C5_2 1_555 1_555
C4_2 N1_2 1_555 1_555
H6_2 N2_2 1_555 1_555
H7_2 N2_2 1_555 1_555
C7_2 C8_2 1_555 1_555
C8_2 C9_2 1_555 1_555
C9_2 H4_2 1_555 1_555
O4_2 C7_2 1_555 1_555
C14_2 C9_2 1_555 1_555
H9_2 C14_2 1_555 1_555
H13_2 N4_2 1_555 1_555
H14_2 N4_2 1_555 1_555
H5_2 C10_2 1_555 1_555
C11_2 C12_2 1_555 1_555
C12_2 C13_2 1_555 1_555
C13_2 C10_2 1_555 1_555
H8_2 C13_2 1_555 1_555
O14 C11_2 1_555 1_555
C16_2 C15_2 1_555 1_555
C17_2 C16_2 1_555 1_555
H11_2 C17_2 1_555 1_555
C18_2 C20_2 1_555 1_555
C19_2 C16_2 1_555 1_555
C20_2 C17_2 1_555 1_555
H12_2 C20_2 1_555 1_555
N3_2 Zn8 1_555 1_555
O12 C19_2 1_555 1_555
C15_2 N3_2 1_555 1_555
C18_2 N3_2 1_555 1_555

#END
