
###############################################################################
#
# This file contains modified crystal structure data generated from the
# MOF subset of the Cambridge Structural Database (CSD) v543 
# hosted by the Cambridge Crystallographic Data Centre (CCDC).
#
# This work is licensed under the Creative Commons
# Attribution-NonCommercial-ShareAlike 4.0 International License.
# To view a copy of this license, visit
# http://creativecommons.org/licenses/by-nc-sa/4.0/
# or send a letter to
# Creative Commons, PO Box 1866, Mountain View, CA 94042, USA.
#
# CIF created using the CSD Python API on 29 September 2022
# The structure has been converted into the P1 space group
# The structure has a 3D framework
# The original CSD entry BATXIG is in the orthorhombic crystal system
# The original CSD entry BATXIG is in a Sohncke space group
# The framework has been calculated to contain at least 10.0% void space
# The void calculation uses a probe of radius 1.32A, grid spacing 0.4
# H atom positions have been added when not included in the experimental data
#
###############################################################################

data_BATXIG
_chemical_formula_moiety         '(C104 H60 N24 O42 Zn7)n'
_symmetry_cell_setting           triclinic
_symmetry_space_group_name_H-M   'P 1'
_symmetry_Int_Tables_number      1
_space_group_name_Hall           'P 1'
loop_
_symmetry_equiv_pos_site_id
_symmetry_equiv_pos_as_xyz
1 x,y,z
_cell_length_a                   12.717(3)
_cell_length_b                   16.730(3)
_cell_length_c                   27.427(6)
_cell_angle_alpha                90
_cell_angle_beta                 90
_cell_angle_gamma                90
_cell_volume                     5835.24
loop_
_atom_site_label
_atom_site_type_symbol
_atom_site_fract_x
_atom_site_fract_y
_atom_site_fract_z
Zn1 Zn 0.25716(4) 0.42411(3) 0.884835(19)
Zn2 Zn 0.07003(4) 0.56333(3) 0.900060(18)
O1 O 0.1516(3) 0.3658(2) 0.92846(15)
O2 O 0.0478(5) 0.4709(3) 0.94147(18)
O6 O 0.0190(3) 0.7356(2) 0.89032(12)
C5 C 0.0761(5) 0.3994(3) 0.9493(2)
C7 C 0.0145(5) 0.3546(3) 0.9867(2)
C8 C 0.0270(6) 0.2742(3) 0.9944(2)
H5 H 0.0731 0.2442 0.9755
O11 O 0.3550(4) 0.4763(3) 0.8343(2)
O12 O 0.3598(3) 0.3380(2) 0.89667(19)
O13 O 0.2109(4) 0.6033(2) 0.90788(15)
O14 O 0.3047(4) 0.5009(2) 0.93847(16)
O15 O 0.0418(3) 0.5410(3) 0.83415(15)
O16 O 0.1479(3) 0.4343(3) 0.83050(14)
H14 H 0.312574 0.50849 0.811099
H15 H 0.406145 0.511544 0.85122
C22 C 0.0148(5) 0.3669(4) 0.6969(2)
H11 H 0.0385 0.3224 0.6798
C24 C 0.0643(5) 0.3902(4) 0.7405(2)
H13 H 0.1212 0.3611 0.7523
C25 C 0.0290(4) 0.4560(3) 0.76595(18)
C26 C 0.0778(4) 0.4785(3) 0.81317(19)
O3 O 0.2727(4) 0.2274(2) 0.87462(16)
N5 N 0.3093(4) 0.0938(2) 0.92164(18)
H2 H 0.2757 0.1211 0.9001
C3 C 0.2838(4) 0.0152(3) 0.9237(2)
C4 C 0.3827(5) 0.1378(3) 0.9495(2)
C6 C 0.4425(5) 0.1012(3) 0.9859(2)
H4 H 0.4343 0.0469 0.9920
C9 C 0.4681(6) 0.2609(3) 0.9685(3)
H6 H 0.4775 0.3151 0.9623
C10 C 0.3963(4) 0.2191(3) 0.9403(2)
C11 C 0.3382(5) 0.2632(3) 0.9002(2)
H10 H 0.1600 0.0082 0.8074
C23 C 0.0541(5) 0.0002(4) 0.7529(2)
H12 H 0.0767 0.0457 0.7364
N1 N 0.2157(4) 0.9907(2) 0.88948(16)
N2 N 0.3251(4) 0.9695(2) 0.95861(17)
N3 N 0.2276(3) 0.8600(2) 0.92610(15)
N4 N 0.3424(4) 0.8490(2) 0.99308(18)
N6 N 0.1201(4) 0.8793(3) 0.86187(15)
H3 H 0.1037 0.8306 0.8684
C1 C 0.2945(5) 0.8921(3) 0.9568(2)
C2 C 0.1905(4) 0.9130(3) 0.89330(18)
C12 C 0.3563(5) 0.7661(3) 0.9992(2)
C16 C 0.3304(5) 0.6297(3) 0.9719(2)
C17 C 0.3092(5) 0.7104(3) 0.96747(19)
H9 H 0.2635 0.7281 0.9433
C18 C 0.2796(4) 0.5730(3) 0.93821(19)
C20 C 0.0701(4) 0.9114(3) 0.82046(17)
C21 C 0.1040(5) 0.9782(4) 0.7955(2)
Zn5 Zn 0.75716(4) 0.07589(3) 0.115165(19)
O3_2 O 0.7727(4) 0.2726(2) 0.12538(16)
O4 O 0.8598(3) 0.1620(2) 0.10333(19)
O7 O 0.7109(4) 0.8967(2) 0.09212(15)
O8 O 0.8047(4) 0.9991(2) 0.06153(16)
O9 O 0.4582(3) 0.4590(3) 0.33415(15)
O10 O 0.3521(3) 0.5657(3) 0.33050(14)
N1_2 N 0.7157(4) 0.5093(2) 0.11052(16)
N2_2 N 0.8251(4) 0.5305(2) 0.04139(17)
N3_2 N 0.7276(3) 0.6400(2) 0.07390(15)
N4_2 N 0.8424(4) 0.6510(2) 0.00692(18)
N5_2 N 0.8093(4) 0.4062(2) 0.07836(18)
H2_2 H 0.7757 0.3789 0.0999
N6_2 N 0.6201(4) 0.6207(3) 0.13813(15)
H3_2 H 0.6037 0.6694 0.1316
C1_2 C 0.7945(5) 0.6079(3) 0.0432(2)
C2_2 C 0.6905(4) 0.5870(3) 0.10670(18)
C3_2 C 0.7838(4) 0.4848(3) 0.0763(2)
C4_2 C 0.8827(5) 0.3622(3) 0.0505(2)
C6_2 C 0.9425(5) 0.3988(3) 0.0141(2)
H4_2 H 0.9343 0.4531 0.0080
C9_2 C 0.9681(6) 0.2391(3) 0.0315(3)
H6_2 H 0.9775 0.1849 0.0377
C10_2 C 0.8963(4) 0.2809(3) 0.0597(2)
C11_2 C 0.8382(5) 0.2368(3) 0.0998(2)
C12_2 C 0.8563(5) 0.7339(3) 0.0008(2)
C16_2 C 0.8304(5) 0.8703(3) 0.0281(2)
C17_2 C 0.8092(5) 0.7896(3) 0.03253(19)
H9_2 H 0.7635 0.7719 0.0567
C18_2 C 0.7796(4) 0.9270(3) 0.06179(19)
C20_2 C 0.5701(4) 0.5886(3) 0.17954(17)
C21_2 C 0.6040(5) 0.5218(4) 0.2045(2)
H10_2 H 0.6600 0.4918 0.1926
C22_2 C 0.4852(5) 0.6331(4) 0.1969(2)
H11_2 H 0.4615 0.6776 0.1798
C23_2 C 0.5541(5) 0.4998(4) 0.2471(2)
H12_2 H 0.5767 0.4543 0.2636
C24_2 C 0.4357(5) 0.6098(4) 0.2405(2)
H13_2 H 0.3788 0.6389 0.2523
C25_2 C 0.4710(4) 0.5440(3) 0.26595(18)
C26_2 C 0.4222(4) 0.5215(3) 0.31317(19)
Zn3 Zn 0.24284(4) 0.57589(3) 0.384835(19)
Zn6 Zn 0.42997(4) 0.43667(3) 0.400060(18)
Zn7 Zn 0.57003(4) 0.93667(3) 0.099940(18)
O1_2 O 0.3484(3) 0.6342(2) 0.42846(15)
O2_2 O 0.4522(5) 0.5291(3) 0.44147(18)
O3_3 O 0.7273(4) 0.7274(2) 0.62538(16)
O4_2 O 0.6402(3) 0.8380(2) 0.60333(19)
O5 O 0.5242(4) 0.3680(2) 0.43618(15)
O6_2 O 0.4810(3) 0.2644(2) 0.39032(12)
O7_2 O 0.7891(4) 0.1033(2) 0.59212(15)
O8_2 O 0.6953(4) 0.0009(2) 0.56153(16)
N1_3 N 0.7843(4) 0.4907(2) 0.61052(16)
N2_3 N 0.6749(4) 0.4695(2) 0.54139(17)
N3_3 N 0.7724(3) 0.3600(2) 0.57390(15)
N4_3 N 0.6576(4) 0.3490(2) 0.50692(18)
H1 H 0.6314 0.3776 0.4839
N5_3 N 0.6907(4) 0.5938(2) 0.57836(18)
H2_3 H 0.7243 0.6211 0.5999
N6_3 N 0.8799(4) 0.3793(3) 0.63813(15)
H3_3 H 0.8963 0.3306 0.6316
C1_3 C 0.7055(5) 0.3921(3) 0.5432(2)
C2_3 C 0.8095(4) 0.4130(3) 0.60670(18)
C3_3 C 0.7162(4) 0.5152(3) 0.5763(2)
C4_3 C 0.6173(5) 0.6378(3) 0.5505(2)
C5_2 C 0.4239(5) 0.6006(3) 0.4493(2)
C6_3 C 0.5575(5) 0.6012(3) 0.5141(2)
H4_3 H 0.5657 0.5469 0.5080
C7_2 C 0.4855(5) 0.6454(3) 0.4867(2)
C8_2 C 0.4730(6) 0.7258(3) 0.4944(2)
H5_2 H 0.4269 0.7558 0.4755
C9_3 C 0.5319(6) 0.7609(3) 0.5315(3)
H6_3 H 0.5225 0.8151 0.5377
C10_3 C 0.6037(4) 0.7191(3) 0.5597(2)
C11_3 C 0.6618(5) 0.7632(3) 0.5998(2)
C12_3 C 0.6437(5) 0.2661(3) 0.5008(2)
C13 C 0.5796(4) 0.2389(3) 0.46258(18)
C14 C 0.5601(5) 0.1574(3) 0.4580(2)
H7 H 0.5167 0.1395 0.4329
C15 C 0.6041(5) 0.1016(3) 0.4902(2)
H8 H 0.5905 0.0473 0.4866
C16_3 C 0.6696(5) 0.1297(3) 0.5281(2)
C17_3 C 0.6908(5) 0.2104(3) 0.53253(19)
H9_3 H 0.7365 0.2281 0.5567
C18_3 C 0.7204(4) 0.0730(3) 0.56179(19)
C19 C 0.5254(5) 0.2917(3) 0.42682(19)
C20_3 C 0.9299(4) 0.4114(3) 0.67954(17)
C21_3 C 0.8960(5) 0.4782(4) 0.7045(2)
H10_3 H 0.8400 0.5082 0.6926
C23_3 C 0.9459(5) 0.5002(4) 0.7471(2)
H12_3 H 0.9233 0.5457 0.7636
O11_2 O 0.1450(4) 0.5237(3) 0.3343(2)
Zn4 Zn 0.74284(4) 0.92411(3) 0.615165(19)
Zn7_2 Zn 0.92997(4) 0.06333(3) 0.599940(18)
O12_2 O 0.1402(3) 0.6620(2) 0.39667(19)
O13_2 O 0.2891(4) 0.3967(2) 0.40788(15)
O14_2 O 0.1953(4) 0.4991(2) 0.43847(16)
H14_2 H 0.187426 0.49151 0.311099
H15_2 H 0.0938547 0.488456 0.35122
O5_2 O 0.0242(4) 0.1320(2) 0.56382(15)
O10_2 O 0.6479(3) 0.0657(3) 0.16950(14)
N1_4 N 0.2843(4) 0.0093(2) 0.38948(16)
N2_4 N 0.1749(4) 0.0305(2) 0.45861(17)
N3_4 N 0.2724(3) 0.1400(2) 0.42610(15)
N4_4 N 0.1576(4) 0.1510(2) 0.49308(18)
H1_2 H 0.1314 0.1224 0.5161
N6_4 N 0.3799(4) 0.1207(3) 0.36187(15)
H3_4 H 0.3963 0.1694 0.3684
C1_4 C 0.2055(5) 0.1079(3) 0.4568(2)
C2_4 C 0.3095(4) 0.0870(3) 0.39330(18)
C12_4 C 0.1437(5) 0.2339(3) 0.4992(2)
C13_2 C 0.0796(4) 0.2611(3) 0.53742(18)
C14_2 C 0.0601(5) 0.3426(3) 0.5420(2)
H7_2 H 0.0167 0.3605 0.5671
C15_2 C 0.1041(5) 0.3984(3) 0.5098(2)
H8_2 H 0.0905 0.4527 0.5134
C16_4 C 0.1696(5) 0.3703(3) 0.4719(2)
C17_4 C 0.1908(5) 0.2896(3) 0.46747(19)
H9_4 H 0.2365 0.2719 0.4433
C18_4 C 0.2204(4) 0.4270(3) 0.43821(19)
C19_2 C 0.0254(5) 0.2083(3) 0.57318(19)
C20_4 C 0.4299(4) 0.0886(3) 0.32046(17)
C21_4 C 0.3960(5) 0.0218(4) 0.2955(2)
C22_3 C 0.5148(5) 0.1331(4) 0.3031(2)
H11_3 H 0.5385 0.1776 0.3202
C24_3 C 0.5643(5) 0.1098(4) 0.2595(2)
H13_3 H 0.6212 0.1389 0.2477
C25_3 C 0.5290(4) 0.0440(3) 0.23405(18)
C26_3 C 0.5778(4) 0.0215(3) 0.18683(19)
O3_4 O 0.2273(4) 0.7726(2) 0.37462(16)
O9_2 O 0.5418(3) 0.9590(3) 0.16585(15)
N5_4 N 0.1907(4) 0.9062(2) 0.42164(18)
H2_4 H 0.2243 0.8789 0.4001
C3_4 C 0.2162(4) 0.9848(3) 0.4237(2)
C4_4 C 0.1173(5) 0.8622(3) 0.4495(2)
C6_4 C 0.0575(5) 0.8988(3) 0.4859(2)
H4_4 H 0.0657 0.9531 0.4920
C9_4 C 0.0319(6) 0.7391(3) 0.4685(3)
H6_4 H 0.0225 0.6849 0.4623
C10_4 C 0.1037(4) 0.7809(3) 0.4403(2)
C11_4 C 0.1618(5) 0.7368(3) 0.4002(2)
H10_4 H 0.3400 0.9918 0.3074
C23_4 C 0.4459(5) 0.9998(4) 0.2529(2)
H12_4 H 0.4233 0.9543 0.2364
O6_3 O 0.9810(3) 0.2356(2) 0.60968(12)
O15_2 O 0.9582(3) 0.0410(3) 0.66585(15)
H14_3 H 0.687426 0.00849023 0.688901
H15_3 H 0.593855 0.0115435 0.64878
O1_3 O 0.8484(3) 0.8658(2) 0.57154(15)
O2_3 O 0.9522(5) 0.9709(3) 0.55853(18)
C5_3 C 0.9239(5) 0.8994(3) 0.5507(2)
C7_3 C 0.9855(5) 0.8546(3) 0.5133(2)
C8_3 C 0.9730(6) 0.7742(3) 0.5056(2)
H5_3 H 0.9269 0.7442 0.5245
O11_3 O 0.6450(4) 0.9763(3) 0.6657(2)
O16_2 O 0.8521(3) 0.9343(3) 0.66950(14)
O1_4 O 0.6516(3) 0.1342(2) 0.07154(15)
O2_4 O 0.5478(5) 0.0291(3) 0.05853(18)
C5_4 C 0.5761(5) 0.1006(3) 0.0507(2)
C7_4 C 0.5145(5) 0.1454(3) 0.0133(2)
C8_4 C 0.5270(6) 0.2258(3) 0.0056(2)
H5_4 H 0.5731 0.2558 0.0245
O11_4 O 0.8550(4) 0.0237(3) 0.1657(2)
O5_3 O 0.4758(4) 0.8680(2) 0.06382(15)
O6_4 O 0.5190(3) 0.7644(2) 0.10968(12)
H1_3 H 0.3686 0.8776 0.0161
C13_3 C 0.4204(4) 0.7389(3) 0.03742(18)
C14_3 C 0.4399(5) 0.6574(3) 0.0420(2)
H7_3 H 0.4833 0.6395 0.0671
C15_3 C 0.3959(5) 0.6016(3) 0.0098(2)
H8_3 H 0.4095 0.5473 0.0134
C19_3 C 0.4746(5) 0.7917(3) 0.07318(19)
H14_4 H 0.812574 0.99151 0.188901
H15_4 H 0.906145 0.988456 0.14878
C22_4 C 0.9852(5) 0.8669(4) 0.8031(2)
H11_4 H 0.9615 0.8224 0.8202
C24_4 C 0.9357(5) 0.8902(4) 0.7595(2)
H13_4 H 0.8788 0.8611 0.7477
C25_4 C 0.9710(4) 0.9560(3) 0.73405(18)
C26_4 C 0.9222(4) 0.9785(3) 0.68683(19)
O5_4 O 0.9758(4) 0.6320(2) 0.93618(15)
H1_4 H 0.8686 0.6224 0.9839
C13_4 C 0.9204(4) 0.7611(3) 0.96258(18)
C14_4 C 0.9399(5) 0.8426(3) 0.9580(2)
H7_4 H 0.9833 0.8605 0.9329
C15_4 C 0.8959(5) 0.8984(3) 0.9902(2)
H8_4 H 0.9095 0.9527 0.9866
C19_4 C 0.9746(5) 0.7083(3) 0.92682(19)
loop_
_geom_bond_atom_site_label_1
_geom_bond_atom_site_label_2
_geom_bond_site_symmetry_1
_geom_bond_site_symmetry_2
Zn1 O1 1_555 1_555
Zn2 O2 1_555 1_555
O1 C5 1_555 1_555
O2 C5 1_555 1_555
C5 C7 1_555 1_555
C8 C7 1_555 1_555
H5 C8 1_555 1_555
O11 Zn1 1_555 1_555
O12 Zn1 1_555 1_555
O13 Zn2 1_555 1_555
O14 Zn1 1_555 1_555
O15 Zn2 1_555 1_555
O16 Zn1 1_555 1_555
O11 H14 1_555 1_555
O11 H15 1_555 1_555
O15 C26 1_555 1_555
O16 C26 1_555 1_555
H11 C22 1_555 1_555
C24 C22 1_555 1_555
H13 C24 1_555 1_555
C26 C25 1_555 1_555
C24 C25 1_555 1_555
O3 C11 1_555 1_555
O12 C11 1_555 1_555
N5 H2 1_555 1_555
C4 N5 1_555 1_555
C6 C4 1_555 1_555
H4 C6 1_555 1_555
H6 C9 1_555 1_555
C10 C4 1_555 1_555
C11 C10 1_555 1_555
H12 C23 1_555 1_555
N5 C3 1_555 1_555
C9 C10 1_555 1_555
O13 C18 1_555 1_555
O14 C18 1_555 1_555
N1 C2 1_555 1_555
N2 C1 1_555 1_555
N3 C1 1_555 1_555
N6 H3 1_555 1_555
C1 N4 1_555 1_555
C2 N3 1_555 1_555
C12 N4 1_555 1_555
C17 C12 1_555 1_555
H9 C17 1_555 1_555
C18 C16 1_555 1_555
C20 N6 1_555 1_555
C21 C20 1_555 1_555
N6 C2 1_555 1_555
C16 C17 1_555 1_555
O3_2 C11_2 1_555 1_555
O4 C11_2 1_555 1_555
O7 C18_2 1_555 1_555
O8 C18_2 1_555 1_555
O9 C26_2 1_555 1_555
O10 C26_2 1_555 1_555
N1_2 C2_2 1_555 1_555
N2_2 C1_2 1_555 1_555
N3_2 C1_2 1_555 1_555
N5_2 H2_2 1_555 1_555
N6_2 H3_2 1_555 1_555
C1_2 N4_2 1_555 1_555
C2_2 N3_2 1_555 1_555
C3_2 N1_2 1_555 1_555
C4_2 N5_2 1_555 1_555
C6_2 C4_2 1_555 1_555
H4_2 C6_2 1_555 1_555
H6_2 C9_2 1_555 1_555
C10_2 C4_2 1_555 1_555
C11_2 C10_2 1_555 1_555
C12_2 N4_2 1_555 1_555
C17_2 C12_2 1_555 1_555
H9_2 C17_2 1_555 1_555
C18_2 C16_2 1_555 1_555
C20_2 N6_2 1_555 1_555
C21_2 C20_2 1_555 1_555
H10_2 C21_2 1_555 1_555
C22_2 C20_2 1_555 1_555
H11_2 C22_2 1_555 1_555
C23_2 C21_2 1_555 1_555
H12_2 C23_2 1_555 1_555
C24_2 C22_2 1_555 1_555
H13_2 C24_2 1_555 1_555
C25_2 C23_2 1_555 1_555
C26_2 C25_2 1_555 1_555
Zn3 O10 1_555 1_555
Zn5 O4 1_555 1_555
Zn6 O9 1_555 1_555
Zn7 O7 1_555 1_555
N2_2 C3_2 1_555 1_555
N5_2 C3_2 1_555 1_555
N6_2 C2_2 1_555 1_555
C9_2 C10_2 1_555 1_555
C16_2 C17_2 1_555 1_555
C24_2 C25_2 1_555 1_555
Zn3 O1_2 1_555 1_555
Zn6 O2_2 1_555 1_555
O1_2 C5_2 1_555 1_555
O2_2 C5_2 1_555 1_555
O3_3 C11_3 1_555 1_555
O4_2 C11_3 1_555 1_555
O5 Zn6 1_555 1_555
O6_2 C19 1_555 1_555
O7_2 C18_3 1_555 1_555
O8_2 C18_3 1_555 1_555
N1_3 C2_3 1_555 1_555
N2_3 C1_3 1_555 1_555
N3_3 C1_3 1_555 1_555
N4_3 H1 1_555 1_555
N5_3 H2_3 1_555 1_555
N6_3 H3_3 1_555 1_555
C1_3 N4_3 1_555 1_555
C2_3 N3_3 1_555 1_555
C3_3 N1_3 1_555 1_555
C4_3 N5_3 1_555 1_555
C5_2 C7_2 1_555 1_555
C6_3 C4_3 1_555 1_555
H4_3 C6_3 1_555 1_555
C7_2 C6_3 1_555 1_555
C8_2 C7_2 1_555 1_555
H5_2 C8_2 1_555 1_555
C9_3 C8_2 1_555 1_555
H6_3 C9_3 1_555 1_555
C10_3 C4_3 1_555 1_555
C11_3 C10_3 1_555 1_555
C12_3 N4_3 1_555 1_555
C13 C12_3 1_555 1_555
C14 C13 1_555 1_555
H7 C14 1_555 1_555
C15 C14 1_555 1_555
H8 C15 1_555 1_555
C16_3 C15 1_555 1_555
C17_3 C12_3 1_555 1_555
H9_3 C17_3 1_555 1_555
C18_3 C16_3 1_555 1_555
C19 O5 1_555 1_555
C20_3 N6_3 1_555 1_555
C21_3 C20_3 1_555 1_555
H10_3 C21_3 1_555 1_555
C23_3 C21_3 1_555 1_555
H12_3 C23_3 1_555 1_555
O11_2 Zn3 1_555 1_555
Zn4 O4_2 1_555 1_555
Zn7_2 O7_2 1_555 1_555
O12_2 Zn3 1_555 1_555
O13_2 Zn6 1_555 1_555
O14_2 Zn3 1_555 1_555
N2_3 C3_3 1_555 1_555
N5_3 C3_3 1_555 1_555
N6_3 C2_3 1_555 1_555
C9_3 C10_3 1_555 1_555
C13 C19 1_555 1_555
C16_3 C17_3 1_555 1_555
O11_2 H14_2 1_555 1_555
O11_2 H15_2 1_555 1_555
O13_2 C18_4 1_555 1_555
O14_2 C18_4 1_555 1_555
O10_2 C26_3 1_555 1_555
N1_4 C2_4 1_555 1_555
N2_4 C1_4 1_555 1_555
N3_4 C1_4 1_555 1_555
N4_4 H1_2 1_555 1_555
N6_4 H3_4 1_555 1_555
C1_4 N4_4 1_555 1_555
C2_4 N3_4 1_555 1_555
C12_4 N4_4 1_555 1_555
C13_2 C12_4 1_555 1_555
C14_2 C13_2 1_555 1_555
H7_2 C14_2 1_555 1_555
C15_2 C14_2 1_555 1_555
H8_2 C15_2 1_555 1_555
C16_4 C15_2 1_555 1_555
C17_4 C12_4 1_555 1_555
H9_4 C17_4 1_555 1_555
C18_4 C16_4 1_555 1_555
C19_2 O5_2 1_555 1_555
C20_4 N6_4 1_555 1_555
C21_4 C20_4 1_555 1_555
C22_3 C20_4 1_555 1_555
H11_3 C22_3 1_555 1_555
C24_3 C22_3 1_555 1_555
H13_3 C24_3 1_555 1_555
C26_3 C25_3 1_555 1_555
Zn5 O10_2 1_555 1_555
N6_4 C2_4 1_555 1_555
C13_2 C19_2 1_555 1_555
C16_4 C17_4 1_555 1_555
C24_3 C25_3 1_555 1_555
O3_4 C11_4 1_555 1_555
O12_2 C11_4 1_555 1_555
N5_4 H2_4 1_555 1_555
C4_4 N5_4 1_555 1_555
C6_4 C4_4 1_555 1_555
H4_4 C6_4 1_555 1_555
H6_4 C9_4 1_555 1_555
C10_4 C4_4 1_555 1_555
C11_4 C10_4 1_555 1_555
H12_4 C23_4 1_555 1_555
Zn7 O9_2 1_555 1_555
N5_4 C3_4 1_555 1_555
C9_4 C10_4 1_555 1_555
O15_2 Zn7_2 1_555 1_555
Zn4 O1_3 1_555 1_555
O1_3 C5_3 1_555 1_555
O2_3 C5_3 1_555 1_555
C5_3 C7_3 1_555 1_555
C8_3 C7_3 1_555 1_555
H5_3 C8_3 1_555 1_555
O11_3 Zn4 1_555 1_555
O16_2 Zn4 1_555 1_555
Zn5 O1_4 1_555 1_555
O1_4 C5_4 1_555 1_555
O2_4 C5_4 1_555 1_555
C5_4 C7_4 1_555 1_555
C8_4 C7_4 1_555 1_555
H5_4 C8_4 1_555 1_555
O11_4 Zn5 1_555 1_555
O5_3 Zn7 1_555 1_555
O6_4 C19_3 1_555 1_555
C14_3 C13_3 1_555 1_555
H7_3 C14_3 1_555 1_555
C15_3 C14_3 1_555 1_555
H8_3 C15_3 1_555 1_555
C19_3 O5_3 1_555 1_555
C13_3 C19_3 1_555 1_555
O16_2 C26_4 1_555 1_555
H11_4 C22_4 1_555 1_555
C24_4 C22_4 1_555 1_555
H13_4 C24_4 1_555 1_555
C26_4 C25_4 1_555 1_555
C24_4 C25_4 1_555 1_555
C14_4 C13_4 1_555 1_555
H7_4 C14_4 1_555 1_555
C15_4 C14_4 1_555 1_555
H8_4 C15_4 1_555 1_555
C19_4 O5_4 1_555 1_555
C13_4 C19_4 1_555 1_555

#END
