
###############################################################################
#
# This file contains modified crystal structure data generated from the
# MOF subset of the Cambridge Structural Database (CSD) v543 
# hosted by the Cambridge Crystallographic Data Centre (CCDC).
#
# This work is licensed under the Creative Commons
# Attribution-NonCommercial-ShareAlike 4.0 International License.
# To view a copy of this license, visit
# http://creativecommons.org/licenses/by-nc-sa/4.0/
# or send a letter to
# Creative Commons, PO Box 1866, Mountain View, CA 94042, USA.
#
# CIF created using the CSD Python API on 29 September 2022
# The structure has been converted into the P1 space group
# The structure has a 3D framework
# The original CSD entry BAWFIS is in the monoclinic crystal system
# The framework has been calculated to contain at least 10.0% void space
# The void calculation uses a probe of radius 1.32A, grid spacing 0.4
#
###############################################################################

data_BAWFIS
_chemical_formula_moiety         '(C72 H56 Mn6 N32 O44 Pb8)n'
_symmetry_cell_setting           triclinic
_symmetry_space_group_name_H-M   'P 1'
_symmetry_Int_Tables_number      1
_space_group_name_Hall           'P 1'
loop_
_symmetry_equiv_pos_site_id
_symmetry_equiv_pos_as_xyz
1 x,y,z
_cell_length_a                   23.784(4)
_cell_length_b                   6.9640(12)
_cell_length_c                   19.383(4)
_cell_angle_alpha                90
_cell_angle_beta                 123.574(7)
_cell_angle_gamma                90
_cell_volume                     2674.85
loop_
_atom_site_label
_atom_site_type_symbol
_atom_site_fract_x
_atom_site_fract_y
_atom_site_fract_z
O6 O 0.60377(18) 0.0583(5) 0.6156(2)
H3 H 0.6340 0.0607 0.5995
H4 H 0.6329 0.0654 0.6730
Mn3 Mn 0.5000 0.02019(13) 0.7500
Pb1 Pb 0.53508(2) 0.76241(2) 0.56882(2)
Mn1 Mn -0.0000 0.47981(13) 0.2500
O1 O 0.47573(15) 0.4506(5) 0.56866(18)
O2 O 0.38137(16) 0.3936(5) 0.44628(18)
O3 O 0.45151(16) 0.7990(5) 0.78226(19)
O4 O 0.38062(15) 0.6380(5) 0.80037(18)
O5 O 0.04506(19) 0.2560(4) 0.2156(2)
H1 H 0.0806 0.3016 0.2174
H2 H 0.0168 0.2239 0.1631
N1 N 0.15316(18) 0.4668(5) 0.4048(2)
N2 N 0.08787(19) 0.4713(6) 0.3807(2)
N3 N 0.08353(19) 0.5141(6) 0.4443(2)
N4 N 0.14620(18) 0.5370(6) 0.5116(2)
C1 C 0.3699(2) 0.4960(6) 0.5546(3)
C2 C 0.4021(2) 0.5701(6) 0.6350(3)
H5 H 0.4495 0.5896 0.6673
C3 C 0.3640(2) 0.6151(6) 0.6673(3)
C4 C 0.2943(2) 0.5890(6) 0.6206(3)
H6 H 0.2689 0.6160 0.6438
C5 C 0.2620(2) 0.5222(6) 0.5388(3)
C6 C 0.3002(2) 0.4749(7) 0.5068(3)
H7 H 0.2784 0.4278 0.4517
C7 C 0.4112(2) 0.4439(6) 0.5209(3)
C8 C 0.4002(2) 0.6902(7) 0.7544(3)
C9 C 0.1881(2) 0.5081(6) 0.4865(3)
Pb4 Pb 0.46492(2) 0.76241(2) 0.93118(2)
Pb5 Pb 0.46492(2) 0.23759(2) 0.43118(2)
O13 O 0.61863(16) 0.6064(5) 0.55372(18)
O16 O 0.54849(16) 0.7990(5) 0.71774(19)
O17 O 0.04849(16) 0.7010(5) 0.21774(19)
O20 O 0.61938(15) 0.6380(5) 0.69963(18)
O12 O 0.39623(18) 0.0583(5) 0.8844(2)
H10 H 0.3660 0.0607 0.9005
H11 H 0.3671 0.0654 0.8270
Mn1_2 Mn 1.0000 0.47981(13) 0.2500
O8 O 0.61863(16) 0.3936(5) 0.05372(18)
O11 O 0.95494(19) 0.2560(4) 0.2844(2)
H8 H 0.9194 0.3016 0.2826
H9 H 0.9832 0.2239 0.3369
N5 N 0.84684(18) 0.4668(5) 0.0952(2)
N6 N 0.91213(19) 0.4713(6) 0.1193(2)
N7 N 0.91647(19) 0.5141(6) 0.0557(2)
H14 H 0.7216 0.4278 0.0483
C18 C 0.8119(2) 0.5081(6) 0.0135(3)
Pb6 Pb 0.53508(2) 0.23759(2) 0.06882(2)
O18 O 0.95151(16) 0.7010(5) 0.28226(19)
O7 O 0.52427(15) 0.4506(5) 0.93134(18)
N8 N 0.85380(18) 0.5370(6) 0.9884(2)
C10 C 0.6301(2) 0.4960(6) 0.9454(3)
C11 C 0.5979(2) 0.5701(6) 0.8650(3)
H12 H 0.5505 0.5896 0.8327
C12 C 0.6360(2) 0.6151(6) 0.8327(3)
C13 C 0.7057(2) 0.5890(6) 0.8794(3)
H13 H 0.7311 0.6160 0.8562
C14 C 0.7380(2) 0.5222(6) 0.9612(3)
C15 C 0.6998(2) 0.4749(7) 0.9932(3)
C16 C 0.5888(2) 0.4439(6) 0.9791(3)
C17 C 0.5998(2) 0.6902(7) 0.7456(3)
O14 O 0.38137(16) 0.6064(5) 0.94628(18)
Pb1_2 Pb 0.03508(2) 0.26241(2) 0.56882(2)
O6_2 O 0.10377(18) 0.5583(5) 0.6156(2)
H3_2 H 0.1340 0.5607 0.5995
H4_2 H 0.1329 0.5654 0.6730
Mn3_2 Mn -0.0000 0.52019(13) 0.7500
O13_2 O 0.11863(16) 0.1064(5) 0.55372(18)
O16_2 O 0.04849(16) 0.2990(5) 0.71774(19)
O20_2 O 0.11938(15) 0.1380(5) 0.69963(18)
O3_2 O 0.95151(16) 0.2990(5) 0.78226(19)
O4_2 O 0.88062(15) 0.1380(5) 0.80037(18)
N3_2 N 0.58353(19) 0.0141(6) 0.4443(2)
N4_2 N 0.64620(18) 0.0370(6) 0.5116(2)
C2_2 C 0.9021(2) 0.0701(6) 0.6350(3)
H5_2 H 0.9495 0.0896 0.6673
C3_2 C 0.8640(2) 0.1151(6) 0.6673(3)
C4_2 C 0.7943(2) 0.0890(6) 0.6206(3)
H6_2 H 0.7689 0.1160 0.6438
C5_2 C 0.7620(2) 0.0222(6) 0.5388(3)
C8_2 C 0.9002(2) 0.1902(7) 0.7544(3)
C9_2 C 0.6881(2) 0.0081(6) 0.4865(3)
N7_2 N 0.41647(19) 0.0141(6) 0.0557(2)
C18_2 C 0.3119(2) 0.0081(6) 0.0135(3)
Pb4_2 Pb 0.96492(2) 0.26241(2) 0.93118(2)
Mn3_3 Mn 1.0000 0.52019(13) 0.7500
O17_2 O 0.54849(16) 0.2010(5) 0.21774(19)
O18_2 O 0.45151(16) 0.2010(5) 0.28226(19)
N8_2 N 0.35380(18) 0.0370(6) 0.9884(2)
C11_2 C 0.0979(2) 0.0701(6) 0.8650(3)
H12_2 H 0.0505 0.0896 0.8327
C12_2 C 0.1360(2) 0.1151(6) 0.8327(3)
C13_2 C 0.2057(2) 0.0890(6) 0.8794(3)
H13_2 H 0.2311 0.1160 0.8562
C14_2 C 0.2380(2) 0.0222(6) 0.9612(3)
C17_2 C 0.0998(2) 0.1902(7) 0.7456(3)
Mn1_3 Mn 0.5000 0.97981(13) 0.2500
O1_2 O 0.97573(15) 0.9506(5) 0.56866(18)
O2_2 O 0.88137(16) 0.8936(5) 0.44628(18)
O5_2 O 0.54506(19) 0.7560(4) 0.2156(2)
H1_2 H 0.5806 0.8016 0.2174
H2_2 H 0.5168 0.7239 0.1631
N1_2 N 0.65316(18) 0.9668(5) 0.4048(2)
N2_2 N 0.58787(19) 0.9713(6) 0.3807(2)
C1_2 C 0.8699(2) 0.9960(6) 0.5546(3)
C6_2 C 0.8002(2) 0.9749(7) 0.5068(3)
H7_2 H 0.7784 0.9278 0.4517
C7_2 C 0.9112(2) 0.9439(6) 0.5209(3)
O8_2 O 0.11863(16) 0.8936(5) 0.05372(18)
O11_2 O 0.45494(19) 0.7560(4) 0.2844(2)
H8_2 H 0.4194 0.8016 0.2826
H9_2 H 0.4832 0.7239 0.3369
N5_2 N 0.34684(18) 0.9668(5) 0.0952(2)
N6_2 N 0.41213(19) 0.9713(6) 0.1193(2)
H14_2 H 0.2216 0.9278 0.0483
Pb5_2 Pb 0.96492(2) 0.73759(2) 0.43118(2)
Pb6_2 Pb 0.03508(2) 0.73759(2) 0.06882(2)
O12_2 O 0.89623(18) 0.5583(5) 0.8844(2)
H10_2 H 0.8660 0.5607 0.9005
H11_2 H 0.8671 0.5654 0.8270
O14_2 O 0.88137(16) 0.1064(5) 0.94628(18)
O7_2 O 0.47573(15) 0.5494(5) 0.06866(18)
O10 O 0.38062(15) 0.3620(5) 0.30037(18)
N8_3 N 0.14620(18) 0.4630(6) 0.0116(2)
C10_2 C 0.3699(2) 0.5040(6) 0.0546(3)
C11_3 C 0.4021(2) 0.4299(6) 0.1350(3)
H12_3 H 0.4495 0.4104 0.1673
C12_3 C 0.3640(2) 0.3849(6) 0.1673(3)
C13_3 C 0.2943(2) 0.4110(6) 0.1206(3)
H13_3 H 0.2689 0.3840 0.1438
C14_3 C 0.2620(2) 0.4778(6) 0.0388(3)
C15_2 C 0.3002(2) 0.5251(7) 0.0068(3)
C16_2 C 0.4112(2) 0.5561(6) 0.0209(3)
C17_3 C 0.4002(2) 0.3098(7) 0.2544(3)
O19 O 0.61938(15) 0.3620(5) 0.19963(18)
O11_3 O 0.04506(19) 0.7440(4) 0.7156(2)
H8_3 H 0.0806 0.6984 0.7174
H9_3 H 0.0168 0.7761 0.6631
N5_3 N 0.15316(18) 0.5332(5) 0.9048(2)
N6_3 N 0.08787(19) 0.5287(6) 0.8807(2)
N7_3 N 0.08353(19) 0.4859(6) 0.9443(2)
H14_3 H 0.2784 0.5722 0.9517
C18_3 C 0.1881(2) 0.4919(6) 0.9865(3)
O12_3 O 0.60377(18) 0.9417(5) 0.1156(2)
H10_3 H 0.6340 0.9393 0.0995
H11_3 H 0.6329 0.9346 0.1730
O1_3 O 0.52427(15) 0.5494(5) 0.43134(18)
O5_3 O 0.95494(19) 0.7440(4) 0.7844(2)
H1_3 H 0.9194 0.6984 0.7826
H2_3 H 0.9832 0.7761 0.8369
N1_3 N 0.84684(18) 0.5332(5) 0.5952(2)
N2_3 N 0.91213(19) 0.5287(6) 0.6193(2)
N3_3 N 0.91647(19) 0.4859(6) 0.5557(2)
N4_3 N 0.85380(18) 0.4630(6) 0.4884(2)
C1_3 C 0.6301(2) 0.5040(6) 0.4454(3)
C2_3 C 0.5979(2) 0.4299(6) 0.3650(3)
H5_3 H 0.5505 0.4104 0.3327
C3_3 C 0.6360(2) 0.3849(6) 0.3327(3)
C4_3 C 0.7057(2) 0.4110(6) 0.3794(3)
H6_3 H 0.7311 0.3840 0.3562
C5_3 C 0.7380(2) 0.4778(6) 0.4612(3)
C6_3 C 0.6998(2) 0.5251(7) 0.4932(3)
H7_3 H 0.7216 0.5722 0.5483
C7_3 C 0.5888(2) 0.5561(6) 0.4791(3)
C8_3 C 0.5998(2) 0.3098(7) 0.2456(3)
C9_3 C 0.8119(2) 0.4919(6) 0.5135(3)
O6_3 O 0.39623(18) 0.9417(5) 0.3844(2)
H3_3 H 0.3660 0.9393 0.4005
H4_3 H 0.3671 0.9346 0.3270
O12_4 O 0.10377(18) 0.4417(5) 0.1156(2)
H10_4 H 0.1340 0.4393 0.0995
H11_4 H 0.1329 0.4346 0.1730
O19_2 O 0.11938(15) 0.8620(5) 0.19963(18)
O1_4 O 0.02427(15) 0.0494(5) 0.43134(18)
O5_4 O 0.45494(19) 0.2440(4) 0.7844(2)
H1_4 H 0.4194 0.1984 0.7826
H2_4 H 0.4832 0.2761 0.8369
N1_4 N 0.34684(18) 0.0332(5) 0.5952(2)
N2_4 N 0.41213(19) 0.0287(6) 0.6193(2)
C1_4 C 0.1301(2) 0.0040(6) 0.4454(3)
C6_4 C 0.1998(2) 0.0251(7) 0.4932(3)
H7_4 H 0.2216 0.0722 0.5483
C7_4 C 0.0888(2) 0.0561(6) 0.4791(3)
O11_4 O 0.54506(19) 0.2440(4) 0.7156(2)
H8_4 H 0.5806 0.1984 0.7174
H9_4 H 0.5168 0.2761 0.6631
N5_4 N 0.65316(18) 0.0332(5) 0.9048(2)
N6_4 N 0.58787(19) 0.0287(6) 0.8807(2)
H14_4 H 0.7784 0.0722 0.9517
O10_2 O 0.88062(15) 0.8620(5) 0.30037(18)
N8_4 N 0.64620(18) 0.9630(6) 0.0116(2)
C11_4 C 0.9021(2) 0.9299(6) 0.1350(3)
H12_4 H 0.9495 0.9104 0.1673
C12_4 C 0.8640(2) 0.8849(6) 0.1673(3)
C13_4 C 0.7943(2) 0.9110(6) 0.1206(3)
H13_4 H 0.7689 0.8840 0.1438
C14_4 C 0.7620(2) 0.9778(6) 0.0388(3)
C17_4 C 0.9002(2) 0.8098(7) 0.2544(3)
N3_4 N 0.41647(19) 0.9859(6) 0.5557(2)
N4_4 N 0.35380(18) 0.9630(6) 0.4884(2)
C2_4 C 0.0979(2) 0.9299(6) 0.3650(3)
H5_4 H 0.0505 0.9104 0.3327
C3_4 C 0.1360(2) 0.8849(6) 0.3327(3)
C4_4 C 0.2057(2) 0.9110(6) 0.3794(3)
H6_4 H 0.2311 0.8840 0.3562
C5_4 C 0.2380(2) 0.9778(6) 0.4612(3)
C8_4 C 0.0998(2) 0.8098(7) 0.2456(3)
C9_4 C 0.3119(2) 0.9919(6) 0.5135(3)
N7_4 N 0.58353(19) 0.9859(6) 0.9443(2)
C18_4 C 0.6881(2) 0.9919(6) 0.9865(3)
O6_4 O 0.89623(18) 0.4417(5) 0.3844(2)
H3_4 H 0.8660 0.4393 0.4005
H4_4 H 0.8671 0.4346 0.3270
O7_3 O 0.02427(15) 0.9506(5) 0.93134(18)
C10_3 C 0.1301(2) 0.9960(6) 0.9454(3)
C15_3 C 0.1998(2) 0.9749(7) 0.9932(3)
C16_3 C 0.0888(2) 0.9439(6) 0.9791(3)
O7_4 O 0.97573(15) 0.0494(5) 0.06866(18)
C10_4 C 0.8699(2) 0.0040(6) 0.0546(3)
C15_4 C 0.8002(2) 0.0251(7) 0.0068(3)
C16_4 C 0.9112(2) 0.0561(6) 0.0209(3)
loop_
_geom_bond_atom_site_label_1
_geom_bond_atom_site_label_2
_geom_bond_site_symmetry_1
_geom_bond_site_symmetry_2
H3 O6 1_555 1_555
H4 O6 1_555 1_555
Pb1 O1 1_555 1_555
Mn1 O5 1_555 1_555
O1 C7 1_555 1_555
O2 C7 1_555 1_555
O3 C8 1_555 1_555
O4 C8 1_555 1_555
O5 H1 1_555 1_555
H2 O5 1_555 1_555
N1 N2 1_555 1_555
N2 Mn1 1_555 1_555
N3 N2 1_555 1_555
N4 N3 1_555 1_555
C1 C2 1_555 1_555
C2 H5 1_555 1_555
C3 C2 1_555 1_555
C4 C3 1_555 1_555
H6 C4 1_555 1_555
C5 C4 1_555 1_555
C6 C1 1_555 1_555
H7 C6 1_555 1_555
C7 C1 1_555 1_555
C8 C3 1_555 1_555
C9 N1 1_555 1_555
Pb4 O3 1_555 1_555
Pb5 O2 1_555 1_555
O13 Pb1 1_555 1_555
O16 Pb1 1_555 1_555
O17 Mn1 1_555 1_555
O20 Pb1 1_555 1_555
O4 Pb4 1_555 1_555
N4 C9 1_555 1_555
C5 C6 1_555 1_555
C5 C9 1_555 1_555
H10 O12 1_555 1_555
H11 O12 1_555 1_555
O11 Mn1_2 1_555 1_555
H8 O11 1_555 1_555
H9 O11 1_555 1_555
N5 N6 1_555 1_555
N6 Mn1_2 1_555 1_555
N7 N6 1_555 1_555
C18 N5 1_555 1_555
Pb6 O8 1_555 1_555
O18 Mn1_2 1_555 1_555
Pb4 O7 1_555 1_555
O7 C16 1_555 1_555
O16 C17 1_555 1_555
O20 C17 1_555 1_555
C10 C11 1_555 1_555
C11 H12 1_555 1_555
C12 C11 1_555 1_555
C13 C12 1_555 1_555
H13 C13 1_555 1_555
C14 C13 1_555 1_555
C15 C10 1_555 1_555
C16 C10 1_555 1_555
C17 C12 1_555 1_555
O14 Pb4 1_555 1_555
C14 C15 1_555 1_555
O6_2 Pb1_2 1_555 1_555
H3_2 O6_2 1_555 1_555
H4_2 O6_2 1_555 1_555
O13_2 Pb1_2 1_555 1_555
O16_2 Pb1_2 1_555 1_555
O20_2 Pb1_2 1_555 1_555
Mn3_2 O16_2 1_555 1_555
O3_2 C8_2 1_555 1_555
O4_2 C8_2 1_555 1_555
N4_2 N3_2 1_555 1_555
C2_2 H5_2 1_555 1_555
C3_2 C2_2 1_555 1_555
C4_2 C3_2 1_555 1_555
H6_2 C4_2 1_555 1_555
C5_2 C4_2 1_555 1_555
C8_2 C3_2 1_555 1_555
Pb4_2 O3_2 1_555 1_555
Mn3_3 O3_2 1_555 1_555
O4_2 Pb4_2 1_555 1_555
N4_2 C9_2 1_555 1_555
C5_2 C9_2 1_555 1_555
O16_2 C17_2 1_555 1_555
O20_2 C17_2 1_555 1_555
C11_2 H12_2 1_555 1_555
C12_2 C11_2 1_555 1_555
C13_2 C12_2 1_555 1_555
H13_2 C13_2 1_555 1_555
C14_2 C13_2 1_555 1_555
C17_2 C12_2 1_555 1_555
Mn1_3 O5_2 1_555 1_555
O1_2 C7_2 1_555 1_555
O2_2 C7_2 1_555 1_555
O5_2 H1_2 1_555 1_555
H2_2 O5_2 1_555 1_555
N1_2 N2_2 1_555 1_555
N2_2 Mn1_3 1_555 1_555
C6_2 C1_2 1_555 1_555
H7_2 C6_2 1_555 1_555
C7_2 C1_2 1_555 1_555
O11_2 Mn1_3 1_555 1_555
H8_2 O11_2 1_555 1_555
H9_2 O11_2 1_555 1_555
N5_2 N6_2 1_555 1_555
N6_2 Mn1_3 1_555 1_555
Pb5_2 O2_2 1_555 1_555
Pb6_2 O8_2 1_555 1_555
O12_2 Pb4_2 1_555 1_555
H10_2 O12_2 1_555 1_555
H11_2 O12_2 1_555 1_555
O14_2 Pb4_2 1_555 1_555
Pb6 O7_2 1_555 1_555
O7_2 C16_2 1_555 1_555
O18_2 C17_3 1_555 1_555
O10 C17_3 1_555 1_555
C10_2 C11_3 1_555 1_555
C11_3 H12_3 1_555 1_555
C12_3 C11_3 1_555 1_555
C13_3 C12_3 1_555 1_555
H13_3 C13_3 1_555 1_555
C14_3 C13_3 1_555 1_555
C15_2 C10_2 1_555 1_555
C16_2 C10_2 1_555 1_555
C17_3 C12_3 1_555 1_555
Pb5 O18_2 1_555 1_555
O17_2 Pb6 1_555 1_555
O19 Pb6 1_555 1_555
O10 Pb5 1_555 1_555
C14_3 C15_2 1_555 1_555
O11_3 Mn3_2 1_555 1_555
H8_3 O11_3 1_555 1_555
H9_3 O11_3 1_555 1_555
N5_3 N6_3 1_555 1_555
N6_3 Mn3_2 1_555 1_555
N7_3 N6_3 1_555 1_555
C18_3 N5_3 1_555 1_555
H10_3 O12_3 1_555 1_555
H11_3 O12_3 1_555 1_555
Pb5 O1_3 1_555 1_555
Mn3_3 O5_3 1_555 1_555
O1_3 C7_3 1_555 1_555
O13 C7_3 1_555 1_555
O17_2 C8_3 1_555 1_555
O19 C8_3 1_555 1_555
O5_3 H1_3 1_555 1_555
H2_3 O5_3 1_555 1_555
N1_3 N2_3 1_555 1_555
N2_3 Mn3_3 1_555 1_555
N3_3 N2_3 1_555 1_555
N4_3 N3_3 1_555 1_555
C1_3 C2_3 1_555 1_555
C2_3 H5_3 1_555 1_555
C3_3 C2_3 1_555 1_555
C4_3 C3_3 1_555 1_555
H6_3 C4_3 1_555 1_555
C5_3 C4_3 1_555 1_555
C6_3 C1_3 1_555 1_555
H7_3 C6_3 1_555 1_555
C7_3 C1_3 1_555 1_555
C8_3 C3_3 1_555 1_555
C9_3 N1_3 1_555 1_555
N4_3 C9_3 1_555 1_555
C5_3 C6_3 1_555 1_555
C5_3 C9_3 1_555 1_555
H3_3 O6_3 1_555 1_555
H4_3 O6_3 1_555 1_555
O12_4 Pb6_2 1_555 1_555
H10_4 O12_4 1_555 1_555
H11_4 O12_4 1_555 1_555
O17 Pb6_2 1_555 1_555
O19_2 Pb6_2 1_555 1_555
Mn3 O5_4 1_555 1_555
O1_4 C7_4 1_555 1_555
O13_2 C7_4 1_555 1_555
O5_4 H1_4 1_555 1_555
H2_4 O5_4 1_555 1_555
N1_4 N2_4 1_555 1_555
N2_4 Mn3 1_555 1_555
C6_4 C1_4 1_555 1_555
H7_4 C6_4 1_555 1_555
C7_4 C1_4 1_555 1_555
O11_4 Mn3 1_555 1_555
H8_4 O11_4 1_555 1_555
H9_4 O11_4 1_555 1_555
N5_4 N6_4 1_555 1_555
N6_4 Mn3 1_555 1_555
O18 C17_4 1_555 1_555
O10_2 C17_4 1_555 1_555
C11_4 H12_4 1_555 1_555
C12_4 C11_4 1_555 1_555
C13_4 C12_4 1_555 1_555
H13_4 C13_4 1_555 1_555
C14_4 C13_4 1_555 1_555
C17_4 C12_4 1_555 1_555
Pb5_2 O18 1_555 1_555
O10_2 Pb5_2 1_555 1_555
O17 C8_4 1_555 1_555
O19_2 C8_4 1_555 1_555
N4_4 N3_4 1_555 1_555
C2_4 H5_4 1_555 1_555
C3_4 C2_4 1_555 1_555
C4_4 C3_4 1_555 1_555
H6_4 C4_4 1_555 1_555
C5_4 C4_4 1_555 1_555
C8_4 C3_4 1_555 1_555
N4_4 C9_4 1_555 1_555
C5_4 C9_4 1_555 1_555
O6_4 Pb5_2 1_555 1_555
H3_4 O6_4 1_555 1_555
H4_4 O6_4 1_555 1_555
O7_3 C16_3 1_555 1_555
C15_3 C10_3 1_555 1_555
C16_3 C10_3 1_555 1_555
O7_4 C16_4 1_555 1_555
C15_4 C10_4 1_555 1_555
C16_4 C10_4 1_555 1_555

#END
