
###############################################################################
#
# This file contains modified crystal structure data generated from the
# MOF subset of the Cambridge Structural Database (CSD) v543 
# hosted by the Cambridge Crystallographic Data Centre (CCDC).
#
# This work is licensed under the Creative Commons
# Attribution-NonCommercial-ShareAlike 4.0 International License.
# To view a copy of this license, visit
# http://creativecommons.org/licenses/by-nc-sa/4.0/
# or send a letter to
# Creative Commons, PO Box 1866, Mountain View, CA 94042, USA.
#
# CIF created using the CSD Python API on 29 September 2022
# The structure has been converted into the P1 space group
# The structure has a 3D framework
# The original CSD entry BAYQUQ is in the orthorhombic crystal system
# The framework has been calculated to contain at least 10.0% void space
# The void calculation uses a probe of radius 1.32A, grid spacing 0.4
#
###############################################################################

data_BAYQUQ
_chemical_formula_moiety         '(C112 H64 Cd8 N24 O32)n'
_symmetry_cell_setting           triclinic
_symmetry_space_group_name_H-M   'P 1'
_symmetry_Int_Tables_number      1
_space_group_name_Hall           'P 1'
loop_
_symmetry_equiv_pos_site_id
_symmetry_equiv_pos_as_xyz
1 x,y,z
_cell_length_a                   21.51(2)
_cell_length_b                   12.561(11)
_cell_length_c                   15.795(14)
_cell_angle_alpha                90
_cell_angle_beta                 90
_cell_angle_gamma                90
_cell_volume                     4267.61
loop_
_atom_site_label
_atom_site_type_symbol
_atom_site_fract_x
_atom_site_fract_y
_atom_site_fract_z
Cd2 Cd 0.05411(2) 0.37934(4) 0.0000
C1 C 0.2379(2) 0.2586(6) 0.0000
C2 C 0.1697(3) 0.2928(7) 0.0000
O1 O 0.12863(17) 0.2245(3) 0.0000
O2 O 0.15916(17) 0.3879(4) 0.0000
C3 C 0.2839(3) 0.3328(5) 0.0000
H1 H 0.2731 0.4045 0.0000
C4 C 0.3460(3) 0.3055(5) 0.0000
H2 H 0.3765 0.3580 0.0000
C5 C 0.3620(2) 0.2007(6) 0.0000
C6 C 0.4293(3) 0.1677(6) 0.0000
O3 O 0.44351(15) 0.0703(4) 0.0000
O4 O 0.47014(16) 0.2410(3) 0.0000
C7 C 0.3167(2) 0.1228(5) 0.0000
H3 H 0.3271 0.0509 0.0000
C8 C 0.2542(2) 0.1564(6) 0.0000
H4 H 0.2231 0.1050 0.0000
N1 N 0.05225(17) 0.3826(4) 0.1457(2)
C9 C 0.0812(2) 0.4563(5) 0.1883(4)
H5 H 0.1012 0.5096 0.1578
C10 C 0.0844(3) 0.4608(6) 0.2765(4)
H6 H 0.1065 0.5150 0.3028
C11 C 0.0552(3) 0.3866(6) 0.3234(4)
C12 C 0.0235(3) 0.3098(6) 0.2792(5)
H7 H 0.0021 0.2573 0.3087
C13 C 0.0227(3) 0.3091(5) 0.1921(4)
H8 H 0.0007 0.2556 0.1644
C14 C 0.0587(4) 0.3888(7) 0.4179(4)
N2 N 0.0993(4) 0.4583(8) 0.4559(4)
N3 N 0.0157(4) 0.3330(6) 0.4541(3)
N4 N 0.05225(17) 0.3826(4) 0.8543(2)
C15 C 0.0812(2) 0.4563(5) 0.8117(4)
H9 H 0.1012 0.5096 0.8422
C16 C 0.0844(3) 0.4608(6) 0.7235(4)
H10 H 0.1065 0.5150 0.6972
C17 C 0.0552(3) 0.3866(6) 0.6766(4)
C18 C 0.0235(3) 0.3098(6) 0.7208(5)
H11 H 0.0021 0.2573 0.6913
C19 C 0.0227(3) 0.3091(5) 0.8079(4)
H12 H 0.0007 0.2556 0.8356
C20 C 0.0587(4) 0.3888(7) 0.5821(4)
N5 N 0.0993(4) 0.4583(8) 0.5441(4)
N6 N 0.0157(4) 0.3330(6) 0.5459(3)
Cd2_2 Cd 0.05411(2) 0.37934(4) 1.0000
Cd4 Cd 0.55411(2) 0.12066(4) 0.0000
O5 O 0.05649(15) 0.5703(4) 0.0000
C1_2 C 0.2379(2) 0.2586(6) 1.0000
C2_2 C 0.1697(3) 0.2928(7) 1.0000
O1_2 O 0.12863(17) 0.2245(3) 1.0000
O2_2 O 0.15916(17) 0.3879(4) 1.0000
C3_2 C 0.2839(3) 0.3328(5) 1.0000
H1_2 H 0.2731 0.4045 1.0000
C4_2 C 0.3460(3) 0.3055(5) 1.0000
H2_2 H 0.3765 0.3580 1.0000
C5_2 C 0.3620(2) 0.2007(6) 1.0000
C6_2 C 0.4293(3) 0.1677(6) 1.0000
O3_2 O 0.44351(15) 0.0703(4) 1.0000
O4_2 O 0.47014(16) 0.2410(3) 1.0000
C7_2 C 0.3167(2) 0.1228(5) 1.0000
H3_2 H 0.3271 0.0509 1.0000
C8_2 C 0.2542(2) 0.1564(6) 1.0000
H4_2 H 0.2231 0.1050 1.0000
Cd4_2 Cd 0.55411(2) 0.12066(4) 1.0000
O5_2 O 0.05649(15) 0.5703(4) 1.0000
Cd3 Cd 0.44589(2) 0.87934(4) 0.0000
Cd3_2 Cd 0.44589(2) 0.87934(4) 1.0000
O6 O 0.94351(15) 0.4297(4) 0.0000
O7 O 0.97014(16) 0.2590(3) 0.0000
O6_2 O 0.94351(15) 0.4297(4) 1.0000
O7_2 O 0.97014(16) 0.2590(3) 1.0000
O7_3 O 0.02986(16) 0.7410(3) 0.0000
O7_4 O 0.02986(16) 0.7410(3) 1.0000
Cd2_3 Cd 0.94589(2) 0.62066(4) 0.0000
C1_3 C 0.7621(2) 0.7414(6) 0.0000
C2_3 C 0.8303(3) 0.7072(7) 0.0000
O1_3 O 0.87137(17) 0.7755(3) 0.0000
O2_3 O 0.84084(17) 0.6121(4) 0.0000
C3_3 C 0.7161(3) 0.6672(5) 0.0000
H1_3 H 0.7269 0.5955 0.0000
C4_3 C 0.6540(3) 0.6945(5) 0.0000
H2_3 H 0.6235 0.6420 0.0000
C5_3 C 0.6380(2) 0.7993(6) 0.0000
C6_3 C 0.5707(3) 0.8323(6) 0.0000
O3_3 O 0.55649(15) 0.9297(4) 0.0000
O4_3 O 0.52986(16) 0.7590(3) 0.0000
C7_3 C 0.6833(2) 0.8772(5) 0.0000
H3_3 H 0.6729 0.9491 0.0000
C8_3 C 0.7458(2) 0.8436(6) 0.0000
H4_3 H 0.7769 0.8950 0.0000
N1_2 N 0.94775(17) 0.6174(4) 0.1457(2)
C9_2 C 0.9188(2) 0.5437(5) 0.1883(4)
H5_2 H 0.8988 0.4904 0.1578
C10_2 C 0.9156(3) 0.5392(6) 0.2765(4)
H6_2 H 0.8935 0.4850 0.3028
C11_2 C 0.9448(3) 0.6134(6) 0.3234(4)
C12_2 C 0.9765(3) 0.6902(6) 0.2792(5)
H7_2 H 0.9979 0.7427 0.3087
C13_2 C 0.9773(3) 0.6909(5) 0.1921(4)
H8_2 H 0.9993 0.7444 0.1644
C14_2 C 0.9413(4) 0.6112(7) 0.4179(4)
N2_2 N 0.9007(4) 0.5417(8) 0.4559(4)
N3_2 N 0.9843(4) 0.6670(6) 0.4541(3)
N4_2 N 0.94775(17) 0.6174(4) 0.8543(2)
C15_2 C 0.9188(2) 0.5437(5) 0.8117(4)
H9_2 H 0.8988 0.4904 0.8422
C16_2 C 0.9156(3) 0.5392(6) 0.7235(4)
H10_2 H 0.8935 0.4850 0.6972
C17_2 C 0.9448(3) 0.6134(6) 0.6766(4)
C18_2 C 0.9765(3) 0.6902(6) 0.7208(5)
H11_2 H 0.9979 0.7427 0.6913
C19_2 C 0.9773(3) 0.6909(5) 0.8079(4)
H12_2 H 0.9993 0.7444 0.8356
C20_2 C 0.9413(4) 0.6112(7) 0.5821(4)
N5_2 N 0.9007(4) 0.5417(8) 0.5441(4)
N6_2 N 0.9843(4) 0.6670(6) 0.5459(3)
Cd2_4 Cd 0.94589(2) 0.62066(4) 1.0000
C1_4 C 0.7621(2) 0.7414(6) 1.0000
C2_4 C 0.8303(3) 0.7072(7) 1.0000
O1_4 O 0.87137(17) 0.7755(3) 1.0000
O2_4 O 0.84084(17) 0.6121(4) 1.0000
C3_4 C 0.7161(3) 0.6672(5) 1.0000
H1_4 H 0.7269 0.5955 1.0000
C4_4 C 0.6540(3) 0.6945(5) 1.0000
H2_4 H 0.6235 0.6420 1.0000
C5_4 C 0.6380(2) 0.7993(6) 1.0000
C6_4 C 0.5707(3) 0.8323(6) 1.0000
O3_4 O 0.55649(15) 0.9297(4) 1.0000
O4_4 O 0.52986(16) 0.7590(3) 1.0000
C7_4 C 0.6833(2) 0.8772(5) 1.0000
H3_4 H 0.6729 0.9491 1.0000
C8_4 C 0.7458(2) 0.8436(6) 1.0000
H4_4 H 0.7769 0.8950 1.0000
H5_3 H 0.3988 0.0096 0.8422
H6_3 H 0.3935 0.0150 0.6972
H9_3 H 0.3988 0.0096 0.1578
H10_3 H 0.3935 0.0150 0.3028
C1_5 C 0.2621(2) 0.7586(6) 0.0000
C2_5 C 0.3303(3) 0.7928(7) 0.0000
O1_5 O 0.37137(17) 0.7245(3) 0.0000
O2_5 O 0.34084(17) 0.8879(4) 0.0000
C3_5 C 0.2161(3) 0.8328(5) 0.0000
H1_5 H 0.2269 0.9045 0.0000
C4_5 C 0.1540(3) 0.8055(5) 0.0000
H2_5 H 0.1235 0.8580 0.0000
C5_5 C 0.1380(2) 0.7007(6) 0.0000
C6_5 C 0.0707(3) 0.6677(6) 0.0000
C7_5 C 0.1833(2) 0.6228(5) 0.0000
H3_5 H 0.1729 0.5509 0.0000
C8_5 C 0.2458(2) 0.6564(6) 0.0000
H4_5 H 0.2769 0.6050 0.0000
N7 N 0.44775(17) 0.8826(4) 0.1457(2)
C1_6 C 0.2621(2) 0.7586(6) 1.0000
C2_6 C 0.3303(3) 0.7928(7) 1.0000
O1_6 O 0.37137(17) 0.7245(3) 1.0000
O2_6 O 0.34084(17) 0.8879(4) 1.0000
C3_6 C 0.2161(3) 0.8328(5) 1.0000
H1_6 H 0.2269 0.9045 1.0000
C4_6 C 0.1540(3) 0.8055(5) 1.0000
H2_6 H 0.1235 0.8580 1.0000
C5_6 C 0.1380(2) 0.7007(6) 1.0000
C6_6 C 0.0707(3) 0.6677(6) 1.0000
C7_6 C 0.1833(2) 0.6228(5) 1.0000
H3_6 H 0.1729 0.5509 1.0000
C8_6 C 0.2458(2) 0.6564(6) 1.0000
H4_6 H 0.2769 0.6050 1.0000
N1_3 N 0.44775(17) 0.8826(4) 0.8543(2)
C9_3 C 0.4188(2) 0.9563(5) 0.8117(4)
C10_3 C 0.4156(3) 0.9608(6) 0.7235(4)
C11_3 C 0.4448(3) 0.8866(6) 0.6766(4)
C12_3 C 0.4765(3) 0.8098(6) 0.7208(5)
H7_3 H 0.4979 0.7573 0.6913
C13_3 C 0.4773(3) 0.8091(5) 0.8079(4)
H8_3 H 0.4993 0.7556 0.8356
C14_3 C 0.4413(4) 0.8888(7) 0.5821(4)
N2_3 N 0.4007(4) 0.9583(8) 0.5441(4)
N3_3 N 0.4843(4) 0.8330(6) 0.5459(3)
C15_3 C 0.4188(2) 0.9563(5) 0.1883(4)
C16_3 C 0.4156(3) 0.9608(6) 0.2765(4)
C17_3 C 0.4448(3) 0.8866(6) 0.3234(4)
C18_3 C 0.4765(3) 0.8098(6) 0.2792(5)
H11_3 H 0.4979 0.7573 0.3087
C19_3 C 0.4773(3) 0.8091(5) 0.1921(4)
H12_3 H 0.4993 0.7556 0.1644
C20_3 C 0.4413(4) 0.8888(7) 0.4179(4)
N5_3 N 0.4007(4) 0.9583(8) 0.4559(4)
N6_3 N 0.4843(4) 0.8330(6) 0.4541(3)
C1_7 C 0.7379(2) 0.2414(6) 0.0000
C2_7 C 0.6697(3) 0.2072(7) 0.0000
O1_7 O 0.62863(17) 0.2755(3) 0.0000
O2_7 O 0.65916(17) 0.1121(4) 0.0000
C3_7 C 0.7839(3) 0.1672(5) 0.0000
H1_7 H 0.7731 0.0955 0.0000
C4_7 C 0.8460(3) 0.1945(5) 0.0000
H2_7 H 0.8765 0.1420 0.0000
C5_7 C 0.8620(2) 0.2993(6) 0.0000
C6_7 C 0.9293(3) 0.3323(6) 0.0000
C7_7 C 0.8167(2) 0.3772(5) 0.0000
H3_7 H 0.8271 0.4491 0.0000
C8_7 C 0.7542(2) 0.3436(6) 0.0000
H4_7 H 0.7231 0.3950 0.0000
N7_2 N 0.55225(17) 0.1174(4) 0.1457(2)
C1_8 C 0.7379(2) 0.2414(6) 1.0000
C2_8 C 0.6697(3) 0.2072(7) 1.0000
O1_8 O 0.62863(17) 0.2755(3) 1.0000
O2_8 O 0.65916(17) 0.1121(4) 1.0000
C3_8 C 0.7839(3) 0.1672(5) 1.0000
H1_8 H 0.7731 0.0955 1.0000
C4_8 C 0.8460(3) 0.1945(5) 1.0000
H2_8 H 0.8765 0.1420 1.0000
C5_8 C 0.8620(2) 0.2993(6) 1.0000
C6_8 C 0.9293(3) 0.3323(6) 1.0000
C7_8 C 0.8167(2) 0.3772(5) 1.0000
H3_8 H 0.8271 0.4491 1.0000
C8_8 C 0.7542(2) 0.3436(6) 1.0000
H4_8 H 0.7231 0.3950 1.0000
N1_4 N 0.55225(17) 0.1174(4) 0.8543(2)
C9_4 C 0.5812(2) 0.0437(5) 0.8117(4)
C10_4 C 0.5844(3) 0.0392(6) 0.7235(4)
C11_4 C 0.5552(3) 0.1134(6) 0.6766(4)
C12_4 C 0.5235(3) 0.1902(6) 0.7208(5)
H7_4 H 0.5021 0.2427 0.6913
C13_4 C 0.5227(3) 0.1909(5) 0.8079(4)
H8_4 H 0.5007 0.2444 0.8356
C14_4 C 0.5587(4) 0.1112(7) 0.5821(4)
N2_4 N 0.5993(4) 0.0417(8) 0.5441(4)
N3_4 N 0.5157(4) 0.1670(6) 0.5459(3)
C15_4 C 0.5812(2) 0.0437(5) 0.1883(4)
C16_4 C 0.5844(3) 0.0392(6) 0.2765(4)
C17_4 C 0.5552(3) 0.1134(6) 0.3234(4)
C18_4 C 0.5235(3) 0.1902(6) 0.2792(5)
H11_4 H 0.5021 0.2427 0.3087
C19_4 C 0.5227(3) 0.1909(5) 0.1921(4)
H12_4 H 0.5007 0.2444 0.1644
C20_4 C 0.5587(4) 0.1112(7) 0.4179(4)
N5_4 N 0.5993(4) 0.0417(8) 0.4559(4)
N6_4 N 0.5157(4) 0.1670(6) 0.4541(3)
H5_4 H 0.6012 0.9904 0.8422
H6_4 H 0.6065 0.9850 0.6972
H9_4 H 0.6012 0.9904 0.1578
H10_4 H 0.6065 0.9850 0.3028
loop_
_geom_bond_atom_site_label_1
_geom_bond_atom_site_label_2
_geom_bond_site_symmetry_1
_geom_bond_site_symmetry_2
Cd2 O1 1_555 1_555
C1 C2 1_555 1_555
C2 O1 1_555 1_555
O2 Cd2 1_555 1_555
C3 C1 1_555 1_555
H1 C3 1_555 1_555
C4 C3 1_555 1_555
H2 C4 1_555 1_555
C5 C4 1_555 1_555
C6 C5 1_555 1_555
O3 C6 1_555 1_555
O4 C6 1_555 1_555
C7 C5 1_555 1_555
H3 C7 1_555 1_555
C8 C1 1_555 1_555
H4 C8 1_555 1_555
N1 Cd2 1_555 1_555
C9 N1 1_555 1_555
H5 C9 1_555 1_555
C10 C9 1_555 1_555
H6 C10 1_555 1_555
C11 C10 1_555 1_555
C12 C11 1_555 1_555
H7 C12 1_555 1_555
C13 N1 1_555 1_555
H8 C13 1_555 1_555
C14 C11 1_555 1_555
N2 C14 1_555 1_555
N3 C14 1_555 1_555
N4 C15 1_555 1_555
C15 H9 1_555 1_555
C16 C15 1_555 1_555
H10 C16 1_555 1_555
C17 C16 1_555 1_555
C18 C17 1_555 1_555
H11 C18 1_555 1_555
C19 N4 1_555 1_555
H12 C19 1_555 1_555
C20 C17 1_555 1_555
N5 N2 1_555 1_555
N6 N3 1_555 1_555
Cd2_2 N4 1_555 1_555
Cd4 O3 1_555 1_555
O5 Cd2 1_555 1_555
C2 O2 1_555 1_555
O4 Cd4 1_555 1_555
C7 C8 1_555 1_555
C12 C13 1_555 1_555
C18 C19 1_555 1_555
C20 N5 1_555 1_555
C20 N6 1_555 1_555
Cd2_2 O1_2 1_555 1_555
C1_2 C2_2 1_555 1_555
C2_2 O1_2 1_555 1_555
O2_2 Cd2_2 1_555 1_555
C3_2 C1_2 1_555 1_555
H1_2 C3_2 1_555 1_555
C4_2 C3_2 1_555 1_555
H2_2 C4_2 1_555 1_555
C5_2 C4_2 1_555 1_555
C6_2 C5_2 1_555 1_555
O3_2 C6_2 1_555 1_555
O4_2 C6_2 1_555 1_555
C7_2 C5_2 1_555 1_555
H3_2 C7_2 1_555 1_555
C8_2 C1_2 1_555 1_555
H4_2 C8_2 1_555 1_555
Cd4_2 O3_2 1_555 1_555
O5_2 Cd2_2 1_555 1_555
C2_2 O2_2 1_555 1_555
O4_2 Cd4_2 1_555 1_555
C7_2 C8_2 1_555 1_555
Cd2_3 O1_3 1_555 1_555
C1_3 C2_3 1_555 1_555
C2_3 O1_3 1_555 1_555
O2_3 Cd2_3 1_555 1_555
C3_3 C1_3 1_555 1_555
H1_3 C3_3 1_555 1_555
C4_3 C3_3 1_555 1_555
H2_3 C4_3 1_555 1_555
C5_3 C4_3 1_555 1_555
C6_3 C5_3 1_555 1_555
O3_3 C6_3 1_555 1_555
O4_3 C6_3 1_555 1_555
C7_3 C5_3 1_555 1_555
H3_3 C7_3 1_555 1_555
C8_3 C1_3 1_555 1_555
H4_3 C8_3 1_555 1_555
N1_2 Cd2_3 1_555 1_555
C9_2 N1_2 1_555 1_555
H5_2 C9_2 1_555 1_555
C10_2 C9_2 1_555 1_555
H6_2 C10_2 1_555 1_555
C11_2 C10_2 1_555 1_555
C12_2 C11_2 1_555 1_555
H7_2 C12_2 1_555 1_555
C13_2 N1_2 1_555 1_555
H8_2 C13_2 1_555 1_555
C14_2 C11_2 1_555 1_555
N2_2 C14_2 1_555 1_555
N3_2 C14_2 1_555 1_555
N4_2 C15_2 1_555 1_555
C15_2 H9_2 1_555 1_555
C16_2 C15_2 1_555 1_555
H10_2 C16_2 1_555 1_555
C17_2 C16_2 1_555 1_555
C18_2 C17_2 1_555 1_555
H11_2 C18_2 1_555 1_555
C19_2 N4_2 1_555 1_555
H12_2 C19_2 1_555 1_555
C20_2 C17_2 1_555 1_555
N5_2 N2_2 1_555 1_555
N6_2 N3_2 1_555 1_555
Cd2_4 N4_2 1_555 1_555
Cd3 O3_3 1_555 1_555
O6 Cd2_3 1_555 1_555
C2_3 O2_3 1_555 1_555
O4_3 Cd3 1_555 1_555
C7_3 C8_3 1_555 1_555
C12_2 C13_2 1_555 1_555
C18_2 C19_2 1_555 1_555
C20_2 N5_2 1_555 1_555
C20_2 N6_2 1_555 1_555
Cd2_4 O1_4 1_555 1_555
C1_4 C2_4 1_555 1_555
C2_4 O1_4 1_555 1_555
O2_4 Cd2_4 1_555 1_555
C3_4 C1_4 1_555 1_555
H1_4 C3_4 1_555 1_555
C4_4 C3_4 1_555 1_555
H2_4 C4_4 1_555 1_555
C5_4 C4_4 1_555 1_555
C6_4 C5_4 1_555 1_555
O3_4 C6_4 1_555 1_555
O4_4 C6_4 1_555 1_555
C7_4 C5_4 1_555 1_555
H3_4 C7_4 1_555 1_555
C8_4 C1_4 1_555 1_555
H4_4 C8_4 1_555 1_555
Cd3_2 O3_4 1_555 1_555
O6_2 Cd2_4 1_555 1_555
C2_4 O2_4 1_555 1_555
O4_4 Cd3_2 1_555 1_555
C7_4 C8_4 1_555 1_555
Cd3 O1_5 1_555 1_555
C1_5 C2_5 1_555 1_555
C2_5 O1_5 1_555 1_555
O2_5 Cd3 1_555 1_555
C3_5 C1_5 1_555 1_555
H1_5 C3_5 1_555 1_555
C4_5 C3_5 1_555 1_555
H2_5 C4_5 1_555 1_555
C5_5 C4_5 1_555 1_555
C6_5 C5_5 1_555 1_555
O5 C6_5 1_555 1_555
O7_3 C6_5 1_555 1_555
C7_5 C5_5 1_555 1_555
H3_5 C7_5 1_555 1_555
C8_5 C1_5 1_555 1_555
H4_5 C8_5 1_555 1_555
N7 Cd3 1_555 1_555
C2_5 O2_5 1_555 1_555
C7_5 C8_5 1_555 1_555
Cd3_2 O1_6 1_555 1_555
C1_6 C2_6 1_555 1_555
C2_6 O1_6 1_555 1_555
O2_6 Cd3_2 1_555 1_555
C3_6 C1_6 1_555 1_555
H1_6 C3_6 1_555 1_555
C4_6 C3_6 1_555 1_555
H2_6 C4_6 1_555 1_555
C5_6 C4_6 1_555 1_555
C6_6 C5_6 1_555 1_555
O5_2 C6_6 1_555 1_555
O7_4 C6_6 1_555 1_555
C7_6 C5_6 1_555 1_555
H3_6 C7_6 1_555 1_555
C8_6 C1_6 1_555 1_555
H4_6 C8_6 1_555 1_555
N1_3 Cd3_2 1_555 1_555
C9_3 N1_3 1_555 1_555
C10_3 C9_3 1_555 1_555
C11_3 C10_3 1_555 1_555
C12_3 C11_3 1_555 1_555
H7_3 C12_3 1_555 1_555
C13_3 N1_3 1_555 1_555
H8_3 C13_3 1_555 1_555
C14_3 C11_3 1_555 1_555
N2_3 C14_3 1_555 1_555
N3_3 C14_3 1_555 1_555
N7 C15_3 1_555 1_555
C16_3 C15_3 1_555 1_555
C17_3 C16_3 1_555 1_555
C18_3 C17_3 1_555 1_555
H11_3 C18_3 1_555 1_555
C19_3 N7 1_555 1_555
H12_3 C19_3 1_555 1_555
C20_3 C17_3 1_555 1_555
N5_3 N2_3 1_555 1_555
N6_3 N3_3 1_555 1_555
C2_6 O2_6 1_555 1_555
C7_6 C8_6 1_555 1_555
C12_3 C13_3 1_555 1_555
C18_3 C19_3 1_555 1_555
C20_3 N5_3 1_555 1_555
C20_3 N6_3 1_555 1_555
Cd4 O1_7 1_555 1_555
C1_7 C2_7 1_555 1_555
C2_7 O1_7 1_555 1_555
O2_7 Cd4 1_555 1_555
C3_7 C1_7 1_555 1_555
H1_7 C3_7 1_555 1_555
C4_7 C3_7 1_555 1_555
H2_7 C4_7 1_555 1_555
C5_7 C4_7 1_555 1_555
C6_7 C5_7 1_555 1_555
O6 C6_7 1_555 1_555
O7 C6_7 1_555 1_555
C7_7 C5_7 1_555 1_555
H3_7 C7_7 1_555 1_555
C8_7 C1_7 1_555 1_555
H4_7 C8_7 1_555 1_555
N7_2 Cd4 1_555 1_555
C2_7 O2_7 1_555 1_555
C7_7 C8_7 1_555 1_555
Cd4_2 O1_8 1_555 1_555
C1_8 C2_8 1_555 1_555
C2_8 O1_8 1_555 1_555
O2_8 Cd4_2 1_555 1_555
C3_8 C1_8 1_555 1_555
H1_8 C3_8 1_555 1_555
C4_8 C3_8 1_555 1_555
H2_8 C4_8 1_555 1_555
C5_8 C4_8 1_555 1_555
C6_8 C5_8 1_555 1_555
O6_2 C6_8 1_555 1_555
O7_2 C6_8 1_555 1_555
C7_8 C5_8 1_555 1_555
H3_8 C7_8 1_555 1_555
C8_8 C1_8 1_555 1_555
H4_8 C8_8 1_555 1_555
N1_4 Cd4_2 1_555 1_555
C9_4 N1_4 1_555 1_555
C10_4 C9_4 1_555 1_555
C11_4 C10_4 1_555 1_555
C12_4 C11_4 1_555 1_555
H7_4 C12_4 1_555 1_555
C13_4 N1_4 1_555 1_555
H8_4 C13_4 1_555 1_555
C14_4 C11_4 1_555 1_555
N2_4 C14_4 1_555 1_555
N3_4 C14_4 1_555 1_555
N7_2 C15_4 1_555 1_555
C16_4 C15_4 1_555 1_555
C17_4 C16_4 1_555 1_555
C18_4 C17_4 1_555 1_555
H11_4 C18_4 1_555 1_555
C19_4 N7_2 1_555 1_555
H12_4 C19_4 1_555 1_555
C20_4 C17_4 1_555 1_555
N5_4 N2_4 1_555 1_555
N6_4 N3_4 1_555 1_555
C2_8 O2_8 1_555 1_555
C7_8 C8_8 1_555 1_555
C12_4 C13_4 1_555 1_555
C18_4 C19_4 1_555 1_555
C20_4 N5_4 1_555 1_555
C20_4 N6_4 1_555 1_555

#END
