
###############################################################################
#
# This file contains modified crystal structure data generated from the
# MOF subset of the Cambridge Structural Database (CSD) v543 
# hosted by the Cambridge Crystallographic Data Centre (CCDC).
#
# This work is licensed under the Creative Commons
# Attribution-NonCommercial-ShareAlike 4.0 International License.
# To view a copy of this license, visit
# http://creativecommons.org/licenses/by-nc-sa/4.0/
# or send a letter to
# Creative Commons, PO Box 1866, Mountain View, CA 94042, USA.
#
# CIF created using the CSD Python API on 29 September 2022
# The structure has been converted into the P1 space group
# The structure has a 3D framework
# The original CSD entry BAYQOK is in the triclinic crystal system
# The framework has been calculated to contain at least 10.0% void space
# The void calculation uses a probe of radius 1.32A, grid spacing 0.4
#
###############################################################################

data_BAYQOK
_chemical_formula_moiety         '(C56 H32 N12 O14 Zn4)n'
_symmetry_cell_setting           triclinic
_symmetry_space_group_name_H-M   'P 1'
_symmetry_Int_Tables_number      1
_space_group_name_Hall           'P 1'
loop_
_symmetry_equiv_pos_site_id
_symmetry_equiv_pos_as_xyz
1 x,y,z
_cell_length_a                   10.8535(8)
_cell_length_b                   10.8588(10)
_cell_length_c                   17.9937(15)
_cell_angle_alpha                94.267(3)
_cell_angle_beta                 96.413(3)
_cell_angle_gamma                108.049(3)
_cell_volume                     1990.31
loop_
_atom_site_label
_atom_site_type_symbol
_atom_site_fract_x
_atom_site_fract_y
_atom_site_fract_z
O3 O 0.0181(4) 0.2482(4) 0.7167(2)
Zn4 Zn 0.21516(5) 0.28178(5) 0.74378(3)
Zn7 Zn 0.16403(5) 0.23917(5) 0.57675(3)
C13 C 0.1712(5) 0.0192(5) 0.6544(3)
O7 O 0.1865(4) 0.0884(4) 0.7156(2)
O8 O 0.1533(4) 0.0548(4) 0.5898(2)
H10 H 0.317550 0.446223 0.018725
C19 C 0.1876(6) 0.2633(6) 0.0064(3)
C22 C 0.1718(7) 0.2576(6) 0.0874(3)
N2 N 0.2067(8) 0.3709(6) 0.1317(3)
N3 N 0.1947(7) 0.3638(6) 0.2031(3)
C23 C 0.1534(6) 0.2467(6) 0.2268(3)
N4 N 0.1149(6) 0.1350(5) 0.1819(3)
N5 N 0.1255(7) 0.1398(6) 0.1098(3)
C24 C 0.1508(5) 0.2431(6) 0.3089(3)
C25 C 0.1683(5) 0.3555(5) 0.3559(3)
H13 H 0.178661 0.435832 0.335657
C26 C 0.1706(5) 0.3503(5) 0.4318(3)
H14 H 0.180566 0.427858 0.463396
N6 N 0.1591(4) 0.2388(4) 0.4636(2)
C27 C 0.1420(5) 0.1314(5) 0.4172(3)
H15 H 0.132582 0.052167 0.438605
C28 C 0.1373(5) 0.1281(5) 0.3404(3)
H16 H 0.124980 0.048903 0.309770
O1 O 0.3642(4) 0.2805(4) 0.6056(2)
O2 O 0.4049(4) 0.3112(4) 0.7301(2)
C1 C 0.4350(5) 0.2902(5) 0.6664(3)
C2 C 0.5685(5) 0.2749(5) 0.6639(3)
C3 C 0.5934(6) 0.2161(7) 0.5989(3)
H1 H 0.527744 0.187540 0.556097
C4 C 0.7145(6) 0.1990(6) 0.5963(3)
H2 H 0.731297 0.158534 0.551612
O4 O 0.9709(4) 0.1982(4) 0.5915(2)
C5 C 0.9428(5) 0.2284(5) 0.6553(3)
C6 C 0.8100(5) 0.2403(5) 0.6579(3)
C7 C 0.7832(5) 0.2977(6) 0.7231(3)
H3 H 0.848667 0.325606 0.766005
C8 C 0.6626(6) 0.3147(6) 0.7265(3)
H4 H 0.645054 0.353499 0.771458
O5 O 0.2340(4) 0.4688(4) 0.7285(2)
O6 O 0.1811(4) 0.4288(4) 0.6032(2)
C9 C 0.2041(5) 0.4998(5) 0.6653(3)
C10 C 0.1951(5) 0.6354(5) 0.6623(3)
C11 C 0.2173(6) 0.7175(6) 0.7282(3)
H5 H 0.239507 0.689255 0.775101
C12 C 0.2068(6) 0.8428(6) 0.7258(3)
H6 H 0.219672 0.898814 0.771086
C14 C 0.1777(5) 0.8844(5) 0.6572(3)
C15 C 0.1538(5) 0.8019(5) 0.5916(3)
H7 H 0.131953 0.830575 0.544760
C16 C 0.1617(5) 0.6756(5) 0.5936(3)
H8 H 0.144260 0.618121 0.548428
N1 N 0.2110(5) 0.2772(5) 0.8553(3)
C17 C 0.2779(7) 0.3791(7) 0.9065(4)
H9 H 0.332545 0.456084 0.890353
C18 C 0.2685(9) 0.3739(7) 0.9830(4)
C20 C 0.1233(8) 0.1583(7) 0.9540(3)
H11 H 0.070775 0.078982 0.968836
C21 C 0.1362(7) 0.1700(7) 0.8793(3)
H12 H 0.089257 0.097794 0.843016
O10 O 0.0291(4) 0.8018(4) 0.4085(2)
Zn1 Zn 0.78484(5) 0.71822(5) 0.25622(3)
Zn2 Zn 0.83597(5) 0.76083(5) 0.42325(3)
O1_2 O 0.6358(4) 0.7195(4) 0.3944(2)
O2_2 O 0.5951(4) 0.6888(4) 0.2699(2)
C1_2 C 0.5650(5) 0.7098(5) 0.3336(3)
C2_2 C 0.4315(5) 0.7251(5) 0.3361(3)
C3_2 C 0.4066(6) 0.7839(7) 0.4011(3)
H1_2 H 0.472256 0.812460 0.443903
C4_2 C 0.2855(6) 0.8010(6) 0.4037(3)
H2_2 H 0.268703 0.841466 0.448388
C5_2 C 0.0572(5) 0.7716(5) 0.3447(3)
C6_2 C 0.1900(5) 0.7597(5) 0.3421(3)
C7_2 C 0.2168(5) 0.7023(6) 0.2769(3)
H3_2 H 0.151333 0.674394 0.233995
C8_2 C 0.3374(6) 0.6853(6) 0.2735(3)
H4_2 H 0.354946 0.646501 0.228542
O5_2 O 0.7660(4) 0.5312(4) 0.2715(2)
O6_2 O 0.8189(4) 0.5712(4) 0.3968(2)
C9_2 C 0.7959(5) 0.5002(5) 0.3347(3)
C10_2 C 0.8049(5) 0.3646(5) 0.3377(3)
C11_2 C 0.7827(6) 0.2825(6) 0.2718(3)
H5_2 H 0.760493 0.310745 0.224899
C12_2 C 0.7932(6) 0.1572(6) 0.2742(3)
H6_2 H 0.780328 0.101186 0.228914
C14_2 C 0.8223(5) 0.1156(5) 0.3428(3)
C15_2 C 0.8462(5) 0.1981(5) 0.4084(3)
H7_2 H 0.868047 0.169425 0.455240
C16_2 C 0.8383(5) 0.3244(5) 0.4064(3)
H8_2 H 0.855740 0.381879 0.451572
N1_2 N 0.7890(5) 0.7228(5) 0.1447(3)
C17_2 C 0.7221(7) 0.6209(7) 0.0935(4)
H9_2 H 0.667455 0.543916 0.109647
C18_2 C 0.7315(9) 0.6261(7) 0.0170(4)
C20_2 C 0.8767(8) 0.8417(7) 0.0460(3)
H11_2 H 0.929225 0.921018 0.031164
C21_2 C 0.8638(7) 0.8300(7) 0.1207(3)
H12_2 H 0.910743 0.902206 0.156984
O9 O 0.9819(4) 0.7518(4) 0.2833(2)
O11 O 0.8135(4) 0.9116(4) 0.2844(2)
O12 O 0.8467(4) 0.9452(4) 0.4102(2)
N7 N 0.8409(4) 0.7612(4) 0.5364(2)
H10_2 H 0.682450 0.553777 0.981275
C19_2 C 0.8124(6) 0.7367(6) 0.9936(3)
C22_2 C 0.8282(7) 0.7424(6) 0.9126(3)
N2_2 N 0.7933(8) 0.6291(6) 0.8683(3)
N3_2 N 0.8053(7) 0.6362(6) 0.7969(3)
C23_2 C 0.8466(6) 0.7533(6) 0.7732(3)
N4_2 N 0.8851(6) 0.8650(5) 0.8181(3)
N5_2 N 0.8745(7) 0.8602(6) 0.8902(3)
C24_2 C 0.8492(5) 0.7569(6) 0.6911(3)
C25_2 C 0.8317(5) 0.6445(5) 0.6441(3)
H13_2 H 0.821339 0.564168 0.664343
C26_2 C 0.8294(5) 0.6497(5) 0.5682(3)
H14_2 H 0.819434 0.572142 0.536604
C27_2 C 0.8580(5) 0.8686(5) 0.5828(3)
H15_2 H 0.867418 0.947833 0.561395
C28_2 C 0.8627(5) 0.8719(5) 0.6596(3)
H16_2 H 0.875020 0.951097 0.690230
C13_2 C 0.8288(5) 0.9808(5) 0.3456(3)
loop_
_geom_bond_atom_site_label_1
_geom_bond_atom_site_label_2
_geom_bond_site_symmetry_1
_geom_bond_site_symmetry_2
Zn4 O3 1_555 1_555
C13 O7 1_555 1_555
O7 Zn4 1_555 1_555
O8 C13 1_555 1_555
Zn7 O8 1_555 1_555
C22 C19 1_555 1_555
N2 C22 1_555 1_555
N3 N2 1_555 1_555
C23 N3 1_555 1_555
N4 C23 1_555 1_555
N5 C22 1_555 1_555
C24 C23 1_555 1_555
C25 C24 1_555 1_555
H13 C25 1_555 1_555
C26 C25 1_555 1_555
H14 C26 1_555 1_555
N6 C26 1_555 1_555
C27 N6 1_555 1_555
H15 C27 1_555 1_555
C28 C24 1_555 1_555
H16 C28 1_555 1_555
Zn7 N6 1_555 1_555
N4 N5 1_555 1_555
C27 C28 1_555 1_555
Zn4 O2 1_555 1_555
Zn7 O1 1_555 1_555
O1 C1 1_555 1_555
O2 C1 1_555 1_555
C1 C2 1_555 1_555
C2 C3 1_555 1_555
C3 H1 1_555 1_555
C4 C3 1_555 1_555
H2 C4 1_555 1_555
O4 C5 1_555 1_555
C5 C6 1_555 1_555
C6 C4 1_555 1_555
C7 C6 1_555 1_555
H3 C7 1_555 1_555
C8 C2 1_555 1_555
H4 C8 1_555 1_555
O5 Zn4 1_555 1_555
O6 Zn7 1_555 1_555
C9 O5 1_555 1_555
C10 C9 1_555 1_555
C11 C10 1_555 1_555
H5 C11 1_555 1_555
C12 C11 1_555 1_555
H6 C12 1_555 1_555
C14 C12 1_555 1_555
C15 C14 1_555 1_555
H7 C15 1_555 1_555
C16 C10 1_555 1_555
H8 C16 1_555 1_555
N1 Zn4 1_555 1_555
C17 N1 1_555 1_555
H9 C17 1_555 1_555
C18 C17 1_555 1_555
H11 C20 1_555 1_555
C21 N1 1_555 1_555
H12 C21 1_555 1_555
C7 C8 1_555 1_555
O6 C9 1_555 1_555
C15 C16 1_555 1_555
C20 C21 1_555 1_555
Zn1 O2_2 1_555 1_555
Zn2 O1_2 1_555 1_555
O1_2 C1_2 1_555 1_555
O2_2 C1_2 1_555 1_555
C1_2 C2_2 1_555 1_555
C2_2 C3_2 1_555 1_555
C3_2 H1_2 1_555 1_555
C4_2 C3_2 1_555 1_555
H2_2 C4_2 1_555 1_555
O10 C5_2 1_555 1_555
C5_2 C6_2 1_555 1_555
C6_2 C4_2 1_555 1_555
C7_2 C6_2 1_555 1_555
H3_2 C7_2 1_555 1_555
C8_2 C2_2 1_555 1_555
H4_2 C8_2 1_555 1_555
O5_2 Zn1 1_555 1_555
O6_2 Zn2 1_555 1_555
C9_2 O5_2 1_555 1_555
C10_2 C9_2 1_555 1_555
C11_2 C10_2 1_555 1_555
H5_2 C11_2 1_555 1_555
C12_2 C11_2 1_555 1_555
H6_2 C12_2 1_555 1_555
C14_2 C12_2 1_555 1_555
C15_2 C14_2 1_555 1_555
H7_2 C15_2 1_555 1_555
C16_2 C10_2 1_555 1_555
H8_2 C16_2 1_555 1_555
N1_2 Zn1 1_555 1_555
C17_2 N1_2 1_555 1_555
H9_2 C17_2 1_555 1_555
C18_2 C17_2 1_555 1_555
H11_2 C20_2 1_555 1_555
C21_2 N1_2 1_555 1_555
H12_2 C21_2 1_555 1_555
O9 Zn1 1_555 1_555
O11 Zn1 1_555 1_555
O12 Zn2 1_555 1_555
N7 Zn2 1_555 1_555
C7_2 C8_2 1_555 1_555
O6_2 C9_2 1_555 1_555
C15_2 C16_2 1_555 1_555
C20_2 C21_2 1_555 1_555
C22_2 C19_2 1_555 1_555
N2_2 C22_2 1_555 1_555
N3_2 N2_2 1_555 1_555
C23_2 N3_2 1_555 1_555
N4_2 C23_2 1_555 1_555
N5_2 C22_2 1_555 1_555
C24_2 C23_2 1_555 1_555
C25_2 C24_2 1_555 1_555
H13_2 C25_2 1_555 1_555
C26_2 C25_2 1_555 1_555
H14_2 C26_2 1_555 1_555
N7 C26_2 1_555 1_555
C27_2 N7 1_555 1_555
H15_2 C27_2 1_555 1_555
C28_2 C24_2 1_555 1_555
H16_2 C28_2 1_555 1_555
N4_2 N5_2 1_555 1_555
C27_2 C28_2 1_555 1_555
C13_2 O11 1_555 1_555
O12 C13_2 1_555 1_555

#END
