
###############################################################################
#
# This file contains modified crystal structure data generated from the
# MOF subset of the Cambridge Structural Database (CSD) v543 
# hosted by the Cambridge Crystallographic Data Centre (CCDC).
#
# This work is licensed under the Creative Commons
# Attribution-NonCommercial-ShareAlike 4.0 International License.
# To view a copy of this license, visit
# http://creativecommons.org/licenses/by-nc-sa/4.0/
# or send a letter to
# Creative Commons, PO Box 1866, Mountain View, CA 94042, USA.
#
# CIF created using the CSD Python API on 29 September 2022
# The structure has been converted into the P1 space group
# The structure has a 3D framework
# The original CSD entry BAYRAX is in the monoclinic crystal system
# The framework has been calculated to contain at least 10.0% void space
# The void calculation uses a probe of radius 1.32A, grid spacing 0.4
#
###############################################################################

data_BAYRAX
_chemical_formula_moiety         '(C84 H44 Cd6 N24 O24)n'
_symmetry_cell_setting           triclinic
_symmetry_space_group_name_H-M   'P 1'
_symmetry_Int_Tables_number      1
_space_group_name_Hall           'P 1'
loop_
_symmetry_equiv_pos_site_id
_symmetry_equiv_pos_as_xyz
1 x,y,z
_cell_length_a                   10.2813(9)
_cell_length_b                   15.7562(14)
_cell_length_c                   17.4331(13)
_cell_angle_alpha                90
_cell_angle_beta                 102.317(4)
_cell_angle_gamma                90
_cell_volume                     2759.06
loop_
_atom_site_label
_atom_site_type_symbol
_atom_site_fract_x
_atom_site_fract_y
_atom_site_fract_z
Cd2 Cd 0.5000 0.52813(8) 0.7500
C1 C 0.3130(10) 0.3524(6) 0.4228(5)
C2 C 0.1701(10) 0.3380(7) 0.3792(6)
O1 O 0.0845(7) 0.3338(5) 0.4197(4)
O2 O 0.1426(7) 0.3330(5) 0.3072(4)
C3 C 0.4178(10) 0.3452(7) 0.3851(5)
H1 H 0.4020 0.3290 0.3326
C4 C 0.5451(10) 0.3618(6) 0.4250(5)
C5 C 0.6629(10) 0.3555(7) 0.3851(6)
O3 O 0.6427(7) 0.3655(4) 0.3120(4)
O4 O 0.7739(7) 0.3412(5) 0.4268(4)
C6 C 0.5676(10) 0.3895(6) 0.5036(5)
H2 H 0.6535 0.4012 0.5312
C7 C 0.4637(10) 0.3989(6) 0.5386(6)
C8 C 0.4821(11) 0.4367(7) 0.6212(6)
O5 O 0.5948(7) 0.4645(5) 0.6531(4)
O6 O 0.3816(7) 0.4472(5) 0.6492(4)
C9 C 0.3345(10) 0.3804(6) 0.5001(5)
H3 H 0.2640 0.3866 0.5253
H5 H 0.0062 0.0411 0.4424
Cd3 Cd 0.10984(7) 0.34178(6) 0.17326(4)
N7 N 0.1176(10) 0.1953(7) 0.1771(6)
C31 C 0.0501(17) 0.1540(10) 0.1127(11)
H15 H 0.0064 0.1872 0.0710
C32 C 0.0402(19) 0.0665(11) 0.1035(12)
C33 C 0.1069(18) 0.0187(10) 0.1699(10)
C34 C 0.1770(17) 0.0583(9) 0.2388(10)
H17 H 0.2209 0.0275 0.2822
C35 C 0.1760(14) 0.1483(9) 0.2375(9)
H18 H 0.2197 0.1764 0.2826
Cd5 Cd 0.89016(7) 0.34178(6) 0.32674(4)
Cd10 Cd 0.5000 0.47187(8) 0.2500
O14 O 0.3573(7) 0.3655(4) 0.1880(4)
O15 O 0.3573(7) 0.6345(4) 0.6880(4)
O16 O 0.6427(7) 0.6345(4) 0.8120(4)
O18 O 0.2261(7) 0.3412(5) 0.0732(4)
O19 O 0.4052(7) 0.4645(5) 0.8469(4)
O20 O 0.6184(7) 0.4472(5) 0.8508(4)
N14 N 0.0842(8) 0.4853(6) 0.1702(5)
H10 H 0.0287 0.4974 0.4341
H11 H 0.0302 0.6408 0.4424
C36 C 0.1014(17) 0.9182(11) 0.1678(9)
N8 N 0.1569(18) 0.8843(10) 0.2305(10)
N9 N 0.1458(16) 0.7967(9) 0.2247(10)
C37 C 0.0880(16) 0.7565(11) 0.1630(10)
N10 N 0.038(2) 0.7960(14) 0.0979(11)
N11 N 0.039(2) 0.8903(9) 0.0969(10)
C38 C 0.0871(12) 0.6615(8) 0.1632(7)
C39 C 0.1519(11) 0.6201(8) 0.2271(6)
H19 H 0.1997 0.6500 0.2699
C40 C 0.1472(10) 0.5321(7) 0.2289(7)
H20 H 0.1911 0.5047 0.2743
C41 C 0.0191(11) 0.5282(8) 0.1082(6)
C42 C 0.0177(12) 0.6143(8) 0.1025(7)
N1 N 0.8824(10) 0.1953(7) 0.3229(6)
C10 C 0.9499(17) 0.1540(10) 0.3873(11)
H4 H 0.9936 0.1872 0.4290
C11 C 0.9598(19) 0.0665(11) 0.3965(12)
C12 C 0.8931(18) 0.0187(10) 0.3301(10)
C13 C 0.8230(17) 0.0583(9) 0.2612(10)
H6 H 0.7791 0.0275 0.2178
C14 C 0.8240(14) 0.1483(9) 0.2625(9)
H7 H 0.7803 0.1764 0.2174
C22 C 0.6870(10) 0.3524(6) 0.0772(5)
C23 C 0.8299(10) 0.3380(7) 0.1208(6)
O7 O 0.9155(7) 0.3338(5) 0.0803(4)
O8 O 0.8574(7) 0.3330(5) 0.1928(4)
C24 C 0.5822(10) 0.3452(7) 0.1149(5)
H12 H 0.5980 0.3290 0.1674
C25 C 0.4549(10) 0.3618(6) 0.0750(5)
C26 C 0.3371(10) 0.3555(7) 0.1149(6)
H16 H 0.9938 0.0411 0.0576
N13 N 0.9158(8) 0.4853(6) 0.3298(5)
C27 C 0.4324(10) 0.3895(6) 0.9964(5)
H13 H 0.3465 0.4012 0.9688
C28 C 0.5363(10) 0.3989(6) 0.9614(6)
C29 C 0.5179(11) 0.4367(7) 0.8788(6)
C30 C 0.6655(10) 0.3804(6) 0.9999(5)
H14 H 0.7360 0.3866 0.9747
C15 C 0.8986(17) 0.9182(11) 0.3322(9)
N2 N 0.8431(18) 0.8843(10) 0.2695(10)
N3 N 0.8542(16) 0.7967(9) 0.2753(10)
C16 C 0.9120(16) 0.7565(11) 0.3370(10)
N4 N 0.962(2) 0.7960(14) 0.4021(11)
N5 N 0.961(2) 0.8903(9) 0.4031(10)
C17 C 0.9129(12) 0.6615(8) 0.3368(7)
C18 C 0.8481(11) 0.6201(8) 0.2729(6)
H8 H 0.8003 0.6500 0.2301
C19 C 0.8528(10) 0.5321(7) 0.2711(7)
H9 H 0.8089 0.5047 0.2257
C20 C 0.9809(11) 0.5282(8) 0.3918(6)
C21 C 0.9823(12) 0.6143(8) 0.3975(7)
H21 H 0.9713 0.4974 0.0659
H22 H 0.9698 0.6408 0.0576
C15_2 C 0.1014(17) 0.0818(11) 0.6678(9)
N2_2 N 0.1569(18) 0.1157(10) 0.7305(10)
N3_2 N 0.1458(16) 0.2033(9) 0.7247(10)
C16_2 C 0.0880(16) 0.2435(11) 0.6630(10)
N4_2 N 0.038(2) 0.2040(14) 0.5979(11)
N5_2 N 0.039(2) 0.1097(9) 0.5969(10)
C17_2 C 0.0871(12) 0.3385(8) 0.6632(7)
C18_2 C 0.1519(11) 0.3799(8) 0.7271(6)
H8_2 H 0.1997 0.3500 0.7699
C19_2 C 0.1472(10) 0.4679(7) 0.7289(7)
H9_2 H 0.1911 0.4953 0.7743
N6 N 0.0842(8) 0.5147(6) 0.6702(5)
C20_2 C 0.0191(11) 0.4718(8) 0.6082(6)
C21_2 C 0.0177(12) 0.3857(8) 0.6025(7)
H21_2 H 0.0287 0.5026 0.9341
H22_2 H 0.0302 0.3592 0.9424
Cd4 Cd 0.10984(7) 0.65822(6) 0.67326(4)
C27_2 C 0.5676(10) 0.6105(6) 0.0036(5)
H13_2 H 0.6535 0.5988 0.0312
C28_2 C 0.4637(10) 0.6011(6) 0.0386(6)
C29_2 C 0.4821(11) 0.5633(7) 0.1212(6)
O11 O 0.5948(7) 0.5355(5) 0.1531(4)
O12 O 0.3816(7) 0.5528(5) 0.1492(4)
C30_2 C 0.3345(10) 0.6196(6) 0.0001(5)
H14_2 H 0.2640 0.6134 0.0253
N1_2 N 0.1176(10) 0.8047(7) 0.6771(6)
C10_2 C 0.0501(17) 0.8460(10) 0.6127(11)
H4_2 H 0.0064 0.8128 0.5710
C11_2 C 0.0402(19) 0.9335(11) 0.6035(12)
C12_2 C 0.1069(18) 0.9813(10) 0.6699(10)
C13_2 C 0.1770(17) 0.9417(9) 0.7388(10)
H6_2 H 0.2209 0.9725 0.7822
C14_2 C 0.1760(14) 0.8517(9) 0.7375(9)
H7_2 H 0.2197 0.8236 0.7826
C22_2 C 0.3130(10) 0.6476(6) 0.9228(5)
C23_2 C 0.1701(10) 0.6620(7) 0.8792(6)
O7_2 O 0.0845(7) 0.6662(5) 0.9197(4)
O8_2 O 0.1426(7) 0.6670(5) 0.8072(4)
C24_2 C 0.4178(10) 0.6548(7) 0.8851(5)
H12_2 H 0.4020 0.6710 0.8326
C25_2 C 0.5451(10) 0.6382(6) 0.9250(5)
C26_2 C 0.6629(10) 0.6445(7) 0.8851(6)
O10 O 0.7739(7) 0.6588(5) 0.9268(4)
H16_2 H 0.0062 0.9589 0.9424
Cd6 Cd 0.89016(7) 0.65822(6) 0.82674(4)
O17 O 0.2261(7) 0.6588(5) 0.5732(4)
H10_2 H 0.9713 0.5026 0.5659
H11_2 H 0.9698 0.3592 0.5576
C36_2 C 0.8986(17) 0.0818(11) 0.8322(9)
N8_2 N 0.8431(18) 0.1157(10) 0.7695(10)
N9_2 N 0.8542(16) 0.2033(9) 0.7753(10)
C37_2 C 0.9120(16) 0.2435(11) 0.8370(10)
N10_2 N 0.962(2) 0.2040(14) 0.9021(11)
N11_2 N 0.961(2) 0.1097(9) 0.9031(10)
C38_2 C 0.9129(12) 0.3385(8) 0.8368(7)
C39_2 C 0.8481(11) 0.3799(8) 0.7729(6)
H19_2 H 0.8003 0.3500 0.7301
C40_2 C 0.8528(10) 0.4679(7) 0.7711(7)
H20_2 H 0.8089 0.4953 0.7257
N12 N 0.9158(8) 0.5147(6) 0.8298(5)
C41_2 C 0.9809(11) 0.4718(8) 0.8918(6)
C42_2 C 0.9823(12) 0.3857(8) 0.8975(7)
C1_2 C 0.6870(10) 0.6476(6) 0.5772(5)
C2_2 C 0.8299(10) 0.6620(7) 0.6208(6)
O1_2 O 0.9155(7) 0.6662(5) 0.5803(4)
O2_2 O 0.8574(7) 0.6670(5) 0.6928(4)
C3_2 C 0.5822(10) 0.6548(7) 0.6149(5)
H1_2 H 0.5980 0.6710 0.6674
C4_2 C 0.4549(10) 0.6382(6) 0.5750(5)
C5_2 C 0.3371(10) 0.6445(7) 0.6149(6)
C6_2 C 0.4324(10) 0.6105(6) 0.4964(5)
H2_2 H 0.3465 0.5988 0.4688
C7_2 C 0.5363(10) 0.6011(6) 0.4614(6)
C8_2 C 0.5179(11) 0.5633(7) 0.3788(6)
O5_2 O 0.4052(7) 0.5355(5) 0.3469(4)
O6_2 O 0.6184(7) 0.5528(5) 0.3508(4)
C9_2 C 0.6655(10) 0.6196(6) 0.4999(5)
H3_2 H 0.7360 0.6134 0.4747
H5_2 H 0.9938 0.9589 0.5576
N7_2 N 0.8824(10) 0.8047(7) 0.8229(6)
C31_2 C 0.9499(17) 0.8460(10) 0.8873(11)
H15_2 H 0.9936 0.8128 0.9290
C32_2 C 0.9598(19) 0.9335(11) 0.8965(12)
C33_2 C 0.8931(18) 0.9813(10) 0.8301(10)
C34_2 C 0.8230(17) 0.9417(9) 0.7612(10)
H17_2 H 0.7791 0.9725 0.7178
C35_2 C 0.8240(14) 0.8517(9) 0.7625(9)
H18_2 H 0.7803 0.8236 0.7174
loop_
_geom_bond_atom_site_label_1
_geom_bond_atom_site_label_2
_geom_bond_site_symmetry_1
_geom_bond_site_symmetry_2
Cd2 O5 1_555 1_555
C1 C2 1_555 1_555
C2 O1 1_555 1_555
C3 C1 1_555 1_555
H1 C3 1_555 1_555
C4 C3 1_555 1_555
C5 C4 1_555 1_555
O3 C5 1_555 1_555
O4 C5 1_555 1_555
C6 C4 1_555 1_555
H2 C6 1_555 1_555
C7 C6 1_555 1_555
C8 C7 1_555 1_555
O5 C8 1_555 1_555
O6 Cd2 1_555 1_555
C9 C1 1_555 1_555
H3 C9 1_555 1_555
Cd3 O2 1_555 1_555
N7 Cd3 1_555 1_555
C31 N7 1_555 1_555
H15 C31 1_555 1_555
C32 C31 1_555 1_555
C33 C32 1_555 1_555
C34 C33 1_555 1_555
H17 C34 1_555 1_555
C35 N7 1_555 1_555
H18 C35 1_555 1_555
Cd5 O3 1_555 1_555
Cd10 O3 1_555 1_555
O14 Cd3 1_555 1_555
O15 Cd2 1_555 1_555
O16 Cd2 1_555 1_555
O18 Cd3 1_555 1_555
O19 Cd2 1_555 1_555
O20 Cd2 1_555 1_555
N14 Cd3 1_555 1_555
C2 O2 1_555 1_555
O4 Cd5 1_555 1_555
C7 C9 1_555 1_555
C8 O6 1_555 1_555
C34 C35 1_555 1_555
Cd10 O14 1_555 1_555
N8 C36 1_555 1_555
N9 N8 1_555 1_555
C37 N9 1_555 1_555
N10 C37 1_555 1_555
N11 C36 1_555 1_555
C38 C37 1_555 1_555
C39 C38 1_555 1_555
H19 C39 1_555 1_555
C40 C39 1_555 1_555
H20 C40 1_555 1_555
N14 C40 1_555 1_555
C41 N14 1_555 1_555
C42 C38 1_555 1_555
N10 N11 1_555 1_555
C41 C42 1_555 1_555
N1 Cd5 1_555 1_555
C10 N1 1_555 1_555
H4 C10 1_555 1_555
C11 C10 1_555 1_555
C12 C11 1_555 1_555
C13 C12 1_555 1_555
H6 C13 1_555 1_555
C14 N1 1_555 1_555
H7 C14 1_555 1_555
C22 C23 1_555 1_555
C23 O7 1_555 1_555
O8 Cd5 1_555 1_555
C24 C22 1_555 1_555
H12 C24 1_555 1_555
C25 C24 1_555 1_555
C26 C25 1_555 1_555
O14 C26 1_555 1_555
O18 C26 1_555 1_555
N13 Cd5 1_555 1_555
C13 C14 1_555 1_555
C23 O8 1_555 1_555
H13 C27 1_555 1_555
C28 C27 1_555 1_555
C29 C28 1_555 1_555
O19 C29 1_555 1_555
O20 C29 1_555 1_555
H14 C30 1_555 1_555
C28 C30 1_555 1_555
N2 C15 1_555 1_555
N3 N2 1_555 1_555
C16 N3 1_555 1_555
N4 C16 1_555 1_555
N5 C15 1_555 1_555
C17 C16 1_555 1_555
C18 C17 1_555 1_555
H8 C18 1_555 1_555
C19 C18 1_555 1_555
H9 C19 1_555 1_555
N13 C19 1_555 1_555
C20 N13 1_555 1_555
C21 C17 1_555 1_555
N4 N5 1_555 1_555
C20 C21 1_555 1_555
N2_2 C15_2 1_555 1_555
N3_2 N2_2 1_555 1_555
C16_2 N3_2 1_555 1_555
N4_2 C16_2 1_555 1_555
N5_2 C15_2 1_555 1_555
C17_2 C16_2 1_555 1_555
C18_2 C17_2 1_555 1_555
H8_2 C18_2 1_555 1_555
C19_2 C18_2 1_555 1_555
H9_2 C19_2 1_555 1_555
N6 C19_2 1_555 1_555
C20_2 N6 1_555 1_555
C21_2 C17_2 1_555 1_555
Cd4 N6 1_555 1_555
N4_2 N5_2 1_555 1_555
C20_2 C21_2 1_555 1_555
H13_2 C27_2 1_555 1_555
C28_2 C27_2 1_555 1_555
C29_2 C28_2 1_555 1_555
O11 C29_2 1_555 1_555
O12 C29_2 1_555 1_555
H14_2 C30_2 1_555 1_555
Cd10 O11 1_555 1_555
C28_2 C30_2 1_555 1_555
O12 Cd10 1_555 1_555
N1_2 Cd4 1_555 1_555
C10_2 N1_2 1_555 1_555
H4_2 C10_2 1_555 1_555
C11_2 C10_2 1_555 1_555
C12_2 C11_2 1_555 1_555
C13_2 C12_2 1_555 1_555
H6_2 C13_2 1_555 1_555
C14_2 N1_2 1_555 1_555
H7_2 C14_2 1_555 1_555
C22_2 C23_2 1_555 1_555
C23_2 O7_2 1_555 1_555
O8_2 Cd4 1_555 1_555
C24_2 C22_2 1_555 1_555
H12_2 C24_2 1_555 1_555
C25_2 C24_2 1_555 1_555
C26_2 C25_2 1_555 1_555
O16 C26_2 1_555 1_555
O10 C26_2 1_555 1_555
Cd6 O16 1_555 1_555
O15 Cd4 1_555 1_555
O17 Cd4 1_555 1_555
C13_2 C14_2 1_555 1_555
C23_2 O8_2 1_555 1_555
O10 Cd6 1_555 1_555
N8_2 C36_2 1_555 1_555
N9_2 N8_2 1_555 1_555
C37_2 N9_2 1_555 1_555
N10_2 C37_2 1_555 1_555
N11_2 C36_2 1_555 1_555
C38_2 C37_2 1_555 1_555
C39_2 C38_2 1_555 1_555
H19_2 C39_2 1_555 1_555
C40_2 C39_2 1_555 1_555
H20_2 C40_2 1_555 1_555
N12 C40_2 1_555 1_555
C41_2 N12 1_555 1_555
C42_2 C38_2 1_555 1_555
Cd6 N12 1_555 1_555
N10_2 N11_2 1_555 1_555
C41_2 C42_2 1_555 1_555
Cd10 O5_2 1_555 1_555
C1_2 C2_2 1_555 1_555
C2_2 O1_2 1_555 1_555
C3_2 C1_2 1_555 1_555
H1_2 C3_2 1_555 1_555
C4_2 C3_2 1_555 1_555
C5_2 C4_2 1_555 1_555
O15 C5_2 1_555 1_555
O17 C5_2 1_555 1_555
C6_2 C4_2 1_555 1_555
H2_2 C6_2 1_555 1_555
C7_2 C6_2 1_555 1_555
C8_2 C7_2 1_555 1_555
O5_2 C8_2 1_555 1_555
O6_2 Cd10 1_555 1_555
C9_2 C1_2 1_555 1_555
H3_2 C9_2 1_555 1_555
Cd6 O2_2 1_555 1_555
N7_2 Cd6 1_555 1_555
C31_2 N7_2 1_555 1_555
H15_2 C31_2 1_555 1_555
C32_2 C31_2 1_555 1_555
C33_2 C32_2 1_555 1_555
C34_2 C33_2 1_555 1_555
H17_2 C34_2 1_555 1_555
C35_2 N7_2 1_555 1_555
H18_2 C35_2 1_555 1_555
C2_2 O2_2 1_555 1_555
C7_2 C9_2 1_555 1_555
C8_2 O6_2 1_555 1_555
C34_2 C35_2 1_555 1_555

#END
