
###############################################################################
#
# This file contains modified crystal structure data generated from the
# MOF subset of the Cambridge Structural Database (CSD) v543 
# hosted by the Cambridge Crystallographic Data Centre (CCDC).
#
# This work is licensed under the Creative Commons
# Attribution-NonCommercial-ShareAlike 4.0 International License.
# To view a copy of this license, visit
# http://creativecommons.org/licenses/by-nc-sa/4.0/
# or send a letter to
# Creative Commons, PO Box 1866, Mountain View, CA 94042, USA.
#
# CIF created using the CSD Python API on 29 September 2022
# The structure has been converted into the P1 space group
# The structure has a 3D framework
# The original CSD entry BEBWOX is in the monoclinic crystal system
# The framework has been calculated to contain at least 10.0% void space
# The void calculation uses a probe of radius 1.32A, grid spacing 0.4
#
###############################################################################

data_BEBWOX
_chemical_formula_moiety         '(C144 H96 Co8 N24 O30)n'
_symmetry_cell_setting           triclinic
_symmetry_space_group_name_H-M   'P 1'
_symmetry_Int_Tables_number      1
_space_group_name_Hall           'P 1'
loop_
_symmetry_equiv_pos_site_id
_symmetry_equiv_pos_as_xyz
1 x,y,z
_cell_length_a                   15.673(4)
_cell_length_b                   15.378(4)
_cell_length_c                   15.991(4)
_cell_angle_alpha                90
_cell_angle_beta                 95.467(3)
_cell_angle_gamma                90
_cell_volume                     3836.61
loop_
_atom_site_label
_atom_site_type_symbol
_atom_site_fract_x
_atom_site_fract_y
_atom_site_fract_z
N6 N 0.2500(3) 0.0920(3) 0.0364(2)
C34 C 0.3294(4) 0.1032(5) 0.0032(3)
H21 H 0.3806 0.1170 0.0346
H23 H 0.0888 0.0776 0.0329
Co5 Co 0.23914(4) 0.09023(3) 0.16276(3)
Co1 Co 0.26107(3) 0.06700(3) 0.34007(3)
O1 O 0.1432(2) 0.1732(2) 0.1781(2)
O2 O 0.1704(2) 0.1670(2) 0.3160(2)
O5 O 0.3512(2) 0.1594(2) 0.3310(2)
O6 O 0.3296(2) 0.1829(2) 0.1931(2)
O7 O 0.6620(2) 0.5033(2) 0.3091(3)
O8 O 0.6543(3) 0.4713(3) 0.1743(3)
N1 N 0.2512(3) 0.0840(2) 0.4657(2)
N2 N 0.2227(4) 0.0746(3) 0.5964(2)
N5 N 0.2382(3) 0.0674(3) 0.9007(2)
C1 C 0.3688(3) 0.1960(3) 0.2643(3)
C2 C 0.4413(3) 0.2615(3) 0.2678(3)
C3 C 0.4468(3) 0.3104(3) 0.1957(3)
H1 H 0.4072 0.3015 0.1495
C4 C 0.5109(3) 0.3726(3) 0.1913(3)
H2 H 0.5135 0.4039 0.1419
C5 C 0.5697(3) 0.3885(3) 0.2575(3)
C6 C 0.6338(3) 0.4596(3) 0.2470(3)
C7 C 0.5682(3) 0.3389(3) 0.3330(3)
C8 C 0.5028(3) 0.2751(3) 0.3388(3)
C9 C 0.5034(4) 0.2257(5) 0.4141(4)
H3 H 0.4619 0.1832 0.4190
C10 C 0.5643(5) 0.2402(6) 0.4788(5)
H4 H 0.5628 0.2089 0.5284
C11 C 0.6292(6) 0.3012(7) 0.4720(5)
H5 H 0.6716 0.3082 0.5163
C12 C 0.6313(4) 0.3492(5) 0.4036(4)
H6 H 0.6745 0.3904 0.4012
C13 C 0.1276(3) 0.1929(3) 0.2512(3)
C14 C 0.0545(3) 0.2546(3) 0.2593(3)
C15 C 0.0348(3) 0.3107(4) 0.1942(3)
H7 H 0.0642 0.3065 0.1465
C20 C 0.0073(3) 0.2586(3) 0.3307(3)
C21 C 0.0198(3) 0.1985(3) 0.3983(3)
H9 H 0.0617 0.1559 0.3972
C26 C 0.2338(4) 0.0305(3) 0.5239(3)
C27 C 0.2506(3) 0.1661(3) 0.5006(3)
H16 H 0.2588 0.2176 0.4720
C28 C 0.2367(4) 0.1605(3) 0.5813(3)
H17 H 0.2365 0.2060 0.6195
C29 C 0.1962(4) 0.0426(4) 0.6727(3)
C30 C 0.2339(4) 0.0766(4) 0.7489(3)
H18 H 0.2769 0.1184 0.7520
C31 C 0.2011(4) 0.0421(4) 0.8191(3)
C33 C 0.3207(4) 0.0914(5) 0.9217(4)
H20 H 0.3631 0.0981 0.8852
C35 C 0.1957(4) 0.0709(3) 0.9738(3)
C36 C 0.1039(4) 0.0567(5) 0.9797(4)
H22 H 0.0714 0.0876 0.9352
Co4 Co 0.73893(3) 0.56700(3) 0.15993(3)
Co7 Co 0.76086(4) 0.59023(3) 0.33724(3)
O11 O 0.3380(2) 0.0033(2) 0.1909(3)
N3 N 0.1395(5) 0.9790(4) 0.6672(3)
N4 N 0.1434(5) 0.9794(4) 0.8176(3)
C25 C 0.2289(7) 0.9341(4) 0.5137(4)
H13 H 0.2235 0.9075 0.5673
H14 H 0.2800 0.9134 0.4916
H15 H 0.1799 0.9194 0.4756
C32 C 0.1151(7) 0.9513(6) 0.7407(4)
H19 H 0.0739 0.9076 0.7379
H24 H 0.0915 0.9957 0.9748
O9 O 0.1586(2) 0.9877(2) 0.1697(2)
O10 O 0.1649(2) 0.9830(3) 0.3087(2)
O12 O 0.3457(3) 0.9713(3) 0.3257(3)
O3 O 0.8414(2) 0.4877(2) 0.3303(2)
O4 O 0.8351(2) 0.4830(3) 0.1913(2)
C16 C 0.9716(3) 0.3742(4) 0.1974(3)
H8 H 0.9604 0.4118 0.1521
C17 C 0.9258(3) 0.3827(3) 0.2656(3)
C18 C 0.8624(3) 0.4567(3) 0.2631(3)
C19 C 0.9416(3) 0.3231(3) 0.3341(3)
C22 C 0.9714(4) 0.2023(4) 0.4649(4)
H10 H 0.9805 0.1620 0.5081
C23 C 0.9089(4) 0.2653(4) 0.4687(4)
H11 H 0.8775 0.2675 0.5152
C24 C 0.8925(3) 0.3243(4) 0.4053(3)
H12 H 0.8494 0.3654 0.4084
C16_2 C 0.0284(3) 0.8742(4) 0.3026(3)
H8_2 H 0.0396 0.9118 0.3479
C17_2 C 0.0742(3) 0.8827(3) 0.2344(3)
C18_2 C 0.1376(3) 0.9567(3) 0.2369(3)
C19_2 C 0.0584(3) 0.8231(3) 0.1659(3)
C22_2 C 0.0286(4) 0.7023(4) 0.0351(4)
C23_2 C 0.0911(4) 0.7653(4) 0.0313(4)
C24_2 C 0.1075(3) 0.8243(4) 0.0947(3)
H12_2 H 0.1506 0.8654 0.0916
O1_2 O 0.8568(2) 0.6732(2) 0.3219(2)
O2_2 O 0.8296(2) 0.6670(2) 0.1840(2)
O5_2 O 0.6488(2) 0.6594(2) 0.1690(2)
O6_2 O 0.6704(2) 0.6829(2) 0.3069(2)
N1_2 N 0.7488(3) 0.5840(2) 0.0343(2)
C1_2 C 0.6312(3) 0.6960(3) 0.2357(3)
C2_2 C 0.5587(3) 0.7615(3) 0.2322(3)
C3_2 C 0.5532(3) 0.8104(3) 0.3043(3)
H1_2 H 0.5928 0.8015 0.3505
C4_2 C 0.4891(3) 0.8726(3) 0.3087(3)
H2_2 H 0.4865 0.9039 0.3581
C5_2 C 0.4303(3) 0.8885(3) 0.2425(3)
C6_2 C 0.3662(3) 0.9596(3) 0.2530(3)
C7_2 C 0.4318(3) 0.8389(3) 0.1670(3)
C8_2 C 0.4972(3) 0.7751(3) 0.1612(3)
C9_2 C 0.4966(4) 0.7257(5) 0.0859(4)
H3_2 H 0.5381 0.6832 0.0810
C10_2 C 0.4357(5) 0.7402(6) 0.0212(5)
C11_2 C 0.3708(6) 0.8012(7) 0.0280(5)
C12_2 C 0.3687(4) 0.8492(5) 0.0964(4)
H6_2 H 0.3255 0.8904 0.0988
C13_2 C 0.8724(3) 0.6929(3) 0.2488(3)
C14_2 C 0.9455(3) 0.7546(3) 0.2407(3)
C15_2 C 0.9652(3) 0.8107(4) 0.3058(3)
H7_2 H 0.9358 0.8065 0.3535
C20_2 C 0.9927(3) 0.7586(3) 0.1693(3)
C21_2 C 0.9802(3) 0.6985(3) 0.1017(3)
H9_2 H 0.9383 0.6559 0.1028
H14_2 H 0.7200 0.4134 0.0084
H15_2 H 0.8201 0.4194 0.0244
H16_2 H 0.7412 0.7176 0.0280
N7 N 0.7500(3) 0.5920(3) 0.4636(2)
N2_2 N 0.7773(4) 0.5746(3) 0.9036(2)
N3_2 N 0.8605(5) 0.4790(4) 0.8328(3)
N4_2 N 0.8566(5) 0.4794(4) 0.6824(3)
N5_2 N 0.7618(3) 0.5674(3) 0.5993(2)
H4_2 H 0.4372 0.7089 0.9716
H5_2 H 0.3284 0.8082 0.9837
C25_2 C 0.7711(7) 0.4341(4) 0.9863(4)
H13_2 H 0.7765 0.4075 0.9327
C26_2 C 0.7662(4) 0.5305(3) 0.9761(3)
C27_2 C 0.7494(3) 0.6661(3) 0.9994(3)
C28_2 C 0.7633(4) 0.6605(3) 0.9187(3)
H17_2 H 0.7635 0.7060 0.8805
C29_2 C 0.8038(4) 0.5426(4) 0.8273(3)
C30_2 C 0.7661(4) 0.5766(4) 0.7511(3)
H18_2 H 0.7231 0.6184 0.7480
C31_2 C 0.7989(4) 0.5421(4) 0.6809(3)
C32_2 C 0.8849(7) 0.4513(6) 0.7593(4)
H19_2 H 0.9261 0.4076 0.7621
C33_2 C 0.6793(4) 0.5914(5) 0.5783(4)
H20_2 H 0.6369 0.5981 0.6148
C34_2 C 0.6706(4) 0.6032(5) 0.4968(3)
H21_2 H 0.6194 0.6170 0.4654
C35_2 C 0.8043(4) 0.5709(3) 0.5262(3)
C36_2 C 0.8961(4) 0.5567(5) 0.5203(4)
H22_2 H 0.9286 0.5876 0.5648
H23_2 H 0.9112 0.5776 0.4671
H24_2 H 0.9085 0.4957 0.5252
H10_2 H 0.0195 0.6620 0.9919
H11_2 H 0.1225 0.7675 0.9848
O3_2 O 0.1586(2) 0.5123(2) 0.6697(2)
O4_2 O 0.1649(2) 0.5170(3) 0.8087(2)
C16_3 C 0.0284(3) 0.6258(4) 0.8026(3)
H8_3 H 0.0396 0.5882 0.8479
C17_3 C 0.0742(3) 0.6173(3) 0.7344(3)
C18_3 C 0.1376(3) 0.5433(3) 0.7369(3)
C19_3 C 0.0584(3) 0.6769(3) 0.6659(3)
C22_3 C 0.0286(4) 0.7977(4) 0.5351(4)
H10_3 H 0.0195 0.8380 0.4919
C23_3 C 0.0911(4) 0.7347(4) 0.5313(4)
H11_3 H 0.1225 0.7325 0.4848
C24_3 C 0.1075(3) 0.6757(4) 0.5947(3)
H12_3 H 0.1506 0.6346 0.5916
Co3 Co 0.26107(3) 0.43300(3) 0.84007(3)
Co6 Co 0.23914(4) 0.40977(3) 0.66276(3)
N3_3 N 0.8605(5) 0.0210(4) 0.3328(3)
N4_3 N 0.8566(5) 0.0206(4) 0.1824(3)
C25_3 C 0.7711(7) 0.0659(4) 0.4863(4)
H13_3 H 0.7765 0.0925 0.4327
H14_3 H 0.7200 0.0866 0.5084
H15_3 H 0.8201 0.0806 0.5244
C32_3 C 0.8849(7) 0.0487(6) 0.2593(4)
H19_3 H 0.9261 0.0924 0.2621
H24_3 H 0.9085 0.0043 0.0252
O9_2 O 0.8414(2) 0.0123(2) 0.8303(2)
O10_2 O 0.8351(2) 0.0170(3) 0.6913(2)
O12_2 O 0.6543(3) 0.0287(3) 0.6743(3)
Co1_2 Co 0.73893(3) 0.93300(3) 0.65993(3)
Co2 Co 0.76086(4) 0.90977(3) 0.83724(3)
O1_3 O 0.8568(2) 0.8268(2) 0.8219(2)
O2_3 O 0.8296(2) 0.8330(2) 0.6840(2)
O5_3 O 0.6488(2) 0.8406(2) 0.6690(2)
O6_3 O 0.6704(2) 0.8171(2) 0.8069(2)
O7_2 O 0.3380(2) 0.4967(2) 0.6909(3)
O8_2 O 0.3457(3) 0.5287(3) 0.8257(3)
N1_3 N 0.7488(3) 0.9160(2) 0.5343(2)
N2_3 N 0.7773(4) 0.9254(3) 0.4036(2)
N5_3 N 0.7618(3) 0.9326(3) 0.0993(2)
C1_3 C 0.6312(3) 0.8040(3) 0.7357(3)
C2_3 C 0.5587(3) 0.7385(3) 0.7322(3)
C3_3 C 0.5532(3) 0.6896(3) 0.8043(3)
H1_3 H 0.5928 0.6985 0.8505
C4_3 C 0.4891(3) 0.6274(3) 0.8087(3)
H2_3 H 0.4865 0.5961 0.8581
C5_3 C 0.4303(3) 0.6115(3) 0.7425(3)
C6_3 C 0.3662(3) 0.5404(3) 0.7530(3)
C7_3 C 0.4318(3) 0.6611(3) 0.6670(3)
C8_3 C 0.4972(3) 0.7249(3) 0.6612(3)
C9_3 C 0.4966(4) 0.7743(5) 0.5859(4)
H3_3 H 0.5381 0.8168 0.5810
C10_3 C 0.4357(5) 0.7598(6) 0.5212(5)
H4_3 H 0.4372 0.7911 0.4716
C11_3 C 0.3708(6) 0.6988(7) 0.5280(5)
H5_3 H 0.3284 0.6918 0.4837
C12_3 C 0.3687(4) 0.6508(5) 0.5964(4)
H6_3 H 0.3255 0.6096 0.5988
C13_3 C 0.8724(3) 0.8071(3) 0.7488(3)
C14_3 C 0.9455(3) 0.7454(3) 0.7407(3)
C15_3 C 0.9652(3) 0.6893(4) 0.8058(3)
H7_3 H 0.9358 0.6935 0.8535
C20_3 C 0.9927(3) 0.7414(3) 0.6693(3)
C21_3 C 0.9802(3) 0.8015(3) 0.6017(3)
H9_3 H 0.9383 0.8441 0.6028
C26_3 C 0.7662(4) 0.9695(3) 0.4761(3)
C27_3 C 0.7494(3) 0.8339(3) 0.4994(3)
H16_3 H 0.7412 0.7824 0.5280
C28_3 C 0.7633(4) 0.8395(3) 0.4187(3)
H17_3 H 0.7635 0.7940 0.3805
C29_3 C 0.8038(4) 0.9574(4) 0.3273(3)
C30_3 C 0.7661(4) 0.9234(4) 0.2511(3)
H18_3 H 0.7231 0.8816 0.2480
C31_3 C 0.7989(4) 0.9579(4) 0.1809(3)
C33_3 C 0.6793(4) 0.9086(5) 0.0783(4)
H20_3 H 0.6369 0.9019 0.1148
C35_3 C 0.8043(4) 0.9291(3) 0.0262(3)
C36_3 C 0.8961(4) 0.9433(5) 0.0203(4)
H22_3 H 0.9286 0.9124 0.0648
O11_2 O 0.6620(2) 0.9967(2) 0.8091(3)
N7_2 N 0.7500(3) 0.9080(3) 0.9636(2)
C34_3 C 0.6706(4) 0.8968(5) 0.9968(3)
H21_3 H 0.6194 0.8830 0.9654
H23_3 H 0.9112 0.9224 0.9671
N2_4 N 0.2227(4) 0.4254(3) 0.0964(2)
N3_4 N 0.1395(5) 0.5210(4) 0.1672(3)
N4_4 N 0.1434(5) 0.5206(4) 0.3176(3)
N5_4 N 0.2382(3) 0.4326(3) 0.4007(2)
N6_2 N 0.2500(3) 0.4080(3) 0.5364(2)
H4_4 H 0.5628 0.2911 0.0284
H5_4 H 0.6716 0.1918 0.0163
C25_4 C 0.2289(7) 0.5659(4) 0.0137(4)
H13_4 H 0.2235 0.5925 0.0673
C26_4 C 0.2338(4) 0.4695(3) 0.0239(3)
C27_4 C 0.2506(3) 0.3339(3) 0.0006(3)
C28_4 C 0.2367(4) 0.3395(3) 0.0813(3)
H17_4 H 0.2365 0.2940 0.1195
C29_4 C 0.1962(4) 0.4574(4) 0.1727(3)
C30_4 C 0.2339(4) 0.4234(4) 0.2489(3)
H18_4 H 0.2769 0.3816 0.2520
C31_4 C 0.2011(4) 0.4579(4) 0.3191(3)
C32_4 C 0.1151(7) 0.5487(6) 0.2407(4)
H19_4 H 0.0739 0.5924 0.2379
C33_4 C 0.3207(4) 0.4086(5) 0.4217(4)
H20_4 H 0.3631 0.4019 0.3852
C34_4 C 0.3294(4) 0.3968(5) 0.5032(3)
H21_4 H 0.3806 0.3830 0.5346
C35_4 C 0.1957(4) 0.4291(3) 0.4738(3)
C36_4 C 0.1039(4) 0.4433(5) 0.4797(4)
H22_4 H 0.0714 0.4124 0.4352
H23_4 H 0.0888 0.4224 0.5329
H24_4 H 0.0915 0.5043 0.4748
O1_4 O 0.1432(2) 0.3268(2) 0.6781(2)
O2_4 O 0.1704(2) 0.3330(2) 0.8160(2)
O5_4 O 0.3512(2) 0.3406(2) 0.8310(2)
O6_4 O 0.3296(2) 0.3171(2) 0.6931(2)
N1_4 N 0.2512(3) 0.4160(2) 0.9657(2)
C1_4 C 0.3688(3) 0.3040(3) 0.7643(3)
C2_4 C 0.4413(3) 0.2385(3) 0.7678(3)
C3_4 C 0.4468(3) 0.1896(3) 0.6957(3)
H1_4 H 0.4072 0.1985 0.6495
C4_4 C 0.5109(3) 0.1274(3) 0.6913(3)
H2_4 H 0.5135 0.0961 0.6419
C5_4 C 0.5697(3) 0.1115(3) 0.7575(3)
C6_4 C 0.6338(3) 0.0404(3) 0.7470(3)
C7_4 C 0.5682(3) 0.1611(3) 0.8330(3)
C8_4 C 0.5028(3) 0.2249(3) 0.8388(3)
C9_4 C 0.5034(4) 0.2743(5) 0.9141(4)
H3_4 H 0.4619 0.3168 0.9190
C10_4 C 0.5643(5) 0.2598(6) 0.9788(5)
C11_4 C 0.6292(6) 0.1988(7) 0.9720(5)
C12_4 C 0.6313(4) 0.1508(5) 0.9036(4)
H6_4 H 0.6745 0.1096 0.9012
C13_4 C 0.1276(3) 0.3071(3) 0.7512(3)
C14_4 C 0.0545(3) 0.2454(3) 0.7593(3)
C15_4 C 0.0348(3) 0.1893(4) 0.6942(3)
H7_4 H 0.0642 0.1935 0.6465
C20_4 C 0.0073(3) 0.2414(3) 0.8307(3)
C21_4 C 0.0198(3) 0.3015(3) 0.8983(3)
H9_4 H 0.0617 0.3441 0.8972
H14_4 H 0.2800 0.5866 0.9916
H15_4 H 0.1799 0.5806 0.9756
H16_4 H 0.2588 0.2824 0.9720
C16_4 C 0.9716(3) 0.1258(4) 0.6974(3)
H8_4 H 0.9604 0.0882 0.6521
C17_4 C 0.9258(3) 0.1173(3) 0.7656(3)
C18_4 C 0.8624(3) 0.0433(3) 0.7631(3)
C19_4 C 0.9416(3) 0.1769(3) 0.8341(3)
C22_4 C 0.9714(4) 0.2977(4) 0.9649(4)
C23_4 C 0.9089(4) 0.2347(4) 0.9687(4)
C24_4 C 0.8925(3) 0.1757(4) 0.9053(3)
H12_4 H 0.8494 0.1346 0.9084
H10_4 H 0.9805 0.3380 0.0081
H11_4 H 0.8775 0.2325 0.0152
loop_
_geom_bond_atom_site_label_1
_geom_bond_atom_site_label_2
_geom_bond_site_symmetry_1
_geom_bond_site_symmetry_2
N6 C34 1_555 1_555
H21 C34 1_555 1_555
Co5 N6 1_555 1_555
Co1 Co5 1_555 1_555
Co5 O1 1_555 1_555
O1 C13 1_555 1_555
O2 Co1 1_555 1_555
O5 Co1 1_555 1_555
O6 Co5 1_555 1_555
O7 C6 1_555 1_555
O8 C6 1_555 1_555
N1 Co1 1_555 1_555
N2 C26 1_555 1_555
N5 C31 1_555 1_555
C1 O5 1_555 1_555
C2 C1 1_555 1_555
C3 C2 1_555 1_555
H1 C3 1_555 1_555
C4 C3 1_555 1_555
H2 C4 1_555 1_555
C5 C4 1_555 1_555
C6 C5 1_555 1_555
C7 C5 1_555 1_555
C8 C2 1_555 1_555
C9 C8 1_555 1_555
H3 C9 1_555 1_555
C10 C9 1_555 1_555
H4 C10 1_555 1_555
C11 C10 1_555 1_555
H5 C11 1_555 1_555
C12 C7 1_555 1_555
H6 C12 1_555 1_555
C13 O2 1_555 1_555
C14 C13 1_555 1_555
C15 C14 1_555 1_555
H7 C15 1_555 1_555
C20 C14 1_555 1_555
C21 C20 1_555 1_555
H9 C21 1_555 1_555
C26 N1 1_555 1_555
C27 N1 1_555 1_555
H16 C27 1_555 1_555
C28 N2 1_555 1_555
H17 C28 1_555 1_555
C29 N2 1_555 1_555
C30 C29 1_555 1_555
H18 C30 1_555 1_555
C31 C30 1_555 1_555
C33 N5 1_555 1_555
H20 C33 1_555 1_555
C35 N5 1_555 1_555
C36 C35 1_555 1_555
H22 C36 1_555 1_555
Co4 O8 1_555 1_555
Co7 O7 1_555 1_555
O11 Co5 1_555 1_555
O6 C1 1_555 1_555
C7 C8 1_555 1_555
C11 C12 1_555 1_555
C27 C28 1_555 1_555
Co4 Co7 1_555 1_555
C25 H13 1_555 1_555
H14 C25 1_555 1_555
H15 C25 1_555 1_555
C32 N3 1_555 1_555
H19 C32 1_555 1_555
N4 C32 1_555 1_555
O3 C18 1_555 1_555
O4 C18 1_555 1_555
H8 C16 1_555 1_555
C17 C16 1_555 1_555
C18 C17 1_555 1_555
C19 C17 1_555 1_555
H10 C22 1_555 1_555
C23 C22 1_555 1_555
H11 C23 1_555 1_555
C24 C19 1_555 1_555
H12 C24 1_555 1_555
Co4 O4 1_555 1_555
Co7 O3 1_555 1_555
C23 C24 1_555 1_555
O9 C18_2 1_555 1_555
O10 C18_2 1_555 1_555
H8_2 C16_2 1_555 1_555
C17_2 C16_2 1_555 1_555
C18_2 C17_2 1_555 1_555
C19_2 C17_2 1_555 1_555
C23_2 C22_2 1_555 1_555
C24_2 C19_2 1_555 1_555
H12_2 C24_2 1_555 1_555
C23_2 C24_2 1_555 1_555
Co7 O1_2 1_555 1_555
O1_2 C13_2 1_555 1_555
O2_2 Co4 1_555 1_555
O5_2 Co4 1_555 1_555
O6_2 Co7 1_555 1_555
O12 C6_2 1_555 1_555
N1_2 Co4 1_555 1_555
C1_2 O5_2 1_555 1_555
C2_2 C1_2 1_555 1_555
C3_2 C2_2 1_555 1_555
H1_2 C3_2 1_555 1_555
C4_2 C3_2 1_555 1_555
H2_2 C4_2 1_555 1_555
C5_2 C4_2 1_555 1_555
C6_2 C5_2 1_555 1_555
C7_2 C5_2 1_555 1_555
C8_2 C2_2 1_555 1_555
C9_2 C8_2 1_555 1_555
H3_2 C9_2 1_555 1_555
C10_2 C9_2 1_555 1_555
C11_2 C10_2 1_555 1_555
C12_2 C7_2 1_555 1_555
H6_2 C12_2 1_555 1_555
C13_2 O2_2 1_555 1_555
C14_2 C13_2 1_555 1_555
C15_2 C14_2 1_555 1_555
H7_2 C15_2 1_555 1_555
C20_2 C14_2 1_555 1_555
C21_2 C20_2 1_555 1_555
H9_2 C21_2 1_555 1_555
N7 Co7 1_555 1_555
O6_2 C1_2 1_555 1_555
C7_2 C8_2 1_555 1_555
C11_2 C12_2 1_555 1_555
N2_2 C26_2 1_555 1_555
N3_2 C29_2 1_555 1_555
N4_2 C31_2 1_555 1_555
N5_2 C31_2 1_555 1_555
N7 C34_2 1_555 1_555
C25_2 H13_2 1_555 1_555
C28_2 N2_2 1_555 1_555
H17_2 C28_2 1_555 1_555
C29_2 N2_2 1_555 1_555
C30_2 C29_2 1_555 1_555
H18_2 C30_2 1_555 1_555
C31_2 C30_2 1_555 1_555
C32_2 N3_2 1_555 1_555
H19_2 C32_2 1_555 1_555
C33_2 N5_2 1_555 1_555
H20_2 C33_2 1_555 1_555
C34_2 C33_2 1_555 1_555
H21_2 C34_2 1_555 1_555
C35_2 N5_2 1_555 1_555
C36_2 C35_2 1_555 1_555
H22_2 C36_2 1_555 1_555
H23_2 C36_2 1_555 1_555
H24_2 C36_2 1_555 1_555
N4_2 C32_2 1_555 1_555
N7 C35_2 1_555 1_555
C25_2 C26_2 1_555 1_555
C27_2 C28_2 1_555 1_555
O3_2 C18_3 1_555 1_555
O4_2 C18_3 1_555 1_555
H8_3 C16_3 1_555 1_555
C17_3 C16_3 1_555 1_555
C18_3 C17_3 1_555 1_555
C19_3 C17_3 1_555 1_555
H10_3 C22_3 1_555 1_555
C23_3 C22_3 1_555 1_555
H11_3 C23_3 1_555 1_555
C24_3 C19_3 1_555 1_555
H12_3 C24_3 1_555 1_555
Co3 O4_2 1_555 1_555
Co6 O3_2 1_555 1_555
C23_3 C24_3 1_555 1_555
Co3 Co6 1_555 1_555
C25_3 H13_3 1_555 1_555
H14_3 C25_3 1_555 1_555
H15_3 C25_3 1_555 1_555
C32_3 N3_3 1_555 1_555
H19_3 C32_3 1_555 1_555
N4_3 C32_3 1_555 1_555
Co1_2 Co2 1_555 1_555
Co2 O1_3 1_555 1_555
O1_3 C13_3 1_555 1_555
O2_3 Co1_2 1_555 1_555
O5_3 Co1_2 1_555 1_555
O6_3 Co2 1_555 1_555
O7_2 C6_3 1_555 1_555
O8_2 C6_3 1_555 1_555
N1_3 Co1_2 1_555 1_555
N2_3 C26_3 1_555 1_555
N5_3 C31_3 1_555 1_555
C1_3 O5_3 1_555 1_555
C2_3 C1_3 1_555 1_555
C3_3 C2_3 1_555 1_555
H1_3 C3_3 1_555 1_555
C4_3 C3_3 1_555 1_555
H2_3 C4_3 1_555 1_555
C5_3 C4_3 1_555 1_555
C6_3 C5_3 1_555 1_555
C7_3 C5_3 1_555 1_555
C8_3 C2_3 1_555 1_555
C9_3 C8_3 1_555 1_555
H3_3 C9_3 1_555 1_555
C10_3 C9_3 1_555 1_555
H4_3 C10_3 1_555 1_555
C11_3 C10_3 1_555 1_555
H5_3 C11_3 1_555 1_555
C12_3 C7_3 1_555 1_555
H6_3 C12_3 1_555 1_555
C13_3 O2_3 1_555 1_555
C14_3 C13_3 1_555 1_555
C15_3 C14_3 1_555 1_555
H7_3 C15_3 1_555 1_555
C20_3 C14_3 1_555 1_555
C21_3 C20_3 1_555 1_555
H9_3 C21_3 1_555 1_555
C26_3 N1_3 1_555 1_555
C27_3 N1_3 1_555 1_555
H16_3 C27_3 1_555 1_555
C28_3 N2_3 1_555 1_555
H17_3 C28_3 1_555 1_555
C29_3 N2_3 1_555 1_555
C30_3 C29_3 1_555 1_555
H18_3 C30_3 1_555 1_555
C31_3 C30_3 1_555 1_555
C33_3 N5_3 1_555 1_555
H20_3 C33_3 1_555 1_555
C35_3 N5_3 1_555 1_555
C36_3 C35_3 1_555 1_555
H22_3 C36_3 1_555 1_555
Co3 O8_2 1_555 1_555
Co6 O7_2 1_555 1_555
O11_2 Co2 1_555 1_555
N7_2 Co2 1_555 1_555
O6_3 C1_3 1_555 1_555
C7_3 C8_3 1_555 1_555
C11_3 C12_3 1_555 1_555
C27_3 C28_3 1_555 1_555
N7_2 C34_3 1_555 1_555
H21_3 C34_3 1_555 1_555
N2_4 C26_4 1_555 1_555
N3_4 C29_4 1_555 1_555
N4_4 C31_4 1_555 1_555
N5_4 C31_4 1_555 1_555
N6_2 C34_4 1_555 1_555
C25_4 H13_4 1_555 1_555
C28_4 N2_4 1_555 1_555
H17_4 C28_4 1_555 1_555
C29_4 N2_4 1_555 1_555
C30_4 C29_4 1_555 1_555
H18_4 C30_4 1_555 1_555
C31_4 C30_4 1_555 1_555
C32_4 N3_4 1_555 1_555
H19_4 C32_4 1_555 1_555
C33_4 N5_4 1_555 1_555
H20_4 C33_4 1_555 1_555
C34_4 C33_4 1_555 1_555
H21_4 C34_4 1_555 1_555
C35_4 N5_4 1_555 1_555
C36_4 C35_4 1_555 1_555
H22_4 C36_4 1_555 1_555
H23_4 C36_4 1_555 1_555
H24_4 C36_4 1_555 1_555
Co6 N6_2 1_555 1_555
N4_4 C32_4 1_555 1_555
N6_2 C35_4 1_555 1_555
C25_4 C26_4 1_555 1_555
C27_4 C28_4 1_555 1_555
Co6 O1_4 1_555 1_555
O1_4 C13_4 1_555 1_555
O2_4 Co3 1_555 1_555
O5_4 Co3 1_555 1_555
O6_4 Co6 1_555 1_555
O12_2 C6_4 1_555 1_555
N1_4 Co3 1_555 1_555
C1_4 O5_4 1_555 1_555
C2_4 C1_4 1_555 1_555
C3_4 C2_4 1_555 1_555
H1_4 C3_4 1_555 1_555
C4_4 C3_4 1_555 1_555
H2_4 C4_4 1_555 1_555
C5_4 C4_4 1_555 1_555
C6_4 C5_4 1_555 1_555
C7_4 C5_4 1_555 1_555
C8_4 C2_4 1_555 1_555
C9_4 C8_4 1_555 1_555
H3_4 C9_4 1_555 1_555
C10_4 C9_4 1_555 1_555
C11_4 C10_4 1_555 1_555
C12_4 C7_4 1_555 1_555
H6_4 C12_4 1_555 1_555
C13_4 O2_4 1_555 1_555
C14_4 C13_4 1_555 1_555
C15_4 C14_4 1_555 1_555
H7_4 C15_4 1_555 1_555
C20_4 C14_4 1_555 1_555
C21_4 C20_4 1_555 1_555
H9_4 C21_4 1_555 1_555
O6_4 C1_4 1_555 1_555
C7_4 C8_4 1_555 1_555
C11_4 C12_4 1_555 1_555
O9_2 C18_4 1_555 1_555
O10_2 C18_4 1_555 1_555
H8_4 C16_4 1_555 1_555
C17_4 C16_4 1_555 1_555
C18_4 C17_4 1_555 1_555
C19_4 C17_4 1_555 1_555
C23_4 C22_4 1_555 1_555
C24_4 C19_4 1_555 1_555
H12_4 C24_4 1_555 1_555
C23_4 C24_4 1_555 1_555

#END
