
###############################################################################
#
# This file contains modified crystal structure data generated from the
# MOF subset of the Cambridge Structural Database (CSD) v543 
# hosted by the Cambridge Crystallographic Data Centre (CCDC).
#
# This work is licensed under the Creative Commons
# Attribution-NonCommercial-ShareAlike 4.0 International License.
# To view a copy of this license, visit
# http://creativecommons.org/licenses/by-nc-sa/4.0/
# or send a letter to
# Creative Commons, PO Box 1866, Mountain View, CA 94042, USA.
#
# CIF created using the CSD Python API on 29 September 2022
# The structure has been converted into the P1 space group
# The structure has a 3D framework
# The original CSD entry BECKEC is in the triclinic crystal system
# The framework has been calculated to contain at least 10.0% void space
# The void calculation uses a probe of radius 1.32A, grid spacing 0.4
# H atom positions have been added when not included in the experimental data
#
###############################################################################

data_BECKEC
_chemical_formula_moiety         '(C90 H100 Cu12 N24 O26 S10 Zn6)n'
_symmetry_cell_setting           triclinic
_symmetry_space_group_name_H-M   'P 1'
_symmetry_Int_Tables_number      1
_space_group_name_Hall           'P 1'
loop_
_symmetry_equiv_pos_site_id
_symmetry_equiv_pos_as_xyz
1 x,y,z
_cell_length_a                   11.1148(5)
_cell_length_b                   16.4516(8)
_cell_length_c                   20.8107(10)
_cell_angle_alpha                77.806(4)
_cell_angle_beta                 86.676(4)
_cell_angle_gamma                77.019(4)
_cell_volume                     3624.23
loop_
_atom_site_label
_atom_site_type_symbol
_atom_site_fract_x
_atom_site_fract_y
_atom_site_fract_z
Zn1 Zn 0.01934(8) 0.19552(5) 0.63589(4)
N1 N 0.0424(5) 0.3154(4) 0.5821(3)
H1 H 0.0184 0.3652 0.5913
N6 N 0.0078(6) 0.1658(4) 0.5470(3)
C23 C 0.0613(8) 0.3064(5) 0.5123(4)
H16 H 0.1483 0.2795 0.5067
H20 H 0.0038 0.2357 0.4542
C35 C 0.0348(7) 0.3895(5) 0.4647(4)
H24 H 0.0851 0.4256 0.4745
H26 H 0.0531 0.3801 0.4208
H45 H 0.0553 0.2709 0.6132
H46 H 0.0597 0.1580 0.5780
O14 O 0.1575(5) 0.1432(3) 0.6948(3)
Cu1 Cu 0.63382(8) 0.00352(5) 0.93456(4)
Cu4 Cu 0.37768(8) 0.05274(5) 0.92933(4)
S2 S 0.42097(17) 0.18289(11) 0.91337(9)
O2 O 0.8995(5) 0.0857(3) 0.7128(3)
O4 O 0.8631(5) 0.2275(3) 0.6817(3)
N3 N 0.6313(5) 0.1076(4) 0.8615(3)
O9 O 0.2039(5) 0.0379(3) 0.6382(3)
N5 N 0.3969(5) 0.0105(3) 0.8436(3)
H2 H 0.9698 0.1265 0.5445
C2 C 0.3114(6) 0.0217(4) 0.7363(4)
C5 C 0.7234(7) 0.1035(4) 0.8162(4)
H3 H 0.7855 0.0543 0.8216
C6 C 0.7313(6) 0.1674(4) 0.7626(4)
C7 C 0.3151(7) 0.0476(4) 0.7959(4)
H6 H 0.2555 0.0947 0.8028
C8 C 0.5407(7) 0.2461(5) 0.8006(4)
H7 H 0.4776 0.2948 0.7957
C15 C 0.8388(7) 0.1581(5) 0.7162(4)
C16 C 0.5405(6) 0.1784(4) 0.8536(4)
C17 C 0.6360(7) 0.2396(5) 0.7557(4)
H11 H 0.6368 0.2843 0.7199
C28 C 0.9839(7) 0.2471(4) 0.4979(4)
H19 H 0.8970 0.2744 0.4990
C30 C 0.2167(7) 0.0701(5) 0.6856(4)
H25 H 0.9493 0.4164 0.4679
N11 N 0.5911(7) 0.5793(5) 0.9866(4)
H27 H 0.5230 0.5797 0.9688
C39 C 0.8455(15) 0.6987(9) 0.9891(9)
H31 H 0.7905 0.7483 0.9996
H32 H 0.8613 0.7079 0.9425
C41 C 0.6576(12) 0.6464(7) 0.9615(8)
H36 H 0.6069 0.7016 0.9649
H37 H 0.6810 0.6471 0.9158
H39 H 0.8367 0.5938 0.9775
S7 S 0.21959(16) 0.01436(11) 0.99077(9)
Zn2 Zn 0.12535(9) 0.13180(6) 0.33519(5)
S5 S 0.66525(17) 0.38997(12) 0.41576(9)
C1 C 0.2847(8) 0.2396(5) 0.3175(5)
O3 O 0.2735(5) 0.0208(3) 0.3669(3)
O5 O 0.0344(5) 0.0899(3) 0.4184(3)
O7 O 0.2115(5) 0.2129(3) 0.3626(3)
N4 N 0.4437(5) 0.3498(3) 0.4170(3)
O8 O 0.2821(6) 0.2344(4) 0.2585(3)
C3 C 0.3808(7) 0.2793(5) 0.3394(4)
N10 N 0.1430(7) 0.0880(4) 0.2490(4)
H5 H 0.2162 0.0714 0.2341
C21 C 0.5770(8) 0.3149(5) 0.3282(4)
H14 H 0.6529 0.3146 0.3068
C27 C 0.3612(7) 0.3127(4) 0.3950(4)
H18 H 0.2882 0.3099 0.4187
C29 C 0.5535(6) 0.3469(4) 0.3853(4)
C36 C 0.4901(7) 0.2839(5) 0.3028(5)
H28 H 0.5029 0.2664 0.2628
C40 C 0.0433(13) 0.1360(7) 0.2035(6)
H34 H 0.0310 0.1023 0.1724
H35 H 0.0638 0.1884 0.1793
H47 H 0.0210 0.1973 0.3103
H48 H 0.1282 0.0766 0.2906
Cu8 Cu 0.37970(8) 0.42757(5) 0.48169(4)
Cu11 Cu 0.56298(8) 0.52736(6) 0.40388(4)
Cu12 Cu 0.61826(8) 0.38845(5) 0.52312(4)
H49 H 0.0840881 0.0872316 0.457237
Cu2 Cu 0.62030(8) 0.57243(5) 0.51831(4)
Cu3 Cu 0.50908(8) 0.11519(5) 0.01074(4)
Zn3 Zn 0.66672(11) 0.49733(7) 0.06938(6)
S3 S 0.26455(17) 0.55054(11) 0.42629(9)
S6 S 0.65618(17) 0.63100(11) 0.41337(9)
O1 O 0.1817(5) 0.9427(3) 0.4477(3)
N2 N 0.4371(6) 0.5435(3) 0.3325(3)
C4 C 0.3628(7) 0.8739(5) 0.3989(4)
O10 O 0.6725(6) 0.3821(4) 0.0570(3)
N7 N 0.6750(6) 0.1431(4) 0.0244(3)
N9 N 0.4307(6) 0.7212(4) 0.4315(3)
C9 C 0.4734(7) 0.8768(5) 0.3642(4)
H8 H 0.4871 0.9285 0.3402
C10 C 0.5631(7) 0.8026(5) 0.3656(4)
H9 H 0.6367 0.8041 0.3421
O11 O 0.3972(9) 0.5281(7) 0.1106(4)
O12 O 0.5813(9) 0.5189(5) 0.1500(3)
C11 C 0.7831(7) 0.0874(5) 0.0224(4)
C12 C 0.4790(8) 0.5378(4) 0.2710(4)
H10 H 0.5626 0.5357 0.2624
C13 C 0.4084(10) 0.5350(6) 0.2210(4)
C14 C 0.2646(7) 0.9515(5) 0.4042(4)
C20 C 0.6761(8) 0.2193(5) 0.0359(4)
H13 H 0.6006 0.2568 0.0385
C22 C 0.8957(8) 0.1091(5) 0.0316(5)
H15 H 0.9704 0.0704 0.0298
C24 C 0.3168(7) 0.5476(5) 0.3454(4)
C26 C 0.5417(6) 0.7257(5) 0.4024(3)
C31 C 0.3470(7) 0.7930(4) 0.4315(4)
H21 H 0.2734 0.7894 0.4545
C32 C 0.7826(9) 0.2470(6) 0.0444(5)
C33 C 0.2351(9) 0.5485(6) 0.2957(5)
H22 H 0.1509 0.5544 0.3043
C34 C 0.8926(8) 0.1874(6) 0.0432(6)
H23 H 0.9662 0.2018 0.0505
C37 C 0.4651(14) 0.5268(7) 0.1543(5)
C38 C 0.2815(11) 0.5408(5) 0.2355(5)
H29 H 0.2289 0.5392 0.2028
H30 H 0.9218 0.6883 0.0119
N12 N 0.8119(12) 0.5564(7) 0.0533(7)
H33 H 0.8741 0.5479 0.0784
C43 C 0.7869(13) 0.6225(9) 0.0099(9)
O13 O 0.8684(8) 0.3512(5) 0.0778(6)
C44 C 0.7714(10) 0.3346(6) 0.0590(6)
Cu6 Cu 0.38174(8) 0.61155(5) 0.47688(4)
H43 H 0.6199 0.5393 0.0193
H44 H 0.7670 0.5192 0.0580
S8 S 0.73545(17) 0.44946(11) 0.57371(9)
S9 S 0.40216(17) 0.10495(11) 0.10673(9)
S11 S 0.33475(17) 0.61003(12) 0.58424(9)
N13 N 0.5563(5) 0.6502(3) 0.5830(3)
S4 S 0.59784(17) 0.89505(11) 0.89327(9)
C18 C 0.4011(7) 0.9513(4) 0.7281(4)
H12 H 0.4025 0.9306 0.6897
C19 C 0.4848(7) 0.9430(4) 0.8327(4)
C25 C 0.4888(7) 0.9111(5) 0.7755(4)
H17 H 0.5490 0.8639 0.7694
Cu9 Cu 0.49092(8) 0.88481(5) 0.98926(4)
C18_2 C 0.5989(7) 0.0487(4) 0.2719(4)
H12_2 H 0.5975 0.0694 0.3103
C19_2 C 0.5152(7) 0.0570(4) 0.1673(4)
C25_2 C 0.5112(7) 0.0889(5) 0.2245(4)
H17_2 H 0.4510 0.1361 0.2306
Cu5 Cu 0.43702(8) 0.47264(6) 0.59612(4)
Zn3_2 Zn 0.33328(11) 0.50267(7) 0.93062(6)
S6_2 S 0.34382(17) 0.36900(11) 0.58663(9)
O1_2 O 0.8183(5) 0.0573(3) 0.5523(3)
N2_2 N 0.5629(6) 0.4565(3) 0.6675(3)
C4_2 C 0.6372(7) 0.1261(5) 0.6011(4)
O10_2 O 0.3275(6) 0.6179(4) 0.9430(3)
N7_2 N 0.3250(6) 0.8569(4) 0.9756(3)
N9_2 N 0.5693(6) 0.2788(4) 0.5685(3)
C9_2 C 0.5266(7) 0.1232(5) 0.6358(4)
H8_2 H 0.5129 0.0715 0.6598
C10_2 C 0.4369(7) 0.1974(5) 0.6344(4)
H9_2 H 0.3633 0.1959 0.6579
O11_2 O 0.6028(9) 0.4719(7) 0.8894(4)
O12_2 O 0.4187(9) 0.4811(5) 0.8500(3)
C11_2 C 0.2169(7) 0.9126(5) 0.9776(4)
C12_2 C 0.5210(8) 0.4622(4) 0.7290(4)
H10_2 H 0.4374 0.4643 0.7376
C13_2 C 0.5916(10) 0.4650(6) 0.7790(4)
C14_2 C 0.7354(7) 0.0485(5) 0.5958(4)
C20_2 C 0.3239(8) 0.7807(5) 0.9641(4)
H13_2 H 0.3994 0.7432 0.9615
C22_2 C 0.1043(8) 0.8909(5) 0.9684(5)
H15_2 H 0.0296 0.9296 0.9702
C24_2 C 0.6832(7) 0.4524(5) 0.6546(4)
C26_2 C 0.4583(6) 0.2743(5) 0.5976(3)
C31_2 C 0.6530(7) 0.2070(4) 0.5685(4)
H21_2 H 0.7266 0.2106 0.5455
C32_2 C 0.2174(9) 0.7530(6) 0.9556(5)
C33_2 C 0.7649(9) 0.4515(6) 0.7043(5)
H22_2 H 0.8491 0.4456 0.6957
C34_2 C 0.1074(8) 0.8126(6) 0.9568(6)
H23_2 H 0.0338 0.7982 0.9495
C37_2 C 0.5349(14) 0.4732(7) 0.8457(5)
C38_2 C 0.7185(11) 0.4592(5) 0.7645(5)
H29_2 H 0.7711 0.4608 0.7972
H30_2 H 0.0782 0.3117 0.9881
N12_2 N 0.1881(12) 0.4436(7) 0.9467(7)
H33_2 H 0.1259 0.4521 0.9216
C43_2 C 0.2131(13) 0.3775(9) 0.9901(9)
O13_2 O 0.1316(8) 0.6488(5) 0.9222(6)
C44_2 C 0.2286(10) 0.6654(6) 0.9410(6)
H43_2 H 0.3801 0.4607 0.9807
H44_2 H 0.2330 0.4808 0.9420
Zn2_2 Zn 0.87465(9) 0.86820(6) 0.66481(5)
C1_2 C 0.7153(8) 0.7604(5) 0.6825(5)
O3_2 O 0.7265(5) 0.9792(3) 0.6331(3)
O5_2 O 0.9656(5) 0.9101(3) 0.5816(3)
O7_2 O 0.7885(5) 0.7871(3) 0.6374(3)
O8_2 O 0.7179(6) 0.7656(4) 0.7415(3)
C3_2 C 0.6192(7) 0.7207(5) 0.6606(4)
N10_2 N 0.8570(7) 0.9120(4) 0.7510(4)
H5_2 H 0.7838 0.9286 0.7659
C21_2 C 0.4230(8) 0.6851(5) 0.6718(4)
H14_2 H 0.3471 0.6854 0.6932
C27_2 C 0.6388(7) 0.6873(4) 0.6050(4)
H18_2 H 0.7118 0.6901 0.5813
C29_2 C 0.4465(6) 0.6531(4) 0.6147(4)
C36_2 C 0.5099(7) 0.7161(5) 0.6972(5)
H28_2 H 0.4971 0.7336 0.7372
C40_2 C 0.9567(13) 0.8640(7) 0.7965(6)
H34_2 H 0.9690 0.8977 0.8276
H35_2 H 0.9362 0.8116 0.8207
H47_2 H 0.9790 0.8027 0.6897
H48_2 H 0.8718 0.9234 0.7094
H49_2 H 0.915912 0.912768 0.542763
S1 S 0.78041(16) 0.98564(11) 0.00923(9)
Cu10 Cu 0.62232(8) 0.94726(5) 0.07067(4)
Cu1_2 Cu 0.36618(8) 0.99648(5) 0.06544(4)
S2_2 S 0.57903(17) 0.81711(11) 0.08663(9)
O2_2 O 0.1005(5) 0.9143(3) 0.2872(3)
O4_2 O 0.1369(5) 0.7725(3) 0.3183(3)
O6 O 0.8425(5) 0.8568(3) 0.3052(3)
N3_2 N 0.3687(5) 0.8924(4) 0.1385(3)
O9_2 O 0.7961(5) 0.9621(3) 0.3618(3)
N5_2 N 0.6031(5) 0.9895(3) 0.1564(3)
H2_2 H 0.0302 0.8735 0.4555
C2_2 C 0.6886(6) 0.9783(4) 0.2637(4)
C5_2 C 0.2766(7) 0.8965(4) 0.1838(4)
H3_2 H 0.2145 0.9457 0.1784
C6_2 C 0.2687(6) 0.8326(4) 0.2374(4)
C7_2 C 0.6849(7) 0.9524(4) 0.2041(4)
H6_2 H 0.7445 0.9053 0.1972
C8_2 C 0.4593(7) 0.7539(5) 0.1994(4)
H7_2 H 0.5224 0.7052 0.2043
C15_2 C 0.1612(7) 0.8419(5) 0.2838(4)
C16_2 C 0.4595(6) 0.8216(4) 0.1464(4)
C17_2 C 0.3640(7) 0.7604(5) 0.2443(4)
H11_2 H 0.3632 0.7157 0.2801
C28_2 C 0.0161(7) 0.7529(4) 0.5021(4)
H19_2 H 0.1030 0.7256 0.5010
C30_2 C 0.7833(7) 0.9299(5) 0.3144(4)
H25_2 H 0.0507 0.5836 0.5321
N11_2 N 0.4089(7) 0.4207(5) 0.0134(4)
H27_2 H 0.4770 0.4203 0.0312
C39_2 C 0.1545(15) 0.3013(9) 0.0109(9)
H31_2 H 0.2095 0.2517 0.0004
H32_2 H 0.1387 0.2921 0.0575
C41_2 C 0.3424(12) 0.3536(7) 0.0385(8)
H36_2 H 0.3931 0.2984 0.0351
H37_2 H 0.3190 0.3529 0.0842
H39_2 H 0.1633 0.4062 0.0225
Zn4 Zn 0.98066(8) 0.80448(5) 0.36411(4)
N1_2 N 0.9576(5) 0.6846(4) 0.4179(3)
H1_2 H 0.9816 0.6348 0.4087
N6_2 N 0.9922(6) 0.8342(4) 0.4530(3)
C23_2 C 0.9387(8) 0.6936(5) 0.4877(4)
H16_2 H 0.8517 0.7205 0.4933
H20_2 H 0.9962 0.7643 0.5458
C35_2 C 0.9652(7) 0.6105(5) 0.5353(4)
H24_2 H 0.9149 0.5744 0.5255
H26_2 H 0.9469 0.6199 0.5792
H45_2 H 0.9447 0.7291 0.3868
H46_2 H 0.9403 0.8420 0.4220
N8 N 0.9503(8) 0.2075(6) 0.2920(5)
H4 H 0.8916 0.2474 0.3012
C42 C 0.9289(14) 0.1554(11) 0.2440(8)
H38 H 0.9287 0.0999 0.2727
C45 C 0.8047(15) 0.1795(15) 0.2168(9)
H40 H 0.7450 0.1827 0.2519
H41 H 0.7933 0.1376 0.1932
H42 H 0.7943 0.2340 0.1874
H50 H 0.953296 0.129687 0.420615
N8_2 N 0.0497(8) 0.7925(6) 0.7080(5)
H4_2 H 0.1084 0.7526 0.6988
C42_2 C 0.0711(14) 0.8446(11) 0.7560(8)
H38_2 H 0.0713 0.9001 0.7273
C45_2 C 0.1953(15) 0.8205(15) 0.7832(9)
H40_2 H 0.2550 0.8173 0.7481
H41_2 H 0.2067 0.8624 0.8068
H42_2 H 0.2057 0.7660 0.8126
H50_2 H 0.0467044 0.870313 0.579385
loop_
_geom_bond_atom_site_label_1
_geom_bond_atom_site_label_2
_geom_bond_site_symmetry_1
_geom_bond_site_symmetry_2
N1 Zn1 1_555 1_555
H1 N1 1_555 1_555
N6 Zn1 1_555 1_555
C23 N1 1_555 1_555
H16 C23 1_555 1_555
C35 C23 1_555 1_555
H24 C35 1_555 1_555
H26 C35 1_555 1_555
H45 N1 1_555 1_555
H46 N6 1_555 1_555
O14 Zn1 1_555 1_555
Cu4 S2 1_555 1_555
S2 C16 1_555 1_555
O2 C15 1_555 1_555
O4 C15 1_555 1_555
O14 C30 1_555 1_555
N3 Cu1 1_555 1_555
O9 C30 1_555 1_555
N5 Cu4 1_555 1_555
C2 C7 1_555 1_555
C5 N3 1_555 1_555
H3 C5 1_555 1_555
C6 C5 1_555 1_555
C7 N5 1_555 1_555
H6 C7 1_555 1_555
C8 H7 1_555 1_555
C15 C6 1_555 1_555
C16 N3 1_555 1_555
C17 C6 1_555 1_555
H11 C17 1_555 1_555
H19 C28 1_555 1_555
C30 C2 1_555 1_555
H27 N11 1_555 1_555
H31 C39 1_555 1_555
H32 C39 1_555 1_555
C41 N11 1_555 1_555
H36 C41 1_555 1_555
H37 C41 1_555 1_555
S7 Cu4 1_555 1_555
C8 C16 1_555 1_555
C8 C17 1_555 1_555
Zn2 O3 1_555 1_555
S5 C29 1_555 1_555
C1 O7 1_555 1_555
O5 Zn2 1_555 1_555
O7 Zn2 1_555 1_555
N4 C27 1_555 1_555
O8 C1 1_555 1_555
C3 C1 1_555 1_555
N10 Zn2 1_555 1_555
H5 N10 1_555 1_555
C21 H14 1_555 1_555
C27 C3 1_555 1_555
H18 C27 1_555 1_555
C29 N4 1_555 1_555
C36 C3 1_555 1_555
H28 C36 1_555 1_555
C40 N10 1_555 1_555
H34 C40 1_555 1_555
H35 C40 1_555 1_555
H48 N10 1_555 1_555
Cu8 N4 1_555 1_555
Cu11 S5 1_555 1_555
Cu12 S5 1_555 1_555
C21 C29 1_555 1_555
C21 C36 1_555 1_555
O5 H49 1_555 1_555
Cu2 S6 1_555 1_555
Cu11 S6 1_555 1_555
Zn3 O10 1_555 1_555
S3 C24 1_555 1_555
S6 C26 1_555 1_555
O1 C14 1_555 1_555
N2 Cu11 1_555 1_555
C4 C9 1_555 1_555
O10 C44 1_555 1_555
N7 Cu3 1_555 1_555
N9 C26 1_555 1_555
C9 H8 1_555 1_555
C10 C9 1_555 1_555
H9 C10 1_555 1_555
O11 C37 1_555 1_555
O12 Zn3 1_555 1_555
C11 N7 1_555 1_555
C12 N2 1_555 1_555
H10 C12 1_555 1_555
C13 C12 1_555 1_555
C14 C4 1_555 1_555
C20 N7 1_555 1_555
H13 C20 1_555 1_555
C22 C11 1_555 1_555
H15 C22 1_555 1_555
C24 N2 1_555 1_555
C26 C10 1_555 1_555
C31 C4 1_555 1_555
H21 C31 1_555 1_555
C32 C20 1_555 1_555
C33 C24 1_555 1_555
H22 C33 1_555 1_555
C34 C22 1_555 1_555
H23 C34 1_555 1_555
C37 O12 1_555 1_555
C38 C13 1_555 1_555
H29 C38 1_555 1_555
N12 Zn3 1_555 1_555
H33 N12 1_555 1_555
O13 C44 1_555 1_555
C44 C32 1_555 1_555
Cu6 S3 1_555 1_555
H44 N12 1_555 1_555
Cu8 S3 1_555 1_555
S8 Cu2 1_555 1_555
S9 Cu3 1_555 1_555
S11 Cu6 1_555 1_555
N13 Cu2 1_555 1_555
N9 C31 1_555 1_555
N9 Cu6 1_555 1_555
C13 C37 1_555 1_555
C32 C34 1_555 1_555
C33 C38 1_555 1_555
N12 C43 1_555 1_555
H12 C18 1_555 1_555
C19 S4 1_555 1_555
C25 C18 1_555 1_555
H17 C25 1_555 1_555
Cu9 S4 1_555 1_555
C19 C25 1_555 1_555
H12_2 C18_2 1_555 1_555
C19_2 S9 1_555 1_555
C25_2 C18_2 1_555 1_555
H17_2 C25_2 1_555 1_555
C19_2 C25_2 1_555 1_555
Cu8 S6_2 1_555 1_555
Cu5 S6_2 1_555 1_555
Zn3_2 O10_2 1_555 1_555
S8 C24_2 1_555 1_555
S6_2 C26_2 1_555 1_555
O1_2 C14_2 1_555 1_555
N2_2 Cu5 1_555 1_555
C4_2 C9_2 1_555 1_555
O10_2 C44_2 1_555 1_555
N7_2 Cu9 1_555 1_555
N9_2 C26_2 1_555 1_555
C9_2 H8_2 1_555 1_555
C10_2 C9_2 1_555 1_555
H9_2 C10_2 1_555 1_555
O11_2 C37_2 1_555 1_555
O12_2 Zn3_2 1_555 1_555
C11_2 N7_2 1_555 1_555
C12_2 N2_2 1_555 1_555
H10_2 C12_2 1_555 1_555
C13_2 C12_2 1_555 1_555
C14_2 C4_2 1_555 1_555
C20_2 N7_2 1_555 1_555
H13_2 C20_2 1_555 1_555
C22_2 C11_2 1_555 1_555
H15_2 C22_2 1_555 1_555
C24_2 N2_2 1_555 1_555
C26_2 C10_2 1_555 1_555
C31_2 C4_2 1_555 1_555
H21_2 C31_2 1_555 1_555
C32_2 C20_2 1_555 1_555
C33_2 C24_2 1_555 1_555
H22_2 C33_2 1_555 1_555
C34_2 C22_2 1_555 1_555
H23_2 C34_2 1_555 1_555
C37_2 O12_2 1_555 1_555
C38_2 C13_2 1_555 1_555
H29_2 C38_2 1_555 1_555
N12_2 Zn3_2 1_555 1_555
H33_2 N12_2 1_555 1_555
O13_2 C44_2 1_555 1_555
C44_2 C32_2 1_555 1_555
Cu12 S8 1_555 1_555
H44_2 N12_2 1_555 1_555
S11 Cu5 1_555 1_555
N9_2 C31_2 1_555 1_555
N9_2 Cu12 1_555 1_555
C13_2 C37_2 1_555 1_555
C32_2 C34_2 1_555 1_555
C33_2 C38_2 1_555 1_555
N12_2 C43_2 1_555 1_555
Zn2_2 O3_2 1_555 1_555
S11 C29_2 1_555 1_555
C1_2 O7_2 1_555 1_555
O5_2 Zn2_2 1_555 1_555
O7_2 Zn2_2 1_555 1_555
N13 C27_2 1_555 1_555
O8_2 C1_2 1_555 1_555
C3_2 C1_2 1_555 1_555
N10_2 Zn2_2 1_555 1_555
H5_2 N10_2 1_555 1_555
C21_2 H14_2 1_555 1_555
C27_2 C3_2 1_555 1_555
H18_2 C27_2 1_555 1_555
C29_2 N13 1_555 1_555
C36_2 C3_2 1_555 1_555
H28_2 C36_2 1_555 1_555
C40_2 N10_2 1_555 1_555
H34_2 C40_2 1_555 1_555
H35_2 C40_2 1_555 1_555
H48_2 N10_2 1_555 1_555
C21_2 C29_2 1_555 1_555
C21_2 C36_2 1_555 1_555
O5_2 H49_2 1_555 1_555
Cu10 S1 1_555 1_555
Cu10 S2_2 1_555 1_555
S2_2 C16_2 1_555 1_555
O2_2 C15_2 1_555 1_555
O4_2 C15_2 1_555 1_555
O6 C30_2 1_555 1_555
N3_2 Cu1_2 1_555 1_555
O9_2 C30_2 1_555 1_555
N5_2 Cu10 1_555 1_555
C2_2 C7_2 1_555 1_555
C5_2 N3_2 1_555 1_555
H3_2 C5_2 1_555 1_555
C6_2 C5_2 1_555 1_555
C7_2 N5_2 1_555 1_555
H6_2 C7_2 1_555 1_555
C8_2 H7_2 1_555 1_555
C15_2 C6_2 1_555 1_555
C16_2 N3_2 1_555 1_555
C17_2 C6_2 1_555 1_555
H11_2 C17_2 1_555 1_555
H19_2 C28_2 1_555 1_555
C30_2 C2_2 1_555 1_555
H27_2 N11_2 1_555 1_555
H31_2 C39_2 1_555 1_555
H32_2 C39_2 1_555 1_555
C41_2 N11_2 1_555 1_555
H36_2 C41_2 1_555 1_555
H37_2 C41_2 1_555 1_555
Zn4 O6 1_555 1_555
C8_2 C16_2 1_555 1_555
C8_2 C17_2 1_555 1_555
N1_2 Zn4 1_555 1_555
H1_2 N1_2 1_555 1_555
N6_2 Zn4 1_555 1_555
C23_2 N1_2 1_555 1_555
H16_2 C23_2 1_555 1_555
C35_2 C23_2 1_555 1_555
H24_2 C35_2 1_555 1_555
H26_2 C35_2 1_555 1_555
H45_2 N1_2 1_555 1_555
H46_2 N6_2 1_555 1_555
H4 N8 1_555 1_555
C42 N8 1_555 1_555
H38 C42 1_555 1_555
C45 C42 1_555 1_555
H40 C45 1_555 1_555
H41 C45 1_555 1_555
H42 C45 1_555 1_555
H4_2 N8_2 1_555 1_555
C42_2 N8_2 1_555 1_555
H38_2 C42_2 1_555 1_555
C45_2 C42_2 1_555 1_555
H40_2 C45_2 1_555 1_555
H41_2 C45_2 1_555 1_555
H42_2 C45_2 1_555 1_555

#END
