
###############################################################################
#
# This file contains modified crystal structure data generated from the
# MOF subset of the Cambridge Structural Database (CSD) v543 
# hosted by the Cambridge Crystallographic Data Centre (CCDC).
#
# This work is licensed under the Creative Commons
# Attribution-NonCommercial-ShareAlike 4.0 International License.
# To view a copy of this license, visit
# http://creativecommons.org/licenses/by-nc-sa/4.0/
# or send a letter to
# Creative Commons, PO Box 1866, Mountain View, CA 94042, USA.
#
# CIF created using the CSD Python API on 29 September 2022
# The structure has been converted into the P1 space group
# The structure has a 3D framework
# The original CSD entry BEDHOJ is in the tetragonal crystal system
# The original CSD entry BEDHOJ is in a Sohncke space group
# The framework has been calculated to contain at least 10.0% void space
# The void calculation uses a probe of radius 1.32A, grid spacing 0.4
#
###############################################################################

data_BEDHOJ
_chemical_formula_moiety         '(C64 H40 N16 Ni5 O16)n'
_symmetry_cell_setting           triclinic
_symmetry_space_group_name_H-M   'P 1'
_symmetry_Int_Tables_number      1
_space_group_name_Hall           'P 1'
loop_
_symmetry_equiv_pos_site_id
_symmetry_equiv_pos_as_xyz
1 x,y,z
_cell_length_a                   15.3384(8)
_cell_length_b                   15.3384(8)
_cell_length_c                   8.1822(10)
_cell_angle_alpha                90
_cell_angle_beta                 90
_cell_angle_gamma                90
_cell_volume                     1925
loop_
_atom_site_label
_atom_site_type_symbol
_atom_site_fract_x
_atom_site_fract_y
_atom_site_fract_z
Ni1 Ni 0.74014(6) 0.74014(6) 0.0000
O1 O 0.7376(8) 0.6036(5) 0.0551(8)
O2 O 0.7455(5) 0.6995(4) 0.2450(9)
N1 N 0.7645(6) 0.3758(5) 0.7034(8)
C1 C 0.7379(7) 0.6121(10) 0.2128(13)
C2 C 0.7489(9) 0.4187(7) 0.5660(12)
C3 C 0.7411(7) 0.5556(7) 0.3341(10)
C4 C 0.7497(8) 0.5720(9) 0.4934(12)
H1 H 0.7535 0.6299 0.5261
C5 C 0.7386(11) 0.4628(9) 0.2901(11)
H2 H 0.7324 0.4469 0.1811
C6 C 0.7451(12) 0.4002(9) 0.4060(12)
H3 H 0.7471 0.3421 0.3734
N2 N 0.7650(10) 0.5076(8) 0.7759(12)
H4 H 0.7670 0.5520 0.8399
C7 C 0.7529(8) 0.5123(9) 0.6054(12)
C8 C 0.7726(10) 0.4262(10) 0.8239(14)
H5 H 0.7826 0.4084 0.9309
Ni2 Ni 0.75986(6) 0.24014(6) 0.7500
N5 N 0.7355(6) 0.8758(5) 0.0466(8)
N3 N 0.6242(5) 0.2355(6) 0.7966(8)
C10 C 0.5813(7) 0.2511(9) 0.9340(12)
H6 H 0.3701 0.2465 0.9739
N6 N 0.4924(8) 0.2350(10) 0.7241(12)
H9 H 0.4480 0.2330 0.6601
C15 C 0.4877(9) 0.2471(8) 0.8946(12)
C16 C 0.5738(10) 0.2274(10) 0.6761(14)
H10 H 0.5916 0.2174 0.5691
O1_2 O 0.8964(5) 0.2376(8) 0.8051(8)
O2_2 O 0.8005(4) 0.2455(5) 0.9950(9)
C1_2 C 0.8879(10) 0.2379(7) 0.9628(13)
O3 O 0.7624(8) 0.1036(5) 0.6949(8)
O4 O 0.7545(5) 0.1995(4) 0.5050(9)
C9 C 0.7621(7) 0.1121(10) 0.5372(13)
C11 C 0.7589(7) 0.0556(7) 0.4159(10)
C12 C 0.7503(8) 0.0720(9) 0.2566(12)
H6_2 H 0.7465 0.1299 0.2239
C15_2 C 0.7471(8) 0.0123(9) 0.1446(12)
C10_2 C 0.7511(9) 0.9187(7) 0.1840(12)
C13 C 0.7614(11) 0.9628(9) 0.4599(11)
H7 H 0.7676 0.9469 0.5689
C14 C 0.7549(12) 0.9002(9) 0.3440(12)
H8 H 0.7529 0.8421 0.3766
C8_2 C 0.9262(10) 0.7274(10) 0.0739(14)
H5_2 H 0.9084 0.7174 0.1809
Ni1_2 Ni 0.74014(6) 0.74014(6) 1.0000
Ni3 Ni 0.24014(6) 0.75986(6) 0.2500
O3_2 O 0.6036(5) 0.7376(8) 0.9449(8)
O4_2 O 0.6995(4) 0.7455(5) 0.7550(9)
N3_2 N 0.3758(5) 0.7645(6) 0.2966(8)
N4 N 0.8758(5) 0.7355(6) 0.9534(8)
C9_2 C 0.6121(10) 0.7379(7) 0.7872(13)
C10_3 C 0.4187(7) 0.7489(9) 0.4340(12)
C11_2 C 0.5556(7) 0.7411(7) 0.6659(10)
C12_2 C 0.5720(9) 0.7497(8) 0.5066(12)
H6_3 H 0.6299 0.7535 0.4739
C13_2 C 0.4628(9) 0.7386(11) 0.7099(11)
H7_2 H 0.4469 0.7324 0.8189
C14_2 C 0.4002(9) 0.7451(12) 0.5940(12)
H8_2 H 0.3421 0.7471 0.6266
N6_2 N 0.5076(8) 0.7650(10) 0.2241(12)
H9_2 H 0.5520 0.7670 0.1601
C15_3 C 0.5123(9) 0.7529(8) 0.3946(12)
C16_2 C 0.4262(10) 0.7726(10) 0.1761(14)
H10_2 H 0.4084 0.7826 0.0691
N1_2 N 0.2355(6) 0.6242(5) 0.2034(8)
C2_2 C 0.2511(9) 0.5813(7) 0.0660(12)
H1_2 H 0.2465 0.3701 0.0261
N2_2 N 0.2350(10) 0.4924(8) 0.2759(12)
H4_2 H 0.2330 0.4480 0.3399
C7_2 C 0.2471(8) 0.4877(9) 0.1054(12)
C8_3 C 0.2274(10) 0.5738(10) 0.3239(14)
H5_3 H 0.2174 0.5916 0.4309
C16_3 C 0.7274(10) 0.9262(10) 0.9261(14)
H10_3 H 0.7174 0.9084 0.8191
O1_3 O 0.1036(5) 0.7624(8) 0.3051(8)
O2_3 O 0.1995(4) 0.7545(5) 0.4950(9)
C1_3 C 0.1121(10) 0.7621(7) 0.4628(13)
C3_2 C 0.0556(7) 0.7589(7) 0.5841(10)
C4_2 C 0.0720(9) 0.7503(8) 0.7434(12)
H1_3 H 0.1299 0.7465 0.7761
C7_3 C 0.0123(9) 0.7471(8) 0.8554(12)
O3_3 O 0.2376(8) 0.8964(5) 0.1949(8)
O4_3 O 0.2455(5) 0.8005(4) 0.0050(9)
C9_3 C 0.2379(7) 0.8879(10) 0.0372(13)
C2_3 C 0.9187(7) 0.7511(9) 0.8160(12)
C5_2 C 0.9628(9) 0.7614(11) 0.5401(11)
H2_2 H 0.9469 0.7676 0.4311
C6_2 C 0.9002(9) 0.7549(12) 0.6560(12)
H3_2 H 0.8421 0.7529 0.6234
Ni1_3 Ni 0.25986(6) 0.25986(6) 0.5000
O1_4 O 0.2624(8) 0.3964(5) 0.5551(8)
O2_4 O 0.2545(5) 0.3005(4) 0.7450(9)
C1_4 C 0.2621(7) 0.3879(10) 0.7128(13)
C3_3 C 0.2589(7) 0.4444(7) 0.8341(10)
C4_3 C 0.2503(8) 0.4280(9) 0.9934(12)
C5_3 C 0.2614(11) 0.5372(9) 0.7901(11)
H2_3 H 0.2676 0.5531 0.6811
C6_3 C 0.2549(12) 0.5998(9) 0.9060(12)
H3_3 H 0.2529 0.6579 0.8734
O3_4 O 0.3964(5) 0.2624(8) 0.4449(8)
O4_4 O 0.3005(4) 0.2545(5) 0.2550(9)
N4_2 N 0.1242(5) 0.2645(6) 0.4534(8)
N5_2 N 0.2645(6) 0.1242(5) 0.5466(8)
C9_4 C 0.3879(10) 0.2621(7) 0.2872(13)
C11_3 C 0.4444(7) 0.2589(7) 0.1659(10)
C12_3 C 0.4280(9) 0.2503(8) 0.0066(12)
C13_3 C 0.5372(9) 0.2614(11) 0.2099(11)
H7_3 H 0.5531 0.2676 0.3189
C14_3 C 0.5998(9) 0.2549(12) 0.0940(12)
H8_3 H 0.6579 0.2529 0.1266
C2_4 C 0.0813(7) 0.2489(9) 0.3160(12)
C5_4 C 0.0372(9) 0.2386(11) 0.0401(11)
C6_4 C 0.0998(9) 0.2451(12) 0.1560(12)
H3_4 H 0.1579 0.2471 0.1234
C8_4 C 0.0738(10) 0.2726(10) 0.5739(14)
H5_4 H 0.0916 0.2826 0.6809
C10_4 C 0.2489(9) 0.0813(7) 0.6840(12)
C13_4 C 0.2386(11) 0.0372(9) 0.9599(11)
C14_4 C 0.2451(12) 0.0998(9) 0.8440(12)
H8_4 H 0.2471 0.1579 0.8766
C16_4 C 0.2726(10) 0.0738(10) 0.4261(14)
H10_4 H 0.2826 0.0916 0.3191
H2_4 H 0.0531 0.2324 0.9311
C3_4 C 0.9444(7) 0.2411(7) 0.0841(10)
C4_4 C 0.9280(9) 0.2497(8) 0.2434(12)
H1_4 H 0.8701 0.2535 0.2761
N2_3 N 0.9924(8) 0.2650(10) 0.5259(12)
H4_3 H 0.9480 0.2670 0.5899
C7_4 C 0.9877(9) 0.2529(8) 0.3554(12)
N6_3 N 0.7350(10) 0.0076(8) 0.9741(12)
H9_3 H 0.7330 0.0520 0.9101
H7_4 H 0.2324 0.0531 0.0689
N2_4 N 0.0076(8) 0.7350(10) 0.0259(12)
H4_4 H 0.0520 0.7330 0.0899
C11_4 C 0.2411(7) 0.9444(7) 0.9159(10)
C12_4 C 0.2497(8) 0.9280(9) 0.7566(12)
H6_4 H 0.2535 0.8701 0.7239
N6_4 N 0.2650(10) 0.9924(8) 0.4741(12)
H9_4 H 0.2670 0.9480 0.4101
C15_4 C 0.2529(8) 0.9877(9) 0.6446(12)
loop_
_geom_bond_atom_site_label_1
_geom_bond_atom_site_label_2
_geom_bond_site_symmetry_1
_geom_bond_site_symmetry_2
Ni1 O1 1_555 1_555
O1 C1 1_555 1_555
O2 Ni1 1_555 1_555
N1 C2 1_555 1_555
C1 O2 1_555 1_555
C2 C6 1_555 1_555
C3 C1 1_555 1_555
C4 C3 1_555 1_555
H1 C4 1_555 1_555
C5 C3 1_555 1_555
H2 C5 1_555 1_555
C6 C5 1_555 1_555
H3 C6 1_555 1_555
N2 H4 1_555 1_555
C7 C2 1_555 1_555
C8 N1 1_555 1_555
H5 C8 1_555 1_555
Ni2 N1 1_555 1_555
N5 Ni1 1_555 1_555
C4 C7 1_555 1_555
N2 C7 1_555 1_555
N2 C8 1_555 1_555
Ni2 N3 1_555 1_555
N3 C10 1_555 1_555
N6 H9 1_555 1_555
C15 C10 1_555 1_555
C16 N3 1_555 1_555
H10 C16 1_555 1_555
N6 C15 1_555 1_555
N6 C16 1_555 1_555
Ni2 O1_2 1_555 1_555
O1_2 C1_2 1_555 1_555
O2_2 Ni2 1_555 1_555
C1_2 O2_2 1_555 1_555
O3 Ni2 1_555 1_555
O4 Ni2 1_555 1_555
C9 O3 1_555 1_555
C11 C9 1_555 1_555
C12 C11 1_555 1_555
H6_2 C12 1_555 1_555
O4 C9 1_555 1_555
C12 C15_2 1_555 1_555
N5 C10_2 1_555 1_555
C10_2 C14 1_555 1_555
H7 C13 1_555 1_555
C14 C13 1_555 1_555
H8 C14 1_555 1_555
H5_2 C8_2 1_555 1_555
Ni3 N3_2 1_555 1_555
O3_2 Ni1_2 1_555 1_555
O4_2 Ni1_2 1_555 1_555
N3_2 C10_3 1_555 1_555
N4 Ni1_2 1_555 1_555
C9_2 O3_2 1_555 1_555
C10_3 C14_2 1_555 1_555
C11_2 C9_2 1_555 1_555
C12_2 C11_2 1_555 1_555
H6_3 C12_2 1_555 1_555
C13_2 C11_2 1_555 1_555
H7_2 C13_2 1_555 1_555
C14_2 C13_2 1_555 1_555
H8_2 C14_2 1_555 1_555
N6_2 H9_2 1_555 1_555
C15_3 C10_3 1_555 1_555
C16_2 N3_2 1_555 1_555
H10_2 C16_2 1_555 1_555
O4_2 C9_2 1_555 1_555
C12_2 C15_3 1_555 1_555
N6_2 C15_3 1_555 1_555
N6_2 C16_2 1_555 1_555
N1_2 C2_2 1_555 1_555
N2_2 H4_2 1_555 1_555
C7_2 C2_2 1_555 1_555
C8_3 N1_2 1_555 1_555
H5_3 C8_3 1_555 1_555
Ni3 N1_2 1_555 1_555
N2_2 C7_2 1_555 1_555
N2_2 C8_3 1_555 1_555
H10_3 C16_3 1_555 1_555
Ni3 O1_3 1_555 1_555
O1_3 C1_3 1_555 1_555
O2_3 Ni3 1_555 1_555
C1_3 O2_3 1_555 1_555
C3_2 C1_3 1_555 1_555
C4_2 C3_2 1_555 1_555
H1_3 C4_2 1_555 1_555
O3_3 Ni3 1_555 1_555
O4_3 Ni3 1_555 1_555
C9_3 O3_3 1_555 1_555
C4_2 C7_3 1_555 1_555
O4_3 C9_3 1_555 1_555
N4 C2_3 1_555 1_555
C2_3 C6_2 1_555 1_555
H2_2 C5_2 1_555 1_555
C6_2 C5_2 1_555 1_555
H3_2 C6_2 1_555 1_555
Ni1_3 O1_4 1_555 1_555
O1_4 C1_4 1_555 1_555
O2_4 Ni1_3 1_555 1_555
C1_4 O2_4 1_555 1_555
C3_3 C1_4 1_555 1_555
C4_3 C3_3 1_555 1_555
C5_3 C3_3 1_555 1_555
H2_3 C5_3 1_555 1_555
C6_3 C5_3 1_555 1_555
H3_3 C6_3 1_555 1_555
O3_4 Ni1_3 1_555 1_555
O4_4 Ni1_3 1_555 1_555
N4_2 Ni1_3 1_555 1_555
N5_2 Ni1_3 1_555 1_555
C9_4 O3_4 1_555 1_555
C11_3 C9_4 1_555 1_555
C12_3 C11_3 1_555 1_555
C13_3 C11_3 1_555 1_555
H7_3 C13_3 1_555 1_555
C14_3 C13_3 1_555 1_555
H8_3 C14_3 1_555 1_555
O4_4 C9_4 1_555 1_555
N4_2 C2_4 1_555 1_555
C2_4 C6_4 1_555 1_555
C6_4 C5_4 1_555 1_555
H3_4 C6_4 1_555 1_555
C8_4 N4_2 1_555 1_555
H5_4 C8_4 1_555 1_555
N5_2 C10_4 1_555 1_555
C10_4 C14_4 1_555 1_555
C14_4 C13_4 1_555 1_555
H8_4 C14_4 1_555 1_555
C16_4 N5_2 1_555 1_555
H10_4 C16_4 1_555 1_555
C4_4 C3_4 1_555 1_555
H1_4 C4_4 1_555 1_555
N2_3 H4_3 1_555 1_555
C4_4 C7_4 1_555 1_555
N2_3 C7_4 1_555 1_555
N6_3 H9_3 1_555 1_555
N2_4 H4_4 1_555 1_555
C12_4 C11_4 1_555 1_555
H6_4 C12_4 1_555 1_555
N6_4 H9_4 1_555 1_555
C12_4 C15_4 1_555 1_555
N6_4 C15_4 1_555 1_555

#END
