
###############################################################################
#
# This file contains modified crystal structure data generated from the
# MOF subset of the Cambridge Structural Database (CSD) v543 
# hosted by the Cambridge Crystallographic Data Centre (CCDC).
#
# This work is licensed under the Creative Commons
# Attribution-NonCommercial-ShareAlike 4.0 International License.
# To view a copy of this license, visit
# http://creativecommons.org/licenses/by-nc-sa/4.0/
# or send a letter to
# Creative Commons, PO Box 1866, Mountain View, CA 94042, USA.
#
# CIF created using the CSD Python API on 29 September 2022
# The structure has been converted into the P1 space group
# The structure has a 3D framework
# The original CSD entry BEDTAI is in the monoclinic crystal system
# The framework has been calculated to contain at least 10.0% void space
# The void calculation uses a probe of radius 1.32A, grid spacing 0.4
#
###############################################################################

data_BEDTAI
_chemical_formula_moiety         '(C136 H104 Co10 N16 O45)n'
_symmetry_cell_setting           triclinic
_symmetry_space_group_name_H-M   'P 1'
_symmetry_Int_Tables_number      1
_space_group_name_Hall           'P 1'
loop_
_symmetry_equiv_pos_site_id
_symmetry_equiv_pos_as_xyz
1 x,y,z
_cell_length_a                   35.260(3)
_cell_length_b                   9.5474(7)
_cell_length_c                   18.4395(14)
_cell_angle_alpha                90
_cell_angle_beta                 115.0910(10)
_cell_angle_gamma                90
_cell_volume                     5621.73
loop_
_atom_site_label
_atom_site_type_symbol
_atom_site_fract_x
_atom_site_fract_y
_atom_site_fract_z
Co7 Co 0.2500 0.7500 -0.0000
Co1 Co 0.2500 0.2500 0.5000
Co2 Co 0.148110(10) 0.20502(4) 0.41863(2)
N1 N 0.08855(7) 0.1357(3) 0.36083(15)
N2 N 0.07183(8) 0.0606(4) 0.40220(18)
H1 H 0.0856 0.0344 0.4511
C1 C 0.18547(9) 0.3278(3) 0.57099(18)
C2 C 0.18480(9) 0.3937(3) 0.64401(18)
C3 C 0.22194(9) 0.4112(4) 0.7124(2)
H2 H 0.2470 0.3793 0.7128
C4 C 0.22220(9) 0.4752(4) 0.7795(2)
H3 H 0.2473 0.4860 0.8247
C5 C 0.18554(9) 0.5233(3) 0.78016(18)
C6 C 0.14831(9) 0.5039(4) 0.7118(2)
H4 H 0.1233 0.5359 0.7112
C7 C 0.14804(9) 0.4390(4) 0.6459(2)
H5 H 0.1227 0.4250 0.6015
C8 C 0.18623(8) 0.6007(3) 0.85081(18)
C13 C 0.05743(8) 0.1542(4) 0.28869(19)
C14 C 0.02070(8) 0.0909(4) 0.2845(2)
C15 C 0.03138(10) 0.0320(5) 0.3580(2)
C17 C 0.06271(12) 0.2337(6) 0.2253(3)
H11 H 0.0581 0.3314 0.2308
H12 H 0.0429 0.2011 0.1739
H13 H 0.0906 0.2204 0.2299
O1 O 0.15030(6) 0.2958(2) 0.51550(13)
O2 O 0.21992(7) 0.3112(2) 0.56921(14)
O3 O 0.15216(6) 0.6550(2) 0.84374(13)
O4 O 0.22012(6) 0.6095(2) 0.91111(12)
O5 O 0.20051(5) 0.09572(19) 0.43837(12)
H17 H 0.0083 0.0120 0.0879
Co7_2 Co 0.2500 0.7500 1.0000
Co9 Co 0.148110(10) 0.79498(4) 0.91863(2)
O13 O 0.28008(7) 0.1888(2) 0.43079(14)
O15 O 0.15216(6) 0.3450(2) 0.34374(13)
O16 O 0.27988(6) 0.1095(2) 0.58889(12)
O17 O 0.22012(6) 0.3905(2) 0.41111(12)
O19 O 0.29949(5) 0.40428(19) 0.56163(12)
C9 C 0.19400(8) 0.9840(3) 0.47227(18)
C10 C 0.22332(8) 0.8635(3) 0.48679(18)
C11 C 0.22071(9) 0.7517(3) 0.5311(2)
H6 H 0.2010 0.7522 0.5523
C12 C 0.25261(9) 0.8630(3) 0.4553(2)
H7 H 0.2545 0.9386 0.4252
C16 C 0.00636(14) 0.9489(8) 0.3924(3)
H8 H 0.0249 0.8914 0.4356
O6 O 0.16385(6) 0.9786(2) 0.48808(16)
H16 H 0.0134 0.8904 0.1485
C23 C 0.30600(8) 0.5160(3) 0.52773(18)
C24 C 0.27668(8) 0.6365(3) 0.51321(18)
C25 C 0.27929(9) 0.7483(3) 0.4689(2)
H21 H 0.2990 0.7478 0.4477
C26 C 0.24739(9) 0.6370(3) 0.5447(2)
H22 H 0.2455 0.5614 0.5748
O8 O 0.33615(6) 0.5214(2) 0.51192(16)
Co10 Co 0.351890(10) 0.29498(4) 0.58137(2)
H10 H 0.9917 0.0120 0.4121
N3 N 0.91145(7) 0.1357(3) 0.13917(15)
N4 N 0.92817(8) 0.0606(4) 0.09780(18)
H14 H 0.9144 0.0344 0.0489
C18 C 0.94257(8) 0.1542(4) 0.21131(19)
C19 C 0.97930(8) 0.0909(4) 0.2155(2)
C20 C 0.96862(10) 0.0320(5) 0.1420(2)
C22 C 0.93729(12) 0.2337(6) 0.2747(3)
H18 H 0.9419 0.3314 0.2692
H19 H 0.9571 0.2011 0.3261
H20 H 0.9094 0.2204 0.2701
Co3 Co 0.851890(10) 0.20502(4) 0.08137(2)
Co5 Co 0.7500 0.2500 0.0000
O14 O 0.84784(6) 0.3450(2) 0.15626(13)
O18 O 0.79949(5) 0.09572(19) 0.06163(12)
C27 C 0.81453(9) 0.3278(3) 0.92901(18)
C28 C 0.81520(9) 0.3937(3) 0.85599(18)
C29 C 0.77806(9) 0.4112(4) 0.7876(2)
H23 H 0.7530 0.3793 0.7872
C30 C 0.77780(9) 0.4752(4) 0.7205(2)
H24 H 0.7527 0.4860 0.6753
C31 C 0.81446(9) 0.5233(3) 0.71984(18)
C32 C 0.85169(9) 0.5039(4) 0.7882(2)
H25 H 0.8767 0.5359 0.7888
C33 C 0.85196(9) 0.4390(4) 0.8541(2)
H26 H 0.8773 0.4250 0.8985
C34 C 0.81377(8) 0.6007(3) 0.64919(18)
O9 O 0.84970(6) 0.2958(2) 0.98450(13)
O10 O 0.78008(7) 0.3112(2) 0.93079(14)
O11 O 0.84784(6) 0.6550(2) 0.65626(13)
O12 O 0.77988(6) 0.6095(2) 0.58889(12)
Co5_2 Co 0.7500 0.2500 1.0000
Co6 Co 0.7500 0.7500 0.5000
Co8 Co 0.851890(10) 0.79498(4) 0.58137(2)
H9 H 0.9866 0.8904 0.3515
C21 C 0.99364(14) 0.9489(8) 0.1076(3)
H15 H 0.9751 0.8914 0.0644
O20 O 0.83615(6) 0.9786(2) 0.01192(16)
O13_2 O 0.71992(7) 0.1888(2) 0.06921(14)
O17_2 O 0.77988(6) 0.3905(2) 0.08889(12)
O16_2 O 0.72012(6) 0.1095(2) 0.91111(12)
O19_2 O 0.70051(5) 0.40428(19) 0.93837(12)
C9_2 C 0.80600(8) 0.9840(3) 0.02773(18)
C10_2 C 0.77668(8) 0.8635(3) 0.01321(18)
C12_2 C 0.74739(9) 0.8630(3) 0.0447(2)
H7_2 H 0.7455 0.9386 0.0748
C25_2 C 0.72071(9) 0.7483(3) 0.0311(2)
H21_2 H 0.7010 0.7478 0.0523
C11_2 C 0.77929(9) 0.7517(3) 0.9689(2)
H6_2 H 0.7990 0.7522 0.9477
C23_2 C 0.69400(8) 0.5160(3) 0.97227(18)
C24_2 C 0.72332(8) 0.6365(3) 0.98679(18)
C26_2 C 0.75261(9) 0.6370(3) 0.9553(2)
H22_2 H 0.7545 0.5614 0.9252
O8_2 O 0.66385(6) 0.5214(2) 0.98808(16)
Co10_2 Co 0.648110(10) 0.29498(4) 0.91863(2)
C5_2 C 0.68554(9) 0.0233(3) 0.78016(18)
C6_2 C 0.64831(9) 0.0039(4) 0.7118(2)
H4_2 H 0.6233 0.0359 0.7112
C8_2 C 0.68623(8) 0.1007(3) 0.85081(18)
O3_2 O 0.65216(6) 0.1550(2) 0.84374(13)
C31_2 C 0.31446(9) 0.0233(3) 0.71984(18)
C32_2 C 0.35169(9) 0.0039(4) 0.7882(2)
H25_2 H 0.3767 0.0359 0.7888
C34_2 C 0.31377(8) 0.1007(3) 0.64919(18)
O11_2 O 0.34784(6) 0.1550(2) 0.65626(13)
Co2_2 Co 0.648110(10) 0.70502(4) 0.41863(2)
N1_2 N 0.58855(7) 0.6357(3) 0.36083(15)
N2_2 N 0.57183(8) 0.5606(4) 0.40220(18)
H1_2 H 0.5856 0.5344 0.4511
C1_2 C 0.68547(9) 0.8278(3) 0.57099(18)
C2_2 C 0.68480(9) 0.8937(3) 0.64401(18)
C3_2 C 0.72194(9) 0.9112(4) 0.7124(2)
H2_2 H 0.7470 0.8793 0.7128
C4_2 C 0.72220(9) 0.9752(4) 0.7795(2)
H3_2 H 0.7473 0.9860 0.8247
C7_2 C 0.64804(9) 0.9390(4) 0.6459(2)
H5_2 H 0.6227 0.9250 0.6015
C9_3 C 0.69400(8) 0.4840(3) 0.47227(18)
C10_3 C 0.72332(8) 0.3635(3) 0.48679(18)
C11_3 C 0.72071(9) 0.2517(3) 0.5311(2)
H6_3 H 0.7010 0.2522 0.5523
C12_3 C 0.75261(9) 0.3630(3) 0.4553(2)
H7_3 H 0.7545 0.4386 0.4252
C13_2 C 0.55743(8) 0.6542(4) 0.28869(19)
C14_2 C 0.52070(8) 0.5909(4) 0.2845(2)
C15_2 C 0.53138(10) 0.5320(5) 0.3580(2)
C16_2 C 0.50636(14) 0.4489(8) 0.3924(3)
H8_2 H 0.5249 0.3914 0.4356
H9_2 H 0.4866 0.3904 0.3515
H10_2 H 0.4917 0.5120 0.4121
C17_2 C 0.56271(12) 0.7337(6) 0.2253(3)
H11_2 H 0.5581 0.8314 0.2308
H12_2 H 0.5429 0.7011 0.1739
H13_2 H 0.5906 0.7204 0.2299
O1_2 O 0.65030(6) 0.7958(2) 0.51550(13)
O2_2 O 0.71992(7) 0.8112(2) 0.56921(14)
O5_2 O 0.70051(5) 0.59572(19) 0.43837(12)
O6_2 O 0.66385(6) 0.4786(2) 0.48808(16)
N3_2 N 0.41145(7) 0.6357(3) 0.13917(15)
N4_2 N 0.42817(8) 0.5606(4) 0.09780(18)
H14_2 H 0.4144 0.5344 0.0489
C18_2 C 0.44257(8) 0.6542(4) 0.21131(19)
C19_2 C 0.47930(8) 0.5909(4) 0.2155(2)
C20_2 C 0.46862(10) 0.5320(5) 0.1420(2)
C21_2 C 0.49364(14) 0.4489(8) 0.1076(3)
H15_2 H 0.4751 0.3914 0.0644
H16_2 H 0.5134 0.3904 0.1485
H17_2 H 0.5083 0.5120 0.0879
C22_2 C 0.43729(12) 0.7337(6) 0.2747(3)
H18_2 H 0.4419 0.8314 0.2692
H19_2 H 0.4571 0.7011 0.3261
H20_2 H 0.4094 0.7204 0.2701
C23_3 C 0.80600(8) 0.0160(3) 0.52773(18)
C24_3 C 0.77668(8) 0.1365(3) 0.51321(18)
C25_3 C 0.77929(9) 0.2483(3) 0.4689(2)
H21_3 H 0.7990 0.2478 0.4477
C26_3 C 0.74739(9) 0.1370(3) 0.5447(2)
H22_3 H 0.7455 0.0614 0.5748
O8_3 O 0.83615(6) 0.0214(2) 0.51192(16)
Co3_2 Co 0.351890(10) 0.70502(4) 0.08137(2)
O13_3 O 0.78008(7) 0.6888(2) 0.43079(14)
O14_2 O 0.34784(6) 0.8450(2) 0.15626(13)
O15_2 O 0.65216(6) 0.8450(2) 0.34374(13)
O17_3 O 0.72012(6) 0.8905(2) 0.41111(12)
O18_2 O 0.29949(5) 0.59572(19) 0.06163(12)
O19_3 O 0.79949(5) 0.90428(19) 0.56163(12)
O20_2 O 0.33615(6) 0.4786(2) 0.01192(16)
C27_2 C 0.31453(9) 0.8278(3) 0.92901(18)
C28_2 C 0.31520(9) 0.8937(3) 0.85599(18)
C29_2 C 0.27806(9) 0.9112(4) 0.7876(2)
H23_2 H 0.2530 0.8793 0.7872
C30_2 C 0.27780(9) 0.9752(4) 0.7205(2)
H24_2 H 0.2527 0.9860 0.6753
C33_2 C 0.35196(9) 0.9390(4) 0.8541(2)
H26_2 H 0.3773 0.9250 0.8985
O9_2 O 0.34970(6) 0.7958(2) 0.98450(13)
O10_2 O 0.28008(7) 0.8112(2) 0.93079(14)
C9_4 C 0.30600(8) 0.4840(3) 0.02773(18)
C10_4 C 0.27668(8) 0.3635(3) 0.01321(18)
C12_4 C 0.24739(9) 0.3630(3) 0.0447(2)
H7_4 H 0.2455 0.4386 0.0748
C25_4 C 0.22071(9) 0.2483(3) 0.0311(2)
H21_4 H 0.2010 0.2478 0.0523
O13_4 O 0.21992(7) 0.6888(2) 0.06921(14)
O17_4 O 0.27988(6) 0.8905(2) 0.08889(12)
C11_4 C 0.27929(9) 0.2517(3) 0.9689(2)
H6_4 H 0.2990 0.2522 0.9477
C23_4 C 0.19400(8) 0.0160(3) 0.97227(18)
C24_4 C 0.22332(8) 0.1365(3) 0.98679(18)
C26_4 C 0.25261(9) 0.1370(3) 0.9553(2)
H22_4 H 0.2545 0.0614 0.9252
O8_4 O 0.16385(6) 0.0214(2) 0.98808(16)
O19_4 O 0.20051(5) 0.90428(19) 0.93837(12)
H9_3 H 0.0134 0.1096 0.6485
C21_3 C 0.00636(14) 0.0511(8) 0.8924(3)
H15_3 H 0.0249 0.1086 0.9356
C27_3 C 0.18547(9) 0.6722(3) 0.07099(18)
C28_3 C 0.18480(9) 0.6063(3) 0.14401(18)
C29_3 C 0.22194(9) 0.5888(4) 0.2124(2)
H23_3 H 0.2470 0.6207 0.2128
C30_3 C 0.22220(9) 0.5248(4) 0.2795(2)
H24_3 H 0.2473 0.5140 0.3247
C31_3 C 0.18554(9) 0.4767(3) 0.28016(18)
C32_3 C 0.14831(9) 0.4961(4) 0.2118(2)
H25_3 H 0.1233 0.4641 0.2112
C33_3 C 0.14804(9) 0.5610(4) 0.1459(2)
H26_3 H 0.1227 0.5750 0.1015
C34_3 C 0.18623(8) 0.3993(3) 0.35081(18)
O9_3 O 0.15030(6) 0.7042(2) 0.01550(13)
H10_3 H 0.0083 0.9880 0.5879
N3_3 N 0.08855(7) 0.8643(3) 0.86083(15)
N4_3 N 0.07183(8) 0.9394(4) 0.90220(18)
H14_3 H 0.0856 0.9656 0.9511
C18_3 C 0.05743(8) 0.8458(4) 0.78869(19)
C19_3 C 0.02070(8) 0.9091(4) 0.7845(2)
C20_3 C 0.03138(10) 0.9680(5) 0.8580(2)
C22_3 C 0.06271(12) 0.7663(6) 0.7253(3)
H18_3 H 0.0581 0.6686 0.7308
H19_3 H 0.0429 0.7989 0.6739
H20_3 H 0.0906 0.7796 0.7299
C16_3 C 0.99364(14) 0.0511(8) 0.6076(3)
H8_3 H 0.9751 0.1086 0.5644
H16_3 H 0.9866 0.1096 0.8515
N1_3 N 0.91145(7) 0.8643(3) 0.63917(15)
N2_3 N 0.92817(8) 0.9394(4) 0.59780(18)
H1_3 H 0.9144 0.9656 0.5489
C1_3 C 0.81453(9) 0.6722(3) 0.42901(18)
C2_3 C 0.81520(9) 0.6063(3) 0.35599(18)
C3_3 C 0.77806(9) 0.5888(4) 0.2876(2)
H2_3 H 0.7530 0.6207 0.2872
C4_3 C 0.77780(9) 0.5248(4) 0.2205(2)
H3_3 H 0.7527 0.5140 0.1753
C5_3 C 0.81446(9) 0.4767(3) 0.21984(18)
C6_3 C 0.85169(9) 0.4961(4) 0.2882(2)
H4_3 H 0.8767 0.4641 0.2888
C7_3 C 0.85196(9) 0.5610(4) 0.3541(2)
H5_3 H 0.8773 0.5750 0.3985
C8_3 C 0.81377(8) 0.3993(3) 0.14919(18)
C13_3 C 0.94257(8) 0.8458(4) 0.71131(19)
C14_3 C 0.97930(8) 0.9091(4) 0.7155(2)
C15_3 C 0.96862(10) 0.9680(5) 0.6420(2)
C17_3 C 0.93729(12) 0.7663(6) 0.7747(3)
H11_3 H 0.9419 0.6686 0.7692
H12_3 H 0.9571 0.7989 0.8261
H13_3 H 0.9094 0.7796 0.7701
O1_3 O 0.84970(6) 0.7042(2) 0.48450(13)
H17_3 H 0.9917 0.9880 0.9121
C27_4 C 0.68547(9) 0.1722(3) 0.07099(18)
C28_4 C 0.68480(9) 0.1063(3) 0.14401(18)
C29_4 C 0.72194(9) 0.0888(4) 0.2124(2)
H23_4 H 0.7470 0.1207 0.2128
C30_4 C 0.72220(9) 0.0248(4) 0.2795(2)
H24_4 H 0.7473 0.0140 0.3247
C33_4 C 0.64804(9) 0.0610(4) 0.1459(2)
H26_4 H 0.6227 0.0750 0.1015
O9_4 O 0.65030(6) 0.2042(2) 0.01550(13)
N1_4 N 0.41145(7) 0.3643(3) 0.63917(15)
N2_4 N 0.42817(8) 0.4394(4) 0.59780(18)
H1_4 H 0.4144 0.4656 0.5489
C1_4 C 0.31453(9) 0.1722(3) 0.42901(18)
C2_4 C 0.31520(9) 0.1063(3) 0.35599(18)
C3_4 C 0.27806(9) 0.0888(4) 0.2876(2)
H2_4 H 0.2530 0.1207 0.2872
C4_4 C 0.27780(9) 0.0248(4) 0.2205(2)
H3_4 H 0.2527 0.0140 0.1753
C7_4 C 0.35196(9) 0.0610(4) 0.3541(2)
H5_4 H 0.3773 0.0750 0.3985
C13_4 C 0.44257(8) 0.3458(4) 0.71131(19)
C14_4 C 0.47930(8) 0.4091(4) 0.7155(2)
C15_4 C 0.46862(10) 0.4680(5) 0.6420(2)
C16_4 C 0.49364(14) 0.5511(8) 0.6076(3)
H8_4 H 0.4751 0.6086 0.5644
H9_4 H 0.5134 0.6096 0.6485
H10_4 H 0.5083 0.4880 0.5879
C17_4 C 0.43729(12) 0.2663(6) 0.7747(3)
H11_4 H 0.4419 0.1686 0.7692
H12_4 H 0.4571 0.2989 0.8261
H13_4 H 0.4094 0.2796 0.7701
O1_4 O 0.34970(6) 0.2042(2) 0.48450(13)
N3_4 N 0.58855(7) 0.3643(3) 0.86083(15)
N4_4 N 0.57183(8) 0.4394(4) 0.90220(18)
H14_4 H 0.5856 0.4656 0.9511
C18_4 C 0.55743(8) 0.3458(4) 0.78869(19)
C19_4 C 0.52070(8) 0.4091(4) 0.7845(2)
C20_4 C 0.53138(10) 0.4680(5) 0.8580(2)
C21_4 C 0.50636(14) 0.5511(8) 0.8924(3)
H15_4 H 0.5249 0.6086 0.9356
H16_4 H 0.4866 0.6096 0.8515
H17_4 H 0.4917 0.4880 0.9121
C22_4 C 0.56271(12) 0.2663(6) 0.7253(3)
H18_4 H 0.5581 0.1686 0.7308
H19_4 H 0.5429 0.2989 0.6739
H20_4 H 0.5906 0.2796 0.7299
C31_4 C 0.68554(9) 0.9767(3) 0.28016(18)
C32_4 C 0.64831(9) 0.9961(4) 0.2118(2)
H25_4 H 0.6233 0.9641 0.2112
C34_4 C 0.68623(8) 0.8993(3) 0.35081(18)
C5_4 C 0.31446(9) 0.9767(3) 0.21984(18)
C6_4 C 0.35169(9) 0.9961(4) 0.2882(2)
H4_4 H 0.3767 0.9641 0.2888
C8_4 C 0.31377(8) 0.8993(3) 0.14919(18)
loop_
_geom_bond_atom_site_label_1
_geom_bond_atom_site_label_2
_geom_bond_site_symmetry_1
_geom_bond_site_symmetry_2
Co1 O2 1_555 1_555
Co2 N1 1_555 1_555
N1 N2 1_555 1_555
N2 H1 1_555 1_555
C1 C2 1_555 1_555
C2 C3 1_555 1_555
C3 H2 1_555 1_555
C4 C3 1_555 1_555
H3 C4 1_555 1_555
C5 C4 1_555 1_555
C6 C5 1_555 1_555
H4 C6 1_555 1_555
C7 C2 1_555 1_555
H5 C7 1_555 1_555
C8 C5 1_555 1_555
C13 N1 1_555 1_555
C14 C13 1_555 1_555
C15 N2 1_555 1_555
C17 C13 1_555 1_555
H11 C17 1_555 1_555
H12 C17 1_555 1_555
H13 C17 1_555 1_555
O1 Co2 1_555 1_555
O2 C1 1_555 1_555
O3 C8 1_555 1_555
O4 C8 1_555 1_555
O5 Co1 1_555 1_555
Co7_2 O4 1_555 1_555
Co9 O3 1_555 1_555
O13 Co1 1_555 1_555
O15 Co2 1_555 1_555
O16 Co1 1_555 1_555
O17 Co1 1_555 1_555
O19 Co1 1_555 1_555
Co2 O5 1_555 1_555
C1 O1 1_555 1_555
C6 C7 1_555 1_555
C14 C15 1_555 1_555
C9 C10 1_555 1_555
C10 C11 1_555 1_555
C11 H6 1_555 1_555
C12 C10 1_555 1_555
H7 C12 1_555 1_555
H8 C16 1_555 1_555
C23 C24 1_555 1_555
C24 C25 1_555 1_555
C25 C12 1_555 1_555
H21 C25 1_555 1_555
C26 C11 1_555 1_555
H22 C26 1_555 1_555
O19 C23 1_555 1_555
O8 C23 1_555 1_555
Co10 O19 1_555 1_555
C9 O6 1_555 1_555
C24 C26 1_555 1_555
O8 Co10 1_555 1_555
N3 N4 1_555 1_555
N4 H14 1_555 1_555
C18 N3 1_555 1_555
C20 N4 1_555 1_555
C22 C18 1_555 1_555
H18 C22 1_555 1_555
H19 C22 1_555 1_555
H20 C22 1_555 1_555
Co3 N3 1_555 1_555
O14 Co3 1_555 1_555
O18 Co3 1_555 1_555
C18 C19 1_555 1_555
C19 C20 1_555 1_555
Co5 O18 1_555 1_555
C27 C28 1_555 1_555
C28 C29 1_555 1_555
C29 H23 1_555 1_555
C30 C29 1_555 1_555
H24 C30 1_555 1_555
C31 C30 1_555 1_555
C32 C31 1_555 1_555
H25 C32 1_555 1_555
C33 C28 1_555 1_555
H26 C33 1_555 1_555
C34 C31 1_555 1_555
O10 C27 1_555 1_555
O11 C34 1_555 1_555
O12 C34 1_555 1_555
Co5_2 O10 1_555 1_555
Co6 O12 1_555 1_555
Co8 O11 1_555 1_555
C27 O9 1_555 1_555
C32 C33 1_555 1_555
H15 C21 1_555 1_555
O13_2 Co5 1_555 1_555
O17_2 Co5 1_555 1_555
O16_2 Co5_2 1_555 1_555
O19_2 Co5_2 1_555 1_555
C9_2 C10_2 1_555 1_555
C12_2 C10_2 1_555 1_555
H7_2 C12_2 1_555 1_555
C25_2 C12_2 1_555 1_555
H21_2 C25_2 1_555 1_555
C9_2 O20 1_555 1_555
C11_2 H6_2 1_555 1_555
C23_2 C24_2 1_555 1_555
C26_2 C11_2 1_555 1_555
H22_2 C26_2 1_555 1_555
O19_2 C23_2 1_555 1_555
O8_2 C23_2 1_555 1_555
Co10_2 O19_2 1_555 1_555
C24_2 C26_2 1_555 1_555
O8_2 Co10_2 1_555 1_555
C6_2 C5_2 1_555 1_555
H4_2 C6_2 1_555 1_555
C8_2 C5_2 1_555 1_555
O3_2 C8_2 1_555 1_555
O16_2 C8_2 1_555 1_555
Co10_2 O3_2 1_555 1_555
C32_2 C31_2 1_555 1_555
H25_2 C32_2 1_555 1_555
C34_2 C31_2 1_555 1_555
O11_2 C34_2 1_555 1_555
O16 C34_2 1_555 1_555
Co10 O11_2 1_555 1_555
Co6 O2_2 1_555 1_555
Co2_2 N1_2 1_555 1_555
N1_2 N2_2 1_555 1_555
N2_2 H1_2 1_555 1_555
C1_2 C2_2 1_555 1_555
C2_2 C3_2 1_555 1_555
C3_2 H2_2 1_555 1_555
C4_2 C3_2 1_555 1_555
H3_2 C4_2 1_555 1_555
C7_2 C2_2 1_555 1_555
H5_2 C7_2 1_555 1_555
C9_3 C10_3 1_555 1_555
C10_3 C11_3 1_555 1_555
C11_3 H6_3 1_555 1_555
C12_3 C10_3 1_555 1_555
H7_3 C12_3 1_555 1_555
C13_2 N1_2 1_555 1_555
C14_2 C13_2 1_555 1_555
C15_2 N2_2 1_555 1_555
C16_2 C15_2 1_555 1_555
H8_2 C16_2 1_555 1_555
H9_2 C16_2 1_555 1_555
H10_2 C16_2 1_555 1_555
C17_2 C13_2 1_555 1_555
H11_2 C17_2 1_555 1_555
H12_2 C17_2 1_555 1_555
H13_2 C17_2 1_555 1_555
O1_2 Co2_2 1_555 1_555
O2_2 C1_2 1_555 1_555
O5_2 Co6 1_555 1_555
O6_2 Co2_2 1_555 1_555
N3_2 N4_2 1_555 1_555
N4_2 H14_2 1_555 1_555
C18_2 N3_2 1_555 1_555
C19_2 C14_2 1_555 1_555
C20_2 N4_2 1_555 1_555
C21_2 C20_2 1_555 1_555
H15_2 C21_2 1_555 1_555
H16_2 C21_2 1_555 1_555
H17_2 C21_2 1_555 1_555
C22_2 C18_2 1_555 1_555
H18_2 C22_2 1_555 1_555
H19_2 C22_2 1_555 1_555
H20_2 C22_2 1_555 1_555
C23_3 C24_3 1_555 1_555
C24_3 C25_3 1_555 1_555
C25_3 C12_3 1_555 1_555
H21_3 C25_3 1_555 1_555
C26_3 C11_3 1_555 1_555
H22_3 C26_3 1_555 1_555
O8_3 C23_3 1_555 1_555
Co3_2 N3_2 1_555 1_555
O13_3 Co6 1_555 1_555
O14_2 Co3_2 1_555 1_555
O15_2 Co2_2 1_555 1_555
O17_3 Co6 1_555 1_555
O18_2 Co3_2 1_555 1_555
O19_3 Co6 1_555 1_555
O20_2 Co3_2 1_555 1_555
Co2_2 O5_2 1_555 1_555
C1_2 O1_2 1_555 1_555
C9_3 O5_2 1_555 1_555
C9_3 O6_2 1_555 1_555
C14_2 C15_2 1_555 1_555
C18_2 C19_2 1_555 1_555
C19_2 C20_2 1_555 1_555
C24_3 C26_3 1_555 1_555
Co7 O18_2 1_555 1_555
C27_2 C28_2 1_555 1_555
C28_2 C29_2 1_555 1_555
C29_2 H23_2 1_555 1_555
C30_2 C29_2 1_555 1_555
H24_2 C30_2 1_555 1_555
C33_2 C28_2 1_555 1_555
H26_2 C33_2 1_555 1_555
O10_2 C27_2 1_555 1_555
Co7_2 O10_2 1_555 1_555
C27_2 O9_2 1_555 1_555
Co8 O19_3 1_555 1_555
C9_4 C10_4 1_555 1_555
C12_4 C10_4 1_555 1_555
H7_4 C12_4 1_555 1_555
C25_4 C12_4 1_555 1_555
H21_4 C25_4 1_555 1_555
O13_4 Co7 1_555 1_555
O17_4 Co7 1_555 1_555
C9_4 O18_2 1_555 1_555
C9_4 O20_2 1_555 1_555
C11_4 H6_4 1_555 1_555
C23_4 C24_4 1_555 1_555
C26_4 C11_4 1_555 1_555
H22_4 C26_4 1_555 1_555
O8_4 C23_4 1_555 1_555
O19_4 Co7_2 1_555 1_555
C24_4 C26_4 1_555 1_555
Co9 O19_4 1_555 1_555
H15_3 C21_3 1_555 1_555
C27_3 C28_3 1_555 1_555
C28_3 C29_3 1_555 1_555
C29_3 H23_3 1_555 1_555
C30_3 C29_3 1_555 1_555
H24_3 C30_3 1_555 1_555
C31_3 C30_3 1_555 1_555
C32_3 C31_3 1_555 1_555
H25_3 C32_3 1_555 1_555
C33_3 C28_3 1_555 1_555
H26_3 C33_3 1_555 1_555
C34_3 C31_3 1_555 1_555
O13_4 C27_3 1_555 1_555
O15 C34_3 1_555 1_555
O17 C34_3 1_555 1_555
C27_3 O9_3 1_555 1_555
C32_3 C33_3 1_555 1_555
N3_3 N4_3 1_555 1_555
N4_3 H14_3 1_555 1_555
C18_3 N3_3 1_555 1_555
C20_3 N4_3 1_555 1_555
C22_3 C18_3 1_555 1_555
H18_3 C22_3 1_555 1_555
H19_3 C22_3 1_555 1_555
H20_3 C22_3 1_555 1_555
Co9 N3_3 1_555 1_555
C18_3 C19_3 1_555 1_555
C19_3 C20_3 1_555 1_555
H8_3 C16_3 1_555 1_555
Co8 N1_3 1_555 1_555
N1_3 N2_3 1_555 1_555
N2_3 H1_3 1_555 1_555
C1_3 C2_3 1_555 1_555
C2_3 C3_3 1_555 1_555
C3_3 H2_3 1_555 1_555
C4_3 C3_3 1_555 1_555
H3_3 C4_3 1_555 1_555
C5_3 C4_3 1_555 1_555
C6_3 C5_3 1_555 1_555
H4_3 C6_3 1_555 1_555
C7_3 C2_3 1_555 1_555
H5_3 C7_3 1_555 1_555
C8_3 C5_3 1_555 1_555
C13_3 N1_3 1_555 1_555
C14_3 C13_3 1_555 1_555
C15_3 N2_3 1_555 1_555
C17_3 C13_3 1_555 1_555
H11_3 C17_3 1_555 1_555
H12_3 C17_3 1_555 1_555
H13_3 C17_3 1_555 1_555
O1_3 Co8 1_555 1_555
O13_3 C1_3 1_555 1_555
O14 C8_3 1_555 1_555
O17_2 C8_3 1_555 1_555
C1_3 O1_3 1_555 1_555
C6_3 C7_3 1_555 1_555
C14_3 C15_3 1_555 1_555
C27_4 C28_4 1_555 1_555
C28_4 C29_4 1_555 1_555
C29_4 H23_4 1_555 1_555
C30_4 C29_4 1_555 1_555
H24_4 C30_4 1_555 1_555
C33_4 C28_4 1_555 1_555
H26_4 C33_4 1_555 1_555
O13_2 C27_4 1_555 1_555
C27_4 O9_4 1_555 1_555
Co10 N1_4 1_555 1_555
N1_4 N2_4 1_555 1_555
N2_4 H1_4 1_555 1_555
C1_4 C2_4 1_555 1_555
C2_4 C3_4 1_555 1_555
C3_4 H2_4 1_555 1_555
C4_4 C3_4 1_555 1_555
H3_4 C4_4 1_555 1_555
C7_4 C2_4 1_555 1_555
H5_4 C7_4 1_555 1_555
C13_4 N1_4 1_555 1_555
C14_4 C13_4 1_555 1_555
C15_4 N2_4 1_555 1_555
C16_4 C15_4 1_555 1_555
H8_4 C16_4 1_555 1_555
H9_4 C16_4 1_555 1_555
H10_4 C16_4 1_555 1_555
C17_4 C13_4 1_555 1_555
H11_4 C17_4 1_555 1_555
H12_4 C17_4 1_555 1_555
H13_4 C17_4 1_555 1_555
O1_4 Co10 1_555 1_555
O13 C1_4 1_555 1_555
N3_4 N4_4 1_555 1_555
N4_4 H14_4 1_555 1_555
C18_4 N3_4 1_555 1_555
C19_4 C14_4 1_555 1_555
C20_4 N4_4 1_555 1_555
C21_4 C20_4 1_555 1_555
H15_4 C21_4 1_555 1_555
H16_4 C21_4 1_555 1_555
H17_4 C21_4 1_555 1_555
C22_4 C18_4 1_555 1_555
H18_4 C22_4 1_555 1_555
H19_4 C22_4 1_555 1_555
H20_4 C22_4 1_555 1_555
Co10_2 N3_4 1_555 1_555
C1_4 O1_4 1_555 1_555
C14_4 C15_4 1_555 1_555
C18_4 C19_4 1_555 1_555
C19_4 C20_4 1_555 1_555
C32_4 C31_4 1_555 1_555
H25_4 C32_4 1_555 1_555
C34_4 C31_4 1_555 1_555
O15_2 C34_4 1_555 1_555
O17_3 C34_4 1_555 1_555
C6_4 C5_4 1_555 1_555
H4_4 C6_4 1_555 1_555
C8_4 C5_4 1_555 1_555
O14_2 C8_4 1_555 1_555
O17_4 C8_4 1_555 1_555

#END
