
###############################################################################
#
# This file contains modified crystal structure data generated from the
# MOF subset of the Cambridge Structural Database (CSD) v543 
# hosted by the Cambridge Crystallographic Data Centre (CCDC).
#
# This work is licensed under the Creative Commons
# Attribution-NonCommercial-ShareAlike 4.0 International License.
# To view a copy of this license, visit
# http://creativecommons.org/licenses/by-nc-sa/4.0/
# or send a letter to
# Creative Commons, PO Box 1866, Mountain View, CA 94042, USA.
#
# CIF created using the CSD Python API on 29 September 2022
# The structure has been converted into the P1 space group
# The structure has a 3D framework
# The original CSD entry BEDTIQ is in the monoclinic crystal system
# The framework has been calculated to contain at least 10.0% void space
# The void calculation uses a probe of radius 1.32A, grid spacing 0.4
#
###############################################################################

data_BEDTIQ
_chemical_formula_moiety         '(C136 H104 Co10 N16 O45)n'
_symmetry_cell_setting           triclinic
_symmetry_space_group_name_H-M   'P 1'
_symmetry_Int_Tables_number      1
_space_group_name_Hall           'P 1'
loop_
_symmetry_equiv_pos_site_id
_symmetry_equiv_pos_as_xyz
1 x,y,z
_cell_length_a                   34.56(4)
_cell_length_b                   9.386(11)
_cell_length_c                   18.21(2)
_cell_angle_alpha                90
_cell_angle_beta                 115.595(16)
_cell_angle_gamma                90
_cell_volume                     5327.31
loop_
_atom_site_label
_atom_site_type_symbol
_atom_site_fract_x
_atom_site_fract_y
_atom_site_fract_z
O7 O 0.20070(19) 0.0970(7) 0.4382(3)
Co4 Co 0.2500 0.2500 0.5000
Co10 Co 0.14841(3) 0.20790(13) 0.41832(6)
C27 C 0.6865(3) 0.1695(11) 0.0705(5)
C28 C 0.6862(3) 0.1051(11) 0.1440(5)
C29 C 0.7224(3) 0.0855(13) 0.2108(6)
H23 H 0.7482 0.1148 0.2112
C30 C 0.7227(3) 0.0231(14) 0.2791(6)
H24 H 0.7484 0.0138 0.3258
C33 C 0.6493(3) 0.0625(14) 0.1455(6)
H26 H 0.6235 0.0795 0.1003
O9 O 0.6521(2) 0.2002(8) 0.0157(4)
O10 O 0.7215(2) 0.1879(8) 0.0703(4)
Co5 Co 0.7500 0.2500 -0.0000
C1 C 0.3135(3) 0.1695(11) 0.4295(5)
C2 C 0.3138(3) 0.1051(11) 0.3560(5)
C3 C 0.2776(3) 0.0855(13) 0.2892(6)
H1 H 0.2518 0.1148 0.2888
C4 C 0.2773(3) 0.0231(14) 0.2209(6)
H2 H 0.2516 0.0138 0.1742
C7 C 0.3507(3) 0.0625(14) 0.3545(6)
H4 H 0.3765 0.0795 0.3997
C9 C 0.3058(3) 0.5159(9) 0.5283(5)
C10 C 0.2763(3) 0.6358(10) 0.5134(5)
C11 C 0.2784(4) 0.7489(11) 0.4678(7)
H5 H 0.2983 0.7482 0.4460
C12 C 0.2480(3) 0.6392(10) 0.5458(5)
H6 H 0.2466 0.5638 0.5778
C13 C 0.4425(3) 0.3406(13) 0.7117(6)
C14 C 0.4797(3) 0.3999(12) 0.7156(6)
C15 C 0.4695(4) 0.458(2) 0.6430(8)
C16 C 0.4937(6) 0.529(2) 0.6049(11)
H7 H 0.4746 0.5545 0.5499
H8 H 0.5156 0.4666 0.6047
H9 H 0.5067 0.6140 0.6350
C17 C 0.4369(5) 0.262(2) 0.7752(9)
H10 H 0.4075 0.2327 0.7556
H11 H 0.4443 0.3221 0.8221
H12 H 0.4551 0.1796 0.7899
Co2 Co 0.35159(3) 0.29210(13) 0.58168(6)
N1 N 0.4117(2) 0.3556(9) 0.6384(4)
N2 N 0.4292(3) 0.4249(14) 0.5958(6)
H13 H 0.4160 0.4451 0.5448
O1 O 0.3479(2) 0.2002(8) 0.4843(4)
O2 O 0.2785(2) 0.1879(8) 0.4297(4)
O5 O 0.29930(19) 0.4030(7) 0.5618(3)
O6 O 0.3356(2) 0.5208(8) 0.5093(5)
C18 C 0.1942(3) 0.9841(9) 0.4717(5)
C19 C 0.2237(3) 0.8642(10) 0.4866(5)
C20 C 0.2216(4) 0.7511(11) 0.5322(7)
H14 H 0.2017 0.7518 0.5540
C21 C 0.2520(3) 0.8608(10) 0.4542(5)
H15 H 0.2534 0.9362 0.4222
O8 O 0.1644(2) 0.9792(8) 0.4907(5)
C22 C 0.5575(3) 0.3406(13) 0.7883(6)
C23 C 0.5203(3) 0.3999(12) 0.7844(6)
C24 C 0.5305(4) 0.458(2) 0.8570(8)
C25 C 0.5063(6) 0.529(2) 0.8951(11)
H16 H 0.5254 0.5545 0.9501
H17 H 0.4844 0.4666 0.8953
H18 H 0.4933 0.6140 0.8650
C26 C 0.5631(5) 0.262(2) 0.7248(9)
H19 H 0.5925 0.2327 0.7444
H20 H 0.5557 0.3221 0.6779
H21 H 0.5449 0.1796 0.7101
N3 N 0.5883(2) 0.3556(9) 0.8616(4)
N4 N 0.5708(3) 0.4249(14) 0.9042(6)
H22 H 0.5840 0.4451 0.9552
Co3 Co 0.64841(3) 0.29210(13) 0.91832(6)
Co5_2 Co 0.7500 0.2500 1.0000
O13 O 0.2215(2) 0.3121(8) 0.5703(4)
O14 O 0.6530(2) 0.1549(8) 0.8419(4)
O15 O 0.3470(2) 0.1549(8) 0.6581(4)
O16 O 0.2204(2) 0.3917(7) 0.4114(3)
O17 O 0.2796(2) 0.1083(7) 0.5886(3)
O18 O 0.70070(19) 0.4030(7) 0.9382(3)
O20 O 0.6644(2) 0.5208(8) 0.9907(5)
C31 C 0.6857(3) 0.9751(11) 0.2788(5)
C32 C 0.6490(3) 0.9956(15) 0.2110(6)
H25 H 0.6231 0.9634 0.2093
C34 C 0.6863(3) 0.8971(10) 0.3499(5)
O11 O 0.6530(2) 0.8451(8) 0.3419(4)
O12 O 0.7204(2) 0.8917(7) 0.4114(3)
Co6 Co 0.7500 0.7500 0.5000
Co8 Co 0.64841(3) 0.70790(13) 0.41832(6)
C5 C 0.3143(3) 0.9751(11) 0.2212(5)
C6 C 0.3510(3) 0.9956(15) 0.2890(6)
H3 H 0.3769 0.9634 0.2907
C8 C 0.3137(3) 0.8971(10) 0.1501(5)
O3 O 0.3470(2) 0.8451(8) 0.1581(4)
O4 O 0.2796(2) 0.8917(7) 0.0886(3)
Co7 Co 0.2500 0.7500 0.0000
Co9 Co 0.35159(3) 0.70790(13) 0.08168(6)
Co7_2 Co 0.2500 0.7500 1.0000
O7_2 O 0.79930(19) 0.0970(7) 0.0618(3)
Co10_2 Co 0.85159(3) 0.20790(13) 0.08168(6)
C11_2 C 0.7216(4) 0.7489(11) 0.0322(7)
H5_2 H 0.7017 0.7482 0.0540
C18_2 C 0.8058(3) 0.9841(9) 0.0283(5)
C19_2 C 0.7763(3) 0.8642(10) 0.0134(5)
C21_2 C 0.7480(3) 0.8608(10) 0.0458(5)
H15_2 H 0.7466 0.9362 0.0778
O8_2 O 0.8356(2) 0.9792(8) 0.0093(5)
O16_2 O 0.7796(2) 0.3917(7) 0.0886(3)
C9_2 C 0.6942(3) 0.5159(9) 0.9717(5)
C10_2 C 0.7237(3) 0.6358(10) 0.9866(5)
C12_2 C 0.7520(3) 0.6392(10) 0.9542(5)
H6_2 H 0.7534 0.5638 0.9222
C20_2 C 0.7784(4) 0.7511(11) 0.9678(7)
H14_2 H 0.7983 0.7518 0.9460
O13_2 O 0.7785(2) 0.3121(8) 0.9297(4)
O17_2 O 0.7204(2) 0.1083(7) 0.9114(3)
H9_2 H 0.0067 0.1140 0.6350
C25_2 C 0.0063(6) 0.029(2) 0.8951(11)
H16_2 H 0.0254 0.0545 0.9501
O20_2 O 0.1644(2) 0.0208(8) 0.9907(5)
C27_2 C 0.1865(3) 0.6695(11) 0.0705(5)
C28_2 C 0.1862(3) 0.6051(11) 0.1440(5)
C29_2 C 0.2224(3) 0.5855(13) 0.2108(6)
H23_2 H 0.2482 0.6148 0.2112
C30_2 C 0.2227(3) 0.5231(14) 0.2791(6)
H24_2 H 0.2484 0.5138 0.3258
C31_2 C 0.1857(3) 0.4751(11) 0.2788(5)
C32_2 C 0.1490(3) 0.4956(15) 0.2110(6)
H25_2 H 0.1231 0.4634 0.2093
C33_2 C 0.1493(3) 0.5625(14) 0.1455(6)
H26_2 H 0.1235 0.5795 0.1003
C34_2 C 0.1863(3) 0.3971(10) 0.3499(5)
O9_2 O 0.1521(2) 0.7002(8) 0.0157(4)
O10_2 O 0.2215(2) 0.6879(8) 0.0703(4)
O11_2 O 0.1530(2) 0.3451(8) 0.3419(4)
H8_2 H 0.0156 0.9666 0.6047
C22_2 C 0.0575(3) 0.8406(13) 0.7883(6)
C23_2 C 0.0203(3) 0.8999(12) 0.7844(6)
C24_2 C 0.0305(4) 0.958(2) 0.8570(8)
C26_2 C 0.0631(5) 0.762(2) 0.7248(9)
H19_2 H 0.0925 0.7327 0.7444
H20_2 H 0.0557 0.8221 0.6779
H21_2 H 0.0449 0.6796 0.7101
N3_2 N 0.0883(2) 0.8556(9) 0.8616(4)
N4_2 N 0.0708(3) 0.9249(14) 0.9042(6)
H22_2 H 0.0840 0.9451 0.9552
Co3_2 Co 0.14841(3) 0.79210(13) 0.91832(6)
O14_2 O 0.1530(2) 0.6549(8) 0.8419(4)
O18_2 O 0.20070(19) 0.9030(7) 0.9382(3)
C9_3 C 0.8058(3) 0.0159(9) 0.5283(5)
C10_3 C 0.7763(3) 0.1358(10) 0.5134(5)
C11_3 C 0.7784(4) 0.2489(11) 0.4678(7)
H5_3 H 0.7983 0.2482 0.4460
C12_3 C 0.7480(3) 0.1392(10) 0.5458(5)
H6_3 H 0.7466 0.0638 0.5778
C16_2 C 0.9937(6) 0.029(2) 0.6049(11)
H7_2 H 0.9746 0.0545 0.5499
O6_2 O 0.8356(2) 0.0208(8) 0.5093(5)
C18_3 C 0.6942(3) 0.4841(9) 0.4717(5)
C19_3 C 0.7237(3) 0.3642(10) 0.4866(5)
C20_3 C 0.7216(4) 0.2511(11) 0.5322(7)
H14_3 H 0.7017 0.2518 0.5540
C21_3 C 0.7520(3) 0.3608(10) 0.4542(5)
H15_3 H 0.7534 0.4362 0.4222
O7_3 O 0.70070(19) 0.5970(7) 0.4382(3)
O8_3 O 0.6644(2) 0.4792(8) 0.4907(5)
H18_2 H 0.9933 0.1140 0.8650
C1_2 C 0.8135(3) 0.6695(11) 0.4295(5)
C2_2 C 0.8138(3) 0.6051(11) 0.3560(5)
C3_2 C 0.7776(3) 0.5855(13) 0.2892(6)
H1_2 H 0.7518 0.6148 0.2888
C4_2 C 0.7773(3) 0.5231(14) 0.2209(6)
H2_2 H 0.7516 0.5138 0.1742
C5_2 C 0.8143(3) 0.4751(11) 0.2212(5)
C6_2 C 0.8510(3) 0.4956(15) 0.2890(6)
H3_2 H 0.8769 0.4634 0.2907
C7_2 C 0.8507(3) 0.5625(14) 0.3545(6)
H4_2 H 0.8765 0.5795 0.3997
C8_2 C 0.8137(3) 0.3971(10) 0.1501(5)
C13_2 C 0.9425(3) 0.8406(13) 0.7117(6)
C14_2 C 0.9797(3) 0.8999(12) 0.7156(6)
C15_2 C 0.9695(4) 0.958(2) 0.6430(8)
C17_2 C 0.9369(5) 0.762(2) 0.7752(9)
H10_2 H 0.9075 0.7327 0.7556
H11_2 H 0.9443 0.8221 0.8221
H12_2 H 0.9551 0.6796 0.7899
Co2_2 Co 0.85159(3) 0.79210(13) 0.58168(6)
N1_2 N 0.9117(2) 0.8556(9) 0.6384(4)
N2_2 N 0.9292(3) 0.9249(14) 0.5958(6)
H13_2 H 0.9160 0.9451 0.5448
O1_2 O 0.8479(2) 0.7002(8) 0.4843(4)
O2_2 O 0.7785(2) 0.6879(8) 0.4297(4)
O3_2 O 0.8470(2) 0.3451(8) 0.1581(4)
O5_2 O 0.79930(19) 0.9030(7) 0.5618(3)
H17_2 H 0.9844 0.9666 0.8953
O13_3 O 0.7215(2) 0.8121(8) 0.5703(4)
O15_2 O 0.8470(2) 0.6549(8) 0.6581(4)
O17_3 O 0.7796(2) 0.6083(7) 0.5886(3)
C11_4 C 0.2216(4) 0.2489(11) 0.0322(7)
H5_4 H 0.2017 0.2482 0.0540
C18_4 C 0.3058(3) 0.4841(9) 0.0283(5)
C19_4 C 0.2763(3) 0.3642(10) 0.0134(5)
C21_4 C 0.2480(3) 0.3608(10) 0.0458(5)
H15_4 H 0.2466 0.4362 0.0778
O7_4 O 0.29930(19) 0.5970(7) 0.0618(3)
O8_4 O 0.3356(2) 0.4792(8) 0.0093(5)
C9_4 C 0.1942(3) 0.0159(9) 0.9717(5)
C10_4 C 0.2237(3) 0.1358(10) 0.9866(5)
C12_4 C 0.2520(3) 0.1392(10) 0.9542(5)
H6_4 H 0.2534 0.0638 0.9222
C20_4 C 0.2784(4) 0.2511(11) 0.9678(7)
H14_4 H 0.2983 0.2518 0.9460
O13_4 O 0.2785(2) 0.8121(8) 0.9297(4)
O17_4 O 0.2204(2) 0.6083(7) 0.9114(3)
C5_3 C 0.6857(3) 0.0249(11) 0.7788(5)
C6_3 C 0.6490(3) 0.0044(15) 0.7110(6)
H3_3 H 0.6231 0.0366 0.7093
C8_3 C 0.6863(3) 0.1029(10) 0.8499(5)
C31_3 C 0.3143(3) 0.0249(11) 0.7212(5)
C32_3 C 0.3510(3) 0.0044(15) 0.7890(6)
H25_3 H 0.3769 0.0366 0.7907
C34_3 C 0.3137(3) 0.1029(10) 0.6501(5)
C1_3 C 0.6865(3) 0.8305(11) 0.5705(5)
C2_3 C 0.6862(3) 0.8949(11) 0.6440(5)
C3_3 C 0.7224(3) 0.9145(13) 0.7108(6)
H1_3 H 0.7482 0.8852 0.7112
C4_3 C 0.7227(3) 0.9769(14) 0.7791(6)
H2_3 H 0.7484 0.9862 0.8258
C7_3 C 0.6493(3) 0.9375(14) 0.6455(6)
H4_3 H 0.6235 0.9205 0.6003
C13_3 C 0.5575(3) 0.6594(13) 0.2883(6)
C14_3 C 0.5203(3) 0.6001(12) 0.2844(6)
C15_3 C 0.5305(4) 0.542(2) 0.3570(8)
C16_3 C 0.5063(6) 0.471(2) 0.3951(11)
H7_3 H 0.5254 0.4455 0.4501
H8_3 H 0.4844 0.5334 0.3953
H9_3 H 0.4933 0.3860 0.3650
C17_3 C 0.5631(5) 0.738(2) 0.2248(9)
H10_3 H 0.5925 0.7673 0.2444
H11_3 H 0.5557 0.6779 0.1779
H12_3 H 0.5449 0.8204 0.2101
N1_3 N 0.5883(2) 0.6444(9) 0.3616(4)
N2_3 N 0.5708(3) 0.5751(14) 0.4042(6)
H13_3 H 0.5840 0.5549 0.4552
O1_3 O 0.6521(2) 0.7998(8) 0.5157(4)
C22_3 C 0.4425(3) 0.6594(13) 0.2117(6)
C23_3 C 0.4797(3) 0.6001(12) 0.2156(6)
C24_3 C 0.4695(4) 0.542(2) 0.1430(8)
C25_3 C 0.4937(6) 0.471(2) 0.1049(11)
H16_3 H 0.4746 0.4455 0.0499
H17_3 H 0.5156 0.5334 0.1047
H18_3 H 0.5067 0.3860 0.1350
C26_3 C 0.4369(5) 0.738(2) 0.2752(9)
H19_3 H 0.4075 0.7673 0.2556
H20_3 H 0.4443 0.6779 0.3221
H21_3 H 0.4551 0.8204 0.2899
N3_3 N 0.4117(2) 0.6444(9) 0.1384(4)
N4_3 N 0.4292(3) 0.5751(14) 0.0958(6)
H22_3 H 0.4160 0.5549 0.0448
C27_3 C 0.3135(3) 0.8305(11) 0.9295(5)
C28_3 C 0.3138(3) 0.8949(11) 0.8560(5)
C29_3 C 0.2776(3) 0.9145(13) 0.7892(6)
H23_3 H 0.2518 0.8852 0.7888
C30_3 C 0.2773(3) 0.9769(14) 0.7209(6)
H24_3 H 0.2516 0.9862 0.6742
C33_3 C 0.3507(3) 0.9375(14) 0.8545(6)
H26_3 H 0.3765 0.9205 0.8997
O9_3 O 0.3479(2) 0.7998(8) 0.9843(4)
C1_4 C 0.1865(3) 0.3305(11) 0.5705(5)
C2_4 C 0.1862(3) 0.3949(11) 0.6440(5)
C3_4 C 0.2224(3) 0.4145(13) 0.7108(6)
H1_4 H 0.2482 0.3852 0.7112
C4_4 C 0.2227(3) 0.4769(14) 0.7791(6)
H2_4 H 0.2484 0.4862 0.8258
C5_4 C 0.1857(3) 0.5249(11) 0.7788(5)
C6_4 C 0.1490(3) 0.5044(15) 0.7110(6)
H3_4 H 0.1231 0.5366 0.7093
C7_4 C 0.1493(3) 0.4375(14) 0.6455(6)
H4_4 H 0.1235 0.4205 0.6003
C8_4 C 0.1863(3) 0.6029(10) 0.8499(5)
C13_4 C 0.0575(3) 0.1594(13) 0.2883(6)
C14_4 C 0.0203(3) 0.1001(12) 0.2844(6)
C15_4 C 0.0305(4) 0.042(2) 0.3570(8)
C17_4 C 0.0631(5) 0.238(2) 0.2248(9)
H10_4 H 0.0925 0.2673 0.2444
H11_4 H 0.0557 0.1779 0.1779
H12_4 H 0.0449 0.3204 0.2101
N1_4 N 0.0883(2) 0.1444(9) 0.3616(4)
N2_4 N 0.0708(3) 0.0751(14) 0.4042(6)
H13_4 H 0.0840 0.0549 0.4552
O1_4 O 0.1521(2) 0.2998(8) 0.5157(4)
H17_4 H 0.0156 0.0334 0.1047
C16_4 C 0.0063(6) 0.971(2) 0.3951(11)
H7_4 H 0.0254 0.9455 0.4501
H18_4 H 0.0067 0.8860 0.1350
H8_4 H 0.9844 0.0334 0.3953
C22_4 C 0.9425(3) 0.1594(13) 0.2117(6)
C23_4 C 0.9797(3) 0.1001(12) 0.2156(6)
C24_4 C 0.9695(4) 0.042(2) 0.1430(8)
C26_4 C 0.9369(5) 0.238(2) 0.2752(9)
H19_4 H 0.9075 0.2673 0.2556
H20_4 H 0.9443 0.1779 0.3221
H21_4 H 0.9551 0.3204 0.2899
N3_4 N 0.9117(2) 0.1444(9) 0.1384(4)
N4_4 N 0.9292(3) 0.0751(14) 0.0958(6)
H22_4 H 0.9160 0.0549 0.0448
C27_4 C 0.8135(3) 0.3305(11) 0.9295(5)
C28_4 C 0.8138(3) 0.3949(11) 0.8560(5)
C29_4 C 0.7776(3) 0.4145(13) 0.7892(6)
H23_4 H 0.7518 0.3852 0.7888
C30_4 C 0.7773(3) 0.4769(14) 0.7209(6)
H24_4 H 0.7516 0.4862 0.6742
C31_4 C 0.8143(3) 0.5249(11) 0.7212(5)
C32_4 C 0.8510(3) 0.5044(15) 0.7890(6)
H25_4 H 0.8769 0.5366 0.7907
C33_4 C 0.8507(3) 0.4375(14) 0.8545(6)
H26_4 H 0.8765 0.4205 0.8997
C34_4 C 0.8137(3) 0.6029(10) 0.6501(5)
O9_4 O 0.8479(2) 0.2998(8) 0.9843(4)
H9_4 H 0.9933 0.8860 0.3650
C25_4 C 0.9937(6) 0.971(2) 0.1049(11)
H16_4 H 0.9746 0.9455 0.0499
loop_
_geom_bond_atom_site_label_1
_geom_bond_atom_site_label_2
_geom_bond_site_symmetry_1
_geom_bond_site_symmetry_2
Co4 O7 1_555 1_555
Co10 O7 1_555 1_555
C27 C28 1_555 1_555
C28 C29 1_555 1_555
C29 H23 1_555 1_555
C30 C29 1_555 1_555
H24 C30 1_555 1_555
C33 C28 1_555 1_555
H26 C33 1_555 1_555
O9 C27 1_555 1_555
O10 C27 1_555 1_555
Co5 O10 1_555 1_555
C1 C2 1_555 1_555
C2 C3 1_555 1_555
C3 H1 1_555 1_555
C4 C3 1_555 1_555
H2 C4 1_555 1_555
C7 C2 1_555 1_555
H4 C7 1_555 1_555
C9 C10 1_555 1_555
C10 C11 1_555 1_555
C11 H5 1_555 1_555
C12 C10 1_555 1_555
H6 C12 1_555 1_555
C13 C14 1_555 1_555
C14 C15 1_555 1_555
C15 C16 1_555 1_555
C16 H7 1_555 1_555
H8 C16 1_555 1_555
H9 C16 1_555 1_555
C17 C13 1_555 1_555
H10 C17 1_555 1_555
H11 C17 1_555 1_555
H12 C17 1_555 1_555
Co4 O2 1_555 1_555
Co2 N1 1_555 1_555
N1 C13 1_555 1_555
N2 C15 1_555 1_555
H13 N2 1_555 1_555
O1 C1 1_555 1_555
O2 C1 1_555 1_555
O5 C9 1_555 1_555
O6 C9 1_555 1_555
C18 C19 1_555 1_555
C19 C20 1_555 1_555
C20 C12 1_555 1_555
H14 C20 1_555 1_555
C21 C11 1_555 1_555
H15 C21 1_555 1_555
O8 C18 1_555 1_555
C22 C23 1_555 1_555
C23 C14 1_555 1_555
C24 C23 1_555 1_555
C25 C24 1_555 1_555
H16 C25 1_555 1_555
H17 C25 1_555 1_555
H18 C25 1_555 1_555
C26 C22 1_555 1_555
H19 C26 1_555 1_555
H20 C26 1_555 1_555
H21 C26 1_555 1_555
N3 C22 1_555 1_555
N4 C24 1_555 1_555
H22 N4 1_555 1_555
Co3 N3 1_555 1_555
O13 Co4 1_555 1_555
O14 Co3 1_555 1_555
O15 Co2 1_555 1_555
O16 Co4 1_555 1_555
O17 Co4 1_555 1_555
O18 Co3 1_555 1_555
O20 Co3 1_555 1_555
Co4 O5 1_555 1_555
Co2 O1 1_555 1_555
Co2 O5 1_555 1_555
Co2 O6 1_555 1_555
N1 N2 1_555 1_555
C19 C21 1_555 1_555
N3 N4 1_555 1_555
Co5_2 O18 1_555 1_555
C32 C31 1_555 1_555
H25 C32 1_555 1_555
C34 C31 1_555 1_555
O11 C34 1_555 1_555
O12 C34 1_555 1_555
Co6 O12 1_555 1_555
Co8 O11 1_555 1_555
C6 C5 1_555 1_555
H3 C6 1_555 1_555
C8 C5 1_555 1_555
O3 C8 1_555 1_555
O4 C8 1_555 1_555
Co7 O4 1_555 1_555
Co9 O3 1_555 1_555
Co5 O7_2 1_555 1_555
Co10_2 O7_2 1_555 1_555
C11_2 H5_2 1_555 1_555
C18_2 C19_2 1_555 1_555
C21_2 C11_2 1_555 1_555
H15_2 C21_2 1_555 1_555
O8_2 C18_2 1_555 1_555
O16_2 Co5 1_555 1_555
C19_2 C21_2 1_555 1_555
C9_2 C10_2 1_555 1_555
C12_2 C10_2 1_555 1_555
H6_2 C12_2 1_555 1_555
O18 C9_2 1_555 1_555
O20 C9_2 1_555 1_555
C20_2 C12_2 1_555 1_555
H14_2 C20_2 1_555 1_555
O13_2 Co5_2 1_555 1_555
O17_2 Co5_2 1_555 1_555
H16_2 C25_2 1_555 1_555
C27_2 C28_2 1_555 1_555
C28_2 C29_2 1_555 1_555
C29_2 H23_2 1_555 1_555
C30_2 C29_2 1_555 1_555
H24_2 C30_2 1_555 1_555
C31_2 C30_2 1_555 1_555
C32_2 C31_2 1_555 1_555
H25_2 C32_2 1_555 1_555
C33_2 C28_2 1_555 1_555
H26_2 C33_2 1_555 1_555
C34_2 C31_2 1_555 1_555
O9_2 C27_2 1_555 1_555
O10_2 C27_2 1_555 1_555
O11_2 C34_2 1_555 1_555
O16 C34_2 1_555 1_555
Co7 O10_2 1_555 1_555
Co10 O11_2 1_555 1_555
C32_2 C33_2 1_555 1_555
C22_2 C23_2 1_555 1_555
C24_2 C23_2 1_555 1_555
C26_2 C22_2 1_555 1_555
H19_2 C26_2 1_555 1_555
H20_2 C26_2 1_555 1_555
H21_2 C26_2 1_555 1_555
N3_2 C22_2 1_555 1_555
N4_2 C24_2 1_555 1_555
H22_2 N4_2 1_555 1_555
Co3_2 N3_2 1_555 1_555
O14_2 Co3_2 1_555 1_555
O18_2 Co3_2 1_555 1_555
N3_2 N4_2 1_555 1_555
Co7_2 O18_2 1_555 1_555
C9_3 C10_3 1_555 1_555
C10_3 C11_3 1_555 1_555
C11_3 H5_3 1_555 1_555
C12_3 C10_3 1_555 1_555
H6_3 C12_3 1_555 1_555
C16_2 H7_2 1_555 1_555
O6_2 C9_3 1_555 1_555
C18_3 C19_3 1_555 1_555
C19_3 C20_3 1_555 1_555
C20_3 C12_3 1_555 1_555
H14_3 C20_3 1_555 1_555
C21_3 C11_3 1_555 1_555
H15_3 C21_3 1_555 1_555
O7_3 C18_3 1_555 1_555
O8_3 C18_3 1_555 1_555
Co6 O7_3 1_555 1_555
Co8 O7_3 1_555 1_555
C19_3 C21_3 1_555 1_555
O8_3 Co8 1_555 1_555
C1_2 C2_2 1_555 1_555
C2_2 C3_2 1_555 1_555
C3_2 H1_2 1_555 1_555
C4_2 C3_2 1_555 1_555
H2_2 C4_2 1_555 1_555
C5_2 C4_2 1_555 1_555
C6_2 C5_2 1_555 1_555
H3_2 C6_2 1_555 1_555
C7_2 C2_2 1_555 1_555
H4_2 C7_2 1_555 1_555
C8_2 C5_2 1_555 1_555
C13_2 C14_2 1_555 1_555
C14_2 C15_2 1_555 1_555
C17_2 C13_2 1_555 1_555
H10_2 C17_2 1_555 1_555
H11_2 C17_2 1_555 1_555
H12_2 C17_2 1_555 1_555
Co6 O2_2 1_555 1_555
Co2_2 N1_2 1_555 1_555
N1_2 C13_2 1_555 1_555
N2_2 C15_2 1_555 1_555
H13_2 N2_2 1_555 1_555
O1_2 C1_2 1_555 1_555
O2_2 C1_2 1_555 1_555
O3_2 C8_2 1_555 1_555
O16_2 C8_2 1_555 1_555
Co10_2 O3_2 1_555 1_555
O13_3 Co6 1_555 1_555
O15_2 Co2_2 1_555 1_555
O17_3 Co6 1_555 1_555
C6_2 C7_2 1_555 1_555
Co6 O5_2 1_555 1_555
Co2_2 O1_2 1_555 1_555
Co2_2 O5_2 1_555 1_555
N1_2 N2_2 1_555 1_555
C11_4 H5_4 1_555 1_555
C18_4 C19_4 1_555 1_555
C21_4 C11_4 1_555 1_555
H15_4 C21_4 1_555 1_555
O7_4 C18_4 1_555 1_555
O8_4 C18_4 1_555 1_555
Co7 O7_4 1_555 1_555
Co9 O7_4 1_555 1_555
C19_4 C21_4 1_555 1_555
O8_4 Co9 1_555 1_555
C9_4 C10_4 1_555 1_555
C12_4 C10_4 1_555 1_555
H6_4 C12_4 1_555 1_555
O20_2 C9_4 1_555 1_555
C20_4 C12_4 1_555 1_555
H14_4 C20_4 1_555 1_555
O13_4 Co7_2 1_555 1_555
O17_4 Co7_2 1_555 1_555
C6_3 C5_3 1_555 1_555
H3_3 C6_3 1_555 1_555
C8_3 C5_3 1_555 1_555
O14 C8_3 1_555 1_555
O17_2 C8_3 1_555 1_555
C32_3 C31_3 1_555 1_555
H25_3 C32_3 1_555 1_555
C34_3 C31_3 1_555 1_555
O15 C34_3 1_555 1_555
O17 C34_3 1_555 1_555
C1_3 C2_3 1_555 1_555
C2_3 C3_3 1_555 1_555
C3_3 H1_3 1_555 1_555
C4_3 C3_3 1_555 1_555
H2_3 C4_3 1_555 1_555
C7_3 C2_3 1_555 1_555
H4_3 C7_3 1_555 1_555
C13_3 C14_3 1_555 1_555
C14_3 C15_3 1_555 1_555
C15_3 C16_3 1_555 1_555
C16_3 H7_3 1_555 1_555
H8_3 C16_3 1_555 1_555
H9_3 C16_3 1_555 1_555
C17_3 C13_3 1_555 1_555
H10_3 C17_3 1_555 1_555
H11_3 C17_3 1_555 1_555
H12_3 C17_3 1_555 1_555
Co8 N1_3 1_555 1_555
N1_3 C13_3 1_555 1_555
N2_3 C15_3 1_555 1_555
H13_3 N2_3 1_555 1_555
O1_3 C1_3 1_555 1_555
O13_3 C1_3 1_555 1_555
C22_3 C23_3 1_555 1_555
C23_3 C14_3 1_555 1_555
C24_3 C23_3 1_555 1_555
C25_3 C24_3 1_555 1_555
H16_3 C25_3 1_555 1_555
H17_3 C25_3 1_555 1_555
H18_3 C25_3 1_555 1_555
C26_3 C22_3 1_555 1_555
H19_3 C26_3 1_555 1_555
H20_3 C26_3 1_555 1_555
H21_3 C26_3 1_555 1_555
N3_3 C22_3 1_555 1_555
N4_3 C24_3 1_555 1_555
H22_3 N4_3 1_555 1_555
Co9 N3_3 1_555 1_555
Co8 O1_3 1_555 1_555
N1_3 N2_3 1_555 1_555
N3_3 N4_3 1_555 1_555
C27_3 C28_3 1_555 1_555
C28_3 C29_3 1_555 1_555
C29_3 H23_3 1_555 1_555
C30_3 C29_3 1_555 1_555
H24_3 C30_3 1_555 1_555
C33_3 C28_3 1_555 1_555
H26_3 C33_3 1_555 1_555
O9_3 C27_3 1_555 1_555
O13_4 C27_3 1_555 1_555
C1_4 C2_4 1_555 1_555
C2_4 C3_4 1_555 1_555
C3_4 H1_4 1_555 1_555
C4_4 C3_4 1_555 1_555
H2_4 C4_4 1_555 1_555
C5_4 C4_4 1_555 1_555
C6_4 C5_4 1_555 1_555
H3_4 C6_4 1_555 1_555
C7_4 C2_4 1_555 1_555
H4_4 C7_4 1_555 1_555
C8_4 C5_4 1_555 1_555
C13_4 C14_4 1_555 1_555
C14_4 C15_4 1_555 1_555
C17_4 C13_4 1_555 1_555
H10_4 C17_4 1_555 1_555
H11_4 C17_4 1_555 1_555
H12_4 C17_4 1_555 1_555
Co10 N1_4 1_555 1_555
N1_4 C13_4 1_555 1_555
N2_4 C15_4 1_555 1_555
H13_4 N2_4 1_555 1_555
O1_4 C1_4 1_555 1_555
O13 C1_4 1_555 1_555
O14_2 C8_4 1_555 1_555
O17_4 C8_4 1_555 1_555
C6_4 C7_4 1_555 1_555
Co10 O1_4 1_555 1_555
N1_4 N2_4 1_555 1_555
C16_4 H7_4 1_555 1_555
C22_4 C23_4 1_555 1_555
C24_4 C23_4 1_555 1_555
C26_4 C22_4 1_555 1_555
H19_4 C26_4 1_555 1_555
H20_4 C26_4 1_555 1_555
H21_4 C26_4 1_555 1_555
N3_4 C22_4 1_555 1_555
N4_4 C24_4 1_555 1_555
H22_4 N4_4 1_555 1_555
Co10_2 N3_4 1_555 1_555
N3_4 N4_4 1_555 1_555
C27_4 C28_4 1_555 1_555
C28_4 C29_4 1_555 1_555
C29_4 H23_4 1_555 1_555
C30_4 C29_4 1_555 1_555
H24_4 C30_4 1_555 1_555
C31_4 C30_4 1_555 1_555
C32_4 C31_4 1_555 1_555
H25_4 C32_4 1_555 1_555
C33_4 C28_4 1_555 1_555
H26_4 C33_4 1_555 1_555
C34_4 C31_4 1_555 1_555
O9_4 C27_4 1_555 1_555
O13_2 C27_4 1_555 1_555
O15_2 C34_4 1_555 1_555
O17_3 C34_4 1_555 1_555
C32_4 C33_4 1_555 1_555
H16_4 C25_4 1_555 1_555

#END
