
###############################################################################
#
# This file contains modified crystal structure data generated from the
# MOF subset of the Cambridge Structural Database (CSD) v543 
# hosted by the Cambridge Crystallographic Data Centre (CCDC).
#
# This work is licensed under the Creative Commons
# Attribution-NonCommercial-ShareAlike 4.0 International License.
# To view a copy of this license, visit
# http://creativecommons.org/licenses/by-nc-sa/4.0/
# or send a letter to
# Creative Commons, PO Box 1866, Mountain View, CA 94042, USA.
#
# CIF created using the CSD Python API on 29 September 2022
# The structure has been converted into the P1 space group
# The structure has a 3D framework
# The original CSD entry BEDWIS is in the triclinic crystal system
# The framework has been calculated to contain at least 10.0% void space
# The void calculation uses a probe of radius 1.32A, grid spacing 0.4
#
###############################################################################

data_BEDWIS
_chemical_formula_moiety         '(C60 H40 Fe12 N24 Pt4 S8)n'
_symmetry_cell_setting           triclinic
_symmetry_space_group_name_H-M   'P 1'
_symmetry_Int_Tables_number      1
_space_group_name_Hall           'P 1'
loop_
_symmetry_equiv_pos_site_id
_symmetry_equiv_pos_as_xyz
1 x,y,z
_cell_length_a                   28.9873(12)
_cell_length_b                   7.2951(3)
_cell_length_c                   13.9898(5)
_cell_angle_alpha                90.003(2)
_cell_angle_beta                 103.726(3)
_cell_angle_gamma                89.974(2)
_cell_volume                     2873.87
loop_
_atom_site_label
_atom_site_type_symbol
_atom_site_fract_x
_atom_site_fract_y
_atom_site_fract_z
Fe8 Fe 0.5000 0.0000 0.0000
Fe8_2 Fe 0.5000 0.0000 1.0000
Fe6 Fe 0.24654(6) 0.0004(3) 0.99691(14)
Pt12 Pt 0.62954(2) 0.49951(8) 0.00201(5)
N22 N 0.4495(5) 0.2011(19) 0.0102(12)
S3 S 0.31827(18) 0.0877(8) 0.4798(4)
S4 S 0.42873(19) 0.0856(8) 0.5141(4)
N8 N 0.4483(4) 0.8031(17) 0.0057(10)
N11 N 0.2698(4) 0.0087(17) 0.1455(9)
N12 N 0.4749(5) 0.0082(18) 0.8428(10)
C7 C 0.4213(5) 0.313(2) 0.0053(12)
C8 C 0.4208(4) 0.692(2) 0.0052(11)
C21 C 0.2528(6) 0.013(3) 0.3058(13)
H12 H 0.2302 0.0021 0.3448
C22 C 0.3020(6) 0.050(3) 0.3509(13)
C23 C 0.3333(6) 0.057(3) 0.2903(14)
H13 H 0.3660 0.0822 0.3169
C24 C 0.3165(5) 0.028(2) 0.1907(12)
H14 H 0.3390 0.0210 0.1513
C25 C 0.3734(6) 0.213(3) 0.4971(16)
H15 H 0.3760 0.2937 0.5551
H16 H 0.3709 0.2942 0.4392
C26 C 0.4436(6) 0.052(3) 0.6396(12)
C27 C 0.4899(7) 0.014(3) 0.6816(15)
H17 H 0.5121 0.0017 0.6418
C29 C 0.4289(6) 0.035(2) 0.8041(12)
H19 H 0.4072 0.0401 0.8454
C30 C 0.4126(6) 0.057(3) 0.7025(14)
H20 H 0.3796 0.0751 0.6754
Fe8_3 Fe 0.5000 1.0000 0.0000
N15 N 0.1992(3) 0.1920(15) 0.0039(7)
N23 N 0.5517(4) 0.1969(17) 0.9943(10)
C35 C 0.1702(4) 0.3061(18) 0.0009(10)
C45 C 0.5792(4) 0.308(2) 0.9948(11)
Pt2 Pt 0.37046(2) 0.50049(8) 0.99799(5)
Fe1 Fe 0.0000 0.0000 0.0000
N4 N 0.2002(4) 0.8041(17) 0.0064(9)
N5 N 0.2924(4) 0.1949(17) 0.9886(9)
C4 C 0.1702(4) 0.6876(19) 0.0048(10)
C5 C 0.3207(6) 0.308(2) 0.9906(13)
C18 C 0.2547(5) 0.007(2) 0.7918(11)
H9 H 0.2869 0.0328 0.8228
H10 H 0.2653 0.0002 0.6529
Pt6 Pt 0.122072(17) 0.49884(8) 0.99856(4)
Fe8_4 Fe 0.5000 1.0000 1.0000
C41 C 0.3214(6) 0.701(2) 0.9926(12)
Fe1_2 Fe 0.0000 0.0000 1.0000
N1 N 0.0460(4) 0.1847(15) 0.9959(9)
C1 C 0.0725(4) 0.3006(17) 0.9951(9)
C33 C 0.0721(4) 0.6930(18) 0.9913(9)
H23 H 0.0162 0.0021 0.6546
N29 N 0.5251(5) 0.9918(18) 0.1572(10)
C20 C 0.2391(5) 0.994(3) 0.2045(13)
H11 H 0.2067 0.9698 0.1750
C28 C 0.5047(7) 0.992(3) 0.7846(16)
H18 H 0.5371 0.9641 0.8131
N21 N 0.5505(5) 0.7989(19) 0.9898(12)
C43 C 0.5787(5) 0.687(2) 0.9947(12)
Fe1_3 Fe 0.0000 1.0000 0.0000
S1 S 0.06877(16) 0.9140(7) 0.4808(3)
S2 S 0.17897(16) 0.9156(7) 0.5150(3)
N6 N 0.2936(4) 0.8094(19) 0.9920(9)
N9 N 0.0217(4) 0.9923(17) 0.1458(8)
N10 N 0.2231(4) 0.9913(16) 0.8484(9)
C9 C 0.0678(5) 0.968(2) 0.1897(11)
H1 H 0.0899 0.9676 0.1494
C10 C 0.0853(5) 0.943(2) 0.2908(11)
H2 H 0.1181 0.9233 0.3179
C11 C 0.0536(5) 0.949(2) 0.3504(10)
C12 C 0.0062(6) 0.985(3) 0.3062(12)
C14 C 0.1243(6) 0.788(2) 0.4973(11)
H5 H 0.1269 0.7060 0.5547
H6 H 0.1218 0.7085 0.4389
C15 C 0.1944(5) 0.948(2) 0.6440(10)
C16 C 0.1625(5) 0.941(2) 0.7040(10)
H7 H 0.1298 0.9190 0.6759
C17 C 0.1781(5) 0.967(2) 0.8041(11)
H8 H 0.1553 0.9662 0.8430
C19 C 0.2422(5) 0.988(3) 0.6905(14)
Fe1_4 Fe 0.0000 1.0000 1.0000
N2 N 0.0453(4) 0.8085(16) 0.9917(10)
C51 C 0.0081(5) 0.997(2) 0.7941(11)
H24 H 0.0408 0.9753 0.8225
Fe1_5 Fe 1.0000 0.0000 0.0000
C13 C 0.9919(5) 0.003(2) 0.2059(11)
H4 H 0.9592 0.0247 0.1775
Pt5 Pt 0.877928(17) 0.50116(8) 0.00144(4)
N14 N 0.9547(4) 0.1915(16) 0.0083(10)
C32 C 0.9279(4) 0.3070(18) 0.0087(9)
Fe1_6 Fe 1.0000 0.0000 1.0000
S5 S 0.93123(16) 0.0860(7) 0.5192(3)
S6 S 0.82103(16) 0.0844(7) 0.4850(3)
N20 N 0.7064(4) 0.1906(19) 0.0080(9)
N25 N 0.9783(4) 0.0077(17) 0.8542(8)
N26 N 0.7769(4) 0.0087(16) 0.1516(9)
C40 C 0.6786(6) 0.299(2) 0.0074(12)
C47 C 0.9322(5) 0.032(2) 0.8103(11)
H21 H 0.9101 0.0324 0.8506
C48 C 0.9147(5) 0.057(2) 0.7092(11)
H22 H 0.8819 0.0767 0.6821
C49 C 0.9464(5) 0.051(2) 0.6496(10)
C50 C 0.9938(6) 0.015(3) 0.6938(12)
C52 C 0.8757(6) 0.212(2) 0.5027(11)
H25 H 0.8731 0.2940 0.4453
H26 H 0.8782 0.2915 0.5611
C53 C 0.8056(5) 0.052(2) 0.3560(10)
C54 C 0.8375(5) 0.059(2) 0.2960(10)
H27 H 0.8702 0.0810 0.3241
C55 C 0.8219(5) 0.033(2) 0.1959(11)
H28 H 0.8447 0.0338 0.1570
C57 C 0.7578(5) 0.012(3) 0.3095(14)
N18 N 0.7998(4) 0.1959(17) 0.9936(9)
C58 C 0.7609(5) 0.006(3) 0.7955(13)
H31 H 0.7933 0.0302 0.8250
C66 C 0.4953(7) 0.008(3) 0.2154(16)
H38 H 0.4629 0.0359 0.1869
Fe1_7 Fe 1.0000 1.0000 0.0000
H3 H 0.9838 0.9979 0.3454
N13 N 0.9540(4) 0.8153(15) 0.0041(9)
C31 C 0.9275(4) 0.6994(17) 0.0049(9)
Fe1_8 Fe 1.0000 1.0000 1.0000
Fe4 Fe 0.75346(6) 0.9996(3) 0.00309(14)
N19 N 0.7076(4) 0.8051(17) 0.0114(9)
C36 C 0.8298(4) 0.6939(18) 0.9991(10)
C38 C 0.8298(4) 0.3124(19) 0.9952(10)
C39 C 0.6793(6) 0.692(2) 0.0094(13)
C56 C 0.7453(5) 0.993(2) 0.2082(11)
H29 H 0.7131 0.9672 0.1772
H30 H 0.7347 0.9998 0.3471
S7 S 0.68173(18) 0.9123(8) 0.5202(4)
S8 S 0.57127(19) 0.9144(8) 0.4859(4)
N16 N 0.8008(3) 0.8080(15) 0.9961(7)
N27 N 0.7302(4) 0.9913(17) 0.8545(9)
C59 C 0.7472(6) 0.987(3) 0.6942(13)
H32 H 0.7698 0.9979 0.6552
C60 C 0.6980(6) 0.950(3) 0.6491(13)
C61 C 0.6667(6) 0.943(3) 0.7097(14)
H33 H 0.6340 0.9178 0.6831
C62 C 0.6835(5) 0.972(2) 0.8093(12)
H34 H 0.6610 0.9790 0.8487
C63 C 0.6266(6) 0.787(3) 0.5029(16)
H35 H 0.6240 0.7063 0.4449
H36 H 0.6291 0.7058 0.5608
C64 C 0.5564(6) 0.948(3) 0.3604(12)
C65 C 0.5101(7) 0.986(3) 0.3184(15)
H37 H 0.4879 0.9983 0.3582
C67 C 0.5711(6) 0.965(2) 0.1959(12)
H39 H 0.5928 0.9599 0.1546
C68 C 0.5874(6) 0.943(3) 0.2975(14)
H40 H 0.6204 0.9249 0.3246
loop_
_geom_bond_atom_site_label_1
_geom_bond_atom_site_label_2
_geom_bond_site_symmetry_1
_geom_bond_site_symmetry_2
N22 Fe8 1_555 1_555
Fe8_2 N12 1_555 1_555
S3 C22 1_555 1_555
S4 C25 1_555 1_555
N22 C7 1_555 1_555
N8 C8 1_555 1_555
H12 C21 1_555 1_555
C22 C21 1_555 1_555
C23 C22 1_555 1_555
H13 C23 1_555 1_555
C24 N11 1_555 1_555
H14 C24 1_555 1_555
C25 S3 1_555 1_555
H15 C25 1_555 1_555
H16 C25 1_555 1_555
C26 S4 1_555 1_555
C27 C26 1_555 1_555
H17 C27 1_555 1_555
C29 N12 1_555 1_555
H19 C29 1_555 1_555
C30 C26 1_555 1_555
H20 C30 1_555 1_555
Fe8_3 N8 1_555 1_555
N23 Fe8_2 1_555 1_555
C35 N15 1_555 1_555
C45 N23 1_555 1_555
C23 C24 1_555 1_555
C29 C30 1_555 1_555
Pt2 C5 1_555 1_555
Fe6 N5 1_555 1_555
N4 C4 1_555 1_555
N5 C5 1_555 1_555
H9 C18 1_555 1_555
C41 Pt2 1_555 1_555
Pt6 C1 1_555 1_555
Fe1_2 N1 1_555 1_555
N1 C1 1_555 1_555
C33 Pt6 1_555 1_555
N29 Fe8_3 1_555 1_555
H11 C20 1_555 1_555
H18 C28 1_555 1_555
N21 Fe8_4 1_555 1_555
C43 N21 1_555 1_555
S1 C11 1_555 1_555
S2 C14 1_555 1_555
N9 Fe1_3 1_555 1_555
C41 N6 1_555 1_555
C9 N9 1_555 1_555
H1 C9 1_555 1_555
C10 C9 1_555 1_555
H2 C10 1_555 1_555
C11 C10 1_555 1_555
C12 C11 1_555 1_555
C14 S1 1_555 1_555
H5 C14 1_555 1_555
H6 C14 1_555 1_555
C15 S2 1_555 1_555
C16 C15 1_555 1_555
H7 C16 1_555 1_555
C17 N10 1_555 1_555
H8 C17 1_555 1_555
C19 C15 1_555 1_555
C16 C17 1_555 1_555
N2 Fe1_4 1_555 1_555
C33 N2 1_555 1_555
H24 C51 1_555 1_555
H4 C13 1_555 1_555
Pt5 C32 1_555 1_555
N14 Fe1_5 1_555 1_555
C32 N14 1_555 1_555
Pt12 C40 1_555 1_555
S5 C49 1_555 1_555
S6 C52 1_555 1_555
N25 Fe1_6 1_555 1_555
C40 N20 1_555 1_555
C47 N25 1_555 1_555
H21 C47 1_555 1_555
C48 C47 1_555 1_555
H22 C48 1_555 1_555
C49 C48 1_555 1_555
C50 C49 1_555 1_555
C52 S5 1_555 1_555
H25 C52 1_555 1_555
H26 C52 1_555 1_555
C53 S6 1_555 1_555
C54 C53 1_555 1_555
H27 C54 1_555 1_555
C55 N26 1_555 1_555
H28 C55 1_555 1_555
C57 C53 1_555 1_555
C54 C55 1_555 1_555
H31 C58 1_555 1_555
H38 C66 1_555 1_555
Pt5 C31 1_555 1_555
N13 Fe1_7 1_555 1_555
C31 N13 1_555 1_555
Pt12 C39 1_555 1_555
N19 Fe4 1_555 1_555
C39 N19 1_555 1_555
H29 C56 1_555 1_555
S7 C60 1_555 1_555
S8 C63 1_555 1_555
H32 C59 1_555 1_555
C60 C59 1_555 1_555
C61 C60 1_555 1_555
H33 C61 1_555 1_555
C62 N27 1_555 1_555
H34 C62 1_555 1_555
C63 S7 1_555 1_555
H35 C63 1_555 1_555
H36 C63 1_555 1_555
C64 S8 1_555 1_555
C65 C64 1_555 1_555
H37 C65 1_555 1_555
C67 N29 1_555 1_555
H39 C67 1_555 1_555
C68 C64 1_555 1_555
H40 C68 1_555 1_555
C61 C62 1_555 1_555
C67 C68 1_555 1_555
C38 N18 1_555 1_555
N16 C36 1_555 1_555

#END
