
###############################################################################
#
# This file contains modified crystal structure data generated from the
# MOF subset of the Cambridge Structural Database (CSD) v543 
# hosted by the Cambridge Crystallographic Data Centre (CCDC).
#
# This work is licensed under the Creative Commons
# Attribution-NonCommercial-ShareAlike 4.0 International License.
# To view a copy of this license, visit
# http://creativecommons.org/licenses/by-nc-sa/4.0/
# or send a letter to
# Creative Commons, PO Box 1866, Mountain View, CA 94042, USA.
#
# CIF created using the CSD Python API on 29 September 2022
# The structure has been converted into the P1 space group
# The structure has a 3D framework
# The original CSD entry BEFJOO is in the monoclinic crystal system
# The framework has been calculated to contain at least 10.0% void space
# The void calculation uses a probe of radius 1.32A, grid spacing 0.4
#
###############################################################################

data_BEFJOO
_chemical_formula_moiety         '(C112 H64 N4 O16 Zn4)n'
_symmetry_cell_setting           triclinic
_symmetry_space_group_name_H-M   'P 1'
_symmetry_Int_Tables_number      1
_space_group_name_Hall           'P 1'
loop_
_symmetry_equiv_pos_site_id
_symmetry_equiv_pos_as_xyz
1 x,y,z
_cell_length_a                   7.8228(4)
_cell_length_b                   19.9800(10)
_cell_length_c                   17.1179(7)
_cell_angle_alpha                90
_cell_angle_beta                 91.0870(10)
_cell_angle_gamma                90
_cell_volume                     2675.04
loop_
_atom_site_label
_atom_site_type_symbol
_atom_site_fract_x
_atom_site_fract_y
_atom_site_fract_z
Zn6 Zn 0.13715(4) 0.49728(2) 0.44134(2)
O10 O 0.0422(3) 0.56845(11) 0.59899(12)
O12 O 0.0156(3) 0.42610(11) 0.59910(12)
H16 H 0.933(5) 0.565(2) 0.184(2)
N2 N 0.2980(3) 0.49142(12) 0.35065(12)
H17 H 0.487(6) 0.536(2) 0.411(3)
H18 H 0.690(6) 0.531(2) 0.301(2)
H19 H 0.329(5) 0.432(2) 0.170(2)
H20 H 0.135(6) 0.448(2) 0.277(2)
H21 H 0.608(5) 0.4208(19) 0.011(2)
C29 C 0.4568(4) 0.5138(2) 0.3574(2)
C30 C 0.5711(5) 0.5116(2) 0.2972(2)
C31 C 0.5221(4) 0.48510(18) 0.22785(19)
C32 C 0.3608(5) 0.4596(2) 0.2203(2)
C33 C 0.2533(5) 0.4640(2) 0.2830(2)
C34 C 0.6402(5) 0.4852(2) 0.1642(2)
C35 C 0.7440(5) 0.4892(2) 0.1143(2)
C36 C 0.8725(5) 0.4951(2) 0.0562(2)
H25 H 0.507(4) 0.6271(16) 0.5665(19)
O5 O 0.2544(3) 0.56389(11) 0.51425(12)
H26 H 0.096(6) 0.660(2) 0.693(2)
O7 O 0.9844(3) 0.92610(11) 0.90090(12)
H27 H 0.248(5) 0.732(2) 0.776(2)
O8 O 0.7755(3) 0.92228(11) 0.98666(12)
H28 H 0.670(5) 0.6935(18) 0.651(2)
C43 C 0.1863(4) 0.58523(15) 0.57474(17)
C44 C 0.2848(4) 0.63454(15) 0.62434(16)
C45 C 0.4558(4) 0.64719(17) 0.61072(18)
C46 C 0.5484(5) 0.68901(18) 0.65895(19)
C47 C 0.4753(4) 0.72082(16) 0.72242(18)
H29 H 0.772(5) 0.7794(19) 0.707(2)
C48 C 0.3034(5) 0.7087(2) 0.7341(2)
H30 H 0.945(5) 0.850(2) 0.796(2)
C49 C 0.2101(5) 0.6658(2) 0.6868(2)
H31 H 0.555(6) 0.839(2) 0.941(3)
C50 C 0.5756(4) 0.76499(17) 0.77575(18)
H32 H 0.411(7) 0.769(3) 0.860(3)
C51 C 0.7328(5) 0.7903(2) 0.7568(2)
C52 C 0.8232(5) 0.83225(19) 0.8060(2)
C53 C 0.7578(4) 0.85181(16) 0.87609(17)
C54 C 0.6040(6) 0.8255(3) 0.8967(2)
C55 C 0.5148(6) 0.7828(3) 0.8475(2)
C56 C 0.8478(4) 0.90356(15) 0.92582(17)
O14 O 0.2245(3) 0.42228(11) 0.51334(12)
H25_2 H 0.493(4) 0.1271(16) 0.9335(19)
O5_2 O 0.7456(3) 0.06389(11) 0.98575(12)
O6 O 0.9578(3) 0.06845(11) 0.90101(12)
H26_2 H 0.904(6) 0.160(2) 0.807(2)
H27_2 H 0.752(5) 0.232(2) 0.724(2)
H28_2 H 0.330(5) 0.1935(18) 0.849(2)
C43_2 C 0.8137(4) 0.08523(15) 0.92526(17)
C44_2 C 0.7152(4) 0.13454(15) 0.87566(16)
C45_2 C 0.5442(4) 0.14719(17) 0.88928(18)
C46_2 C 0.4516(5) 0.18901(18) 0.84105(19)
C47_2 C 0.5247(4) 0.22082(16) 0.77758(18)
H29_2 H 0.228(5) 0.2794(19) 0.793(2)
C48_2 C 0.6966(5) 0.2087(2) 0.7659(2)
H30_2 H 0.055(5) 0.350(2) 0.704(2)
C49_2 C 0.7899(5) 0.1658(2) 0.8132(2)
H31_2 H 0.445(6) 0.339(2) 0.559(3)
C50_2 C 0.4244(4) 0.26499(17) 0.72425(18)
H32_2 H 0.589(7) 0.269(3) 0.640(3)
C51_2 C 0.2672(5) 0.2903(2) 0.7432(2)
C52_2 C 0.1768(5) 0.33225(19) 0.6940(2)
C53_2 C 0.2422(4) 0.35181(16) 0.62391(17)
C54_2 C 0.3960(6) 0.3255(3) 0.6033(2)
C55_2 C 0.4852(6) 0.2828(3) 0.6525(2)
C56_2 C 0.1522(4) 0.40356(15) 0.57418(17)
Zn5 Zn 0.13715(4) 0.00272(2) 0.94134(2)
N1 N 0.2980(3) 0.00858(12) 0.85065(12)
H11 H 0.329(5) 0.068(2) 0.670(2)
H12 H 0.135(6) 0.052(2) 0.777(2)
H13 H 0.608(5) 0.0792(19) 0.511(2)
H14 H 0.573(6) 0.141(2) 0.384(3)
H15 H 0.789(6) 0.136(3) 0.283(3)
C17 C 0.5221(4) 0.01490(18) 0.72785(19)
C18 C 0.3608(5) 0.0404(2) 0.7203(2)
C19 C 0.2533(5) 0.0360(2) 0.7830(2)
C20 C 0.6402(5) 0.0148(2) 0.6642(2)
C21 C 0.7440(5) 0.0108(2) 0.6143(2)
C22 C 0.8725(5) 0.0049(2) 0.5562(2)
C23 C 0.8507(5) 0.0392(2) 0.4847(2)
C24 C 0.7040(6) 0.0789(3) 0.4672(3)
C25 C 0.6877(7) 0.1125(3) 0.3981(3)
C26 C 0.8184(7) 0.1084(3) 0.3424(3)
C27 C 0.9598(6) 0.0707(3) 0.3566(3)
C28 C 0.9821(5) 0.0344(2) 0.4278(2)
H14_2 H 0.427(6) 0.641(2) 0.116(3)
H15_2 H 0.211(6) 0.636(3) 0.217(3)
C23_2 C 0.1493(5) 0.5392(2) 0.0153(2)
C24_2 C 0.2960(6) 0.5789(3) 0.0328(3)
C25_2 C 0.3123(7) 0.6125(3) 0.1019(3)
C26_2 C 0.1816(7) 0.6084(3) 0.1576(3)
C27_2 C 0.0402(6) 0.5707(3) 0.1434(3)
C28_2 C 0.0179(5) 0.5344(2) 0.0722(2)
Zn1 Zn 0.86285(4) 0.50272(2) 0.55866(2)
H1 H 0.493(4) 0.3729(16) 0.4335(19)
O1 O 0.7456(3) 0.43611(11) 0.48575(12)
O2 O 0.9578(3) 0.43155(11) 0.40101(12)
H2 H 0.904(6) 0.340(2) 0.307(2)
O3 O 0.0156(3) 0.07390(11) 0.09910(12)
H3 H 0.752(5) 0.268(2) 0.224(2)
O4 O 0.2245(3) 0.07772(11) 0.01334(12)
H4 H 0.330(5) 0.3065(18) 0.349(2)
N1_2 N 0.7020(3) 0.50858(12) 0.64935(12)
C1 C 0.8137(4) 0.41477(15) 0.42526(17)
C2 C 0.7152(4) 0.36546(15) 0.37566(16)
C3 C 0.5442(4) 0.35281(17) 0.38928(18)
C4 C 0.4516(5) 0.31099(18) 0.34105(19)
C5 C 0.5247(4) 0.27918(16) 0.27758(18)
H5 H 0.228(5) 0.2206(19) 0.293(2)
C6 C 0.6966(5) 0.2913(2) 0.2659(2)
H6 H 0.055(5) 0.150(2) 0.204(2)
C7 C 0.7899(5) 0.3342(2) 0.3132(2)
H7 H 0.445(6) 0.161(2) 0.059(3)
C8 C 0.4244(4) 0.23501(17) 0.22425(18)
H8 H 0.589(7) 0.231(3) 0.140(3)
C9 C 0.2672(5) 0.2097(2) 0.2432(2)
H9 H 0.513(6) 0.464(2) 0.589(3)
C10 C 0.1768(5) 0.16775(19) 0.1940(2)
H10 H 0.310(6) 0.469(2) 0.699(2)
C11 C 0.2422(4) 0.14819(16) 0.12391(17)
H11_2 H 0.671(5) 0.568(2) 0.830(2)
C12 C 0.3960(6) 0.1745(3) 0.1033(2)
H12_2 H 0.865(6) 0.552(2) 0.723(2)
C13 C 0.4852(6) 0.2172(3) 0.1525(2)
H13_2 H 0.392(5) 0.5792(19) 0.989(2)
C14 C 0.1522(4) 0.09644(15) 0.07418(17)
C15 C 0.5432(4) 0.4862(2) 0.6426(2)
C16 C 0.4289(5) 0.4884(2) 0.7028(2)
C17_2 C 0.4779(4) 0.51490(18) 0.77215(19)
C18_2 C 0.6392(5) 0.5404(2) 0.7797(2)
C19_2 C 0.7467(5) 0.5360(2) 0.7170(2)
C20_2 C 0.3598(5) 0.5148(2) 0.8358(2)
C21_2 C 0.2560(5) 0.5108(2) 0.8857(2)
C22_2 C 0.1275(5) 0.5049(2) 0.9438(2)
H24 H 0.067(5) 0.435(2) 0.816(2)
O13 O 0.7755(3) 0.57772(11) 0.48666(12)
O11 O 0.9844(3) 0.57390(11) 0.40090(12)
O9 O 0.0422(3) 0.93155(11) 0.09899(12)
H1_2 H 0.507(4) 0.8729(16) 0.0665(19)
O1_2 O 0.2544(3) 0.93611(11) 0.01425(12)
H2_2 H 0.096(6) 0.840(2) 0.193(2)
H3_2 H 0.248(5) 0.768(2) 0.276(2)
H4_2 H 0.670(5) 0.8065(18) 0.151(2)
C1_2 C 0.1863(4) 0.91477(15) 0.07474(17)
C2_2 C 0.2848(4) 0.86546(15) 0.12434(16)
C3_2 C 0.4558(4) 0.85281(17) 0.11072(18)
C4_2 C 0.5484(5) 0.81099(18) 0.15895(19)
C5_2 C 0.4753(4) 0.77918(16) 0.22242(18)
H5_2 H 0.772(5) 0.7206(19) 0.207(2)
C6_2 C 0.3034(5) 0.7913(2) 0.2341(2)
H6_2 H 0.945(5) 0.650(2) 0.296(2)
C7_2 C 0.2101(5) 0.8342(2) 0.1868(2)
H7_2 H 0.555(6) 0.661(2) 0.441(3)
C8_2 C 0.5756(4) 0.73501(17) 0.27575(18)
H8_2 H 0.411(7) 0.731(3) 0.360(3)
C9_2 C 0.7328(5) 0.7097(2) 0.2568(2)
C10_2 C 0.8232(5) 0.66775(19) 0.3060(2)
C11_2 C 0.7578(4) 0.64819(16) 0.37609(17)
C12_2 C 0.6040(6) 0.6745(3) 0.3967(2)
C13_2 C 0.5148(6) 0.7172(3) 0.3475(2)
C14_2 C 0.8478(4) 0.59644(15) 0.42582(17)
Zn8 Zn 0.86285(4) 0.99728(2) 0.05866(2)
N2_2 N 0.7020(3) 0.99142(12) 0.14935(12)
H19_2 H 0.671(5) 0.932(2) 0.330(2)
H20_2 H 0.865(6) 0.948(2) 0.223(2)
H21_2 H 0.392(5) 0.9208(19) 0.489(2)
H22 H 0.427(6) 0.859(2) 0.616(3)
H23 H 0.211(6) 0.864(3) 0.717(3)
C31_2 C 0.4779(4) 0.98510(18) 0.27215(19)
C32_2 C 0.6392(5) 0.9596(2) 0.2797(2)
C33_2 C 0.7467(5) 0.9640(2) 0.2170(2)
C34_2 C 0.3598(5) 0.9852(2) 0.3358(2)
C35_2 C 0.2560(5) 0.9892(2) 0.3857(2)
C36_2 C 0.1275(5) 0.9951(2) 0.4438(2)
C37 C 0.1493(5) 0.9608(2) 0.5153(2)
C38 C 0.2960(6) 0.9211(3) 0.5328(3)
C39 C 0.3123(7) 0.8875(3) 0.6019(3)
C40 C 0.1816(7) 0.8916(3) 0.6576(3)
C41 C 0.0402(6) 0.9293(3) 0.6434(3)
C42 C 0.0179(5) 0.9656(2) 0.5722(2)
H22_2 H 0.573(6) 0.359(2) 0.884(3)
H23_2 H 0.789(6) 0.364(3) 0.783(3)
C37_2 C 0.8507(5) 0.4608(2) 0.9847(2)
C38_2 C 0.7040(6) 0.4211(3) 0.9672(3)
C39_2 C 0.6877(7) 0.3875(3) 0.8981(3)
C40_2 C 0.8184(7) 0.3916(3) 0.8424(3)
C41_2 C 0.9598(6) 0.4293(3) 0.8566(3)
C42_2 C 0.9821(5) 0.4656(2) 0.9278(2)
H16_2 H 0.067(5) 0.065(2) 0.316(2)
H17_2 H 0.513(6) 0.036(2) 0.089(3)
H18_2 H 0.310(6) 0.031(2) 0.199(2)
C29_2 C 0.5432(4) 0.0138(2) 0.1426(2)
C30_2 C 0.4289(5) 0.0116(2) 0.2028(2)
H9_2 H 0.487(6) 0.964(2) 0.911(3)
H10_2 H 0.690(6) 0.969(2) 0.801(2)
C15_2 C 0.4568(4) 0.9862(2) 0.8574(2)
C16_2 C 0.5711(5) 0.9884(2) 0.7972(2)
H24_2 H 0.933(5) 0.935(2) 0.684(2)
loop_
_geom_bond_atom_site_label_1
_geom_bond_atom_site_label_2
_geom_bond_site_symmetry_1
_geom_bond_site_symmetry_2
N2 C29 1_555 1_555
H17 C29 1_555 1_555
H18 C30 1_555 1_555
H19 C32 1_555 1_555
H20 C33 1_555 1_555
C29 C30 1_555 1_555
C30 C31 1_555 1_555
C31 C32 1_555 1_555
C32 C33 1_555 1_555
C33 N2 1_555 1_555
C34 C31 1_555 1_555
C35 C34 1_555 1_555
Zn6 N2 1_555 1_555
H25 C45 1_555 1_555
O5 Zn6 1_555 1_555
O10 C43 1_555 1_555
H26 C49 1_555 1_555
O7 C56 1_555 1_555
H27 C48 1_555 1_555
O8 C56 1_555 1_555
H28 C46 1_555 1_555
C43 O5 1_555 1_555
C44 C43 1_555 1_555
C45 C44 1_555 1_555
C46 C45 1_555 1_555
C47 C46 1_555 1_555
H29 C51 1_555 1_555
C48 C47 1_555 1_555
H30 C52 1_555 1_555
C49 C44 1_555 1_555
H31 C54 1_555 1_555
C50 C47 1_555 1_555
H32 C55 1_555 1_555
C51 C50 1_555 1_555
C52 C51 1_555 1_555
C53 C52 1_555 1_555
C54 C53 1_555 1_555
C55 C50 1_555 1_555
C56 C53 1_555 1_555
O14 Zn6 1_555 1_555
C35 C36 1_555 1_555
C48 C49 1_555 1_555
C54 C55 1_555 1_555
H25_2 C45_2 1_555 1_555
O6 C43_2 1_555 1_555
H26_2 C49_2 1_555 1_555
O12 C56_2 1_555 1_555
H27_2 C48_2 1_555 1_555
O14 C56_2 1_555 1_555
H28_2 C46_2 1_555 1_555
C43_2 O5_2 1_555 1_555
C44_2 C43_2 1_555 1_555
C45_2 C44_2 1_555 1_555
C46_2 C45_2 1_555 1_555
C47_2 C46_2 1_555 1_555
H29_2 C51_2 1_555 1_555
C48_2 C47_2 1_555 1_555
H30_2 C52_2 1_555 1_555
C49_2 C44_2 1_555 1_555
H31_2 C54_2 1_555 1_555
C50_2 C47_2 1_555 1_555
H32_2 C55_2 1_555 1_555
C51_2 C50_2 1_555 1_555
C52_2 C51_2 1_555 1_555
C53_2 C52_2 1_555 1_555
C54_2 C53_2 1_555 1_555
C55_2 C50_2 1_555 1_555
C56_2 C53_2 1_555 1_555
C48_2 C49_2 1_555 1_555
C54_2 C55_2 1_555 1_555
N1 Zn5 1_555 1_555
H11 C18 1_555 1_555
H12 C19 1_555 1_555
H13 C24 1_555 1_555
H14 C25 1_555 1_555
H15 C26 1_555 1_555
C18 C17 1_555 1_555
C19 N1 1_555 1_555
C20 C17 1_555 1_555
C21 C20 1_555 1_555
C22 C21 1_555 1_555
C23 C22 1_555 1_555
C24 C23 1_555 1_555
C25 C24 1_555 1_555
C26 C25 1_555 1_555
C27 C26 1_555 1_555
C28 C23 1_555 1_555
C18 C19 1_555 1_555
C27 C28 1_555 1_555
H14_2 C25_2 1_555 1_555
H15_2 C26_2 1_555 1_555
C24_2 C23_2 1_555 1_555
C25_2 C24_2 1_555 1_555
C26_2 C25_2 1_555 1_555
C27_2 C26_2 1_555 1_555
C28_2 C23_2 1_555 1_555
C27_2 C28_2 1_555 1_555
Zn1 O1 1_555 1_555
H1 C3 1_555 1_555
O1 C1 1_555 1_555
O2 C1 1_555 1_555
H2 C7 1_555 1_555
O3 C14 1_555 1_555
H3 C6 1_555 1_555
O4 C14 1_555 1_555
H4 C4 1_555 1_555
N1_2 Zn1 1_555 1_555
C1 C2 1_555 1_555
C2 C3 1_555 1_555
C3 C4 1_555 1_555
C4 C5 1_555 1_555
C5 C6 1_555 1_555
H5 C9 1_555 1_555
C6 C7 1_555 1_555
H6 C10 1_555 1_555
C7 C2 1_555 1_555
H7 C12 1_555 1_555
C8 C5 1_555 1_555
H8 C13 1_555 1_555
C9 C8 1_555 1_555
H9 C15 1_555 1_555
C10 C9 1_555 1_555
H10 C16 1_555 1_555
C11 C10 1_555 1_555
H11_2 C18_2 1_555 1_555
C12 C11 1_555 1_555
H12_2 C19_2 1_555 1_555
C13 C8 1_555 1_555
C14 C11 1_555 1_555
C15 N1_2 1_555 1_555
C16 C15 1_555 1_555
C17_2 C16 1_555 1_555
C18_2 C17_2 1_555 1_555
C19_2 N1_2 1_555 1_555
C20_2 C17_2 1_555 1_555
C21_2 C20_2 1_555 1_555
C22_2 C21_2 1_555 1_555
O13 Zn1 1_555 1_555
C12 C13 1_555 1_555
C18_2 C19_2 1_555 1_555
H1_2 C3_2 1_555 1_555
O1_2 C1_2 1_555 1_555
O9 C1_2 1_555 1_555
H2_2 C7_2 1_555 1_555
O11 C14_2 1_555 1_555
H3_2 C6_2 1_555 1_555
O13 C14_2 1_555 1_555
H4_2 C4_2 1_555 1_555
C1_2 C2_2 1_555 1_555
C2_2 C3_2 1_555 1_555
C3_2 C4_2 1_555 1_555
C4_2 C5_2 1_555 1_555
C5_2 C6_2 1_555 1_555
H5_2 C9_2 1_555 1_555
C6_2 C7_2 1_555 1_555
H6_2 C10_2 1_555 1_555
C7_2 C2_2 1_555 1_555
H7_2 C12_2 1_555 1_555
C8_2 C5_2 1_555 1_555
H8_2 C13_2 1_555 1_555
C9_2 C8_2 1_555 1_555
C10_2 C9_2 1_555 1_555
C11_2 C10_2 1_555 1_555
C12_2 C11_2 1_555 1_555
C13_2 C8_2 1_555 1_555
C14_2 C11_2 1_555 1_555
C12_2 C13_2 1_555 1_555
H19_2 C32_2 1_555 1_555
H20_2 C33_2 1_555 1_555
H21_2 C38 1_555 1_555
H22 C39 1_555 1_555
H23 C40 1_555 1_555
C31_2 C32_2 1_555 1_555
C32_2 C33_2 1_555 1_555
C33_2 N2_2 1_555 1_555
C34_2 C31_2 1_555 1_555
C35_2 C34_2 1_555 1_555
C37 C36_2 1_555 1_555
C38 C37 1_555 1_555
C39 C38 1_555 1_555
C40 C39 1_555 1_555
C41 C40 1_555 1_555
Zn8 N2_2 1_555 1_555
C35_2 C36_2 1_555 1_555
C37 C42 1_555 1_555
C41 C42 1_555 1_555
H22_2 C39_2 1_555 1_555
H23_2 C40_2 1_555 1_555
C38_2 C37_2 1_555 1_555
C39_2 C38_2 1_555 1_555
C40_2 C39_2 1_555 1_555
C41_2 C40_2 1_555 1_555
C37_2 C42_2 1_555 1_555
C41_2 C42_2 1_555 1_555
H17_2 C29_2 1_555 1_555
H18_2 C30_2 1_555 1_555
C29_2 C30_2 1_555 1_555
H9_2 C15_2 1_555 1_555
H10_2 C16_2 1_555 1_555
C16_2 C15_2 1_555 1_555

#END
