
###############################################################################
#
# This file contains modified crystal structure data generated from the
# MOF subset of the Cambridge Structural Database (CSD) v543 
# hosted by the Cambridge Crystallographic Data Centre (CCDC).
#
# This work is licensed under the Creative Commons
# Attribution-NonCommercial-ShareAlike 4.0 International License.
# To view a copy of this license, visit
# http://creativecommons.org/licenses/by-nc-sa/4.0/
# or send a letter to
# Creative Commons, PO Box 1866, Mountain View, CA 94042, USA.
#
# CIF created using the CSD Python API on 29 September 2022
# The structure has been converted into the P1 space group
# The structure has a 3D framework
# The original CSD entry BEFVIV is in the trigonal crystal system
# The original CSD entry BEFVIV is in a Sohncke space group
# The framework has been calculated to contain at least 10.0% void space
# The void calculation uses a probe of radius 1.32A, grid spacing 0.4
# The framework is charged, counterions have been retained in the structure
# H atom positions have been added when not included in the experimental data
#
###############################################################################

data_BEFVIV
_chemical_formula_moiety         '(C75 H48 N5 O23 U5 3-)n'
_symmetry_cell_setting           triclinic
_symmetry_space_group_name_H-M   'P 1'
_symmetry_Int_Tables_number      1
_space_group_name_Hall           'P 1'
loop_
_symmetry_equiv_pos_site_id
_symmetry_equiv_pos_as_xyz
1 x,y,z
_cell_length_a                   17.6103(8)
_cell_length_b                   17.6103(8)
_cell_length_c                   12.0159(4)
_cell_angle_alpha                90
_cell_angle_beta                 90
_cell_angle_gamma                120
_cell_volume                     3227.16
loop_
_atom_site_label
_atom_site_type_symbol
_atom_site_fract_x
_atom_site_fract_y
_atom_site_fract_z
U1 U -0.0000 0.30310(5) 0.1667
O1 O 0.1022(9) 0.3571(8) 0.2020(8)
O9 O 0.0261(12) 0.2024(10) 0.0530(7)
O11 O 0.0230(9) 0.4385(11) 0.0799(7)
O4 O 0.4155(7) 0.9770(9) 0.7466(7)
N1 N 0.7825(15) 1.0000 0.8334
C1 C 0.7014(10) 1.0000 0.8334
C3 C 0.4613(6) 1.0000 0.8333
C6 C 0.5486(5) 1.0000 0.8333
C19 C 0.6506(22) 0.9719(14) 0.7375(8)
C20 C 0.8048(19) 0.9636(11) 0.7343(10)
C22 C 0.5732(16) 0.9694(14) 0.7427(8)
U3 U 0.30310(5) 1.0000 0.8334
H8 H 0.703556 0.859019 0.940254
H9 H 0.882375 0.945594 0.55814
H13 H 0.672195 0.95309 0.66277
H14 H 0.744587 0.911664 0.69753
H15 H 0.84595 0.936906 0.760472
H16 H 0.528214 0.942169 0.672628
O2 O 0.1763(7) 0.9739(12) 0.7196(7)
O3 O 0.2772(7) 0.9570(10) 0.6365(7)
N1_2 N 0.0000 0.7825(15) 0.1667
C1_2 C 0.0000 0.7014(10) 0.1667
C3_2 C 0.0000 0.4613(6) 0.1666
C6_2 C -0.0000 0.5486(5) 0.1666
C7 C 0.0376(7) 0.8556(10) 0.3553(8)
C8 C 0.0082(9) 0.8840(12) 0.4446(7)
C9 C 0.0620(8) 0.9145(14) 0.5374(8)
C10 C 0.1444(9) 0.9198(17) 0.5332(9)
C11 C 0.1787(8) 0.9030(14) 0.4369(8)
C12 C 0.1211(6) 0.8656(12) 0.3478(9)
C13 C 0.2051(10) 0.9540(15) 0.6354(10)
C19_2 C 0.0281(14) 0.6787(26) 0.0708(8)
C20_2 C 0.0364(11) 0.8412(22) 0.0676(10)
C22_2 C 0.0306(14) 0.6038(21) 0.0760(8)
H4 H 0.0409623 0.933965 0.612064
H7 H 0.246686 0.918375 0.432123
H8_2 H 0.140981 0.844537 0.273588
H14_2 H 0.0883359 0.832923 0.0308638
H15_2 H 0.0630937 0.909044 0.0938056
H16_2 H 0.0578309 0.586045 0.00596086
O1_2 O 0.2549(12) 0.8978(9) 0.8687(8)
O10 O 0.0430(10) 0.3202(7) 0.9699(7)
O2_2 O 0.7976(10) 0.8237(7) 0.3863(7)
O3_2 O 0.6798(7) 0.7228(7) 0.3032(7)
C7_2 C 0.8180(7) 0.9624(7) 0.0220(8)
C8_2 C 0.8758(8) 0.9918(9) 0.1113(7)
C9_2 C 0.8525(11) 0.9380(8) 0.2041(8)
C10_2 C 0.7754(14) 0.8556(9) 0.1999(9)
C11_2 C 0.7243(11) 0.8213(8) 0.1036(8)
C12_2 C 0.7445(10) 0.8789(6) 0.0145(9)
C13_2 C 0.7489(11) 0.7949(10) 0.3021(10)
U2 U 0.69690(5) 0.69690(5) 0.5000
H4_2 H 0.893002 0.959038 0.278731
H7_2 H 0.671688 0.753314 0.0987901
O1_3 O 0.6429(8) 0.7451(12) 0.5353(8)
C14 C 0.9624(7) 0.8180(12) 0.9780(8)
C15 C 0.9918(9) 0.8758(15) 0.8887(7)
C16 C 0.9380(8) 0.8525(16) 0.7959(8)
C17 C 0.8213(8) 0.7243(16) 0.8964(8)
C18 C 0.8789(6) 0.7445(13) 0.9855(9)
C21 C 0.8556(9) 0.7754(19) 0.8001(9)
O6 O 0.7228(7) 0.6798(12) 0.6968(7)
C23 C 0.7949(10) 0.7489(18) 0.6979(10)
O7 O 0.8237(7) 0.7976(14) 0.6137(7)
O8 O 0.7451(12) 0.6429(15) 0.4647(8)
O11_2 O 0.5615(11) 0.5845(14) 0.4133(7)
O12 O 0.5845(7) 0.5615(11) 0.5867(7)
H10 H 0.959038 0.893002 0.721269
H11 H 0.753314 0.671688 0.90121
N1_3 N 0.2175(15) 0.2175(15) 0.5001
C1_3 C 0.2986(10) 0.2986(10) 0.5001
C2 C 0.3494(22) 0.3213(17) 0.5959(8)
C3_3 C 0.5387(6) 0.5387(6) 0.5000
C4 C 0.4268(16) 0.3962(8) 0.5907(8)
C5 C 0.1952(19) 0.1588(16) 0.5991(10)
C6_3 C 0.4514(5) 0.4514(5) 0.5000
C7_3 C 0.1444(10) 0.1820(7) 0.6887(8)
C8_3 C 0.1160(12) 0.1242(8) 0.7780(7)
C9_3 C 0.0855(14) 0.1475(11) 0.8708(8)
C10_3 C 0.0802(17) 0.2246(14) 0.8666(9)
C11_3 C 0.0970(14) 0.2757(11) 0.7703(8)
C12_3 C 0.1344(12) 0.2555(10) 0.6812(9)
C13_3 C 0.0460(15) 0.2511(11) 0.9688(10)
C14_2 C 0.1820(12) 0.1444(10) 0.3113(8)
C15_2 C 0.1242(15) 0.1160(12) 0.2220(7)
C16_2 C 0.1475(16) 0.0855(14) 0.1292(8)
C17_2 C 0.2757(16) 0.0970(14) 0.2297(8)
C18_2 C 0.2555(13) 0.1344(12) 0.3188(9)
C19_3 C 0.3213(26) 0.3494(22) 0.4041(8)
C20_3 C 0.1588(22) 0.1952(19) 0.4009(10)
C21_2 C 0.2246(19) 0.0802(17) 0.1334(9)
C22_3 C 0.3962(21) 0.4268(16) 0.4093(8)
O6_2 O 0.3202(12) 0.0430(10) 0.0301(7)
C23_2 C 0.2511(18) 0.0460(15) 0.0312(10)
H1 H 0.327832 0.280894 0.670564
H2 H 0.471784 0.413971 0.66071
H3 H 0.117625 0.0632187 0.775194
H4_3 H 0.0660352 0.106998 0.945398
H5 H 0.255401 0.167048 0.635805
H6 H 0.154041 0.0909682 0.57282
H7_3 H 0.0816252 0.328312 0.765457
H8_3 H 0.155463 0.296444 0.606921
H9_2 H 0.0632187 0.117625 0.224806
H10_2 H 0.106998 0.0660352 0.0546025
H11_2 H 0.328312 0.0816252 0.234543
H12 H 0.296444 0.155463 0.393079
H13_2 H 0.280895 0.327805 0.329437
H14_3 H 0.167077 0.255413 0.364197
H15_3 H 0.0909563 0.15405 0.427139
H16_3 H 0.413955 0.471786 0.339294
H1_2 H 0.719106 0.0469379 0.00389703
H3_2 H 0.936781 0.0544063 0.108527
U1_2 U 1.0000 0.30310(5) 0.1667
N1_4 N 0.7825(15) 0.0000 0.8334
C1_4 C 0.7014(10) 0.0000 0.8334
C2_2 C 0.6787(17) 0.0281(14) 0.9292(8)
C3_4 C 0.4613(6) 0.0000 0.8333
C4_2 C 0.6038(8) 0.0306(14) 0.9240(8)
C5_2 C 0.8412(16) 0.0364(11) 0.9324(10)
C6_4 C 0.5486(5) 0.0000 0.8333
C14_3 C 0.8556(10) 0.0376(7) 0.6447(8)
C15_3 C 0.8840(12) 0.0082(9) 0.5554(7)
C16_3 C 0.9145(14) 0.0620(8) 0.4626(8)
C17_3 C 0.9030(14) 0.1787(8) 0.5631(8)
C18_3 C 0.8656(12) 0.1211(6) 0.6522(9)
C21_3 C 0.9198(17) 0.1444(9) 0.4668(9)
O5 O 0.4385(11) 0.0230(9) 0.9201(7)
O6_3 O 0.9570(10) 0.2772(7) 0.3635(7)
C23_3 C 0.9540(15) 0.2051(10) 0.3646(10)
O7_2 O 0.9739(12) 0.1763(7) 0.2804(7)
O8_2 O 0.8978(9) 0.2549(12) 0.1313(8)
U3_2 U 0.30310(5) -0.0000 0.8334
O12_2 O 0.9770(9) 0.4155(7) 0.2534(7)
H2_2 H 0.586029 0.0578129 0.994043
H5_2 H 0.832952 0.0883532 0.969138
H6_2 H 0.909032 0.0630732 0.906153
H10_3 H 0.933965 0.0409623 0.387936
H11_3 H 0.918375 0.246686 0.567877
H12_2 H 0.844537 0.140981 0.726412
N1_5 N 1.0000 0.7825(15) 0.1667
C1_5 C 1.0000 0.7014(10) 0.1667
C2_3 C 0.9719(14) 0.6506(22) 0.2625(8)
C3_5 C 1.0000 0.4613(6) 0.1666
C4_3 C 0.9694(14) 0.5732(16) 0.2573(8)
C5_3 C 0.9636(11) 0.8048(19) 0.2657(10)
C6_5 C 1.0000 0.5486(5) 0.1666
H1_3 H 0.953062 0.672168 0.33723
H2_3 H 0.942187 0.528216 0.327376
H3_3 H 0.945594 0.882375 0.44186
H5_3 H 0.911647 0.744599 0.302471
H6_3 H 0.936927 0.845959 0.239487
H12_3 H 0.859019 0.703556 0.0597457
O7_3 O 0.2024(14) 0.0261(12) 0.9470(7)
O8_3 O 0.3571(15) 0.1022(9) 0.7980(8)
H9_3 H 0.0544063 0.936781 0.891473
H13_3 H 0.0469103 0.719105 0.996103
loop_
_geom_bond_atom_site_label_1
_geom_bond_atom_site_label_2
_geom_bond_site_symmetry_1
_geom_bond_site_symmetry_2
U1 O1 1_555 1_555
O9 U1 1_555 1_555
O11 U1 1_555 1_555
O4 C3 1_555 1_555
N1 C1 1_555 1_555
C3 C6 1_555 1_555
C6 C22 1_555 1_555
C19 C1 1_555 1_555
C20 N1 1_555 1_555
C22 C19 1_555 1_555
U3 O4 1_555 1_555
C19 H13 1_555 1_555
C20 H14 1_555 1_555
C20 H15 1_555 1_555
C22 H16 1_555 1_555
O2 C13 1_555 1_555
O3 C13 1_555 1_555
O11 C3_2 1_555 1_555
N1_2 C1_2 1_555 1_555
C3_2 C6_2 1_555 1_555
C6_2 C22_2 1_555 1_555
C8 C7 1_555 1_555
C9 C8 1_555 1_555
C10 C9 1_555 1_555
C11 C10 1_555 1_555
C12 C7 1_555 1_555
C13 C10 1_555 1_555
C19_2 C1_2 1_555 1_555
C20_2 N1_2 1_555 1_555
C22_2 C19_2 1_555 1_555
U3 O2 1_555 1_555
O3 U3 1_555 1_555
C11 C12 1_555 1_555
C9 H4 1_555 1_555
C11 H7 1_555 1_555
C12 H8_2 1_555 1_555
C20_2 H14_2 1_555 1_555
C20_2 H15_2 1_555 1_555
C22_2 H16_2 1_555 1_555
U3 O1_2 1_555 1_555
O2_2 C13_2 1_555 1_555
O3_2 C13_2 1_555 1_555
C8_2 C7_2 1_555 1_555
C9_2 C8_2 1_555 1_555
C10_2 C9_2 1_555 1_555
C11_2 C10_2 1_555 1_555
C12_2 C7_2 1_555 1_555
C13_2 C10_2 1_555 1_555
U2 O2_2 1_555 1_555
O3_2 U2 1_555 1_555
C11_2 C12_2 1_555 1_555
C9_2 H4_2 1_555 1_555
C11_2 H7_2 1_555 1_555
U2 O1_3 1_555 1_555
C14 C15 1_555 1_555
C15 C16 1_555 1_555
C16 C21 1_555 1_555
C17 C18 1_555 1_555
C18 C14 1_555 1_555
C21 C17 1_555 1_555
O6 U2 1_555 1_555
C23 C21 1_555 1_555
O7 U2 1_555 1_555
O8 U2 1_555 1_555
O11_2 U2 1_555 1_555
O12 U2 1_555 1_555
O6 C23 1_555 1_555
C23 O7 1_555 1_555
C16 H10 1_555 1_555
C17 H11 1_555 1_555
O10 C13_3 1_555 1_555
O11_2 C3_3 1_555 1_555
N1_3 C1_3 1_555 1_555
C1_3 C2 1_555 1_555
C2 C4 1_555 1_555
C3_3 C6_3 1_555 1_555
C4 C6_3 1_555 1_555
C5 N1_3 1_555 1_555
C6_3 C22_3 1_555 1_555
C7_3 C5 1_555 1_555
C8_3 C7_3 1_555 1_555
C9_3 C8_3 1_555 1_555
C10_3 C9_3 1_555 1_555
C11_3 C10_3 1_555 1_555
C12_3 C7_3 1_555 1_555
C13_3 C10_3 1_555 1_555
C14_2 C15_2 1_555 1_555
C15_2 C16_2 1_555 1_555
C16_2 C21_2 1_555 1_555
C17_2 C18_2 1_555 1_555
C18_2 C14_2 1_555 1_555
C19_3 C1_3 1_555 1_555
C20_3 N1_3 1_555 1_555
C21_2 C17_2 1_555 1_555
O12 C3_3 1_555 1_555
C22_3 C19_3 1_555 1_555
C23_2 C21_2 1_555 1_555
C11_3 C12_3 1_555 1_555
C14_2 C20_3 1_555 1_555
O6_2 C23_2 1_555 1_555
C2 H1 1_555 1_555
C4 H2 1_555 1_555
C8_3 H3 1_555 1_555
C9_3 H4_3 1_555 1_555
C5 H5 1_555 1_555
C5 H6 1_555 1_555
C11_3 H7_3 1_555 1_555
C12_3 H8_3 1_555 1_555
C15_2 H9_2 1_555 1_555
C16_2 H10_2 1_555 1_555
C17_2 H11_2 1_555 1_555
C18_2 H12 1_555 1_555
C19_3 H13_2 1_555 1_555
C20_3 H14_3 1_555 1_555
C20_3 H15_3 1_555 1_555
C22_3 H16_3 1_555 1_555
N1_4 C1_4 1_555 1_555
C1_4 C2_2 1_555 1_555
C2_2 C4_2 1_555 1_555
C3_4 C6_4 1_555 1_555
C4_2 C6_4 1_555 1_555
C5_2 N1_4 1_555 1_555
C14_3 C15_3 1_555 1_555
C15_3 C16_3 1_555 1_555
C16_3 C21_3 1_555 1_555
C17_3 C18_3 1_555 1_555
C18_3 C14_3 1_555 1_555
C21_3 C17_3 1_555 1_555
O5 C3_4 1_555 1_555
O6_3 U1_2 1_555 1_555
C23_3 C21_3 1_555 1_555
O7_2 U1_2 1_555 1_555
O8_2 U1_2 1_555 1_555
O12_2 U1_2 1_555 1_555
O5 U3_2 1_555 1_555
O6_3 C23_3 1_555 1_555
C23_3 O7_2 1_555 1_555
C4_2 H2_2 1_555 1_555
C5_2 H5_2 1_555 1_555
C5_2 H6_2 1_555 1_555
C16_3 H10_3 1_555 1_555
C17_3 H11_3 1_555 1_555
C18_3 H12_2 1_555 1_555
N1_5 C1_5 1_555 1_555
C1_5 C2_3 1_555 1_555
C2_3 C4_3 1_555 1_555
C3_5 C6_5 1_555 1_555
C4_3 C6_5 1_555 1_555
C5_3 N1_5 1_555 1_555
O12_2 C3_5 1_555 1_555
C2_3 H1_3 1_555 1_555
C4_3 H2_3 1_555 1_555
C5_3 H5_3 1_555 1_555
C5_3 H6_3 1_555 1_555
O7_3 U3_2 1_555 1_555
O8_3 U3_2 1_555 1_555

#END
