
###############################################################################
#
# This file contains modified crystal structure data generated from the
# MOF subset of the Cambridge Structural Database (CSD) v543 
# hosted by the Cambridge Crystallographic Data Centre (CCDC).
#
# This work is licensed under the Creative Commons
# Attribution-NonCommercial-ShareAlike 4.0 International License.
# To view a copy of this license, visit
# http://creativecommons.org/licenses/by-nc-sa/4.0/
# or send a letter to
# Creative Commons, PO Box 1866, Mountain View, CA 94042, USA.
#
# CIF created using the CSD Python API on 29 September 2022
# The structure has been converted into the P1 space group
# The structure has a 3D framework
# The original CSD entry BEGHEE is in the orthorhombic crystal system
# The framework has been calculated to contain at least 10.0% void space
# The void calculation uses a probe of radius 1.32A, grid spacing 0.4
#
###############################################################################

data_BEGHEE
_chemical_formula_moiety         '(C132 H112 Cu8 O50)n'
_symmetry_cell_setting           triclinic
_symmetry_space_group_name_H-M   'P 1'
_symmetry_Int_Tables_number      1
_space_group_name_Hall           'P 1'
loop_
_symmetry_equiv_pos_site_id
_symmetry_equiv_pos_as_xyz
1 x,y,z
_cell_length_a                   27.857(3)
_cell_length_b                   17.9648(17)
_cell_length_c                   10.3908(10)
_cell_angle_alpha                90
_cell_angle_beta                 90
_cell_angle_gamma                90
_cell_volume                     5200.03
loop_
_atom_site_label
_atom_site_type_symbol
_atom_site_fract_x
_atom_site_fract_y
_atom_site_fract_z
Cu3 Cu 0.013003(16) 0.55938(2) 0.56509(4)
Cu4 Cu 0.013003(16) 0.94062(2) 0.93491(4)
O17 O 0.46616(12) 0.09015(18) 0.1064(3)
Cu1 Cu 0.486997(16) 0.05938(2) 0.93491(4)
O1 O 0.51170(11) 0.01006(18) 0.7803(3)
O4 O 0.46766(14) 0.16282(19) 0.8425(4)
H1 H 0.4875(12) 0.1965(8) 0.864(4)
H2 H 0.4409(10) 0.1778(16) 0.872(4)
O6 O 0.92533(11) 0.00949(19) 0.0919(3)
Cu8 Cu 0.986997(16) 0.05938(2) 0.06509(4)
O16 O 0.55294(11) 0.08964(19) 0.9754(3)
O20 O 0.42533(11) 0.00949(19) 0.9081(3)
Cu5 Cu 0.513003(16) 0.94062(2) 0.06509(4)
C1 C 0.67912(19) 0.75 0.250
O2 O 0.61932(11) 0.82408(17) 0.3542(3)
C2 C 0.55381(17) 0.9511(3) 0.5575(4)
H3 H 0.53984(17) 0.9980(3) 0.5507(4)
O5 O 0.53384(12) 0.90985(18) 0.8936(3)
C3 C 0.91768(16) 0.9470(3) 0.0419(5)
C4 C 0.86955(15) 0.9116(3) 0.0644(4)
C5 C 0.53069(15) 0.9468(2) 0.7915(4)
O7 O 0.74042(12) 0.8046(2) 0.1229(4)
C6 C 0.71066(15) 0.8192(3) 0.2319(5)
H4 H 0.69091(15) 0.8628(3) 0.2169(5)
H5 H 0.73015(15) 0.8278(3) 0.3079(5)
C7 C 0.59706(15) 0.8504(2) 0.4611(4)
C8 C 0.57570(17) 0.9200(3) 0.4516(4)
H6 H 0.57617(17) 0.9456(3) 0.3737(4)
C9 C 0.5952(2) 0.8121(3) 0.5766(4)
H7 H 0.6092(2) 0.7652(3) 0.5834(4)
C10 C 0.57284(19) 0.8433(3) 0.6812(4)
H8 H 0.57140(19) 0.8170(3) 0.7581(4)
C11 C 0.83711(17) 0.9427(3) 0.1497(5)
H9 H 0.84470(17) 0.9870(3) 0.1912(5)
C12 C 0.64864(14) 0.7600(2) 0.3702(4)
H10 H 0.62869(14) 0.7164(2) 0.3835(4)
H11 H 0.66916(14) 0.7660(2) 0.4449(4)
C13 C 0.55228(15) 0.9137(2) 0.6738(4)
C14 C 0.85773(17) 0.8465(3) 0.0005(5)
C15 C 0.81412(19) 0.8129(3) 0.0207(6)
C16 C 0.79315(17) 0.9083(3) 0.1744(5)
H14 H 0.77175(17) 0.9285(3) 0.2336(5)
C17 C 0.78213(16) 0.8435(3) 0.1090(5)
O9 O 0.61932(11) 0.67592(17) 0.1458(3)
C19 C 0.86955(15) 0.5884(3) 0.4356(4)
O10 O 0.74042(12) 0.6954(2) 0.3771(4)
C21 C 0.71066(15) 0.6808(3) 0.2681(5)
H16 H 0.69091(15) 0.6372(3) 0.2831(5)
H17 H 0.73015(15) 0.6722(3) 0.1921(5)
C22 C 0.59706(15) 0.6496(2) 0.0389(4)
C23 C 0.57570(17) 0.5800(3) 0.0484(4)
H18 H 0.57617(17) 0.5544(3) 0.1263(4)
C26 C 0.83711(17) 0.5573(3) 0.3503(5)
H21 H 0.84470(17) 0.5130(3) 0.3088(5)
C27 C 0.64864(14) 0.7400(2) 0.1298(4)
H22 H 0.62869(14) 0.7836(2) 0.1165(4)
H23 H 0.66916(14) 0.7340(2) 0.0551(4)
C29 C 0.85773(17) 0.6535(3) 0.4995(5)
H24 H 0.87952(17) 0.6747(3) 0.5565(5)
C30 C 0.81412(19) 0.6871(3) 0.4793(6)
H25 H 0.80599(19) 0.7300(3) 0.5244(6)
C31 C 0.79315(17) 0.5917(3) 0.3256(5)
H26 H 0.77175(17) 0.5715(3) 0.2664(5)
C32 C 0.78213(16) 0.6565(3) 0.3910(5)
O11 O 0.94706(11) 0.58964(19) 0.5246(3)
C33 C 0.91768(16) 0.5530(3) 0.4581(5)
O13 O 0.92533(11) 0.49051(19) 0.4081(3)
Cu7 Cu 0.986997(16) 0.44062(2) 0.43491(4)
O3 O 0.94706(11) 0.91036(19) 0.9754(3)
H12 H 0.87952(17) 0.8253(3) 0.9435(5)
H13 H 0.80599(19) 0.7700(3) 0.9756(6)
O8 O 0.51170(11) 0.48994(18) 0.7197(3)
C18 C 0.55381(17) 0.5489(3) 0.9425(4)
H15 H 0.53984(17) 0.5020(3) 0.9493(4)
C20 C 0.53069(15) 0.5532(2) 0.7085(4)
C24 C 0.5952(2) 0.6879(3) 0.9234(4)
H19 H 0.6092(2) 0.7348(3) 0.9166(4)
C25 C 0.57284(19) 0.6567(3) 0.8188(4)
H20 H 0.57140(19) 0.6830(3) 0.7419(4)
C28 C 0.55228(15) 0.5863(2) 0.8262(4)
O12 O 0.53384(12) 0.59015(18) 0.6064(3)
Cu2 Cu 0.486997(16) 0.44062(2) 0.56509(4)
O14 O 0.46766(14) 0.33718(19) 0.6575(4)
H27 H 0.4875(12) 0.3035(8) 0.636(4)
H28 H 0.4409(10) 0.3222(16) 0.628(4)
Cu6 Cu 0.513003(16) 0.55938(2) 0.43491(4)
O15 O 0.55294(11) 0.41036(19) 0.5246(3)
O18 O 0.46616(12) 0.40985(18) 0.3936(3)
O19 O 0.42533(11) 0.49051(19) 0.5919(3)
O4_2 O 0.03234(14) 0.66282(19) 0.6575(4)
H1_2 H 0.0125(12) 0.6965(8) 0.636(4)
H2_2 H 0.0591(10) 0.6778(16) 0.628(4)
O17_2 O 0.03384(12) 0.59015(18) 0.3936(3)
O20_2 O 0.07467(11) 0.50949(19) 0.5919(3)
O18_2 O 0.03384(12) 0.90985(18) 0.1064(3)
O14_2 O 0.03234(14) 0.83718(19) 0.8425(4)
H27_2 H 0.0125(12) 0.8035(8) 0.864(4)
H28_2 H 0.0591(10) 0.8222(16) 0.872(4)
O19_2 O 0.07467(11) 0.99051(19) 0.9081(3)
C1_2 C 0.82088(19) 0.25 0.250
O2_2 O 0.88068(11) 0.32408(17) 0.1458(3)
C3_2 C 0.58232(16) 0.4470(3) 0.4581(5)
C4_2 C 0.63045(15) 0.4116(3) 0.4356(4)
O6_2 O 0.57467(11) 0.50949(19) 0.4081(3)
O7_2 O 0.75958(12) 0.3046(2) 0.3771(4)
C6_2 C 0.78934(15) 0.3192(3) 0.2681(5)
H4_2 H 0.80909(15) 0.3628(3) 0.2831(5)
H5_2 H 0.76985(15) 0.3278(3) 0.1921(5)
C7_2 C 0.90294(15) 0.3504(2) 0.0389(4)
C8_2 C 0.92430(17) 0.4200(3) 0.0484(4)
H6_2 H 0.92383(17) 0.4456(3) 0.1263(4)
C11_2 C 0.66289(17) 0.4427(3) 0.3503(5)
H9_2 H 0.65530(17) 0.4870(3) 0.3088(5)
C12_2 C 0.85136(14) 0.2600(2) 0.1298(4)
H10_2 H 0.87131(14) 0.2164(2) 0.1165(4)
H11_2 H 0.83084(14) 0.2660(2) 0.0551(4)
C14_2 C 0.64227(17) 0.3465(3) 0.4995(5)
H12_2 H 0.62048(17) 0.3253(3) 0.5565(5)
C15_2 C 0.68588(19) 0.3129(3) 0.4793(6)
H13_2 H 0.69401(19) 0.2700(3) 0.5244(6)
C16_2 C 0.70685(17) 0.4083(3) 0.3256(5)
H14_2 H 0.72825(17) 0.4285(3) 0.2664(5)
C17_2 C 0.71787(16) 0.3435(3) 0.3910(5)
O9_2 O 0.88068(11) 0.17592(17) 0.3542(3)
C18_2 C 0.94619(17) 0.0489(3) 0.5575(4)
H15_2 H 0.96016(17) 0.0020(3) 0.5507(4)
C19_2 C 0.63045(15) 0.0884(3) 0.0644(4)
C20_2 C 0.96931(15) 0.0532(2) 0.7915(4)
O10_2 O 0.75958(12) 0.1954(2) 0.1229(4)
C21_2 C 0.78934(15) 0.1808(3) 0.2319(5)
H16_2 H 0.80909(15) 0.1372(3) 0.2169(5)
H17_2 H 0.76985(15) 0.1722(3) 0.3079(5)
C22_2 C 0.90294(15) 0.1496(2) 0.4611(4)
C23_2 C 0.92430(17) 0.0800(3) 0.4516(4)
H18_2 H 0.92383(17) 0.0544(3) 0.3737(4)
C24_2 C 0.9048(2) 0.1879(3) 0.5766(4)
H19_2 H 0.8908(2) 0.2348(3) 0.5834(4)
C25_2 C 0.92716(19) 0.1567(3) 0.6812(4)
H20_2 H 0.92860(19) 0.1830(3) 0.7581(4)
C26_2 C 0.66289(17) 0.0573(3) 0.1497(5)
H21_2 H 0.65530(17) 0.0130(3) 0.1912(5)
C27_2 C 0.85136(14) 0.2400(2) 0.3702(4)
H22_2 H 0.87131(14) 0.2836(2) 0.3835(4)
H23_2 H 0.83084(14) 0.2340(2) 0.4449(4)
C28_2 C 0.94772(15) 0.0863(2) 0.6738(4)
C29_2 C 0.64227(17) 0.1535(3) 0.0005(5)
C30_2 C 0.68588(19) 0.1871(3) 0.0207(6)
C31_2 C 0.70685(17) 0.0917(3) 0.1744(5)
H26_2 H 0.72825(17) 0.0715(3) 0.2336(5)
C32_2 C 0.71787(16) 0.1565(3) 0.1090(5)
C33_2 C 0.58232(16) 0.0530(3) 0.0419(5)
O12_2 O 0.96616(12) 0.09015(18) 0.8936(3)
O1_2 O 0.98830(11) 0.51006(18) 0.7197(3)
C2_2 C 0.94619(17) 0.4511(3) 0.9425(4)
H3_2 H 0.96016(17) 0.4980(3) 0.9493(4)
O5_2 O 0.96616(12) 0.40985(18) 0.6064(3)
C5_2 C 0.96931(15) 0.4468(2) 0.7085(4)
C9_2 C 0.9048(2) 0.3121(3) 0.9234(4)
H7_2 H 0.8908(2) 0.2652(3) 0.9166(4)
C10_2 C 0.92716(19) 0.3433(3) 0.8188(4)
H8_2 H 0.92860(19) 0.3170(3) 0.7419(4)
C13_2 C 0.94772(15) 0.4137(2) 0.8262(4)
H24_2 H 0.62048(17) 0.1747(3) 0.9435(5)
H25_2 H 0.69401(19) 0.2300(3) 0.9756(6)
O8_2 O 0.98830(11) 0.98994(18) 0.7803(3)
O13_2 O 0.57467(11) 0.99051(19) 0.0919(3)
O3_2 O 0.05294(11) 0.08964(19) 0.0246(3)
H12_3 H 0.12048(17) 0.1747(3) 0.0565(5)
H13_3 H 0.19401(19) 0.2300(3) 0.0244(6)
O8_3 O 0.48830(11) 0.51006(18) 0.2803(3)
C18_3 C 0.44619(17) 0.4511(3) 0.0575(4)
H15_3 H 0.46016(17) 0.4980(3) 0.0507(4)
C20_3 C 0.46931(15) 0.4468(2) 0.2915(4)
C24_3 C 0.4048(2) 0.3121(3) 0.0766(4)
H19_3 H 0.3908(2) 0.2652(3) 0.0834(4)
C25_3 C 0.42716(19) 0.3433(3) 0.1812(4)
H20_3 H 0.42860(19) 0.3170(3) 0.2581(4)
C28_3 C 0.44772(15) 0.4137(2) 0.1738(4)
O14_3 O 0.53234(14) 0.66282(19) 0.3425(4)
H27_3 H 0.5125(12) 0.6965(8) 0.364(4)
H28_3 H 0.5591(10) 0.6778(16) 0.372(4)
O15_2 O 0.44706(11) 0.58964(19) 0.4754(3)
C1_3 C 0.32088(19) 0.25 0.750
O2_3 O 0.38068(11) 0.17592(17) 0.6458(3)
C2_3 C 0.44619(17) 0.0489(3) 0.4425(4)
H3_3 H 0.46016(17) 0.0020(3) 0.4493(4)
C3_3 C 0.08232(16) 0.0530(3) 0.9581(5)
C4_3 C 0.13045(15) 0.0884(3) 0.9356(4)
C5_3 C 0.46931(15) 0.0532(2) 0.2085(4)
O7_3 O 0.25958(12) 0.1954(2) 0.8771(4)
C6_3 C 0.28934(15) 0.1808(3) 0.7681(5)
H4_3 H 0.30909(15) 0.1372(3) 0.7831(5)
H5_3 H 0.26985(15) 0.1722(3) 0.6921(5)
C7_3 C 0.40294(15) 0.1496(2) 0.5389(4)
C8_3 C 0.42430(17) 0.0800(3) 0.5484(4)
H6_3 H 0.42383(17) 0.0544(3) 0.6263(4)
C9_3 C 0.4048(2) 0.1879(3) 0.4234(4)
H7_3 H 0.3908(2) 0.2348(3) 0.4166(4)
C10_3 C 0.42716(19) 0.1567(3) 0.3188(4)
H8_3 H 0.42860(19) 0.1830(3) 0.2419(4)
C11_3 C 0.16289(17) 0.0573(3) 0.8503(5)
H9_3 H 0.15530(17) 0.0130(3) 0.8088(5)
C12_3 C 0.35136(14) 0.2400(2) 0.6298(4)
H10_3 H 0.37131(14) 0.2836(2) 0.6165(4)
H11_3 H 0.33084(14) 0.2340(2) 0.5551(4)
C13_3 C 0.44772(15) 0.0863(2) 0.3262(4)
C14_3 C 0.14227(17) 0.1535(3) 0.9995(5)
C15_3 C 0.18588(19) 0.1871(3) 0.9793(6)
C16_3 C 0.20685(17) 0.0917(3) 0.8256(5)
H14_3 H 0.22825(17) 0.0715(3) 0.7664(5)
C17_3 C 0.21787(16) 0.1565(3) 0.8910(5)
O9_3 O 0.38068(11) 0.32408(17) 0.8542(3)
C19_3 C 0.13045(15) 0.4116(3) 0.5644(4)
O10_3 O 0.25958(12) 0.3046(2) 0.6229(4)
C21_3 C 0.28934(15) 0.3192(3) 0.7319(5)
H16_3 H 0.30909(15) 0.3628(3) 0.7169(5)
H17_3 H 0.26985(15) 0.3278(3) 0.8079(5)
C22_3 C 0.40294(15) 0.3504(2) 0.9611(4)
C23_3 C 0.42430(17) 0.4200(3) 0.9516(4)
H18_3 H 0.42383(17) 0.4456(3) 0.8737(4)
C26_3 C 0.16289(17) 0.4427(3) 0.6497(5)
H21_3 H 0.15530(17) 0.4870(3) 0.6912(5)
C27_3 C 0.35136(14) 0.2600(2) 0.8702(4)
H22_3 H 0.37131(14) 0.2164(2) 0.8835(4)
H23_3 H 0.33084(14) 0.2660(2) 0.9449(4)
C29_3 C 0.14227(17) 0.3465(3) 0.5005(5)
H24_3 H 0.12048(17) 0.3253(3) 0.4435(5)
C30_3 C 0.18588(19) 0.3129(3) 0.5207(6)
H25_3 H 0.19401(19) 0.2700(3) 0.4756(6)
C31_3 C 0.20685(17) 0.4083(3) 0.6744(5)
H26_3 H 0.22825(17) 0.4285(3) 0.7336(5)
C32_3 C 0.21787(16) 0.3435(3) 0.6090(5)
O11_2 O 0.05294(11) 0.41036(19) 0.4754(3)
C33_3 C 0.08232(16) 0.4470(3) 0.5419(5)
O1_3 O 0.48830(11) 0.98994(18) 0.2197(3)
O4_3 O 0.53234(14) 0.83718(19) 0.1575(4)
H1_3 H 0.5125(12) 0.8035(8) 0.136(4)
H2_3 H 0.5591(10) 0.8222(16) 0.128(4)
O16_2 O 0.44706(11) 0.91036(19) 0.0246(3)
O8_4 O 0.01170(11) 0.01006(18) 0.2197(3)
O1_4 O 0.01170(11) 0.48994(18) 0.2803(3)
C2_4 C 0.05381(17) 0.5489(3) 0.0575(4)
H3_4 H 0.03984(17) 0.5020(3) 0.0507(4)
C5_4 C 0.03069(15) 0.5532(2) 0.2915(4)
C9_4 C 0.0952(2) 0.6879(3) 0.0766(4)
H7_4 H 0.1092(2) 0.7348(3) 0.0834(4)
C10_4 C 0.07284(19) 0.6567(3) 0.1812(4)
H8_4 H 0.07140(19) 0.6830(3) 0.2581(4)
C13_4 C 0.05228(15) 0.5863(2) 0.1738(4)
H24_4 H 0.37952(17) 0.8253(3) 0.0565(5)
H25_4 H 0.30599(19) 0.7700(3) 0.0244(6)
C1_4 C 0.17912(19) 0.75 0.750
O2_4 O 0.11932(11) 0.67592(17) 0.8542(3)
C3_4 C 0.41768(16) 0.5530(3) 0.5419(5)
C4_4 C 0.36955(15) 0.5884(3) 0.5644(4)
O7_4 O 0.24042(12) 0.6954(2) 0.6229(4)
C6_4 C 0.21066(15) 0.6808(3) 0.7319(5)
H4_4 H 0.19091(15) 0.6372(3) 0.7169(5)
H5_4 H 0.23015(15) 0.6722(3) 0.8079(5)
C7_4 C 0.09706(15) 0.6496(2) 0.9611(4)
C8_4 C 0.07570(17) 0.5800(3) 0.9516(4)
H6_4 H 0.07617(17) 0.5544(3) 0.8737(4)
C11_4 C 0.33711(17) 0.5573(3) 0.6497(5)
H9_4 H 0.34470(17) 0.5130(3) 0.6912(5)
C12_4 C 0.14864(14) 0.7400(2) 0.8702(4)
H10_4 H 0.12869(14) 0.7836(2) 0.8835(4)
H11_4 H 0.16916(14) 0.7340(2) 0.9449(4)
C14_4 C 0.35773(17) 0.6535(3) 0.5005(5)
H12_4 H 0.37952(17) 0.6747(3) 0.4435(5)
C15_4 C 0.31412(19) 0.6871(3) 0.5207(6)
H13_4 H 0.30599(19) 0.7300(3) 0.4756(6)
C16_4 C 0.29315(17) 0.5917(3) 0.6744(5)
H14_4 H 0.27175(17) 0.5715(3) 0.7336(5)
C17_4 C 0.28213(16) 0.6565(3) 0.6090(5)
O9_4 O 0.11932(11) 0.82408(17) 0.6458(3)
C18_4 C 0.05381(17) 0.9511(3) 0.4425(4)
H15_4 H 0.03984(17) 0.9980(3) 0.4493(4)
C19_4 C 0.36955(15) 0.9116(3) 0.9356(4)
C20_4 C 0.03069(15) 0.9468(2) 0.2085(4)
O10_4 O 0.24042(12) 0.8046(2) 0.8771(4)
C21_4 C 0.21066(15) 0.8192(3) 0.7681(5)
H16_4 H 0.19091(15) 0.8628(3) 0.7831(5)
H17_4 H 0.23015(15) 0.8278(3) 0.6921(5)
C22_4 C 0.09706(15) 0.8504(2) 0.5389(4)
C23_4 C 0.07570(17) 0.9200(3) 0.5484(4)
H18_4 H 0.07617(17) 0.9456(3) 0.6263(4)
C24_4 C 0.0952(2) 0.8121(3) 0.4234(4)
H19_4 H 0.1092(2) 0.7652(3) 0.4166(4)
C25_4 C 0.07284(19) 0.8433(3) 0.3188(4)
H20_4 H 0.07140(19) 0.8170(3) 0.2419(4)
C26_4 C 0.33711(17) 0.9427(3) 0.8503(5)
H21_4 H 0.34470(17) 0.9870(3) 0.8088(5)
C27_4 C 0.14864(14) 0.7600(2) 0.6298(4)
H22_4 H 0.12869(14) 0.7164(2) 0.6165(4)
H23_4 H 0.16916(14) 0.7660(2) 0.5551(4)
C28_4 C 0.05228(15) 0.9137(2) 0.3262(4)
C29_4 C 0.35773(17) 0.8465(3) 0.9995(5)
C30_4 C 0.31412(19) 0.8129(3) 0.9793(6)
C31_4 C 0.29315(17) 0.9083(3) 0.8256(5)
H26_4 H 0.27175(17) 0.9285(3) 0.7664(5)
C32_4 C 0.28213(16) 0.8435(3) 0.8910(5)
C33_4 C 0.41768(16) 0.9470(3) 0.9581(5)
O14_4 O 0.96766(14) 0.16282(19) 0.1575(4)
H27_4 H 0.9875(12) 0.1965(8) 0.136(4)
H28_4 H 0.9409(10) 0.1778(16) 0.128(4)
O4_4 O 0.96766(14) 0.33718(19) 0.3425(4)
H1_4 H 0.9875(12) 0.3035(8) 0.364(4)
H2_4 H 0.9409(10) 0.3222(16) 0.372(4)
loop_
_geom_bond_atom_site_label_1
_geom_bond_atom_site_label_2
_geom_bond_site_symmetry_1
_geom_bond_site_symmetry_2
Cu1 O1 1_555 1_555
O4 Cu1 1_555 1_555
H1 O4 1_555 1_555
H2 O4 1_555 1_555
Cu8 O6 1_555 1_555
O16 Cu1 1_555 1_555
O20 Cu1 1_555 1_555
C1 C6 1_555 1_555
O2 C7 1_555 1_555
C2 H3 1_555 1_555
O5 C5 1_555 1_555
C3 C4 1_555 1_555
C4 C11 1_555 1_555
C5 C13 1_555 1_555
O7 C6 1_555 1_555
C6 H4 1_555 1_555
H5 C6 1_555 1_555
C7 C8 1_555 1_555
C8 C2 1_555 1_555
H6 C8 1_555 1_555
C9 C7 1_555 1_555
H7 C9 1_555 1_555
C10 C9 1_555 1_555
H8 C10 1_555 1_555
C11 H9 1_555 1_555
C12 C1 1_555 1_555
H10 C12 1_555 1_555
H11 C12 1_555 1_555
C13 C2 1_555 1_555
C14 C4 1_555 1_555
C15 C14 1_555 1_555
C16 C11 1_555 1_555
H14 C16 1_555 1_555
C17 O7 1_555 1_555
O9 C22 1_555 1_555
C19 C26 1_555 1_555
O10 C21 1_555 1_555
C21 C1 1_555 1_555
H16 C21 1_555 1_555
H17 C21 1_555 1_555
C22 C23 1_555 1_555
H18 C23 1_555 1_555
C26 H21 1_555 1_555
C27 C1 1_555 1_555
H22 C27 1_555 1_555
H23 C27 1_555 1_555
C29 C19 1_555 1_555
H24 C29 1_555 1_555
C30 C29 1_555 1_555
H25 C30 1_555 1_555
C31 C26 1_555 1_555
H26 C31 1_555 1_555
C32 O10 1_555 1_555
O11 C33 1_555 1_555
C33 C19 1_555 1_555
O13 C33 1_555 1_555
Cu7 O13 1_555 1_555
O2 C12 1_555 1_555
C10 C13 1_555 1_555
C15 C17 1_555 1_555
C16 C17 1_555 1_555
O9 C27 1_555 1_555
C30 C32 1_555 1_555
C31 C32 1_555 1_555
O8 C20 1_555 1_555
C18 H15 1_555 1_555
C20 C28 1_555 1_555
H19 C24 1_555 1_555
C25 C24 1_555 1_555
H20 C25 1_555 1_555
C28 C18 1_555 1_555
O12 C20 1_555 1_555
Cu2 O8 1_555 1_555
O14 Cu2 1_555 1_555
H27 O14 1_555 1_555
H28 O14 1_555 1_555
Cu6 O12 1_555 1_555
O15 Cu2 1_555 1_555
O18 Cu2 1_555 1_555
O19 Cu2 1_555 1_555
C25 C28 1_555 1_555
Cu2 Cu6 1_555 1_555
O4_2 Cu3 1_555 1_555
H1_2 O4_2 1_555 1_555
H2_2 O4_2 1_555 1_555
O17_2 Cu3 1_555 1_555
O20_2 Cu3 1_555 1_555
O14_2 Cu4 1_555 1_555
H27_2 O14_2 1_555 1_555
H28_2 O14_2 1_555 1_555
O19_2 Cu4 1_555 1_555
C1_2 C6_2 1_555 1_555
O2_2 C7_2 1_555 1_555
O15 C3_2 1_555 1_555
C3_2 C4_2 1_555 1_555
C4_2 C11_2 1_555 1_555
O6_2 C3_2 1_555 1_555
O7_2 C6_2 1_555 1_555
C6_2 H4_2 1_555 1_555
H5_2 C6_2 1_555 1_555
C7_2 C8_2 1_555 1_555
H6_2 C8_2 1_555 1_555
C11_2 H9_2 1_555 1_555
C12_2 C1_2 1_555 1_555
H10_2 C12_2 1_555 1_555
H11_2 C12_2 1_555 1_555
C14_2 C4_2 1_555 1_555
H12_2 C14_2 1_555 1_555
C15_2 C14_2 1_555 1_555
H13_2 C15_2 1_555 1_555
C16_2 C11_2 1_555 1_555
H14_2 C16_2 1_555 1_555
C17_2 O7_2 1_555 1_555
O9_2 C22_2 1_555 1_555
C18_2 H15_2 1_555 1_555
C19_2 C26_2 1_555 1_555
C20_2 C28_2 1_555 1_555
O10_2 C21_2 1_555 1_555
C21_2 C1_2 1_555 1_555
H16_2 C21_2 1_555 1_555
H17_2 C21_2 1_555 1_555
C22_2 C23_2 1_555 1_555
C23_2 C18_2 1_555 1_555
H18_2 C23_2 1_555 1_555
C24_2 C22_2 1_555 1_555
H19_2 C24_2 1_555 1_555
C25_2 C24_2 1_555 1_555
H20_2 C25_2 1_555 1_555
C26_2 H21_2 1_555 1_555
C27_2 C1_2 1_555 1_555
H22_2 C27_2 1_555 1_555
H23_2 C27_2 1_555 1_555
C28_2 C18_2 1_555 1_555
C29_2 C19_2 1_555 1_555
C30_2 C29_2 1_555 1_555
C31_2 C26_2 1_555 1_555
H26_2 C31_2 1_555 1_555
C32_2 O10_2 1_555 1_555
C33_2 C19_2 1_555 1_555
O12_2 C20_2 1_555 1_555
Cu6 O6_2 1_555 1_555
O2_2 C12_2 1_555 1_555
C15_2 C17_2 1_555 1_555
C16_2 C17_2 1_555 1_555
O9_2 C27_2 1_555 1_555
C25_2 C28_2 1_555 1_555
C30_2 C32_2 1_555 1_555
C31_2 C32_2 1_555 1_555
O1_2 C5_2 1_555 1_555
C2_2 H3_2 1_555 1_555
O5_2 C5_2 1_555 1_555
C5_2 C13_2 1_555 1_555
H7_2 C9_2 1_555 1_555
C10_2 C9_2 1_555 1_555
H8_2 C10_2 1_555 1_555
C13_2 C2_2 1_555 1_555
O5_2 Cu7 1_555 1_555
C10_2 C13_2 1_555 1_555
Cu5 O13_2 1_555 1_555
O8_3 C20_3 1_555 1_555
C18_3 H15_3 1_555 1_555
C20_3 C28_3 1_555 1_555
H19_3 C24_3 1_555 1_555
C25_3 C24_3 1_555 1_555
H20_3 C25_3 1_555 1_555
C28_3 C18_3 1_555 1_555
O18 C20_3 1_555 1_555
Cu6 O8_3 1_555 1_555
O14_3 Cu6 1_555 1_555
H27_3 O14_3 1_555 1_555
H28_3 O14_3 1_555 1_555
O15_2 Cu6 1_555 1_555
C25_3 C28_3 1_555 1_555
C1_3 C6_3 1_555 1_555
O2_3 C7_3 1_555 1_555
C2_3 H3_3 1_555 1_555
O17 C5_3 1_555 1_555
C3_3 C4_3 1_555 1_555
C4_3 C11_3 1_555 1_555
C5_3 C13_3 1_555 1_555
O7_3 C6_3 1_555 1_555
C6_3 H4_3 1_555 1_555
H5_3 C6_3 1_555 1_555
C7_3 C8_3 1_555 1_555
C8_3 C2_3 1_555 1_555
H6_3 C8_3 1_555 1_555
C9_3 C7_3 1_555 1_555
H7_3 C9_3 1_555 1_555
C10_3 C9_3 1_555 1_555
H8_3 C10_3 1_555 1_555
C11_3 H9_3 1_555 1_555
C12_3 C1_3 1_555 1_555
H10_3 C12_3 1_555 1_555
H11_3 C12_3 1_555 1_555
C13_3 C2_3 1_555 1_555
C14_3 C4_3 1_555 1_555
C15_3 C14_3 1_555 1_555
C16_3 C11_3 1_555 1_555
H14_3 C16_3 1_555 1_555
C17_3 O7_3 1_555 1_555
O9_3 C22_3 1_555 1_555
C19_3 C26_3 1_555 1_555
O10_3 C21_3 1_555 1_555
C21_3 C1_3 1_555 1_555
H16_3 C21_3 1_555 1_555
H17_3 C21_3 1_555 1_555
C22_3 C23_3 1_555 1_555
H18_3 C23_3 1_555 1_555
C26_3 H21_3 1_555 1_555
C27_3 C1_3 1_555 1_555
H22_3 C27_3 1_555 1_555
H23_3 C27_3 1_555 1_555
C29_3 C19_3 1_555 1_555
H24_3 C29_3 1_555 1_555
C30_3 C29_3 1_555 1_555
H25_3 C30_3 1_555 1_555
C31_3 C26_3 1_555 1_555
H26_3 C31_3 1_555 1_555
C32_3 O10_3 1_555 1_555
O11_2 C33_3 1_555 1_555
C33_3 C19_3 1_555 1_555
O20_2 C33_3 1_555 1_555
O2_3 C12_3 1_555 1_555
C10_3 C13_3 1_555 1_555
C15_3 C17_3 1_555 1_555
C16_3 C17_3 1_555 1_555
O9_3 C27_3 1_555 1_555
C30_3 C32_3 1_555 1_555
C31_3 C32_3 1_555 1_555
Cu5 O1_3 1_555 1_555
O4_3 Cu5 1_555 1_555
H1_3 O4_3 1_555 1_555
H2_3 O4_3 1_555 1_555
O16_2 Cu5 1_555 1_555
O1_4 C5_4 1_555 1_555
C2_4 H3_4 1_555 1_555
O17_2 C5_4 1_555 1_555
C5_4 C13_4 1_555 1_555
H7_4 C9_4 1_555 1_555
C10_4 C9_4 1_555 1_555
H8_4 C10_4 1_555 1_555
C13_4 C2_4 1_555 1_555
C10_4 C13_4 1_555 1_555
C1_4 C6_4 1_555 1_555
O2_4 C7_4 1_555 1_555
O15_2 C3_4 1_555 1_555
C3_4 C4_4 1_555 1_555
C4_4 C11_4 1_555 1_555
O19 C3_4 1_555 1_555
O7_4 C6_4 1_555 1_555
C6_4 H4_4 1_555 1_555
H5_4 C6_4 1_555 1_555
C7_4 C8_4 1_555 1_555
H6_4 C8_4 1_555 1_555
C11_4 H9_4 1_555 1_555
C12_4 C1_4 1_555 1_555
H10_4 C12_4 1_555 1_555
H11_4 C12_4 1_555 1_555
C14_4 C4_4 1_555 1_555
H12_4 C14_4 1_555 1_555
C15_4 C14_4 1_555 1_555
H13_4 C15_4 1_555 1_555
C16_4 C11_4 1_555 1_555
H14_4 C16_4 1_555 1_555
C17_4 O7_4 1_555 1_555
O9_4 C22_4 1_555 1_555
C18_4 H15_4 1_555 1_555
C19_4 C26_4 1_555 1_555
C20_4 C28_4 1_555 1_555
O10_4 C21_4 1_555 1_555
C21_4 C1_4 1_555 1_555
H16_4 C21_4 1_555 1_555
H17_4 C21_4 1_555 1_555
C22_4 C23_4 1_555 1_555
C23_4 C18_4 1_555 1_555
H18_4 C23_4 1_555 1_555
C24_4 C22_4 1_555 1_555
H19_4 C24_4 1_555 1_555
C25_4 C24_4 1_555 1_555
H20_4 C25_4 1_555 1_555
C26_4 H21_4 1_555 1_555
C27_4 C1_4 1_555 1_555
H22_4 C27_4 1_555 1_555
H23_4 C27_4 1_555 1_555
C28_4 C18_4 1_555 1_555
C29_4 C19_4 1_555 1_555
C30_4 C29_4 1_555 1_555
C31_4 C26_4 1_555 1_555
H26_4 C31_4 1_555 1_555
C32_4 O10_4 1_555 1_555
C33_4 C19_4 1_555 1_555
O18_2 C20_4 1_555 1_555
O2_4 C12_4 1_555 1_555
C15_4 C17_4 1_555 1_555
C16_4 C17_4 1_555 1_555
O9_4 C27_4 1_555 1_555
C25_4 C28_4 1_555 1_555
C30_4 C32_4 1_555 1_555
C31_4 C32_4 1_555 1_555
O14_4 Cu8 1_555 1_555
H27_4 O14_4 1_555 1_555
H28_4 O14_4 1_555 1_555
O4_4 Cu7 1_555 1_555
H1_4 O4_4 1_555 1_555
H2_4 O4_4 1_555 1_555

#END
