
###############################################################################
#
# This file contains modified crystal structure data generated from the
# MOF subset of the Cambridge Structural Database (CSD) v543 
# hosted by the Cambridge Crystallographic Data Centre (CCDC).
#
# This work is licensed under the Creative Commons
# Attribution-NonCommercial-ShareAlike 4.0 International License.
# To view a copy of this license, visit
# http://creativecommons.org/licenses/by-nc-sa/4.0/
# or send a letter to
# Creative Commons, PO Box 1866, Mountain View, CA 94042, USA.
#
# CIF created using the CSD Python API on 29 September 2022
# The structure has been converted into the P1 space group
# The structure has a 3D framework
# The original CSD entry BEGPUB is in the hexagonal crystal system
# The original CSD entry BEGPUB is in a Sohncke space group
# The framework has been calculated to contain at least 10.0% void space
# The void calculation uses a probe of radius 1.32A, grid spacing 0.4
#
###############################################################################

data_BEGPUB
_chemical_formula_moiety         '(C48 H48 Ca2 Cu12 N12 O38)n'
_symmetry_cell_setting           triclinic
_symmetry_space_group_name_H-M   'P 1'
_symmetry_Int_Tables_number      1
_space_group_name_Hall           'P 1'
loop_
_symmetry_equiv_pos_site_id
_symmetry_equiv_pos_as_xyz
1 x,y,z
_cell_length_a                   17.6597(19)
_cell_length_b                   17.6597(19)
_cell_length_c                   13.4462(15)
_cell_angle_alpha                90
_cell_angle_beta                 90
_cell_angle_gamma                120
_cell_volume                     3631.59
loop_
_atom_site_label
_atom_site_type_symbol
_atom_site_fract_x
_atom_site_fract_y
_atom_site_fract_z
N2 N 0.0951(11) 0.5964(10) 0.7322(12)
O5 O 0.0133(7) 0.4459(9) 0.8252(9)
O6 O 0.2365(6) 0.6788(7) 0.8384(8)
O7 O 0.2960(13) 0.7995(10) 0.7525(10)
C3 C 0.0224(11) 0.5436(11) 0.6902(14)
C5 C 0.2370(10) 0.7239(10) 0.7679(13)
C6 C 0.1608(14) 0.6900(13) 0.6992(16)
H5 H 0.1783 0.6923 0.6297
C8 C 0.1110(11) 0.7465(11) 0.7177(18)
H6 H 0.0624 0.7265 0.6729
H7 H 0.1512 0.8074 0.7061
H8 H 0.0902 0.7384 0.7850
Cu8 Cu 0.13173(13) 0.55553(14) 0.84303(8)
Cu12 Cu 0.42380(19) 0.86827(13) 0.84303(8)
Ca4 Ca 0.3333 0.6667 0.9671(6)
Cu1 Cu 0.86783(13) 0.44540(13) 0.59162(9)
Cu2 Cu 0.86827(13) 0.44447(14) 0.34303(8)
Ca1 Ca 0.6667 0.3333 0.4671(6)
O1 O 0.8293(4) 0.4664(4) 0.4684(10)
N1 N 0.8996(9) 0.4039(10) 0.7061(11)
O2 O 0.7654(8) 0.3244(8) 0.5929(11)
O3 O 0.9872(9) 0.5535(8) 0.6154(9)
O4 O 0.7066(11) 0.1989(7) 0.6825(10)
C1 C 0.7672(14) 0.2772(14) 0.6682(13)
C2 C 0.8418(10) 0.3198(11) 0.7433(12)
H1 H 0.8709 0.2855 0.7528
C4 C 0.7987(10) 0.3292(12) 0.8457(10)
H2 H 0.8431 0.3553 0.8959
H3 H 0.7542 0.2724 0.8674
H4 H 0.7733 0.3655 0.8343
C7 C 0.9748(12) 0.4574(12) 0.7464(14)
Cu3 Cu 0.55460(13) 0.42243(18) 0.59162(9)
Cu4 Cu 0.55553(14) 0.42380(19) 0.34303(8)
O8 O 0.5336(4) 0.3629(6) 0.4684(10)
N3 N 0.5961(10) 0.4957(13) 0.7061(11)
N4 N 0.4036(10) 0.4987(15) 0.7322(12)
O9 O 0.6756(8) 0.4410(11) 0.5929(11)
O10 O 0.4465(8) 0.4337(12) 0.6154(9)
O11 O 0.8011(7) 0.5077(13) 0.6825(10)
O12 O 0.5541(9) 0.5674(11) 0.8252(9)
O13 O 0.3212(7) 0.5577(9) 0.8384(8)
O14 O 0.2005(10) 0.4965(16) 0.7525(10)
C9 C 0.7228(14) 0.4900(20) 0.6682(13)
C10 C 0.6802(11) 0.5220(15) 0.7433(12)
H9 H 0.7145 0.5854 0.7528
C11 C 0.4564(11) 0.4788(16) 0.6902(14)
C12 C 0.6708(12) 0.4695(16) 0.8457(10)
H10 H 0.6447 0.4878 0.8959
H11 H 0.7276 0.4818 0.8674
H12 H 0.6345 0.4078 0.8343
C13 C 0.2761(10) 0.5131(14) 0.7679(13)
C14 C 0.3100(13) 0.4708(19) 0.6992(16)
H13 H 0.3077 0.4860 0.6297
C15 C 0.5426(12) 0.5174(17) 0.7464(14)
C16 C 0.2535(11) 0.3645(16) 0.7177(18)
H14 H 0.2735 0.3359 0.6729
H15 H 0.1926 0.3438 0.7061
H16 H 0.2616 0.3518 0.7850
Cu5 Cu 0.57757(18) 0.13217(13) 0.59162(9)
Cu6 Cu 0.57620(19) 0.13173(13) 0.34303(8)
O15 O 0.6371(6) 0.1707(4) 0.4684(10)
N5 N 0.5043(13) 0.1004(9) 0.7061(11)
O16 O 0.5590(11) 0.2346(8) 0.5929(11)
O17 O 0.5663(12) 0.0128(9) 0.6154(9)
O18 O 0.4923(13) 0.2934(11) 0.6825(10)
C17 C 0.5100(20) 0.2328(14) 0.6682(13)
C18 C 0.4780(15) 0.1582(10) 0.7433(12)
H17 H 0.4146 0.1291 0.7528
C20 C 0.5305(16) 0.2013(10) 0.8457(10)
H18 H 0.5122 0.1569 0.8959
H19 H 0.5182 0.2458 0.8674
H20 H 0.5922 0.2267 0.8343
C23 C 0.4826(17) 0.0252(12) 0.7464(14)
Cu10 Cu 0.44447(14) 0.57620(19) 0.84303(8)
N7 N 0.9049(11) 0.4036(10) 0.2322(12)
N8 N 0.5964(10) 0.5013(15) 0.2322(12)
N9 N 0.4987(15) 0.0951(11) 0.2322(12)
O22 O 0.9867(7) 0.5541(9) 0.3252(9)
O23 O 0.4459(9) 0.4326(11) 0.3252(9)
O24 O 0.5674(11) 0.0133(7) 0.3252(9)
O25 O 0.7635(6) 0.3212(7) 0.3384(8)
O26 O 0.6788(7) 0.4423(9) 0.3384(8)
O27 O 0.5577(9) 0.2365(6) 0.3384(8)
O28 O 0.7040(13) 0.2005(10) 0.2525(10)
O29 O 0.7995(10) 0.5035(16) 0.2525(10)
O30 O 0.4965(16) 0.2960(13) 0.2525(10)
N6 N 0.5013(15) 0.9049(11) 0.7322(12)
O19 O 0.4326(11) 0.9867(7) 0.8252(9)
O20 O 0.4423(9) 0.7635(6) 0.8384(8)
O21 O 0.5035(16) 0.7040(13) 0.7525(10)
C19 C 0.5212(16) 0.9776(11) 0.6902(14)
C21 C 0.4869(14) 0.7630(10) 0.7679(13)
C22 C 0.5292(19) 0.8392(14) 0.6992(16)
H21 H 0.5140 0.8217 0.6297
C24 C 0.6355(16) 0.8890(11) 0.7177(18)
H22 H 0.6641 0.9376 0.6729
H23 H 0.6562 0.8488 0.7061
H24 H 0.6482 0.9098 0.7850
C19_2 C 0.4788(16) 0.0224(11) 0.1902(14)
C21_2 C 0.5131(14) 0.2370(10) 0.2679(13)
C22_2 C 0.4708(19) 0.1608(14) 0.1992(16)
H21_2 H 0.4860 0.1783 0.1297
C24_2 C 0.3645(16) 0.1110(11) 0.2177(18)
H22_2 H 0.3359 0.0624 0.1729
H23_2 H 0.3438 0.1512 0.2061
H24_2 H 0.3518 0.0902 0.2850
Cu1_2 Cu 0.13217(13) 0.55460(13) 0.09162(9)
N1_2 N 0.1004(9) 0.5961(10) 0.2061(11)
O2_2 O 0.2346(8) 0.6756(8) 0.0929(11)
O3_2 O 0.0128(9) 0.4465(8) 0.1154(9)
O4_2 O 0.2934(11) 0.8011(7) 0.1825(10)
C1_2 C 0.2328(14) 0.7228(14) 0.1682(13)
C2_2 C 0.1582(10) 0.6802(11) 0.2433(12)
H1_2 H 0.1291 0.7145 0.2528
C4_2 C 0.2013(10) 0.6708(12) 0.3457(10)
H2_2 H 0.1569 0.6447 0.3959
H3_2 H 0.2458 0.7276 0.3674
H4_2 H 0.2267 0.6345 0.3343
C7_2 C 0.0252(12) 0.5426(12) 0.2464(14)
Cu3_2 Cu 0.44540(13) 0.57757(18) 0.09162(9)
N3_2 N 0.4039(10) 0.5043(13) 0.2061(11)
O9_2 O 0.3244(8) 0.5590(11) 0.0929(11)
O10_2 O 0.5535(8) 0.5663(12) 0.1154(9)
O11_2 O 0.1989(7) 0.4923(13) 0.1825(10)
C9_2 C 0.2772(14) 0.5100(20) 0.1682(13)
C10_2 C 0.3198(11) 0.4780(15) 0.2433(12)
H9_2 H 0.2855 0.4146 0.2528
C11_2 C 0.5436(11) 0.5212(16) 0.1902(14)
C12_2 C 0.3292(12) 0.5305(16) 0.3457(10)
H10_2 H 0.3553 0.5122 0.3959
H11_2 H 0.2724 0.5182 0.3674
H12_2 H 0.3655 0.5922 0.3343
C13_2 C 0.7239(10) 0.4869(14) 0.2679(13)
C14_2 C 0.6900(13) 0.5292(19) 0.1992(16)
H13_2 H 0.6923 0.5140 0.1297
C15_2 C 0.4574(12) 0.4826(17) 0.2464(14)
C16_2 C 0.7465(11) 0.6355(16) 0.2177(18)
H14_2 H 0.7265 0.6641 0.1729
H15_2 H 0.8074 0.6562 0.2061
H16_2 H 0.7384 0.6482 0.2850
Cu5_2 Cu 0.42243(18) 0.86783(13) 0.09162(9)
N5_2 N 0.4957(13) 0.8996(9) 0.2061(11)
O16_2 O 0.4410(11) 0.7654(8) 0.0929(11)
O17_2 O 0.4337(12) 0.9872(9) 0.1154(9)
O18_2 O 0.5077(13) 0.7066(11) 0.1825(10)
C17_2 C 0.4900(20) 0.7672(14) 0.1682(13)
C18_2 C 0.5220(15) 0.8418(10) 0.2433(12)
H17_2 H 0.5854 0.8709 0.2528
C20_2 C 0.4695(16) 0.7987(10) 0.3457(10)
H18_2 H 0.4878 0.8431 0.3959
H19_2 H 0.4818 0.7542 0.3674
H20_2 H 0.4078 0.7733 0.3343
C23_2 C 0.5174(17) 0.9748(12) 0.2464(14)
O1_2 O 0.1707(4) 0.5336(4) 0.9684(10)
O8_2 O 0.4664(4) 0.6371(6) 0.9684(10)
O15_2 O 0.3629(6) 0.8293(4) 0.9684(10)
C3_2 C 0.9776(11) 0.4564(11) 0.1902(14)
C5_2 C 0.7630(10) 0.2761(10) 0.2679(13)
C6_2 C 0.8392(14) 0.3100(13) 0.1992(16)
H5_2 H 0.8217 0.3077 0.1297
C8_2 C 0.8890(11) 0.2535(11) 0.2177(18)
H6_2 H 0.9376 0.2735 0.1729
H7_2 H 0.8488 0.1926 0.2061
H8_2 H 0.9098 0.2616 0.2850
loop_
_geom_bond_atom_site_label_1
_geom_bond_atom_site_label_2
_geom_bond_site_symmetry_1
_geom_bond_site_symmetry_2
N2 C3 1_555 1_555
O6 C5 1_555 1_555
O7 C5 1_555 1_555
C5 C6 1_555 1_555
C6 N2 1_555 1_555
H5 C6 1_555 1_555
C8 C6 1_555 1_555
H6 C8 1_555 1_555
H7 C8 1_555 1_555
H8 C8 1_555 1_555
Cu8 N2 1_555 1_555
Cu12 O7 1_555 1_555
Ca4 O6 1_555 1_555
O5 Cu8 1_555 1_555
O6 Cu8 1_555 1_555
Cu1 O1 1_555 1_555
Cu2 O1 1_555 1_555
Ca1 O1 1_555 1_555
N1 Cu1 1_555 1_555
O2 Cu1 1_555 1_555
O3 Cu1 1_555 1_555
O4 C1 1_555 1_555
C1 O2 1_555 1_555
C2 N1 1_555 1_555
H1 C2 1_555 1_555
C4 C2 1_555 1_555
H2 C4 1_555 1_555
H3 C4 1_555 1_555
H4 C4 1_555 1_555
C7 N1 1_555 1_555
Cu3 O8 1_555 1_555
Cu4 O8 1_555 1_555
O8 Ca1 1_555 1_555
N3 Cu3 1_555 1_555
N4 C11 1_555 1_555
O9 Ca1 1_555 1_555
O10 Cu3 1_555 1_555
O11 Cu1 1_555 1_555
O12 C15 1_555 1_555
O13 C13 1_555 1_555
O14 C13 1_555 1_555
C9 O9 1_555 1_555
C10 N3 1_555 1_555
H9 C10 1_555 1_555
C11 O10 1_555 1_555
C12 C10 1_555 1_555
H10 C12 1_555 1_555
H11 C12 1_555 1_555
H12 C12 1_555 1_555
C13 C14 1_555 1_555
C14 N4 1_555 1_555
H13 C14 1_555 1_555
C15 N3 1_555 1_555
C16 C14 1_555 1_555
H14 C16 1_555 1_555
H15 C16 1_555 1_555
H16 C16 1_555 1_555
Cu5 O4 1_555 1_555
Cu6 O15 1_555 1_555
O15 Ca1 1_555 1_555
N5 Cu5 1_555 1_555
O16 Ca1 1_555 1_555
O17 Cu5 1_555 1_555
O18 Cu3 1_555 1_555
C17 O16 1_555 1_555
C18 N5 1_555 1_555
H17 C18 1_555 1_555
C20 C18 1_555 1_555
H18 C20 1_555 1_555
H19 C20 1_555 1_555
H20 C20 1_555 1_555
C23 N5 1_555 1_555
Cu8 O14 1_555 1_555
Cu10 N4 1_555 1_555
Ca4 O13 1_555 1_555
N7 Cu2 1_555 1_555
N8 Cu4 1_555 1_555
N9 Cu6 1_555 1_555
O22 Cu2 1_555 1_555
O23 Cu4 1_555 1_555
O24 Cu6 1_555 1_555
O25 Cu2 1_555 1_555
O26 Ca1 1_555 1_555
O27 Ca1 1_555 1_555
O28 Cu6 1_555 1_555
O29 Cu2 1_555 1_555
O30 Cu4 1_555 1_555
Ca1 O2 1_555 1_555
Ca1 O25 1_555 1_555
C1 C2 1_555 1_555
Cu3 O9 1_555 1_555
Cu4 O26 1_555 1_555
O11 C9 1_555 1_555
O12 Cu10 1_555 1_555
O13 Cu10 1_555 1_555
C9 C10 1_555 1_555
C11 C15 1_555 1_555
Cu5 O15 1_555 1_555
Cu5 O16 1_555 1_555
Cu6 O27 1_555 1_555
O18 C17 1_555 1_555
C17 C18 1_555 1_555
N6 C19 1_555 1_555
O20 C21 1_555 1_555
O21 C21 1_555 1_555
C21 C22 1_555 1_555
C22 N6 1_555 1_555
H21 C22 1_555 1_555
C24 C22 1_555 1_555
H22 C24 1_555 1_555
H23 C24 1_555 1_555
H24 C24 1_555 1_555
Cu10 O21 1_555 1_555
Cu12 N6 1_555 1_555
Ca4 O20 1_555 1_555
O19 Cu12 1_555 1_555
O20 Cu12 1_555 1_555
N9 C19_2 1_555 1_555
O27 C21_2 1_555 1_555
O30 C21_2 1_555 1_555
C21_2 C22_2 1_555 1_555
C22_2 N9 1_555 1_555
H21_2 C22_2 1_555 1_555
C24_2 C22_2 1_555 1_555
H22_2 C24_2 1_555 1_555
H23_2 C24_2 1_555 1_555
H24_2 C24_2 1_555 1_555
N1_2 Cu1_2 1_555 1_555
O2_2 Cu1_2 1_555 1_555
O3_2 Cu1_2 1_555 1_555
O4_2 C1_2 1_555 1_555
C1_2 O2_2 1_555 1_555
C2_2 N1_2 1_555 1_555
H1_2 C2_2 1_555 1_555
C4_2 C2_2 1_555 1_555
H2_2 C4_2 1_555 1_555
H3_2 C4_2 1_555 1_555
H4_2 C4_2 1_555 1_555
C7_2 N1_2 1_555 1_555
N3_2 Cu3_2 1_555 1_555
N8 C11_2 1_555 1_555
O10_2 Cu3_2 1_555 1_555
O11_2 Cu1_2 1_555 1_555
O23 C15_2 1_555 1_555
O26 C13_2 1_555 1_555
O29 C13_2 1_555 1_555
C9_2 O9_2 1_555 1_555
C10_2 N3_2 1_555 1_555
H9_2 C10_2 1_555 1_555
C11_2 O10_2 1_555 1_555
C12_2 C10_2 1_555 1_555
H10_2 C12_2 1_555 1_555
H11_2 C12_2 1_555 1_555
H12_2 C12_2 1_555 1_555
C13_2 C14_2 1_555 1_555
C14_2 N8 1_555 1_555
H13_2 C14_2 1_555 1_555
C15_2 N3_2 1_555 1_555
C16_2 C14_2 1_555 1_555
H14_2 C16_2 1_555 1_555
H15_2 C16_2 1_555 1_555
H16_2 C16_2 1_555 1_555
Cu5_2 O4_2 1_555 1_555
N5_2 Cu5_2 1_555 1_555
O17_2 Cu5_2 1_555 1_555
O18_2 Cu3_2 1_555 1_555
C17_2 O16_2 1_555 1_555
C18_2 N5_2 1_555 1_555
H17_2 C18_2 1_555 1_555
C20_2 C18_2 1_555 1_555
H18_2 C20_2 1_555 1_555
H19_2 C20_2 1_555 1_555
H20_2 C20_2 1_555 1_555
C23_2 N5_2 1_555 1_555
C1_2 C2_2 1_555 1_555
Cu3_2 O9_2 1_555 1_555
O11_2 C9_2 1_555 1_555
C9_2 C10_2 1_555 1_555
C11_2 C15_2 1_555 1_555
Cu5_2 O16_2 1_555 1_555
O18_2 C17_2 1_555 1_555
C17_2 C18_2 1_555 1_555
Cu8 O1_2 1_555 1_555
Ca4 O1_2 1_555 1_555
Cu10 O8_2 1_555 1_555
O8_2 Ca4 1_555 1_555
Cu12 O15_2 1_555 1_555
O15_2 Ca4 1_555 1_555
N7 C3_2 1_555 1_555
O25 C5_2 1_555 1_555
O28 C5_2 1_555 1_555
C5_2 C6_2 1_555 1_555
C6_2 N7 1_555 1_555
H5_2 C6_2 1_555 1_555
C8_2 C6_2 1_555 1_555
H6_2 C8_2 1_555 1_555
H7_2 C8_2 1_555 1_555
H8_2 C8_2 1_555 1_555

#END
