
###############################################################################
#
# This file contains modified crystal structure data generated from the
# MOF subset of the Cambridge Structural Database (CSD) v543 
# hosted by the Cambridge Crystallographic Data Centre (CCDC).
#
# This work is licensed under the Creative Commons
# Attribution-NonCommercial-ShareAlike 4.0 International License.
# To view a copy of this license, visit
# http://creativecommons.org/licenses/by-nc-sa/4.0/
# or send a letter to
# Creative Commons, PO Box 1866, Mountain View, CA 94042, USA.
#
# CIF created using the CSD Python API on 29 September 2022
# The structure has been converted into the P1 space group
# The structure has a 3D framework
# The original CSD entry BEGZAS is in the orthorhombic crystal system
# The original CSD entry BEGZAS is in a Sohncke space group
# The framework has been calculated to contain at least 10.0% void space
# The void calculation uses a probe of radius 1.32A, grid spacing 0.4
#
###############################################################################

data_BEGZAS
_chemical_formula_moiety         '(C88 H64 Cu4 N16 O16)n'
_symmetry_cell_setting           triclinic
_symmetry_space_group_name_H-M   'P 1'
_symmetry_Int_Tables_number      1
_space_group_name_Hall           'P 1'
loop_
_symmetry_equiv_pos_site_id
_symmetry_equiv_pos_as_xyz
1 x,y,z
_cell_length_a                   11.3182(4)
_cell_length_b                   18.1653(11)
_cell_length_c                   19.1481(9)
_cell_angle_alpha                90
_cell_angle_beta                 90
_cell_angle_gamma                90
_cell_volume                     3936.82
loop_
_atom_site_label
_atom_site_type_symbol
_atom_site_fract_x
_atom_site_fract_y
_atom_site_fract_z
C16 C 0.1332(6) 0.0133(5) 0.1598(3)
H8 H 0.0666 0.0385 0.1796
H9 H 0.2018 0.0443 0.1626
Cu1 Cu 0.32263(5) 0.07620(3) 0.03403(3)
N2 N 0.1780(3) 0.01270(19) 0.03282(19)
O5 O 0.3327(3) 0.15919(17) 0.14619(15)
O6 O 0.2256(2) 0.16421(18) 0.05046(15)
O7 O 0.4450(3) 0.13722(18) 0.99205(17)
O8 O 0.3747(3) 0.0722(2) 0.90414(17)
C8 C 0.0543(5) 0.8825(3) 0.4296(3)
H4 H 0.0098 0.8879 0.1776
C15 C 0.1080(4) 0.9952(3) 0.0842(2)
H7 H 0.1473 0.9686 0.1852
N1 N 0.0140(3) 0.9569(2) 0.0600(2)
O3 O 0.0550(3) 0.86278(18) 0.49205(17)
O4 O 0.1253(3) 0.9278(2) 0.40414(17)
Cu3 Cu 0.17737(5) 0.92380(3) 0.53403(3)
N5 N 0.4301(3) 0.9953(2) 0.05698(19)
C19 C 0.5393(4) 0.0024(3) 0.0847(3)
C20 C 0.5997(5) 0.0696(4) 0.1042(4)
H12 H 0.6701 0.0577 0.1298
H13 H 0.5486 0.0991 0.1329
H14 H 0.6203 0.0966 0.0629
C1 C 0.7444(4) 0.6887(3) 0.3892(2)
C2 C 0.8095(4) 0.7557(3) 0.3648(3)
C3 C 0.8957(4) 0.7882(3) 0.4068(3)
H1 H 0.9087 0.7705 0.4517
C4 C 0.9622(4) 0.8469(3) 0.3820(2)
C5 C 0.9426(4) 0.8729(3) 0.3160(3)
H2 H 0.9876 0.9123 0.3001
C6 C 0.8574(4) 0.8426(3) 0.2715(2)
C7 C 0.7914(4) 0.7823(3) 0.2979(2)
H3 H 0.7347 0.7602 0.2696
C9 C 0.8370(4) 0.8737(3) 0.2026(2)
C10 C 0.9331(4) 0.8963(3) 0.1620(3)
C11 C 0.9145(4) 0.9307(3) 0.0997(2)
C12 C 0.8030(4) 0.9437(3) 0.0737(3)
H5 H 0.7917 0.9676 0.0313
C13 C 0.7079(4) 0.9193(3) 0.1138(3)
C14 C 0.7225(4) 0.8854(3) 0.1760(3)
H6 H 0.6569 0.8699 0.2013
C21 C 0.4106(5) 0.9210(4) 0.0486(4)
H15 H 0.3404 0.8997 0.0336
C22 C 0.5122(6) 0.8836(4) 0.0660(4)
H16 H 0.5243 0.8330 0.0630
N3 N 0.5902(3) 0.9337(2) 0.0881(2)
O1 O 0.6673(3) 0.65919(17) 0.35381(15)
O2 O 0.7744(2) 0.66421(18) 0.44954(15)
Cu4 Cu 0.67737(5) 0.57620(3) 0.46597(3)
C21_2 C 0.0894(5) 0.0790(4) 0.5486(4)
H15_2 H 0.1596 0.1003 0.5336
N4 N 0.0699(3) 0.0047(2) 0.55698(19)
C1_2 C 0.7556(4) 0.3113(3) 0.8892(2)
C2_2 C 0.6905(4) 0.2443(3) 0.8648(3)
C3_2 C 0.6043(4) 0.2118(3) 0.9068(3)
H1_2 H 0.5913 0.2295 0.9517
C4_2 C 0.5378(4) 0.1531(3) 0.8820(2)
C5_2 C 0.5574(4) 0.1271(3) 0.8160(3)
H2_2 H 0.5124 0.0877 0.8001
C6_2 C 0.6426(4) 0.1574(3) 0.7715(2)
C7_2 C 0.7086(4) 0.2177(3) 0.7979(2)
H3_2 H 0.7653 0.2398 0.7696
C8_2 C 0.4457(5) 0.1175(3) 0.9296(3)
C9_2 C 0.6630(4) 0.1263(3) 0.7026(2)
C10_2 C 0.5669(4) 0.1037(3) 0.6620(3)
H4_2 H 0.4902 0.1121 0.6776
C11_2 C 0.5855(4) 0.0693(3) 0.5997(2)
C12_2 C 0.6970(4) 0.0563(3) 0.5737(3)
H5_2 H 0.7083 0.0324 0.5313
C13_2 C 0.7921(4) 0.0807(3) 0.6138(3)
C14_2 C 0.7775(4) 0.1146(3) 0.6760(3)
H6_2 H 0.8431 0.1301 0.7013
C15_2 C 0.3920(4) 0.0048(3) 0.5842(2)
H7_2 H 0.3527 0.0314 0.6852
C17 C 0.3709(4) 0.0148(3) 0.4734(3)
H10 H 0.3386 0.0110 0.4289
C18 C 0.4739(5) 0.0487(3) 0.4893(3)
H11 H 0.5259 0.0712 0.4583
C22_2 C 0.9878(6) 0.1164(4) 0.5660(4)
H16_2 H 0.9757 0.1670 0.5630
N1_2 N 0.4860(3) 0.0431(2) 0.5600(2)
N3_2 N 0.9098(3) 0.0663(2) 0.5881(2)
O1_2 O 0.8327(3) 0.34081(17) 0.85381(15)
O2_2 O 0.7256(2) 0.33579(18) 0.94954(15)
Cu4_2 Cu 0.82263(5) 0.42380(3) 0.96597(3)
C16_2 C 0.3668(6) 0.9867(5) 0.6598(3)
H8_2 H 0.4334 0.9615 0.6796
H9_2 H 0.2982 0.9557 0.6626
C19_2 C 0.9607(4) 0.9976(3) 0.5847(3)
C20_2 C 0.9003(5) 0.9304(4) 0.6042(4)
H12_2 H 0.8299 0.9423 0.6298
H13_2 H 0.9514 0.9009 0.6329
H14_2 H 0.8797 0.9034 0.5629
N2_2 N 0.3220(3) 0.98730(19) 0.53282(19)
O5_2 O 0.1673(3) 0.84081(17) 0.64619(15)
O6_2 O 0.2744(2) 0.83579(18) 0.55046(15)
C1_3 C 0.2556(4) 0.1887(3) 0.1108(2)
C2_3 C 0.1905(4) 0.2557(3) 0.1352(3)
C3_3 C 0.1043(4) 0.2882(3) 0.0932(3)
H1_3 H 0.0913 0.2705 0.0483
C4_3 C 0.0378(4) 0.3469(3) 0.1180(2)
C5_3 C 0.0574(4) 0.3729(3) 0.1840(3)
H2_3 H 0.0124 0.4123 0.1999
C6_3 C 0.1426(4) 0.3426(3) 0.2285(2)
C7_3 C 0.2086(4) 0.2823(3) 0.2021(2)
H3_3 H 0.2653 0.2602 0.2304
C9_3 C 0.1630(4) 0.3737(3) 0.2974(2)
C10_3 C 0.0669(4) 0.3963(3) 0.3380(3)
C11_3 C 0.0855(4) 0.4307(3) 0.4003(2)
C12_3 C 0.1970(4) 0.4437(3) 0.4263(3)
H5_3 H 0.2083 0.4676 0.4687
C13_3 C 0.2921(4) 0.4193(3) 0.3862(3)
C14_3 C 0.2775(4) 0.3854(3) 0.3240(3)
H6_3 H 0.3431 0.3699 0.2987
H11_2 H 0.0259 0.4288 0.5417
C19_3 C 0.4607(4) 0.5024(3) 0.4153(3)
C20_3 C 0.4003(5) 0.5696(4) 0.3958(4)
H12_3 H 0.3299 0.5577 0.3702
H13_3 H 0.4514 0.5991 0.3671
H14_3 H 0.3797 0.5966 0.4371
C21_3 C 0.5894(5) 0.4210(4) 0.4514(4)
H15_3 H 0.6596 0.3997 0.4664
C22_3 C 0.4878(6) 0.3836(4) 0.4340(4)
H16_3 H 0.4757 0.3330 0.4370
N3_3 N 0.4098(3) 0.4337(2) 0.4119(2)
N4_2 N 0.5699(3) 0.4953(2) 0.44302(19)
C8_3 C 0.9457(5) 0.3825(3) 0.0704(3)
H4_3 H 0.9902 0.3879 0.3224
C15_3 C 0.8920(4) 0.4952(3) 0.4158(2)
C16_3 C 0.8668(6) 0.5133(5) 0.3402(3)
H7_3 H 0.8527 0.4686 0.3148
H8_3 H 0.9334 0.5385 0.3204
H9_3 H 0.7982 0.5443 0.3374
C17_2 C 0.8709(4) 0.4852(3) 0.5266(3)
H10_2 H 0.8386 0.4890 0.5711
C18_2 C 0.9739(5) 0.4513(3) 0.5107(3)
N1_3 N 0.9860(3) 0.4569(2) 0.4400(2)
N2_3 N 0.8220(3) 0.51270(19) 0.46718(19)
O3_2 O 0.9450(3) 0.36278(18) 0.00795(17)
O4_2 O 0.8747(3) 0.4278(2) 0.09586(17)
O7_2 O 0.5550(3) 0.63722(18) 0.50795(17)
O8_2 O 0.6253(3) 0.5722(2) 0.59586(17)
C17_3 C 0.6291(4) 0.5148(3) 0.0266(3)
H10_3 H 0.6614 0.5110 0.0711
C18_3 C 0.5261(5) 0.5487(3) 0.0107(3)
H11_3 H 0.4741 0.5712 0.0417
C1_4 C 0.2444(4) 0.8113(3) 0.6108(2)
C2_4 C 0.3095(4) 0.7443(3) 0.6352(3)
C3_4 C 0.3957(4) 0.7118(3) 0.5932(3)
H1_4 H 0.4087 0.7295 0.5483
C4_4 C 0.4622(4) 0.6531(3) 0.6180(2)
C5_4 C 0.4426(4) 0.6271(3) 0.6840(3)
H2_4 H 0.4876 0.5877 0.6999
C6_4 C 0.3574(4) 0.6574(3) 0.7285(2)
C7_4 C 0.2914(4) 0.7177(3) 0.7021(2)
H3_4 H 0.2347 0.7398 0.7304
C8_4 C 0.5543(5) 0.6175(3) 0.5704(3)
C9_4 C 0.3370(4) 0.6263(3) 0.7974(2)
C10_4 C 0.4331(4) 0.6037(3) 0.8380(3)
H4_4 H 0.5098 0.6121 0.8224
C11_4 C 0.4145(4) 0.5693(3) 0.9003(2)
C12_4 C 0.3030(4) 0.5563(3) 0.9263(3)
H5_4 H 0.2917 0.5324 0.9687
C13_4 C 0.2079(4) 0.5807(3) 0.8862(3)
C14_4 C 0.2225(4) 0.6146(3) 0.8240(3)
H6_4 H 0.1569 0.6301 0.7987
C15_4 C 0.6080(4) 0.5048(3) 0.9158(2)
C16_4 C 0.6332(6) 0.4867(5) 0.8402(3)
H7_4 H 0.6473 0.5314 0.8148
H8_4 H 0.5666 0.4615 0.8204
H9_4 H 0.7018 0.4557 0.8374
C19_4 C 0.0393(4) 0.4976(3) 0.9153(3)
C20_4 C 0.0997(5) 0.4304(4) 0.8958(4)
H12_4 H 0.1701 0.4423 0.8702
H13_4 H 0.0486 0.4009 0.8671
H14_4 H 0.1203 0.4034 0.9371
C22_4 C 0.0122(6) 0.6164(4) 0.9340(4)
H16_4 H 0.0243 0.6670 0.9370
N1_4 N 0.5140(3) 0.5431(2) 0.9400(2)
N2_4 N 0.6780(3) 0.48730(19) 0.96718(19)
N3_4 N 0.0902(3) 0.5663(2) 0.9119(2)
N5_2 N 0.9301(3) 0.5047(2) 0.94302(19)
C21_4 C 0.9106(5) 0.5790(4) 0.9514(4)
H15_4 H 0.8404 0.6003 0.9664
C17_4 C 0.1291(4) 0.9852(3) 0.9734(3)
H10_4 H 0.1614 0.9890 0.9289
C18_4 C 0.0261(5) 0.9513(3) 0.9893(3)
H11_4 H 0.9741 0.9288 0.9583
loop_
_geom_bond_atom_site_label_1
_geom_bond_atom_site_label_2
_geom_bond_site_symmetry_1
_geom_bond_site_symmetry_2
H8 C16 1_555 1_555
H9 C16 1_555 1_555
Cu1 N2 1_555 1_555
O5 Cu1 1_555 1_555
O6 Cu1 1_555 1_555
O3 C8 1_555 1_555
O4 C8 1_555 1_555
Cu3 O3 1_555 1_555
C15 N1 1_555 1_555
O4 Cu3 1_555 1_555
C19 C20 1_555 1_555
C20 H12 1_555 1_555
H13 C20 1_555 1_555
H14 C20 1_555 1_555
C1 C2 1_555 1_555
C2 C3 1_555 1_555
C3 H1 1_555 1_555
C4 C3 1_555 1_555
C5 C4 1_555 1_555
H2 C5 1_555 1_555
C6 C5 1_555 1_555
C7 C2 1_555 1_555
H3 C7 1_555 1_555
C9 C6 1_555 1_555
C10 C9 1_555 1_555
C11 C10 1_555 1_555
C12 C11 1_555 1_555
H5 C12 1_555 1_555
C13 C12 1_555 1_555
C14 C9 1_555 1_555
H6 C14 1_555 1_555
C21 H15 1_555 1_555
C22 C21 1_555 1_555
H16 C22 1_555 1_555
N3 C13 1_555 1_555
O1 C1 1_555 1_555
O2 C1 1_555 1_555
Cu4 O1 1_555 1_555
C6 C7 1_555 1_555
C13 C14 1_555 1_555
C21 N5 1_555 1_555
C22 N3 1_555 1_555
O2 Cu4 1_555 1_555
C21_2 H15_2 1_555 1_555
C21_2 N4 1_555 1_555
C1_2 C2_2 1_555 1_555
C2_2 C3_2 1_555 1_555
C3_2 H1_2 1_555 1_555
C4_2 C3_2 1_555 1_555
C5_2 C4_2 1_555 1_555
H2_2 C5_2 1_555 1_555
C6_2 C5_2 1_555 1_555
C7_2 C2_2 1_555 1_555
H3_2 C7_2 1_555 1_555
C8_2 C4_2 1_555 1_555
C9_2 C6_2 1_555 1_555
C10_2 C9_2 1_555 1_555
H4_2 C10_2 1_555 1_555
C11_2 C10_2 1_555 1_555
C12_2 C11_2 1_555 1_555
H5_2 C12_2 1_555 1_555
C13_2 C12_2 1_555 1_555
C14_2 C9_2 1_555 1_555
H6_2 C14_2 1_555 1_555
C17 H10 1_555 1_555
C18 C17 1_555 1_555
H11 C18 1_555 1_555
H16_2 C22_2 1_555 1_555
N1_2 C11_2 1_555 1_555
N3_2 C13_2 1_555 1_555
O1_2 C1_2 1_555 1_555
O2_2 C1_2 1_555 1_555
O7 C8_2 1_555 1_555
O8 C8_2 1_555 1_555
Cu4_2 O1_2 1_555 1_555
C6_2 C7_2 1_555 1_555
C13_2 C14_2 1_555 1_555
C15_2 N1_2 1_555 1_555
C18 N1_2 1_555 1_555
C22_2 N3_2 1_555 1_555
O2_2 Cu4_2 1_555 1_555
H8_2 C16_2 1_555 1_555
H9_2 C16_2 1_555 1_555
C19_2 C20_2 1_555 1_555
C20_2 H12_2 1_555 1_555
H13_2 C20_2 1_555 1_555
H14_2 C20_2 1_555 1_555
Cu3 N2_2 1_555 1_555
O5_2 Cu3 1_555 1_555
O6_2 Cu3 1_555 1_555
C1_3 C2_3 1_555 1_555
C2_3 C3_3 1_555 1_555
C3_3 H1_3 1_555 1_555
C4_3 C3_3 1_555 1_555
C5_3 C4_3 1_555 1_555
H2_3 C5_3 1_555 1_555
C6_3 C5_3 1_555 1_555
C7_3 C2_3 1_555 1_555
H3_3 C7_3 1_555 1_555
C9_3 C6_3 1_555 1_555
C10_3 C9_3 1_555 1_555
C11_3 C10_3 1_555 1_555
C12_3 C11_3 1_555 1_555
H5_3 C12_3 1_555 1_555
C13_3 C12_3 1_555 1_555
C14_3 C9_3 1_555 1_555
H6_3 C14_3 1_555 1_555
C19_3 C20_3 1_555 1_555
C20_3 H12_3 1_555 1_555
H13_3 C20_3 1_555 1_555
H14_3 C20_3 1_555 1_555
C21_3 H15_3 1_555 1_555
C22_3 C21_3 1_555 1_555
H16_3 C22_3 1_555 1_555
N3_3 C13_3 1_555 1_555
N4_2 C19_3 1_555 1_555
O5 C1_3 1_555 1_555
O6 C1_3 1_555 1_555
Cu4 N4_2 1_555 1_555
C6_3 C7_3 1_555 1_555
C13_3 C14_3 1_555 1_555
C19_3 N3_3 1_555 1_555
C21_3 N4_2 1_555 1_555
C22_3 N3_3 1_555 1_555
C15_3 C16_3 1_555 1_555
C16_3 H7_3 1_555 1_555
H8_3 C16_3 1_555 1_555
H9_3 C16_3 1_555 1_555
C17_2 H10_2 1_555 1_555
C18_2 C17_2 1_555 1_555
Cu4 N2_3 1_555 1_555
N2_3 C15_3 1_555 1_555
O3_2 C8_3 1_555 1_555
O4_2 C8_3 1_555 1_555
O7_2 Cu4 1_555 1_555
O8_2 Cu4 1_555 1_555
C15_3 N1_3 1_555 1_555
C17_2 N2_3 1_555 1_555
C18_2 N1_3 1_555 1_555
C17_3 H10_3 1_555 1_555
C18_3 C17_3 1_555 1_555
H11_3 C18_3 1_555 1_555
C1_4 C2_4 1_555 1_555
C2_4 C3_4 1_555 1_555
C3_4 H1_4 1_555 1_555
C4_4 C3_4 1_555 1_555
C5_4 C4_4 1_555 1_555
H2_4 C5_4 1_555 1_555
C6_4 C5_4 1_555 1_555
C7_4 C2_4 1_555 1_555
H3_4 C7_4 1_555 1_555
C8_4 C4_4 1_555 1_555
C9_4 C6_4 1_555 1_555
C10_4 C9_4 1_555 1_555
H4_4 C10_4 1_555 1_555
C11_4 C10_4 1_555 1_555
C12_4 C11_4 1_555 1_555
H5_4 C12_4 1_555 1_555
C13_4 C12_4 1_555 1_555
C14_4 C9_4 1_555 1_555
H6_4 C14_4 1_555 1_555
C15_4 C16_4 1_555 1_555
C16_4 H7_4 1_555 1_555
H8_4 C16_4 1_555 1_555
H9_4 C16_4 1_555 1_555
C19_4 C20_4 1_555 1_555
C20_4 H12_4 1_555 1_555
H13_4 C20_4 1_555 1_555
H14_4 C20_4 1_555 1_555
H16_4 C22_4 1_555 1_555
Cu4_2 N2_4 1_555 1_555
N1_4 C11_4 1_555 1_555
N2_4 C15_4 1_555 1_555
N3_4 C13_4 1_555 1_555
O5_2 C1_4 1_555 1_555
O6_2 C1_4 1_555 1_555
O7_2 C8_4 1_555 1_555
O8_2 C8_4 1_555 1_555
N5_2 Cu4_2 1_555 1_555
C6_4 C7_4 1_555 1_555
C13_4 C14_4 1_555 1_555
C15_4 N1_4 1_555 1_555
C19_4 N3_4 1_555 1_555
C22_4 N3_4 1_555 1_555
C21_4 H15_4 1_555 1_555
C21_4 N5_2 1_555 1_555
C17_4 H10_4 1_555 1_555
C18_4 C17_4 1_555 1_555

#END
