
###############################################################################
#
# This file contains modified crystal structure data generated from the
# MOF subset of the Cambridge Structural Database (CSD) v543 
# hosted by the Cambridge Crystallographic Data Centre (CCDC).
#
# This work is licensed under the Creative Commons
# Attribution-NonCommercial-ShareAlike 4.0 International License.
# To view a copy of this license, visit
# http://creativecommons.org/licenses/by-nc-sa/4.0/
# or send a letter to
# Creative Commons, PO Box 1866, Mountain View, CA 94042, USA.
#
# CIF created using the CSD Python API on 29 September 2022
# The structure has been converted into the P1 space group
# The structure has a 3D framework
# The original CSD entry BEKQUG is in the orthorhombic crystal system
# The framework has been calculated to contain at least 10.0% void space
# The void calculation uses a probe of radius 1.32A, grid spacing 0.4
#
###############################################################################

data_BEKQUG
_chemical_formula_moiety         '(C48 H32 N24 O16 Zn8)n'
_symmetry_cell_setting           triclinic
_symmetry_space_group_name_H-M   'P 1'
_symmetry_Int_Tables_number      1
_space_group_name_Hall           'P 1'
loop_
_symmetry_equiv_pos_site_id
_symmetry_equiv_pos_as_xyz
1 x,y,z
_cell_length_a                   10.1168(3)
_cell_length_b                   26.4504(10)
_cell_length_c                   9.6256(3)
_cell_angle_alpha                90
_cell_angle_beta                 90
_cell_angle_gamma                90
_cell_volume                     2575.75
loop_
_atom_site_label
_atom_site_type_symbol
_atom_site_fract_x
_atom_site_fract_y
_atom_site_fract_z
Zn1 Zn 0.38608(3) 0.45408(2) 0.08768(4)
N1 N 0.6490(2) 0.51126(10) 0.0921(2)
C1 C 0.6283(3) 0.45925(12) 0.2618(3)
H1 H 0.5925 0.4355 0.3222
N2 N 0.5639(2) 0.47855(10) 0.1560(3)
N3 N 0.7514(2) 0.47760(10) 0.2733(3)
O1 O 0.4153(3) 0.38146(12) 0.1116(4)
C2 C 0.3210(5) 0.30264(15) 0.0730(5)
C3 C 0.3202(5) 0.36043(18) 0.0644(5)
C4 C 0.4251(5) 0.27661(17) 0.1295(7)
H2 H 0.4959 0.2942 0.1679
C5 C 0.7598(3) 0.50940(12) 0.1657(3)
H3 H 0.8350 0.5281 0.1447
C6 C 0.2154(6) 0.27618(15) 0.0231(5)
O2 O 0.2239(4) 0.38241(11) 0.0142(4)
O3 O 0.4153(3) 0.11854(12) 0.1116(4)
C7 C 0.3210(5) 0.19736(15) 0.0730(5)
C8 C 0.3202(5) 0.13957(18) 0.0644(5)
C9 C 0.4251(5) 0.22339(17) 0.1295(7)
H5 H 0.4959 0.2058 0.1679
C10 C 0.2154(6) 0.22382(15) 0.0231(5)
O4 O 0.2239(4) 0.11759(11) 0.0142(4)
Zn4 Zn 0.88608(3) 0.45408(2) 0.41232(4)
Zn5 Zn 0.38608(3) 0.04592(2) 0.08768(4)
N8 N 0.2514(2) 0.47760(10) 0.2267(3)
H4 H 0.1425 0.2935 0.9887
H6 H 0.1425 0.2065 0.9887
Zn2 Zn 0.61392(3) 0.54592(2) 0.91232(4)
N4 N 0.3510(2) 0.48874(10) 0.9079(2)
C11 C 0.3717(3) 0.54075(12) 0.7382(3)
H7 H 0.4075 0.5645 0.6778
N5 N 0.4361(2) 0.52145(10) 0.8440(3)
N6 N 0.2486(2) 0.52240(10) 0.7267(3)
C12 C 0.2402(3) 0.49060(12) 0.8343(3)
H8 H 0.1650 0.4719 0.8553
Zn3 Zn 0.11392(3) 0.54592(2) 0.58768(4)
N7 N 0.7486(2) 0.52240(10) 0.7733(3)
O5 O 0.5847(3) 0.61854(12) 0.8884(4)
O1_2 O 0.0847(3) 0.61854(12) 0.6116(4)
C2_2 C 0.1790(5) 0.69736(15) 0.5730(5)
C3_2 C 0.1798(5) 0.63957(18) 0.5644(5)
C4_2 C 0.0749(5) 0.72339(17) 0.6295(7)
H2_2 H 0.0041 0.7058 0.6679
C6_2 C 0.2846(6) 0.72382(15) 0.5231(5)
H4_2 H 0.3575 0.7065 0.4887
O2_2 O 0.2761(4) 0.61759(11) 0.5142(4)
O3_2 O 0.0847(3) 0.88146(12) 0.6116(4)
C7_2 C 0.1790(5) 0.80264(15) 0.5730(5)
C8_2 C 0.1798(5) 0.86043(18) 0.5644(5)
C9_2 C 0.0749(5) 0.77661(17) 0.6295(7)
H5_2 H 0.0041 0.7942 0.6679
C10_2 C 0.2846(6) 0.77618(15) 0.5231(5)
H6_2 H 0.3575 0.7935 0.4887
O4_2 O 0.2761(4) 0.88241(11) 0.5142(4)
N4_2 N 0.1490(2) 0.51126(10) 0.4079(2)
C11_2 C 0.1283(3) 0.45925(12) 0.2382(3)
H7_2 H 0.0925 0.4355 0.1778
N5_2 N 0.0639(2) 0.47855(10) 0.3440(3)
C12_2 C 0.2598(3) 0.50940(12) 0.3343(3)
H8_2 H 0.3350 0.5281 0.3553
Zn5_2 Zn 0.11392(3) 0.95408(2) 0.58768(4)
N1_2 N 0.8510(2) 0.48874(10) 0.5921(2)
C1_2 C 0.8717(3) 0.54075(12) 0.7618(3)
H1_2 H 0.9075 0.5645 0.8222
N2_2 N 0.9361(2) 0.52145(10) 0.6560(3)
C5_2 C 0.7402(3) 0.49060(12) 0.6657(3)
H3_2 H 0.6650 0.4719 0.6447
O5_2 O 0.9153(3) 0.38146(12) 0.3884(4)
C1_3 C 0.1283(3) 0.04075(12) 0.2382(3)
H1_3 H 0.0925 0.0645 0.1778
N2_3 N 0.0639(2) 0.02145(10) 0.3440(3)
N3_2 N 0.2514(2) 0.02240(10) 0.2267(3)
N1_3 N 0.1490(2) 0.98874(10) 0.4079(2)
C5_3 C 0.2598(3) 0.99060(12) 0.3343(3)
H3_3 H 0.3350 0.9719 0.3553
N7_2 N 0.2486(2) 0.97760(10) 0.7267(3)
Zn1_2 Zn 0.88608(3) 0.04592(2) 0.41232(4)
O1_3 O 0.9153(3) 0.11854(12) 0.3884(4)
C2_3 C 0.8210(5) 0.19736(15) 0.4270(5)
C3_3 C 0.8202(5) 0.13957(18) 0.4356(5)
C4_3 C 0.9251(5) 0.22339(17) 0.3705(7)
H2_3 H 0.9959 0.2058 0.3321
C6_3 C 0.7154(6) 0.22382(15) 0.4769(5)
H4_3 H 0.6425 0.2065 0.5113
O2_3 O 0.7239(4) 0.11759(11) 0.4858(4)
C7_3 C 0.8210(5) 0.30264(15) 0.4270(5)
C8_3 C 0.8202(5) 0.36043(18) 0.4356(5)
C9_3 C 0.9251(5) 0.27661(17) 0.3705(7)
H5_3 H 0.9959 0.2942 0.3321
C10_3 C 0.7154(6) 0.27618(15) 0.4769(5)
H6_3 H 0.6425 0.2935 0.5113
O4_3 O 0.7239(4) 0.38241(11) 0.4858(4)
N4_3 N 0.8510(2) 0.01126(10) 0.5921(2)
C12_3 C 0.7402(3) 0.00940(12) 0.6657(3)
H8_3 H 0.6650 0.0281 0.6447
N8_2 N 0.7514(2) 0.02240(10) 0.2733(3)
C11_3 C 0.8717(3) 0.95925(12) 0.7618(3)
H7_3 H 0.9075 0.9355 0.8222
N5_3 N 0.9361(2) 0.97855(10) 0.6560(3)
N6_2 N 0.7486(2) 0.97760(10) 0.7733(3)
Zn3_2 Zn 0.61392(3) 0.95408(2) 0.91232(4)
C11_4 C 0.6283(3) 0.04075(12) 0.2618(3)
H7_4 H 0.5925 0.0645 0.3222
N5_4 N 0.5639(2) 0.02145(10) 0.1560(3)
N1_4 N 0.3510(2) 0.01126(10) 0.9079(2)
C5_4 C 0.2402(3) 0.00940(12) 0.8343(3)
H3_4 H 0.1650 0.0281 0.8553
H4_4 H 0.8575 0.7935 0.0113
H6_4 H 0.8575 0.7065 0.0113
N4_4 N 0.6490(2) 0.98874(10) 0.0921(2)
C12_4 C 0.7598(3) 0.99060(12) 0.1657(3)
H8_4 H 0.8350 0.9719 0.1447
C1_4 C 0.3717(3) 0.95925(12) 0.7382(3)
H1_4 H 0.4075 0.9355 0.6778
N2_4 N 0.4361(2) 0.97855(10) 0.8440(3)
O1_4 O 0.5847(3) 0.88146(12) 0.8884(4)
C2_4 C 0.6790(5) 0.80264(15) 0.9270(5)
C3_4 C 0.6798(5) 0.86043(18) 0.9356(5)
C4_4 C 0.5749(5) 0.77661(17) 0.8705(7)
H2_4 H 0.5041 0.7942 0.8321
C6_4 C 0.7846(6) 0.77618(15) 0.9769(5)
O2_4 O 0.7761(4) 0.88241(11) 0.9858(4)
C7_4 C 0.6790(5) 0.69736(15) 0.9270(5)
C8_4 C 0.6798(5) 0.63957(18) 0.9356(5)
C9_4 C 0.5749(5) 0.72339(17) 0.8705(7)
H5_4 H 0.5041 0.7058 0.8321
C10_4 C 0.7846(6) 0.72382(15) 0.9769(5)
O4_4 O 0.7761(4) 0.61759(11) 0.9858(4)
loop_
_geom_bond_atom_site_label_1
_geom_bond_atom_site_label_2
_geom_bond_site_symmetry_1
_geom_bond_site_symmetry_2
Zn1 N2 1_555 1_555
N1 N2 1_555 1_555
C1 H1 1_555 1_555
N2 C1 1_555 1_555
N3 C1 1_555 1_555
O1 Zn1 1_555 1_555
C2 C3 1_555 1_555
C3 O1 1_555 1_555
C4 C2 1_555 1_555
H2 C4 1_555 1_555
C5 N1 1_555 1_555
H3 C5 1_555 1_555
C6 C2 1_555 1_555
O2 C3 1_555 1_555
O3 C8 1_555 1_555
C7 C8 1_555 1_555
C8 O4 1_555 1_555
C9 C4 1_555 1_555
H5 C9 1_555 1_555
C10 C6 1_555 1_555
Zn4 N3 1_555 1_555
Zn5 O3 1_555 1_555
N8 Zn1 1_555 1_555
N3 C5 1_555 1_555
C7 C9 1_555 1_555
C7 C10 1_555 1_555
C11 H7 1_555 1_555
N5 Zn2 1_555 1_555
N6 C11 1_555 1_555
C12 N4 1_555 1_555
H8 C12 1_555 1_555
Zn3 N6 1_555 1_555
N7 Zn2 1_555 1_555
O5 Zn2 1_555 1_555
N4 N5 1_555 1_555
C11 N5 1_555 1_555
N6 C12 1_555 1_555
O1_2 Zn3 1_555 1_555
C2_2 C3_2 1_555 1_555
C3_2 O1_2 1_555 1_555
C4_2 C2_2 1_555 1_555
H2_2 C4_2 1_555 1_555
C6_2 C2_2 1_555 1_555
H4_2 C6_2 1_555 1_555
O2_2 C3_2 1_555 1_555
O3_2 C8_2 1_555 1_555
C7_2 C8_2 1_555 1_555
C8_2 O4_2 1_555 1_555
C9_2 C4_2 1_555 1_555
H5_2 C9_2 1_555 1_555
C10_2 C6_2 1_555 1_555
H6_2 C10_2 1_555 1_555
N4_2 Zn3 1_555 1_555
C11_2 H7_2 1_555 1_555
N8 C11_2 1_555 1_555
C12_2 N4_2 1_555 1_555
H8_2 C12_2 1_555 1_555
Zn5_2 O3_2 1_555 1_555
C7_2 C9_2 1_555 1_555
C7_2 C10_2 1_555 1_555
N4_2 N5_2 1_555 1_555
C11_2 N5_2 1_555 1_555
N8 C12_2 1_555 1_555
N1_2 N2_2 1_555 1_555
C1_2 H1_2 1_555 1_555
N2_2 C1_2 1_555 1_555
N7 C1_2 1_555 1_555
C5_2 N1_2 1_555 1_555
H3_2 C5_2 1_555 1_555
Zn4 N1_2 1_555 1_555
O5_2 Zn4 1_555 1_555
N7 C5_2 1_555 1_555
C1_3 H1_3 1_555 1_555
N2_3 C1_3 1_555 1_555
N3_2 C1_3 1_555 1_555
Zn5 N3_2 1_555 1_555
C5_3 N1_3 1_555 1_555
H3_3 C5_3 1_555 1_555
Zn5_2 N1_3 1_555 1_555
N7_2 Zn5_2 1_555 1_555
O1_3 Zn1_2 1_555 1_555
C2_3 C3_3 1_555 1_555
C3_3 O1_3 1_555 1_555
C4_3 C2_3 1_555 1_555
H2_3 C4_3 1_555 1_555
C6_3 C2_3 1_555 1_555
H4_3 C6_3 1_555 1_555
O2_3 C3_3 1_555 1_555
O5_2 C8_3 1_555 1_555
C7_3 C8_3 1_555 1_555
C8_3 O4_3 1_555 1_555
C9_3 C4_3 1_555 1_555
H5_3 C9_3 1_555 1_555
C10_3 C6_3 1_555 1_555
H6_3 C10_3 1_555 1_555
N4_3 Zn1_2 1_555 1_555
C12_3 N4_3 1_555 1_555
H8_3 C12_3 1_555 1_555
N8_2 Zn1_2 1_555 1_555
C7_3 C9_3 1_555 1_555
C7_3 C10_3 1_555 1_555
C11_3 H7_3 1_555 1_555
N6_2 C11_3 1_555 1_555
Zn3_2 N6_2 1_555 1_555
C11_3 N5_3 1_555 1_555
C11_4 H7_4 1_555 1_555
N5_4 Zn5 1_555 1_555
N8_2 C11_4 1_555 1_555
C11_4 N5_4 1_555 1_555
C5_4 N1_4 1_555 1_555
H3_4 C5_4 1_555 1_555
C12_4 N4_4 1_555 1_555
H8_4 C12_4 1_555 1_555
Zn3_2 N2_4 1_555 1_555
C1_4 H1_4 1_555 1_555
N2_4 C1_4 1_555 1_555
N7_2 C1_4 1_555 1_555
O1_4 Zn3_2 1_555 1_555
C2_4 C3_4 1_555 1_555
C3_4 O1_4 1_555 1_555
C4_4 C2_4 1_555 1_555
H2_4 C4_4 1_555 1_555
C6_4 C2_4 1_555 1_555
O2_4 C3_4 1_555 1_555
O5 C8_4 1_555 1_555
C7_4 C8_4 1_555 1_555
C8_4 O4_4 1_555 1_555
C9_4 C4_4 1_555 1_555
H5_4 C9_4 1_555 1_555
C10_4 C6_4 1_555 1_555
C7_4 C9_4 1_555 1_555
C7_4 C10_4 1_555 1_555

#END
