
###############################################################################
#
# This file contains modified crystal structure data generated from the
# MOF subset of the Cambridge Structural Database (CSD) v543 
# hosted by the Cambridge Crystallographic Data Centre (CCDC).
#
# This work is licensed under the Creative Commons
# Attribution-NonCommercial-ShareAlike 4.0 International License.
# To view a copy of this license, visit
# http://creativecommons.org/licenses/by-nc-sa/4.0/
# or send a letter to
# Creative Commons, PO Box 1866, Mountain View, CA 94042, USA.
#
# CIF created using the CSD Python API on 29 September 2022
# The structure has been converted into the P1 space group
# The structure has a 3D framework
# The original CSD entry BENXOJ is in the monoclinic crystal system
# The framework has been calculated to contain at least 10.0% void space
# The void calculation uses a probe of radius 1.32A, grid spacing 0.4
#
###############################################################################

data_BENXOJ
_chemical_formula_moiety         '(C80 H72 N16 O32 Zn14)n'
_symmetry_cell_setting           triclinic
_symmetry_space_group_name_H-M   'P 1'
_symmetry_Int_Tables_number      1
_space_group_name_Hall           'P 1'
loop_
_symmetry_equiv_pos_site_id
_symmetry_equiv_pos_as_xyz
1 x,y,z
_cell_length_a                   20.4432(5)
_cell_length_b                   9.1336(2)
_cell_length_c                   16.6912(5)
_cell_angle_alpha                90
_cell_angle_beta                 110.023(3)
_cell_angle_gamma                90
_cell_volume                     2928.2
loop_
_atom_site_label
_atom_site_type_symbol
_atom_site_fract_x
_atom_site_fract_y
_atom_site_fract_z
Zn1 Zn 0.33815(3) 0.79978(7) 0.23191(3)
Zn2 Zn 0.5000 0.74254(11) 0.2500
C6 C 0.4128(3) 0.4595(6) 0.0068(3)
H3 H 0.4539 0.4377 0.0510
C7 C 0.3854(3) 0.6380(6) 0.1060(3)
C8 C 0.3673(2) 0.5637(6) 0.0213(3)
O1 O 0.4439(2) 0.6100(5) 0.1602(2)
O2 O 0.3418(2) 0.7237(5) 0.1184(2)
O3 O 0.43451(19) 0.8529(5) 0.2826(3)
H8 H 0.4485 0.9295 0.3215
Zn3 Zn 0.66185(3) 0.79978(7) 0.26809(3)
C11 C 0.8006(5) 0.4278(12) 0.8396(5)
H10 H 0.7784 0.3871 0.8782
C12 C 0.7518(3) 0.4532(7) 0.7497(3)
C13 C 0.7092(2) 0.5293(6) 0.6209(3)
C14 C 0.6642(3) 0.4250(6) 0.6335(3)
C15 C 0.6955(3) 0.5985(6) 0.5426(3)
H11 H 0.7267 0.6647 0.5333
C16 C 0.5872(3) 0.4595(6) 0.4932(3)
H12 H 0.5461 0.4377 0.4490
C17 C 0.6146(3) 0.6380(6) 0.3940(3)
C18 C 0.6327(2) 0.5637(6) 0.4787(3)
C19 C 0.6010(3) 0.3896(7) 0.5690(3)
H13 H 0.5702 0.3217 0.5778
C20 C 0.8677(6) 0.3332(15) 0.8347(8)
H14 H 0.8918 0.3888 0.8046
H15 H 0.8516 0.2428 0.8051
H16 H 0.8987 0.3128 0.8914
O5 O 0.5561(2) 0.6100(5) 0.3398(2)
O6 O 0.6582(2) 0.7237(5) 0.3816(2)
O7 O 0.56549(19) 0.8529(5) 0.2174(3)
H17 H 0.5515 0.9295 0.1785
O8 O 0.8399(4) 0.5475(10) 0.8695(4)
H18 H 0.8565 0.5432 0.9217
N3 N 0.7647(2) 0.5453(5) 0.6976(3)
N4 N 0.6924(2) 0.3740(6) 0.7173(3)
Zn4 Zn 0.66185(3) 0.20022(7) 0.76809(3)
Zn7 Zn 0.83815(3) 0.70022(7) 0.73191(3)
N5 N 0.2647(2) 0.9547(5) 0.1976(3)
N6 N 0.7353(2) 0.9547(5) 0.3024(3)
N7 N 0.6924(2) 0.6260(6) 0.2173(3)
N8 N 0.3076(2) 0.6260(6) 0.2827(3)
C1 C 0.1994(5) 0.4278(12) 0.6604(5)
H1 H 0.2216 0.3871 0.6218
C2 C 0.2482(3) 0.4532(7) 0.7503(3)
C3 C 0.2908(2) 0.5293(6) 0.8791(3)
C4 C 0.3358(3) 0.4250(6) 0.8665(3)
C5 C 0.3045(3) 0.5985(6) 0.9574(3)
H2 H 0.2733 0.6647 0.9667
C9 C 0.3990(3) 0.3896(7) 0.9310(3)
H4 H 0.4298 0.3217 0.9222
C10 C 0.1323(6) 0.3332(15) 0.6653(8)
H5 H 0.1082 0.3888 0.6954
H6 H 0.1484 0.2428 0.6949
H7 H 0.1013 0.3128 0.6086
O4 O 0.1601(4) 0.5475(10) 0.6305(4)
H9 H 0.1435 0.5432 0.5783
N1 N 0.2353(2) 0.5453(5) 0.8024(3)
N2 N 0.3076(2) 0.3740(6) 0.7827(3)
Zn5 Zn 0.33815(3) 0.20022(7) 0.73191(3)
Zn6 Zn 0.16185(3) 0.70022(7) 0.76809(3)
Zn2_2 Zn 0.0000 0.24254(11) 0.2500
Zn3_2 Zn 0.16185(3) 0.29978(7) 0.26809(3)
C13_2 C 0.2092(2) 0.0293(6) 0.6209(3)
C15_2 C 0.1955(3) 0.0985(6) 0.5426(3)
H11_2 H 0.2267 0.1647 0.5333
C17_2 C 0.1146(3) 0.1380(6) 0.3940(3)
C18_2 C 0.1327(2) 0.0637(6) 0.4787(3)
O5_2 O 0.0561(2) 0.1100(5) 0.3398(2)
O6_2 O 0.1582(2) 0.2237(5) 0.3816(2)
O7_2 O 0.06549(19) 0.3529(5) 0.2174(3)
H17_2 H 0.0515 0.4295 0.1785
O8_2 O 0.3399(4) 0.0475(10) 0.8695(4)
H18_2 H 0.3565 0.0432 0.9217
N3_2 N 0.2647(2) 0.0453(5) 0.6976(3)
N6_2 N 0.2353(2) 0.4547(5) 0.3024(3)
N7_2 N 0.1924(2) 0.1260(6) 0.2173(3)
C11_2 C 0.3006(5) 0.9278(12) 0.8396(5)
H10_2 H 0.2784 0.8871 0.8782
C12_2 C 0.2518(3) 0.9532(7) 0.7497(3)
C14_2 C 0.1642(3) 0.9250(6) 0.6335(3)
C16_2 C 0.0872(3) 0.9595(6) 0.4932(3)
H12_2 H 0.0461 0.9377 0.4490
C19_2 C 0.1010(3) 0.8896(7) 0.5690(3)
H13_2 H 0.0702 0.8217 0.5778
C20_2 C 0.3677(6) 0.8332(15) 0.8347(8)
H14_2 H 0.3918 0.8888 0.8046
H15_2 H 0.3516 0.7428 0.8051
H16_2 H 0.3987 0.8128 0.8914
N4_2 N 0.1924(2) 0.8740(6) 0.7173(3)
Zn1_2 Zn 0.83815(3) 0.29978(7) 0.23191(3)
Zn2_3 Zn 1.0000 0.24254(11) 0.2500
C7_2 C 0.8854(3) 0.1380(6) 0.1060(3)
C8_2 C 0.8673(2) 0.0637(6) 0.0213(3)
O1_2 O 0.9439(2) 0.1100(5) 0.1602(2)
O2_2 O 0.8418(2) 0.2237(5) 0.1184(2)
O3_2 O 0.93451(19) 0.3529(5) 0.2826(3)
H8_2 H 0.9485 0.4295 0.3215
N5_2 N 0.7647(2) 0.4547(5) 0.1976(3)
N8_2 N 0.8076(2) 0.1260(6) 0.2827(3)
C3_2 C 0.7908(2) 0.0293(6) 0.8791(3)
C5_2 C 0.8045(3) 0.0985(6) 0.9574(3)
H2_2 H 0.7733 0.1647 0.9667
O4_2 O 0.6601(4) 0.0475(10) 0.6305(4)
H9_2 H 0.6435 0.0432 0.5783
N1_2 N 0.7353(2) 0.0453(5) 0.8024(3)
C1_2 C 0.6994(5) 0.9278(12) 0.6604(5)
H1_2 H 0.7216 0.8871 0.6218
C2_2 C 0.7482(3) 0.9532(7) 0.7503(3)
C4_2 C 0.8358(3) 0.9250(6) 0.8665(3)
C9_2 C 0.8990(3) 0.8896(7) 0.9310(3)
H4_2 H 0.9298 0.8217 0.9222
C10_2 C 0.6323(6) 0.8332(15) 0.6653(8)
H5_2 H 0.6082 0.8888 0.6954
H6_2 H 0.6484 0.7428 0.6949
H7_2 H 0.6013 0.8128 0.6086
N2_2 N 0.8076(2) 0.8740(6) 0.7827(3)
C1_3 C 0.8006(5) 0.5722(12) 0.3396(5)
H1_3 H 0.7784 0.6129 0.3782
C2_3 C 0.7518(3) 0.5468(7) 0.2497(3)
C3_3 C 0.7092(2) 0.4707(6) 0.1209(3)
C4_3 C 0.6642(3) 0.5750(6) 0.1335(3)
C5_3 C 0.6955(3) 0.4015(6) 0.0426(3)
H2_3 H 0.7267 0.3353 0.0333
C9_3 C 0.6010(3) 0.6104(7) 0.0690(3)
H4_3 H 0.5702 0.6783 0.0778
C10_3 C 0.8677(6) 0.6668(15) 0.3347(8)
H5_3 H 0.8918 0.6112 0.3046
H6_3 H 0.8516 0.7572 0.3051
H7_3 H 0.8987 0.6872 0.3914
O4_3 O 0.8399(4) 0.4525(10) 0.3695(4)
H9_3 H 0.8565 0.4568 0.4217
Zn2_4 Zn 0.5000 0.25746(11) 0.7500
C6_2 C 0.5872(3) 0.5405(6) 0.9932(3)
H3_2 H 0.5461 0.5623 0.9490
C7_3 C 0.6146(3) 0.3620(6) 0.8940(3)
C8_3 C 0.6327(2) 0.4363(6) 0.9787(3)
O1_3 O 0.5561(2) 0.3900(5) 0.8398(2)
O2_3 O 0.6582(2) 0.2763(5) 0.8816(2)
O3_3 O 0.56549(19) 0.1471(5) 0.7174(3)
H8_3 H 0.5515 0.0705 0.6785
C11_3 C 0.1994(5) 0.5722(12) 0.1604(5)
H10_3 H 0.2216 0.6129 0.1218
C12_3 C 0.2482(3) 0.5468(7) 0.2503(3)
C13_3 C 0.2908(2) 0.4707(6) 0.3791(3)
C14_3 C 0.3358(3) 0.5750(6) 0.3665(3)
C15_3 C 0.3045(3) 0.4015(6) 0.4574(3)
H11_3 H 0.2733 0.3353 0.4667
C16_3 C 0.4128(3) 0.5405(6) 0.5068(3)
H12_3 H 0.4539 0.5623 0.5510
C17_3 C 0.3854(3) 0.3620(6) 0.6060(3)
C18_3 C 0.3673(2) 0.4363(6) 0.5213(3)
C19_3 C 0.3990(3) 0.6104(7) 0.4310(3)
H13_3 H 0.4298 0.6783 0.4222
C20_3 C 0.1323(6) 0.6668(15) 0.1653(8)
H14_3 H 0.1082 0.6112 0.1954
H15_3 H 0.1484 0.7572 0.1949
H16_3 H 0.1013 0.6872 0.1086
O5_3 O 0.4439(2) 0.3900(5) 0.6602(2)
O6_3 O 0.3418(2) 0.2763(5) 0.6184(2)
O7_3 O 0.43451(19) 0.1471(5) 0.7826(3)
H17_3 H 0.4485 0.0705 0.8215
O8_3 O 0.1601(4) 0.4525(10) 0.1305(4)
H18_3 H 0.1435 0.4568 0.0783
C1_4 C 0.3006(5) 0.0722(12) 0.3396(5)
H1_4 H 0.2784 0.1129 0.3782
C2_4 C 0.2518(3) 0.0468(7) 0.2497(3)
C4_4 C 0.1642(3) 0.0750(6) 0.1335(3)
C9_4 C 0.1010(3) 0.1104(7) 0.0690(3)
H4_4 H 0.0702 0.1783 0.0778
C10_4 C 0.3677(6) 0.1668(15) 0.3347(8)
H5_4 H 0.3918 0.1112 0.3046
H6_4 H 0.3516 0.2572 0.3051
H7_4 H 0.3987 0.1872 0.3914
C3_4 C 0.2092(2) 0.9707(6) 0.1209(3)
C5_4 C 0.1955(3) 0.9015(6) 0.0426(3)
H2_4 H 0.2267 0.8353 0.0333
O4_4 O 0.3399(4) 0.9525(10) 0.3695(4)
H9_4 H 0.3565 0.9568 0.4217
Zn2_5 Zn 0.0000 0.75746(11) 0.7500
C7_4 C 0.1146(3) 0.8620(6) 0.8940(3)
C8_4 C 0.1327(2) 0.9363(6) 0.9787(3)
O1_4 O 0.0561(2) 0.8900(5) 0.8398(2)
O2_4 O 0.1582(2) 0.7763(5) 0.8816(2)
O3_4 O 0.06549(19) 0.6471(5) 0.7174(3)
H8_4 H 0.0515 0.5705 0.6785
C11_4 C 0.6994(5) 0.0722(12) 0.1604(5)
H10_4 H 0.7216 0.1129 0.1218
C12_4 C 0.7482(3) 0.0468(7) 0.2503(3)
C14_4 C 0.8358(3) 0.0750(6) 0.3665(3)
C16_4 C 0.9128(3) 0.0405(6) 0.5068(3)
H12_4 H 0.9539 0.0623 0.5510
C19_4 C 0.8990(3) 0.1104(7) 0.4310(3)
H13_4 H 0.9298 0.1783 0.4222
C20_4 C 0.6323(6) 0.1668(15) 0.1653(8)
H14_4 H 0.6082 0.1112 0.1954
H15_4 H 0.6484 0.2572 0.1949
H16_4 H 0.6013 0.1872 0.1086
Zn2_6 Zn 1.0000 0.75746(11) 0.7500
C13_4 C 0.7908(2) 0.9707(6) 0.3791(3)
C15_4 C 0.8045(3) 0.9015(6) 0.4574(3)
H11_4 H 0.7733 0.8353 0.4667
C17_4 C 0.8854(3) 0.8620(6) 0.6060(3)
C18_4 C 0.8673(2) 0.9363(6) 0.5213(3)
O5_4 O 0.9439(2) 0.8900(5) 0.6602(2)
O6_4 O 0.8418(2) 0.7763(5) 0.6184(2)
O7_4 O 0.93451(19) 0.6471(5) 0.7826(3)
H17_4 H 0.9485 0.5705 0.8215
O8_4 O 0.6601(4) 0.9525(10) 0.1305(4)
H18_4 H 0.6435 0.9568 0.0783
C6_3 C 0.9128(3) 0.9595(6) 0.0068(3)
H3_3 H 0.9539 0.9377 0.0510
C6_4 C 0.0872(3) 0.0405(6) 0.9932(3)
H3_4 H 0.0461 0.0623 0.9490
loop_
_geom_bond_atom_site_label_1
_geom_bond_atom_site_label_2
_geom_bond_site_symmetry_1
_geom_bond_site_symmetry_2
Zn1 O2 1_555 1_555
Zn2 O1 1_555 1_555
C6 H3 1_555 1_555
C7 C8 1_555 1_555
O1 C7 1_555 1_555
O2 C7 1_555 1_555
O3 Zn1 1_555 1_555
H8 O3 1_555 1_555
Zn3 O6 1_555 1_555
C11 H10 1_555 1_555
C12 C11 1_555 1_555
C13 C14 1_555 1_555
C14 C19 1_555 1_555
C15 C13 1_555 1_555
H11 C15 1_555 1_555
C16 H12 1_555 1_555
C17 C18 1_555 1_555
C18 C15 1_555 1_555
C19 C16 1_555 1_555
H13 C19 1_555 1_555
C20 C11 1_555 1_555
H14 C20 1_555 1_555
H15 C20 1_555 1_555
H16 C20 1_555 1_555
O5 Zn2 1_555 1_555
O6 C17 1_555 1_555
O7 Zn2 1_555 1_555
H17 O7 1_555 1_555
O8 C11 1_555 1_555
H18 O8 1_555 1_555
N3 C12 1_555 1_555
N4 C12 1_555 1_555
Zn4 N4 1_555 1_555
Zn7 N3 1_555 1_555
N5 Zn1 1_555 1_555
N6 Zn3 1_555 1_555
N7 Zn3 1_555 1_555
N8 Zn1 1_555 1_555
Zn2 O3 1_555 1_555
C6 C8 1_555 1_555
Zn3 O7 1_555 1_555
C13 N3 1_555 1_555
C14 N4 1_555 1_555
C16 C18 1_555 1_555
C17 O5 1_555 1_555
C1 H1 1_555 1_555
C2 C1 1_555 1_555
C3 C4 1_555 1_555
C4 C9 1_555 1_555
C5 C3 1_555 1_555
H2 C5 1_555 1_555
H4 C9 1_555 1_555
C10 C1 1_555 1_555
H5 C10 1_555 1_555
H6 C10 1_555 1_555
H7 C10 1_555 1_555
O4 C1 1_555 1_555
H9 O4 1_555 1_555
N1 C2 1_555 1_555
N2 C2 1_555 1_555
Zn5 N2 1_555 1_555
Zn6 N1 1_555 1_555
C3 N1 1_555 1_555
C4 N2 1_555 1_555
Zn3_2 O6_2 1_555 1_555
C15_2 C13_2 1_555 1_555
H11_2 C15_2 1_555 1_555
C17_2 C18_2 1_555 1_555
C18_2 C15_2 1_555 1_555
O5_2 Zn2_2 1_555 1_555
O6_2 C17_2 1_555 1_555
O7_2 Zn2_2 1_555 1_555
H17_2 O7_2 1_555 1_555
H18_2 O8_2 1_555 1_555
Zn5 N3_2 1_555 1_555
N6_2 Zn3_2 1_555 1_555
N7_2 Zn3_2 1_555 1_555
Zn3_2 O7_2 1_555 1_555
C13_2 N3_2 1_555 1_555
C17_2 O5_2 1_555 1_555
C11_2 H10_2 1_555 1_555
C12_2 C11_2 1_555 1_555
C14_2 C19_2 1_555 1_555
C16_2 H12_2 1_555 1_555
C19_2 C16_2 1_555 1_555
H13_2 C19_2 1_555 1_555
C20_2 C11_2 1_555 1_555
H14_2 C20_2 1_555 1_555
H15_2 C20_2 1_555 1_555
H16_2 C20_2 1_555 1_555
N4_2 C12_2 1_555 1_555
Zn6 N4_2 1_555 1_555
C14_2 N4_2 1_555 1_555
Zn1_2 O2_2 1_555 1_555
Zn2_3 O1_2 1_555 1_555
C7_2 C8_2 1_555 1_555
O1_2 C7_2 1_555 1_555
O2_2 C7_2 1_555 1_555
O3_2 Zn1_2 1_555 1_555
H8_2 O3_2 1_555 1_555
N5_2 Zn1_2 1_555 1_555
N8_2 Zn1_2 1_555 1_555
Zn2_3 O3_2 1_555 1_555
C5_2 C3_2 1_555 1_555
H2_2 C5_2 1_555 1_555
H9_2 O4_2 1_555 1_555
Zn4 N1_2 1_555 1_555
C3_2 N1_2 1_555 1_555
C1_2 H1_2 1_555 1_555
C2_2 C1_2 1_555 1_555
C4_2 C9_2 1_555 1_555
H4_2 C9_2 1_555 1_555
C10_2 C1_2 1_555 1_555
H5_2 C10_2 1_555 1_555
H6_2 C10_2 1_555 1_555
H7_2 C10_2 1_555 1_555
N2_2 C2_2 1_555 1_555
Zn7 N2_2 1_555 1_555
C4_2 N2_2 1_555 1_555
C1_3 H1_3 1_555 1_555
C2_3 C1_3 1_555 1_555
C3_3 C4_3 1_555 1_555
C4_3 C9_3 1_555 1_555
C5_3 C3_3 1_555 1_555
H2_3 C5_3 1_555 1_555
H4_3 C9_3 1_555 1_555
C10_3 C1_3 1_555 1_555
H5_3 C10_3 1_555 1_555
H6_3 C10_3 1_555 1_555
H7_3 C10_3 1_555 1_555
O4_3 C1_3 1_555 1_555
H9_3 O4_3 1_555 1_555
N5_2 C2_3 1_555 1_555
N7 C2_3 1_555 1_555
C3_3 N5_2 1_555 1_555
C4_3 N7 1_555 1_555
Zn4 O2_3 1_555 1_555
Zn2_4 O1_3 1_555 1_555
C6_2 H3_2 1_555 1_555
C7_3 C8_3 1_555 1_555
O1_3 C7_3 1_555 1_555
O2_3 C7_3 1_555 1_555
O3_3 Zn4 1_555 1_555
H8_3 O3_3 1_555 1_555
Zn5 O6_3 1_555 1_555
C11_3 H10_3 1_555 1_555
C12_3 C11_3 1_555 1_555
C13_3 C14_3 1_555 1_555
C14_3 C19_3 1_555 1_555
C15_3 C13_3 1_555 1_555
H11_3 C15_3 1_555 1_555
C16_3 H12_3 1_555 1_555
C17_3 C18_3 1_555 1_555
C18_3 C15_3 1_555 1_555
C19_3 C16_3 1_555 1_555
H13_3 C19_3 1_555 1_555
C20_3 C11_3 1_555 1_555
H14_3 C20_3 1_555 1_555
H15_3 C20_3 1_555 1_555
H16_3 C20_3 1_555 1_555
O5_3 Zn2_4 1_555 1_555
O6_3 C17_3 1_555 1_555
O7_3 Zn2_4 1_555 1_555
H17_3 O7_3 1_555 1_555
O8_3 C11_3 1_555 1_555
H18_3 O8_3 1_555 1_555
N6_2 C12_3 1_555 1_555
N8 C12_3 1_555 1_555
Zn2_4 O3_3 1_555 1_555
C6_2 C8_3 1_555 1_555
Zn5 O7_3 1_555 1_555
C13_3 N6_2 1_555 1_555
C14_3 N8 1_555 1_555
C16_3 C18_3 1_555 1_555
C17_3 O5_3 1_555 1_555
C1_4 H1_4 1_555 1_555
C2_4 C1_4 1_555 1_555
C4_4 C9_4 1_555 1_555
H4_4 C9_4 1_555 1_555
C10_4 C1_4 1_555 1_555
H5_4 C10_4 1_555 1_555
H6_4 C10_4 1_555 1_555
H7_4 C10_4 1_555 1_555
N7_2 C2_4 1_555 1_555
C4_4 N7_2 1_555 1_555
C5_4 C3_4 1_555 1_555
H2_4 C5_4 1_555 1_555
H9_4 O4_4 1_555 1_555
C3_4 N5 1_555 1_555
Zn6 O2_4 1_555 1_555
Zn2_5 O1_4 1_555 1_555
C7_4 C8_4 1_555 1_555
O1_4 C7_4 1_555 1_555
O2_4 C7_4 1_555 1_555
O3_4 Zn6 1_555 1_555
H8_4 O3_4 1_555 1_555
Zn2_5 O3_4 1_555 1_555
C11_4 H10_4 1_555 1_555
C12_4 C11_4 1_555 1_555
C14_4 C19_4 1_555 1_555
C16_4 H12_4 1_555 1_555
C19_4 C16_4 1_555 1_555
H13_4 C19_4 1_555 1_555
C20_4 C11_4 1_555 1_555
H14_4 C20_4 1_555 1_555
H15_4 C20_4 1_555 1_555
H16_4 C20_4 1_555 1_555
N8_2 C12_4 1_555 1_555
C14_4 N8_2 1_555 1_555
Zn7 O6_4 1_555 1_555
C15_4 C13_4 1_555 1_555
H11_4 C15_4 1_555 1_555
C17_4 C18_4 1_555 1_555
C18_4 C15_4 1_555 1_555
O5_4 Zn2_6 1_555 1_555
O6_4 C17_4 1_555 1_555
O7_4 Zn2_6 1_555 1_555
H17_4 O7_4 1_555 1_555
H18_4 O8_4 1_555 1_555
Zn7 O7_4 1_555 1_555
C13_4 N6 1_555 1_555
C17_4 O5_4 1_555 1_555
C6_3 H3_3 1_555 1_555
C6_4 H3_4 1_555 1_555

#END
