
###############################################################################
#
# This file contains modified crystal structure data generated from the
# MOF subset of the Cambridge Structural Database (CSD) v543 
# hosted by the Cambridge Crystallographic Data Centre (CCDC).
#
# This work is licensed under the Creative Commons
# Attribution-NonCommercial-ShareAlike 4.0 International License.
# To view a copy of this license, visit
# http://creativecommons.org/licenses/by-nc-sa/4.0/
# or send a letter to
# Creative Commons, PO Box 1866, Mountain View, CA 94042, USA.
#
# CIF created using the CSD Python API on 29 September 2022
# The structure has been converted into the P1 space group
# The structure has a 3D framework
# The original CSD entry BEPMEQ is in the hexagonal crystal system
# The original CSD entry BEPMEQ is in a Sohncke space group
# The framework has been calculated to contain at least 10.0% void space
# The void calculation uses a probe of radius 1.32A, grid spacing 0.4
#
###############################################################################

data_BEPMEQ
_chemical_formula_moiety         '(C54 H66 Cl6 N12 O11 Zn6)n'
_symmetry_cell_setting           triclinic
_symmetry_space_group_name_H-M   'P 1'
_symmetry_Int_Tables_number      1
_space_group_name_Hall           'P 1'
loop_
_symmetry_equiv_pos_site_id
_symmetry_equiv_pos_as_xyz
1 x,y,z
_cell_length_a                   17.6015(3)
_cell_length_b                   17.6015(3)
_cell_length_c                   10.26898(17)
_cell_angle_alpha                90
_cell_angle_beta                 90
_cell_angle_gamma                120
_cell_volume                     2755.23
loop_
_atom_site_label
_atom_site_type_symbol
_atom_site_fract_x
_atom_site_fract_y
_atom_site_fract_z
C1 C 0.2933(6) 0.8446(4) 0.1079(6)
H1 H 0.3235 0.8928 0.0535
C2 C 0.2075(6) 0.7843(4) 0.0777(7)
H2 H 0.1798 0.7936 0.0074
C3 C 0.1630(4) 0.7093(4) 0.1542(6)
C4 C 0.2048(7) 0.7014(4) 0.2609(7)
H3 H 0.1760 0.6533 0.3160
C5 C 0.2902(8) 0.7654(4) 0.2865(7)
H4 H 0.3180 0.7588 0.3590
C6 C 0.0696(4) 0.6399(4) 0.1239(6)
H5 H 0.0312 0.6418 0.1899
H6 H 0.0529 0.6534 0.0408
C7 C 0.1074(3) 0.5395(4) 0.0178(5)
H7 H 0.1631 0.5944 0.0069
C9 C 0.1267(6) 0.4686(7) 0.0556(7)
H8 H 0.1531 0.4809 0.1405
H10 H 0.0731 0.4132 0.0572
N1 N 0.0567(3) 0.5524(3) 0.1186(4)
H11 H 0.0730 0.5409 0.1969
N2 N 0.3352(5) 0.8373(3) 0.2109(5)
Zn2 Zn 0.46182(5) 0.92429(3) 0.25836(7)
C8 C 0.0573(3) 0.5170(4) 0.8879(5)
H9 H 0.1663 0.4664 0.9935
O1 O 0.1015(3) 0.5274(4) 0.7879(4)
Zn3 Zn 0.07571(3) 0.53753(4) 0.59169(7)
Cl1 Cl 0.86713(15) 0.31746(13) 0.0880(3)
Zn1 Zn 0.92429(3) 0.46247(4) 0.09169(7)
N3 N 0.8373(3) 0.5021(6) 0.0442(5)
O3 O 0.8985(3) 0.4726(4) 0.2879(4)
C1_2 C 0.4487(7) 0.2933(6) 0.2746(6)
H1_2 H 0.4307 0.3235 0.2202
C2_2 C 0.4232(7) 0.2075(6) 0.2444(7)
H2_2 H 0.3862 0.1798 0.1741
C3_2 C 0.4537(6) 0.1630(4) 0.3209(6)
C4_2 C 0.5034(8) 0.2048(7) 0.4276(7)
H3_2 H 0.5227 0.1760 0.4827
C5_2 C 0.5248(9) 0.2902(8) 0.4532(7)
H4_2 H 0.5592 0.3180 0.5257
C6_2 C 0.4297(6) 0.0696(4) 0.2906(6)
H5_2 H 0.3894 0.0312 0.3566
H6_2 H 0.3995 0.0529 0.2075
C7_2 C 0.5679(5) 0.1074(3) 0.1845(5)
H7_2 H 0.5687 0.1631 0.1736
C8_2 C 0.5403(5) 0.0573(3) 0.0546(5)
C9_2 C 0.6581(9) 0.1267(6) 0.2223(7)
H8_2 H 0.6722 0.1531 0.3072
H9_2 H 0.6999 0.1663 0.1602
H10_2 H 0.6599 0.0731 0.2239
N1_2 N 0.5043(4) 0.0567(3) 0.2853(4)
H11_2 H 0.5321 0.0730 0.3636
N2_2 N 0.4979(6) 0.3352(5) 0.3776(5)
Zn2_2 Zn 0.53753(6) 0.46182(5) 0.42502(7)
O1_2 O 0.5741(5) 0.1015(3) 0.9546(4)
Zn3_2 Zn 0.53818(5) 0.07571(3) 0.75836(7)
Cl1_2 Cl 0.54967(20) 0.86713(15) 0.2547(3)
O2 O 0.4878(4) 0.9760(2) 0.0603(3)
O3_2 O 0.4259(5) 0.8985(3) 0.4546(4)
C1_3 C 0.1554(4) 0.4487(7) 0.4412(6)
H1_3 H 0.1072 0.4307 0.3868
C2_3 C 0.2157(4) 0.4232(7) 0.4110(7)
H2_3 H 0.2064 0.3862 0.3407
C3_3 C 0.2907(4) 0.4537(6) 0.4875(6)
C4_3 C 0.2986(4) 0.5034(8) 0.5942(7)
H3_3 H 0.3467 0.5227 0.6493
C5_3 C 0.2346(4) 0.5248(9) 0.6198(7)
H4_3 H 0.2412 0.5592 0.6923
C6_3 C 0.3601(4) 0.4297(6) 0.4572(6)
H5_3 H 0.3582 0.3894 0.5232
H6_3 H 0.3466 0.3995 0.3741
C7_3 C 0.4605(4) 0.5679(5) 0.3511(5)
H7_3 H 0.4056 0.5687 0.3402
C8_3 C 0.4830(4) 0.5403(5) 0.2212(5)
C9_3 C 0.5314(7) 0.6581(9) 0.3889(7)
H8_3 H 0.5191 0.6722 0.4738
H9_3 H 0.5336 0.6999 0.3268
H10_3 H 0.5868 0.6599 0.3905
Cl1_3 Cl 0.68254(13) 0.54967(20) 0.4213(3)
N1_3 N 0.4476(3) 0.5043(4) 0.4519(4)
H11_3 H 0.4591 0.5321 0.5302
N2_3 N 0.1627(3) 0.4979(6) 0.5442(5)
O1_3 O 0.4726(4) 0.5741(5) 0.1212(4)
O2_2 O 0.5118(3) 0.4878(4) 0.2269(3)
O3_3 O 0.5274(4) 0.4259(5) 0.6212(4)
Zn3_3 Zn 0.46247(4) 0.53818(5) 0.92502(7)
Cl1_4 Cl 0.13287(15) 0.68254(13) 0.5880(3)
O2_3 O 0.0240(2) 0.5118(3) 0.3936(3)
C1_4 C 0.7067(6) 0.1554(4) 0.6079(6)
H1_4 H 0.6765 0.1072 0.5535
C2_4 C 0.7925(6) 0.2157(4) 0.5777(7)
H2_4 H 0.8202 0.2064 0.5074
C3_4 C 0.8370(4) 0.2907(4) 0.6542(6)
C4_4 C 0.7952(7) 0.2986(4) 0.7609(7)
H3_4 H 0.8240 0.3467 0.8160
C5_4 C 0.7098(8) 0.2346(4) 0.7865(7)
H4_4 H 0.6820 0.2412 0.8590
C6_4 C 0.9304(4) 0.3601(4) 0.6239(6)
H5_4 H 0.9688 0.3582 0.6899
H6_4 H 0.9471 0.3466 0.5408
C7_4 C 0.8926(3) 0.4605(4) 0.5178(5)
H7_4 H 0.8369 0.4056 0.5069
C8_4 C 0.9427(3) 0.4830(4) 0.3879(5)
C9_4 C 0.8733(6) 0.5314(7) 0.5556(7)
H8_4 H 0.8469 0.5191 0.6405
H9_4 H 0.8337 0.5336 0.4935
H10_4 H 0.9269 0.5868 0.5572
N1_4 N 0.9433(3) 0.4476(3) 0.6186(4)
H11_4 H 0.9270 0.4591 0.6969
N2_4 N 0.6648(5) 0.1627(3) 0.7109(5)
Cl1_5 Cl 0.45033(20) 0.13287(15) 0.7547(3)
O2_4 O 0.5122(4) 0.0240(2) 0.5603(3)
C1_5 C 0.5513(7) 0.7067(6) 0.7746(6)
H1_5 H 0.5693 0.6765 0.7202
C2_5 C 0.5768(7) 0.7925(6) 0.7444(7)
H2_5 H 0.6138 0.8202 0.6741
C3_5 C 0.5463(6) 0.8370(4) 0.8209(6)
C4_5 C 0.4966(8) 0.7952(7) 0.9276(7)
H3_5 H 0.4773 0.8240 0.9827
C5_5 C 0.4752(9) 0.7098(8) 0.9532(7)
C6_5 C 0.5703(6) 0.9304(4) 0.7906(6)
H5_5 H 0.6106 0.9688 0.8566
H6_5 H 0.6005 0.9471 0.7075
C7_5 C 0.4321(5) 0.8926(3) 0.6845(5)
H7_5 H 0.4313 0.8369 0.6736
C8_5 C 0.4597(5) 0.9427(3) 0.5546(5)
C9_5 C 0.3419(9) 0.8733(6) 0.7223(7)
H8_5 H 0.3278 0.8469 0.8072
H9_5 H 0.3001 0.8337 0.6602
H10_5 H 0.3401 0.9269 0.7239
N1_5 N 0.4957(4) 0.9433(3) 0.7853(4)
H11_5 H 0.4679 0.9270 0.8636
N2_5 N 0.5021(6) 0.6648(5) 0.8776(5)
C4_6 C 0.7014(4) 0.4966(8) 0.0942(7)
H3_6 H 0.6533 0.4773 0.1493
C5_6 C 0.7654(4) 0.4752(9) 0.1198(7)
H4_5 H 0.7588 0.4408 0.1923
H5_6 H 0.6418 0.6106 0.0232
H11_6 H 0.5409 0.4679 0.0302
C1_6 C 0.8446(4) 0.5513(7) 0.9412(6)
H1_6 H 0.8928 0.5693 0.8868
C2_6 C 0.7843(4) 0.5768(7) 0.9110(7)
H2_6 H 0.7936 0.6138 0.8407
C3_6 C 0.7093(4) 0.5463(6) 0.9875(6)
C6_6 C 0.6399(4) 0.5703(6) 0.9572(6)
H6_6 H 0.6534 0.6005 0.8741
C7_6 C 0.5395(4) 0.4321(5) 0.8511(5)
H7_6 H 0.5944 0.4313 0.8402
C8_6 C 0.5170(4) 0.4597(5) 0.7212(5)
C9_6 C 0.4686(7) 0.3419(9) 0.8889(7)
H8_6 H 0.4809 0.3278 0.9738
H9_6 H 0.4664 0.3001 0.8268
H10_6 H 0.4132 0.3401 0.8905
Cl1_6 Cl 0.31746(13) 0.45033(20) 0.9213(3)
N1_6 N 0.5524(3) 0.4957(4) 0.9519(4)
O2_5 O 0.4882(3) 0.5122(4) 0.7269(3)
O2_6 O 0.9760(2) 0.4882(3) 0.8936(3)
H4_6 H 0.4408 0.6820 0.0257
loop_
_geom_bond_atom_site_label_1
_geom_bond_atom_site_label_2
_geom_bond_site_symmetry_1
_geom_bond_site_symmetry_2
C1 H1 1_555 1_555
C2 C1 1_555 1_555
H2 C2 1_555 1_555
C3 C2 1_555 1_555
C4 C3 1_555 1_555
H3 C4 1_555 1_555
C5 C4 1_555 1_555
H4 C5 1_555 1_555
C6 C3 1_555 1_555
H5 C6 1_555 1_555
H6 C6 1_555 1_555
C7 H7 1_555 1_555
C9 C7 1_555 1_555
H8 C9 1_555 1_555
H10 C9 1_555 1_555
N1 C6 1_555 1_555
H11 N1 1_555 1_555
N2 C1 1_555 1_555
Zn2 N2 1_555 1_555
C5 N2 1_555 1_555
C7 N1 1_555 1_555
O1 C8 1_555 1_555
Zn3 O1 1_555 1_555
Cl1 Zn1 1_555 1_555
N3 Zn1 1_555 1_555
O3 Zn1 1_555 1_555
C1_2 H1_2 1_555 1_555
C2_2 C1_2 1_555 1_555
H2_2 C2_2 1_555 1_555
C3_2 C2_2 1_555 1_555
C4_2 C3_2 1_555 1_555
H3_2 C4_2 1_555 1_555
C5_2 C4_2 1_555 1_555
H4_2 C5_2 1_555 1_555
C6_2 C3_2 1_555 1_555
H5_2 C6_2 1_555 1_555
H6_2 C6_2 1_555 1_555
C7_2 H7_2 1_555 1_555
C8_2 C7_2 1_555 1_555
C9_2 C7_2 1_555 1_555
H8_2 C9_2 1_555 1_555
H9_2 C9_2 1_555 1_555
H10_2 C9_2 1_555 1_555
N1_2 C6_2 1_555 1_555
H11_2 N1_2 1_555 1_555
N2_2 C1_2 1_555 1_555
Zn2_2 N2_2 1_555 1_555
C5_2 N2_2 1_555 1_555
C7_2 N1_2 1_555 1_555
Zn3_2 O1_2 1_555 1_555
Cl1_2 Zn2 1_555 1_555
O3_2 Zn2 1_555 1_555
O2 Zn2 1_555 1_555
C1_3 H1_3 1_555 1_555
C2_3 C1_3 1_555 1_555
H2_3 C2_3 1_555 1_555
C3_3 C2_3 1_555 1_555
C4_3 C3_3 1_555 1_555
H3_3 C4_3 1_555 1_555
C5_3 C4_3 1_555 1_555
H4_3 C5_3 1_555 1_555
C6_3 C3_3 1_555 1_555
H5_3 C6_3 1_555 1_555
H6_3 C6_3 1_555 1_555
C7_3 H7_3 1_555 1_555
C8_3 C7_3 1_555 1_555
C9_3 C7_3 1_555 1_555
H8_3 C9_3 1_555 1_555
H9_3 C9_3 1_555 1_555
H10_3 C9_3 1_555 1_555
Cl1_3 Zn2_2 1_555 1_555
N1_3 C6_3 1_555 1_555
H11_3 N1_3 1_555 1_555
N2_3 C1_3 1_555 1_555
O1_3 C8_3 1_555 1_555
O2_2 C8_3 1_555 1_555
Zn2_2 N1_3 1_555 1_555
O3_3 Zn2_2 1_555 1_555
Zn3 N2_3 1_555 1_555
C5_3 N2_3 1_555 1_555
C7_3 N1_3 1_555 1_555
O2_2 Zn2_2 1_555 1_555
Cl1_4 Zn3 1_555 1_555
O2_3 Zn3 1_555 1_555
C1_4 H1_4 1_555 1_555
C2_4 C1_4 1_555 1_555
H2_4 C2_4 1_555 1_555
C3_4 C2_4 1_555 1_555
C4_4 C3_4 1_555 1_555
H3_4 C4_4 1_555 1_555
C5_4 C4_4 1_555 1_555
H4_4 C5_4 1_555 1_555
C6_4 C3_4 1_555 1_555
H5_4 C6_4 1_555 1_555
H6_4 C6_4 1_555 1_555
C7_4 H7_4 1_555 1_555
C8_4 C7_4 1_555 1_555
C9_4 C7_4 1_555 1_555
H8_4 C9_4 1_555 1_555
H9_4 C9_4 1_555 1_555
H10_4 C9_4 1_555 1_555
N1_4 C6_4 1_555 1_555
H11_4 N1_4 1_555 1_555
N2_4 C1_4 1_555 1_555
O3 C8_4 1_555 1_555
Zn3_2 N2_4 1_555 1_555
C5_4 N2_4 1_555 1_555
C7_4 N1_4 1_555 1_555
Cl1_5 Zn3_2 1_555 1_555
O2_4 Zn3_2 1_555 1_555
C1_5 H1_5 1_555 1_555
C2_5 C1_5 1_555 1_555
H2_5 C2_5 1_555 1_555
C3_5 C2_5 1_555 1_555
C4_5 C3_5 1_555 1_555
H3_5 C4_5 1_555 1_555
C5_5 C4_5 1_555 1_555
C6_5 C3_5 1_555 1_555
H5_5 C6_5 1_555 1_555
H6_5 C6_5 1_555 1_555
C7_5 H7_5 1_555 1_555
C8_5 C7_5 1_555 1_555
C9_5 C7_5 1_555 1_555
H8_5 C9_5 1_555 1_555
H9_5 C9_5 1_555 1_555
H10_5 C9_5 1_555 1_555
N1_5 C6_5 1_555 1_555
H11_5 N1_5 1_555 1_555
N2_5 C1_5 1_555 1_555
O3_2 C8_5 1_555 1_555
Zn3_3 N2_5 1_555 1_555
C5_5 N2_5 1_555 1_555
C7_5 N1_5 1_555 1_555
H3_6 C4_6 1_555 1_555
C5_6 C4_6 1_555 1_555
H4_5 C5_6 1_555 1_555
C5_6 N3 1_555 1_555
C1_6 H1_6 1_555 1_555
C2_6 C1_6 1_555 1_555
H2_6 C2_6 1_555 1_555
C3_6 C2_6 1_555 1_555
C6_6 C3_6 1_555 1_555
H6_6 C6_6 1_555 1_555
C7_6 H7_6 1_555 1_555
C8_6 C7_6 1_555 1_555
C9_6 C7_6 1_555 1_555
H8_6 C9_6 1_555 1_555
H9_6 C9_6 1_555 1_555
H10_6 C9_6 1_555 1_555
Cl1_6 Zn3_3 1_555 1_555
N1_6 C6_6 1_555 1_555
O3_3 C8_6 1_555 1_555
O2_5 C8_6 1_555 1_555
Zn3_3 N1_6 1_555 1_555
C7_6 N1_6 1_555 1_555
O2_5 Zn3_3 1_555 1_555

#END
