
###############################################################################
#
# This file contains modified crystal structure data generated from the
# MOF subset of the Cambridge Structural Database (CSD) v543 
# hosted by the Cambridge Crystallographic Data Centre (CCDC).
#
# This work is licensed under the Creative Commons
# Attribution-NonCommercial-ShareAlike 4.0 International License.
# To view a copy of this license, visit
# http://creativecommons.org/licenses/by-nc-sa/4.0/
# or send a letter to
# Creative Commons, PO Box 1866, Mountain View, CA 94042, USA.
#
# CIF created using the CSD Python API on 29 September 2022
# The structure has been converted into the P1 space group
# The structure has a 3D framework
# The original CSD entry BEPNIV is in the hexagonal crystal system
# The original CSD entry BEPNIV is in a Sohncke space group
# The framework has been calculated to contain at least 10.0% void space
# The void calculation uses a probe of radius 1.32A, grid spacing 0.4
# H atom positions have been added when not included in the experimental data
#
###############################################################################

data_BEPNIV
_chemical_formula_moiety         '(C66 H84 N12 O23 Zn6)n'
_symmetry_cell_setting           triclinic
_symmetry_space_group_name_H-M   'P 1'
_symmetry_Int_Tables_number      1
_space_group_name_Hall           'P 1'
loop_
_symmetry_equiv_pos_site_id
_symmetry_equiv_pos_as_xyz
1 x,y,z
_cell_length_a                   17.5806(7)
_cell_length_b                   17.5806(7)
_cell_length_c                   10.1486(2)
_cell_angle_alpha                90
_cell_angle_beta                 90
_cell_angle_gamma                120
_cell_volume                     2716.47
loop_
_atom_site_label
_atom_site_type_symbol
_atom_site_fract_x
_atom_site_fract_y
_atom_site_fract_z
Zn1 Zn 0.53315(6) 0.45948(6) 0.03982(10)
N1 N 0.4332(5) 0.4890(5) 0.0650(6)
C1 C 0.1519(8) 0.4447(6) 0.0437(9)
O3 O 0.6638(5) 0.5251(7) 0.0262(8)
N2 N 0.1552(9) 0.4871(7) 0.1600(7)
C2 C 0.2175(13) 0.4987(9) 0.2460(14)
H2 H 0.2200 0.5245 0.3270
C3 C 0.7074(14) 0.6000(14) 0.098(2)
C4 C 0.2087(9) 0.4174(7) 0.0135(9)
C5 C 0.2751(7) 0.4299(9) 0.0997(9)
C6 C 0.2796(14) 0.4730(12) 0.2172(10)
H4 H 0.3242 0.4849 0.2772
C7 C 0.4984(13) 0.6466(8) 0.0123(11)
H5 H 0.4626 0.6687 0.0480
H7 H 0.5377 0.6479 0.0791
C9 C 0.8031(18) 0.6604(18) 0.068(2)
H8 H 0.8101 0.7105 0.0199
H9 H 0.8250 0.6297 0.0166
H10 H 0.8354 0.6795 0.1494
O4 O 0.6632(13) 0.6257(13) 0.167(2)
C10 C 0.3450(7) 0.4068(8) 0.0651(10)
H11 H 0.3445 0.3655 0.1291
Zn2 Zn 0.07367(8) 0.53315(6) 0.20649(10)
O5 O 0.5318(4) 0.4275(4) 0.2364(5)
H14 H 0.441701 0.518171 0.154311
O1 O 0.5201(4) 0.4968(4) 0.8454(5)
O2 O 0.4682(4) 0.5725(4) 0.7364(5)
H1 H 0.1081 0.4346 0.9833
H3 H 0.2034 0.3896 0.9333
H6 H 0.5318 0.6826 0.9394
C8 C 0.4791(5) 0.5377(5) 0.8402(8)
H12 H 0.3331 0.3794 0.9789
C11 C 0.4391(6) 0.5513(6) 0.9647(10)
H13 H 0.3803 0.5414 0.9453
Zn3 Zn 0.46685(6) 0.54052(6) 0.53982(10)
N3 N 0.4871(7) 0.3319(11) 0.9933(7)
O1_2 O 0.0233(6) 0.5201(4) 0.0121(5)
O3_2 O 0.1387(9) 0.6638(5) 0.1929(8)
C3_2 C 0.1074(20) 0.7074(14) 0.265(2)
C9_2 C 0.1427(25) 0.8031(18) 0.235(2)
H8_2 H 0.0996 0.8101 0.1866
H9_2 H 0.1953 0.8250 0.1833
H10_2 H 0.1559 0.8354 0.3161
O4_2 O 0.0375(18) 0.6632(13) 0.334(2)
O5_2 O 0.1043(6) 0.5318(4) 0.4031(5)
N1_2 N 0.9442(7) 0.4332(5) 0.2317(6)
C1_2 C 0.7072(10) 0.1519(8) 0.2104(9)
H1_2 H 0.6735 0.1081 0.1500
N2_2 N 0.6681(11) 0.1552(9) 0.3267(7)
C2_2 C 0.7188(16) 0.2175(13) 0.4127(14)
H2_2 H 0.6955 0.2200 0.4937
C4_2 C 0.7913(11) 0.2087(9) 0.1802(9)
H3_2 H 0.8138 0.2034 0.1000
C5_2 C 0.8452(11) 0.2751(7) 0.2664(9)
C6_2 C 0.8066(18) 0.2796(14) 0.3839(10)
H4_2 H 0.8393 0.3242 0.4439
C7_2 C 0.8518(15) 0.4984(13) 0.1790(11)
H5_2 H 0.7939 0.4626 0.2147
H6_2 H 0.8492 0.5318 0.1061
H7_2 H 0.8898 0.5377 0.2458
C8_2 C 0.9414(7) 0.4791(5) 0.0069(8)
C10_2 C 0.9382(11) 0.3450(7) 0.2318(10)
H11_2 H 0.9790 0.3445 0.2958
H12_2 H 0.9537 0.3331 0.1456
C11_2 C 0.8878(8) 0.4391(6) 0.1314(10)
H13_2 H 0.8389 0.3803 0.1120
Zn2_2 Zn 0.54052(10) 0.07367(8) 0.37315(10)
H14_2 H 0.92353 0.441701 0.320978
O2_2 O 0.8957(6) 0.4682(4) 0.9031(5)
Zn3_2 Zn 0.92633(8) 0.46685(6) 0.70649(10)
O1_3 O 0.5032(4) 0.0233(6) 0.1787(5)
O3_3 O 0.4749(7) 0.1387(9) 0.3595(8)
C3_3 C 0.4000(14) 0.1074(20) 0.431(2)
C9_3 C 0.3396(18) 0.1427(25) 0.401(2)
H8_3 H 0.2895 0.0996 0.3532
H9_3 H 0.3703 0.1953 0.3499
H10_3 H 0.3205 0.1559 0.4827
O4_3 O 0.3743(13) 0.0375(18) 0.500(2)
O5_3 O 0.5725(4) 0.1043(6) 0.5697(5)
O2_3 O 0.4275(4) 0.8957(6) 0.0697(5)
N1_3 N 0.5110(5) 0.9442(7) 0.3983(6)
C1_3 C 0.5553(6) 0.7072(10) 0.3770(9)
H1_3 H 0.5654 0.6735 0.3166
N2_3 N 0.5129(7) 0.6681(11) 0.4933(7)
C2_3 C 0.5013(9) 0.7188(16) 0.5793(14)
H2_3 H 0.4755 0.6955 0.6603
C4_3 C 0.5826(7) 0.7913(11) 0.3468(9)
H3_3 H 0.6104 0.8138 0.2666
C5_3 C 0.5701(9) 0.8452(11) 0.4330(9)
C6_3 C 0.5270(12) 0.8066(18) 0.5505(10)
H4_3 H 0.5151 0.8393 0.6105
C7_3 C 0.3534(8) 0.8518(15) 0.3456(11)
H5_3 H 0.3313 0.7939 0.3813
H6_3 H 0.3174 0.8492 0.2727
H7_3 H 0.3521 0.8898 0.4124
C8_3 C 0.4623(5) 0.9414(7) 0.1735(8)
C10_3 C 0.5932(8) 0.9382(11) 0.3984(10)
H11_3 H 0.6345 0.9790 0.4624
H12_3 H 0.6206 0.9537 0.3122
C11_3 C 0.4487(6) 0.8878(8) 0.2980(10)
H13_3 H 0.4586 0.8389 0.2786
H14_3 H 0.481829 0.92353 0.487644
Zn3_3 Zn 0.45948(6) 0.92633(8) 0.87315(10)
O1_4 O 0.4799(4) 0.5032(4) 0.3454(5)
N1_4 N 0.5668(5) 0.5110(5) 0.5650(6)
C1_4 C 0.8481(8) 0.5553(6) 0.5437(9)
H1_4 H 0.8919 0.5654 0.4833
O3_4 O 0.3362(5) 0.4749(7) 0.5262(8)
N2_4 N 0.8448(9) 0.5129(7) 0.6600(7)
C2_4 C 0.7825(13) 0.5013(9) 0.7460(14)
H2_4 H 0.7800 0.4755 0.8270
C3_4 C 0.2926(14) 0.4000(14) 0.598(2)
C4_4 C 0.7913(9) 0.5826(7) 0.5135(9)
H3_4 H 0.7966 0.6104 0.4333
C5_4 C 0.7249(7) 0.5701(9) 0.5997(9)
C6_4 C 0.7204(14) 0.5270(12) 0.7172(10)
H4_4 H 0.6758 0.5151 0.7772
C7_4 C 0.5016(13) 0.3534(8) 0.5123(11)
H5_4 H 0.5374 0.3313 0.5480
H6_4 H 0.4682 0.3174 0.4394
H7_4 H 0.4623 0.3521 0.5791
C8_4 C 0.5209(5) 0.4623(5) 0.3402(8)
C9_4 C 0.1969(18) 0.3396(18) 0.568(2)
H8_4 H 0.1899 0.2895 0.5199
H9_4 H 0.1750 0.3703 0.5166
H10_4 H 0.1646 0.3205 0.6494
O4_4 O 0.3368(13) 0.3743(13) 0.667(2)
C10_4 C 0.6550(7) 0.5932(8) 0.5651(10)
H11_4 H 0.6555 0.6345 0.6291
H12_4 H 0.6669 0.6206 0.4789
C11_4 C 0.5609(6) 0.4487(6) 0.4647(10)
H13_4 H 0.6197 0.4586 0.4453
H14_4 H 0.558299 0.481829 0.654311
N1_5 N 0.0558(7) 0.5668(5) 0.7317(6)
C1_5 C 0.2928(10) 0.8481(8) 0.7104(9)
H1_5 H 0.3265 0.8919 0.6500
N2_5 N 0.3319(11) 0.8448(9) 0.8267(7)
C2_5 C 0.2812(16) 0.7825(13) 0.9127(14)
H2_5 H 0.3045 0.7800 0.9937
C4_5 C 0.2087(11) 0.7913(9) 0.6802(9)
H3_5 H 0.1862 0.7966 0.6000
C5_5 C 0.1548(11) 0.7249(7) 0.7664(9)
C6_5 C 0.1934(18) 0.7204(14) 0.8839(10)
H4_5 H 0.1607 0.6758 0.9439
C7_5 C 0.1482(15) 0.5016(13) 0.6790(11)
H5_5 H 0.2061 0.5374 0.7147
H6_5 H 0.1508 0.4682 0.6061
H7_5 H 0.1102 0.4623 0.7458
C8_5 C 0.0586(7) 0.5209(5) 0.5069(8)
C10_5 C 0.0618(11) 0.6550(7) 0.7318(10)
H11_5 H 0.0210 0.6555 0.7958
H12_5 H 0.0463 0.6669 0.6456
C11_5 C 0.1122(8) 0.5609(6) 0.6314(10)
H13_5 H 0.1611 0.6197 0.6120
H14_5 H 0.0764702 0.558299 0.820978
O1_5 O 0.9767(6) 0.4799(4) 0.5121(5)
O3_5 O 0.8613(9) 0.3362(5) 0.6929(8)
C3_5 C 0.8926(20) 0.2926(14) 0.765(2)
C9_5 C 0.8573(25) 0.1969(18) 0.735(2)
H8_5 H 0.9004 0.1899 0.6866
H9_5 H 0.8047 0.1750 0.6833
H10_5 H 0.8441 0.1646 0.8161
O4_5 O 0.9625(18) 0.3368(13) 0.834(2)
C2_6 C 0.4987(9) 0.2812(16) 0.0793(14)
H2_6 H 0.5245 0.3045 0.1603
C6_6 C 0.4730(12) 0.1934(18) 0.0505(10)
H4_6 H 0.4849 0.1607 0.1105
N1_6 N 0.4890(5) 0.0558(7) 0.8983(6)
C1_6 C 0.4447(6) 0.2928(10) 0.8770(9)
H1_6 H 0.4346 0.3265 0.8166
C4_6 C 0.4174(7) 0.2087(11) 0.8468(9)
H3_6 H 0.3896 0.1862 0.7666
C5_6 C 0.4299(9) 0.1548(11) 0.9330(9)
C7_6 C 0.6466(8) 0.1482(15) 0.8456(11)
H5_6 H 0.6687 0.2061 0.8813
H6_6 H 0.6826 0.1508 0.7727
H7_6 H 0.6479 0.1102 0.9124
C8_6 C 0.5377(5) 0.0586(7) 0.6735(8)
C10_6 C 0.4068(8) 0.0618(11) 0.8984(10)
H11_6 H 0.3655 0.0210 0.9624
H12_6 H 0.3794 0.0463 0.8122
C11_6 C 0.5513(6) 0.1122(8) 0.7980(10)
H13_6 H 0.5414 0.1611 0.7786
H14_6 H 0.518171 0.0764702 0.987644
O4_6 O 0.6257(13) 0.9625(18) 0.000(2)
O1_6 O 0.4968(4) 0.9767(6) 0.6787(5)
O3_6 O 0.5251(7) 0.8613(9) 0.8595(8)
C3_6 C 0.6000(14) 0.8926(20) 0.931(2)
C9_6 C 0.6604(18) 0.8573(25) 0.901(2)
H8_6 H 0.7105 0.9004 0.8532
H9_6 H 0.6297 0.8047 0.8499
H10_6 H 0.6795 0.8441 0.9827
loop_
_geom_bond_atom_site_label_1
_geom_bond_atom_site_label_2
_geom_bond_site_symmetry_1
_geom_bond_site_symmetry_2
N1 Zn1 1_555 1_555
O3 Zn1 1_555 1_555
N2 C1 1_555 1_555
C2 N2 1_555 1_555
H2 C2 1_555 1_555
C3 O3 1_555 1_555
C4 C1 1_555 1_555
C5 C4 1_555 1_555
C6 C2 1_555 1_555
H4 C6 1_555 1_555
C7 H5 1_555 1_555
H7 C7 1_555 1_555
C9 C3 1_555 1_555
H8 C9 1_555 1_555
H9 C9 1_555 1_555
H10 C9 1_555 1_555
O4 C3 1_555 1_555
C10 N1 1_555 1_555
H11 C10 1_555 1_555
Zn2 N2 1_555 1_555
O5 Zn1 1_555 1_555
C5 C6 1_555 1_555
C5 C10 1_555 1_555
N1 H14 1_555 1_555
O1 C8 1_555 1_555
O2 C8 1_555 1_555
C8 C11 1_555 1_555
H13 C11 1_555 1_555
Zn3 O2 1_555 1_555
Zn2 O1_2 1_555 1_555
O3_2 Zn2 1_555 1_555
C3_2 O3_2 1_555 1_555
C9_2 C3_2 1_555 1_555
H8_2 C9_2 1_555 1_555
H9_2 C9_2 1_555 1_555
H10_2 C9_2 1_555 1_555
O4_2 C3_2 1_555 1_555
O5_2 Zn2 1_555 1_555
C1_2 H1_2 1_555 1_555
N2_2 C1_2 1_555 1_555
C2_2 N2_2 1_555 1_555
H2_2 C2_2 1_555 1_555
C4_2 C1_2 1_555 1_555
H3_2 C4_2 1_555 1_555
C5_2 C4_2 1_555 1_555
C6_2 C2_2 1_555 1_555
H4_2 C6_2 1_555 1_555
C7_2 H5_2 1_555 1_555
H6_2 C7_2 1_555 1_555
H7_2 C7_2 1_555 1_555
C8_2 C11_2 1_555 1_555
C10_2 N1_2 1_555 1_555
H11_2 C10_2 1_555 1_555
H12_2 C10_2 1_555 1_555
C11_2 N1_2 1_555 1_555
H13_2 C11_2 1_555 1_555
Zn2_2 N2_2 1_555 1_555
C5_2 C6_2 1_555 1_555
C5_2 C10_2 1_555 1_555
C7_2 C11_2 1_555 1_555
N1_2 H14_2 1_555 1_555
Zn3_2 O2_2 1_555 1_555
Zn2_2 O1_3 1_555 1_555
O3_3 Zn2_2 1_555 1_555
C3_3 O3_3 1_555 1_555
C9_3 C3_3 1_555 1_555
H8_3 C9_3 1_555 1_555
H9_3 C9_3 1_555 1_555
H10_3 C9_3 1_555 1_555
O4_3 C3_3 1_555 1_555
O5_3 Zn2_2 1_555 1_555
O2_3 C8_3 1_555 1_555
C1_3 H1_3 1_555 1_555
N2_3 C1_3 1_555 1_555
C2_3 N2_3 1_555 1_555
H2_3 C2_3 1_555 1_555
C4_3 C1_3 1_555 1_555
H3_3 C4_3 1_555 1_555
C5_3 C4_3 1_555 1_555
C6_3 C2_3 1_555 1_555
H4_3 C6_3 1_555 1_555
C7_3 H5_3 1_555 1_555
H6_3 C7_3 1_555 1_555
H7_3 C7_3 1_555 1_555
C8_3 C11_3 1_555 1_555
C10_3 N1_3 1_555 1_555
H11_3 C10_3 1_555 1_555
H12_3 C10_3 1_555 1_555
C11_3 N1_3 1_555 1_555
H13_3 C11_3 1_555 1_555
Zn3 N2_3 1_555 1_555
C5_3 C6_3 1_555 1_555
C5_3 C10_3 1_555 1_555
C7_3 C11_3 1_555 1_555
N1_3 H14_3 1_555 1_555
Zn3 O1_4 1_555 1_555
O1_4 C8_4 1_555 1_555
O5 C8_4 1_555 1_555
N1_4 Zn3 1_555 1_555
C1_4 H1_4 1_555 1_555
O3_4 Zn3 1_555 1_555
N2_4 C1_4 1_555 1_555
C2_4 N2_4 1_555 1_555
H2_4 C2_4 1_555 1_555
C3_4 O3_4 1_555 1_555
C4_4 C1_4 1_555 1_555
H3_4 C4_4 1_555 1_555
C5_4 C4_4 1_555 1_555
C6_4 C2_4 1_555 1_555
H4_4 C6_4 1_555 1_555
C7_4 H5_4 1_555 1_555
H6_4 C7_4 1_555 1_555
H7_4 C7_4 1_555 1_555
C8_4 C11_4 1_555 1_555
C9_4 C3_4 1_555 1_555
H8_4 C9_4 1_555 1_555
H9_4 C9_4 1_555 1_555
H10_4 C9_4 1_555 1_555
O4_4 C3_4 1_555 1_555
C10_4 N1_4 1_555 1_555
H11_4 C10_4 1_555 1_555
H12_4 C10_4 1_555 1_555
C11_4 N1_4 1_555 1_555
H13_4 C11_4 1_555 1_555
Zn3_2 N2_4 1_555 1_555
C5_4 C6_4 1_555 1_555
C5_4 C10_4 1_555 1_555
C7_4 C11_4 1_555 1_555
N1_4 H14_4 1_555 1_555
O5_2 C8_5 1_555 1_555
C1_5 H1_5 1_555 1_555
N2_5 C1_5 1_555 1_555
C2_5 N2_5 1_555 1_555
H2_5 C2_5 1_555 1_555
C4_5 C1_5 1_555 1_555
H3_5 C4_5 1_555 1_555
C5_5 C4_5 1_555 1_555
C6_5 C2_5 1_555 1_555
H4_5 C6_5 1_555 1_555
C7_5 H5_5 1_555 1_555
H6_5 C7_5 1_555 1_555
H7_5 C7_5 1_555 1_555
C8_5 C11_5 1_555 1_555
C10_5 N1_5 1_555 1_555
H11_5 C10_5 1_555 1_555
H12_5 C10_5 1_555 1_555
C11_5 N1_5 1_555 1_555
H13_5 C11_5 1_555 1_555
Zn3_3 N2_5 1_555 1_555
C5_5 C6_5 1_555 1_555
C5_5 C10_5 1_555 1_555
C7_5 C11_5 1_555 1_555
N1_5 H14_5 1_555 1_555
Zn3_2 O1_5 1_555 1_555
O3_5 Zn3_2 1_555 1_555
C3_5 O3_5 1_555 1_555
C9_5 C3_5 1_555 1_555
H8_5 C9_5 1_555 1_555
H9_5 C9_5 1_555 1_555
H10_5 C9_5 1_555 1_555
O4_5 C3_5 1_555 1_555
H2_6 C2_6 1_555 1_555
C6_6 C2_6 1_555 1_555
H4_6 C6_6 1_555 1_555
O5_3 C8_6 1_555 1_555
C1_6 H1_6 1_555 1_555
N3 C1_6 1_555 1_555
C4_6 C1_6 1_555 1_555
H3_6 C4_6 1_555 1_555
C5_6 C4_6 1_555 1_555
C7_6 H5_6 1_555 1_555
H6_6 C7_6 1_555 1_555
H7_6 C7_6 1_555 1_555
C8_6 C11_6 1_555 1_555
C10_6 N1_6 1_555 1_555
H11_6 C10_6 1_555 1_555
H12_6 C10_6 1_555 1_555
C11_6 N1_6 1_555 1_555
H13_6 C11_6 1_555 1_555
C5_6 C10_6 1_555 1_555
C7_6 C11_6 1_555 1_555
N1_6 H14_6 1_555 1_555
Zn3_3 O1_6 1_555 1_555
O3_6 Zn3_3 1_555 1_555
C3_6 O3_6 1_555 1_555
C9_6 C3_6 1_555 1_555
H8_6 C9_6 1_555 1_555
H9_6 C9_6 1_555 1_555
H10_6 C9_6 1_555 1_555

#END
