
###############################################################################
#
# This file contains modified crystal structure data generated from the
# MOF subset of the Cambridge Structural Database (CSD) v543 
# hosted by the Cambridge Crystallographic Data Centre (CCDC).
#
# This work is licensed under the Creative Commons
# Attribution-NonCommercial-ShareAlike 4.0 International License.
# To view a copy of this license, visit
# http://creativecommons.org/licenses/by-nc-sa/4.0/
# or send a letter to
# Creative Commons, PO Box 1866, Mountain View, CA 94042, USA.
#
# CIF created using the CSD Python API on 29 September 2022
# The structure has been converted into the P1 space group
# The structure has a 3D framework
# The original CSD entry BEQHUD is in the orthorhombic crystal system
# The framework has been calculated to contain at least 10.0% void space
# The void calculation uses a probe of radius 1.32A, grid spacing 0.4
#
###############################################################################

data_BEQHUD
_chemical_formula_moiety         '(C104 H64 N8 O24 Zn6)n'
_symmetry_cell_setting           triclinic
_symmetry_space_group_name_H-M   'P 1'
_symmetry_Int_Tables_number      1
_space_group_name_Hall           'P 1'
loop_
_symmetry_equiv_pos_site_id
_symmetry_equiv_pos_as_xyz
1 x,y,z
_cell_length_a                   16.9587(5)
_cell_length_b                   12.8834(3)
_cell_length_c                   15.1988(4)
_cell_angle_alpha                90
_cell_angle_beta                 90
_cell_angle_gamma                90
_cell_volume                     3320.72
loop_
_atom_site_label
_atom_site_type_symbol
_atom_site_fract_x
_atom_site_fract_y
_atom_site_fract_z
Zn1 Zn 0.2500 0.5000 0.73202(3)
O1 O 0.31826(9) 0.37637(12) 0.69548(11)
O2 O 0.33697(10) 0.51660(12) 0.61484(11)
N1 N 0.67463(11) 0.07836(14) 0.31499(12)
O3 O 0.47283(13) 0.48118(16) 0.32574(14)
C1 C 0.35004(14) 0.4230(2) 0.63001(17)
C2 C 0.60400(15) 0.03811(19) 0.33654(17)
C3 C 0.69001(14) 0.17562(18) 0.34098(16)
H2 H 0.7389 0.2042 0.3273
C4 C 0.54793(15) 0.09115(18) 0.38314(17)
H3 H 0.5002 0.0598 0.3973
C5 C 0.56350(15) 0.19268(18) 0.40898(17)
C6 C 0.63696(15) 0.23510(18) 0.38694(16)
H4 H 0.6496 0.3027 0.4032
C7 C 0.40319(15) 0.36209(18) 0.57141(18)
C8 C 0.47774(16) 0.35000(19) 0.43589(18)
C9 C 0.42740(15) 0.40403(19) 0.49200(18)
H5 H 0.4097 0.4696 0.4758
C10 C 0.50513(16) 0.25263(19) 0.46147(19)
C11 C 0.49544(17) 0.3958(2) 0.3488(2)
H6 H 0.5255 0.3571 0.3094
C12 C 0.47898(17) 0.2098(2) 0.5404(2)
H7 H 0.4960 0.1440 0.5568
C13 C 0.42806(16) 0.26386(19) 0.59473(19)
H8 H 0.4106 0.2340 0.6469
O4 O 0.18174(9) 0.62363(12) 0.69548(11)
O5 O 0.16303(10) 0.48340(12) 0.61484(11)
O6 O 0.02717(13) 0.51882(16) 0.32574(14)
C14 C 0.14996(14) 0.5770(2) 0.63001(17)
C20 C 0.09681(15) 0.63791(18) 0.57141(18)
C21 C 0.02226(16) 0.65000(19) 0.43589(18)
C22 C 0.07260(15) 0.59597(19) 0.49200(18)
H13 H 0.0903 0.5304 0.4758
C24 C 0.00456(17) 0.6042(2) 0.3488(2)
C25 C 0.02102(17) 0.7902(2) 0.5404(2)
H15 H 0.0040 0.8560 0.5568
C26 C 0.07194(16) 0.73614(19) 0.59473(19)
H16 H 0.0894 0.7660 0.6469
Zn3 Zn 0.7500 0.0000 0.23202(3)
N3 N 0.17463(11) 0.42164(14) 0.81499(12)
N4 N 0.32537(11) 0.57836(14) 0.81499(12)
H9 H 0.9073 0.0294 0.3188
C2_2 C 0.10400(15) 0.46189(19) 0.83654(17)
H1 H 0.0927 0.5294 0.8188
C3_2 C 0.19001(14) 0.32438(18) 0.84098(16)
H2_2 H 0.2389 0.2958 0.8273
C4_2 C 0.04793(15) 0.40885(18) 0.88314(17)
H3_2 H 0.0002 0.4402 0.8973
C5_2 C 0.06350(15) 0.30732(18) 0.90898(17)
C6_2 C 0.13696(15) 0.26490(18) 0.88694(16)
H4_2 H 0.1496 0.1973 0.9032
C10_2 C 0.00513(16) 0.24737(19) 0.96147(19)
H6_2 H 0.0255 0.1429 0.8094
O1_2 O 0.81826(9) 0.12363(12) 0.19548(11)
C1_2 C 0.85004(14) 0.0770(2) 0.13001(17)
C7_2 C 0.90319(15) 0.13791(18) 0.07141(18)
C12_2 C 0.97898(17) 0.2902(2) 0.0404(2)
H7_2 H 0.9960 0.3560 0.0568
C13_2 C 0.92806(16) 0.23614(19) 0.09473(19)
H8_2 H 0.9106 0.2660 0.1469
O5_2 O 0.66303(10) 0.01660(12) 0.11484(11)
O6_2 O 0.52717(13) 0.98118(16) 0.82574(14)
C15 C 0.39600(15) 0.53811(19) 0.83654(17)
H9_2 H 0.4073 0.4706 0.8188
C16 C 0.30999(14) 0.67562(18) 0.84098(16)
H10 H 0.2611 0.7042 0.8273
C17 C 0.45207(15) 0.59115(18) 0.88314(17)
H11 H 0.4998 0.5598 0.8973
C18 C 0.43650(15) 0.69268(18) 0.90898(17)
C19 C 0.36304(15) 0.73510(18) 0.88694(16)
H12 H 0.3504 0.8027 0.9032
C21_2 C 0.52226(16) 0.85000(19) 0.93589(18)
C22_2 C 0.57260(15) 0.90403(19) 0.99200(18)
H13_2 H 0.5903 0.9696 0.9758
C23 C 0.49487(16) 0.75263(19) 0.96147(19)
C24_2 C 0.50456(17) 0.8958(2) 0.8488(2)
H14 H 0.4745 0.8571 0.8094
H1_2 H 0.5927 0.9706 0.3188
Zn3_2 Zn 0.7500 1.0000 0.23202(3)
N2 N 0.82537(11) 0.92164(14) 0.31499(12)
C15_2 C 0.89600(15) 0.96189(19) 0.33654(17)
C16_2 C 0.80999(14) 0.82438(18) 0.34098(16)
H10_2 H 0.7611 0.7958 0.3273
C17_2 C 0.95207(15) 0.90885(18) 0.38314(17)
H11_2 H 0.9998 0.9402 0.3973
C18_2 C 0.93650(15) 0.80732(18) 0.40898(17)
C19_2 C 0.86304(15) 0.76490(18) 0.38694(16)
H12_2 H 0.8504 0.6973 0.4032
C23_2 C 0.99487(16) 0.74737(19) 0.46147(19)
H14_2 H 0.9745 0.6429 0.3094
O2_2 O 0.83697(10) 0.98340(12) 0.11484(11)
O4_2 O 0.68174(9) 0.87637(12) 0.19548(11)
C14_2 C 0.64996(14) 0.9230(2) 0.13001(17)
C20_2 C 0.59681(15) 0.86209(18) 0.07141(18)
C25_2 C 0.52102(17) 0.7098(2) 0.0404(2)
H15_2 H 0.5040 0.6440 0.0568
C26_2 C 0.57194(16) 0.76386(19) 0.09473(19)
H16_2 H 0.5894 0.7340 0.1469
N2_2 N 0.67463(11) 0.42164(14) 0.18501(12)
O6_3 O 0.47283(13) 0.01882(16) 0.17426(14)
C15_3 C 0.60400(15) 0.46189(19) 0.16346(17)
H9_3 H 0.5927 0.5294 0.1812
C16_3 C 0.69001(14) 0.32438(18) 0.15902(16)
H10_3 H 0.7389 0.2958 0.1727
C17_3 C 0.54793(15) 0.40885(18) 0.11686(17)
H11_3 H 0.5002 0.4402 0.1027
C18_3 C 0.56350(15) 0.30732(18) 0.09102(17)
C19_3 C 0.63696(15) 0.26490(18) 0.11306(16)
H12_3 H 0.6496 0.1973 0.0968
C21_3 C 0.47774(16) 0.15000(19) 0.06411(18)
C22_3 C 0.42740(15) 0.09597(19) 0.00800(18)
H13_3 H 0.4097 0.0304 0.0242
C23_3 C 0.50513(16) 0.24737(19) 0.03853(19)
C24_3 C 0.49544(17) 0.1042(2) 0.1512(2)
H14_3 H 0.5255 0.1429 0.1906
Zn2 Zn 0.7500 0.5000 0.26798(3)
Zn1_2 Zn 0.2500 1.0000 0.76798(3)
O1_3 O 0.18174(9) 0.87637(12) 0.80452(11)
C1_3 C 0.14996(14) 0.9230(2) 0.86999(17)
C7_3 C 0.09681(15) 0.86209(18) 0.92859(18)
C12_3 C 0.02102(17) 0.7098(2) 0.9596(2)
H7_3 H 0.0040 0.6440 0.9432
C13_3 C 0.07194(16) 0.76386(19) 0.90527(19)
H8_3 H 0.0894 0.7340 0.8531
O5_3 O 0.33697(10) 0.98340(12) 0.88516(11)
N3_2 N 0.32537(11) 0.92164(14) 0.68501(12)
N1_2 N 0.82537(11) 0.57836(14) 0.18501(12)
C2_3 C 0.89600(15) 0.53811(19) 0.16346(17)
H1_3 H 0.9073 0.4706 0.1812
C3_3 C 0.80999(14) 0.67562(18) 0.15902(16)
H2_3 H 0.7611 0.7042 0.1727
C4_3 C 0.95207(15) 0.59115(18) 0.11686(17)
H3_3 H 0.9998 0.5598 0.1027
C5_3 C 0.93650(15) 0.69268(18) 0.09102(17)
C6_3 C 0.86304(15) 0.73510(18) 0.11306(16)
H4_3 H 0.8504 0.8027 0.0968
C10_3 C 0.99487(16) 0.75263(19) 0.03853(19)
H6_3 H 0.9745 0.8571 0.1906
H9_4 H 0.0927 0.9706 0.6812
O1_4 O 0.68174(9) 0.62363(12) 0.30452(11)
O2_3 O 0.66303(10) 0.48340(12) 0.38516(11)
O3_2 O 0.52717(13) 0.51882(16) 0.67426(14)
C1_4 C 0.64996(14) 0.5770(2) 0.36999(17)
C2_4 C 0.39600(15) 0.96189(19) 0.66346(17)
C3_4 C 0.30999(14) 0.82438(18) 0.65902(16)
H2_4 H 0.2611 0.7958 0.6727
C4_4 C 0.45207(15) 0.90885(18) 0.61686(17)
H3_4 H 0.4998 0.9402 0.6027
C5_4 C 0.43650(15) 0.80732(18) 0.59102(17)
C6_4 C 0.36304(15) 0.76490(18) 0.61306(16)
H4_4 H 0.3504 0.6973 0.5968
C7_4 C 0.59681(15) 0.63791(18) 0.42859(18)
C8_2 C 0.52226(16) 0.65000(19) 0.56411(18)
C9_2 C 0.57260(15) 0.59597(19) 0.50800(18)
H5_2 H 0.5903 0.5304 0.5242
C10_4 C 0.49487(16) 0.74737(19) 0.53853(19)
C11_2 C 0.50456(17) 0.6042(2) 0.6512(2)
H6_4 H 0.4745 0.6429 0.6906
C12_4 C 0.52102(17) 0.7902(2) 0.4596(2)
H7_4 H 0.5040 0.8560 0.4432
C13_4 C 0.57194(16) 0.73614(19) 0.40527(19)
H8_4 H 0.5894 0.7660 0.3531
O4_3 O 0.81826(9) 0.37637(12) 0.30452(11)
O5_4 O 0.83697(10) 0.51660(12) 0.38516(11)
O6_4 O 0.97283(13) 0.48118(16) 0.67426(14)
C14_3 C 0.85004(14) 0.4230(2) 0.36999(17)
C20_3 C 0.90319(15) 0.36209(18) 0.42859(18)
C21_4 C 0.97774(16) 0.35000(19) 0.56411(18)
C22_4 C 0.92740(15) 0.40403(19) 0.50800(18)
H13_4 H 0.9097 0.4696 0.5242
C24_4 C 0.99544(17) 0.3958(2) 0.6512(2)
C25_3 C 0.97898(17) 0.2098(2) 0.4596(2)
H15_3 H 0.9960 0.1440 0.4432
C26_3 C 0.92806(16) 0.26386(19) 0.40527(19)
H16_3 H 0.9106 0.2340 0.3531
Zn1_3 Zn 0.2500 0.0000 0.76798(3)
O2_4 O 0.16303(10) 0.01660(12) 0.88516(11)
O4_4 O 0.31826(9) 0.12363(12) 0.80452(11)
C14_4 C 0.35004(14) 0.0770(2) 0.86999(17)
C20_4 C 0.40319(15) 0.13791(18) 0.92859(18)
C25_4 C 0.47898(17) 0.2902(2) 0.9596(2)
H15_4 H 0.4960 0.3560 0.9432
C26_4 C 0.42806(16) 0.23614(19) 0.90527(19)
H16_4 H 0.4106 0.2660 0.8531
N4_2 N 0.17463(11) 0.07836(14) 0.68501(12)
C15_4 C 0.10400(15) 0.03811(19) 0.66346(17)
C16_4 C 0.19001(14) 0.17562(18) 0.65902(16)
H10_4 H 0.2389 0.2042 0.6727
C17_4 C 0.04793(15) 0.09115(18) 0.61686(17)
H11_4 H 0.0002 0.0598 0.6027
C18_4 C 0.06350(15) 0.19268(18) 0.59102(17)
C19_4 C 0.13696(15) 0.23510(18) 0.61306(16)
H12_4 H 0.1496 0.3027 0.5968
C23_4 C 0.00513(16) 0.25263(19) 0.53853(19)
H14_4 H 0.0255 0.3571 0.6906
H1_4 H 0.4073 0.0294 0.6812
O3_3 O 0.02717(13) 0.98118(16) 0.17426(14)
C8_3 C 0.02226(16) 0.85000(19) 0.06411(18)
C9_3 C 0.07260(15) 0.90403(19) 0.00800(18)
H5_3 H 0.0903 0.9696 0.0242
C11_3 C 0.00456(17) 0.8958(2) 0.1512(2)
O3_4 O 0.97283(13) 0.01882(16) 0.82574(14)
C8_4 C 0.97774(16) 0.15000(19) 0.93589(18)
C9_4 C 0.92740(15) 0.09597(19) 0.99200(18)
H5_4 H 0.9097 0.0304 0.9758
C11_4 C 0.99544(17) 0.1042(2) 0.8488(2)
loop_
_geom_bond_atom_site_label_1
_geom_bond_atom_site_label_2
_geom_bond_site_symmetry_1
_geom_bond_site_symmetry_2
Zn1 O1 1_555 1_555
O1 C1 1_555 1_555
O2 Zn1 1_555 1_555
N1 C2 1_555 1_555
O3 C11 1_555 1_555
C1 O2 1_555 1_555
C3 N1 1_555 1_555
H2 C3 1_555 1_555
C4 C2 1_555 1_555
H3 C4 1_555 1_555
C5 C4 1_555 1_555
C6 C3 1_555 1_555
H4 C6 1_555 1_555
C7 C1 1_555 1_555
C8 C9 1_555 1_555
C9 C7 1_555 1_555
H5 C9 1_555 1_555
C10 C5 1_555 1_555
C11 C8 1_555 1_555
H6 C11 1_555 1_555
C12 C10 1_555 1_555
H7 C12 1_555 1_555
C13 C7 1_555 1_555
H8 C13 1_555 1_555
O4 Zn1 1_555 1_555
O5 Zn1 1_555 1_555
O6 C24 1_555 1_555
C14 O4 1_555 1_555
C20 C14 1_555 1_555
C21 C22 1_555 1_555
C22 C20 1_555 1_555
H13 C22 1_555 1_555
C24 C21 1_555 1_555
H15 C25 1_555 1_555
C26 C20 1_555 1_555
H16 C26 1_555 1_555
Zn3 N1 1_555 1_555
N3 Zn1 1_555 1_555
N4 Zn1 1_555 1_555
C5 C6 1_555 1_555
C8 C10 1_555 1_555
C12 C13 1_555 1_555
O5 C14 1_555 1_555
C25 C26 1_555 1_555
N3 C2_2 1_555 1_555
C2_2 H1 1_555 1_555
C3_2 N3 1_555 1_555
H2_2 C3_2 1_555 1_555
C4_2 C2_2 1_555 1_555
H3_2 C4_2 1_555 1_555
C5_2 C4_2 1_555 1_555
C6_2 C3_2 1_555 1_555
H4_2 C6_2 1_555 1_555
C10_2 C5_2 1_555 1_555
C5_2 C6_2 1_555 1_555
Zn3 O1_2 1_555 1_555
O1_2 C1_2 1_555 1_555
C7_2 C1_2 1_555 1_555
H7_2 C12_2 1_555 1_555
C13_2 C7_2 1_555 1_555
H8_2 C13_2 1_555 1_555
O5_2 Zn3 1_555 1_555
C12_2 C13_2 1_555 1_555
N4 C15 1_555 1_555
O6_2 C24_2 1_555 1_555
C15 H9_2 1_555 1_555
C16 N4 1_555 1_555
H10 C16 1_555 1_555
C17 C15 1_555 1_555
H11 C17 1_555 1_555
C18 C17 1_555 1_555
C19 C16 1_555 1_555
H12 C19 1_555 1_555
C21_2 C22_2 1_555 1_555
H13_2 C22_2 1_555 1_555
C23 C18 1_555 1_555
C24_2 C21_2 1_555 1_555
H14 C24_2 1_555 1_555
C18 C19 1_555 1_555
C21_2 C23 1_555 1_555
N2 C15_2 1_555 1_555
C16_2 N2 1_555 1_555
H10_2 C16_2 1_555 1_555
C17_2 C15_2 1_555 1_555
H11_2 C17_2 1_555 1_555
C18_2 C17_2 1_555 1_555
C19_2 C16_2 1_555 1_555
H12_2 C19_2 1_555 1_555
C23_2 C18_2 1_555 1_555
Zn3_2 N2 1_555 1_555
C18_2 C19_2 1_555 1_555
O2_2 Zn3_2 1_555 1_555
O4_2 Zn3_2 1_555 1_555
C14_2 O4_2 1_555 1_555
C20_2 C14_2 1_555 1_555
H15_2 C25_2 1_555 1_555
C26_2 C20_2 1_555 1_555
H16_2 C26_2 1_555 1_555
C25_2 C26_2 1_555 1_555
N2_2 C15_3 1_555 1_555
O6_3 C24_3 1_555 1_555
C15_3 H9_3 1_555 1_555
C16_3 N2_2 1_555 1_555
H10_3 C16_3 1_555 1_555
C17_3 C15_3 1_555 1_555
H11_3 C17_3 1_555 1_555
C18_3 C17_3 1_555 1_555
C19_3 C16_3 1_555 1_555
H12_3 C19_3 1_555 1_555
C21_3 C22_3 1_555 1_555
H13_3 C22_3 1_555 1_555
C23_3 C18_3 1_555 1_555
C24_3 C21_3 1_555 1_555
H14_3 C24_3 1_555 1_555
Zn2 N2_2 1_555 1_555
C18_3 C19_3 1_555 1_555
C21_3 C23_3 1_555 1_555
Zn1_2 O1_3 1_555 1_555
O1_3 C1_3 1_555 1_555
C7_3 C1_3 1_555 1_555
H7_3 C12_3 1_555 1_555
C13_3 C7_3 1_555 1_555
H8_3 C13_3 1_555 1_555
O5_3 Zn1_2 1_555 1_555
N3_2 Zn1_2 1_555 1_555
C12_3 C13_3 1_555 1_555
N1_2 C2_3 1_555 1_555
C2_3 H1_3 1_555 1_555
C3_3 N1_2 1_555 1_555
H2_3 C3_3 1_555 1_555
C4_3 C2_3 1_555 1_555
H3_3 C4_3 1_555 1_555
C5_3 C4_3 1_555 1_555
C6_3 C3_3 1_555 1_555
H4_3 C6_3 1_555 1_555
C10_3 C5_3 1_555 1_555
Zn2 N1_2 1_555 1_555
C5_3 C6_3 1_555 1_555
Zn2 O1_4 1_555 1_555
O1_4 C1_4 1_555 1_555
O2_3 Zn2 1_555 1_555
N3_2 C2_4 1_555 1_555
O3_2 C11_2 1_555 1_555
C1_4 O2_3 1_555 1_555
C3_4 N3_2 1_555 1_555
H2_4 C3_4 1_555 1_555
C4_4 C2_4 1_555 1_555
H3_4 C4_4 1_555 1_555
C5_4 C4_4 1_555 1_555
C6_4 C3_4 1_555 1_555
H4_4 C6_4 1_555 1_555
C7_4 C1_4 1_555 1_555
C8_2 C9_2 1_555 1_555
C9_2 C7_4 1_555 1_555
H5_2 C9_2 1_555 1_555
C10_4 C5_4 1_555 1_555
C11_2 C8_2 1_555 1_555
H6_4 C11_2 1_555 1_555
C12_4 C10_4 1_555 1_555
H7_4 C12_4 1_555 1_555
C13_4 C7_4 1_555 1_555
H8_4 C13_4 1_555 1_555
O4_3 Zn2 1_555 1_555
O5_4 Zn2 1_555 1_555
O6_4 C24_4 1_555 1_555
C14_3 O4_3 1_555 1_555
C20_3 C14_3 1_555 1_555
C21_4 C22_4 1_555 1_555
C22_4 C20_3 1_555 1_555
H13_4 C22_4 1_555 1_555
C24_4 C21_4 1_555 1_555
H15_3 C25_3 1_555 1_555
C26_3 C20_3 1_555 1_555
H16_3 C26_3 1_555 1_555
C5_4 C6_4 1_555 1_555
C8_2 C10_4 1_555 1_555
C12_4 C13_4 1_555 1_555
O5_4 C14_3 1_555 1_555
C25_3 C26_3 1_555 1_555
O2_4 Zn1_3 1_555 1_555
O4_4 Zn1_3 1_555 1_555
C14_4 O4_4 1_555 1_555
C20_4 C14_4 1_555 1_555
H15_4 C25_4 1_555 1_555
C26_4 C20_4 1_555 1_555
H16_4 C26_4 1_555 1_555
N4_2 Zn1_3 1_555 1_555
C25_4 C26_4 1_555 1_555
N4_2 C15_4 1_555 1_555
C16_4 N4_2 1_555 1_555
H10_4 C16_4 1_555 1_555
C17_4 C15_4 1_555 1_555
H11_4 C17_4 1_555 1_555
C18_4 C17_4 1_555 1_555
C19_4 C16_4 1_555 1_555
H12_4 C19_4 1_555 1_555
C23_4 C18_4 1_555 1_555
C18_4 C19_4 1_555 1_555
O3_3 C11_3 1_555 1_555
C8_3 C9_3 1_555 1_555
H5_3 C9_3 1_555 1_555
C11_3 C8_3 1_555 1_555
O3_4 C11_4 1_555 1_555
C8_4 C9_4 1_555 1_555
H5_4 C9_4 1_555 1_555
C11_4 C8_4 1_555 1_555

#END
