
###############################################################################
#
# This file contains modified crystal structure data generated from the
# MOF subset of the Cambridge Structural Database (CSD) v543 
# hosted by the Cambridge Crystallographic Data Centre (CCDC).
#
# This work is licensed under the Creative Commons
# Attribution-NonCommercial-ShareAlike 4.0 International License.
# To view a copy of this license, visit
# http://creativecommons.org/licenses/by-nc-sa/4.0/
# or send a letter to
# Creative Commons, PO Box 1866, Mountain View, CA 94042, USA.
#
# CIF created using the CSD Python API on 29 September 2022
# The structure has been converted into the P1 space group
# The structure has a 3D framework
# The original CSD entry BEQJAL is in the orthorhombic crystal system
# The framework has been calculated to contain at least 10.0% void space
# The void calculation uses a probe of radius 1.32A, grid spacing 0.4
#
###############################################################################

data_BEQJAL
_chemical_formula_moiety         '(C104 H64 N8 Ni6 O24)n'
_symmetry_cell_setting           triclinic
_symmetry_space_group_name_H-M   'P 1'
_symmetry_Int_Tables_number      1
_space_group_name_Hall           'P 1'
loop_
_symmetry_equiv_pos_site_id
_symmetry_equiv_pos_as_xyz
1 x,y,z
_cell_length_a                   16.6152(8)
_cell_length_b                   12.6825(6)
_cell_length_c                   15.3908(8)
_cell_angle_alpha                90
_cell_angle_beta                 90
_cell_angle_gamma                90
_cell_volume                     3243.18
loop_
_atom_site_label
_atom_site_type_symbol
_atom_site_fract_x
_atom_site_fract_y
_atom_site_fract_z
N2 N 0.1757(3) 0.0718(3) 0.3083(3)
C17 C 0.1030(4) 0.0329(4) 0.3311(4)
C18 C 0.1932(3) 0.1691(4) 0.3370(4)
H10 H 0.2435 0.1970 0.3237
C19 C 0.0486(3) 0.0872(4) 0.3797(4)
C21 C 0.0660(4) 0.1882(5) 0.4066(4)
C22 C 0.1417(4) 0.2292(5) 0.3844(4)
H13 H 0.1564 0.2967 0.4019
C23 C 0.0088(4) 0.2496(4) 0.4598(4)
H14 H 0.0261 0.3562 0.3107
H15 H 0.0021 0.1408 0.5560
Ni3 Ni 0.2500 -0.0000 0.22188(8)
H1 H 0.4106 0.0345 0.3125
O2 O 0.1641(2) 0.0153(3) 0.1177(2)
O4 O 0.3210(2) 0.1291(3) 0.1958(2)
C14 C 0.3515(3) 0.0808(5) 0.1324(4)
C15 C 0.4066(4) 0.1391(4) 0.0725(4)
C25 C 0.4841(4) 0.2926(5) 0.0400(4)
H15_2 H 0.5021 0.3592 0.0560
C26 C 0.4344(4) 0.2385(5) 0.0948(4)
H16 H 0.4192 0.2685 0.1475
H9 H 0.0894 0.9655 0.3125
Ni3_2 Ni 0.2500 1.0000 0.22188(8)
O1 O 0.6790(2) 0.6291(3) 0.6958(2)
O2_2 O 0.6641(2) 0.4847(3) 0.6177(2)
O3 O 0.5310(3) 0.5204(4) 0.3270(3)
N1 N 0.3243(3) 0.9282(3) 0.3083(3)
C1 C 0.6485(3) 0.5808(5) 0.6324(4)
C2 C 0.5934(4) 0.6391(4) 0.5725(4)
C3 C 0.5221(4) 0.6516(5) 0.4360(4)
C4 C 0.3970(4) 0.9671(4) 0.3311(4)
C5 C 0.3068(3) 0.8309(4) 0.3370(4)
H2 H 0.2565 0.8030 0.3237
C6 C 0.4514(3) 0.9128(4) 0.3797(4)
H3 H 0.5002 0.9437 0.3947
C7 C 0.5714(3) 0.5969(4) 0.4923(4)
H4 H 0.5903 0.5306 0.4764
C8 C 0.4340(4) 0.8118(5) 0.4066(4)
C9 C 0.3583(4) 0.7708(5) 0.3844(4)
H5 H 0.3436 0.7033 0.4019
C10 C 0.4912(4) 0.7504(4) 0.4598(4)
C11 C 0.5054(4) 0.6056(5) 0.3495(4)
H6 H 0.4739 0.6438 0.3107
C12 C 0.5159(4) 0.7926(5) 0.5400(4)
H7 H 0.4979 0.8592 0.5560
C13 C 0.5656(4) 0.7385(5) 0.5948(4)
H8 H 0.5808 0.7685 0.6475
Ni1 Ni 0.7500 0.5000 0.72188(8)
O4_2 O 0.8210(2) 0.3709(3) 0.6958(2)
O5 O 0.8359(2) 0.5153(3) 0.6177(2)
O6 O 0.9690(3) 0.4796(4) 0.3270(3)
C14_2 C 0.8515(3) 0.4192(5) 0.6324(4)
C15_2 C 0.9066(4) 0.3609(4) 0.5725(4)
C16 C 0.9779(4) 0.3484(5) 0.4360(4)
H11 H 0.9998 0.0563 0.3947
C20 C 0.9286(3) 0.4031(4) 0.4923(4)
H12 H 0.9097 0.4694 0.4764
C24 C 0.9946(4) 0.3944(5) 0.3495(4)
C25_2 C 0.9841(4) 0.2074(5) 0.5400(4)
C26_2 C 0.9344(4) 0.2615(5) 0.5948(4)
H16_2 H 0.9192 0.2315 0.6475
N3 N 0.8243(3) 0.5718(3) 0.8083(3)
N4 N 0.6757(3) 0.4282(3) 0.8083(3)
O6_2 O 0.4690(3) 0.0204(4) 0.8270(3)
C16_2 C 0.4779(4) 0.1516(5) 0.9360(4)
C17_2 C 0.6030(4) 0.4671(4) 0.8311(4)
H9_2 H 0.5894 0.5345 0.8125
C18_2 C 0.6932(3) 0.3309(4) 0.8370(4)
H10_2 H 0.7435 0.3030 0.8237
C19_2 C 0.5486(3) 0.4128(4) 0.8797(4)
H11_2 H 0.4998 0.4437 0.8947
C20_2 C 0.4286(3) 0.0969(4) 0.9923(4)
H12_2 H 0.4097 0.0306 0.9764
C21_2 C 0.5660(4) 0.3118(5) 0.9066(4)
C22_2 C 0.6417(4) 0.2708(5) 0.8844(4)
H13_2 H 0.6564 0.2033 0.9019
C23_2 C 0.5088(4) 0.2504(4) 0.9598(4)
C24_2 C 0.4946(4) 0.1056(5) 0.8495(4)
H14_2 H 0.5261 0.1438 0.8107
O1_2 O 0.1790(2) 0.8709(3) 0.1958(2)
C1_2 C 0.1485(3) 0.9192(5) 0.1324(4)
C2_2 C 0.0934(4) 0.8609(4) 0.0725(4)
C12_2 C 0.0159(4) 0.7074(5) 0.0400(4)
C13_2 C 0.0656(4) 0.7615(5) 0.0948(4)
H8_2 H 0.0808 0.7315 0.1475
O5_2 O 0.3359(2) 0.9847(3) 0.1177(2)
C4_2 C 0.8970(4) 0.5329(4) 0.8311(4)
H1_2 H 0.9106 0.4655 0.8125
C5_2 C 0.8068(3) 0.6691(4) 0.8370(4)
H2_2 H 0.7565 0.6970 0.8237
C6_2 C 0.9514(3) 0.5872(4) 0.8797(4)
C8_2 C 0.9340(4) 0.6882(5) 0.9066(4)
C9_2 C 0.8583(4) 0.7292(5) 0.8844(4)
H5_2 H 0.8436 0.7967 0.9019
C10_2 C 0.9912(4) 0.7496(4) 0.9598(4)
H6_2 H 0.9739 0.8562 0.8107
N1_2 N 0.1757(3) 0.4282(3) 0.1917(3)
C4_3 C 0.1030(4) 0.4671(4) 0.1689(4)
H1_3 H 0.0894 0.5345 0.1875
C5_3 C 0.1932(3) 0.3309(4) 0.1630(4)
H2_3 H 0.2435 0.3030 0.1763
C6_3 C 0.0486(3) 0.4128(4) 0.1203(4)
C8_3 C 0.0660(4) 0.3118(5) 0.0934(4)
C9_3 C 0.1417(4) 0.2708(5) 0.1156(4)
H5_3 H 0.1564 0.2033 0.0981
C10_3 C 0.0088(4) 0.2504(4) 0.0402(4)
H6_3 H 0.0261 0.1438 0.1893
Ni2 Ni 0.2500 0.5000 0.27812(8)
O1_3 O 0.8210(2) 0.1291(3) 0.8042(2)
C1_3 C 0.8515(3) 0.0808(5) 0.8676(4)
C2_3 C 0.9066(4) 0.1391(4) 0.9275(4)
C12_3 C 0.9841(4) 0.2926(5) 0.9600(4)
C13_3 C 0.9344(4) 0.2385(5) 0.9052(4)
H8_3 H 0.9192 0.2685 0.8525
Ni1_2 Ni 0.7500 0.0000 0.77812(8)
O5_3 O 0.6641(2) 0.0153(3) 0.8823(2)
N3_2 N 0.6757(3) 0.0718(3) 0.6917(3)
O6_3 O 0.5310(3) 0.9796(4) 0.1730(3)
N2_2 N 0.3243(3) 0.5718(3) 0.1917(3)
C16_3 C 0.5221(4) 0.8484(5) 0.0640(4)
C17_3 C 0.3970(4) 0.5329(4) 0.1689(4)
H9_3 H 0.4106 0.4655 0.1875
C18_3 C 0.3068(3) 0.6691(4) 0.1630(4)
H10_3 H 0.2565 0.6970 0.1763
C19_3 C 0.4514(3) 0.5872(4) 0.1203(4)
H11_3 H 0.5002 0.5563 0.1053
C20_3 C 0.5714(3) 0.9031(4) 0.0077(4)
H12_3 H 0.5903 0.9694 0.0236
C21_3 C 0.4340(4) 0.6882(5) 0.0934(4)
C22_3 C 0.3583(4) 0.7292(5) 0.1156(4)
H13_3 H 0.3436 0.7967 0.0981
C23_3 C 0.4912(4) 0.7496(4) 0.0402(4)
C24_3 C 0.5054(4) 0.8944(5) 0.1505(4)
H14_3 H 0.4739 0.8562 0.1893
O1_4 O 0.3210(2) 0.3709(3) 0.3042(2)
O2_3 O 0.3359(2) 0.5153(3) 0.3823(2)
O3_2 O 0.4690(3) 0.4796(4) 0.6730(3)
C1_4 C 0.3515(3) 0.4192(5) 0.3676(4)
C2_4 C 0.4066(4) 0.3609(4) 0.4275(4)
C3_2 C 0.4779(4) 0.3484(5) 0.5640(4)
C4_4 C 0.6030(4) 0.0329(4) 0.6689(4)
C5_4 C 0.6932(3) 0.1691(4) 0.6630(4)
H2_4 H 0.7435 0.1970 0.6763
C6_4 C 0.5486(3) 0.0872(4) 0.6203(4)
H3_2 H 0.4998 0.0563 0.6053
C7_2 C 0.4286(3) 0.4031(4) 0.5077(4)
H4_2 H 0.4097 0.4694 0.5236
C8_4 C 0.5660(4) 0.1882(5) 0.5934(4)
C9_4 C 0.6417(4) 0.2292(5) 0.6156(4)
H5_4 H 0.6564 0.2967 0.5981
C10_4 C 0.5088(4) 0.2496(4) 0.5402(4)
C11_2 C 0.4946(4) 0.3944(5) 0.6505(4)
H6_4 H 0.5261 0.3562 0.6893
C12_4 C 0.4841(4) 0.2074(5) 0.4600(4)
H7_2 H 0.5021 0.1408 0.4440
C13_4 C 0.4344(4) 0.2615(5) 0.4052(4)
H8_4 H 0.4192 0.2315 0.3525
O4_3 O 0.1790(2) 0.6291(3) 0.3042(2)
O5_4 O 0.1641(2) 0.4847(3) 0.3823(2)
O6_4 O 0.0310(3) 0.5204(4) 0.6730(3)
C14_3 C 0.1485(3) 0.5808(5) 0.3676(4)
C15_3 C 0.0934(4) 0.6391(4) 0.4275(4)
C16_4 C 0.0221(4) 0.6516(5) 0.5640(4)
H11_4 H 0.0002 0.9437 0.6053
C20_4 C 0.0714(3) 0.5969(4) 0.5077(4)
H12_4 H 0.0903 0.5306 0.5236
C24_4 C 0.0054(4) 0.6056(5) 0.6505(4)
C25_3 C 0.0159(4) 0.7926(5) 0.4600(4)
C26_3 C 0.0656(4) 0.7385(5) 0.4052(4)
H16_3 H 0.0808 0.7685 0.3525
H9_4 H 0.9106 0.0345 0.6875
H7_3 H 0.0021 0.3592 0.9440
O3_3 O 0.9690(3) 0.0204(4) 0.1730(3)
C3_3 C 0.9779(4) 0.1516(5) 0.0640(4)
H3_3 H 0.9998 0.4437 0.1053
C7_3 C 0.9286(3) 0.0969(4) 0.0077(4)
H4_3 H 0.9097 0.0306 0.0236
C11_3 C 0.9946(4) 0.1056(5) 0.1505(4)
O2_4 O 0.8359(2) 0.9847(3) 0.8823(2)
Ni1_3 Ni 0.7500 1.0000 0.77812(8)
O4_4 O 0.6790(2) 0.8709(3) 0.8042(2)
C14_4 C 0.6485(3) 0.9192(5) 0.8676(4)
C15_4 C 0.5934(4) 0.8609(4) 0.9275(4)
C25_4 C 0.5159(4) 0.7074(5) 0.9600(4)
H15_3 H 0.4979 0.6408 0.9440
C26_4 C 0.5656(4) 0.7615(5) 0.9052(4)
H16_4 H 0.5808 0.7315 0.8525
N4_2 N 0.8243(3) 0.9282(3) 0.6917(3)
H1_4 H 0.5894 0.9655 0.6875
C17_4 C 0.8970(4) 0.9671(4) 0.6689(4)
C18_4 C 0.8068(3) 0.8309(4) 0.6630(4)
H10_4 H 0.7565 0.8030 0.6763
C19_4 C 0.9514(3) 0.9128(4) 0.6203(4)
C21_4 C 0.9340(4) 0.8118(5) 0.5934(4)
C22_4 C 0.8583(4) 0.7708(5) 0.6156(4)
H13_4 H 0.8436 0.7033 0.5981
C23_4 C 0.9912(4) 0.7504(4) 0.5402(4)
H14_4 H 0.9739 0.6438 0.6893
H15_4 H 0.9979 0.8592 0.4440
O3_4 O 0.0310(3) 0.9796(4) 0.8270(3)
C3_4 C 0.0221(4) 0.8484(5) 0.9360(4)
H3_4 H 0.0002 0.5563 0.8947
C7_4 C 0.0714(3) 0.9031(4) 0.9923(4)
H4_4 H 0.0903 0.9694 0.9764
C11_4 C 0.0054(4) 0.8944(5) 0.8495(4)
H7_4 H 0.9979 0.6408 0.0560
loop_
_geom_bond_atom_site_label_1
_geom_bond_atom_site_label_2
_geom_bond_site_symmetry_1
_geom_bond_site_symmetry_2
N2 C17 1_555 1_555
C18 N2 1_555 1_555
H10 C18 1_555 1_555
C19 C17 1_555 1_555
C21 C19 1_555 1_555
C22 C18 1_555 1_555
H13 C22 1_555 1_555
Ni3 N2 1_555 1_555
C21 C22 1_555 1_555
C21 C23 1_555 1_555
O4 Ni3 1_555 1_555
C14 O4 1_555 1_555
C15 C14 1_555 1_555
H15_2 C25 1_555 1_555
C26 C15 1_555 1_555
H16 C26 1_555 1_555
O2 Ni3 1_555 1_555
C25 C26 1_555 1_555
O1 C1 1_555 1_555
O2_2 C1 1_555 1_555
O3 C11 1_555 1_555
N1 C4 1_555 1_555
C1 C2 1_555 1_555
C2 C7 1_555 1_555
C3 C7 1_555 1_555
C5 N1 1_555 1_555
H2 C5 1_555 1_555
C6 C4 1_555 1_555
H3 C6 1_555 1_555
C7 H4 1_555 1_555
C8 C6 1_555 1_555
C9 C5 1_555 1_555
H5 C9 1_555 1_555
C10 C3 1_555 1_555
C11 C3 1_555 1_555
H6 C11 1_555 1_555
C12 C10 1_555 1_555
H7 C12 1_555 1_555
C13 C2 1_555 1_555
H8 C13 1_555 1_555
Ni1 O1 1_555 1_555
O4_2 Ni1 1_555 1_555
O5 Ni1 1_555 1_555
O6 C24 1_555 1_555
C14_2 O4_2 1_555 1_555
C15_2 C14_2 1_555 1_555
C16 C20 1_555 1_555
C20 C15_2 1_555 1_555
H12 C20 1_555 1_555
C24 C16 1_555 1_555
C26_2 C15_2 1_555 1_555
H16_2 C26_2 1_555 1_555
N3 Ni1 1_555 1_555
N4 Ni1 1_555 1_555
Ni3_2 N1 1_555 1_555
O2_2 Ni1 1_555 1_555
C8 C9 1_555 1_555
C8 C10 1_555 1_555
C12 C13 1_555 1_555
O5 C14_2 1_555 1_555
C25_2 C26_2 1_555 1_555
O6_2 C24_2 1_555 1_555
N4 C17_2 1_555 1_555
C16_2 C20_2 1_555 1_555
C17_2 H9_2 1_555 1_555
C18_2 N4 1_555 1_555
H10_2 C18_2 1_555 1_555
C19_2 C17_2 1_555 1_555
H11_2 C19_2 1_555 1_555
H12_2 C20_2 1_555 1_555
C21_2 C19_2 1_555 1_555
C22_2 C18_2 1_555 1_555
H13_2 C22_2 1_555 1_555
C23_2 C16_2 1_555 1_555
C24_2 C16_2 1_555 1_555
H14_2 C24_2 1_555 1_555
C21_2 C22_2 1_555 1_555
C21_2 C23_2 1_555 1_555
O1_2 C1_2 1_555 1_555
C1_2 C2_2 1_555 1_555
C13_2 C2_2 1_555 1_555
H8_2 C13_2 1_555 1_555
Ni3_2 O1_2 1_555 1_555
O5_2 Ni3_2 1_555 1_555
C12_2 C13_2 1_555 1_555
N3 C4_2 1_555 1_555
C4_2 H1_2 1_555 1_555
C5_2 N3 1_555 1_555
H2_2 C5_2 1_555 1_555
C6_2 C4_2 1_555 1_555
C8_2 C6_2 1_555 1_555
C9_2 C5_2 1_555 1_555
H5_2 C9_2 1_555 1_555
C8_2 C9_2 1_555 1_555
C8_2 C10_2 1_555 1_555
N1_2 C4_3 1_555 1_555
C4_3 H1_3 1_555 1_555
C5_3 N1_2 1_555 1_555
H2_3 C5_3 1_555 1_555
C6_3 C4_3 1_555 1_555
C8_3 C6_3 1_555 1_555
C9_3 C5_3 1_555 1_555
H5_3 C9_3 1_555 1_555
Ni2 N1_2 1_555 1_555
C8_3 C9_3 1_555 1_555
C8_3 C10_3 1_555 1_555
O1_3 C1_3 1_555 1_555
C1_3 C2_3 1_555 1_555
C13_3 C2_3 1_555 1_555
H8_3 C13_3 1_555 1_555
Ni1_2 O1_3 1_555 1_555
O5_3 Ni1_2 1_555 1_555
N3_2 Ni1_2 1_555 1_555
C12_3 C13_3 1_555 1_555
O6_3 C24_3 1_555 1_555
N2_2 C17_3 1_555 1_555
C16_3 C20_3 1_555 1_555
C17_3 H9_3 1_555 1_555
C18_3 N2_2 1_555 1_555
H10_3 C18_3 1_555 1_555
C19_3 C17_3 1_555 1_555
H11_3 C19_3 1_555 1_555
H12_3 C20_3 1_555 1_555
C21_3 C19_3 1_555 1_555
C22_3 C18_3 1_555 1_555
H13_3 C22_3 1_555 1_555
C23_3 C16_3 1_555 1_555
C24_3 C16_3 1_555 1_555
H14_3 C24_3 1_555 1_555
Ni2 N2_2 1_555 1_555
C21_3 C22_3 1_555 1_555
C21_3 C23_3 1_555 1_555
O1_4 C1_4 1_555 1_555
O2_3 C1_4 1_555 1_555
O3_2 C11_2 1_555 1_555
N3_2 C4_4 1_555 1_555
C1_4 C2_4 1_555 1_555
C2_4 C7_2 1_555 1_555
C3_2 C7_2 1_555 1_555
C5_4 N3_2 1_555 1_555
H2_4 C5_4 1_555 1_555
C6_4 C4_4 1_555 1_555
H3_2 C6_4 1_555 1_555
C7_2 H4_2 1_555 1_555
C8_4 C6_4 1_555 1_555
C9_4 C5_4 1_555 1_555
H5_4 C9_4 1_555 1_555
C10_4 C3_2 1_555 1_555
C11_2 C3_2 1_555 1_555
H6_4 C11_2 1_555 1_555
C12_4 C10_4 1_555 1_555
H7_2 C12_4 1_555 1_555
C13_4 C2_4 1_555 1_555
H8_4 C13_4 1_555 1_555
Ni2 O1_4 1_555 1_555
O4_3 Ni2 1_555 1_555
O5_4 Ni2 1_555 1_555
O6_4 C24_4 1_555 1_555
C14_3 O4_3 1_555 1_555
C15_3 C14_3 1_555 1_555
C16_4 C20_4 1_555 1_555
C20_4 C15_3 1_555 1_555
H12_4 C20_4 1_555 1_555
C24_4 C16_4 1_555 1_555
C26_3 C15_3 1_555 1_555
H16_3 C26_3 1_555 1_555
O2_3 Ni2 1_555 1_555
C8_4 C9_4 1_555 1_555
C8_4 C10_4 1_555 1_555
C12_4 C13_4 1_555 1_555
O5_4 C14_3 1_555 1_555
C25_3 C26_3 1_555 1_555
O3_3 C11_3 1_555 1_555
C3_3 C7_3 1_555 1_555
C7_3 H4_3 1_555 1_555
C11_3 C3_3 1_555 1_555
O4_4 Ni1_3 1_555 1_555
C14_4 O4_4 1_555 1_555
C15_4 C14_4 1_555 1_555
H15_3 C25_4 1_555 1_555
C26_4 C15_4 1_555 1_555
H16_4 C26_4 1_555 1_555
N4_2 Ni1_3 1_555 1_555
O2_4 Ni1_3 1_555 1_555
C25_4 C26_4 1_555 1_555
N4_2 C17_4 1_555 1_555
C18_4 N4_2 1_555 1_555
H10_4 C18_4 1_555 1_555
C19_4 C17_4 1_555 1_555
C21_4 C19_4 1_555 1_555
C22_4 C18_4 1_555 1_555
H13_4 C22_4 1_555 1_555
C21_4 C22_4 1_555 1_555
C21_4 C23_4 1_555 1_555
O3_4 C11_4 1_555 1_555
C3_4 C7_4 1_555 1_555
C7_4 H4_4 1_555 1_555
C11_4 C3_4 1_555 1_555

#END
