
###############################################################################
#
# This file contains modified crystal structure data generated from the
# MOF subset of the Cambridge Structural Database (CSD) v543 
# hosted by the Cambridge Crystallographic Data Centre (CCDC).
#
# This work is licensed under the Creative Commons
# Attribution-NonCommercial-ShareAlike 4.0 International License.
# To view a copy of this license, visit
# http://creativecommons.org/licenses/by-nc-sa/4.0/
# or send a letter to
# Creative Commons, PO Box 1866, Mountain View, CA 94042, USA.
#
# CIF created using the CSD Python API on 29 September 2022
# The structure has been converted into the P1 space group
# The structure has a 3D framework
# The original CSD entry BEQKIV is in the monoclinic crystal system
# The framework has been calculated to contain at least 10.0% void space
# The void calculation uses a probe of radius 1.32A, grid spacing 0.4
# The framework is charged, counterions have been retained in the structure
#
###############################################################################

data_BEQKIV
_chemical_formula_moiety         '(C56 H36 Au3 Br18 Fe2 N12 7-)n'
_symmetry_cell_setting           triclinic
_symmetry_space_group_name_H-M   'P 1'
_symmetry_Int_Tables_number      1
_space_group_name_Hall           'P 1'
loop_
_symmetry_equiv_pos_site_id
_symmetry_equiv_pos_as_xyz
1 x,y,z
_cell_length_a                   15.2524(12)
_cell_length_b                   9.4905(7)
_cell_length_c                   16.3282(14)
_cell_angle_alpha                90
_cell_angle_beta                 100.321(8)
_cell_angle_gamma                90
_cell_volume                     2325.31
loop_
_atom_site_label
_atom_site_type_symbol
_atom_site_fract_x
_atom_site_fract_y
_atom_site_fract_z
Br1 Br 0.500000 -0.000000 0.500000
Br2 Br 0.3657(3) 0.1421(4) 0.4785(3)
Br1_2 Br 0.500000 1.000000 0.500000
Br3 Br 0.6343(3) 0.8579(4) 0.5215(3)
Br1_3 Br 0.000000 0.000000 0.000000
Br2_2 Br 0.1343(3) 0.1421(4) 0.0215(3)
Br1_4 Br 0.000000 -0.000000 1.000000
Br1_5 Br 0.000000 1.000000 0.000000
Br1_6 Br 0.000000 1.000000 1.000000
Br1_7 Br 1.000000 0.000000 0.000000
Br1_8 Br 1.000000 -0.000000 1.000000
Br1_9 Br 1.000000 1.000000 0.000000
Br1_10 Br 1.000000 1.000000 1.000000
Br3_2 Br 0.8657(3) 0.8579(4) 0.9785(3)
H6 H 0.005747 0.28770 0.645371
C15 C 0.1982(17) 0.370(2) 0.3982(14)
H10 H 0.229993 0.447376 0.425851
C16 C 0.1577(19) 0.273(3) 0.4432(12)
H11 H 0.161687 0.284162 0.501585
C17 C 0.1112(18) 0.159(3) 0.4028(15)
C18 C 0.1054(18) 0.143(2) 0.3174(15)
H12 H 0.073611 0.064860 0.289832
C19 C 0.1459(18) 0.239(2) 0.2725(12)
H13 H 0.141915 0.228072 0.214096
N4 N 0.1924(16) 0.353(2) 0.3129(14)
C20 C 0.053(4) 0.062(6) 0.449(4)
C21 C 0.009(3) 0.140(6) 0.504(3)
H14 H 0.016116 0.239096 0.508611
Fe4 Fe 0.250000 0.4999(9) 0.250000
Au2 Au 0.000000 0.500000 0.000000
C22 C 0.047(4) 0.936(6) 0.446(4)
C23 C 0.1013(18) 0.839(3) 0.3941(19)
C24 C 0.0558(13) 0.725(3) 0.353(2)
C25 C 0.1003(15) 0.630(3) 0.3110(18)
H16 H 0.069179 0.55150 0.283134
N5 N 0.1903(15) 0.648(2) 0.3092(17)
C26 C 0.2359(13) 0.762(3) 0.3499(18)
H17 H 0.297399 0.77500 0.348706
C27 C 0.1914(18) 0.858(2) 0.3924(19)
H18 H 0.222474 0.935799 0.420201
Au2_2 Au 0.000000 0.500000 1.000000
C9 C 0.953(4) 0.064(6) 0.554(4)
C10 C 0.8987(18) 0.161(3) 0.6059(19)
C11 C 0.9442(13) 0.275(3) 0.647(2)
C12 C 0.8997(15) 0.370(3) 0.6890(18)
H7 H 0.930821 0.44850 0.716866
N3 N 0.8097(15) 0.352(2) 0.6908(17)
C13 C 0.7641(13) 0.238(3) 0.6501(18)
H8 H 0.702601 0.22500 0.651294
C14 C 0.8086(18) 0.142(2) 0.6076(19)
H9 H 0.777526 0.064201 0.579799
Fe2 Fe 0.750000 0.5001(9) 0.750000
Au2_3 Au 1.000000 0.500000 0.000000
Au1 Au 0.500000 0.500000 0.500000
Br4 Br 0.4065(5) 0.6524(8) 0.5669(5)
N1 N 0.653(2) 0.499(3) 0.651(2)
C1 C 0.604(2) 0.501(3) 0.596(2)
C2 C 0.8018(17) 0.630(2) 0.6018(14)
H1 H 0.770007 0.552624 0.574149
C3 C 0.8423(19) 0.727(3) 0.5568(12)
H2 H 0.838313 0.715838 0.498415
C4 C 0.8888(18) 0.841(3) 0.5972(15)
C5 C 0.8946(18) 0.857(2) 0.6826(15)
H3 H 0.926389 0.935140 0.710168
C6 C 0.8541(18) 0.761(2) 0.7275(12)
H4 H 0.858085 0.771928 0.785904
N2 N 0.8076(16) 0.647(2) 0.6871(14)
C7 C 0.947(4) 0.938(6) 0.551(4)
C8 C 0.991(3) 0.860(6) 0.496(3)
H5 H 0.983884 0.760904 0.491389
H15 H 0.994253 0.71230 0.354629
N6 N 0.847(2) 0.499(3) 0.849(2)
C28 C 0.896(2) 0.501(3) 0.904(2)
Br5 Br 0.5935(5) 0.3476(8) 0.4331(5)
Au2_4 Au 1.000000 0.500000 1.000000
C29 C 0.396(2) 0.499(3) 0.404(2)
N7 N 0.6924(16) 0.647(2) 0.8129(14)
N9 N 0.6903(15) 0.352(2) 0.8092(17)
C29_2 C 0.104(2) 0.499(3) 0.096(2)
Br4_2 Br 0.0935(5) 0.6524(8) 0.9331(5)
C15_2 C 0.3018(17) 0.370(2) 0.1018(14)
H10_2 H 0.270007 0.447376 0.074149
C16_2 C 0.3423(19) 0.273(3) 0.0568(12)
C17_2 C 0.3888(18) 0.159(3) 0.0972(15)
C18_2 C 0.3946(18) 0.143(2) 0.1826(15)
H12_2 H 0.426389 0.064860 0.210168
C19_2 C 0.3541(18) 0.239(2) 0.2275(12)
H13_2 H 0.358085 0.228072 0.285904
N4_2 N 0.3076(16) 0.353(2) 0.1871(14)
C20_2 C 0.447(4) 0.062(6) 0.051(4)
C9_2 C 0.547(4) 0.064(6) 0.946(4)
C10_2 C 0.6013(18) 0.161(3) 0.8941(19)
C11_2 C 0.5558(13) 0.275(3) 0.853(2)
H6_2 H 0.494253 0.28770 0.854629
C12_2 C 0.6003(15) 0.370(3) 0.8110(18)
H7_2 H 0.569179 0.44850 0.783134
C13_2 C 0.7359(13) 0.238(3) 0.8499(18)
H8_2 H 0.797399 0.22500 0.848706
C14_2 C 0.6914(18) 0.142(2) 0.8924(19)
H9_2 H 0.722474 0.064201 0.920201
H11_2 H 0.338313 0.284162 0.998415
C21_2 C 0.491(3) 0.140(6) 0.996(3)
H14_2 H 0.483884 0.239096 0.991389
H2_2 H 0.661687 0.715838 0.001585
C8_2 C 0.509(3) 0.860(6) 0.004(3)
H5_2 H 0.516116 0.760904 0.008611
C22_2 C 0.453(4) 0.936(6) 0.054(4)
C23_2 C 0.3987(18) 0.839(3) 0.1059(19)
C24_2 C 0.4442(13) 0.725(3) 0.147(2)
H15_2 H 0.505747 0.71230 0.145371
C25_2 C 0.3997(15) 0.630(3) 0.1890(18)
H16_2 H 0.430821 0.55150 0.216866
N5_2 N 0.3097(15) 0.648(2) 0.1908(17)
C26_2 C 0.2641(13) 0.762(3) 0.1501(18)
H17_2 H 0.202601 0.77500 0.151294
C27_2 C 0.3086(18) 0.858(2) 0.1076(19)
H18_2 H 0.277526 0.935799 0.079799
Br5_2 Br 0.9065(5) 0.3476(8) 0.0669(5)
C2_2 C 0.6982(17) 0.630(2) 0.8982(14)
H1_2 H 0.729993 0.552624 0.925851
C3_2 C 0.6577(19) 0.727(3) 0.9432(12)
C4_2 C 0.6112(18) 0.841(3) 0.9028(15)
C5_2 C 0.6054(18) 0.857(2) 0.8174(15)
H3_2 H 0.573611 0.935140 0.789832
C6_2 C 0.6459(18) 0.761(2) 0.7725(12)
H4_2 H 0.641915 0.771928 0.714096
C7_2 C 0.553(4) 0.938(6) 0.949(4)
N1_2 N 0.347(2) 0.501(3) 0.349(2)
N6_2 N 0.153(2) 0.501(3) 0.151(2)
loop_
_geom_bond_atom_site_label_1
_geom_bond_atom_site_label_2
_geom_bond_site_symmetry_1
_geom_bond_site_symmetry_2
Br1 Br2 1_555 1_555
Br3 Br1_2 1_555 1_555
Br1_3 Br2_2 1_555 1_555
Br3_2 Br1_10 1_555 1_555
C15 H10 1_555 1_555
C16 C15 1_555 1_555
H11 C16 1_555 1_555
C17 C16 1_555 1_555
C18 C17 1_555 1_555
H12 C18 1_555 1_555
C19 C18 1_555 1_555
H13 C19 1_555 1_555
N4 C15 1_555 1_555
C20 C17 1_555 1_555
H14 C21 1_555 1_555
Fe4 N4 1_555 1_555
C19 N4 1_555 1_555
C20 C21 1_555 1_555
C23 C22 1_555 1_555
C24 C23 1_555 1_555
C25 C24 1_555 1_555
H16 C25 1_555 1_555
N5 C25 1_555 1_555
C26 N5 1_555 1_555
H17 C26 1_555 1_555
C27 C23 1_555 1_555
H18 C27 1_555 1_555
Fe4 N5 1_555 1_555
C26 C27 1_555 1_555
C10 C9 1_555 1_555
C11 C10 1_555 1_555
C12 C11 1_555 1_555
H7 C12 1_555 1_555
N3 C12 1_555 1_555
C13 N3 1_555 1_555
H8 C13 1_555 1_555
C14 C10 1_555 1_555
H9 C14 1_555 1_555
Fe2 N3 1_555 1_555
C13 C14 1_555 1_555
Au1 Br4 1_555 1_555
Fe2 N1 1_555 1_555
N1 C1 1_555 1_555
C1 Au1 1_555 1_555
C2 H1 1_555 1_555
C3 C2 1_555 1_555
H2 C3 1_555 1_555
C4 C3 1_555 1_555
C5 C4 1_555 1_555
H3 C5 1_555 1_555
C6 C5 1_555 1_555
H4 C6 1_555 1_555
N2 Fe2 1_555 1_555
C7 C4 1_555 1_555
C8 C7 1_555 1_555
H5 C8 1_555 1_555
N6 Fe2 1_555 1_555
C28 N6 1_555 1_555
Br5 Au1 1_555 1_555
Au2_4 C28 1_555 1_555
C29 Au1 1_555 1_555
N7 Fe2 1_555 1_555
N9 Fe2 1_555 1_555
C2 N2 1_555 1_555
C6 N2 1_555 1_555
C29_2 Au2 1_555 1_555
Au2_2 Br4_2 1_555 1_555
C15_2 H10_2 1_555 1_555
C16_2 C15_2 1_555 1_555
C17_2 C16_2 1_555 1_555
C18_2 C17_2 1_555 1_555
H12_2 C18_2 1_555 1_555
C19_2 C18_2 1_555 1_555
H13_2 C19_2 1_555 1_555
N4_2 C15_2 1_555 1_555
C20_2 C17_2 1_555 1_555
Fe4 N4_2 1_555 1_555
C19_2 N4_2 1_555 1_555
C10_2 C9_2 1_555 1_555
C11_2 C10_2 1_555 1_555
H6_2 C11_2 1_555 1_555
C12_2 C11_2 1_555 1_555
H7_2 C12_2 1_555 1_555
N9 C12_2 1_555 1_555
C13_2 N9 1_555 1_555
H8_2 C13_2 1_555 1_555
C14_2 C10_2 1_555 1_555
H9_2 C14_2 1_555 1_555
C21_2 C9_2 1_555 1_555
H14_2 C21_2 1_555 1_555
C13_2 C14_2 1_555 1_555
H5_2 C8_2 1_555 1_555
C22_2 C8_2 1_555 1_555
C23_2 C22_2 1_555 1_555
C24_2 C23_2 1_555 1_555
H15_2 C24_2 1_555 1_555
C25_2 C24_2 1_555 1_555
H16_2 C25_2 1_555 1_555
N5_2 C25_2 1_555 1_555
C26_2 N5_2 1_555 1_555
H17_2 C26_2 1_555 1_555
C27_2 C23_2 1_555 1_555
H18_2 C27_2 1_555 1_555
Br5_2 Au2_3 1_555 1_555
Fe4 N5_2 1_555 1_555
C26_2 C27_2 1_555 1_555
C2_2 H1_2 1_555 1_555
C3_2 C2_2 1_555 1_555
C4_2 C3_2 1_555 1_555
C5_2 C4_2 1_555 1_555
H3_2 C5_2 1_555 1_555
C6_2 C5_2 1_555 1_555
H4_2 C6_2 1_555 1_555
C7_2 C4_2 1_555 1_555
C2_2 N7 1_555 1_555
C6_2 N7 1_555 1_555
Fe4 N1_2 1_555 1_555
N1_2 C29 1_555 1_555
N6_2 Fe4 1_555 1_555
C29_2 N6_2 1_555 1_555

#END
