
###############################################################################
#
# This file contains modified crystal structure data generated from the
# MOF subset of the Cambridge Structural Database (CSD) v543 
# hosted by the Cambridge Crystallographic Data Centre (CCDC).
#
# This work is licensed under the Creative Commons
# Attribution-NonCommercial-ShareAlike 4.0 International License.
# To view a copy of this license, visit
# http://creativecommons.org/licenses/by-nc-sa/4.0/
# or send a letter to
# Creative Commons, PO Box 1866, Mountain View, CA 94042, USA.
#
# CIF created using the CSD Python API on 29 September 2022
# The structure has been converted into the P1 space group
# The structure has a 3D framework
# The original CSD entry BERGAI01 is in the tetragonal crystal system
# The framework has been calculated to contain at least 10.0% void space
# The void calculation uses a probe of radius 1.32A, grid spacing 0.4
#
###############################################################################

data_BERGAI01
_chemical_formula_moiety         '(C96 H80 N64 O32 Zn14)n'
_symmetry_cell_setting           triclinic
_symmetry_space_group_name_H-M   'P 1'
_symmetry_Int_Tables_number      1
_space_group_name_Hall           'P 1'
loop_
_symmetry_equiv_pos_site_id
_symmetry_equiv_pos_as_xyz
1 x,y,z
_cell_length_a                   12.6724(4)
_cell_length_b                   12.6724(4)
_cell_length_c                   25.2868(16)
_cell_angle_alpha                90
_cell_angle_beta                 90
_cell_angle_gamma                90
_cell_volume                     4060.8
loop_
_atom_site_label
_atom_site_type_symbol
_atom_site_fract_x
_atom_site_fract_y
_atom_site_fract_z
C6 C 0.1894(2) 0.0043(2) 0.42108(10)
N1 N 0.10060(18) 0.00113(19) 0.44871(8)
N4 N 0.1954(2) 0.0312(3) 0.36992(10)
H4 H 0.1392 0.0479 0.3528
H5 H 0.2556 0.0317 0.3542
C11 C 0.5402(2) 0.2307(2) 0.49868(10)
H8 H 0.5601 0.2699 0.5281
C12 C 0.4957(2) 0.1894(2) 0.42108(10)
N5 N 0.49887(19) 0.10060(18) 0.44871(8)
N6 N 0.52708(18) 0.12891(18) 0.49977(8)
N7 N 0.5222(2) 0.27391(18) 0.45103(9)
N8 N 0.4688(3) 0.1954(2) 0.36992(10)
H9 H 0.4521 0.1392 0.3528
H10 H 0.4683 0.2556 0.3542
Zn3 Zn 0.53850(2) 0.43051(3) 0.437520(11)
Zn6 Zn 0.56949(3) 0.03850(2) 0.562480(11)
C5 C 0.2307(2) 0.9598(2) 0.49868(10)
H3 H 0.2699 0.9399 0.5281
N2 N 0.12891(18) 0.97292(18) 0.49977(8)
N3 N 0.27391(18) 0.9778(2) 0.45103(9)
Zn2 Zn 0.43051(3) 0.96150(2) 0.437520(11)
N10 N 0.47292(18) 0.87109(18) 0.50023(8)
O5 O 0.4485(2) 0.8526(2) 0.38390(9)
Zn5 Zn 0.03850(2) 0.93051(3) 0.562480(11)
C1 C 0.8923(3) 0.0707(3) 0.33891(13)
C2 C 0.8182(3) 0.0725(3) 0.29283(12)
C3 C 0.8569(3) 0.0739(4) 0.24227(14)
H1 H 0.9294 0.0752 0.2366
C4 C 0.7111(3) 0.0734(4) 0.30028(13)
H2 H 0.6840 0.0736 0.3345
O1 O 0.8526(2) 0.0515(2) 0.38390(9)
O2 O 0.98741(19) 0.08842(19) 0.33259(10)
Zn1 Zn 0.96150(2) 0.06949(3) 0.437520(11)
C7 C 0.6077(3) 0.0707(3) 0.16109(13)
C8 C 0.6818(3) 0.0725(3) 0.20717(12)
C9 C 0.6431(3) 0.0739(4) 0.25773(14)
H6 H 0.5706 0.0752 0.2634
C10 C 0.7889(3) 0.0734(4) 0.19972(13)
H7 H 0.8160 0.0736 0.1655
O3 O 0.6474(2) 0.0515(2) 0.11610(9)
O4 O 0.51259(19) 0.08842(19) 0.16741(10)
N9 N 0.87109(18) 0.02708(18) 0.50023(8)
N11 N 0.9778(2) 0.22609(18) 0.45103(9)
Zn4 Zn 0.53850(2) 0.06949(3) 0.062480(11)
C1_2 C 0.6077(3) 0.4293(3) 0.33891(13)
C2_2 C 0.6818(3) 0.4275(3) 0.29283(12)
C3_2 C 0.6431(3) 0.4261(4) 0.24227(14)
H1_2 H 0.5706 0.4248 0.2366
C4_2 C 0.7889(3) 0.4266(4) 0.30028(13)
H2_2 H 0.8160 0.4264 0.3345
C5_2 C 0.2693(2) 0.5402(2) 0.49868(10)
H3_2 H 0.2301 0.5601 0.5281
C6_2 C 0.3106(2) 0.4957(2) 0.42108(10)
N1_2 N 0.39940(18) 0.49887(19) 0.44871(8)
N2_2 N 0.37109(18) 0.52708(18) 0.49977(8)
N3_2 N 0.22609(18) 0.5222(2) 0.45103(9)
N4_2 N 0.3046(2) 0.4688(3) 0.36992(10)
H4_2 H 0.3608 0.4521 0.3528
H5_2 H 0.2444 0.4683 0.3542
O1_2 O 0.6474(2) 0.4485(2) 0.38390(9)
O2_2 O 0.51259(19) 0.41158(19) 0.33259(10)
C7_2 C 0.8923(3) 0.4293(3) 0.16109(13)
C8_2 C 0.8182(3) 0.4275(3) 0.20717(12)
C9_2 C 0.8569(3) 0.4261(4) 0.25773(14)
H6_2 H 0.9294 0.4248 0.2634
C10_2 C 0.7111(3) 0.4266(4) 0.19972(13)
H7_2 H 0.6840 0.4264 0.1655
O3_2 O 0.8526(2) 0.4485(2) 0.11610(9)
O4_2 O 0.98741(19) 0.41158(19) 0.16741(10)
C12_2 C 0.0043(2) 0.3106(2) 0.42108(10)
N5_2 N 0.00113(19) 0.39940(18) 0.44871(8)
N8_2 N 0.0312(3) 0.3046(2) 0.36992(10)
H9_2 H 0.0479 0.3608 0.3528
H10_2 H 0.0317 0.2444 0.3542
Zn2_2 Zn 0.06949(3) 0.53850(2) 0.437520(11)
N9_2 N 0.62891(18) 0.47292(18) 0.50023(8)
N10_2 N 0.02708(18) 0.62891(18) 0.50023(8)
O5_2 O 0.0515(2) 0.6474(2) 0.38390(9)
Zn4_2 Zn 0.96150(2) 0.43051(3) 0.062480(11)
Zn5_2 Zn 0.46150(2) 0.56949(3) 0.562480(11)
C11_2 C 0.9598(2) 0.2693(2) 0.49868(10)
H8_2 H 0.9399 0.2301 0.5281
N6_2 N 0.97292(18) 0.37109(18) 0.49977(8)
Zn6_2 Zn 0.93051(3) 0.46150(2) 0.562480(11)
C1_3 C 0.4293(3) 0.8923(3) 0.33891(13)
C2_3 C 0.4275(3) 0.8182(3) 0.29283(12)
C3_3 C 0.4261(4) 0.8569(3) 0.24227(14)
H1_3 H 0.4248 0.9294 0.2366
C4_3 C 0.4266(4) 0.7111(3) 0.30028(13)
H2_3 H 0.4264 0.6840 0.3345
O2_3 O 0.41158(19) 0.98741(19) 0.33259(10)
C7_3 C 0.4293(3) 0.6077(3) 0.16109(13)
C8_3 C 0.4275(3) 0.6818(3) 0.20717(12)
C9_3 C 0.4261(4) 0.6431(3) 0.25773(14)
H6_3 H 0.4248 0.5706 0.2634
C10_3 C 0.4266(4) 0.7889(3) 0.19972(13)
H7_3 H 0.4264 0.8160 0.1655
O3_3 O 0.4485(2) 0.6474(2) 0.11610(9)
O4_3 O 0.41158(19) 0.51259(19) 0.16741(10)
Zn4_3 Zn 0.43051(3) 0.53850(2) 0.062480(11)
C1_4 C 0.0707(3) 0.6077(3) 0.33891(13)
C2_4 C 0.0725(3) 0.6818(3) 0.29283(12)
C3_4 C 0.0739(4) 0.6431(3) 0.24227(14)
H1_4 H 0.0752 0.5706 0.2366
C4_4 C 0.0734(4) 0.7889(3) 0.30028(13)
H2_4 H 0.0736 0.8160 0.3345
O2_4 O 0.08842(19) 0.51259(19) 0.33259(10)
C7_4 C 0.0707(3) 0.8923(3) 0.16109(13)
C8_4 C 0.0725(3) 0.8182(3) 0.20717(12)
C9_4 C 0.0739(4) 0.8569(3) 0.25773(14)
H6_4 H 0.0752 0.9294 0.2634
C10_4 C 0.0734(4) 0.7111(3) 0.19972(13)
H7_4 H 0.0736 0.6840 0.1655
O3_4 O 0.0515(2) 0.8526(2) 0.11610(9)
O4_4 O 0.08842(19) 0.98741(19) 0.16741(10)
Zn4_4 Zn 0.06949(3) 0.96150(2) 0.062480(11)
C6_3 C 0.3106(2) 0.0043(2) 0.07892(10)
N1_3 N 0.39940(18) 0.00113(19) 0.05129(8)
N4_3 N 0.3046(2) 0.0312(3) 0.13008(10)
H4_3 H 0.3608 0.0479 0.1472
H5_3 H 0.2444 0.0317 0.1458
C12_3 C 0.0043(2) 0.1894(2) 0.07892(10)
N5_3 N 0.00113(19) 0.10060(18) 0.05129(8)
N8_3 N 0.0312(3) 0.1954(2) 0.13008(10)
H9_3 H 0.0479 0.1392 0.1472
H10_3 H 0.0317 0.2556 0.1458
N11_2 N 0.5222(2) 0.22609(18) 0.04897(9)
N9_3 N 0.62891(18) 0.02708(18) 0.99977(8)
C5_3 C 0.2693(2) 0.9598(2) 0.00132(10)
N2_3 N 0.37109(18) 0.97292(18) 0.00023(8)
N3_3 N 0.22609(18) 0.9778(2) 0.04897(9)
H3_3 H 0.2301 0.9399 0.9719
N10_3 N 0.02708(18) 0.87109(18) 0.99977(8)
Zn5_3 Zn 0.46150(2) 0.93051(3) 0.937520(11)
C11_3 C 0.9598(2) 0.2307(2) 0.00132(10)
N6_3 N 0.97292(18) 0.12891(18) 0.00023(8)
N7_2 N 0.9778(2) 0.27391(18) 0.04897(9)
H8_3 H 0.9399 0.2699 0.9719
Zn6_3 Zn 0.93051(3) 0.03850(2) 0.937520(11)
C5_4 C 0.2307(2) 0.5402(2) 0.00132(10)
C6_4 C 0.1894(2) 0.4957(2) 0.07892(10)
N1_4 N 0.10060(18) 0.49887(19) 0.05129(8)
N2_4 N 0.12891(18) 0.52708(18) 0.00023(8)
N3_4 N 0.27391(18) 0.5222(2) 0.04897(9)
N4_4 N 0.1954(2) 0.4688(3) 0.13008(10)
H4_4 H 0.1392 0.4521 0.1472
H5_4 H 0.2556 0.4683 0.1458
C11_4 C 0.5402(2) 0.2693(2) 0.00132(10)
C12_4 C 0.4957(2) 0.3106(2) 0.07892(10)
N5_4 N 0.49887(19) 0.39940(18) 0.05129(8)
N6_4 N 0.52708(18) 0.37109(18) 0.00023(8)
N8_4 N 0.4688(3) 0.3046(2) 0.13008(10)
H9_4 H 0.4521 0.3608 0.1472
H10_4 H 0.4683 0.2444 0.1458
H3_4 H 0.2699 0.5601 0.9719
H8_4 H 0.5601 0.2301 0.9719
N10_4 N 0.47292(18) 0.62891(18) 0.99977(8)
Zn5_4 Zn 0.03850(2) 0.56949(3) 0.937520(11)
Zn6_4 Zn 0.56949(3) 0.46150(2) 0.937520(11)
N9_4 N 0.87109(18) 0.47292(18) 0.99977(8)
C1_5 C 0.1077(3) 0.9293(3) 0.66109(13)
C2_5 C 0.1818(3) 0.9275(3) 0.70717(12)
C3_5 C 0.1431(3) 0.9261(4) 0.75773(14)
H1_5 H 0.0706 0.9248 0.7634
C4_5 C 0.2889(3) 0.9266(4) 0.69972(13)
H2_5 H 0.3160 0.9264 0.6655
O1_3 O 0.1474(2) 0.9485(2) 0.61610(9)
O2_5 O 0.01259(19) 0.91158(19) 0.66741(10)
C7_5 C 0.3923(3) 0.9293(3) 0.83891(13)
C8_5 C 0.3182(3) 0.9275(3) 0.79283(12)
C9_5 C 0.3569(3) 0.9261(4) 0.74227(14)
H6_5 H 0.4294 0.9248 0.7366
C10_5 C 0.2111(3) 0.9266(4) 0.80028(13)
H7_5 H 0.1840 0.9264 0.8345
O3_5 O 0.3526(2) 0.9485(2) 0.88390(9)
O4_5 O 0.48741(19) 0.91158(19) 0.83259(10)
N11_3 N 0.0222(2) 0.77391(18) 0.54897(9)
C5_5 C 0.7693(2) 0.0402(2) 0.50132(10)
H3_5 H 0.7301 0.0601 0.4719
N3_5 N 0.72609(18) 0.0222(2) 0.54897(9)
O5_3 O 0.5515(2) 0.1474(2) 0.61610(9)
C6_5 C 0.8106(2) 0.9957(2) 0.57892(10)
N1_5 N 0.89940(18) 0.99887(19) 0.55129(8)
N4_5 N 0.8046(2) 0.9688(3) 0.63008(10)
H4_5 H 0.8608 0.9521 0.6472
H5_5 H 0.7444 0.9683 0.6458
C11_5 C 0.4598(2) 0.7693(2) 0.50132(10)
H8_5 H 0.4399 0.7301 0.4719
C12_5 C 0.5043(2) 0.8106(2) 0.57892(10)
N5_5 N 0.50113(19) 0.89940(18) 0.55129(8)
N7_3 N 0.4778(2) 0.72609(18) 0.54897(9)
N8_5 N 0.5312(3) 0.8046(2) 0.63008(10)
H9_5 H 0.5479 0.8608 0.6472
H10_5 H 0.5317 0.7444 0.6458
C11_6 C 0.0402(2) 0.7307(2) 0.50132(10)
H8_6 H 0.0601 0.7699 0.4719
C1_6 C 0.3923(3) 0.5707(3) 0.66109(13)
C2_6 C 0.3182(3) 0.5725(3) 0.70717(12)
C3_6 C 0.3569(3) 0.5739(4) 0.75773(14)
H1_6 H 0.4294 0.5752 0.7634
C4_6 C 0.2111(3) 0.5734(4) 0.69972(13)
H2_6 H 0.1840 0.5736 0.6655
C5_6 C 0.7307(2) 0.4598(2) 0.50132(10)
H3_6 H 0.7699 0.4399 0.4719
C6_6 C 0.6894(2) 0.5043(2) 0.57892(10)
N1_6 N 0.60060(18) 0.50113(19) 0.55129(8)
N3_6 N 0.77391(18) 0.4778(2) 0.54897(9)
N4_6 N 0.6954(2) 0.5312(3) 0.63008(10)
H4_6 H 0.6392 0.5479 0.6472
H5_6 H 0.7556 0.5317 0.6458
O1_4 O 0.3526(2) 0.5515(2) 0.61610(9)
O2_6 O 0.48741(19) 0.58842(19) 0.66741(10)
C7_6 C 0.1077(3) 0.5707(3) 0.83891(13)
C8_6 C 0.1818(3) 0.5725(3) 0.79283(12)
C9_6 C 0.1431(3) 0.5739(4) 0.74227(14)
H6_6 H 0.0706 0.5752 0.7366
C10_6 C 0.2889(3) 0.5734(4) 0.80028(13)
H7_6 H 0.3160 0.5736 0.8345
O3_6 O 0.1474(2) 0.5515(2) 0.88390(9)
O4_6 O 0.01259(19) 0.58842(19) 0.83259(10)
C12_6 C 0.9957(2) 0.6894(2) 0.57892(10)
N5_6 N 0.99887(19) 0.60060(18) 0.55129(8)
N8_6 N 0.9688(3) 0.6954(2) 0.63008(10)
H9_6 H 0.9521 0.6392 0.6472
H10_6 H 0.9683 0.7556 0.6458
O5_4 O 0.9485(2) 0.3526(2) 0.61610(9)
C1_7 C 0.5707(3) 0.1077(3) 0.66109(13)
C2_7 C 0.5725(3) 0.1818(3) 0.70717(12)
C3_7 C 0.5739(4) 0.1431(3) 0.75773(14)
H1_7 H 0.5752 0.0706 0.7634
C4_7 C 0.5734(4) 0.2889(3) 0.69972(13)
H2_7 H 0.5736 0.3160 0.6655
O2_7 O 0.58842(19) 0.01259(19) 0.66741(10)
C7_7 C 0.5707(3) 0.3923(3) 0.83891(13)
C8_7 C 0.5725(3) 0.3182(3) 0.79283(12)
C9_7 C 0.5739(4) 0.3569(3) 0.74227(14)
H6_7 H 0.5752 0.4294 0.7366
C10_7 C 0.5734(4) 0.2111(3) 0.80028(13)
H7_7 H 0.5736 0.1840 0.8345
O3_7 O 0.5515(2) 0.3526(2) 0.88390(9)
O4_7 O 0.58842(19) 0.48741(19) 0.83259(10)
C1_8 C 0.9293(3) 0.3923(3) 0.66109(13)
C2_8 C 0.9275(3) 0.3182(3) 0.70717(12)
C3_8 C 0.9261(4) 0.3569(3) 0.75773(14)
H1_8 H 0.9248 0.4294 0.7634
C4_8 C 0.9266(4) 0.2111(3) 0.69972(13)
H2_8 H 0.9264 0.1840 0.6655
O2_8 O 0.91158(19) 0.48741(19) 0.66741(10)
C7_8 C 0.9293(3) 0.1077(3) 0.83891(13)
C8_8 C 0.9275(3) 0.1818(3) 0.79283(12)
C9_8 C 0.9261(4) 0.1431(3) 0.74227(14)
H6_8 H 0.9248 0.0706 0.7366
C10_8 C 0.9266(4) 0.2889(3) 0.80028(13)
H7_8 H 0.9264 0.3160 0.8345
O3_8 O 0.9485(2) 0.1474(2) 0.88390(9)
O4_8 O 0.91158(19) 0.01259(19) 0.83259(10)
H8_7 H 0.0601 0.7301 0.0281
C11_7 C 0.0402(2) 0.7693(2) 0.99868(10)
N7_4 N 0.0222(2) 0.72609(18) 0.95103(9)
H3_7 H 0.7699 0.0601 0.0281
C5_7 C 0.7307(2) 0.0402(2) 0.99868(10)
N3_7 N 0.77391(18) 0.0222(2) 0.95103(9)
C6_7 C 0.6894(2) 0.9957(2) 0.92108(10)
N1_7 N 0.60060(18) 0.99887(19) 0.94871(8)
N4_7 N 0.6954(2) 0.9688(3) 0.86992(10)
H4_7 H 0.6392 0.9521 0.8528
H5_7 H 0.7556 0.9683 0.8542
C12_7 C 0.9957(2) 0.8106(2) 0.92108(10)
N5_7 N 0.99887(19) 0.89940(18) 0.94871(8)
N8_7 N 0.9688(3) 0.8046(2) 0.86992(10)
H9_7 H 0.9521 0.8608 0.8528
H10_7 H 0.9683 0.7444 0.8542
N11_4 N 0.4778(2) 0.77391(18) 0.95103(9)
H3_8 H 0.7301 0.4399 0.0281
H8_8 H 0.4399 0.7699 0.0281
C5_8 C 0.7693(2) 0.4598(2) 0.99868(10)
C6_8 C 0.8106(2) 0.5043(2) 0.92108(10)
N1_8 N 0.89940(18) 0.50113(19) 0.94871(8)
N3_8 N 0.72609(18) 0.4778(2) 0.95103(9)
N4_8 N 0.8046(2) 0.5312(3) 0.86992(10)
H4_8 H 0.8608 0.5479 0.8528
H5_8 H 0.7444 0.5317 0.8542
C11_8 C 0.4598(2) 0.7307(2) 0.99868(10)
C12_8 C 0.5043(2) 0.6894(2) 0.92108(10)
N5_8 N 0.50113(19) 0.60060(18) 0.94871(8)
N8_8 N 0.5312(3) 0.6954(2) 0.86992(10)
H9_8 H 0.5479 0.6392 0.8528
H10_8 H 0.5317 0.7556 0.8542
loop_
_geom_bond_atom_site_label_1
_geom_bond_atom_site_label_2
_geom_bond_site_symmetry_1
_geom_bond_site_symmetry_2
C6 N1 1_555 1_555
N4 C6 1_555 1_555
H4 N4 1_555 1_555
H5 N4 1_555 1_555
C11 H8 1_555 1_555
C12 N5 1_555 1_555
N5 N6 1_555 1_555
N6 C11 1_555 1_555
N7 C11 1_555 1_555
N8 C12 1_555 1_555
H9 N8 1_555 1_555
H10 N8 1_555 1_555
Zn3 N7 1_555 1_555
Zn6 N6 1_555 1_555
C12 N7 1_555 1_555
C5 H3 1_555 1_555
N2 C5 1_555 1_555
N3 C5 1_555 1_555
Zn2 N3 1_555 1_555
N10 Zn2 1_555 1_555
O5 Zn2 1_555 1_555
Zn5 N2 1_555 1_555
C1 C2 1_555 1_555
C2 C3 1_555 1_555
C3 H1 1_555 1_555
C4 C2 1_555 1_555
H2 C4 1_555 1_555
O1 C1 1_555 1_555
O2 C1 1_555 1_555
C7 C8 1_555 1_555
C8 C9 1_555 1_555
C9 C4 1_555 1_555
H6 C9 1_555 1_555
C10 C3 1_555 1_555
H7 C10 1_555 1_555
O3 C7 1_555 1_555
O4 C7 1_555 1_555
N9 Zn1 1_555 1_555
N11 Zn1 1_555 1_555
Zn4 O3 1_555 1_555
O1 Zn1 1_555 1_555
C8 C10 1_555 1_555
C1_2 C2_2 1_555 1_555
C2_2 C3_2 1_555 1_555
C3_2 H1_2 1_555 1_555
C4_2 C2_2 1_555 1_555
H2_2 C4_2 1_555 1_555
C5_2 H3_2 1_555 1_555
C6_2 N1_2 1_555 1_555
N1_2 N2_2 1_555 1_555
N2_2 C5_2 1_555 1_555
N3_2 C5_2 1_555 1_555
N4_2 C6_2 1_555 1_555
H4_2 N4_2 1_555 1_555
H5_2 N4_2 1_555 1_555
O1_2 C1_2 1_555 1_555
O2_2 C1_2 1_555 1_555
Zn3 N1_2 1_555 1_555
C7_2 C8_2 1_555 1_555
C8_2 C9_2 1_555 1_555
C9_2 C4_2 1_555 1_555
H6_2 C9_2 1_555 1_555
C10_2 C3_2 1_555 1_555
H7_2 C10_2 1_555 1_555
O3_2 C7_2 1_555 1_555
O4_2 C7_2 1_555 1_555
C12_2 N5_2 1_555 1_555
N8_2 C12_2 1_555 1_555
H9_2 N8_2 1_555 1_555
H10_2 N8_2 1_555 1_555
Zn2_2 N3_2 1_555 1_555
N9_2 Zn3 1_555 1_555
N10_2 Zn2_2 1_555 1_555
O5_2 Zn2_2 1_555 1_555
Zn4_2 O3_2 1_555 1_555
Zn5_2 N2_2 1_555 1_555
C6_2 N3_2 1_555 1_555
O1_2 Zn3 1_555 1_555
C8_2 C10_2 1_555 1_555
N5_2 Zn2_2 1_555 1_555
C11_2 H8_2 1_555 1_555
N6_2 C11_2 1_555 1_555
N11 C11_2 1_555 1_555
Zn6_2 N6_2 1_555 1_555
C1_3 C2_3 1_555 1_555
C2_3 C3_3 1_555 1_555
C3_3 H1_3 1_555 1_555
C4_3 C2_3 1_555 1_555
H2_3 C4_3 1_555 1_555
O5 C1_3 1_555 1_555
O2_3 C1_3 1_555 1_555
C7_3 C8_3 1_555 1_555
C8_3 C9_3 1_555 1_555
C9_3 C4_3 1_555 1_555
H6_3 C9_3 1_555 1_555
C10_3 C3_3 1_555 1_555
H7_3 C10_3 1_555 1_555
O3_3 C7_3 1_555 1_555
O4_3 C7_3 1_555 1_555
Zn4_3 O3_3 1_555 1_555
C8_3 C10_3 1_555 1_555
C1_4 C2_4 1_555 1_555
C2_4 C3_4 1_555 1_555
C3_4 H1_4 1_555 1_555
C4_4 C2_4 1_555 1_555
H2_4 C4_4 1_555 1_555
O5_2 C1_4 1_555 1_555
O2_4 C1_4 1_555 1_555
C7_4 C8_4 1_555 1_555
C8_4 C9_4 1_555 1_555
C9_4 C4_4 1_555 1_555
H6_4 C9_4 1_555 1_555
C10_4 C3_4 1_555 1_555
H7_4 C10_4 1_555 1_555
O3_4 C7_4 1_555 1_555
O4_4 C7_4 1_555 1_555
Zn4_4 O3_4 1_555 1_555
C8_4 C10_4 1_555 1_555
C6_3 N1_3 1_555 1_555
N4_3 C6_3 1_555 1_555
H4_3 N4_3 1_555 1_555
H5_3 N4_3 1_555 1_555
Zn4 N1_3 1_555 1_555
C12_3 N5_3 1_555 1_555
N8_3 C12_3 1_555 1_555
H9_3 N8_3 1_555 1_555
H10_3 N8_3 1_555 1_555
N11_2 Zn4 1_555 1_555
N2_3 C5_3 1_555 1_555
N3_3 C5_3 1_555 1_555
Zn4_4 N3_3 1_555 1_555
N6_3 C11_3 1_555 1_555
N7_2 C11_3 1_555 1_555
Zn4_2 N7_2 1_555 1_555
C6_4 N1_4 1_555 1_555
N1_4 N2_4 1_555 1_555
N2_4 C5_4 1_555 1_555
N3_4 C5_4 1_555 1_555
N4_4 C6_4 1_555 1_555
H4_4 N4_4 1_555 1_555
H5_4 N4_4 1_555 1_555
C12_4 N5_4 1_555 1_555
N5_4 N6_4 1_555 1_555
N6_4 C11_4 1_555 1_555
N11_2 C11_4 1_555 1_555
N8_4 C12_4 1_555 1_555
H9_4 N8_4 1_555 1_555
H10_4 N8_4 1_555 1_555
Zn4_3 N3_4 1_555 1_555
C6_4 N3_4 1_555 1_555
C12_4 N11_2 1_555 1_555
N5_4 Zn4_3 1_555 1_555
C1_5 C2_5 1_555 1_555
C2_5 C3_5 1_555 1_555
C3_5 H1_5 1_555 1_555
C4_5 C2_5 1_555 1_555
H2_5 C4_5 1_555 1_555
O1_3 C1_5 1_555 1_555
O2_5 C1_5 1_555 1_555
C7_5 C8_5 1_555 1_555
C8_5 C9_5 1_555 1_555
C9_5 C4_5 1_555 1_555
H6_5 C9_5 1_555 1_555
C10_5 C3_5 1_555 1_555
H7_5 C10_5 1_555 1_555
O3_5 C7_5 1_555 1_555
O4_5 C7_5 1_555 1_555
N11_3 Zn5 1_555 1_555
Zn5_3 O3_5 1_555 1_555
O1_3 Zn5 1_555 1_555
C8_5 C10_5 1_555 1_555
C5_5 H3_5 1_555 1_555
N9 C5_5 1_555 1_555
N3_5 C5_5 1_555 1_555
Zn6 N3_5 1_555 1_555
O5_3 Zn6 1_555 1_555
C6_5 N1_5 1_555 1_555
N4_5 C6_5 1_555 1_555
H4_5 N4_5 1_555 1_555
H5_5 N4_5 1_555 1_555
C11_5 H8_5 1_555 1_555
C12_5 N5_5 1_555 1_555
N5_5 N10 1_555 1_555
N10 C11_5 1_555 1_555
N7_3 C11_5 1_555 1_555
N8_5 C12_5 1_555 1_555
H9_5 N8_5 1_555 1_555
H10_5 N8_5 1_555 1_555
Zn5_2 N7_3 1_555 1_555
C12_5 N7_3 1_555 1_555
C11_6 H8_6 1_555 1_555
N10_2 C11_6 1_555 1_555
N11_3 C11_6 1_555 1_555
C1_6 C2_6 1_555 1_555
C2_6 C3_6 1_555 1_555
C3_6 H1_6 1_555 1_555
C4_6 C2_6 1_555 1_555
H2_6 C4_6 1_555 1_555
C5_6 H3_6 1_555 1_555
C6_6 N1_6 1_555 1_555
N1_6 N9_2 1_555 1_555
N9_2 C5_6 1_555 1_555
N3_6 C5_6 1_555 1_555
N4_6 C6_6 1_555 1_555
H4_6 N4_6 1_555 1_555
H5_6 N4_6 1_555 1_555
O1_4 C1_6 1_555 1_555
O2_6 C1_6 1_555 1_555
Zn5_2 N1_6 1_555 1_555
C7_6 C8_6 1_555 1_555
C8_6 C9_6 1_555 1_555
C9_6 C4_6 1_555 1_555
H6_6 C9_6 1_555 1_555
C10_6 C3_6 1_555 1_555
H7_6 C10_6 1_555 1_555
O3_6 C7_6 1_555 1_555
O4_6 C7_6 1_555 1_555
C12_6 N5_6 1_555 1_555
N8_6 C12_6 1_555 1_555
H9_6 N8_6 1_555 1_555
H10_6 N8_6 1_555 1_555
Zn6_2 N3_6 1_555 1_555
O5_4 Zn6_2 1_555 1_555
Zn5_4 O3_6 1_555 1_555
C6_6 N3_6 1_555 1_555
O1_4 Zn5_2 1_555 1_555
C8_6 C10_6 1_555 1_555
N5_6 Zn6_2 1_555 1_555
C1_7 C2_7 1_555 1_555
C2_7 C3_7 1_555 1_555
C3_7 H1_7 1_555 1_555
C4_7 C2_7 1_555 1_555
H2_7 C4_7 1_555 1_555
O5_3 C1_7 1_555 1_555
O2_7 C1_7 1_555 1_555
C7_7 C8_7 1_555 1_555
C8_7 C9_7 1_555 1_555
C9_7 C4_7 1_555 1_555
H6_7 C9_7 1_555 1_555
C10_7 C3_7 1_555 1_555
H7_7 C10_7 1_555 1_555
O3_7 C7_7 1_555 1_555
O4_7 C7_7 1_555 1_555
Zn6_4 O3_7 1_555 1_555
C8_7 C10_7 1_555 1_555
C1_8 C2_8 1_555 1_555
C2_8 C3_8 1_555 1_555
C3_8 H1_8 1_555 1_555
C4_8 C2_8 1_555 1_555
H2_8 C4_8 1_555 1_555
O5_4 C1_8 1_555 1_555
O2_8 C1_8 1_555 1_555
C7_8 C8_8 1_555 1_555
C8_8 C9_8 1_555 1_555
C9_8 C4_8 1_555 1_555
H6_8 C9_8 1_555 1_555
C10_8 C3_8 1_555 1_555
H7_8 C10_8 1_555 1_555
O3_8 C7_8 1_555 1_555
O4_8 C7_8 1_555 1_555
Zn6_3 O3_8 1_555 1_555
C8_8 C10_8 1_555 1_555
N10_3 C11_7 1_555 1_555
N7_4 C11_7 1_555 1_555
Zn5_4 N7_4 1_555 1_555
N9_3 C5_7 1_555 1_555
N3_7 C5_7 1_555 1_555
Zn6_3 N3_7 1_555 1_555
C6_7 N1_7 1_555 1_555
N4_7 C6_7 1_555 1_555
H4_7 N4_7 1_555 1_555
H5_7 N4_7 1_555 1_555
Zn5_3 N1_7 1_555 1_555
C12_7 N5_7 1_555 1_555
N8_7 C12_7 1_555 1_555
H9_7 N8_7 1_555 1_555
H10_7 N8_7 1_555 1_555
N11_4 Zn5_3 1_555 1_555
C6_8 N1_8 1_555 1_555
N1_8 N9_4 1_555 1_555
N9_4 C5_8 1_555 1_555
N3_8 C5_8 1_555 1_555
N4_8 C6_8 1_555 1_555
H4_8 N4_8 1_555 1_555
H5_8 N4_8 1_555 1_555
C12_8 N5_8 1_555 1_555
N5_8 N10_4 1_555 1_555
N10_4 C11_8 1_555 1_555
N11_4 C11_8 1_555 1_555
N8_8 C12_8 1_555 1_555
H9_8 N8_8 1_555 1_555
H10_8 N8_8 1_555 1_555
Zn6_4 N3_8 1_555 1_555
C6_8 N3_8 1_555 1_555
C12_8 N11_4 1_555 1_555
N5_8 Zn6_4 1_555 1_555

#END
