
###############################################################################
#
# This file contains modified crystal structure data generated from the
# MOF subset of the Cambridge Structural Database (CSD) v543 
# hosted by the Cambridge Crystallographic Data Centre (CCDC).
#
# This work is licensed under the Creative Commons
# Attribution-NonCommercial-ShareAlike 4.0 International License.
# To view a copy of this license, visit
# http://creativecommons.org/licenses/by-nc-sa/4.0/
# or send a letter to
# Creative Commons, PO Box 1866, Mountain View, CA 94042, USA.
#
# CIF created using the CSD Python API on 29 September 2022
# The structure has been converted into the P1 space group
# The structure has a 3D framework
# The original CSD entry BETYEH is in the triclinic crystal system
# The framework has been calculated to contain at least 10.0% void space
# The void calculation uses a probe of radius 1.32A, grid spacing 0.4
#
###############################################################################

data_BETYEH
_chemical_formula_moiety         '(C132 H80 Cd2 N4 O24 Zn4)n'
_symmetry_cell_setting           triclinic
_symmetry_space_group_name_H-M   'P 1'
_symmetry_Int_Tables_number      1
_space_group_name_Hall           'P 1'
loop_
_symmetry_equiv_pos_site_id
_symmetry_equiv_pos_as_xyz
1 x,y,z
_cell_length_a                   16.3212(4)
_cell_length_b                   16.5806(3)
_cell_length_c                   20.1401(5)
_cell_angle_alpha                94.638(2)
_cell_angle_beta                 97.558(2)
_cell_angle_gamma                118.903(2)
_cell_volume                     4663.92
loop_
_atom_site_label
_atom_site_type_symbol
_atom_site_fract_x
_atom_site_fract_y
_atom_site_fract_z
Cd6 Cd 0.37708(2) 0.07498(2) 0.22112(2)
Zn4 Zn 0.34508(2) 0.04372(2) 0.04574(2)
O4 O 0.24978(9) 0.07185(9) 0.15680(7)
O5 O 0.26670(10) 0.91595(9) 0.05807(7)
O6 O 0.29714(10) 0.12802(9) 0.06297(7)
O8 O 0.36257(9) 0.94526(8) 0.15836(7)
C1 C 0.24149(13) 0.78878(12) 0.11327(10)
C6 C 0.11617(14) 0.28570(13) 0.11816(10)
C7 C 0.20435(13) 0.17720(13) 0.11413(10)
C9 C 0.12446(14) 0.44080(13) 0.12046(11)
H4 H 0.1905 0.4685 0.1194
C12 C 0.25402(13) 0.12185(13) 0.11215(10)
C13 C 0.27989(14) 0.74872(13) 0.15632(10)
H6 H 0.3410 0.7869 0.1846
C14 C 0.07170(14) 0.34532(13) 0.12137(11)
C15 C 0.29465(13) 0.89076(12) 0.11088(10)
C16 C 0.09300(14) 0.21330(13) 0.15674(10)
H7 H 0.0464 0.2005 0.1842
C17 C 0.10021(14) 0.63800(13) 0.07550(10)
H8 H 0.0382 0.6004 0.0482
C18 C 0.15129(14) 0.73229(13) 0.07241(10)
H9 H 0.1248 0.7587 0.0423
C20 C 0.13773(14) 0.16057(13) 0.15498(10)
H10 H 0.1226 0.1127 0.1820
C23 C 0.22607(15) 0.24648(14) 0.07496(11)
H11 H 0.2701 0.2565 0.0458
C24 C 0.13868(14) 0.59753(13) 0.11828(10)
C37 C 0.08214(14) 0.49652(13) 0.12108(10)
C43 C 0.23001(14) 0.65386(14) 0.15833(11)
H21 H 0.2578 0.6270 0.1869
C47 C 0.18381(15) 0.30222(14) 0.07784(11)
H25 H 0.2014 0.3516 0.0521
Zn7 Zn 0.40966(2) 0.10293(2) 0.39603(2)
O13 O 0.49395(9) 0.18324(9) 0.17257(7)
O14 O 0.50791(9) 0.08416(9) 0.28774(7)
O20 O 0.38424(10) 0.20178(9) 0.28204(7)
O17 O 0.26775(9) 0.95975(9) 0.27108(7)
O1 O 0.48027(9) 0.09587(9) 0.07662(7)
C2 C 0.52833(13) 0.16318(12) 0.12649(9)
C3 C 0.63215(13) 0.21838(12) 0.12621(10)
C4 C 0.67101(14) 0.18353(13) 0.08225(10)
H1 H 0.6302 0.1269 0.0514
C5 C 0.78874(14) 0.35278(13) 0.16696(10)
H2 H 0.8285 0.4125 0.1943
C8 C 0.98603(14) 0.45614(13) 0.12420(10)
H3 H 0.9571 0.4939 0.1256
C10 C 0.93114(14) 0.35981(13) 0.12536(10)
C21 C 0.82771(14) 0.31434(13) 0.12509(10)
C26 C 0.69216(14) 0.30362(13) 0.16851(10)
H13 H 0.6668 0.3285 0.1988
C27 C 0.76729(14) 0.22960(13) 0.08266(10)
H14 H 0.7926 0.2032 0.0536
C48 C 0.97513(14) 0.30600(13) 0.12358(10)
H26 H 0.9384 0.2408 0.1239
O9 O 0.34967(10) 0.96830(9) 0.37236(7)
O11 O 0.32761(10) 0.15365(10) 0.37505(7)
N1 N 0.34874(13) 0.04973(12) 0.94590(8)
N2 N 0.41789(13) 0.11169(13) 0.49780(9)
C11 C 0.14476(14) 0.76214(13) 0.27372(10)
H5 H 0.1155 0.7881 0.2456
C22 C 0.33650(13) 0.19955(13) 0.32637(10)
C25 C 0.01972(14) 0.33390(14) 0.31746(11)
C28 C 0.15381(14) 0.48203(14) 0.31075(11)
H15 H 0.2189 0.5188 0.3077
C30 C 0.28690(13) 0.92373(13) 0.31846(10)
C31 C 0.09860(14) 0.66647(14) 0.27316(11)
H17 H 0.0368 0.6280 0.2458
C32 C 0.11631(15) 0.38757(14) 0.31508(11)
C33 C 0.21424(15) 0.23197(14) 0.36383(11)
H18 H 0.2033 0.1869 0.3929
C34 C 0.28429(14) 0.25345(13) 0.32451(10)
C35 C 0.14106(14) 0.62565(14) 0.31201(11)
C39 C 0.09662(15) 0.52302(14) 0.31086(11)
C40 C 0.23330(14) 0.81993(13) 0.31503(10)
C42 C 0.00040(14) 0.46845(14) 0.31386(11)
C44 C 0.16086(15) 0.27591(15) 0.36058(12)
H22 H 0.1123 0.2598 0.3866
C45 C 0.41998(16) 0.05025(14) 0.91908(11)
H23 H 0.4670 0.0429 0.9468
C46 C 0.30284(14) 0.32207(14) 0.28436(10)
H24 H 0.3512 0.3377 0.2581
C49 C 0.27538(17) 0.77987(15) 0.35564(13)
H27 H 0.3351 0.8187 0.3854
C51 C 0.25035(14) 0.36814(14) 0.28255(11)
H28 H 0.2645 0.4164 0.2560
C52 C 0.17780(15) 0.34429(14) 0.31906(11)
C53 C 0.42703(18) 0.06109(16) 0.85278(12)
H29 H 0.4775 0.0600 0.8347
C56 C 0.28391(19) 0.06196(19) 0.90662(12)
H32 H 0.2332 0.0614 0.9253
C57 C 0.3584(2) 0.07387(18) 0.81186(12)
C58 C 0.23035(17) 0.68415(16) 0.35254(14)
H33 H 0.2612 0.6578 0.3787
C59 C 0.4730(2) 0.0750(2) 0.60032(13)
H34 H 0.5125 0.0541 0.6228
C60 C 0.4160(2) 0.09301(18) 0.63324(13)
C61 C 0.3582(2) 0.0875(2) 0.73945(15)
H35 H 0.3123 0.1011 0.7173
C62 C 0.4173(2) 0.08179(19) 0.70557(14)
H36 H 0.4642 0.0697 0.7281
C63 C 0.3605(2) 0.1292(2) 0.52905(14)
H37 H 0.3217 0.1495 0.5049
C64 C 0.47388(19) 0.0870(2) 0.53408(13)
H38 H 0.5173 0.0770 0.5125
C65 C 0.2881(2) 0.0753(2) 0.84020(13)
H39 H 0.2418 0.0854 0.8143
C66 C 0.3557(3) 0.1186(2) 0.59702(16)
H40 H 0.3120 0.1287 0.6181
O21 O 0.54105(10) 0.17466(10) 0.38688(7)
C19 C 0.85962(15) 0.31562(14) 0.32140(11)
H12 H 0.9935 0.2693 0.3196
C29 C 0.70758(14) 0.17259(13) 0.28688(11)
H16 H 0.6692 0.1129 0.2592
C36 C 0.66762(14) 0.20637(13) 0.33012(11)
C38 C 0.56451(13) 0.15048(13) 0.33401(10)
C41 C 0.80274(14) 0.22514(14) 0.28376(11)
H19 H 0.8301 0.1998 0.2558
H20 H 0.9613 0.4962 0.3139
C50 C 0.96115(15) 0.37304(14) 0.31682(11)
C54 C 0.72428(15) 0.29489(14) 0.36964(12)
H30 H 0.6981 0.3176 0.4007
C55 C 0.81865(15) 0.34976(15) 0.36375(12)
H31 H 0.8556 0.4113 0.3889
O3 O 0.49209(9) 0.91584(9) 0.71226(7)
O12 O 0.45895(10) 0.82534(10) 0.61312(7)
C19_2 C 0.14038(15) 0.68438(14) 0.67860(11)
H12_2 H 0.0065 0.7307 0.6804
C29_2 C 0.29242(14) 0.82741(13) 0.71312(11)
H16_2 H 0.3308 0.8871 0.7408
C36_2 C 0.33238(14) 0.79363(13) 0.66988(11)
C38_2 C 0.43549(13) 0.84952(13) 0.66599(10)
C41_2 C 0.19726(14) 0.77486(14) 0.71624(11)
H19_2 H 0.1699 0.8002 0.7442
H20_2 H 0.0387 0.5038 0.6861
C50_2 C 0.03885(15) 0.62696(14) 0.68318(11)
C54_2 C 0.27572(15) 0.70511(14) 0.63036(12)
H30_2 H 0.3019 0.6824 0.5993
C55_2 C 0.18135(15) 0.65024(15) 0.63625(12)
H31_2 H 0.1444 0.5887 0.6111
Cd2 Cd 0.62292(2) 0.92502(2) 0.77888(2)
Zn5 Zn 0.59034(2) 0.89707(2) 0.60397(2)
O19 O 0.65033(10) 0.03170(9) 0.62764(7)
O15 O 0.73330(10) 0.08405(9) 0.94193(7)
O7 O 0.73225(9) 0.04025(9) 0.72892(7)
O10 O 0.61576(10) 0.79822(9) 0.71796(7)
O11_2 O 0.67239(10) 0.84635(10) 0.62495(7)
N1_2 N 0.65126(13) 0.95027(12) 0.05410(8)
N2_2 N 0.58211(13) 0.88831(13) 0.50220(9)
C11_2 C 0.85524(14) 0.23786(13) 0.72628(10)
H5_2 H 0.8845 0.2119 0.7544
C22_2 C 0.66350(13) 0.80045(13) 0.67363(10)
C25_2 C 0.98028(14) 0.66610(14) 0.68254(11)
C28_2 C 0.84619(14) 0.51797(14) 0.68925(11)
H15_2 H 0.7811 0.4812 0.6923
C30_2 C 0.71310(13) 0.07627(13) 0.68154(10)
C31_2 C 0.90140(14) 0.33353(14) 0.72684(11)
H17_2 H 0.9632 0.3720 0.7542
C32_2 C 0.88369(15) 0.61243(14) 0.68492(11)
C33_2 C 0.78576(15) 0.76803(14) 0.63617(11)
H18_2 H 0.7967 0.8131 0.6071
C34_2 C 0.71571(14) 0.74655(13) 0.67549(10)
C35_2 C 0.85894(14) 0.37435(14) 0.68799(11)
C39_2 C 0.90338(15) 0.47698(14) 0.68914(11)
C40_2 C 0.76670(14) 0.18007(13) 0.68497(10)
C42_2 C 0.99960(14) 0.53155(14) 0.68614(11)
C44_2 C 0.83914(15) 0.72409(15) 0.63942(12)
H22_2 H 0.8877 0.7402 0.6134
C45_2 C 0.58002(16) 0.94975(14) 0.08092(11)
H23_2 H 0.5330 0.9571 0.0532
C46_2 C 0.69716(14) 0.67793(14) 0.71564(10)
H24_2 H 0.6488 0.6623 0.7419
C49_2 C 0.72462(17) 0.22013(15) 0.64436(13)
H27_2 H 0.6649 0.1813 0.6146
C51_2 C 0.74965(14) 0.63186(14) 0.71745(11)
H28_2 H 0.7355 0.5836 0.7440
C52_2 C 0.82220(15) 0.65571(14) 0.68094(11)
C53_2 C 0.57297(18) 0.93891(16) 0.14722(12)
H29_2 H 0.5225 0.9400 0.1653
C56_2 C 0.71609(19) 0.93804(19) 0.09338(12)
H32_2 H 0.7668 0.9386 0.0747
C57_2 C 0.6416(2) 0.92613(18) 0.18814(12)
C58_2 C 0.76965(17) 0.31585(16) 0.64746(14)
H33_2 H 0.7388 0.3422 0.6213
C59_2 C 0.5270(2) 0.9250(2) 0.39968(13)
H34_2 H 0.4875 0.9459 0.3772
C60_2 C 0.5840(2) 0.90699(18) 0.36676(13)
C61_2 C 0.6418(2) 0.9125(2) 0.26055(15)
H35_2 H 0.6877 0.8989 0.2827
C62_2 C 0.5827(2) 0.91821(19) 0.29443(14)
H36_2 H 0.5358 0.9303 0.2719
C63_2 C 0.6395(2) 0.8708(2) 0.47095(14)
H37_2 H 0.6783 0.8505 0.4951
C64_2 C 0.52612(19) 0.9130(2) 0.46592(13)
H38_2 H 0.4827 0.9230 0.4875
C65_2 C 0.7119(2) 0.9247(2) 0.15980(13)
H39_2 H 0.7582 0.9146 0.1857
C66_2 C 0.6443(3) 0.8814(2) 0.40298(16)
H40_2 H 0.6880 0.8713 0.3819
Zn1 Zn 0.65492(2) 0.95628(2) 0.95426(2)
O1_2 O 0.51973(9) 0.90413(9) 0.92338(7)
O2 O 0.50605(9) 0.81676(9) 0.82743(7)
C2_2 C 0.47167(13) 0.83682(12) 0.87351(9)
C3_2 C 0.36785(13) 0.78162(12) 0.87379(10)
C4_2 C 0.32899(14) 0.81647(13) 0.91775(10)
H1_2 H 0.3698 0.8731 0.9486
C5_2 C 0.21126(14) 0.64722(13) 0.83304(10)
H2_2 H 0.1715 0.5875 0.8057
C8_2 C 0.01397(14) 0.54386(13) 0.87580(10)
H3_2 H 0.0429 0.5061 0.8744
C10_2 C 0.06886(14) 0.64019(13) 0.87464(10)
C21_2 C 0.17229(14) 0.68566(13) 0.87491(10)
C26_2 C 0.30784(14) 0.69638(13) 0.83149(10)
H13_2 H 0.3332 0.6715 0.8012
C27_2 C 0.23271(14) 0.77040(13) 0.91734(10)
H14_2 H 0.2074 0.7968 0.9464
C48_2 C 0.02487(14) 0.69400(13) 0.87642(10)
H26_2 H 0.0616 0.7592 0.8761
O16 O 0.70286(10) 0.87198(9) 0.93703(7)
O18 O 0.63743(9) 0.05474(8) 0.84164(7)
O4_2 O 0.75022(9) 0.92815(9) 0.84320(7)
C1_2 C 0.75851(13) 0.21122(12) 0.88673(10)
C6_2 C 0.88383(14) 0.71430(13) 0.88184(10)
C7_2 C 0.79565(13) 0.82280(13) 0.88587(10)
C9_2 C 0.87554(14) 0.55920(13) 0.87954(11)
H4_2 H 0.8095 0.5315 0.8806
C12_2 C 0.74598(13) 0.87815(13) 0.88785(10)
C13_2 C 0.72011(14) 0.25128(13) 0.84368(10)
H6_2 H 0.6590 0.2131 0.8154
C14_2 C 0.92830(14) 0.65468(13) 0.87863(11)
C15_2 C 0.70535(13) 0.10924(12) 0.88912(10)
C16_2 C 0.90700(14) 0.78670(13) 0.84326(10)
H7_2 H 0.9536 0.7995 0.8158
C17_2 C 0.89979(14) 0.36200(13) 0.92450(10)
H8_2 H 0.9618 0.3996 0.9518
C18_2 C 0.84871(14) 0.26771(13) 0.92759(10)
H9_2 H 0.8752 0.2413 0.9577
C20_2 C 0.86227(14) 0.83943(13) 0.84502(10)
H10_2 H 0.8774 0.8873 0.8180
C23_2 C 0.77393(15) 0.75352(14) 0.92504(11)
H11_2 H 0.7299 0.7435 0.9542
C24_2 C 0.86132(14) 0.40247(13) 0.88172(10)
C37_2 C 0.91786(14) 0.50348(13) 0.87892(10)
C43_2 C 0.76999(14) 0.34614(14) 0.84167(11)
H21_2 H 0.7422 0.3730 0.8131
C47_2 C 0.81619(15) 0.69778(14) 0.92216(11)
H25_2 H 0.7986 0.6484 0.9479
loop_
_geom_bond_atom_site_label_1
_geom_bond_atom_site_label_2
_geom_bond_site_symmetry_1
_geom_bond_site_symmetry_2
Cd6 Zn4 1_555 1_555
Cd6 O4 1_555 1_555
O4 C12 1_555 1_555
O5 C15 1_555 1_555
O6 C12 1_555 1_555
O8 C15 1_555 1_555
C1 C13 1_555 1_555
C6 C14 1_555 1_555
C7 C12 1_555 1_555
C9 H4 1_555 1_555
C13 H6 1_555 1_555
C14 C9 1_555 1_555
C15 C1 1_555 1_555
C16 C6 1_555 1_555
H7 C16 1_555 1_555
C17 H8 1_555 1_555
C18 C1 1_555 1_555
H9 C18 1_555 1_555
C20 C7 1_555 1_555
H10 C20 1_555 1_555
C23 C7 1_555 1_555
H11 C23 1_555 1_555
C24 C17 1_555 1_555
C43 C13 1_555 1_555
H21 C43 1_555 1_555
C47 C6 1_555 1_555
H25 C47 1_555 1_555
Zn7 Cd6 1_555 1_555
O13 Cd6 1_555 1_555
O14 Cd6 1_555 1_555
O20 Cd6 1_555 1_555
O6 Zn4 1_555 1_555
C9 C37 1_555 1_555
C16 C20 1_555 1_555
C17 C18 1_555 1_555
C23 C47 1_555 1_555
C24 C37 1_555 1_555
C24 C43 1_555 1_555
Zn4 O1 1_555 1_555
O1 C2 1_555 1_555
O13 C2 1_555 1_555
C2 C3 1_555 1_555
C3 C4 1_555 1_555
C4 H1 1_555 1_555
C5 H2 1_555 1_555
C8 H3 1_555 1_555
C10 C8 1_555 1_555
C21 C5 1_555 1_555
C26 C3 1_555 1_555
H13 C26 1_555 1_555
C27 C4 1_555 1_555
H14 C27 1_555 1_555
C48 C10 1_555 1_555
H26 C48 1_555 1_555
C5 C26 1_555 1_555
C10 C21 1_555 1_555
C21 C27 1_555 1_555
Zn7 O11 1_555 1_555
O17 C30 1_555 1_555
O9 C30 1_555 1_555
O20 C22 1_555 1_555
O11 C22 1_555 1_555
N2 Zn7 1_555 1_555
C11 H5 1_555 1_555
C22 C34 1_555 1_555
C28 H15 1_555 1_555
C30 C40 1_555 1_555
C31 C11 1_555 1_555
H17 C31 1_555 1_555
C32 C25 1_555 1_555
C33 H18 1_555 1_555
C34 C33 1_555 1_555
C35 C31 1_555 1_555
C39 C28 1_555 1_555
C40 C11 1_555 1_555
C42 C39 1_555 1_555
C44 C33 1_555 1_555
H22 C44 1_555 1_555
C45 N1 1_555 1_555
H23 C45 1_555 1_555
C46 C34 1_555 1_555
H24 C46 1_555 1_555
C49 C40 1_555 1_555
H27 C49 1_555 1_555
C51 C46 1_555 1_555
H28 C51 1_555 1_555
C52 C32 1_555 1_555
C53 C45 1_555 1_555
H29 C53 1_555 1_555
C56 N1 1_555 1_555
H32 C56 1_555 1_555
C57 C53 1_555 1_555
C58 C35 1_555 1_555
H33 C58 1_555 1_555
C59 H34 1_555 1_555
C60 C59 1_555 1_555
C61 C57 1_555 1_555
H35 C61 1_555 1_555
C62 C60 1_555 1_555
H36 C62 1_555 1_555
C63 N2 1_555 1_555
H37 C63 1_555 1_555
C64 N2 1_555 1_555
H38 C64 1_555 1_555
C65 C56 1_555 1_555
H39 C65 1_555 1_555
C66 C60 1_555 1_555
H40 C66 1_555 1_555
O21 Zn7 1_555 1_555
C28 C32 1_555 1_555
C35 C39 1_555 1_555
C44 C52 1_555 1_555
C49 C58 1_555 1_555
C51 C52 1_555 1_555
C57 C65 1_555 1_555
C59 C64 1_555 1_555
C61 C62 1_555 1_555
C63 C66 1_555 1_555
O14 C38 1_555 1_555
O21 C38 1_555 1_555
C19 C41 1_555 1_555
C29 H16 1_555 1_555
C36 C29 1_555 1_555
C38 C36 1_555 1_555
C41 C29 1_555 1_555
H19 C41 1_555 1_555
C50 C19 1_555 1_555
C54 C36 1_555 1_555
H30 C54 1_555 1_555
C55 C19 1_555 1_555
H31 C55 1_555 1_555
C54 C55 1_555 1_555
O3 C38_2 1_555 1_555
O12 C38_2 1_555 1_555
C19_2 C41_2 1_555 1_555
C29_2 H16_2 1_555 1_555
C36_2 C29_2 1_555 1_555
C38_2 C36_2 1_555 1_555
C41_2 C29_2 1_555 1_555
H19_2 C41_2 1_555 1_555
C50_2 C19_2 1_555 1_555
C54_2 C36_2 1_555 1_555
H30_2 C54_2 1_555 1_555
C55_2 C19_2 1_555 1_555
H31_2 C55_2 1_555 1_555
Cd2 O3 1_555 1_555
Zn5 O12 1_555 1_555
C54_2 C55_2 1_555 1_555
Cd2 Zn5 1_555 1_555
Zn5 O11_2 1_555 1_555
O7 C30_2 1_555 1_555
O19 C30_2 1_555 1_555
O10 C22_2 1_555 1_555
O11_2 C22_2 1_555 1_555
N2_2 Zn5 1_555 1_555
C11_2 H5_2 1_555 1_555
C22_2 C34_2 1_555 1_555
C28_2 H15_2 1_555 1_555
C30_2 C40_2 1_555 1_555
C31_2 C11_2 1_555 1_555
H17_2 C31_2 1_555 1_555
C32_2 C25_2 1_555 1_555
C33_2 H18_2 1_555 1_555
C34_2 C33_2 1_555 1_555
C35_2 C31_2 1_555 1_555
C39_2 C28_2 1_555 1_555
C40_2 C11_2 1_555 1_555
C42_2 C39_2 1_555 1_555
C44_2 C33_2 1_555 1_555
H22_2 C44_2 1_555 1_555
C45_2 N1_2 1_555 1_555
H23_2 C45_2 1_555 1_555
C46_2 C34_2 1_555 1_555
H24_2 C46_2 1_555 1_555
C49_2 C40_2 1_555 1_555
H27_2 C49_2 1_555 1_555
C51_2 C46_2 1_555 1_555
H28_2 C51_2 1_555 1_555
C52_2 C32_2 1_555 1_555
C53_2 C45_2 1_555 1_555
H29_2 C53_2 1_555 1_555
C56_2 N1_2 1_555 1_555
H32_2 C56_2 1_555 1_555
C57_2 C53_2 1_555 1_555
C58_2 C35_2 1_555 1_555
H33_2 C58_2 1_555 1_555
C59_2 H34_2 1_555 1_555
C60_2 C59_2 1_555 1_555
C61_2 C57_2 1_555 1_555
H35_2 C61_2 1_555 1_555
C62_2 C60_2 1_555 1_555
H36_2 C62_2 1_555 1_555
C63_2 N2_2 1_555 1_555
H37_2 C63_2 1_555 1_555
C64_2 N2_2 1_555 1_555
H38_2 C64_2 1_555 1_555
C65_2 C56_2 1_555 1_555
H39_2 C65_2 1_555 1_555
C66_2 C60_2 1_555 1_555
H40_2 C66_2 1_555 1_555
O10 Cd2 1_555 1_555
C28_2 C32_2 1_555 1_555
C35_2 C39_2 1_555 1_555
C44_2 C52_2 1_555 1_555
C49_2 C58_2 1_555 1_555
C51_2 C52_2 1_555 1_555
C57_2 C65_2 1_555 1_555
C59_2 C64_2 1_555 1_555
C61_2 C62_2 1_555 1_555
C63_2 C66_2 1_555 1_555
Zn1 O1_2 1_555 1_555
O1_2 C2_2 1_555 1_555
O2 C2_2 1_555 1_555
C2_2 C3_2 1_555 1_555
C3_2 C4_2 1_555 1_555
C4_2 H1_2 1_555 1_555
C5_2 H2_2 1_555 1_555
C8_2 H3_2 1_555 1_555
C10_2 C8_2 1_555 1_555
C21_2 C5_2 1_555 1_555
C26_2 C3_2 1_555 1_555
H13_2 C26_2 1_555 1_555
C27_2 C4_2 1_555 1_555
H14_2 C27_2 1_555 1_555
C48_2 C10_2 1_555 1_555
H26_2 C48_2 1_555 1_555
Cd2 Zn1 1_555 1_555
O16 Zn1 1_555 1_555
O2 Cd2 1_555 1_555
C5_2 C26_2 1_555 1_555
C10_2 C21_2 1_555 1_555
C21_2 C27_2 1_555 1_555
Cd2 O4_2 1_555 1_555
O4_2 C12_2 1_555 1_555
O15 C15_2 1_555 1_555
O16 C12_2 1_555 1_555
O18 C15_2 1_555 1_555
C1_2 C13_2 1_555 1_555
C6_2 C14_2 1_555 1_555
C7_2 C12_2 1_555 1_555
C9_2 H4_2 1_555 1_555
C13_2 H6_2 1_555 1_555
C14_2 C9_2 1_555 1_555
C15_2 C1_2 1_555 1_555
C16_2 C6_2 1_555 1_555
H7_2 C16_2 1_555 1_555
C17_2 H8_2 1_555 1_555
C18_2 C1_2 1_555 1_555
H9_2 C18_2 1_555 1_555
C20_2 C7_2 1_555 1_555
H10_2 C20_2 1_555 1_555
C23_2 C7_2 1_555 1_555
H11_2 C23_2 1_555 1_555
C24_2 C17_2 1_555 1_555
C43_2 C13_2 1_555 1_555
H21_2 C43_2 1_555 1_555
C47_2 C6_2 1_555 1_555
H25_2 C47_2 1_555 1_555
C9_2 C37_2 1_555 1_555
C16_2 C20_2 1_555 1_555
C17_2 C18_2 1_555 1_555
C23_2 C47_2 1_555 1_555
C24_2 C37_2 1_555 1_555
C24_2 C43_2 1_555 1_555

#END
