
###############################################################################
#
# This file contains modified crystal structure data generated from the
# MOF subset of the Cambridge Structural Database (CSD) v543 
# hosted by the Cambridge Crystallographic Data Centre (CCDC).
#
# This work is licensed under the Creative Commons
# Attribution-NonCommercial-ShareAlike 4.0 International License.
# To view a copy of this license, visit
# http://creativecommons.org/licenses/by-nc-sa/4.0/
# or send a letter to
# Creative Commons, PO Box 1866, Mountain View, CA 94042, USA.
#
# CIF created using the CSD Python API on 29 September 2022
# The structure has been converted into the P1 space group
# The structure has a 3D framework
# The original CSD entry BEWSOO is in the triclinic crystal system
# The framework has been calculated to contain at least 10.0% void space
# The void calculation uses a probe of radius 1.32A, grid spacing 0.4
#
###############################################################################

data_BEWSOO
_chemical_formula_moiety         '(C136 H96 Mn8 N6 O46)n'
_symmetry_cell_setting           triclinic
_symmetry_space_group_name_H-M   'P 1'
_symmetry_Int_Tables_number      1
_space_group_name_Hall           'P 1'
loop_
_symmetry_equiv_pos_site_id
_symmetry_equiv_pos_as_xyz
1 x,y,z
_cell_length_a                   14.3800
_cell_length_b                   15.3958
_cell_length_c                   21.7726
_cell_angle_alpha                74.2500
_cell_angle_beta                 71.7510
_cell_angle_gamma                82.3510
_cell_volume                     4399.85
loop_
_atom_site_label
_atom_site_type_symbol
_atom_site_fract_x
_atom_site_fract_y
_atom_site_fract_z
O8 O 0.3614(3) 0.0243(3) 0.38960(18)
O24 O 0.0535(3) 0.0178(3) 0.33784(19)
N1 N 0.0477(6) 0.5309(5) 0.0713(3)
N2 N 0.1207(4) 0.2832(4) 0.2608(3)
H7 H 0.1976 0.0083 0.3819
C40 C 0.0990(7) 0.5924(6) 0.0091(3)
H22 H 0.0934 0.6523 0.0155
C41 C 0.1145(5) 0.4547(5) 0.1058(4)
H25 H 0.0897 0.3966 0.1138
H26 H 0.1136 0.4656 0.1474
H27 H 0.1806 0.4562 0.0770
H33 H 0.0055 0.1972 0.0408
C57 C 0.0324(5) 0.3238(4) 0.2728(3)
C58 C 0.0129(6) 0.3982(5) 0.3085(3)
H34 H 0.0271 0.3758 0.3504
H36 H 0.0538 0.4473 0.2817
C59 C 0.1411(6) 0.2105(6) 0.2238(5)
H37 H 0.1323 0.2353 0.1804
H38 H 0.0967 0.1632 0.2480
H39 H 0.2073 0.1864 0.2193
C60 C 0.2019(5) 0.3052(6) 0.2798(4)
H40 H 0.1828 0.2984 0.3272
H41 H 0.2185 0.3664 0.2575
H42 H 0.2577 0.2651 0.2673
Mn9 Mn 0.5000 0.0000 0.5000
Mn16 Mn 0.50319(5) 0.04502(5) 0.32568(3)
O18 O 0.1025(3) 0.1502(3) 0.93581(19)
H23 H 0.0703 0.5924 0.9747
H24 H 0.1669 0.5727 0.9961
C55 C 0.0554(4) 0.0823(4) 0.9642(2)
C69 C 0.1303(4) 0.0113(3) 0.8690(2)
H49 H 0.1635 0.0637 0.8457
C74 C 0.0669(4) 0.0058(3) 0.9336(2)
O7 O 0.3761(2) 0.9522(2) 0.49100(17)
C16 C 0.3303(3) 0.9755(3) 0.4484(2)
C17 C 0.2297(3) 0.9405(3) 0.4675(2)
C18 C 0.1742(3) 0.9669(3) 0.4225(2)
C19 C 0.1919(4) 0.8817(3) 0.5299(2)
H8 H 0.2265 0.8684 0.5612
C20 C 0.1028(4) 0.8433(3) 0.5452(3)
H9 H 0.0795 0.8017 0.5857
C21 C 0.0484(4) 0.8669(3) 0.4998(2)
C63 C 0.0829(3) 0.9303(3) 0.4391(2)
C65 C 0.0219(4) 0.9639(4) 0.3918(2)
Mn9_2 Mn 0.5000 1.0000 0.5000
O25 O 0.1772(2) 0.7822(2) 0.78942(16)
O26 O 0.0582(3) 0.7128(2) 0.87357(17)
C70 C 0.1438(4) 0.9395(4) 0.8395(2)
H50 H 0.1861 0.9439 0.7967
C71 C 0.0944(4) 0.8608(4) 0.8737(2)
C72 C 0.0291(4) 0.8547(4) 0.9370(2)
C73 C 0.0154(4) 0.9270(3) 0.9674(2)
C76 C 0.1093(4) 0.7803(4) 0.8442(2)
Mn14 Mn 0.32621(5) 0.80385(5) 0.72840(3)
Mn21 Mn 0.14568(6) 0.63769(5) 0.79407(4)
Mn2 Mn 0.67379(5) 0.19615(5) 0.27160(3)
Mn4 Mn 0.85432(6) 0.36231(5) 0.20593(4)
O1 O 0.3485(3) 0.3750(3) 0.57834(18)
O2 O 0.4403(3) 0.6338(2) 0.34806(18)
O3 O 0.4727(2) 0.1385(2) 0.45282(16)
O4 O 0.5183(2) 0.1778(2) 0.34127(15)
O5 O 0.7169(2) 0.0618(2) 0.31544(16)
O10 O 0.2764(3) 0.6059(3) 0.0947(2)
O11 O 0.6304(3) 0.3162(2) 0.21066(17)
O12 O 0.7481(3) 0.4144(2) 0.14815(17)
O13 O 0.9281(3) 0.4841(3) 0.16175(19)
O14 O 0.8228(2) 0.2178(2) 0.21058(16)
O15 O 0.9418(3) 0.2872(2) 0.12643(17)
O16 O 0.9664(3) 0.3026(3) 0.2550(2)
O22 O 0.2443(3) 0.6129(3) 0.70491(17)
O23 O 0.3031(2) 0.7505(2) 0.65410(16)
C1 C 0.3845(4) 0.6896(4) 0.4680(2)
H1 H 0.4016 0.7345 0.4287
C2 C 0.3548(4) 0.7122(4) 0.5290(2)
H2 H 0.3554 0.7719 0.5304
C3 C 0.3234(4) 0.6451(3) 0.5894(2)
C4 C 0.3887(4) 0.5987(3) 0.4656(2)
C5 C 0.3275(3) 0.5556(4) 0.5875(2)
H3 H 0.3074 0.5112 0.6269
C6 C 0.3618(3) 0.5316(3) 0.5263(2)
C7 C 0.3707(4) 0.4335(3) 0.5263(2)
C8 C 0.4079(3) 0.4105(3) 0.4608(2)
C9 C 0.4286(4) 0.4778(3) 0.4007(2)
C10 C 0.4193(4) 0.5757(4) 0.4007(2)
C11 C 0.4604(4) 0.4513(3) 0.3406(2)
H4 H 0.4712 0.4950 0.3005
C12 C 0.4760(4) 0.3612(3) 0.3401(3)
H5 H 0.4970 0.3449 0.2996
C13 C 0.4605(3) 0.2936(3) 0.3999(2)
C14 C 0.4263(3) 0.3178(3) 0.4601(2)
H6 H 0.4153 0.2735 0.5000
C15 C 0.4865(3) 0.1957(3) 0.3980(2)
C26 C 0.3623(4) 0.6131(4) 0.0620(3)
C30 C 0.4874(4) 0.4292(4) 0.1669(2)
H13 H 0.4695 0.3809 0.2039
C31 C 0.4146(4) 0.4840(4) 0.1436(2)
H14 H 0.3488 0.4743 0.1660
C32 C 0.4417(4) 0.5544(4) 0.0858(3)
C33 C 0.5415(4) 0.5681(4) 0.0522(2)
C35 C 0.6130(4) 0.5159(4) 0.0783(2)
H15 H 0.6787 0.5278 0.0575
C36 C 0.5868(4) 0.4449(3) 0.1361(2)
C37 C 0.6627(4) 0.3873(3) 0.1669(2)
C38 C 0.8982(7) 0.6071(5) 0.0703(5)
H16 H 0.9257 0.6183 0.0228
H17 H 0.8958 0.6619 0.0840
H18 H 0.8331 0.5867 0.0829
C42 C 0.6854(3) 0.0004(3) 0.3667(2)
H30 H 0.8769 0.0184 0.3391
C50 C 0.8562(4) 0.0605(4) 0.1605(2)
H32 H 0.8139 0.0561 0.2033
C51 C 0.9056(4) 0.1392(4) 0.1263(2)
C52 C 0.9709(4) 0.1453(4) 0.0630(2)
C53 C 0.9846(4) 0.0730(3) 0.0326(2)
C56 C 0.8907(4) 0.2197(4) 0.1558(2)
H35 H 0.9452 0.4192 0.3162
C62 C 0.2871(4) 0.6727(4) 0.6547(2)
C68 C 0.9645(7) 0.5318(5) 0.1056(4)
O33 O 0.4054(2) 0.0169(2) 0.60589(16)
O42 O 0.4766(3) 0.0769(3) 0.7068(2)
O45 O 0.0721(3) 0.2387(3) 0.4345(2)
N6 N 0.4710(5) 0.1852(4) 0.7597(3)
C115 C 0.5122(7) 0.2329(5) 0.7945(4)
H70 H 0.5237 0.1913 0.8335
H71 H 0.5730 0.2576 0.7653
H72 H 0.4668 0.2809 0.8075
C119 C 0.2400(3) 0.0539(3) 0.6013(2)
C120 C 0.2672(4) 0.1282(3) 0.5475(3)
H79 H 0.3293 0.1499 0.5359
C121 C 0.2034(4) 0.1704(3) 0.5109(3)
H80 H 0.2230 0.2194 0.4747
C122 C 0.1096(4) 0.1391(3) 0.5285(3)
C123 C 0.0782(3) 0.0692(3) 0.5868(2)
C124 C 0.1437(3) 0.0275(3) 0.6225(2)
C129 C 0.0457(4) 0.1759(4) 0.4841(3)
C132 C 0.3765(7) 0.2222(6) 0.7470(5)
H91 H 0.3850 0.2389 0.6999
H92 H 0.3286 0.1772 0.7683
H93 H 0.3546 0.2745 0.7648
C134 C 0.5163(6) 0.1160(4) 0.7348(3)
C135 C 0.6169(6) 0.0827(6) 0.7436(5)
H94 H 0.6342 0.0246 0.7335
H95 H 0.6647 0.1248 0.7139
H96 H 0.6155 0.0776 0.7888
O50 O 0.6239(2) 0.0478(2) 0.50900(17)
O56 O 0.4460(3) 0.1285(3) 0.23414(17)
O58 O 0.6045(3) 0.1177(2) 0.22622(16)
O60 O 0.7557(3) 0.3871(3) 0.29509(17)
O62 O 0.6969(2) 0.2495(2) 0.34590(16)
O9 O 0.6577(3) 0.6540(3) 0.9583(2)
O19 O 0.5540(3) 0.8715(3) 0.76586(17)
O20 O 0.3955(3) 0.8823(2) 0.77378(16)
C22 C 0.4672(4) 0.8531(3) 0.7988(2)
C23 C 0.5161(4) 0.7482(4) 0.8958(2)
H10 H 0.5817 0.7551 0.8714
C24 C 0.3931(4) 0.6797(4) 0.9956(2)
C25 C 0.4919(4) 0.6898(4) 0.9597(2)
C27 C 0.3194(4) 0.7302(4) 0.9700(3)
H11 H 0.2540 0.7253 0.9952
C28 C 0.3441(4) 0.7876(4) 0.9071(2)
H12 H 0.2954 0.8211 0.8897
C29 C 0.4440(4) 0.7953(4) 0.8688(2)
C34 C 0.5715(4) 0.6393(4) 0.9877(3)
Mn18 Mn 0.49681(5) 0.95498(5) 0.67432(3)
O36 O 0.3423(3) 0.3460(3) 0.0417(2)
C98 C 0.5328(4) 0.1469(3) 0.2012(2)
C99 C 0.4839(4) 0.2518(4) 0.1042(2)
H61 H 0.4183 0.2449 0.1286
C100 C 0.6069(4) 0.3203(4) 0.0044(2)
C101 C 0.5081(4) 0.3102(4) 0.0403(2)
C103 C 0.6806(4) 0.2698(4) 0.0300(3)
H62 H 0.7460 0.2747 0.0048
C104 C 0.6559(4) 0.2124(4) 0.0929(2)
H63 H 0.7046 0.1789 0.1103
C105 C 0.5560(4) 0.2047(4) 0.1312(2)
C110 C 0.4285(4) 0.3607(4) 0.0123(3)
O6 O 0.5946(2) 0.9831(2) 0.39411(16)
O17 O 0.5234(3) 0.9231(3) 0.2932(2)
O21 O 0.9279(3) 0.7613(3) 0.5655(2)
N3 N 0.5290(5) 0.8148(4) 0.2403(3)
C39 C 0.4878(7) 0.7671(5) 0.2055(4)
H19 H 0.4763 0.8087 0.1665
H20 H 0.4270 0.7424 0.2347
H21 H 0.5332 0.7191 0.1925
C43 C 0.7600(3) 0.9461(3) 0.3987(2)
C44 C 0.7328(4) 0.8718(3) 0.4525(3)
H28 H 0.6707 0.8501 0.4641
C45 C 0.7966(4) 0.8296(3) 0.4891(3)
H29 H 0.7770 0.7806 0.5253
C46 C 0.8904(4) 0.8609(3) 0.4715(3)
C47 C 0.9218(3) 0.9308(3) 0.4132(2)
C48 C 0.8563(3) 0.9725(3) 0.3775(2)
C49 C 0.8697(4) 0.9887(3) 0.1310(2)
H31 H 0.8365 0.9363 0.1543
C54 C 0.9331(4) 0.9942(3) 0.0664(2)
C61 C 0.9543(4) 0.8241(4) 0.5159(3)
C64 C 0.6235(7) 0.7778(6) 0.2530(5)
H43 H 0.6150 0.7611 0.3001
H44 H 0.6714 0.8228 0.2317
H45 H 0.6454 0.7255 0.2352
C66 C 0.4837(6) 0.8840(4) 0.2652(3)
C67 C 0.3831(6) 0.9173(6) 0.2564(5)
H46 H 0.3658 0.9754 0.2665
H47 H 0.3353 0.8752 0.2861
H48 H 0.3845 0.9224 0.2112
O27 O 0.8975(3) 0.8498(3) 0.06419(19)
C75 C 0.9446(4) 0.9177(4) 0.0358(2)
O28 O 0.6515(3) 0.6250(3) 0.42166(18)
O29 O 0.5597(3) 0.3662(2) 0.65194(18)
O30 O 0.5273(2) 0.8615(2) 0.54718(16)
O31 O 0.4817(2) 0.8222(2) 0.65873(15)
O32 O 0.2831(2) 0.9382(2) 0.68456(16)
O37 O 0.7236(3) 0.3941(3) 0.9053(2)
O38 O 0.3696(3) 0.6838(2) 0.78934(17)
O39 O 0.2519(3) 0.5856(2) 0.85185(17)
O40 O 0.0719(3) 0.5159(3) 0.83825(19)
O41 O 0.0336(3) 0.6974(3) 0.7450(2)
C77 C 0.6155(4) 0.3104(4) 0.5320(2)
H52 H 0.5984 0.2655 0.5713
C78 C 0.6452(4) 0.2878(4) 0.4710(2)
H53 H 0.6446 0.2281 0.4696
C79 C 0.6766(4) 0.3549(3) 0.4106(2)
C80 C 0.6113(4) 0.4013(3) 0.5344(2)
C81 C 0.6725(3) 0.4444(4) 0.4125(2)
H54 H 0.6926 0.4888 0.3731
C82 C 0.6382(3) 0.4684(3) 0.4737(2)
C83 C 0.6293(4) 0.5665(3) 0.4737(2)
C84 C 0.5921(3) 0.5895(3) 0.5392(2)
C85 C 0.5714(4) 0.5222(3) 0.5993(2)
C86 C 0.5807(4) 0.4243(4) 0.5993(2)
C87 C 0.5396(4) 0.5487(3) 0.6594(2)
H55 H 0.5288 0.5050 0.6995
C88 C 0.5240(4) 0.6388(3) 0.6599(3)
H56 H 0.5030 0.6551 0.7004
C89 C 0.5395(3) 0.7064(3) 0.6001(2)
C90 C 0.5737(3) 0.6822(3) 0.5399(2)
H57 H 0.5847 0.7265 0.5000
C91 C 0.5135(3) 0.8043(3) 0.6020(2)
C102 C 0.6377(4) 0.3869(4) 0.9380(3)
C106 C 0.5126(4) 0.5708(4) 0.8331(2)
H64 H 0.5305 0.6191 0.7961
C107 C 0.5854(4) 0.5160(4) 0.8564(2)
H65 H 0.6512 0.5257 0.8340
C108 C 0.5583(4) 0.4456(4) 0.9142(3)
C109 C 0.4585(4) 0.4319(4) 0.9478(2)
C111 C 0.3870(4) 0.4841(4) 0.9217(2)
H66 H 0.3213 0.4722 0.9425
C112 C 0.4132(4) 0.5551(3) 0.8639(2)
C113 C 0.3373(4) 0.6127(3) 0.8331(2)
C114 C 0.1018(7) 0.3929(5) 0.9297(5)
H67 H 0.0743 0.3817 0.9772
H68 H 0.1042 0.3381 0.9160
H69 H 0.1669 0.4133 0.9171
C118 C 0.3146(3) 0.9996(3) 0.6333(2)
H81 H 0.1231 0.9816 0.6609
H83 H 0.0548 0.5808 0.6838
C130 C 0.7129(4) 0.3273(4) 0.3453(2)
C136 C 0.0355(7) 0.4682(5) 0.8944(4)
O52 O 0.6386(3) 0.9757(3) 0.61040(18)
H51 H 0.9945 0.8028 0.9592
C92 C 0.6697(3) 0.0245(3) 0.5516(2)
C93 C 0.7703(3) 0.0595(3) 0.5325(2)
C94 C 0.8258(3) 0.0331(3) 0.5775(2)
C95 C 0.8081(4) 0.1183(3) 0.4701(2)
H59 H 0.7735 0.1316 0.4388
C96 C 0.8972(4) 0.1567(3) 0.4548(3)
H60 H 0.9205 0.1983 0.4143
C97 C 0.9516(4) 0.1331(3) 0.5002(2)
C131 C 0.9171(3) 0.0697(3) 0.5609(2)
C133 C 0.9781(4) 0.0361(4) 0.6082(2)
H74 H 0.9297 0.4076 0.0253
H75 H 0.8331 0.4273 0.0039
O48 O 0.9465(3) 0.9822(3) 0.66216(19)
N4 N 0.9523(6) 0.4691(5) 0.9287(3)
N5 N 0.8793(4) 0.7168(4) 0.7392(3)
H58 H 0.8024 0.9917 0.6181
C116 C 0.9010(7) 0.4076(6) 0.9909(3)
H73 H 0.9066 0.3477 0.9845
C117 C 0.8855(5) 0.5453(5) 0.8942(4)
H76 H 0.9103 0.6034 0.8862
H77 H 0.8864 0.5344 0.8526
H78 H 0.8194 0.5438 0.9230
C125 C 0.9676(5) 0.6762(4) 0.7272(3)
C126 C 0.9871(6) 0.6018(5) 0.6915(3)
H82 H 0.9729 0.6242 0.6496
H84 H 0.9462 0.5527 0.7183
C127 C 0.8589(6) 0.7895(6) 0.7762(5)
H85 H 0.8677 0.7647 0.8196
H86 H 0.9033 0.8368 0.7520
H87 H 0.7927 0.8136 0.7807
C128 C 0.7981(5) 0.6948(6) 0.7202(4)
H88 H 0.8172 0.7016 0.6728
H89 H 0.7815 0.6336 0.7425
H90 H 0.7423 0.7349 0.7327
loop_
_geom_bond_atom_site_label_1
_geom_bond_atom_site_label_2
_geom_bond_site_symmetry_1
_geom_bond_site_symmetry_2
N1 C40 1_555 1_555
N2 C57 1_555 1_555
C40 H22 1_555 1_555
C41 N1 1_555 1_555
H25 C41 1_555 1_555
H26 C41 1_555 1_555
H27 C41 1_555 1_555
C58 C57 1_555 1_555
H34 C58 1_555 1_555
H36 C58 1_555 1_555
C59 N2 1_555 1_555
H37 C59 1_555 1_555
H38 C59 1_555 1_555
H39 C59 1_555 1_555
C60 N2 1_555 1_555
H40 C60 1_555 1_555
H41 C60 1_555 1_555
H42 C60 1_555 1_555
Mn16 O8 1_555 1_555
O18 C55 1_555 1_555
C69 H49 1_555 1_555
C74 C55 1_555 1_555
C69 C74 1_555 1_555
O7 C16 1_555 1_555
C16 C17 1_555 1_555
C17 C18 1_555 1_555
C19 C17 1_555 1_555
H8 C19 1_555 1_555
C20 C19 1_555 1_555
H9 C20 1_555 1_555
C21 C20 1_555 1_555
C63 C18 1_555 1_555
Mn9_2 O7 1_555 1_555
C21 C63 1_555 1_555
C63 C65 1_555 1_555
O25 C76 1_555 1_555
O26 C76 1_555 1_555
H50 C70 1_555 1_555
C71 C70 1_555 1_555
C72 C71 1_555 1_555
C73 C72 1_555 1_555
C76 C71 1_555 1_555
Mn14 O25 1_555 1_555
Mn21 O25 1_555 1_555
O26 Mn21 1_555 1_555
Mn9 O3 1_555 1_555
Mn2 O4 1_555 1_555
Mn16 O4 1_555 1_555
Mn4 O12 1_555 1_555
O1 C7 1_555 1_555
O2 C10 1_555 1_555
O3 C15 1_555 1_555
O4 C15 1_555 1_555
O5 Mn2 1_555 1_555
O10 C26 1_555 1_555
O11 Mn2 1_555 1_555
O12 C37 1_555 1_555
O13 Mn4 1_555 1_555
O14 Mn2 1_555 1_555
O15 Mn4 1_555 1_555
O16 Mn4 1_555 1_555
O22 C62 1_555 1_555
O23 C62 1_555 1_555
C1 H1 1_555 1_555
C2 C1 1_555 1_555
H2 C2 1_555 1_555
C3 C2 1_555 1_555
C4 C1 1_555 1_555
C5 C3 1_555 1_555
H3 C5 1_555 1_555
C6 C4 1_555 1_555
C7 C6 1_555 1_555
C8 C7 1_555 1_555
C9 C8 1_555 1_555
C10 C4 1_555 1_555
C11 C9 1_555 1_555
H4 C11 1_555 1_555
C12 C11 1_555 1_555
H5 C12 1_555 1_555
C13 C12 1_555 1_555
C14 C8 1_555 1_555
H6 C14 1_555 1_555
C15 C13 1_555 1_555
C30 H13 1_555 1_555
C31 C30 1_555 1_555
H14 C31 1_555 1_555
C32 C26 1_555 1_555
C33 C32 1_555 1_555
C35 C33 1_555 1_555
H15 C35 1_555 1_555
C36 C30 1_555 1_555
C37 O11 1_555 1_555
C38 H16 1_555 1_555
H17 C38 1_555 1_555
H18 C38 1_555 1_555
C42 O5 1_555 1_555
H32 C50 1_555 1_555
C51 C50 1_555 1_555
C52 C51 1_555 1_555
C53 C52 1_555 1_555
C56 O14 1_555 1_555
C62 C3 1_555 1_555
C68 O13 1_555 1_555
O33 Mn9 1_555 1_555
O45 C129 1_555 1_555
N6 C115 1_555 1_555
C115 H70 1_555 1_555
H71 C115 1_555 1_555
H72 C115 1_555 1_555
C120 C119 1_555 1_555
H79 C120 1_555 1_555
C121 C120 1_555 1_555
H80 C121 1_555 1_555
C122 C121 1_555 1_555
C123 C122 1_555 1_555
C124 C119 1_555 1_555
C132 N6 1_555 1_555
H91 C132 1_555 1_555
H92 C132 1_555 1_555
H93 C132 1_555 1_555
C134 O42 1_555 1_555
C135 C134 1_555 1_555
H94 C135 1_555 1_555
H95 C135 1_555 1_555
H96 C135 1_555 1_555
Mn14 O23 1_555 1_555
Mn21 O22 1_555 1_555
O50 Mn9 1_555 1_555
O56 Mn16 1_555 1_555
O58 Mn2 1_555 1_555
O60 Mn4 1_555 1_555
O62 Mn2 1_555 1_555
Mn16 O58 1_555 1_555
Mn4 O14 1_555 1_555
O15 C56 1_555 1_555
C5 C6 1_555 1_555
C9 C10 1_555 1_555
C13 C14 1_555 1_555
C31 C32 1_555 1_555
C35 C36 1_555 1_555
C36 C37 1_555 1_555
C38 C68 1_555 1_555
C51 C56 1_555 1_555
N6 C134 1_555 1_555
C122 C129 1_555 1_555
C123 C124 1_555 1_555
O9 C34 1_555 1_555
O19 C22 1_555 1_555
O20 C22 1_555 1_555
C22 C29 1_555 1_555
C23 H10 1_555 1_555
C24 C25 1_555 1_555
C25 C23 1_555 1_555
C27 C24 1_555 1_555
H11 C27 1_555 1_555
C28 C27 1_555 1_555
H12 C28 1_555 1_555
C29 C23 1_555 1_555
C34 C25 1_555 1_555
Mn14 O20 1_555 1_555
Mn18 O19 1_555 1_555
O20 Mn18 1_555 1_555
C28 C29 1_555 1_555
O36 C110 1_555 1_555
O56 C98 1_555 1_555
O58 C98 1_555 1_555
C98 C105 1_555 1_555
C99 H61 1_555 1_555
C100 C101 1_555 1_555
C101 C99 1_555 1_555
C103 C100 1_555 1_555
H62 C103 1_555 1_555
C104 C103 1_555 1_555
H63 C104 1_555 1_555
C105 C99 1_555 1_555
C110 C101 1_555 1_555
C104 C105 1_555 1_555
O6 Mn9_2 1_555 1_555
O21 C61 1_555 1_555
N3 C39 1_555 1_555
C39 H19 1_555 1_555
H20 C39 1_555 1_555
H21 C39 1_555 1_555
C44 C43 1_555 1_555
H28 C44 1_555 1_555
C45 C44 1_555 1_555
H29 C45 1_555 1_555
C46 C45 1_555 1_555
C47 C46 1_555 1_555
C48 C43 1_555 1_555
C49 H31 1_555 1_555
C54 C49 1_555 1_555
C64 N3 1_555 1_555
H43 C64 1_555 1_555
H44 C64 1_555 1_555
H45 C64 1_555 1_555
C66 O17 1_555 1_555
C67 C66 1_555 1_555
H46 C67 1_555 1_555
H47 C67 1_555 1_555
H48 C67 1_555 1_555
O27 C75 1_555 1_555
C75 C54 1_555 1_555
Mn14 O31 1_555 1_555
Mn18 O31 1_555 1_555
Mn21 O39 1_555 1_555
O28 C83 1_555 1_555
O29 C86 1_555 1_555
O30 Mn9_2 1_555 1_555
O31 C91 1_555 1_555
O32 Mn14 1_555 1_555
O37 C102 1_555 1_555
O38 Mn14 1_555 1_555
O39 C113 1_555 1_555
O40 Mn21 1_555 1_555
O41 Mn21 1_555 1_555
O60 C130 1_555 1_555
O62 C130 1_555 1_555
C77 H52 1_555 1_555
C78 C77 1_555 1_555
H53 C78 1_555 1_555
C79 C78 1_555 1_555
C80 C77 1_555 1_555
C81 C79 1_555 1_555
H54 C81 1_555 1_555
C82 C80 1_555 1_555
C83 C82 1_555 1_555
C84 C83 1_555 1_555
C85 C84 1_555 1_555
C86 C80 1_555 1_555
C87 C85 1_555 1_555
H55 C87 1_555 1_555
C88 C87 1_555 1_555
H56 C88 1_555 1_555
C89 C88 1_555 1_555
C90 C84 1_555 1_555
H57 C90 1_555 1_555
C91 O30 1_555 1_555
C106 H64 1_555 1_555
C107 C106 1_555 1_555
H65 C107 1_555 1_555
C108 C102 1_555 1_555
C109 C108 1_555 1_555
C111 C109 1_555 1_555
H66 C111 1_555 1_555
C112 C106 1_555 1_555
C113 O38 1_555 1_555
C114 H67 1_555 1_555
H68 C114 1_555 1_555
H69 C114 1_555 1_555
C118 O32 1_555 1_555
C130 C79 1_555 1_555
C136 O40 1_555 1_555
O52 Mn18 1_555 1_555
N3 C66 1_555 1_555
C46 C61 1_555 1_555
C47 C48 1_555 1_555
C81 C82 1_555 1_555
C85 C86 1_555 1_555
C89 C90 1_555 1_555
C89 C91 1_555 1_555
C107 C108 1_555 1_555
C111 C112 1_555 1_555
C112 C113 1_555 1_555
C114 C136 1_555 1_555
O50 C92 1_555 1_555
C92 C93 1_555 1_555
C93 C94 1_555 1_555
C95 C93 1_555 1_555
H59 C95 1_555 1_555
C96 C95 1_555 1_555
H60 C96 1_555 1_555
C97 C96 1_555 1_555
C131 C94 1_555 1_555
C97 C131 1_555 1_555
C131 C133 1_555 1_555
N4 C116 1_555 1_555
N5 C125 1_555 1_555
C116 H73 1_555 1_555
C117 N4 1_555 1_555
H76 C117 1_555 1_555
H77 C117 1_555 1_555
H78 C117 1_555 1_555
C126 C125 1_555 1_555
H82 C126 1_555 1_555
H84 C126 1_555 1_555
C127 N5 1_555 1_555
H85 C127 1_555 1_555
H86 C127 1_555 1_555
H87 C127 1_555 1_555
C128 N5 1_555 1_555
H88 C128 1_555 1_555
H89 C128 1_555 1_555
H90 C128 1_555 1_555

#END
