
###############################################################################
#
# This file contains modified crystal structure data generated from the
# MOF subset of the Cambridge Structural Database (CSD) v543 
# hosted by the Cambridge Crystallographic Data Centre (CCDC).
#
# This work is licensed under the Creative Commons
# Attribution-NonCommercial-ShareAlike 4.0 International License.
# To view a copy of this license, visit
# http://creativecommons.org/licenses/by-nc-sa/4.0/
# or send a letter to
# Creative Commons, PO Box 1866, Mountain View, CA 94042, USA.
#
# CIF created using the CSD Python API on 29 September 2022
# The structure has been converted into the P1 space group
# The structure has a 3D framework
# The original CSD entry BEXSII is in the monoclinic crystal system
# The framework has been calculated to contain at least 10.0% void space
# The void calculation uses a probe of radius 1.32A, grid spacing 0.4
#
###############################################################################

data_BEXSII
_chemical_formula_moiety         '(C60 H40 Cu10 N4 O30)n'
_symmetry_cell_setting           triclinic
_symmetry_space_group_name_H-M   'P 1'
_symmetry_Int_Tables_number      1
_space_group_name_Hall           'P 1'
loop_
_symmetry_equiv_pos_site_id
_symmetry_equiv_pos_as_xyz
1 x,y,z
_cell_length_a                   11.6416(7)
_cell_length_b                   14.9517(9)
_cell_length_c                   16.6108(11)
_cell_angle_alpha                90
_cell_angle_beta                 93.893(3)
_cell_angle_gamma                90
_cell_volume                     2884.63
loop_
_atom_site_label
_atom_site_type_symbol
_atom_site_fract_x
_atom_site_fract_y
_atom_site_fract_z
Cu9 Cu 0.39677(2) 0.036297(19) 0.008649(18)
O22 O 0.65020(16) 0.08518(12) 0.96175(13)
H2 H 0.0478 0.6377 0.2557
O3 O 0.04062(18) 0.55737(15) 0.38094(12)
C9 C 0.0302(2) 0.70108(18) 0.10850(18)
H5 H 0.0705 0.7459 0.1441
O5 O 0.10992(16) 0.63350(13) 0.08313(14)
C10 C 0.2164(2) 0.65903(18) 0.06480(17)
C11 C 0.2560(2) 0.74663(17) 0.06087(16)
H6 H 0.2073 0.7960 0.0701
C12 C 0.3707(2) 0.75891(17) 0.04275(15)
C13 C 0.4391(2) 0.68623(17) 0.02880(16)
H7 H 0.5171 0.6959 0.0176
N1 N 0.39908(19) 0.60212(15) 0.03051(14)
C14 C 0.2907(2) 0.58841(17) 0.04848(17)
H8 H 0.2627 0.5288 0.0503
C15 C 0.4179(2) 0.85112(17) 0.03448(15)
O6 O 0.52370(16) 0.85485(13) 0.02246(13)
O7 O 0.34980(16) 0.91482(12) 0.03825(13)
H10 H 0.8244 0.9065 0.0210
Cu5 Cu 0.5000 0.5000 0.0000
O19 O 0.63442(18) 0.99784(14) 0.10473(12)
Cu11 Cu 0.10323(2) 0.536297(19) 0.491351(18)
Cu2 Cu 0.60323(2) 0.963703(19) 0.991351(18)
O8 O 0.7682(2) 0.90424(17) 0.9816(2)
H9 H 0.7799 0.8559 0.9512
Cu5_2 Cu 0.5000 0.5000 1.0000
O18 O 0.54062(18) 0.94263(15) 0.88094(12)
O1 O 0.63587(15) 0.56395(12) 0.04215(12)
O2 O 0.5899(2) 0.48589(17) 0.14916(16)
C1 C 0.6548(2) 0.53673(18) 0.11540(18)
C2 C 0.7655(2) 0.56932(18) 0.15697(17)
C3 C 0.7964(2) 0.54130(17) 0.23561(17)
H1 H 0.7454 0.5053 0.2640
C4 C 0.9026(2) 0.56667(17) 0.27215(16)
C5 C 0.9754(2) 0.62052(18) 0.23039(16)
C6 C 0.9451(2) 0.64973(17) 0.15296(16)
C7 C 0.8388(2) 0.62371(17) 0.11594(17)
H3 H 0.8167 0.6432 0.0627
C8 C 0.9386(2) 0.53833(16) 0.35644(17)
O4 O 0.86558(18) 0.49784(14) 0.39527(12)
H4 H 0.9920 0.7321 0.0613
Cu8 Cu 0.89677(2) 0.463703(19) 0.508649(18)
O9 O 0.36413(15) 0.43605(12) 0.95785(12)
O10 O 0.4101(2) 0.51411(17) 0.85084(16)
C16 C 0.3452(2) 0.46327(18) 0.88460(18)
C17 C 0.2345(2) 0.43068(18) 0.84303(17)
C18 C 0.2036(2) 0.45870(17) 0.76439(17)
H11 H 0.2546 0.4947 0.7360
C19 C 0.0974(2) 0.43333(17) 0.72785(16)
C20 C 0.0246(2) 0.37948(18) 0.76961(16)
C21 C 0.0549(2) 0.35027(17) 0.84704(16)
C22 C 0.1612(2) 0.37629(17) 0.88406(17)
H13 H 0.1833 0.3568 0.9373
C23 C 0.0614(2) 0.46167(16) 0.64356(17)
O12 O 0.13442(18) 0.50216(14) 0.60473(12)
H14 H 0.0080 0.2679 0.9387
N4 N 0.60092(19) 0.39788(15) 0.96949(14)
O16 O 0.2318(2) 0.09576(17) 0.0184(2)
H19 H 0.2201 0.1441 0.0488
O17 O 0.45938(18) 0.05737(15) 0.11906(12)
H12 H 0.9522 0.3623 0.7443
O11 O 0.95938(18) 0.44263(15) 0.61906(12)
C24 C 0.9698(2) 0.29892(18) 0.89150(18)
H15 H 0.9295 0.2541 0.8559
O13 O 0.89008(16) 0.36650(13) 0.91687(14)
C25 C 0.7836(2) 0.34097(18) 0.93520(17)
C26 C 0.7440(2) 0.25337(17) 0.93913(16)
H16 H 0.7927 0.2040 0.9299
C27 C 0.6293(2) 0.24109(17) 0.95725(15)
C28 C 0.5609(2) 0.31377(17) 0.97120(16)
H17 H 0.4829 0.3041 0.9824
C29 C 0.7093(2) 0.41159(17) 0.95152(17)
H18 H 0.7373 0.4712 0.9497
C30 C 0.5821(2) 0.14888(17) 0.96552(15)
O14 O 0.47630(16) 0.14515(13) 0.97754(13)
H20 H 0.1756 0.0935 0.9790
O20 O 0.36558(18) 0.00216(14) 0.89527(12)
Cu4 Cu -0.0000 0.0000 0.5000
H17_2 H 0.0171 0.8041 0.5176
O14_2 O 0.02370(16) 0.64515(13) 0.52246(13)
O16_2 O 0.2682(2) 0.59576(17) 0.4816(2)
H19_2 H 0.2799 0.6441 0.4512
H20_2 H 0.3244 0.5935 0.5210
Cu4_2 Cu -0.0000 1.0000 0.5000
O21 O 0.15020(16) 0.41482(12) 0.46175(13)
O10_2 O 0.0899(2) 0.01411(17) 0.64916(16)
Cu4_3 Cu 1.0000 0.0000 0.5000
N3 N 0.10092(19) 0.10212(15) 0.46949(14)
O9_2 O 0.13587(15) 0.93605(12) 0.54215(12)
C16_2 C 0.1548(2) 0.96327(18) 0.61540(18)
C17_2 C 0.2655(2) 0.93068(18) 0.65697(17)
C18_2 C 0.2964(2) 0.95870(17) 0.73561(17)
H11_2 H 0.2454 0.9947 0.7640
C19_2 C 0.4026(2) 0.93333(17) 0.77215(16)
C20_2 C 0.4754(2) 0.87948(18) 0.73039(16)
H12_2 H 0.5478 0.8623 0.7557
C21_2 C 0.4451(2) 0.85027(17) 0.65296(16)
C22_2 C 0.3388(2) 0.87629(17) 0.61594(17)
H13_2 H 0.3167 0.8568 0.5627
C23_2 C 0.4386(2) 0.96167(16) 0.85644(17)
C24_2 C 0.5302(2) 0.79892(18) 0.60850(18)
H14_2 H 0.4920 0.7679 0.5613
H15_2 H 0.5705 0.7541 0.6441
O13_2 O 0.60992(16) 0.86650(13) 0.58313(14)
C25_2 C 0.7164(2) 0.84097(18) 0.56480(17)
C26_2 C 0.7560(2) 0.75337(17) 0.56087(16)
H16_2 H 0.7073 0.7040 0.5701
C27_2 C 0.8707(2) 0.74109(17) 0.54275(15)
C28_2 C 0.9391(2) 0.81377(17) 0.52880(16)
N2 N 0.89908(19) 0.89788(15) 0.53051(14)
C29_2 C 0.7907(2) 0.91159(17) 0.54848(17)
H18_2 H 0.7627 0.9712 0.5503
C30_2 C 0.9179(2) 0.64888(17) 0.53448(15)
O15 O 0.84980(16) 0.58518(12) 0.53825(13)
Cu4_4 Cu 1.0000 1.0000 0.5000
O1_2 O 0.86413(15) 0.06395(12) 0.45785(12)
C1_2 C 0.8452(2) 0.03673(18) 0.38460(18)
C2_2 C 0.7345(2) 0.06932(18) 0.34303(17)
C3_2 C 0.7036(2) 0.04130(17) 0.26439(17)
H1_2 H 0.7546 0.0053 0.2360
C4_2 C 0.5974(2) 0.06667(17) 0.22785(16)
C5_2 C 0.5246(2) 0.12052(18) 0.26961(16)
H2_2 H 0.4522 0.1377 0.2443
C6_2 C 0.5549(2) 0.14973(17) 0.34704(16)
C7_2 C 0.6612(2) 0.12371(17) 0.38406(17)
H3_2 H 0.6833 0.1432 0.4373
C8_2 C 0.5614(2) 0.03833(16) 0.14356(17)
C9_2 C 0.4698(2) 0.20108(18) 0.39150(18)
H4_2 H 0.5080 0.2321 0.4387
H5_2 H 0.4295 0.2459 0.3559
O5_2 O 0.39008(16) 0.13350(13) 0.41687(14)
C10_2 C 0.2836(2) 0.15903(18) 0.43520(17)
C11_2 C 0.2440(2) 0.24663(17) 0.43913(16)
H6_2 H 0.2927 0.2960 0.4299
C12_2 C 0.1293(2) 0.25891(17) 0.45725(15)
C13_2 C 0.0609(2) 0.18623(17) 0.47120(16)
C14_2 C 0.2093(2) 0.08841(17) 0.45152(17)
H8_2 H 0.2373 0.0288 0.4497
C15_2 C 0.0821(2) 0.35112(17) 0.46552(15)
O2_2 O 0.9101(2) 0.98589(17) 0.35084(16)
H7_2 H 0.9829 0.1959 0.4824
O6_2 O 0.97630(16) 0.35485(13) 0.47754(13)
O8_2 O 0.7318(2) 0.40424(17) 0.5184(2)
H9_2 H 0.7201 0.3559 0.5488
H10_2 H 0.6756 0.4065 0.4790
loop_
_geom_bond_atom_site_label_1
_geom_bond_atom_site_label_2
_geom_bond_site_symmetry_1
_geom_bond_site_symmetry_2
H5 C9 1_555 1_555
O5 C9 1_555 1_555
C10 O5 1_555 1_555
C11 C10 1_555 1_555
H6 C11 1_555 1_555
C12 C11 1_555 1_555
C13 C12 1_555 1_555
H7 C13 1_555 1_555
N1 C13 1_555 1_555
C14 C10 1_555 1_555
H8 C14 1_555 1_555
C15 C12 1_555 1_555
O6 C15 1_555 1_555
O7 C15 1_555 1_555
Cu5 N1 1_555 1_555
Cu11 O3 1_555 1_555
N1 C14 1_555 1_555
O8 Cu2 1_555 1_555
H9 O8 1_555 1_555
O18 Cu2 1_555 1_555
Cu5 O1 1_555 1_555
O1 C1 1_555 1_555
O2 Cu5 1_555 1_555
C1 O2 1_555 1_555
C2 C1 1_555 1_555
C3 C2 1_555 1_555
H1 C3 1_555 1_555
C4 C3 1_555 1_555
C5 C4 1_555 1_555
C6 C5 1_555 1_555
C7 C2 1_555 1_555
H3 C7 1_555 1_555
C8 C4 1_555 1_555
O4 C8 1_555 1_555
Cu8 O4 1_555 1_555
C6 C7 1_555 1_555
O9 Cu5_2 1_555 1_555
O10 Cu5_2 1_555 1_555
C16 O9 1_555 1_555
C17 C16 1_555 1_555
C18 C17 1_555 1_555
H11 C18 1_555 1_555
C19 C18 1_555 1_555
C20 C19 1_555 1_555
C21 C20 1_555 1_555
C22 C17 1_555 1_555
H13 C22 1_555 1_555
C23 C19 1_555 1_555
O12 C23 1_555 1_555
N4 Cu5_2 1_555 1_555
Cu11 O12 1_555 1_555
O10 C16 1_555 1_555
C21 C22 1_555 1_555
O16 Cu9 1_555 1_555
H19 O16 1_555 1_555
O17 Cu9 1_555 1_555
H15 C24 1_555 1_555
O13 C24 1_555 1_555
C25 O13 1_555 1_555
C26 C25 1_555 1_555
H16 C26 1_555 1_555
C27 C26 1_555 1_555
C28 C27 1_555 1_555
H17 C28 1_555 1_555
N4 C28 1_555 1_555
C29 C25 1_555 1_555
H18 C29 1_555 1_555
C30 C27 1_555 1_555
O14 C30 1_555 1_555
O22 C30 1_555 1_555
Cu8 O11 1_555 1_555
N4 C29 1_555 1_555
Cu11 O14_2 1_555 1_555
O16_2 Cu11 1_555 1_555
H19_2 O16_2 1_555 1_555
H20_2 O16_2 1_555 1_555
O21 Cu11 1_555 1_555
O10_2 Cu4 1_555 1_555
N3 Cu4 1_555 1_555
O9_2 Cu4_2 1_555 1_555
C16_2 O9_2 1_555 1_555
C17_2 C16_2 1_555 1_555
C18_2 C17_2 1_555 1_555
H11_2 C18_2 1_555 1_555
C19_2 C18_2 1_555 1_555
C20_2 C19_2 1_555 1_555
H12_2 C20_2 1_555 1_555
C21_2 C20_2 1_555 1_555
C22_2 C17_2 1_555 1_555
H13_2 C22_2 1_555 1_555
C23_2 C19_2 1_555 1_555
O18 C23_2 1_555 1_555
C24_2 C21_2 1_555 1_555
H14_2 C24_2 1_555 1_555
H15_2 C24_2 1_555 1_555
O13_2 C24_2 1_555 1_555
C25_2 O13_2 1_555 1_555
C26_2 C25_2 1_555 1_555
H16_2 C26_2 1_555 1_555
C27_2 C26_2 1_555 1_555
C28_2 C27_2 1_555 1_555
N2 C28_2 1_555 1_555
C29_2 C25_2 1_555 1_555
H18_2 C29_2 1_555 1_555
C30_2 C27_2 1_555 1_555
O15 C30_2 1_555 1_555
Cu4_4 N2 1_555 1_555
Cu8 O15 1_555 1_555
C21_2 C22_2 1_555 1_555
N2 C29_2 1_555 1_555
Cu4_3 O1_2 1_555 1_555
O1_2 C1_2 1_555 1_555
C2_2 C1_2 1_555 1_555
C3_2 C2_2 1_555 1_555
H1_2 C3_2 1_555 1_555
C4_2 C3_2 1_555 1_555
C5_2 C4_2 1_555 1_555
H2_2 C5_2 1_555 1_555
C6_2 C5_2 1_555 1_555
C7_2 C2_2 1_555 1_555
H3_2 C7_2 1_555 1_555
C8_2 C4_2 1_555 1_555
O17 C8_2 1_555 1_555
C9_2 C6_2 1_555 1_555
H4_2 C9_2 1_555 1_555
H5_2 C9_2 1_555 1_555
O5_2 C9_2 1_555 1_555
C10_2 O5_2 1_555 1_555
C11_2 C10_2 1_555 1_555
H6_2 C11_2 1_555 1_555
C12_2 C11_2 1_555 1_555
C13_2 C12_2 1_555 1_555
N3 C13_2 1_555 1_555
C14_2 C10_2 1_555 1_555
H8_2 C14_2 1_555 1_555
C15_2 C12_2 1_555 1_555
O21 C15_2 1_555 1_555
C6_2 C7_2 1_555 1_555
N3 C14_2 1_555 1_555
O2_2 Cu4_4 1_555 1_555
Cu8 O6_2 1_555 1_555
O8_2 Cu8 1_555 1_555
H9_2 O8_2 1_555 1_555
H10_2 O8_2 1_555 1_555

#END
