
###############################################################################
#
# This file contains modified crystal structure data generated from the
# MOF subset of the Cambridge Structural Database (CSD) v543 
# hosted by the Cambridge Crystallographic Data Centre (CCDC).
#
# This work is licensed under the Creative Commons
# Attribution-NonCommercial-ShareAlike 4.0 International License.
# To view a copy of this license, visit
# http://creativecommons.org/licenses/by-nc-sa/4.0/
# or send a letter to
# Creative Commons, PO Box 1866, Mountain View, CA 94042, USA.
#
# CIF created using the CSD Python API on 29 September 2022
# The structure has been converted into the P1 space group
# The structure has a 3D framework
# The original CSD entry BEXTOP is in the triclinic crystal system
# The framework has been calculated to contain at least 10.0% void space
# The void calculation uses a probe of radius 1.32A, grid spacing 0.4
#
###############################################################################

data_BEXTOP
_chemical_formula_moiety         '(C48 H38 N11 O10 Zn2)n'
_symmetry_cell_setting           triclinic
_symmetry_space_group_name_H-M   'P 1'
_symmetry_Int_Tables_number      1
_space_group_name_Hall           'P 1'
loop_
_symmetry_equiv_pos_site_id
_symmetry_equiv_pos_as_xyz
1 x,y,z
_cell_length_a                   9.6478(10)
_cell_length_b                   12.1746(13)
_cell_length_c                   12.1908(13)
_cell_angle_alpha                110.2610(10)
_cell_angle_beta                 99.4840(10)
_cell_angle_gamma                103.1820(10)
_cell_volume                     1260.49
loop_
_atom_site_label
_atom_site_type_symbol
_atom_site_fract_x
_atom_site_fract_y
_atom_site_fract_z
_atom_site_U_iso_or_equiv
_atom_site_thermal_displace_type
C25 C 0.3907(5) 0.7424(4) 0.2029(4) 0.0329 Uani
C26 C 0.2448(5) 0.6542(4) 0.1890(4) 0.0267 Uani
C27 C 0.2294(5) 0.5305(4) 0.1572(4) 0.0295 Uani
H20 H 0.3116 0.5031 0.1532 0.0350 Uiso
C28 C 0.0899(5) 0.4467(4) 0.1309(4) 0.0319 Uani
C32 C 0.1221(5) 0.6949(4) 0.1969(4) 0.0270 Uani
H22 H 0.1325 0.7782 0.2202 0.0330 Uiso
C35 C 0.0235(7) 0.0725(5) 0.1192(5) 0.0500 Uani
H25 H 0.0390 0.1206 0.2009 0.0600 Uiso
O6 O 0.5029(3) 0.7072(3) 0.2196(3) 0.0384 Uani
O7 O 0.3927(4) 0.8398(3) 0.1927(4) 0.0575 Uani
O10 O 0.0871(4) 0.3265(3) 0.0979(4) 0.0447 Uani
Zn6 Zn 0.67395(5) 0.78952(4) 0.17986(4) 0.0260 Uani
C29 C 0.9666(5) 0.4872(4) 0.1356(4) 0.0286 Uani
H21 H 0.8734 0.4313 0.1156 0.0340 Uiso
C30 C 0.9838(4) 0.6113(4) 0.1701(4) 0.0258 Uani
C31 C 0.8504(5) 0.6539(4) 0.1725(4) 0.0275 Uani
C33 C 0.9479(6) 0.2374(4) 0.0710(5) 0.0406 Uani
H23 H 0.9091 0.2547 0.1416 0.0490 Uiso
H24 H 0.8775 0.2385 0.0050 0.0490 Uiso
C34 C 0.9744(6) 0.1134(4) 0.0353(5) 0.0399 Uani
O8 O 0.8695(3) 0.7687(3) 0.2233(3) 0.0353 Uani
O9 O 0.7249(3) 0.5781(3) 0.1221(4) 0.0484 Uani
N7 N 0.6054(4) 0.7573(3) 0.0024(3) 0.0325 Uani
N10 N 0.7457(4) 0.9765(3) 0.2682(3) 0.0318 Uani
C12 C 0.0512(7) 0.9609(5) 0.0865(5) 0.0517 Uani
H7 H 0.0870 0.9354 0.1460 0.0620 Uiso
C5 C 0.0334(5) 0.5128(4) 0.8644(4) 0.0286 Uani
H2 H 0.1266 0.5687 0.8844 0.0340 Uiso
C6 C 0.0162(4) 0.3887(4) 0.8299(4) 0.0258 Uani
C7 C 0.1496(5) 0.3461(4) 0.8275(4) 0.0275 Uani
C9 C 0.0521(6) 0.7626(4) 0.9290(5) 0.0406 Uani
H4 H 0.0909 0.7453 0.8584 0.0490 Uiso
H5 H 0.1225 0.7615 0.9950 0.0490 Uiso
C10 C 0.0256(6) 0.8866(4) 0.9647(5) 0.0399 Uani
O3 O 0.1305(3) 0.2313(3) 0.7767(3) 0.0353 Uani
O4 O 0.2751(3) 0.4219(3) 0.8779(4) 0.0484 Uani
Zn3 Zn 0.32605(5) 0.21048(4) 0.82014(4) 0.0260 Uani
C1 C 0.6093(5) 0.2576(4) 0.7971(4) 0.0329 Uani
C2 C 0.7552(5) 0.3458(4) 0.8110(4) 0.0267 Uani
C3 C 0.7706(5) 0.4695(4) 0.8428(4) 0.0295 Uani
H1 H 0.6884 0.4969 0.8468 0.0350 Uiso
C4 C 0.9101(5) 0.5533(4) 0.8691(4) 0.0319 Uani
C8 C 0.8779(5) 0.3051(4) 0.8031(4) 0.0270 Uani
H3 H 0.8675 0.2218 0.7798 0.0330 Uiso
C11 C 0.9765(7) 0.9275(5) 0.8808(5) 0.0500 Uani
H6 H 0.9610 0.8794 0.7991 0.0600 Uiso
N1 N 0.3946(4) 0.2427(3) 0.9976(3) 0.0325 Uani
N4 N 0.2543(4) 0.0235(3) 0.7318(3) 0.0318 Uani
O1 O 0.4971(3) 0.2928(3) 0.7804(3) 0.0384 Uani
O2 O 0.6073(4) 0.1602(3) 0.8073(4) 0.0575 Uani
O5 O 0.9129(4) 0.6735(3) 0.9021(4) 0.0447 Uani
C36 C 0.9488(7) 0.0391(5) 0.9135(5) 0.0517 Uani
H26 H 0.9130 0.0646 0.8540 0.0620 Uiso
C13 C 0.4372(6) 0.2136(4) 0.1689(4) 0.0402 Uani
H8 H 0.4343 0.1785 0.2255 0.0490 Uiso
C14 C 0.4947(5) 0.3413(4) 0.0823(4) 0.0318 Uani
H9 H 0.5400 0.4116 0.0717 0.0380 Uiso
C15 C 0.6304(6) 0.4096(5) 0.3014(4) 0.0450 Uani
H10 H 0.6897 0.4795 0.2912 0.0540 Uiso
H11 H 0.6961 0.3668 0.3239 0.0540 Uiso
C16 C 0.5601(5) 0.4556(5) 0.4024(4) 0.0380 Uani
C17 C 0.5271(6) 0.5649(5) 0.4289(5) 0.0471 Uani
H12 H 0.5442 0.6091 0.3811 0.0560 Uiso
C18 C 0.5312(6) 0.3903(5) 0.4741(5) 0.0465 Uani
H13 H 0.5512 0.3158 0.4568 0.0560 Uiso
N2 N 0.3611(7) 0.1663(5) 0.0560(5) 0.0665 Uani
N3 N 0.5216(4) 0.3258(4) 0.1844(3) 0.0346 Uani
C37 C 0.5628(6) 0.7864(4) 0.8311(4) 0.0402 Uani
H27 H 0.5657 0.8215 0.7745 0.0490 Uiso
C38 C 0.5053(5) 0.6587(4) 0.9177(4) 0.0318 Uani
H28 H 0.4600 0.5884 0.9283 0.0380 Uiso
C39 C 0.3696(6) 0.5904(5) 0.6986(4) 0.0450 Uani
H29 H 0.3103 0.5205 0.7088 0.0540 Uiso
H30 H 0.3039 0.6332 0.6761 0.0540 Uiso
C40 C 0.4399(5) 0.5444(5) 0.5976(4) 0.0380 Uani
C41 C 0.4729(6) 0.4351(5) 0.5711(5) 0.0471 Uani
H31 H 0.4558 0.3909 0.6189 0.0560 Uiso
C42 C 0.4688(6) 0.6097(5) 0.5259(5) 0.0465 Uani
H32 H 0.4488 0.6842 0.5432 0.0560 Uiso
N8 N 0.6389(7) 0.8337(5) 0.9440(5) 0.0665 Uani
N9 N 0.4784(4) 0.6742(4) 0.8156(3) 0.0346 Uani
C19 C 0.2442(6) 0.8269(4) 0.6582(5) 0.0447 Uani
H14 H 0.2684 0.7544 0.6443 0.0540 Uiso
C20 C 0.1272(5) 0.9583(4) 0.6481(4) 0.0366 Uani
H15 H 0.0546 0.9905 0.6244 0.0440 Uiso
C21 C 0.0044(8) 0.7382(5) 0.5015(5) 0.0659 Uani
H16 H 0.0213 0.7404 0.4258 0.0790 Uiso
C22 C 0.0029(6) 0.6158(4) 0.5020(4) 0.0436 Uani
C23 C 0.0811(6) 0.5487(5) 0.4362(4) 0.0465 Uani
H18 H 0.1366 0.5813 0.3929 0.0560 Uiso
N5 N 0.3234(6) 0.9392(5) 0.7353(5) 0.0666 Uani
N6 N 0.1190(5) 0.8414(4) 0.6038(4) 0.0396 Uani
H36 H 0.0916 0.2511 0.4950 0.0790 Uiso
C48 C 0.0780(6) 0.4337(5) 0.4336(5) 0.0483 Uani
H38 H 0.1308 0.3896 0.3883 0.0580 Uiso
H17 H 0.9084 0.7489 0.5050 0.0790 Uiso
C24 C 0.9220(6) 0.5663(5) 0.5664(5) 0.0483 Uani
H19 H 0.8692 0.6104 0.6117 0.0580 Uiso
C43 C 0.7558(6) 0.1731(4) 0.3418(5) 0.0447 Uani
H33 H 0.7316 0.2456 0.3557 0.0540 Uiso
C44 C 0.8728(5) 0.0417(4) 0.3519(4) 0.0366 Uani
H34 H 0.9454 0.0095 0.3756 0.0440 Uiso
C45 C 0.9956(8) 0.2618(5) 0.4985(5) 0.0659 Uani
H35 H 0.9787 0.2596 0.5742 0.0790 Uiso
C46 C 0.9971(6) 0.3842(4) 0.4980(4) 0.0436 Uani
C47 C 0.9189(6) 0.4513(5) 0.5638(4) 0.0465 Uani
H37 H 0.8634 0.4187 0.6071 0.0560 Uiso
N11 N 0.6766(6) 0.0608(5) 0.2647(5) 0.0666 Uani
N12 N 0.8810(5) 0.1586(4) 0.3962(4) 0.0396 Uani
loop_
_atom_site_aniso_label
_atom_site_aniso_U_11
_atom_site_aniso_U_22
_atom_site_aniso_U_33
_atom_site_aniso_U_23
_atom_site_aniso_U_13
_atom_site_aniso_U_12
C25 0.025 0.028 0.045 0.013 0.0129 0.0069
C26 0.024 0.024 0.034 0.0125 0.0101 0.0077
C27 0.026 0.026 0.041 0.0136 0.0124 0.0134
C28 0.033 0.022 0.045 0.015 0.0141 0.0114
C32 0.026 0.019 0.037 0.0119 0.0087 0.0074
C35 0.081 0.03 0.046 0.016 0.029 0.02
O6 0.0216 0.046 0.06 0.0317 0.0161 0.0131
O7 0.036 0.038 0.11 0.041 0.024 0.0113
O10 0.043 0.0181 0.076 0.0165 0.0222 0.0138
Zn6 0.019 0.0232 0.0323 0.0081 0.0057 0.0055
C29 0.027 0.02 0.037 0.0087 0.0124 0.0056
C30 0.024 0.023 0.032 0.0103 0.0107 0.009
C31 0.024 0.026 0.037 0.0135 0.0132 0.0109
C33 0.046 0.018 0.058 0.012 0.024 0.008
C34 0.051 0.018 0.055 0.016 0.024 0.009
O8 0.0271 0.0238 0.0486 0.0063 0.0054 0.0124
O9 0.0215 0.0352 0.08 0.0158 0.0123 0.0053
N7 0.033 0.025 0.035 0.0098 0.0088 0.0042
N10 0.0271 0.0207 0.043 0.009 0.006 0.0074
C12 0.087 0.028 0.048 0.019 0.025 0.021
C5 0.027 0.02 0.037 0.0087 0.0124 0.0056
C6 0.024 0.023 0.032 0.0103 0.0107 0.009
C7 0.024 0.026 0.037 0.0135 0.0132 0.0109
C9 0.046 0.018 0.058 0.012 0.024 0.008
C10 0.051 0.018 0.055 0.016 0.024 0.009
O3 0.0271 0.0238 0.0486 0.0063 0.0054 0.0124
O4 0.0215 0.0352 0.08 0.0158 0.0123 0.0053
Zn3 0.019 0.0232 0.0323 0.0081 0.0057 0.0055
C1 0.025 0.028 0.045 0.013 0.0129 0.0069
C2 0.024 0.024 0.034 0.0125 0.0101 0.0077
C3 0.026 0.026 0.041 0.0136 0.0124 0.0134
C4 0.033 0.022 0.045 0.015 0.0141 0.0114
C8 0.026 0.019 0.037 0.0119 0.0087 0.0074
C11 0.081 0.03 0.046 0.016 0.029 0.02
N1 0.033 0.025 0.035 0.0098 0.0088 0.0042
N4 0.0271 0.0207 0.043 0.009 0.006 0.0074
O1 0.0216 0.046 0.06 0.0317 0.0161 0.0131
O2 0.036 0.038 0.11 0.041 0.024 0.0113
O5 0.043 0.0181 0.076 0.0165 0.0222 0.0138
C36 0.087 0.028 0.048 0.019 0.025 0.021
C13 0.062 0.025 0.022 0.0117 0.001 -0.004
C14 0.032 0.025 0.034 0.0096 0.0083 0.0045
C15 0.038 0.046 0.034 0.007 -0.002 0.004
C16 0.04 0.036 0.028 0.008 -0.0021 0.009
C17 0.062 0.044 0.04 0.024 0.012 0.015
C18 0.059 0.032 0.045 0.012 0.008 0.017
N2 0.081 0.051 0.061 0.023 0.018 0.008
N3 0.034 0.033 0.028 0.0075 0.0029 0.0052
C37 0.062 0.025 0.022 0.0117 0.001 -0.004
C38 0.032 0.025 0.034 0.0096 0.0083 0.0045
C39 0.038 0.046 0.034 0.007 -0.002 0.004
C40 0.04 0.036 0.028 0.008 -0.0021 0.009
C41 0.062 0.044 0.04 0.024 0.012 0.015
C42 0.059 0.032 0.045 0.012 0.008 0.017
N8 0.081 0.051 0.061 0.023 0.018 0.008
N9 0.034 0.033 0.028 0.0075 0.0029 0.0052
C19 0.044 0.01 0.057 -0.001 -0.015 0.009
C20 0.034 0.026 0.041 0.009 0.003 0.0051
C21 0.084 0.03 0.053 0.008 -0.024 0.005
C22 0.047 0.025 0.036 0.002 -0.011 0.001
C23 0.048 0.041 0.033 0.009 0.003 -0.004
N5 0.06 0.042 0.087 0.018 0.003 0.02
N6 0.043 0.025 0.038 0.007 -0.0034 0.0058
C48 0.048 0.04 0.04 0.001 0.002 0.013
C24 0.048 0.04 0.04 0.001 0.002 0.013
C43 0.044 0.01 0.057 -0.001 -0.015 0.009
C44 0.034 0.026 0.041 0.009 0.003 0.0051
C45 0.084 0.03 0.053 0.008 -0.024 0.005
C46 0.047 0.025 0.036 0.002 -0.011 0.001
C47 0.048 0.041 0.033 0.009 0.003 -0.004
N11 0.06 0.042 0.087 0.018 0.003 0.02
N12 0.043 0.025 0.038 0.007 -0.0034 0.0058
loop_
_geom_bond_atom_site_label_1
_geom_bond_atom_site_label_2
_geom_bond_site_symmetry_1
_geom_bond_site_symmetry_2
C25 C26 1_555 1_555
C26 C27 1_555 1_555
C27 H20 1_555 1_555
C28 C27 1_555 1_555
C32 C26 1_555 1_555
H22 C32 1_555 1_555
H25 C35 1_555 1_555
O6 C25 1_555 1_555
O7 C25 1_555 1_555
O10 C28 1_555 1_555
Zn6 O6 1_555 1_555
H21 C29 1_555 1_555
C30 C29 1_555 1_555
C31 C30 1_555 1_555
C33 H23 1_555 1_555
H24 C33 1_555 1_555
C34 C33 1_555 1_555
O8 C31 1_555 1_555
O9 C31 1_555 1_555
Zn6 O8 1_555 1_555
Zn6 N7 1_555 1_555
Zn6 N10 1_555 1_555
H7 C12 1_555 1_555
H2 C5 1_555 1_555
C6 C5 1_555 1_555
C7 C6 1_555 1_555
C9 H4 1_555 1_555
H5 C9 1_555 1_555
C10 C9 1_555 1_555
O3 C7 1_555 1_555
O4 C7 1_555 1_555
Zn3 O3 1_555 1_555
C1 C2 1_555 1_555
C2 C3 1_555 1_555
C3 H1 1_555 1_555
C4 C3 1_555 1_555
C8 C2 1_555 1_555
H3 C8 1_555 1_555
H6 C11 1_555 1_555
O1 C1 1_555 1_555
O2 C1 1_555 1_555
O5 C4 1_555 1_555
Zn3 N1 1_555 1_555
N4 Zn3 1_555 1_555
O1 Zn3 1_555 1_555
H26 C36 1_555 1_555
C13 H8 1_555 1_555
C14 H9 1_555 1_555
C15 H10 1_555 1_555
H11 C15 1_555 1_555
C16 C15 1_555 1_555
C17 C16 1_555 1_555
H12 C17 1_555 1_555
C18 C16 1_555 1_555
H13 C18 1_555 1_555
N2 C13 1_555 1_555
N3 C13 1_555 1_555
C37 H27 1_555 1_555
C38 H28 1_555 1_555
C39 H29 1_555 1_555
H30 C39 1_555 1_555
C40 C39 1_555 1_555
C41 C18 1_555 1_555
H31 C41 1_555 1_555
C42 C17 1_555 1_555
H32 C42 1_555 1_555
N8 C37 1_555 1_555
N9 C37 1_555 1_555
C14 N3 1_555 1_555
C15 N3 1_555 1_555
C38 N9 1_555 1_555
C39 N9 1_555 1_555
C40 C41 1_555 1_555
C40 C42 1_555 1_555
C19 H14 1_555 1_555
C20 H15 1_555 1_555
C21 H16 1_555 1_555
C22 C21 1_555 1_555
C23 C22 1_555 1_555
H18 C23 1_555 1_555
N5 C19 1_555 1_555
N6 C19 1_555 1_555
C48 C23 1_555 1_555
H38 C48 1_555 1_555
C20 N6 1_555 1_555
C21 N6 1_555 1_555
H19 C24 1_555 1_555
C43 H33 1_555 1_555
C44 H34 1_555 1_555
C45 H35 1_555 1_555
C46 C45 1_555 1_555
C47 C24 1_555 1_555
H37 C47 1_555 1_555
N11 C43 1_555 1_555
N12 C43 1_555 1_555
C44 N12 1_555 1_555
C45 N12 1_555 1_555
C46 C47 1_555 1_555

#END
