
###############################################################################
#
# This file contains modified crystal structure data generated from the
# MOF subset of the Cambridge Structural Database (CSD) v543 
# hosted by the Cambridge Crystallographic Data Centre (CCDC).
#
# This work is licensed under the Creative Commons
# Attribution-NonCommercial-ShareAlike 4.0 International License.
# To view a copy of this license, visit
# http://creativecommons.org/licenses/by-nc-sa/4.0/
# or send a letter to
# Creative Commons, PO Box 1866, Mountain View, CA 94042, USA.
#
# CIF created using the CSD Python API on 29 September 2022
# The structure has been converted into the P1 space group
# The structure has a 3D framework
# The original CSD entry BEZDUH is in the triclinic crystal system
# The framework has been calculated to contain at least 10.0% void space
# The void calculation uses a probe of radius 1.32A, grid spacing 0.4
#
###############################################################################

data_BEZDUH
_chemical_formula_moiety         '(C18 H14 Ag6 Mn8 N16 O2)n'
_symmetry_cell_setting           triclinic
_symmetry_space_group_name_H-M   'P 1'
_symmetry_Int_Tables_number      1
_space_group_name_Hall           'P 1'
loop_
_symmetry_equiv_pos_site_id
_symmetry_equiv_pos_as_xyz
1 x,y,z
_cell_length_a                   7.5739(3)
_cell_length_b                   8.5028(4)
_cell_length_c                   15.4945(7)
_cell_angle_alpha                99.5680(10)
_cell_angle_beta                 103.0090(10)
_cell_angle_gamma                90.6710(10)
_cell_volume                     957.447
loop_
_atom_site_label
_atom_site_type_symbol
_atom_site_fract_x
_atom_site_fract_y
_atom_site_fract_z
Ag7 Ag 0.07020(3) 0.35245(3) 0.289768(15)
Mn2 Mn 0.5000 -0.0000 0.5000
O1 O 0.7568(2) 0.0524(2) 0.46922(13)
H6 H 0.777(5) 0.016(4) 0.425(3)
H7 H 0.802(5) 0.135(5) 0.491(3)
Mn4 Mn 0.0000 0.0000 0.0000
N19 N 0.5572(3) 0.1973(3) 0.61872(14)
N20 N 0.3593(3) 0.1676(3) 0.41271(14)
Mn4_2 Mn 0.0000 -0.0000 1.0000
Ag1 Ag 0.34830(3) 0.51598(2) 0.214251(14)
Ag2 Ag 0.56246(3) 0.63745(3) 0.093164(16)
Mn2_2 Mn 0.5000 1.0000 0.5000
N1 N 0.1962(3) 0.2028(3) 0.07170(15)
N2 N 0.2206(3) 0.8358(3) 0.02778(14)
N6 N 0.4428(3) 0.8027(3) 0.38128(14)
C5 C 0.3428(4) 0.7613(3) 0.04567(17)
C6 C 0.7692(4) 0.5241(4) 0.1638(2)
C7 C 0.4125(4) 0.7028(3) 0.32088(17)
C8 C 0.2596(4) 0.3161(3) 0.11787(18)
C9 C 0.2583(4) 0.2368(3) 0.37017(17)
N8 N 0.8726(4) 0.4627(4) 0.2088(2)
O2 O 0.2432(2) 0.9476(2) 0.53078(13)
H13 H 0.223(5) 0.984(4) 0.575(3)
H14 H 0.198(5) 0.865(5) 0.509(3)
Mn4_3 Mn 0.0000 1.0000 0.0000
N21 N 0.6407(3) 0.8324(3) 0.58729(14)
N3 N 0.0805(3) 0.0265(2) 0.86675(13)
N4 N 0.1794(3) 0.0409(3) 0.70561(13)
C3 C 0.0217(4) 0.0910(4) 0.72083(17)
Mn4_4 Mn 0.0000 1.0000 1.0000
H9 H 0.0578 0.8682 0.3241
C13 C 0.0290(3) 0.9149(3) 0.20013(16)
H10 H 0.1406 0.8778 0.1927
N5 N 0.4514(4) 0.9323(4) 0.7599(2)
C1 C 0.2385(4) 0.9782(3) 0.85305(16)
H1 H 0.3183 0.9389 0.8985
C2 C 0.2898(4) 0.9843(3) 0.77208(17)
H4 H 0.480(6) 0.933(5) 0.710(3)
H5 H 0.527(6) 0.904(5) 0.801(3)
N23 N 0.1274(4) 0.5373(4) 0.7912(2)
Mn4_5 Mn 1.0000 0.0000 0.0000
Mn4_6 Mn 1.0000 -0.0000 1.0000
N13 N 0.5486(4) 0.0677(4) 0.2401(2)
C10 C 0.7615(4) 0.0218(3) 0.14695(16)
H8 H 0.6817 0.0611 0.1015
C11 C 0.7102(4) 0.0157(3) 0.22792(17)
H11 H 0.520(6) 0.067(5) 0.290(3)
H12 H 0.473(6) 0.096(5) 0.199(3)
Mn4_7 Mn 1.0000 1.0000 0.0000
H2 H 0.9422 0.1318 0.6759
C4 C 0.9710(3) 0.0851(3) 0.79987(16)
H3 H 0.8594 0.1222 0.8073
Mn4_8 Mn 1.0000 1.0000 1.0000
N18 N 0.7794(3) 0.1642(3) 0.97222(14)
N11 N 0.9195(3) 0.9735(2) 0.13325(13)
N12 N 0.8206(3) 0.9591(3) 0.29439(13)
C12 C 0.9783(4) 0.9090(4) 0.27917(17)
Ag4 Ag 0.65170(3) 0.48402(2) 0.785749(14)
Ag5 Ag 0.43754(3) 0.36255(3) 0.906836(16)
Ag6 Ag 0.92980(3) 0.64755(3) 0.710232(15)
N9 N 0.8038(3) 0.7972(3) 0.92830(15)
C14 C 0.6572(4) 0.2387(3) 0.95433(17)
C15 C 0.2308(4) 0.4759(4) 0.8362(2)
C16 C 0.5875(4) 0.2972(3) 0.67912(17)
C17 C 0.7404(4) 0.6839(3) 0.88213(18)
C18 C 0.7417(4) 0.7632(3) 0.62983(17)
loop_
_geom_bond_atom_site_label_1
_geom_bond_atom_site_label_2
_geom_bond_site_symmetry_1
_geom_bond_site_symmetry_2
O1 Mn2 1_555 1_555
H6 O1 1_555 1_555
H7 O1 1_555 1_555
N19 Mn2 1_555 1_555
N20 Mn2 1_555 1_555
Ag1 Ag2 1_555 1_555
Ag2 C5 1_555 1_555
Ag7 Ag1 1_555 1_555
Mn4 N1 1_555 1_555
Mn2_2 N6 1_555 1_555
N1 C8 1_555 1_555
N2 C5 1_555 1_555
N6 C7 1_555 1_555
N20 C9 1_555 1_555
C6 Ag2 1_555 1_555
C7 Ag1 1_555 1_555
C8 Ag1 1_555 1_555
C9 Ag7 1_555 1_555
N8 C6 1_555 1_555
O2 Mn2_2 1_555 1_555
H13 O2 1_555 1_555
H14 O2 1_555 1_555
Mn4_3 N2 1_555 1_555
N21 Mn2_2 1_555 1_555
N3 Mn4_2 1_555 1_555
C3 N4 1_555 1_555
H10 C13 1_555 1_555
N5 C2 1_555 1_555
H1 C1 1_555 1_555
C2 C1 1_555 1_555
H4 N5 1_555 1_555
H5 N5 1_555 1_555
N13 C11 1_555 1_555
H8 C10 1_555 1_555
C11 C10 1_555 1_555
H11 N13 1_555 1_555
H12 N13 1_555 1_555
H3 C4 1_555 1_555
N18 Mn4_6 1_555 1_555
N11 Mn4_7 1_555 1_555
C12 N12 1_555 1_555
Ag4 Ag5 1_555 1_555
Ag5 C14 1_555 1_555
Ag6 Ag4 1_555 1_555
N9 Mn4_8 1_555 1_555
N18 C14 1_555 1_555
N19 C16 1_555 1_555
N21 C18 1_555 1_555
C15 Ag5 1_555 1_555
C16 Ag4 1_555 1_555
C17 Ag4 1_555 1_555
C18 Ag6 1_555 1_555
N23 C15 1_555 1_555
N9 C17 1_555 1_555

#END
