
###############################################################################
#
# This file contains modified crystal structure data generated from the
# MOF subset of the Cambridge Structural Database (CSD) v543 
# hosted by the Cambridge Crystallographic Data Centre (CCDC).
#
# This work is licensed under the Creative Commons
# Attribution-NonCommercial-ShareAlike 4.0 International License.
# To view a copy of this license, visit
# http://creativecommons.org/licenses/by-nc-sa/4.0/
# or send a letter to
# Creative Commons, PO Box 1866, Mountain View, CA 94042, USA.
#
# CIF created using the CSD Python API on 29 September 2022
# The structure has been converted into the P1 space group
# The structure has a 3D framework
# The original CSD entry BIBQOV is in the monoclinic crystal system
# The framework has been calculated to contain at least 10.0% void space
# The void calculation uses a probe of radius 1.32A, grid spacing 0.4
#
###############################################################################

data_BIBQOV
_chemical_formula_moiety         '(C64 H56 O46 Zn8)n'
_symmetry_cell_setting           triclinic
_symmetry_space_group_name_H-M   'P 1'
_symmetry_Int_Tables_number      1
_space_group_name_Hall           'P 1'
loop_
_symmetry_equiv_pos_site_id
_symmetry_equiv_pos_as_xyz
1 x,y,z
_cell_length_a                   5.8871(14)
_cell_length_b                   16.349(4)
_cell_length_c                   22.708(5)
_cell_angle_alpha                90
_cell_angle_beta                 95.907(9)
_cell_angle_gamma                90
_cell_volume                     2174
loop_
_atom_site_label
_atom_site_type_symbol
_atom_site_fract_x
_atom_site_fract_y
_atom_site_fract_z
O7 O 0.3222(14) 0.4199(6) 0.3381(3)
O8 O 0.3992(14) 0.2914(6) 0.3196(4)
O12 O 0.0972(18) 0.0905(6) 0.1495(5)
C10 C 0.1090(18) 0.3575(7) 0.2553(5)
C11 C 0.1456(19) 0.3174(7) 0.2032(5)
H11 H 0.2840 0.2883 0.2009
H12 H 0.0088 0.2924 0.1189
H13 H 0.1507 0.1206 0.1258
H14 H 0.1201 0.1113 0.1823
C16 C 0.2910(18) 0.3555(7) 0.3076(5)
Zn4 Zn 0.5403(2) 0.37329(8) 0.40852(5)
Zn2 Zn 0.7553(3) 0.05642(8) 0.10236(6)
O1 O 0.7014(14) 0.1681(5) 0.0676(4)
O2 O 0.5492(16) 0.1882(5) 0.1512(4)
O4 O 0.1942(16) 0.1648(6) 0.0357(4)
O5 O 0.8022(14) 0.5102(5) 0.3188(3)
O6 O 0.8410(13) 0.3850(5) 0.3598(3)
O11 O 0.4229(17) 0.0258(5) 0.0621(4)
H6 H 0.3262 0.0617 0.0558
C1 C 0.5961(18) 0.3649(6) 0.1072(5)
C2 C 0.5102(17) 0.2941(7) 0.0795(4)
C3 C 0.3383(18) 0.2994(7) 0.0309(5)
C4 C 0.256(2) 0.3748(8) 0.0120(5)
C5 C 0.334(2) 0.4452(8) 0.0408(6)
H8 H 0.2727 0.4968 0.0282
C6 C 0.505(2) 0.4404(7) 0.0887(5)
H9 H 0.5585 0.4889 0.1086
C7 C 0.7738(19) 0.3625(7) 0.1591(5)
C8 C 0.7410(18) 0.4025(7) 0.2105(5)
H10 H 0.6040 0.4324 0.2132
C9 C 0.9091(19) 0.3999(7) 0.2598(5)
C12 C 0.982(2) 0.3194(7) 0.1546(5)
C13 C 0.5917(18) 0.2115(7) 0.1011(5)
C14 C 0.2343(18) 0.2234(7) 0.0038(5)
C15 C 0.8483(18) 0.4342(7) 0.3180(5)
Zn5 Zn 0.7447(3) 0.55642(8) 0.39764(6)
O13 O 0.6978(14) 0.0102(5) 0.1812(3)
H5 H 0.3571 0.9812 0.0560
O17 O 0.9001(16) 0.9804(5) 0.0532(4)
O1_2 O 0.7986(14) 0.6681(5) 0.4324(4)
O2_2 O 0.9508(16) 0.6882(5) 0.3488(4)
O6_2 O 0.6590(13) 0.8850(5) 0.1402(3)
O7_2 O 0.1778(14) 0.9199(6) 0.1619(3)
O8_2 O 0.1008(14) 0.7914(6) 0.1804(4)
O12_2 O 0.4028(18) 0.5905(6) 0.3505(5)
C1_2 C 0.9039(18) 0.8649(6) 0.3928(5)
C2_2 C 0.9898(17) 0.7941(7) 0.4205(4)
C6_2 C 0.995(2) 0.9404(7) 0.4113(5)
H9_2 H 0.9415 0.9889 0.3914
C7_2 C 0.7262(19) 0.8625(7) 0.3409(5)
C8_2 C 0.7590(18) 0.9025(7) 0.2895(5)
H10_2 H 0.8960 0.9324 0.2868
C9_2 C 0.5909(19) 0.8999(7) 0.2402(5)
C10_2 C 0.3910(18) 0.8575(7) 0.2447(5)
C11_2 C 0.3544(19) 0.8174(7) 0.2968(5)
H11_2 H 0.2160 0.7883 0.2991
C12_2 C 0.518(2) 0.8194(7) 0.3454(5)
H12_2 H 0.4912 0.7924 0.3811
C13_2 C 0.9083(18) 0.7115(7) 0.3989(5)
C15_2 C 0.6517(18) 0.9342(7) 0.1820(5)
H13_2 H 0.3493 0.6206 0.3742
H14_2 H 0.3799 0.6113 0.3177
C16_2 C 0.2090(18) 0.8555(7) 0.1924(5)
Zn3 Zn 0.9597(2) 0.87329(8) 0.09148(5)
O17_2 O 0.5999(16) 0.4804(5) 0.4468(4)
H2 H 0.0169 0.9971 0.0404
O10 O 0.2744(14) 0.8484(6) 0.0528(4)
H3 H 0.2949 0.8420 0.0179
H4 H 0.4001 0.8552 0.0714
O3 O 0.8127(16) 0.7758(5) 0.0521(3)
H1 H 0.7973 0.9830 0.0260
H7 H 0.8557 0.6217 0.0213
O3_2 O 0.6873(16) 0.2758(5) 0.4479(3)
O4_2 O 0.6942(16) 0.3352(6) 0.5357(4)
H1_2 H 0.7027 0.4830 0.4740
H2_2 H 0.4831 0.4971 0.4596
O10_2 O 0.2256(14) 0.3484(6) 0.4472(4)
H3_2 H 0.2051 0.3420 0.4821
H4_2 H 0.0999 0.3552 0.4286
O11_2 O 0.9229(17) 0.4742(5) 0.5621(4)
H5_2 H 0.8571 0.5188 0.5560
H6_2 H 0.8262 0.4383 0.5558
C3_2 C 0.8383(18) 0.2006(7) 0.5309(5)
C4_2 C 0.756(2) 0.1252(8) 0.5120(5)
H7_2 H 0.6443 0.1217 0.4787
C5_2 C 0.834(2) 0.0548(8) 0.5408(6)
H8_2 H 0.7727 0.0032 0.5282
C14_2 C 0.7343(18) 0.2766(7) 0.5038(5)
Zn1 Zn 0.0403(2) 0.12671(8) 0.90852(5)
O3_3 O 0.1873(16) 0.2242(5) 0.9479(3)
O9 O 0.0999(16) 0.0196(5) 0.9468(4)
H1_3 H 0.2027 0.0170 0.9740
H7_3 H 0.1443 0.3783 0.9787
O14 O 0.3410(13) 0.1150(5) 0.8598(3)
Zn6 Zn 0.2447(3) 0.94358(8) 0.89764(6)
H2_3 H 0.9831 0.0029 0.9596
O10_3 O 0.7256(14) 0.1516(6) 0.9472(4)
H3_3 H 0.7051 0.1580 0.9821
H4_3 H 0.5999 0.1448 0.9286
O15 O 0.8222(14) 0.0801(6) 0.8381(3)
O16 O 0.8992(14) 0.2086(6) 0.8196(4)
Zn1_2 Zn 0.4597(2) 0.62671(8) 0.59148(5)
O3_4 O 0.3127(16) 0.7242(5) 0.5521(3)
O4_3 O 0.3058(16) 0.6648(6) 0.4643(4)
O9_2 O 0.4001(16) 0.5196(5) 0.5532(4)
H1_4 H 0.2973 0.5170 0.5260
H2_4 H 0.5169 0.5029 0.5404
O10_4 O 0.7744(14) 0.6516(6) 0.5528(4)
H3_4 H 0.7949 0.6580 0.5179
H4_4 H 0.9001 0.6448 0.5714
O11_3 O 0.0771(17) 0.5258(5) 0.4379(4)
H5_3 H 0.1429 0.4812 0.4440
H6_3 H 0.1738 0.5617 0.4442
C3_3 C 0.1617(18) 0.7994(7) 0.4691(5)
C4_3 C 0.244(2) 0.8748(8) 0.4880(5)
H7_4 H 0.3557 0.8783 0.5213
C5_3 C 0.166(2) 0.9452(8) 0.4592(6)
H8_3 H 0.2273 0.9968 0.4718
C14_3 C 0.2657(18) 0.7234(7) 0.4962(5)
Zn6_2 Zn 0.2553(3) 0.44358(8) 0.60236(6)
O14_2 O 0.1590(13) 0.6150(5) 0.6402(3)
O15_2 O 0.6778(14) 0.5801(6) 0.6619(3)
O16_2 O 0.6008(14) 0.7086(6) 0.6804(4)
H5_4 H 0.6429 0.0188 0.9440
O1_3 O 0.2986(14) 0.8319(5) 0.9324(4)
O2_3 O 0.4508(16) 0.8118(5) 0.8488(4)
O4_4 O 0.8058(16) 0.8352(6) 0.9643(4)
O5_2 O 0.1978(14) 0.4898(5) 0.6812(3)
O11_4 O 0.5771(17) 0.9742(5) 0.9379(4)
H6_4 H 0.6738 0.9383 0.9442
C1_3 C 0.4039(18) 0.6351(6) 0.8928(5)
C2_3 C 0.4898(17) 0.7059(7) 0.9205(4)
C3_4 C 0.6617(18) 0.7006(7) 0.9691(5)
C4_4 C 0.744(2) 0.6252(8) 0.9880(5)
C5_4 C 0.666(2) 0.5548(8) 0.9592(6)
H8_4 H 0.7273 0.5032 0.9718
C6_3 C 0.495(2) 0.5596(7) 0.9113(5)
H9_3 H 0.4415 0.5111 0.8914
C7_3 C 0.2262(19) 0.6375(7) 0.8409(5)
C8_3 C 0.2590(18) 0.5975(7) 0.7895(5)
H10_3 H 0.3960 0.5676 0.7868
C9_3 C 0.0909(19) 0.6001(7) 0.7402(5)
C12_3 C 0.018(2) 0.6806(7) 0.8454(5)
C13_3 C 0.4083(18) 0.7885(7) 0.8989(5)
C14_4 C 0.7657(18) 0.7766(7) 0.9962(5)
C15_3 C 0.1517(18) 0.5658(7) 0.6820(5)
O13_2 O 0.3022(14) 0.9898(5) 0.8188(3)
O12_3 O 0.9028(18) 0.9095(6) 0.8505(5)
C10_3 C 0.8910(18) 0.6425(7) 0.7447(5)
C11_3 C 0.8544(19) 0.6826(7) 0.7968(5)
H11_3 H 0.7160 0.7117 0.7991
H12_3 H 0.9912 0.7076 0.8811
H13_3 H 0.8493 0.8794 0.8742
H14_3 H 0.8799 0.8887 0.8177
C16_3 C 0.7090(18) 0.6445(7) 0.6924(5)
O1_4 O 0.2014(14) 0.3319(5) 0.5676(4)
O2_4 O 0.0492(16) 0.3118(5) 0.6512(4)
O12_4 O 0.5972(18) 0.4095(6) 0.6495(5)
C1_4 C 0.0961(18) 0.1351(6) 0.6072(5)
C2_4 C 0.0102(17) 0.2059(7) 0.5795(4)
C6_4 C 0.005(2) 0.0596(7) 0.5887(5)
H9_4 H 0.0585 0.0111 0.6086
C7_4 C 0.2738(19) 0.1375(7) 0.6591(5)
C8_4 C 0.2410(18) 0.0975(7) 0.7105(5)
H10_4 H 0.1040 0.0676 0.7132
C9_4 C 0.4091(19) 0.1001(7) 0.7598(5)
C10_4 C 0.6090(18) 0.1425(7) 0.7553(5)
C11_4 C 0.6456(19) 0.1826(7) 0.7032(5)
H11_4 H 0.7840 0.2117 0.7009
C12_4 C 0.482(2) 0.1806(7) 0.6546(5)
H12_4 H 0.5088 0.2076 0.6189
C13_4 C 0.0917(18) 0.2885(7) 0.6011(5)
C15_4 C 0.3483(18) 0.0658(7) 0.8180(5)
H13_4 H 0.6507 0.3794 0.6258
H14_4 H 0.6201 0.3887 0.6823
C16_4 C 0.7910(18) 0.1445(7) 0.8076(5)
loop_
_geom_bond_atom_site_label_1
_geom_bond_atom_site_label_2
_geom_bond_site_symmetry_1
_geom_bond_site_symmetry_2
O7 C16 1_555 1_555
O8 C16 1_555 1_555
C11 C10 1_555 1_555
H11 C11 1_555 1_555
H13 O12 1_555 1_555
H14 O12 1_555 1_555
C16 C10 1_555 1_555
Zn4 O7 1_555 1_555
O8 Zn4 1_555 1_555
Zn2 O1 1_555 1_555
O1 C13 1_555 1_555
O2 C13 1_555 1_555
O4 C14 1_555 1_555
O5 C15 1_555 1_555
O6 C15 1_555 1_555
O11 Zn2 1_555 1_555
H6 O11 1_555 1_555
C1 C2 1_555 1_555
C2 C3 1_555 1_555
C3 C4 1_555 1_555
C5 C4 1_555 1_555
H8 C5 1_555 1_555
C6 C1 1_555 1_555
H9 C6 1_555 1_555
C7 C1 1_555 1_555
C8 C7 1_555 1_555
H10 C8 1_555 1_555
C9 C8 1_555 1_555
C12 C7 1_555 1_555
C13 C2 1_555 1_555
C14 C3 1_555 1_555
C15 C9 1_555 1_555
Zn4 O6 1_555 1_555
Zn5 O5 1_555 1_555
O13 Zn2 1_555 1_555
C5 C6 1_555 1_555
Zn5 O1_2 1_555 1_555
O1_2 C13_2 1_555 1_555
O2_2 C13_2 1_555 1_555
O6_2 C15_2 1_555 1_555
O7_2 C16_2 1_555 1_555
O8_2 C16_2 1_555 1_555
O12_2 Zn5 1_555 1_555
C1_2 C2_2 1_555 1_555
C6_2 C1_2 1_555 1_555
H9_2 C6_2 1_555 1_555
C7_2 C1_2 1_555 1_555
C8_2 C7_2 1_555 1_555
H10_2 C8_2 1_555 1_555
C9_2 C8_2 1_555 1_555
C10_2 C9_2 1_555 1_555
C11_2 C10_2 1_555 1_555
H11_2 C11_2 1_555 1_555
C12_2 C7_2 1_555 1_555
H12_2 C12_2 1_555 1_555
C13_2 C2_2 1_555 1_555
C15_2 C9_2 1_555 1_555
H13_2 O12_2 1_555 1_555
H14_2 O12_2 1_555 1_555
C16_2 C10_2 1_555 1_555
Zn3 O6_2 1_555 1_555
O17_2 Zn5 1_555 1_555
C11_2 C12_2 1_555 1_555
H3 O10 1_555 1_555
H4 O10 1_555 1_555
Zn3 O3 1_555 1_555
O17 Zn3 1_555 1_555
H1 O17 1_555 1_555
Zn4 O3_2 1_555 1_555
O3_2 C14_2 1_555 1_555
O4_2 C14_2 1_555 1_555
O17_2 Zn4 1_555 1_555
H1_2 O17_2 1_555 1_555
H2_2 O17_2 1_555 1_555
O10_2 Zn4 1_555 1_555
H3_2 O10_2 1_555 1_555
H4_2 O10_2 1_555 1_555
H5_2 O11_2 1_555 1_555
H6_2 O11_2 1_555 1_555
C3_2 C4_2 1_555 1_555
C4_2 H7_2 1_555 1_555
C5_2 C4_2 1_555 1_555
H8_2 C5_2 1_555 1_555
C14_2 C3_2 1_555 1_555
Zn1 O3_3 1_555 1_555
O9 Zn1 1_555 1_555
H1_3 O9 1_555 1_555
O14 Zn1 1_555 1_555
H3_3 O10_3 1_555 1_555
H4_3 O10_3 1_555 1_555
Zn1_2 O3_4 1_555 1_555
O3_4 C14_3 1_555 1_555
O4_3 C14_3 1_555 1_555
O9_2 Zn1_2 1_555 1_555
H1_4 O9_2 1_555 1_555
H2_4 O9_2 1_555 1_555
O10_4 Zn1_2 1_555 1_555
H3_4 O10_4 1_555 1_555
H4_4 O10_4 1_555 1_555
H5_3 O11_3 1_555 1_555
H6_3 O11_3 1_555 1_555
C3_3 C4_3 1_555 1_555
C4_3 H7_4 1_555 1_555
C5_3 C4_3 1_555 1_555
H8_3 C5_3 1_555 1_555
C14_3 C3_3 1_555 1_555
Zn6_2 O9_2 1_555 1_555
O14_2 Zn1_2 1_555 1_555
O15_2 Zn1_2 1_555 1_555
O16_2 Zn1_2 1_555 1_555
Zn6 O1_3 1_555 1_555
O1_3 C13_3 1_555 1_555
O2_3 C13_3 1_555 1_555
O4_4 C14_4 1_555 1_555
O5_2 C15_3 1_555 1_555
O14_2 C15_3 1_555 1_555
O11_4 Zn6 1_555 1_555
H6_4 O11_4 1_555 1_555
C1_3 C2_3 1_555 1_555
C2_3 C3_4 1_555 1_555
C3_4 C4_4 1_555 1_555
C5_4 C4_4 1_555 1_555
H8_4 C5_4 1_555 1_555
C6_3 C1_3 1_555 1_555
H9_3 C6_3 1_555 1_555
C7_3 C1_3 1_555 1_555
C8_3 C7_3 1_555 1_555
H10_3 C8_3 1_555 1_555
C9_3 C8_3 1_555 1_555
C12_3 C7_3 1_555 1_555
C13_3 C2_3 1_555 1_555
C14_4 C3_4 1_555 1_555
C15_3 C9_3 1_555 1_555
Zn6_2 O5_2 1_555 1_555
O13_2 Zn6 1_555 1_555
C5_4 C6_3 1_555 1_555
O15_2 C16_3 1_555 1_555
O16_2 C16_3 1_555 1_555
C11_3 C10_3 1_555 1_555
H11_3 C11_3 1_555 1_555
H13_3 O12_3 1_555 1_555
H14_3 O12_3 1_555 1_555
C16_3 C10_3 1_555 1_555
Zn6_2 O1_4 1_555 1_555
O1_4 C13_4 1_555 1_555
O2_4 C13_4 1_555 1_555
O14 C15_4 1_555 1_555
O15 C16_4 1_555 1_555
O16 C16_4 1_555 1_555
O12_4 Zn6_2 1_555 1_555
C1_4 C2_4 1_555 1_555
C6_4 C1_4 1_555 1_555
H9_4 C6_4 1_555 1_555
C7_4 C1_4 1_555 1_555
C8_4 C7_4 1_555 1_555
H10_4 C8_4 1_555 1_555
C9_4 C8_4 1_555 1_555
C10_4 C9_4 1_555 1_555
C11_4 C10_4 1_555 1_555
H11_4 C11_4 1_555 1_555
C12_4 C7_4 1_555 1_555
H12_4 C12_4 1_555 1_555
C13_4 C2_4 1_555 1_555
C15_4 C9_4 1_555 1_555
H13_4 O12_4 1_555 1_555
H14_4 O12_4 1_555 1_555
C16_4 C10_4 1_555 1_555
C11_4 C12_4 1_555 1_555

#END
