
###############################################################################
#
# This file contains modified crystal structure data generated from the
# MOF subset of the Cambridge Structural Database (CSD) v543 
# hosted by the Cambridge Crystallographic Data Centre (CCDC).
#
# This work is licensed under the Creative Commons
# Attribution-NonCommercial-ShareAlike 4.0 International License.
# To view a copy of this license, visit
# http://creativecommons.org/licenses/by-nc-sa/4.0/
# or send a letter to
# Creative Commons, PO Box 1866, Mountain View, CA 94042, USA.
#
# CIF created using the CSD Python API on 29 September 2022
# The structure has been converted into the P1 space group
# The structure has a 3D framework
# The original CSD entry BIHVUM is in the monoclinic crystal system
# The original CSD entry BIHVUM is in a Sohncke space group
# The framework has been calculated to contain at least 10.0% void space
# The void calculation uses a probe of radius 1.32A, grid spacing 0.4
# H atom positions have been added when not included in the experimental data
# Generated hydrogen atom positions removed from atoms on special positions
#
###############################################################################

data_BIHVUM
_chemical_formula_moiety         '(C24 H40 Ba4 N8 O28)n'
_symmetry_cell_setting           triclinic
_symmetry_space_group_name_H-M   'P 1'
_symmetry_Int_Tables_number      1
_space_group_name_Hall           'P 1'
loop_
_symmetry_equiv_pos_site_id
_symmetry_equiv_pos_as_xyz
1 x,y,z
_cell_length_a                   11.7030(6)
_cell_length_b                   16.1087(8)
_cell_length_c                   7.3641(5)
_cell_angle_alpha                90
_cell_angle_beta                 116.030(8)
_cell_angle_gamma                90
_cell_volume                     1247.46
loop_
_atom_site_label
_atom_site_type_symbol
_atom_site_fract_x
_atom_site_fract_y
_atom_site_fract_z
O6 O 0.0000 0.0375(10) 0.5000
O8 O 0.0000 0.2426(7) 0.5000
O9 O 0.1163(11) 0.0530(7) 0.1855(19)
O13 O 0.3739(4) 0.1462(14) 0.0881(8)
Ba3 Ba 0.113531(18) 0.14383(18) 0.85042(3)
O15 O 0.1159(12) 0.2284(6) 0.1866(17)
O14 O 0.2643(4) 0.1426(12) 0.6000(6)
N5 N 0.2047(13) 0.3131(8) 0.9471(18)
O10 O 0.1158(10) 0.9388(10) 0.3427(14)
N4 N 0.2953(13) 0.8131(8) 0.0529(18)
C7 C 0.1377(12) 0.9784(8) 0.2267(19)
C8 C 0.1980(12) 0.9328(8) 0.1065(18)
C9 C 0.2512(16) 0.8561(9) 0.152(2)
H3 H 0.2557 0.8321 0.2696
Ba5 Ba 0.386469(18) 0.64383(18) 0.14958(3)
O11 O 0.3841(12) 0.7284(6) 0.8134(17)
O12 O 0.3924(10) 0.8523(12) 0.6698(17)
N3 N 0.2022(14) 0.9739(8) 0.946(3)
C10 C 0.3014(10) 0.8504(6) 0.9002(18)
C11 C 0.2594(14) 0.9348(7) 0.8426(19)
C12 C 0.3656(15) 0.8068(9) 0.789(2)
H4 H 0.2706 0.9614 0.7395
Ba7 Ba 0.613531(18) 0.64383(18) 0.85042(3)
Ba1 Ba 0.886469(18) 0.14383(18) 0.14958(3)
O6_2 O 1.0000 0.0375(10) 0.5000
O7 O 0.7357(4) 0.1426(12) 0.4000(6)
O8_2 O 1.0000 0.2426(7) 0.5000
N6 N 0.7953(13) 0.3131(8) 0.0529(18)
O1 O 0.8837(11) 0.0530(7) 0.8145(19)
O5 O 0.6261(4) 0.1462(14) 0.9119(8)
O16 O 0.8841(12) 0.2284(6) 0.8134(17)
O3 O 0.6159(12) 0.7284(6) 0.1866(17)
O4 O 0.6076(10) 0.8523(12) 0.3302(17)
N1 N 0.7978(14) 0.9739(8) 0.054(3)
C4 C 0.6986(10) 0.8504(6) 0.0998(18)
C5 C 0.7406(14) 0.9348(7) 0.1574(19)
C6 C 0.6344(15) 0.8068(9) 0.211(2)
H2 H 0.7294 0.9614 0.2605
O2 O 0.8842(10) 0.9388(10) 0.6573(14)
N2 N 0.7047(13) 0.8131(8) 0.9471(18)
C1 C 0.8623(12) 0.9784(8) 0.7733(19)
C2 C 0.8020(12) 0.9328(8) 0.8935(18)
C3 C 0.7488(16) 0.8561(9) 0.848(2)
H1 H 0.7443 0.8321 0.7304
O4_2 O 0.1076(10) 0.3523(12) 0.3302(17)
O6_3 O 0.5000 0.5375(10) 0.5000
O7_2 O 0.2357(4) 0.6426(12) 0.4000(6)
O8_3 O 0.5000 0.7426(7) 0.5000
N1_2 N 0.2978(14) 0.4739(8) 0.054(3)
C4_2 C 0.1986(10) 0.3504(6) 0.0998(18)
C5_2 C 0.2406(14) 0.4348(7) 0.1574(19)
C6_2 C 0.1344(15) 0.3068(9) 0.211(2)
H2_2 H 0.2294 0.4614 0.2605
O9_2 O 0.6163(11) 0.5530(7) 0.1855(19)
O10_2 O 0.6158(10) 0.4388(10) 0.3427(14)
O13_2 O 0.8739(4) 0.6462(14) 0.0881(8)
C7_2 C 0.6377(12) 0.4784(8) 0.2267(19)
C8_2 C 0.6980(12) 0.4328(8) 0.1065(18)
C9_2 C 0.7512(16) 0.3561(9) 0.152(2)
H3_2 H 0.7557 0.3321 0.2696
O1_2 O 0.3837(11) 0.5530(7) 0.8145(19)
O2_2 O 0.3842(10) 0.4388(10) 0.6573(14)
O5_2 O 0.1261(4) 0.6462(14) 0.9119(8)
C1_2 C 0.3623(12) 0.4784(8) 0.7733(19)
C2_2 C 0.3020(12) 0.4328(8) 0.8935(18)
C3_2 C 0.2488(16) 0.3561(9) 0.848(2)
H1_2 H 0.2443 0.3321 0.7304
O12_2 O 0.8924(10) 0.3523(12) 0.6698(17)
O14_2 O 0.7643(4) 0.6426(12) 0.6000(6)
N3_2 N 0.7022(14) 0.4739(8) 0.946(3)
C10_2 C 0.8014(10) 0.3504(6) 0.9002(18)
C11_2 C 0.7594(14) 0.4348(7) 0.8426(19)
C12_2 C 0.8656(15) 0.3068(9) 0.789(2)
H4_2 H 0.7706 0.4614 0.7395
loop_
_geom_bond_atom_site_label_1
_geom_bond_atom_site_label_2
_geom_bond_site_symmetry_1
_geom_bond_site_symmetry_2
Ba3 O6 1_555 1_555
O8 Ba3 1_555 1_555
O14 Ba3 1_555 1_555
N5 Ba3 1_555 1_555
O10 C7 1_555 1_555
N4 C9 1_555 1_555
C9 C8 1_555 1_555
H3 C9 1_555 1_555
N4 Ba5 1_555 1_555
C7 C8 1_555 1_555
O11 C12 1_555 1_555
O12 C12 1_555 1_555
C11 N3 1_555 1_555
C12 C10 1_555 1_555
H4 C11 1_555 1_555
Ba7 O11 1_555 1_555
C10 C11 1_555 1_555
O6_2 Ba1 1_555 1_555
O7 Ba1 1_555 1_555
O8_2 Ba1 1_555 1_555
N6 Ba1 1_555 1_555
O3 C6 1_555 1_555
O4 C6 1_555 1_555
C5 N1 1_555 1_555
C6 C4 1_555 1_555
H2 C5 1_555 1_555
Ba5 O3 1_555 1_555
C4 C5 1_555 1_555
O2 C1 1_555 1_555
N2 C3 1_555 1_555
C1 C2 1_555 1_555
C3 C2 1_555 1_555
H1 C3 1_555 1_555
N2 Ba7 1_555 1_555
O15 C6_2 1_555 1_555
O4_2 C6_2 1_555 1_555
O6_3 Ba5 1_555 1_555
O7_2 Ba5 1_555 1_555
O8_3 Ba5 1_555 1_555
N1_2 Ba5 1_555 1_555
C5_2 N1_2 1_555 1_555
C6_2 C4_2 1_555 1_555
H2_2 C5_2 1_555 1_555
O9_2 Ba5 1_555 1_555
O10_2 C7_2 1_555 1_555
N6 C9_2 1_555 1_555
C7_2 O9_2 1_555 1_555
C9_2 C8_2 1_555 1_555
H3_2 C9_2 1_555 1_555
Ba7 O6_3 1_555 1_555
O8_3 Ba7 1_555 1_555
C4_2 C5_2 1_555 1_555
C7_2 C8_2 1_555 1_555
O1_2 C1_2 1_555 1_555
O2_2 C1_2 1_555 1_555
N5 C3_2 1_555 1_555
C1_2 C2_2 1_555 1_555
C3_2 C2_2 1_555 1_555
H1_2 C3_2 1_555 1_555
Ba7 O1_2 1_555 1_555
O16 C12_2 1_555 1_555
O12_2 C12_2 1_555 1_555
O14_2 Ba7 1_555 1_555
N3_2 Ba7 1_555 1_555
C11_2 N3_2 1_555 1_555
C12_2 C10_2 1_555 1_555
H4_2 C11_2 1_555 1_555
C10_2 C11_2 1_555 1_555

#END
