
###############################################################################
#
# This file contains modified crystal structure data generated from the
# MOF subset of the Cambridge Structural Database (CSD) v543 
# hosted by the Cambridge Crystallographic Data Centre (CCDC).
#
# This work is licensed under the Creative Commons
# Attribution-NonCommercial-ShareAlike 4.0 International License.
# To view a copy of this license, visit
# http://creativecommons.org/licenses/by-nc-sa/4.0/
# or send a letter to
# Creative Commons, PO Box 1866, Mountain View, CA 94042, USA.
#
# CIF created using the CSD Python API on 29 September 2022
# The structure has been converted into the P1 space group
# The structure has a 3D framework
# The original CSD entry BIMPEV is in the monoclinic crystal system
# The framework has been calculated to contain at least 10.0% void space
# The void calculation uses a probe of radius 1.32A, grid spacing 0.4
#
###############################################################################

data_BIMPEV
_chemical_formula_moiety         '(C112 H72 Co4 N16 O22)n'
_symmetry_cell_setting           triclinic
_symmetry_space_group_name_H-M   'P 1'
_symmetry_Int_Tables_number      1
_space_group_name_Hall           'P 1'
loop_
_symmetry_equiv_pos_site_id
_symmetry_equiv_pos_as_xyz
1 x,y,z
_cell_length_a                   11.386(2)
_cell_length_b                   23.961(5)
_cell_length_c                   14.850(3)
_cell_angle_alpha                90
_cell_angle_beta                 104.161(15)
_cell_angle_gamma                90
_cell_volume                     3928.26
loop_
_atom_site_label
_atom_site_type_symbol
_atom_site_fract_x
_atom_site_fract_y
_atom_site_fract_z
C4 C 0.1585(5) 0.4010(3) 0.0205(4)
H3 H 0.1375 0.3860 0.0721
C5 C 0.2777(5) 0.4026(3) 0.0191(4)
H4 H 0.3345 0.3886 0.0701
N2 N 0.3160(3) 0.42267(17) 0.9505(3)
C2 C 0.0713(4) 0.4200(2) 0.9507(4)
C15 C 0.1114(5) 0.4423(3) 0.8803(5)
H10 H 0.0559 0.4584 0.8306
C19 C 0.2331(5) 0.4419(3) 0.8802(5)
H13 H 0.2565 0.4556 0.8286
Co2 Co 0.50683(5) 0.41982(3) 0.95140(5)
O1 O 0.4928(3) 0.00968(14) 0.3807(2)
N3 N 0.3798(4) 0.03047(19) 0.0361(3)
H2 H 0.4210 0.0590 0.0613
H7 H 0.4401 0.0294 0.2136
C11 C 0.7756(5) 0.3929(3) 0.0122(5)
H8 H 0.7494 0.3752 0.0595
C13 C 0.8986(5) 0.3891(4) 0.0146(5)
H9 H 0.9502 0.3671 0.0588
Co4 Co 0.50683(5) 0.08018(3) 0.45140(5)
O8 O 0.5578(3) 0.42283(14) 0.0908(2)
N1 N 0.6946(3) 0.41888(17) 0.9499(3)
C1 C 0.9421(4) 0.4190(2) 0.9495(4)
O3 O 0.4938(3) 0.33188(15) 0.9536(3)
O4 O 0.4549(4) 0.37053(15) 0.8167(3)
C3 C 0.8575(4) 0.4442(3) 0.8832(4)
H1 H 0.8799 0.4624 0.8347
C7 C 0.7352(5) 0.4433(3) 0.8865(4)
H5 H 0.6796 0.4617 0.8395
C8 C 0.3241(6) 0.0800(3) 0.8866(4)
N4 N 0.3748(5) 0.1321(2) 0.9058(3)
H6 H 0.4097 0.1386 0.9630
C14 C 0.4593(5) 0.3292(3) 0.8651(5)
C16 C 0.4148(5) 0.2284(2) 0.8817(4)
H11 H 0.4365 0.2327 0.9459
C17 C 0.3766(7) 0.1764(3) 0.8430(5)
C20 C 0.2549(8) 0.0014(3) 0.8691(5)
C21 C 0.4203(6) 0.2723(3) 0.8263(5)
C22 C 0.3290(6) 0.0348(2) 0.9459(5)
C23 C 0.3479(10) 0.2130(3) 0.6976(6)
H14 H 0.3236 0.2087 0.6335
C24 C 0.3444(9) 0.1689(3) 0.7521(6)
H15 H 0.3201 0.1341 0.7267
C27 C 0.3874(8) 0.2659(3) 0.7345(6)
H18 H 0.3903 0.2959 0.6952
O6 O 0.1984(8) 0.0621(2) 0.7296(4)
C28 C 0.2497(8) 0.0511(3) 0.8073(6)
O7 O 0.4928(3) 0.49032(14) 0.8807(2)
O2 O 0.4422(3) 0.92283(14) 0.4092(2)
C6 C 0.3753(5) 0.9849(3) 0.0970(4)
C9 C 0.4105(4) 0.9515(2) 0.2534(4)
C10 C 0.4130(4) 0.9942(2) 0.1916(4)
C12 C 0.4513(4) 0.9623(3) 0.3554(4)
C18 C 0.3695(6) 0.8990(3) 0.2189(5)
H12 H 0.3655 0.8697 0.2591
C25 C 0.3316(7) 0.9332(3) 0.0619(5)
C26 C 0.3347(7) 0.8914(3) 0.1236(5)
H17 H 0.3124 0.8557 0.1010
Co3 Co 0.49317(5) 0.91982(3) 0.54860(5)
N1_2 N 0.3054(3) 0.91888(17) 0.5501(3)
C1_2 C 0.0579(4) 0.9190(2) 0.5505(4)
O1_2 O 0.5072(3) 0.50968(14) 0.1193(2)
O3_2 O 0.5062(3) 0.83188(15) 0.5464(3)
O4_2 O 0.5451(4) 0.87053(15) 0.6833(3)
C3_2 C 0.1425(4) 0.9442(3) 0.6168(4)
H1_2 H 0.1201 0.9624 0.6653
N3_2 N 0.6202(4) 0.53047(19) 0.4639(3)
H2_2 H 0.5790 0.5590 0.4387
C6_2 C 0.6247(5) 0.4849(3) 0.4030(4)
C7_2 C 0.2648(5) 0.9433(3) 0.6135(4)
H5_2 H 0.3204 0.9617 0.6605
C8_2 C 0.6759(6) 0.5800(3) 0.6134(4)
N4_2 N 0.6252(5) 0.6321(2) 0.5942(3)
H6_2 H 0.5903 0.6386 0.5370
C9_2 C 0.5895(4) 0.4515(2) 0.2466(4)
C10_2 C 0.5870(4) 0.4942(2) 0.3084(4)
H7_2 H 0.5599 0.5294 0.2864
C11_2 C 0.2244(5) 0.8929(3) 0.4878(5)
H8_2 H 0.2506 0.8752 0.4405
O5 O 0.7863(7) 0.4552(2) 0.6415(3)
C12_2 C 0.5487(4) 0.4623(3) 0.1446(4)
C13_2 C 0.1014(5) 0.8891(4) 0.4854(5)
H9_2 H 0.0498 0.8671 0.4412
C14_2 C 0.5407(5) 0.8292(3) 0.6349(5)
C16_2 C 0.5852(5) 0.7284(2) 0.6183(4)
H11_2 H 0.5635 0.7327 0.5541
C17_2 C 0.6234(7) 0.6764(3) 0.6570(5)
C18_2 C 0.6305(6) 0.3990(3) 0.2811(5)
H12_2 H 0.6345 0.3697 0.2409
C20_2 C 0.7451(8) 0.5014(3) 0.6309(5)
C21_2 C 0.5797(6) 0.7723(3) 0.6737(5)
C22_2 C 0.6710(6) 0.5348(2) 0.5541(5)
C23_2 C 0.6521(10) 0.7130(3) 0.8024(6)
H14_2 H 0.6764 0.7087 0.8665
C24_2 C 0.6556(9) 0.6689(3) 0.7479(6)
H15_2 H 0.6799 0.6341 0.7733
C25_2 C 0.6684(7) 0.4332(3) 0.4381(5)
H16 H 0.6986 0.4276 0.5015
C26_2 C 0.6653(7) 0.3914(3) 0.3764(5)
H17_2 H 0.6876 0.3557 0.3990
C27_2 C 0.6126(8) 0.7659(3) 0.7655(6)
H18_2 H 0.6097 0.7959 0.8048
O6_2 O 0.8016(8) 0.5621(2) 0.7704(4)
C28_2 C 0.7503(8) 0.5511(3) 0.6927(6)
Co4_2 Co 0.49317(5) 0.58018(3) 0.04860(5)
N5 N 0.6840(3) 0.92267(17) 0.5495(3)
O7_2 O 0.5072(3) 0.99032(14) 0.6193(2)
C2_2 C 0.9287(4) 0.9200(2) 0.5493(4)
C4_2 C 0.8415(5) 0.9010(3) 0.4795(4)
H3_2 H 0.8625 0.8860 0.4279
C5_2 C 0.7223(5) 0.9026(3) 0.4809(4)
H4_2 H 0.6655 0.8886 0.4299
C15_2 C 0.8886(5) 0.9423(3) 0.6197(5)
H10_2 H 0.9441 0.9584 0.6694
C19_2 C 0.7669(5) 0.9419(3) 0.6198(5)
H13_2 H 0.7435 0.9556 0.6714
O2_2 O 0.5578(3) 0.07717(14) 0.5908(2)
C6_3 C 0.6247(5) 0.0151(3) 0.9030(4)
C9_3 C 0.5895(4) 0.0485(2) 0.7466(4)
C10_3 C 0.5870(4) 0.0058(2) 0.8084(4)
C12_3 C 0.5487(4) 0.0377(3) 0.6446(4)
C18_3 C 0.6305(6) 0.1010(3) 0.7811(5)
H12_3 H 0.6345 0.1303 0.7409
C25_3 C 0.6684(7) 0.0668(3) 0.9381(5)
C26_3 C 0.6653(7) 0.1086(3) 0.8764(5)
H17_3 H 0.6876 0.1443 0.8990
N1_3 N 0.3054(3) 0.58112(17) 0.0501(3)
C1_3 C 0.0579(4) 0.5810(2) 0.0505(4)
O3_3 O 0.5062(3) 0.66812(15) 0.0464(3)
O4_3 O 0.5451(4) 0.62947(15) 0.1833(3)
C3_3 C 0.1425(4) 0.5558(3) 0.1168(4)
H1_3 H 0.1201 0.5376 0.1653
C7_3 C 0.2648(5) 0.5567(3) 0.1135(4)
H5_3 H 0.3204 0.5383 0.1605
C8_3 C 0.6759(6) 0.9200(3) 0.1134(4)
N4_3 N 0.6252(5) 0.8679(2) 0.0942(3)
H6_3 H 0.5903 0.8614 0.0370
C14_3 C 0.5407(5) 0.6708(3) 0.1349(5)
C16_3 C 0.5852(5) 0.7716(2) 0.1183(4)
H11_3 H 0.5635 0.7673 0.0541
C17_3 C 0.6234(7) 0.8236(3) 0.1570(5)
C20_3 C 0.7451(8) 0.9986(3) 0.1309(5)
C21_3 C 0.5797(6) 0.7277(3) 0.1737(5)
C22_3 C 0.6710(6) 0.9652(2) 0.0541(5)
C23_3 C 0.6521(10) 0.7870(3) 0.3024(6)
H14_3 H 0.6764 0.7913 0.3665
C24_3 C 0.6556(9) 0.8311(3) 0.2479(6)
H15_3 H 0.6799 0.8659 0.2733
C27_3 C 0.6126(8) 0.7341(3) 0.2655(6)
H18_3 H 0.6097 0.7041 0.3048
O6_3 O 0.8016(8) 0.9379(2) 0.2704(4)
C28_3 C 0.7503(8) 0.9489(3) 0.1927(6)
N5_2 N 0.6840(3) 0.57733(17) 0.0495(3)
N3_3 N 0.6202(4) 0.96953(19) 0.9639(3)
H2_3 H 0.5790 0.9410 0.9387
H7_3 H 0.5599 0.9706 0.7864
C11_3 C 0.2244(5) 0.6071(3) 0.9878(5)
H8_3 H 0.2506 0.6248 0.9405
C13_3 C 0.1014(5) 0.6109(4) 0.9854(5)
H9_3 H 0.0498 0.6329 0.9412
O8_2 O 0.4422(3) 0.57717(14) 0.9092(2)
C2_3 C 0.9287(4) 0.5800(2) 0.0493(4)
C15_3 C 0.8886(5) 0.5577(3) 0.1197(5)
H10_3 H 0.9441 0.5416 0.1694
C19_3 C 0.7669(5) 0.5581(3) 0.1198(5)
H13_3 H 0.7435 0.5444 0.1714
N2_2 N 0.3160(3) 0.07733(17) 0.4505(3)
C2_4 C 0.0713(4) 0.0800(2) 0.4507(4)
C4_3 C 0.1585(5) 0.0990(3) 0.5205(4)
H3_3 H 0.1375 0.1140 0.5721
C5_3 C 0.2777(5) 0.0974(3) 0.5191(4)
H4_3 H 0.3345 0.1114 0.5701
C15_4 C 0.1114(5) 0.0577(3) 0.3803(5)
H10_4 H 0.0559 0.0416 0.3306
C19_4 C 0.2331(5) 0.0581(3) 0.3802(5)
H13_4 H 0.2565 0.0444 0.3286
N1_4 N 0.6946(3) 0.08112(17) 0.4499(3)
C1_4 C 0.9421(4) 0.0810(2) 0.4495(4)
O3_4 O 0.4938(3) 0.16812(15) 0.4536(3)
O4_4 O 0.4549(4) 0.12947(15) 0.3167(3)
C3_4 C 0.8575(4) 0.0558(3) 0.3832(4)
H1_4 H 0.8799 0.0376 0.3347
N3_4 N 0.3798(4) 0.46953(19) 0.5361(3)
H2_4 H 0.4210 0.4410 0.5613
C6_4 C 0.3753(5) 0.5151(3) 0.5970(4)
C7_4 C 0.7352(5) 0.0567(3) 0.3865(4)
H5_4 H 0.6796 0.0383 0.3395
C8_4 C 0.3241(6) 0.4200(3) 0.3866(4)
N4_4 N 0.3748(5) 0.3679(2) 0.4058(3)
H6_4 H 0.4097 0.3614 0.4630
C9_4 C 0.4105(4) 0.5485(2) 0.7534(4)
C10_4 C 0.4130(4) 0.5058(2) 0.6916(4)
H7_4 H 0.4401 0.4706 0.7136
C11_4 C 0.7756(5) 0.1071(3) 0.5122(5)
H8_4 H 0.7494 0.1248 0.5595
O5_2 O 0.2137(7) 0.5448(2) 0.3585(3)
C12_4 C 0.4513(4) 0.5377(3) 0.8554(4)
C13_4 C 0.8986(5) 0.1109(4) 0.5146(5)
H9_4 H 0.9502 0.1329 0.5588
C14_4 C 0.4593(5) 0.1708(3) 0.3651(5)
C16_4 C 0.4148(5) 0.2716(2) 0.3817(4)
H11_4 H 0.4365 0.2673 0.4459
C17_4 C 0.3766(7) 0.3236(3) 0.3430(5)
C18_4 C 0.3695(6) 0.6010(3) 0.7189(5)
H12_4 H 0.3655 0.6303 0.7591
C20_4 C 0.2549(8) 0.4986(3) 0.3691(5)
C21_4 C 0.4203(6) 0.2277(3) 0.3263(5)
C22_4 C 0.3290(6) 0.4652(2) 0.4459(5)
C23_4 C 0.3479(10) 0.2870(3) 0.1976(6)
H14_4 H 0.3236 0.2913 0.1335
C24_4 C 0.3444(9) 0.3311(3) 0.2521(6)
H15_4 H 0.3201 0.3659 0.2267
C25_4 C 0.3316(7) 0.5668(3) 0.5619(5)
H16_2 H 0.3014 0.5724 0.4985
C26_4 C 0.3347(7) 0.6086(3) 0.6236(5)
H17_4 H 0.3124 0.6443 0.6010
C27_4 C 0.3874(8) 0.2341(3) 0.2345(6)
H18_4 H 0.3903 0.2041 0.1952
O6_4 O 0.1984(8) 0.4379(2) 0.2296(4)
C28_4 C 0.2497(8) 0.4489(3) 0.3073(6)
O5_3 O 0.2137(7) 0.9552(2) 0.8585(3)
H16_3 H 0.3014 0.9276 0.9985
O5_4 O 0.7863(7) 0.0448(2) 0.1415(3)
H16_4 H 0.6986 0.0724 0.0015
C4_4 C 0.8415(5) 0.5990(3) 0.9795(4)
H3_4 H 0.8625 0.6140 0.9279
C5_4 C 0.7223(5) 0.5974(3) 0.9809(4)
H4_4 H 0.6655 0.6114 0.9299
loop_
_geom_bond_atom_site_label_1
_geom_bond_atom_site_label_2
_geom_bond_site_symmetry_1
_geom_bond_site_symmetry_2
C4 H3 1_555 1_555
C5 C4 1_555 1_555
H4 C5 1_555 1_555
C15 C2 1_555 1_555
H10 C15 1_555 1_555
C19 N2 1_555 1_555
H13 C19 1_555 1_555
Co2 N2 1_555 1_555
C15 C19 1_555 1_555
N3 H2 1_555 1_555
H8 C11 1_555 1_555
H9 C13 1_555 1_555
Co4 O1 1_555 1_555
C11 C13 1_555 1_555
Co2 N1 1_555 1_555
N1 C7 1_555 1_555
O3 Co2 1_555 1_555
O4 Co2 1_555 1_555
C3 C1 1_555 1_555
H1 C3 1_555 1_555
C7 C3 1_555 1_555
H5 C7 1_555 1_555
C8 N4 1_555 1_555
N4 H6 1_555 1_555
C14 O3 1_555 1_555
C16 H11 1_555 1_555
C17 N4 1_555 1_555
C20 C22 1_555 1_555
C21 C14 1_555 1_555
C23 H14 1_555 1_555
C24 C17 1_555 1_555
H15 C24 1_555 1_555
C27 C21 1_555 1_555
H18 C27 1_555 1_555
O6 C28 1_555 1_555
C28 C8 1_555 1_555
O7 Co2 1_555 1_555
O4 C14 1_555 1_555
C8 C22 1_555 1_555
C16 C17 1_555 1_555
C16 C21 1_555 1_555
C20 C28 1_555 1_555
C23 C24 1_555 1_555
C23 C27 1_555 1_555
O2 C12 1_555 1_555
C9 C10 1_555 1_555
C10 C6 1_555 1_555
C12 C9 1_555 1_555
C18 C9 1_555 1_555
H12 C18 1_555 1_555
C25 C6 1_555 1_555
C26 C18 1_555 1_555
H17 C26 1_555 1_555
Co3 O2 1_555 1_555
C25 C26 1_555 1_555
Co3 N1_2 1_555 1_555
N1_2 C7_2 1_555 1_555
O1_2 C12_2 1_555 1_555
O8 C12_2 1_555 1_555
O3_2 Co3 1_555 1_555
O4_2 Co3 1_555 1_555
C3_2 C1_2 1_555 1_555
H1_2 C3_2 1_555 1_555
N3_2 H2_2 1_555 1_555
C6_2 N3_2 1_555 1_555
C7_2 C3_2 1_555 1_555
H5_2 C7_2 1_555 1_555
C8_2 N4_2 1_555 1_555
N4_2 H6_2 1_555 1_555
C9_2 C10_2 1_555 1_555
C10_2 C6_2 1_555 1_555
H7_2 C10_2 1_555 1_555
C11_2 N1_2 1_555 1_555
H8_2 C11_2 1_555 1_555
O5 C20_2 1_555 1_555
C12_2 C9_2 1_555 1_555
C13_2 C1_2 1_555 1_555
H9_2 C13_2 1_555 1_555
C14_2 O3_2 1_555 1_555
C16_2 H11_2 1_555 1_555
C17_2 N4_2 1_555 1_555
C18_2 C9_2 1_555 1_555
H12_2 C18_2 1_555 1_555
C20_2 C22_2 1_555 1_555
C21_2 C14_2 1_555 1_555
C22_2 N3_2 1_555 1_555
C23_2 H14_2 1_555 1_555
C24_2 C17_2 1_555 1_555
H15_2 C24_2 1_555 1_555
C25_2 C6_2 1_555 1_555
H16 C25_2 1_555 1_555
C26_2 C18_2 1_555 1_555
H17_2 C26_2 1_555 1_555
C27_2 C21_2 1_555 1_555
H18_2 C27_2 1_555 1_555
O6_2 C28_2 1_555 1_555
C28_2 C8_2 1_555 1_555
Co4_2 O1_2 1_555 1_555
N5 Co3 1_555 1_555
O7_2 Co3 1_555 1_555
O4_2 C14_2 1_555 1_555
C8_2 C22_2 1_555 1_555
C11_2 C13_2 1_555 1_555
C16_2 C17_2 1_555 1_555
C16_2 C21_2 1_555 1_555
C20_2 C28_2 1_555 1_555
C23_2 C24_2 1_555 1_555
C23_2 C27_2 1_555 1_555
C25_2 C26_2 1_555 1_555
N5 C5_2 1_555 1_555
C2_2 C4_2 1_555 1_555
C4_2 H3_2 1_555 1_555
C5_2 C4_2 1_555 1_555
H4_2 C5_2 1_555 1_555
C15_2 C2_2 1_555 1_555
H10_2 C15_2 1_555 1_555
C19_2 N5 1_555 1_555
H13_2 C19_2 1_555 1_555
C15_2 C19_2 1_555 1_555
O2_2 C12_3 1_555 1_555
C9_3 C10_3 1_555 1_555
C10_3 C6_3 1_555 1_555
C12_3 C9_3 1_555 1_555
C18_3 C9_3 1_555 1_555
H12_3 C18_3 1_555 1_555
C25_3 C6_3 1_555 1_555
C26_3 C18_3 1_555 1_555
H17_3 C26_3 1_555 1_555
Co4 O2_2 1_555 1_555
C25_3 C26_3 1_555 1_555
Co4_2 N1_3 1_555 1_555
N1_3 C7_3 1_555 1_555
O3_3 Co4_2 1_555 1_555
O4_3 Co4_2 1_555 1_555
C3_3 C1_3 1_555 1_555
H1_3 C3_3 1_555 1_555
C7_3 C3_3 1_555 1_555
H5_3 C7_3 1_555 1_555
C8_3 N4_3 1_555 1_555
N4_3 H6_3 1_555 1_555
C14_3 O3_3 1_555 1_555
C16_3 H11_3 1_555 1_555
C17_3 N4_3 1_555 1_555
C20_3 C22_3 1_555 1_555
C21_3 C14_3 1_555 1_555
C23_3 H14_3 1_555 1_555
C24_3 C17_3 1_555 1_555
H15_3 C24_3 1_555 1_555
C27_3 C21_3 1_555 1_555
H18_3 C27_3 1_555 1_555
O6_3 C28_3 1_555 1_555
C28_3 C8_3 1_555 1_555
N5_2 Co4_2 1_555 1_555
O4_3 C14_3 1_555 1_555
C8_3 C22_3 1_555 1_555
C16_3 C17_3 1_555 1_555
C16_3 C21_3 1_555 1_555
C20_3 C28_3 1_555 1_555
C23_3 C24_3 1_555 1_555
C23_3 C27_3 1_555 1_555
N3_3 H2_3 1_555 1_555
H8_3 C11_3 1_555 1_555
H9_3 C13_3 1_555 1_555
C11_3 C13_3 1_555 1_555
C15_3 C2_3 1_555 1_555
H10_3 C15_3 1_555 1_555
C19_3 N5_2 1_555 1_555
H13_3 C19_3 1_555 1_555
C15_3 C19_3 1_555 1_555
N2_2 C5_3 1_555 1_555
C2_4 C4_3 1_555 1_555
C4_3 H3_3 1_555 1_555
C5_3 C4_3 1_555 1_555
H4_3 C5_3 1_555 1_555
C15_4 C2_4 1_555 1_555
H10_4 C15_4 1_555 1_555
C19_4 N2_2 1_555 1_555
H13_4 C19_4 1_555 1_555
Co4 N2_2 1_555 1_555
C15_4 C19_4 1_555 1_555
Co4 N1_4 1_555 1_555
N1_4 C7_4 1_555 1_555
O7 C12_4 1_555 1_555
O8_2 C12_4 1_555 1_555
O3_4 Co4 1_555 1_555
O4_4 Co4 1_555 1_555
C3_4 C1_4 1_555 1_555
H1_4 C3_4 1_555 1_555
N3_4 H2_4 1_555 1_555
C6_4 N3_4 1_555 1_555
C7_4 C3_4 1_555 1_555
H5_4 C7_4 1_555 1_555
C8_4 N4_4 1_555 1_555
N4_4 H6_4 1_555 1_555
C9_4 C10_4 1_555 1_555
C10_4 C6_4 1_555 1_555
H7_4 C10_4 1_555 1_555
C11_4 N1_4 1_555 1_555
H8_4 C11_4 1_555 1_555
O5_2 C20_4 1_555 1_555
C12_4 C9_4 1_555 1_555
C13_4 C1_4 1_555 1_555
H9_4 C13_4 1_555 1_555
C14_4 O3_4 1_555 1_555
C16_4 H11_4 1_555 1_555
C17_4 N4_4 1_555 1_555
C18_4 C9_4 1_555 1_555
H12_4 C18_4 1_555 1_555
C20_4 C22_4 1_555 1_555
C21_4 C14_4 1_555 1_555
C22_4 N3_4 1_555 1_555
C23_4 H14_4 1_555 1_555
C24_4 C17_4 1_555 1_555
H15_4 C24_4 1_555 1_555
C25_4 C6_4 1_555 1_555
H16_2 C25_4 1_555 1_555
C26_4 C18_4 1_555 1_555
H17_4 C26_4 1_555 1_555
C27_4 C21_4 1_555 1_555
H18_4 C27_4 1_555 1_555
O6_4 C28_4 1_555 1_555
C28_4 C8_4 1_555 1_555
O4_4 C14_4 1_555 1_555
C8_4 C22_4 1_555 1_555
C11_4 C13_4 1_555 1_555
C16_4 C17_4 1_555 1_555
C16_4 C21_4 1_555 1_555
C20_4 C28_4 1_555 1_555
C23_4 C24_4 1_555 1_555
C23_4 C27_4 1_555 1_555
C25_4 C26_4 1_555 1_555
C4_4 H3_4 1_555 1_555
C5_4 C4_4 1_555 1_555
H4_4 C5_4 1_555 1_555

#END
