
###############################################################################
#
# This file contains modified crystal structure data generated from the
# MOF subset of the Cambridge Structural Database (CSD) v543 
# hosted by the Cambridge Crystallographic Data Centre (CCDC).
#
# This work is licensed under the Creative Commons
# Attribution-NonCommercial-ShareAlike 4.0 International License.
# To view a copy of this license, visit
# http://creativecommons.org/licenses/by-nc-sa/4.0/
# or send a letter to
# Creative Commons, PO Box 1866, Mountain View, CA 94042, USA.
#
# CIF created using the CSD Python API on 29 September 2022
# The structure has been converted into the P1 space group
# The structure has a 3D framework
# The original CSD entry BIPNAS is in the monoclinic crystal system
# The framework has been calculated to contain at least 10.0% void space
# The void calculation uses a probe of radius 1.32A, grid spacing 0.4
# H atom positions have been added when not included in the experimental data
#
###############################################################################

data_BIPNAS
_chemical_formula_moiety         '(C48 H104 Ag8 N24 O76 Pt12)n'
_symmetry_cell_setting           triclinic
_symmetry_space_group_name_H-M   'P 1'
_symmetry_Int_Tables_number      1
_space_group_name_Hall           'P 1'
loop_
_symmetry_equiv_pos_site_id
_symmetry_equiv_pos_as_xyz
1 x,y,z
_cell_length_a                   8.1780(2)
_cell_length_b                   21.7158(4)
_cell_length_c                   18.2590(4)
_cell_angle_alpha                90
_cell_angle_beta                 92.200(7)
_cell_angle_gamma                90
_cell_volume                     3240.26
loop_
_atom_site_label
_atom_site_type_symbol
_atom_site_fract_x
_atom_site_fract_y
_atom_site_fract_z
Ag3 Ag 0.13227(13) 0.29852(5) 0.36220(6)
Pt1 Pt 0.45375(6) 0.36072(2) 0.48253(2)
Pt2 Pt 0.44985(6) 0.41616(2) 0.31841(2)
Pt3 Pt 0.60078(6) 0.28114(2) 0.35091(3)
Ag2 Ag 0.52386(11) 0.62663(4) 0.24321(5)
O1 O 0.4201(9) 0.3382(3) 0.3756(4)
O2 O 0.5453(11) 0.2756(4) 0.5053(4)
O3 O 0.6544(12) 0.1949(4) 0.4663(5)
O4 O 0.5999(11) 0.3147(4) 0.2486(4)
O5 O 0.5481(13) 0.3862(5) 0.1755(5)
O6 O 0.3526(10) 0.4656(4) 0.3990(4)
O7 O 0.3099(11) 0.4763(4) 0.5103(5)
O8 O 0.3737(14) 0.3630(6) 0.6308(6)
O9 O 0.6171(13) 0.3931(5) 0.6160(5)
O10 O 0.9071(16) 0.2195(7) 0.3373(12)
O11 O 0.7325(15) 0.1818(6) 0.2792(10)
O12 O 0.3554(13) 0.5233(4) 0.2387(5)
O13 O 0.6114(12) 0.5201(4) 0.2634(6)
O14 O 0.0259(14) 0.2893(5) 0.4972(6)
O15 O 0.2305(11) 0.1934(4) 0.4420(4)
O16 O 0.2371(10) 0.1816(4) 0.2892(4)
O17 O 0.2019(13) 0.2967(4) 0.2139(5)
O19 O 0.0060(10) 0.3987(4) 0.4219(5)
N1 N 0.6007(12) 0.2453(4) 0.4504(6)
N2 N 0.5416(13) 0.3692(4) 0.2392(5)
N3 N 0.3606(12) 0.4433(5) 0.4641(5)
N4 N 0.4878(15) 0.3765(5) 0.5902(5)
N5 N 0.7696(15) 0.2208(5) 0.3195(6)
N6 N 0.4735(15) 0.4956(5) 0.2644(5)
C1 C 0.121(3) 0.2456(8) 0.5413(10)
H1 H 0.2319 0.2622 0.5511
H2 H 0.0686 0.2399 0.5889
C2 C 0.131(2) 0.1890(7) 0.5062(8)
H3 H 0.0202 0.1746 0.4912
H4 H 0.1804 0.1584 0.5407
C3 C 0.2415(17) 0.1373(5) 0.4049(7)
H5 H 0.1300 0.1217 0.3926
H6 H 0.2978 0.1067 0.4373
C4 C 0.3313(15) 0.1442(5) 0.3377(7)
H7 H 0.4390 0.1636 0.3488
H8 H 0.3498 0.1034 0.3153
C5 C 0.3163(15) 0.1953(6) 0.2219(6)
H9 H 0.3312 0.1570 0.1935
H10 H 0.4254 0.2136 0.2329
C6 C 0.2124(16) 0.2395(5) 0.1784(6)
H11 H 0.2593 0.2455 0.1297
H12 H 0.1012 0.2221 0.1708
C7 C 0.071(3) 0.3298(8) 0.1746(9)
H14 H 0.1016 0.3369 0.1233
C8 C 0.040(3) 0.3880(9) 0.2091(10)
H15 H 0.1444 0.4109 0.2151
H17 H 0.0997 0.4556 0.3122
C12 C 0.011(2) 0.3471(7) 0.5316(8)
H24 H 0.1214 0.3636 0.5442
Ag5 Ag 0.97614(11) 0.12663(4) 0.25679(5)
Ag6 Ag 0.47614(11) 0.37337(4) 0.75679(5)
O20 O 0.6263(14) 0.6370(6) 0.3692(6)
O22 O 0.5929(16) 0.7195(7) 0.1627(12)
O23 O 0.7675(15) 0.6818(6) 0.2208(10)
O24 O 0.2629(10) 0.6816(4) 0.2108(4)
H25 H 0.795612 0.248455 0.276671
H26 H 0.4906 0.473397 0.21638
O18 O 0.9730(15) 0.3819(7) 0.2759(6)
H13 H 0.9699 0.3046 0.1736
H16 H 0.9653 0.4125 0.1767
C9 C 0.984(2) 0.4422(10) 0.3070(9)
H18 H 0.9228 0.4723 0.2759
C10 C 0.9165(19) 0.4374(7) 0.3746(9)
H19 H 0.8034 0.4215 0.3682
H20 H 0.9106 0.4789 0.3968
C11 C 0.9269(18) 0.3884(6) 0.4869(8)
H21 H 0.9157 0.4279 0.5132
H22 H 0.8156 0.3722 0.4754
H23 H 0.9526 0.3419 0.5778
O12_2 O 0.1446(13) 0.0233(4) 0.2613(5)
Pt1_2 Pt 0.04625(6) 0.86072(2) 0.01747(2)
Pt2_2 Pt 0.05015(6) 0.91616(2) 0.18159(2)
Ag1 Ag 0.36773(13) 0.79852(5) 0.13780(6)
O1_2 O 0.0799(9) 0.8382(3) 0.1244(4)
O6_2 O 0.1474(10) 0.9656(4) 0.1010(4)
O14_2 O 0.4741(14) 0.7893(5) 0.0028(6)
O15_2 O 0.2695(11) 0.6934(4) 0.0580(4)
O17_2 O 0.2981(13) 0.7967(4) 0.2861(5)
O18_2 O 0.5270(15) 0.8819(7) 0.2241(6)
O19_2 O 0.4940(10) 0.8987(4) 0.0781(5)
N3_2 N 0.1394(12) 0.9433(5) 0.0359(5)
N6_2 N 0.0265(15) 0.9956(5) 0.2356(5)
H3_2 H 0.4798 0.6746 0.0088
C3_2 C 0.2585(17) 0.6373(5) 0.0951(7)
H5_2 H 0.3700 0.6217 0.1074
H6_2 H 0.2022 0.6067 0.0627
C4_2 C 0.1687(15) 0.6442(5) 0.1623(7)
H7_2 H 0.0610 0.6636 0.1512
H8_2 H 0.1502 0.6034 0.1847
C5_2 C 0.1837(15) 0.6953(6) 0.2781(6)
H9_2 H 0.1688 0.6570 0.3065
H10_2 H 0.0746 0.7136 0.2671
C6_2 C 0.2876(16) 0.7395(5) 0.3216(6)
H11_2 H 0.2407 0.7455 0.3703
H12_2 H 0.3988 0.7221 0.3292
C7_2 C 0.429(3) 0.8298(8) 0.3254(9)
H13_2 H 0.5301 0.8046 0.3264
H14_2 H 0.3984 0.8369 0.3767
C8_2 C 0.460(3) 0.8880(9) 0.2909(10)
H15_2 H 0.3556 0.9109 0.2849
H16_2 H 0.5347 0.9125 0.3233
C9_2 C 0.516(2) 0.9422(10) 0.1930(9)
H17_2 H 0.4003 0.9556 0.1878
H18_2 H 0.5772 0.9723 0.2241
C10_2 C 0.5835(19) 0.9374(7) 0.1254(9)
H19_2 H 0.6966 0.9215 0.1318
H20_2 H 0.5894 0.9789 0.1032
C11_2 C 0.5731(18) 0.8884(6) 0.0131(8)
H22_2 H 0.6844 0.8722 0.0246
H26_2 H 0.00940035 0.973397 0.28362
O7_2 O 0.1901(11) 0.9763(4) 0.9897(5)
O8_2 O 0.1263(14) 0.8630(6) 0.8692(6)
N4_2 N 0.0122(15) 0.8765(5) 0.9098(5)
C1_2 C 0.379(3) 0.7456(8) 0.9587(10)
H1_2 H 0.2681 0.7622 0.9489
H2_2 H 0.4314 0.7399 0.9111
C2_2 C 0.369(2) 0.6890(7) 0.9938(8)
H4_2 H 0.3196 0.6584 0.9593
H21_2 H 0.5843 0.9279 0.9868
C12_2 C 0.489(2) 0.8471(7) 0.9684(8)
H23_2 H 0.5474 0.8419 0.9222
H24_2 H 0.3786 0.8636 0.9558
Ag6_2 Ag 0.02386(11) 0.87337(4) 0.74321(5)
O13_2 O 0.8886(12) 0.0201(4) 0.2366(6)
O20_2 O 0.8737(14) 0.1370(6) 0.1308(6)
Pt3_2 Pt 0.89922(6) 0.78114(2) 0.14909(3)
O3_2 O 0.8456(12) 0.6949(4) 0.0337(5)
O4_2 O 0.9001(11) 0.8147(4) 0.2514(4)
O5_2 O 0.9519(13) 0.8862(5) 0.3245(5)
N1_2 N 0.8993(12) 0.7453(4) 0.0496(6)
N2_2 N 0.9584(13) 0.8692(4) 0.2608(5)
N5_2 N 0.7304(15) 0.7208(5) 0.1805(6)
H25_2 H 0.704388 0.748455 0.223329
O18_3 O 0.0270(15) 0.6181(7) 0.7241(6)
H13_3 H 0.0301 0.6954 0.8264
H16_3 H 0.0347 0.5875 0.8233
C9_3 C 0.016(2) 0.5578(10) 0.6930(9)
H18_3 H 0.0772 0.5277 0.7241
C10_3 C 0.0835(19) 0.5626(7) 0.6254(9)
H19_3 H 0.1966 0.5785 0.6318
H20_3 H 0.0894 0.5211 0.6032
C11_3 C 0.0731(18) 0.6116(6) 0.5131(8)
H21_3 H 0.0843 0.5721 0.4868
H22_3 H 0.1844 0.6278 0.5246
H23_3 H 0.0474 0.6581 0.4222
O21 O 0.0929(16) 0.7805(7) 0.6627(12)
Pt1_3 Pt 0.54625(6) 0.63928(2) 0.51747(2)
Pt2_3 Pt 0.55015(6) 0.58384(2) 0.68159(2)
Pt3_3 Pt 0.39922(6) 0.71886(2) 0.64909(3)
Ag1_2 Ag 0.86773(13) 0.70148(5) 0.63780(6)
O1_3 O 0.5799(9) 0.6618(3) 0.6244(4)
O2_2 O 0.4547(11) 0.7244(4) 0.4947(4)
O3_3 O 0.3456(12) 0.8051(4) 0.5337(5)
O4_3 O 0.4001(11) 0.6853(4) 0.7514(4)
O5_3 O 0.4519(13) 0.6138(5) 0.8245(5)
O6_3 O 0.6474(10) 0.5344(4) 0.6010(4)
O7_3 O 0.6901(11) 0.5237(4) 0.4897(5)
O9_2 O 0.3829(13) 0.6069(5) 0.3840(5)
O11_2 O 0.2675(15) 0.8182(6) 0.7208(10)
O12_3 O 0.6446(13) 0.4767(4) 0.7613(5)
O13_3 O 0.3886(12) 0.4799(4) 0.7366(6)
O14_3 O 0.9741(14) 0.7107(5) 0.5028(6)
O15_3 O 0.7695(11) 0.8066(4) 0.5580(4)
O16_2 O 0.7629(10) 0.8184(4) 0.7108(4)
O17_3 O 0.7981(13) 0.7033(4) 0.7861(5)
O19_3 O 0.9940(10) 0.6013(4) 0.5781(5)
N1_3 N 0.3993(12) 0.7547(4) 0.5496(6)
N2_3 N 0.4584(13) 0.6308(4) 0.7608(5)
N3_3 N 0.6394(12) 0.5567(5) 0.5359(5)
N4_3 N 0.5122(15) 0.6235(5) 0.4098(5)
N5_3 N 0.2304(15) 0.7792(5) 0.6805(6)
N6_3 N 0.5265(15) 0.5044(5) 0.7356(5)
C1_3 C 0.879(3) 0.7544(8) 0.4587(10)
H1_3 H 0.7681 0.7378 0.4489
H2_3 H 0.9314 0.7601 0.4111
C2_3 C 0.869(2) 0.8110(7) 0.4938(8)
H3_3 H 0.9798 0.8254 0.5088
H4_3 H 0.8196 0.8416 0.4593
C3_3 C 0.7585(17) 0.8627(5) 0.5951(7)
H5_3 H 0.8700 0.8783 0.6074
H6_3 H 0.7022 0.8933 0.5627
C4_3 C 0.6687(15) 0.8558(5) 0.6623(7)
H7_3 H 0.5610 0.8364 0.6512
H8_3 H 0.6502 0.8966 0.6847
C5_3 C 0.6837(15) 0.8047(6) 0.7781(6)
H9_3 H 0.6688 0.8430 0.8065
H10_3 H 0.5746 0.7864 0.7671
C6_3 C 0.7876(16) 0.7605(5) 0.8216(6)
H11_3 H 0.7407 0.7545 0.8703
H12_3 H 0.8988 0.7779 0.8292
C7_3 C 0.929(3) 0.6702(8) 0.8254(9)
H14_3 H 0.8984 0.6631 0.8767
C8_3 C 0.960(3) 0.6120(9) 0.7909(10)
H15_3 H 0.8556 0.5891 0.7849
H17_3 H 0.9003 0.5444 0.6878
C12_3 C 0.989(2) 0.6529(7) 0.4684(8)
H24_3 H 0.8786 0.6364 0.4558
O22_2 O 0.4071(16) 0.2805(7) 0.8373(12)
O23_2 O 0.2325(15) 0.3182(6) 0.7792(10)
O24_2 O 0.7371(10) 0.3184(4) 0.7892(4)
H25_3 H 0.204388 0.751545 0.723329
H26_3 H 0.5094 0.526603 0.78362
Pt3_4 Pt 0.10078(6) 0.21886(2) 0.85091(3)
O3_4 O 0.1544(12) 0.3051(4) 0.9663(5)
O4_4 O 0.0999(11) 0.1853(4) 0.7486(4)
O5_4 O 0.0481(13) 0.1138(5) 0.6755(5)
N1_4 N 0.1007(12) 0.2547(4) 0.9504(6)
N2_4 N 0.0416(13) 0.1308(4) 0.7392(5)
N5_4 N 0.2696(15) 0.2792(5) 0.8195(6)
Ag3_2 Ag 0.63227(13) 0.20148(5) 0.86220(6)
H25_4 H 0.295612 0.251545 0.776671
O13_4 O 0.1114(12) 0.9799(4) 0.7634(6)
O7_4 O 0.8099(11) 0.0237(4) 0.0103(5)
N4_4 N 0.9878(15) 0.1235(5) 0.0902(5)
C1_4 C 0.621(3) 0.2544(8) 0.0413(10)
H1_4 H 0.7319 0.2378 0.0511
H2_4 H 0.5686 0.2601 0.0889
C2_4 C 0.631(2) 0.3110(7) 0.0062(8)
H4_4 H 0.6804 0.3416 0.0407
H21_4 H 0.4157 0.0721 0.0132
C12_4 C 0.511(2) 0.1529(7) 0.0316(8)
H23_4 H 0.4526 0.1581 0.0778
H24_4 H 0.6214 0.1364 0.0442
Pt1_4 Pt 0.95375(6) 0.13928(2) 0.98253(2)
Pt2_4 Pt 0.94985(6) 0.08384(2) 0.81841(2)
O1_4 O 0.9201(9) 0.1618(3) 0.8756(4)
O6_4 O 0.8526(10) 0.0344(4) 0.8990(4)
O14_4 O 0.5259(14) 0.2107(5) 0.9972(6)
O15_4 O 0.7305(11) 0.3066(4) 0.9420(4)
O17_4 O 0.7019(13) 0.2033(4) 0.7139(5)
O18_4 O 0.4730(15) 0.1181(7) 0.7759(6)
O19_4 O 0.5060(10) 0.1013(4) 0.9219(5)
N3_4 N 0.8606(12) 0.0567(5) 0.9641(5)
N6_4 N 0.9735(15) 0.0044(5) 0.7644(5)
H3_4 H 0.5202 0.3254 0.9912
C3_4 C 0.7415(17) 0.3627(5) 0.9049(7)
H5_4 H 0.6300 0.3783 0.8926
H6_4 H 0.7978 0.3933 0.9373
C4_4 C 0.8313(15) 0.3558(5) 0.8377(7)
H7_4 H 0.9390 0.3364 0.8488
H8_4 H 0.8498 0.3966 0.8153
C5_4 C 0.8163(15) 0.3047(6) 0.7219(6)
H9_4 H 0.8312 0.3430 0.6935
H10_4 H 0.9254 0.2864 0.7329
C6_4 C 0.7124(16) 0.2605(5) 0.6784(6)
H11_4 H 0.7593 0.2545 0.6297
H12_4 H 0.6012 0.2779 0.6708
C7_4 C 0.571(3) 0.1702(8) 0.6746(9)
H13_4 H 0.4699 0.1954 0.6736
H14_4 H 0.6016 0.1631 0.6233
C8_4 C 0.540(3) 0.1120(9) 0.7091(10)
H15_4 H 0.6444 0.0891 0.7151
H16_4 H 0.4653 0.0875 0.6767
C9_4 C 0.484(2) 0.0578(10) 0.8070(9)
H17_4 H 0.5997 0.0444 0.8122
H18_4 H 0.4228 0.0277 0.7759
C10_4 C 0.4165(19) 0.0626(7) 0.8746(9)
H19_4 H 0.3034 0.0785 0.8682
H20_4 H 0.4106 0.0211 0.8968
C11_4 C 0.4269(18) 0.1116(6) 0.9869(8)
H22_4 H 0.3156 0.1278 0.9754
H26_4 H 0.9906 0.0266032 0.71638
O12_4 O 0.8554(13) 0.9767(4) 0.7387(5)
O2_3 O 0.9547(11) 0.7756(4) 0.9947(4)
O9_3 O 0.8829(13) 0.8931(5) 0.8840(5)
O2_4 O 0.0453(11) 0.2244(4) 0.0053(4)
O9_4 O 0.1171(13) 0.1069(5) 0.1160(5)
loop_
_geom_bond_atom_site_label_1
_geom_bond_atom_site_label_2
_geom_bond_site_symmetry_1
_geom_bond_site_symmetry_2
Pt1 O1 1_555 1_555
Pt2 O1 1_555 1_555
Pt3 O1 1_555 1_555
Ag3 O1 1_555 1_555
Ag2 O12 1_555 1_555
O2 Pt1 1_555 1_555
O3 N1 1_555 1_555
O4 Pt3 1_555 1_555
O5 N2 1_555 1_555
O6 Pt2 1_555 1_555
O7 N3 1_555 1_555
O8 N4 1_555 1_555
O9 N4 1_555 1_555
O10 N5 1_555 1_555
O11 N5 1_555 1_555
O12 N6 1_555 1_555
O13 Ag2 1_555 1_555
O14 Ag3 1_555 1_555
O15 C2 1_555 1_555
O16 C4 1_555 1_555
O17 C6 1_555 1_555
O19 Ag3 1_555 1_555
N1 Pt3 1_555 1_555
N2 Pt2 1_555 1_555
N3 Pt1 1_555 1_555
N4 Pt1 1_555 1_555
N5 Pt3 1_555 1_555
N6 Pt2 1_555 1_555
C1 O14 1_555 1_555
H1 C1 1_555 1_555
H2 C1 1_555 1_555
C2 C1 1_555 1_555
H3 C2 1_555 1_555
H4 C2 1_555 1_555
C3 O15 1_555 1_555
H5 C3 1_555 1_555
H6 C3 1_555 1_555
C4 C3 1_555 1_555
H7 C4 1_555 1_555
H8 C4 1_555 1_555
C5 O16 1_555 1_555
H9 C5 1_555 1_555
H10 C5 1_555 1_555
C6 C5 1_555 1_555
H11 C6 1_555 1_555
H12 C6 1_555 1_555
C7 O17 1_555 1_555
H14 C7 1_555 1_555
H15 C8 1_555 1_555
C12 O14 1_555 1_555
H24 C12 1_555 1_555
Ag5 O10 1_555 1_555
Ag6 O8 1_555 1_555
O20 Ag2 1_555 1_555
O22 Ag2 1_555 1_555
O23 Ag2 1_555 1_555
O24 Ag2 1_555 1_555
O2 N1 1_555 1_555
O4 N2 1_555 1_555
O6 N3 1_555 1_555
O11 Ag5 1_555 1_555
O13 N6 1_555 1_555
C7 C8 1_555 1_555
N5 H25 1_555 1_555
N6 H26 1_555 1_555
C9 O18 1_555 1_555
H18 C9 1_555 1_555
H19 C10 1_555 1_555
H20 C10 1_555 1_555
H21 C11 1_555 1_555
H22 C11 1_555 1_555
C9 C10 1_555 1_555
Pt1_2 O1_2 1_555 1_555
Pt2_2 O1_2 1_555 1_555
Ag1 O1_2 1_555 1_555
O6_2 Pt2_2 1_555 1_555
O14_2 Ag1 1_555 1_555
O24 C4_2 1_555 1_555
O17_2 C6_2 1_555 1_555
O18_2 Ag1 1_555 1_555
O19_2 Ag1 1_555 1_555
N3_2 Pt1_2 1_555 1_555
N6_2 Pt2_2 1_555 1_555
C3_2 O15_2 1_555 1_555
H5_2 C3_2 1_555 1_555
H6_2 C3_2 1_555 1_555
C4_2 C3_2 1_555 1_555
H7_2 C4_2 1_555 1_555
H8_2 C4_2 1_555 1_555
C5_2 O24 1_555 1_555
H9_2 C5_2 1_555 1_555
H10_2 C5_2 1_555 1_555
C6_2 C5_2 1_555 1_555
H11_2 C6_2 1_555 1_555
H12_2 C6_2 1_555 1_555
C7_2 O17_2 1_555 1_555
H13_2 C7_2 1_555 1_555
H14_2 C7_2 1_555 1_555
C8_2 O18_2 1_555 1_555
H15_2 C8_2 1_555 1_555
H16_2 C8_2 1_555 1_555
C9_2 O18_2 1_555 1_555
H17_2 C9_2 1_555 1_555
H18_2 C9_2 1_555 1_555
C10_2 O19_2 1_555 1_555
H19_2 C10_2 1_555 1_555
H20_2 C10_2 1_555 1_555
C11_2 O19_2 1_555 1_555
H22_2 C11_2 1_555 1_555
O22 Ag1 1_555 1_555
O6_2 N3_2 1_555 1_555
C7_2 C8_2 1_555 1_555
C9_2 C10_2 1_555 1_555
N6_2 H26_2 1_555 1_555
O8_2 N4_2 1_555 1_555
H1_2 C1_2 1_555 1_555
H2_2 C1_2 1_555 1_555
C2_2 C1_2 1_555 1_555
H4_2 C2_2 1_555 1_555
H23_2 C12_2 1_555 1_555
H24_2 C12_2 1_555 1_555
Ag6_2 O8_2 1_555 1_555
O13_2 Ag5 1_555 1_555
O20_2 Ag5 1_555 1_555
O3_2 N1_2 1_555 1_555
O4_2 Pt3_2 1_555 1_555
O5_2 N2_2 1_555 1_555
O22 N5_2 1_555 1_555
O23 N5_2 1_555 1_555
N1_2 Pt3_2 1_555 1_555
N5_2 Pt3_2 1_555 1_555
O4_2 N2_2 1_555 1_555
N5_2 H25_2 1_555 1_555
C9_3 O18_3 1_555 1_555
H18_3 C9_3 1_555 1_555
H19_3 C10_3 1_555 1_555
H20_3 C10_3 1_555 1_555
H21_3 C11_3 1_555 1_555
H22_3 C11_3 1_555 1_555
C9_3 C10_3 1_555 1_555
Ag6_2 O21 1_555 1_555
Pt1_3 O1_3 1_555 1_555
Pt2_3 O1_3 1_555 1_555
Pt3_3 O1_3 1_555 1_555
Ag1_2 O1_3 1_555 1_555
Ag6 O12_3 1_555 1_555
O2_2 Pt1_3 1_555 1_555
O3_3 N1_3 1_555 1_555
O4_3 Pt3_3 1_555 1_555
O5_3 N2_3 1_555 1_555
O6_3 Pt2_3 1_555 1_555
O7_3 N3_3 1_555 1_555
O20 N4_3 1_555 1_555
O9_2 N4_3 1_555 1_555
O21 N5_3 1_555 1_555
O11_2 N5_3 1_555 1_555
O12_3 N6_3 1_555 1_555
O13_3 Ag6 1_555 1_555
O14_3 Ag1_2 1_555 1_555
O15_3 C2_3 1_555 1_555
O16_2 C4_3 1_555 1_555
O17_3 C6_3 1_555 1_555
O19_3 Ag1_2 1_555 1_555
N1_3 Pt3_3 1_555 1_555
N2_3 Pt2_3 1_555 1_555
N3_3 Pt1_3 1_555 1_555
N4_3 Pt1_3 1_555 1_555
N5_3 Pt3_3 1_555 1_555
N6_3 Pt2_3 1_555 1_555
C1_3 O14_3 1_555 1_555
H1_3 C1_3 1_555 1_555
H2_3 C1_3 1_555 1_555
C2_3 C1_3 1_555 1_555
H3_3 C2_3 1_555 1_555
H4_3 C2_3 1_555 1_555
C3_3 O15_3 1_555 1_555
H5_3 C3_3 1_555 1_555
H6_3 C3_3 1_555 1_555
C4_3 C3_3 1_555 1_555
H7_3 C4_3 1_555 1_555
H8_3 C4_3 1_555 1_555
C5_3 O16_2 1_555 1_555
H9_3 C5_3 1_555 1_555
H10_3 C5_3 1_555 1_555
C6_3 C5_3 1_555 1_555
H11_3 C6_3 1_555 1_555
H12_3 C6_3 1_555 1_555
C7_3 O17_3 1_555 1_555
H14_3 C7_3 1_555 1_555
H15_3 C8_3 1_555 1_555
C12_3 O14_3 1_555 1_555
H24_3 C12_3 1_555 1_555
O22_2 Ag6 1_555 1_555
O23_2 Ag6 1_555 1_555
O24_2 Ag6 1_555 1_555
O2_2 N1_3 1_555 1_555
O4_3 N2_3 1_555 1_555
O6_3 N3_3 1_555 1_555
O11_2 Ag6_2 1_555 1_555
O13_3 N6_3 1_555 1_555
C7_3 C8_3 1_555 1_555
N5_3 H25_3 1_555 1_555
N6_3 H26_3 1_555 1_555
O3_4 N1_4 1_555 1_555
O4_4 Pt3_4 1_555 1_555
O5_4 N2_4 1_555 1_555
O22_2 N5_4 1_555 1_555
O23_2 N5_4 1_555 1_555
N1_4 Pt3_4 1_555 1_555
N5_4 Pt3_4 1_555 1_555
Ag3_2 O22_2 1_555 1_555
O4_4 N2_4 1_555 1_555
N5_4 H25_4 1_555 1_555
O13_4 Ag6_2 1_555 1_555
O20_2 N4_4 1_555 1_555
H1_4 C1_4 1_555 1_555
H2_4 C1_4 1_555 1_555
C2_4 C1_4 1_555 1_555
H4_4 C2_4 1_555 1_555
H23_4 C12_4 1_555 1_555
H24_4 C12_4 1_555 1_555
Pt1_4 O1_4 1_555 1_555
Pt2_4 O1_4 1_555 1_555
Ag3_2 O1_4 1_555 1_555
O6_4 Pt2_4 1_555 1_555
O14_4 Ag3_2 1_555 1_555
O24_2 C4_4 1_555 1_555
O17_4 C6_4 1_555 1_555
O18_4 Ag3_2 1_555 1_555
O19_4 Ag3_2 1_555 1_555
N3_4 Pt1_4 1_555 1_555
N6_4 Pt2_4 1_555 1_555
C3_4 O15_4 1_555 1_555
H5_4 C3_4 1_555 1_555
H6_4 C3_4 1_555 1_555
C4_4 C3_4 1_555 1_555
H7_4 C4_4 1_555 1_555
H8_4 C4_4 1_555 1_555
C5_4 O24_2 1_555 1_555
H9_4 C5_4 1_555 1_555
H10_4 C5_4 1_555 1_555
C6_4 C5_4 1_555 1_555
H11_4 C6_4 1_555 1_555
H12_4 C6_4 1_555 1_555
C7_4 O17_4 1_555 1_555
H13_4 C7_4 1_555 1_555
H14_4 C7_4 1_555 1_555
C8_4 O18_4 1_555 1_555
H15_4 C8_4 1_555 1_555
H16_4 C8_4 1_555 1_555
C9_4 O18_4 1_555 1_555
H17_4 C9_4 1_555 1_555
H18_4 C9_4 1_555 1_555
C10_4 O19_4 1_555 1_555
H19_4 C10_4 1_555 1_555
H20_4 C10_4 1_555 1_555
C11_4 O19_4 1_555 1_555
H22_4 C11_4 1_555 1_555
O6_4 N3_4 1_555 1_555
C7_4 C8_4 1_555 1_555
C9_4 C10_4 1_555 1_555
N6_4 H26_4 1_555 1_555

#END
