
###############################################################################
#
# This file contains modified crystal structure data generated from the
# MOF subset of the Cambridge Structural Database (CSD) v543 
# hosted by the Cambridge Crystallographic Data Centre (CCDC).
#
# This work is licensed under the Creative Commons
# Attribution-NonCommercial-ShareAlike 4.0 International License.
# To view a copy of this license, visit
# http://creativecommons.org/licenses/by-nc-sa/4.0/
# or send a letter to
# Creative Commons, PO Box 1866, Mountain View, CA 94042, USA.
#
# CIF created using the CSD Python API on 29 September 2022
# The structure has been converted into the P1 space group
# The structure has a 3D framework
# The original CSD entry BIPXIK is in the triclinic crystal system
# The framework has been calculated to contain at least 10.0% void space
# The void calculation uses a probe of radius 1.32A, grid spacing 0.4
#
###############################################################################

data_BIPXIK
_chemical_formula_moiety         '(C128 H100 Co16 N20 O56)n'
_symmetry_cell_setting           triclinic
_symmetry_space_group_name_H-M   'P 1'
_symmetry_Int_Tables_number      1
_space_group_name_Hall           'P 1'
loop_
_symmetry_equiv_pos_site_id
_symmetry_equiv_pos_as_xyz
1 x,y,z
_cell_length_a                   13.262
_cell_length_b                   18.495
_cell_length_c                   22.258
_cell_angle_alpha                89.11
_cell_angle_beta                 76.32
_cell_angle_gamma                89.97
_cell_volume                     5303.91
loop_
_atom_site_label
_atom_site_type_symbol
_atom_site_fract_x
_atom_site_fract_y
_atom_site_fract_z
C34 C 0.1056(5) 0.1857(4) 0.8201(3)
O19 O 0.1375(3) 0.1731(2) 0.86578(18)
O20 O 0.1585(4) 0.1968(3) 0.7672(2)
Co9 Co 0.00038(5) 0.61172(3) 0.73261(3)
Co17 Co 0.27739(5) 0.21600(3) 0.87696(3)
Co14 Co 0.00626(5) 0.77102(3) 0.71073(3)
C22 C 0.2814(5) 0.0203(3) 0.7715(3)
H14 H 0.2508 0.0521 0.8024
N3 N 0.3812(4) 0.0305(2) 0.74371(18)
Co20 Co 0.47808(5) 0.11084(3) 0.76617(3)
C9 C 0.0588(4) 0.2917(3) 0.1586(2)
C35 C 0.1455(6) 0.1960(3) 0.0086(3)
C36 C 0.1031(7) 0.2094(3) 0.0701(3)
H25 H 0.0749 0.1716 0.0968
C37 C 0.1025(5) 0.2770(3) 0.0916(2)
C38 C 0.1391(7) 0.3295(4) 0.0482(3)
H26 H 0.1332 0.3779 0.0593
C42 C 0.3020(5) 0.0203(3) 0.0117(3)
H28 H 0.2531 0.0572 0.0184
H36 H 0.4513 0.3046 0.0087
O11 O 0.0449(3) 0.35653(18) 0.17486(15)
O12 O 0.0412(3) 0.23579(19) 0.19281(15)
Co4 Co 0.21584(5) 0.71432(3) 0.62703(3)
Co6 Co 0.47548(5) 0.27106(3) 0.78336(3)
Co7 Co 0.61191(5) 0.14329(3) 0.86593(3)
C1 C 0.1977(5) 0.5234(3) 0.7296(3)
H1 H 0.2271 0.5562 0.6982
C2 C 0.2584(5) 0.4685(3) 0.7438(2)
H2 H 0.3275 0.4650 0.7226
C3 C 0.2169(4) 0.4188(3) 0.7895(2)
C4 C 0.1140(5) 0.4287(3) 0.8204(3)
H3 H 0.0824 0.3968 0.8519
C5 C 0.0600(5) 0.4848(3) 0.8046(3)
C6 C 0.2791(4) 0.3557(3) 0.8046(2)
C8 C 0.8198(4) 0.5227(3) 0.7187(2)
H7 H 0.0082 0.5383 0.4044
H8 H 0.0015 0.6214 0.4816
C15 C 0.6724(4) 0.6841(3) 0.6748(3)
C16 C 0.0294(4) 0.7683(3) 0.5700(2)
C17 C 0.0524(7) 0.8306(4) 0.5233(3)
H9 H 0.1199 0.8501 0.5221
H10 H 0.0011 0.8676 0.5351
H11 H 0.0507 0.8134 0.4830
C18 C 0.2053(4) 0.8557(3) 0.6942(2)
C19 C 0.2645(5) 0.9186(3) 0.7110(2)
C20 C 0.3672(5) 0.9297(3) 0.6805(3)
H12 H 0.3996 0.8989 0.6492
C21 C 0.4208(5) 0.9870(3) 0.6972(3)
H13 H 0.4884 0.9957 0.6746
C23 C 0.2208(5) 0.9658(3) 0.7573(3)
H15 H 0.1517 0.9608 0.7785
C24 C 0.2779(6) 0.7103(3) 0.4855(2)
H16 H 0.2242 0.6767 0.4926
C25 C 0.3328(6) 0.7229(3) 0.4256(3)
H17 H 0.3198 0.6946 0.3941
C26 C 0.4057(4) 0.7761(3) 0.4119(2)
C27 C 0.4215(6) 0.8151(4) 0.4600(3)
H18 H 0.4670 0.8542 0.4531
C28 C 0.3681(5) 0.7955(3) 0.5204(2)
H19 H 0.3835 0.8206 0.5530
C29 C 0.4358(6) 0.6543(4) 0.6087(3)
H20 H 0.4219 0.6338 0.5735
C30 C 0.5398(5) 0.6549(4) 0.6155(3)
H21 H 0.5931 0.6368 0.5845
C31 C 0.5607(4) 0.6819(3) 0.6671(3)
C32 C 0.4810(5) 0.7040(4) 0.7106(3)
H22 H 0.4933 0.7204 0.7475
C33 C 0.3785(5) 0.7039(4) 0.7034(3)
H23 H 0.3243 0.7192 0.7352
H24 H 0.1389 0.1498 0.9942
C39 C 0.1840(7) 0.3122(4) 0.9892(3)
H27 H 0.2081 0.3499 0.9613
C40 C 0.3800(4) 0.0769(3) 0.9073(2)
C41 C 0.3738(4) 0.0159(3) 0.9547(2)
C46 C 0.6708(5) 0.3598(3) 0.7992(3)
H32 H 0.6764 0.3253 0.8290
C47 C 0.7457(5) 0.4114(3) 0.7845(3)
H33 H 0.8008 0.4117 0.8037
C48 C 0.7384(4) 0.4641(3) 0.7402(2)
C49 C 0.6556(4) 0.4622(3) 0.7137(3)
H34 H 0.6484 0.4971 0.6844
C50 C 0.5816(5) 0.4072(3) 0.7312(3)
H35 H 0.5254 0.4064 0.7130
C51 C 0.4639(4) 0.7897(3) 0.3456(2)
C52 C 0.4802(4) 0.2690(3) 0.9227(2)
C53 C 0.4636(8) 0.3257(5) 0.9679(4)
H37 H 0.4045 0.3539 0.9642
H38 H 0.5239 0.3562 0.9608
C54 C 0.8322(5) 0.1762(4) 0.7940(3)
H39 H 0.8023 0.1726 0.7603
C55 C 0.9422(5) 0.1754(4) 0.7843(3)
H40 H 0.9830 0.1665 0.7450
C56 C 0.9864(5) 0.1870(3) 0.8295(3)
C57 C 0.9267(6) 0.1966(5) 0.8868(3)
H41 H 0.9567 0.2028 0.9201
C58 C 0.8159(6) 0.1969(4) 0.8956(4)
H42 H 0.7744 0.2079 0.9342
C59 C 0.6671(5) 0.0232(3) 0.7718(2)
N1 N 0.0994(4) 0.5316(2) 0.75848(18)
N4 N 0.2980(4) 0.7440(2) 0.53375(18)
N5 N 0.3595(4) 0.6813(2) 0.6499(2)
N6 N 0.1959(4) 0.2462(2) 0.96843(19)
N7 N 0.5880(4) 0.3554(2) 0.77297(18)
N8 N 0.7720(4) 0.1821(2) 0.8502(2)
O1 O 0.1174(3) 0.68816(16) 0.71030(14)
H47 H 0.144(3) 0.701(2) 0.7372(17)
O3 O 0.3661(2) 0.18831(16) 0.79213(14)
H49 H 0.330(2) 0.2004(18) 0.7690(13)
O4 O 0.5782(3) 0.18945(17) 0.78952(15)
H50 H 0.634(3) 0.188(3) 0.765(2)
O5 O 0.3686(3) 0.34903(17) 0.77404(16)
O6 O 0.2316(3) 0.31582(18) 0.84858(15)
O9 O 0.8816(3) 0.53477(19) 0.75215(17)
O10 O 0.8148(3) 0.55482(19) 0.67041(17)
O14 O 0.0736(3) 0.7687(2) 0.61321(15)
O15 O 0.7410(3) 0.6835(2) 0.62619(18)
O16 O 0.6871(3) 0.6899(3) 0.72742(19)
O17 O 0.2546(3) 0.81514(18) 0.65293(16)
O18 O 0.1122(3) 0.84917(18) 0.72222(17)
O21 O 0.4235(3) 0.27164(19) 0.88374(15)
O22 O 0.5470(3) 0.2239(2) 0.92398(16)
O23 O 0.3089(3) 0.1194(2) 0.91680(15)
O24 O 0.4612(3) 0.07833(19) 0.86326(14)
O25 O 0.4832(3) 0.85498(19) 0.32825(15)
O26 O 0.4798(3) 0.73607(19) 0.31321(15)
O27 O 0.6788(3) 0.05584(19) 0.81687(17)
O28 O 0.5980(3) 0.03447(19) 0.74201(17)
Co12 Co 0.88836(5) 0.64339(3) 0.62235(3)
Co13 Co 0.11164(5) 0.35661(3) 0.37765(3)
Co18 Co 0.52452(5) 0.72894(3) 0.21664(3)
Co21 Co 0.52192(5) 0.88916(3) 0.23383(3)
N13 N 0.6268(3) 0.0836(2) 0.9495(2)
O29 O 0.1966(3) 0.61343(18) 0.59142(15)
O30 O 0.0313(3) 0.58146(18) 0.63590(15)
O37 O 0.5168(3) 0.14502(19) 0.67175(15)
O38 O 0.5202(3) 0.26393(19) 0.68679(15)
C43 C 0.3033(5) 0.9706(3) 0.0575(3)
H29 H 0.2543 0.9741 0.0949
N10 N 0.3732(3) 0.9164(2) 0.0505(2)
Co19 Co 0.38809(5) 0.85671(3) 0.13407(3)
C44 C 0.4390(5) 0.9093(3) 0.9955(2)
H30 H 0.4840 0.8701 0.9891
C45 C 0.4425(4) 0.9589(3) 0.9474(2)
H31 H 0.4913 0.9536 0.9101
C60 C 0.7470(5) 0.9651(3) 0.7498(3)
C61 C 0.8318(5) 0.9628(3) 0.7737(3)
H43 H 0.8411 0.9971 0.8021
C62 C 0.9053(5) 0.9082(3) 0.7552(3)
H44 H 0.9646 0.9082 0.7706
C63 C 0.8108(5) 0.8593(3) 0.6938(3)
H45 H 0.8019 0.8238 0.6663
C64 C 0.7356(5) 0.9125(3) 0.7086(3)
H46 H 0.6785 0.9127 0.6911
N9 N 0.8941(4) 0.8561(2) 0.7163(2)
Co11 Co 0.99962(5) 0.38828(3) 0.26739(3)
Co15 Co 0.99374(5) 0.22898(3) 0.28927(3)
H4 H 0.9920 0.4914 0.8269
C7 C 0.8826(4) 0.4256(2) 0.4023(2)
C10 C 0.7961(5) 0.5403(3) 0.5444(3)
H5 H 0.7411 0.5418 0.5792
C11 C 0.7946(5) 0.4903(3) 0.4988(2)
H6 H 0.7386 0.4587 0.5030
C12 C 0.8748(4) 0.4873(3) 0.4479(2)
C13 C 0.9542(4) 0.5374(3) 0.4398(2)
C14 C 0.9495(4) 0.5865(3) 0.4871(2)
N2 N 0.8771(4) 0.5874(2) 0.53910(19)
O2 O 0.9076(3) 0.68887(16) 0.70073(14)
H48 H 0.846(3) 0.685(3) 0.725(2)
O7 O 0.8034(3) 0.38657(18) 0.40858(15)
O8 O 0.9687(3) 0.41854(18) 0.36410(15)
O13 O 0.9631(3) 0.7219(2) 0.56246(16)
Co16 Co 0.78416(5) 0.28568(3) 0.37297(3)
O33 O 0.9551(3) 0.64347(18) 0.82514(15)
O34 O 0.9588(3) 0.76421(19) 0.80719(15)
H4_2 H 0.0080 0.5086 0.1731
C7_2 C 0.1174(4) 0.5744(2) 0.5977(2)
C10_2 C 0.2039(5) 0.4597(3) 0.4556(3)
H5_2 H 0.2589 0.4582 0.4208
C11_2 C 0.2054(5) 0.5097(3) 0.5012(2)
H6_2 H 0.2614 0.5413 0.4970
C12_2 C 0.1252(4) 0.5127(3) 0.5521(2)
C13_2 C 0.0458(4) 0.4626(3) 0.5602(2)
C14_2 C 0.0505(4) 0.4135(3) 0.5129(2)
N2_2 N 0.1229(4) 0.4126(2) 0.46090(19)
O2_2 O 0.0924(3) 0.31113(16) 0.29927(14)
H48_2 H 0.154(3) 0.315(3) 0.275(2)
O13_2 O 0.0369(3) 0.2781(2) 0.43754(16)
N12 N 0.1059(4) 0.1439(2) 0.2837(2)
O31 O 0.1184(3) 0.46523(19) 0.24785(17)
O32 O 0.1852(3) 0.44518(19) 0.32959(17)
O35 O 0.2590(3) 0.3165(2) 0.37381(18)
C44_2 C 0.5610(5) 0.0907(3) 0.0045(2)
H30_2 H 0.5160 0.1299 0.0109
C45_2 C 0.5575(4) 0.0411(3) 0.0526(2)
H31_2 H 0.5087 0.0464 0.0899
C60_2 C 0.2530(5) 0.0349(3) 0.2502(3)
C61_2 C 0.1682(5) 0.0372(3) 0.2263(3)
H43_2 H 0.1589 0.0029 0.1979
C62_2 C 0.0947(5) 0.0918(3) 0.2448(3)
H44_2 H 0.0354 0.0918 0.2294
C63_2 C 0.1892(5) 0.1407(3) 0.3062(3)
H45_2 H 0.1981 0.1762 0.3337
C64_2 C 0.2644(5) 0.0875(3) 0.2914(3)
H46_2 H 0.3215 0.0873 0.3089
C43_2 C 0.6967(5) 0.0294(3) 0.9425(3)
H29_2 H 0.7457 0.0259 0.9051
Co5 Co 0.72261(5) 0.78400(3) 0.12304(3)
C1_2 C 0.8023(5) 0.4766(3) 0.2704(3)
H1_2 H 0.7729 0.4438 0.3018
C2_2 C 0.7416(5) 0.5315(3) 0.2562(2)
H2_2 H 0.6725 0.5350 0.2774
C3_2 C 0.7831(4) 0.5812(3) 0.2105(2)
C4_2 C 0.8860(5) 0.5713(3) 0.1796(3)
H3_2 H 0.9176 0.6032 0.1481
C5_2 C 0.9400(5) 0.5152(3) 0.1954(3)
C6_2 C 0.7209(4) 0.6443(3) 0.1954(2)
C8_2 C 0.1802(4) 0.4773(3) 0.2813(2)
H7_2 H 0.9918 0.4617 0.5956
H8_2 H 0.9985 0.3786 0.5184
C15_2 C 0.3276(4) 0.3159(3) 0.3252(3)
C16_2 C 0.9706(4) 0.2317(3) 0.4300(2)
C17_2 C 0.9476(7) 0.1694(4) 0.4767(3)
H9_2 H 0.8801 0.1499 0.4779
H10_2 H 0.9989 0.1324 0.4649
H11_2 H 0.9493 0.1866 0.5170
C18_2 C 0.7947(4) 0.1443(3) 0.3058(2)
C19_2 C 0.7355(5) 0.0814(3) 0.2890(2)
C20_2 C 0.6328(5) 0.0703(3) 0.3195(3)
H12_2 H 0.6004 0.1011 0.3508
C21_2 C 0.5792(5) 0.0130(3) 0.3028(3)
H13_2 H 0.5116 0.0043 0.3254
C23_2 C 0.7792(5) 0.0342(3) 0.2427(3)
H15_2 H 0.8483 0.0392 0.2215
C24_2 C 0.7221(6) 0.2897(3) 0.5145(2)
H16_2 H 0.7758 0.3233 0.5074
C25_2 C 0.6672(6) 0.2771(3) 0.5744(3)
H17_2 H 0.6802 0.3054 0.6059
C26_2 C 0.5943(4) 0.2239(3) 0.5881(2)
C27_2 C 0.5785(6) 0.1849(4) 0.5400(3)
H18_2 H 0.5330 0.1458 0.5469
C28_2 C 0.6319(5) 0.2045(3) 0.4796(2)
H19_2 H 0.6165 0.1794 0.4470
C29_2 C 0.5642(6) 0.3457(4) 0.3913(3)
H20_2 H 0.5781 0.3662 0.4265
C30_2 C 0.4602(5) 0.3451(4) 0.3845(3)
H21_2 H 0.4069 0.3632 0.4155
C31_2 C 0.4393(4) 0.3181(3) 0.3329(3)
C32_2 C 0.5190(5) 0.2960(4) 0.2894(3)
H22_2 H 0.5067 0.2796 0.2525
C33_2 C 0.6215(5) 0.2961(4) 0.2966(3)
H23_2 H 0.6757 0.2808 0.2648
H24_2 H 0.8611 0.8502 0.0058
C39_2 C 0.8160(7) 0.6878(4) 0.0108(3)
H27_2 H 0.7919 0.6501 0.0387
C40_2 C 0.6200(4) 0.9231(3) 0.0927(2)
C41_2 C 0.6262(4) 0.9841(3) 0.0453(2)
C46_2 C 0.3292(5) 0.6402(3) 0.2008(3)
H32_2 H 0.3236 0.6747 0.1710
C47_2 C 0.2543(5) 0.5886(3) 0.2155(3)
H33_2 H 0.1992 0.5883 0.1963
C48_2 C 0.2616(4) 0.5359(3) 0.2598(2)
C49_2 C 0.3444(4) 0.5378(3) 0.2863(3)
H34_2 H 0.3516 0.5029 0.3156
C50_2 C 0.4184(5) 0.5928(3) 0.2688(3)
H35_2 H 0.4746 0.5936 0.2870
C51_2 C 0.5361(4) 0.2103(3) 0.6544(2)
C52_2 C 0.5198(4) 0.7310(3) 0.0773(2)
C53_2 C 0.5364(8) 0.6743(5) 0.0321(4)
H37_2 H 0.5955 0.6461 0.0358
H38_2 H 0.4761 0.6438 0.0392
C54_2 C 0.1678(5) 0.8238(4) 0.2060(3)
H39_2 H 0.1977 0.8274 0.2397
C55_2 C 0.0578(5) 0.8246(4) 0.2157(3)
H40_2 H 0.0170 0.8335 0.2550
C56_2 C 0.0136(5) 0.8130(3) 0.1705(3)
C57_2 C 0.0733(6) 0.8034(5) 0.1132(3)
H41_2 H 0.0433 0.7972 0.0799
C58_2 C 0.1841(6) 0.8031(4) 0.1044(4)
H42_2 H 0.2256 0.7921 0.0658
C59_2 C 0.3329(5) 0.9768(3) 0.2282(2)
N1_2 N 0.9006(4) 0.4684(2) 0.24152(18)
N4_2 N 0.7020(4) 0.2560(2) 0.46625(18)
N5_2 N 0.6405(4) 0.3187(2) 0.3501(2)
N6_2 N 0.8041(4) 0.7538(2) 0.03157(19)
N7_2 N 0.4120(4) 0.6446(2) 0.22703(18)
N8_2 N 0.2280(4) 0.8179(2) 0.1498(2)
O1_2 O 0.8826(3) 0.31184(16) 0.28970(14)
H47_2 H 0.856(3) 0.299(2) 0.2628(17)
O3_2 O 0.6339(2) 0.81169(16) 0.20787(14)
H49_2 H 0.670(2) 0.7996(18) 0.2310(13)
O4_2 O 0.4218(3) 0.81055(17) 0.21048(15)
H50_2 H 0.366(3) 0.812(3) 0.235(2)
O5_2 O 0.6314(3) 0.65097(17) 0.22596(16)
O6_2 O 0.7684(3) 0.68418(18) 0.15142(15)
O14_2 O 0.9264(3) 0.2313(2) 0.38679(15)
O16_2 O 0.3129(3) 0.3101(3) 0.27258(19)
O17_2 O 0.7454(3) 0.18486(18) 0.34707(16)
O18_2 O 0.8878(3) 0.15083(18) 0.27778(17)
O21_2 O 0.5765(3) 0.72836(19) 0.11626(15)
O22_2 O 0.4530(3) 0.7761(2) 0.07602(16)
O23_2 O 0.6911(3) 0.8806(2) 0.08320(15)
O24_2 O 0.5388(3) 0.92167(19) 0.13674(14)
O27_2 O 0.3212(3) 0.94416(19) 0.18313(17)
O28_2 O 0.4020(3) 0.96553(19) 0.25799(17)
N11 N 0.6188(4) 0.9695(2) 0.25629(18)
O36 O 0.8625(3) 0.8269(2) 0.13422(18)
C9_2 C 0.9412(4) 0.7083(3) 0.8414(2)
C35_2 C 0.8545(6) 0.8040(3) 0.9914(3)
C36_2 C 0.8969(7) 0.7906(3) 0.9299(3)
H25_2 H 0.9251 0.8284 0.9032
C37_2 C 0.8975(5) 0.7230(3) 0.9084(2)
C38_2 C 0.8609(7) 0.6705(4) 0.9518(3)
H26_2 H 0.8668 0.6221 0.9407
C42_2 C 0.6980(5) 0.9797(3) 0.9883(3)
H28_2 H 0.7469 0.9428 0.9816
H36_2 H 0.5487 0.6954 0.9913
C22_2 C 0.7186(5) 0.9797(3) 0.2285(3)
H14_2 H 0.7492 0.9479 0.1976
C34_2 C 0.8944(5) 0.8143(4) 0.1799(3)
O20_2 O 0.8415(4) 0.8032(3) 0.2328(2)
loop_
_geom_bond_atom_site_label_1
_geom_bond_atom_site_label_2
_geom_bond_site_symmetry_1
_geom_bond_site_symmetry_2
O19 C34 1_555 1_555
O20 C34 1_555 1_555
Co17 O19 1_555 1_555
C22 H14 1_555 1_555
Co20 N3 1_555 1_555
C22 N3 1_555 1_555
C9 C37 1_555 1_555
C36 C35 1_555 1_555
H25 C36 1_555 1_555
C37 C36 1_555 1_555
C38 C37 1_555 1_555
H26 C38 1_555 1_555
C42 H28 1_555 1_555
O11 C9 1_555 1_555
O12 C9 1_555 1_555
Co9 N1 1_555 1_555
Co14 O1 1_555 1_555
Co4 N4 1_555 1_555
Co17 N6 1_555 1_555
Co6 N7 1_555 1_555
Co7 N8 1_555 1_555
Co20 O3 1_555 1_555
C1 H1 1_555 1_555
C2 C1 1_555 1_555
H2 C2 1_555 1_555
C3 C2 1_555 1_555
C4 C3 1_555 1_555
H3 C4 1_555 1_555
C5 C4 1_555 1_555
C6 C3 1_555 1_555
C8 C48 1_555 1_555
C15 C31 1_555 1_555
C16 C17 1_555 1_555
C17 H9 1_555 1_555
H10 C17 1_555 1_555
H11 C17 1_555 1_555
C18 C19 1_555 1_555
C19 C20 1_555 1_555
C20 H12 1_555 1_555
C21 C20 1_555 1_555
H13 C21 1_555 1_555
C23 C19 1_555 1_555
H15 C23 1_555 1_555
C24 H16 1_555 1_555
C25 C24 1_555 1_555
H17 C25 1_555 1_555
C26 C25 1_555 1_555
C27 C26 1_555 1_555
H18 C27 1_555 1_555
C28 C27 1_555 1_555
H19 C28 1_555 1_555
C29 H20 1_555 1_555
C30 C29 1_555 1_555
H21 C30 1_555 1_555
C31 C30 1_555 1_555
C32 C31 1_555 1_555
H22 C32 1_555 1_555
C33 C32 1_555 1_555
H23 C33 1_555 1_555
H27 C39 1_555 1_555
C40 C41 1_555 1_555
C46 H32 1_555 1_555
C47 C46 1_555 1_555
H33 C47 1_555 1_555
C48 C47 1_555 1_555
C49 C48 1_555 1_555
H34 C49 1_555 1_555
C50 C49 1_555 1_555
H35 C50 1_555 1_555
C51 C26 1_555 1_555
C52 C53 1_555 1_555
H37 C53 1_555 1_555
H38 C53 1_555 1_555
C54 H39 1_555 1_555
C55 C54 1_555 1_555
H40 C55 1_555 1_555
C56 C55 1_555 1_555
C57 C56 1_555 1_555
H41 C57 1_555 1_555
C58 C57 1_555 1_555
H42 C58 1_555 1_555
N1 C1 1_555 1_555
N4 C24 1_555 1_555
N5 Co4 1_555 1_555
N7 C46 1_555 1_555
N8 C54 1_555 1_555
O1 Co9 1_555 1_555
H47 O1 1_555 1_555
O3 Co17 1_555 1_555
H49 O3 1_555 1_555
O4 Co6 1_555 1_555
H50 O4 1_555 1_555
O5 Co6 1_555 1_555
O6 Co17 1_555 1_555
O9 C8 1_555 1_555
O10 C8 1_555 1_555
O14 Co14 1_555 1_555
O15 C15 1_555 1_555
O16 C15 1_555 1_555
O17 Co4 1_555 1_555
O18 Co14 1_555 1_555
O21 Co17 1_555 1_555
O22 Co7 1_555 1_555
O23 Co17 1_555 1_555
O24 Co7 1_555 1_555
O25 C51 1_555 1_555
O26 C51 1_555 1_555
O27 Co7 1_555 1_555
O28 Co20 1_555 1_555
Co12 O10 1_555 1_555
Co18 O26 1_555 1_555
Co21 O25 1_555 1_555
N13 Co7 1_555 1_555
O29 Co4 1_555 1_555
O30 Co9 1_555 1_555
O37 Co20 1_555 1_555
O38 Co6 1_555 1_555
Co4 O1 1_555 1_555
Co4 O14 1_555 1_555
Co6 O3 1_555 1_555
Co6 O21 1_555 1_555
Co7 O4 1_555 1_555
Co20 O4 1_555 1_555
Co20 O24 1_555 1_555
C5 N1 1_555 1_555
C6 O5 1_555 1_555
C6 O6 1_555 1_555
C16 O14 1_555 1_555
C18 O17 1_555 1_555
C18 O18 1_555 1_555
C28 N4 1_555 1_555
C29 N5 1_555 1_555
C33 N5 1_555 1_555
C39 N6 1_555 1_555
C40 O23 1_555 1_555
C40 O24 1_555 1_555
C50 N7 1_555 1_555
C52 O21 1_555 1_555
C52 O22 1_555 1_555
C58 N8 1_555 1_555
C59 O27 1_555 1_555
C59 O28 1_555 1_555
O15 Co12 1_555 1_555
H29 C43 1_555 1_555
N10 C43 1_555 1_555
Co19 N10 1_555 1_555
C44 H30 1_555 1_555
H31 C45 1_555 1_555
C60 C61 1_555 1_555
C61 H43 1_555 1_555
C62 C61 1_555 1_555
H44 C62 1_555 1_555
C63 H45 1_555 1_555
C64 C60 1_555 1_555
H46 C64 1_555 1_555
N9 C62 1_555 1_555
C44 C45 1_555 1_555
C63 C64 1_555 1_555
C63 N9 1_555 1_555
Co12 N2 1_555 1_555
C7 C12 1_555 1_555
C10 H5 1_555 1_555
C11 C10 1_555 1_555
H6 C11 1_555 1_555
C12 C11 1_555 1_555
C13 C12 1_555 1_555
C14 C13 1_555 1_555
N2 C10 1_555 1_555
H48 O2 1_555 1_555
O7 C7 1_555 1_555
O8 C7 1_555 1_555
O13 Co12 1_555 1_555
Co11 O8 1_555 1_555
Co16 O7 1_555 1_555
Co12 O2 1_555 1_555
C14 N2 1_555 1_555
Co13 N2_2 1_555 1_555
C7_2 C12_2 1_555 1_555
C10_2 H5_2 1_555 1_555
C11_2 C10_2 1_555 1_555
H6_2 C11_2 1_555 1_555
C12_2 C11_2 1_555 1_555
C13_2 C12_2 1_555 1_555
C14_2 C13_2 1_555 1_555
N2_2 C10_2 1_555 1_555
H48_2 O2_2 1_555 1_555
O29 C7_2 1_555 1_555
O30 C7_2 1_555 1_555
O13_2 Co13 1_555 1_555
O32 Co13 1_555 1_555
O35 Co13 1_555 1_555
Co13 O2_2 1_555 1_555
C14_2 N2_2 1_555 1_555
C44_2 H30_2 1_555 1_555
H31_2 C45_2 1_555 1_555
C60_2 C61_2 1_555 1_555
C61_2 H43_2 1_555 1_555
C62_2 C61_2 1_555 1_555
H44_2 C62_2 1_555 1_555
C63_2 H45_2 1_555 1_555
C64_2 C60_2 1_555 1_555
H46_2 C64_2 1_555 1_555
N12 C62_2 1_555 1_555
C44_2 C45_2 1_555 1_555
C63_2 C64_2 1_555 1_555
C63_2 N12 1_555 1_555
H29_2 C43_2 1_555 1_555
N13 C43_2 1_555 1_555
Co11 N1_2 1_555 1_555
Co15 O1_2 1_555 1_555
Co16 N4_2 1_555 1_555
Co5 N6_2 1_555 1_555
Co18 N7_2 1_555 1_555
Co19 N8_2 1_555 1_555
Co21 O3_2 1_555 1_555
C1_2 H1_2 1_555 1_555
C2_2 C1_2 1_555 1_555
H2_2 C2_2 1_555 1_555
C3_2 C2_2 1_555 1_555
C4_2 C3_2 1_555 1_555
H3_2 C4_2 1_555 1_555
C5_2 C4_2 1_555 1_555
C6_2 C3_2 1_555 1_555
C8_2 C48_2 1_555 1_555
C15_2 C31_2 1_555 1_555
C16_2 C17_2 1_555 1_555
C17_2 H9_2 1_555 1_555
H10_2 C17_2 1_555 1_555
H11_2 C17_2 1_555 1_555
C18_2 C19_2 1_555 1_555
C19_2 C20_2 1_555 1_555
C20_2 H12_2 1_555 1_555
C21_2 C20_2 1_555 1_555
H13_2 C21_2 1_555 1_555
C23_2 C19_2 1_555 1_555
H15_2 C23_2 1_555 1_555
C24_2 H16_2 1_555 1_555
C25_2 C24_2 1_555 1_555
H17_2 C25_2 1_555 1_555
C26_2 C25_2 1_555 1_555
C27_2 C26_2 1_555 1_555
H18_2 C27_2 1_555 1_555
C28_2 C27_2 1_555 1_555
H19_2 C28_2 1_555 1_555
C29_2 H20_2 1_555 1_555
C30_2 C29_2 1_555 1_555
H21_2 C30_2 1_555 1_555
C31_2 C30_2 1_555 1_555
C32_2 C31_2 1_555 1_555
H22_2 C32_2 1_555 1_555
C33_2 C32_2 1_555 1_555
H23_2 C33_2 1_555 1_555
H27_2 C39_2 1_555 1_555
C40_2 C41_2 1_555 1_555
C46_2 H32_2 1_555 1_555
C47_2 C46_2 1_555 1_555
H33_2 C47_2 1_555 1_555
C48_2 C47_2 1_555 1_555
C49_2 C48_2 1_555 1_555
H34_2 C49_2 1_555 1_555
C50_2 C49_2 1_555 1_555
H35_2 C50_2 1_555 1_555
C51_2 C26_2 1_555 1_555
C52_2 C53_2 1_555 1_555
H37_2 C53_2 1_555 1_555
H38_2 C53_2 1_555 1_555
C54_2 H39_2 1_555 1_555
C55_2 C54_2 1_555 1_555
H40_2 C55_2 1_555 1_555
C56_2 C55_2 1_555 1_555
C57_2 C56_2 1_555 1_555
H41_2 C57_2 1_555 1_555
C58_2 C57_2 1_555 1_555
H42_2 C58_2 1_555 1_555
N1_2 C1_2 1_555 1_555
N4_2 C24_2 1_555 1_555
N5_2 Co16 1_555 1_555
N7_2 C46_2 1_555 1_555
N8_2 C54_2 1_555 1_555
O1_2 Co11 1_555 1_555
H47_2 O1_2 1_555 1_555
O3_2 Co5 1_555 1_555
H49_2 O3_2 1_555 1_555
O4_2 Co18 1_555 1_555
H50_2 O4_2 1_555 1_555
O5_2 Co18 1_555 1_555
O6_2 Co5 1_555 1_555
O31 C8_2 1_555 1_555
O32 C8_2 1_555 1_555
O14_2 Co15 1_555 1_555
O35 C15_2 1_555 1_555
O16_2 C15_2 1_555 1_555
O17_2 Co16 1_555 1_555
O18_2 Co15 1_555 1_555
O21_2 Co5 1_555 1_555
O22_2 Co19 1_555 1_555
O23_2 Co5 1_555 1_555
O24_2 Co19 1_555 1_555
O37 C51_2 1_555 1_555
O38 C51_2 1_555 1_555
O27_2 Co19 1_555 1_555
O28_2 Co21 1_555 1_555
N11 Co21 1_555 1_555
O36 Co5 1_555 1_555
Co16 O1_2 1_555 1_555
Co16 O14_2 1_555 1_555
Co18 O3_2 1_555 1_555
Co18 O21_2 1_555 1_555
Co19 O4_2 1_555 1_555
Co21 O4_2 1_555 1_555
Co21 O24_2 1_555 1_555
C5_2 N1_2 1_555 1_555
C6_2 O5_2 1_555 1_555
C6_2 O6_2 1_555 1_555
C16_2 O14_2 1_555 1_555
C18_2 O17_2 1_555 1_555
C18_2 O18_2 1_555 1_555
C28_2 N4_2 1_555 1_555
C29_2 N5_2 1_555 1_555
C33_2 N5_2 1_555 1_555
C39_2 N6_2 1_555 1_555
C40_2 O23_2 1_555 1_555
C40_2 O24_2 1_555 1_555
C50_2 N7_2 1_555 1_555
C52_2 O21_2 1_555 1_555
C52_2 O22_2 1_555 1_555
C58_2 N8_2 1_555 1_555
C59_2 O27_2 1_555 1_555
C59_2 O28_2 1_555 1_555
C9_2 C37_2 1_555 1_555
C36_2 C35_2 1_555 1_555
H25_2 C36_2 1_555 1_555
C37_2 C36_2 1_555 1_555
C38_2 C37_2 1_555 1_555
H26_2 C38_2 1_555 1_555
C42_2 H28_2 1_555 1_555
O33 C9_2 1_555 1_555
O34 C9_2 1_555 1_555
C22_2 H14_2 1_555 1_555
C22_2 N11 1_555 1_555
O36 C34_2 1_555 1_555
O20_2 C34_2 1_555 1_555

#END
