
###############################################################################
#
# This file contains modified crystal structure data generated from the
# MOF subset of the Cambridge Structural Database (CSD) v543 
# hosted by the Cambridge Crystallographic Data Centre (CCDC).
#
# This work is licensed under the Creative Commons
# Attribution-NonCommercial-ShareAlike 4.0 International License.
# To view a copy of this license, visit
# http://creativecommons.org/licenses/by-nc-sa/4.0/
# or send a letter to
# Creative Commons, PO Box 1866, Mountain View, CA 94042, USA.
#
# CIF created using the CSD Python API on 29 September 2022
# The structure has been converted into the P1 space group
# The structure has a 3D framework
# The original CSD entry BIQHEQ is in the orthorhombic crystal system
# The framework has been calculated to contain at least 10.0% void space
# The void calculation uses a probe of radius 1.32A, grid spacing 0.4
#
###############################################################################

data_BIQHEQ
_chemical_formula_moiety         '(C106 H56 Fe8 N56 O8 Zn17)n'
_symmetry_cell_setting           triclinic
_symmetry_space_group_name_H-M   'P 1'
_symmetry_Int_Tables_number      1
_space_group_name_Hall           'P 1'
loop_
_symmetry_equiv_pos_site_id
_symmetry_equiv_pos_as_xyz
1 x,y,z
_cell_length_a                   15.8354(5)
_cell_length_b                   17.5204(6)
_cell_length_c                   11.4998(3)
_cell_angle_alpha                90
_cell_angle_beta                 90
_cell_angle_gamma                90
_cell_volume                     3190.53
loop_
_atom_site_label
_atom_site_type_symbol
_atom_site_fract_x
_atom_site_fract_y
_atom_site_fract_z
Zn4 Zn 0.10795(4) 0.66730(3) 0.0000
C1 C 0.1980(2) 0.3936(2) 0.1700(3)
C2 C 0.2543(3) 0.2943(3) 0.0000
C3 C 0.3101(3) 0.4334(3) 0.0000
C4 C 0.1528(3) 0.4932(3) 0.0000
C5 C 0.0864(3) 0.3479(3) 0.0000
C6 C 0.1385(2) 0.7294(2) 0.2532(3)
H1 H 0.1682 0.7671 0.2136
C7 C 0.1353(3) 0.7333(2) 0.3732(3)
H2 H 0.1620 0.7730 0.4122
C8 C 0.0588(3) 0.6229(3) 0.2509(3)
H3 H 0.0316 0.5842 0.2100
C9 C 0.0524(3) 0.6227(3) 0.3704(3)
H4 H 0.0209 0.5851 0.4076
C10 C 0.0924(2) 0.6783(2) 0.4348(3)
N1 N 0.1971(2) 0.3969(2) 0.2705(3)
N2 N 0.2959(3) 0.2407(3) 0.0000
N3 N 0.3784(3) 0.4552(3) 0.0000
N4 N 0.1316(3) 0.5561(3) 0.0000
N5 N 0.0192(3) 0.3231(2) 0.0000
N6 N 0.10127(18) 0.67439(18) 0.1907(2)
O1 O 0.4476(2) 0.6123(2) 0.0000
H7 H 0.4073 0.6140 0.0680
Fe1 Fe 0.19827(4) 0.39143(4) 0.0000
Zn2 Zn 0.5000 0.5000 0.0000
C14 C 0.1385(2) 0.7294(2) 0.7468(3)
H8 H 0.1682 0.7671 0.7864
C15 C 0.1353(3) 0.7333(2) 0.6268(3)
H9 H 0.1620 0.7730 0.5878
C16 C 0.0588(3) 0.6229(3) 0.7491(3)
H10 H 0.0316 0.5842 0.7900
C17 C 0.0524(3) 0.6227(3) 0.6296(3)
H11 H 0.0209 0.5851 0.5924
C18 C 0.0924(2) 0.6783(2) 0.5652(3)
N8 N 0.10127(18) 0.67439(18) 0.8093(2)
O2 O 0.5524(2) 0.3877(2) 0.0000
H27 H 0.5927 0.3860 0.0680
N20 N 0.2041(3) 0.7407(3) 0.0000
N21 N 0.6216(3) 0.5448(3) 0.0000
N24 N 0.5000 0.5000 0.1903(3)
Zn4_2 Zn 0.10795(4) 0.66730(3) 1.0000
Zn7 Zn 0.39205(4) 0.16730(3) 0.0000
C2_2 C 0.2543(3) 0.2943(3) 1.0000
C3_2 C 0.3101(3) 0.4334(3) 1.0000
C4_2 C 0.1528(3) 0.4932(3) 1.0000
C5_2 C 0.0864(3) 0.3479(3) 1.0000
C11 C 0.5370(3) 0.5548(2) 0.7486(3)
H5 H 0.5639 0.5939 0.7889
C12 C 0.5382(3) 0.5572(2) 0.6286(3)
H6 H 0.5648 0.5974 0.5908
C13 C 0.5000 0.5000 0.5643(4)
N2_2 N 0.2959(3) 0.2407(3) 1.0000
N3_2 N 0.3784(3) 0.4552(3) 1.0000
N4_2 N 0.1316(3) 0.5561(3) 1.0000
N5_2 N 0.0192(3) 0.3231(2) 1.0000
N7 N 0.5000 0.5000 0.8097(3)
O1_2 O 0.4476(2) 0.6123(2) 1.0000
Fe1_2 Fe 0.19827(4) 0.39143(4) 1.0000
Zn2_2 Zn 0.5000 0.5000 1.0000
C19 C 0.4630(3) 0.4452(2) 0.7486(3)
H12 H 0.4361 0.4061 0.7889
C20 C 0.4618(3) 0.4428(2) 0.6286(3)
H13 H 0.4352 0.4026 0.5908
C21 C 0.4630(3) 0.4452(2) 0.2514(3)
H14 H 0.4361 0.4061 0.2111
C22 C 0.4618(3) 0.4428(2) 0.3714(3)
H15 H 0.4352 0.4026 0.4092
C23 C 0.5000 0.5000 0.4357(4)
C24 C 0.5370(3) 0.5548(2) 0.2514(3)
H16 H 0.5639 0.5939 0.2111
C25 C 0.5382(3) 0.5572(2) 0.3714(3)
H17 H 0.5648 0.5974 0.4092
H18 H 0.4073 0.6140 0.9320
O2_2 O 0.5524(2) 0.3877(2) 1.0000
H28 H 0.5927 0.3860 0.9320
C41 C 0.1980(2) 0.3936(2) 0.8300(3)
N17 N 0.1971(2) 0.3969(2) 0.7295(3)
N20_2 N 0.2041(3) 0.7407(3) 1.0000
N21_2 N 0.6216(3) 0.5448(3) 1.0000
Zn7_2 Zn 0.39205(4) 0.16730(3) 1.0000
Zn5 Zn 0.89205(4) 0.33270(3) 0.0000
C26 C 0.8020(2) 0.6064(2) 0.1700(3)
C27 C 0.7457(3) 0.7057(3) 0.0000
C28 C 0.6899(3) 0.5666(3) 0.0000
C29 C 0.8472(3) 0.5068(3) 0.0000
C30 C 0.9136(3) 0.6521(3) 0.0000
C31 C 0.8615(2) 0.2706(2) 0.2532(3)
H19 H 0.8318 0.2329 0.2136
C32 C 0.8647(3) 0.2667(2) 0.3732(3)
H20 H 0.8380 0.2270 0.4122
C33 C 0.9412(3) 0.3771(3) 0.2509(3)
H21 H 0.9684 0.4158 0.2100
C34 C 0.9476(3) 0.3773(3) 0.3704(3)
H22 H 0.9791 0.4149 0.4076
C35 C 0.9076(2) 0.3217(2) 0.4348(3)
N10 N 0.8029(2) 0.6031(2) 0.2705(3)
N11 N 0.7041(3) 0.7593(3) 0.0000
N13 N 0.8684(3) 0.4439(3) 0.0000
N14 N 0.9808(3) 0.6769(2) 0.0000
N15 N 0.89873(18) 0.32561(18) 0.1907(2)
Fe2 Fe 0.80173(4) 0.60857(4) 0.0000
C36 C 0.8615(2) 0.2706(2) 0.7468(3)
H23 H 0.8318 0.2329 0.7864
C37 C 0.8647(3) 0.2667(2) 0.6268(3)
H24 H 0.8380 0.2270 0.5878
C38 C 0.9412(3) 0.3771(3) 0.7491(3)
H25 H 0.9684 0.4158 0.7900
C39 C 0.9476(3) 0.3773(3) 0.6296(3)
H26 H 0.9791 0.4149 0.5924
C40 C 0.9076(2) 0.3217(2) 0.5652(3)
N16 N 0.89873(18) 0.32561(18) 0.8093(2)
N19 N 0.7959(3) 0.2593(3) 0.0000
Zn5_2 Zn 0.89205(4) 0.33270(3) 1.0000
Zn6 Zn 0.60795(4) 0.83270(3) 0.0000
C27_2 C 0.7457(3) 0.7057(3) 1.0000
C28_2 C 0.6899(3) 0.5666(3) 1.0000
C29_2 C 0.8472(3) 0.5068(3) 1.0000
C30_2 C 0.9136(3) 0.6521(3) 1.0000
N11_2 N 0.7041(3) 0.7593(3) 1.0000
N13_2 N 0.8684(3) 0.4439(3) 1.0000
N14_2 N 0.9808(3) 0.6769(2) 1.0000
Fe2_2 Fe 0.80173(4) 0.60857(4) 1.0000
C42 C 0.8020(2) 0.6064(2) 0.8300(3)
N18 N 0.8029(2) 0.6031(2) 0.7295(3)
N19_2 N 0.7959(3) 0.2593(3) 1.0000
Zn6_2 Zn 0.60795(4) 0.83270(3) 1.0000
Zn9 Zn -0.0000 0.0000 0.0000
C13_2 C -0.0000 -0.0000 0.4357(4)
N7_2 N -0.0000 -0.0000 0.1903(3)
C23_2 C -0.0000 -0.0000 0.5643(4)
N9 N -0.0000 -0.0000 0.8097(3)
O2_3 O 0.0524(2) 0.1123(2) 0.0000
H28_2 H 0.0927 0.1140 0.0680
Zn9_2 Zn -0.0000 -0.0000 1.0000
O2_4 O 0.0524(2) 0.1123(2) 1.0000
H27_2 H 0.0927 0.1140 0.9320
Zn9_3 Zn -0.0000 1.0000 0.0000
C11_2 C 0.0370(3) 0.9452(2) 0.2514(3)
H5_2 H 0.0639 0.9061 0.2111
C12_2 C 0.0382(3) 0.9428(2) 0.3714(3)
H6_2 H 0.0648 0.9026 0.4092
C13_3 C -0.0000 1.0000 0.4357(4)
N7_3 N -0.0000 1.0000 0.1903(3)
C23_3 C -0.0000 1.0000 0.5643(4)
N9_2 N -0.0000 1.0000 0.8097(3)
C24_2 C 0.0370(3) 0.9452(2) 0.7486(3)
H16_2 H 0.0639 0.9061 0.7889
C25_2 C 0.0382(3) 0.9428(2) 0.6286(3)
H17_2 H 0.0648 0.9026 0.5908
N21_3 N 0.1216(3) 0.9552(3) 0.0000
Zn9_4 Zn -0.0000 1.0000 1.0000
N21_4 N 0.1216(3) 0.9552(3) 1.0000
Zn9_5 Zn 1.0000 0.0000 0.0000
C2_3 C 0.7543(3) 0.2057(3) 0.0000
C3_3 C 0.8101(3) 0.0666(3) 0.0000
C4_3 C 0.6528(3) 0.0068(3) 0.0000
C5_3 C 0.5864(3) 0.1521(3) 0.0000
C13_4 C 1.0000 -0.0000 0.4357(4)
N3_3 N 0.8784(3) 0.0448(3) 0.0000
N5_3 N 0.5192(3) 0.1769(2) 0.0000
N7_4 N 1.0000 -0.0000 0.1903(3)
Fe1_3 Fe 0.69827(4) 0.10857(4) 0.0000
C19_2 C 0.9630(3) 0.0548(2) 0.2514(3)
H12_2 H 0.9361 0.0939 0.2111
C20_2 C 0.9618(3) 0.0572(2) 0.3714(3)
H13_2 H 0.9352 0.0974 0.4092
C21_2 C 0.9630(3) 0.0548(2) 0.7486(3)
H14_2 H 0.9361 0.0939 0.7889
C22_2 C 0.9618(3) 0.0572(2) 0.6286(3)
H15_2 H 0.9352 0.0974 0.5908
C23_4 C 1.0000 -0.0000 0.5643(4)
N9_3 N 1.0000 -0.0000 0.8097(3)
N13_3 N 0.3684(3) 0.0561(3) 0.0000
C41_2 C 0.6980(2) 0.1064(2) 0.1700(3)
N17_2 N 0.6971(2) 0.1031(2) 0.2705(3)
N22 N 0.39873(18) 0.17439(18) 0.1907(2)
Zn9_6 Zn 1.0000 -0.0000 1.0000
C1_2 C 0.6980(2) 0.1064(2) 0.8300(3)
C2_4 C 0.7543(3) 0.2057(3) 1.0000
C3_4 C 0.8101(3) 0.0666(3) 1.0000
C4_4 C 0.6528(3) 0.0068(3) 1.0000
C5_4 C 0.5864(3) 0.1521(3) 1.0000
N1_2 N 0.6971(2) 0.1031(2) 0.7295(3)
N3_4 N 0.8784(3) 0.0448(3) 1.0000
N5_4 N 0.5192(3) 0.1769(2) 1.0000
Fe1_4 Fe 0.69827(4) 0.10857(4) 1.0000
C31_2 C 0.3615(2) 0.2294(2) 0.7468(3)
H19_2 H 0.3318 0.2671 0.7864
C32_2 C 0.3647(3) 0.2333(2) 0.6268(3)
H20_2 H 0.3380 0.2730 0.5878
C33_2 C 0.4412(3) 0.1229(3) 0.7491(3)
H21_2 H 0.4684 0.0842 0.7900
C34_2 C 0.4476(3) 0.1227(3) 0.6296(3)
H22_2 H 0.4791 0.0851 0.5924
C35_2 C 0.4076(2) 0.1783(2) 0.5652(3)
N13_4 N 0.3684(3) 0.0561(3) 1.0000
N15_2 N 0.39873(18) 0.17439(18) 0.8093(2)
C36_2 C 0.3615(2) 0.2294(2) 0.2532(3)
H23_2 H 0.3318 0.2671 0.2136
C37_2 C 0.3647(3) 0.2333(2) 0.3732(3)
H24_2 H 0.3380 0.2730 0.4122
C38_2 C 0.4412(3) 0.1229(3) 0.2509(3)
H25_2 H 0.4684 0.0842 0.2100
C39_2 C 0.4476(3) 0.1227(3) 0.3704(3)
H26_2 H 0.4791 0.0851 0.4076
C40_2 C 0.4076(2) 0.1783(2) 0.4348(3)
Zn9_7 Zn 1.0000 1.0000 0.0000
C13_5 C 1.0000 1.0000 0.4357(4)
N4_3 N 0.6316(3) 0.9439(3) 0.0000
N7_5 N 1.0000 1.0000 0.1903(3)
O1_3 O 0.9476(2) 0.8877(2) 0.0000
C23_5 C 1.0000 1.0000 0.5643(4)
N9_4 N 1.0000 1.0000 0.8097(3)
H18_2 H 0.9073 0.8860 0.0680
C27_3 C 0.2457(3) 0.7943(3) 0.0000
C28_3 C 0.1899(3) 0.9334(3) 0.0000
C29_3 C 0.3472(3) 0.9932(3) 0.0000
C30_3 C 0.4136(3) 0.8479(3) 0.0000
N14_3 N 0.4808(3) 0.8231(2) 0.0000
Fe2_3 Fe 0.30173(4) 0.89143(4) 0.0000
C42_2 C 0.3020(2) 0.8936(2) 0.1700(3)
N18_2 N 0.3029(2) 0.8969(2) 0.2705(3)
N23 N 0.60127(18) 0.82561(18) 0.1907(2)
Zn9_8 Zn 1.0000 1.0000 1.0000
C6_2 C 0.6385(2) 0.7706(2) 0.7468(3)
H1_2 H 0.6682 0.7329 0.7864
C7_2 C 0.6353(3) 0.7667(2) 0.6268(3)
H2_2 H 0.6620 0.7270 0.5878
C8_2 C 0.5588(3) 0.8771(3) 0.7491(3)
H3_2 H 0.5316 0.9158 0.7900
C9_2 C 0.5524(3) 0.8773(3) 0.6296(3)
H4_2 H 0.5209 0.9149 0.5924
C10_2 C 0.5924(2) 0.8217(2) 0.5652(3)
N4_4 N 0.6316(3) 0.9439(3) 1.0000
N6_2 N 0.60127(18) 0.82561(18) 0.8093(2)
O1_4 O 0.9476(2) 0.8877(2) 1.0000
H7_2 H 0.9073 0.8860 0.9320
C14_2 C 0.6385(2) 0.7706(2) 0.2532(3)
H8_2 H 0.6682 0.7329 0.2136
C15_2 C 0.6353(3) 0.7667(2) 0.3732(3)
H9_2 H 0.6620 0.7270 0.4122
C16_2 C 0.5588(3) 0.8771(3) 0.2509(3)
H10_2 H 0.5316 0.9158 0.2100
C17_2 C 0.5524(3) 0.8773(3) 0.3704(3)
H11_2 H 0.5209 0.9149 0.4076
C18_2 C 0.5924(2) 0.8217(2) 0.4348(3)
C26_2 C 0.3020(2) 0.8936(2) 0.8300(3)
C27_4 C 0.2457(3) 0.7943(3) 1.0000
C28_4 C 0.1899(3) 0.9334(3) 1.0000
C29_4 C 0.3472(3) 0.9932(3) 1.0000
C30_4 C 0.4136(3) 0.8479(3) 1.0000
N10_2 N 0.3029(2) 0.8969(2) 0.7295(3)
N14_4 N 0.4808(3) 0.8231(2) 1.0000
Fe2_4 Fe 0.30173(4) 0.89143(4) 1.0000
loop_
_geom_bond_atom_site_label_1
_geom_bond_atom_site_label_2
_geom_bond_site_symmetry_1
_geom_bond_site_symmetry_2
C1 N1 1_555 1_555
C2 N2 1_555 1_555
C3 N3 1_555 1_555
C4 N4 1_555 1_555
C5 N5 1_555 1_555
C6 H1 1_555 1_555
C7 C6 1_555 1_555
H2 C7 1_555 1_555
C8 H3 1_555 1_555
C9 C8 1_555 1_555
H4 C9 1_555 1_555
C10 C7 1_555 1_555
N2 Zn7 1_555 1_555
N3 Zn2 1_555 1_555
N4 Zn4 1_555 1_555
N6 C6 1_555 1_555
O1 H7 1_555 1_555
Fe1 C1 1_555 1_555
Zn4 N6 1_555 1_555
C14 H8 1_555 1_555
C15 C14 1_555 1_555
H9 C15 1_555 1_555
C16 H10 1_555 1_555
C17 C16 1_555 1_555
H11 C17 1_555 1_555
C18 C10 1_555 1_555
N8 C14 1_555 1_555
O2 Zn2 1_555 1_555
H27 O2 1_555 1_555
N20 Zn4 1_555 1_555
N21 Zn2 1_555 1_555
N24 Zn2 1_555 1_555
Zn4_2 N8 1_555 1_555
C2 Fe1 1_555 1_555
C3 Fe1 1_555 1_555
C4 Fe1 1_555 1_555
C5 Fe1 1_555 1_555
C8 N6 1_555 1_555
C9 C10 1_555 1_555
O1 Zn2 1_555 1_555
C15 C18 1_555 1_555
C16 N8 1_555 1_555
C17 C18 1_555 1_555
C2_2 N2_2 1_555 1_555
C3_2 N3_2 1_555 1_555
C4_2 N4_2 1_555 1_555
C5_2 N5_2 1_555 1_555
C11 H5 1_555 1_555
C12 C11 1_555 1_555
H6 C12 1_555 1_555
C13 C12 1_555 1_555
N2_2 Zn7_2 1_555 1_555
N3_2 Zn2_2 1_555 1_555
N4_2 Zn4_2 1_555 1_555
N7 C11 1_555 1_555
Zn2_2 N7 1_555 1_555
C19 N7 1_555 1_555
H12 C19 1_555 1_555
C20 C13 1_555 1_555
H13 C20 1_555 1_555
C21 H14 1_555 1_555
C22 C21 1_555 1_555
H15 C22 1_555 1_555
C23 C13 1_555 1_555
N24 C21 1_555 1_555
C24 N24 1_555 1_555
H16 C24 1_555 1_555
C25 C23 1_555 1_555
H17 C25 1_555 1_555
H18 O1_2 1_555 1_555
O2_2 Zn2_2 1_555 1_555
H28 O2_2 1_555 1_555
C41 Fe1_2 1_555 1_555
N17 C41 1_555 1_555
N20_2 Zn4_2 1_555 1_555
N21_2 Zn2_2 1_555 1_555
C2_2 Fe1_2 1_555 1_555
C3_2 Fe1_2 1_555 1_555
C4_2 Fe1_2 1_555 1_555
C5_2 Fe1_2 1_555 1_555
O1_2 Zn2_2 1_555 1_555
C19 C20 1_555 1_555
C22 C23 1_555 1_555
C24 C25 1_555 1_555
C26 N10 1_555 1_555
C27 N11 1_555 1_555
C28 N21 1_555 1_555
C29 N13 1_555 1_555
C30 N14 1_555 1_555
C31 H19 1_555 1_555
C32 C31 1_555 1_555
H20 C32 1_555 1_555
C33 H21 1_555 1_555
C34 C33 1_555 1_555
H22 C34 1_555 1_555
C35 C32 1_555 1_555
N11 Zn6 1_555 1_555
N13 Zn5 1_555 1_555
N15 C31 1_555 1_555
Fe2 C26 1_555 1_555
Zn5 N15 1_555 1_555
C36 H23 1_555 1_555
C37 C36 1_555 1_555
H24 C37 1_555 1_555
C38 H25 1_555 1_555
C39 C38 1_555 1_555
H26 C39 1_555 1_555
C40 C35 1_555 1_555
N16 C36 1_555 1_555
N19 Zn5 1_555 1_555
Zn5_2 N16 1_555 1_555
C27 Fe2 1_555 1_555
C28 Fe2 1_555 1_555
C29 Fe2 1_555 1_555
C30 Fe2 1_555 1_555
C33 N15 1_555 1_555
C34 C35 1_555 1_555
C37 C40 1_555 1_555
C38 N16 1_555 1_555
C39 C40 1_555 1_555
C27_2 N11_2 1_555 1_555
C28_2 N21_2 1_555 1_555
C29_2 N13_2 1_555 1_555
C30_2 N14_2 1_555 1_555
N11_2 Zn6_2 1_555 1_555
N13_2 Zn5_2 1_555 1_555
C42 Fe2_2 1_555 1_555
N18 C42 1_555 1_555
N19_2 Zn5_2 1_555 1_555
C27_2 Fe2_2 1_555 1_555
C28_2 Fe2_2 1_555 1_555
C29_2 Fe2_2 1_555 1_555
C30_2 Fe2_2 1_555 1_555
Zn9 N7_2 1_555 1_555
C23_2 C13_2 1_555 1_555
O2_3 Zn9 1_555 1_555
H28_2 O2_3 1_555 1_555
Zn9_2 N9 1_555 1_555
O2_4 Zn9_2 1_555 1_555
H27_2 O2_4 1_555 1_555
C11_2 H5_2 1_555 1_555
C12_2 C11_2 1_555 1_555
H6_2 C12_2 1_555 1_555
C13_3 C12_2 1_555 1_555
N7_3 C11_2 1_555 1_555
Zn9_3 N7_3 1_555 1_555
C23_3 C13_3 1_555 1_555
C24_2 N9_2 1_555 1_555
H16_2 C24_2 1_555 1_555
C25_2 C23_3 1_555 1_555
H17_2 C25_2 1_555 1_555
N21_3 Zn9_3 1_555 1_555
Zn9_4 N9_2 1_555 1_555
C24_2 C25_2 1_555 1_555
N21_4 Zn9_4 1_555 1_555
C2_3 N19 1_555 1_555
C3_3 N3_3 1_555 1_555
C5_3 N5_3 1_555 1_555
N3_3 Zn9_5 1_555 1_555
N5_3 Zn7 1_555 1_555
Zn9_5 N7_4 1_555 1_555
C19_2 N7_4 1_555 1_555
H12_2 C19_2 1_555 1_555
C20_2 C13_4 1_555 1_555
H13_2 C20_2 1_555 1_555
C21_2 H14_2 1_555 1_555
C22_2 C21_2 1_555 1_555
H15_2 C22_2 1_555 1_555
C23_4 C13_4 1_555 1_555
N9_3 C21_2 1_555 1_555
N13_3 Zn7 1_555 1_555
C41_2 Fe1_3 1_555 1_555
N17_2 C41_2 1_555 1_555
N22 Zn7 1_555 1_555
Zn9_6 N9_3 1_555 1_555
C2_3 Fe1_3 1_555 1_555
C3_3 Fe1_3 1_555 1_555
C4_3 Fe1_3 1_555 1_555
C5_3 Fe1_3 1_555 1_555
C19_2 C20_2 1_555 1_555
C22_2 C23_4 1_555 1_555
C1_2 N1_2 1_555 1_555
C2_4 N19_2 1_555 1_555
C3_4 N3_4 1_555 1_555
C5_4 N5_4 1_555 1_555
N3_4 Zn9_6 1_555 1_555
N5_4 Zn7_2 1_555 1_555
Fe1_4 C1_2 1_555 1_555
C31_2 H19_2 1_555 1_555
C32_2 C31_2 1_555 1_555
H20_2 C32_2 1_555 1_555
C33_2 H21_2 1_555 1_555
C34_2 C33_2 1_555 1_555
H22_2 C34_2 1_555 1_555
C35_2 C32_2 1_555 1_555
N13_4 Zn7_2 1_555 1_555
N15_2 C31_2 1_555 1_555
Zn7_2 N15_2 1_555 1_555
C36_2 H23_2 1_555 1_555
C37_2 C36_2 1_555 1_555
H24_2 C37_2 1_555 1_555
C38_2 H25_2 1_555 1_555
C39_2 C38_2 1_555 1_555
H26_2 C39_2 1_555 1_555
C40_2 C35_2 1_555 1_555
N22 C36_2 1_555 1_555
C2_4 Fe1_4 1_555 1_555
C3_4 Fe1_4 1_555 1_555
C4_4 Fe1_4 1_555 1_555
C5_4 Fe1_4 1_555 1_555
C33_2 N15_2 1_555 1_555
C34_2 C35_2 1_555 1_555
C37_2 C40_2 1_555 1_555
C38_2 N22 1_555 1_555
C39_2 C40_2 1_555 1_555
N4_3 Zn6 1_555 1_555
Zn9_7 N7_5 1_555 1_555
C23_5 C13_5 1_555 1_555
H18_2 O1_3 1_555 1_555
C27_3 N20 1_555 1_555
C28_3 N21_3 1_555 1_555
C30_3 N14_3 1_555 1_555
N14_3 Zn6 1_555 1_555
C42_2 Fe2_3 1_555 1_555
N18_2 C42_2 1_555 1_555
N23 Zn6 1_555 1_555
Zn9_8 N9_4 1_555 1_555
O1_3 Zn9_7 1_555 1_555
C27_3 Fe2_3 1_555 1_555
C28_3 Fe2_3 1_555 1_555
C29_3 Fe2_3 1_555 1_555
C30_3 Fe2_3 1_555 1_555
C6_2 H1_2 1_555 1_555
C7_2 C6_2 1_555 1_555
H2_2 C7_2 1_555 1_555
C8_2 H3_2 1_555 1_555
C9_2 C8_2 1_555 1_555
H4_2 C9_2 1_555 1_555
C10_2 C7_2 1_555 1_555
N4_4 Zn6_2 1_555 1_555
N6_2 C6_2 1_555 1_555
O1_4 H7_2 1_555 1_555
Zn6_2 N6_2 1_555 1_555
C14_2 H8_2 1_555 1_555
C15_2 C14_2 1_555 1_555
H9_2 C15_2 1_555 1_555
C16_2 H10_2 1_555 1_555
C17_2 C16_2 1_555 1_555
H11_2 C17_2 1_555 1_555
C18_2 C10_2 1_555 1_555
N23 C14_2 1_555 1_555
C26_2 N10_2 1_555 1_555
C27_4 N20_2 1_555 1_555
C28_4 N21_4 1_555 1_555
C30_4 N14_4 1_555 1_555
N14_4 Zn6_2 1_555 1_555
Fe2_4 C26_2 1_555 1_555
C8_2 N6_2 1_555 1_555
C9_2 C10_2 1_555 1_555
O1_4 Zn9_8 1_555 1_555
C15_2 C18_2 1_555 1_555
C16_2 N23 1_555 1_555
C17_2 C18_2 1_555 1_555
C27_4 Fe2_4 1_555 1_555
C28_4 Fe2_4 1_555 1_555
C29_4 Fe2_4 1_555 1_555
C30_4 Fe2_4 1_555 1_555

#END
