
###############################################################################
#
# This file contains modified crystal structure data generated from the
# MOF subset of the Cambridge Structural Database (CSD) v543 
# hosted by the Cambridge Crystallographic Data Centre (CCDC).
#
# This work is licensed under the Creative Commons
# Attribution-NonCommercial-ShareAlike 4.0 International License.
# To view a copy of this license, visit
# http://creativecommons.org/licenses/by-nc-sa/4.0/
# or send a letter to
# Creative Commons, PO Box 1866, Mountain View, CA 94042, USA.
#
# CIF created using the CSD Python API on 29 September 2022
# The structure has been converted into the P1 space group
# The structure has a 3D framework
# The original CSD entry BIRSEC is in the orthorhombic crystal system
# The framework has been calculated to contain at least 10.0% void space
# The void calculation uses a probe of radius 1.32A, grid spacing 0.4
# H atom positions have been added when not included in the experimental data
# Generated hydrogen atom positions removed from atoms on special positions
#
###############################################################################

data_BIRSEC
_chemical_formula_moiety         '(C102 H86 Co16 N8 O52)n'
_symmetry_cell_setting           triclinic
_symmetry_space_group_name_H-M   'P 1'
_symmetry_Int_Tables_number      1
_space_group_name_Hall           'P 1'
loop_
_symmetry_equiv_pos_site_id
_symmetry_equiv_pos_as_xyz
1 x,y,z
_cell_length_a                   13.848(6)
_cell_length_b                   19.978(9)
_cell_length_c                   13.111(6)
_cell_angle_alpha                90
_cell_angle_beta                 90
_cell_angle_gamma                90
_cell_volume                     3627.23
loop_
_atom_site_label
_atom_site_type_symbol
_atom_site_fract_x
_atom_site_fract_y
_atom_site_fract_z
C10 C 0.0000 -0.0000 0.7708(7)
H7 H 0.0000 -0.0000 0.8418
C13 C 0.0000 -0.0000 0.5601(5)
H9 H 0.0000 -0.0000 0.4891
O15 O 0.2542(2) 0.00869(14) 0.6090(3)
C27 C 0.0862(4) 0.0003(4) 0.7177(4)
H18 H 0.1443 0.0029 0.7531
C10_2 C 0.0000 1.0000 0.7708(7)
H7_2 H 0.0000 1.0000 0.8418
C13_2 C 0.0000 1.0000 0.5601(5)
H9_2 H 0.0000 1.0000 0.4891
O14 O 0.1828(2) 0.96457(15) 0.4719(2)
C26 C 0.1823(3) 0.9904(2) 0.5604(4)
C28 C 0.0866(3) 0.9968(2) 0.6130(4)
Co11 Co 0.29800(4) 0.90253(3) 0.41293(5)
Co14 Co 0.39632(4) 0.97478(3) 0.59468(4)
O6 O 0.7310(2) 0.06970(17) 0.2654(2)
O7 O 0.5954(2) 0.01903(18) 0.2150(2)
C2 C 0.6735(3) 0.0481(2) 0.2002(3)
C6 C 0.7666(4) 0.1119(3) 0.0663(4)
H5 H 0.7987 0.1344 0.1183
C7 C 0.7011(3) 0.0618(2) 0.0895(4)
C8 C 0.6569(3) 0.0268(2) 0.0113(3)
H24 H 0.3849 0.0083 0.0263
Co8 Co 0.5000 0.0000 0.33695(6)
Co9 Co 0.70200(4) 0.09747(3) 0.41293(5)
Co3 Co 0.60368(4) 0.02522(3) 0.59468(4)
O2 O 0.61177(18) 0.01828(13) 0.4377(2)
O4 O 0.59593(19) 0.04334(14) 0.7527(2)
C1 C 0.6245(3) 0.0077(2) 0.8249(4)
C3 C 0.6746(3) 0.0438(2) 0.9110(4)
C4 C 0.7371(4) 0.0959(3) 0.8896(4)
H3 H 0.7470 0.1089 0.8223
C5 C 0.7840(5) 0.1284(4) 0.9656(5)
H4 H 0.8282 0.1619 0.9499
O8 O 0.8172(2) 0.03543(15) 0.4719(2)
C9 C 0.8177(3) 0.0096(2) 0.5604(4)
C10_3 C 1.0000 -0.0000 0.7708(7)
H7_3 H 1.0000 -0.0000 0.8418
C12 C 0.9134(3) 0.0032(2) 0.6130(4)
C13_3 C 1.0000 -0.0000 0.5601(5)
H9_3 H 1.0000 -0.0000 0.4891
N1 N 0.8669(3) 0.31464(18) 0.7026(3)
O10 O 0.6684(2) 0.12113(14) 0.5744(2)
O11 O 0.5706(2) 0.18209(15) 0.6749(3)
C14 C 0.6479(3) 0.1725(2) 0.6282(3)
C15 C 0.7756(3) 0.3341(2) 0.6853(4)
H10 H 0.7607 0.3793 0.6910
C16 C 0.7032(3) 0.2903(2) 0.6596(4)
H11 H 0.6403 0.3055 0.6512
C17 C 0.7250(3) 0.2236(2) 0.6463(3)
C18 C 0.8198(3) 0.2036(2) 0.6628(4)
H12 H 0.8372 0.1590 0.6547
C19 C 0.8876(3) 0.2501(2) 0.6912(4)
H13 H 0.9506 0.2358 0.7029
Co7 Co 0.47474(4) 0.11500(3) 0.74073(5)
O16 O 0.5048(2) 0.16254(17) 0.8790(3)
H19 H 0.3458 0.0204 0.4274
O18 O 0.46306(17) 0.06556(13) 0.6062(2)
H20 H 0.4473 0.0954 0.5493
O20 O 0.3868(2) 0.05421(15) 0.8312(2)
N4 N 0.3021(2) 0.32166(16) 0.3999(3)
O25 O 0.4559(2) 0.10058(14) 0.3498(3)
O26 O 0.5861(2) 0.16410(14) 0.3782(3)
C43 C 0.4987(3) 0.1546(2) 0.3687(3)
C44 C 0.2730(3) 0.2597(2) 0.3875(5)
H29 H 0.2069 0.2518 0.3847
C45 C 0.3331(3) 0.2061(2) 0.3785(4)
H30 H 0.3072 0.1634 0.3710
C46 C 0.4301(3) 0.2140(2) 0.3804(3)
C47 C 0.4625(3) 0.2778(2) 0.3948(5)
H31 H 0.5284 0.2865 0.3983
C48 C 0.3970(3) 0.3295(2) 0.4043(5)
H32 H 0.4209 0.3725 0.4143
Co12 Co 0.20200(4) 0.40253(3) 0.41293(5)
Co16 Co 0.97474(4) 0.38500(3) 0.74073(5)
N5 N 0.3669(3) 0.18536(18) 0.7026(3)
N8 N 0.8021(2) 0.17834(16) 0.3999(3)
H6 H 0.6151 0.9917 0.0263
O21 O 0.2690(2) 0.93030(17) 0.2654(2)
O22 O 0.4046(2) 0.98097(18) 0.2150(2)
C30 C 0.3265(3) 0.9519(2) 0.2002(3)
C34 C 0.2334(4) 0.8881(3) 0.0663(4)
H23 H 0.2013 0.8656 0.1183
C35 C 0.2989(3) 0.9382(2) 0.0895(4)
C36 C 0.3431(3) 0.9732(2) 0.0113(3)
Co8_2 Co 0.5000 1.0000 0.33695(6)
Co4 Co 0.52526(4) 0.88500(3) 0.74073(5)
O1 O 0.4952(2) 0.83746(17) 0.8790(3)
H1 H 0.6542 0.9796 0.4274
O3 O 0.53694(17) 0.93444(13) 0.6062(2)
H2 H 0.5527 0.9046 0.5493
O5 O 0.6132(2) 0.94579(15) 0.8312(2)
O9 O 0.7458(2) 0.99131(14) 0.6090(3)
C10_4 C 1.0000 1.0000 0.7708(7)
H7_4 H 1.0000 1.0000 0.8418
C11 C 0.9138(4) 0.9997(4) 0.7177(4)
H8 H 0.8557 0.9971 0.7531
C13_4 C 1.0000 1.0000 0.5601(5)
H9_4 H 1.0000 1.0000 0.4891
N2 N 0.6979(2) 0.67834(16) 0.3999(3)
O12 O 0.5441(2) 0.89942(14) 0.3498(3)
O13 O 0.4139(2) 0.83590(14) 0.3782(3)
C20 C 0.5013(3) 0.8454(2) 0.3687(3)
C21 C 0.7270(3) 0.7403(2) 0.3875(5)
H14 H 0.7931 0.7482 0.3847
C22 C 0.6669(3) 0.7939(2) 0.3785(4)
H15 H 0.6928 0.8366 0.3710
C23 C 0.5699(3) 0.7860(2) 0.3804(3)
C24 C 0.5375(3) 0.7222(2) 0.3948(5)
H16 H 0.4716 0.7135 0.3983
C25 C 0.6030(3) 0.6705(2) 0.4043(5)
H17 H 0.5791 0.6275 0.4143
O17 O 0.38823(18) 0.98172(13) 0.4377(2)
O19 O 0.40407(19) 0.95666(14) 0.7527(2)
C29 C 0.3755(3) 0.9923(2) 0.8249(4)
C31 C 0.3254(3) 0.9562(2) 0.9110(4)
C32 C 0.2629(4) 0.9041(3) 0.8896(4)
H21 H 0.2530 0.8911 0.8223
C33 C 0.2160(5) 0.8716(4) 0.9656(5)
H22 H 0.1718 0.8381 0.9499
N3 N 0.1331(3) 0.68536(18) 0.7026(3)
O23 O 0.3316(2) 0.87887(14) 0.5744(2)
O24 O 0.4294(2) 0.81791(15) 0.6749(3)
C37 C 0.3521(3) 0.8275(2) 0.6282(3)
C38 C 0.2244(3) 0.6659(2) 0.6853(4)
H25 H 0.2393 0.6207 0.6910
C39 C 0.2968(3) 0.7097(2) 0.6596(4)
H26 H 0.3597 0.6945 0.6512
C40 C 0.2750(3) 0.7764(2) 0.6463(3)
C41 C 0.1802(3) 0.7964(2) 0.6628(4)
H27 H 0.1628 0.8410 0.6547
C42 C 0.1124(3) 0.7499(2) 0.6912(4)
H28 H 0.0494 0.7642 0.7029
Co13 Co 0.79800(4) 0.59747(3) 0.41293(5)
Co15 Co 0.02526(4) 0.61500(3) 0.74073(5)
N6 N 0.6331(3) 0.81464(18) 0.7026(3)
N7 N 0.1979(2) 0.82166(16) 0.3999(3)
O6_2 O 0.2310(2) 0.43030(17) 0.2654(2)
O7_2 O 0.0954(2) 0.48097(18) 0.2150(2)
C2_2 C 0.1735(3) 0.4519(2) 0.2002(3)
C6_2 C 0.2666(4) 0.3881(3) 0.0663(4)
H5_2 H 0.2987 0.3656 0.1183
C7_2 C 0.2011(3) 0.4382(2) 0.0895(4)
C8_2 C 0.1569(3) 0.4732(2) 0.0113(3)
H6_2 H 0.1151 0.5083 0.0263
Co8_3 Co -0.0000 0.5000 0.33695(6)
Co3_2 Co 0.10368(4) 0.47478(3) 0.59468(4)
O2_2 O 0.11177(18) 0.48172(13) 0.4377(2)
H1_2 H 0.1542 0.5204 0.4274
O3_2 O 0.03694(17) 0.56556(13) 0.6062(2)
H2_2 H 0.0527 0.5954 0.5493
O4_2 O 0.09593(19) 0.45666(14) 0.7527(2)
O5_2 O 0.1132(2) 0.55421(15) 0.8312(2)
C1_2 C 0.1245(3) 0.4923(2) 0.8249(4)
C3_2 C 0.1746(3) 0.4562(2) 0.9110(4)
C4_2 C 0.2371(4) 0.4041(3) 0.8896(4)
H3_2 H 0.2470 0.3911 0.8223
C5_2 C 0.2840(5) 0.3716(4) 0.9656(5)
H4_2 H 0.3282 0.3381 0.9499
O8_2 O 0.3172(2) 0.46457(15) 0.4719(2)
O9_2 O 0.2458(2) 0.50869(14) 0.6090(3)
C9_2 C 0.3177(3) 0.4904(2) 0.5604(4)
C10_5 C 0.5000 0.5000 0.7708(7)
H7_5 H 0.5000 0.5000 0.8418
C11_2 C 0.4138(4) 0.5003(4) 0.7177(4)
H8_2 H 0.3557 0.5029 0.7531
C12_2 C 0.4134(3) 0.4968(2) 0.6130(4)
C13_5 C 0.5000 0.5000 0.5601(5)
H9_5 H 0.5000 0.5000 0.4891
O10_2 O 0.1684(2) 0.37887(14) 0.5744(2)
O11_2 O 0.0706(2) 0.31791(15) 0.6749(3)
C14_2 C 0.1479(3) 0.3275(2) 0.6282(3)
C15_2 C 0.2756(3) 0.1659(2) 0.6853(4)
H10_2 H 0.2607 0.1207 0.6910
C16_2 C 0.2032(3) 0.2097(2) 0.6596(4)
H11_2 H 0.1403 0.1945 0.6512
C17_2 C 0.2250(3) 0.2764(2) 0.6463(3)
C18_2 C 0.3198(3) 0.2964(2) 0.6628(4)
H12_2 H 0.3372 0.3410 0.6547
C19_2 C 0.3876(3) 0.2499(2) 0.6912(4)
H13_2 H 0.4506 0.2642 0.7029
O12_2 O 0.0441(2) 0.60058(14) 0.3498(3)
C20_2 C 0.0013(3) 0.6546(2) 0.3687(3)
C21_2 C 0.2270(3) 0.7597(2) 0.3875(5)
H14_2 H 0.2931 0.7518 0.3847
C22_2 C 0.1669(3) 0.7061(2) 0.3785(4)
H15_2 H 0.1928 0.6634 0.3710
C23_2 C 0.0699(3) 0.7140(2) 0.3804(3)
C24_2 C 0.0375(3) 0.7778(2) 0.3948(5)
C25_2 C 0.1030(3) 0.8295(2) 0.4043(5)
H17_2 H 0.0791 0.8725 0.4143
O14_2 O 0.6828(2) 0.53543(15) 0.4719(2)
O15_2 O 0.7542(2) 0.49131(14) 0.6090(3)
C26_2 C 0.6823(3) 0.5096(2) 0.5604(4)
C27_2 C 0.5862(4) 0.4997(4) 0.7177(4)
H18_2 H 0.6443 0.4971 0.7531
C28_2 C 0.5866(3) 0.5032(2) 0.6130(4)
O16_2 O 0.0048(2) 0.33746(17) 0.8790(3)
O26_2 O 0.0861(2) 0.33590(14) 0.3782(3)
H31_2 H 0.0284 0.2135 0.3983
Co14_2 Co 0.89632(4) 0.52522(3) 0.59468(4)
H34 H 0.0549884 0.683633 0.905746
H35 H 0.0707589 0.318026 0.876573
O21_2 O 0.7690(2) 0.56970(17) 0.2654(2)
O22_2 O 0.9046(2) 0.51903(18) 0.2150(2)
C30_2 C 0.8265(3) 0.5481(2) 0.2002(3)
C34_2 C 0.7334(4) 0.6119(3) 0.0663(4)
H23_2 H 0.7013 0.6344 0.1183
C35_2 C 0.7989(3) 0.5618(2) 0.0895(4)
C36_2 C 0.8431(3) 0.5268(2) 0.0113(3)
H24_2 H 0.8849 0.4917 0.0263
Co8_4 Co 1.0000 0.5000 0.33695(6)
O1_2 O 0.9952(2) 0.66254(17) 0.8790(3)
O13_2 O 0.9139(2) 0.66410(14) 0.3782(3)
H16_2 H 0.9716 0.7865 0.3983
O17_2 O 0.88823(18) 0.51828(13) 0.4377(2)
H19_2 H 0.8458 0.4796 0.4274
O18_2 O 0.96306(17) 0.43444(13) 0.6062(2)
H20_2 H 0.9473 0.4046 0.5493
O19_2 O 0.90407(19) 0.54334(14) 0.7527(2)
O20_2 O 0.8868(2) 0.44579(15) 0.8312(2)
C29_2 C 0.8755(3) 0.5077(2) 0.8249(4)
C31_2 C 0.8254(3) 0.5438(2) 0.9110(4)
C32_2 C 0.7629(4) 0.5959(3) 0.8896(4)
H21_2 H 0.7530 0.6089 0.8223
C33_2 C 0.7160(5) 0.6284(4) 0.9656(5)
H22_2 H 0.6718 0.6619 0.9499
O23_2 O 0.8316(2) 0.62113(14) 0.5744(2)
O24_2 O 0.9294(2) 0.68209(15) 0.6749(3)
C37_2 C 0.8521(3) 0.6725(2) 0.6282(3)
C38_2 C 0.7244(3) 0.8341(2) 0.6853(4)
H25_2 H 0.7393 0.8793 0.6910
C39_2 C 0.7968(3) 0.7903(2) 0.6596(4)
H26_2 H 0.8597 0.8055 0.6512
C40_2 C 0.7750(3) 0.7236(2) 0.6463(3)
C41_2 C 0.6802(3) 0.7036(2) 0.6628(4)
H27_2 H 0.6628 0.6590 0.6547
C42_2 C 0.6124(3) 0.7501(2) 0.6912(4)
H28_2 H 0.5494 0.7358 0.7029
O25_2 O 0.9559(2) 0.39942(14) 0.3498(3)
C43_2 C 0.9987(3) 0.3454(2) 0.3687(3)
C44_2 C 0.7730(3) 0.2403(2) 0.3875(5)
H29_2 H 0.7069 0.2482 0.3847
C45_2 C 0.8331(3) 0.2939(2) 0.3785(4)
H30_2 H 0.8072 0.3366 0.3710
C46_2 C 0.9301(3) 0.2860(2) 0.3804(3)
C47_2 C 0.9625(3) 0.2222(2) 0.3948(5)
C48_2 C 0.8970(3) 0.1705(2) 0.4043(5)
H32_2 H 0.9209 0.1275 0.4143
H33 H 0.945257 0.697479 0.86808
H36 H 0.956986 0.301231 0.890759
H33_2 H 0.0547433 0.302521 0.86808
H36_2 H 0.0430142 0.698769 0.890759
H34_2 H 0.945012 0.316367 0.905746
H35_2 H 0.929241 0.681974 0.876573
loop_
_geom_bond_atom_site_label_1
_geom_bond_atom_site_label_2
_geom_bond_site_symmetry_1
_geom_bond_site_symmetry_2
C10 H7 1_555 1_555
H9 C13 1_555 1_555
C27 C10 1_555 1_555
H18 C27 1_555 1_555
C10_2 H7_2 1_555 1_555
H9_2 C13_2 1_555 1_555
O14 C26 1_555 1_555
C26 C28 1_555 1_555
C28 C13_2 1_555 1_555
Co11 O14 1_555 1_555
O6 C2 1_555 1_555
O7 C2 1_555 1_555
C2 C7 1_555 1_555
H5 C6 1_555 1_555
C7 C6 1_555 1_555
Co8 O7 1_555 1_555
Co9 O6 1_555 1_555
C7 C8 1_555 1_555
Co8 O2 1_555 1_555
Co9 O2 1_555 1_555
Co3 O2 1_555 1_555
O4 Co3 1_555 1_555
C1 O4 1_555 1_555
C3 C1 1_555 1_555
C4 C3 1_555 1_555
H3 C4 1_555 1_555
C5 C4 1_555 1_555
H4 C5 1_555 1_555
O8 Co9 1_555 1_555
C9 O8 1_555 1_555
C10_3 H7_3 1_555 1_555
C12 C9 1_555 1_555
C13_3 C12 1_555 1_555
H9_3 C13_3 1_555 1_555
N1 C15 1_555 1_555
O10 Co9 1_555 1_555
O11 C14 1_555 1_555
C14 O10 1_555 1_555
C15 H10 1_555 1_555
C16 C15 1_555 1_555
H11 C16 1_555 1_555
C17 C14 1_555 1_555
C18 C17 1_555 1_555
H12 C18 1_555 1_555
C19 N1 1_555 1_555
H13 C19 1_555 1_555
Co7 O4 1_555 1_555
O16 Co7 1_555 1_555
O18 Co3 1_555 1_555
H20 O18 1_555 1_555
O20 Co7 1_555 1_555
N4 C44 1_555 1_555
O25 Co8 1_555 1_555
O26 Co9 1_555 1_555
C43 O25 1_555 1_555
C44 H29 1_555 1_555
C45 C44 1_555 1_555
H30 C45 1_555 1_555
C46 C43 1_555 1_555
C47 C46 1_555 1_555
H31 C47 1_555 1_555
C48 N4 1_555 1_555
H32 C48 1_555 1_555
Co12 N4 1_555 1_555
Co16 N1 1_555 1_555
N5 Co7 1_555 1_555
N8 Co9 1_555 1_555
Co3 O10 1_555 1_555
O11 Co7 1_555 1_555
C16 C17 1_555 1_555
C18 C19 1_555 1_555
Co7 O18 1_555 1_555
O26 C43 1_555 1_555
C45 C46 1_555 1_555
C47 C48 1_555 1_555
O21 C30 1_555 1_555
O22 C30 1_555 1_555
C30 C35 1_555 1_555
H23 C34 1_555 1_555
C35 C34 1_555 1_555
Co11 O21 1_555 1_555
O22 Co8_2 1_555 1_555
C35 C36 1_555 1_555
Co4 O1 1_555 1_555
H2 O3 1_555 1_555
O5 Co4 1_555 1_555
C10_4 H7_4 1_555 1_555
C11 C10_4 1_555 1_555
H8 C11 1_555 1_555
H9_4 C13_4 1_555 1_555
N2 C21 1_555 1_555
O12 Co8_2 1_555 1_555
O13 C20 1_555 1_555
C20 O12 1_555 1_555
C21 H14 1_555 1_555
C22 C21 1_555 1_555
H15 C22 1_555 1_555
C23 C20 1_555 1_555
C24 C23 1_555 1_555
H16 C24 1_555 1_555
C25 N2 1_555 1_555
H17 C25 1_555 1_555
Co11 O13 1_555 1_555
Co14 O3 1_555 1_555
O17 Co8_2 1_555 1_555
O19 Co4 1_555 1_555
C29 O19 1_555 1_555
C31 C29 1_555 1_555
C32 C31 1_555 1_555
H21 C32 1_555 1_555
C33 C32 1_555 1_555
H22 C33 1_555 1_555
N3 C38 1_555 1_555
O23 Co11 1_555 1_555
O24 Co4 1_555 1_555
C37 O23 1_555 1_555
C38 H25 1_555 1_555
C39 C38 1_555 1_555
H26 C39 1_555 1_555
C40 C37 1_555 1_555
C41 C40 1_555 1_555
H27 C41 1_555 1_555
C42 N3 1_555 1_555
H28 C42 1_555 1_555
Co13 N2 1_555 1_555
Co15 N3 1_555 1_555
N6 Co4 1_555 1_555
N7 Co11 1_555 1_555
Co4 O3 1_555 1_555
C22 C23 1_555 1_555
C24 C25 1_555 1_555
Co11 O17 1_555 1_555
Co14 O17 1_555 1_555
Co14 O19 1_555 1_555
Co14 O23 1_555 1_555
O24 C37 1_555 1_555
C39 C40 1_555 1_555
C41 C42 1_555 1_555
O6_2 C2_2 1_555 1_555
O7_2 C2_2 1_555 1_555
C2_2 C7_2 1_555 1_555
H5_2 C6_2 1_555 1_555
C7_2 C6_2 1_555 1_555
H6_2 C8_2 1_555 1_555
Co8_3 O7_2 1_555 1_555
Co12 O6_2 1_555 1_555
C7_2 C8_2 1_555 1_555
Co8_3 O2_2 1_555 1_555
Co12 O2_2 1_555 1_555
Co3_2 O2_2 1_555 1_555
O2_2 H1_2 1_555 1_555
O3_2 Co3_2 1_555 1_555
H2_2 O3_2 1_555 1_555
O4_2 Co3_2 1_555 1_555
O5_2 Co15 1_555 1_555
C1_2 O4_2 1_555 1_555
C3_2 C1_2 1_555 1_555
C4_2 C3_2 1_555 1_555
H3_2 C4_2 1_555 1_555
C5_2 C4_2 1_555 1_555
H4_2 C5_2 1_555 1_555
O8_2 Co12 1_555 1_555
O9_2 Co3_2 1_555 1_555
C9_2 O8_2 1_555 1_555
C10_5 H7_5 1_555 1_555
C11_2 C10_5 1_555 1_555
H8_2 C11_2 1_555 1_555
C12_2 C9_2 1_555 1_555
C13_5 C12_2 1_555 1_555
H9_5 C13_5 1_555 1_555
N5 C15_2 1_555 1_555
O10_2 Co12 1_555 1_555
O11_2 C14_2 1_555 1_555
C14_2 O10_2 1_555 1_555
C15_2 H10_2 1_555 1_555
C16_2 C15_2 1_555 1_555
H11_2 C16_2 1_555 1_555
C17_2 C14_2 1_555 1_555
C18_2 C17_2 1_555 1_555
H12_2 C18_2 1_555 1_555
C19_2 N5 1_555 1_555
H13_2 C19_2 1_555 1_555
N7 C21_2 1_555 1_555
O12_2 Co8_3 1_555 1_555
C20_2 O12_2 1_555 1_555
C21_2 H14_2 1_555 1_555
C22_2 C21_2 1_555 1_555
H15_2 C22_2 1_555 1_555
C23_2 C20_2 1_555 1_555
C24_2 C23_2 1_555 1_555
C25_2 N7 1_555 1_555
H17_2 C25_2 1_555 1_555
O14_2 C26_2 1_555 1_555
O15_2 C26_2 1_555 1_555
C26_2 C28_2 1_555 1_555
C27_2 C10_5 1_555 1_555
H18_2 C27_2 1_555 1_555
C28_2 C13_5 1_555 1_555
O26_2 Co12 1_555 1_555
Co13 O14_2 1_555 1_555
Co14_2 O15_2 1_555 1_555
Co3_2 O10_2 1_555 1_555
Co15 O3_2 1_555 1_555
O5_2 C1_2 1_555 1_555
O9_2 C9_2 1_555 1_555
C11_2 C12_2 1_555 1_555
C16_2 C17_2 1_555 1_555
C18_2 C19_2 1_555 1_555
C22_2 C23_2 1_555 1_555
C24_2 C25_2 1_555 1_555
C27_2 C28_2 1_555 1_555
O16_2 H35 1_555 1_555
O21_2 C30_2 1_555 1_555
O22_2 C30_2 1_555 1_555
C30_2 C35_2 1_555 1_555
H23_2 C34_2 1_555 1_555
C35_2 C34_2 1_555 1_555
H24_2 C36_2 1_555 1_555
Co13 O21_2 1_555 1_555
O22_2 Co8_4 1_555 1_555
C35_2 C36_2 1_555 1_555
Co13 O13_2 1_555 1_555
O17_2 Co8_4 1_555 1_555
H19_2 O17_2 1_555 1_555
H20_2 O18_2 1_555 1_555
O20_2 Co16 1_555 1_555
C29_2 O19_2 1_555 1_555
C31_2 C29_2 1_555 1_555
C32_2 C31_2 1_555 1_555
H21_2 C32_2 1_555 1_555
C33_2 C32_2 1_555 1_555
H22_2 C33_2 1_555 1_555
N6 C38_2 1_555 1_555
O23_2 Co13 1_555 1_555
C37_2 O23_2 1_555 1_555
C38_2 H25_2 1_555 1_555
C39_2 C38_2 1_555 1_555
H26_2 C39_2 1_555 1_555
C40_2 C37_2 1_555 1_555
C41_2 C40_2 1_555 1_555
H27_2 C41_2 1_555 1_555
C42_2 N6 1_555 1_555
H28_2 C42_2 1_555 1_555
N8 C44_2 1_555 1_555
O25_2 Co8_4 1_555 1_555
C43_2 O25_2 1_555 1_555
C44_2 H29_2 1_555 1_555
C45_2 C44_2 1_555 1_555
H30_2 C45_2 1_555 1_555
C46_2 C43_2 1_555 1_555
C47_2 C46_2 1_555 1_555
C48_2 N8 1_555 1_555
H32_2 C48_2 1_555 1_555
Co13 O17_2 1_555 1_555
Co14_2 O17_2 1_555 1_555
Co14_2 O18_2 1_555 1_555
Co14_2 O19_2 1_555 1_555
Co14_2 O23_2 1_555 1_555
Co16 O18_2 1_555 1_555
O20_2 C29_2 1_555 1_555
O24_2 C37_2 1_555 1_555
C39_2 C40_2 1_555 1_555
C41_2 C42_2 1_555 1_555
C45_2 C46_2 1_555 1_555
C47_2 C48_2 1_555 1_555
O1_2 H33 1_555 1_555
O16_2 H33_2 1_555 1_555
O1_2 H35_2 1_555 1_555

#END
