
###############################################################################
#
# This file contains modified crystal structure data generated from the
# MOF subset of the Cambridge Structural Database (CSD) v543 
# hosted by the Cambridge Crystallographic Data Centre (CCDC).
#
# This work is licensed under the Creative Commons
# Attribution-NonCommercial-ShareAlike 4.0 International License.
# To view a copy of this license, visit
# http://creativecommons.org/licenses/by-nc-sa/4.0/
# or send a letter to
# Creative Commons, PO Box 1866, Mountain View, CA 94042, USA.
#
# CIF created using the CSD Python API on 29 September 2022
# The structure has been converted into the P1 space group
# The structure has a 3D framework
# The original CSD entry BIWDET is in the triclinic crystal system
# The framework has been calculated to contain at least 10.0% void space
# The void calculation uses a probe of radius 1.32A, grid spacing 0.4
#
###############################################################################

data_BIWDET
_chemical_formula_moiety         '(C42 H40 Er2 N8 O17)n'
_symmetry_cell_setting           triclinic
_symmetry_space_group_name_H-M   'P 1'
_symmetry_Int_Tables_number      1
_space_group_name_Hall           'P 1'
loop_
_symmetry_equiv_pos_site_id
_symmetry_equiv_pos_as_xyz
1 x,y,z
_cell_length_a                   9.862(2)
_cell_length_b                   11.693(2)
_cell_length_c                   13.404(3)
_cell_angle_alpha                66.91(3)
_cell_angle_beta                 86.98(3)
_cell_angle_gamma                76.69(3)
_cell_volume                     1382.46
loop_
_atom_site_label
_atom_site_type_symbol
_atom_site_fract_x
_atom_site_fract_y
_atom_site_fract_z
_atom_site_U_iso_or_equiv
_atom_site_thermal_displace_type
N2 N 0.1579(13) 0.5461(13) 0.0079(8) 0.0546 Uani
H4 H 0.0170 0.2833 0.5960 0.0330 Uiso
O7 O 0.0925(7) 0.5038(7) 0.3912(5) 0.0233 Uani
C12 C 0.0158(11) 0.4939(10) 0.3276(8) 0.0214 Uani
C13 C 0.0687(10) 0.5115(11) 0.2171(8) 0.0229 Uani
C14 C 0.1888(15) 0.5460(16) 0.1831(10) 0.0590 Uani
H11 H 0.2440 0.5572 0.2311 0.0700 Uiso
C15 C 0.2347(16) 0.5659(18) 0.0782(11) 0.0686 Uani
H12 H 0.3174 0.5925 0.0569 0.0830 Uiso
C16 C 0.0400(13) 0.5083(11) 0.0410(9) 0.0329 Uani
Er7 Er 0.23731(5) 0.52462(5) 0.50573(4) 0.0160 Uani
O10 O 0.1048(8) 0.5257(7) 0.6558(5) 0.0248 Uani
C27 C 0.0078(12) 0.5080(11) 0.8588(8) 0.0301 Uani
H23 H 0.0921 0.5322 0.8398 0.0360 Uiso
C5 C 0.6868(13) 0.0286(11) 0.0501(9) 0.0346 Uani
N4 N 0.4623(11) 0.1743(10) 0.0170(8) 0.0445 Uani
C3 C 0.6104(10) 0.1999(10) 0.8672(8) 0.0222 Uani
H1 H 0.6972 0.1765 0.8412 0.0270 Uiso
O6 O 0.6583(7) 0.3531(7) 0.6455(6) 0.0262 Uani
C8 C 0.5850(13) 0.1391(11) 0.9712(9) 0.0336 Uani
O9 O 0.4259(7) 0.4415(7) 0.6197(6) 0.0300 Uani
C9 C 0.3659(14) 0.2704(12) 0.9487(10) 0.0429 Uani
H9 H 0.2819 0.2969 0.9769 0.0510 Uiso
C10 C 0.3834(13) 0.3327(12) 0.8390(9) 0.0367 Uani
H10 H 0.3119 0.3967 0.7944 0.0450 Uiso
C11 C 0.5088(12) 0.2974(10) 0.7980(8) 0.0250 Uani
C21 C 0.537(2) 0.3678(14) 0.6771(11) 0.0590 Uani
O12 O 0.3925(9) 0.1648(8) 0.6228(6) 0.0423 Uani
N6 N 0.1909(12) 0.0040(11) 0.9890(8) 0.0477 Uani
C28 C 0.2870(13) 0.2105(10) 0.6582(9) 0.0279 Uani
O13 O 0.2016(8) 0.3175(7) 0.6074(6) 0.0280 Uani
C29 C 0.2491(11) 0.1348(10) 0.7734(9) 0.0259 Uani
C31 C 0.3460(12) 0.0361(10) 0.8425(9) 0.0272 Uani
H25 H 0.4338 0.0116 0.8183 0.0320 Uiso
O14 O 0.2948(8) 0.6889(8) 0.5512(6) 0.0345 Uani
N7 N 0.3104(16) 0.7937(14) 0.6586(11) 0.0716 Uani
O15 O 0.0541(8) 0.7147(7) 0.4384(6) 0.0274 Uani
H26 H 0.0608 0.7804 0.4488 0.0330 Uiso
C33 C 0.0955(14) 0.1032(14) 0.9197(11) 0.0595 Uani
H28 H 0.0084 0.1273 0.9449 0.0710 Uiso
C34 C 0.1228(13) 0.1694(12) 0.8139(10) 0.0413 Uani
H29 H 0.0553 0.2381 0.7693 0.0490 Uiso
O17 O 0.3888(8) 0.3771(7) 0.4420(6) 0.0295 Uani
H30 H 0.4741 0.3798 0.4327 0.0360 Uiso
H31 H 0.3574 0.3225 0.4286 0.0360 Uiso
C39 C 0.2777(15) 0.7065(16) 0.6360(12) 0.0554 Uani
H34 H 0.2358 0.6493 0.6905 0.0670 Uiso
C40 C 0.2795(18) 0.7975(17) 0.7619(14) 0.0731 Uani
H35 H 0.3098 0.8674 0.7672 0.1100 Uiso
H36 H 0.3270 0.7189 0.8176 0.1100 Uiso
H37 H 0.1807 0.8088 0.7711 0.1100 Uiso
C41 C 0.3771(19) 0.8885(17) 0.5797(14) 0.0785 Uani
H38 H 0.3938 0.9459 0.6105 0.1170 Uiso
H39 H 0.3173 0.9358 0.5157 0.1170 Uiso
H40 H 0.4642 0.8463 0.5611 0.1170 Uiso
Er4 Er 0.76269(5) 0.47538(5) 0.49427(4) 0.0160 Uani
O21 O 0.3417(7) 0.6469(7) 0.3545(6) 0.0262 Uani
O1 O 0.6075(9) 0.8352(8) 0.3772(6) 0.0423 Uani
N1 N 0.8091(12) 0.9960(11) 0.0110(8) 0.0477 Uani
C1 C 0.7130(13) 0.7895(10) 0.3418(9) 0.0279 Uani
O2 O 0.7984(8) 0.6825(7) 0.3926(6) 0.0280 Uani
C2 C 0.7509(11) 0.8652(10) 0.2266(9) 0.0259 Uani
O3 O 0.8952(8) 0.4743(7) 0.3442(5) 0.0248 Uani
C4 C 0.6540(12) 0.9639(10) 0.1575(9) 0.0272 Uani
H2 H 0.5662 0.9884 0.1817 0.0320 Uiso
O4 O 0.7052(8) 0.3111(8) 0.4488(6) 0.0345 Uani
N3 N 0.6896(16) 0.2063(14) 0.3414(11) 0.0716 Uani
O5 O 0.9459(8) 0.2853(7) 0.5616(6) 0.0274 Uani
H3 H 0.9392 0.2196 0.5512 0.0330 Uiso
C6 C 0.9045(14) 0.8968(14) 0.0803(11) 0.0595 Uani
H5 H 0.9916 0.8727 0.0551 0.0710 Uiso
C7 C 0.8772(13) 0.8306(12) 0.1861(10) 0.0413 Uani
H6 H 0.9447 0.7619 0.2307 0.0490 Uiso
O8 O 0.6112(8) 0.6229(7) 0.5580(6) 0.0295 Uani
H7 H 0.5259 0.6202 0.5673 0.0360 Uiso
H8 H 0.6426 0.6775 0.5714 0.0360 Uiso
C17 C 0.9922(12) 0.4920(11) 0.1412(8) 0.0301 Uani
H13 H 0.9079 0.4678 0.1602 0.0360 Uiso
C18 C 0.7223(15) 0.2935(16) 0.3640(12) 0.0554 Uani
H14 H 0.7642 0.3507 0.3095 0.0670 Uiso
C19 C 0.7205(18) 0.2025(17) 0.2381(14) 0.0731 Uani
H15 H 0.6902 0.1326 0.2328 0.1100 Uiso
H16 H 0.6730 0.2811 0.1824 0.1100 Uiso
H17 H 0.8193 0.1912 0.2289 0.1100 Uiso
C20 C 0.6229(19) 0.1115(17) 0.4203(14) 0.0785 Uani
H18 H 0.6062 0.0541 0.3895 0.1170 Uiso
H19 H 0.6827 0.0642 0.4843 0.1170 Uiso
H20 H 0.5358 0.1537 0.4389 0.1170 Uiso
C30 C 0.3896(10) 0.8001(10) 0.1328(8) 0.0222 Uani
H24 H 0.3028 0.8235 0.1588 0.0270 Uiso
C35 C 0.4150(13) 0.8609(11) 0.0288(9) 0.0336 Uani
O18 O 0.5741(7) 0.5585(7) 0.3803(6) 0.0300 Uani
C36 C 0.6341(14) 0.7296(12) 0.0513(10) 0.0429 Uani
H32 H 0.7181 0.7031 0.0231 0.0510 Uiso
C37 C 0.6166(13) 0.6673(12) 0.1610(9) 0.0367 Uani
H33 H 0.6881 0.6033 0.2056 0.0450 Uiso
C38 C 0.4912(12) 0.7026(10) 0.2020(8) 0.0250 Uani
C42 C 0.463(2) 0.6322(14) 0.3229(11) 0.0590 Uani
O23 O 0.9075(7) 0.4962(7) 0.6088(5) 0.0233 Uani
N5 N 0.8421(13) 0.4539(13) 0.9921(8) 0.0546 Uani
C22 C 0.9842(11) 0.5061(10) 0.6724(8) 0.0214 Uani
C23 C 0.9313(10) 0.4885(11) 0.7829(8) 0.0229 Uani
C24 C 0.8112(15) 0.4540(16) 0.8169(10) 0.0590 Uani
H21 H 0.7560 0.4428 0.7689 0.0700 Uiso
C25 C 0.7653(16) 0.4341(18) 0.9218(11) 0.0686 Uani
H22 H 0.6826 0.4075 0.9431 0.0830 Uiso
C26 C 0.9600(13) 0.4917(11) 0.9590(9) 0.0329 Uani
C32 C 0.3132(13) 0.9714(11) 0.9499(9) 0.0346 Uani
N8 N 0.5377(11) 0.8257(10) 0.9830(8) 0.0445 Uani
H27 H 0.9830 0.7167 0.4040 0.0330 Uiso
loop_
_atom_site_aniso_label
_atom_site_aniso_U_11
_atom_site_aniso_U_22
_atom_site_aniso_U_33
_atom_site_aniso_U_23
_atom_site_aniso_U_13
_atom_site_aniso_U_12
N2 0.056 0.104 0.032 -0.038 0.015 -0.054
O7 0.022 0.034 0.016 -0.01 0 -0.01
C12 0.021 0.034 0.01 -0.008 -0.003 -0.008
C13 0.008 0.038 0.014 -0.004 0 0
C14 0.05 0.12 0.032 -0.037 0.012 -0.056
C15 0.067 0.142 0.04 -0.055 0.04 -0.079
C16 0.033 0.033 0.033 -0.013 0.001 -0.008
Er7 0.0149 0.0187 0.009 -0.00028 -0.00077 -0.00244
O10 0.028 0.038 0.009 -0.006 0.004 -0.015
C27 0.03 0.048 0.018 -0.018 0.004 -0.011
C5 0.047 0.018 0.02 0.006 -0.008 0.006
N4 0.044 0.039 0.028 0.002 0.002 0.006
C3 0.008 0.028 0.021 -0.004 -0.003 0.005
O6 0.006 0.038 0.027 -0.004 0.007 -0.008
C8 0.029 0.031 0.029 -0.002 -0.008 0
O9 0.014 0.036 0.017 0.009 -0.014 0.006
C9 0.043 0.043 0.043 -0.017 0.002 -0.01
C10 0.037 0.039 0.015 0.001 0.005 0.006
C11 0.03 0.018 0.011 0.008 0.002 0
C21 0.108 0.048 0.032 -0.007 0.001 -0.054
O12 0.039 0.03 0.031 0.003 0.01 0.014
N6 0.041 0.046 0.027 0.005 0.008 0.009
C28 0.036 0.016 0.024 0.003 -0.003 -0.01
O13 0.024 0.019 0.028 0.004 -0.003 -0.003
C29 0.024 0.025 0.021 0.001 0 -0.009
C31 0.027 0.027 0.027 -0.01 0.001 -0.006
O14 0.033 0.048 0.025 -0.013 0.005 -0.017
N7 0.095 0.092 0.072 -0.061 0.026 -0.058
O15 0.027 0.02 0.026 -0.004 -0.012 0.006
C33 0.028 0.066 0.041 0.022 0.003 -0.006
C34 0.037 0.028 0.032 0.015 0.006 -0.006
O17 0.032 0.025 0.03 -0.008 0.003 -0.009
C39 0.043 0.077 0.052 -0.021 0.014 -0.035
C40 0.078 0.078 0.078 -0.042 0.005 -0.025
C41 0.08 0.08 0.08 -0.035 0.004 -0.02
Er4 0.0149 0.0187 0.009 -0.00028 -0.00077 -0.00244
O21 0.006 0.038 0.027 -0.004 0.007 -0.008
O1 0.039 0.03 0.031 0.003 0.01 0.014
N1 0.041 0.046 0.027 0.005 0.008 0.009
C1 0.036 0.016 0.024 0.003 -0.003 -0.01
O2 0.024 0.019 0.028 0.004 -0.003 -0.003
C2 0.024 0.025 0.021 0.001 0 -0.009
O3 0.028 0.038 0.009 -0.006 0.004 -0.015
C4 0.027 0.027 0.027 -0.01 0.001 -0.006
O4 0.033 0.048 0.025 -0.013 0.005 -0.017
N3 0.095 0.092 0.072 -0.061 0.026 -0.058
O5 0.027 0.02 0.026 -0.004 -0.012 0.006
C6 0.028 0.066 0.041 0.022 0.003 -0.006
C7 0.037 0.028 0.032 0.015 0.006 -0.006
O8 0.032 0.025 0.03 -0.008 0.003 -0.009
C17 0.03 0.048 0.018 -0.018 0.004 -0.011
C18 0.043 0.077 0.052 -0.021 0.014 -0.035
C19 0.078 0.078 0.078 -0.042 0.005 -0.025
C20 0.08 0.08 0.08 -0.035 0.004 -0.02
C30 0.008 0.028 0.021 -0.004 -0.003 0.005
C35 0.029 0.031 0.029 -0.002 -0.008 0
O18 0.014 0.036 0.017 0.009 -0.014 0.006
C36 0.043 0.043 0.043 -0.017 0.002 -0.01
C37 0.037 0.039 0.015 0.001 0.005 0.006
C38 0.03 0.018 0.011 0.008 0.002 0
C42 0.108 0.048 0.032 -0.007 0.001 -0.054
O23 0.022 0.034 0.016 -0.01 0 -0.01
N5 0.056 0.104 0.032 -0.038 0.015 -0.054
C22 0.021 0.034 0.01 -0.008 -0.003 -0.008
C23 0.008 0.038 0.014 -0.004 0 0
C24 0.05 0.12 0.032 -0.037 0.012 -0.056
C25 0.067 0.142 0.04 -0.055 0.04 -0.079
C26 0.033 0.033 0.033 -0.013 0.001 -0.008
C32 0.047 0.018 0.02 0.006 -0.008 0.006
N8 0.044 0.039 0.028 0.002 0.002 0.006
loop_
_geom_bond_atom_site_label_1
_geom_bond_atom_site_label_2
_geom_bond_site_symmetry_1
_geom_bond_site_symmetry_2
N2 C15 1_555 1_555
O7 C12 1_555 1_555
C13 C12 1_555 1_555
C14 C13 1_555 1_555
H11 C14 1_555 1_555
C15 C14 1_555 1_555
H12 C15 1_555 1_555
C16 N2 1_555 1_555
Er7 O7 1_555 1_555
H23 C27 1_555 1_555
Er7 O10 1_555 1_555
C3 H1 1_555 1_555
O6 C21 1_555 1_555
C8 C3 1_555 1_555
O9 C21 1_555 1_555
H9 C9 1_555 1_555
C10 C9 1_555 1_555
H10 C10 1_555 1_555
C11 C3 1_555 1_555
C21 C11 1_555 1_555
Er7 O9 1_555 1_555
O12 C28 1_555 1_555
C28 O13 1_555 1_555
O13 Er7 1_555 1_555
C29 C28 1_555 1_555
C31 C29 1_555 1_555
H25 C31 1_555 1_555
O14 Er7 1_555 1_555
N7 C39 1_555 1_555
O15 Er7 1_555 1_555
H26 O15 1_555 1_555
C33 N6 1_555 1_555
H28 C33 1_555 1_555
C34 C29 1_555 1_555
H29 C34 1_555 1_555
O17 Er7 1_555 1_555
H30 O17 1_555 1_555
H31 O17 1_555 1_555
C39 O14 1_555 1_555
H34 C39 1_555 1_555
C40 N7 1_555 1_555
H35 C40 1_555 1_555
H36 C40 1_555 1_555
H37 C40 1_555 1_555
C41 N7 1_555 1_555
H38 C41 1_555 1_555
H39 C41 1_555 1_555
H40 C41 1_555 1_555
Er4 O6 1_555 1_555
O21 Er7 1_555 1_555
C10 C11 1_555 1_555
C33 C34 1_555 1_555
Er4 O2 1_555 1_555
O1 C1 1_555 1_555
C1 O2 1_555 1_555
C2 C1 1_555 1_555
O3 Er4 1_555 1_555
C4 C2 1_555 1_555
H2 C4 1_555 1_555
O4 Er4 1_555 1_555
N3 C18 1_555 1_555
O5 Er4 1_555 1_555
H3 O5 1_555 1_555
C6 N1 1_555 1_555
H5 C6 1_555 1_555
C7 C2 1_555 1_555
H6 C7 1_555 1_555
O8 Er4 1_555 1_555
H7 O8 1_555 1_555
H8 O8 1_555 1_555
H13 C17 1_555 1_555
C18 O4 1_555 1_555
H14 C18 1_555 1_555
C19 N3 1_555 1_555
H15 C19 1_555 1_555
H16 C19 1_555 1_555
H17 C19 1_555 1_555
C20 N3 1_555 1_555
H18 C20 1_555 1_555
H19 C20 1_555 1_555
H20 C20 1_555 1_555
C30 H24 1_555 1_555
O21 C42 1_555 1_555
C35 C30 1_555 1_555
O18 Er4 1_555 1_555
H32 C36 1_555 1_555
C37 C36 1_555 1_555
H33 C37 1_555 1_555
C38 C30 1_555 1_555
C42 O18 1_555 1_555
O23 Er4 1_555 1_555
C6 C7 1_555 1_555
C37 C38 1_555 1_555
C38 C42 1_555 1_555
N5 C25 1_555 1_555
C22 C23 1_555 1_555
C23 C24 1_555 1_555
C24 H21 1_555 1_555
C25 C24 1_555 1_555
H22 C25 1_555 1_555
O23 C22 1_555 1_555
N5 C26 1_555 1_555

#END
