
###############################################################################
#
# This file contains modified crystal structure data generated from the
# MOF subset of the Cambridge Structural Database (CSD) v543 
# hosted by the Cambridge Crystallographic Data Centre (CCDC).
#
# This work is licensed under the Creative Commons
# Attribution-NonCommercial-ShareAlike 4.0 International License.
# To view a copy of this license, visit
# http://creativecommons.org/licenses/by-nc-sa/4.0/
# or send a letter to
# Creative Commons, PO Box 1866, Mountain View, CA 94042, USA.
#
# CIF created using the CSD Python API on 29 September 2022
# The structure has been converted into the P1 space group
# The structure has a 3D framework
# The original CSD entry BIWSAE is in the triclinic crystal system
# The framework has been calculated to contain at least 10.0% void space
# The void calculation uses a probe of radius 1.32A, grid spacing 0.4
#
###############################################################################

data_BIWSAE
_chemical_formula_moiety         '(C54 H30 Cu2 I4 N6)n'
_symmetry_cell_setting           triclinic
_symmetry_space_group_name_H-M   'P 1'
_symmetry_Int_Tables_number      1
_space_group_name_Hall           'P 1'
loop_
_symmetry_equiv_pos_site_id
_symmetry_equiv_pos_as_xyz
1 x,y,z
_cell_length_a                   10.0295(11)
_cell_length_b                   10.7980(12)
_cell_length_c                   16.3919(17)
_cell_angle_alpha                98.307(2)
_cell_angle_beta                 98.761(2)
_cell_angle_gamma                116.814(2)
_cell_volume                     1519.43
loop_
_atom_site_label
_atom_site_type_symbol
_atom_site_fract_x
_atom_site_fract_y
_atom_site_fract_z
I4 I 0.05784(3) 0.20880(3) 0.05095(2)
I1 I 0.22817(3) 0.64947(3) 0.09882(2)
N3 N 0.3739(4) 0.0918(4) 0.0689(2)
H8 H 0.9830 0.0455 0.8319
H9 H 0.9780 0.0850 0.6990
H10 H 0.9710 0.1875 0.4502
C21 C 0.8966(5) 0.2217(5) 0.2970(3)
C22 C 0.7781(5) 0.1923(5) 0.2504(3)
C23 C 0.6401(5) 0.1566(4) 0.1896(3)
C24 C 0.6469(5) 0.1827(5) 0.1105(3)
H12 H 0.7405 0.2215 0.0953
C25 C 0.5137(5) 0.1508(5) 0.0543(3)
H13 H 0.5215 0.1720 0.0016
C26 C 0.3683(5) 0.0638(6) 0.1449(3)
H14 H 0.2725 0.0203 0.1573
C27 C 0.4977(5) 0.0960(6) 0.2071(3)
H15 H 0.4880 0.0768 0.2600
Cu6 Cu 0.18620(6) 0.05571(6) 0.98343(3)
Cu3 Cu 0.04970(6) 0.40830(6) 0.97502(3)
Cu1 Cu 0.95030(6) 0.59170(6) 0.02498(3)
Cu2 Cu 0.81380(6) 0.94429(6) 0.01657(3)
N1 N 0.8257(4) 0.5595(4) 0.1156(2)
N2 N 0.2005(4) 0.0959(4) 0.8669(2)
C1 C 0.8804(5) 0.5530(5) 0.1939(3)
H1 H 0.9829 0.5743 0.2094
C2 C 0.7930(5) 0.5164(5) 0.2527(3)
H2 H 0.8368 0.5148 0.3065
C3 C 0.6397(5) 0.4821(5) 0.2305(3)
C4 C 0.5818(5) 0.4897(5) 0.1497(3)
H3 H 0.4794 0.4678 0.1324
C5 C 0.6779(5) 0.5298(5) 0.0956(3)
H4 H 0.6382 0.5367 0.0424
C6 C 0.5387(5) 0.4368(5) 0.2858(3)
C7 C 0.4438(5) 0.3943(5) 0.3256(3)
C8 C 0.3158(5) 0.3375(5) 0.3628(3)
C9 C 0.3285(5) 0.3057(5) 0.4421(3)
H5 H 0.4231 0.3221 0.4731
C10 C 0.1989(5) 0.2492(4) 0.4748(2)
C11 C 0.2067(5) 0.2137(5) 0.5561(3)
C12 C 0.2048(5) 0.1825(5) 0.6229(3)
C13 C 0.2028(5) 0.1500(4) 0.7047(3)
C14 C 0.3344(5) 0.1695(5) 0.7590(3)
H6 H 0.4267 0.2018 0.7424
C15 C 0.3273(5) 0.1404(5) 0.8382(3)
H7 H 0.4165 0.1528 0.8735
C16 C 0.0735(5) 0.0769(5) 0.8136(3)
C17 C 0.0697(5) 0.1012(5) 0.7337(3)
C18 C 0.0570(5) 0.2240(4) 0.4279(3)
C19 C 0.0434(5) 0.2528(4) 0.3482(3)
C20 C 0.1731(5) 0.3091(5) 0.3157(3)
H11 H 0.1643 0.3278 0.2621
N4 N 0.7995(4) 0.9041(4) 0.1331(2)
N1_2 N 0.1743(4) 0.4405(4) 0.8844(2)
C1_2 C 0.1196(5) 0.4470(5) 0.8061(3)
H1_2 H 0.0171 0.4257 0.7906
C2_2 C 0.2070(5) 0.4836(5) 0.7473(3)
H2_2 H 0.1632 0.4852 0.6935
C3_2 C 0.3603(5) 0.5179(5) 0.7695(3)
C4_2 C 0.4182(5) 0.5103(5) 0.8503(3)
H3_2 H 0.5206 0.5322 0.8676
C5_2 C 0.3221(5) 0.4702(5) 0.9044(3)
H4_2 H 0.3618 0.4633 0.9576
C6_2 C 0.4613(5) 0.5632(5) 0.7142(3)
C7_2 C 0.5562(5) 0.6057(5) 0.6744(3)
C8_2 C 0.6842(5) 0.6625(5) 0.6372(3)
C9_2 C 0.6715(5) 0.6943(5) 0.5579(3)
H5_2 H 0.5769 0.6779 0.5269
C10_2 C 0.8011(5) 0.7508(4) 0.5252(2)
C11_2 C 0.7933(5) 0.7863(5) 0.4439(3)
C12_2 C 0.7952(5) 0.8175(5) 0.3771(3)
C13_2 C 0.7972(5) 0.8500(4) 0.2953(3)
C14_2 C 0.6656(5) 0.8305(5) 0.2410(3)
H6_2 H 0.5733 0.7982 0.2576
C15_2 C 0.6727(5) 0.8596(5) 0.1618(3)
H7_2 H 0.5835 0.8472 0.1265
C16_2 C 0.9265(5) 0.9231(5) 0.1864(3)
C17_2 C 0.9303(5) 0.8988(5) 0.2663(3)
C18_2 C 0.9430(5) 0.7760(4) 0.5721(3)
C19_2 C 0.9566(5) 0.7472(4) 0.6518(3)
C20_2 C 0.8269(5) 0.6909(5) 0.6843(3)
H11_2 H 0.8357 0.6722 0.7379
I2 I 0.94216(3) 0.79120(3) 0.94905(2)
I3 I 0.77183(3) 0.35053(3) 0.90118(2)
N5 N 0.6261(4) 0.9082(4) 0.9311(2)
H8_2 H 0.0170 0.9545 0.1681
H9_2 H 0.0220 0.9150 0.3010
H10_2 H 0.0290 0.8125 0.5498
C21_2 C 0.1034(5) 0.7783(5) 0.7030(3)
C22_2 C 0.2219(5) 0.8077(5) 0.7496(3)
C23_2 C 0.3599(5) 0.8434(4) 0.8104(3)
C24_2 C 0.3531(5) 0.8173(5) 0.8895(3)
H12_2 H 0.2595 0.7785 0.9047
C25_2 C 0.4863(5) 0.8492(5) 0.9457(3)
H13_2 H 0.4785 0.8280 0.9984
C26_2 C 0.6317(5) 0.9362(6) 0.8551(3)
H14_2 H 0.7275 0.9797 0.8427
C27_2 C 0.5023(5) 0.9040(6) 0.7929(3)
H15_2 H 0.5120 0.9232 0.7400
loop_
_geom_bond_atom_site_label_1
_geom_bond_atom_site_label_2
_geom_bond_site_symmetry_1
_geom_bond_site_symmetry_2
N3 C25 1_555 1_555
C22 C21 1_555 1_555
C23 C22 1_555 1_555
C24 C23 1_555 1_555
H12 C24 1_555 1_555
C25 C24 1_555 1_555
H13 C25 1_555 1_555
C26 N3 1_555 1_555
H14 C26 1_555 1_555
C27 C23 1_555 1_555
H15 C27 1_555 1_555
C26 C27 1_555 1_555
Cu1 N1 1_555 1_555
N1 C1 1_555 1_555
N2 C15 1_555 1_555
C1 H1 1_555 1_555
C2 C1 1_555 1_555
H2 C2 1_555 1_555
C3 C2 1_555 1_555
C4 C3 1_555 1_555
H3 C4 1_555 1_555
C5 N1 1_555 1_555
H4 C5 1_555 1_555
C6 C3 1_555 1_555
C7 C6 1_555 1_555
C8 C7 1_555 1_555
C9 C8 1_555 1_555
H5 C9 1_555 1_555
C10 C9 1_555 1_555
C11 C10 1_555 1_555
C12 C11 1_555 1_555
C13 C12 1_555 1_555
C14 C13 1_555 1_555
H6 C14 1_555 1_555
C15 C14 1_555 1_555
H7 C15 1_555 1_555
C16 N2 1_555 1_555
C17 C13 1_555 1_555
C18 C10 1_555 1_555
C19 C18 1_555 1_555
C20 C8 1_555 1_555
H11 C20 1_555 1_555
Cu6 N2 1_555 1_555
N4 Cu2 1_555 1_555
C4 C5 1_555 1_555
C16 C17 1_555 1_555
C19 C20 1_555 1_555
Cu3 N1_2 1_555 1_555
N1_2 C1_2 1_555 1_555
N4 C15_2 1_555 1_555
C1_2 H1_2 1_555 1_555
C2_2 C1_2 1_555 1_555
H2_2 C2_2 1_555 1_555
C3_2 C2_2 1_555 1_555
C4_2 C3_2 1_555 1_555
H3_2 C4_2 1_555 1_555
C5_2 N1_2 1_555 1_555
H4_2 C5_2 1_555 1_555
C6_2 C3_2 1_555 1_555
C7_2 C6_2 1_555 1_555
C8_2 C7_2 1_555 1_555
C9_2 C8_2 1_555 1_555
H5_2 C9_2 1_555 1_555
C10_2 C9_2 1_555 1_555
C11_2 C10_2 1_555 1_555
C12_2 C11_2 1_555 1_555
C13_2 C12_2 1_555 1_555
C14_2 C13_2 1_555 1_555
H6_2 C14_2 1_555 1_555
C15_2 C14_2 1_555 1_555
H7_2 C15_2 1_555 1_555
C16_2 N4 1_555 1_555
C17_2 C13_2 1_555 1_555
C18_2 C10_2 1_555 1_555
C19_2 C18_2 1_555 1_555
C20_2 C8_2 1_555 1_555
H11_2 C20_2 1_555 1_555
C4_2 C5_2 1_555 1_555
C16_2 C17_2 1_555 1_555
C19_2 C20_2 1_555 1_555
N5 C25_2 1_555 1_555
C22_2 C21_2 1_555 1_555
C23_2 C22_2 1_555 1_555
C24_2 C23_2 1_555 1_555
H12_2 C24_2 1_555 1_555
C25_2 C24_2 1_555 1_555
H13_2 C25_2 1_555 1_555
C26_2 N5 1_555 1_555
H14_2 C26_2 1_555 1_555
C27_2 C23_2 1_555 1_555
H15_2 C27_2 1_555 1_555
C26_2 C27_2 1_555 1_555

#END
