
###############################################################################
#
# This file contains modified crystal structure data generated from the
# MOF subset of the Cambridge Structural Database (CSD) v543 
# hosted by the Cambridge Crystallographic Data Centre (CCDC).
#
# This work is licensed under the Creative Commons
# Attribution-NonCommercial-ShareAlike 4.0 International License.
# To view a copy of this license, visit
# http://creativecommons.org/licenses/by-nc-sa/4.0/
# or send a letter to
# Creative Commons, PO Box 1866, Mountain View, CA 94042, USA.
#
# CIF created using the CSD Python API on 29 September 2022
# The structure has been converted into the P1 space group
# The structure has a 3D framework
# The original CSD entry BIYVIR is in the monoclinic crystal system
# The framework has been calculated to contain at least 10.0% void space
# The void calculation uses a probe of radius 1.32A, grid spacing 0.4
#
###############################################################################

data_BIYVIR
_chemical_formula_moiety         '(C84 H60 Co4 N8 O18)n'
_symmetry_cell_setting           triclinic
_symmetry_space_group_name_H-M   'P 1'
_symmetry_Int_Tables_number      1
_space_group_name_Hall           'P 1'
loop_
_symmetry_equiv_pos_site_id
_symmetry_equiv_pos_as_xyz
1 x,y,z
_cell_length_a                   10.378(5)
_cell_length_b                   10.123(5)
_cell_length_c                   22.298(5)
_cell_angle_alpha                90
_cell_angle_beta                 93.414(5)
_cell_angle_gamma                90
_cell_volume                     2338.39
loop_
_atom_site_label
_atom_site_type_symbol
_atom_site_fract_x
_atom_site_fract_y
_atom_site_fract_z
O2 O 0.1486(4) 0.2248(5) 0.3489(2)
O5 O 0.0028(4) 0.1521(4) 0.07282(18)
C5 C 0.0934(5) 0.1154(6) 0.1699(3)
C6 C 0.1267(5) 0.1907(7) 0.2883(3)
C7 C 0.0268(5) 0.2219(6) 0.1924(3)
C9 C 0.0437(6) 0.2601(6) 0.2513(3)
C11 C 0.0565(5) 0.4019(6) 0.4026(3)
H5 H 0.1340 0.4479 0.4019
C12 C 0.0702(5) 0.0740(7) 0.1077(3)
C14 C 0.1801(5) 0.0482(7) 0.2098(3)
C17 C 0.0443(6) 0.2803(7) 0.3768(3)
C18 C 0.1970(6) 0.0861(7) 0.2681(3)
H12 H 0.2554 0.0419 0.2942
H14 H 0.0272 0.5497 0.8960
H15 H 0.0683 0.3416 0.9301
O12 O 0.1263(3) 0.1212(4) 0.96236(17)
O3 O 0.1131(3) 0.9638(4) 0.09135(17)
H7 H 0.2266 0.9768 0.1961
Co6 Co 0.06650(7) 0.88414(7) 0.01066(4)
O1 O 0.6263(3) 0.3788(4) 0.46236(17)
O4 O 0.7375(3) 0.5662(4) 0.47826(18)
C3 C 0.7259(5) 0.4489(6) 0.4582(2)
C4 C 0.8395(5) 0.3872(6) 0.4309(2)
H2 H 0.9692 0.2685 0.1668
C8 C 0.9542(5) 0.4558(6) 0.4295(3)
H3 H 0.9617 0.5390 0.4470
H4 H 0.9991 0.3322 0.2656
C13 C 0.8312(6) 0.2644(6) 0.4058(3)
H6 H 0.7550 0.2168 0.4079
C19 C 0.9321(6) 0.2088(7) 0.3775(3)
H13 H 0.9246 0.1260 0.3595
N3 N 0.4383(4) 0.5262(5) 0.0040(2)
C22 C 0.2419(5) 0.5068(6) 0.0469(3)
C23 C 0.2113(5) 0.6360(5) 0.0281(2)
H16 H 0.2726 0.6840 0.0085
N4 N 0.0979(4) 0.6933(5) 0.0372(2)
C24 C 0.3697(6) 0.4532(6) 0.0372(3)
C25 C 0.4084(6) 0.3243(6) 0.0643(3)
H17 H 0.3397 0.2907 0.0869
H18 H 0.4844 0.3358 0.0905
H19 H 0.4262 0.2629 0.0330
C26 C 0.1504(6) 0.4349(7) 0.0752(4)
H20 H 0.1664 0.3485 0.0876
C27 C 0.0357(7) 0.4953(8) 0.0841(5)
C28 C 0.0121(7) 0.6214(7) 0.0642(4)
Co5 Co 0.56650(7) 0.61586(7) 0.51066(4)
Co8 Co 0.43350(7) 0.38414(7) 0.48934(4)
O15 O 0.7625(3) 0.0662(4) 0.02174(18)
Co1 Co 0.93350(7) 0.11586(7) 0.98934(4)
N1 N 0.5617(4) 0.4738(5) 0.9960(2)
C1 C 0.7581(5) 0.4932(6) 0.9531(3)
C2 C 0.7887(5) 0.3640(5) 0.9719(2)
H1 H 0.7274 0.3160 0.9915
N2 N 0.9021(4) 0.3067(5) 0.9628(2)
C10 C 0.6303(6) 0.5468(6) 0.9628(3)
C15 C 0.5916(6) 0.6757(6) 0.9357(3)
H8 H 0.6603 0.7093 0.9131
H9 H 0.5156 0.6642 0.9095
H10 H 0.5738 0.7371 0.9670
C16 C 0.8496(6) 0.5651(7) 0.9248(4)
H11 H 0.8336 0.6515 0.9124
C20 C 0.9643(7) 0.5047(8) 0.9159(5)
C21 C 0.9879(7) 0.3786(7) 0.9358(4)
O6 O 0.3737(3) 0.6212(4) 0.53764(17)
O9 O 0.2625(3) 0.4338(4) 0.52174(18)
C29 C 0.2741(5) 0.5511(6) 0.5418(2)
C30 C 0.1605(5) 0.6128(6) 0.5691(2)
H23 H 0.0308 0.7315 0.8332
C34 C 0.0458(5) 0.5442(6) 0.5705(3)
H24 H 0.0383 0.4610 0.5530
H25 H 0.0009 0.6678 0.7344
C38 C 0.1688(6) 0.7356(6) 0.5942(3)
H27 H 0.2450 0.7832 0.5921
C42 C 0.0679(6) 0.7912(7) 0.6225(3)
H30 H 0.0754 0.8740 0.6405
O14 O 0.8869(3) 0.0362(4) 0.90865(17)
O16 O 0.2375(3) 0.9338(4) 0.97826(18)
H28 H 0.7734 0.0232 0.8039
H21 H 0.9728 0.4503 0.1040
H22 H 0.9317 0.6584 0.0699
O11 O 0.8737(3) 0.8788(4) 0.03764(17)
N3_2 N 0.0617(4) 0.0262(5) 0.4960(2)
C22_2 C 0.2581(5) 0.0068(6) 0.4531(3)
C23_2 C 0.2887(5) 0.1360(5) 0.4719(2)
H16_2 H 0.2274 0.1840 0.4915
N4_2 N 0.4021(4) 0.1933(5) 0.4628(2)
C28_2 C 0.4879(7) 0.1214(7) 0.4358(4)
H22_2 H 0.5683 0.1584 0.4301
O7 O 0.6486(4) 0.2752(5) 0.8489(2)
O8 O 0.6131(3) 0.5362(4) 0.59135(17)
O10 O 0.5028(4) 0.3479(4) 0.57282(18)
C29_2 C 0.2259(5) 0.0511(6) 0.9582(2)
C30_2 C 0.3395(5) 0.1128(6) 0.9309(2)
C31 C 0.5934(5) 0.3846(6) 0.6699(3)
C32 C 0.6267(5) 0.3093(7) 0.7883(3)
C33 C 0.5268(5) 0.2781(6) 0.6924(3)
H23_2 H 0.4692 0.2315 0.6668
C34_2 C 0.4542(5) 0.0442(6) 0.9295(3)
C35 C 0.5437(6) 0.2399(6) 0.7513(3)
H25_2 H 0.4991 0.1678 0.7656
C36 C 0.5565(5) 0.0981(6) 0.9026(3)
H26 H 0.6340 0.0521 0.9019
C37 C 0.5702(5) 0.4260(7) 0.6077(3)
C38_2 C 0.3312(6) 0.2356(6) 0.9058(3)
H27_2 H 0.2550 0.2832 0.9079
C39 C 0.6801(5) 0.4518(7) 0.7098(3)
H28_2 H 0.7266 0.5232 0.6961
C40 C 0.5443(6) 0.2197(7) 0.8768(3)
C41 C 0.6970(6) 0.4139(7) 0.7681(3)
H29 H 0.7554 0.4581 0.7942
C42_2 C 0.4321(6) 0.2912(7) 0.8775(3)
H30_2 H 0.4246 0.3740 0.8595
O13 O 0.3869(3) 0.4638(4) 0.40865(17)
C24_2 C 0.1303(6) 0.9532(6) 0.4628(3)
C25_2 C 0.0916(6) 0.8243(6) 0.4357(3)
H17_2 H 0.1603 0.7907 0.4131
H18_2 H 0.0156 0.8358 0.4095
H19_2 H 0.0738 0.7629 0.4670
C26_2 C 0.3496(6) 0.9349(7) 0.4248(4)
H20_2 H 0.3336 0.8485 0.4124
C27_2 C 0.4643(7) 0.9953(8) 0.4159(5)
H21_2 H 0.5272 0.9503 0.3960
H24_2 H 0.4617 0.9610 0.9470
H3_2 H 0.5383 0.0390 0.0530
C10_2 C 0.8697(6) 0.0468(6) 0.5372(3)
C15_2 C 0.9084(6) 0.1757(6) 0.5643(3)
H8_2 H 0.8397 0.2093 0.5869
H9_2 H 0.9844 0.1642 0.5905
H10_2 H 0.9262 0.2371 0.5330
C16_2 C 0.6504(6) 0.0651(7) 0.5752(4)
H11_2 H 0.6664 0.1515 0.5876
C20_2 C 0.5357(7) 0.0047(8) 0.5841(5)
H14_2 H 0.4728 0.0497 0.6040
O2_2 O 0.3514(4) 0.7248(5) 0.1511(2)
O5_2 O 0.4972(4) 0.6521(4) 0.42718(18)
N1_2 N 0.9383(4) 0.9738(5) 0.5040(2)
C1_2 C 0.7419(5) 0.9932(6) 0.5469(3)
C2_2 C 0.7113(5) 0.8640(5) 0.5281(2)
H1_2 H 0.7726 0.8160 0.5085
N2_2 N 0.5979(4) 0.8067(5) 0.5372(2)
C3_2 C 0.7741(5) 0.9489(6) 0.0418(2)
C4_2 C 0.6605(5) 0.8872(6) 0.0691(2)
C5_2 C 0.4066(5) 0.6154(6) 0.3301(3)
C6_2 C 0.3733(5) 0.6907(7) 0.2117(3)
C7_2 C 0.4732(5) 0.7219(6) 0.3076(3)
H2_2 H 0.5308 0.7685 0.3332
C8_2 C 0.5458(5) 0.9558(6) 0.0705(3)
C9_2 C 0.4563(6) 0.7601(6) 0.2487(3)
H4_2 H 0.5009 0.8322 0.2344
C11_2 C 0.4435(5) 0.9019(6) 0.0974(3)
H5_2 H 0.3660 0.9479 0.0981
C12_2 C 0.4298(5) 0.5740(7) 0.3923(3)
C13_2 C 0.6688(6) 0.7644(6) 0.0942(3)
H6_2 H 0.7450 0.7168 0.0921
C14_2 C 0.3199(5) 0.5482(7) 0.2902(3)
H7_2 H 0.2734 0.4768 0.3039
C17_2 C 0.4557(6) 0.7803(7) 0.1232(3)
C18_2 C 0.3030(6) 0.5861(7) 0.2319(3)
H12_2 H 0.2446 0.5419 0.2058
C19_2 C 0.5679(6) 0.7088(7) 0.1225(3)
H13_2 H 0.5754 0.6260 0.1405
C21_2 C 0.5121(7) 0.8786(7) 0.5642(4)
H15_2 H 0.4317 0.8416 0.5699
O7_2 O 0.8514(4) 0.7752(5) 0.6511(2)
O10_2 O 0.9972(4) 0.8479(4) 0.92718(18)
C31_2 C 0.9066(5) 0.8846(6) 0.8301(3)
C32_2 C 0.8733(5) 0.8093(7) 0.7117(3)
C33_2 C 0.9732(5) 0.7781(6) 0.8076(3)
C35_2 C 0.9563(6) 0.7399(6) 0.7487(3)
C36_2 C 0.9435(5) 0.5981(6) 0.5974(3)
H26_2 H 0.8660 0.5521 0.5981
C37_2 C 0.9298(5) 0.9260(7) 0.8923(3)
C39_2 C 0.8199(5) 0.9518(7) 0.7902(3)
C40_2 C 0.9557(6) 0.7197(7) 0.6232(3)
C41_2 C 0.8030(6) 0.9139(7) 0.7319(3)
H29_2 H 0.7446 0.9581 0.7058
loop_
_geom_bond_atom_site_label_1
_geom_bond_atom_site_label_2
_geom_bond_site_symmetry_1
_geom_bond_site_symmetry_2
O2 C6 1_555 1_555
O5 C12 1_555 1_555
C5 C7 1_555 1_555
C6 C9 1_555 1_555
C9 C7 1_555 1_555
H5 C11 1_555 1_555
C12 C5 1_555 1_555
C14 C5 1_555 1_555
C17 O2 1_555 1_555
C18 C6 1_555 1_555
H12 C18 1_555 1_555
C11 C17 1_555 1_555
C14 C18 1_555 1_555
O3 Co6 1_555 1_555
O1 C3 1_555 1_555
O4 C3 1_555 1_555
C3 C4 1_555 1_555
C4 C8 1_555 1_555
C8 H3 1_555 1_555
C13 C4 1_555 1_555
H6 C13 1_555 1_555
C19 C13 1_555 1_555
H13 C19 1_555 1_555
C22 C23 1_555 1_555
C23 H16 1_555 1_555
N4 C23 1_555 1_555
C24 N3 1_555 1_555
C25 C24 1_555 1_555
H17 C25 1_555 1_555
H18 C25 1_555 1_555
H19 C25 1_555 1_555
C26 C22 1_555 1_555
H20 C26 1_555 1_555
C27 C26 1_555 1_555
C28 N4 1_555 1_555
Co6 N4 1_555 1_555
Co5 O4 1_555 1_555
Co8 O1 1_555 1_555
C22 C24 1_555 1_555
C27 C28 1_555 1_555
Co5 Co8 1_555 1_555
N1 C10 1_555 1_555
C1 C2 1_555 1_555
C2 H1 1_555 1_555
N2 Co1 1_555 1_555
C10 C1 1_555 1_555
C15 C10 1_555 1_555
H8 C15 1_555 1_555
H9 C15 1_555 1_555
H10 C15 1_555 1_555
C16 C1 1_555 1_555
H11 C16 1_555 1_555
C20 C16 1_555 1_555
C21 N2 1_555 1_555
O6 C29 1_555 1_555
O9 C29 1_555 1_555
C29 C30 1_555 1_555
C30 C34 1_555 1_555
C34 H24 1_555 1_555
C38 C30 1_555 1_555
H27 C38 1_555 1_555
C42 C38 1_555 1_555
H30 C42 1_555 1_555
Co5 O6 1_555 1_555
Co8 O9 1_555 1_555
O14 Co1 1_555 1_555
C2 N2 1_555 1_555
C20 C21 1_555 1_555
C22_2 C23_2 1_555 1_555
C23_2 H16_2 1_555 1_555
N4_2 C23_2 1_555 1_555
C28_2 N4_2 1_555 1_555
H22_2 C28_2 1_555 1_555
Co8 N4_2 1_555 1_555
O12 C29_2 1_555 1_555
O7 C32 1_555 1_555
O8 C37 1_555 1_555
O10 Co8 1_555 1_555
C29_2 C30_2 1_555 1_555
C30_2 C34_2 1_555 1_555
C31 C33 1_555 1_555
C32 C35 1_555 1_555
C33 H23_2 1_555 1_555
C35 C33 1_555 1_555
H25_2 C35 1_555 1_555
C36 C34_2 1_555 1_555
H26 C36 1_555 1_555
C37 O10 1_555 1_555
C38_2 C30_2 1_555 1_555
H27_2 C38_2 1_555 1_555
C39 C31 1_555 1_555
H28_2 C39 1_555 1_555
C40 O7 1_555 1_555
C41 C32 1_555 1_555
H29 C41 1_555 1_555
C42_2 C38_2 1_555 1_555
H30_2 C42_2 1_555 1_555
O13 Co8 1_555 1_555
O8 Co5 1_555 1_555
C31 C37 1_555 1_555
C36 C40 1_555 1_555
C39 C41 1_555 1_555
C40 C42_2 1_555 1_555
C25_2 C24_2 1_555 1_555
H17_2 C25_2 1_555 1_555
H18_2 C25_2 1_555 1_555
H19_2 C25_2 1_555 1_555
H20_2 C26_2 1_555 1_555
C27_2 C26_2 1_555 1_555
H21_2 C27_2 1_555 1_555
C15_2 C10_2 1_555 1_555
H8_2 C15_2 1_555 1_555
H9_2 C15_2 1_555 1_555
H10_2 C15_2 1_555 1_555
H11_2 C16_2 1_555 1_555
C20_2 C16_2 1_555 1_555
H14_2 C20_2 1_555 1_555
Co5 O5_2 1_555 1_555
O11 C3_2 1_555 1_555
O2_2 C6_2 1_555 1_555
O13 C12_2 1_555 1_555
O5_2 C12_2 1_555 1_555
C1_2 C2_2 1_555 1_555
C2_2 H1_2 1_555 1_555
N2_2 Co5 1_555 1_555
C3_2 C4_2 1_555 1_555
C4_2 C8_2 1_555 1_555
C5_2 C7_2 1_555 1_555
C6_2 C9_2 1_555 1_555
C7_2 H2_2 1_555 1_555
C9_2 C7_2 1_555 1_555
H4_2 C9_2 1_555 1_555
C11_2 C8_2 1_555 1_555
H5_2 C11_2 1_555 1_555
C12_2 C5_2 1_555 1_555
C13_2 C4_2 1_555 1_555
H6_2 C13_2 1_555 1_555
C14_2 C5_2 1_555 1_555
H7_2 C14_2 1_555 1_555
C17_2 O2_2 1_555 1_555
C18_2 C6_2 1_555 1_555
H12_2 C18_2 1_555 1_555
C19_2 C13_2 1_555 1_555
H13_2 C19_2 1_555 1_555
C21_2 N2_2 1_555 1_555
H15_2 C21_2 1_555 1_555
C2_2 N2_2 1_555 1_555
C11_2 C17_2 1_555 1_555
C14_2 C18_2 1_555 1_555
C17_2 C19_2 1_555 1_555
O7_2 C32_2 1_555 1_555
C31_2 C33_2 1_555 1_555
C32_2 C35_2 1_555 1_555
C35_2 C33_2 1_555 1_555
H26_2 C36_2 1_555 1_555
C37_2 O10_2 1_555 1_555
C39_2 C31_2 1_555 1_555
C40_2 O7_2 1_555 1_555
C41_2 C32_2 1_555 1_555
H29_2 C41_2 1_555 1_555
C31_2 C37_2 1_555 1_555
C36_2 C40_2 1_555 1_555
C39_2 C41_2 1_555 1_555

#END
