
###############################################################################
#
# This file contains modified crystal structure data generated from the
# MOF subset of the Cambridge Structural Database (CSD) v543 
# hosted by the Cambridge Crystallographic Data Centre (CCDC).
#
# This work is licensed under the Creative Commons
# Attribution-NonCommercial-ShareAlike 4.0 International License.
# To view a copy of this license, visit
# http://creativecommons.org/licenses/by-nc-sa/4.0/
# or send a letter to
# Creative Commons, PO Box 1866, Mountain View, CA 94042, USA.
#
# CIF created using the CSD Python API on 29 September 2022
# The structure has been converted into the P1 space group
# The structure has a 3D framework
# The original CSD entry BIZTAI is in the hexagonal crystal system
# The original CSD entry BIZTAI is in a Sohncke space group
# The framework has been calculated to contain at least 10.0% void space
# The void calculation uses a probe of radius 1.32A, grid spacing 0.4
#
###############################################################################

data_BIZTAI
_chemical_formula_moiety         '(C16 In5 O24)n'
_symmetry_cell_setting           triclinic
_symmetry_space_group_name_H-M   'P 1'
_symmetry_Int_Tables_number      1
_space_group_name_Hall           'P 1'
loop_
_symmetry_equiv_pos_site_id
_symmetry_equiv_pos_as_xyz
1 x,y,z
_cell_length_a                   9.037(7)
_cell_length_b                   9.037(7)
_cell_length_c                   11.378(9)
_cell_angle_alpha                90
_cell_angle_beta                 90
_cell_angle_gamma                120
_cell_volume                     804.721
loop_
_atom_site_label
_atom_site_type_symbol
_atom_site_fract_x
_atom_site_fract_y
_atom_site_fract_z
In1 In -0.0000 0.5000 0.1667
C1 C 0.3088(3) 0.6176(6) 0.0000
C2 C 0.2104(4) 0.4208(7) 0.0000
O1 O 0.2410(4) 0.6880(4) 0.0547(2)
O2 O 0.0786(3) 0.3469(3) 0.0617(2)
O9 O 0.2410(4) 0.5530(6) 0.2786(2)
O11 O 0.0786(3) 0.7317(4) 0.2716(2)
C1_2 C 0.3088(3) 0.6176(6) 1.0000
C2_2 C 0.2104(4) 0.4208(7) 1.0000
O3 O 0.4470(6) 0.6880(4) 0.9453(2)
O4 O 0.2683(4) 0.3469(3) 0.9383(2)
In3 In 0.5000 0.5000 0.8334
In1_2 In 1.0000 0.5000 0.1667
C3 C 0.6912(3) 0.3824(6) 0.0000
C4 C 0.7896(4) 0.5792(7) 0.0000
O5 O 0.7590(4) 0.3120(4) 0.0547(2)
O6 O 0.9214(3) 0.6531(3) 0.0617(2)
O10 O 0.7590(4) 0.4470(6) 0.2786(2)
O12 O 0.9214(3) 0.2683(4) 0.2716(2)
C3_2 C 0.6912(3) 0.3824(6) 1.0000
C4_2 C 0.7896(4) 0.5792(7) 1.0000
O7 O 0.5530(6) 0.3120(4) 0.9453(2)
O8 O 0.7317(4) 0.6531(3) 0.9383(2)
In1_3 In 0.5000 -0.0000 0.5000
C1_3 C 0.6912(7) 0.3088(3) 0.3333
C2_3 C 0.7896(8) 0.2104(4) 0.3333
O1_2 O 0.5530(6) 0.2410(4) 0.3880(2)
O2_2 O 0.7317(4) 0.0786(3) 0.3950(2)
O9_2 O 0.6880(7) 0.2410(4) 0.6120(2)
O11_2 O 0.3469(5) 0.0786(3) 0.6050(2)
In1_4 In 0.5000 1.0000 0.5000
C3_3 C 0.3088(7) 0.6912(3) 0.3333
C4_3 C 0.2104(8) 0.7896(4) 0.3333
O5_2 O 0.4470(6) 0.7590(4) 0.3880(2)
O6_2 O 0.2683(4) 0.9214(3) 0.3950(2)
O10_2 O 0.3120(7) 0.7590(4) 0.6120(2)
O12_2 O 0.6531(5) 0.9214(3) 0.6050(2)
C1_4 C 0.3824(6) 0.6912(7) 0.6667
C2_4 C 0.5792(7) 0.7896(8) 0.6667
O1_3 O 0.3120(4) 0.5530(6) 0.7214(2)
O2_3 O 0.6531(3) 0.7317(4) 0.7284(2)
C3_4 C 0.6176(6) 0.3088(7) 0.6667
C4_4 C 0.4208(7) 0.2104(8) 0.6667
O5_3 O 0.6880(4) 0.4470(6) 0.7214(2)
O6_3 O 0.3469(3) 0.2683(4) 0.7284(2)
loop_
_geom_bond_atom_site_label_1
_geom_bond_atom_site_label_2
_geom_bond_site_symmetry_1
_geom_bond_site_symmetry_2
In1 O1 1_555 1_555
C1 C2 1_555 1_555
C2 O2 1_555 1_555
O1 C1 1_555 1_555
O2 In1 1_555 1_555
O9 In1 1_555 1_555
O11 In1 1_555 1_555
C1_2 C2_2 1_555 1_555
O3 C1_2 1_555 1_555
O4 C2_2 1_555 1_555
In3 O3 1_555 1_555
O4 In3 1_555 1_555
C3 C4 1_555 1_555
C4 O6 1_555 1_555
O5 In1_2 1_555 1_555
O6 In1_2 1_555 1_555
O10 In1_2 1_555 1_555
O12 In1_2 1_555 1_555
C3 O5 1_555 1_555
C3_2 C4_2 1_555 1_555
O7 C3_2 1_555 1_555
O8 C4_2 1_555 1_555
In3 O7 1_555 1_555
O8 In3 1_555 1_555
In1_3 O1_2 1_555 1_555
C1_3 C2_3 1_555 1_555
C2_3 O2_2 1_555 1_555
O1_2 C1_3 1_555 1_555
O2_2 In1_3 1_555 1_555
O10 C1_3 1_555 1_555
O12 C2_3 1_555 1_555
O9_2 In1_3 1_555 1_555
O11_2 In1_3 1_555 1_555
C3_3 C4_3 1_555 1_555
C4_3 O6_2 1_555 1_555
O5_2 In1_4 1_555 1_555
O6_2 In1_4 1_555 1_555
O9 C3_3 1_555 1_555
O11 C4_3 1_555 1_555
O10_2 In1_4 1_555 1_555
O12_2 In1_4 1_555 1_555
C3_3 O5_2 1_555 1_555
In3 O1_3 1_555 1_555
C1_4 C2_4 1_555 1_555
C2_4 O2_3 1_555 1_555
O1_3 C1_4 1_555 1_555
O2_3 In3 1_555 1_555
O10_2 C1_4 1_555 1_555
O12_2 C2_4 1_555 1_555
C3_4 C4_4 1_555 1_555
C4_4 O6_3 1_555 1_555
O5_3 In3 1_555 1_555
O6_3 In3 1_555 1_555
O9_2 C3_4 1_555 1_555
O11_2 C4_4 1_555 1_555
C3_4 O5_3 1_555 1_555

#END
