
###############################################################################
#
# This file contains modified crystal structure data generated from the
# MOF subset of the Cambridge Structural Database (CSD) v543 
# hosted by the Cambridge Crystallographic Data Centre (CCDC).
#
# This work is licensed under the Creative Commons
# Attribution-NonCommercial-ShareAlike 4.0 International License.
# To view a copy of this license, visit
# http://creativecommons.org/licenses/by-nc-sa/4.0/
# or send a letter to
# Creative Commons, PO Box 1866, Mountain View, CA 94042, USA.
#
# CIF created using the CSD Python API on 29 September 2022
# The structure has been converted into the P1 space group
# The structure has a 3D framework
# The original CSD entry BOFTIC is in the monoclinic crystal system
# The framework has been calculated to contain at least 10.0% void space
# The void calculation uses a probe of radius 1.32A, grid spacing 0.4
#
###############################################################################

data_BOFTIC
_chemical_formula_moiety         '(C136 H108 Mn8 N12 O38)n'
_symmetry_cell_setting           triclinic
_symmetry_space_group_name_H-M   'P 1'
_symmetry_Int_Tables_number      1
_space_group_name_Hall           'P 1'
loop_
_symmetry_equiv_pos_site_id
_symmetry_equiv_pos_as_xyz
1 x,y,z
_cell_length_a                   17.8654(18)
_cell_length_b                   19.815(2)
_cell_length_c                   10.5471(11)
_cell_angle_alpha                90
_cell_angle_beta                 101.684(2)
_cell_angle_gamma                90
_cell_volume                     3656.34
loop_
_atom_site_label
_atom_site_type_symbol
_atom_site_fract_x
_atom_site_fract_y
_atom_site_fract_z
Mn2 Mn 0.54244(3) 0.55327(3) 0.34131(6)
O1 O 0.05241(13) 0.59071(12) 0.3924(2)
O2 O 0.12780(14) 0.50781(12) 0.4894(3)
O3 O 0.5057(2) 0.89619(17) 0.6605(3)
O4 O 0.57422(17) 0.92970(16) 0.5175(3)
O7 O 0.45629(13) 0.59639(12) 0.4292(3)
O8 O 0.63438(15) 0.51101(14) 0.2419(3)
H1 H 0.6166 0.4917 0.1676
H2 H 0.6596 0.5372 0.2083
O9 O 0.4608(2) 0.4735(2) 0.2659(5)
H3 H 0.4766 0.4524 0.2058
H4 H 0.4189 0.4917 0.2278
O10 O 0.40029(16) 0.51099(15) 0.5109(4)
N1 N 0.23371(15) 0.73656(14) 0.1944(3)
C1 C 0.1163(2) 0.56305(17) 0.4286(3)
C2 C 0.18645(18) 0.59601(16) 0.3958(3)
C3 C 0.17799(18) 0.65107(16) 0.3137(3)
H5 H 0.1294 0.6682 0.2817
C4 C 0.24135(18) 0.68152(15) 0.2777(3)
C5 C 0.2999(2) 0.76230(18) 0.1493(3)
H6 H 0.2825 0.7919 0.0760
H7 H 0.3266 0.7247 0.1195
C6 C 0.3552(2) 0.80046(17) 0.2508(3)
C7 C 0.3327(2) 0.83164(19) 0.3535(4)
H8 H 0.2814 0.8312 0.3587
C8 C 0.3853(2) 0.8637(2) 0.4494(4)
H9 H 0.3689 0.8836 0.5189
C9 C 0.4614(2) 0.86646(19) 0.4428(4)
C10 C 0.5182(2) 0.9000(2) 0.5491(5)
C11 C 0.4836(2) 0.8373(2) 0.3378(4)
H10 H 0.5344 0.8402 0.3299
C12 C 0.4321(2) 0.8041(2) 0.2446(4)
H11 H 0.4489 0.7837 0.1761
C13 C 0.1596(2) 0.75673(16) 0.1241(3)
H12 H 0.1635 0.8021 0.0916
H13 H 0.1250 0.7584 0.1840
C14 C 0.12444(19) 0.71159(16) 0.0108(3)
H17 H 0.2010 0.6360 0.0408
C21 C 0.31325(19) 0.65342(16) 0.3274(3)
H18 H 0.3565 0.6724 0.3055
C22 C 0.32103(19) 0.59768(17) 0.4091(3)
C23 C 0.3989(2) 0.56652(19) 0.4540(4)
C24 C 0.25812(19) 0.56944(16) 0.4450(4)
H19 H 0.2637 0.5330 0.5016
Mn5 Mn 0.05403(3) 0.44536(2) 0.56841(5)
Mn6 Mn 0.45756(3) 0.44673(3) 0.65869(6)
Mn8 Mn 0.54244(3) 0.94673(3) 0.84131(6)
O12 O 0.5057(2) 0.60381(17) 0.1605(3)
O15 O 0.59971(16) 0.48901(15) 0.4891(4)
N4 N 0.61902(17) 0.63681(15) 0.4441(3)
O5 O 0.04416(16) 0.52969(14) 0.6846(3)
C15 C 0.0581(2) 0.73233(18) 0.9281(3)
H14 H 0.0361 0.7734 0.9429
C16 C 0.0241(2) 0.69317(18) 0.8240(4)
C17 C 0.0553(2) 0.63129(17) 0.8018(3)
C18 C 0.0204(2) 0.5893(2) 0.6876(4)
C19 C 0.1215(2) 0.61130(18) 0.8836(3)
H16 H 0.1436 0.5703 0.8690
C20 C 0.1561(2) 0.65068(17) 0.9870(3)
Mn1 Mn 0.94597(3) 0.55464(2) 0.43159(5)
N2 N 0.85915(16) 0.62204(14) 0.3234(3)
C25 C 0.7972(2) 0.60306(19) 0.2390(4)
H20 H 0.7872 0.5571 0.2280
C26 C 0.7470(2) 0.64778(19) 0.1670(4)
H21 H 0.7041 0.6317 0.1098
C27 C 0.7597(2) 0.71616(18) 0.1790(4)
C28 C 0.8219(2) 0.7360(2) 0.2716(4)
H22 H 0.8319 0.7817 0.2868
C29 C 0.8689(2) 0.68857(19) 0.3412(4)
H23 H 0.9097 0.7034 0.4043
C30 C 0.7105(2) 0.76659(19) 0.0983(4)
C31 C 0.7403(2) 0.8265(2) 0.0641(4)
H24 H 0.7920 0.8360 0.0919
C34 C 0.6338(2) 0.7567(2) 0.0545(5)
H27 H 0.6104 0.7176 0.0759
O11 O 0.87220(14) 0.49219(12) 0.5106(3)
O13 O 0.95584(16) 0.47031(14) 0.3154(3)
O14 O 0.96992(16) 0.61576(15) 0.6008(3)
N3 N 0.61902(17) 0.86319(15) 0.9441(3)
H15 H 0.9800 0.7083 0.7686
C32 C 0.6930(2) 0.8726(2) 0.9884(4)
H25 H 0.7146 0.9127 0.9672
C33 C 0.5911(2) 0.8058(2) 0.9776(5)
H26 H 0.5392 0.7976 0.9478
Mn3 Mn 0.05403(3) 0.05464(2) 0.06841(5)
O6 O 0.03008(16) 0.11576(15) 0.8992(3)
N2_2 N 0.14085(16) 0.12204(14) 0.1766(3)
N3_2 N 0.38098(17) 0.36319(15) 0.5559(3)
H15_2 H 0.0200 0.2083 0.7314
C25_2 C 0.2028(2) 0.10306(19) 0.2610(4)
H20_2 H 0.2128 0.0571 0.2720
C26_2 C 0.2530(2) 0.14778(19) 0.3330(4)
H21_2 H 0.2959 0.1317 0.3902
C27_2 C 0.2403(2) 0.21616(18) 0.3210(4)
C28_2 C 0.1781(2) 0.2360(2) 0.2284(4)
H22_2 H 0.1681 0.2817 0.2132
C29_2 C 0.1311(2) 0.18857(19) 0.1588(4)
H23_2 H 0.0903 0.2034 0.0957
C30_2 C 0.2895(2) 0.26659(19) 0.4017(4)
C31_2 C 0.2597(2) 0.3265(2) 0.4359(4)
H24_2 H 0.2080 0.3360 0.4081
C32_2 C 0.3070(2) 0.3726(2) 0.5116(4)
H25_2 H 0.2854 0.4127 0.5328
C33_2 C 0.4089(2) 0.3058(2) 0.5224(5)
H26_2 H 0.4608 0.2976 0.5522
C34_2 C 0.3662(2) 0.2567(2) 0.4455(5)
H27_2 H 0.3896 0.2176 0.4241
O13_2 O 0.04416(16) 0.97031(14) 0.1846(3)
O11_2 O 0.12780(14) 0.99219(12) 0.9894(3)
Mn2_2 Mn 0.45756(3) 0.05327(3) 0.15869(6)
O1_2 O 0.94759(13) 0.09071(12) 0.1076(2)
O2_2 O 0.87220(14) 0.00781(12) 0.0106(3)
O5_2 O 0.95584(16) 0.02969(14) 0.8154(3)
O7_2 O 0.54371(13) 0.09639(12) 0.0708(3)
O8_2 O 0.36562(15) 0.01101(14) 0.2581(3)
H2_2 H 0.3404 0.0372 0.2917
N1_2 N 0.76629(15) 0.23656(14) 0.3056(3)
C1_2 C 0.8837(2) 0.06305(17) 0.0714(3)
C2_2 C 0.81355(18) 0.09601(16) 0.1042(3)
C3_2 C 0.82201(18) 0.15107(16) 0.1863(3)
H5_2 H 0.8706 0.1682 0.2183
C4_2 C 0.75865(18) 0.18152(15) 0.2223(3)
C5_2 C 0.7001(2) 0.26230(18) 0.3507(3)
H6_2 H 0.7175 0.2919 0.4240
H7_2 H 0.6734 0.2247 0.3805
C6_2 C 0.6448(2) 0.30046(17) 0.2492(3)
C7_2 C 0.6673(2) 0.33164(19) 0.1465(4)
H8_2 H 0.7186 0.3312 0.1413
C8_2 C 0.6147(2) 0.3637(2) 0.0506(4)
C9_2 C 0.5386(2) 0.36646(19) 0.0572(4)
C11_2 C 0.5164(2) 0.3373(2) 0.1622(4)
H10_2 H 0.4656 0.3402 0.1701
C12_2 C 0.5679(2) 0.3041(2) 0.2554(4)
H11_2 H 0.5511 0.2837 0.3239
C13_2 C 0.8404(2) 0.25673(16) 0.3759(3)
H12_2 H 0.8365 0.3021 0.4084
H13_2 H 0.8750 0.2584 0.3160
C14_2 C 0.87556(19) 0.21159(16) 0.4892(3)
C15_2 C 0.9419(2) 0.23233(18) 0.5719(3)
H14_2 H 0.9639 0.2734 0.5571
C16_2 C 0.9759(2) 0.19317(18) 0.6760(4)
C17_2 C 0.9447(2) 0.13129(17) 0.6982(3)
C18_2 C 0.9796(2) 0.0893(2) 0.8124(4)
C19_2 C 0.8785(2) 0.11130(18) 0.6164(3)
H16_2 H 0.8564 0.0703 0.6310
C20_2 C 0.8439(2) 0.15068(17) 0.5130(3)
H17_2 H 0.7990 0.1360 0.4592
C21_2 C 0.68675(19) 0.15342(16) 0.1726(3)
H18_2 H 0.6435 0.1724 0.1945
C22_2 C 0.67897(19) 0.09768(17) 0.0909(3)
C23_2 C 0.6011(2) 0.06652(19) 0.0460(4)
C24_2 C 0.74188(19) 0.06944(16) 0.0550(4)
O12_2 O 0.4943(2) 0.10381(17) 0.3395(3)
N4_2 N 0.38098(17) 0.13681(15) 0.0559(3)
O3_2 O 0.4943(2) 0.39619(17) 0.8395(3)
O4_2 O 0.42578(17) 0.42970(16) 0.9825(3)
O10_2 O 0.59971(16) 0.01099(15) 0.9891(4)
H9_2 H 0.6311 0.3836 0.9811
C10_2 C 0.4818(2) 0.4000(2) 0.9509(5)
H19_2 H 0.7363 0.0330 0.9984
H1_2 H 0.3834 0.9917 0.3324
O9_2 O 0.5392(2) 0.9735(2) 0.2341(5)
H3_2 H 0.5234 0.9524 0.2942
H4_2 H 0.5811 0.9917 0.2722
Mn4 Mn 0.94597(3) 0.94536(2) 0.93159(5)
O15_2 O 0.40029(16) 0.98901(15) 0.0109(4)
O6_2 O 0.03008(16) 0.38424(15) 0.3992(3)
H15_3 H 0.0200 0.2917 0.2314
C32_3 C 0.3070(2) 0.1274(2) 0.0116(4)
H25_3 H 0.2854 0.0873 0.0328
C33_3 C 0.4089(2) 0.1942(2) 0.0224(5)
H26_3 H 0.4608 0.2024 0.0522
N2_3 N 0.14085(16) 0.37796(14) 0.6766(3)
C25_3 C 0.2028(2) 0.39694(19) 0.7610(4)
H20_3 H 0.2128 0.4429 0.7720
C26_3 C 0.2530(2) 0.35222(19) 0.8330(4)
H21_3 H 0.2959 0.3683 0.8902
C27_3 C 0.2403(2) 0.28384(18) 0.8210(4)
C28_3 C 0.1781(2) 0.2640(2) 0.7284(4)
H22_3 H 0.1681 0.2183 0.7132
C29_3 C 0.1311(2) 0.31143(19) 0.6588(4)
H23_3 H 0.0903 0.2966 0.5957
C30_3 C 0.2895(2) 0.23341(19) 0.9017(4)
C31_3 C 0.2597(2) 0.1735(2) 0.9359(4)
H24_3 H 0.2080 0.1640 0.9081
C34_3 C 0.3662(2) 0.2433(2) 0.9455(5)
H27_3 H 0.3896 0.2824 0.9241
C15_3 C 0.9419(2) 0.26767(18) 0.0719(3)
H14_3 H 0.9639 0.2266 0.0571
C16_3 C 0.9759(2) 0.30683(18) 0.1760(4)
C17_3 C 0.9447(2) 0.36871(17) 0.1982(3)
C18_3 C 0.9796(2) 0.4107(2) 0.3124(4)
C19_3 C 0.8785(2) 0.38870(18) 0.1164(3)
H16_3 H 0.8564 0.4297 0.1310
C20_3 C 0.8439(2) 0.34932(17) 0.0130(3)
O1_3 O 0.94759(13) 0.40929(12) 0.6076(2)
O4_3 O 0.42578(17) 0.07030(16) 0.4825(3)
O7_3 O 0.54371(13) 0.40361(12) 0.5708(3)
O8_3 O 0.36562(15) 0.48899(14) 0.7581(3)
H1_3 H 0.3834 0.5083 0.8324
H2_3 H 0.3404 0.4628 0.7917
O9_3 O 0.5392(2) 0.5265(2) 0.7341(5)
H3_3 H 0.5234 0.5476 0.7942
H4_3 H 0.5811 0.5083 0.7722
N1_3 N 0.76629(15) 0.26344(14) 0.8056(3)
C1_3 C 0.8837(2) 0.43695(17) 0.5714(3)
C2_3 C 0.81355(18) 0.40399(16) 0.6042(3)
C3_3 C 0.82201(18) 0.34893(16) 0.6863(3)
H5_3 H 0.8706 0.3318 0.7183
C4_3 C 0.75865(18) 0.31848(15) 0.7223(3)
C5_3 C 0.7001(2) 0.23770(18) 0.8507(3)
H6_3 H 0.7175 0.2081 0.9240
H7_3 H 0.6734 0.2753 0.8805
C6_3 C 0.6448(2) 0.19954(17) 0.7492(3)
C7_3 C 0.6673(2) 0.16836(19) 0.6465(4)
H8_3 H 0.7186 0.1688 0.6413
C8_3 C 0.6147(2) 0.1363(2) 0.5506(4)
H9_3 H 0.6311 0.1164 0.4811
C9_3 C 0.5386(2) 0.13354(19) 0.5572(4)
C10_3 C 0.4818(2) 0.1000(2) 0.4509(5)
C11_3 C 0.5164(2) 0.1627(2) 0.6622(4)
H10_3 H 0.4656 0.1598 0.6701
C12_3 C 0.5679(2) 0.1959(2) 0.7554(4)
H11_3 H 0.5511 0.2163 0.8239
C13_3 C 0.8404(2) 0.24327(16) 0.8759(3)
H12_3 H 0.8365 0.1979 0.9084
H13_3 H 0.8750 0.2416 0.8160
C14_3 C 0.87556(19) 0.28841(16) 0.9892(3)
H17_3 H 0.7990 0.3640 0.9592
C21_3 C 0.68675(19) 0.34658(16) 0.6726(3)
H18_3 H 0.6435 0.3276 0.6945
C22_3 C 0.67897(19) 0.40232(17) 0.5909(3)
C23_3 C 0.6011(2) 0.43348(19) 0.5460(4)
C24_3 C 0.74188(19) 0.43056(16) 0.5550(4)
H19_3 H 0.7363 0.4670 0.4984
H1_4 H 0.6166 0.0083 0.6676
O9_4 O 0.4608(2) 0.0265(2) 0.7659(5)
H3_4 H 0.4766 0.0476 0.7058
H4_4 H 0.4189 0.0083 0.7278
O4_4 O 0.57422(17) 0.57030(16) 0.0175(3)
H9_4 H 0.3689 0.6164 0.0189
C10_4 C 0.5182(2) 0.6000(2) 0.0491(5)
H19_4 H 0.2637 0.9670 0.0016
O1_4 O 0.05241(13) 0.90929(12) 0.8924(2)
O7_4 O 0.45629(13) 0.90361(12) 0.9292(3)
O8_4 O 0.63438(15) 0.98899(14) 0.7419(3)
H2_4 H 0.6596 0.9628 0.7083
N1_4 N 0.23371(15) 0.76344(14) 0.6944(3)
C1_4 C 0.1163(2) 0.93695(17) 0.9286(3)
C2_4 C 0.18645(18) 0.90399(16) 0.8958(3)
C3_4 C 0.17799(18) 0.84893(16) 0.8137(3)
H5_4 H 0.1294 0.8318 0.7817
C4_4 C 0.24135(18) 0.81848(15) 0.7777(3)
C5_4 C 0.2999(2) 0.73770(18) 0.6493(3)
H6_4 H 0.2825 0.7081 0.5760
H7_4 H 0.3266 0.7753 0.6195
C6_4 C 0.3552(2) 0.69954(17) 0.7508(3)
C7_4 C 0.3327(2) 0.66836(19) 0.8535(4)
H8_4 H 0.2814 0.6688 0.8587
C8_4 C 0.3853(2) 0.6363(2) 0.9494(4)
C9_4 C 0.4614(2) 0.63354(19) 0.9428(4)
C11_4 C 0.4836(2) 0.6627(2) 0.8378(4)
H10_4 H 0.5344 0.6598 0.8299
C12_4 C 0.4321(2) 0.6959(2) 0.7446(4)
H11_4 H 0.4489 0.7163 0.6761
C13_4 C 0.1596(2) 0.74327(16) 0.6241(3)
H12_4 H 0.1635 0.6979 0.5916
H13_4 H 0.1250 0.7416 0.6840
C14_4 C 0.12444(19) 0.78841(16) 0.5108(3)
C15_4 C 0.0581(2) 0.76767(18) 0.4281(3)
H14_4 H 0.0361 0.7266 0.4429
C16_4 C 0.0241(2) 0.80683(18) 0.3240(4)
C17_4 C 0.0553(2) 0.86871(17) 0.3018(3)
C18_4 C 0.0204(2) 0.9107(2) 0.1876(4)
C19_4 C 0.1215(2) 0.88870(18) 0.3836(3)
H16_4 H 0.1436 0.9297 0.3690
C20_4 C 0.1561(2) 0.84932(17) 0.4870(3)
H17_4 H 0.2010 0.8640 0.5408
C21_4 C 0.31325(19) 0.84658(16) 0.8274(3)
H18_4 H 0.3565 0.8276 0.8055
C22_4 C 0.32103(19) 0.90232(17) 0.9091(3)
C23_4 C 0.3989(2) 0.93348(19) 0.9540(4)
C24_4 C 0.25812(19) 0.93056(16) 0.9450(4)
O14_2 O 0.96992(16) 0.88424(15) 0.1008(3)
N2_4 N 0.85915(16) 0.87796(14) 0.8234(3)
H15_4 H 0.9800 0.7917 0.2686
C25_4 C 0.7972(2) 0.89694(19) 0.7390(4)
H20_4 H 0.7872 0.9429 0.7280
C26_4 C 0.7470(2) 0.85222(19) 0.6670(4)
H21_4 H 0.7041 0.8683 0.6098
C27_4 C 0.7597(2) 0.78384(18) 0.6790(4)
C28_4 C 0.8219(2) 0.7640(2) 0.7716(4)
H22_4 H 0.8319 0.7183 0.7868
C29_4 C 0.8689(2) 0.81143(19) 0.8412(4)
H23_4 H 0.9097 0.7966 0.9043
C30_4 C 0.7105(2) 0.73341(19) 0.5983(4)
C31_4 C 0.7403(2) 0.6735(2) 0.5641(4)
H24_4 H 0.7920 0.6640 0.5919
C32_4 C 0.6930(2) 0.6274(2) 0.4884(4)
H25_4 H 0.7146 0.5873 0.4672
C33_4 C 0.5911(2) 0.6942(2) 0.4776(5)
H26_4 H 0.5392 0.7024 0.4478
C34_4 C 0.6338(2) 0.7433(2) 0.5545(5)
H27_4 H 0.6104 0.7824 0.5759
loop_
_geom_bond_atom_site_label_1
_geom_bond_atom_site_label_2
_geom_bond_site_symmetry_1
_geom_bond_site_symmetry_2
Mn2 O7 1_555 1_555
O1 C1 1_555 1_555
O2 C1 1_555 1_555
O3 C10 1_555 1_555
O4 C10 1_555 1_555
O7 C23 1_555 1_555
O8 Mn2 1_555 1_555
H1 O8 1_555 1_555
H2 O8 1_555 1_555
O9 Mn2 1_555 1_555
H3 O9 1_555 1_555
H4 O9 1_555 1_555
O10 C23 1_555 1_555
N1 C4 1_555 1_555
C1 C2 1_555 1_555
C2 C3 1_555 1_555
C3 H5 1_555 1_555
C4 C3 1_555 1_555
C5 N1 1_555 1_555
H6 C5 1_555 1_555
H7 C5 1_555 1_555
C6 C5 1_555 1_555
C7 C6 1_555 1_555
H8 C7 1_555 1_555
C8 C7 1_555 1_555
H9 C8 1_555 1_555
C9 C8 1_555 1_555
C10 C9 1_555 1_555
C11 C9 1_555 1_555
H10 C11 1_555 1_555
C12 C6 1_555 1_555
H11 C12 1_555 1_555
C13 N1 1_555 1_555
H12 C13 1_555 1_555
H13 C13 1_555 1_555
C14 C13 1_555 1_555
C21 C4 1_555 1_555
H18 C21 1_555 1_555
C22 C21 1_555 1_555
C23 C22 1_555 1_555
C24 C2 1_555 1_555
H19 C24 1_555 1_555
Mn5 O2 1_555 1_555
Mn6 O10 1_555 1_555
Mn8 O3 1_555 1_555
O12 Mn2 1_555 1_555
O15 Mn2 1_555 1_555
N4 Mn2 1_555 1_555
C11 C12 1_555 1_555
C22 C24 1_555 1_555
O5 C18 1_555 1_555
H14 C15 1_555 1_555
C16 C15 1_555 1_555
C17 C16 1_555 1_555
C18 C17 1_555 1_555
C19 C17 1_555 1_555
H16 C19 1_555 1_555
Mn5 O5 1_555 1_555
C19 C20 1_555 1_555
N2 Mn1 1_555 1_555
C25 N2 1_555 1_555
H20 C25 1_555 1_555
C26 C25 1_555 1_555
H21 C26 1_555 1_555
C27 C26 1_555 1_555
C28 C27 1_555 1_555
H22 C28 1_555 1_555
C29 N2 1_555 1_555
H23 C29 1_555 1_555
C30 C27 1_555 1_555
C31 C30 1_555 1_555
H24 C31 1_555 1_555
C34 C30 1_555 1_555
H27 C34 1_555 1_555
O11 Mn1 1_555 1_555
O13 Mn1 1_555 1_555
O14 Mn1 1_555 1_555
C28 C29 1_555 1_555
N3 C32 1_555 1_555
H25 C32 1_555 1_555
C33 N3 1_555 1_555
H26 C33 1_555 1_555
Mn8 N3 1_555 1_555
N2_2 Mn3 1_555 1_555
N3_2 C32_2 1_555 1_555
C25_2 N2_2 1_555 1_555
H20_2 C25_2 1_555 1_555
C26_2 C25_2 1_555 1_555
H21_2 C26_2 1_555 1_555
C27_2 C26_2 1_555 1_555
C28_2 C27_2 1_555 1_555
H22_2 C28_2 1_555 1_555
C29_2 N2_2 1_555 1_555
H23_2 C29_2 1_555 1_555
C30_2 C27_2 1_555 1_555
C31_2 C30_2 1_555 1_555
H24_2 C31_2 1_555 1_555
C32_2 C31_2 1_555 1_555
H25_2 C32_2 1_555 1_555
C33_2 N3_2 1_555 1_555
H26_2 C33_2 1_555 1_555
C34_2 C30_2 1_555 1_555
H27_2 C34_2 1_555 1_555
Mn6 N3_2 1_555 1_555
C28_2 C29_2 1_555 1_555
C33_2 C34_2 1_555 1_555
Mn2_2 O7_2 1_555 1_555
O1_2 C1_2 1_555 1_555
O2_2 C1_2 1_555 1_555
O5_2 C18_2 1_555 1_555
O7_2 C23_2 1_555 1_555
O8_2 Mn2_2 1_555 1_555
H2_2 O8_2 1_555 1_555
N1_2 C4_2 1_555 1_555
C1_2 C2_2 1_555 1_555
C2_2 C3_2 1_555 1_555
C3_2 H5_2 1_555 1_555
C4_2 C3_2 1_555 1_555
C5_2 N1_2 1_555 1_555
H6_2 C5_2 1_555 1_555
H7_2 C5_2 1_555 1_555
C6_2 C5_2 1_555 1_555
C7_2 C6_2 1_555 1_555
H8_2 C7_2 1_555 1_555
C8_2 C7_2 1_555 1_555
C9_2 C8_2 1_555 1_555
C11_2 C9_2 1_555 1_555
H10_2 C11_2 1_555 1_555
C12_2 C6_2 1_555 1_555
H11_2 C12_2 1_555 1_555
C13_2 N1_2 1_555 1_555
H12_2 C13_2 1_555 1_555
H13_2 C13_2 1_555 1_555
C14_2 C13_2 1_555 1_555
C15_2 C14_2 1_555 1_555
H14_2 C15_2 1_555 1_555
C16_2 C15_2 1_555 1_555
C17_2 C16_2 1_555 1_555
C18_2 C17_2 1_555 1_555
C19_2 C17_2 1_555 1_555
H16_2 C19_2 1_555 1_555
C20_2 C14_2 1_555 1_555
H17_2 C20_2 1_555 1_555
C21_2 C4_2 1_555 1_555
H18_2 C21_2 1_555 1_555
C22_2 C21_2 1_555 1_555
C23_2 C22_2 1_555 1_555
C24_2 C2_2 1_555 1_555
O12_2 Mn2_2 1_555 1_555
N4_2 Mn2_2 1_555 1_555
C11_2 C12_2 1_555 1_555
C19_2 C20_2 1_555 1_555
C22_2 C24_2 1_555 1_555
O3_2 C10_2 1_555 1_555
O4_2 C10_2 1_555 1_555
Mn6 O3_2 1_555 1_555
H3_2 O9_2 1_555 1_555
H4_2 O9_2 1_555 1_555
N4_2 C32_3 1_555 1_555
H25_3 C32_3 1_555 1_555
C33_3 N4_2 1_555 1_555
H26_3 C33_3 1_555 1_555
Mn5 O6_2 1_555 1_555
N2_3 Mn5 1_555 1_555
C25_3 N2_3 1_555 1_555
H20_3 C25_3 1_555 1_555
C26_3 C25_3 1_555 1_555
H21_3 C26_3 1_555 1_555
C27_3 C26_3 1_555 1_555
C28_3 C27_3 1_555 1_555
H22_3 C28_3 1_555 1_555
C29_3 N2_3 1_555 1_555
H23_3 C29_3 1_555 1_555
C30_3 C27_3 1_555 1_555
C31_3 C30_3 1_555 1_555
H24_3 C31_3 1_555 1_555
C34_3 C30_3 1_555 1_555
H27_3 C34_3 1_555 1_555
C28_3 C29_3 1_555 1_555
O13 C18_3 1_555 1_555
H14_3 C15_3 1_555 1_555
C16_3 C15_3 1_555 1_555
C17_3 C16_3 1_555 1_555
C18_3 C17_3 1_555 1_555
C19_3 C17_3 1_555 1_555
H16_3 C19_3 1_555 1_555
C19_3 C20_3 1_555 1_555
Mn6 O7_3 1_555 1_555
O1_3 C1_3 1_555 1_555
O11 C1_3 1_555 1_555
O12_2 C10_3 1_555 1_555
O4_3 C10_3 1_555 1_555
O7_3 C23_3 1_555 1_555
O8_3 Mn6 1_555 1_555
H1_3 O8_3 1_555 1_555
H2_3 O8_3 1_555 1_555
O9_3 Mn6 1_555 1_555
H3_3 O9_3 1_555 1_555
H4_3 O9_3 1_555 1_555
O15 C23_3 1_555 1_555
N1_3 C4_3 1_555 1_555
C1_3 C2_3 1_555 1_555
C2_3 C3_3 1_555 1_555
C3_3 H5_3 1_555 1_555
C4_3 C3_3 1_555 1_555
C5_3 N1_3 1_555 1_555
H6_3 C5_3 1_555 1_555
H7_3 C5_3 1_555 1_555
C6_3 C5_3 1_555 1_555
C7_3 C6_3 1_555 1_555
H8_3 C7_3 1_555 1_555
C8_3 C7_3 1_555 1_555
H9_3 C8_3 1_555 1_555
C9_3 C8_3 1_555 1_555
C10_3 C9_3 1_555 1_555
C11_3 C9_3 1_555 1_555
H10_3 C11_3 1_555 1_555
C12_3 C6_3 1_555 1_555
H11_3 C12_3 1_555 1_555
C13_3 N1_3 1_555 1_555
H12_3 C13_3 1_555 1_555
H13_3 C13_3 1_555 1_555
C14_3 C13_3 1_555 1_555
C21_3 C4_3 1_555 1_555
H18_3 C21_3 1_555 1_555
C22_3 C21_3 1_555 1_555
C23_3 C22_3 1_555 1_555
C24_3 C2_3 1_555 1_555
H19_3 C24_3 1_555 1_555
C11_3 C12_3 1_555 1_555
C22_3 C24_3 1_555 1_555
H3_4 O9_4 1_555 1_555
H4_4 O9_4 1_555 1_555
O12 C10_4 1_555 1_555
O4_4 C10_4 1_555 1_555
Mn8 O7_4 1_555 1_555
O1_4 C1_4 1_555 1_555
O11_2 C1_4 1_555 1_555
O13_2 C18_4 1_555 1_555
O7_4 C23_4 1_555 1_555
O8_4 Mn8 1_555 1_555
H2_4 O8_4 1_555 1_555
N1_4 C4_4 1_555 1_555
C1_4 C2_4 1_555 1_555
C2_4 C3_4 1_555 1_555
C3_4 H5_4 1_555 1_555
C4_4 C3_4 1_555 1_555
C5_4 N1_4 1_555 1_555
H6_4 C5_4 1_555 1_555
H7_4 C5_4 1_555 1_555
C6_4 C5_4 1_555 1_555
C7_4 C6_4 1_555 1_555
H8_4 C7_4 1_555 1_555
C8_4 C7_4 1_555 1_555
C9_4 C8_4 1_555 1_555
C11_4 C9_4 1_555 1_555
H10_4 C11_4 1_555 1_555
C12_4 C6_4 1_555 1_555
H11_4 C12_4 1_555 1_555
C13_4 N1_4 1_555 1_555
H12_4 C13_4 1_555 1_555
H13_4 C13_4 1_555 1_555
C14_4 C13_4 1_555 1_555
C15_4 C14_4 1_555 1_555
H14_4 C15_4 1_555 1_555
C16_4 C15_4 1_555 1_555
C17_4 C16_4 1_555 1_555
C18_4 C17_4 1_555 1_555
C19_4 C17_4 1_555 1_555
H16_4 C19_4 1_555 1_555
C20_4 C14_4 1_555 1_555
H17_4 C20_4 1_555 1_555
C21_4 C4_4 1_555 1_555
H18_4 C21_4 1_555 1_555
C22_4 C21_4 1_555 1_555
C23_4 C22_4 1_555 1_555
C24_4 C2_4 1_555 1_555
C11_4 C12_4 1_555 1_555
C19_4 C20_4 1_555 1_555
C22_4 C24_4 1_555 1_555
N2_4 Mn4 1_555 1_555
N4 C32_4 1_555 1_555
C25_4 N2_4 1_555 1_555
H20_4 C25_4 1_555 1_555
C26_4 C25_4 1_555 1_555
H21_4 C26_4 1_555 1_555
C27_4 C26_4 1_555 1_555
C28_4 C27_4 1_555 1_555
H22_4 C28_4 1_555 1_555
C29_4 N2_4 1_555 1_555
H23_4 C29_4 1_555 1_555
C30_4 C27_4 1_555 1_555
C31_4 C30_4 1_555 1_555
H24_4 C31_4 1_555 1_555
C32_4 C31_4 1_555 1_555
H25_4 C32_4 1_555 1_555
C33_4 N4 1_555 1_555
H26_4 C33_4 1_555 1_555
C34_4 C30_4 1_555 1_555
H27_4 C34_4 1_555 1_555
C28_4 C29_4 1_555 1_555
C33_4 C34_4 1_555 1_555

#END
