
###############################################################################
#
# This file contains modified crystal structure data generated from the
# MOF subset of the Cambridge Structural Database (CSD) v543 
# hosted by the Cambridge Crystallographic Data Centre (CCDC).
#
# This work is licensed under the Creative Commons
# Attribution-NonCommercial-ShareAlike 4.0 International License.
# To view a copy of this license, visit
# http://creativecommons.org/licenses/by-nc-sa/4.0/
# or send a letter to
# Creative Commons, PO Box 1866, Mountain View, CA 94042, USA.
#
# CIF created using the CSD Python API on 29 September 2022
# The structure has been converted into the P1 space group
# The structure has a 3D framework
# The original CSD entry BOLZOU is in the triclinic crystal system
# The framework has been calculated to contain at least 10.0% void space
# The void calculation uses a probe of radius 1.32A, grid spacing 0.4
#
###############################################################################

data_BOLZOU
_chemical_formula_moiety         '(C80 H56 Co7 N8 O19)n'
_symmetry_cell_setting           triclinic
_symmetry_space_group_name_H-M   'P 1'
_symmetry_Int_Tables_number      1
_space_group_name_Hall           'P 1'
loop_
_symmetry_equiv_pos_site_id
_symmetry_equiv_pos_as_xyz
1 x,y,z
_cell_length_a                   11.560(3)
_cell_length_b                   13.891(3)
_cell_length_c                   14.765(4)
_cell_angle_alpha                93.156(2)
_cell_angle_beta                 107.051(3)
_cell_angle_gamma                96.782(4)
_cell_volume                     2240.82
loop_
_atom_site_label
_atom_site_type_symbol
_atom_site_fract_x
_atom_site_fract_y
_atom_site_fract_z
C2 C 0.0326(3) 0.0321(2) 0.8791(2)
H4 H 0.072555 0.032486 0.945341
O1 O 0.16607(17) 0.87933(15) 0.94107(15)
O2 O 0.1505(2) 0.82638(17) 0.79477(17)
C1 C 0.0443(3) 0.9580(2) 0.8168(2)
C13 C 0.1241(3) 0.8817(2) 0.8500(2)
Co14 Co 0.29187(3) 0.78963(2) 0.97140(3)
Co1 Co 0.500000 0.000000 0.000000
Co2 Co 0.43206(3) 0.19768(2) 0.07355(2)
Co3 Co 0.70813(3) 0.21037(2) 0.02860(3)
O9 O 0.34707(16) 0.03353(12) 0.05290(13)
H1 H 0.2766(12) 0.0241(19) 0.0181(15)
H2 H 0.358(2) 0.0017(17) 0.1010(12)
O10 O 0.58215(15) 0.13324(11) 0.06901(12)
H3 H 0.623(2) 0.1232(18) 0.1209(10)
N1 N 0.27052(19) 0.24665(15) 0.07473(16)
N2 N 0.1294(2) 0.34295(16) 0.05149(18)
N3 N 0.5234(2) 0.12541(17) 0.36205(16)
N4 N 0.4918(2) 0.18619(15) 0.22359(15)
H18 H 0.818087 0.005926 0.438940
H19 H 0.698138 0.005230 0.282197
C29 C 0.5982(4) 0.2330(3) 0.2836(3)
H20 H 0.648537 0.285006 0.268806
C30 C 0.6219(4) 0.1941(3) 0.3683(3)
H21 H 0.692795 0.210999 0.421641
C31 C 0.4586(3) 0.11940(19) 0.27249(19)
H22 H 0.391704 0.069441 0.245071
C32 C 0.5119(3) 0.0615(2) 0.43258(19)
C34 C 0.5553(3) 0.0942(2) 0.5270(2)
H24 H 0.593837 0.159503 0.546032
C35 C 0.1797(3) 0.2073(2) 0.1090(3)
H25 H 0.178022 0.147818 0.137712
C36 C 0.0931(3) 0.2661(3) 0.0955(3)
H26 H 0.020237 0.256183 0.113207
C37 C 0.2365(3) 0.3282(2) 0.0404(2)
H27 H 0.282540 0.370879 0.011532
C38 C 0.0642(2) 0.42377(19) 0.0247(2)
C39 C 0.1235(3) 0.5165(2) 0.0471(3)
H28 H 0.208747 0.528118 0.079341
C46 C 0.0585(3) 0.5944(2) 0.0224(3)
H34 H 0.098906 0.659458 0.038158
C51 C 0.5430(3) 0.0322(2) 0.5945(2)
H38 H 0.573002 0.054914 0.660182
O22 O 0.83393(17) 0.12067(15) 0.05893(15)
O24 O 0.52093(17) 0.33940(12) 0.08476(13)
O26 O 0.71198(19) 0.34496(13) 0.07627(15)
Co1_2 Co 0.500000 -0.000000 1.000000
O3 O 0.69912(18) 0.23302(13) 0.89739(13)
O4 O 0.69000(18) 0.08485(13) 0.82524(13)
C3 C 0.9646(3) 0.1049(2) 0.8472(2)
H5 H 0.959559 0.155399 0.891381
C4 C 0.9037(2) 0.1057(2) 0.7519(2)
C5 C 0.9128(3) 0.0306(2) 0.6891(2)
H6 H 0.870697 0.028893 0.623200
C7 C 0.8369(3) 0.1880(2) 0.71566(19)
C8 C 0.7537(2) 0.22440(18) 0.75610(18)
C9 C 0.7029(3) 0.3070(2) 0.7229(2)
H8 H 0.647483 0.332541 0.751051
C10 C 0.7320(3) 0.3519(2) 0.6502(2)
H9 H 0.696402 0.407732 0.628144
C11 C 0.8134(3) 0.3154(2) 0.6090(2)
H10 H 0.833262 0.345562 0.558291
C12 C 0.8650(3) 0.2353(2) 0.6425(2)
H11 H 0.921709 0.211254 0.614787
C14 C 0.7120(2) 0.17557(19) 0.83174(19)
O17 O 0.42556(17) 0.05296(12) 0.87526(12)
O18 O 0.36859(17) 0.18931(12) 0.92483(11)
O19 O 0.47907(17) 0.66060(12) 0.91524(13)
O20 O 0.28802(19) 0.65504(13) 0.92373(15)
C67 C 0.3452(2) 0.51162(17) 0.86749(18)
C68 C 0.2252(3) 0.46830(18) 0.8310(2)
H51 H 0.161051 0.503522 0.835327
C69 C 0.1977(3) 0.37346(19) 0.7881(2)
H52 H 0.114756 0.345128 0.761296
C70 C 0.2899(2) 0.31977(17) 0.78404(18)
C71 C 0.4103(2) 0.36222(18) 0.82472(19)
H53 H 0.474604 0.325485 0.824823
C72 C 0.4375(3) 0.45725(18) 0.86502(19)
H54 H 0.520498 0.485772 0.891378
C73 C 0.2580(2) 0.22241(17) 0.72655(18)
C74 C 0.1847(3) 0.2191(2) 0.63227(19)
H55 H 0.153375 0.276313 0.609451
C75 C 0.1567(3) 0.1354(2) 0.5717(2)
H56 H 0.106883 0.135438 0.507824
C76 C 0.2005(3) 0.0519(2) 0.6030(2)
C77 C 0.2718(3) 0.05283(19) 0.6962(2)
C78 C 0.3010(2) 0.13655(17) 0.75947(17)
C79 C 0.3745(3) 0.61733(17) 0.90572(17)
C80 C 0.3702(2) 0.12727(17) 0.86041(18)
Co10 Co 0.56794(3) 0.80232(2) 0.92645(2)
Co1_3 Co 0.500000 1.000000 0.000000
O5 O 0.57444(17) 0.94704(12) 0.12474(12)
O6 O 0.63141(17) 0.81069(12) 0.07517(11)
C15 C 0.6548(2) 0.48838(17) 0.13251(18)
C16 C 0.7748(3) 0.53170(18) 0.1690(2)
H12 H 0.838949 0.496478 0.164673
C17 C 0.8023(3) 0.62654(19) 0.2119(2)
H13 H 0.885244 0.654872 0.238704
C18 C 0.7101(2) 0.68023(17) 0.21596(18)
C19 C 0.5897(2) 0.63778(18) 0.17528(19)
H14 H 0.525396 0.674515 0.175177
C20 C 0.5625(3) 0.54275(18) 0.13498(19)
H15 H 0.479502 0.514228 0.108622
C21 C 0.7420(2) 0.77759(17) 0.27345(18)
C22 C 0.8153(3) 0.7809(2) 0.36773(19)
H16 H 0.846625 0.723687 0.390549
C23 C 0.8433(3) 0.8646(2) 0.4283(2)
H17 H 0.893117 0.864562 0.492176
C24 C 0.7995(3) 0.9481(2) 0.3970(2)
C25 C 0.7282(3) 0.94717(19) 0.3038(2)
C26 C 0.6990(2) 0.86345(17) 0.24053(17)
C27 C 0.6255(3) 0.38267(17) 0.09428(17)
C28 C 0.6298(2) 0.87273(17) 0.13959(18)
C33 C 0.4570(3) 0.9678(2) 0.4055(2)
H23 H 0.426998 0.945086 0.339818
N7 N 0.4766(2) 0.87459(17) 0.63795(16)
N8 N 0.5082(2) 0.81381(15) 0.77641(15)
C47 C 0.4018(4) 0.7670(3) 0.7164(3)
H35 H 0.351463 0.714994 0.731194
C48 C 0.3781(4) 0.8059(3) 0.6317(3)
H36 H 0.307205 0.789001 0.578359
C49 C 0.5414(3) 0.88060(19) 0.72751(19)
H37 H 0.608296 0.930559 0.754929
C50 C 0.4881(3) 0.9385(2) 0.56742(19)
C52 C 0.4447(3) 0.9058(2) 0.4730(2)
H39 H 0.406163 0.840497 0.453968
Co1_4 Co 0.500000 1.000000 1.000000
C6 C 0.9826(3) 0.9583(2) 0.7219(2)
H7 H 0.988150 0.907857 0.677898
H57 H 0.181913 0.994074 0.561060
H58 H 0.301862 0.994770 0.717803
O28 O 0.65293(16) 0.96647(12) 0.94710(13)
O29 O 0.41785(15) 0.86676(11) 0.93099(12)
C58 C 0.0174(3) 0.0417(2) 0.2781(2)
H46 H 0.011850 0.092143 0.322102
O13 O 0.30088(18) 0.76698(13) 0.10261(13)
O14 O 0.31000(18) 0.91515(13) 0.17476(13)
C55 C 0.0354(3) 0.8951(2) 0.1528(2)
H44 H 0.040441 0.844601 0.108619
C56 C 0.0963(2) 0.8943(2) 0.2481(2)
C57 C 0.0872(3) 0.9694(2) 0.3109(2)
H45 H 0.129303 0.971107 0.376800
C59 C 0.1631(3) 0.8120(2) 0.28434(19)
C60 C 0.2463(2) 0.77560(18) 0.24390(18)
C61 C 0.2971(3) 0.6930(2) 0.2771(2)
H47 H 0.352517 0.667459 0.248949
C62 C 0.2680(3) 0.6481(2) 0.3498(2)
H48 H 0.303598 0.592268 0.371856
C63 C 0.1866(3) 0.6846(2) 0.3910(2)
H49 H 0.166738 0.654438 0.441709
C64 C 0.1350(3) 0.7647(2) 0.3575(2)
H50 H 0.078291 0.788746 0.385213
C66 C 0.2880(2) 0.82443(19) 0.16826(19)
C40 C 0.9415(3) 0.4056(2) 0.9776(3)
H29 H 0.901094 0.340542 0.961842
N5 N 0.72948(19) 0.75335(15) 0.92527(16)
N6 N 0.8706(2) 0.65705(16) 0.94851(18)
C41 C 0.8203(3) 0.7927(2) 0.8910(3)
H30 H 0.821978 0.852182 0.862288
C42 C 0.9069(3) 0.7339(3) 0.9045(3)
H31 H 0.979763 0.743817 0.886793
C43 C 0.7635(3) 0.6718(2) 0.9596(2)
H32 H 0.717460 0.629121 0.988468
C44 C 0.9358(2) 0.57623(19) 0.9753(2)
C45 C 0.8765(3) 0.4835(2) 0.9529(3)
H33 H 0.791253 0.471882 0.920659
H40 H 0.7234(12) 0.9759(19) 0.9819(15)
H41 H 0.642(2) 0.9983(17) 0.8990(12)
H42 H 0.377(2) 0.8768(18) 0.8791(10)
O12 O 0.8495(2) 0.17362(17) 0.20523(17)
C53 C 0.9557(3) 0.0420(2) 0.1832(2)
C65 C 0.8759(3) 0.1183(2) 0.1500(2)
C54 C 0.9674(3) 0.9679(2) 0.1209(2)
H43 H 0.927445 0.967514 0.054659
loop_
_geom_bond_atom_site_label_1
_geom_bond_atom_site_label_2
_geom_bond_site_symmetry_1
_geom_bond_site_symmetry_2
C2 H4 1_555 1_555
O1 C13 1_555 1_555
O2 C13 1_555 1_555
C13 C1 1_555 1_555
Co14 O1 1_555 1_555
Co2 O9 1_555 1_555
O9 Co1 1_555 1_555
H1 O9 1_555 1_555
H2 O9 1_555 1_555
O10 Co1 1_555 1_555
H3 O10 1_555 1_555
N1 Co2 1_555 1_555
N2 C36 1_555 1_555
N3 C30 1_555 1_555
N4 Co2 1_555 1_555
C29 N4 1_555 1_555
H20 C29 1_555 1_555
C30 C29 1_555 1_555
H21 C30 1_555 1_555
C31 N3 1_555 1_555
H22 C31 1_555 1_555
C32 N3 1_555 1_555
C34 C32 1_555 1_555
H24 C34 1_555 1_555
C35 N1 1_555 1_555
H25 C35 1_555 1_555
C36 C35 1_555 1_555
H26 C36 1_555 1_555
C37 N1 1_555 1_555
H27 C37 1_555 1_555
C38 N2 1_555 1_555
C39 C38 1_555 1_555
H28 C39 1_555 1_555
C46 C39 1_555 1_555
H34 C46 1_555 1_555
C51 C34 1_555 1_555
H38 C51 1_555 1_555
O22 Co3 1_555 1_555
O24 Co2 1_555 1_555
O26 Co3 1_555 1_555
Co2 O10 1_555 1_555
Co3 O10 1_555 1_555
N2 C37 1_555 1_555
N4 C31 1_555 1_555
O3 C14 1_555 1_555
O4 C14 1_555 1_555
H5 C3 1_555 1_555
C4 C3 1_555 1_555
C5 C4 1_555 1_555
H6 C5 1_555 1_555
C7 C4 1_555 1_555
C8 C7 1_555 1_555
C9 C8 1_555 1_555
H8 C9 1_555 1_555
C10 C9 1_555 1_555
H9 C10 1_555 1_555
C11 C10 1_555 1_555
H10 C11 1_555 1_555
C12 C7 1_555 1_555
H11 C12 1_555 1_555
C14 C8 1_555 1_555
O17 Co1_2 1_555 1_555
O19 C79 1_555 1_555
O20 C79 1_555 1_555
C67 C68 1_555 1_555
C68 H51 1_555 1_555
C69 C68 1_555 1_555
H52 C69 1_555 1_555
C70 C69 1_555 1_555
C71 C70 1_555 1_555
H53 C71 1_555 1_555
C72 C67 1_555 1_555
H54 C72 1_555 1_555
C73 C70 1_555 1_555
C74 C73 1_555 1_555
H55 C74 1_555 1_555
C75 C74 1_555 1_555
H56 C75 1_555 1_555
C76 C75 1_555 1_555
C77 C76 1_555 1_555
C78 C73 1_555 1_555
C79 C67 1_555 1_555
C80 O17 1_555 1_555
Co10 O19 1_555 1_555
Co14 O20 1_555 1_555
C11 C12 1_555 1_555
O18 C80 1_555 1_555
C71 C72 1_555 1_555
C77 C78 1_555 1_555
C78 C80 1_555 1_555
Co1_3 O5 1_555 1_555
O5 C28 1_555 1_555
O6 C28 1_555 1_555
O24 C27 1_555 1_555
O26 C27 1_555 1_555
C15 C16 1_555 1_555
C16 H12 1_555 1_555
C17 C16 1_555 1_555
H13 C17 1_555 1_555
C18 C17 1_555 1_555
C19 C18 1_555 1_555
H14 C19 1_555 1_555
C20 C15 1_555 1_555
H15 C20 1_555 1_555
C21 C18 1_555 1_555
C22 C21 1_555 1_555
H16 C22 1_555 1_555
C23 C22 1_555 1_555
H17 C23 1_555 1_555
C24 C23 1_555 1_555
C25 C24 1_555 1_555
C26 C21 1_555 1_555
C27 C15 1_555 1_555
C28 C26 1_555 1_555
H23 C33 1_555 1_555
N7 C48 1_555 1_555
N8 C47 1_555 1_555
C47 H35 1_555 1_555
C48 C47 1_555 1_555
H36 C48 1_555 1_555
C49 N7 1_555 1_555
H37 C49 1_555 1_555
C50 N7 1_555 1_555
C52 C33 1_555 1_555
H39 C52 1_555 1_555
Co10 N8 1_555 1_555
C19 C20 1_555 1_555
C25 C26 1_555 1_555
N8 C49 1_555 1_555
C50 C52 1_555 1_555
H7 C6 1_555 1_555
O28 Co1_4 1_555 1_555
O29 Co1_4 1_555 1_555
Co10 O28 1_555 1_555
Co10 O29 1_555 1_555
H46 C58 1_555 1_555
O13 C66 1_555 1_555
O14 C66 1_555 1_555
H44 C55 1_555 1_555
C56 C55 1_555 1_555
C57 C56 1_555 1_555
H45 C57 1_555 1_555
C59 C56 1_555 1_555
C60 C59 1_555 1_555
C61 C60 1_555 1_555
H47 C61 1_555 1_555
C62 C61 1_555 1_555
H48 C62 1_555 1_555
C63 C62 1_555 1_555
H49 C63 1_555 1_555
C64 C59 1_555 1_555
H50 C64 1_555 1_555
C66 C60 1_555 1_555
C63 C64 1_555 1_555
H29 C40 1_555 1_555
N5 C41 1_555 1_555
N6 C42 1_555 1_555
C41 H30 1_555 1_555
C42 C41 1_555 1_555
H31 C42 1_555 1_555
C43 N5 1_555 1_555
H32 C43 1_555 1_555
C44 N6 1_555 1_555
C45 C40 1_555 1_555
H33 C45 1_555 1_555
Co10 N5 1_555 1_555
H40 O28 1_555 1_555
H41 O28 1_555 1_555
H42 O29 1_555 1_555
N6 C43 1_555 1_555
C44 C45 1_555 1_555
Co14 O29 1_555 1_555
O22 C65 1_555 1_555
O12 C65 1_555 1_555
C65 C53 1_555 1_555
C54 H43 1_555 1_555

#END
