
###############################################################################
#
# This file contains modified crystal structure data generated from the
# MOF subset of the Cambridge Structural Database (CSD) v543 
# hosted by the Cambridge Crystallographic Data Centre (CCDC).
#
# This work is licensed under the Creative Commons
# Attribution-NonCommercial-ShareAlike 4.0 International License.
# To view a copy of this license, visit
# http://creativecommons.org/licenses/by-nc-sa/4.0/
# or send a letter to
# Creative Commons, PO Box 1866, Mountain View, CA 94042, USA.
#
# CIF created using the CSD Python API on 29 September 2022
# The structure has been converted into the P1 space group
# The structure has a 3D framework
# The original CSD entry BOMBAJ is in the monoclinic crystal system
# The framework has been calculated to contain at least 10.0% void space
# The void calculation uses a probe of radius 1.32A, grid spacing 0.4
#
###############################################################################

data_BOMBAJ
_chemical_formula_moiety         '(C108 H72 Co6 N16 O22)n'
_symmetry_cell_setting           triclinic
_symmetry_space_group_name_H-M   'P 1'
_symmetry_Int_Tables_number      1
_space_group_name_Hall           'P 1'
loop_
_symmetry_equiv_pos_site_id
_symmetry_equiv_pos_as_xyz
1 x,y,z
_cell_length_a                   15.8312(12)
_cell_length_b                   11.1386(8)
_cell_length_c                   27.232(3)
_cell_angle_alpha                90
_cell_angle_beta                 99.996(5)
_cell_angle_gamma                90
_cell_volume                     4729.12
loop_
_atom_site_label
_atom_site_type_symbol
_atom_site_fract_x
_atom_site_fract_y
_atom_site_fract_z
Co1 Co 0.05261(2) 0.02152(3) 0.05557(2)
O9 O 0.03917(12) 0.20739(15) 0.05631(6)
O11 O 0.01363(12) 0.02727(15) 0.12638(6)
N5 N 0.18432(15) 0.0430(2) 0.08543(9)
O12 O 0.07458(11) 0.00843(13) 0.98207(6)
O1 O 0.04940(12) 0.83406(14) 0.06388(6)
O2 O 0.14818(14) 0.75840(16) 0.02231(8)
O5 O 0.08559(14) 0.38046(18) 0.37858(6)
C13 C 0.07203(16) 0.4117(2) 0.06763(8)
C14 C 0.08692(16) 0.5227(2) 0.04689(8)
H12 H 0.099135 0.526499 0.014726
C15 C 0.08357(16) 0.6275(2) 0.07411(9)
C16 C 0.06954(18) 0.6198(2) 0.12311(9)
H13 H 0.065710 0.690089 0.141050
C17 C 0.06115(19) 0.5104(2) 0.14576(9)
C18 C 0.06018(18) 0.4063(2) 0.11693(9)
H14 H 0.051459 0.332274 0.131012
C19 C 0.0538(2) 0.5002(2) 0.19962(9)
C20 C 0.0071(2) 0.5824(3) 0.22303(10)
C21 C 0.0006(2) 0.5696(3) 0.27281(10)
C22 C 0.04273(18) 0.4766(2) 0.30126(9)
C23 C 0.09030(19) 0.3965(2) 0.27820(9)
H17 H 0.118900 0.333950 0.296696
C24 C 0.0962(2) 0.4074(2) 0.22855(9)
H18 H 0.128632 0.352411 0.214083
C25 C 0.09547(18) 0.7482(2) 0.05115(9)
C26 C 0.06781(17) 0.2980(2) 0.03817(9)
C27 C 0.03704(19) 0.4615(2) 0.35540(9)
Co7 Co 0.09662(2) 0.33759(3) 0.45011(2)
O3 O 0.09284(12) 0.30184(15) 0.99616(6)
Co8 Co 0.09662(2) 0.16241(3) 0.95011(2)
H1 H 0.885327 0.055635 0.022913
N3 N 0.32485(17) 0.0269(3) 0.09052(11)
C8 C 0.4745(3) 0.0536(4) 0.08469(18)
H7 H 0.471064 0.132501 0.095356
C9 C 0.5519(3) 0.0100(4) 0.07285(19)
H8 H 0.599567 0.060049 0.075603
C10 C 0.3114(3) 0.1207(4) 0.12194(17)
H9 H 0.352970 0.167255 0.141521
C11 C 0.2243(2) 0.1304(4) 0.11814(16)
H10 H 0.196204 0.186531 0.134776
Co2 Co 0.90338(2) 0.83759(3) 0.04989(2)
O6 O 0.98637(12) 0.52727(15) 0.37362(6)
O7 O 0.92542(11) 0.99157(13) 0.01793(6)
N1 N 0.77098(16) 0.8249(2) 0.03925(9)
N2 N 0.63311(18) 0.8490(3) 0.04339(12)
C1 C 0.7215(2) 0.7435(4) 0.00796(14)
C2 C 0.6378(2) 0.7573(4) 0.00970(17)
C3 C 0.7152(2) 0.8860(3) 0.05979(12)
H4 H 0.730025 0.947356 0.082839
C4 C 0.5569(2) 0.8963(3) 0.05761(15)
C5 C 0.4856(3) 0.8256(4) 0.0524(2)
H5 H 0.487600 0.747700 0.040418
C6 C 0.4104(3) 0.8689(4) 0.0649(2)
H6 H 0.362893 0.818650 0.062291
C7 C 0.4045(2) 0.9805(3) 0.08056(15)
C12 C 0.2470(2) 0.9857(3) 0.06976(12)
H11 H 0.238443 0.923202 0.046771
H15 H 0.980008 0.646579 0.204905
H16 H 0.967694 0.623761 0.287408
Co5 Co 0.94739(2) 0.52152(3) 0.44443(2)
O8 O 0.90716(12) 0.69816(15) 0.00384(6)
O10 O 0.91441(14) 0.88046(18) 0.12142(6)
H2 H 0.743491 0.686917 0.988407
H3 H 0.592240 0.714027 0.991907
Co6 Co 0.94739(2) 0.97848(3) 0.94443(2)
O7_2 O 0.07458(11) 0.49157(13) 0.48207(6)
H1_2 H 0.114673 0.555635 0.477087
N1_2 N 0.22902(16) 0.3249(2) 0.46075(9)
N2_2 N 0.36689(18) 0.3490(3) 0.45661(12)
N3_2 N 0.67515(17) 0.5269(3) 0.40948(11)
N4 N 0.81568(15) 0.5430(2) 0.41457(9)
C1_2 C 0.2785(2) 0.2435(4) 0.49204(14)
H2_2 H 0.256509 0.186917 0.511593
C2_2 C 0.3622(2) 0.2573(4) 0.49030(17)
H3_2 H 0.407760 0.214027 0.508093
C3_2 C 0.2848(2) 0.3860(3) 0.44021(12)
H4_2 H 0.269975 0.447356 0.417161
C4_2 C 0.4431(2) 0.3963(3) 0.44239(15)
C5_2 C 0.5144(3) 0.3256(4) 0.4476(2)
H5_2 H 0.512400 0.247700 0.459582
C6_2 C 0.5896(3) 0.3689(4) 0.4351(2)
H6_2 H 0.637107 0.318650 0.437709
C7_2 C 0.5955(2) 0.4805(3) 0.41944(15)
C8_2 C 0.5255(3) 0.5536(4) 0.41531(18)
H7_2 H 0.528936 0.632501 0.404644
C9_2 C 0.4481(3) 0.5100(4) 0.42715(19)
H8_2 H 0.400433 0.560049 0.424397
C10_2 C 0.6886(3) 0.6207(4) 0.37806(17)
H9_2 H 0.647030 0.667255 0.358479
C11_2 C 0.7757(2) 0.6304(4) 0.38186(16)
H10_2 H 0.803796 0.686531 0.365224
C12_2 C 0.7530(2) 0.4857(3) 0.43024(12)
H11_2 H 0.761557 0.423202 0.453229
H15_2 H 0.019992 0.146579 0.295095
H16_2 H 0.032306 0.123761 0.212592
Co6_2 Co 0.05261(2) 0.47848(3) 0.55557(2)
O8_2 O 0.09284(12) 0.19816(15) 0.49616(6)
O1_2 O 0.95060(12) 0.33406(14) 0.43612(6)
O2_2 O 0.85182(14) 0.25840(16) 0.47769(8)
C14_2 C 0.91308(16) 0.0227(2) 0.45311(8)
H12_2 H 0.900865 0.026499 0.485274
C15_2 C 0.91643(16) 0.1275(2) 0.42589(9)
C16_2 C 0.93046(18) 0.1198(2) 0.37689(9)
H13_2 H 0.934290 0.190089 0.358950
C17_2 C 0.93885(19) 0.0104(2) 0.35424(9)
C19_2 C 0.9462(2) 0.0002(2) 0.30038(9)
C20_2 C 0.9929(2) 0.0824(3) 0.27697(10)
C21_2 C 0.9994(2) 0.0696(3) 0.22719(10)
C25_2 C 0.90453(18) 0.2482(2) 0.44885(9)
O9_2 O 0.96083(12) 0.70739(15) 0.44369(6)
O12_2 O 0.92542(11) 0.50843(13) 0.51793(6)
O3_2 O 0.90716(12) 0.80184(15) 0.50384(6)
C13_2 C 0.92797(16) 0.9117(2) 0.43237(8)
C18_2 C 0.93982(18) 0.9063(2) 0.38307(9)
H14_2 H 0.948541 0.832274 0.368988
C22_2 C 0.95727(18) 0.9766(2) 0.19874(9)
C23_2 C 0.90970(19) 0.8965(2) 0.22180(9)
H17_2 H 0.881100 0.833950 0.203304
C24_2 C 0.9038(2) 0.9074(2) 0.27145(9)
H18_2 H 0.871368 0.852411 0.285917
C26_2 C 0.93219(17) 0.7980(2) 0.46183(9)
C27_2 C 0.96296(19) 0.9615(2) 0.14460(9)
Co8_2 Co 0.90338(2) 0.66241(3) 0.54989(2)
H2_3 H 0.256509 0.313083 0.011593
H3_3 H 0.407760 0.285973 0.008093
O6_2 O 0.01363(12) 0.47273(15) 0.62638(6)
N1_3 N 0.22902(16) 0.1751(2) 0.96075(9)
N2_3 N 0.36689(18) 0.1510(3) 0.95661(12)
C1_3 C 0.2785(2) 0.2565(4) 0.99204(14)
C2_3 C 0.3622(2) 0.2427(4) 0.99030(17)
C3_3 C 0.2848(2) 0.1140(3) 0.94021(12)
H4_3 H 0.269975 0.052644 0.917161
C4_3 C 0.4431(2) 0.1037(3) 0.94239(15)
C5_3 C 0.5144(3) 0.1744(4) 0.9476(2)
H5_3 H 0.512400 0.252300 0.959582
C6_3 C 0.5896(3) 0.1311(4) 0.9351(2)
H6_3 H 0.637107 0.181350 0.937709
C7_3 C 0.5955(2) 0.0195(3) 0.91944(15)
C12_3 C 0.7530(2) 0.0143(3) 0.93024(12)
H11_3 H 0.761557 0.076798 0.953229
H15_3 H 0.019992 0.353421 0.795095
H16_3 H 0.032306 0.376239 0.712592
O10_2 O 0.08559(14) 0.11954(18) 0.87858(6)
H1_3 H 0.114673 0.944365 0.977087
N3_3 N 0.67515(17) 0.9731(3) 0.90948(11)
N4_2 N 0.81568(15) 0.9570(2) 0.91457(9)
C8_3 C 0.5255(3) 0.9464(4) 0.91531(18)
H7_3 H 0.528936 0.867499 0.904644
C9_3 C 0.4481(3) 0.9900(4) 0.92715(19)
H8_3 H 0.400433 0.939951 0.924397
C10_3 C 0.6886(3) 0.8793(4) 0.87806(17)
H9_3 H 0.647030 0.832745 0.858479
C11_3 C 0.7757(2) 0.8696(4) 0.88186(16)
H10_3 H 0.803796 0.813469 0.865224
O1_3 O 0.95060(12) 0.16594(14) 0.93612(6)
O2_3 O 0.85182(14) 0.24160(16) 0.97769(8)
O4 O 0.96083(12) 0.79261(15) 0.94369(6)
O5_2 O 0.91441(14) 0.61954(18) 0.62142(6)
C13_3 C 0.92797(16) 0.5883(2) 0.93237(8)
C14_3 C 0.91308(16) 0.4773(2) 0.95311(8)
H12_3 H 0.900865 0.473501 0.985274
C15_3 C 0.91643(16) 0.3725(2) 0.92589(9)
C16_3 C 0.93046(18) 0.3802(2) 0.87689(9)
H13_3 H 0.934290 0.309911 0.858950
C17_3 C 0.93885(19) 0.4896(2) 0.85424(9)
C18_3 C 0.93982(18) 0.5937(2) 0.88307(9)
H14_3 H 0.948541 0.667726 0.868988
C19_3 C 0.9462(2) 0.4998(2) 0.80038(9)
C20_3 C 0.9929(2) 0.4176(3) 0.77697(10)
C21_3 C 0.9994(2) 0.4304(3) 0.72719(10)
C22_3 C 0.95727(18) 0.5234(2) 0.69874(9)
C23_3 C 0.90970(19) 0.6035(2) 0.72180(9)
H17_3 H 0.881100 0.666050 0.703304
C24_3 C 0.9038(2) 0.5926(2) 0.77145(9)
H18_3 H 0.871368 0.647589 0.785917
C25_3 C 0.90453(18) 0.2518(2) 0.94885(9)
C26_3 C 0.93219(17) 0.7020(2) 0.96183(9)
C27_3 C 0.96296(19) 0.5385(2) 0.64460(9)
O11_2 O 0.98637(12) 0.97273(15) 0.87362(6)
O4_2 O 0.03917(12) 0.29261(15) 0.55631(6)
C13_4 C 0.07203(16) 0.0883(2) 0.56763(8)
C18_4 C 0.06018(18) 0.0937(2) 0.61693(9)
H14_4 H 0.051459 0.167726 0.631012
C22_4 C 0.04273(18) 0.0234(2) 0.80126(9)
C23_4 C 0.09030(19) 0.1035(2) 0.77820(9)
H17_4 H 0.118900 0.166050 0.796696
C24_4 C 0.0962(2) 0.0926(2) 0.72855(9)
H18_4 H 0.128632 0.147589 0.714083
C26_4 C 0.06781(17) 0.2020(2) 0.53817(9)
C27_4 C 0.03704(19) 0.0385(2) 0.85540(9)
O1_4 O 0.04940(12) 0.66594(14) 0.56388(6)
O2_4 O 0.14818(14) 0.74160(16) 0.52231(8)
C14_4 C 0.08692(16) 0.9773(2) 0.54689(8)
H12_4 H 0.099135 0.973501 0.514726
C15_4 C 0.08357(16) 0.8725(2) 0.57411(9)
C16_4 C 0.06954(18) 0.8802(2) 0.62311(9)
H13_4 H 0.065710 0.809911 0.641050
C17_4 C 0.06115(19) 0.9896(2) 0.64576(9)
C19_4 C 0.0538(2) 0.9998(2) 0.69962(9)
C20_4 C 0.0071(2) 0.9176(3) 0.72303(10)
C21_4 C 0.0006(2) 0.9304(3) 0.77281(10)
C25_4 C 0.09547(18) 0.7518(2) 0.55115(9)
N5_2 N 0.18432(15) 0.4570(2) 0.58543(9)
H1_4 H 0.885327 0.444365 0.522913
N1_4 N 0.77098(16) 0.6751(2) 0.53925(9)
N2_4 N 0.63311(18) 0.6510(3) 0.54339(12)
N3_4 N 0.32485(17) 0.4731(3) 0.59052(11)
C1_4 C 0.7215(2) 0.7565(4) 0.50796(14)
H2_4 H 0.743491 0.813083 0.488407
C2_4 C 0.6378(2) 0.7427(4) 0.50970(17)
H3_4 H 0.592240 0.785973 0.491907
C3_4 C 0.7152(2) 0.6140(3) 0.55979(12)
H4_4 H 0.730025 0.552644 0.582839
C4_4 C 0.5569(2) 0.6037(3) 0.55761(15)
C5_4 C 0.4856(3) 0.6744(4) 0.5524(2)
H5_4 H 0.487600 0.752300 0.540418
C6_4 C 0.4104(3) 0.6311(4) 0.5649(2)
H6_4 H 0.362893 0.681350 0.562291
C7_4 C 0.4045(2) 0.5195(3) 0.58056(15)
C8_4 C 0.4745(3) 0.4464(4) 0.58469(18)
H7_4 H 0.471064 0.367499 0.595356
C9_4 C 0.5519(3) 0.4900(4) 0.57285(19)
H8_4 H 0.599567 0.439951 0.575603
C10_4 C 0.3114(3) 0.3793(4) 0.62194(17)
H9_4 H 0.352970 0.332745 0.641521
C11_4 C 0.2243(2) 0.3696(4) 0.61814(16)
H10_4 H 0.196204 0.313469 0.634776
C12_4 C 0.2470(2) 0.5143(3) 0.56976(12)
H11_4 H 0.238443 0.576798 0.546771
H15_4 H 0.980008 0.853421 0.704905
H16_4 H 0.967694 0.876239 0.787408
loop_
_geom_bond_atom_site_label_1
_geom_bond_atom_site_label_2
_geom_bond_site_symmetry_1
_geom_bond_site_symmetry_2
O9 Co1 1_555 1_555
O11 Co1 1_555 1_555
N5 Co1 1_555 1_555
O1 C25 1_555 1_555
O2 C25 1_555 1_555
O9 C26 1_555 1_555
O5 C27 1_555 1_555
C13 C14 1_555 1_555
C14 H12 1_555 1_555
C15 C14 1_555 1_555
C16 C15 1_555 1_555
H13 C16 1_555 1_555
C17 C16 1_555 1_555
C18 C13 1_555 1_555
H14 C18 1_555 1_555
C19 C17 1_555 1_555
C20 C19 1_555 1_555
C21 C20 1_555 1_555
C22 C21 1_555 1_555
C23 C22 1_555 1_555
H17 C23 1_555 1_555
C24 C19 1_555 1_555
H18 C24 1_555 1_555
C25 C15 1_555 1_555
C26 C13 1_555 1_555
C27 C22 1_555 1_555
Co7 O5 1_555 1_555
C17 C18 1_555 1_555
C23 C24 1_555 1_555
Co8 O3 1_555 1_555
N5 C11 1_555 1_555
H7 C8 1_555 1_555
H8 C9 1_555 1_555
C10 N3 1_555 1_555
H9 C10 1_555 1_555
C11 C10 1_555 1_555
H10 C11 1_555 1_555
C8 C9 1_555 1_555
N1 Co2 1_555 1_555
N2 C2 1_555 1_555
C1 N1 1_555 1_555
C2 C1 1_555 1_555
C3 N1 1_555 1_555
H4 C3 1_555 1_555
C4 N2 1_555 1_555
C5 C4 1_555 1_555
H5 C5 1_555 1_555
C6 C5 1_555 1_555
H6 C6 1_555 1_555
C7 C6 1_555 1_555
H11 C12 1_555 1_555
Co5 O6 1_555 1_555
O8 Co2 1_555 1_555
O10 Co2 1_555 1_555
Co2 O7 1_555 1_555
N2 C3 1_555 1_555
H1_2 O7_2 1_555 1_555
N1_2 Co7 1_555 1_555
N2_2 C2_2 1_555 1_555
N3_2 C7_2 1_555 1_555
N4 C11_2 1_555 1_555
C1_2 N1_2 1_555 1_555
H2_2 C1_2 1_555 1_555
C2_2 C1_2 1_555 1_555
H3_2 C2_2 1_555 1_555
C3_2 N1_2 1_555 1_555
H4_2 C3_2 1_555 1_555
C4_2 N2_2 1_555 1_555
C5_2 C4_2 1_555 1_555
H5_2 C5_2 1_555 1_555
C6_2 C5_2 1_555 1_555
H6_2 C6_2 1_555 1_555
C7_2 C6_2 1_555 1_555
C8_2 C7_2 1_555 1_555
H7_2 C8_2 1_555 1_555
C9_2 C4_2 1_555 1_555
H8_2 C9_2 1_555 1_555
C10_2 N3_2 1_555 1_555
H9_2 C10_2 1_555 1_555
C11_2 C10_2 1_555 1_555
H10_2 C11_2 1_555 1_555
C12_2 N3_2 1_555 1_555
H11_2 C12_2 1_555 1_555
Co5 N4 1_555 1_555
Co6_2 O7_2 1_555 1_555
O8_2 Co7 1_555 1_555
Co7 O7_2 1_555 1_555
N2_2 C3_2 1_555 1_555
N4 C12_2 1_555 1_555
C8_2 C9_2 1_555 1_555
Co5 O1_2 1_555 1_555
O1_2 C25_2 1_555 1_555
O2_2 C25_2 1_555 1_555
C14_2 H12_2 1_555 1_555
C15_2 C14_2 1_555 1_555
C16_2 C15_2 1_555 1_555
H13_2 C16_2 1_555 1_555
C17_2 C16_2 1_555 1_555
C19_2 C17_2 1_555 1_555
C20_2 C19_2 1_555 1_555
C21_2 C20_2 1_555 1_555
C25_2 C15_2 1_555 1_555
O9_2 Co5 1_555 1_555
O12_2 Co5 1_555 1_555
O3_2 C26_2 1_555 1_555
O9_2 C26_2 1_555 1_555
O10 C27_2 1_555 1_555
C18_2 C13_2 1_555 1_555
H14_2 C18_2 1_555 1_555
C23_2 C22_2 1_555 1_555
H17_2 C23_2 1_555 1_555
H18_2 C24_2 1_555 1_555
C26_2 C13_2 1_555 1_555
C27_2 C22_2 1_555 1_555
Co8_2 O3_2 1_555 1_555
C23_2 C24_2 1_555 1_555
N1_3 Co8 1_555 1_555
N2_3 C2_3 1_555 1_555
C1_3 N1_3 1_555 1_555
C2_3 C1_3 1_555 1_555
C3_3 N1_3 1_555 1_555
H4_3 C3_3 1_555 1_555
C4_3 N2_3 1_555 1_555
C5_3 C4_3 1_555 1_555
H5_3 C5_3 1_555 1_555
C6_3 C5_3 1_555 1_555
H6_3 C6_3 1_555 1_555
C7_3 C6_3 1_555 1_555
H11_3 C12_3 1_555 1_555
Co6_2 O6_2 1_555 1_555
O10_2 Co8 1_555 1_555
Co8 O12 1_555 1_555
N2_3 C3_3 1_555 1_555
N4_2 C11_3 1_555 1_555
H7_3 C8_3 1_555 1_555
H8_3 C9_3 1_555 1_555
C10_3 N3_3 1_555 1_555
H9_3 C10_3 1_555 1_555
C11_3 C10_3 1_555 1_555
H10_3 C11_3 1_555 1_555
Co6 N4_2 1_555 1_555
C8_3 C9_3 1_555 1_555
O1_3 C25_3 1_555 1_555
O2_3 C25_3 1_555 1_555
O4 C26_3 1_555 1_555
O5_2 C27_3 1_555 1_555
C13_3 C14_3 1_555 1_555
C14_3 H12_3 1_555 1_555
C15_3 C14_3 1_555 1_555
C16_3 C15_3 1_555 1_555
H13_3 C16_3 1_555 1_555
C17_3 C16_3 1_555 1_555
C18_3 C13_3 1_555 1_555
H14_3 C18_3 1_555 1_555
C19_3 C17_3 1_555 1_555
C20_3 C19_3 1_555 1_555
C21_3 C20_3 1_555 1_555
C22_3 C21_3 1_555 1_555
C23_3 C22_3 1_555 1_555
H17_3 C23_3 1_555 1_555
C24_3 C19_3 1_555 1_555
H18_3 C24_3 1_555 1_555
C25_3 C15_3 1_555 1_555
C26_3 C13_3 1_555 1_555
C27_3 C22_3 1_555 1_555
Co6 O4 1_555 1_555
Co8_2 O5_2 1_555 1_555
C17_3 C18_3 1_555 1_555
C23_3 C24_3 1_555 1_555
O11_2 Co6 1_555 1_555
O8_2 C26_4 1_555 1_555
O4_2 C26_4 1_555 1_555
O10_2 C27_4 1_555 1_555
C18_4 C13_4 1_555 1_555
H14_4 C18_4 1_555 1_555
C23_4 C22_4 1_555 1_555
H17_4 C23_4 1_555 1_555
H18_4 C24_4 1_555 1_555
C26_4 C13_4 1_555 1_555
C27_4 C22_4 1_555 1_555
Co6_2 O4_2 1_555 1_555
C23_4 C24_4 1_555 1_555
Co6_2 O1_4 1_555 1_555
O1_4 C25_4 1_555 1_555
O2_4 C25_4 1_555 1_555
C14_4 H12_4 1_555 1_555
C15_4 C14_4 1_555 1_555
C16_4 C15_4 1_555 1_555
H13_4 C16_4 1_555 1_555
C17_4 C16_4 1_555 1_555
C19_4 C17_4 1_555 1_555
C20_4 C19_4 1_555 1_555
C21_4 C20_4 1_555 1_555
C25_4 C15_4 1_555 1_555
N5_2 Co6_2 1_555 1_555
H1_4 O12_2 1_555 1_555
N1_4 Co8_2 1_555 1_555
N2_4 C2_4 1_555 1_555
N3_4 C7_4 1_555 1_555
N5_2 C11_4 1_555 1_555
C1_4 N1_4 1_555 1_555
H2_4 C1_4 1_555 1_555
C2_4 C1_4 1_555 1_555
H3_4 C2_4 1_555 1_555
C3_4 N1_4 1_555 1_555
H4_4 C3_4 1_555 1_555
C4_4 N2_4 1_555 1_555
C5_4 C4_4 1_555 1_555
H5_4 C5_4 1_555 1_555
C6_4 C5_4 1_555 1_555
H6_4 C6_4 1_555 1_555
C7_4 C6_4 1_555 1_555
C8_4 C7_4 1_555 1_555
H7_4 C8_4 1_555 1_555
C9_4 C4_4 1_555 1_555
H8_4 C9_4 1_555 1_555
C10_4 N3_4 1_555 1_555
H9_4 C10_4 1_555 1_555
C11_4 C10_4 1_555 1_555
H10_4 C11_4 1_555 1_555
C12_4 N3_4 1_555 1_555
H11_4 C12_4 1_555 1_555
Co8_2 O12_2 1_555 1_555
N2_4 C3_4 1_555 1_555
N5_2 C12_4 1_555 1_555
C8_4 C9_4 1_555 1_555

#END
