
###############################################################################
#
# This file contains modified crystal structure data generated from the
# MOF subset of the Cambridge Structural Database (CSD) v543 
# hosted by the Cambridge Crystallographic Data Centre (CCDC).
#
# This work is licensed under the Creative Commons
# Attribution-NonCommercial-ShareAlike 4.0 International License.
# To view a copy of this license, visit
# http://creativecommons.org/licenses/by-nc-sa/4.0/
# or send a letter to
# Creative Commons, PO Box 1866, Mountain View, CA 94042, USA.
#
# CIF created using the CSD Python API on 29 September 2022
# The structure has been converted into the P1 space group
# The structure has a 3D framework
# The original CSD entry BORLIG is in the monoclinic crystal system
# The framework has been calculated to contain at least 10.0% void space
# The void calculation uses a probe of radius 1.32A, grid spacing 0.4
#
###############################################################################

data_BORLIG
_chemical_formula_moiety         '(C56 H32 N24 O24 Zn9)n'
_symmetry_cell_setting           triclinic
_symmetry_space_group_name_H-M   'P 1'
_symmetry_Int_Tables_number      1
_space_group_name_Hall           'P 1'
loop_
_symmetry_equiv_pos_site_id
_symmetry_equiv_pos_as_xyz
1 x,y,z
_cell_length_a                   18.94(3)
_cell_length_b                   10.098(16)
_cell_length_c                   10.957(17)
_cell_angle_alpha                90
_cell_angle_beta                 90.71(4)
_cell_angle_gamma                90
_cell_volume                     2095.43
loop_
_atom_site_label
_atom_site_type_symbol
_atom_site_fract_x
_atom_site_fract_y
_atom_site_fract_z
N5 N 0.1217(17) 0.036(3) 0.640(3)
O4 O 0.0149(15) 0.107(2) 0.432(2)
N7 N 0.0837(16) 0.028(3) 0.743(3)
H5 H 0.044539 0.150351 0.473395
Zn8 Zn 0.0764(2) 0.0591(4) 0.9960(4)
Zn3 Zn 0.4236(2) 0.4409(4) 0.0040(4)
Zn1 Zn 0.4236(2) 0.5591(4) 0.5040(4)
N1 N 0.3790(16) 0.565(3) 0.663(3)
N2 N 0.4163(16) 0.528(3) 0.757(3)
C1 C 0.315(2) 0.611(4) 0.706(3)
Zn2 Zn 0.500000 0.3745(6) 0.750000
N3 N 0.3783(17) 0.536(3) 0.860(3)
C2 C 0.315(2) 0.588(4) 0.835(4)
C3 C 0.252(2) 0.652(4) 0.653(4)
C4 C 0.259(2) 0.617(4) 0.904(4)
C5 C 0.195(2) 0.679(4) 0.722(4)
H1 H 0.248129 0.662049 0.566409
C6 C 0.200(2) 0.656(4) 0.839(4)
H2 H 0.259603 0.610617 0.990355
C7 C 0.128(2) 0.728(4) 0.664(4)
H3 H 0.158354 0.667502 0.884827
O1 O 0.1315(13) 0.771(2) 0.557(2)
O2 O 0.0764(13) 0.736(2) 0.735(2)
N4 N 0.1210(16) 0.935(3) 0.337(3)
Zn4 Zn 0.0764(2) 0.9409(4) 0.4960(4)
Zn5 Zn 0.000000 0.8745(6) 0.750000
O6 O 0.0149(15) 0.893(2) 0.932(2)
H6 H 0.044539 0.849649 0.973395
O8 O 0.9851(15) 0.107(2) 0.068(2)
H7 H 0.955461 0.150351 0.026605
N6 N 0.9163(16) 0.028(3) 0.757(3)
Zn6 Zn 0.9236(2) 0.0591(4) 0.5040(4)
N8 N 0.8783(17) 0.036(3) 0.860(3)
N9 N 0.8790(16) 0.065(3) 0.663(3)
C8 C 0.815(2) 0.088(4) 0.835(4)
C9 C 0.815(2) 0.111(4) 0.706(3)
C10 C 0.759(2) 0.117(4) 0.904(4)
C11 C 0.752(2) 0.152(4) 0.653(4)
C12 C 0.700(2) 0.156(4) 0.839(4)
H8 H 0.759603 0.110617 0.990355
C13 C 0.695(2) 0.179(4) 0.722(4)
H9 H 0.748129 0.162049 0.566409
H10 H 0.658354 0.167502 0.884827
C14 C 0.628(2) 0.228(4) 0.664(4)
O9 O 0.6315(13) 0.271(2) 0.557(2)
O10 O 0.5764(13) 0.236(2) 0.735(2)
Zn9 Zn 0.5764(2) 0.4409(4) 0.4960(4)
Zn7 Zn 0.9236(2) 0.9409(4) 0.0040(4)
N10 N 0.8790(16) 0.935(3) 0.163(3)
O3 O 0.9851(15) 0.893(2) 0.568(2)
H4 H 0.955461 0.849649 0.526605
Zn5_2 Zn 1.000000 0.8745(6) 0.750000
O5 O 0.9236(13) 0.736(2) 0.765(2)
O7 O 0.8685(13) 0.771(2) 0.943(2)
N9_2 N 0.1210(16) 0.065(3) 0.837(3)
C8_2 C 0.185(2) 0.088(4) 0.665(4)
C9_2 C 0.185(2) 0.111(4) 0.794(3)
C10_2 C 0.241(2) 0.117(4) 0.596(4)
C11_2 C 0.248(2) 0.152(4) 0.847(4)
C12_2 C 0.300(2) 0.156(4) 0.661(4)
H8_2 H 0.240397 0.110617 0.509645
C13_2 C 0.305(2) 0.179(4) 0.778(4)
H9_2 H 0.251871 0.162049 0.933591
H10_2 H 0.341646 0.167502 0.615173
C14_2 C 0.372(2) 0.228(4) 0.836(4)
O9_2 O 0.3685(13) 0.271(2) 0.943(2)
O10_2 O 0.4236(13) 0.236(2) 0.765(2)
Zn1_2 Zn 0.5764(2) 0.5591(4) 0.9960(4)
N1_2 N 0.6210(16) 0.565(3) 0.837(3)
N2_2 N 0.5837(16) 0.528(3) 0.743(3)
C1_2 C 0.685(2) 0.611(4) 0.794(3)
N3_2 N 0.6217(17) 0.536(3) 0.640(3)
C2_2 C 0.685(2) 0.588(4) 0.665(4)
C3_2 C 0.748(2) 0.652(4) 0.847(4)
C4_2 C 0.741(2) 0.617(4) 0.596(4)
C5_2 C 0.805(2) 0.679(4) 0.778(4)
H1_2 H 0.751871 0.662049 0.933591
C6_2 C 0.800(2) 0.656(4) 0.661(4)
H2_2 H 0.740397 0.610617 0.509645
C7_2 C 0.872(2) 0.728(4) 0.836(4)
H3_2 H 0.841646 0.667502 0.615173
N10_2 N 0.3790(16) 0.435(3) 0.163(3)
O8_2 O 0.4851(15) 0.607(2) 0.068(2)
H7_2 H 0.455461 0.650351 0.026605
O3_2 O 0.4851(15) 0.393(2) 0.568(2)
H4_2 H 0.455461 0.349649 0.526605
N4_2 N 0.6210(16) 0.435(3) 0.337(3)
O4_2 O 0.5149(15) 0.607(2) 0.432(2)
O6_2 O 0.5149(15) 0.393(2) 0.932(2)
H5_2 H 0.544539 0.650351 0.473395
H6_2 H 0.544539 0.349649 0.973395
Zn5_3 Zn 0.000000 0.1255(6) 0.250000
O5_2 O 0.0764(13) 0.264(2) 0.235(2)
O7_2 O 0.1315(13) 0.229(2) 0.057(2)
N6_2 N 0.0837(16) 0.972(3) 0.243(3)
N8_2 N 0.1217(17) 0.964(3) 0.140(3)
C8_3 C 0.185(2) 0.912(4) 0.165(4)
C9_3 C 0.185(2) 0.889(4) 0.294(3)
C10_3 C 0.241(2) 0.883(4) 0.096(4)
C11_3 C 0.248(2) 0.848(4) 0.347(4)
C12_3 C 0.300(2) 0.844(4) 0.161(4)
H8_3 H 0.240397 0.889383 0.009645
C13_3 C 0.305(2) 0.821(4) 0.278(4)
H9_3 H 0.251871 0.837951 0.433591
H10_3 H 0.341646 0.832498 0.115173
C14_3 C 0.372(2) 0.772(4) 0.336(4)
O9_3 O 0.3685(13) 0.729(2) 0.443(2)
O10_3 O 0.4236(13) 0.764(2) 0.265(2)
Zn10 Zn 0.500000 0.6255(6) 0.250000
N2_3 N 0.5837(16) 0.472(3) 0.243(3)
C1_3 C 0.685(2) 0.389(4) 0.294(3)
N3_3 N 0.6217(17) 0.464(3) 0.140(3)
C2_3 C 0.685(2) 0.412(4) 0.165(4)
C3_3 C 0.748(2) 0.348(4) 0.347(4)
C4_3 C 0.741(2) 0.383(4) 0.096(4)
C5_3 C 0.805(2) 0.321(4) 0.278(4)
H1_3 H 0.751871 0.337951 0.433591
C6_3 C 0.800(2) 0.344(4) 0.161(4)
H2_3 H 0.740397 0.389383 0.009645
C7_3 C 0.872(2) 0.272(4) 0.336(4)
H3_3 H 0.841646 0.332498 0.115173
O1_2 O 0.8685(13) 0.229(2) 0.443(2)
O2_2 O 0.9236(13) 0.264(2) 0.265(2)
Zn5_4 Zn 1.000000 0.1255(6) 0.250000
N5_2 N 0.8783(17) 0.964(3) 0.360(3)
N7_2 N 0.9163(16) 0.972(3) 0.257(3)
N2_4 N 0.4163(16) 0.472(3) 0.257(3)
C1_4 C 0.315(2) 0.389(4) 0.206(3)
N3_4 N 0.3783(17) 0.464(3) 0.360(3)
C2_4 C 0.315(2) 0.412(4) 0.335(4)
C3_4 C 0.252(2) 0.348(4) 0.153(4)
C4_4 C 0.259(2) 0.383(4) 0.404(4)
C5_4 C 0.195(2) 0.321(4) 0.222(4)
H1_4 H 0.248129 0.337951 0.066409
C6_4 C 0.200(2) 0.344(4) 0.339(4)
H2_4 H 0.259603 0.389383 0.490355
C7_4 C 0.128(2) 0.272(4) 0.164(4)
H3_4 H 0.158354 0.332498 0.384827
C8_4 C 0.815(2) 0.912(4) 0.335(4)
C9_4 C 0.815(2) 0.889(4) 0.206(3)
C10_4 C 0.759(2) 0.883(4) 0.404(4)
C11_4 C 0.752(2) 0.848(4) 0.153(4)
C12_4 C 0.700(2) 0.844(4) 0.339(4)
H8_4 H 0.759603 0.889383 0.490355
C13_4 C 0.695(2) 0.821(4) 0.222(4)
H9_4 H 0.748129 0.837951 0.066409
H10_4 H 0.658354 0.832498 0.384827
C14_4 C 0.628(2) 0.772(4) 0.164(4)
O9_4 O 0.6315(13) 0.729(2) 0.057(2)
O10_4 O 0.5764(13) 0.764(2) 0.235(2)
loop_
_geom_bond_atom_site_label_1
_geom_bond_atom_site_label_2
_geom_bond_site_symmetry_1
_geom_bond_site_symmetry_2
H5 O4 1_555 1_555
N5 N7 1_555 1_555
Zn1 N1 1_555 1_555
N1 N2 1_555 1_555
N2 Zn2 1_555 1_555
C1 N1 1_555 1_555
N3 N2 1_555 1_555
C2 C1 1_555 1_555
C3 C1 1_555 1_555
C4 C2 1_555 1_555
C5 C3 1_555 1_555
H1 C3 1_555 1_555
C6 C4 1_555 1_555
H2 C4 1_555 1_555
C7 C5 1_555 1_555
H3 C6 1_555 1_555
O1 C7 1_555 1_555
O2 C7 1_555 1_555
N4 Zn4 1_555 1_555
Zn4 O1 1_555 1_555
Zn5 O2 1_555 1_555
O6 Zn5 1_555 1_555
H6 O6 1_555 1_555
N3 C2 1_555 1_555
C5 C6 1_555 1_555
H7 O8 1_555 1_555
N8 N6 1_555 1_555
N9 N6 1_555 1_555
C8 N8 1_555 1_555
C9 N9 1_555 1_555
C10 C8 1_555 1_555
C11 C9 1_555 1_555
C12 C10 1_555 1_555
H8 C10 1_555 1_555
C13 C11 1_555 1_555
H9 C11 1_555 1_555
H10 C12 1_555 1_555
C14 C13 1_555 1_555
O9 C14 1_555 1_555
O10 C14 1_555 1_555
Zn9 O9 1_555 1_555
Zn2 O10 1_555 1_555
Zn6 N9 1_555 1_555
C8 C9 1_555 1_555
C12 C13 1_555 1_555
N10 Zn7 1_555 1_555
O3 H4 1_555 1_555
O5 Zn5_2 1_555 1_555
O3 Zn5_2 1_555 1_555
N9_2 N7 1_555 1_555
C8_2 N5 1_555 1_555
C9_2 N9_2 1_555 1_555
C10_2 C8_2 1_555 1_555
C11_2 C9_2 1_555 1_555
C12_2 C10_2 1_555 1_555
H8_2 C10_2 1_555 1_555
C13_2 C11_2 1_555 1_555
H9_2 C11_2 1_555 1_555
H10_2 C12_2 1_555 1_555
C14_2 C13_2 1_555 1_555
O9_2 C14_2 1_555 1_555
O10_2 C14_2 1_555 1_555
Zn2 O10_2 1_555 1_555
Zn8 N9_2 1_555 1_555
C8_2 C9_2 1_555 1_555
C12_2 C13_2 1_555 1_555
Zn1_2 N1_2 1_555 1_555
N1_2 N2_2 1_555 1_555
N2_2 Zn2 1_555 1_555
C1_2 N1_2 1_555 1_555
N3_2 N2_2 1_555 1_555
C2_2 C1_2 1_555 1_555
C3_2 C1_2 1_555 1_555
C4_2 C2_2 1_555 1_555
C5_2 C3_2 1_555 1_555
H1_2 C3_2 1_555 1_555
C6_2 C4_2 1_555 1_555
H2_2 C4_2 1_555 1_555
C7_2 C5_2 1_555 1_555
H3_2 C6_2 1_555 1_555
O7 C7_2 1_555 1_555
O5 C7_2 1_555 1_555
Zn9 N3_2 1_555 1_555
N3_2 C2_2 1_555 1_555
C5_2 C6_2 1_555 1_555
N10_2 Zn3 1_555 1_555
O8_2 Zn3 1_555 1_555
H7_2 O8_2 1_555 1_555
O3_2 H4_2 1_555 1_555
N4_2 Zn9 1_555 1_555
O4_2 Zn9 1_555 1_555
O6_2 Zn2 1_555 1_555
Zn1 O3_2 1_555 1_555
H5_2 O4_2 1_555 1_555
H6_2 O6_2 1_555 1_555
Zn1_2 O6_2 1_555 1_555
O3_2 Zn9 1_555 1_555
O3_2 Zn2 1_555 1_555
O4_2 Zn1 1_555 1_555
O5_2 Zn5_3 1_555 1_555
O4 Zn5_3 1_555 1_555
N8_2 N6_2 1_555 1_555
N4 N6_2 1_555 1_555
C8_3 N8_2 1_555 1_555
C9_3 N4 1_555 1_555
C10_3 C8_3 1_555 1_555
C11_3 C9_3 1_555 1_555
C12_3 C10_3 1_555 1_555
H8_3 C10_3 1_555 1_555
C13_3 C11_3 1_555 1_555
H9_3 C11_3 1_555 1_555
H10_3 C12_3 1_555 1_555
C14_3 C13_3 1_555 1_555
O9_3 C14_3 1_555 1_555
O10_3 C14_3 1_555 1_555
Zn1 O9_3 1_555 1_555
Zn10 O10_3 1_555 1_555
C8_3 C9_3 1_555 1_555
C12_3 C13_3 1_555 1_555
N4_2 N2_3 1_555 1_555
N2_3 Zn10 1_555 1_555
C1_3 N4_2 1_555 1_555
N3_3 N2_3 1_555 1_555
C2_3 C1_3 1_555 1_555
C3_3 C1_3 1_555 1_555
C4_3 C2_3 1_555 1_555
C5_3 C3_3 1_555 1_555
H1_3 C3_3 1_555 1_555
C6_3 C4_3 1_555 1_555
H2_3 C4_3 1_555 1_555
C7_3 C5_3 1_555 1_555
H3_3 C6_3 1_555 1_555
O1_2 C7_3 1_555 1_555
O2_2 C7_3 1_555 1_555
Zn6 O1_2 1_555 1_555
Zn5_4 O2_2 1_555 1_555
O8 Zn5_4 1_555 1_555
N3_3 C2_3 1_555 1_555
C5_3 C6_3 1_555 1_555
N5_2 N7_2 1_555 1_555
N10_2 N2_4 1_555 1_555
N2_4 Zn10 1_555 1_555
C1_4 N10_2 1_555 1_555
N3_4 N2_4 1_555 1_555
C2_4 C1_4 1_555 1_555
C3_4 C1_4 1_555 1_555
C4_4 C2_4 1_555 1_555
C5_4 C3_4 1_555 1_555
H1_4 C3_4 1_555 1_555
C6_4 C4_4 1_555 1_555
H2_4 C4_4 1_555 1_555
C7_4 C5_4 1_555 1_555
H3_4 C6_4 1_555 1_555
O7_2 C7_4 1_555 1_555
O5_2 C7_4 1_555 1_555
Zn1 N3_4 1_555 1_555
N3_4 C2_4 1_555 1_555
C5_4 C6_4 1_555 1_555
N10 N7_2 1_555 1_555
C8_4 N5_2 1_555 1_555
C9_4 N10 1_555 1_555
C10_4 C8_4 1_555 1_555
C11_4 C9_4 1_555 1_555
C12_4 C10_4 1_555 1_555
H8_4 C10_4 1_555 1_555
C13_4 C11_4 1_555 1_555
H9_4 C11_4 1_555 1_555
H10_4 C12_4 1_555 1_555
C14_4 C13_4 1_555 1_555
O9_4 C14_4 1_555 1_555
O10_4 C14_4 1_555 1_555
Zn10 O10_4 1_555 1_555
C8_4 C9_4 1_555 1_555
C12_4 C13_4 1_555 1_555
O8_2 Zn10 1_555 1_555
O4_2 Zn10 1_555 1_555

#END
