
###############################################################################
#
# This file contains modified crystal structure data generated from the
# MOF subset of the Cambridge Structural Database (CSD) v543 
# hosted by the Cambridge Crystallographic Data Centre (CCDC).
#
# This work is licensed under the Creative Commons
# Attribution-NonCommercial-ShareAlike 4.0 International License.
# To view a copy of this license, visit
# http://creativecommons.org/licenses/by-nc-sa/4.0/
# or send a letter to
# Creative Commons, PO Box 1866, Mountain View, CA 94042, USA.
#
# CIF created using the CSD Python API on 29 September 2022
# The structure has been converted into the P1 space group
# The structure has a 3D framework
# The original CSD entry BORLUS is in the monoclinic crystal system
# The framework has been calculated to contain at least 10.0% void space
# The void calculation uses a probe of radius 1.32A, grid spacing 0.4
#
###############################################################################

data_BORLUS
_chemical_formula_moiety         '(C56 H32 N24 O24 Zn10)n'
_symmetry_cell_setting           triclinic
_symmetry_space_group_name_H-M   'P 1'
_symmetry_Int_Tables_number      1
_space_group_name_Hall           'P 1'
loop_
_symmetry_equiv_pos_site_id
_symmetry_equiv_pos_as_xyz
1 x,y,z
_cell_length_a                   17.7182(14)
_cell_length_b                   13.0967(12)
_cell_length_c                   11.0610(10)
_cell_angle_alpha                90
_cell_angle_beta                 94.014(4)
_cell_angle_gamma                90
_cell_volume                     2560.41
loop_
_atom_site_label
_atom_site_type_symbol
_atom_site_fract_x
_atom_site_fract_y
_atom_site_fract_z
Zn5 Zn 0.000000 0.90081(7) 0.250000
Zn1 Zn 0.500000 0.40081(7) 0.250000
O1 O 0.8598(2) 0.8161(3) 0.4339(3)
O2 O 0.9174(2) 0.7933(3) 0.2613(3)
O3 O 0.4822(2) 0.4167(3) 0.0650(3)
H1 H 0.468(4) 0.365(5) 0.036(6)
N1 N 0.6283(2) 0.5640(4) 0.3413(4)
N2 N 0.5923(2) 0.5169(4) 0.2474(4)
N3 N 0.6274(2) 0.5298(4) 0.1465(4)
C1 C 0.8026(3) 0.7088(5) 0.2809(5)
C2 C 0.7489(3) 0.6713(5) 0.3537(5)
H2 H 0.750921 0.686590 0.437774
C3 C 0.6912(3) 0.6096(4) 0.2992(5)
C4 C 0.6893(3) 0.5871(4) 0.1749(5)
C5 C 0.7445(3) 0.6258(5) 0.1003(5)
H3 H 0.742625 0.611770 0.015913
C6 C 0.8002(3) 0.6839(5) 0.1551(5)
H4 H 0.839054 0.709024 0.108090
C7 C 0.8650(3) 0.7777(5) 0.3306(5)
Zn3 Zn 0.58099(3) 0.55059(5) 0.50205(5)
O4 O 0.1402(2) 0.8161(3) 0.0661(3)
O5 O 0.0826(2) 0.7933(3) 0.2387(3)
O6 O 0.5178(2) 0.4167(3) 0.4350(3)
H5 H 0.532(4) 0.365(5) 0.464(6)
N4 N 0.3717(2) 0.5640(4) 0.1587(4)
N5 N 0.4077(2) 0.5169(4) 0.2526(4)
N6 N 0.3726(2) 0.5298(4) 0.3535(4)
C8 C 0.1974(3) 0.7088(5) 0.2191(5)
C9 C 0.2511(3) 0.6713(5) 0.1463(5)
H6 H 0.249079 0.686590 0.062226
C10 C 0.3088(3) 0.6096(4) 0.2008(5)
C11 C 0.3107(3) 0.5871(4) 0.3251(5)
C12 C 0.2555(3) 0.6258(5) 0.3997(5)
H7 H 0.257375 0.611770 0.484087
C13 C 0.1998(3) 0.6839(5) 0.3449(5)
H8 H 0.160946 0.709024 0.391910
C14 C 0.1350(3) 0.7777(5) 0.1694(5)
Zn5_2 Zn 1.000000 0.90081(7) 0.250000
Zn6 Zn 0.58099(3) 0.44941(5) 0.00205(5)
Zn7 Zn 0.41901(3) 0.44941(5) 0.49795(5)
Zn8 Zn 0.08099(3) 0.94941(5) 0.00205(5)
Zn9 Zn 0.91901(3) 0.94941(5) 0.49795(5)
O7 O 0.6402(2) 0.6839(3) 0.5661(3)
O9 O 0.4174(2) 0.2933(3) 0.2613(3)
O10 O 0.5826(2) 0.2933(3) 0.2387(3)
O12 O 0.4822(2) 0.5833(3) 0.5650(3)
N8 N 0.6274(2) 0.4702(4) 0.6465(4)
Zn2 Zn 0.41901(3) 0.55059(5) 0.99795(5)
O8 O 0.3598(2) 0.6839(3) 0.9339(3)
O11 O 0.5178(2) 0.5833(3) 0.9350(3)
N7 N 0.3726(2) 0.4702(4) 0.8535(4)
O1_2 O 0.3598(2) 0.3161(3) 0.4339(3)
N1_2 N 0.1283(2) 0.0640(4) 0.3413(4)
N2_2 N 0.0923(2) 0.0169(4) 0.2474(4)
N3_2 N 0.1274(2) 0.0298(4) 0.1465(4)
C1_2 C 0.3026(3) 0.2088(5) 0.2809(5)
C2_2 C 0.2489(3) 0.1713(5) 0.3537(5)
H2_2 H 0.250921 0.186590 0.437774
C3_2 C 0.1912(3) 0.1096(4) 0.2992(5)
C4_2 C 0.1893(3) 0.0871(4) 0.1749(5)
C5_2 C 0.2445(3) 0.1258(5) 0.1003(5)
H3_2 H 0.242625 0.111770 0.015913
C6_2 C 0.3002(3) 0.1839(5) 0.1551(5)
H4_2 H 0.339054 0.209024 0.108090
C7_2 C 0.3650(3) 0.2777(5) 0.3306(5)
Zn3_2 Zn 0.08099(3) 0.05059(5) 0.50205(5)
O7_2 O 0.1402(2) 0.1839(3) 0.5661(3)
O11_2 O 0.0178(2) 0.0833(3) 0.9350(3)
O6_2 O 0.0178(2) 0.9167(3) 0.4350(3)
H5_2 H 0.032(4) 0.865(5) 0.464(6)
N8_2 N 0.1274(2) 0.9702(4) 0.6465(4)
O4_2 O 0.6402(2) 0.3161(3) 0.0661(3)
N4_2 N 0.8717(2) 0.0640(4) 0.1587(4)
N5_2 N 0.9077(2) 0.0169(4) 0.2526(4)
N6_2 N 0.8726(2) 0.0298(4) 0.3535(4)
C8_2 C 0.6974(3) 0.2088(5) 0.2191(5)
C9_2 C 0.7511(3) 0.1713(5) 0.1463(5)
H6_2 H 0.749079 0.186590 0.062226
C10_2 C 0.8088(3) 0.1096(4) 0.2008(5)
C11_2 C 0.8107(3) 0.0871(4) 0.3251(5)
C12_2 C 0.7555(3) 0.1258(5) 0.3997(5)
H7_2 H 0.757375 0.111770 0.484087
C13_2 C 0.6998(3) 0.1839(5) 0.3449(5)
H8_2 H 0.660946 0.209024 0.391910
C14_2 C 0.6350(3) 0.2777(5) 0.1694(5)
O12_2 O 0.9822(2) 0.0833(3) 0.5650(3)
Zn2_2 Zn 0.91901(3) 0.05059(5) 0.99795(5)
O8_2 O 0.8598(2) 0.1839(3) 0.9339(3)
O3_2 O 0.9822(2) 0.9167(3) 0.0650(3)
H1_2 H 0.968(4) 0.865(5) 0.036(6)
N7_2 N 0.8726(2) 0.9702(4) 0.8535(4)
Zn4 Zn 0.000000 0.09919(7) 0.750000
Zn1_2 Zn 0.500000 0.59919(7) 0.750000
O2_2 O 0.0826(2) 0.2067(3) 0.7387(3)
H1_3 H 0.532(4) 0.635(5) 0.964(6)
N1_3 N 0.3717(2) 0.4360(4) 0.6587(4)
N2_3 N 0.4077(2) 0.4831(4) 0.7526(4)
C1_3 C 0.1974(3) 0.2912(5) 0.7191(5)
C2_3 C 0.2511(3) 0.3287(5) 0.6463(5)
H2_3 H 0.249079 0.313410 0.562226
C3_3 C 0.3088(3) 0.3904(4) 0.7008(5)
C4_3 C 0.3107(3) 0.4129(4) 0.8251(5)
C5_3 C 0.2555(3) 0.3742(5) 0.8997(5)
H3_3 H 0.257375 0.388230 0.984087
C6_3 C 0.1998(3) 0.3161(5) 0.8449(5)
H4_3 H 0.160946 0.290976 0.891910
C7_3 C 0.1350(3) 0.2223(5) 0.6694(5)
O5_2 O 0.9174(2) 0.2067(3) 0.7613(3)
H5_3 H 0.468(4) 0.635(5) 0.536(6)
N4_3 N 0.6283(2) 0.4360(4) 0.8413(4)
N5_3 N 0.5923(2) 0.4831(4) 0.7474(4)
C8_3 C 0.8026(3) 0.2912(5) 0.7809(5)
C9_3 C 0.7489(3) 0.3287(5) 0.8537(5)
H6_3 H 0.750921 0.313410 0.937774
C10_3 C 0.6912(3) 0.3904(4) 0.7992(5)
C11_3 C 0.6893(3) 0.4129(4) 0.6749(5)
C12_3 C 0.7445(3) 0.3742(5) 0.6003(5)
H7_3 H 0.742625 0.388230 0.515913
C13_3 C 0.8002(3) 0.3161(5) 0.6551(5)
H8_3 H 0.839054 0.290976 0.608090
C14_3 C 0.8650(3) 0.2223(5) 0.8306(5)
Zn4_2 Zn 1.000000 0.09919(7) 0.750000
O9_2 O 0.5826(2) 0.7067(3) 0.7387(3)
O10_2 O 0.4174(2) 0.7067(3) 0.7613(3)
H1_4 H 0.032(4) 0.135(5) 0.964(6)
N4_4 N 0.1283(2) 0.9360(4) 0.8413(4)
N5_4 N 0.0923(2) 0.9831(4) 0.7474(4)
C8_4 C 0.3026(3) 0.7912(5) 0.7809(5)
C9_4 C 0.2489(3) 0.8287(5) 0.8537(5)
H6_4 H 0.250921 0.813410 0.937774
C10_4 C 0.1912(3) 0.8904(4) 0.7992(5)
C11_4 C 0.1893(3) 0.9129(4) 0.6749(5)
C12_4 C 0.2445(3) 0.8742(5) 0.6003(5)
H7_4 H 0.242625 0.888230 0.515913
C13_4 C 0.3002(3) 0.8161(5) 0.6551(5)
H8_4 H 0.339054 0.790976 0.608090
C14_4 C 0.3650(3) 0.7223(5) 0.8306(5)
H5_4 H 0.968(4) 0.135(5) 0.536(6)
N1_4 N 0.8717(2) 0.9360(4) 0.6587(4)
N2_4 N 0.9077(2) 0.9831(4) 0.7526(4)
C1_4 C 0.6974(3) 0.7912(5) 0.7191(5)
C2_4 C 0.7511(3) 0.8287(5) 0.6463(5)
H2_4 H 0.749079 0.813410 0.562226
C3_4 C 0.8088(3) 0.8904(4) 0.7008(5)
C4_4 C 0.8107(3) 0.9129(4) 0.8251(5)
C5_4 C 0.7555(3) 0.8742(5) 0.8997(5)
H3_4 H 0.757375 0.888230 0.984087
C6_4 C 0.6998(3) 0.8161(5) 0.8449(5)
H4_4 H 0.660946 0.790976 0.891910
C7_4 C 0.6350(3) 0.7223(5) 0.6694(5)
loop_
_geom_bond_atom_site_label_1
_geom_bond_atom_site_label_2
_geom_bond_site_symmetry_1
_geom_bond_site_symmetry_2
Zn1 O3 1_555 1_555
O1 C7 1_555 1_555
O2 C7 1_555 1_555
O3 H1 1_555 1_555
N1 N2 1_555 1_555
N2 Zn1 1_555 1_555
N3 N2 1_555 1_555
C1 C2 1_555 1_555
C2 H2 1_555 1_555
C3 N1 1_555 1_555
C4 N3 1_555 1_555
C5 C4 1_555 1_555
H3 C5 1_555 1_555
C6 C1 1_555 1_555
H4 C6 1_555 1_555
C7 C1 1_555 1_555
Zn3 N1 1_555 1_555
O4 C14 1_555 1_555
O5 C14 1_555 1_555
O6 Zn1 1_555 1_555
H5 O6 1_555 1_555
N5 Zn1 1_555 1_555
N6 N5 1_555 1_555
C8 C9 1_555 1_555
C9 H6 1_555 1_555
C10 N4 1_555 1_555
C11 N6 1_555 1_555
C12 C11 1_555 1_555
H7 C12 1_555 1_555
C13 C8 1_555 1_555
H8 C13 1_555 1_555
C14 C8 1_555 1_555
Zn5 O5 1_555 1_555
Zn5_2 O2 1_555 1_555
Zn6 O3 1_555 1_555
Zn7 O6 1_555 1_555
Zn8 O4 1_555 1_555
Zn9 O1 1_555 1_555
O7 Zn3 1_555 1_555
O9 Zn1 1_555 1_555
O10 Zn1 1_555 1_555
O12 Zn3 1_555 1_555
N8 Zn3 1_555 1_555
N3 Zn6 1_555 1_555
C2 C3 1_555 1_555
C3 C4 1_555 1_555
C5 C6 1_555 1_555
Zn3 O6 1_555 1_555
N4 N5 1_555 1_555
N6 Zn7 1_555 1_555
C9 C10 1_555 1_555
C10 C11 1_555 1_555
C12 C13 1_555 1_555
Zn7 O12 1_555 1_555
O8 Zn2 1_555 1_555
O11 Zn2 1_555 1_555
N7 Zn2 1_555 1_555
O1_2 C7_2 1_555 1_555
O9 C7_2 1_555 1_555
N1_2 N2_2 1_555 1_555
N3_2 N2_2 1_555 1_555
C1_2 C2_2 1_555 1_555
C2_2 H2_2 1_555 1_555
C3_2 N1_2 1_555 1_555
C4_2 N3_2 1_555 1_555
C5_2 C4_2 1_555 1_555
H3_2 C5_2 1_555 1_555
C6_2 C1_2 1_555 1_555
H4_2 C6_2 1_555 1_555
C7_2 C1_2 1_555 1_555
Zn3_2 N1_2 1_555 1_555
Zn7 O1_2 1_555 1_555
O7_2 Zn3_2 1_555 1_555
C2_2 C3_2 1_555 1_555
C3_2 C4_2 1_555 1_555
C5_2 C6_2 1_555 1_555
O6_2 Zn5 1_555 1_555
H5_2 O6_2 1_555 1_555
O4_2 C14_2 1_555 1_555
O10 C14_2 1_555 1_555
N6_2 N5_2 1_555 1_555
C8_2 C9_2 1_555 1_555
C9_2 H6_2 1_555 1_555
C10_2 N4_2 1_555 1_555
C11_2 N6_2 1_555 1_555
C12_2 C11_2 1_555 1_555
H7_2 C12_2 1_555 1_555
C13_2 C8_2 1_555 1_555
H8_2 C13_2 1_555 1_555
C14_2 C8_2 1_555 1_555
Zn6 O4_2 1_555 1_555
N4_2 N5_2 1_555 1_555
C9_2 C10_2 1_555 1_555
C10_2 C11_2 1_555 1_555
C12_2 C13_2 1_555 1_555
O8_2 Zn2_2 1_555 1_555
Zn5_2 O3_2 1_555 1_555
O3_2 H1_2 1_555 1_555
Zn1_2 O11 1_555 1_555
O7_2 C7_3 1_555 1_555
O2_2 C7_3 1_555 1_555
O11 H1_3 1_555 1_555
N1_3 N2_3 1_555 1_555
N2_3 Zn1_2 1_555 1_555
N7 N2_3 1_555 1_555
C1_3 C2_3 1_555 1_555
C2_3 H2_3 1_555 1_555
C3_3 N1_3 1_555 1_555
C4_3 N7 1_555 1_555
C5_3 C4_3 1_555 1_555
H3_3 C5_3 1_555 1_555
C6_3 C1_3 1_555 1_555
H4_3 C6_3 1_555 1_555
C7_3 C1_3 1_555 1_555
Zn7 N1_3 1_555 1_555
O8_2 C14_3 1_555 1_555
O5_2 C14_3 1_555 1_555
O12 Zn1_2 1_555 1_555
H5_3 O12 1_555 1_555
N5_3 Zn1_2 1_555 1_555
N8 N5_3 1_555 1_555
C8_3 C9_3 1_555 1_555
C9_3 H6_3 1_555 1_555
C10_3 N4_3 1_555 1_555
C11_3 N8 1_555 1_555
C12_3 C11_3 1_555 1_555
H7_3 C12_3 1_555 1_555
C13_3 C8_3 1_555 1_555
H8_3 C13_3 1_555 1_555
C14_3 C8_3 1_555 1_555
Zn4_2 O5_2 1_555 1_555
Zn4 O2_2 1_555 1_555
O9_2 Zn1_2 1_555 1_555
O10_2 Zn1_2 1_555 1_555
C2_3 C3_3 1_555 1_555
C3_3 C4_3 1_555 1_555
C5_3 C6_3 1_555 1_555
N4_3 N5_3 1_555 1_555
C9_3 C10_3 1_555 1_555
C10_3 C11_3 1_555 1_555
C12_3 C13_3 1_555 1_555
Zn4 O11_2 1_555 1_555
O11_2 H1_4 1_555 1_555
O8 C14_4 1_555 1_555
O10_2 C14_4 1_555 1_555
N8_2 N5_4 1_555 1_555
C8_4 C9_4 1_555 1_555
C9_4 H6_4 1_555 1_555
C10_4 N4_4 1_555 1_555
C11_4 N8_2 1_555 1_555
C12_4 C11_4 1_555 1_555
H7_4 C12_4 1_555 1_555
C13_4 C8_4 1_555 1_555
H8_4 C13_4 1_555 1_555
C14_4 C8_4 1_555 1_555
N4_4 N5_4 1_555 1_555
C9_4 C10_4 1_555 1_555
C10_4 C11_4 1_555 1_555
C12_4 C13_4 1_555 1_555
O12_2 Zn4_2 1_555 1_555
H5_4 O12_2 1_555 1_555
O7 C7_4 1_555 1_555
O9_2 C7_4 1_555 1_555
N1_4 N2_4 1_555 1_555
N7_2 N2_4 1_555 1_555
C1_4 C2_4 1_555 1_555
C2_4 H2_4 1_555 1_555
C3_4 N1_4 1_555 1_555
C4_4 N7_2 1_555 1_555
C5_4 C4_4 1_555 1_555
H3_4 C5_4 1_555 1_555
C6_4 C1_4 1_555 1_555
H4_4 C6_4 1_555 1_555
C7_4 C1_4 1_555 1_555
Zn9 N1_4 1_555 1_555
C2_4 C3_4 1_555 1_555
C3_4 C4_4 1_555 1_555
C5_4 C6_4 1_555 1_555

#END
