
###############################################################################
#
# This file contains modified crystal structure data generated from the
# MOF subset of the Cambridge Structural Database (CSD) v543 
# hosted by the Cambridge Crystallographic Data Centre (CCDC).
#
# This work is licensed under the Creative Commons
# Attribution-NonCommercial-ShareAlike 4.0 International License.
# To view a copy of this license, visit
# http://creativecommons.org/licenses/by-nc-sa/4.0/
# or send a letter to
# Creative Commons, PO Box 1866, Mountain View, CA 94042, USA.
#
# CIF created using the CSD Python API on 29 September 2022
# The structure has been converted into the P1 space group
# The structure has a 3D framework
# The original CSD entry BORLOM is in the monoclinic crystal system
# The framework has been calculated to contain at least 10.0% void space
# The void calculation uses a probe of radius 1.32A, grid spacing 0.4
#
###############################################################################

data_BORLOM
_chemical_formula_moiety         '(C56 H24 N24 O24 Zn14)n'
_symmetry_cell_setting           triclinic
_symmetry_space_group_name_H-M   'P 1'
_symmetry_Int_Tables_number      1
_space_group_name_Hall           'P 1'
loop_
_symmetry_equiv_pos_site_id
_symmetry_equiv_pos_as_xyz
1 x,y,z
_cell_length_a                   19.544(2)
_cell_length_b                   9.0665(12)
_cell_length_c                   11.0933(13)
_cell_angle_alpha                90
_cell_angle_beta                 90.176(4)
_cell_angle_gamma                90
_cell_volume                     1965.68
loop_
_atom_site_label
_atom_site_type_symbol
_atom_site_fract_x
_atom_site_fract_y
_atom_site_fract_z
Zn1 Zn 0.000000 0.14391(17) 0.250000
O4 O 0.0135(4) 0.1220(7) 0.0672(5)
Zn6 Zn 0.07424(6) 0.06092(12) 0.50600(9)
O11 O 0.0780(4) 0.2960(7) 0.2693(6)
N7 N 0.1191(4) 0.0419(8) 0.8636(7)
Zn3 Zn 0.07424(6) 0.93908(12) 0.00600(9)
N4 N 0.1191(4) 0.9581(8) 0.3636(7)
N5 N 0.0830(4) 0.9691(8) 0.2624(6)
N6 N 0.1215(4) 0.9298(8) 0.1671(6)
C8 C 0.1842(5) 0.8934(10) 0.2080(8)
C9 C 0.2415(5) 0.8908(10) 0.4041(8)
H4 H 0.240053 0.900071 0.489340
C10 C 0.2451(5) 0.8537(10) 0.1493(8)
H5 H 0.246191 0.839102 0.064531
C11 C 0.1829(5) 0.9140(10) 0.3341(8)
C12 C 0.3028(6) 0.8367(11) 0.2183(8)
C13 C 0.3017(6) 0.8542(10) 0.3461(8)
H6 H 0.342514 0.840555 0.391552
C14 C 0.3700(5) 0.7931(10) 0.1616(8)
O5 O 0.3693(4) 0.7570(7) 0.0507(6)
O6 O 0.4220(4) 0.7960(7) 0.2307(6)
Zn5 Zn 0.500000 0.64391(17) 0.250000
O7 O 0.0135(4) 0.8780(7) 0.5672(5)
Zn9 Zn 0.42576(6) 0.56092(12) 0.99400(9)
O10 O 0.1307(4) 0.7430(7) 0.9493(6)
Zn1_2 Zn 1.000000 0.14391(17) 0.250000
O1 O 0.9865(4) 0.1220(7) 0.4328(5)
N8 N 0.8809(4) 0.0419(8) 0.6364(7)
O12 O 0.9220(4) 0.2960(7) 0.2307(6)
Zn7 Zn 0.92576(6) 0.06092(12) 0.99400(9)
Zn2 Zn 0.92576(6) 0.93908(12) 0.49400(9)
N1 N 0.8809(4) 0.9581(8) 0.1364(7)
N2 N 0.9170(4) 0.9691(8) 0.2376(6)
N3 N 0.8785(4) 0.9298(8) 0.3329(6)
C1 C 0.8158(5) 0.8934(10) 0.2920(8)
C2 C 0.7585(5) 0.8908(10) 0.0959(8)
H1 H 0.759947 0.900071 0.010660
C3 C 0.7549(5) 0.8537(10) 0.3507(8)
H2 H 0.753809 0.839102 0.435469
C4 C 0.8171(5) 0.9140(10) 0.1659(8)
C5 C 0.6972(6) 0.8367(11) 0.2817(8)
C6 C 0.6983(6) 0.8542(10) 0.1539(8)
H3 H 0.657486 0.840555 0.108448
C7 C 0.6300(5) 0.7931(10) 0.3384(8)
O2 O 0.6307(4) 0.7570(7) 0.4493(6)
O3 O 0.5780(4) 0.7960(7) 0.2693(6)
Zn8 Zn 0.57424(6) 0.56092(12) 0.50600(9)
O9 O 0.8693(4) 0.7430(7) 0.5507(6)
O8 O 0.9865(4) 0.8780(7) 0.9328(5)
Zn2_2 Zn 0.42576(6) 0.43908(12) 0.49400(9)
O1_2 O 0.4865(4) 0.6220(7) 0.4328(5)
N1_2 N 0.3809(4) 0.4581(8) 0.1364(7)
N2_2 N 0.4170(4) 0.4691(8) 0.2376(6)
N3_2 N 0.3785(4) 0.4298(8) 0.3329(6)
C1_2 C 0.3158(5) 0.3934(10) 0.2920(8)
C2_2 C 0.2585(5) 0.3908(10) 0.0959(8)
H1_2 H 0.259947 0.400071 0.010660
C3_2 C 0.2549(5) 0.3537(10) 0.3507(8)
H2_2 H 0.253809 0.339102 0.435469
C4_2 C 0.3171(5) 0.4140(10) 0.1659(8)
C5_2 C 0.1972(6) 0.3367(11) 0.2817(8)
C6_2 C 0.1983(6) 0.3542(10) 0.1539(8)
H3_2 H 0.157486 0.340555 0.108448
C7_2 C 0.1300(5) 0.2931(10) 0.3384(8)
O2_2 O 0.1307(4) 0.2570(7) 0.4493(6)
Zn3_2 Zn 0.57424(6) 0.43908(12) 0.00600(9)
O4_2 O 0.5135(4) 0.6220(7) 0.0672(5)
N4_2 N 0.6191(4) 0.4581(8) 0.3636(7)
N5_2 N 0.5830(4) 0.4691(8) 0.2624(6)
N6_2 N 0.6215(4) 0.4298(8) 0.1671(6)
C8_2 C 0.6842(5) 0.3934(10) 0.2080(8)
C9_2 C 0.7415(5) 0.3908(10) 0.4041(8)
H4_2 H 0.740053 0.400071 0.489340
C10_2 C 0.7451(5) 0.3537(10) 0.1493(8)
H5_2 H 0.746191 0.339102 0.064531
C11_2 C 0.6829(5) 0.4140(10) 0.3341(8)
C12_2 C 0.8028(6) 0.3367(11) 0.2183(8)
C13_2 C 0.8017(6) 0.3542(10) 0.3461(8)
H6_2 H 0.842514 0.340555 0.391552
C14_2 C 0.8700(5) 0.2931(10) 0.1616(8)
O5_2 O 0.8693(4) 0.2570(7) 0.0507(6)
O7_2 O 0.5135(4) 0.3780(7) 0.5672(5)
N8_2 N 0.3809(4) 0.5419(8) 0.6364(7)
O9_2 O 0.3693(4) 0.2430(7) 0.5507(6)
O8_2 O 0.4865(4) 0.3780(7) 0.9328(5)
N7_2 N 0.6191(4) 0.5419(8) 0.8636(7)
O10_2 O 0.6307(4) 0.2430(7) 0.9493(6)
N2_3 N 0.0830(4) 0.0309(8) 0.7624(6)
N3_3 N 0.1215(4) 0.0702(8) 0.6671(6)
C1_3 C 0.1842(5) 0.1066(10) 0.7080(8)
C2_3 C 0.2415(5) 0.1092(10) 0.9041(8)
H1_3 H 0.240053 0.099929 0.989340
C3_3 C 0.2451(5) 0.1463(10) 0.6493(8)
H2_3 H 0.246191 0.160898 0.564531
C4_3 C 0.1829(5) 0.0860(10) 0.8341(8)
C5_3 C 0.3028(6) 0.1633(11) 0.7183(8)
C6_3 C 0.3017(6) 0.1458(10) 0.8461(8)
H3_3 H 0.342514 0.159445 0.891552
C7_3 C 0.3700(5) 0.2069(10) 0.6616(8)
O3_2 O 0.4220(4) 0.2040(7) 0.7307(6)
Zn4 Zn 0.500000 0.35609(17) 0.750000
Zn1_3 Zn 0.000000 0.85609(17) 0.750000
O12_2 O 0.0780(4) 0.7040(7) 0.7693(6)
N5_3 N 0.9170(4) 0.0309(8) 0.7376(6)
N6_3 N 0.8785(4) 0.0702(8) 0.8329(6)
C8_3 C 0.8158(5) 0.1066(10) 0.7920(8)
C9_3 C 0.7585(5) 0.1092(10) 0.5959(8)
H4_3 H 0.759947 0.099929 0.510660
C10_3 C 0.7549(5) 0.1463(10) 0.8507(8)
H5_3 H 0.753809 0.160898 0.935469
C11_3 C 0.8171(5) 0.0860(10) 0.6659(8)
C12_3 C 0.6972(6) 0.1633(11) 0.7817(8)
C13_3 C 0.6983(6) 0.1458(10) 0.6539(8)
H6_3 H 0.657486 0.159445 0.608448
C14_3 C 0.6300(5) 0.2069(10) 0.8384(8)
O6_2 O 0.5780(4) 0.2040(7) 0.7693(6)
Zn1_4 Zn 1.000000 0.85609(17) 0.750000
O11_2 O 0.9220(4) 0.7040(7) 0.7307(6)
N2_4 N 0.5830(4) 0.5309(8) 0.7624(6)
N3_4 N 0.6215(4) 0.5702(8) 0.6671(6)
C1_4 C 0.6842(5) 0.6066(10) 0.7080(8)
C2_4 C 0.7415(5) 0.6092(10) 0.9041(8)
H1_4 H 0.740053 0.599929 0.989340
C3_4 C 0.7451(5) 0.6463(10) 0.6493(8)
H2_4 H 0.746191 0.660898 0.564531
C4_4 C 0.6829(5) 0.5860(10) 0.8341(8)
C5_4 C 0.8028(6) 0.6633(11) 0.7183(8)
C6_4 C 0.8017(6) 0.6458(10) 0.8461(8)
H3_4 H 0.842514 0.659445 0.891552
C7_4 C 0.8700(5) 0.7069(10) 0.6616(8)
N5_4 N 0.4170(4) 0.5309(8) 0.7376(6)
N6_4 N 0.3785(4) 0.5702(8) 0.8329(6)
C8_4 C 0.3158(5) 0.6066(10) 0.7920(8)
C9_4 C 0.2585(5) 0.6092(10) 0.5959(8)
H4_4 H 0.259947 0.599929 0.510660
C10_4 C 0.2549(5) 0.6463(10) 0.8507(8)
H5_4 H 0.253809 0.660898 0.935469
C11_4 C 0.3171(5) 0.5860(10) 0.6659(8)
C12_4 C 0.1972(6) 0.6633(11) 0.7817(8)
C13_4 C 0.1983(6) 0.6458(10) 0.6539(8)
H6_4 H 0.157486 0.659445 0.608448
C14_4 C 0.1300(5) 0.7069(10) 0.8384(8)
loop_
_geom_bond_atom_site_label_1
_geom_bond_atom_site_label_2
_geom_bond_site_symmetry_1
_geom_bond_site_symmetry_2
O4 Zn1 1_555 1_555
O11 Zn1 1_555 1_555
N4 N5 1_555 1_555
N6 Zn3 1_555 1_555
C8 N6 1_555 1_555
C9 H4 1_555 1_555
C10 C8 1_555 1_555
H5 C10 1_555 1_555
C11 N4 1_555 1_555
C12 C10 1_555 1_555
C13 C9 1_555 1_555
H6 C13 1_555 1_555
C14 C12 1_555 1_555
O5 C14 1_555 1_555
O6 C14 1_555 1_555
Zn5 O6 1_555 1_555
N5 N6 1_555 1_555
C8 C11 1_555 1_555
C9 C11 1_555 1_555
C12 C13 1_555 1_555
Zn1_2 O1 1_555 1_555
O12 Zn1_2 1_555 1_555
N1 N2 1_555 1_555
N3 Zn2 1_555 1_555
C1 N3 1_555 1_555
C2 H1 1_555 1_555
C3 C1 1_555 1_555
H2 C3 1_555 1_555
C4 N1 1_555 1_555
C5 C3 1_555 1_555
C6 C2 1_555 1_555
H3 C6 1_555 1_555
C7 C5 1_555 1_555
O2 C7 1_555 1_555
O3 C7 1_555 1_555
Zn5 O3 1_555 1_555
Zn8 O2 1_555 1_555
O9 Zn2 1_555 1_555
N2 N3 1_555 1_555
C1 C4 1_555 1_555
C2 C4 1_555 1_555
C5 C6 1_555 1_555
Zn5 O1_2 1_555 1_555
Zn2_2 O1_2 1_555 1_555
O1_2 Zn8 1_555 1_555
N1_2 N2_2 1_555 1_555
N2_2 Zn5 1_555 1_555
N3_2 Zn2_2 1_555 1_555
C1_2 N3_2 1_555 1_555
C2_2 H1_2 1_555 1_555
C3_2 C1_2 1_555 1_555
H2_2 C3_2 1_555 1_555
C4_2 N1_2 1_555 1_555
C5_2 C3_2 1_555 1_555
C6_2 C2_2 1_555 1_555
H3_2 C6_2 1_555 1_555
C7_2 C5_2 1_555 1_555
O2_2 C7_2 1_555 1_555
O11 C7_2 1_555 1_555
Zn3_2 O4_2 1_555 1_555
O4_2 Zn5 1_555 1_555
N4_2 N5_2 1_555 1_555
N5_2 Zn5 1_555 1_555
N6_2 Zn3_2 1_555 1_555
C8_2 N6_2 1_555 1_555
C9_2 H4_2 1_555 1_555
C10_2 C8_2 1_555 1_555
H5_2 C10_2 1_555 1_555
C11_2 N4_2 1_555 1_555
C12_2 C10_2 1_555 1_555
C13_2 C9_2 1_555 1_555
H6_2 C13_2 1_555 1_555
C14_2 C12_2 1_555 1_555
O5_2 C14_2 1_555 1_555
O12 C14_2 1_555 1_555
Zn8 N4_2 1_555 1_555
Zn6 O2_2 1_555 1_555
O7_2 Zn2_2 1_555 1_555
N8_2 Zn2_2 1_555 1_555
O9_2 Zn2_2 1_555 1_555
N2_2 N3_2 1_555 1_555
C1_2 C4_2 1_555 1_555
C2_2 C4_2 1_555 1_555
C5_2 C6_2 1_555 1_555
N5_2 N6_2 1_555 1_555
C8_2 C11_2 1_555 1_555
C9_2 C11_2 1_555 1_555
C12_2 C13_2 1_555 1_555
Zn8 O7_2 1_555 1_555
Zn9 O8_2 1_555 1_555
N7 N2_3 1_555 1_555
N3_3 Zn6 1_555 1_555
C1_3 N3_3 1_555 1_555
C2_3 H1_3 1_555 1_555
C3_3 C1_3 1_555 1_555
H2_3 C3_3 1_555 1_555
C4_3 N7 1_555 1_555
C5_3 C3_3 1_555 1_555
C6_3 C2_3 1_555 1_555
H3_3 C6_3 1_555 1_555
C7_3 C5_3 1_555 1_555
O9_2 C7_3 1_555 1_555
O3_2 C7_3 1_555 1_555
Zn4 O3_2 1_555 1_555
N2_3 N3_3 1_555 1_555
C1_3 C4_3 1_555 1_555
C2_3 C4_3 1_555 1_555
C5_3 C6_3 1_555 1_555
Zn1_3 O7 1_555 1_555
O12_2 Zn1_3 1_555 1_555
N8 N5_3 1_555 1_555
N6_3 Zn7 1_555 1_555
C8_3 N6_3 1_555 1_555
C9_3 H4_3 1_555 1_555
C10_3 C8_3 1_555 1_555
H5_3 C10_3 1_555 1_555
C11_3 N8 1_555 1_555
C12_3 C10_3 1_555 1_555
C13_3 C9_3 1_555 1_555
H6_3 C13_3 1_555 1_555
C14_3 C12_3 1_555 1_555
O10_2 C14_3 1_555 1_555
O6_2 C14_3 1_555 1_555
Zn4 O6_2 1_555 1_555
N5_3 N6_3 1_555 1_555
C8_3 C11_3 1_555 1_555
C9_3 C11_3 1_555 1_555
C12_3 C13_3 1_555 1_555
O8 Zn1_4 1_555 1_555
O11_2 Zn1_4 1_555 1_555
Zn4 O7_2 1_555 1_555
N7_2 N2_4 1_555 1_555
N2_4 Zn4 1_555 1_555
N3_4 Zn8 1_555 1_555
C1_4 N3_4 1_555 1_555
C2_4 H1_4 1_555 1_555
C3_4 C1_4 1_555 1_555
H2_4 C3_4 1_555 1_555
C4_4 N7_2 1_555 1_555
C5_4 C3_4 1_555 1_555
C6_4 C2_4 1_555 1_555
H3_4 C6_4 1_555 1_555
C7_4 C5_4 1_555 1_555
O9 C7_4 1_555 1_555
O11_2 C7_4 1_555 1_555
O8_2 Zn4 1_555 1_555
N8_2 N5_4 1_555 1_555
N5_4 Zn4 1_555 1_555
N6_4 Zn9 1_555 1_555
C8_4 N6_4 1_555 1_555
C9_4 H4_4 1_555 1_555
C10_4 C8_4 1_555 1_555
H5_4 C10_4 1_555 1_555
C11_4 N8_2 1_555 1_555
C12_4 C10_4 1_555 1_555
C13_4 C9_4 1_555 1_555
H6_4 C13_4 1_555 1_555
C14_4 C12_4 1_555 1_555
O10 C14_4 1_555 1_555
O12_2 C14_4 1_555 1_555
N2_4 N3_4 1_555 1_555
C1_4 C4_4 1_555 1_555
C2_4 C4_4 1_555 1_555
C5_4 C6_4 1_555 1_555
N5_4 N6_4 1_555 1_555
C8_4 C11_4 1_555 1_555
C9_4 C11_4 1_555 1_555
C12_4 C13_4 1_555 1_555

#END
