
###############################################################################
#
# This file contains modified crystal structure data generated from the
# MOF subset of the Cambridge Structural Database (CSD) v543 
# hosted by the Cambridge Crystallographic Data Centre (CCDC).
#
# This work is licensed under the Creative Commons
# Attribution-NonCommercial-ShareAlike 4.0 International License.
# To view a copy of this license, visit
# http://creativecommons.org/licenses/by-nc-sa/4.0/
# or send a letter to
# Creative Commons, PO Box 1866, Mountain View, CA 94042, USA.
#
# CIF created using the CSD Python API on 29 September 2022
# The structure has been converted into the P1 space group
# The structure has a 3D framework
# The original CSD entry BORLEC is in the monoclinic crystal system
# The framework has been calculated to contain at least 10.0% void space
# The void calculation uses a probe of radius 1.32A, grid spacing 0.4
#
###############################################################################

data_BORLEC
_chemical_formula_moiety         '(C56 H28 N24 O20 Zn8)n'
_symmetry_cell_setting           triclinic
_symmetry_space_group_name_H-M   'P 1'
_symmetry_Int_Tables_number      1
_space_group_name_Hall           'P 1'
loop_
_symmetry_equiv_pos_site_id
_symmetry_equiv_pos_as_xyz
1 x,y,z
_cell_length_a                   18.037(2)
_cell_length_b                   12.5871(13)
_cell_length_c                   11.0828(13)
_cell_angle_alpha                90
_cell_angle_beta                 93.046(5)
_cell_angle_gamma                90
_cell_volume                     2512.61
loop_
_atom_site_label
_atom_site_type_symbol
_atom_site_fract_x
_atom_site_fract_y
_atom_site_fract_z
Zn13 Zn 0.000000 0.89584(7) 0.250000
N4 N 0.3747(3) 0.5661(4) 0.1615(4)
O5 O 0.1402(2) 0.8137(3) 0.0660(4)
N5 N 0.3759(3) 0.5328(4) 0.3577(4)
C8 C 0.3120(3) 0.6129(5) 0.2056(5)
N6 N 0.4104(3) 0.5191(4) 0.2560(4)
O6 O 0.0817(2) 0.7847(3) 0.2375(4)
C9 C 0.3138(3) 0.5917(5) 0.3290(5)
C10 C 0.2545(3) 0.6732(4) 0.1486(5)
C11 C 0.2581(3) 0.6285(5) 0.4030(6)
H6 H 0.253326 0.688913 0.064658
C12 C 0.1995(3) 0.7085(4) 0.2220(5)
H7 H 0.259482 0.613770 0.487185
C13 C 0.2021(3) 0.6862(5) 0.3481(6)
C14 C 0.1356(3) 0.7741(5) 0.1701(5)
H8 H 0.163630 0.712321 0.395245
Zn5 Zn 0.42034(4) 0.44949(5) 0.49987(6)
Zn7 Zn 0.57966(4) 0.44949(5) 0.00013(6)
Zn9 Zn 0.07966(4) 0.94949(5) 0.00013(6)
O8 O 0.4836(2) 0.4141(3) 0.0661(3)
Zn11 Zn 0.500000 0.39584(7) 0.250000
Zn1 Zn 0.57966(4) 0.55051(5) 0.50013(6)
O1 O 0.4836(2) 0.5859(3) 0.5661(3)
N1 N 0.6253(3) 0.5661(4) 0.3385(4)
O2 O 0.8598(2) 0.8137(3) 0.4340(4)
N2 N 0.6241(3) 0.5328(4) 0.1423(4)
H1 H 0.453367 0.635456 0.550503
Zn2 Zn 0.500000 0.60416(7) 0.750000
C1 C 0.6880(3) 0.6129(5) 0.2944(5)
N3 N 0.5896(3) 0.5191(4) 0.2440(4)
O3 O 0.9183(2) 0.7847(3) 0.2625(4)
C2 C 0.6862(3) 0.5917(5) 0.1710(5)
C3 C 0.7455(3) 0.6732(4) 0.3514(5)
C4 C 0.7419(3) 0.6285(5) 0.0970(6)
H2 H 0.746674 0.688913 0.435342
C5 C 0.8005(3) 0.7085(4) 0.2780(5)
H3 H 0.740518 0.613770 0.012815
C6 C 0.7979(3) 0.6862(5) 0.1519(6)
C7 C 0.8644(3) 0.7741(5) 0.3299(5)
H4 H 0.836370 0.712321 0.104755
Zn3 Zn 0.42034(4) 0.55051(5) 0.99987(6)
O4 O 0.5164(2) 0.5859(3) 0.9339(3)
H5 H 0.546633 0.635456 0.949497
Zn8 Zn 0.92034(4) 0.94949(5) 0.49987(6)
O7 O 0.5164(2) 0.4141(3) 0.4339(3)
O9 O 0.6402(2) 0.6863(3) 0.5660(4)
O10 O 0.3598(2) 0.6863(3) 0.9340(4)
N7 N 0.3759(3) 0.4672(4) 0.8577(4)
N8 N 0.6241(3) 0.4672(4) 0.6423(4)
Zn13_2 Zn 1.000000 0.89584(7) 0.250000
N9 N 0.4104(3) 0.4809(4) 0.7560(4)
N10 N 0.5896(3) 0.4809(4) 0.7440(4)
O11 O 0.5817(2) 0.7153(3) 0.7375(4)
O12 O 0.4183(2) 0.7153(3) 0.7625(4)
Zn1_2 Zn 0.07966(4) 0.05051(5) 0.50013(6)
N1_2 N 0.1253(3) 0.0661(4) 0.3385(4)
O2_2 O 0.3598(2) 0.3137(3) 0.4340(4)
N2_2 N 0.1241(3) 0.0328(4) 0.1423(4)
Zn2_2 Zn -0.000000 0.10416(7) 0.750000
C1_2 C 0.1880(3) 0.1129(5) 0.2944(5)
N3_2 N 0.0896(3) 0.0191(4) 0.2440(4)
O3_2 O 0.4183(2) 0.2847(3) 0.2625(4)
C2_2 C 0.1862(3) 0.0917(5) 0.1710(5)
C3_2 C 0.2455(3) 0.1732(4) 0.3514(5)
C4_2 C 0.2419(3) 0.1285(5) 0.0970(6)
H2_2 H 0.246674 0.188913 0.435342
C5_2 C 0.3005(3) 0.2085(4) 0.2780(5)
H3_2 H 0.240518 0.113770 0.012815
C6_2 C 0.2979(3) 0.1862(5) 0.1519(6)
C7_2 C 0.3644(3) 0.2741(5) 0.3299(5)
H4_2 H 0.336370 0.212321 0.104755
O4_2 O 0.0164(2) 0.0859(3) 0.9339(3)
H5_2 H 0.046633 0.135456 0.949497
O9_2 O 0.1402(2) 0.1863(3) 0.5660(4)
O11_2 O 0.0817(2) 0.2153(3) 0.7375(4)
O7_2 O 0.0164(2) 0.9141(3) 0.4339(3)
N8_2 N 0.1241(3) 0.9672(4) 0.6423(4)
N10_2 N 0.0896(3) 0.9809(4) 0.7440(4)
N4_2 N 0.8747(3) 0.0661(4) 0.1615(4)
O5_2 O 0.6402(2) 0.3137(3) 0.0660(4)
N5_2 N 0.8759(3) 0.0328(4) 0.3577(4)
C8_2 C 0.8120(3) 0.1129(5) 0.2056(5)
N6_2 N 0.9104(3) 0.0191(4) 0.2560(4)
O6_2 O 0.5817(2) 0.2847(3) 0.2375(4)
C9_2 C 0.8138(3) 0.0917(5) 0.3290(5)
C10_2 C 0.7545(3) 0.1732(4) 0.1486(5)
C11_2 C 0.7581(3) 0.1285(5) 0.4030(6)
H6_2 H 0.753326 0.188913 0.064658
C12_2 C 0.6995(3) 0.2085(4) 0.2220(5)
H7_2 H 0.759482 0.113770 0.487185
C13_2 C 0.7021(3) 0.1862(5) 0.3481(6)
C14_2 C 0.6356(3) 0.2741(5) 0.1701(5)
H8_2 H 0.663630 0.212321 0.395245
O1_2 O 0.9836(2) 0.0859(3) 0.5661(3)
H1_2 H 0.953367 0.135456 0.550503
Zn2_3 Zn 1.000000 0.10416(7) 0.750000
Zn3_2 Zn 0.92034(4) 0.05051(5) 0.99987(6)
O10_2 O 0.8598(2) 0.1863(3) 0.9340(4)
O12_2 O 0.9183(2) 0.2153(3) 0.7625(4)
O8_2 O 0.9836(2) 0.9141(3) 0.0661(3)
N7_2 N 0.8759(3) 0.9672(4) 0.8577(4)
N9_2 N 0.9104(3) 0.9809(4) 0.7560(4)
N1_3 N 0.3747(3) 0.4339(4) 0.6615(4)
H1_3 H 0.546633 0.364544 0.449497
C1_3 C 0.3120(3) 0.3871(5) 0.7056(5)
C2_3 C 0.3138(3) 0.4083(5) 0.8290(5)
C3_3 C 0.2545(3) 0.3268(4) 0.6486(5)
C4_3 C 0.2581(3) 0.3715(5) 0.9030(6)
H2_3 H 0.253326 0.311087 0.564658
C5_3 C 0.1995(3) 0.2915(4) 0.7220(5)
H3_3 H 0.259482 0.386230 0.987185
C6_3 C 0.2021(3) 0.3138(5) 0.8481(6)
C7_3 C 0.1356(3) 0.2259(5) 0.6701(5)
H4_3 H 0.163630 0.287679 0.895245
H5_3 H 0.453367 0.364544 0.050503
N4_3 N 0.6253(3) 0.4339(4) 0.8385(4)
C8_3 C 0.6880(3) 0.3871(5) 0.7944(5)
C9_3 C 0.6862(3) 0.4083(5) 0.6710(5)
C10_3 C 0.7455(3) 0.3268(4) 0.8514(5)
C11_3 C 0.7419(3) 0.3715(5) 0.5970(6)
H6_3 H 0.746674 0.311087 0.935342
C12_3 C 0.8005(3) 0.2915(4) 0.7780(5)
H7_3 H 0.740518 0.386230 0.512815
C13_3 C 0.7979(3) 0.3138(5) 0.6519(6)
C14_3 C 0.8644(3) 0.2259(5) 0.8299(5)
H8_3 H 0.836370 0.287679 0.604755
H1_4 H 0.046633 0.864544 0.449497
N4_4 N 0.1253(3) 0.9339(4) 0.8385(4)
C8_4 C 0.1880(3) 0.8871(5) 0.7944(5)
C9_4 C 0.1862(3) 0.9083(5) 0.6710(5)
C10_4 C 0.2455(3) 0.8268(4) 0.8514(5)
C11_4 C 0.2419(3) 0.8715(5) 0.5970(6)
H6_4 H 0.246674 0.811087 0.935342
C12_4 C 0.3005(3) 0.7915(4) 0.7780(5)
H7_4 H 0.240518 0.886230 0.512815
C13_4 C 0.2979(3) 0.8138(5) 0.6519(6)
C14_4 C 0.3644(3) 0.7259(5) 0.8299(5)
H8_4 H 0.336370 0.787679 0.604755
N1_4 N 0.8747(3) 0.9339(4) 0.6615(4)
C1_4 C 0.8120(3) 0.8871(5) 0.7056(5)
C2_4 C 0.8138(3) 0.9083(5) 0.8290(5)
C3_4 C 0.7545(3) 0.8268(4) 0.6486(5)
C4_4 C 0.7581(3) 0.8715(5) 0.9030(6)
H2_4 H 0.753326 0.811087 0.564658
C5_4 C 0.6995(3) 0.7915(4) 0.7220(5)
H3_4 H 0.759482 0.886230 0.987185
C6_4 C 0.7021(3) 0.8138(5) 0.8481(6)
C7_4 C 0.6356(3) 0.7259(5) 0.6701(5)
H4_4 H 0.663630 0.787679 0.895245
H5_4 H 0.953367 0.864544 0.050503
loop_
_geom_bond_atom_site_label_1
_geom_bond_atom_site_label_2
_geom_bond_site_symmetry_1
_geom_bond_site_symmetry_2
O5 C14 1_555 1_555
N5 N6 1_555 1_555
C8 N4 1_555 1_555
N6 N4 1_555 1_555
O6 C14 1_555 1_555
C9 N5 1_555 1_555
C10 C8 1_555 1_555
C11 C9 1_555 1_555
H6 C10 1_555 1_555
C12 C10 1_555 1_555
H7 C11 1_555 1_555
C13 C11 1_555 1_555
C14 C12 1_555 1_555
H8 C13 1_555 1_555
Zn5 N5 1_555 1_555
Zn9 O5 1_555 1_555
Zn11 N6 1_555 1_555
Zn13 O6 1_555 1_555
C8 C9 1_555 1_555
C12 C13 1_555 1_555
Zn7 O8 1_555 1_555
O8 Zn11 1_555 1_555
Zn1 O1 1_555 1_555
O1 H1 1_555 1_555
N1 Zn1 1_555 1_555
O2 C7 1_555 1_555
N2 N3 1_555 1_555
Zn2 O1 1_555 1_555
C1 N1 1_555 1_555
N3 N1 1_555 1_555
O3 C7 1_555 1_555
C2 N2 1_555 1_555
C3 C1 1_555 1_555
C4 C2 1_555 1_555
H2 C3 1_555 1_555
C5 C3 1_555 1_555
H3 C4 1_555 1_555
C6 C4 1_555 1_555
C7 C5 1_555 1_555
H4 C6 1_555 1_555
Zn3 O4 1_555 1_555
O4 Zn2 1_555 1_555
H5 O4 1_555 1_555
Zn5 O1 1_555 1_555
Zn7 N2 1_555 1_555
Zn8 O2 1_555 1_555
O7 Zn1 1_555 1_555
O9 Zn1 1_555 1_555
O10 Zn3 1_555 1_555
N7 Zn3 1_555 1_555
N8 Zn1 1_555 1_555
Zn11 N3 1_555 1_555
Zn13_2 O3 1_555 1_555
N9 Zn2 1_555 1_555
N10 Zn2 1_555 1_555
O11 Zn2 1_555 1_555
O12 Zn2 1_555 1_555
C1 C2 1_555 1_555
C5 C6 1_555 1_555
Zn5 O7 1_555 1_555
O7 Zn11 1_555 1_555
N7 N9 1_555 1_555
N8 N10 1_555 1_555
N1_2 Zn1_2 1_555 1_555
O2_2 C7_2 1_555 1_555
N2_2 N3_2 1_555 1_555
C1_2 N1_2 1_555 1_555
N3_2 N1_2 1_555 1_555
O3_2 C7_2 1_555 1_555
C2_2 N2_2 1_555 1_555
C3_2 C1_2 1_555 1_555
C4_2 C2_2 1_555 1_555
H2_2 C3_2 1_555 1_555
C5_2 C3_2 1_555 1_555
H3_2 C4_2 1_555 1_555
C6_2 C4_2 1_555 1_555
C7_2 C5_2 1_555 1_555
H4_2 C6_2 1_555 1_555
O4_2 Zn2_2 1_555 1_555
H5_2 O4_2 1_555 1_555
Zn5 O2_2 1_555 1_555
O9_2 Zn1_2 1_555 1_555
Zn11 O3_2 1_555 1_555
O11_2 Zn2_2 1_555 1_555
C1_2 C2_2 1_555 1_555
C5_2 C6_2 1_555 1_555
O7_2 Zn13 1_555 1_555
N8_2 N10_2 1_555 1_555
O5_2 C14_2 1_555 1_555
N5_2 N6_2 1_555 1_555
C8_2 N4_2 1_555 1_555
N6_2 N4_2 1_555 1_555
O6_2 C14_2 1_555 1_555
C9_2 N5_2 1_555 1_555
C10_2 C8_2 1_555 1_555
C11_2 C9_2 1_555 1_555
H6_2 C10_2 1_555 1_555
C12_2 C10_2 1_555 1_555
H7_2 C11_2 1_555 1_555
C13_2 C11_2 1_555 1_555
C14_2 C12_2 1_555 1_555
H8_2 C13_2 1_555 1_555
Zn7 O5_2 1_555 1_555
Zn11 O6_2 1_555 1_555
C8_2 C9_2 1_555 1_555
C12_2 C13_2 1_555 1_555
O1_2 H1_2 1_555 1_555
Zn2_3 O1_2 1_555 1_555
O10_2 Zn3_2 1_555 1_555
O12_2 Zn2_3 1_555 1_555
O8_2 Zn13_2 1_555 1_555
N7_2 N9_2 1_555 1_555
O7 H1_3 1_555 1_555
N1_3 Zn5 1_555 1_555
O9_2 C7_3 1_555 1_555
C1_3 N1_3 1_555 1_555
N9 N1_3 1_555 1_555
O11_2 C7_3 1_555 1_555
C2_3 N7 1_555 1_555
C3_3 C1_3 1_555 1_555
C4_3 C2_3 1_555 1_555
H2_3 C3_3 1_555 1_555
C5_3 C3_3 1_555 1_555
H3_3 C4_3 1_555 1_555
C6_3 C4_3 1_555 1_555
C7_3 C5_3 1_555 1_555
H4_3 C6_3 1_555 1_555
H5_3 O8 1_555 1_555
C1_3 C2_3 1_555 1_555
C5_3 C6_3 1_555 1_555
O10_2 C14_3 1_555 1_555
C8_3 N4_3 1_555 1_555
N10 N4_3 1_555 1_555
O12_2 C14_3 1_555 1_555
C9_3 N8 1_555 1_555
C10_3 C8_3 1_555 1_555
C11_3 C9_3 1_555 1_555
H6_3 C10_3 1_555 1_555
C12_3 C10_3 1_555 1_555
H7_3 C11_3 1_555 1_555
C13_3 C11_3 1_555 1_555
C14_3 C12_3 1_555 1_555
H8_3 C13_3 1_555 1_555
C8_3 C9_3 1_555 1_555
C12_3 C13_3 1_555 1_555
O7_2 H1_4 1_555 1_555
O10 C14_4 1_555 1_555
C8_4 N4_4 1_555 1_555
N10_2 N4_4 1_555 1_555
O12 C14_4 1_555 1_555
C9_4 N8_2 1_555 1_555
C10_4 C8_4 1_555 1_555
C11_4 C9_4 1_555 1_555
H6_4 C10_4 1_555 1_555
C12_4 C10_4 1_555 1_555
H7_4 C11_4 1_555 1_555
C13_4 C11_4 1_555 1_555
C14_4 C12_4 1_555 1_555
H8_4 C13_4 1_555 1_555
C8_4 C9_4 1_555 1_555
C12_4 C13_4 1_555 1_555
N1_4 Zn8 1_555 1_555
O9 C7_4 1_555 1_555
C1_4 N1_4 1_555 1_555
N9_2 N1_4 1_555 1_555
O11 C7_4 1_555 1_555
C2_4 N7_2 1_555 1_555
C3_4 C1_4 1_555 1_555
C4_4 C2_4 1_555 1_555
H2_4 C3_4 1_555 1_555
C5_4 C3_4 1_555 1_555
H3_4 C4_4 1_555 1_555
C6_4 C4_4 1_555 1_555
C7_4 C5_4 1_555 1_555
H4_4 C6_4 1_555 1_555
H5_4 O8_2 1_555 1_555
C1_4 C2_4 1_555 1_555
C5_4 C6_4 1_555 1_555

#END
