
###############################################################################
#
# This file contains modified crystal structure data generated from the
# MOF subset of the Cambridge Structural Database (CSD) v543 
# hosted by the Cambridge Crystallographic Data Centre (CCDC).
#
# This work is licensed under the Creative Commons
# Attribution-NonCommercial-ShareAlike 4.0 International License.
# To view a copy of this license, visit
# http://creativecommons.org/licenses/by-nc-sa/4.0/
# or send a letter to
# Creative Commons, PO Box 1866, Mountain View, CA 94042, USA.
#
# CIF created using the CSD Python API on 29 September 2022
# The structure has been converted into the P1 space group
# The structure has a 3D framework
# The original CSD entry BORMON is in the orthorhombic crystal system
# The original CSD entry BORMON is in a Sohncke space group
# The framework has been calculated to contain at least 10.0% void space
# The void calculation uses a probe of radius 1.32A, grid spacing 0.4
#
###############################################################################

data_BORMON
_chemical_formula_moiety         '(C112 H64 Cd4 N24 S40)n'
_symmetry_cell_setting           triclinic
_symmetry_space_group_name_H-M   'P 1'
_symmetry_Int_Tables_number      1
_space_group_name_Hall           'P 1'
loop_
_symmetry_equiv_pos_site_id
_symmetry_equiv_pos_as_xyz
1 x,y,z
_cell_length_a                   9.7191(3)
_cell_length_b                   23.1913(9)
_cell_length_c                   24.7330(9)
_cell_angle_alpha                90
_cell_angle_beta                 90
_cell_angle_gamma                90
_cell_volume                     5574.78
loop_
_atom_site_label
_atom_site_type_symbol
_atom_site_fract_x
_atom_site_fract_y
_atom_site_fract_z
Cd2 Cd 0.20659(7) 0.00975(2) 0.02073(2)
C28 C 0.5645(9) 0.0353(4) 0.4530(3)
N6 N 0.5118(8) 0.0349(3) 0.4883(3)
S10 S 0.6573(4) 0.0442(2) 0.40006(16)
N7 N 0.1724(8) 0.0492(3) 0.4607(3)
N9 N 0.2601(8) 0.0665(3) 0.5853(3)
C1 C 0.3124(9) 0.7421(3) 0.7638(3)
C2 C 0.1828(9) 0.7249(3) 0.7528(3)
C3 C 0.4961(9) 0.8042(3) 0.8091(3)
C4 C 0.5161(9) 0.8103(3) 0.7561(3)
C7 C 0.5517(9) 0.8862(3) 0.6740(3)
C8 C 0.4159(9) 0.9014(4) 0.6797(3)
H1 H 0.3688 0.8943 0.7127
C9 C 0.3488(10) 0.9273(4) 0.6368(4)
H2 H 0.2541 0.9366 0.6406
C10 C 0.5432(11) 0.9253(4) 0.5851(4)
H3 H 0.5888 0.9338 0.5520
C11 C 0.6188(10) 0.8982(4) 0.6262(4)
H4 H 0.7129 0.8884 0.6212
C12 C 0.4867(9) 0.8785(4) 0.8958(3)
C13 C 0.5372(12) 0.9003(6) 0.9450(5)
H5 H 0.6261 0.8900 0.9577
C14 C 0.4561(13) 0.9361(5) 0.9735(5)
C15 C 0.2800(11) 0.9277(4) 0.9147(4)
H7 H 0.1874 0.9358 0.9050
C16 C 0.3555(10) 0.8930(4) 0.8805(4)
H8 H 0.3178 0.8795 0.8474
C27 C 0.0435(10) 0.9085(4) 0.5678(4)
N1 N 0.4120(8) 0.9398(3) 0.5897(3)
N2 N 0.3276(8) 0.9508(3) 0.9607(3)
N5 N 0.0884(9) 0.9502(3) 0.5530(3)
S1 S 0.4264(2) 0.76275(9) 0.71260(8)
S2 S 0.3800(2) 0.74937(10) 0.82887(8)
S3 S 0.1132(2) 0.72548(11) 0.68720(9)
S4 S 0.0674(2) 0.70370(11) 0.80345(9)
S5 S 0.6454(2) 0.85283(9) 0.72691(9)
S6 S 0.6009(2) 0.83530(10) 0.85767(9)
Cd1 Cd 0.29341(7) 0.99025(2) 0.52073(2)
N8 N 0.3223(9) 0.9137(3) 0.4597(3)
C5 C 0.9207(9) 0.7091(3) 0.7621(3)
C6 C 0.9433(9) 0.7189(3) 0.7087(3)
C17 C 0.8267(8) 0.6746(3) 0.6173(3)
C18 C 0.7618(11) 0.6827(4) 0.5671(4)
H9 H 0.7196 0.7183 0.5581
C19 C 0.7615(11) 0.6372(4) 0.5315(4)
H10 H 0.7147 0.6423 0.4981
C20 C 0.8859(10) 0.5801(4) 0.5883(3)
H11 H 0.9301 0.5444 0.5959
C21 C 0.8902(10) 0.6229(4) 0.6272(3)
H12 H 0.9367 0.6165 0.6605
C22 C 0.7613(9) 0.6543(4) 0.8388(3)
C23 C 0.6785(10) 0.6605(4) 0.8843(4)
H13 H 0.6292 0.6952 0.8907
C24 C 0.6697(10) 0.6152(4) 0.9197(4)
H14 H 0.6095 0.6190 0.9498
C25 C 0.8203(10) 0.5610(4) 0.8703(3)
H15 H 0.8696 0.5260 0.8654
C26 C 0.8339(9) 0.6034(4) 0.8322(4)
H16 H 0.8922 0.5980 0.8017
N3 N 0.8223(9) 0.5863(3) 0.5403(3)
N4 N 0.7399(8) 0.5665(3) 0.9147(3)
S7 S 0.8101(2) 0.73235(9) 0.66287(8)
S8 S 0.7579(2) 0.71137(10) 0.79162(10)
S9 S 0.9778(3) 0.84813(12) 0.59067(13)
Cd3 Cd 0.79341(7) 0.50975(2) 0.47927(2)
Cd4 Cd 0.70659(7) 0.49025(2) 0.97927(2)
C1_2 C 0.1876(9) 0.2579(3) 0.2638(3)
C2_2 C 0.3172(9) 0.2751(3) 0.2528(3)
C3_2 C 0.0039(9) 0.1958(3) 0.3091(3)
C5_2 C 0.5793(9) 0.2909(3) 0.2621(3)
C6_2 C 0.5567(9) 0.2811(3) 0.2087(3)
C8_2 C 0.0841(9) 0.0986(4) 0.1797(3)
H1_2 H 0.1312 0.1057 0.2127
C9_2 C 0.1512(10) 0.0727(4) 0.1368(4)
H2_2 H 0.2459 0.0634 0.1406
C12_2 C 0.0133(9) 0.1215(4) 0.3958(3)
C14_2 C 0.0439(13) 0.0639(5) 0.4735(5)
H6 H 0.0063 0.0478 0.5055
C15_2 C 0.2200(11) 0.0723(4) 0.4147(4)
H7_2 H 0.3126 0.0642 0.4050
C16_2 C 0.1445(10) 0.1070(4) 0.3805(4)
H8_2 H 0.1822 0.1205 0.3474
C17_2 C 0.6733(8) 0.3254(3) 0.1173(3)
C18_2 C 0.7382(11) 0.3173(4) 0.0671(4)
H9_2 H 0.7804 0.2817 0.0581
C19_2 C 0.7385(11) 0.3628(4) 0.0315(4)
C20_2 C 0.6141(10) 0.4199(4) 0.0883(3)
H11_2 H 0.5699 0.4556 0.0959
C21_2 C 0.6098(10) 0.3771(4) 0.1272(3)
H12_2 H 0.5633 0.3835 0.1605
C22_2 C 0.7387(9) 0.3457(4) 0.3388(3)
C23_2 C 0.8215(10) 0.3395(4) 0.3843(4)
H13_2 H 0.8708 0.3048 0.3907
C24_2 C 0.8303(10) 0.3848(4) 0.4197(4)
H14_2 H 0.8905 0.3810 0.4498
C25_2 C 0.6797(10) 0.4390(4) 0.3703(3)
H15_2 H 0.6304 0.4740 0.3654
C26_2 C 0.6661(9) 0.3966(4) 0.3322(4)
H16_2 H 0.6078 0.4020 0.3017
C27_2 C 0.4565(10) 0.0915(4) 0.0678(4)
N1_2 N 0.0880(8) 0.0602(3) 0.0897(3)
N3_2 N 0.6777(9) 0.4137(3) 0.0403(3)
N4_2 N 0.7601(8) 0.4335(3) 0.4147(3)
N5_2 N 0.4116(9) 0.0498(3) 0.0530(3)
S1_2 S 0.0736(2) 0.23725(9) 0.21260(8)
S2_2 S 0.1200(2) 0.25063(10) 0.32887(8)
S3_2 S 0.3868(2) 0.27452(11) 0.18720(9)
S4_2 S 0.4326(2) 0.29630(11) 0.30345(9)
S7_2 S 0.6899(2) 0.26765(9) 0.16287(8)
S8_2 S 0.7421(2) 0.28863(10) 0.29162(10)
S9_2 S 0.5222(3) 0.15187(12) 0.09067(13)
H10_2 H 0.7853 0.3577 0.9981
N8_2 N 0.1777(9) 0.0863(3) 0.9597(3)
N9_2 N 0.2399(8) 0.9335(3) 0.0853(3)
C1_3 C 0.8124(9) 0.7579(3) 0.2362(3)
C2_3 C 0.6828(9) 0.7751(3) 0.2472(3)
C3_3 C 0.9961(9) 0.6958(3) 0.1909(3)
C5_3 C 0.4207(9) 0.7909(3) 0.2379(3)
C6_3 C 0.4433(9) 0.7811(3) 0.2913(3)
C8_3 C 0.9159(9) 0.5986(4) 0.3203(3)
H1_3 H 0.8688 0.6057 0.2873
C9_3 C 0.8488(10) 0.5727(4) 0.3632(4)
H2_3 H 0.7541 0.5634 0.3594
C12_3 C 0.9867(9) 0.6215(4) 0.1042(3)
C14_3 C 0.9561(13) 0.5639(5) 0.0265(5)
C15_3 C 0.7800(11) 0.5723(4) 0.0853(4)
H7_3 H 0.6874 0.5642 0.0950
C16_3 C 0.8555(10) 0.6070(4) 0.1195(4)
H8_3 H 0.8178 0.6205 0.1526
C17_3 C 0.3267(8) 0.8254(3) 0.3827(3)
C18_3 C 0.2618(11) 0.8173(4) 0.4329(4)
H9_3 H 0.2196 0.7817 0.4419
C19_3 C 0.2615(11) 0.8628(4) 0.4685(4)
H10_3 H 0.2147 0.8577 0.5019
C20_3 C 0.3859(10) 0.9199(4) 0.4117(3)
H11_3 H 0.4301 0.9556 0.4041
C21_3 C 0.3902(10) 0.8771(4) 0.3728(3)
H12_3 H 0.4367 0.8835 0.3395
C22_3 C 0.2613(9) 0.8457(4) 0.1612(3)
C23_3 C 0.1785(10) 0.8395(4) 0.1157(4)
H13_3 H 0.1292 0.8048 0.1093
C24_3 C 0.1697(10) 0.8848(4) 0.0803(4)
H14_3 H 0.1095 0.8810 0.0502
C25_3 C 0.3203(10) 0.9390(4) 0.1297(3)
H15_3 H 0.3696 0.9740 0.1346
C26_3 C 0.3339(9) 0.8966(4) 0.1678(4)
H16_3 H 0.3922 0.9020 0.1983
C27_3 C 0.5435(10) 0.5915(4) 0.4322(4)
N1_3 N 0.9120(8) 0.5602(3) 0.4103(3)
N2_2 N 0.8276(8) 0.5492(3) 0.0393(3)
N5_3 N 0.5884(9) 0.5498(3) 0.4470(3)
S1_3 S 0.9264(2) 0.73725(9) 0.28740(8)
S2_3 S 0.8800(2) 0.75063(10) 0.17113(8)
S3_3 S 0.6132(2) 0.77452(11) 0.31280(9)
S4_3 S 0.5674(2) 0.79630(11) 0.19655(9)
S7_3 S 0.3101(2) 0.76765(9) 0.33713(8)
S8_3 S 0.2579(2) 0.78863(10) 0.20838(10)
S9_3 S 0.4778(3) 0.65187(12) 0.40933(13)
N7_2 N 0.6724(8) 0.4508(3) 0.5393(3)
H6_2 H 0.9937 0.5478 0.9945
H10_4 H 0.2853 0.1423 0.0019
C5_4 C 0.0793(9) 0.2091(3) 0.7379(3)
C6_4 C 0.0567(9) 0.2189(3) 0.7913(3)
C17_4 C 0.1733(8) 0.1746(3) 0.8827(3)
C18_4 C 0.2382(11) 0.1827(4) 0.9329(4)
H9_4 H 0.2804 0.2183 0.9419
C19_4 C 0.2385(11) 0.1372(4) 0.9685(4)
C20_4 C 0.1141(10) 0.0801(4) 0.9117(3)
H11_4 H 0.0699 0.0444 0.9041
C21_4 C 0.1098(10) 0.1229(4) 0.8728(3)
H12_4 H 0.0633 0.1165 0.8395
C22_4 C 0.2387(9) 0.1543(4) 0.6612(3)
C23_4 C 0.3215(10) 0.1605(4) 0.6157(4)
H13_4 H 0.3708 0.1952 0.6093
C24_4 C 0.3303(10) 0.1152(4) 0.5803(4)
H14_4 H 0.3905 0.1190 0.5502
C25_4 C 0.1797(10) 0.0610(4) 0.6297(3)
H15_4 H 0.1304 0.0260 0.6346
C26_4 C 0.1661(9) 0.1034(4) 0.6678(4)
H16_4 H 0.1078 0.0980 0.6983
S7_4 S 0.1899(2) 0.23235(9) 0.83713(8)
S8_4 S 0.2421(2) 0.21137(10) 0.70838(10)
S9_4 S 0.0222(3) 0.34813(12) 0.90933(13)
C28_2 C 0.4355(9) 0.5353(4) 0.0470(3)
N6_2 N 0.4882(8) 0.5349(3) 0.0117(3)
S10_2 S 0.3427(4) 0.5442(2) 0.09994(16)
C1_4 C 0.6876(9) 0.2421(3) 0.7362(3)
C2_4 C 0.8172(9) 0.2249(3) 0.7472(3)
C3_4 C 0.5039(9) 0.3042(3) 0.6909(3)
C4_2 C 0.4839(9) 0.3103(3) 0.7439(3)
C7_2 C 0.4483(9) 0.3862(3) 0.8260(3)
C8_4 C 0.5841(9) 0.4014(4) 0.8203(3)
H1_4 H 0.6312 0.3943 0.7873
C9_4 C 0.6512(10) 0.4273(4) 0.8632(4)
H2_4 H 0.7459 0.4366 0.8594
C10_2 C 0.4568(11) 0.4253(4) 0.9149(4)
H3_2 H 0.4112 0.4338 0.9480
C11_2 C 0.3812(10) 0.3982(4) 0.8738(4)
H4_2 H 0.2871 0.3884 0.8788
C12_4 C 0.5133(9) 0.3785(4) 0.6042(3)
C13_2 C 0.4628(12) 0.4003(6) 0.5550(5)
H5_2 H 0.3739 0.3900 0.5423
C14_4 C 0.5439(13) 0.4361(5) 0.5265(5)
H6_3 H 0.5063 0.4522 0.4945
C15_4 C 0.7200(11) 0.4277(4) 0.5853(4)
H7_4 H 0.8126 0.4358 0.5950
C16_4 C 0.6445(10) 0.3930(4) 0.6195(4)
H8_4 H 0.6822 0.3795 0.6526
C27_4 C 0.9565(10) 0.4085(4) 0.9322(4)
N1_4 N 0.5880(8) 0.4398(3) 0.9103(3)
N5_4 N 0.9116(9) 0.4502(3) 0.9470(3)
S1_4 S 0.5736(2) 0.26275(9) 0.78740(8)
S2_4 S 0.6200(2) 0.24937(10) 0.67113(8)
S3_4 S 0.8868(2) 0.22548(11) 0.81280(9)
S4_4 S 0.9326(2) 0.20370(11) 0.69655(9)
S5_2 S 0.3546(2) 0.35283(9) 0.77309(9)
S6_2 S 0.3991(2) 0.33530(10) 0.64233(9)
H6_4 H 0.4937 0.9522 0.0055
C4_3 C 0.9839(9) 0.1897(3) 0.2561(3)
C7_3 C 0.9483(9) 0.1138(3) 0.1740(3)
C10_3 C 0.9568(11) 0.0747(4) 0.0851(4)
H3_3 H 0.9112 0.0662 0.0520
C11_3 C 0.8812(10) 0.1018(4) 0.1262(4)
H4_3 H 0.7871 0.1116 0.1212
C13_3 C 0.9628(12) 0.0997(6) 0.4450(5)
H5_3 H 0.8739 0.1100 0.4577
S5_3 S 0.8546(2) 0.14717(9) 0.22691(9)
S6_3 S 0.8991(2) 0.16470(10) 0.35767(9)
C28_3 C 0.9355(9) 0.9647(4) 0.9530(3)
N6_3 N 0.9882(8) 0.9651(3) 0.9883(3)
S10_3 S 0.8427(4) 0.9558(2) 0.90006(16)
C4_4 C 0.0161(9) 0.6897(3) 0.2439(3)
C7_4 C 0.0517(9) 0.6138(3) 0.3260(3)
C10_4 C 0.0432(11) 0.5747(4) 0.4149(4)
H3_4 H 0.0888 0.5662 0.4480
C11_4 C 0.1188(10) 0.6018(4) 0.3738(4)
H4_4 H 0.2129 0.6116 0.3788
C13_4 C 0.0372(12) 0.5997(6) 0.0550(5)
H5_4 H 0.1261 0.6100 0.0423
C28_4 C 0.0645(9) 0.4647(4) 0.5470(3)
N6_4 N 0.0118(8) 0.4651(3) 0.5117(3)
S5_4 S 0.1454(2) 0.64717(9) 0.27309(9)
S6_4 S 0.1009(2) 0.66470(10) 0.14233(9)
S10_4 S 0.1573(4) 0.4558(2) 0.59994(16)
loop_
_geom_bond_atom_site_label_1
_geom_bond_atom_site_label_2
_geom_bond_site_symmetry_1
_geom_bond_site_symmetry_2
C28 N6 1_555 1_555
S10 C28 1_555 1_555
C1 C2 1_555 1_555
C2 S3 1_555 1_555
C3 C4 1_555 1_555
C4 S1 1_555 1_555
C7 C8 1_555 1_555
C8 H1 1_555 1_555
C9 C8 1_555 1_555
H2 C9 1_555 1_555
C10 H3 1_555 1_555
C11 C7 1_555 1_555
H4 C11 1_555 1_555
C12 C13 1_555 1_555
C13 H5 1_555 1_555
C14 C13 1_555 1_555
C15 H7 1_555 1_555
C16 C12 1_555 1_555
H8 C16 1_555 1_555
C27 N5 1_555 1_555
N1 C9 1_555 1_555
N2 C14 1_555 1_555
N5 Cd1 1_555 1_555
S1 C1 1_555 1_555
S2 C1 1_555 1_555
S4 C2 1_555 1_555
S5 C4 1_555 1_555
S6 C3 1_555 1_555
Cd1 N1 1_555 1_555
N8 Cd1 1_555 1_555
C3 S2 1_555 1_555
C7 S5 1_555 1_555
C10 C11 1_555 1_555
C10 N1 1_555 1_555
C12 S6 1_555 1_555
C15 C16 1_555 1_555
C15 N2 1_555 1_555
C5 C6 1_555 1_555
C17 C18 1_555 1_555
C18 H9 1_555 1_555
C19 C18 1_555 1_555
H10 C19 1_555 1_555
C20 H11 1_555 1_555
C21 C17 1_555 1_555
H12 C21 1_555 1_555
C22 C23 1_555 1_555
C23 H13 1_555 1_555
C24 C23 1_555 1_555
H14 C24 1_555 1_555
C25 H15 1_555 1_555
C26 C22 1_555 1_555
H16 C26 1_555 1_555
N3 C19 1_555 1_555
N4 C24 1_555 1_555
S7 C6 1_555 1_555
S8 C5 1_555 1_555
Cd3 N3 1_555 1_555
Cd4 N4 1_555 1_555
C17 S7 1_555 1_555
C20 C21 1_555 1_555
C20 N3 1_555 1_555
C22 S8 1_555 1_555
C25 C26 1_555 1_555
C25 N4 1_555 1_555
C1_2 C2_2 1_555 1_555
C2_2 S3_2 1_555 1_555
C5_2 C6_2 1_555 1_555
C6_2 S3_2 1_555 1_555
C8_2 H1_2 1_555 1_555
C9_2 C8_2 1_555 1_555
H2_2 C9_2 1_555 1_555
H6 C14_2 1_555 1_555
C15_2 H7_2 1_555 1_555
C16_2 C12_2 1_555 1_555
H8_2 C16_2 1_555 1_555
C17_2 C18_2 1_555 1_555
C18_2 H9_2 1_555 1_555
C19_2 C18_2 1_555 1_555
C20_2 H11_2 1_555 1_555
C21_2 C17_2 1_555 1_555
H12_2 C21_2 1_555 1_555
C22_2 C23_2 1_555 1_555
C23_2 H13_2 1_555 1_555
C24_2 C23_2 1_555 1_555
H14_2 C24_2 1_555 1_555
C25_2 H15_2 1_555 1_555
C26_2 C22_2 1_555 1_555
H16_2 C26_2 1_555 1_555
C27_2 N5_2 1_555 1_555
N1_2 C9_2 1_555 1_555
N7 C14_2 1_555 1_555
N3_2 C19_2 1_555 1_555
N4_2 C24_2 1_555 1_555
N5_2 Cd2 1_555 1_555
S1_2 C1_2 1_555 1_555
S2_2 C1_2 1_555 1_555
S4_2 C2_2 1_555 1_555
S7_2 C6_2 1_555 1_555
S8_2 C5_2 1_555 1_555
S9_2 C27_2 1_555 1_555
Cd2 N1_2 1_555 1_555
Cd3 N4_2 1_555 1_555
C3_2 S2_2 1_555 1_555
C5_2 S4_2 1_555 1_555
C15_2 C16_2 1_555 1_555
C15_2 N7 1_555 1_555
C17_2 S7_2 1_555 1_555
C20_2 C21_2 1_555 1_555
C20_2 N3_2 1_555 1_555
C22_2 S8_2 1_555 1_555
C25_2 C26_2 1_555 1_555
C25_2 N4_2 1_555 1_555
C1_3 C2_3 1_555 1_555
C2_3 S3_3 1_555 1_555
C5_3 C6_3 1_555 1_555
C6_3 S3_3 1_555 1_555
C8_3 H1_3 1_555 1_555
C9_3 C8_3 1_555 1_555
H2_3 C9_3 1_555 1_555
C15_3 H7_3 1_555 1_555
C16_3 C12_3 1_555 1_555
H8_3 C16_3 1_555 1_555
C17_3 C18_3 1_555 1_555
C18_3 H9_3 1_555 1_555
C19_3 C18_3 1_555 1_555
H10_3 C19_3 1_555 1_555
C20_3 H11_3 1_555 1_555
C21_3 C17_3 1_555 1_555
H12_3 C21_3 1_555 1_555
C22_3 C23_3 1_555 1_555
C23_3 H13_3 1_555 1_555
C24_3 C23_3 1_555 1_555
H14_3 C24_3 1_555 1_555
C25_3 H15_3 1_555 1_555
C26_3 C22_3 1_555 1_555
H16_3 C26_3 1_555 1_555
C27_3 N5_3 1_555 1_555
N1_3 C9_3 1_555 1_555
N2_2 C14_3 1_555 1_555
N8 C19_3 1_555 1_555
N9_2 C24_3 1_555 1_555
N5_3 Cd3 1_555 1_555
S1_3 C1_3 1_555 1_555
S2_3 C1_3 1_555 1_555
S4_3 C2_3 1_555 1_555
S7_3 C6_3 1_555 1_555
S8_3 C5_3 1_555 1_555
S9_3 C27_3 1_555 1_555
Cd3 N1_3 1_555 1_555
N7_2 Cd3 1_555 1_555
C3_3 S2_3 1_555 1_555
C5_3 S4_3 1_555 1_555
C15_3 C16_3 1_555 1_555
C15_3 N2_2 1_555 1_555
C17_3 S7_3 1_555 1_555
C20_3 C21_3 1_555 1_555
C20_3 N8 1_555 1_555
C22_3 S8_3 1_555 1_555
C25_3 C26_3 1_555 1_555
C25_3 N9_2 1_555 1_555
C5_4 C6_4 1_555 1_555
C17_4 C18_4 1_555 1_555
C18_4 H9_4 1_555 1_555
C19_4 C18_4 1_555 1_555
C20_4 H11_4 1_555 1_555
C21_4 C17_4 1_555 1_555
H12_4 C21_4 1_555 1_555
C22_4 C23_4 1_555 1_555
C23_4 H13_4 1_555 1_555
C24_4 C23_4 1_555 1_555
H14_4 C24_4 1_555 1_555
C25_4 H15_4 1_555 1_555
C26_4 C22_4 1_555 1_555
H16_4 C26_4 1_555 1_555
N8_2 C19_4 1_555 1_555
N9 C24_4 1_555 1_555
S7_4 C6_4 1_555 1_555
S8_4 C5_4 1_555 1_555
C17_4 S7_4 1_555 1_555
C20_4 C21_4 1_555 1_555
C20_4 N8_2 1_555 1_555
C22_4 S8_4 1_555 1_555
C25_4 C26_4 1_555 1_555
C25_4 N9 1_555 1_555
C28_2 N6_2 1_555 1_555
S10_2 C28_2 1_555 1_555
C1_4 C2_4 1_555 1_555
C2_4 S3_4 1_555 1_555
C3_4 C4_2 1_555 1_555
C4_2 S1_4 1_555 1_555
C7_2 C8_4 1_555 1_555
C8_4 H1_4 1_555 1_555
C9_4 C8_4 1_555 1_555
H2_4 C9_4 1_555 1_555
C10_2 H3_2 1_555 1_555
C11_2 C7_2 1_555 1_555
H4_2 C11_2 1_555 1_555
C12_4 C13_2 1_555 1_555
C13_2 H5_2 1_555 1_555
C14_4 C13_2 1_555 1_555
H6_3 C14_4 1_555 1_555
C15_4 H7_4 1_555 1_555
C16_4 C12_4 1_555 1_555
H8_4 C16_4 1_555 1_555
C27_4 N5_4 1_555 1_555
N1_4 C9_4 1_555 1_555
N7_2 C14_4 1_555 1_555
N5_4 Cd4 1_555 1_555
S1_4 C1_4 1_555 1_555
S2_4 C1_4 1_555 1_555
S4_4 C2_4 1_555 1_555
S5_2 C4_2 1_555 1_555
S6_2 C3_4 1_555 1_555
Cd4 N1_4 1_555 1_555
C3_4 S2_4 1_555 1_555
C7_2 S5_2 1_555 1_555
C10_2 C11_2 1_555 1_555
C10_2 N1_4 1_555 1_555
C12_4 S6_2 1_555 1_555
C15_4 C16_4 1_555 1_555
C15_4 N7_2 1_555 1_555
C10_3 H3_3 1_555 1_555
C11_3 C7_3 1_555 1_555
H4_3 C11_3 1_555 1_555
C13_3 H5_3 1_555 1_555
S5_3 C4_3 1_555 1_555
C7_3 S5_3 1_555 1_555
C10_3 C11_3 1_555 1_555
C28_3 N6_3 1_555 1_555
S10_3 C28_3 1_555 1_555
C10_4 H3_4 1_555 1_555
C11_4 C7_4 1_555 1_555
H4_4 C11_4 1_555 1_555
C13_4 H5_4 1_555 1_555
C28_4 N6_4 1_555 1_555
S5_4 C4_4 1_555 1_555
S10_4 C28_4 1_555 1_555
C7_4 S5_4 1_555 1_555
C10_4 C11_4 1_555 1_555

#END
