
###############################################################################
#
# This file contains modified crystal structure data generated from the
# MOF subset of the Cambridge Structural Database (CSD) v543 
# hosted by the Cambridge Crystallographic Data Centre (CCDC).
#
# This work is licensed under the Creative Commons
# Attribution-NonCommercial-ShareAlike 4.0 International License.
# To view a copy of this license, visit
# http://creativecommons.org/licenses/by-nc-sa/4.0/
# or send a letter to
# Creative Commons, PO Box 1866, Mountain View, CA 94042, USA.
#
# CIF created using the CSD Python API on 29 September 2022
# The structure has been converted into the P1 space group
# The structure has a 3D framework
# The original CSD entry BOSCAQ is in the monoclinic crystal system
# The framework has been calculated to contain at least 10.0% void space
# The void calculation uses a probe of radius 1.32A, grid spacing 0.4
#
###############################################################################

data_BOSCAQ
_chemical_formula_moiety         '(C136 H104 Co8 N16 O44)n'
_symmetry_cell_setting           triclinic
_symmetry_space_group_name_H-M   'P 1'
_symmetry_Int_Tables_number      1
_space_group_name_Hall           'P 1'
loop_
_symmetry_equiv_pos_site_id
_symmetry_equiv_pos_as_xyz
1 x,y,z
_cell_length_a                   14.975(3)
_cell_length_b                   16.724(3)
_cell_length_c                   18.632(4)
_cell_angle_alpha                90
_cell_angle_beta                 112.57(3)
_cell_angle_gamma                90
_cell_volume                     4308.85
loop_
_atom_site_label
_atom_site_type_symbol
_atom_site_fract_x
_atom_site_fract_y
_atom_site_fract_z
H41 H 0.0042 0.4230 0.7564
H46 H 0.0472 0.3167 0.6990
Co9 Co 0.00200(4) 0.65439(3) 0.75615(3)
N5 N 0.5646(2) 0.14145(18) 0.8666(2)
C35 C 0.5293(3) 0.0895(2) 0.9028(2)
H27 H 0.4733 0.0616 0.8738
C36 C 0.5722(3) 0.0752(2) 0.9817(2)
C38 C 0.6450(3) 0.1811(3) 0.9095(3)
H29 H 0.6701 0.2182 0.8850
C39 C 0.6922(4) 0.1696(3) 0.9882(3)
Co7 Co 0.49800(4) 0.15439(3) 0.74385(3)
Co1 Co 0.50200(4) 0.84561(3) 0.25615(3)
Co2 Co 0.48094(4) 0.85368(3) 0.44079(3)
O1 O 0.5712(2) 0.83413(16) 0.38199(16)
O2 O 0.07474(19) 0.46078(14) 0.12000(15)
O3 O 0.37213(19) 0.78266(15) 0.36689(15)
O4 O 0.5904(3) 0.92112(18) 0.52426(19)
O5 O 0.4033(3) 0.8789(2) 0.5087(2)
O6 O 0.6255(2) 0.69501(16) 0.35862(16)
O7 O 0.5779(2) 0.74885(19) 0.24105(17)
O8 O 0.3940(2) 0.77179(19) 0.25510(17)
O9 O 0.0730(3) 0.44570(18) 0.23855(17)
O10 O 0.8073(2) 0.44360(18) 0.11876(17)
N1 N 0.4354(2) 0.85855(18) 0.1334(2)
O11 O 0.8863(2) 0.4182(2) 0.24325(18)
N2 N 0.5393(2) 0.74345(18) 0.50881(19)
N3 N 0.4943(3) 0.52975(18) 0.4786(2)
C1 C 0.2824(3) 0.6855(2) 0.2736(2)
C2 C 0.5394(3) 0.6007(2) 0.5197(2)
C3 C 0.1572(3) 0.5551(2) 0.2174(2)
C4 C 0.7631(3) 0.5133(2) 0.2109(2)
C5 C 0.7084(3) 0.4890(2) 0.2550(2)
C6 C 0.0954(3) 0.4812(2) 0.1893(2)
C7 C 0.6652(3) 0.6294(2) 0.2620(2)
C8 C 0.6584(3) 0.5472(2) 0.2803(2)
C9 C 0.1293(3) 0.6185(2) 0.2550(2)
C10 C 0.5115(3) 0.6710(2) 0.4786(2)
H1 H 0.4707 0.6678 0.4264
C11 C 0.1932(3) 0.6852(2) 0.2843(2)
C12 C 0.4707(3) 0.9105(2) 0.0972(2)
H2 H 0.5267 0.9384 0.1262
C13 C 0.3052(3) 0.6236(2) 0.2349(2)
H3 H 0.3627 0.6254 0.2268
C14 C 0.3545(3) 0.7529(2) 0.3007(2)
C15 C 0.6181(3) 0.6956(2) 0.2897(3)
C16 C 0.4278(3) 0.9248(2) 0.0183(2)
C17 C 0.1633(3) 0.7495(2) 0.3196(3)
H4 H 0.2046 0.7926 0.3396
C18 C 0.7156(3) 0.6501(2) 0.2167(3)
H5 H 0.7174 0.7033 0.2029
C19 C 0.8224(3) 0.4537(2) 0.1886(2)
C20 C 0.7642(3) 0.5923(2) 0.1912(2)
H6 H 0.7977 0.6076 0.1604
C21 C 0.6051(3) 0.6032(2) 0.5955(3)
H7 H 0.6269 0.5567 0.6243
C22 C 0.2429(3) 0.5582(2) 0.2076(2)
H8 H 0.2602 0.5165 0.1825
C23 C 0.6022(3) 0.7461(2) 0.5829(3)
H9 H 0.6230 0.7957 0.6058
C24 C 0.6006(3) 0.5203(3) 0.3214(3)
H10 H 0.5684 0.5575 0.3398
C25 C 0.0382(3) 0.6197(3) 0.2622(3)
C26 C 0.6373(3) 0.6777(2) 0.6267(3)
H12 H 0.6827 0.6821 0.6773
C28 C 0.3550(3) 0.8189(3) 0.0905(3)
H14 H 0.3299 0.7818 0.1150
C29 C 0.6982(3) 0.4062(2) 0.2708(3)
H15 H 0.7317 0.3676 0.2553
C30 C 0.3078(4) 0.8304(3) 0.0118(3)
C31 C 0.0752(4) 0.7488(3) 0.3247(3)
H17 H 0.0562 0.7920 0.3470
C32 C 0.5922(4) 0.4411(3) 0.3338(3)
H18 H 0.5537 0.4248 0.3601
C33 C 0.6406(4) 0.3839(3) 0.3077(3)
H19 H 0.6331 0.3299 0.3159
C34 C 0.0125(4) 0.6833(3) 0.2964(3)
H21 H 0.373(4) 0.844(3) 0.526(3)
H22 H 0.632(3) 0.932(3) 0.522(3)
H23 H 0.579(5) 0.952(4) 0.565(4)
H24 H 0.371(4) 0.913(4) 0.499(3)
H25 H 0.617(4) 0.868(3) 0.390(3)
H26 H 0.601(4) 0.794(3) 0.376(4)
N7 N 0.4607(2) 0.25655(18) 0.49119(19)
N8 N 0.5057(3) 0.47025(18) 0.5214(2)
C40 C 0.4606(3) 0.3993(2) 0.4803(2)
C41 C 0.4885(3) 0.3290(2) 0.5214(2)
H31 H 0.5293 0.3322 0.5736
C42 C 0.3949(3) 0.3968(2) 0.4045(3)
H32 H 0.3731 0.4433 0.3757
C43 C 0.3978(3) 0.2539(2) 0.4171(3)
H33 H 0.3770 0.2043 0.3942
C44 C 0.3627(3) 0.3223(2) 0.3733(3)
H34 H 0.3173 0.3179 0.3227
Co4 Co 0.51906(4) 0.14632(3) 0.55921(3)
O12 O 0.4288(2) 0.16587(16) 0.61801(16)
O13 O 0.92526(19) 0.53922(14) 0.88000(15)
O14 O 0.62787(19) 0.21734(15) 0.63311(15)
O15 O 0.4096(3) 0.07888(18) 0.47574(19)
O16 O 0.5967(3) 0.1211(2) 0.4913(2)
O17 O 0.3745(2) 0.30499(16) 0.64138(16)
O18 O 0.4221(2) 0.25115(19) 0.75895(17)
O19 O 0.6060(2) 0.22821(19) 0.74490(17)
O20 O 0.9270(3) 0.55430(18) 0.76145(17)
O21 O 0.1927(2) 0.55640(18) 0.88124(17)
O22 O 0.1137(2) 0.5818(2) 0.75675(18)
C45 C 0.7176(3) 0.3145(2) 0.7264(2)
C46 C 0.8428(3) 0.4449(2) 0.7826(2)
C47 C 0.2369(3) 0.4867(2) 0.7891(2)
C48 C 0.2916(3) 0.5110(2) 0.7450(2)
C49 C 0.9046(3) 0.5188(2) 0.8107(2)
C50 C 0.3348(3) 0.3706(2) 0.7380(2)
C51 C 0.3416(3) 0.4528(2) 0.7197(2)
C52 C 0.8707(3) 0.3815(2) 0.7450(2)
C53 C 0.8068(3) 0.3148(2) 0.7157(2)
C54 C 0.6948(3) 0.3764(2) 0.7651(2)
H35 H 0.6373 0.3746 0.7732
C55 C 0.6455(3) 0.2471(2) 0.6993(2)
C56 C 0.3819(3) 0.3044(2) 0.7103(3)
C57 C 0.8367(3) 0.2505(2) 0.6804(3)
H36 H 0.7954 0.2074 0.6604
C58 C 0.2844(3) 0.3499(2) 0.7833(3)
H37 H 0.2826 0.2967 0.7971
C59 C 0.1776(3) 0.5463(2) 0.8114(2)
C60 C 0.2358(3) 0.4077(2) 0.8088(2)
H38 H 0.2023 0.3924 0.8396
C61 C 0.7571(3) 0.4418(2) 0.7924(2)
H39 H 0.7398 0.4835 0.8175
C62 C 0.3994(3) 0.4797(3) 0.6786(3)
H40 H 0.4316 0.4425 0.6602
C63 C 0.9618(3) 0.3803(3) 0.7378(3)
C64 C 0.3018(3) 0.5938(2) 0.7292(3)
H42 H 0.2683 0.6324 0.7447
C65 C 0.9248(4) 0.2512(3) 0.6753(3)
H43 H 0.9438 0.2080 0.6530
C66 C 0.4078(4) 0.5589(3) 0.6662(3)
H44 H 0.4463 0.5752 0.6399
C67 C 0.3594(4) 0.6161(3) 0.6923(3)
H45 H 0.3669 0.6701 0.6841
C68 C 0.9875(4) 0.3167(3) 0.7036(3)
H47 H 0.627(4) 0.156(3) 0.474(3)
H48 H 0.368(3) 0.068(3) 0.478(3)
H49 H 0.421(5) 0.048(4) 0.435(4)
H50 H 0.629(4) 0.087(4) 0.501(3)
H51 H 0.383(4) 0.132(3) 0.610(3)
H52 H 0.399(4) 0.206(3) 0.624(4)
Co6 Co 0.99800(4) 0.34561(3) 0.24385(3)
Co10 Co 0.01906(4) 0.35368(3) 0.05921(3)
Co11 Co 0.98094(4) 0.64632(3) 0.94079(3)
O23 O 0.42526(19) 0.96078(14) 0.38000(15)
O24 O 0.57474(19) 0.03922(14) 0.62000(15)
O25 O 0.4270(3) 0.94570(18) 0.26145(17)
O26 O 0.5730(3) 0.05430(18) 0.73855(17)
O27 O 0.6137(2) 0.9182(2) 0.25675(18)
O28 O 0.3863(2) 0.0818(2) 0.74325(18)
H11 H 0.9958 0.5770 0.2436
H20 H 0.9528 0.6833 0.3010
O3_2 O 0.12787(19) 0.28266(15) 0.13311(15)
O8_2 O 0.1060(2) 0.27179(19) 0.24490(17)
N1_2 N 0.0646(2) 0.35855(18) 0.3666(2)
N3_2 N 0.0057(3) 0.02975(18) 0.0214(2)
N4 N 0.0353(3) 0.4806(2) 0.5219(2)
C1_2 C 0.2176(3) 0.1855(2) 0.2264(2)
C3_2 C 0.3428(3) 0.0551(2) 0.2826(2)
C9_2 C 0.3707(3) 0.1185(2) 0.2450(2)
H1_2 H 0.0293 0.1678 0.0736
C11_2 C 0.3068(3) 0.1852(2) 0.2157(2)
C12_2 C 0.0293(3) 0.4105(2) 0.4028(2)
C13_2 C 0.1948(3) 0.1236(2) 0.2651(2)
H3_2 H 0.1373 0.1254 0.2732
C14_2 C 0.1455(3) 0.2529(2) 0.1993(2)
C16_2 C 0.0722(3) 0.4248(2) 0.4817(2)
C17_2 C 0.3367(3) 0.2495(2) 0.1804(3)
H4_2 H 0.2954 0.2926 0.1604
C22_2 C 0.2571(3) 0.0582(2) 0.2924(2)
H8_2 H 0.2398 0.0165 0.3175
C25_2 C 0.4618(3) 0.1197(3) 0.2378(3)
H11_2 H 0.5042 0.0770 0.2564
C27 C 0.1549(4) 0.3839(3) 0.5255(3)
H13 H 0.1848 0.3923 0.5788
C28_2 C 0.1450(3) 0.3189(3) 0.4095(3)
H14_2 H 0.1701 0.2818 0.3850
C30_2 C 0.1922(4) 0.3304(3) 0.4882(3)
H16 H 0.2487 0.3024 0.5159
C31_2 C 0.4248(4) 0.2488(3) 0.1753(3)
H17_2 H 0.4438 0.2920 0.1530
C34_2 C 0.4875(4) 0.1833(3) 0.2036(3)
H20_2 H 0.5472 0.1833 0.1990
H24_2 H 0.129(4) 0.413(4) 0.001(3)
H27_2 H 0.0267 0.5616 0.6262
O5_2 O 0.0967(3) 0.3789(2) 0.9913(2)
H21_2 H 0.127(4) 0.344(3) 0.974(3)
O21_2 O 0.3073(2) 0.05640(18) 0.61876(17)
C48_2 C 0.2084(3) 0.0110(2) 0.7550(2)
C59_2 C 0.3224(3) 0.0463(2) 0.6886(2)
C64_2 C 0.1982(3) 0.0938(2) 0.7708(3)
H42_2 H 0.2317 0.1324 0.7553
C66_2 C 0.0922(4) 0.0589(3) 0.8338(3)
H44_2 H 0.0537 0.0752 0.8601
C67_2 C 0.1406(4) 0.1161(3) 0.8077(3)
H45_2 H 0.1331 0.1701 0.8159
C6_2 C 0.4046(3) 0.9812(2) 0.3107(2)
N7_2 N 0.0393(2) 0.75655(18) 0.00881(19)
C40_2 C 0.0394(3) 0.8993(2) 0.0197(2)
C42_2 C 0.1051(3) 0.8968(2) 0.0955(3)
H32_2 H 0.1269 0.9433 0.1243
C43_2 C 0.1022(3) 0.7539(2) 0.0829(3)
H33_2 H 0.1230 0.7043 0.1058
C44_2 C 0.1373(3) 0.8223(2) 0.1267(3)
H34_2 H 0.1827 0.8179 0.1773
O15_2 O 0.0904(3) 0.57888(18) 0.02426(19)
H48_2 H 0.132(3) 0.568(3) 0.022(3)
H49_2 H 0.079(5) 0.548(4) 0.065(4)
C41_2 C 0.0115(3) 0.8290(2) 0.9786(2)
O12_2 O 0.0712(2) 0.66587(16) 0.88199(16)
O17_2 O 0.1255(2) 0.80499(16) 0.85862(16)
O18_2 O 0.0779(2) 0.75115(19) 0.74105(17)
C47_2 C 0.2631(3) 0.9867(2) 0.7109(2)
C50_2 C 0.1652(3) 0.8706(2) 0.7620(2)
C51_2 C 0.1584(3) 0.9528(2) 0.7803(2)
C56_2 C 0.1181(3) 0.8044(2) 0.7897(3)
C58_2 C 0.2156(3) 0.8499(2) 0.7167(3)
H37_2 H 0.2174 0.7967 0.7029
C60_2 C 0.2642(3) 0.9077(2) 0.6912(2)
H38_2 H 0.2977 0.8924 0.6604
C62_2 C 0.1006(3) 0.9797(3) 0.8214(3)
H40_2 H 0.0684 0.9425 0.8398
H51_2 H 0.117(4) 0.632(3) 0.890(3)
H52_2 H 0.101(4) 0.706(3) 0.876(4)
O1_2 O 0.9288(2) 0.33413(16) 0.11801(16)
O6_2 O 0.8745(2) 0.19501(16) 0.14138(16)
O7_2 O 0.9221(2) 0.24885(19) 0.25895(17)
C4_2 C 0.7369(3) 0.0133(2) 0.2891(2)
C7_2 C 0.8348(3) 0.1294(2) 0.2380(2)
C8_2 C 0.8416(3) 0.0472(2) 0.2197(2)
C10_2 C 0.9885(3) 0.1710(2) 0.0214(2)
H2_2 H 0.9733 0.4384 0.3738
C15_2 C 0.8819(3) 0.1956(2) 0.2103(3)
C18_2 C 0.7844(3) 0.1501(2) 0.2833(3)
H5_2 H 0.7826 0.2033 0.2971
C20_2 C 0.7358(3) 0.0923(2) 0.3088(2)
H6_2 H 0.7023 0.1076 0.3396
C24_2 C 0.8994(3) 0.0203(3) 0.1786(3)
H10_2 H 0.9316 0.0575 0.1602
H25_2 H 0.883(4) 0.368(3) 0.110(3)
H26_2 H 0.899(4) 0.294(3) 0.124(4)
N5_2 N 0.9354(2) 0.64145(18) 0.6334(2)
N6 N 0.9647(3) 0.5194(2) 0.4781(2)
C35_2 C 0.9707(3) 0.5895(2) 0.5972(2)
C36_2 C 0.9278(3) 0.5752(2) 0.5183(2)
C37 C 0.8451(4) 0.6161(3) 0.4745(3)
H28 H 0.8152 0.6077 0.4212
C38_2 C 0.8550(3) 0.6811(3) 0.5905(3)
H29_2 H 0.8299 0.7182 0.6150
C39_2 C 0.8078(4) 0.6696(3) 0.5118(3)
H30 H 0.7513 0.6976 0.4841
O4_2 O 0.9096(3) 0.42112(18) 0.97574(19)
N2_2 N 0.9607(2) 0.24345(18) 0.99119(19)
C2_2 C 0.9606(3) 0.1007(2) 0.9803(2)
C21_2 C 0.8949(3) 0.1032(2) 0.9045(3)
H7_2 H 0.8731 0.0567 0.8757
C23_2 C 0.8978(3) 0.2461(2) 0.9171(3)
H9_2 H 0.8770 0.2957 0.8942
C26_2 C 0.8627(3) 0.1777(2) 0.8733(3)
H12_2 H 0.8173 0.1821 0.8227
H22_2 H 0.868(3) 0.432(3) 0.978(3)
H23_2 H 0.921(5) 0.452(4) 0.935(4)
C49_2 C 0.5954(3) 0.0188(2) 0.6893(2)
O10_2 O 0.6927(2) 0.94360(18) 0.38124(17)
C5_2 C 0.7916(3) 0.9890(2) 0.2450(2)
C19_2 C 0.6776(3) 0.9537(2) 0.3114(2)
C29_2 C 0.8018(3) 0.9062(2) 0.2292(3)
H15_2 H 0.7683 0.8676 0.2447
C32_2 C 0.9078(4) 0.9411(3) 0.1662(3)
H18_2 H 0.9463 0.9248 0.1399
C33_2 C 0.8594(4) 0.8839(3) 0.1923(3)
H19_2 H 0.8669 0.8299 0.1841
O16_2 O 0.9033(3) 0.6211(2) 0.0087(2)
H47_2 H 0.873(4) 0.656(3) 0.026(3)
N8_2 N 0.9943(3) 0.97025(18) 0.9786(2)
H31_2 H 0.9707 0.8322 0.9264
O14_2 O 0.87213(19) 0.71734(15) 0.86689(15)
O19_2 O 0.8940(2) 0.72821(19) 0.75510(17)
C45_2 C 0.7824(3) 0.8145(2) 0.7736(2)
C46_2 C 0.6572(3) 0.9449(2) 0.7174(2)
C52_2 C 0.6293(3) 0.8815(2) 0.7550(2)
C53_2 C 0.6932(3) 0.8148(2) 0.7843(2)
C54_2 C 0.8052(3) 0.8764(2) 0.7349(2)
H35_2 H 0.8627 0.8746 0.7268
C55_2 C 0.8545(3) 0.7471(2) 0.8007(2)
C57_2 C 0.6633(3) 0.7505(2) 0.8196(3)
H36_2 H 0.7046 0.7074 0.8396
C61_2 C 0.7429(3) 0.9418(2) 0.7076(2)
H39_2 H 0.7602 0.9835 0.6825
C63_2 C 0.5382(3) 0.8803(3) 0.7622(3)
H41_2 H 0.4958 0.9230 0.7436
C65_2 C 0.5752(4) 0.7512(3) 0.8247(3)
H43_2 H 0.5562 0.7080 0.8470
C68_2 C 0.5125(4) 0.8167(3) 0.7964(3)
H46_2 H 0.4528 0.8167 0.8010
H50_2 H 0.871(4) 0.587(4) 0.999(3)
N6_2 N 0.5353(3) 0.0194(2) 0.0219(2)
C37_2 C 0.6549(4) 0.1161(3) 0.0255(3)
H28_2 H 0.6848 0.1077 0.0788
H30_2 H 0.7487 0.1976 0.0159
N4_2 N 0.4647(3) 0.9806(2) 0.9781(2)
C27_2 C 0.3451(4) 0.8839(3) 0.9745(3)
H13_2 H 0.3152 0.8923 0.9212
H16_2 H 0.2513 0.8024 0.9841
loop_
_geom_bond_atom_site_label_1
_geom_bond_atom_site_label_2
_geom_bond_site_symmetry_1
_geom_bond_site_symmetry_2
N5 C35 1_555 1_555
C35 H27 1_555 1_555
C38 N5 1_555 1_555
H29 C38 1_555 1_555
Co7 N5 1_555 1_555
C35 C36 1_555 1_555
C38 C39 1_555 1_555
Co1 O1 1_555 1_555
Co2 O1 1_555 1_555
O1 H25 1_555 1_555
O2 C6 1_555 1_555
O3 Co2 1_555 1_555
O4 Co2 1_555 1_555
O5 Co2 1_555 1_555
O6 C15 1_555 1_555
O7 Co1 1_555 1_555
O8 Co1 1_555 1_555
O9 C6 1_555 1_555
O10 C19 1_555 1_555
N1 Co1 1_555 1_555
O11 C19 1_555 1_555
N2 Co2 1_555 1_555
N3 C2 1_555 1_555
C1 C11 1_555 1_555
C2 C10 1_555 1_555
C3 C6 1_555 1_555
C4 C5 1_555 1_555
C5 C8 1_555 1_555
C7 C8 1_555 1_555
C8 C24 1_555 1_555
C9 C3 1_555 1_555
C10 N2 1_555 1_555
H1 C10 1_555 1_555
C11 C9 1_555 1_555
C12 N1 1_555 1_555
H2 C12 1_555 1_555
C13 C1 1_555 1_555
H3 C13 1_555 1_555
C14 O3 1_555 1_555
C15 O7 1_555 1_555
C16 C12 1_555 1_555
C17 C11 1_555 1_555
H4 C17 1_555 1_555
C18 C7 1_555 1_555
H5 C18 1_555 1_555
C19 C4 1_555 1_555
C20 C4 1_555 1_555
H6 C20 1_555 1_555
C21 C2 1_555 1_555
H7 C21 1_555 1_555
C22 C3 1_555 1_555
H8 C22 1_555 1_555
C23 N2 1_555 1_555
H9 C23 1_555 1_555
C24 H10 1_555 1_555
C25 C9 1_555 1_555
C26 C21 1_555 1_555
H12 C26 1_555 1_555
C28 N1 1_555 1_555
H14 C28 1_555 1_555
C29 C5 1_555 1_555
H15 C29 1_555 1_555
C31 C17 1_555 1_555
H17 C31 1_555 1_555
C32 C24 1_555 1_555
H18 C32 1_555 1_555
C33 C29 1_555 1_555
H19 C33 1_555 1_555
C34 C25 1_555 1_555
H21 O5 1_555 1_555
H22 O4 1_555 1_555
H23 O4 1_555 1_555
H24 O5 1_555 1_555
H26 O1 1_555 1_555
N7 C41 1_555 1_555
N8 N3 1_555 1_555
C40 N8 1_555 1_555
C41 C40 1_555 1_555
H31 C41 1_555 1_555
C42 C40 1_555 1_555
H32 C42 1_555 1_555
C43 N7 1_555 1_555
H33 C43 1_555 1_555
C44 C42 1_555 1_555
H34 C44 1_555 1_555
Co7 O12 1_555 1_555
Co4 N7 1_555 1_555
O12 Co4 1_555 1_555
O13 C49 1_555 1_555
O14 Co4 1_555 1_555
O15 Co4 1_555 1_555
O16 Co4 1_555 1_555
O17 C56 1_555 1_555
O18 Co7 1_555 1_555
O19 Co7 1_555 1_555
O20 C49 1_555 1_555
O21 C59 1_555 1_555
O22 C59 1_555 1_555
C45 C53 1_555 1_555
C46 C49 1_555 1_555
C47 C48 1_555 1_555
C48 C51 1_555 1_555
C50 C51 1_555 1_555
C51 C62 1_555 1_555
C52 C46 1_555 1_555
C53 C52 1_555 1_555
C54 C45 1_555 1_555
H35 C54 1_555 1_555
C55 O14 1_555 1_555
C56 O18 1_555 1_555
C57 C53 1_555 1_555
H36 C57 1_555 1_555
C58 C50 1_555 1_555
H37 C58 1_555 1_555
C59 C47 1_555 1_555
C60 C47 1_555 1_555
H38 C60 1_555 1_555
C61 C46 1_555 1_555
H39 C61 1_555 1_555
C62 H40 1_555 1_555
C63 C52 1_555 1_555
C64 C48 1_555 1_555
H42 C64 1_555 1_555
C65 C57 1_555 1_555
H43 C65 1_555 1_555
C66 C62 1_555 1_555
H44 C66 1_555 1_555
C67 C64 1_555 1_555
H45 C67 1_555 1_555
C68 C63 1_555 1_555
H47 O16 1_555 1_555
H48 O15 1_555 1_555
H49 O15 1_555 1_555
H50 O16 1_555 1_555
H51 O12 1_555 1_555
H52 O12 1_555 1_555
Co6 O11 1_555 1_555
Co9 O22 1_555 1_555
Co10 O2 1_555 1_555
Co11 O13 1_555 1_555
O23 Co2 1_555 1_555
O24 Co4 1_555 1_555
O25 Co1 1_555 1_555
O26 Co7 1_555 1_555
O27 Co1 1_555 1_555
O28 Co7 1_555 1_555
O8 C14 1_555 1_555
C1 C14 1_555 1_555
C7 C15 1_555 1_555
C13 C22 1_555 1_555
C18 C20 1_555 1_555
C23 C26 1_555 1_555
C28 C30 1_555 1_555
C31 C34 1_555 1_555
C32 C33 1_555 1_555
C43 C44 1_555 1_555
O19 C55 1_555 1_555
C45 C55 1_555 1_555
C50 C56 1_555 1_555
C54 C61 1_555 1_555
C58 C60 1_555 1_555
C65 C68 1_555 1_555
C66 C67 1_555 1_555
O3_2 Co10 1_555 1_555
N4 C16_2 1_555 1_555
C1_2 C11_2 1_555 1_555
C9_2 C3_2 1_555 1_555
C11_2 C9_2 1_555 1_555
C12_2 N1_2 1_555 1_555
C13_2 C1_2 1_555 1_555
H3_2 C13_2 1_555 1_555
C14_2 O3_2 1_555 1_555
C16_2 C12_2 1_555 1_555
C17_2 C11_2 1_555 1_555
H4_2 C17_2 1_555 1_555
C22_2 C3_2 1_555 1_555
H8_2 C22_2 1_555 1_555
C25_2 C9_2 1_555 1_555
H11_2 C25_2 1_555 1_555
C27 C16_2 1_555 1_555
H13 C27 1_555 1_555
C28_2 N1_2 1_555 1_555
H14_2 C28_2 1_555 1_555
C30_2 C27 1_555 1_555
H16 C30_2 1_555 1_555
C31_2 C17_2 1_555 1_555
H17_2 C31_2 1_555 1_555
C34_2 C25_2 1_555 1_555
H20_2 C34_2 1_555 1_555
O8_2 C14_2 1_555 1_555
C1_2 C14_2 1_555 1_555
C13_2 C22_2 1_555 1_555
C28_2 C30_2 1_555 1_555
C31_2 C34_2 1_555 1_555
H21_2 O5_2 1_555 1_555
O21_2 C59_2 1_555 1_555
O28 C59_2 1_555 1_555
C64_2 C48_2 1_555 1_555
H42_2 C64_2 1_555 1_555
H44_2 C66_2 1_555 1_555
C67_2 C64_2 1_555 1_555
H45_2 C67_2 1_555 1_555
C66_2 C67_2 1_555 1_555
O23 C6_2 1_555 1_555
O25 C6_2 1_555 1_555
C42_2 C40_2 1_555 1_555
H32_2 C42_2 1_555 1_555
C43_2 N7_2 1_555 1_555
H33_2 C43_2 1_555 1_555
C44_2 C42_2 1_555 1_555
H34_2 C44_2 1_555 1_555
H48_2 O15_2 1_555 1_555
H49_2 O15_2 1_555 1_555
C43_2 C44_2 1_555 1_555
Co9 O12_2 1_555 1_555
O17_2 C56_2 1_555 1_555
O18_2 Co9 1_555 1_555
C50_2 C51_2 1_555 1_555
C51_2 C62_2 1_555 1_555
C56_2 O18_2 1_555 1_555
C58_2 C50_2 1_555 1_555
H37_2 C58_2 1_555 1_555
C60_2 C47_2 1_555 1_555
H38_2 C60_2 1_555 1_555
C62_2 H40_2 1_555 1_555
H51_2 O12_2 1_555 1_555
H52_2 O12_2 1_555 1_555
C50_2 C56_2 1_555 1_555
C58_2 C60_2 1_555 1_555
Co6 O1_2 1_555 1_555
O1_2 H25_2 1_555 1_555
O6_2 C15_2 1_555 1_555
O7_2 Co6 1_555 1_555
C7_2 C8_2 1_555 1_555
C8_2 C24_2 1_555 1_555
C15_2 O7_2 1_555 1_555
C18_2 C7_2 1_555 1_555
H5_2 C18_2 1_555 1_555
C20_2 C4_2 1_555 1_555
H6_2 C20_2 1_555 1_555
C24_2 H10_2 1_555 1_555
H26_2 O1_2 1_555 1_555
N5_2 C35_2 1_555 1_555
C36_2 N6 1_555 1_555
C37 C36_2 1_555 1_555
H28 C37 1_555 1_555
C38_2 N5_2 1_555 1_555
H29_2 C38_2 1_555 1_555
C39_2 C37 1_555 1_555
H30 C39_2 1_555 1_555
C7_2 C15_2 1_555 1_555
C18_2 C20_2 1_555 1_555
C35_2 C36_2 1_555 1_555
C38_2 C39_2 1_555 1_555
C21_2 C2_2 1_555 1_555
H7_2 C21_2 1_555 1_555
C23_2 N2_2 1_555 1_555
H9_2 C23_2 1_555 1_555
C26_2 C21_2 1_555 1_555
H12_2 C26_2 1_555 1_555
H22_2 O4_2 1_555 1_555
H23_2 O4_2 1_555 1_555
O24 C49_2 1_555 1_555
O26 C49_2 1_555 1_555
C23_2 C26_2 1_555 1_555
O10_2 C19_2 1_555 1_555
O27 C19_2 1_555 1_555
C29_2 C5_2 1_555 1_555
H15_2 C29_2 1_555 1_555
H18_2 C32_2 1_555 1_555
C33_2 C29_2 1_555 1_555
H19_2 C33_2 1_555 1_555
H47_2 O16_2 1_555 1_555
C32_2 C33_2 1_555 1_555
O14_2 Co11 1_555 1_555
C45_2 C53_2 1_555 1_555
C52_2 C46_2 1_555 1_555
C53_2 C52_2 1_555 1_555
C54_2 C45_2 1_555 1_555
H35_2 C54_2 1_555 1_555
C55_2 O14_2 1_555 1_555
C57_2 C53_2 1_555 1_555
H36_2 C57_2 1_555 1_555
C61_2 C46_2 1_555 1_555
H39_2 C61_2 1_555 1_555
C63_2 C52_2 1_555 1_555
H41_2 C63_2 1_555 1_555
C65_2 C57_2 1_555 1_555
H43_2 C65_2 1_555 1_555
C68_2 C63_2 1_555 1_555
H46_2 C68_2 1_555 1_555
O19_2 C55_2 1_555 1_555
C45_2 C55_2 1_555 1_555
C54_2 C61_2 1_555 1_555
C65_2 C68_2 1_555 1_555
H28_2 C37_2 1_555 1_555
H13_2 C27_2 1_555 1_555

#END
