
###############################################################################
#
# This file contains modified crystal structure data generated from the
# MOF subset of the Cambridge Structural Database (CSD) v543 
# hosted by the Cambridge Crystallographic Data Centre (CCDC).
#
# This work is licensed under the Creative Commons
# Attribution-NonCommercial-ShareAlike 4.0 International License.
# To view a copy of this license, visit
# http://creativecommons.org/licenses/by-nc-sa/4.0/
# or send a letter to
# Creative Commons, PO Box 1866, Mountain View, CA 94042, USA.
#
# CIF created using the CSD Python API on 29 September 2022
# The structure has been converted into the P1 space group
# The structure has a 3D framework
# The original CSD entry BOWNEJ is in the monoclinic crystal system
# The framework has been calculated to contain at least 10.0% void space
# The void calculation uses a probe of radius 1.32A, grid spacing 0.4
# The framework is charged, counterions have been retained in the structure
#
###############################################################################

data_BOWNEJ
_chemical_formula_moiety         '(C84 H64 Cd4 N24 O8)n'
_symmetry_cell_setting           triclinic
_symmetry_space_group_name_H-M   'P 1'
_symmetry_Int_Tables_number      1
_space_group_name_Hall           'P 1'
loop_
_symmetry_equiv_pos_site_id
_symmetry_equiv_pos_as_xyz
1 x,y,z
_cell_length_a                   16.6171(5)
_cell_length_b                   8.1566(2)
_cell_length_c                   20.3047(6)
_cell_angle_alpha                90
_cell_angle_beta                 110.4400(10)
_cell_angle_gamma                90
_cell_volume                     2578.8
loop_
_atom_site_label
_atom_site_type_symbol
_atom_site_fract_x
_atom_site_fract_y
_atom_site_fract_z
O3 O 0.01295(15) 0.3006(2) 0.63590(10)
O4 O 0.03613(15) 0.0590(3) 0.68721(10)
C22 C 0.02040(17) 0.1473(3) 0.63464(13)
C23 C 0.00996(16) 0.0703(3) 0.56467(12)
Cd4 Cd 0.00368(2) 0.11261(2) 0.23780(2)
Cd5 Cd 0.00368(2) 0.38739(2) 0.73780(2)
C24 C 0.02974(19) 0.9069(3) 0.56073(13)
H17 H 0.050068 0.842689 0.602322
C25 C 0.02010(19) 0.8368(3) 0.49668(13)
H18 H 0.034013 0.724446 0.494340
N13 N 0.08705(14) 0.4225(3) 0.34415(11)
N16 N 0.11477(13) 0.7659(2) 0.26070(12)
O6 O 0.03613(15) 0.4410(3) 0.18721(10)
H2 H 0.854924 0.061810 0.071585
C20 C 0.97026(19) 0.0931(3) 0.43927(13)
H15 H 0.949932 0.157311 0.397678
C21 C 0.97990(19) 0.1632(3) 0.50332(13)
H16 H 0.965987 0.275554 0.505660
Cd1 Cd 0.99632(2) 0.61261(2) 0.26220(2)
N1 N 0.82794(13) 0.8165(3) 0.05786(10)
N2 N 0.90874(13) 0.7560(2) 0.16472(11)
N3 N 0.91295(14) 0.9225(3) 0.15585(11)
O1 O 0.98705(15) 0.6994(2) 0.36410(10)
O2 O 0.96387(15) 0.9410(3) 0.31279(10)
C1 C 0.85763(16) 0.6958(3) 0.10566(13)
H1 H 0.843251 0.583138 0.097347
C2 C 0.86404(17) 0.9553(3) 0.09178(13)
C18 C 0.97960(17) 0.8527(3) 0.36536(13)
C19 C 0.99004(16) 0.9297(3) 0.43533(12)
N10 N 0.75686(13) 0.3279(3) 0.23677(14)
N11 N 0.88523(13) 0.2659(2) 0.23930(12)
N12 N 0.87885(13) 0.4334(3) 0.24100(13)
C28 C 0.22992(15) 0.1993(3) 0.01375(12)
C29 C 0.2947(2) 0.0873(4) 0.04001(16)
C30 C 0.3510(2) 0.1038(4) 0.10821(17)
H22 H 0.395426 0.025363 0.126755
C31 C 0.34366(15) 0.2324(4) 0.14986(13)
C32 C 0.27678(19) 0.3423(4) 0.12235(15)
H23 H 0.269867 0.429874 0.150764
C33 C 0.21965(18) 0.3265(4) 0.05391(15)
H24 H 0.174176 0.402890 0.035292
C34 C 0.40872(17) 0.2552(5) 0.22310(14)
H25 H 0.405874 0.159174 0.252028
H26 H 0.392588 0.353179 0.244464
C35 C 0.50041(15) 0.2753(4) 0.22583(14)
C36 C 0.56785(17) 0.2340(4) 0.28600(15)
H27 H 0.556019 0.191440 0.325207
C37 C 0.65224(17) 0.2534(4) 0.29044(17)
H28 H 0.698030 0.226646 0.332523
C38 C 0.66872(16) 0.3116(3) 0.23335(16)
C39 C 0.60358(19) 0.3573(4) 0.17287(17)
H29 H 0.615954 0.400097 0.133942
C40 C 0.51937(18) 0.3395(5) 0.16997(16)
H30 H 0.473805 0.372165 0.128732
C41 C 0.81124(17) 0.2063(3) 0.23664(17)
H31 H 0.797775 0.092783 0.234864
C42 C 0.80143(17) 0.4673(4) 0.23903(19)
H32 H 0.779495 0.574838 0.239168
Cd8 Cd 0.99632(2) 0.88739(2) 0.76220(2)
N4 N 0.24314(13) 0.6721(3) 0.76323(14)
N5 N 0.11477(13) 0.7341(2) 0.76070(12)
N6 N 0.12115(13) 0.5666(3) 0.75900(13)
C3 C 0.77008(15) 0.8007(3) 0.98625(12)
C4 C 0.7053(2) 0.9127(4) 0.95999(16)
C5 C 0.6490(2) 0.8962(4) 0.89179(17)
H4 H 0.604574 0.974637 0.873245
C6 C 0.65634(15) 0.7676(4) 0.85014(13)
C7 C 0.72322(19) 0.6577(4) 0.87765(15)
H5 H 0.730133 0.570126 0.849236
C8 C 0.78035(18) 0.6735(4) 0.94609(15)
H6 H 0.825824 0.597110 0.964708
C9 C 0.59128(17) 0.7448(5) 0.77690(14)
H7 H 0.594126 0.840826 0.747972
H8 H 0.607412 0.646821 0.755536
C10 C 0.49959(15) 0.7247(4) 0.77417(14)
C11 C 0.43215(17) 0.7660(4) 0.71400(15)
H9 H 0.443981 0.808560 0.674793
C12 C 0.34776(17) 0.7466(4) 0.70956(17)
H10 H 0.301970 0.773354 0.667477
C13 C 0.33128(16) 0.6884(3) 0.76665(16)
C14 C 0.39642(19) 0.6427(4) 0.82713(17)
H11 H 0.384046 0.599903 0.866058
C15 C 0.48063(18) 0.6605(5) 0.83003(16)
H12 H 0.526195 0.627835 0.871268
C16 C 0.18876(17) 0.7937(3) 0.76336(17)
H13 H 0.202225 0.907217 0.765136
C17 C 0.19857(17) 0.5327(4) 0.76097(19)
H14 H 0.220505 0.425162 0.760832
N7 N 0.17206(13) 0.1835(3) 0.94214(10)
N8 N 0.09126(13) 0.2440(2) 0.83528(11)
N9 N 0.08705(14) 0.0775(3) 0.84415(11)
C26 C 0.14237(16) 0.3042(3) 0.89434(13)
H19 H 0.156749 0.416862 0.902653
C27 C 0.13596(17) 0.0447(3) 0.90822(13)
H20 H 0.145076 0.938190 0.928415
N14 N 0.91295(14) 0.5775(3) 0.65585(11)
N15 N 0.88523(13) 0.2341(2) 0.73930(12)
O7 O 0.96387(15) 0.5590(3) 0.81279(10)
N1_2 N 0.17206(13) 0.3165(3) 0.44214(10)
N2_2 N 0.09126(13) 0.2560(2) 0.33528(11)
N4_2 N 0.75686(13) 0.1721(3) 0.73677(14)
N6_2 N 0.87885(13) 0.0666(3) 0.74100(13)
O1_2 O 0.01295(15) 0.1994(2) 0.13590(10)
C1_2 C 0.14237(16) 0.1958(3) 0.39434(13)
H1_2 H 0.156749 0.083138 0.402653
C2_2 C 0.13596(17) 0.4553(3) 0.40822(13)
H2_2 H 0.145076 0.561810 0.428415
C3_2 C 0.22992(15) 0.3007(3) 0.51375(12)
C4_2 C 0.2947(2) 0.4127(4) 0.54001(16)
H3 H 0.300926 0.500829 0.511561
C5_2 C 0.3510(2) 0.3962(4) 0.60821(17)
H4_2 H 0.395426 0.474637 0.626755
C6_2 C 0.34366(15) 0.2676(4) 0.64986(13)
C7_2 C 0.27678(19) 0.1577(4) 0.62235(15)
H5_2 H 0.269867 0.070126 0.650764
C8_2 C 0.21965(18) 0.1735(4) 0.55391(15)
H6_2 H 0.174176 0.097110 0.535292
C9_2 C 0.40872(17) 0.2448(5) 0.72310(14)
H7_2 H 0.405874 0.340826 0.752028
H8_2 H 0.392588 0.146821 0.744464
C10_2 C 0.50041(15) 0.2247(4) 0.72583(14)
C11_2 C 0.56785(17) 0.2660(4) 0.78600(15)
H9_2 H 0.556019 0.308560 0.825207
C12_2 C 0.65224(17) 0.2466(4) 0.79044(17)
H10_2 H 0.698030 0.273354 0.832523
C13_2 C 0.66872(16) 0.1884(3) 0.73335(16)
C14_2 C 0.60358(19) 0.1427(4) 0.67287(17)
H11_2 H 0.615954 0.099903 0.633942
C15_2 C 0.51937(18) 0.1605(5) 0.66997(16)
H12_2 H 0.473805 0.127835 0.628732
C16_2 C 0.81124(17) 0.2937(3) 0.73664(17)
H13_2 H 0.797775 0.407217 0.734864
C17_2 C 0.80143(17) 0.0327(4) 0.73903(19)
C18_2 C 0.02040(17) 0.3527(3) 0.13464(13)
C19_2 C 0.00996(16) 0.4297(3) 0.06467(12)
C20_2 C 0.02974(19) 0.5931(3) 0.06073(13)
H15_2 H 0.050068 0.657311 0.102322
H32_2 H 0.220505 0.074838 0.260832
C21_2 C 0.02010(19) 0.6632(3) 0.99668(13)
H16_2 H 0.034013 0.775554 0.994340
H14_2 H 0.779495 0.925162 0.739168
N7_2 N 0.82794(13) 0.6835(3) 0.55786(10)
N8_2 N 0.90874(13) 0.7440(2) 0.66472(11)
N10_2 N 0.24314(13) 0.8279(3) 0.26323(14)
N12_2 N 0.12115(13) 0.9334(3) 0.25900(13)
C26_2 C 0.85763(16) 0.8042(3) 0.60566(13)
H19_2 H 0.843251 0.916862 0.597347
C27_2 C 0.86404(17) 0.5447(3) 0.59178(13)
H20_2 H 0.854924 0.438190 0.571585
C28_2 C 0.77008(15) 0.6993(3) 0.48625(12)
C29_2 C 0.7053(2) 0.5873(4) 0.45999(16)
H21 H 0.699074 0.499171 0.488439
C30_2 C 0.6490(2) 0.6038(4) 0.39179(17)
H22_2 H 0.604574 0.525363 0.373245
C31_2 C 0.65634(15) 0.7324(4) 0.35014(13)
C32_2 C 0.72322(19) 0.8423(4) 0.37765(15)
H23_2 H 0.730133 0.929874 0.349236
C33_2 C 0.78035(18) 0.8265(4) 0.44609(15)
H24_2 H 0.825824 0.902890 0.464708
C34_2 C 0.59128(17) 0.7552(5) 0.27690(14)
H25_2 H 0.594126 0.659174 0.247972
H26_2 H 0.607412 0.853179 0.255536
C35_2 C 0.49959(15) 0.7753(4) 0.27417(14)
C36_2 C 0.43215(17) 0.7340(4) 0.21400(15)
H27_2 H 0.443981 0.691440 0.174793
C37_2 C 0.34776(17) 0.7534(4) 0.20956(17)
H28_2 H 0.301970 0.726646 0.167477
C38_2 C 0.33128(16) 0.8116(3) 0.26665(16)
C39_2 C 0.39642(19) 0.8573(4) 0.32713(17)
H29_2 H 0.384046 0.900097 0.366058
C40_2 C 0.48063(18) 0.8395(5) 0.33003(16)
H30_2 H 0.526195 0.872165 0.371268
C41_2 C 0.18876(17) 0.7063(3) 0.26336(17)
H31_2 H 0.202225 0.592783 0.265136
C42_2 C 0.19857(17) 0.9673(4) 0.26097(19)
O5 O 0.98705(15) 0.8006(2) 0.86410(10)
C25_2 C 0.97990(19) 0.3368(3) 0.00332(13)
H18_2 H 0.965987 0.224446 0.005660
C22_2 C 0.97960(17) 0.6473(3) 0.86536(13)
C23_2 C 0.99004(16) 0.5703(3) 0.93533(12)
C24_2 C 0.97026(19) 0.4069(3) 0.93927(13)
H17_2 H 0.949932 0.342689 0.897678
H3_2 H 0.699074 0.000829 0.988439
H21_2 H 0.300926 0.999171 0.011561
loop_
_geom_bond_atom_site_label_1
_geom_bond_atom_site_label_2
_geom_bond_site_symmetry_1
_geom_bond_site_symmetry_2
O3 C22 1_555 1_555
O4 C22 1_555 1_555
C22 C23 1_555 1_555
Cd5 O3 1_555 1_555
H17 C24 1_555 1_555
H18 C25 1_555 1_555
C24 C25 1_555 1_555
H15 C20 1_555 1_555
C21 C20 1_555 1_555
H16 C21 1_555 1_555
Cd1 N2 1_555 1_555
N1 C1 1_555 1_555
N2 N3 1_555 1_555
N3 C2 1_555 1_555
O1 Cd1 1_555 1_555
O2 C18 1_555 1_555
C1 N2 1_555 1_555
H1 C1 1_555 1_555
C2 N1 1_555 1_555
C18 O1 1_555 1_555
C19 C18 1_555 1_555
N10 C38 1_555 1_555
N11 N12 1_555 1_555
N12 Cd1 1_555 1_555
C29 C28 1_555 1_555
C30 C29 1_555 1_555
H22 C30 1_555 1_555
C31 C30 1_555 1_555
C32 C31 1_555 1_555
H23 C32 1_555 1_555
C33 C28 1_555 1_555
H24 C33 1_555 1_555
C34 C31 1_555 1_555
H25 C34 1_555 1_555
H26 C34 1_555 1_555
C35 C34 1_555 1_555
C36 C35 1_555 1_555
H27 C36 1_555 1_555
C37 C36 1_555 1_555
H28 C37 1_555 1_555
C38 C37 1_555 1_555
C39 C38 1_555 1_555
H29 C39 1_555 1_555
C40 C35 1_555 1_555
H30 C40 1_555 1_555
C41 N10 1_555 1_555
H31 C41 1_555 1_555
C42 N10 1_555 1_555
H32 C42 1_555 1_555
N11 C41 1_555 1_555
N12 C42 1_555 1_555
C32 C33 1_555 1_555
C39 C40 1_555 1_555
N4 C13 1_555 1_555
N5 N6 1_555 1_555
N6 C17 1_555 1_555
C4 C3 1_555 1_555
C5 C4 1_555 1_555
H4 C5 1_555 1_555
C6 C5 1_555 1_555
C7 C6 1_555 1_555
H5 C7 1_555 1_555
C8 C3 1_555 1_555
H6 C8 1_555 1_555
C9 C6 1_555 1_555
H7 C9 1_555 1_555
H8 C9 1_555 1_555
C10 C9 1_555 1_555
C11 C10 1_555 1_555
H9 C11 1_555 1_555
C12 C11 1_555 1_555
H10 C12 1_555 1_555
C13 C12 1_555 1_555
C14 C13 1_555 1_555
H11 C14 1_555 1_555
C15 C10 1_555 1_555
H12 C15 1_555 1_555
C16 N4 1_555 1_555
H13 C16 1_555 1_555
C17 N4 1_555 1_555
H14 C17 1_555 1_555
Cd5 N6 1_555 1_555
N7 C26 1_555 1_555
N8 Cd5 1_555 1_555
N9 N8 1_555 1_555
C26 N8 1_555 1_555
H19 C26 1_555 1_555
C27 N7 1_555 1_555
N5 C16 1_555 1_555
C7 C8 1_555 1_555
C14 C15 1_555 1_555
N9 C27 1_555 1_555
Cd4 N2_2 1_555 1_555
N1_2 C1_2 1_555 1_555
N2_2 N13 1_555 1_555
N13 C2_2 1_555 1_555
N4_2 C13_2 1_555 1_555
N15 N6_2 1_555 1_555
N6_2 C17_2 1_555 1_555
O1_2 Cd4 1_555 1_555
O6 C18_2 1_555 1_555
C1_2 N2_2 1_555 1_555
H1_2 C1_2 1_555 1_555
C2_2 N1_2 1_555 1_555
H2_2 C2_2 1_555 1_555
C3_2 N1_2 1_555 1_555
C4_2 C3_2 1_555 1_555
H3 C4_2 1_555 1_555
C5_2 C4_2 1_555 1_555
H4_2 C5_2 1_555 1_555
C6_2 C5_2 1_555 1_555
C7_2 C6_2 1_555 1_555
H5_2 C7_2 1_555 1_555
C8_2 C3_2 1_555 1_555
H6_2 C8_2 1_555 1_555
C9_2 C6_2 1_555 1_555
H7_2 C9_2 1_555 1_555
H8_2 C9_2 1_555 1_555
C10_2 C9_2 1_555 1_555
C11_2 C10_2 1_555 1_555
H9_2 C11_2 1_555 1_555
C12_2 C11_2 1_555 1_555
H10_2 C12_2 1_555 1_555
C13_2 C12_2 1_555 1_555
C14_2 C13_2 1_555 1_555
H11_2 C14_2 1_555 1_555
C15_2 C10_2 1_555 1_555
H12_2 C15_2 1_555 1_555
C16_2 N4_2 1_555 1_555
H13_2 C16_2 1_555 1_555
C17_2 N4_2 1_555 1_555
C18_2 O1_2 1_555 1_555
C19_2 C18_2 1_555 1_555
C20_2 C19_2 1_555 1_555
H15_2 C20_2 1_555 1_555
N15 C16_2 1_555 1_555
C7_2 C8_2 1_555 1_555
C14_2 C15_2 1_555 1_555
H16_2 C21_2 1_555 1_555
N7_2 C26_2 1_555 1_555
N8_2 Cd8 1_555 1_555
N14 N8_2 1_555 1_555
N10_2 C38_2 1_555 1_555
N16 N12_2 1_555 1_555
C26_2 N8_2 1_555 1_555
H19_2 C26_2 1_555 1_555
C27_2 N7_2 1_555 1_555
H20_2 C27_2 1_555 1_555
C28_2 N7_2 1_555 1_555
C29_2 C28_2 1_555 1_555
H21 C29_2 1_555 1_555
C30_2 C29_2 1_555 1_555
H22_2 C30_2 1_555 1_555
C31_2 C30_2 1_555 1_555
C32_2 C31_2 1_555 1_555
H23_2 C32_2 1_555 1_555
C33_2 C28_2 1_555 1_555
H24_2 C33_2 1_555 1_555
C34_2 C31_2 1_555 1_555
H25_2 C34_2 1_555 1_555
H26_2 C34_2 1_555 1_555
C35_2 C34_2 1_555 1_555
C36_2 C35_2 1_555 1_555
H27_2 C36_2 1_555 1_555
C37_2 C36_2 1_555 1_555
H28_2 C37_2 1_555 1_555
C38_2 C37_2 1_555 1_555
C39_2 C38_2 1_555 1_555
H29_2 C39_2 1_555 1_555
C40_2 C35_2 1_555 1_555
H30_2 C40_2 1_555 1_555
C41_2 N10_2 1_555 1_555
H31_2 C41_2 1_555 1_555
C42_2 N10_2 1_555 1_555
O5 Cd8 1_555 1_555
N14 C27_2 1_555 1_555
N16 C41_2 1_555 1_555
N12_2 C42_2 1_555 1_555
C32_2 C33_2 1_555 1_555
C39_2 C40_2 1_555 1_555
H18_2 C25_2 1_555 1_555
O5 C22_2 1_555 1_555
O7 C22_2 1_555 1_555
C22_2 C23_2 1_555 1_555
C24_2 C23_2 1_555 1_555
H17_2 C24_2 1_555 1_555

#END
