
###############################################################################
#
# This file contains modified crystal structure data generated from the
# MOF subset of the Cambridge Structural Database (CSD) v543 
# hosted by the Cambridge Crystallographic Data Centre (CCDC).
#
# This work is licensed under the Creative Commons
# Attribution-NonCommercial-ShareAlike 4.0 International License.
# To view a copy of this license, visit
# http://creativecommons.org/licenses/by-nc-sa/4.0/
# or send a letter to
# Creative Commons, PO Box 1866, Mountain View, CA 94042, USA.
#
# CIF created using the CSD Python API on 29 September 2022
# The structure has been converted into the P1 space group
# The structure has a 3D framework
# The original CSD entry BOXPOW is in the monoclinic crystal system
# The framework has been calculated to contain at least 10.0% void space
# The void calculation uses a probe of radius 1.32A, grid spacing 0.4
#
###############################################################################

data_BOXPOW
_chemical_formula_moiety         '(C90 H56 Eu6 F6 O32)n'
_symmetry_cell_setting           triclinic
_symmetry_space_group_name_H-M   'P 1'
_symmetry_Int_Tables_number      1
_space_group_name_Hall           'P 1'
loop_
_symmetry_equiv_pos_site_id
_symmetry_equiv_pos_as_xyz
1 x,y,z
_cell_length_a                   9.5953(3)
_cell_length_b                   18.5323(7)
_cell_length_c                   15.7144(5)
_cell_angle_alpha                90
_cell_angle_beta                 95.776(3)
_cell_angle_gamma                90
_cell_volume                     2780.19
loop_
_atom_site_label
_atom_site_type_symbol
_atom_site_fract_x
_atom_site_fract_y
_atom_site_fract_z
Eu2 Eu -0.0000 0.21972(2) 0.2500
O1 O 0.1146(5) 0.1865(3) 0.1283(3)
O2 O 0.1405(5) 0.1142(2) 0.2984(3)
H1 H 0.2297 0.1249 0.3041
H2 H 0.1340 0.0807 0.2591
O3 O 0.3141(5) 0.2459(3) 0.1533(3)
C2 C 0.2866(7) 0.1714(3) 0.0315(4)
C3 C 0.2339(7) 0.2030(3) 0.1103(4)
C10 C 0.4152(8) 0.1911(5) 0.0062(5)
H5 H 0.4681 0.2261 0.0371
Eu5 Eu 0.5000 0.28028(2) 0.2500
O10 O 0.1859(5) 0.2541(3) 0.3467(3)
O13 O 0.0770(5) 0.3416(2) 0.2020(3)
F1 F 0.5000 0.1768(3) 0.7500
C1 C 0.4457(7) 0.0682(4) 0.8174(4)
C4 C 0.5000 0.1037(5) 0.7500
C5 C 0.2085(9) 0.1207(5) 0.9835(5)
H3 H 0.1205 0.1078 0.9986
C7 C 0.2588(9) 0.0884(5) 0.9129(5)
H4 H 0.2049 0.0541 0.8815
C8 C 0.3895(8) 0.1072(4) 0.8892(4)
C12 C 0.4666(8) 0.1598(4) 0.9358(5)
H7 H 0.5531 0.1740 0.9197
O5 O 0.8854(5) 0.1865(3) 0.3717(3)
O6 O 0.6859(5) 0.2459(3) 0.3467(3)
C13 C 0.5543(7) 0.0682(4) 0.6826(4)
C14 C 0.7134(7) 0.1714(3) 0.4685(4)
C15 C 0.7661(7) 0.2030(3) 0.3897(4)
C16 C 0.7915(9) 0.1207(5) 0.5165(5)
H8 H 0.8795 0.1078 0.5014
C17 C 0.7412(9) 0.0884(5) 0.5871(5)
H9 H 0.7951 0.0541 0.6185
C18 C 0.6105(8) 0.1072(4) 0.6108(4)
C19 C 0.5848(8) 0.1911(5) 0.4938(5)
H10 H 0.5319 0.2261 0.4629
C20 C 0.5334(8) 0.1598(4) 0.5642(5)
H11 H 0.4469 0.1740 0.5803
Eu2_2 Eu 1.0000 0.21972(2) 0.2500
O4 O 0.4230(5) 0.8416(2) 0.7980(3)
C6 C 0.5000 0.8744(5) 0.7500
C9 C 0.5000 0.9555(5) 0.7500
C11 C 0.4456(7) 0.9930(4) 0.8149(4)
H6 H 0.4079 0.9675 0.8581
O7 O 0.5770(5) 0.8416(2) 0.7020(3)
C21 C 0.5544(7) 0.9930(4) 0.6851(4)
H12 H 0.5921 0.9675 0.6419
Eu3 Eu 0.5000 0.71972(2) 0.7500
O8 O 0.8595(5) 0.1142(2) 0.2016(3)
H13 H 0.7703 0.1249 0.1959
H14 H 0.8660 0.0807 0.2409
O11 O 0.8141(5) 0.2541(3) 0.1533(3)
O12 O 0.9230(5) 0.3416(2) 0.2980(3)
F1_2 F -0.0000 0.6768(3) 0.2500
C4_2 C -0.0000 0.6037(5) 0.2500
C6_2 C -0.0000 0.3744(5) 0.2500
C9_2 C -0.0000 0.4555(5) 0.2500
H7_2 H 0.0531 0.6740 0.4197
C13_2 C 0.0543(7) 0.5682(4) 0.1826(4)
C16_2 C 0.2915(9) 0.6207(5) 0.0165(5)
H8_2 H 0.3795 0.6078 0.0014
C17_2 C 0.2412(9) 0.5884(5) 0.0871(5)
H9_2 H 0.2951 0.5541 0.1185
C18_2 C 0.1105(8) 0.6072(4) 0.1108(4)
C20_2 C 0.0334(8) 0.6598(4) 0.0642(5)
C21_2 C 0.0544(7) 0.4930(4) 0.1851(4)
H12_2 H 0.0921 0.4675 0.1419
Eu5_2 Eu -0.0000 0.78028(2) 0.7500
O5_2 O 0.3854(5) 0.6865(3) 0.8717(3)
O6_2 O 0.1859(5) 0.7459(3) 0.8467(3)
C14_2 C 0.2134(7) 0.6714(3) 0.9685(4)
C15_2 C 0.2661(7) 0.7030(3) 0.8897(4)
C19_2 C 0.0848(8) 0.6911(5) 0.9938(5)
H10_2 H 0.0319 0.7261 0.9629
O1_2 O 0.6146(5) 0.6865(3) 0.6283(3)
O2_2 O 0.6405(5) 0.6142(2) 0.7984(3)
H1_2 H 0.7297 0.6249 0.8041
H2_2 H 0.6340 0.5807 0.7591
F1_3 F 1.0000 0.6768(3) 0.2500
O3_2 O 0.8141(5) 0.7459(3) 0.6533(3)
C1_2 C 0.9457(7) 0.5682(4) 0.3174(4)
C2_2 C 0.7866(7) 0.6714(3) 0.5315(4)
C3_2 C 0.7339(7) 0.7030(3) 0.6103(4)
C4_3 C 1.0000 0.6037(5) 0.2500
C5_2 C 0.7085(9) 0.6207(5) 0.4835(5)
H3_2 H 0.6205 0.6078 0.4986
C6_3 C 1.0000 0.3744(5) 0.2500
C7_2 C 0.7588(9) 0.5884(5) 0.4129(5)
H4_2 H 0.7049 0.5541 0.3815
C8_2 C 0.8895(8) 0.6072(4) 0.3892(4)
C9_3 C 1.0000 0.4555(5) 0.2500
C10_2 C 0.9152(8) 0.6911(5) 0.5062(5)
H5_2 H 0.9681 0.7261 0.5371
C11_2 C 0.9456(7) 0.4930(4) 0.3149(4)
H6_2 H 0.9079 0.4675 0.3581
C12_2 C 0.9666(8) 0.6598(4) 0.4358(5)
H11_2 H 0.9469 0.6740 0.0803
O8_2 O 0.3595(5) 0.6142(2) 0.7016(3)
H13_2 H 0.2703 0.6249 0.6959
H14_2 H 0.3660 0.5807 0.7409
Eu5_3 Eu 1.0000 0.78028(2) 0.7500
O10_2 O 0.6859(5) 0.7541(3) 0.8467(3)
O11_2 O 0.3141(5) 0.7541(3) 0.6533(3)
O8_3 O 0.1405(5) 0.8858(2) 0.7984(3)
H13_3 H 0.2297 0.8751 0.8041
H14_3 H 0.1340 0.9193 0.7591
O9 O 0.1146(5) 0.8135(3) 0.6283(3)
O12_2 O 0.0770(5) 0.6584(2) 0.7020(3)
O4_2 O 0.5770(5) 0.1584(2) 0.2020(3)
C6_4 C 0.5000 0.1256(5) 0.2500
C9_4 C 0.5000 0.0445(5) 0.2500
C11_3 C 0.5544(7) 0.0070(4) 0.1851(4)
H6_3 H 0.5921 0.0325 0.1419
O7_2 O 0.4230(5) 0.1584(2) 0.2980(3)
C21_3 C 0.4456(7) 0.0070(4) 0.3149(4)
H12_3 H 0.4079 0.0325 0.3581
F1_4 F 0.5000 0.8232(3) 0.2500
C1_3 C 0.5543(7) 0.9318(4) 0.1826(4)
C4_4 C 0.5000 0.8963(5) 0.2500
C5_3 C 0.7915(9) 0.8793(5) 0.0165(5)
H3_3 H 0.8795 0.8922 0.0014
C7_3 C 0.7412(9) 0.9116(5) 0.0871(5)
H4_3 H 0.7951 0.9459 0.1185
C8_3 C 0.6105(8) 0.8928(4) 0.1108(4)
C12_3 C 0.5334(8) 0.8402(4) 0.0642(5)
H7_3 H 0.4469 0.8260 0.0803
C13_3 C 0.4457(7) 0.9318(4) 0.3174(4)
C14_3 C 0.2866(7) 0.8286(3) 0.5315(4)
C15_3 C 0.2339(7) 0.7970(3) 0.6103(4)
C16_3 C 0.2085(9) 0.8793(5) 0.4835(5)
H8_3 H 0.1205 0.8922 0.4986
C17_3 C 0.2588(9) 0.9116(5) 0.4129(5)
H9_3 H 0.2049 0.9459 0.3815
C18_3 C 0.3895(8) 0.8928(4) 0.3892(4)
C19_3 C 0.4152(8) 0.8089(5) 0.5062(5)
H10_3 H 0.4681 0.7739 0.5371
C20_3 C 0.4666(8) 0.8402(4) 0.4358(5)
H11_3 H 0.5531 0.8260 0.4197
O1_3 O 0.8854(5) 0.8135(3) 0.8717(3)
O2_3 O 0.8595(5) 0.8858(2) 0.7016(3)
H1_3 H 0.7703 0.8751 0.6959
H2_3 H 0.8660 0.9193 0.7409
C2_3 C 0.7134(7) 0.8286(3) 0.9685(4)
C3_3 C 0.7661(7) 0.7970(3) 0.8897(4)
C10_3 C 0.5848(8) 0.8089(5) 0.9938(5)
H5_3 H 0.5319 0.7739 0.9629
O13_2 O 0.9230(5) 0.6584(2) 0.7980(3)
O1_4 O 0.3854(5) 0.3135(3) 0.3717(3)
O2_4 O 0.3595(5) 0.3858(2) 0.2016(3)
H1_4 H 0.2703 0.3751 0.1959
H2_4 H 0.3660 0.4193 0.2409
F1_5 F 0.0000 0.3232(3) 0.7500
C1_4 C 0.0543(7) 0.4318(4) 0.6826(4)
C2_4 C 0.2134(7) 0.3286(3) 0.4685(4)
C3_4 C 0.2661(7) 0.2970(3) 0.3897(4)
C4_5 C 0.0000 0.3963(5) 0.7500
C5_4 C 0.2915(9) 0.3793(5) 0.5165(5)
H3_4 H 0.3795 0.3922 0.5014
C6_5 C 0.0000 0.6256(5) 0.7500
C7_4 C 0.2412(9) 0.4116(5) 0.5871(5)
H4_4 H 0.2951 0.4459 0.6185
C8_4 C 0.1105(8) 0.3928(4) 0.6108(4)
C9_5 C 0.0000 0.5445(5) 0.7500
C10_4 C 0.0848(8) 0.3089(5) 0.4938(5)
H5_4 H 0.0319 0.2739 0.4629
C11_4 C 0.0544(7) 0.5070(4) 0.6851(4)
H6_4 H 0.0921 0.5325 0.6419
C12_4 C 0.0334(8) 0.3402(4) 0.5642(5)
H11_4 H 0.0531 0.3260 0.9197
O8_4 O 0.6405(5) 0.3858(2) 0.2984(3)
H13_4 H 0.7297 0.3751 0.3041
H14_4 H 0.6340 0.4193 0.2591
O9_2 O 0.6146(5) 0.3135(3) 0.1283(3)
C14_4 C 0.7866(7) 0.3286(3) 0.0315(4)
C15_4 C 0.7339(7) 0.2970(3) 0.1103(4)
C19_4 C 0.9152(8) 0.3089(5) 0.0062(5)
H10_4 H 0.9681 0.2739 0.0371
F1_6 F 1.0000 0.3232(3) 0.7500
C4_6 C 1.0000 0.3963(5) 0.7500
C6_6 C 1.0000 0.6256(5) 0.7500
C9_6 C 1.0000 0.5445(5) 0.7500
H7_4 H 0.9469 0.3260 0.5803
C13_4 C 0.9457(7) 0.4318(4) 0.8174(4)
C16_4 C 0.7085(9) 0.3793(5) 0.9835(5)
H8_4 H 0.6205 0.3922 0.9986
C17_4 C 0.7588(9) 0.4116(5) 0.9129(5)
H9_4 H 0.7049 0.4459 0.8815
C18_4 C 0.8895(8) 0.3928(4) 0.8892(4)
C20_4 C 0.9666(8) 0.3402(4) 0.9358(5)
C21_4 C 0.9456(7) 0.5070(4) 0.8149(4)
H12_4 H 0.9079 0.5325 0.8581
loop_
_geom_bond_atom_site_label_1
_geom_bond_atom_site_label_2
_geom_bond_site_symmetry_1
_geom_bond_site_symmetry_2
Eu2 O1 1_555 1_555
O1 C3 1_555 1_555
O2 Eu2 1_555 1_555
H1 O2 1_555 1_555
H2 O2 1_555 1_555
O3 C3 1_555 1_555
C2 C3 1_555 1_555
C10 C2 1_555 1_555
H5 C10 1_555 1_555
Eu5 O3 1_555 1_555
O10 Eu2 1_555 1_555
O13 Eu2 1_555 1_555
F1 C4 1_555 1_555
C1 C4 1_555 1_555
C4 C13 1_555 1_555
H3 C5 1_555 1_555
C7 C5 1_555 1_555
H4 C7 1_555 1_555
C8 C1 1_555 1_555
C12 C8 1_555 1_555
H7 C12 1_555 1_555
O5 C15 1_555 1_555
O6 C15 1_555 1_555
C13 C18 1_555 1_555
C14 C15 1_555 1_555
C16 C14 1_555 1_555
H8 C16 1_555 1_555
C17 C16 1_555 1_555
H9 C17 1_555 1_555
C18 C17 1_555 1_555
C19 C14 1_555 1_555
H10 C19 1_555 1_555
C20 C18 1_555 1_555
H11 C20 1_555 1_555
Eu2_2 O5 1_555 1_555
Eu5 O6 1_555 1_555
C7 C8 1_555 1_555
C19 C20 1_555 1_555
O4 C6 1_555 1_555
C6 C9 1_555 1_555
C9 C11 1_555 1_555
H6 C11 1_555 1_555
O7 C6 1_555 1_555
C21 C9 1_555 1_555
H12 C21 1_555 1_555
Eu3 O4 1_555 1_555
O7 Eu3 1_555 1_555
O8 Eu2_2 1_555 1_555
H13 O8 1_555 1_555
H14 O8 1_555 1_555
O11 Eu2_2 1_555 1_555
O12 Eu2_2 1_555 1_555
F1_2 C4_2 1_555 1_555
C4_2 C13_2 1_555 1_555
C6_2 C9_2 1_555 1_555
C13_2 C18_2 1_555 1_555
H8_2 C16_2 1_555 1_555
C17_2 C16_2 1_555 1_555
H9_2 C17_2 1_555 1_555
C18_2 C17_2 1_555 1_555
C20_2 C18_2 1_555 1_555
O13 C6_2 1_555 1_555
C21_2 C9_2 1_555 1_555
H12_2 C21_2 1_555 1_555
C13_2 C21_2 1_555 1_555
O5_2 C15_2 1_555 1_555
O6_2 C15_2 1_555 1_555
C14_2 C15_2 1_555 1_555
C19_2 C14_2 1_555 1_555
H10_2 C19_2 1_555 1_555
Eu3 O5_2 1_555 1_555
Eu5_2 O6_2 1_555 1_555
Eu3 O1_2 1_555 1_555
O1_2 C3_2 1_555 1_555
O2_2 Eu3 1_555 1_555
H1_2 O2_2 1_555 1_555
H2_2 O2_2 1_555 1_555
F1_3 C4_3 1_555 1_555
O3_2 C3_2 1_555 1_555
O12 C6_3 1_555 1_555
C1_2 C4_3 1_555 1_555
C2_2 C3_2 1_555 1_555
C5_2 C2_2 1_555 1_555
H3_2 C5_2 1_555 1_555
C6_3 C9_3 1_555 1_555
C7_2 C5_2 1_555 1_555
H4_2 C7_2 1_555 1_555
C8_2 C1_2 1_555 1_555
C9_3 C11_2 1_555 1_555
C10_2 C2_2 1_555 1_555
H5_2 C10_2 1_555 1_555
C11_2 C1_2 1_555 1_555
H6_2 C11_2 1_555 1_555
C12_2 C8_2 1_555 1_555
O8_2 Eu3 1_555 1_555
H13_2 O8_2 1_555 1_555
H14_2 O8_2 1_555 1_555
Eu5_3 O3_2 1_555 1_555
O10_2 Eu3 1_555 1_555
O11_2 Eu3 1_555 1_555
C7_2 C8_2 1_555 1_555
C10_2 C12_2 1_555 1_555
O8_3 Eu5_2 1_555 1_555
H13_3 O8_3 1_555 1_555
H14_3 O8_3 1_555 1_555
O9 Eu5_2 1_555 1_555
O12_2 Eu5_2 1_555 1_555
O4_2 C6_4 1_555 1_555
C6_4 C9_4 1_555 1_555
C9_4 C11_3 1_555 1_555
H6_3 C11_3 1_555 1_555
O7_2 C6_4 1_555 1_555
C21_3 C9_4 1_555 1_555
H12_3 C21_3 1_555 1_555
Eu5 O4_2 1_555 1_555
O7_2 Eu5 1_555 1_555
F1_4 C4_4 1_555 1_555
C1_3 C4_4 1_555 1_555
C4_4 C13_3 1_555 1_555
H3_3 C5_3 1_555 1_555
C7_3 C5_3 1_555 1_555
H4_3 C7_3 1_555 1_555
C8_3 C1_3 1_555 1_555
C12_3 C8_3 1_555 1_555
H7_3 C12_3 1_555 1_555
O9 C15_3 1_555 1_555
O11_2 C15_3 1_555 1_555
C13_3 C18_3 1_555 1_555
C14_3 C15_3 1_555 1_555
C16_3 C14_3 1_555 1_555
H8_3 C16_3 1_555 1_555
C17_3 C16_3 1_555 1_555
H9_3 C17_3 1_555 1_555
C18_3 C17_3 1_555 1_555
C19_3 C14_3 1_555 1_555
H10_3 C19_3 1_555 1_555
C20_3 C18_3 1_555 1_555
H11_3 C20_3 1_555 1_555
C7_3 C8_3 1_555 1_555
C19_3 C20_3 1_555 1_555
Eu5_3 O1_3 1_555 1_555
O1_3 C3_3 1_555 1_555
O2_3 Eu5_3 1_555 1_555
H1_3 O2_3 1_555 1_555
H2_3 O2_3 1_555 1_555
O10_2 C3_3 1_555 1_555
C2_3 C3_3 1_555 1_555
C10_3 C2_3 1_555 1_555
H5_3 C10_3 1_555 1_555
O13_2 Eu5_3 1_555 1_555
Eu5 O1_4 1_555 1_555
O1_4 C3_4 1_555 1_555
O2_4 Eu5 1_555 1_555
H1_4 O2_4 1_555 1_555
H2_4 O2_4 1_555 1_555
F1_5 C4_5 1_555 1_555
O10 C3_4 1_555 1_555
O12_2 C6_5 1_555 1_555
C1_4 C4_5 1_555 1_555
C2_4 C3_4 1_555 1_555
C5_4 C2_4 1_555 1_555
H3_4 C5_4 1_555 1_555
C6_5 C9_5 1_555 1_555
C7_4 C5_4 1_555 1_555
H4_4 C7_4 1_555 1_555
C8_4 C1_4 1_555 1_555
C9_5 C11_4 1_555 1_555
C10_4 C2_4 1_555 1_555
H5_4 C10_4 1_555 1_555
C11_4 C1_4 1_555 1_555
H6_4 C11_4 1_555 1_555
C12_4 C8_4 1_555 1_555
O8_4 Eu5 1_555 1_555
H13_4 O8_4 1_555 1_555
H14_4 O8_4 1_555 1_555
O9_2 Eu5 1_555 1_555
C7_4 C8_4 1_555 1_555
C10_4 C12_4 1_555 1_555
O9_2 C15_4 1_555 1_555
O11 C15_4 1_555 1_555
C14_4 C15_4 1_555 1_555
C19_4 C14_4 1_555 1_555
H10_4 C19_4 1_555 1_555
F1_6 C4_6 1_555 1_555
C4_6 C13_4 1_555 1_555
C6_6 C9_6 1_555 1_555
C13_4 C18_4 1_555 1_555
H8_4 C16_4 1_555 1_555
C17_4 C16_4 1_555 1_555
H9_4 C17_4 1_555 1_555
C18_4 C17_4 1_555 1_555
C20_4 C18_4 1_555 1_555
O13_2 C6_6 1_555 1_555
C21_4 C9_6 1_555 1_555
H12_4 C21_4 1_555 1_555
C13_4 C21_4 1_555 1_555

#END
