
###############################################################################
#
# This file contains modified crystal structure data generated from the
# MOF subset of the Cambridge Structural Database (CSD) v543 
# hosted by the Cambridge Crystallographic Data Centre (CCDC).
#
# This work is licensed under the Creative Commons
# Attribution-NonCommercial-ShareAlike 4.0 International License.
# To view a copy of this license, visit
# http://creativecommons.org/licenses/by-nc-sa/4.0/
# or send a letter to
# Creative Commons, PO Box 1866, Mountain View, CA 94042, USA.
#
# CIF created using the CSD Python API on 29 September 2022
# The structure has been converted into the P1 space group
# The structure has a 3D framework
# The original CSD entry BOXRAK is in the triclinic crystal system
# The framework has been calculated to contain at least 10.0% void space
# The void calculation uses a probe of radius 1.32A, grid spacing 0.4
#
###############################################################################

data_BOXRAK
_chemical_formula_moiety         '(C84 H52 Cd5 N16 O24)n'
_symmetry_cell_setting           triclinic
_symmetry_space_group_name_H-M   'P 1'
_symmetry_Int_Tables_number      1
_space_group_name_Hall           'P 1'
loop_
_symmetry_equiv_pos_site_id
_symmetry_equiv_pos_as_xyz
1 x,y,z
_cell_length_a                   10.2682(9)
_cell_length_b                   15.9251(14)
_cell_length_c                   17.0692(15)
_cell_angle_alpha                85.1870(10)
_cell_angle_beta                 77.2170(10)
_cell_angle_gamma                85.9610(10)
_cell_volume                     2708.55
loop_
_atom_site_label
_atom_site_type_symbol
_atom_site_fract_x
_atom_site_fract_y
_atom_site_fract_z
C1 C 0.3014(9) 0.6621(6) 0.0633(6)
C2 C 0.4047(9) 0.6715(6) 0.1002(6)
H1 H 0.3859 0.6940 0.1516
C3 C 0.5380(9) 0.6486(6) 0.0640(6)
C7 C 0.1592(9) 0.6825(6) 0.1042(6)
C8 C 0.6500(9) 0.6600(6) 0.1049(6)
C22 C 0.0224(10) 0.4129(6) 0.0935(6)
H9 H 0.0814 0.3906 0.0481
C23 C 0.0063(10) 0.4998(6) 0.1015(6)
H10 H 0.0555 0.5361 0.0602
H11 H 0.0217 0.2478 0.0942
C33 C 0.0715(10) 0.3607(7) 0.3574(7)
C34 C 0.1488(10) 0.3997(6) 0.2875(6)
H19 H 0.2030 0.3663 0.2479
C35 C 0.1463(10) 0.4867(6) 0.2763(6)
H20 H 0.1985 0.5119 0.2281
C36 C 0.0669(11) 0.2698(7) 0.3724(7)
H21 H 0.0176 0.2458 0.4221
C37 C 0.1505(13) 0.0902(8) 0.2843(8)
H22 H 0.1962 0.1155 0.2343
N5 N 0.0725(8) 0.5372(5) 0.3311(5)
N6 N 0.1289(10) 0.2229(6) 0.3187(6)
N7 N 0.1051(11) 0.1366(6) 0.3413(6)
O1 O 0.0729(6) 0.6911(4) 0.0605(4)
O2 O 0.1288(6) 0.6863(4) 0.1792(4)
O3 O 0.6312(6) 0.6498(4) 0.1799(4)
O4 O 0.7613(6) 0.6757(4) 0.0611(4)
Cd2 Cd 0.09276(7) 0.68031(4) 0.31701(4)
Cd3 Cd 0.49616(8) 0.54210(5) 0.24615(4)
N10 N 0.1093(8) 0.8239(5) 0.3021(5)
O15 O 0.4032(7) 0.4740(4) 0.1538(4)
O16 O 0.6207(7) 0.4631(4) 0.1469(4)
O17 O 0.3839(7) 0.4630(4) 0.3556(4)
O18 O 0.5983(7) 0.4716(4) 0.3475(4)
O19 O 0.2103(6) 0.6760(4) 0.4203(4)
O20 O 0.3440(6) 0.6494(4) 0.3015(4)
Cd5 Cd 0.87984(7) 0.67866(4) 0.16011(4)
C4 C 0.5633(10) 0.6125(6) 0.9875(6)
H2 H 0.6521 0.5975 0.9606
C5 C 0.4566(10) 0.6000(6) 0.9534(6)
C6 C 0.3283(9) 0.6256(6) 0.9900(6)
H3 H 0.2568 0.6183 0.9645
C9 C 0.4797(10) 0.5520(7) 0.8786(6)
O5 O 0.5968(7) 0.5260(4) 0.8462(4)
O6 O 0.3793(7) 0.5369(4) 0.8531(4)
Cd10 Cd 0.50384(8) 0.45790(5) 0.75385(4)
C38 C 0.1363(13) 0.9991(8) 0.2914(8)
C39 C 0.0645(12) 0.9549(8) 0.3615(8)
H23 H 0.0267 0.9833 0.4087
C40 C 0.0510(12) 0.8707(7) 0.3593(7)
C41 C 0.1799(11) 0.8637(7) 0.2354(7)
H25 H 0.2217 0.8318 0.1912
C42 C 0.1932(12) 0.9481(7) 0.2298(8)
H26 H 0.2438 0.9735 0.1812
C10 C 0.6738(9) 0.6588(6) 0.4158(6)
C11 C 0.6530(9) 0.6247(6) 0.4953(6)
H4 H 0.7250 0.6186 0.5224
C12 C 0.5267(9) 0.5995(6) 0.5351(6)
C13 C 0.4197(10) 0.6139(6) 0.4968(6)
H5 H 0.3321 0.6005 0.5247
C14 C 0.4418(9) 0.6480(6) 0.4174(6)
C15 C 0.5679(9) 0.6678(6) 0.3774(6)
H6 H 0.5829 0.6880 0.3224
C16 C 0.8137(9) 0.6795(6) 0.3734(6)
C17 C 0.5114(10) 0.5522(7) 0.6155(6)
C18 C 0.3237(10) 0.6575(6) 0.3783(6)
C19 C 0.8560(10) 0.4828(6) 0.2223(6)
H7 H 0.7985 0.5068 0.2674
C20 C 0.8645(10) 0.3961(6) 0.2195(6)
H8 H 0.8134 0.3615 0.2615
C21 C 0.9502(10) 0.3602(7) 0.1535(7)
C24 C 0.9621(11) 0.2684(7) 0.1403(7)
C25 C 0.8386(13) 0.0825(8) 0.2095(8)
H12 H 0.7775 0.1023 0.2554
C31 C 0.9995(10) 0.5001(6) 0.3980(6)
H17 H 0.9486 0.5353 0.4372
C32 C 0.9930(10) 0.4132(6) 0.4140(6)
H18 H 0.9371 0.3899 0.4617
N1 N 0.9251(8) 0.5347(5) 0.1645(5)
N2 N 0.8911(10) 0.2174(6) 0.1920(6)
N3 N 0.9152(11) 0.1345(6) 0.1627(7)
O7 O 0.8476(6) 0.6770(4) 0.2975(4)
O8 O 0.8956(6) 0.6938(4) 0.4155(4)
O9 O 0.6161(7) 0.5370(4) 0.6444(4)
O10 O 0.4017(7) 0.5284(4) 0.6525(4)
N9 N 0.8534(8) 0.8224(5) 0.1694(5)
C26 C 0.8433(13) 0.9935(8) 0.1939(8)
C27 C 0.7619(12) 0.9405(7) 0.2470(8)
H13 H 0.7023 0.9604 0.2934
C28 C 0.7706(11) 0.8558(7) 0.2298(7)
H14 H 0.7111 0.8193 0.2651
C29 C 0.9317(11) 0.8741(7) 0.1188(7)
H15 H 0.9921 0.8513 0.0742
C30 C 0.9309(12) 0.9590(7) 0.1271(7)
H16 H 0.9882 0.9940 0.0886
H24 H 0.9933 0.8438 0.4043
C26_2 C 0.1567(13) 0.0065(8) 0.8061(8)
C27_2 C 0.2381(12) 0.0595(7) 0.7530(8)
H13_2 H 0.2977 0.0396 0.7066
C28_2 C 0.2294(11) 0.1442(7) 0.7702(7)
H14_2 H 0.2889 0.1807 0.7349
C29_2 C 0.0683(11) 0.1259(7) 0.8812(7)
H15_2 H 0.0079 0.1487 0.9258
C30_2 C 0.0691(12) 0.0410(7) 0.8729(7)
H16_2 H 0.0118 0.0060 0.9114
H24_2 H 0.0067 0.1562 0.5957
N4 N 0.1466(8) 0.1776(5) 0.8306(5)
Cd4 Cd 0.12016(7) 0.32134(4) 0.83989(4)
C10_2 C 0.3262(9) 0.3412(6) 0.5842(6)
C11_2 C 0.3470(9) 0.3753(6) 0.5047(6)
H4_2 H 0.2750 0.3814 0.4776
C12_2 C 0.4733(9) 0.4005(6) 0.4649(6)
C13_2 C 0.5803(10) 0.3861(6) 0.5032(6)
H5_2 H 0.6679 0.3995 0.4753
C14_2 C 0.5582(9) 0.3520(6) 0.5826(6)
C15_2 C 0.4321(9) 0.3322(6) 0.6226(6)
H6_2 H 0.4171 0.3120 0.6776
C16_2 C 0.1863(9) 0.3205(6) 0.6266(6)
C17_2 C 0.4886(10) 0.4478(7) 0.3845(6)
C18_2 C 0.6763(10) 0.3425(6) 0.6217(6)
C19_2 C 0.1440(10) 0.5172(6) 0.7777(6)
H7_2 H 0.2015 0.4932 0.7326
C20_2 C 0.1355(10) 0.6039(6) 0.7805(6)
H8_2 H 0.1866 0.6385 0.7385
C21_2 C 0.0498(10) 0.6398(7) 0.8465(7)
C24_2 C 0.0379(11) 0.7316(7) 0.8597(7)
C25_2 C 0.1614(13) 0.9175(8) 0.7905(8)
H12_2 H 0.2225 0.8977 0.7446
C31_2 C 0.0005(10) 0.4999(6) 0.6020(6)
H17_2 H 0.0514 0.4647 0.5628
C32_2 C 0.0070(10) 0.5868(6) 0.5860(6)
H18_2 H 0.0629 0.6101 0.5383
N1_2 N 0.0749(8) 0.4653(5) 0.8355(5)
N2_2 N 0.1089(10) 0.7826(6) 0.8080(6)
N3_2 N 0.0848(11) 0.8655(6) 0.8373(7)
O7_2 O 0.1524(6) 0.3230(4) 0.7025(4)
O8_2 O 0.1044(6) 0.3062(4) 0.5845(4)
O11 O 0.7897(6) 0.3240(4) 0.5797(4)
O12 O 0.6560(6) 0.3506(4) 0.6985(4)
O13 O 0.3688(6) 0.3502(4) 0.8201(4)
O14 O 0.2387(6) 0.3243(4) 0.9389(4)
Cd6 Cd 0.90724(7) 0.31969(4) 0.68299(4)
C38_2 C 0.8637(13) 0.0009(8) 0.7086(8)
C39_2 C 0.9355(12) 0.0451(8) 0.6385(8)
H23_2 H 0.9733 0.0167 0.5913
C40_2 C 0.9490(12) 0.1293(7) 0.6407(7)
C41_2 C 0.8201(11) 0.1363(7) 0.7646(7)
H25_2 H 0.7783 0.1682 0.8088
C42_2 C 0.8068(12) 0.0519(7) 0.7702(8)
H26_2 H 0.7562 0.0265 0.8188
N8 N 0.8907(8) 0.1761(5) 0.6979(5)
C4_2 C 0.4367(10) 0.3875(6) 0.0125(6)
H2_2 H 0.3479 0.4025 0.0394
C5_2 C 0.5434(10) 0.4000(6) 0.0466(6)
C6_2 C 0.6717(9) 0.3744(6) 0.0100(6)
H3_2 H 0.7432 0.3817 0.0355
C9_2 C 0.5203(10) 0.4480(7) 0.1214(6)
C1_2 C 0.6986(9) 0.3379(6) 0.9367(6)
C2_2 C 0.5953(9) 0.3285(6) 0.8998(6)
H1_2 H 0.6141 0.3060 0.8484
C3_2 C 0.4620(9) 0.3514(6) 0.9360(6)
C7_2 C 0.8408(9) 0.3175(6) 0.8958(6)
C8_2 C 0.3500(9) 0.3400(6) 0.8951(6)
C22_2 C 0.9776(10) 0.5871(6) 0.9065(6)
H9_2 H 0.9186 0.6094 0.9519
C23_2 C 0.9937(10) 0.5002(6) 0.8985(6)
H10_2 H 0.9445 0.4639 0.9398
H11_2 H 0.9783 0.7522 0.9058
C33_2 C 0.9285(10) 0.6393(7) 0.6426(7)
C34_2 C 0.8512(10) 0.6003(6) 0.7125(6)
H19_2 H 0.7970 0.6337 0.7521
C35_2 C 0.8537(10) 0.5133(6) 0.7237(6)
H20_2 H 0.8015 0.4881 0.7719
C36_2 C 0.9331(11) 0.7302(7) 0.6276(7)
H21_2 H 0.9824 0.7542 0.5779
C37_2 C 0.8495(13) 0.9098(8) 0.7157(8)
H22_2 H 0.8038 0.8845 0.7657
N5_2 N 0.9275(8) 0.4628(5) 0.6689(5)
N6_2 N 0.8711(10) 0.7771(6) 0.6813(6)
N7_2 N 0.8949(11) 0.8634(6) 0.6587(6)
O1_2 O 0.9271(6) 0.3089(4) 0.9395(4)
O2_2 O 0.8712(6) 0.3137(4) 0.8208(4)
loop_
_geom_bond_atom_site_label_1
_geom_bond_atom_site_label_2
_geom_bond_site_symmetry_1
_geom_bond_site_symmetry_2
C1 C2 1_555 1_555
C2 H1 1_555 1_555
C3 C2 1_555 1_555
C7 C1 1_555 1_555
C8 C3 1_555 1_555
H9 C22 1_555 1_555
C23 C22 1_555 1_555
H10 C23 1_555 1_555
C34 C33 1_555 1_555
H19 C34 1_555 1_555
C35 C34 1_555 1_555
H20 C35 1_555 1_555
C36 C33 1_555 1_555
H21 C36 1_555 1_555
C37 H22 1_555 1_555
N6 C36 1_555 1_555
N7 C37 1_555 1_555
O1 C7 1_555 1_555
O2 C7 1_555 1_555
O3 C8 1_555 1_555
O4 C8 1_555 1_555
Cd2 N5 1_555 1_555
Cd3 O3 1_555 1_555
N10 Cd2 1_555 1_555
O15 Cd3 1_555 1_555
O16 Cd3 1_555 1_555
O17 Cd3 1_555 1_555
O18 Cd3 1_555 1_555
O19 Cd2 1_555 1_555
O20 Cd2 1_555 1_555
Cd5 O3 1_555 1_555
C35 N5 1_555 1_555
N6 N7 1_555 1_555
O2 Cd2 1_555 1_555
O4 Cd5 1_555 1_555
Cd3 O20 1_555 1_555
H2 C4 1_555 1_555
C5 C4 1_555 1_555
H3 C6 1_555 1_555
C9 C5 1_555 1_555
O5 C9 1_555 1_555
O6 C9 1_555 1_555
Cd10 O5 1_555 1_555
C5 C6 1_555 1_555
O6 Cd10 1_555 1_555
C39 C38 1_555 1_555
H23 C39 1_555 1_555
C40 C39 1_555 1_555
C41 H25 1_555 1_555
C42 C38 1_555 1_555
H26 C42 1_555 1_555
N10 C40 1_555 1_555
C41 C42 1_555 1_555
C41 N10 1_555 1_555
C10 C11 1_555 1_555
C11 H4 1_555 1_555
C12 C11 1_555 1_555
C13 C12 1_555 1_555
H5 C13 1_555 1_555
C14 C13 1_555 1_555
C15 C10 1_555 1_555
H6 C15 1_555 1_555
C16 C10 1_555 1_555
C17 C12 1_555 1_555
C18 C14 1_555 1_555
C19 H7 1_555 1_555
C20 C19 1_555 1_555
H8 C20 1_555 1_555
C21 C20 1_555 1_555
C24 C21 1_555 1_555
C25 H12 1_555 1_555
C31 H17 1_555 1_555
C32 C31 1_555 1_555
H18 C32 1_555 1_555
N1 C19 1_555 1_555
N2 C24 1_555 1_555
N3 C25 1_555 1_555
O7 C16 1_555 1_555
O8 C16 1_555 1_555
O9 C17 1_555 1_555
O10 C17 1_555 1_555
O19 C18 1_555 1_555
O20 C18 1_555 1_555
Cd5 N1 1_555 1_555
N9 Cd5 1_555 1_555
Cd10 O9 1_555 1_555
C14 C15 1_555 1_555
N2 N3 1_555 1_555
O7 Cd5 1_555 1_555
O10 Cd10 1_555 1_555
C27 C26 1_555 1_555
H13 C27 1_555 1_555
C28 C27 1_555 1_555
H14 C28 1_555 1_555
C29 H15 1_555 1_555
C30 C26 1_555 1_555
H16 C30 1_555 1_555
N9 C28 1_555 1_555
C29 C30 1_555 1_555
C29 N9 1_555 1_555
C27_2 C26_2 1_555 1_555
H13_2 C27_2 1_555 1_555
C28_2 C27_2 1_555 1_555
H14_2 C28_2 1_555 1_555
C29_2 H15_2 1_555 1_555
C30_2 C26_2 1_555 1_555
H16_2 C30_2 1_555 1_555
N4 C28_2 1_555 1_555
Cd4 N4 1_555 1_555
C29_2 C30_2 1_555 1_555
C29_2 N4 1_555 1_555
C10_2 C11_2 1_555 1_555
C11_2 H4_2 1_555 1_555
C12_2 C11_2 1_555 1_555
C13_2 C12_2 1_555 1_555
H5_2 C13_2 1_555 1_555
C14_2 C13_2 1_555 1_555
C15_2 C10_2 1_555 1_555
H6_2 C15_2 1_555 1_555
C16_2 C10_2 1_555 1_555
C17_2 C12_2 1_555 1_555
C18_2 C14_2 1_555 1_555
C19_2 H7_2 1_555 1_555
C20_2 C19_2 1_555 1_555
H8_2 C20_2 1_555 1_555
C21_2 C20_2 1_555 1_555
C24_2 C21_2 1_555 1_555
C25_2 H12_2 1_555 1_555
C31_2 H17_2 1_555 1_555
C32_2 C31_2 1_555 1_555
H18_2 C32_2 1_555 1_555
N1_2 C19_2 1_555 1_555
N2_2 C24_2 1_555 1_555
N3_2 C25_2 1_555 1_555
O7_2 C16_2 1_555 1_555
O8_2 C16_2 1_555 1_555
O17 C17_2 1_555 1_555
O18 C17_2 1_555 1_555
O11 C18_2 1_555 1_555
O12 C18_2 1_555 1_555
Cd4 N1_2 1_555 1_555
O13 Cd4 1_555 1_555
O14 Cd4 1_555 1_555
Cd6 O11 1_555 1_555
Cd10 O12 1_555 1_555
C14_2 C15_2 1_555 1_555
N2_2 N3_2 1_555 1_555
O7_2 Cd4 1_555 1_555
O12 Cd6 1_555 1_555
O13 Cd10 1_555 1_555
C39_2 C38_2 1_555 1_555
H23_2 C39_2 1_555 1_555
C40_2 C39_2 1_555 1_555
C41_2 H25_2 1_555 1_555
C42_2 C38_2 1_555 1_555
H26_2 C42_2 1_555 1_555
N8 C40_2 1_555 1_555
Cd6 N8 1_555 1_555
C41_2 C42_2 1_555 1_555
C41_2 N8 1_555 1_555
H2_2 C4_2 1_555 1_555
C5_2 C4_2 1_555 1_555
H3_2 C6_2 1_555 1_555
C9_2 C5_2 1_555 1_555
O15 C9_2 1_555 1_555
O16 C9_2 1_555 1_555
C5_2 C6_2 1_555 1_555
C1_2 C2_2 1_555 1_555
C2_2 H1_2 1_555 1_555
C3_2 C2_2 1_555 1_555
C7_2 C1_2 1_555 1_555
C8_2 C3_2 1_555 1_555
H9_2 C22_2 1_555 1_555
C23_2 C22_2 1_555 1_555
H10_2 C23_2 1_555 1_555
C34_2 C33_2 1_555 1_555
H19_2 C34_2 1_555 1_555
C35_2 C34_2 1_555 1_555
H20_2 C35_2 1_555 1_555
C36_2 C33_2 1_555 1_555
H21_2 C36_2 1_555 1_555
C37_2 H22_2 1_555 1_555
N6_2 C36_2 1_555 1_555
N7_2 C37_2 1_555 1_555
O1_2 C7_2 1_555 1_555
O2_2 C7_2 1_555 1_555
O13 C8_2 1_555 1_555
O14 C8_2 1_555 1_555
Cd6 N5_2 1_555 1_555
C35_2 N5_2 1_555 1_555
N6_2 N7_2 1_555 1_555
O2_2 Cd6 1_555 1_555

#END
