
###############################################################################
#
# This file contains modified crystal structure data generated from the
# MOF subset of the Cambridge Structural Database (CSD) v543 
# hosted by the Cambridge Crystallographic Data Centre (CCDC).
#
# This work is licensed under the Creative Commons
# Attribution-NonCommercial-ShareAlike 4.0 International License.
# To view a copy of this license, visit
# http://creativecommons.org/licenses/by-nc-sa/4.0/
# or send a letter to
# Creative Commons, PO Box 1866, Mountain View, CA 94042, USA.
#
# CIF created using the CSD Python API on 29 September 2022
# The structure has been converted into the P1 space group
# The structure has a 3D framework
# The original CSD entry BOZFAZ is in the monoclinic crystal system
# The framework has been calculated to contain at least 10.0% void space
# The void calculation uses a probe of radius 1.32A, grid spacing 0.4
#
###############################################################################

data_BOZFAZ
_chemical_formula_moiety         '(C124 H76 Cd4 N36 O14)n'
_symmetry_cell_setting           triclinic
_symmetry_space_group_name_H-M   'P 1'
_symmetry_Int_Tables_number      1
_space_group_name_Hall           'P 1'
loop_
_symmetry_equiv_pos_site_id
_symmetry_equiv_pos_as_xyz
1 x,y,z
_cell_length_a                   12.2200(9)
_cell_length_b                   22.260(2)
_cell_length_c                   16.1501(15)
_cell_angle_alpha                90
_cell_angle_beta                 106.841(2)
_cell_angle_gamma                90
_cell_volume                     4204.7
loop_
_atom_site_label
_atom_site_type_symbol
_atom_site_fract_x
_atom_site_fract_y
_atom_site_fract_z
N1 N 0.0960(8) 0.3551(5) 0.3531(6)
N2 N 0.0093(7) 0.2441(4) 0.3843(5)
N4 N 0.1394(7) 0.1880(4) 0.3405(5)
N6 N 0.0009(8) 0.4722(4) 0.3789(6)
N8 N 0.1410(8) 0.5239(4) 0.3446(6)
N9 N 0.0823(7) 0.7526(3) 0.3685(5)
C13 C 0.1498(9) 0.3010(5) 0.3380(7)
C14 C 0.2446(10) 0.3058(5) 0.3092(8)
H9 H 0.2773 0.2705 0.2969
C15 C 0.2927(9) 0.3567(6) 0.2977(7)
H10 H 0.3592 0.3571 0.2806
C16 C 0.2451(11) 0.4066(6) 0.3108(8)
H11 H 0.2787 0.4423 0.3011
C17 C 0.1449(11) 0.4104(6) 0.3390(8)
C18 C 0.0996(9) 0.2440(5) 0.3535(7)
C19 C 0.0692(7) 0.1500(5) 0.3656(5)
C21 C 0.1507(8) 0.0540(5) 0.3358(6)
H13 H 0.2044 0.0742 0.3154
C22 C 0.0747(8) 0.0861(4) 0.3659(6)
C25 C 0.0986(10) 0.4673(6) 0.3557(7)
C26 C 0.0699(10) 0.5584(5) 0.3671(7)
C27 C 0.1471(9) 0.7183(5) 0.3308(7)
H16 H 0.1948 0.7374 0.3034
C28 C 0.1443(9) 0.6573(5) 0.3319(7)
H17 H 0.1913 0.6354 0.3068
C29 C 0.0728(9) 0.6277(4) 0.3696(7)
C30 C 0.0068(9) 0.6617(5) 0.4090(6)
C31 C 0.0151(9) 0.7217(5) 0.4068(6)
Cd4 Cd 0.08246(5) 0.85562(3) 0.36923(4)
O8 O 0.7161(4) 0.8560(3) 0.0540(4)
Cd7 Cd 0.91754(5) 0.85562(3) 0.13077(4)
N5 N 0.0793(6) 0.9590(3) 0.3656(4)
O3 O 0.1621(4) 0.8547(3) 0.5249(3)
O4 O 0.2839(4) 0.8560(3) 0.4460(4)
C7 C 0.2643(6) 0.8529(5) 0.5160(5)
C8 C 0.4439(6) 0.8454(4) 0.7553(5)
C9 C 0.3505(6) 0.8469(4) 0.6782(5)
H6 H 0.2764 0.8463 0.6830
C10 C 0.3653(6) 0.8492(4) 0.5977(5)
C11 C 0.4767(6) 0.8476(5) 0.5881(5)
H7 H 0.4874 0.8494 0.5335
C12 C 0.5704(7) 0.8433(4) 0.6619(5)
H8 H 0.6434 0.8391 0.6559
C20 C 0.1487(8) 0.9907(5) 0.3351(6)
H12 H 0.1995 0.9705 0.3118
C24 C 0.0019(8) 0.9887(5) 0.3916(6)
O7 O 0.8379(4) 0.8547(3) 0.9751(3)
C38 C 0.7357(6) 0.8529(5) 0.9840(5)
C39 C 0.5561(6) 0.8454(4) 0.7447(5)
C40 C 0.6495(6) 0.8469(4) 0.8218(5)
H23 H 0.7236 0.8463 0.8170
C41 C 0.6347(6) 0.8492(4) 0.9023(5)
C42 C 0.5233(6) 0.8476(5) 0.9119(5)
H24 H 0.5126 0.8494 0.9665
C43 C 0.4296(7) 0.8433(4) 0.8381(5)
H25 H 0.3566 0.8391 0.8441
O10 O 0.1145(4) 0.8554(3) 0.2322(3)
O1 O 0.9051(4) 0.8566(3) 0.4075(3)
O2 O 0.8855(4) 0.8554(3) 0.2678(3)
C1 C 0.8397(7) 0.8547(5) 0.3284(6)
C2 C 0.5537(8) 0.8441(7) 0.3667(7)
H3 H 0.5261 0.8363 0.4135
C3 C 0.6708(8) 0.8476(6) 0.3786(7)
H4 H 0.7201 0.8463 0.4346
C4 C 0.7157(6) 0.8527(5) 0.3109(5)
C5 C 0.6444(7) 0.8525(5) 0.2330(6)
H5 H 0.6740 0.8523 0.1860
C6 C 0.5232(7) 0.8525(5) 0.2166(5)
H15 H 0.9484 0.9670 0.4102
O5 O 0.0949(4) 0.8566(3) 0.0925(3)
C32 C 0.1603(7) 0.8547(5) 0.1716(6)
C33 C 0.4463(8) 0.8441(7) 0.1333(7)
H20 H 0.4739 0.8363 0.0865
C34 C 0.3292(8) 0.8476(6) 0.1214(7)
H21 H 0.2799 0.8463 0.0654
C35 C 0.2843(6) 0.8527(5) 0.1891(5)
C36 C 0.3556(7) 0.8525(5) 0.2670(6)
H22 H 0.3260 0.8523 0.3140
C37 C 0.4768(7) 0.8525(5) 0.2834(5)
H34 H 0.0516 0.9670 0.0898
N10 N 0.9040(8) 0.3551(5) 0.1469(6)
N11 N 0.9907(7) 0.2441(4) 0.1157(5)
N13 N 0.8606(7) 0.1880(4) 0.1595(5)
N15 N 0.9991(8) 0.4722(4) 0.1211(6)
N17 N 0.8590(8) 0.5239(4) 0.1554(6)
N18 N 0.9177(7) 0.7526(3) 0.1315(5)
C44 C 0.8502(9) 0.3010(5) 0.1620(7)
C45 C 0.7554(10) 0.3058(5) 0.1908(8)
H28 H 0.7227 0.2705 0.2031
C46 C 0.7073(9) 0.3567(6) 0.2023(7)
H29 H 0.6408 0.3571 0.2194
C47 C 0.7549(11) 0.4066(6) 0.1892(8)
H30 H 0.7213 0.4423 0.1989
C48 C 0.8551(11) 0.4104(6) 0.1610(8)
C49 C 0.9004(9) 0.2440(5) 0.1465(7)
C50 C 0.9308(7) 0.1500(5) 0.1344(5)
C52 C 0.8493(8) 0.0540(5) 0.1642(6)
H32 H 0.7956 0.0742 0.1846
C53 C 0.9253(8) 0.0861(4) 0.1341(6)
C56 C 0.9014(10) 0.4673(6) 0.1443(7)
C57 C 0.9301(10) 0.5584(5) 0.1329(7)
C58 C 0.8529(9) 0.7183(5) 0.1692(7)
H35 H 0.8052 0.7374 0.1966
C59 C 0.8557(9) 0.6573(5) 0.1681(7)
H36 H 0.8087 0.6354 0.1932
C60 C 0.9272(9) 0.6277(4) 0.1304(7)
C61 C 0.9932(9) 0.6617(5) 0.0910(6)
C62 C 0.9849(9) 0.7217(5) 0.0932(6)
N14 N 0.9207(6) 0.9590(3) 0.1344(4)
C51 C 0.8513(8) 0.9907(5) 0.1649(6)
H31 H 0.8005 0.9705 0.1882
C55 C 0.9981(8) 0.9887(5) 0.1084(6)
N3 N 0.9922(6) 0.1844(4) 0.3914(5)
H1 H 0.9386 0.1696 0.4100
N7 N 0.9873(8) 0.5314(4) 0.3879(6)
H2 H 0.9339 0.5483 0.4043
C23 C 0.9964(8) 0.0524(5) 0.3926(6)
H14 H 0.9401 0.0714 0.4113
H18 H 0.9581 0.6434 0.4361
H19 H 0.9710 0.7439 0.4340
N12 N 0.0078(6) 0.1844(4) 0.1086(5)
H26 H 0.0614 0.1696 0.0900
N16 N 0.0127(8) 0.5314(4) 0.1121(6)
H27 H 0.0661 0.5483 0.0957
C54 C 0.0036(8) 0.0524(5) 0.1074(6)
H33 H 0.0599 0.0714 0.0887
H37 H 0.0419 0.6434 0.0639
H38 H 0.0290 0.7439 0.0660
O11 O 0.1621(4) 0.1453(3) 0.0249(3)
Cd2 Cd 0.08246(5) 0.14438(3) 0.86923(4)
N14_2 N 0.0793(6) 0.0410(3) 0.8656(4)
C51_2 C 0.1487(8) 0.0093(5) 0.8351(6)
H31_2 H 0.1995 0.0295 0.8118
C55_2 C 0.0019(8) 0.0113(5) 0.8916(6)
N20 N 0.0823(7) 0.2474(3) 0.8685(5)
O9 O 0.1145(4) 0.1446(3) 0.7322(3)
O12 O 0.2839(4) 0.1440(3) 0.9460(4)
N10_2 N 0.0960(8) 0.6449(5) 0.8531(6)
N11_2 N 0.0093(7) 0.7559(4) 0.8843(5)
N13_2 N 0.1394(7) 0.8120(4) 0.8405(5)
N15_2 N 0.0009(8) 0.5278(4) 0.8789(6)
N17_2 N 0.1410(8) 0.4761(4) 0.8446(6)
C44_2 C 0.1498(9) 0.6990(5) 0.8380(7)
C45_2 C 0.2446(10) 0.6942(5) 0.8092(8)
H28_2 H 0.2773 0.7295 0.7969
C46_2 C 0.2927(9) 0.6433(6) 0.7977(7)
H29_2 H 0.3592 0.6429 0.7806
C47_2 C 0.2451(11) 0.5934(6) 0.8108(8)
H30_2 H 0.2787 0.5577 0.8011
C48_2 C 0.1449(11) 0.5896(6) 0.8390(8)
C49_2 C 0.0996(9) 0.7560(5) 0.8535(7)
C50_2 C 0.0692(7) 0.8500(5) 0.8656(5)
C52_2 C 0.1507(8) 0.9460(5) 0.8358(6)
H32_2 H 0.2044 0.9258 0.8154
C53_2 C 0.0747(8) 0.9139(4) 0.8659(6)
C56_2 C 0.0986(10) 0.5327(6) 0.8557(7)
C57_2 C 0.0699(10) 0.4416(5) 0.8671(7)
C58_2 C 0.1471(9) 0.2817(5) 0.8308(7)
H35_2 H 0.1948 0.2626 0.8034
C59_2 C 0.1443(9) 0.3427(5) 0.8319(7)
H36_2 H 0.1913 0.3646 0.8068
C60_2 C 0.0728(9) 0.3723(4) 0.8696(7)
C61_2 C 0.0068(9) 0.3383(5) 0.9090(6)
C62_2 C 0.0151(9) 0.2783(5) 0.9068(6)
O1_2 O 0.0949(4) 0.1434(3) 0.5925(3)
C1_2 C 0.1603(7) 0.1453(5) 0.6716(6)
C2_2 C 0.4463(8) 0.1559(7) 0.6333(7)
H3_2 H 0.4739 0.1637 0.5865
C3_2 C 0.3292(8) 0.1524(6) 0.6214(7)
H4_2 H 0.2799 0.1537 0.5654
C4_2 C 0.2843(6) 0.1473(5) 0.6891(5)
C5_2 C 0.3556(7) 0.1475(5) 0.7670(6)
H5_2 H 0.3260 0.1477 0.8140
C6_2 C 0.4768(7) 0.1475(5) 0.7834(5)
H15_2 H 0.0516 0.0330 0.5898
O5_2 O 0.9051(4) 0.1434(3) 0.9075(3)
O6 O 0.8855(4) 0.1446(3) 0.7678(3)
C32_2 C 0.8397(7) 0.1453(5) 0.8284(6)
C33_2 C 0.5537(8) 0.1559(7) 0.8667(7)
H20_2 H 0.5261 0.1637 0.9135
C34_2 C 0.6708(8) 0.1524(6) 0.8786(7)
H21_2 H 0.7201 0.1537 0.9346
C35_2 C 0.7157(6) 0.1473(5) 0.8109(5)
C36_2 C 0.6444(7) 0.1475(5) 0.7330(6)
H22_2 H 0.6740 0.1477 0.6860
C37_2 C 0.5232(7) 0.1475(5) 0.7166(5)
H34_2 H 0.9484 0.0330 0.9102
Cd3 Cd 0.91754(5) 0.14438(3) 0.63077(4)
N5_2 N 0.9207(6) 0.0410(3) 0.6344(4)
O3_2 O 0.8379(4) 0.1453(3) 0.4751(3)
O4_2 O 0.7161(4) 0.1440(3) 0.5540(4)
C7_2 C 0.7357(6) 0.1471(5) 0.4840(5)
C8_2 C 0.5561(6) 0.1546(4) 0.2447(5)
C9_2 C 0.6495(6) 0.1531(4) 0.3218(5)
H6_2 H 0.7236 0.1537 0.3170
C10_2 C 0.6347(6) 0.1508(4) 0.4023(5)
C11_2 C 0.5233(6) 0.1524(5) 0.4119(5)
H7_2 H 0.5126 0.1506 0.4665
C12_2 C 0.4296(7) 0.1567(4) 0.3381(5)
H8_2 H 0.3566 0.1609 0.3441
C20_2 C 0.8513(8) 0.0093(5) 0.6649(6)
H12_2 H 0.8005 0.0295 0.6882
C24_2 C 0.9981(8) 0.0113(5) 0.6084(6)
C38_2 C 0.2643(6) 0.1471(5) 0.0160(5)
C39_2 C 0.4439(6) 0.1546(4) 0.2553(5)
C40_2 C 0.3505(6) 0.1531(4) 0.1782(5)
H23_2 H 0.2764 0.1537 0.1830
C41_2 C 0.3653(6) 0.1508(4) 0.0977(5)
C42_2 C 0.4767(6) 0.1524(5) 0.0881(5)
H24_2 H 0.4874 0.1506 0.0335
C43_2 C 0.5704(7) 0.1567(4) 0.1619(5)
H25_2 H 0.6434 0.1609 0.1559
N19 N 0.9177(7) 0.2474(3) 0.6315(5)
N1_2 N 0.9040(8) 0.6449(5) 0.6469(6)
N2_2 N 0.9907(7) 0.7559(4) 0.6157(5)
N4_2 N 0.8606(7) 0.8120(4) 0.6595(5)
N6_2 N 0.9991(8) 0.5278(4) 0.6211(6)
N8_2 N 0.8590(8) 0.4761(4) 0.6554(6)
C13_2 C 0.8502(9) 0.6990(5) 0.6620(7)
C14_2 C 0.7554(10) 0.6942(5) 0.6908(8)
H9_2 H 0.7227 0.7295 0.7031
C15_2 C 0.7073(9) 0.6433(6) 0.7023(7)
H10_2 H 0.6408 0.6429 0.7194
C16_2 C 0.7549(11) 0.5934(6) 0.6892(8)
H11_2 H 0.7213 0.5577 0.6989
C17_2 C 0.8551(11) 0.5896(6) 0.6610(8)
C18_2 C 0.9004(9) 0.7560(5) 0.6465(7)
C19_2 C 0.9308(7) 0.8500(5) 0.6344(5)
C21_2 C 0.8493(8) 0.9460(5) 0.6642(6)
H13_2 H 0.7956 0.9258 0.6846
C22_2 C 0.9253(8) 0.9139(4) 0.6341(6)
C25_2 C 0.9014(10) 0.5327(6) 0.6443(7)
C26_2 C 0.9301(10) 0.4416(5) 0.6329(7)
C27_2 C 0.8529(9) 0.2817(5) 0.6692(7)
H16_2 H 0.8052 0.2626 0.6966
C28_2 C 0.8557(9) 0.3427(5) 0.6681(7)
H17_2 H 0.8087 0.3646 0.6932
C29_2 C 0.9272(9) 0.3723(4) 0.6304(7)
C30_2 C 0.9932(9) 0.3383(5) 0.5910(6)
C31_2 C 0.9849(9) 0.2783(5) 0.5932(6)
N3_2 N 0.0078(6) 0.8156(4) 0.6086(5)
H1_2 H 0.0614 0.8304 0.5900
N7_2 N 0.0127(8) 0.4686(4) 0.6121(6)
H2_2 H 0.0661 0.4517 0.5957
C23_2 C 0.0036(8) 0.9476(5) 0.6074(6)
H14_2 H 0.0599 0.9286 0.5887
H18_2 H 0.0419 0.3566 0.5639
H19_2 H 0.0290 0.2561 0.5660
N12_2 N 0.9922(6) 0.8156(4) 0.8914(5)
H26_2 H 0.9386 0.8304 0.9100
N16_2 N 0.9873(8) 0.4686(4) 0.8879(6)
H27_2 H 0.9339 0.4517 0.9043
C54_2 C 0.9964(8) 0.9476(5) 0.8926(6)
H33_2 H 0.9401 0.9286 0.9113
H37_2 H 0.9581 0.3566 0.9361
H38_2 H 0.9710 0.2561 0.9340
loop_
_geom_bond_atom_site_label_1
_geom_bond_atom_site_label_2
_geom_bond_site_symmetry_1
_geom_bond_site_symmetry_2
N1 C13 1_555 1_555
N4 C18 1_555 1_555
N8 C25 1_555 1_555
N9 C27 1_555 1_555
C13 C14 1_555 1_555
C14 H9 1_555 1_555
C15 C14 1_555 1_555
H10 C15 1_555 1_555
C16 C15 1_555 1_555
H11 C16 1_555 1_555
C17 N1 1_555 1_555
C18 N2 1_555 1_555
H13 C21 1_555 1_555
C22 C19 1_555 1_555
C25 N6 1_555 1_555
C27 H16 1_555 1_555
C28 C27 1_555 1_555
H17 C28 1_555 1_555
C29 C26 1_555 1_555
C30 C29 1_555 1_555
C31 N9 1_555 1_555
Cd4 N9 1_555 1_555
N4 C19 1_555 1_555
N8 C26 1_555 1_555
C13 C18 1_555 1_555
C16 C17 1_555 1_555
C17 C25 1_555 1_555
C21 C22 1_555 1_555
C28 C29 1_555 1_555
C30 C31 1_555 1_555
O8 Cd7 1_555 1_555
Cd4 N5 1_555 1_555
N5 C20 1_555 1_555
O3 Cd4 1_555 1_555
O4 Cd4 1_555 1_555
C7 O3 1_555 1_555
C8 C9 1_555 1_555
C9 H6 1_555 1_555
C10 C7 1_555 1_555
C11 C10 1_555 1_555
H7 C11 1_555 1_555
C12 C11 1_555 1_555
H8 C12 1_555 1_555
C20 H12 1_555 1_555
C24 N5 1_555 1_555
O7 C38 1_555 1_555
C38 C41 1_555 1_555
C39 C8 1_555 1_555
C40 C39 1_555 1_555
H23 C40 1_555 1_555
C41 C40 1_555 1_555
C42 C41 1_555 1_555
H24 C42 1_555 1_555
C43 C8 1_555 1_555
H25 C43 1_555 1_555
O10 Cd4 1_555 1_555
O4 C7 1_555 1_555
C9 C10 1_555 1_555
C12 C39 1_555 1_555
C42 C43 1_555 1_555
C1 O1 1_555 1_555
C2 H3 1_555 1_555
C3 C2 1_555 1_555
H4 C3 1_555 1_555
C4 C1 1_555 1_555
C5 C4 1_555 1_555
H5 C5 1_555 1_555
C6 C5 1_555 1_555
O5 C32 1_555 1_555
O10 C32 1_555 1_555
C32 C35 1_555 1_555
C33 C6 1_555 1_555
H20 C33 1_555 1_555
C34 C33 1_555 1_555
H21 C34 1_555 1_555
C35 C34 1_555 1_555
C36 C35 1_555 1_555
H22 C36 1_555 1_555
C37 C2 1_555 1_555
Cd7 O2 1_555 1_555
O2 C1 1_555 1_555
C3 C4 1_555 1_555
C6 C37 1_555 1_555
C36 C37 1_555 1_555
N10 C44 1_555 1_555
N13 C49 1_555 1_555
N17 C56 1_555 1_555
N18 C58 1_555 1_555
C44 C45 1_555 1_555
C45 H28 1_555 1_555
C46 C45 1_555 1_555
H29 C46 1_555 1_555
C47 C46 1_555 1_555
H30 C47 1_555 1_555
C48 N10 1_555 1_555
C49 N11 1_555 1_555
H32 C52 1_555 1_555
C53 C50 1_555 1_555
C56 N15 1_555 1_555
C58 H35 1_555 1_555
C59 C58 1_555 1_555
H36 C59 1_555 1_555
C60 C57 1_555 1_555
C61 C60 1_555 1_555
C62 N18 1_555 1_555
Cd7 N18 1_555 1_555
N13 C50 1_555 1_555
N17 C57 1_555 1_555
C44 C49 1_555 1_555
C47 C48 1_555 1_555
C48 C56 1_555 1_555
C52 C53 1_555 1_555
C59 C60 1_555 1_555
C61 C62 1_555 1_555
N14 Cd7 1_555 1_555
C51 N14 1_555 1_555
H31 C51 1_555 1_555
C55 N14 1_555 1_555
N3 H1 1_555 1_555
N7 H2 1_555 1_555
H14 C23 1_555 1_555
N12 H26 1_555 1_555
N16 H27 1_555 1_555
H33 C54 1_555 1_555
N14_2 Cd2 1_555 1_555
C51_2 N14_2 1_555 1_555
H31_2 C51_2 1_555 1_555
C55_2 N14_2 1_555 1_555
N20 Cd2 1_555 1_555
O9 Cd2 1_555 1_555
O12 Cd2 1_555 1_555
N10_2 C44_2 1_555 1_555
N13_2 C49_2 1_555 1_555
N17_2 C56_2 1_555 1_555
N20 C58_2 1_555 1_555
C44_2 C45_2 1_555 1_555
C45_2 H28_2 1_555 1_555
C46_2 C45_2 1_555 1_555
H29_2 C46_2 1_555 1_555
C47_2 C46_2 1_555 1_555
H30_2 C47_2 1_555 1_555
C48_2 N10_2 1_555 1_555
C49_2 N11_2 1_555 1_555
H32_2 C52_2 1_555 1_555
C53_2 C50_2 1_555 1_555
C56_2 N15_2 1_555 1_555
C58_2 H35_2 1_555 1_555
C59_2 C58_2 1_555 1_555
H36_2 C59_2 1_555 1_555
C60_2 C57_2 1_555 1_555
C61_2 C60_2 1_555 1_555
C62_2 N20 1_555 1_555
N13_2 C50_2 1_555 1_555
N17_2 C57_2 1_555 1_555
C44_2 C49_2 1_555 1_555
C47_2 C48_2 1_555 1_555
C48_2 C56_2 1_555 1_555
C52_2 C53_2 1_555 1_555
C59_2 C60_2 1_555 1_555
C61_2 C62_2 1_555 1_555
C1_2 O1_2 1_555 1_555
C2_2 H3_2 1_555 1_555
C3_2 C2_2 1_555 1_555
H4_2 C3_2 1_555 1_555
C4_2 C1_2 1_555 1_555
C5_2 C4_2 1_555 1_555
H5_2 C5_2 1_555 1_555
C6_2 C5_2 1_555 1_555
O5_2 C32_2 1_555 1_555
O6 C32_2 1_555 1_555
C32_2 C35_2 1_555 1_555
C33_2 C6_2 1_555 1_555
H20_2 C33_2 1_555 1_555
C34_2 C33_2 1_555 1_555
H21_2 C34_2 1_555 1_555
C35_2 C34_2 1_555 1_555
C36_2 C35_2 1_555 1_555
H22_2 C36_2 1_555 1_555
C37_2 C2_2 1_555 1_555
Cd3 O6 1_555 1_555
O9 C1_2 1_555 1_555
C3_2 C4_2 1_555 1_555
C6_2 C37_2 1_555 1_555
C36_2 C37_2 1_555 1_555
Cd3 N5_2 1_555 1_555
N5_2 C20_2 1_555 1_555
O3_2 Cd3 1_555 1_555
O4_2 Cd3 1_555 1_555
C7_2 O3_2 1_555 1_555
C8_2 C9_2 1_555 1_555
C9_2 H6_2 1_555 1_555
C10_2 C7_2 1_555 1_555
C11_2 C10_2 1_555 1_555
H7_2 C11_2 1_555 1_555
C12_2 C11_2 1_555 1_555
H8_2 C12_2 1_555 1_555
C20_2 H12_2 1_555 1_555
C24_2 N5_2 1_555 1_555
O11 C38_2 1_555 1_555
C38_2 C41_2 1_555 1_555
C39_2 C8_2 1_555 1_555
C40_2 C39_2 1_555 1_555
H23_2 C40_2 1_555 1_555
C41_2 C40_2 1_555 1_555
C42_2 C41_2 1_555 1_555
H24_2 C42_2 1_555 1_555
C43_2 C8_2 1_555 1_555
H25_2 C43_2 1_555 1_555
N19 Cd3 1_555 1_555
O4_2 C7_2 1_555 1_555
C9_2 C10_2 1_555 1_555
C12_2 C39_2 1_555 1_555
C42_2 C43_2 1_555 1_555
N1_2 C13_2 1_555 1_555
N4_2 C18_2 1_555 1_555
N8_2 C25_2 1_555 1_555
N19 C27_2 1_555 1_555
C13_2 C14_2 1_555 1_555
C14_2 H9_2 1_555 1_555
C15_2 C14_2 1_555 1_555
H10_2 C15_2 1_555 1_555
C16_2 C15_2 1_555 1_555
H11_2 C16_2 1_555 1_555
C17_2 N1_2 1_555 1_555
C18_2 N2_2 1_555 1_555
H13_2 C21_2 1_555 1_555
C22_2 C19_2 1_555 1_555
C25_2 N6_2 1_555 1_555
C27_2 H16_2 1_555 1_555
C28_2 C27_2 1_555 1_555
H17_2 C28_2 1_555 1_555
C29_2 C26_2 1_555 1_555
C30_2 C29_2 1_555 1_555
C31_2 N19 1_555 1_555
N4_2 C19_2 1_555 1_555
N8_2 C26_2 1_555 1_555
C13_2 C18_2 1_555 1_555
C16_2 C17_2 1_555 1_555
C17_2 C25_2 1_555 1_555
C21_2 C22_2 1_555 1_555
C28_2 C29_2 1_555 1_555
C30_2 C31_2 1_555 1_555
N3_2 H1_2 1_555 1_555
N7_2 H2_2 1_555 1_555
H14_2 C23_2 1_555 1_555
N12_2 H26_2 1_555 1_555
N16_2 H27_2 1_555 1_555
H33_2 C54_2 1_555 1_555

#END
