
###############################################################################
#
# This file contains modified crystal structure data generated from the
# MOF subset of the Cambridge Structural Database (CSD) v543 
# hosted by the Cambridge Crystallographic Data Centre (CCDC).
#
# This work is licensed under the Creative Commons
# Attribution-NonCommercial-ShareAlike 4.0 International License.
# To view a copy of this license, visit
# http://creativecommons.org/licenses/by-nc-sa/4.0/
# or send a letter to
# Creative Commons, PO Box 1866, Mountain View, CA 94042, USA.
#
# CIF created using the CSD Python API on 29 September 2022
# The structure has been converted into the P1 space group
# The structure has a 3D framework
# The original CSD entry BUBJUF is in the orthorhombic crystal system
# The framework has been calculated to contain at least 10.0% void space
# The void calculation uses a probe of radius 1.32A, grid spacing 0.4
#
###############################################################################

data_BUBJUF
_chemical_formula_moiety         '(C24 H16 N40 O32 Zn8)n'
_symmetry_cell_setting           triclinic
_symmetry_space_group_name_H-M   'P 1'
_symmetry_Int_Tables_number      1
_space_group_name_Hall           'P 1'
loop_
_symmetry_equiv_pos_site_id
_symmetry_equiv_pos_as_xyz
1 x,y,z
_cell_length_a                   17.621(3)
_cell_length_b                   15.958(3)
_cell_length_c                   8.7728(18)
_cell_angle_alpha                90
_cell_angle_beta                 90
_cell_angle_gamma                90
_cell_volume                     2466.88
loop_
_atom_site_label
_atom_site_type_symbol
_atom_site_fract_x
_atom_site_fract_y
_atom_site_fract_z
C1 C 0.1675(4) 0.2500 0.0174(7)
O1 O 0.18731(19) 0.18010(19) 0.0701(4)
O3 O 0.04028(18) 0.0820(2) 0.1025(4)
O5 O 0.18731(19) 0.31990(19) 0.0701(4)
C2 C 0.1147(4) 0.2500 0.8779(7)
N1 N 0.2253(2) 0.0547(2) 0.7927(5)
N2 N 0.2859(3) 0.1038(3) 0.7760(7)
N3 N 0.3321(3) 0.0716(3) 0.6781(7)
N4 N 0.3035(2) 0.0005(2) 0.6237(4)
O2 O 0.09449(18) 0.1802(2) 0.8278(4)
Zn1 Zn 0.14204(3) 0.07494(3) 0.96020(6)
O6 O 0.09449(18) 0.3198(2) 0.8278(4)
Zn5 Zn 0.14204(3) 0.42506(3) 0.96020(6)
N11 N 0.1965(2) 0.9995(2) 0.1237(4)
C4 C 0.2383(3) 0.9919(3) 0.6961(6)
N5 N 0.1892(3) 0.9285(4) 0.6709(9)
H1 H 0.1997 0.8906 0.6044
H2 H 0.1474 0.9259 0.7213
C5 C 0.0087(2) 0.9716(3) 0.9328(5)
O8 O 0.07020(17) 0.9834(2) 0.8645(4)
Zn3 Zn 0.35796(3) 0.92506(3) 0.46020(6)
C3 C 0.9913(2) 0.0284(3) 0.0672(5)
O4 O 0.92980(17) 0.0166(2) 0.1355(4)
C6 C 0.7617(3) 0.0081(3) 0.3039(6)
N10 N 0.8108(3) 0.0715(4) 0.3291(9)
H3 H 0.8003 0.1094 0.3956
H4 H 0.8526 0.0741 0.2787
Zn4 Zn 0.64204(3) 0.07494(3) 0.53980(6)
N12 N 0.8035(2) 0.0005(2) 0.8763(4)
N6 N 0.7747(2) 0.9453(2) 0.2073(5)
N7 N 0.7141(3) 0.8962(3) 0.2240(7)
N8 N 0.6679(3) 0.9284(3) 0.3219(7)
N9 N 0.6965(2) 0.9995(2) 0.3763(4)
Zn2 Zn 0.85796(3) 0.92506(3) 0.03980(6)
O10 O 0.90551(18) 0.8198(2) 0.1722(4)
O7 O 0.95972(18) 0.9180(2) 0.8975(4)
O9 O 0.81269(19) 0.81990(19) 0.9299(4)
C4_2 C 0.2617(3) 0.0081(3) 0.1961(6)
N5_2 N 0.3108(3) 0.0715(4) 0.1709(9)
H1_2 H 0.3003 0.1094 0.1044
H2_2 H 0.3526 0.0741 0.2213
C5_2 C 0.4913(2) 0.0284(3) 0.4328(5)
O7_2 O 0.54028(18) 0.0820(2) 0.3975(4)
O8_2 O 0.42980(17) 0.0166(2) 0.3645(4)
N6_2 N 0.7253(2) 0.0547(2) 0.7073(5)
N7_2 N 0.7859(3) 0.1038(3) 0.7240(7)
N8_2 N 0.8321(3) 0.0716(3) 0.8219(7)
O9_2 O 0.68731(19) 0.18010(19) 0.4299(4)
O10_2 O 0.59449(18) 0.1802(2) 0.6722(4)
C1_2 C 0.3325(4) 0.7500 0.5174(7)
C2_2 C 0.3853(4) 0.7500 0.3779(7)
C3_2 C 0.5087(2) 0.9716(3) 0.5672(5)
N1_2 N 0.2747(2) 0.9453(2) 0.2927(5)
N2_2 N 0.2141(3) 0.8962(3) 0.2760(7)
N3_2 N 0.1679(3) 0.9284(3) 0.1781(7)
O1_2 O 0.31269(19) 0.81990(19) 0.5701(4)
O2_2 O 0.40551(18) 0.8198(2) 0.3278(4)
O3_2 O 0.45972(18) 0.9180(2) 0.6025(4)
O4_2 O 0.57020(17) 0.9834(2) 0.6355(4)
O5_2 O 0.31269(19) 0.68010(19) 0.5701(4)
O6_2 O 0.40551(18) 0.6802(2) 0.3278(4)
C6_2 C 0.7383(3) 0.9919(3) 0.8039(6)
N10_2 N 0.6892(3) 0.9285(4) 0.8291(9)
H3_2 H 0.6997 0.8906 0.8956
H4_2 H 0.6474 0.9259 0.7787
Zn5_2 Zn 0.35796(3) 0.57494(3) 0.46020(6)
Zn3_2 Zn 0.85796(3) 0.57494(3) 0.03980(6)
C1_3 C 0.6675(4) 0.2500 0.4826(7)
C2_3 C 0.6147(4) 0.2500 0.6221(7)
C3_3 C 0.4913(2) 0.4716(3) 0.4328(5)
C4_3 C 0.7383(3) 0.5081(3) 0.8039(6)
N1_3 N 0.7253(2) 0.4453(2) 0.7073(5)
N2_3 N 0.7859(3) 0.3962(3) 0.7240(7)
N3_3 N 0.8321(3) 0.4284(3) 0.8219(7)
N4_2 N 0.8035(2) 0.4995(2) 0.8763(4)
N5_3 N 0.6892(3) 0.5715(4) 0.8291(9)
H1_3 H 0.6997 0.6094 0.8956
H2_3 H 0.6474 0.5741 0.7787
O1_3 O 0.68731(19) 0.31990(19) 0.4299(4)
O2_3 O 0.59449(18) 0.3198(2) 0.6722(4)
O3_3 O 0.54028(18) 0.4180(2) 0.3975(4)
O4_3 O 0.42980(17) 0.4834(2) 0.3645(4)
Zn1_2 Zn 0.64204(3) 0.42506(3) 0.53980(6)
C5_3 C 0.5087(2) 0.5284(3) 0.5672(5)
O7_3 O 0.45972(18) 0.5820(2) 0.6025(4)
O8_3 O 0.57020(17) 0.5166(2) 0.6355(4)
C6_3 C 0.2617(3) 0.4919(3) 0.1961(6)
N6_3 N 0.2747(2) 0.5547(2) 0.2927(5)
N7_3 N 0.2141(3) 0.6038(3) 0.2760(7)
N8_3 N 0.1679(3) 0.5716(3) 0.1781(7)
N9_2 N 0.1965(2) 0.5005(2) 0.1237(4)
N10_3 N 0.3108(3) 0.4285(4) 0.1709(9)
H3_3 H 0.3003 0.3906 0.1044
H4_3 H 0.3526 0.4259 0.2213
N11_2 N 0.6965(2) 0.5005(2) 0.3763(4)
N12_2 N 0.3035(2) 0.4995(2) 0.6237(4)
O7_4 O 0.04028(18) 0.4180(2) 0.1025(4)
C3_4 C 0.0087(2) 0.5284(3) 0.9328(5)
O4_4 O 0.07020(17) 0.5166(2) 0.8645(4)
C6_4 C 0.2383(3) 0.5081(3) 0.6961(6)
N6_4 N 0.2253(2) 0.4453(2) 0.7927(5)
N7_4 N 0.2859(3) 0.3962(3) 0.7760(7)
N8_4 N 0.3321(3) 0.4284(3) 0.6781(7)
N10_4 N 0.1892(3) 0.5715(4) 0.6709(9)
H3_4 H 0.1997 0.6094 0.6044
H4_4 H 0.1474 0.5741 0.7213
C2_4 C 0.8853(4) 0.7500 0.1221(7)
C4_4 C 0.7617(3) 0.4919(3) 0.3039(6)
N1_4 N 0.7747(2) 0.5547(2) 0.2073(5)
N2_4 N 0.7141(3) 0.6038(3) 0.2240(7)
N3_4 N 0.6679(3) 0.5716(3) 0.3219(7)
N5_4 N 0.8108(3) 0.4285(4) 0.3291(9)
H1_4 H 0.8003 0.3906 0.3956
H2_4 H 0.8526 0.4259 0.2787
O2_4 O 0.90551(18) 0.6802(2) 0.1722(4)
C5_4 C 0.9913(2) 0.4716(3) 0.0672(5)
O8_4 O 0.92980(17) 0.4834(2) 0.1355(4)
C1_4 C 0.8325(4) 0.7500 0.9826(7)
O1_4 O 0.81269(19) 0.68010(19) 0.9299(4)
O3_4 O 0.95972(18) 0.5820(2) 0.8975(4)
loop_
_geom_bond_atom_site_label_1
_geom_bond_atom_site_label_2
_geom_bond_site_symmetry_1
_geom_bond_site_symmetry_2
O1 C1 1_555 1_555
O5 C1 1_555 1_555
C2 O2 1_555 1_555
N1 N2 1_555 1_555
N2 N3 1_555 1_555
N3 N4 1_555 1_555
O2 Zn1 1_555 1_555
Zn1 N1 1_555 1_555
O6 C2 1_555 1_555
O6 Zn5 1_555 1_555
N5 C4 1_555 1_555
H1 N5 1_555 1_555
H2 N5 1_555 1_555
C5 O8 1_555 1_555
O4 C3 1_555 1_555
N10 C6 1_555 1_555
H3 N10 1_555 1_555
H4 N10 1_555 1_555
N6 N7 1_555 1_555
N7 N8 1_555 1_555
N8 N9 1_555 1_555
O10 Zn2 1_555 1_555
N6 Zn2 1_555 1_555
N5_2 C4_2 1_555 1_555
H1_2 N5_2 1_555 1_555
H2_2 N5_2 1_555 1_555
O7_2 C5_2 1_555 1_555
N6_2 N7_2 1_555 1_555
N7_2 N8_2 1_555 1_555
N8_2 N12 1_555 1_555
O9_2 Zn4 1_555 1_555
O10_2 Zn4 1_555 1_555
C5_2 O8_2 1_555 1_555
O7_2 Zn4 1_555 1_555
N6_2 Zn4 1_555 1_555
C1_2 C2_2 1_555 1_555
C2_2 O2_2 1_555 1_555
C3_2 O3_2 1_555 1_555
N1_2 N2_2 1_555 1_555
N2_2 N3_2 1_555 1_555
N3_2 N11 1_555 1_555
O1_2 C1_2 1_555 1_555
O2_2 Zn3 1_555 1_555
O3_2 Zn3 1_555 1_555
O4_2 C3_2 1_555 1_555
Zn3 N1_2 1_555 1_555
O5_2 C1_2 1_555 1_555
O6_2 C2_2 1_555 1_555
N10_2 C6_2 1_555 1_555
H3_2 N10_2 1_555 1_555
H4_2 N10_2 1_555 1_555
Zn5_2 O5_2 1_555 1_555
O1_2 Zn3 1_555 1_555
O6_2 Zn5_2 1_555 1_555
C1_3 C2_3 1_555 1_555
C2_3 O2_3 1_555 1_555
C3_3 O3_3 1_555 1_555
C4_3 N1_3 1_555 1_555
N1_3 N2_3 1_555 1_555
N2_3 N3_3 1_555 1_555
N3_3 N4_2 1_555 1_555
N4_2 C4_3 1_555 1_555
N5_3 C4_3 1_555 1_555
H1_3 N5_3 1_555 1_555
H2_3 N5_3 1_555 1_555
O1_3 C1_3 1_555 1_555
O2_3 Zn1_2 1_555 1_555
O3_3 Zn1_2 1_555 1_555
O4_3 C3_3 1_555 1_555
Zn1_2 N1_3 1_555 1_555
O9_2 C1_3 1_555 1_555
O10_2 C2_3 1_555 1_555
C5_3 C3_3 1_555 1_555
O7_3 C5_3 1_555 1_555
O8_3 Zn1_2 1_555 1_555
C6_3 N6_3 1_555 1_555
N6_3 N7_3 1_555 1_555
N7_3 N8_3 1_555 1_555
N8_3 N9_2 1_555 1_555
N9_2 C6_3 1_555 1_555
N10_3 C6_3 1_555 1_555
H3_3 N10_3 1_555 1_555
H4_3 N10_3 1_555 1_555
Zn5_2 O4_3 1_555 1_555
N11_2 Zn1_2 1_555 1_555
N12_2 Zn5_2 1_555 1_555
O1_3 Zn1_2 1_555 1_555
C5_3 O8_3 1_555 1_555
O7_3 Zn5_2 1_555 1_555
N6_3 Zn5_2 1_555 1_555
O4_4 C3_4 1_555 1_555
C6_4 N6_4 1_555 1_555
N6_4 N7_4 1_555 1_555
N7_4 N8_4 1_555 1_555
N8_4 N12_2 1_555 1_555
N12_2 C6_4 1_555 1_555
N10_4 C6_4 1_555 1_555
H3_4 N10_4 1_555 1_555
H4_4 N10_4 1_555 1_555
Zn5 O4_4 1_555 1_555
N6_4 Zn5 1_555 1_555
C2_4 O2_4 1_555 1_555
C4_4 N1_4 1_555 1_555
N1_4 N2_4 1_555 1_555
N2_4 N3_4 1_555 1_555
N3_4 N11_2 1_555 1_555
N11_2 C4_4 1_555 1_555
N5_4 C4_4 1_555 1_555
H1_4 N5_4 1_555 1_555
H2_4 N5_4 1_555 1_555
O2_4 Zn3_2 1_555 1_555
Zn3_2 N1_4 1_555 1_555
O10 C2_4 1_555 1_555
O8_4 Zn3_2 1_555 1_555
C5_4 O8_4 1_555 1_555
O1_4 C1_4 1_555 1_555
O9 C1_4 1_555 1_555

#END
