
###############################################################################
#
# This file contains modified crystal structure data generated from the
# MOF subset of the Cambridge Structural Database (CSD) v543 
# hosted by the Cambridge Crystallographic Data Centre (CCDC).
#
# This work is licensed under the Creative Commons
# Attribution-NonCommercial-ShareAlike 4.0 International License.
# To view a copy of this license, visit
# http://creativecommons.org/licenses/by-nc-sa/4.0/
# or send a letter to
# Creative Commons, PO Box 1866, Mountain View, CA 94042, USA.
#
# CIF created using the CSD Python API on 29 September 2022
# The structure has been converted into the P1 space group
# The structure has a 3D framework
# The original CSD entry BUBPOG is in the triclinic crystal system
# The framework has been calculated to contain at least 10.0% void space
# The void calculation uses a probe of radius 1.32A, grid spacing 0.4
#
###############################################################################

data_BUBPOG
_chemical_formula_moiety         '(C48 H36 N24 O22 Yb4)n'
_symmetry_cell_setting           triclinic
_symmetry_space_group_name_H-M   'P 1'
_symmetry_Int_Tables_number      1
_space_group_name_Hall           'P 1'
loop_
_symmetry_equiv_pos_site_id
_symmetry_equiv_pos_as_xyz
1 x,y,z
_cell_length_a                   10.4337(8)
_cell_length_b                   11.3682(9)
_cell_length_c                   16.2663(13)
_cell_angle_alpha                100.086(2)
_cell_angle_beta                 104.773(2)
_cell_angle_gamma                107.153(2)
_cell_volume                     1715.95
loop_
_atom_site_label
_atom_site_type_symbol
_atom_site_fract_x
_atom_site_fract_y
_atom_site_fract_z
O10 O 0.1513(11) 0.1736(9) 0.1759(6)
N6 N 0.1061(12) 0.1604(11) 0.0284(7)
H4 H 0.0604 0.2124 0.0342
C11 C 0.1725(13) 0.1344(12) 0.1046(8)
C19 C 0.2505(15) 0.0046(13) 0.0108(8)
C22 C 0.2477(15) 0.0536(14) 0.0923(9)
H17 H 0.2972 0.0327 0.1411
O3 O 0.2546(10) 0.5192(9) 0.1111(5)
N5 N 0.1534(11) 0.6471(11) 0.0429(6)
H3 H 0.1784 0.6998 0.0947
C12 C 0.1981(14) 0.5465(15) 0.0396(8)
H15 H 0.3062 0.9544 0.0035
Yb4 Yb 0.25869(6) 0.54087(5) 0.25894(3)
Yb2 Yb 0.01340(6) 0.78354(5) 0.75976(3)
O1 O 0.0966(9) 0.5933(10) 0.3197(5)
O6 O 0.1498(11) 0.9697(10) 0.8542(6)
N3 N 0.0725(13) 0.6749(12) 0.9727(7)
O12 O 0.0691(12) 0.7364(10) 0.6423(6)
C2 C 0.1016(15) 0.5007(14) 0.8832(8)
H5 H 0.0874 0.4533 0.8260
N7 N 0.1431(11) 0.5902(10) 0.4651(7)
H6 H 0.1902 0.5399 0.4570
C4 C 0.0477(15) 0.5982(13) 0.8964(8)
C7 C 0.0783(14) 0.6253(13) 0.3909(7)
C15 C 0.1763(16) 0.4767(15) 0.9569(9)
H11 H 0.2131 0.4108 0.9501
N12 N 0.1391(12) 0.6264(11) 0.5453(7)
C18 C 0.0013(13) 0.7078(13) 0.4100(8)
C20 C 0.0682(16) 0.7011(13) 0.5609(8)
O16 O 0.2275(10) 0.7562(9) 0.8219(6)
Yb8 Yb 0.98660(6) 0.21646(5) 0.24024(3)
O8 O 0.0704(11) 0.0893(9) 0.3218(6)
C10 C 0.1211(15) 0.0018(11) 0.3092(7)
H18 H 0.2569 0.0341 0.4351
O2 O 0.4056(10) 0.6577(8) 0.4020(5)
O4 O 0.2908(13) 0.7340(10) 0.2444(7)
O5 O 0.7963(10) 0.6246(8) 0.6750(5)
O7 O 0.7725(10) 0.2438(9) 0.1781(6)
N1 N 0.0835(13) 0.9241(11) 0.2280(7)
H1 H 0.0188 0.9328 0.1862
O9 O 0.9598(10) 0.6163(9) 0.8263(5)
N2 N 0.6971(11) 0.5897(10) 0.5283(6)
O11 O 0.4493(11) 0.5009(11) 0.2599(6)
N4 N 0.5949(12) 0.6008(11) 0.4601(6)
H2 H 0.5914 0.5679 0.4067
C1 C 0.6963(14) 0.3050(12) 0.1932(9)
C3 C 0.2362(16) 0.8192(13) 0.2695(9)
N8 N 0.1390(15) 0.8309(12) 0.2049(7)
C5 C 0.5005(13) 0.6570(12) 0.4677(7)
C6 C 0.7044(13) 0.6443(12) 0.6065(8)
N10 N 0.7203(13) 0.3776(13) 0.2746(7)
H7 H 0.7962 0.3846 0.3158
N11 N 0.6364(14) 0.4419(13) 0.2989(7)
C8 C 0.5287(14) 0.4383(15) 0.2361(8)
C9 C 0.5158(16) 0.7202(13) 0.5569(9)
H8 H 0.4570 0.7657 0.5677
C13 C 0.9941(15) 0.7423(13) 0.4912(8)
H9 H 0.9407 0.7933 0.5025
C14 C 0.4954(15) 0.3703(13) 0.1452(9)
H10 H 0.4171 0.3712 0.1015
C16 C 0.6158(14) 0.7123(12) 0.6236(7)
H12 H 0.6275 0.7521 0.6821
C17 C 0.5752(15) 0.3067(13) 0.1233(9)
H13 H 0.5549 0.2634 0.0640
H14 H 0.9559 0.7376 0.3649
C21 C 0.2805(16) 0.8909(14) 0.3577(9)
H16 H 0.3462 0.8758 0.4022
C24 C 0.2259(15) 0.9825(13) 0.3769(9)
Yb5 Yb 0.74131(6) 0.45913(5) 0.74106(3)
O15 O 0.2037(10) 0.3754(8) 0.3250(5)
O17 O 0.9296(11) 0.9107(9) 0.6782(6)
O18 O 0.0402(10) 0.3837(9) 0.1737(5)
O19 O 0.8487(11) 0.8264(9) 0.8241(6)
O2_2 O 0.5944(10) 0.3423(8) 0.5980(5)
O4_2 O 0.7092(13) 0.2660(10) 0.7556(7)
N1_2 N 0.9165(13) 0.0759(11) 0.7720(7)
H1_2 H 0.9812 0.0672 0.8138
N2_2 N 0.3029(11) 0.4103(10) 0.4717(6)
O11_2 O 0.5507(11) 0.4991(11) 0.7401(6)
N4_2 N 0.4051(12) 0.3992(11) 0.5399(6)
H2_2 H 0.4086 0.4321 0.5933
C1_2 C 0.3037(14) 0.6950(12) 0.8068(9)
C3_2 C 0.7638(16) 0.1808(13) 0.7305(9)
N8_2 N 0.8610(15) 0.1691(12) 0.7951(7)
C5_2 C 0.4995(13) 0.3430(12) 0.5323(7)
C6_2 C 0.2956(13) 0.3557(12) 0.3935(8)
N10_2 N 0.2797(13) 0.6224(13) 0.7254(7)
H7_2 H 0.2038 0.6154 0.6842
N11_2 N 0.3636(14) 0.5581(13) 0.7011(7)
C8_2 C 0.4713(14) 0.5617(15) 0.7639(8)
C9_2 C 0.4842(16) 0.2798(13) 0.4431(9)
H8_2 H 0.5430 0.2343 0.4323
C13_2 C 0.0059(15) 0.2577(13) 0.5088(8)
H9_2 H 0.0593 0.2067 0.4975
C14_2 C 0.5046(15) 0.6297(13) 0.8548(9)
H10_2 H 0.5829 0.6288 0.8985
C16_2 C 0.3842(14) 0.2877(12) 0.3764(7)
H12_2 H 0.3725 0.2479 0.3179
C17_2 C 0.4248(15) 0.6933(13) 0.8767(9)
H13_2 H 0.4451 0.7366 0.9360
H14_2 H 0.0441 0.2624 0.6351
C21_2 C 0.7195(16) 0.1091(14) 0.6423(9)
H16_2 H 0.6538 0.1242 0.5978
C24_2 C 0.7741(15) 0.0175(13) 0.6231(9)
O13 O 0.9034(9) 0.4067(10) 0.6803(5)
O14 O 0.7454(10) 0.4808(9) 0.8889(5)
C10_2 C 0.8789(15) 0.9982(11) 0.6908(7)
H18_2 H 0.7431 0.9659 0.5649
O6_2 O 0.8502(11) 0.0303(10) 0.1458(6)
N3_2 N 0.9275(13) 0.3251(12) 0.0273(7)
O12_2 O 0.9309(12) 0.2636(10) 0.3577(6)
C2_2 C 0.8984(15) 0.4993(14) 0.1168(8)
H5_2 H 0.9126 0.5467 0.1740
N7_2 N 0.8569(11) 0.4098(10) 0.5349(7)
H6_2 H 0.8098 0.4601 0.5430
C4_2 C 0.9523(15) 0.4018(13) 0.1036(8)
C7_2 C 0.9217(14) 0.3747(13) 0.6091(7)
C15_2 C 0.8237(16) 0.5233(15) 0.0431(9)
H11_2 H 0.7869 0.5892 0.0499
N12_2 N 0.8609(12) 0.3736(11) 0.4547(7)
C18_2 C 0.9987(13) 0.2922(13) 0.5900(8)
C20_2 C 0.9318(16) 0.2989(13) 0.4391(8)
N5_2 N 0.8466(11) 0.3529(11) 0.9571(6)
H3_2 H 0.8216 0.3002 0.9053
C12_2 C 0.8019(14) 0.4535(15) 0.9604(8)
H15_2 H 0.6938 0.0456 0.9965
N6_2 N 0.8939(12) 0.8396(11) 0.9716(7)
H4_2 H 0.9396 0.7876 0.9658
C11_2 C 0.8275(13) 0.8656(12) 0.8954(8)
C19_2 C 0.7495(15) 0.9954(13) 0.9892(8)
C22_2 C 0.7523(15) 0.9464(14) 0.9077(9)
H17_2 H 0.7028 0.9673 0.8589
N9 N 0.1050(13) 0.1124(12) 0.9448(7)
C23 C 0.1698(14) 0.0295(13) 0.9378(9)
N9_2 N 0.8950(13) 0.8876(12) 0.0552(7)
C23_2 C 0.8302(14) 0.9705(13) 0.0622(9)
loop_
_geom_bond_atom_site_label_1
_geom_bond_atom_site_label_2
_geom_bond_site_symmetry_1
_geom_bond_site_symmetry_2
O10 C11 1_555 1_555
N6 H4 1_555 1_555
C11 N6 1_555 1_555
C22 C11 1_555 1_555
H17 C22 1_555 1_555
C19 C22 1_555 1_555
O3 C12 1_555 1_555
N5 H3 1_555 1_555
C12 N5 1_555 1_555
Yb4 O3 1_555 1_555
O1 C7 1_555 1_555
O6 Yb2 1_555 1_555
O12 Yb2 1_555 1_555
C2 H5 1_555 1_555
N7 H6 1_555 1_555
C7 N7 1_555 1_555
C15 C2 1_555 1_555
H11 C15 1_555 1_555
N12 N7 1_555 1_555
C18 C7 1_555 1_555
C20 O12 1_555 1_555
Yb4 O1 1_555 1_555
O16 Yb2 1_555 1_555
N3 C4 1_555 1_555
C2 C4 1_555 1_555
N12 C20 1_555 1_555
O8 C10 1_555 1_555
Yb4 O2 1_555 1_555
O2 C5 1_555 1_555
O4 Yb4 1_555 1_555
O5 C6 1_555 1_555
O7 C1 1_555 1_555
N1 H1 1_555 1_555
N2 N4 1_555 1_555
O11 Yb4 1_555 1_555
N4 H2 1_555 1_555
C1 N10 1_555 1_555
C3 O4 1_555 1_555
N8 N1 1_555 1_555
C5 N4 1_555 1_555
C6 N2 1_555 1_555
N10 H7 1_555 1_555
N11 N10 1_555 1_555
C8 O11 1_555 1_555
C9 C5 1_555 1_555
H8 C9 1_555 1_555
C13 H9 1_555 1_555
C14 C8 1_555 1_555
H10 C14 1_555 1_555
C16 C6 1_555 1_555
H12 C16 1_555 1_555
C17 C1 1_555 1_555
H13 C17 1_555 1_555
C21 C3 1_555 1_555
H16 C21 1_555 1_555
Yb5 O5 1_555 1_555
Yb8 O7 1_555 1_555
O15 Yb4 1_555 1_555
O18 Yb4 1_555 1_555
O9 Yb5 1_555 1_555
C3 N8 1_555 1_555
N11 C8 1_555 1_555
C9 C16 1_555 1_555
C14 C17 1_555 1_555
C21 C24 1_555 1_555
Yb5 O2_2 1_555 1_555
O2_2 C5_2 1_555 1_555
O4_2 Yb5 1_555 1_555
O15 C6_2 1_555 1_555
O16 C1_2 1_555 1_555
N1_2 H1_2 1_555 1_555
N2_2 N4_2 1_555 1_555
O11_2 Yb5 1_555 1_555
N4_2 H2_2 1_555 1_555
C1_2 N10_2 1_555 1_555
C3_2 O4_2 1_555 1_555
N8_2 N1_2 1_555 1_555
C5_2 N4_2 1_555 1_555
C6_2 N2_2 1_555 1_555
N10_2 H7_2 1_555 1_555
N11_2 N10_2 1_555 1_555
C8_2 O11_2 1_555 1_555
C9_2 C5_2 1_555 1_555
H8_2 C9_2 1_555 1_555
C13_2 H9_2 1_555 1_555
C14_2 C8_2 1_555 1_555
H10_2 C14_2 1_555 1_555
C16_2 C6_2 1_555 1_555
H12_2 C16_2 1_555 1_555
C17_2 C1_2 1_555 1_555
H13_2 C17_2 1_555 1_555
C21_2 C3_2 1_555 1_555
H16_2 C21_2 1_555 1_555
O13 Yb5 1_555 1_555
O14 Yb5 1_555 1_555
C3_2 N8_2 1_555 1_555
N11_2 C8_2 1_555 1_555
C9_2 C16_2 1_555 1_555
C14_2 C17_2 1_555 1_555
C21_2 C24_2 1_555 1_555
O17 C10_2 1_555 1_555
O13 C7_2 1_555 1_555
O6_2 Yb8 1_555 1_555
O12_2 Yb8 1_555 1_555
C2_2 H5_2 1_555 1_555
N7_2 H6_2 1_555 1_555
C7_2 N7_2 1_555 1_555
C15_2 C2_2 1_555 1_555
H11_2 C15_2 1_555 1_555
N12_2 N7_2 1_555 1_555
C18_2 C7_2 1_555 1_555
C20_2 O12_2 1_555 1_555
N3_2 C4_2 1_555 1_555
C2_2 C4_2 1_555 1_555
N12_2 C20_2 1_555 1_555
O14 C12_2 1_555 1_555
N5_2 H3_2 1_555 1_555
C12_2 N5_2 1_555 1_555
O19 C11_2 1_555 1_555
N6_2 H4_2 1_555 1_555
C11_2 N6_2 1_555 1_555
C22_2 C11_2 1_555 1_555
H17_2 C22_2 1_555 1_555
C19_2 C22_2 1_555 1_555
N9 C23 1_555 1_555
N9_2 C23_2 1_555 1_555

#END
