
###############################################################################
#
# This file contains modified crystal structure data generated from the
# MOF subset of the Cambridge Structural Database (CSD) v543 
# hosted by the Cambridge Crystallographic Data Centre (CCDC).
#
# This work is licensed under the Creative Commons
# Attribution-NonCommercial-ShareAlike 4.0 International License.
# To view a copy of this license, visit
# http://creativecommons.org/licenses/by-nc-sa/4.0/
# or send a letter to
# Creative Commons, PO Box 1866, Mountain View, CA 94042, USA.
#
# CIF created using the CSD Python API on 29 September 2022
# The structure has been converted into the P1 space group
# The structure has a 3D framework
# The original CSD entry BUBPUM is in the triclinic crystal system
# The framework has been calculated to contain at least 10.0% void space
# The void calculation uses a probe of radius 1.32A, grid spacing 0.4
#
###############################################################################

data_BUBPUM
_chemical_formula_moiety         '(C48 H36 Er4 N24 O22)n'
_symmetry_cell_setting           triclinic
_symmetry_space_group_name_H-M   'P 1'
_symmetry_Int_Tables_number      1
_space_group_name_Hall           'P 1'
loop_
_symmetry_equiv_pos_site_id
_symmetry_equiv_pos_as_xyz
1 x,y,z
_cell_length_a                   10.366(2)
_cell_length_b                   11.333(2)
_cell_length_c                   16.169(3)
_cell_angle_alpha                100.210(4)
_cell_angle_beta                 104.428(4)
_cell_angle_gamma                106.832(5)
_cell_volume                     1695.85
loop_
_atom_site_label
_atom_site_type_symbol
_atom_site_fract_x
_atom_site_fract_y
_atom_site_fract_z
O1 O 0.0398(8) 0.3842(7) 0.1745(4)
C9 C 0.0051(13) 0.2565(13) 0.5085(8)
H9 H 0.0578 0.2043 0.4967
C15 C 0.0005(12) 0.2924(11) 0.5922(7)
H11 H 0.0489 0.2653 0.6382
Er5 Er 0.25825(5) 0.54065(4) 0.25922(3)
O14 O 0.1519(8) 0.1735(8) 0.1739(5)
O16 O 0.2061(8) 0.3755(7) 0.3258(4)
O18 O 0.0778(9) 0.0948(8) 0.3240(5)
Er9 Er 0.00993(5) 0.78186(4) 0.75964(3)
Er1 Er 0.74175(5) 0.45935(4) 0.74078(3)
Er2 Er 0.99007(5) 0.21814(4) 0.24036(3)
O3 O 0.5959(8) 0.3450(8) 0.5986(5)
O5 O 0.5527(9) 0.4997(9) 0.7415(5)
O6 O 0.9034(8) 0.4062(8) 0.6789(5)
N1 N 0.4024(9) 0.3966(9) 0.5403(6)
H1 H 0.4031 0.4275 0.5937
O9 O 0.2241(9) 0.7551(9) 0.8213(6)
O10 O 0.8536(9) 0.0315(8) 0.1472(5)
O11 O 0.9329(10) 0.2650(9) 0.3573(5)
N2 N 0.9102(12) 0.0739(10) 0.7711(6)
H2 H 0.9760 0.0648 0.8122
O12 O 0.7026(10) 0.2639(8) 0.7526(6)
N4 N 0.8567(10) 0.4070(9) 0.5366(6)
H4 H 0.8084 0.4564 0.5459
N5 N 0.2838(11) 0.6213(10) 0.7285(7)
H5 H 0.2079 0.6143 0.6871
C1 C 0.9198(11) 0.3728(10) 0.6084(7)
N6 N 0.9283(9) 0.3272(9) 0.0268(6)
N7 N 0.8598(10) 0.3735(10) 0.4520(6)
C2 C 0.3034(12) 0.6901(11) 0.8051(8)
N8 N 0.3028(10) 0.4103(9) 0.4719(6)
N9 N 0.3660(11) 0.5576(10) 0.7032(6)
C5 C 0.7723(13) 0.0161(11) 0.6250(8)
C6 C 0.7556(13) 0.1781(11) 0.7292(8)
C7 C 0.4818(12) 0.2796(11) 0.4448(7)
H8 H 0.5411 0.2332 0.4353
N11 N 0.8579(12) 0.1704(10) 0.7978(6)
C10 C 0.2937(11) 0.3570(10) 0.3913(7)
C11 C 0.8265(13) 0.5253(12) 0.0460(7)
H10 H 0.7901 0.5921 0.0526
C12 C 0.9557(11) 0.4010(10) 0.1065(7)
C13 C 0.9306(13) 0.2970(11) 0.4376(7)
C18 C 0.4978(11) 0.3411(10) 0.5333(7)
C19 C 0.4710(12) 0.5604(12) 0.7618(8)
C20 C 0.4201(13) 0.6924(13) 0.8737(9)
H14 H 0.4381 0.7374 0.9325
C21 C 0.8978(12) 0.5021(11) 0.1179(8)
H15 H 0.9103 0.5502 0.1749
C22 C 0.3837(12) 0.2856(11) 0.3732(8)
H16 H 0.3750 0.2455 0.3149
C23 C 0.5054(13) 0.6295(13) 0.8538(8)
H17 H 0.5844 0.6302 0.8980
C24 C 0.7172(14) 0.1075(12) 0.6467(8)
H18 H 0.6498 0.1211 0.6020
O13 O 0.9602(8) 0.6158(7) 0.8255(4)
O15 O 0.7461(8) 0.4778(8) 0.8891(5)
O17 O 0.7939(8) 0.6245(7) 0.6742(4)
O19 O 0.7759(9) 0.2449(9) 0.1787(6)
N3 N 0.8471(10) 0.3531(10) 0.9562(6)
H3 H 0.8217 0.2991 0.9046
C14 C 0.8035(12) 0.4515(12) 0.9587(7)
H13 H 0.6981 0.0519 0.9984
O8 O 0.9222(9) 0.9052(8) 0.6760(5)
C4 C 0.8709(12) 0.9926(11) 0.6889(7)
H7 H 0.7432 0.9681 0.5656
C8 C 0.8328(11) 0.9706(11) 0.0654(7)
N12 N 0.8987(11) 0.8918(10) 0.0572(6)
O2 O 0.8481(8) 0.8265(8) 0.8261(5)
C3 C 0.8304(11) 0.8643(11) 0.8963(7)
N10 N 0.8906(10) 0.8370(9) 0.9700(6)
H6 H 0.9292 0.7787 0.9635
C16 C 0.7513(11) 0.9481(11) 0.9094(8)
H12 H 0.6994 0.9673 0.8603
C17 C 0.7511(12) 0.9986(12) 0.9904(7)
C3_2 C 0.1696(11) 0.1357(11) 0.1037(7)
N10_2 N 0.1094(10) 0.1630(9) 0.0300(6)
H6_2 H 0.0708 0.2213 0.0365
C16_2 C 0.2487(11) 0.0519(11) 0.0906(8)
H12_2 H 0.3006 0.0327 0.1397
C17_2 C 0.2489(12) 0.0014(12) 0.0096(7)
C4_2 C 0.1291(12) 0.0074(11) 0.3111(7)
H7_2 H 0.2568 0.0319 0.4344
C8_2 C 0.1672(11) 0.0294(11) 0.9346(7)
N12_2 N 0.1013(11) 0.1082(10) 0.9428(6)
O4 O 0.2539(8) 0.5222(8) 0.1109(5)
N3_2 N 0.1529(10) 0.6469(10) 0.0438(6)
H3_2 H 0.1783 0.7009 0.0954
C14_2 C 0.1965(12) 0.5485(12) 0.0413(7)
H13_2 H 0.3019 0.9481 0.0016
O3_2 O 0.4041(8) 0.6550(8) 0.4014(5)
O5_2 O 0.4473(9) 0.5003(9) 0.2585(5)
O6_2 O 0.0966(8) 0.5938(8) 0.3211(5)
N1_2 N 0.5976(9) 0.6034(9) 0.4597(6)
H1_2 H 0.5969 0.5725 0.4063
O10_2 O 0.1464(9) 0.9685(8) 0.8528(5)
O11_2 O 0.0671(10) 0.7350(9) 0.6427(5)
N2_2 N 0.0898(12) 0.9261(10) 0.2289(6)
H2_2 H 0.0240 0.9352 0.1878
O12_2 O 0.2974(10) 0.7361(8) 0.2474(6)
N4_2 N 0.1433(10) 0.5930(9) 0.4634(6)
H4_2 H 0.1916 0.5436 0.4541
N5_2 N 0.7162(11) 0.3787(10) 0.2715(7)
H5_2 H 0.7921 0.3857 0.3129
C1_2 C 0.0802(11) 0.6272(10) 0.3916(7)
N6_2 N 0.0717(9) 0.6728(9) 0.9732(6)
N7_2 N 0.1402(10) 0.6265(10) 0.5480(6)
C2_2 C 0.6966(12) 0.3099(11) 0.1949(8)
N8_2 N 0.6972(10) 0.5897(9) 0.5281(6)
N9_2 N 0.6340(11) 0.4424(10) 0.2968(6)
C5_2 C 0.2277(13) 0.9839(11) 0.3750(8)
C6_2 C 0.2444(13) 0.8219(11) 0.2708(8)
C7_2 C 0.5182(12) 0.7204(11) 0.5552(7)
H8_2 H 0.4589 0.7668 0.5647
N11_2 N 0.1421(12) 0.8296(10) 0.2022(6)
C10_2 C 0.7063(11) 0.6430(10) 0.6087(7)
C11_2 C 0.1735(13) 0.4747(12) 0.9540(7)
H10_2 H 0.2099 0.4079 0.9474
C12_2 C 0.0443(11) 0.5990(10) 0.8935(7)
C13_2 C 0.0694(13) 0.7030(11) 0.5624(7)
C18_2 C 0.5022(11) 0.6589(10) 0.4667(7)
C19_2 C 0.5290(12) 0.4396(12) 0.2382(8)
C20_2 C 0.5799(13) 0.3076(13) 0.1263(9)
H14_2 H 0.5619 0.2626 0.0675
C21_2 C 0.1022(12) 0.4979(11) 0.8821(8)
H15_2 H 0.0897 0.4498 0.8251
C22_2 C 0.6163(12) 0.7144(11) 0.6268(8)
H16_2 H 0.6250 0.7545 0.6851
C23_2 C 0.4946(13) 0.3705(13) 0.1462(8)
H17_2 H 0.4156 0.3698 0.1020
C24_2 C 0.2828(14) 0.8925(12) 0.3533(8)
H18_2 H 0.3502 0.8789 0.3980
C9_2 C 0.9949(13) 0.7435(13) 0.4915(8)
H9_2 H 0.9422 0.7957 0.5033
C15_2 C 0.9995(12) 0.7076(11) 0.4078(7)
H11_2 H 0.9511 0.7347 0.3618
loop_
_geom_bond_atom_site_label_1
_geom_bond_atom_site_label_2
_geom_bond_site_symmetry_1
_geom_bond_site_symmetry_2
C9 H9 1_555 1_555
H11 C15 1_555 1_555
Er5 O1 1_555 1_555
C9 C15 1_555 1_555
Er5 O16 1_555 1_555
Er1 O3 1_555 1_555
O3 C18 1_555 1_555
O5 Er1 1_555 1_555
O6 Er1 1_555 1_555
O16 C10 1_555 1_555
N1 H1 1_555 1_555
O9 C2 1_555 1_555
O10 Er2 1_555 1_555
O11 Er2 1_555 1_555
N2 H2 1_555 1_555
O12 Er1 1_555 1_555
N4 H4 1_555 1_555
N5 H5 1_555 1_555
C1 O6 1_555 1_555
N7 N4 1_555 1_555
C2 N5 1_555 1_555
N8 N1 1_555 1_555
N9 N5 1_555 1_555
C6 O12 1_555 1_555
C7 H8 1_555 1_555
N11 N2 1_555 1_555
C10 N8 1_555 1_555
C11 H10 1_555 1_555
C12 N6 1_555 1_555
C13 O11 1_555 1_555
C18 N1 1_555 1_555
C19 O5 1_555 1_555
C20 C2 1_555 1_555
H14 C20 1_555 1_555
C21 C11 1_555 1_555
H15 C21 1_555 1_555
C22 C7 1_555 1_555
H16 C22 1_555 1_555
C23 C19 1_555 1_555
H17 C23 1_555 1_555
C24 C5 1_555 1_555
H18 C24 1_555 1_555
Er9 O9 1_555 1_555
O13 Er1 1_555 1_555
O15 Er1 1_555 1_555
O17 Er1 1_555 1_555
O19 Er2 1_555 1_555
N4 C1 1_555 1_555
N7 C13 1_555 1_555
N9 C19 1_555 1_555
C6 N11 1_555 1_555
C6 C24 1_555 1_555
C7 C18 1_555 1_555
C10 C22 1_555 1_555
C12 C21 1_555 1_555
C20 C23 1_555 1_555
O15 C14 1_555 1_555
N3 H3 1_555 1_555
C14 N3 1_555 1_555
O8 C4 1_555 1_555
C8 N12 1_555 1_555
O2 C3 1_555 1_555
C3 N10 1_555 1_555
N10 H6 1_555 1_555
C16 C3 1_555 1_555
H12 C16 1_555 1_555
C16 C17 1_555 1_555
O14 C3_2 1_555 1_555
C3_2 N10_2 1_555 1_555
N10_2 H6_2 1_555 1_555
C16_2 C3_2 1_555 1_555
H12_2 C16_2 1_555 1_555
C16_2 C17_2 1_555 1_555
O18 C4_2 1_555 1_555
C8_2 N12_2 1_555 1_555
O4 C14_2 1_555 1_555
N3_2 H3_2 1_555 1_555
C14_2 N3_2 1_555 1_555
Er5 O4 1_555 1_555
Er5 O3_2 1_555 1_555
O3_2 C18_2 1_555 1_555
O5_2 Er5 1_555 1_555
O6_2 Er5 1_555 1_555
O17 C10_2 1_555 1_555
N1_2 H1_2 1_555 1_555
O19 C2_2 1_555 1_555
O10_2 Er9 1_555 1_555
O11_2 Er9 1_555 1_555
N2_2 H2_2 1_555 1_555
O12_2 Er5 1_555 1_555
N4_2 H4_2 1_555 1_555
N5_2 H5_2 1_555 1_555
C1_2 O6_2 1_555 1_555
N7_2 N4_2 1_555 1_555
C2_2 N5_2 1_555 1_555
N8_2 N1_2 1_555 1_555
N9_2 N5_2 1_555 1_555
C6_2 O12_2 1_555 1_555
C7_2 H8_2 1_555 1_555
N11_2 N2_2 1_555 1_555
C10_2 N8_2 1_555 1_555
C11_2 H10_2 1_555 1_555
C12_2 N6_2 1_555 1_555
C13_2 O11_2 1_555 1_555
C18_2 N1_2 1_555 1_555
C19_2 O5_2 1_555 1_555
C20_2 C2_2 1_555 1_555
H14_2 C20_2 1_555 1_555
C21_2 C11_2 1_555 1_555
H15_2 C21_2 1_555 1_555
C22_2 C7_2 1_555 1_555
H16_2 C22_2 1_555 1_555
C23_2 C19_2 1_555 1_555
H17_2 C23_2 1_555 1_555
C24_2 C5_2 1_555 1_555
H18_2 C24_2 1_555 1_555
N4_2 C1_2 1_555 1_555
N7_2 C13_2 1_555 1_555
N9_2 C19_2 1_555 1_555
C6_2 N11_2 1_555 1_555
C6_2 C24_2 1_555 1_555
C7_2 C18_2 1_555 1_555
C10_2 C22_2 1_555 1_555
C12_2 C21_2 1_555 1_555
C20_2 C23_2 1_555 1_555
C9_2 H9_2 1_555 1_555
H11_2 C15_2 1_555 1_555
C9_2 C15_2 1_555 1_555

#END
