
###############################################################################
#
# This file contains modified crystal structure data generated from the
# MOF subset of the Cambridge Structural Database (CSD) v543 
# hosted by the Cambridge Crystallographic Data Centre (CCDC).
#
# This work is licensed under the Creative Commons
# Attribution-NonCommercial-ShareAlike 4.0 International License.
# To view a copy of this license, visit
# http://creativecommons.org/licenses/by-nc-sa/4.0/
# or send a letter to
# Creative Commons, PO Box 1866, Mountain View, CA 94042, USA.
#
# CIF created using the CSD Python API on 29 September 2022
# The structure has been converted into the P1 space group
# The structure has a 3D framework
# The original CSD entry BUBPIA is in the triclinic crystal system
# The framework has been calculated to contain at least 10.0% void space
# The void calculation uses a probe of radius 1.32A, grid spacing 0.4
#
###############################################################################

data_BUBPIA
_chemical_formula_moiety         '(C48 H36 N24 O22 Y4)n'
_symmetry_cell_setting           triclinic
_symmetry_space_group_name_H-M   'P 1'
_symmetry_Int_Tables_number      1
_space_group_name_Hall           'P 1'
loop_
_symmetry_equiv_pos_site_id
_symmetry_equiv_pos_as_xyz
1 x,y,z
_cell_length_a                   10.3799(8)
_cell_length_b                   11.3213(12)
_cell_length_c                   16.317(2)
_cell_angle_alpha                99.982(4)
_cell_angle_beta                 104.865(4)
_cell_angle_gamma                108.471(4)
_cell_volume                     1688.67
loop_
_atom_site_label
_atom_site_type_symbol
_atom_site_fract_x
_atom_site_fract_y
_atom_site_fract_z
Y5 Y 0.02198(4) 0.78692(3) 0.76147(2)
O3 O 0.0363(3) 0.3815(3) 0.17271(17)
O7 O 0.0596(3) 0.0853(3) 0.31920(18)
C2 C 0.0033(5) 0.2585(4) 0.5066(3)
H7 H 0.055613 0.206070 0.494931
H8 H 0.051314 0.271609 0.635537
C13 C 0.1148(5) 0.0014(4) 0.3071(3)
H13 H 0.244899 0.032875 0.435509
Y6 Y 0.26056(4) 0.54470(3) 0.26018(2)
O16 O 0.1430(3) 0.1711(3) 0.17450(18)
O18 O 0.2037(3) 0.3752(3) 0.32473(17)
O8 O 0.2927(3) 0.7405(3) 0.24517(19)
O9 O 0.4093(3) 0.6624(3) 0.40394(17)
O10 O 0.7963(3) 0.6248(3) 0.67527(17)
O11 O 0.4554(3) 0.5088(3) 0.26316(19)
O12 O 0.7638(3) 0.2416(3) 0.17697(19)
N7 N 0.0790(4) 0.9214(3) 0.2269(2)
H4 H 0.010804 0.926544 0.184334
N8 N 0.1360(4) 0.8335(3) 0.2038(2)
N9 N 0.5986(4) 0.6070(3) 0.4627(2)
H5 H 0.595707 0.575873 0.408617
N10 N 0.6984(4) 0.5929(3) 0.5292(2)
N11 N 0.6388(4) 0.4447(3) 0.3007(2)
N12 N 0.7143(4) 0.3754(3) 0.2745(2)
H6 H 0.780(4) 0.371(4) 0.318(2)
C14 C 0.2184(5) 0.9836(4) 0.3762(3)
C15 C 0.2778(5) 0.8976(4) 0.3572(3)
H14 H 0.347414 0.886728 0.402725
C16 C 0.2354(5) 0.8216(4) 0.2671(3)
C17 C 0.5041(4) 0.6632(4) 0.4705(3)
C18 C 0.5189(4) 0.7222(4) 0.5597(3)
H15 H 0.459707 0.767774 0.570755
C19 C 0.6171(4) 0.7122(4) 0.6272(3)
H16 H 0.627730 0.750856 0.686275
C20 C 0.7056(4) 0.6433(4) 0.6100(2)
C21 C 0.5307(4) 0.4467(4) 0.2389(3)
C22 C 0.4963(5) 0.3803(4) 0.1478(3)
H17 H 0.419629 0.384589 0.103381
C23 C 0.5736(5) 0.3120(4) 0.1259(3)
H18 H 0.551205 0.267656 0.065961
C24 C 0.6890(4) 0.3062(4) 0.1928(3)
Y3 Y 0.97802(4) 0.21308(3) 0.23853(2)
Y9 Y 0.73944(4) 0.45530(3) 0.73982(2)
O13 O 0.0949(3) 0.5924(3) 0.31959(17)
O15 O 0.2573(3) 0.5242(3) 0.11201(17)
O1 O 0.9051(3) 0.4076(3) 0.68041(17)
O2 O 0.9256(3) 0.2635(3) 0.35704(18)
O5 O 0.8342(3) 0.0230(3) 0.13968(18)
N1 N 0.8557(4) 0.4072(3) 0.5366(2)
H1 H 0.809(6) 0.457(5) 0.540(3)
N2 N 0.8563(4) 0.3724(3) 0.4525(2)
N3 N 0.9227(4) 0.3233(3) 0.0254(2)
C1 C 0.9277(4) 0.2982(4) 0.4372(3)
C3 C 0.9997(4) 0.2962(4) 0.5889(3)
C4 C 0.9184(4) 0.3731(4) 0.6061(3)
C5 C 0.9511(4) 0.3987(4) 0.1039(3)
C6 C 0.8975(4) 0.5001(4) 0.1157(3)
H9 H 0.914431 0.549816 0.173413
C7 C 0.8227(5) 0.5249(4) 0.0444(3)
H10 H 0.786042 0.591561 0.051668
O4 O 0.7427(3) 0.4758(3) 0.88799(17)
N4 N 0.8440(4) 0.3504(3) 0.9554(2)
H2 H 0.820175 0.296852 0.903100
C8 C 0.7986(4) 0.4499(4) 0.9573(3)
H11 H 0.691515 0.045147 0.991110
O6 O 0.8570(3) 0.8289(3) 0.82550(18)
N6 N 0.8916(4) 0.8374(3) 0.9701(2)
H3 H 0.934834 0.782468 0.964801
C10 C 0.7459(4) 0.9928(4) 0.9847(3)
C11 C 0.7499(4) 0.9438(4) 0.9044(3)
H12 H 0.697079 0.960140 0.853739
C12 C 0.8353(4) 0.8665(4) 0.8961(2)
N6_2 N 0.1084(4) 0.1626(3) 0.0299(2)
H3_2 H 0.065166 0.217532 0.035199
C10_2 C 0.2541(4) 0.0072(4) 0.0153(3)
C11_2 C 0.2501(4) 0.0562(4) 0.0956(3)
H12_2 H 0.302921 0.039860 0.146261
C12_2 C 0.1647(4) 0.1335(4) 0.1039(2)
N4_2 N 0.1560(4) 0.6496(3) 0.0446(2)
H2_2 H 0.179825 0.703148 0.096900
C8_2 C 0.2014(4) 0.5501(4) 0.0427(3)
H11_2 H 0.308485 0.954853 0.008890
O2_2 O 0.0744(3) 0.7365(3) 0.64296(18)
O5_2 O 0.1658(3) 0.9770(3) 0.86032(18)
N1_2 N 0.1443(4) 0.5928(3) 0.4634(2)
H1_2 H 0.191(6) 0.543(5) 0.460(3)
N2_2 N 0.1437(4) 0.6276(3) 0.5475(2)
N3_2 N 0.0773(4) 0.6767(3) 0.9746(2)
C1_2 C 0.0723(4) 0.7018(4) 0.5628(3)
C3_2 C 0.0003(4) 0.7038(4) 0.4111(3)
C4_2 C 0.0816(4) 0.6269(4) 0.3939(3)
C5_2 C 0.0489(4) 0.6013(4) 0.8961(3)
C6_2 C 0.1025(4) 0.4999(4) 0.8843(3)
H9_2 H 0.085569 0.450184 0.826587
C7_2 C 0.1773(5) 0.4751(4) 0.9556(3)
H10_2 H 0.213958 0.408439 0.948332
O19 O 0.2362(3) 0.7584(3) 0.82303(19)
O8_2 O 0.7073(3) 0.2595(3) 0.75483(19)
O9_2 O 0.5907(3) 0.3376(3) 0.59606(17)
O11_2 O 0.5446(3) 0.4912(3) 0.73684(19)
N7_2 N 0.9210(4) 0.0786(3) 0.7731(2)
H4_2 H 0.989196 0.073456 0.815666
N8_2 N 0.8640(4) 0.1665(3) 0.7962(2)
N9_2 N 0.4014(4) 0.3930(3) 0.5373(2)
H5_2 H 0.404293 0.424127 0.591383
N10_2 N 0.3016(4) 0.4071(3) 0.4708(2)
N11_2 N 0.3612(4) 0.5553(3) 0.6993(2)
N12_2 N 0.2857(4) 0.6246(3) 0.7255(2)
H6_2 H 0.220(4) 0.629(4) 0.682(2)
C14_2 C 0.7816(5) 0.0164(4) 0.6238(3)
C15_2 C 0.7222(5) 0.1024(4) 0.6428(3)
H14_2 H 0.652586 0.113272 0.597275
C16_2 C 0.7646(5) 0.1784(4) 0.7329(3)
C17_2 C 0.4959(4) 0.3368(4) 0.5295(3)
C18_2 C 0.4811(4) 0.2778(4) 0.4403(3)
H15_2 H 0.540293 0.232226 0.429245
C19_2 C 0.3829(4) 0.2878(4) 0.3728(3)
H16_2 H 0.372270 0.249144 0.313725
C20_2 C 0.2944(4) 0.3567(4) 0.3900(2)
C21_2 C 0.4693(4) 0.5533(4) 0.7611(3)
C22_2 C 0.5037(5) 0.6197(4) 0.8522(3)
H17_2 H 0.580371 0.615411 0.896619
C23_2 C 0.4264(5) 0.6880(4) 0.8741(3)
H18_2 H 0.448795 0.732344 0.934039
C24_2 C 0.3110(4) 0.6938(4) 0.8072(3)
O14 O 0.9637(3) 0.6185(3) 0.82729(17)
O7_2 O 0.9404(3) 0.9147(3) 0.68080(18)
C2_2 C 0.9967(5) 0.7415(4) 0.4934(3)
H7_2 H 0.944387 0.793930 0.505069
H8_2 H 0.948686 0.728391 0.364463
C13_2 C 0.8852(5) 0.9986(4) 0.6929(3)
H13_2 H 0.755101 0.967125 0.564491
N5 N 0.8892(4) 0.8838(3) 0.0528(2)
C9 C 0.8243(4) 0.9654(4) 0.0610(3)
N5_2 N 0.1108(4) 0.1162(3) 0.9472(2)
C9_2 C 0.1757(4) 0.0346(4) 0.9390(3)
loop_
_geom_bond_atom_site_label_1
_geom_bond_atom_site_label_2
_geom_bond_site_symmetry_1
_geom_bond_site_symmetry_2
H7 C2 1_555 1_555
C13 O7 1_555 1_555
Y6 O3 1_555 1_555
Y6 O18 1_555 1_555
Y6 O8 1_555 1_555
O8 C16 1_555 1_555
O9 Y6 1_555 1_555
O10 C20 1_555 1_555
O11 Y6 1_555 1_555
O12 C24 1_555 1_555
N7 H4 1_555 1_555
N8 N7 1_555 1_555
N9 H5 1_555 1_555
N10 N9 1_555 1_555
N11 N12 1_555 1_555
N12 H6 1_555 1_555
C15 C14 1_555 1_555
H14 C15 1_555 1_555
C16 N8 1_555 1_555
C17 O9 1_555 1_555
C18 C17 1_555 1_555
H15 C18 1_555 1_555
C19 C18 1_555 1_555
H16 C19 1_555 1_555
C20 N10 1_555 1_555
C21 O11 1_555 1_555
C22 C21 1_555 1_555
H17 C22 1_555 1_555
C23 C22 1_555 1_555
H18 C23 1_555 1_555
C24 N12 1_555 1_555
Y3 O12 1_555 1_555
Y9 O10 1_555 1_555
O13 Y6 1_555 1_555
O15 Y6 1_555 1_555
N9 C17 1_555 1_555
N11 C21 1_555 1_555
C15 C16 1_555 1_555
C19 C20 1_555 1_555
C23 C24 1_555 1_555
Y3 O2 1_555 1_555
O1 C4 1_555 1_555
O2 C1 1_555 1_555
O5 Y3 1_555 1_555
N1 H1 1_555 1_555
N2 N1 1_555 1_555
C1 N2 1_555 1_555
C4 N1 1_555 1_555
C6 C5 1_555 1_555
H9 C6 1_555 1_555
C7 C6 1_555 1_555
H10 C7 1_555 1_555
Y9 O1 1_555 1_555
N3 C5 1_555 1_555
C3 C4 1_555 1_555
O4 C8 1_555 1_555
N4 H2 1_555 1_555
C8 N4 1_555 1_555
Y9 O4 1_555 1_555
O6 C12 1_555 1_555
N6 H3 1_555 1_555
C11 C10 1_555 1_555
H12 C11 1_555 1_555
C12 N6 1_555 1_555
C11 C12 1_555 1_555
O16 C12_2 1_555 1_555
N6_2 H3_2 1_555 1_555
C11_2 C10_2 1_555 1_555
H12_2 C11_2 1_555 1_555
C12_2 N6_2 1_555 1_555
C11_2 C12_2 1_555 1_555
O15 C8_2 1_555 1_555
N4_2 H2_2 1_555 1_555
C8_2 N4_2 1_555 1_555
Y5 O2_2 1_555 1_555
O13 C4_2 1_555 1_555
O2_2 C1_2 1_555 1_555
O5_2 Y5 1_555 1_555
N1_2 H1_2 1_555 1_555
N2_2 N1_2 1_555 1_555
C1_2 N2_2 1_555 1_555
C4_2 N1_2 1_555 1_555
C6_2 C5_2 1_555 1_555
H9_2 C6_2 1_555 1_555
C7_2 C6_2 1_555 1_555
H10_2 C7_2 1_555 1_555
O19 Y5 1_555 1_555
N3_2 C5_2 1_555 1_555
C3_2 C4_2 1_555 1_555
Y9 O8_2 1_555 1_555
O8_2 C16_2 1_555 1_555
O9_2 Y9 1_555 1_555
O18 C20_2 1_555 1_555
O11_2 Y9 1_555 1_555
O19 C24_2 1_555 1_555
N7_2 H4_2 1_555 1_555
N8_2 N7_2 1_555 1_555
N9_2 H5_2 1_555 1_555
N10_2 N9_2 1_555 1_555
N11_2 N12_2 1_555 1_555
N12_2 H6_2 1_555 1_555
C15_2 C14_2 1_555 1_555
H14_2 C15_2 1_555 1_555
C16_2 N8_2 1_555 1_555
C17_2 O9_2 1_555 1_555
C18_2 C17_2 1_555 1_555
H15_2 C18_2 1_555 1_555
C19_2 C18_2 1_555 1_555
H16_2 C19_2 1_555 1_555
C20_2 N10_2 1_555 1_555
C21_2 O11_2 1_555 1_555
C22_2 C21_2 1_555 1_555
H17_2 C22_2 1_555 1_555
C23_2 C22_2 1_555 1_555
H18_2 C23_2 1_555 1_555
C24_2 N12_2 1_555 1_555
O14 Y9 1_555 1_555
N9_2 C17_2 1_555 1_555
N11_2 C21_2 1_555 1_555
C15_2 C16_2 1_555 1_555
C19_2 C20_2 1_555 1_555
C23_2 C24_2 1_555 1_555
H7_2 C2_2 1_555 1_555
C13_2 O7_2 1_555 1_555
N5 C9 1_555 1_555
N5_2 C9_2 1_555 1_555

#END
