
###############################################################################
#
# This file contains modified crystal structure data generated from the
# MOF subset of the Cambridge Structural Database (CSD) v543 
# hosted by the Cambridge Crystallographic Data Centre (CCDC).
#
# This work is licensed under the Creative Commons
# Attribution-NonCommercial-ShareAlike 4.0 International License.
# To view a copy of this license, visit
# http://creativecommons.org/licenses/by-nc-sa/4.0/
# or send a letter to
# Creative Commons, PO Box 1866, Mountain View, CA 94042, USA.
#
# CIF created using the CSD Python API on 29 September 2022
# The structure has been converted into the P1 space group
# The structure has a 3D framework
# The original CSD entry BUBVIG is in the triclinic crystal system
# The framework has been calculated to contain at least 10.0% void space
# The void calculation uses a probe of radius 1.32A, grid spacing 0.4
#
###############################################################################

data_BUBVIG
_chemical_formula_moiety         '(C68 H64 Cd2 N16 O12 S4)n'
_symmetry_cell_setting           triclinic
_symmetry_space_group_name_H-M   'P 1'
_symmetry_Int_Tables_number      1
_space_group_name_Hall           'P 1'
loop_
_symmetry_equiv_pos_site_id
_symmetry_equiv_pos_as_xyz
1 x,y,z
_cell_length_a                   9.8572(5)
_cell_length_b                   14.2441(7)
_cell_length_c                   15.6512(9)
_cell_angle_alpha                96.235(4)
_cell_angle_beta                 94.357(4)
_cell_angle_gamma                100.569(4)
_cell_volume                     2137.11
loop_
_atom_site_label
_atom_site_type_symbol
_atom_site_fract_x
_atom_site_fract_y
_atom_site_fract_z
N2 N 0.3068(4) 0.5747(3) 0.3267(3)
C2 C 0.1009(5) 0.5013(3) 0.3848(3)
H2 H 0.0340 0.5069 0.4230
C6 C 0.2069(5) 0.5781(4) 0.3790(3)
H5 H 0.2084 0.6356 0.4137
C7 C 0.0969(5) 0.4155(3) 0.3322(3)
C10 C 0.3019(6) 0.4919(4) 0.2774(4)
H10 H 0.3710 0.4877 0.2407
C16 C 0.2002(6) 0.4124(4) 0.2780(4)
H15 H 0.2008 0.3562 0.2418
C28 C 0.0635(6) 0.0845(4) 0.2401(5)
H26 H 0.1111 0.1442 0.2242
H27 H 0.0508 0.0355 0.1915
H28 H 0.1174 0.0661 0.2869
Cd4 Cd 0.47434(4) 0.70925(3) 0.32101(2)
S2 S 0.21193(14) 0.86599(10) 0.32767(11)
O2 O 0.3044(4) 0.7987(3) 0.3374(3)
O5 O 0.1559(5) 0.8588(4) 0.2385(3)
O6 O 0.2705(5) 0.9613(3) 0.3666(4)
H29 H 0.0031 0.7007 0.3043
C31 C 0.0708(3) 0.8237(2) 0.3856(2)
C32 C 0.0447(3) 0.87581(19) 0.4609(2)
H30 H 0.1017 0.9347 0.4816
N4 N 0.4354(5) 0.6767(3) 0.1716(3)
C14 C 0.3333(7) 0.7072(5) 0.1311(4)
H13 H 0.2719 0.7336 0.1642
C22 C 0.5228(6) 0.6395(4) 0.1223(4)
H17 H 0.5942 0.6157 0.1496
C23 C 0.3113(7) 0.7023(5) 0.0414(4)
H18 H 0.2354 0.7226 0.0156
C27 C 0.5128(7) 0.6346(4) 0.0341(4)
H25 H 0.5778 0.6100 0.0029
S1 S 0.76133(13) 0.59103(9) 0.35651(9)
O1 O 0.6463(4) 0.6221(3) 0.3105(3)
O3 O 0.7198(5) 0.5441(3) 0.4299(3)
O4 O 0.8360(4) 0.5396(3) 0.2981(3)
N1 N 0.6247(4) 0.8490(3) 0.2999(3)
N3 N 0.5034(4) 0.7284(3) 0.4700(3)
N7 N 0.5101(6) 0.6759(4) 0.8642(3)
N8 N 0.5035(5) 0.6740(4) 0.7758(3)
C1 C 0.6041(6) 0.9385(4) 0.3227(4)
H1 H 0.5226 0.9459 0.3466
C3 C 0.7424(5) 0.8410(4) 0.2644(3)
H3 H 0.7581 0.7796 0.2477
C5 C 0.4888(5) 0.6509(4) 0.5132(3)
H4 H 0.4705 0.5902 0.4813
C9 C 0.5489(6) 0.8268(4) 0.6055(4)
H9 H 0.5713 0.8883 0.6358
C11 C 0.5341(5) 0.8151(4) 0.5182(4)
H11 H 0.5456 0.8698 0.4900
C13 C 0.8415(6) 0.9186(4) 0.2514(4)
H12 H 0.9217 0.9094 0.2266
C17 C 0.4994(5) 0.6565(4) 0.6010(3)
H16 H 0.4858 0.6007 0.6275
C18 C 0.5305(5) 0.7461(4) 0.6506(3)
C19 C 0.5357(6) 0.7541(4) 0.7445(4)
C21 C 0.4049(7) 0.6667(4) 0.9921(4)
C24 C 0.3952(7) 0.6689(4) 0.8974(4)
C25 C 0.2599(7) 0.6667(5) 0.8470(4)
H19 H 0.2575 0.7292 0.8301
H20 H 0.1857 0.6491 0.8820
H21 H 0.2493 0.6204 0.7964
C26 C 0.5716(7) 0.8507(5) 0.7996(4)
H22 H 0.4886 0.8757 0.8069
H23 H 0.6348 0.8944 0.7719
H24 H 0.6142 0.8433 0.8551
C29 C 0.8745(3) 0.69966(18) 0.3991(2)
C30 C 0.9856(3) 0.7356(2) 0.35471(19)
C33 C 0.9336(3) 0.8399(2) 0.50529(19)
H31 H 0.9162 0.8748 0.5557
C34 C 0.8485(3) 0.7518(2) 0.4744(2)
H32 H 0.7741 0.7278 0.5041
N5 N 0.8884(4) 0.1774(3) 0.2880(3)
N6 N 0.9915(4) 0.2570(3) 0.2829(3)
C4 C 0.9861(5) 0.3307(3) 0.3360(3)
C8 C 0.8833(5) 0.3350(4) 0.4015(4)
H6 H 0.8171 0.2755 0.3942
H7 H 0.8361 0.3872 0.3936
H8 H 0.9309 0.3451 0.4585
C12 C 0.9249(5) 0.0968(4) 0.2679(4)
C15 C 0.6967(5) 0.0192(4) 0.3124(4)
H14 H 0.6782 0.0797 0.3297
C20 C 0.8193(5) 0.0106(4) 0.2760(3)
Cd1 Cd 0.52566(4) 0.29075(3) 0.67899(2)
S1_2 S 0.23867(13) 0.40897(9) 0.64349(9)
O1_2 O 0.3537(4) 0.3779(3) 0.6895(3)
O3_2 O 0.2802(5) 0.4559(3) 0.5701(3)
O4_2 O 0.1640(4) 0.4604(3) 0.7019(3)
N1_2 N 0.3753(4) 0.1510(3) 0.7001(3)
N3_2 N 0.4966(4) 0.2716(3) 0.5300(3)
N7_2 N 0.4899(6) 0.3241(4) 0.1358(3)
N8_2 N 0.4965(5) 0.3260(4) 0.2242(3)
C1_2 C 0.3959(6) 0.0615(4) 0.6773(4)
H1_2 H 0.4774 0.0541 0.6534
C3_2 C 0.2576(5) 0.1590(4) 0.7356(3)
H3_2 H 0.2419 0.2204 0.7523
C5_2 C 0.5112(5) 0.3491(4) 0.4868(3)
H4_2 H 0.5295 0.4098 0.5187
C9_2 C 0.4511(6) 0.1732(4) 0.3945(4)
H9_2 H 0.4287 0.1117 0.3642
C11_2 C 0.4659(5) 0.1849(4) 0.4818(4)
H11_2 H 0.4544 0.1302 0.5100
C13_2 C 0.1585(6) 0.0814(4) 0.7486(4)
H12_2 H 0.0783 0.0906 0.7734
C17_2 C 0.5006(5) 0.3435(4) 0.3990(3)
H16_2 H 0.5142 0.3993 0.3725
C18_2 C 0.4695(5) 0.2539(4) 0.3494(3)
C19_2 C 0.4643(6) 0.2459(4) 0.2555(4)
C21_2 C 0.5951(7) 0.3333(4) 0.0079(4)
C24_2 C 0.6048(7) 0.3311(4) 0.1026(4)
C25_2 C 0.7401(7) 0.3333(5) 0.1530(4)
H19_2 H 0.7425 0.2708 0.1699
H20_2 H 0.8143 0.3509 0.1180
H21_2 H 0.7507 0.3796 0.2036
C26_2 C 0.4284(7) 0.1493(5) 0.2004(4)
H22_2 H 0.5114 0.1243 0.1931
H23_2 H 0.3652 0.1056 0.2281
H24_2 H 0.3858 0.1567 0.1449
C29_2 C 0.1255(3) 0.30034(18) 0.6009(2)
C30_2 C 0.0144(3) 0.2644(2) 0.64529(19)
C33_2 C 0.0664(3) 0.1601(2) 0.49471(19)
H31_2 H 0.0838 0.1252 0.4443
C34_2 C 0.1515(3) 0.2482(2) 0.5256(2)
H32_2 H 0.2259 0.2722 0.4959
O7 O 0.6956(4) 0.2013(3) 0.6626(3)
N9 N 0.6932(4) 0.4253(3) 0.6733(3)
N10 N 0.5646(5) 0.3233(3) 0.8284(3)
C14_2 C 0.6667(7) 0.2928(5) 0.8689(4)
H13_2 H 0.7281 0.2664 0.8358
C22_2 C 0.4772(6) 0.3605(4) 0.8777(4)
H17_2 H 0.4058 0.3843 0.8504
C23_2 C 0.6887(7) 0.2977(5) 0.9586(4)
H18_2 H 0.7646 0.2774 0.9844
C27_2 C 0.4872(7) 0.3654(4) 0.9659(4)
H25_2 H 0.4222 0.3900 0.9971
S2_2 S 0.78807(14) 0.13401(10) 0.67233(11)
O5_2 O 0.8441(5) 0.1412(4) 0.7615(3)
O6_2 O 0.7295(5) 0.0387(3) 0.6334(4)
H29_2 H 0.9969 0.2993 0.6957
C31_2 C 0.9292(3) 0.1763(2) 0.6144(2)
C32_2 C 0.9553(3) 0.12419(19) 0.5391(2)
H30_2 H 0.8983 0.0653 0.5184
C2_2 C 0.8991(5) 0.4987(3) 0.6152(3)
H2_2 H 0.9660 0.4931 0.5770
C6_2 C 0.7931(5) 0.4219(4) 0.6210(3)
H5_2 H 0.7916 0.3644 0.5863
C7_2 C 0.9031(5) 0.5845(3) 0.6678(3)
C10_2 C 0.6981(6) 0.5081(4) 0.7226(4)
H10_2 H 0.6290 0.5123 0.7593
C16_2 C 0.7998(6) 0.5876(4) 0.7220(4)
H15_2 H 0.7992 0.6438 0.7582
C28_2 C 0.9365(6) 0.9155(4) 0.7599(5)
H26_2 H 0.8889 0.8558 0.7758
H27_2 H 0.9492 0.9645 0.8085
H28_2 H 0.8826 0.9339 0.7131
N5_2 N 0.1116(4) 0.8226(3) 0.7120(3)
N6_2 N 0.0085(4) 0.7430(3) 0.7171(3)
C4_2 C 0.0139(5) 0.6693(3) 0.6640(3)
C8_2 C 0.1167(5) 0.6650(4) 0.5985(4)
H6_2 H 0.1829 0.7245 0.6058
H7_2 H 0.1639 0.6128 0.6064
H8_2 H 0.0691 0.6549 0.5415
C12_2 C 0.0751(5) 0.9032(4) 0.7321(4)
C15_2 C 0.3033(5) 0.9808(4) 0.6876(4)
H14_2 H 0.3218 0.9203 0.6703
C20_2 C 0.1807(5) 0.9894(4) 0.7240(3)
loop_
_geom_bond_atom_site_label_1
_geom_bond_atom_site_label_2
_geom_bond_site_symmetry_1
_geom_bond_site_symmetry_2
N2 C6 1_555 1_555
C2 H2 1_555 1_555
C6 C2 1_555 1_555
H5 C6 1_555 1_555
C7 C2 1_555 1_555
C10 N2 1_555 1_555
H10 C10 1_555 1_555
C16 C7 1_555 1_555
H15 C16 1_555 1_555
H26 C28 1_555 1_555
H27 C28 1_555 1_555
H28 C28 1_555 1_555
Cd4 N2 1_555 1_555
C10 C16 1_555 1_555
S2 O2 1_555 1_555
O2 Cd4 1_555 1_555
O5 S2 1_555 1_555
O6 S2 1_555 1_555
C31 S2 1_555 1_555
C32 C31 1_555 1_555
H30 C32 1_555 1_555
N4 C14 1_555 1_555
C14 H13 1_555 1_555
C22 N4 1_555 1_555
H17 C22 1_555 1_555
C23 C14 1_555 1_555
H18 C23 1_555 1_555
H25 C27 1_555 1_555
Cd4 N4 1_555 1_555
C22 C27 1_555 1_555
Cd4 O1 1_555 1_555
S1 O1 1_555 1_555
O3 S1 1_555 1_555
O4 S1 1_555 1_555
N1 Cd4 1_555 1_555
N3 Cd4 1_555 1_555
N7 N8 1_555 1_555
N8 C19 1_555 1_555
C1 N1 1_555 1_555
H1 C1 1_555 1_555
C3 N1 1_555 1_555
H3 C3 1_555 1_555
C5 N3 1_555 1_555
H4 C5 1_555 1_555
C9 H9 1_555 1_555
C11 N3 1_555 1_555
H11 C11 1_555 1_555
C13 C3 1_555 1_555
H12 C13 1_555 1_555
C17 C5 1_555 1_555
H16 C17 1_555 1_555
C18 C9 1_555 1_555
C19 C18 1_555 1_555
C24 N7 1_555 1_555
C25 C24 1_555 1_555
H19 C25 1_555 1_555
H20 C25 1_555 1_555
H21 C25 1_555 1_555
C26 C19 1_555 1_555
H22 C26 1_555 1_555
H23 C26 1_555 1_555
H24 C26 1_555 1_555
C29 S1 1_555 1_555
C30 C29 1_555 1_555
H31 C33 1_555 1_555
C34 C29 1_555 1_555
H32 C34 1_555 1_555
C9 C11 1_555 1_555
C17 C18 1_555 1_555
C21 C24 1_555 1_555
C33 C34 1_555 1_555
N5 N6 1_555 1_555
N6 C4 1_555 1_555
C8 C4 1_555 1_555
H6 C8 1_555 1_555
H7 C8 1_555 1_555
H8 C8 1_555 1_555
C12 N5 1_555 1_555
H14 C15 1_555 1_555
C20 C12 1_555 1_555
C15 C20 1_555 1_555
Cd1 O1_2 1_555 1_555
S1_2 O1_2 1_555 1_555
O3_2 S1_2 1_555 1_555
O4_2 S1_2 1_555 1_555
N1_2 Cd1 1_555 1_555
N3_2 Cd1 1_555 1_555
N7_2 N8_2 1_555 1_555
N8_2 C19_2 1_555 1_555
C1_2 N1_2 1_555 1_555
H1_2 C1_2 1_555 1_555
C3_2 N1_2 1_555 1_555
H3_2 C3_2 1_555 1_555
C5_2 N3_2 1_555 1_555
H4_2 C5_2 1_555 1_555
C9_2 H9_2 1_555 1_555
C11_2 N3_2 1_555 1_555
H11_2 C11_2 1_555 1_555
C13_2 C3_2 1_555 1_555
H12_2 C13_2 1_555 1_555
C17_2 C5_2 1_555 1_555
H16_2 C17_2 1_555 1_555
C18_2 C9_2 1_555 1_555
C19_2 C18_2 1_555 1_555
C24_2 N7_2 1_555 1_555
C25_2 C24_2 1_555 1_555
H19_2 C25_2 1_555 1_555
H20_2 C25_2 1_555 1_555
H21_2 C25_2 1_555 1_555
C26_2 C19_2 1_555 1_555
H22_2 C26_2 1_555 1_555
H23_2 C26_2 1_555 1_555
H24_2 C26_2 1_555 1_555
C29_2 S1_2 1_555 1_555
C30_2 C29_2 1_555 1_555
H31_2 C33_2 1_555 1_555
C34_2 C29_2 1_555 1_555
H32_2 C34_2 1_555 1_555
O7 Cd1 1_555 1_555
N9 Cd1 1_555 1_555
N10 Cd1 1_555 1_555
C9_2 C11_2 1_555 1_555
C17_2 C18_2 1_555 1_555
C21_2 C24_2 1_555 1_555
C33_2 C34_2 1_555 1_555
N10 C14_2 1_555 1_555
C14_2 H13_2 1_555 1_555
C22_2 N10 1_555 1_555
H17_2 C22_2 1_555 1_555
C23_2 C14_2 1_555 1_555
H18_2 C23_2 1_555 1_555
H25_2 C27_2 1_555 1_555
C22_2 C27_2 1_555 1_555
S2_2 O7 1_555 1_555
O5_2 S2_2 1_555 1_555
O6_2 S2_2 1_555 1_555
C31_2 S2_2 1_555 1_555
C32_2 C31_2 1_555 1_555
H30_2 C32_2 1_555 1_555
N9 C6_2 1_555 1_555
C2_2 H2_2 1_555 1_555
C6_2 C2_2 1_555 1_555
H5_2 C6_2 1_555 1_555
C7_2 C2_2 1_555 1_555
C10_2 N9 1_555 1_555
H10_2 C10_2 1_555 1_555
C16_2 C7_2 1_555 1_555
H15_2 C16_2 1_555 1_555
H26_2 C28_2 1_555 1_555
H27_2 C28_2 1_555 1_555
H28_2 C28_2 1_555 1_555
C10_2 C16_2 1_555 1_555
N5_2 N6_2 1_555 1_555
N6_2 C4_2 1_555 1_555
C8_2 C4_2 1_555 1_555
H6_2 C8_2 1_555 1_555
H7_2 C8_2 1_555 1_555
H8_2 C8_2 1_555 1_555
C12_2 N5_2 1_555 1_555
H14_2 C15_2 1_555 1_555
C20_2 C12_2 1_555 1_555
C15_2 C20_2 1_555 1_555

#END
