
###############################################################################
#
# This file contains modified crystal structure data generated from the
# MOF subset of the Cambridge Structural Database (CSD) v543 
# hosted by the Cambridge Crystallographic Data Centre (CCDC).
#
# This work is licensed under the Creative Commons
# Attribution-NonCommercial-ShareAlike 4.0 International License.
# To view a copy of this license, visit
# http://creativecommons.org/licenses/by-nc-sa/4.0/
# or send a letter to
# Creative Commons, PO Box 1866, Mountain View, CA 94042, USA.
#
# CIF created using the CSD Python API on 29 September 2022
# The structure has been converted into the P1 space group
# The structure has a 3D framework
# The original CSD entry BUBVEC is in the triclinic crystal system
# The framework has been calculated to contain at least 10.0% void space
# The void calculation uses a probe of radius 1.32A, grid spacing 0.4
#
###############################################################################

data_BUBVEC
_chemical_formula_moiety         '(C68 H64 Cd2 N16 O12 S4)n'
_symmetry_cell_setting           triclinic
_symmetry_space_group_name_H-M   'P 1'
_symmetry_Int_Tables_number      1
_space_group_name_Hall           'P 1'
loop_
_symmetry_equiv_pos_site_id
_symmetry_equiv_pos_as_xyz
1 x,y,z
_cell_length_a                   9.8814(3)
_cell_length_b                   14.1900(4)
_cell_length_c                   15.7164(5)
_cell_angle_alpha                94.950(3)
_cell_angle_beta                 91.893(3)
_cell_angle_gamma                100.060(3)
_cell_volume                     2159.13
loop_
_atom_site_label
_atom_site_type_symbol
_atom_site_fract_x
_atom_site_fract_y
_atom_site_fract_z
S2 S 0.21546(15) 0.87458(10) 0.32709(15)
O2 O 0.3012(3) 0.8041(2) 0.3292(3)
O5 O 0.1614(5) 0.8702(5) 0.2309(4)
O6 O 0.2596(7) 0.9645(3) 0.3548(6)
H18 H 0.0093 0.7124 0.3001
C28 C 0.0402(5) 0.8742(4) 0.4618(4)
H21 H 0.0955 0.9316 0.4838
C31 C 0.0698(5) 0.8278(3) 0.3849(4)
Cd4 Cd 0.47634(3) 0.71519(2) 0.31755(2)
N4 N 0.4396(4) 0.6798(3) 0.1696(3)
C12 C 0.3282(5) 0.7013(4) 0.1310(4)
H11 H 0.2621 0.7224 0.1649
C26 C 0.5195(5) 0.6404(4) 0.0314(3)
C27 C 0.5332(5) 0.6479(4) 0.1189(4)
H20 H 0.6100 0.6302 0.1445
C30 C 0.3059(6) 0.6940(4) 0.0434(4)
H23 H 0.2251 0.7079 0.0195
S1 S 0.76633(11) 0.59672(8) 0.34992(8)
O1 O 0.6527(3) 0.6295(2) 0.3056(2)
O3 O 0.7228(4) 0.5435(2) 0.4206(3)
O4 O 0.8459(4) 0.5495(3) 0.2901(3)
N2 N 0.3110(4) 0.5793(3) 0.3282(3)
N3 N 0.5003(4) 0.7322(3) 0.4655(3)
N5 N 0.0009(4) 0.2625(3) 0.2839(3)
N7 N 0.5064(5) 0.6757(3) 0.8593(3)
N8 N 0.4970(5) 0.6734(3) 0.7715(3)
C2 C 0.2046(4) 0.5826(3) 0.3775(3)
H2 H 0.2005 0.6402 0.4096
C7 C 0.1031(4) 0.4191(3) 0.3348(3)
C9 C 0.1001(4) 0.5055(3) 0.3837(3)
H9 H 0.0287 0.5110 0.4198
C10 C 0.5491(5) 0.8281(3) 0.5996(3)
H10 H 0.5745 0.8889 0.6286
C13 C 0.5260(4) 0.7471(3) 0.6445(3)
C14 C 0.5340(5) 0.8177(3) 0.5118(3)
H12 H 0.5480 0.8729 0.4830
C15 C 0.8452(5) 0.7487(3) 0.4728(3)
H13 H 0.7706 0.7212 0.5024
C17 C 0.4921(5) 0.6577(3) 0.5966(3)
H14 H 0.4768 0.6015 0.6239
C18 C 0.2153(5) 0.4153(3) 0.2844(4)
H15 H 0.2226 0.3585 0.2521
C19 C 0.3155(5) 0.4955(3) 0.2823(4)
H16 H 0.3894 0.4917 0.2478
C20 C 0.4046(5) 0.6656(3) 0.9911(3)
C21 C 0.8757(4) 0.7039(3) 0.3950(3)
C22 C 0.4815(4) 0.6535(3) 0.5088(3)
H17 H 0.4604 0.5934 0.4778
C23 C 0.3920(5) 0.6653(4) 0.8971(3)
C24 C 0.9886(5) 0.7431(3) 0.3515(4)
C25 C 0.5324(5) 0.7534(4) 0.7389(4)
H19 H 0.5867 0.6186 0.9988
C29 C 0.9269(5) 0.8341(4) 0.5056(4)
H22 H 0.9064 0.8649 0.5570
C32 C 0.5709(6) 0.8484(4) 0.7921(4)
H24 H 0.4895 0.8748 0.8031
H25 H 0.6329 0.8919 0.7618
H26 H 0.6148 0.8389 0.8453
C33 C 0.2542(6) 0.6590(5) 0.8515(4)
H27 H 0.2401 0.7224 0.8413
H28 H 0.1831 0.6301 0.8862
H29 H 0.2513 0.6206 0.7980
C34 C 0.0526(7) 0.0914(4) 0.2106(6)
H30 H 0.1053 0.1534 0.2031
H31 H 0.0278 0.0563 0.1557
H32 H 0.1064 0.0566 0.2440
N9 N 0.6273(4) 0.8547(2) 0.2927(3)
C1 C 0.7432(5) 0.8469(3) 0.2534(3)
H1 H 0.7585 0.7858 0.2348
C4 C 0.6064(5) 0.9435(3) 0.3179(3)
H6 H 0.5251 0.9502 0.3440
C8 C 0.8416(5) 0.9252(3) 0.2388(3)
H8 H 0.9207 0.9166 0.2110
N6 N 0.8981(4) 0.1824(3) 0.2905(3)
C3 C 0.8862(5) 0.3372(3) 0.4033(3)
H3 H 0.8386 0.3893 0.3947
H4 H 0.9301 0.3466 0.4595
H5 H 0.8216 0.2777 0.3974
C5 C 0.9924(4) 0.3337(3) 0.3382(3)
C6 C 0.6997(4) 0.0253(3) 0.3069(3)
H7 H 0.6820 0.0855 0.3264
C11 C 0.9255(4) 0.1036(3) 0.2555(3)
C16 C 0.8204(4) 0.0169(3) 0.2664(3)
N1 N 0.3727(4) 0.1453(2) 0.7073(3)
C1_2 C 0.2568(5) 0.1531(3) 0.7466(3)
H1_2 H 0.2415 0.2142 0.7652
C4_2 C 0.3936(5) 0.0565(3) 0.6821(3)
H6_2 H 0.4749 0.0498 0.6560
C8_2 C 0.1584(5) 0.0748(3) 0.7612(3)
H8_2 H 0.0793 0.0834 0.7890
Cd2 Cd 0.52366(3) 0.28481(2) 0.68245(2)
S1_2 S 0.23367(11) 0.40328(8) 0.65008(8)
O1_2 O 0.3473(3) 0.3705(2) 0.6944(2)
O3_2 O 0.2772(4) 0.4565(2) 0.5794(3)
O4_2 O 0.1541(4) 0.4505(3) 0.7099(3)
N2_2 N 0.6890(4) 0.4207(3) 0.6718(3)
N3_2 N 0.4997(4) 0.2678(3) 0.5345(3)
N5_2 N 0.9991(4) 0.7375(3) 0.7161(3)
N7_2 N 0.4936(5) 0.3243(3) 0.1407(3)
N8_2 N 0.5030(5) 0.3266(3) 0.2285(3)
C2_2 C 0.7954(4) 0.4174(3) 0.6225(3)
H2_2 H 0.7995 0.3598 0.5904
C7_2 C 0.8969(4) 0.5809(3) 0.6652(3)
C9_2 C 0.8999(4) 0.4945(3) 0.6163(3)
H9_2 H 0.9713 0.4890 0.5802
C10_2 C 0.4509(5) 0.1719(3) 0.4004(3)
H10_2 H 0.4255 0.1111 0.3714
C13_2 C 0.4740(4) 0.2529(3) 0.3555(3)
C14_2 C 0.4660(5) 0.1823(3) 0.4882(3)
H12_2 H 0.4520 0.1271 0.5170
C15_2 C 0.1548(5) 0.2513(3) 0.5272(3)
H13_2 H 0.2294 0.2788 0.4976
C17_2 C 0.5079(5) 0.3423(3) 0.4034(3)
H14_2 H 0.5232 0.3985 0.3761
C18_2 C 0.7847(5) 0.5847(3) 0.7156(4)
H15_2 H 0.7774 0.6415 0.7479
C19_2 C 0.6845(5) 0.5045(3) 0.7177(4)
H16_2 H 0.6106 0.5083 0.7522
C20_2 C 0.5954(5) 0.3344(3) 0.0089(3)
C21_2 C 0.1243(4) 0.2961(3) 0.6050(3)
C22_2 C 0.5185(4) 0.3465(3) 0.4912(3)
H17_2 H 0.5396 0.4066 0.5222
C23_2 C 0.6080(5) 0.3347(4) 0.1029(3)
C24_2 C 0.0114(5) 0.2569(3) 0.6485(4)
C25_2 C 0.4676(5) 0.2466(4) 0.2611(4)
H19_2 H 0.4133 0.3814 0.0012
C29_2 C 0.0731(5) 0.1659(4) 0.4944(4)
H22_2 H 0.0936 0.1351 0.4430
C32_2 C 0.4291(6) 0.1516(4) 0.2079(4)
H24_2 H 0.5105 0.1252 0.1969
H25_2 H 0.3671 0.1081 0.2382
H26_2 H 0.3852 0.1611 0.1547
C33_2 C 0.7458(6) 0.3410(5) 0.1485(4)
H27_2 H 0.7599 0.2776 0.1587
H28_2 H 0.8169 0.3699 0.1138
H29_2 H 0.7487 0.3794 0.2020
C34_2 C 0.9474(7) 0.9086(4) 0.7894(6)
H30_2 H 0.8947 0.8466 0.7969
H31_2 H 0.9722 0.9437 0.8443
H32_2 H 0.8936 0.9434 0.7560
O7 O 0.6988(3) 0.1959(2) 0.6708(3)
N10 N 0.5604(4) 0.3202(3) 0.8304(3)
C12_2 C 0.6718(5) 0.2987(4) 0.8690(4)
H11_2 H 0.7379 0.2776 0.8351
C26_2 C 0.4805(5) 0.3596(4) 0.9686(3)
C27_2 C 0.4668(5) 0.3521(4) 0.8811(4)
H20_2 H 0.3900 0.3698 0.8555
C30_2 C 0.6941(6) 0.3060(4) 0.9566(4)
H23_2 H 0.7749 0.2921 0.9805
S2_2 S 0.78454(15) 0.12542(10) 0.67291(15)
O5_2 O 0.8386(5) 0.1298(5) 0.7691(4)
O6_2 O 0.7404(7) 0.0355(3) 0.6452(6)
H18_2 H 0.9907 0.2876 0.6999
C28_2 C 0.9598(5) 0.1258(4) 0.5382(4)
H21_2 H 0.9045 0.0684 0.5162
C31_2 C 0.9302(5) 0.1722(3) 0.6151(4)
N6_2 N 0.1019(4) 0.8176(3) 0.7095(3)
C3_2 C 0.1138(5) 0.6628(3) 0.5967(3)
H3_2 H 0.1614 0.6107 0.6053
H4_2 H 0.0699 0.6534 0.5405
H5_2 H 0.1784 0.7223 0.6026
C5_2 C 0.0076(4) 0.6663(3) 0.6618(3)
C6_2 C 0.3003(4) 0.9747(3) 0.6931(3)
H7_2 H 0.3180 0.9145 0.6736
C11_2 C 0.0745(4) 0.8964(3) 0.7445(3)
C16_2 C 0.1796(4) 0.9831(3) 0.7336(3)
loop_
_geom_bond_atom_site_label_1
_geom_bond_atom_site_label_2
_geom_bond_site_symmetry_1
_geom_bond_site_symmetry_2
S2 O2 1_555 1_555
O2 Cd4 1_555 1_555
O5 S2 1_555 1_555
O6 S2 1_555 1_555
C28 H21 1_555 1_555
C31 S2 1_555 1_555
C28 C31 1_555 1_555
N4 C12 1_555 1_555
C12 H11 1_555 1_555
C27 N4 1_555 1_555
H20 C27 1_555 1_555
C30 C12 1_555 1_555
H23 C30 1_555 1_555
Cd4 N4 1_555 1_555
C26 C27 1_555 1_555
Cd4 O1 1_555 1_555
S1 O1 1_555 1_555
O3 S1 1_555 1_555
O4 S1 1_555 1_555
N2 Cd4 1_555 1_555
N3 Cd4 1_555 1_555
N7 N8 1_555 1_555
N8 C25 1_555 1_555
C2 N2 1_555 1_555
H2 C2 1_555 1_555
C9 C2 1_555 1_555
H9 C9 1_555 1_555
C10 H10 1_555 1_555
C13 C10 1_555 1_555
C14 N3 1_555 1_555
H12 C14 1_555 1_555
C15 H13 1_555 1_555
C17 C13 1_555 1_555
H14 C17 1_555 1_555
C18 C7 1_555 1_555
H15 C18 1_555 1_555
C19 N2 1_555 1_555
H16 C19 1_555 1_555
C20 C23 1_555 1_555
C21 S1 1_555 1_555
C22 N3 1_555 1_555
H17 C22 1_555 1_555
C23 N7 1_555 1_555
C24 C21 1_555 1_555
C25 C13 1_555 1_555
C29 C15 1_555 1_555
H22 C29 1_555 1_555
C32 C25 1_555 1_555
H24 C32 1_555 1_555
H25 C32 1_555 1_555
H26 C32 1_555 1_555
C33 C23 1_555 1_555
H27 C33 1_555 1_555
H28 C33 1_555 1_555
H29 C33 1_555 1_555
H30 C34 1_555 1_555
H31 C34 1_555 1_555
H32 C34 1_555 1_555
N9 Cd4 1_555 1_555
C7 C9 1_555 1_555
C10 C14 1_555 1_555
C15 C21 1_555 1_555
C17 C22 1_555 1_555
C18 C19 1_555 1_555
N9 C1 1_555 1_555
C1 H1 1_555 1_555
C4 N9 1_555 1_555
H6 C4 1_555 1_555
C8 C1 1_555 1_555
H8 C8 1_555 1_555
N6 C11 1_555 1_555
C3 H3 1_555 1_555
H4 C3 1_555 1_555
H5 C3 1_555 1_555
H7 C6 1_555 1_555
C11 C16 1_555 1_555
C16 C6 1_555 1_555
C3 C5 1_555 1_555
N1 C1_2 1_555 1_555
C1_2 H1_2 1_555 1_555
C4_2 N1 1_555 1_555
H6_2 C4_2 1_555 1_555
C8_2 C1_2 1_555 1_555
H8_2 C8_2 1_555 1_555
Cd2 N1 1_555 1_555
Cd2 O1_2 1_555 1_555
S1_2 O1_2 1_555 1_555
O3_2 S1_2 1_555 1_555
O4_2 S1_2 1_555 1_555
N2_2 Cd2 1_555 1_555
N3_2 Cd2 1_555 1_555
N7_2 N8_2 1_555 1_555
N8_2 C25_2 1_555 1_555
C2_2 N2_2 1_555 1_555
H2_2 C2_2 1_555 1_555
C9_2 C2_2 1_555 1_555
H9_2 C9_2 1_555 1_555
C10_2 H10_2 1_555 1_555
C13_2 C10_2 1_555 1_555
C14_2 N3_2 1_555 1_555
H12_2 C14_2 1_555 1_555
C15_2 H13_2 1_555 1_555
C17_2 C13_2 1_555 1_555
H14_2 C17_2 1_555 1_555
C18_2 C7_2 1_555 1_555
H15_2 C18_2 1_555 1_555
C19_2 N2_2 1_555 1_555
H16_2 C19_2 1_555 1_555
C20_2 C23_2 1_555 1_555
C21_2 S1_2 1_555 1_555
C22_2 N3_2 1_555 1_555
H17_2 C22_2 1_555 1_555
C23_2 N7_2 1_555 1_555
C24_2 C21_2 1_555 1_555
C25_2 C13_2 1_555 1_555
C29_2 C15_2 1_555 1_555
H22_2 C29_2 1_555 1_555
C32_2 C25_2 1_555 1_555
H24_2 C32_2 1_555 1_555
H25_2 C32_2 1_555 1_555
H26_2 C32_2 1_555 1_555
C33_2 C23_2 1_555 1_555
H27_2 C33_2 1_555 1_555
H28_2 C33_2 1_555 1_555
H29_2 C33_2 1_555 1_555
H30_2 C34_2 1_555 1_555
H31_2 C34_2 1_555 1_555
H32_2 C34_2 1_555 1_555
O7 Cd2 1_555 1_555
N10 Cd2 1_555 1_555
C7_2 C9_2 1_555 1_555
C10_2 C14_2 1_555 1_555
C15_2 C21_2 1_555 1_555
C17_2 C22_2 1_555 1_555
C18_2 C19_2 1_555 1_555
N10 C12_2 1_555 1_555
C12_2 H11_2 1_555 1_555
C27_2 N10 1_555 1_555
H20_2 C27_2 1_555 1_555
C30_2 C12_2 1_555 1_555
H23_2 C30_2 1_555 1_555
C26_2 C27_2 1_555 1_555
S2_2 O7 1_555 1_555
O5_2 S2_2 1_555 1_555
O6_2 S2_2 1_555 1_555
C28_2 H21_2 1_555 1_555
C31_2 S2_2 1_555 1_555
C28_2 C31_2 1_555 1_555
N6_2 C11_2 1_555 1_555
C3_2 H3_2 1_555 1_555
H4_2 C3_2 1_555 1_555
H5_2 C3_2 1_555 1_555
H7_2 C6_2 1_555 1_555
C11_2 C16_2 1_555 1_555
C16_2 C6_2 1_555 1_555
C3_2 C5_2 1_555 1_555

#END
