
###############################################################################
#
# This file contains modified crystal structure data generated from the
# MOF subset of the Cambridge Structural Database (CSD) v543 
# hosted by the Cambridge Crystallographic Data Centre (CCDC).
#
# This work is licensed under the Creative Commons
# Attribution-NonCommercial-ShareAlike 4.0 International License.
# To view a copy of this license, visit
# http://creativecommons.org/licenses/by-nc-sa/4.0/
# or send a letter to
# Creative Commons, PO Box 1866, Mountain View, CA 94042, USA.
#
# CIF created using the CSD Python API on 29 September 2022
# The structure has been converted into the P1 space group
# The structure has a 3D framework
# The original CSD entry BUDWUV is in the monoclinic crystal system
# The framework has been calculated to contain at least 10.0% void space
# The void calculation uses a probe of radius 1.32A, grid spacing 0.4
#
###############################################################################

data_BUDWUV
_chemical_formula_moiety         '(C128 H96 N16 O22)n'
_symmetry_cell_setting           triclinic
_symmetry_space_group_name_H-M   'P 1'
_symmetry_Int_Tables_number      1
_space_group_name_Hall           'P 1'
loop_
_symmetry_equiv_pos_site_id
_symmetry_equiv_pos_as_xyz
1 x,y,z
_cell_length_a                   15.8341(6)
_cell_length_b                   11.0438(5)
_cell_length_c                   19.0096(7)
_cell_angle_alpha                90
_cell_angle_beta                 104.6050(10)
_cell_angle_gamma                90
_cell_volume                     3216.77
loop_
_atom_site_label
_atom_site_type_symbol
_atom_site_fract_x
_atom_site_fract_y
_atom_site_fract_z
Co1 Co 0.00436(3) 0.06948(4) 0.39263(2)
N5 N 0.14277(19) 0.0351(3) 0.40882(15)
O7 O 0.03301(16) 0.1962(2) 0.47196(12)
O8 O 0.02255(18) 0.1863(2) 0.30169(12)
O6 O 0.00833(17) 0.4940(2) 0.21381(12)
C12 C 0.4085(3) 0.0010(4) 0.3951(2)
H9 H 0.4142 0.0534 0.3556
H10 H 0.4465 0.0326 0.4395
C13 C 0.3154(2) 0.0074(4) 0.40141(19)
C16 C 0.2866(3) 0.1135(4) 0.4271(2)
H13 H 0.3250 0.1778 0.4418
C17 C 0.2014(2) 0.1232(4) 0.4305(2)
H14 H 0.1837 0.1943 0.4488
O2 O 0.4314(3) 0.8435(4) 0.23902(18)
N3 N 0.4379(2) 0.7448(3) 0.13876(18)
H4 H 0.4493 0.7473 0.0969
H5 H 0.3185 0.9906 0.1962
O4 O 0.0104(2) 0.4072(2) 0.06467(13)
N4 N 0.13371(19) 0.6038(3) 0.12945(16)
C7 C 0.4632(3) 0.9614(5) 0.1445(2)
C9 C 0.5347(4) 0.9686(5) 0.1173(3)
H7 H 0.5697 0.9010 0.1172
C18 C 0.4437(3) 0.8451(4) 0.1783(2)
C19 C 0.4127(3) 0.6312(4) 0.1657(3)
H15 H 0.4405 0.6241 0.2172
H16 H 0.4327 0.5645 0.1409
C20 C 0.3150(2) 0.6233(4) 0.1540(2)
C21 C 0.2753(3) 0.6298(5) 0.2107(2)
H17 H 0.3088 0.6408 0.2580
C22 C 0.1859(3) 0.6201(5) 0.1970(2)
H18 H 0.1603 0.6250 0.2359
C23 C 0.1721(3) 0.5999(6) 0.0765(2)
H19 H 0.1374 0.5899 0.0294
C24 C 0.2613(3) 0.6097(6) 0.0861(2)
H20 H 0.2848 0.6069 0.0460
C25 C 0.0360(2) 0.0938(3) 0.19100(17)
C26 C 0.0304(2) 0.2007(3) 0.15204(15)
H21 H 0.0164 0.2726 0.1719
C27 C 0.0459(2) 0.2006(3) 0.08278(16)
C28 C 0.0717(3) 0.0940(3) 0.0556(2)
H22 H 0.0841 0.0937 0.0103
C31 C 0.0299(2) 0.3133(3) 0.03724(15)
C32 C 0.0154(2) 0.0921(3) 0.26369(17)
O3 O 0.03301(16) 0.3038(2) 0.97196(12)
Co4 Co 0.00436(3) 0.43052(4) 0.89263(2)
O4_2 O 0.0104(2) 0.0928(2) 0.56467(13)
O5 O 0.02255(18) 0.3137(2) 0.80169(12)
C25_2 C 0.0360(2) 0.4062(3) 0.69100(17)
C26_2 C 0.0304(2) 0.2993(3) 0.65204(15)
H21_2 H 0.0164 0.2274 0.6719
C27_2 C 0.0459(2) 0.2994(3) 0.58278(16)
C28_2 C 0.0717(3) 0.4060(3) 0.5556(2)
H22_2 H 0.0841 0.4063 0.5103
C29 C 0.0790(4) 0.5128(4) 0.5959(2)
H23 H 0.0973 0.5837 0.5778
C30 C 0.0595(3) 0.5135(3) 0.6623(2)
H24 H 0.0620 0.5856 0.6880
C31_2 C 0.0299(2) 0.1867(3) 0.53724(15)
C32_2 C 0.0154(2) 0.4079(3) 0.76369(17)
O9 O 0.00833(17) 0.0060(2) 0.71381(12)
N5_2 N 0.14277(19) 0.4649(3) 0.90882(15)
N1 N 0.4385(2) 0.6195(4) 0.88225(18)
H1 H 0.4431 0.6374 0.8394
O1 O 0.4507(3) 0.6854(3) 0.99546(17)
C1 C 0.7165(4) 0.8359(7) 0.8226(5)
H2 H 0.7641 0.8391 0.8024
C2 C 0.6958(4) 0.7281(7) 0.8524(5)
H3 H 0.7317 0.6608 0.8545
C3 C 0.6666(4) 0.9375(6) 0.8232(4)
C4 C 0.6226(4) 0.7204(6) 0.8786(4)
H6 H 0.6080 0.6460 0.8952
C5 C 0.5910(3) 0.9350(5) 0.8533(3)
C6 C 0.5678(3) 0.8228(5) 0.8814(3)
C8 C 0.4921(3) 0.8189(5) 0.9089(2)
C10 C 0.4450(4) 0.9180(6) 0.9112(3)
H8 H 0.3976 0.9135 0.9317
C11 C 0.4587(3) 0.7019(5) 0.9333(2)
C12_2 C 0.4085(3) 0.4990(4) 0.8951(2)
H9_2 H 0.4142 0.4466 0.8556
H10_2 H 0.4465 0.4674 0.9395
C13_2 C 0.3154(2) 0.4926(4) 0.90141(19)
C14 C 0.2559(3) 0.5836(4) 0.8802(2)
H11 H 0.2728 0.6564 0.8632
C15 C 0.1712(2) 0.5673(3) 0.8841(2)
H12 H 0.1316 0.6300 0.8689
C16_2 C 0.2866(3) 0.3865(4) 0.9271(2)
H13_2 H 0.3250 0.3222 0.9418
C17_2 C 0.2014(2) 0.3768(4) 0.9305(2)
H14_2 H 0.1837 0.3057 0.9488
N1_2 N 0.4385(2) 0.8805(4) 0.38225(18)
H1_2 H 0.4431 0.8626 0.3394
O1_2 O 0.4507(3) 0.8146(3) 0.49546(17)
C1_2 C 0.7165(4) 0.6641(7) 0.3226(5)
H2_2 H 0.7641 0.6609 0.3024
O2_2 O 0.5686(3) 0.3435(4) 0.26098(18)
C2_2 C 0.6958(4) 0.7719(7) 0.3524(5)
H3_2 H 0.7317 0.8392 0.3545
N3_2 N 0.5621(2) 0.2448(3) 0.36124(18)
H4_2 H 0.5507 0.2473 0.4031
C3_2 C 0.6666(4) 0.5625(6) 0.3232(4)
H5_2 H 0.6815 0.4906 0.3038
N4_2 N 0.86629(19) 0.1038(3) 0.37055(16)
C4_2 C 0.6226(4) 0.7796(6) 0.3786(4)
H6_2 H 0.6080 0.8540 0.3952
C5_2 C 0.5910(3) 0.5650(5) 0.3533(3)
C6_2 C 0.5678(3) 0.6772(5) 0.3814(3)
C7_2 C 0.5368(3) 0.4614(5) 0.3555(2)
C8_2 C 0.4921(3) 0.6811(5) 0.4089(2)
C9_2 C 0.4653(4) 0.4686(5) 0.3827(3)
H7_2 H 0.4303 0.4010 0.3828
C10_2 C 0.4450(4) 0.5820(6) 0.4112(3)
H8_2 H 0.3976 0.5865 0.4317
C11_2 C 0.4587(3) 0.7981(5) 0.4333(2)
C14_2 C 0.2559(3) 0.9164(4) 0.3802(2)
H11_2 H 0.2728 0.8436 0.3632
C15_2 C 0.1712(2) 0.9327(3) 0.3841(2)
H12_2 H 0.1316 0.8700 0.3689
C18_2 C 0.5563(3) 0.3451(4) 0.3217(2)
C19_2 C 0.5873(3) 0.1312(4) 0.3343(3)
H15_2 H 0.5595 0.1241 0.2828
H16_2 H 0.5673 0.0645 0.3591
C20_2 C 0.6850(2) 0.1233(4) 0.3460(2)
C21_2 C 0.7247(3) 0.1298(5) 0.2893(2)
H17_2 H 0.6912 0.1408 0.2420
C22_2 C 0.8141(3) 0.1201(5) 0.3030(2)
H18_2 H 0.8397 0.1250 0.2641
C23_2 C 0.8279(3) 0.0999(6) 0.4235(2)
H19_2 H 0.8626 0.0899 0.4706
C24_2 C 0.7387(3) 0.1097(6) 0.4139(2)
H20_2 H 0.7152 0.1069 0.4540
O3_2 O 0.96699(16) 0.8038(2) 0.52804(12)
O4_3 O 0.9896(2) 0.9072(2) 0.43533(13)
O5_2 O 0.97745(18) 0.6863(2) 0.19831(12)
C25_3 C 0.9640(2) 0.5938(3) 0.30900(17)
C26_3 C 0.9696(2) 0.7007(3) 0.34796(15)
H21_3 H 0.9836 0.7726 0.3281
C27_3 C 0.9541(2) 0.7006(3) 0.41722(16)
C28_3 C 0.9283(3) 0.5940(3) 0.4444(2)
H22_3 H 0.9159 0.5937 0.4897
C29_2 C 0.9210(4) 0.4872(4) 0.4041(2)
H23_2 H 0.9027 0.4163 0.4222
C30_2 C 0.9405(3) 0.4865(3) 0.3377(2)
H24_2 H 0.9380 0.4144 0.3120
C31_3 C 0.9701(2) 0.8133(3) 0.46276(15)
C32_3 C 0.9846(2) 0.5921(3) 0.23631(17)
Co3 Co 0.99564(3) 0.56948(4) 0.10737(2)
Co4_2 Co 0.99564(3) 0.93052(4) 0.60737(2)
O9_2 O 0.99167(17) 0.9940(2) 0.28619(12)
N1_3 N 0.5615(2) 0.3805(4) 0.11775(18)
H1_3 H 0.5569 0.3626 0.1606
O1_3 O 0.5493(3) 0.3146(3) 0.00454(17)
C1_3 C 0.2835(4) 0.1641(7) 0.1774(5)
H2_3 H 0.2359 0.1609 0.1976
N2 N 0.85723(19) 0.5351(3) 0.09118(15)
C2_3 C 0.3042(4) 0.2719(7) 0.1476(5)
H3_3 H 0.2683 0.3392 0.1455
C3_3 C 0.3334(4) 0.0625(6) 0.1768(4)
C4_3 C 0.3774(4) 0.2796(6) 0.1214(4)
H6_3 H 0.3920 0.3540 0.1048
C5_3 C 0.4090(3) 0.0650(5) 0.1467(3)
C6_3 C 0.4322(3) 0.1772(5) 0.1186(3)
C8_3 C 0.5079(3) 0.1811(5) 0.0911(2)
C10_3 C 0.5550(4) 0.0820(6) 0.0888(3)
H8_3 H 0.6024 0.0865 0.0683
C11_3 C 0.5413(3) 0.2981(5) 0.0667(2)
C12_3 C 0.5915(3) 0.5010(4) 0.1049(2)
H9_3 H 0.5858 0.5534 0.1444
H10_3 H 0.5535 0.5326 0.0605
C13_3 C 0.6846(2) 0.5074(4) 0.09859(19)
C14_3 C 0.7441(3) 0.4164(4) 0.1198(2)
H11_3 H 0.7272 0.3436 0.1368
C15_3 C 0.8288(2) 0.4327(3) 0.1159(2)
H12_3 H 0.8684 0.3700 0.1311
C16_3 C 0.7134(3) 0.6135(4) 0.0729(2)
H13_3 H 0.6750 0.6778 0.0582
C17_3 C 0.7986(2) 0.6232(4) 0.0695(2)
H14_3 H 0.8163 0.6943 0.0512
O7_2 O 0.96699(16) 0.6962(2) 0.02804(12)
N2_2 N 0.85723(19) 0.9649(3) 0.59118(15)
C12_4 C 0.5915(3) 0.9990(4) 0.6049(2)
H9_4 H 0.5858 0.9466 0.6444
H10_4 H 0.5535 0.9674 0.5605
C13_4 C 0.6846(2) 0.9926(4) 0.59859(19)
C16_4 C 0.7134(3) 0.8865(4) 0.5729(2)
H13_4 H 0.6750 0.8222 0.5582
C17_4 C 0.7986(2) 0.8768(4) 0.5695(2)
H14_4 H 0.8163 0.8057 0.5512
O6_2 O 0.99167(17) 0.5060(2) 0.78619(12)
O8_2 O 0.97745(18) 0.8137(2) 0.69831(12)
O2_3 O 0.5686(3) 0.1565(4) 0.76098(18)
N3_3 N 0.5621(2) 0.2552(3) 0.86124(18)
H4_3 H 0.5507 0.2527 0.9031
H5_3 H 0.6815 0.0094 0.8038
O4_4 O 0.9896(2) 0.5928(2) 0.93533(13)
N4_3 N 0.86629(19) 0.3962(3) 0.87055(16)
C7_3 C 0.5368(3) 0.0386(5) 0.8555(2)
C9_3 C 0.4653(4) 0.0314(5) 0.8827(3)
H7_3 H 0.4303 0.0990 0.8828
C18_3 C 0.5563(3) 0.1549(4) 0.8217(2)
C19_3 C 0.5873(3) 0.3688(4) 0.8343(3)
H15_3 H 0.5595 0.3759 0.7828
H16_3 H 0.5673 0.4355 0.8591
C20_3 C 0.6850(2) 0.3767(4) 0.8460(2)
C21_3 C 0.7247(3) 0.3702(5) 0.7893(2)
H17_3 H 0.6912 0.3592 0.7420
C22_3 C 0.8141(3) 0.3799(5) 0.8030(2)
H18_3 H 0.8397 0.3750 0.7641
C23_3 C 0.8279(3) 0.4001(6) 0.9235(2)
H19_3 H 0.8626 0.4101 0.9706
C24_3 C 0.7387(3) 0.3903(6) 0.9139(2)
H20_3 H 0.7152 0.3931 0.9540
C25_4 C 0.9640(2) 0.9062(3) 0.80900(17)
C26_4 C 0.9696(2) 0.7993(3) 0.84796(15)
H21_4 H 0.9836 0.7274 0.8281
C27_4 C 0.9541(2) 0.7994(3) 0.91722(16)
C28_4 C 0.9283(3) 0.9060(3) 0.9444(2)
H22_4 H 0.9159 0.9063 0.9897
C31_4 C 0.9701(2) 0.6867(3) 0.96276(15)
C32_4 C 0.9846(2) 0.9079(3) 0.73631(17)
C29_3 C 0.0790(4) 0.9872(4) 0.0959(2)
H23_3 H 0.0973 0.9163 0.0778
C30_3 C 0.0595(3) 0.9865(3) 0.1623(2)
H24_3 H 0.0620 0.9144 0.1880
N1_4 N 0.5615(2) 0.1195(4) 0.61775(18)
H1_4 H 0.5569 0.1374 0.6606
O1_4 O 0.5493(3) 0.1854(3) 0.50454(17)
C1_4 C 0.2835(4) 0.3359(7) 0.6774(5)
H2_4 H 0.2359 0.3391 0.6976
O2_4 O 0.4314(3) 0.6565(4) 0.73902(18)
C2_4 C 0.3042(4) 0.2281(7) 0.6476(5)
H3_4 H 0.2683 0.1608 0.6455
N3_4 N 0.4379(2) 0.7552(3) 0.63876(18)
H4_4 H 0.4493 0.7527 0.5969
C3_4 C 0.3334(4) 0.4375(6) 0.6768(4)
H5_4 H 0.3185 0.5094 0.6962
N4_4 N 0.13371(19) 0.8962(3) 0.62945(16)
C4_4 C 0.3774(4) 0.2204(6) 0.6214(4)
H6_4 H 0.3920 0.1460 0.6048
C5_4 C 0.4090(3) 0.4350(5) 0.6467(3)
C6_4 C 0.4322(3) 0.3228(5) 0.6186(3)
C7_4 C 0.4632(3) 0.5386(5) 0.6445(2)
C8_4 C 0.5079(3) 0.3189(5) 0.5911(2)
C9_4 C 0.5347(4) 0.5314(5) 0.6173(3)
H7_4 H 0.5697 0.5990 0.6172
C10_4 C 0.5550(4) 0.4180(6) 0.5888(3)
H8_4 H 0.6024 0.4135 0.5683
C11_4 C 0.5413(3) 0.2019(5) 0.5667(2)
C14_4 C 0.7441(3) 0.0836(4) 0.6198(2)
H11_4 H 0.7272 0.1564 0.6368
C15_4 C 0.8288(2) 0.0673(3) 0.6159(2)
H12_4 H 0.8684 0.1300 0.6311
C18_4 C 0.4437(3) 0.6549(4) 0.6783(2)
C19_4 C 0.4127(3) 0.8688(4) 0.6657(3)
H15_4 H 0.4405 0.8759 0.7172
H16_4 H 0.4327 0.9355 0.6409
C20_4 C 0.3150(2) 0.8767(4) 0.6540(2)
C21_4 C 0.2753(3) 0.8702(5) 0.7107(2)
H17_4 H 0.3088 0.8592 0.7580
C22_4 C 0.1859(3) 0.8799(5) 0.6970(2)
H18_4 H 0.1603 0.8750 0.7359
C23_4 C 0.1721(3) 0.9001(6) 0.5765(2)
H19_4 H 0.1374 0.9101 0.5294
C24_4 C 0.2613(3) 0.8903(6) 0.5861(2)
H20_4 H 0.2848 0.8931 0.5460
C29_4 C 0.9210(4) 0.0128(4) 0.9041(2)
H23_4 H 0.9027 0.0837 0.9222
C30_4 C 0.9405(3) 0.0135(3) 0.8377(2)
H24_4 H 0.9380 0.0856 0.8120
loop_
_geom_bond_atom_site_label_1
_geom_bond_atom_site_label_2
_geom_bond_site_symmetry_1
_geom_bond_site_symmetry_2
N5 Co1 1_555 1_555
O7 Co1 1_555 1_555
O8 Co1 1_555 1_555
H9 C12 1_555 1_555
H10 C12 1_555 1_555
C13 C12 1_555 1_555
C16 C13 1_555 1_555
H13 C16 1_555 1_555
C17 N5 1_555 1_555
H14 C17 1_555 1_555
C16 C17 1_555 1_555
O2 C18 1_555 1_555
N3 H4 1_555 1_555
O4 C31 1_555 1_555
O8 C32 1_555 1_555
C9 C7 1_555 1_555
H7 C9 1_555 1_555
C18 N3 1_555 1_555
C19 N3 1_555 1_555
H15 C19 1_555 1_555
H16 C19 1_555 1_555
C20 C19 1_555 1_555
C21 C20 1_555 1_555
H17 C21 1_555 1_555
C22 N4 1_555 1_555
H18 C22 1_555 1_555
C23 N4 1_555 1_555
H19 C23 1_555 1_555
C24 C20 1_555 1_555
H20 C24 1_555 1_555
C25 C26 1_555 1_555
C26 H21 1_555 1_555
C27 C26 1_555 1_555
C28 C27 1_555 1_555
H22 C28 1_555 1_555
C31 C27 1_555 1_555
C32 C25 1_555 1_555
C7 C18 1_555 1_555
C21 C22 1_555 1_555
C23 C24 1_555 1_555
Co4 O3 1_555 1_555
O7 C31_2 1_555 1_555
O4_2 C31_2 1_555 1_555
O5 C32_2 1_555 1_555
C25_2 C26_2 1_555 1_555
C26_2 H21_2 1_555 1_555
C27_2 C26_2 1_555 1_555
C28_2 C27_2 1_555 1_555
H22_2 C28_2 1_555 1_555
C29 C28_2 1_555 1_555
H23 C29 1_555 1_555
C30 C25_2 1_555 1_555
H24 C30 1_555 1_555
C31_2 C27_2 1_555 1_555
C32_2 C25_2 1_555 1_555
Co4 O5 1_555 1_555
C29 C30 1_555 1_555
N5_2 Co4 1_555 1_555
N1 H1 1_555 1_555
O1 C11 1_555 1_555
C1 H2 1_555 1_555
N5_2 C15 1_555 1_555
C2 C1 1_555 1_555
H3 C2 1_555 1_555
C3 C1 1_555 1_555
C4 C2 1_555 1_555
H6 C4 1_555 1_555
C5 C3 1_555 1_555
C6 C4 1_555 1_555
C8 C6 1_555 1_555
C10 C8 1_555 1_555
H8 C10 1_555 1_555
C11 N1 1_555 1_555
C12_2 N1 1_555 1_555
H9_2 C12_2 1_555 1_555
H10_2 C12_2 1_555 1_555
C13_2 C12_2 1_555 1_555
C14 C13_2 1_555 1_555
H11 C14 1_555 1_555
C15 C14 1_555 1_555
H12 C15 1_555 1_555
C16_2 C13_2 1_555 1_555
H13_2 C16_2 1_555 1_555
C17_2 N5_2 1_555 1_555
H14_2 C17_2 1_555 1_555
C5 C6 1_555 1_555
C8 C11 1_555 1_555
C16_2 C17_2 1_555 1_555
N1_2 H1_2 1_555 1_555
O1_2 C11_2 1_555 1_555
C1_2 H2_2 1_555 1_555
O2_2 C18_2 1_555 1_555
C2_2 C1_2 1_555 1_555
H3_2 C2_2 1_555 1_555
N3_2 H4_2 1_555 1_555
C3_2 C1_2 1_555 1_555
H5_2 C3_2 1_555 1_555
C4_2 C2_2 1_555 1_555
H6_2 C4_2 1_555 1_555
C5_2 C3_2 1_555 1_555
C6_2 C4_2 1_555 1_555
C7_2 C5_2 1_555 1_555
C8_2 C6_2 1_555 1_555
C9_2 C7_2 1_555 1_555
H7_2 C9_2 1_555 1_555
C10_2 C8_2 1_555 1_555
H8_2 C10_2 1_555 1_555
C11_2 N1_2 1_555 1_555
H11_2 C14_2 1_555 1_555
C15_2 C14_2 1_555 1_555
H12_2 C15_2 1_555 1_555
C18_2 N3_2 1_555 1_555
C19_2 N3_2 1_555 1_555
H15_2 C19_2 1_555 1_555
H16_2 C19_2 1_555 1_555
C20_2 C19_2 1_555 1_555
C21_2 C20_2 1_555 1_555
H17_2 C21_2 1_555 1_555
C22_2 N4_2 1_555 1_555
H18_2 C22_2 1_555 1_555
C23_2 N4_2 1_555 1_555
H19_2 C23_2 1_555 1_555
C24_2 C20_2 1_555 1_555
H20_2 C24_2 1_555 1_555
C5_2 C6_2 1_555 1_555
C7_2 C18_2 1_555 1_555
C8_2 C11_2 1_555 1_555
C9_2 C10_2 1_555 1_555
C21_2 C22_2 1_555 1_555
C23_2 C24_2 1_555 1_555
O3_2 C31_3 1_555 1_555
O4_3 C31_3 1_555 1_555
O5_2 C32_3 1_555 1_555
C25_3 C26_3 1_555 1_555
C26_3 H21_3 1_555 1_555
C27_3 C26_3 1_555 1_555
C28_3 C27_3 1_555 1_555
H22_3 C28_3 1_555 1_555
C29_2 C28_3 1_555 1_555
H23_2 C29_2 1_555 1_555
C30_2 C25_3 1_555 1_555
H24_2 C30_2 1_555 1_555
C31_3 C27_3 1_555 1_555
C32_3 C25_3 1_555 1_555
Co3 O5_2 1_555 1_555
Co4_2 O3_2 1_555 1_555
C29_2 C30_2 1_555 1_555
N1_3 H1_3 1_555 1_555
O1_3 C11_3 1_555 1_555
C1_3 H2_3 1_555 1_555
N2 C15_3 1_555 1_555
C2_3 C1_3 1_555 1_555
H3_3 C2_3 1_555 1_555
C3_3 C1_3 1_555 1_555
C4_3 C2_3 1_555 1_555
H6_3 C4_3 1_555 1_555
C5_3 C3_3 1_555 1_555
C6_3 C4_3 1_555 1_555
C8_3 C6_3 1_555 1_555
C10_3 C8_3 1_555 1_555
H8_3 C10_3 1_555 1_555
C11_3 N1_3 1_555 1_555
C12_3 N1_3 1_555 1_555
H9_3 C12_3 1_555 1_555
H10_3 C12_3 1_555 1_555
C13_3 C12_3 1_555 1_555
C14_3 C13_3 1_555 1_555
H11_3 C14_3 1_555 1_555
C15_3 C14_3 1_555 1_555
H12_3 C15_3 1_555 1_555
C16_3 C13_3 1_555 1_555
H13_3 C16_3 1_555 1_555
C17_3 N2 1_555 1_555
H14_3 C17_3 1_555 1_555
Co3 N2 1_555 1_555
C5_3 C6_3 1_555 1_555
C8_3 C11_3 1_555 1_555
C16_3 C17_3 1_555 1_555
O7_2 Co3 1_555 1_555
H9_4 C12_4 1_555 1_555
H10_4 C12_4 1_555 1_555
C13_4 C12_4 1_555 1_555
C16_4 C13_4 1_555 1_555
H13_4 C16_4 1_555 1_555
C17_4 N2_2 1_555 1_555
H14_4 C17_4 1_555 1_555
Co4_2 N2_2 1_555 1_555
C16_4 C17_4 1_555 1_555
O8_2 Co4_2 1_555 1_555
O2_3 C18_3 1_555 1_555
N3_3 H4_3 1_555 1_555
O4_4 C31_4 1_555 1_555
O8_2 C32_4 1_555 1_555
C9_3 C7_3 1_555 1_555
H7_3 C9_3 1_555 1_555
C18_3 N3_3 1_555 1_555
C19_3 N3_3 1_555 1_555
H15_3 C19_3 1_555 1_555
H16_3 C19_3 1_555 1_555
C20_3 C19_3 1_555 1_555
C21_3 C20_3 1_555 1_555
H17_3 C21_3 1_555 1_555
C22_3 N4_3 1_555 1_555
H18_3 C22_3 1_555 1_555
C23_3 N4_3 1_555 1_555
H19_3 C23_3 1_555 1_555
C24_3 C20_3 1_555 1_555
H20_3 C24_3 1_555 1_555
C25_4 C26_4 1_555 1_555
C26_4 H21_4 1_555 1_555
C27_4 C26_4 1_555 1_555
C28_4 C27_4 1_555 1_555
H22_4 C28_4 1_555 1_555
C31_4 C27_4 1_555 1_555
C32_4 C25_4 1_555 1_555
C7_3 C18_3 1_555 1_555
C21_3 C22_3 1_555 1_555
C23_3 C24_3 1_555 1_555
H23_3 C29_3 1_555 1_555
H24_3 C30_3 1_555 1_555
C29_3 C30_3 1_555 1_555
N1_4 H1_4 1_555 1_555
O1_4 C11_4 1_555 1_555
C1_4 H2_4 1_555 1_555
O2_4 C18_4 1_555 1_555
C2_4 C1_4 1_555 1_555
H3_4 C2_4 1_555 1_555
N3_4 H4_4 1_555 1_555
C3_4 C1_4 1_555 1_555
H5_4 C3_4 1_555 1_555
C4_4 C2_4 1_555 1_555
H6_4 C4_4 1_555 1_555
C5_4 C3_4 1_555 1_555
C6_4 C4_4 1_555 1_555
C7_4 C5_4 1_555 1_555
C8_4 C6_4 1_555 1_555
C9_4 C7_4 1_555 1_555
H7_4 C9_4 1_555 1_555
C10_4 C8_4 1_555 1_555
H8_4 C10_4 1_555 1_555
C11_4 N1_4 1_555 1_555
H11_4 C14_4 1_555 1_555
C15_4 C14_4 1_555 1_555
H12_4 C15_4 1_555 1_555
C18_4 N3_4 1_555 1_555
C19_4 N3_4 1_555 1_555
H15_4 C19_4 1_555 1_555
H16_4 C19_4 1_555 1_555
C20_4 C19_4 1_555 1_555
C21_4 C20_4 1_555 1_555
H17_4 C21_4 1_555 1_555
C22_4 N4_4 1_555 1_555
H18_4 C22_4 1_555 1_555
C23_4 N4_4 1_555 1_555
H19_4 C23_4 1_555 1_555
C24_4 C20_4 1_555 1_555
H20_4 C24_4 1_555 1_555
C5_4 C6_4 1_555 1_555
C7_4 C18_4 1_555 1_555
C8_4 C11_4 1_555 1_555
C9_4 C10_4 1_555 1_555
C21_4 C22_4 1_555 1_555
C23_4 C24_4 1_555 1_555
H23_4 C29_4 1_555 1_555
H24_4 C30_4 1_555 1_555
C29_4 C30_4 1_555 1_555

#END
