
###############################################################################
#
# This file contains modified crystal structure data generated from the
# MOF subset of the Cambridge Structural Database (CSD) v543 
# hosted by the Cambridge Crystallographic Data Centre (CCDC).
#
# This work is licensed under the Creative Commons
# Attribution-NonCommercial-ShareAlike 4.0 International License.
# To view a copy of this license, visit
# http://creativecommons.org/licenses/by-nc-sa/4.0/
# or send a letter to
# Creative Commons, PO Box 1866, Mountain View, CA 94042, USA.
#
# CIF created using the CSD Python API on 29 September 2022
# The structure has been converted into the P1 space group
# The structure has a 3D framework
# The original CSD entry BUKSAD is in the cubic crystal system
# The original CSD entry BUKSAD is in a Sohncke space group
# The framework has been calculated to contain at least 10.0% void space
# The void calculation uses a probe of radius 1.32A, grid spacing 0.4
# H atom positions have been added when not included in the experimental data
# Generated hydrogen atom positions removed from atoms on special positions
#
###############################################################################

data_BUKSAD
_chemical_formula_moiety         '(C48 H120 N24 O68 Zn24)n'
_symmetry_cell_setting           triclinic
_symmetry_space_group_name_H-M   'P 1'
_symmetry_Int_Tables_number      1
_space_group_name_Hall           'P 1'
loop_
_symmetry_equiv_pos_site_id
_symmetry_equiv_pos_as_xyz
1 x,y,z
_cell_length_a                   20.0872(19)
_cell_length_b                   20.0872(19)
_cell_length_c                   20.0872(19)
_cell_angle_alpha                90
_cell_angle_beta                 90
_cell_angle_gamma                90
_cell_volume                     8105.1
loop_
_atom_site_label
_atom_site_type_symbol
_atom_site_fract_x
_atom_site_fract_y
_atom_site_fract_z
O1 O 0.0431(4) 0.0431(4) 0.0431(4)
H9 H 0.0110783 0.00403729 0.231662
H15 H 0.231662 0.0110783 0.00403729
H19 H 0.00403729 0.231662 0.0110783
O14 O 0.0074(3) 0.0295(3) 0.6926(3)
N5 N 0.0744(5) 0.0025(5) 0.9113(5)
C9 C 0.0513(6) 0.0179(5) 0.8058(5)
C10 C 0.0437(7) 0.0004(6) 0.7324(6)
N6 N 0.0303(3) 0.0517(3) 0.8943(3)
C12 C 0.0138(6) 0.0536(7) 0.8348(6)
O17 O 0.0966(6) 0.1063(6) 0.9767(6)
H21 H 0.115579 0.0616501 0.967215
H22 H 0.111776 0.138318 0.942228
O9 O 0.0295(3) 0.6926(3) 0.0074(3)
N3 N 0.0025(5) 0.9113(5) 0.0744(5)
C5 C 0.0179(5) 0.8058(5) 0.0513(6)
C6 C 0.0004(6) 0.7324(6) 0.0437(7)
N4 N 0.0517(3) 0.8943(3) 0.0303(3)
C8 C 0.0536(7) 0.8348(6) 0.0138(6)
O12 O 0.1063(6) 0.9767(6) 0.0966(6)
H13 H 0.0616501 0.967215 0.115579
H14 H 0.138318 0.942228 0.111776
Zn3 Zn 0.10108(9) 0.97563(8) 0.99838(9)
O11 O 0.2043(5) 0.9977(4) 0.9651(5)
H4 H 0.0786 0.8160 0.9783
Zn6 Zn 0.02418(10) 0.99652(9) 0.60126(10)
O13 O 0.0893(4) 0.9606(4) 0.6991(3)
C11 C 0.0903(5) 0.9816(6) 0.8459(5)
H5 H 0.1219 0.9488 0.8331
O19 O 0.0455(3) 0.5455(3) 0.9545(3)
H16 H 0.223879 0.957365 0.944279
O4 O 0.6926(3) 0.0074(3) 0.0295(3)
N1 N 0.9113(5) 0.0744(5) 0.0025(5)
C1 C 0.8058(5) 0.0513(6) 0.0179(5)
C2 C 0.7324(6) 0.0437(7) 0.0004(6)
N2 N 0.8943(3) 0.0303(3) 0.0517(3)
C4 C 0.8348(6) 0.0138(6) 0.0536(7)
O7 O 0.9767(6) 0.0966(6) 0.1063(6)
Zn8 Zn 0.47582(10) 0.00348(9) 0.10126(10)
H17 H 0.967215 0.115579 0.0616501
H18 H 0.942228 0.111776 0.138318
Zn2 Zn 0.60126(10) 0.02418(10) 0.99652(9)
O3 O 0.6991(3) 0.0893(4) 0.9606(4)
C3 C 0.8459(5) 0.0903(5) 0.9816(6)
H1 H 0.8331 0.1219 0.9488
Zn5 Zn 0.99838(9) 0.10108(9) 0.97563(8)
O16 O 0.9651(5) 0.2043(5) 0.9977(4)
H6 H 0.9783 0.0786 0.8160
O18 O 0.9545(3) 0.0455(3) 0.5455(3)
H8 H 0.607564 0.0265631 0.868615
H20 H 0.944279 0.223879 0.957365
Zn1 Zn 0.97563(8) 0.99838(9) 0.10108(9)
O2 O 0.5455(3) 0.9545(3) 0.0455(3)
O6 O 0.9977(4) 0.9651(5) 0.2043(5)
H2 H 0.8160 0.9783 0.0786
Zn4 Zn 0.99652(9) 0.60126(10) 0.02418(10)
O8 O 0.9606(4) 0.6991(3) 0.0893(4)
C7 C 0.9816(6) 0.8459(5) 0.0903(5)
H3 H 0.9488 0.8331 0.1219
H10 H 0.957365 0.944279 0.223879
O5 O 0.5831(4) 0.9964(5) 0.8992(4)
O10 O 0.8992(4) 0.5831(4) 0.9964(5)
O15 O 0.9964(5) 0.8992(4) 0.5831(4)
Zn7 Zn 0.49652(9) 0.89874(10) 0.97582(10)
Zn7_2 Zn 0.00348(9) 0.10126(10) 0.47582(10)
Zn1_2 Zn 0.52437(8) 0.00162(9) 0.60108(9)
O5_2 O 0.9169(4) 0.0036(5) 0.3992(4)
O6_2 O 0.5023(4) 0.0349(5) 0.7043(5)
H2_2 H 0.6840 0.0217 0.5786
Zn3_2 Zn 0.39892(9) 0.02437(8) 0.49838(9)
Zn4_2 Zn 0.50348(9) 0.39874(10) 0.52418(10)
O8_2 O 0.5394(4) 0.3009(3) 0.5893(4)
O9_2 O 0.4705(3) 0.3074(3) 0.5074(3)
N3_2 N 0.4975(5) 0.0887(5) 0.5744(5)
C5_2 C 0.4821(5) 0.1942(5) 0.5513(6)
C6_2 C 0.4996(6) 0.2676(6) 0.5437(7)
C7_2 C 0.5184(6) 0.1541(5) 0.5903(5)
H3_2 H 0.5512 0.1669 0.6219
N4_2 N 0.4483(3) 0.1057(3) 0.5303(3)
O10_2 O 0.6008(4) 0.4169(4) 0.4964(5)
O11_2 O 0.2957(5) 0.0023(4) 0.4651(5)
C8_2 C 0.4464(7) 0.1652(6) 0.5138(6)
H4_2 H 0.4214 0.1840 0.4783
O12_2 O 0.3937(6) 0.0233(6) 0.5966(6)
O13_2 O 0.4107(4) 0.0394(4) 0.1991(3)
C11_2 C 0.4097(5) 0.0184(6) 0.3459(5)
H5_2 H 0.3781 0.0512 0.3331
O15_2 O 0.5036(5) 0.1008(4) 0.0831(4)
O19_2 O 0.4545(3) 0.4545(3) 0.4545(3)
H10_2 H 0.542635 0.0557209 0.723879
H13_2 H 0.43835 0.0327849 0.615579
H14_2 H 0.361682 0.0577721 0.611776
H16_2 H 0.276121 0.0426349 0.444279
Zn2_2 Zn 0.89874(10) 0.97582(10) 0.49652(9)
O1_2 O 0.4569(4) 0.9569(4) 0.5431(4)
O3_2 O 0.8009(3) 0.9107(4) 0.4606(4)
O4_2 O 0.8074(3) 0.9926(3) 0.5295(3)
N1_2 N 0.5887(5) 0.9256(5) 0.5025(5)
C1_2 C 0.6942(5) 0.9487(6) 0.5179(5)
C2_2 C 0.7676(6) 0.9563(7) 0.5004(6)
C3_2 C 0.6541(5) 0.9097(5) 0.4816(6)
H1_2 H 0.6669 0.8781 0.4488
N2_2 N 0.6057(3) 0.9697(3) 0.5517(3)
C4_2 C 0.6652(6) 0.9862(6) 0.5536(7)
O7_2 O 0.5233(6) 0.9034(6) 0.6063(6)
Zn5_2 Zn 0.50162(9) 0.89892(9) 0.47563(8)
O14_2 O 0.4926(3) 0.9705(3) 0.1926(3)
N5_2 N 0.4256(5) 0.9975(5) 0.4113(5)
C9_2 C 0.4487(6) 0.9821(5) 0.3058(5)
C10_2 C 0.4563(7) 0.9996(6) 0.2324(6)
N6_2 N 0.4697(3) 0.9483(3) 0.3943(3)
O16_2 O 0.5349(5) 0.7957(5) 0.4977(4)
C12_2 C 0.4862(6) 0.9464(7) 0.3348(6)
H6_2 H 0.5217 0.9214 0.3160
O17_2 O 0.4034(6) 0.8937(6) 0.4767(6)
H8_2 H 0.892436 0.973437 0.368615
H9_2 H 0.488922 0.995963 0.731662
H15_2 H 0.268338 0.988922 0.504037
H17_2 H 0.532785 0.884421 0.56165
H18_2 H 0.557772 0.888224 0.638318
H19_2 H 0.495963 0.768338 0.511078
H20_2 H 0.555721 0.776121 0.457365
H21_2 H 0.384421 0.93835 0.467215
H22_2 H 0.388224 0.861682 0.442228
Zn1_3 Zn 0.02437(8) 0.49838(9) 0.39892(9)
Zn2_3 Zn 0.39874(10) 0.52418(10) 0.50348(9)
O3_3 O 0.3009(3) 0.5893(4) 0.5394(4)
O4_3 O 0.3074(3) 0.5074(3) 0.4705(3)
N1_3 N 0.0887(5) 0.5744(5) 0.4975(5)
C1_3 C 0.1942(5) 0.5513(6) 0.4821(5)
C2_3 C 0.2676(6) 0.5437(7) 0.4996(6)
C3_3 C 0.1541(5) 0.5903(5) 0.5184(6)
H1_3 H 0.1669 0.6219 0.5512
N2_3 N 0.1057(3) 0.5303(3) 0.4483(3)
O5_3 O 0.4169(4) 0.4964(5) 0.6008(4)
O6_3 O 0.0023(4) 0.4651(5) 0.2957(5)
C4_3 C 0.1652(6) 0.5138(6) 0.4464(7)
H2_3 H 0.1840 0.4783 0.4214
O7_3 O 0.0233(6) 0.5966(6) 0.3937(6)
O8_3 O 0.0394(4) 0.1991(3) 0.4107(4)
C7_3 C 0.0184(6) 0.3459(5) 0.4097(5)
H3_3 H 0.0512 0.3331 0.3781
O10_3 O 0.1008(4) 0.0831(4) 0.5036(5)
Zn5_3 Zn 0.00162(9) 0.60108(9) 0.52437(8)
O15_3 O 0.0036(5) 0.3992(4) 0.9169(4)
O16_3 O 0.0349(5) 0.7043(5) 0.5023(4)
H6_3 H 0.0217 0.5786 0.6840
Zn8_2 Zn 0.52418(10) 0.50348(9) 0.39874(10)
H10_3 H 0.0426349 0.444279 0.276121
H17_3 H 0.0327849 0.615579 0.43835
H18_3 H 0.0577721 0.611776 0.361682
H20_3 H 0.0557209 0.723879 0.542635
O1_3 O 0.9569(4) 0.5431(4) 0.4569(4)
Zn3_3 Zn 0.89892(9) 0.47563(8) 0.50162(9)
O9_3 O 0.9705(3) 0.1926(3) 0.4926(3)
N3_3 N 0.9975(5) 0.4113(5) 0.4256(5)
C5_3 C 0.9821(5) 0.3058(5) 0.4487(6)
C6_3 C 0.9996(6) 0.2324(6) 0.4563(7)
N4_3 N 0.9483(3) 0.3943(3) 0.4697(3)
O11_3 O 0.7957(5) 0.4977(4) 0.5349(5)
C8_3 C 0.9464(7) 0.3348(6) 0.4862(6)
H4_3 H 0.9214 0.3160 0.5217
O12_3 O 0.8937(6) 0.4767(6) 0.4034(6)
Zn6_2 Zn 0.97582(10) 0.49652(9) 0.89874(10)
O13_3 O 0.9107(4) 0.4606(4) 0.8009(3)
O14_3 O 0.9926(3) 0.5295(3) 0.8074(3)
N5_3 N 0.9256(5) 0.5025(5) 0.5887(5)
C9_3 C 0.9487(6) 0.5179(5) 0.6942(5)
C10_3 C 0.9563(7) 0.5004(6) 0.7676(6)
C11_3 C 0.9097(5) 0.4816(6) 0.6541(5)
H5_3 H 0.8781 0.4488 0.6669
N6_3 N 0.9697(3) 0.5517(3) 0.6057(3)
C12_3 C 0.9862(6) 0.5536(7) 0.6652(6)
O17_3 O 0.9034(6) 0.6063(6) 0.5233(6)
H9_3 H 0.988922 0.504037 0.268338
H13_3 H 0.93835 0.467215 0.384421
H14_3 H 0.861682 0.442228 0.388224
H15_3 H 0.768338 0.511078 0.495963
H16_3 H 0.776121 0.457365 0.555721
H19_3 H 0.995963 0.731662 0.488922
H21_3 H 0.884421 0.56165 0.532785
H22_3 H 0.888224 0.638318 0.557772
Zn2_4 Zn 0.10126(10) 0.47582(10) 0.00348(9)
O3_4 O 0.1991(3) 0.4107(4) 0.0394(4)
C3_4 C 0.3459(5) 0.4097(5) 0.0184(6)
H1_4 H 0.3331 0.3781 0.0512
O5_4 O 0.0831(4) 0.5036(5) 0.1008(4)
Zn3_4 Zn 0.60108(9) 0.52437(8) 0.00162(9)
O10_4 O 0.3992(4) 0.9169(4) 0.0036(5)
O11_4 O 0.7043(5) 0.5023(4) 0.0349(5)
H4_4 H 0.5786 0.6840 0.0217
Zn5_4 Zn 0.49838(9) 0.39892(9) 0.02437(8)
O13_4 O 0.5893(4) 0.5394(4) 0.3009(3)
O14_4 O 0.5074(3) 0.4705(3) 0.3074(3)
N5_4 N 0.5744(5) 0.4975(5) 0.0887(5)
C9_4 C 0.5513(6) 0.4821(5) 0.1942(5)
C10_4 C 0.5437(7) 0.4996(6) 0.2676(6)
C11_4 C 0.5903(5) 0.5184(6) 0.1541(5)
H5_4 H 0.6219 0.5512 0.1669
N6_4 N 0.5303(3) 0.4483(3) 0.1057(3)
O15_4 O 0.4964(5) 0.6008(4) 0.4169(4)
O16_4 O 0.4651(5) 0.2957(5) 0.0023(4)
C12_4 C 0.5138(6) 0.4464(7) 0.1652(6)
H6_4 H 0.4783 0.4214 0.1840
O17_4 O 0.5966(6) 0.3937(6) 0.0233(6)
H16_4 H 0.723879 0.542635 0.0557209
H20_4 H 0.444279 0.276121 0.0426349
H21_4 H 0.615579 0.43835 0.0327849
H22_4 H 0.611776 0.361682 0.0577721
Zn1_4 Zn 0.47563(8) 0.50162(9) 0.89892(9)
O1_4 O 0.5431(4) 0.4569(4) 0.9569(4)
O4_4 O 0.1926(3) 0.4926(3) 0.9705(3)
N1_4 N 0.4113(5) 0.4256(5) 0.9975(5)
C1_4 C 0.3058(5) 0.4487(6) 0.9821(5)
C2_4 C 0.2324(6) 0.4563(7) 0.9996(6)
N2_4 N 0.3943(3) 0.4697(3) 0.9483(3)
O6_4 O 0.4977(4) 0.5349(5) 0.7957(5)
C4_4 C 0.3348(6) 0.4862(6) 0.9464(7)
H2_4 H 0.3160 0.5217 0.9214
O7_4 O 0.4767(6) 0.4034(6) 0.8937(6)
O8_4 O 0.4606(4) 0.8009(3) 0.9107(4)
O9_4 O 0.5295(3) 0.8074(3) 0.9926(3)
N3_4 N 0.5025(5) 0.5887(5) 0.9256(5)
C5_4 C 0.5179(5) 0.6942(5) 0.9487(6)
C6_4 C 0.5004(6) 0.7676(6) 0.9563(7)
C7_4 C 0.4816(6) 0.6541(5) 0.9097(5)
H3_4 H 0.4488 0.6669 0.8781
N4_4 N 0.5517(3) 0.6057(3) 0.9697(3)
C8_4 C 0.5536(7) 0.6652(6) 0.9862(6)
O12_4 O 0.6063(6) 0.5233(6) 0.9034(6)
H9_4 H 0.511078 0.495963 0.768338
H10_4 H 0.457365 0.555721 0.776121
H13_4 H 0.56165 0.532785 0.884421
H14_4 H 0.638318 0.557772 0.888224
H15_4 H 0.731662 0.488922 0.995963
H17_4 H 0.467215 0.384421 0.93835
H18_4 H 0.442228 0.388224 0.861682
H19_4 H 0.504037 0.268338 0.988922
H8_3 H 0.868615 0.607564 0.0265631
H8_4 H 0.368615 0.892436 0.973437
H8_5 H 0.0265631 0.868615 0.607564
H8_6 H 0.973437 0.368615 0.892436
loop_
_geom_bond_atom_site_label_1
_geom_bond_atom_site_label_2
_geom_bond_site_symmetry_1
_geom_bond_site_symmetry_2
C9 C10 1_555 1_555
C10 O14 1_555 1_555
C12 C9 1_555 1_555
N5 N6 1_555 1_555
N6 C12 1_555 1_555
O17 H21 1_555 1_555
O17 H22 1_555 1_555
C5 C6 1_555 1_555
C6 O9 1_555 1_555
N4 N3 1_555 1_555
C8 C5 1_555 1_555
N4 C8 1_555 1_555
O12 H13 1_555 1_555
O12 H14 1_555 1_555
O11 Zn3 1_555 1_555
Zn6 O13 1_555 1_555
H5 C11 1_555 1_555
O11 H16 1_555 1_555
C1 C2 1_555 1_555
C4 C1 1_555 1_555
O4 C2 1_555 1_555
N1 N2 1_555 1_555
N2 C4 1_555 1_555
O7 H17 1_555 1_555
O7 H18 1_555 1_555
O3 Zn2 1_555 1_555
H1 C3 1_555 1_555
O16 Zn5 1_555 1_555
O16 H20 1_555 1_555
O6 Zn1 1_555 1_555
Zn4 O8 1_555 1_555
H3 C7 1_555 1_555
O6 H10 1_555 1_555
O6_2 Zn1_2 1_555 1_555
Zn3_2 N4_2 1_555 1_555
Zn4_2 O8_2 1_555 1_555
O8_2 C6_2 1_555 1_555
O9_2 Zn4_2 1_555 1_555
N3_2 Zn1_2 1_555 1_555
C5_2 C6_2 1_555 1_555
C6_2 O9_2 1_555 1_555
C7_2 N3_2 1_555 1_555
H3_2 C7_2 1_555 1_555
N4_2 N3_2 1_555 1_555
O10_2 Zn4_2 1_555 1_555
O11_2 Zn3_2 1_555 1_555
C8_2 C5_2 1_555 1_555
H4_2 C8_2 1_555 1_555
O12_2 Zn3_2 1_555 1_555
Zn8 O13_2 1_555 1_555
H5_2 C11_2 1_555 1_555
O15_2 Zn8 1_555 1_555
O19_2 Zn4_2 1_555 1_555
C5_2 C7_2 1_555 1_555
N4_2 C8_2 1_555 1_555
O6_2 H10_2 1_555 1_555
O12_2 H13_2 1_555 1_555
O12_2 H14_2 1_555 1_555
O11_2 H16_2 1_555 1_555
O3_2 Zn2_2 1_555 1_555
O4_2 Zn2_2 1_555 1_555
N1_2 C3_2 1_555 1_555
C1_2 C2_2 1_555 1_555
C2_2 O3_2 1_555 1_555
C3_2 C1_2 1_555 1_555
H1_2 C3_2 1_555 1_555
C4_2 C1_2 1_555 1_555
Zn5_2 O1_2 1_555 1_555
C9_2 C10_2 1_555 1_555
C10_2 O14_2 1_555 1_555
N6_2 Zn5_2 1_555 1_555
O16_2 Zn5_2 1_555 1_555
C12_2 C9_2 1_555 1_555
H6_2 C12_2 1_555 1_555
O17_2 Zn5_2 1_555 1_555
O4_2 C2_2 1_555 1_555
N1_2 N2_2 1_555 1_555
N1_2 Zn5_2 1_555 1_555
N2_2 C4_2 1_555 1_555
N5_2 N6_2 1_555 1_555
N6_2 C12_2 1_555 1_555
O7_2 H17_2 1_555 1_555
O7_2 H18_2 1_555 1_555
O16_2 H19_2 1_555 1_555
O16_2 H20_2 1_555 1_555
O17_2 H21_2 1_555 1_555
O17_2 H22_2 1_555 1_555
Zn2_3 O19_2 1_555 1_555
O3_3 Zn2_3 1_555 1_555
O4_3 Zn2_3 1_555 1_555
N1_3 C3_3 1_555 1_555
C1_3 C2_3 1_555 1_555
C2_3 O3_3 1_555 1_555
C3_3 C1_3 1_555 1_555
H1_3 C3_3 1_555 1_555
N2_3 Zn1_3 1_555 1_555
O5_3 Zn2_3 1_555 1_555
O6_3 Zn1_3 1_555 1_555
C4_3 C1_3 1_555 1_555
H2_3 C4_3 1_555 1_555
O7_3 Zn1_3 1_555 1_555
Zn7_2 O8_3 1_555 1_555
H3_3 C7_3 1_555 1_555
O10_3 Zn7_2 1_555 1_555
O16_3 Zn5_3 1_555 1_555
Zn8_2 O19_2 1_555 1_555
O4_3 C2_3 1_555 1_555
N1_3 N2_3 1_555 1_555
N1_3 Zn5_3 1_555 1_555
N2_3 C4_3 1_555 1_555
O6_3 H10_3 1_555 1_555
O7_3 H17_3 1_555 1_555
O7_3 H18_3 1_555 1_555
O16_3 H20_3 1_555 1_555
O1_3 Zn3_3 1_555 1_555
Zn3_3 N4_3 1_555 1_555
C5_3 C6_3 1_555 1_555
C6_3 O9_3 1_555 1_555
N4_3 N3_3 1_555 1_555
O11_3 Zn3_3 1_555 1_555
C8_3 C5_3 1_555 1_555
H4_3 C8_3 1_555 1_555
O12_3 Zn3_3 1_555 1_555
Zn6_2 O13_3 1_555 1_555
O13_3 C10_3 1_555 1_555
O14_3 Zn6_2 1_555 1_555
N5_3 Zn3_3 1_555 1_555
C9_3 C10_3 1_555 1_555
C10_3 O14_3 1_555 1_555
C11_3 N5_3 1_555 1_555
H5_3 C11_3 1_555 1_555
C12_3 C9_3 1_555 1_555
N4_3 C8_3 1_555 1_555
N5_3 N6_3 1_555 1_555
C9_3 C11_3 1_555 1_555
N6_3 C12_3 1_555 1_555
O12_3 H13_3 1_555 1_555
O12_3 H14_3 1_555 1_555
O11_3 H15_3 1_555 1_555
O11_3 H16_3 1_555 1_555
O17_3 H21_3 1_555 1_555
O17_3 H22_3 1_555 1_555
O3_4 Zn2_4 1_555 1_555
H1_4 C3_4 1_555 1_555
O5_4 Zn2_4 1_555 1_555
O11_4 Zn3_4 1_555 1_555
Zn8_2 O13_4 1_555 1_555
O13_4 C10_4 1_555 1_555
O14_4 Zn8_2 1_555 1_555
N5_4 Zn3_4 1_555 1_555
C9_4 C10_4 1_555 1_555
C10_4 O14_4 1_555 1_555
C11_4 N5_4 1_555 1_555
H5_4 C11_4 1_555 1_555
N6_4 Zn5_4 1_555 1_555
O15_4 Zn8_2 1_555 1_555
O16_4 Zn5_4 1_555 1_555
C12_4 C9_4 1_555 1_555
H6_4 C12_4 1_555 1_555
O17_4 Zn5_4 1_555 1_555
N5_4 N6_4 1_555 1_555
C9_4 C11_4 1_555 1_555
N6_4 C12_4 1_555 1_555
O11_4 H16_4 1_555 1_555
O16_4 H20_4 1_555 1_555
O17_4 H21_4 1_555 1_555
O17_4 H22_4 1_555 1_555
Zn1_4 O1_4 1_555 1_555
C1_4 C2_4 1_555 1_555
N2_4 Zn1_4 1_555 1_555
O6_4 Zn1_4 1_555 1_555
C4_4 C1_4 1_555 1_555
H2_4 C4_4 1_555 1_555
O7_4 Zn1_4 1_555 1_555
Zn7 O8_4 1_555 1_555
O8_4 C6_4 1_555 1_555
O9_4 Zn7 1_555 1_555
N3_4 Zn1_4 1_555 1_555
C5_4 C6_4 1_555 1_555
C6_4 O9_4 1_555 1_555
C7_4 N3_4 1_555 1_555
H3_4 C7_4 1_555 1_555
N4_4 N3_4 1_555 1_555
C8_4 C5_4 1_555 1_555
O4_4 C2_4 1_555 1_555
N1_4 N2_4 1_555 1_555
N2_4 C4_4 1_555 1_555
C5_4 C7_4 1_555 1_555
N4_4 C8_4 1_555 1_555
O6_4 H9_4 1_555 1_555
O6_4 H10_4 1_555 1_555
O12_4 H13_4 1_555 1_555
O12_4 H14_4 1_555 1_555
O7_4 H17_4 1_555 1_555
O7_4 H18_4 1_555 1_555

#END
