
###############################################################################
#
# This file contains modified crystal structure data generated from the
# MOF subset of the Cambridge Structural Database (CSD) v543 
# hosted by the Cambridge Crystallographic Data Centre (CCDC).
#
# This work is licensed under the Creative Commons
# Attribution-NonCommercial-ShareAlike 4.0 International License.
# To view a copy of this license, visit
# http://creativecommons.org/licenses/by-nc-sa/4.0/
# or send a letter to
# Creative Commons, PO Box 1866, Mountain View, CA 94042, USA.
#
# CIF created using the CSD Python API on 29 September 2022
# The structure has been converted into the P1 space group
# The structure has a 3D framework
# The original CSD entry BUKWUC is in the triclinic crystal system
# The original CSD entry BUKWUC is in a Sohncke space group
# The framework has been calculated to contain at least 10.0% void space
# The void calculation uses a probe of radius 1.32A, grid spacing 0.4
#
###############################################################################

data_BUKWUC
_chemical_formula_moiety         '(C12 H16 O19 Tb2)n'
_symmetry_cell_setting           triclinic
_symmetry_space_group_name_H-M   'P 1'
_symmetry_Int_Tables_number      1
_space_group_name_Hall           'P 1'
loop_
_symmetry_equiv_pos_site_id
_symmetry_equiv_pos_as_xyz
1 x,y,z
_cell_length_a                   6.0130(3)
_cell_length_b                   7.3878(3)
_cell_length_c                   13.2837(5)
_cell_angle_alpha                102.251(4)
_cell_angle_beta                 101.786(4)
_cell_angle_gamma                90.505(4)
_cell_volume                     563.664
loop_
_atom_site_label
_atom_site_type_symbol
_atom_site_fract_x
_atom_site_fract_y
_atom_site_fract_z
_atom_site_U_iso_or_equiv
_atom_site_thermal_displace_type
Tb7 Tb 0.02147(8) 0.81596(7) 0.67871(5) 0.0099 Uani
O26 O 0.179(2) 0.0836(19) 0.6416(11) 0.0168 Uani
C9 C 0.156(3) 0.168(3) 0.5663(13) 0.0140 Uani
C10 C 0.339(3) 0.304(3) 0.5638(12) 0.0083 Uani
H5 H 0.479797 0.238869 0.560844 0.0100 Uiso
C11 C 0.377(3) 0.450(2) 0.6702(12) 0.0110 Uani
H6 H 0.460838 0.394216 0.726381 0.0130 Uiso
C12 C 0.511(3) 0.623(2) 0.6656(12) 0.0110 Uani
O8 O 0.012(2) 0.6462(19) 0.5079(10) 0.0185 Uani
O15 O 0.281(2) 0.3796(16) 0.4729(9) 0.0117 Uani
O16 O 0.165(2) 0.5069(16) 0.6951(10) 0.0105 Uani
O17 O 0.409(2) 0.7705(18) 0.6673(9) 0.0140 Uani
O18 O 0.719(2) 0.6093(17) 0.6653(10) 0.0146 Uani
O19 O 0.248(2) 0.3469(18) 0.2570(9) 0.0160 Uani
H11 H 0.204220 0.475514 0.479382 0.0310 Uiso
H12 H 0.160249 0.476555 0.753055 0.0310 Uiso
H13 H 0.257868 0.382626 0.205023 0.0310 Uiso
H14 H 0.366874 0.292662 0.278042 0.0310 Uiso
O21 O 0.245(2) 0.9988(19) 0.8357(10) 0.0182 Uani
O22 O 0.076(2) 0.7765(18) 0.8847(10) 0.0163 Uani
O25 O 0.282(2) 0.9867(17) 0.3438(9) 0.0151 Uani
O11 O 0.592(2) 0.1414(19) 0.3325(9) 0.0143 Uani
O20 O 0.767(2) 0.0258(19) 0.7497(10) 0.0196 Uani
H15 H 0.751319 0.121038 0.794450 0.0310 Uiso
Tb4 Tb 0.97849(7) 0.18296(6) 0.32126(5) 0.0090 Uani
C1 C 0.777(4) 0.066(3) 0.1039(16) 0.0127 Uani
H2 H 0.344575 0.102411 0.041340 0.0120 Uiso
C5 C 0.839(3) 0.611(2) 0.4318(13) 0.0139 Uani
C6 C 0.654(3) 0.755(3) 0.4357(14) 0.0130 Uani
H3 H 0.511744 0.691194 0.437724 0.0160 Uiso
C7 C 0.619(3) 0.823(2) 0.3325(12) 0.0077 Uani
H4 H 0.534602 0.724863 0.275305 0.0090 Uiso
C8 C 0.487(3) 0.997(2) 0.3377(12) 0.0090 Uani
O1 O 0.737(2) 0.2236(18) 0.1517(9) 0.0166 Uani
O7 O 0.815(2) 0.4765(17) 0.3567(9) 0.0097 Uani
O9 O 0.7154(19) 0.8939(16) 0.5280(8) 0.0102 Uani
O10 O 0.833(2) 0.8595(16) 0.3097(10) 0.0108 Uani
O13 O 0.976(2) 0.1451(16) 0.4925(9) 0.0129 Uani
H9 H 0.800192 0.990938 0.525016 0.0310 Uiso
H10 H 0.854228 0.776701 0.258669 0.0310 Uiso
H16 H 0.636473 0.971969 0.722506 0.0310 Uiso
C2 C 0.623(3) 0.969(3) 0.0005(13) 0.0130 Uani
C3 C 0.376(3) 0.973(3) 0.0139(13) 0.0100 Uani
O2 O 0.951(2) 0.9850(19) 0.1422(9) 0.0162 Uani
O4 O 0.349(2) 0.8691(18) 0.0886(9) 0.0150 Uani
H8 H 0.217446 0.910589 0.096220 0.0310 Uiso
C4 C 0.216(4) 0.905(3) 0.9038(17) 0.0149 Uani
O3 O 0.6746(19) 0.7845(17) 0.9645(9) 0.0149 Uani
H7 H 0.790055 0.770722 0.939295 0.0310 Uiso
H1 H 0.637965 0.038189 0.946840 0.0150 Uiso
loop_
_atom_site_aniso_label
_atom_site_aniso_U_11
_atom_site_aniso_U_22
_atom_site_aniso_U_33
_atom_site_aniso_U_23
_atom_site_aniso_U_13
_atom_site_aniso_U_12
Tb7 0.0058 0.0095 0.0143 0.0066 -0.0021 -0.0025
O26 0.014 0.013 0.024 0.01 -0.001 -0.003
C9 0.013 0.021 0.012 0.011 0.004 -0.001
C10 0.008 0.008 0.009 0.0026 0.0015 0.0004
C11 0.011 0.011 0.011 0.0029 0.0021 0.0001
C12 0.011 0.011 0.011 0.0027 0.0023 0.0005
O8 0.017 0.016 0.022 0.011 -0.004 0.002
O15 0.009 0.011 0.015 0.006 -0.001 -0.002
O16 0.011 0.011 0.014 0.009 0.006 0.003
O17 0.014 0.014 0.014 0.0033 0.0027 0.0002
O18 0.005 0.012 0.027 0.007 0.001 0.003
O19 0.016 0.017 0.016 0.007 0.002 0.002
O21 0.014 0.023 0.017 0.009 -0.003 -0.002
O22 0.003 0.021 0.022 0.003 -0.002 -0.002
O25 0.011 0.012 0.024 0.012 -0.001 0.005
O11 0.014 0.014 0.015 0.0037 0.0026 0.0008
O20 0.017 0.02 0.021 0.004 0.003 0
Tb4 0.0067 0.0086 0.0116 0.0062 -0.0022 -0.0003
C1 0.012 0.013 0.013 0.0028 0.0027 0.0006
C5 0.014 0.014 0.014 0.0037 0.0027 0.0007
C6 0.013 0.013 0.013 0.003 0.0025 0.0009
C7 0.008 0.007 0.008 0.0017 0.0012 0.0002
C8 0.009 0.009 0.009 0.0023 0.0015 0.0004
O1 0.017 0.013 0.018 0.008 -0.005 -0.001
O7 0.01 0.011 0.008 0.006 -0.002 -0.004
O9 0.006 0.015 0.008 0 0.001 -0.007
O10 0.005 0.003 0.024 0.004 0.001 0
O13 0.013 0.012 0.013 0.006 -0.002 -0.005
C2 0.013 0.013 0.013 0.0032 0.0026 0.0003
C3 0.01 0.01 0.01 0.0029 0.0017 0.0002
O2 0.01 0.025 0.013 0.009 -0.004 -0.005
O4 0.008 0.025 0.016 0.015 0.001 0.001
C4 0.015 0.015 0.015 0.0037 0.0032 0.0008
O3 0.006 0.017 0.02 0.001 0.002 -0.006
loop_
_geom_bond_atom_site_label_1
_geom_bond_atom_site_label_2
_geom_bond_site_symmetry_1
_geom_bond_site_symmetry_2
Tb7 O8 1_555 1_555
C9 C10 1_555 1_555
C10 H5 1_555 1_555
C11 C10 1_555 1_555
H6 C11 1_555 1_555
C12 C11 1_555 1_555
O26 C9 1_555 1_555
O16 Tb7 1_555 1_555
O17 Tb7 1_555 1_555
O18 C12 1_555 1_555
H11 O15 1_555 1_555
H12 O16 1_555 1_555
H13 O19 1_555 1_555
H14 O19 1_555 1_555
O21 Tb7 1_555 1_555
O22 Tb7 1_555 1_555
C10 O15 1_555 1_555
C11 O16 1_555 1_555
C12 O17 1_555 1_555
H15 O20 1_555 1_555
O11 Tb4 1_555 1_555
Tb4 O1 1_555 1_555
C5 C6 1_555 1_555
C6 H3 1_555 1_555
C7 C6 1_555 1_555
H4 C7 1_555 1_555
C8 C7 1_555 1_555
O1 C1 1_555 1_555
O7 Tb4 1_555 1_555
O10 C7 1_555 1_555
O25 C8 1_555 1_555
O13 Tb4 1_555 1_555
H9 O9 1_555 1_555
H10 O10 1_555 1_555
C5 O7 1_555 1_555
C6 O9 1_555 1_555
C3 C2 1_555 1_555
O4 C3 1_555 1_555
H8 O4 1_555 1_555
O21 C4 1_555 1_555
O22 C4 1_555 1_555
H7 O3 1_555 1_555

#END
