
###############################################################################
#
# This file contains modified crystal structure data generated from the
# MOF subset of the Cambridge Structural Database (CSD) v543 
# hosted by the Cambridge Crystallographic Data Centre (CCDC).
#
# This work is licensed under the Creative Commons
# Attribution-NonCommercial-ShareAlike 4.0 International License.
# To view a copy of this license, visit
# http://creativecommons.org/licenses/by-nc-sa/4.0/
# or send a letter to
# Creative Commons, PO Box 1866, Mountain View, CA 94042, USA.
#
# CIF created using the CSD Python API on 29 September 2022
# The structure has been converted into the P1 space group
# The structure has a 3D framework
# The original CSD entry BUKWOW is in the triclinic crystal system
# The original CSD entry BUKWOW is in a Sohncke space group
# The framework has been calculated to contain at least 10.0% void space
# The void calculation uses a probe of radius 1.32A, grid spacing 0.4
#
###############################################################################

data_BUKWOW
_chemical_formula_moiety         '(C12 H16 O19 Tb2)n'
_symmetry_cell_setting           triclinic
_symmetry_space_group_name_H-M   'P 1'
_symmetry_Int_Tables_number      1
_space_group_name_Hall           'P 1'
loop_
_symmetry_equiv_pos_site_id
_symmetry_equiv_pos_as_xyz
1 x,y,z
_cell_length_a                   6.0149(3)
_cell_length_b                   7.3897(5)
_cell_length_c                   13.2793(7)
_cell_angle_alpha                102.177(6)
_cell_angle_beta                 101.709(5)
_cell_angle_gamma                90.413(5)
_cell_volume                     564.184
loop_
_atom_site_label
_atom_site_type_symbol
_atom_site_fract_x
_atom_site_fract_y
_atom_site_fract_z
_atom_site_U_iso_or_equiv
_atom_site_thermal_displace_type
Tb4 Tb 0.02162(6) 0.81663(6) 0.67891(4) 0.0087 Uani
C4 C 0.782(4) 0.096(3) 0.0938(17) 0.0189 Uani
O3 O 0.3251(18) 0.2141(15) 0.0344(8) 0.0137 Uani
O5 O 0.753(2) 0.0041(16) 0.1634(8) 0.0146 Uani
O6 O 0.9242(19) 0.2255(17) 0.1137(9) 0.0178 Uani
H7 H 0.209945 0.229278 0.060705 0.0270 Uiso
Tb7 Tb 0.97807(7) 0.18364(6) 0.32150(4) 0.0094 Uani
C2 C 0.378(3) 0.028(2) 0.9993(11) 0.0089 Uani
C3 C 0.623(3) 0.027(2) 0.9854(12) 0.0109 Uani
O2 O 0.0480(19) 0.0124(16) 0.8573(8) 0.0140 Uani
O4 O 0.6504(18) 0.1276(16) 0.9096(8) 0.0144 Uani
H8 H 0.782554 0.089411 0.903780 0.0270 Uiso
O23 O 0.1661(18) 0.1388(15) 0.6903(9) 0.0096 Uani
C1 C 0.222(3) 0.930(3) 0.8959(14) 0.0070 Uani
H2 H 0.655819 0.897745 0.958888 0.0130 Uiso
C5 C 0.160(3) 0.391(2) 0.5684(12) 0.0118 Uani
C6 C 0.346(3) 0.245(3) 0.5632(13) 0.0141 Uani
H3 H 0.488058 0.307555 0.560442 0.0170 Uiso
C7 C 0.381(2) 0.178(2) 0.6673(10) 0.0067 Uani
H4 H 0.465517 0.276166 0.724393 0.0080 Uiso
C8 C 0.513(3) 0.001(2) 0.6621(11) 0.0100 Uani
O1 O 0.2648(19) 0.7764(16) 0.8490(8) 0.0163 Uani
O7 O 0.1839(18) 0.5232(15) 0.6431(9) 0.0109 Uani
O9 O 0.2841(18) 0.1050(14) 0.4720(8) 0.0099 Uani
O12 O 0.7174(18) 0.0126(15) 0.6555(8) 0.0120 Uani
O13 O 0.0250(19) 0.8551(15) 0.5070(8) 0.0134 Uani
H9 H 0.199808 0.009062 0.474984 0.0270 Uiso
H10 H 0.145772 0.223299 0.741331 0.0270 Uiso
H16 H 0.363527 0.028031 0.277494 0.0270 Uiso
O24 O 0.408(2) 0.8574(17) 0.6673(8) 0.0156 Uani
O27 O 0.2788(18) 0.3933(15) 0.3361(8) 0.0120 Uani
O20 O 0.2337(19) 0.9724(16) 0.2496(9) 0.0181 Uani
H15 H 0.248681 0.878962 0.205550 0.0270 Uiso
C9 C 0.845(3) 0.835(2) 0.4333(12) 0.0144 Uani
C10 C 0.659(3) 0.697(2) 0.4350(13) 0.0069 Uani
H5 H 0.518571 0.762108 0.437949 0.0080 Uiso
C11 C 0.622(3) 0.548(2) 0.3312(12) 0.0129 Uani
H6 H 0.534821 0.602024 0.275033 0.0150 Uiso
C12 C 0.489(3) 0.378(2) 0.3360(11) 0.0117 Uani
O8 O 0.9878(19) 0.3546(16) 0.4929(9) 0.0141 Uani
O14 O 0.8205(19) 0.9150(16) 0.3594(9) 0.0116 Uani
O15 O 0.7196(18) 0.6199(15) 0.5272(8) 0.0129 Uani
O16 O 0.8312(18) 0.4942(15) 0.3032(8) 0.0104 Uani
O17 O 0.5900(18) 0.2266(16) 0.3332(8) 0.0113 Uani
O19 O 0.7515(19) 0.6525(17) 0.7430(8) 0.0179 Uani
H11 H 0.795780 0.524486 0.520618 0.0270 Uiso
H12 H 0.839751 0.523445 0.246945 0.0270 Uiso
H13 H 0.742132 0.617374 0.794977 0.0270 Uiso
H14 H 0.633126 0.707338 0.721958 0.0270 Uiso
H1 H 0.365154 0.959307 0.053688 0.0110 Uiso
loop_
_atom_site_aniso_label
_atom_site_aniso_U_11
_atom_site_aniso_U_22
_atom_site_aniso_U_33
_atom_site_aniso_U_23
_atom_site_aniso_U_13
_atom_site_aniso_U_12
Tb4 0.006 0.0082 0.0119 0.0049 -0.0009 -0.0004
C4 0.013 0.021 0.024 0.004 0.008 0.002
O3 0.011 0.011 0.018 0.003 0.001 -0.002
O5 0.018 0.015 0.01 0.006 -0.002 -0.001
O6 0.007 0.023 0.021 0.004 -0.002 -0.003
Tb7 0.0059 0.0086 0.0133 0.0049 -0.0013 -0.0019
C2 0.009 0.009 0.009 0.0024 0.0018 0.0007
C3 0.011 0.011 0.011 0.0029 0.0022 0.0003
O2 0.009 0.021 0.01 0.004 -0.003 -0.002
O4 0.01 0.021 0.015 0.011 0.002 -0.001
O23 0.007 0.007 0.014 0.001 0.002 0.001
C1 0.007 0.007 0.007 0.0015 0.0015 0.0002
C5 0.011 0.01 0.017 0.008 0.004 -0.001
C6 0.012 0.015 0.014 0.004 -0.001 -0.004
C7 0.007 0.006 0.007 0.0018 0.001 0.0002
C8 0.01 0.01 0.01 0.0026 0.0014 0.0005
O1 0.012 0.02 0.016 0.01 -0.005 -0.005
O7 0.006 0.012 0.013 0.006 -0.005 0
O9 0.01 0.007 0.013 0.002 0.003 0
O12 0.007 0.014 0.016 0.008 0 0
O13 0.013 0.014 0.012 0.002 0.001 -0.005
O24 0.015 0.015 0.017 0.0042 0.0032 0.0006
O27 0.012 0.011 0.013 0.0026 0.0025 0.0004
O20 0.008 0.017 0.028 0.005 0.001 -0.003
C9 0.008 0.019 0.015 0.001 0.002 0.007
C10 0.007 0.007 0.007 0.0023 0.0013 -0.0001
C11 0.011 0.011 0.016 0.008 -0.004 -0.005
C12 0.007 0.019 0.009 0.008 -0.004 0
O8 0.009 0.016 0.018 0.01 -0.002 -0.001
O14 0.008 0.011 0.017 0.006 0.002 0
O15 0.01 0.012 0.016 0.006 -0.002 -0.001
O16 0.011 0.013 0.01 0.009 0.002 0.004
O17 0.011 0.011 0.012 0.0031 0.0023 0.0003
O19 0.011 0.025 0.021 0.013 0.003 -0.001
loop_
_geom_bond_atom_site_label_1
_geom_bond_atom_site_label_2
_geom_bond_site_symmetry_1
_geom_bond_site_symmetry_2
O5 C4 1_555 1_555
O6 C4 1_555 1_555
H7 O3 1_555 1_555
Tb7 O5 1_555 1_555
O6 Tb7 1_555 1_555
C3 C2 1_555 1_555
O4 C3 1_555 1_555
H8 O4 1_555 1_555
Tb4 O1 1_555 1_555
C5 C6 1_555 1_555
C6 H3 1_555 1_555
C7 C6 1_555 1_555
H4 C7 1_555 1_555
C8 C7 1_555 1_555
O1 C1 1_555 1_555
O7 Tb4 1_555 1_555
O23 C7 1_555 1_555
O12 C8 1_555 1_555
O13 Tb4 1_555 1_555
H9 O9 1_555 1_555
H10 O23 1_555 1_555
O24 Tb4 1_555 1_555
C5 O7 1_555 1_555
C6 O9 1_555 1_555
H15 O20 1_555 1_555
Tb7 O8 1_555 1_555
C9 C10 1_555 1_555
C10 H5 1_555 1_555
C11 C10 1_555 1_555
H6 C11 1_555 1_555
C12 C11 1_555 1_555
O14 C9 1_555 1_555
O16 Tb7 1_555 1_555
O17 Tb7 1_555 1_555
O27 C12 1_555 1_555
H11 O15 1_555 1_555
H12 O16 1_555 1_555
H13 O19 1_555 1_555
H14 O19 1_555 1_555
C10 O15 1_555 1_555
C11 O16 1_555 1_555
C12 O17 1_555 1_555

#END
