
###############################################################################
#
# This file contains modified crystal structure data generated from the
# MOF subset of the Cambridge Structural Database (CSD) v543 
# hosted by the Cambridge Crystallographic Data Centre (CCDC).
#
# This work is licensed under the Creative Commons
# Attribution-NonCommercial-ShareAlike 4.0 International License.
# To view a copy of this license, visit
# http://creativecommons.org/licenses/by-nc-sa/4.0/
# or send a letter to
# Creative Commons, PO Box 1866, Mountain View, CA 94042, USA.
#
# CIF created using the CSD Python API on 29 September 2022
# The structure has been converted into the P1 space group
# The structure has a 3D framework
# The original CSD entry BUKXOX is in the triclinic crystal system
# The original CSD entry BUKXOX is in a Sohncke space group
# The framework has been calculated to contain at least 10.0% void space
# The void calculation uses a probe of radius 1.32A, grid spacing 0.4
#
###############################################################################

data_BUKXOX
_chemical_formula_moiety         '(C12 H16 Dy2 O19)n'
_symmetry_cell_setting           triclinic
_symmetry_space_group_name_H-M   'P 1'
_symmetry_Int_Tables_number      1
_space_group_name_Hall           'P 1'
loop_
_symmetry_equiv_pos_site_id
_symmetry_equiv_pos_as_xyz
1 x,y,z
_cell_length_a                   5.9743(4)
_cell_length_b                   7.3542(5)
_cell_length_c                   13.1941(9)
_cell_angle_alpha                102.422(2)
_cell_angle_beta                 101.664(2)
_cell_angle_gamma                90.613(2)
_cell_volume                     553.547
loop_
_atom_site_label
_atom_site_type_symbol
_atom_site_fract_x
_atom_site_fract_y
_atom_site_fract_z
_atom_site_U_iso_or_equiv
_atom_site_thermal_displace_type
Dy4 Dy 0.02208(12) 0.81691(11) 0.67835(8) 0.0151 Uani
C4 C 0.779(5) 0.096(4) 0.094(2) 0.0195 Uani
O3 O 0.328(3) 0.217(3) 0.0343(13) 0.0235 Uani
O5 O 0.757(3) 0.007(3) 0.1652(13) 0.0244 Uani
O6 O 0.925(3) 0.228(2) 0.1151(14) 0.0238 Uani
H7 H 0.209945 0.229278 0.060705 0.0420 Uiso
Dy7 Dy 0.97745(14) 0.18302(12) 0.32240(9) 0.0161 Uani
C2 C 0.378(5) 0.030(3) 0.9991(18) 0.0193 Uani
C3 C 0.627(4) 0.027(3) 0.9866(18) 0.0149 Uani
O2 O 0.048(3) 0.012(2) 0.8561(12) 0.0201 Uani
O4 O 0.653(3) 0.130(3) 0.9103(13) 0.0209 Uani
H8 H 0.782554 0.089411 0.903780 0.0420 Uiso
O23 O 0.169(3) 0.139(2) 0.6900(13) 0.0171 Uani
C1 C 0.216(4) 0.934(3) 0.8950(18) 0.0139 Uani
H2 H 0.659862 0.897542 0.959899 0.0180 Uiso
C5 C 0.159(4) 0.388(4) 0.5670(17) 0.0203 Uani
C6 C 0.347(5) 0.249(4) 0.5629(19) 0.0209 Uani
H3 H 0.489613 0.312762 0.559855 0.0250 Uiso
C7 C 0.383(4) 0.177(3) 0.6667(16) 0.0153 Uani
H4 H 0.468262 0.275073 0.724850 0.0180 Uiso
C8 C 0.510(4) 0.001(3) 0.6630(17) 0.0169 Uani
O1 O 0.266(3) 0.775(2) 0.8469(13) 0.0234 Uani
O7 O 0.182(3) 0.526(2) 0.6429(13) 0.0189 Uani
O9 O 0.283(2) 0.105(2) 0.4717(12) 0.0145 Uani
O12 O 0.718(3) 0.012(2) 0.6555(12) 0.0194 Uani
O13 O 0.022(3) 0.852(2) 0.5070(12) 0.0190 Uani
H9 H 0.199808 0.009062 0.474984 0.0420 Uiso
H10 H 0.145772 0.223299 0.741331 0.0420 Uiso
H16 H 0.363527 0.028031 0.277494 0.0420 Uiso
O24 O 0.410(3) 0.856(2) 0.6677(13) 0.0197 Uani
O27 O 0.280(3) 0.388(2) 0.3360(13) 0.0210 Uani
O20 O 0.230(3) 0.975(2) 0.2512(14) 0.0217 Uani
H15 H 0.248681 0.878962 0.205550 0.0420 Uiso
C9 C 0.849(4) 0.830(3) 0.4337(17) 0.0149 Uani
C10 C 0.662(4) 0.693(3) 0.4355(18) 0.0165 Uani
H5 H 0.522079 0.759325 0.438520 0.0190 Uiso
C11 C 0.622(4) 0.547(3) 0.3313(17) 0.0183 Uani
H6 H 0.536837 0.603395 0.275137 0.0220 Uiso
C12 C 0.484(4) 0.374(4) 0.3345(17) 0.0207 Uani
O8 O 0.987(3) 0.354(2) 0.4922(13) 0.0212 Uani
O14 O 0.821(3) 0.919(2) 0.3592(13) 0.0170 Uani
O15 O 0.721(3) 0.622(2) 0.5280(12) 0.0166 Uani
O16 O 0.834(3) 0.492(2) 0.3047(13) 0.0183 Uani
O17 O 0.592(3) 0.226(2) 0.3330(13) 0.0182 Uani
O19 O 0.754(3) 0.654(3) 0.7414(13) 0.0250 Uani
H11 H 0.795780 0.524486 0.520618 0.0420 Uiso
H12 H 0.839751 0.523445 0.246945 0.0420 Uiso
H13 H 0.742132 0.617374 0.794977 0.0420 Uiso
H14 H 0.633126 0.707338 0.721958 0.0420 Uiso
H1 H 0.361873 0.962037 0.053749 0.0230 Uiso
loop_
_atom_site_aniso_label
_atom_site_aniso_U_11
_atom_site_aniso_U_22
_atom_site_aniso_U_33
_atom_site_aniso_U_23
_atom_site_aniso_U_13
_atom_site_aniso_U_12
Dy4 0.0158 0.014 0.0156 0.0043 0.0025 0.0014
C4 0.017 0.019 0.029 0.011 0.013 0.01
O3 0.024 0.023 0.02 -0.002 0.004 -0.003
O5 0.023 0.029 0.02 0.006 0.001 0.006
O6 0.019 0.016 0.034 0.001 0.005 0
Dy7 0.0159 0.0142 0.0179 0.0037 0.0025 0
C2 0.032 0.012 0.015 0.007 0.004 -0.009
C3 0.017 0.011 0.02 0.008 0.007 -0.003
O2 0.023 0.018 0.017 0 0.003 0.002
O4 0.022 0.024 0.021 0.011 0.008 0.007
O23 0.015 0.006 0.029 0 0.006 -0.005
C1 0.021 0.01 0.012 0.004 0.005 -0.004
C5 0.025 0.028 0.012 0.009 0.008 0.011
C6 0.028 0.02 0.016 0.007 0.004 0.006
C7 0.014 0.016 0.016 0.003 0.004 0
C8 0.012 0.019 0.017 0.003 -0.002 0
O1 0.028 0.016 0.024 0 0.005 0.002
O7 0.027 0.009 0.02 0.004 0.002 0.004
O9 0.008 0.011 0.022 0.004 -0.003 -0.003
O12 0.018 0.021 0.022 0.011 0.004 0.004
O13 0.019 0.023 0.014 0.005 0 -0.001
O24 0.025 0.008 0.028 0.01 0.004 -0.006
O27 0.013 0.022 0.026 0.004 0.001 -0.004
O20 0.012 0.018 0.031 -0.001 0.002 0.002
C9 0.015 0.01 0.02 0.001 0.007 -0.005
C10 0.023 0.011 0.017 0.004 0.007 -0.002
C11 0.028 0.013 0.013 0.003 0.002 0.001
C12 0.026 0.022 0.014 0.001 0.007 0.004
O8 0.033 0.012 0.018 0.001 0.006 0.011
O14 0.016 0.01 0.024 0.005 0.001 -0.008
O15 0.02 0.014 0.019 0.008 0.007 0.002
O16 0.021 0.011 0.025 0.007 0.006 0.009
O17 0.012 0.011 0.031 0.006 0.002 -0.001
O19 0.022 0.034 0.025 0.019 0.005 0.005
loop_
_geom_bond_atom_site_label_1
_geom_bond_atom_site_label_2
_geom_bond_site_symmetry_1
_geom_bond_site_symmetry_2
O5 C4 1_555 1_555
O6 C4 1_555 1_555
H7 O3 1_555 1_555
Dy7 O5 1_555 1_555
O6 Dy7 1_555 1_555
C3 C2 1_555 1_555
O4 C3 1_555 1_555
H8 O4 1_555 1_555
Dy4 O1 1_555 1_555
C5 C6 1_555 1_555
C6 H3 1_555 1_555
C7 C6 1_555 1_555
H4 C7 1_555 1_555
C8 C7 1_555 1_555
O1 C1 1_555 1_555
O7 Dy4 1_555 1_555
O23 C7 1_555 1_555
O12 C8 1_555 1_555
O13 Dy4 1_555 1_555
H9 O9 1_555 1_555
H10 O23 1_555 1_555
O24 Dy4 1_555 1_555
C5 O7 1_555 1_555
C6 O9 1_555 1_555
H15 O20 1_555 1_555
Dy7 O8 1_555 1_555
C9 C10 1_555 1_555
C10 H5 1_555 1_555
C11 C10 1_555 1_555
H6 C11 1_555 1_555
C12 C11 1_555 1_555
O14 C9 1_555 1_555
O16 Dy7 1_555 1_555
O17 Dy7 1_555 1_555
O27 C12 1_555 1_555
H11 O15 1_555 1_555
H12 O16 1_555 1_555
H13 O19 1_555 1_555
H14 O19 1_555 1_555
C10 O15 1_555 1_555
C11 O16 1_555 1_555
C12 O17 1_555 1_555

#END
