
###############################################################################
#
# This file contains modified crystal structure data generated from the
# MOF subset of the Cambridge Structural Database (CSD) v543 
# hosted by the Cambridge Crystallographic Data Centre (CCDC).
#
# This work is licensed under the Creative Commons
# Attribution-NonCommercial-ShareAlike 4.0 International License.
# To view a copy of this license, visit
# http://creativecommons.org/licenses/by-nc-sa/4.0/
# or send a letter to
# Creative Commons, PO Box 1866, Mountain View, CA 94042, USA.
#
# CIF created using the CSD Python API on 29 September 2022
# The structure has been converted into the P1 space group
# The structure has a 3D framework
# The original CSD entry BUKXUD is in the triclinic crystal system
# The original CSD entry BUKXUD is in a Sohncke space group
# The framework has been calculated to contain at least 10.0% void space
# The void calculation uses a probe of radius 1.32A, grid spacing 0.4
#
###############################################################################

data_BUKXUD
_chemical_formula_moiety         '(C12 H16 Dy2 O20)n'
_symmetry_cell_setting           triclinic
_symmetry_space_group_name_H-M   'P 1'
_symmetry_Int_Tables_number      1
_space_group_name_Hall           'P 1'
loop_
_symmetry_equiv_pos_site_id
_symmetry_equiv_pos_as_xyz
1 x,y,z
_cell_length_a                   5.9997(2)
_cell_length_b                   7.3674(3)
_cell_length_c                   13.2962(5)
_cell_angle_alpha                102.281(4)
_cell_angle_beta                 101.870(3)
_cell_angle_gamma                90.344(3)
_cell_volume                     561.231
loop_
_atom_site_label
_atom_site_type_symbol
_atom_site_fract_x
_atom_site_fract_y
_atom_site_fract_z
_atom_site_U_iso_or_equiv
_atom_site_thermal_displace_type
Dy7 Dy 0.02282(14) 0.81694(12) 0.67755(8) 0.0130 Uani
O26 O 0.181(3) 0.085(2) 0.6424(13) 0.0145 Uani
C9 C 0.150(5) 0.166(3) 0.5675(17) 0.0163 Uani
C10 C 0.340(4) 0.309(3) 0.5651(17) 0.0130 Uani
H5 H 0.480750 0.243409 0.562542 0.0160 Uiso
C11 C 0.377(4) 0.452(4) 0.6685(17) 0.0156 Uani
H6 H 0.463935 0.395513 0.723979 0.0190 Uiso
C12 C 0.515(5) 0.626(4) 0.6634(19) 0.0158 Uani
O8 O 0.018(4) 0.645(3) 0.5085(14) 0.0183 Uani
O15 O 0.279(3) 0.377(3) 0.4724(12) 0.0126 Uani
O16 O 0.166(3) 0.509(2) 0.6966(12) 0.0152 Uani
O17 O 0.409(3) 0.774(3) 0.6667(14) 0.0218 Uani
O18 O 0.719(3) 0.611(2) 0.6633(13) 0.0186 Uani
O19 O 0.246(3) 0.346(3) 0.2586(14) 0.0242 Uani
H11 H 0.204220 0.475514 0.479382 0.0280 Uiso
H12 H 0.160249 0.476555 0.753055 0.0280 Uiso
H13 H 0.257868 0.382626 0.205023 0.0280 Uiso
H14 H 0.366874 0.292662 0.278042 0.0280 Uiso
O21 O 0.250(4) 0.991(3) 0.8382(14) 0.0249 Uani
O22 O 0.073(4) 0.770(3) 0.8873(16) 0.0239 Uani
O25 O 0.277(3) 0.991(3) 0.3439(13) 0.0199 Uani
C8 C 0.490(4) 0.001(4) 0.3369(19) 0.0154 Uani
O11 O 0.589(3) 0.144(3) 0.3335(14) 0.0201 Uani
O20 O 0.771(3) 0.027(3) 0.7489(14) 0.0197 Uani
H15 H 0.751319 0.121038 0.794450 0.0280 Uiso
Dy4 Dy 0.97724(13) 0.18249(11) 0.32187(8) 0.0133 Uani
C1 C 0.775(5) 0.065(4) 0.1068(19) 0.0147 Uani
H2 H 0.339787 0.106172 0.042137 0.0160 Uiso
C5 C 0.844(4) 0.613(3) 0.4324(17) 0.0130 Uani
C6 C 0.650(4) 0.750(3) 0.4362(17) 0.0109 Uani
H3 H 0.509559 0.685477 0.439209 0.0140 Uiso
C7 C 0.617(4) 0.823(4) 0.3332(17) 0.0156 Uani
H4 H 0.530395 0.726629 0.275494 0.0190 Uiso
O1 O 0.727(3) 0.223(3) 0.1526(13) 0.0201 Uani
O7 O 0.820(3) 0.472(3) 0.3568(13) 0.0188 Uani
O9 O 0.719(3) 0.895(3) 0.5282(12) 0.0122 Uani
O10 O 0.834(3) 0.857(2) 0.3103(12) 0.0148 Uani
O13 O 0.975(4) 0.149(3) 0.4929(13) 0.0205 Uani
H9 H 0.800192 0.990938 0.525016 0.0280 Uiso
H10 H 0.854228 0.776701 0.258669 0.0280 Uiso
H16 H 0.636473 0.971969 0.722506 0.0280 Uiso
C2 C 0.629(4) 0.969(3) 0.0025(18) 0.0153 Uani
C3 C 0.374(4) 0.977(3) 0.0157(18) 0.0129 Uani
O2 O 0.952(4) 0.983(3) 0.1442(15) 0.0174 Uani
O4 O 0.348(4) 0.869(3) 0.0899(13) 0.0218 Uani
H8 H 0.217446 0.910589 0.096220 0.0280 Uiso
C4 C 0.220(5) 0.901(4) 0.905(2) 0.0168 Uani
O3 O 0.669(3) 0.786(2) 0.9663(14) 0.0190 Uani
H7 H 0.790055 0.770722 0.939295 0.0280 Uiso
H1 H 0.647359 0.038596 0.949463 0.0190 Uiso
loop_
_atom_site_aniso_label
_atom_site_aniso_U_11
_atom_site_aniso_U_22
_atom_site_aniso_U_33
_atom_site_aniso_U_23
_atom_site_aniso_U_13
_atom_site_aniso_U_12
Dy7 0.0113 0.0154 0.0107 -0.0015 0.0035 0.001
O26 0.01 0.011 0.02 -0.002 0.003 0
C9 0.028 0.013 0.009 0.004 0.005 0.001
C10 0.015 0.012 0.009 -0.005 0.003 0.003
C11 0.015 0.025 0.004 0 -0.001 0.009
C12 0.015 0.019 0.016 0.004 0.009 -0.009
O8 0.019 0.017 0.016 -0.006 0.007 0.004
O15 0.013 0.02 0.004 0.002 0.001 -0.003
O16 0.023 0.013 0.01 0 0.007 -0.002
O17 0.007 0.028 0.027 -0.001 0.003 -0.005
O18 0.018 0.019 0.019 0.0039 0.0044 0.0009
O19 0.006 0.046 0.023 0.013 0.003 0.008
O21 0.042 0.017 0.013 0.001 0.002 0.005
O22 0.016 0.026 0.025 -0.008 0.008 0.001
O25 0.024 0.02 0.016 0.002 0.007 -0.006
C8 0.007 0.026 0.012 0 0.004 -0.007
O11 0.014 0.026 0.018 -0.001 0.004 0
O20 0.019 0.02 0.02 0.002 0.006 0.002
Dy4 0.0124 0.0169 0.0089 -0.0017 0.0029 0.0019
C1 0.014 0.015 0.015 0.0031 0.0032 0.0009
C5 0.013 0.013 0.013 0.0025 0.0028 0.0009
C6 0.011 0.011 0.011 0.0029 0.0022 0.0005
C7 0.01 0.025 0.011 0.005 -0.001 0.004
O1 0.02 0.026 0.009 -0.005 0 -0.002
O7 0.023 0.023 0.006 -0.002 -0.001 -0.008
O9 0.006 0.02 0.009 0 0.001 0.001
O10 0.014 0.015 0.014 -0.004 0.007 -0.003
O13 0.016 0.034 0.011 0.006 0.001 -0.001
C2 0.014 0.016 0.016 0.001 0.006 -0.002
C3 0.011 0.013 0.012 -0.002 0.001 0.006
O2 0.017 0.017 0.018 0.0032 0.0038 0.0014
O4 0.024 0.029 0.013 0.005 0.005 0
C4 0.011 0.015 0.024 0.001 0.006 0.001
O3 0.018 0.016 0.019 -0.008 0.007 0.002
loop_
_geom_bond_atom_site_label_1
_geom_bond_atom_site_label_2
_geom_bond_site_symmetry_1
_geom_bond_site_symmetry_2
Dy7 O8 1_555 1_555
C9 C10 1_555 1_555
C10 H5 1_555 1_555
C11 C10 1_555 1_555
H6 C11 1_555 1_555
C12 C11 1_555 1_555
O26 C9 1_555 1_555
O16 Dy7 1_555 1_555
O17 Dy7 1_555 1_555
O18 C12 1_555 1_555
H11 O15 1_555 1_555
H12 O16 1_555 1_555
H13 O19 1_555 1_555
H14 O19 1_555 1_555
O21 Dy7 1_555 1_555
O22 Dy7 1_555 1_555
C10 O15 1_555 1_555
C11 O16 1_555 1_555
C12 O17 1_555 1_555
O11 C8 1_555 1_555
H15 O20 1_555 1_555
O11 Dy4 1_555 1_555
Dy4 O1 1_555 1_555
C5 C6 1_555 1_555
C6 H3 1_555 1_555
C7 C6 1_555 1_555
H4 C7 1_555 1_555
O1 C1 1_555 1_555
O7 Dy4 1_555 1_555
O10 C7 1_555 1_555
O13 Dy4 1_555 1_555
H9 O9 1_555 1_555
H10 O10 1_555 1_555
C5 O7 1_555 1_555
C6 O9 1_555 1_555
C3 C2 1_555 1_555
O4 C3 1_555 1_555
H8 O4 1_555 1_555
O21 C4 1_555 1_555
O22 C4 1_555 1_555
H7 O3 1_555 1_555

#END
