
###############################################################################
#
# This file contains modified crystal structure data generated from the
# MOF subset of the Cambridge Structural Database (CSD) v543 
# hosted by the Cambridge Crystallographic Data Centre (CCDC).
#
# This work is licensed under the Creative Commons
# Attribution-NonCommercial-ShareAlike 4.0 International License.
# To view a copy of this license, visit
# http://creativecommons.org/licenses/by-nc-sa/4.0/
# or send a letter to
# Creative Commons, PO Box 1866, Mountain View, CA 94042, USA.
#
# CIF created using the CSD Python API on 29 September 2022
# The structure has been converted into the P1 space group
# The structure has a 3D framework
# The original CSD entry BUKYAJ is in the monoclinic crystal system
# The framework has been calculated to contain at least 10.0% void space
# The void calculation uses a probe of radius 1.32A, grid spacing 0.4
#
###############################################################################

data_BUKYAJ
_chemical_formula_moiety         '(C28 H32 Li4 N4 O7)n'
_symmetry_cell_setting           triclinic
_symmetry_space_group_name_H-M   'P 1'
_symmetry_Int_Tables_number      1
_space_group_name_Hall           'P 1'
loop_
_symmetry_equiv_pos_site_id
_symmetry_equiv_pos_as_xyz
1 x,y,z
_cell_length_a                   7.1555(2)
_cell_length_b                   12.4238(3)
_cell_length_c                   11.7575(3)
_cell_angle_alpha                90
_cell_angle_beta                 91.7820(10)
_cell_angle_gamma                90
_cell_volume                     1044.72
loop_
_atom_site_label
_atom_site_type_symbol
_atom_site_fract_x
_atom_site_fract_y
_atom_site_fract_z
C6 C 0.0165(3) 0.08898(19) 0.4304(2)
H6 H 0.1267 0.0708 0.3885
C9 C 0.0655(4) 0.09212(18) 0.5546(2)
H12 H 0.1639 0.1445 0.5690
H7 H 0.0430 0.8858 0.4037
O3 O 0.1267(2) 0.98844(12) 0.59341(13)
H9 H 0.0260 0.8405 0.5944
Li4 Li 0.3970(5) 0.9475(2) 0.5728(2)
O1 O 0.5313(2) 0.07955(10) 0.57876(11)
C1 C 0.5421(3) 0.15726(14) 0.65226(15)
N1 N 0.5675(3) 0.32677(14) 0.81497(15)
C2 C 0.4508(3) 0.15355(17) 0.75644(17)
H1 H 0.3790 0.0938 0.7742
C3 C 0.6448(3) 0.25154(15) 0.63423(16)
H2 H 0.7070 0.2606 0.5666
C4 C 0.6538(3) 0.33004(17) 0.71541(18)
H3 H 0.7254 0.3906 0.7005
C5 C 0.4671(3) 0.23741(18) 0.83185(17)
H4 H 0.4040 0.2319 0.8996
Li1 Li 0.6030(5) 0.0525(2) 0.4272(2)
O2 O 0.8733(2) 0.01156(12) 0.40659(13)
H5 H 0.9740 0.1595 0.4056
H11 H 0.9570 0.1142 0.5963
N4 N 0.5675(3) 0.17323(14) 0.31497(15)
Li5 Li 0.6030(5) 0.4475(2) 0.9272(2)
C7 C 0.9345(4) 0.90788(18) 0.4454(2)
H8 H 0.8361 0.8555 0.4310
C8 C 0.9835(3) 0.91102(19) 0.5696(2)
H10 H 0.8733 0.9292 0.6115
O4 O 0.4687(2) 0.92045(10) 0.42124(11)
C10 C 0.4579(3) 0.84274(14) 0.34774(15)
N2 N 0.4325(3) 0.67323(14) 0.18503(15)
C11 C 0.5492(3) 0.84645(17) 0.24356(17)
H13 H 0.6210 0.9062 0.2258
C12 C 0.3552(3) 0.74846(15) 0.36577(16)
H14 H 0.2930 0.7394 0.4334
C13 C 0.3462(3) 0.66996(17) 0.28459(18)
H15 H 0.2746 0.6094 0.2995
C14 C 0.5329(3) 0.76259(18) 0.16815(17)
H16 H 0.5960 0.7681 0.1004
N3 N 0.4325(3) 0.82677(14) 0.68503(15)
Li3 Li 0.3970(5) 0.5525(2) 0.0728(2)
O2_2 O 0.1267(2) 0.51156(12) 0.09341(13)
H5_2 H 0.0260 0.6595 0.0944
C7_2 C 0.0655(4) 0.40788(18) 0.0546(2)
H8_2 H 0.1639 0.3555 0.0690
O4_2 O 0.5313(2) 0.42045(10) 0.07876(11)
C10_2 C 0.5421(3) 0.34274(14) 0.15226(15)
C11_2 C 0.4508(3) 0.34645(17) 0.25644(17)
H13_2 H 0.3790 0.4062 0.2742
C12_2 C 0.6448(3) 0.24846(15) 0.13423(16)
H14_2 H 0.7070 0.2394 0.0666
C13_2 C 0.6538(3) 0.16996(17) 0.21541(18)
H15_2 H 0.7254 0.1094 0.2005
C14_2 C 0.4671(3) 0.26259(18) 0.33185(17)
H16_2 H 0.4040 0.2681 0.3996
O1_2 O 0.4687(2) 0.57955(10) 0.92124(11)
C1_2 C 0.4579(3) 0.65726(14) 0.84774(15)
C2_2 C 0.5492(3) 0.65355(17) 0.74356(17)
H1_2 H 0.6210 0.5938 0.7258
C3_2 C 0.3552(3) 0.75154(15) 0.86577(16)
H2_2 H 0.2930 0.7606 0.9334
C4_2 C 0.3462(3) 0.83004(17) 0.78459(18)
H3_2 H 0.2746 0.8906 0.7995
C5_2 C 0.5329(3) 0.73741(18) 0.66815(17)
H4_2 H 0.5960 0.7319 0.6004
C8_2 C 0.0165(3) 0.41102(19) 0.9304(2)
H10_2 H 0.1267 0.4292 0.8885
H11_2 H 0.0430 0.6142 0.9037
O5 O 0.8733(2) 0.48844(12) 0.90659(13)
C6_2 C 0.9835(3) 0.58898(19) 0.0696(2)
H6_2 H 0.8733 0.5708 0.1115
H7_2 H 0.9570 0.3858 0.0963
H9_2 H 0.9740 0.3405 0.9056
C9_2 C 0.9345(4) 0.59212(18) 0.9454(2)
H12_2 H 0.8361 0.6445 0.9310
loop_
_geom_bond_atom_site_label_1
_geom_bond_atom_site_label_2
_geom_bond_site_symmetry_1
_geom_bond_site_symmetry_2
H6 C6 1_555 1_555
C9 C6 1_555 1_555
H12 C9 1_555 1_555
Li4 O3 1_555 1_555
O1 C1 1_555 1_555
C1 C2 1_555 1_555
N1 C4 1_555 1_555
C2 H1 1_555 1_555
C3 C1 1_555 1_555
H2 C3 1_555 1_555
C4 C3 1_555 1_555
H3 C4 1_555 1_555
C5 N1 1_555 1_555
H4 C5 1_555 1_555
Li1 O1 1_555 1_555
O2 Li1 1_555 1_555
N4 Li1 1_555 1_555
Li5 N1 1_555 1_555
C2 C5 1_555 1_555
H8 C7 1_555 1_555
C8 C7 1_555 1_555
H10 C8 1_555 1_555
C10 O4 1_555 1_555
N2 C13 1_555 1_555
C11 C10 1_555 1_555
H13 C11 1_555 1_555
C12 C10 1_555 1_555
H14 C12 1_555 1_555
C13 C12 1_555 1_555
H15 C13 1_555 1_555
C14 N2 1_555 1_555
H16 C14 1_555 1_555
N3 Li4 1_555 1_555
Li3 N2 1_555 1_555
O4 Li4 1_555 1_555
C11 C14 1_555 1_555
O2_2 Li3 1_555 1_555
C7_2 O2_2 1_555 1_555
H8_2 C7_2 1_555 1_555
O4_2 Li3 1_555 1_555
C10_2 O4_2 1_555 1_555
N4 C13_2 1_555 1_555
C11_2 C10_2 1_555 1_555
H13_2 C11_2 1_555 1_555
C12_2 C10_2 1_555 1_555
H14_2 C12_2 1_555 1_555
C13_2 C12_2 1_555 1_555
H15_2 C13_2 1_555 1_555
C14_2 N4 1_555 1_555
H16_2 C14_2 1_555 1_555
C11_2 C14_2 1_555 1_555
O1_2 C1_2 1_555 1_555
C1_2 C2_2 1_555 1_555
N3 C4_2 1_555 1_555
C2_2 H1_2 1_555 1_555
C3_2 C1_2 1_555 1_555
H2_2 C3_2 1_555 1_555
C4_2 C3_2 1_555 1_555
H3_2 C4_2 1_555 1_555
C5_2 N3 1_555 1_555
H4_2 C5_2 1_555 1_555
H10_2 C8_2 1_555 1_555
Li5 O1_2 1_555 1_555
O5 Li5 1_555 1_555
C2_2 C5_2 1_555 1_555
H6_2 C6_2 1_555 1_555
H12_2 C9_2 1_555 1_555
O5 C9_2 1_555 1_555

#END
