
###############################################################################
#
# This file contains modified crystal structure data generated from the
# MOF subset of the Cambridge Structural Database (CSD) v543 
# hosted by the Cambridge Crystallographic Data Centre (CCDC).
#
# This work is licensed under the Creative Commons
# Attribution-NonCommercial-ShareAlike 4.0 International License.
# To view a copy of this license, visit
# http://creativecommons.org/licenses/by-nc-sa/4.0/
# or send a letter to
# Creative Commons, PO Box 1866, Mountain View, CA 94042, USA.
#
# CIF created using the CSD Python API on 29 September 2022
# The structure has been converted into the P1 space group
# The structure has a 3D framework
# The original CSD entry BUKYAK is in the triclinic crystal system
# The original CSD entry BUKYAK is in a Sohncke space group
# The framework has been calculated to contain at least 10.0% void space
# The void calculation uses a probe of radius 1.32A, grid spacing 0.4
#
###############################################################################

data_BUKYAK
_chemical_formula_moiety         '(C12 H16 Ho2 O19)n'
_symmetry_cell_setting           triclinic
_symmetry_space_group_name_H-M   'P 1'
_symmetry_Int_Tables_number      1
_space_group_name_Hall           'P 1'
loop_
_symmetry_equiv_pos_site_id
_symmetry_equiv_pos_as_xyz
1 x,y,z
_cell_length_a                   5.9870(4)
_cell_length_b                   7.3670(5)
_cell_length_c                   13.2590(9)
_cell_angle_alpha                102.346(2)
_cell_angle_beta                 101.822(2)
_cell_angle_gamma                90.365(2)
_cell_volume                     558.392
loop_
_atom_site_label
_atom_site_type_symbol
_atom_site_fract_x
_atom_site_fract_y
_atom_site_fract_z
_atom_site_U_iso_or_equiv
_atom_site_thermal_displace_type
Ho4 Ho 0.02241(7) 0.81739(6) 0.67845(5) 0.0035 Uani
C4 C 0.785(3) 0.100(3) 0.0961(15) 0.0080 Uani
O3 O 0.3231(18) 0.2182(15) 0.0341(8) 0.0078 Uani
O5 O 0.754(2) 0.0077(16) 0.1646(9) 0.0125 Uani
O6 O 0.9253(18) 0.2290(16) 0.1148(9) 0.0102 Uani
H7 H 0.205044 0.230559 0.060734 0.0250 Uiso
Ho7 Ho 0.97674(8) 0.18352(7) 0.32249(5) 0.0041 Uani
C2 C 0.377(3) 0.028(2) 0.9989(12) 0.0041 Uani
C3 C 0.626(3) 0.027(2) 0.9858(12) 0.0070 Uani
O2 O 0.0455(18) 0.0133(15) 0.8551(8) 0.0064 Uani
O4 O 0.650(2) 0.1326(16) 0.9108(8) 0.0092 Uani
H8 H 0.781856 0.108674 0.896993 0.0250 Uiso
O23 O 0.1657(18) 0.1409(15) 0.6899(10) 0.0057 Uani
C1 C 0.221(3) 0.936(2) 0.8948(13) 0.0023 Uani
H2 H 0.661049 0.898217 0.958797 0.0080 Uiso
C5 C 0.158(3) 0.389(2) 0.5678(12) 0.0075 Uani
C6 C 0.346(3) 0.247(2) 0.5639(12) 0.0040 Uani
H3 H 0.488614 0.311509 0.561542 0.0050 Uiso
C7 C 0.381(2) 0.1774(19) 0.6668(11) 0.0053 Uani
H4 H 0.465912 0.275349 0.724373 0.0060 Uiso
C8 C 0.515(2) 0.0017(19) 0.6627(11) 0.0047 Uani
O1 O 0.2656(19) 0.7769(15) 0.8470(8) 0.0089 Uani
O8 O 0.1832(19) 0.5261(15) 0.6432(10) 0.0076 Uani
O9 O 0.2830(19) 0.1043(15) 0.4710(8) 0.0073 Uani
O12 O 0.7190(18) 0.0135(14) 0.6553(8) 0.0060 Uani
O13 O 0.0226(18) 0.8513(14) 0.5073(8) 0.0058 Uani
H9 H 0.209316 0.015610 0.483677 0.0250 Uiso
H10 H 0.177068 0.179585 0.756820 0.0250 Uiso
H16 H 0.361306 0.026318 0.262713 0.0250 Uiso
O24 O 0.409(2) 0.8557(17) 0.6682(9) 0.0066 Uani
O27 O 0.2781(19) 0.3882(15) 0.3360(9) 0.0081 Uani
O20 O 0.2276(19) 0.9757(15) 0.2504(9) 0.0102 Uani
H15 H 0.214447 0.900674 0.190584 0.0250 Uiso
C9 C 0.849(2) 0.8328(19) 0.4342(11) 0.0030 Uani
C10 C 0.660(3) 0.695(2) 0.4351(12) 0.0040 Uani
H5 H 0.519825 0.761162 0.437757 0.0050 Uiso
C11 C 0.621(2) 0.547(2) 0.3309(11) 0.0056 Uani
H6 H 0.535993 0.602652 0.274710 0.0070 Uiso
C12 C 0.485(2) 0.374(2) 0.3338(11) 0.0061 Uani
O7 O 0.982(2) 0.3493(19) 0.4930(9) 0.0157 Uani
O14 O 0.8226(19) 0.9177(16) 0.3598(10) 0.0076 Uani
O15 O 0.7195(17) 0.6204(14) 0.5283(8) 0.0040 Uani
O16 O 0.8354(19) 0.4907(14) 0.3038(9) 0.0066 Uani
O17 O 0.5902(19) 0.2273(18) 0.3328(9) 0.0094 Uani
O19 O 0.7574(19) 0.6553(16) 0.7425(9) 0.0101 Uani
H11 H 0.795780 0.524486 0.520618 0.0250 Uiso
H12 H 0.839751 0.523445 0.246945 0.0250 Uiso
H13 H 0.765569 0.640855 0.805056 0.0250 Uiso
H14 H 0.623531 0.690512 0.723975 0.0250 Uiso
H1 H 0.361637 0.958752 0.052488 0.0040 Uiso
loop_
_atom_site_aniso_label
_atom_site_aniso_U_11
_atom_site_aniso_U_22
_atom_site_aniso_U_33
_atom_site_aniso_U_23
_atom_site_aniso_U_13
_atom_site_aniso_U_12
Ho4 0.0044 0.0043 0.002 0.0008 0.0007 0.0009
C4 0.008 0.008 0.008 0.0018 0.0018 0.0002
O3 0.004 0.01 0.009 -0.002 0.005 -0.002
O5 0.015 0.013 0.01 0.006 0 0.002
O6 0.002 0.013 0.014 0 0.001 0.001
Ho7 0.0008 0.0039 0.0073 0.0012 0 -0.0006
C2 0.004 0.004 0.004 0.0009 0.0004 0
C3 0.007 0.007 0.007 0.0018 0.0015 0
O2 0.004 0.011 0.004 0.001 0.001 0
O4 0.011 0.012 0.007 0.006 0.003 0.003
O23 0.004 0.003 0.01 0.002 0.001 -0.002
C1 0.002 0.002 0.003 0.0009 0.0006 -0.0006
C5 0.006 0.01 0.008 0.005 0.002 0
C6 0.004 0.004 0.004 0.0009 0.0008 0.0004
C7 0.004 0.003 0.009 0.002 0.001 0
C8 0.005 0.005 0.004 0.001 0.0008 0.0006
O1 0.007 0.008 0.01 0.002 -0.002 0.002
O8 0.008 0.003 0.011 0 0.002 -0.002
O9 0.01 0.007 0.007 0.004 0.004 0.002
O12 0.004 0.005 0.01 0.004 0.001 0.003
O13 0.005 0.006 0.006 0.0013 0.0005 0.0007
O24 0.007 0.006 0.007 0.0018 0.0013 0.0005
O27 0.008 0.008 0.008 0.0016 0.0014 0.001
O20 0.005 0.008 0.016 0.001 0 -0.001
C9 0.003 0.003 0.003 0.001 0.0006 0.0002
C10 0.004 0.004 0.004 0.0012 0.0006 0.0006
C11 0.003 0.008 0.006 0.003 0 0.003
C12 0.004 0.01 0.004 0.002 0 -0.003
O7 0.006 0.031 0.006 0 -0.004 0.004
O14 0.005 0.004 0.014 0.006 -0.002 -0.001
O15 0.004 0.004 0.004 0.0011 0.0009 0.0001
O16 0.008 0.005 0.01 0.004 0.007 0.002
O17 0.004 0.008 0.017 0.005 0.002 -0.002
O19 0.005 0.015 0.014 0.009 0.004 0.002
loop_
_geom_bond_atom_site_label_1
_geom_bond_atom_site_label_2
_geom_bond_site_symmetry_1
_geom_bond_site_symmetry_2
O5 C4 1_555 1_555
O6 C4 1_555 1_555
H7 O3 1_555 1_555
Ho7 O5 1_555 1_555
O6 Ho7 1_555 1_555
C3 C2 1_555 1_555
O4 C3 1_555 1_555
H8 O4 1_555 1_555
Ho4 O1 1_555 1_555
C5 C6 1_555 1_555
C6 H3 1_555 1_555
C7 C6 1_555 1_555
H4 C7 1_555 1_555
C8 C7 1_555 1_555
O1 C1 1_555 1_555
O8 Ho4 1_555 1_555
O23 C7 1_555 1_555
O12 C8 1_555 1_555
O13 Ho4 1_555 1_555
H9 O9 1_555 1_555
H10 O23 1_555 1_555
O24 Ho4 1_555 1_555
C5 O8 1_555 1_555
C6 O9 1_555 1_555
H15 O20 1_555 1_555
Ho7 O7 1_555 1_555
C9 C10 1_555 1_555
C10 H5 1_555 1_555
C11 C10 1_555 1_555
H6 C11 1_555 1_555
C12 C11 1_555 1_555
O14 C9 1_555 1_555
O16 Ho7 1_555 1_555
O17 Ho7 1_555 1_555
O27 C12 1_555 1_555
H11 O15 1_555 1_555
H12 O16 1_555 1_555
H13 O19 1_555 1_555
H14 O19 1_555 1_555
C10 O15 1_555 1_555
C11 O16 1_555 1_555
C12 O17 1_555 1_555

#END
