
###############################################################################
#
# This file contains modified crystal structure data generated from the
# MOF subset of the Cambridge Structural Database (CSD) v543 
# hosted by the Cambridge Crystallographic Data Centre (CCDC).
#
# This work is licensed under the Creative Commons
# Attribution-NonCommercial-ShareAlike 4.0 International License.
# To view a copy of this license, visit
# http://creativecommons.org/licenses/by-nc-sa/4.0/
# or send a letter to
# Creative Commons, PO Box 1866, Mountain View, CA 94042, USA.
#
# CIF created using the CSD Python API on 29 September 2022
# The structure has been converted into the P1 space group
# The structure has a 3D framework
# The original CSD entry BUKYEO is in the triclinic crystal system
# The original CSD entry BUKYEO is in a Sohncke space group
# The framework has been calculated to contain at least 10.0% void space
# The void calculation uses a probe of radius 1.32A, grid spacing 0.4
#
###############################################################################

data_BUKYEO
_chemical_formula_moiety         '(C13 H16 Ho2 O20)n'
_symmetry_cell_setting           triclinic
_symmetry_space_group_name_H-M   'P 1'
_symmetry_Int_Tables_number      1
_space_group_name_Hall           'P 1'
loop_
_symmetry_equiv_pos_site_id
_symmetry_equiv_pos_as_xyz
1 x,y,z
_cell_length_a                   5.9693(2)
_cell_length_b                   7.3865(2)
_cell_length_c                   13.0842(5)
_cell_angle_alpha                102.540(3)
_cell_angle_beta                 101.363(3)
_cell_angle_gamma                90.912(2)
_cell_volume                     551.071
loop_
_atom_site_label
_atom_site_type_symbol
_atom_site_fract_x
_atom_site_fract_y
_atom_site_fract_z
Ho7 Ho 0.01882(9) 0.81589(7) 0.67987(5)
O21 O 0.2493(15) 0.0097(13) 0.8359(6)
O26 O 0.1732(14) 0.0790(12) 0.6402(7)
C9 C 0.1503(19) 0.1654(14) 0.5669(8)
C10 C 0.339(2) 0.3092(17) 0.5662(9)
H5 H 0.482076 0.246818 0.564519
C11 C 0.3682(19) 0.4549(14) 0.6724(8)
H6 H 0.445069 0.400009 0.730808
C12 C 0.509(2) 0.6276(15) 0.6712(8)
O7 O 0.0161(15) 0.6514(12) 0.5071(7)
O15 O 0.2805(14) 0.3797(11) 0.4736(6)
O16 O 0.1495(14) 0.5105(11) 0.6918(7)
O17 O 0.4044(15) 0.7740(12) 0.6736(7)
O18 O 0.7136(14) 0.6097(12) 0.6685(7)
O19 O 0.2492(15) 0.3452(12) 0.2561(6)
H11 H 0.206883 0.477508 0.490144
H12 H 0.124459 0.469184 0.743972
H13 H 0.268275 0.377605 0.198688
H14 H 0.366874 0.292662 0.278042
O22 O 0.0793(14) 0.7779(12) 0.8787(6)
O25 O 0.2808(13) 0.9881(11) 0.3442(6)
C8 C 0.487(2) 0.0000(15) 0.3358(8)
O11 O 0.5935(15) 0.1427(12) 0.3303(6)
O20 O 0.7653(14) 0.0289(11) 0.7541(6)
H15 H 0.751319 0.121038 0.794450
Ho4 Ho 0.97991(8) 0.18299(7) 0.32023(5)
C1 C 0.789(2) 0.0656(19) 0.1029(10)
H2 H 0.356265 0.101403 0.043220
C5 C 0.840(2) 0.6121(15) 0.4301(8)
C6 C 0.653(2) 0.7476(16) 0.4346(8)
H3 H 0.511242 0.681329 0.436636
C7 C 0.6175(19) 0.8222(15) 0.3309(8)
H4 H 0.532270 0.725392 0.271893
C8_2 C 0.487(2) 1.0000(15) 0.3358(8)
O1 O 0.7459(14) 0.2204(12) 0.1496(6)
O8 O 0.8187(15) 0.4733(11) 0.3548(6)
O9 O 0.7138(14) 0.8941(11) 0.5293(6)
O10 O 0.8342(13) 0.8598(11) 0.3074(6)
O14 O 0.9717(14) 0.1451(12) 0.4913(6)
H9 H 0.786874 0.978404 0.512100
H10 H 0.872648 0.767419 0.255903
H16 H 0.636473 0.971969 0.722506
H1 H 0.647431 0.034521 0.942574
C3 C 0.383(2) 0.9727(18) 0.0113(9)
O2 O 0.9590(14) 0.9807(12) 0.1418(6)
O4 O 0.3526(15) 0.8618(13) 0.0846(6)
H8 H 0.242272 0.914018 0.108167
C2 C 0.631(2) 0.9664(17) 0.9974(9)
C4 C 0.223(3) 0.9170(19) 0.9030(10)
O3 O 0.6775(14) 0.7792(11) 0.9601(6)
H7 H 0.787420 0.767484 0.925289
loop_
_geom_bond_atom_site_label_1
_geom_bond_atom_site_label_2
_geom_bond_site_symmetry_1
_geom_bond_site_symmetry_2
Ho7 O7 1_555 1_555
C9 C10 1_555 1_555
C10 H5 1_555 1_555
C11 C10 1_555 1_555
H6 C11 1_555 1_555
C12 C11 1_555 1_555
O26 C9 1_555 1_555
O16 Ho7 1_555 1_555
O17 Ho7 1_555 1_555
O18 C12 1_555 1_555
H11 O15 1_555 1_555
H12 O16 1_555 1_555
H13 O19 1_555 1_555
H14 O19 1_555 1_555
O22 Ho7 1_555 1_555
C10 O15 1_555 1_555
C11 O16 1_555 1_555
C12 O17 1_555 1_555
O11 C8 1_555 1_555
H15 O20 1_555 1_555
O11 Ho4 1_555 1_555
Ho4 O1 1_555 1_555
C5 C6 1_555 1_555
C6 H3 1_555 1_555
C7 C6 1_555 1_555
H4 C7 1_555 1_555
C8_2 C7 1_555 1_555
O1 C1 1_555 1_555
O8 Ho4 1_555 1_555
O10 C7 1_555 1_555
O25 C8_2 1_555 1_555
O14 Ho4 1_555 1_555
H9 O9 1_555 1_555
H10 O10 1_555 1_555
C5 O8 1_555 1_555
C6 O9 1_555 1_555
O4 C3 1_555 1_555
H8 O4 1_555 1_555
O3 C2 1_555 1_555
O22 C4 1_555 1_555
H7 O3 1_555 1_555

#END
