
###############################################################################
#
# This file contains modified crystal structure data generated from the
# MOF subset of the Cambridge Structural Database (CSD) v543 
# hosted by the Cambridge Crystallographic Data Centre (CCDC).
#
# This work is licensed under the Creative Commons
# Attribution-NonCommercial-ShareAlike 4.0 International License.
# To view a copy of this license, visit
# http://creativecommons.org/licenses/by-nc-sa/4.0/
# or send a letter to
# Creative Commons, PO Box 1866, Mountain View, CA 94042, USA.
#
# CIF created using the CSD Python API on 29 September 2022
# The structure has been converted into the P1 space group
# The structure has a 3D framework
# The original CSD entry BUKYOY is in the triclinic crystal system
# The original CSD entry BUKYOY is in a Sohncke space group
# The framework has been calculated to contain at least 10.0% void space
# The void calculation uses a probe of radius 1.32A, grid spacing 0.4
#
###############################################################################

data_BUKYOY
_chemical_formula_moiety         '(C12 H16 Er2 O19)n'
_symmetry_cell_setting           triclinic
_symmetry_space_group_name_H-M   'P 1'
_symmetry_Int_Tables_number      1
_space_group_name_Hall           'P 1'
loop_
_symmetry_equiv_pos_site_id
_symmetry_equiv_pos_as_xyz
1 x,y,z
_cell_length_a                   5.9614(5)
_cell_length_b                   7.3515(6)
_cell_length_c                   13.1229(11)
_cell_angle_alpha                102.483(3)
_cell_angle_beta                 101.551(3)
_cell_angle_gamma                90.767(3)
_cell_volume                     549.18
loop_
_atom_site_label
_atom_site_type_symbol
_atom_site_fract_x
_atom_site_fract_y
_atom_site_fract_z
_atom_site_U_iso_or_equiv
_atom_site_thermal_displace_type
Er7 Er 0.02011(5) 0.81590(5) 0.67914(4) 0.0041 Uani
O21 O 0.2481(14) 0.0058(14) 0.8364(7) 0.0126 Uani
O26 O 0.1745(13) 0.0824(13) 0.6402(7) 0.0063 Uani
C9 C 0.1502(18) 0.1659(16) 0.5668(8) 0.0010 Uani
C10 C 0.338(2) 0.307(2) 0.5650(10) 0.0044 Uani
H5 H 0.480908 0.243020 0.563249 0.0050 Uiso
C11 C 0.3700(19) 0.4555(17) 0.6713(9) 0.0059 Uani
H6 H 0.449367 0.400643 0.729348 0.0070 Uiso
C12 C 0.5080(18) 0.6268(17) 0.6695(8) 0.0043 Uani
O7 O 0.0179(14) 0.6520(12) 0.5073(6) 0.0083 Uani
O15 O 0.2803(13) 0.3796(12) 0.4728(6) 0.0049 Uani
O16 O 0.1516(14) 0.5103(13) 0.6922(7) 0.0069 Uani
O17 O 0.4060(15) 0.7749(14) 0.6717(7) 0.0107 Uani
O18 O 0.7168(13) 0.6103(12) 0.6661(7) 0.0082 Uani
O19 O 0.2444(13) 0.3457(12) 0.2577(6) 0.0089 Uani
H11 H 0.212582 0.480092 0.484941 0.0270 Uiso
H12 H 0.110981 0.466869 0.741207 0.0270 Uiso
H13 H 0.282286 0.361814 0.198589 0.0270 Uiso
H14 H 0.370351 0.295808 0.276791 0.0270 Uiso
O22 O 0.0776(14) 0.7775(13) 0.8799(7) 0.0143 Uani
O25 O 0.2790(13) 0.9889(12) 0.3445(6) 0.0078 Uani
O11 O 0.5911(14) 0.1437(14) 0.3306(7) 0.0076 Uani
O20 O 0.7686(13) 0.0256(12) 0.7533(6) 0.0093 Uani
H15 H 0.802009 0.134131 0.792871 0.0270 Uiso
Er4 Er 0.97835(5) 0.18241(5) 0.32105(4) 0.0033 Uani
C1 C 0.784(3) 0.064(2) 0.1051(12) 0.0056 Uani
H2 H 0.349787 0.098691 0.042673 0.0100 Uiso
C5 C 0.8415(19) 0.6111(18) 0.4309(9) 0.0069 Uani
C6 C 0.654(2) 0.750(2) 0.4341(10) 0.0034 Uani
H3 H 0.512074 0.683217 0.435957 0.0040 Uiso
C7 C 0.6151(18) 0.8207(17) 0.3311(9) 0.0050 Uani
H4 H 0.529354 0.722993 0.272646 0.0060 Uiso
C8 C 0.4876(19) 0.9984(17) 0.3363(9) 0.0052 Uani
O1 O 0.7424(14) 0.2223(12) 0.1510(6) 0.0093 Uani
O8 O 0.8185(14) 0.4751(12) 0.3561(7) 0.0072 Uani
O9 O 0.7142(13) 0.8934(12) 0.5304(6) 0.0065 Uani
O10 O 0.8358(12) 0.8605(12) 0.3078(6) 0.0046 Uani
O13 O 0.9718(13) 0.1466(12) 0.4911(6) 0.0074 Uani
H9 H 0.786315 0.987023 0.520384 0.0270 Uiso
H10 H 0.857289 0.781030 0.251663 0.0270 Uiso
H16 H 0.643609 0.962477 0.721203 0.0270 Uiso
H1 H 0.645098 0.038141 0.944328 0.0080 Uiso
C3 C 0.380(2) 0.970(2) 0.0126(10) 0.0090 Uani
O2 O 0.9573(14) 0.9826(12) 0.1433(6) 0.0088 Uani
O4 O 0.3539(14) 0.8633(13) 0.0857(7) 0.0119 Uani
H8 H 0.228287 0.884579 0.106847 0.0270 Uiso
C2 C 0.629(2) 0.968(2) 0.9984(10) 0.0070 Uani
C4 C 0.220(3) 0.907(2) 0.9042(13) 0.0089 Uani
O3 O 0.6769(13) 0.7795(12) 0.9621(7) 0.0110 Uani
H7 H 0.789035 0.782914 0.931337 0.0270 Uiso
loop_
_atom_site_aniso_label
_atom_site_aniso_U_11
_atom_site_aniso_U_22
_atom_site_aniso_U_33
_atom_site_aniso_U_23
_atom_site_aniso_U_13
_atom_site_aniso_U_12
Er7 0.0017 0.0032 0.0072 0.0012 0.0004 -0.0008
O21 0.007 0.022 0.009 0.005 0.001 -0.002
O26 0.007 0.006 0.006 0.0019 0.001 -0.0005
C9 0.001 0.001 0.001 0.0003 0.0001 0
C10 0.004 0.004 0.005 0.0012 0.0005 0.0001
C11 0.006 0.006 0.006 0.0017 0.0014 0.0007
C12 0.004 0.005 0.004 0.0011 0.0012 0
O7 0.008 0.007 0.008 0 -0.001 0.006
O15 0.006 0.002 0.007 -0.001 0.004 0
O16 0.007 0.007 0.007 0.0013 0.0022 0
O17 0.01 0.01 0.012 0.0027 0.0017 0.0002
O18 0.007 0.008 0.009 0.0014 0.0011 0.0003
O19 0.006 0.011 0.011 0.005 0.002 0
O22 0.01 0.015 0.014 -0.002 -0.001 0
O25 0.006 0.008 0.012 0.006 0.004 0.002
O11 0.007 0.008 0.008 0.0023 0.0014 0.0005
O20 0.007 0.006 0.014 -0.002 0.005 0
Er4 0.0021 0.0031 0.0052 0.0019 0.001 0.0001
C1 0.005 0.006 0.006 0.0015 0.0014 0.0003
C5 0.007 0.007 0.007 0.0021 0.0014 0.0002
C6 0.004 0.003 0.003 0.0009 0.0002 0.0002
C7 0.005 0.005 0.005 0.0006 0.0015 0.0001
C8 0.003 0.005 0.009 0.002 0.004 0.002
O1 0.013 0.01 0.004 0.003 -0.002 0.002
O8 0.012 0.002 0.008 0.001 0.003 0
O9 0.006 0.006 0.007 0.0008 0.0008 0.0005
O10 0.005 0.004 0.005 0.001 0.0018 0.0002
O13 0.004 0.011 0.006 0.001 -0.001 -0.001
C3 0.009 0.009 0.009 0.0018 0.002 0.0007
O2 0.01 0.006 0.013 0.006 0.004 0.003
O4 0.009 0.016 0.011 0.005 0.001 -0.001
C2 0.007 0.007 0.007 0.0013 0.0014 0.0006
C4 0.009 0.009 0.009 0.002 0.0025 0.0001
O3 0.007 0.007 0.016 -0.005 0.004 -0.005
loop_
_geom_bond_atom_site_label_1
_geom_bond_atom_site_label_2
_geom_bond_site_symmetry_1
_geom_bond_site_symmetry_2
Er7 O7 1_555 1_555
C9 C10 1_555 1_555
C10 H5 1_555 1_555
C11 C10 1_555 1_555
H6 C11 1_555 1_555
C12 C11 1_555 1_555
O26 C9 1_555 1_555
O16 Er7 1_555 1_555
O17 Er7 1_555 1_555
O18 C12 1_555 1_555
H11 O15 1_555 1_555
H12 O16 1_555 1_555
H13 O19 1_555 1_555
H14 O19 1_555 1_555
O22 Er7 1_555 1_555
C10 O15 1_555 1_555
C11 O16 1_555 1_555
C12 O17 1_555 1_555
H15 O20 1_555 1_555
O11 Er4 1_555 1_555
Er4 O1 1_555 1_555
C5 C6 1_555 1_555
C6 H3 1_555 1_555
C7 C6 1_555 1_555
H4 C7 1_555 1_555
C8 C7 1_555 1_555
O1 C1 1_555 1_555
O8 Er4 1_555 1_555
O10 C7 1_555 1_555
O25 C8 1_555 1_555
O13 Er4 1_555 1_555
H9 O9 1_555 1_555
H10 O10 1_555 1_555
C5 O8 1_555 1_555
C6 O9 1_555 1_555
O4 C3 1_555 1_555
H8 O4 1_555 1_555
O3 C2 1_555 1_555
O22 C4 1_555 1_555
H7 O3 1_555 1_555

#END
