
###############################################################################
#
# This file contains modified crystal structure data generated from the
# MOF subset of the Cambridge Structural Database (CSD) v543 
# hosted by the Cambridge Crystallographic Data Centre (CCDC).
#
# This work is licensed under the Creative Commons
# Attribution-NonCommercial-ShareAlike 4.0 International License.
# To view a copy of this license, visit
# http://creativecommons.org/licenses/by-nc-sa/4.0/
# or send a letter to
# Creative Commons, PO Box 1866, Mountain View, CA 94042, USA.
#
# CIF created using the CSD Python API on 29 September 2022
# The structure has been converted into the P1 space group
# The structure has a 3D framework
# The original CSD entry BUKYUE is in the triclinic crystal system
# The original CSD entry BUKYUE is in a Sohncke space group
# The framework has been calculated to contain at least 10.0% void space
# The void calculation uses a probe of radius 1.32A, grid spacing 0.4
#
###############################################################################

data_BUKYUE
_chemical_formula_moiety         '(C12 H16 O19 Tm2)n'
_symmetry_cell_setting           triclinic
_symmetry_space_group_name_H-M   'P 1'
_symmetry_Int_Tables_number      1
_space_group_name_Hall           'P 1'
loop_
_symmetry_equiv_pos_site_id
_symmetry_equiv_pos_as_xyz
1 x,y,z
_cell_length_a                   5.9715(3)
_cell_length_b                   7.3102(4)
_cell_length_c                   13.3149(7)
_cell_angle_alpha                102.364(2)
_cell_angle_beta                 102.224(2)
_cell_angle_gamma                90.276(2)
_cell_volume                     554.114
loop_
_atom_site_label
_atom_site_type_symbol
_atom_site_fract_x
_atom_site_fract_y
_atom_site_fract_z
_atom_site_U_iso_or_equiv
_atom_site_thermal_displace_type
Tm4 Tm 0.02443(4) 0.82002(4) 0.67629(3) 0.0035 Uani
C4 C 0.7861(19) 0.1080(16) 0.0915(9) 0.0098 Uani
O3 O 0.3265(12) 0.2204(10) 0.0300(6) 0.0106 Uani
O5 O 0.7603(13) 0.0259(11) 0.1639(6) 0.0141 Uani
O6 O 0.9319(13) 0.2406(11) 0.1064(7) 0.0175 Uani
H7 H 0.206053 0.242838 0.054038 0.0240 Uiso
Tm7 Tm 0.97529(4) 0.18192(4) 0.32428(3) 0.0038 Uani
C2 C 0.3802(16) 0.0305(14) 0.9946(8) 0.0059 Uani
C3 C 0.6296(16) 0.0288(15) 0.9835(7) 0.0065 Uani
O2 O 0.0506(12) 0.0152(10) 0.8514(5) 0.0089 Uani
O4 O 0.6521(12) 0.1318(10) 0.9062(6) 0.0116 Uani
H8 H 0.786415 0.111536 0.895063 0.0240 Uiso
O22 O 0.1650(11) 0.1413(9) 0.6876(5) 0.0050 Uani
C1 C 0.2223(19) 0.9353(15) 0.8901(9) 0.0039 Uani
H2 H 0.666899 0.898731 0.958859 0.0080 Uiso
C5 C 0.1592(15) 0.3913(13) 0.5660(7) 0.0065 Uani
C6 C 0.3474(17) 0.2489(16) 0.5635(8) 0.0056 Uani
H3 H 0.490385 0.313015 0.561508 0.0070 Uiso
C7 C 0.3814(14) 0.1806(12) 0.6664(7) 0.0039 Uani
H4 H 0.466008 0.279150 0.724192 0.0050 Uiso
C8 C 0.5149(15) 0.0012(12) 0.6612(7) 0.0050 Uani
O1 O 0.2722(12) 0.7776(10) 0.8431(5) 0.0109 Uani
O8 O 0.1810(12) 0.5291(9) 0.6407(6) 0.0083 Uani
O9 O 0.2825(11) 0.1045(9) 0.4707(5) 0.0067 Uani
O12 O 0.7211(11) 0.0123(9) 0.6550(5) 0.0073 Uani
O13 O 0.0210(11) 0.8522(9) 0.5067(5) 0.0070 Uani
H9 H 0.193216 0.026273 0.483663 0.0240 Uiso
H10 H 0.137529 0.213367 0.743598 0.0240 Uiso
H16 H 0.359886 0.029958 0.279998 0.0240 Uiso
O23 O 0.4079(12) 0.8560(11) 0.6655(6) 0.0082 Uani
O26 O 0.2739(11) 0.3852(9) 0.3366(6) 0.0081 Uani
O20 O 0.2248(11) 0.9767(10) 0.2537(6) 0.0124 Uani
H15 H 0.244977 0.873749 0.214754 0.0240 Uiso
C9 C 0.8459(15) 0.8303(12) 0.4312(7) 0.0035 Uani
C10 C 0.6573(17) 0.6950(15) 0.4330(8) 0.0040 Uani
H5 H 0.517002 0.763555 0.434519 0.0050 Uiso
C11 C 0.6162(15) 0.5431(12) 0.3287(7) 0.0048 Uani
H6 H 0.527428 0.596733 0.272213 0.0060 Uiso
C12 C 0.4843(16) 0.3700(13) 0.3346(7) 0.0066 Uani
O7 O 0.9822(12) 0.3533(10) 0.4901(5) 0.0111 Uani
O14 O 0.8246(12) 0.9145(10) 0.3568(6) 0.0073 Uani
O15 O 0.7131(11) 0.6224(9) 0.5261(5) 0.0048 Uani
O16 O 0.8291(11) 0.4864(9) 0.3015(6) 0.0067 Uani
O17 O 0.5910(12) 0.2232(11) 0.3349(6) 0.0084 Uani
O19 O 0.7633(12) 0.6569(10) 0.7377(6) 0.0113 Uani
H11 H 0.790459 0.526603 0.511787 0.0240 Uiso
H12 H 0.846831 0.515943 0.241088 0.0240 Uiso
H13 H 0.745756 0.619737 0.792122 0.0240 Uiso
H14 H 0.635785 0.703442 0.716055 0.0240 Uiso
H1 H 0.364174 0.960449 0.047997 0.0070 Uiso
loop_
_atom_site_aniso_label
_atom_site_aniso_U_11
_atom_site_aniso_U_22
_atom_site_aniso_U_33
_atom_site_aniso_U_23
_atom_site_aniso_U_13
_atom_site_aniso_U_12
Tm4 0.0026 0.0035 0.0043 0.0014 0.0001 0.0008
C4 0.009 0.009 0.012 0.004 0.002 0.004
O3 0.007 0.01 0.013 -0.003 0.004 -0.001
O5 0.013 0.021 0.006 0.002 -0.002 0
O6 0.009 0.012 0.026 -0.005 0.001 -0.003
Tm7 0.0014 0.0033 0.0064 0.0008 0.0002 -0.0009
C2 0.006 0.006 0.006 0.002 0.001 -0.0002
C3 0.007 0.01 0.004 0.005 0.001 0
O2 0.008 0.012 0.006 0.002 0 0
O4 0.011 0.014 0.014 0.009 0.006 0.003
O22 0.0047 0.0047 0.0058 0.001 0.002 0.0007
C1 0.004 0.004 0.004 0.0014 0.0007 -0.0005
C5 0.004 0.008 0.008 0.004 0 0.001
C6 0.006 0.005 0.006 0.0018 0.0009 0.0007
C7 0.0036 0.0036 0.0043 0.0008 0.0007 0.0002
C8 0.005 0.005 0.0049 0.0013 0.0006 0.001
O1 0.011 0.011 0.008 0 -0.002 0.004
O8 0.012 0.002 0.01 0 0.002 -0.002
O9 0.007 0.005 0.009 0.002 0.003 -0.001
O12 0.003 0.007 0.013 0.005 0.001 0.001
O13 0.006 0.008 0.006 0.004 -0.003 -0.002
O23 0.0071 0.0077 0.01 0.0026 0.0016 0
O26 0.002 0.004 0.018 0.003 0.001 0.001
O20 0.004 0.009 0.021 -0.005 0.004 0.002
C9 0.0036 0.0026 0.0041 0.0008 0.0005 0.0006
C10 0.004 0.004 0.004 0.0013 0.0006 0.0004
C11 0.003 0.005 0.007 0.003 0.001 -0.002
C12 0.006 0.007 0.0065 0.0013 0.0012 -0.0005
O7 0.006 0.018 0.007 0 -0.001 0.004
O14 0.0084 0.0063 0.0075 0.0029 0.001 0
O15 0.0052 0.0042 0.0055 0.002 0.0013 0
O16 0.006 0.007 0.01 0.005 0.005 0.001
O17 0.0071 0.008 0.0101 0.0025 0.0016 0.001
O19 0.008 0.014 0.014 0.009 0.001 0.002
loop_
_geom_bond_atom_site_label_1
_geom_bond_atom_site_label_2
_geom_bond_site_symmetry_1
_geom_bond_site_symmetry_2
O5 C4 1_555 1_555
O6 C4 1_555 1_555
H7 O3 1_555 1_555
Tm7 O5 1_555 1_555
C3 C2 1_555 1_555
O4 C3 1_555 1_555
H8 O4 1_555 1_555
Tm4 O1 1_555 1_555
C5 C6 1_555 1_555
C6 H3 1_555 1_555
C7 C6 1_555 1_555
H4 C7 1_555 1_555
C8 C7 1_555 1_555
O1 C1 1_555 1_555
O8 Tm4 1_555 1_555
O22 C7 1_555 1_555
O12 C8 1_555 1_555
O13 Tm4 1_555 1_555
H9 O9 1_555 1_555
H10 O22 1_555 1_555
O23 Tm4 1_555 1_555
C5 O8 1_555 1_555
C6 O9 1_555 1_555
H15 O20 1_555 1_555
Tm7 O7 1_555 1_555
C9 C10 1_555 1_555
C10 H5 1_555 1_555
C11 C10 1_555 1_555
H6 C11 1_555 1_555
C12 C11 1_555 1_555
O14 C9 1_555 1_555
O16 Tm7 1_555 1_555
O17 Tm7 1_555 1_555
O26 C12 1_555 1_555
H11 O15 1_555 1_555
H12 O16 1_555 1_555
H13 O19 1_555 1_555
H14 O19 1_555 1_555
C10 O15 1_555 1_555
C11 O16 1_555 1_555
C12 O17 1_555 1_555

#END
