
###############################################################################
#
# This file contains modified crystal structure data generated from the
# MOF subset of the Cambridge Structural Database (CSD) v543 
# hosted by the Cambridge Crystallographic Data Centre (CCDC).
#
# This work is licensed under the Creative Commons
# Attribution-NonCommercial-ShareAlike 4.0 International License.
# To view a copy of this license, visit
# http://creativecommons.org/licenses/by-nc-sa/4.0/
# or send a letter to
# Creative Commons, PO Box 1866, Mountain View, CA 94042, USA.
#
# CIF created using the CSD Python API on 29 September 2022
# The structure has been converted into the P1 space group
# The structure has a 3D framework
# The original CSD entry BUKZAL is in the triclinic crystal system
# The original CSD entry BUKZAL is in a Sohncke space group
# The framework has been calculated to contain at least 10.0% void space
# The void calculation uses a probe of radius 1.32A, grid spacing 0.4
#
###############################################################################

data_BUKZAL
_chemical_formula_moiety         '(C12 H16 O19 Tm2)n'
_symmetry_cell_setting           triclinic
_symmetry_space_group_name_H-M   'P 1'
_symmetry_Int_Tables_number      1
_space_group_name_Hall           'P 1'
loop_
_symmetry_equiv_pos_site_id
_symmetry_equiv_pos_as_xyz
1 x,y,z
_cell_length_a                   5.9678(4)
_cell_length_b                   7.3111(5)
_cell_length_c                   13.3197(9)
_cell_angle_alpha                102.352(2)
_cell_angle_beta                 102.260(2)
_cell_angle_gamma                90.173(2)
_cell_volume                     554.04
loop_
_atom_site_label
_atom_site_type_symbol
_atom_site_fract_x
_atom_site_fract_y
_atom_site_fract_z
_atom_site_U_iso_or_equiv
_atom_site_thermal_displace_type
Tm7 Tm 0.02461(6) 0.81848(5) 0.67533(4) 0.0040 Uani
O25 O 0.1745(15) 0.0858(12) 0.6428(7) 0.0066 Uani
C9 C 0.154(2) 0.1711(15) 0.5685(9) 0.0037 Uani
C10 C 0.340(2) 0.306(2) 0.5663(11) 0.0060 Uani
H5 H 0.479741 0.236091 0.564587 0.0070 Uiso
C11 C 0.3860(19) 0.4578(16) 0.6705(9) 0.0041 Uani
H6 H 0.475229 0.403271 0.726610 0.0050 Uiso
C12 C 0.518(2) 0.6313(17) 0.6655(9) 0.0068 Uani
O8 O 0.0174(15) 0.6475(13) 0.5091(7) 0.0119 Uani
O15 O 0.2876(14) 0.3789(11) 0.4734(7) 0.0060 Uani
O16 O 0.1716(14) 0.5140(12) 0.6984(7) 0.0065 Uani
O17 O 0.4104(16) 0.7779(14) 0.6644(7) 0.0100 Uani
O18 O 0.7254(15) 0.6161(12) 0.6627(8) 0.0089 Uani
O19 O 0.2376(15) 0.3423(13) 0.2613(8) 0.0125 Uani
H11 H 0.188684 0.460892 0.481899 0.0250 Uiso
H12 H 0.160249 0.476555 0.753055 0.0250 Uiso
H13 H 0.271677 0.416375 0.225080 0.0250 Uiso
H14 H 0.365585 0.297710 0.284486 0.0250 Uiso
O21 O 0.2396(16) 0.9729(13) 0.8354(7) 0.0117 Uani
O24 O 0.2796(14) 0.9878(12) 0.3449(7) 0.0073 Uani
O11 O 0.5922(16) 0.1433(14) 0.3343(7) 0.0093 Uani
O20 O 0.7754(15) 0.0236(12) 0.7455(8) 0.0136 Uani
H15 H 0.763488 0.103312 0.800736 0.0250 Uiso
Tm4 Tm 0.97528(5) 0.18011(5) 0.32335(4) 0.0038 Uani
C1 C 0.776(2) 0.0662(19) 0.1095(11) 0.0045 Uani
H2 H 0.331998 0.101121 0.041398 0.0090 Uiso
C5 C 0.840(2) 0.6077(16) 0.4342(10) 0.0061 Uani
C6 C 0.651(2) 0.750(2) 0.4363(10) 0.0057 Uani
H3 H 0.507550 0.686560 0.438493 0.0070 Uiso
C7 C 0.6174(19) 0.8188(16) 0.3333(9) 0.0040 Uani
H4 H 0.533250 0.720299 0.275469 0.0050 Uiso
C8 C 0.4846(19) 0.9982(16) 0.3372(9) 0.0040 Uani
O1 O 0.7274(15) 0.2231(13) 0.1565(7) 0.0119 Uani
O7 O 0.8185(15) 0.4710(12) 0.3588(7) 0.0078 Uani
O9 O 0.7177(14) 0.8944(11) 0.5289(7) 0.0069 Uani
O10 O 0.8339(14) 0.8590(12) 0.3119(7) 0.0052 Uani
O13 O 0.9782(15) 0.1487(11) 0.4919(7) 0.0075 Uani
H9 H 0.799831 0.968825 0.509017 0.0250 Uiso
H10 H 0.856021 0.787764 0.253263 0.0250 Uiso
H16 H 0.641654 0.967812 0.723155 0.0250 Uiso
C2 C 0.619(2) 0.9696(18) 0.0049(10) 0.0057 Uani
C3 C 0.369(2) 0.9711(19) 0.0166(10) 0.0070 Uani
O2 O 0.9478(15) 0.9856(12) 0.1481(7) 0.0107 Uani
O4 O 0.3481(16) 0.8686(13) 0.0936(7) 0.0123 Uani
H8 H 0.222204 0.890244 0.114691 0.0250 Uiso
C4 C 0.212(2) 0.892(2) 0.9077(12) 0.0114 Uani
O3 O 0.6723(15) 0.7797(12) 0.9699(7) 0.0112 Uani
O6 O 0.0680(16) 0.7593(13) 0.8941(8) 0.0175 Uani
H7 H 0.802225 0.764230 0.953567 0.0250 Uiso
H1 H 0.633596 0.039160 0.951209 0.0070 Uiso
loop_
_atom_site_aniso_label
_atom_site_aniso_U_11
_atom_site_aniso_U_22
_atom_site_aniso_U_33
_atom_site_aniso_U_23
_atom_site_aniso_U_13
_atom_site_aniso_U_12
Tm7 0.002 0.0033 0.0065 0.0008 0.0008 -0.0007
O25 0.007 0.006 0.007 0.0019 0.0015 -0.0001
C9 0.004 0.003 0.004 0.0008 0.0009 0.0001
C10 0.006 0.006 0.006 0.0014 0.0014 0.0005
C11 0.004 0.004 0.004 0.0005 0.0008 0
C12 0.006 0.008 0.006 0.001 0.001 -0.005
O8 0.005 0.022 0.008 0.003 0 0.004
O15 0.006 0.005 0.007 0.0017 0.0012 0.0002
O16 0.006 0.007 0.007 0.002 0.0022 0.0001
O17 0.009 0.01 0.011 0.002 0.0025 0.0009
O18 0.008 0.007 0.013 0.003 0.004 0.002
O19 0.006 0.013 0.026 0.016 0.008 0.004
O21 0.012 0.012 0.011 0.0024 0.0021 0.0007
O24 0.007 0.007 0.008 0.0019 0.0016 0.0007
O11 0.009 0.009 0.01 0.0024 0.0019 0.0007
O20 0.006 0.008 0.024 -0.005 0.006 0
Tm4 0.0029 0.0036 0.0048 0.0011 0.0005 0.0008
C1 0.005 0.004 0.005 0.0015 0.0014 -0.0001
C5 0.005 0.005 0.01 0.004 0.003 0.003
C6 0.006 0.005 0.006 0.0012 0.0011 0.0005
C7 0.004 0.004 0.004 0.0007 0.001 0.0003
C8 0.004 0.004 0.004 0.001 0.0007 0.0003
O1 0.013 0.011 0.008 -0.002 -0.002 0.001
O7 0.008 0.007 0.008 0.0013 0.0014 0.0005
O9 0.009 0.005 0.007 0.001 0.003 -0.001
O10 0.005 0.005 0.006 0.0007 0.0023 -0.0001
O13 0.009 0.005 0.007 0.002 -0.002 -0.001
C2 0.006 0.005 0.006 0.0015 0.0011 -0.0002
C3 0.007 0.007 0.007 0.0018 0.0014 0.0002
O2 0.01 0.011 0.011 0.0024 0.0022 0.0005
O4 0.012 0.012 0.017 0.007 0.008 0.002
C4 0.011 0.011 0.012 0.0021 0.0025 0.0008
O3 0.007 0.01 0.015 -0.003 0.005 -0.002
O6 0.011 0.012 0.024 -0.007 0.003 -0.002
loop_
_geom_bond_atom_site_label_1
_geom_bond_atom_site_label_2
_geom_bond_site_symmetry_1
_geom_bond_site_symmetry_2
Tm7 O8 1_555 1_555
C9 C10 1_555 1_555
C10 H5 1_555 1_555
C11 C10 1_555 1_555
H6 C11 1_555 1_555
C12 C11 1_555 1_555
O25 C9 1_555 1_555
O16 Tm7 1_555 1_555
O17 Tm7 1_555 1_555
O18 C12 1_555 1_555
H11 O15 1_555 1_555
H12 O16 1_555 1_555
H13 O19 1_555 1_555
H14 O19 1_555 1_555
O21 Tm7 1_555 1_555
C10 O15 1_555 1_555
C11 O16 1_555 1_555
C12 O17 1_555 1_555
H15 O20 1_555 1_555
O11 Tm4 1_555 1_555
Tm4 O1 1_555 1_555
C5 C6 1_555 1_555
C6 H3 1_555 1_555
C7 C6 1_555 1_555
H4 C7 1_555 1_555
C8 C7 1_555 1_555
O1 C1 1_555 1_555
O7 Tm4 1_555 1_555
O10 C7 1_555 1_555
O24 C8 1_555 1_555
O13 Tm4 1_555 1_555
H9 O9 1_555 1_555
H10 O10 1_555 1_555
C5 O7 1_555 1_555
C6 O9 1_555 1_555
C3 C2 1_555 1_555
O4 C3 1_555 1_555
H8 O4 1_555 1_555
O21 C4 1_555 1_555
O6 C4 1_555 1_555
H7 O3 1_555 1_555

#END
