
###############################################################################
#
# This file contains modified crystal structure data generated from the
# MOF subset of the Cambridge Structural Database (CSD) v543 
# hosted by the Cambridge Crystallographic Data Centre (CCDC).
#
# This work is licensed under the Creative Commons
# Attribution-NonCommercial-ShareAlike 4.0 International License.
# To view a copy of this license, visit
# http://creativecommons.org/licenses/by-nc-sa/4.0/
# or send a letter to
# Creative Commons, PO Box 1866, Mountain View, CA 94042, USA.
#
# CIF created using the CSD Python API on 29 September 2022
# The structure has been converted into the P1 space group
# The structure has a 3D framework
# The original CSD entry BUNMUU is in the monoclinic crystal system
# The framework has been calculated to contain at least 10.0% void space
# The void calculation uses a probe of radius 1.32A, grid spacing 0.4
#
###############################################################################

data_BUNMUU
_chemical_formula_moiety         '(C120 H80 Cd4 N16 O24 S4)n'
_symmetry_cell_setting           triclinic
_symmetry_space_group_name_H-M   'P 1'
_symmetry_Int_Tables_number      1
_space_group_name_Hall           'P 1'
loop_
_symmetry_equiv_pos_site_id
_symmetry_equiv_pos_as_xyz
1 x,y,z
_cell_length_a                   10.8259(6)
_cell_length_b                   19.6449(10)
_cell_length_c                   16.2870(9)
_cell_angle_alpha                90
_cell_angle_beta                 90.9870(10)
_cell_angle_gamma                90
_cell_volume                     3463.3
loop_
_atom_site_label
_atom_site_type_symbol
_atom_site_fract_x
_atom_site_fract_y
_atom_site_fract_z
H13 H 0.0547 0.1466 0.0193
C26 C 0.0763(3) 0.43959(19) 0.1332(2)
H16 H 0.1518 0.4413 0.1611
C27 C 0.0677(4) 0.4102(2) 0.0558(2)
H17 H 0.1378 0.3932 0.0308
C30 C 0.0778(3) 0.53146(18) 0.27827(19)
H20 H 0.1506 0.5392 0.2502
N4 N 0.0576(3) 0.55347(15) 0.35259(16)
Cd3 Cd 0.18829(2) 0.615138(11) 0.431679(13)
C4 C 0.0309(3) 0.72862(18) 0.6211(2)
C5 C 0.0322(3) 0.80124(19) 0.6170(2)
C8 C 0.0291(5) 0.9421(3) 0.6072(4)
H4 H 0.0288 0.9893 0.6040
C9 C 0.0911(6) 0.9044(3) 0.5482(4)
H5 H 0.1319 0.9266 0.5061
C10 C 0.0921(4) 0.8359(3) 0.5520(3)
H6 H 0.1323 0.8111 0.5118
C12 C 0.0897(3) 0.68598(18) 0.5556(2)
O3 O 0.0223(2) 0.64818(17) 0.51376(19)
O4 O 0.2028(2) 0.68879(18) 0.5452(2)
C14 C 0.8560(3) 0.97659(18) 0.0673(2)
H8 H 0.8725 0.9408 0.1032
O7 O 0.5223(2) 0.85182(17) 0.01376(19)
O8 O 0.7028(2) 0.81121(18) 0.0452(2)
C1 C 0.4077(3) 0.6957(2) 0.2412(2)
C2 C 0.4107(4) 0.7649(2) 0.2436(2)
H1 H 0.3718 0.7877 0.2860
C3 C 0.4717(4) 0.8026(2) 0.1829(2)
H2 H 0.4713 0.8499 0.1855
C4_2 C 0.5309(3) 0.77138(18) 0.1211(2)
C5_2 C 0.5322(3) 0.69876(19) 0.1170(2)
C6 C 0.4693(3) 0.66051(19) 0.1777(2)
C7 C 0.4694(5) 0.5888(2) 0.1689(4)
H3 H 0.4274 0.5624 0.2067
C8_2 C 0.5291(5) 0.5579(3) 0.1072(4)
H4_2 H 0.5288 0.5107 0.1040
C9_2 C 0.5911(6) 0.5956(3) 0.0482(4)
H5_2 H 0.6319 0.5734 0.0061
C10_2 C 0.5921(4) 0.6641(3) 0.0520(3)
H6_2 H 0.6323 0.6889 0.0118
C11 C 0.3344(4) 0.6611(2) 0.3079(2)
C12_2 C 0.5897(3) 0.81402(18) 0.0556(2)
C13 C 0.2837(3) 0.46625(16) 0.4657(2)
H7 H 0.2416 0.4543 0.4176
C14_2 C 0.3560(3) 0.52341(18) 0.5673(2)
H8_2 H 0.3725 0.5592 0.6032
C15 C 0.3996(3) 0.45907(17) 0.5760(2)
H9 H 0.4516 0.4429 0.6177
C16 C 0.3729(3) 0.35276(16) 0.4915(2)
C17 C 0.2757(3) 0.31335(18) 0.4645(2)
H10 H 0.1962 0.3312 0.4616
C18 C 0.2977(4) 0.24690(19) 0.4415(3)
H11 H 0.2331 0.2198 0.4221
C19 C 0.4155(3) 0.22071(16) 0.4475(2)
C20 C 0.5119(3) 0.25985(18) 0.4766(3)
H12 H 0.5909 0.2416 0.4811
C21 C 0.4903(3) 0.32646(18) 0.4991(3)
H13_2 H 0.5547 0.3534 0.5193
C22 C 0.4538(4) 0.09352(17) 0.5164(2)
C23 C 0.3498(4) 0.0670(2) 0.5509(3)
H14 H 0.2739 0.0696 0.5234
C24 C 0.3596(4) 0.0364(2) 0.6273(3)
H15 H 0.2901 0.0175 0.6511
C25 C 0.4724(3) 0.03387(16) 0.6681(2)
C26_2 C 0.5763(3) 0.06041(19) 0.6332(2)
H16_2 H 0.6518 0.0587 0.6611
C27_2 C 0.5677(4) 0.0898(2) 0.5558(2)
H17_2 H 0.6378 0.1068 0.5308
C28 C 0.3942(4) 0.0040(3) 0.8075(3)
H18 H 0.3169 0.0246 0.8049
N1 N 0.2840(2) 0.52763(13) 0.49738(16)
N2 N 0.3519(2) 0.42279(13) 0.51140(17)
N3 N 0.4818(3) 0.00336(15) 0.74725(17)
O1 O 0.3519(3) 0.59995(18) 0.3248(2)
O2 O 0.2576(3) 0.69632(17) 0.3457(2)
O5 O 0.3341(3) 0.11024(13) 0.37800(18)
O6 O 0.5608(3) 0.13154(15) 0.38250(18)
S1 S 0.44216(10) 0.13504(5) 0.42018(6)
C20_2 C 0.0119(3) 0.24015(18) 0.9766(3)
H12_2 H 0.0909 0.2584 0.9811
O6_2 O 0.0608(3) 0.36846(15) 0.88250(18)
C15_2 C 0.8996(3) 0.04093(17) 0.0760(2)
H9_2 H 0.9516 0.0571 0.1177
C22_2 C 0.9538(4) 0.40648(17) 0.0164(2)
C23_2 C 0.8498(4) 0.4330(2) 0.0509(3)
H14_2 H 0.7739 0.4304 0.0234
C24_2 C 0.8596(4) 0.4636(2) 0.1273(3)
H15_2 H 0.7901 0.4825 0.1511
C25_2 C 0.9724(3) 0.46613(16) 0.1681(2)
C28_2 C 0.8942(4) 0.4960(3) 0.3075(3)
H18_2 H 0.8169 0.4754 0.3049
C29 C 0.9426(4) 0.5309(3) 0.3703(3)
H19 H 0.9030 0.5388 0.4196
N2_2 N 0.8519(2) 0.07721(13) 0.01140(17)
N3_2 N 0.9818(3) 0.49664(15) 0.24725(17)
C13_2 C 0.7837(3) 0.03375(16) 0.9657(2)
H7_2 H 0.7416 0.0457 0.9176
C16_2 C 0.8729(3) 0.14724(16) 0.9915(2)
C17_2 C 0.7757(3) 0.18665(18) 0.9645(2)
H10_2 H 0.6962 0.1688 0.9616
C18_2 C 0.7977(4) 0.25310(19) 0.9415(3)
H11_2 H 0.7331 0.2802 0.9221
C19_2 C 0.9155(3) 0.27929(16) 0.9475(2)
C21_2 C 0.9903(3) 0.17354(18) 0.9991(3)
O5_2 O 0.8341(3) 0.38976(13) 0.87800(18)
S1_2 S 0.94216(10) 0.36496(5) 0.92018(6)
C1_2 C 0.9077(3) 0.8043(2) 0.7412(2)
C2_2 C 0.9107(4) 0.7351(2) 0.7436(2)
H1_2 H 0.8718 0.7123 0.7860
C3_2 C 0.9717(4) 0.6974(2) 0.6829(2)
H2_2 H 0.9713 0.6501 0.6855
C6_2 C 0.9693(3) 0.83949(19) 0.6777(2)
C7_2 C 0.9694(5) 0.9112(2) 0.6689(4)
H3_2 H 0.9274 0.9376 0.7067
C11_2 C 0.8344(4) 0.8389(2) 0.8079(2)
N1_2 N 0.7840(2) 0.97237(13) 0.99738(16)
O1_2 O 0.8519(3) 0.90005(18) 0.8248(2)
O2_2 O 0.7576(3) 0.80368(17) 0.8457(2)
Cd1 Cd 0.68829(2) 0.884862(11) 0.931679(13)
N5 N 0.5576(3) 0.94653(15) 0.85259(16)
C29_2 C 0.4426(4) 0.9691(3) 0.8703(3)
H19_2 H 0.4030 0.9612 0.9196
C30_2 C 0.5778(3) 0.96854(18) 0.77827(19)
H20_2 H 0.6506 0.9608 0.7502
C29_3 C 0.5574(4) 0.0309(3) 0.1297(3)
H19_3 H 0.5970 0.0388 0.0804
C30_3 C 0.4222(3) 0.03146(18) 0.22173(19)
H20_3 H 0.3494 0.0392 0.2498
N4_2 N 0.4424(3) 0.05347(15) 0.14741(16)
Cd3_2 Cd 0.31171(2) 0.115138(11) 0.068321(13)
C1_3 C 0.0923(3) 0.1957(2) 0.2588(2)
C2_3 C 0.0893(4) 0.2649(2) 0.2564(2)
H1_3 H 0.1282 0.2877 0.2140
C3_3 C 0.0283(4) 0.3026(2) 0.3171(2)
H2_3 H 0.0287 0.3499 0.3145
C6_3 C 0.0307(3) 0.16051(19) 0.3223(2)
C7_3 C 0.0306(5) 0.0888(2) 0.3311(4)
H3_3 H 0.0726 0.0624 0.2933
C11_3 C 0.1656(4) 0.1611(2) 0.1921(2)
N1_3 N 0.2160(2) 0.02763(13) 0.00262(16)
O1_3 O 0.1481(3) 0.09995(18) 0.1752(2)
O2_3 O 0.2424(3) 0.19632(17) 0.1543(2)
C1_4 C 0.5923(3) 0.3043(2) 0.7588(2)
C2_4 C 0.5893(4) 0.2351(2) 0.7564(2)
H1_4 H 0.6282 0.2123 0.7140
C3_4 C 0.5283(4) 0.1974(2) 0.8171(2)
H2_4 H 0.5287 0.1501 0.8145
C4_3 C 0.4691(3) 0.22862(18) 0.8789(2)
C5_3 C 0.4678(3) 0.30124(19) 0.8830(2)
C6_4 C 0.5307(3) 0.33949(19) 0.8223(2)
C7_4 C 0.5306(5) 0.4112(2) 0.8311(4)
H3_4 H 0.5726 0.4376 0.7933
C8_3 C 0.4709(5) 0.4421(3) 0.8928(4)
H4_3 H 0.4712 0.4893 0.8960
C9_3 C 0.4089(6) 0.4044(3) 0.9518(4)
H5_3 H 0.3681 0.4266 0.9939
C10_3 C 0.4079(4) 0.3359(3) 0.9480(3)
H6_3 H 0.3677 0.3111 0.9882
C11_4 C 0.6656(4) 0.3389(2) 0.6921(2)
C12_3 C 0.4103(3) 0.18598(18) 0.9444(2)
C13_3 C 0.7163(3) 0.53375(16) 0.5343(2)
H7_3 H 0.7584 0.5457 0.5824
C14_3 C 0.6440(3) 0.47659(18) 0.4327(2)
H8_3 H 0.6275 0.4408 0.3968
C15_3 C 0.6004(3) 0.54093(17) 0.4240(2)
H9_3 H 0.5484 0.5571 0.3823
C16_3 C 0.6271(3) 0.64724(16) 0.5085(2)
C17_3 C 0.7243(3) 0.68665(18) 0.5355(2)
H10_3 H 0.8038 0.6688 0.5384
C18_3 C 0.7023(4) 0.75310(19) 0.5585(3)
H11_3 H 0.7669 0.7802 0.5779
C19_3 C 0.5845(3) 0.77929(16) 0.5525(2)
C20_3 C 0.4881(3) 0.74015(18) 0.5234(3)
H12_3 H 0.4091 0.7584 0.5189
C21_3 C 0.5097(3) 0.67354(18) 0.5009(3)
H13_3 H 0.4453 0.6466 0.4807
C22_3 C 0.5462(4) 0.90648(17) 0.4836(2)
C23_3 C 0.6502(4) 0.9330(2) 0.4491(3)
H14_3 H 0.7261 0.9304 0.4766
C24_3 C 0.6404(4) 0.9636(2) 0.3727(3)
H15_3 H 0.7099 0.9825 0.3489
C25_3 C 0.5276(3) 0.96613(16) 0.3319(2)
C26_3 C 0.4237(3) 0.93959(19) 0.3668(2)
H16_3 H 0.3482 0.9413 0.3389
C27_3 C 0.4323(4) 0.9102(2) 0.4442(2)
H17_3 H 0.3622 0.8932 0.4692
C28_3 C 0.6058(4) 0.9960(3) 0.1925(3)
H18_3 H 0.6831 0.9754 0.1951
N1_4 N 0.7160(2) 0.47237(13) 0.50262(16)
N2_3 N 0.6481(2) 0.57721(13) 0.48860(17)
N3_3 N 0.5182(3) 0.99664(15) 0.25275(17)
O1_4 O 0.6481(3) 0.40005(18) 0.6752(2)
O2_4 O 0.7424(3) 0.30368(17) 0.6543(2)
O3_2 O 0.4777(2) 0.14818(17) 0.98624(19)
O4_2 O 0.2972(2) 0.18879(18) 0.9548(2)
O5_3 O 0.6659(3) 0.88976(13) 0.62200(18)
O6_3 O 0.4392(3) 0.86846(15) 0.61750(18)
S1_3 S 0.55784(10) 0.86496(5) 0.57982(6)
Cd1_2 Cd 0.81171(2) 0.384862(11) 0.568321(13)
N5_2 N 0.9424(3) 0.44653(15) 0.64741(16)
O7_2 O 0.9777(2) 0.35182(17) 0.48624(19)
O8_2 O 0.7972(2) 0.31121(18) 0.4548(2)
C14_4 C 0.1440(3) 0.02341(18) 0.9327(2)
H8_4 H 0.1275 0.0592 0.8968
C4_4 C 0.9691(3) 0.27138(18) 0.3789(2)
C5_4 C 0.9678(3) 0.19876(19) 0.3830(2)
C8_4 C 0.9709(5) 0.0579(3) 0.3928(4)
H4_4 H 0.9712 0.0107 0.3960
C9_4 C 0.9089(6) 0.0956(3) 0.4518(4)
H5_4 H 0.8681 0.0734 0.4939
C10_4 C 0.9079(4) 0.1641(3) 0.4480(3)
H6_4 H 0.8677 0.1889 0.4882
C12_4 C 0.9103(3) 0.31402(18) 0.4444(2)
H13_4 H 0.9453 0.8534 0.9807
C26_4 C 0.9237(3) 0.56041(19) 0.8668(2)
H16_4 H 0.8482 0.5587 0.8389
C27_4 C 0.9323(4) 0.5898(2) 0.9442(2)
H17_4 H 0.8622 0.6068 0.9692
C30_4 C 0.9222(3) 0.46854(18) 0.72173(19)
H20_4 H 0.8494 0.4608 0.7498
C13_4 C 0.2163(3) 0.96625(16) 0.0343(2)
H7_4 H 0.2584 0.9543 0.0824
C16_4 C 0.1271(3) 0.85276(16) 0.0085(2)
C17_4 C 0.2243(3) 0.81335(18) 0.0355(2)
H10_4 H 0.3038 0.8312 0.0384
C18_4 C 0.2023(4) 0.74690(19) 0.0585(3)
H11_4 H 0.2669 0.7198 0.0779
C19_4 C 0.0845(3) 0.72071(16) 0.0525(2)
C21_4 C 0.0097(3) 0.82646(18) 0.0009(3)
O5_4 O 0.1659(3) 0.61024(13) 0.12200(18)
S1_4 S 0.05784(10) 0.63504(5) 0.07982(6)
C15_4 C 0.1004(3) 0.95907(17) 0.9240(2)
H9_4 H 0.0484 0.9429 0.8823
C22_4 C 0.0462(4) 0.59352(17) 0.9836(2)
C23_4 C 0.1502(4) 0.5670(2) 0.9491(3)
H14_4 H 0.2261 0.5696 0.9766
C24_4 C 0.1404(4) 0.5364(2) 0.8727(3)
H15_4 H 0.2099 0.5175 0.8489
C25_4 C 0.0276(3) 0.53387(16) 0.8319(2)
C28_4 C 0.1058(4) 0.5040(3) 0.6925(3)
H18_4 H 0.1831 0.5246 0.6951
C29_4 C 0.0574(4) 0.4691(3) 0.6297(3)
H19_4 H 0.0970 0.4612 0.5804
N2_4 N 0.1481(2) 0.92279(13) 0.98860(17)
N3_4 N 0.0182(3) 0.50336(15) 0.75275(17)
C20_4 C 0.9881(3) 0.75985(18) 0.0234(3)
H12_4 H 0.9091 0.7416 0.0189
O6_4 O 0.9392(3) 0.63154(15) 0.11750(18)
loop_
_geom_bond_atom_site_label_1
_geom_bond_atom_site_label_2
_geom_bond_site_symmetry_1
_geom_bond_site_symmetry_2
H16 C26 1_555 1_555
H17 C27 1_555 1_555
C30 H20 1_555 1_555
Cd3 N4 1_555 1_555
C26 C27 1_555 1_555
C30 N4 1_555 1_555
C5 C4 1_555 1_555
H4 C8 1_555 1_555
C9 C8 1_555 1_555
H5 C9 1_555 1_555
C10 C5 1_555 1_555
H6 C10 1_555 1_555
C12 C4 1_555 1_555
O3 C12 1_555 1_555
O4 C12 1_555 1_555
Cd3 O3 1_555 1_555
C9 C10 1_555 1_555
O4 Cd3 1_555 1_555
C14 H8 1_555 1_555
C1 C2 1_555 1_555
C2 H1 1_555 1_555
C3 C2 1_555 1_555
H2 C3 1_555 1_555
C4_2 C3 1_555 1_555
C5_2 C4_2 1_555 1_555
C6 C1 1_555 1_555
C7 C6 1_555 1_555
H3 C7 1_555 1_555
C8_2 C7 1_555 1_555
H4_2 C8_2 1_555 1_555
C9_2 C8_2 1_555 1_555
H5_2 C9_2 1_555 1_555
C10_2 C5_2 1_555 1_555
H6_2 C10_2 1_555 1_555
C11 C1 1_555 1_555
C12_2 C4_2 1_555 1_555
C13 H7 1_555 1_555
C14_2 H8_2 1_555 1_555
C15 C14_2 1_555 1_555
H9 C15 1_555 1_555
C16 C17 1_555 1_555
C17 H10 1_555 1_555
C18 C17 1_555 1_555
H11 C18 1_555 1_555
C19 C18 1_555 1_555
C20 C19 1_555 1_555
H12 C20 1_555 1_555
C21 C16 1_555 1_555
H13_2 C21 1_555 1_555
C22 C23 1_555 1_555
C23 H14 1_555 1_555
C24 C23 1_555 1_555
H15 C24 1_555 1_555
C25 C24 1_555 1_555
C26_2 C25 1_555 1_555
H16_2 C26_2 1_555 1_555
C27_2 C22 1_555 1_555
H17_2 C27_2 1_555 1_555
C28 H18 1_555 1_555
N1 C13 1_555 1_555
N2 C13 1_555 1_555
N3 C25 1_555 1_555
O1 C11 1_555 1_555
O2 C11 1_555 1_555
O7 C12_2 1_555 1_555
O8 C12_2 1_555 1_555
O5 S1 1_555 1_555
O6 S1 1_555 1_555
S1 C19 1_555 1_555
Cd3 N1 1_555 1_555
C5_2 C6 1_555 1_555
C9_2 C10_2 1_555 1_555
C14_2 N1 1_555 1_555
C15 N2 1_555 1_555
C16 N2 1_555 1_555
C20 C21 1_555 1_555
C22 S1 1_555 1_555
C26_2 C27_2 1_555 1_555
C28 N3 1_555 1_555
O1 Cd3 1_555 1_555
O2 Cd3 1_555 1_555
H12_2 C20_2 1_555 1_555
H9_2 C15_2 1_555 1_555
C22_2 C23_2 1_555 1_555
C23_2 H14_2 1_555 1_555
C24_2 C23_2 1_555 1_555
H15_2 C24_2 1_555 1_555
C25_2 C24_2 1_555 1_555
C28_2 H18_2 1_555 1_555
C29 C28_2 1_555 1_555
H19 C29 1_555 1_555
N3_2 C25_2 1_555 1_555
C15_2 N2_2 1_555 1_555
C28_2 N3_2 1_555 1_555
C13_2 H7_2 1_555 1_555
C16_2 C17_2 1_555 1_555
C17_2 H10_2 1_555 1_555
C18_2 C17_2 1_555 1_555
H11_2 C18_2 1_555 1_555
C19_2 C18_2 1_555 1_555
C21_2 C16_2 1_555 1_555
O5_2 S1_2 1_555 1_555
S1_2 C19_2 1_555 1_555
C1_2 C2_2 1_555 1_555
C2_2 H1_2 1_555 1_555
C3_2 C2_2 1_555 1_555
H2_2 C3_2 1_555 1_555
C6_2 C1_2 1_555 1_555
C7_2 C6_2 1_555 1_555
H3_2 C7_2 1_555 1_555
C11_2 C1_2 1_555 1_555
O1_2 C11_2 1_555 1_555
O2_2 C11_2 1_555 1_555
Cd1 N1_2 1_555 1_555
N5 Cd1 1_555 1_555
O1_2 Cd1 1_555 1_555
O2_2 Cd1 1_555 1_555
H19_2 C29_2 1_555 1_555
C30_2 H20_2 1_555 1_555
N5 C29_2 1_555 1_555
C30_2 N5 1_555 1_555
H19_3 C29_3 1_555 1_555
C30_3 H20_3 1_555 1_555
N4_2 C29_3 1_555 1_555
Cd3_2 N4_2 1_555 1_555
C30_3 N4_2 1_555 1_555
C1_3 C2_3 1_555 1_555
C2_3 H1_3 1_555 1_555
C3_3 C2_3 1_555 1_555
H2_3 C3_3 1_555 1_555
C6_3 C1_3 1_555 1_555
C7_3 C6_3 1_555 1_555
H3_3 C7_3 1_555 1_555
C11_3 C1_3 1_555 1_555
O1_3 C11_3 1_555 1_555
O2_3 C11_3 1_555 1_555
Cd3_2 N1_3 1_555 1_555
O1_3 Cd3_2 1_555 1_555
O2_3 Cd3_2 1_555 1_555
C1_4 C2_4 1_555 1_555
C2_4 H1_4 1_555 1_555
C3_4 C2_4 1_555 1_555
H2_4 C3_4 1_555 1_555
C4_3 C3_4 1_555 1_555
C5_3 C4_3 1_555 1_555
C6_4 C1_4 1_555 1_555
C7_4 C6_4 1_555 1_555
H3_4 C7_4 1_555 1_555
C8_3 C7_4 1_555 1_555
H4_3 C8_3 1_555 1_555
C9_3 C8_3 1_555 1_555
H5_3 C9_3 1_555 1_555
C10_3 C5_3 1_555 1_555
H6_3 C10_3 1_555 1_555
C11_4 C1_4 1_555 1_555
C12_3 C4_3 1_555 1_555
C13_3 H7_3 1_555 1_555
C14_3 H8_3 1_555 1_555
C15_3 C14_3 1_555 1_555
H9_3 C15_3 1_555 1_555
C16_3 C17_3 1_555 1_555
C17_3 H10_3 1_555 1_555
C18_3 C17_3 1_555 1_555
H11_3 C18_3 1_555 1_555
C19_3 C18_3 1_555 1_555
C20_3 C19_3 1_555 1_555
H12_3 C20_3 1_555 1_555
C21_3 C16_3 1_555 1_555
H13_3 C21_3 1_555 1_555
C22_3 C23_3 1_555 1_555
C23_3 H14_3 1_555 1_555
C24_3 C23_3 1_555 1_555
H15_3 C24_3 1_555 1_555
C25_3 C24_3 1_555 1_555
C26_3 C25_3 1_555 1_555
H16_3 C26_3 1_555 1_555
C27_3 C22_3 1_555 1_555
H17_3 C27_3 1_555 1_555
C28_3 H18_3 1_555 1_555
N1_4 C13_3 1_555 1_555
N2_3 C13_3 1_555 1_555
N3_3 C25_3 1_555 1_555
O1_4 C11_4 1_555 1_555
O2_4 C11_4 1_555 1_555
O3_2 C12_3 1_555 1_555
O4_2 C12_3 1_555 1_555
O5_3 S1_3 1_555 1_555
O6_3 S1_3 1_555 1_555
S1_3 C19_3 1_555 1_555
Cd1_2 N1_4 1_555 1_555
N5_2 Cd1_2 1_555 1_555
O7_2 Cd1_2 1_555 1_555
O8_2 Cd1_2 1_555 1_555
C5_3 C6_4 1_555 1_555
C9_3 C10_3 1_555 1_555
C14_3 N1_4 1_555 1_555
C15_3 N2_3 1_555 1_555
C16_3 N2_3 1_555 1_555
C20_3 C21_3 1_555 1_555
C22_3 S1_3 1_555 1_555
C26_3 C27_3 1_555 1_555
C28_3 N3_3 1_555 1_555
O1_4 Cd1_2 1_555 1_555
O2_4 Cd1_2 1_555 1_555
C14_4 H8_4 1_555 1_555
C5_4 C4_4 1_555 1_555
H4_4 C8_4 1_555 1_555
C9_4 C8_4 1_555 1_555
H5_4 C9_4 1_555 1_555
C10_4 C5_4 1_555 1_555
H6_4 C10_4 1_555 1_555
C12_4 C4_4 1_555 1_555
O7_2 C12_4 1_555 1_555
O8_2 C12_4 1_555 1_555
C9_4 C10_4 1_555 1_555
H16_4 C26_4 1_555 1_555
H17_4 C27_4 1_555 1_555
C30_4 H20_4 1_555 1_555
C26_4 C27_4 1_555 1_555
C30_4 N5_2 1_555 1_555
C13_4 H7_4 1_555 1_555
C16_4 C17_4 1_555 1_555
C17_4 H10_4 1_555 1_555
C18_4 C17_4 1_555 1_555
H11_4 C18_4 1_555 1_555
C19_4 C18_4 1_555 1_555
C21_4 C16_4 1_555 1_555
O5_4 S1_4 1_555 1_555
S1_4 C19_4 1_555 1_555
H9_4 C15_4 1_555 1_555
C22_4 C23_4 1_555 1_555
C23_4 H14_4 1_555 1_555
C24_4 C23_4 1_555 1_555
H15_4 C24_4 1_555 1_555
C25_4 C24_4 1_555 1_555
C28_4 H18_4 1_555 1_555
C29_4 C28_4 1_555 1_555
H19_4 C29_4 1_555 1_555
N3_4 C25_4 1_555 1_555
C15_4 N2_4 1_555 1_555
C28_4 N3_4 1_555 1_555
H12_4 C20_4 1_555 1_555

#END
