
###############################################################################
#
# This file contains modified crystal structure data generated from the
# MOF subset of the Cambridge Structural Database (CSD) v543 
# hosted by the Cambridge Crystallographic Data Centre (CCDC).
#
# This work is licensed under the Creative Commons
# Attribution-NonCommercial-ShareAlike 4.0 International License.
# To view a copy of this license, visit
# http://creativecommons.org/licenses/by-nc-sa/4.0/
# or send a letter to
# Creative Commons, PO Box 1866, Mountain View, CA 94042, USA.
#
# CIF created using the CSD Python API on 29 September 2022
# The structure has been converted into the P1 space group
# The structure has a 3D framework
# The original CSD entry BUPGID is in the monoclinic crystal system
# The framework has been calculated to contain at least 10.0% void space
# The void calculation uses a probe of radius 1.32A, grid spacing 0.4
#
###############################################################################

data_BUPGID
_chemical_formula_moiety         '(C120 H120 Co8 N24 O48)n'
_symmetry_cell_setting           triclinic
_symmetry_space_group_name_H-M   'P 1'
_symmetry_Int_Tables_number      1
_space_group_name_Hall           'P 1'
loop_
_symmetry_equiv_pos_site_id
_symmetry_equiv_pos_as_xyz
1 x,y,z
_cell_length_a                   11.5018(6)
_cell_length_b                   22.2844(12)
_cell_length_c                   14.1872(8)
_cell_angle_alpha                90
_cell_angle_beta                 102.802(2)
_cell_angle_gamma                90
_cell_volume                     3545.94
loop_
_atom_site_label
_atom_site_type_symbol
_atom_site_fract_x
_atom_site_fract_y
_atom_site_fract_z
C27 C 0.0318(4) 0.2372(2) 0.0202(3)
H18 H 0.0011 0.2727 0.0392
C28 C 0.1499(4) 0.2344(2) 0.0168(3)
H19 H 0.1958 0.2689 0.0329
C24 C 0.7709(4) 0.1341(2) 0.0044(3)
H16 H 0.8115 0.0978 0.0096
C25 C 0.6514(4) 0.1351(2) 0.0027(3)
H17 H 0.6137 0.0985 0.0061
O11 O 0.4236(3) 0.24745(13) 0.1027(2)
H27 H 0.4842 0.2686 0.1000
H28 H 0.4351 0.2295 0.1568
O12 O 0.4137(3) 0.11211(14) 0.0917(2)
H29 H 0.3662 0.0874 0.0573
H30 H 0.4577 0.0936 0.1388
C29 C 0.1323(4) 0.1403(2) 0.9674(3)
H20 H 0.1647 0.1058 0.9469
C30 C 0.0141(4) 0.1395(2) 0.9692(3)
N6 N 0.2028(3) 0.18614(16) 0.9923(3)
Co5 Co 0.39535(5) 0.18313(3) 0.99168(4)
C49 C 0.1253(4) 0.55150(19) 0.9876(3)
H42 H 0.0844 0.5877 0.9755
C50 C 0.2468(4) 0.54966(19) 0.9910(3)
H43 H 0.2845 0.5853 0.9810
Co3 Co 0.5000 0.5000 1.0000
C8 C 0.3470(4) 0.0304(2) 0.7834(3)
H4 H 0.3098 0.0577 0.7323
H5 H 0.4267 0.0218 0.7751
C9 C 0.3560(4) 0.0612(2) 0.8803(3)
C21 C 0.6431(4) 0.2368(2) 0.9923(3)
H14 H 0.6007 0.2726 0.9886
C22 C 0.7631(4) 0.2394(2) 0.9934(3)
H15 H 0.7987 0.2766 0.9908
C23 C 0.8320(4) 0.1881(2) 0.9983(3)
C26 C 0.9586(4) 0.1890(2) 0.9962(3)
H21 H 0.9703 0.1046 0.9518
N5 N 0.5847(3) 0.18516(16) 0.9963(3)
O2 O 0.3510(3) 0.03044(13) 0.9522(2)
O3 O 0.3710(3) 0.11752(13) 0.8793(2)
O18 O 0.3549(3) 0.25433(14) 0.9010(2)
C1 C 0.2340(4) 0.87094(19) 0.7416(3)
C2 C 0.1140(4) 0.88000(19) 0.7270(3)
H1 H 0.0835 0.9186 0.7155
C3 C 0.0362(4) 0.83212(18) 0.7291(3)
C4 C 0.0819(4) 0.77448(19) 0.7426(3)
H2 H 0.0310 0.7424 0.7453
C5 C 0.2035(4) 0.76418(19) 0.7522(3)
C6 C 0.2788(4) 0.81350(19) 0.7511(3)
H3 H 0.3600 0.8073 0.7568
C7 C 0.3202(4) 0.92272(19) 0.7492(3)
C13 C 0.2477(4) 0.7011(2) 0.7674(3)
C14 C 0.3982(4) 0.62716(19) 0.7556(3)
H8 H 0.4614 0.6244 0.7204
H9 H 0.3357 0.5996 0.7253
C15 C 0.4472(4) 0.60646(19) 0.8584(3)
C16 C 0.7468(4) 0.5494(2) 0.9785(3)
H10 H 0.7043 0.5852 0.9667
C17 C 0.8667(4) 0.5512(2) 0.9806(3)
H11 H 0.9019 0.5875 0.9702
C18 C 0.9359(4) 0.5002(2) 0.9979(3)
N1 N 0.2774(3) 0.97361(16) 0.7736(2)
H22 H 0.2587 0.9673 0.8311
N3 N 0.3507(3) 0.68742(16) 0.7450(3)
H24 H 0.3900 0.7150 0.7234
N4 N 0.6870(3) 0.49991(16) 0.9922(3)
O1 O 0.4208(3) 0.91585(13) 0.7355(2)
O7 O 0.1885(3) 0.66219(13) 0.8009(2)
O8 O 0.4788(3) 0.64486(13) 0.9241(2)
O9 O 0.4530(3) 0.55028(13) 0.8710(2)
O24 O 0.4683(3) 0.42186(13) 0.91589(19)
H55 H 0.5314 0.4032 0.9430
H56 H 0.4853 0.4482 0.8777
C10 C 0.9094(4) 0.84927(18) 0.7248(3)
C11 C 0.7106(4) 0.8201(2) 0.7313(4)
H6 H 0.6895 0.8600 0.7059
H7 H 0.7053 0.8197 0.7986
C12 C 0.6220(4) 0.77433(18) 0.6745(3)
N2 N 0.8313(3) 0.80669(16) 0.7248(2)
H23 H 0.8260 0.7862 0.6694
O4 O 0.8837(3) 0.90157(13) 0.7272(2)
O5 O 0.6451(3) 0.75433(14) 0.5990(2)
O6 O 0.5318(3) 0.76298(12) 0.7062(2)
Co6 Co 0.60465(5) 0.68313(3) 0.50832(4)
C10_2 C 0.0906(4) 0.34927(18) 0.7752(3)
C11_2 C 0.2894(4) 0.3201(2) 0.7687(4)
H6_2 H 0.3105 0.3600 0.7941
H7_2 H 0.2947 0.3197 0.7014
C12_2 C 0.3780(4) 0.27433(18) 0.8255(3)
N2_2 N 0.1687(3) 0.30669(16) 0.7752(2)
H23_2 H 0.1740 0.2862 0.8306
O4_2 O 0.1163(3) 0.40157(13) 0.7728(2)
O6_2 O 0.4682(3) 0.26298(12) 0.7938(2)
C51 C 0.3569(4) 0.7368(2) 0.5077(3)
H44 H 0.3993 0.7726 0.5114
C52 C 0.2369(4) 0.7394(2) 0.5066(3)
H45 H 0.2013 0.7766 0.5092
C53 C 0.1680(4) 0.6881(2) 0.5017(3)
C54 C 0.2291(4) 0.6341(2) 0.4956(3)
H46 H 0.1885 0.5978 0.4904
C55 C 0.3486(4) 0.6351(2) 0.4973(3)
H47 H 0.3863 0.5985 0.4939
C56 C 0.0414(4) 0.6890(2) 0.5038(3)
H51 H 0.0297 0.6046 0.5482
N12 N 0.4153(3) 0.68516(16) 0.5037(3)
C1_2 C 0.7660(4) 0.37094(19) 0.7584(3)
C2_2 C 0.8860(4) 0.38000(19) 0.7730(3)
H1_2 H 0.9165 0.4186 0.7845
C3_2 C 0.9638(4) 0.33212(18) 0.7709(3)
C4_2 C 0.9181(4) 0.27448(19) 0.7574(3)
H2_2 H 0.9690 0.2424 0.7547
C5_2 C 0.7965(4) 0.26418(19) 0.7478(3)
C6_2 C 0.7212(4) 0.31350(19) 0.7489(3)
H3_2 H 0.6400 0.3073 0.7432
C7_2 C 0.6798(4) 0.42272(19) 0.7508(3)
C8_2 C 0.6530(4) 0.5304(2) 0.7166(3)
H4_2 H 0.6902 0.5577 0.7677
H5_2 H 0.5733 0.5218 0.7249
C9_2 C 0.6440(4) 0.5612(2) 0.6197(3)
C13_2 C 0.7523(4) 0.2011(2) 0.7326(3)
C14_2 C 0.6018(4) 0.12716(19) 0.7444(3)
H8_2 H 0.5386 0.1244 0.7796
H9_2 H 0.6643 0.0996 0.7747
C15_2 C 0.5528(4) 0.10646(19) 0.6416(3)
C16_2 C 0.2532(4) 0.0494(2) 0.5215(3)
H10_2 H 0.2957 0.0852 0.5333
C17_2 C 0.1333(4) 0.0512(2) 0.5194(3)
H11_2 H 0.0981 0.0875 0.5298
C18_2 C 0.0641(4) 0.0002(2) 0.5021(3)
Co1 Co 0.5000 0.0000 0.5000
N1_2 N 0.7226(3) 0.47361(16) 0.7264(2)
H22_2 H 0.7413 0.4673 0.6689
N3_2 N 0.6493(3) 0.18742(16) 0.7550(3)
H24_2 H 0.6100 0.2150 0.7766
O1_2 O 0.5792(3) 0.41585(13) 0.7645(2)
O2_2 O 0.6490(3) 0.53044(13) 0.5478(2)
O3_2 O 0.6290(3) 0.61752(13) 0.6207(2)
O7_2 O 0.8115(3) 0.16219(13) 0.6991(2)
O8_2 O 0.5212(3) 0.14486(13) 0.5759(2)
O9_2 O 0.5470(3) 0.05028(13) 0.6290(2)
O10 O 0.4683(3) 0.07814(13) 0.41589(19)
H25 H 0.5314 0.0968 0.4430
H26 H 0.4853 0.0518 0.3777
O11_2 O 0.5764(3) 0.74745(13) 0.3973(2)
H27_2 H 0.5158 0.7686 0.4000
H28_2 H 0.5649 0.7295 0.3432
O12_2 O 0.5863(3) 0.61211(14) 0.4083(2)
H29_2 H 0.6338 0.5874 0.4427
H30_2 H 0.5423 0.5936 0.3612
C57 C 0.9682(4) 0.7372(2) 0.4798(3)
H48 H 0.9989 0.7727 0.4608
C58 C 0.8501(4) 0.7344(2) 0.4832(3)
H49 H 0.8042 0.7689 0.4671
C59 C 0.8677(4) 0.6403(2) 0.5326(3)
H50 H 0.8353 0.6058 0.5531
C60 C 0.9859(4) 0.6395(2) 0.5308(3)
N11 N 0.6870(3) 0.00009(16) 0.4922(3)
N14 N 0.7972(3) 0.68614(16) 0.5077(3)
C49_2 C 0.8747(4) 0.05150(19) 0.5124(3)
H42_2 H 0.9156 0.0877 0.5245
C50_2 C 0.7532(4) 0.04966(19) 0.5090(3)
H43_2 H 0.7155 0.0853 0.5190
C40 C 0.0906(4) 0.15073(18) 0.2752(3)
C41 C 0.2894(4) 0.1799(2) 0.2687(4)
H36 H 0.3105 0.1400 0.2941
H37 H 0.2947 0.1803 0.2014
C42 C 0.3780(4) 0.22567(18) 0.3255(3)
C46 C 0.2532(4) 0.4506(2) 0.0215(3)
H40 H 0.2957 0.4148 0.0333
C47 C 0.1333(4) 0.4488(2) 0.0194(3)
H41 H 0.0981 0.4125 0.0298
C48 C 0.0641(4) 0.4998(2) 0.0021(3)
Co3_2 Co 0.5000 0.5000 -0.0000
Co7 Co 0.39535(5) 0.31687(3) 0.49168(4)
N8 N 0.1687(3) 0.19331(16) 0.2752(2)
H53 H 0.1740 0.2138 0.3306
N10 N 0.3130(3) 0.50009(16) 0.0078(3)
O16 O 0.1163(3) 0.09843(13) 0.2728(2)
O17 O 0.3549(3) 0.24567(14) 0.4010(2)
O20 O 0.4682(3) 0.23702(12) 0.2938(2)
C19 C 0.8747(4) 0.44850(19) 0.0124(3)
H12 H 0.9156 0.4123 0.0245
C20 C 0.7532(4) 0.45034(19) 0.0090(3)
H13 H 0.7155 0.4147 0.0190
O10_2 O 0.5317(3) 0.57814(13) 0.08411(19)
H25_2 H 0.4686 0.5968 0.0570
H26_2 H 0.5147 0.5518 0.1223
C31 C 0.7660(4) 0.12906(19) 0.2584(3)
C32 C 0.8860(4) 0.12000(19) 0.2730(3)
H31 H 0.9165 0.0814 0.2845
C33 C 0.9638(4) 0.16788(18) 0.2709(3)
C34 C 0.9181(4) 0.22552(19) 0.2574(3)
H32 H 0.9690 0.2576 0.2547
C35 C 0.7965(4) 0.23582(19) 0.2478(3)
C36 C 0.7212(4) 0.18650(19) 0.2489(3)
H33 H 0.6400 0.1927 0.2432
C37 C 0.6798(4) 0.07728(19) 0.2508(3)
C43 C 0.7523(4) 0.2989(2) 0.2326(3)
C44 C 0.6018(4) 0.37284(19) 0.2444(3)
H38 H 0.5386 0.3756 0.2796
H39 H 0.6643 0.4004 0.2747
C45 C 0.5528(4) 0.39354(19) 0.1416(3)
N7 N 0.7226(3) 0.02639(16) 0.2264(2)
H52 H 0.7413 0.0327 0.1689
N9 N 0.6493(3) 0.31258(16) 0.2550(3)
H54 H 0.6100 0.2850 0.2766
O13 O 0.5792(3) 0.08415(13) 0.2645(2)
O21 O 0.8115(3) 0.33781(13) 0.1991(2)
O22 O 0.5212(3) 0.35514(13) 0.0759(2)
O23 O 0.5470(3) 0.44972(13) 0.1290(2)
C38 C 0.6530(4) 0.9696(2) 0.2166(3)
H34 H 0.6902 0.9423 0.2677
H35 H 0.5733 0.9782 0.2249
C39 C 0.6440(4) 0.9388(2) 0.1197(3)
Co4 Co 0.60465(5) 0.81687(3) 0.00832(4)
N13 N 0.4153(3) 0.81484(16) 0.0037(3)
N15 N 0.7972(3) 0.81386(16) 0.0077(3)
O14 O 0.6490(3) 0.96956(13) 0.0478(2)
O15 O 0.6290(3) 0.88248(13) 0.1207(2)
O19 O 0.6451(3) 0.74567(14) 0.0990(2)
C19_2 C 0.1253(4) 0.94850(19) 0.4876(3)
H12_2 H 0.0844 0.9123 0.4755
C20_2 C 0.2468(4) 0.95034(19) 0.4910(3)
H13_2 H 0.2845 0.9147 0.4810
Co1_2 Co 0.5000 1.0000 0.5000
N4_2 N 0.3130(3) 0.99991(16) 0.5078(3)
C31_2 C 0.2340(4) 0.62906(19) 0.2416(3)
C32_2 C 0.1140(4) 0.62000(19) 0.2270(3)
H31_2 H 0.0835 0.5814 0.2155
C33_2 C 0.0362(4) 0.66788(18) 0.2291(3)
C34_2 C 0.0819(4) 0.72552(19) 0.2426(3)
H32_2 H 0.0310 0.7576 0.2453
C35_2 C 0.2035(4) 0.73582(19) 0.2522(3)
C36_2 C 0.2788(4) 0.68650(19) 0.2511(3)
H33_2 H 0.3600 0.6927 0.2568
C37_2 C 0.3202(4) 0.57728(19) 0.2492(3)
C38_2 C 0.3470(4) 0.4696(2) 0.2834(3)
H34_2 H 0.3098 0.4423 0.2323
H35_2 H 0.4267 0.4782 0.2751
C39_2 C 0.3560(4) 0.4388(2) 0.3803(3)
C43_2 C 0.2477(4) 0.7989(2) 0.2674(3)
C44_2 C 0.3982(4) 0.87284(19) 0.2556(3)
H38_2 H 0.4614 0.8756 0.2204
H39_2 H 0.3357 0.9004 0.2253
C45_2 C 0.4472(4) 0.89354(19) 0.3584(3)
N7_2 N 0.2774(3) 0.52639(16) 0.2736(2)
H52_2 H 0.2587 0.5327 0.3311
N9_2 N 0.3507(3) 0.81258(16) 0.2450(3)
H54_2 H 0.3900 0.7850 0.2234
N13_2 N 0.5847(3) 0.31484(16) 0.4963(3)
N15_2 N 0.2028(3) 0.31386(16) 0.4923(3)
O13_2 O 0.4208(3) 0.58415(13) 0.2355(2)
O14_2 O 0.3510(3) 0.46956(13) 0.4522(2)
O15_2 O 0.3710(3) 0.38248(13) 0.3793(2)
O21_2 O 0.1885(3) 0.83781(13) 0.3009(2)
O22_2 O 0.4788(3) 0.85514(13) 0.4241(2)
O23_2 O 0.4530(3) 0.94972(13) 0.3710(2)
O24_2 O 0.5317(3) 0.92186(13) 0.58411(19)
H55_2 H 0.4686 0.9032 0.5570
H56_2 H 0.5147 0.9482 0.6223
O25 O 0.4236(3) 0.25255(13) 0.6027(2)
H57 H 0.4842 0.2314 0.6000
H58 H 0.4351 0.2705 0.6568
O26 O 0.4137(3) 0.38789(14) 0.5917(2)
H59 H 0.3662 0.4126 0.5573
H60 H 0.4577 0.4064 0.6388
C40_2 C 0.9094(4) 0.65073(18) 0.2248(3)
C41_2 C 0.7106(4) 0.6799(2) 0.2313(4)
H36_2 H 0.6895 0.6400 0.2059
H37_2 H 0.7053 0.6803 0.2986
C42_2 C 0.6220(4) 0.72567(18) 0.1745(3)
C46_2 C 0.7468(4) 0.9506(2) 0.4785(3)
H40_2 H 0.7043 0.9148 0.4667
C47_2 C 0.8667(4) 0.9488(2) 0.4806(3)
H41_2 H 0.9019 0.9125 0.4702
C48_2 C 0.9359(4) 0.9998(2) 0.4979(3)
N8_2 N 0.8313(3) 0.69331(16) 0.2248(2)
H53_2 H 0.8260 0.7138 0.1694
O16_2 O 0.8837(3) 0.59843(13) 0.2272(2)
O20_2 O 0.5318(3) 0.73702(12) 0.2062(2)
C51_2 C 0.3569(4) 0.7632(2) 0.0077(3)
H44_2 H 0.3993 0.7274 0.0114
C52_2 C 0.2369(4) 0.7606(2) 0.0066(3)
H45_2 H 0.2013 0.7234 0.0092
C53_2 C 0.1680(4) 0.8119(2) 0.0017(3)
C56_2 C 0.0414(4) 0.8110(2) 0.0038(3)
H51_2 H 0.0297 0.8954 0.0482
C59_2 C 0.8677(4) 0.8597(2) 0.0326(3)
H50_2 H 0.8353 0.8942 0.0531
C60_2 C 0.9859(4) 0.8605(2) 0.0308(3)
C27_2 C 0.0318(4) 0.2628(2) 0.5202(3)
H18_2 H 0.0011 0.2273 0.5392
C28_2 C 0.1499(4) 0.2656(2) 0.5168(3)
H19_2 H 0.1958 0.2311 0.5329
C29_2 C 0.1323(4) 0.3597(2) 0.4674(3)
H20_2 H 0.1647 0.3942 0.4469
C30_2 C 0.0141(4) 0.3605(2) 0.4692(3)
C21_2 C 0.6431(4) 0.2632(2) 0.4923(3)
H14_2 H 0.6007 0.2274 0.4886
C22_2 C 0.7631(4) 0.2606(2) 0.4934(3)
H15_2 H 0.7987 0.2234 0.4908
C23_2 C 0.8320(4) 0.3119(2) 0.4983(3)
C24_2 C 0.7709(4) 0.3659(2) 0.5044(3)
H16_2 H 0.8115 0.4022 0.5096
C25_2 C 0.6514(4) 0.3649(2) 0.5027(3)
H17_2 H 0.6137 0.4015 0.5061
C26_2 C 0.9586(4) 0.3110(2) 0.4962(3)
H21_2 H 0.9703 0.3954 0.4518
O25_2 O 0.5764(3) 0.75255(13) 0.8973(2)
H57_2 H 0.5158 0.7314 0.9000
H58_2 H 0.5649 0.7705 0.8432
O26_2 O 0.5863(3) 0.88789(14) 0.9083(2)
H59_2 H 0.6338 0.9126 0.9427
H60_2 H 0.5423 0.9064 0.8612
C54_2 C 0.2291(4) 0.8659(2) 0.9956(3)
H46_2 H 0.1885 0.9022 0.9904
C55_2 C 0.3486(4) 0.8649(2) 0.9973(3)
H47_2 H 0.3863 0.9015 0.9939
C57_2 C 0.9682(4) 0.7628(2) 0.9798(3)
H48_2 H 0.9989 0.7273 0.9608
C58_2 C 0.8501(4) 0.7656(2) 0.9832(3)
H49_2 H 0.8042 0.7311 0.9671
loop_
_geom_bond_atom_site_label_1
_geom_bond_atom_site_label_2
_geom_bond_site_symmetry_1
_geom_bond_site_symmetry_2
H18 C27 1_555 1_555
C28 C27 1_555 1_555
H19 C28 1_555 1_555
H16 C24 1_555 1_555
C25 C24 1_555 1_555
H17 C25 1_555 1_555
H27 O11 1_555 1_555
H28 O11 1_555 1_555
H29 O12 1_555 1_555
H30 O12 1_555 1_555
C29 H20 1_555 1_555
Co5 N6 1_555 1_555
C29 C30 1_555 1_555
C29 N6 1_555 1_555
H42 C49 1_555 1_555
C50 C49 1_555 1_555
H43 C50 1_555 1_555
C8 H4 1_555 1_555
H5 C8 1_555 1_555
C9 C8 1_555 1_555
C21 H14 1_555 1_555
C22 C21 1_555 1_555
H15 C22 1_555 1_555
C23 C22 1_555 1_555
C26 C23 1_555 1_555
Co5 N5 1_555 1_555
N5 C21 1_555 1_555
O2 C9 1_555 1_555
O3 C9 1_555 1_555
O18 Co5 1_555 1_555
Co5 O3 1_555 1_555
C1 C2 1_555 1_555
C2 H1 1_555 1_555
C3 C2 1_555 1_555
C4 C3 1_555 1_555
H2 C4 1_555 1_555
C5 C4 1_555 1_555
C6 C1 1_555 1_555
H3 C6 1_555 1_555
C7 C1 1_555 1_555
C13 C5 1_555 1_555
C14 H8 1_555 1_555
H9 C14 1_555 1_555
C15 C14 1_555 1_555
C16 H10 1_555 1_555
C17 C16 1_555 1_555
H11 C17 1_555 1_555
C18 C17 1_555 1_555
Co3 N4 1_555 1_555
N1 C7 1_555 1_555
H22 N1 1_555 1_555
N3 C13 1_555 1_555
H24 N3 1_555 1_555
N4 C16 1_555 1_555
O1 C7 1_555 1_555
O7 C13 1_555 1_555
O8 C15 1_555 1_555
O9 C15 1_555 1_555
O24 Co3 1_555 1_555
H55 O24 1_555 1_555
H56 O24 1_555 1_555
C5 C6 1_555 1_555
C14 N3 1_555 1_555
Co3 O9 1_555 1_555
C11 H6 1_555 1_555
H7 C11 1_555 1_555
C12 C11 1_555 1_555
N2 C10 1_555 1_555
H23 N2 1_555 1_555
O4 C10 1_555 1_555
O5 C12 1_555 1_555
O6 C12 1_555 1_555
Co6 O5 1_555 1_555
C11 N2 1_555 1_555
C11_2 H6_2 1_555 1_555
H7_2 C11_2 1_555 1_555
C12_2 C11_2 1_555 1_555
N2_2 C10_2 1_555 1_555
H23_2 N2_2 1_555 1_555
O4_2 C10_2 1_555 1_555
O18 C12_2 1_555 1_555
O6_2 C12_2 1_555 1_555
C51 H44 1_555 1_555
C52 C51 1_555 1_555
H45 C52 1_555 1_555
C53 C52 1_555 1_555
C54 C53 1_555 1_555
H46 C54 1_555 1_555
C55 C54 1_555 1_555
H47 C55 1_555 1_555
C56 C53 1_555 1_555
Co6 N12 1_555 1_555
N12 C51 1_555 1_555
C11_2 N2_2 1_555 1_555
C55 N12 1_555 1_555
C1_2 C2_2 1_555 1_555
C2_2 H1_2 1_555 1_555
C3_2 C2_2 1_555 1_555
C4_2 C3_2 1_555 1_555
H2_2 C4_2 1_555 1_555
C5_2 C4_2 1_555 1_555
C6_2 C1_2 1_555 1_555
H3_2 C6_2 1_555 1_555
C7_2 C1_2 1_555 1_555
C8_2 H4_2 1_555 1_555
H5_2 C8_2 1_555 1_555
C9_2 C8_2 1_555 1_555
C13_2 C5_2 1_555 1_555
C14_2 H8_2 1_555 1_555
H9_2 C14_2 1_555 1_555
C15_2 C14_2 1_555 1_555
C16_2 H10_2 1_555 1_555
C17_2 C16_2 1_555 1_555
H11_2 C17_2 1_555 1_555
C18_2 C17_2 1_555 1_555
N1_2 C7_2 1_555 1_555
H22_2 N1_2 1_555 1_555
N3_2 C13_2 1_555 1_555
H24_2 N3_2 1_555 1_555
O1_2 C7_2 1_555 1_555
O2_2 C9_2 1_555 1_555
O3_2 C9_2 1_555 1_555
O7_2 C13_2 1_555 1_555
O8_2 C15_2 1_555 1_555
O9_2 C15_2 1_555 1_555
O10 Co1 1_555 1_555
H25 O10 1_555 1_555
H26 O10 1_555 1_555
O11_2 Co6 1_555 1_555
H27_2 O11_2 1_555 1_555
H28_2 O11_2 1_555 1_555
O12_2 Co6 1_555 1_555
H29_2 O12_2 1_555 1_555
H30_2 O12_2 1_555 1_555
H48 C57 1_555 1_555
C58 C57 1_555 1_555
H49 C58 1_555 1_555
C59 H50 1_555 1_555
N11 Co1 1_555 1_555
N14 Co6 1_555 1_555
C5_2 C6_2 1_555 1_555
C8_2 N1_2 1_555 1_555
C14_2 N3_2 1_555 1_555
Co1 O9_2 1_555 1_555
Co6 O3_2 1_555 1_555
C58 N14 1_555 1_555
C59 C60 1_555 1_555
C59 N14 1_555 1_555
H42_2 C49_2 1_555 1_555
C50_2 C49_2 1_555 1_555
H43_2 C50_2 1_555 1_555
C50_2 N11 1_555 1_555
C41 H36 1_555 1_555
H37 C41 1_555 1_555
C42 C41 1_555 1_555
C46 H40 1_555 1_555
C47 C46 1_555 1_555
H41 C47 1_555 1_555
Co3_2 N10 1_555 1_555
Co7 O17 1_555 1_555
N8 C40 1_555 1_555
H53 N8 1_555 1_555
N10 C46 1_555 1_555
O16 C40 1_555 1_555
O17 C42 1_555 1_555
O20 C42 1_555 1_555
C41 N8 1_555 1_555
C47 C48 1_555 1_555
H12 C19 1_555 1_555
C20 C19 1_555 1_555
H13 C20 1_555 1_555
O10_2 Co3_2 1_555 1_555
H25_2 O10_2 1_555 1_555
H26_2 O10_2 1_555 1_555
C31 C32 1_555 1_555
C32 H31 1_555 1_555
C33 C32 1_555 1_555
C34 C33 1_555 1_555
H32 C34 1_555 1_555
C35 C34 1_555 1_555
C36 C31 1_555 1_555
H33 C36 1_555 1_555
C37 C31 1_555 1_555
C43 C35 1_555 1_555
C44 H38 1_555 1_555
H39 C44 1_555 1_555
C45 C44 1_555 1_555
N7 C37 1_555 1_555
H52 N7 1_555 1_555
N9 C43 1_555 1_555
H54 N9 1_555 1_555
O13 C37 1_555 1_555
O21 C43 1_555 1_555
O22 C45 1_555 1_555
O23 Co3_2 1_555 1_555
C35 C36 1_555 1_555
C44 N9 1_555 1_555
C45 O23 1_555 1_555
C38 H34 1_555 1_555
H35 C38 1_555 1_555
C39 C38 1_555 1_555
Co4 N13 1_555 1_555
N15 Co4 1_555 1_555
O14 C39 1_555 1_555
O15 C39 1_555 1_555
O19 Co4 1_555 1_555
Co4 O15 1_555 1_555
H12_2 C19_2 1_555 1_555
C20_2 C19_2 1_555 1_555
H13_2 C20_2 1_555 1_555
Co1_2 N4_2 1_555 1_555
C31_2 C32_2 1_555 1_555
C32_2 H31_2 1_555 1_555
C33_2 C32_2 1_555 1_555
C34_2 C33_2 1_555 1_555
H32_2 C34_2 1_555 1_555
C35_2 C34_2 1_555 1_555
C36_2 C31_2 1_555 1_555
H33_2 C36_2 1_555 1_555
C37_2 C31_2 1_555 1_555
C38_2 H34_2 1_555 1_555
H35_2 C38_2 1_555 1_555
C39_2 C38_2 1_555 1_555
C43_2 C35_2 1_555 1_555
C44_2 H38_2 1_555 1_555
H39_2 C44_2 1_555 1_555
C45_2 C44_2 1_555 1_555
Co7 N13_2 1_555 1_555
N7_2 C37_2 1_555 1_555
H52_2 N7_2 1_555 1_555
N9_2 C43_2 1_555 1_555
H54_2 N9_2 1_555 1_555
N15_2 Co7 1_555 1_555
O13_2 C37_2 1_555 1_555
O14_2 C39_2 1_555 1_555
O15_2 C39_2 1_555 1_555
O21_2 C43_2 1_555 1_555
O22_2 C45_2 1_555 1_555
O23_2 Co1_2 1_555 1_555
O24_2 Co1_2 1_555 1_555
H55_2 O24_2 1_555 1_555
H56_2 O24_2 1_555 1_555
O25 Co7 1_555 1_555
H57 O25 1_555 1_555
H58 O25 1_555 1_555
O26 Co7 1_555 1_555
H59 O26 1_555 1_555
H60 O26 1_555 1_555
C20_2 N4_2 1_555 1_555
C35_2 C36_2 1_555 1_555
C38_2 N7_2 1_555 1_555
C44_2 N9_2 1_555 1_555
C45_2 O23_2 1_555 1_555
Co7 O15_2 1_555 1_555
C41_2 H36_2 1_555 1_555
H37_2 C41_2 1_555 1_555
C42_2 C41_2 1_555 1_555
C46_2 H40_2 1_555 1_555
C47_2 C46_2 1_555 1_555
H41_2 C47_2 1_555 1_555
N8_2 C40_2 1_555 1_555
H53_2 N8_2 1_555 1_555
O16_2 C40_2 1_555 1_555
O19 C42_2 1_555 1_555
O20_2 C42_2 1_555 1_555
C41_2 N8_2 1_555 1_555
C47_2 C48_2 1_555 1_555
C51_2 H44_2 1_555 1_555
C52_2 C51_2 1_555 1_555
H45_2 C52_2 1_555 1_555
C53_2 C52_2 1_555 1_555
C56_2 C53_2 1_555 1_555
N13 C51_2 1_555 1_555
C59_2 H50_2 1_555 1_555
C59_2 C60_2 1_555 1_555
C59_2 N15 1_555 1_555
H18_2 C27_2 1_555 1_555
C28_2 C27_2 1_555 1_555
H19_2 C28_2 1_555 1_555
C29_2 H20_2 1_555 1_555
N15_2 C28_2 1_555 1_555
C29_2 C30_2 1_555 1_555
C29_2 N15_2 1_555 1_555
C21_2 H14_2 1_555 1_555
C22_2 C21_2 1_555 1_555
H15_2 C22_2 1_555 1_555
C23_2 C22_2 1_555 1_555
C24_2 C23_2 1_555 1_555
H16_2 C24_2 1_555 1_555
C25_2 C24_2 1_555 1_555
H17_2 C25_2 1_555 1_555
C26_2 C23_2 1_555 1_555
N13_2 C21_2 1_555 1_555
C25_2 N13_2 1_555 1_555
H57_2 O25_2 1_555 1_555
H58_2 O25_2 1_555 1_555
H59_2 O26_2 1_555 1_555
H60_2 O26_2 1_555 1_555
H46_2 C54_2 1_555 1_555
C55_2 C54_2 1_555 1_555
H47_2 C55_2 1_555 1_555
H48_2 C57_2 1_555 1_555
C58_2 C57_2 1_555 1_555
H49_2 C58_2 1_555 1_555

#END
