
###############################################################################
#
# This file contains modified crystal structure data generated from the
# MOF subset of the Cambridge Structural Database (CSD) v543 
# hosted by the Cambridge Crystallographic Data Centre (CCDC).
#
# This work is licensed under the Creative Commons
# Attribution-NonCommercial-ShareAlike 4.0 International License.
# To view a copy of this license, visit
# http://creativecommons.org/licenses/by-nc-sa/4.0/
# or send a letter to
# Creative Commons, PO Box 1866, Mountain View, CA 94042, USA.
#
# CIF created using the CSD Python API on 29 September 2022
# The structure has been converted into the P1 space group
# The structure has a 3D framework
# The original CSD entry BUPKAZ is in the triclinic crystal system
# The framework has been calculated to contain at least 10.0% void space
# The void calculation uses a probe of radius 1.32A, grid spacing 0.4
# H atom positions have been added when not included in the experimental data
#
###############################################################################

data_BUPKAZ
_chemical_formula_moiety         '(C52 H44 Cd2 N16 O20 S2)n'
_symmetry_cell_setting           triclinic
_symmetry_space_group_name_H-M   'P 1'
_symmetry_Int_Tables_number      1
_space_group_name_Hall           'P 1'
loop_
_symmetry_equiv_pos_site_id
_symmetry_equiv_pos_as_xyz
1 x,y,z
_cell_length_a                   10.7731(15)
_cell_length_b                   12.8762(18)
_cell_length_c                   13.8455(19)
_cell_angle_alpha                99.3870(10)
_cell_angle_beta                 111.108(2)
_cell_angle_gamma                106.958(3)
_cell_volume                     1634.62
loop_
_atom_site_label
_atom_site_type_symbol
_atom_site_fract_x
_atom_site_fract_y
_atom_site_fract_z
Cd6 Cd 0.04870(6) 0.37535(5) 0.45531(5)
Cd1 Cd 0.50154(6) 0.19162(5) 0.09762(5)
C11 C 0.2966(8) 0.4297(7) 0.0109(6)
C12 C 0.4040(8) 0.3939(7) 0.0497(6)
H8 H 0.4986 0.4337 0.0630
C13 C 0.2172(8) 0.2666(7) 0.0380(6)
H9 H 0.1547 0.2004 0.0396
C20 C 0.4623(9) 0.0412(7) 0.2180(6)
H13 H 0.8613 0.0031 0.5301
N3 N 0.3566(6) 0.2898(5) 0.0677(5)
N4 N 0.1764(6) 0.3478(5) 0.0056(5)
O3 O 0.5586(6) 0.0605(5) 0.1857(4)
O4 O 0.3683(6) 0.0841(5) 0.1938(5)
O6 O 0.6580(6) 0.3139(5) 0.2648(5)
O7 O 0.8758(5) 0.4650(5) 0.3987(4)
O8 O 0.7584(6) 0.4815(6) 0.2204(5)
O9 O 0.6535(7) 0.4903(6) 0.3446(5)
S1 S 0.7342(2) 0.43920(19) 0.30513(17)
Cd7 Cd 0.95130(6) 0.62465(5) 0.54469(5)
O11 O 0.7171(5) 0.1894(5) 0.0642(4)
H2 H 0.0636 0.4342 0.8617
C5 C 0.0323(7) 0.3465(6) 0.9627(5)
H7 H 0.3017 0.4961 0.9914
O10 O 0.3332(5) 0.0354(5) 0.9424(4)
O12 O 0.5793(5) 0.2711(5) 0.9746(4)
H21 H 0.313751 0.0611546 0.876576
C14 C 0.4622(8) 0.9682(7) 0.2932(6)
C15 C 0.5799(8) 0.9404(6) 0.3387(6)
H10 H 0.6590 0.9666 0.3238
C16 C 0.5791(8) 0.8725(7) 0.4075(6)
C17 C 0.4586(8) 0.8269(6) 0.4248(6)
H11 H 0.4567 0.7786 0.4679
C18 C 0.3407(8) 0.8550(6) 0.3765(6)
C19 C 0.3419(8) 0.9270(6) 0.3123(6)
H12 H 0.2634 0.9473 0.2825
C21 C 0.8336(9) 0.9250(7) 0.5192(6)
C22 C 0.9207(9) 0.8698(7) 0.5597(7)
C23 C 0.7091(8) 0.7453(7) 0.4683(6)
H15 H 0.6293 0.6772 0.4353
C24 C 0.0790(8) 0.7996(7) 0.3265(6)
H16 H 0.0539 0.8264 0.2667
C26 C 0.2013(8) 0.7596(7) 0.4701(6)
H18 H 0.2775 0.7539 0.5253
N5 N 0.8389(7) 0.7537(6) 0.5259(5)
N6 N 0.7041(7) 0.8483(6) 0.4621(5)
N7 N 0.0676(7) 0.7222(6) 0.4587(5)
N8 N 0.2149(6) 0.8069(5) 0.3927(5)
O5 O 0.1170(6) 0.7718(5) 0.7108(4)
O13 O 0.1242(5) 0.5350(5) 0.6013(4)
H19 H 0.109256 0.845543 0.70418
H20 H 0.0940788 0.753796 0.770952
H3 H 0.9591 0.2589 0.0531
C7 C 0.6878(9) 0.2477(7) 0.0018(6)
C1 C 0.7971(7) 0.2956(6) 0.9565(6)
C2 C 0.7578(7) 0.3459(6) 0.8756(5)
H1 H 0.6647 0.3443 0.8446
C3 C 0.8584(7) 0.3988(6) 0.8412(6)
C4 C 0.9963(7) 0.3987(6) 0.8852(5)
C6 C 0.9334(7) 0.2942(6) 0.9998(6)
C8 C 0.6997(8) 0.4767(8) 0.7172(7)
H4 H 0.6248 0.4617 0.7379
C9 C 0.7119(8) 0.5269(8) 0.6411(7)
H5 H 0.6443 0.5523 0.5996
C10 C 0.8988(8) 0.4899(7) 0.7045(6)
H6 H 0.9870 0.4839 0.7174
N1 N 0.8386(6) 0.5355(6) 0.6329(5)
N2 N 0.8210(6) 0.4523(5) 0.7580(5)
C25 C 0.9892(8) 0.7451(7) 0.3670(6)
H17 H 0.8903 0.7262 0.3373
C25_2 C 0.0108(8) 0.2549(7) 0.6330(6)
H17_2 H 0.1097 0.2738 0.6627
N9 N 0.1614(6) 0.4645(6) 0.3671(5)
N10 N 0.1611(7) 0.2463(6) 0.4741(5)
C1_2 C 0.2029(7) 0.7044(6) 0.0435(6)
C2_2 C 0.2422(7) 0.6541(6) 0.1244(5)
H1_2 H 0.3353 0.6557 0.1554
C3_2 C 0.1416(7) 0.6012(6) 0.1588(6)
C4_2 C 0.0037(7) 0.6013(6) 0.1148(5)
C6_2 C 0.0666(7) 0.7058(6) 0.0002(6)
C8_2 C 0.3003(8) 0.5233(8) 0.2828(7)
H4_2 H 0.3752 0.5383 0.2621
C9_2 C 0.2881(8) 0.4731(8) 0.3589(7)
H5_2 H 0.3557 0.4477 0.4004
C10_2 C 0.1012(8) 0.5101(7) 0.2955(6)
H6_2 H 0.0130 0.5161 0.2826
N2_2 N 0.1790(6) 0.5477(5) 0.2420(5)
O2 O 0.4207(5) 0.7289(5) 0.0254(4)
H3_2 H 0.0409 0.7411 0.9469
C7_2 C 0.3122(9) 0.7523(7) 0.9982(6)
O1 O 0.2829(5) 0.8106(5) 0.9358(4)
Cd3 Cd 0.49846(6) 0.80838(5) 0.90238(5)
C14_2 C 0.5378(8) 0.0318(7) 0.7068(6)
C15_2 C 0.4201(8) 0.0596(6) 0.6613(6)
H10_2 H 0.3410 0.0334 0.6762
C16_2 C 0.4209(8) 0.1275(7) 0.5925(6)
C17_2 C 0.5414(8) 0.1731(6) 0.5752(6)
H11_2 H 0.5433 0.2214 0.5321
C18_2 C 0.6593(8) 0.1450(6) 0.6235(6)
C19_2 C 0.6581(8) 0.0730(6) 0.6877(6)
H12_2 H 0.7366 0.0527 0.7175
C21_2 C 0.1664(9) 0.0750(7) 0.4808(6)
C22_2 C 0.0793(9) 0.1302(7) 0.4403(7)
C23_2 C 0.2909(8) 0.2547(7) 0.5317(6)
H15_2 H 0.3707 0.3228 0.5647
C24_2 C 0.9210(8) 0.2004(7) 0.6735(6)
H16_2 H 0.9461 0.1736 0.7333
C26_2 C 0.7987(8) 0.2404(7) 0.5299(6)
H18_2 H 0.7225 0.2461 0.4747
N6_2 N 0.2959(7) 0.1517(6) 0.5379(5)
N7_2 N 0.9324(7) 0.2778(6) 0.5413(5)
N8_2 N 0.7851(6) 0.1931(5) 0.6073(5)
O5_2 O 0.8830(6) 0.2282(5) 0.2892(4)
H19_2 H 0.890744 0.154457 0.29582
H20_2 H 0.905921 0.246204 0.229048
H2_2 H 0.9364 0.5658 0.1383
C5_2 C 0.9677(7) 0.6535(6) 0.0373(5)
H7_2 H 0.6983 0.5039 0.0086
O10_2 O 0.6668(5) 0.9646(5) 0.0576(4)
H21_2 H 0.686249 0.938845 0.123424
C11_2 C 0.7034(8) 0.5703(7) 0.9891(6)
C12_2 C 0.5960(8) 0.6061(7) 0.9503(6)
H8_2 H 0.5014 0.5663 0.9370
C13_2 C 0.7828(8) 0.7334(7) 0.9620(6)
H9_2 H 0.8453 0.7996 0.9604
C20_2 C 0.5377(9) 0.9588(7) 0.7820(6)
H13_2 H 0.1387 0.9969 0.4699
N3_2 N 0.6434(6) 0.7102(5) 0.9323(5)
N4_2 N 0.8236(6) 0.6522(5) 0.9944(5)
O3_2 O 0.4414(6) 0.9395(5) 0.8143(4)
O4_2 O 0.6317(6) 0.9159(5) 0.8062(5)
O6_2 O 0.3420(6) 0.6861(5) 0.7352(5)
O8_2 O 0.2416(6) 0.5185(6) 0.7796(5)
O9_2 O 0.3465(7) 0.5097(6) 0.6554(5)
S1_2 S 0.2658(2) 0.56080(19) 0.69487(17)
H14 H 0.0194 0.9041 0.6032
H22 H 0.373032 0.975465 0.935933
H22_2 H 0.626968 0.0245353 0.0640674
H14_2 H 0.9806 0.0959 0.3968
loop_
_geom_bond_atom_site_label_1
_geom_bond_atom_site_label_2
_geom_bond_site_symmetry_1
_geom_bond_site_symmetry_2
Cd1 N3 1_555 1_555
C12 C11 1_555 1_555
H8 C12 1_555 1_555
C13 H9 1_555 1_555
N3 C12 1_555 1_555
O3 Cd1 1_555 1_555
O4 Cd1 1_555 1_555
O6 Cd1 1_555 1_555
O7 S1 1_555 1_555
O8 S1 1_555 1_555
O9 S1 1_555 1_555
S1 O6 1_555 1_555
Cd7 O7 1_555 1_555
O11 Cd1 1_555 1_555
C11 N4 1_555 1_555
C13 N3 1_555 1_555
C13 N4 1_555 1_555
C20 O3 1_555 1_555
C20 O4 1_555 1_555
O10 H21 1_555 1_555
C14 C15 1_555 1_555
C15 H10 1_555 1_555
C16 C15 1_555 1_555
C17 C16 1_555 1_555
H11 C17 1_555 1_555
C18 C17 1_555 1_555
C19 C14 1_555 1_555
H12 C19 1_555 1_555
C22 C21 1_555 1_555
C23 H15 1_555 1_555
C24 H16 1_555 1_555
C26 H18 1_555 1_555
N5 C22 1_555 1_555
N6 C16 1_555 1_555
N8 C18 1_555 1_555
Cd7 N5 1_555 1_555
C18 C19 1_555 1_555
C21 N6 1_555 1_555
C23 N5 1_555 1_555
C23 N6 1_555 1_555
C24 N8 1_555 1_555
C26 N7 1_555 1_555
C26 N8 1_555 1_555
O5 H19 1_555 1_555
O5 H20 1_555 1_555
O11 C7 1_555 1_555
C1 C2 1_555 1_555
C2 H1 1_555 1_555
C3 C2 1_555 1_555
C4 C3 1_555 1_555
C6 C1 1_555 1_555
C8 H4 1_555 1_555
C9 C8 1_555 1_555
H5 C9 1_555 1_555
C10 H6 1_555 1_555
N1 C9 1_555 1_555
N2 C3 1_555 1_555
Cd7 N1 1_555 1_555
C8 N2 1_555 1_555
C10 N1 1_555 1_555
C10 N2 1_555 1_555
H17 C25 1_555 1_555
H17_2 C25_2 1_555 1_555
N9 Cd6 1_555 1_555
N10 Cd6 1_555 1_555
O13 Cd6 1_555 1_555
C1_2 C2_2 1_555 1_555
C2_2 H1_2 1_555 1_555
C3_2 C2_2 1_555 1_555
C4_2 C3_2 1_555 1_555
C6_2 C1_2 1_555 1_555
C8_2 H4_2 1_555 1_555
C9_2 C8_2 1_555 1_555
H5_2 C9_2 1_555 1_555
C10_2 H6_2 1_555 1_555
N9 C9_2 1_555 1_555
N2_2 C3_2 1_555 1_555
C8_2 N2_2 1_555 1_555
C10_2 N9 1_555 1_555
C10_2 N2_2 1_555 1_555
O1 C7_2 1_555 1_555
Cd3 O1 1_555 1_555
C14_2 C15_2 1_555 1_555
C15_2 H10_2 1_555 1_555
C16_2 C15_2 1_555 1_555
C17_2 C16_2 1_555 1_555
H11_2 C17_2 1_555 1_555
C18_2 C17_2 1_555 1_555
C19_2 C14_2 1_555 1_555
H12_2 C19_2 1_555 1_555
C22_2 C21_2 1_555 1_555
C23_2 H15_2 1_555 1_555
C24_2 H16_2 1_555 1_555
C26_2 H18_2 1_555 1_555
N10 C22_2 1_555 1_555
N6_2 C16_2 1_555 1_555
N8_2 C18_2 1_555 1_555
C18_2 C19_2 1_555 1_555
C21_2 N6_2 1_555 1_555
C23_2 N10 1_555 1_555
C23_2 N6_2 1_555 1_555
C24_2 N8_2 1_555 1_555
C26_2 N7_2 1_555 1_555
C26_2 N8_2 1_555 1_555
O5_2 H19_2 1_555 1_555
O5_2 H20_2 1_555 1_555
O10_2 H21_2 1_555 1_555
Cd3 N3_2 1_555 1_555
C12_2 C11_2 1_555 1_555
H8_2 C12_2 1_555 1_555
C13_2 H9_2 1_555 1_555
N3_2 C12_2 1_555 1_555
O3_2 Cd3 1_555 1_555
O4_2 Cd3 1_555 1_555
O6_2 Cd3 1_555 1_555
O13 S1_2 1_555 1_555
O8_2 S1_2 1_555 1_555
O9_2 S1_2 1_555 1_555
S1_2 O6_2 1_555 1_555
C11_2 N4_2 1_555 1_555
C13_2 N3_2 1_555 1_555
C13_2 N4_2 1_555 1_555
C20_2 O3_2 1_555 1_555
C20_2 O4_2 1_555 1_555

#END
