
###############################################################################
#
# This file contains modified crystal structure data generated from the
# MOF subset of the Cambridge Structural Database (CSD) v543 
# hosted by the Cambridge Crystallographic Data Centre (CCDC).
#
# This work is licensed under the Creative Commons
# Attribution-NonCommercial-ShareAlike 4.0 International License.
# To view a copy of this license, visit
# http://creativecommons.org/licenses/by-nc-sa/4.0/
# or send a letter to
# Creative Commons, PO Box 1866, Mountain View, CA 94042, USA.
#
# CIF created using the CSD Python API on 29 September 2022
# The structure has been converted into the P1 space group
# The structure has a 3D framework
# The original CSD entry BUSGIG is in the monoclinic crystal system
# The framework has been calculated to contain at least 10.0% void space
# The void calculation uses a probe of radius 1.32A, grid spacing 0.4
#
###############################################################################

data_BUSGIG
_chemical_formula_moiety         '(C56 H32 Cu4 Dy4 N8 O30)n'
_symmetry_cell_setting           triclinic
_symmetry_space_group_name_H-M   'P 1'
_symmetry_Int_Tables_number      1
_space_group_name_Hall           'P 1'
loop_
_symmetry_equiv_pos_site_id
_symmetry_equiv_pos_as_xyz
1 x,y,z
_cell_length_a                   9.493(2)
_cell_length_b                   21.510(5)
_cell_length_c                   9.175(2)
_cell_angle_alpha                90
_cell_angle_beta                 116.483(3)
_cell_angle_gamma                90
_cell_volume                     1676.89
loop_
_atom_site_label
_atom_site_type_symbol
_atom_site_fract_x
_atom_site_fract_y
_atom_site_fract_z
O12 O 0.1440(4) 0.05696(17) 0.0898(5)
C15 C 0.0081(6) 0.0355(3) 0.0119(7)
C5 C 0.0183(7) 0.9180(3) 0.3855(8)
H1 H 0.0268 0.9308 0.2929
N1 N 0.1347(6) 0.8831(2) 0.4957(7)
C11 C 0.1206(7) 0.8667(3) 0.6290(9)
H7 H 0.1976 0.8414 0.7054
O7 O 0.1173(4) 0.93417(17) 0.0516(5)
Dy3 Dy 0.35745(3) 0.991735(12) 0.12484(3)
Cu3 Cu 0.30823(9) 0.85361(3) 0.46158(12)
C3 C 0.5225(6) 0.1184(3) 0.0133(7)
C7 C 0.5784(7) 0.2319(3) 0.0292(8)
C8 C 0.3486(8) 0.2589(3) 0.1186(9)
H4 H 0.2683 0.2697 0.1458
C9 C 0.3737(7) 0.1977(3) 0.0937(8)
H5 H 0.3132 0.1664 0.1076
N2 N 0.5579(6) 0.2918(2) 0.0576(7)
C12 C 0.4904(6) 0.1834(3) 0.0478(7)
C13 C 0.4436(8) 0.3041(3) 0.1030(9)
H8 H 0.4283 0.3451 0.1247
O5 O 0.4597(5) 0.07543(19) 0.0542(5)
Cu4 Cu 0.69177(9) 0.35361(3) 0.03842(12)
O20 O 0.4609(5) 0.06098(17) 0.3638(5)
Dy1 Dy 0.64255(3) 0.008265(12) 0.87516(3)
Cu1 Cu 0.69177(9) 0.14639(3) 0.53842(12)
O2 O 0.6176(5) 0.05788(17) 0.6303(5)
O4 O 0.6100(5) 0.11056(18) 0.9463(6)
H3 H 0.6550 0.2225 0.9956
C14 C 0.5219(6) 0.0336(3) 0.4975(7)
O9 O 0.2148(5) 0.00386(18) 0.8396(5)
C16 C 0.2432(6) 0.0280(3) 0.7326(8)
C18 C 0.1120(7) 0.0643(3) 0.5971(8)
C20 C 0.1213(7) 0.0813(3) 0.4596(8)
H10 H 0.2090 0.0704 0.4452
N4 N 0.8653(6) 0.1169(2) 0.5043(7)
C24 C 0.0024(8) 0.1144(3) 0.3424(9)
H14 H 0.0049 0.1240 0.2447
N7 N 0.5579(6) 0.2082(2) 0.5576(7)
O16 O 0.3713(4) 0.0281(2) 0.7245(5)
O17 O 0.8827(4) 0.06583(17) 0.9484(5)
O1 O 0.7852(5) 0.99614(18) 0.1604(5)
C2 C 0.7568(6) 0.9720(3) 0.2674(8)
C4 C 0.8880(7) 0.9357(3) 0.4029(8)
C6 C 0.8787(7) 0.9187(3) 0.5404(8)
H2 H 0.7910 0.9296 0.5548
C10 C 0.9976(8) 0.8856(3) 0.6576(9)
H6 H 0.9951 0.8760 0.7553
O6 O 0.6287(4) 0.9719(2) 0.2755(5)
O11 O 0.3824(5) 0.94212(17) 0.3697(5)
O14 O 0.3900(5) 0.88944(18) 0.0537(6)
H11 H 0.3450 0.7775 0.0044
O3 O 0.8560(4) 0.94304(17) 0.9102(5)
C1 C 0.9919(6) 0.9645(3) 0.9881(7)
Cu5 Cu 0.30823(9) 0.64639(3) 0.96158(12)
C17 C 0.4775(6) 0.8816(3) 0.9867(7)
C21 C 0.4216(7) 0.7681(3) 0.9708(8)
C22 C 0.6514(8) 0.7411(3) 0.8814(9)
H12 H 0.7317 0.7303 0.8542
C23 C 0.6263(7) 0.8023(3) 0.9063(8)
H13 H 0.6868 0.8336 0.8924
N6 N 0.4421(6) 0.7082(2) 0.9424(7)
N8 N 0.4421(6) 0.7918(2) 0.4424(7)
C26 C 0.5096(6) 0.8166(3) 0.9522(7)
C27 C 0.5564(8) 0.6959(3) 0.8970(9)
H16 H 0.5717 0.6549 0.8753
O15 O 0.5403(5) 0.92457(19) 0.9458(5)
C28 C 0.4781(6) 0.9664(3) 0.5025(7)
O19 O 0.5391(5) 0.93902(17) 0.6362(5)
C19 C 0.9817(7) 0.0820(3) 0.6145(8)
H9 H 0.9732 0.0692 0.7071
C25 C 0.8794(7) 0.1333(3) 0.3710(9)
H15 H 0.8024 0.1586 0.2946
C19_2 C 0.0183(7) 0.5820(3) 0.8855(8)
H9_2 H 0.0268 0.5692 0.7929
N3 N 0.1347(6) 0.6169(2) 0.9957(7)
C14_2 C 0.4781(6) 0.5336(3) 0.0025(7)
O8 O 0.5391(5) 0.56098(17) 0.1362(5)
Dy4 Dy 0.64255(3) 0.491735(12) 0.37516(3)
O10 O 0.6176(5) 0.44212(17) 0.1303(5)
C20_2 C 0.8787(7) 0.5813(3) 0.0404(8)
H10_2 H 0.7910 0.5704 0.0548
N5 N 0.8653(6) 0.3831(2) 0.0043(7)
C24_2 C 0.9976(8) 0.6144(3) 0.1576(9)
H14_2 H 0.9951 0.6240 0.2553
Dy1_2 Dy 0.35745(3) 0.508265(12) 0.62484(3)
O1_2 O 0.2148(5) 0.49614(18) 0.3396(5)
O2_2 O 0.3824(5) 0.55788(17) 0.8697(5)
O3_2 O 0.1440(4) 0.44304(17) 0.5898(5)
O4_2 O 0.3900(5) 0.61056(18) 0.5537(6)
C1_2 C 0.0081(6) 0.4645(3) 0.5119(7)
C2_2 C 0.2432(6) 0.4720(3) 0.2326(8)
C3_2 C 0.4775(6) 0.6184(3) 0.4867(7)
C4_2 C 0.1120(7) 0.4357(3) 0.0971(8)
C7_2 C 0.4216(7) 0.7319(3) 0.4708(8)
H3_2 H 0.3450 0.7225 0.5044
C8_2 C 0.6514(8) 0.7589(3) 0.3814(9)
H4_2 H 0.7317 0.7697 0.3542
C9_2 C 0.6263(7) 0.6977(3) 0.4063(8)
H5_2 H 0.6868 0.6664 0.3924
C12_2 C 0.5096(6) 0.6834(3) 0.4522(7)
C13_2 C 0.5564(8) 0.8041(3) 0.3970(9)
H8_2 H 0.5717 0.8451 0.3753
O5_2 O 0.5403(5) 0.57543(19) 0.4458(5)
O6_2 O 0.3713(4) 0.4719(2) 0.2245(5)
O9_2 O 0.7852(5) 0.50386(18) 0.6604(5)
O13 O 0.8560(4) 0.55696(17) 0.4102(5)
O14_2 O 0.6100(5) 0.38944(18) 0.4463(6)
C16_2 C 0.7568(6) 0.5280(3) 0.7674(8)
C17_2 C 0.5225(6) 0.3816(3) 0.5133(7)
C18_2 C 0.8880(7) 0.5643(3) 0.9029(8)
C21_2 C 0.5784(7) 0.2681(3) 0.5292(8)
H11_2 H 0.6550 0.2775 0.4956
C22_2 C 0.3486(8) 0.2411(3) 0.6186(9)
H12_2 H 0.2683 0.2303 0.6458
C23_2 C 0.3737(7) 0.3023(3) 0.5937(8)
H13_2 H 0.3132 0.3336 0.6076
C26_2 C 0.4904(6) 0.3166(3) 0.5478(7)
C27_2 C 0.4436(8) 0.1959(3) 0.6030(9)
H16_2 H 0.4283 0.1549 0.6247
O15_2 O 0.4597(5) 0.42457(19) 0.5542(5)
O16_2 O 0.6287(4) 0.5281(2) 0.7755(5)
O17_2 O 0.1173(4) 0.56583(17) 0.5516(5)
O18 O 0.8827(4) 0.43417(17) 0.4484(5)
C28_2 C 0.5219(6) 0.4664(3) 0.9975(7)
O19_2 O 0.4609(5) 0.43902(17) 0.8638(5)
C6_2 C 0.1213(7) 0.4187(3) 0.9596(8)
H2_2 H 0.2090 0.4296 0.9452
C10_2 C 0.0024(8) 0.3856(3) 0.8424(9)
H6_2 H 0.0049 0.3760 0.7447
C5_2 C 0.9817(7) 0.4180(3) 0.1145(8)
H1_2 H 0.9732 0.4308 0.2071
C15_2 C 0.9919(6) 0.5355(3) 0.4881(7)
C25_2 C 0.1206(7) 0.6333(3) 0.1290(9)
H15_2 H 0.1976 0.6586 0.2054
C11_2 C 0.8794(7) 0.3667(3) 0.8710(9)
H7_2 H 0.8024 0.3414 0.7946
loop_
_geom_bond_atom_site_label_1
_geom_bond_atom_site_label_2
_geom_bond_site_symmetry_1
_geom_bond_site_symmetry_2
O12 C15 1_555 1_555
C5 H1 1_555 1_555
N1 C5 1_555 1_555
C11 N1 1_555 1_555
H7 C11 1_555 1_555
Dy3 O7 1_555 1_555
Cu3 N1 1_555 1_555
C8 H4 1_555 1_555
C9 C8 1_555 1_555
H5 C9 1_555 1_555
N2 C7 1_555 1_555
C12 C3 1_555 1_555
C13 C8 1_555 1_555
H8 C13 1_555 1_555
O5 C3 1_555 1_555
Cu4 N2 1_555 1_555
C7 C12 1_555 1_555
C9 C12 1_555 1_555
N2 C13 1_555 1_555
Cu1 O2 1_555 1_555
O2 Dy1 1_555 1_555
O4 Dy1 1_555 1_555
C14 O2 1_555 1_555
O20 C14 1_555 1_555
C16 O9 1_555 1_555
C18 C16 1_555 1_555
C20 C18 1_555 1_555
H10 C20 1_555 1_555
N4 Cu1 1_555 1_555
C24 C20 1_555 1_555
H14 C24 1_555 1_555
N7 Cu1 1_555 1_555
O16 Dy1 1_555 1_555
O17 Dy1 1_555 1_555
C16 O16 1_555 1_555
O1 C2 1_555 1_555
C2 C4 1_555 1_555
C6 C4 1_555 1_555
H2 C6 1_555 1_555
C10 C6 1_555 1_555
H6 C10 1_555 1_555
O6 C2 1_555 1_555
O11 Dy3 1_555 1_555
O14 Dy3 1_555 1_555
O6 Dy3 1_555 1_555
C1 O3 1_555 1_555
Cu3 O11 1_555 1_555
Cu5 N6 1_555 1_555
C22 H12 1_555 1_555
C23 C22 1_555 1_555
H13 C23 1_555 1_555
N6 C21 1_555 1_555
N8 Cu3 1_555 1_555
C26 C17 1_555 1_555
C27 C22 1_555 1_555
H16 C27 1_555 1_555
O11 C28 1_555 1_555
C17 O15 1_555 1_555
C21 C26 1_555 1_555
C23 C26 1_555 1_555
N6 C27 1_555 1_555
C28 O19 1_555 1_555
H9 C19 1_555 1_555
N4 C19 1_555 1_555
C25 N4 1_555 1_555
H15 C25 1_555 1_555
Cu5 N3 1_555 1_555
H9_2 C19_2 1_555 1_555
N3 C19_2 1_555 1_555
O8 C14_2 1_555 1_555
Dy4 O8 1_555 1_555
Cu4 O10 1_555 1_555
O10 Dy4 1_555 1_555
H10_2 C20_2 1_555 1_555
N5 Cu4 1_555 1_555
C24_2 C20_2 1_555 1_555
H14_2 C24_2 1_555 1_555
Dy1_2 O1_2 1_555 1_555
Cu5 O2_2 1_555 1_555
O1_2 C2_2 1_555 1_555
O2_2 Dy1_2 1_555 1_555
O3_2 Dy1_2 1_555 1_555
O4_2 Dy1_2 1_555 1_555
C1_2 O3_2 1_555 1_555
C2_2 C4_2 1_555 1_555
C3_2 O4_2 1_555 1_555
C7_2 H3_2 1_555 1_555
C8_2 H4_2 1_555 1_555
C9_2 C8_2 1_555 1_555
H5_2 C9_2 1_555 1_555
N8 C7_2 1_555 1_555
C12_2 C3_2 1_555 1_555
C13_2 C8_2 1_555 1_555
H8_2 C13_2 1_555 1_555
O5_2 C3_2 1_555 1_555
O6_2 C2_2 1_555 1_555
Dy4 O5_2 1_555 1_555
O9_2 Dy4 1_555 1_555
O13 Dy4 1_555 1_555
O14_2 Dy4 1_555 1_555
C16_2 O9_2 1_555 1_555
C17_2 O14_2 1_555 1_555
C18_2 C16_2 1_555 1_555
C21_2 H11_2 1_555 1_555
C22_2 H12_2 1_555 1_555
C23_2 C22_2 1_555 1_555
H13_2 C23_2 1_555 1_555
N7 C21_2 1_555 1_555
C26_2 C17_2 1_555 1_555
C27_2 C22_2 1_555 1_555
H16_2 C27_2 1_555 1_555
O15_2 Dy1_2 1_555 1_555
O16_2 Dy1_2 1_555 1_555
O17_2 Dy1_2 1_555 1_555
O18 Dy4 1_555 1_555
O19_2 Dy1_2 1_555 1_555
C7_2 C12_2 1_555 1_555
C9_2 C12_2 1_555 1_555
N8 C13_2 1_555 1_555
O6_2 Dy4 1_555 1_555
C16_2 O16_2 1_555 1_555
C17_2 O15_2 1_555 1_555
C21_2 C26_2 1_555 1_555
C23_2 C26_2 1_555 1_555
N7 C27_2 1_555 1_555
C28_2 O19_2 1_555 1_555
H2_2 C6_2 1_555 1_555
C10_2 C6_2 1_555 1_555
H6_2 C10_2 1_555 1_555
C5_2 H1_2 1_555 1_555
N5 C5_2 1_555 1_555
O13 C15_2 1_555 1_555
H15_2 C25_2 1_555 1_555
H7_2 C11_2 1_555 1_555

#END
