
###############################################################################
#
# This file contains modified crystal structure data generated from the
# MOF subset of the Cambridge Structural Database (CSD) v543 
# hosted by the Cambridge Crystallographic Data Centre (CCDC).
#
# This work is licensed under the Creative Commons
# Attribution-NonCommercial-ShareAlike 4.0 International License.
# To view a copy of this license, visit
# http://creativecommons.org/licenses/by-nc-sa/4.0/
# or send a letter to
# Creative Commons, PO Box 1866, Mountain View, CA 94042, USA.
#
# CIF created using the CSD Python API on 29 September 2022
# The structure has been converted into the P1 space group
# The structure has a 3D framework
# The original CSD entry BUSJOR is in the orthorhombic crystal system
# The framework has been calculated to contain at least 10.0% void space
# The void calculation uses a probe of radius 1.32A, grid spacing 0.4
#
###############################################################################

data_BUSJOR
_chemical_formula_moiety         '(C32 H40 Cd4 N16)n'
_symmetry_cell_setting           triclinic
_symmetry_space_group_name_H-M   'P 1'
_symmetry_Int_Tables_number      1
_space_group_name_Hall           'P 1'
loop_
_symmetry_equiv_pos_site_id
_symmetry_equiv_pos_as_xyz
1 x,y,z
_cell_length_a                   10.08071(16)
_cell_length_b                   16.74146(29)
_cell_length_c                   9.42642(14)
_cell_angle_alpha                90
_cell_angle_beta                 90
_cell_angle_gamma                90
_cell_volume                     1590.86
loop_
_atom_site_label
_atom_site_type_symbol
_atom_site_fract_x
_atom_site_fract_y
_atom_site_fract_z
_atom_site_U_iso_or_equiv
_atom_site_thermal_displace_type
H3 H 0.67701(9) 0.72807(5) 0.03328(8) 0.1024 Uiso
H4 H 0.73299(7) 0.81193(9) 0.01979(7) 0.1024 Uiso
H5 H 0.82608(12) 0.74107(4) 0.03404(8) 0.1024 Uiso
N6 N 0.54522(26) 0.53780(10) 0.02166(17) 0.0683 Uiso
Cd1 Cd 0.4996(8) 0.62980(7) 0.8349(8) 0.0595 Uiso
N1 N 0.66256(30) 0.70558(21) 0.76818(30) 0.0683 Uiso
C1 C 0.74871(10) 0.74989(6) 0.84007(23) 0.0683 Uiso
N2 N 0.83714(30) 0.78583(20) 0.75827(31) 0.0683 Uiso
C2 C 0.80475(21) 0.76267(15) 0.62378(16) 0.0683 Uiso
H1 H 0.84908(28) 0.77790(22) 0.54159(20) 0.1024 Uiso
C3 C 0.70033(21) 0.71403(14) 0.62951(16) 0.0683 Uiso
H2 H 0.65931(29) 0.69015(20) 0.55195(21) 0.1024 Uiso
C4 C 0.74594(4) 0.758542(24) 0.99632(4) 0.0683 Uiso
N3 N 0.46183(28) 0.55782(10) 0.68802(17) 0.0683 Uiso
C5 C 0.53119(23) 0.50620(6) 0.60676(11) 0.0683 Uiso
N4 N 0.45478(26) 0.46220(10) 0.52166(17) 0.0683 Uiso
C6 C 0.32622(6) 0.48751(4) 0.55033(8) 0.0683 Uiso
H6 H 0.24975(10) 0.46801(6) 0.50730(11) 0.1024 Uiso
C7 C 0.33035(5) 0.54490(4) 0.64899(7) 0.0683 Uiso
H7 H 0.25717(9) 0.57149(6) 0.68617(10) 0.1024 Uiso
C8 C 0.67740(4) 0.498706(24) 0.61218(4) 0.0683 Uiso
H8 H 0.70392(7) 0.45531(6) 0.55750(8) 0.1024 Uiso
H9 H 0.70416(7) 0.49102(4) 0.70559(15) 0.1024 Uiso
H10 H 0.71598(7) 0.54507(7) 0.57685(8) 0.1024 Uiso
Cd2 Cd 0.9996(8) 0.87020(7) 0.8349(8) 0.0595 Uiso
Cd3 Cd 0.5004(8) 0.37020(7) 0.3349(8) 0.0595 Uiso
N5 N 0.33714(30) 0.71417(20) 0.75827(31) 0.0683 Uiso
Cd1_2 Cd 0.0004(8) 0.12980(7) 0.3349(8) 0.0595 Uiso
N3_2 N 0.03817(28) 0.05782(10) 0.18802(17) 0.0683 Uiso
C7_2 C 0.16965(5) 0.04490(4) 0.14899(7) 0.0683 Uiso
H7_2 H 0.24283(9) 0.07149(6) 0.18617(10) 0.1024 Uiso
N5_2 N 0.16286(30) 0.21417(20) 0.25827(31) 0.0683 Uiso
N1_2 N 0.83744(30) 0.20558(21) 0.26818(30) 0.0683 Uiso
C1_2 C 0.75129(10) 0.24989(6) 0.34007(23) 0.0683 Uiso
N2_2 N 0.66286(30) 0.28583(20) 0.25827(31) 0.0683 Uiso
C2_2 C 0.69525(21) 0.26267(15) 0.12378(16) 0.0683 Uiso
H1_2 H 0.65092(28) 0.27790(22) 0.04159(20) 0.1024 Uiso
C3_2 C 0.79967(21) 0.21403(14) 0.12951(16) 0.0683 Uiso
H2_2 H 0.84069(29) 0.19015(20) 0.05195(21) 0.1024 Uiso
C4_2 C 0.75406(4) 0.258542(24) 0.49632(4) 0.0683 Uiso
H3_2 H 0.82299(9) 0.22807(5) 0.53328(8) 0.1024 Uiso
H4_2 H 0.76701(7) 0.31193(9) 0.51979(7) 0.1024 Uiso
H5_2 H 0.67392(12) 0.24107(4) 0.53404(8) 0.1024 Uiso
C5_2 C 0.96881(23) 0.00620(6) 0.10676(11) 0.0683 Uiso
H10_2 H 0.78402(7) 0.04507(7) 0.07685(8) 0.1024 Uiso
N6_2 N 0.95478(26) 0.03780(10) 0.52166(17) 0.0683 Uiso
C8_2 C 0.17740(4) 0.001294(24) 0.61218(4) 0.0683 Uiso
H8_2 H 0.20392(7) 0.04469(6) 0.55750(8) 0.1024 Uiso
H9_2 H 0.20416(7) 0.00898(4) 0.70559(15) 0.1024 Uiso
N1_3 N 0.16256(30) 0.79442(21) 0.76818(30) 0.0683 Uiso
C1_3 C 0.24871(10) 0.75011(6) 0.84007(23) 0.0683 Uiso
C2_3 C 0.30475(21) 0.73733(15) 0.62378(16) 0.0683 Uiso
H1_3 H 0.34908(28) 0.72210(22) 0.54159(20) 0.1024 Uiso
C3_3 C 0.20033(21) 0.78597(14) 0.62951(16) 0.0683 Uiso
H2_3 H 0.15931(29) 0.80985(20) 0.55195(21) 0.1024 Uiso
C4_3 C 0.24594(4) 0.741458(24) 0.99632(4) 0.0683 Uiso
C5_3 C 0.03119(23) 0.99380(6) 0.60676(11) 0.0683 Uiso
H10_3 H 0.21598(7) 0.95493(7) 0.57685(8) 0.1024 Uiso
C6_2 C 0.82622(6) 0.01249(4) 0.55033(8) 0.0683 Uiso
H6_2 H 0.74975(10) 0.03199(6) 0.50730(11) 0.1024 Uiso
N3_3 N 0.96183(28) 0.94218(10) 0.68802(17) 0.0683 Uiso
C7_3 C 0.83035(5) 0.95510(4) 0.64899(7) 0.0683 Uiso
H7_3 H 0.75717(9) 0.92851(6) 0.68617(10) 0.1024 Uiso
N1_4 N 0.33744(30) 0.29442(21) 0.26818(30) 0.0683 Uiso
C1_4 C 0.25129(10) 0.25011(6) 0.34007(23) 0.0683 Uiso
C2_4 C 0.19525(21) 0.23733(15) 0.12378(16) 0.0683 Uiso
H1_4 H 0.15092(28) 0.22210(22) 0.04159(20) 0.1024 Uiso
C3_4 C 0.29967(21) 0.28597(14) 0.12951(16) 0.0683 Uiso
H2_4 H 0.34069(29) 0.30985(20) 0.05195(21) 0.1024 Uiso
C4_4 C 0.25406(4) 0.241458(24) 0.49632(4) 0.0683 Uiso
H3_3 H 0.32299(9) 0.27193(5) 0.53328(8) 0.1024 Uiso
H4_3 H 0.26701(7) 0.18807(9) 0.51979(7) 0.1024 Uiso
H5_3 H 0.17392(12) 0.25893(4) 0.53404(8) 0.1024 Uiso
N3_4 N 0.53817(28) 0.44218(10) 0.18802(17) 0.0683 Uiso
C5_4 C 0.46881(23) 0.49380(6) 0.10676(11) 0.0683 Uiso
C6_3 C 0.67378(6) 0.51249(4) 0.05033(8) 0.0683 Uiso
H6_3 H 0.75025(10) 0.53199(6) 0.00730(11) 0.1024 Uiso
C7_4 C 0.66965(5) 0.45510(4) 0.14899(7) 0.0683 Uiso
H7_4 H 0.74283(9) 0.42851(6) 0.18617(10) 0.1024 Uiso
C8_3 C 0.32260(4) 0.501294(24) 0.11218(4) 0.0683 Uiso
H8_3 H 0.29608(7) 0.54469(6) 0.05750(8) 0.1024 Uiso
H9_3 H 0.29584(7) 0.50898(4) 0.20559(15) 0.1024 Uiso
H10_4 H 0.28402(7) 0.45493(7) 0.07685(8) 0.1024 Uiso
N4_2 N 0.04522(26) 0.96220(10) 0.02166(17) 0.0683 Uiso
C6_4 C 0.17378(6) 0.98751(4) 0.05033(8) 0.0683 Uiso
H6_4 H 0.25025(10) 0.96801(6) 0.00730(11) 0.1024 Uiso
H3_4 H 0.17701(9) 0.77193(5) 0.03328(8) 0.1024 Uiso
H4_4 H 0.23299(7) 0.68807(9) 0.01979(7) 0.1024 Uiso
H5_4 H 0.32608(12) 0.75893(4) 0.03404(8) 0.1024 Uiso
C8_4 C 0.82260(4) 0.998706(24) 0.11218(4) 0.0683 Uiso
H8_4 H 0.79608(7) 0.95531(6) 0.05750(8) 0.1024 Uiso
H9_4 H 0.79584(7) 0.99102(4) 0.20559(15) 0.1024 Uiso
loop_
_geom_bond_atom_site_label_1
_geom_bond_atom_site_label_2
_geom_bond_site_symmetry_1
_geom_bond_site_symmetry_2
Cd1 N1 1_555 1_555
N1 C1 1_555 1_555
C1 N2 1_555 1_555
N2 C2 1_555 1_555
C2 H1 1_555 1_555
C3 N1 1_555 1_555
H2 C3 1_555 1_555
C4 C1 1_555 1_555
N3 Cd1 1_555 1_555
C5 N3 1_555 1_555
N4 C5 1_555 1_555
C6 N4 1_555 1_555
H6 C6 1_555 1_555
C7 N3 1_555 1_555
H7 C7 1_555 1_555
C8 C5 1_555 1_555
H8 C8 1_555 1_555
H9 C8 1_555 1_555
H10 C8 1_555 1_555
Cd2 N2 1_555 1_555
Cd3 N4 1_555 1_555
N5 Cd1 1_555 1_555
C2 C3 1_555 1_555
C6 C7 1_555 1_555
N3_2 Cd1_2 1_555 1_555
C7_2 N3_2 1_555 1_555
H7_2 C7_2 1_555 1_555
N5_2 Cd1_2 1_555 1_555
N1_2 C1_2 1_555 1_555
C1_2 N2_2 1_555 1_555
N2_2 C2_2 1_555 1_555
C2_2 H1_2 1_555 1_555
C3_2 N1_2 1_555 1_555
H2_2 C3_2 1_555 1_555
C4_2 C1_2 1_555 1_555
H3_2 C4_2 1_555 1_555
H4_2 C4_2 1_555 1_555
H5_2 C4_2 1_555 1_555
Cd3 N2_2 1_555 1_555
C2_2 C3_2 1_555 1_555
H8_2 C8_2 1_555 1_555
H9_2 C8_2 1_555 1_555
N1_3 C1_3 1_555 1_555
C1_3 N5 1_555 1_555
N5 C2_3 1_555 1_555
C2_3 H1_3 1_555 1_555
C3_3 N1_3 1_555 1_555
H2_3 C3_3 1_555 1_555
C4_3 C1_3 1_555 1_555
C2_3 C3_3 1_555 1_555
C6_2 N6_2 1_555 1_555
H6_2 C6_2 1_555 1_555
N3_3 Cd2 1_555 1_555
C7_3 N3_3 1_555 1_555
H7_3 C7_3 1_555 1_555
Cd3 N1_4 1_555 1_555
N1_4 C1_4 1_555 1_555
C1_4 N5_2 1_555 1_555
N5_2 C2_4 1_555 1_555
C2_4 H1_4 1_555 1_555
C3_4 N1_4 1_555 1_555
H2_4 C3_4 1_555 1_555
C4_4 C1_4 1_555 1_555
H3_3 C4_4 1_555 1_555
H4_3 C4_4 1_555 1_555
H5_3 C4_4 1_555 1_555
N3_4 Cd3 1_555 1_555
C5_4 N3_4 1_555 1_555
N6 C5_4 1_555 1_555
C6_3 N6 1_555 1_555
H6_3 C6_3 1_555 1_555
C7_4 N3_4 1_555 1_555
H7_4 C7_4 1_555 1_555
C8_3 C5_4 1_555 1_555
H8_3 C8_3 1_555 1_555
H9_3 C8_3 1_555 1_555
H10_4 C8_3 1_555 1_555
C2_4 C3_4 1_555 1_555
C6_3 C7_4 1_555 1_555
C6_4 N4_2 1_555 1_555
H6_4 C6_4 1_555 1_555
H8_4 C8_4 1_555 1_555
H9_4 C8_4 1_555 1_555

#END
