
###############################################################################
#
# This file contains modified crystal structure data generated from the
# MOF subset of the Cambridge Structural Database (CSD) v543 
# hosted by the Cambridge Crystallographic Data Centre (CCDC).
#
# This work is licensed under the Creative Commons
# Attribution-NonCommercial-ShareAlike 4.0 International License.
# To view a copy of this license, visit
# http://creativecommons.org/licenses/by-nc-sa/4.0/
# or send a letter to
# Creative Commons, PO Box 1866, Mountain View, CA 94042, USA.
#
# CIF created using the CSD Python API on 29 September 2022
# The structure has been converted into the P1 space group
# The structure has a 3D framework
# The original CSD entry BUTXOG is in the monoclinic crystal system
# The framework has been calculated to contain at least 10.0% void space
# The void calculation uses a probe of radius 1.32A, grid spacing 0.4
#
###############################################################################

data_BUTXOG
_chemical_formula_moiety         '(C28 H12 O10 Sn4)n'
_symmetry_cell_setting           triclinic
_symmetry_space_group_name_H-M   'P 1'
_symmetry_Int_Tables_number      1
_space_group_name_Hall           'P 1'
loop_
_symmetry_equiv_pos_site_id
_symmetry_equiv_pos_as_xyz
1 x,y,z
_cell_length_a                   10.8951(3)
_cell_length_b                   7.5313(2)
_cell_length_c                   8.8733(3)
_cell_angle_alpha                90
_cell_angle_beta                 92.329(3)
_cell_angle_gamma                90
_cell_volume                     727.491
loop_
_atom_site_label
_atom_site_type_symbol
_atom_site_fract_x
_atom_site_fract_y
_atom_site_fract_z
Sn1 Sn 0.53516(3) 0.60897(4) 0.20144(3)
O1 O 0.3734(3) 0.7405(4) 0.6248(3)
O2 O 0.4792(3) 0.6908(4) 0.4240(3)
O3 O 0.3932(3) 0.4094(4) 0.2521(3)
C1 C 0.3815(4) 0.6683(5) 0.4949(5)
C2 C 0.2761(4) 0.5639(5) 0.4369(4)
C3 C 0.2862(4) 0.4442(5) 0.3162(5)
C4 C 0.1805(4) 0.3517(6) 0.2700(5)
H1 H 0.184561 0.272425 0.189986
C5 C 0.1637(4) 0.5837(5) 0.5061(5)
H2 H 0.158874 0.663961 0.585318
C6 C 0.0707(4) 0.3735(6) 0.3381(5)
H3 H 0.002255 0.310617 0.301798
C7 C 0.0593(4) 0.4888(6) 0.4618(5)
Sn4 Sn 0.46484(3) 0.10897(4) 0.29856(3)
Sn6 Sn 0.53516(3) 0.89103(4) 0.70144(3)
O8 O 0.3734(3) 0.7595(4) 0.1248(3)
O9 O 0.6068(3) 0.9094(4) 0.2479(3)
O4 O 0.6266(3) 0.2595(4) 0.3752(3)
O5 O 0.5208(3) 0.3092(4) 0.5760(3)
O6 O 0.6068(3) 0.5906(4) 0.7479(3)
C8 C 0.6185(4) 0.3317(5) 0.5051(5)
C9 C 0.7239(4) 0.4361(5) 0.5631(4)
C10 C 0.7138(4) 0.5558(5) 0.6838(5)
C11 C 0.8195(4) 0.6483(6) 0.7300(5)
H4 H 0.815439 0.727575 0.810014
C12 C 0.8363(4) 0.4163(5) 0.4939(5)
H5 H 0.841126 0.336039 0.414682
C13 C 0.9293(4) 0.6265(6) 0.6619(5)
H6 H 0.997745 0.689383 0.698202
C14 C 0.9407(4) 0.5112(6) 0.5382(5)
Sn2 Sn 0.46484(3) 0.39103(4) 0.79856(3)
O7 O 0.6266(3) 0.2405(4) 0.8752(3)
O10 O 0.3932(3) 0.0906(4) 0.7521(3)
C10_2 C 0.2862(4) 0.0558(5) 0.8162(5)
C11_2 C 0.1805(4) 0.1483(6) 0.7700(5)
H4_2 H 0.184561 0.227575 0.689986
C13_2 C 0.0707(4) 0.1265(6) 0.8381(5)
H6_2 H 0.002255 0.189383 0.801798
C14_2 C 0.0593(4) 0.0112(6) 0.9618(5)
C12_2 C 0.1637(4) 0.9163(5) 0.0061(5)
H5_2 H 0.158874 0.836039 0.085318
O5_2 O 0.4792(3) 0.8092(4) 0.9240(3)
C8_2 C 0.3815(4) 0.8317(5) 0.9949(5)
C9_2 C 0.2761(4) 0.9361(5) 0.9369(4)
O2_2 O 0.5208(3) 0.1908(4) 0.0760(3)
C1_2 C 0.6185(4) 0.1683(5) 0.0051(5)
C2_2 C 0.7239(4) 0.0639(5) 0.0631(4)
C5_2 C 0.8363(4) 0.0837(5) 0.9939(5)
H2_2 H 0.841126 0.163961 0.914682
C3_2 C 0.7138(4) 0.9442(5) 0.1838(5)
C4_2 C 0.8195(4) 0.8517(6) 0.2300(5)
H1_2 H 0.815439 0.772425 0.310014
C6_2 C 0.9293(4) 0.8735(6) 0.1619(5)
H3_2 H 0.997745 0.810617 0.198202
C7_2 C 0.9407(4) 0.9888(6) 0.0382(5)
loop_
_geom_bond_atom_site_label_1
_geom_bond_atom_site_label_2
_geom_bond_site_symmetry_1
_geom_bond_site_symmetry_2
Sn1 O2 1_555 1_555
O1 C1 1_555 1_555
O2 C1 1_555 1_555
O3 Sn1 1_555 1_555
C1 C2 1_555 1_555
C2 C3 1_555 1_555
C3 O3 1_555 1_555
C4 C3 1_555 1_555
H1 C4 1_555 1_555
C5 C2 1_555 1_555
H2 C5 1_555 1_555
C6 C4 1_555 1_555
H3 C6 1_555 1_555
C7 C5 1_555 1_555
Sn4 O3 1_555 1_555
Sn6 O1 1_555 1_555
O8 Sn1 1_555 1_555
O9 Sn1 1_555 1_555
C6 C7 1_555 1_555
O4 C8 1_555 1_555
O5 C8 1_555 1_555
O6 C10 1_555 1_555
C8 C9 1_555 1_555
C9 C10 1_555 1_555
C10 C11 1_555 1_555
C11 H4 1_555 1_555
C12 C9 1_555 1_555
H5 C12 1_555 1_555
C13 C11 1_555 1_555
H6 C13 1_555 1_555
Sn2 O5 1_555 1_555
Sn4 O4 1_555 1_555
Sn6 O6 1_555 1_555
O7 Sn2 1_555 1_555
O10 Sn2 1_555 1_555
O6 Sn2 1_555 1_555
C12 C14 1_555 1_555
C13 C14 1_555 1_555
O10 C10_2 1_555 1_555
C10_2 C11_2 1_555 1_555
C11_2 H4_2 1_555 1_555
C13_2 C11_2 1_555 1_555
H6_2 C13_2 1_555 1_555
C13_2 C14_2 1_555 1_555
H5_2 C12_2 1_555 1_555
O5_2 C8_2 1_555 1_555
C8_2 C9_2 1_555 1_555
Sn6 O5_2 1_555 1_555
Sn4 O2_2 1_555 1_555
O2_2 C1_2 1_555 1_555
C1_2 C2_2 1_555 1_555
H2_2 C5_2 1_555 1_555
C3_2 O9 1_555 1_555
C4_2 C3_2 1_555 1_555
H1_2 C4_2 1_555 1_555
C6_2 C4_2 1_555 1_555
H3_2 C6_2 1_555 1_555
C6_2 C7_2 1_555 1_555

#END
