
###############################################################################
#
# This file contains modified crystal structure data generated from the
# MOF subset of the Cambridge Structural Database (CSD) v543 
# hosted by the Cambridge Crystallographic Data Centre (CCDC).
#
# This work is licensed under the Creative Commons
# Attribution-NonCommercial-ShareAlike 4.0 International License.
# To view a copy of this license, visit
# http://creativecommons.org/licenses/by-nc-sa/4.0/
# or send a letter to
# Creative Commons, PO Box 1866, Mountain View, CA 94042, USA.
#
# CIF created using the CSD Python API on 29 September 2022
# The structure has been converted into the P1 space group
# The structure has a 3D framework
# The original CSD entry BUVNIR is in the monoclinic crystal system
# The framework has been calculated to contain at least 10.0% void space
# The void calculation uses a probe of radius 1.32A, grid spacing 0.4
#
###############################################################################

data_BUVNIR
_chemical_formula_moiety         '(C144 H96 N24 O43 Zn12)n'
_symmetry_cell_setting           triclinic
_symmetry_space_group_name_H-M   'P 1'
_symmetry_Int_Tables_number      1
_space_group_name_Hall           'P 1'
loop_
_symmetry_equiv_pos_site_id
_symmetry_equiv_pos_as_xyz
1 x,y,z
_cell_length_a                   19.618(3)
_cell_length_b                   18.568(3)
_cell_length_c                   14.642(2)
_cell_angle_alpha                90
_cell_angle_beta                 128.717(7)
_cell_angle_gamma                90
_cell_volume                     4161.51
loop_
_atom_site_label
_atom_site_type_symbol
_atom_site_fract_x
_atom_site_fract_y
_atom_site_fract_z
Zn2 Zn 0.02455(8) 0.86593(8) 0.62733(9)
C7 C 0.0108(10) 0.9813(7) 0.8999(12)
C12 C 0.0652(7) 0.9738(7) 0.7853(10)
O4 O 0.1206(6) 0.9945(6) 0.7751(8)
O6 O 0.0136(6) 0.9194(5) 0.7339(7)
N1 N 0.1336(7) 0.8033(7) 0.7285(9)
N2 N 0.0423(6) 0.9189(6) 0.5240(9)
C1 C 0.1293(9) 0.7291(6) 0.7261(11)
C2 C 0.2093(10) 0.8330(8) 0.8037(12)
C3 C 0.0067(8) 0.9810(8) 0.4783(12)
C4 C 0.0865(9) 0.8921(7) 0.4922(11)
H1 H 0.0749 0.7058 0.6705
C5 C 0.2021(9) 0.6893(7) 0.8027(11)
C6 C 0.2897(10) 0.7937(9) 0.8869(13)
H2 H 0.2124 0.8840 0.8043
C8 C 0.0990(8) 0.9244(8) 0.4207(11)
H4 H 0.1121 0.8460 0.5220
C9 C 0.2814(9) 0.7206(6) 0.8796(12)
H5 H 0.1973 0.6383 0.8024
H6 H 0.3440 0.8172 0.9423
C10 C 0.0561(9) 0.9907(7) 0.3687(11)
H8 H 0.1353 0.9031 0.4060
C11 C 0.3630(9) 0.6759(7) 0.9627(10)
O3 O 0.3578(6) 0.6106(5) 0.9562(9)
Zn1 Zn 0.52455(8) 0.63407(8) 0.12733(9)
N1_2 N 0.6336(7) 0.6967(7) 0.2285(9)
N2_2 N 0.5423(6) 0.5811(6) 0.0240(9)
O1 O 0.4348(6) 0.7095(6) 0.0368(8)
O2 O 0.5136(6) 0.5806(5) 0.2339(7)
C1_2 C 0.6293(9) 0.7709(6) 0.2261(11)
C2_2 C 0.7093(10) 0.6670(8) 0.3037(12)
H1_2 H 0.5749 0.7942 0.1705
C5_2 C 0.7021(9) 0.8107(7) 0.3027(11)
C6_2 C 0.7897(10) 0.7063(9) 0.3869(13)
H2_2 H 0.7124 0.6160 0.3043
H3 H 0.4750 0.4974 0.0003
H4_2 H 0.6121 0.6540 0.0220
C9_2 C 0.7814(9) 0.7794(6) 0.3796(12)
H5_2 H 0.6973 0.8617 0.3024
H6_2 H 0.8440 0.6828 0.4423
C11_2 C 0.8630(9) 0.8241(7) 0.4627(10)
O3_2 O 0.8578(6) 0.8894(5) 0.4562(9)
O5 O 0.9348(6) 0.7905(6) 0.5368(8)
C3_2 C 0.5067(8) 0.5190(8) 0.9783(12)
C4_2 C 0.5865(9) 0.6079(7) 0.9922(11)
C7_2 C 0.5108(10) 0.4813(7) 0.8999(12)
C8_2 C 0.5990(8) 0.5756(8) 0.9207(11)
C10_2 C 0.5561(9) 0.5093(7) 0.8687(11)
H7 H 0.4818 0.4364 0.8690
H8_2 H 0.6353 0.5969 0.9060
C12_2 C 0.5652(7) 0.4738(7) 0.7853(10)
O4_2 O 0.6206(6) 0.4945(6) 0.7751(8)
O6_2 O 0.5136(6) 0.4194(5) 0.7339(7)
Zn3 Zn 0.52455(8) 0.36593(8) 0.62733(9)
Zn2_2 Zn 0.02455(8) 0.13407(8) 0.12733(9)
N1_3 N 0.6336(7) 0.3033(7) 0.7285(9)
N2_3 N 0.5423(6) 0.4189(6) 0.5240(9)
O1_2 O 0.4348(6) 0.2905(6) 0.5368(8)
C1_3 C 0.6293(9) 0.2291(6) 0.7261(11)
C2_3 C 0.7093(10) 0.3330(8) 0.8037(12)
C3_3 C 0.5067(8) 0.4810(8) 0.4783(12)
C4_3 C 0.5865(9) 0.3921(7) 0.4922(11)
H1_3 H 0.5749 0.2058 0.6705
C5_3 C 0.7021(9) 0.1893(7) 0.8027(11)
C6_3 C 0.7897(10) 0.2937(9) 0.8869(13)
H2_3 H 0.7124 0.3840 0.8043
H3_2 H 0.4750 0.5026 0.5003
C7_3 C 0.5108(10) 0.5187(7) 0.3999(12)
C8_3 C 0.5990(8) 0.4244(8) 0.4207(11)
H4_3 H 0.6121 0.3460 0.5220
C9_3 C 0.7814(9) 0.2206(6) 0.8796(12)
H5_3 H 0.6973 0.1383 0.8024
H6_3 H 0.8440 0.3172 0.9423
C10_3 C 0.5561(9) 0.4907(7) 0.3687(11)
H7_2 H 0.4818 0.5636 0.3690
H8_3 H 0.6353 0.4031 0.4060
C11_3 C 0.8630(9) 0.1759(7) 0.9627(10)
C12_3 C 0.5652(7) 0.5262(7) 0.2853(10)
O3_3 O 0.8578(6) 0.1106(5) 0.9562(9)
O4_3 O 0.6206(6) 0.5055(6) 0.2751(8)
N1_4 N 0.1336(7) 0.1967(7) 0.2285(9)
N2_4 N 0.0423(6) 0.0811(6) 0.0240(9)
O2_2 O 0.0136(6) 0.0806(5) 0.2339(7)
C1_4 C 0.1293(9) 0.2709(6) 0.2261(11)
C2_4 C 0.2093(10) 0.1670(8) 0.3037(12)
H1_4 H 0.0749 0.2942 0.1705
C5_4 C 0.2021(9) 0.3107(7) 0.3027(11)
C6_4 C 0.2897(10) 0.2063(9) 0.3869(13)
H2_4 H 0.2124 0.1160 0.3043
H4_4 H 0.1121 0.1540 0.0220
C9_4 C 0.2814(9) 0.2794(6) 0.3796(12)
H5_4 H 0.1973 0.3617 0.3024
H6_4 H 0.3440 0.1828 0.4423
C11_4 C 0.3630(9) 0.3241(7) 0.4627(10)
O3_4 O 0.3578(6) 0.3894(5) 0.4562(9)
C7_4 C 0.0108(10) 0.0187(7) 0.3999(12)
C12_4 C 0.0652(7) 0.0262(7) 0.2853(10)
O4_4 O 0.1206(6) 0.0055(6) 0.2751(8)
O5_2 O 0.9348(6) 0.2095(6) 0.0368(8)
C3_4 C 0.0067(8) 0.0190(8) 0.9783(12)
C4_4 C 0.0865(9) 0.1079(7) 0.9922(11)
C8_4 C 0.0990(8) 0.0756(8) 0.9207(11)
C10_4 C 0.0561(9) 0.0093(7) 0.8687(11)
H8_4 H 0.1353 0.0969 0.9060
H3_3 H 0.9750 0.9974 0.0003
H7_3 H 0.9818 0.9364 0.8690
H3_4 H 0.9750 0.0026 0.5003
H7_4 H 0.9818 0.0636 0.3690
C13 C 0.8060(8) 0.0077(7) 0.1162(11)
H9 H 0.8383 0.0504 0.1548
O9 O 0.7916(5) 0.0753(5) 0.2756(8)
C18 C 0.7397(10) 0.0216(8) 0.2191(13)
O10 O 0.6851(6) 0.0029(6) 0.2271(9)
Zn5 Zn 0.78105(8) 0.13380(8) 0.37307(10)
O8 O 0.4432(6) 0.3854(5) 0.0388(9)
N3 N 0.7632(7) 0.0859(5) 0.4813(8)
N4 N 0.6707(6) 0.1944(5) 0.2634(8)
C14 C 0.8163(9) 0.0264(7) 0.5421(11)
C15 C 0.7103(7) 0.1121(7) 0.5008(11)
H10 H 0.6763 0.1537 0.4597
C16 C 0.7038(9) 0.0791(8) 0.5814(12)
H11 H 0.8576 0.0101 0.5330
H12 H 0.6676 0.0993 0.5970
C17 C 0.7501(9) 0.0177(8) 0.6371(12)
C19 C 0.5982(8) 0.3092(7) 0.1976(11)
H13 H 0.6024 0.3600 0.2070
C20 C 0.5914(8) 0.1620(7) 0.1764(11)
C21 C 0.6710(8) 0.2633(8) 0.2700(12)
H14 H 0.5884 0.1110 0.1686
C22 C 0.5187(9) 0.2015(6) 0.1029(12)
H15 H 0.7253 0.2855 0.3292
C23 C 0.5179(9) 0.2738(9) 0.1093(11)
C24 C 0.4343(8) 0.3181(8) 0.0239(12)
H16 H 0.4658 0.1774 0.0439
O11 O 0.8675(6) 0.2140(5) 0.4485(8)
O8_2 O 0.9432(6) 0.1146(5) 0.5388(9)
C24_2 C 0.9343(8) 0.1819(8) 0.5239(12)
H16_2 H 0.9658 0.3226 0.5439
C14_2 C 0.8163(9) 0.9736(7) 0.0421(11)
C15_2 C 0.7103(7) 0.8879(7) 0.0008(11)
C16_2 C 0.7038(9) 0.9209(8) 0.0814(12)
H11_2 H 0.8576 0.9899 0.0330
H12_2 H 0.6676 0.9007 0.0970
C17_2 C 0.7501(9) 0.9823(8) 0.1371(12)
Zn4 Zn 0.78105(8) 0.86620(8) 0.87307(10)
O7 O 0.3675(6) 0.7140(5) 0.4485(8)
O8_3 O 0.4432(6) 0.6146(5) 0.5388(9)
N3_2 N 0.7632(7) 0.9141(5) 0.9813(8)
N4_2 N 0.6707(6) 0.8056(5) 0.7634(8)
H10_2 H 0.6763 0.8463 0.9597
C19_2 C 0.5982(8) 0.6908(7) 0.6976(11)
H13_2 H 0.6024 0.6400 0.7070
C20_2 C 0.5914(8) 0.8380(7) 0.6764(11)
C21_2 C 0.6710(8) 0.7367(8) 0.7700(12)
H14_2 H 0.5884 0.8890 0.6686
C22_2 C 0.5187(9) 0.7985(6) 0.6029(12)
H15_2 H 0.7253 0.7145 0.8292
C23_2 C 0.5179(9) 0.7262(9) 0.6093(11)
C24_3 C 0.4343(8) 0.6819(8) 0.5239(12)
H16_3 H 0.4658 0.8226 0.5439
Zn6 Zn 0.28105(8) 0.63380(8) 0.37307(10)
O11_2 O 0.8675(6) 0.7860(5) 0.9485(8)
O12 O 0.7916(5) 0.9247(5) 0.7756(8)
O7_2 O 0.3675(6) 0.2860(5) 0.9485(8)
Zn6_2 Zn 0.28105(8) 0.36620(8) 0.87307(10)
C13_2 C 0.8060(8) 0.9923(7) 0.6162(11)
H9_2 H 0.8383 0.9496 0.6548
C18_2 C 0.7397(10) 0.9784(8) 0.7191(13)
O10_2 O 0.6851(6) 0.9971(6) 0.7271(9)
C13_3 C 0.3060(8) 0.5077(7) 0.1162(11)
H9_3 H 0.3383 0.5504 0.1548
C14_3 C 0.3163(9) 0.4736(7) 0.0421(11)
C15_3 C 0.2103(7) 0.3879(7) 0.0008(11)
C16_3 C 0.2038(9) 0.4209(8) 0.0814(12)
H11_3 H 0.3576 0.4899 0.0330
H12_3 H 0.1676 0.4007 0.0970
C17_3 C 0.2501(9) 0.4823(8) 0.1371(12)
O9_2 O 0.2916(5) 0.5753(5) 0.2756(8)
C18_3 C 0.2397(10) 0.5216(8) 0.2191(13)
O10_3 O 0.1851(6) 0.5029(6) 0.2271(9)
N3_3 N 0.2632(7) 0.4141(5) 0.9813(8)
N4_3 N 0.1707(6) 0.3056(5) 0.7634(8)
H10_3 H 0.1763 0.3463 0.9597
C19_3 C 0.0982(8) 0.1908(7) 0.6976(11)
H13_3 H 0.1024 0.1400 0.7070
C20_3 C 0.0914(8) 0.3380(7) 0.6764(11)
C21_3 C 0.1710(8) 0.2367(8) 0.7700(12)
H14_3 H 0.0884 0.3890 0.6686
C22_3 C 0.0187(9) 0.2985(6) 0.6029(12)
H15_3 H 0.2253 0.2145 0.8292
C23_3 C 0.0179(9) 0.2262(9) 0.6093(11)
O12_2 O 0.2916(5) 0.4247(5) 0.7756(8)
N3_4 N 0.2632(7) 0.5859(5) 0.4813(8)
N4_4 N 0.1707(6) 0.6944(5) 0.2634(8)
C13_4 C 0.3060(8) 0.4923(7) 0.6162(11)
H9_4 H 0.3383 0.4496 0.6548
C14_4 C 0.3163(9) 0.5264(7) 0.5421(11)
C15_4 C 0.2103(7) 0.6121(7) 0.5008(11)
H10_4 H 0.1763 0.6537 0.4597
C16_4 C 0.2038(9) 0.5791(8) 0.5814(12)
H11_4 H 0.3576 0.5101 0.5330
H12_4 H 0.1676 0.5993 0.5970
C17_4 C 0.2501(9) 0.5177(8) 0.6371(12)
C18_4 C 0.2397(10) 0.4784(8) 0.7191(13)
O10_4 O 0.1851(6) 0.4971(6) 0.7271(9)
C19_4 C 0.0982(8) 0.8092(7) 0.1976(11)
H13_4 H 0.1024 0.8600 0.2070
C20_4 C 0.0914(8) 0.6620(7) 0.1764(11)
C21_4 C 0.1710(8) 0.7633(8) 0.2700(12)
H14_4 H 0.0884 0.6110 0.1686
C22_4 C 0.0187(9) 0.7015(6) 0.1029(12)
H15_4 H 0.2253 0.7855 0.3292
C23_4 C 0.0179(9) 0.7738(9) 0.1093(11)
O8_4 O 0.9432(6) 0.8854(5) 0.0388(9)
C24_4 C 0.9343(8) 0.8181(8) 0.0239(12)
H16_4 H 0.9658 0.6774 0.0439
H17 H 0.0095 0.4613 0.0750
H20 H 0.0069 0.5178 0.9180
C26 C 0.9623(10) 0.4896(8) 0.0133(15)
C28 C 0.8865(15) 0.4549(10) 0.0898(18)
O15 O 0.8262(9) 0.4791(8) 0.0910(13)
Zn8 Zn 0.91510(11) 0.36657(7) 0.24888(17)
O17 O 0.9289(8) 0.4075(6) 0.1431(9)
Zn7 Zn 0.91510(11) 0.63343(7) 0.74888(17)
O13 O 0.9989(7) 0.7116(6) 0.8371(9)
O14 O 0.9289(8) 0.5925(6) 0.6431(9)
N5 N 0.9044(9) 0.5723(6) 0.8564(11)
N6 N 0.8013(7) 0.6939(7) 0.6458(10)
C25 C 0.9622(9) 0.5277(9) 0.9237(14)
C27 C 0.8880(15) 0.5002(11) 0.9958(18)
C29 C 0.8224(9) 0.5405(8) 0.9172(11)
C30 C 0.8288(8) 0.5719(9) 0.8395(11)
H18 H 0.7788 0.5942 0.7716
H19 H 0.7732 0.5475 0.9145
C31 C 0.7226(9) 0.6611(9) 0.5646(13)
C32 C 0.6496(9) 0.7703(6) 0.4860(11)
C33 C 0.7303(8) 0.8037(6) 0.5728(10)
C34 C 0.8059(8) 0.7612(7) 0.6506(10)
O16 O 0.5819(6) 0.8818(5) 0.4088(7)
C35 C 0.5693(10) 0.8177(8) 0.4026(14)
C36 C 0.6474(8) 0.7007(7) 0.4855(11)
H21 H 0.7340 0.8547 0.5790
H22 H 0.8606 0.7839 0.7069
H23 H 0.7194 0.6100 0.5624
H24 H 0.5936 0.6764 0.4303
O18 O 0.4989(7) 0.7884(6) 0.3371(9)
Zn9 Zn 0.41510(11) 0.86657(7) 0.24888(17)
O13_2 O 0.9989(7) 0.2884(6) 0.3371(9)
N5_2 N 0.9044(9) 0.4277(6) 0.3564(11)
N6_2 N 0.8013(7) 0.3061(7) 0.1458(10)
C25_2 C 0.9622(9) 0.4723(9) 0.4237(14)
C26_2 C 0.9623(10) 0.5104(8) 0.5133(15)
C27_2 C 0.8880(15) 0.4998(11) 0.4958(18)
C28_2 C 0.8865(15) 0.5451(10) 0.5898(18)
C29_2 C 0.8224(9) 0.4595(8) 0.4172(11)
C30_2 C 0.8288(8) 0.4281(9) 0.3395(11)
H18_2 H 0.7788 0.4058 0.2716
H19_2 H 0.7732 0.4525 0.4145
O15_2 O 0.8262(9) 0.5209(8) 0.5910(13)
C31_2 C 0.7226(9) 0.3389(9) 0.0646(13)
C33_2 C 0.7303(8) 0.1963(6) 0.0728(10)
C34_2 C 0.8059(8) 0.2388(7) 0.1506(10)
H21_2 H 0.7340 0.1453 0.0790
H22_2 H 0.8606 0.2161 0.2069
H23_2 H 0.7194 0.3900 0.0624
C26_3 C 0.4623(10) 0.9896(8) 0.0133(15)
H17_2 H 0.5095 0.9613 0.0750
C28_3 C 0.3865(15) 0.9549(10) 0.0898(18)
O15_3 O 0.3262(9) 0.9791(8) 0.0910(13)
O17_2 O 0.4289(8) 0.9075(6) 0.1431(9)
N5_3 N 0.4044(9) 0.9277(6) 0.3564(11)
N6_3 N 0.3013(7) 0.8061(7) 0.1458(10)
C25_3 C 0.4622(9) 0.9723(9) 0.4237(14)
C27_3 C 0.3880(15) 0.9998(11) 0.4958(18)
C29_3 C 0.3224(9) 0.9595(8) 0.4172(11)
C30_3 C 0.3288(8) 0.9281(9) 0.3395(11)
H18_3 H 0.2788 0.9058 0.2716
H19_3 H 0.2732 0.9525 0.4145
H20_2 H 0.5069 0.9822 0.4180
C31_3 C 0.2226(9) 0.8389(9) 0.0646(13)
C33_3 C 0.2303(8) 0.6963(6) 0.0728(10)
C34_3 C 0.3059(8) 0.7388(7) 0.1506(10)
H21_3 H 0.2340 0.6453 0.0790
H22_3 H 0.3606 0.7161 0.2069
H23_3 H 0.2194 0.8900 0.0624
H17_3 H 0.0095 0.5387 0.5750
H20_3 H 0.0069 0.4822 0.4180
C32_2 C 0.6496(9) 0.2297(6) 0.9860(11)
O16_2 O 0.5819(6) 0.1182(5) 0.9088(7)
C35_2 C 0.5693(10) 0.1823(8) 0.9026(14)
C36_2 C 0.6474(8) 0.2993(7) 0.9855(11)
H24_2 H 0.5936 0.3236 0.9303
O18_2 O 0.4989(7) 0.2116(6) 0.8371(9)
Zn9_2 Zn 0.41510(11) 0.13343(7) 0.74888(17)
O14_2 O 0.4289(8) 0.0925(6) 0.6431(9)
N5_4 N 0.4044(9) 0.0723(6) 0.8564(11)
N6_4 N 0.3013(7) 0.1939(7) 0.6458(10)
C25_4 C 0.4622(9) 0.0277(9) 0.9237(14)
C27_4 C 0.3880(15) 0.0002(11) 0.9958(18)
C29_4 C 0.3224(9) 0.0405(8) 0.9172(11)
C30_4 C 0.3288(8) 0.0719(9) 0.8395(11)
H18_4 H 0.2788 0.0942 0.7716
H19_4 H 0.2732 0.0475 0.9145
H20_4 H 0.5069 0.0178 0.9180
C31_4 C 0.2226(9) 0.1611(9) 0.5646(13)
C32_3 C 0.1496(9) 0.2703(6) 0.4860(11)
C33_4 C 0.2303(8) 0.3037(6) 0.5728(10)
C34_4 C 0.3059(8) 0.2612(7) 0.6506(10)
O16_3 O 0.0819(6) 0.3818(5) 0.4088(7)
C35_3 C 0.0693(10) 0.3177(8) 0.4026(14)
C36_3 C 0.1474(8) 0.2007(7) 0.4855(11)
H21_4 H 0.2340 0.3547 0.5790
H22_4 H 0.3606 0.2839 0.7069
H23_4 H 0.2194 0.1100 0.5624
H24_3 H 0.0936 0.1764 0.4303
C26_4 C 0.4623(10) 0.0104(8) 0.5133(15)
H17_4 H 0.5095 0.0387 0.5750
C28_4 C 0.3865(15) 0.0451(10) 0.5898(18)
O15_4 O 0.3262(9) 0.0209(8) 0.5910(13)
C32_4 C 0.1496(9) 0.7297(6) 0.9860(11)
O16_4 O 0.0819(6) 0.6182(5) 0.9088(7)
C35_4 C 0.0693(10) 0.6823(8) 0.9026(14)
C36_4 C 0.1474(8) 0.7993(7) 0.9855(11)
H24_4 H 0.0936 0.8236 0.9303
loop_
_geom_bond_atom_site_label_1
_geom_bond_atom_site_label_2
_geom_bond_site_symmetry_1
_geom_bond_site_symmetry_2
O4 C12 1_555 1_555
O6 C12 1_555 1_555
Zn2 O6 1_555 1_555
Zn2 N1 1_555 1_555
N1 C1 1_555 1_555
N2 Zn2 1_555 1_555
C1 H1 1_555 1_555
C2 N1 1_555 1_555
C3 N2 1_555 1_555
C4 N2 1_555 1_555
C5 C1 1_555 1_555
C6 C2 1_555 1_555
H2 C2 1_555 1_555
C8 C4 1_555 1_555
H4 C4 1_555 1_555
C9 C5 1_555 1_555
H5 C5 1_555 1_555
H6 C6 1_555 1_555
H8 C8 1_555 1_555
C11 C9 1_555 1_555
O3 C11 1_555 1_555
C6 C9 1_555 1_555
C8 C10 1_555 1_555
Zn1 N1_2 1_555 1_555
N1_2 C1_2 1_555 1_555
N2_2 Zn1 1_555 1_555
O1 Zn1 1_555 1_555
O2 Zn1 1_555 1_555
C1_2 H1_2 1_555 1_555
C2_2 N1_2 1_555 1_555
C5_2 C1_2 1_555 1_555
C6_2 C2_2 1_555 1_555
H2_2 C2_2 1_555 1_555
C9_2 C5_2 1_555 1_555
H5_2 C5_2 1_555 1_555
H6_2 C6_2 1_555 1_555
C11_2 C9_2 1_555 1_555
O3_2 C11_2 1_555 1_555
O5 C11_2 1_555 1_555
C6_2 C9_2 1_555 1_555
C7_2 C3_2 1_555 1_555
C8_2 C4_2 1_555 1_555
C10_2 C7_2 1_555 1_555
H7 C7_2 1_555 1_555
H8_2 C8_2 1_555 1_555
C12_2 C10_2 1_555 1_555
O4_2 C12_2 1_555 1_555
O6_2 C12_2 1_555 1_555
Zn3 O6_2 1_555 1_555
C8_2 C10_2 1_555 1_555
Zn3 N1_3 1_555 1_555
N1_3 C1_3 1_555 1_555
N2_3 Zn3 1_555 1_555
O1_2 Zn3 1_555 1_555
C1_3 H1_3 1_555 1_555
C2_3 N1_3 1_555 1_555
C3_3 N2_3 1_555 1_555
C4_3 N2_3 1_555 1_555
C5_3 C1_3 1_555 1_555
C6_3 C2_3 1_555 1_555
H2_3 C2_3 1_555 1_555
H3_2 C3_3 1_555 1_555
C7_3 C3_3 1_555 1_555
C8_3 C4_3 1_555 1_555
H4_3 C4_3 1_555 1_555
C9_3 C5_3 1_555 1_555
H5_3 C5_3 1_555 1_555
H6_3 C6_3 1_555 1_555
C10_3 C7_3 1_555 1_555
H7_2 C7_3 1_555 1_555
H8_3 C8_3 1_555 1_555
C11_3 C9_3 1_555 1_555
C12_3 C10_3 1_555 1_555
O3_3 C11_3 1_555 1_555
O4_3 C12_3 1_555 1_555
O2 C12_3 1_555 1_555
C6_3 C9_3 1_555 1_555
C8_3 C10_3 1_555 1_555
Zn2_2 N1_4 1_555 1_555
N1_4 C1_4 1_555 1_555
N2_4 Zn2_2 1_555 1_555
O2_2 Zn2_2 1_555 1_555
C1_4 H1_4 1_555 1_555
C2_4 N1_4 1_555 1_555
C5_4 C1_4 1_555 1_555
C6_4 C2_4 1_555 1_555
H2_4 C2_4 1_555 1_555
C9_4 C5_4 1_555 1_555
H5_4 C5_4 1_555 1_555
H6_4 C6_4 1_555 1_555
C11_4 C9_4 1_555 1_555
O3_4 C11_4 1_555 1_555
O1_2 C11_4 1_555 1_555
C6_4 C9_4 1_555 1_555
O4_4 C12_4 1_555 1_555
O2_2 C12_4 1_555 1_555
C8_4 C4_4 1_555 1_555
H8_4 C8_4 1_555 1_555
C8_4 C10_4 1_555 1_555
C13 H9 1_555 1_555
O9 C18 1_555 1_555
O10 C18 1_555 1_555
Zn5 O9 1_555 1_555
Zn5 N3 1_555 1_555
O8 C24 1_555 1_555
N3 C14 1_555 1_555
N4 Zn5 1_555 1_555
C15 N3 1_555 1_555
H10 C15 1_555 1_555
C16 C15 1_555 1_555
H11 C14 1_555 1_555
H12 C16 1_555 1_555
C19 H13 1_555 1_555
C20 N4 1_555 1_555
C21 N4 1_555 1_555
H14 C20 1_555 1_555
C22 C20 1_555 1_555
H15 C21 1_555 1_555
C23 C19 1_555 1_555
C24 C23 1_555 1_555
H16 C22 1_555 1_555
O11 Zn5 1_555 1_555
C16 C17 1_555 1_555
C19 C21 1_555 1_555
C22 C23 1_555 1_555
O11 C24_2 1_555 1_555
O8_2 C24_2 1_555 1_555
C16_2 C15_2 1_555 1_555
H11_2 C14_2 1_555 1_555
H12_2 C16_2 1_555 1_555
C16_2 C17_2 1_555 1_555
Zn4 N3_2 1_555 1_555
O7 C24_3 1_555 1_555
O8_3 C24_3 1_555 1_555
N4_2 Zn4 1_555 1_555
C19_2 H13_2 1_555 1_555
C20_2 N4_2 1_555 1_555
C21_2 N4_2 1_555 1_555
H14_2 C20_2 1_555 1_555
C22_2 C20_2 1_555 1_555
H15_2 C21_2 1_555 1_555
C23_2 C19_2 1_555 1_555
C24_3 C23_2 1_555 1_555
H16_3 C22_2 1_555 1_555
Zn6 O7 1_555 1_555
O11_2 Zn4 1_555 1_555
O12 Zn4 1_555 1_555
C19_2 C21_2 1_555 1_555
C22_2 C23_2 1_555 1_555
Zn6_2 O7_2 1_555 1_555
C13_2 H9_2 1_555 1_555
O12 C18_2 1_555 1_555
O10_2 C18_2 1_555 1_555
C13_3 H9_3 1_555 1_555
C14_3 C13_3 1_555 1_555
C16_3 C15_3 1_555 1_555
H11_3 C14_3 1_555 1_555
H12_3 C16_3 1_555 1_555
C17_3 C13_3 1_555 1_555
O9_2 C18_3 1_555 1_555
C18_3 C17_3 1_555 1_555
O10_3 C18_3 1_555 1_555
Zn6 O9_2 1_555 1_555
C16_3 C17_3 1_555 1_555
Zn6_2 N3_3 1_555 1_555
N4_3 Zn6_2 1_555 1_555
C19_3 H13_3 1_555 1_555
C20_3 N4_3 1_555 1_555
C21_3 N4_3 1_555 1_555
H14_3 C20_3 1_555 1_555
C22_3 C20_3 1_555 1_555
H15_3 C21_3 1_555 1_555
C23_3 C19_3 1_555 1_555
O12_2 Zn6_2 1_555 1_555
C19_3 C21_3 1_555 1_555
C22_3 C23_3 1_555 1_555
Zn6 N3_4 1_555 1_555
N3_4 C14_4 1_555 1_555
N4_4 Zn6 1_555 1_555
C13_4 H9_4 1_555 1_555
C14_4 C13_4 1_555 1_555
C15_4 N3_4 1_555 1_555
H10_4 C15_4 1_555 1_555
C16_4 C15_4 1_555 1_555
H11_4 C14_4 1_555 1_555
H12_4 C16_4 1_555 1_555
C17_4 C13_4 1_555 1_555
O12_2 C18_4 1_555 1_555
C18_4 C17_4 1_555 1_555
O10_4 C18_4 1_555 1_555
C19_4 H13_4 1_555 1_555
C20_4 N4_4 1_555 1_555
C21_4 N4_4 1_555 1_555
H14_4 C20_4 1_555 1_555
C22_4 C20_4 1_555 1_555
H15_4 C21_4 1_555 1_555
C23_4 C19_4 1_555 1_555
C16_4 C17_4 1_555 1_555
C19_4 C21_4 1_555 1_555
C22_4 C23_4 1_555 1_555
O8_4 C24_4 1_555 1_555
O15 C28 1_555 1_555
Zn8 O17 1_555 1_555
O17 C28 1_555 1_555
Zn7 O13 1_555 1_555
O14 Zn7 1_555 1_555
N5 Zn7 1_555 1_555
N6 Zn7 1_555 1_555
C25 N5 1_555 1_555
C29 C27 1_555 1_555
C30 N5 1_555 1_555
H18 C30 1_555 1_555
H19 C29 1_555 1_555
C31 N6 1_555 1_555
C32 C33 1_555 1_555
C33 C34 1_555 1_555
C34 N6 1_555 1_555
O16 C35 1_555 1_555
C35 C32 1_555 1_555
C36 C31 1_555 1_555
H21 C33 1_555 1_555
H22 C34 1_555 1_555
H23 C31 1_555 1_555
H24 C36 1_555 1_555
O18 C35 1_555 1_555
Zn9 O18 1_555 1_555
C29 C30 1_555 1_555
C32 C36 1_555 1_555
Zn8 O13_2 1_555 1_555
N5_2 Zn8 1_555 1_555
N6_2 Zn8 1_555 1_555
C25_2 N5_2 1_555 1_555
C26_2 C25_2 1_555 1_555
C27_2 C26_2 1_555 1_555
C28_2 C27_2 1_555 1_555
C29_2 C27_2 1_555 1_555
C30_2 N5_2 1_555 1_555
H18_2 C30_2 1_555 1_555
H19_2 C29_2 1_555 1_555
O15_2 C28_2 1_555 1_555
C31_2 N6_2 1_555 1_555
C33_2 C34_2 1_555 1_555
C34_2 N6_2 1_555 1_555
H21_2 C33_2 1_555 1_555
H22_2 C34_2 1_555 1_555
H23_2 C31_2 1_555 1_555
O14 C28_2 1_555 1_555
C29_2 C30_2 1_555 1_555
H17_2 C26_3 1_555 1_555
O15_3 C28_3 1_555 1_555
Zn9 O17_2 1_555 1_555
O17_2 C28_3 1_555 1_555
N5_3 Zn9 1_555 1_555
N6_3 Zn9 1_555 1_555
C25_3 N5_3 1_555 1_555
C29_3 C27_3 1_555 1_555
C30_3 N5_3 1_555 1_555
H18_3 C30_3 1_555 1_555
H19_3 C29_3 1_555 1_555
H20_2 C25_3 1_555 1_555
C31_3 N6_3 1_555 1_555
C33_3 C34_3 1_555 1_555
C34_3 N6_3 1_555 1_555
H21_3 C33_3 1_555 1_555
H22_3 C34_3 1_555 1_555
H23_3 C31_3 1_555 1_555
C29_3 C30_3 1_555 1_555
O16_2 C35_2 1_555 1_555
C35_2 C32_2 1_555 1_555
H24_2 C36_2 1_555 1_555
O18_2 C35_2 1_555 1_555
Zn9_2 O18_2 1_555 1_555
C32_2 C36_2 1_555 1_555
O14_2 Zn9_2 1_555 1_555
N5_4 Zn9_2 1_555 1_555
N6_4 Zn9_2 1_555 1_555
C25_4 N5_4 1_555 1_555
C29_4 C27_4 1_555 1_555
C30_4 N5_4 1_555 1_555
H18_4 C30_4 1_555 1_555
H19_4 C29_4 1_555 1_555
H20_4 C25_4 1_555 1_555
C31_4 N6_4 1_555 1_555
C32_3 C33_4 1_555 1_555
C33_4 C34_4 1_555 1_555
C34_4 N6_4 1_555 1_555
O16_3 C35_3 1_555 1_555
C35_3 C32_3 1_555 1_555
C36_3 C31_4 1_555 1_555
H21_4 C33_4 1_555 1_555
H22_4 C34_4 1_555 1_555
H23_4 C31_4 1_555 1_555
H24_3 C36_3 1_555 1_555
C29_4 C30_4 1_555 1_555
C32_3 C36_3 1_555 1_555
H17_4 C26_4 1_555 1_555
O15_4 C28_4 1_555 1_555
O14_2 C28_4 1_555 1_555
O16_4 C35_4 1_555 1_555
C35_4 C32_4 1_555 1_555
H24_4 C36_4 1_555 1_555
C32_4 C36_4 1_555 1_555

#END
