
###############################################################################
#
# This file contains modified crystal structure data generated from the
# MOF subset of the Cambridge Structural Database (CSD) v543 
# hosted by the Cambridge Crystallographic Data Centre (CCDC).
#
# This work is licensed under the Creative Commons
# Attribution-NonCommercial-ShareAlike 4.0 International License.
# To view a copy of this license, visit
# http://creativecommons.org/licenses/by-nc-sa/4.0/
# or send a letter to
# Creative Commons, PO Box 1866, Mountain View, CA 94042, USA.
#
# CIF created using the CSD Python API on 29 September 2022
# The structure has been converted into the P1 space group
# The structure has a 3D framework
# The original CSD entry BUVSUJ is in the monoclinic crystal system
# The framework has been calculated to contain at least 10.0% void space
# The void calculation uses a probe of radius 1.32A, grid spacing 0.4
#
###############################################################################

data_BUVSUJ
_chemical_formula_moiety         '(C104 H64 N8 Ni8 O36)n'
_symmetry_cell_setting           triclinic
_symmetry_space_group_name_H-M   'P 1'
_symmetry_Int_Tables_number      1
_space_group_name_Hall           'P 1'
loop_
_symmetry_equiv_pos_site_id
_symmetry_equiv_pos_as_xyz
1 x,y,z
_cell_length_a                   11.778(2)
_cell_length_b                   13.566(3)
_cell_length_c                   19.386(6)
_cell_angle_alpha                90
_cell_angle_beta                 117.10(2)
_cell_angle_gamma                90
_cell_volume                     2757.44
loop_
_atom_site_label
_atom_site_type_symbol
_atom_site_fract_x
_atom_site_fract_y
_atom_site_fract_z
O3 O 0.1442(3) 0.2525(3) 0.7746(2)
O4 O 0.1370(3) 0.3306(3) 0.6754(2)
H5 H 0.015600 0.106908 0.735294
C8 C 0.1002(5) 0.2695(4) 0.7051(3)
Ni3 Ni 0.24741(6) 0.43558(4) 0.72848(4)
Ni6 Ni 0.28882(6) 0.29043(5) 0.87157(4)
O5 O 0.6575(4) 0.4392(3) 0.2563(2)
O6 O 0.8209(3) 0.4660(3) 0.3618(2)
O7 O 0.4046(3) 0.1368(3) 0.2219(2)
O8 O 0.3778(3) 0.1286(2) 0.3221(2)
C2 C 0.8700(3) 0.06557(19) 0.63160(17)
C3 C 0.8007(3) 0.0928(2) 0.55434(16)
H3 H 0.738008 0.052215 0.526026
C4 C 0.8295(3) 0.1799(2) 0.52796(13)
C5 C 0.9277(3) 0.23979(19) 0.57884(17)
H4 H 0.954778 0.298760 0.570162
C6 C 0.9971(3) 0.2126(2) 0.65610(16)
C7 C 0.9682(3) 0.1255(2) 0.68249(13)
C9 C 0.7312(5) 0.4141(4) 0.3221(3)
C10 C 0.7079(3) 0.3263(2) 0.34924(17)
C11 C 0.7865(2) 0.2939(2) 0.42410(16)
H6 H 0.860016 0.325778 0.449821
C12 C 0.7513(3) 0.2128(2) 0.45376(14)
C13 C 0.6375(3) 0.1640(2) 0.40855(17)
H7 H 0.608956 0.117722 0.429262
C14 C 0.5589(2) 0.1964(2) 0.33368(16)
C15 C 0.5942(3) 0.2775(2) 0.30402(14)
H8 H 0.540455 0.299650 0.252855
C16 C 0.4427(5) 0.1530(4) 0.2895(3)
Ni4 Ni 0.24741(6) 0.06442(4) 0.22848(4)
Ni5 Ni 0.75259(6) 0.56442(4) 0.27152(4)
Ni7 Ni 0.28882(6) 0.20957(5) 0.37157(4)
O12 O 0.6575(4) 0.0608(3) 0.7563(2)
O13 O 0.8209(3) 0.0340(3) 0.8618(2)
Ni1 Ni 0.75259(6) 0.93558(4) 0.77152(4)
Ni2 Ni 0.71118(6) 0.79043(5) 0.62843(4)
O1 O 0.7805(3) 0.9173(3) 0.6154(2)
O2 O 0.8554(4) 0.9884(3) 0.7274(2)
O9 O 0.8094(4) 0.7235(3) 0.5806(2)
H1 H 0.796077 0.762249 0.545149
H2 H 0.768483 0.672554 0.563584
N1 N 0.5649(4) 0.8008(3) 0.5244(3)
N2 N 0.6171(4) 0.6662(3) 0.6243(3)
C1 C 0.8326(5) 0.9845(4) 0.6597(3)
C17 C 0.5450(6) 0.8727(4) 0.4768(3)
H9 H 0.599510 0.928579 0.494157
C18 C 0.4524(6) 0.8722(5) 0.4052(3)
H10 H 0.439188 0.927041 0.371896
C19 C 0.3784(6) 0.7937(5) 0.3809(3)
H11 H 0.312735 0.790560 0.329021
C20 C 0.3960(6) 0.7190(4) 0.4291(3)
H12 H 0.342485 0.662601 0.412689
C21 C 0.4906(5) 0.7252(4) 0.5012(3)
C22 C 0.5167(5) 0.6504(4) 0.5588(3)
C23 C 0.4421(6) 0.5717(4) 0.5485(4)
H13 H 0.368590 0.561536 0.500395
C24 C 0.4718(6) 0.5078(4) 0.6062(4)
H14 H 0.419752 0.451623 0.599799
C25 C 0.5741(6) 0.5233(4) 0.6723(4)
H15 H 0.596617 0.478747 0.714360
C26 C 0.6458(6) 0.6028(4) 0.6795(4)
H16 H 0.720603 0.612950 0.726898
O10 O 0.8558(3) 0.7525(3) 0.7254(2)
O11 O 0.8630(3) 0.8306(3) 0.8246(2)
O14 O 0.5954(3) 0.8632(3) 0.7781(2)
O15 O 0.6222(3) 0.8714(2) 0.6779(2)
O5_2 O 0.3425(4) 0.9392(3) 0.2437(2)
O6_2 O 0.1791(3) 0.9660(3) 0.1382(2)
O7_2 O 0.5954(3) 0.6368(3) 0.2781(2)
O8_2 O 0.6222(3) 0.6286(2) 0.1779(2)
C9_2 C 0.2688(5) 0.9141(4) 0.1779(3)
C10_2 C 0.2921(3) 0.8263(2) 0.15076(17)
C11_2 C 0.2135(2) 0.7939(2) 0.07590(16)
H6_2 H 0.139984 0.825778 0.050179
C12_2 C 0.2487(3) 0.7128(2) 0.04624(14)
C13_2 C 0.3625(3) 0.6640(2) 0.09145(17)
H7_2 H 0.391044 0.617722 0.070738
C14_2 C 0.4411(2) 0.6964(2) 0.16632(16)
C15_2 C 0.4058(3) 0.7775(2) 0.19598(14)
H8_2 H 0.459545 0.799650 0.247145
C16_2 C 0.5573(5) 0.6530(4) 0.2105(3)
C17_2 C 0.4550(6) 0.3727(4) 0.0232(3)
H9_2 H 0.400490 0.428579 0.005843
C18_2 C 0.5476(6) 0.3722(5) 0.0948(3)
H10_2 H 0.560812 0.427041 0.128104
C19_2 C 0.6216(6) 0.2937(5) 0.1191(3)
H11_2 H 0.687265 0.290560 0.170979
C20_2 C 0.6040(6) 0.2190(4) 0.0709(3)
H12_2 H 0.657515 0.162601 0.087311
Ni7_2 Ni 0.71118(6) 0.70957(5) 0.12843(4)
O1_2 O 0.2195(3) 0.4173(3) 0.8846(2)
O2_2 O 0.1446(4) 0.4884(3) 0.7726(2)
O9_2 O 0.1906(4) 0.2235(3) 0.9194(2)
H1_2 H 0.203923 0.262249 0.954851
H2_2 H 0.231517 0.172554 0.936416
N1_2 N 0.4351(4) 0.3008(3) 0.9756(3)
N2_2 N 0.3829(4) 0.1662(3) 0.8757(3)
C1_2 C 0.1674(5) 0.4845(4) 0.8403(3)
C2_2 C 0.1300(3) 0.56557(19) 0.86840(17)
C3_2 C 0.1993(3) 0.5928(2) 0.94566(16)
H3_2 H 0.261992 0.552215 0.973974
C4_2 C 0.1705(3) 0.6799(2) 0.97204(13)
C5_2 C 0.0723(3) 0.73979(19) 0.92116(17)
H4_2 H 0.045222 0.798760 0.929838
C6_2 C 0.0029(3) 0.7126(2) 0.84390(16)
C7_2 C 0.0318(3) 0.6255(2) 0.81751(13)
C21_2 C 0.5094(5) 0.2252(4) 0.9988(3)
C22_2 C 0.4833(5) 0.1504(4) 0.9412(3)
C23_2 C 0.5579(6) 0.0717(4) 0.9515(4)
H13_2 H 0.631410 0.061536 0.999605
C24_2 C 0.5282(6) 0.0078(4) 0.8938(4)
C25_2 C 0.4259(6) 0.0233(4) 0.8277(4)
C26_2 C 0.3542(6) 0.1028(4) 0.8205(4)
H16_2 H 0.279397 0.112950 0.773102
O12_2 O 0.3425(4) 0.5608(3) 0.7437(2)
O13_2 O 0.1791(3) 0.5340(3) 0.6382(2)
O14_2 O 0.4046(3) 0.3632(3) 0.7219(2)
O15_2 O 0.3778(3) 0.3714(2) 0.8221(2)
H5_2 H 0.984400 0.606908 0.764706
C8_2 C 0.8998(5) 0.7695(4) 0.7949(3)
O1_3 O 0.2195(3) 0.0827(3) 0.3846(2)
O2_3 O 0.1446(4) 0.0116(3) 0.2726(2)
O9_3 O 0.1906(4) 0.2765(3) 0.4194(2)
H1_3 H 0.203923 0.237751 0.454851
H2_3 H 0.231517 0.327446 0.436416
N1_3 N 0.4351(4) 0.1992(3) 0.4756(3)
N2_3 N 0.3829(4) 0.3338(3) 0.3757(3)
C1_3 C 0.1674(5) 0.0155(4) 0.3403(3)
C17_3 C 0.4550(6) 0.1273(4) 0.5232(3)
H9_3 H 0.400490 0.071421 0.505843
C18_3 C 0.5476(6) 0.1278(5) 0.5948(3)
H10_3 H 0.560812 0.072959 0.628104
C19_3 C 0.6216(6) 0.2063(5) 0.6191(3)
H11_3 H 0.687265 0.209440 0.670979
C20_3 C 0.6040(6) 0.2810(4) 0.5709(3)
H12_3 H 0.657515 0.337399 0.587311
C21_3 C 0.5094(5) 0.2748(4) 0.4988(3)
C22_3 C 0.4833(5) 0.3496(4) 0.4412(3)
C23_3 C 0.5579(6) 0.4283(4) 0.4515(4)
H13_3 H 0.631410 0.438464 0.499605
C24_3 C 0.5282(6) 0.4922(4) 0.3938(4)
H14_2 H 0.580248 0.548377 0.400201
C25_3 C 0.4259(6) 0.4767(4) 0.3277(4)
H15_2 H 0.403383 0.521253 0.285640
C26_3 C 0.3542(6) 0.3972(4) 0.3205(4)
H16_3 H 0.279397 0.387050 0.273102
O10_2 O 0.1442(3) 0.2475(3) 0.2746(2)
O11_2 O 0.1370(3) 0.1694(3) 0.1754(2)
C2_3 C 0.1300(3) 0.93443(19) 0.36840(17)
C3_3 C 0.1993(3) 0.9072(2) 0.44566(16)
H3_3 H 0.261992 0.947785 0.473974
C4_3 C 0.1705(3) 0.8201(2) 0.47204(13)
C5_3 C 0.0723(3) 0.76021(19) 0.42116(17)
H4_3 H 0.045222 0.701240 0.429838
C6_3 C 0.0029(3) 0.7874(2) 0.34390(16)
C7_3 C 0.0318(3) 0.8745(2) 0.31751(13)
C9_3 C 0.2688(5) 0.5859(4) 0.6779(3)
C10_3 C 0.2921(3) 0.6737(2) 0.65076(17)
C11_3 C 0.2135(2) 0.7061(2) 0.57590(16)
H6_3 H 0.139984 0.674222 0.550179
C12_3 C 0.2487(3) 0.7872(2) 0.54624(14)
C13_3 C 0.3625(3) 0.8360(2) 0.59145(17)
H7_3 H 0.391044 0.882278 0.570738
C14_3 C 0.4411(2) 0.8036(2) 0.66632(16)
C15_3 C 0.4058(3) 0.7225(2) 0.69598(14)
H8_3 H 0.459545 0.700350 0.747145
C16_3 C 0.5573(5) 0.8470(4) 0.7105(3)
O3_2 O 0.8558(3) 0.7475(3) 0.2254(2)
O4_2 O 0.8630(3) 0.6694(3) 0.3246(2)
H5_3 H 0.984400 0.893092 0.264706
C8_3 C 0.8998(5) 0.7305(4) 0.2949(3)
H5_4 H 0.015600 0.393092 0.235294
C8_4 C 0.1002(5) 0.2305(4) 0.2051(3)
O1_4 O 0.7805(3) 0.5827(3) 0.1154(2)
O2_4 O 0.8554(4) 0.5116(3) 0.2274(2)
O9_4 O 0.8094(4) 0.7765(3) 0.0806(2)
H1_4 H 0.796077 0.737751 0.045149
H2_4 H 0.768483 0.827446 0.063584
N1_4 N 0.5649(4) 0.6992(3) 0.0244(3)
N2_4 N 0.6171(4) 0.8338(3) 0.1243(3)
C1_4 C 0.8326(5) 0.5155(4) 0.1597(3)
C2_4 C 0.8700(3) 0.43443(19) 0.13160(17)
C3_4 C 0.8007(3) 0.4072(2) 0.05434(16)
H3_4 H 0.738008 0.447785 0.026026
C4_4 C 0.8295(3) 0.3201(2) 0.02796(13)
C5_4 C 0.9277(3) 0.26021(19) 0.07884(17)
H4_4 H 0.954778 0.201240 0.070162
C6_4 C 0.9971(3) 0.2874(2) 0.15610(16)
C7_4 C 0.9682(3) 0.3745(2) 0.18249(13)
C21_4 C 0.4906(5) 0.7748(4) 0.0012(3)
C22_4 C 0.5167(5) 0.8496(4) 0.0588(3)
C23_4 C 0.4421(6) 0.9283(4) 0.0485(4)
H13_4 H 0.368590 0.938464 0.000395
C24_4 C 0.4718(6) 0.9922(4) 0.1062(4)
C25_4 C 0.5741(6) 0.9767(4) 0.1723(4)
C26_4 C 0.6458(6) 0.8972(4) 0.1795(4)
H16_4 H 0.720603 0.887050 0.226898
C9_4 C 0.7312(5) 0.0859(4) 0.8221(3)
C10_4 C 0.7079(3) 0.1737(2) 0.84924(17)
C11_4 C 0.7865(2) 0.2061(2) 0.92410(16)
H6_4 H 0.860016 0.174222 0.949821
C12_4 C 0.7513(3) 0.2872(2) 0.95376(14)
C13_4 C 0.6375(3) 0.3360(2) 0.90855(17)
H7_4 H 0.608956 0.382278 0.929262
C14_4 C 0.5589(2) 0.3036(2) 0.83368(16)
C15_4 C 0.5942(3) 0.2225(2) 0.80402(14)
H8_4 H 0.540455 0.200350 0.752855
C16_4 C 0.4427(5) 0.3470(4) 0.7895(3)
C17_4 C 0.5450(6) 0.6273(4) 0.9768(3)
H9_4 H 0.599510 0.571421 0.994157
C18_4 C 0.4524(6) 0.6278(5) 0.9052(3)
H10_4 H 0.439188 0.572959 0.871896
C19_4 C 0.3784(6) 0.7063(5) 0.8809(3)
H11_4 H 0.312735 0.709440 0.829021
C20_4 C 0.3960(6) 0.7810(4) 0.9291(3)
H12_4 H 0.342485 0.837399 0.912689
H14_3 H 0.580248 0.951623 0.900201
H15_3 H 0.403383 0.978747 0.785640
H14_4 H 0.419752 0.048377 0.099799
H15_4 H 0.596617 0.021253 0.214360
loop_
_geom_bond_atom_site_label_1
_geom_bond_atom_site_label_2
_geom_bond_site_symmetry_1
_geom_bond_site_symmetry_2
O3 C8 1_555 1_555
O4 C8 1_555 1_555
Ni3 O4 1_555 1_555
Ni6 O3 1_555 1_555
O5 C9 1_555 1_555
O6 C9 1_555 1_555
O7 C16 1_555 1_555
O8 C16 1_555 1_555
C2 C3 1_555 1_555
C3 H3 1_555 1_555
C4 C3 1_555 1_555
C5 C4 1_555 1_555
H4 C5 1_555 1_555
C6 C5 1_555 1_555
C7 C2 1_555 1_555
C9 C10 1_555 1_555
C10 C11 1_555 1_555
C11 H6 1_555 1_555
C12 C4 1_555 1_555
C13 C12 1_555 1_555
H7 C13 1_555 1_555
C14 C13 1_555 1_555
C15 C10 1_555 1_555
H8 C15 1_555 1_555
C16 C14 1_555 1_555
Ni4 O7 1_555 1_555
Ni5 O5 1_555 1_555
Ni7 O8 1_555 1_555
O6 Ni5 1_555 1_555
O8 Ni4 1_555 1_555
C6 C7 1_555 1_555
C11 C12 1_555 1_555
C14 C15 1_555 1_555
Ni1 O2 1_555 1_555
Ni2 O1 1_555 1_555
O1 C1 1_555 1_555
O2 C1 1_555 1_555
O9 Ni2 1_555 1_555
H1 O9 1_555 1_555
H2 O9 1_555 1_555
N1 Ni2 1_555 1_555
N2 Ni2 1_555 1_555
C17 N1 1_555 1_555
H9 C17 1_555 1_555
C18 C17 1_555 1_555
H10 C18 1_555 1_555
C19 C18 1_555 1_555
H11 C19 1_555 1_555
C20 C19 1_555 1_555
H12 C20 1_555 1_555
C21 N1 1_555 1_555
C22 N2 1_555 1_555
C23 C22 1_555 1_555
H13 C23 1_555 1_555
C24 C23 1_555 1_555
H14 C24 1_555 1_555
C25 C24 1_555 1_555
H15 C25 1_555 1_555
C26 N2 1_555 1_555
H16 C26 1_555 1_555
O10 Ni2 1_555 1_555
O11 Ni1 1_555 1_555
O14 Ni1 1_555 1_555
O15 Ni1 1_555 1_555
Ni2 O15 1_555 1_555
C20 C21 1_555 1_555
C21 C22 1_555 1_555
C25 C26 1_555 1_555
O5_2 C9_2 1_555 1_555
O6_2 C9_2 1_555 1_555
O7_2 C16_2 1_555 1_555
O8_2 C16_2 1_555 1_555
C9_2 C10_2 1_555 1_555
C10_2 C11_2 1_555 1_555
C11_2 H6_2 1_555 1_555
C13_2 C12_2 1_555 1_555
H7_2 C13_2 1_555 1_555
C14_2 C13_2 1_555 1_555
C15_2 C10_2 1_555 1_555
H8_2 C15_2 1_555 1_555
C16_2 C14_2 1_555 1_555
H9_2 C17_2 1_555 1_555
C18_2 C17_2 1_555 1_555
H10_2 C18_2 1_555 1_555
C19_2 C18_2 1_555 1_555
H11_2 C19_2 1_555 1_555
C20_2 C19_2 1_555 1_555
H12_2 C20_2 1_555 1_555
Ni5 O7_2 1_555 1_555
Ni7_2 O8_2 1_555 1_555
O8_2 Ni5 1_555 1_555
C11_2 C12_2 1_555 1_555
C14_2 C15_2 1_555 1_555
Ni3 O2_2 1_555 1_555
Ni6 O1_2 1_555 1_555
O1_2 C1_2 1_555 1_555
O2_2 C1_2 1_555 1_555
O9_2 Ni6 1_555 1_555
H1_2 O9_2 1_555 1_555
H2_2 O9_2 1_555 1_555
N1_2 Ni6 1_555 1_555
N2_2 Ni6 1_555 1_555
C1_2 C2_2 1_555 1_555
C2_2 C3_2 1_555 1_555
C3_2 H3_2 1_555 1_555
C4_2 C3_2 1_555 1_555
C5_2 C4_2 1_555 1_555
H4_2 C5_2 1_555 1_555
C6_2 C5_2 1_555 1_555
C7_2 C2_2 1_555 1_555
C21_2 N1_2 1_555 1_555
C22_2 N2_2 1_555 1_555
C23_2 C22_2 1_555 1_555
H13_2 C23_2 1_555 1_555
C24_2 C23_2 1_555 1_555
C25_2 C24_2 1_555 1_555
C26_2 N2_2 1_555 1_555
H16_2 C26_2 1_555 1_555
O12_2 Ni3 1_555 1_555
O13_2 Ni3 1_555 1_555
O14_2 Ni3 1_555 1_555
O15_2 Ni3 1_555 1_555
Ni6 O15_2 1_555 1_555
C6_2 C7_2 1_555 1_555
C21_2 C22_2 1_555 1_555
C25_2 C26_2 1_555 1_555
O10 C8_2 1_555 1_555
O11 C8_2 1_555 1_555
Ni4 O2_3 1_555 1_555
Ni7 O1_3 1_555 1_555
O1_3 C1_3 1_555 1_555
O2_3 C1_3 1_555 1_555
O9_3 Ni7 1_555 1_555
H1_3 O9_3 1_555 1_555
H2_3 O9_3 1_555 1_555
N1_3 Ni7 1_555 1_555
N2_3 Ni7 1_555 1_555
C17_3 N1_3 1_555 1_555
H9_3 C17_3 1_555 1_555
C18_3 C17_3 1_555 1_555
H10_3 C18_3 1_555 1_555
C19_3 C18_3 1_555 1_555
H11_3 C19_3 1_555 1_555
C20_3 C19_3 1_555 1_555
H12_3 C20_3 1_555 1_555
C21_3 N1_3 1_555 1_555
C22_3 N2_3 1_555 1_555
C23_3 C22_3 1_555 1_555
H13_3 C23_3 1_555 1_555
C24_3 C23_3 1_555 1_555
H14_2 C24_3 1_555 1_555
C25_3 C24_3 1_555 1_555
H15_2 C25_3 1_555 1_555
C26_3 N2_3 1_555 1_555
H16_3 C26_3 1_555 1_555
O10_2 Ni7 1_555 1_555
O11_2 Ni4 1_555 1_555
C20_3 C21_3 1_555 1_555
C21_3 C22_3 1_555 1_555
C25_3 C26_3 1_555 1_555
O12_2 C9_3 1_555 1_555
O13_2 C9_3 1_555 1_555
O14 C16_3 1_555 1_555
O15 C16_3 1_555 1_555
C2_3 C3_3 1_555 1_555
C3_3 H3_3 1_555 1_555
C4_3 C3_3 1_555 1_555
C5_3 C4_3 1_555 1_555
H4_3 C5_3 1_555 1_555
C6_3 C5_3 1_555 1_555
C7_3 C2_3 1_555 1_555
C9_3 C10_3 1_555 1_555
C10_3 C11_3 1_555 1_555
C11_3 H6_3 1_555 1_555
C12_3 C4_3 1_555 1_555
C13_3 C12_3 1_555 1_555
H7_3 C13_3 1_555 1_555
C14_3 C13_3 1_555 1_555
C15_3 C10_3 1_555 1_555
H8_3 C15_3 1_555 1_555
C16_3 C14_3 1_555 1_555
C6_3 C7_3 1_555 1_555
C11_3 C12_3 1_555 1_555
C14_3 C15_3 1_555 1_555
O3_2 C8_3 1_555 1_555
O4_2 C8_3 1_555 1_555
Ni5 O4_2 1_555 1_555
Ni7_2 O3_2 1_555 1_555
O10_2 C8_4 1_555 1_555
O11_2 C8_4 1_555 1_555
Ni5 O2_4 1_555 1_555
Ni7_2 O1_4 1_555 1_555
O1_4 C1_4 1_555 1_555
O2_4 C1_4 1_555 1_555
O9_4 Ni7_2 1_555 1_555
H1_4 O9_4 1_555 1_555
H2_4 O9_4 1_555 1_555
N1_4 Ni7_2 1_555 1_555
N2_4 Ni7_2 1_555 1_555
C1_4 C2_4 1_555 1_555
C2_4 C3_4 1_555 1_555
C3_4 H3_4 1_555 1_555
C4_4 C3_4 1_555 1_555
C5_4 C4_4 1_555 1_555
H4_4 C5_4 1_555 1_555
C6_4 C5_4 1_555 1_555
C7_4 C2_4 1_555 1_555
C21_4 N1_4 1_555 1_555
C22_4 N2_4 1_555 1_555
C23_4 C22_4 1_555 1_555
H13_4 C23_4 1_555 1_555
C24_4 C23_4 1_555 1_555
C25_4 C24_4 1_555 1_555
C26_4 N2_4 1_555 1_555
H16_4 C26_4 1_555 1_555
C6_4 C7_4 1_555 1_555
C21_4 C22_4 1_555 1_555
C25_4 C26_4 1_555 1_555
O12 C9_4 1_555 1_555
O13 C9_4 1_555 1_555
O14_2 C16_4 1_555 1_555
O15_2 C16_4 1_555 1_555
C9_4 C10_4 1_555 1_555
C10_4 C11_4 1_555 1_555
C11_4 H6_4 1_555 1_555
C13_4 C12_4 1_555 1_555
H7_4 C13_4 1_555 1_555
C14_4 C13_4 1_555 1_555
C15_4 C10_4 1_555 1_555
H8_4 C15_4 1_555 1_555
C16_4 C14_4 1_555 1_555
H9_4 C17_4 1_555 1_555
C18_4 C17_4 1_555 1_555
H10_4 C18_4 1_555 1_555
C19_4 C18_4 1_555 1_555
H11_4 C19_4 1_555 1_555
C20_4 C19_4 1_555 1_555
H12_4 C20_4 1_555 1_555
C11_4 C12_4 1_555 1_555
C14_4 C15_4 1_555 1_555

#END
