
###############################################################################
#
# This file contains modified crystal structure data generated from the
# MOF subset of the Cambridge Structural Database (CSD) v543 
# hosted by the Cambridge Crystallographic Data Centre (CCDC).
#
# This work is licensed under the Creative Commons
# Attribution-NonCommercial-ShareAlike 4.0 International License.
# To view a copy of this license, visit
# http://creativecommons.org/licenses/by-nc-sa/4.0/
# or send a letter to
# Creative Commons, PO Box 1866, Mountain View, CA 94042, USA.
#
# CIF created using the CSD Python API on 29 September 2022
# The structure has been converted into the P1 space group
# The structure has a 3D framework
# The original CSD entry BUVSOD is in the monoclinic crystal system
# The framework has been calculated to contain at least 10.0% void space
# The void calculation uses a probe of radius 1.32A, grid spacing 0.4
#
###############################################################################

data_BUVSOD
_chemical_formula_moiety         '(C104 H64 Co8 N8 O36)n'
_symmetry_cell_setting           triclinic
_symmetry_space_group_name_H-M   'P 1'
_symmetry_Int_Tables_number      1
_space_group_name_Hall           'P 1'
loop_
_symmetry_equiv_pos_site_id
_symmetry_equiv_pos_as_xyz
1 x,y,z
_cell_length_a                   13.044(3)
_cell_length_b                   13.487(3)
_cell_length_c                   20.283(7)
_cell_angle_alpha                90
_cell_angle_beta                 119.30(2)
_cell_angle_gamma                90
_cell_volume                     3111.78
loop_
_atom_site_label
_atom_site_type_symbol
_atom_site_fract_x
_atom_site_fract_y
_atom_site_fract_z
O3 O 0.1548(3) 0.22432(19) 0.77038(14)
O4 O 0.1292(2) 0.31432(19) 0.67027(14)
H5 H 0.011292 0.080589 0.724595
C8 C 0.1009(3) 0.2469(2) 0.7012(2)
Co3 Co 0.23974(4) 0.41942(3) 0.73157(2)
Co6 Co 0.29799(4) 0.26154(3) 0.87399(2)
O5 O 0.6645(3) 0.4564(2) 0.26052(17)
O6 O 0.8376(3) 0.4568(3) 0.35956(16)
O7 O 0.3839(2) 0.1650(2) 0.21842(14)
O8 O 0.3782(2) 0.14623(17) 0.32453(13)
C2 C 0.8658(2) 0.04799(12) 0.62426(11)
C3 C 0.79647(17) 0.08017(14) 0.55023(10)
H3 H 0.728568 0.039989 0.519659
C4 C 0.82511(18) 0.16694(15) 0.52593(9)
C5 C 0.92313(19) 0.22153(12) 0.57567(11)
H4 H 0.952353 0.282548 0.568375
C6 C 0.99251(17) 0.18935(14) 0.64970(10)
C7 C 0.96387(19) 0.10258(15) 0.67400(9)
C9 C 0.7392(4) 0.4179(2) 0.3216(2)
C10 C 0.70544(18) 0.32593(14) 0.34771(11)
C11 C 0.77993(14) 0.28701(16) 0.41892(10)
H6 H 0.862701 0.315212 0.446554
C12 C 0.74133(16) 0.21059(15) 0.44734(9)
C13 C 0.62824(17) 0.17309(13) 0.40455(11)
H7 H 0.593545 0.126779 0.424266
C14 C 0.55375(14) 0.21200(15) 0.33334(10)
C15 C 0.59234(17) 0.28842(15) 0.30492(9)
H8 H 0.541431 0.315019 0.256252
C16 C 0.4326(3) 0.1737(2) 0.28862(19)
Co4 Co 0.23974(4) 0.08058(3) 0.23157(2)
Co5 Co 0.76026(4) 0.58058(3) 0.26843(2)
Co7 Co 0.29799(4) 0.23846(3) 0.37399(2)
O12 O 0.6645(3) 0.0436(2) 0.76052(17)
O13 O 0.8376(3) 0.0432(3) 0.85956(16)
Co1 Co 0.76026(4) 0.91942(3) 0.76843(2)
Co2 Co 0.70201(4) 0.76154(3) 0.62601(2)
O1 O 0.7701(3) 0.89300(19) 0.60863(14)
O2 O 0.8582(2) 0.9646(2) 0.72313(14)
O9 O 0.7889(3) 0.6790(2) 0.57914(18)
H1 H 0.775522 0.717750 0.543741
H2 H 0.747929 0.628056 0.562174
N1 N 0.5505(3) 0.7707(2) 0.51914(18)
N2 N 0.6032(3) 0.6341(2) 0.62344(19)
C1 C 0.8280(3) 0.9610(3) 0.65342(19)
C17 C 0.5305(5) 0.8444(4) 0.4690(2)
H9 H 0.588020 0.894978 0.482511
C18 C 0.4307(6) 0.8496(5) 0.3991(3)
H10 H 0.419260 0.902628 0.365375
C19 C 0.3487(6) 0.7762(5) 0.3798(3)
H11 H 0.278867 0.777678 0.332201
C20 C 0.3682(4) 0.6992(5) 0.4305(3)
H12 H 0.312430 0.647214 0.417464
C21 C 0.4697(4) 0.6993(3) 0.5001(2)
C22 C 0.4997(4) 0.6225(3) 0.5602(2)
C23 C 0.4229(5) 0.5452(4) 0.5506(3)
H13 H 0.349564 0.538886 0.505507
C24 C 0.4577(6) 0.4773(4) 0.6095(4)
H14 H 0.408083 0.423005 0.604586
C25 C 0.5627(6) 0.4886(3) 0.6742(4)
H15 H 0.586276 0.443094 0.714849
C26 C 0.6352(5) 0.5684(3) 0.6796(3)
H16 H 0.708880 0.576122 0.724177
O10 O 0.8452(3) 0.72432(19) 0.72962(14)
O11 O 0.8708(2) 0.81432(19) 0.82973(14)
O14 O 0.6161(2) 0.8350(2) 0.78158(14)
O15 O 0.6218(2) 0.85377(17) 0.67547(13)
O5_2 O 0.3355(3) 0.9564(2) 0.23948(17)
O6_2 O 0.1624(3) 0.9568(3) 0.14044(16)
O7_2 O 0.6161(2) 0.6650(2) 0.28158(14)
O8_2 O 0.6218(2) 0.64623(17) 0.17547(13)
C9_2 C 0.2608(4) 0.9179(2) 0.1784(2)
C10_2 C 0.29456(18) 0.82593(14) 0.15229(11)
C11_2 C 0.22007(14) 0.78701(16) 0.08108(10)
H6_2 H 0.137299 0.815212 0.053446
C12_2 C 0.25867(16) 0.71059(15) 0.05266(9)
C13_2 C 0.37176(17) 0.67309(13) 0.09545(11)
H7_2 H 0.406455 0.626779 0.075734
C14_2 C 0.44625(14) 0.71200(15) 0.16666(10)
C15_2 C 0.40766(17) 0.78842(15) 0.19508(9)
H8_2 H 0.458569 0.815019 0.243748
C16_2 C 0.5674(3) 0.6737(2) 0.21138(19)
C17_2 C 0.4695(5) 0.3444(4) 0.0310(2)
H9_2 H 0.411980 0.394978 0.017489
C18_2 C 0.5693(6) 0.3496(5) 0.1009(3)
H10_2 H 0.580740 0.402628 0.134625
C19_2 C 0.6513(6) 0.2762(5) 0.1202(3)
H11_2 H 0.721133 0.277678 0.167799
C20_2 C 0.6318(4) 0.1992(5) 0.0695(3)
H12_2 H 0.687570 0.147214 0.082536
Co7_2 Co 0.70201(4) 0.73846(3) 0.12601(2)
O1_2 O 0.2299(3) 0.39300(19) 0.89137(14)
O2_2 O 0.1418(2) 0.4646(2) 0.77687(14)
O9_2 O 0.2111(3) 0.1790(2) 0.92086(18)
H1_2 H 0.224478 0.217750 0.956259
H2_2 H 0.252071 0.128056 0.937826
N1_2 N 0.4495(3) 0.2707(2) 0.98086(18)
N2_2 N 0.3968(3) 0.1341(2) 0.87656(19)
C1_2 C 0.1720(3) 0.4610(3) 0.84658(19)
C2_2 C 0.1342(2) 0.54799(12) 0.87574(11)
C3_2 C 0.20353(17) 0.58017(14) 0.94977(10)
H3_2 H 0.271432 0.539989 0.980341
C4_2 C 0.17489(18) 0.66694(15) 0.97407(9)
C5_2 C 0.07687(19) 0.72153(12) 0.92433(11)
H4_2 H 0.047647 0.782548 0.931625
C6_2 C 0.00749(17) 0.68935(14) 0.85030(10)
C7_2 C 0.03613(19) 0.60258(15) 0.82600(9)
C21_2 C 0.5303(4) 0.1993(3) 0.9999(2)
C22_2 C 0.5003(4) 0.1225(3) 0.9398(2)
C23_2 C 0.5771(5) 0.0452(4) 0.9494(3)
H13_2 H 0.650436 0.038886 0.994493
C26_2 C 0.3648(5) 0.0684(3) 0.8204(3)
H16_2 H 0.291120 0.076122 0.775823
O12_2 O 0.3355(3) 0.5436(2) 0.73948(17)
O13_2 O 0.1624(3) 0.5432(3) 0.64044(16)
O14_2 O 0.3839(2) 0.3350(2) 0.71842(14)
O15_2 O 0.3782(2) 0.35377(17) 0.82453(13)
H5_2 H 0.988708 0.580589 0.775405
C8_2 C 0.8991(3) 0.7469(2) 0.7988(2)
O1_3 O 0.2299(3) 0.10700(19) 0.39137(14)
O2_3 O 0.1418(2) 0.0354(2) 0.27687(14)
O9_3 O 0.2111(3) 0.3210(2) 0.42086(18)
H1_3 H 0.224478 0.282250 0.456259
H2_3 H 0.252071 0.371944 0.437826
N1_3 N 0.4495(3) 0.2293(2) 0.48086(18)
N2_3 N 0.3968(3) 0.3659(2) 0.37656(19)
C1_3 C 0.1720(3) 0.0390(3) 0.34658(19)
C17_3 C 0.4695(5) 0.1556(4) 0.5310(2)
H9_3 H 0.411980 0.105022 0.517489
C18_3 C 0.5693(6) 0.1504(5) 0.6009(3)
H10_3 H 0.580740 0.097372 0.634625
C19_3 C 0.6513(6) 0.2238(5) 0.6202(3)
H11_3 H 0.721133 0.222322 0.667799
C20_3 C 0.6318(4) 0.3008(5) 0.5695(3)
H12_3 H 0.687570 0.352786 0.582536
C21_3 C 0.5303(4) 0.3007(3) 0.4999(2)
C22_3 C 0.5003(4) 0.3775(3) 0.4398(2)
C23_3 C 0.5771(5) 0.4548(4) 0.4494(3)
H13_3 H 0.650436 0.461114 0.494493
C24_2 C 0.5423(6) 0.5227(4) 0.3905(4)
H14_2 H 0.591917 0.576995 0.395414
C25_2 C 0.4373(6) 0.5114(3) 0.3258(4)
H15_2 H 0.413724 0.556906 0.285151
C26_3 C 0.3648(5) 0.4316(3) 0.3204(3)
H16_3 H 0.291120 0.423878 0.275823
O10_2 O 0.1548(3) 0.27568(19) 0.27038(14)
O11_2 O 0.1292(2) 0.18568(19) 0.17027(14)
C2_3 C 0.1342(2) 0.95201(12) 0.37574(11)
C3_3 C 0.20353(17) 0.91983(14) 0.44977(10)
H3_3 H 0.271432 0.960011 0.480341
C4_3 C 0.17489(18) 0.83306(15) 0.47407(9)
C5_3 C 0.07687(19) 0.77847(12) 0.42433(11)
H4_3 H 0.047647 0.717452 0.431625
C6_3 C 0.00749(17) 0.81065(14) 0.35030(10)
C7_3 C 0.03613(19) 0.89742(15) 0.32600(9)
C9_3 C 0.2608(4) 0.5821(2) 0.6784(2)
C10_3 C 0.29456(18) 0.67407(14) 0.65229(11)
C11_3 C 0.22007(14) 0.71299(16) 0.58108(10)
H6_3 H 0.137299 0.684788 0.553446
C12_3 C 0.25867(16) 0.78941(15) 0.55266(9)
C13_3 C 0.37176(17) 0.82691(13) 0.59545(11)
H7_3 H 0.406455 0.873221 0.575734
C14_3 C 0.44625(14) 0.78800(15) 0.66666(10)
C15_3 C 0.40766(17) 0.71158(15) 0.69508(9)
H8_3 H 0.458569 0.684981 0.743748
C16_3 C 0.5674(3) 0.8263(2) 0.71138(19)
O3_2 O 0.8452(3) 0.77568(19) 0.22962(14)
O4_2 O 0.8708(2) 0.68568(19) 0.32973(14)
H5_3 H 0.988708 0.919411 0.275405
C8_3 C 0.8991(3) 0.7531(2) 0.2988(2)
H5_4 H 0.011292 0.419411 0.224595
C8_4 C 0.1009(3) 0.2531(2) 0.2012(2)
O1_4 O 0.7701(3) 0.60700(19) 0.10863(14)
O2_4 O 0.8582(2) 0.5354(2) 0.22313(14)
O9_4 O 0.7889(3) 0.8210(2) 0.07914(18)
H1_4 H 0.775522 0.782250 0.043741
H2_4 H 0.747929 0.871944 0.062174
N1_4 N 0.5505(3) 0.7293(2) 0.01914(18)
N2_4 N 0.6032(3) 0.8659(2) 0.12344(19)
C1_4 C 0.8280(3) 0.5390(3) 0.15342(19)
C2_4 C 0.8658(2) 0.45201(12) 0.12426(11)
C3_4 C 0.79647(17) 0.41983(14) 0.05023(10)
H3_4 H 0.728568 0.460011 0.019659
C4_4 C 0.82511(18) 0.33306(15) 0.02593(9)
C5_4 C 0.92313(19) 0.27847(12) 0.07567(11)
H4_4 H 0.952353 0.217452 0.068375
C6_4 C 0.99251(17) 0.31065(14) 0.14970(10)
C7_4 C 0.96387(19) 0.39742(15) 0.17400(9)
C21_4 C 0.4697(4) 0.8007(3) 0.0001(2)
C22_4 C 0.4997(4) 0.8775(3) 0.0602(2)
C23_4 C 0.4229(5) 0.9548(4) 0.0506(3)
H13_4 H 0.349564 0.961114 0.005507
C26_4 C 0.6352(5) 0.9316(3) 0.1796(3)
H16_4 H 0.708880 0.923878 0.224177
C9_4 C 0.7392(4) 0.0821(2) 0.8216(2)
C10_4 C 0.70544(18) 0.17407(14) 0.84771(11)
C11_4 C 0.77993(14) 0.21299(16) 0.91892(10)
H6_4 H 0.862701 0.184788 0.946554
C12_4 C 0.74133(16) 0.28941(15) 0.94734(9)
C13_4 C 0.62824(17) 0.32691(13) 0.90455(11)
H7_4 H 0.593545 0.373221 0.924266
C14_4 C 0.55375(14) 0.28800(15) 0.83334(10)
C15_4 C 0.59234(17) 0.21158(15) 0.80492(9)
H8_4 H 0.541431 0.184981 0.756252
C16_4 C 0.4326(3) 0.3263(2) 0.78862(19)
C17_4 C 0.5305(5) 0.6556(4) 0.9690(2)
H9_4 H 0.588020 0.605022 0.982511
C18_4 C 0.4307(6) 0.6504(5) 0.8991(3)
H10_4 H 0.419260 0.597372 0.865375
C19_4 C 0.3487(6) 0.7238(5) 0.8798(3)
H11_4 H 0.278867 0.722322 0.832201
C20_4 C 0.3682(4) 0.8008(5) 0.9305(3)
H12_4 H 0.312430 0.852786 0.917464
C24_3 C 0.5423(6) 0.9773(4) 0.8905(4)
H14_3 H 0.591917 0.923005 0.895414
C25_3 C 0.4373(6) 0.9886(3) 0.8258(4)
H15_3 H 0.413724 0.943094 0.785151
C24_4 C 0.4577(6) 0.0227(4) 0.1095(4)
H14_4 H 0.408083 0.076995 0.104586
C25_4 C 0.5627(6) 0.0114(3) 0.1742(4)
H15_4 H 0.586276 0.056906 0.214849
loop_
_geom_bond_atom_site_label_1
_geom_bond_atom_site_label_2
_geom_bond_site_symmetry_1
_geom_bond_site_symmetry_2
O3 C8 1_555 1_555
O4 C8 1_555 1_555
Co3 O4 1_555 1_555
Co6 O3 1_555 1_555
O5 C9 1_555 1_555
O6 C9 1_555 1_555
O7 C16 1_555 1_555
O8 C16 1_555 1_555
C2 C3 1_555 1_555
C3 H3 1_555 1_555
C4 C3 1_555 1_555
C5 C4 1_555 1_555
H4 C5 1_555 1_555
C6 C5 1_555 1_555
C7 C2 1_555 1_555
C9 C10 1_555 1_555
C10 C11 1_555 1_555
C11 H6 1_555 1_555
C12 C4 1_555 1_555
C13 C12 1_555 1_555
H7 C13 1_555 1_555
C14 C13 1_555 1_555
C15 C10 1_555 1_555
H8 C15 1_555 1_555
C16 C14 1_555 1_555
Co4 O7 1_555 1_555
Co5 O5 1_555 1_555
Co7 O8 1_555 1_555
O6 Co5 1_555 1_555
O8 Co4 1_555 1_555
C6 C7 1_555 1_555
C11 C12 1_555 1_555
C14 C15 1_555 1_555
Co1 O2 1_555 1_555
Co2 O1 1_555 1_555
O1 C1 1_555 1_555
O2 C1 1_555 1_555
O9 Co2 1_555 1_555
H1 O9 1_555 1_555
H2 O9 1_555 1_555
N1 Co2 1_555 1_555
N2 Co2 1_555 1_555
C17 N1 1_555 1_555
H9 C17 1_555 1_555
C18 C17 1_555 1_555
H10 C18 1_555 1_555
C19 C18 1_555 1_555
H11 C19 1_555 1_555
C20 C19 1_555 1_555
H12 C20 1_555 1_555
C21 N1 1_555 1_555
C22 N2 1_555 1_555
C23 C22 1_555 1_555
H13 C23 1_555 1_555
C24 C23 1_555 1_555
H14 C24 1_555 1_555
C25 C24 1_555 1_555
H15 C25 1_555 1_555
C26 N2 1_555 1_555
H16 C26 1_555 1_555
O10 Co2 1_555 1_555
O11 Co1 1_555 1_555
O14 Co1 1_555 1_555
O15 Co1 1_555 1_555
Co2 O15 1_555 1_555
C20 C21 1_555 1_555
C21 C22 1_555 1_555
C25 C26 1_555 1_555
O5_2 C9_2 1_555 1_555
O6_2 C9_2 1_555 1_555
O7_2 C16_2 1_555 1_555
O8_2 C16_2 1_555 1_555
C9_2 C10_2 1_555 1_555
C10_2 C11_2 1_555 1_555
C11_2 H6_2 1_555 1_555
C13_2 C12_2 1_555 1_555
H7_2 C13_2 1_555 1_555
C14_2 C13_2 1_555 1_555
C15_2 C10_2 1_555 1_555
H8_2 C15_2 1_555 1_555
C16_2 C14_2 1_555 1_555
H9_2 C17_2 1_555 1_555
C18_2 C17_2 1_555 1_555
H10_2 C18_2 1_555 1_555
C19_2 C18_2 1_555 1_555
H11_2 C19_2 1_555 1_555
C20_2 C19_2 1_555 1_555
H12_2 C20_2 1_555 1_555
Co5 O7_2 1_555 1_555
Co7_2 O8_2 1_555 1_555
O8_2 Co5 1_555 1_555
C11_2 C12_2 1_555 1_555
C14_2 C15_2 1_555 1_555
Co3 O2_2 1_555 1_555
Co6 O1_2 1_555 1_555
O1_2 C1_2 1_555 1_555
O2_2 C1_2 1_555 1_555
O9_2 Co6 1_555 1_555
H1_2 O9_2 1_555 1_555
H2_2 O9_2 1_555 1_555
N1_2 Co6 1_555 1_555
N2_2 Co6 1_555 1_555
C1_2 C2_2 1_555 1_555
C2_2 C3_2 1_555 1_555
C3_2 H3_2 1_555 1_555
C4_2 C3_2 1_555 1_555
C5_2 C4_2 1_555 1_555
H4_2 C5_2 1_555 1_555
C6_2 C5_2 1_555 1_555
C7_2 C2_2 1_555 1_555
C21_2 N1_2 1_555 1_555
C22_2 N2_2 1_555 1_555
C23_2 C22_2 1_555 1_555
H13_2 C23_2 1_555 1_555
C26_2 N2_2 1_555 1_555
H16_2 C26_2 1_555 1_555
O12_2 Co3 1_555 1_555
O13_2 Co3 1_555 1_555
O14_2 Co3 1_555 1_555
O15_2 Co3 1_555 1_555
Co6 O15_2 1_555 1_555
C6_2 C7_2 1_555 1_555
C21_2 C22_2 1_555 1_555
O10 C8_2 1_555 1_555
O11 C8_2 1_555 1_555
Co4 O2_3 1_555 1_555
Co7 O1_3 1_555 1_555
O1_3 C1_3 1_555 1_555
O2_3 C1_3 1_555 1_555
O9_3 Co7 1_555 1_555
H1_3 O9_3 1_555 1_555
H2_3 O9_3 1_555 1_555
N1_3 Co7 1_555 1_555
N2_3 Co7 1_555 1_555
C17_3 N1_3 1_555 1_555
H9_3 C17_3 1_555 1_555
C18_3 C17_3 1_555 1_555
H10_3 C18_3 1_555 1_555
C19_3 C18_3 1_555 1_555
H11_3 C19_3 1_555 1_555
C20_3 C19_3 1_555 1_555
H12_3 C20_3 1_555 1_555
C21_3 N1_3 1_555 1_555
C22_3 N2_3 1_555 1_555
C23_3 C22_3 1_555 1_555
H13_3 C23_3 1_555 1_555
C24_2 C23_3 1_555 1_555
H14_2 C24_2 1_555 1_555
C25_2 C24_2 1_555 1_555
H15_2 C25_2 1_555 1_555
C26_3 N2_3 1_555 1_555
H16_3 C26_3 1_555 1_555
O10_2 Co7 1_555 1_555
O11_2 Co4 1_555 1_555
C20_3 C21_3 1_555 1_555
C21_3 C22_3 1_555 1_555
C25_2 C26_3 1_555 1_555
O12_2 C9_3 1_555 1_555
O13_2 C9_3 1_555 1_555
O14 C16_3 1_555 1_555
O15 C16_3 1_555 1_555
C2_3 C3_3 1_555 1_555
C3_3 H3_3 1_555 1_555
C4_3 C3_3 1_555 1_555
C5_3 C4_3 1_555 1_555
H4_3 C5_3 1_555 1_555
C6_3 C5_3 1_555 1_555
C7_3 C2_3 1_555 1_555
C9_3 C10_3 1_555 1_555
C10_3 C11_3 1_555 1_555
C11_3 H6_3 1_555 1_555
C12_3 C4_3 1_555 1_555
C13_3 C12_3 1_555 1_555
H7_3 C13_3 1_555 1_555
C14_3 C13_3 1_555 1_555
C15_3 C10_3 1_555 1_555
H8_3 C15_3 1_555 1_555
C16_3 C14_3 1_555 1_555
C6_3 C7_3 1_555 1_555
C11_3 C12_3 1_555 1_555
C14_3 C15_3 1_555 1_555
O3_2 C8_3 1_555 1_555
O4_2 C8_3 1_555 1_555
Co5 O4_2 1_555 1_555
Co7_2 O3_2 1_555 1_555
O10_2 C8_4 1_555 1_555
O11_2 C8_4 1_555 1_555
Co5 O2_4 1_555 1_555
Co7_2 O1_4 1_555 1_555
O1_4 C1_4 1_555 1_555
O2_4 C1_4 1_555 1_555
O9_4 Co7_2 1_555 1_555
H1_4 O9_4 1_555 1_555
H2_4 O9_4 1_555 1_555
N1_4 Co7_2 1_555 1_555
N2_4 Co7_2 1_555 1_555
C1_4 C2_4 1_555 1_555
C2_4 C3_4 1_555 1_555
C3_4 H3_4 1_555 1_555
C4_4 C3_4 1_555 1_555
C5_4 C4_4 1_555 1_555
H4_4 C5_4 1_555 1_555
C6_4 C5_4 1_555 1_555
C7_4 C2_4 1_555 1_555
C21_4 N1_4 1_555 1_555
C22_4 N2_4 1_555 1_555
C23_4 C22_4 1_555 1_555
H13_4 C23_4 1_555 1_555
C26_4 N2_4 1_555 1_555
H16_4 C26_4 1_555 1_555
C6_4 C7_4 1_555 1_555
C21_4 C22_4 1_555 1_555
O12 C9_4 1_555 1_555
O13 C9_4 1_555 1_555
O14_2 C16_4 1_555 1_555
O15_2 C16_4 1_555 1_555
C9_4 C10_4 1_555 1_555
C10_4 C11_4 1_555 1_555
C11_4 H6_4 1_555 1_555
C13_4 C12_4 1_555 1_555
H7_4 C13_4 1_555 1_555
C14_4 C13_4 1_555 1_555
C15_4 C10_4 1_555 1_555
H8_4 C15_4 1_555 1_555
C16_4 C14_4 1_555 1_555
H9_4 C17_4 1_555 1_555
C18_4 C17_4 1_555 1_555
H10_4 C18_4 1_555 1_555
C19_4 C18_4 1_555 1_555
H11_4 C19_4 1_555 1_555
C20_4 C19_4 1_555 1_555
H12_4 C20_4 1_555 1_555
C11_4 C12_4 1_555 1_555
C14_4 C15_4 1_555 1_555
H14_3 C24_3 1_555 1_555
C25_3 C24_3 1_555 1_555
H15_3 C25_3 1_555 1_555
H14_4 C24_4 1_555 1_555
C25_4 C24_4 1_555 1_555
H15_4 C25_4 1_555 1_555

#END
