
###############################################################################
#
# This file contains modified crystal structure data generated from the
# MOF subset of the Cambridge Structural Database (CSD) v543 
# hosted by the Cambridge Crystallographic Data Centre (CCDC).
#
# This work is licensed under the Creative Commons
# Attribution-NonCommercial-ShareAlike 4.0 International License.
# To view a copy of this license, visit
# http://creativecommons.org/licenses/by-nc-sa/4.0/
# or send a letter to
# Creative Commons, PO Box 1866, Mountain View, CA 94042, USA.
#
# CIF created using the CSD Python API on 29 September 2022
# The structure has been converted into the P1 space group
# The structure has a 3D framework
# The original CSD entry BUWGAC13 is in the monoclinic crystal system
# The framework has been calculated to contain at least 10.0% void space
# The void calculation uses a probe of radius 1.32A, grid spacing 0.4
#
###############################################################################

data_BUWGAC13
_chemical_formula_moiety         '(C44 H24 Cu4 N12 O12)n'
_symmetry_cell_setting           triclinic
_symmetry_space_group_name_H-M   'P 1'
_symmetry_Int_Tables_number      1
_space_group_name_Hall           'P 1'
loop_
_symmetry_equiv_pos_site_id
_symmetry_equiv_pos_as_xyz
1 x,y,z
_cell_length_a                   4.726(7)
_cell_length_b                   28.201(5)
_cell_length_c                   11.173(25)
_cell_angle_alpha                90
_cell_angle_beta                 98.09(8)
_cell_angle_gamma                90
_cell_volume                     1474.29
loop_
_atom_site_label
_atom_site_type_symbol
_atom_site_fract_x
_atom_site_fract_y
_atom_site_fract_z
_atom_site_U_iso_or_equiv
_atom_site_thermal_displace_type
Cu2 Cu 0.364(15) 0.3106(15) 0.082(5) 0.0040 Uiso
O6 O 0.72(3) 0.302(7) 0.032(9) 0.0150 Uiso
O1 O 0.72(3) 0.198(7) 0.532(9) 0.0150 Uiso
Cu1 Cu 0.364(15) 0.1894(15) 0.582(5) 0.0040 Uiso
N1 N 0.259(12) 0.1205(12) 0.5417(31) 0.0150 Uiso
O2 O 0.54(5) 0.1709(18) 0.751(9) 0.0150 Uiso
N2 N 0.48(4) 0.2531(10) 0.652(11) 0.0150 Uiso
O3 O 0.161(25) 0.206(7) 0.472(10) 0.0150 Uiso
C1 C 0.088(8) 0.1009(14) 0.6252(27) 0.0150 Uiso
C2 C 0.300(14) 0.0957(15) 0.4335(29) 0.0150 Uiso
C3 C 0.678(25) 0.2008(13) 0.816(11) 0.0150 Uiso
C4 C 0.42(4) 0.2958(17) 0.597(10) 0.0150 Uiso
C5 C 0.65(3) 0.2510(12) 0.761(10) 0.0150 Uiso
H1 H 0.03700 0.11940 0.69210 0.0150 Uiso
C7 C 0.190(19) 0.0484(19) 0.4154(24) 0.0150 Uiso
H2 H 0.40200 0.10950 0.36910 0.0150 Uiso
O4 O 0.83(3) 0.1948(17) 0.915(13) 0.0150 Uiso
H3 H 0.30100 0.29800 0.52000 0.0150 Uiso
C8 C 0.51(4) 0.3370(24) 0.657(13) 0.0150 Uiso
C9 C 0.744(19) 0.2924(21) 0.822(8) 0.0150 Uiso
C10 C 0.881(25) 0.2928(30) 0.954(7) 0.0150 Uiso
C11 C 0.035(10) 0.0272(19) 0.5048(19) 0.0150 Uiso
H5 H 0.22400 0.02910 0.34370 0.0150 Uiso
N3 N 0.692(31) 0.3352(22) 0.763(11) 0.0150 Uiso
H6 H 0.48100 0.37000 0.62200 0.0150 Uiso
C12 C 0.035(10) 0.4728(19) 0.0048(19) 0.0150 Uiso
C15 C 0.088(8) 0.3991(14) 0.1252(27) 0.0150 Uiso
N4 N 0.259(12) 0.3795(12) 0.0417(31) 0.0150 Uiso
H9 H 0.03700 0.38060 0.19210 0.0150 Uiso
O9 O 0.54(5) 0.3291(18) 0.251(9) 0.0150 Uiso
N5 N 0.48(4) 0.2469(10) 0.152(11) 0.0150 Uiso
C17 C 0.678(25) 0.2992(13) 0.316(11) 0.0150 Uiso
C18 C 0.42(4) 0.2042(17) 0.097(10) 0.0150 Uiso
C19 C 0.65(3) 0.2490(12) 0.261(10) 0.0150 Uiso
O10 O 0.83(3) 0.3052(17) 0.415(13) 0.0150 Uiso
H11 H 0.30100 0.20200 0.02000 0.0150 Uiso
C20 C 0.51(4) 0.1630(24) 0.157(13) 0.0150 Uiso
C21 C 0.744(19) 0.2076(21) 0.322(8) 0.0150 Uiso
N6 N 0.692(31) 0.1648(22) 0.263(11) 0.0150 Uiso
H12 H 0.48100 0.13000 0.12200 0.0150 Uiso
C22 C 0.881(25) 0.2072(30) 0.454(7) 0.0150 Uiso
O5 O 0.161(25) 0.294(7) 0.972(10) 0.0150 Uiso
C6 C 0.026(4) 0.5537(16) 0.8935(26) 0.0150 Uiso
H4 H 0.14800 0.54050 0.83860 0.0150 Uiso
C14 C 0.190(19) 0.4516(19) 0.9154(24) 0.0150 Uiso
C16 C 0.300(14) 0.4043(15) 0.9335(29) 0.0150 Uiso
H8 H 0.22400 0.47090 0.84370 0.0150 Uiso
H10 H 0.40200 0.39050 0.86910 0.0150 Uiso
C13 C 0.026(4) 0.9463(16) 0.3935(26) 0.0150 Uiso
H7 H 0.14800 0.95950 0.33860 0.0150 Uiso
C6_2 C 0.974(4) 0.0537(16) 0.6065(26) 0.0150 Uiso
H4_2 H 0.85200 0.04050 0.66140 0.0150 Uiso
C12_2 C 0.965(10) 0.9728(19) 0.4952(19) 0.0150 Uiso
C14_2 C 0.810(19) 0.9516(19) 0.5846(24) 0.0150 Uiso
C15_2 C 0.912(8) 0.8991(14) 0.3748(27) 0.0150 Uiso
C16_2 C 0.700(14) 0.9043(15) 0.5665(29) 0.0150 Uiso
H8_2 H 0.77600 0.97090 0.65630 0.0150 Uiso
O7 O 0.839(25) 0.794(7) 0.528(10) 0.0150 Uiso
N4_2 N 0.741(12) 0.8795(12) 0.4583(31) 0.0150 Uiso
H9_2 H 0.96300 0.88060 0.30790 0.0150 Uiso
H10_2 H 0.59800 0.89050 0.63090 0.0150 Uiso
Cu4 Cu 0.636(15) 0.8106(15) 0.418(5) 0.0040 Uiso
O8 O 0.28(3) 0.802(7) 0.468(9) 0.0150 Uiso
O9_2 O 0.46(5) 0.8291(18) 0.249(9) 0.0150 Uiso
N5_2 N 0.52(4) 0.7469(10) 0.348(11) 0.0150 Uiso
C17_2 C 0.322(25) 0.7992(13) 0.184(11) 0.0150 Uiso
C18_2 C 0.58(4) 0.7042(17) 0.403(10) 0.0150 Uiso
C19_2 C 0.35(3) 0.7490(12) 0.239(10) 0.0150 Uiso
O10_2 O 0.17(3) 0.8052(17) 0.085(13) 0.0150 Uiso
H11_2 H 0.69900 0.70200 0.48000 0.0150 Uiso
C20_2 C 0.49(4) 0.6630(24) 0.343(13) 0.0150 Uiso
C21_2 C 0.256(19) 0.7076(21) 0.178(8) 0.0150 Uiso
N6_2 N 0.308(31) 0.6648(22) 0.237(11) 0.0150 Uiso
H12_2 H 0.51900 0.63000 0.37800 0.0150 Uiso
C22_2 C 0.119(25) 0.7072(30) 0.046(7) 0.0150 Uiso
O11 O 0.28(3) 0.698(7) 0.968(9) 0.0150 Uiso
Cu5 Cu 0.636(15) 0.6894(15) 0.918(5) 0.0040 Uiso
N1_2 N 0.741(12) 0.6205(12) 0.9583(31) 0.0150 Uiso
O2_2 O 0.46(5) 0.6709(18) 0.749(9) 0.0150 Uiso
N2_2 N 0.52(4) 0.7531(10) 0.848(11) 0.0150 Uiso
C1_2 C 0.912(8) 0.6009(14) 0.8748(27) 0.0150 Uiso
C3_2 C 0.322(25) 0.7008(13) 0.684(11) 0.0150 Uiso
C4_2 C 0.58(4) 0.7958(17) 0.903(10) 0.0150 Uiso
C5_2 C 0.35(3) 0.7510(12) 0.739(10) 0.0150 Uiso
H1_2 H 0.96300 0.61940 0.80790 0.0150 Uiso
O4_2 O 0.17(3) 0.6948(17) 0.585(13) 0.0150 Uiso
H3_2 H 0.69900 0.79800 0.98000 0.0150 Uiso
C8_2 C 0.49(4) 0.8370(24) 0.843(13) 0.0150 Uiso
C9_2 C 0.256(19) 0.7924(21) 0.678(8) 0.0150 Uiso
C10_2 C 0.119(25) 0.7928(30) 0.546(7) 0.0150 Uiso
C11_2 C 0.965(10) 0.5272(19) 0.9952(19) 0.0150 Uiso
N3_2 N 0.308(31) 0.8352(22) 0.737(11) 0.0150 Uiso
H6_2 H 0.51900 0.87000 0.87800 0.0150 Uiso
O12 O 0.839(25) 0.706(7) 0.028(10) 0.0150 Uiso
C2_2 C 0.700(14) 0.5957(15) 0.0665(29) 0.0150 Uiso
C7_2 C 0.810(19) 0.5484(19) 0.0846(24) 0.0150 Uiso
H2_2 H 0.59800 0.60950 0.13090 0.0150 Uiso
H5_2 H 0.77600 0.52910 0.15630 0.0150 Uiso
C13_2 C 0.974(4) 0.4463(16) 0.1065(26) 0.0150 Uiso
H7_2 H 0.85200 0.45950 0.16140 0.0150 Uiso
loop_
_geom_bond_atom_site_label_1
_geom_bond_atom_site_label_2
_geom_bond_site_symmetry_1
_geom_bond_site_symmetry_2
Cu2 O6 1_555 1_555
O1 Cu1 1_555 1_555
Cu1 N1 1_555 1_555
N1 C1 1_555 1_555
O2 Cu1 1_555 1_555
N2 Cu1 1_555 1_555
O3 Cu1 1_555 1_555
C2 N1 1_555 1_555
C3 O2 1_555 1_555
C4 N2 1_555 1_555
C5 N2 1_555 1_555
H1 C1 1_555 1_555
C7 C2 1_555 1_555
H2 C2 1_555 1_555
O4 C3 1_555 1_555
H3 C4 1_555 1_555
C8 C4 1_555 1_555
C9 C5 1_555 1_555
C10 C9 1_555 1_555
H5 C7 1_555 1_555
N3 C8 1_555 1_555
H6 C8 1_555 1_555
C3 C5 1_555 1_555
C7 C11 1_555 1_555
C9 N3 1_555 1_555
N4 C15 1_555 1_555
H9 C15 1_555 1_555
Cu2 N4 1_555 1_555
O9 Cu2 1_555 1_555
N5 Cu2 1_555 1_555
C17 O9 1_555 1_555
C18 N5 1_555 1_555
C19 N5 1_555 1_555
O10 C17 1_555 1_555
H11 C18 1_555 1_555
C20 C18 1_555 1_555
C21 C19 1_555 1_555
N6 C20 1_555 1_555
H12 C20 1_555 1_555
C22 C21 1_555 1_555
O1 C22 1_555 1_555
C17 C19 1_555 1_555
C21 N6 1_555 1_555
C6 H4 1_555 1_555
C16 C14 1_555 1_555
H8 C14 1_555 1_555
H10 C16 1_555 1_555
H7 C13 1_555 1_555
C6_2 H4_2 1_555 1_555
C14_2 C12_2 1_555 1_555
C16_2 C14_2 1_555 1_555
H8_2 C14_2 1_555 1_555
O7 Cu4 1_555 1_555
N4_2 C15_2 1_555 1_555
H9_2 C15_2 1_555 1_555
H10_2 C16_2 1_555 1_555
Cu4 N4_2 1_555 1_555
O8 Cu4 1_555 1_555
O9_2 Cu4 1_555 1_555
N5_2 Cu4 1_555 1_555
C17_2 O9_2 1_555 1_555
C18_2 N5_2 1_555 1_555
C19_2 N5_2 1_555 1_555
O10_2 C17_2 1_555 1_555
H11_2 C18_2 1_555 1_555
C20_2 C18_2 1_555 1_555
C21_2 C19_2 1_555 1_555
N6_2 C20_2 1_555 1_555
H12_2 C20_2 1_555 1_555
C22_2 C21_2 1_555 1_555
C16_2 N4_2 1_555 1_555
C17_2 C19_2 1_555 1_555
C21_2 N6_2 1_555 1_555
Cu5 O11 1_555 1_555
Cu5 N1_2 1_555 1_555
N1_2 C1_2 1_555 1_555
O2_2 Cu5 1_555 1_555
N2_2 Cu5 1_555 1_555
C3_2 O2_2 1_555 1_555
C4_2 N2_2 1_555 1_555
C5_2 N2_2 1_555 1_555
H1_2 C1_2 1_555 1_555
O4_2 C3_2 1_555 1_555
H3_2 C4_2 1_555 1_555
C8_2 C4_2 1_555 1_555
C9_2 C5_2 1_555 1_555
C10_2 C9_2 1_555 1_555
N3_2 C8_2 1_555 1_555
H6_2 C8_2 1_555 1_555
O8 C10_2 1_555 1_555
C3_2 C5_2 1_555 1_555
C9_2 N3_2 1_555 1_555
C7_2 C2_2 1_555 1_555
H2_2 C2_2 1_555 1_555
H5_2 C7_2 1_555 1_555
H7_2 C13_2 1_555 1_555

#END
