
###############################################################################
#
# This file contains modified crystal structure data generated from the
# MOF subset of the Cambridge Structural Database (CSD) v543 
# hosted by the Cambridge Crystallographic Data Centre (CCDC).
#
# This work is licensed under the Creative Commons
# Attribution-NonCommercial-ShareAlike 4.0 International License.
# To view a copy of this license, visit
# http://creativecommons.org/licenses/by-nc-sa/4.0/
# or send a letter to
# Creative Commons, PO Box 1866, Mountain View, CA 94042, USA.
#
# CIF created using the CSD Python API on 29 September 2022
# The structure has been converted into the P1 space group
# The structure has a 3D framework
# The original CSD entry BUWGAC05 is in the monoclinic crystal system
# The framework has been calculated to contain at least 10.0% void space
# The void calculation uses a probe of radius 1.32A, grid spacing 0.4
#
###############################################################################

data_BUWGAC05
_chemical_formula_moiety         '(C44 H24 Cu4 N12 O12)n'
_symmetry_cell_setting           triclinic
_symmetry_space_group_name_H-M   'P 1'
_symmetry_Int_Tables_number      1
_space_group_name_Hall           'P 1'
loop_
_symmetry_equiv_pos_site_id
_symmetry_equiv_pos_as_xyz
1 x,y,z
_cell_length_a                   4.720(5)
_cell_length_b                   28.048(4)
_cell_length_c                   11.116(18)
_cell_angle_alpha                90
_cell_angle_beta                 97.72(6)
_cell_angle_gamma                90
_cell_volume                     1458.27
loop_
_atom_site_label
_atom_site_type_symbol
_atom_site_fract_x
_atom_site_fract_y
_atom_site_fract_z
_atom_site_U_iso_or_equiv
_atom_site_thermal_displace_type
Cu2 Cu 0.363(12) 0.3107(14) 0.082(5) 0.0040 Uiso
O6 O 0.723(27) 0.306(6) 0.031(7) 0.0150 Uiso
O1 O 0.723(27) 0.194(6) 0.531(7) 0.0150 Uiso
Cu1 Cu 0.363(12) 0.1893(14) 0.582(5) 0.0040 Uiso
O2 O 0.54(4) 0.1709(18) 0.751(8) 0.0150 Uiso
N1 N 0.475(30) 0.2531(11) 0.652(9) 0.0150 Uiso
N2 N 0.259(18) 0.1205(14) 0.542(7) 0.0150 Uiso
O3 O 0.160(22) 0.208(6) 0.474(9) 0.0150 Uiso
C1 C 0.677(22) 0.2008(14) 0.816(11) 0.0150 Uiso
C2 C 0.648(26) 0.2510(12) 0.761(8) 0.0150 Uiso
C3 C 0.42(3) 0.2958(17) 0.597(10) 0.0150 Uiso
C4 C 0.088(27) 0.1009(22) 0.625(8) 0.0150 Uiso
C5 C 0.300(15) 0.0957(14) 0.434(6) 0.0150 Uiso
O4 O 0.827(29) 0.1949(18) 0.915(12) 0.0150 Uiso
C6 C 0.744(16) 0.2925(18) 0.822(6) 0.0150 Uiso
C7 C 0.51(4) 0.3369(22) 0.657(11) 0.0150 Uiso
H1 H 0.30100 0.29800 0.52000 0.0150 Uiso
H2 H 0.03700 0.11940 0.69210 0.0150 Uiso
C9 C 0.19(3) 0.0484(19) 0.415(3) 0.0150 Uiso
H3 H 0.40200 0.10950 0.36910 0.0150 Uiso
C10 C 0.881(21) 0.2935(25) 0.955(6) 0.0150 Uiso
N3 N 0.692(26) 0.3352(19) 0.762(9) 0.0150 Uiso
H4 H 0.48100 0.37000 0.62200 0.0150 Uiso
C11 C 0.035(20) 0.0272(16) 0.5048(30) 0.0150 Uiso
H6 H 0.22400 0.02910 0.34370 0.0150 Uiso
C12 C 0.035(20) 0.4728(16) 0.0048(30) 0.0150 Uiso
C16 C 0.088(27) 0.3991(22) 0.125(8) 0.0150 Uiso
N4 N 0.259(18) 0.3795(14) 0.042(7) 0.0150 Uiso
H10 H 0.03700 0.38060 0.19210 0.0150 Uiso
O8 O 0.54(4) 0.3291(18) 0.251(8) 0.0150 Uiso
N5 N 0.475(30) 0.2469(11) 0.152(9) 0.0150 Uiso
C17 C 0.677(22) 0.2992(14) 0.316(11) 0.0150 Uiso
C18 C 0.648(26) 0.2490(12) 0.261(8) 0.0150 Uiso
C19 C 0.42(3) 0.2042(17) 0.097(10) 0.0150 Uiso
O10 O 0.827(29) 0.3051(18) 0.415(12) 0.0150 Uiso
C20 C 0.744(16) 0.2075(18) 0.322(6) 0.0150 Uiso
C21 C 0.51(4) 0.1631(22) 0.157(11) 0.0150 Uiso
H11 H 0.30100 0.20200 0.02000 0.0150 Uiso
N6 N 0.692(26) 0.1648(19) 0.262(9) 0.0150 Uiso
C22 C 0.881(21) 0.2065(25) 0.455(6) 0.0150 Uiso
H12 H 0.48100 0.13000 0.12200 0.0150 Uiso
O5 O 0.160(22) 0.292(6) 0.974(9) 0.0150 Uiso
C8 C 0.026(10) 0.5537(15) 0.894(5) 0.0150 Uiso
H5 H 0.14800 0.54050 0.83860 0.0150 Uiso
C13 C 0.19(3) 0.4516(19) 0.915(3) 0.0150 Uiso
C15 C 0.300(15) 0.4043(14) 0.934(6) 0.0150 Uiso
H7 H 0.22400 0.47090 0.84370 0.0150 Uiso
H9 H 0.40200 0.39050 0.86910 0.0150 Uiso
C14 C 0.026(10) 0.9463(15) 0.394(5) 0.0150 Uiso
H8 H 0.14800 0.95950 0.33860 0.0150 Uiso
C8_2 C 0.974(10) 0.0537(15) 0.606(5) 0.0150 Uiso
H5_2 H 0.85200 0.04050 0.66140 0.0150 Uiso
C12_2 C 0.965(20) 0.9728(16) 0.4952(30) 0.0150 Uiso
C13_2 C 0.81(3) 0.9516(19) 0.585(3) 0.0150 Uiso
C15_2 C 0.700(15) 0.9043(14) 0.566(6) 0.0150 Uiso
H7_2 H 0.77600 0.97090 0.65630 0.0150 Uiso
C16_2 C 0.912(27) 0.8991(22) 0.375(8) 0.0150 Uiso
O7 O 0.840(22) 0.792(6) 0.526(9) 0.0150 Uiso
N4_2 N 0.741(18) 0.8795(14) 0.458(7) 0.0150 Uiso
H9_2 H 0.59800 0.89050 0.63090 0.0150 Uiso
H10_2 H 0.96300 0.88060 0.30790 0.0150 Uiso
Cu4 Cu 0.637(12) 0.8107(14) 0.418(5) 0.0040 Uiso
O8_2 O 0.46(4) 0.8291(18) 0.249(8) 0.0150 Uiso
N5_2 N 0.525(30) 0.7469(11) 0.348(9) 0.0150 Uiso
O9 O 0.277(27) 0.806(6) 0.469(7) 0.0150 Uiso
C17_2 C 0.323(22) 0.7992(14) 0.184(11) 0.0150 Uiso
C18_2 C 0.352(26) 0.7490(12) 0.239(8) 0.0150 Uiso
C19_2 C 0.58(3) 0.7042(17) 0.403(10) 0.0150 Uiso
O10_2 O 0.173(29) 0.8051(18) 0.085(12) 0.0150 Uiso
C20_2 C 0.256(16) 0.7075(18) 0.178(6) 0.0150 Uiso
C21_2 C 0.49(4) 0.6631(22) 0.343(11) 0.0150 Uiso
H11_2 H 0.69900 0.70200 0.48000 0.0150 Uiso
N6_2 N 0.308(26) 0.6648(19) 0.238(9) 0.0150 Uiso
C22_2 C 0.119(21) 0.7065(25) 0.045(6) 0.0150 Uiso
H12_2 H 0.51900 0.63000 0.37800 0.0150 Uiso
O11 O 0.277(27) 0.694(6) 0.969(7) 0.0150 Uiso
Cu5 Cu 0.637(12) 0.6893(14) 0.918(5) 0.0040 Uiso
O2_2 O 0.46(4) 0.6709(18) 0.749(8) 0.0150 Uiso
N1_2 N 0.525(30) 0.7531(11) 0.848(9) 0.0150 Uiso
N2_2 N 0.741(18) 0.6205(14) 0.958(7) 0.0150 Uiso
C1_2 C 0.323(22) 0.7008(14) 0.684(11) 0.0150 Uiso
C2_2 C 0.352(26) 0.7510(12) 0.739(8) 0.0150 Uiso
C3_2 C 0.58(3) 0.7958(17) 0.903(10) 0.0150 Uiso
C4_2 C 0.912(27) 0.6009(22) 0.875(8) 0.0150 Uiso
O4_2 O 0.173(29) 0.6949(18) 0.585(12) 0.0150 Uiso
C6_2 C 0.256(16) 0.7925(18) 0.678(6) 0.0150 Uiso
C7_2 C 0.49(4) 0.8369(22) 0.843(11) 0.0150 Uiso
H1_2 H 0.69900 0.79800 0.98000 0.0150 Uiso
H2_2 H 0.96300 0.61940 0.80790 0.0150 Uiso
C10_2 C 0.119(21) 0.7935(25) 0.545(6) 0.0150 Uiso
N3_2 N 0.308(26) 0.8352(19) 0.738(9) 0.0150 Uiso
H4_2 H 0.51900 0.87000 0.87800 0.0150 Uiso
C11_2 C 0.965(20) 0.5272(16) 0.9952(30) 0.0150 Uiso
O12 O 0.840(22) 0.708(6) 0.026(9) 0.0150 Uiso
C5_2 C 0.700(15) 0.5957(14) 0.066(6) 0.0150 Uiso
C9_2 C 0.81(3) 0.5484(19) 0.085(3) 0.0150 Uiso
H3_2 H 0.59800 0.60950 0.13090 0.0150 Uiso
H6_2 H 0.77600 0.52910 0.15630 0.0150 Uiso
C14_2 C 0.974(10) 0.4463(15) 0.106(5) 0.0150 Uiso
H8_2 H 0.85200 0.45950 0.16140 0.0150 Uiso
loop_
_geom_bond_atom_site_label_1
_geom_bond_atom_site_label_2
_geom_bond_site_symmetry_1
_geom_bond_site_symmetry_2
Cu2 O6 1_555 1_555
O1 Cu1 1_555 1_555
Cu1 O2 1_555 1_555
O2 C1 1_555 1_555
N1 Cu1 1_555 1_555
N2 Cu1 1_555 1_555
O3 Cu1 1_555 1_555
C1 C2 1_555 1_555
C2 N1 1_555 1_555
C3 N1 1_555 1_555
C4 N2 1_555 1_555
C5 N2 1_555 1_555
O4 C1 1_555 1_555
C6 C2 1_555 1_555
C7 C3 1_555 1_555
H1 C3 1_555 1_555
H2 C4 1_555 1_555
C9 C5 1_555 1_555
H3 C5 1_555 1_555
C10 C6 1_555 1_555
N3 C6 1_555 1_555
H4 C7 1_555 1_555
H6 C9 1_555 1_555
C7 N3 1_555 1_555
C9 C11 1_555 1_555
H10 C16 1_555 1_555
Cu2 N4 1_555 1_555
O8 Cu2 1_555 1_555
N5 Cu2 1_555 1_555
C17 O8 1_555 1_555
C18 N5 1_555 1_555
C19 N5 1_555 1_555
O10 C17 1_555 1_555
C20 C18 1_555 1_555
C21 C19 1_555 1_555
H11 C19 1_555 1_555
N6 C20 1_555 1_555
C22 C20 1_555 1_555
H12 C21 1_555 1_555
O1 C22 1_555 1_555
C16 N4 1_555 1_555
C17 C18 1_555 1_555
C21 N6 1_555 1_555
H5 C8 1_555 1_555
C15 C13 1_555 1_555
H7 C13 1_555 1_555
H9 C15 1_555 1_555
H8 C14 1_555 1_555
H5_2 C8_2 1_555 1_555
C13_2 C12_2 1_555 1_555
C15_2 C13_2 1_555 1_555
H7_2 C13_2 1_555 1_555
O7 Cu4 1_555 1_555
N4_2 C15_2 1_555 1_555
H9_2 C15_2 1_555 1_555
H10_2 C16_2 1_555 1_555
Cu4 N4_2 1_555 1_555
O8_2 Cu4 1_555 1_555
N5_2 Cu4 1_555 1_555
O9 Cu4 1_555 1_555
C17_2 O8_2 1_555 1_555
C18_2 N5_2 1_555 1_555
C19_2 N5_2 1_555 1_555
O10_2 C17_2 1_555 1_555
C20_2 C18_2 1_555 1_555
C21_2 C19_2 1_555 1_555
H11_2 C19_2 1_555 1_555
N6_2 C20_2 1_555 1_555
C22_2 C20_2 1_555 1_555
H12_2 C21_2 1_555 1_555
C16_2 N4_2 1_555 1_555
C17_2 C18_2 1_555 1_555
C21_2 N6_2 1_555 1_555
Cu5 O11 1_555 1_555
Cu5 O2_2 1_555 1_555
O2_2 C1_2 1_555 1_555
N1_2 Cu5 1_555 1_555
N2_2 Cu5 1_555 1_555
C1_2 C2_2 1_555 1_555
C2_2 N1_2 1_555 1_555
C3_2 N1_2 1_555 1_555
C4_2 N2_2 1_555 1_555
O4_2 C1_2 1_555 1_555
C6_2 C2_2 1_555 1_555
C7_2 C3_2 1_555 1_555
H1_2 C3_2 1_555 1_555
H2_2 C4_2 1_555 1_555
C10_2 C6_2 1_555 1_555
N3_2 C6_2 1_555 1_555
H4_2 C7_2 1_555 1_555
O9 C10_2 1_555 1_555
C7_2 N3_2 1_555 1_555
C9_2 C5_2 1_555 1_555
H3_2 C5_2 1_555 1_555
H6_2 C9_2 1_555 1_555
H8_2 C14_2 1_555 1_555

#END
