
###############################################################################
#
# This file contains modified crystal structure data generated from the
# MOF subset of the Cambridge Structural Database (CSD) v543 
# hosted by the Cambridge Crystallographic Data Centre (CCDC).
#
# This work is licensed under the Creative Commons
# Attribution-NonCommercial-ShareAlike 4.0 International License.
# To view a copy of this license, visit
# http://creativecommons.org/licenses/by-nc-sa/4.0/
# or send a letter to
# Creative Commons, PO Box 1866, Mountain View, CA 94042, USA.
#
# CIF created using the CSD Python API on 29 September 2022
# The structure has been converted into the P1 space group
# The structure has a 3D framework
# The original CSD entry BUWGAC04 is in the monoclinic crystal system
# The framework has been calculated to contain at least 10.0% void space
# The void calculation uses a probe of radius 1.32A, grid spacing 0.4
#
###############################################################################

data_BUWGAC04
_chemical_formula_moiety         '(C44 H24 Cu4 N12 O12)n'
_symmetry_cell_setting           triclinic
_symmetry_space_group_name_H-M   'P 1'
_symmetry_Int_Tables_number      1
_space_group_name_Hall           'P 1'
loop_
_symmetry_equiv_pos_site_id
_symmetry_equiv_pos_as_xyz
1 x,y,z
_cell_length_a                   4.719(3)
_cell_length_b                   27.981(3)
_cell_length_c                   11.071(12)
_cell_angle_alpha                90
_cell_angle_beta                 97.41(4)
_cell_angle_gamma                90
_cell_volume                     1449.63
loop_
_atom_site_label
_atom_site_type_symbol
_atom_site_fract_x
_atom_site_fract_y
_atom_site_fract_z
_atom_site_U_iso_or_equiv
_atom_site_thermal_displace_type
Cu6 Cu 0.362(9) 0.3107(10) 0.083(3) 0.0040 Uiso
O3 O 0.704(22) 0.303(5) 0.032(6) 0.0150 Uiso
Cu1 Cu 0.362(9) 0.1893(10) 0.583(3) 0.0040 Uiso
O1 O 0.539(31) 0.1709(14) 0.751(6) 0.0150 Uiso
N1 N 0.476(23) 0.2531(9) 0.652(7) 0.0150 Uiso
N2 N 0.259(14) 0.1205(11) 0.542(6) 0.0150 Uiso
C1 C 0.674(16) 0.2007(10) 0.817(9) 0.0150 Uiso
C2 C 0.647(20) 0.2510(10) 0.762(6) 0.0150 Uiso
C3 C 0.416(24) 0.2957(14) 0.597(7) 0.0150 Uiso
C4 C 0.088(20) 0.1009(16) 0.625(6) 0.0150 Uiso
C5 C 0.300(11) 0.0957(11) 0.434(5) 0.0150 Uiso
C6 C 0.871(17) 0.2938(19) 0.957(5) 0.0150 Uiso
O4 O 0.821(22) 0.1949(15) 0.916(9) 0.0150 Uiso
C7 C 0.742(12) 0.2927(14) 0.823(5) 0.0150 Uiso
C8 C 0.511(27) 0.3369(18) 0.657(8) 0.0150 Uiso
H1 H 0.30100 0.29800 0.52000 0.0150 Uiso
H2 H 0.03700 0.11940 0.69210 0.0150 Uiso
C10 C 0.190(25) 0.0484(15) 0.4155(25) 0.0150 Uiso
H3 H 0.40200 0.10950 0.36910 0.0150 Uiso
N3 N 0.693(20) 0.3352(15) 0.762(7) 0.0150 Uiso
H4 H 0.48100 0.37000 0.62200 0.0150 Uiso
C11 C 0.035(14) 0.0272(12) 0.5049(25) 0.0150 Uiso
H6 H 0.22400 0.02910 0.34370 0.0150 Uiso
O10 O 0.150(17) 0.204(4) 0.479(7) 0.0150 Uiso
O12 O 0.704(22) 0.197(5) 0.532(6) 0.0150 Uiso
N4 N 0.259(14) 0.3795(11) 0.042(6) 0.0150 Uiso
C12 C 0.088(20) 0.3991(16) 0.125(6) 0.0150 Uiso
H7 H 0.03700 0.38060 0.19210 0.0150 Uiso
C16 C 0.035(14) 0.4728(12) 0.0049(25) 0.0150 Uiso
O5 O 0.539(31) 0.3291(14) 0.251(6) 0.0150 Uiso
N5 N 0.476(23) 0.2469(9) 0.152(7) 0.0150 Uiso
C17 C 0.674(16) 0.2993(10) 0.317(9) 0.0150 Uiso
C18 C 0.647(20) 0.2490(10) 0.262(6) 0.0150 Uiso
C19 C 0.416(24) 0.2043(14) 0.097(7) 0.0150 Uiso
C20 C 0.871(17) 0.2062(19) 0.457(5) 0.0150 Uiso
O8 O 0.821(22) 0.3051(15) 0.416(9) 0.0150 Uiso
C21 C 0.742(12) 0.2073(14) 0.323(5) 0.0150 Uiso
C22 C 0.511(27) 0.1631(18) 0.157(8) 0.0150 Uiso
H11 H 0.30100 0.20200 0.02000 0.0150 Uiso
N6 N 0.693(20) 0.1648(15) 0.262(7) 0.0150 Uiso
H12 H 0.48100 0.13000 0.12200 0.0150 Uiso
O2 O 0.150(17) 0.296(4) 0.979(7) 0.0150 Uiso
C9 C 0.026(7) 0.5537(11) 0.893(4) 0.0150 Uiso
H5 H 0.14800 0.54050 0.83860 0.0150 Uiso
C13 C 0.300(11) 0.4043(11) 0.934(5) 0.0150 Uiso
C15 C 0.190(25) 0.4516(15) 0.9155(25) 0.0150 Uiso
H8 H 0.40200 0.39050 0.86910 0.0150 Uiso
H10 H 0.22400 0.47090 0.84370 0.0150 Uiso
C14 C 0.026(7) 0.9463(11) 0.393(4) 0.0150 Uiso
H9 H 0.14800 0.95950 0.33860 0.0150 Uiso
C9_2 C 0.974(7) 0.0537(11) 0.607(4) 0.0150 Uiso
H5_2 H 0.85200 0.04050 0.66140 0.0150 Uiso
N4_2 N 0.741(14) 0.8795(11) 0.458(6) 0.0150 Uiso
C12_2 C 0.912(20) 0.8991(16) 0.375(6) 0.0150 Uiso
C13_2 C 0.700(11) 0.9043(11) 0.566(5) 0.0150 Uiso
H7_2 H 0.96300 0.88060 0.30790 0.0150 Uiso
C15_2 C 0.810(25) 0.9516(15) 0.5845(25) 0.0150 Uiso
H8_2 H 0.59800 0.89050 0.63090 0.0150 Uiso
C16_2 C 0.965(14) 0.9728(12) 0.4951(25) 0.0150 Uiso
H10_2 H 0.77600 0.97090 0.65630 0.0150 Uiso
Cu2 Cu 0.638(9) 0.8107(10) 0.417(3) 0.0040 Uiso
O5_2 O 0.461(31) 0.8291(14) 0.249(6) 0.0150 Uiso
N5_2 N 0.524(23) 0.7469(9) 0.348(7) 0.0150 Uiso
C17_2 C 0.326(16) 0.7993(10) 0.183(9) 0.0150 Uiso
C18_2 C 0.353(20) 0.7490(10) 0.238(6) 0.0150 Uiso
C19_2 C 0.584(24) 0.7043(14) 0.403(7) 0.0150 Uiso
C20_2 C 0.129(17) 0.7062(19) 0.043(5) 0.0150 Uiso
O8_2 O 0.179(22) 0.8051(15) 0.084(9) 0.0150 Uiso
C21_2 C 0.258(12) 0.7073(14) 0.177(5) 0.0150 Uiso
C22_2 C 0.489(27) 0.6631(18) 0.343(8) 0.0150 Uiso
H11_2 H 0.69900 0.70200 0.48000 0.0150 Uiso
N6_2 N 0.307(20) 0.6648(15) 0.238(7) 0.0150 Uiso
H12_2 H 0.51900 0.63000 0.37800 0.0150 Uiso
O9 O 0.850(17) 0.796(4) 0.521(7) 0.0150 Uiso
O11 O 0.296(22) 0.803(5) 0.468(6) 0.0150 Uiso
O7 O 0.296(22) 0.697(5) 0.968(6) 0.0150 Uiso
Cu4 Cu 0.638(9) 0.6893(10) 0.917(3) 0.0040 Uiso
O1_2 O 0.461(31) 0.6709(14) 0.749(6) 0.0150 Uiso
N1_2 N 0.524(23) 0.7531(9) 0.848(7) 0.0150 Uiso
N2_2 N 0.741(14) 0.6205(11) 0.958(6) 0.0150 Uiso
C1_2 C 0.326(16) 0.7007(10) 0.683(9) 0.0150 Uiso
C2_2 C 0.353(20) 0.7510(10) 0.738(6) 0.0150 Uiso
C3_2 C 0.584(24) 0.7957(14) 0.903(7) 0.0150 Uiso
C4_2 C 0.912(20) 0.6009(16) 0.875(6) 0.0150 Uiso
C6_2 C 0.129(17) 0.7938(19) 0.543(5) 0.0150 Uiso
O4_2 O 0.179(22) 0.6949(15) 0.584(9) 0.0150 Uiso
C7_2 C 0.258(12) 0.7927(14) 0.677(5) 0.0150 Uiso
C8_2 C 0.489(27) 0.8369(18) 0.843(8) 0.0150 Uiso
H1_2 H 0.69900 0.79800 0.98000 0.0150 Uiso
H2_2 H 0.96300 0.61940 0.80790 0.0150 Uiso
N3_2 N 0.307(20) 0.8352(15) 0.738(7) 0.0150 Uiso
H4_2 H 0.51900 0.87000 0.87800 0.0150 Uiso
C11_2 C 0.965(14) 0.5272(12) 0.9951(25) 0.0150 Uiso
O6 O 0.850(17) 0.704(4) 0.021(7) 0.0150 Uiso
C5_2 C 0.700(11) 0.5957(11) 0.066(5) 0.0150 Uiso
C10_2 C 0.810(25) 0.5484(15) 0.0845(25) 0.0150 Uiso
H3_2 H 0.59800 0.60950 0.13090 0.0150 Uiso
H6_2 H 0.77600 0.52910 0.15630 0.0150 Uiso
C14_2 C 0.974(7) 0.4463(11) 0.107(4) 0.0150 Uiso
H9_2 H 0.85200 0.45950 0.16140 0.0150 Uiso
loop_
_geom_bond_atom_site_label_1
_geom_bond_atom_site_label_2
_geom_bond_site_symmetry_1
_geom_bond_site_symmetry_2
Cu6 O3 1_555 1_555
Cu1 O1 1_555 1_555
O1 C1 1_555 1_555
N1 Cu1 1_555 1_555
N2 Cu1 1_555 1_555
C1 C2 1_555 1_555
C2 N1 1_555 1_555
C3 N1 1_555 1_555
C4 N2 1_555 1_555
C5 N2 1_555 1_555
C6 C7 1_555 1_555
O4 C1 1_555 1_555
C7 C2 1_555 1_555
C8 C3 1_555 1_555
H1 C3 1_555 1_555
H2 C4 1_555 1_555
C10 C5 1_555 1_555
H3 C5 1_555 1_555
N3 C7 1_555 1_555
H4 C8 1_555 1_555
H6 C10 1_555 1_555
O10 Cu1 1_555 1_555
O12 Cu1 1_555 1_555
C8 N3 1_555 1_555
C10 C11 1_555 1_555
N4 C12 1_555 1_555
H7 C12 1_555 1_555
Cu6 N4 1_555 1_555
O5 Cu6 1_555 1_555
N5 Cu6 1_555 1_555
O12 C20 1_555 1_555
C17 O5 1_555 1_555
C18 N5 1_555 1_555
C19 N5 1_555 1_555
C20 C21 1_555 1_555
O8 C17 1_555 1_555
C21 C18 1_555 1_555
C22 C19 1_555 1_555
H11 C19 1_555 1_555
N6 C21 1_555 1_555
H12 C22 1_555 1_555
C17 C18 1_555 1_555
C22 N6 1_555 1_555
H5 C9 1_555 1_555
C15 C13 1_555 1_555
H8 C13 1_555 1_555
H10 C15 1_555 1_555
H9 C14 1_555 1_555
H5_2 C9_2 1_555 1_555
N4_2 C12_2 1_555 1_555
C13_2 N4_2 1_555 1_555
H7_2 C12_2 1_555 1_555
C15_2 C13_2 1_555 1_555
H8_2 C13_2 1_555 1_555
H10_2 C15_2 1_555 1_555
Cu2 N4_2 1_555 1_555
O5_2 Cu2 1_555 1_555
N5_2 Cu2 1_555 1_555
C17_2 O5_2 1_555 1_555
C18_2 N5_2 1_555 1_555
C19_2 N5_2 1_555 1_555
C20_2 C21_2 1_555 1_555
O8_2 C17_2 1_555 1_555
C21_2 C18_2 1_555 1_555
C22_2 C19_2 1_555 1_555
H11_2 C19_2 1_555 1_555
N6_2 C21_2 1_555 1_555
H12_2 C22_2 1_555 1_555
O9 Cu2 1_555 1_555
O11 Cu2 1_555 1_555
C15_2 C16_2 1_555 1_555
C17_2 C18_2 1_555 1_555
C22_2 N6_2 1_555 1_555
Cu4 O7 1_555 1_555
Cu4 O1_2 1_555 1_555
O1_2 C1_2 1_555 1_555
N1_2 Cu4 1_555 1_555
N2_2 Cu4 1_555 1_555
O11 C6_2 1_555 1_555
C1_2 C2_2 1_555 1_555
C2_2 N1_2 1_555 1_555
C3_2 N1_2 1_555 1_555
C4_2 N2_2 1_555 1_555
C6_2 C7_2 1_555 1_555
O4_2 C1_2 1_555 1_555
C7_2 C2_2 1_555 1_555
C8_2 C3_2 1_555 1_555
H1_2 C3_2 1_555 1_555
H2_2 C4_2 1_555 1_555
N3_2 C7_2 1_555 1_555
H4_2 C8_2 1_555 1_555
C8_2 N3_2 1_555 1_555
C10_2 C5_2 1_555 1_555
H3_2 C5_2 1_555 1_555
H6_2 C10_2 1_555 1_555
H9_2 C14_2 1_555 1_555

#END
