
###############################################################################
#
# This file contains modified crystal structure data generated from the
# MOF subset of the Cambridge Structural Database (CSD) v543 
# hosted by the Cambridge Crystallographic Data Centre (CCDC).
#
# This work is licensed under the Creative Commons
# Attribution-NonCommercial-ShareAlike 4.0 International License.
# To view a copy of this license, visit
# http://creativecommons.org/licenses/by-nc-sa/4.0/
# or send a letter to
# Creative Commons, PO Box 1866, Mountain View, CA 94042, USA.
#
# CIF created using the CSD Python API on 29 September 2022
# The structure has been converted into the P1 space group
# The structure has a 3D framework
# The original CSD entry BUWGAC10 is in the monoclinic crystal system
# The framework has been calculated to contain at least 10.0% void space
# The void calculation uses a probe of radius 1.32A, grid spacing 0.4
#
###############################################################################

data_BUWGAC10
_chemical_formula_moiety         '(C44 H24 Cu4 N12 O12)n'
_symmetry_cell_setting           triclinic
_symmetry_space_group_name_H-M   'P 1'
_symmetry_Int_Tables_number      1
_space_group_name_Hall           'P 1'
loop_
_symmetry_equiv_pos_site_id
_symmetry_equiv_pos_as_xyz
1 x,y,z
_cell_length_a                   4.728(10)
_cell_length_b                   28.336(5)
_cell_length_c                   11.23(4)
_cell_angle_alpha                90
_cell_angle_beta                 98.53(10)
_cell_angle_gamma                90
_cell_volume                     1487.87
loop_
_atom_site_label
_atom_site_type_symbol
_atom_site_fract_x
_atom_site_fract_y
_atom_site_fract_z
_atom_site_U_iso_or_equiv
_atom_site_thermal_displace_type
Cu2 Cu 0.367(17) 0.3106(13) 0.081(5) 0.0040 Uiso
O6 O 0.74(4) 0.306(7) 0.031(9) 0.0150 Uiso
O1 O 0.74(4) 0.194(7) 0.531(9) 0.0150 Uiso
Cu1 Cu 0.367(17) 0.1894(13) 0.581(5) 0.0040 Uiso
N1 N 0.48(4) 0.2532(11) 0.652(5) 0.0150 Uiso
O2 O 0.54(6) 0.1709(13) 0.751(10) 0.0150 Uiso
N2 N 0.259(7) 0.1205(10) 0.5417(23) 0.0150 Uiso
O3 O 0.168(28) 0.211(7) 0.468(12) 0.0150 Uiso
C1 C 0.65(4) 0.2510(12) 0.761(7) 0.0150 Uiso
C2 C 0.415(29) 0.2959(15) 0.597(5) 0.0150 Uiso
C3 C 0.680(26) 0.2008(12) 0.816(9) 0.0150 Uiso
C4 C 0.300(13) 0.0957(12) 0.4335(19) 0.0150 Uiso
C5 C 0.087(5) 0.1009(9) 0.6251(31) 0.0150 Uiso
C6 C 0.745(20) 0.2923(16) 0.822(8) 0.0150 Uiso
C7 C 0.51(3) 0.3370(23) 0.657(10) 0.0150 Uiso
H1 H 0.30100 0.29800 0.52000 0.0150 Uiso
O4 O 0.83(3) 0.1948(16) 0.914(11) 0.0150 Uiso
C8 C 0.190(21) 0.0484(17) 0.4154(26) 0.0150 Uiso
H2 H 0.40200 0.10950 0.36910 0.0150 Uiso
H3 H 0.03700 0.11940 0.69210 0.0150 Uiso
C10 C 0.889(27) 0.2925(26) 0.953(8) 0.0150 Uiso
N3 N 0.69(3) 0.3352(17) 0.763(13) 0.0150 Uiso
H4 H 0.48100 0.37000 0.62200 0.0150 Uiso
C11 C 0.035(10) 0.0272(11) 0.5048(17) 0.0150 Uiso
H5 H 0.22400 0.02910 0.34370 0.0150 Uiso
C12 C 0.035(10) 0.4728(11) 0.0048(17) 0.0150 Uiso
C15 C 0.087(5) 0.3991(9) 0.1251(31) 0.0150 Uiso
N4 N 0.259(7) 0.3795(10) 0.0417(23) 0.0150 Uiso
H9 H 0.03700 0.38060 0.19210 0.0150 Uiso
N5 N 0.48(4) 0.2468(11) 0.152(5) 0.0150 Uiso
O8 O 0.54(6) 0.3291(13) 0.251(10) 0.0150 Uiso
C17 C 0.65(4) 0.2490(12) 0.261(7) 0.0150 Uiso
C18 C 0.415(29) 0.2041(15) 0.097(5) 0.0150 Uiso
C19 C 0.680(26) 0.2992(12) 0.316(9) 0.0150 Uiso
C20 C 0.745(20) 0.2077(16) 0.322(8) 0.0150 Uiso
C21 C 0.51(3) 0.1630(23) 0.157(10) 0.0150 Uiso
H11 H 0.30100 0.20200 0.02000 0.0150 Uiso
O10 O 0.83(3) 0.3052(16) 0.414(11) 0.0150 Uiso
N6 N 0.69(3) 0.1648(17) 0.263(13) 0.0150 Uiso
C22 C 0.889(27) 0.2075(26) 0.453(8) 0.0150 Uiso
H12 H 0.48100 0.13000 0.12200 0.0150 Uiso
O5 O 0.168(28) 0.289(7) 0.968(12) 0.0150 Uiso
C9 C 0.0258(20) 0.5537(8) 0.8936(31) 0.0150 Uiso
H6 H 0.14800 0.54050 0.83860 0.0150 Uiso
C14 C 0.190(21) 0.4516(17) 0.9154(26) 0.0150 Uiso
C16 C 0.300(13) 0.4043(12) 0.9335(19) 0.0150 Uiso
H8 H 0.22400 0.47090 0.84370 0.0150 Uiso
H10 H 0.40200 0.39050 0.86910 0.0150 Uiso
C13 C 0.0258(20) 0.9463(8) 0.3936(31) 0.0150 Uiso
H7 H 0.14800 0.95950 0.33860 0.0150 Uiso
C9_2 C 0.9742(20) 0.0537(8) 0.6064(31) 0.0150 Uiso
H6_2 H 0.85200 0.04050 0.66140 0.0150 Uiso
C12_2 C 0.965(10) 0.9728(11) 0.4952(17) 0.0150 Uiso
C14_2 C 0.810(21) 0.9516(17) 0.5846(26) 0.0150 Uiso
C15_2 C 0.913(5) 0.8991(9) 0.3749(31) 0.0150 Uiso
C16_2 C 0.700(13) 0.9043(12) 0.5665(19) 0.0150 Uiso
H8_2 H 0.77600 0.97090 0.65630 0.0150 Uiso
O7 O 0.832(28) 0.789(7) 0.532(12) 0.0150 Uiso
N4_2 N 0.741(7) 0.8795(10) 0.4583(23) 0.0150 Uiso
H9_2 H 0.96300 0.88060 0.30790 0.0150 Uiso
H10_2 H 0.59800 0.89050 0.63090 0.0150 Uiso
Cu4 Cu 0.633(17) 0.8106(13) 0.419(5) 0.0040 Uiso
N5_2 N 0.52(4) 0.7468(11) 0.348(5) 0.0150 Uiso
O8_2 O 0.46(6) 0.8291(13) 0.249(10) 0.0150 Uiso
O9 O 0.26(4) 0.806(7) 0.469(9) 0.0150 Uiso
C17_2 C 0.35(4) 0.7490(12) 0.239(7) 0.0150 Uiso
C18_2 C 0.585(29) 0.7041(15) 0.403(5) 0.0150 Uiso
C19_2 C 0.320(26) 0.7992(12) 0.184(9) 0.0150 Uiso
C20_2 C 0.255(20) 0.7077(16) 0.178(8) 0.0150 Uiso
C21_2 C 0.49(3) 0.6630(23) 0.343(10) 0.0150 Uiso
H11_2 H 0.69900 0.70200 0.48000 0.0150 Uiso
O10_2 O 0.17(3) 0.8052(16) 0.086(11) 0.0150 Uiso
N6_2 N 0.31(3) 0.6648(17) 0.237(13) 0.0150 Uiso
C22_2 C 0.111(27) 0.7075(26) 0.047(8) 0.0150 Uiso
H12_2 H 0.51900 0.63000 0.37800 0.0150 Uiso
O11 O 0.26(4) 0.694(7) 0.969(9) 0.0150 Uiso
Cu5 Cu 0.633(17) 0.6894(13) 0.919(5) 0.0040 Uiso
N1_2 N 0.52(4) 0.7532(11) 0.848(5) 0.0150 Uiso
O2_2 O 0.46(6) 0.6709(13) 0.749(10) 0.0150 Uiso
N2_2 N 0.741(7) 0.6205(10) 0.9583(23) 0.0150 Uiso
C1_2 C 0.35(4) 0.7510(12) 0.739(7) 0.0150 Uiso
C2_2 C 0.585(29) 0.7959(15) 0.903(5) 0.0150 Uiso
C3_2 C 0.320(26) 0.7008(12) 0.684(9) 0.0150 Uiso
C5_2 C 0.913(5) 0.6009(9) 0.8749(31) 0.0150 Uiso
C6_2 C 0.255(20) 0.7923(16) 0.678(8) 0.0150 Uiso
C7_2 C 0.49(3) 0.8370(23) 0.843(10) 0.0150 Uiso
H1_2 H 0.69900 0.79800 0.98000 0.0150 Uiso
O4_2 O 0.17(3) 0.6948(16) 0.586(11) 0.0150 Uiso
H3_2 H 0.96300 0.61940 0.80790 0.0150 Uiso
C10_2 C 0.111(27) 0.7925(26) 0.547(8) 0.0150 Uiso
N3_2 N 0.31(3) 0.8352(17) 0.737(13) 0.0150 Uiso
H4_2 H 0.51900 0.87000 0.87800 0.0150 Uiso
C11_2 C 0.965(10) 0.5272(11) 0.9952(17) 0.0150 Uiso
O12 O 0.832(28) 0.711(7) 0.032(12) 0.0150 Uiso
C4_2 C 0.700(13) 0.5957(12) 0.0665(19) 0.0150 Uiso
C8_2 C 0.810(21) 0.5484(17) 0.0846(26) 0.0150 Uiso
H2_2 H 0.59800 0.60950 0.13090 0.0150 Uiso
H5_2 H 0.77600 0.52910 0.15630 0.0150 Uiso
C13_2 C 0.9742(20) 0.4463(8) 0.1064(31) 0.0150 Uiso
H7_2 H 0.85200 0.45950 0.16140 0.0150 Uiso
loop_
_geom_bond_atom_site_label_1
_geom_bond_atom_site_label_2
_geom_bond_site_symmetry_1
_geom_bond_site_symmetry_2
Cu2 O6 1_555 1_555
O1 Cu1 1_555 1_555
Cu1 N1 1_555 1_555
N1 C1 1_555 1_555
O2 Cu1 1_555 1_555
N2 Cu1 1_555 1_555
O3 Cu1 1_555 1_555
C1 C3 1_555 1_555
C2 N1 1_555 1_555
C3 O2 1_555 1_555
C4 N2 1_555 1_555
C5 N2 1_555 1_555
C6 C1 1_555 1_555
C7 C2 1_555 1_555
H1 C2 1_555 1_555
O4 C3 1_555 1_555
C8 C4 1_555 1_555
H2 C4 1_555 1_555
H3 C5 1_555 1_555
C10 C6 1_555 1_555
N3 C6 1_555 1_555
H4 C7 1_555 1_555
C11 C8 1_555 1_555
H5 C8 1_555 1_555
C7 N3 1_555 1_555
N4 C15 1_555 1_555
H9 C15 1_555 1_555
Cu2 N4 1_555 1_555
N5 Cu2 1_555 1_555
O8 Cu2 1_555 1_555
C17 N5 1_555 1_555
C18 N5 1_555 1_555
C19 O8 1_555 1_555
C20 C17 1_555 1_555
C21 C18 1_555 1_555
H11 C18 1_555 1_555
O10 C19 1_555 1_555
N6 C20 1_555 1_555
C22 C20 1_555 1_555
H12 C21 1_555 1_555
O1 C22 1_555 1_555
C17 C19 1_555 1_555
C21 N6 1_555 1_555
H6 C9 1_555 1_555
C16 C14 1_555 1_555
H8 C14 1_555 1_555
H10 C16 1_555 1_555
H7 C13 1_555 1_555
H6_2 C9_2 1_555 1_555
C14_2 C12_2 1_555 1_555
C16_2 C14_2 1_555 1_555
H8_2 C14_2 1_555 1_555
O7 Cu4 1_555 1_555
N4_2 C15_2 1_555 1_555
H9_2 C15_2 1_555 1_555
H10_2 C16_2 1_555 1_555
Cu4 N4_2 1_555 1_555
N5_2 Cu4 1_555 1_555
O8_2 Cu4 1_555 1_555
O9 Cu4 1_555 1_555
C17_2 N5_2 1_555 1_555
C18_2 N5_2 1_555 1_555
C19_2 O8_2 1_555 1_555
C20_2 C17_2 1_555 1_555
C21_2 C18_2 1_555 1_555
H11_2 C18_2 1_555 1_555
O10_2 C19_2 1_555 1_555
N6_2 C20_2 1_555 1_555
C22_2 C20_2 1_555 1_555
H12_2 C21_2 1_555 1_555
C16_2 N4_2 1_555 1_555
C17_2 C19_2 1_555 1_555
C21_2 N6_2 1_555 1_555
Cu5 O11 1_555 1_555
Cu5 N1_2 1_555 1_555
N1_2 C1_2 1_555 1_555
O2_2 Cu5 1_555 1_555
N2_2 Cu5 1_555 1_555
C1_2 C3_2 1_555 1_555
C2_2 N1_2 1_555 1_555
C3_2 O2_2 1_555 1_555
C5_2 N2_2 1_555 1_555
C6_2 C1_2 1_555 1_555
C7_2 C2_2 1_555 1_555
H1_2 C2_2 1_555 1_555
O4_2 C3_2 1_555 1_555
H3_2 C5_2 1_555 1_555
C10_2 C6_2 1_555 1_555
N3_2 C6_2 1_555 1_555
H4_2 C7_2 1_555 1_555
O9 C10_2 1_555 1_555
C7_2 N3_2 1_555 1_555
C8_2 C4_2 1_555 1_555
H2_2 C4_2 1_555 1_555
H5_2 C8_2 1_555 1_555
H7_2 C13_2 1_555 1_555

#END
