
###############################################################################
#
# This file contains modified crystal structure data generated from the
# MOF subset of the Cambridge Structural Database (CSD) v543 
# hosted by the Cambridge Crystallographic Data Centre (CCDC).
#
# This work is licensed under the Creative Commons
# Attribution-NonCommercial-ShareAlike 4.0 International License.
# To view a copy of this license, visit
# http://creativecommons.org/licenses/by-nc-sa/4.0/
# or send a letter to
# Creative Commons, PO Box 1866, Mountain View, CA 94042, USA.
#
# CIF created using the CSD Python API on 29 September 2022
# The structure has been converted into the P1 space group
# The structure has a 3D framework
# The original CSD entry BUWGAC03 is in the monoclinic crystal system
# The framework has been calculated to contain at least 10.0% void space
# The void calculation uses a probe of radius 1.32A, grid spacing 0.4
#
###############################################################################

data_BUWGAC03
_chemical_formula_moiety         '(C44 H24 Cu4 N12 O12)n'
_symmetry_cell_setting           triclinic
_symmetry_space_group_name_H-M   'P 1'
_symmetry_Int_Tables_number      1
_space_group_name_Hall           'P 1'
loop_
_symmetry_equiv_pos_site_id
_symmetry_equiv_pos_as_xyz
1 x,y,z
_cell_length_a                   4.717(4)
_cell_length_b                   27.976(3)
_cell_length_c                   11.081(15)
_cell_angle_alpha                90
_cell_angle_beta                 97.48(5)
_cell_angle_gamma                90
_cell_volume                     1449.84
loop_
_atom_site_label
_atom_site_type_symbol
_atom_site_fract_x
_atom_site_fract_y
_atom_site_fract_z
_atom_site_U_iso_or_equiv
_atom_site_thermal_displace_type
Cu6 Cu 0.364(10) 0.3109(12) 0.082(4) 0.0040 Uiso
O3 O 0.731(23) 0.310(5) 0.030(6) 0.0150 Uiso
Cu1 Cu 0.364(10) 0.1891(12) 0.582(4) 0.0040 Uiso
O1 O 0.54(3) 0.1709(16) 0.751(7) 0.0150 Uiso
N1 N 0.476(25) 0.2531(9) 0.652(8) 0.0150 Uiso
N2 N 0.259(15) 0.1205(11) 0.542(6) 0.0150 Uiso
C1 C 0.678(19) 0.2008(12) 0.816(10) 0.0150 Uiso
C2 C 0.648(22) 0.2510(10) 0.761(7) 0.0150 Uiso
C3 C 0.415(29) 0.2958(15) 0.597(8) 0.0150 Uiso
C4 C 0.088(23) 0.1009(18) 0.625(7) 0.0150 Uiso
C5 C 0.300(13) 0.0957(12) 0.434(6) 0.0150 Uiso
C6 C 0.882(18) 0.2943(22) 0.955(5) 0.0150 Uiso
O4 O 0.828(24) 0.1949(16) 0.914(10) 0.0150 Uiso
C7 C 0.744(13) 0.2926(16) 0.822(5) 0.0150 Uiso
C8 C 0.511(30) 0.3369(19) 0.657(10) 0.0150 Uiso
H1 H 0.30100 0.29800 0.52000 0.0150 Uiso
H2 H 0.03700 0.11940 0.69210 0.0150 Uiso
C10 C 0.190(28) 0.0483(16) 0.4155(27) 0.0150 Uiso
H3 H 0.40200 0.10950 0.36910 0.0150 Uiso
N3 N 0.692(22) 0.3352(17) 0.762(7) 0.0150 Uiso
H4 H 0.48100 0.37000 0.62200 0.0150 Uiso
C11 C 0.035(16) 0.0272(14) 0.5048(27) 0.0150 Uiso
H6 H 0.22400 0.02910 0.34370 0.0150 Uiso
O10 O 0.160(19) 0.210(4) 0.473(8) 0.0150 Uiso
O12 O 0.731(23) 0.190(5) 0.530(6) 0.0150 Uiso
N4 N 0.259(15) 0.3795(11) 0.042(6) 0.0150 Uiso
C12 C 0.088(23) 0.3991(18) 0.125(7) 0.0150 Uiso
H7 H 0.03700 0.38060 0.19210 0.0150 Uiso
C16 C 0.035(16) 0.4728(14) 0.0048(27) 0.0150 Uiso
O5 O 0.54(3) 0.3291(16) 0.251(7) 0.0150 Uiso
N5 N 0.476(25) 0.2469(9) 0.152(8) 0.0150 Uiso
C17 C 0.678(19) 0.2992(12) 0.316(10) 0.0150 Uiso
C18 C 0.648(22) 0.2490(10) 0.261(7) 0.0150 Uiso
C19 C 0.415(29) 0.2042(15) 0.097(8) 0.0150 Uiso
C20 C 0.882(18) 0.2057(22) 0.455(5) 0.0150 Uiso
O8 O 0.828(24) 0.3051(16) 0.414(10) 0.0150 Uiso
C21 C 0.744(13) 0.2074(16) 0.322(5) 0.0150 Uiso
C22 C 0.511(30) 0.1631(19) 0.157(10) 0.0150 Uiso
H11 H 0.30100 0.20200 0.02000 0.0150 Uiso
N6 N 0.692(22) 0.1648(17) 0.262(7) 0.0150 Uiso
H12 H 0.48100 0.13000 0.12200 0.0150 Uiso
O2 O 0.160(19) 0.290(4) 0.973(8) 0.0150 Uiso
C9 C 0.026(8) 0.5537(13) 0.894(4) 0.0150 Uiso
H5 H 0.14800 0.54050 0.83860 0.0150 Uiso
C13 C 0.300(13) 0.4043(12) 0.934(6) 0.0150 Uiso
C15 C 0.190(28) 0.4517(16) 0.9155(27) 0.0150 Uiso
H8 H 0.40200 0.39050 0.86910 0.0150 Uiso
H10 H 0.22400 0.47090 0.84370 0.0150 Uiso
C14 C 0.026(8) 0.9463(13) 0.394(4) 0.0150 Uiso
H9 H 0.14800 0.95950 0.33860 0.0150 Uiso
C9_2 C 0.974(8) 0.0537(13) 0.606(4) 0.0150 Uiso
H5_2 H 0.85200 0.04050 0.66140 0.0150 Uiso
N4_2 N 0.741(15) 0.8795(11) 0.458(6) 0.0150 Uiso
C12_2 C 0.912(23) 0.8991(18) 0.375(7) 0.0150 Uiso
C13_2 C 0.700(13) 0.9043(12) 0.566(6) 0.0150 Uiso
H7_2 H 0.96300 0.88060 0.30790 0.0150 Uiso
C15_2 C 0.810(28) 0.9517(16) 0.5845(27) 0.0150 Uiso
H8_2 H 0.59800 0.89050 0.63090 0.0150 Uiso
C16_2 C 0.965(16) 0.9728(14) 0.4952(27) 0.0150 Uiso
H10_2 H 0.77600 0.97090 0.65630 0.0150 Uiso
Cu2 Cu 0.636(10) 0.8109(12) 0.418(4) 0.0040 Uiso
O5_2 O 0.46(3) 0.8291(16) 0.249(7) 0.0150 Uiso
N5_2 N 0.524(25) 0.7469(9) 0.348(8) 0.0150 Uiso
C17_2 C 0.322(19) 0.7992(12) 0.184(10) 0.0150 Uiso
C18_2 C 0.352(22) 0.7490(10) 0.239(7) 0.0150 Uiso
C19_2 C 0.585(29) 0.7042(15) 0.403(8) 0.0150 Uiso
C20_2 C 0.118(18) 0.7057(22) 0.045(5) 0.0150 Uiso
O8_2 O 0.172(24) 0.8051(16) 0.086(10) 0.0150 Uiso
C21_2 C 0.256(13) 0.7074(16) 0.178(5) 0.0150 Uiso
C22_2 C 0.489(30) 0.6631(19) 0.343(10) 0.0150 Uiso
H11_2 H 0.69900 0.70200 0.48000 0.0150 Uiso
N6_2 N 0.308(22) 0.6648(17) 0.238(7) 0.0150 Uiso
H12_2 H 0.51900 0.63000 0.37800 0.0150 Uiso
O9 O 0.840(19) 0.790(4) 0.527(8) 0.0150 Uiso
O11 O 0.269(23) 0.810(5) 0.470(6) 0.0150 Uiso
O7 O 0.269(23) 0.690(5) 0.970(6) 0.0150 Uiso
Cu4 Cu 0.636(10) 0.6891(12) 0.918(4) 0.0040 Uiso
O1_2 O 0.46(3) 0.6709(16) 0.749(7) 0.0150 Uiso
N1_2 N 0.524(25) 0.7531(9) 0.848(8) 0.0150 Uiso
N2_2 N 0.741(15) 0.6205(11) 0.958(6) 0.0150 Uiso
C1_2 C 0.322(19) 0.7008(12) 0.684(10) 0.0150 Uiso
C2_2 C 0.352(22) 0.7510(10) 0.739(7) 0.0150 Uiso
C3_2 C 0.585(29) 0.7958(15) 0.903(8) 0.0150 Uiso
C4_2 C 0.912(23) 0.6009(18) 0.875(7) 0.0150 Uiso
C6_2 C 0.118(18) 0.7943(22) 0.545(5) 0.0150 Uiso
O4_2 O 0.172(24) 0.6949(16) 0.586(10) 0.0150 Uiso
C7_2 C 0.256(13) 0.7926(16) 0.678(5) 0.0150 Uiso
C8_2 C 0.489(30) 0.8369(19) 0.843(10) 0.0150 Uiso
H1_2 H 0.69900 0.79800 0.98000 0.0150 Uiso
H2_2 H 0.96300 0.61940 0.80790 0.0150 Uiso
N3_2 N 0.308(22) 0.8352(17) 0.738(7) 0.0150 Uiso
H4_2 H 0.51900 0.87000 0.87800 0.0150 Uiso
C11_2 C 0.965(16) 0.5272(14) 0.9952(27) 0.0150 Uiso
O6 O 0.840(19) 0.710(4) 0.027(8) 0.0150 Uiso
C5_2 C 0.700(13) 0.5957(12) 0.066(6) 0.0150 Uiso
C10_2 C 0.810(28) 0.5483(16) 0.0845(27) 0.0150 Uiso
H3_2 H 0.59800 0.60950 0.13090 0.0150 Uiso
H6_2 H 0.77600 0.52910 0.15630 0.0150 Uiso
C14_2 C 0.974(8) 0.4463(13) 0.106(4) 0.0150 Uiso
H9_2 H 0.85200 0.45950 0.16140 0.0150 Uiso
loop_
_geom_bond_atom_site_label_1
_geom_bond_atom_site_label_2
_geom_bond_site_symmetry_1
_geom_bond_site_symmetry_2
Cu6 O3 1_555 1_555
Cu1 O1 1_555 1_555
O1 C1 1_555 1_555
N1 Cu1 1_555 1_555
N2 Cu1 1_555 1_555
C1 C2 1_555 1_555
C2 N1 1_555 1_555
C3 N1 1_555 1_555
C4 N2 1_555 1_555
C5 N2 1_555 1_555
C6 C7 1_555 1_555
O4 C1 1_555 1_555
C7 C2 1_555 1_555
C8 C3 1_555 1_555
H1 C3 1_555 1_555
H2 C4 1_555 1_555
C10 C5 1_555 1_555
H3 C5 1_555 1_555
N3 C7 1_555 1_555
H4 C8 1_555 1_555
H6 C10 1_555 1_555
O10 Cu1 1_555 1_555
O12 Cu1 1_555 1_555
C8 N3 1_555 1_555
C10 C11 1_555 1_555
N4 C12 1_555 1_555
H7 C12 1_555 1_555
Cu6 N4 1_555 1_555
O5 Cu6 1_555 1_555
N5 Cu6 1_555 1_555
O12 C20 1_555 1_555
C17 O5 1_555 1_555
C18 N5 1_555 1_555
C19 N5 1_555 1_555
C20 C21 1_555 1_555
O8 C17 1_555 1_555
C21 C18 1_555 1_555
C22 C19 1_555 1_555
H11 C19 1_555 1_555
N6 C21 1_555 1_555
H12 C22 1_555 1_555
C17 C18 1_555 1_555
C22 N6 1_555 1_555
H5 C9 1_555 1_555
C15 C13 1_555 1_555
H8 C13 1_555 1_555
H10 C15 1_555 1_555
H9 C14 1_555 1_555
H5_2 C9_2 1_555 1_555
N4_2 C12_2 1_555 1_555
C13_2 N4_2 1_555 1_555
H7_2 C12_2 1_555 1_555
C15_2 C13_2 1_555 1_555
H8_2 C13_2 1_555 1_555
H10_2 C15_2 1_555 1_555
Cu2 N4_2 1_555 1_555
O5_2 Cu2 1_555 1_555
N5_2 Cu2 1_555 1_555
C17_2 O5_2 1_555 1_555
C18_2 N5_2 1_555 1_555
C19_2 N5_2 1_555 1_555
C20_2 C21_2 1_555 1_555
O8_2 C17_2 1_555 1_555
C21_2 C18_2 1_555 1_555
C22_2 C19_2 1_555 1_555
H11_2 C19_2 1_555 1_555
N6_2 C21_2 1_555 1_555
H12_2 C22_2 1_555 1_555
O9 Cu2 1_555 1_555
O11 Cu2 1_555 1_555
C15_2 C16_2 1_555 1_555
C17_2 C18_2 1_555 1_555
C22_2 N6_2 1_555 1_555
Cu4 O7 1_555 1_555
Cu4 O1_2 1_555 1_555
O1_2 C1_2 1_555 1_555
N1_2 Cu4 1_555 1_555
N2_2 Cu4 1_555 1_555
O11 C6_2 1_555 1_555
C1_2 C2_2 1_555 1_555
C2_2 N1_2 1_555 1_555
C3_2 N1_2 1_555 1_555
C4_2 N2_2 1_555 1_555
C6_2 C7_2 1_555 1_555
O4_2 C1_2 1_555 1_555
C7_2 C2_2 1_555 1_555
C8_2 C3_2 1_555 1_555
H1_2 C3_2 1_555 1_555
H2_2 C4_2 1_555 1_555
N3_2 C7_2 1_555 1_555
H4_2 C8_2 1_555 1_555
C8_2 N3_2 1_555 1_555
C10_2 C5_2 1_555 1_555
H3_2 C5_2 1_555 1_555
H6_2 C10_2 1_555 1_555
H9_2 C14_2 1_555 1_555

#END
