
###############################################################################
#
# This file contains modified crystal structure data generated from the
# MOF subset of the Cambridge Structural Database (CSD) v543 
# hosted by the Cambridge Crystallographic Data Centre (CCDC).
#
# This work is licensed under the Creative Commons
# Attribution-NonCommercial-ShareAlike 4.0 International License.
# To view a copy of this license, visit
# http://creativecommons.org/licenses/by-nc-sa/4.0/
# or send a letter to
# Creative Commons, PO Box 1866, Mountain View, CA 94042, USA.
#
# CIF created using the CSD Python API on 29 September 2022
# The structure has been converted into the P1 space group
# The structure has a 3D framework
# The original CSD entry BUWMEN is in the monoclinic crystal system
# The framework has been calculated to contain at least 10.0% void space
# The void calculation uses a probe of radius 1.32A, grid spacing 0.4
# The framework is charged, counterions have been retained in the structure
#
###############################################################################

data_BUWMEN
_chemical_formula_moiety         '(C76 H88 Fe4 La8 N32 O68)n'
_symmetry_cell_setting           triclinic
_symmetry_space_group_name_H-M   'P 1'
_symmetry_Int_Tables_number      1
_space_group_name_Hall           'P 1'
loop_
_symmetry_equiv_pos_site_id
_symmetry_equiv_pos_as_xyz
1 x,y,z
_cell_length_a                   17.755(2)
_cell_length_b                   19.838(3)
_cell_length_c                   13.3110(18)
_cell_angle_alpha                90
_cell_angle_beta                 131.8340(10)
_cell_angle_gamma                90
_cell_volume                     3493.27
loop_
_atom_site_label
_atom_site_type_symbol
_atom_site_fract_x
_atom_site_fract_y
_atom_site_fract_z
O15 O 0.0837(3) 0.2551(2) 0.4828(4)
O16 O 0.2316(3) 0.2921(2) 0.6751(4)
C11 C 0.0847(4) 0.4606(3) 0.6694(6)
H21 H 0.1178 0.4940 0.7351
C12 C 0.1390(4) 0.4070(3) 0.6758(5)
H22 H 0.2088 0.4043 0.7453
C13 C 0.0863(4) 0.3579(2) 0.5760(5)
C14 C 0.1378(4) 0.2968(2) 0.5780(5)
La4 La 0.391946(16) 0.233043(12) 0.783943(19)
La1 La 0.891946(16) 0.266957(12) 0.283943(19)
La2 La 0.608050(15) 0.516951(12) 0.216152(18)
O1 O 0.7242(3) 0.5517(2) 0.4721(4)
H1 H 0.7329 0.5930 0.4663
H2 H 0.7550 0.5412 0.5526
O2 O 0.5840(3) 0.3888(2) 0.1443(4)
H3 H 0.5578 0.3861 0.1803
H4 H 0.6103 0.3500 0.1469
O3 O 0.7322(3) 0.6096(2) 0.2669(5)
H5 H 0.7236 0.6390 0.2162
H6 H 0.7875 0.6130 0.3447
O4 O 0.4171(3) 0.4918(2) 0.0320(5)
H8 H 0.3952 0.4541 0.0320
O5 O 0.9651(4) 0.3586(2) 0.2332(4)
H9 H 0.9696 0.3973 0.2608
H10 H 0.9435 0.3601 0.1550
O6 O 0.7515(3) 0.3021(2) 0.0270(4)
O7 O 0.9389(3) 0.1388(2) 0.3543(4)
H13 H 0.8944 0.1187 0.2810
H14 H 0.9626 0.1115 0.4183
O8 O 0.8849(4) 0.2415(2) 0.4681(4)
H15 H 0.9258 0.2556 0.5475
H16 H 0.8648 0.2031 0.4655
O9 O 0.4388(4) 0.7125(2) 0.1653(4)
O10 O 0.5276(3) 0.6162(2) 0.2400(4)
O12 O 0.6004(3) 0.50535(19) 0.0174(4)
O13 O 0.7885(3) 0.3666(2) 0.2603(4)
O14 O 0.7728(3) 0.4624(2) 0.3345(5)
N1 N 0.5142(3) 0.6112(2) 0.0278(4)
N2 N 0.9856(3) 0.3611(2) 0.4713(4)
C1 C 0.4794(4) 0.6638(2) 0.1565(5)
C2 C 0.4695(3) 0.6630(2) 0.0347(5)
C8 C 0.8232(4) 0.4140(2) 0.3437(5)
C9 C 0.9348(3) 0.4129(2) 0.4656(5)
C10 C 0.9812(4) 0.4631(2) 0.5639(5)
H20 H 0.9432 0.4976 0.5586
La3 La 0.391946(16) 0.766957(12) 0.283943(19)
O17 O 0.9388(4) 0.2125(2) 0.1653(4)
O18 O 0.5562(4) 0.4575(2) 0.3250(4)
O19 O 0.7316(3) 0.2079(2) 0.1751(4)
H7 H 0.3727 0.5120 0.9606
H11 H 0.7662 0.3321 0.9976
H12 H 0.7133 0.2733 0.9673
O11 O 0.5562(4) 0.5425(2) 0.8250(4)
C3 C 0.4167(4) 0.7130(2) 0.9354(5)
H17 H 0.3839 0.7475 0.9404
C4 C 0.4145(4) 0.7096(3) 0.8294(5)
H18 H 0.3809 0.7425 0.7625
C5 C 0.4628(4) 0.6569(3) 0.8239(5)
H19 H 0.4638 0.6544 0.7551
C6 C 0.5096(4) 0.6078(2) 0.9235(5)
C7 C 0.5596(4) 0.5468(3) 0.9216(5)
La5 La 0.608050(15) 0.483049(12) 0.716152(18)
O16_2 O 0.2316(3) 0.7079(2) 0.1751(4)
C11_2 C 0.0847(4) 0.5394(3) 0.1694(6)
H21_2 H 0.1178 0.5060 0.2351
C12_2 C 0.1390(4) 0.5930(3) 0.1758(5)
H22_2 H 0.2088 0.5957 0.2453
C13_2 C 0.0863(4) 0.6421(2) 0.0760(5)
C14_2 C 0.1378(4) 0.7032(2) 0.0780(5)
La1_2 La 0.891946(16) 0.733043(12) 0.783943(19)
O1_2 O 0.7242(3) 0.4483(2) 0.9721(4)
H1_2 H 0.7329 0.4070 0.9663
O2_2 O 0.5840(3) 0.6112(2) 0.6443(4)
H3_2 H 0.5578 0.6139 0.6803
H4_2 H 0.6103 0.6500 0.6469
O3_2 O 0.7322(3) 0.3904(2) 0.7669(5)
H5_2 H 0.7236 0.3610 0.7162
H6_2 H 0.7875 0.3870 0.8447
O4_2 O 0.4171(3) 0.5082(2) 0.5320(5)
H7_2 H 0.3727 0.4880 0.4606
H8_2 H 0.3952 0.5459 0.5320
O5_2 O 0.9651(4) 0.6414(2) 0.7332(4)
H9_2 H 0.9696 0.6027 0.7608
H10_2 H 0.9435 0.6399 0.6550
O6_2 O 0.7515(3) 0.6979(2) 0.5270(4)
H11_2 H 0.7662 0.6679 0.4976
H12_2 H 0.7133 0.7267 0.4673
O7_2 O 0.9389(3) 0.8612(2) 0.8543(4)
H13_2 H 0.8944 0.8813 0.7810
H14_2 H 0.9626 0.8885 0.9183
O8_2 O 0.8849(4) 0.7585(2) 0.9681(4)
H16_2 H 0.8648 0.7969 0.9655
O9_2 O 0.4388(4) 0.2875(2) 0.6653(4)
O10_2 O 0.5276(3) 0.3838(2) 0.7400(4)
O12_2 O 0.6004(3) 0.49465(19) 0.5174(4)
O13_2 O 0.7885(3) 0.6334(2) 0.7603(4)
O14_2 O 0.7728(3) 0.5376(2) 0.8345(5)
N1_2 N 0.5142(3) 0.3888(2) 0.5278(4)
N2_2 N 0.9856(3) 0.6389(2) 0.9713(4)
C1_2 C 0.4794(4) 0.3362(2) 0.6565(5)
C2_2 C 0.4695(3) 0.3370(2) 0.5347(5)
C3_2 C 0.4167(4) 0.2870(2) 0.4354(5)
H17_2 H 0.3839 0.2525 0.4404
C4_2 C 0.4145(4) 0.2904(3) 0.3294(5)
H18_2 H 0.3809 0.2575 0.2625
C5_2 C 0.4628(4) 0.3431(3) 0.3239(5)
H19_2 H 0.4638 0.3456 0.2551
C6_2 C 0.5096(4) 0.3922(2) 0.4235(5)
C7_2 C 0.5596(4) 0.4532(3) 0.4216(5)
C8_2 C 0.8232(4) 0.5860(2) 0.8437(5)
C9_2 C 0.9348(3) 0.5871(2) 0.9656(5)
O17_2 O 0.9388(4) 0.7875(2) 0.6653(4)
O19_2 O 0.7316(3) 0.7921(2) 0.6751(4)
La2_2 La 0.108050(15) 0.016951(12) 0.216152(18)
O1_3 O 0.2242(3) 0.0517(2) 0.4721(4)
H1_3 H 0.2329 0.0930 0.4663
H2_2 H 0.2550 0.0412 0.5526
O3_3 O 0.2322(3) 0.1096(2) 0.2669(5)
H5_3 H 0.2236 0.1390 0.2162
H6_3 H 0.2875 0.1130 0.3447
O10_3 O 0.0276(3) 0.1162(2) 0.2400(4)
O12_3 O 0.1004(3) 0.00535(19) 0.0174(4)
N1_3 N 0.0142(3) 0.1112(2) 0.0278(4)
O11_2 O 0.0562(4) 0.0425(2) 0.8250(4)
C6_3 C 0.0096(4) 0.1078(2) 0.9235(5)
C7_3 C 0.0596(4) 0.0468(3) 0.9216(5)
O2_3 O 0.0840(3) 0.8888(2) 0.1443(4)
H3_3 H 0.0578 0.8861 0.1803
H4_3 H 0.1103 0.8500 0.1469
O5_3 O 0.4651(4) 0.8586(2) 0.2332(4)
H9_3 H 0.4696 0.8973 0.2608
H10_3 H 0.4435 0.8601 0.1550
O6_3 O 0.2515(3) 0.8021(2) 0.0270(4)
O7_3 O 0.4389(3) 0.6388(2) 0.3543(4)
H13_3 H 0.3944 0.6187 0.2810
H14_3 H 0.4626 0.6115 0.4183
O8_3 O 0.3849(4) 0.7415(2) 0.4681(4)
H15_2 H 0.4258 0.7556 0.5475
H16_3 H 0.3648 0.7031 0.4655
O13_3 O 0.2885(3) 0.8666(2) 0.2603(4)
O14_3 O 0.2728(3) 0.9624(2) 0.3345(5)
O15_2 O 0.5837(3) 0.7551(2) 0.4828(4)
N2_3 N 0.4856(3) 0.8611(2) 0.4713(4)
C8_3 C 0.3232(4) 0.9140(2) 0.3437(5)
C9_3 C 0.4348(3) 0.9129(2) 0.4656(5)
C10_2 C 0.4812(4) 0.9631(2) 0.5639(5)
H20_2 H 0.4432 0.9976 0.5586
C11_3 C 0.5847(4) 0.9606(3) 0.6694(6)
H21_3 H 0.6178 0.9940 0.7351
C12_3 C 0.6390(4) 0.9070(3) 0.6758(5)
H22_3 H 0.7088 0.9043 0.7453
C13_3 C 0.5863(4) 0.8579(2) 0.5760(5)
C14_3 C 0.6378(4) 0.7968(2) 0.5780(5)
O18_2 O 0.0562(4) 0.9575(2) 0.3250(4)
H11_3 H 0.2662 0.8321 0.9976
H12_3 H 0.2133 0.7733 0.9673
La5_2 La 0.108050(15) 0.983049(12) 0.716152(18)
C1_3 C 0.9794(4) 0.1638(2) 0.1565(5)
C2_3 C 0.9695(3) 0.1630(2) 0.0347(5)
H15_3 H 0.4258 0.2444 0.0475
C10_3 C 0.4812(4) 0.0369(2) 0.0639(5)
H20_3 H 0.4432 0.0024 0.0586
C11_4 C 0.5847(4) 0.0394(3) 0.1694(6)
H21_4 H 0.6178 0.0060 0.2351
C12_4 C 0.6390(4) 0.0930(3) 0.1758(5)
H22_4 H 0.7088 0.0957 0.2453
C13_4 C 0.5863(4) 0.1421(2) 0.0760(5)
C14_4 C 0.6378(4) 0.2032(2) 0.0780(5)
O2_4 O 0.0840(3) 0.1112(2) 0.6443(4)
H3_4 H 0.0578 0.1139 0.6803
H4_4 H 0.1103 0.1500 0.6469
O5_4 O 0.4651(4) 0.1414(2) 0.7332(4)
H9_4 H 0.4696 0.1027 0.7608
H10_4 H 0.4435 0.1399 0.6550
O6_4 O 0.2515(3) 0.1979(2) 0.5270(4)
H11_4 H 0.2662 0.1679 0.4976
H12_4 H 0.2133 0.2267 0.4673
O7_4 O 0.4389(3) 0.3612(2) 0.8543(4)
H13_4 H 0.3944 0.3813 0.7810
H14_4 H 0.4626 0.3885 0.9183
O8_4 O 0.3849(4) 0.2585(2) 0.9681(4)
H16_4 H 0.3648 0.2969 0.9655
O13_4 O 0.2885(3) 0.1334(2) 0.7603(4)
O14_4 O 0.2728(3) 0.0376(2) 0.8345(5)
O15_3 O 0.5837(3) 0.2449(2) 0.9828(4)
N2_4 N 0.4856(3) 0.1389(2) 0.9713(4)
C8_4 C 0.3232(4) 0.0860(2) 0.8437(5)
C9_4 C 0.4348(3) 0.0871(2) 0.9656(5)
O1_4 O 0.2242(3) 0.9483(2) 0.9721(4)
H1_4 H 0.2329 0.9070 0.9663
O3_4 O 0.2322(3) 0.8904(2) 0.7669(5)
H5_4 H 0.2236 0.8610 0.7162
H6_4 H 0.2875 0.8870 0.8447
O10_4 O 0.0276(3) 0.8838(2) 0.7400(4)
O12_4 O 0.1004(3) 0.99465(19) 0.5174(4)
N1_4 N 0.0142(3) 0.8888(2) 0.5278(4)
C6_4 C 0.0096(4) 0.8922(2) 0.4235(5)
C7_4 C 0.0596(4) 0.9532(3) 0.4216(5)
H7_3 H 0.8727 0.9880 0.4606
C1_4 C 0.9794(4) 0.8362(2) 0.6565(5)
C2_4 C 0.9695(3) 0.8370(2) 0.5347(5)
C3_3 C 0.9167(4) 0.7870(2) 0.4354(5)
H17_3 H 0.8839 0.7525 0.4404
C4_3 C 0.9145(4) 0.7904(3) 0.3294(5)
H18_3 H 0.8809 0.7575 0.2625
C5_3 C 0.9628(4) 0.8431(3) 0.3239(5)
H19_3 H 0.9638 0.8456 0.2551
O15_4 O 0.0837(3) 0.7449(2) 0.9828(4)
H2_3 H 0.7550 0.4588 0.0526
H15_4 H 0.9258 0.7444 0.0475
C10_4 C 0.9812(4) 0.5369(2) 0.0639(5)
H20_4 H 0.9432 0.5024 0.0586
H7_4 H 0.8727 0.0120 0.9606
C3_4 C 0.9167(4) 0.2130(2) 0.9354(5)
H17_4 H 0.8839 0.2475 0.9404
C4_4 C 0.9145(4) 0.2096(3) 0.8294(5)
H18_4 H 0.8809 0.2425 0.7625
C5_4 C 0.9628(4) 0.1569(3) 0.8239(5)
H19_4 H 0.9638 0.1544 0.7551
O4_3 O 0.9171(3) 0.9918(2) 0.0320(5)
H8_3 H 0.8952 0.9541 0.0320
H2_4 H 0.2550 0.9588 0.0526
O4_4 O 0.9171(3) 0.0082(2) 0.5320(5)
H8_4 H 0.8952 0.0459 0.5320
Fe1 Fe 0.12500(6) 0.62499(4) 0.50012(8)
N3 N 0.0577(5) 0.4861(3) 0.3795(6)
N4 N 0.2715(4) 0.5639(3) 0.7780(5)
N5 N 0.2999(4) 0.6251(3) 0.5008(5)
N6 N 0.1793(5) 0.7642(3) 0.6228(7)
N8 N 0.0153(4) 0.6246(3) 0.4983(6)
C15 C 0.0851(4) 0.5387(3) 0.4263(5)
C16 C 0.2145(4) 0.5876(3) 0.6730(5)
C17 C 0.2338(4) 0.6254(3) 0.4991(6)
C18 C 0.1590(4) 0.7111(3) 0.5748(5)
C19 C 0.0415(4) 0.6628(3) 0.3266(5)
O20 O 0.9494(4) 0.6246(3) 0.4996(6)
N7 N 0.9939(5) 0.6862(3) 0.2225(5)
Fe1_2 Fe 0.12500(6) 0.37501(4) 0.00012(8)
N4_2 N 0.2715(4) 0.4361(3) 0.2780(5)
N5_2 N 0.2999(4) 0.3749(3) 0.0008(5)
N6_2 N 0.1793(5) 0.2358(3) 0.1228(7)
C16_2 C 0.2145(4) 0.4124(3) 0.1730(5)
C18_2 C 0.1590(4) 0.2889(3) 0.0748(5)
N3_2 N 0.0577(5) 0.5139(3) 0.8795(6)
N8_2 N 0.0153(4) 0.3754(3) 0.9983(6)
C15_2 C 0.0851(4) 0.4613(3) 0.9263(5)
C17_2 C 0.2338(4) 0.3746(3) 0.9991(6)
C19_2 C 0.0415(4) 0.3372(3) 0.8266(5)
O20_2 O 0.9494(4) 0.3754(3) 0.9996(6)
N7_2 N 0.9939(5) 0.3138(3) 0.7225(5)
Fe1_3 Fe 0.62500(6) 0.12499(4) 0.50012(8)
O20_3 O 0.4494(4) 0.1246(3) 0.4996(6)
N4_3 N 0.7715(4) 0.0639(3) 0.7780(5)
N5_3 N 0.7999(4) 0.1251(3) 0.5008(5)
N6_3 N 0.6793(5) 0.2642(3) 0.6228(7)
N7_3 N 0.4939(5) 0.1862(3) 0.2225(5)
N8_3 N 0.5153(4) 0.1246(3) 0.4983(6)
C15_3 C 0.5851(4) 0.0387(3) 0.4263(5)
C16_3 C 0.7145(4) 0.0876(3) 0.6730(5)
C17_3 C 0.7338(4) 0.1254(3) 0.4991(6)
C18_3 C 0.6590(4) 0.2111(3) 0.5748(5)
C19_3 C 0.5415(4) 0.1628(3) 0.3266(5)
N3_3 N 0.5577(5) 0.9861(3) 0.3795(6)
N3_4 N 0.5577(5) 0.0139(3) 0.8795(6)
Fe1_4 Fe 0.62500(6) 0.87501(4) 0.00012(8)
N4_4 N 0.7715(4) 0.9361(3) 0.2780(5)
N5_4 N 0.7999(4) 0.8749(3) 0.0008(5)
N6_4 N 0.6793(5) 0.7358(3) 0.1228(7)
C16_4 C 0.7145(4) 0.9124(3) 0.1730(5)
C18_4 C 0.6590(4) 0.7889(3) 0.0748(5)
O20_4 O 0.4494(4) 0.8754(3) 0.9996(6)
N7_4 N 0.4939(5) 0.8138(3) 0.7225(5)
N8_4 N 0.5153(4) 0.8754(3) 0.9983(6)
C15_4 C 0.5851(4) 0.9613(3) 0.9263(5)
C17_4 C 0.7338(4) 0.8746(3) 0.9991(6)
C19_4 C 0.5415(4) 0.8372(3) 0.8266(5)
loop_
_geom_bond_atom_site_label_1
_geom_bond_atom_site_label_2
_geom_bond_site_symmetry_1
_geom_bond_site_symmetry_2
O16 C14 1_555 1_555
H21 C11 1_555 1_555
C12 C11 1_555 1_555
H22 C12 1_555 1_555
C14 O15 1_555 1_555
La4 O16 1_555 1_555
C12 C13 1_555 1_555
C13 C14 1_555 1_555
La1 O5 1_555 1_555
La2 O1 1_555 1_555
O1 H1 1_555 1_555
H2 O1 1_555 1_555
O2 La2 1_555 1_555
H3 O2 1_555 1_555
H4 O2 1_555 1_555
O3 La2 1_555 1_555
H5 O3 1_555 1_555
H6 O3 1_555 1_555
O4 La2 1_555 1_555
H8 O4 1_555 1_555
O5 H9 1_555 1_555
H10 O5 1_555 1_555
O6 La1 1_555 1_555
O7 La1 1_555 1_555
H13 O7 1_555 1_555
H14 O7 1_555 1_555
O8 La1 1_555 1_555
H15 O8 1_555 1_555
H16 O8 1_555 1_555
O9 C1 1_555 1_555
O10 La2 1_555 1_555
O12 La2 1_555 1_555
O13 La1 1_555 1_555
O14 La2 1_555 1_555
N1 La2 1_555 1_555
N2 La1 1_555 1_555
C1 O10 1_555 1_555
C2 N1 1_555 1_555
C8 O13 1_555 1_555
C9 N2 1_555 1_555
C10 C9 1_555 1_555
H20 C10 1_555 1_555
La3 O9 1_555 1_555
O17 La1 1_555 1_555
O18 La2 1_555 1_555
O19 La1 1_555 1_555
O14 C8 1_555 1_555
C1 C2 1_555 1_555
C8 C9 1_555 1_555
O11 C7 1_555 1_555
H17 C3 1_555 1_555
C4 C3 1_555 1_555
H18 C4 1_555 1_555
C5 C4 1_555 1_555
H19 C5 1_555 1_555
La5 O11 1_555 1_555
C5 C6 1_555 1_555
C6 C7 1_555 1_555
O16_2 C14_2 1_555 1_555
H21_2 C11_2 1_555 1_555
C12_2 C11_2 1_555 1_555
H22_2 C12_2 1_555 1_555
La3 O16_2 1_555 1_555
C12_2 C13_2 1_555 1_555
C13_2 C14_2 1_555 1_555
La1_2 O5_2 1_555 1_555
La5 O1_2 1_555 1_555
O1_2 H1_2 1_555 1_555
O2_2 La5 1_555 1_555
H3_2 O2_2 1_555 1_555
H4_2 O2_2 1_555 1_555
O3_2 La5 1_555 1_555
H5_2 O3_2 1_555 1_555
H6_2 O3_2 1_555 1_555
O4_2 La5 1_555 1_555
H7_2 O4_2 1_555 1_555
H8_2 O4_2 1_555 1_555
O5_2 H9_2 1_555 1_555
H10_2 O5_2 1_555 1_555
O6_2 La1_2 1_555 1_555
H11_2 O6_2 1_555 1_555
H12_2 O6_2 1_555 1_555
O7_2 La1_2 1_555 1_555
H13_2 O7_2 1_555 1_555
H14_2 O7_2 1_555 1_555
O8_2 La1_2 1_555 1_555
H16_2 O8_2 1_555 1_555
O9_2 C1_2 1_555 1_555
O10_2 La5 1_555 1_555
O18 C7_2 1_555 1_555
O12_2 La5 1_555 1_555
O13_2 La1_2 1_555 1_555
O14_2 La5 1_555 1_555
N1_2 La5 1_555 1_555
N2_2 La1_2 1_555 1_555
C1_2 O10_2 1_555 1_555
C2_2 N1_2 1_555 1_555
C3_2 C2_2 1_555 1_555
H17_2 C3_2 1_555 1_555
C4_2 C3_2 1_555 1_555
H18_2 C4_2 1_555 1_555
C5_2 C4_2 1_555 1_555
H19_2 C5_2 1_555 1_555
C6_2 N1_2 1_555 1_555
C7_2 O12_2 1_555 1_555
C8_2 O13_2 1_555 1_555
C9_2 N2_2 1_555 1_555
La4 O9_2 1_555 1_555
O17_2 La1_2 1_555 1_555
O19_2 La1_2 1_555 1_555
O14_2 C8_2 1_555 1_555
C1_2 C2_2 1_555 1_555
C5_2 C6_2 1_555 1_555
C6_2 C7_2 1_555 1_555
C8_2 C9_2 1_555 1_555
La2_2 O1_3 1_555 1_555
O1_3 H1_3 1_555 1_555
H2_2 O1_3 1_555 1_555
O3_3 La2_2 1_555 1_555
H5_3 O3_3 1_555 1_555
H6_3 O3_3 1_555 1_555
O10_3 La2_2 1_555 1_555
O12_3 La2_2 1_555 1_555
N1_3 La2_2 1_555 1_555
O11_2 C7_3 1_555 1_555
C6_3 C7_3 1_555 1_555
La3 O5_3 1_555 1_555
H3_3 O2_3 1_555 1_555
H4_3 O2_3 1_555 1_555
O5_3 H9_3 1_555 1_555
H10_3 O5_3 1_555 1_555
O6_3 La3 1_555 1_555
O7_3 La3 1_555 1_555
H13_3 O7_3 1_555 1_555
H14_3 O7_3 1_555 1_555
O8_3 La3 1_555 1_555
H15_2 O8_3 1_555 1_555
H16_3 O8_3 1_555 1_555
O13_3 La3 1_555 1_555
O15_2 La3 1_555 1_555
O19_2 C14_3 1_555 1_555
N2_3 La3 1_555 1_555
C8_3 O13_3 1_555 1_555
C9_3 N2_3 1_555 1_555
C10_2 C9_3 1_555 1_555
H20_2 C10_2 1_555 1_555
C11_3 C10_2 1_555 1_555
H21_3 C11_3 1_555 1_555
C12_3 C11_3 1_555 1_555
H22_3 C12_3 1_555 1_555
C13_3 N2_3 1_555 1_555
C14_3 O15_2 1_555 1_555
O14_3 C8_3 1_555 1_555
C8_3 C9_3 1_555 1_555
C12_3 C13_3 1_555 1_555
C13_3 C14_3 1_555 1_555
O17 C1_3 1_555 1_555
C1_3 C2_3 1_555 1_555
O19 C14_4 1_555 1_555
H20_3 C10_3 1_555 1_555
C11_4 C10_3 1_555 1_555
H21_4 C11_4 1_555 1_555
C12_4 C11_4 1_555 1_555
H22_4 C12_4 1_555 1_555
C12_4 C13_4 1_555 1_555
C13_4 C14_4 1_555 1_555
La4 O5_4 1_555 1_555
H3_4 O2_4 1_555 1_555
H4_4 O2_4 1_555 1_555
O5_4 H9_4 1_555 1_555
H10_4 O5_4 1_555 1_555
O6_4 La4 1_555 1_555
H11_4 O6_4 1_555 1_555
H12_4 O6_4 1_555 1_555
O7_4 La4 1_555 1_555
H13_4 O7_4 1_555 1_555
H14_4 O7_4 1_555 1_555
O8_4 La4 1_555 1_555
H16_4 O8_4 1_555 1_555
O13_4 La4 1_555 1_555
O15_3 La4 1_555 1_555
N2_4 La4 1_555 1_555
C8_4 O13_4 1_555 1_555
C9_4 N2_4 1_555 1_555
O14_4 C8_4 1_555 1_555
C8_4 C9_4 1_555 1_555
La5_2 O1_4 1_555 1_555
O1_4 H1_4 1_555 1_555
O3_4 La5_2 1_555 1_555
H5_4 O3_4 1_555 1_555
H6_4 O3_4 1_555 1_555
O10_4 La5_2 1_555 1_555
O18_2 C7_4 1_555 1_555
O12_4 La5_2 1_555 1_555
N1_4 La5_2 1_555 1_555
C6_4 N1_4 1_555 1_555
C7_4 O12_4 1_555 1_555
C6_4 C7_4 1_555 1_555
O17_2 C1_4 1_555 1_555
C3_3 C2_4 1_555 1_555
H17_3 C3_3 1_555 1_555
C4_3 C3_3 1_555 1_555
H18_3 C4_3 1_555 1_555
C5_3 C4_3 1_555 1_555
H19_3 C5_3 1_555 1_555
C1_4 C2_4 1_555 1_555
H20_4 C10_4 1_555 1_555
H17_4 C3_4 1_555 1_555
C4_4 C3_4 1_555 1_555
H18_4 C4_4 1_555 1_555
C5_4 C4_4 1_555 1_555
H19_4 C5_4 1_555 1_555
H8_3 O4_3 1_555 1_555
H8_4 O4_4 1_555 1_555
Fe1 N8 1_555 1_555
N3 C15 1_555 1_555
N4 C16 1_555 1_555
N5 C17 1_555 1_555
N6 C18 1_555 1_555
C15 Fe1 1_555 1_555
C16 Fe1 1_555 1_555
C17 Fe1 1_555 1_555
C18 Fe1 1_555 1_555
C19 Fe1 1_555 1_555
N4_2 C16_2 1_555 1_555
N6_2 C18_2 1_555 1_555
C16_2 Fe1_2 1_555 1_555
C18_2 Fe1_2 1_555 1_555
N3_2 C15_2 1_555 1_555
Fe1_3 N8_3 1_555 1_555
O20_3 N8_3 1_555 1_555
N4_3 C16_3 1_555 1_555
N5_3 C17_3 1_555 1_555
N6_3 C18_3 1_555 1_555
N7_3 C19_3 1_555 1_555
C15_3 Fe1_3 1_555 1_555
C16_3 Fe1_3 1_555 1_555
C17_3 Fe1_3 1_555 1_555
C18_3 Fe1_3 1_555 1_555
C19_3 Fe1_3 1_555 1_555
N4_4 C16_4 1_555 1_555
N6_4 C18_4 1_555 1_555
C16_4 Fe1_4 1_555 1_555
C18_4 Fe1_4 1_555 1_555
O20_4 N8_4 1_555 1_555
N7_4 C19_4 1_555 1_555

#END
