
###############################################################################
#
# This file contains modified crystal structure data generated from the
# MOF subset of the Cambridge Structural Database (CSD) v543 
# hosted by the Cambridge Crystallographic Data Centre (CCDC).
#
# This work is licensed under the Creative Commons
# Attribution-NonCommercial-ShareAlike 4.0 International License.
# To view a copy of this license, visit
# http://creativecommons.org/licenses/by-nc-sa/4.0/
# or send a letter to
# Creative Commons, PO Box 1866, Mountain View, CA 94042, USA.
#
# CIF created using the CSD Python API on 29 September 2022
# The structure has been converted into the P1 space group
# The structure has a 3D framework
# The original CSD entry BUWMIR is in the monoclinic crystal system
# The framework has been calculated to contain at least 10.0% void space
# The void calculation uses a probe of radius 1.32A, grid spacing 0.4
# The framework is charged, counterions have been retained in the structure
#
###############################################################################

data_BUWMIR
_chemical_formula_moiety         '(C78 H88 Ce8 Fe4 N32 O68)n'
_symmetry_cell_setting           triclinic
_symmetry_space_group_name_H-M   'P 1'
_symmetry_Int_Tables_number      1
_space_group_name_Hall           'P 1'
loop_
_symmetry_equiv_pos_site_id
_symmetry_equiv_pos_as_xyz
1 x,y,z
_cell_length_a                   17.629(2)
_cell_length_b                   19.797(3)
_cell_length_c                   13.2566(18)
_cell_angle_alpha                90
_cell_angle_beta                 131.7000(10)
_cell_angle_gamma                90
_cell_volume                     3454.37
loop_
_atom_site_label
_atom_site_type_symbol
_atom_site_fract_x
_atom_site_fract_y
_atom_site_fract_z
Ce1 Ce 0.392367(11) 0.017377(9) 0.284683(13)
O1 O 0.47184(18) 0.11577(14) 0.2593(2)
O2 O 0.5607(2) 0.21254(15) 0.3324(3)
O3 O 0.3979(2) 0.00464(14) 0.4808(3)
O4 O 0.4427(2) 0.04140(16) 0.6745(3)
N1 N 0.4853(2) 0.11131(15) 0.4712(3)
C1 C 0.5306(2) 0.16279(17) 0.4649(3)
C2 C 0.5831(3) 0.21266(18) 0.5638(4)
H1 H 0.6164 0.2471 0.5590
C3 C 0.5848(3) 0.2099(2) 0.6697(4)
H2 H 0.6179 0.2432 0.7360
C4 C 0.5362(3) 0.15661(19) 0.6755(3)
H3 H 0.5355 0.1539 0.7449
C5 C 0.4891(2) 0.10782(17) 0.5757(3)
C6 C 0.5199(2) 0.16391(18) 0.3418(3)
C7 C 0.4393(3) 0.04646(18) 0.5773(3)
O9 O 0.2683(2) 0.10846(16) 0.2351(3)
H7 H 0.2723 0.1195 0.2986
H8 H 0.2100 0.1135 0.1608
O10 O 0.2752(2) 0.05305(16) 0.0299(3)
H9 H 0.2254 0.0387 0.0171
H13 H 0.6330 0.0137 0.5315
Ce4 Ce 0.607518(11) 0.267378(9) 0.215200(14)
Ce2 Ce 0.107518(11) 0.767378(9) 0.215200(14)
O5 O 0.21291(18) 0.86543(14) 0.2410(2)
O6 O 0.2285(2) 0.96230(15) 0.1674(3)
N2 N 0.0139(2) 0.86069(15) 0.0282(3)
C8 C 0.0661(2) 0.91237(17) 0.0352(3)
C13 C 0.1785(2) 0.91354(18) 0.1578(3)
O11 O 0.4173(2) 0.88951(14) 0.3544(3)
H11 H 0.3862 0.8591 0.3566
H12 H 0.4773 0.8918 0.4264
O12 O 0.5825(2) 0.99273(16) 0.4660(3)
H14 H 0.5990 0.9538 0.4631
O13 O 0.2446(2) 0.80273(16) 0.4700(3)
H15 H 0.3022 0.7967 0.4973
H16 H 0.2468 0.8133 0.5324
O14 O 0.0337(2) 0.85875(16) 0.2654(3)
H18 H 0.0387 0.8589 0.3318
O15 O 0.0624(2) 0.63946(15) 0.1451(3)
H19 H 0.0797 0.6009 0.1425
H20 H 0.0417 0.6389 0.1863
O16 O 0.1154(2) 0.74248(16) 0.0327(3)
H22 H 0.1491 0.7076 0.0527
Ce3 Ce 0.392367(11) 0.982623(9) 0.784683(13)
O17 O 0.0607(2) 0.71254(15) 0.3324(3)
O18 O 0.4427(2) 0.95860(16) 0.1745(3)
O19 O 0.26789(19) 0.70854(16) 0.3251(3)
O8 O 0.76789(19) 0.79146(16) 0.8251(3)
C10 C 0.9155(3) 0.9596(2) 0.8305(4)
H5 H 0.8823 0.9927 0.7638
C11 C 0.8611(3) 0.90679(19) 0.8245(3)
H6 H 0.7909 0.9043 0.7553
C12 C 0.9137(2) 0.85776(18) 0.9239(3)
C14 C 0.8624(2) 0.79608(18) 0.9228(3)
Ce5 Ce 0.607518(11) 0.732622(9) 0.715200(14)
H16_2 H 0.2468 0.1867 0.0324
Ce2_2 Ce 0.107518(11) 0.232622(9) 0.715200(14)
O5_2 O 0.21291(18) 0.13457(14) 0.7410(2)
O6_2 O 0.2285(2) 0.03770(15) 0.6674(3)
N2_2 N 0.0139(2) 0.13931(15) 0.5282(3)
C8_2 C 0.0661(2) 0.08763(17) 0.5352(3)
C9 C 0.0194(3) 0.03710(19) 0.4361(3)
H4 H 0.0574 0.0023 0.4412
C13_2 C 0.1785(2) 0.08646(18) 0.6578(3)
O11_2 O 0.4173(2) 0.11049(14) 0.8544(3)
H11_2 H 0.3862 0.1409 0.8566
H12_2 H 0.4773 0.1082 0.9264
O12_2 O 0.5825(2) 0.00727(16) 0.9660(3)
H14_2 H 0.5990 0.0462 0.9631
O13_2 O 0.2446(2) 0.19727(16) 0.9700(3)
H15_2 H 0.3022 0.2033 0.9973
O14_2 O 0.0337(2) 0.14125(16) 0.7654(3)
H18_2 H 0.0387 0.1411 0.8318
O15_2 O 0.0624(2) 0.36054(15) 0.6451(3)
H19_2 H 0.0797 0.3991 0.6425
H20_2 H 0.0417 0.3611 0.6863
O16_2 O 0.1154(2) 0.25752(16) 0.5327(3)
H21 H 0.0823 0.2340 0.4576
H22_2 H 0.1491 0.2924 0.5527
O17_2 O 0.0607(2) 0.28746(15) 0.8324(3)
O19_2 O 0.26789(19) 0.29146(16) 0.8251(3)
C2_2 C 0.5831(3) 0.78734(18) 0.0638(4)
H1_2 H 0.6164 0.7529 0.0590
C3_2 C 0.5848(3) 0.7901(2) 0.1697(4)
H2_2 H 0.6179 0.7568 0.2360
C4_2 C 0.5362(3) 0.84339(19) 0.1755(3)
H3_2 H 0.5355 0.8461 0.2449
C5_2 C 0.4891(2) 0.89218(17) 0.0757(3)
C7_2 C 0.4393(3) 0.95354(18) 0.0773(3)
H13_2 H 0.6330 0.9863 0.0315
O1_2 O 0.47184(18) 0.88423(14) 0.7593(2)
O2_2 O 0.5607(2) 0.78746(15) 0.8324(3)
O3_2 O 0.3979(2) 0.99536(14) 0.9808(3)
N1_2 N 0.4853(2) 0.88869(15) 0.9712(3)
C1_2 C 0.5306(2) 0.83721(17) 0.9649(3)
C6_2 C 0.5199(2) 0.83609(18) 0.8418(3)
O9_2 O 0.2683(2) 0.89154(16) 0.7351(3)
H7_2 H 0.2723 0.8805 0.7986
H8_2 H 0.2100 0.8865 0.6608
O10_2 O 0.2752(2) 0.94695(16) 0.5299(3)
H9_2 H 0.2254 0.9613 0.5171
H10 H 0.2812 0.9650 0.4793
O7 O 0.91712(18) 0.24512(14) 0.5187(3)
O8_2 O 0.76789(19) 0.20854(16) 0.3251(3)
C10_2 C 0.9155(3) 0.0404(2) 0.3305(4)
H5_2 H 0.8823 0.0073 0.2638
C11_2 C 0.8611(3) 0.09321(19) 0.3245(3)
H6_2 H 0.7909 0.0957 0.2553
C12_2 C 0.9137(2) 0.14224(18) 0.4239(3)
C14_2 C 0.8624(2) 0.20392(18) 0.4228(3)
H17 H 0.9763 0.1299 0.6953
C1_3 C 0.0306(2) 0.66279(17) 0.4649(3)
C2_3 C 0.0831(3) 0.71266(18) 0.5638(4)
H1_3 H 0.1164 0.7471 0.5590
C3_3 C 0.0848(3) 0.7099(2) 0.6697(4)
H2_3 H 0.1179 0.7432 0.7360
C4_3 C 0.0362(3) 0.65661(19) 0.6755(3)
H3_3 H 0.0355 0.6539 0.7449
C6_3 C 0.0199(2) 0.66391(18) 0.3418(3)
O12_3 O 0.0825(2) 0.49273(16) 0.4660(3)
H13_3 H 0.1330 0.5137 0.5315
H14_3 H 0.0990 0.4538 0.4631
Ce1_2 Ce 0.892367(11) 0.517377(9) 0.284683(13)
O1_3 O 0.97184(18) 0.61577(14) 0.2593(2)
O3_3 O 0.8979(2) 0.50464(14) 0.4808(3)
O4_2 O 0.9427(2) 0.54140(16) 0.6745(3)
O5_3 O 0.71291(18) 0.36543(14) 0.2410(2)
O6_3 O 0.7285(2) 0.46230(15) 0.1674(3)
O7_2 O 0.41712(18) 0.25488(14) 0.0187(3)
N1_3 N 0.9853(2) 0.61131(15) 0.4712(3)
N2_3 N 0.5139(2) 0.36069(15) 0.0282(3)
C5_3 C 0.9891(2) 0.60782(17) 0.5757(3)
C7_3 C 0.9393(3) 0.54646(18) 0.5773(3)
C8_3 C 0.5661(2) 0.41237(17) 0.0352(3)
C13_3 C 0.6785(2) 0.41354(18) 0.1578(3)
O9_3 O 0.7683(2) 0.60846(16) 0.2351(3)
H7_3 H 0.7723 0.6195 0.2986
H8_3 H 0.7100 0.6135 0.1608
O10_3 O 0.7752(2) 0.55305(16) 0.0299(3)
H9_3 H 0.7254 0.5387 0.0171
O11_3 O 0.9173(2) 0.38951(14) 0.3544(3)
H11_3 H 0.8862 0.3591 0.3566
H12_3 H 0.9773 0.3918 0.4264
O13_3 O 0.7446(2) 0.30273(16) 0.4700(3)
H15_3 H 0.8022 0.2967 0.4973
H16_3 H 0.7468 0.3133 0.5324
O14_3 O 0.5337(2) 0.35875(16) 0.2654(3)
H17_2 H 0.4763 0.3701 0.1953
H18_3 H 0.5387 0.3589 0.3318
O15_3 O 0.5624(2) 0.13946(15) 0.1451(3)
H19_3 H 0.5797 0.1009 0.1425
H20_3 H 0.5417 0.1389 0.1863
O16_3 O 0.6154(2) 0.24248(16) 0.0327(3)
H22_3 H 0.6491 0.2076 0.0527
Ce3_2 Ce 0.892367(11) 0.482623(9) 0.784683(13)
O18_2 O 0.9427(2) 0.45860(16) 0.1745(3)
C9_2 C 0.5194(3) 0.46290(19) 0.9361(3)
H4_2 H 0.5574 0.4977 0.9412
C10_3 C 0.4155(3) 0.4596(2) 0.8305(4)
H5_3 H 0.3823 0.4927 0.7638
C11_3 C 0.3611(3) 0.40679(19) 0.8245(3)
H6_3 H 0.2909 0.4043 0.7553
C12_3 C 0.4137(2) 0.35776(18) 0.9239(3)
C14_3 C 0.3624(2) 0.29608(18) 0.9228(3)
H10_2 H 0.7812 0.5350 0.9793
H21_2 H 0.5823 0.2660 0.9576
C1_4 C 0.0306(2) 0.33721(17) 0.9649(3)
C6_4 C 0.0199(2) 0.33609(18) 0.8418(3)
O12_4 O 0.0825(2) 0.50727(16) 0.9660(3)
H14_4 H 0.0990 0.5462 0.9631
C5_4 C 0.9891(2) 0.39218(17) 0.0757(3)
C7_4 C 0.9393(3) 0.45354(18) 0.0773(3)
H16_4 H 0.7468 0.6867 0.0324
O1_4 O 0.97184(18) 0.38423(14) 0.7593(2)
O3_4 O 0.8979(2) 0.49536(14) 0.9808(3)
O5_4 O 0.71291(18) 0.63457(14) 0.7410(2)
O6_4 O 0.7285(2) 0.53770(15) 0.6674(3)
O7_3 O 0.41712(18) 0.74512(14) 0.5187(3)
N1_4 N 0.9853(2) 0.38869(15) 0.9712(3)
N2_4 N 0.5139(2) 0.63931(15) 0.5282(3)
C8_4 C 0.5661(2) 0.58763(17) 0.5352(3)
C9_3 C 0.5194(3) 0.53710(19) 0.4361(3)
H4_3 H 0.5574 0.5023 0.4412
C10_4 C 0.4155(3) 0.5404(2) 0.3305(4)
H5_4 H 0.3823 0.5073 0.2638
C11_4 C 0.3611(3) 0.59321(19) 0.3245(3)
H6_4 H 0.2909 0.5957 0.2553
C12_4 C 0.4137(2) 0.64224(18) 0.4239(3)
C13_4 C 0.6785(2) 0.58646(18) 0.6578(3)
C14_4 C 0.3624(2) 0.70392(18) 0.4228(3)
O9_4 O 0.7683(2) 0.39154(16) 0.7351(3)
H7_4 H 0.7723 0.3805 0.7986
H8_4 H 0.7100 0.3865 0.6608
O10_4 O 0.7752(2) 0.44695(16) 0.5299(3)
H9_4 H 0.7254 0.4613 0.5171
H10_3 H 0.7812 0.4650 0.4793
O11_4 O 0.9173(2) 0.61049(14) 0.8544(3)
H11_4 H 0.8862 0.6409 0.8566
H12_4 H 0.9773 0.6082 0.9264
O13_4 O 0.7446(2) 0.69727(16) 0.9700(3)
H15_4 H 0.8022 0.7033 0.9973
O14_4 O 0.5337(2) 0.64125(16) 0.7654(3)
H17_3 H 0.4763 0.6299 0.6953
H18_4 H 0.5387 0.6411 0.8318
O15_4 O 0.5624(2) 0.86054(15) 0.6451(3)
H19_4 H 0.5797 0.8991 0.6425
H20_4 H 0.5417 0.8611 0.6863
O16_4 O 0.6154(2) 0.75752(16) 0.5327(3)
H21_3 H 0.5823 0.7340 0.4576
H22_4 H 0.6491 0.7924 0.5527
H10_4 H 0.2812 0.0350 0.9793
C9_4 C 0.0194(3) 0.96290(19) 0.9361(3)
H4_4 H 0.0574 0.9977 0.9412
H21_4 H 0.0823 0.7660 0.9576
O7_4 O 0.91712(18) 0.75488(14) 0.0187(3)
H17_4 H 0.9763 0.8701 0.1953
C2_4 C 0.0831(3) 0.28734(18) 0.0638(4)
H1_4 H 0.1164 0.2529 0.0590
C3_4 C 0.0848(3) 0.2901(2) 0.1697(4)
H2_4 H 0.1179 0.2568 0.2360
C4_4 C 0.0362(3) 0.34339(19) 0.1755(3)
H3_4 H 0.0355 0.3461 0.2449
H13_4 H 0.1330 0.4863 0.0315
O20 O 0.0507(2) 0.8753(2) 0.4995(4)
N3 N 0.0066(3) 0.8142(2) 0.7780(3)
N4 N 0.9439(3) 0.0139(2) 0.6229(4)
Fe1 Fe 0.87486(4) 0.87484(3) 0.49979(5)
N5 N 0.7002(2) 0.8747(2) 0.5001(3)
N6 N 0.7285(3) 0.9360(2) 0.2223(4)
N7 N 0.8214(3) 0.73576(19) 0.3779(4)
N8 N 0.9849(3) 0.8754(2) 0.4992(4)
C15 C 0.9583(3) 0.8372(2) 0.6741(4)
C16 C 0.9158(3) 0.9615(2) 0.5749(4)
C17 C 0.7640(3) 0.8750(2) 0.5000(4)
C18 C 0.7842(3) 0.9127(2) 0.3258(4)
C19 C 0.8404(3) 0.7882(2) 0.4241(4)
N3_2 N 0.0066(3) 0.1858(2) 0.2780(3)
O20_2 O 0.0507(2) 0.1247(2) 0.9995(4)
N5_2 N 0.7002(2) 0.1253(2) 0.0001(3)
C15_2 C 0.9583(3) 0.1628(2) 0.1741(4)
C16_2 C 0.9158(3) 0.0385(2) 0.0749(4)
C17_2 C 0.7640(3) 0.1250(2) 0.0000(4)
Fe1_2 Fe 0.87486(4) 0.12516(3) 0.99979(5)
N6_2 N 0.7285(3) 0.0640(2) 0.7223(4)
N7_2 N 0.8214(3) 0.26424(19) 0.8779(4)
N8_2 N 0.9849(3) 0.1246(2) 0.9992(4)
C17_3 C 0.7640(3) 0.1250(2) 1.0000(4)
C18_2 C 0.7842(3) 0.0873(2) 0.8258(4)
C19_2 C 0.8404(3) 0.2118(2) 0.9241(4)
N4_2 N 0.9439(3) 0.9861(2) 0.1229(4)
Fe1_3 Fe 0.37486(4) 0.37484(3) 0.49979(5)
O20_3 O 0.5507(2) 0.3753(2) 0.4995(4)
N3_3 N 0.5066(3) 0.3142(2) 0.7780(3)
N4_3 N 0.4439(3) 0.5139(2) 0.6229(4)
N5_3 N 0.2002(2) 0.3747(2) 0.5001(3)
N6_3 N 0.2285(3) 0.4360(2) 0.2223(4)
N7_3 N 0.3214(3) 0.23576(19) 0.3779(4)
N8_3 N 0.4849(3) 0.3754(2) 0.4992(4)
C15_3 C 0.4583(3) 0.3372(2) 0.6741(4)
C16_3 C 0.4158(3) 0.4615(2) 0.5749(4)
C17_4 C 0.2640(3) 0.3750(2) 0.5000(4)
C18_3 C 0.2842(3) 0.4127(2) 0.3258(4)
C19_3 C 0.3404(3) 0.2882(2) 0.4241(4)
N3_4 N 0.5066(3) 0.6858(2) 0.2780(3)
N4_4 N 0.4439(3) 0.4861(2) 0.1229(4)
N5_4 N 0.2002(2) 0.6253(2) 0.0001(3)
C15_4 C 0.4583(3) 0.6628(2) 0.1741(4)
C16_4 C 0.4158(3) 0.5385(2) 0.0749(4)
C17_5 C 0.2640(3) 0.6250(2) 0.0000(4)
Fe1_4 Fe 0.37486(4) 0.62516(3) 0.99979(5)
O20_4 O 0.5507(2) 0.6247(2) 0.9995(4)
N6_4 N 0.2285(3) 0.5640(2) 0.7223(4)
N7_4 N 0.3214(3) 0.76424(19) 0.8779(4)
N8_4 N 0.4849(3) 0.6246(2) 0.9992(4)
C17_6 C 0.2640(3) 0.6250(2) 1.0000(4)
C18_4 C 0.2842(3) 0.5873(2) 0.8258(4)
C19_4 C 0.3404(3) 0.7118(2) 0.9241(4)
loop_
_geom_bond_atom_site_label_1
_geom_bond_atom_site_label_2
_geom_bond_site_symmetry_1
_geom_bond_site_symmetry_2
Ce1 O1 1_555 1_555
O1 C6 1_555 1_555
O2 C6 1_555 1_555
O3 Ce1 1_555 1_555
O4 C7 1_555 1_555
N1 Ce1 1_555 1_555
C1 N1 1_555 1_555
C2 C1 1_555 1_555
H1 C2 1_555 1_555
C3 C2 1_555 1_555
H2 C3 1_555 1_555
C4 C3 1_555 1_555
H3 C4 1_555 1_555
C5 N1 1_555 1_555
C6 C1 1_555 1_555
C7 O3 1_555 1_555
O9 Ce1 1_555 1_555
H7 O9 1_555 1_555
H8 O9 1_555 1_555
O10 Ce1 1_555 1_555
H9 O10 1_555 1_555
Ce4 O2 1_555 1_555
C4 C5 1_555 1_555
C5 C7 1_555 1_555
Ce2 O5 1_555 1_555
O5 C13 1_555 1_555
N2 Ce2 1_555 1_555
C8 N2 1_555 1_555
C13 O6 1_555 1_555
H11 O11 1_555 1_555
H12 O11 1_555 1_555
H14 O12 1_555 1_555
O13 Ce2 1_555 1_555
H15 O13 1_555 1_555
H16 O13 1_555 1_555
O14 Ce2 1_555 1_555
H18 O14 1_555 1_555
O15 Ce2 1_555 1_555
H19 O15 1_555 1_555
H20 O15 1_555 1_555
O16 Ce2 1_555 1_555
H22 O16 1_555 1_555
O17 Ce2 1_555 1_555
O19 Ce2 1_555 1_555
C8 C13 1_555 1_555
O8 C14 1_555 1_555
H5 C10 1_555 1_555
C11 C10 1_555 1_555
H6 C11 1_555 1_555
Ce5 O8 1_555 1_555
C11 C12 1_555 1_555
C12 C14 1_555 1_555
Ce2_2 O5_2 1_555 1_555
O5_2 C13_2 1_555 1_555
N2_2 Ce2_2 1_555 1_555
C8_2 N2_2 1_555 1_555
C9 C8_2 1_555 1_555
H4 C9 1_555 1_555
C13_2 O6_2 1_555 1_555
H11_2 O11_2 1_555 1_555
H12_2 O11_2 1_555 1_555
H14_2 O12_2 1_555 1_555
O13_2 Ce2_2 1_555 1_555
H15_2 O13_2 1_555 1_555
O14_2 Ce2_2 1_555 1_555
H18_2 O14_2 1_555 1_555
O15_2 Ce2_2 1_555 1_555
H19_2 O15_2 1_555 1_555
H20_2 O15_2 1_555 1_555
O16_2 Ce2_2 1_555 1_555
H21 O16_2 1_555 1_555
H22_2 O16_2 1_555 1_555
O17_2 Ce2_2 1_555 1_555
O19_2 Ce2_2 1_555 1_555
C8_2 C13_2 1_555 1_555
O18 C7_2 1_555 1_555
H1_2 C2_2 1_555 1_555
C3_2 C2_2 1_555 1_555
H2_2 C3_2 1_555 1_555
C4_2 C3_2 1_555 1_555
H3_2 C4_2 1_555 1_555
C4_2 C5_2 1_555 1_555
C5_2 C7_2 1_555 1_555
Ce3 O1_2 1_555 1_555
O1_2 C6_2 1_555 1_555
O2_2 C6_2 1_555 1_555
O3_2 Ce3 1_555 1_555
N1_2 Ce3 1_555 1_555
C1_2 N1_2 1_555 1_555
C6_2 C1_2 1_555 1_555
O9_2 Ce3 1_555 1_555
H7_2 O9_2 1_555 1_555
H8_2 O9_2 1_555 1_555
O10_2 Ce3 1_555 1_555
H9_2 O10_2 1_555 1_555
H10 O10_2 1_555 1_555
Ce5 O2_2 1_555 1_555
O8_2 C14_2 1_555 1_555
H5_2 C10_2 1_555 1_555
C11_2 C10_2 1_555 1_555
H6_2 C11_2 1_555 1_555
C14_2 O7 1_555 1_555
Ce4 O8_2 1_555 1_555
C11_2 C12_2 1_555 1_555
C12_2 C14_2 1_555 1_555
O17 C6_3 1_555 1_555
C2_3 C1_3 1_555 1_555
H1_3 C2_3 1_555 1_555
C3_3 C2_3 1_555 1_555
H2_3 C3_3 1_555 1_555
C4_3 C3_3 1_555 1_555
H3_3 C4_3 1_555 1_555
C6_3 C1_3 1_555 1_555
H13_3 O12_3 1_555 1_555
H14_3 O12_3 1_555 1_555
Ce1_2 O1_3 1_555 1_555
Ce4 O5_3 1_555 1_555
O3_3 Ce1_2 1_555 1_555
O4_2 C7_3 1_555 1_555
O5_3 C13_3 1_555 1_555
O6_3 Ce1_2 1_555 1_555
O7_2 Ce4 1_555 1_555
N1_3 Ce1_2 1_555 1_555
N2_3 Ce4 1_555 1_555
C5_3 N1_3 1_555 1_555
C7_3 O3_3 1_555 1_555
C8_3 N2_3 1_555 1_555
C13_3 O6_3 1_555 1_555
O9_3 Ce1_2 1_555 1_555
H7_3 O9_3 1_555 1_555
H8_3 O9_3 1_555 1_555
O10_3 Ce1_2 1_555 1_555
H9_3 O10_3 1_555 1_555
O11_3 Ce1_2 1_555 1_555
H11_3 O11_3 1_555 1_555
H12_3 O11_3 1_555 1_555
O13_3 Ce4 1_555 1_555
H15_3 O13_3 1_555 1_555
H16_3 O13_3 1_555 1_555
O14_3 Ce4 1_555 1_555
H17_2 O14_3 1_555 1_555
H18_3 O14_3 1_555 1_555
O15_3 Ce4 1_555 1_555
H19_3 O15_3 1_555 1_555
H20_3 O15_3 1_555 1_555
O16_3 Ce4 1_555 1_555
H22_3 O16_3 1_555 1_555
Ce3_2 O4_2 1_555 1_555
O18_2 Ce1_2 1_555 1_555
C5_3 C7_3 1_555 1_555
C8_3 C13_3 1_555 1_555
O19_2 C14_3 1_555 1_555
H4_2 C9_2 1_555 1_555
C10_3 C9_2 1_555 1_555
H5_3 C10_3 1_555 1_555
C11_3 C10_3 1_555 1_555
H6_3 C11_3 1_555 1_555
C11_3 C12_3 1_555 1_555
C12_3 C14_3 1_555 1_555
O17_2 C6_4 1_555 1_555
C6_4 C1_4 1_555 1_555
H14_4 O12_4 1_555 1_555
O18_2 C7_4 1_555 1_555
C5_4 C7_4 1_555 1_555
Ce3_2 O1_4 1_555 1_555
Ce5 O5_4 1_555 1_555
O3_4 Ce3_2 1_555 1_555
O5_4 C13_4 1_555 1_555
O6_4 Ce3_2 1_555 1_555
O7_3 Ce5 1_555 1_555
O19 C14_4 1_555 1_555
N1_4 Ce3_2 1_555 1_555
N2_4 Ce5 1_555 1_555
C8_4 N2_4 1_555 1_555
C9_3 C8_4 1_555 1_555
H4_3 C9_3 1_555 1_555
C10_4 C9_3 1_555 1_555
H5_4 C10_4 1_555 1_555
C11_4 C10_4 1_555 1_555
H6_4 C11_4 1_555 1_555
C12_4 N2_4 1_555 1_555
C13_4 O6_4 1_555 1_555
C14_4 O7_3 1_555 1_555
O9_4 Ce3_2 1_555 1_555
H7_4 O9_4 1_555 1_555
H8_4 O9_4 1_555 1_555
O10_4 Ce3_2 1_555 1_555
H9_4 O10_4 1_555 1_555
H10_3 O10_4 1_555 1_555
O11_4 Ce3_2 1_555 1_555
H11_4 O11_4 1_555 1_555
H12_4 O11_4 1_555 1_555
O13_4 Ce5 1_555 1_555
H15_4 O13_4 1_555 1_555
O14_4 Ce5 1_555 1_555
H17_3 O14_4 1_555 1_555
H18_4 O14_4 1_555 1_555
O15_4 Ce5 1_555 1_555
H19_4 O15_4 1_555 1_555
H20_4 O15_4 1_555 1_555
O16_4 Ce5 1_555 1_555
H21_3 O16_4 1_555 1_555
H22_4 O16_4 1_555 1_555
C8_4 C13_4 1_555 1_555
C11_4 C12_4 1_555 1_555
C12_4 C14_4 1_555 1_555
H4_4 C9_4 1_555 1_555
H1_4 C2_4 1_555 1_555
C3_4 C2_4 1_555 1_555
H2_4 C3_4 1_555 1_555
C4_4 C3_4 1_555 1_555
H3_4 C4_4 1_555 1_555
Fe1 N8 1_555 1_555
N5 C17 1_555 1_555
N6 C18 1_555 1_555
N7 C19 1_555 1_555
C15 Fe1 1_555 1_555
C16 Fe1 1_555 1_555
C17 Fe1 1_555 1_555
C18 Fe1 1_555 1_555
C19 Fe1 1_555 1_555
N5_2 C17_2 1_555 1_555
Fe1_2 N8_2 1_555 1_555
N6_2 C18_2 1_555 1_555
N7_2 C19_2 1_555 1_555
C17_3 Fe1_2 1_555 1_555
C18_2 Fe1_2 1_555 1_555
C19_2 Fe1_2 1_555 1_555
Fe1_3 N8_3 1_555 1_555
O20_3 N8_3 1_555 1_555
N3_3 C15_3 1_555 1_555
N4_3 C16_3 1_555 1_555
N5_3 C17_4 1_555 1_555
N6_3 C18_3 1_555 1_555
N7_3 C19_3 1_555 1_555
C15_3 Fe1_3 1_555 1_555
C16_3 Fe1_3 1_555 1_555
C17_4 Fe1_3 1_555 1_555
C18_3 Fe1_3 1_555 1_555
C19_3 Fe1_3 1_555 1_555
N3_4 C15_4 1_555 1_555
N4_4 C16_4 1_555 1_555
N5_4 C17_5 1_555 1_555
Fe1_4 N8_4 1_555 1_555
O20_4 N8_4 1_555 1_555
N6_4 C18_4 1_555 1_555
N7_4 C19_4 1_555 1_555
C17_6 Fe1_4 1_555 1_555
C18_4 Fe1_4 1_555 1_555
C19_4 Fe1_4 1_555 1_555

#END
