
###############################################################################
#
# This file contains modified crystal structure data generated from the
# MOF subset of the Cambridge Structural Database (CSD) v543 
# hosted by the Cambridge Crystallographic Data Centre (CCDC).
#
# This work is licensed under the Creative Commons
# Attribution-NonCommercial-ShareAlike 4.0 International License.
# To view a copy of this license, visit
# http://creativecommons.org/licenses/by-nc-sa/4.0/
# or send a letter to
# Creative Commons, PO Box 1866, Mountain View, CA 94042, USA.
#
# CIF created using the CSD Python API on 29 September 2022
# The structure has been converted into the P1 space group
# The structure has a 3D framework
# The original CSD entry BUYDEG is in the tetragonal crystal system
# The framework has been calculated to contain at least 10.0% void space
# The void calculation uses a probe of radius 1.32A, grid spacing 0.4
#
###############################################################################

data_BUYDEG
_chemical_formula_moiety         '(C96 H64 N48 O48 Zn16)n'
_symmetry_cell_setting           triclinic
_symmetry_space_group_name_H-M   'P 1'
_symmetry_Int_Tables_number      1
_space_group_name_Hall           'P 1'
loop_
_symmetry_equiv_pos_site_id
_symmetry_equiv_pos_as_xyz
1 x,y,z
_cell_length_a                   13.6204(5)
_cell_length_b                   13.6204(5)
_cell_length_c                   27.0027(9)
_cell_angle_alpha                90
_cell_angle_beta                 90
_cell_angle_gamma                90
_cell_volume                     5009.41
loop_
_atom_site_label
_atom_site_type_symbol
_atom_site_fract_x
_atom_site_fract_y
_atom_site_fract_z
C3 C 0.0158(11) 0.1223(12) 0.2617(4)
C6 C 0.0414(5) 0.3055(7) 0.4463(4)
H3 H 0.0843 0.2940 0.4201
N3 N 0.0290(6) 0.3923(6) 0.4665(3)
O1 O 0.0578(8) 0.1482(8) 0.3645(3)
O3 O 0.0822(16) 0.1932(18) 0.2707(5)
H4 H 0.0929 0.1979 0.3017
H5 H 0.0276 0.1385 0.1887
C12 C 0.1945(7) 0.0414(5) 0.4463(4)
H8 H 0.2060 0.0843 0.4201
N6 N 0.1077(6) 0.0290(6) 0.4665(3)
Zn3 Zn 0.09401(8) 0.51966(8) 0.44974(4)
N9 N 0.4710(6) 0.1077(6) 0.4665(3)
Zn2 Zn 0.40599(8) 0.98034(8) 0.44974(4)
C11 C 0.2157(6) 0.9372(7) 0.5014(4)
H7 H 0.2454 0.8916 0.5222
N4 N 0.1207(6) 0.9594(6) 0.5030(3)
N5 N 0.2637(6) 0.9873(6) 0.4667(3)
Zn5 Zn 0.01966(8) 0.90599(8) 0.55026(4)
N8 N 0.4594(6) 0.8793(6) 0.4970(3)
O7 O 0.4439(7) 0.9330(7) 0.3851(3)
Zn1 Zn 0.98034(8) 0.09401(8) 0.44974(4)
C1 C 0.8963(12) 0.0049(11) 0.2866(5)
C2 C 0.9664(9) 0.0737(9) 0.2994(4)
C4 C 0.9874(10) 0.0944(9) 0.3527(4)
C5 C 0.9372(7) 0.2843(6) 0.5014(4)
H2 H 0.8916 0.2546 0.5222
N1 N 0.9594(6) 0.3793(6) 0.5030(3)
N2 N 0.9873(6) 0.2363(6) 0.4667(3)
O2 O 0.9330(7) 0.0561(7) 0.3851(3)
C7 C 0.9951(11) 0.1037(12) 0.2134(5)
C8 C 0.9263(9) 0.0336(9) 0.2006(4)
C10 C 0.9056(9) 0.0126(10) 0.1473(4)
O5 O 0.9439(7) 0.0670(7) 0.1149(3)
Zn4 Zn 0.90599(8) 0.01966(8) 0.05026(4)
Zn6 Zn 0.90599(8) 0.48034(8) 0.55026(4)
N7 N 0.8793(6) 0.0406(6) 0.4970(3)
H1 H 0.8615 0.9724 0.3113
C9 C 0.8777(12) 0.9842(11) 0.2383(4)
O4 O 0.8518(8) 0.9422(8) 0.1355(3)
O6 O 0.8068(18) 0.9178(16) 0.2293(5)
H6 H 0.8021 0.9071 0.1983
C3_2 C 0.3777(12) 0.0158(11) 0.2617(4)
O1_2 O 0.3518(8) 0.0578(8) 0.3645(3)
O3_2 O 0.3068(18) 0.0822(16) 0.2707(5)
H4_2 H 0.3021 0.0929 0.3017
H5_2 H 0.3615 0.0276 0.1887
Zn2_2 Zn 0.51966(8) 0.40599(8) 0.44974(4)
C11_2 C 0.5628(7) 0.2157(6) 0.5014(4)
H7_2 H 0.6084 0.2454 0.5222
C12_2 C 0.4586(5) 0.1945(7) 0.4463(4)
H8_2 H 0.4157 0.2060 0.4201
N4_2 N 0.5406(6) 0.1207(6) 0.5030(3)
N5_2 N 0.5127(6) 0.2637(6) 0.4667(3)
Zn5_2 Zn 0.59401(8) 0.01966(8) 0.55026(4)
N8_2 N 0.6207(6) 0.4594(6) 0.4970(3)
N9_2 N 0.3923(6) 0.4710(6) 0.4665(3)
O7_2 O 0.5670(7) 0.4439(7) 0.3851(3)
C1_2 C 0.4951(11) 0.8963(12) 0.2866(5)
H1_2 H 0.5276 0.8615 0.3113
C2_2 C 0.4263(9) 0.9664(9) 0.2994(4)
C4_2 C 0.4056(9) 0.9874(10) 0.3527(4)
C7_2 C 0.3963(12) 0.9951(11) 0.2134(5)
C8_2 C 0.4664(9) 0.9263(9) 0.2006(4)
C9_2 C 0.5158(11) 0.8777(12) 0.2383(4)
C10_2 C 0.4874(10) 0.9056(9) 0.1473(4)
O4_2 O 0.5578(8) 0.8518(8) 0.1355(3)
O5_2 O 0.4330(7) 0.9439(7) 0.1149(3)
O6_2 O 0.5822(16) 0.8068(18) 0.2293(5)
H6_2 H 0.5929 0.8021 0.1983
Zn4_2 Zn 0.48034(8) 0.90599(8) 0.05026(4)
C1_3 C 0.6037(12) 0.4951(11) 0.2866(5)
H1_3 H 0.6385 0.5276 0.3113
C2_3 C 0.5336(9) 0.4263(9) 0.2994(4)
C3_3 C 0.4842(11) 0.3777(12) 0.2617(4)
C4_3 C 0.5126(10) 0.4056(9) 0.3527(4)
O1_3 O 0.4422(8) 0.3518(8) 0.3645(3)
O3_3 O 0.4178(16) 0.3068(18) 0.2707(5)
H4_3 H 0.4071 0.3021 0.3017
C7_3 C 0.5049(11) 0.3963(12) 0.2134(5)
H5_3 H 0.4724 0.3615 0.1887
C8_3 C 0.5737(9) 0.4664(9) 0.2006(4)
C9_3 C 0.6223(12) 0.5158(11) 0.2383(4)
C10_3 C 0.5944(9) 0.4874(10) 0.1473(4)
O4_3 O 0.6482(8) 0.5578(8) 0.1355(3)
O5_3 O 0.5561(7) 0.4330(7) 0.1149(3)
O6_3 O 0.6932(18) 0.5822(16) 0.2293(5)
H6_3 H 0.6979 0.5929 0.1983
C11_3 C 0.2843(6) 0.5628(7) 0.5014(4)
H7_3 H 0.2546 0.6084 0.5222
C12_3 C 0.3055(7) 0.4586(5) 0.4463(4)
H8_3 H 0.2940 0.4157 0.4201
N4_3 N 0.3793(6) 0.5406(6) 0.5030(3)
N5_3 N 0.2363(6) 0.5127(6) 0.4667(3)
Zn4_3 Zn 0.59401(8) 0.48034(8) 0.05026(4)
Zn5_3 Zn 0.48034(8) 0.59401(8) 0.55026(4)
N8_3 N 0.0406(6) 0.6207(6) 0.4970(3)
O7_3 O 0.0561(7) 0.5670(7) 0.3851(3)
C1_4 C 0.0049(11) 0.6037(12) 0.2866(5)
C2_4 C 0.0737(9) 0.5336(9) 0.2994(4)
C3_4 C 0.1223(12) 0.4842(11) 0.2617(4)
C4_4 C 0.0944(9) 0.5126(10) 0.3527(4)
O1_4 O 0.1482(8) 0.4422(8) 0.3645(3)
O3_4 O 0.1932(18) 0.4178(16) 0.2707(5)
H4_4 H 0.1979 0.4071 0.3017
C7_4 C 0.1037(12) 0.5049(11) 0.2134(5)
H5_4 H 0.1385 0.4724 0.1887
C8_4 C 0.0336(9) 0.5737(9) 0.2006(4)
C10_4 C 0.0126(10) 0.5944(9) 0.1473(4)
O5_4 O 0.0670(7) 0.5561(7) 0.1149(3)
Zn4_4 Zn 0.01966(8) 0.59401(8) 0.05026(4)
H1_4 H 0.9724 0.6385 0.3113
C9_4 C 0.9842(11) 0.6223(12) 0.2383(4)
O4_4 O 0.9422(8) 0.6482(8) 0.1355(3)
O6_4 O 0.9178(16) 0.6932(18) 0.2293(5)
H6_4 H 0.9071 0.6979 0.1983
N5_4 N 0.7637(6) 0.0127(6) 0.0333(3)
N8_4 N 0.9594(6) 0.1207(6) 0.0030(3)
C11_4 C 0.7157(6) 0.0628(7) 0.9986(4)
H7_4 H 0.7454 0.1084 0.9778
N4_4 N 0.6207(6) 0.0406(6) 0.9970(3)
Zn5_4 Zn 0.51966(8) 0.09401(8) 0.94974(4)
C6_2 C 0.5414(5) 0.6945(7) 0.0537(4)
H3_2 H 0.5843 0.7060 0.0799
N2_2 N 0.4873(6) 0.7637(6) 0.0333(3)
N3_2 N 0.5290(6) 0.6077(6) 0.0335(3)
C12_4 C 0.6945(7) 0.9586(5) 0.0537(4)
H8_4 H 0.7060 0.9157 0.0799
N6_2 N 0.6077(6) 0.9710(6) 0.0335(3)
N7_2 N 0.3793(6) 0.9594(6) 0.0030(3)
N9_3 N 0.9710(6) 0.8923(6) 0.0335(3)
C5_2 C 0.4372(7) 0.7157(6) 0.9986(4)
H2_2 H 0.3916 0.7454 0.9778
N1_2 N 0.4594(6) 0.6207(6) 0.9970(3)
Zn6_2 Zn 0.40599(8) 0.51966(8) 0.94974(4)
C6_3 C 0.8055(7) 0.5414(5) 0.0537(4)
H3_3 H 0.7940 0.5843 0.0799
N2_3 N 0.7363(6) 0.4873(6) 0.0333(3)
N3_3 N 0.8923(6) 0.5290(6) 0.0335(3)
N7_3 N 0.5406(6) 0.3793(6) 0.0030(3)
C5_3 C 0.7843(6) 0.4372(7) 0.9986(4)
H2_3 H 0.7546 0.3916 0.9778
N1_3 N 0.8793(6) 0.4594(6) 0.9970(3)
Zn6_3 Zn 0.98034(8) 0.40599(8) 0.94974(4)
N2_4 N 0.0127(6) 0.7363(6) 0.0333(3)
N7_4 N 0.1207(6) 0.5406(6) 0.0030(3)
C5_4 C 0.0628(7) 0.7843(6) 0.9986(4)
H2_4 H 0.1084 0.7546 0.9778
N1_4 N 0.0406(6) 0.8793(6) 0.9970(3)
Zn6_4 Zn 0.09401(8) 0.98034(8) 0.94974(4)
C6_4 C 0.9586(5) 0.8055(7) 0.0537(4)
H3_4 H 0.9157 0.7940 0.0799
H1_5 H 0.1385 0.0276 0.6887
C9_5 C 0.1223(12) 0.0158(11) 0.7617(4)
O4_5 O 0.1482(8) 0.0578(8) 0.8645(3)
O6_5 O 0.1932(18) 0.0822(16) 0.7707(5)
H6_5 H 0.1979 0.0929 0.8017
C1_5 C 0.1037(12) 0.9951(11) 0.7134(5)
C2_5 C 0.0336(9) 0.9263(9) 0.7006(4)
C4_5 C 0.0126(10) 0.9056(9) 0.6473(4)
C5_5 C 0.0628(7) 0.7157(6) 0.4986(4)
H2_5 H 0.1084 0.7454 0.4778
N2_5 N 0.0127(6) 0.7637(6) 0.5333(3)
O2_2 O 0.0670(7) 0.9439(7) 0.6149(3)
C7_5 C 0.0049(11) 0.8963(12) 0.7866(5)
C8_5 C 0.0737(9) 0.9664(9) 0.7994(4)
C10_5 C 0.0944(9) 0.9874(10) 0.8527(4)
O5_5 O 0.0561(7) 0.9330(7) 0.8851(3)
C11_5 C 0.7843(6) 0.0628(7) 0.4986(4)
H7_5 H 0.7546 0.1084 0.4778
N5_5 N 0.7363(6) 0.0127(6) 0.5333(3)
O7_4 O 0.5561(7) 0.0670(7) 0.6149(3)
C3_5 C 0.9842(11) 0.8777(12) 0.7383(4)
C6_5 C 0.9586(5) 0.6945(7) 0.5537(4)
H3_5 H 0.9157 0.7060 0.5799
N3_4 N 0.9710(6) 0.6077(6) 0.5335(3)
O1_5 O 0.9422(8) 0.8518(8) 0.6355(3)
O3_5 O 0.9178(16) 0.8068(18) 0.7293(5)
H4_5 H 0.9071 0.8021 0.6983
H5_5 H 0.9724 0.8615 0.8113
C12_5 C 0.8055(7) 0.9586(5) 0.5537(4)
H8_5 H 0.7940 0.9157 0.5799
N6_3 N 0.8923(6) 0.9710(6) 0.5335(3)
N9_4 N 0.5290(6) 0.8923(6) 0.5335(3)
C1_6 C 0.5049(11) 0.1037(12) 0.7134(5)
H1_6 H 0.4724 0.1385 0.6887
C2_6 C 0.5737(9) 0.0336(9) 0.7006(4)
C4_6 C 0.5944(9) 0.0126(10) 0.6473(4)
C7_6 C 0.6037(12) 0.0049(11) 0.7866(5)
C8_6 C 0.5336(9) 0.0737(9) 0.7994(4)
C9_6 C 0.4842(11) 0.1223(12) 0.7617(4)
C10_6 C 0.5126(10) 0.0944(9) 0.8527(4)
O4_6 O 0.4422(8) 0.1482(8) 0.8645(3)
O5_6 O 0.5670(7) 0.0561(7) 0.8851(3)
O6_6 O 0.4178(16) 0.1932(18) 0.7707(5)
H6_6 H 0.4071 0.1979 0.8017
C3_6 C 0.6223(12) 0.9842(11) 0.7383(4)
O1_6 O 0.6482(8) 0.9422(8) 0.6355(3)
O3_6 O 0.6932(18) 0.9178(16) 0.7293(5)
H4_6 H 0.6979 0.9071 0.6983
H5_6 H 0.6385 0.9724 0.8113
C11_6 C 0.4372(7) 0.7843(6) 0.4986(4)
H7_6 H 0.3916 0.7546 0.4778
C12_6 C 0.5414(5) 0.8055(7) 0.5537(4)
H8_6 H 0.5843 0.7940 0.5799
N5_6 N 0.4873(6) 0.7363(6) 0.5333(3)
N9_5 N 0.6077(6) 0.5290(6) 0.5335(3)
O7_5 O 0.4330(7) 0.5561(7) 0.6149(3)
C1_7 C 0.3963(12) 0.5049(11) 0.7134(5)
H1_7 H 0.3615 0.4724 0.6887
C2_7 C 0.4664(9) 0.5737(9) 0.7006(4)
C3_7 C 0.5158(11) 0.6223(12) 0.7383(4)
C4_7 C 0.4874(10) 0.5944(9) 0.6473(4)
O1_7 O 0.5578(8) 0.6482(8) 0.6355(3)
O3_7 O 0.5822(16) 0.6932(18) 0.7293(5)
H4_7 H 0.5929 0.6979 0.6983
C7_7 C 0.4951(11) 0.6037(12) 0.7866(5)
H5_7 H 0.5276 0.6385 0.8113
C8_7 C 0.4263(9) 0.5336(9) 0.7994(4)
C9_7 C 0.3777(12) 0.4842(11) 0.7617(4)
C10_7 C 0.4056(9) 0.5126(10) 0.8527(4)
O4_7 O 0.3518(8) 0.4422(8) 0.8645(3)
O5_7 O 0.4439(7) 0.5670(7) 0.8851(3)
O6_7 O 0.3068(18) 0.4178(16) 0.7707(5)
H6_7 H 0.3021 0.4071 0.8017
C11_7 C 0.7157(6) 0.4372(7) 0.4986(4)
H7_7 H 0.7454 0.3916 0.4778
C12_7 C 0.6945(7) 0.5414(5) 0.5537(4)
H8_7 H 0.7060 0.5843 0.5799
N5_7 N 0.7637(6) 0.4873(6) 0.5333(3)
O7_6 O 0.9439(7) 0.4330(7) 0.6149(3)
H1_8 H 0.0276 0.3615 0.6887
C9_8 C 0.0158(11) 0.3777(12) 0.7617(4)
O4_8 O 0.0578(8) 0.3518(8) 0.8645(3)
O6_8 O 0.0822(16) 0.3068(18) 0.7707(5)
H6_8 H 0.0929 0.3021 0.8017
C1_8 C 0.9951(11) 0.3963(12) 0.7134(5)
C2_8 C 0.9263(9) 0.4664(9) 0.7006(4)
C3_8 C 0.8777(12) 0.5158(11) 0.7383(4)
C4_8 C 0.9056(9) 0.4874(10) 0.6473(4)
O1_8 O 0.8518(8) 0.5578(8) 0.6355(3)
O3_8 O 0.8068(18) 0.5822(16) 0.7293(5)
H4_8 H 0.8021 0.5929 0.6983
C7_8 C 0.8963(12) 0.4951(11) 0.7866(5)
H5_8 H 0.8615 0.5276 0.8113
C8_8 C 0.9664(9) 0.4263(9) 0.7994(4)
C10_8 C 0.9874(10) 0.4056(9) 0.8527(4)
O5_8 O 0.9330(7) 0.4439(7) 0.8851(3)
C5_6 C 0.5628(7) 0.2843(6) 0.0014(4)
H2_6 H 0.6084 0.2546 0.0222
C6_6 C 0.4586(5) 0.3055(7) 0.9463(4)
H3_6 H 0.4157 0.2940 0.9201
N2_6 N 0.5127(6) 0.2363(6) 0.9667(3)
N3_5 N 0.4710(6) 0.3923(6) 0.9665(3)
C12_8 C 0.3055(7) 0.0414(5) 0.9463(4)
H8_8 H 0.2940 0.0843 0.9201
N6_4 N 0.3923(6) 0.0290(6) 0.9665(3)
N9_6 N 0.0290(6) 0.1077(6) 0.9665(3)
C11_8 C 0.2843(6) 0.9372(7) 0.0014(4)
H7_8 H 0.2546 0.8916 0.0222
N5_8 N 0.2363(6) 0.9873(6) 0.9667(3)
C5_7 C 0.2157(6) 0.5628(7) 0.0014(4)
H2_7 H 0.2454 0.6084 0.0222
C6_7 C 0.1945(7) 0.4586(5) 0.9463(4)
H3_7 H 0.2060 0.4157 0.9201
N2_7 N 0.2637(6) 0.5127(6) 0.9667(3)
N3_6 N 0.1077(6) 0.4710(6) 0.9665(3)
C6_8 C 0.0414(5) 0.1945(7) 0.9463(4)
H3_8 H 0.0843 0.2060 0.9201
C5_8 C 0.9372(7) 0.2157(6) 0.0014(4)
H2_8 H 0.8916 0.2454 0.0222
N2_8 N 0.9873(6) 0.2637(6) 0.9667(3)
loop_
_geom_bond_atom_site_label_1
_geom_bond_atom_site_label_2
_geom_bond_site_symmetry_1
_geom_bond_site_symmetry_2
C6 H3 1_555 1_555
N3 C6 1_555 1_555
O3 C3 1_555 1_555
H4 O3 1_555 1_555
C12 H8 1_555 1_555
Zn3 N3 1_555 1_555
C12 N6 1_555 1_555
Zn2 N5 1_555 1_555
C11 H7 1_555 1_555
N4 C11 1_555 1_555
N5 C11 1_555 1_555
Zn5 N4 1_555 1_555
N8 Zn2 1_555 1_555
O7 Zn2 1_555 1_555
Zn1 N2 1_555 1_555
C2 C1 1_555 1_555
C4 C2 1_555 1_555
C5 H2 1_555 1_555
N1 C5 1_555 1_555
N2 C5 1_555 1_555
O2 Zn1 1_555 1_555
C8 C7 1_555 1_555
C10 C8 1_555 1_555
O5 C10 1_555 1_555
Zn4 O5 1_555 1_555
Zn6 N1 1_555 1_555
N7 Zn1 1_555 1_555
C4 O2 1_555 1_555
O6 C9 1_555 1_555
H6 O6 1_555 1_555
O3_2 C3_2 1_555 1_555
H4_2 O3_2 1_555 1_555
Zn2_2 N5_2 1_555 1_555
C11_2 H7_2 1_555 1_555
C12_2 H8_2 1_555 1_555
N4_2 C11_2 1_555 1_555
N5_2 C11_2 1_555 1_555
Zn5_2 N4_2 1_555 1_555
N8_2 Zn2_2 1_555 1_555
N9_2 Zn2_2 1_555 1_555
O7_2 Zn2_2 1_555 1_555
C12_2 N5_2 1_555 1_555
C12_2 N9 1_555 1_555
N4_2 N9 1_555 1_555
C1_2 H1_2 1_555 1_555
C2_2 C1_2 1_555 1_555
C4_2 C2_2 1_555 1_555
C8_2 C7_2 1_555 1_555
C9_2 C1_2 1_555 1_555
C10_2 C8_2 1_555 1_555
O4_2 C10_2 1_555 1_555
O5_2 C10_2 1_555 1_555
O6_2 C9_2 1_555 1_555
H6_2 O6_2 1_555 1_555
Zn4_2 O5_2 1_555 1_555
C4_2 O7 1_555 1_555
C8_2 C9_2 1_555 1_555
C1_3 H1_3 1_555 1_555
C2_3 C1_3 1_555 1_555
C3_3 C2_3 1_555 1_555
C4_3 C2_3 1_555 1_555
O1_3 C4_3 1_555 1_555
O3_3 C3_3 1_555 1_555
H4_3 O3_3 1_555 1_555
C7_3 C3_3 1_555 1_555
H5_3 C7_3 1_555 1_555
C8_3 C7_3 1_555 1_555
C9_3 C1_3 1_555 1_555
C10_3 C8_3 1_555 1_555
O4_3 C10_3 1_555 1_555
O5_3 C10_3 1_555 1_555
O6_3 C9_3 1_555 1_555
H6_3 O6_3 1_555 1_555
Zn3 N5_3 1_555 1_555
C11_3 H7_3 1_555 1_555
C12_3 H8_3 1_555 1_555
N4_3 C11_3 1_555 1_555
N5_3 C11_3 1_555 1_555
Zn4_3 O5_3 1_555 1_555
Zn5_3 N4_3 1_555 1_555
N8_3 Zn3 1_555 1_555
O7_3 Zn3 1_555 1_555
C4_3 O7_2 1_555 1_555
C8_3 C9_3 1_555 1_555
C12_3 N5_3 1_555 1_555
C12_3 N9_2 1_555 1_555
N4_3 N9_2 1_555 1_555
C2_4 C1_4 1_555 1_555
C3_4 C2_4 1_555 1_555
C4_4 C2_4 1_555 1_555
O1_4 C4_4 1_555 1_555
O3_4 C3_4 1_555 1_555
H4_4 O3_4 1_555 1_555
C7_4 C3_4 1_555 1_555
H5_4 C7_4 1_555 1_555
C8_4 C7_4 1_555 1_555
C10_4 C8_4 1_555 1_555
O5_4 C10_4 1_555 1_555
Zn4_4 O5_4 1_555 1_555
C4_4 O7_3 1_555 1_555
O6_4 C9_4 1_555 1_555
H6_4 O6_4 1_555 1_555
Zn4 N5_4 1_555 1_555
N8_4 Zn4 1_555 1_555
C11_4 H7_4 1_555 1_555
N4_4 C11_4 1_555 1_555
Zn5_4 N4_4 1_555 1_555
Zn4_2 N2_2 1_555 1_555
C6_2 H3_2 1_555 1_555
N3_2 C6_2 1_555 1_555
C12_4 H8_4 1_555 1_555
N6_2 Zn4_2 1_555 1_555
Zn4_3 N3_2 1_555 1_555
N7_2 Zn4_2 1_555 1_555
C6_2 N2_2 1_555 1_555
C12_4 N6_2 1_555 1_555
C5_2 H2_2 1_555 1_555
N1_2 C5_2 1_555 1_555
Zn6_2 N1_2 1_555 1_555
Zn4_3 N2_3 1_555 1_555
C6_3 H3_3 1_555 1_555
N3_3 C6_3 1_555 1_555
N7_3 Zn4_3 1_555 1_555
C6_3 N2_3 1_555 1_555
C5_3 H2_3 1_555 1_555
N1_3 C5_3 1_555 1_555
Zn6_3 N1_3 1_555 1_555
Zn4_4 N2_4 1_555 1_555
N7_4 Zn4_4 1_555 1_555
C5_4 H2_4 1_555 1_555
N1_4 C5_4 1_555 1_555
Zn6_4 N1_4 1_555 1_555
C6_4 H3_4 1_555 1_555
N9_3 C6_4 1_555 1_555
O6_5 C9_5 1_555 1_555
H6_5 O6_5 1_555 1_555
Zn5 N2_5 1_555 1_555
C2_5 C1_5 1_555 1_555
C4_5 C2_5 1_555 1_555
C5_5 H2_5 1_555 1_555
N8_3 C5_5 1_555 1_555
N2_5 C5_5 1_555 1_555
O2_2 Zn5 1_555 1_555
C8_5 C7_5 1_555 1_555
C10_5 C8_5 1_555 1_555
O5_5 C10_5 1_555 1_555
Zn6_4 O5_5 1_555 1_555
C4_5 O2_2 1_555 1_555
Zn5_2 N5_5 1_555 1_555
C11_5 H7_5 1_555 1_555
N7 C11_5 1_555 1_555
N5_5 C11_5 1_555 1_555
O7_4 Zn5_2 1_555 1_555
C6_5 H3_5 1_555 1_555
N3_4 C6_5 1_555 1_555
O3_5 C3_5 1_555 1_555
H4_5 O3_5 1_555 1_555
C12_5 H8_5 1_555 1_555
Zn6 N3_4 1_555 1_555
C12_5 N6_3 1_555 1_555
C1_6 H1_6 1_555 1_555
C2_6 C1_6 1_555 1_555
C4_6 C2_6 1_555 1_555
C8_6 C7_6 1_555 1_555
C9_6 C1_6 1_555 1_555
C10_6 C8_6 1_555 1_555
O4_6 C10_6 1_555 1_555
O5_6 C10_6 1_555 1_555
O6_6 C9_6 1_555 1_555
H6_6 O6_6 1_555 1_555
Zn5_4 O5_6 1_555 1_555
C4_6 O7_4 1_555 1_555
C8_6 C9_6 1_555 1_555
O3_6 C3_6 1_555 1_555
H4_6 O3_6 1_555 1_555
Zn5_3 N5_6 1_555 1_555
C11_6 H7_6 1_555 1_555
C12_6 H8_6 1_555 1_555
N8 C11_6 1_555 1_555
N5_6 C11_6 1_555 1_555
N9_5 Zn5_3 1_555 1_555
O7_5 Zn5_3 1_555 1_555
C12_6 N5_6 1_555 1_555
C12_6 N9_4 1_555 1_555
N8 N9_4 1_555 1_555
C1_7 H1_7 1_555 1_555
C2_7 C1_7 1_555 1_555
C3_7 C2_7 1_555 1_555
C4_7 C2_7 1_555 1_555
O1_7 C4_7 1_555 1_555
O3_7 C3_7 1_555 1_555
H4_7 O3_7 1_555 1_555
C7_7 C3_7 1_555 1_555
H5_7 C7_7 1_555 1_555
C8_7 C7_7 1_555 1_555
C9_7 C1_7 1_555 1_555
C10_7 C8_7 1_555 1_555
O4_7 C10_7 1_555 1_555
O5_7 C10_7 1_555 1_555
O6_7 C9_7 1_555 1_555
H6_7 O6_7 1_555 1_555
Zn6 N5_7 1_555 1_555
C11_7 H7_7 1_555 1_555
C12_7 H8_7 1_555 1_555
N8_2 C11_7 1_555 1_555
N5_7 C11_7 1_555 1_555
Zn6_2 O5_7 1_555 1_555
O7_6 Zn6 1_555 1_555
C4_7 O7_5 1_555 1_555
C8_7 C9_7 1_555 1_555
C12_7 N5_7 1_555 1_555
C12_7 N9_5 1_555 1_555
N8_2 N9_5 1_555 1_555
O6_8 C9_8 1_555 1_555
H6_8 O6_8 1_555 1_555
C2_8 C1_8 1_555 1_555
C3_8 C2_8 1_555 1_555
C4_8 C2_8 1_555 1_555
O1_8 C4_8 1_555 1_555
O3_8 C3_8 1_555 1_555
H4_8 O3_8 1_555 1_555
C7_8 C3_8 1_555 1_555
H5_8 C7_8 1_555 1_555
C8_8 C7_8 1_555 1_555
C10_8 C8_8 1_555 1_555
O5_8 C10_8 1_555 1_555
Zn6_3 O5_8 1_555 1_555
C4_8 O7_6 1_555 1_555
C5_6 H2_6 1_555 1_555
N7_3 C5_6 1_555 1_555
Zn5_4 N2_6 1_555 1_555
C6_6 H3_6 1_555 1_555
N3_5 C6_6 1_555 1_555
C12_8 H8_8 1_555 1_555
N6_4 Zn5_4 1_555 1_555
Zn6_2 N3_5 1_555 1_555
C6_6 N2_6 1_555 1_555
C12_8 N6_4 1_555 1_555
C11_8 H7_8 1_555 1_555
N7_2 C11_8 1_555 1_555
Zn6_4 N5_8 1_555 1_555
C5_7 H2_7 1_555 1_555
N7_4 C5_7 1_555 1_555
Zn6_2 N2_7 1_555 1_555
C6_7 H3_7 1_555 1_555
N3_6 C6_7 1_555 1_555
C6_7 N2_7 1_555 1_555
C6_8 H3_8 1_555 1_555
N9_6 C6_8 1_555 1_555
C5_8 H2_8 1_555 1_555
N8_4 C5_8 1_555 1_555
Zn6_3 N2_8 1_555 1_555

#END
