
###############################################################################
#
# This file contains modified crystal structure data generated from the
# MOF subset of the Cambridge Structural Database (CSD) v543 
# hosted by the Cambridge Crystallographic Data Centre (CCDC).
#
# This work is licensed under the Creative Commons
# Attribution-NonCommercial-ShareAlike 4.0 International License.
# To view a copy of this license, visit
# http://creativecommons.org/licenses/by-nc-sa/4.0/
# or send a letter to
# Creative Commons, PO Box 1866, Mountain View, CA 94042, USA.
#
# CIF created using the CSD Python API on 29 September 2022
# The structure has been converted into the P1 space group
# The structure has a 3D framework
# The original CSD entry CABPEE is in the monoclinic crystal system
# The framework has been calculated to contain at least 10.0% void space
# The void calculation uses a probe of radius 1.32A, grid spacing 0.4
#
###############################################################################

data_CABPEE
_chemical_formula_moiety         '(C80 H80 O68 Zn16)n'
_symmetry_cell_setting           triclinic
_symmetry_space_group_name_H-M   'P 1'
_symmetry_Int_Tables_number      1
_space_group_name_Hall           'P 1'
loop_
_symmetry_equiv_pos_site_id
_symmetry_equiv_pos_as_xyz
1 x,y,z
_cell_length_a                   12.2574(6)
_cell_length_b                   13.4329(6)
_cell_length_c                   18.4947(8)
_cell_angle_alpha                90
_cell_angle_beta                 94.667(2)
_cell_angle_gamma                90
_cell_volume                     3035.1
loop_
_atom_site_label
_atom_site_type_symbol
_atom_site_fract_x
_atom_site_fract_y
_atom_site_fract_z
Zn2 Zn 0.11575(3) 0.13224(3) 0.14437(2)
O1 O 0.0905(2) 0.15048(18) 0.48592(13)
H1 H 0.0246 0.1568 0.6540
O3 O 0.04190(19) 0.10365(18) 0.37150(12)
O4 O 0.1853(3) 0.1855(2) 0.24901(14)
O5 O 0.1591(2) 0.0283(2) 0.23111(13)
C1 C 0.2325(3) 0.1330(2) 0.40887(17)
H3 H 0.2449 0.2035 0.3988
C2 C 0.2687(3) 0.0770(2) 0.34157(16)
H4 H 0.3415 0.1029 0.3338
C6 C 0.3098(3) 0.1096(2) 0.47566(17)
H9 H 0.2817 0.1408 0.5176
H10 H 0.3807 0.1390 0.4692
C7 C 0.1114(3) 0.1262(2) 0.42263(17)
C8 C 0.1980(3) 0.0975(3) 0.27070(19)
O12 O 0.1193(3) 0.27789(18) 0.11839(13)
O13 O 0.2252(2) 0.06641(19) 0.08689(12)
O6 O 0.3977(2) 0.80623(17) 0.49988(12)
O7 O 0.3807(3) 0.77789(18) 0.38161(13)
O8 O 0.2252(2) 0.93359(19) 0.58689(12)
O9 O 0.1495(2) 0.92482(18) 0.47403(13)
C3 C 0.2840(3) 0.9655(2) 0.35410(16)
H5 H 0.3148 0.9360 0.3124
H6 H 0.2133 0.9348 0.3590
C4 C 0.3600(3) 0.9446(2) 0.42264(15)
H7 H 0.4313 0.9728 0.4133
C5 C 0.3257(2) 0.9973(2) 0.49134(15)
H8 H 0.3866 0.9906 0.5288
C9 C 0.3796(3) 0.8339(2) 0.43533(17)
C10 C 0.2265(3) 0.9484(2) 0.52004(16)
Zn3 Zn 0.45827(3) 0.67856(2) 0.53090(2)
Zn4 Zn 0.04173(3) 0.82144(2) 0.46910(2)
Zn6 Zn 0.38425(3) 0.63224(3) 0.35563(2)
Zn7 Zn 0.11575(3) 0.86776(3) 0.64437(2)
Zn1 Zn 0.95827(3) 0.17856(2) 0.53090(2)
O2 O 0.9964(3) 0.2081(2) 0.63298(14)
H2 H 0.9387 0.2244 0.6527
Zn5 Zn 0.88425(3) 0.13224(3) 0.35563(2)
O10 O 0.95810(19) 0.10365(18) 0.12850(12)
O11 O 0.8977(2) 0.30623(17) 0.49988(12)
O14 O 0.8505(2) 0.07518(18) 0.52597(13)
O11_2 O 0.1023(2) 0.30623(17) 0.00012(12)
Zn1_2 Zn 0.04173(3) 0.17856(2) 0.96910(2)
O2_2 O 0.0036(3) 0.2081(2) 0.86702(14)
H2_2 H 0.0613 0.2244 0.8473
O14_2 O 0.1495(2) 0.07518(18) 0.97403(13)
O1_2 O 0.9095(2) 0.15048(18) 0.01408(13)
O4_2 O 0.8147(3) 0.1855(2) 0.25099(14)
O5_2 O 0.8409(2) 0.0283(2) 0.26889(13)
C1_2 C 0.7675(3) 0.1330(2) 0.09113(17)
H3_2 H 0.7551 0.2035 0.1012
C2_2 C 0.7313(3) 0.0770(2) 0.15843(16)
H4_2 H 0.6585 0.1029 0.1662
C6_2 C 0.6902(3) 0.1096(2) 0.02434(17)
H10_2 H 0.6193 0.1390 0.0308
C7_2 C 0.8886(3) 0.1262(2) 0.07737(17)
C8_2 C 0.8020(3) 0.0975(3) 0.22930(19)
O12_2 O 0.8807(3) 0.27789(18) 0.38161(13)
O13_2 O 0.7748(2) 0.06641(19) 0.41311(12)
O6_2 O 0.6023(2) 0.80623(17) 0.00012(12)
O7_2 O 0.6193(3) 0.77789(18) 0.11839(13)
O9_2 O 0.8505(2) 0.92482(18) 0.02597(13)
C3_2 C 0.7160(3) 0.9655(2) 0.14590(16)
H5_2 H 0.6852 0.9360 0.1876
H6_2 H 0.7867 0.9348 0.1410
C4_2 C 0.6400(3) 0.9446(2) 0.07736(15)
H7_2 H 0.5687 0.9728 0.0867
C5_2 C 0.6743(2) 0.9973(2) 0.00866(15)
C9_2 C 0.6204(3) 0.8339(2) 0.06467(17)
Zn4_2 Zn 0.95827(3) 0.82144(2) 0.03090(2)
Zn6_2 Zn 0.61575(3) 0.63224(3) 0.14437(2)
O8_2 O 0.7748(2) 0.93359(19) 0.91311(12)
H8_2 H 0.6134 0.9906 0.9712
C10_2 C 0.7735(3) 0.9484(2) 0.97996(16)
Zn3_2 Zn 0.54173(3) 0.67856(2) 0.96910(2)
Zn7_2 Zn 0.88425(3) 0.86776(3) 0.85563(2)
O1_3 O 0.5905(2) 0.65048(18) 0.48592(13)
O2_3 O 0.4964(3) 0.7081(2) 0.63298(14)
H1_2 H 0.5246 0.6568 0.6540
H2_3 H 0.4387 0.7244 0.6527
O3_2 O 0.54190(19) 0.60365(18) 0.37150(12)
O4_3 O 0.6853(3) 0.6855(2) 0.24901(14)
O5_3 O 0.6591(2) 0.5283(2) 0.23111(13)
O8_3 O 0.7252(2) 0.43359(19) 0.58689(12)
O9_3 O 0.6495(2) 0.42482(18) 0.47403(13)
C1_3 C 0.7325(3) 0.6330(2) 0.40887(17)
H3_3 H 0.7449 0.7035 0.3988
C2_3 C 0.7687(3) 0.5770(2) 0.34157(16)
H4_3 H 0.8415 0.6029 0.3338
C3_3 C 0.7840(3) 0.4655(2) 0.35410(16)
H5_3 H 0.8148 0.4360 0.3124
H6_3 H 0.7133 0.4348 0.3590
C4_3 C 0.8600(3) 0.4446(2) 0.42264(15)
H7_3 H 0.9313 0.4728 0.4133
C5_3 C 0.8257(2) 0.4973(2) 0.49134(15)
H8_3 H 0.8866 0.4906 0.5288
C6_3 C 0.8098(3) 0.6096(2) 0.47566(17)
H9_2 H 0.7817 0.6408 0.5176
H10_3 H 0.8807 0.6390 0.4692
C7_3 C 0.6114(3) 0.6262(2) 0.42263(17)
C8_3 C 0.6980(3) 0.5975(3) 0.27070(19)
C9_3 C 0.8796(3) 0.3339(2) 0.43533(17)
C10_3 C 0.7265(3) 0.4484(2) 0.52004(16)
Zn4_3 Zn 0.54173(3) 0.32144(2) 0.46910(2)
Zn7_3 Zn 0.61575(3) 0.36776(3) 0.64437(2)
O10_2 O 0.45810(19) 0.60365(18) 0.12850(12)
O13_3 O 0.7252(2) 0.56641(19) 0.08689(12)
O14_3 O 0.3505(2) 0.57518(18) 0.52597(13)
O1_4 O 0.4095(2) 0.65048(18) 0.01408(13)
O4_4 O 0.3147(3) 0.6855(2) 0.25099(14)
O5_4 O 0.3409(2) 0.5283(2) 0.26889(13)
O9_4 O 0.3505(2) 0.42482(18) 0.02597(13)
C1_4 C 0.2675(3) 0.6330(2) 0.09113(17)
H3_4 H 0.2551 0.7035 0.1012
C2_4 C 0.2313(3) 0.5770(2) 0.15843(16)
H4_4 H 0.1585 0.6029 0.1662
C3_4 C 0.2160(3) 0.4655(2) 0.14590(16)
H5_4 H 0.1852 0.4360 0.1876
H6_4 H 0.2867 0.4348 0.1410
C4_4 C 0.1400(3) 0.4446(2) 0.07736(15)
H7_4 H 0.0687 0.4728 0.0867
C5_4 C 0.1743(2) 0.4973(2) 0.00866(15)
C6_4 C 0.1902(3) 0.6096(2) 0.02434(17)
H10_4 H 0.1193 0.6390 0.0308
C7_4 C 0.3886(3) 0.6262(2) 0.07737(17)
C8_4 C 0.3020(3) 0.5975(3) 0.22930(19)
C9_4 C 0.1204(3) 0.3339(2) 0.06467(17)
Zn4_4 Zn 0.45827(3) 0.32144(2) 0.03090(2)
O13_4 O 0.2748(2) 0.56641(19) 0.41311(12)
O2_4 O 0.5036(3) 0.7081(2) 0.86702(14)
H1_3 H 0.4754 0.6568 0.8460
H2_4 H 0.5613 0.7244 0.8473
O8_4 O 0.2748(2) 0.43359(19) 0.91311(12)
H8_4 H 0.1134 0.4906 0.9712
H9_3 H 0.2183 0.6408 0.9824
C10_4 C 0.2735(3) 0.4484(2) 0.97996(16)
Zn7_4 Zn 0.38425(3) 0.36776(3) 0.85563(2)
O14_4 O 0.6495(2) 0.57518(18) 0.97403(13)
O2_5 O 0.0036(3) 0.7919(2) 0.36702(14)
H2_5 H 0.0613 0.7756 0.3473
O10_3 O 0.04190(19) 0.89635(18) 0.87150(12)
O11_3 O 0.1023(2) 0.69377(17) 0.50012(12)
O6_3 O 0.6023(2) 0.19377(17) 0.50012(12)
O7_3 O 0.6193(3) 0.22211(18) 0.61839(13)
C3_5 C 0.7160(3) 0.0345(2) 0.64590(16)
H5_5 H 0.6852 0.0640 0.6876
H6_5 H 0.7867 0.0652 0.6410
C4_5 C 0.6400(3) 0.0554(2) 0.57736(15)
H7_5 H 0.5687 0.0272 0.5867
C5_5 C 0.6743(2) 0.0027(2) 0.50866(15)
H8_5 H 0.6134 0.0094 0.4712
C9_5 C 0.6204(3) 0.1661(2) 0.56467(17)
C10_5 C 0.7735(3) 0.0516(2) 0.47996(16)
O1_5 O 0.9095(2) 0.84952(18) 0.51408(13)
H1_4 H 0.9754 0.8432 0.3460
O3_3 O 0.95810(19) 0.89635(18) 0.62850(12)
O4_5 O 0.8147(3) 0.8145(2) 0.75099(14)
O5_5 O 0.8409(2) 0.9717(2) 0.76889(13)
C1_5 C 0.7675(3) 0.8670(2) 0.59113(17)
H3_5 H 0.7551 0.7965 0.6012
C2_5 C 0.7313(3) 0.9230(2) 0.65843(16)
H4_5 H 0.6585 0.8971 0.6662
C6_5 C 0.6902(3) 0.8904(2) 0.52434(17)
H9_4 H 0.7183 0.8592 0.4824
H10_5 H 0.6193 0.8610 0.5308
C7_5 C 0.8886(3) 0.8738(2) 0.57737(17)
C8_5 C 0.8020(3) 0.9025(3) 0.72930(19)
O12_3 O 0.8807(3) 0.72211(18) 0.88161(13)
H8_6 H 0.3866 0.0094 0.0288
C10_6 C 0.2265(3) 0.0516(2) 0.02004(16)
O6_4 O 0.3977(2) 0.19377(17) 0.99988(12)
O7_4 O 0.3807(3) 0.22211(18) 0.88161(13)
C3_6 C 0.2840(3) 0.0345(2) 0.85410(16)
H5_6 H 0.3148 0.0640 0.8124
H6_6 H 0.2133 0.0652 0.8590
C4_6 C 0.3600(3) 0.0554(2) 0.92264(15)
H7_6 H 0.4313 0.0272 0.9133
C5_6 C 0.3257(2) 0.0027(2) 0.99134(15)
C9_6 C 0.3796(3) 0.1661(2) 0.93533(17)
O1_6 O 0.0905(2) 0.84952(18) 0.98592(13)
O4_6 O 0.1853(3) 0.8145(2) 0.74901(14)
O5_6 O 0.1591(2) 0.9717(2) 0.73111(13)
C1_6 C 0.2325(3) 0.8670(2) 0.90887(17)
H3_6 H 0.2449 0.7965 0.8988
C2_6 C 0.2687(3) 0.9230(2) 0.84157(16)
H4_6 H 0.3415 0.8971 0.8338
C6_6 C 0.3098(3) 0.8904(2) 0.97566(17)
H10_6 H 0.3807 0.8610 0.9692
C7_6 C 0.1114(3) 0.8738(2) 0.92263(17)
C8_6 C 0.1980(3) 0.9025(3) 0.77070(19)
O12_4 O 0.1193(3) 0.72211(18) 0.61839(13)
O2_6 O 0.9964(3) 0.7919(2) 0.13298(14)
H2_6 H 0.9387 0.7756 0.1527
O11_4 O 0.8977(2) 0.69377(17) 0.99988(12)
O1_7 O 0.4095(2) 0.34952(18) 0.51408(13)
O2_7 O 0.5036(3) 0.2919(2) 0.36702(14)
H1_5 H 0.4754 0.3432 0.3460
H2_7 H 0.5613 0.2756 0.3473
O3_4 O 0.45810(19) 0.39635(18) 0.62850(12)
O4_7 O 0.3147(3) 0.3145(2) 0.75099(14)
O5_7 O 0.3409(2) 0.4717(2) 0.76889(13)
C1_7 C 0.2675(3) 0.3670(2) 0.59113(17)
H3_7 H 0.2551 0.2965 0.6012
C2_7 C 0.2313(3) 0.4230(2) 0.65843(16)
H4_7 H 0.1585 0.3971 0.6662
C3_7 C 0.2160(3) 0.5345(2) 0.64590(16)
H5_7 H 0.1852 0.5640 0.6876
H6_7 H 0.2867 0.5652 0.6410
C4_7 C 0.1400(3) 0.5554(2) 0.57736(15)
H7_7 H 0.0687 0.5272 0.5867
C5_7 C 0.1743(2) 0.5027(2) 0.50866(15)
H8_7 H 0.1134 0.5094 0.4712
C6_7 C 0.1902(3) 0.3904(2) 0.52434(17)
H9_5 H 0.2183 0.3592 0.4824
H10_7 H 0.1193 0.3610 0.5308
C7_7 C 0.3886(3) 0.3738(2) 0.57737(17)
C8_7 C 0.3020(3) 0.4025(3) 0.72930(19)
C9_7 C 0.1204(3) 0.6661(2) 0.56467(17)
C10_7 C 0.2735(3) 0.5516(2) 0.47996(16)
O10_4 O 0.54190(19) 0.39635(18) 0.87150(12)
O2_8 O 0.4964(3) 0.2919(2) 0.13298(14)
H1_6 H 0.5246 0.3432 0.1540
H2_8 H 0.4387 0.2756 0.1527
H8_8 H 0.8866 0.5094 0.0288
H9_6 H 0.7817 0.3592 0.0176
C10_8 C 0.7265(3) 0.5516(2) 0.02004(16)
O1_8 O 0.5905(2) 0.34952(18) 0.98592(13)
O4_8 O 0.6853(3) 0.3145(2) 0.74901(14)
O5_8 O 0.6591(2) 0.4717(2) 0.73111(13)
C1_8 C 0.7325(3) 0.3670(2) 0.90887(17)
H3_8 H 0.7449 0.2965 0.8988
C2_8 C 0.7687(3) 0.4230(2) 0.84157(16)
H4_8 H 0.8415 0.3971 0.8338
C3_8 C 0.7840(3) 0.5345(2) 0.85410(16)
H5_8 H 0.8148 0.5640 0.8124
H6_8 H 0.7133 0.5652 0.8590
C4_8 C 0.8600(3) 0.5554(2) 0.92264(15)
H7_8 H 0.9313 0.5272 0.9133
C5_8 C 0.8257(2) 0.5027(2) 0.99134(15)
C6_8 C 0.8098(3) 0.3904(2) 0.97566(17)
H10_8 H 0.8807 0.3610 0.9692
C7_8 C 0.6114(3) 0.3738(2) 0.92263(17)
C8_8 C 0.6980(3) 0.4025(3) 0.77070(19)
C9_8 C 0.8796(3) 0.6661(2) 0.93533(17)
H1_7 H 0.9754 0.1568 0.8460
H9_7 H 0.7183 0.1408 0.9824
H1_8 H 0.0246 0.8432 0.1540
H9_8 H 0.2817 0.8592 0.0176
loop_
_geom_bond_atom_site_label_1
_geom_bond_atom_site_label_2
_geom_bond_site_symmetry_1
_geom_bond_site_symmetry_2
Zn2 O4 1_555 1_555
O1 C7 1_555 1_555
O3 C7 1_555 1_555
O4 C8 1_555 1_555
O5 Zn2 1_555 1_555
C1 H3 1_555 1_555
C2 C1 1_555 1_555
H4 C2 1_555 1_555
C6 C1 1_555 1_555
H9 C6 1_555 1_555
H10 C6 1_555 1_555
C7 C1 1_555 1_555
C8 O5 1_555 1_555
O12 Zn2 1_555 1_555
O13 Zn2 1_555 1_555
C2 C8 1_555 1_555
O6 C9 1_555 1_555
O7 C9 1_555 1_555
O8 C10 1_555 1_555
O9 C10 1_555 1_555
H5 C3 1_555 1_555
H6 C3 1_555 1_555
C4 C3 1_555 1_555
H7 C4 1_555 1_555
C5 C4 1_555 1_555
H8 C5 1_555 1_555
C9 C4 1_555 1_555
C10 C5 1_555 1_555
Zn3 O6 1_555 1_555
Zn4 O9 1_555 1_555
Zn6 O7 1_555 1_555
Zn7 O8 1_555 1_555
O2 Zn1 1_555 1_555
H2 O2 1_555 1_555
O11 Zn1 1_555 1_555
O14 Zn1 1_555 1_555
O2_2 Zn1_2 1_555 1_555
H2_2 O2_2 1_555 1_555
O14_2 Zn1_2 1_555 1_555
Zn5 O4_2 1_555 1_555
O1_2 C7_2 1_555 1_555
O10 C7_2 1_555 1_555
O4_2 C8_2 1_555 1_555
O5_2 Zn5 1_555 1_555
C1_2 H3_2 1_555 1_555
C2_2 C1_2 1_555 1_555
H4_2 C2_2 1_555 1_555
C6_2 C1_2 1_555 1_555
H10_2 C6_2 1_555 1_555
C7_2 C1_2 1_555 1_555
C8_2 O5_2 1_555 1_555
O12_2 Zn5 1_555 1_555
O13_2 Zn5 1_555 1_555
C2_2 C8_2 1_555 1_555
O6_2 C9_2 1_555 1_555
O7_2 C9_2 1_555 1_555
H5_2 C3_2 1_555 1_555
H6_2 C3_2 1_555 1_555
C4_2 C3_2 1_555 1_555
H7_2 C4_2 1_555 1_555
C5_2 C4_2 1_555 1_555
C9_2 C4_2 1_555 1_555
Zn4_2 O9_2 1_555 1_555
Zn6_2 O7_2 1_555 1_555
O8_2 C10_2 1_555 1_555
Zn7_2 O8_2 1_555 1_555
Zn3 O1_3 1_555 1_555
Zn6_2 O4_3 1_555 1_555
O1_3 C7_3 1_555 1_555
O2_3 Zn3 1_555 1_555
H1_2 O2_3 1_555 1_555
H2_3 O2_3 1_555 1_555
O3_2 C7_3 1_555 1_555
O4_3 C8_3 1_555 1_555
O5_3 Zn6_2 1_555 1_555
O11 C9_3 1_555 1_555
O12_2 C9_3 1_555 1_555
O8_3 C10_3 1_555 1_555
O9_3 C10_3 1_555 1_555
C1_3 H3_3 1_555 1_555
C2_3 C1_3 1_555 1_555
H4_3 C2_3 1_555 1_555
C3_3 C2_3 1_555 1_555
H5_3 C3_3 1_555 1_555
H6_3 C3_3 1_555 1_555
C4_3 C3_3 1_555 1_555
H7_3 C4_3 1_555 1_555
C5_3 C4_3 1_555 1_555
H8_3 C5_3 1_555 1_555
C6_3 C1_3 1_555 1_555
H9_2 C6_3 1_555 1_555
H10_3 C6_3 1_555 1_555
C7_3 C1_3 1_555 1_555
C8_3 O5_3 1_555 1_555
C9_3 C4_3 1_555 1_555
C10_3 C5_3 1_555 1_555
Zn4_3 O9_3 1_555 1_555
Zn6 O3_2 1_555 1_555
Zn7_3 O8_3 1_555 1_555
O10_2 Zn6_2 1_555 1_555
O13_3 Zn6_2 1_555 1_555
O14_3 Zn3 1_555 1_555
C2_3 C8_3 1_555 1_555
C5_3 C6_3 1_555 1_555
Zn6 O4_4 1_555 1_555
O1_4 C7_4 1_555 1_555
O10_2 C7_4 1_555 1_555
O4_4 C8_4 1_555 1_555
O5_4 Zn6 1_555 1_555
O11_2 C9_4 1_555 1_555
O12 C9_4 1_555 1_555
C1_4 H3_4 1_555 1_555
C2_4 C1_4 1_555 1_555
H4_4 C2_4 1_555 1_555
C3_4 C2_4 1_555 1_555
H5_4 C3_4 1_555 1_555
H6_4 C3_4 1_555 1_555
C4_4 C3_4 1_555 1_555
H7_4 C4_4 1_555 1_555
C5_4 C4_4 1_555 1_555
C6_4 C1_4 1_555 1_555
H10_4 C6_4 1_555 1_555
C7_4 C1_4 1_555 1_555
C8_4 O5_4 1_555 1_555
C9_4 C4_4 1_555 1_555
Zn4_4 O9_4 1_555 1_555
O13_4 Zn6 1_555 1_555
C2_4 C8_4 1_555 1_555
C5_4 C6_4 1_555 1_555
O2_4 Zn3_2 1_555 1_555
H1_3 O2_4 1_555 1_555
H2_4 O2_4 1_555 1_555
O8_4 C10_4 1_555 1_555
Zn7_4 O8_4 1_555 1_555
O14_4 Zn3_2 1_555 1_555
O2_5 Zn4 1_555 1_555
H2_5 O2_5 1_555 1_555
O11_3 Zn4 1_555 1_555
O6_3 C9_5 1_555 1_555
O7_3 C9_5 1_555 1_555
O13_2 C10_5 1_555 1_555
O14 C10_5 1_555 1_555
H5_5 C3_5 1_555 1_555
H6_5 C3_5 1_555 1_555
C4_5 C3_5 1_555 1_555
H7_5 C4_5 1_555 1_555
C5_5 C4_5 1_555 1_555
H8_5 C5_5 1_555 1_555
C9_5 C4_5 1_555 1_555
C10_5 C5_5 1_555 1_555
Zn4_3 O6_3 1_555 1_555
Zn7_3 O7_3 1_555 1_555
Zn7_2 O4_5 1_555 1_555
O1_5 C7_5 1_555 1_555
O3_3 C7_5 1_555 1_555
O4_5 C8_5 1_555 1_555
O5_5 Zn7_2 1_555 1_555
C1_5 H3_5 1_555 1_555
C2_5 C1_5 1_555 1_555
H4_5 C2_5 1_555 1_555
C6_5 C1_5 1_555 1_555
H9_4 C6_5 1_555 1_555
H10_5 C6_5 1_555 1_555
C7_5 C1_5 1_555 1_555
C8_5 O5_5 1_555 1_555
O12_3 Zn7_2 1_555 1_555
C2_5 C8_5 1_555 1_555
O13 C10_6 1_555 1_555
O6_4 C9_6 1_555 1_555
O7_4 C9_6 1_555 1_555
H5_6 C3_6 1_555 1_555
H6_6 C3_6 1_555 1_555
C4_6 C3_6 1_555 1_555
H7_6 C4_6 1_555 1_555
C5_6 C4_6 1_555 1_555
C9_6 C4_6 1_555 1_555
Zn7_4 O7_4 1_555 1_555
Zn7 O4_6 1_555 1_555
O1_6 C7_6 1_555 1_555
O10_3 C7_6 1_555 1_555
O4_6 C8_6 1_555 1_555
O5_6 Zn7 1_555 1_555
C1_6 H3_6 1_555 1_555
C2_6 C1_6 1_555 1_555
H4_6 C2_6 1_555 1_555
C6_6 C1_6 1_555 1_555
H10_6 C6_6 1_555 1_555
C7_6 C1_6 1_555 1_555
C8_6 O5_6 1_555 1_555
O12_4 Zn7 1_555 1_555
C2_6 C8_6 1_555 1_555
O2_6 Zn4_2 1_555 1_555
H2_6 O2_6 1_555 1_555
Zn4_3 O1_7 1_555 1_555
Zn7_4 O4_7 1_555 1_555
O1_7 C7_7 1_555 1_555
O2_7 Zn4_3 1_555 1_555
H1_5 O2_7 1_555 1_555
H2_7 O2_7 1_555 1_555
O3_4 C7_7 1_555 1_555
O4_7 C8_7 1_555 1_555
O5_7 Zn7_4 1_555 1_555
O11_3 C9_7 1_555 1_555
O12_4 C9_7 1_555 1_555
O13_4 C10_7 1_555 1_555
O14_3 C10_7 1_555 1_555
C1_7 H3_7 1_555 1_555
C2_7 C1_7 1_555 1_555
H4_7 C2_7 1_555 1_555
C3_7 C2_7 1_555 1_555
H5_7 C3_7 1_555 1_555
H6_7 C3_7 1_555 1_555
C4_7 C3_7 1_555 1_555
H7_7 C4_7 1_555 1_555
C5_7 C4_7 1_555 1_555
H8_7 C5_7 1_555 1_555
C6_7 C1_7 1_555 1_555
H9_5 C6_7 1_555 1_555
H10_7 C6_7 1_555 1_555
C7_7 C1_7 1_555 1_555
C8_7 O5_7 1_555 1_555
C9_7 C4_7 1_555 1_555
C10_7 C5_7 1_555 1_555
Zn7_3 O3_4 1_555 1_555
O10_4 Zn7_4 1_555 1_555
C2_7 C8_7 1_555 1_555
C5_7 C6_7 1_555 1_555
O2_8 Zn4_4 1_555 1_555
H1_6 O2_8 1_555 1_555
H2_8 O2_8 1_555 1_555
O13_3 C10_8 1_555 1_555
Zn7_3 O4_8 1_555 1_555
O1_8 C7_8 1_555 1_555
O10_4 C7_8 1_555 1_555
O4_8 C8_8 1_555 1_555
O5_8 Zn7_3 1_555 1_555
O11_4 C9_8 1_555 1_555
O12_3 C9_8 1_555 1_555
C1_8 H3_8 1_555 1_555
C2_8 C1_8 1_555 1_555
H4_8 C2_8 1_555 1_555
C3_8 C2_8 1_555 1_555
H5_8 C3_8 1_555 1_555
H6_8 C3_8 1_555 1_555
C4_8 C3_8 1_555 1_555
H7_8 C4_8 1_555 1_555
C5_8 C4_8 1_555 1_555
C6_8 C1_8 1_555 1_555
H10_8 C6_8 1_555 1_555
C7_8 C1_8 1_555 1_555
C8_8 O5_8 1_555 1_555
C9_8 C4_8 1_555 1_555
C2_8 C8_8 1_555 1_555
C5_8 C6_8 1_555 1_555

#END
