
###############################################################################
#
# This file contains modified crystal structure data generated from the
# MOF subset of the Cambridge Structural Database (CSD) v543 
# hosted by the Cambridge Crystallographic Data Centre (CCDC).
#
# This work is licensed under the Creative Commons
# Attribution-NonCommercial-ShareAlike 4.0 International License.
# To view a copy of this license, visit
# http://creativecommons.org/licenses/by-nc-sa/4.0/
# or send a letter to
# Creative Commons, PO Box 1866, Mountain View, CA 94042, USA.
#
# CIF created using the CSD Python API on 29 September 2022
# The structure has been converted into the P1 space group
# The structure has a 3D framework
# The original CSD entry CACKEZ is in the monoclinic crystal system
# The framework has been calculated to contain at least 10.0% void space
# The void calculation uses a probe of radius 1.32A, grid spacing 0.4
#
###############################################################################

data_CACKEZ
_chemical_formula_moiety         '(C104 H64 N16 O32 Zn4)n'
_symmetry_cell_setting           triclinic
_symmetry_space_group_name_H-M   'P 1'
_symmetry_Int_Tables_number      1
_space_group_name_Hall           'P 1'
loop_
_symmetry_equiv_pos_site_id
_symmetry_equiv_pos_as_xyz
1 x,y,z
_cell_length_a                   19.13(3)
_cell_length_b                   26.34(4)
_cell_length_c                   11.628(17)
_cell_angle_alpha                90
_cell_angle_beta                 90.671(18)
_cell_angle_gamma                90
_cell_volume                     5858.76
loop_
_atom_site_label
_atom_site_type_symbol
_atom_site_fract_x
_atom_site_fract_y
_atom_site_fract_z
H32 H 0.1433 0.2856 0.0358
N8 N 0.1055(7) 0.1876(6) 0.0094(14)
O11 O 0.1700(4) 0.3776(3) 0.0296(7)
O15 O 0.1449(9) 0.1971(5) 0.0981(15)
O16 O 0.0817(10) 0.1468(6) 0.0092(13)
H5 H 0.0561 0.0252 0.0426
H18 H 0.0076 0.0436 0.2089
C42 C 0.0011(6) 0.1647(4) 0.7173(7)
H28 H 0.0306 0.1826 0.6688
C46 C 0.1195(5) 0.3780(3) 0.9540(9)
C47 C 0.0876(4) 0.3268(3) 0.9239(7)
C48 C 0.0325(6) 0.3219(3) 0.8484(8)
H30 H 0.0138 0.3511 0.8147
C49 C 0.0040(6) 0.2760(4) 0.8206(8)
C50 C 0.0255(5) 0.2310(3) 0.8704(7)
C51 C 0.0799(5) 0.2353(3) 0.9472(9)
C52 C 0.1093(5) 0.2837(4) 0.9782(8)
O12 O 0.0961(3) 0.41763(18) 0.9119(5)
Zn5 Zn 0.14496(4) 0.47477(3) 0.97754(7)
C39 C 0.1130(4) 0.5456(3) 0.8095(7)
C40 C 0.0755(4) 0.5926(3) 0.7605(5)
C41 C 0.0332(5) 0.6203(3) 0.8245(7)
H27 H 0.0257 0.6104 0.9001
C43 C 0.0084(5) 0.6819(3) 0.6705(6)
C44 C 0.0511(5) 0.6502(3) 0.6017(5)
C45 C 0.0841(5) 0.6082(3) 0.6496(5)
H29 H 0.1139 0.5895 0.6033
H31 H 0.0317 0.7750 0.7344
N7 N 0.0656(4) 0.6635(3) 0.4798(7)
O9 O 0.1040(3) 0.53886(19) 0.9170(4)
O10 O 0.1431(4) 0.5186(2) 0.7413(6)
O13 O 0.0664(5) 0.7077(3) 0.4568(6)
O14 O 0.0755(8) 0.6292(4) 0.4156(8)
N9 N 0.2515(3) 0.4804(2) 0.9807(6)
N1 N 0.8903(3) 0.51756(19) 0.8533(3)
C1 C 0.9440(3) 0.48339(19) 0.8324(4)
H1 H 0.9615 0.4633 0.8919
C2 C 0.9716(3) 0.4793(2) 0.7228(4)
C3 C 0.9455(3) 0.5094(3) 0.6340(3)
C4 C 0.8917(4) 0.5436(2) 0.6548(4)
H3 H 0.8743 0.5637 0.5954
C5 C 0.8641(3) 0.5476(2) 0.7645(5)
H4 H 0.8282 0.5705 0.7784
C6 C 0.9713(5) 0.5098(3) 0.5141(7)
H5_2 H 0.9439 0.5252 0.4574
C10 C 0.6320(3) 0.5439(3) 0.9617(9)
H8 H 0.6018 0.5666 0.9251
C11 C 0.7034(3) 0.5535(3) 0.9646(8)
H9 H 0.7210 0.5825 0.9299
H18_2 H 0.9924 0.5436 0.2911
C33 C 0.2778(3) 0.5238(2) 0.9289(8)
H22 H 0.2476 0.5465 0.8924
C34 C 0.3493(3) 0.53339(13) 0.9318(9)
H23 H 0.3669 0.5624 0.8972
C35 C 0.3944(2) 0.4995(2) 0.9865(9)
C38 C 0.4690(5) 0.5083(3) 0.9740(13)
H26 H 0.4777 0.5312 0.9151
N1_2 N 0.1097(3) 0.01756(19) 0.6467(3)
C3_2 C 0.0545(3) 0.0094(3) 0.8660(3)
C4_2 C 0.1083(4) 0.0436(2) 0.8452(4)
H3_2 H 0.1257 0.0637 0.9046
C5_2 C 0.1359(3) 0.0476(2) 0.7355(5)
H4_2 H 0.1718 0.0705 0.7216
C6_2 C 0.0287(5) 0.0098(3) 0.9859(7)
N2 N 0.2515(3) 0.0196(2) 0.4807(6)
C9 C 0.3944(2) 0.0005(2) 0.4865(9)
C10_2 C 0.3680(3) 0.0439(3) 0.5383(9)
H8_2 H 0.3982 0.0666 0.5749
C11_2 C 0.2966(3) 0.0535(3) 0.5354(8)
H9_2 H 0.2790 0.0825 0.5701
Zn1 Zn 0.14496(4) 0.02523(3) 0.47754(7)
C33_2 C 0.7222(3) 0.0238(2) 0.5711(8)
H22_2 H 0.7524 0.0465 0.6076
C34_2 C 0.6507(3) 0.03339(13) 0.5682(9)
H23_2 H 0.6331 0.0624 0.6028
C38_2 C 0.5310(5) 0.0083(3) 0.5260(13)
H26_2 H 0.5223 0.0312 0.5849
O17 O 0.0961(3) 0.08237(18) 0.4119(5)
C27 C 0.9440(3) 0.01661(19) 0.3324(4)
H17 H 0.9615 0.0367 0.3919
C28 C 0.9716(3) 0.0207(2) 0.2228(4)
C39_2 C 0.8870(4) 0.0456(3) 0.6905(7)
C40_2 C 0.9245(4) 0.0926(3) 0.7395(5)
C41_2 C 0.9668(5) 0.1203(3) 0.6755(7)
H27_2 H 0.9743 0.1104 0.5999
C43_2 C 0.9916(5) 0.1819(3) 0.8295(6)
C44_2 C 0.9489(5) 0.1502(3) 0.8983(5)
C45_2 C 0.9159(5) 0.1082(3) 0.8504(5)
H29_2 H 0.8861 0.0895 0.8967
H31_2 H 0.9683 0.2750 0.7656
O9_2 O 0.8960(3) 0.03886(19) 0.5830(4)
O10_2 O 0.8569(4) 0.0186(2) 0.7587(6)
C16 C 0.0011(6) 0.3353(4) 0.2173(7)
H12 H 0.0306 0.3174 0.1688
C20 C 0.1195(5) 0.1220(3) 0.4540(9)
C21 C 0.0876(4) 0.1732(3) 0.4239(7)
C22 C 0.0325(6) 0.1781(3) 0.3484(8)
H14 H 0.0138 0.1489 0.3147
C23 C 0.0040(6) 0.2240(4) 0.3206(8)
C24 C 0.0255(5) 0.2690(3) 0.3704(7)
C25 C 0.0799(5) 0.2647(3) 0.4472(9)
C26 C 0.1093(5) 0.2163(4) 0.4782(8)
H16 H 0.1433 0.2144 0.5358
N4 N 0.1055(7) 0.3124(6) 0.5094(14)
O3 O 0.1700(4) 0.1224(3) 0.5296(7)
O7 O 0.1449(9) 0.3029(5) 0.5981(15)
O8 O 0.0817(10) 0.3532(6) 0.5092(13)
C1_2 C 0.0560(3) 0.98339(19) 0.6676(4)
H1_2 H 0.0385 0.9633 0.6081
C2_2 C 0.0284(3) 0.9793(2) 0.7772(4)
C7 C 0.2778(3) 0.9762(2) 0.4289(8)
H6 H 0.2476 0.9535 0.3924
C8 C 0.3493(3) 0.96661(13) 0.4318(9)
H7 H 0.3669 0.9376 0.3972
C12 C 0.4690(5) 0.9917(3) 0.4740(13)
H10 H 0.4777 0.9688 0.4151
C13 C 0.1130(4) 0.9544(3) 0.3095(7)
C14 C 0.0755(4) 0.9074(3) 0.2605(5)
C15 C 0.0332(5) 0.8797(3) 0.3245(7)
H11 H 0.0257 0.8896 0.4001
C17 C 0.0084(5) 0.8181(3) 0.1705(6)
C18 C 0.0511(5) 0.8498(3) 0.1017(5)
C19 C 0.0841(5) 0.8918(3) 0.1496(5)
H13 H 0.1139 0.9105 0.1033
H15 H 0.0317 0.7250 0.2344
O1 O 0.1040(3) 0.96114(19) 0.4170(4)
O2 O 0.1431(4) 0.9814(2) 0.2413(6)
N6 N 0.7485(3) 0.9804(2) 0.5193(6)
C35_2 C 0.6056(2) 0.9995(2) 0.5135(9)
C36 C 0.6320(3) 0.9561(3) 0.4617(9)
H24 H 0.6018 0.9334 0.4251
C37 C 0.7034(3) 0.9465(3) 0.4646(8)
H25 H 0.7210 0.9175 0.4299
Zn4 Zn 0.85504(4) 0.97477(3) 0.52246(7)
N5 N 0.8903(3) 0.98244(19) 0.3533(3)
C29 C 0.9455(3) 0.9906(3) 0.1340(3)
C30 C 0.8917(4) 0.9564(2) 0.1548(4)
H19 H 0.8743 0.9363 0.0954
C31 C 0.8641(3) 0.9524(2) 0.2645(5)
H20 H 0.8282 0.9295 0.2784
C32 C 0.9713(5) 0.9902(3) 0.0141(7)
O18 O 0.9039(3) 0.91763(18) 0.5881(5)
C42_2 C 0.9989(6) 0.6647(4) 0.7827(7)
H28_2 H 0.9694 0.6826 0.8312
C46_2 C 0.8805(5) 0.8780(3) 0.5460(9)
C47_2 C 0.9124(4) 0.8268(3) 0.5761(7)
C48_2 C 0.9675(6) 0.8219(3) 0.6516(8)
H30_2 H 0.9862 0.8511 0.6853
C49_2 C 0.9960(6) 0.7760(4) 0.6794(8)
C50_2 C 0.9745(5) 0.7310(3) 0.6296(7)
C51_2 C 0.9201(5) 0.7353(3) 0.5528(9)
C52_2 C 0.8907(5) 0.7837(4) 0.5218(8)
H32_2 H 0.8567 0.7856 0.4642
N8_2 N 0.8945(7) 0.6876(6) 0.4906(14)
O11_2 O 0.8300(4) 0.8776(3) 0.4704(7)
O15_2 O 0.8551(9) 0.6971(5) 0.4019(15)
O16_2 O 0.9183(10) 0.6468(6) 0.4908(13)
N3 N 0.0656(4) 0.8365(3) 0.9798(7)
O5 O 0.0664(5) 0.7923(3) 0.9568(6)
O6 O 0.0755(8) 0.8708(4) 0.9156(8)
N7_2 N 0.9344(4) 0.1635(3) 0.0202(7)
O13_2 O 0.9336(5) 0.2077(3) 0.0432(6)
O14_2 O 0.9245(8) 0.1292(4) 0.0844(8)
H2 H 0.9924 0.9564 0.7911
C16_2 C 0.9989(6) 0.8353(4) 0.2827(7)
H12_2 H 0.9694 0.8174 0.3312
C20_2 C 0.8805(5) 0.6220(3) 0.0460(9)
C21_2 C 0.9124(4) 0.6732(3) 0.0761(7)
C22_2 C 0.9675(6) 0.6781(3) 0.1516(8)
H14_2 H 0.9862 0.6489 0.1853
C23_2 C 0.9960(6) 0.7240(4) 0.1794(8)
C24_2 C 0.9745(5) 0.7690(3) 0.1296(7)
C25_2 C 0.9201(5) 0.7647(3) 0.0528(9)
C26_2 C 0.8907(5) 0.7163(4) 0.0218(8)
O4 O 0.9039(3) 0.58237(18) 0.0881(5)
H21 H 0.9439 0.9748 0.9574
Zn3 Zn 0.85504(4) 0.52523(3) 0.02246(7)
H2_2 H 0.0076 0.4564 0.7089
N5_2 N 0.1097(3) 0.48244(19) 0.1467(3)
C27_2 C 0.0560(3) 0.51661(19) 0.1676(4)
H17_2 H 0.0385 0.5367 0.1081
C28_2 C 0.0284(3) 0.5207(2) 0.2772(4)
C29_2 C 0.0545(3) 0.4906(3) 0.3660(3)
C30_2 C 0.1083(4) 0.4564(2) 0.3452(4)
H19_2 H 0.1257 0.4363 0.4046
C31_2 C 0.1359(3) 0.4524(2) 0.2355(5)
H20_2 H 0.1718 0.4295 0.2216
C32_2 C 0.0287(5) 0.4902(3) 0.4859(7)
H21_2 H 0.0561 0.4748 0.5426
N2_2 N 0.7485(3) 0.5196(2) 0.0193(6)
C7_2 C 0.7222(3) 0.4762(2) 0.0711(8)
H6_2 H 0.7524 0.4535 0.1076
C8_2 C 0.6507(3) 0.46661(13) 0.0682(9)
H7_2 H 0.6331 0.4376 0.1028
C9_2 C 0.6056(2) 0.5005(2) 0.0135(9)
C12_2 C 0.5310(5) 0.4917(3) 0.0260(13)
H10_2 H 0.5223 0.4688 0.0849
C13_2 C 0.8870(4) 0.4544(3) 0.1905(7)
C14_2 C 0.9245(4) 0.4074(3) 0.2395(5)
C15_2 C 0.9668(5) 0.3797(3) 0.1755(7)
H11_2 H 0.9743 0.3896 0.0999
C17_2 C 0.9916(5) 0.3181(3) 0.3295(6)
C18_2 C 0.9489(5) 0.3498(3) 0.3983(5)
C19_2 C 0.9159(5) 0.3918(3) 0.3504(5)
H13_2 H 0.8861 0.4105 0.3967
H15_2 H 0.9683 0.2250 0.2656
N3_2 N 0.9344(4) 0.3365(3) 0.5202(7)
O1_2 O 0.8960(3) 0.46114(19) 0.0830(4)
O2_2 O 0.8569(4) 0.4814(2) 0.2587(6)
O5_2 O 0.9336(5) 0.2923(3) 0.5432(6)
O6_2 O 0.9245(8) 0.3708(4) 0.5844(8)
C36_2 C 0.3680(3) 0.4561(3) 0.0383(9)
H24_2 H 0.3982 0.4334 0.0749
C37_2 C 0.2966(3) 0.4465(3) 0.0354(8)
H25_2 H 0.2790 0.4175 0.0701
H16_2 H 0.8567 0.7144 0.9642
N4_2 N 0.8945(7) 0.8124(6) 0.9906(14)
O3_2 O 0.8300(4) 0.6224(3) 0.9704(7)
O7_2 O 0.8551(9) 0.8029(5) 0.9019(15)
O8_2 O 0.9183(10) 0.8532(6) 0.9908(13)
loop_
_geom_bond_atom_site_label_1
_geom_bond_atom_site_label_2
_geom_bond_site_symmetry_1
_geom_bond_site_symmetry_2
O15 N8 1_555 1_555
O16 N8 1_555 1_555
H28 C42 1_555 1_555
C46 C47 1_555 1_555
C47 C48 1_555 1_555
C48 H30 1_555 1_555
C49 C48 1_555 1_555
C51 C50 1_555 1_555
C52 C47 1_555 1_555
O12 C46 1_555 1_555
Zn5 O12 1_555 1_555
C49 C50 1_555 1_555
C51 C52 1_555 1_555
C39 C40 1_555 1_555
C40 C41 1_555 1_555
C41 H27 1_555 1_555
C44 C43 1_555 1_555
C45 C40 1_555 1_555
H29 C45 1_555 1_555
N7 C44 1_555 1_555
O9 C39 1_555 1_555
O10 C39 1_555 1_555
O13 N7 1_555 1_555
O14 N7 1_555 1_555
N9 Zn5 1_555 1_555
C44 C45 1_555 1_555
O9 Zn5 1_555 1_555
N1 C1 1_555 1_555
C1 H1 1_555 1_555
C2 C1 1_555 1_555
C3 C2 1_555 1_555
C4 C3 1_555 1_555
H3 C4 1_555 1_555
C5 N1 1_555 1_555
H4 C5 1_555 1_555
C6 C3 1_555 1_555
H5_2 C6 1_555 1_555
H8 C10 1_555 1_555
H9 C11 1_555 1_555
N9 C33 1_555 1_555
C33 H22 1_555 1_555
C34 C33 1_555 1_555
H23 C34 1_555 1_555
C35 C34 1_555 1_555
H26 C38 1_555 1_555
C4 C5 1_555 1_555
C10 C11 1_555 1_555
C35 C38 1_555 1_555
C4_2 C3_2 1_555 1_555
H3_2 C4_2 1_555 1_555
C5_2 N1_2 1_555 1_555
H4_2 C5_2 1_555 1_555
C6_2 C3_2 1_555 1_555
C10_2 C9 1_555 1_555
H8_2 C10_2 1_555 1_555
C11_2 N2 1_555 1_555
H9_2 C11_2 1_555 1_555
Zn1 N1_2 1_555 1_555
C33_2 H22_2 1_555 1_555
C34_2 C33_2 1_555 1_555
H23_2 C34_2 1_555 1_555
H26_2 C38_2 1_555 1_555
O17 Zn1 1_555 1_555
C4_2 C5_2 1_555 1_555
N2 Zn1 1_555 1_555
C10_2 C11_2 1_555 1_555
C27 H17 1_555 1_555
C28 C27 1_555 1_555
C39_2 C40_2 1_555 1_555
C40_2 C41_2 1_555 1_555
C41_2 H27_2 1_555 1_555
C44_2 C43_2 1_555 1_555
C45_2 C40_2 1_555 1_555
H29_2 C45_2 1_555 1_555
O9_2 C39_2 1_555 1_555
O10_2 C39_2 1_555 1_555
C44_2 C45_2 1_555 1_555
H12 C16 1_555 1_555
C20 C21 1_555 1_555
C21 C22 1_555 1_555
C22 H14 1_555 1_555
C23 C22 1_555 1_555
C25 C24 1_555 1_555
C26 C21 1_555 1_555
H16 C26 1_555 1_555
N4 C25 1_555 1_555
O3 C20 1_555 1_555
O17 C20 1_555 1_555
O7 N4 1_555 1_555
O8 N4 1_555 1_555
C23 C24 1_555 1_555
C25 C26 1_555 1_555
C1_2 H1_2 1_555 1_555
C2_2 C1_2 1_555 1_555
C7 H6 1_555 1_555
C8 C7 1_555 1_555
H7 C8 1_555 1_555
H10 C12 1_555 1_555
C13 C14 1_555 1_555
C14 C15 1_555 1_555
C15 H11 1_555 1_555
C18 C17 1_555 1_555
C19 C14 1_555 1_555
H13 C19 1_555 1_555
O1 C13 1_555 1_555
O2 C13 1_555 1_555
C36 C35_2 1_555 1_555
H24 C36 1_555 1_555
C37 N6 1_555 1_555
H25 C37 1_555 1_555
Zn4 N6 1_555 1_555
C18 C19 1_555 1_555
C36 C37 1_555 1_555
C30 C29 1_555 1_555
H19 C30 1_555 1_555
C31 N5 1_555 1_555
H20 C31 1_555 1_555
Zn4 N5 1_555 1_555
O18 Zn4 1_555 1_555
C29 C32 1_555 1_555
C30 C31 1_555 1_555
H28_2 C42_2 1_555 1_555
C46_2 C47_2 1_555 1_555
C47_2 C48_2 1_555 1_555
C48_2 H30_2 1_555 1_555
C49_2 C48_2 1_555 1_555
C51_2 C50_2 1_555 1_555
C52_2 C47_2 1_555 1_555
H32_2 C52_2 1_555 1_555
N8_2 C51_2 1_555 1_555
O11_2 C46_2 1_555 1_555
O18 C46_2 1_555 1_555
O15_2 N8_2 1_555 1_555
O16_2 N8_2 1_555 1_555
C49_2 C50_2 1_555 1_555
C51_2 C52_2 1_555 1_555
O5 N3 1_555 1_555
O6 N3 1_555 1_555
O13_2 N7_2 1_555 1_555
O14_2 N7_2 1_555 1_555
H12_2 C16_2 1_555 1_555
C20_2 C21_2 1_555 1_555
C21_2 C22_2 1_555 1_555
C22_2 H14_2 1_555 1_555
C23_2 C22_2 1_555 1_555
C25_2 C24_2 1_555 1_555
C26_2 C21_2 1_555 1_555
O4 C20_2 1_555 1_555
Zn3 O4 1_555 1_555
C23_2 C24_2 1_555 1_555
C25_2 C26_2 1_555 1_555
N5_2 C27_2 1_555 1_555
C27_2 H17_2 1_555 1_555
C28_2 C27_2 1_555 1_555
C29_2 C28_2 1_555 1_555
C30_2 C29_2 1_555 1_555
H19_2 C30_2 1_555 1_555
C31_2 N5_2 1_555 1_555
H20_2 C31_2 1_555 1_555
H21_2 C32_2 1_555 1_555
C29_2 C32_2 1_555 1_555
C30_2 C31_2 1_555 1_555
N2_2 C7_2 1_555 1_555
C7_2 H6_2 1_555 1_555
C8_2 C7_2 1_555 1_555
H7_2 C8_2 1_555 1_555
C9_2 C8_2 1_555 1_555
C12_2 C9_2 1_555 1_555
H10_2 C12_2 1_555 1_555
C13_2 C14_2 1_555 1_555
C14_2 C15_2 1_555 1_555
C15_2 H11_2 1_555 1_555
C18_2 C17_2 1_555 1_555
C19_2 C14_2 1_555 1_555
H13_2 C19_2 1_555 1_555
N3_2 C18_2 1_555 1_555
O1_2 C13_2 1_555 1_555
O2_2 C13_2 1_555 1_555
O5_2 N3_2 1_555 1_555
O6_2 N3_2 1_555 1_555
H24_2 C36_2 1_555 1_555
H25_2 C37_2 1_555 1_555
N2_2 Zn3 1_555 1_555
C18_2 C19_2 1_555 1_555
O1_2 Zn3 1_555 1_555
C36_2 C37_2 1_555 1_555
O7_2 N4_2 1_555 1_555
O8_2 N4_2 1_555 1_555

#END
