
###############################################################################
#
# This file contains modified crystal structure data generated from the
# MOF subset of the Cambridge Structural Database (CSD) v543 
# hosted by the Cambridge Crystallographic Data Centre (CCDC).
#
# This work is licensed under the Creative Commons
# Attribution-NonCommercial-ShareAlike 4.0 International License.
# To view a copy of this license, visit
# http://creativecommons.org/licenses/by-nc-sa/4.0/
# or send a letter to
# Creative Commons, PO Box 1866, Mountain View, CA 94042, USA.
#
# CIF created using the CSD Python API on 29 September 2022
# The structure has been converted into the P1 space group
# The structure has a 3D framework
# The original CSD entry CADYUF is in the rhombohedral crystal system
# The framework has been calculated to contain at least 10.0% void space
# The void calculation uses a probe of radius 1.32A, grid spacing 0.4
#
###############################################################################

data_CADYUF
_chemical_formula_moiety         '(C108 H36 Mn6 O47)n'
_symmetry_cell_setting           triclinic
_symmetry_space_group_name_H-M   'P 1'
_symmetry_Int_Tables_number      1
_space_group_name_Hall           'P 1'
loop_
_symmetry_equiv_pos_site_id
_symmetry_equiv_pos_as_xyz
1 x,y,z
_cell_length_a                   29.519(3)
_cell_length_b                   29.519(3)
_cell_length_c                   6.9655(10)
_cell_angle_alpha                90
_cell_angle_beta                 90
_cell_angle_gamma                120
_cell_volume                     5256.37
loop_
_atom_site_label
_atom_site_type_symbol
_atom_site_fract_x
_atom_site_fract_y
_atom_site_fract_z
O1 O 0.281(6) 0.049(2) 0.224(7)
C1 C 0.301(6) 0.053(3) 0.057(9)
H1 H 0.274(2) 0.1278(15) 0.112(2)
Mn1 Mn 0.3041(2) 0.0148(3) 0.4431(8)
O8 O 0.374(9) 0.020(8) 0.332(13)
O11 O 0.350(7) 0.072(5) 0.690(13)
Mn5 Mn 0.3774(4) 0.0292(2) 0.7764(8)
O2 O 0.313(8) 0.020(4) 0.999(13)
C2 C 0.309(4) 0.0986(19) 0.926(6)
C3 C 0.333(5) 0.106(3) 0.748(8)
C4 C 0.2916(19) 0.1329(9) 0.985(2)
C5 C 0.2990(14) 0.1742(13) 0.865(3)
H2 H 0.287(3) 0.199(3) 0.907(6)
C6 C 0.3236(9) 0.1813(4) 0.6870(18)
O4 O 0.386(6) 0.284(2) 0.109(7)
O5 O 0.354(8) 0.313(4) 0.334(13)
O6 O 0.317(7) 0.261(5) 0.643(13)
C7 C 0.366(6) 0.280(3) 0.276(9)
C8 C 0.358(4) 0.2347(19) 0.407(6)
C9 C 0.334(5) 0.227(3) 0.585(8)
C10 C 0.3751(19) 0.2004(9) 0.348(2)
H3 H 0.393(2) 0.2055(15) 0.221(2)
C11 C 0.3677(14) 0.1591(13) 0.468(3)
H4 H 0.380(3) 0.134(3) 0.426(6)
C12 C 0.3431(9) 0.1520(4) 0.6463(18)
O7 O 0.435(6) 0.052(6) 0.557(7)
Mn4 Mn 0.2893(4) 0.3041(2) 0.5569(8)
Mn7 Mn 0.3626(2) 0.3185(3) 0.8902(8)
Mn9 Mn 0.3481(3) 0.3774(4) 0.2236(8)
O10 O 0.313(4) 0.960(9) 0.666(13)
O12 O 0.389(9) 0.983(7) 0.023(13)
O13 O 0.261(5) 0.945(9) 0.357(13)
Mn8 Mn 0.3185(3) 0.9560(4) 0.1098(8)
Mn4_2 Mn 0.0148(4) 0.7107(4) 0.5569(8)
Mn9_2 Mn 0.0292(5) 0.6519(3) 0.2236(8)
O1_2 O 0.768(6) 0.719(6) 0.224(7)
C1_2 C 0.752(7) 0.699(6) 0.057(9)
H1_2 H 0.8538(25) 0.726(2) 0.112(2)
Mn1_2 Mn 0.7107(4) 0.6959(2) 0.4431(8)
O8_2 O 0.647(12) 0.626(9) 0.332(13)
O10_2 O 0.646(10) 0.687(4) 0.666(13)
O11_2 O 0.722(9) 0.650(7) 0.690(13)
O12_2 O 0.595(11) 0.611(9) 0.023(13)
O13_2 O 0.683(10) 0.739(5) 0.357(13)
Mn5_2 Mn 0.6519(4) 0.6226(4) 0.7764(8)
Mn8_2 Mn 0.6374(5) 0.6815(3) 0.1098(8)
O2_2 O 0.707(9) 0.687(8) 0.999(13)
C2_2 C 0.7896(44) 0.691(4) 0.926(6)
C3_2 C 0.773(6) 0.667(5) 0.748(8)
C4_2 C 0.8413(21) 0.7084(19) 0.985(2)
C5_2 C 0.8752(19) 0.7010(14) 0.865(3)
H2_2 H 0.912(4) 0.713(3) 0.907(6)
C6_2 C 0.8577(10) 0.6764(9) 0.6870(18)
O4_2 O 0.899(6) 0.614(6) 0.109(7)
O5_2 O 0.960(9) 0.646(8) 0.334(13)
O6_2 O 0.945(9) 0.683(7) 0.643(13)
C7_2 C 0.915(7) 0.634(6) 0.276(9)
C8_2 C 0.8771(44) 0.642(4) 0.407(6)
C9_2 C 0.894(6) 0.666(5) 0.585(8)
C10_2 C 0.8254(21) 0.6249(19) 0.348(2)
H3_2 H 0.8129(25) 0.607(2) 0.221(2)
C11_2 C 0.7915(19) 0.6323(14) 0.468(3)
H4_2 H 0.755(4) 0.620(3) 0.426(6)
C12_2 C 0.8090(10) 0.6569(9) 0.6463(18)
O7_2 O 0.618(8) 0.565(6) 0.557(7)
Mn7_2 Mn 0.9560(4) 0.6374(2) 0.8902(8)
O10_3 O 0.040(9) 0.354(10) 0.666(13)
O12_3 O 0.017(7) 0.405(11) 0.023(13)
O13_3 O 0.055(9) 0.317(10) 0.357(13)
Mn8_3 Mn 0.0440(4) 0.3626(5) 0.1098(8)
O1_3 O 0.951(2) 0.232(6) 0.224(7)
C1_3 C 0.947(3) 0.248(7) 0.057(9)
H1_3 H 0.8722(15) 0.1462(25) 0.112(2)
Mn1_3 Mn 0.9852(3) 0.2893(4) 0.4431(8)
O8_3 O 0.980(8) 0.353(12) 0.332(13)
O11_3 O 0.928(5) 0.278(9) 0.690(13)
Mn5_3 Mn 0.9708(2) 0.3481(4) 0.7764(8)
O2_3 O 0.980(4) 0.293(9) 0.999(13)
C2_3 C 0.9014(19) 0.2104(44) 0.926(6)
C3_3 C 0.894(3) 0.227(6) 0.748(8)
C4_3 C 0.8671(9) 0.1587(21) 0.985(2)
C5_3 C 0.8258(13) 0.1248(19) 0.865(3)
H2_3 H 0.801(3) 0.088(4) 0.907(6)
C6_3 C 0.8187(4) 0.1423(10) 0.6870(18)
O4_3 O 0.716(2) 0.101(6) 0.109(7)
O5_3 O 0.687(4) 0.040(9) 0.334(13)
O6_3 O 0.739(5) 0.055(9) 0.643(13)
C7_3 C 0.720(3) 0.085(7) 0.276(9)
C8_3 C 0.7653(19) 0.1229(44) 0.407(6)
C9_3 C 0.773(3) 0.106(6) 0.585(8)
C10_3 C 0.7996(9) 0.1746(21) 0.348(2)
H3_3 H 0.7945(15) 0.1871(25) 0.221(2)
C11_3 C 0.8409(13) 0.2085(19) 0.468(3)
H4_3 H 0.866(3) 0.245(4) 0.426(6)
C12_3 C 0.8480(4) 0.1910(10) 0.6463(18)
O7_3 O 0.948(6) 0.382(8) 0.557(7)
Mn7_3 Mn 0.6815(3) 0.0440(4) 0.8902(8)
Mn4_3 Mn 0.6959(2) 0.9852(4) 0.5569(8)
Mn9_3 Mn 0.6226(4) 0.9708(5) 0.2236(8)
O4_4 O 0.052(6) 0.618(2) 0.443(7)
O5_4 O 0.020(8) 0.647(4) 0.668(13)
C7_4 C 0.032(6) 0.614(3) 0.610(9)
C8_4 C 0.024(4) 0.5681(19) 0.741(6)
C9_4 C 0.000(5) 0.561(3) 0.919(8)
C10_4 C 0.0417(19) 0.5338(9) 0.682(2)
H3_4 H 0.059(2) 0.5389(15) 0.555(2)
C11_4 C 0.0343(14) 0.4925(13) 0.802(3)
H4_4 H 0.046(3) 0.468(3) 0.760(6)
C12_4 C 0.0097(9) 0.4854(4) 0.9797(18)
O7_4 O 0.101(6) 0.386(6) 0.891(7)
C1_4 C 0.968(6) 0.386(3) 0.390(9)
C2_4 C 0.976(4) 0.4319(19) 0.259(6)
C3_4 C 1.000(5) 0.439(3) 0.081(8)
C4_4 C 0.9583(19) 0.4662(9) 0.318(2)
H1_4 H 0.941(2) 0.4611(15) 0.445(2)
C5_4 C 0.9657(14) 0.5075(13) 0.198(3)
H2_4 H 0.954(3) 0.532(3) 0.240(6)
C6_4 C 0.9903(9) 0.5146(4) 0.0203(18)
O6_4 O 0.983(7) 0.595(5) 0.977(13)
C1_5 C 0.419(7) 0.032(6) 0.390(9)
C2_5 C 0.4563(44) 0.024(4) 0.259(6)
C3_5 C 0.440(6) 0.000(5) 0.081(8)
C4_5 C 0.5080(21) 0.0417(19) 0.318(2)
H1_5 H 0.5205(25) 0.059(2) 0.445(2)
C5_5 C 0.5419(19) 0.0343(14) 0.198(3)
H2_5 H 0.579(4) 0.046(3) 0.240(6)
C6_5 C 0.5244(10) 0.0097(9) 0.0203(18)
O6_5 O 0.611(9) 0.017(7) 0.977(13)
O4_5 O 0.565(6) 0.948(6) 0.443(7)
O5_5 O 0.626(9) 0.980(8) 0.668(13)
C7_5 C 0.581(7) 0.968(6) 0.610(9)
C8_5 C 0.5437(44) 0.976(4) 0.741(6)
C9_5 C 0.560(6) 1.000(5) 0.919(8)
C10_5 C 0.4920(21) 0.9583(19) 0.682(2)
H3_5 H 0.4795(25) 0.941(2) 0.555(2)
C11_5 C 0.4581(19) 0.9657(14) 0.802(3)
H4_5 H 0.421(4) 0.954(3) 0.760(6)
C12_5 C 0.4756(10) 0.9903(9) 0.9797(18)
O7_5 O 0.284(8) 0.899(6) 0.891(7)
C1_6 C 0.614(3) 0.581(7) 0.390(9)
C2_6 C 0.5681(19) 0.5437(44) 0.259(6)
C3_6 C 0.561(3) 0.560(6) 0.081(8)
C4_6 C 0.5338(9) 0.4920(21) 0.318(2)
H1_6 H 0.5389(15) 0.4795(25) 0.445(2)
C5_6 C 0.4925(13) 0.4581(19) 0.198(3)
H2_6 H 0.468(3) 0.421(4) 0.240(6)
C6_6 C 0.4854(4) 0.4756(10) 0.0203(18)
O4_6 O 0.382(2) 0.435(6) 0.443(7)
O5_6 O 0.353(4) 0.374(9) 0.668(13)
O6_6 O 0.405(5) 0.389(9) 0.977(13)
C7_6 C 0.386(3) 0.419(7) 0.610(9)
C8_6 C 0.4319(19) 0.4563(44) 0.741(6)
C9_6 C 0.439(3) 0.440(6) 0.919(8)
C10_6 C 0.4662(9) 0.5080(21) 0.682(2)
H3_6 H 0.4611(15) 0.5205(25) 0.555(2)
C11_6 C 0.5075(13) 0.5419(19) 0.802(3)
H4_6 H 0.532(3) 0.579(4) 0.760(6)
C12_6 C 0.5146(4) 0.5244(10) 0.9797(18)
O7_6 O 0.614(6) 0.716(8) 0.891(7)
C1_7 C 0.634(6) 0.720(3) 0.724(9)
C2_7 C 0.642(4) 0.7653(19) 0.593(6)
C3_7 C 0.666(5) 0.773(3) 0.415(8)
C4_7 C 0.6249(19) 0.7996(9) 0.652(2)
H1_7 H 0.607(2) 0.7945(15) 0.779(2)
C5_7 C 0.6323(14) 0.8409(13) 0.532(3)
H2_7 H 0.620(3) 0.866(3) 0.574(6)
C6_7 C 0.6569(9) 0.8480(4) 0.3537(18)
O5_7 O 0.687(8) 0.980(4) 0.001(13)
O6_7 O 0.650(7) 0.928(5) 0.310(13)
C8_7 C 0.691(4) 0.9014(19) 0.074(6)
C9_7 C 0.667(5) 0.894(3) 0.252(8)
C10_7 C 0.7084(19) 0.8671(9) 0.015(2)
C11_7 C 0.7010(14) 0.8258(13) 0.135(3)
H4_7 H 0.713(3) 0.801(3) 0.093(6)
C12_7 C 0.6764(9) 0.8187(4) 0.3130(18)
O4_7 O 0.719(6) 0.951(2) 0.776(7)
C7_7 C 0.699(6) 0.947(3) 0.943(9)
H3_7 H 0.726(2) 0.8722(15) 0.888(2)
C1_8 C 0.085(7) 0.366(6) 0.724(9)
C2_8 C 0.1229(44) 0.358(4) 0.593(6)
C3_8 C 0.106(6) 0.334(5) 0.415(8)
C4_8 C 0.1746(21) 0.3751(19) 0.652(2)
H1_8 H 0.1871(25) 0.393(2) 0.779(2)
C5_8 C 0.2085(19) 0.3677(14) 0.532(3)
H2_8 H 0.245(4) 0.380(3) 0.574(6)
C6_8 C 0.1910(10) 0.3431(9) 0.3537(18)
O5_8 O 0.293(9) 0.313(8) 0.001(13)
O6_8 O 0.278(9) 0.350(7) 0.310(13)
C8_8 C 0.2104(44) 0.309(4) 0.074(6)
C9_8 C 0.227(6) 0.333(5) 0.252(8)
C10_8 C 0.1587(21) 0.2916(19) 0.015(2)
C11_8 C 0.1248(19) 0.2990(14) 0.135(3)
H4_8 H 0.088(4) 0.287(3) 0.093(6)
C12_8 C 0.1423(10) 0.3236(9) 0.3130(18)
O4_8 O 0.232(6) 0.281(6) 0.776(7)
C7_8 C 0.248(7) 0.301(6) 0.943(9)
H3_8 H 0.1462(25) 0.274(2) 0.888(2)
C1_9 C 0.280(3) 0.915(7) 0.724(9)
C2_9 C 0.2347(19) 0.8771(44) 0.593(6)
C3_9 C 0.227(3) 0.894(6) 0.415(8)
C4_9 C 0.2004(9) 0.8254(21) 0.652(2)
H1_9 H 0.2055(15) 0.8129(25) 0.779(2)
C5_9 C 0.1591(13) 0.7915(19) 0.532(3)
H2_9 H 0.134(3) 0.755(4) 0.574(6)
C6_9 C 0.1520(4) 0.8090(10) 0.3537(18)
O5_9 O 0.020(4) 0.707(9) 0.001(13)
O6_9 O 0.072(5) 0.722(9) 0.310(13)
C8_9 C 0.0986(19) 0.7896(44) 0.074(6)
C9_9 C 0.106(3) 0.773(6) 0.252(8)
C10_9 C 0.1329(9) 0.8413(21) 0.015(2)
C11_9 C 0.1742(13) 0.8752(19) 0.135(3)
H4_9 H 0.199(3) 0.912(4) 0.093(6)
C12_9 C 0.1813(4) 0.8577(10) 0.3130(18)
O4_9 O 0.049(2) 0.768(6) 0.776(7)
C7_9 C 0.053(3) 0.752(7) 0.943(9)
H3_9 H 0.1278(15) 0.8538(25) 0.888(2)
loop_
_geom_bond_atom_site_label_1
_geom_bond_atom_site_label_2
_geom_bond_site_symmetry_1
_geom_bond_site_symmetry_2
O1 C1 1_555 1_555
Mn1 O1 1_555 1_555
O8 Mn1 1_555 1_555
O11 Mn1 1_555 1_555
Mn5 Mn1 1_555 1_555
O11 Mn5 1_555 1_555
O11 C3 1_555 1_555
C2 C3 1_555 1_555
C3 C12 1_555 1_555
C4 C2 1_555 1_555
C5 C4 1_555 1_555
H2 C5 1_555 1_555
C6 C5 1_555 1_555
O4 C7 1_555 1_555
O5 C7 1_555 1_555
O6 C9 1_555 1_555
C7 C8 1_555 1_555
C8 C9 1_555 1_555
C9 C6 1_555 1_555
C10 C8 1_555 1_555
H3 C10 1_555 1_555
C11 C10 1_555 1_555
H4 C11 1_555 1_555
C12 C6 1_555 1_555
Mn5 O2 1_555 1_555
O7 Mn5 1_555 1_555
Mn4 O5 1_555 1_555
Mn7 O6 1_555 1_555
Mn9 O5 1_555 1_555
O6 Mn4 1_555 1_555
C11 C12 1_555 1_555
Mn4 Mn7 1_555 1_555
Mn4 Mn9 1_555 1_555
O12 Mn8 1_555 1_555
O13 Mn8 1_555 1_555
Mn4_2 Mn9_2 1_555 1_555
O1_2 C1_2 1_555 1_555
Mn1_2 O1_2 1_555 1_555
O8_2 Mn1_2 1_555 1_555
O10_2 Mn1_2 1_555 1_555
O11_2 Mn1_2 1_555 1_555
O13_2 Mn1_2 1_555 1_555
Mn5_2 Mn1_2 1_555 1_555
Mn1_2 Mn8_2 1_555 1_555
O8_2 Mn8_2 1_555 1_555
O10_2 Mn5_2 1_555 1_555
O11_2 Mn5_2 1_555 1_555
O12_2 Mn8_2 1_555 1_555
O13_2 Mn8_2 1_555 1_555
O11_2 C3_2 1_555 1_555
C2_2 C3_2 1_555 1_555
C3_2 C12_2 1_555 1_555
C4_2 C2_2 1_555 1_555
C5_2 C4_2 1_555 1_555
H2_2 C5_2 1_555 1_555
C6_2 C5_2 1_555 1_555
O4_2 C7_2 1_555 1_555
O5_2 C7_2 1_555 1_555
O6_2 C9_2 1_555 1_555
C7_2 C8_2 1_555 1_555
C8_2 C9_2 1_555 1_555
C9_2 C6_2 1_555 1_555
C10_2 C8_2 1_555 1_555
H3_2 C10_2 1_555 1_555
C11_2 C10_2 1_555 1_555
H4_2 C11_2 1_555 1_555
C12_2 C6_2 1_555 1_555
Mn5_2 O2_2 1_555 1_555
O7_2 Mn5_2 1_555 1_555
Mn7_2 O6_2 1_555 1_555
C11_2 C12_2 1_555 1_555
O12_3 Mn8_3 1_555 1_555
O13_3 Mn8_3 1_555 1_555
O1_3 C1_3 1_555 1_555
Mn1_3 O1_3 1_555 1_555
O8_3 Mn1_3 1_555 1_555
O11_3 Mn1_3 1_555 1_555
Mn5_3 Mn1_3 1_555 1_555
O11_3 Mn5_3 1_555 1_555
O11_3 C3_3 1_555 1_555
C2_3 C3_3 1_555 1_555
C3_3 C12_3 1_555 1_555
C4_3 C2_3 1_555 1_555
C5_3 C4_3 1_555 1_555
H2_3 C5_3 1_555 1_555
C6_3 C5_3 1_555 1_555
O4_3 C7_3 1_555 1_555
O5_3 C7_3 1_555 1_555
O6_3 C9_3 1_555 1_555
C7_3 C8_3 1_555 1_555
C8_3 C9_3 1_555 1_555
C9_3 C6_3 1_555 1_555
C10_3 C8_3 1_555 1_555
H3_3 C10_3 1_555 1_555
C11_3 C10_3 1_555 1_555
H4_3 C11_3 1_555 1_555
C12_3 C6_3 1_555 1_555
Mn5_3 O2_3 1_555 1_555
O7_3 Mn5_3 1_555 1_555
Mn7_3 O6_3 1_555 1_555
C11_3 C12_3 1_555 1_555
Mn4_3 Mn9_3 1_555 1_555
O4_4 C7_4 1_555 1_555
O5_4 C7_4 1_555 1_555
C7_4 C8_4 1_555 1_555
C8_4 C9_4 1_555 1_555
C10_4 C8_4 1_555 1_555
H3_4 C10_4 1_555 1_555
C11_4 C10_4 1_555 1_555
H4_4 C11_4 1_555 1_555
Mn9_2 O4_4 1_555 1_555
Mn4_2 O5_4 1_555 1_555
C11_4 C12_4 1_555 1_555
O7_3 C1_4 1_555 1_555
O8_3 C1_4 1_555 1_555
C1_4 C2_4 1_555 1_555
C2_4 C3_4 1_555 1_555
C4_4 C2_4 1_555 1_555
H1_4 C4_4 1_555 1_555
C5_4 C4_4 1_555 1_555
H2_4 C5_4 1_555 1_555
C6_4 C5_4 1_555 1_555
O6_4 Mn7_2 1_555 1_555
O7 C1_5 1_555 1_555
O8 C1_5 1_555 1_555
C1_5 C2_5 1_555 1_555
C2_5 C3_5 1_555 1_555
C4_5 C2_5 1_555 1_555
H1_5 C4_5 1_555 1_555
C5_5 C4_5 1_555 1_555
H2_5 C5_5 1_555 1_555
C6_5 C5_5 1_555 1_555
O6_5 Mn7_3 1_555 1_555
O4_5 C7_5 1_555 1_555
O5_5 C7_5 1_555 1_555
C7_5 C8_5 1_555 1_555
C8_5 C9_5 1_555 1_555
C10_5 C8_5 1_555 1_555
H3_5 C10_5 1_555 1_555
C11_5 C10_5 1_555 1_555
H4_5 C11_5 1_555 1_555
Mn9_3 O4_5 1_555 1_555
Mn4_3 O5_5 1_555 1_555
C11_5 C12_5 1_555 1_555
O7_2 C1_6 1_555 1_555
O8_2 C1_6 1_555 1_555
O12_2 C3_6 1_555 1_555
C1_6 C2_6 1_555 1_555
C2_6 C3_6 1_555 1_555
C4_6 C2_6 1_555 1_555
H1_6 C4_6 1_555 1_555
C5_6 C4_6 1_555 1_555
H2_6 C5_6 1_555 1_555
C6_6 C5_6 1_555 1_555
O4_6 C7_6 1_555 1_555
O5_6 C7_6 1_555 1_555
O6_6 C9_6 1_555 1_555
C7_6 C8_6 1_555 1_555
C8_6 C9_6 1_555 1_555
C10_6 C8_6 1_555 1_555
H3_6 C10_6 1_555 1_555
C11_6 C10_6 1_555 1_555
H4_6 C11_6 1_555 1_555
Mn7 O5_6 1_555 1_555
Mn9 O4_6 1_555 1_555
Mn4 O5_6 1_555 1_555
O6_6 Mn7 1_555 1_555
C11_6 C12_6 1_555 1_555
O7_6 C1_7 1_555 1_555
O10_2 C1_7 1_555 1_555
O13_2 C3_7 1_555 1_555
C1_7 C2_7 1_555 1_555
C2_7 C3_7 1_555 1_555
C3_7 C12_7 1_555 1_555
C4_7 C2_7 1_555 1_555
H1_7 C4_7 1_555 1_555
C5_7 C4_7 1_555 1_555
H2_7 C5_7 1_555 1_555
C6_7 C5_7 1_555 1_555
O6_7 C9_7 1_555 1_555
C8_7 C9_7 1_555 1_555
C9_7 C6_7 1_555 1_555
C10_7 C8_7 1_555 1_555
C11_7 C10_7 1_555 1_555
H4_7 C11_7 1_555 1_555
C12_7 C6_7 1_555 1_555
Mn9_3 O5_7 1_555 1_555
Mn4_3 O6_7 1_555 1_555
O6_7 Mn9_3 1_555 1_555
C11_7 C12_7 1_555 1_555
O4_7 C7_7 1_555 1_555
Mn4_3 O4_7 1_555 1_555
O7_4 C1_8 1_555 1_555
O10_3 C1_8 1_555 1_555
O13_3 C3_8 1_555 1_555
C1_8 C2_8 1_555 1_555
C2_8 C3_8 1_555 1_555
C3_8 C12_8 1_555 1_555
C4_8 C2_8 1_555 1_555
H1_8 C4_8 1_555 1_555
C5_8 C4_8 1_555 1_555
H2_8 C5_8 1_555 1_555
C6_8 C5_8 1_555 1_555
O6_8 C9_8 1_555 1_555
C8_8 C9_8 1_555 1_555
C9_8 C6_8 1_555 1_555
C10_8 C8_8 1_555 1_555
C11_8 C10_8 1_555 1_555
H4_8 C11_8 1_555 1_555
C12_8 C6_8 1_555 1_555
Mn9 O5_8 1_555 1_555
Mn4 O6_8 1_555 1_555
O6_8 Mn9 1_555 1_555
C11_8 C12_8 1_555 1_555
O4_8 C7_8 1_555 1_555
Mn4 O4_8 1_555 1_555
O7_5 C1_9 1_555 1_555
O10 C1_9 1_555 1_555
O13 C3_9 1_555 1_555
C1_9 C2_9 1_555 1_555
C2_9 C3_9 1_555 1_555
C3_9 C12_9 1_555 1_555
C4_9 C2_9 1_555 1_555
H1_9 C4_9 1_555 1_555
C5_9 C4_9 1_555 1_555
H2_9 C5_9 1_555 1_555
C6_9 C5_9 1_555 1_555
O6_9 C9_9 1_555 1_555
C8_9 C9_9 1_555 1_555
C9_9 C6_9 1_555 1_555
C10_9 C8_9 1_555 1_555
C11_9 C10_9 1_555 1_555
H4_9 C11_9 1_555 1_555
C12_9 C6_9 1_555 1_555
Mn9_2 O5_9 1_555 1_555
Mn4_2 O6_9 1_555 1_555
O6_9 Mn9_2 1_555 1_555
C11_9 C12_9 1_555 1_555
O4_9 C7_9 1_555 1_555
Mn4_2 O4_9 1_555 1_555

#END
