
###############################################################################
#
# This file contains modified crystal structure data generated from the
# MOF subset of the Cambridge Structural Database (CSD) v543 
# hosted by the Cambridge Crystallographic Data Centre (CCDC).
#
# This work is licensed under the Creative Commons
# Attribution-NonCommercial-ShareAlike 4.0 International License.
# To view a copy of this license, visit
# http://creativecommons.org/licenses/by-nc-sa/4.0/
# or send a letter to
# Creative Commons, PO Box 1866, Mountain View, CA 94042, USA.
#
# CIF created using the CSD Python API on 29 September 2022
# The structure has been converted into the P1 space group
# The structure has a 3D framework
# The original CSD entry CADYOZ is in the rhombohedral crystal system
# The framework has been calculated to contain at least 10.0% void space
# The void calculation uses a probe of radius 1.32A, grid spacing 0.4
#
###############################################################################

data_CADYOZ
_chemical_formula_moiety         '(C108 H36 Mn6 O48)n'
_symmetry_cell_setting           triclinic
_symmetry_space_group_name_H-M   'P 1'
_symmetry_Int_Tables_number      1
_space_group_name_Hall           'P 1'
loop_
_symmetry_equiv_pos_site_id
_symmetry_equiv_pos_as_xyz
1 x,y,z
_cell_length_a                   29.7247(12)
_cell_length_b                   29.7247(12)
_cell_length_c                   7.13761(28)
_cell_angle_alpha                90
_cell_angle_beta                 90
_cell_angle_gamma                120
_cell_volume                     5461.58
loop_
_atom_site_label
_atom_site_type_symbol
_atom_site_fract_x
_atom_site_fract_y
_atom_site_fract_z
Mn1 Mn 0.63291(16) 0.67836(14) 0.09438(57)
O1 O 0.61938(34) 0.56935(34) 0.5324(14)
O2 O 0.64163(39) 0.62008(38) 0.30662(93)
C1 C 0.61285(26) 0.58038(25) 0.37286(63)
C2 C 0.56679(25) 0.54416(22) 0.26245(70)
C3 C 0.56036(22) 0.55899(20) 0.06812(65)
C4 C 0.52907(23) 0.49555(20) 0.34425(55)
H1 H 0.53442(91) 0.48466(90) 0.4873(44)
C5 C 0.49049(23) 0.46092(19) 0.24130(55)
H2 H 0.45946(89) 0.42194(89) 0.3179(40)
C6 C 0.48228(16) 0.47616(15) 0.04105(66)
O6 O 0.40430(35) 0.39502(34) 0.0114(10)
Mn3 Mn 0.71212(21) 0.70042(16) 0.42771(57)
Mn5 Mn 0.65497(14) 0.62122(21) 0.76105(57)
Mn7 Mn 0.34503(14) 0.37878(21) 0.23895(57)
O8 O 0.38336(48) 0.28605(34) 0.1343(14)
O10 O 0.28675(38) 0.31178(54) 0.02671(93)
O11 O 0.67595(49) 0.73763(35) 0.3219(10)
O3 O 0.59570(35) 0.60498(34) 0.9886(10)
O4 O 0.38062(34) 0.43065(34) 0.4676(14)
O5 O 0.35837(39) 0.37992(38) 0.69338(93)
C7 C 0.38715(26) 0.41962(25) 0.62714(63)
C8 C 0.43321(25) 0.45584(22) 0.73755(70)
C9 C 0.43964(22) 0.44101(20) 0.93188(65)
C10 C 0.47093(23) 0.50445(20) 0.65575(55)
H3 H 0.46558(91) 0.51534(90) 0.5127(44)
C11 C 0.50951(23) 0.53908(19) 0.75870(55)
H4 H 0.54054(89) 0.57806(89) 0.6821(40)
C12 C 0.51772(16) 0.52384(15) 0.95895(66)
Mn2 Mn 0.36709(16) 0.32164(14) 0.90562(57)
Mn8 Mn 0.28788(21) 0.29958(16) 0.57229(57)
O7 O 0.61664(48) 0.71395(34) 0.8657(14)
O9 O 0.71325(38) 0.68822(54) 0.97329(93)
O12 O 0.32405(49) 0.26237(35) 0.6781(10)
Mn1_2 Mn 0.04545(21) 0.36709(16) 0.09438(57)
Mn7_2 Mn 0.03376(25) 0.65497(14) 0.23895(57)
O10_2 O 0.02504(66) 0.71325(38) 0.02671(93)
O11_2 O 0.06169(60) 0.32405(49) 0.3219(10)
O3_2 O 0.00928(49) 0.40430(35) 0.9886(10)
O4_2 O 0.05003(48) 0.61938(34) 0.4676(14)
O5_2 O 0.02155(54) 0.64163(39) 0.69338(93)
C7_2 C 0.03247(36) 0.61285(26) 0.62714(63)
C8_2 C 0.02263(33) 0.56679(25) 0.73755(70)
C9_2 C 0.00137(30) 0.56036(22) 0.93188(65)
C10_2 C 0.03352(30) 0.52907(23) 0.65575(55)
H3_2 H 0.0498(13) 0.53442(91) 0.5127(44)
C11_2 C 0.02957(30) 0.49049(23) 0.75870(55)
H4_2 H 0.0375(13) 0.45946(89) 0.6821(40)
C12_2 C 0.00612(22) 0.48228(16) 0.95895(66)
Mn8_2 Mn 0.01169(26) 0.71212(21) 0.57229(57)
O7_2 O 0.09732(59) 0.38336(48) 0.8657(14)
O1_2 O 0.94997(48) 0.38062(34) 0.5324(14)
O2_2 O 0.97845(54) 0.35837(39) 0.30662(93)
C1_2 C 0.96753(36) 0.38715(26) 0.37286(63)
C2_2 C 0.97737(33) 0.43321(25) 0.26245(70)
C3_2 C 0.99863(30) 0.43964(22) 0.06812(65)
C4_2 C 0.96648(30) 0.47093(23) 0.34425(55)
H1_2 H 0.9502(13) 0.46558(91) 0.4873(44)
C5_2 C 0.97043(30) 0.50951(23) 0.24130(55)
H2_2 H 0.9625(13) 0.54054(89) 0.3179(40)
C6_2 C 0.99388(22) 0.51772(16) 0.04105(66)
O6_2 O 0.99072(49) 0.59570(35) 0.0114(10)
Mn3_2 Mn 0.98831(26) 0.28788(21) 0.42771(57)
Mn5_2 Mn 0.96624(25) 0.34503(14) 0.76105(57)
O8_2 O 0.90268(59) 0.61664(48) 0.1343(14)
Mn2_2 Mn 0.95455(21) 0.63291(16) 0.90562(57)
O9_2 O 0.97496(66) 0.28675(38) 0.97329(93)
O12_2 O 0.93831(60) 0.67595(49) 0.6781(10)
O1_3 O 0.28330(48) 0.04729(34) 0.1991(14)
C1_3 C 0.30086(36) 0.05382(26) 0.03953(63)
C4_3 C 0.29981(30) 0.13760(23) 0.01092(55)
H1_3 H 0.2836(13) 0.13225(91) 0.1540(44)
Mn5_3 Mn 0.29958(25) 0.01169(14) 0.42771(57)
Mn1_3 Mn 0.37878(21) 0.03376(16) 0.76105(57)
O2_3 O 0.31178(54) 0.02504(39) 0.97329(93)
O3_3 O 0.34261(49) 0.07097(35) 0.6553(10)
C2_3 C 0.31070(33) 0.09988(25) 0.92912(70)
C3_3 C 0.33196(30) 0.10631(22) 0.73479(65)
C5_3 C 0.30376(30) 0.17618(23) 0.90797(55)
H2_3 H 0.2958(13) 0.20721(89) 0.9846(40)
C6_3 C 0.32721(22) 0.18439(16) 0.70772(66)
O5_3 O 0.35488(54) 0.30830(39) 0.36005(93)
C7_3 C 0.36580(36) 0.27952(26) 0.29381(63)
C8_3 C 0.35596(33) 0.23346(25) 0.40422(70)
C9_3 C 0.33470(30) 0.22703(22) 0.59855(65)
C10_3 C 0.36685(30) 0.19574(23) 0.32242(55)
H3_3 H 0.3831(13) 0.20109(91) 0.1794(44)
C11_3 C 0.36290(30) 0.15716(23) 0.42537(55)
H4_3 H 0.3709(13) 0.12613(89) 0.3488(40)
C12_3 C 0.33945(22) 0.14895(16) 0.62562(66)
O7_3 O 0.43065(59) 0.05003(48) 0.5324(14)
O8_3 O 0.23602(59) 0.28330(48) 0.8009(14)
O12_3 O 0.27165(60) 0.34261(49) 0.3447(10)
Mn3_3 Mn 0.32164(26) 0.95455(21) 0.09438(57)
O9_3 O 0.30830(66) 0.95341(38) 0.63995(93)
O11_3 O 0.39502(60) 0.99072(49) 0.9886(10)
O10_3 O 0.69170(66) 0.04659(38) 0.36005(93)
O12_4 O 0.60498(60) 0.00928(49) 0.0114(10)
Mn8_3 Mn 0.67836(26) 0.04545(21) 0.90562(57)
O2_4 O 0.64512(54) 0.69170(39) 0.63995(93)
C1_4 C 0.63420(36) 0.72048(26) 0.70619(63)
C2_4 C 0.64404(33) 0.76654(25) 0.59578(70)
C3_4 C 0.66530(30) 0.77297(22) 0.40145(65)
C4_4 C 0.63315(30) 0.80426(23) 0.67758(55)
H1_4 H 0.6169(13) 0.79891(91) 0.8206(44)
C5_4 C 0.63710(30) 0.84284(23) 0.57463(55)
H2_4 H 0.6291(13) 0.87387(89) 0.6512(40)
C6_4 C 0.66055(22) 0.85105(16) 0.37438(66)
O5_4 O 0.68822(54) 0.97496(39) 0.02671(93)
O6_3 O 0.65739(49) 0.92903(35) 0.3447(10)
C8_4 C 0.68930(33) 0.90012(25) 0.07088(70)
C9_4 C 0.66804(30) 0.89369(22) 0.26521(65)
C11_4 C 0.69624(30) 0.82382(23) 0.09203(55)
H4_4 H 0.7042(13) 0.79279(89) 0.0154(40)
C12_4 C 0.67279(22) 0.81561(16) 0.29228(66)
Mn2_3 Mn 0.62122(21) 0.96624(16) 0.23895(57)
Mn7_3 Mn 0.70042(25) 0.98831(14) 0.57229(57)
O7_4 O 0.76398(59) 0.71670(48) 0.1991(14)
O8_4 O 0.56935(59) 0.94997(48) 0.4676(14)
O11_4 O 0.72835(60) 0.65739(49) 0.6553(10)
O4_3 O 0.71670(48) 0.95271(34) 0.8009(14)
C7_4 C 0.69914(36) 0.94618(26) 0.96047(63)
C10_4 C 0.70019(30) 0.86240(23) 0.98908(55)
H3_4 H 0.7164(13) 0.86775(91) 0.8460(44)
O2_5 O 0.37992(38) 0.02155(54) 0.30662(93)
C1_5 C 0.41962(25) 0.03247(36) 0.37286(63)
C2_5 C 0.45584(22) 0.02263(33) 0.26245(70)
C3_5 C 0.44101(20) 0.00137(30) 0.06812(65)
C4_5 C 0.50445(20) 0.03352(30) 0.34425(55)
H1_5 H 0.51534(90) 0.0498(13) 0.4873(44)
C5_5 C 0.53908(19) 0.02957(30) 0.24130(55)
H2_5 H 0.57806(89) 0.0375(13) 0.3179(40)
C6_5 C 0.52384(15) 0.00612(22) 0.04105(66)
O8_5 O 0.71395(34) 0.09732(59) 0.1343(14)
O12_5 O 0.73763(35) 0.06169(60) 0.6781(10)
O11_5 O 0.26237(35) 0.93831(60) 0.3219(10)
O5_5 O 0.62008(38) 0.97845(54) 0.69338(93)
C7_5 C 0.58038(25) 0.96753(36) 0.62714(63)
C8_5 C 0.54416(22) 0.97737(33) 0.73755(70)
C9_5 C 0.55899(20) 0.99863(30) 0.93188(65)
C10_5 C 0.49555(20) 0.96648(30) 0.65575(55)
H3_5 H 0.48466(90) 0.9502(13) 0.5127(44)
C11_5 C 0.46092(19) 0.97043(30) 0.75870(55)
H4_5 H 0.42194(89) 0.9625(13) 0.6821(40)
C12_5 C 0.47616(15) 0.99388(22) 0.95895(66)
O7_5 O 0.28605(34) 0.90268(59) 0.8657(14)
O8_6 O 0.04729(34) 0.76398(59) 0.8009(14)
O12_6 O 0.07097(35) 0.72835(60) 0.3447(10)
C1_6 C 0.75295(25) 0.69914(36) 0.03953(63)
C4_6 C 0.83778(20) 0.70019(30) 0.01092(55)
H1_6 H 0.84867(90) 0.7164(13) 0.1540(44)
C2_6 C 0.78917(22) 0.68930(33) 0.92912(70)
C3_6 C 0.77434(20) 0.66804(30) 0.73479(65)
C5_6 C 0.87241(19) 0.69624(30) 0.90797(55)
H2_6 H 0.91139(89) 0.7042(13) 0.9846(40)
C6_6 C 0.85717(15) 0.67279(22) 0.70772(66)
O5_6 O 0.95341(38) 0.64512(54) 0.36005(93)
C7_6 C 0.91371(25) 0.63420(36) 0.29381(63)
C8_6 C 0.87749(22) 0.64404(33) 0.40422(70)
C9_6 C 0.89232(20) 0.66530(30) 0.59855(65)
C10_6 C 0.82888(20) 0.63315(30) 0.32242(55)
H3_6 H 0.81799(90) 0.6169(13) 0.1794(44)
C11_6 C 0.79425(19) 0.63710(30) 0.42537(55)
H4_6 H 0.75527(89) 0.6291(13) 0.3488(40)
C12_6 C 0.80949(15) 0.66055(22) 0.62562(66)
O2_6 O 0.04659(38) 0.35488(54) 0.63995(93)
C1_7 C 0.08629(25) 0.36580(36) 0.70619(63)
C2_7 C 0.12251(22) 0.35596(33) 0.59578(70)
C3_7 C 0.10768(20) 0.33470(30) 0.40145(65)
C4_7 C 0.17112(20) 0.36685(30) 0.67758(55)
H1_7 H 0.18201(90) 0.3831(13) 0.8206(44)
C5_7 C 0.20575(19) 0.36290(30) 0.57463(55)
H2_7 H 0.24473(89) 0.3709(13) 0.6512(40)
C6_7 C 0.19051(15) 0.33945(22) 0.37438(66)
C8_7 C 0.21083(22) 0.31070(33) 0.07088(70)
C9_7 C 0.22566(20) 0.33196(30) 0.26521(65)
C11_7 C 0.12759(19) 0.30376(30) 0.09203(55)
H4_7 H 0.08861(89) 0.2958(13) 0.0154(40)
C12_7 C 0.14283(15) 0.32721(22) 0.29228(66)
C7_7 C 0.24705(25) 0.30086(36) 0.96047(63)
C10_7 C 0.16222(20) 0.29981(30) 0.98908(55)
H3_7 H 0.15133(90) 0.2836(13) 0.8460(44)
O7_6 O 0.95271(34) 0.23602(59) 0.1991(14)
O11_6 O 0.92903(35) 0.27165(60) 0.6553(10)
C1_8 C 0.94618(26) 0.24705(25) 0.03953(63)
C4_8 C 0.86240(23) 0.16222(20) 0.01092(55)
H1_8 H 0.86775(91) 0.15133(90) 0.1540(44)
C2_8 C 0.90012(25) 0.21083(22) 0.92912(70)
C3_8 C 0.89369(22) 0.22566(20) 0.73479(65)
C5_8 C 0.82382(23) 0.12759(19) 0.90797(55)
H2_8 H 0.79279(89) 0.08861(89) 0.9846(40)
C6_8 C 0.81561(16) 0.14283(15) 0.70772(66)
C7_8 C 0.72048(26) 0.08629(25) 0.29381(63)
C8_8 C 0.76654(25) 0.12251(22) 0.40422(70)
C9_8 C 0.77297(22) 0.10768(20) 0.59855(65)
C10_8 C 0.80426(23) 0.17112(20) 0.32242(55)
H3_8 H 0.79891(91) 0.18201(90) 0.1794(44)
C11_8 C 0.84284(23) 0.20575(19) 0.42537(55)
H4_8 H 0.87387(89) 0.24473(89) 0.3488(40)
C12_8 C 0.85105(16) 0.19051(15) 0.62562(66)
C1_9 C 0.27952(26) 0.91371(25) 0.70619(63)
C2_9 C 0.23346(25) 0.87749(22) 0.59578(70)
C3_9 C 0.22703(22) 0.89232(20) 0.40145(65)
C4_9 C 0.19574(23) 0.82888(20) 0.67758(55)
H1_9 H 0.20109(91) 0.81799(90) 0.8206(44)
C5_9 C 0.15716(23) 0.79425(19) 0.57463(55)
H2_9 H 0.12613(89) 0.75527(89) 0.6512(40)
C6_9 C 0.14895(16) 0.80949(15) 0.37438(66)
C8_9 C 0.09988(25) 0.78917(22) 0.07088(70)
C9_9 C 0.10631(22) 0.77434(20) 0.26521(65)
C11_9 C 0.17618(23) 0.87241(19) 0.09203(55)
H4_9 H 0.20721(89) 0.91139(89) 0.0154(40)
C12_9 C 0.18439(16) 0.85717(15) 0.29228(66)
C7_9 C 0.05382(26) 0.75295(25) 0.96047(63)
C10_9 C 0.13760(23) 0.83778(20) 0.98908(55)
H3_9 H 0.13225(91) 0.84867(90) 0.8460(44)
loop_
_geom_bond_atom_site_label_1
_geom_bond_atom_site_label_2
_geom_bond_site_symmetry_1
_geom_bond_site_symmetry_2
Mn1 O2 1_555 1_555
O1 C1 1_555 1_555
O2 C1 1_555 1_555
C1 C2 1_555 1_555
C2 C3 1_555 1_555
C4 C2 1_555 1_555
H1 C4 1_555 1_555
C5 C4 1_555 1_555
H2 C5 1_555 1_555
C6 C5 1_555 1_555
Mn3 O2 1_555 1_555
Mn5 O1 1_555 1_555
Mn7 O6 1_555 1_555
O11 Mn1 1_555 1_555
Mn3 O11 1_555 1_555
Mn7 O10 1_555 1_555
O4 C7 1_555 1_555
O5 C7 1_555 1_555
C7 C8 1_555 1_555
C8 C9 1_555 1_555
C10 C8 1_555 1_555
H3 C10 1_555 1_555
C11 C10 1_555 1_555
H4 C11 1_555 1_555
Mn2 O5 1_555 1_555
Mn5 O3 1_555 1_555
Mn7 O4 1_555 1_555
Mn8 O5 1_555 1_555
O12 Mn2 1_555 1_555
C11 C12 1_555 1_555
Mn5 O9 1_555 1_555
Mn8 O12 1_555 1_555
O11_2 Mn1_2 1_555 1_555
Mn7_2 O10_2 1_555 1_555
O4_2 C7_2 1_555 1_555
O5_2 C7_2 1_555 1_555
C7_2 C8_2 1_555 1_555
C8_2 C9_2 1_555 1_555
C10_2 C8_2 1_555 1_555
H3_2 C10_2 1_555 1_555
C11_2 C10_2 1_555 1_555
H4_2 C11_2 1_555 1_555
Mn7_2 O4_2 1_555 1_555
Mn8_2 O5_2 1_555 1_555
C11_2 C12_2 1_555 1_555
O1_2 C1_2 1_555 1_555
O2_2 C1_2 1_555 1_555
C1_2 C2_2 1_555 1_555
C2_2 C3_2 1_555 1_555
C4_2 C2_2 1_555 1_555
H1_2 C4_2 1_555 1_555
C5_2 C4_2 1_555 1_555
H2_2 C5_2 1_555 1_555
C6_2 C5_2 1_555 1_555
Mn3_2 O2_2 1_555 1_555
Mn5_2 O1_2 1_555 1_555
O12_2 Mn2_2 1_555 1_555
Mn5_2 O9_2 1_555 1_555
O1_3 C1_3 1_555 1_555
H1_3 C4_3 1_555 1_555
Mn5_3 O1_3 1_555 1_555
Mn1_3 O2_3 1_555 1_555
O3_3 Mn1_3 1_555 1_555
C2_3 C3_3 1_555 1_555
C3_3 O3_3 1_555 1_555
H2_3 C5_3 1_555 1_555
C6_3 C5_3 1_555 1_555
O8 C7_3 1_555 1_555
O5_3 C7_3 1_555 1_555
O12 C9_3 1_555 1_555
C7_3 C8_3 1_555 1_555
C8_3 C9_3 1_555 1_555
C9_3 C6_3 1_555 1_555
C10_3 C8_3 1_555 1_555
H3_3 C10_3 1_555 1_555
C11_3 C10_3 1_555 1_555
H4_3 C11_3 1_555 1_555
C12_3 C3_3 1_555 1_555
Mn8 O5_3 1_555 1_555
Mn5_3 O3_3 1_555 1_555
Mn7 O5_3 1_555 1_555
O7_3 Mn1_3 1_555 1_555
O8_3 Mn8 1_555 1_555
O12_3 Mn8 1_555 1_555
C6_3 C12_3 1_555 1_555
C11_3 C12_3 1_555 1_555
Mn7 O12_3 1_555 1_555
Mn3 O2_4 1_555 1_555
O7 C1_4 1_555 1_555
O2_4 C1_4 1_555 1_555
C1_4 C2_4 1_555 1_555
C2_4 C3_4 1_555 1_555
C3_4 O11 1_555 1_555
C4_4 C2_4 1_555 1_555
H1_4 C4_4 1_555 1_555
C5_4 C4_4 1_555 1_555
H2_4 C5_4 1_555 1_555
C6_4 C5_4 1_555 1_555
O6_3 C9_4 1_555 1_555
C8_4 C9_4 1_555 1_555
C9_4 C6_4 1_555 1_555
H4_4 C11_4 1_555 1_555
C12_4 C3_4 1_555 1_555
Mn2_3 O5_4 1_555 1_555
Mn5 O2_4 1_555 1_555
Mn7_3 O6_3 1_555 1_555
O7_4 Mn3 1_555 1_555
O8_4 Mn2_3 1_555 1_555
O11_4 Mn3 1_555 1_555
C6_4 C12_4 1_555 1_555
O6_3 Mn2_3 1_555 1_555
C11_4 C12_4 1_555 1_555
Mn5 O11_4 1_555 1_555
O4_3 C7_4 1_555 1_555
H3_4 C10_4 1_555 1_555
Mn7_3 O4_3 1_555 1_555
O7_3 C1_5 1_555 1_555
O2_5 C1_5 1_555 1_555
C1_5 C2_5 1_555 1_555
C2_5 C3_5 1_555 1_555
C4_5 C2_5 1_555 1_555
H1_5 C4_5 1_555 1_555
C5_5 C4_5 1_555 1_555
H2_5 C5_5 1_555 1_555
C6_5 C5_5 1_555 1_555
Mn5_3 O2_5 1_555 1_555
O12_5 Mn8_3 1_555 1_555
O11_5 Mn3_3 1_555 1_555
O8_4 C7_5 1_555 1_555
O5_5 C7_5 1_555 1_555
C7_5 C8_5 1_555 1_555
C8_5 C9_5 1_555 1_555
C10_5 C8_5 1_555 1_555
H3_5 C10_5 1_555 1_555
C11_5 C10_5 1_555 1_555
H4_5 C11_5 1_555 1_555
Mn7_3 O5_5 1_555 1_555
C11_5 C12_5 1_555 1_555
O8_6 Mn8_2 1_555 1_555
O12_6 Mn8_2 1_555 1_555
Mn7_2 O12_6 1_555 1_555
O7_4 C1_6 1_555 1_555
H1_6 C4_6 1_555 1_555
C2_6 C3_6 1_555 1_555
C3_6 O11_4 1_555 1_555
H2_6 C5_6 1_555 1_555
C6_6 C5_6 1_555 1_555
O8_2 C7_6 1_555 1_555
O5_6 C7_6 1_555 1_555
O12_2 C9_6 1_555 1_555
C7_6 C8_6 1_555 1_555
C8_6 C9_6 1_555 1_555
C9_6 C6_6 1_555 1_555
C10_6 C8_6 1_555 1_555
H3_6 C10_6 1_555 1_555
C11_6 C10_6 1_555 1_555
H4_6 C11_6 1_555 1_555
C12_6 C3_6 1_555 1_555
C6_6 C12_6 1_555 1_555
C11_6 C12_6 1_555 1_555
O7_2 C1_7 1_555 1_555
O2_6 C1_7 1_555 1_555
C1_7 C2_7 1_555 1_555
C2_7 C3_7 1_555 1_555
C3_7 O11_2 1_555 1_555
C4_7 C2_7 1_555 1_555
H1_7 C4_7 1_555 1_555
C5_7 C4_7 1_555 1_555
H2_7 C5_7 1_555 1_555
C6_7 C5_7 1_555 1_555
O12_3 C9_7 1_555 1_555
C8_7 C9_7 1_555 1_555
C9_7 C6_7 1_555 1_555
H4_7 C11_7 1_555 1_555
C12_7 C3_7 1_555 1_555
C6_7 C12_7 1_555 1_555
C11_7 C12_7 1_555 1_555
O8_3 C7_7 1_555 1_555
H3_7 C10_7 1_555 1_555
O7_6 Mn3_2 1_555 1_555
O11_6 Mn3_2 1_555 1_555
Mn5_2 O11_6 1_555 1_555
O7_6 C1_8 1_555 1_555
H1_8 C4_8 1_555 1_555
C2_8 C3_8 1_555 1_555
C3_8 O11_6 1_555 1_555
H2_8 C5_8 1_555 1_555
C6_8 C5_8 1_555 1_555
O8_5 C7_8 1_555 1_555
O10_3 C7_8 1_555 1_555
O12_5 C9_8 1_555 1_555
C7_8 C8_8 1_555 1_555
C8_8 C9_8 1_555 1_555
C9_8 C6_8 1_555 1_555
C10_8 C8_8 1_555 1_555
H3_8 C10_8 1_555 1_555
C11_8 C10_8 1_555 1_555
H4_8 C11_8 1_555 1_555
C12_8 C3_8 1_555 1_555
C6_8 C12_8 1_555 1_555
C11_8 C12_8 1_555 1_555
O7_5 C1_9 1_555 1_555
O9_3 C1_9 1_555 1_555
C1_9 C2_9 1_555 1_555
C2_9 C3_9 1_555 1_555
C3_9 O11_5 1_555 1_555
C4_9 C2_9 1_555 1_555
H1_9 C4_9 1_555 1_555
C5_9 C4_9 1_555 1_555
H2_9 C5_9 1_555 1_555
C6_9 C5_9 1_555 1_555
O12_6 C9_9 1_555 1_555
C8_9 C9_9 1_555 1_555
C9_9 C6_9 1_555 1_555
H4_9 C11_9 1_555 1_555
C12_9 C3_9 1_555 1_555
C6_9 C12_9 1_555 1_555
C11_9 C12_9 1_555 1_555
O8_6 C7_9 1_555 1_555
H3_9 C10_9 1_555 1_555

#END
