
###############################################################################
#
# This file contains modified crystal structure data generated from the
# MOF subset of the Cambridge Structural Database (CSD) v543 
# hosted by the Cambridge Crystallographic Data Centre (CCDC).
#
# This work is licensed under the Creative Commons
# Attribution-NonCommercial-ShareAlike 4.0 International License.
# To view a copy of this license, visit
# http://creativecommons.org/licenses/by-nc-sa/4.0/
# or send a letter to
# Creative Commons, PO Box 1866, Mountain View, CA 94042, USA.
#
# CIF created using the CSD Python API on 29 September 2022
# The structure has been converted into the P1 space group
# The structure has a 3D framework
# The original CSD entry CADZIT is in the monoclinic crystal system
# The framework has been calculated to contain at least 10.0% void space
# The void calculation uses a probe of radius 1.32A, grid spacing 0.4
#
###############################################################################

data_CADZIT
_chemical_formula_moiety         '(C88 H72 N16 O21 Zn2)n'
_symmetry_cell_setting           triclinic
_symmetry_space_group_name_H-M   'P 1'
_symmetry_Int_Tables_number      1
_space_group_name_Hall           'P 1'
loop_
_symmetry_equiv_pos_site_id
_symmetry_equiv_pos_as_xyz
1 x,y,z
_cell_length_a                   19.961(8)
_cell_length_b                   6.081(3)
_cell_length_c                   21.693(13)
_cell_angle_alpha                90
_cell_angle_beta                 92.694(18)
_cell_angle_gamma                90
_cell_volume                     2630.25
loop_
_atom_site_label
_atom_site_type_symbol
_atom_site_fract_x
_atom_site_fract_y
_atom_site_fract_z
H1 H 0.1568 0.0637 0.3879
C8 C 0.12195(17) 0.2484(7) 0.5152(2)
C9 C 0.05898(18) 0.3775(5) 0.50785(19)
C10 C 0.05761(19) 0.5693(7) 0.4734(2)
H8 H 0.0965 0.6169 0.4556
O1 O 0.17342(12) 0.3195(5) 0.49049(15)
O2 O 0.12201(17) 0.0743(7) 0.5445(2)
O3 O 0.0007(2) 0.8774(6) 0.4301(3)
Zn1 Zn 0.2500 0.12138(8) 0.5000
C22 C 0.0007(2) 0.3082(7) 0.5349(2)
H18 H 0.0365 0.0651 0.5714
O7 O 0.32658(12) 0.3195(5) 0.50951(15)
C11 C 0.9993(2) 0.6918(7) 0.4651(2)
H9 H 0.9635 0.9349 0.4286
C19 C 0.87805(17) 0.7516(7) 0.4848(2)
C20 C 0.94102(18) 0.6225(5) 0.49215(19)
C21 C 0.94239(19) 0.4307(7) 0.5266(2)
H17 H 0.9035 0.3831 0.5444
O4 O 0.82658(12) 0.6805(5) 0.50951(15)
O5 O 0.87799(17) 0.9257(7) 0.4555(2)
O6 O 0.9993(2) 0.1226(6) 0.5699(3)
Zn2 Zn 0.7500 0.87862(8) 0.5000
H1_2 H 0.3432 0.0637 0.6121
C8_2 C 0.37805(17) 0.2484(7) 0.4848(2)
C9_2 C 0.44102(18) 0.3775(5) 0.49215(19)
C10_2 C 0.44239(19) 0.5693(7) 0.5266(2)
H8_2 H 0.4035 0.6169 0.5444
C11_2 C 0.5007(2) 0.6918(7) 0.5349(2)
O2_2 O 0.37799(17) 0.0743(7) 0.4555(2)
O3_2 O 0.4993(2) 0.8774(6) 0.5699(3)
H9_2 H 0.5365 0.9349 0.5714
C19_2 C 0.62195(17) 0.7516(7) 0.5152(2)
C20_2 C 0.55898(18) 0.6225(5) 0.50785(19)
C21_2 C 0.55761(19) 0.4307(7) 0.4734(2)
H17_2 H 0.5965 0.3831 0.4556
C22_2 C 0.4993(2) 0.3082(7) 0.4651(2)
O4_2 O 0.67342(12) 0.6805(5) 0.49049(15)
O5_2 O 0.62201(17) 0.9257(7) 0.5445(2)
O6_2 O 0.5007(2) 0.1226(6) 0.4301(3)
H18_2 H 0.4635 0.0651 0.4286
H10 H 0.8432 0.9363 0.6121
H10_2 H 0.6568 0.9363 0.3879
C1 C 0.1849(2) 0.9427(7) 0.3845(2)
C2 C 0.1743(2) 0.8034(8) 0.3347(2)
H2 H 0.1404 0.8330 0.3050
C3 C 0.2142(2) 0.6203(6) 0.32949(19)
C4 C 0.2648(2) 0.5869(7) 0.3754(2)
H3 H 0.2930 0.4656 0.3737
C5 C 0.2723(2) 0.7348(7) 0.42285(19)
H4 H 0.3060 0.7108 0.4532
C6 C 0.2066(2) 0.4648(8) 0.2769(2)
C7 C 0.1504(3) 0.4863(12) 0.2303(3)
H5 H 0.1215 0.6042 0.2418
H6 H 0.1254 0.3515 0.2282
H7 H 0.1678 0.5173 0.1907
N1 N 0.23323(16) 0.9120(5) 0.42750(15)
N2 N 0.2537(3) 0.3229(7) 0.2751(2)
H12 H 0.2070 0.0344 0.1263
C17 C 0.2934(2) 0.0352(8) 0.2231(2)
C18 C 0.3496(3) 0.0137(12) 0.2697(3)
H15 H 0.3746 0.1485 0.2718
N4 N 0.2463(3) 0.1771(7) 0.2249(2)
N5 N 0.26677(16) 0.9120(5) 0.57250(15)
C1_2 C 0.3151(2) 0.9427(7) 0.6155(2)
C2_2 C 0.3257(2) 0.8034(8) 0.6653(2)
H2_2 H 0.3596 0.8330 0.6950
C3_2 C 0.2858(2) 0.6203(6) 0.67051(19)
C4_2 C 0.2352(2) 0.5869(7) 0.6246(2)
H3_2 H 0.2070 0.4656 0.6263
C5_2 C 0.2277(2) 0.7348(7) 0.57715(19)
H4_2 H 0.1940 0.7108 0.5468
C6_2 C 0.2934(2) 0.4648(8) 0.7231(2)
C7_2 C 0.3496(3) 0.4863(12) 0.7697(3)
H5_2 H 0.3785 0.6042 0.7582
H6_2 H 0.3746 0.3515 0.7718
H7_2 H 0.3322 0.5173 0.8093
N2_2 N 0.2463(3) 0.3229(7) 0.7249(2)
H12_2 H 0.2930 0.0344 0.8737
C17_2 C 0.2066(2) 0.0352(8) 0.7769(2)
C18_2 C 0.1504(3) 0.0137(12) 0.7303(3)
H15_2 H 0.1254 0.1485 0.7282
N4_2 N 0.2537(3) 0.1771(7) 0.7751(2)
C12 C 0.3151(2) 0.5573(7) 0.1155(2)
H10_3 H 0.3432 0.4363 0.1121
C13 C 0.3257(2) 0.6966(8) 0.1653(2)
H11 H 0.3596 0.6670 0.1950
C14 C 0.2858(2) 0.8797(6) 0.17051(19)
C15 C 0.2352(2) 0.9131(7) 0.1246(2)
C16 C 0.2277(2) 0.7652(7) 0.07715(19)
H13 H 0.1940 0.7892 0.0468
H14 H 0.3785 0.8958 0.2582
H16 H 0.3322 0.9827 0.3093
N3 N 0.26677(16) 0.5880(5) 0.07250(15)
Zn3 Zn 0.2500 0.37862(8) 0.0000
O4_3 O 0.32658(12) 0.1805(5) 0.00951(15)
C11_3 C 0.0007(2) 0.1918(7) 0.0349(2)
H9_3 H 0.0365 0.4349 0.0714
C19_3 C 0.12195(17) 0.2516(7) 0.0152(2)
C20_3 C 0.05898(18) 0.1225(5) 0.00785(19)
O5_3 O 0.12201(17) 0.4257(7) 0.0445(2)
Zn3_2 Zn 0.2500 0.37862(8) 1.0000
C12_2 C 0.1849(2) 0.5573(7) 0.8845(2)
H10_4 H 0.1568 0.4363 0.8879
C13_2 C 0.1743(2) 0.6966(8) 0.8347(2)
H11_2 H 0.1404 0.6670 0.8050
C14_2 C 0.2142(2) 0.8797(6) 0.82949(19)
C15_2 C 0.2648(2) 0.9131(7) 0.8754(2)
C16_2 C 0.2723(2) 0.7652(7) 0.92285(19)
H13_2 H 0.3060 0.7892 0.9532
H14_2 H 0.1215 0.8958 0.7418
H16_2 H 0.1678 0.9827 0.6907
N3_2 N 0.23323(16) 0.5880(5) 0.92750(15)
C10_3 C 0.55761(19) 0.0693(7) 0.9734(2)
H8_3 H 0.5965 0.1169 0.9556
C11_4 C 0.4993(2) 0.1918(7) 0.9651(2)
O3_3 O 0.5007(2) 0.3774(6) 0.9301(3)
H9_4 H 0.4635 0.4349 0.9286
C19_4 C 0.37805(17) 0.2516(7) 0.9848(2)
C20_4 C 0.44102(18) 0.1225(5) 0.99215(19)
O5_4 O 0.37799(17) 0.4257(7) 0.9555(2)
O4_4 O 0.17342(12) 0.1805(5) 0.99049(15)
C8_3 C 0.62195(17) 0.7484(7) 0.0152(2)
C9_3 C 0.55898(18) 0.8775(5) 0.00785(19)
O2_3 O 0.62201(17) 0.5743(7) 0.0445(2)
Zn1_2 Zn 0.7500 0.62138(8) -0.0000
C21_3 C 0.44239(19) 0.9307(7) 0.0266(2)
H17_3 H 0.4035 0.8831 0.0444
C22_3 C 0.5007(2) 0.8082(7) 0.0349(2)
O6_3 O 0.4993(2) 0.6226(6) 0.0699(3)
H18_3 H 0.5365 0.5651 0.0714
N5_2 N 0.76677(16) 0.4120(5) 0.07250(15)
O7_2 O 0.82658(12) 0.8195(5) 0.00951(15)
C1_3 C 0.8151(2) 0.4427(7) 0.1155(2)
H1_3 H 0.8432 0.5637 0.1121
C2_3 C 0.8257(2) 0.3034(8) 0.1653(2)
H2_3 H 0.8596 0.3330 0.1950
C3_3 C 0.7858(2) 0.1203(6) 0.17051(19)
C4_3 C 0.7352(2) 0.0869(7) 0.1246(2)
C5_3 C 0.7277(2) 0.2348(7) 0.07715(19)
H4_3 H 0.6940 0.2108 0.0468
H5_3 H 0.8785 0.1042 0.2582
H7_3 H 0.8322 0.0173 0.3093
C1_4 C 0.6849(2) 0.4427(7) 0.8845(2)
H1_4 H 0.6568 0.5637 0.8879
C2_4 C 0.6743(2) 0.3034(8) 0.8347(2)
H2_4 H 0.6404 0.3330 0.8050
C3_4 C 0.7142(2) 0.1203(6) 0.82949(19)
C4_4 C 0.7648(2) 0.0869(7) 0.8754(2)
C5_4 C 0.7723(2) 0.2348(7) 0.92285(19)
H4_4 H 0.8060 0.2108 0.9532
H5_4 H 0.6215 0.1042 0.7418
H7_4 H 0.6678 0.0173 0.6907
N1_2 N 0.73323(16) 0.4120(5) 0.92750(15)
O1_2 O 0.67342(12) 0.8195(5) 0.99049(15)
Zn1_3 Zn 0.7500 0.62138(8) 1.0000
C8_4 C 0.87805(17) 0.7484(7) 0.9848(2)
C9_4 C 0.94102(18) 0.8775(5) 0.99215(19)
O2_4 O 0.87799(17) 0.5743(7) 0.9555(2)
C22_4 C 0.9993(2) 0.8082(7) 0.9651(2)
H18_4 H 0.9635 0.5651 0.9286
H3_3 H 0.7930 0.9656 0.8737
C6_3 C 0.7066(2) 0.9648(8) 0.7769(2)
C7_3 C 0.6504(3) 0.9863(12) 0.7303(3)
H6_3 H 0.6254 0.8515 0.7282
N2_3 N 0.7537(3) 0.8229(7) 0.7751(2)
C12_3 C 0.8151(2) 0.0573(7) 0.6155(2)
C13_3 C 0.8257(2) 0.1966(8) 0.6653(2)
H11_3 H 0.8596 0.1670 0.6950
C14_3 C 0.7858(2) 0.3797(6) 0.67051(19)
C15_3 C 0.7352(2) 0.4131(7) 0.6246(2)
H12_3 H 0.7070 0.5344 0.6263
C16_3 C 0.7277(2) 0.2652(7) 0.57715(19)
H13_3 H 0.6940 0.2892 0.5468
C17_3 C 0.7934(2) 0.5352(8) 0.7231(2)
C18_3 C 0.8496(3) 0.5137(12) 0.7697(3)
H14_3 H 0.8785 0.3958 0.7582
H15_3 H 0.8746 0.6485 0.7718
H16_3 H 0.8322 0.4827 0.8093
N3_3 N 0.76677(16) 0.0880(5) 0.57250(15)
N4_3 N 0.7463(3) 0.6771(7) 0.7249(2)
H3_4 H 0.7070 0.9656 0.1263
C6_4 C 0.7934(2) 0.9648(8) 0.2231(2)
C7_4 C 0.8496(3) 0.9863(12) 0.2697(3)
H6_4 H 0.8746 0.8515 0.2718
N2_4 N 0.7463(3) 0.8229(7) 0.2249(2)
C12_4 C 0.6849(2) 0.0573(7) 0.3845(2)
C13_4 C 0.6743(2) 0.1966(8) 0.3347(2)
H11_4 H 0.6404 0.1670 0.3050
C14_4 C 0.7142(2) 0.3797(6) 0.32949(19)
C15_4 C 0.7648(2) 0.4131(7) 0.3754(2)
H12_4 H 0.7930 0.5344 0.3737
C16_4 C 0.7723(2) 0.2652(7) 0.42285(19)
H13_4 H 0.8060 0.2892 0.4532
C17_4 C 0.7066(2) 0.5352(8) 0.2769(2)
C18_4 C 0.6504(3) 0.5137(12) 0.2303(3)
H14_4 H 0.6215 0.3958 0.2418
H15_4 H 0.6254 0.6485 0.2282
H16_4 H 0.6678 0.4827 0.1907
N3_4 N 0.73323(16) 0.0880(5) 0.42750(15)
N4_4 N 0.7537(3) 0.6771(7) 0.2751(2)
C21_4 C 0.05761(19) 0.9307(7) 0.9734(2)
H17_4 H 0.0965 0.8831 0.9556
O6_4 O 0.0007(2) 0.6226(6) 0.9301(3)
C10_4 C 0.94239(19) 0.0693(7) 0.0266(2)
H8_4 H 0.9035 0.1169 0.0444
O3_4 O 0.9993(2) 0.3774(6) 0.0699(3)
loop_
_geom_bond_atom_site_label_1
_geom_bond_atom_site_label_2
_geom_bond_site_symmetry_1
_geom_bond_site_symmetry_2
C8 C9 1_555 1_555
C9 C10 1_555 1_555
C10 H8 1_555 1_555
O1 C8 1_555 1_555
O2 C8 1_555 1_555
C22 C9 1_555 1_555
O7 Zn1 1_555 1_555
O1 Zn1 1_555 1_555
C19 C20 1_555 1_555
C20 C11 1_555 1_555
C21 C20 1_555 1_555
H17 C21 1_555 1_555
O4 C19 1_555 1_555
O5 C19 1_555 1_555
Zn2 O4 1_555 1_555
C8_2 C9_2 1_555 1_555
C9_2 C10_2 1_555 1_555
C10_2 H8_2 1_555 1_555
C11_2 C10_2 1_555 1_555
O7 C8_2 1_555 1_555
O2_2 C8_2 1_555 1_555
O3_2 C11_2 1_555 1_555
H9_2 O3_2 1_555 1_555
C19_2 C20_2 1_555 1_555
C20_2 C11_2 1_555 1_555
C21_2 C20_2 1_555 1_555
H17_2 C21_2 1_555 1_555
C22_2 C9_2 1_555 1_555
O4_2 C19_2 1_555 1_555
O5_2 C19_2 1_555 1_555
O6_2 C22_2 1_555 1_555
H18_2 O6_2 1_555 1_555
Zn2 O4_2 1_555 1_555
C21_2 C22_2 1_555 1_555
C2 C1 1_555 1_555
H2 C2 1_555 1_555
C3 C2 1_555 1_555
C4 C3 1_555 1_555
H3 C4 1_555 1_555
C5 C4 1_555 1_555
H4 C5 1_555 1_555
C6 C3 1_555 1_555
C7 C6 1_555 1_555
H5 C7 1_555 1_555
H6 C7 1_555 1_555
H7 C7 1_555 1_555
N1 C1 1_555 1_555
N2 C6 1_555 1_555
C18 C17 1_555 1_555
H15 C18 1_555 1_555
N4 N2 1_555 1_555
C5 N1 1_555 1_555
C17 N4 1_555 1_555
C2_2 C1_2 1_555 1_555
H2_2 C2_2 1_555 1_555
C3_2 C2_2 1_555 1_555
C4_2 C3_2 1_555 1_555
H3_2 C4_2 1_555 1_555
C5_2 C4_2 1_555 1_555
H4_2 C5_2 1_555 1_555
C6_2 C3_2 1_555 1_555
C7_2 C6_2 1_555 1_555
H5_2 C7_2 1_555 1_555
H6_2 C7_2 1_555 1_555
H7_2 C7_2 1_555 1_555
N5 C1_2 1_555 1_555
N2_2 C6_2 1_555 1_555
C18_2 C17_2 1_555 1_555
H15_2 C18_2 1_555 1_555
N4_2 N2_2 1_555 1_555
C5_2 N5 1_555 1_555
C17_2 N4_2 1_555 1_555
C12 H10_3 1_555 1_555
C13 C12 1_555 1_555
H11 C13 1_555 1_555
C14 C13 1_555 1_555
C15 C14 1_555 1_555
C16 C15 1_555 1_555
H13 C16 1_555 1_555
N3 C12 1_555 1_555
Zn3 N3 1_555 1_555
C16 N3 1_555 1_555
Zn3 O4_3 1_555 1_555
C19_3 C20_3 1_555 1_555
C20_3 C11_3 1_555 1_555
O5_3 C19_3 1_555 1_555
C12_2 H10_4 1_555 1_555
C13_2 C12_2 1_555 1_555
H11_2 C13_2 1_555 1_555
C14_2 C13_2 1_555 1_555
C15_2 C14_2 1_555 1_555
C16_2 C15_2 1_555 1_555
H13_2 C16_2 1_555 1_555
N3_2 C12_2 1_555 1_555
Zn3_2 N3_2 1_555 1_555
C16_2 N3_2 1_555 1_555
C10_3 H8_3 1_555 1_555
C11_4 C10_3 1_555 1_555
O3_3 C11_4 1_555 1_555
H9_4 O3_3 1_555 1_555
C19_4 C20_4 1_555 1_555
C20_4 C11_4 1_555 1_555
O5_4 C19_4 1_555 1_555
Zn3_2 O4_4 1_555 1_555
C8_3 C9_3 1_555 1_555
O2_3 C8_3 1_555 1_555
H17_3 C21_3 1_555 1_555
C22_3 C9_3 1_555 1_555
O6_3 C22_3 1_555 1_555
H18_3 O6_3 1_555 1_555
N5_2 Zn1_2 1_555 1_555
O7_2 Zn1_2 1_555 1_555
C21_3 C22_3 1_555 1_555
C1_3 H1_3 1_555 1_555
C2_3 C1_3 1_555 1_555
H2_3 C2_3 1_555 1_555
C3_3 C2_3 1_555 1_555
C4_3 C3_3 1_555 1_555
C5_3 C4_3 1_555 1_555
H4_3 C5_3 1_555 1_555
N5_2 C1_3 1_555 1_555
C5_3 N5_2 1_555 1_555
C1_4 H1_4 1_555 1_555
C2_4 C1_4 1_555 1_555
H2_4 C2_4 1_555 1_555
C3_4 C2_4 1_555 1_555
C4_4 C3_4 1_555 1_555
C5_4 C4_4 1_555 1_555
H4_4 C5_4 1_555 1_555
N1_2 C1_4 1_555 1_555
Zn1_3 N1_2 1_555 1_555
C5_4 N1_2 1_555 1_555
O1_2 Zn1_3 1_555 1_555
C8_4 C9_4 1_555 1_555
O2_4 C8_4 1_555 1_555
C22_4 C9_4 1_555 1_555
C7_3 C6_3 1_555 1_555
H6_3 C7_3 1_555 1_555
N2_3 C6_3 1_555 1_555
C13_3 C12_3 1_555 1_555
H11_3 C13_3 1_555 1_555
C14_3 C13_3 1_555 1_555
C15_3 C14_3 1_555 1_555
H12_3 C15_3 1_555 1_555
C16_3 C15_3 1_555 1_555
H13_3 C16_3 1_555 1_555
C17_3 C14_3 1_555 1_555
C18_3 C17_3 1_555 1_555
H14_3 C18_3 1_555 1_555
H15_3 C18_3 1_555 1_555
H16_3 C18_3 1_555 1_555
N3_3 C12_3 1_555 1_555
N4_3 N2_3 1_555 1_555
C16_3 N3_3 1_555 1_555
C17_3 N4_3 1_555 1_555
C7_4 C6_4 1_555 1_555
H6_4 C7_4 1_555 1_555
N2_4 C6_4 1_555 1_555
C13_4 C12_4 1_555 1_555
H11_4 C13_4 1_555 1_555
C14_4 C13_4 1_555 1_555
C15_4 C14_4 1_555 1_555
H12_4 C15_4 1_555 1_555
C16_4 C15_4 1_555 1_555
H13_4 C16_4 1_555 1_555
C17_4 C14_4 1_555 1_555
C18_4 C17_4 1_555 1_555
H14_4 C18_4 1_555 1_555
H15_4 C18_4 1_555 1_555
H16_4 C18_4 1_555 1_555
N3_4 C12_4 1_555 1_555
N4_4 N2_4 1_555 1_555
C16_4 N3_4 1_555 1_555
C17_4 N4_4 1_555 1_555
H17_4 C21_4 1_555 1_555
C10_4 H8_4 1_555 1_555

#END
