
###############################################################################
#
# This file contains modified crystal structure data generated from the
# MOF subset of the Cambridge Structural Database (CSD) v543 
# hosted by the Cambridge Crystallographic Data Centre (CCDC).
#
# This work is licensed under the Creative Commons
# Attribution-NonCommercial-ShareAlike 4.0 International License.
# To view a copy of this license, visit
# http://creativecommons.org/licenses/by-nc-sa/4.0/
# or send a letter to
# Creative Commons, PO Box 1866, Mountain View, CA 94042, USA.
#
# CIF created using the CSD Python API on 29 September 2022
# The structure has been converted into the P1 space group
# The structure has a 3D framework
# The original CSD entry CAHSEN is in the rhombohedral crystal system
# The original CSD entry CAHSEN is in a Sohncke space group
# The framework has been calculated to contain at least 10.0% void space
# The void calculation uses a probe of radius 1.32A, grid spacing 0.4
# The framework is charged, counterions have been retained in the structure
#
###############################################################################

data_CAHSEN
_chemical_formula_moiety         '(C108 H81 Cu9 N48 O27 5+)n'
_symmetry_cell_setting           triclinic
_symmetry_space_group_name_H-M   'P 1'
_symmetry_Int_Tables_number      1
_space_group_name_Hall           'P 1'
loop_
_symmetry_equiv_pos_site_id
_symmetry_equiv_pos_as_xyz
1 x,y,z
_cell_length_a                   12.825(2)
_cell_length_b                   12.825(2)
_cell_length_c                   22.883(2)
_cell_angle_alpha                90
_cell_angle_beta                 90
_cell_angle_gamma                120
_cell_volume                     3259.56
loop_
_atom_site_label
_atom_site_type_symbol
_atom_site_fract_x
_atom_site_fract_y
_atom_site_fract_z
C1 C 0.0536(9) 0.6121(9) 0.1026(4)
H1 H 0.1357 0.6390 0.1032
C2 C 0.0019(9) 0.6282(8) 0.0528(3)
H2 H 0.0497 0.6669 0.0205
Cu5 Cu 0.05056(12) 0.50292(16) 0.21464(4)
N1 N 0.9846(7) 0.5567(7) 0.1508(3)
C3 C 0.8821(8) 0.5880(7) 0.0508(3)
C4 C 0.8122(10) 0.5365(11) 0.1015(4)
H3 H 0.7307 0.5122 0.1024
C5 C 0.8683(10) 0.5236(11) 0.1490(4)
H4 H 0.8225 0.4894 0.1824
N6 N 0.4433(7) 0.4279(10) 0.1508(3)
C13 C 0.3879(9) 0.4415(13) 0.1026(4)
H10 H 0.3610 0.4967 0.1032
C14 C 0.3718(8) 0.3737(12) 0.0528(3)
H11 H 0.3331 0.3828 0.0205
C15 C 0.4120(7) 0.2941(11) 0.0508(3)
C16 C 0.4635(11) 0.2757(15) 0.1015(4)
H12 H 0.4878 0.2185 0.1024
C17 C 0.4764(11) 0.3447(15) 0.1490(4)
H13 H 0.5106 0.3331 0.1824
N10 N 0.5721(10) 0.0154(7) 0.1508(3)
C27 C 0.7059(11) 0.1179(8) 0.0508(3)
C28 C 0.7243(15) 0.1878(10) 0.1015(4)
H21 H 0.7815 0.2693 0.1024
C29 C 0.6553(15) 0.1317(10) 0.1490(4)
H22 H 0.6669 0.1775 0.1824
Cu6 Cu 0.49708(16) 0.54763(10) 0.21464(4)
Cu1 Cu 0.78570(10) 0.61611(12) 0.88131(4)
N2 N 0.7102(7) 0.5654(8) 0.9990(3)
N3 N 0.6712(7) 0.5726(7) 0.9442(3)
N4 N 0.6418(7) 0.6028(7) 0.8350(3)
N5 N 0.6667 0.3333 0.8617(4)
O1 O 0.8890(5) 0.6278(6) 0.9488(2)
O2 O 0.7657(6) 0.4283(6) 0.8646(3)
C6 C 0.8244(8) 0.5954(8) 0.9958(3)
C7 C 0.5683(8) 0.5572(10) 0.9329(4)
H5 H 0.5105 0.5389 0.9617
C8 C 0.5459(8) 0.5703(9) 0.8709(4)
C9 C 0.4360(9) 0.5535(10) 0.8497(5)
H6 H 0.3718 0.5329 0.8750
C10 C 0.4245(10) 0.5676(11) 0.7923(6)
H7 H 0.3517 0.5555 0.7776
C11 C 0.5236(10) 0.6008(10) 0.7541(5)
H8 H 0.5182 0.6114 0.7142
C12 C 0.6291(9) 0.6167(9) 0.7795(4)
H9 H 0.6951 0.6386 0.7552
O3 O 0.5717(6) 0.3374(8) 0.8646(3)
O4 O 0.6626(8) 0.2343(6) 0.8646(3)
Cu2 Cu 0.38389(12) 0.16959(16) 0.88131(4)
N7 N 0.4346(8) 0.1448(11) 0.9990(3)
N8 N 0.4274(7) 0.0986(10) 0.9442(3)
N9 N 0.3972(7) 0.0390(10) 0.8350(3)
O5 O 0.3722(6) 0.2612(8) 0.9488(2)
C18 C 0.4046(8) 0.2290(11) 0.9958(3)
C19 C 0.4428(10) 0.0111(13) 0.9329(4)
C24 C 0.3833(9) 0.0124(13) 0.7795(4)
H18 H 0.3614 0.0565 0.7552
Cu3 Cu 0.83041(16) 0.21430(10) 0.88131(4)
N11 N 0.8552(11) 0.2898(7) 0.9990(3)
N12 N 0.9014(10) 0.3288(7) 0.9442(3)
N13 N 0.9610(10) 0.3582(7) 0.8350(3)
O6 O 0.7388(8) 0.1110(5) 0.9488(2)
C30 C 0.7710(11) 0.1756(8) 0.9958(3)
C31 C 0.9889(13) 0.4317(8) 0.9329(4)
C36 C 0.9876(13) 0.3709(9) 0.7795(4)
H27 H 0.9435 0.3049 0.7552
N14 N 0.3179(7) 0.2234(7) 0.8175(3)
N15 N 0.7766(7) 0.0946(10) 0.8175(3)
N16 N 0.9054(10) 0.6821(7) 0.8175(3)
C25 C 0.5585(13) 0.9464(9) 0.1026(4)
H19 H 0.5033 0.8643 0.1032
C26 C 0.6263(12) 0.9981(9) 0.0528(3)
H20 H 0.6172 0.9503 0.0205
Cu4 Cu 0.45237(10) 0.94944(12) 0.21464(4)
H2_2 H 0.7164 0.0002 0.3538
N1_2 N 0.6513(7) 0.8900(7) 0.4841(3)
N2_2 N 0.3769(7) 0.8987(8) 0.3323(3)
N3_2 N 0.3379(7) 0.9059(7) 0.2775(3)
N4_2 N 0.3085(7) 0.9361(7) 0.1683(3)
N5_2 N 0.3334 0.6666 0.1950(4)
O1_2 O 0.5557(5) 0.9611(6) 0.2821(2)
O2_2 O 0.4324(6) 0.7616(6) 0.1979(3)
C1_2 C 0.7203(9) 0.9454(9) 0.4359(4)
H1_2 H 0.8024 0.9723 0.4365
C2_2 C 0.6686(9) 0.9615(8) 0.3861(3)
C3_2 C 0.5488(8) 0.9213(7) 0.3841(3)
C4_2 C 0.4789(10) 0.8698(11) 0.4348(4)
H3_2 H 0.3974 0.8455 0.4357
C5_2 C 0.5350(10) 0.8569(11) 0.4823(4)
H4_2 H 0.4892 0.8227 0.5157
C6_2 C 0.4911(8) 0.9287(8) 0.3291(3)
C7_2 C 0.2350(8) 0.8905(10) 0.2662(4)
H5_2 H 0.1772 0.8722 0.2950
C8_2 C 0.2126(8) 0.9036(9) 0.2042(4)
C9_2 C 0.1027(9) 0.8868(10) 0.1830(5)
H6_2 H 0.0385 0.8662 0.2083
C10_2 C 0.0912(10) 0.9009(11) 0.1256(6)
H7_2 H 0.0184 0.8888 0.1109
C11_2 C 0.1903(10) 0.9341(10) 0.0874(5)
H8_2 H 0.1849 0.9447 0.0475
C12_2 C 0.2958(9) 0.9500(9) 0.1128(4)
H9_2 H 0.3618 0.9719 0.0885
O3_2 O 0.2384(6) 0.6707(8) 0.1979(3)
O4_2 O 0.3293(8) 0.5676(6) 0.1979(3)
N6_2 N 0.1100(7) 0.7612(10) 0.4841(3)
N7_2 N 0.1013(8) 0.4781(11) 0.3323(3)
N8_2 N 0.0941(7) 0.4319(10) 0.2775(3)
N9_2 N 0.0639(7) 0.3723(10) 0.1683(3)
O5_2 O 0.0389(6) 0.5945(8) 0.2821(2)
C13_2 C 0.0546(9) 0.7748(13) 0.4359(4)
H10_2 H 0.0277 0.8300 0.4365
C14_2 C 0.0385(8) 0.7070(12) 0.3861(3)
C15_2 C 0.0787(7) 0.6274(11) 0.3841(3)
C16_2 C 0.1302(11) 0.6090(15) 0.4348(4)
H12_2 H 0.1545 0.5518 0.4357
C17_2 C 0.1431(11) 0.6780(15) 0.4823(4)
H13_2 H 0.1773 0.6664 0.5157
C18_2 C 0.0713(8) 0.5623(11) 0.3291(3)
C19_2 C 0.1095(10) 0.3444(13) 0.2662(4)
H14 H 0.1278 0.3049 0.2950
C20 C 0.0964(9) 0.3089(12) 0.2042(4)
C21 C 0.1132(10) 0.2158(13) 0.1830(5)
H15 H 0.1338 0.1722 0.2083
C22 C 0.0991(11) 0.1902(15) 0.1256(6)
H16 H 0.1112 0.1295 0.1109
C23 C 0.0659(10) 0.2561(14) 0.0874(5)
H17 H 0.0553 0.2401 0.0475
C24_2 C 0.0500(9) 0.3457(13) 0.1128(4)
H18_2 H 0.0281 0.3898 0.0885
N10_2 N 0.2388(10) 0.3487(7) 0.4841(3)
N11_2 N 0.5219(11) 0.6231(7) 0.3323(3)
N12_2 N 0.5681(10) 0.6621(7) 0.2775(3)
N13_2 N 0.6277(10) 0.6915(7) 0.1683(3)
O6_2 O 0.4055(8) 0.4443(5) 0.2821(2)
C25_2 C 0.2252(13) 0.2797(9) 0.4359(4)
H19_2 H 0.1700 0.1976 0.4365
C26_2 C 0.2930(12) 0.3314(9) 0.3861(3)
H20_2 H 0.2839 0.2836 0.3538
C27_2 C 0.3726(11) 0.4512(8) 0.3841(3)
C28_2 C 0.3910(15) 0.5211(10) 0.4348(4)
H21_2 H 0.4482 0.6026 0.4357
C29_2 C 0.3220(15) 0.4650(10) 0.4823(4)
H22_2 H 0.3336 0.5108 0.5157
C30_2 C 0.4377(11) 0.5089(8) 0.3291(3)
C31_2 C 0.6556(13) 0.7650(8) 0.2662(4)
H23 H 0.6951 0.8228 0.2950
C32 C 0.6911(12) 0.7874(8) 0.2042(4)
C33 C 0.7842(13) 0.8973(9) 0.1830(5)
H24 H 0.8278 0.9615 0.2083
C34 C 0.8098(15) 0.9088(10) 0.1256(6)
H25 H 0.8705 0.9816 0.1109
C35 C 0.7439(14) 0.8097(10) 0.0874(5)
H26 H 0.7599 0.8151 0.0475
C36_2 C 0.6543(13) 0.7042(9) 0.1128(4)
H27_2 H 0.6102 0.6382 0.0885
Cu4_2 Cu 0.11903(10) 0.28278(12) 0.54798(4)
Cu5_2 Cu 0.71722(12) 0.83626(16) 0.54798(4)
Cu6_2 Cu 0.16374(16) 0.88097(10) 0.54798(4)
H11_2 H 0.9998 0.7161 0.3538
N2_3 N 0.0435(7) 0.2321(8) 0.6657(3)
N3_3 N 0.0045(7) 0.2393(7) 0.6109(3)
N5_3 N 0.0000 -0.0000 0.5284(4)
O1_3 O 0.2223(5) 0.2945(6) 0.6155(2)
O2_3 O 0.0990(6) 0.0950(6) 0.5313(3)
C1_3 C 0.3869(9) 0.2788(9) 0.7693(4)
H1_3 H 0.4690 0.3057 0.7699
C2_3 C 0.3352(9) 0.2949(8) 0.7195(3)
H2_3 H 0.3830 0.3336 0.6872
C3_3 C 0.2154(8) 0.2547(7) 0.7175(3)
C4_3 C 0.1455(10) 0.2032(11) 0.7682(4)
H3_3 H 0.0640 0.1789 0.7691
C5_3 C 0.2016(10) 0.1903(11) 0.8157(4)
H4_3 H 0.1558 0.1561 0.8491
C6_3 C 0.1577(8) 0.2621(8) 0.6625(3)
H9_3 H 0.0284 0.3053 0.4219
N13_3 N 0.2943(10) 0.0249(7) 0.5017(3)
C31_3 C 0.3222(13) 0.0984(8) 0.5996(4)
H23_2 H 0.3617 0.1562 0.6284
C32_2 C 0.3577(12) 0.1208(8) 0.5376(4)
C33_2 C 0.4508(13) 0.2307(9) 0.5164(5)
H24_2 H 0.4944 0.2949 0.5417
C34_2 C 0.4764(15) 0.2422(10) 0.4590(6)
H25_2 H 0.5371 0.3150 0.4443
C35_2 C 0.4105(14) 0.1431(10) 0.4208(5)
H26_2 H 0.4265 0.1485 0.3809
C36_3 C 0.3209(13) 0.0376(9) 0.4462(4)
N5_4 N 0.0000 1.0000 0.5284(4)
N11_3 N 0.1885(11) 0.9565(7) 0.6657(3)
N12_3 N 0.2347(10) 0.9955(7) 0.6109(3)
O6_3 O 0.0721(8) 0.7777(5) 0.6155(2)
C27_3 C 0.0392(11) 0.7846(8) 0.7175(3)
C28_3 C 0.0576(15) 0.8545(10) 0.7682(4)
H21_3 H 0.1148 0.9360 0.7691
H22_3 H 0.0002 0.8442 0.8491
C30_3 C 0.1043(11) 0.8423(8) 0.6625(3)
H27_3 H 0.2768 0.9716 0.4219
N4_3 N 0.9751(7) 0.2695(7) 0.5017(3)
N5_5 N 1.0000 -0.0000 0.5284(4)
C7_3 C 0.9016(8) 0.2239(10) 0.5996(4)
H5_3 H 0.8438 0.2056 0.6284
C8_3 C 0.8792(8) 0.2370(9) 0.5376(4)
C9_3 C 0.7693(9) 0.2202(10) 0.5164(5)
H6_3 H 0.7051 0.1996 0.5417
C10_3 C 0.7578(10) 0.2343(11) 0.4590(6)
H7_3 H 0.6850 0.2222 0.4443
C11_3 C 0.8569(10) 0.2675(10) 0.4208(5)
H8_3 H 0.8515 0.2781 0.3809
C12_3 C 0.9624(9) 0.2834(9) 0.4462(4)
O3_3 O 0.9050(6) 0.0041(8) 0.5313(3)
C13_3 C 0.7212(9) 0.1082(13) 0.7693(4)
H10_3 H 0.6943 0.1634 0.7699
C14_3 C 0.7051(8) 0.0404(12) 0.7195(3)
H11_3 H 0.6664 0.0495 0.6872
C17_3 C 0.8097(11) 0.0114(15) 0.8157(4)
N5_6 N 1.0000 1.0000 0.5284(4)
O4_3 O 0.9959(8) 0.9010(6) 0.5313(3)
N7_3 N 0.7679(8) 0.8115(11) 0.6657(3)
N8_3 N 0.7607(7) 0.7653(10) 0.6109(3)
N9_3 N 0.7305(7) 0.7057(10) 0.5017(3)
O5_3 O 0.7055(6) 0.9279(8) 0.6155(2)
C15_3 C 0.7453(7) 0.9608(11) 0.7175(3)
C16_3 C 0.7968(11) 0.9424(15) 0.7682(4)
H12_3 H 0.8211 0.8852 0.7691
H13_3 H 0.8439 0.9998 0.8491
C18_3 C 0.7379(8) 0.8957(11) 0.6625(3)
C19_3 C 0.7761(10) 0.6778(13) 0.5996(4)
H14_2 H 0.7944 0.6383 0.6284
C20_2 C 0.7630(9) 0.6423(12) 0.5376(4)
C21_2 C 0.7798(10) 0.5492(13) 0.5164(5)
H15_2 H 0.8004 0.5056 0.5417
C22_2 C 0.7657(11) 0.5236(15) 0.4590(6)
H16_2 H 0.7778 0.4629 0.4443
C23_2 C 0.7325(10) 0.5895(14) 0.4208(5)
H17_2 H 0.7219 0.5735 0.3809
C24_3 C 0.7166(9) 0.6791(13) 0.4462(4)
H18_3 H 0.6947 0.7232 0.4219
C25_3 C 0.8918(13) 0.6131(9) 0.7693(4)
H19_3 H 0.8366 0.5310 0.7699
C26_3 C 0.9596(12) 0.6648(9) 0.7195(3)
H20_3 H 0.9505 0.6170 0.6872
C29_3 C 0.9886(15) 0.7984(10) 0.8157(4)
H23_3 H 0.0284 0.4895 0.9617
C32_3 C 0.0244(12) 0.4541(8) 0.8709(4)
C33_3 C 0.1175(13) 0.5640(9) 0.8497(5)
H24_3 H 0.1611 0.6282 0.8750
C34_3 C 0.1431(15) 0.5755(10) 0.7923(6)
H25_3 H 0.2038 0.6483 0.7776
C35_3 C 0.0772(14) 0.4764(10) 0.7541(5)
H26_3 H 0.0932 0.4818 0.7142
H14_3 H 0.4611 0.9716 0.9617
C20_3 C 0.4297(9) 0.9756(12) 0.8709(4)
C21_3 C 0.4465(10) 0.8825(13) 0.8497(5)
H15_3 H 0.4671 0.8389 0.8750
C22_3 C 0.4324(11) 0.8569(15) 0.7923(6)
H16_3 H 0.4445 0.7962 0.7776
C23_3 C 0.3992(10) 0.9228(14) 0.7541(5)
H17_3 H 0.3886 0.9068 0.7142
N17 N 0.3333 0.6667 0.0013(11)
O7 O 0.4393(17) 0.690(2) 0.9976(11)
O8 O 0.310(2) 0.7493(26) 0.9976(11)
O9 O 0.2507(26) 0.5607(17) 0.9976(11)
N17_2 N -0.0000 0.0000 0.3346(11)
O7_2 O 0.1060(17) 0.023(2) 0.3309(11)
N17_3 N -0.0000 1.0000 0.3346(11)
N17_4 N 1.0000 0.0000 0.3346(11)
O8_2 O 0.977(2) 0.0826(26) 0.3309(11)
N17_5 N 1.0000 1.0000 0.3346(11)
O9_2 O 0.9174(26) 0.8940(17) 0.3309(11)
N17_6 N 0.6666 0.3334 0.6680(11)
O7_3 O 0.7726(17) 0.357(2) 0.6643(11)
O8_3 O 0.643(2) 0.4160(26) 0.6643(11)
O9_3 O 0.5840(26) 0.2274(17) 0.6643(11)
loop_
_geom_bond_atom_site_label_1
_geom_bond_atom_site_label_2
_geom_bond_site_symmetry_1
_geom_bond_site_symmetry_2
C1 H1 1_555 1_555
C2 C1 1_555 1_555
H2 C2 1_555 1_555
C4 C3 1_555 1_555
H3 C4 1_555 1_555
C5 N1 1_555 1_555
H4 C5 1_555 1_555
N6 C13 1_555 1_555
C13 H10 1_555 1_555
C14 C13 1_555 1_555
H11 C14 1_555 1_555
C15 C14 1_555 1_555
C16 C15 1_555 1_555
H12 C16 1_555 1_555
C17 N6 1_555 1_555
H13 C17 1_555 1_555
C28 C27 1_555 1_555
H21 C28 1_555 1_555
C29 N10 1_555 1_555
H22 C29 1_555 1_555
Cu6 N6 1_555 1_555
C4 C5 1_555 1_555
C16 C17 1_555 1_555
C28 C29 1_555 1_555
Cu1 N3 1_555 1_555
N2 N3 1_555 1_555
N3 C7 1_555 1_555
N4 Cu1 1_555 1_555
N5 O2 1_555 1_555
O1 Cu1 1_555 1_555
O2 Cu1 1_555 1_555
C6 N2 1_555 1_555
C7 H5 1_555 1_555
C8 N4 1_555 1_555
C9 C8 1_555 1_555
H6 C9 1_555 1_555
C10 C9 1_555 1_555
H7 C10 1_555 1_555
C11 C10 1_555 1_555
H8 C11 1_555 1_555
C12 N4 1_555 1_555
H9 C12 1_555 1_555
O3 N5 1_555 1_555
O4 N5 1_555 1_555
Cu2 O3 1_555 1_555
N7 N8 1_555 1_555
N8 Cu2 1_555 1_555
N9 Cu2 1_555 1_555
O5 Cu2 1_555 1_555
C18 N7 1_555 1_555
C19 N8 1_555 1_555
C24 N9 1_555 1_555
H18 C24 1_555 1_555
Cu3 O4 1_555 1_555
N11 N12 1_555 1_555
N12 Cu3 1_555 1_555
N13 Cu3 1_555 1_555
O6 Cu3 1_555 1_555
C30 N11 1_555 1_555
C31 N12 1_555 1_555
C36 N13 1_555 1_555
H27 C36 1_555 1_555
N14 Cu2 1_555 1_555
N15 Cu3 1_555 1_555
N16 Cu1 1_555 1_555
O1 C6 1_555 1_555
C7 C8 1_555 1_555
C11 C12 1_555 1_555
O5 C18 1_555 1_555
O6 C30 1_555 1_555
C25 H19 1_555 1_555
C26 C25 1_555 1_555
H20 C26 1_555 1_555
Cu4 N3_2 1_555 1_555
N1_2 C1_2 1_555 1_555
N2_2 N3_2 1_555 1_555
N3_2 C7_2 1_555 1_555
N4_2 Cu4 1_555 1_555
N5_2 O2_2 1_555 1_555
O1_2 Cu4 1_555 1_555
O2_2 Cu4 1_555 1_555
C1_2 H1_2 1_555 1_555
C2_2 C1_2 1_555 1_555
C3_2 C2_2 1_555 1_555
C4_2 C3_2 1_555 1_555
H3_2 C4_2 1_555 1_555
C5_2 N1_2 1_555 1_555
H4_2 C5_2 1_555 1_555
C6_2 N2_2 1_555 1_555
C7_2 H5_2 1_555 1_555
C8_2 N4_2 1_555 1_555
C9_2 C8_2 1_555 1_555
H6_2 C9_2 1_555 1_555
C10_2 C9_2 1_555 1_555
H7_2 C10_2 1_555 1_555
C11_2 C10_2 1_555 1_555
H8_2 C11_2 1_555 1_555
C12_2 N4_2 1_555 1_555
H9_2 C12_2 1_555 1_555
O3_2 N5_2 1_555 1_555
O4_2 N5_2 1_555 1_555
Cu5 O3_2 1_555 1_555
N6_2 C13_2 1_555 1_555
N7_2 N8_2 1_555 1_555
N8_2 Cu5 1_555 1_555
N9_2 Cu5 1_555 1_555
O5_2 Cu5 1_555 1_555
C13_2 H10_2 1_555 1_555
C14_2 C13_2 1_555 1_555
C15_2 C14_2 1_555 1_555
C16_2 C15_2 1_555 1_555
H12_2 C16_2 1_555 1_555
C17_2 N6_2 1_555 1_555
H13_2 C17_2 1_555 1_555
C18_2 N7_2 1_555 1_555
C19_2 N8_2 1_555 1_555
H14 C19_2 1_555 1_555
C20 N9_2 1_555 1_555
C21 C20 1_555 1_555
H15 C21 1_555 1_555
C22 C21 1_555 1_555
H16 C22 1_555 1_555
C23 C22 1_555 1_555
H17 C23 1_555 1_555
C24_2 N9_2 1_555 1_555
H18_2 C24_2 1_555 1_555
Cu6 O4_2 1_555 1_555
N10_2 C25_2 1_555 1_555
N11_2 N12_2 1_555 1_555
N12_2 Cu6 1_555 1_555
N13_2 Cu6 1_555 1_555
O6_2 Cu6 1_555 1_555
C25_2 H19_2 1_555 1_555
C26_2 C25_2 1_555 1_555
H20_2 C26_2 1_555 1_555
C27_2 C26_2 1_555 1_555
C28_2 C27_2 1_555 1_555
H21_2 C28_2 1_555 1_555
C29_2 N10_2 1_555 1_555
H22_2 C29_2 1_555 1_555
C30_2 N11_2 1_555 1_555
C31_2 N12_2 1_555 1_555
H23 C31_2 1_555 1_555
C32 N13_2 1_555 1_555
C33 C32 1_555 1_555
H24 C33 1_555 1_555
C34 C33 1_555 1_555
H25 C34 1_555 1_555
C35 C34 1_555 1_555
H26 C35 1_555 1_555
C36_2 N13_2 1_555 1_555
H27_2 C36_2 1_555 1_555
Cu4_2 N10_2 1_555 1_555
Cu5_2 N1_2 1_555 1_555
Cu6_2 N6_2 1_555 1_555
O1_2 C6_2 1_555 1_555
C3_2 C6_2 1_555 1_555
C4_2 C5_2 1_555 1_555
C7_2 C8_2 1_555 1_555
C11_2 C12_2 1_555 1_555
O5_2 C18_2 1_555 1_555
C15_2 C18_2 1_555 1_555
C16_2 C17_2 1_555 1_555
C19_2 C20 1_555 1_555
C23 C24_2 1_555 1_555
O6_2 C30_2 1_555 1_555
C27_2 C30_2 1_555 1_555
C28_2 C29_2 1_555 1_555
C31_2 C32 1_555 1_555
C35 C36_2 1_555 1_555
Cu4_2 N3_3 1_555 1_555
N14 C1_3 1_555 1_555
N2_3 N3_3 1_555 1_555
N5_3 O2_3 1_555 1_555
O1_3 Cu4_2 1_555 1_555
O2_3 Cu4_2 1_555 1_555
C1_3 H1_3 1_555 1_555
C2_3 C1_3 1_555 1_555
H2_3 C2_3 1_555 1_555
C3_3 C2_3 1_555 1_555
C4_3 C3_3 1_555 1_555
H3_3 C4_3 1_555 1_555
C5_3 N14 1_555 1_555
H4_3 C5_3 1_555 1_555
C6_3 N2_3 1_555 1_555
H23_2 C31_3 1_555 1_555
C32_2 N13_3 1_555 1_555
C33_2 C32_2 1_555 1_555
H24_2 C33_2 1_555 1_555
C34_2 C33_2 1_555 1_555
H25_2 C34_2 1_555 1_555
C35_2 C34_2 1_555 1_555
H26_2 C35_2 1_555 1_555
C36_3 N13_3 1_555 1_555
O1_3 C6_3 1_555 1_555
C3_3 C6_3 1_555 1_555
C4_3 C5_3 1_555 1_555
C31_3 C32_2 1_555 1_555
C35_2 C36_3 1_555 1_555
N11_3 N12_3 1_555 1_555
N12_3 Cu6_2 1_555 1_555
O6_3 Cu6_2 1_555 1_555
C28_3 C27_3 1_555 1_555
H21_3 C28_3 1_555 1_555
C30_3 N11_3 1_555 1_555
O6_3 C30_3 1_555 1_555
C27_3 C30_3 1_555 1_555
C7_3 H5_3 1_555 1_555
C8_3 N4_3 1_555 1_555
C9_3 C8_3 1_555 1_555
H6_3 C9_3 1_555 1_555
C10_3 C9_3 1_555 1_555
H7_3 C10_3 1_555 1_555
C11_3 C10_3 1_555 1_555
H8_3 C11_3 1_555 1_555
C12_3 N4_3 1_555 1_555
O3_3 N5_5 1_555 1_555
N15 C13_3 1_555 1_555
C13_3 H10_3 1_555 1_555
C14_3 C13_3 1_555 1_555
H11_3 C14_3 1_555 1_555
C17_3 N15 1_555 1_555
C7_3 C8_3 1_555 1_555
C11_3 C12_3 1_555 1_555
O4_3 N5_6 1_555 1_555
N7_3 N8_3 1_555 1_555
N8_3 Cu5_2 1_555 1_555
N9_3 Cu5_2 1_555 1_555
O5_3 Cu5_2 1_555 1_555
C16_3 C15_3 1_555 1_555
H12_3 C16_3 1_555 1_555
C18_3 N7_3 1_555 1_555
C19_3 N8_3 1_555 1_555
H14_2 C19_3 1_555 1_555
C20_2 N9_3 1_555 1_555
C21_2 C20_2 1_555 1_555
H15_2 C21_2 1_555 1_555
C22_2 C21_2 1_555 1_555
H16_2 C22_2 1_555 1_555
C23_2 C22_2 1_555 1_555
H17_2 C23_2 1_555 1_555
C24_3 N9_3 1_555 1_555
H18_3 C24_3 1_555 1_555
N16 C25_3 1_555 1_555
C25_3 H19_3 1_555 1_555
C26_3 C25_3 1_555 1_555
H20_3 C26_3 1_555 1_555
C29_3 N16 1_555 1_555
O5_3 C18_3 1_555 1_555
C15_3 C18_3 1_555 1_555
C19_3 C20_2 1_555 1_555
C23_2 C24_3 1_555 1_555
C33_3 C32_3 1_555 1_555
H24_3 C33_3 1_555 1_555
C34_3 C33_3 1_555 1_555
H25_3 C34_3 1_555 1_555
C35_3 C34_3 1_555 1_555
H26_3 C35_3 1_555 1_555
C21_3 C20_3 1_555 1_555
H15_3 C21_3 1_555 1_555
C22_3 C21_3 1_555 1_555
H16_3 C22_3 1_555 1_555
C23_3 C22_3 1_555 1_555
H17_3 C23_3 1_555 1_555
N17_2 O7_2 1_555 1_555
O8_2 N17_4 1_555 1_555
O9_2 N17_5 1_555 1_555
N17_6 O7_3 1_555 1_555
O8_3 N17_6 1_555 1_555
O9_3 N17_6 1_555 1_555

#END
