
###############################################################################
#
# This file contains modified crystal structure data generated from the
# MOF subset of the Cambridge Structural Database (CSD) v543 
# hosted by the Cambridge Crystallographic Data Centre (CCDC).
#
# This work is licensed under the Creative Commons
# Attribution-NonCommercial-ShareAlike 4.0 International License.
# To view a copy of this license, visit
# http://creativecommons.org/licenses/by-nc-sa/4.0/
# or send a letter to
# Creative Commons, PO Box 1866, Mountain View, CA 94042, USA.
#
# CIF created using the CSD Python API on 29 September 2022
# The structure has been converted into the P1 space group
# The structure has a 3D framework
# The original CSD entry CAKXUJ is in the monoclinic crystal system
# The framework has been calculated to contain at least 10.0% void space
# The void calculation uses a probe of radius 1.32A, grid spacing 0.4
# H atom positions have been added when not included in the experimental data
#
###############################################################################

data_CAKXUJ
_chemical_formula_moiety         '(C28 H24 N8 O31 Tb4)n'
_symmetry_cell_setting           triclinic
_symmetry_space_group_name_H-M   'P 1'
_symmetry_Int_Tables_number      1
_space_group_name_Hall           'P 1'
loop_
_symmetry_equiv_pos_site_id
_symmetry_equiv_pos_as_xyz
1 x,y,z
_cell_length_a                   9.664(4)
_cell_length_b                   15.844(7)
_cell_length_c                   7.959(1)
_cell_angle_alpha                90
_cell_angle_beta                 96.489(4)
_cell_angle_gamma                90
_cell_volume                     1210.85
loop_
_atom_site_label
_atom_site_type_symbol
_atom_site_fract_x
_atom_site_fract_y
_atom_site_fract_z
O11 O 0.11009(19) 0.68929(12) 0.1482(3)
O6 O 0.02308(20) 0.40965(11) 0.1255(2)
Tb2 Tb 0.866676(12) 0.672929(8) 0.077057(16)
Tb6 Tb 0.366676(12) 0.827071(8) 0.577057(16)
O13 O 0.9431(2) 0.53632(12) 0.1875(3)
O14 O 0.18740(19) 0.76121(12) 0.3802(2)
O17 O 0.8374(2) 0.81698(12) 0.1598(3)
O20 O 0.8989(2) 0.67722(12) 0.3850(3)
N3 N 0.6243(2) 0.67181(14) 0.1869(3)
N4 N 0.4509(2) 0.73339(14) 0.3347(3)
C8 C 0.5264(3) 0.63222(16) 0.0850(3)
C9 C 0.2041(3) 0.71622(16) 0.2550(3)
C10 C 0.3856(3) 0.64137(17) 0.1033(3)
C11 C 0.3527(3) 0.69439(16) 0.2296(3)
C13 C 0.5823(3) 0.72056(16) 0.3084(4)
H3 H 0.315038 0.612087 0.0314
H4 H 0.652930 0.748530 0.382630
H9 H 0.770028 0.819564 0.24507
H10 H 0.928463 0.84012 0.209369
H11 H 0.934044 0.621738 0.429444
H12 H 0.967298 0.721935 0.423255
Tb5 Tb 0.133324(12) 0.327071(8) 0.922943(16)
O9 O 0.70713(19) 0.57081(12) 0.9501(3)
O12 O 0.0569(2) 0.46368(12) 0.8125(3)
O16 O 0.68740(19) 0.73879(12) 0.8802(2)
O19 O 0.97692(20) 0.59035(11) 0.8745(2)
N6 N 0.9509(2) 0.76661(14) 0.8347(3)
O21 O 0.48860(20) 0.55682(12) 0.8273(3)
C12 C 0.5771(3) 0.58143(16) 0.9416(3)
C14 C 0.0096(2) 0.51526(16) 0.9097(3)
C7 C 0.9904(2) 0.48474(16) 0.0903(3)
O2 O 0.38991(19) 0.18929(12) 0.3518(3)
O4 O 0.31260(19) 0.26121(12) 0.1198(2)
N2 N 0.0491(2) 0.23339(14) 0.1653(3)
C2 C 0.2959(3) 0.21622(16) 0.2450(3)
C3 C 0.1144(3) 0.14137(17) 0.3967(3)
C4 C 0.1473(3) 0.19439(16) 0.2704(3)
O8 O 0.01140(20) 0.05682(12) 0.6727(3)
H1 H 0.184962 0.112087 0.4686
Tb3 Tb 0.633324(12) 0.172929(8) 0.422943(16)
O1 O 0.79287(19) 0.07081(12) 0.5499(3)
O3 O 0.5569(2) 0.03632(12) 0.3125(3)
O5 O 0.6626(2) 0.31698(12) 0.3402(3)
O7 O 0.6011(2) 0.17722(12) 0.1150(3)
N1 N 0.8757(2) 0.17181(14) 0.3131(3)
C1 C 0.9736(3) 0.13222(16) 0.4150(3)
C5 C 0.9229(3) 0.08143(16) 0.5584(3)
C6 C 0.9177(3) 0.22056(16) 0.1916(4)
H2 H 0.847070 0.248530 0.117370
O15 O 0.81260(19) 0.23879(12) 0.6198(2)
O18 O 0.52308(20) 0.09035(11) 0.6255(2)
N5 N 0.5491(2) 0.26661(14) 0.6653(3)
C14_2 C 0.4904(2) 0.01526(16) 0.5903(3)
H5 H 0.729972 0.319564 0.25493
H6 H 0.571537 0.34012 0.290631
H7 H 0.565956 0.121738 0.0705556
H8 H 0.532702 0.221935 0.0767445
O6_2 O 0.47692(20) 0.90965(11) 0.3745(2)
C7_2 C 0.5096(2) 0.98474(16) 0.4097(3)
O12_2 O 0.4431(2) 0.96368(12) 0.6875(3)
O1_2 O 0.29287(19) 0.42919(12) 0.0499(3)
O8_2 O 0.51140(20) 0.44318(12) 0.1727(3)
C5_2 C 0.4229(3) 0.41857(16) 0.0584(3)
O2_2 O 0.88991(19) 0.31071(12) 0.8518(3)
O5_2 O 0.1626(2) 0.18302(12) 0.8402(3)
O7_2 O 0.1011(2) 0.32278(12) 0.6150(3)
N1_2 N 0.3757(2) 0.32819(14) 0.8131(3)
C1_2 C 0.4736(3) 0.36778(16) 0.9150(3)
C2_2 C 0.7959(3) 0.28378(16) 0.7450(3)
C3_2 C 0.6144(3) 0.35863(17) 0.8967(3)
C4_2 C 0.6473(3) 0.30561(16) 0.7704(3)
C6_2 C 0.4177(3) 0.27944(16) 0.6916(4)
H1_2 H 0.684962 0.387913 0.9686
H2_2 H 0.347070 0.251470 0.617370
H5_2 H 0.229972 0.180436 0.75493
H6_2 H 0.0715372 0.15988 0.790631
H7_2 H 0.0659563 0.378262 0.570556
H8_2 H 0.0327019 0.278065 0.576745
O9_2 O 0.20713(19) 0.92919(12) 0.4501(3)
O11_2 O 0.61009(19) 0.81071(12) 0.6482(3)
O17_2 O 0.3374(2) 0.68302(12) 0.6598(3)
O20_2 O 0.3989(2) 0.82278(12) 0.8850(3)
N3_2 N 0.1243(2) 0.82819(14) 0.6869(3)
C8_2 C 0.0264(3) 0.86778(16) 0.5850(3)
C12_2 C 0.0771(3) 0.91857(16) 0.4416(3)
C13_2 C 0.0823(3) 0.77944(16) 0.8084(4)
H4_2 H 0.152930 0.751470 0.882630
H9_2 H 0.270028 0.680436 0.74507
H10_2 H 0.428463 0.65988 0.709369
H11_2 H 0.434044 0.878262 0.929444
H12_2 H 0.467298 0.778065 0.923255
C9_2 C 0.7041(3) 0.78378(16) 0.7550(3)
C10_2 C 0.8856(3) 0.85863(17) 0.6033(3)
C11_2 C 0.8527(3) 0.80561(16) 0.7296(3)
O21_2 O 0.98860(20) 0.94318(12) 0.3273(3)
H3_2 H 0.815038 0.887913 0.5314
loop_
_geom_bond_atom_site_label_1
_geom_bond_atom_site_label_2
_geom_bond_site_symmetry_1
_geom_bond_site_symmetry_2
Tb6 O14 1_555 1_555
O13 Tb2 1_555 1_555
O14 C9 1_555 1_555
O17 Tb2 1_555 1_555
O20 Tb2 1_555 1_555
N3 Tb2 1_555 1_555
N4 Tb6 1_555 1_555
C8 N3 1_555 1_555
C9 O11 1_555 1_555
C10 C8 1_555 1_555
C11 N4 1_555 1_555
C13 N3 1_555 1_555
H3 C10 1_555 1_555
H4 C13 1_555 1_555
N4 C13 1_555 1_555
C9 C11 1_555 1_555
C10 C11 1_555 1_555
O17 H9 1_555 1_555
O17 H10 1_555 1_555
O20 H11 1_555 1_555
O20 H12 1_555 1_555
O9 C12 1_555 1_555
O12 Tb5 1_555 1_555
O21 C12 1_555 1_555
O12 C14 1_555 1_555
C7 O13 1_555 1_555
O2 C2 1_555 1_555
O4 C2 1_555 1_555
N2 C4 1_555 1_555
C2 C4 1_555 1_555
C4 C3 1_555 1_555
H1 C3 1_555 1_555
Tb3 O2 1_555 1_555
Tb3 O1 1_555 1_555
O1 C5 1_555 1_555
O3 Tb3 1_555 1_555
O5 Tb3 1_555 1_555
O7 Tb3 1_555 1_555
N1 Tb3 1_555 1_555
C1 N1 1_555 1_555
C5 C1 1_555 1_555
C6 N1 1_555 1_555
H2 C6 1_555 1_555
O15 Tb3 1_555 1_555
O18 Tb3 1_555 1_555
N5 Tb3 1_555 1_555
O18 C14_2 1_555 1_555
O5 H5 1_555 1_555
O5 H6 1_555 1_555
O7 H7 1_555 1_555
O7 H8 1_555 1_555
O6_2 C7_2 1_555 1_555
Tb6 O6_2 1_555 1_555
O12_2 Tb6 1_555 1_555
O1_2 C5_2 1_555 1_555
O8_2 C5_2 1_555 1_555
O2_2 C2_2 1_555 1_555
O15 C2_2 1_555 1_555
O5_2 Tb5 1_555 1_555
O7_2 Tb5 1_555 1_555
N1_2 Tb5 1_555 1_555
N5 C4_2 1_555 1_555
C1_2 N1_2 1_555 1_555
C2_2 C4_2 1_555 1_555
C3_2 C1_2 1_555 1_555
C4_2 C3_2 1_555 1_555
C6_2 N1_2 1_555 1_555
H1_2 C3_2 1_555 1_555
H2_2 C6_2 1_555 1_555
N5 C6_2 1_555 1_555
O5_2 H5_2 1_555 1_555
O5_2 H6_2 1_555 1_555
O7_2 H7_2 1_555 1_555
O7_2 H8_2 1_555 1_555
Tb6 O9_2 1_555 1_555
O9_2 C12_2 1_555 1_555
O11_2 Tb6 1_555 1_555
O17_2 Tb6 1_555 1_555
O20_2 Tb6 1_555 1_555
N3_2 Tb6 1_555 1_555
C8_2 N3_2 1_555 1_555
C12_2 C8_2 1_555 1_555
C13_2 N3_2 1_555 1_555
H4_2 C13_2 1_555 1_555
O17_2 H9_2 1_555 1_555
O17_2 H10_2 1_555 1_555
O20_2 H11_2 1_555 1_555
O20_2 H12_2 1_555 1_555
O16 C9_2 1_555 1_555
C9_2 O11_2 1_555 1_555
C11_2 N6 1_555 1_555
H3_2 C10_2 1_555 1_555
C9_2 C11_2 1_555 1_555
C10_2 C11_2 1_555 1_555

#END
