
###############################################################################
#
# This file contains modified crystal structure data generated from the
# MOF subset of the Cambridge Structural Database (CSD) v543 
# hosted by the Cambridge Crystallographic Data Centre (CCDC).
#
# This work is licensed under the Creative Commons
# Attribution-NonCommercial-ShareAlike 4.0 International License.
# To view a copy of this license, visit
# http://creativecommons.org/licenses/by-nc-sa/4.0/
# or send a letter to
# Creative Commons, PO Box 1866, Mountain View, CA 94042, USA.
#
# CIF created using the CSD Python API on 29 September 2022
# The structure has been converted into the P1 space group
# The structure has a 3D framework
# The original CSD entry CAKYAQ is in the monoclinic crystal system
# The framework has been calculated to contain at least 10.0% void space
# The void calculation uses a probe of radius 1.32A, grid spacing 0.4
# H atom positions have been added when not included in the experimental data
#
###############################################################################

data_CAKYAQ
_chemical_formula_moiety         '(C28 H24 Dy4 N8 O31)n'
_symmetry_cell_setting           triclinic
_symmetry_space_group_name_H-M   'P 1'
_symmetry_Int_Tables_number      1
_space_group_name_Hall           'P 1'
loop_
_symmetry_equiv_pos_site_id
_symmetry_equiv_pos_as_xyz
1 x,y,z
_cell_length_a                   9.650(4)
_cell_length_b                   15.845(5)
_cell_length_c                   7.955(3)
_cell_angle_alpha                90
_cell_angle_beta                 96.555(4)
_cell_angle_gamma                90
_cell_volume                     1208.4
loop_
_atom_site_label
_atom_site_type_symbol
_atom_site_fract_x
_atom_site_fract_y
_atom_site_fract_z
O11 O 0.1096(4) 0.6895(2) 0.1473(5)
O6 O 0.0229(3) 0.4096(2) 0.1261(4)
Dy2 Dy 0.86690(2) 0.672903(14) 0.07562(3)
Dy6 Dy 0.36690(2) 0.827097(14) 0.57562(3)
O13 O 0.9433(4) 0.5369(2) 0.1874(4)
O14 O 0.1876(3) 0.7617(2) 0.3793(4)
O17 O 0.8391(4) 0.8168(2) 0.1575(5)
O20 O 0.8987(4) 0.6773(2) 0.3830(5)
N3 N 0.6250(4) 0.6722(2) 0.1862(5)
N4 N 0.4517(4) 0.7341(3) 0.3335(5)
C8 C 0.5267(5) 0.6319(3) 0.0839(6)
C9 C 0.2048(5) 0.7166(3) 0.2539(6)
C10 C 0.3858(5) 0.6411(3) 0.1023(6)
C11 C 0.3530(5) 0.6946(3) 0.2282(6)
C13 C 0.5832(5) 0.7210(3) 0.3074(6)
H3 H 0.315038 0.612087 0.0314
H4 H 0.652930 0.748530 0.382630
H9 H 0.934183 0.621906 0.427652
H10 H 0.966903 0.722166 0.421423
H11 H 0.77173 0.819765 0.242802
H12 H 0.930558 0.839677 0.207
Dy5 Dy 0.13310(2) 0.327097(14) 0.92438(3)
O9 O 0.7082(3) 0.5706(2) 0.9495(5)
O12 O 0.0567(4) 0.4631(2) 0.8126(4)
O16 O 0.6876(3) 0.7383(2) 0.8793(4)
O19 O 0.9771(3) 0.5904(2) 0.8739(4)
N6 N 0.9517(4) 0.7659(3) 0.8335(5)
O21 O 0.4892(4) 0.5565(2) 0.8266(4)
C12 C 0.5769(5) 0.5812(3) 0.9416(6)
C14 C 0.0096(5) 0.5151(3) 0.9102(6)
C7 C 0.9904(5) 0.4849(3) 0.0898(6)
O2 O 0.3904(4) 0.1895(2) 0.3527(5)
O4 O 0.3124(3) 0.2617(2) 0.1207(4)
N2 N 0.0483(4) 0.2341(3) 0.1665(5)
C2 C 0.2952(5) 0.2166(3) 0.2461(6)
C3 C 0.1142(5) 0.1411(3) 0.3977(6)
C4 C 0.1470(5) 0.1946(3) 0.2718(6)
O8 O 0.0108(4) 0.0565(2) 0.6734(4)
H1 H 0.184962 0.112087 0.4686
Dy3 Dy 0.63310(2) 0.172903(14) 0.42438(3)
O1 O 0.7918(3) 0.0706(2) 0.5505(5)
O3 O 0.5567(4) 0.0369(2) 0.3126(4)
O5 O 0.6609(4) 0.3168(2) 0.3425(5)
O7 O 0.6013(4) 0.1773(2) 0.1170(5)
N1 N 0.8750(4) 0.1722(2) 0.3138(5)
C1 C 0.9733(5) 0.1319(3) 0.4161(6)
C5 C 0.9231(5) 0.0812(3) 0.5584(6)
C6 C 0.9168(5) 0.2210(3) 0.1926(6)
H2 H 0.847070 0.248530 0.117370
O15 O 0.8124(3) 0.2383(2) 0.6207(4)
O18 O 0.5229(3) 0.0904(2) 0.6261(4)
N5 N 0.5483(4) 0.2659(3) 0.6665(5)
C14_2 C 0.4904(5) 0.0151(3) 0.5898(6)
H5 H 0.72827 0.319765 0.257198
H6 H 0.569442 0.339677 0.293
H7 H 0.565817 0.121906 0.072348
H8 H 0.533097 0.222166 0.0785774
O6_2 O 0.4771(3) 0.9096(2) 0.3739(4)
C7_2 C 0.5096(5) 0.9849(3) 0.4102(6)
O12_2 O 0.4433(4) 0.9631(2) 0.6874(4)
O1_2 O 0.2918(3) 0.4294(2) 0.0505(5)
O8_2 O 0.5108(4) 0.4435(2) 0.1734(4)
C5_2 C 0.4231(5) 0.4188(3) 0.0584(6)
O2_2 O 0.8904(4) 0.3105(2) 0.8527(5)
O5_2 O 0.1609(4) 0.1832(2) 0.8425(5)
O7_2 O 0.1013(4) 0.3227(2) 0.6170(5)
N1_2 N 0.3750(4) 0.3278(2) 0.8138(5)
C1_2 C 0.4733(5) 0.3681(3) 0.9161(6)
C2_2 C 0.7952(5) 0.2834(3) 0.7461(6)
C3_2 C 0.6142(5) 0.3589(3) 0.8977(6)
C4_2 C 0.6470(5) 0.3054(3) 0.7718(6)
C6_2 C 0.4168(5) 0.2790(3) 0.6926(6)
H1_2 H 0.684962 0.387913 0.9686
H2_2 H 0.347070 0.251470 0.617370
H5_2 H 0.22827 0.180235 0.757198
H6_2 H 0.0694416 0.160323 0.793
H7_2 H 0.0658168 0.378094 0.572348
H8_2 H 0.0330973 0.277834 0.578577
O9_2 O 0.2082(3) 0.9294(2) 0.4495(5)
O11_2 O 0.6096(4) 0.8105(2) 0.6473(5)
O17_2 O 0.3391(4) 0.6832(2) 0.6575(5)
O20_2 O 0.3987(4) 0.8227(2) 0.8830(5)
N3_2 N 0.1250(4) 0.8278(2) 0.6862(5)
C8_2 C 0.0267(5) 0.8681(3) 0.5839(6)
C12_2 C 0.0769(5) 0.9188(3) 0.4416(6)
C13_2 C 0.0832(5) 0.7790(3) 0.8074(6)
H4_2 H 0.152930 0.751470 0.882630
H9_2 H 0.434183 0.878094 0.927652
H10_2 H 0.466903 0.777834 0.921423
H11_2 H 0.27173 0.680235 0.742802
H12_2 H 0.430558 0.660323 0.707
C9_2 C 0.7048(5) 0.7834(3) 0.7539(6)
C10_2 C 0.8858(5) 0.8589(3) 0.6023(6)
C11_2 C 0.8530(5) 0.8054(3) 0.7282(6)
O21_2 O 0.9892(4) 0.9435(2) 0.3266(4)
H3_2 H 0.815038 0.887913 0.5314
loop_
_geom_bond_atom_site_label_1
_geom_bond_atom_site_label_2
_geom_bond_site_symmetry_1
_geom_bond_site_symmetry_2
Dy6 O14 1_555 1_555
O13 Dy2 1_555 1_555
O14 C9 1_555 1_555
O17 Dy2 1_555 1_555
O20 Dy2 1_555 1_555
N3 Dy2 1_555 1_555
N4 Dy6 1_555 1_555
C8 N3 1_555 1_555
C9 O11 1_555 1_555
C10 C8 1_555 1_555
C11 N4 1_555 1_555
C13 N3 1_555 1_555
H3 C10 1_555 1_555
H4 C13 1_555 1_555
N4 C13 1_555 1_555
C9 C11 1_555 1_555
C10 C11 1_555 1_555
O20 H9 1_555 1_555
O20 H10 1_555 1_555
O17 H11 1_555 1_555
O17 H12 1_555 1_555
O9 C12 1_555 1_555
O12 Dy5 1_555 1_555
O21 C12 1_555 1_555
O12 C14 1_555 1_555
C7 O13 1_555 1_555
O2 C2 1_555 1_555
O4 C2 1_555 1_555
N2 C4 1_555 1_555
C2 C4 1_555 1_555
C4 C3 1_555 1_555
H1 C3 1_555 1_555
Dy3 O2 1_555 1_555
Dy3 O1 1_555 1_555
O1 C5 1_555 1_555
O3 Dy3 1_555 1_555
O5 Dy3 1_555 1_555
O7 Dy3 1_555 1_555
N1 Dy3 1_555 1_555
C1 N1 1_555 1_555
C5 C1 1_555 1_555
C6 N1 1_555 1_555
H2 C6 1_555 1_555
O15 Dy3 1_555 1_555
O18 Dy3 1_555 1_555
N5 Dy3 1_555 1_555
O18 C14_2 1_555 1_555
O5 H5 1_555 1_555
O5 H6 1_555 1_555
O7 H7 1_555 1_555
O7 H8 1_555 1_555
O6_2 C7_2 1_555 1_555
Dy6 O6_2 1_555 1_555
O12_2 Dy6 1_555 1_555
O1_2 C5_2 1_555 1_555
O8_2 C5_2 1_555 1_555
O2_2 C2_2 1_555 1_555
O15 C2_2 1_555 1_555
O5_2 Dy5 1_555 1_555
O7_2 Dy5 1_555 1_555
N1_2 Dy5 1_555 1_555
N5 C4_2 1_555 1_555
C1_2 N1_2 1_555 1_555
C2_2 C4_2 1_555 1_555
C3_2 C1_2 1_555 1_555
C4_2 C3_2 1_555 1_555
C6_2 N1_2 1_555 1_555
H1_2 C3_2 1_555 1_555
H2_2 C6_2 1_555 1_555
N5 C6_2 1_555 1_555
O5_2 H5_2 1_555 1_555
O5_2 H6_2 1_555 1_555
O7_2 H7_2 1_555 1_555
O7_2 H8_2 1_555 1_555
Dy6 O9_2 1_555 1_555
O9_2 C12_2 1_555 1_555
O11_2 Dy6 1_555 1_555
O17_2 Dy6 1_555 1_555
O20_2 Dy6 1_555 1_555
N3_2 Dy6 1_555 1_555
C8_2 N3_2 1_555 1_555
C12_2 C8_2 1_555 1_555
C13_2 N3_2 1_555 1_555
H4_2 C13_2 1_555 1_555
O20_2 H9_2 1_555 1_555
O20_2 H10_2 1_555 1_555
O17_2 H11_2 1_555 1_555
O17_2 H12_2 1_555 1_555
O16 C9_2 1_555 1_555
C9_2 O11_2 1_555 1_555
C11_2 N6 1_555 1_555
H3_2 C10_2 1_555 1_555
C9_2 C11_2 1_555 1_555
C10_2 C11_2 1_555 1_555

#END
