
###############################################################################
#
# This file contains modified crystal structure data generated from the
# MOF subset of the Cambridge Structural Database (CSD) v543 
# hosted by the Cambridge Crystallographic Data Centre (CCDC).
#
# This work is licensed under the Creative Commons
# Attribution-NonCommercial-ShareAlike 4.0 International License.
# To view a copy of this license, visit
# http://creativecommons.org/licenses/by-nc-sa/4.0/
# or send a letter to
# Creative Commons, PO Box 1866, Mountain View, CA 94042, USA.
#
# CIF created using the CSD Python API on 29 September 2022
# The structure has been converted into the P1 space group
# The structure has a 3D framework
# The original CSD entry CALHIK is in the triclinic crystal system
# The framework has been calculated to contain at least 10.0% void space
# The void calculation uses a probe of radius 1.32A, grid spacing 0.4
#
###############################################################################

data_CALHIK
_chemical_formula_moiety         '(C60 H52 F2 Ho4 N12 O16)n'
_symmetry_cell_setting           triclinic
_symmetry_space_group_name_H-M   'P 1'
_symmetry_Int_Tables_number      1
_space_group_name_Hall           'P 1'
loop_
_symmetry_equiv_pos_site_id
_symmetry_equiv_pos_as_xyz
1 x,y,z
_cell_length_a                   8.3355(13)
_cell_length_b                   14.039(2)
_cell_length_c                   16.384(3)
_cell_angle_alpha                83.432(7)
_cell_angle_beta                 88.522(8)
_cell_angle_gamma                80.548(17)
_cell_volume                     1878.8
loop_
_atom_site_label
_atom_site_type_symbol
_atom_site_fract_x
_atom_site_fract_y
_atom_site_fract_z
_atom_site_U_iso_or_equiv
_atom_site_thermal_displace_type
C42 C 0.0136(5) 0.1307(3) 0.0099(3) 0.0144 Uani
O12 O 0.4817(4) 0.3237(2) 0.04499(19) 0.0129 Uani
C36 C 0.5150(6) 0.1327(3) 0.0015(3) 0.0140 Uani
H29 H 0.448132 0.147090 0.047742 0.0170 Uiso
O14 O 0.0714(4) 0.3248(2) 0.97805(19) 0.0129 Uani
H32 H 0.083819 0.144025 0.964943 0.0170 Uiso
Ho7 Ho 0.38706(2) 0.47230(2) 0.09679(2) 0.0079 Uani
Ho13 Ho 0.12321(2) 0.47194(2) 0.90556(2) 0.0078 Uani
O11 O 0.6516(4) 0.3622(2) 0.94226(19) 0.0121 Uani
N7 N 0.6239(5) 0.0176(3) 0.9087(2) 0.0173 Uani
C31 C 0.5733(5) 0.3048(3) 0.9847(3) 0.0108 Uani
C32 C 0.5910(5) 0.2030(3) 0.9590(3) 0.0127 Uani
C33 C 0.6856(6) 0.1797(3) 0.8916(3) 0.0161 Uani
H27 H 0.741960 0.226121 0.861600 0.0200 Uiso
C34 C 0.6965(6) 0.0867(3) 0.8689(3) 0.0192 Uani
H28 H 0.759977 0.071454 0.821747 0.0230 Uiso
C35 C 0.5373(6) 0.0393(3) 0.9758(3) 0.0134 Uani
Ho11 Ho 0.61294(2) 0.52770(2) 0.90321(2) 0.0079 Uani
F5 F 0.1336(3) 0.48918(18) 0.04434(15) 0.0110 Uani
O1 O 0.3065(4) 0.5447(2) 0.21905(19) 0.0144 Uani
O2 O 0.0432(4) 0.5739(2) 0.18588(19) 0.0157 Uani
O3 O 0.4269(4) 0.6020(2) 0.80538(19) 0.0148 Uani
O4 O 0.2095(4) 0.5390(2) 0.77506(19) 0.0142 Uani
N1 N 0.0150(5) 0.6284(4) 0.4812(3) 0.0271 Uani
N2 N 0.4335(6) 0.6511(4) 0.4995(3) 0.0288 Uani
C1 C 0.1582(6) 0.5684(3) 0.2352(3) 0.0120 Uani
C2 C 0.1110(5) 0.5921(3) 0.3211(3) 0.0137 Uani
C5 C 0.1727(6) 0.6173(4) 0.4586(3) 0.0164 Uani
C6 C 0.2258(6) 0.5987(3) 0.3796(3) 0.0145 Uani
H3 H 0.338265 0.590713 0.365930 0.0180 Uiso
C7 C 0.2907(6) 0.6239(4) 0.5239(3) 0.0181 Uani
C8 C 0.5379(7) 0.6572(5) 0.5586(3) 0.0376 Uani
H4 H 0.639114 0.676405 0.542388 0.0450 Uiso
C9 C 0.5082(7) 0.6372(4) 0.6422(3) 0.0248 Uani
H5 H 0.585890 0.643846 0.681685 0.0300 Uiso
C10 C 0.3618(6) 0.6074(3) 0.6663(3) 0.0151 Uani
C11 C 0.2505(6) 0.6017(4) 0.6062(3) 0.0161 Uani
H6 H 0.148306 0.582895 0.621028 0.0190 Uiso
C12 C 0.3295(5) 0.5809(3) 0.7565(3) 0.0119 Uani
O5 O 0.3484(4) 0.6378(2) 0.05774(19) 0.0121 Uani
N3 N 0.3761(5) 0.9824(3) 0.0913(2) 0.0173 Uani
C13 C 0.4267(5) 0.6952(3) 0.0153(3) 0.0108 Uani
C14 C 0.4090(5) 0.7970(3) 0.0410(3) 0.0127 Uani
C15 C 0.3144(6) 0.8203(3) 0.1084(3) 0.0161 Uani
H7 H 0.258040 0.773879 0.138400 0.0200 Uiso
C16 C 0.3035(6) 0.9133(3) 0.1311(3) 0.0192 Uani
H8 H 0.240023 0.928546 0.178253 0.0230 Uiso
C17 C 0.4627(6) 0.9607(3) 0.0242(3) 0.0134 Uani
O7 O 0.0795(4) 0.6364(2) 0.91066(19) 0.0118 Uani
N4 N 0.1237(5) 0.9848(3) 0.9084(3) 0.0183 Uani
C19 C 0.0153(5) 0.6941(3) 0.9599(3) 0.0100 Uani
C20 C 0.0476(5) 0.7972(3) 0.9410(3) 0.0122 Uani
C21 C 0.1487(6) 0.8212(3) 0.8755(3) 0.0180 Uani
H10 H 0.194643 0.773713 0.840954 0.0210 Uiso
C22 C 0.1810(6) 0.9149(3) 0.8617(3) 0.0200 Uani
H11 H 0.248247 0.930662 0.816046 0.0240 Uiso
C23 C 0.0290(6) 0.9612(3) 0.9726(3) 0.0150 Uani
O9 O 0.3084(4) 0.3493(2) 0.8510(2) 0.0148 Uani
N5 N 0.3548(5) 0.2274(3) 0.7701(3) 0.0203 Uani
C25 C 0.2813(6) 0.2707(4) 0.8317(3) 0.0202 Uani
H13 H 0.203172 0.239603 0.863090 0.0240 Uiso
C26 C 0.4714(7) 0.2705(4) 0.7183(4) 0.0301 Uani
H14 H 0.427778 0.287870 0.662619 0.0450 Uiso
H15 H 0.572552 0.224010 0.716617 0.0450 Uiso
H16 H 0.493292 0.329093 0.740298 0.0450 Uiso
C27 C 0.3145(9) 0.1355(5) 0.7520(4) 0.0406 Uani
H17 H 0.236963 0.113830 0.793172 0.0610 Uiso
H18 H 0.413572 0.086849 0.753308 0.0610 Uiso
H19 H 0.265815 0.143575 0.697338 0.0610 Uiso
O10 O 0.2467(4) 0.3621(2) 0.1785(2) 0.0148 Uani
N6 N 0.1960(6) 0.2192(3) 0.2439(3) 0.0209 Uani
C28 C 0.2704(6) 0.2722(4) 0.1881(3) 0.0180 Uani
H20 H 0.347181 0.239169 0.152863 0.0210 Uiso
C29 C 0.0743(7) 0.2660(4) 0.2984(4) 0.0280 Uani
H21 H 0.119258 0.260422 0.353750 0.0420 Uiso
H23 H 0.044170 0.334819 0.277753 0.0420 Uiso
C30 C 0.2266(9) 0.1145(4) 0.2512(4) 0.0373 Uani
H24 H 0.124279 0.090246 0.245317 0.0560 Uiso
H25 H 0.273427 0.089240 0.305159 0.0560 Uiso
H26 H 0.303058 0.092861 0.208036 0.0560 Uiso
F2 F 0.3730(3) 0.49036(18) 0.95096(15) 0.0100 Uani
C45 C 0.0509(6) 0.3969(4) 0.6557(3) 0.0217 Uani
H33 H 0.132351 0.401283 0.694018 0.0260 Uiso
C46 C 0.0929(7) 0.3794(5) 0.5755(3) 0.0310 Uani
H34 H 0.204504 0.372520 0.560137 0.0370 Uiso
H48 H 0.022274 0.765683 0.699678 0.0420 Uiso
O22 O 0.5731(4) 0.3980(2) 0.19462(19) 0.0148 Uani
F10 F 0.6270(3) 0.50964(18) 0.04904(15) 0.0100 Uani
O6 O 0.5183(4) 0.6763(2) 0.95501(19) 0.0129 Uani
C18 C 0.4850(6) 0.8673(3) 0.9985(3) 0.0140 Uani
H9 H 0.551868 0.852910 0.952258 0.0170 Uiso
O13 O 0.9205(4) 0.3636(2) 0.08934(19) 0.0118 Uani
N8 N 0.8763(5) 0.0152(3) 0.0916(3) 0.0183 Uani
C37 C 0.9847(5) 0.3059(3) 0.0401(3) 0.0100 Uani
C38 C 0.9524(5) 0.2028(3) 0.0590(3) 0.0122 Uani
C39 C 0.8513(6) 0.1788(3) 0.1245(3) 0.0180 Uani
H30 H 0.805357 0.226287 0.159046 0.0210 Uiso
C40 C 0.8190(6) 0.0851(3) 0.1383(3) 0.0200 Uani
H31 H 0.751753 0.069338 0.183954 0.0240 Uiso
C41 C 0.9710(6) 0.0388(3) 0.0274(3) 0.0150 Uani
Ho15 Ho 0.87679(2) 0.52806(2) 0.09444(2) 0.0078 Uani
O8 O 0.9286(4) 0.6752(2) 0.02195(19) 0.0129 Uani
H12 H 0.916181 0.855975 0.035057 0.0170 Uiso
C3 C 0.9491(6) 0.6031(4) 0.3443(3) 0.0217 Uani
H1 H 0.867649 0.598717 0.305982 0.0260 Uiso
C4 C 0.9071(7) 0.6206(5) 0.4245(3) 0.0310 Uani
H2 H 0.795496 0.627480 0.439863 0.0370 Uiso
C24 C 0.9864(5) 0.8693(3) 0.9901(3) 0.0144 Uani
H22 H 0.977726 0.234317 0.300322 0.0420 Uiso
O15 O 0.6935(4) 0.4553(2) 0.78095(19) 0.0144 Uani
O16 O 0.9568(4) 0.4261(2) 0.81412(19) 0.0157 Uani
O18 O 0.7905(4) 0.4610(2) 0.22494(19) 0.0142 Uani
N9 N 0.9850(5) 0.3716(4) 0.5188(3) 0.0271 Uani
N10 N 0.5665(6) 0.3489(4) 0.5005(3) 0.0288 Uani
C43 C 0.8418(6) 0.4316(3) 0.7648(3) 0.0120 Uani
C44 C 0.8890(5) 0.4079(3) 0.6789(3) 0.0137 Uani
C47 C 0.8273(6) 0.3827(4) 0.5414(3) 0.0164 Uani
C48 C 0.7742(6) 0.4013(3) 0.6204(3) 0.0145 Uani
H35 H 0.661735 0.409287 0.634070 0.0180 Uiso
C49 C 0.7093(6) 0.3761(4) 0.4761(3) 0.0181 Uani
C50 C 0.4621(7) 0.3428(5) 0.4414(3) 0.0376 Uani
H36 H 0.360886 0.323595 0.457612 0.0450 Uiso
C51 C 0.4918(7) 0.3628(4) 0.3578(3) 0.0248 Uani
H37 H 0.414110 0.356154 0.318315 0.0300 Uiso
C52 C 0.6382(6) 0.3926(3) 0.3337(3) 0.0151 Uani
C53 C 0.7495(6) 0.3983(4) 0.3938(3) 0.0161 Uani
H38 H 0.851694 0.417105 0.378972 0.0190 Uiso
C54 C 0.6705(5) 0.4191(3) 0.2435(3) 0.0119 Uani
O19 O 0.6916(4) 0.6507(2) 0.1490(2) 0.0148 Uani
N11 N 0.6452(5) 0.7726(3) 0.2299(3) 0.0203 Uani
C55 C 0.7187(6) 0.7293(4) 0.1683(3) 0.0202 Uani
H39 H 0.796828 0.760397 0.136910 0.0240 Uiso
C56 C 0.5286(7) 0.7295(4) 0.2817(4) 0.0301 Uani
H40 H 0.572222 0.712130 0.337381 0.0450 Uiso
H41 H 0.427448 0.775990 0.283383 0.0450 Uiso
H42 H 0.506708 0.670907 0.259702 0.0450 Uiso
C57 C 0.6855(9) 0.8645(5) 0.2480(4) 0.0406 Uani
H43 H 0.763037 0.886170 0.206828 0.0610 Uiso
H44 H 0.586428 0.913151 0.246692 0.0610 Uiso
H45 H 0.734185 0.856425 0.302662 0.0610 Uiso
O20 O 0.7533(4) 0.6379(2) 0.8215(2) 0.0148 Uani
N12 N 0.8040(6) 0.7808(3) 0.7561(3) 0.0209 Uani
C58 C 0.7296(6) 0.7278(4) 0.8119(3) 0.0180 Uani
H46 H 0.652819 0.760831 0.847137 0.0210 Uiso
C59 C 0.9257(7) 0.7340(4) 0.7016(4) 0.0280 Uani
H47 H 0.880742 0.739578 0.646250 0.0420 Uiso
H49 H 0.955830 0.665181 0.722247 0.0420 Uiso
C60 C 0.7734(9) 0.8855(4) 0.7488(4) 0.0373 Uani
H50 H 0.875721 0.909754 0.754683 0.0560 Uiso
H51 H 0.726573 0.910760 0.694841 0.0560 Uiso
H52 H 0.696942 0.907139 0.791964 0.0560 Uiso
F3 F 0.8664(3) 0.51082(18) 0.95566(15) 0.0110 Uani
loop_
_atom_site_aniso_label
_atom_site_aniso_U_11
_atom_site_aniso_U_22
_atom_site_aniso_U_33
_atom_site_aniso_U_23
_atom_site_aniso_U_13
_atom_site_aniso_U_12
C42 0.014 0.013 0.016 -0.0019 0.0024 -0.0017
O12 0.014 0.0132 0.0126 -0.0039 0.0016 -0.0041
C36 0.015 0.012 0.016 -0.0046 0.0037 -0.0035
O14 0.015 0.012 0.0118 -0.0018 0.0024 -0.0028
Ho7 0.00708 0.01063 0.00654 -0.00155 0.00031 -0.0026
Ho13 0.00729 0.01033 0.00644 -0.00175 0.00042 -0.00276
O11 0.0135 0.011 0.0118 0.0002 0.0016 -0.0033
N7 0.025 0.0138 0.0134 -0.0032 0.0052 -0.0037
C31 0.0099 0.011 0.012 -0.0014 -0.004 -0.0021
C32 0.0118 0.012 0.014 -0.0012 0 -0.0016
C33 0.02 0.012 0.017 -0.0024 0.0041 -0.0046
C34 0.025 0.014 0.019 -0.0062 0.009 -0.0031
C35 0.02 0.012 0.009 -0.0024 0.0014 -0.0041
Ho11 0.00708 0.01063 0.00654 -0.00155 0.00031 -0.0026
F5 0.0096 0.0132 0.0104 -0.0008 0 -0.0031
O1 0.0137 0.0183 0.0118 -0.0038 0.0019 -0.003
O2 0.0174 0.0226 0.0093 -0.003 -0.0013 -0.0083
O3 0.0131 0.0206 0.0106 0 -0.0017 -0.0031
O4 0.0159 0.0191 0.009 -0.0014 0.0007 -0.007
N1 0.02 0.049 0.013 -0.011 0.0021 -0.003
N2 0.028 0.052 0.012 -0.003 0.0028 -0.024
C1 0.018 0.011 0.0076 -0.0004 0.0006 -0.005
C2 0.015 0.017 0.01 -0.0027 0.0003 -0.0041
C5 0.02 0.021 0.01 -0.004 -0.0007 -0.0066
C6 0.014 0.019 0.011 -0.0019 0.0029 -0.0046
C7 0.019 0.025 0.012 -0.004 0.0006 -0.0076
C8 0.029 0.079 0.014 -0.007 0.008 -0.036
C9 0.024 0.043 0.012 -0.006 0.0009 -0.017
C10 0.015 0.021 0.011 -0.0046 0.0031 -0.0065
C11 0.018 0.022 0.009 -0.0028 0.0017 -0.0048
C12 0.0111 0.014 0.01 -0.0016 -0.0001 0.0003
O5 0.0135 0.011 0.0118 0.0002 0.0016 -0.0033
N3 0.025 0.0138 0.0134 -0.0032 0.0052 -0.0037
C13 0.0099 0.011 0.012 -0.0014 -0.004 -0.0021
C14 0.0118 0.012 0.014 -0.0012 0 -0.0016
C15 0.02 0.012 0.017 -0.0024 0.0041 -0.0046
C16 0.025 0.014 0.019 -0.0062 0.009 -0.0031
C17 0.02 0.012 0.009 -0.0024 0.0014 -0.0041
O7 0.0137 0.0104 0.0112 -0.001 0.0016 -0.0023
N4 0.02 0.016 0.02 -0.0028 0.0067 -0.007
C19 0.01 0.0101 0.0105 -0.0012 -0.0025 -0.0026
C20 0.014 0.013 0.01 -0.0025 0.0015 -0.0029
C21 0.023 0.014 0.016 -0.0032 0.0059 0.0001
C22 0.031 0.015 0.015 -0.0029 0.011 -0.008
C23 0.019 0.013 0.014 -0.0025 0.0043 -0.0058
O9 0.0132 0.0162 0.0158 -0.0061 0.0029 -0.0024
N5 0.024 0.023 0.015 -0.0076 0.0022 -0.0039
C25 0.02 0.023 0.018 -0.002 0.0019 -0.0049
C26 0.029 0.035 0.025 -0.003 0.013 -0.004
C27 0.058 0.03 0.041 -0.019 0.014 -0.02
O10 0.0118 0.0173 0.0158 0.0001 0.0007 -0.0049
N6 0.03 0.016 0.017 0.0004 0.0055 -0.0068
C28 0.023 0.019 0.013 -0.0037 0.0044 -0.006
C29 0.031 0.022 0.029 0.002 0.017 -0.004
C30 0.054 0.019 0.038 0.001 0.02 -0.009
F2 0.0093 0.0135 0.0077 -0.0013 -0.0009 -0.0027
C45 0.014 0.039 0.012 -0.007 0.0002 -0.001
C46 0.016 0.06 0.015 -0.01 0.0036 0.003
O22 0.0131 0.0206 0.0106 0 -0.0017 -0.0031
F10 0.0093 0.0135 0.0077 -0.0013 -0.0009 -0.0027
O6 0.014 0.0132 0.0126 -0.0039 0.0016 -0.0041
C18 0.015 0.012 0.016 -0.0046 0.0037 -0.0035
O13 0.0137 0.0104 0.0112 -0.001 0.0016 -0.0023
N8 0.02 0.016 0.02 -0.0028 0.0067 -0.007
C37 0.01 0.0101 0.0105 -0.0012 -0.0025 -0.0026
C38 0.014 0.013 0.01 -0.0025 0.0015 -0.0029
C39 0.023 0.014 0.016 -0.0032 0.0059 0.0001
C40 0.031 0.015 0.015 -0.0029 0.011 -0.008
C41 0.019 0.013 0.014 -0.0025 0.0043 -0.0058
Ho15 0.00729 0.01033 0.00644 -0.00175 0.00042 -0.00276
O8 0.015 0.012 0.0118 -0.0018 0.0024 -0.0028
C3 0.014 0.039 0.012 -0.007 0.0002 -0.001
C4 0.016 0.06 0.015 -0.01 0.0036 0.003
C24 0.014 0.013 0.016 -0.0019 0.0024 -0.0017
O15 0.0137 0.0183 0.0118 -0.0038 0.0019 -0.003
O16 0.0174 0.0226 0.0093 -0.003 -0.0013 -0.0083
O18 0.0159 0.0191 0.009 -0.0014 0.0007 -0.007
N9 0.02 0.049 0.013 -0.011 0.0021 -0.003
N10 0.028 0.052 0.012 -0.003 0.0028 -0.024
C43 0.018 0.011 0.0076 -0.0004 0.0006 -0.005
C44 0.015 0.017 0.01 -0.0027 0.0003 -0.0041
C47 0.02 0.021 0.01 -0.004 -0.0007 -0.0066
C48 0.014 0.019 0.011 -0.0019 0.0029 -0.0046
C49 0.019 0.025 0.012 -0.004 0.0006 -0.0076
C50 0.029 0.079 0.014 -0.007 0.008 -0.036
C51 0.024 0.043 0.012 -0.006 0.0009 -0.017
C52 0.015 0.021 0.011 -0.0046 0.0031 -0.0065
C53 0.018 0.022 0.009 -0.0028 0.0017 -0.0048
C54 0.0111 0.014 0.01 -0.0016 -0.0001 0.0003
O19 0.0132 0.0162 0.0158 -0.0061 0.0029 -0.0024
N11 0.024 0.023 0.015 -0.0076 0.0022 -0.0039
C55 0.02 0.023 0.018 -0.002 0.0019 -0.0049
C56 0.029 0.035 0.025 -0.003 0.013 -0.004
C57 0.058 0.03 0.041 -0.019 0.014 -0.02
O20 0.0118 0.0173 0.0158 0.0001 0.0007 -0.0049
N12 0.03 0.016 0.017 0.0004 0.0055 -0.0068
C58 0.023 0.019 0.013 -0.0037 0.0044 -0.006
C59 0.031 0.022 0.029 0.002 0.017 -0.004
C60 0.054 0.019 0.038 0.001 0.02 -0.009
F3 0.0096 0.0132 0.0104 -0.0008 0 -0.0031
loop_
_geom_bond_atom_site_label_1
_geom_bond_atom_site_label_2
_geom_bond_site_symmetry_1
_geom_bond_site_symmetry_2
H29 C36 1_555 1_555
Ho7 O12 1_555 1_555
Ho13 O14 1_555 1_555
O11 C31 1_555 1_555
N7 C34 1_555 1_555
C31 C32 1_555 1_555
C32 C33 1_555 1_555
C33 H27 1_555 1_555
C34 C33 1_555 1_555
H28 C34 1_555 1_555
Ho11 O11 1_555 1_555
N7 C35 1_555 1_555
Ho7 F5 1_555 1_555
Ho7 O1 1_555 1_555
Ho13 O4 1_555 1_555
O1 C1 1_555 1_555
O2 C1 1_555 1_555
O3 C12 1_555 1_555
O4 C12 1_555 1_555
N2 C7 1_555 1_555
C1 C2 1_555 1_555
C5 N1 1_555 1_555
C6 C2 1_555 1_555
H3 C6 1_555 1_555
C7 C5 1_555 1_555
C8 N2 1_555 1_555
H4 C8 1_555 1_555
C9 C8 1_555 1_555
H5 C9 1_555 1_555
C10 C9 1_555 1_555
C11 C7 1_555 1_555
H6 C11 1_555 1_555
C12 C10 1_555 1_555
O5 Ho7 1_555 1_555
N3 C16 1_555 1_555
C13 O5 1_555 1_555
C14 C13 1_555 1_555
C15 C14 1_555 1_555
H7 C15 1_555 1_555
C16 C15 1_555 1_555
H8 C16 1_555 1_555
C17 N3 1_555 1_555
O7 Ho13 1_555 1_555
N4 C22 1_555 1_555
C19 O7 1_555 1_555
C20 C19 1_555 1_555
C21 C20 1_555 1_555
H10 C21 1_555 1_555
C22 C21 1_555 1_555
H11 C22 1_555 1_555
C23 N4 1_555 1_555
O9 Ho13 1_555 1_555
N5 C25 1_555 1_555
C25 O9 1_555 1_555
H13 C25 1_555 1_555
C26 N5 1_555 1_555
H14 C26 1_555 1_555
H15 C26 1_555 1_555
H16 C26 1_555 1_555
C27 N5 1_555 1_555
H17 C27 1_555 1_555
H18 C27 1_555 1_555
H19 C27 1_555 1_555
O10 Ho7 1_555 1_555
N6 C28 1_555 1_555
C28 O10 1_555 1_555
H20 C28 1_555 1_555
C29 N6 1_555 1_555
H21 C29 1_555 1_555
H23 C29 1_555 1_555
C30 N6 1_555 1_555
H24 C30 1_555 1_555
H25 C30 1_555 1_555
H26 C30 1_555 1_555
F2 Ho13 1_555 1_555
H33 C45 1_555 1_555
C46 C45 1_555 1_555
H34 C46 1_555 1_555
Ho11 O3 1_555 1_555
O22 Ho7 1_555 1_555
F10 Ho7 1_555 1_555
C5 C6 1_555 1_555
C10 C11 1_555 1_555
F2 Ho11 1_555 1_555
H9 C18 1_555 1_555
Ho11 O6 1_555 1_555
O13 C37 1_555 1_555
N8 C40 1_555 1_555
C37 C38 1_555 1_555
C38 C39 1_555 1_555
C39 H30 1_555 1_555
C40 C39 1_555 1_555
H31 C40 1_555 1_555
Ho15 O13 1_555 1_555
N8 C41 1_555 1_555
Ho15 O8 1_555 1_555
Ho15 F10 1_555 1_555
C3 H1 1_555 1_555
C4 C3 1_555 1_555
H2 C4 1_555 1_555
Ho11 O15 1_555 1_555
O15 C43 1_555 1_555
O22 C54 1_555 1_555
O18 Ho15 1_555 1_555
N10 C49 1_555 1_555
C43 O16 1_555 1_555
C44 C43 1_555 1_555
C47 N9 1_555 1_555
C48 C44 1_555 1_555
H35 C48 1_555 1_555
C49 C47 1_555 1_555
C50 N10 1_555 1_555
H36 C50 1_555 1_555
C51 C50 1_555 1_555
H37 C51 1_555 1_555
C52 C51 1_555 1_555
C53 C49 1_555 1_555
H38 C53 1_555 1_555
C54 O18 1_555 1_555
O19 Ho15 1_555 1_555
N11 C55 1_555 1_555
C55 O19 1_555 1_555
H39 C55 1_555 1_555
C56 N11 1_555 1_555
H40 C56 1_555 1_555
H41 C56 1_555 1_555
H42 C56 1_555 1_555
C57 N11 1_555 1_555
H43 C57 1_555 1_555
H44 C57 1_555 1_555
H45 C57 1_555 1_555
O20 Ho11 1_555 1_555
N12 C58 1_555 1_555
C58 O20 1_555 1_555
H46 C58 1_555 1_555
C59 N12 1_555 1_555
H47 C59 1_555 1_555
H49 C59 1_555 1_555
C60 N12 1_555 1_555
H50 C60 1_555 1_555
H51 C60 1_555 1_555
H52 C60 1_555 1_555
Ho11 F3 1_555 1_555
C47 C48 1_555 1_555
C52 C53 1_555 1_555
C52 C54 1_555 1_555

#END
