
###############################################################################
#
# This file contains modified crystal structure data generated from the
# MOF subset of the Cambridge Structural Database (CSD) v543 
# hosted by the Cambridge Crystallographic Data Centre (CCDC).
#
# This work is licensed under the Creative Commons
# Attribution-NonCommercial-ShareAlike 4.0 International License.
# To view a copy of this license, visit
# http://creativecommons.org/licenses/by-nc-sa/4.0/
# or send a letter to
# Creative Commons, PO Box 1866, Mountain View, CA 94042, USA.
#
# CIF created using the CSD Python API on 29 September 2022
# The structure has been converted into the P1 space group
# The structure has a 3D framework
# The original CSD entry CAMTOD06 is in the monoclinic crystal system
# The framework has been calculated to contain at least 10.0% void space
# The void calculation uses a probe of radius 1.32A, grid spacing 0.4
#
###############################################################################

data_CAMTOD06
_chemical_formula_moiety         '(C40 H23 Al15 N16 O39)n'
_symmetry_cell_setting           triclinic
_symmetry_space_group_name_H-M   'P 1'
_symmetry_Int_Tables_number      1
_space_group_name_Hall           'P 1'
loop_
_symmetry_equiv_pos_site_id
_symmetry_equiv_pos_as_xyz
1 x,y,z
_cell_length_a                   12.287(5)
_cell_length_b                   14.697(6)
_cell_length_c                   14.110(6)
_cell_angle_alpha                90
_cell_angle_beta                 101.809(6)
_cell_angle_gamma                90
_cell_volume                     2494.08
loop_
_atom_site_label
_atom_site_type_symbol
_atom_site_fract_x
_atom_site_fract_y
_atom_site_fract_z
Al6 Al 0.000000 0.000000 0.000000
Al6_2 Al -0.000000 0.000000 1.000000
Al9 Al 0.500000 0.000000 0.000000
Al13 Al 0.26338(4) 0.06159(3) 0.05871(4)
Al1 Al -0.000000 0.500000 0.500000
Al2 Al 0.500000 0.500000 0.500000
Al3 Al 0.26338(4) 0.43841(3) 0.55871(4)
O1 O 0.34991(10) 0.47673(9) 0.47492(9)
H1 H 0.312502 0.485679 0.410507
O3 O 0.15007(11) 0.51845(9) 0.51625(9)
H2 H 0.171748 0.576987 0.500643
O4 O 0.66786(11) 0.02135(9) 0.84336(10)
O6 O 0.36917(11) 0.34747(9) 0.61147(10)
O8 O 0.52994(11) 0.39053(10) 0.57291(11)
O10 O 0.51010(12) 0.06739(10) 0.88558(11)
N1 N 0.62844(15) 0.23433(14) 0.65646(15)
N2 N 0.65316(16) 0.16342(13) 0.71524(15)
H3 H 0.715343 0.133382 0.722678
N3 N 0.03350(16) 0.72173(14) 0.16422(15)
H4 H 0.090837 0.738225 0.141002
N4 N 0.03671(16) 0.65862(15) 0.23252(15)
C1 C 0.58353(16) 0.07145(13) 0.83607(14)
C2 C 0.47071(16) 0.33813(13) 0.61129(14)
C4 C 0.52566(16) 0.25909(14) 0.66485(16)
C6 C 0.48582(17) 0.20357(14) 0.73037(16)
H5 H 0.416553 0.206637 0.748722
C10 C 0.57118(17) 0.14331(14) 0.76198(15)
O12 O 0.18780(11) 0.38979(9) 0.65384(10)
O15 O 0.01574(11) 0.44864(10) 0.62527(10)
O17 O 0.19456(11) 0.15386(9) 0.97017(10)
O19 O 0.01268(11) 0.12017(9) 0.94697(11)
C13 C 0.09228(16) 0.39969(13) 0.67115(13)
C15 C 0.09370(16) 0.16671(13) 0.93320(14)
C17 C 0.06906(17) 0.24311(14) 0.86454(15)
C18 C 0.06708(16) 0.34415(14) 0.75084(15)
C19 C 0.13730(17) 0.28438(14) 0.81142(15)
H12 H 0.213645 0.274571 0.815085
Al6_3 Al 0.000000 1.000000 0.000000
Al9_2 Al 0.500000 0.000000 1.000000
O21 O 0.65009(10) 0.52327(9) 0.52508(9)
O22 O 0.33214(11) 0.52135(9) 0.65664(10)
O24 O 0.19456(11) 0.34614(9) 0.47017(10)
O26 O 0.47006(11) 0.60947(10) 0.42709(11)
O27 O 0.01268(11) 0.37983(9) 0.44697(11)
O29 O 0.48990(12) 0.56739(10) 0.61442(11)
O30 O 0.51010(12) 0.43261(10) 0.38558(11)
Al6_4 Al -0.000000 1.000000 1.000000
Al9_3 Al 0.500000 1.000000 0.000000
Al9_4 Al 0.500000 1.000000 1.000000
Al11 Al 0.73662(4) 0.93841(3) 0.94129(4)
Al6_5 Al 1.000000 0.000000 0.000000
Al6_6 Al 1.000000 0.000000 1.000000
Al1_2 Al 1.000000 0.500000 0.500000
O2 O 0.81220(11) 0.61021(9) 0.34616(10)
O5 O 0.98426(11) 0.55136(10) 0.37473(10)
O7 O 0.80544(11) 0.84614(9) 0.02983(10)
O9 O 0.98732(11) 0.87983(9) 0.05303(11)
C3 C 0.90772(16) 0.60031(13) 0.32885(13)
C5 C 0.90630(16) 0.83329(13) 0.06680(14)
C7 C 0.93094(17) 0.75689(14) 0.13546(15)
C8 C 0.93292(16) 0.65585(14) 0.24916(15)
C9 C 0.86270(17) 0.71562(14) 0.18858(15)
H6 H 0.786355 0.725429 0.184915
Al4 Al 0.73662(4) 0.56159(3) 0.44129(4)
H7 H 0.687498 0.514321 0.589493
O13 O 0.84993(11) 0.48155(9) 0.48375(9)
H8 H 0.828252 0.423013 0.499357
O14 O 0.33214(11) 0.97865(9) 0.15664(10)
O16 O 0.63083(11) 0.65253(9) 0.38853(10)
O20 O 0.48990(12) 0.93261(10) 0.11442(11)
N5 N 0.37156(15) 0.76567(14) 0.34354(15)
N6 N 0.34684(16) 0.83658(13) 0.28476(15)
H9 H 0.284657 0.866618 0.277322
N7 N 0.96650(16) 0.27827(14) 0.83578(15)
H10 H 0.909163 0.261775 0.858998
N8 N 0.96329(16) 0.34138(15) 0.76748(15)
C11 C 0.41647(16) 0.92855(13) 0.16393(14)
C12 C 0.52929(16) 0.66187(13) 0.38871(14)
C14 C 0.47434(16) 0.74091(14) 0.33515(16)
C16 C 0.51418(17) 0.79643(14) 0.26963(16)
H11 H 0.583447 0.793363 0.251278
C20 C 0.42882(17) 0.85669(14) 0.23802(15)
Al6_7 Al 1.000000 1.000000 0.000000
O23 O 0.66786(11) 0.47865(9) 0.34336(10)
O25 O 0.80544(11) 0.65386(9) 0.52983(10)
O28 O 0.98732(11) 0.62017(9) 0.55303(11)
Al6_8 Al 1.000000 1.000000 1.000000
O2_2 O 0.18780(11) 0.11021(9) 0.15384(10)
O5_2 O 0.01574(11) 0.05136(10) 0.12527(10)
C3_2 C 0.09228(16) 0.10031(13) 0.17115(13)
C5_2 C 0.09370(16) 0.33329(13) 0.43320(14)
C7_2 C 0.06906(17) 0.25689(14) 0.36454(15)
C8_2 C 0.06708(16) 0.15585(14) 0.25084(15)
C9_2 C 0.13730(17) 0.21562(14) 0.31142(15)
H6_2 H 0.213645 0.225429 0.315085
O16_2 O 0.36917(11) 0.15253(9) 0.11147(10)
O18 O 0.52994(11) 0.10947(10) 0.07291(11)
N5_2 N 0.62844(15) 0.26567(14) 0.15646(15)
N6_2 N 0.65316(16) 0.33658(13) 0.21524(15)
H9_2 H 0.715343 0.366618 0.222678
C11_2 C 0.58353(16) 0.42855(13) 0.33607(14)
C12_2 C 0.47071(16) 0.16187(13) 0.11129(14)
C14_2 C 0.52566(16) 0.24091(14) 0.16485(16)
C16_2 C 0.48582(17) 0.29643(14) 0.23037(16)
H11_2 H 0.416553 0.293363 0.248722
C20_2 C 0.57118(17) 0.35669(14) 0.26198(15)
O11 O 0.34991(10) 0.02327(9) 0.97492(9)
H7_2 H 0.312502 0.014321 0.910507
O13_2 O 0.15007(11) 0.98155(9) 0.01625(9)
H8_2 H 0.171748 0.923013 0.000643
N7_2 N 0.03350(16) 0.77827(14) 0.66422(15)
H10_2 H 0.090837 0.761775 0.641002
N8_2 N 0.03671(16) 0.84138(15) 0.73252(15)
N3_2 N 0.96650(16) 0.22173(14) 0.33578(15)
H4_2 H 0.909163 0.238225 0.358998
N4_2 N 0.96329(16) 0.15862(15) 0.26748(15)
O3_2 O 0.84993(11) 0.01845(9) 0.98375(9)
H2_2 H 0.828252 0.076987 0.999357
O1_2 O 0.65009(10) 0.97673(9) 0.02508(9)
H1_2 H 0.687498 0.985679 0.089493
O6_2 O 0.63083(11) 0.84747(9) 0.88853(10)
O8_2 O 0.47006(11) 0.89053(10) 0.92709(11)
N1_2 N 0.37156(15) 0.73433(14) 0.84354(15)
N2_2 N 0.34684(16) 0.66342(13) 0.78476(15)
H3_2 H 0.284657 0.633382 0.777322
C1_2 C 0.41647(16) 0.57145(13) 0.66393(14)
C2_2 C 0.52929(16) 0.83813(13) 0.88871(14)
C4_2 C 0.47434(16) 0.75909(14) 0.83515(16)
C6_2 C 0.51418(17) 0.70357(14) 0.76963(16)
H5_2 H 0.583447 0.706637 0.751278
C10_2 C 0.42882(17) 0.64331(14) 0.73802(15)
O12_2 O 0.81220(11) 0.88979(9) 0.84616(10)
O15_2 O 0.98426(11) 0.94864(10) 0.87473(10)
C13_2 C 0.90772(16) 0.89969(13) 0.82885(13)
C15_2 C 0.90630(16) 0.66671(13) 0.56680(14)
C17_2 C 0.93094(17) 0.74311(14) 0.63546(15)
C18_2 C 0.93292(16) 0.84415(14) 0.74916(15)
C19_2 C 0.86270(17) 0.78438(14) 0.68858(15)
H12_2 H 0.786355 0.774571 0.684915
loop_
_geom_bond_atom_site_label_1
_geom_bond_atom_site_label_2
_geom_bond_site_symmetry_1
_geom_bond_site_symmetry_2
Al1 O3 1_555 1_555
Al2 O1 1_555 1_555
Al3 O1 1_555 1_555
O1 H1 1_555 1_555
O3 Al3 1_555 1_555
H2 O3 1_555 1_555
O4 C1 1_555 1_555
O6 Al3 1_555 1_555
O8 Al2 1_555 1_555
O10 C1 1_555 1_555
N1 N2 1_555 1_555
N2 H3 1_555 1_555
N3 H4 1_555 1_555
N4 N3 1_555 1_555
C1 C10 1_555 1_555
C2 O6 1_555 1_555
C4 N1 1_555 1_555
C6 C4 1_555 1_555
H5 C6 1_555 1_555
C10 N2 1_555 1_555
O12 Al3 1_555 1_555
O15 Al1 1_555 1_555
O17 C15 1_555 1_555
O19 C15 1_555 1_555
C13 O12 1_555 1_555
C15 C17 1_555 1_555
C19 C17 1_555 1_555
H12 C19 1_555 1_555
Al6_2 O19 1_555 1_555
Al9_2 O10 1_555 1_555
O21 Al2 1_555 1_555
O22 Al3 1_555 1_555
O24 Al3 1_555 1_555
O26 Al2 1_555 1_555
O27 Al1 1_555 1_555
O29 Al2 1_555 1_555
O30 Al2 1_555 1_555
O8 C2 1_555 1_555
C2 C4 1_555 1_555
C6 C10 1_555 1_555
O15 C13 1_555 1_555
C13 C18 1_555 1_555
C18 C19 1_555 1_555
O2 C3 1_555 1_555
O5 Al1_2 1_555 1_555
O7 C5 1_555 1_555
O9 C5 1_555 1_555
C3 O5 1_555 1_555
C5 C7 1_555 1_555
C9 C7 1_555 1_555
H6 C9 1_555 1_555
Al4 O2 1_555 1_555
O21 Al4 1_555 1_555
H7 O21 1_555 1_555
O13 Al1_2 1_555 1_555
H8 O13 1_555 1_555
O14 C11 1_555 1_555
O16 Al4 1_555 1_555
O26 C12 1_555 1_555
O20 C11 1_555 1_555
N5 N6 1_555 1_555
N6 H9 1_555 1_555
N7 H10 1_555 1_555
N8 N7 1_555 1_555
C11 C20 1_555 1_555
C12 O16 1_555 1_555
C14 N5 1_555 1_555
C16 C14 1_555 1_555
H11 C16 1_555 1_555
C20 N6 1_555 1_555
Al6_7 O9 1_555 1_555
Al9_3 O20 1_555 1_555
O23 Al4 1_555 1_555
O25 Al4 1_555 1_555
O28 Al1_2 1_555 1_555
C3 C8 1_555 1_555
C8 C9 1_555 1_555
Al4 O13 1_555 1_555
C12 C14 1_555 1_555
C16 C20 1_555 1_555
O2_2 C3_2 1_555 1_555
O5_2 Al6 1_555 1_555
O24 C5_2 1_555 1_555
O27 C5_2 1_555 1_555
C3_2 O5_2 1_555 1_555
C5_2 C7_2 1_555 1_555
C9_2 C7_2 1_555 1_555
H6_2 C9_2 1_555 1_555
Al13 O2_2 1_555 1_555
O23 C11_2 1_555 1_555
O16_2 Al13 1_555 1_555
O18 C12_2 1_555 1_555
O30 C11_2 1_555 1_555
N5_2 N6_2 1_555 1_555
N6_2 H9_2 1_555 1_555
C11_2 C20_2 1_555 1_555
C12_2 O16_2 1_555 1_555
C14_2 N5_2 1_555 1_555
C16_2 C14_2 1_555 1_555
H11_2 C16_2 1_555 1_555
C20_2 N6_2 1_555 1_555
C3_2 C8_2 1_555 1_555
C8_2 C9_2 1_555 1_555
O18 Al9 1_555 1_555
C12_2 C14_2 1_555 1_555
C16_2 C20_2 1_555 1_555
H7_2 O11 1_555 1_555
Al9_2 O11 1_555 1_555
O13_2 Al6_3 1_555 1_555
H8_2 O13_2 1_555 1_555
N7_2 H10_2 1_555 1_555
N8_2 N7_2 1_555 1_555
N3_2 H4_2 1_555 1_555
N4_2 N3_2 1_555 1_555
Al6_6 O3_2 1_555 1_555
H2_2 O3_2 1_555 1_555
Al9_3 O1_2 1_555 1_555
O1_2 H1_2 1_555 1_555
O22 C1_2 1_555 1_555
O6_2 Al11 1_555 1_555
O8_2 Al9_4 1_555 1_555
O29 C1_2 1_555 1_555
N1_2 N2_2 1_555 1_555
N2_2 H3_2 1_555 1_555
C1_2 C10_2 1_555 1_555
C2_2 O6_2 1_555 1_555
C4_2 N1_2 1_555 1_555
C6_2 C4_2 1_555 1_555
H5_2 C6_2 1_555 1_555
C10_2 N2_2 1_555 1_555
O12_2 Al11 1_555 1_555
O15_2 Al6_8 1_555 1_555
O25 C15_2 1_555 1_555
O28 C15_2 1_555 1_555
C13_2 O12_2 1_555 1_555
C15_2 C17_2 1_555 1_555
C19_2 C17_2 1_555 1_555
H12_2 C19_2 1_555 1_555
O8_2 C2_2 1_555 1_555
C2_2 C4_2 1_555 1_555
C6_2 C10_2 1_555 1_555
O15_2 C13_2 1_555 1_555
C13_2 C18_2 1_555 1_555
C18_2 C19_2 1_555 1_555

#END
