
###############################################################################
#
# This file contains modified crystal structure data generated from the
# MOF subset of the Cambridge Structural Database (CSD) v543 
# hosted by the Cambridge Crystallographic Data Centre (CCDC).
#
# This work is licensed under the Creative Commons
# Attribution-NonCommercial-ShareAlike 4.0 International License.
# To view a copy of this license, visit
# http://creativecommons.org/licenses/by-nc-sa/4.0/
# or send a letter to
# Creative Commons, PO Box 1866, Mountain View, CA 94042, USA.
#
# CIF created using the CSD Python API on 29 September 2022
# The structure has been converted into the P1 space group
# The structure has a 3D framework
# The original CSD entry CAMTOD is in the monoclinic crystal system
# The framework has been calculated to contain at least 10.0% void space
# The void calculation uses a probe of radius 1.32A, grid spacing 0.4
#
###############################################################################

data_CAMTOD
_chemical_formula_moiety         '(C40 H24 Al15 N16 O39)n'
_symmetry_cell_setting           triclinic
_symmetry_space_group_name_H-M   'P 1'
_symmetry_Int_Tables_number      1
_space_group_name_Hall           'P 1'
loop_
_symmetry_equiv_pos_site_id
_symmetry_equiv_pos_as_xyz
1 x,y,z
_cell_length_a                   12.272(2)
_cell_length_b                   14.547(3)
_cell_length_c                   14.266(3)
_cell_angle_alpha                90
_cell_angle_beta                 101.577(8)
_cell_angle_gamma                90
_cell_volume                     2494.97
loop_
_atom_site_label
_atom_site_type_symbol
_atom_site_fract_x
_atom_site_fract_y
_atom_site_fract_z
Al11 Al 0.000000 0.000000 0.000000
Al10 Al 0.23746(5) 0.06396(4) 0.94327(5)
Al11_2 Al 0.000000 0.000000 1.000000
Al11_3 Al 0.000000 1.000000 0.000000
Al1 Al 0.500000 0.500000 0.500000
O1 O 0.34995(12) 0.51790(11) 0.48496(12)
O2 O 0.48460(13) 0.45145(11) 0.37490(12)
Al2 Al 0.23746(5) 0.43604(4) 0.44327(5)
H1 H 0.330380 0.555240 0.511890
C1 C 0.40910(18) 0.39997(15) 0.33053(16)
O3 O 0.15049(12) 0.47580(11) 0.52548(11)
O4 O 0.16970(13) 0.51885(11) 0.34515(12)
O5 O 0.30580(12) 0.34277(11) 0.53061(12)
O6 O 0.31449(12) 0.38693(11) 0.34981(12)
O7 O 0.13207(12) 0.34390(11) 0.39162(12)
C2 C 0.43406(18) 0.34661(16) 0.24972(17)
Al3 Al 0.000000 0.500000 0.500000
H2 H 0.174600 0.488220 0.575920
C3 C 0.02939(18) 0.33635(15) 0.39011(17)
C4 C 0.36454(18) 0.28581(16) 0.18992(17)
N1 N 0.53728(17) 0.34600(16) 0.23052(17)
O8 O 0.01175(13) 0.56759(12) 0.38715(12)
C6 C 0.43228(18) 0.24622(16) 0.13496(17)
H3 H 0.287852 0.274301 0.187610
N2 N 0.53461(17) 0.28387(16) 0.16127(17)
C7 C 0.01325(18) 0.20165(16) 0.27032(18)
C8 C 0.40734(18) 0.16998(15) 0.06563(16)
H4 H 0.592055 0.269283 0.135979
H5 H 0.084261 0.203571 0.253427
O10 O 0.48828(12) 0.12331(11) 0.04978(12)
O13 O 0.03007(13) 0.61064(11) 0.57187(13)
C12 C 0.02635(18) 0.74232(16) 0.66505(17)
O19 O 0.30580(12) 0.15723(11) 0.03061(12)
N5 N 0.13151(16) 0.76551(15) 0.66005(16)
Al6 Al 0.500000 0.000000 0.000000
C16 C 0.07390(18) 0.85758(17) 0.76395(18)
N6 N 0.15799(17) 0.83624(15) 0.71977(16)
C18 C 0.08539(17) 0.92953(15) 0.83796(17)
H10 H 0.222160 0.865285 0.729163
O27 O 0.16970(13) 0.98115(11) 0.84515(12)
O28 O 0.01175(13) 0.93241(12) 0.88715(12)
Al11_4 Al 0.000000 1.000000 1.000000
Al6_2 Al 0.500000 0.000000 1.000000
Al6_3 Al 0.500000 1.000000 0.000000
Al6_4 Al 0.500000 1.000000 1.000000
Al11_5 Al 1.000000 0.000000 0.000000
Al11_6 Al 1.000000 0.000000 1.000000
Al11_7 Al 1.000000 1.000000 0.000000
Al13 Al 0.76254(5) 0.93604(4) 0.05673(5)
Al3_2 Al 1.000000 0.500000 0.500000
O9 O 0.96993(13) 0.38936(11) 0.42813(13)
C5 C 0.97365(18) 0.25768(16) 0.33495(17)
N3 N 0.86849(16) 0.23449(15) 0.33995(16)
C9 C 0.92610(18) 0.14242(17) 0.23605(18)
N4 N 0.84201(17) 0.16376(15) 0.28023(16)
C10 C 0.91461(17) 0.07047(15) 0.16204(17)
H6 H 0.777840 0.134715 0.270837
O11 O 0.84951(12) 0.52420(11) 0.47452(11)
O12 O 0.98825(13) 0.43241(12) 0.61285(12)
Al4 Al 0.76254(5) 0.56396(4) 0.55673(5)
H7 H 0.825400 0.511780 0.424080
C11 C 0.97061(18) 0.66365(15) 0.60989(17)
O14 O 0.65005(12) 0.48210(11) 0.51504(12)
O15 O 0.83030(13) 0.48115(11) 0.65485(12)
O16 O 0.69420(12) 0.65723(11) 0.46939(12)
O17 O 0.68551(12) 0.61307(11) 0.65019(12)
O18 O 0.86793(12) 0.65610(11) 0.60838(12)
H8 H 0.669620 0.444760 0.488110
C13 C 0.59090(18) 0.60003(15) 0.66947(16)
C14 C 0.98675(18) 0.79835(16) 0.72968(18)
O20 O 0.51172(12) 0.62331(11) 0.45022(12)
O22 O 0.48828(12) 0.37669(11) 0.54978(12)
O23 O 0.51540(13) 0.54855(11) 0.62510(12)
C15 C 0.56594(18) 0.65339(16) 0.75028(17)
H9 H 0.915739 0.796429 0.746573
O25 O 0.83030(13) 0.01885(11) 0.15485(12)
O26 O 0.98825(13) 0.06759(12) 0.11285(12)
C17 C 0.63546(18) 0.71419(16) 0.81008(17)
N7 N 0.46272(17) 0.65400(16) 0.76948(17)
C19 C 0.56772(18) 0.75378(16) 0.86504(17)
H11 H 0.712148 0.725699 0.812390
N8 N 0.46539(17) 0.71613(16) 0.83873(17)
C20 C 0.59266(18) 0.83002(15) 0.93437(16)
H12 H 0.407945 0.730717 0.864021
Al11_8 Al 1.000000 1.000000 1.000000
O29 O 0.51172(12) 0.87669(11) 0.95022(12)
O30 O 0.69420(12) 0.84277(11) 0.96939(12)
O11_2 O 0.15049(12) 0.02420(11) 0.02548(11)
H7_2 H 0.174600 0.011780 0.075920
O21 O 0.65005(12) 0.01790(11) 0.01504(12)
C11_2 C 0.02939(18) 0.16365(15) 0.89011(17)
O17_2 O 0.31449(12) 0.11307(11) 0.84981(12)
O18_2 O 0.13207(12) 0.15610(11) 0.89162(12)
C13_2 C 0.40910(18) 0.10003(15) 0.83053(16)
C14_2 C 0.01325(18) 0.29835(16) 0.77032(18)
O23_2 O 0.48460(13) 0.04855(11) 0.87490(12)
C15_2 C 0.43406(18) 0.15339(16) 0.74972(17)
H9_2 H 0.084261 0.296429 0.753427
C17_2 C 0.36454(18) 0.21419(16) 0.68992(17)
N7_2 N 0.53728(17) 0.15400(16) 0.73052(17)
C19_2 C 0.43228(18) 0.25378(16) 0.63496(17)
H11_2 H 0.287852 0.225699 0.687610
N8_2 N 0.53461(17) 0.21613(16) 0.66127(17)
C20_2 C 0.40734(18) 0.33002(15) 0.56563(16)
H12_2 H 0.592055 0.230717 0.635979
O9_2 O 0.03007(13) 0.88936(11) 0.07187(13)
C5_2 C 0.02635(18) 0.75768(16) 0.16505(17)
N3_2 N 0.13151(16) 0.73449(15) 0.16005(16)
C9_2 C 0.07390(18) 0.64242(17) 0.26395(18)
N4_2 N 0.15799(17) 0.66376(15) 0.21977(16)
C10_2 C 0.08539(17) 0.57047(15) 0.33796(17)
H6_2 H 0.222160 0.634715 0.229163
H8_2 H 0.330380 0.944760 0.011890
O24 O 0.51540(13) 0.95145(11) 0.12510(12)
O14_2 O 0.34995(12) 0.98210(11) 0.98496(12)
H1_2 H 0.669620 0.055240 0.988110
O13_2 O 0.96993(13) 0.11064(11) 0.92813(13)
C12_2 C 0.97365(18) 0.24232(16) 0.83495(17)
N5_2 N 0.86849(16) 0.26551(15) 0.83995(16)
C16_2 C 0.92610(18) 0.35758(17) 0.73605(18)
N6_2 N 0.84201(17) 0.33624(15) 0.78023(16)
C18_2 C 0.91461(17) 0.42953(15) 0.66204(17)
H10_2 H 0.777840 0.365285 0.770837
C1_2 C 0.59090(18) 0.89997(15) 0.16947(16)
O6_2 O 0.68551(12) 0.88693(11) 0.15019(12)
O7_2 O 0.86793(12) 0.84390(11) 0.10838(12)
C2_2 C 0.56594(18) 0.84661(16) 0.25028(17)
C3_2 C 0.97061(18) 0.83635(15) 0.10989(17)
C4_2 C 0.63546(18) 0.78581(16) 0.31008(17)
N1_2 N 0.46272(17) 0.84600(16) 0.26948(17)
C6_2 C 0.56772(18) 0.74622(16) 0.36504(17)
H3_2 H 0.712148 0.774301 0.312390
N2_2 N 0.46539(17) 0.78387(16) 0.33873(17)
C7_2 C 0.98675(18) 0.70165(16) 0.22968(18)
C8_2 C 0.59266(18) 0.66998(15) 0.43437(16)
H4_2 H 0.407945 0.769283 0.364021
H5_2 H 0.915739 0.703571 0.246573
O3_2 O 0.84951(12) 0.97580(11) 0.97452(11)
H2_2 H 0.825400 0.988220 0.924080
loop_
_geom_bond_atom_site_label_1
_geom_bond_atom_site_label_2
_geom_bond_site_symmetry_1
_geom_bond_site_symmetry_2
Al1 O1 1_555 1_555
O1 Al2 1_555 1_555
O2 Al1 1_555 1_555
Al2 O3 1_555 1_555
H1 O1 1_555 1_555
C1 O2 1_555 1_555
O3 Al3 1_555 1_555
O4 Al2 1_555 1_555
O5 Al2 1_555 1_555
O6 Al2 1_555 1_555
O7 Al2 1_555 1_555
C2 C1 1_555 1_555
Al3 O8 1_555 1_555
H2 O3 1_555 1_555
C3 O7 1_555 1_555
C4 C2 1_555 1_555
N1 C2 1_555 1_555
C6 C4 1_555 1_555
H3 C4 1_555 1_555
N2 N1 1_555 1_555
C8 C6 1_555 1_555
H4 N2 1_555 1_555
H5 C7 1_555 1_555
O10 C8 1_555 1_555
O13 Al3 1_555 1_555
O19 C8 1_555 1_555
N5 C12 1_555 1_555
Al6 O10 1_555 1_555
N6 N5 1_555 1_555
C18 C16 1_555 1_555
H10 N6 1_555 1_555
O27 C18 1_555 1_555
O28 C18 1_555 1_555
Al11_4 O28 1_555 1_555
C1 O6 1_555 1_555
C6 N2 1_555 1_555
C16 N6 1_555 1_555
O9 Al3_2 1_555 1_555
N3 C5 1_555 1_555
N4 N3 1_555 1_555
C10 C9 1_555 1_555
H6 N4 1_555 1_555
O11 Al3_2 1_555 1_555
O12 Al3_2 1_555 1_555
Al4 O11 1_555 1_555
H7 O11 1_555 1_555
O14 Al4 1_555 1_555
O15 Al4 1_555 1_555
O16 Al4 1_555 1_555
O17 Al4 1_555 1_555
O18 Al4 1_555 1_555
H8 O14 1_555 1_555
Al1 O14 1_555 1_555
C13 O17 1_555 1_555
O20 Al1 1_555 1_555
O22 Al1 1_555 1_555
O23 Al1 1_555 1_555
C15 C13 1_555 1_555
H9 C14 1_555 1_555
O25 C10 1_555 1_555
O26 C10 1_555 1_555
C17 C15 1_555 1_555
N7 C15 1_555 1_555
Al11_5 O26 1_555 1_555
C19 C17 1_555 1_555
H11 C17 1_555 1_555
N8 N7 1_555 1_555
C20 C19 1_555 1_555
H12 N8 1_555 1_555
O29 C20 1_555 1_555
O30 C20 1_555 1_555
Al6_4 O29 1_555 1_555
C9 N4 1_555 1_555
C11 O18 1_555 1_555
C13 O23 1_555 1_555
C19 N8 1_555 1_555
O11_2 Al11 1_555 1_555
H7_2 O11_2 1_555 1_555
O21 Al6 1_555 1_555
O17_2 Al10 1_555 1_555
O18_2 Al10 1_555 1_555
C13_2 O17_2 1_555 1_555
O23_2 Al6_2 1_555 1_555
C15_2 C13_2 1_555 1_555
H9_2 C14_2 1_555 1_555
C17_2 C15_2 1_555 1_555
N7_2 C15_2 1_555 1_555
C19_2 C17_2 1_555 1_555
H11_2 C17_2 1_555 1_555
N8_2 N7_2 1_555 1_555
C20_2 C19_2 1_555 1_555
H12_2 N8_2 1_555 1_555
O22 C20_2 1_555 1_555
O5 C20_2 1_555 1_555
C11_2 O18_2 1_555 1_555
C13_2 O23_2 1_555 1_555
C19_2 N8_2 1_555 1_555
O9_2 Al11_3 1_555 1_555
N3_2 C5_2 1_555 1_555
N4_2 N3_2 1_555 1_555
C10_2 C9_2 1_555 1_555
H6_2 N4_2 1_555 1_555
O24 Al6_3 1_555 1_555
O4 C10_2 1_555 1_555
O8 C10_2 1_555 1_555
C9_2 N4_2 1_555 1_555
Al6_4 O14_2 1_555 1_555
O13_2 Al11_6 1_555 1_555
N5_2 C12_2 1_555 1_555
N6_2 N5_2 1_555 1_555
C18_2 C16_2 1_555 1_555
H10_2 N6_2 1_555 1_555
O15 C18_2 1_555 1_555
O12 C18_2 1_555 1_555
C16_2 N6_2 1_555 1_555
C1_2 O24 1_555 1_555
O6_2 Al13 1_555 1_555
O7_2 Al13 1_555 1_555
C2_2 C1_2 1_555 1_555
C3_2 O7_2 1_555 1_555
C4_2 C2_2 1_555 1_555
N1_2 C2_2 1_555 1_555
C6_2 C4_2 1_555 1_555
H3_2 C4_2 1_555 1_555
N2_2 N1_2 1_555 1_555
C8_2 C6_2 1_555 1_555
H4_2 N2_2 1_555 1_555
H5_2 C7_2 1_555 1_555
O20 C8_2 1_555 1_555
O16 C8_2 1_555 1_555
C1_2 O6_2 1_555 1_555
C6_2 N2_2 1_555 1_555
O3_2 Al11_8 1_555 1_555
H2_2 O3_2 1_555 1_555

#END
