
###############################################################################
#
# This file contains modified crystal structure data generated from the
# MOF subset of the Cambridge Structural Database (CSD) v543 
# hosted by the Cambridge Crystallographic Data Centre (CCDC).
#
# This work is licensed under the Creative Commons
# Attribution-NonCommercial-ShareAlike 4.0 International License.
# To view a copy of this license, visit
# http://creativecommons.org/licenses/by-nc-sa/4.0/
# or send a letter to
# Creative Commons, PO Box 1866, Mountain View, CA 94042, USA.
#
# CIF created using the CSD Python API on 29 September 2022
# The structure has been converted into the P1 space group
# The structure has a 3D framework
# The original CSD entry CAMTET01 is in the monoclinic crystal system
# The framework has been calculated to contain at least 10.0% void space
# The void calculation uses a probe of radius 1.32A, grid spacing 0.4
#
###############################################################################

data_CAMTET01
_chemical_formula_moiety         '(C40 H23 Al14 N16 O39)n'
_symmetry_cell_setting           triclinic
_symmetry_space_group_name_H-M   'P 1'
_symmetry_Int_Tables_number      1
_space_group_name_Hall           'P 1'
loop_
_symmetry_equiv_pos_site_id
_symmetry_equiv_pos_as_xyz
1 x,y,z
_cell_length_a                   12.0438(5)
_cell_length_b                   14.9649(7)
_cell_length_c                   14.0794(7)
_cell_angle_alpha                90
_cell_angle_beta                 101.929(2)
_cell_angle_gamma                90
_cell_volume                     2482.79
loop_
_atom_site_label
_atom_site_type_symbol
_atom_site_fract_x
_atom_site_fract_y
_atom_site_fract_z
Al12 Al -0.000000 -0.000000 -0.000000
Al3 Al -0.000000 0.500000 0.500000
O10 O 0.00891(18) 0.61097(16) 0.43803(18)
N3 N 0.0459(2) 0.2572(2) 0.6946(2)
N4 N 0.0515(2) 0.1952(2) 0.7626(3)
H5 H 0.103683 0.284685 0.681526
O19 O 0.15289(16) 0.48482(13) 0.51874(15)
O21 O 0.00921(18) 0.56128(18) 0.61957(18)
Al12_2 Al -0.000000 -0.000000 1.000000
Al12_3 Al -0.000000 1.000000 -0.000000
Al12_4 Al -0.000000 1.000000 1.000000
Al9 Al 0.500000 -0.000000 -0.000000
Al8 Al 0.73518(6) 0.06645(6) 0.93501(6)
Al9_2 Al 0.500000 -0.000000 1.000000
Al9_3 Al 0.500000 1.000000 -0.000000
Al12_5 Al 1.000000 -0.000000 -0.000000
Al1 Al 0.500000 0.500000 0.500000
O1 O 0.65006(15) 0.46952(13) 0.52356(14)
O2 O 0.45955(16) 0.40122(14) 0.41210(16)
O3 O 0.51789(17) 0.57678(14) 0.39510(16)
Al2 Al 0.73518(6) 0.43355(6) 0.43501(6)
H1 H 0.688389 0.472432 0.587990
C1 C 0.5181(3) 0.3471(2) 0.3743(2)
O4 O 0.62333(16) 0.34889(14) 0.38146(16)
O5 O 0.81244(17) 0.38893(15) 0.34121(15)
O6 O 0.84711(16) 0.51518(13) 0.48126(15)
O7 O 0.66852(17) 0.52261(14) 0.34445(15)
O8 O 0.80886(16) 0.34609(14) 0.52728(16)
C2 C 0.4583(3) 0.2747(2) 0.3138(2)
Al3_2 Al 1.000000 0.500000 0.500000
H2 H 0.822662 0.571162 0.497043
C3 C 0.9104(3) 0.3409(2) 0.5735(2)
N1 N 0.3456(2) 0.2612(2) 0.3000(3)
C4 C 0.5014(3) 0.2113(2) 0.2606(3)
O9 O 0.99079(18) 0.43872(18) 0.38043(18)
C5 C 0.9378(3) 0.2716(2) 0.6486(3)
H3 H 0.299873 0.293825 0.324598
N2 N 0.3141(2) 0.1902(2) 0.2431(3)
H4 H 0.576221 0.204994 0.253979
C6 C 0.4094(3) 0.1588(2) 0.2189(2)
C7 C 0.8698(3) 0.2179(2) 0.6888(3)
C8 C 0.4072(2) 0.0801(2) 0.1552(2)
C9 C 0.9437(3) 0.1712(2) 0.7612(3)
H6 H 0.791156 0.213161 0.671919
C10 C 0.9138(3) 0.1086(2) 0.8326(2)
O11 O 0.34994(15) 0.53048(13) 0.47644(14)
O12 O 0.54045(16) 0.59878(14) 0.58790(16)
O13 O 0.48211(17) 0.42322(14) 0.60490(16)
Al4 Al 0.26482(6) 0.56645(6) 0.56499(6)
H7 H 0.311611 0.527568 0.412010
C11 C 0.4819(3) 0.6529(2) 0.6257(2)
O14 O 0.37667(16) 0.65111(14) 0.61854(16)
O15 O 0.18756(17) 0.61107(15) 0.65879(15)
O17 O 0.33148(17) 0.47739(14) 0.65555(15)
O18 O 0.19114(16) 0.65391(14) 0.47272(16)
C12 C 0.5417(3) 0.7253(2) 0.6862(2)
H8 H 0.177338 0.428838 0.502957
C13 C 0.0896(3) 0.6591(2) 0.4265(2)
N5 N 0.6544(2) 0.7388(2) 0.7000(3)
C14 C 0.4986(3) 0.7887(2) 0.7394(3)
O20 O 0.99109(18) 0.38903(16) 0.56197(18)
C15 C 0.0622(3) 0.7284(2) 0.3514(3)
H9 H 0.700127 0.706175 0.675402
N6 N 0.6859(2) 0.8098(2) 0.7569(3)
H10 H 0.423779 0.795006 0.746021
C16 C 0.5906(3) 0.8412(2) 0.7811(2)
C17 C 0.1302(3) 0.7821(2) 0.3112(3)
C18 C 0.5928(2) 0.9199(2) 0.8448(2)
O23 O 0.33148(17) 0.02261(14) 0.15555(15)
O24 O 0.48211(17) 0.07678(14) 0.10490(16)
C19 C 0.0563(3) 0.8288(2) 0.2388(3)
H12 H 0.208844 0.786839 0.328081
O25 O 0.66852(17) 0.97739(14) 0.84445(15)
O26 O 0.51789(17) 0.92322(14) 0.89510(16)
C20 C 0.0862(3) 0.8914(2) 0.1674(2)
Al9_4 Al 0.500000 1.000000 1.000000
Al10 Al 0.26482(6) 0.93355(6) 0.06499(6)
O27 O 0.99079(18) 0.06128(18) 0.88043(18)
O28 O 0.81244(17) 0.11107(15) 0.84121(15)
O29 O 0.00921(18) 0.93872(18) 0.11957(18)
O30 O 0.18756(17) 0.88893(15) 0.15879(15)
Al12_6 Al 1.000000 -0.000000 1.000000
Al12_7 Al 1.000000 1.000000 -0.000000
Al12_8 Al 1.000000 1.000000 1.000000
N7 N 0.9541(2) 0.7428(2) 0.3054(2)
N8 N 0.9485(2) 0.8048(2) 0.2374(3)
H11 H 0.896317 0.715315 0.318474
N7_2 N 0.0459(2) 0.2428(2) 0.1946(2)
N8_2 N 0.0515(2) 0.3048(2) 0.2626(3)
H11_2 H 0.103683 0.215315 0.181526
O6_2 O 0.15289(16) 0.01518(13) 0.01874(15)
H2_2 H 0.177338 0.071162 0.002957
O11_2 O 0.65006(15) 0.03048(13) 0.02356(14)
H7_2 H 0.688389 0.027568 0.087990
O18_2 O 0.80886(16) 0.15391(14) 0.02728(16)
C13_2 C 0.9104(3) 0.1591(2) 0.0735(2)
O22 O 0.99109(18) 0.11097(16) 0.06197(18)
C15_2 C 0.9378(3) 0.2284(2) 0.1486(3)
C17_2 C 0.8698(3) 0.2821(2) 0.1888(3)
C19_2 C 0.9437(3) 0.3288(2) 0.2612(3)
H12_2 H 0.791156 0.286839 0.171919
C20_2 C 0.9138(3) 0.3914(2) 0.3326(2)
O12_2 O 0.45955(16) 0.09878(14) 0.91210(16)
C11_2 C 0.5181(3) 0.1529(2) 0.8743(2)
O14_2 O 0.62333(16) 0.15111(14) 0.88146(16)
C12_2 C 0.4583(3) 0.2253(2) 0.8138(2)
N5_2 N 0.3456(2) 0.2388(2) 0.8000(3)
C14_2 C 0.5014(3) 0.2887(2) 0.7606(3)
H9_2 H 0.299873 0.206175 0.824598
N6_2 N 0.3141(2) 0.3098(2) 0.7431(3)
H10_2 H 0.576221 0.295006 0.753979
C16_2 C 0.4094(3) 0.3412(2) 0.7189(2)
C18_2 C 0.4072(2) 0.4199(2) 0.6552(2)
O2_2 O 0.54045(16) 0.90122(14) 0.08790(16)
C1_2 C 0.4819(3) 0.8471(2) 0.1257(2)
O4_2 O 0.37667(16) 0.84889(14) 0.11854(16)
C2_2 C 0.5417(3) 0.7747(2) 0.1862(2)
N1_2 N 0.6544(2) 0.7612(2) 0.2000(3)
C4_2 C 0.4986(3) 0.7113(2) 0.2394(3)
H3_2 H 0.700127 0.793825 0.175402
N2_2 N 0.6859(2) 0.6902(2) 0.2569(3)
H4_2 H 0.423779 0.704994 0.246021
C6_2 C 0.5906(3) 0.6588(2) 0.2811(2)
C8_2 C 0.5928(2) 0.5801(2) 0.3448(2)
O1_2 O 0.34994(15) 0.96952(13) 0.97644(14)
H1_2 H 0.311611 0.972432 0.912010
O8_2 O 0.19114(16) 0.84609(14) 0.97272(16)
C3_2 C 0.0896(3) 0.8409(2) 0.9265(2)
C5_2 C 0.0622(3) 0.7716(2) 0.8514(3)
C7_2 C 0.1302(3) 0.7179(2) 0.8112(3)
C9_2 C 0.0563(3) 0.6712(2) 0.7388(3)
H6_2 H 0.208844 0.713161 0.828081
C10_2 C 0.0862(3) 0.6086(2) 0.6674(2)
O16 O 0.84711(16) 0.98482(13) 0.98126(15)
H8_2 H 0.822662 0.928838 0.997043
O20_2 O 0.00891(18) 0.88903(16) 0.93803(18)
N3_2 N 0.9541(2) 0.7572(2) 0.8054(2)
N4_2 N 0.9485(2) 0.6952(2) 0.7374(3)
H5_2 H 0.896317 0.784685 0.818474
loop_
_geom_bond_atom_site_label_1
_geom_bond_atom_site_label_2
_geom_bond_site_symmetry_1
_geom_bond_site_symmetry_2
O10 Al3 1_555 1_555
N4 N3 1_555 1_555
H5 N3 1_555 1_555
O19 Al3 1_555 1_555
O21 Al3 1_555 1_555
Al1 O1 1_555 1_555
O1 Al2 1_555 1_555
O2 Al1 1_555 1_555
O3 Al1 1_555 1_555
Al2 O4 1_555 1_555
H1 O1 1_555 1_555
C1 O2 1_555 1_555
O4 C1 1_555 1_555
O5 Al2 1_555 1_555
O6 Al2 1_555 1_555
O7 Al2 1_555 1_555
O8 Al2 1_555 1_555
C2 C1 1_555 1_555
Al3_2 O6 1_555 1_555
H2 O6 1_555 1_555
C3 O8 1_555 1_555
N1 C2 1_555 1_555
C4 C2 1_555 1_555
O9 Al3_2 1_555 1_555
C5 C3 1_555 1_555
H3 N1 1_555 1_555
N2 N1 1_555 1_555
H4 C4 1_555 1_555
C6 C4 1_555 1_555
C7 C5 1_555 1_555
C8 C6 1_555 1_555
C9 C7 1_555 1_555
H6 C7 1_555 1_555
C10 C9 1_555 1_555
O11 Al1 1_555 1_555
O12 Al1 1_555 1_555
O13 Al1 1_555 1_555
Al4 O11 1_555 1_555
H7 O11 1_555 1_555
C11 O12 1_555 1_555
O14 Al4 1_555 1_555
O15 Al4 1_555 1_555
O19 Al4 1_555 1_555
O17 Al4 1_555 1_555
O18 Al4 1_555 1_555
C12 C11 1_555 1_555
H8 O19 1_555 1_555
C13 O18 1_555 1_555
N5 C12 1_555 1_555
C14 C12 1_555 1_555
O20 Al3_2 1_555 1_555
C15 C13 1_555 1_555
H9 N5 1_555 1_555
N6 N5 1_555 1_555
H10 C14 1_555 1_555
C16 C14 1_555 1_555
C17 C15 1_555 1_555
C18 C16 1_555 1_555
O23 C8 1_555 1_555
O24 C8 1_555 1_555
C19 C17 1_555 1_555
H12 C17 1_555 1_555
O25 C18 1_555 1_555
O26 C18 1_555 1_555
Al9 O24 1_555 1_555
C20 C19 1_555 1_555
Al9_4 O26 1_555 1_555
Al10 O30 1_555 1_555
Al8 O28 1_555 1_555
O27 C10 1_555 1_555
O28 C10 1_555 1_555
O29 C20 1_555 1_555
O30 C20 1_555 1_555
Al12_6 O27 1_555 1_555
Al12_3 O29 1_555 1_555
C3 O20 1_555 1_555
N2 C6 1_555 1_555
C11 O14 1_555 1_555
C13 O10 1_555 1_555
N6 C16 1_555 1_555
N8 N7 1_555 1_555
H11 N7 1_555 1_555
N8_2 N7_2 1_555 1_555
H11_2 N7_2 1_555 1_555
Al12 O6_2 1_555 1_555
H2_2 O6_2 1_555 1_555
O11_2 Al9 1_555 1_555
H7_2 O11_2 1_555 1_555
C13_2 O18_2 1_555 1_555
O22 Al12_5 1_555 1_555
C15_2 C13_2 1_555 1_555
C17_2 C15_2 1_555 1_555
C19_2 C17_2 1_555 1_555
H12_2 C17_2 1_555 1_555
C20_2 C19_2 1_555 1_555
O9 C20_2 1_555 1_555
O5 C20_2 1_555 1_555
C13_2 O22 1_555 1_555
O12_2 Al9_2 1_555 1_555
C11_2 O12_2 1_555 1_555
O14_2 Al8 1_555 1_555
C12_2 C11_2 1_555 1_555
N5_2 C12_2 1_555 1_555
C14_2 C12_2 1_555 1_555
H9_2 N5_2 1_555 1_555
N6_2 N5_2 1_555 1_555
H10_2 C14_2 1_555 1_555
C16_2 C14_2 1_555 1_555
C18_2 C16_2 1_555 1_555
O17 C18_2 1_555 1_555
O13 C18_2 1_555 1_555
C11_2 O14_2 1_555 1_555
N6_2 C16_2 1_555 1_555
O2_2 Al9_3 1_555 1_555
Al10 O4_2 1_555 1_555
C1_2 O2_2 1_555 1_555
O4_2 C1_2 1_555 1_555
C2_2 C1_2 1_555 1_555
N1_2 C2_2 1_555 1_555
C4_2 C2_2 1_555 1_555
H3_2 N1_2 1_555 1_555
N2_2 N1_2 1_555 1_555
H4_2 C4_2 1_555 1_555
C6_2 C4_2 1_555 1_555
C8_2 C6_2 1_555 1_555
O7 C8_2 1_555 1_555
O3 C8_2 1_555 1_555
N2_2 C6_2 1_555 1_555
Al9_4 O1_2 1_555 1_555
H1_2 O1_2 1_555 1_555
C3_2 O8_2 1_555 1_555
C5_2 C3_2 1_555 1_555
C7_2 C5_2 1_555 1_555
C9_2 C7_2 1_555 1_555
H6_2 C7_2 1_555 1_555
C10_2 C9_2 1_555 1_555
H8_2 O16 1_555 1_555
Al12_8 O16 1_555 1_555
O20_2 Al12_4 1_555 1_555
O21 C10_2 1_555 1_555
O15 C10_2 1_555 1_555
C3_2 O20_2 1_555 1_555
N4_2 N3_2 1_555 1_555
H5_2 N3_2 1_555 1_555

#END
