
###############################################################################
#
# This file contains modified crystal structure data generated from the
# MOF subset of the Cambridge Structural Database (CSD) v543 
# hosted by the Cambridge Crystallographic Data Centre (CCDC).
#
# This work is licensed under the Creative Commons
# Attribution-NonCommercial-ShareAlike 4.0 International License.
# To view a copy of this license, visit
# http://creativecommons.org/licenses/by-nc-sa/4.0/
# or send a letter to
# Creative Commons, PO Box 1866, Mountain View, CA 94042, USA.
#
# CIF created using the CSD Python API on 29 September 2022
# The structure has been converted into the P1 space group
# The structure has a 3D framework
# The original CSD entry CAMVEV is in the monoclinic crystal system
# The framework has been calculated to contain at least 10.0% void space
# The void calculation uses a probe of radius 1.32A, grid spacing 0.4
#
###############################################################################

data_CAMVEV
_chemical_formula_moiety         '(C40 H23 Al15 N16 O37)n'
_symmetry_cell_setting           triclinic
_symmetry_space_group_name_H-M   'P 1'
_symmetry_Int_Tables_number      1
_space_group_name_Hall           'P 1'
loop_
_symmetry_equiv_pos_site_id
_symmetry_equiv_pos_as_xyz
1 x,y,z
_cell_length_a                   12.316(7)
_cell_length_b                   14.893(8)
_cell_length_c                   13.937(8)
_cell_angle_alpha                90
_cell_angle_beta                 102.278(8)
_cell_angle_gamma                90
_cell_volume                     2497.88
loop_
_atom_site_label
_atom_site_type_symbol
_atom_site_fract_x
_atom_site_fract_y
_atom_site_fract_z
Al7 Al 0.000000 0.000000 -0.000000
Al1 Al -0.000000 0.500000 0.500000
O2 O 0.03044(14) 0.38989(12) 0.57129(14)
C2 C 0.0254(2) 0.25948(17) 0.6639(2)
N1 N 0.12681(19) 0.23373(17) 0.65373(19)
N2 N 0.15116(19) 0.16237(17) 0.71199(19)
C6 C 0.0693(2) 0.14277(18) 0.75966(19)
H4 H 0.212587 0.131917 0.718588
C8 C 0.08183(19) 0.07011(16) 0.83296(17)
O10 O 0.00750(14) 0.06383(12) 0.88206(13)
O19 O 0.16710(14) 0.02200(12) 0.84079(12)
Al7_2 Al -0.000000 -0.000000 1.000000
Al7_3 Al -0.000000 1.000000 -0.000000
Al6 Al 0.23575(5) 0.93933(4) 0.93991(5)
Al7_4 Al -0.000000 1.000000 1.000000
Al11 Al 0.500000 -0.000000 0.000000
Al11_2 Al 0.500000 -0.000000 1.000000
Al7_5 Al 1.000000 0.000000 -0.000000
Al8 Al 0.76425(5) 0.06067(4) 0.06009(5)
Al1_2 Al 1.000000 0.500000 0.500000
O1 O 0.84934(13) 0.47802(11) 0.47459(11)
Al2 Al 0.76425(5) 0.43933(4) 0.56009(5)
H1 H 0.811059 0.487854 0.409550
C1 C 0.97139(19) 0.33903(16) 0.61109(18)
O3 O 0.64993(13) 0.51813(10) 0.51651(12)
O4 O 0.83290(14) 0.52200(12) 0.65921(12)
O5 O 0.68931(14) 0.39114(12) 0.65664(13)
O6 O 0.87114(14) 0.35009(12) 0.61383(13)
O7 O 0.69465(14) 0.34851(12) 0.47047(13)
Al3 Al 0.500000 0.500000 0.500000
H2 H 0.671262 0.575862 0.500419
C3 C 0.59377(19) 0.39991(16) 0.67326(17)
C4 C 0.9852(2) 0.20413(17) 0.7297(2)
O8 O 0.48246(14) 0.55015(12) 0.37219(13)
O9 O 0.51255(14) 0.38140(12) 0.44690(14)
C5 C 0.5679(2) 0.34274(18) 0.75173(19)
H3 H 0.916772 0.207931 0.749069
N3 N 0.4635(2) 0.33834(19) 0.7663(2)
C7 C 0.6383(2) 0.28287(18) 0.81256(19)
N4 N 0.46602(19) 0.27442(18) 0.8341(2)
H5 H 0.714751 0.273840 0.817272
C9 C 0.5691(2) 0.24005(18) 0.8642(2)
H6 H 0.408402 0.257137 0.856182
C10 C 0.5936(2) 0.16426(16) 0.93352(18)
O11 O 0.35007(13) 0.48187(10) 0.48349(12)
O12 O 0.51754(14) 0.44985(12) 0.62781(13)
O13 O 0.48745(14) 0.61860(12) 0.55310(14)
C11 C 0.40623(19) 0.60009(16) 0.32674(17)
Al4 Al 0.23575(5) 0.56067(4) 0.43991(5)
H7 H 0.328738 0.424138 0.499581
O14 O 0.31069(14) 0.60886(12) 0.34336(13)
C12 C 0.4321(2) 0.65726(18) 0.24827(19)
O15 O 0.15066(13) 0.52198(11) 0.52541(11)
O16 O 0.16710(14) 0.47800(12) 0.34079(12)
O17 O 0.12886(14) 0.64991(12) 0.38617(13)
O18 O 0.30535(14) 0.65149(12) 0.52953(13)
N5 N 0.5365(2) 0.66166(19) 0.2337(2)
C13 C 0.3617(2) 0.71713(18) 0.18744(19)
H8 H 0.188941 0.512146 0.590450
C14 C 0.02861(19) 0.66097(16) 0.38891(18)
Al7_6 Al 1.000000 -0.000000 1.000000
N6 N 0.53398(19) 0.72558(18) 0.1659(2)
H9 H 0.285249 0.726160 0.182728
C15 C 0.4309(2) 0.75995(18) 0.1358(2)
O20 O 0.00750(14) 0.43617(12) 0.38206(13)
O25 O 0.69465(14) 0.15149(12) 0.97047(13)
O26 O 0.51255(14) 0.11860(12) 0.94690(14)
H10 H 0.591598 0.742863 0.143818
C17 C 0.4064(2) 0.83574(16) 0.06648(18)
C18 C 0.0148(2) 0.79587(17) 0.2703(2)
O27 O 0.30535(14) 0.84851(12) 0.02953(13)
O28 O 0.48745(14) 0.88140(12) 0.05310(14)
H11 H 0.083228 0.792069 0.250931
Al11_3 Al 0.500000 1.000000 0.000000
Al11_4 Al 0.500000 1.000000 1.000000
Al7_7 Al 1.000000 1.000000 -0.000000
Al7_8 Al 1.000000 1.000000 1.000000
O21 O 0.96956(14) 0.61011(12) 0.42871(14)
O23 O 0.99250(14) 0.56383(12) 0.61794(13)
C16 C 0.9746(2) 0.74052(17) 0.3361(2)
N7 N 0.87319(19) 0.76627(17) 0.34627(19)
N8 N 0.84884(19) 0.83763(17) 0.28801(19)
C19 C 0.9307(2) 0.85723(18) 0.24034(19)
H12 H 0.787413 0.868083 0.281412
C20 C 0.91817(19) 0.92989(16) 0.16704(17)
O29 O 0.83290(14) 0.97800(12) 0.15921(12)
O30 O 0.99250(14) 0.93617(12) 0.11794(13)
O21_2 O 0.03044(14) 0.11011(12) 0.07129(14)
C16_2 C 0.0254(2) 0.24052(17) 0.1639(2)
N7_2 N 0.12681(19) 0.26627(17) 0.15373(19)
N8_2 N 0.15116(19) 0.33763(17) 0.21199(19)
C19_2 C 0.0693(2) 0.35723(18) 0.25966(19)
H12_2 H 0.212587 0.368083 0.218588
C20_2 C 0.08183(19) 0.42989(16) 0.33296(17)
O22 O 0.15066(13) 0.97802(11) 0.02541(11)
O8_2 O 0.51754(14) 0.05015(12) 0.12781(13)
C11_2 C 0.59377(19) 0.10009(16) 0.17326(17)
O14_2 O 0.68931(14) 0.10886(12) 0.15664(13)
C12_2 C 0.5679(2) 0.15726(18) 0.25173(19)
O17_2 O 0.87114(14) 0.14991(12) 0.11383(13)
N5_2 N 0.4635(2) 0.16166(19) 0.2663(2)
C13_2 C 0.6383(2) 0.21713(18) 0.31256(19)
C14_2 C 0.97139(19) 0.16097(16) 0.11109(18)
N6_2 N 0.46602(19) 0.22558(18) 0.3341(2)
H9_2 H 0.714751 0.226160 0.317272
C15_2 C 0.5691(2) 0.25995(18) 0.3642(2)
H10_2 H 0.408402 0.242863 0.356182
C17_2 C 0.5936(2) 0.33574(16) 0.43352(18)
C18_2 C 0.9852(2) 0.29587(17) 0.2297(2)
H11_2 H 0.916772 0.292069 0.249069
O3_2 O 0.35007(13) 0.01813(10) 0.98349(12)
H2_2 H 0.328738 0.075862 0.999581
O15_2 O 0.84934(13) 0.02198(11) 0.97459(11)
H8_2 H 0.811059 0.012146 0.909550
H1_2 H 0.188941 0.987854 0.090450
O11_2 O 0.64993(13) 0.98187(10) 0.01651(12)
H7_2 H 0.671262 0.924138 0.000419
C1_2 C 0.02861(19) 0.83903(16) 0.88891(18)
O5_2 O 0.31069(14) 0.89114(12) 0.84336(13)
O6_2 O 0.12886(14) 0.85009(12) 0.88617(13)
C3_2 C 0.40623(19) 0.89991(16) 0.82674(17)
C4_2 C 0.0148(2) 0.70413(17) 0.7703(2)
C5_2 C 0.4321(2) 0.84274(18) 0.74827(19)
H3_2 H 0.083228 0.707931 0.750931
N3_2 N 0.5365(2) 0.83834(19) 0.7337(2)
C7_2 C 0.3617(2) 0.78287(18) 0.68744(19)
N4_2 N 0.53398(19) 0.77442(18) 0.6659(2)
H5_2 H 0.285249 0.773840 0.682728
C9_2 C 0.4309(2) 0.74005(18) 0.6358(2)
H6_2 H 0.591598 0.757137 0.643818
C10_2 C 0.4064(2) 0.66426(16) 0.56648(18)
O12_2 O 0.48246(14) 0.94985(12) 0.87219(13)
O24 O 0.96956(14) 0.88989(12) 0.92871(14)
C2_2 C 0.9746(2) 0.75948(17) 0.8361(2)
N1_2 N 0.87319(19) 0.73373(17) 0.84627(19)
N2_2 N 0.84884(19) 0.66237(17) 0.78801(19)
C6_2 C 0.9307(2) 0.64277(18) 0.74034(19)
H4_2 H 0.787413 0.631917 0.781412
C8_2 C 0.91817(19) 0.57011(16) 0.66704(17)
loop_
_geom_bond_atom_site_label_1
_geom_bond_atom_site_label_2
_geom_bond_site_symmetry_1
_geom_bond_site_symmetry_2
O2 Al1 1_555 1_555
N1 C2 1_555 1_555
N2 N1 1_555 1_555
H4 N2 1_555 1_555
C8 C6 1_555 1_555
O10 C8 1_555 1_555
O19 C8 1_555 1_555
Al7_2 O10 1_555 1_555
N2 C6 1_555 1_555
Al1_2 O1 1_555 1_555
O1 Al2 1_555 1_555
Al2 O3 1_555 1_555
H1 O1 1_555 1_555
O3 Al3 1_555 1_555
O4 Al2 1_555 1_555
O5 Al2 1_555 1_555
O6 Al2 1_555 1_555
O7 Al2 1_555 1_555
Al3 O8 1_555 1_555
H2 O3 1_555 1_555
C3 O5 1_555 1_555
O8 C11 1_555 1_555
O9 Al3 1_555 1_555
C5 C3 1_555 1_555
H3 C4 1_555 1_555
N3 C5 1_555 1_555
C7 C5 1_555 1_555
N4 N3 1_555 1_555
H5 C7 1_555 1_555
C9 C7 1_555 1_555
H6 N4 1_555 1_555
C10 C9 1_555 1_555
O11 Al3 1_555 1_555
O12 Al3 1_555 1_555
O13 Al3 1_555 1_555
C11 O14 1_555 1_555
Al4 O11 1_555 1_555
H7 O11 1_555 1_555
O14 Al4 1_555 1_555
C12 C11 1_555 1_555
O15 Al4 1_555 1_555
O16 Al4 1_555 1_555
O17 Al4 1_555 1_555
O18 Al4 1_555 1_555
N5 C12 1_555 1_555
C13 C12 1_555 1_555
H8 O15 1_555 1_555
Al1 O15 1_555 1_555
C14 O17 1_555 1_555
N6 N5 1_555 1_555
H9 C13 1_555 1_555
C15 C13 1_555 1_555
O20 Al1 1_555 1_555
O25 C10 1_555 1_555
O26 C10 1_555 1_555
H10 N6 1_555 1_555
C17 C15 1_555 1_555
Al11_2 O26 1_555 1_555
O27 C17 1_555 1_555
O28 C17 1_555 1_555
H11 C18 1_555 1_555
Al11_3 O28 1_555 1_555
C1 O6 1_555 1_555
C3 O12 1_555 1_555
N4 C9 1_555 1_555
N6 C15 1_555 1_555
O21 Al1_2 1_555 1_555
O23 Al1_2 1_555 1_555
N7 C16 1_555 1_555
N8 N7 1_555 1_555
H12 N8 1_555 1_555
C20 C19 1_555 1_555
O29 C20 1_555 1_555
O30 C20 1_555 1_555
Al7_7 O30 1_555 1_555
N8 C19 1_555 1_555
O21_2 Al7 1_555 1_555
N7_2 C16_2 1_555 1_555
N8_2 N7_2 1_555 1_555
H12_2 N8_2 1_555 1_555
C20_2 C19_2 1_555 1_555
O16 C20_2 1_555 1_555
O20 C20_2 1_555 1_555
N8_2 C19_2 1_555 1_555
O22 Al7_3 1_555 1_555
Al11 O8_2 1_555 1_555
O8_2 C11_2 1_555 1_555
C11_2 O14_2 1_555 1_555
O14_2 Al8 1_555 1_555
C12_2 C11_2 1_555 1_555
O17_2 Al8 1_555 1_555
N5_2 C12_2 1_555 1_555
C13_2 C12_2 1_555 1_555
C14_2 O17_2 1_555 1_555
N6_2 N5_2 1_555 1_555
H9_2 C13_2 1_555 1_555
C15_2 C13_2 1_555 1_555
H10_2 N6_2 1_555 1_555
C17_2 C15_2 1_555 1_555
O7 C17_2 1_555 1_555
O9 C17_2 1_555 1_555
H11_2 C18_2 1_555 1_555
N6_2 C15_2 1_555 1_555
O3_2 Al11_2 1_555 1_555
H2_2 O3_2 1_555 1_555
H8_2 O15_2 1_555 1_555
Al7_6 O15_2 1_555 1_555
H1_2 O22 1_555 1_555
O11_2 Al11_3 1_555 1_555
H7_2 O11_2 1_555 1_555
O5_2 Al6 1_555 1_555
O6_2 Al6 1_555 1_555
C3_2 O5_2 1_555 1_555
C5_2 C3_2 1_555 1_555
H3_2 C4_2 1_555 1_555
N3_2 C5_2 1_555 1_555
C7_2 C5_2 1_555 1_555
N4_2 N3_2 1_555 1_555
H5_2 C7_2 1_555 1_555
C9_2 C7_2 1_555 1_555
H6_2 N4_2 1_555 1_555
C10_2 C9_2 1_555 1_555
O12_2 Al11_4 1_555 1_555
O24 Al7_8 1_555 1_555
O18 C10_2 1_555 1_555
O13 C10_2 1_555 1_555
C1_2 O6_2 1_555 1_555
C3_2 O12_2 1_555 1_555
N4_2 C9_2 1_555 1_555
N1_2 C2_2 1_555 1_555
N2_2 N1_2 1_555 1_555
H4_2 N2_2 1_555 1_555
C8_2 C6_2 1_555 1_555
O23 C8_2 1_555 1_555
O4 C8_2 1_555 1_555
N2_2 C6_2 1_555 1_555

#END
