
###############################################################################
#
# This file contains modified crystal structure data generated from the
# MOF subset of the Cambridge Structural Database (CSD) v543 
# hosted by the Cambridge Crystallographic Data Centre (CCDC).
#
# This work is licensed under the Creative Commons
# Attribution-NonCommercial-ShareAlike 4.0 International License.
# To view a copy of this license, visit
# http://creativecommons.org/licenses/by-nc-sa/4.0/
# or send a letter to
# Creative Commons, PO Box 1866, Mountain View, CA 94042, USA.
#
# CIF created using the CSD Python API on 29 September 2022
# The structure has been converted into the P1 space group
# The structure has a 3D framework
# The original CSD entry CAMVOF is in the monoclinic crystal system
# The framework has been calculated to contain at least 10.0% void space
# The void calculation uses a probe of radius 1.32A, grid spacing 0.4
#
###############################################################################

data_CAMVOF
_chemical_formula_moiety         '(C40 H23 Al15 N16 O37)n'
_symmetry_cell_setting           triclinic
_symmetry_space_group_name_H-M   'P 1'
_symmetry_Int_Tables_number      1
_space_group_name_Hall           'P 1'
loop_
_symmetry_equiv_pos_site_id
_symmetry_equiv_pos_as_xyz
1 x,y,z
_cell_length_a                   12.3100(6)
_cell_length_b                   14.8855(9)
_cell_length_c                   13.9439(9)
_cell_angle_alpha                90
_cell_angle_beta                 102.331(3)
_cell_angle_gamma                90
_cell_volume                     2496.14
loop_
_atom_site_label
_atom_site_type_symbol
_atom_site_fract_x
_atom_site_fract_y
_atom_site_fract_z
Al11 Al 0.000000 -0.000000 0.000000
Al3 Al 0.000000 0.500000 0.500000
O10 O 0.03032(14) 0.38933(12) 0.57038(13)
C5 C 0.0249(2) 0.25949(17) 0.66339(18)
N3 N 0.12624(19) 0.23313(16) 0.65325(18)
N4 N 0.15059(19) 0.16175(16) 0.71146(18)
C9 C 0.0685(2) 0.14258(18) 0.75964(19)
H6 H 0.211847 0.131028 0.717858
C10 C 0.08141(19) 0.07022(16) 0.83287(17)
O19 O 0.15060(13) 0.52155(11) 0.52576(12)
O21 O 0.00722(14) 0.43716(13) 0.38167(13)
O27 O 0.16772(14) 0.02242(12) 0.84125(12)
O28 O 0.00722(14) 0.06284(13) 0.88167(13)
Al11_2 Al 0.000000 -0.000000 1.000000
Al11_3 Al -0.000000 1.000000 0.000000
Al10 Al 0.23562(6) 0.93970(5) 0.94008(5)
Al11_4 Al 0.000000 1.000000 1.000000
Al7 Al 0.500000 0.000000 0.000000
Al7_2 Al 0.500000 -0.000000 1.000000
Al8 Al 0.76438(6) 0.06030(5) 0.05992(5)
Al11_5 Al 1.000000 -0.000000 0.000000
Al1 Al 0.500000 0.500000 0.500000
O1 O 0.64978(13) 0.51821(11) 0.51606(12)
O2 O 0.48185(14) 0.54924(12) 0.37181(12)
O3 O 0.51269(14) 0.38081(11) 0.44738(13)
Al2 Al 0.76438(6) 0.43970(5) 0.55992(5)
H1 H 0.670943 0.575877 0.499516
C1 C 0.4061(2) 0.59983(16) 0.32683(17)
O4 O 0.84940(13) 0.47845(11) 0.47424(12)
O5 O 0.83228(14) 0.52242(12) 0.65875(12)
O6 O 0.68933(14) 0.39133(12) 0.65614(12)
O7 O 0.87122(14) 0.35075(12) 0.61394(12)
O8 O 0.69495(14) 0.34866(12) 0.47064(13)
C2 C 0.4314(2) 0.65720(18) 0.24809(18)
Al3_2 Al 1.000000 0.500000 0.500000
H2 H 0.811086 0.488472 0.409244
C3 C 0.9715(2) 0.33928(16) 0.61104(17)
N1 N 0.53588(19) 0.66086(17) 0.23358(17)
C4 C 0.3619(2) 0.71704(17) 0.18812(18)
O9 O 0.99278(14) 0.56284(13) 0.61833(13)
N2 N 0.53255(18) 0.72500(17) 0.16576(17)
C6 C 0.4298(2) 0.76036(17) 0.13608(18)
H3 H 0.285477 0.726084 0.183858
C7 C 0.9856(2) 0.20418(17) 0.72951(19)
H4 H 0.590028 0.741985 0.143341
C8 C 0.4056(2) 0.83567(16) 0.06674(17)
H5 H 0.917210 0.208339 0.749018
O11 O 0.35022(13) 0.48179(11) 0.48394(12)
O12 O 0.51815(14) 0.45076(12) 0.62819(12)
O13 O 0.48731(14) 0.61919(11) 0.55262(13)
Al4 Al 0.23562(6) 0.56030(5) 0.44008(5)
H7 H 0.329057 0.424123 0.500484
C11 C 0.5939(2) 0.40017(16) 0.67317(17)
O14 O 0.31067(14) 0.60867(12) 0.34386(12)
O16 O 0.16772(14) 0.47758(12) 0.34125(12)
O17 O 0.12878(14) 0.64925(12) 0.38606(12)
O18 O 0.30505(14) 0.65134(12) 0.52936(13)
C12 C 0.5686(2) 0.34280(18) 0.75191(18)
H8 H 0.188914 0.511528 0.590756
C13 C 0.0285(2) 0.66072(16) 0.38896(17)
N5 N 0.46412(19) 0.33914(17) 0.76642(17)
C14 C 0.6381(2) 0.28296(17) 0.81188(18)
O20 O 0.96968(14) 0.61067(12) 0.42962(13)
N6 N 0.46745(18) 0.27500(17) 0.83424(17)
C16 C 0.5702(2) 0.23964(17) 0.86392(18)
H9 H 0.714523 0.273916 0.816142
C17 C 0.0144(2) 0.79582(17) 0.27049(19)
H10 H 0.409972 0.258015 0.856659
C18 C 0.5944(2) 0.16433(16) 0.93326(17)
O23 O 0.30505(14) 0.84866(12) 0.02936(13)
O24 O 0.48731(14) 0.88081(11) 0.05262(13)
H11 H 0.082790 0.791661 0.250982
O25 O 0.69495(14) 0.15134(12) 0.97064(13)
O26 O 0.51269(14) 0.11919(11) 0.94738(13)
Al7_3 Al 0.500000 1.000000 0.000000
Al11_6 Al 1.000000 -0.000000 1.000000
Al7_4 Al 0.500000 1.000000 1.000000
Al11_7 Al 1.000000 1.000000 0.000000
Al11_8 Al 1.000000 1.000000 1.000000
C15 C 0.9751(2) 0.74051(17) 0.33661(18)
N7 N 0.87376(19) 0.76687(16) 0.34675(18)
N8 N 0.84941(19) 0.83825(16) 0.28854(18)
C19 C 0.9315(2) 0.85742(18) 0.24036(19)
H12 H 0.788153 0.868972 0.282142
C20 C 0.91859(19) 0.92978(16) 0.16713(17)
O29 O 0.83228(14) 0.97758(12) 0.15875(12)
O30 O 0.99278(14) 0.93716(13) 0.11833(13)
O22 O 0.03032(14) 0.11067(12) 0.07038(13)
C15_2 C 0.0249(2) 0.24051(17) 0.16339(18)
N7_2 N 0.12624(19) 0.26687(16) 0.15325(18)
N8_2 N 0.15059(19) 0.33825(16) 0.21146(18)
C19_2 C 0.0685(2) 0.35742(18) 0.25964(19)
H12_2 H 0.211847 0.368972 0.217858
C20_2 C 0.08141(19) 0.42978(16) 0.33287(17)
O2_2 O 0.51815(14) 0.04924(12) 0.12819(12)
H1_2 H 0.329057 0.075877 0.000484
C1_2 C 0.5939(2) 0.09983(16) 0.17317(17)
C2_2 C 0.5686(2) 0.15720(18) 0.25191(18)
N1_2 N 0.46412(19) 0.16086(17) 0.26642(17)
C4_2 C 0.6381(2) 0.21704(17) 0.31188(18)
N2_2 N 0.46745(18) 0.22500(17) 0.33424(17)
C6_2 C 0.5702(2) 0.26036(17) 0.36392(18)
H3_2 H 0.714523 0.226084 0.316142
H4_2 H 0.409972 0.241985 0.356659
C8_2 C 0.5944(2) 0.33567(16) 0.43326(17)
O14_2 O 0.68933(14) 0.10867(12) 0.15614(12)
O17_2 O 0.87122(14) 0.14925(12) 0.11394(12)
C13_2 C 0.9715(2) 0.16072(16) 0.11104(17)
C17_2 C 0.9856(2) 0.29582(17) 0.22951(19)
H11_2 H 0.917210 0.291661 0.249018
O1_2 O 0.35022(13) 0.01821(11) 0.98394(12)
O15 O 0.84940(13) 0.02155(11) 0.97424(12)
H8_2 H 0.811086 0.011528 0.909244
O4_2 O 0.15060(13) 0.97845(11) 0.02576(12)
H2_2 H 0.188914 0.988472 0.090756
O11_2 O 0.64978(13) 0.98179(11) 0.01606(12)
O6_2 O 0.31067(14) 0.89133(12) 0.84386(12)
O7_2 O 0.12878(14) 0.85075(12) 0.88606(12)
C3_2 C 0.0285(2) 0.83928(16) 0.88896(17)
C7_2 C 0.0144(2) 0.70418(17) 0.77049(19)
H5_2 H 0.082790 0.708339 0.750982
O12_2 O 0.48185(14) 0.95076(12) 0.87181(12)
H7_2 H 0.670943 0.924123 0.999516
C11_2 C 0.4061(2) 0.90017(16) 0.82683(17)
C12_2 C 0.4314(2) 0.84280(18) 0.74809(18)
N5_2 N 0.53588(19) 0.83914(17) 0.73358(17)
C14_2 C 0.3619(2) 0.78296(17) 0.68812(18)
N6_2 N 0.53255(18) 0.77500(17) 0.66576(17)
C16_2 C 0.4298(2) 0.73964(17) 0.63608(18)
H9_2 H 0.285477 0.773916 0.683858
H10_2 H 0.590028 0.758015 0.643341
C18_2 C 0.4056(2) 0.66433(16) 0.56674(17)
O10_2 O 0.96968(14) 0.88933(12) 0.92962(13)
C5_2 C 0.9751(2) 0.75949(17) 0.83661(18)
N3_2 N 0.87376(19) 0.73313(16) 0.84675(18)
N4_2 N 0.84941(19) 0.66175(16) 0.78854(18)
C9_2 C 0.9315(2) 0.64258(18) 0.74036(19)
H6_2 H 0.788153 0.631028 0.782142
C10_2 C 0.91859(19) 0.57022(16) 0.66713(17)
loop_
_geom_bond_atom_site_label_1
_geom_bond_atom_site_label_2
_geom_bond_site_symmetry_1
_geom_bond_site_symmetry_2
O10 Al3 1_555 1_555
N3 C5 1_555 1_555
N4 N3 1_555 1_555
H6 N4 1_555 1_555
C10 C9 1_555 1_555
O19 Al3 1_555 1_555
O21 Al3 1_555 1_555
O27 C10 1_555 1_555
O28 C10 1_555 1_555
Al11_2 O28 1_555 1_555
N4 C9 1_555 1_555
Al1 O1 1_555 1_555
O1 Al2 1_555 1_555
O2 Al1 1_555 1_555
O3 Al1 1_555 1_555
Al2 O4 1_555 1_555
H1 O1 1_555 1_555
C1 O2 1_555 1_555
O4 Al3_2 1_555 1_555
O5 Al2 1_555 1_555
O6 Al2 1_555 1_555
O7 Al2 1_555 1_555
O8 Al2 1_555 1_555
C2 C1 1_555 1_555
Al3_2 O9 1_555 1_555
H2 O4 1_555 1_555
C3 O7 1_555 1_555
N1 C2 1_555 1_555
C4 C2 1_555 1_555
N2 N1 1_555 1_555
C6 C4 1_555 1_555
H3 C4 1_555 1_555
H4 N2 1_555 1_555
C8 C6 1_555 1_555
H5 C7 1_555 1_555
O11 Al1 1_555 1_555
O12 Al1 1_555 1_555
O13 Al1 1_555 1_555
Al4 O11 1_555 1_555
H7 O11 1_555 1_555
C11 O6 1_555 1_555
O14 C1 1_555 1_555
O19 Al4 1_555 1_555
O16 Al4 1_555 1_555
O17 Al4 1_555 1_555
O18 Al4 1_555 1_555
C12 C11 1_555 1_555
H8 O19 1_555 1_555
C13 O17 1_555 1_555
N5 C12 1_555 1_555
C14 C12 1_555 1_555
O20 Al3_2 1_555 1_555
N6 N5 1_555 1_555
C16 C14 1_555 1_555
H9 C14 1_555 1_555
H10 N6 1_555 1_555
C18 C16 1_555 1_555
O23 C8 1_555 1_555
O24 C8 1_555 1_555
H11 C17 1_555 1_555
O25 C18 1_555 1_555
O26 C18 1_555 1_555
Al7_3 O24 1_555 1_555
Al7_2 O26 1_555 1_555
N2 C6 1_555 1_555
O12 C11 1_555 1_555
Al4 O14 1_555 1_555
N6 C16 1_555 1_555
N7 C15 1_555 1_555
N8 N7 1_555 1_555
H12 N8 1_555 1_555
C20 C19 1_555 1_555
O29 C20 1_555 1_555
O30 C20 1_555 1_555
Al11_7 O30 1_555 1_555
N8 C19 1_555 1_555
O22 Al11 1_555 1_555
N7_2 C15_2 1_555 1_555
N8_2 N7_2 1_555 1_555
H12_2 N8_2 1_555 1_555
C20_2 C19_2 1_555 1_555
O16 C20_2 1_555 1_555
O21 C20_2 1_555 1_555
N8_2 C19_2 1_555 1_555
O2_2 Al7 1_555 1_555
C1_2 O2_2 1_555 1_555
C2_2 C1_2 1_555 1_555
N1_2 C2_2 1_555 1_555
C4_2 C2_2 1_555 1_555
N2_2 N1_2 1_555 1_555
C6_2 C4_2 1_555 1_555
H3_2 C4_2 1_555 1_555
H4_2 N2_2 1_555 1_555
C8_2 C6_2 1_555 1_555
O14_2 C1_2 1_555 1_555
O17_2 Al8 1_555 1_555
C13_2 O17_2 1_555 1_555
O8 C8_2 1_555 1_555
O3 C8_2 1_555 1_555
H11_2 C17_2 1_555 1_555
N2_2 C6_2 1_555 1_555
Al8 O14_2 1_555 1_555
Al7_2 O1_2 1_555 1_555
H8_2 O15 1_555 1_555
Al11_6 O15 1_555 1_555
O4_2 Al11_3 1_555 1_555
H2_2 O4_2 1_555 1_555
O11_2 Al7_3 1_555 1_555
O6_2 Al10 1_555 1_555
O7_2 Al10 1_555 1_555
C3_2 O7_2 1_555 1_555
H5_2 C7_2 1_555 1_555
O12_2 Al7_4 1_555 1_555
C11_2 O6_2 1_555 1_555
C12_2 C11_2 1_555 1_555
N5_2 C12_2 1_555 1_555
C14_2 C12_2 1_555 1_555
N6_2 N5_2 1_555 1_555
C16_2 C14_2 1_555 1_555
H9_2 C14_2 1_555 1_555
H10_2 N6_2 1_555 1_555
C18_2 C16_2 1_555 1_555
O18 C18_2 1_555 1_555
O13 C18_2 1_555 1_555
O12_2 C11_2 1_555 1_555
N6_2 C16_2 1_555 1_555
O10_2 Al11_8 1_555 1_555
N3_2 C5_2 1_555 1_555
N4_2 N3_2 1_555 1_555
H6_2 N4_2 1_555 1_555
C10_2 C9_2 1_555 1_555
O5 C10_2 1_555 1_555
O9 C10_2 1_555 1_555
N4_2 C9_2 1_555 1_555

#END
