
###############################################################################
#
# This file contains modified crystal structure data generated from the
# MOF subset of the Cambridge Structural Database (CSD) v543 
# hosted by the Cambridge Crystallographic Data Centre (CCDC).
#
# This work is licensed under the Creative Commons
# Attribution-NonCommercial-ShareAlike 4.0 International License.
# To view a copy of this license, visit
# http://creativecommons.org/licenses/by-nc-sa/4.0/
# or send a letter to
# Creative Commons, PO Box 1866, Mountain View, CA 94042, USA.
#
# CIF created using the CSD Python API on 29 September 2022
# The structure has been converted into the P1 space group
# The structure has a 3D framework
# The original CSD entry CAMVUL01 is in the monoclinic crystal system
# The framework has been calculated to contain at least 10.0% void space
# The void calculation uses a probe of radius 1.32A, grid spacing 0.4
#
###############################################################################

data_CAMVUL01
_chemical_formula_moiety         '(C40 H23 Al15 N16 O37)n'
_symmetry_cell_setting           triclinic
_symmetry_space_group_name_H-M   'P 1'
_symmetry_Int_Tables_number      1
_space_group_name_Hall           'P 1'
loop_
_symmetry_equiv_pos_site_id
_symmetry_equiv_pos_as_xyz
1 x,y,z
_cell_length_a                   12.3016(17)
_cell_length_b                   14.919(2)
_cell_length_c                   13.920(2)
_cell_angle_alpha                90
_cell_angle_beta                 102.402(7)
_cell_angle_gamma                90
_cell_volume                     2495.09
loop_
_atom_site_label
_atom_site_type_symbol
_atom_site_fract_x
_atom_site_fract_y
_atom_site_fract_z
Al10 Al 0.000000 0.000000 0.000000
Al3 Al 0.000000 0.500000 0.500000
O10 O 0.0303(2) 0.38981(18) 0.5709(2)
C5 C 0.0250(3) 0.2593(3) 0.6634(3)
N3 N 0.1259(3) 0.2333(3) 0.6536(3)
N4 N 0.1502(3) 0.1621(3) 0.7110(3)
C9 C 0.0682(3) 0.1421(3) 0.7594(3)
H6 H 0.211603 0.131542 0.717076
C10 C 0.0818(3) 0.0702(3) 0.8332(3)
O19 O 0.1509(2) 0.52181(16) 0.52545(18)
O20 O 0.0072(2) 0.43683(19) 0.38152(19)
O27 O 0.0072(2) 0.06317(19) 0.88152(19)
O28 O 0.1674(2) 0.02235(18) 0.84124(19)
Al10_2 Al 0.000000 0.000000 1.000000
Al10_3 Al 0.000000 1.000000 0.000000
Al10_4 Al 0.000000 1.000000 1.000000
Al11 Al 0.23553(8) 0.93972(7) 0.93994(8)
Al7 Al 0.500000 0.000000 0.000000
Al7_2 Al 0.500000 0.000000 1.000000
Al8 Al 0.76447(8) 0.06028(7) 0.06006(8)
Al10_5 Al 1.000000 0.000000 0.000000
Al1 Al 0.500000 0.500000 0.500000
O1 O 0.6501(2) 0.51826(16) 0.51648(18)
O2 O 0.4822(2) 0.54982(19) 0.37204(19)
O3 O 0.5124(2) 0.38146(18) 0.4467(2)
Al2 Al 0.76447(8) 0.43972(7) 0.56006(8)
H1 H 0.671364 0.575904 0.500337
C1 C 0.4065(3) 0.5998(3) 0.3264(3)
O4 O 0.8491(2) 0.47819(16) 0.47455(18)
O5 O 0.8326(2) 0.52235(18) 0.65876(19)
O6 O 0.6899(2) 0.39163(18) 0.65648(19)
O7 O 0.6951(2) 0.34894(18) 0.47079(19)
O8 O 0.8712(2) 0.35098(18) 0.61413(19)
C2 C 0.4319(3) 0.6574(3) 0.2486(3)
Al3_2 Al 1.000000 0.500000 0.500000
H2 H 0.810561 0.488039 0.409413
C3 C 0.9719(3) 0.3392(3) 0.6115(3)
N1 N 0.5357(3) 0.6608(3) 0.2333(3)
C4 C 0.3622(3) 0.7171(3) 0.1876(3)
O9 O 0.9928(2) 0.56317(19) 0.61848(19)
N2 N 0.5328(3) 0.7253(3) 0.1658(3)
H3 H 0.285555 0.725950 0.182831
C6 C 0.4304(3) 0.7604(3) 0.1359(3)
C7 C 0.9853(3) 0.2038(3) 0.7295(3)
H4 H 0.590527 0.742486 0.143748
C8 C 0.4057(3) 0.8355(3) 0.0669(3)
H5 H 0.916903 0.207938 0.749060
O11 O 0.3499(2) 0.48174(16) 0.48352(18)
O12 O 0.5178(2) 0.45018(19) 0.62796(19)
O13 O 0.4876(2) 0.61854(18) 0.5533(2)
Al4 Al 0.23553(8) 0.56028(7) 0.43994(8)
H7 H 0.328636 0.424096 0.499663
C11 C 0.5935(3) 0.4002(3) 0.6736(3)
O14 O 0.3101(2) 0.60837(18) 0.34352(19)
O16 O 0.1674(2) 0.47765(18) 0.34124(19)
O17 O 0.3049(2) 0.65106(18) 0.52921(19)
O18 O 0.1288(2) 0.64902(18) 0.38587(19)
C12 C 0.5681(3) 0.3426(3) 0.7514(3)
H8 H 0.189439 0.511961 0.590587
C13 C 0.0281(3) 0.6608(3) 0.3885(3)
N5 N 0.4643(3) 0.3392(3) 0.7667(3)
C14 C 0.6378(3) 0.2829(3) 0.8124(3)
O21 O 0.9697(2) 0.61019(18) 0.4291(2)
N6 N 0.4672(3) 0.2747(3) 0.8342(3)
H9 H 0.714445 0.274050 0.817169
C16 C 0.5696(3) 0.2396(3) 0.8641(3)
C17 C 0.0147(3) 0.7962(3) 0.2705(3)
H10 H 0.409473 0.257514 0.856252
C18 C 0.5943(3) 0.1645(3) 0.9331(3)
O23 O 0.3049(2) 0.84894(18) 0.02921(19)
O24 O 0.4876(2) 0.88146(18) 0.0533(2)
H11 H 0.083097 0.792062 0.250940
O25 O 0.6951(2) 0.15106(18) 0.97079(19)
O26 O 0.5124(2) 0.11854(18) 0.9467(2)
Al7_3 Al 0.500000 1.000000 0.000000
Al10_6 Al 1.000000 0.000000 1.000000
Al7_4 Al 0.500000 1.000000 1.000000
Al10_7 Al 1.000000 1.000000 0.000000
Al10_8 Al 1.000000 1.000000 1.000000
C15 C 0.9750(3) 0.7407(3) 0.3366(3)
N7 N 0.8741(3) 0.7667(3) 0.3464(3)
N8 N 0.8498(3) 0.8379(3) 0.2890(3)
C19 C 0.9318(3) 0.8579(3) 0.2406(3)
H12 H 0.788397 0.868458 0.282924
C20 C 0.9182(3) 0.9298(3) 0.1668(3)
O29 O 0.9928(2) 0.93683(19) 0.11848(19)
O30 O 0.8326(2) 0.97765(18) 0.15876(19)
O22 O 0.0303(2) 0.11019(18) 0.0709(2)
C15_2 C 0.0250(3) 0.2407(3) 0.1634(3)
N7_2 N 0.1259(3) 0.2667(3) 0.1536(3)
N8_2 N 0.1502(3) 0.3379(3) 0.2110(3)
C19_2 C 0.0682(3) 0.3579(3) 0.2594(3)
H12_2 H 0.211603 0.368458 0.217076
C20_2 C 0.0818(3) 0.4298(3) 0.3332(3)
O2_2 O 0.5178(2) 0.04982(19) 0.12796(19)
C1_2 C 0.5935(3) 0.0998(3) 0.1736(3)
C2_2 C 0.5681(3) 0.1574(3) 0.2514(3)
N1_2 N 0.4643(3) 0.1608(3) 0.2667(3)
C4_2 C 0.6378(3) 0.2171(3) 0.3124(3)
N2_2 N 0.4672(3) 0.2253(3) 0.3342(3)
H3_2 H 0.714445 0.225950 0.317169
C6_2 C 0.5696(3) 0.2604(3) 0.3641(3)
H4_2 H 0.409473 0.242486 0.356252
C8_2 C 0.5943(3) 0.3355(3) 0.4331(3)
O14_2 O 0.6899(2) 0.10837(18) 0.15648(19)
O18_2 O 0.8712(2) 0.14902(18) 0.11413(19)
C13_2 C 0.9719(3) 0.1608(3) 0.1115(3)
C17_2 C 0.9853(3) 0.2962(3) 0.2295(3)
H11_2 H 0.916903 0.292062 0.249060
O1_2 O 0.3499(2) 0.01826(16) 0.98352(18)
H1_2 H 0.328636 0.075904 0.999663
O15 O 0.8491(2) 0.02181(16) 0.97455(18)
H8_2 H 0.810561 0.011961 0.909413
O4_2 O 0.1509(2) 0.97819(16) 0.02545(18)
H2_2 H 0.189439 0.988039 0.090587
O11_2 O 0.6501(2) 0.98174(16) 0.01648(18)
H7_2 H 0.671364 0.924096 0.000337
O6_2 O 0.3101(2) 0.89163(18) 0.84352(19)
O8_2 O 0.1288(2) 0.85098(18) 0.88587(19)
C3_2 C 0.0281(3) 0.8392(3) 0.8885(3)
C7_2 C 0.0147(3) 0.7038(3) 0.7705(3)
H5_2 H 0.083097 0.707938 0.750940
O12_2 O 0.4822(2) 0.95018(19) 0.87204(19)
C11_2 C 0.4065(3) 0.9002(3) 0.8264(3)
C12_2 C 0.4319(3) 0.8426(3) 0.7486(3)
N5_2 N 0.5357(3) 0.8392(3) 0.7333(3)
C14_2 C 0.3622(3) 0.7829(3) 0.6876(3)
N6_2 N 0.5328(3) 0.7747(3) 0.6658(3)
H9_2 H 0.285555 0.774050 0.682831
C16_2 C 0.4304(3) 0.7396(3) 0.6359(3)
H10_2 H 0.590527 0.757514 0.643748
C18_2 C 0.4057(3) 0.6645(3) 0.5669(3)
O10_2 O 0.9697(2) 0.88981(18) 0.9291(2)
C5_2 C 0.9750(3) 0.7593(3) 0.8366(3)
N3_2 N 0.8741(3) 0.7333(3) 0.8464(3)
N4_2 N 0.8498(3) 0.6621(3) 0.7890(3)
C9_2 C 0.9318(3) 0.6421(3) 0.7406(3)
H6_2 H 0.788397 0.631542 0.782924
C10_2 C 0.9182(3) 0.5702(3) 0.6668(3)
loop_
_geom_bond_atom_site_label_1
_geom_bond_atom_site_label_2
_geom_bond_site_symmetry_1
_geom_bond_site_symmetry_2
O10 Al3 1_555 1_555
N3 C5 1_555 1_555
N4 N3 1_555 1_555
H6 N4 1_555 1_555
C10 C9 1_555 1_555
O19 Al3 1_555 1_555
O20 Al3 1_555 1_555
O27 C10 1_555 1_555
O28 C10 1_555 1_555
Al10_2 O27 1_555 1_555
N4 C9 1_555 1_555
Al1 O1 1_555 1_555
O1 Al2 1_555 1_555
O2 Al1 1_555 1_555
O3 Al1 1_555 1_555
Al2 O4 1_555 1_555
H1 O1 1_555 1_555
C1 O2 1_555 1_555
O4 Al3_2 1_555 1_555
O5 Al2 1_555 1_555
O6 Al2 1_555 1_555
O7 Al2 1_555 1_555
O8 Al2 1_555 1_555
C2 C1 1_555 1_555
Al3_2 O9 1_555 1_555
H2 O4 1_555 1_555
C3 O8 1_555 1_555
N1 C2 1_555 1_555
C4 C2 1_555 1_555
N2 N1 1_555 1_555
H3 C4 1_555 1_555
C6 C4 1_555 1_555
H4 N2 1_555 1_555
C8 C6 1_555 1_555
H5 C7 1_555 1_555
O11 Al1 1_555 1_555
O12 Al1 1_555 1_555
O13 Al1 1_555 1_555
Al4 O11 1_555 1_555
H7 O11 1_555 1_555
C11 O6 1_555 1_555
O14 C1 1_555 1_555
O19 Al4 1_555 1_555
O16 Al4 1_555 1_555
O17 Al4 1_555 1_555
O18 Al4 1_555 1_555
C12 C11 1_555 1_555
H8 O19 1_555 1_555
C13 O18 1_555 1_555
N5 C12 1_555 1_555
C14 C12 1_555 1_555
O21 Al3_2 1_555 1_555
N6 N5 1_555 1_555
H9 C14 1_555 1_555
C16 C14 1_555 1_555
H10 N6 1_555 1_555
C18 C16 1_555 1_555
O23 C8 1_555 1_555
O24 C8 1_555 1_555
H11 C17 1_555 1_555
O25 C18 1_555 1_555
O26 C18 1_555 1_555
Al7_3 O24 1_555 1_555
Al7_2 O26 1_555 1_555
N2 C6 1_555 1_555
O12 C11 1_555 1_555
Al4 O14 1_555 1_555
N6 C16 1_555 1_555
N7 C15 1_555 1_555
N8 N7 1_555 1_555
H12 N8 1_555 1_555
C20 C19 1_555 1_555
O29 C20 1_555 1_555
O30 C20 1_555 1_555
Al10_7 O29 1_555 1_555
N8 C19 1_555 1_555
O22 Al10 1_555 1_555
N7_2 C15_2 1_555 1_555
N8_2 N7_2 1_555 1_555
H12_2 N8_2 1_555 1_555
C20_2 C19_2 1_555 1_555
O20 C20_2 1_555 1_555
O16 C20_2 1_555 1_555
N8_2 C19_2 1_555 1_555
O2_2 Al7 1_555 1_555
C1_2 O2_2 1_555 1_555
C2_2 C1_2 1_555 1_555
N1_2 C2_2 1_555 1_555
C4_2 C2_2 1_555 1_555
N2_2 N1_2 1_555 1_555
H3_2 C4_2 1_555 1_555
C6_2 C4_2 1_555 1_555
H4_2 N2_2 1_555 1_555
C8_2 C6_2 1_555 1_555
O14_2 C1_2 1_555 1_555
O18_2 Al8 1_555 1_555
C13_2 O18_2 1_555 1_555
O7 C8_2 1_555 1_555
O3 C8_2 1_555 1_555
H11_2 C17_2 1_555 1_555
N2_2 C6_2 1_555 1_555
Al8 O14_2 1_555 1_555
Al7_2 O1_2 1_555 1_555
H1_2 O1_2 1_555 1_555
H8_2 O15 1_555 1_555
Al10_6 O15 1_555 1_555
O4_2 Al10_3 1_555 1_555
H2_2 O4_2 1_555 1_555
O11_2 Al7_3 1_555 1_555
H7_2 O11_2 1_555 1_555
O6_2 Al11 1_555 1_555
O8_2 Al11 1_555 1_555
C3_2 O8_2 1_555 1_555
H5_2 C7_2 1_555 1_555
O12_2 Al7_4 1_555 1_555
C11_2 O6_2 1_555 1_555
C12_2 C11_2 1_555 1_555
N5_2 C12_2 1_555 1_555
C14_2 C12_2 1_555 1_555
N6_2 N5_2 1_555 1_555
H9_2 C14_2 1_555 1_555
C16_2 C14_2 1_555 1_555
H10_2 N6_2 1_555 1_555
C18_2 C16_2 1_555 1_555
O17 C18_2 1_555 1_555
O13 C18_2 1_555 1_555
O12_2 C11_2 1_555 1_555
N6_2 C16_2 1_555 1_555
O10_2 Al10_8 1_555 1_555
N3_2 C5_2 1_555 1_555
N4_2 N3_2 1_555 1_555
H6_2 N4_2 1_555 1_555
C10_2 C9_2 1_555 1_555
O9 C10_2 1_555 1_555
O5 C10_2 1_555 1_555
N4_2 C9_2 1_555 1_555

#END
