
###############################################################################
#
# This file contains modified crystal structure data generated from the
# MOF subset of the Cambridge Structural Database (CSD) v543 
# hosted by the Cambridge Crystallographic Data Centre (CCDC).
#
# This work is licensed under the Creative Commons
# Attribution-NonCommercial-ShareAlike 4.0 International License.
# To view a copy of this license, visit
# http://creativecommons.org/licenses/by-nc-sa/4.0/
# or send a letter to
# Creative Commons, PO Box 1866, Mountain View, CA 94042, USA.
#
# CIF created using the CSD Python API on 29 September 2022
# The structure has been converted into the P1 space group
# The structure has a 3D framework
# The original CSD entry CAMWUM02 is in the monoclinic crystal system
# The framework has been calculated to contain at least 10.0% void space
# The void calculation uses a probe of radius 1.32A, grid spacing 0.4
#
###############################################################################

data_CAMWUM02
_chemical_formula_moiety         '(C40 H23 Al13 N16 O37)n'
_symmetry_cell_setting           triclinic
_symmetry_space_group_name_H-M   'P 1'
_symmetry_Int_Tables_number      1
_space_group_name_Hall           'P 1'
loop_
_symmetry_equiv_pos_site_id
_symmetry_equiv_pos_as_xyz
1 x,y,z
_cell_length_a                   12.0810(15)
_cell_length_b                   15.1347(16)
_cell_length_c                   13.8726(19)
_cell_angle_alpha                90
_cell_angle_beta                 102.175(4)
_cell_angle_gamma                90
_cell_volume                     2479.45
loop_
_atom_site_label
_atom_site_type_symbol
_atom_site_fract_x
_atom_site_fract_y
_atom_site_fract_z
Al7 Al 0.000000 -0.000000 -0.000000
Al7_2 Al -0.000000 -0.000000 1.000000
Al9 Al 0.23499(10) 0.06413(9) 0.93412(11)
Al7_3 Al 0.000000 1.000000 -0.000000
Al1 Al -0.000000 0.500000 0.500000
O6 O 0.0145(3) 0.9262(2) 0.8908(3)
O7 O 0.0393(3) 0.5993(2) 0.5865(3)
O8 O 0.1676(3) 0.9761(2) 0.8418(3)
C2 C 0.0903(4) 0.9207(3) 0.8415(4)
N1 N 0.1508(4) 0.7421(4) 0.6926(5)
H3 H 0.195634 0.711589 0.665099
N3 N 0.1819(5) 0.8129(4) 0.7508(5)
C6 C 0.0402(4) 0.7262(4) 0.6837(4)
C9 C 0.0863(5) 0.8427(4) 0.7777(5)
Al7_4 Al -0.000000 1.000000 1.000000
O21 O 0.1501(2) 0.47156(19) 0.5243(2)
O25 O 0.0145(3) 0.5738(2) 0.3908(3)
Al7_5 Al 1.000000 -0.000000 -0.000000
Al7_6 Al 1.000000 -0.000000 1.000000
Al13 Al 0.500000 -0.000000 0.000000
Al13_2 Al 0.500000 -0.000000 1.000000
Al7_7 Al 1.000000 1.000000 -0.000000
Al1_2 Al 1.000000 0.500000 0.500000
Al2 Al 0.76501(10) 0.56413(9) 0.56588(11)
Al3 Al 0.500000 0.500000 0.500000
O1 O 0.8499(2) 0.52844(19) 0.4757(2)
H1 H 0.811238 0.524604 0.410334
O2 O 0.6523(3) 0.4841(2) 0.5195(3)
H2 H 0.675983 0.428455 0.503959
O3 O 0.8766(3) 0.6481(2) 0.6204(3)
O4 O 0.3111(3) 0.1078(2) 0.8376(3)
O5 O 0.3085(3) 0.3488(2) 0.5269(3)
O9 O 0.4909(3) 0.3912(3) 0.5643(3)
O10 O 0.4888(3) 0.0619(3) 0.8788(3)
C1 C 0.9806(4) 0.6522(3) 0.6245(4)
C3 C 0.4112(5) 0.1068(4) 0.8293(4)
C4 C 0.4095(4) 0.3432(4) 0.5731(4)
N2 N 0.5453(4) 0.2575(4) 0.6941(5)
H4 H 0.603245 0.284427 0.681310
C5 C 0.9958(4) 0.7884(3) 0.7373(4)
H5 H 0.921380 0.793080 0.744913
N4 N 0.5500(4) 0.1953(4) 0.7615(5)
C7 C 0.4377(4) 0.2731(4) 0.6482(4)
C8 C 0.3675(4) 0.2192(4) 0.6875(4)
H6 H 0.288936 0.215686 0.670387
C10 C 0.4416(5) 0.1704(4) 0.7595(5)
Al4 Al 0.23499(10) 0.43587(9) 0.43412(11)
H7 H 0.188762 0.475396 0.589666
O12 O 0.3477(3) 0.5159(2) 0.4805(3)
H8 H 0.324017 0.571545 0.496041
O13 O 0.1234(3) 0.3519(2) 0.3796(3)
O14 O 0.6889(3) 0.8922(2) 0.1624(3)
O15 O 0.6915(3) 0.6512(2) 0.4731(3)
O19 O 0.5091(3) 0.6088(3) 0.4357(3)
O20 O 0.5112(3) 0.9381(3) 0.1212(3)
C11 C 0.0194(4) 0.3478(3) 0.3755(4)
C13 C 0.5888(5) 0.8932(4) 0.1707(4)
C14 C 0.5905(4) 0.6568(4) 0.4269(4)
N6 N 0.4547(4) 0.7425(4) 0.3059(5)
H10 H 0.396755 0.715573 0.318690
C15 C 0.0042(4) 0.2116(3) 0.2627(4)
H11 H 0.078620 0.206920 0.255087
N8 N 0.4500(4) 0.8047(4) 0.2385(5)
C17 C 0.5623(4) 0.7269(4) 0.3518(4)
C18 C 0.6325(4) 0.7808(4) 0.3125(4)
H12 H 0.711064 0.784314 0.329613
C20 C 0.5584(5) 0.8296(4) 0.2405(5)
Al7_8 Al 1.000000 1.000000 1.000000
Al11 Al 0.76501(10) 0.93587(9) 0.06588(11)
Al13_3 Al 0.500000 1.000000 0.000000
O22 O 0.6889(3) 0.6078(2) 0.6624(3)
O23 O 0.3111(3) 0.3922(2) 0.3376(3)
O24 O 0.9855(3) 0.4262(2) 0.6092(3)
O26 O 0.9607(3) 0.4007(2) 0.4135(3)
O27 O 0.8324(3) 0.4761(2) 0.6582(3)
O28 O 0.1676(3) 0.5239(2) 0.3418(3)
O29 O 0.5112(3) 0.5619(3) 0.6212(3)
O30 O 0.4888(3) 0.4381(3) 0.3788(3)
Al13_4 Al 0.500000 1.000000 1.000000
O16 O 0.9855(3) 0.0738(2) 0.1092(3)
O18 O 0.8324(3) 0.0239(2) 0.1582(3)
C12 C 0.9097(4) 0.0793(3) 0.1585(4)
N5 N 0.8492(4) 0.2579(4) 0.3074(5)
H9 H 0.804366 0.288411 0.334901
N7 N 0.8181(5) 0.1871(4) 0.2492(5)
C16 C 0.9598(4) 0.2738(4) 0.3163(4)
C19 C 0.9137(5) 0.1573(4) 0.2223(5)
O17 O 0.0393(3) 0.9007(2) 0.0865(3)
C12_2 C 0.0903(4) 0.5793(3) 0.3415(4)
N5_2 N 0.1508(4) 0.7579(4) 0.1926(5)
H9_2 H 0.195634 0.788411 0.165099
N7_2 N 0.1819(5) 0.6871(4) 0.2508(5)
C16_2 C 0.0402(4) 0.7738(4) 0.1837(4)
C19_2 C 0.0863(5) 0.6573(4) 0.2777(5)
O1_2 O 0.1501(2) 0.02844(19) 0.0243(2)
H1_2 H 0.188762 0.024604 0.089666
O12_2 O 0.6523(3) 0.0159(2) 0.0195(3)
H8_2 H 0.675983 0.071545 0.003959
O15_2 O 0.3085(3) 0.1512(2) 0.0269(3)
O19_2 O 0.4909(3) 0.1088(3) 0.0643(3)
C13_2 C 0.4112(5) 0.3932(4) 0.3293(4)
C14_2 C 0.4095(4) 0.1568(4) 0.0731(4)
N6_2 N 0.5453(4) 0.2425(4) 0.1941(5)
H10_2 H 0.603245 0.215573 0.181310
N8_2 N 0.5500(4) 0.3047(4) 0.2615(5)
C17_2 C 0.4377(4) 0.2269(4) 0.1482(4)
C18_2 C 0.3675(4) 0.2808(4) 0.1875(4)
H12_2 H 0.288936 0.284314 0.170387
C20_2 C 0.4416(5) 0.3296(4) 0.2595(5)
O3_2 O 0.1234(3) 0.1481(2) 0.8796(3)
C1_2 C 0.0194(4) 0.1522(3) 0.8755(4)
C5_2 C 0.0042(4) 0.2884(3) 0.7627(4)
H5_2 H 0.078620 0.293080 0.755087
O13_2 O 0.8766(3) 0.8519(2) 0.1204(3)
C11_2 C 0.9806(4) 0.8478(3) 0.1245(4)
C15_2 C 0.9958(4) 0.7116(3) 0.2373(4)
H11_2 H 0.921380 0.706920 0.244913
O2_2 O 0.3477(3) 0.9841(2) 0.9805(3)
H2_2 H 0.324017 0.928455 0.996041
O5_2 O 0.6915(3) 0.8488(2) 0.9731(3)
O9_2 O 0.5091(3) 0.8912(3) 0.9357(3)
C3_2 C 0.5888(5) 0.6068(4) 0.6707(4)
C4_2 C 0.5905(4) 0.8432(4) 0.9269(4)
N2_2 N 0.4547(4) 0.7575(4) 0.8059(5)
H4_2 H 0.396755 0.784427 0.818690
N4_2 N 0.4500(4) 0.6953(4) 0.7385(5)
C7_2 C 0.5623(4) 0.7731(4) 0.8518(4)
C8_2 C 0.6325(4) 0.7192(4) 0.8125(4)
H6_2 H 0.711064 0.715686 0.829613
C10_2 C 0.5584(5) 0.6704(4) 0.7405(5)
O11 O 0.8499(2) 0.97156(19) 0.9757(2)
H7_2 H 0.811238 0.975396 0.910334
O7_2 O 0.9607(3) 0.0993(2) 0.9135(3)
C2_2 C 0.9097(4) 0.4207(3) 0.6585(4)
N1_2 N 0.8492(4) 0.2421(4) 0.8074(5)
H3_2 H 0.804366 0.211589 0.834901
N3_2 N 0.8181(5) 0.3129(4) 0.7492(5)
C6_2 C 0.9598(4) 0.2262(4) 0.8163(4)
C9_2 C 0.9137(5) 0.3427(4) 0.7223(5)
loop_
_geom_bond_atom_site_label_1
_geom_bond_atom_site_label_2
_geom_bond_site_symmetry_1
_geom_bond_site_symmetry_2
O6 C2 1_555 1_555
O7 Al1 1_555 1_555
O8 C2 1_555 1_555
C2 C9 1_555 1_555
N1 H3 1_555 1_555
N3 N1 1_555 1_555
C9 N3 1_555 1_555
Al7_4 O6 1_555 1_555
O21 Al1 1_555 1_555
O25 Al1 1_555 1_555
N1 C6 1_555 1_555
Al1_2 O1 1_555 1_555
Al2 O1 1_555 1_555
Al3 O2 1_555 1_555
O1 H1 1_555 1_555
O2 Al2 1_555 1_555
H2 O2 1_555 1_555
O3 Al2 1_555 1_555
O4 C3 1_555 1_555
O5 C4 1_555 1_555
O9 Al3 1_555 1_555
O10 C3 1_555 1_555
C1 O3 1_555 1_555
C3 C10 1_555 1_555
C4 O9 1_555 1_555
N2 H4 1_555 1_555
C5 H5 1_555 1_555
N4 N2 1_555 1_555
C7 C4 1_555 1_555
C8 C7 1_555 1_555
H6 C8 1_555 1_555
C10 N4 1_555 1_555
Al4 O5 1_555 1_555
O21 Al4 1_555 1_555
H7 O21 1_555 1_555
O12 Al3 1_555 1_555
H8 O12 1_555 1_555
O13 Al4 1_555 1_555
O14 C13 1_555 1_555
O15 Al2 1_555 1_555
O19 Al3 1_555 1_555
O20 C13 1_555 1_555
C11 O13 1_555 1_555
C13 C20 1_555 1_555
C14 O15 1_555 1_555
N6 H10 1_555 1_555
C15 H11 1_555 1_555
N8 N6 1_555 1_555
C17 C14 1_555 1_555
C18 C17 1_555 1_555
H12 C18 1_555 1_555
C20 N8 1_555 1_555
Al9 O4 1_555 1_555
Al11 O14 1_555 1_555
Al13_2 O10 1_555 1_555
Al13_3 O20 1_555 1_555
O22 Al2 1_555 1_555
O23 Al4 1_555 1_555
O24 Al1_2 1_555 1_555
O26 Al1_2 1_555 1_555
O27 Al2 1_555 1_555
O28 Al4 1_555 1_555
O29 Al3 1_555 1_555
O30 Al3 1_555 1_555
N2 C7 1_555 1_555
C8 C10 1_555 1_555
Al4 O12 1_555 1_555
O19 C14 1_555 1_555
N6 C17 1_555 1_555
C18 C20 1_555 1_555
O16 C12 1_555 1_555
O18 C12 1_555 1_555
C12 C19 1_555 1_555
N5 H9 1_555 1_555
N7 N5 1_555 1_555
C19 N7 1_555 1_555
Al7_5 O16 1_555 1_555
N5 C16 1_555 1_555
O25 C12_2 1_555 1_555
O28 C12_2 1_555 1_555
C12_2 C19_2 1_555 1_555
N5_2 H9_2 1_555 1_555
N7_2 N5_2 1_555 1_555
C19_2 N7_2 1_555 1_555
O17 Al7_3 1_555 1_555
N5_2 C16_2 1_555 1_555
Al7 O1_2 1_555 1_555
O1_2 H1_2 1_555 1_555
O12_2 Al13 1_555 1_555
H8_2 O12_2 1_555 1_555
O23 C13_2 1_555 1_555
O19_2 Al13 1_555 1_555
O30 C13_2 1_555 1_555
C13_2 C20_2 1_555 1_555
C14_2 O15_2 1_555 1_555
N6_2 H10_2 1_555 1_555
N8_2 N6_2 1_555 1_555
C17_2 C14_2 1_555 1_555
C18_2 C17_2 1_555 1_555
H12_2 C18_2 1_555 1_555
C20_2 N8_2 1_555 1_555
O19_2 C14_2 1_555 1_555
N6_2 C17_2 1_555 1_555
C18_2 C20_2 1_555 1_555
O3_2 Al9 1_555 1_555
C1_2 O3_2 1_555 1_555
C5_2 H5_2 1_555 1_555
O13_2 Al11 1_555 1_555
C11_2 O13_2 1_555 1_555
C15_2 H11_2 1_555 1_555
Al13_4 O2_2 1_555 1_555
H2_2 O2_2 1_555 1_555
O22 C3_2 1_555 1_555
O5_2 C4_2 1_555 1_555
O9_2 Al13_4 1_555 1_555
O29 C3_2 1_555 1_555
C3_2 C10_2 1_555 1_555
C4_2 O9_2 1_555 1_555
N2_2 H4_2 1_555 1_555
N4_2 N2_2 1_555 1_555
C7_2 C4_2 1_555 1_555
C8_2 C7_2 1_555 1_555
H6_2 C8_2 1_555 1_555
C10_2 N4_2 1_555 1_555
H7_2 O11 1_555 1_555
Al7_8 O11 1_555 1_555
N2_2 C7_2 1_555 1_555
C8_2 C10_2 1_555 1_555
O24 C2_2 1_555 1_555
O7_2 Al7_6 1_555 1_555
O27 C2_2 1_555 1_555
C2_2 C9_2 1_555 1_555
N1_2 H3_2 1_555 1_555
N3_2 N1_2 1_555 1_555
C9_2 N3_2 1_555 1_555
N1_2 C6_2 1_555 1_555

#END
