
###############################################################################
#
# This file contains modified crystal structure data generated from the
# MOF subset of the Cambridge Structural Database (CSD) v543 
# hosted by the Cambridge Crystallographic Data Centre (CCDC).
#
# This work is licensed under the Creative Commons
# Attribution-NonCommercial-ShareAlike 4.0 International License.
# To view a copy of this license, visit
# http://creativecommons.org/licenses/by-nc-sa/4.0/
# or send a letter to
# Creative Commons, PO Box 1866, Mountain View, CA 94042, USA.
#
# CIF created using the CSD Python API on 29 September 2022
# The structure has been converted into the P1 space group
# The structure has a 3D framework
# The original CSD entry CAMWEW is in the monoclinic crystal system
# The framework has been calculated to contain at least 10.0% void space
# The void calculation uses a probe of radius 1.32A, grid spacing 0.4
#
###############################################################################

data_CAMWEW
_chemical_formula_moiety         '(C40 H23 Al15 N16 O33)n'
_symmetry_cell_setting           triclinic
_symmetry_space_group_name_H-M   'P 1'
_symmetry_Int_Tables_number      1
_space_group_name_Hall           'P 1'
loop_
_symmetry_equiv_pos_site_id
_symmetry_equiv_pos_as_xyz
1 x,y,z
_cell_length_a                   12.1684(5)
_cell_length_b                   16.7259(7)
_cell_length_c                   11.5616(5)
_cell_angle_alpha                90
_cell_angle_beta                 105.091(2)
_cell_angle_gamma                90
_cell_volume                     2271.95
loop_
_atom_site_label
_atom_site_type_symbol
_atom_site_fract_x
_atom_site_fract_y
_atom_site_fract_z
Al4 Al 0.000000 0.000000 0.000000
Al4_2 Al 0.000000 0.000000 1.000000
O2 O 0.0377(3) 0.90401(17) 0.0908(3)
C5 C 0.0254(4) 0.7782(3) 0.1731(5)
Al4_3 Al 0.000000 1.000000 0.000000
N5 N 0.1181(4) 0.7522(2) 0.1416(4)
N6 N 0.1358(4) 0.6781(2) 0.1842(4)
C15 C 0.0567(4) 0.6559(3) 0.2408(5)
H10 H 0.190824 0.648083 0.176669
C17 C 0.0657(4) 0.5784(2) 0.3040(4)
O26 O 0.1487(2) 0.53411(16) 0.2980(3)
Al9 Al 0.000000 0.500000 0.500000
Al10 Al 0.22568(10) 0.45367(6) 0.40469(11)
Al4_4 Al -0.000000 1.000000 1.000000
Al3 Al 0.500000 0.000000 0.000000
O8 O 0.6536(2) 0.02208(16) 0.0386(3)
H4 H 0.672820 0.074900 0.028077
Al4_5 Al 1.000000 0.000000 0.000000
O11 O 0.8513(2) 0.03411(16) 0.2020(3)
O15 O 0.3050(2) 0.13213(16) 0.0028(3)
O17 O 0.1526(2) 0.01816(16) 0.0192(3)
O18 O 0.4800(3) 0.08710(19) 0.0967(3)
C14 C 0.4002(4) 0.1370(3) 0.0786(5)
H8 H 0.198722 0.012369 0.096727
C16 C 0.4225(4) 0.2097(3) 0.1513(5)
O23 O 0.0070(3) 0.06348(18) 0.1404(3)
N7 N 0.5251(4) 0.2186(3) 0.2293(5)
C18 C 0.3513(4) 0.2736(3) 0.1573(5)
N8 N 0.5219(4) 0.2887(3) 0.2815(6)
H11 H 0.275911 0.281291 0.114812
C19 C 0.4197(4) 0.3230(3) 0.2417(6)
H12 H 0.578001 0.309353 0.334060
C20 C 0.3956(4) 0.3970(3) 0.2987(5)
O29 O 0.4795(3) 0.42886(19) 0.3675(3)
O30 O 0.2929(2) 0.41841(17) 0.2798(3)
Al12 Al 0.500000 0.500000 0.500000
O1 O 0.0070(3) 0.43652(18) 0.6404(3)
O5 O 0.2929(2) 0.08159(17) 0.7798(3)
O6 O 0.4795(3) 0.07114(19) 0.8675(3)
C4 C 0.0170(4) 0.2810(3) 0.7647(5)
Al3_2 Al 0.500000 0.000000 1.000000
H3 H 0.080420 0.278258 0.734084
Al4_6 Al 1.000000 0.000000 1.000000
Al6 Al 0.22568(10) 0.04633(6) 0.90469(11)
O13 O 0.1139(2) 0.12439(16) 0.8404(3)
C13 C 0.0199(4) 0.1413(2) 0.8617(4)
C3 C 0.9801(4) 0.8587(2) 0.1383(4)
Al3_3 Al 0.500000 1.000000 0.000000
O7 O 0.8861(2) 0.87561(16) 0.1596(3)
Al4_7 Al 1.000000 1.000000 0.000000
Al5 Al 0.77432(10) 0.95367(6) 0.09531(11)
O12 O 0.7071(2) 0.91841(17) 0.2202(3)
O19 O 0.5205(3) 0.92886(19) 0.1325(3)
C12 C 0.9830(4) 0.7190(3) 0.2353(5)
H9 H 0.919580 0.721742 0.265916
O25 O 0.9930(3) 0.56348(18) 0.3596(3)
Al9_2 Al 1.000000 0.500000 0.500000
O3 O 0.8474(2) 0.98184(16) 0.9808(3)
H1 H 0.801278 0.987631 0.903273
Al3_4 Al 0.500000 1.000000 1.000000
O9 O 0.6950(2) 0.86787(16) 0.9972(3)
O10 O 0.5200(3) 0.91290(19) 0.9033(3)
C6 C 0.5998(4) 0.8630(3) 0.9214(5)
C7 C 0.5775(4) 0.7903(3) 0.8487(5)
C8 C 0.6487(4) 0.7264(3) 0.8427(5)
N3 N 0.4749(4) 0.7814(3) 0.7707(5)
H5 H 0.724089 0.718709 0.885188
C9 C 0.5803(4) 0.6770(3) 0.7583(6)
N4 N 0.4781(4) 0.7113(3) 0.7185(6)
C10 C 0.6044(4) 0.6030(3) 0.7013(5)
H6 H 0.421999 0.690647 0.665940
Al4_8 Al 1.000000 1.000000 1.000000
O14 O 0.3464(2) 0.97792(16) 0.9614(3)
O16 O 0.1487(2) 0.96589(16) 0.7980(3)
H7 H 0.327180 0.925100 0.971923
Al8 Al 0.77432(10) 0.54633(6) 0.59531(11)
O27 O 0.7071(2) 0.58159(17) 0.7202(3)
O28 O 0.5205(3) 0.57114(19) 0.6325(3)
C1 C 0.9343(4) 0.4216(2) 0.6960(4)
O4 O 0.8513(2) 0.46589(16) 0.7020(3)
C2 C 0.9433(4) 0.3441(3) 0.7592(5)
N1 N 0.8642(4) 0.3219(2) 0.8158(4)
H2 H 0.809176 0.351917 0.823331
N2 N 0.8819(4) 0.2478(2) 0.8584(4)
C11 C 0.9746(4) 0.2218(3) 0.8269(5)
O20 O 0.9623(3) 0.09599(17) 0.9092(3)
O21 O 0.9930(3) 0.93652(18) 0.8596(3)
C1_2 C 0.0657(4) 0.9216(2) 0.8040(4)
C2_2 C 0.0567(4) 0.8441(3) 0.7408(5)
N1_2 N 0.1358(4) 0.8219(2) 0.6842(4)
H2_2 H 0.190824 0.851917 0.676669
N2_2 N 0.1181(4) 0.7478(2) 0.6416(4)
C11_2 C 0.0254(4) 0.7218(3) 0.6731(5)
O20_2 O 0.0377(3) 0.59599(17) 0.5908(3)
O24 O 0.1526(2) 0.48184(16) 0.5192(3)
C3_2 C 0.0199(4) 0.3587(2) 0.3617(4)
H1_2 H 0.198722 0.487631 0.596727
C4_2 C 0.9830(4) 0.7810(3) 0.7353(5)
O7_2 O 0.1139(2) 0.37561(16) 0.3404(3)
O8_2 O 0.3464(2) 0.52208(16) 0.4614(3)
O9_2 O 0.3050(2) 0.36787(16) 0.5028(3)
H3_2 H 0.919580 0.778258 0.765916
O10_2 O 0.4800(3) 0.41290(19) 0.5967(3)
H4_2 H 0.327180 0.574900 0.471923
C6_2 C 0.4002(4) 0.3630(3) 0.5786(5)
C7_2 C 0.4225(4) 0.2903(3) 0.6513(5)
C8_2 C 0.3513(4) 0.2264(3) 0.6573(5)
N3_2 N 0.5251(4) 0.2814(3) 0.7293(5)
H5_2 H 0.275911 0.218709 0.614812
C9_2 C 0.4197(4) 0.1770(3) 0.7417(6)
N4_2 N 0.5219(4) 0.2113(3) 0.7815(6)
C10_2 C 0.3956(4) 0.1030(3) 0.7987(5)
H6_2 H 0.578001 0.190647 0.834060
O13_2 O 0.8861(2) 0.62439(16) 0.6596(3)
O14_2 O 0.6536(2) 0.47792(16) 0.5386(3)
O15_2 O 0.6950(2) 0.63213(16) 0.4972(3)
O17_2 O 0.8474(2) 0.51816(16) 0.4808(3)
O18_2 O 0.5200(3) 0.58710(19) 0.4033(3)
C12_2 C 0.0170(4) 0.2190(3) 0.2647(5)
C13_2 C 0.9801(4) 0.6413(2) 0.6383(4)
H7_2 H 0.672820 0.425100 0.528077
C14_2 C 0.5998(4) 0.6370(3) 0.4214(5)
H8_2 H 0.801278 0.512369 0.403273
H9_2 H 0.080420 0.221742 0.234084
C16_2 C 0.5775(4) 0.7097(3) 0.3487(5)
O22 O 0.9623(3) 0.40401(17) 0.4092(3)
N7_2 N 0.4749(4) 0.7186(3) 0.2707(5)
C18_2 C 0.6487(4) 0.7736(3) 0.3427(5)
N8_2 N 0.4781(4) 0.7887(3) 0.2185(6)
H11_2 H 0.724089 0.781291 0.385188
C19_2 C 0.5803(4) 0.8230(3) 0.2583(6)
H12_2 H 0.421999 0.809353 0.165940
C20_2 C 0.6044(4) 0.8970(3) 0.2013(5)
C5_2 C 0.9746(4) 0.2782(3) 0.3269(5)
N5_2 N 0.8819(4) 0.2522(2) 0.3584(4)
N6_2 N 0.8642(4) 0.1781(2) 0.3158(4)
C15_2 C 0.9433(4) 0.1559(3) 0.2592(5)
H10_2 H 0.809176 0.148083 0.323331
C17_2 C 0.9343(4) 0.0784(2) 0.1960(4)
loop_
_geom_bond_atom_site_label_1
_geom_bond_atom_site_label_2
_geom_bond_site_symmetry_1
_geom_bond_site_symmetry_2
Al4_3 O2 1_555 1_555
N5 C5 1_555 1_555
N6 N5 1_555 1_555
H10 N6 1_555 1_555
C17 C15 1_555 1_555
O26 C17 1_555 1_555
Al10 O26 1_555 1_555
N6 C15 1_555 1_555
Al3 O8 1_555 1_555
O8 H4 1_555 1_555
O18 Al3 1_555 1_555
C14 O15 1_555 1_555
Al4 O17 1_555 1_555
H8 O17 1_555 1_555
C16 C14 1_555 1_555
O23 Al4 1_555 1_555
N7 C16 1_555 1_555
C18 C16 1_555 1_555
N8 N7 1_555 1_555
H11 C18 1_555 1_555
C19 C18 1_555 1_555
H12 N8 1_555 1_555
C20 C19 1_555 1_555
O29 C20 1_555 1_555
O30 C20 1_555 1_555
Al12 O29 1_555 1_555
Al10 O30 1_555 1_555
O18 C14 1_555 1_555
N8 C19 1_555 1_555
Al9 O1 1_555 1_555
O5 Al6 1_555 1_555
O6 Al3_2 1_555 1_555
H3 C4 1_555 1_555
Al6 O13 1_555 1_555
O13 C13 1_555 1_555
C3 O7 1_555 1_555
O7 Al5 1_555 1_555
O12 Al5 1_555 1_555
O19 Al3_3 1_555 1_555
H9 C12 1_555 1_555
Al9_2 O25 1_555 1_555
O3 H1 1_555 1_555
O9 C6 1_555 1_555
O10 Al3_4 1_555 1_555
C6 O10 1_555 1_555
C7 C6 1_555 1_555
C8 C7 1_555 1_555
N3 C7 1_555 1_555
H5 C8 1_555 1_555
C9 C8 1_555 1_555
N4 N3 1_555 1_555
C10 C9 1_555 1_555
H6 N4 1_555 1_555
O14 Al3_4 1_555 1_555
H7 O14 1_555 1_555
Al8 O27 1_555 1_555
O27 C10 1_555 1_555
O28 C10 1_555 1_555
Al12 O28 1_555 1_555
O3 Al4_8 1_555 1_555
C9 N4 1_555 1_555
C1 O4 1_555 1_555
Al8 O4 1_555 1_555
C2 C1 1_555 1_555
N1 C2 1_555 1_555
H2 N1 1_555 1_555
N2 N1 1_555 1_555
N2 C11 1_555 1_555
Al4_6 O20 1_555 1_555
O21 Al4_8 1_555 1_555
C1_2 O16 1_555 1_555
C2_2 C1_2 1_555 1_555
N1_2 C2_2 1_555 1_555
H2_2 N1_2 1_555 1_555
N2_2 N1_2 1_555 1_555
O24 Al9 1_555 1_555
N2_2 C11_2 1_555 1_555
Al9 O20_2 1_555 1_555
O24 H1_2 1_555 1_555
C3_2 O7_2 1_555 1_555
Al12 O8_2 1_555 1_555
O7_2 Al10 1_555 1_555
O8_2 H4_2 1_555 1_555
O9_2 C6_2 1_555 1_555
H3_2 C4_2 1_555 1_555
O10_2 Al12 1_555 1_555
C6_2 O10_2 1_555 1_555
C7_2 C6_2 1_555 1_555
C8_2 C7_2 1_555 1_555
N3_2 C7_2 1_555 1_555
H5_2 C8_2 1_555 1_555
C9_2 C8_2 1_555 1_555
N4_2 N3_2 1_555 1_555
C10_2 C9_2 1_555 1_555
H6_2 N4_2 1_555 1_555
Al10 O24 1_555 1_555
Al8 O13_2 1_555 1_555
O13_2 C13_2 1_555 1_555
O14_2 Al12 1_555 1_555
O15_2 Al8 1_555 1_555
O17_2 Al8 1_555 1_555
O18_2 Al12 1_555 1_555
H7_2 O14_2 1_555 1_555
C14_2 O15_2 1_555 1_555
Al9_2 O17_2 1_555 1_555
H8_2 O17_2 1_555 1_555
H9_2 C12_2 1_555 1_555
C16_2 C14_2 1_555 1_555
O22 Al9_2 1_555 1_555
N7_2 C16_2 1_555 1_555
C18_2 C16_2 1_555 1_555
N8_2 N7_2 1_555 1_555
H11_2 C18_2 1_555 1_555
C19_2 C18_2 1_555 1_555
H12_2 N8_2 1_555 1_555
C20_2 C19_2 1_555 1_555
O5 C10_2 1_555 1_555
O6 C10_2 1_555 1_555
O19 C20_2 1_555 1_555
O12 C20_2 1_555 1_555
O8_2 Al10 1_555 1_555
O9_2 Al10 1_555 1_555
C9_2 N4_2 1_555 1_555
Al8 O14_2 1_555 1_555
O18_2 C14_2 1_555 1_555
N8_2 C19_2 1_555 1_555
N5_2 C5_2 1_555 1_555
N6_2 N5_2 1_555 1_555
H10_2 N6_2 1_555 1_555
C17_2 C15_2 1_555 1_555
O11 C17_2 1_555 1_555
N6_2 C15_2 1_555 1_555

#END
