
###############################################################################
#
# This file contains modified crystal structure data generated from the
# MOF subset of the Cambridge Structural Database (CSD) v543 
# hosted by the Cambridge Crystallographic Data Centre (CCDC).
#
# This work is licensed under the Creative Commons
# Attribution-NonCommercial-ShareAlike 4.0 International License.
# To view a copy of this license, visit
# http://creativecommons.org/licenses/by-nc-sa/4.0/
# or send a letter to
# Creative Commons, PO Box 1866, Mountain View, CA 94042, USA.
#
# CIF created using the CSD Python API on 29 September 2022
# The structure has been converted into the P1 space group
# The structure has a 3D framework
# The original CSD entry CAMWIA is in the monoclinic crystal system
# The framework has been calculated to contain at least 10.0% void space
# The void calculation uses a probe of radius 1.32A, grid spacing 0.4
#
###############################################################################

data_CAMWIA
_chemical_formula_moiety         '(C40 H23 Al15 N16 O39)n'
_symmetry_cell_setting           triclinic
_symmetry_space_group_name_H-M   'P 1'
_symmetry_Int_Tables_number      1
_space_group_name_Hall           'P 1'
loop_
_symmetry_equiv_pos_site_id
_symmetry_equiv_pos_as_xyz
1 x,y,z
_cell_length_a                   12.2156(13)
_cell_length_b                   16.6538(15)
_cell_length_c                   11.7544(15)
_cell_angle_alpha                90
_cell_angle_beta                 104.955(4)
_cell_angle_gamma                90
_cell_volume                     2310.27
loop_
_atom_site_label
_atom_site_type_symbol
_atom_site_fract_x
_atom_site_fract_y
_atom_site_fract_z
Al5 Al 0.000000 0.000000 0.000000
O14 O 0.0200(3) 0.0701(2) 0.1315(4)
Al6 Al 0.27297(10) 0.04747(8) 0.09221(14)
O17 O 0.2061(3) 0.0827(2) 0.2150(3)
O18 O 0.3848(2) 0.1261(2) 0.1551(3)
C16 C 0.4796(4) 0.1421(3) 0.1376(5)
Al7 Al 0.500000 0.000000 0.000000
O23 O 0.5377(3) 0.0958(2) 0.0915(4)
C17 C 0.5258(4) 0.2217(3) 0.1733(6)
C18 C 0.4837(4) 0.2813(3) 0.2358(5)
N7 N 0.6203(4) 0.2483(3) 0.1456(5)
C19 C 0.5590(4) 0.3441(3) 0.2454(5)
H11 H 0.419445 0.278807 0.264253
N8 N 0.6385(4) 0.3212(3) 0.1901(5)
C20 C 0.5683(4) 0.4211(3) 0.3085(5)
H12 H 0.694576 0.350842 0.184625
O29 O 0.4946(3) 0.4356(2) 0.3638(4)
O30 O 0.6503(3) 0.4658(2) 0.3036(3)
Al12 Al 0.500000 0.500000 0.500000
Al13 Al 0.72703(10) 0.54747(8) 0.40779(14)
Al1 Al -0.000000 0.500000 0.500000
O1 O 0.0200(3) 0.4299(2) 0.6315(4)
C1 C 0.1042(4) 0.3979(3) 0.6999(5)
Al2 Al 0.27297(10) 0.45253(8) 0.59221(14)
C2 C 0.0800(4) 0.3261(4) 0.7601(6)
O3 O 0.2061(3) 0.4173(2) 0.7150(3)
C3 C 0.1477(4) 0.2745(3) 0.8398(6)
C6 C 0.0755(4) 0.2122(4) 0.8504(6)
H3 H 0.224103 0.280170 0.877738
O10 O 0.4946(3) 0.0644(2) 0.8638(4)
Al5_2 Al -0.000000 0.000000 1.000000
O13 O 0.0183(3) 0.0892(2) 0.9066(4)
C12 C 0.0987(4) 0.1395(3) 0.9235(5)
O16 O 0.1941(3) 0.1330(2) 0.9941(3)
O19 O 0.3474(2) 0.01885(19) 0.9795(3)
Al7_2 Al 0.500000 0.000000 1.000000
H10 H 0.302199 0.013290 0.903064
Al5_3 Al 0.000000 1.000000 0.000000
O15 O 0.1530(2) 0.97853(19) 0.0353(3)
N5 N 0.0276(4) 0.7769(4) 0.2206(7)
H7 H 0.172443 0.925872 0.022799
N6 N 0.0243(4) 0.7066(4) 0.2732(7)
O20 O 0.3497(3) 0.9658(2) 0.1964(3)
H9 H 0.081255 0.684818 0.322121
Al7_3 Al 0.500000 1.000000 0.000000
O24 O 0.6526(2) 0.98115(19) 0.0205(3)
O26 O 0.5054(3) 0.9356(2) 0.1362(4)
Al5_4 Al -0.000000 1.000000 1.000000
Al7_4 Al 0.500000 1.000000 1.000000
O25 O 0.4623(3) 0.9042(2) 0.9085(4)
Al5_5 Al 1.000000 0.000000 0.000000
Al1_2 Al 1.000000 0.500000 0.500000
O2 O 0.6503(3) 0.0342(2) 0.8036(3)
O6 O 0.8470(2) 0.02147(19) 0.9647(3)
N1 N 0.9757(4) 0.2934(4) 0.7268(7)
H2 H 0.827557 0.074128 0.977201
N2 N 0.9724(4) 0.2231(4) 0.7794(7)
H4 H 0.918745 0.315182 0.677879
Al5_6 Al 1.000000 0.000000 1.000000
O4 O 0.8059(3) 0.8670(2) 0.0059(3)
C4 C 0.9013(4) 0.8605(3) 0.0765(5)
H1 H 0.697801 0.986710 0.096936
O9 O 0.9817(3) 0.9108(2) 0.0934(4)
Al5_7 Al 1.000000 1.000000 0.000000
C11 C 0.9245(4) 0.7878(4) 0.1496(6)
C13 C 0.8523(4) 0.7255(3) 0.1602(6)
C14 C 0.9200(4) 0.6739(4) 0.2399(6)
H8 H 0.775897 0.719830 0.122262
C15 C 0.8958(4) 0.6021(3) 0.3001(5)
O21 O 0.9800(3) 0.5701(2) 0.3685(4)
O22 O 0.7939(3) 0.5827(2) 0.2850(3)
O7 O 0.6152(2) 0.8739(2) 0.8449(3)
C5 C 0.5204(4) 0.8579(3) 0.8624(5)
C7 C 0.4742(4) 0.7783(3) 0.8267(6)
N3 N 0.3797(4) 0.7517(3) 0.8544(5)
C8 C 0.5163(4) 0.7187(3) 0.7642(5)
N4 N 0.3615(4) 0.6788(3) 0.8099(5)
C9 C 0.4410(4) 0.6559(3) 0.7546(5)
H5 H 0.580555 0.721193 0.735747
H6 H 0.305424 0.649158 0.815375
C10 C 0.4317(4) 0.5789(3) 0.6915(5)
Al4 Al 0.72703(10) 0.95253(8) 0.90779(14)
O11 O 0.7939(3) 0.9173(2) 0.7850(3)
Al5_8 Al 1.000000 1.000000 1.000000
O12 O 0.9800(3) 0.9299(2) 0.8685(4)
O27 O 0.3497(3) 0.5342(2) 0.6964(3)
O28 O 0.5054(3) 0.5644(2) 0.6362(4)
O4_2 O 0.1941(3) 0.3670(2) 0.4941(3)
O5 O 0.3474(2) 0.48115(19) 0.4795(3)
O6_2 O 0.1530(2) 0.52147(19) 0.5353(3)
O7_2 O 0.3848(2) 0.3739(2) 0.6551(3)
O8 O 0.5377(3) 0.4042(2) 0.5915(4)
N1_2 N 0.0243(4) 0.7934(4) 0.7732(7)
C4_2 C 0.0987(4) 0.3605(3) 0.4235(5)
H1_2 H 0.302199 0.486710 0.403064
H2_2 H 0.172443 0.574128 0.522799
C5_2 C 0.4796(4) 0.3579(3) 0.6376(5)
N2_2 N 0.0276(4) 0.7231(4) 0.7206(7)
H4_2 H 0.081255 0.815182 0.822121
O9_2 O 0.0183(3) 0.4108(2) 0.4066(4)
C7_2 C 0.5258(4) 0.2783(3) 0.6733(6)
N3_2 N 0.6203(4) 0.2517(3) 0.6456(5)
C8_2 C 0.4837(4) 0.2187(3) 0.7358(5)
N4_2 N 0.6385(4) 0.1788(3) 0.6901(5)
C9_2 C 0.5590(4) 0.1559(3) 0.7454(5)
H5_2 H 0.419445 0.221193 0.764253
H6_2 H 0.694576 0.149158 0.684625
C10_2 C 0.5683(4) 0.0789(3) 0.8085(5)
C11_2 C 0.0755(4) 0.2878(4) 0.3504(6)
C13_2 C 0.1477(4) 0.2255(3) 0.3398(6)
C14_2 C 0.0800(4) 0.1739(4) 0.2601(6)
H8_2 H 0.224103 0.219830 0.377738
C15_2 C 0.1042(4) 0.1021(3) 0.1999(5)
C1_2 C 0.8958(4) 0.8979(3) 0.8001(5)
C2_2 C 0.9200(4) 0.8261(4) 0.7399(6)
C3_2 C 0.8523(4) 0.7745(3) 0.6602(6)
C6_2 C 0.9245(4) 0.7122(4) 0.6496(6)
H3_2 H 0.775897 0.780170 0.622262
O13_2 O 0.9817(3) 0.5892(2) 0.5934(4)
O15_2 O 0.8470(2) 0.47853(19) 0.4647(3)
C12_2 C 0.9013(4) 0.6395(3) 0.5765(5)
N5_2 N 0.9724(4) 0.2769(4) 0.2794(7)
H7_2 H 0.827557 0.425872 0.477201
O16_2 O 0.8059(3) 0.6330(2) 0.5059(3)
N6_2 N 0.9757(4) 0.2066(4) 0.2268(7)
O18_2 O 0.6152(2) 0.6261(2) 0.3449(3)
O19_2 O 0.6526(2) 0.51885(19) 0.5205(3)
H9_2 H 0.918745 0.184818 0.177879
C16_2 C 0.5204(4) 0.6421(3) 0.3624(5)
H10_2 H 0.697801 0.513290 0.596936
O23_2 O 0.4623(3) 0.5958(2) 0.4085(4)
C17_2 C 0.4742(4) 0.7217(3) 0.3267(6)
C18_2 C 0.5163(4) 0.7813(3) 0.2642(5)
N7_2 N 0.3797(4) 0.7483(3) 0.3544(5)
C19_2 C 0.4410(4) 0.8441(3) 0.2546(5)
H11_2 H 0.580555 0.778807 0.235747
N8_2 N 0.3615(4) 0.8212(3) 0.3099(5)
C20_2 C 0.4317(4) 0.9211(3) 0.1915(5)
H12_2 H 0.305424 0.850842 0.315375
loop_
_geom_bond_atom_site_label_1
_geom_bond_atom_site_label_2
_geom_bond_site_symmetry_1
_geom_bond_site_symmetry_2
O14 Al5 1_555 1_555
O17 Al6 1_555 1_555
O18 Al6 1_555 1_555
C16 O18 1_555 1_555
O23 C16 1_555 1_555
C17 C16 1_555 1_555
C18 C17 1_555 1_555
N7 C17 1_555 1_555
C19 C18 1_555 1_555
H11 C18 1_555 1_555
N8 N7 1_555 1_555
C20 C19 1_555 1_555
H12 N8 1_555 1_555
O29 C20 1_555 1_555
O30 C20 1_555 1_555
Al12 O29 1_555 1_555
Al13 O30 1_555 1_555
Al7 O23 1_555 1_555
C19 N8 1_555 1_555
Al1 O1 1_555 1_555
O1 C1 1_555 1_555
C1 C2 1_555 1_555
Al2 O3 1_555 1_555
C2 C3 1_555 1_555
O3 C1 1_555 1_555
C3 C6 1_555 1_555
H3 C3 1_555 1_555
O10 Al7_2 1_555 1_555
O13 Al5_2 1_555 1_555
C12 C6 1_555 1_555
O16 C12 1_555 1_555
Al7_2 O19 1_555 1_555
H10 O19 1_555 1_555
O13 C12 1_555 1_555
O15 Al5_3 1_555 1_555
H7 O15 1_555 1_555
N6 N5 1_555 1_555
H9 N6 1_555 1_555
O24 Al7_3 1_555 1_555
O26 Al7_3 1_555 1_555
O25 Al7_4 1_555 1_555
O6 H2 1_555 1_555
N2 N1 1_555 1_555
H4 N1 1_555 1_555
Al5_6 O6 1_555 1_555
O4 C4 1_555 1_555
O24 H1 1_555 1_555
C4 O9 1_555 1_555
O9 Al5_7 1_555 1_555
C11 C4 1_555 1_555
C13 C11 1_555 1_555
C14 C13 1_555 1_555
H8 C13 1_555 1_555
C15 C14 1_555 1_555
O21 C15 1_555 1_555
O22 C15 1_555 1_555
Al13 O22 1_555 1_555
Al1_2 O21 1_555 1_555
O7 C5 1_555 1_555
C5 O25 1_555 1_555
C7 C5 1_555 1_555
N3 C7 1_555 1_555
C8 C7 1_555 1_555
N4 N3 1_555 1_555
C9 C8 1_555 1_555
H5 C8 1_555 1_555
H6 N4 1_555 1_555
C10 C9 1_555 1_555
O11 Al4 1_555 1_555
O12 Al5_8 1_555 1_555
O27 C10 1_555 1_555
O28 C10 1_555 1_555
Al2 O27 1_555 1_555
Al12 O28 1_555 1_555
O7 Al4 1_555 1_555
N4 C9 1_555 1_555
Al12 O5 1_555 1_555
O4_2 C4_2 1_555 1_555
O5 H1_2 1_555 1_555
O6_2 H2_2 1_555 1_555
O7_2 C5_2 1_555 1_555
O8 Al12 1_555 1_555
C4_2 O9_2 1_555 1_555
C5_2 O8 1_555 1_555
N2_2 N1_2 1_555 1_555
H4_2 N1_2 1_555 1_555
O9_2 Al1 1_555 1_555
C7_2 C5_2 1_555 1_555
N3_2 C7_2 1_555 1_555
C8_2 C7_2 1_555 1_555
N4_2 N3_2 1_555 1_555
C9_2 C8_2 1_555 1_555
H5_2 C8_2 1_555 1_555
H6_2 N4_2 1_555 1_555
C10_2 C9_2 1_555 1_555
Al2 O4_2 1_555 1_555
Al1 O6_2 1_555 1_555
C11_2 C4_2 1_555 1_555
C13_2 C11_2 1_555 1_555
C14_2 C13_2 1_555 1_555
H8_2 C13_2 1_555 1_555
C15_2 C14_2 1_555 1_555
O14 C15_2 1_555 1_555
O17 C15_2 1_555 1_555
O2 C10_2 1_555 1_555
O10 C10_2 1_555 1_555
O5 Al2 1_555 1_555
O6_2 Al2 1_555 1_555
O7_2 Al2 1_555 1_555
N4_2 C9_2 1_555 1_555
O12 C1_2 1_555 1_555
C1_2 C2_2 1_555 1_555
C2_2 C3_2 1_555 1_555
O11 C1_2 1_555 1_555
C3_2 C6_2 1_555 1_555
H3_2 C3_2 1_555 1_555
O13_2 Al1_2 1_555 1_555
O15_2 Al1_2 1_555 1_555
C12_2 C6_2 1_555 1_555
Al13 O15_2 1_555 1_555
H7_2 O15_2 1_555 1_555
O16_2 C12_2 1_555 1_555
N6_2 N5_2 1_555 1_555
O18_2 Al13 1_555 1_555
O19_2 Al13 1_555 1_555
H9_2 N6_2 1_555 1_555
C16_2 O18_2 1_555 1_555
Al12 O19_2 1_555 1_555
H10_2 O19_2 1_555 1_555
O23_2 C16_2 1_555 1_555
C17_2 C16_2 1_555 1_555
C18_2 C17_2 1_555 1_555
N7_2 C17_2 1_555 1_555
C19_2 C18_2 1_555 1_555
H11_2 C18_2 1_555 1_555
N8_2 N7_2 1_555 1_555
C20_2 C19_2 1_555 1_555
H12_2 N8_2 1_555 1_555
O26 C20_2 1_555 1_555
O20 C20_2 1_555 1_555
O13_2 C12_2 1_555 1_555
Al13 O16_2 1_555 1_555
Al12 O23_2 1_555 1_555
C19_2 N8_2 1_555 1_555

#END
