
###############################################################################
#
# This file contains modified crystal structure data generated from the
# MOF subset of the Cambridge Structural Database (CSD) v543 
# hosted by the Cambridge Crystallographic Data Centre (CCDC).
#
# This work is licensed under the Creative Commons
# Attribution-NonCommercial-ShareAlike 4.0 International License.
# To view a copy of this license, visit
# http://creativecommons.org/licenses/by-nc-sa/4.0/
# or send a letter to
# Creative Commons, PO Box 1866, Mountain View, CA 94042, USA.
#
# CIF created using the CSD Python API on 29 September 2022
# The structure has been converted into the P1 space group
# The structure has a 3D framework
# The original CSD entry CAMWOG is in the monoclinic crystal system
# The framework has been calculated to contain at least 10.0% void space
# The void calculation uses a probe of radius 1.32A, grid spacing 0.4
#
###############################################################################

data_CAMWOG
_chemical_formula_moiety         '(C40 H23 Al15 N16 O39)n'
_symmetry_cell_setting           triclinic
_symmetry_space_group_name_H-M   'P 1'
_symmetry_Int_Tables_number      1
_space_group_name_Hall           'P 1'
loop_
_symmetry_equiv_pos_site_id
_symmetry_equiv_pos_as_xyz
1 x,y,z
_cell_length_a                   12.38(2)
_cell_length_b                   15.04(2)
_cell_length_c                   14.04(4)
_cell_angle_alpha                90
_cell_angle_beta                 102.75(6)
_cell_angle_gamma                90
_cell_volume                     2549.72
loop_
_atom_site_label
_atom_site_type_symbol
_atom_site_fract_x
_atom_site_fract_y
_atom_site_fract_z
Al6 Al -0.000000 0.000000 -0.000000
Al9 Al 0.500000 0.000000 -0.000000
Al6_2 Al 0.000000 0.000000 1.000000
Al9_2 Al 0.500000 0.000000 1.000000
Al11 Al 0.7343(8) 0.0607(5) 0.9406(8)
Al6_3 Al 0.000000 1.000000 -0.000000
Al9_3 Al 0.500000 1.000000 -0.000000
Al13 Al 0.2657(8) 0.9393(5) 0.0594(8)
Al1 Al 0.000000 0.500000 0.500000
Al2 Al 0.500000 0.500000 0.500000
Al3 Al 0.2657(8) 0.5607(5) 0.5594(8)
O1 O 0.1525(16) 0.4819(9) 0.5173(13)
H1 H 0.173744 0.425158 0.502494
O2 O 0.3460(16) 0.5228(9) 0.4780(14)
H2 H 0.306533 0.512532 0.414549
O3 O 0.5331(18) 0.6110(11) 0.5705(15)
O4 O 0.5069(18) 0.9339(10) 0.8851(16)
O5 O 0.372(2) 0.6475(10) 0.6150(16)
O6 O 0.6684(17) 0.9781(10) 0.8404(15)
O7 O 0.193(2) 0.6061(11) 0.6538(16)
O8 O 0.1982(19) 0.8493(10) 0.9751(16)
O9 O 0.0200(19) 0.5531(11) 0.6261(16)
O10 O 0.012(2) 0.8816(12) 0.9446(16)
C1 C 0.088(2) 0.6027(14) 0.676(2)
C2 C 0.569(3) 0.8570(16) 0.763(2)
C3 C 0.582(3) 0.9293(15) 0.833(2)
N1 N 0.644(3) 0.8404(16) 0.712(2)
H3 H 0.700696 0.874549 0.714978
C4 C 0.071(3) 0.6583(16) 0.750(2)
N3 N 0.629(3) 0.7667(17) 0.654(3)
C5 C 0.525(3) 0.7396(18) 0.663(3)
C6 C 0.134(3) 0.7159(15) 0.814(2)
H5 H 0.210194 0.722495 0.820170
C7 C 0.471(3) 0.6605(17) 0.613(2)
C8 C 0.095(3) 0.8353(17) 0.933(3)
C9 C 0.074(3) 0.763(2) 0.867(3)
C10 C 0.486(3) 0.8009(17) 0.728(3)
H6 H 0.416517 0.800982 0.743533
N6 N 0.035(3) 0.3391(16) 0.235(2)
N8 N 0.034(3) 0.2749(13) 0.161(2)
H10 H 0.089861 0.260941 0.137179
Al6_4 Al 0.000000 1.000000 1.000000
Al9_4 Al 0.500000 1.000000 1.000000
O21 O 0.6540(16) 0.4772(9) 0.5220(14)
O22 O 0.4669(18) 0.3890(11) 0.4295(15)
O23 O 0.4931(18) 0.4339(10) 0.6149(16)
O24 O 0.5069(18) 0.5661(10) 0.3851(16)
O25 O 0.3316(17) 0.4781(10) 0.6596(15)
O28 O 0.1982(19) 0.6507(10) 0.4751(16)
O30 O 0.012(2) 0.6184(12) 0.4446(16)
Al6_5 Al 1.000000 0.000000 -0.000000
Al6_6 Al 1.000000 0.000000 1.000000
Al6_7 Al 1.000000 1.000000 -0.000000
Al1_2 Al 1.000000 0.500000 0.500000
N2 N 0.965(3) 0.6609(16) 0.765(2)
N4 N 0.966(3) 0.7251(13) 0.839(2)
H4 H 0.910139 0.739059 0.862821
Al4 Al 0.7343(8) 0.4393(5) 0.4406(8)
O11 O 0.8475(16) 0.5181(9) 0.4827(13)
H7 H 0.826256 0.574842 0.497506
H8 H 0.693467 0.487468 0.585451
O14 O 0.4931(18) 0.0661(10) 0.1149(16)
O15 O 0.628(2) 0.3525(10) 0.3850(16)
O16 O 0.3316(17) 0.0219(10) 0.1596(15)
O17 O 0.807(2) 0.3939(11) 0.3462(16)
O18 O 0.8018(19) 0.1507(10) 0.0249(16)
O19 O 0.9800(19) 0.4469(11) 0.3739(16)
O20 O 0.988(2) 0.1184(12) 0.0554(16)
C11 C 0.912(2) 0.3973(14) 0.324(2)
C12 C 0.431(3) 0.1430(16) 0.237(2)
C13 C 0.418(3) 0.0707(15) 0.167(2)
N5 N 0.356(3) 0.1596(16) 0.288(2)
H9 H 0.299304 0.125451 0.285022
C14 C 0.929(3) 0.3417(16) 0.250(2)
N7 N 0.371(3) 0.2333(17) 0.346(3)
C15 C 0.475(3) 0.2604(18) 0.337(3)
C16 C 0.866(3) 0.2841(15) 0.186(2)
H11 H 0.789806 0.277505 0.179830
C17 C 0.529(3) 0.3395(17) 0.387(2)
C18 C 0.905(3) 0.1647(17) 0.067(3)
C19 C 0.926(3) 0.237(2) 0.133(3)
C20 C 0.514(3) 0.1991(17) 0.272(3)
H12 H 0.583483 0.199018 0.256467
Al6_8 Al 1.000000 1.000000 1.000000
O26 O 0.6684(17) 0.5219(10) 0.3404(15)
O27 O 0.8018(19) 0.3493(10) 0.5249(16)
O29 O 0.988(2) 0.3816(12) 0.5554(16)
O11_2 O 0.1525(16) 0.0181(9) 0.0173(13)
H7_2 H 0.173744 0.074842 0.002494
N2_2 N 0.035(3) 0.1609(16) 0.735(2)
N4_2 N 0.034(3) 0.2251(13) 0.661(2)
H4_2 H 0.089861 0.239059 0.637179
O13 O 0.5331(18) 0.8890(11) 0.0705(15)
O15_2 O 0.372(2) 0.8525(10) 0.1150(16)
O17_2 O 0.193(2) 0.8939(11) 0.1538(16)
O19_2 O 0.0200(19) 0.9469(11) 0.1261(16)
C11_2 C 0.088(2) 0.8973(14) 0.176(2)
C12_2 C 0.569(3) 0.6430(16) 0.263(2)
C13_2 C 0.582(3) 0.5707(15) 0.333(2)
N5_2 N 0.644(3) 0.6596(16) 0.212(2)
H9_2 H 0.700696 0.625451 0.214978
C14_2 C 0.071(3) 0.8417(16) 0.250(2)
N7_2 N 0.629(3) 0.7333(17) 0.154(3)
C15_2 C 0.525(3) 0.7604(18) 0.163(3)
C16_2 C 0.134(3) 0.7841(15) 0.314(2)
H11_2 H 0.210194 0.777505 0.320170
C17_2 C 0.471(3) 0.8395(17) 0.113(2)
C18_2 C 0.095(3) 0.6647(17) 0.433(3)
C19_2 C 0.074(3) 0.737(2) 0.367(3)
C20_2 C 0.486(3) 0.6991(17) 0.228(3)
H12_2 H 0.416517 0.699018 0.243533
O12 O 0.3460(16) 0.9772(9) 0.9780(14)
H8_2 H 0.306533 0.987468 0.914549
O2_2 O 0.6540(16) 0.0228(9) 0.0220(14)
H2_2 H 0.693467 0.012532 0.085451
O3_2 O 0.4669(18) 0.1110(11) 0.9295(15)
O5_2 O 0.628(2) 0.1475(10) 0.8850(16)
O7_2 O 0.807(2) 0.1061(11) 0.8462(16)
O9_2 O 0.9800(19) 0.0531(11) 0.8739(16)
C1_2 C 0.912(2) 0.1027(14) 0.824(2)
C2_2 C 0.431(3) 0.3570(16) 0.737(2)
C3_2 C 0.418(3) 0.4293(15) 0.667(2)
N1_2 N 0.356(3) 0.3404(16) 0.788(2)
H3_2 H 0.299304 0.374549 0.785022
C4_2 C 0.929(3) 0.1583(16) 0.750(2)
N3_2 N 0.371(3) 0.2667(17) 0.846(3)
C5_2 C 0.475(3) 0.2396(18) 0.837(3)
C6_2 C 0.866(3) 0.2159(15) 0.686(2)
H5_2 H 0.789806 0.222495 0.679830
C7_2 C 0.529(3) 0.1605(17) 0.887(2)
C8_2 C 0.905(3) 0.3353(17) 0.567(3)
C9_2 C 0.926(3) 0.263(2) 0.633(3)
C10_2 C 0.514(3) 0.3009(17) 0.772(3)
H6_2 H 0.583483 0.300982 0.756467
N6_2 N 0.965(3) 0.8391(16) 0.265(2)
N8_2 N 0.966(3) 0.7749(13) 0.339(2)
H10_2 H 0.910139 0.760941 0.362821
O1_2 O 0.8475(16) 0.9819(9) 0.9827(13)
H1_2 H 0.826256 0.925158 0.997506
loop_
_geom_bond_atom_site_label_1
_geom_bond_atom_site_label_2
_geom_bond_site_symmetry_1
_geom_bond_site_symmetry_2
Al1 O1 1_555 1_555
Al2 O2 1_555 1_555
Al3 O1 1_555 1_555
O1 H1 1_555 1_555
O2 Al3 1_555 1_555
H2 O2 1_555 1_555
O3 Al2 1_555 1_555
O4 C3 1_555 1_555
O5 Al3 1_555 1_555
O6 C3 1_555 1_555
O7 Al3 1_555 1_555
O8 C8 1_555 1_555
O9 Al1 1_555 1_555
O10 C8 1_555 1_555
C1 O7 1_555 1_555
C2 C3 1_555 1_555
N1 C2 1_555 1_555
H3 N1 1_555 1_555
C4 C1 1_555 1_555
N3 N1 1_555 1_555
C5 N3 1_555 1_555
C6 C4 1_555 1_555
H5 C6 1_555 1_555
C7 O3 1_555 1_555
C8 C9 1_555 1_555
C10 C2 1_555 1_555
H6 C10 1_555 1_555
N8 N6 1_555 1_555
H10 N8 1_555 1_555
Al6_4 O10 1_555 1_555
Al9_4 O4 1_555 1_555
O21 Al2 1_555 1_555
O22 Al2 1_555 1_555
O23 Al2 1_555 1_555
O24 Al2 1_555 1_555
O25 Al3 1_555 1_555
O28 Al3 1_555 1_555
O30 Al1 1_555 1_555
O5 C7 1_555 1_555
O9 C1 1_555 1_555
C5 C7 1_555 1_555
C5 C10 1_555 1_555
C6 C9 1_555 1_555
N4 N2 1_555 1_555
H4 N4 1_555 1_555
Al4 O11 1_555 1_555
O11 Al1_2 1_555 1_555
H7 O11 1_555 1_555
O21 Al4 1_555 1_555
H8 O21 1_555 1_555
O22 C17 1_555 1_555
O14 C13 1_555 1_555
O15 Al4 1_555 1_555
O16 C13 1_555 1_555
O17 Al4 1_555 1_555
O18 C18 1_555 1_555
O19 Al1_2 1_555 1_555
O20 C18 1_555 1_555
C11 O17 1_555 1_555
C12 C13 1_555 1_555
N5 C12 1_555 1_555
H9 N5 1_555 1_555
C14 C11 1_555 1_555
N7 N5 1_555 1_555
C15 N7 1_555 1_555
C16 C14 1_555 1_555
H11 C16 1_555 1_555
C17 O15 1_555 1_555
C18 C19 1_555 1_555
C20 C12 1_555 1_555
H12 C20 1_555 1_555
Al6_5 O20 1_555 1_555
Al9 O14 1_555 1_555
O26 Al4 1_555 1_555
O27 Al4 1_555 1_555
O29 Al1_2 1_555 1_555
O19 C11 1_555 1_555
C15 C17 1_555 1_555
C15 C20 1_555 1_555
C16 C19 1_555 1_555
O11_2 Al6 1_555 1_555
H7_2 O11_2 1_555 1_555
N4_2 N2_2 1_555 1_555
H4_2 N4_2 1_555 1_555
O13 C17_2 1_555 1_555
O24 C13_2 1_555 1_555
O15_2 Al13 1_555 1_555
O26 C13_2 1_555 1_555
O17_2 Al13 1_555 1_555
O28 C18_2 1_555 1_555
O19_2 Al6_3 1_555 1_555
O30 C18_2 1_555 1_555
C11_2 O17_2 1_555 1_555
C12_2 C13_2 1_555 1_555
N5_2 C12_2 1_555 1_555
H9_2 N5_2 1_555 1_555
C14_2 C11_2 1_555 1_555
N7_2 N5_2 1_555 1_555
C15_2 N7_2 1_555 1_555
C16_2 C14_2 1_555 1_555
H11_2 C16_2 1_555 1_555
C17_2 O15_2 1_555 1_555
C18_2 C19_2 1_555 1_555
C20_2 C12_2 1_555 1_555
H12_2 C20_2 1_555 1_555
O13 Al9_3 1_555 1_555
O19_2 C11_2 1_555 1_555
C15_2 C17_2 1_555 1_555
C15_2 C20_2 1_555 1_555
C16_2 C19_2 1_555 1_555
H8_2 O12 1_555 1_555
Al9_4 O12 1_555 1_555
Al9 O2_2 1_555 1_555
H2_2 O2_2 1_555 1_555
O3_2 Al9_2 1_555 1_555
O23 C3_2 1_555 1_555
O5_2 Al11 1_555 1_555
O25 C3_2 1_555 1_555
O7_2 Al11 1_555 1_555
O27 C8_2 1_555 1_555
O9_2 Al6_6 1_555 1_555
O29 C8_2 1_555 1_555
C1_2 O7_2 1_555 1_555
C2_2 C3_2 1_555 1_555
N1_2 C2_2 1_555 1_555
H3_2 N1_2 1_555 1_555
C4_2 C1_2 1_555 1_555
N3_2 N1_2 1_555 1_555
C5_2 N3_2 1_555 1_555
C6_2 C4_2 1_555 1_555
H5_2 C6_2 1_555 1_555
C7_2 O3_2 1_555 1_555
C8_2 C9_2 1_555 1_555
C10_2 C2_2 1_555 1_555
H6_2 C10_2 1_555 1_555
O5_2 C7_2 1_555 1_555
O9_2 C1_2 1_555 1_555
C5_2 C7_2 1_555 1_555
C5_2 C10_2 1_555 1_555
C6_2 C9_2 1_555 1_555
N8_2 N6_2 1_555 1_555
H10_2 N8_2 1_555 1_555
Al6_8 O1_2 1_555 1_555
O1_2 H1_2 1_555 1_555

#END
