
###############################################################################
#
# This file contains modified crystal structure data generated from the
# MOF subset of the Cambridge Structural Database (CSD) v543 
# hosted by the Cambridge Crystallographic Data Centre (CCDC).
#
# This work is licensed under the Creative Commons
# Attribution-NonCommercial-ShareAlike 4.0 International License.
# To view a copy of this license, visit
# http://creativecommons.org/licenses/by-nc-sa/4.0/
# or send a letter to
# Creative Commons, PO Box 1866, Mountain View, CA 94042, USA.
#
# CIF created using the CSD Python API on 29 September 2022
# The structure has been converted into the P1 space group
# The structure has a 3D framework
# The original CSD entry CAMXUN is in the monoclinic crystal system
# The framework has been calculated to contain at least 10.0% void space
# The void calculation uses a probe of radius 1.32A, grid spacing 0.4
#
###############################################################################

data_CAMXUN
_chemical_formula_moiety         '(C40 H23 Al14 N16 O39)n'
_symmetry_cell_setting           triclinic
_symmetry_space_group_name_H-M   'P 1'
_symmetry_Int_Tables_number      1
_space_group_name_Hall           'P 1'
loop_
_symmetry_equiv_pos_site_id
_symmetry_equiv_pos_as_xyz
1 x,y,z
_cell_length_a                   12.2450(9)
_cell_length_b                   15.6030(11)
_cell_length_c                   13.1626(10)
_cell_angle_alpha                90
_cell_angle_beta                 103.470(3)
_cell_angle_gamma                90
_cell_volume                     2445.65
loop_
_atom_site_label
_atom_site_type_symbol
_atom_site_fract_x
_atom_site_fract_y
_atom_site_fract_z
Al13 Al -0.000000 -0.000000 0.000000
Al13_2 Al -0.000000 -0.000000 1.000000
Al3 Al -0.000000 0.500000 0.500000
N3 N 0.0393(4) 0.7604(4) 0.1971(5)
N4 N 0.0348(4) 0.6953(4) 0.2600(5)
H6 H 0.092454 0.672340 0.300933
Al13_3 Al -0.000000 1.000000 0.000000
O21 O 0.1508(2) 0.51798(18) 0.5223(3)
O28 O 0.0166(3) 0.4367(3) 0.6247(3)
O29 O 0.0118(3) 0.3968(2) 0.4290(3)
Al13_4 Al -0.000000 1.000000 1.000000
Al6 Al 0.500000 -0.000000 0.000000
Al8 Al 0.26665(11) 0.05657(8) 0.07046(11)
Al13_5 Al 1.000000 -0.000000 0.000000
Al6_2 Al 0.500000 -0.000000 1.000000
Al13_6 Al 1.000000 -0.000000 1.000000
Al1 Al 0.500000 0.500000 0.500000
Al2 Al 0.73335(11) 0.55657(8) 0.42954(11)
Al3_2 Al 1.000000 0.500000 0.500000
O1 O 0.6516(2) 0.52230(18) 0.5241(2)
H1 H 0.692274 0.515441 0.592731
O2 O 0.3767(3) 0.36028(18) 0.6262(3)
O3 O 0.8492(2) 0.48202(18) 0.4777(3)
H2 H 0.828146 0.427138 0.493077
O4 O 0.8018(3) 0.5991(2) 0.3249(3)
O5 O 0.5356(3) 0.39925(19) 0.5823(3)
O6 O 0.5050(3) 0.0676(2) 0.8810(3)
O7 O 0.8070(3) 0.85739(19) 0.0248(3)
O8 O 0.6612(3) 0.0280(2) 0.8328(3)
O9 O 0.9834(3) 0.5633(3) 0.3753(3)
O10 O 0.9882(3) 0.8968(2) 0.0710(3)
C1 C 0.4762(4) 0.3498(3) 0.6229(4)
N1 N 0.6327(4) 0.2482(3) 0.6673(5)
C2 C 0.9078(4) 0.8494(3) 0.0758(4)
C3 C 0.5799(4) 0.0768(3) 0.8311(4)
C4 C 0.4872(4) 0.2129(3) 0.7350(4)
H3 H 0.417376 0.213935 0.751443
C5 C 0.5302(4) 0.2713(3) 0.6740(5)
C6 C 0.9021(5) 0.6045(3) 0.3214(4)
N2 N 0.6563(4) 0.1767(3) 0.7236(5)
H4 H 0.718586 0.149187 0.732066
C7 C 0.8595(4) 0.7219(3) 0.1795(4)
H5 H 0.781684 0.719630 0.157046
C8 C 0.5717(5) 0.1531(3) 0.7653(5)
C9 C 0.9283(5) 0.6697(4) 0.2516(5)
C10 C 0.9318(4) 0.7779(4) 0.1485(5)
Al4 Al 0.26665(11) 0.44343(8) 0.57046(11)
O11 O 0.3484(2) 0.47770(18) 0.4759(2)
H7 H 0.307726 0.484559 0.407269
O12 O 0.6233(3) 0.63972(18) 0.3738(3)
H8 H 0.171854 0.572862 0.506923
O14 O 0.1982(3) 0.4009(2) 0.6751(3)
O15 O 0.4644(3) 0.60075(19) 0.4177(3)
O16 O 0.4950(3) 0.9324(2) 0.1190(3)
O17 O 0.1930(3) 0.14261(19) 0.9752(3)
O18 O 0.3388(3) 0.9720(2) 0.1672(3)
O20 O 0.0118(3) 0.1032(2) 0.9290(3)
C11 C 0.5238(4) 0.6502(3) 0.3771(4)
N5 N 0.3673(4) 0.7518(3) 0.3327(5)
C12 C 0.0922(4) 0.1506(3) 0.9242(4)
C13 C 0.4201(4) 0.9232(3) 0.1689(4)
C14 C 0.5128(4) 0.7871(3) 0.2650(4)
H9 H 0.582624 0.786065 0.248557
C15 C 0.4698(4) 0.7287(3) 0.3260(5)
C16 C 0.0979(5) 0.3955(3) 0.6786(4)
N6 N 0.3437(4) 0.8233(3) 0.2764(5)
H10 H 0.281414 0.850813 0.267934
C17 C 0.1405(4) 0.2781(3) 0.8205(4)
H11 H 0.218316 0.280370 0.842954
C18 C 0.4283(5) 0.8469(3) 0.2347(5)
C19 C 0.0717(5) 0.3303(4) 0.7484(5)
C20 C 0.0682(4) 0.2221(4) 0.8515(5)
Al6_3 Al 0.500000 1.000000 0.000000
Al13_7 Al 1.000000 1.000000 0.000000
O22 O 0.4950(3) 0.5676(2) 0.6190(3)
O23 O 0.5050(3) 0.4324(2) 0.3810(3)
O24 O 0.1930(3) 0.35739(19) 0.4752(3)
O25 O 0.8070(3) 0.64261(19) 0.5248(3)
O26 O 0.3388(3) 0.5280(2) 0.6672(3)
O27 O 0.6612(3) 0.4720(2) 0.3328(3)
O30 O 0.9882(3) 0.6032(2) 0.5710(3)
Al6_4 Al 0.500000 1.000000 1.000000
Al10 Al 0.73335(11) 0.94343(8) 0.92954(11)
Al13_8 Al 1.000000 1.000000 1.000000
N7 N 0.9607(4) 0.2396(4) 0.8029(5)
N8 N 0.9652(4) 0.3047(4) 0.7400(5)
H12 H 0.907546 0.327660 0.699067
N7_2 N 0.0393(4) 0.7396(4) 0.6971(5)
N8_2 N 0.0348(4) 0.8047(4) 0.7600(5)
H12_2 H 0.092454 0.827660 0.800933
O4_2 O 0.1982(3) 0.0991(2) 0.1751(3)
O9_2 O 0.0166(3) 0.0633(3) 0.1247(3)
C2_2 C 0.0922(4) 0.3494(3) 0.4242(4)
C6_2 C 0.0979(5) 0.1045(3) 0.1786(4)
C7_2 C 0.1405(4) 0.2219(3) 0.3205(4)
H5_2 H 0.218316 0.219630 0.342954
C9_2 C 0.0717(5) 0.1697(4) 0.2484(5)
C10_2 C 0.0682(4) 0.2779(4) 0.3515(5)
O12_2 O 0.3767(3) 0.13972(18) 0.1262(3)
O15_2 O 0.5356(3) 0.10075(19) 0.0823(3)
C11_2 C 0.4762(4) 0.1502(3) 0.1229(4)
N5_2 N 0.6327(4) 0.2518(3) 0.1673(5)
C13_2 C 0.5799(4) 0.4232(3) 0.3311(4)
C14_2 C 0.4872(4) 0.2871(3) 0.2350(4)
H9_2 H 0.417376 0.286065 0.251443
C15_2 C 0.5302(4) 0.2287(3) 0.1740(5)
N6_2 N 0.6563(4) 0.3233(3) 0.2236(5)
H10_2 H 0.718586 0.350813 0.232066
C18_2 C 0.5717(5) 0.3469(3) 0.2653(5)
O1_2 O 0.3484(2) 0.02230(18) 0.9759(2)
H1_2 H 0.307726 0.015441 0.907269
O13 O 0.8492(2) 0.01798(18) 0.9777(3)
H8_2 H 0.828146 0.072862 0.993077
O3_2 O 0.1508(2) 0.98202(18) 0.0223(3)
H2_2 H 0.171854 0.927138 0.006923
O11_2 O 0.6516(2) 0.97770(18) 0.0241(2)
H7_2 H 0.692274 0.984559 0.092731
O2_2 O 0.6233(3) 0.86028(18) 0.8738(3)
O5_2 O 0.4644(3) 0.89925(19) 0.9177(3)
C1_2 C 0.5238(4) 0.8498(3) 0.8771(4)
N1_2 N 0.3673(4) 0.7482(3) 0.8327(5)
C3_2 C 0.4201(4) 0.5768(3) 0.6689(4)
C4_2 C 0.5128(4) 0.7129(3) 0.7650(4)
H3_2 H 0.582624 0.713935 0.748557
C5_2 C 0.4698(4) 0.7713(3) 0.8260(5)
N2_2 N 0.3437(4) 0.6767(3) 0.7764(5)
H4_2 H 0.281414 0.649187 0.767934
C8_2 C 0.4283(5) 0.6531(3) 0.7347(5)
O14_2 O 0.8018(3) 0.9009(2) 0.8249(3)
O19 O 0.9834(3) 0.9367(3) 0.8753(3)
C12_2 C 0.9078(4) 0.6506(3) 0.5758(4)
C16_2 C 0.9021(5) 0.8955(3) 0.8214(4)
C17_2 C 0.8595(4) 0.7781(3) 0.6795(4)
H11_2 H 0.781684 0.780370 0.657046
C19_2 C 0.9283(5) 0.8303(4) 0.7516(5)
C20_2 C 0.9318(4) 0.7221(4) 0.6485(5)
N3_2 N 0.9607(4) 0.2604(4) 0.3029(5)
N4_2 N 0.9652(4) 0.1953(4) 0.2400(5)
H6_2 H 0.907546 0.172340 0.199067
loop_
_geom_bond_atom_site_label_1
_geom_bond_atom_site_label_2
_geom_bond_site_symmetry_1
_geom_bond_site_symmetry_2
H6 N4 1_555 1_555
O21 Al3 1_555 1_555
O28 Al3 1_555 1_555
O29 Al3 1_555 1_555
N3 N4 1_555 1_555
Al1 O1 1_555 1_555
Al2 O1 1_555 1_555
Al3_2 O3 1_555 1_555
O1 H1 1_555 1_555
O2 C1 1_555 1_555
O3 Al2 1_555 1_555
H2 O3 1_555 1_555
O4 Al2 1_555 1_555
O5 Al1 1_555 1_555
O6 C3 1_555 1_555
O7 C2 1_555 1_555
O8 C3 1_555 1_555
O9 Al3_2 1_555 1_555
O10 C2 1_555 1_555
C1 O5 1_555 1_555
N1 C5 1_555 1_555
C2 C10 1_555 1_555
C3 C8 1_555 1_555
C4 H3 1_555 1_555
C5 C1 1_555 1_555
C6 O4 1_555 1_555
N2 N1 1_555 1_555
H4 N2 1_555 1_555
C7 H5 1_555 1_555
C8 C4 1_555 1_555
C9 C6 1_555 1_555
C10 C7 1_555 1_555
Al4 O2 1_555 1_555
O11 Al1 1_555 1_555
H7 O11 1_555 1_555
O12 Al2 1_555 1_555
O21 Al4 1_555 1_555
H8 O21 1_555 1_555
O14 Al4 1_555 1_555
O15 Al1 1_555 1_555
O16 C13 1_555 1_555
O17 C12 1_555 1_555
O18 C13 1_555 1_555
O28 C16 1_555 1_555
O20 C12 1_555 1_555
C11 O12 1_555 1_555
N5 C15 1_555 1_555
C12 C20 1_555 1_555
C13 C18 1_555 1_555
C14 H9 1_555 1_555
C15 C11 1_555 1_555
C16 O14 1_555 1_555
N6 N5 1_555 1_555
H10 N6 1_555 1_555
C17 H11 1_555 1_555
C18 C14 1_555 1_555
C19 C16 1_555 1_555
C20 C17 1_555 1_555
Al6_2 O6 1_555 1_555
Al6_3 O16 1_555 1_555
Al13_2 O20 1_555 1_555
Al13_7 O10 1_555 1_555
O22 Al1 1_555 1_555
O23 Al1 1_555 1_555
O24 Al4 1_555 1_555
O25 Al2 1_555 1_555
O26 Al4 1_555 1_555
O27 Al2 1_555 1_555
O30 Al3_2 1_555 1_555
O9 C6 1_555 1_555
C4 C5 1_555 1_555
N2 C8 1_555 1_555
C7 C9 1_555 1_555
Al4 O11 1_555 1_555
O15 C11 1_555 1_555
C14 C15 1_555 1_555
N6 C18 1_555 1_555
C17 C19 1_555 1_555
H12 N8 1_555 1_555
N7 N8 1_555 1_555
H12_2 N8_2 1_555 1_555
N7_2 N8_2 1_555 1_555
O4_2 Al8 1_555 1_555
O24 C2_2 1_555 1_555
O9_2 Al13 1_555 1_555
O29 C2_2 1_555 1_555
C2_2 C10_2 1_555 1_555
C6_2 O4_2 1_555 1_555
C7_2 H5_2 1_555 1_555
C9_2 C6_2 1_555 1_555
C10_2 C7_2 1_555 1_555
O12_2 Al8 1_555 1_555
O15_2 Al6 1_555 1_555
O23 C13_2 1_555 1_555
O27 C13_2 1_555 1_555
C11_2 O12_2 1_555 1_555
N5_2 C15_2 1_555 1_555
C13_2 C18_2 1_555 1_555
C14_2 H9_2 1_555 1_555
C15_2 C11_2 1_555 1_555
N6_2 N5_2 1_555 1_555
H10_2 N6_2 1_555 1_555
C18_2 C14_2 1_555 1_555
O9_2 C6_2 1_555 1_555
C7_2 C9_2 1_555 1_555
O15_2 C11_2 1_555 1_555
C14_2 C15_2 1_555 1_555
N6_2 C18_2 1_555 1_555
Al6_2 O1_2 1_555 1_555
O1_2 H1_2 1_555 1_555
H8_2 O13 1_555 1_555
Al13_6 O13 1_555 1_555
Al13_3 O3_2 1_555 1_555
H2_2 O3_2 1_555 1_555
O11_2 Al6_3 1_555 1_555
H7_2 O11_2 1_555 1_555
O2_2 C1_2 1_555 1_555
O5_2 Al6_4 1_555 1_555
O22 C3_2 1_555 1_555
O26 C3_2 1_555 1_555
C1_2 O5_2 1_555 1_555
N1_2 C5_2 1_555 1_555
C3_2 C8_2 1_555 1_555
C4_2 H3_2 1_555 1_555
C5_2 C1_2 1_555 1_555
N2_2 N1_2 1_555 1_555
H4_2 N2_2 1_555 1_555
C8_2 C4_2 1_555 1_555
Al10 O2_2 1_555 1_555
O14_2 Al10 1_555 1_555
O25 C12_2 1_555 1_555
O19 C16_2 1_555 1_555
O30 C12_2 1_555 1_555
C12_2 C20_2 1_555 1_555
C16_2 O14_2 1_555 1_555
C17_2 H11_2 1_555 1_555
C19_2 C16_2 1_555 1_555
C20_2 C17_2 1_555 1_555
C4_2 C5_2 1_555 1_555
N2_2 C8_2 1_555 1_555
O19 Al13_8 1_555 1_555
C17_2 C19_2 1_555 1_555
H6_2 N4_2 1_555 1_555
N3_2 N4_2 1_555 1_555

#END
