
###############################################################################
#
# This file contains modified crystal structure data generated from the
# MOF subset of the Cambridge Structural Database (CSD) v543 
# hosted by the Cambridge Crystallographic Data Centre (CCDC).
#
# This work is licensed under the Creative Commons
# Attribution-NonCommercial-ShareAlike 4.0 International License.
# To view a copy of this license, visit
# http://creativecommons.org/licenses/by-nc-sa/4.0/
# or send a letter to
# Creative Commons, PO Box 1866, Mountain View, CA 94042, USA.
#
# CIF created using the CSD Python API on 29 September 2022
# The structure has been converted into the P1 space group
# The structure has a 3D framework
# The original CSD entry CAMXOH is in the monoclinic crystal system
# The framework has been calculated to contain at least 10.0% void space
# The void calculation uses a probe of radius 1.32A, grid spacing 0.4
#
###############################################################################

data_CAMXOH
_chemical_formula_moiety         '(C40 H23 Al12 N16 O35)n'
_symmetry_cell_setting           triclinic
_symmetry_space_group_name_H-M   'P 1'
_symmetry_Int_Tables_number      1
_space_group_name_Hall           'P 1'
loop_
_symmetry_equiv_pos_site_id
_symmetry_equiv_pos_as_xyz
1 x,y,z
_cell_length_a                   12.270(12)
_cell_length_b                   15.010(15)
_cell_length_c                   13.844(13)
_cell_angle_alpha                90
_cell_angle_beta                 102.50(3)
_cell_angle_gamma                90
_cell_volume                     2489.25
loop_
_atom_site_label
_atom_site_type_symbol
_atom_site_fract_x
_atom_site_fract_y
_atom_site_fract_z
Al3 Al 0.000000 0.500000 0.000000
O10 O 0.0285(17) 0.6108(11) 0.0713(8)
C7 C 0.009(3) 0.2951(17) 0.2687(12)
H6 H 0.076923 0.290011 0.249845
C10 C 0.023(3) 0.1623(16) 0.3855(12)
O20 O 0.1498(16) 0.4789(9) 0.0242(7)
O28 O 0.128(2) 0.1495(11) 0.3861(9)
Al10 Al 0.000000 0.000000 0.500000
Al11 Al 0.2354(7) 0.0595(4) 0.4398(4)
Al3_2 Al 0.000000 0.500000 1.000000
O21 O 0.009(2) 0.5646(12) 0.8827(9)
Al10_2 Al 0.000000 1.000000 0.500000
Al8 Al 0.500000 0.000000 0.500000
Al1 Al 0.500000 0.500000 0.000000
O1 O 0.6487(16) 0.4836(9) 0.0175(7)
O2 O 0.517(2) 0.5520(12) 0.1271(9)
O3 O 0.4872(18) 0.3811(11) 0.0539(9)
Al2 Al 0.7646(7) 0.5595(4) 0.0602(4)
H1 H 0.669616 0.426740 0.001939
C1 C 0.403(3) 0.3388(17) 0.0698(14)
O5 O 0.6905(17) 0.6082(10) 0.1565(8)
O6 O 0.8305(18) 0.4770(10) 0.1583(8)
O7 O 0.872(2) 0.6495(11) 0.1139(9)
C2 C 0.430(3) 0.2624(18) 0.1362(13)
Al3_3 Al 1.000000 0.500000 0.000000
C3 C 0.920(3) 0.4318(15) 0.1691(11)
C4 C 0.362(3) 0.2144(14) 0.1868(11)
N1 N 0.534(3) 0.2278(16) 0.1665(12)
O9 O 0.991(2) 0.4354(12) 0.1173(9)
C5 C 0.933(3) 0.3552(17) 0.2379(13)
C6 C 0.429(3) 0.1607(17) 0.2472(13)
H3 H 0.284831 0.219340 0.179279
N2 N 0.537(3) 0.1595(14) 0.2355(12)
H4 H 0.591213 0.245773 0.145635
N3 N 0.848(3) 0.3376(14) 0.2890(11)
C8 C 0.408(3) 0.0987(17) 0.3266(13)
N4 N 0.874(3) 0.2686(15) 0.3484(12)
H5 H 0.787714 0.367961 0.282446
C9 C 0.971(3) 0.2401(16) 0.3348(13)
O18 O 0.305(2) 0.3478(12) 0.0263(9)
H8 H 0.188095 0.489148 0.088944
O23 O 0.483(2) 0.0520(12) 0.3729(9)
O24 O 0.3095(17) 0.1082(10) 0.3435(8)
O27 O 0.9715(17) 0.1108(11) 0.4287(8)
Al10_3 Al 1.000000 0.000000 0.500000
Al1_2 Al 0.500000 0.500000 1.000000
O4 O 0.8502(16) 0.5211(9) 0.9758(7)
O8 O 0.695(2) 0.6522(12) 0.9737(9)
Al3_4 Al 1.000000 0.500000 1.000000
H2 H 0.811905 0.510852 0.911056
O11 O 0.3513(16) 0.5164(9) 0.9825(7)
O12 O 0.483(2) 0.4480(12) 0.8729(9)
O13 O 0.5128(18) 0.6189(11) 0.9461(9)
Al4 Al 0.2354(7) 0.4405(4) 0.9398(4)
H7 H 0.330384 0.573260 0.998061
C11 C 0.597(3) 0.6612(17) 0.9302(14)
O15 O 0.3095(17) 0.3918(10) 0.8435(8)
O16 O 0.1695(18) 0.5230(10) 0.8417(8)
O17 O 0.128(2) 0.3505(11) 0.8861(9)
C12 C 0.570(3) 0.7376(18) 0.8638(13)
C13 C 0.080(3) 0.5682(15) 0.8309(11)
C14 C 0.638(3) 0.7856(14) 0.8132(11)
N5 N 0.466(3) 0.7722(16) 0.8335(12)
O19 O 0.9715(17) 0.3892(11) 0.9287(8)
C15 C 0.067(3) 0.6448(17) 0.7621(13)
C16 C 0.571(3) 0.8393(17) 0.7528(13)
H9 H 0.715169 0.780660 0.820721
N6 N 0.463(3) 0.8405(14) 0.7645(12)
H10 H 0.408787 0.754227 0.854365
N7 N 0.152(3) 0.6624(14) 0.7110(11)
C18 C 0.592(3) 0.9013(17) 0.6734(13)
N8 N 0.126(3) 0.7314(15) 0.6516(12)
H11 H 0.212286 0.632039 0.717554
C19 C 0.029(3) 0.7599(16) 0.6652(13)
O25 O 0.517(2) 0.9480(12) 0.6271(9)
O26 O 0.6905(17) 0.8918(10) 0.6565(8)
Al8_2 Al 0.500000 1.000000 0.500000
Al9 Al 0.7646(7) 0.9405(4) 0.5602(4)
O29 O 0.0285(17) 0.8892(11) 0.5713(8)
Al10_4 Al 1.000000 1.000000 0.500000
C17 C 0.991(3) 0.7049(17) 0.7313(12)
H12 H 0.923077 0.709989 0.750155
C20 C 0.977(3) 0.8377(16) 0.6145(12)
O30 O 0.872(2) 0.8505(11) 0.6139(9)
C17_2 C 0.009(3) 0.2049(17) 0.7687(12)
H12_2 H 0.076923 0.209989 0.749845
C20_2 C 0.023(3) 0.3377(16) 0.8855(12)
O4_2 O 0.1498(16) 0.0211(9) 0.5242(7)
O8_2 O 0.305(2) 0.1522(12) 0.5263(9)
H2_2 H 0.188095 0.010852 0.588944
O11_2 O 0.6487(16) 0.0164(9) 0.5175(7)
O13_2 O 0.4872(18) 0.1189(11) 0.5539(9)
H7_2 H 0.669616 0.073260 0.501939
C11_2 C 0.403(3) 0.1612(17) 0.5698(14)
O16_2 O 0.8305(18) 0.0230(10) 0.6583(8)
C12_2 C 0.430(3) 0.2376(18) 0.6362(13)
C13_2 C 0.920(3) 0.0682(15) 0.6691(11)
C14_2 C 0.362(3) 0.2856(14) 0.6868(11)
N5_2 N 0.534(3) 0.2722(16) 0.6665(12)
O22 O 0.991(2) 0.0646(12) 0.6173(9)
C15_2 C 0.933(3) 0.1448(17) 0.7379(13)
C16_2 C 0.429(3) 0.3393(17) 0.7472(13)
H9_2 H 0.284831 0.280660 0.679279
N6_2 N 0.537(3) 0.3405(14) 0.7355(12)
H10_2 H 0.591213 0.254227 0.645635
N7_2 N 0.848(3) 0.1624(14) 0.7890(11)
C18_2 C 0.408(3) 0.4013(17) 0.8266(13)
N8_2 N 0.874(3) 0.2314(15) 0.8484(12)
H11_2 H 0.787714 0.132039 0.782446
C19_2 C 0.971(3) 0.2599(16) 0.8348(13)
O1_2 O 0.3513(16) 0.9836(9) 0.4825(7)
O3_2 O 0.5128(18) 0.8811(11) 0.4461(9)
H1_2 H 0.330384 0.926740 0.498061
C1_2 C 0.597(3) 0.8388(17) 0.4302(14)
O6_2 O 0.1695(18) 0.9770(10) 0.3417(8)
C2_2 C 0.570(3) 0.7624(18) 0.3638(13)
C3_2 C 0.080(3) 0.9318(15) 0.3309(11)
C4_2 C 0.638(3) 0.7144(14) 0.3132(11)
N1_2 N 0.466(3) 0.7278(16) 0.3335(12)
O9_2 O 0.009(2) 0.9354(12) 0.3827(9)
C5_2 C 0.067(3) 0.8552(17) 0.2621(13)
C6_2 C 0.571(3) 0.6607(17) 0.2528(13)
H3_2 H 0.715169 0.719340 0.320721
N2_2 N 0.463(3) 0.6595(14) 0.2645(12)
H4_2 H 0.408787 0.745773 0.354365
N3_2 N 0.152(3) 0.8376(14) 0.2110(11)
C8_2 C 0.592(3) 0.5987(17) 0.1734(13)
N4_2 N 0.126(3) 0.7686(15) 0.1516(12)
H5_2 H 0.212286 0.867961 0.217554
C9_2 C 0.029(3) 0.7401(16) 0.1652(13)
O14 O 0.8502(16) 0.9789(9) 0.4758(7)
O18_2 O 0.695(2) 0.8478(12) 0.4737(9)
H8_2 H 0.811905 0.989148 0.411056
C7_2 C 0.991(3) 0.7951(17) 0.2313(12)
H6_2 H 0.923077 0.790011 0.250155
C10_2 C 0.977(3) 0.6623(16) 0.1145(12)
loop_
_geom_bond_atom_site_label_1
_geom_bond_atom_site_label_2
_geom_bond_site_symmetry_1
_geom_bond_site_symmetry_2
O10 Al3 1_555 1_555
H6 C7 1_555 1_555
O20 Al3 1_555 1_555
O28 C10 1_555 1_555
Al11 O28 1_555 1_555
O21 Al3_2 1_555 1_555
Al1 O1 1_555 1_555
O1 Al2 1_555 1_555
O2 Al1 1_555 1_555
O3 Al1 1_555 1_555
H1 O1 1_555 1_555
C1 O3 1_555 1_555
O5 Al2 1_555 1_555
O6 Al2 1_555 1_555
O7 Al2 1_555 1_555
C2 C1 1_555 1_555
Al3_3 O9 1_555 1_555
C3 O6 1_555 1_555
C4 C2 1_555 1_555
N1 C2 1_555 1_555
O9 C3 1_555 1_555
C5 C3 1_555 1_555
C6 C4 1_555 1_555
H3 C4 1_555 1_555
N2 N1 1_555 1_555
H4 N1 1_555 1_555
N3 C5 1_555 1_555
C8 C6 1_555 1_555
N4 N3 1_555 1_555
H5 N3 1_555 1_555
O18 C1 1_555 1_555
H8 O20 1_555 1_555
O23 C8 1_555 1_555
O24 C8 1_555 1_555
Al8 O23 1_555 1_555
Al11 O24 1_555 1_555
Al10_3 O27 1_555 1_555
C6 N2 1_555 1_555
N4 C9 1_555 1_555
O4 Al3_4 1_555 1_555
H2 O4 1_555 1_555
O11 Al1_2 1_555 1_555
O12 Al1_2 1_555 1_555
O13 Al1_2 1_555 1_555
Al4 O11 1_555 1_555
H7 O11 1_555 1_555
C11 O8 1_555 1_555
O15 Al4 1_555 1_555
O16 Al4 1_555 1_555
O17 Al4 1_555 1_555
C12 C11 1_555 1_555
C13 O16 1_555 1_555
C14 C12 1_555 1_555
N5 C12 1_555 1_555
O19 Al3_4 1_555 1_555
C15 C13 1_555 1_555
C16 C14 1_555 1_555
H9 C14 1_555 1_555
N6 N5 1_555 1_555
H10 N5 1_555 1_555
N7 C15 1_555 1_555
C18 C16 1_555 1_555
N8 N7 1_555 1_555
H11 N7 1_555 1_555
O25 C18 1_555 1_555
O26 C18 1_555 1_555
Al8_2 O25 1_555 1_555
Al9 O26 1_555 1_555
Al10_2 O29 1_555 1_555
O13 C11 1_555 1_555
C13 O21 1_555 1_555
C16 N6 1_555 1_555
N8 C19 1_555 1_555
H12 C17 1_555 1_555
O30 C20 1_555 1_555
Al9 O30 1_555 1_555
H12_2 C17_2 1_555 1_555
O17 C20_2 1_555 1_555
Al11 O4_2 1_555 1_555
O4_2 Al10 1_555 1_555
O8_2 Al11 1_555 1_555
H2_2 O4_2 1_555 1_555
O11_2 Al8 1_555 1_555
O13_2 Al8 1_555 1_555
H7_2 O11_2 1_555 1_555
C11_2 O8_2 1_555 1_555
C12_2 C11_2 1_555 1_555
C13_2 O16_2 1_555 1_555
C14_2 C12_2 1_555 1_555
N5_2 C12_2 1_555 1_555
O22 Al10_3 1_555 1_555
C15_2 C13_2 1_555 1_555
C16_2 C14_2 1_555 1_555
H9_2 C14_2 1_555 1_555
N6_2 N5_2 1_555 1_555
H10_2 N5_2 1_555 1_555
N7_2 C15_2 1_555 1_555
C18_2 C16_2 1_555 1_555
N8_2 N7_2 1_555 1_555
H11_2 N7_2 1_555 1_555
O12 C18_2 1_555 1_555
O15 C18_2 1_555 1_555
O13_2 C11_2 1_555 1_555
C13_2 O22 1_555 1_555
C16_2 N6_2 1_555 1_555
N8_2 C19_2 1_555 1_555
Al8_2 O1_2 1_555 1_555
O3_2 Al8_2 1_555 1_555
H1_2 O1_2 1_555 1_555
C1_2 O3_2 1_555 1_555
C2_2 C1_2 1_555 1_555
Al10_2 O9_2 1_555 1_555
C3_2 O6_2 1_555 1_555
C4_2 C2_2 1_555 1_555
N1_2 C2_2 1_555 1_555
O9_2 C3_2 1_555 1_555
C5_2 C3_2 1_555 1_555
C6_2 C4_2 1_555 1_555
H3_2 C4_2 1_555 1_555
N2_2 N1_2 1_555 1_555
H4_2 N1_2 1_555 1_555
N3_2 C5_2 1_555 1_555
C8_2 C6_2 1_555 1_555
N4_2 N3_2 1_555 1_555
H5_2 N3_2 1_555 1_555
O14 Al9 1_555 1_555
O18_2 C1_2 1_555 1_555
H8_2 O14 1_555 1_555
Al10_4 O14 1_555 1_555
O2 C8_2 1_555 1_555
O5 C8_2 1_555 1_555
C6_2 N2_2 1_555 1_555
N4_2 C9_2 1_555 1_555
Al9 O18_2 1_555 1_555
H6_2 C7_2 1_555 1_555
O7 C10_2 1_555 1_555

#END
