
###############################################################################
#
# This file contains modified crystal structure data generated from the
# MOF subset of the Cambridge Structural Database (CSD) v543 
# hosted by the Cambridge Crystallographic Data Centre (CCDC).
#
# This work is licensed under the Creative Commons
# Attribution-NonCommercial-ShareAlike 4.0 International License.
# To view a copy of this license, visit
# http://creativecommons.org/licenses/by-nc-sa/4.0/
# or send a letter to
# Creative Commons, PO Box 1866, Mountain View, CA 94042, USA.
#
# CIF created using the CSD Python API on 29 September 2022
# The structure has been converted into the P1 space group
# The structure has a 3D framework
# The original CSD entry CAMYUO is in the monoclinic crystal system
# The framework has been calculated to contain at least 10.0% void space
# The void calculation uses a probe of radius 1.32A, grid spacing 0.4
#
###############################################################################

data_CAMYUO
_chemical_formula_moiety         '(C32 H16 Cu4 N12 O12)n'
_symmetry_cell_setting           triclinic
_symmetry_space_group_name_H-M   'P 1'
_symmetry_Int_Tables_number      1
_space_group_name_Hall           'P 1'
loop_
_symmetry_equiv_pos_site_id
_symmetry_equiv_pos_as_xyz
1 x,y,z
_cell_length_a                   4.81352(4)
_cell_length_b                   20.23550(15)
_cell_length_c                   10.71646(11)
_cell_angle_alpha                90
_cell_angle_beta                 96.9366(11)
_cell_angle_gamma                90
_cell_volume                     1036.19
loop_
_atom_site_label
_atom_site_type_symbol
_atom_site_fract_x
_atom_site_fract_y
_atom_site_fract_z
_atom_site_U_iso_or_equiv
_atom_site_thermal_displace_type
Cu4 Cu 0.4635(2) 0.16299(3) 0.08803(8) 0.0161 Uiso
O3 O 0.2513(5) 0.1877(2) 0.9200(3) 0.0058 Uiso
O14 O 0.1031(6) 0.6699(2) 0.4630(2) 0.0058 Uiso
O4 O 0.8969(6) 0.1699(2) 0.0370(2) 0.0058 Uiso
Cu1 Cu 0.4635(2) 0.33701(3) 0.58803(8) 0.0161 Uiso
O1 O 0.6210(8) 0.36045(5) 0.7566(2) 0.0058 Uiso
O2 O 0.8878(8) 0.31762(7) 0.9217(2) 0.0058 Uiso
N1 N 0.5124(4) 0.24595(2) 0.6595(1) 0.0129 Uiso
N2 N 0.7313(9) 0.12815(4) 0.7647(3) 0.0129 Uiso
N3 N 0.4558(5) 0.43661(4) 0.5399(2) 0.0129 Uiso
C1 C 0.7076(5) 0.24600(3) 0.7625(2) 0.0109 Uiso
C2 C 0.7994(6) 0.18725(4) 0.8237(2) 0.0109 Uiso
C3 C 0.554(1) 0.13065(4) 0.6559(4) 0.0109 Uiso
C4 C 0.4446(7) 0.19132(2) 0.6068(2) 0.0109 Uiso
C5 C 0.739(1) 0.31332(5) 0.8194(3) 0.0109 Uiso
C6 C 0.9990(5) 0.18004(7) 0.9423(1) 0.0109 Uiso
C7 C 0.6413(3) 0.47661(3) 0.5961(1) 0.0109 Uiso
C8 C 0.3047(4) 0.45969(5) 0.4363(1) 0.0109 Uiso
H1 H 0.50601 0.09006 0.61413 0.0109 Uiso
H2 H 0.31574 0.19572 0.53283 0.0109 Uiso
H3 H 0.74727 0.45749 0.66761 0.0109 Uiso
H4 H 0.16859 0.43275 0.38907 0.0109 Uiso
N4 N 0.5442(5) 0.56339(4) 0.4601(2) 0.0129 Uiso
C9 C 0.3587(3) 0.52339(3) 0.4039(1) 0.0109 Uiso
C10 C 0.6953(4) 0.54031(5) 0.5637(1) 0.0109 Uiso
H5 H 0.25273 0.54251 0.33239 0.0109 Uiso
H6 H 0.83141 0.56725 0.61093 0.0109 Uiso
Cu2 Cu 0.5365(2) 0.66299(3) 0.41197(8) 0.0161 Uiso
O5 O 0.3790(8) 0.63955(5) 0.2434(2) 0.0058 Uiso
O6 O 0.1122(8) 0.68238(7) 0.0783(2) 0.0058 Uiso
N5 N 0.4876(4) 0.75405(2) 0.3405(1) 0.0129 Uiso
N6 N 0.2687(9) 0.87185(4) 0.2353(3) 0.0129 Uiso
C11 C 0.2924(5) 0.75400(3) 0.2375(2) 0.0109 Uiso
C12 C 0.2006(6) 0.81275(4) 0.1763(2) 0.0109 Uiso
C13 C 0.446(1) 0.86935(4) 0.3441(4) 0.0109 Uiso
C14 C 0.5554(7) 0.80868(2) 0.3932(2) 0.0109 Uiso
C15 C 0.261(1) 0.68668(5) 0.1806(3) 0.0109 Uiso
C16 C 0.0010(5) 0.81996(7) 0.0577(1) 0.0109 Uiso
H7 H 0.49399 0.90994 0.38587 0.0109 Uiso
H8 H 0.68426 0.80428 0.46717 0.0109 Uiso
O9 O 0.2513(5) 0.3123(2) 0.4200(3) 0.0058 Uiso
O10 O 0.7487(5) 0.6877(2) 0.5800(3) 0.0058 Uiso
O12 O 0.8969(6) 0.3301(2) 0.5370(2) 0.0058 Uiso
O8 O 0.1031(6) 0.8301(2) 0.9630(2) 0.0058 Uiso
Cu6 Cu 0.5365(2) 0.83701(3) 0.91197(8) 0.0161 Uiso
O7 O 0.7487(5) 0.8123(2) 0.0800(3) 0.0058 Uiso
N4_2 N 0.4558(5) 0.06339(4) 0.0399(2) 0.0129 Uiso
C9_2 C 0.6413(3) 0.02339(3) 0.0961(1) 0.0109 Uiso
H5_2 H 0.74727 0.04251 0.16761 0.0109 Uiso
O5_2 O 0.6210(8) 0.13955(5) 0.2566(2) 0.0058 Uiso
O6_2 O 0.8878(8) 0.18238(7) 0.4217(2) 0.0058 Uiso
N5_2 N 0.5124(4) 0.25405(2) 0.1595(1) 0.0129 Uiso
N6_2 N 0.7313(9) 0.37185(4) 0.2647(3) 0.0129 Uiso
C11_2 C 0.7076(5) 0.25400(3) 0.2625(2) 0.0109 Uiso
C12_2 C 0.7994(6) 0.31275(4) 0.3237(2) 0.0109 Uiso
C13_2 C 0.554(1) 0.36935(4) 0.1559(4) 0.0109 Uiso
C14_2 C 0.4446(7) 0.30868(2) 0.1068(2) 0.0109 Uiso
C15_2 C 0.739(1) 0.18668(5) 0.3194(3) 0.0109 Uiso
C16_2 C 0.9990(5) 0.31996(7) 0.4423(1) 0.0109 Uiso
H7_2 H 0.50601 0.40994 0.11413 0.0109 Uiso
H8_2 H 0.31574 0.30428 0.03283 0.0109 Uiso
C10_2 C 0.3047(4) 0.04031(5) 0.9363(1) 0.0109 Uiso
H6_2 H 0.16859 0.06725 0.88907 0.0109 Uiso
C8_2 C 0.6953(4) 0.95969(5) 0.0637(1) 0.0109 Uiso
H4_2 H 0.83141 0.93275 0.11093 0.0109 Uiso
O1_2 O 0.3790(8) 0.86045(5) 0.7434(2) 0.0058 Uiso
O2_2 O 0.1122(8) 0.81762(7) 0.5783(2) 0.0058 Uiso
N1_2 N 0.4876(4) 0.74595(2) 0.8405(1) 0.0129 Uiso
N2_2 N 0.2687(9) 0.62815(4) 0.7353(3) 0.0129 Uiso
N3_2 N 0.5442(5) 0.93661(4) 0.9601(2) 0.0129 Uiso
C1_2 C 0.2924(5) 0.74600(3) 0.7375(2) 0.0109 Uiso
C2_2 C 0.2006(6) 0.68725(4) 0.6763(2) 0.0109 Uiso
C3_2 C 0.446(1) 0.63065(4) 0.8441(4) 0.0109 Uiso
C4_2 C 0.5554(7) 0.69132(2) 0.8932(2) 0.0109 Uiso
C5_2 C 0.261(1) 0.81332(5) 0.6806(3) 0.0109 Uiso
C6_2 C 0.0010(5) 0.68004(7) 0.5577(1) 0.0109 Uiso
C7_2 C 0.3587(3) 0.97661(3) 0.9039(1) 0.0109 Uiso
H1_2 H 0.49399 0.59006 0.88587 0.0109 Uiso
H2_2 H 0.68426 0.69572 0.96717 0.0109 Uiso
H3_2 H 0.25273 0.95749 0.83239 0.0109 Uiso
loop_
_geom_bond_atom_site_label_1
_geom_bond_atom_site_label_2
_geom_bond_site_symmetry_1
_geom_bond_site_symmetry_2
Cu4 O4 1_555 1_555
Cu1 O1 1_555 1_555
O1 C5 1_555 1_555
O2 C5 1_555 1_555
N1 Cu1 1_555 1_555
N2 C2 1_555 1_555
N3 Cu1 1_555 1_555
C1 N1 1_555 1_555
C2 C1 1_555 1_555
C3 N2 1_555 1_555
C4 N1 1_555 1_555
C5 C1 1_555 1_555
C6 C2 1_555 1_555
C7 N3 1_555 1_555
C8 N3 1_555 1_555
H1 C3 1_555 1_555
H2 C4 1_555 1_555
H3 C7 1_555 1_555
H4 C8 1_555 1_555
N4 C9 1_555 1_555
C9 C8 1_555 1_555
C10 C7 1_555 1_555
H5 C9 1_555 1_555
H6 C10 1_555 1_555
Cu2 N4 1_555 1_555
O5 Cu2 1_555 1_555
O6 C15 1_555 1_555
N5 Cu2 1_555 1_555
N6 C12 1_555 1_555
C11 N5 1_555 1_555
C12 C11 1_555 1_555
C13 N6 1_555 1_555
C14 N5 1_555 1_555
C15 O5 1_555 1_555
C16 C12 1_555 1_555
H7 C13 1_555 1_555
H8 C14 1_555 1_555
O9 Cu1 1_555 1_555
O10 Cu2 1_555 1_555
O12 Cu1 1_555 1_555
O14 Cu2 1_555 1_555
C3 C4 1_555 1_555
N4 C10 1_555 1_555
C11 C15 1_555 1_555
C13 C14 1_555 1_555
Cu6 O8 1_555 1_555
N4_2 C9_2 1_555 1_555
H5_2 C9_2 1_555 1_555
Cu4 N4_2 1_555 1_555
O5_2 Cu4 1_555 1_555
O6_2 C15_2 1_555 1_555
O12 C16_2 1_555 1_555
N5_2 Cu4 1_555 1_555
N6_2 C12_2 1_555 1_555
C11_2 N5_2 1_555 1_555
C12_2 C11_2 1_555 1_555
C13_2 N6_2 1_555 1_555
C14_2 N5_2 1_555 1_555
C15_2 O5_2 1_555 1_555
C16_2 C12_2 1_555 1_555
H7_2 C13_2 1_555 1_555
H8_2 C14_2 1_555 1_555
C11_2 C15_2 1_555 1_555
C13_2 C14_2 1_555 1_555
H6_2 C10_2 1_555 1_555
H4_2 C8_2 1_555 1_555
Cu6 O1_2 1_555 1_555
O1_2 C5_2 1_555 1_555
O2_2 C5_2 1_555 1_555
O14 C6_2 1_555 1_555
N1_2 Cu6 1_555 1_555
N2_2 C2_2 1_555 1_555
N3_2 Cu6 1_555 1_555
C1_2 N1_2 1_555 1_555
C2_2 C1_2 1_555 1_555
C3_2 N2_2 1_555 1_555
C4_2 N1_2 1_555 1_555
C5_2 C1_2 1_555 1_555
C6_2 C2_2 1_555 1_555
C7_2 N3_2 1_555 1_555
H1_2 C3_2 1_555 1_555
H2_2 C4_2 1_555 1_555
H3_2 C7_2 1_555 1_555
C3_2 C4_2 1_555 1_555

#END
