
###############################################################################
#
# This file contains modified crystal structure data generated from the
# MOF subset of the Cambridge Structural Database (CSD) v543 
# hosted by the Cambridge Crystallographic Data Centre (CCDC).
#
# This work is licensed under the Creative Commons
# Attribution-NonCommercial-ShareAlike 4.0 International License.
# To view a copy of this license, visit
# http://creativecommons.org/licenses/by-nc-sa/4.0/
# or send a letter to
# Creative Commons, PO Box 1866, Mountain View, CA 94042, USA.
#
# CIF created using the CSD Python API on 29 September 2022
# The structure has been converted into the P1 space group
# The structure has a 3D framework
# The original CSD entry CAMYAU is in the monoclinic crystal system
# The framework has been calculated to contain at least 10.0% void space
# The void calculation uses a probe of radius 1.32A, grid spacing 0.4
#
###############################################################################

data_CAMYAU
_chemical_formula_moiety         '(C40 H23 Al17 N16 O35)n'
_symmetry_cell_setting           triclinic
_symmetry_space_group_name_H-M   'P 1'
_symmetry_Int_Tables_number      1
_space_group_name_Hall           'P 1'
loop_
_symmetry_equiv_pos_site_id
_symmetry_equiv_pos_as_xyz
1 x,y,z
_cell_length_a                   12.222(15)
_cell_length_b                   16.78(2)
_cell_length_c                   11.701(16)
_cell_angle_alpha                90
_cell_angle_beta                 105.01(4)
_cell_angle_gamma                90
_cell_volume                     2317.83
loop_
_atom_site_label
_atom_site_type_symbol
_atom_site_fract_x
_atom_site_fract_y
_atom_site_fract_z
Al8 Al 0.000000 0.000000 0.000000
Al8_2 Al 0.000000 -0.000000 1.000000
Al9 Al 0.2258(8) 0.0457(4) 0.9074(6)
Al8_3 Al 0.000000 1.000000 0.000000
Al1 Al 0.000000 0.500000 0.500000
O1 O 0.1515(16) 0.4832(9) 0.5213(11)
Al2 Al 0.2258(8) 0.4543(4) 0.4074(6)
H1 H 0.196784 0.489876 0.597925
C1 C 0.018(3) 0.3609(16) 0.3606(18)
O4 O 0.3086(19) 0.3680(10) 0.5040(13)
O5 O 0.3469(17) 0.5228(9) 0.4643(11)
O6 O 0.148(2) 0.5335(10) 0.3015(12)
O7 O 0.1125(19) 0.3766(9) 0.3418(13)
O8 O 0.2908(17) 0.4191(9) 0.2818(11)
H2 H 0.328227 0.575330 0.476313
Al3 Al 0.500000 0.500000 0.500000
C3 C 0.398(3) 0.3970(16) 0.3040(18)
C4 C 0.015(3) 0.2176(16) 0.2601(17)
O9 O 0.482(2) 0.4137(11) 0.5949(12)
O10 O 0.4812(19) 0.4284(11) 0.3716(14)
C5 C 0.417(3) 0.3235(17) 0.2419(19)
H3 H 0.078748 0.218432 0.230230
N3 N 0.524(3) 0.2870(16) 0.2871(19)
C7 C 0.355(3) 0.2722(15) 0.1598(17)
H5 H 0.578563 0.305584 0.342200
N4 N 0.524(3) 0.2177(15) 0.2282(18)
C9 C 0.422(3) 0.2088(18) 0.153(2)
H6 H 0.280035 0.279346 0.116448
C10 C 0.399(4) 0.1363(19) 0.081(2)
O12 O 0.003(2) 0.4361(12) 0.6373(14)
O13 O 0.0315(19) 0.5964(10) 0.5878(13)
C12 C 0.026(3) 0.7184(15) 0.6752(17)
N5 N 0.115(3) 0.7464(16) 0.6414(17)
O19 O 0.5188(19) 0.5716(11) 0.6284(14)
O20 O 0.518(2) 0.5863(11) 0.4051(12)
O21 O 0.6531(17) 0.4772(9) 0.5357(11)
N6 N 0.134(3) 0.8227(14) 0.6902(15)
C16 C 0.062(3) 0.8442(16) 0.7464(18)
H10 H 0.189660 0.852392 0.683272
C18 C 0.069(3) 0.9210(16) 0.8050(17)
O23 O 0.003(2) 0.0639(12) 0.1373(14)
O26 O 0.148(2) 0.9665(10) 0.8015(12)
Al8_4 Al 0.000000 1.000000 1.000000
O27 O 0.3086(19) 0.1320(10) 0.0040(13)
O28 O 0.482(2) 0.0863(11) 0.0949(12)
Al11 Al 0.500000 0.000000 0.000000
Al11_2 Al 0.500000 -0.000000 1.000000
Al11_3 Al 0.500000 1.000000 0.000000
Al11_4 Al 0.500000 1.000000 1.000000
Al8_5 Al 1.000000 0.000000 0.000000
Al8_6 Al 1.000000 -0.000000 1.000000
Al8_7 Al 1.000000 1.000000 0.000000
Al12 Al 0.7742(8) 0.9543(4) 0.0926(6)
Al1_2 Al 1.000000 0.500000 0.500000
O2 O 0.997(2) 0.5639(12) 0.3627(14)
O3 O 0.9685(19) 0.4036(10) 0.4122(13)
C2 C 0.974(3) 0.2816(15) 0.3248(17)
N1 N 0.885(3) 0.2536(16) 0.3586(17)
N2 N 0.866(3) 0.1773(14) 0.3098(15)
C6 C 0.938(3) 0.1558(16) 0.2536(18)
H4 H 0.810340 0.147608 0.316728
C8 C 0.931(3) 0.0790(16) 0.1950(17)
O11 O 0.8485(16) 0.5168(9) 0.4787(11)
Al4 Al 0.7742(8) 0.5457(4) 0.5926(6)
H7 H 0.803216 0.510124 0.402075
C11 C 0.982(3) 0.6391(16) 0.6394(18)
O14 O 0.6914(19) 0.6320(10) 0.4960(13)
O16 O 0.852(2) 0.4665(10) 0.6985(12)
O17 O 0.8875(19) 0.6234(9) 0.6582(13)
O18 O 0.7092(17) 0.5809(9) 0.7182(11)
H8 H 0.671773 0.424670 0.523687
C13 C 0.602(3) 0.6030(16) 0.6960(18)
C14 C 0.985(3) 0.7824(16) 0.7399(17)
C15 C 0.583(3) 0.6765(17) 0.7581(19)
H9 H 0.921252 0.781568 0.769770
N7 N 0.476(3) 0.7130(16) 0.7129(19)
C17 C 0.645(3) 0.7278(15) 0.8402(17)
H11 H 0.421437 0.694416 0.657800
N8 N 0.476(3) 0.7823(15) 0.7718(18)
C19 C 0.578(3) 0.7912(18) 0.847(2)
H12 H 0.719965 0.720654 0.883552
O24 O 0.852(2) 0.0335(10) 0.1985(12)
O25 O 0.997(2) 0.9361(12) 0.8627(14)
C20 C 0.601(4) 0.8637(19) 0.919(2)
Al8_8 Al 1.000000 1.000000 1.000000
O29 O 0.6914(19) 0.8680(10) 0.9960(13)
O30 O 0.518(2) 0.9137(11) 0.9051(12)
O11_2 O 0.1515(16) 0.0168(9) 0.0213(11)
H7_2 H 0.196784 0.010124 0.097925
C11_2 C 0.018(3) 0.1391(16) 0.8606(18)
O17_2 O 0.1125(19) 0.1234(9) 0.8418(13)
O18_2 O 0.2908(17) 0.0809(9) 0.7818(11)
C13_2 C 0.398(3) 0.1030(16) 0.8040(18)
C14_2 C 0.015(3) 0.2824(16) 0.7601(17)
O22 O 0.4812(19) 0.0716(11) 0.8716(14)
C15_2 C 0.417(3) 0.1765(17) 0.7419(19)
H9_2 H 0.078748 0.281568 0.730230
N7_2 N 0.524(3) 0.2130(16) 0.7871(19)
C17_2 C 0.355(3) 0.2278(15) 0.6598(17)
H11_2 H 0.578563 0.194416 0.842200
N8_2 N 0.524(3) 0.2823(15) 0.7282(18)
C19_2 C 0.422(3) 0.2912(18) 0.653(2)
H12_2 H 0.280035 0.220654 0.616448
C20_2 C 0.399(4) 0.3637(19) 0.581(2)
O3_2 O 0.0315(19) 0.9036(10) 0.0878(13)
C2_2 C 0.026(3) 0.7816(15) 0.1752(17)
N1_2 N 0.115(3) 0.7536(16) 0.1414(17)
N2_2 N 0.134(3) 0.6773(14) 0.1902(15)
C6_2 C 0.062(3) 0.6558(16) 0.2464(18)
H4_2 H 0.189660 0.647608 0.183272
C8_2 C 0.069(3) 0.5790(16) 0.3050(17)
O15 O 0.3469(17) 0.9772(9) 0.9643(11)
H8_2 H 0.328227 0.924670 0.976313
O5_2 O 0.6531(17) 0.0228(9) 0.0357(11)
H2_2 H 0.671773 0.075330 0.023687
O13_2 O 0.9685(19) 0.0964(10) 0.9122(13)
C12_2 C 0.974(3) 0.2184(15) 0.8248(17)
N5_2 N 0.885(3) 0.2464(16) 0.8586(17)
N6_2 N 0.866(3) 0.3227(14) 0.8098(15)
C16_2 C 0.938(3) 0.3442(16) 0.7536(18)
H10_2 H 0.810340 0.352392 0.816728
C18_2 C 0.931(3) 0.4210(16) 0.6950(17)
C1_2 C 0.982(3) 0.8609(16) 0.1394(18)
O7_2 O 0.8875(19) 0.8766(9) 0.1582(13)
O8_2 O 0.7092(17) 0.9191(9) 0.2182(11)
C3_2 C 0.602(3) 0.8970(16) 0.1960(18)
C4_2 C 0.985(3) 0.7176(16) 0.2399(17)
O10_2 O 0.5188(19) 0.9284(11) 0.1284(14)
C5_2 C 0.583(3) 0.8235(17) 0.2581(19)
H3_2 H 0.921252 0.718432 0.269770
N3_2 N 0.476(3) 0.7870(16) 0.2129(19)
C7_2 C 0.645(3) 0.7722(15) 0.3402(17)
H5_2 H 0.421437 0.805584 0.157800
N4_2 N 0.476(3) 0.7177(15) 0.2718(18)
C9_2 C 0.578(3) 0.7088(18) 0.347(2)
H6_2 H 0.719965 0.779346 0.383552
C10_2 C 0.601(4) 0.6363(19) 0.419(2)
O1_2 O 0.8485(16) 0.9832(9) 0.9787(11)
H1_2 H 0.803216 0.989876 0.902075
loop_
_geom_bond_atom_site_label_1
_geom_bond_atom_site_label_2
_geom_bond_site_symmetry_1
_geom_bond_site_symmetry_2
Al1 O1 1_555 1_555
O1 Al2 1_555 1_555
Al2 O4 1_555 1_555
H1 O1 1_555 1_555
O5 Al2 1_555 1_555
O6 Al2 1_555 1_555
O7 Al2 1_555 1_555
O8 Al2 1_555 1_555
H2 O5 1_555 1_555
Al3 O5 1_555 1_555
C3 O8 1_555 1_555
O9 Al3 1_555 1_555
O10 Al3 1_555 1_555
C5 C3 1_555 1_555
H3 C4 1_555 1_555
N3 C5 1_555 1_555
C7 C5 1_555 1_555
H5 N3 1_555 1_555
N4 N3 1_555 1_555
C9 C7 1_555 1_555
H6 C7 1_555 1_555
C10 C9 1_555 1_555
O12 Al1 1_555 1_555
O13 Al1 1_555 1_555
N5 C12 1_555 1_555
O19 Al3 1_555 1_555
O20 Al3 1_555 1_555
O21 Al3 1_555 1_555
N6 N5 1_555 1_555
H10 N6 1_555 1_555
C18 C16 1_555 1_555
O26 C18 1_555 1_555
Al8 O23 1_555 1_555
O27 C10 1_555 1_555
O28 C10 1_555 1_555
Al11 O28 1_555 1_555
C1 O7 1_555 1_555
C3 O10 1_555 1_555
N4 C9 1_555 1_555
N6 C16 1_555 1_555
O2 Al1_2 1_555 1_555
O3 Al1_2 1_555 1_555
N1 C2 1_555 1_555
N2 N1 1_555 1_555
H4 N2 1_555 1_555
C8 C6 1_555 1_555
O11 Al1_2 1_555 1_555
Al4 O11 1_555 1_555
H7 O11 1_555 1_555
O14 Al4 1_555 1_555
O21 Al4 1_555 1_555
O16 Al4 1_555 1_555
O17 Al4 1_555 1_555
O18 Al4 1_555 1_555
H8 O21 1_555 1_555
C13 O18 1_555 1_555
C15 C13 1_555 1_555
H9 C14 1_555 1_555
N7 C15 1_555 1_555
C17 C15 1_555 1_555
H11 N7 1_555 1_555
N8 N7 1_555 1_555
C19 C17 1_555 1_555
H12 C17 1_555 1_555
O24 C8 1_555 1_555
C20 C19 1_555 1_555
Al8_8 O25 1_555 1_555
O29 C20 1_555 1_555
O30 C20 1_555 1_555
Al11_4 O30 1_555 1_555
N2 C6 1_555 1_555
C11 O17 1_555 1_555
C13 O19 1_555 1_555
N8 C19 1_555 1_555
O11_2 Al8 1_555 1_555
H7_2 O11_2 1_555 1_555
O17_2 Al9 1_555 1_555
O18_2 Al9 1_555 1_555
C13_2 O18_2 1_555 1_555
O22 Al11_2 1_555 1_555
C15_2 C13_2 1_555 1_555
H9_2 C14_2 1_555 1_555
N7_2 C15_2 1_555 1_555
C17_2 C15_2 1_555 1_555
H11_2 N7_2 1_555 1_555
N8_2 N7_2 1_555 1_555
C19_2 C17_2 1_555 1_555
H12_2 C17_2 1_555 1_555
C20_2 C19_2 1_555 1_555
O4 C20_2 1_555 1_555
O9 C20_2 1_555 1_555
C11_2 O17_2 1_555 1_555
C13_2 O22 1_555 1_555
N8_2 C19_2 1_555 1_555
O3_2 Al8_3 1_555 1_555
N1_2 C2_2 1_555 1_555
N2_2 N1_2 1_555 1_555
H4_2 N2_2 1_555 1_555
C8_2 C6_2 1_555 1_555
O6 C8_2 1_555 1_555
N2_2 C6_2 1_555 1_555
H8_2 O15 1_555 1_555
Al11_4 O15 1_555 1_555
H2_2 O5_2 1_555 1_555
Al11 O5_2 1_555 1_555
O13_2 Al8_6 1_555 1_555
N5_2 C12_2 1_555 1_555
N6_2 N5_2 1_555 1_555
H10_2 N6_2 1_555 1_555
C18_2 C16_2 1_555 1_555
O16 C18_2 1_555 1_555
N6_2 C16_2 1_555 1_555
O7_2 Al12 1_555 1_555
O8_2 Al12 1_555 1_555
C3_2 O8_2 1_555 1_555
O10_2 Al11_3 1_555 1_555
C5_2 C3_2 1_555 1_555
H3_2 C4_2 1_555 1_555
N3_2 C5_2 1_555 1_555
C7_2 C5_2 1_555 1_555
H5_2 N3_2 1_555 1_555
N4_2 N3_2 1_555 1_555
C9_2 C7_2 1_555 1_555
H6_2 C7_2 1_555 1_555
C10_2 C9_2 1_555 1_555
O14 C10_2 1_555 1_555
O20 C10_2 1_555 1_555
C1_2 O7_2 1_555 1_555
C3_2 O10_2 1_555 1_555
N4_2 C9_2 1_555 1_555
Al8_8 O1_2 1_555 1_555
H1_2 O1_2 1_555 1_555

#END
