
###############################################################################
#
# This file contains modified crystal structure data generated from the
# MOF subset of the Cambridge Structural Database (CSD) v543 
# hosted by the Cambridge Crystallographic Data Centre (CCDC).
#
# This work is licensed under the Creative Commons
# Attribution-NonCommercial-ShareAlike 4.0 International License.
# To view a copy of this license, visit
# http://creativecommons.org/licenses/by-nc-sa/4.0/
# or send a letter to
# Creative Commons, PO Box 1866, Mountain View, CA 94042, USA.
#
# CIF created using the CSD Python API on 29 September 2022
# The structure has been converted into the P1 space group
# The structure has a 3D framework
# The original CSD entry CANRUG is in the monoclinic crystal system
# The framework has been calculated to contain at least 10.0% void space
# The void calculation uses a probe of radius 1.32A, grid spacing 0.4
#
###############################################################################

data_CANRUG
_chemical_formula_moiety         '(C128 H108 Ca8 O40 Si4)n'
_symmetry_cell_setting           triclinic
_symmetry_space_group_name_H-M   'P 1'
_symmetry_Int_Tables_number      1
_space_group_name_Hall           'P 1'
loop_
_symmetry_equiv_pos_site_id
_symmetry_equiv_pos_as_xyz
1 x,y,z
_cell_length_a                   13.6691(2)
_cell_length_b                   23.6874(2)
_cell_length_c                   14.5690(2)
_cell_angle_alpha                90
_cell_angle_beta                 114.939(2)
_cell_angle_gamma                90
_cell_volume                     4277.38
loop_
_atom_site_label
_atom_site_type_symbol
_atom_site_fract_x
_atom_site_fract_y
_atom_site_fract_z
Ca3 Ca 0.0000 0.5000 -0.0000
Ca3_2 Ca 0.0000 0.5000 1.0000
Ca12 Ca 0.01577(3) 0.656862(13) 0.00132(2)
O10 O 0.11537(14) 0.27335(7) 0.00388(14)
Ca3_3 Ca 1.0000 0.5000 -0.0000
O11 O 0.01316(12) 0.64744(6) 0.17290(11)
O15 O 0.16900(11) 0.52915(5) 0.10199(11)
O18 O 0.19985(10) 0.62017(5) 0.08789(10)
O20 O 0.14817(11) 0.36414(6) 0.15504(10)
O23 O 0.01787(10) 0.42772(5) 0.11541(9)
O27 O 0.12259(11) 0.73617(5) 0.08257(11)
Si1 Si 0.29316(4) 0.490891(18) 0.62041(3)
C1 C 0.21062(13) 0.46110(7) 0.68368(12)
C2 C 0.13780(16) 0.41662(7) 0.64595(14)
H1 H 0.1260 0.4003 0.5826
C3 C 0.08200(16) 0.39567(8) 0.69945(14)
H2 H 0.0324 0.3654 0.6724
C4 C 0.09875(14) 0.41891(7) 0.79237(13)
C5 C 0.17000(14) 0.46374(7) 0.83070(13)
H3 H 0.1809 0.4803 0.8937
C6 C 0.22512(15) 0.48431(7) 0.77701(13)
H4 H 0.2739 0.5149 0.8040
C7 C 0.04152(14) 0.39664(7) 0.85301(13)
O2 O 0.05321(11) 0.42331(5) 0.93255(10)
C8 C 0.43626(13) 0.46836(6) 0.69265(12)
C9 C 0.46542(14) 0.43136(7) 0.77529(14)
H5 H 0.4109 0.4164 0.7925
C10 C 0.57249(14) 0.41620(7) 0.83244(14)
H6 H 0.5901 0.3897 0.8860
C11 C 0.65338(13) 0.43979(7) 0.81120(12)
C12 C 0.62580(14) 0.47624(7) 0.72853(14)
H7 H 0.6807 0.4923 0.7129
C13 C 0.51852(14) 0.48899(7) 0.66935(13)
H8 H 0.5006 0.5124 0.6115
C14 C 0.76951(14) 0.42919(7) 0.87818(13)
O3 O 0.83100(11) 0.47085(5) 0.89801(11)
O4 O 0.80015(10) 0.37983(5) 0.91211(10)
C15 C 0.24018(13) 0.46642(6) 0.48584(12)
C16 C 0.14701(17) 0.48974(9) 0.41134(15)
H9 H 0.1121 0.5198 0.4287
C17 C 0.10397(16) 0.47019(9) 0.31248(14)
H10 H 0.0402 0.4869 0.2633
C18 C 0.15323(14) 0.42660(7) 0.28508(12)
C19 C 0.24689(16) 0.40294(8) 0.35762(13)
H11 H 0.2818 0.3731 0.3396
C20 C 0.28974(16) 0.42293(7) 0.45686(13)
H12 H 0.3541 0.4066 0.5057
C21 C 0.10450(14) 0.40484(7) 0.17847(12)
C22 C 0.27870(14) 0.56959(6) 0.62444(12)
C23 C 0.36389(15) 0.60789(7) 0.65570(14)
H13 H 0.4358 0.5942 0.6801
C24 C 0.34569(15) 0.66601(7) 0.65185(15)
H14 H 0.4047 0.6916 0.6731
C25 C 0.24101(15) 0.68626(7) 0.61683(13)
C26 C 0.15499(15) 0.64888(7) 0.58705(14)
H15 H 0.0833 0.6628 0.5630
C27 C 0.17383(14) 0.59142(7) 0.59236(13)
H16 H 0.1147 0.5661 0.5739
C28 C 0.21481(15) 0.74753(7) 0.60810(14)
O7 O 0.12259(11) 0.76383(5) 0.58257(11)
O8 O 0.29665(11) 0.78208(5) 0.62859(12)
H17 H 0.271(2) 0.8176(4) 0.623(2)
C31 C 0.1074(3) 0.23554(13) 0.9232(3)
H23 H 0.0317 0.2353 0.8715
H24 H 0.1249 0.1968 0.9510
C32 C 0.1775(4) 0.24959(15) 0.8737(3)
H25 H 0.1669 0.2220 0.8201
H26 H 0.2530 0.2487 0.9236
H27 H 0.1598 0.2875 0.8441
Ca3_4 Ca 1.0000 0.5000 1.0000
Ca8 Ca 0.98423(3) 0.343138(13) 0.99868(2)
Ca10 Ca 0.01577(3) 0.843138(13) 0.50132(2)
O29 O 0.08337(13) 0.68986(6) 0.88090(11)
C61 C 0.1227(2) 0.66037(12) 0.8171(2)
H45 H 0.0767 0.6269 0.7882
H46 H 0.1159 0.6853 0.7603
C62 C 0.2349(3) 0.64204(16) 0.8697(2)
H47 H 0.2565 0.6224 0.8220
H48 H 0.2813 0.6750 0.8974
H49 H 0.2420 0.6164 0.9249
O9 O 0.91663(13) 0.31014(6) 0.11910(11)
C29 C 0.8773(2) 0.33963(12) 0.1829(2)
H18 H 0.9233 0.3731 0.2118
H19 H 0.8841 0.3147 0.2397
C30 C 0.7651(3) 0.35796(16) 0.1303(2)
H20 H 0.7435 0.3776 0.1780
H21 H 0.7187 0.3250 0.1026
H22 H 0.7580 0.3836 0.0751
Ca13 Ca 0.98423(3) 0.156862(13) 0.49868(2)
Si2 Si 0.70684(4) 0.509109(18) 0.37959(3)
C33 C 0.78938(13) 0.53890(7) 0.31632(12)
C34 C 0.86220(16) 0.58338(7) 0.35405(14)
H28 H 0.8740 0.5997 0.4174
C35 C 0.91800(16) 0.60433(8) 0.30055(14)
H29 H 0.9676 0.6346 0.3276
C36 C 0.90125(14) 0.58109(7) 0.20763(13)
C37 C 0.83000(14) 0.53626(7) 0.16930(13)
H30 H 0.8191 0.5197 0.1063
C38 C 0.77488(15) 0.51569(7) 0.22299(13)
H31 H 0.7261 0.4851 0.1960
C39 C 0.95848(14) 0.60336(7) 0.14699(13)
O12 O 0.94679(11) 0.57669(5) 0.06745(10)
C40 C 0.56374(13) 0.53164(6) 0.30735(12)
C41 C 0.53458(14) 0.56864(7) 0.22471(14)
H32 H 0.5891 0.5836 0.2075
C42 C 0.42751(14) 0.58380(7) 0.16756(14)
H33 H 0.4099 0.6103 0.1140
C43 C 0.34662(13) 0.56021(7) 0.18880(12)
C44 C 0.37420(14) 0.52376(7) 0.27147(14)
H34 H 0.3193 0.5077 0.2871
C45 C 0.48148(14) 0.51101(7) 0.33065(13)
H35 H 0.4994 0.4876 0.3885
C46 C 0.23049(14) 0.57081(7) 0.12182(13)
C47 C 0.75982(13) 0.53358(6) 0.51416(12)
C48 C 0.85299(17) 0.51026(9) 0.58866(15)
H36 H 0.8879 0.4802 0.5713
C49 C 0.89603(16) 0.52981(9) 0.68752(14)
H37 H 0.9598 0.5131 0.7367
C50 C 0.84677(14) 0.57340(7) 0.71492(12)
C51 C 0.75311(16) 0.59706(8) 0.64238(13)
H38 H 0.7182 0.6269 0.6604
C52 C 0.71026(16) 0.57707(7) 0.54314(13)
H39 H 0.6459 0.5934 0.4943
C53 C 0.89550(14) 0.59516(7) 0.82153(12)
O19 O 0.85183(11) 0.63586(6) 0.84496(10)
O22 O 0.98213(10) 0.57228(5) 0.88459(9)
C54 C 0.72130(14) 0.43041(6) 0.37556(12)
C55 C 0.63611(15) 0.39211(7) 0.34430(14)
H40 H 0.5642 0.4058 0.3199
C56 C 0.65431(15) 0.33399(7) 0.34815(15)
H41 H 0.5953 0.3084 0.3269
C57 C 0.75899(15) 0.31374(7) 0.38317(13)
C58 C 0.84501(15) 0.35112(7) 0.41295(14)
H42 H 0.9167 0.3372 0.4370
C59 C 0.82617(14) 0.40858(7) 0.40764(13)
H43 H 0.8853 0.4339 0.4261
C60 C 0.78519(15) 0.25247(7) 0.39190(14)
O25 O 0.87741(11) 0.23617(5) 0.41743(11)
O28 O 0.70335(11) 0.21792(5) 0.37141(12)
H44 H 0.729(2) 0.1824(4) 0.377(2)
C63 C 0.8926(3) 0.76446(13) 0.0768(3)
H50 H 0.9683 0.7647 0.1285
H51 H 0.8751 0.8032 0.0490
C64 C 0.8225(4) 0.75041(15) 0.1263(3)
H52 H 0.8331 0.7780 0.1799
H53 H 0.7470 0.7513 0.0764
H54 H 0.8402 0.7125 0.1559
O1 O 0.98684(12) 0.35256(6) 0.82710(11)
O26 O 0.87741(11) 0.26383(5) 0.91743(11)
O30 O 0.88463(14) 0.72665(7) 0.99612(14)
Ca5 Ca 0.0000 0.0000 0.5000
Ca5_2 Ca -0.0000 1.0000 0.5000
Ca5_3 Ca 1.0000 0.0000 0.5000
Si2_2 Si 0.29316(4) 0.009109(18) 0.12041(3)
C33_2 C 0.21062(13) 0.03890(7) 0.18368(12)
C34_2 C 0.13780(16) 0.08338(7) 0.14595(14)
H28_2 H 0.1260 0.0997 0.0826
C35_2 C 0.08200(16) 0.10433(8) 0.19945(14)
H29_2 H 0.0324 0.1346 0.1724
C36_2 C 0.09875(14) 0.08109(7) 0.29237(13)
C37_2 C 0.17000(14) 0.03626(7) 0.33070(13)
H30_2 H 0.1809 0.0197 0.3937
C38_2 C 0.22512(15) 0.01569(7) 0.27701(13)
C39_2 C 0.04152(14) 0.10336(7) 0.35301(13)
O12_2 O 0.05321(11) 0.07669(5) 0.43255(10)
C40_2 C 0.43626(13) 0.03164(6) 0.19265(12)
C41_2 C 0.46542(14) 0.06864(7) 0.27529(14)
H32_2 H 0.4109 0.0836 0.2925
C42_2 C 0.57249(14) 0.08380(7) 0.33244(14)
H33_2 H 0.5901 0.1103 0.3860
C43_2 C 0.65338(13) 0.06021(7) 0.31120(12)
C44_2 C 0.62580(14) 0.02376(7) 0.22853(14)
H34_2 H 0.6807 0.0077 0.2129
C45_2 C 0.51852(14) 0.01101(7) 0.16935(13)
C46_2 C 0.76951(14) 0.07081(7) 0.37818(13)
O13 O 0.83100(11) 0.02915(5) 0.39801(11)
O16 O 0.80015(10) 0.12017(5) 0.41211(10)
H39_2 H 0.3541 0.0934 0.0057
O21 O 0.14817(11) 0.13586(6) 0.65504(10)
O24 O 0.01787(10) 0.07228(5) 0.61541(9)
O30_2 O 0.11537(14) 0.22665(7) 0.50388(14)
C63_2 C 0.1074(3) 0.26446(13) 0.4232(3)
H50_2 H 0.0317 0.2647 0.3715
H51_2 H 0.1249 0.3032 0.4510
C64_2 C 0.1775(4) 0.25041(15) 0.3737(3)
H52_2 H 0.1669 0.2780 0.3201
H53_2 H 0.2530 0.2513 0.4236
H54_2 H 0.1598 0.2125 0.3441
C47_2 C 0.24018(13) 0.03358(6) 0.98584(12)
C48_2 C 0.14701(17) 0.01026(9) 0.91134(15)
C49_2 C 0.10397(16) 0.02981(9) 0.81248(14)
H37_2 H 0.0402 0.0131 0.7633
C50_2 C 0.15323(14) 0.07340(7) 0.78508(12)
C51_2 C 0.24689(16) 0.09706(8) 0.85762(13)
H38_2 H 0.2818 0.1269 0.8396
C52_2 C 0.28974(16) 0.07707(7) 0.95686(13)
C53_2 C 0.10450(14) 0.09516(7) 0.67847(12)
O1_2 O 0.01316(12) 0.85256(6) 0.67290(11)
O9_2 O 0.08337(13) 0.81014(6) 0.38090(11)
C29_2 C 0.1227(2) 0.83963(12) 0.3171(2)
H18_2 H 0.0767 0.8731 0.2882
H19_2 H 0.1159 0.8147 0.2603
C30_2 C 0.2349(3) 0.85796(16) 0.3697(2)
H20_2 H 0.2565 0.8776 0.3220
H21_2 H 0.2813 0.8250 0.3974
H22_2 H 0.2420 0.8836 0.4249
Ca5_4 Ca 1.0000 1.0000 0.5000
H31_2 H 0.2739 0.9851 0.3040
H35_2 H 0.5006 0.9876 0.1115
O14 O 0.16900(11) 0.97085(5) 0.60199(11)
O17 O 0.19985(10) 0.87983(5) 0.58789(10)
C54_2 C 0.27870(14) 0.93041(6) 0.12444(12)
C55_2 C 0.36389(15) 0.89211(7) 0.15570(14)
H40_2 H 0.4358 0.9058 0.1801
C56_2 C 0.34569(15) 0.83399(7) 0.15185(15)
H41_2 H 0.4047 0.8084 0.1731
C57_2 C 0.24101(15) 0.81374(7) 0.11683(13)
C58_2 C 0.15499(15) 0.85112(7) 0.08705(14)
H42_2 H 0.0833 0.8372 0.0630
C59_2 C 0.17383(14) 0.90858(7) 0.09236(13)
H43_2 H 0.1147 0.9339 0.0739
C60_2 C 0.21481(15) 0.75247(7) 0.10810(14)
O28_2 O 0.29665(11) 0.71792(5) 0.12859(12)
H44_2 H 0.271(2) 0.6824(4) 0.123(2)
H36_2 H 0.1121 0.9802 0.9287
H9_2 H 0.8879 0.0198 0.0713
H4_2 H 0.7261 0.0149 0.6960
H8_2 H 0.4994 0.0124 0.8885
C22_2 C 0.72130(14) 0.06959(6) 0.87556(12)
C23_2 C 0.63611(15) 0.10789(7) 0.84430(14)
H13_2 H 0.5642 0.0942 0.8199
C24_2 C 0.65431(15) 0.16601(7) 0.84815(15)
H14_2 H 0.5953 0.1916 0.8269
C25_2 C 0.75899(15) 0.18626(7) 0.88317(13)
C26_2 C 0.84501(15) 0.14888(7) 0.91295(14)
H15_2 H 0.9167 0.1628 0.9370
C27_2 C 0.82617(14) 0.09142(7) 0.90764(13)
H16_2 H 0.8853 0.0661 0.9261
C28_2 C 0.78519(15) 0.24753(7) 0.89190(14)
O8_2 O 0.70335(11) 0.28208(5) 0.87141(12)
H17_2 H 0.729(2) 0.3176(4) 0.877(2)
O11_2 O 0.98684(12) 0.14744(6) 0.32710(11)
O29_2 O 0.91663(13) 0.18986(6) 0.61910(11)
C61_2 C 0.8773(2) 0.16037(12) 0.6829(2)
H45_2 H 0.9233 0.1269 0.7118
H46_2 H 0.8841 0.1853 0.7397
C62_2 C 0.7651(3) 0.14204(16) 0.6303(2)
H47_2 H 0.7435 0.1224 0.6780
H48_2 H 0.7187 0.1750 0.6026
H49_2 H 0.7580 0.1164 0.5751
C15_2 C 0.75982(13) 0.96642(6) 0.01416(12)
C16_2 C 0.85299(17) 0.98974(9) 0.08866(15)
C17_2 C 0.89603(16) 0.97019(9) 0.18752(14)
H10_2 H 0.9598 0.9869 0.2367
C18_2 C 0.84677(14) 0.92660(7) 0.21492(12)
C19_2 C 0.75311(16) 0.90294(8) 0.14238(13)
H11_2 H 0.7182 0.8731 0.1604
C20_2 C 0.71026(16) 0.92293(7) 0.04314(13)
C21_2 C 0.89550(14) 0.90484(7) 0.32153(12)
O5 O 0.85183(11) 0.86414(6) 0.34496(10)
O6 O 0.98213(10) 0.92772(5) 0.38459(9)
Si1_2 Si 0.70684(4) 0.990891(18) 0.87959(3)
C1_2 C 0.78938(13) 0.96110(7) 0.81632(12)
C2_2 C 0.86220(16) 0.91662(7) 0.85405(14)
H1_2 H 0.8740 0.9003 0.9174
C3_2 C 0.91800(16) 0.89567(8) 0.80055(14)
H2_2 H 0.9676 0.8654 0.8276
C4_2 C 0.90125(14) 0.91891(7) 0.70763(13)
C5_2 C 0.83000(14) 0.96374(7) 0.66930(13)
H3_2 H 0.8191 0.9803 0.6063
C6_2 C 0.77488(15) 0.98431(7) 0.72299(13)
C7_2 C 0.95848(14) 0.89664(7) 0.64699(13)
O2_2 O 0.94679(11) 0.92331(5) 0.56745(10)
C8_2 C 0.56374(13) 0.96836(6) 0.80735(12)
C9_2 C 0.53458(14) 0.93136(7) 0.72471(14)
H5_2 H 0.5891 0.9164 0.7075
C10_2 C 0.42751(14) 0.91620(7) 0.66756(14)
H6_2 H 0.4099 0.8897 0.6140
C11_2 C 0.34662(13) 0.93979(7) 0.68880(12)
C12_2 C 0.37420(14) 0.97624(7) 0.77147(14)
H7_2 H 0.3193 0.9923 0.7871
C13_2 C 0.48148(14) 0.98899(7) 0.83065(13)
C14_2 C 0.23049(14) 0.92919(7) 0.62182(13)
H12_2 H 0.6459 0.9066 0.9943
O10_2 O 0.88463(14) 0.77335(7) 0.49612(14)
C31_2 C 0.8926(3) 0.73554(13) 0.5768(3)
H23_2 H 0.9683 0.7353 0.6285
H24_2 H 0.8751 0.6968 0.5490
C32_2 C 0.8225(4) 0.74959(15) 0.6263(3)
H25_2 H 0.8331 0.7220 0.6799
H26_2 H 0.7470 0.7487 0.5764
H27_2 H 0.8402 0.7875 0.6559
loop_
_geom_bond_atom_site_label_1
_geom_bond_atom_site_label_2
_geom_bond_site_symmetry_1
_geom_bond_site_symmetry_2
Ca12 O11 1_555 1_555
O15 Ca3 1_555 1_555
O18 Ca12 1_555 1_555
O23 Ca3 1_555 1_555
O27 Ca12 1_555 1_555
Ca3_2 O2 1_555 1_555
Si1 C1 1_555 1_555
C1 C2 1_555 1_555
C2 H1 1_555 1_555
C3 C2 1_555 1_555
H2 C3 1_555 1_555
C4 C3 1_555 1_555
C5 C4 1_555 1_555
H3 C5 1_555 1_555
C6 C1 1_555 1_555
H4 C6 1_555 1_555
C7 C4 1_555 1_555
C8 Si1 1_555 1_555
C9 C8 1_555 1_555
H5 C9 1_555 1_555
C10 C9 1_555 1_555
H6 C10 1_555 1_555
C11 C10 1_555 1_555
C12 C11 1_555 1_555
H7 C12 1_555 1_555
C13 C8 1_555 1_555
H8 C13 1_555 1_555
C14 C11 1_555 1_555
O3 C14 1_555 1_555
O4 C14 1_555 1_555
C15 Si1 1_555 1_555
C16 C15 1_555 1_555
H9 C16 1_555 1_555
C17 C16 1_555 1_555
H10 C17 1_555 1_555
C18 C17 1_555 1_555
C19 C18 1_555 1_555
H11 C19 1_555 1_555
C20 C15 1_555 1_555
H12 C20 1_555 1_555
C21 C18 1_555 1_555
O20 C21 1_555 1_555
O23 C21 1_555 1_555
C22 Si1 1_555 1_555
C23 C22 1_555 1_555
H13 C23 1_555 1_555
C24 C23 1_555 1_555
H14 C24 1_555 1_555
C25 C24 1_555 1_555
C26 C25 1_555 1_555
H15 C26 1_555 1_555
C27 C22 1_555 1_555
H16 C27 1_555 1_555
C28 C25 1_555 1_555
O7 C28 1_555 1_555
O8 C28 1_555 1_555
H17 O8 1_555 1_555
H23 C31 1_555 1_555
H24 C31 1_555 1_555
C32 C31 1_555 1_555
H25 C32 1_555 1_555
H26 C32 1_555 1_555
H27 C32 1_555 1_555
Ca3_4 O3 1_555 1_555
Ca8 O4 1_555 1_555
Ca10 O7 1_555 1_555
C61 O29 1_555 1_555
H45 C61 1_555 1_555
H46 C61 1_555 1_555
C62 C61 1_555 1_555
H47 C62 1_555 1_555
H48 C62 1_555 1_555
H49 C62 1_555 1_555
C5 C6 1_555 1_555
C7 O2 1_555 1_555
C12 C13 1_555 1_555
C19 C20 1_555 1_555
C26 C27 1_555 1_555
C29 O9 1_555 1_555
H18 C29 1_555 1_555
H19 C29 1_555 1_555
C30 C29 1_555 1_555
H20 C30 1_555 1_555
H21 C30 1_555 1_555
H22 C30 1_555 1_555
Ca3_4 O22 1_555 1_555
Ca13 O25 1_555 1_555
Si2 C33 1_555 1_555
C33 C34 1_555 1_555
C34 H28 1_555 1_555
C35 C34 1_555 1_555
H29 C35 1_555 1_555
C36 C35 1_555 1_555
C37 C36 1_555 1_555
H30 C37 1_555 1_555
C38 C33 1_555 1_555
H31 C38 1_555 1_555
C39 C36 1_555 1_555
O12 Ca3_3 1_555 1_555
C40 Si2 1_555 1_555
C41 C40 1_555 1_555
H32 C41 1_555 1_555
C42 C41 1_555 1_555
H33 C42 1_555 1_555
C43 C42 1_555 1_555
C44 C43 1_555 1_555
H34 C44 1_555 1_555
C45 C40 1_555 1_555
H35 C45 1_555 1_555
C46 C43 1_555 1_555
O15 C46 1_555 1_555
O18 C46 1_555 1_555
C47 Si2 1_555 1_555
C48 C47 1_555 1_555
H36 C48 1_555 1_555
C49 C48 1_555 1_555
H37 C49 1_555 1_555
C50 C49 1_555 1_555
C51 C50 1_555 1_555
H38 C51 1_555 1_555
C52 C47 1_555 1_555
H39 C52 1_555 1_555
C53 C50 1_555 1_555
O19 C53 1_555 1_555
C54 Si2 1_555 1_555
C55 C54 1_555 1_555
H40 C55 1_555 1_555
C56 C55 1_555 1_555
H41 C56 1_555 1_555
C57 C56 1_555 1_555
C58 C57 1_555 1_555
H42 C58 1_555 1_555
C59 C54 1_555 1_555
H43 C59 1_555 1_555
C60 C57 1_555 1_555
O25 C60 1_555 1_555
O28 C60 1_555 1_555
H44 O28 1_555 1_555
H50 C63 1_555 1_555
H51 C63 1_555 1_555
C64 C63 1_555 1_555
H52 C64 1_555 1_555
H53 C64 1_555 1_555
H54 C64 1_555 1_555
C37 C38 1_555 1_555
C39 O12 1_555 1_555
C44 C45 1_555 1_555
C51 C52 1_555 1_555
C53 O22 1_555 1_555
C58 C59 1_555 1_555
Ca8 O1 1_555 1_555
O26 Ca8 1_555 1_555
Ca5_3 O13 1_555 1_555
Ca13 O16 1_555 1_555
Si2_2 C33_2 1_555 1_555
C33_2 C34_2 1_555 1_555
C34_2 H28_2 1_555 1_555
C35_2 C34_2 1_555 1_555
H29_2 C35_2 1_555 1_555
C36_2 C35_2 1_555 1_555
C37_2 C36_2 1_555 1_555
H30_2 C37_2 1_555 1_555
C38_2 C33_2 1_555 1_555
C39_2 C36_2 1_555 1_555
O12_2 Ca5 1_555 1_555
C40_2 Si2_2 1_555 1_555
C41_2 C40_2 1_555 1_555
H32_2 C41_2 1_555 1_555
C42_2 C41_2 1_555 1_555
H33_2 C42_2 1_555 1_555
C43_2 C42_2 1_555 1_555
C44_2 C43_2 1_555 1_555
H34_2 C44_2 1_555 1_555
C45_2 C40_2 1_555 1_555
C46_2 C43_2 1_555 1_555
O13 C46_2 1_555 1_555
O16 C46_2 1_555 1_555
O24 Ca5 1_555 1_555
C63_2 O30_2 1_555 1_555
H50_2 C63_2 1_555 1_555
H51_2 C63_2 1_555 1_555
C64_2 C63_2 1_555 1_555
H52_2 C64_2 1_555 1_555
H53_2 C64_2 1_555 1_555
H54_2 C64_2 1_555 1_555
C37_2 C38_2 1_555 1_555
C39_2 O12_2 1_555 1_555
C44_2 C45_2 1_555 1_555
C48_2 C47_2 1_555 1_555
C49_2 C48_2 1_555 1_555
H37_2 C49_2 1_555 1_555
C50_2 C49_2 1_555 1_555
C51_2 C50_2 1_555 1_555
H38_2 C51_2 1_555 1_555
C52_2 C47_2 1_555 1_555
C53_2 C50_2 1_555 1_555
O21 C53_2 1_555 1_555
C51_2 C52_2 1_555 1_555
C53_2 O24 1_555 1_555
Ca10 O1_2 1_555 1_555
O9_2 Ca10 1_555 1_555
C29_2 O9_2 1_555 1_555
H18_2 C29_2 1_555 1_555
H19_2 C29_2 1_555 1_555
C30_2 C29_2 1_555 1_555
H20_2 C30_2 1_555 1_555
H21_2 C30_2 1_555 1_555
H22_2 C30_2 1_555 1_555
O14 Ca5_2 1_555 1_555
O17 Ca10 1_555 1_555
C55_2 C54_2 1_555 1_555
H40_2 C55_2 1_555 1_555
C56_2 C55_2 1_555 1_555
H41_2 C56_2 1_555 1_555
C57_2 C56_2 1_555 1_555
C58_2 C57_2 1_555 1_555
H42_2 C58_2 1_555 1_555
C59_2 C54_2 1_555 1_555
H43_2 C59_2 1_555 1_555
C60_2 C57_2 1_555 1_555
O27 C60_2 1_555 1_555
O28_2 C60_2 1_555 1_555
H44_2 O28_2 1_555 1_555
C58_2 C59_2 1_555 1_555
C23_2 C22_2 1_555 1_555
H13_2 C23_2 1_555 1_555
C24_2 C23_2 1_555 1_555
H14_2 C24_2 1_555 1_555
C25_2 C24_2 1_555 1_555
C26_2 C25_2 1_555 1_555
H15_2 C26_2 1_555 1_555
C27_2 C22_2 1_555 1_555
H16_2 C27_2 1_555 1_555
C28_2 C25_2 1_555 1_555
O26 C28_2 1_555 1_555
O8_2 C28_2 1_555 1_555
H17_2 O8_2 1_555 1_555
Ca13 O11_2 1_555 1_555
O29_2 Ca13 1_555 1_555
C61_2 O29_2 1_555 1_555
H45_2 C61_2 1_555 1_555
H46_2 C61_2 1_555 1_555
C62_2 C61_2 1_555 1_555
H47_2 C62_2 1_555 1_555
H48_2 C62_2 1_555 1_555
H49_2 C62_2 1_555 1_555
C26_2 C27_2 1_555 1_555
C16_2 C15_2 1_555 1_555
C17_2 C16_2 1_555 1_555
H10_2 C17_2 1_555 1_555
C18_2 C17_2 1_555 1_555
C19_2 C18_2 1_555 1_555
H11_2 C19_2 1_555 1_555
C20_2 C15_2 1_555 1_555
C21_2 C18_2 1_555 1_555
O5 C21_2 1_555 1_555
O6 C21_2 1_555 1_555
Ca5_4 O6 1_555 1_555
C19_2 C20_2 1_555 1_555
Ca5_4 O2_2 1_555 1_555
Si1_2 C1_2 1_555 1_555
C1_2 C2_2 1_555 1_555
C2_2 H1_2 1_555 1_555
C3_2 C2_2 1_555 1_555
H2_2 C3_2 1_555 1_555
C4_2 C3_2 1_555 1_555
C5_2 C4_2 1_555 1_555
H3_2 C5_2 1_555 1_555
C6_2 C1_2 1_555 1_555
C7_2 C4_2 1_555 1_555
C8_2 Si1_2 1_555 1_555
C9_2 C8_2 1_555 1_555
H5_2 C9_2 1_555 1_555
C10_2 C9_2 1_555 1_555
H6_2 C10_2 1_555 1_555
C11_2 C10_2 1_555 1_555
C12_2 C11_2 1_555 1_555
H7_2 C12_2 1_555 1_555
C13_2 C8_2 1_555 1_555
C14_2 C11_2 1_555 1_555
O14 C14_2 1_555 1_555
O17 C14_2 1_555 1_555
C31_2 O10_2 1_555 1_555
H23_2 C31_2 1_555 1_555
H24_2 C31_2 1_555 1_555
C32_2 C31_2 1_555 1_555
H25_2 C32_2 1_555 1_555
H26_2 C32_2 1_555 1_555
H27_2 C32_2 1_555 1_555
C5_2 C6_2 1_555 1_555
C7_2 O2_2 1_555 1_555
C12_2 C13_2 1_555 1_555

#END
