
###############################################################################
#
# This file contains modified crystal structure data generated from the
# MOF subset of the Cambridge Structural Database (CSD) v543 
# hosted by the Cambridge Crystallographic Data Centre (CCDC).
#
# This work is licensed under the Creative Commons
# Attribution-NonCommercial-ShareAlike 4.0 International License.
# To view a copy of this license, visit
# http://creativecommons.org/licenses/by-nc-sa/4.0/
# or send a letter to
# Creative Commons, PO Box 1866, Mountain View, CA 94042, USA.
#
# CIF created using the CSD Python API on 29 September 2022
# The structure has been converted into the P1 space group
# The structure has a 3D framework
# The original CSD entry CAQHOU is in the monoclinic crystal system
# The framework has been calculated to contain at least 10.0% void space
# The void calculation uses a probe of radius 1.32A, grid spacing 0.4
# H atom positions have been added when not included in the experimental data
# Generated hydrogen atom positions removed from atoms on special positions
#
###############################################################################

data_CAQHOU
_chemical_formula_moiety         '(C32 H28 O25 Tb3)n'
_symmetry_cell_setting           triclinic
_symmetry_space_group_name_H-M   'P 1'
_symmetry_Int_Tables_number      1
_space_group_name_Hall           'P 1'
loop_
_symmetry_equiv_pos_site_id
_symmetry_equiv_pos_as_xyz
1 x,y,z
_cell_length_a                   12.3720(10)
_cell_length_b                   6.5373(4)
_cell_length_c                   16.4809(12)
_cell_angle_alpha                90
_cell_angle_beta                 99.121(5)
_cell_angle_gamma                90
_cell_volume                     1316.11
loop_
_atom_site_label
_atom_site_type_symbol
_atom_site_fract_x
_atom_site_fract_y
_atom_site_fract_z
Tb3 Tb 0.65734(9) 0.08206(17) 0.21733(6)
O1 O 0.6056(17) 0.263(3) 0.3262(11)
O2 O 0.6991(13) 0.554(3) 0.3556(9)
O3 O 0.660(2) 0.780(3) 0.4763(14)
H1 H 0.6991 0.7363 0.4429
O5 O 0.7068(13) 0.405(3) 0.1823(9)
O6 O 0.6747(13) 0.727(3) 0.1795(9)
O7 O 0.5410(14) 0.171(2) 0.1069(9)
C1 C 0.627(2) 0.428(4) 0.3693(14)
C2 C 0.562(2) 0.465(4) 0.4366(15)
C3 C 0.581(2) 0.640(4) 0.4850(15)
C4 C 0.483(2) 0.329(4) 0.4536(16)
H2 H 0.4720 0.2073 0.4217
C5 C 0.6492(17) 0.564(4) 0.1495(12)
C6 C 0.571(2) 0.526(4) 0.0731(16)
C7 C 0.524(2) 0.326(4) 0.0546(17)
O8 O 0.3944(17) 0.737(3) 0.6738(11)
O9 O 0.3009(13) 0.446(3) 0.6444(9)
O10 O 0.340(2) 0.220(3) 0.5237(14)
H4 H 0.3009 0.2637 0.5571
C9 C 0.373(2) 0.572(4) 0.6307(14)
C10 C 0.438(2) 0.535(4) 0.5634(15)
C11 C 0.419(2) 0.360(4) 0.5150(15)
C12 C 0.517(2) 0.671(4) 0.5464(16)
H5 H 0.5280 0.7927 0.5783
C16 C 0.544(2) 0.692(4) 0.0215(15)
H6 H 0.5722 0.8226 0.0385
Tb4 Tb 0.84266(9) 0.58206(17) 0.28267(6)
Tb6 Tb 0.34266(9) 0.91794(17) 0.78267(6)
Tb8 Tb 0.15734(9) 0.41794(17) 0.71733(6)
O16 O 0.8009(13) 0.054(3) 0.1444(9)
O22 O 0.8253(13) 0.227(3) 0.3205(9)
C8 C 0.456(2) 0.308(4) 0.9785(15)
H3 H 0.4278 0.1774 0.9615
O11 O 0.2932(13) 0.595(3) 0.8177(9)
O12 O 0.3253(13) 0.273(3) 0.8205(9)
O13 O 0.4590(14) 0.829(2) 0.8931(9)
C13 C 0.3508(17) 0.436(4) 0.8505(12)
C14 C 0.429(2) 0.474(4) 0.9269(16)
C15 C 0.476(2) 0.674(4) 0.9454(17)
O14 O 0.4828(15) 0.102(3) 0.7344(11)
O20 O 0.2068(13) 0.095(3) 0.6823(9)
O4 O 0.5172(15) 0.898(3) 0.2656(11)
O18 O 0.7932(13) 0.905(3) 0.3177(9)
O17 O 0.1991(13) 0.946(3) 0.8556(9)
O23 O 0.1747(13) 0.773(3) 0.6795(9)
O13_2 O 0.0410(14) 0.329(2) 0.6069(9)
C15_2 C 0.024(2) 0.174(4) 0.5546(17)
O8_2 O 0.1056(17) 0.237(3) 0.8262(11)
C9_2 C 0.127(2) 0.072(4) 0.8693(14)
C10_2 C 0.062(2) 0.035(4) 0.9366(15)
C4_2 C 0.017(2) 0.829(4) 0.0464(16)
H2_2 H 0.0280 0.7073 0.0783
C8_2 C 0.044(2) 0.808(4) 0.5215(15)
H3_2 H 0.0722 0.6774 0.5385
C13_2 C 0.1492(17) 0.936(4) 0.6495(12)
C14_2 C 0.071(2) 0.974(4) 0.5731(16)
O14_2 O 0.0172(15) 0.602(3) 0.7656(11)
H7 H 0.0497873 0.483735 0.23945
O10_2 O 0.160(2) 0.720(3) 0.9763(14)
H4_2 H 0.1991 0.7637 0.9429
C11_2 C 0.081(2) 0.860(4) 0.9850(15)
O3_2 O 0.840(2) 0.280(3) 0.0237(14)
H1_2 H 0.8009 0.2363 0.0571
C3_2 C 0.919(2) 0.140(4) 0.0150(15)
C5_2 C 0.8508(17) 0.064(4) 0.3505(12)
C6_2 C 0.929(2) 0.026(4) 0.4269(16)
C16_2 C 0.956(2) 0.192(4) 0.4785(15)
H6_2 H 0.9278 0.3226 0.4615
C12_2 C 0.983(2) 0.171(4) 0.9536(16)
H5_2 H 0.9720 0.2927 0.9217
O1_2 O 0.8944(17) 0.763(3) 0.1738(11)
O4_2 O 0.9828(15) 0.398(3) 0.2344(11)
O7_2 O 0.9590(14) 0.671(2) 0.3931(9)
C1_2 C 0.873(2) 0.928(4) 0.1307(14)
C2_2 C 0.938(2) 0.965(4) 0.0634(15)
C7_2 C 0.976(2) 0.826(4) 0.4454(17)
H8 H 0.998754 0.271529 0.267504
H9 H 0.969783 0.667729 0.718541
H10 H 0.972657 0.507211 0.793864
H8_2 H 0.00124599 0.728471 0.732496
H9_2 H 0.0302165 0.332271 0.281459
H10_2 H 0.0273432 0.492789 0.206136
H7_2 H 0.950213 0.516265 0.76055
loop_
_geom_bond_atom_site_label_1
_geom_bond_atom_site_label_2
_geom_bond_site_symmetry_1
_geom_bond_site_symmetry_2
Tb3 O1 1_555 1_555
O1 C1 1_555 1_555
O2 C1 1_555 1_555
O3 H1 1_555 1_555
O5 Tb3 1_555 1_555
O6 C5 1_555 1_555
O7 Tb3 1_555 1_555
C1 C2 1_555 1_555
C2 C3 1_555 1_555
C3 O3 1_555 1_555
C4 C2 1_555 1_555
H2 C4 1_555 1_555
C5 O5 1_555 1_555
C6 C5 1_555 1_555
C7 O7 1_555 1_555
O8 C9 1_555 1_555
O9 C9 1_555 1_555
O10 H4 1_555 1_555
C9 C10 1_555 1_555
C10 C11 1_555 1_555
C11 C4 1_555 1_555
C12 C3 1_555 1_555
H5 C12 1_555 1_555
C16 C6 1_555 1_555
H6 C16 1_555 1_555
Tb4 O2 1_555 1_555
Tb6 O8 1_555 1_555
Tb8 O9 1_555 1_555
O16 Tb3 1_555 1_555
O22 Tb3 1_555 1_555
O5 Tb4 1_555 1_555
O6 Tb4 1_555 1_555
C6 C7 1_555 1_555
O10 C11 1_555 1_555
C10 C12 1_555 1_555
Tb4 O22 1_555 1_555
H3 C8 1_555 1_555
O11 C13 1_555 1_555
O12 C13 1_555 1_555
O13 C15 1_555 1_555
C13 C14 1_555 1_555
C14 C8 1_555 1_555
C15 C14 1_555 1_555
Tb6 O11 1_555 1_555
Tb8 O11 1_555 1_555
O12 Tb8 1_555 1_555
O13 Tb6 1_555 1_555
Tb8 O20 1_555 1_555
O17 Tb6 1_555 1_555
O23 Tb6 1_555 1_555
O13_2 C15_2 1_555 1_555
O13_2 Tb8 1_555 1_555
O8_2 C9_2 1_555 1_555
C9_2 C10_2 1_555 1_555
Tb8 O8_2 1_555 1_555
H2_2 C4_2 1_555 1_555
H3_2 C8_2 1_555 1_555
O23 C13_2 1_555 1_555
C13_2 C14_2 1_555 1_555
C14_2 C8_2 1_555 1_555
Tb8 O23 1_555 1_555
O14_2 Tb8 1_555 1_555
O10_2 H4_2 1_555 1_555
O10_2 C11_2 1_555 1_555
O3_2 H1_2 1_555 1_555
O22 C5_2 1_555 1_555
C3_2 O3_2 1_555 1_555
C6_2 C5_2 1_555 1_555
C16_2 C6_2 1_555 1_555
H6_2 C16_2 1_555 1_555
H5_2 C12_2 1_555 1_555
Tb4 O1_2 1_555 1_555
O1_2 C1_2 1_555 1_555
O4_2 Tb4 1_555 1_555
O18 Tb4 1_555 1_555
O7_2 Tb4 1_555 1_555
C1_2 C2_2 1_555 1_555
C7_2 O7_2 1_555 1_555
O4_2 H8 1_555 1_555
O14_2 H8_2 1_555 1_555

#END
