
###############################################################################
#
# This file contains modified crystal structure data generated from the
# MOF subset of the Cambridge Structural Database (CSD) v543 
# hosted by the Cambridge Crystallographic Data Centre (CCDC).
#
# This work is licensed under the Creative Commons
# Attribution-NonCommercial-ShareAlike 4.0 International License.
# To view a copy of this license, visit
# http://creativecommons.org/licenses/by-nc-sa/4.0/
# or send a letter to
# Creative Commons, PO Box 1866, Mountain View, CA 94042, USA.
#
# CIF created using the CSD Python API on 29 September 2022
# The structure has been converted into the P1 space group
# The structure has a 3D framework
# The original CSD entry CAQKAJ01 is in the triclinic crystal system
# The framework has been calculated to contain at least 10.0% void space
# The void calculation uses a probe of radius 1.32A, grid spacing 0.4
# H atom positions have been added when not included in the experimental data
# Generated hydrogen atom positions removed from atoms on special positions
#
###############################################################################

data_CAQKAJ01
_chemical_formula_moiety         '(C44 H30 Co5 O24)n'
_symmetry_cell_setting           triclinic
_symmetry_space_group_name_H-M   'P 1'
_symmetry_Int_Tables_number      1
_space_group_name_Hall           'P 1'
loop_
_symmetry_equiv_pos_site_id
_symmetry_equiv_pos_as_xyz
1 x,y,z
_cell_length_a                   9.8241(4)
_cell_length_b                   11.2723(5)
_cell_length_c                   14.6115(6)
_cell_angle_alpha                70.244(4)
_cell_angle_beta                 73.930(4)
_cell_angle_gamma                85.240(4)
_cell_volume                     1463.23
loop_
_atom_site_label
_atom_site_type_symbol
_atom_site_fract_x
_atom_site_fract_y
_atom_site_fract_z
C27 C 0.0349(5) 0.0180(4) 0.5785(3)
H14 H 0.0575 0.0314 0.6320
Co7 Co 0.0000 0.5000 0.5000
Co10 Co 0.5000 0.5000 0.0000
O1 O 0.0136(3) 0.6706(3) 0.5188(2)
O7 O 0.1418(4) 0.7792(3) 0.3642(2)
C2 C 0.0401(4) 0.8900(4) 0.4775(3)
C5 C 0.0695(4) 0.7705(4) 0.4503(3)
O14 O 0.4181(4) 0.5953(4) 0.8832(3)
O15 O 0.5524(4) 0.5496(3) 0.7493(3)
C23 C 0.1655(4) 0.8144(4) 0.6203(3)
C25 C 0.0782(4) 0.9060(4) 0.5583(3)
C28 C 0.2761(5) 0.7478(4) 0.5779(3)
H15 H 0.2914 0.7532 0.5109
C29 C 0.3637(5) 0.6739(4) 0.6335(3)
H16 H 0.4362 0.6291 0.6041
C30 C 0.3437(5) 0.6663(4) 0.7340(3)
C31 C 0.1415(6) 0.8018(5) 0.7215(4)
H17 H 0.0649 0.8420 0.7520
C32 C 0.4463(5) 0.5979(4) 0.7928(3)
C33 C 0.2307(6) 0.7299(5) 0.7773(4)
H18 H 0.2147 0.7241 0.8445
Co10_2 Co 0.5000 0.5000 1.0000
Co12 Co 0.74612(6) 0.49246(5) 0.77322(4)
C14 C 0.5792(5) 0.0479(4) 0.0441(3)
H8 H 0.6333 0.0806 0.0733
O17 O 0.1161(3) 0.4193(3) 0.6010(2)
O18 O 0.6845(4) 0.3084(3) 0.8591(3)
O19 O 0.3311(4) 0.4356(4) 0.4962(3)
O20 O 0.4890(4) 0.3294(3) 0.9741(3)
C34 C 0.2470(5) 0.3949(4) 0.5808(3)
C35 C 0.4049(5) 0.1604(4) 0.8262(3)
C36 C 0.3026(5) 0.3122(4) 0.6660(3)
C37 C 0.4565(5) 0.0795(4) 0.9153(3)
C39 C 0.5362(5) 0.1285(4) 0.9607(3)
C40 C 0.4944(5) 0.2411(5) 0.7420(4)
H20 H 0.5899 0.2449 0.7387
C41 C 0.4436(5) 0.3166(5) 0.6624(4)
H21 H 0.5052 0.3709 0.6059
C42 C 0.5727(5) 0.2680(4) 0.9275(3)
C43 C 0.2123(6) 0.2272(5) 0.7499(4)
H22 H 0.1173 0.2218 0.7525
C44 C 0.2633(6) 0.1517(5) 0.8287(4)
H23 H 0.2030 0.0945 0.8840
Co3 Co 0.25388(6) 0.50754(5) 0.22678(4)
O2 O 0.1928(3) 0.5470(3) 0.3658(2)
O3 O 0.8839(3) 0.5807(3) 0.3990(2)
O4 O 0.5819(4) 0.4047(4) 0.1168(3)
O5 O 0.3155(4) 0.6916(3) 0.1409(3)
O6 O 0.4476(4) 0.4504(3) 0.2507(3)
O8 O 0.6689(4) 0.5644(4) 0.5038(3)
O9 O 0.5110(4) 0.6706(3) 0.0259(3)
O10 O 0.2808(4) 0.4635(4) 0.0893(3)
O11 O 0.0417(5) 0.5500(6) 0.2243(4)
H1 H 0.0346 0.5691 0.1641
H2 H 0.0158 0.6126 0.2453
C1 C 0.8345(4) 0.1856(4) 0.3797(3)
O12 O 0.1826(6) 0.3221(4) 0.3092(4)
C3 C 0.9218(4) 0.0940(4) 0.4417(3)
C4 C 0.7530(5) 0.6051(4) 0.4192(3)
C7 C 0.5951(5) 0.8396(4) 0.1738(3)
C8 C 0.6974(5) 0.6878(4) 0.3340(3)
C9 C 0.5435(5) 0.9205(4) 0.0847(3)
C10 C 0.7239(5) 0.2522(4) 0.4221(3)
H5 H 0.7086 0.2468 0.4891
C11 C 0.6363(5) 0.3261(4) 0.3665(3)
H6 H 0.5638 0.3709 0.3959
C12 C 0.6563(5) 0.3337(4) 0.2660(3)
C13 C 0.8585(6) 0.1982(5) 0.2785(4)
H7 H 0.9351 0.1580 0.2480
C15 C 0.5537(5) 0.4021(4) 0.2072(3)
C16 C 0.4638(5) 0.8715(4) 0.0393(3)
C17 C 0.5056(5) 0.7589(5) 0.2580(4)
H9 H 0.4101 0.7551 0.2613
C18 C 0.5564(5) 0.6834(5) 0.3376(4)
H10 H 0.4948 0.6291 0.3941
C19 C 0.4273(5) 0.7320(4) 0.0725(3)
C20 C 0.7693(6) 0.2701(5) 0.2227(4)
H11 H 0.7853 0.2759 0.1555
C21 C 0.7877(6) 0.7728(5) 0.2501(4)
H12 H 0.8827 0.7782 0.2475
C22 C 0.7367(6) 0.8483(5) 0.1713(4)
H13 H 0.7970 0.9055 0.1160
O13 O 0.9864(3) 0.3294(3) 0.4812(2)
O16 O 0.8582(4) 0.2208(3) 0.6358(2)
C24 C 0.9599(4) 0.1100(4) 0.5225(3)
C26 C 0.9305(4) 0.2295(4) 0.5497(3)
Co7_2 Co 1.0000 0.5000 0.5000
C38 C 0.4208(5) 0.9521(4) 0.9559(3)
H19 H 0.3667 0.9194 0.9267
O33 O 0.7192(4) 0.5365(4) 0.9107(3)
C6 C 0.9651(5) 0.9820(4) 0.4215(3)
H4 H 0.9425 0.9686 0.3680
O21 O 0.8072(3) 0.4530(3) 0.6342(2)
O23 O 0.9583(5) 0.4500(6) 0.7757(4)
H24 H 0.9654 0.4309 0.8359
H25 H 0.9842 0.3874 0.7547
O24 O 0.8174(6) 0.6779(4) 0.6908(4)
loop_
_geom_bond_atom_site_label_1
_geom_bond_atom_site_label_2
_geom_bond_site_symmetry_1
_geom_bond_site_symmetry_2
H14 C27 1_555 1_555
O1 C5 1_555 1_555
O7 C5 1_555 1_555
C2 C5 1_555 1_555
O14 C32 1_555 1_555
O15 C32 1_555 1_555
C23 C25 1_555 1_555
C25 C2 1_555 1_555
C28 C23 1_555 1_555
H15 C28 1_555 1_555
C29 C28 1_555 1_555
H16 C29 1_555 1_555
C30 C29 1_555 1_555
C31 C23 1_555 1_555
H17 C31 1_555 1_555
C32 C30 1_555 1_555
C33 C30 1_555 1_555
H18 C33 1_555 1_555
Co7 O1 1_555 1_555
Co10_2 O14 1_555 1_555
Co12 O15 1_555 1_555
C31 C33 1_555 1_555
C14 H8 1_555 1_555
O17 C34 1_555 1_555
O18 C42 1_555 1_555
O19 C34 1_555 1_555
O20 C42 1_555 1_555
C34 C36 1_555 1_555
C35 C37 1_555 1_555
C36 C41 1_555 1_555
C40 C35 1_555 1_555
H20 C40 1_555 1_555
C41 C40 1_555 1_555
H21 C41 1_555 1_555
C42 C39 1_555 1_555
C43 C36 1_555 1_555
H22 C43 1_555 1_555
C44 C35 1_555 1_555
H23 C44 1_555 1_555
Co7 O17 1_555 1_555
Co10_2 O20 1_555 1_555
Co12 O18 1_555 1_555
C37 C39 1_555 1_555
C43 C44 1_555 1_555
Co7 O2 1_555 1_555
Co10 O4 1_555 1_555
Co3 O2 1_555 1_555
O3 C4 1_555 1_555
O4 C15 1_555 1_555
O5 Co3 1_555 1_555
O6 Co3 1_555 1_555
O8 C4 1_555 1_555
O9 Co10 1_555 1_555
O10 Co10 1_555 1_555
O11 Co3 1_555 1_555
H1 O11 1_555 1_555
H2 O11 1_555 1_555
C1 C3 1_555 1_555
O12 Co3 1_555 1_555
C4 C8 1_555 1_555
C7 C9 1_555 1_555
C8 C18 1_555 1_555
C10 C1 1_555 1_555
H5 C10 1_555 1_555
C11 C10 1_555 1_555
H6 C11 1_555 1_555
C12 C11 1_555 1_555
C13 C1 1_555 1_555
H7 C13 1_555 1_555
C15 O6 1_555 1_555
C16 C9 1_555 1_555
C17 C7 1_555 1_555
H9 C17 1_555 1_555
C18 C17 1_555 1_555
H10 C18 1_555 1_555
C19 O5 1_555 1_555
C20 C12 1_555 1_555
H11 C20 1_555 1_555
C21 C8 1_555 1_555
H12 C21 1_555 1_555
C22 C7 1_555 1_555
H13 C22 1_555 1_555
O13 C26 1_555 1_555
O16 C26 1_555 1_555
C24 C3 1_555 1_555
C26 C24 1_555 1_555
Co7_2 O3 1_555 1_555
Co3 O10 1_555 1_555
O9 C19 1_555 1_555
C12 C15 1_555 1_555
C13 C20 1_555 1_555
C16 C19 1_555 1_555
C21 C22 1_555 1_555
O13 Co7_2 1_555 1_555
H19 C38 1_555 1_555
O33 Co10_2 1_555 1_555
H4 C6 1_555 1_555
Co12 O21 1_555 1_555
O21 Co7_2 1_555 1_555
O33 Co12 1_555 1_555
O23 Co12 1_555 1_555
H24 O23 1_555 1_555
H25 O23 1_555 1_555
O24 Co12 1_555 1_555

#END
