
###############################################################################
#
# This file contains modified crystal structure data generated from the
# MOF subset of the Cambridge Structural Database (CSD) v543 
# hosted by the Cambridge Crystallographic Data Centre (CCDC).
#
# This work is licensed under the Creative Commons
# Attribution-NonCommercial-ShareAlike 4.0 International License.
# To view a copy of this license, visit
# http://creativecommons.org/licenses/by-nc-sa/4.0/
# or send a letter to
# Creative Commons, PO Box 1866, Mountain View, CA 94042, USA.
#
# CIF created using the CSD Python API on 29 September 2022
# The structure has been converted into the P1 space group
# The structure has a 3D framework
# The original CSD entry CAQVOI24 is in the triclinic crystal system
# The framework has been calculated to contain at least 10.0% void space
# The void calculation uses a probe of radius 1.32A, grid spacing 0.4
#
###############################################################################

data_CAQVOI24
_chemical_formula_moiety         '(C36 H40 N4 O22 Tb2)n'
_symmetry_cell_setting           triclinic
_symmetry_space_group_name_H-M   'P 1'
_symmetry_Int_Tables_number      1
_space_group_name_Hall           'P 1'
loop_
_symmetry_equiv_pos_site_id
_symmetry_equiv_pos_as_xyz
1 x,y,z
_cell_length_a                   10.6338(6)
_cell_length_b                   11.1768(5)
_cell_length_c                   11.3943(5)
_cell_angle_alpha                96.944(4)
_cell_angle_beta                 110.943(5)
_cell_angle_gamma                101.427(4)
_cell_volume                     1212.21
loop_
_atom_site_label
_atom_site_type_symbol
_atom_site_fract_x
_atom_site_fract_y
_atom_site_fract_z
_atom_site_U_iso_or_equiv
_atom_site_thermal_displace_type
Tb4 Tb 0.10720(3) 0.53532(3) 0.69956(3) 0.0312 Uani
C27 C 0.6984(8) 0.2403(8) 0.1402(9) 0.0346 Uani
C28 C 0.5984(8) 0.1145(9) 0.0688(9) 0.0409 Uani
C29 C 0.6376(9) 0.0306(10) 0.0074(12) 0.0540 Uani
H25 H 0.729509 0.049876 0.009242 0.0650 Uiso
C30 C 0.4571(9) 0.0905(10) 0.0629(11) 0.0533 Uani
O18 O 0.4060(8) 0.1800(9) 0.1187(11) 0.0828 Uani
H26 H 0.472185 0.242730 0.162736 0.1230 Uiso
O19 O 0.8145(6) 0.2694(6) 0.1296(6) 0.0389 Uani
O20 O 0.6630(6) 0.3150(6) 0.2091(7) 0.0460 Uani
Tb7 Tb 0.89280(3) 0.46468(3) 0.30044(3) 0.0312 Uani
C2 C 0.2050(8) 0.4853(8) 0.4310(9) 0.0367 Uani
C3 C 0.3575(8) 0.4941(9) 0.4663(8) 0.0358 Uani
C5 C 0.4507(9) 0.5373(11) 0.5938(9) 0.0460 Uani
H1 H 0.417814 0.564150 0.657105 0.0550 Uiso
C6 C 0.5939(9) 0.5419(11) 0.6305(9) 0.0477 Uani
C7 C 0.3016(8) 0.7597(8) 0.8598(9) 0.0346 Uani
C8 C 0.0036(10) 0.0736(10) 0.6092(10) 0.0429 Uani
H2 H 0.005759 0.123868 0.683695 0.0510 Uiso
C10 C 0.0503(13) 0.1779(13) 0.9924(14) 0.0610 Uani
H5 H 0.002437 0.098277 0.930404 0.0920 Uiso
C11 C 0.4016(8) 0.8855(9) 0.9312(9) 0.0409 Uani
C12 C 0.3624(9) 0.9694(10) 0.9926(12) 0.0540 Uani
H6 H 0.270491 0.950124 0.990758 0.0650 Uiso
C13 C 0.3100(12) 0.3296(11) 0.7213(12) 0.0668 Uani
H7 H 0.241539 0.280983 0.641512 0.0800 Uiso
C14 C 0.5429(9) 0.9095(10) 0.9371(11) 0.0533 Uani
C16 C 0.1177(12) 0.3729(14) 0.9343(12) 0.0557 Uani
H11 H 0.211510 0.372501 0.981234 0.0670 Uiso
C17 C 0.436(2) 0.177(2) 0.705(2) 0.1301 Uani
H12 H 0.525176 0.160335 0.753625 0.1950 Uiso
H13 H 0.359266 0.106795 0.696628 0.1950 Uiso
H14 H 0.431206 0.186591 0.619212 0.1950 Uiso
C18 C 0.5318(16) 0.367(2) 0.8936(17) 0.0984 Uani
H15 H 0.609213 0.327093 0.919360 0.1480 Uiso
H16 H 0.565554 0.450908 0.882672 0.1480 Uiso
H17 H 0.493622 0.371129 0.960106 0.1480 Uiso
N1 N 0.0205(9) 0.2793(9) 0.9290(9) 0.0490 Uani
N2 N 0.4240(11) 0.2933(12) 0.7735(12) 0.0737 Uani
O1 O 0.5940(8) 0.8200(9) 0.8813(11) 0.0828 Uani
H18 H 0.527815 0.757270 0.837264 0.1230 Uiso
O3 O 0.1597(6) 0.5051(6) 0.5177(7) 0.0401 Uani
O5 O 0.0976(8) 0.4646(8) 0.8818(7) 0.0523 Uani
O6 O 0.1224(6) 0.4577(7) 0.3109(7) 0.0410 Uani
O7 O 0.1855(6) 0.7306(6) 0.8704(6) 0.0389 Uani
O8 O 0.3370(6) 0.6850(6) 0.7909(7) 0.0460 Uani
O10 O 0.2866(7) 0.4235(8) 0.7701(8) 0.0577 Uani
O11 O 0.6797(7) 0.5832(10) 0.7572(7) 0.0636 Uani
H20 H 0.761491 0.581998 0.766902 0.0950 Uiso
C23 C 0.7950(8) 0.5147(8) 0.5690(9) 0.0367 Uani
C24 C 0.6425(8) 0.5059(9) 0.5337(8) 0.0358 Uani
C25 C 0.5493(9) 0.4627(11) 0.4062(9) 0.0460 Uani
H23 H 0.582186 0.435850 0.342895 0.0550 Uiso
C26 C 0.4061(9) 0.4581(11) 0.3695(9) 0.0477 Uani
O15 O 0.8403(6) 0.4949(6) 0.4823(7) 0.0401 Uani
O16 O 0.8776(6) 0.5423(7) 0.6891(7) 0.0410 Uani
O17 O 0.3203(7) 0.4168(10) 0.2428(7) 0.0636 Uani
H24 H 0.238509 0.418002 0.233098 0.0950 Uiso
O25 O 0.0717(6) 0.7136(6) 0.6081(6) 0.0386 Uani
C9 C 0.0248(10) 0.9549(9) 0.6148(9) 0.0400 Uani
O9 O 0.0469(9) 0.9188(8) 0.7299(7) 0.0534 Uani
H19 H 0.056468 0.845745 0.723166 0.0800 Uiso
C19 C 0.0208(8) 0.8790(8) 0.5035(9) 0.0368 Uani
C20 C 0.0362(8) 0.7478(8) 0.5011(10) 0.0380 Uani
O12 O 0.0088(6) 0.6785(6) 0.3933(6) 0.0372 Uani
C33 C 0.1270(12) 0.7248(15) 0.1411(14) 0.0677 Uani
H31 H 0.168961 0.705860 0.079583 0.1020 Uiso
H32 H 0.176899 0.808229 0.194879 0.1020 Uiso
H33 H 0.133374 0.662895 0.195619 0.1020 Uiso
C1 C 0.9792(8) 0.1210(8) 0.4965(9) 0.0368 Uani
C4 C 0.9638(8) 0.2522(8) 0.4989(10) 0.0380 Uani
C15 C 0.8730(12) 0.2752(15) 0.8589(14) 0.0677 Uani
H8 H 0.831039 0.294140 0.920417 0.1020 Uiso
H9 H 0.823101 0.191771 0.805121 0.1020 Uiso
H10 H 0.866626 0.337105 0.804381 0.1020 Uiso
O2 O 0.9912(6) 0.3215(6) 0.6067(6) 0.0372 Uani
O4 O 0.9283(6) 0.2864(6) 0.3919(6) 0.0386 Uani
C22 C 0.9752(10) 0.0451(9) 0.3852(9) 0.0400 Uani
O14 O 0.9531(9) 0.0812(8) 0.2701(7) 0.0534 Uani
H22 H 0.943532 0.154255 0.276834 0.0800 Uiso
C21 C 0.9964(10) 0.9264(10) 0.3908(10) 0.0429 Uani
H21 H 0.994241 0.876132 0.316305 0.0510 Uiso
C31 C 0.9497(13) 0.8221(13) 0.0076(14) 0.0610 Uani
H29 H 0.997563 0.901723 0.069596 0.0920 Uiso
C32 C 0.6900(12) 0.6704(11) 0.2787(12) 0.0668 Uani
H30 H 0.758461 0.719017 0.358488 0.0800 Uiso
C34 C 0.8823(12) 0.6271(14) 0.0657(12) 0.0557 Uani
H34 H 0.788490 0.627499 0.018766 0.0670 Uiso
C35 C 0.564(2) 0.823(2) 0.295(2) 0.1301 Uani
H35 H 0.474824 0.839665 0.246375 0.1950 Uiso
H36 H 0.640734 0.893205 0.303372 0.1950 Uiso
H37 H 0.568794 0.813409 0.380788 0.1950 Uiso
C36 C 0.4682(16) 0.633(2) 0.1064(17) 0.0984 Uani
H38 H 0.390787 0.672907 0.080640 0.1480 Uiso
H39 H 0.434446 0.549092 0.117328 0.1480 Uiso
H40 H 0.506378 0.628871 0.039894 0.1480 Uiso
N3 N 0.9795(9) 0.7207(9) 0.0710(9) 0.0490 Uani
N4 N 0.5760(11) 0.7067(12) 0.2265(12) 0.0737 Uani
O21 O 0.9024(8) 0.5354(8) 0.1182(7) 0.0523 Uani
O22 O 0.7134(7) 0.5765(8) 0.2299(8) 0.0577 Uani
H3 H 0.017685 0.179721 0.062662 0.0920 Uiso
H4 H 0.151115 0.186679 0.026970 0.0920 Uiso
H27 H 0.982315 0.820279 0.937338 0.0920 Uiso
H28 H 0.848885 0.813321 0.973030 0.0920 Uiso
loop_
_atom_site_aniso_label
_atom_site_aniso_U_11
_atom_site_aniso_U_22
_atom_site_aniso_U_33
_atom_site_aniso_U_23
_atom_site_aniso_U_13
_atom_site_aniso_U_12
Tb4 0.022 0.0217 0.0356 -0.0027 -0.00124 0.00344
C27 0.027 0.022 0.038 -0.003 -0.003 0.005
C28 0.028 0.029 0.045 -0.008 0 -0.001
C29 0.027 0.041 0.073 -0.016 0.008 0.002
C30 0.029 0.04 0.07 -0.02 0.009 0.002
O18 0.038 0.058 0.122 -0.042 0.024 -0.003
O19 0.031 0.031 0.038 -0.004 0 0.004
O20 0.028 0.032 0.057 -0.014 0.003 0.002
Tb7 0.022 0.0217 0.0356 -0.0027 -0.00124 0.00344
C2 0.022 0.03 0.047 -0.005 0.007 0.003
C3 0.024 0.036 0.037 0.002 0.001 0.009
C5 0.033 0.062 0.038 0 0.01 0.015
C6 0.03 0.06 0.035 -0.014 0 0.011
C7 0.027 0.022 0.038 -0.003 -0.003 0.005
C8 0.041 0.032 0.044 -0.005 0.006 0.012
C10 0.058 0.052 0.072 0.017 0.021 0.018
C11 0.028 0.029 0.045 -0.008 0 -0.001
C12 0.027 0.041 0.073 -0.016 0.008 0.002
C13 0.042 0.053 0.082 -0.006 0.004 0.012
C14 0.029 0.04 0.07 -0.02 0.009 0.002
C16 0.048 0.051 0.046 -0.007 0 0.01
C17 0.129 0.123 0.141 0.014 0.044 0.064
C18 0.066 0.102 0.093 0.022 -0.012 0.028
N1 0.049 0.043 0.049 0.01 0.011 0.014
N2 0.056 0.067 0.085 0.009 0.007 0.031
O1 0.038 0.058 0.122 -0.042 0.024 -0.003
O3 0.03 0.033 0.051 0 0.012 0.007
O5 0.064 0.038 0.044 0.004 0.013 0.008
O6 0.023 0.042 0.051 0.005 0.006 0.012
O7 0.031 0.031 0.038 -0.004 0 0.004
O8 0.028 0.032 0.057 -0.014 0.003 0.002
O10 0.036 0.052 0.072 0.009 0.005 0.016
O11 0.031 0.102 0.04 -0.011 0.004 0.013
C23 0.022 0.03 0.047 -0.005 0.007 0.003
C24 0.024 0.036 0.037 0.002 0.001 0.009
C25 0.033 0.062 0.038 0 0.01 0.015
C26 0.03 0.06 0.035 -0.014 0 0.011
O15 0.03 0.033 0.051 0 0.012 0.007
O16 0.023 0.042 0.051 0.005 0.006 0.012
O17 0.031 0.102 0.04 -0.011 0.004 0.013
O25 0.038 0.027 0.038 0 0.002 0.009
C9 0.043 0.031 0.04 0.005 0.009 0.012
O9 0.075 0.04 0.042 0.002 0.017 0.023
C19 0.029 0.024 0.047 -0.004 0.007 0.006
C20 0.03 0.02 0.048 -0.005 0.004 0
O12 0.034 0.021 0.045 -0.002 0.006 0.005
C33 0.048 0.072 0.073 0.021 0.011 0.014
C1 0.029 0.024 0.047 -0.004 0.007 0.006
C4 0.03 0.02 0.048 -0.005 0.004 0
C15 0.048 0.072 0.073 0.021 0.011 0.014
O2 0.034 0.021 0.045 -0.002 0.006 0.005
O4 0.038 0.027 0.038 0 0.002 0.009
C22 0.043 0.031 0.04 0.005 0.009 0.012
O14 0.075 0.04 0.042 0.002 0.017 0.023
C21 0.041 0.032 0.044 -0.005 0.006 0.012
C31 0.058 0.052 0.072 0.017 0.021 0.018
C32 0.042 0.053 0.082 -0.006 0.004 0.012
C34 0.048 0.051 0.046 -0.007 0 0.01
C35 0.129 0.123 0.141 0.014 0.044 0.064
C36 0.066 0.102 0.093 0.022 -0.012 0.028
N3 0.049 0.043 0.049 0.01 0.011 0.014
N4 0.056 0.067 0.085 0.009 0.007 0.031
O21 0.064 0.038 0.044 0.004 0.013 0.008
O22 0.036 0.052 0.072 0.009 0.005 0.016
loop_
_geom_bond_atom_site_label_1
_geom_bond_atom_site_label_2
_geom_bond_site_symmetry_1
_geom_bond_site_symmetry_2
C27 C28 1_555 1_555
C28 C29 1_555 1_555
H25 C29 1_555 1_555
O18 C30 1_555 1_555
H26 O18 1_555 1_555
O19 C27 1_555 1_555
O20 C27 1_555 1_555
Tb7 O19 1_555 1_555
C28 C30 1_555 1_555
O20 Tb7 1_555 1_555
C2 C3 1_555 1_555
C3 C5 1_555 1_555
C5 H1 1_555 1_555
C6 C5 1_555 1_555
C7 C11 1_555 1_555
H2 C8 1_555 1_555
H5 C10 1_555 1_555
C11 C12 1_555 1_555
C12 H6 1_555 1_555
C13 H7 1_555 1_555
C14 C11 1_555 1_555
C16 H11 1_555 1_555
C17 H12 1_555 1_555
H13 C17 1_555 1_555
H14 C17 1_555 1_555
C18 H15 1_555 1_555
H16 C18 1_555 1_555
H17 C18 1_555 1_555
N1 C10 1_555 1_555
N2 C13 1_555 1_555
O1 C14 1_555 1_555
H18 O1 1_555 1_555
O3 C2 1_555 1_555
O5 C16 1_555 1_555
O6 C2 1_555 1_555
O7 C7 1_555 1_555
O8 C7 1_555 1_555
O10 C13 1_555 1_555
O11 C6 1_555 1_555
H20 O11 1_555 1_555
Tb4 O3 1_555 1_555
C23 C24 1_555 1_555
C24 C6 1_555 1_555
C25 C24 1_555 1_555
H23 C25 1_555 1_555
C26 C3 1_555 1_555
O15 C23 1_555 1_555
O16 C23 1_555 1_555
O17 C26 1_555 1_555
H24 O17 1_555 1_555
O25 Tb4 1_555 1_555
Tb7 O15 1_555 1_555
C16 N1 1_555 1_555
C17 N2 1_555 1_555
C18 N2 1_555 1_555
O5 Tb4 1_555 1_555
O7 Tb4 1_555 1_555
O8 Tb4 1_555 1_555
O10 Tb4 1_555 1_555
C25 C26 1_555 1_555
O9 C9 1_555 1_555
H19 O9 1_555 1_555
C19 C9 1_555 1_555
C20 C19 1_555 1_555
O12 C20 1_555 1_555
O25 C20 1_555 1_555
C33 H31 1_555 1_555
H32 C33 1_555 1_555
H33 C33 1_555 1_555
C1 C4 1_555 1_555
C4 O2 1_555 1_555
C15 H8 1_555 1_555
H9 C15 1_555 1_555
H10 C15 1_555 1_555
O4 C4 1_555 1_555
C22 C1 1_555 1_555
O14 C22 1_555 1_555
H22 O14 1_555 1_555
Tb7 O4 1_555 1_555
H21 C21 1_555 1_555
H29 C31 1_555 1_555
C32 H30 1_555 1_555
C34 H34 1_555 1_555
C35 H35 1_555 1_555
H36 C35 1_555 1_555
H37 C35 1_555 1_555
C36 H38 1_555 1_555
H39 C36 1_555 1_555
H40 C36 1_555 1_555
N3 C31 1_555 1_555
N4 C32 1_555 1_555
O21 C34 1_555 1_555
O22 C32 1_555 1_555
C34 N3 1_555 1_555
C35 N4 1_555 1_555
C36 N4 1_555 1_555
O21 Tb7 1_555 1_555
O22 Tb7 1_555 1_555

#END
