
###############################################################################
#
# This file contains modified crystal structure data generated from the
# MOF subset of the Cambridge Structural Database (CSD) v543 
# hosted by the Cambridge Crystallographic Data Centre (CCDC).
#
# This work is licensed under the Creative Commons
# Attribution-NonCommercial-ShareAlike 4.0 International License.
# To view a copy of this license, visit
# http://creativecommons.org/licenses/by-nc-sa/4.0/
# or send a letter to
# Creative Commons, PO Box 1866, Mountain View, CA 94042, USA.
#
# CIF created using the CSD Python API on 29 September 2022
# The structure has been converted into the P1 space group
# The structure has a 3D framework
# The original CSD entry CAQVOI15 is in the triclinic crystal system
# The framework has been calculated to contain at least 10.0% void space
# The void calculation uses a probe of radius 1.32A, grid spacing 0.4
#
###############################################################################

data_CAQVOI15
_chemical_formula_moiety         '(C36 H40 N4 O22 Tb2)n'
_symmetry_cell_setting           triclinic
_symmetry_space_group_name_H-M   'P 1'
_symmetry_Int_Tables_number      1
_space_group_name_Hall           'P 1'
loop_
_symmetry_equiv_pos_site_id
_symmetry_equiv_pos_as_xyz
1 x,y,z
_cell_length_a                   10.6311(6)
_cell_length_b                   11.1791(5)
_cell_length_c                   11.3767(5)
_cell_angle_alpha                96.958(4)
_cell_angle_beta                 110.894(5)
_cell_angle_gamma                101.422(4)
_cell_volume                     1210.7
loop_
_atom_site_label
_atom_site_type_symbol
_atom_site_fract_x
_atom_site_fract_y
_atom_site_fract_z
_atom_site_U_iso_or_equiv
_atom_site_thermal_displace_type
Tb4 Tb 0.10700(3) 0.53538(3) 0.69967(4) 0.0307 Uani
C27 C 0.6981(8) 0.2398(9) 0.1402(9) 0.0354 Uani
C28 C 0.5990(9) 0.1145(9) 0.0678(10) 0.0409 Uani
C29 C 0.6374(10) 0.0311(11) 0.0066(12) 0.0534 Uani
H25 H 0.728937 0.050518 0.007412 0.0640 Uiso
C30 C 0.4572(9) 0.0906(11) 0.0626(12) 0.0494 Uani
O18 O 0.4065(8) 0.1810(9) 0.1194(12) 0.0800 Uani
H26 H 0.472966 0.243518 0.163386 0.1210 Uiso
O19 O 0.8145(6) 0.2692(7) 0.1289(6) 0.0375 Uani
O20 O 0.6634(7) 0.3153(7) 0.2096(8) 0.0465 Uani
Tb7 Tb 0.89300(3) 0.46462(3) 0.30033(4) 0.0307 Uani
C2 C 0.2051(8) 0.4848(9) 0.4310(9) 0.0332 Uani
C3 C 0.3574(8) 0.4947(9) 0.4664(10) 0.0372 Uani
C5 C 0.4505(10) 0.5366(11) 0.5945(9) 0.0440 Uani
H1 H 0.417365 0.561908 0.658243 0.0530 Uiso
C6 C 0.5939(10) 0.5420(12) 0.6308(10) 0.0452 Uani
C7 C 0.3019(8) 0.7602(9) 0.8598(9) 0.0354 Uani
C8 C 0.0038(10) 0.0741(10) 0.6093(10) 0.0426 Uani
H2 H 0.006024 0.124672 0.683825 0.0510 Uiso
C10 C 0.0497(13) 0.1787(14) 0.9907(15) 0.0605 Uani
H5 H 0.001963 0.099260 0.928458 0.0910 Uiso
C11 C 0.4010(9) 0.8855(9) 0.9322(10) 0.0409 Uani
C12 C 0.3626(10) 0.9689(11) 0.9934(12) 0.0534 Uani
H6 H 0.271063 0.949482 0.992588 0.0640 Uiso
C13 C 0.3102(12) 0.3295(12) 0.7220(12) 0.0650 Uani
H7 H 0.241478 0.279915 0.642733 0.0780 Uiso
C14 C 0.5428(9) 0.9094(11) 0.9374(12) 0.0494 Uani
C16 C 0.1171(12) 0.3730(14) 0.9346(12) 0.0512 Uani
H11 H 0.210730 0.372873 0.982819 0.0620 Uiso
C17 C 0.434(3) 0.175(2) 0.703(3) 0.1293 Uani
H12 H 0.522637 0.157746 0.750953 0.1940 Uiso
H13 H 0.356646 0.105627 0.695438 0.1940 Uiso
H14 H 0.428049 0.184792 0.617107 0.1940 Uiso
C18 C 0.5325(17) 0.367(2) 0.8938(19) 0.0958 Uani
H15 H 0.609630 0.327089 0.919020 0.1430 Uiso
H16 H 0.566458 0.451098 0.882460 0.1430 Uiso
H17 H 0.495140 0.372107 0.960960 0.1430 Uiso
N1 N 0.0199(9) 0.2793(10) 0.9283(9) 0.0462 Uani
N2 N 0.4235(12) 0.2936(12) 0.7738(13) 0.0734 Uani
O1 O 0.5935(8) 0.8190(9) 0.8806(12) 0.0800 Uani
H18 H 0.527034 0.756482 0.836614 0.1210 Uiso
O3 O 0.1594(6) 0.5048(7) 0.5171(7) 0.0398 Uani
O5 O 0.0978(9) 0.4649(9) 0.8820(8) 0.0502 Uani
O6 O 0.1223(6) 0.4579(7) 0.3104(7) 0.0399 Uani
O7 O 0.1855(6) 0.7308(7) 0.8711(6) 0.0375 Uani
O8 O 0.3366(7) 0.6847(7) 0.7904(8) 0.0465 Uani
O10 O 0.2861(7) 0.4241(8) 0.7692(9) 0.0550 Uani
O11 O 0.6793(7) 0.5816(10) 0.7579(8) 0.0611 Uani
H20 H 0.761116 0.580390 0.767734 0.0920 Uiso
C23 C 0.7949(8) 0.5152(9) 0.5690(9) 0.0332 Uani
C24 C 0.6426(8) 0.5053(9) 0.5336(10) 0.0372 Uani
C25 C 0.5495(10) 0.4634(11) 0.4055(9) 0.0440 Uani
H23 H 0.582635 0.438092 0.341757 0.0530 Uiso
C26 C 0.4061(10) 0.4580(12) 0.3692(10) 0.0452 Uani
O15 O 0.8406(6) 0.4952(7) 0.4829(7) 0.0398 Uani
O16 O 0.8777(6) 0.5421(7) 0.6896(7) 0.0399 Uani
O17 O 0.3207(7) 0.4184(10) 0.2421(8) 0.0611 Uani
H24 H 0.238884 0.419610 0.232266 0.0920 Uiso
O25 O 0.0720(7) 0.7133(7) 0.6089(7) 0.0383 Uani
C9 C 0.0249(10) 0.9556(10) 0.6155(9) 0.0355 Uani
O9 O 0.0468(10) 0.9188(8) 0.7297(8) 0.0530 Uani
H19 H 0.054722 0.845283 0.722035 0.0790 Uiso
C19 C 0.0208(8) 0.8789(9) 0.5036(10) 0.0365 Uani
C20 C 0.0357(9) 0.7482(9) 0.5002(11) 0.0379 Uani
O12 O 0.0088(6) 0.6792(6) 0.3925(7) 0.0357 Uani
C33 C 0.1278(13) 0.7242(15) 0.1414(15) 0.0634 Uani
H31 H 0.169375 0.705483 0.079323 0.0950 Uiso
H32 H 0.178091 0.807465 0.195504 0.0950 Uiso
H33 H 0.134126 0.662029 0.195529 0.0950 Uiso
C1 C 0.9792(8) 0.1211(9) 0.4964(10) 0.0365 Uani
C4 C 0.9643(9) 0.2518(9) 0.4998(11) 0.0379 Uani
C15 C 0.8722(13) 0.2758(15) 0.8586(15) 0.0634 Uani
H8 H 0.830625 0.294517 0.920677 0.0950 Uiso
H9 H 0.821909 0.192535 0.804496 0.0950 Uiso
H10 H 0.865874 0.337971 0.804471 0.0950 Uiso
O2 O 0.9912(6) 0.3208(6) 0.6075(7) 0.0357 Uani
O4 O 0.9280(7) 0.2867(7) 0.3911(7) 0.0383 Uani
C22 C 0.9751(10) 0.0444(10) 0.3845(9) 0.0355 Uani
O14 O 0.9532(10) 0.0812(8) 0.2703(8) 0.0530 Uani
H22 H 0.945278 0.154717 0.277965 0.0790 Uiso
C21 C 0.9962(10) 0.9259(10) 0.3907(10) 0.0426 Uani
H21 H 0.993976 0.875328 0.316175 0.0510 Uiso
C31 C 0.9503(13) 0.8213(14) 0.0093(15) 0.0605 Uani
H29 H 0.998037 0.900740 0.071542 0.0910 Uiso
C32 C 0.6898(12) 0.6705(12) 0.2780(12) 0.0650 Uani
H30 H 0.758522 0.720085 0.357267 0.0780 Uiso
C34 C 0.8829(12) 0.6270(14) 0.0654(12) 0.0512 Uani
H34 H 0.789270 0.627127 0.017181 0.0620 Uiso
C35 C 0.566(3) 0.825(2) 0.297(3) 0.1293 Uani
H35 H 0.477363 0.842254 0.249047 0.1940 Uiso
H36 H 0.643354 0.894373 0.304562 0.1940 Uiso
H37 H 0.571951 0.815208 0.382893 0.1940 Uiso
C36 C 0.4675(17) 0.633(2) 0.1062(19) 0.0958 Uani
H38 H 0.390370 0.672911 0.080980 0.1430 Uiso
H39 H 0.433542 0.548902 0.117540 0.1430 Uiso
H40 H 0.504860 0.627893 0.039040 0.1430 Uiso
N3 N 0.9801(9) 0.7207(10) 0.0717(9) 0.0462 Uani
N4 N 0.5765(12) 0.7064(12) 0.2262(13) 0.0734 Uani
O21 O 0.9022(9) 0.5351(9) 0.1180(8) 0.0502 Uani
O22 O 0.7139(7) 0.5759(8) 0.2308(9) 0.0550 Uani
H3 H 0.017013 0.180206 0.061095 0.0910 Uiso
H4 H 0.150481 0.187747 0.025217 0.0910 Uiso
H27 H 0.982987 0.819794 0.938905 0.0910 Uiso
H28 H 0.849519 0.812253 0.974783 0.0910 Uiso
loop_
_atom_site_aniso_label
_atom_site_aniso_U_11
_atom_site_aniso_U_22
_atom_site_aniso_U_33
_atom_site_aniso_U_23
_atom_site_aniso_U_13
_atom_site_aniso_U_12
Tb4 0.0188 0.0224 0.0366 -0.0012 -0.00186 0.00268
C27 0.021 0.026 0.041 -0.005 -0.004 0.004
C28 0.023 0.029 0.05 -0.008 -0.001 0
C29 0.023 0.043 0.071 -0.016 0.005 0
C30 0.025 0.039 0.066 -0.015 0.009 0.001
O18 0.034 0.058 0.12 -0.037 0.023 -0.002
O19 0.026 0.033 0.037 -0.003 -0.001 0.003
O20 0.024 0.034 0.06 -0.013 0.002 0.002
Tb7 0.0188 0.0224 0.0366 -0.0012 -0.00186 0.00268
C2 0.018 0.027 0.046 0 0.005 0.006
C3 0.022 0.033 0.045 -0.002 0.003 0.007
C5 0.03 0.062 0.036 0.003 0.008 0.017
C6 0.029 0.057 0.034 -0.01 0 0.012
C7 0.021 0.026 0.041 -0.005 -0.004 0.004
C8 0.04 0.034 0.043 -0.003 0.006 0.012
C10 0.05 0.053 0.071 0.015 0.014 0.014
C11 0.023 0.029 0.05 -0.008 -0.001 0
C12 0.023 0.043 0.071 -0.016 0.005 0
C13 0.037 0.054 0.082 -0.007 0.005 0.011
C14 0.025 0.039 0.066 -0.015 0.009 0.001
C16 0.042 0.054 0.039 -0.001 -0.001 0.01
C17 0.128 0.123 0.14 0.012 0.046 0.061
C18 0.064 0.087 0.105 0.028 -0.009 0.026
N1 0.043 0.049 0.043 0.017 0.008 0.016
N2 0.054 0.061 0.091 0.01 0.007 0.028
O1 0.034 0.058 0.12 -0.037 0.023 -0.002
O3 0.026 0.034 0.053 0 0.011 0.008
O5 0.058 0.038 0.045 0.011 0.01 0.009
O6 0.019 0.041 0.051 0.008 0.004 0.008
O7 0.026 0.033 0.037 -0.003 -0.001 0.003
O8 0.024 0.034 0.06 -0.013 0.002 0.002
O10 0.031 0.049 0.072 0.013 0.003 0.014
O11 0.026 0.096 0.043 -0.009 0.002 0.012
C23 0.018 0.027 0.046 0 0.005 0.006
C24 0.022 0.033 0.045 -0.002 0.003 0.007
C25 0.03 0.062 0.036 0.003 0.008 0.017
C26 0.029 0.057 0.034 -0.01 0 0.012
O15 0.026 0.034 0.053 0 0.011 0.008
O16 0.019 0.041 0.051 0.008 0.004 0.008
O17 0.026 0.096 0.043 -0.009 0.002 0.012
O25 0.036 0.029 0.038 0.002 0.002 0.009
C9 0.039 0.03 0.034 0.009 0.008 0.012
O9 0.067 0.04 0.049 0.003 0.018 0.02
C19 0.023 0.028 0.047 -0.002 0.004 0.006
C20 0.026 0.019 0.054 -0.007 0.008 -0.003
O12 0.029 0.023 0.043 0.001 0.004 0.003
C33 0.042 0.065 0.073 0.023 0.009 0.012
C1 0.023 0.028 0.047 -0.002 0.004 0.006
C4 0.026 0.019 0.054 -0.007 0.008 -0.003
C15 0.042 0.065 0.073 0.023 0.009 0.012
O2 0.029 0.023 0.043 0.001 0.004 0.003
O4 0.036 0.029 0.038 0.002 0.002 0.009
C22 0.039 0.03 0.034 0.009 0.008 0.012
O14 0.067 0.04 0.049 0.003 0.018 0.02
C21 0.04 0.034 0.043 -0.003 0.006 0.012
C31 0.05 0.053 0.071 0.015 0.014 0.014
C32 0.037 0.054 0.082 -0.007 0.005 0.011
C34 0.042 0.054 0.039 -0.001 -0.001 0.01
C35 0.128 0.123 0.14 0.012 0.046 0.061
C36 0.064 0.087 0.105 0.028 -0.009 0.026
N3 0.043 0.049 0.043 0.017 0.008 0.016
N4 0.054 0.061 0.091 0.01 0.007 0.028
O21 0.058 0.038 0.045 0.011 0.01 0.009
O22 0.031 0.049 0.072 0.013 0.003 0.014
loop_
_geom_bond_atom_site_label_1
_geom_bond_atom_site_label_2
_geom_bond_site_symmetry_1
_geom_bond_site_symmetry_2
C27 C28 1_555 1_555
C28 C29 1_555 1_555
H25 C29 1_555 1_555
O18 C30 1_555 1_555
H26 O18 1_555 1_555
O19 C27 1_555 1_555
O20 C27 1_555 1_555
Tb7 O19 1_555 1_555
C28 C30 1_555 1_555
O20 Tb7 1_555 1_555
C2 C3 1_555 1_555
C3 C5 1_555 1_555
C5 H1 1_555 1_555
C6 C5 1_555 1_555
C7 C11 1_555 1_555
H2 C8 1_555 1_555
H5 C10 1_555 1_555
C11 C12 1_555 1_555
C12 H6 1_555 1_555
C13 H7 1_555 1_555
C14 C11 1_555 1_555
C16 H11 1_555 1_555
C17 H12 1_555 1_555
H13 C17 1_555 1_555
H14 C17 1_555 1_555
C18 H15 1_555 1_555
H16 C18 1_555 1_555
H17 C18 1_555 1_555
N1 C10 1_555 1_555
N2 C13 1_555 1_555
O1 C14 1_555 1_555
H18 O1 1_555 1_555
O3 C2 1_555 1_555
O5 C16 1_555 1_555
O6 C2 1_555 1_555
O7 C7 1_555 1_555
O8 C7 1_555 1_555
O10 C13 1_555 1_555
O11 C6 1_555 1_555
H20 O11 1_555 1_555
Tb4 O3 1_555 1_555
C23 C24 1_555 1_555
C24 C6 1_555 1_555
C25 C24 1_555 1_555
H23 C25 1_555 1_555
C26 C3 1_555 1_555
O15 C23 1_555 1_555
O16 C23 1_555 1_555
O17 C26 1_555 1_555
H24 O17 1_555 1_555
O25 Tb4 1_555 1_555
Tb7 O15 1_555 1_555
C16 N1 1_555 1_555
C17 N2 1_555 1_555
C18 N2 1_555 1_555
O5 Tb4 1_555 1_555
O7 Tb4 1_555 1_555
O8 Tb4 1_555 1_555
O10 Tb4 1_555 1_555
C25 C26 1_555 1_555
O9 C9 1_555 1_555
H19 O9 1_555 1_555
C19 C9 1_555 1_555
C20 C19 1_555 1_555
O12 C20 1_555 1_555
O25 C20 1_555 1_555
C33 H31 1_555 1_555
H32 C33 1_555 1_555
H33 C33 1_555 1_555
C1 C4 1_555 1_555
C4 O2 1_555 1_555
C15 H8 1_555 1_555
H9 C15 1_555 1_555
H10 C15 1_555 1_555
O4 C4 1_555 1_555
C22 C1 1_555 1_555
O14 C22 1_555 1_555
H22 O14 1_555 1_555
Tb7 O4 1_555 1_555
H21 C21 1_555 1_555
H29 C31 1_555 1_555
C32 H30 1_555 1_555
C34 H34 1_555 1_555
C35 H35 1_555 1_555
H36 C35 1_555 1_555
H37 C35 1_555 1_555
C36 H38 1_555 1_555
H39 C36 1_555 1_555
H40 C36 1_555 1_555
N3 C31 1_555 1_555
N4 C32 1_555 1_555
O21 C34 1_555 1_555
O22 C32 1_555 1_555
C34 N3 1_555 1_555
C35 N4 1_555 1_555
C36 N4 1_555 1_555
O21 Tb7 1_555 1_555
O22 Tb7 1_555 1_555

#END
