
###############################################################################
#
# This file contains modified crystal structure data generated from the
# MOF subset of the Cambridge Structural Database (CSD) v543 
# hosted by the Cambridge Crystallographic Data Centre (CCDC).
#
# This work is licensed under the Creative Commons
# Attribution-NonCommercial-ShareAlike 4.0 International License.
# To view a copy of this license, visit
# http://creativecommons.org/licenses/by-nc-sa/4.0/
# or send a letter to
# Creative Commons, PO Box 1866, Mountain View, CA 94042, USA.
#
# CIF created using the CSD Python API on 29 September 2022
# The structure has been converted into the P1 space group
# The structure has a 3D framework
# The original CSD entry CAQVOI26 is in the triclinic crystal system
# The framework has been calculated to contain at least 10.0% void space
# The void calculation uses a probe of radius 1.32A, grid spacing 0.4
#
###############################################################################

data_CAQVOI26
_chemical_formula_moiety         '(C36 H40 N4 O22 Tb2)n'
_symmetry_cell_setting           triclinic
_symmetry_space_group_name_H-M   'P 1'
_symmetry_Int_Tables_number      1
_space_group_name_Hall           'P 1'
loop_
_symmetry_equiv_pos_site_id
_symmetry_equiv_pos_as_xyz
1 x,y,z
_cell_length_a                   10.6765(7)
_cell_length_b                   11.1609(5)
_cell_length_c                   11.6592(6)
_cell_angle_alpha                96.727(4)
_cell_angle_beta                 111.531(5)
_cell_angle_gamma                101.573(5)
_cell_volume                     1238.03
loop_
_atom_site_label
_atom_site_type_symbol
_atom_site_fract_x
_atom_site_fract_y
_atom_site_fract_z
_atom_site_U_iso_or_equiv
_atom_site_thermal_displace_type
Tb4 Tb 0.10938(3) 0.53469(3) 0.69702(4) 0.0420 Uani
C27 C 0.6954(9) 0.2412(10) 0.1423(10) 0.0508 Uani
C28 C 0.5986(9) 0.1150(9) 0.0684(10) 0.0530 Uani
C29 C 0.6371(11) 0.0377(13) 0.0101(14) 0.0763 Uani
H25 H 0.727167 0.059246 0.013148 0.0920 Uiso
C30 C 0.4566(11) 0.0864(13) 0.0630(14) 0.0784 Uani
O18 O 0.4046(11) 0.1750(12) 0.1209(15) 0.1333 Uani
H26 H 0.469129 0.236379 0.164072 0.2000 Uiso
O19 O 0.8137(7) 0.2725(7) 0.1337(7) 0.0579 Uani
O20 O 0.6597(7) 0.3135(7) 0.2084(9) 0.0689 Uani
Tb7 Tb 0.89062(3) 0.46531(3) 0.30298(4) 0.0420 Uani
C2 C 0.2054(9) 0.4876(10) 0.4339(10) 0.0515 Uani
C3 C 0.3580(8) 0.4949(10) 0.4673(10) 0.0526 Uani
C5 C 0.4543(10) 0.5417(13) 0.5909(11) 0.0679 Uani
H1 H 0.424141 0.570816 0.651578 0.0810 Uiso
C6 C 0.5962(10) 0.5462(13) 0.6266(10) 0.0641 Uani
C7 C 0.3046(9) 0.7588(10) 0.8577(10) 0.0508 Uani
C8 C 0.0024(12) 0.0743(11) 0.6062(10) 0.0581 Uani
H2 H 0.004742 0.124046 0.677135 0.0700 Uiso
C10 C 0.047(2) 0.1766(19) 0.988(2) 0.1109 Uani
H5 H 0.009424 0.099580 0.926901 0.1660 Uiso
C11 C 0.4014(9) 0.8850(9) 0.9316(10) 0.0530 Uani
C12 C 0.3629(11) 0.9623(13) 0.9899(14) 0.0763 Uani
H6 H 0.272833 0.940754 0.986852 0.0920 Uiso
C13 C 0.3131(15) 0.3307(14) 0.7177(15) 0.0914 Uani
H7 H 0.245493 0.283842 0.640597 0.1100 Uiso
C14 C 0.5434(11) 0.9136(13) 0.9370(14) 0.0784 Uani
C16 C 0.1171(16) 0.3693(18) 0.9266(16) 0.0827 Uani
H11 H 0.209258 0.368419 0.970259 0.0990 Uiso
C17 C 0.436(3) 0.181(2) 0.694(3) 0.1786 Uani
H12 H 0.523724 0.163513 0.739387 0.2680 Uiso
H13 H 0.361009 0.110745 0.683100 0.2680 Uiso
H14 H 0.431340 0.194382 0.612770 0.2680 Uiso
C18 C 0.534(3) 0.364(3) 0.885(2) 0.1738 Uani
H15 H 0.609309 0.324444 0.906955 0.2630 Uiso
H16 H 0.567267 0.447656 0.877252 0.2630 Uiso
H17 H 0.497437 0.364981 0.948576 0.2630 Uiso
N1 N 0.0221(13) 0.2791(13) 0.9259(12) 0.0789 Uani
N2 N 0.4251(15) 0.2940(16) 0.7657(17) 0.1165 Uani
O1 O 0.5954(11) 0.8250(12) 0.8791(15) 0.1333 Uani
H18 H 0.530871 0.763621 0.835928 0.2000 Uiso
O3 O 0.1634(7) 0.5077(8) 0.5201(8) 0.0603 Uani
O5 O 0.0966(11) 0.4600(11) 0.8731(9) 0.0773 Uani
O6 O 0.1217(6) 0.4593(8) 0.3181(7) 0.0573 Uani
O7 O 0.1863(7) 0.7275(7) 0.8663(7) 0.0579 Uani
O8 O 0.3403(7) 0.6865(7) 0.7916(9) 0.0689 Uani
O10 O 0.2883(9) 0.4227(10) 0.7657(11) 0.0873 Uani
O11 O 0.6845(9) 0.5891(13) 0.7514(8) 0.0923 Uani
H20 H 0.764091 0.587825 0.760417 0.1390 Uiso
C23 C 0.7946(9) 0.5124(10) 0.5661(10) 0.0515 Uani
C24 C 0.6420(8) 0.5051(10) 0.5327(10) 0.0526 Uani
C25 C 0.5457(10) 0.4583(13) 0.4091(11) 0.0679 Uani
H23 H 0.575859 0.429184 0.348422 0.0810 Uiso
C26 C 0.4038(10) 0.4538(13) 0.3734(10) 0.0641 Uani
O15 O 0.8366(7) 0.4923(8) 0.4799(8) 0.0603 Uani
O16 O 0.8783(6) 0.5407(8) 0.6819(7) 0.0573 Uani
O17 O 0.3155(9) 0.4109(13) 0.2486(8) 0.0923 Uani
H24 H 0.235909 0.412175 0.239583 0.1390 Uiso
O25 O 0.0725(8) 0.7140(7) 0.6076(7) 0.0596 Uani
C9 C 0.0227(12) 0.9540(11) 0.6121(10) 0.0569 Uani
O9 O 0.0436(14) 0.9197(10) 0.7247(9) 0.0856 Uani
H19 H 0.074351 0.857949 0.726849 0.1290 Uiso
C19 C 0.0209(11) 0.8799(10) 0.5034(10) 0.0531 Uani
C20 C 0.0370(9) 0.7478(9) 0.5027(11) 0.0510 Uani
O12 O 0.0095(7) 0.6800(6) 0.3963(7) 0.0537 Uani
C33 C 0.1257(18) 0.717(2) 0.138(2) 0.1201 Uani
H31 H 0.165158 0.707773 0.076702 0.1800 Uiso
H32 H 0.178124 0.793566 0.199215 0.1800 Uiso
H33 H 0.129136 0.647752 0.179542 0.1800 Uiso
C1 C 0.9791(11) 0.1201(10) 0.4966(10) 0.0531 Uani
C4 C 0.9630(9) 0.2522(9) 0.4973(11) 0.0510 Uani
C15 C 0.8743(18) 0.283(2) 0.862(2) 0.1201 Uani
H8 H 0.834842 0.292227 0.923298 0.1800 Uiso
H9 H 0.821876 0.206434 0.800785 0.1800 Uiso
H10 H 0.870864 0.352248 0.820458 0.1800 Uiso
O2 O 0.9905(7) 0.3200(6) 0.6037(7) 0.0537 Uani
O4 O 0.9275(8) 0.2860(7) 0.3924(7) 0.0596 Uani
C22 C 0.9773(12) 0.0460(11) 0.3879(10) 0.0569 Uani
O14 O 0.9564(14) 0.0803(10) 0.2753(9) 0.0856 Uani
H22 H 0.925649 0.142051 0.273151 0.1290 Uiso
C21 C 0.9976(12) 0.9257(11) 0.3938(10) 0.0581 Uani
H21 H 0.995258 0.875954 0.322865 0.0700 Uiso
C31 C 0.953(2) 0.8234(19) 0.012(2) 0.1109 Uani
H29 H 0.990576 0.900420 0.073099 0.1660 Uiso
C32 C 0.6869(15) 0.6693(14) 0.2823(15) 0.0914 Uani
H30 H 0.754507 0.716158 0.359403 0.1100 Uiso
C34 C 0.8829(16) 0.6307(18) 0.0734(16) 0.0827 Uani
H34 H 0.790742 0.631581 0.029741 0.0990 Uiso
C35 C 0.564(3) 0.819(2) 0.306(3) 0.1786 Uani
H35 H 0.476276 0.836487 0.260613 0.2680 Uiso
H36 H 0.638991 0.889255 0.316900 0.2680 Uiso
H37 H 0.568660 0.805618 0.387230 0.2680 Uiso
C36 C 0.466(3) 0.636(3) 0.115(2) 0.1738 Uani
H38 H 0.390691 0.675556 0.093045 0.2630 Uiso
H39 H 0.432733 0.552344 0.122748 0.2630 Uiso
H40 H 0.502563 0.635019 0.051424 0.2630 Uiso
N3 N 0.9779(13) 0.7209(13) 0.0741(12) 0.0789 Uani
N4 N 0.5749(15) 0.7060(16) 0.2343(17) 0.1165 Uani
O21 O 0.9034(11) 0.5400(11) 0.1269(9) 0.0773 Uani
O22 O 0.7117(9) 0.5773(10) 0.2343(11) 0.0873 Uani
H3 H 0.002104 0.173007 0.046419 0.1660 Uiso
H4 H 0.145411 0.189225 0.033689 0.1660 Uiso
H27 H 0.997896 0.826993 0.953581 0.1660 Uiso
H28 H 0.854589 0.810775 0.966311 0.1660 Uiso
loop_
_atom_site_aniso_label
_atom_site_aniso_U_11
_atom_site_aniso_U_22
_atom_site_aniso_U_33
_atom_site_aniso_U_23
_atom_site_aniso_U_13
_atom_site_aniso_U_12
Tb4 0.0278 0.028 0.0526 -0.001 0.00067 0.00465
C27 0.034 0.034 0.061 -0.005 0.001 0.002
C28 0.035 0.037 0.062 -0.01 0.002 0.001
C29 0.037 0.061 0.109 -0.014 0.019 0.004
C30 0.04 0.064 0.103 -0.031 0.018 0.002
O18 0.061 0.094 0.201 -0.081 0.053 -0.01
O19 0.043 0.051 0.056 -0.004 0.007 -0.005
O20 0.041 0.04 0.097 -0.022 0.011 0.002
Tb7 0.0278 0.028 0.0526 -0.001 0.00067 0.00465
C2 0.029 0.049 0.067 0.002 0.014 0.006
C3 0.027 0.056 0.063 -0.001 0.009 0.011
C5 0.034 0.095 0.062 -0.01 0.014 0.015
C6 0.032 0.083 0.057 -0.014 0.004 0.015
C7 0.034 0.034 0.061 -0.005 0.001 0.002
C8 0.069 0.037 0.053 -0.006 0.01 0.018
C10 0.116 0.085 0.147 0.06 0.052 0.04
C11 0.035 0.037 0.062 -0.01 0.002 0.001
C12 0.037 0.061 0.109 -0.014 0.019 0.004
C13 0.07 0.073 0.113 0.015 0.013 0.028
C14 0.04 0.064 0.103 -0.031 0.018 0.002
C16 0.067 0.077 0.084 0.007 0.017 0.007
C17 0.182 0.161 0.196 0.018 0.064 0.086
C18 0.128 0.17 0.154 0.036 -0.029 0.054
N1 0.075 0.081 0.08 0.029 0.026 0.022
N2 0.08 0.12 0.141 0.028 0.02 0.055
O1 0.061 0.094 0.201 -0.081 0.053 -0.01
O3 0.037 0.057 0.082 0.005 0.022 0.011
O5 0.095 0.064 0.07 0.022 0.029 0.018
O6 0.033 0.064 0.065 0.007 0.009 0.016
O7 0.043 0.051 0.056 -0.004 0.007 -0.005
O8 0.041 0.04 0.097 -0.022 0.011 0.002
O10 0.053 0.071 0.124 0.021 0.014 0.028
O11 0.04 0.152 0.059 -0.013 0.005 0.019
C23 0.029 0.049 0.067 0.002 0.014 0.006
C24 0.027 0.056 0.063 -0.001 0.009 0.011
C25 0.034 0.095 0.062 -0.01 0.014 0.015
C26 0.032 0.083 0.057 -0.014 0.004 0.015
O15 0.037 0.057 0.082 0.005 0.022 0.011
O16 0.033 0.064 0.065 0.007 0.009 0.016
O17 0.04 0.152 0.059 -0.013 0.005 0.019
O25 0.06 0.045 0.052 0.006 -0.002 0.017
C9 0.069 0.042 0.052 0.008 0.016 0.015
O9 0.135 0.057 0.069 0.016 0.033 0.048
C19 0.053 0.032 0.058 -0.003 0.009 0.009
C20 0.039 0.024 0.072 -0.005 0.01 0.002
O12 0.049 0.031 0.062 0 0.008 0.003
C33 0.062 0.127 0.155 0.04 0.026 0.018
C1 0.053 0.032 0.058 -0.003 0.009 0.009
C4 0.039 0.024 0.072 -0.005 0.01 0.002
C15 0.062 0.127 0.155 0.04 0.026 0.018
O2 0.049 0.031 0.062 0 0.008 0.003
O4 0.06 0.045 0.052 0.006 -0.002 0.017
C22 0.069 0.042 0.052 0.008 0.016 0.015
O14 0.135 0.057 0.069 0.016 0.033 0.048
C21 0.069 0.037 0.053 -0.006 0.01 0.018
C31 0.116 0.085 0.147 0.06 0.052 0.04
C32 0.07 0.073 0.113 0.015 0.013 0.028
C34 0.067 0.077 0.084 0.007 0.017 0.007
C35 0.182 0.161 0.196 0.018 0.064 0.086
C36 0.128 0.17 0.154 0.036 -0.029 0.054
N3 0.075 0.081 0.08 0.029 0.026 0.022
N4 0.08 0.12 0.141 0.028 0.02 0.055
O21 0.095 0.064 0.07 0.022 0.029 0.018
O22 0.053 0.071 0.124 0.021 0.014 0.028
loop_
_geom_bond_atom_site_label_1
_geom_bond_atom_site_label_2
_geom_bond_site_symmetry_1
_geom_bond_site_symmetry_2
C27 C28 1_555 1_555
C28 C29 1_555 1_555
H25 C29 1_555 1_555
O18 C30 1_555 1_555
H26 O18 1_555 1_555
O19 C27 1_555 1_555
O20 C27 1_555 1_555
Tb7 O19 1_555 1_555
C28 C30 1_555 1_555
O20 Tb7 1_555 1_555
C2 C3 1_555 1_555
C3 C5 1_555 1_555
C5 H1 1_555 1_555
C6 C5 1_555 1_555
C7 C11 1_555 1_555
H2 C8 1_555 1_555
H5 C10 1_555 1_555
C11 C12 1_555 1_555
C12 H6 1_555 1_555
C13 H7 1_555 1_555
C14 C11 1_555 1_555
C16 H11 1_555 1_555
C17 H12 1_555 1_555
H13 C17 1_555 1_555
H14 C17 1_555 1_555
C18 H15 1_555 1_555
H16 C18 1_555 1_555
H17 C18 1_555 1_555
N1 C10 1_555 1_555
N2 C13 1_555 1_555
O1 C14 1_555 1_555
H18 O1 1_555 1_555
O3 C2 1_555 1_555
O5 C16 1_555 1_555
O6 C2 1_555 1_555
O7 C7 1_555 1_555
O8 C7 1_555 1_555
O10 C13 1_555 1_555
O11 C6 1_555 1_555
H20 O11 1_555 1_555
Tb4 O3 1_555 1_555
C23 C24 1_555 1_555
C24 C6 1_555 1_555
C25 C24 1_555 1_555
H23 C25 1_555 1_555
C26 C3 1_555 1_555
O15 C23 1_555 1_555
O16 C23 1_555 1_555
O17 C26 1_555 1_555
H24 O17 1_555 1_555
O25 Tb4 1_555 1_555
Tb7 O15 1_555 1_555
C16 N1 1_555 1_555
C17 N2 1_555 1_555
C18 N2 1_555 1_555
O5 Tb4 1_555 1_555
O7 Tb4 1_555 1_555
O8 Tb4 1_555 1_555
O10 Tb4 1_555 1_555
C25 C26 1_555 1_555
O9 C9 1_555 1_555
H19 O9 1_555 1_555
C19 C9 1_555 1_555
C20 C19 1_555 1_555
O12 C20 1_555 1_555
O25 C20 1_555 1_555
C33 H31 1_555 1_555
H32 C33 1_555 1_555
H33 C33 1_555 1_555
C1 C4 1_555 1_555
C4 O2 1_555 1_555
C15 H8 1_555 1_555
H9 C15 1_555 1_555
H10 C15 1_555 1_555
O4 C4 1_555 1_555
C22 C1 1_555 1_555
O14 C22 1_555 1_555
H22 O14 1_555 1_555
Tb7 O4 1_555 1_555
H21 C21 1_555 1_555
H29 C31 1_555 1_555
C32 H30 1_555 1_555
C34 H34 1_555 1_555
C35 H35 1_555 1_555
H36 C35 1_555 1_555
H37 C35 1_555 1_555
C36 H38 1_555 1_555
H39 C36 1_555 1_555
H40 C36 1_555 1_555
N3 C31 1_555 1_555
N4 C32 1_555 1_555
O21 C34 1_555 1_555
O22 C32 1_555 1_555
C34 N3 1_555 1_555
C35 N4 1_555 1_555
C36 N4 1_555 1_555
O21 Tb7 1_555 1_555
O22 Tb7 1_555 1_555

#END
