
###############################################################################
#
# This file contains modified crystal structure data generated from the
# MOF subset of the Cambridge Structural Database (CSD) v543 
# hosted by the Cambridge Crystallographic Data Centre (CCDC).
#
# This work is licensed under the Creative Commons
# Attribution-NonCommercial-ShareAlike 4.0 International License.
# To view a copy of this license, visit
# http://creativecommons.org/licenses/by-nc-sa/4.0/
# or send a letter to
# Creative Commons, PO Box 1866, Mountain View, CA 94042, USA.
#
# CIF created using the CSD Python API on 29 September 2022
# The structure has been converted into the P1 space group
# The structure has a 3D framework
# The original CSD entry CAQVOI22 is in the triclinic crystal system
# The framework has been calculated to contain at least 10.0% void space
# The void calculation uses a probe of radius 1.32A, grid spacing 0.4
#
###############################################################################

data_CAQVOI22
_chemical_formula_moiety         '(C36 H40 N4 O22 Tb2)n'
_symmetry_cell_setting           triclinic
_symmetry_space_group_name_H-M   'P 1'
_symmetry_Int_Tables_number      1
_space_group_name_Hall           'P 1'
loop_
_symmetry_equiv_pos_site_id
_symmetry_equiv_pos_as_xyz
1 x,y,z
_cell_length_a                   10.6410(6)
_cell_length_b                   11.1651(5)
_cell_length_c                   11.4787(5)
_cell_angle_alpha                96.891(4)
_cell_angle_beta                 111.171(5)
_cell_angle_gamma                101.441(4)
_cell_volume                     1218.74
loop_
_atom_site_label
_atom_site_type_symbol
_atom_site_fract_x
_atom_site_fract_y
_atom_site_fract_z
_atom_site_U_iso_or_equiv
_atom_site_thermal_displace_type
Tb4 Tb 0.10809(3) 0.53503(3) 0.69896(4) 0.0337 Uani
C27 C 0.6976(9) 0.2404(9) 0.1399(10) 0.0388 Uani
C28 C 0.5985(9) 0.1153(9) 0.0677(10) 0.0433 Uani
C29 C 0.6374(10) 0.0324(12) 0.0093(13) 0.0585 Uani
H25 H 0.729126 0.051551 0.013134 0.0700 Uiso
C30 C 0.4566(10) 0.0899(11) 0.0622(13) 0.0616 Uani
O18 O 0.4048(9) 0.1792(10) 0.1174(13) 0.0966 Uani
H26 H 0.470109 0.241333 0.161084 0.1450 Uiso
O19 O 0.8143(7) 0.2701(7) 0.1311(7) 0.0444 Uani
O20 O 0.6620(7) 0.3149(7) 0.2085(8) 0.0532 Uani
Tb7 Tb 0.89191(3) 0.46497(3) 0.30104(4) 0.0337 Uani
C2 C 0.2050(8) 0.4854(9) 0.4316(10) 0.0397 Uani
C3 C 0.3573(8) 0.4939(10) 0.4665(10) 0.0416 Uani
C5 C 0.4524(10) 0.5394(12) 0.5940(11) 0.0529 Uani
H1 H 0.420849 0.566759 0.656563 0.0640 Uiso
C6 C 0.5942(10) 0.5441(12) 0.6286(10) 0.0512 Uani
C7 C 0.3024(9) 0.7596(9) 0.8601(10) 0.0388 Uani
C8 C 0.0024(12) 0.0728(10) 0.6078(10) 0.0483 Uani
H2 H 0.002351 0.121998 0.680268 0.0580 Uiso
C10 C 0.0495(18) 0.1785(16) 0.9904(17) 0.0771 Uani
H5 H 0.003256 0.099916 0.928638 0.1150 Uiso
C11 C 0.4015(9) 0.8847(9) 0.9323(10) 0.0433 Uani
C12 C 0.3626(10) 0.9676(12) 0.9907(13) 0.0585 Uani
H6 H 0.270874 0.948449 0.986866 0.0700 Uiso
C13 C 0.3108(13) 0.3297(12) 0.7198(13) 0.0710 Uani
H7 H 0.242763 0.281758 0.641197 0.0850 Uiso
C14 C 0.5434(10) 0.9101(11) 0.9378(13) 0.0616 Uani
C16 C 0.1180(13) 0.3723(16) 0.9319(13) 0.0619 Uani
H11 H 0.210987 0.371060 0.976837 0.0740 Uiso
C17 C 0.437(3) 0.179(2) 0.698(3) 0.1430 Uani
H12 H 0.525052 0.162259 0.744862 0.2140 Uiso
H13 H 0.360682 0.108928 0.688239 0.2140 Uiso
H14 H 0.431471 0.191854 0.614640 0.2140 Uiso
C18 C 0.533(2) 0.363(2) 0.887(2) 0.1226 Uani
H15 H 0.609257 0.322782 0.909811 0.1840 Uiso
H16 H 0.567544 0.447259 0.878265 0.1840 Uiso
H17 H 0.497893 0.366613 0.954167 0.1840 Uiso
N1 N 0.0198(10) 0.2801(11) 0.9283(10) 0.0544 Uani
N2 N 0.4248(13) 0.2938(14) 0.7701(15) 0.0892 Uani
O1 O 0.5952(9) 0.8208(10) 0.8826(13) 0.0966 Uani
H18 H 0.529891 0.758667 0.838916 0.1450 Uiso
O3 O 0.1614(7) 0.5060(7) 0.5189(7) 0.0470 Uani
O5 O 0.0973(10) 0.4631(9) 0.8793(9) 0.0601 Uani
O6 O 0.1221(6) 0.4580(7) 0.3135(7) 0.0451 Uani
O7 O 0.1857(7) 0.7299(7) 0.8689(7) 0.0444 Uani
O8 O 0.3380(7) 0.6851(7) 0.7915(8) 0.0532 Uani
O10 O 0.2866(8) 0.4224(9) 0.7687(9) 0.0627 Uani
O11 O 0.6822(8) 0.5849(11) 0.7552(8) 0.0741 Uani
H20 H 0.762745 0.583481 0.764003 0.1100 Uiso
C23 C 0.7950(8) 0.5146(9) 0.5684(10) 0.0397 Uani
C24 C 0.6427(8) 0.5061(10) 0.5335(10) 0.0416 Uani
C25 C 0.5476(10) 0.4606(12) 0.4060(11) 0.0529 Uani
H23 H 0.579151 0.433241 0.343437 0.0640 Uiso
C26 C 0.4058(10) 0.4559(12) 0.3714(10) 0.0512 Uani
O15 O 0.8386(7) 0.4940(7) 0.4811(7) 0.0470 Uani
O16 O 0.8779(6) 0.5420(7) 0.6865(7) 0.0451 Uani
O17 O 0.3178(8) 0.4151(11) 0.2448(8) 0.0741 Uani
H24 H 0.237255 0.416519 0.235997 0.1100 Uiso
O25 O 0.0723(7) 0.7142(7) 0.6080(6) 0.0437 Uani
C9 C 0.0254(11) 0.9552(10) 0.6146(9) 0.0410 Uani
O9 O 0.0454(11) 0.9190(9) 0.7274(8) 0.0629 Uani
H19 H 0.055925 0.847100 0.721373 0.0950 Uiso
C19 C 0.0209(9) 0.8796(9) 0.5032(10) 0.0391 Uani
C20 C 0.0365(9) 0.7478(9) 0.5017(10) 0.0419 Uani
O12 O 0.0093(7) 0.6795(6) 0.3941(7) 0.0407 Uani
C33 C 0.1265(15) 0.7207(17) 0.1390(17) 0.0806 Uani
H31 H 0.167571 0.706230 0.077371 0.1210 Uiso
H32 H 0.177191 0.801108 0.196437 0.1210 Uiso
H33 H 0.131630 0.655260 0.187660 0.1210 Uiso
C1 C 0.9791(9) 0.1204(9) 0.4968(10) 0.0391 Uani
C4 C 0.9635(9) 0.2522(9) 0.4983(10) 0.0419 Uani
C15 C 0.8735(15) 0.2793(17) 0.8610(17) 0.0806 Uani
H8 H 0.832429 0.293770 0.922629 0.1210 Uiso
H9 H 0.822809 0.198892 0.803563 0.1210 Uiso
H10 H 0.868370 0.344740 0.812340 0.1210 Uiso
O2 O 0.9907(7) 0.3205(6) 0.6059(7) 0.0407 Uani
O4 O 0.9277(7) 0.2858(7) 0.3920(6) 0.0437 Uani
C22 C 0.9746(11) 0.0448(10) 0.3854(9) 0.0410 Uani
O14 O 0.9546(11) 0.0810(9) 0.2726(8) 0.0629 Uani
H22 H 0.944075 0.152900 0.278627 0.0950 Uiso
C21 C 0.9976(12) 0.9272(10) 0.3922(10) 0.0483 Uani
H21 H 0.997649 0.878002 0.319732 0.0580 Uiso
C31 C 0.9505(18) 0.8215(16) 0.0096(17) 0.0771 Uani
H29 H 0.996744 0.900084 0.071362 0.1150 Uiso
C32 C 0.6892(13) 0.6703(12) 0.2802(13) 0.0710 Uani
H30 H 0.757237 0.718242 0.358803 0.0850 Uiso
C34 C 0.8820(13) 0.6277(16) 0.0681(13) 0.0619 Uani
H34 H 0.789013 0.628940 0.023163 0.0740 Uiso
C35 C 0.563(3) 0.821(2) 0.302(3) 0.1430 Uani
H35 H 0.474948 0.837741 0.255138 0.2140 Uiso
H36 H 0.639318 0.891072 0.311761 0.2140 Uiso
H37 H 0.568529 0.808146 0.385360 0.2140 Uiso
C36 C 0.467(2) 0.637(2) 0.113(2) 0.1226 Uani
H38 H 0.390743 0.677218 0.090189 0.1840 Uiso
H39 H 0.432456 0.552741 0.121735 0.1840 Uiso
H40 H 0.502107 0.633387 0.045833 0.1840 Uiso
N3 N 0.9802(10) 0.7199(11) 0.0717(10) 0.0544 Uani
N4 N 0.5752(13) 0.7062(14) 0.2299(15) 0.0892 Uani
O21 O 0.9027(10) 0.5369(9) 0.1207(9) 0.0601 Uani
O22 O 0.7134(8) 0.5776(9) 0.2313(9) 0.0627 Uani
H3 H 0.015661 0.178906 0.058357 0.1150 Uiso
H4 H 0.149440 0.187987 0.025967 0.1150 Uiso
H27 H 0.984339 0.821094 0.941643 0.1150 Uiso
H28 H 0.850560 0.812013 0.974033 0.1150 Uiso
loop_
_atom_site_aniso_label
_atom_site_aniso_U_11
_atom_site_aniso_U_22
_atom_site_aniso_U_33
_atom_site_aniso_U_23
_atom_site_aniso_U_13
_atom_site_aniso_U_12
Tb4 0.0223 0.0231 0.0393 -0.0019 -0.00215 0.00261
C27 0.027 0.023 0.047 -0.007 -0.001 0.003
C28 0.028 0.029 0.052 -0.008 0.001 0
C29 0.03 0.049 0.076 -0.012 0.011 0
C30 0.031 0.046 0.082 -0.027 0.011 0
O18 0.044 0.063 0.146 -0.056 0.032 -0.009
O19 0.033 0.036 0.044 -0.004 0.001 0
O20 0.03 0.037 0.067 -0.016 0.003 0
Tb7 0.0223 0.0231 0.0393 -0.0019 -0.00215 0.00261
C2 0.024 0.034 0.053 0.001 0.009 0.007
C3 0.022 0.042 0.047 0.002 0.001 0.007
C5 0.033 0.068 0.049 -0.006 0.012 0.013
C6 0.031 0.064 0.04 -0.011 0.001 0.01
C7 0.027 0.023 0.047 -0.007 -0.001 0.003
C8 0.055 0.031 0.044 -0.006 0.005 0.015
C10 0.079 0.065 0.088 0.026 0.028 0.024
C11 0.028 0.029 0.052 -0.008 0.001 0
C12 0.03 0.049 0.076 -0.012 0.011 0
C13 0.05 0.055 0.09 0.007 0.008 0.017
C14 0.031 0.046 0.082 -0.027 0.011 0
C16 0.049 0.061 0.054 -0.005 0.004 0.009
C17 0.142 0.13 0.158 0.011 0.047 0.073
C18 0.087 0.116 0.12 0.029 -0.019 0.041
N1 0.055 0.051 0.051 0.016 0.011 0.016
N2 0.062 0.08 0.116 0.021 0.014 0.038
O1 0.044 0.063 0.146 -0.056 0.032 -0.009
O3 0.031 0.04 0.062 -0.001 0.014 0.007
O5 0.072 0.042 0.06 0.014 0.019 0.013
O6 0.024 0.048 0.052 0.004 0.004 0.01
O7 0.033 0.036 0.044 -0.004 0.001 0
O8 0.03 0.037 0.067 -0.016 0.003 0
O10 0.041 0.057 0.078 0.014 0.006 0.02
O11 0.031 0.123 0.046 -0.012 0.002 0.015
C23 0.024 0.034 0.053 0.001 0.009 0.007
C24 0.022 0.042 0.047 0.002 0.001 0.007
C25 0.033 0.068 0.049 -0.006 0.012 0.013
C26 0.031 0.064 0.04 -0.011 0.001 0.01
O15 0.031 0.04 0.062 -0.001 0.014 0.007
O16 0.024 0.048 0.052 0.004 0.004 0.01
O17 0.031 0.123 0.046 -0.012 0.002 0.015
O25 0.047 0.032 0.036 0.003 -0.001 0.011
C9 0.049 0.033 0.034 0.009 0.007 0.012
O9 0.091 0.046 0.051 0.008 0.022 0.029
C19 0.035 0.026 0.046 0.001 0.007 0.007
C20 0.029 0.024 0.055 -0.007 0.006 -0.002
O12 0.039 0.022 0.049 -0.001 0.008 0.005
C33 0.053 0.081 0.096 0.025 0.018 0.01
C1 0.035 0.026 0.046 0.001 0.007 0.007
C4 0.029 0.024 0.055 -0.007 0.006 -0.002
C15 0.053 0.081 0.096 0.025 0.018 0.01
O2 0.039 0.022 0.049 -0.001 0.008 0.005
O4 0.047 0.032 0.036 0.003 -0.001 0.011
C22 0.049 0.033 0.034 0.009 0.007 0.012
O14 0.091 0.046 0.051 0.008 0.022 0.029
C21 0.055 0.031 0.044 -0.006 0.005 0.015
C31 0.079 0.065 0.088 0.026 0.028 0.024
C32 0.05 0.055 0.09 0.007 0.008 0.017
C34 0.049 0.061 0.054 -0.005 0.004 0.009
C35 0.142 0.13 0.158 0.011 0.047 0.073
C36 0.087 0.116 0.12 0.029 -0.019 0.041
N3 0.055 0.051 0.051 0.016 0.011 0.016
N4 0.062 0.08 0.116 0.021 0.014 0.038
O21 0.072 0.042 0.06 0.014 0.019 0.013
O22 0.041 0.057 0.078 0.014 0.006 0.02
loop_
_geom_bond_atom_site_label_1
_geom_bond_atom_site_label_2
_geom_bond_site_symmetry_1
_geom_bond_site_symmetry_2
C27 C28 1_555 1_555
C28 C29 1_555 1_555
H25 C29 1_555 1_555
O18 C30 1_555 1_555
H26 O18 1_555 1_555
O19 C27 1_555 1_555
O20 C27 1_555 1_555
Tb7 O19 1_555 1_555
C28 C30 1_555 1_555
O20 Tb7 1_555 1_555
C2 C3 1_555 1_555
C3 C5 1_555 1_555
C5 H1 1_555 1_555
C6 C5 1_555 1_555
C7 C11 1_555 1_555
H2 C8 1_555 1_555
H5 C10 1_555 1_555
C11 C12 1_555 1_555
C12 H6 1_555 1_555
C13 H7 1_555 1_555
C14 C11 1_555 1_555
C16 H11 1_555 1_555
C17 H12 1_555 1_555
H13 C17 1_555 1_555
H14 C17 1_555 1_555
C18 H15 1_555 1_555
H16 C18 1_555 1_555
H17 C18 1_555 1_555
N1 C10 1_555 1_555
N2 C13 1_555 1_555
O1 C14 1_555 1_555
H18 O1 1_555 1_555
O3 C2 1_555 1_555
O5 C16 1_555 1_555
O6 C2 1_555 1_555
O7 C7 1_555 1_555
O8 C7 1_555 1_555
O10 C13 1_555 1_555
O11 C6 1_555 1_555
H20 O11 1_555 1_555
Tb4 O3 1_555 1_555
C23 C24 1_555 1_555
C24 C6 1_555 1_555
C25 C24 1_555 1_555
H23 C25 1_555 1_555
C26 C3 1_555 1_555
O15 C23 1_555 1_555
O16 C23 1_555 1_555
O17 C26 1_555 1_555
H24 O17 1_555 1_555
O25 Tb4 1_555 1_555
Tb7 O15 1_555 1_555
C16 N1 1_555 1_555
C17 N2 1_555 1_555
C18 N2 1_555 1_555
O5 Tb4 1_555 1_555
O7 Tb4 1_555 1_555
O8 Tb4 1_555 1_555
O10 Tb4 1_555 1_555
C25 C26 1_555 1_555
O9 C9 1_555 1_555
H19 O9 1_555 1_555
C19 C9 1_555 1_555
C20 C19 1_555 1_555
O12 C20 1_555 1_555
O25 C20 1_555 1_555
C33 H31 1_555 1_555
H32 C33 1_555 1_555
H33 C33 1_555 1_555
C1 C4 1_555 1_555
C4 O2 1_555 1_555
C15 H8 1_555 1_555
H9 C15 1_555 1_555
H10 C15 1_555 1_555
O4 C4 1_555 1_555
C22 C1 1_555 1_555
O14 C22 1_555 1_555
H22 O14 1_555 1_555
Tb7 O4 1_555 1_555
H21 C21 1_555 1_555
H29 C31 1_555 1_555
C32 H30 1_555 1_555
C34 H34 1_555 1_555
C35 H35 1_555 1_555
H36 C35 1_555 1_555
H37 C35 1_555 1_555
C36 H38 1_555 1_555
H39 C36 1_555 1_555
H40 C36 1_555 1_555
N3 C31 1_555 1_555
N4 C32 1_555 1_555
O21 C34 1_555 1_555
O22 C32 1_555 1_555
C34 N3 1_555 1_555
C35 N4 1_555 1_555
C36 N4 1_555 1_555
O21 Tb7 1_555 1_555
O22 Tb7 1_555 1_555

#END
