
###############################################################################
#
# This file contains modified crystal structure data generated from the
# MOF subset of the Cambridge Structural Database (CSD) v543 
# hosted by the Cambridge Crystallographic Data Centre (CCDC).
#
# This work is licensed under the Creative Commons
# Attribution-NonCommercial-ShareAlike 4.0 International License.
# To view a copy of this license, visit
# http://creativecommons.org/licenses/by-nc-sa/4.0/
# or send a letter to
# Creative Commons, PO Box 1866, Mountain View, CA 94042, USA.
#
# CIF created using the CSD Python API on 29 September 2022
# The structure has been converted into the P1 space group
# The structure has a 3D framework
# The original CSD entry CAQVOI21 is in the triclinic crystal system
# The framework has been calculated to contain at least 10.0% void space
# The void calculation uses a probe of radius 1.32A, grid spacing 0.4
#
###############################################################################

data_CAQVOI21
_chemical_formula_moiety         '(C36 H40 N4 O22 Tb2)n'
_symmetry_cell_setting           triclinic
_symmetry_space_group_name_H-M   'P 1'
_symmetry_Int_Tables_number      1
_space_group_name_Hall           'P 1'
loop_
_symmetry_equiv_pos_site_id
_symmetry_equiv_pos_as_xyz
1 x,y,z
_cell_length_a                   10.6404(6)
_cell_length_b                   11.1598(5)
_cell_length_c                   11.4981(5)
_cell_angle_alpha                96.878(4)
_cell_angle_beta                 111.214(5)
_cell_angle_gamma                101.458(4)
_cell_volume                     1219.7
loop_
_atom_site_label
_atom_site_type_symbol
_atom_site_fract_x
_atom_site_fract_y
_atom_site_fract_z
_atom_site_U_iso_or_equiv
_atom_site_thermal_displace_type
Tb4 Tb 0.10827(3) 0.53494(4) 0.69876(4) 0.0357 Uani
C27 C 0.6967(10) 0.2408(10) 0.1391(11) 0.0420 Uani
C28 C 0.5987(10) 0.1151(10) 0.0673(10) 0.0453 Uani
C29 C 0.6386(11) 0.0352(13) 0.0105(14) 0.0634 Uani
H25 H 0.730570 0.055202 0.014912 0.0760 Uiso
C30 C 0.4566(11) 0.0889(12) 0.0628(14) 0.0656 Uani
O18 O 0.4044(10) 0.1798(11) 0.1160(14) 0.1001 Uani
H26 H 0.469819 0.241921 0.159667 0.1500 Uiso
O19 O 0.8149(7) 0.2711(7) 0.1317(7) 0.0481 Uani
O20 O 0.6612(8) 0.3148(8) 0.2081(9) 0.0550 Uani
Tb7 Tb 0.89173(3) 0.46506(4) 0.30124(4) 0.0357 Uani
C2 C 0.2052(9) 0.4854(10) 0.4320(11) 0.0428 Uani
C3 C 0.3576(9) 0.4935(11) 0.4665(10) 0.0416 Uani
C5 C 0.4528(11) 0.5399(13) 0.5931(11) 0.0560 Uani
H1 H 0.421150 0.568107 0.655176 0.0670 Uiso
C6 C 0.5955(12) 0.5450(14) 0.6289(11) 0.0563 Uani
C7 C 0.3033(10) 0.7592(10) 0.8609(11) 0.0420 Uani
C8 C 0.0016(13) 0.0724(11) 0.6065(11) 0.0506 Uani
H2 H 0.000346 0.121165 0.678436 0.0600 Uiso
C10 C 0.0507(19) 0.1786(18) 0.9909(19) 0.0824 Uani
H5 H 0.016911 0.100786 0.928262 0.1240 Uiso
C11 C 0.4013(10) 0.8849(10) 0.9327(10) 0.0453 Uani
C12 C 0.3614(11) 0.9648(13) 0.9895(14) 0.0634 Uani
H6 H 0.269430 0.944798 0.985088 0.0760 Uiso
C13 C 0.3095(14) 0.3296(14) 0.7181(15) 0.0733 Uani
H7 H 0.241961 0.282751 0.638810 0.0880 Uiso
C14 C 0.5434(11) 0.9111(12) 0.9372(14) 0.0656 Uani
C16 C 0.1174(16) 0.3700(18) 0.9321(15) 0.0647 Uani
H11 H 0.209882 0.367996 0.977960 0.0780 Uiso
C17 C 0.440(3) 0.181(2) 0.702(3) 0.1357 Uani
H12 H 0.529008 0.165854 0.751203 0.2030 Uiso
H13 H 0.364840 0.109731 0.690607 0.2030 Uiso
H14 H 0.437725 0.193614 0.619173 0.2030 Uiso
C18 C 0.532(2) 0.360(3) 0.887(2) 0.1288 Uani
H15 H 0.607052 0.318928 0.909240 0.1950 Uiso
H16 H 0.567610 0.444719 0.879484 0.1950 Uiso
H17 H 0.495953 0.363336 0.953463 0.1950 Uiso
N1 N 0.0194(12) 0.2804(11) 0.9262(11) 0.0569 Uani
N2 N 0.4240(15) 0.2932(16) 0.7699(17) 0.0945 Uani
O1 O 0.5956(10) 0.8202(11) 0.8840(14) 0.1001 Uani
H18 H 0.530181 0.758079 0.840333 0.1500 Uiso
O3 O 0.1617(7) 0.5066(8) 0.5186(8) 0.0487 Uani
O5 O 0.0976(11) 0.4619(11) 0.8799(10) 0.0652 Uani
O6 O 0.1217(7) 0.4578(8) 0.3142(7) 0.0455 Uani
O7 O 0.1851(7) 0.7289(7) 0.8683(7) 0.0481 Uani
O8 O 0.3388(8) 0.6852(8) 0.7919(9) 0.0550 Uani
O10 O 0.2864(9) 0.4219(10) 0.7683(10) 0.0660 Uani
O11 O 0.6820(9) 0.5866(12) 0.7541(8) 0.0750 Uani
H20 H 0.762794 0.585342 0.763528 0.1130 Uiso
C23 C 0.7948(9) 0.5146(10) 0.5680(11) 0.0428 Uani
C24 C 0.6424(9) 0.5065(11) 0.5335(10) 0.0416 Uani
C25 C 0.5472(11) 0.4601(13) 0.4069(11) 0.0560 Uani
H23 H 0.578850 0.431893 0.344824 0.0670 Uiso
C26 C 0.4045(12) 0.4550(14) 0.3711(11) 0.0563 Uani
O15 O 0.8383(7) 0.4934(8) 0.4814(8) 0.0487 Uani
O16 O 0.8783(7) 0.5422(8) 0.6858(7) 0.0455 Uani
O17 O 0.3180(9) 0.4134(12) 0.2459(8) 0.0750 Uani
H24 H 0.237206 0.414658 0.236472 0.1130 Uiso
O25 O 0.0719(8) 0.7147(7) 0.6066(7) 0.0473 Uani
C9 C 0.0250(12) 0.9553(11) 0.6142(10) 0.0458 Uani
O9 O 0.0447(12) 0.9190(10) 0.7276(9) 0.0675 Uani
H19 H 0.094017 0.868946 0.736931 0.1010 Uiso
C19 C 0.0202(10) 0.8789(10) 0.5032(10) 0.0450 Uani
C20 C 0.0369(10) 0.7482(10) 0.5016(11) 0.0425 Uani
O12 O 0.0101(8) 0.6797(7) 0.3945(7) 0.0414 Uani
C33 C 0.1261(16) 0.719(2) 0.1386(19) 0.0852 Uani
H31 H 0.167863 0.710722 0.076693 0.1280 Uiso
H32 H 0.176697 0.795888 0.201411 0.1280 Uiso
H33 H 0.130634 0.648359 0.180853 0.1280 Uiso
C1 C 0.9798(10) 0.1211(10) 0.4968(10) 0.0450 Uani
C4 C 0.9631(10) 0.2518(10) 0.4984(11) 0.0425 Uani
C15 C 0.8739(16) 0.281(2) 0.8614(19) 0.0852 Uani
H8 H 0.832137 0.289278 0.923307 0.1280 Uiso
H9 H 0.823303 0.204112 0.798589 0.1280 Uiso
H10 H 0.869366 0.351641 0.819147 0.1280 Uiso
O2 O 0.9899(8) 0.3203(7) 0.6055(7) 0.0414 Uani
O4 O 0.9281(8) 0.2853(7) 0.3934(7) 0.0473 Uani
C22 C 0.9750(12) 0.0447(11) 0.3858(10) 0.0458 Uani
O14 O 0.9553(12) 0.0810(10) 0.2724(9) 0.0675 Uani
H22 H 0.905983 0.131054 0.263069 0.1010 Uiso
C21 C 0.9984(13) 0.9276(11) 0.3935(11) 0.0506 Uani
H21 H 0.999654 0.878835 0.321564 0.0600 Uiso
C31 C 0.9493(19) 0.8214(18) 0.0091(19) 0.0824 Uani
H29 H 0.983089 0.899214 0.071738 0.1240 Uiso
C32 C 0.6905(14) 0.6704(14) 0.2819(15) 0.0733 Uani
H30 H 0.758039 0.717249 0.361190 0.0880 Uiso
C34 C 0.8826(16) 0.6300(18) 0.0679(15) 0.0647 Uani
H34 H 0.790118 0.632004 0.022040 0.0780 Uiso
C35 C 0.560(3) 0.819(2) 0.298(3) 0.1357 Uani
H35 H 0.470992 0.834146 0.248797 0.2030 Uiso
H36 H 0.635160 0.890269 0.309393 0.2030 Uiso
H37 H 0.562275 0.806386 0.380827 0.2030 Uiso
C36 C 0.468(2) 0.640(3) 0.113(2) 0.1288 Uani
H38 H 0.392948 0.681072 0.090760 0.1950 Uiso
H39 H 0.432390 0.555281 0.120516 0.1950 Uiso
H40 H 0.504047 0.636664 0.046537 0.1950 Uiso
N3 N 0.9806(12) 0.7196(11) 0.0738(11) 0.0569 Uani
N4 N 0.5760(15) 0.7068(16) 0.2301(17) 0.0945 Uani
O21 O 0.9024(11) 0.5381(11) 0.1201(10) 0.0652 Uani
O22 O 0.7136(9) 0.5781(10) 0.2317(10) 0.0660 Uani
H3 H 0.005189 0.172011 0.050101 0.1240 Uiso
H4 H 0.150894 0.195421 0.037176 0.1240 Uiso
H27 H 0.994811 0.827989 0.949899 0.1240 Uiso
H28 H 0.849106 0.804579 0.962824 0.1240 Uiso
loop_
_atom_site_aniso_label
_atom_site_aniso_U_11
_atom_site_aniso_U_22
_atom_site_aniso_U_33
_atom_site_aniso_U_23
_atom_site_aniso_U_13
_atom_site_aniso_U_12
Tb4 0.0281 0.0227 0.0378 -0.0048 -0.0022 0.0024
C27 0.035 0.02 0.046 -0.009 -0.005 0.003
C28 0.036 0.029 0.046 -0.011 -0.001 -0.001
C29 0.036 0.056 0.076 -0.014 0.012 0
C30 0.038 0.047 0.083 -0.033 0.012 -0.001
O18 0.05 0.067 0.142 -0.063 0.031 -0.01
O19 0.039 0.037 0.046 -0.005 0.001 0
O20 0.036 0.036 0.067 -0.019 0.005 0
Tb7 0.0281 0.0227 0.0378 -0.0048 -0.0022 0.0024
C2 0.03 0.036 0.052 -0.004 0.01 0.006
C3 0.026 0.042 0.043 0.003 0.001 0.007
C5 0.041 0.071 0.046 -0.011 0.013 0.015
C6 0.039 0.065 0.043 -0.018 0.003 0.009
C7 0.035 0.02 0.046 -0.009 -0.005 0.003
C8 0.063 0.03 0.043 -0.008 0.006 0.016
C10 0.081 0.066 0.092 0.015 0.026 0.018
C11 0.036 0.029 0.046 -0.011 -0.001 -0.001
C12 0.036 0.056 0.076 -0.014 0.012 0
C13 0.055 0.055 0.088 0.004 0.006 0.016
C14 0.038 0.047 0.083 -0.033 0.012 -0.001
C16 0.059 0.065 0.051 0 0.005 0.014
C17 0.135 0.123 0.148 0.008 0.045 0.065
C18 0.086 0.13 0.124 0.006 -0.015 0.048
N1 0.066 0.047 0.051 0.012 0.014 0.017
N2 0.066 0.084 0.117 0.013 0.011 0.037
O1 0.05 0.067 0.142 -0.063 0.031 -0.01
O3 0.035 0.043 0.058 -0.003 0.013 0.007
O5 0.08 0.045 0.062 0.007 0.022 0.012
O6 0.031 0.045 0.049 0.004 0.004 0.011
O7 0.039 0.037 0.046 -0.005 0.001 0
O8 0.036 0.036 0.067 -0.019 0.005 0
O10 0.046 0.06 0.079 0.014 0.007 0.02
O11 0.036 0.121 0.042 -0.018 0.002 0.011
C23 0.03 0.036 0.052 -0.004 0.01 0.006
C24 0.026 0.042 0.043 0.003 0.001 0.007
C25 0.041 0.071 0.046 -0.011 0.013 0.015
C26 0.039 0.065 0.043 -0.018 0.003 0.009
O15 0.035 0.043 0.058 -0.003 0.013 0.007
O16 0.031 0.045 0.049 0.004 0.004 0.011
O17 0.036 0.121 0.042 -0.018 0.002 0.011
O25 0.051 0.032 0.04 -0.002 0 0.01
C9 0.057 0.036 0.035 0.006 0.008 0.012
O9 0.102 0.05 0.046 0.003 0.02 0.032
C19 0.043 0.031 0.044 -0.005 0.003 0.008
C20 0.035 0.023 0.048 -0.007 0.001 -0.001
O12 0.047 0.018 0.044 -0.001 0.005 0.005
C33 0.059 0.091 0.092 0.024 0.017 0.012
C1 0.043 0.031 0.044 -0.005 0.003 0.008
C4 0.035 0.023 0.048 -0.007 0.001 -0.001
C15 0.059 0.091 0.092 0.024 0.017 0.012
O2 0.047 0.018 0.044 -0.001 0.005 0.005
O4 0.051 0.032 0.04 -0.002 0 0.01
C22 0.057 0.036 0.035 0.006 0.008 0.012
O14 0.102 0.05 0.046 0.003 0.02 0.032
C21 0.063 0.03 0.043 -0.008 0.006 0.016
C31 0.081 0.066 0.092 0.015 0.026 0.018
C32 0.055 0.055 0.088 0.004 0.006 0.016
C34 0.059 0.065 0.051 0 0.005 0.014
C35 0.135 0.123 0.148 0.008 0.045 0.065
C36 0.086 0.13 0.124 0.006 -0.015 0.048
N3 0.066 0.047 0.051 0.012 0.014 0.017
N4 0.066 0.084 0.117 0.013 0.011 0.037
O21 0.08 0.045 0.062 0.007 0.022 0.012
O22 0.046 0.06 0.079 0.014 0.007 0.02
loop_
_geom_bond_atom_site_label_1
_geom_bond_atom_site_label_2
_geom_bond_site_symmetry_1
_geom_bond_site_symmetry_2
C27 C28 1_555 1_555
C28 C29 1_555 1_555
H25 C29 1_555 1_555
O18 C30 1_555 1_555
H26 O18 1_555 1_555
O19 C27 1_555 1_555
O20 C27 1_555 1_555
Tb7 O19 1_555 1_555
C28 C30 1_555 1_555
O20 Tb7 1_555 1_555
C2 C3 1_555 1_555
C3 C5 1_555 1_555
C5 H1 1_555 1_555
C6 C5 1_555 1_555
C7 C11 1_555 1_555
H2 C8 1_555 1_555
H5 C10 1_555 1_555
C11 C12 1_555 1_555
C12 H6 1_555 1_555
C13 H7 1_555 1_555
C14 C11 1_555 1_555
C16 H11 1_555 1_555
C17 H12 1_555 1_555
H13 C17 1_555 1_555
H14 C17 1_555 1_555
C18 H15 1_555 1_555
H16 C18 1_555 1_555
H17 C18 1_555 1_555
N1 C10 1_555 1_555
N2 C13 1_555 1_555
O1 C14 1_555 1_555
H18 O1 1_555 1_555
O3 C2 1_555 1_555
O5 C16 1_555 1_555
O6 C2 1_555 1_555
O7 C7 1_555 1_555
O8 C7 1_555 1_555
O10 C13 1_555 1_555
O11 C6 1_555 1_555
H20 O11 1_555 1_555
Tb4 O3 1_555 1_555
C23 C24 1_555 1_555
C24 C6 1_555 1_555
C25 C24 1_555 1_555
H23 C25 1_555 1_555
C26 C3 1_555 1_555
O15 C23 1_555 1_555
O16 C23 1_555 1_555
O17 C26 1_555 1_555
H24 O17 1_555 1_555
O25 Tb4 1_555 1_555
Tb7 O15 1_555 1_555
C16 N1 1_555 1_555
C17 N2 1_555 1_555
C18 N2 1_555 1_555
O5 Tb4 1_555 1_555
O7 Tb4 1_555 1_555
O8 Tb4 1_555 1_555
O10 Tb4 1_555 1_555
C25 C26 1_555 1_555
O9 C9 1_555 1_555
H19 O9 1_555 1_555
C19 C9 1_555 1_555
C20 C19 1_555 1_555
O12 C20 1_555 1_555
O25 C20 1_555 1_555
C33 H31 1_555 1_555
H32 C33 1_555 1_555
H33 C33 1_555 1_555
C1 C4 1_555 1_555
C4 O2 1_555 1_555
C15 H8 1_555 1_555
H9 C15 1_555 1_555
H10 C15 1_555 1_555
O4 C4 1_555 1_555
C22 C1 1_555 1_555
O14 C22 1_555 1_555
H22 O14 1_555 1_555
Tb7 O4 1_555 1_555
H21 C21 1_555 1_555
H29 C31 1_555 1_555
C32 H30 1_555 1_555
C34 H34 1_555 1_555
C35 H35 1_555 1_555
H36 C35 1_555 1_555
H37 C35 1_555 1_555
C36 H38 1_555 1_555
H39 C36 1_555 1_555
H40 C36 1_555 1_555
N3 C31 1_555 1_555
N4 C32 1_555 1_555
O21 C34 1_555 1_555
O22 C32 1_555 1_555
C34 N3 1_555 1_555
C35 N4 1_555 1_555
C36 N4 1_555 1_555
O21 Tb7 1_555 1_555
O22 Tb7 1_555 1_555

#END
