
###############################################################################
#
# This file contains modified crystal structure data generated from the
# MOF subset of the Cambridge Structural Database (CSD) v543 
# hosted by the Cambridge Crystallographic Data Centre (CCDC).
#
# This work is licensed under the Creative Commons
# Attribution-NonCommercial-ShareAlike 4.0 International License.
# To view a copy of this license, visit
# http://creativecommons.org/licenses/by-nc-sa/4.0/
# or send a letter to
# Creative Commons, PO Box 1866, Mountain View, CA 94042, USA.
#
# CIF created using the CSD Python API on 29 September 2022
# The structure has been converted into the P1 space group
# The structure has a 3D framework
# The original CSD entry CAQVOI19 is in the triclinic crystal system
# The framework has been calculated to contain at least 10.0% void space
# The void calculation uses a probe of radius 1.32A, grid spacing 0.4
#
###############################################################################

data_CAQVOI19
_chemical_formula_moiety         '(C36 H40 N4 O22 Tb2)n'
_symmetry_cell_setting           triclinic
_symmetry_space_group_name_H-M   'P 1'
_symmetry_Int_Tables_number      1
_space_group_name_Hall           'P 1'
loop_
_symmetry_equiv_pos_site_id
_symmetry_equiv_pos_as_xyz
1 x,y,z
_cell_length_a                   10.6568(6)
_cell_length_b                   11.1912(5)
_cell_length_c                   11.4798(5)
_cell_angle_alpha                96.941(4)
_cell_angle_beta                 111.109(5)
_cell_angle_gamma                101.425(4)
_cell_volume                     1223.97
loop_
_atom_site_label
_atom_site_type_symbol
_atom_site_fract_x
_atom_site_fract_y
_atom_site_fract_z
_atom_site_U_iso_or_equiv
_atom_site_thermal_displace_type
Tb4 Tb 0.10789(4) 0.53510(4) 0.69915(4) 0.0325 Uani
C27 C 0.6976(11) 0.2404(10) 0.1396(11) 0.0365 Uani
C28 C 0.5996(11) 0.1142(11) 0.0668(12) 0.0438 Uani
C29 C 0.6388(12) 0.0364(15) 0.0098(15) 0.0587 Uani
H25 H 0.730420 0.057748 0.011771 0.0710 Uiso
C30 C 0.4566(12) 0.0908(14) 0.0619(15) 0.0582 Uani
O18 O 0.4043(11) 0.1819(12) 0.1178(15) 0.0907 Uani
H26 H 0.470380 0.244536 0.161853 0.1370 Uiso
O19 O 0.8144(8) 0.2703(8) 0.1310(8) 0.0427 Uani
O20 O 0.6619(8) 0.3150(9) 0.2085(9) 0.0508 Uani
Tb7 Tb 0.89211(4) 0.46490(4) 0.30085(4) 0.0325 Uani
C2 C 0.2048(10) 0.4843(11) 0.4319(12) 0.0399 Uani
C3 C 0.3572(10) 0.4939(11) 0.4667(11) 0.0375 Uani
C5 C 0.4527(12) 0.5397(14) 0.5940(12) 0.0511 Uani
H1 H 0.420945 0.567792 0.657191 0.0620 Uiso
C6 C 0.5944(12) 0.5443(14) 0.6289(12) 0.0499 Uani
C7 C 0.3024(11) 0.7596(10) 0.8604(11) 0.0365 Uani
C8 C 0.0026(13) 0.0722(12) 0.6078(12) 0.0454 Uani
H2 H 0.002342 0.121364 0.681177 0.0540 Uiso
C10 C 0.0486(19) 0.1782(18) 0.990(2) 0.0751 Uani
H5 H 0.006999 0.099087 0.927579 0.1120 Uiso
C11 C 0.4004(11) 0.8858(11) 0.9332(12) 0.0438 Uani
C12 C 0.3612(12) 0.9636(15) 0.9902(15) 0.0587 Uani
H6 H 0.269580 0.942252 0.988229 0.0710 Uiso
C13 C 0.3094(15) 0.3289(14) 0.7205(15) 0.0693 Uani
H7 H 0.239869 0.279610 0.641978 0.0830 Uiso
C14 C 0.5434(12) 0.9092(14) 0.9381(15) 0.0582 Uani
C16 C 0.1186(16) 0.3728(19) 0.9328(16) 0.0614 Uani
H11 H 0.212149 0.371825 0.979471 0.0740 Uiso
C17 C 0.436(3) 0.179(2) 0.702(3) 0.1262 Uani
H12 H 0.526431 0.163656 0.749200 0.1890 Uiso
H13 H 0.360964 0.108645 0.694187 0.1890 Uiso
H14 H 0.429893 0.189714 0.616514 0.1890 Uiso
C18 C 0.533(2) 0.363(3) 0.886(2) 0.1149 Uani
H15 H 0.609527 0.322837 0.908706 0.1720 Uiso
H16 H 0.566512 0.447797 0.876301 0.1720 Uiso
H17 H 0.497829 0.367221 0.954461 0.1720 Uiso
N1 N 0.0194(12) 0.2801(12) 0.9266(11) 0.0517 Uani
N2 N 0.4244(15) 0.2936(16) 0.7707(17) 0.0856 Uani
O1 O 0.5957(11) 0.8181(12) 0.8822(15) 0.0907 Uani
H18 H 0.529620 0.755464 0.838147 0.1370 Uiso
O3 O 0.1613(8) 0.5056(8) 0.5183(8) 0.0444 Uani
O5 O 0.0978(11) 0.4639(11) 0.8803(10) 0.0577 Uani
O6 O 0.1215(7) 0.4578(8) 0.3128(8) 0.0421 Uani
O7 O 0.1856(8) 0.7297(8) 0.8690(8) 0.0427 Uani
O8 O 0.3381(8) 0.6850(9) 0.7915(9) 0.0508 Uani
O10 O 0.2864(9) 0.4220(10) 0.7690(11) 0.0614 Uani
O11 O 0.6815(9) 0.5843(13) 0.7557(9) 0.0679 Uani
H20 H 0.762971 0.582892 0.764882 0.1020 Uiso
C23 C 0.7952(10) 0.5157(11) 0.5681(12) 0.0399 Uani
C24 C 0.6428(10) 0.5061(11) 0.5333(11) 0.0375 Uani
C25 C 0.5473(12) 0.4603(14) 0.4060(12) 0.0511 Uani
H23 H 0.579055 0.432208 0.342809 0.0620 Uiso
C26 C 0.4056(12) 0.4557(14) 0.3711(12) 0.0499 Uani
O15 O 0.8387(8) 0.4944(8) 0.4817(8) 0.0444 Uani
O16 O 0.8785(7) 0.5422(8) 0.6872(8) 0.0421 Uani
O17 O 0.3185(9) 0.4157(13) 0.2443(9) 0.0679 Uani
H24 H 0.237029 0.417108 0.235118 0.1020 Uiso
O25 O 0.0719(8) 0.7141(8) 0.6074(8) 0.0430 Uani
C9 C 0.0254(13) 0.9557(12) 0.6143(11) 0.0414 Uani
O9 O 0.0464(13) 0.9190(10) 0.7287(9) 0.0604 Uani
H19 H 0.070708 0.852122 0.726635 0.0910 Uiso
C19 C 0.0202(11) 0.8790(11) 0.5027(11) 0.0390 Uani
C20 C 0.0361(11) 0.7485(11) 0.5012(12) 0.0408 Uani
O12 O 0.0090(8) 0.6790(7) 0.3935(8) 0.0386 Uani
C33 C 0.1269(17) 0.722(2) 0.140(2) 0.0768 Uani
H31 H 0.167693 0.706140 0.077355 0.1150 Uiso
H32 H 0.177958 0.803185 0.196961 0.1150 Uiso
H33 H 0.133096 0.656505 0.190247 0.1150 Uiso
C1 C 0.9798(11) 0.1210(11) 0.4973(11) 0.0390 Uani
C4 C 0.9639(11) 0.2515(11) 0.4988(12) 0.0408 Uani
C15 C 0.8731(17) 0.278(2) 0.860(2) 0.0768 Uani
H8 H 0.832307 0.293860 0.922645 0.1150 Uiso
H9 H 0.822042 0.196815 0.803039 0.1150 Uiso
H10 H 0.866904 0.343495 0.809753 0.1150 Uiso
O2 O 0.9910(8) 0.3210(7) 0.6065(8) 0.0386 Uani
O4 O 0.9281(8) 0.2859(8) 0.3926(8) 0.0430 Uani
C22 C 0.9746(13) 0.0443(12) 0.3857(11) 0.0414 Uani
O14 O 0.9536(13) 0.0810(10) 0.2713(9) 0.0604 Uani
H22 H 0.929292 0.147878 0.273365 0.0910 Uiso
C21 C 0.9974(13) 0.9278(12) 0.3922(12) 0.0454 Uani
H21 H 0.997658 0.878636 0.318823 0.0540 Uiso
C31 C 0.9514(19) 0.8218(18) 0.010(2) 0.0751 Uani
H29 H 0.993001 0.900913 0.072421 0.1120 Uiso
C32 C 0.6906(15) 0.6711(14) 0.2795(15) 0.0693 Uani
H30 H 0.760131 0.720390 0.358022 0.0830 Uiso
C34 C 0.8814(16) 0.6272(19) 0.0672(16) 0.0614 Uani
H34 H 0.787851 0.628175 0.020529 0.0740 Uiso
C35 C 0.564(3) 0.821(2) 0.298(3) 0.1262 Uani
H35 H 0.473569 0.836344 0.250800 0.1890 Uiso
H36 H 0.639036 0.891355 0.305813 0.1890 Uiso
H37 H 0.570107 0.810286 0.383486 0.1890 Uiso
C36 C 0.467(2) 0.637(3) 0.114(2) 0.1149 Uani
H38 H 0.390473 0.677163 0.091294 0.1720 Uiso
H39 H 0.433488 0.552203 0.123699 0.1720 Uiso
H40 H 0.502171 0.632779 0.045539 0.1720 Uiso
N3 N 0.9806(12) 0.7199(12) 0.0734(11) 0.0517 Uani
N4 N 0.5756(15) 0.7064(16) 0.2293(17) 0.0856 Uani
O21 O 0.9022(11) 0.5361(11) 0.1197(10) 0.0577 Uani
O22 O 0.7136(9) 0.5780(10) 0.2310(11) 0.0614 Uani
H3 H 0.008885 0.176384 0.055212 0.1120 Uiso
H4 H 0.149630 0.190423 0.031418 0.1120 Uiso
H27 H 0.991115 0.823616 0.944788 0.1120 Uiso
H28 H 0.850370 0.809577 0.968582 0.1120 Uiso
loop_
_atom_site_aniso_label
_atom_site_aniso_U_11
_atom_site_aniso_U_22
_atom_site_aniso_U_33
_atom_site_aniso_U_23
_atom_site_aniso_U_13
_atom_site_aniso_U_12
Tb4 0.0226 0.0204 0.0351 -0.0042 -0.0049 0.0005
C27 0.029 0.018 0.042 -0.006 -0.004 0.003
C28 0.03 0.025 0.049 -0.009 -0.004 -0.005
C29 0.031 0.054 0.07 -0.01 0.008 0.002
C30 0.031 0.045 0.071 -0.025 0.005 0.001
O18 0.042 0.062 0.128 -0.053 0.023 -0.01
O19 0.033 0.033 0.04 -0.004 -0.002 -0.001
O20 0.029 0.036 0.061 -0.016 0 0.001
Tb7 0.0226 0.0204 0.0351 -0.0042 -0.0049 0.0005
C2 0.025 0.029 0.052 -0.004 0.006 0.002
C3 0.023 0.035 0.038 0.003 -0.003 0.003
C5 0.036 0.067 0.041 -0.005 0.01 0.013
C6 0.033 0.055 0.04 -0.014 0 0.006
C7 0.029 0.018 0.042 -0.006 -0.004 0.003
C8 0.048 0.031 0.039 -0.008 0.001 0.011
C10 0.07 0.06 0.088 0.017 0.022 0.018
C11 0.03 0.025 0.049 -0.009 -0.004 -0.005
C12 0.031 0.054 0.07 -0.01 0.008 0.002
C13 0.048 0.054 0.081 -0.001 0.002 0.013
C14 0.031 0.045 0.071 -0.025 0.005 0.001
C16 0.05 0.062 0.049 -0.007 0.001 0.011
C17 0.126 0.114 0.138 0.01 0.041 0.061
C18 0.084 0.098 0.114 0.021 -0.022 0.035
N1 0.055 0.045 0.046 0.014 0.007 0.015
N2 0.058 0.077 0.107 0.013 0.01 0.032
O1 0.042 0.062 0.128 -0.053 0.023 -0.01
O3 0.03 0.036 0.055 -0.004 0.01 0.003
O5 0.072 0.036 0.056 0.008 0.018 0.009
O6 0.025 0.041 0.046 0.001 0.001 0.007
O7 0.033 0.033 0.04 -0.004 -0.002 -0.001
O8 0.029 0.036 0.061 -0.016 0 0.001
O10 0.039 0.057 0.074 0.011 0.004 0.018
O11 0.032 0.11 0.038 -0.016 0 0.012
C23 0.025 0.029 0.052 -0.004 0.006 0.002
C24 0.023 0.035 0.038 0.003 -0.003 0.003
C25 0.036 0.067 0.041 -0.005 0.01 0.013
C26 0.033 0.055 0.04 -0.014 0 0.006
O15 0.03 0.036 0.055 -0.004 0.01 0.003
O16 0.025 0.041 0.046 0.001 0.001 0.007
O17 0.032 0.11 0.038 -0.016 0 0.012
O25 0.043 0.033 0.033 0 -0.004 0.007
C9 0.049 0.031 0.032 0.006 0.003 0.009
O9 0.087 0.042 0.045 0.003 0.016 0.024
C19 0.032 0.028 0.041 -0.003 0.001 0.005
C20 0.03 0.021 0.05 -0.009 0.002 -0.004
O12 0.039 0.018 0.043 -0.003 0.004 0.002
C33 0.054 0.076 0.084 0.021 0.014 0.004
C1 0.032 0.028 0.041 -0.003 0.001 0.005
C4 0.03 0.021 0.05 -0.009 0.002 -0.004
C15 0.054 0.076 0.084 0.021 0.014 0.004
O2 0.039 0.018 0.043 -0.003 0.004 0.002
O4 0.043 0.033 0.033 0 -0.004 0.007
C22 0.049 0.031 0.032 0.006 0.003 0.009
O14 0.087 0.042 0.045 0.003 0.016 0.024
C21 0.048 0.031 0.039 -0.008 0.001 0.011
C31 0.07 0.06 0.088 0.017 0.022 0.018
C32 0.048 0.054 0.081 -0.001 0.002 0.013
C34 0.05 0.062 0.049 -0.007 0.001 0.011
C35 0.126 0.114 0.138 0.01 0.041 0.061
C36 0.084 0.098 0.114 0.021 -0.022 0.035
N3 0.055 0.045 0.046 0.014 0.007 0.015
N4 0.058 0.077 0.107 0.013 0.01 0.032
O21 0.072 0.036 0.056 0.008 0.018 0.009
O22 0.039 0.057 0.074 0.011 0.004 0.018
loop_
_geom_bond_atom_site_label_1
_geom_bond_atom_site_label_2
_geom_bond_site_symmetry_1
_geom_bond_site_symmetry_2
C27 C28 1_555 1_555
C28 C29 1_555 1_555
H25 C29 1_555 1_555
O18 C30 1_555 1_555
H26 O18 1_555 1_555
O19 C27 1_555 1_555
O20 C27 1_555 1_555
Tb7 O19 1_555 1_555
C28 C30 1_555 1_555
O20 Tb7 1_555 1_555
C2 C3 1_555 1_555
C3 C5 1_555 1_555
C5 H1 1_555 1_555
C6 C5 1_555 1_555
C7 C11 1_555 1_555
H2 C8 1_555 1_555
H5 C10 1_555 1_555
C11 C12 1_555 1_555
C12 H6 1_555 1_555
C13 H7 1_555 1_555
C14 C11 1_555 1_555
C16 H11 1_555 1_555
C17 H12 1_555 1_555
H13 C17 1_555 1_555
H14 C17 1_555 1_555
C18 H15 1_555 1_555
H16 C18 1_555 1_555
H17 C18 1_555 1_555
N1 C10 1_555 1_555
N2 C13 1_555 1_555
O1 C14 1_555 1_555
H18 O1 1_555 1_555
O3 C2 1_555 1_555
O5 C16 1_555 1_555
O6 C2 1_555 1_555
O7 C7 1_555 1_555
O8 C7 1_555 1_555
O10 C13 1_555 1_555
O11 C6 1_555 1_555
H20 O11 1_555 1_555
Tb4 O3 1_555 1_555
C23 C24 1_555 1_555
C24 C6 1_555 1_555
C25 C24 1_555 1_555
H23 C25 1_555 1_555
C26 C3 1_555 1_555
O15 C23 1_555 1_555
O16 C23 1_555 1_555
O17 C26 1_555 1_555
H24 O17 1_555 1_555
O25 Tb4 1_555 1_555
Tb7 O15 1_555 1_555
C16 N1 1_555 1_555
C17 N2 1_555 1_555
C18 N2 1_555 1_555
O5 Tb4 1_555 1_555
O7 Tb4 1_555 1_555
O8 Tb4 1_555 1_555
O10 Tb4 1_555 1_555
C25 C26 1_555 1_555
O9 C9 1_555 1_555
H19 O9 1_555 1_555
C19 C9 1_555 1_555
C20 C19 1_555 1_555
O12 C20 1_555 1_555
O25 C20 1_555 1_555
C33 H31 1_555 1_555
H32 C33 1_555 1_555
H33 C33 1_555 1_555
C1 C4 1_555 1_555
C4 O2 1_555 1_555
C15 H8 1_555 1_555
H9 C15 1_555 1_555
H10 C15 1_555 1_555
O4 C4 1_555 1_555
C22 C1 1_555 1_555
O14 C22 1_555 1_555
H22 O14 1_555 1_555
Tb7 O4 1_555 1_555
H21 C21 1_555 1_555
H29 C31 1_555 1_555
C32 H30 1_555 1_555
C34 H34 1_555 1_555
C35 H35 1_555 1_555
H36 C35 1_555 1_555
H37 C35 1_555 1_555
C36 H38 1_555 1_555
H39 C36 1_555 1_555
H40 C36 1_555 1_555
N3 C31 1_555 1_555
N4 C32 1_555 1_555
O21 C34 1_555 1_555
O22 C32 1_555 1_555
C34 N3 1_555 1_555
C35 N4 1_555 1_555
C36 N4 1_555 1_555
O21 Tb7 1_555 1_555
O22 Tb7 1_555 1_555

#END
