
###############################################################################
#
# This file contains modified crystal structure data generated from the
# MOF subset of the Cambridge Structural Database (CSD) v543 
# hosted by the Cambridge Crystallographic Data Centre (CCDC).
#
# This work is licensed under the Creative Commons
# Attribution-NonCommercial-ShareAlike 4.0 International License.
# To view a copy of this license, visit
# http://creativecommons.org/licenses/by-nc-sa/4.0/
# or send a letter to
# Creative Commons, PO Box 1866, Mountain View, CA 94042, USA.
#
# CIF created using the CSD Python API on 29 September 2022
# The structure has been converted into the P1 space group
# The structure has a 3D framework
# The original CSD entry CAQVOI27 is in the triclinic crystal system
# The framework has been calculated to contain at least 10.0% void space
# The void calculation uses a probe of radius 1.32A, grid spacing 0.4
#
###############################################################################

data_CAQVOI27
_chemical_formula_moiety         '(C36 H40 N4 O22 Tb2)n'
_symmetry_cell_setting           triclinic
_symmetry_space_group_name_H-M   'P 1'
_symmetry_Int_Tables_number      1
_space_group_name_Hall           'P 1'
loop_
_symmetry_equiv_pos_site_id
_symmetry_equiv_pos_as_xyz
1 x,y,z
_cell_length_a                   10.6634(8)
_cell_length_b                   11.1405(7)
_cell_length_c                   11.6932(8)
_cell_angle_alpha                96.751(5)
_cell_angle_beta                 111.604(7)
_cell_angle_gamma                101.562(6)
_cell_volume                     1237.08
loop_
_atom_site_label
_atom_site_type_symbol
_atom_site_fract_x
_atom_site_fract_y
_atom_site_fract_z
_atom_site_U_iso_or_equiv
_atom_site_thermal_displace_type
Tb4 Tb 0.10974(4) 0.53476(4) 0.69631(4) 0.0447 Uani
C27 C 0.6951(10) 0.2413(11) 0.1420(11) 0.0572 Uani
C28 C 0.5966(9) 0.1155(10) 0.0703(11) 0.0562 Uani
C29 C 0.6375(12) 0.0356(13) 0.0077(14) 0.0754 Uani
H25 H 0.726678 0.057614 0.008409 0.0900 Uiso
C30 C 0.4584(11) 0.0881(14) 0.0631(15) 0.0850 Uani
O18 O 0.4041(12) 0.1758(13) 0.1200(17) 0.1460 Uani
H26 H 0.467864 0.237766 0.163413 0.2190 Uiso
O19 O 0.8131(8) 0.2724(8) 0.1336(7) 0.0596 Uani
O20 O 0.6592(8) 0.3129(8) 0.2087(10) 0.0722 Uani
Tb7 Tb 0.89026(4) 0.46524(4) 0.30369(4) 0.0447 Uani
C2 C 0.2060(10) 0.4886(11) 0.4351(11) 0.0549 Uani
C3 C 0.3587(9) 0.4943(11) 0.4679(11) 0.0556 Uani
C5 C 0.4546(11) 0.5437(15) 0.5903(11) 0.0706 Uani
H1 H 0.425044 0.575083 0.650382 0.0850 Uiso
C6 C 0.5973(11) 0.5470(14) 0.6253(11) 0.0631 Uani
C7 C 0.3049(10) 0.7587(11) 0.8580(11) 0.0572 Uani
C8 C 0.0015(15) 0.0728(12) 0.6056(13) 0.0666 Uani
H2 H 0.001933 0.121660 0.675952 0.0800 Uiso
C10 C 0.048(3) 0.177(2) 0.989(3) 0.1205 Uani
H5 H 0.005953 0.098836 0.928615 0.1810 Uiso
C11 C 0.4034(9) 0.8845(10) 0.9297(11) 0.0562 Uani
C12 C 0.3625(12) 0.9644(13) 0.9923(14) 0.0754 Uani
H6 H 0.273322 0.942386 0.991591 0.0900 Uiso
C13 C 0.3136(17) 0.3316(15) 0.7153(18) 0.0958 Uani
H7 H 0.248016 0.286496 0.636635 0.1150 Uiso
C14 C 0.5416(11) 0.9119(14) 0.9369(15) 0.0850 Uani
C16 C 0.1185(19) 0.370(2) 0.9266(18) 0.0930 Uani
H11 H 0.211059 0.370219 0.971122 0.1120 Uiso
C17 C 0.437(4) 0.181(3) 0.689(3) 0.1915 Uani
H12 H 0.523024 0.161664 0.734616 0.2880 Uiso
H13 H 0.359664 0.111155 0.674329 0.2880 Uiso
H14 H 0.434933 0.198773 0.610309 0.2880 Uiso
C18 C 0.532(3) 0.363(4) 0.887(3) 0.2054 Uani
H15 H 0.606967 0.323130 0.910098 0.3040 Uiso
H16 H 0.566818 0.447718 0.882247 0.3040 Uiso
H17 H 0.492742 0.362598 0.948905 0.3040 Uiso
N1 N 0.0229(14) 0.2775(14) 0.9261(13) 0.0835 Uani
N2 N 0.4256(17) 0.2957(18) 0.7665(19) 0.1208 Uani
O1 O 0.5959(12) 0.8242(13) 0.8800(17) 0.1460 Uani
H18 H 0.532136 0.762234 0.836587 0.2190 Uiso
O3 O 0.1648(8) 0.5084(9) 0.5219(9) 0.0646 Uani
O5 O 0.0967(13) 0.4592(12) 0.8717(10) 0.0821 Uani
O6 O 0.1215(7) 0.4606(9) 0.3194(8) 0.0608 Uani
O7 O 0.1869(8) 0.7276(8) 0.8664(7) 0.0596 Uani
O8 O 0.3408(8) 0.6871(8) 0.7913(10) 0.0722 Uani
O10 O 0.2889(10) 0.4228(11) 0.7655(12) 0.0950 Uani
O11 O 0.6863(9) 0.5913(15) 0.7501(9) 0.1016 Uani
H20 H 0.765974 0.590015 0.759331 0.1520 Uiso
C23 C 0.7940(10) 0.5114(11) 0.5649(11) 0.0549 Uani
C24 C 0.6413(9) 0.5057(11) 0.5321(11) 0.0556 Uani
C25 C 0.5454(11) 0.4563(15) 0.4097(11) 0.0706 Uani
H23 H 0.574956 0.424917 0.349618 0.0850 Uiso
C26 C 0.4027(11) 0.4530(14) 0.3747(11) 0.0631 Uani
O15 O 0.8352(8) 0.4916(9) 0.4781(9) 0.0646 Uani
O16 O 0.8785(7) 0.5394(9) 0.6806(8) 0.0608 Uani
O17 O 0.3137(9) 0.4087(15) 0.2499(9) 0.1016 Uani
H24 H 0.234026 0.409985 0.240669 0.1520 Uiso
O25 O 0.0722(9) 0.7139(8) 0.6064(8) 0.0637 Uani
C9 C 0.0232(13) 0.9534(11) 0.6118(11) 0.0586 Uani
O9 O 0.0440(14) 0.9192(11) 0.7243(10) 0.0941 Uani
H19 H 0.055337 0.848413 0.720160 0.1410 Uiso
C19 C 0.0209(12) 0.8789(11) 0.5046(11) 0.0556 Uani
C20 C 0.0364(10) 0.7478(10) 0.5027(11) 0.0519 Uani
O12 O 0.0093(8) 0.6798(7) 0.3971(8) 0.0574 Uani
C33 C 0.124(2) 0.718(3) 0.140(3) 0.1342 Uani
H31 H 0.162820 0.701190 0.079003 0.2030 Uiso
H32 H 0.178418 0.796718 0.196237 0.2030 Uiso
H33 H 0.126873 0.652389 0.186592 0.2030 Uiso
C1 C 0.9791(12) 0.1211(11) 0.4954(11) 0.0556 Uani
C4 C 0.9636(10) 0.2522(10) 0.4973(11) 0.0519 Uani
C15 C 0.876(2) 0.282(3) 0.860(3) 0.1342 Uani
H8 H 0.837180 0.298810 0.920997 0.2030 Uiso
H9 H 0.821582 0.203282 0.803763 0.2030 Uiso
H10 H 0.873127 0.347611 0.813408 0.2030 Uiso
O2 O 0.9907(8) 0.3202(7) 0.6029(8) 0.0574 Uani
O4 O 0.9278(9) 0.2861(8) 0.3936(8) 0.0637 Uani
C22 C 0.9768(13) 0.0466(11) 0.3882(11) 0.0586 Uani
O14 O 0.9560(14) 0.0808(11) 0.2757(10) 0.0941 Uani
H22 H 0.944663 0.151587 0.279840 0.1410 Uiso
C21 C 0.9985(15) 0.9272(12) 0.3944(13) 0.0666 Uani
H21 H 0.998067 0.878340 0.324048 0.0800 Uiso
C31 C 0.952(3) 0.823(2) 0.011(3) 0.1205 Uani
H29 H 0.994047 0.901164 0.071385 0.1810 Uiso
C32 C 0.6864(17) 0.6684(15) 0.2847(18) 0.0958 Uani
H30 H 0.751984 0.713504 0.363365 0.1150 Uiso
C34 C 0.8815(19) 0.630(2) 0.0734(18) 0.0930 Uani
H34 H 0.788941 0.629781 0.028878 0.1120 Uiso
C35 C 0.563(4) 0.819(3) 0.311(3) 0.1915 Uani
H35 H 0.476976 0.838336 0.265384 0.2880 Uiso
H36 H 0.640336 0.888845 0.325671 0.2880 Uiso
H37 H 0.565067 0.801227 0.389691 0.2880 Uiso
C36 C 0.468(3) 0.637(4) 0.113(3) 0.2054 Uani
H38 H 0.393033 0.676870 0.089902 0.3040 Uiso
H39 H 0.433182 0.552282 0.117753 0.3040 Uiso
H40 H 0.507258 0.637402 0.051095 0.3040 Uiso
N3 N 0.9771(14) 0.7225(14) 0.0739(13) 0.0835 Uani
N4 N 0.5744(17) 0.7043(18) 0.2335(19) 0.1208 Uani
O21 O 0.9033(13) 0.5408(12) 0.1283(10) 0.0821 Uani
O22 O 0.7111(10) 0.5772(11) 0.2345(12) 0.0950 Uani
H3 H 0.008976 0.177088 0.050583 0.1810 Uiso
H4 H 0.147335 0.187339 0.029492 0.1810 Uiso
H27 H 0.991024 0.822912 0.949417 0.1810 Uiso
H28 H 0.852665 0.812661 0.970508 0.1810 Uiso
loop_
_atom_site_aniso_label
_atom_site_aniso_U_11
_atom_site_aniso_U_22
_atom_site_aniso_U_33
_atom_site_aniso_U_23
_atom_site_aniso_U_13
_atom_site_aniso_U_12
Tb4 0.0288 0.0288 0.0563 -0.0016 -0.0002 0.00373
C27 0.035 0.038 0.068 -0.01 -0.002 0
C28 0.034 0.036 0.071 -0.011 0.003 -0.002
C29 0.042 0.054 0.106 -0.018 0.021 -0.002
C30 0.04 0.076 0.104 -0.039 0.016 -0.001
O18 0.068 0.103 0.218 -0.088 0.058 -0.013
O19 0.044 0.049 0.059 -0.007 0.007 -0.008
O20 0.041 0.042 0.101 -0.021 0.009 0
Tb7 0.0288 0.0288 0.0563 -0.0016 -0.0002 0.00373
C2 0.031 0.046 0.075 0.001 0.013 0.006
C3 0.028 0.058 0.066 -0.003 0.008 0.01
C5 0.034 0.1 0.061 -0.012 0.009 0.018
C6 0.035 0.08 0.055 -0.008 0.004 0.014
C7 0.035 0.038 0.068 -0.01 -0.002 0
C8 0.079 0.038 0.067 -0.004 0.014 0.02
C10 0.128 0.099 0.156 0.076 0.06 0.042
C11 0.034 0.036 0.071 -0.011 0.003 -0.002
C12 0.042 0.054 0.106 -0.018 0.021 -0.002
C13 0.071 0.069 0.134 0.022 0.024 0.023
C14 0.04 0.076 0.104 -0.039 0.016 -0.001
C16 0.074 0.09 0.087 -0.002 0.013 0.011
C17 0.193 0.177 0.208 0.023 0.069 0.089
C18 0.17 0.19 0.17 0.05 -0.037 0.06
N1 0.081 0.076 0.085 0.027 0.025 0.013
N2 0.085 0.127 0.154 0.043 0.033 0.057
O1 0.068 0.103 0.218 -0.088 0.058 -0.013
O3 0.037 0.06 0.092 0.005 0.025 0.011
O5 0.102 0.064 0.073 0.021 0.024 0.024
O6 0.032 0.069 0.068 0.006 0.008 0.013
O7 0.044 0.049 0.059 -0.007 0.007 -0.008
O8 0.041 0.042 0.101 -0.021 0.009 0
O10 0.058 0.077 0.133 0.025 0.012 0.031
O11 0.039 0.172 0.064 -0.021 0.005 0.021
C23 0.031 0.046 0.075 0.001 0.013 0.006
C24 0.028 0.058 0.066 -0.003 0.008 0.01
C25 0.034 0.1 0.061 -0.012 0.009 0.018
C26 0.035 0.08 0.055 -0.008 0.004 0.014
O15 0.037 0.06 0.092 0.005 0.025 0.011
O16 0.032 0.069 0.068 0.006 0.008 0.013
O17 0.039 0.172 0.064 -0.021 0.005 0.021
O25 0.067 0.044 0.06 0.004 0.002 0.021
C9 0.071 0.037 0.055 0.004 0.012 0.016
O9 0.147 0.063 0.069 0.011 0.027 0.054
C19 0.053 0.034 0.064 -0.002 0.011 0.009
C20 0.039 0.025 0.068 -0.006 0.005 -0.001
O12 0.054 0.029 0.07 0.002 0.011 0.002
C33 0.063 0.13 0.19 0.036 0.032 0.019
C1 0.053 0.034 0.064 -0.002 0.011 0.009
C4 0.039 0.025 0.068 -0.006 0.005 -0.001
C15 0.063 0.13 0.19 0.036 0.032 0.019
O2 0.054 0.029 0.07 0.002 0.011 0.002
O4 0.067 0.044 0.06 0.004 0.002 0.021
C22 0.071 0.037 0.055 0.004 0.012 0.016
O14 0.147 0.063 0.069 0.011 0.027 0.054
C21 0.079 0.038 0.067 -0.004 0.014 0.02
C31 0.128 0.099 0.156 0.076 0.06 0.042
C32 0.071 0.069 0.134 0.022 0.024 0.023
C34 0.074 0.09 0.087 -0.002 0.013 0.011
C35 0.193 0.177 0.208 0.023 0.069 0.089
C36 0.17 0.19 0.17 0.05 -0.037 0.06
N3 0.081 0.076 0.085 0.027 0.025 0.013
N4 0.085 0.127 0.154 0.043 0.033 0.057
O21 0.102 0.064 0.073 0.021 0.024 0.024
O22 0.058 0.077 0.133 0.025 0.012 0.031
loop_
_geom_bond_atom_site_label_1
_geom_bond_atom_site_label_2
_geom_bond_site_symmetry_1
_geom_bond_site_symmetry_2
C27 C28 1_555 1_555
C28 C29 1_555 1_555
H25 C29 1_555 1_555
O18 C30 1_555 1_555
H26 O18 1_555 1_555
O19 C27 1_555 1_555
O20 C27 1_555 1_555
Tb7 O19 1_555 1_555
C28 C30 1_555 1_555
O20 Tb7 1_555 1_555
C2 C3 1_555 1_555
C3 C5 1_555 1_555
C5 H1 1_555 1_555
C6 C5 1_555 1_555
C7 C11 1_555 1_555
H2 C8 1_555 1_555
H5 C10 1_555 1_555
C11 C12 1_555 1_555
C12 H6 1_555 1_555
C13 H7 1_555 1_555
C14 C11 1_555 1_555
C16 H11 1_555 1_555
C17 H12 1_555 1_555
H13 C17 1_555 1_555
H14 C17 1_555 1_555
C18 H15 1_555 1_555
H16 C18 1_555 1_555
H17 C18 1_555 1_555
N1 C10 1_555 1_555
N2 C13 1_555 1_555
O1 C14 1_555 1_555
H18 O1 1_555 1_555
O3 C2 1_555 1_555
O5 C16 1_555 1_555
O6 C2 1_555 1_555
O7 C7 1_555 1_555
O8 C7 1_555 1_555
O10 C13 1_555 1_555
O11 C6 1_555 1_555
H20 O11 1_555 1_555
Tb4 O3 1_555 1_555
C23 C24 1_555 1_555
C24 C6 1_555 1_555
C25 C24 1_555 1_555
H23 C25 1_555 1_555
C26 C3 1_555 1_555
O15 C23 1_555 1_555
O16 C23 1_555 1_555
O17 C26 1_555 1_555
H24 O17 1_555 1_555
O25 Tb4 1_555 1_555
Tb7 O15 1_555 1_555
C16 N1 1_555 1_555
C17 N2 1_555 1_555
C18 N2 1_555 1_555
O5 Tb4 1_555 1_555
O7 Tb4 1_555 1_555
O8 Tb4 1_555 1_555
O10 Tb4 1_555 1_555
C25 C26 1_555 1_555
O9 C9 1_555 1_555
H19 O9 1_555 1_555
C19 C9 1_555 1_555
C20 C19 1_555 1_555
O12 C20 1_555 1_555
O25 C20 1_555 1_555
C33 H31 1_555 1_555
H32 C33 1_555 1_555
H33 C33 1_555 1_555
C1 C4 1_555 1_555
C4 O2 1_555 1_555
C15 H8 1_555 1_555
H9 C15 1_555 1_555
H10 C15 1_555 1_555
O4 C4 1_555 1_555
C22 C1 1_555 1_555
O14 C22 1_555 1_555
H22 O14 1_555 1_555
Tb7 O4 1_555 1_555
H21 C21 1_555 1_555
H29 C31 1_555 1_555
C32 H30 1_555 1_555
C34 H34 1_555 1_555
C35 H35 1_555 1_555
H36 C35 1_555 1_555
H37 C35 1_555 1_555
C36 H38 1_555 1_555
H39 C36 1_555 1_555
H40 C36 1_555 1_555
N3 C31 1_555 1_555
N4 C32 1_555 1_555
O21 C34 1_555 1_555
O22 C32 1_555 1_555
C34 N3 1_555 1_555
C35 N4 1_555 1_555
C36 N4 1_555 1_555
O21 Tb7 1_555 1_555
O22 Tb7 1_555 1_555

#END
