
###############################################################################
#
# This file contains modified crystal structure data generated from the
# MOF subset of the Cambridge Structural Database (CSD) v543 
# hosted by the Cambridge Crystallographic Data Centre (CCDC).
#
# This work is licensed under the Creative Commons
# Attribution-NonCommercial-ShareAlike 4.0 International License.
# To view a copy of this license, visit
# http://creativecommons.org/licenses/by-nc-sa/4.0/
# or send a letter to
# Creative Commons, PO Box 1866, Mountain View, CA 94042, USA.
#
# CIF created using the CSD Python API on 29 September 2022
# The structure has been converted into the P1 space group
# The structure has a 3D framework
# The original CSD entry CAQVOI23 is in the triclinic crystal system
# The framework has been calculated to contain at least 10.0% void space
# The void calculation uses a probe of radius 1.32A, grid spacing 0.4
#
###############################################################################

data_CAQVOI23
_chemical_formula_moiety         '(C36 H40 N4 O22 Tb2)n'
_symmetry_cell_setting           triclinic
_symmetry_space_group_name_H-M   'P 1'
_symmetry_Int_Tables_number      1
_space_group_name_Hall           'P 1'
loop_
_symmetry_equiv_pos_site_id
_symmetry_equiv_pos_as_xyz
1 x,y,z
_cell_length_a                   10.6527(6)
_cell_length_b                   11.1484(5)
_cell_length_c                   11.6012(6)
_cell_angle_alpha                96.768(4)
_cell_angle_beta                 111.444(5)
_cell_angle_gamma                101.555(5)
_cell_volume                     1228.51
loop_
_atom_site_label
_atom_site_type_symbol
_atom_site_fract_x
_atom_site_fract_y
_atom_site_fract_z
_atom_site_U_iso_or_equiv
_atom_site_thermal_displace_type
Tb4 Tb 0.10910(3) 0.53467(3) 0.69748(3) 0.0400 Uani
C27 C 0.6958(9) 0.2404(9) 0.1408(10) 0.0474 Uani
C28 C 0.5984(9) 0.1143(9) 0.0687(10) 0.0526 Uani
C29 C 0.6368(10) 0.0356(12) 0.0099(13) 0.0709 Uani
H25 H 0.727248 0.056731 0.013304 0.0850 Uiso
C30 C 0.4560(10) 0.0872(12) 0.0632(13) 0.0745 Uani
O18 O 0.4043(10) 0.1759(11) 0.1195(14) 0.1241 Uani
H26 H 0.468990 0.237379 0.162674 0.1870 Uiso
O19 O 0.8137(7) 0.2718(7) 0.1329(6) 0.0538 Uani
O20 O 0.6600(7) 0.3144(7) 0.2087(8) 0.0650 Uani
Tb7 Tb 0.89090(3) 0.46533(3) 0.30252(3) 0.0400 Uani
C2 C 0.2052(8) 0.4874(9) 0.4338(9) 0.0475 Uani
C3 C 0.3584(8) 0.4945(9) 0.4672(9) 0.0468 Uani
C5 C 0.4539(9) 0.5412(12) 0.5910(10) 0.0659 Uani
H1 H 0.423061 0.569920 0.651698 0.0780 Uiso
C6 C 0.5961(9) 0.5463(12) 0.6276(10) 0.0588 Uani
C7 C 0.3042(9) 0.7596(9) 0.8592(10) 0.0474 Uani
C8 C 0.0023(12) 0.0733(10) 0.6063(10) 0.0557 Uani
H2 H 0.003852 0.122622 0.677524 0.0670 Uiso
C10 C 0.0488(19) 0.1772(16) 0.990(2) 0.0979 Uani
H5 H 0.009745 0.099368 0.929355 0.1460 Uiso
C11 C 0.4016(9) 0.8857(9) 0.9313(10) 0.0526 Uani
C12 C 0.3632(10) 0.9644(12) 0.9901(13) 0.0709 Uani
H6 H 0.272752 0.943269 0.986696 0.0850 Uiso
C13 C 0.3133(15) 0.3312(13) 0.7179(14) 0.0877 Uani
H7 H 0.246636 0.285471 0.639526 0.1050 Uiso
C14 C 0.5440(10) 0.9128(12) 0.9368(13) 0.0745 Uani
C16 C 0.1173(16) 0.3681(16) 0.9289(15) 0.0782 Uani
H11 H 0.209315 0.366282 0.972674 0.0940 Uiso
C17 C 0.437(3) 0.180(2) 0.693(3) 0.1714 Uani
H12 H 0.523390 0.161709 0.738521 0.2570 Uiso
H13 H 0.360231 0.109963 0.679487 0.2570 Uiso
H14 H 0.433645 0.195527 0.612065 0.2570 Uiso
C18 C 0.534(2) 0.363(3) 0.888(2) 0.1666 Uani
H15 H 0.609010 0.323103 0.910449 0.2500 Uiso
H16 H 0.568552 0.447125 0.880874 0.2500 Uiso
H17 H 0.496674 0.364551 0.951443 0.2500 Uiso
N1 N 0.0203(11) 0.2787(12) 0.9266(10) 0.0728 Uani
N2 N 0.4248(14) 0.2937(15) 0.7669(16) 0.1088 Uani
O1 O 0.5957(10) 0.8241(11) 0.8805(14) 0.1241 Uani
H18 H 0.531010 0.762621 0.837326 0.1870 Uiso
O3 O 0.1629(7) 0.5071(7) 0.5197(7) 0.0557 Uani
O5 O 0.0965(10) 0.4609(10) 0.8747(9) 0.0755 Uani
O6 O 0.1217(6) 0.4592(7) 0.3175(7) 0.0544 Uani
O7 O 0.1863(7) 0.7282(7) 0.8671(6) 0.0538 Uani
O8 O 0.3400(7) 0.6856(7) 0.7913(8) 0.0650 Uani
O10 O 0.2883(8) 0.4227(9) 0.7669(10) 0.0803 Uani
O11 O 0.6845(8) 0.5893(12) 0.7523(8) 0.0915 Uani
H20 H 0.764097 0.587891 0.761085 0.1380 Uiso
C23 C 0.7948(8) 0.5126(9) 0.5662(9) 0.0475 Uani
C24 C 0.6416(8) 0.5055(9) 0.5328(9) 0.0468 Uani
C25 C 0.5461(9) 0.4588(12) 0.4090(10) 0.0659 Uani
H23 H 0.576939 0.430080 0.348302 0.0780 Uiso
C26 C 0.4039(9) 0.4537(12) 0.3724(10) 0.0588 Uani
O15 O 0.8371(7) 0.4929(7) 0.4803(7) 0.0557 Uani
O16 O 0.8783(6) 0.5408(7) 0.6825(7) 0.0544 Uani
O17 O 0.3155(8) 0.4107(12) 0.2477(8) 0.0915 Uani
H24 H 0.235903 0.412109 0.238915 0.1380 Uiso
O25 O 0.0723(7) 0.7138(7) 0.6075(7) 0.0549 Uani
C9 C 0.0236(11) 0.9533(10) 0.6125(10) 0.0529 Uani
O9 O 0.0441(12) 0.9193(9) 0.7256(8) 0.0803 Uani
H19 H 0.059354 0.850071 0.722701 0.1200 Uiso
C19 C 0.0209(10) 0.8800(9) 0.5031(9) 0.0490 Uani
C20 C 0.0376(9) 0.7485(9) 0.5024(10) 0.0473 Uani
O12 O 0.0098(7) 0.6792(6) 0.3961(7) 0.0505 Uani
C33 C 0.1268(16) 0.719(2) 0.139(2) 0.1160 Uani
H31 H 0.170056 0.717694 0.079526 0.1730 Uiso
H32 H 0.175838 0.793134 0.205078 0.1730 Uiso
H33 H 0.130256 0.646380 0.175097 0.1730 Uiso
C1 C 0.9791(10) 0.1200(9) 0.4969(9) 0.0490 Uani
C4 C 0.9624(9) 0.2515(9) 0.4976(10) 0.0473 Uani
C15 C 0.8732(16) 0.281(2) 0.861(2) 0.1160 Uani
H8 H 0.829944 0.282306 0.920474 0.1730 Uiso
H9 H 0.824162 0.206866 0.794922 0.1730 Uiso
H10 H 0.869744 0.353620 0.824903 0.1730 Uiso
O2 O 0.9902(7) 0.3208(6) 0.6039(7) 0.0505 Uani
O4 O 0.9277(7) 0.2862(7) 0.3925(7) 0.0549 Uani
C22 C 0.9764(11) 0.0467(10) 0.3875(10) 0.0529 Uani
O14 O 0.9559(12) 0.0807(9) 0.2744(8) 0.0803 Uani
H22 H 0.940646 0.149929 0.277299 0.1200 Uiso
C21 C 0.9977(12) 0.9267(10) 0.3937(10) 0.0557 Uani
H21 H 0.996148 0.877378 0.322476 0.0670 Uiso
C31 C 0.9512(19) 0.8228(16) 0.010(2) 0.0979 Uani
H29 H 0.990255 0.900632 0.070645 0.1460 Uiso
C32 C 0.6867(15) 0.6688(13) 0.2821(14) 0.0877 Uani
H30 H 0.753364 0.714529 0.360474 0.1050 Uiso
C34 C 0.8827(16) 0.6319(16) 0.0711(15) 0.0782 Uani
H34 H 0.790685 0.633718 0.027326 0.0940 Uiso
C35 C 0.563(3) 0.820(2) 0.307(3) 0.1714 Uani
H35 H 0.476610 0.838291 0.261479 0.2570 Uiso
H36 H 0.639769 0.890037 0.320513 0.2570 Uiso
H37 H 0.566355 0.804473 0.387935 0.2570 Uiso
C36 C 0.466(2) 0.637(3) 0.112(2) 0.1666 Uani
H38 H 0.390990 0.676897 0.089551 0.2500 Uiso
H39 H 0.431448 0.552875 0.119126 0.2500 Uiso
H40 H 0.503326 0.635449 0.048557 0.2500 Uiso
N3 N 0.9797(11) 0.7213(12) 0.0734(10) 0.0728 Uani
N4 N 0.5752(14) 0.7063(15) 0.2331(16) 0.1088 Uani
O21 O 0.9035(10) 0.5391(10) 0.1253(9) 0.0755 Uani
O22 O 0.7117(8) 0.5773(9) 0.2331(10) 0.0803 Uani
H3 H 0.007477 0.174530 0.051293 0.1460 Uiso
H4 H 0.147997 0.190214 0.032721 0.1460 Uiso
H27 H 0.992523 0.825470 0.948707 0.1460 Uiso
H28 H 0.852003 0.809786 0.967279 0.1460 Uiso
loop_
_atom_site_aniso_label
_atom_site_aniso_U_11
_atom_site_aniso_U_22
_atom_site_aniso_U_33
_atom_site_aniso_U_23
_atom_site_aniso_U_13
_atom_site_aniso_U_12
Tb4 0.0266 0.0271 0.0493 -0.001 0.00035 0.00431
C27 0.032 0.027 0.061 -0.006 0.001 0.003
C28 0.032 0.038 0.06 -0.014 -0.001 0.001
C29 0.033 0.059 0.098 -0.013 0.015 0.002
C30 0.038 0.059 0.1 -0.028 0.017 0.002
O18 0.057 0.086 0.187 -0.074 0.048 -0.011
O19 0.04 0.047 0.054 -0.004 0.008 -0.003
O20 0.039 0.043 0.086 -0.02 0.01 0.001
Tb7 0.0266 0.0271 0.0493 -0.001 0.00035 0.00431
C2 0.03 0.041 0.062 0.003 0.012 0.006
C3 0.026 0.047 0.057 0 0.008 0.01
C5 0.035 0.09 0.059 -0.013 0.012 0.017
C6 0.033 0.075 0.05 -0.01 0.003 0.014
C7 0.032 0.027 0.061 -0.006 0.001 0.003
C8 0.069 0.033 0.051 -0.006 0.011 0.017
C10 0.102 0.068 0.132 0.051 0.044 0.028
C11 0.032 0.038 0.06 -0.014 -0.001 0.001
C12 0.033 0.059 0.098 -0.013 0.015 0.002
C13 0.069 0.068 0.109 0.013 0.014 0.026
C14 0.038 0.059 0.1 -0.028 0.017 0.002
C16 0.068 0.069 0.078 0.005 0.013 0.013
C17 0.174 0.153 0.19 0.018 0.06 0.084
C18 0.123 0.16 0.152 0.035 -0.028 0.056
N1 0.067 0.079 0.068 0.023 0.021 0.017
N2 0.078 0.106 0.138 0.032 0.023 0.05
O1 0.057 0.086 0.187 -0.074 0.048 -0.011
O3 0.038 0.05 0.076 0.005 0.022 0.011
O5 0.092 0.062 0.065 0.016 0.024 0.017
O6 0.032 0.06 0.062 0.006 0.009 0.015
O7 0.04 0.047 0.054 -0.004 0.008 -0.003
O8 0.039 0.043 0.086 -0.02 0.01 0.001
O10 0.048 0.069 0.111 0.018 0.011 0.028
O11 0.037 0.154 0.057 -0.016 0.004 0.019
C23 0.03 0.041 0.062 0.003 0.012 0.006
C24 0.026 0.047 0.057 0 0.008 0.01
C25 0.035 0.09 0.059 -0.013 0.012 0.017
C26 0.033 0.075 0.05 -0.01 0.003 0.014
O15 0.038 0.05 0.076 0.005 0.022 0.011
O16 0.032 0.06 0.062 0.006 0.009 0.015
O17 0.037 0.154 0.057 -0.016 0.004 0.019
O25 0.057 0.041 0.049 0.005 0.001 0.016
C9 0.067 0.034 0.049 0.007 0.012 0.017
O9 0.128 0.051 0.064 0.011 0.032 0.041
C19 0.047 0.032 0.053 -0.001 0.007 0.009
C20 0.036 0.024 0.067 -0.004 0.011 0.002
O12 0.047 0.028 0.059 0 0.007 0.005
C33 0.057 0.137 0.138 0.044 0.023 0.013
C1 0.047 0.032 0.053 -0.001 0.007 0.009
C4 0.036 0.024 0.067 -0.004 0.011 0.002
C15 0.057 0.137 0.138 0.044 0.023 0.013
O2 0.047 0.028 0.059 0 0.007 0.005
O4 0.057 0.041 0.049 0.005 0.001 0.016
C22 0.067 0.034 0.049 0.007 0.012 0.017
O14 0.128 0.051 0.064 0.011 0.032 0.041
C21 0.069 0.033 0.051 -0.006 0.011 0.017
C31 0.102 0.068 0.132 0.051 0.044 0.028
C32 0.069 0.068 0.109 0.013 0.014 0.026
C34 0.068 0.069 0.078 0.005 0.013 0.013
C35 0.174 0.153 0.19 0.018 0.06 0.084
C36 0.123 0.16 0.152 0.035 -0.028 0.056
N3 0.067 0.079 0.068 0.023 0.021 0.017
N4 0.078 0.106 0.138 0.032 0.023 0.05
O21 0.092 0.062 0.065 0.016 0.024 0.017
O22 0.048 0.069 0.111 0.018 0.011 0.028
loop_
_geom_bond_atom_site_label_1
_geom_bond_atom_site_label_2
_geom_bond_site_symmetry_1
_geom_bond_site_symmetry_2
C27 C28 1_555 1_555
C28 C29 1_555 1_555
H25 C29 1_555 1_555
O18 C30 1_555 1_555
H26 O18 1_555 1_555
O19 C27 1_555 1_555
O20 C27 1_555 1_555
Tb7 O19 1_555 1_555
C28 C30 1_555 1_555
O20 Tb7 1_555 1_555
C2 C3 1_555 1_555
C3 C5 1_555 1_555
C5 H1 1_555 1_555
C6 C5 1_555 1_555
C7 C11 1_555 1_555
H2 C8 1_555 1_555
H5 C10 1_555 1_555
C11 C12 1_555 1_555
C12 H6 1_555 1_555
C13 H7 1_555 1_555
C14 C11 1_555 1_555
C16 H11 1_555 1_555
C17 H12 1_555 1_555
H13 C17 1_555 1_555
H14 C17 1_555 1_555
C18 H15 1_555 1_555
H16 C18 1_555 1_555
H17 C18 1_555 1_555
N1 C10 1_555 1_555
N2 C13 1_555 1_555
O1 C14 1_555 1_555
H18 O1 1_555 1_555
O3 C2 1_555 1_555
O5 C16 1_555 1_555
O6 C2 1_555 1_555
O7 C7 1_555 1_555
O8 C7 1_555 1_555
O10 C13 1_555 1_555
O11 C6 1_555 1_555
H20 O11 1_555 1_555
Tb4 O3 1_555 1_555
C23 C24 1_555 1_555
C24 C6 1_555 1_555
C25 C24 1_555 1_555
H23 C25 1_555 1_555
C26 C3 1_555 1_555
O15 C23 1_555 1_555
O16 C23 1_555 1_555
O17 C26 1_555 1_555
H24 O17 1_555 1_555
O25 Tb4 1_555 1_555
Tb7 O15 1_555 1_555
C16 N1 1_555 1_555
C17 N2 1_555 1_555
C18 N2 1_555 1_555
O5 Tb4 1_555 1_555
O7 Tb4 1_555 1_555
O8 Tb4 1_555 1_555
O10 Tb4 1_555 1_555
C25 C26 1_555 1_555
O9 C9 1_555 1_555
H19 O9 1_555 1_555
C19 C9 1_555 1_555
C20 C19 1_555 1_555
O12 C20 1_555 1_555
O25 C20 1_555 1_555
C33 H31 1_555 1_555
H32 C33 1_555 1_555
H33 C33 1_555 1_555
C1 C4 1_555 1_555
C4 O2 1_555 1_555
C15 H8 1_555 1_555
H9 C15 1_555 1_555
H10 C15 1_555 1_555
O4 C4 1_555 1_555
C22 C1 1_555 1_555
O14 C22 1_555 1_555
H22 O14 1_555 1_555
Tb7 O4 1_555 1_555
H21 C21 1_555 1_555
H29 C31 1_555 1_555
C32 H30 1_555 1_555
C34 H34 1_555 1_555
C35 H35 1_555 1_555
H36 C35 1_555 1_555
H37 C35 1_555 1_555
C36 H38 1_555 1_555
H39 C36 1_555 1_555
H40 C36 1_555 1_555
N3 C31 1_555 1_555
N4 C32 1_555 1_555
O21 C34 1_555 1_555
O22 C32 1_555 1_555
C34 N3 1_555 1_555
C35 N4 1_555 1_555
C36 N4 1_555 1_555
O21 Tb7 1_555 1_555
O22 Tb7 1_555 1_555

#END
