
###############################################################################
#
# This file contains modified crystal structure data generated from the
# MOF subset of the Cambridge Structural Database (CSD) v543 
# hosted by the Cambridge Crystallographic Data Centre (CCDC).
#
# This work is licensed under the Creative Commons
# Attribution-NonCommercial-ShareAlike 4.0 International License.
# To view a copy of this license, visit
# http://creativecommons.org/licenses/by-nc-sa/4.0/
# or send a letter to
# Creative Commons, PO Box 1866, Mountain View, CA 94042, USA.
#
# CIF created using the CSD Python API on 29 September 2022
# The structure has been converted into the P1 space group
# The structure has a 3D framework
# The original CSD entry CAQVOI16 is in the triclinic crystal system
# The framework has been calculated to contain at least 10.0% void space
# The void calculation uses a probe of radius 1.32A, grid spacing 0.4
#
###############################################################################

data_CAQVOI16
_chemical_formula_moiety         '(C36 H40 N4 O22 Tb2)n'
_symmetry_cell_setting           triclinic
_symmetry_space_group_name_H-M   'P 1'
_symmetry_Int_Tables_number      1
_space_group_name_Hall           'P 1'
loop_
_symmetry_equiv_pos_site_id
_symmetry_equiv_pos_as_xyz
1 x,y,z
_cell_length_a                   10.6219(6)
_cell_length_b                   11.1750(5)
_cell_length_c                   11.3531(5)
_cell_angle_alpha                96.985(4)
_cell_angle_beta                 110.840(5)
_cell_angle_gamma                101.422(4)
_cell_volume                     1207.07
loop_
_atom_site_label
_atom_site_type_symbol
_atom_site_fract_x
_atom_site_fract_y
_atom_site_fract_z
_atom_site_U_iso_or_equiv
_atom_site_thermal_displace_type
Tb4 Tb 0.10679(3) 0.53548(3) 0.69977(3) 0.0291 Uani
C27 C 0.6983(7) 0.2392(8) 0.1398(8) 0.0338 Uani
C28 C 0.5980(7) 0.1137(8) 0.0682(8) 0.0391 Uani
C29 C 0.6371(8) 0.0295(9) 0.0046(10) 0.0527 Uani
H25 H 0.728241 0.048887 0.004449 0.0630 Uiso
C30 C 0.4571(8) 0.0896(9) 0.0633(9) 0.0460 Uani
O18 O 0.4068(7) 0.1800(8) 0.1192(9) 0.0768 Uani
H26 H 0.473364 0.242550 0.163138 0.1160 Uiso
O19 O 0.8146(5) 0.2693(5) 0.1285(5) 0.0357 Uani
O20 O 0.6634(5) 0.3150(6) 0.2097(6) 0.0458 Uani
Tb7 Tb 0.89321(3) 0.46452(3) 0.30023(3) 0.0291 Uani
C2 C 0.2047(7) 0.4847(7) 0.4294(8) 0.0315 Uani
C3 C 0.3573(7) 0.4944(8) 0.4653(8) 0.0389 Uani
C5 C 0.4498(8) 0.5359(9) 0.5941(8) 0.0431 Uani
H1 H 0.415897 0.560446 0.657763 0.0520 Uiso
C6 C 0.5930(8) 0.5418(9) 0.6309(8) 0.0409 Uani
C7 C 0.3017(7) 0.7608(8) 0.8602(8) 0.0338 Uani
C8 C 0.0043(9) 0.0745(8) 0.6099(8) 0.0388 Uani
H2 H 0.007519 0.125461 0.684842 0.0470 Uiso
C10 C 0.0495(10) 0.1775(11) 0.9917(10) 0.0529 Uani
H5 H 0.009919 0.098972 0.927355 0.0790 Uiso
C11 C 0.4020(7) 0.8863(8) 0.9318(8) 0.0391 Uani
C12 C 0.3629(8) 0.9705(9) 0.9954(10) 0.0527 Uani
H6 H 0.271759 0.951113 0.995551 0.0630 Uiso
C13 C 0.3105(10) 0.3282(10) 0.7236(11) 0.0658 Uani
H7 H 0.241525 0.277732 0.644853 0.0790 Uiso
C14 C 0.5429(8) 0.9104(9) 0.9367(9) 0.0460 Uani
C16 C 0.1174(10) 0.3706(11) 0.9358(9) 0.0468 Uani
H11 H 0.210963 0.369224 0.982679 0.0560 Uiso
C17 C 0.436(2) 0.1749(17) 0.709(2) 0.1189 Uani
H12 H 0.526185 0.159899 0.758091 0.1780 Uiso
H13 H 0.360439 0.104924 0.701918 0.1780 Uiso
H14 H 0.431082 0.182729 0.621967 0.1780 Uiso
C18 C 0.5325(13) 0.3687(19) 0.8976(14) 0.0942 Uani
H15 H 0.610292 0.329667 0.923579 0.1410 Uiso
H16 H 0.565898 0.453027 0.886111 0.1410 Uiso
H17 H 0.494482 0.373624 0.964515 0.1410 Uiso
N1 N 0.0206(8) 0.2794(8) 0.9292(7) 0.0448 Uani
N2 N 0.4229(10) 0.2935(10) 0.7755(10) 0.0655 Uani
O1 O 0.5932(7) 0.8200(8) 0.8808(9) 0.0768 Uani
H18 H 0.526636 0.757450 0.836862 0.1160 Uiso
O3 O 0.1595(5) 0.5048(5) 0.5181(6) 0.0400 Uani
O5 O 0.0978(7) 0.4642(7) 0.8836(6) 0.0502 Uani
O6 O 0.1228(5) 0.4579(6) 0.3103(6) 0.0372 Uani
O7 O 0.1854(5) 0.7307(5) 0.8715(5) 0.0357 Uani
O8 O 0.3366(5) 0.6850(6) 0.7903(6) 0.0458 Uani
O10 O 0.2866(6) 0.4236(7) 0.7702(7) 0.0533 Uani
O11 O 0.6782(6) 0.5825(9) 0.7580(6) 0.0612 Uani
H20 H 0.760193 0.581334 0.767904 0.0920 Uiso
C23 C 0.7953(7) 0.5153(7) 0.5706(8) 0.0315 Uani
C24 C 0.6427(7) 0.5056(8) 0.5347(8) 0.0389 Uani
C25 C 0.5502(8) 0.4641(9) 0.4059(8) 0.0431 Uani
H23 H 0.584103 0.439554 0.342237 0.0520 Uiso
C26 C 0.4070(8) 0.4582(9) 0.3691(8) 0.0409 Uani
O15 O 0.8405(5) 0.4952(5) 0.4819(6) 0.0400 Uani
O16 O 0.8772(5) 0.5421(6) 0.6897(6) 0.0372 Uani
O17 O 0.3218(6) 0.4175(9) 0.2420(6) 0.0612 Uani
H24 H 0.239807 0.418666 0.232096 0.0920 Uiso
O25 O 0.0717(6) 0.7142(5) 0.6086(5) 0.0343 Uani
C9 C 0.0249(8) 0.9552(8) 0.6154(7) 0.0350 Uani
O9 O 0.0473(8) 0.9193(6) 0.7305(7) 0.0492 Uani
H19 H 0.058295 0.846726 0.724051 0.0740 Uiso
C19 C 0.0211(7) 0.8788(7) 0.5038(8) 0.0353 Uani
C20 C 0.0368(7) 0.7485(7) 0.5005(8) 0.0355 Uani
O12 O 0.0086(6) 0.6795(5) 0.3925(6) 0.0359 Uani
C33 C 0.1279(10) 0.7248(14) 0.1418(12) 0.0656 Uani
H31 H 0.168021 0.698885 0.080477 0.0990 Uiso
H32 H 0.179393 0.810154 0.189859 0.0990 Uiso
H33 H 0.134612 0.668241 0.201979 0.0990 Uiso
C1 C 0.9789(7) 0.1212(7) 0.4962(8) 0.0353 Uani
C4 C 0.9632(7) 0.2515(7) 0.4995(8) 0.0355 Uani
C15 C 0.8721(10) 0.2752(14) 0.8582(12) 0.0656 Uani
H8 H 0.831979 0.301115 0.919523 0.0990 Uiso
H9 H 0.820607 0.189846 0.810141 0.0990 Uiso
H10 H 0.865388 0.331759 0.798021 0.0990 Uiso
O2 O 0.9914(6) 0.3205(5) 0.6075(6) 0.0359 Uani
O4 O 0.9283(6) 0.2858(5) 0.3914(5) 0.0343 Uani
C22 C 0.9751(8) 0.0448(8) 0.3846(7) 0.0350 Uani
O14 O 0.9527(8) 0.0807(6) 0.2695(7) 0.0492 Uani
H22 H 0.941705 0.153274 0.275949 0.0740 Uiso
C21 C 0.9957(9) 0.9255(8) 0.3901(8) 0.0388 Uani
H21 H 0.992481 0.874539 0.315158 0.0470 Uiso
C31 C 0.9505(10) 0.8225(11) 0.0083(10) 0.0529 Uani
H29 H 0.990081 0.901028 0.072645 0.0790 Uiso
C32 C 0.6895(10) 0.6718(10) 0.2764(11) 0.0658 Uani
H30 H 0.758475 0.722268 0.355147 0.0790 Uiso
C34 C 0.8826(10) 0.6294(11) 0.0642(9) 0.0468 Uani
H34 H 0.789037 0.630776 0.017321 0.0560 Uiso
C35 C 0.564(2) 0.8251(17) 0.291(2) 0.1189 Uani
H35 H 0.473815 0.840101 0.241909 0.1780 Uiso
H36 H 0.639561 0.895076 0.298082 0.1780 Uiso
H37 H 0.568918 0.817271 0.378033 0.1780 Uiso
C36 C 0.4675(13) 0.6313(19) 0.1024(14) 0.0942 Uani
H38 H 0.389708 0.670333 0.076421 0.1410 Uiso
H39 H 0.434102 0.546973 0.113889 0.1410 Uiso
H40 H 0.505518 0.626376 0.035485 0.1410 Uiso
N3 N 0.9794(8) 0.7206(8) 0.0708(7) 0.0448 Uani
N4 N 0.5771(10) 0.7065(10) 0.2245(10) 0.0655 Uani
O21 O 0.9022(7) 0.5358(7) 0.1164(6) 0.0502 Uani
O22 O 0.7134(6) 0.5764(7) 0.2298(7) 0.0533 Uani
H3 H 0.007675 0.173536 0.055885 0.0790 Uiso
H4 H 0.150664 0.190694 0.034490 0.0790 Uiso
H27 H 0.992325 0.826464 0.944115 0.0790 Uiso
H28 H 0.849336 0.809306 0.965510 0.0790 Uiso
loop_
_atom_site_aniso_label
_atom_site_aniso_U_11
_atom_site_aniso_U_22
_atom_site_aniso_U_33
_atom_site_aniso_U_23
_atom_site_aniso_U_13
_atom_site_aniso_U_12
Tb4 0.0205 0.0224 0.0348 -0.0006 0.00164 0.00558
C27 0.02 0.031 0.037 -0.006 -0.001 0.008
C28 0.023 0.032 0.047 -0.007 0.003 0.003
C29 0.022 0.044 0.074 -0.018 0.011 0.002
C30 0.026 0.039 0.061 -0.012 0.011 0.007
O18 0.035 0.063 0.109 -0.039 0.026 0
O19 0.028 0.031 0.034 -0.005 0.002 0.003
O20 0.025 0.033 0.06 -0.016 0.006 0.001
Tb7 0.0205 0.0224 0.0348 -0.0006 0.00164 0.00558
C2 0.024 0.024 0.043 0.001 0.009 0.01
C3 0.022 0.042 0.043 -0.008 0.006 0.01
C5 0.029 0.058 0.038 -0.002 0.01 0.015
C6 0.029 0.053 0.03 -0.007 0.002 0.015
C7 0.02 0.031 0.037 -0.006 -0.001 0.008
C8 0.043 0.027 0.042 0 0.009 0.018
C10 0.048 0.053 0.054 0.016 0.011 0.019
C11 0.023 0.032 0.047 -0.007 0.003 0.003
C12 0.022 0.044 0.074 -0.018 0.011 0.002
C13 0.039 0.055 0.086 -0.002 0.008 0.015
C14 0.026 0.039 0.061 -0.012 0.011 0.007
C16 0.045 0.045 0.038 0.007 0 0.016
C17 0.121 0.115 0.128 0.003 0.044 0.069
C18 0.053 0.131 0.08 0.026 0.001 0.028
N1 0.042 0.046 0.043 0.012 0.01 0.015
N2 0.051 0.056 0.08 0.008 0.01 0.026
O1 0.035 0.063 0.109 -0.039 0.026 0
O3 0.027 0.035 0.055 -0.001 0.016 0.008
O5 0.055 0.045 0.039 0.006 0.008 0.009
O6 0.025 0.038 0.046 0.008 0.008 0.014
O7 0.028 0.031 0.034 -0.005 0.002 0.003
O8 0.025 0.033 0.06 -0.016 0.006 0.001
O10 0.036 0.047 0.069 0.012 0.008 0.017
O11 0.029 0.1 0.042 -0.01 0.007 0.017
C23 0.024 0.024 0.043 0.001 0.009 0.01
C24 0.022 0.042 0.043 -0.008 0.006 0.01
C25 0.029 0.058 0.038 -0.002 0.01 0.015
C26 0.029 0.053 0.03 -0.007 0.002 0.015
O15 0.027 0.035 0.055 -0.001 0.016 0.008
O16 0.025 0.038 0.046 0.008 0.008 0.014
O17 0.029 0.1 0.042 -0.01 0.007 0.017
O25 0.037 0.023 0.037 0.006 0.006 0.011
C9 0.044 0.034 0.028 0.01 0.012 0.014
O9 0.064 0.036 0.051 0.005 0.022 0.024
C19 0.03 0.026 0.043 0 0.007 0.01
C20 0.027 0.023 0.044 -0.004 0.006 0.001
O12 0.031 0.024 0.044 -0.003 0.009 0.005
C33 0.036 0.084 0.069 0.026 0.009 0.014
C1 0.03 0.026 0.043 0 0.007 0.01
C4 0.027 0.023 0.044 -0.004 0.006 0.001
C15 0.036 0.084 0.069 0.026 0.009 0.014
O2 0.031 0.024 0.044 -0.003 0.009 0.005
O4 0.037 0.023 0.037 0.006 0.006 0.011
C22 0.044 0.034 0.028 0.01 0.012 0.014
O14 0.064 0.036 0.051 0.005 0.022 0.024
C21 0.043 0.027 0.042 0 0.009 0.018
C31 0.048 0.053 0.054 0.016 0.011 0.019
C32 0.039 0.055 0.086 -0.002 0.008 0.015
C34 0.045 0.045 0.038 0.007 0 0.016
C35 0.121 0.115 0.128 0.003 0.044 0.069
C36 0.053 0.131 0.08 0.026 0.001 0.028
N3 0.042 0.046 0.043 0.012 0.01 0.015
N4 0.051 0.056 0.08 0.008 0.01 0.026
O21 0.055 0.045 0.039 0.006 0.008 0.009
O22 0.036 0.047 0.069 0.012 0.008 0.017
loop_
_geom_bond_atom_site_label_1
_geom_bond_atom_site_label_2
_geom_bond_site_symmetry_1
_geom_bond_site_symmetry_2
C27 C28 1_555 1_555
C28 C29 1_555 1_555
H25 C29 1_555 1_555
O18 C30 1_555 1_555
H26 O18 1_555 1_555
O19 C27 1_555 1_555
O20 C27 1_555 1_555
Tb7 O19 1_555 1_555
C28 C30 1_555 1_555
O20 Tb7 1_555 1_555
C2 C3 1_555 1_555
C3 C5 1_555 1_555
C5 H1 1_555 1_555
C6 C5 1_555 1_555
C7 C11 1_555 1_555
H2 C8 1_555 1_555
H5 C10 1_555 1_555
C11 C12 1_555 1_555
C12 H6 1_555 1_555
C13 H7 1_555 1_555
C14 C11 1_555 1_555
C16 H11 1_555 1_555
C17 H12 1_555 1_555
H13 C17 1_555 1_555
H14 C17 1_555 1_555
C18 H15 1_555 1_555
H16 C18 1_555 1_555
H17 C18 1_555 1_555
N1 C10 1_555 1_555
N2 C13 1_555 1_555
O1 C14 1_555 1_555
H18 O1 1_555 1_555
O3 C2 1_555 1_555
O5 C16 1_555 1_555
O6 C2 1_555 1_555
O7 C7 1_555 1_555
O8 C7 1_555 1_555
O10 C13 1_555 1_555
O11 C6 1_555 1_555
H20 O11 1_555 1_555
Tb4 O3 1_555 1_555
C23 C24 1_555 1_555
C24 C6 1_555 1_555
C25 C24 1_555 1_555
H23 C25 1_555 1_555
C26 C3 1_555 1_555
O15 C23 1_555 1_555
O16 C23 1_555 1_555
O17 C26 1_555 1_555
H24 O17 1_555 1_555
O25 Tb4 1_555 1_555
Tb7 O15 1_555 1_555
C16 N1 1_555 1_555
C17 N2 1_555 1_555
C18 N2 1_555 1_555
O5 Tb4 1_555 1_555
O7 Tb4 1_555 1_555
O8 Tb4 1_555 1_555
O10 Tb4 1_555 1_555
C25 C26 1_555 1_555
O9 C9 1_555 1_555
H19 O9 1_555 1_555
C19 C9 1_555 1_555
C20 C19 1_555 1_555
O12 C20 1_555 1_555
O25 C20 1_555 1_555
C33 H31 1_555 1_555
H32 C33 1_555 1_555
H33 C33 1_555 1_555
C1 C4 1_555 1_555
C4 O2 1_555 1_555
C15 H8 1_555 1_555
H9 C15 1_555 1_555
H10 C15 1_555 1_555
O4 C4 1_555 1_555
C22 C1 1_555 1_555
O14 C22 1_555 1_555
H22 O14 1_555 1_555
Tb7 O4 1_555 1_555
H21 C21 1_555 1_555
H29 C31 1_555 1_555
C32 H30 1_555 1_555
C34 H34 1_555 1_555
C35 H35 1_555 1_555
H36 C35 1_555 1_555
H37 C35 1_555 1_555
C36 H38 1_555 1_555
H39 C36 1_555 1_555
H40 C36 1_555 1_555
N3 C31 1_555 1_555
N4 C32 1_555 1_555
O21 C34 1_555 1_555
O22 C32 1_555 1_555
C34 N3 1_555 1_555
C35 N4 1_555 1_555
C36 N4 1_555 1_555
O21 Tb7 1_555 1_555
O22 Tb7 1_555 1_555

#END
