
###############################################################################
#
# This file contains modified crystal structure data generated from the
# MOF subset of the Cambridge Structural Database (CSD) v543 
# hosted by the Cambridge Crystallographic Data Centre (CCDC).
#
# This work is licensed under the Creative Commons
# Attribution-NonCommercial-ShareAlike 4.0 International License.
# To view a copy of this license, visit
# http://creativecommons.org/licenses/by-nc-sa/4.0/
# or send a letter to
# Creative Commons, PO Box 1866, Mountain View, CA 94042, USA.
#
# CIF created using the CSD Python API on 29 September 2022
# The structure has been converted into the P1 space group
# The structure has a 3D framework
# The original CSD entry CAQVOI17 is in the triclinic crystal system
# The framework has been calculated to contain at least 10.0% void space
# The void calculation uses a probe of radius 1.32A, grid spacing 0.4
#
###############################################################################

data_CAQVOI17
_chemical_formula_moiety         '(C36 H40 N4 O22 Tb2)n'
_symmetry_cell_setting           triclinic
_symmetry_space_group_name_H-M   'P 1'
_symmetry_Int_Tables_number      1
_space_group_name_Hall           'P 1'
loop_
_symmetry_equiv_pos_site_id
_symmetry_equiv_pos_as_xyz
1 x,y,z
_cell_length_a                   10.6430(6)
_cell_length_b                   11.1747(5)
_cell_length_c                   11.4401(6)
_cell_angle_alpha                96.900(4)
_cell_angle_beta                 111.066(5)
_cell_angle_gamma                101.426(4)
_cell_volume                     1216.97
loop_
_atom_site_label
_atom_site_type_symbol
_atom_site_fract_x
_atom_site_fract_y
_atom_site_fract_z
_atom_site_U_iso_or_equiv
_atom_site_thermal_displace_type
Tb4 Tb 0.10766(3) 0.53520(4) 0.69931(4) 0.0319 Uani
C27 C 0.6978(9) 0.2399(9) 0.1404(10) 0.0353 Uani
C28 C 0.5991(9) 0.1143(10) 0.0677(11) 0.0451 Uani
C29 C 0.6380(10) 0.0325(12) 0.0081(14) 0.0560 Uani
H25 H 0.729385 0.052978 0.009005 0.0680 Uiso
C30 C 0.4562(10) 0.0914(12) 0.0610(13) 0.0563 Uani
O18 O 0.4052(9) 0.1819(10) 0.1173(13) 0.0880 Uani
H26 H 0.471613 0.244427 0.161308 0.1320 Uiso
O19 O 0.8147(7) 0.2698(7) 0.1303(7) 0.0400 Uani
O20 O 0.6623(7) 0.3148(7) 0.2086(8) 0.0484 Uani
Tb7 Tb 0.89234(3) 0.46480(4) 0.30069(4) 0.0319 Uani
C2 C 0.2047(9) 0.4850(9) 0.4305(10) 0.0372 Uani
C3 C 0.3573(9) 0.4947(10) 0.4664(10) 0.0385 Uani
C5 C 0.4519(10) 0.5382(12) 0.5939(10) 0.0463 Uani
H1 H 0.419606 0.564911 0.657439 0.0550 Uiso
C6 C 0.5937(10) 0.5429(12) 0.6294(10) 0.0454 Uani
C7 C 0.3022(9) 0.7601(9) 0.8596(10) 0.0353 Uani
C8 C 0.0032(12) 0.0730(11) 0.6093(10) 0.0442 Uani
H2 H 0.004566 0.122984 0.683306 0.0530 Uiso
C10 C 0.0496(16) 0.1786(15) 0.9906(17) 0.0661 Uani
H5 H 0.000911 0.099370 0.928439 0.0990 Uiso
C11 C 0.4009(9) 0.8857(10) 0.9323(11) 0.0451 Uani
C12 C 0.3620(10) 0.9675(12) 0.9919(14) 0.0560 Uani
H6 H 0.270615 0.947022 0.990995 0.0680 Uiso
C13 C 0.3112(14) 0.3295(13) 0.7216(14) 0.0695 Uani
H7 H 0.242065 0.279963 0.642821 0.0840 Uiso
C14 C 0.5438(10) 0.9086(12) 0.9390(13) 0.0563 Uani
C16 C 0.1179(13) 0.3721(15) 0.9323(13) 0.0543 Uani
H11 H 0.211847 0.370524 0.977087 0.0650 Uiso
C17 C 0.434(3) 0.177(2) 0.698(3) 0.1379 Uani
H12 H 0.522993 0.159147 0.744625 0.2070 Uiso
H13 H 0.357021 0.107011 0.689779 0.2070 Uiso
H14 H 0.427458 0.188942 0.613185 0.2070 Uiso
C18 C 0.535(2) 0.366(2) 0.891(2) 0.1081 Uani
H15 H 0.611825 0.326684 0.914556 0.1620 Uiso
H16 H 0.567904 0.450945 0.879788 0.1620 Uiso
H17 H 0.498399 0.370865 0.958226 0.1620 Uiso
N1 N 0.0202(10) 0.2792(11) 0.9296(10) 0.0518 Uani
N2 N 0.4246(14) 0.2937(14) 0.7715(15) 0.0804 Uani
O1 O 0.5948(9) 0.8181(10) 0.8827(13) 0.0880 Uani
H18 H 0.528387 0.755573 0.838692 0.1320 Uiso
O3 O 0.1604(7) 0.5044(7) 0.5187(8) 0.0427 Uani
O5 O 0.0980(10) 0.4636(10) 0.8806(8) 0.0543 Uani
O6 O 0.1220(6) 0.4582(7) 0.3119(7) 0.0430 Uani
O7 O 0.1853(7) 0.7302(7) 0.8697(7) 0.0400 Uani
O8 O 0.3377(7) 0.6852(7) 0.7914(8) 0.0484 Uani
O10 O 0.2865(8) 0.4234(9) 0.7692(10) 0.0587 Uani
O11 O 0.6808(8) 0.5834(12) 0.7565(8) 0.0689 Uani
H20 H 0.762442 0.581992 0.765664 0.1030 Uiso
C23 C 0.7953(9) 0.5150(9) 0.5695(10) 0.0372 Uani
C24 C 0.6427(9) 0.5053(10) 0.5336(10) 0.0385 Uani
C25 C 0.5481(10) 0.4618(12) 0.4061(10) 0.0463 Uani
H23 H 0.580394 0.435089 0.342561 0.0550 Uiso
C26 C 0.4063(10) 0.4571(12) 0.3706(10) 0.0454 Uani
O15 O 0.8396(7) 0.4956(7) 0.4813(8) 0.0427 Uani
O16 O 0.8780(6) 0.5418(7) 0.6881(7) 0.0430 Uani
O17 O 0.3192(8) 0.4166(12) 0.2435(8) 0.0689 Uani
H24 H 0.237558 0.418008 0.234336 0.1030 Uiso
O25 O 0.0718(7) 0.7136(7) 0.6083(7) 0.0391 Uani
C9 C 0.0248(11) 0.9551(10) 0.6147(10) 0.0392 Uani
O9 O 0.0462(11) 0.9188(9) 0.7287(8) 0.0573 Uani
H19 H 0.048506 0.843663 0.720219 0.0860 Uiso
C19 C 0.0208(9) 0.8796(9) 0.5028(10) 0.0380 Uani
C20 C 0.0363(9) 0.7477(10) 0.5008(11) 0.0422 Uani
O12 O 0.0090(7) 0.6796(7) 0.3931(7) 0.0400 Uani
C33 C 0.1278(15) 0.7227(17) 0.1415(18) 0.0746 Uani
H31 H 0.173062 0.714080 0.081067 0.1120 Uiso
H32 H 0.175934 0.801945 0.203753 0.1120 Uiso
H33 H 0.132087 0.653372 0.186449 0.1120 Uiso
C1 C 0.9792(9) 0.1204(9) 0.4972(10) 0.0380 Uani
C4 C 0.9637(9) 0.2523(10) 0.4992(11) 0.0422 Uani
C15 C 0.8722(15) 0.2773(17) 0.8585(18) 0.0746 Uani
H8 H 0.826938 0.285920 0.918933 0.1120 Uiso
H9 H 0.824066 0.198055 0.796247 0.1120 Uiso
H10 H 0.867913 0.346628 0.813551 0.1120 Uiso
O2 O 0.9910(7) 0.3204(7) 0.6069(7) 0.0400 Uani
O4 O 0.9282(7) 0.2864(7) 0.3917(7) 0.0391 Uani
C22 C 0.9752(11) 0.0449(10) 0.3853(10) 0.0392 Uani
O14 O 0.9538(11) 0.0812(9) 0.2713(8) 0.0573 Uani
H22 H 0.951494 0.156337 0.279781 0.0860 Uiso
C21 C 0.9968(12) 0.9270(11) 0.3907(10) 0.0442 Uani
H21 H 0.995434 0.877016 0.316694 0.0530 Uiso
C31 C 0.9504(16) 0.8214(15) 0.0094(17) 0.0661 Uani
H29 H 0.999089 0.900630 0.071561 0.0990 Uiso
C32 C 0.6888(14) 0.6705(13) 0.2784(14) 0.0695 Uani
H30 H 0.757935 0.720037 0.357179 0.0840 Uiso
C34 C 0.8821(13) 0.6279(15) 0.0677(13) 0.0543 Uani
H34 H 0.788153 0.629476 0.022913 0.0650 Uiso
C35 C 0.566(3) 0.823(2) 0.302(3) 0.1379 Uani
H35 H 0.477007 0.840853 0.255375 0.2070 Uiso
H36 H 0.642979 0.892989 0.310221 0.2070 Uiso
H37 H 0.572542 0.811058 0.386815 0.2070 Uiso
C36 C 0.465(2) 0.634(2) 0.109(2) 0.1081 Uani
H38 H 0.388175 0.673316 0.085444 0.1620 Uiso
H39 H 0.432096 0.549055 0.120212 0.1620 Uiso
H40 H 0.501601 0.629135 0.041774 0.1620 Uiso
N3 N 0.9798(10) 0.7208(11) 0.0704(10) 0.0518 Uani
N4 N 0.5754(14) 0.7063(14) 0.2285(15) 0.0804 Uani
O21 O 0.9020(10) 0.5364(10) 0.1194(8) 0.0543 Uani
O22 O 0.7135(8) 0.5766(9) 0.2308(10) 0.0587 Uani
H3 H 0.017783 0.180105 0.061122 0.0990 Uiso
H4 H 0.150259 0.186994 0.024394 0.0990 Uiso
H27 H 0.982217 0.819895 0.938878 0.0990 Uiso
H28 H 0.849741 0.813006 0.975606 0.0990 Uiso
loop_
_atom_site_aniso_label
_atom_site_aniso_U_11
_atom_site_aniso_U_22
_atom_site_aniso_U_33
_atom_site_aniso_U_23
_atom_site_aniso_U_13
_atom_site_aniso_U_12
Tb4 0.0175 0.025 0.0412 0.0014 0.0003 0.00407
C27 0.022 0.022 0.046 -0.001 -0.003 0.007
C28 0.023 0.033 0.059 -0.009 0.003 -0.001
C29 0.023 0.044 0.083 -0.011 0.012 0.001
C30 0.023 0.044 0.08 -0.018 0.008 0.003
O18 0.033 0.066 0.136 -0.042 0.03 -0.006
O19 0.027 0.032 0.046 -0.001 0.003 0.002
O20 0.025 0.034 0.067 -0.01 0.005 0.003
Tb7 0.0175 0.025 0.0412 0.0014 0.0003 0.00407
C2 0.02 0.031 0.054 0.003 0.008 0.008
C3 0.018 0.039 0.05 0.006 0.004 0.009
C5 0.033 0.065 0.041 0.006 0.014 0.017
C6 0.028 0.061 0.034 -0.005 0.001 0.013
C7 0.022 0.022 0.046 -0.001 -0.003 0.007
C8 0.046 0.037 0.043 0.001 0.008 0.019
C10 0.063 0.058 0.083 0.032 0.025 0.025
C11 0.023 0.033 0.059 -0.009 0.003 -0.001
C12 0.023 0.044 0.083 -0.011 0.012 0.001
C13 0.043 0.061 0.089 0.006 0.009 0.018
C14 0.023 0.044 0.08 -0.018 0.008 0.003
C16 0.041 0.054 0.051 0.001 0.003 0.01
C17 0.139 0.126 0.151 0.01 0.045 0.074
C18 0.087 0.091 0.115 0.038 -0.011 0.042
N1 0.042 0.052 0.055 0.014 0.011 0.012
N2 0.056 0.074 0.109 0.026 0.019 0.034
O1 0.033 0.066 0.136 -0.042 0.03 -0.006
O3 0.025 0.039 0.06 0.002 0.015 0.008
O5 0.064 0.043 0.05 0.015 0.013 0.016
O6 0.021 0.046 0.057 0.009 0.009 0.011
O7 0.027 0.032 0.046 -0.001 0.003 0.002
O8 0.025 0.034 0.067 -0.01 0.005 0.003
O10 0.033 0.054 0.081 0.016 0.009 0.018
O11 0.024 0.116 0.05 -0.007 0.006 0.013
C23 0.02 0.031 0.054 0.003 0.008 0.008
C24 0.018 0.039 0.05 0.006 0.004 0.009
C25 0.033 0.065 0.041 0.006 0.014 0.017
C26 0.028 0.061 0.034 -0.005 0.001 0.013
O15 0.025 0.039 0.06 0.002 0.015 0.008
O16 0.021 0.046 0.057 0.009 0.009 0.011
O17 0.024 0.116 0.05 -0.007 0.006 0.013
O25 0.039 0.03 0.038 0.01 0.001 0.012
C9 0.042 0.033 0.039 0.011 0.009 0.013
O9 0.078 0.043 0.051 0.01 0.02 0.026
C19 0.028 0.024 0.052 0 0.006 0.008
C20 0.022 0.026 0.062 -0.006 0.006 -0.001
O12 0.031 0.026 0.052 -0.001 0.008 0.005
C33 0.044 0.074 0.094 0.024 0.015 0.009
C1 0.028 0.024 0.052 0 0.006 0.008
C4 0.022 0.026 0.062 -0.006 0.006 -0.001
C15 0.044 0.074 0.094 0.024 0.015 0.009
O2 0.031 0.026 0.052 -0.001 0.008 0.005
O4 0.039 0.03 0.038 0.01 0.001 0.012
C22 0.042 0.033 0.039 0.011 0.009 0.013
O14 0.078 0.043 0.051 0.01 0.02 0.026
C21 0.046 0.037 0.043 0.001 0.008 0.019
C31 0.063 0.058 0.083 0.032 0.025 0.025
C32 0.043 0.061 0.089 0.006 0.009 0.018
C34 0.041 0.054 0.051 0.001 0.003 0.01
C35 0.139 0.126 0.151 0.01 0.045 0.074
C36 0.087 0.091 0.115 0.038 -0.011 0.042
N3 0.042 0.052 0.055 0.014 0.011 0.012
N4 0.056 0.074 0.109 0.026 0.019 0.034
O21 0.064 0.043 0.05 0.015 0.013 0.016
O22 0.033 0.054 0.081 0.016 0.009 0.018
loop_
_geom_bond_atom_site_label_1
_geom_bond_atom_site_label_2
_geom_bond_site_symmetry_1
_geom_bond_site_symmetry_2
C27 C28 1_555 1_555
C28 C29 1_555 1_555
H25 C29 1_555 1_555
O18 C30 1_555 1_555
H26 O18 1_555 1_555
O19 C27 1_555 1_555
O20 C27 1_555 1_555
Tb7 O19 1_555 1_555
C28 C30 1_555 1_555
O20 Tb7 1_555 1_555
C2 C3 1_555 1_555
C3 C5 1_555 1_555
C5 H1 1_555 1_555
C6 C5 1_555 1_555
C7 C11 1_555 1_555
H2 C8 1_555 1_555
H5 C10 1_555 1_555
C11 C12 1_555 1_555
C12 H6 1_555 1_555
C13 H7 1_555 1_555
C14 C11 1_555 1_555
C16 H11 1_555 1_555
C17 H12 1_555 1_555
H13 C17 1_555 1_555
H14 C17 1_555 1_555
C18 H15 1_555 1_555
H16 C18 1_555 1_555
H17 C18 1_555 1_555
N1 C10 1_555 1_555
N2 C13 1_555 1_555
O1 C14 1_555 1_555
H18 O1 1_555 1_555
O3 C2 1_555 1_555
O5 C16 1_555 1_555
O6 C2 1_555 1_555
O7 C7 1_555 1_555
O8 C7 1_555 1_555
O10 C13 1_555 1_555
O11 C6 1_555 1_555
H20 O11 1_555 1_555
Tb4 O3 1_555 1_555
C23 C24 1_555 1_555
C24 C6 1_555 1_555
C25 C24 1_555 1_555
H23 C25 1_555 1_555
C26 C3 1_555 1_555
O15 C23 1_555 1_555
O16 C23 1_555 1_555
O17 C26 1_555 1_555
H24 O17 1_555 1_555
O25 Tb4 1_555 1_555
Tb7 O15 1_555 1_555
C16 N1 1_555 1_555
C17 N2 1_555 1_555
C18 N2 1_555 1_555
O5 Tb4 1_555 1_555
O7 Tb4 1_555 1_555
O8 Tb4 1_555 1_555
O10 Tb4 1_555 1_555
C25 C26 1_555 1_555
O9 C9 1_555 1_555
H19 O9 1_555 1_555
C19 C9 1_555 1_555
C20 C19 1_555 1_555
O12 C20 1_555 1_555
O25 C20 1_555 1_555
C33 H31 1_555 1_555
H32 C33 1_555 1_555
H33 C33 1_555 1_555
C1 C4 1_555 1_555
C4 O2 1_555 1_555
C15 H8 1_555 1_555
H9 C15 1_555 1_555
H10 C15 1_555 1_555
O4 C4 1_555 1_555
C22 C1 1_555 1_555
O14 C22 1_555 1_555
H22 O14 1_555 1_555
Tb7 O4 1_555 1_555
H21 C21 1_555 1_555
H29 C31 1_555 1_555
C32 H30 1_555 1_555
C34 H34 1_555 1_555
C35 H35 1_555 1_555
H36 C35 1_555 1_555
H37 C35 1_555 1_555
C36 H38 1_555 1_555
H39 C36 1_555 1_555
H40 C36 1_555 1_555
N3 C31 1_555 1_555
N4 C32 1_555 1_555
O21 C34 1_555 1_555
O22 C32 1_555 1_555
C34 N3 1_555 1_555
C35 N4 1_555 1_555
C36 N4 1_555 1_555
O21 Tb7 1_555 1_555
O22 Tb7 1_555 1_555

#END
