
###############################################################################
#
# This file contains modified crystal structure data generated from the
# MOF subset of the Cambridge Structural Database (CSD) v543 
# hosted by the Cambridge Crystallographic Data Centre (CCDC).
#
# This work is licensed under the Creative Commons
# Attribution-NonCommercial-ShareAlike 4.0 International License.
# To view a copy of this license, visit
# http://creativecommons.org/licenses/by-nc-sa/4.0/
# or send a letter to
# Creative Commons, PO Box 1866, Mountain View, CA 94042, USA.
#
# CIF created using the CSD Python API on 29 September 2022
# The structure has been converted into the P1 space group
# The structure has a 3D framework
# The original CSD entry CAQVOI25 is in the triclinic crystal system
# The framework has been calculated to contain at least 10.0% void space
# The void calculation uses a probe of radius 1.32A, grid spacing 0.4
#
###############################################################################

data_CAQVOI25
_chemical_formula_moiety         '(C36 H40 N4 O22 Tb2)n'
_symmetry_cell_setting           triclinic
_symmetry_space_group_name_H-M   'P 1'
_symmetry_Int_Tables_number      1
_space_group_name_Hall           'P 1'
loop_
_symmetry_equiv_pos_site_id
_symmetry_equiv_pos_as_xyz
1 x,y,z
_cell_length_a                   10.6648(6)
_cell_length_b                   11.1779(5)
_cell_length_c                   11.5682(6)
_cell_angle_alpha                96.856(4)
_cell_angle_beta                 111.320(5)
_cell_angle_gamma                101.494(4)
_cell_volume                     1230.8
loop_
_atom_site_label
_atom_site_type_symbol
_atom_site_fract_x
_atom_site_fract_y
_atom_site_fract_z
_atom_site_U_iso_or_equiv
_atom_site_thermal_displace_type
Tb4 Tb 0.10866(3) 0.53481(3) 0.69822(3) 0.0370 Uani
C27 C 0.6967(9) 0.2403(8) 0.1408(9) 0.0416 Uani
C28 C 0.5981(9) 0.1147(9) 0.0691(10) 0.0487 Uani
C29 C 0.6380(10) 0.0329(11) 0.0090(12) 0.0641 Uani
H25 H 0.728177 0.052709 0.011926 0.0770 Uiso
C30 C 0.4565(10) 0.0882(11) 0.0622(13) 0.0695 Uani
O18 O 0.4053(9) 0.1778(10) 0.1180(13) 0.1130 Uani
H26 H 0.469985 0.238919 0.161012 0.1690 Uiso
O19 O 0.8139(6) 0.2709(6) 0.1323(6) 0.0483 Uani
O20 O 0.6612(7) 0.3143(7) 0.2087(8) 0.0603 Uani
Tb7 Tb 0.89134(3) 0.46519(3) 0.30178(3) 0.0370 Uani
C2 C 0.2055(9) 0.4861(9) 0.4329(9) 0.0441 Uani
C3 C 0.3578(8) 0.4947(10) 0.4666(9) 0.0458 Uani
C5 C 0.4536(9) 0.5407(12) 0.5929(10) 0.0579 Uani
H1 H 0.422679 0.568110 0.654242 0.0690 Uiso
C6 C 0.5951(10) 0.5458(12) 0.6278(10) 0.0559 Uani
C7 C 0.3033(9) 0.7597(8) 0.8592(9) 0.0416 Uani
C8 C 0.0021(12) 0.0739(10) 0.6071(10) 0.0522 Uani
H2 H 0.003119 0.123178 0.678322 0.0620 Uiso
C10 C 0.0509(19) 0.1778(16) 0.9908(18) 0.0895 Uani
H5 H 0.008375 0.100107 0.929844 0.1350 Uiso
C11 C 0.4019(9) 0.8853(9) 0.9309(10) 0.0487 Uani
C12 C 0.3620(10) 0.9671(11) 0.9910(12) 0.0641 Uani
H6 H 0.271823 0.947291 0.988074 0.0770 Uiso
C13 C 0.3123(14) 0.3302(13) 0.7187(14) 0.0867 Uani
H7 H 0.245451 0.283464 0.640821 0.1040 Uiso
C14 C 0.5435(10) 0.9118(11) 0.9378(13) 0.0695 Uani
C16 C 0.1177(15) 0.3699(16) 0.9309(14) 0.0699 Uani
H11 H 0.209413 0.368424 0.975686 0.0840 Uiso
C17 C 0.436(3) 0.179(2) 0.695(3) 0.1647 Uani
H12 H 0.522696 0.161895 0.741424 0.2480 Uiso
H13 H 0.360001 0.109698 0.683182 0.2480 Uiso
H14 H 0.432348 0.193490 0.613835 0.2480 Uiso
C18 C 0.534(2) 0.363(3) 0.888(2) 0.1511 Uani
H15 H 0.608109 0.322172 0.909818 0.2250 Uiso
H16 H 0.568441 0.446073 0.879987 0.2250 Uiso
H17 H 0.497670 0.365378 0.952535 0.2250 Uiso
N1 N 0.0204(11) 0.2799(11) 0.9277(10) 0.0651 Uani
N2 N 0.4236(14) 0.2934(14) 0.7679(16) 0.1011 Uani
O1 O 0.5947(9) 0.8222(10) 0.8820(13) 0.1130 Uani
H18 H 0.530015 0.761081 0.838988 0.1690 Uiso
O3 O 0.1625(7) 0.5067(7) 0.5199(7) 0.0531 Uani
O5 O 0.0976(10) 0.4613(10) 0.8769(8) 0.0673 Uani
O6 O 0.1219(6) 0.4585(8) 0.3156(7) 0.0520 Uani
O7 O 0.1861(6) 0.7291(6) 0.8677(6) 0.0483 Uani
O8 O 0.3388(7) 0.6857(7) 0.7913(8) 0.0603 Uani
O10 O 0.2874(8) 0.4229(9) 0.7671(10) 0.0727 Uani
O11 O 0.6835(8) 0.5878(12) 0.7535(8) 0.0862 Uani
H20 H 0.762976 0.586367 0.762244 0.1290 Uiso
C23 C 0.7945(9) 0.5139(9) 0.5671(9) 0.0441 Uani
C24 C 0.6422(8) 0.5053(10) 0.5334(9) 0.0458 Uani
C25 C 0.5464(9) 0.4593(12) 0.4071(10) 0.0579 Uani
H23 H 0.577321 0.431890 0.345758 0.0690 Uiso
C26 C 0.4049(10) 0.4542(12) 0.3722(10) 0.0559 Uani
O15 O 0.8375(7) 0.4933(7) 0.4801(7) 0.0531 Uani
O16 O 0.8781(6) 0.5415(8) 0.6844(7) 0.0520 Uani
O17 O 0.3165(8) 0.4122(12) 0.2465(8) 0.0862 Uani
H24 H 0.237024 0.413633 0.237756 0.1290 Uiso
O25 O 0.0722(7) 0.7139(7) 0.6079(7) 0.0480 Uani
C9 C 0.0239(11) 0.9547(10) 0.6132(9) 0.0466 Uani
O9 O 0.0442(12) 0.9190(9) 0.7259(8) 0.0725 Uani
H19 H 0.059861 0.849989 0.721877 0.1080 Uiso
C19 C 0.0210(9) 0.8799(9) 0.5038(9) 0.0434 Uani
C20 C 0.0367(9) 0.7470(9) 0.5025(10) 0.0444 Uani
O12 O 0.0100(7) 0.6794(6) 0.3957(7) 0.0472 Uani
C33 C 0.1258(15) 0.7202(19) 0.1384(18) 0.0947 Uani
H31 H 0.167709 0.712291 0.078135 0.1420 Uiso
H32 H 0.175068 0.797113 0.199805 0.1420 Uiso
H33 H 0.130495 0.651380 0.180735 0.1420 Uiso
C1 C 0.9790(9) 0.1201(9) 0.4962(9) 0.0434 Uani
C4 C 0.9633(9) 0.2530(9) 0.4975(10) 0.0444 Uani
C15 C 0.8742(15) 0.2798(19) 0.8616(18) 0.0947 Uani
H8 H 0.832291 0.287709 0.921865 0.1420 Uiso
H9 H 0.824932 0.202887 0.800195 0.1420 Uiso
H10 H 0.869505 0.348620 0.819265 0.1420 Uiso
O2 O 0.9900(7) 0.3206(6) 0.6043(7) 0.0472 Uani
O4 O 0.9278(7) 0.2861(7) 0.3921(7) 0.0480 Uani
C22 C 0.9761(11) 0.0453(10) 0.3868(9) 0.0466 Uani
O14 O 0.9558(12) 0.0810(9) 0.2741(8) 0.0725 Uani
H22 H 0.940139 0.150011 0.278123 0.1080 Uiso
C21 C 0.9979(12) 0.9261(10) 0.3929(10) 0.0522 Uani
H21 H 0.996881 0.876822 0.321678 0.0620 Uiso
C31 C 0.9491(19) 0.8222(16) 0.0092(18) 0.0895 Uani
H29 H 0.991625 0.899893 0.070156 0.1350 Uiso
C32 C 0.6877(14) 0.6698(13) 0.2813(14) 0.0867 Uani
H30 H 0.754549 0.716536 0.359179 0.1040 Uiso
C34 C 0.8823(15) 0.6301(16) 0.0691(14) 0.0699 Uani
H34 H 0.790587 0.631576 0.024314 0.0840 Uiso
C35 C 0.564(3) 0.821(2) 0.305(3) 0.1647 Uani
H35 H 0.477304 0.838105 0.258576 0.2480 Uiso
H36 H 0.639999 0.890302 0.316818 0.2480 Uiso
H37 H 0.567652 0.806510 0.386165 0.2480 Uiso
C36 C 0.466(2) 0.637(3) 0.112(2) 0.1511 Uani
H38 H 0.391891 0.677828 0.090182 0.2250 Uiso
H39 H 0.431559 0.553927 0.120013 0.2250 Uiso
H40 H 0.502330 0.634622 0.047465 0.2250 Uiso
N3 N 0.9796(11) 0.7201(11) 0.0723(10) 0.0651 Uani
N4 N 0.5764(14) 0.7066(14) 0.2321(16) 0.1011 Uani
O21 O 0.9024(10) 0.5387(10) 0.1231(8) 0.0673 Uani
O22 O 0.7126(8) 0.5771(9) 0.2329(10) 0.0727 Uani
H3 H 0.014304 0.176500 0.055374 0.1350 Uiso
H4 H 0.149978 0.189373 0.028915 0.1350 Uiso
H27 H 0.985696 0.823500 0.944626 0.1350 Uiso
H28 H 0.850022 0.810627 0.971085 0.1350 Uiso
loop_
_atom_site_aniso_label
_atom_site_aniso_U_11
_atom_site_aniso_U_22
_atom_site_aniso_U_33
_atom_site_aniso_U_23
_atom_site_aniso_U_13
_atom_site_aniso_U_12
Tb4 0.0258 0.0266 0.0452 -0.0005 0.00198 0.00578
C27 0.032 0.026 0.052 -0.004 0.004 0.007
C28 0.031 0.039 0.056 -0.011 0.006 0
C29 0.033 0.05 0.09 -0.016 0.018 0
C30 0.035 0.053 0.095 -0.029 0.016 0.002
O18 0.05 0.079 0.173 -0.066 0.043 -0.006
O19 0.038 0.041 0.049 -0.004 0.008 0
O20 0.035 0.042 0.078 -0.018 0.007 0.002
Tb7 0.0258 0.0266 0.0452 -0.0005 0.00198 0.00578
C2 0.032 0.038 0.058 0.003 0.015 0.01
C3 0.027 0.051 0.05 0.003 0.006 0.012
C5 0.035 0.08 0.049 -0.01 0.013 0.015
C6 0.032 0.073 0.048 -0.009 0.005 0.016
C7 0.032 0.026 0.052 -0.004 0.004 0.007
C8 0.064 0.034 0.05 0 0.013 0.018
C10 0.098 0.068 0.112 0.042 0.039 0.034
C11 0.031 0.039 0.056 -0.011 0.006 0
C12 0.033 0.05 0.09 -0.016 0.018 0
C13 0.058 0.069 0.11 0.003 0.008 0.025
C14 0.035 0.053 0.095 -0.029 0.016 0.002
C16 0.063 0.07 0.061 0.008 0.009 0.017
C17 0.164 0.151 0.184 0.014 0.059 0.084
C18 0.098 0.17 0.139 0.033 -0.015 0.054
N1 0.061 0.065 0.066 0.018 0.02 0.017
N2 0.07 0.095 0.134 0.031 0.021 0.046
O1 0.05 0.079 0.173 -0.066 0.043 -0.006
O3 0.036 0.049 0.07 0.002 0.019 0.012
O5 0.085 0.058 0.055 0.016 0.021 0.021
O6 0.028 0.063 0.056 0.006 0.007 0.015
O7 0.038 0.041 0.049 -0.004 0.008 0
O8 0.035 0.042 0.078 -0.018 0.007 0.002
O10 0.047 0.062 0.099 0.02 0.011 0.025
O11 0.034 0.148 0.056 -0.015 0.007 0.022
C23 0.032 0.038 0.058 0.003 0.015 0.01
C24 0.027 0.051 0.05 0.003 0.006 0.012
C25 0.035 0.08 0.049 -0.01 0.013 0.015
C26 0.032 0.073 0.048 -0.009 0.005 0.016
O15 0.036 0.049 0.07 0.002 0.019 0.012
O16 0.028 0.063 0.056 0.006 0.007 0.015
O17 0.034 0.148 0.056 -0.015 0.007 0.022
O25 0.055 0.032 0.044 0.007 0.003 0.016
C9 0.058 0.035 0.045 0.011 0.014 0.019
O9 0.114 0.051 0.059 0.014 0.031 0.041
C19 0.046 0.023 0.053 0.004 0.01 0.012
C20 0.034 0.023 0.061 -0.002 0.008 0.002
O12 0.046 0.027 0.056 -0.001 0.011 0.006
C33 0.059 0.106 0.113 0.045 0.024 0.015
C1 0.046 0.023 0.053 0.004 0.01 0.012
C4 0.034 0.023 0.061 -0.002 0.008 0.002
C15 0.059 0.106 0.113 0.045 0.024 0.015
O2 0.046 0.027 0.056 -0.001 0.011 0.006
O4 0.055 0.032 0.044 0.007 0.003 0.016
C22 0.058 0.035 0.045 0.011 0.014 0.019
O14 0.114 0.051 0.059 0.014 0.031 0.041
C21 0.064 0.034 0.05 0 0.013 0.018
C31 0.098 0.068 0.112 0.042 0.039 0.034
C32 0.058 0.069 0.11 0.003 0.008 0.025
C34 0.063 0.07 0.061 0.008 0.009 0.017
C35 0.164 0.151 0.184 0.014 0.059 0.084
C36 0.098 0.17 0.139 0.033 -0.015 0.054
N3 0.061 0.065 0.066 0.018 0.02 0.017
N4 0.07 0.095 0.134 0.031 0.021 0.046
O21 0.085 0.058 0.055 0.016 0.021 0.021
O22 0.047 0.062 0.099 0.02 0.011 0.025
loop_
_geom_bond_atom_site_label_1
_geom_bond_atom_site_label_2
_geom_bond_site_symmetry_1
_geom_bond_site_symmetry_2
C27 C28 1_555 1_555
C28 C29 1_555 1_555
H25 C29 1_555 1_555
O18 C30 1_555 1_555
H26 O18 1_555 1_555
O19 C27 1_555 1_555
O20 C27 1_555 1_555
Tb7 O19 1_555 1_555
C28 C30 1_555 1_555
O20 Tb7 1_555 1_555
C2 C3 1_555 1_555
C3 C5 1_555 1_555
C5 H1 1_555 1_555
C6 C5 1_555 1_555
C7 C11 1_555 1_555
H2 C8 1_555 1_555
H5 C10 1_555 1_555
C11 C12 1_555 1_555
C12 H6 1_555 1_555
C13 H7 1_555 1_555
C14 C11 1_555 1_555
C16 H11 1_555 1_555
C17 H12 1_555 1_555
H13 C17 1_555 1_555
H14 C17 1_555 1_555
C18 H15 1_555 1_555
H16 C18 1_555 1_555
H17 C18 1_555 1_555
N1 C10 1_555 1_555
N2 C13 1_555 1_555
O1 C14 1_555 1_555
H18 O1 1_555 1_555
O3 C2 1_555 1_555
O5 C16 1_555 1_555
O6 C2 1_555 1_555
O7 C7 1_555 1_555
O8 C7 1_555 1_555
O10 C13 1_555 1_555
O11 C6 1_555 1_555
H20 O11 1_555 1_555
Tb4 O3 1_555 1_555
C23 C24 1_555 1_555
C24 C6 1_555 1_555
C25 C24 1_555 1_555
H23 C25 1_555 1_555
C26 C3 1_555 1_555
O15 C23 1_555 1_555
O16 C23 1_555 1_555
O17 C26 1_555 1_555
H24 O17 1_555 1_555
O25 Tb4 1_555 1_555
Tb7 O15 1_555 1_555
C16 N1 1_555 1_555
C17 N2 1_555 1_555
C18 N2 1_555 1_555
O5 Tb4 1_555 1_555
O7 Tb4 1_555 1_555
O8 Tb4 1_555 1_555
O10 Tb4 1_555 1_555
C25 C26 1_555 1_555
O9 C9 1_555 1_555
H19 O9 1_555 1_555
C19 C9 1_555 1_555
C20 C19 1_555 1_555
O12 C20 1_555 1_555
O25 C20 1_555 1_555
C33 H31 1_555 1_555
H32 C33 1_555 1_555
H33 C33 1_555 1_555
C1 C4 1_555 1_555
C4 O2 1_555 1_555
C15 H8 1_555 1_555
H9 C15 1_555 1_555
H10 C15 1_555 1_555
O4 C4 1_555 1_555
C22 C1 1_555 1_555
O14 C22 1_555 1_555
H22 O14 1_555 1_555
Tb7 O4 1_555 1_555
H21 C21 1_555 1_555
H29 C31 1_555 1_555
C32 H30 1_555 1_555
C34 H34 1_555 1_555
C35 H35 1_555 1_555
H36 C35 1_555 1_555
H37 C35 1_555 1_555
C36 H38 1_555 1_555
H39 C36 1_555 1_555
H40 C36 1_555 1_555
N3 C31 1_555 1_555
N4 C32 1_555 1_555
O21 C34 1_555 1_555
O22 C32 1_555 1_555
C34 N3 1_555 1_555
C35 N4 1_555 1_555
C36 N4 1_555 1_555
O21 Tb7 1_555 1_555
O22 Tb7 1_555 1_555

#END
