
###############################################################################
#
# This file contains modified crystal structure data generated from the
# MOF subset of the Cambridge Structural Database (CSD) v543 
# hosted by the Cambridge Crystallographic Data Centre (CCDC).
#
# This work is licensed under the Creative Commons
# Attribution-NonCommercial-ShareAlike 4.0 International License.
# To view a copy of this license, visit
# http://creativecommons.org/licenses/by-nc-sa/4.0/
# or send a letter to
# Creative Commons, PO Box 1866, Mountain View, CA 94042, USA.
#
# CIF created using the CSD Python API on 29 September 2022
# The structure has been converted into the P1 space group
# The structure has a 3D framework
# The original CSD entry CAQVOI28 is in the triclinic crystal system
# The framework has been calculated to contain at least 10.0% void space
# The void calculation uses a probe of radius 1.32A, grid spacing 0.4
#
###############################################################################

data_CAQVOI28
_chemical_formula_moiety         '(C36 H40 N4 O22 Tb2)n'
_symmetry_cell_setting           triclinic
_symmetry_space_group_name_H-M   'P 1'
_symmetry_Int_Tables_number      1
_space_group_name_Hall           'P 1'
loop_
_symmetry_equiv_pos_site_id
_symmetry_equiv_pos_as_xyz
1 x,y,z
_cell_length_a                   10.6648(6)
_cell_length_b                   11.1682(5)
_cell_length_c                   11.5897(6)
_cell_angle_alpha                96.798(4)
_cell_angle_beta                 111.386(5)
_cell_angle_gamma                101.528(4)
_cell_volume                     1231.45
loop_
_atom_site_label
_atom_site_type_symbol
_atom_site_fract_x
_atom_site_fract_y
_atom_site_fract_z
_atom_site_U_iso_or_equiv
_atom_site_thermal_displace_type
Tb4 Tb 0.10886(3) 0.53475(4) 0.69789(4) 0.0381 Uani
C27 C 0.6960(9) 0.2399(9) 0.1408(10) 0.0454 Uani
C28 C 0.5985(9) 0.1139(10) 0.0679(10) 0.0488 Uani
C29 C 0.6378(11) 0.0356(13) 0.0107(14) 0.0698 Uani
H25 H 0.728419 0.056242 0.014603 0.0840 Uiso
C30 C 0.4563(11) 0.0880(12) 0.0624(15) 0.0729 Uani
O18 O 0.4041(10) 0.1785(11) 0.1175(15) 0.1153 Uani
H26 H 0.468719 0.239793 0.160612 0.1730 Uiso
O19 O 0.8140(7) 0.2712(7) 0.1325(7) 0.0507 Uani
O20 O 0.6607(7) 0.3141(8) 0.2088(9) 0.0618 Uani
Tb7 Tb 0.89114(3) 0.46525(4) 0.30211(4) 0.0381 Uani
C2 C 0.2054(9) 0.4866(10) 0.4334(10) 0.0458 Uani
C3 C 0.3580(9) 0.4943(10) 0.4665(10) 0.0460 Uani
C5 C 0.4538(10) 0.5405(13) 0.5925(11) 0.0602 Uani
H1 H 0.422826 0.567681 0.653703 0.0720 Uiso
C6 C 0.5956(10) 0.5463(13) 0.6275(11) 0.0563 Uani
C7 C 0.3040(9) 0.7601(9) 0.8592(10) 0.0454 Uani
C8 C 0.0024(12) 0.0730(11) 0.6072(11) 0.0523 Uani
H2 H 0.003483 0.122030 0.678473 0.0630 Uiso
C10 C 0.049(2) 0.1776(18) 0.991(2) 0.0953 Uani
H5 H 0.010950 0.100065 0.929984 0.1430 Uiso
C11 C 0.4015(9) 0.8861(10) 0.9321(10) 0.0488 Uani
C12 C 0.3622(11) 0.9644(13) 0.9893(14) 0.0698 Uani
H6 H 0.271581 0.943758 0.985397 0.0840 Uiso
C13 C 0.3120(15) 0.3315(14) 0.7179(15) 0.0852 Uani
H7 H 0.245682 0.286065 0.639250 0.1030 Uiso
C14 C 0.5437(11) 0.9120(12) 0.9376(15) 0.0729 Uani
C16 C 0.1174(15) 0.3695(18) 0.9302(15) 0.0741 Uani
H11 H 0.209136 0.368380 0.975304 0.0890 Uiso
C17 C 0.436(3) 0.182(2) 0.693(3) 0.1662 Uani
H12 H 0.522443 0.162816 0.738243 0.2490 Uiso
H13 H 0.359477 0.111894 0.678606 0.2490 Uiso
H14 H 0.433700 0.198459 0.612590 0.2490 Uiso
C18 C 0.533(2) 0.361(3) 0.886(2) 0.1525 Uani
H15 H 0.607056 0.320385 0.908204 0.2310 Uiso
H16 H 0.568097 0.444882 0.879318 0.2310 Uiso
H17 H 0.496406 0.363327 0.950617 0.2310 Uiso
N1 N 0.0205(12) 0.2795(12) 0.9272(11) 0.0669 Uani
N2 N 0.4248(15) 0.2939(16) 0.7680(17) 0.1029 Uani
O1 O 0.5959(10) 0.8215(11) 0.8825(15) 0.1153 Uani
H18 H 0.531281 0.760207 0.839388 0.1730 Uiso
O3 O 0.1629(7) 0.5070(8) 0.5195(8) 0.0538 Uani
O5 O 0.0973(11) 0.4610(11) 0.8759(10) 0.0716 Uani
O6 O 0.1216(7) 0.4584(8) 0.3162(7) 0.0511 Uani
O7 O 0.1860(7) 0.7288(7) 0.8675(7) 0.0507 Uani
O8 O 0.3393(7) 0.6859(8) 0.7912(9) 0.0618 Uani
O10 O 0.2875(9) 0.4221(10) 0.7671(11) 0.0788 Uani
O11 O 0.6843(8) 0.5880(13) 0.7530(9) 0.0870 Uani
H20 H 0.763756 0.586541 0.761543 0.1300 Uiso
C23 C 0.7946(9) 0.5134(10) 0.5666(10) 0.0458 Uani
C24 C 0.6420(9) 0.5057(10) 0.5335(10) 0.0460 Uani
C25 C 0.5462(10) 0.4595(13) 0.4075(11) 0.0602 Uani
H23 H 0.577174 0.432319 0.346297 0.0720 Uiso
C26 C 0.4044(10) 0.4537(13) 0.3725(11) 0.0563 Uani
O15 O 0.8371(7) 0.4930(8) 0.4805(8) 0.0538 Uani
O16 O 0.8784(7) 0.5416(8) 0.6838(7) 0.0511 Uani
O17 O 0.3157(8) 0.4120(13) 0.2470(9) 0.0870 Uani
H24 H 0.236244 0.413459 0.238457 0.1300 Uiso
O25 O 0.0720(8) 0.7141(7) 0.6073(7) 0.0518 Uani
C9 C 0.0238(12) 0.9542(11) 0.6130(10) 0.0491 Uani
O9 O 0.0442(13) 0.9191(9) 0.7261(9) 0.0749 Uani
H19 H 0.067057 0.853201 0.724906 0.1120 Uiso
C19 C 0.0209(10) 0.8796(10) 0.5038(10) 0.0457 Uani
C20 C 0.0369(9) 0.7478(9) 0.5025(11) 0.0452 Uani
O12 O 0.0094(7) 0.6793(6) 0.3956(7) 0.0470 Uani
C33 C 0.1258(17) 0.718(2) 0.138(2) 0.0994 Uani
H31 H 0.168766 0.716548 0.077959 0.1500 Uiso
H32 H 0.174951 0.791381 0.204072 0.1500 Uiso
H33 H 0.129000 0.644900 0.173333 0.1500 Uiso
C1 C 0.9791(10) 0.1204(10) 0.4962(10) 0.0457 Uani
C4 C 0.9631(9) 0.2522(9) 0.4975(11) 0.0452 Uani
C15 C 0.8742(17) 0.282(2) 0.862(2) 0.0994 Uani
H8 H 0.831234 0.283452 0.922041 0.1500 Uiso
H9 H 0.825049 0.208619 0.795928 0.1500 Uiso
H10 H 0.871000 0.355100 0.826667 0.1500 Uiso
O2 O 0.9906(7) 0.3207(6) 0.6044(7) 0.0470 Uani
O4 O 0.9280(8) 0.2859(7) 0.3927(7) 0.0518 Uani
C22 C 0.9762(12) 0.0458(11) 0.3870(10) 0.0491 Uani
O14 O 0.9558(13) 0.0809(9) 0.2739(9) 0.0749 Uani
H22 H 0.932943 0.146799 0.275094 0.1120 Uiso
C21 C 0.9976(12) 0.9270(11) 0.3928(11) 0.0523 Uani
H21 H 0.996517 0.877970 0.321527 0.0630 Uiso
C31 C 0.951(2) 0.8224(18) 0.009(2) 0.0953 Uani
H29 H 0.989050 0.899935 0.070016 0.1430 Uiso
C32 C 0.6880(15) 0.6685(14) 0.2821(15) 0.0852 Uani
H30 H 0.754318 0.713935 0.360750 0.1030 Uiso
C34 C 0.8826(15) 0.6305(18) 0.0698(15) 0.0741 Uani
H34 H 0.790864 0.631620 0.024696 0.0890 Uiso
C35 C 0.564(3) 0.818(2) 0.307(3) 0.1662 Uani
H35 H 0.477557 0.837184 0.261757 0.2490 Uiso
H36 H 0.640523 0.888106 0.321394 0.2490 Uiso
H37 H 0.566300 0.801541 0.387410 0.2490 Uiso
C36 C 0.467(2) 0.639(3) 0.114(2) 0.1525 Uani
H38 H 0.392944 0.679615 0.091796 0.2310 Uiso
H39 H 0.431903 0.555118 0.120682 0.2310 Uiso
H40 H 0.503594 0.636673 0.049383 0.2310 Uiso
N3 N 0.9795(12) 0.7205(12) 0.0728(11) 0.0669 Uani
N4 N 0.5752(15) 0.7061(16) 0.2320(17) 0.1029 Uani
O21 O 0.9027(11) 0.5390(11) 0.1241(10) 0.0716 Uani
O22 O 0.7125(9) 0.5779(10) 0.2329(11) 0.0788 Uani
H3 H 0.006957 0.174364 0.051586 0.1430 Uiso
H4 H 0.148082 0.191005 0.034256 0.1430 Uiso
H27 H 0.993043 0.825636 0.948414 0.1430 Uiso
H28 H 0.851918 0.808995 0.965744 0.1430 Uiso
loop_
_atom_site_aniso_label
_atom_site_aniso_U_11
_atom_site_aniso_U_22
_atom_site_aniso_U_33
_atom_site_aniso_U_23
_atom_site_aniso_U_13
_atom_site_aniso_U_12
Tb4 0.025 0.0257 0.0457 -0.0015 -0.00129 0.00321
C27 0.03 0.027 0.057 -0.007 0 0.002
C28 0.031 0.037 0.055 -0.01 0.003 -0.003
C29 0.033 0.06 0.092 -0.014 0.014 -0.002
C30 0.035 0.054 0.102 -0.03 0.017 -0.001
O18 0.053 0.079 0.172 -0.067 0.042 -0.013
O19 0.038 0.044 0.05 -0.003 0.006 -0.003
O20 0.035 0.041 0.081 -0.02 0.006 0.001
Tb7 0.025 0.0257 0.0457 -0.0015 -0.00129 0.00321
C2 0.028 0.043 0.057 0.001 0.01 0.008
C3 0.025 0.049 0.052 0.002 0.004 0.011
C5 0.033 0.081 0.052 -0.012 0.009 0.014
C6 0.033 0.068 0.049 -0.01 0.003 0.011
C7 0.03 0.027 0.057 -0.007 0 0.002
C8 0.064 0.032 0.049 -0.002 0.01 0.017
C10 0.1 0.069 0.123 0.046 0.04 0.029
C11 0.031 0.037 0.055 -0.01 0.003 -0.003
C12 0.033 0.06 0.092 -0.014 0.014 -0.002
C13 0.061 0.065 0.106 0.01 0.007 0.021
C14 0.035 0.054 0.102 -0.03 0.017 -0.001
C16 0.058 0.077 0.067 0.004 0.007 0.015
C17 0.165 0.152 0.183 0.014 0.058 0.079
C18 0.115 0.14 0.139 0.039 -0.029 0.044
N1 0.063 0.065 0.063 0.016 0.015 0.014
N2 0.072 0.097 0.131 0.029 0.018 0.044
O1 0.053 0.079 0.172 -0.067 0.042 -0.013
O3 0.035 0.05 0.07 0.002 0.017 0.011
O5 0.087 0.056 0.065 0.018 0.021 0.019
O6 0.029 0.057 0.058 0.007 0.007 0.014
O7 0.038 0.044 0.05 -0.003 0.006 -0.003
O8 0.035 0.041 0.081 -0.02 0.006 0.001
O10 0.048 0.069 0.105 0.018 0.009 0.026
O11 0.034 0.144 0.056 -0.018 0.004 0.015
C23 0.028 0.043 0.057 0.001 0.01 0.008
C24 0.025 0.049 0.052 0.002 0.004 0.011
C25 0.033 0.081 0.052 -0.012 0.009 0.014
C26 0.033 0.068 0.049 -0.01 0.003 0.011
O15 0.035 0.05 0.07 0.002 0.017 0.011
O16 0.029 0.057 0.058 0.007 0.007 0.014
O17 0.034 0.144 0.056 -0.018 0.004 0.015
O25 0.054 0.037 0.046 0.005 0 0.013
C9 0.061 0.033 0.047 0.009 0.013 0.015
O9 0.119 0.049 0.056 0.012 0.026 0.037
C19 0.045 0.028 0.053 0.003 0.009 0.009
C20 0.035 0.022 0.062 -0.002 0.007 0.002
O12 0.046 0.025 0.054 0.001 0.007 0.004
C33 0.063 0.109 0.117 0.042 0.025 0.013
C1 0.045 0.028 0.053 0.003 0.009 0.009
C4 0.035 0.022 0.062 -0.002 0.007 0.002
C15 0.063 0.109 0.117 0.042 0.025 0.013
O2 0.046 0.025 0.054 0.001 0.007 0.004
O4 0.054 0.037 0.046 0.005 0 0.013
C22 0.061 0.033 0.047 0.009 0.013 0.015
O14 0.119 0.049 0.056 0.012 0.026 0.037
C21 0.064 0.032 0.049 -0.002 0.01 0.017
C31 0.1 0.069 0.123 0.046 0.04 0.029
C32 0.061 0.065 0.106 0.01 0.007 0.021
C34 0.058 0.077 0.067 0.004 0.007 0.015
C35 0.165 0.152 0.183 0.014 0.058 0.079
C36 0.115 0.14 0.139 0.039 -0.029 0.044
N3 0.063 0.065 0.063 0.016 0.015 0.014
N4 0.072 0.097 0.131 0.029 0.018 0.044
O21 0.087 0.056 0.065 0.018 0.021 0.019
O22 0.048 0.069 0.105 0.018 0.009 0.026
loop_
_geom_bond_atom_site_label_1
_geom_bond_atom_site_label_2
_geom_bond_site_symmetry_1
_geom_bond_site_symmetry_2
C27 C28 1_555 1_555
C28 C29 1_555 1_555
H25 C29 1_555 1_555
O18 C30 1_555 1_555
H26 O18 1_555 1_555
O19 C27 1_555 1_555
O20 C27 1_555 1_555
Tb7 O19 1_555 1_555
C28 C30 1_555 1_555
O20 Tb7 1_555 1_555
C2 C3 1_555 1_555
C3 C5 1_555 1_555
C5 H1 1_555 1_555
C6 C5 1_555 1_555
C7 C11 1_555 1_555
H2 C8 1_555 1_555
H5 C10 1_555 1_555
C11 C12 1_555 1_555
C12 H6 1_555 1_555
C13 H7 1_555 1_555
C14 C11 1_555 1_555
C16 H11 1_555 1_555
C17 H12 1_555 1_555
H13 C17 1_555 1_555
H14 C17 1_555 1_555
C18 H15 1_555 1_555
H16 C18 1_555 1_555
H17 C18 1_555 1_555
N1 C10 1_555 1_555
N2 C13 1_555 1_555
O1 C14 1_555 1_555
H18 O1 1_555 1_555
O3 C2 1_555 1_555
O5 C16 1_555 1_555
O6 C2 1_555 1_555
O7 C7 1_555 1_555
O8 C7 1_555 1_555
O10 C13 1_555 1_555
O11 C6 1_555 1_555
H20 O11 1_555 1_555
Tb4 O3 1_555 1_555
C23 C24 1_555 1_555
C24 C6 1_555 1_555
C25 C24 1_555 1_555
H23 C25 1_555 1_555
C26 C3 1_555 1_555
O15 C23 1_555 1_555
O16 C23 1_555 1_555
O17 C26 1_555 1_555
H24 O17 1_555 1_555
O25 Tb4 1_555 1_555
Tb7 O15 1_555 1_555
C16 N1 1_555 1_555
C17 N2 1_555 1_555
C18 N2 1_555 1_555
O5 Tb4 1_555 1_555
O7 Tb4 1_555 1_555
O8 Tb4 1_555 1_555
O10 Tb4 1_555 1_555
C25 C26 1_555 1_555
O9 C9 1_555 1_555
H19 O9 1_555 1_555
C19 C9 1_555 1_555
C20 C19 1_555 1_555
O12 C20 1_555 1_555
O25 C20 1_555 1_555
C33 H31 1_555 1_555
H32 C33 1_555 1_555
H33 C33 1_555 1_555
C1 C4 1_555 1_555
C4 O2 1_555 1_555
C15 H8 1_555 1_555
H9 C15 1_555 1_555
H10 C15 1_555 1_555
O4 C4 1_555 1_555
C22 C1 1_555 1_555
O14 C22 1_555 1_555
H22 O14 1_555 1_555
Tb7 O4 1_555 1_555
H21 C21 1_555 1_555
H29 C31 1_555 1_555
C32 H30 1_555 1_555
C34 H34 1_555 1_555
C35 H35 1_555 1_555
H36 C35 1_555 1_555
H37 C35 1_555 1_555
C36 H38 1_555 1_555
H39 C36 1_555 1_555
H40 C36 1_555 1_555
N3 C31 1_555 1_555
N4 C32 1_555 1_555
O21 C34 1_555 1_555
O22 C32 1_555 1_555
C34 N3 1_555 1_555
C35 N4 1_555 1_555
C36 N4 1_555 1_555
O21 Tb7 1_555 1_555
O22 Tb7 1_555 1_555

#END
