
###############################################################################
#
# This file contains modified crystal structure data generated from the
# MOF subset of the Cambridge Structural Database (CSD) v543 
# hosted by the Cambridge Crystallographic Data Centre (CCDC).
#
# This work is licensed under the Creative Commons
# Attribution-NonCommercial-ShareAlike 4.0 International License.
# To view a copy of this license, visit
# http://creativecommons.org/licenses/by-nc-sa/4.0/
# or send a letter to
# Creative Commons, PO Box 1866, Mountain View, CA 94042, USA.
#
# CIF created using the CSD Python API on 29 September 2022
# The structure has been converted into the P1 space group
# The structure has a 3D framework
# The original CSD entry CAQVOI18 is in the triclinic crystal system
# The framework has been calculated to contain at least 10.0% void space
# The void calculation uses a probe of radius 1.32A, grid spacing 0.4
#
###############################################################################

data_CAQVOI18
_chemical_formula_moiety         '(C36 H40 N4 O22 Tb2)n'
_symmetry_cell_setting           triclinic
_symmetry_space_group_name_H-M   'P 1'
_symmetry_Int_Tables_number      1
_space_group_name_Hall           'P 1'
loop_
_symmetry_equiv_pos_site_id
_symmetry_equiv_pos_as_xyz
1 x,y,z
_cell_length_a                   10.6385(6)
_cell_length_b                   11.1794(5)
_cell_length_c                   11.4206(5)
_cell_angle_alpha                96.942(4)
_cell_angle_beta                 111.003(5)
_cell_angle_gamma                101.423(4)
_cell_volume                     1215.29
loop_
_atom_site_label
_atom_site_type_symbol
_atom_site_fract_x
_atom_site_fract_y
_atom_site_fract_z
_atom_site_U_iso_or_equiv
_atom_site_thermal_displace_type
Tb4 Tb 0.10743(3) 0.53526(3) 0.69943(3) 0.0318 Uani
C27 C 0.6987(8) 0.2403(8) 0.1404(9) 0.0351 Uani
C28 C 0.5985(9) 0.1143(9) 0.0684(10) 0.0434 Uani
C29 C 0.6374(9) 0.0311(11) 0.0074(12) 0.0534 Uani
H25 H 0.729189 0.050659 0.009088 0.0640 Uiso
C30 C 0.4570(9) 0.0906(11) 0.0625(12) 0.0559 Uani
O18 O 0.4059(8) 0.1797(9) 0.1189(11) 0.0852 Uani
H26 H 0.472077 0.242387 0.162990 0.1280 Uiso
O19 O 0.8146(6) 0.2695(6) 0.1303(6) 0.0401 Uani
O20 O 0.6627(6) 0.3153(7) 0.2086(7) 0.0471 Uani
Tb7 Tb 0.89257(3) 0.46474(3) 0.30057(3) 0.0318 Uani
C2 C 0.2049(8) 0.4854(9) 0.4307(9) 0.0366 Uani
C3 C 0.3570(8) 0.4939(9) 0.4661(9) 0.0371 Uani
C5 C 0.4512(9) 0.5378(11) 0.5943(10) 0.0481 Uani
H1 H 0.418723 0.564209 0.657834 0.0580 Uiso
C6 C 0.5940(9) 0.5430(11) 0.6296(9) 0.0471 Uani
C7 C 0.3013(8) 0.7597(8) 0.8596(9) 0.0351 Uani
C8 C 0.0036(10) 0.0735(10) 0.6095(10) 0.0442 Uani
H2 H 0.005532 0.123623 0.683795 0.0530 Uiso
C10 C 0.0508(14) 0.1787(13) 0.9919(15) 0.0657 Uani
H5 H 0.003492 0.098856 0.930437 0.0990 Uiso
C11 C 0.4015(9) 0.8857(9) 0.9316(10) 0.0434 Uani
C12 C 0.3626(9) 0.9689(11) 0.9926(12) 0.0534 Uani
H6 H 0.270811 0.949341 0.990912 0.0640 Uiso
C13 C 0.3099(12) 0.3295(11) 0.7207(12) 0.0675 Uani
H7 H 0.241183 0.280782 0.641177 0.0810 Uiso
C14 C 0.5430(9) 0.9094(11) 0.9375(12) 0.0559 Uani
C16 C 0.1180(12) 0.3727(14) 0.9333(12) 0.0560 Uani
H11 H 0.211717 0.371589 0.979578 0.0680 Uiso
C17 C 0.435(3) 0.177(2) 0.702(3) 0.1374 Uani
H12 H 0.524550 0.159974 0.749902 0.2070 Uiso
H13 H 0.358607 0.106784 0.693153 0.2070 Uiso
H14 H 0.430351 0.187796 0.616670 0.2070 Uiso
C18 C 0.5324(17) 0.366(2) 0.8919(19) 0.1064 Uani
H15 H 0.609596 0.325893 0.916740 0.1590 Uiso
H16 H 0.566322 0.450188 0.881436 0.1590 Uiso
H17 H 0.495012 0.370053 0.958791 0.1590 Uiso
N1 N 0.0196(9) 0.2794(9) 0.9282(9) 0.0503 Uani
N2 N 0.4240(12) 0.2934(12) 0.7724(13) 0.0769 Uani
O1 O 0.5941(8) 0.8203(9) 0.8811(11) 0.0852 Uani
H18 H 0.527923 0.757613 0.837010 0.1280 Uiso
O3 O 0.1599(6) 0.5051(6) 0.5176(7) 0.0419 Uani
O5 O 0.0979(9) 0.4641(9) 0.8815(8) 0.0546 Uani
O6 O 0.1222(6) 0.4576(7) 0.3118(7) 0.0419 Uani
O7 O 0.1854(6) 0.7305(6) 0.8697(6) 0.0401 Uani
O8 O 0.3373(6) 0.6847(7) 0.7914(7) 0.0471 Uani
O10 O 0.2865(7) 0.4234(8) 0.7697(9) 0.0591 Uani
O11 O 0.6804(7) 0.5836(10) 0.7569(7) 0.0660 Uani
H20 H 0.762188 0.582422 0.766575 0.0990 Uiso
C23 C 0.7951(8) 0.5146(9) 0.5693(9) 0.0366 Uani
C24 C 0.6430(8) 0.5061(9) 0.5339(9) 0.0371 Uani
C25 C 0.5488(9) 0.4622(11) 0.4057(10) 0.0481 Uani
H23 H 0.581277 0.435791 0.342166 0.0580 Uiso
C26 C 0.4060(9) 0.4570(11) 0.3704(9) 0.0471 Uani
O15 O 0.8401(6) 0.4949(6) 0.4824(7) 0.0419 Uani
O16 O 0.8778(6) 0.5424(7) 0.6882(7) 0.0419 Uani
O17 O 0.3196(7) 0.4164(10) 0.2431(7) 0.0660 Uani
H24 H 0.237812 0.417578 0.233425 0.0990 Uiso
O25 O 0.0717(7) 0.7138(6) 0.6083(6) 0.0399 Uani
C9 C 0.0250(10) 0.9551(9) 0.6147(9) 0.0389 Uani
O9 O 0.0467(10) 0.9186(8) 0.7293(7) 0.0558 Uani
H19 H 0.051833 0.844211 0.721312 0.0830 Uiso
C19 C 0.0209(8) 0.8790(9) 0.5031(9) 0.0364 Uani
C20 C 0.0365(8) 0.7480(9) 0.5014(10) 0.0392 Uani
O12 O 0.0087(6) 0.6788(6) 0.3933(6) 0.0371 Uani
C33 C 0.1269(13) 0.7237(16) 0.1415(15) 0.0714 Uani
H31 H 0.169140 0.705971 0.080088 0.1070 Uiso
H32 H 0.176998 0.806539 0.196528 0.1070 Uiso
H33 H 0.132572 0.660663 0.194486 0.1070 Uiso
C1 C 0.9791(8) 0.1210(9) 0.4969(9) 0.0364 Uani
C4 C 0.9635(8) 0.2520(9) 0.4986(10) 0.0392 Uani
C15 C 0.8731(13) 0.2763(16) 0.8585(15) 0.0714 Uani
H8 H 0.830860 0.294029 0.919912 0.1070 Uiso
H9 H 0.823002 0.193461 0.803472 0.1070 Uiso
H10 H 0.867428 0.339337 0.805514 0.1070 Uiso
O2 O 0.9913(6) 0.3212(6) 0.6067(6) 0.0371 Uani
O4 O 0.9283(7) 0.2862(6) 0.3917(6) 0.0399 Uani
C22 C 0.9750(10) 0.0449(9) 0.3853(9) 0.0389 Uani
O14 O 0.9533(10) 0.0814(8) 0.2707(7) 0.0558 Uani
H22 H 0.948167 0.155789 0.278688 0.0830 Uiso
C21 C 0.9964(10) 0.9265(10) 0.3905(10) 0.0442 Uani
H21 H 0.994468 0.876377 0.316205 0.0530 Uiso
C31 C 0.9492(14) 0.8213(13) 0.0081(15) 0.0657 Uani
H29 H 0.996508 0.901144 0.069563 0.0990 Uiso
C32 C 0.6901(12) 0.6705(11) 0.2793(12) 0.0675 Uani
H30 H 0.758817 0.719218 0.358823 0.0810 Uiso
C34 C 0.8820(12) 0.6273(14) 0.0667(12) 0.0560 Uani
H34 H 0.788283 0.628411 0.020422 0.0680 Uiso
C35 C 0.565(3) 0.823(2) 0.298(3) 0.1374 Uani
H35 H 0.475450 0.840026 0.250098 0.2070 Uiso
H36 H 0.641393 0.893216 0.306847 0.2070 Uiso
H37 H 0.569649 0.812204 0.383330 0.2070 Uiso
C36 C 0.4676(17) 0.634(2) 0.1081(19) 0.1064 Uani
H38 H 0.390404 0.674107 0.083260 0.1590 Uiso
H39 H 0.433678 0.549812 0.118564 0.1590 Uiso
H40 H 0.504988 0.629947 0.041209 0.1590 Uiso
N3 N 0.9804(9) 0.7206(9) 0.0718(9) 0.0503 Uani
N4 N 0.5760(12) 0.7066(12) 0.2276(13) 0.0769 Uani
O21 O 0.9021(9) 0.5359(9) 0.1185(8) 0.0546 Uani
O22 O 0.7135(7) 0.5766(8) 0.2303(9) 0.0591 Uani
H3 H 0.018331 0.180430 0.062169 0.0990 Uiso
H4 H 0.151715 0.188392 0.026475 0.0990 Uiso
H27 H 0.981669 0.819570 0.937831 0.0990 Uiso
H28 H 0.848285 0.811608 0.973525 0.0990 Uiso
loop_
_atom_site_aniso_label
_atom_site_aniso_U_11
_atom_site_aniso_U_22
_atom_site_aniso_U_33
_atom_site_aniso_U_23
_atom_site_aniso_U_13
_atom_site_aniso_U_12
Tb4 0.0222 0.022 0.0365 -0.0023 -0.00127 0.00336
C27 0.026 0.022 0.041 -0.003 -0.002 0.005
C28 0.028 0.03 0.052 -0.007 0.002 -0.001
C29 0.028 0.042 0.072 -0.012 0.011 0
C30 0.029 0.042 0.074 -0.023 0.009 0.002
O18 0.039 0.059 0.127 -0.043 0.026 -0.004
O19 0.031 0.031 0.04 -0.006 0 0.003
O20 0.028 0.034 0.058 -0.014 0.002 0.004
Tb7 0.0222 0.022 0.0365 -0.0023 -0.00127 0.00336
C2 0.024 0.029 0.048 -0.001 0.008 0.005
C3 0.022 0.036 0.041 0.002 0 0.008
C5 0.033 0.065 0.043 0 0.013 0.016
C6 0.03 0.061 0.035 -0.01 0.002 0.011
C7 0.026 0.022 0.041 -0.003 -0.002 0.005
C8 0.045 0.031 0.045 -0.005 0.007 0.013
C10 0.064 0.053 0.077 0.019 0.02 0.02
C11 0.028 0.03 0.052 -0.007 0.002 -0.001
C12 0.028 0.042 0.072 -0.012 0.011 0
C13 0.045 0.053 0.084 -0.001 0.006 0.014
C14 0.029 0.042 0.074 -0.023 0.009 0.002
C16 0.049 0.049 0.047 -0.006 -0.001 0.01
C17 0.137 0.13 0.148 0.013 0.048 0.066
C18 0.067 0.112 0.109 0.029 -0.007 0.031
N1 0.048 0.044 0.051 0.01 0.01 0.013
N2 0.058 0.069 0.093 0.013 0.01 0.033
O1 0.039 0.059 0.127 -0.043 0.026 -0.004
O3 0.03 0.033 0.057 -0.001 0.014 0.008
O5 0.068 0.039 0.048 0.007 0.015 0.011
O6 0.023 0.044 0.051 0.005 0.006 0.011
O7 0.031 0.031 0.04 -0.006 0 0.003
O8 0.028 0.034 0.058 -0.014 0.002 0.004
O10 0.039 0.053 0.076 0.013 0.009 0.018
O11 0.03 0.107 0.043 -0.01 0.004 0.014
C23 0.024 0.029 0.048 -0.001 0.008 0.005
C24 0.022 0.036 0.041 0.002 0 0.008
C25 0.033 0.065 0.043 0 0.013 0.016
C26 0.03 0.061 0.035 -0.01 0.002 0.011
O15 0.03 0.033 0.057 -0.001 0.014 0.008
O16 0.023 0.044 0.051 0.005 0.006 0.011
O17 0.03 0.107 0.043 -0.01 0.004 0.014
O25 0.042 0.028 0.037 0.002 0.002 0.01
C9 0.043 0.029 0.039 0.006 0.009 0.011
O9 0.08 0.04 0.043 0.003 0.016 0.025
C19 0.031 0.025 0.042 -0.002 0.005 0.006
C20 0.029 0.022 0.051 -0.006 0.006 -0.001
O12 0.036 0.021 0.044 0.001 0.007 0.005
C33 0.049 0.077 0.079 0.022 0.014 0.014
C1 0.031 0.025 0.042 -0.002 0.005 0.006
C4 0.029 0.022 0.051 -0.006 0.006 -0.001
C15 0.049 0.077 0.079 0.022 0.014 0.014
O2 0.036 0.021 0.044 0.001 0.007 0.005
O4 0.042 0.028 0.037 0.002 0.002 0.01
C22 0.043 0.029 0.039 0.006 0.009 0.011
O14 0.08 0.04 0.043 0.003 0.016 0.025
C21 0.045 0.031 0.045 -0.005 0.007 0.013
C31 0.064 0.053 0.077 0.019 0.02 0.02
C32 0.045 0.053 0.084 -0.001 0.006 0.014
C34 0.049 0.049 0.047 -0.006 -0.001 0.01
C35 0.137 0.13 0.148 0.013 0.048 0.066
C36 0.067 0.112 0.109 0.029 -0.007 0.031
N3 0.048 0.044 0.051 0.01 0.01 0.013
N4 0.058 0.069 0.093 0.013 0.01 0.033
O21 0.068 0.039 0.048 0.007 0.015 0.011
O22 0.039 0.053 0.076 0.013 0.009 0.018
loop_
_geom_bond_atom_site_label_1
_geom_bond_atom_site_label_2
_geom_bond_site_symmetry_1
_geom_bond_site_symmetry_2
C27 C28 1_555 1_555
C28 C29 1_555 1_555
H25 C29 1_555 1_555
O18 C30 1_555 1_555
H26 O18 1_555 1_555
O19 C27 1_555 1_555
O20 C27 1_555 1_555
Tb7 O19 1_555 1_555
C28 C30 1_555 1_555
O20 Tb7 1_555 1_555
C2 C3 1_555 1_555
C3 C5 1_555 1_555
C5 H1 1_555 1_555
C6 C5 1_555 1_555
C7 C11 1_555 1_555
H2 C8 1_555 1_555
H5 C10 1_555 1_555
C11 C12 1_555 1_555
C12 H6 1_555 1_555
C13 H7 1_555 1_555
C14 C11 1_555 1_555
C16 H11 1_555 1_555
C17 H12 1_555 1_555
H13 C17 1_555 1_555
H14 C17 1_555 1_555
C18 H15 1_555 1_555
H16 C18 1_555 1_555
H17 C18 1_555 1_555
N1 C10 1_555 1_555
N2 C13 1_555 1_555
O1 C14 1_555 1_555
H18 O1 1_555 1_555
O3 C2 1_555 1_555
O5 C16 1_555 1_555
O6 C2 1_555 1_555
O7 C7 1_555 1_555
O8 C7 1_555 1_555
O10 C13 1_555 1_555
O11 C6 1_555 1_555
H20 O11 1_555 1_555
Tb4 O3 1_555 1_555
C23 C24 1_555 1_555
C24 C6 1_555 1_555
C25 C24 1_555 1_555
H23 C25 1_555 1_555
C26 C3 1_555 1_555
O15 C23 1_555 1_555
O16 C23 1_555 1_555
O17 C26 1_555 1_555
H24 O17 1_555 1_555
O25 Tb4 1_555 1_555
Tb7 O15 1_555 1_555
C16 N1 1_555 1_555
C17 N2 1_555 1_555
C18 N2 1_555 1_555
O5 Tb4 1_555 1_555
O7 Tb4 1_555 1_555
O8 Tb4 1_555 1_555
O10 Tb4 1_555 1_555
C25 C26 1_555 1_555
O9 C9 1_555 1_555
H19 O9 1_555 1_555
C19 C9 1_555 1_555
C20 C19 1_555 1_555
O12 C20 1_555 1_555
O25 C20 1_555 1_555
C33 H31 1_555 1_555
H32 C33 1_555 1_555
H33 C33 1_555 1_555
C1 C4 1_555 1_555
C4 O2 1_555 1_555
C15 H8 1_555 1_555
H9 C15 1_555 1_555
H10 C15 1_555 1_555
O4 C4 1_555 1_555
C22 C1 1_555 1_555
O14 C22 1_555 1_555
H22 O14 1_555 1_555
Tb7 O4 1_555 1_555
H21 C21 1_555 1_555
H29 C31 1_555 1_555
C32 H30 1_555 1_555
C34 H34 1_555 1_555
C35 H35 1_555 1_555
H36 C35 1_555 1_555
H37 C35 1_555 1_555
C36 H38 1_555 1_555
H39 C36 1_555 1_555
H40 C36 1_555 1_555
N3 C31 1_555 1_555
N4 C32 1_555 1_555
O21 C34 1_555 1_555
O22 C32 1_555 1_555
C34 N3 1_555 1_555
C35 N4 1_555 1_555
C36 N4 1_555 1_555
O21 Tb7 1_555 1_555
O22 Tb7 1_555 1_555

#END
