
###############################################################################
#
# This file contains modified crystal structure data generated from the
# MOF subset of the Cambridge Structural Database (CSD) v543 
# hosted by the Cambridge Crystallographic Data Centre (CCDC).
#
# This work is licensed under the Creative Commons
# Attribution-NonCommercial-ShareAlike 4.0 International License.
# To view a copy of this license, visit
# http://creativecommons.org/licenses/by-nc-sa/4.0/
# or send a letter to
# Creative Commons, PO Box 1866, Mountain View, CA 94042, USA.
#
# CIF created using the CSD Python API on 29 September 2022
# The structure has been converted into the P1 space group
# The structure has a 3D framework
# The original CSD entry CAQVOI20 is in the triclinic crystal system
# The framework has been calculated to contain at least 10.0% void space
# The void calculation uses a probe of radius 1.32A, grid spacing 0.4
#
###############################################################################

data_CAQVOI20
_chemical_formula_moiety         '(C36 H40 N4 O22 Tb2)n'
_symmetry_cell_setting           triclinic
_symmetry_space_group_name_H-M   'P 1'
_symmetry_Int_Tables_number      1
_space_group_name_Hall           'P 1'
loop_
_symmetry_equiv_pos_site_id
_symmetry_equiv_pos_as_xyz
1 x,y,z
_cell_length_a                   10.6565(6)
_cell_length_b                   11.1667(5)
_cell_length_c                   11.5332(6)
_cell_angle_alpha                96.830(4)
_cell_angle_beta                 111.282(5)
_cell_angle_gamma                101.473(4)
_cell_volume                     1225.53
loop_
_atom_site_label
_atom_site_type_symbol
_atom_site_fract_x
_atom_site_fract_y
_atom_site_fract_z
_atom_site_U_iso_or_equiv
_atom_site_thermal_displace_type
Tb4 Tb 0.10848(3) 0.53489(3) 0.69849(3) 0.0356 Uani
C27 C 0.6973(8) 0.2404(8) 0.1400(9) 0.0396 Uani
C28 C 0.5976(8) 0.1148(9) 0.0685(9) 0.0470 Uani
C29 C 0.6374(10) 0.0325(11) 0.0089(12) 0.0602 Uani
H25 H 0.727822 0.052260 0.012145 0.0720 Uiso
C30 C 0.4563(10) 0.0891(11) 0.0624(12) 0.0656 Uani
O18 O 0.4052(9) 0.1783(10) 0.1170(13) 0.1068 Uani
H26 H 0.469840 0.239548 0.160074 0.1600 Uiso
O19 O 0.8142(6) 0.2706(6) 0.1318(6) 0.0466 Uani
O20 O 0.6613(6) 0.3148(7) 0.2084(7) 0.0564 Uani
Tb7 Tb 0.89152(3) 0.46511(3) 0.30151(3) 0.0356 Uani
C2 C 0.2050(8) 0.4862(9) 0.4323(9) 0.0440 Uani
C3 C 0.3574(8) 0.4946(9) 0.4664(9) 0.0442 Uani
C5 C 0.4533(9) 0.5402(11) 0.5932(10) 0.0554 Uani
H1 H 0.422271 0.567235 0.654771 0.0670 Uiso
C6 C 0.5946(9) 0.5454(12) 0.6281(9) 0.0552 Uani
C7 C 0.3027(8) 0.7596(8) 0.8600(9) 0.0396 Uani
C8 C 0.0018(11) 0.0731(10) 0.6074(9) 0.0490 Uani
H2 H 0.002086 0.121935 0.678727 0.0590 Uiso
C10 C 0.0501(18) 0.1781(15) 0.9907(17) 0.0833 Uani
H5 H 0.006462 0.100312 0.929713 0.1250 Uiso
C11 C 0.4024(8) 0.8852(9) 0.9315(9) 0.0470 Uani
C12 C 0.3626(10) 0.9675(11) 0.9911(12) 0.0602 Uani
H6 H 0.272178 0.947740 0.987855 0.0720 Uiso
C13 C 0.3112(13) 0.3304(12) 0.7190(13) 0.0813 Uani
H7 H 0.243957 0.283664 0.641144 0.0980 Uiso
C14 C 0.5437(10) 0.9109(11) 0.9376(12) 0.0656 Uani
C16 C 0.1177(13) 0.3703(15) 0.9312(13) 0.0652 Uani
H11 H 0.209428 0.368607 0.975966 0.0790 Uiso
C17 C 0.436(3) 0.180(2) 0.696(3) 0.1596 Uani
H12 H 0.523805 0.163150 0.743095 0.2390 Uiso
H13 H 0.361188 0.109986 0.684883 0.2390 Uiso
H14 H 0.432896 0.193738 0.614734 0.2390 Uiso
C18 C 0.534(2) 0.364(2) 0.888(2) 0.1375 Uani
H15 H 0.608637 0.323603 0.910612 0.2080 Uiso
H16 H 0.567865 0.447015 0.879708 0.2080 Uiso
H17 H 0.497875 0.366610 0.953314 0.2080 Uiso
N1 N 0.0203(10) 0.2800(10) 0.9278(9) 0.0611 Uani
N2 N 0.4234(13) 0.2933(14) 0.7681(15) 0.0964 Uani
O1 O 0.5948(9) 0.8217(10) 0.8830(13) 0.1068 Uani
H18 H 0.530160 0.760452 0.839926 0.1600 Uiso
O3 O 0.1621(6) 0.5062(7) 0.5199(7) 0.0511 Uani
O5 O 0.0979(9) 0.4621(9) 0.8777(8) 0.0649 Uani
O6 O 0.1221(6) 0.4582(7) 0.3151(6) 0.0491 Uani
O7 O 0.1858(6) 0.7294(6) 0.8682(6) 0.0466 Uani
O8 O 0.3387(6) 0.6852(7) 0.7916(7) 0.0564 Uani
O10 O 0.2870(8) 0.4225(8) 0.7675(9) 0.0689 Uani
O11 O 0.6833(7) 0.5871(11) 0.7540(7) 0.0811 Uani
H20 H 0.762730 0.585560 0.762395 0.1220 Uiso
C23 C 0.7950(8) 0.5138(9) 0.5677(9) 0.0440 Uani
C24 C 0.6426(8) 0.5054(9) 0.5336(9) 0.0442 Uani
C25 C 0.5467(9) 0.4598(11) 0.4068(10) 0.0554 Uani
H23 H 0.577729 0.432765 0.345229 0.0670 Uiso
C26 C 0.4054(9) 0.4546(12) 0.3719(9) 0.0552 Uani
O15 O 0.8379(6) 0.4938(7) 0.4801(7) 0.0511 Uani
O16 O 0.8779(6) 0.5418(7) 0.6849(6) 0.0491 Uani
O17 O 0.3167(7) 0.4129(11) 0.2460(7) 0.0811 Uani
H24 H 0.237270 0.414440 0.237605 0.1220 Uiso
O25 O 0.0719(7) 0.7140(6) 0.6076(6) 0.0464 Uani
C9 C 0.0241(10) 0.9546(9) 0.6136(9) 0.0435 Uani
O9 O 0.0447(11) 0.9194(8) 0.7264(8) 0.0695 Uani
H19 H 0.047531 0.846136 0.719054 0.1050 Uiso
C19 C 0.0210(9) 0.8799(8) 0.5034(9) 0.0419 Uani
C20 C 0.0367(8) 0.7476(8) 0.5019(9) 0.0417 Uani
O12 O 0.0098(7) 0.6795(6) 0.3954(7) 0.0447 Uani
C33 C 0.1256(14) 0.7197(18) 0.1387(17) 0.0909 Uani
H31 H 0.165304 0.703920 0.077655 0.1360 Uiso
H32 H 0.176866 0.799475 0.194598 0.1360 Uiso
H33 H 0.130458 0.655534 0.187450 0.1360 Uiso
C1 C 0.9790(9) 0.1201(8) 0.4966(9) 0.0419 Uani
C4 C 0.9633(8) 0.2524(8) 0.4981(9) 0.0417 Uani
C15 C 0.8744(14) 0.2803(18) 0.8613(17) 0.0909 Uani
H8 H 0.834696 0.296080 0.922345 0.1360 Uiso
H9 H 0.823134 0.200525 0.805402 0.1360 Uiso
H10 H 0.869542 0.344466 0.812550 0.1360 Uiso
O2 O 0.9902(7) 0.3205(6) 0.6046(7) 0.0447 Uani
O4 O 0.9281(7) 0.2860(6) 0.3924(6) 0.0464 Uani
C22 C 0.9759(10) 0.0454(9) 0.3864(9) 0.0435 Uani
O14 O 0.9553(11) 0.0806(8) 0.2736(8) 0.0695 Uani
H22 H 0.952469 0.153864 0.280946 0.1050 Uiso
C21 C 0.9982(11) 0.9269(10) 0.3926(9) 0.0490 Uani
H21 H 0.997914 0.878065 0.321273 0.0590 Uiso
C31 C 0.9499(18) 0.8219(15) 0.0093(17) 0.0833 Uani
H29 H 0.993538 0.899688 0.070287 0.1250 Uiso
C32 C 0.6888(13) 0.6696(12) 0.2810(13) 0.0813 Uani
H30 H 0.756043 0.716336 0.358856 0.0980 Uiso
C34 C 0.8823(13) 0.6297(15) 0.0688(13) 0.0652 Uani
H34 H 0.790572 0.631393 0.024034 0.0790 Uiso
C35 C 0.564(3) 0.820(2) 0.304(3) 0.1596 Uani
H35 H 0.476195 0.836850 0.256905 0.2390 Uiso
H36 H 0.638812 0.890014 0.315117 0.2390 Uiso
H37 H 0.567104 0.806262 0.385266 0.2390 Uiso
C36 C 0.466(2) 0.636(2) 0.112(2) 0.1375 Uani
H38 H 0.391363 0.676397 0.089388 0.2080 Uiso
H39 H 0.432135 0.552985 0.120292 0.2080 Uiso
H40 H 0.502125 0.633390 0.046686 0.2080 Uiso
N3 N 0.9797(10) 0.7200(10) 0.0722(9) 0.0611 Uani
N4 N 0.5766(13) 0.7067(14) 0.2319(15) 0.0964 Uani
O21 O 0.9021(9) 0.5379(9) 0.1223(8) 0.0649 Uani
O22 O 0.7130(8) 0.5775(8) 0.2325(9) 0.0689 Uani
H3 H 0.014475 0.177563 0.056105 0.1250 Uiso
H4 H 0.149168 0.188760 0.027967 0.1250 Uiso
H27 H 0.985525 0.822437 0.943895 0.1250 Uiso
H28 H 0.850832 0.811240 0.972033 0.1250 Uiso
loop_
_atom_site_aniso_label
_atom_site_aniso_U_11
_atom_site_aniso_U_22
_atom_site_aniso_U_33
_atom_site_aniso_U_23
_atom_site_aniso_U_13
_atom_site_aniso_U_12
Tb4 0.0249 0.0255 0.0429 -0.0009 0.0013 0.00525
C27 0.03 0.025 0.047 -0.004 0 0.007
C28 0.03 0.036 0.054 -0.01 0.003 0.001
C29 0.032 0.05 0.081 -0.012 0.016 0
C30 0.035 0.047 0.091 -0.027 0.015 0.003
O18 0.048 0.074 0.163 -0.062 0.041 -0.008
O19 0.037 0.037 0.049 -0.002 0.006 0.001
O20 0.032 0.04 0.073 -0.018 0.007 0.001
Tb7 0.0249 0.0255 0.0429 -0.0009 0.0013 0.00525
C2 0.03 0.04 0.057 0.003 0.013 0.011
C3 0.025 0.049 0.048 0.002 0.004 0.012
C5 0.036 0.073 0.05 -0.01 0.015 0.016
C6 0.033 0.071 0.045 -0.011 0.003 0.015
C7 0.03 0.025 0.047 -0.004 0 0.007
C8 0.063 0.034 0.043 0.001 0.012 0.019
C10 0.093 0.067 0.099 0.037 0.036 0.033
C11 0.03 0.036 0.054 -0.01 0.003 0.001
C12 0.032 0.05 0.081 -0.012 0.016 0
C13 0.058 0.065 0.101 0.003 0.009 0.025
C14 0.035 0.047 0.091 -0.027 0.015 0.003
C16 0.058 0.065 0.057 0.009 0.007 0.015
C17 0.158 0.145 0.178 0.012 0.054 0.082
C18 0.09 0.15 0.132 0.031 -0.014 0.054
N1 0.059 0.06 0.059 0.015 0.017 0.015
N2 0.07 0.087 0.129 0.03 0.021 0.045
O1 0.048 0.074 0.163 -0.062 0.041 -0.008
O3 0.034 0.047 0.068 0.001 0.018 0.012
O5 0.081 0.055 0.055 0.015 0.021 0.019
O6 0.027 0.058 0.054 0.006 0.007 0.014
O7 0.037 0.037 0.049 -0.002 0.006 0.001
O8 0.032 0.04 0.073 -0.018 0.007 0.001
O10 0.045 0.06 0.092 0.016 0.011 0.024
O11 0.033 0.141 0.049 -0.016 0.006 0.02
C23 0.03 0.04 0.057 0.003 0.013 0.011
C24 0.025 0.049 0.048 0.002 0.004 0.012
C25 0.036 0.073 0.05 -0.01 0.015 0.016
C26 0.033 0.071 0.045 -0.011 0.003 0.015
O15 0.034 0.047 0.068 0.001 0.018 0.012
O16 0.027 0.058 0.054 0.006 0.007 0.014
O17 0.033 0.141 0.049 -0.016 0.006 0.02
O25 0.051 0.03 0.046 0.007 0.004 0.014
C9 0.056 0.033 0.038 0.011 0.012 0.015
O9 0.108 0.048 0.057 0.012 0.029 0.037
C19 0.042 0.025 0.051 0.003 0.01 0.011
C20 0.032 0.025 0.053 -0.001 0.006 0.001
O12 0.043 0.025 0.054 0 0.009 0.007
C33 0.057 0.104 0.107 0.044 0.022 0.018
C1 0.042 0.025 0.051 0.003 0.01 0.011
C4 0.032 0.025 0.053 -0.001 0.006 0.001
C15 0.057 0.104 0.107 0.044 0.022 0.018
O2 0.043 0.025 0.054 0 0.009 0.007
O4 0.051 0.03 0.046 0.007 0.004 0.014
C22 0.056 0.033 0.038 0.011 0.012 0.015
O14 0.108 0.048 0.057 0.012 0.029 0.037
C21 0.063 0.034 0.043 0.001 0.012 0.019
C31 0.093 0.067 0.099 0.037 0.036 0.033
C32 0.058 0.065 0.101 0.003 0.009 0.025
C34 0.058 0.065 0.057 0.009 0.007 0.015
C35 0.158 0.145 0.178 0.012 0.054 0.082
C36 0.09 0.15 0.132 0.031 -0.014 0.054
N3 0.059 0.06 0.059 0.015 0.017 0.015
N4 0.07 0.087 0.129 0.03 0.021 0.045
O21 0.081 0.055 0.055 0.015 0.021 0.019
O22 0.045 0.06 0.092 0.016 0.011 0.024
loop_
_geom_bond_atom_site_label_1
_geom_bond_atom_site_label_2
_geom_bond_site_symmetry_1
_geom_bond_site_symmetry_2
C27 C28 1_555 1_555
C28 C29 1_555 1_555
H25 C29 1_555 1_555
O18 C30 1_555 1_555
H26 O18 1_555 1_555
O19 C27 1_555 1_555
O20 C27 1_555 1_555
Tb7 O19 1_555 1_555
C28 C30 1_555 1_555
O20 Tb7 1_555 1_555
C2 C3 1_555 1_555
C3 C5 1_555 1_555
C5 H1 1_555 1_555
C6 C5 1_555 1_555
C7 C11 1_555 1_555
H2 C8 1_555 1_555
H5 C10 1_555 1_555
C11 C12 1_555 1_555
C12 H6 1_555 1_555
C13 H7 1_555 1_555
C14 C11 1_555 1_555
C16 H11 1_555 1_555
C17 H12 1_555 1_555
H13 C17 1_555 1_555
H14 C17 1_555 1_555
C18 H15 1_555 1_555
H16 C18 1_555 1_555
H17 C18 1_555 1_555
N1 C10 1_555 1_555
N2 C13 1_555 1_555
O1 C14 1_555 1_555
H18 O1 1_555 1_555
O3 C2 1_555 1_555
O5 C16 1_555 1_555
O6 C2 1_555 1_555
O7 C7 1_555 1_555
O8 C7 1_555 1_555
O10 C13 1_555 1_555
O11 C6 1_555 1_555
H20 O11 1_555 1_555
Tb4 O3 1_555 1_555
C23 C24 1_555 1_555
C24 C6 1_555 1_555
C25 C24 1_555 1_555
H23 C25 1_555 1_555
C26 C3 1_555 1_555
O15 C23 1_555 1_555
O16 C23 1_555 1_555
O17 C26 1_555 1_555
H24 O17 1_555 1_555
O25 Tb4 1_555 1_555
Tb7 O15 1_555 1_555
C16 N1 1_555 1_555
C17 N2 1_555 1_555
C18 N2 1_555 1_555
O5 Tb4 1_555 1_555
O7 Tb4 1_555 1_555
O8 Tb4 1_555 1_555
O10 Tb4 1_555 1_555
C25 C26 1_555 1_555
O9 C9 1_555 1_555
H19 O9 1_555 1_555
C19 C9 1_555 1_555
C20 C19 1_555 1_555
O12 C20 1_555 1_555
O25 C20 1_555 1_555
C33 H31 1_555 1_555
H32 C33 1_555 1_555
H33 C33 1_555 1_555
C1 C4 1_555 1_555
C4 O2 1_555 1_555
C15 H8 1_555 1_555
H9 C15 1_555 1_555
H10 C15 1_555 1_555
O4 C4 1_555 1_555
C22 C1 1_555 1_555
O14 C22 1_555 1_555
H22 O14 1_555 1_555
Tb7 O4 1_555 1_555
H21 C21 1_555 1_555
H29 C31 1_555 1_555
C32 H30 1_555 1_555
C34 H34 1_555 1_555
C35 H35 1_555 1_555
H36 C35 1_555 1_555
H37 C35 1_555 1_555
C36 H38 1_555 1_555
H39 C36 1_555 1_555
H40 C36 1_555 1_555
N3 C31 1_555 1_555
N4 C32 1_555 1_555
O21 C34 1_555 1_555
O22 C32 1_555 1_555
C34 N3 1_555 1_555
C35 N4 1_555 1_555
C36 N4 1_555 1_555
O21 Tb7 1_555 1_555
O22 Tb7 1_555 1_555

#END
