
###############################################################################
#
# This file contains modified crystal structure data generated from the
# MOF subset of the Cambridge Structural Database (CSD) v543 
# hosted by the Cambridge Crystallographic Data Centre (CCDC).
#
# This work is licensed under the Creative Commons
# Attribution-NonCommercial-ShareAlike 4.0 International License.
# To view a copy of this license, visit
# http://creativecommons.org/licenses/by-nc-sa/4.0/
# or send a letter to
# Creative Commons, PO Box 1866, Mountain View, CA 94042, USA.
#
# CIF created using the CSD Python API on 29 September 2022
# The structure has been converted into the P1 space group
# The structure has a 3D framework
# The original CSD entry CARFEJ is in the monoclinic crystal system
# The original CSD entry CARFEJ is in a Sohncke space group
# The framework has been calculated to contain at least 10.0% void space
# The void calculation uses a probe of radius 1.32A, grid spacing 0.4
# The framework is charged, counterions have been retained in the structure
#
###############################################################################

data_CARFEJ
_chemical_formula_moiety         '(C30 H44 Cu2 N8 O40 Sm4)n'
_symmetry_cell_setting           triclinic
_symmetry_space_group_name_H-M   'P 1'
_symmetry_Int_Tables_number      1
_space_group_name_Hall           'P 1'
loop_
_symmetry_equiv_pos_site_id
_symmetry_equiv_pos_as_xyz
1 x,y,z
_cell_length_a                   10.0987(7)
_cell_length_b                   16.7006(11)
_cell_length_c                   11.3692(8)
_cell_angle_alpha                90
_cell_angle_beta                 116.3650(10)
_cell_angle_gamma                90
_cell_volume                     1718.02
loop_
_atom_site_label
_atom_site_type_symbol
_atom_site_fract_x
_atom_site_fract_y
_atom_site_fract_z
O5 O 0.3519(5) 0.7679(4) 0.0121(4)
O8 O 0.5926(5) 0.7782(4) 0.1453(4)
O10 O 0.1618(5) 0.6993(3) 0.5812(5)
O12 O 0.0424(5) 0.7032(3) 0.3616(5)
C2 C 0.0242(7) 0.7113(4) 0.0019(7)
C3 C 0.4859(6) 0.7658(5) 0.0371(5)
C5 C 0.0603(6) 0.7229(4) 0.4741(6)
Sm3 Sm 0.15887(3) 0.738625(17) 0.78856(3)
Sm4 Sm 0.85017(3) 0.769887(19) 0.16850(3)
O25 O 0.0748(5) 0.8625(3) 0.2893(6)
O3 O 0.0118(6) 0.8214(3) 0.8631(6)
O4 O 0.0881(6) 0.6710(3) 0.9505(5)
O6 O 0.4139(5) 0.7309(3) 0.8126(4)
O7 O 0.6569(5) 0.7436(4) 0.9468(4)
O14 O 0.2297(5) 0.5933(3) 0.8180(5)
O15 O 0.2228(5) 0.4132(3) 0.8509(5)
O18 O 0.2345(7) 0.8747(4) 0.7632(7)
H1 H 0.1716 0.9113 0.7412
H2 H 0.3121 0.9010 0.8070
C4 C 0.5235(7) 0.7452(4) 0.9222(6)
C8 C 0.1215(8) 0.5464(4) 0.7746(7)
C9 C 0.1177(7) 0.4615(4) 0.7893(7)
Sm5 Sm 0.14983(3) 0.269887(19) 0.83150(3)
O1 O 0.9196(6) 0.8389(3) 0.0082(5)
O2 O 0.9936(7) 0.6885(3) 0.0920(6)
O9 O 0.9671(5) 0.8038(3) 0.5946(5)
O11 O 0.8461(5) 0.8061(3) 0.3764(4)
O19 O 0.7700(7) 0.6343(3) 0.1877(6)
H3 H 0.8136 0.6009 0.2204
H4 H 0.6819 0.6124 0.1423
C6 C 0.9482(6) 0.7832(4) 0.4829(6)
O24 O 0.7772(5) 0.9132(3) 0.1491(5)
O13 O 0.9355(5) 0.6461(3) 0.6693(6)
O16 O 0.9252(5) 0.3625(3) 0.7107(6)
O17 O 0.7358(6) 0.5056(6) 0.5968(10)
C1 C 0.9815(7) 0.7982(4) 0.9519(7)
C7 C 0.9703(8) 0.5743(4) 0.6965(8)
C10 C 0.9643(8) 0.4350(4) 0.7180(7)
C11 C 0.8693(7) 0.5040(6) 0.6600(9)
O13_2 O 0.0645(5) 0.1461(3) 0.3307(6)
O17_2 O 0.2642(6) 0.0056(6) 0.4032(10)
C1_2 C 0.0185(7) 0.2982(4) 0.0481(7)
C7_2 C 0.0297(8) 0.0743(4) 0.3035(8)
C11_2 C 0.1307(7) 0.0040(6) 0.3400(9)
O20 O 0.3431(5) 0.2436(4) 0.0532(4)
O22 O 0.0329(5) 0.3038(3) 0.4054(5)
O1_2 O 0.0804(6) 0.3389(3) 0.9918(5)
O2_2 O 0.0064(7) 0.1885(3) 0.9080(6)
O11_2 O 0.1539(5) 0.3061(3) 0.6236(4)
O19_2 O 0.2300(7) 0.1343(3) 0.8123(6)
H3_2 H 0.1864 0.1009 0.7796
H4_2 H 0.3181 0.1124 0.8577
C6_2 C 0.0518(6) 0.2832(4) 0.5171(6)
O21 O 0.4074(5) 0.2782(4) 0.8547(4)
C10_2 C 0.0357(8) 0.9350(4) 0.2820(7)
Sm1 Sm 0.84113(3) 0.238625(17) 0.21144(3)
O3_2 O 0.9882(6) 0.3214(3) 0.1369(6)
O4_2 O 0.9119(6) 0.1710(3) 0.0495(5)
O6_2 O 0.5861(5) 0.2309(3) 0.1874(4)
O14_2 O 0.7703(5) 0.0933(3) 0.1820(5)
O18_2 O 0.7655(7) 0.3747(4) 0.2368(7)
H1_2 H 0.8284 0.4113 0.2588
H2_2 H 0.6879 0.4010 0.1930
C4_2 C 0.4765(7) 0.2452(4) 0.0778(6)
C8_2 C 0.8785(8) 0.0464(4) 0.2254(7)
O23 O 0.8382(5) 0.1993(3) 0.4188(5)
O5_2 O 0.6481(5) 0.2679(4) 0.9879(4)
O12_2 O 0.9576(5) 0.2032(3) 0.6384(5)
C2_2 C 0.9758(7) 0.2113(4) 0.9981(7)
C3_2 C 0.5141(6) 0.2658(5) 0.9629(5)
C5_2 C 0.9397(6) 0.2229(4) 0.5259(6)
C9_2 C 0.8823(7) 0.9615(4) 0.2107(7)
Cu1 Cu 0.50164(10) 0.74116(8) 0.47170(11)
N1 N 0.6122(9) 0.6724(6) 0.3996(9)
H5 H 0.6479 0.7041 0.3539
H6 H 0.6917 0.6492 0.4681
N2 N 0.338(2) 0.6580(11) 0.3851(19)
H7 H 0.3431 0.6183 0.4429
H8 H 0.2461 0.6810 0.3497
N3 N 0.3903(8) 0.8134(5) 0.5395(9)
H9 H 0.3053 0.8318 0.4706
H10 H 0.3642 0.7854 0.5957
N4 N 0.6772(18) 0.7948(12) 0.6001(19)
H11 H 0.7473 0.7575 0.6485
H12 H 0.7164 0.8272 0.5580
C12 C 0.5190(13) 0.6099(7) 0.3131(15)
H13 H 0.5392 0.6051 0.2358
H14 H 0.5435 0.5580 0.3602
C13 C 0.380(2) 0.6253(12) 0.274(2)
H15 H 0.3231 0.5757 0.2369
H16 H 0.3490 0.6654 0.2027
C14 C 0.4824(12) 0.8788(8) 0.6063(14)
H17 H 0.4445 0.9059 0.6627
H18 H 0.4857 0.9183 0.5426
C15 C 0.636(2) 0.8445(18) 0.689(3)
H19 H 0.7081 0.8884 0.7292
H20 H 0.6351 0.8109 0.7609
O26 O 0.5532(16) 0.6460(9) 0.6548(15)
H21 H 0.6380 0.6761 0.6917
H22 H 0.5306 0.6429 0.7181
Cu1_2 Cu 0.49836(10) 0.24116(8) 0.52830(11)
N1_2 N 0.3878(9) 0.1724(6) 0.6004(9)
H5_2 H 0.3521 0.2041 0.6461
H6_2 H 0.3083 0.1492 0.5319
N2_2 N 0.662(2) 0.1580(11) 0.6149(19)
H7_2 H 0.6569 0.1183 0.5571
H8_2 H 0.7539 0.1810 0.6503
N3_2 N 0.6097(8) 0.3134(5) 0.4605(9)
H9_2 H 0.6947 0.3318 0.5294
H10_2 H 0.6358 0.2854 0.4043
N4_2 N 0.3228(18) 0.2948(12) 0.3999(19)
H11_2 H 0.2527 0.2575 0.3515
H12_2 H 0.2836 0.3272 0.4420
C12_2 C 0.4810(13) 0.1099(7) 0.6869(15)
H13_2 H 0.4608 0.1051 0.7642
H14_2 H 0.4565 0.0580 0.6398
C13_2 C 0.620(2) 0.1253(12) 0.726(2)
H15_2 H 0.6769 0.0757 0.7631
H16_2 H 0.6510 0.1654 0.7973
C14_2 C 0.5176(12) 0.3788(8) 0.3937(14)
H17_2 H 0.5555 0.4059 0.3373
H18_2 H 0.5143 0.4183 0.4574
C15_2 C 0.364(2) 0.3445(18) 0.311(3)
H19_2 H 0.2919 0.3884 0.2708
H20_2 H 0.3649 0.3109 0.2391
O26_2 O 0.4468(16) 0.1460(9) 0.3452(15)
H21_2 H 0.3620 0.1761 0.3083
H22_2 H 0.4694 0.1429 0.2819
loop_
_geom_bond_atom_site_label_1
_geom_bond_atom_site_label_2
_geom_bond_site_symmetry_1
_geom_bond_site_symmetry_2
O8 C3 1_555 1_555
O10 C5 1_555 1_555
C3 O5 1_555 1_555
C5 O12 1_555 1_555
O8 Sm4 1_555 1_555
O10 Sm3 1_555 1_555
Sm3 O3 1_555 1_555
O4 Sm3 1_555 1_555
O6 Sm3 1_555 1_555
O7 C4 1_555 1_555
O14 Sm3 1_555 1_555
O15 C9 1_555 1_555
O18 Sm3 1_555 1_555
H1 O18 1_555 1_555
H2 O18 1_555 1_555
C4 O6 1_555 1_555
C8 O14 1_555 1_555
C9 C8 1_555 1_555
Sm5 O15 1_555 1_555
Sm4 O1 1_555 1_555
O2 Sm4 1_555 1_555
O9 C6 1_555 1_555
O11 Sm4 1_555 1_555
O19 Sm4 1_555 1_555
H3 O19 1_555 1_555
H4 O19 1_555 1_555
C6 O11 1_555 1_555
O24 Sm4 1_555 1_555
O16 C10 1_555 1_555
O17 C11 1_555 1_555
C7 O13 1_555 1_555
C11 C7 1_555 1_555
C10 C11 1_555 1_555
O17_2 C11_2 1_555 1_555
C7_2 O13_2 1_555 1_555
C11_2 C7_2 1_555 1_555
Sm5 O1_2 1_555 1_555
O2_2 Sm5 1_555 1_555
O22 C6_2 1_555 1_555
O11_2 Sm5 1_555 1_555
O19_2 Sm5 1_555 1_555
H3_2 O19_2 1_555 1_555
H4_2 O19_2 1_555 1_555
C6_2 O11_2 1_555 1_555
O21 Sm5 1_555 1_555
O25 C10_2 1_555 1_555
Sm1 O3_2 1_555 1_555
O4_2 Sm1 1_555 1_555
O6_2 Sm1 1_555 1_555
O20 C4_2 1_555 1_555
O14_2 Sm1 1_555 1_555
O18_2 Sm1 1_555 1_555
H1_2 O18_2 1_555 1_555
H2_2 O18_2 1_555 1_555
C4_2 O6_2 1_555 1_555
C8_2 O14_2 1_555 1_555
O23 Sm1 1_555 1_555
O21 C3_2 1_555 1_555
O23 C5_2 1_555 1_555
C3_2 O5_2 1_555 1_555
C5_2 O12_2 1_555 1_555
O24 C9_2 1_555 1_555
Cu1 N1 1_555 1_555
N1 H5 1_555 1_555
H6 N1 1_555 1_555
N2 Cu1 1_555 1_555
H7 N2 1_555 1_555
H8 N2 1_555 1_555
N3 Cu1 1_555 1_555
H9 N3 1_555 1_555
H10 N3 1_555 1_555
N4 Cu1 1_555 1_555
H11 N4 1_555 1_555
H12 N4 1_555 1_555
C12 N1 1_555 1_555
H13 C12 1_555 1_555
H14 C12 1_555 1_555
C13 N2 1_555 1_555
H15 C13 1_555 1_555
H16 C13 1_555 1_555
C14 N3 1_555 1_555
H17 C14 1_555 1_555
H18 C14 1_555 1_555
C15 N4 1_555 1_555
H19 C15 1_555 1_555
H20 C15 1_555 1_555
O26 Cu1 1_555 1_555
H21 O26 1_555 1_555
H22 O26 1_555 1_555
C12 C13 1_555 1_555
C14 C15 1_555 1_555
Cu1_2 N1_2 1_555 1_555
N1_2 H5_2 1_555 1_555
H6_2 N1_2 1_555 1_555
N2_2 Cu1_2 1_555 1_555
H7_2 N2_2 1_555 1_555
H8_2 N2_2 1_555 1_555
N3_2 Cu1_2 1_555 1_555
H9_2 N3_2 1_555 1_555
H10_2 N3_2 1_555 1_555
N4_2 Cu1_2 1_555 1_555
H11_2 N4_2 1_555 1_555
H12_2 N4_2 1_555 1_555
C12_2 N1_2 1_555 1_555
H13_2 C12_2 1_555 1_555
H14_2 C12_2 1_555 1_555
C13_2 N2_2 1_555 1_555
H15_2 C13_2 1_555 1_555
H16_2 C13_2 1_555 1_555
C14_2 N3_2 1_555 1_555
H17_2 C14_2 1_555 1_555
H18_2 C14_2 1_555 1_555
C15_2 N4_2 1_555 1_555
H19_2 C15_2 1_555 1_555
H20_2 C15_2 1_555 1_555
O26_2 Cu1_2 1_555 1_555
H21_2 O26_2 1_555 1_555
H22_2 O26_2 1_555 1_555
C12_2 C13_2 1_555 1_555
C14_2 C15_2 1_555 1_555

#END
