
###############################################################################
#
# This file contains modified crystal structure data generated from the
# MOF subset of the Cambridge Structural Database (CSD) v543 
# hosted by the Cambridge Crystallographic Data Centre (CCDC).
#
# This work is licensed under the Creative Commons
# Attribution-NonCommercial-ShareAlike 4.0 International License.
# To view a copy of this license, visit
# http://creativecommons.org/licenses/by-nc-sa/4.0/
# or send a letter to
# Creative Commons, PO Box 1866, Mountain View, CA 94042, USA.
#
# CIF created using the CSD Python API on 29 September 2022
# The structure has been converted into the P1 space group
# The structure has a 3D framework
# The original CSD entry CARGUA is in the monoclinic crystal system
# The framework has been calculated to contain at least 10.0% void space
# The void calculation uses a probe of radius 1.32A, grid spacing 0.4
# H atom positions have been added when not included in the experimental data
#
###############################################################################

data_CARGUA
_chemical_formula_moiety         '(C119 H79 N28 Ni7 O36)n'
_symmetry_cell_setting           triclinic
_symmetry_space_group_name_H-M   'P 1'
_symmetry_Int_Tables_number      1
_space_group_name_Hall           'P 1'
loop_
_symmetry_equiv_pos_site_id
_symmetry_equiv_pos_as_xyz
1 x,y,z
_cell_length_a                   16.384(3)
_cell_length_b                   28.376(6)
_cell_length_c                   13.079(3)
_cell_angle_alpha                90
_cell_angle_beta                 95.57(3)
_cell_angle_gamma                90
_cell_volume                     6051.88
loop_
_atom_site_label
_atom_site_type_symbol
_atom_site_fract_x
_atom_site_fract_y
_atom_site_fract_z
Ni7 Ni 0.02179(16) 0.16060(9) 0.5122(3)
Ni9 Ni 0.02179(16) 0.83940(9) 0.5122(3)
N6 N 0.4938(16) -0.0000 0.362(2)
C31 C 0.481(4) -0.0000 0.142(4)
N8 N 0.482(3) -0.0000 0.033(4)
C37 C 0.4870(14) 0.0376(10) 0.303(2)
H21 H 0.4887 0.0672 0.3370
C38 C 0.478(2) 0.0385(12) 0.201(2)
H22 H 0.4688 0.0681 0.1674
N11 N 0.493(2) 0.3402(13) 0.031(2)
N12 N 0.5087(13) 0.3383(6) 0.3552(13)
C53 C 0.5700(12) 0.3186(7) 0.3024(19)
H30 H 0.6155 0.3034 0.3392
C54 C 0.5647(17) 0.3211(9) 0.196(2)
H31 H 0.6066 0.3076 0.1598
C55 C 0.498(2) 0.3433(9) 0.1421(13)
C56 C 0.4368(15) 0.3630(9) 0.1949(19)
H32 H 0.3913 0.3781 0.1581
C57 C 0.4421(12) 0.3605(7) 0.301(2)
H33 H 0.4003 0.3739 0.3375
Ni5 Ni 0.52179(16) 0.33940(9) 0.5122(3)
Ni10 Ni 0.50204(18) -0.0000 0.5120(3)
C10 C 0.3549(11) -0.0000 0.5146(16)
C11 C 0.2676(11) -0.0000 0.5178(15)
C14 C 0.1000(14) -0.0000 0.5153(16)
H5 H 0.0423 -0.0000 0.5181
N5 N 0.5117(16) -0.0000 0.651(3)
C28 C 0.529(4) -0.0000 0.875(4)
N7 N 0.547(3) -0.0000 0.982(4)
O10 O 0.3942(7) 0.0374(4) 0.5189(11)
O11 O 0.1339(8) 0.1230(4) 0.5129(12)
O12 O 0.0192(9) 0.0864(4) 0.5153(14)
C32 C 0.2263(9) 0.0399(5) 0.5191(11)
H18 H 0.2567 0.0685 0.5241
C33 C 0.1375(10) 0.0430(5) 0.5135(12)
C34 C 0.0955(10) 0.0872(6) 0.5146(14)
C35 C 0.5144(15) 0.0360(11) 0.715(3)
H19 H 0.5121 0.0658 0.6822
C36 C 0.520(2) 0.0386(12) 0.816(3)
H20 H 0.5172 0.0685 0.8482
O13 O 0.5728(7) 0.2783(4) 0.5072(12)
O14 O 0.4811(10) 0.2192(7) 0.5128(18)
O15 O 0.5695(8) 0.0575(5) 0.5108(11)
O16 O 0.7012(11) 0.0390(6) 0.518(2)
O17 O 0.8989(9) 0.1653(5) 0.5147(13)
O18 O 0.8635(10) 0.2391(6) 0.514(2)
C39 C 0.6192(6) 0.2007(3) 0.5088(8)
C40 C 0.5990(5) 0.1531(3) 0.5092(8)
H23 H 0.5433 0.1437 0.5086
C41 C 0.6604(7) 0.1192(3) 0.5103(9)
C42 C 0.7419(6) 0.1329(3) 0.5112(9)
H24 H 0.7838 0.1097 0.5120
C43 C 0.7621(5) 0.1805(4) 0.5108(9)
C44 C 0.7007(6) 0.2144(3) 0.5097(9)
H25 H 0.7145 0.2469 0.5095
C45 C 0.5587(17) 0.2361(9) 0.5094(16)
C46 C 0.6405(17) 0.0715(7) 0.5124(16)
C47 C 0.8489(12) 0.1966(7) 0.5125(19)
N9 N 0.5367(12) 0.3404(5) 0.6656(13)
C48 C 0.6009(12) 0.3174(7) 0.722(2)
H26 H 0.6410 0.3011 0.6884
C49 C 0.6065(16) 0.3185(9) 0.829(2)
H27 H 0.6504 0.3028 0.8680
C50 C 0.548(2) 0.3424(10) 0.8790(13)
C51 C 0.4836(17) 0.3653(9) 0.8221(18)
H28 H 0.4434 0.3817 0.8562
C52 C 0.4780(12) 0.3643(7) 0.7154(18)
H29 H 0.4341 0.3800 0.6765
N10 N 0.562(2) 0.3353(13) 0.991(2)
O19 O 0.3989(9) 0.3347(5) 0.5147(13)
O21 O 0.6339(8) 0.3770(4) 0.5129(12)
O23 O 0.5192(9) 0.4136(4) 0.5153(14)
H36 H 0.892876 0.247569 0.453656
N3 N 0.493(2) 0.6598(13) 0.031(2)
N4 N 0.5087(13) 0.6617(6) 0.3552(13)
C21 C 0.5700(12) 0.6814(7) 0.3024(19)
H10 H 0.6155 0.6966 0.3392
C22 C 0.5647(17) 0.6789(9) 0.196(2)
H11 H 0.6066 0.6924 0.1598
C23 C 0.498(2) 0.6567(9) 0.1421(13)
C24 C 0.4368(15) 0.6370(9) 0.1949(19)
H12 H 0.3913 0.6219 0.1581
C25 C 0.4421(12) 0.6395(7) 0.301(2)
H13 H 0.4003 0.6261 0.3375
N6_2 N 0.4938(16) 1.0000 0.362(2)
C29 C 0.4870(14) 0.9624(10) 0.303(2)
H16 H 0.4887 0.9328 0.3370
C30 C 0.478(2) 0.9615(12) 0.201(2)
H17 H 0.4688 0.9319 0.1674
C31_2 C 0.481(4) 1.0000 0.142(4)
N8_2 N 0.482(3) 1.0000 0.033(4)
Ni4 Ni 0.52179(16) 0.66060(9) 0.5122(3)
Ni10_2 Ni 0.50204(18) 1.0000 0.5120(3)
O1 O 0.5728(7) 0.7217(4) 0.5072(12)
O2 O 0.4811(10) 0.7808(7) 0.5128(18)
O3 O 0.5695(8) 0.9425(5) 0.5108(11)
O4 O 0.7012(11) 0.9610(6) 0.518(2)
O5 O 0.8989(9) 0.8347(5) 0.5147(13)
O6 O 0.8635(10) 0.7609(6) 0.514(2)
C1 C 0.6192(6) 0.7993(3) 0.5088(8)
C2 C 0.5990(5) 0.8469(3) 0.5092(8)
H1 H 0.5433 0.8563 0.5086
C3 C 0.6604(7) 0.8808(3) 0.5103(9)
C4 C 0.7419(6) 0.8671(3) 0.5112(9)
H2 H 0.7838 0.8903 0.5120
C5 C 0.7621(5) 0.8195(4) 0.5108(9)
C6 C 0.7007(6) 0.7856(3) 0.5097(9)
H3 H 0.7145 0.7531 0.5095
C7 C 0.5587(17) 0.7639(9) 0.5094(16)
C8 C 0.6405(17) 0.9285(7) 0.5124(16)
C9 C 0.8489(12) 0.8034(7) 0.5125(19)
O7 O 0.3942(7) 0.9626(4) 0.5189(11)
O8 O 0.1339(8) 0.8770(4) 0.5129(12)
O9 O 0.0192(9) 0.9136(4) 0.5153(14)
C10_2 C 0.3549(11) 1.0000 0.5146(16)
C11_2 C 0.2676(11) 1.0000 0.5178(15)
C12 C 0.2263(9) 0.9601(5) 0.5191(11)
H4 H 0.2567 0.9315 0.5241
C13 C 0.1375(10) 0.9570(5) 0.5135(12)
C14_2 C 0.1000(14) 1.0000 0.5153(16)
H5_2 H 0.0423 1.0000 0.5181
C15 C 0.0955(10) 0.9128(6) 0.5146(14)
N1 N 0.5367(12) 0.6596(5) 0.6656(13)
C16 C 0.6009(12) 0.6826(7) 0.722(2)
H6 H 0.6410 0.6989 0.6884
C17 C 0.6065(16) 0.6815(9) 0.829(2)
H7 H 0.6504 0.6972 0.8680
C18 C 0.548(2) 0.6576(10) 0.8790(13)
C19 C 0.4836(17) 0.6347(9) 0.8221(18)
H8 H 0.4434 0.6183 0.8562
C20 C 0.4780(12) 0.6357(7) 0.7154(18)
H9 H 0.4341 0.6200 0.6765
N2 N 0.562(2) 0.6647(13) 0.991(2)
N5_2 N 0.5117(16) 1.0000 0.651(3)
C26 C 0.5144(15) 0.9640(11) 0.715(3)
H14 H 0.5121 0.9342 0.6822
C27 C 0.520(2) 0.9614(12) 0.816(3)
H15 H 0.5172 0.9315 0.8482
C28_2 C 0.529(4) 1.0000 0.875(4)
N7_2 N 0.547(3) 1.0000 0.982(4)
O20 O 0.3989(9) 0.6653(5) 0.5147(13)
O22 O 0.6339(8) 0.6230(4) 0.5129(12)
O24 O 0.5192(9) 0.5864(4) 0.5153(14)
H34 H 0.898227 0.752867 0.578105
H35 H 0.458378 0.768934 0.575604
H34_2 H 0.898227 0.247133 0.578105
H35_2 H 0.458378 0.231066 0.575604
H36_2 H 0.892876 0.752431 0.453656
N4_2 N 0.0087(13) 0.1617(6) 0.3552(13)
C21_2 C 0.0700(12) 0.1814(7) 0.3024(19)
H10_2 H 0.1155 0.1966 0.3392
C22_2 C 0.0647(17) 0.1789(9) 0.196(2)
H11_2 H 0.1066 0.1924 0.1598
N12_2 N 0.0087(13) 0.8383(6) 0.3552(13)
C53_2 C 0.0700(12) 0.8186(7) 0.3024(19)
H30_2 H 0.1155 0.8034 0.3392
C54_2 C 0.0647(17) 0.8211(9) 0.196(2)
H31_2 H 0.1066 0.8076 0.1598
Ni10_3 Ni 0.00204(18) 0.5000 0.5120(3)
O1_2 O 0.0728(7) 0.2217(4) 0.5072(12)
O3_2 O 0.0695(8) 0.4425(5) 0.5108(11)
O4_2 O 0.2012(11) 0.4610(6) 0.518(2)
O6_2 O 0.3635(10) 0.2609(6) 0.514(2)
C1_2 C 0.1192(6) 0.2993(3) 0.5088(8)
C2_2 C 0.0990(5) 0.3469(3) 0.5092(8)
H1_2 H 0.0433 0.3563 0.5086
C3_2 C 0.1604(7) 0.3808(3) 0.5103(9)
C4_2 C 0.2419(6) 0.3671(3) 0.5112(9)
H2_2 H 0.2838 0.3903 0.5120
C5_2 C 0.2621(5) 0.3195(4) 0.5108(9)
C6_2 C 0.2007(6) 0.2856(3) 0.5097(9)
H3_2 H 0.2145 0.2531 0.5095
C7_2 C 0.0587(17) 0.2639(9) 0.5094(16)
C8_2 C 0.1405(17) 0.4285(7) 0.5124(16)
C9_2 C 0.3489(12) 0.3034(7) 0.5125(19)
N1_2 N 0.0367(12) 0.1596(5) 0.6656(13)
C16_2 C 0.1009(12) 0.1826(7) 0.722(2)
H6_2 H 0.1410 0.1989 0.6884
C17_2 C 0.1065(16) 0.1815(9) 0.829(2)
H7_2 H 0.1504 0.1972 0.8680
C18_2 C 0.048(2) 0.1576(10) 0.8790(13)
N2_2 N 0.062(2) 0.1647(13) 0.991(2)
N5_3 N 0.0117(16) 0.5000 0.651(3)
C26_2 C 0.0144(15) 0.4640(11) 0.715(3)
H14_2 H 0.0121 0.4342 0.6822
C27_2 C 0.020(2) 0.4614(12) 0.816(3)
H15_2 H 0.0172 0.4315 0.8482
C28_3 C 0.029(4) 0.5000 0.875(4)
N7_3 N 0.047(3) 0.5000 0.982(4)
C35_2 C 0.0144(15) 0.5360(11) 0.715(3)
H19_2 H 0.0121 0.5658 0.6822
C36_2 C 0.020(2) 0.5386(12) 0.816(3)
H20_2 H 0.0172 0.5685 0.8482
O13_2 O 0.0728(7) 0.7783(4) 0.5072(12)
O15_2 O 0.0695(8) 0.5575(5) 0.5108(11)
O16_2 O 0.2012(11) 0.5390(6) 0.518(2)
O18_2 O 0.3635(10) 0.7391(6) 0.514(2)
C39_2 C 0.1192(6) 0.7007(3) 0.5088(8)
C40_2 C 0.0990(5) 0.6531(3) 0.5092(8)
H23_2 H 0.0433 0.6437 0.5086
C41_2 C 0.1604(7) 0.6192(3) 0.5103(9)
C42_2 C 0.2419(6) 0.6329(3) 0.5112(9)
H24_2 H 0.2838 0.6097 0.5120
C43_2 C 0.2621(5) 0.6805(4) 0.5108(9)
C44_2 C 0.2007(6) 0.7144(3) 0.5097(9)
H25_2 H 0.2145 0.7469 0.5095
C45_2 C 0.0587(17) 0.7361(9) 0.5094(16)
C46_2 C 0.1405(17) 0.5715(7) 0.5124(16)
C47_2 C 0.3489(12) 0.6966(7) 0.5125(19)
N9_2 N 0.0367(12) 0.8404(5) 0.6656(13)
C48_2 C 0.1009(12) 0.8174(7) 0.722(2)
H26_2 H 0.1410 0.8011 0.6884
C49_2 C 0.1065(16) 0.8185(9) 0.829(2)
H27_2 H 0.1504 0.8028 0.8680
C50_2 C 0.048(2) 0.8424(10) 0.8790(13)
N10_2 N 0.062(2) 0.8353(13) 0.991(2)
H34_3 H 0.398227 0.252867 0.578105
H36_3 H 0.392876 0.747569 0.453656
N3_2 N 0.993(2) 0.1598(13) 0.031(2)
C23_2 C 0.998(2) 0.1567(9) 0.1421(13)
C24_2 C 0.9368(15) 0.1370(9) 0.1949(19)
H12_2 H 0.8913 0.1219 0.1581
C25_2 C 0.9421(12) 0.1395(7) 0.301(2)
H13_2 H 0.9003 0.1261 0.3375
N6_3 N 0.9938(16) 0.5000 0.362(2)
C29_2 C 0.9870(14) 0.4624(10) 0.303(2)
H16_2 H 0.9887 0.4328 0.3370
C30_2 C 0.978(2) 0.4615(12) 0.201(2)
H17_2 H 0.9688 0.4319 0.1674
C31_3 C 0.981(4) 0.5000 0.142(4)
N8_3 N 0.982(3) 0.5000 0.033(4)
C37_2 C 0.9870(14) 0.5376(10) 0.303(2)
H21_2 H 0.9887 0.5672 0.3370
C38_2 C 0.978(2) 0.5385(12) 0.201(2)
H22_2 H 0.9688 0.5681 0.1674
N11_2 N 0.993(2) 0.8402(13) 0.031(2)
C55_2 C 0.998(2) 0.8433(9) 0.1421(13)
C56_2 C 0.9368(15) 0.8630(9) 0.1949(19)
H32_2 H 0.8913 0.8781 0.1581
C57_2 C 0.9421(12) 0.8605(7) 0.301(2)
H33_2 H 0.9003 0.8739 0.3375
O2_2 O 0.9811(10) 0.2808(7) 0.5128(18)
O7_2 O 0.8942(7) 0.4626(4) 0.5189(11)
C10_3 C 0.8549(11) 0.5000 0.5146(16)
C11_3 C 0.7676(11) 0.5000 0.5178(15)
C12_2 C 0.7263(9) 0.4601(5) 0.5191(11)
H4_2 H 0.7567 0.4315 0.5241
C13_2 C 0.6375(10) 0.4570(5) 0.5135(12)
C14_3 C 0.6000(14) 0.5000 0.5153(16)
H5_3 H 0.5423 0.5000 0.5181
C15_2 C 0.5955(10) 0.4128(6) 0.5146(14)
C19_2 C 0.9836(17) 0.1347(9) 0.8221(18)
H8_2 H 0.9434 0.1183 0.8562
C20_2 C 0.9780(12) 0.1357(7) 0.7154(18)
H9_2 H 0.9341 0.1200 0.6765
O10_2 O 0.8942(7) 0.5374(4) 0.5189(11)
C32_2 C 0.7263(9) 0.5399(5) 0.5191(11)
H18_2 H 0.7567 0.5685 0.5241
C33_2 C 0.6375(10) 0.5430(5) 0.5135(12)
C34_2 C 0.5955(10) 0.5872(6) 0.5146(14)
O14_2 O 0.9811(10) 0.7192(7) 0.5128(18)
C51_2 C 0.9836(17) 0.8653(9) 0.8221(18)
H28_2 H 0.9434 0.8817 0.8562
C52_2 C 0.9780(12) 0.8643(7) 0.7154(18)
H29_2 H 0.9341 0.8800 0.6765
H35_3 H 0.958378 0.268934 0.575604
H34_4 H 0.398227 0.747133 0.578105
H36_4 H 0.392876 0.252431 0.453656
H35_4 H 0.958378 0.731066 0.575604
loop_
_geom_bond_atom_site_label_1
_geom_bond_atom_site_label_2
_geom_bond_site_symmetry_1
_geom_bond_site_symmetry_2
N8 C31 1_555 1_555
C37 N6 1_555 1_555
H21 C37 1_555 1_555
C38 C31 1_555 1_555
H22 C38 1_555 1_555
N12 C53 1_555 1_555
C53 H30 1_555 1_555
C54 C53 1_555 1_555
H31 C54 1_555 1_555
C55 N11 1_555 1_555
C56 C55 1_555 1_555
H32 C56 1_555 1_555
C57 N12 1_555 1_555
H33 C57 1_555 1_555
Ni5 N12 1_555 1_555
Ni10 N6 1_555 1_555
C37 C38 1_555 1_555
C54 C55 1_555 1_555
C56 C57 1_555 1_555
C11 C10 1_555 1_555
H5 C14 1_555 1_555
N5 Ni10 1_555 1_555
N7 C28 1_555 1_555
O10 Ni10 1_555 1_555
O11 C34 1_555 1_555
O12 C34 1_555 1_555
C32 C11 1_555 1_555
H18 C32 1_555 1_555
C33 C14 1_555 1_555
C34 C33 1_555 1_555
C35 N5 1_555 1_555
H19 C35 1_555 1_555
C36 C28 1_555 1_555
H20 C36 1_555 1_555
Ni5 O13 1_555 1_555
O13 C45 1_555 1_555
O14 C45 1_555 1_555
O15 Ni10 1_555 1_555
O16 C46 1_555 1_555
O17 C47 1_555 1_555
O18 C47 1_555 1_555
C39 C40 1_555 1_555
C40 H23 1_555 1_555
C41 C40 1_555 1_555
C42 C41 1_555 1_555
H24 C42 1_555 1_555
C43 C42 1_555 1_555
C44 C39 1_555 1_555
H25 C44 1_555 1_555
C45 C39 1_555 1_555
C46 O15 1_555 1_555
C47 C43 1_555 1_555
N9 Ni5 1_555 1_555
C48 N9 1_555 1_555
H26 C48 1_555 1_555
C49 C48 1_555 1_555
H27 C49 1_555 1_555
C50 C49 1_555 1_555
C51 C50 1_555 1_555
H28 C51 1_555 1_555
C52 N9 1_555 1_555
H29 C52 1_555 1_555
N10 C50 1_555 1_555
Ni7 O11 1_555 1_555
O19 Ni5 1_555 1_555
O21 Ni5 1_555 1_555
O23 Ni5 1_555 1_555
C10 O10 1_555 1_555
O12 Ni7 1_555 1_555
C32 C33 1_555 1_555
C35 C36 1_555 1_555
C41 C46 1_555 1_555
C43 C44 1_555 1_555
C51 C52 1_555 1_555
O18 H36 1_555 1_555
N4 C21 1_555 1_555
C21 H10 1_555 1_555
C22 C21 1_555 1_555
H11 C22 1_555 1_555
C23 N3 1_555 1_555
C24 C23 1_555 1_555
H12 C24 1_555 1_555
C25 N4 1_555 1_555
H13 C25 1_555 1_555
N6_2 C29 1_555 1_555
C29 H16 1_555 1_555
C30 C29 1_555 1_555
H17 C30 1_555 1_555
C31_2 C30 1_555 1_555
N8_2 C31_2 1_555 1_555
Ni4 N4 1_555 1_555
Ni10_2 N6_2 1_555 1_555
C22 C23 1_555 1_555
C24 C25 1_555 1_555
Ni4 O1 1_555 1_555
Ni10_2 O3 1_555 1_555
O1 C7 1_555 1_555
O2 C7 1_555 1_555
O3 C8 1_555 1_555
O4 C8 1_555 1_555
O5 C9 1_555 1_555
O6 C9 1_555 1_555
C1 C2 1_555 1_555
C2 H1 1_555 1_555
C3 C2 1_555 1_555
C4 C3 1_555 1_555
H2 C4 1_555 1_555
C5 C4 1_555 1_555
C6 C1 1_555 1_555
H3 C6 1_555 1_555
C7 C1 1_555 1_555
C8 C3 1_555 1_555
C9 C5 1_555 1_555
O7 Ni10_2 1_555 1_555
O8 C15 1_555 1_555
O9 C15 1_555 1_555
C10_2 O7 1_555 1_555
C11_2 C10_2 1_555 1_555
C12 C11_2 1_555 1_555
H4 C12 1_555 1_555
C13 C12 1_555 1_555
C14_2 C13 1_555 1_555
H5_2 C14_2 1_555 1_555
C15 C13 1_555 1_555
N1 Ni4 1_555 1_555
C16 N1 1_555 1_555
H6 C16 1_555 1_555
C17 C16 1_555 1_555
H7 C17 1_555 1_555
C18 C17 1_555 1_555
C19 C18 1_555 1_555
H8 C19 1_555 1_555
C20 N1 1_555 1_555
H9 C20 1_555 1_555
N2 C18 1_555 1_555
N5_2 Ni10_2 1_555 1_555
C26 N5_2 1_555 1_555
H14 C26 1_555 1_555
C27 C26 1_555 1_555
H15 C27 1_555 1_555
C28_2 C27 1_555 1_555
N7_2 C28_2 1_555 1_555
Ni9 O8 1_555 1_555
O20 Ni4 1_555 1_555
O22 Ni4 1_555 1_555
O24 Ni4 1_555 1_555
C5 C6 1_555 1_555
O9 Ni9 1_555 1_555
C19 C20 1_555 1_555
O6 H34 1_555 1_555
O2 H35 1_555 1_555
O18 H34_2 1_555 1_555
O14 H35_2 1_555 1_555
O6 H36_2 1_555 1_555
N4_2 C21_2 1_555 1_555
C21_2 H10_2 1_555 1_555
C22_2 C21_2 1_555 1_555
H11_2 C22_2 1_555 1_555
N12_2 C53_2 1_555 1_555
C53_2 H30_2 1_555 1_555
C54_2 C53_2 1_555 1_555
H31_2 C54_2 1_555 1_555
Ni7 N4_2 1_555 1_555
Ni9 N12_2 1_555 1_555
Ni7 O1_2 1_555 1_555
Ni10_3 O3_2 1_555 1_555
O1_2 C7_2 1_555 1_555
O3_2 C8_2 1_555 1_555
O4_2 C8_2 1_555 1_555
O19 C9_2 1_555 1_555
O6_2 C9_2 1_555 1_555
C1_2 C2_2 1_555 1_555
C2_2 H1_2 1_555 1_555
C3_2 C2_2 1_555 1_555
C4_2 C3_2 1_555 1_555
H2_2 C4_2 1_555 1_555
C5_2 C4_2 1_555 1_555
C6_2 C1_2 1_555 1_555
H3_2 C6_2 1_555 1_555
C7_2 C1_2 1_555 1_555
C8_2 C3_2 1_555 1_555
C9_2 C5_2 1_555 1_555
N1_2 Ni7 1_555 1_555
C16_2 N1_2 1_555 1_555
H6_2 C16_2 1_555 1_555
C17_2 C16_2 1_555 1_555
H7_2 C17_2 1_555 1_555
C18_2 C17_2 1_555 1_555
N2_2 C18_2 1_555 1_555
N5_3 Ni10_3 1_555 1_555
C26_2 N5_3 1_555 1_555
H14_2 C26_2 1_555 1_555
C27_2 C26_2 1_555 1_555
H15_2 C27_2 1_555 1_555
C28_3 C27_2 1_555 1_555
N7_3 C28_3 1_555 1_555
C35_2 N5_3 1_555 1_555
H19_2 C35_2 1_555 1_555
C36_2 C28_3 1_555 1_555
H20_2 C36_2 1_555 1_555
Ni9 O13_2 1_555 1_555
O13_2 C45_2 1_555 1_555
O15_2 Ni10_3 1_555 1_555
O16_2 C46_2 1_555 1_555
O20 C47_2 1_555 1_555
O18_2 C47_2 1_555 1_555
C39_2 C40_2 1_555 1_555
C40_2 H23_2 1_555 1_555
C41_2 C40_2 1_555 1_555
C42_2 C41_2 1_555 1_555
H24_2 C42_2 1_555 1_555
C43_2 C42_2 1_555 1_555
C44_2 C39_2 1_555 1_555
H25_2 C44_2 1_555 1_555
C45_2 C39_2 1_555 1_555
C46_2 O15_2 1_555 1_555
C47_2 C43_2 1_555 1_555
N9_2 Ni9 1_555 1_555
C48_2 N9_2 1_555 1_555
H26_2 C48_2 1_555 1_555
C49_2 C48_2 1_555 1_555
H27_2 C49_2 1_555 1_555
C50_2 C49_2 1_555 1_555
N10_2 C50_2 1_555 1_555
C5_2 C6_2 1_555 1_555
C35_2 C36_2 1_555 1_555
C41_2 C46_2 1_555 1_555
C43_2 C44_2 1_555 1_555
O6_2 H34_3 1_555 1_555
O18_2 H36_3 1_555 1_555
C23_2 N3_2 1_555 1_555
C24_2 C23_2 1_555 1_555
H12_2 C24_2 1_555 1_555
H13_2 C25_2 1_555 1_555
N6_3 C29_2 1_555 1_555
C29_2 H16_2 1_555 1_555
C30_2 C29_2 1_555 1_555
H17_2 C30_2 1_555 1_555
C31_3 C30_2 1_555 1_555
N8_3 C31_3 1_555 1_555
C37_2 N6_3 1_555 1_555
H21_2 C37_2 1_555 1_555
C38_2 C31_3 1_555 1_555
H22_2 C38_2 1_555 1_555
C55_2 N11_2 1_555 1_555
C56_2 C55_2 1_555 1_555
H32_2 C56_2 1_555 1_555
H33_2 C57_2 1_555 1_555
C24_2 C25_2 1_555 1_555
C37_2 C38_2 1_555 1_555
C56_2 C57_2 1_555 1_555
O21 C15_2 1_555 1_555
O23 C15_2 1_555 1_555
C10_3 O7_2 1_555 1_555
C11_3 C10_3 1_555 1_555
C12_2 C11_3 1_555 1_555
H4_2 C12_2 1_555 1_555
C13_2 C12_2 1_555 1_555
C14_3 C13_2 1_555 1_555
H5_3 C14_3 1_555 1_555
C15_2 C13_2 1_555 1_555
H8_2 C19_2 1_555 1_555
H9_2 C20_2 1_555 1_555
O22 C34_2 1_555 1_555
O24 C34_2 1_555 1_555
C32_2 C11_3 1_555 1_555
H18_2 C32_2 1_555 1_555
C33_2 C14_3 1_555 1_555
C34_2 C33_2 1_555 1_555
H28_2 C51_2 1_555 1_555
H29_2 C52_2 1_555 1_555
C10_3 O10_2 1_555 1_555
C19_2 C20_2 1_555 1_555
C32_2 C33_2 1_555 1_555
C51_2 C52_2 1_555 1_555
O2_2 H35_3 1_555 1_555
O18_2 H34_4 1_555 1_555
O6_2 H36_4 1_555 1_555
O14_2 H35_4 1_555 1_555

#END
