
###############################################################################
#
# This file contains modified crystal structure data generated from the
# MOF subset of the Cambridge Structural Database (CSD) v543 
# hosted by the Cambridge Crystallographic Data Centre (CCDC).
#
# This work is licensed under the Creative Commons
# Attribution-NonCommercial-ShareAlike 4.0 International License.
# To view a copy of this license, visit
# http://creativecommons.org/licenses/by-nc-sa/4.0/
# or send a letter to
# Creative Commons, PO Box 1866, Mountain View, CA 94042, USA.
#
# CIF created using the CSD Python API on 29 September 2022
# The structure has been converted into the P1 space group
# The structure has a 3D framework
# The original CSD entry CARGAG is in the monoclinic crystal system
# The framework has been calculated to contain at least 10.0% void space
# The void calculation uses a probe of radius 1.32A, grid spacing 0.4
#
###############################################################################

data_CARGAG
_chemical_formula_moiety         '(C132 H104 Cd12 N16 O20 S4)n'
_symmetry_cell_setting           triclinic
_symmetry_space_group_name_H-M   'P 1'
_symmetry_Int_Tables_number      1
_space_group_name_Hall           'P 1'
loop_
_symmetry_equiv_pos_site_id
_symmetry_equiv_pos_as_xyz
1 x,y,z
_cell_length_a                   12.1006(8)
_cell_length_b                   26.2269(17)
_cell_length_c                   20.0296(11)
_cell_angle_alpha                90
_cell_angle_beta                 110.304(3)
_cell_angle_gamma                90
_cell_volume                     5961.65
loop_
_atom_site_label
_atom_site_type_symbol
_atom_site_fract_x
_atom_site_fract_y
_atom_site_fract_z
Cd4 Cd -0.0000 0.5000 0.5000
Cd7 Cd 0.5000 0.0000 0.0000
C1 C 0.1328(5) 0.0019(2) 0.1727(3)
C2 C 0.2055(5) 0.0189(2) 0.2386(3)
H2 H 0.1973 0.0057 0.2797
C3 C 0.2904(5) 0.0555(2) 0.2438(3)
C4 C 0.2981(6) 0.0719(3) 0.1792(3)
H3 H 0.3555 0.0954 0.1790
C5 C 0.2227(6) 0.0537(2) 0.1170(3)
H4 H 0.2284 0.0663 0.0749
C6 C 0.3673(6) 0.0755(2) 0.3123(3)
C7 C 0.4110(6) 0.0453(2) 0.3715(3)
H5 H 0.3910 0.0109 0.3683
C8 C 0.4849(6) 0.0649(2) 0.4366(3)
H6 H 0.5166 0.0431 0.4752
C9 C 0.5111(6) 0.1164(2) 0.4443(3)
C10 C 0.4664(8) 0.1470(3) 0.3857(4)
H7 H 0.4847 0.1816 0.3896
C11 C 0.3929(8) 0.1273(3) 0.3190(4)
H8 H 0.3621 0.1489 0.2802
C12 C 0.6111(5) 0.0566(3) 0.8949(3)
H9 H 0.6711 0.0633 0.9379
C13 C 0.6219(5) 0.0760(3) 0.8351(3)
H10 H 0.6852 0.0972 0.8384
C14 C 0.5421(5) 0.0650(2) 0.7706(3)
C15 C 0.4493(6) 0.0345(3) 0.7705(3)
H11 H 0.3921 0.0254 0.7275
C16 C 0.4403(6) 0.0172(3) 0.8332(4)
C17 C 0.5513(5) 0.0847(2) 0.7029(3)
C18 C 0.6572(5) 0.0993(2) 0.6986(3)
H13 H 0.7238 0.0984 0.7396
C19 C 0.6688(6) 0.1154(2) 0.6354(3)
H14 H 0.7425 0.1241 0.6341
C20 C 0.5702(6) 0.1184(2) 0.5745(3)
C21 C 0.4618(6) 0.1049(2) 0.5782(3)
H15 H 0.3946 0.1075 0.5378
C22 C 0.4524(6) 0.0877(2) 0.6404(3)
H16 H 0.3791 0.0779 0.6413
C23 C 0.9192(5) 0.3828(2) 0.4573(3)
H17 H 0.9469 0.3904 0.4205
C24 C 0.8700(6) 0.3346(2) 0.4573(3)
H18 H 0.8652 0.3112 0.4215
C25 C 0.8283(5) 0.3222(2) 0.5120(3)
C26 C 0.8440(6) 0.3589(2) 0.5647(4)
H19 H 0.8222 0.3522 0.6040
C27 C 0.8927(5) 0.4058(2) 0.5577(4)
H20 H 0.8998 0.4302 0.5927
C28 C 0.7693(5) 0.2731(2) 0.5140(3)
C29 C 0.7800(7) 0.2318(3) 0.4746(4)
H21 H 0.8284 0.2343 0.4474
C30 C 0.7201(8) 0.1862(3) 0.4743(4)
H22 H 0.7301 0.1586 0.4478
C31 C 0.6483(6) 0.1821(2) 0.5121(3)
C32 C 0.6409(7) 0.2220(3) 0.5545(4)
H23 H 0.5949 0.2189 0.5831
C33 C 0.7018(7) 0.2669(2) 0.5551(4)
H24 H 0.6961 0.2935 0.5845
Cd1 Cd 0.0000 0.0000 0.0000
N1 N 0.1406(4) 0.01874(17) 0.1126(2)
N2 N 0.5195(4) 0.0283(2) 0.8965(2)
N3 N 0.9291(4) 0.41799(16) 0.5056(3)
N4 N 0.5826(5) 0.13624(19) 0.5106(3)
O5 O 0.5070(10) 0.0847(3) 0.0407(5)
H25 H 0.533(7) 0.1061(18) 0.0779(16)
H26 H 0.483(6) 0.1006(8) 0.0047(12)
Cd4_2 Cd 1.0000 0.5000 0.5000
Cd7_2 Cd 0.5000 0.0000 1.0000
Cd1_2 Cd 0.0000 0.0000 1.0000
O1 O 0.1137(3) 0.03526(16) 0.9427(2)
O2 O 0.2999(4) 0.00191(18) 0.9477(3)
O3 O 0.2660(6) 0.0886(3) 0.9374(7)
O4 O 0.1707(6) 0.0386(5) 0.8434(3)
S1 S 0.21142(15) 0.03986(8) 0.91760(10)
Cd7_3 Cd 0.5000 1.0000 0.0000
H1 H 0.0760 0.9774 0.1707
H12 H 0.3761 0.9970 0.8312
Cd1_3 Cd -0.0000 1.0000 0.0000
Cd7_4 Cd 0.5000 1.0000 1.0000
N10 N 0.4805(4) 0.9717(2) 0.1035(2)
O11 O 0.7001(4) 0.99809(18) 0.0523(3)
Cd1_4 Cd 0.0000 1.0000 1.0000
O10 O 0.4930(10) 0.9153(3) 0.9593(5)
H51 H 0.467(7) 0.8939(18) 0.9221(16)
H52 H 0.517(6) 0.8994(8) 0.9953(12)
N11 N 0.0709(4) 0.91799(16) 0.9944(3)
Cd1_5 Cd 1.0000 0.0000 0.0000
N12 N 0.9291(4) 0.08201(16) 0.0056(3)
Cd1_6 Cd 1.0000 0.0000 1.0000
H27 H 0.9240 0.0226 0.8293
H38 H 0.6239 0.0030 0.1688
Cd1_7 Cd 1.0000 1.0000 0.0000
O6 O 0.8863(3) 0.96474(16) 0.0573(2)
O8 O 0.7340(6) 0.9114(3) 0.0626(7)
O9 O 0.8293(6) 0.9614(5) 0.1566(3)
S2 S 0.78858(15) 0.96014(8) 0.08240(10)
Cd1_8 Cd 1.0000 1.0000 1.0000
C34 C 0.8672(5) 0.9981(2) 0.8273(3)
C35 C 0.7945(5) 0.9811(2) 0.7614(3)
H28 H 0.8027 0.9943 0.7203
C36 C 0.7096(5) 0.9445(2) 0.7562(3)
C37 C 0.7019(6) 0.9281(3) 0.8208(3)
H29 H 0.6445 0.9046 0.8210
C38 C 0.7773(6) 0.9463(2) 0.8830(3)
H30 H 0.7716 0.9337 0.9251
C39 C 0.6327(6) 0.9245(2) 0.6877(3)
C40 C 0.5890(6) 0.9547(2) 0.6285(3)
H31 H 0.6090 0.9891 0.6317
C41 C 0.5151(6) 0.9351(2) 0.5634(3)
H32 H 0.4834 0.9569 0.5248
C42 C 0.4889(6) 0.8836(2) 0.5557(3)
C43 C 0.5336(8) 0.8530(3) 0.6143(4)
H33 H 0.5153 0.8184 0.6104
C44 C 0.6071(8) 0.8727(3) 0.6810(4)
H34 H 0.6379 0.8511 0.7198
C45 C 0.3889(5) 0.9434(3) 0.1051(3)
H35 H 0.3289 0.9367 0.0621
C46 C 0.3781(5) 0.9240(3) 0.1649(3)
H36 H 0.3148 0.9028 0.1616
C47 C 0.4579(5) 0.9350(2) 0.2294(3)
C48 C 0.5507(6) 0.9655(3) 0.2295(3)
H37 H 0.6079 0.9746 0.2725
C49 C 0.5597(6) 0.9828(3) 0.1668(4)
C50 C 0.4487(5) 0.9153(2) 0.2971(3)
C51 C 0.3428(5) 0.9007(2) 0.3014(3)
H39 H 0.2762 0.9016 0.2604
C52 C 0.3312(6) 0.8846(2) 0.3646(3)
H40 H 0.2575 0.8759 0.3659
C53 C 0.4298(6) 0.8816(2) 0.4255(3)
C54 C 0.5382(6) 0.8951(2) 0.4218(3)
H41 H 0.6054 0.8925 0.4622
C55 C 0.5476(6) 0.9123(2) 0.3596(3)
H42 H 0.6209 0.9221 0.3587
C56 C 0.0808(5) 0.6172(2) 0.5427(3)
H43 H 0.0531 0.6096 0.5795
C57 C 0.1300(6) 0.6654(2) 0.5427(3)
H44 H 0.1348 0.6888 0.5785
C58 C 0.1717(5) 0.6778(2) 0.4880(3)
C59 C 0.1560(6) 0.6411(2) 0.4353(4)
H45 H 0.1778 0.6478 0.3960
C60 C 0.1073(5) 0.5942(2) 0.4423(4)
H46 H 0.1002 0.5698 0.4073
C61 C 0.2307(5) 0.7269(2) 0.4860(3)
C62 C 0.2200(7) 0.7682(3) 0.5254(4)
H47 H 0.1716 0.7657 0.5526
C63 C 0.2799(8) 0.8138(3) 0.5257(4)
H48 H 0.2699 0.8414 0.5522
C64 C 0.3517(6) 0.8179(2) 0.4879(3)
C65 C 0.3591(7) 0.7780(3) 0.4455(4)
H49 H 0.4051 0.7811 0.4169
C66 C 0.2982(7) 0.7331(2) 0.4449(4)
H50 H 0.3039 0.7065 0.4155
N5 N 0.8594(4) 0.98126(17) 0.8874(2)
N7 N 0.0709(4) 0.58201(16) 0.4944(3)
N8 N 0.4174(5) 0.86376(19) 0.4894(3)
C45_2 C 0.6111(5) 0.4434(3) 0.3949(3)
H35_2 H 0.6711 0.4367 0.4379
C46_2 C 0.6219(5) 0.4240(3) 0.3351(3)
H36_2 H 0.6852 0.4028 0.3384
C47_2 C 0.5421(5) 0.4350(2) 0.2706(3)
C48_2 C 0.4493(6) 0.4655(3) 0.2705(3)
H37_2 H 0.3921 0.4746 0.2275
C49_2 C 0.4403(6) 0.4828(3) 0.3332(4)
H38_2 H 0.3761 0.5030 0.3312
C50_2 C 0.5513(5) 0.4153(2) 0.2029(3)
C51_2 C 0.6572(5) 0.4007(2) 0.1986(3)
H39_2 H 0.7238 0.4016 0.2396
C52_2 C 0.6688(6) 0.3846(2) 0.1354(3)
H40_2 H 0.7425 0.3759 0.1341
C53_2 C 0.5702(6) 0.3816(2) 0.0745(3)
C54_2 C 0.4618(6) 0.3951(2) 0.0782(3)
H41_2 H 0.3946 0.3925 0.0378
C55_2 C 0.4524(6) 0.4123(2) 0.1404(3)
H42_2 H 0.3791 0.4221 0.1413
C58_2 C 0.8283(5) 0.1778(2) 0.0120(3)
C59_2 C 0.8440(6) 0.1411(2) 0.0647(4)
H45_2 H 0.8222 0.1478 0.1040
C60_2 C 0.8927(5) 0.0942(2) 0.0577(4)
H46_2 H 0.8998 0.0698 0.0927
C61_2 C 0.7693(5) 0.2269(2) 0.0140(3)
C64_2 C 0.6483(6) 0.3179(2) 0.0121(3)
C65_2 C 0.6409(7) 0.2780(3) 0.0545(4)
H49_2 H 0.5949 0.2811 0.0831
C66_2 C 0.7018(7) 0.2331(2) 0.0551(4)
H50_2 H 0.6961 0.2065 0.0845
N6 N 0.5195(4) 0.4717(2) 0.3965(2)
N8_2 N 0.5826(5) 0.36376(19) 0.0106(3)
Cd5 Cd 0.5000 0.5000 0.5000
C34_2 C 0.1328(5) 0.4981(2) 0.6727(3)
H27_2 H 0.0760 0.5226 0.6707
C35_2 C 0.2055(5) 0.4811(2) 0.7386(3)
H28_2 H 0.1973 0.4943 0.7797
C36_2 C 0.2904(5) 0.4445(2) 0.7438(3)
C37_2 C 0.2981(6) 0.4281(3) 0.6792(3)
H29_2 H 0.3555 0.4046 0.6790
C38_2 C 0.2227(6) 0.4463(2) 0.6170(3)
H30_2 H 0.2284 0.4337 0.5749
C39_2 C 0.3673(6) 0.4245(2) 0.8123(3)
C40_2 C 0.4110(6) 0.4547(2) 0.8715(3)
H31_2 H 0.3910 0.4891 0.8683
C41_2 C 0.4849(6) 0.4351(2) 0.9366(3)
H32_2 H 0.5166 0.4569 0.9752
C42_2 C 0.5111(6) 0.3836(2) 0.9443(3)
C43_2 C 0.4664(8) 0.3530(3) 0.8857(4)
H33_2 H 0.4847 0.3184 0.8896
C44_2 C 0.3929(8) 0.3727(3) 0.8190(4)
H34_2 H 0.3621 0.3511 0.7802
C56_2 C 0.9192(5) 0.1172(2) 0.9573(3)
H43_2 H 0.9469 0.1096 0.9205
C57_2 C 0.8700(6) 0.1654(2) 0.9573(3)
H44_2 H 0.8652 0.1888 0.9215
C62_2 C 0.7800(7) 0.2682(3) 0.9746(4)
H47_2 H 0.8284 0.2657 0.9474
C63_2 C 0.7201(8) 0.3138(3) 0.9743(4)
H48_2 H 0.7301 0.3414 0.9478
N5_2 N 0.1406(4) 0.48126(17) 0.6126(2)
O6_2 O 0.1137(3) 0.46474(16) 0.4427(2)
O7 O 0.2999(4) 0.49809(18) 0.4477(3)
O8_2 O 0.2660(6) 0.4114(3) 0.4374(7)
O9_2 O 0.1707(6) 0.4614(5) 0.3434(3)
S2_2 S 0.21142(15) 0.46014(8) 0.41760(10)
C1_2 C 0.8672(5) 0.5019(2) 0.3273(3)
H1_2 H 0.9240 0.4774 0.3293
C2_2 C 0.7945(5) 0.5189(2) 0.2614(3)
H2_2 H 0.8027 0.5057 0.2203
C3_2 C 0.7096(5) 0.5555(2) 0.2562(3)
C4_2 C 0.7019(6) 0.5719(3) 0.3208(3)
H3_2 H 0.6445 0.5954 0.3210
C5_2 C 0.7773(6) 0.5537(2) 0.3830(3)
H4_2 H 0.7716 0.5663 0.4251
C6_2 C 0.6327(6) 0.5755(2) 0.1877(3)
C7_2 C 0.5890(6) 0.5453(2) 0.1285(3)
H5_2 H 0.6090 0.5109 0.1317
C8_2 C 0.5151(6) 0.5649(2) 0.0634(3)
H6_2 H 0.4834 0.5431 0.0248
C9_2 C 0.4889(6) 0.6164(2) 0.0557(3)
C10_2 C 0.5336(8) 0.6470(3) 0.1143(4)
H7_2 H 0.5153 0.6816 0.1104
C11_2 C 0.6071(8) 0.6273(3) 0.1810(4)
H8_2 H 0.6379 0.6489 0.2198
C23_2 C 0.0808(5) 0.8828(2) 0.0427(3)
H17_2 H 0.0531 0.8904 0.0795
C24_2 C 0.1300(6) 0.8346(2) 0.0427(3)
H18_2 H 0.1348 0.8112 0.0785
C29_2 C 0.2200(7) 0.7318(3) 0.0254(4)
H21_2 H 0.1716 0.7343 0.0526
C30_2 C 0.2799(8) 0.6862(3) 0.0257(4)
H22_2 H 0.2699 0.6586 0.0522
N1_2 N 0.8594(4) 0.51874(17) 0.3874(2)
O1_2 O 0.8863(3) 0.53526(16) 0.5573(2)
O2_2 O 0.7001(4) 0.50191(18) 0.5523(3)
O3_2 O 0.7340(6) 0.5886(3) 0.5626(7)
O4_2 O 0.8293(6) 0.5386(5) 0.6566(3)
O5_2 O 0.4930(10) 0.5847(3) 0.4593(5)
S1_2 S 0.78858(15) 0.53986(8) 0.58240(10)
H25_2 H 0.467(7) 0.6061(18) 0.4221(16)
H26_2 H 0.517(6) 0.6006(8) 0.4953(12)
O10_2 O 0.5070(10) 0.4153(3) 0.5407(5)
H51_2 H 0.533(7) 0.3939(18) 0.5779(16)
H52_2 H 0.483(6) 0.3994(8) 0.5047(12)
N9 N 0.4805(4) 0.5283(2) 0.6035(2)
C12_2 C 0.3889(5) 0.5566(3) 0.6051(3)
H9_2 H 0.3289 0.5633 0.5621
C13_2 C 0.3781(5) 0.5760(3) 0.6649(3)
H10_2 H 0.3148 0.5972 0.6616
C14_2 C 0.4579(5) 0.5650(2) 0.7294(3)
C15_2 C 0.5507(6) 0.5345(3) 0.7295(3)
H11_2 H 0.6079 0.5254 0.7725
C16_2 C 0.5597(6) 0.5172(3) 0.6668(4)
H12_2 H 0.6239 0.4970 0.6688
C17_2 C 0.4487(5) 0.5847(2) 0.7971(3)
C18_2 C 0.3428(5) 0.5993(2) 0.8014(3)
H13_2 H 0.2762 0.5984 0.7604
C19_2 C 0.3312(6) 0.6154(2) 0.8646(3)
H14_2 H 0.2575 0.6241 0.8659
C20_2 C 0.4298(6) 0.6184(2) 0.9255(3)
C21_2 C 0.5382(6) 0.6049(2) 0.9218(3)
H15_2 H 0.6054 0.6075 0.9622
C22_2 C 0.5476(6) 0.5877(2) 0.8596(3)
H16_2 H 0.6209 0.5779 0.8587
C25_2 C 0.1717(5) 0.8222(2) 0.9880(3)
C26_2 C 0.1560(6) 0.8589(2) 0.9353(4)
H19_2 H 0.1778 0.8522 0.8960
C27_2 C 0.1073(5) 0.9058(2) 0.9423(4)
H20_2 H 0.1002 0.9302 0.9073
C28_2 C 0.2307(5) 0.7731(2) 0.9860(3)
C31_2 C 0.3517(6) 0.6821(2) 0.9879(3)
C32_2 C 0.3591(7) 0.7220(3) 0.9455(4)
H23_2 H 0.4051 0.7189 0.9169
C33_2 C 0.2982(7) 0.7669(2) 0.9449(4)
H24_2 H 0.3039 0.7935 0.9155
N4_2 N 0.4174(5) 0.63624(19) 0.9894(3)
loop_
_geom_bond_atom_site_label_1
_geom_bond_atom_site_label_2
_geom_bond_site_symmetry_1
_geom_bond_site_symmetry_2
C2 C1 1_555 1_555
H2 C2 1_555 1_555
C3 C2 1_555 1_555
C4 C3 1_555 1_555
H3 C4 1_555 1_555
C5 C4 1_555 1_555
H4 C5 1_555 1_555
C6 C3 1_555 1_555
C7 C6 1_555 1_555
H5 C7 1_555 1_555
C8 C7 1_555 1_555
H6 C8 1_555 1_555
C9 C8 1_555 1_555
C10 C9 1_555 1_555
H7 C10 1_555 1_555
C11 C6 1_555 1_555
H8 C11 1_555 1_555
C12 H9 1_555 1_555
C13 C12 1_555 1_555
H10 C13 1_555 1_555
C14 C13 1_555 1_555
C15 C14 1_555 1_555
H11 C15 1_555 1_555
C16 C15 1_555 1_555
C17 C14 1_555 1_555
C18 C17 1_555 1_555
H13 C18 1_555 1_555
C19 C18 1_555 1_555
H14 C19 1_555 1_555
C20 C19 1_555 1_555
C21 C20 1_555 1_555
H15 C21 1_555 1_555
C22 C17 1_555 1_555
H16 C22 1_555 1_555
C23 H17 1_555 1_555
C24 C23 1_555 1_555
H18 C24 1_555 1_555
C25 C24 1_555 1_555
C26 C25 1_555 1_555
H19 C26 1_555 1_555
C27 C26 1_555 1_555
H20 C27 1_555 1_555
C28 C25 1_555 1_555
C29 C28 1_555 1_555
H21 C29 1_555 1_555
C30 C29 1_555 1_555
H22 C30 1_555 1_555
C31 C30 1_555 1_555
C32 C31 1_555 1_555
H23 C32 1_555 1_555
C33 C28 1_555 1_555
H24 C33 1_555 1_555
Cd1 N1 1_555 1_555
N1 C1 1_555 1_555
N2 C12 1_555 1_555
N3 C23 1_555 1_555
N4 C9 1_555 1_555
O5 Cd7 1_555 1_555
H25 O5 1_555 1_555
H26 O5 1_555 1_555
Cd4_2 N3 1_555 1_555
Cd7_2 N2 1_555 1_555
C5 N1 1_555 1_555
C10 C11 1_555 1_555
C16 N2 1_555 1_555
C20 N4 1_555 1_555
C21 C22 1_555 1_555
C27 N3 1_555 1_555
C31 N4 1_555 1_555
C32 C33 1_555 1_555
Cd7_2 O2 1_555 1_555
O1 Cd1_2 1_555 1_555
O2 S1 1_555 1_555
O3 S1 1_555 1_555
O4 S1 1_555 1_555
S1 O1 1_555 1_555
N10 Cd7_3 1_555 1_555
O11 Cd7_3 1_555 1_555
O10 Cd7_4 1_555 1_555
H51 O10 1_555 1_555
H52 O10 1_555 1_555
N11 Cd1_4 1_555 1_555
N12 Cd1_5 1_555 1_555
O6 Cd1_7 1_555 1_555
O11 S2 1_555 1_555
O8 S2 1_555 1_555
O9 S2 1_555 1_555
S2 O6 1_555 1_555
C35 C34 1_555 1_555
H28 C35 1_555 1_555
C36 C35 1_555 1_555
C37 C36 1_555 1_555
H29 C37 1_555 1_555
C38 C37 1_555 1_555
H30 C38 1_555 1_555
C39 C36 1_555 1_555
C40 C39 1_555 1_555
H31 C40 1_555 1_555
C41 C40 1_555 1_555
H32 C41 1_555 1_555
C42 C41 1_555 1_555
C43 C42 1_555 1_555
H33 C43 1_555 1_555
C44 C39 1_555 1_555
H34 C44 1_555 1_555
C45 H35 1_555 1_555
C46 C45 1_555 1_555
H36 C46 1_555 1_555
C47 C46 1_555 1_555
C48 C47 1_555 1_555
H37 C48 1_555 1_555
C49 C48 1_555 1_555
C50 C47 1_555 1_555
C51 C50 1_555 1_555
H39 C51 1_555 1_555
C52 C51 1_555 1_555
H40 C52 1_555 1_555
C53 C52 1_555 1_555
C54 C53 1_555 1_555
H41 C54 1_555 1_555
C55 C50 1_555 1_555
H42 C55 1_555 1_555
C56 H43 1_555 1_555
C57 C56 1_555 1_555
H44 C57 1_555 1_555
C58 C57 1_555 1_555
C59 C58 1_555 1_555
H45 C59 1_555 1_555
C60 C59 1_555 1_555
H46 C60 1_555 1_555
C61 C58 1_555 1_555
C62 C61 1_555 1_555
H47 C62 1_555 1_555
C63 C62 1_555 1_555
H48 C63 1_555 1_555
C64 C63 1_555 1_555
C65 C64 1_555 1_555
H49 C65 1_555 1_555
C66 C61 1_555 1_555
H50 C66 1_555 1_555
N5 Cd1_8 1_555 1_555
N10 C45 1_555 1_555
N7 C56 1_555 1_555
N8 C42 1_555 1_555
Cd4 N7 1_555 1_555
C34 N5 1_555 1_555
C38 N5 1_555 1_555
C43 C44 1_555 1_555
C49 N10 1_555 1_555
C53 N8 1_555 1_555
C54 C55 1_555 1_555
C60 N7 1_555 1_555
C64 N8 1_555 1_555
C65 C66 1_555 1_555
C45_2 H35_2 1_555 1_555
C46_2 C45_2 1_555 1_555
H36_2 C46_2 1_555 1_555
C47_2 C46_2 1_555 1_555
C48_2 C47_2 1_555 1_555
H37_2 C48_2 1_555 1_555
C49_2 C48_2 1_555 1_555
H38_2 C49_2 1_555 1_555
C50_2 C47_2 1_555 1_555
C51_2 C50_2 1_555 1_555
H39_2 C51_2 1_555 1_555
C52_2 C51_2 1_555 1_555
H40_2 C52_2 1_555 1_555
C53_2 C52_2 1_555 1_555
C54_2 C53_2 1_555 1_555
H41_2 C54_2 1_555 1_555
C55_2 C50_2 1_555 1_555
H42_2 C55_2 1_555 1_555
C59_2 C58_2 1_555 1_555
H45_2 C59_2 1_555 1_555
C60_2 C59_2 1_555 1_555
H46_2 C60_2 1_555 1_555
C61_2 C58_2 1_555 1_555
C65_2 C64_2 1_555 1_555
H49_2 C65_2 1_555 1_555
C66_2 C61_2 1_555 1_555
H50_2 C66_2 1_555 1_555
N6 C45_2 1_555 1_555
Cd5 N6 1_555 1_555
C49_2 N6 1_555 1_555
C53_2 N8_2 1_555 1_555
C54_2 C55_2 1_555 1_555
C60_2 N12 1_555 1_555
C64_2 N8_2 1_555 1_555
C65_2 C66_2 1_555 1_555
C34_2 H27_2 1_555 1_555
C35_2 C34_2 1_555 1_555
H28_2 C35_2 1_555 1_555
C36_2 C35_2 1_555 1_555
C37_2 C36_2 1_555 1_555
H29_2 C37_2 1_555 1_555
C38_2 C37_2 1_555 1_555
H30_2 C38_2 1_555 1_555
C39_2 C36_2 1_555 1_555
C40_2 C39_2 1_555 1_555
H31_2 C40_2 1_555 1_555
C41_2 C40_2 1_555 1_555
H32_2 C41_2 1_555 1_555
C42_2 C41_2 1_555 1_555
C43_2 C42_2 1_555 1_555
H33_2 C43_2 1_555 1_555
C44_2 C39_2 1_555 1_555
H34_2 C44_2 1_555 1_555
C56_2 H43_2 1_555 1_555
C57_2 C56_2 1_555 1_555
H44_2 C57_2 1_555 1_555
H47_2 C62_2 1_555 1_555
C63_2 C62_2 1_555 1_555
H48_2 C63_2 1_555 1_555
N5_2 Cd4 1_555 1_555
O6_2 Cd4 1_555 1_555
O7 S2_2 1_555 1_555
O8_2 S2_2 1_555 1_555
O9_2 S2_2 1_555 1_555
S2_2 O6_2 1_555 1_555
Cd5 O7 1_555 1_555
C34_2 N5_2 1_555 1_555
C38_2 N5_2 1_555 1_555
C43_2 C44_2 1_555 1_555
C1_2 H1_2 1_555 1_555
C2_2 C1_2 1_555 1_555
H2_2 C2_2 1_555 1_555
C3_2 C2_2 1_555 1_555
C4_2 C3_2 1_555 1_555
H3_2 C4_2 1_555 1_555
C5_2 C4_2 1_555 1_555
H4_2 C5_2 1_555 1_555
C6_2 C3_2 1_555 1_555
C7_2 C6_2 1_555 1_555
H5_2 C7_2 1_555 1_555
C8_2 C7_2 1_555 1_555
H6_2 C8_2 1_555 1_555
C9_2 C8_2 1_555 1_555
C10_2 C9_2 1_555 1_555
H7_2 C10_2 1_555 1_555
C11_2 C6_2 1_555 1_555
H8_2 C11_2 1_555 1_555
C23_2 H17_2 1_555 1_555
C24_2 C23_2 1_555 1_555
H18_2 C24_2 1_555 1_555
H21_2 C29_2 1_555 1_555
C30_2 C29_2 1_555 1_555
H22_2 C30_2 1_555 1_555
Cd4_2 N1_2 1_555 1_555
Cd5 O2_2 1_555 1_555
N1_2 C1_2 1_555 1_555
O1_2 Cd4_2 1_555 1_555
O2_2 S1_2 1_555 1_555
O3_2 S1_2 1_555 1_555
O4_2 S1_2 1_555 1_555
O5_2 Cd5 1_555 1_555
S1_2 O1_2 1_555 1_555
H25_2 O5_2 1_555 1_555
H26_2 O5_2 1_555 1_555
O10_2 Cd5 1_555 1_555
H51_2 O10_2 1_555 1_555
H52_2 O10_2 1_555 1_555
N9 Cd5 1_555 1_555
C5_2 N1_2 1_555 1_555
C10_2 C11_2 1_555 1_555
C12_2 H9_2 1_555 1_555
C13_2 C12_2 1_555 1_555
H10_2 C13_2 1_555 1_555
C14_2 C13_2 1_555 1_555
C15_2 C14_2 1_555 1_555
H11_2 C15_2 1_555 1_555
C16_2 C15_2 1_555 1_555
H12_2 C16_2 1_555 1_555
C17_2 C14_2 1_555 1_555
C18_2 C17_2 1_555 1_555
H13_2 C18_2 1_555 1_555
C19_2 C18_2 1_555 1_555
H14_2 C19_2 1_555 1_555
C20_2 C19_2 1_555 1_555
C21_2 C20_2 1_555 1_555
H15_2 C21_2 1_555 1_555
C22_2 C17_2 1_555 1_555
H16_2 C22_2 1_555 1_555
C26_2 C25_2 1_555 1_555
H19_2 C26_2 1_555 1_555
C27_2 C26_2 1_555 1_555
H20_2 C27_2 1_555 1_555
C28_2 C25_2 1_555 1_555
C32_2 C31_2 1_555 1_555
H23_2 C32_2 1_555 1_555
C33_2 C28_2 1_555 1_555
H24_2 C33_2 1_555 1_555
N9 C12_2 1_555 1_555
C16_2 N9 1_555 1_555
C20_2 N4_2 1_555 1_555
C21_2 C22_2 1_555 1_555
C27_2 N11 1_555 1_555
C31_2 N4_2 1_555 1_555
C32_2 C33_2 1_555 1_555

#END
