
###############################################################################
#
# This file contains modified crystal structure data generated from the
# MOF subset of the Cambridge Structural Database (CSD) v543 
# hosted by the Cambridge Crystallographic Data Centre (CCDC).
#
# This work is licensed under the Creative Commons
# Attribution-NonCommercial-ShareAlike 4.0 International License.
# To view a copy of this license, visit
# http://creativecommons.org/licenses/by-nc-sa/4.0/
# or send a letter to
# Creative Commons, PO Box 1866, Mountain View, CA 94042, USA.
#
# CIF created using the CSD Python API on 29 September 2022
# The structure has been converted into the P1 space group
# The structure has a 3D framework
# The original CSD entry CATXAA is in the monoclinic crystal system
# The framework has been calculated to contain at least 10.0% void space
# The void calculation uses a probe of radius 1.32A, grid spacing 0.4
# The framework is charged, counterions have been retained in the structure
# H atom positions have been added when not included in the experimental data
#
###############################################################################

data_CATXAA
_chemical_formula_moiety         '(C104 H72 Ag4 B4 F16 N16)n'
_symmetry_cell_setting           triclinic
_symmetry_space_group_name_H-M   'P 1'
_symmetry_Int_Tables_number      1
_space_group_name_Hall           'P 1'
loop_
_symmetry_equiv_pos_site_id
_symmetry_equiv_pos_as_xyz
1 x,y,z
_cell_length_a                   9.4608(3)
_cell_length_b                   22.8750(5)
_cell_length_c                   13.4599(3)
_cell_angle_alpha                90
_cell_angle_beta                 105.718(2)
_cell_angle_gamma                90
_cell_volume                     2804.01
loop_
_atom_site_label
_atom_site_type_symbol
_atom_site_fract_x
_atom_site_fract_y
_atom_site_fract_z
Ag3 Ag 0.15463(4) 0.61816(2) 0.87156(2)
N5 N 0.0104(4) 0.31706(13) 0.0788(3)
N6 N 0.0524(4) 0.41619(15) 0.2659(3)
H14 H 0.698829 0.503599 0.051352
Ag2 Ag 0.84537(4) 0.38184(2) 0.12844(2)
N1 N 0.5104(4) 0.18294(13) 0.5788(3)
N2 N 0.9476(4) 0.58381(15) 0.7341(3)
N3 N 0.6865(4) 0.35736(15) 0.2225(2)
N4 N 0.7658(4) 0.43875(15) 0.9800(2)
C1 C 0.6251(4) 0.27437(15) 0.5573(2)
C2 C 0.7656(4) 0.51866(15) 0.6315(2)
C3 C 0.6496(4) 0.36297(16) 0.6698(2)
H1 H 0.637012 0.338768 0.722274
C4 C 0.7069(4) 0.45798(15) 0.6124(2)
C5 C 0.6799(4) 0.42229(15) 0.6910(2)
C6 C 0.6853(4) 0.43492(15) 0.5141(2)
H2 H 0.695218 0.459326 0.461190
C7 C 0.6833(4) 0.44644(15) 0.7947(2)
C8 C 0.6377(4) 0.33900(15) 0.5725(2)
C9 C 0.7574(4) 0.41832(16) 0.8852(3)
H3 H 0.804099 0.383159 0.879780
C10 C 0.6204(4) 0.35598(15) 0.3828(2)
C11 C 0.5005(4) 0.31997(17) 0.3389(3)
H4 H 0.438394 0.307190 0.377460
C12 C 0.8846(4) 0.53082(15) 0.7156(3)
C13 C 0.5224(4) 0.24153(16) 0.5900(3)
H5 H 0.458966 0.260843 0.620973
C14 C 0.7193(4) 0.24526(17) 0.5112(3)
H6 H 0.789124 0.265873 0.488295
C15 C 0.6491(4) 0.37642(15) 0.4921(3)
C16 C 0.7079(4) 0.37380(16) 0.3212(3)
H7 H 0.786179 0.398638 0.349871
C17 C 0.7130(4) 0.56357(17) 0.5618(3)
H8 H 0.634322 0.557035 0.504175
C18 C 0.8938(6) 0.62668(18) 0.6674(4)
C19 C 0.7784(5) 0.61800(16) 0.5787(4)
H9 H 0.746201 0.648277 0.531970
C20 C 0.7081(5) 0.18478(19) 0.4997(3)
H10 H 0.770228 0.164326 0.469130
C21 C 0.6112(5) 0.49800(19) 0.8042(3)
H11 H 0.559196 0.518028 0.745565
C22 C 0.6033(5) 0.15598(17) 0.5345(3)
H12 H 0.596513 0.115586 0.526902
C23 C 0.4764(5) 0.3038(2) 0.2365(3)
H13 H 0.397075 0.280027 0.205239
C24 C 0.6949(6) 0.4889(2) 0.9863(3)
C25 C 0.6167(6) 0.51956(19) 0.9010(3)
H15 H 0.568549 0.554061 0.908481
C26 C 0.5698(5) 0.3229(2) 0.1816(3)
H16 H 0.551829 0.311673 0.112924
Ag4 Ag 0.34537(4) 0.11816(2) 0.62844(2)
H17 H 0.929048 0.49553 0.769279
H18 H 0.941727 0.670144 0.682704
H5_2 H 0.041034 0.760843 0.879027
N2_2 N 0.5524(4) 0.08381(15) 0.7659(3)
C2_2 C 0.7344(4) 0.01866(15) 0.8685(2)
C12_2 C 0.6154(4) 0.03082(15) 0.7844(3)
C17_2 C 0.7870(4) 0.06357(17) 0.9382(3)
H8_2 H 0.865678 0.057035 0.995825
C18_2 C 0.6062(6) 0.12668(18) 0.8326(4)
C19_2 C 0.7216(5) 0.11800(16) 0.9213(4)
H9_2 H 0.753799 0.148277 0.968030
H11_2 H 0.940804 0.018028 0.754435
H14_2 H 0.801171 0.003599 0.448648
C25_2 C 0.8833(6) 0.01956(19) 0.5990(3)
H15_2 H 0.931451 0.054061 0.591519
H18_2 H 0.558273 0.170144 0.817296
Ag1 Ag 0.65463(4) 0.88184(2) 0.37156(2)
N3_2 N 0.8135(4) 0.85736(15) 0.2775(2)
H2_2 H 0.804782 0.959326 0.038810
C10_2 C 0.8796(4) 0.85598(15) 0.1172(2)
C11_2 C 0.9995(4) 0.81997(17) 0.1611(3)
H6_2 H 0.710876 0.765873 0.011705
C15_2 C 0.8509(4) 0.87642(15) 0.0079(3)
C16_2 C 0.7921(4) 0.87380(16) 0.1788(3)
H7_2 H 0.713821 0.898638 0.150129
C20_2 C 0.7919(5) 0.68478(19) 0.0003(3)
H10_2 H 0.729772 0.664326 0.030870
C26_2 C 0.9302(5) 0.8229(2) 0.3184(3)
H16_2 H 0.948171 0.811673 0.387076
N5_2 N 0.4896(4) 0.81706(13) 0.4212(3)
N6_2 N 0.4476(4) 0.91619(15) 0.2341(3)
N7 N 0.7342(4) 0.93875(15) 0.5200(2)
N1_2 N 0.9896(4) 0.68294(13) 0.9212(3)
C1_2 C 0.8749(4) 0.77437(15) 0.9427(2)
C3_2 C 0.8504(4) 0.86297(16) 0.8302(2)
H1_2 H 0.862988 0.838768 0.777726
C4_2 C 0.7931(4) 0.95798(15) 0.8876(2)
C5_2 C 0.8201(4) 0.92229(15) 0.8090(2)
C6_2 C 0.8147(4) 0.93492(15) 0.9859(2)
C7_2 C 0.8167(4) 0.94644(15) 0.7053(2)
C8_2 C 0.8623(4) 0.83900(15) 0.9275(2)
C9_2 C 0.7426(4) 0.91832(16) 0.6148(3)
H3_2 H 0.695901 0.883159 0.620220
C13_2 C 0.9776(4) 0.74153(16) 0.9100(3)
C14_2 C 0.7807(4) 0.74526(17) 0.9888(3)
C21_2 C 0.8888(5) 0.99800(19) 0.6958(3)
C22_2 C 0.8967(5) 0.65598(17) 0.9655(3)
H12_2 H 0.903487 0.615586 0.973098
C24_2 C 0.8051(6) 0.9889(2) 0.5137(3)
H17_2 H 0.570952 0.99553 0.730721
N7_2 N 0.2342(4) 0.56125(15) 0.0200(2)
N3_3 N 0.3135(4) 0.64264(15) 0.7775(2)
C1_3 C 0.3749(4) 0.72563(15) 0.4427(2)
C2_3 C 0.2344(4) 0.48134(15) 0.3685(2)
C3_3 C 0.3504(4) 0.63703(16) 0.3302(2)
H1_3 H 0.362988 0.661232 0.277726
C4_3 C 0.2931(4) 0.54202(15) 0.3876(2)
C5_3 C 0.3201(4) 0.57771(15) 0.3090(2)
C6_3 C 0.3147(4) 0.56508(15) 0.4859(2)
H2_3 H 0.304782 0.540674 0.538810
C7_3 C 0.3167(4) 0.55356(15) 0.2053(2)
C8_3 C 0.3623(4) 0.66100(15) 0.4275(2)
C9_3 C 0.2426(4) 0.58168(16) 0.1148(3)
H3_3 H 0.195901 0.616841 0.120220
C10_3 C 0.3796(4) 0.64402(15) 0.6172(2)
C11_3 C 0.4995(4) 0.68003(17) 0.6611(3)
H4_2 H 0.561606 0.692810 0.622540
C12_3 C 0.1154(4) 0.46918(15) 0.2844(3)
C13_3 C 0.4776(4) 0.75847(16) 0.4100(3)
H5_3 H 0.541034 0.739157 0.379027
C14_3 C 0.2807(4) 0.75474(17) 0.4888(3)
H6_3 H 0.210876 0.734127 0.511705
C15_3 C 0.3509(4) 0.62358(15) 0.5079(3)
C16_3 C 0.2921(4) 0.62620(16) 0.6788(3)
H7_3 H 0.213821 0.601362 0.650129
C17_3 C 0.2870(4) 0.43643(17) 0.4382(3)
H8_3 H 0.365678 0.442965 0.495825
C18_3 C 0.1062(6) 0.37332(18) 0.3326(4)
C19_3 C 0.2216(5) 0.38200(16) 0.4213(4)
H9_3 H 0.253799 0.351723 0.468030
C20_3 C 0.2919(5) 0.81522(19) 0.5003(3)
H10_3 H 0.229772 0.835674 0.530870
C21_3 C 0.3888(5) 0.50200(19) 0.1958(3)
H11_3 H 0.440804 0.481972 0.254435
C22_3 C 0.3967(5) 0.84402(17) 0.4655(3)
H12_3 H 0.403487 0.884414 0.473098
C23_2 C 0.5236(5) 0.6962(2) 0.7635(3)
H13_2 H 0.602925 0.719973 0.794761
C24_3 C 0.3051(6) 0.5111(2) 0.0137(3)
C25_3 C 0.3833(6) 0.48044(19) 0.0990(3)
H15_3 H 0.431451 0.445939 0.091519
C26_3 C 0.4302(5) 0.6771(2) 0.8184(3)
H16_3 H 0.448171 0.688327 0.887076
H17_3 H 0.0709521 0.50447 0.230721
H18_3 H 0.058273 0.329856 0.317296
H14_3 H 0.301171 0.496401 0.948648
N4_2 N 0.2658(4) 0.06125(15) 0.4800(2)
C1_4 C 0.1251(4) 0.22563(15) 0.0573(2)
C3_4 C 0.1496(4) 0.13703(16) 0.1698(2)
H1_4 H 0.137012 0.161232 0.222274
C4_4 C 0.2069(4) 0.04202(15) 0.1124(2)
C5_4 C 0.1799(4) 0.07771(15) 0.1910(2)
C6_4 C 0.1853(4) 0.06508(15) 0.0141(2)
C7_4 C 0.1833(4) 0.05356(15) 0.2947(2)
C8_4 C 0.1377(4) 0.16100(15) 0.0725(2)
C9_4 C 0.2574(4) 0.08168(16) 0.3852(3)
H3_4 H 0.304099 0.116841 0.379780
C13_4 C 0.0224(4) 0.25847(16) 0.0900(3)
C14_4 C 0.2193(4) 0.25474(17) 0.0112(3)
C21_4 C 0.1112(5) 0.00200(19) 0.3042(3)
C22_4 C 0.1033(5) 0.34402(17) 0.0345(3)
H12_4 H 0.096513 0.384414 0.026902
C24_4 C 0.1949(6) 0.0111(2) 0.4863(3)
H17_4 H 0.429048 0.00447025 0.269279
N3_4 N 0.1865(4) 0.14264(15) 0.7225(2)
H2_4 H 0.195218 0.040674 0.961190
C10_4 C 0.1204(4) 0.14402(15) 0.8828(2)
C11_4 C 0.0005(4) 0.18003(17) 0.8389(3)
H6_4 H 0.289124 0.234127 0.988295
C15_4 C 0.1491(4) 0.12358(15) 0.9921(3)
C16_4 C 0.2079(4) 0.12620(16) 0.8212(3)
H7_4 H 0.286179 0.101362 0.849871
C20_4 C 0.2081(5) 0.31522(19) 0.9997(3)
H10_4 H 0.270228 0.335674 0.969130
C26_4 C 0.0698(5) 0.1771(2) 0.6816(3)
H16_4 H 0.051829 0.188327 0.612924
C2_4 C 0.2656(4) 0.98134(15) 0.1315(2)
C12_4 C 0.3846(4) 0.96918(15) 0.2156(3)
C17_4 C 0.2130(4) 0.93643(17) 0.0618(3)
H8_4 H 0.134322 0.942965 0.004175
C18_4 C 0.3938(6) 0.87332(18) 0.1674(4)
C19_4 C 0.2784(5) 0.88200(16) 0.0787(4)
H9_4 H 0.246201 0.851723 0.031970
H11_4 H 0.059196 0.981972 0.245565
H14_4 H 0.198829 0.996401 0.551352
C25_4 C 0.1167(6) 0.98044(19) 0.4010(3)
H15_4 H 0.068549 0.945939 0.408481
H18_4 H 0.441727 0.829856 0.182704
H5_4 H 0.958966 0.239157 0.120973
H4_3 H 0.061606 0.807190 0.122540
C23_3 C 0.0236(5) 0.8038(2) 0.2635(3)
H13_3 H 0.102925 0.780027 0.294761
H4_4 H 0.938394 0.192810 0.877460
C23_4 C 0.9764(5) 0.1962(2) 0.7365(3)
H13_4 H 0.897075 0.219973 0.705239
F1 F 0.5392(5) 0.33137(13) 0.9305(3)
F2 F 0.5679(10) 0.2382(2) 0.9807(4)
F3 F 0.6841(6) 0.2701(2) 0.8672(4)
F4 F 0.4562(8) 0.2580(3) 0.8249(6)
B1 B 0.5717(7) 0.2749(2) 0.9071(4)
F4_2 F 0.0438(8) 0.7580(3) 0.6751(6)
F1_2 F 0.9608(5) 0.83137(13) 0.5695(3)
F2_2 F 0.9321(10) 0.7382(2) 0.5193(4)
F3_2 F 0.8159(6) 0.7701(2) 0.6328(4)
B1_2 B 0.9283(7) 0.7749(2) 0.5929(4)
F1_3 F 0.4608(5) 0.66863(13) 0.0695(3)
F2_3 F 0.4321(10) 0.7618(2) 0.0193(4)
F3_3 F 0.3159(6) 0.7299(2) 0.1328(4)
F4_3 F 0.5438(8) 0.7420(3) 0.1751(6)
B1_3 B 0.4283(7) 0.7251(2) 0.0929(4)
F1_4 F 0.0392(5) 0.16863(13) 0.4305(3)
F2_4 F 0.0679(10) 0.2618(2) 0.4807(4)
F3_4 F 0.1841(6) 0.2299(2) 0.3672(4)
B1_4 B 0.0717(7) 0.2251(2) 0.4071(4)
F4_4 F 0.9562(8) 0.2420(3) 0.3249(6)
loop_
_geom_bond_atom_site_label_1
_geom_bond_atom_site_label_2
_geom_bond_site_symmetry_1
_geom_bond_site_symmetry_2
Ag2 N3 1_555 1_555
N1 C13 1_555 1_555
N2 C12 1_555 1_555
N3 C16 1_555 1_555
N4 C9 1_555 1_555
C1 C8 1_555 1_555
C2 C4 1_555 1_555
C3 H1 1_555 1_555
C4 C5 1_555 1_555
C5 C3 1_555 1_555
C6 C4 1_555 1_555
H2 C6 1_555 1_555
C7 C5 1_555 1_555
C8 C3 1_555 1_555
C9 C7 1_555 1_555
H3 C9 1_555 1_555
C10 C11 1_555 1_555
C11 H4 1_555 1_555
C12 C2 1_555 1_555
C13 C1 1_555 1_555
H5 C13 1_555 1_555
C14 C1 1_555 1_555
H6 C14 1_555 1_555
C15 C6 1_555 1_555
C16 C10 1_555 1_555
H7 C16 1_555 1_555
C17 C2 1_555 1_555
H8 C17 1_555 1_555
C18 N2 1_555 1_555
C19 C17 1_555 1_555
H9 C19 1_555 1_555
C20 C14 1_555 1_555
H10 C20 1_555 1_555
C21 C7 1_555 1_555
H11 C21 1_555 1_555
C22 N1 1_555 1_555
H12 C22 1_555 1_555
C23 C11 1_555 1_555
H13 C23 1_555 1_555
C24 N4 1_555 1_555
C25 C21 1_555 1_555
H15 C25 1_555 1_555
C26 N3 1_555 1_555
H16 C26 1_555 1_555
Ag4 N1 1_555 1_555
C8 C15 1_555 1_555
C10 C15 1_555 1_555
C18 C19 1_555 1_555
C20 C22 1_555 1_555
C23 C26 1_555 1_555
C24 C25 1_555 1_555
C12 H17 1_555 1_555
C18 H18 1_555 1_555
N2_2 C12_2 1_555 1_555
C12_2 C2_2 1_555 1_555
C17_2 C2_2 1_555 1_555
H8_2 C17_2 1_555 1_555
C18_2 N2_2 1_555 1_555
C19_2 C17_2 1_555 1_555
H9_2 C19_2 1_555 1_555
H15_2 C25_2 1_555 1_555
Ag4 N2_2 1_555 1_555
C18_2 C19_2 1_555 1_555
C18_2 H18_2 1_555 1_555
Ag1 N3_2 1_555 1_555
N3_2 C16_2 1_555 1_555
C10_2 C11_2 1_555 1_555
C16_2 C10_2 1_555 1_555
H7_2 C16_2 1_555 1_555
H10_2 C20_2 1_555 1_555
C26_2 N3_2 1_555 1_555
H16_2 C26_2 1_555 1_555
N5_2 Ag1 1_555 1_555
N6_2 Ag1 1_555 1_555
N7 Ag1 1_555 1_555
C10_2 C15_2 1_555 1_555
N1_2 C13_2 1_555 1_555
N7 C9_2 1_555 1_555
C1_2 C8_2 1_555 1_555
C3_2 H1_2 1_555 1_555
C4_2 C5_2 1_555 1_555
C5_2 C3_2 1_555 1_555
C6_2 C4_2 1_555 1_555
C7_2 C5_2 1_555 1_555
C8_2 C3_2 1_555 1_555
C9_2 C7_2 1_555 1_555
H3_2 C9_2 1_555 1_555
C13_2 C1_2 1_555 1_555
C14_2 C1_2 1_555 1_555
C21_2 C7_2 1_555 1_555
C22_2 N1_2 1_555 1_555
H12_2 C22_2 1_555 1_555
C24_2 N7 1_555 1_555
Ag3 N3_3 1_555 1_555
N5_2 C13_3 1_555 1_555
N6 C12_3 1_555 1_555
N3_3 C16_3 1_555 1_555
N7_2 C9_3 1_555 1_555
C1_3 C8_3 1_555 1_555
C2_3 C4_3 1_555 1_555
C3_3 H1_3 1_555 1_555
C4_3 C5_3 1_555 1_555
C5_3 C3_3 1_555 1_555
C6_3 C4_3 1_555 1_555
H2_3 C6_3 1_555 1_555
C7_3 C5_3 1_555 1_555
C8_3 C3_3 1_555 1_555
C9_3 C7_3 1_555 1_555
H3_3 C9_3 1_555 1_555
C10_3 C11_3 1_555 1_555
C11_3 H4_2 1_555 1_555
C12_3 C2_3 1_555 1_555
C13_3 C1_3 1_555 1_555
H5_3 C13_3 1_555 1_555
C14_3 C1_3 1_555 1_555
H6_3 C14_3 1_555 1_555
C15_3 C6_3 1_555 1_555
C16_3 C10_3 1_555 1_555
H7_3 C16_3 1_555 1_555
C17_3 C2_3 1_555 1_555
H8_3 C17_3 1_555 1_555
C18_3 N6 1_555 1_555
C19_3 C17_3 1_555 1_555
H9_3 C19_3 1_555 1_555
C20_3 C14_3 1_555 1_555
H10_3 C20_3 1_555 1_555
C21_3 C7_3 1_555 1_555
H11_3 C21_3 1_555 1_555
C22_3 N5_2 1_555 1_555
H12_3 C22_3 1_555 1_555
C23_2 C11_3 1_555 1_555
H13_2 C23_2 1_555 1_555
C24_3 N7_2 1_555 1_555
C25_3 C21_3 1_555 1_555
H15_3 C25_3 1_555 1_555
C26_3 N3_3 1_555 1_555
H16_3 C26_3 1_555 1_555
C8_3 C15_3 1_555 1_555
C10_3 C15_3 1_555 1_555
C18_3 C19_3 1_555 1_555
C20_3 C22_3 1_555 1_555
C23_2 C26_3 1_555 1_555
C24_3 C25_3 1_555 1_555
C12_3 H17_3 1_555 1_555
C18_3 H18_3 1_555 1_555
N5 C13_4 1_555 1_555
N4_2 C9_4 1_555 1_555
C1_4 C8_4 1_555 1_555
C3_4 H1_4 1_555 1_555
C4_4 C5_4 1_555 1_555
C5_4 C3_4 1_555 1_555
C6_4 C4_4 1_555 1_555
C7_4 C5_4 1_555 1_555
C8_4 C3_4 1_555 1_555
C9_4 C7_4 1_555 1_555
H3_4 C9_4 1_555 1_555
C13_4 C1_4 1_555 1_555
C14_4 C1_4 1_555 1_555
C21_4 C7_4 1_555 1_555
C22_4 N5 1_555 1_555
H12_4 C22_4 1_555 1_555
C24_4 N4_2 1_555 1_555
Ag4 N4_2 1_555 1_555
Ag4 N3_4 1_555 1_555
N3_4 C16_4 1_555 1_555
C10_4 C11_4 1_555 1_555
C16_4 C10_4 1_555 1_555
H7_4 C16_4 1_555 1_555
H10_4 C20_4 1_555 1_555
C26_4 N3_4 1_555 1_555
H16_4 C26_4 1_555 1_555
C10_4 C15_4 1_555 1_555
N6_2 C12_4 1_555 1_555
C12_4 C2_4 1_555 1_555
C17_4 C2_4 1_555 1_555
H8_4 C17_4 1_555 1_555
C18_4 N6_2 1_555 1_555
C19_4 C17_4 1_555 1_555
H9_4 C19_4 1_555 1_555
H15_4 C25_4 1_555 1_555
C18_4 C19_4 1_555 1_555
C18_4 H18_4 1_555 1_555
H13_3 C23_3 1_555 1_555
H13_4 C23_4 1_555 1_555
F1 B1 1_555 1_555
F2 B1 1_555 1_555
F3 B1 1_555 1_555
F4 B1 1_555 1_555
F1_2 B1_2 1_555 1_555
F2_2 B1_2 1_555 1_555
F3_2 B1_2 1_555 1_555
F1_3 B1_3 1_555 1_555
F2_3 B1_3 1_555 1_555
F3_3 B1_3 1_555 1_555
F4_3 B1_3 1_555 1_555
F1_4 B1_4 1_555 1_555
F2_4 B1_4 1_555 1_555
F3_4 B1_4 1_555 1_555

#END
