
###############################################################################
#
# This file contains modified crystal structure data generated from the
# MOF subset of the Cambridge Structural Database (CSD) v543 
# hosted by the Cambridge Crystallographic Data Centre (CCDC).
#
# This work is licensed under the Creative Commons
# Attribution-NonCommercial-ShareAlike 4.0 International License.
# To view a copy of this license, visit
# http://creativecommons.org/licenses/by-nc-sa/4.0/
# or send a letter to
# Creative Commons, PO Box 1866, Mountain View, CA 94042, USA.
#
# CIF created using the CSD Python API on 29 September 2022
# The structure has been converted into the P1 space group
# The structure has a 3D framework
# The original CSD entry CAVWOO is in the tetragonal crystal system
# The original CSD entry CAVWOO is in a Sohncke space group
# The framework has been calculated to contain at least 10.0% void space
# The void calculation uses a probe of radius 1.32A, grid spacing 0.4
#
###############################################################################

data_CAVWOO
_chemical_formula_moiety         '(C72 H40 Dy8 O52)n'
_symmetry_cell_setting           triclinic
_symmetry_space_group_name_H-M   'P 1'
_symmetry_Int_Tables_number      1
_space_group_name_Hall           'P 1'
loop_
_symmetry_equiv_pos_site_id
_symmetry_equiv_pos_as_xyz
1 x,y,z
_cell_length_a                   14.2230(3)
_cell_length_b                   14.2230(3)
_cell_length_c                   14.4820(5)
_cell_angle_alpha                90
_cell_angle_beta                 90
_cell_angle_gamma                90
_cell_volume                     2929.62
loop_
_atom_site_label
_atom_site_type_symbol
_atom_site_fract_x
_atom_site_fract_y
_atom_site_fract_z
O3 O 0.5631(7) 0.0048(7) 0.6563(7)
Dy1 Dy 0.52102(4) 0.85217(4) 0.62946(3)
O1 O 0.4083(9) 0.7597(8) 0.5591(8)
O2 O 0.5654(11) 0.6895(9) 0.6401(9)
O4 O 0.3928(8) 0.9496(9) 0.6087(8)
O5 O 0.6744(7) 0.8489(8) 0.6825(6)
O6 O 0.6030(8) 0.8539(9) 0.4942(7)
O7 O 0.4560(9) 0.8164(11) 0.7710(7)
C1 C 0.3473(11) 0.7668(10) 0.4962(9)
H1 H 0.5622 0.6553 0.6900
H2 H 0.5871 0.6555 0.5948
C2 C 0.2761(9) 0.6940(10) 0.4938(8)
C3 C 0.2159(10) 0.6837(9) 0.4129(8)
C4 C 0.2528(11) 0.6408(11) 0.5708(9)
C5 C 0.1441(9) 0.6186(9) 0.4124(7)
H3 H 0.2260 0.7213 0.3613
C6 C 0.1780(9) 0.5768(10) 0.5734(9)
H4 H 0.2890 0.6481 0.6238
C7 C 0.1268(10) 0.5628(10) 0.4914(8)
C8 C 0.0785(11) 0.6075(11) 0.3305(11)
C9 C 0.1553(12) 0.5176(16) 0.6534(10)
H5 H 0.0809 0.5163 0.4891
O8 O 0.3489(8) 0.8256(7) 0.4325(6)
Dy2 Dy 0.35217(4) 0.97898(4) 0.37946(3)
O9 O 0.0048(7) 0.5631(7) 0.3437(7)
O10 O 0.1030(8) 0.6461(9) 0.2558(7)
O11 O 0.1072(8) 0.4496(9) 0.6413(8)
O12 O 0.1836(11) 0.5440(9) 0.7290(7)
Dy4 Dy 0.02102(4) 0.64783(4) 0.12054(3)
Dy6 Dy 0.14783(4) 0.47898(4) 0.87054(3)
Dy3 Dy 0.85217(4) 0.52102(4) 0.37054(3)
Dy5 Dy 0.97898(4) 0.35217(4) 0.62054(3)
Dy1_2 Dy 0.47898(4) 0.14783(4) 0.12946(3)
O1_2 O 0.5917(9) 0.2403(8) 0.0591(8)
O2_2 O 0.4346(11) 0.3105(9) 0.1401(9)
O4_2 O 0.6072(8) 0.0504(9) 0.1087(8)
O5_2 O 0.3256(7) 0.1511(8) 0.1825(6)
O7_2 O 0.5440(9) 0.1836(11) 0.2710(7)
H1_2 H 0.4378 0.3447 0.1900
H2_2 H 0.4129 0.3445 0.0948
C4_2 C 0.7472(11) 0.3592(11) 0.0708(9)
C6_2 C 0.8220(9) 0.4232(10) 0.0734(9)
H4_2 H 0.7110 0.3519 0.1238
C9_2 C 0.8447(12) 0.4824(16) 0.1534(10)
O11_2 O 0.8928(8) 0.5504(9) 0.1413(8)
O12_2 O 0.8164(11) 0.4560(9) 0.2290(7)
O6_2 O 0.3970(8) 0.1461(9) 0.9942(7)
C1_2 C 0.6527(11) 0.2332(10) 0.9962(9)
C2_2 C 0.7239(9) 0.3060(10) 0.9938(8)
C3_2 C 0.7841(10) 0.3163(9) 0.9129(8)
C5_2 C 0.8559(9) 0.3814(9) 0.9124(7)
H3_2 H 0.7740 0.2787 0.8613
C7_2 C 0.8732(10) 0.4372(10) 0.9914(8)
C8_2 C 0.9215(11) 0.3925(11) 0.8305(11)
H5_2 H 0.9191 0.4837 0.9891
O8_2 O 0.6511(8) 0.1744(7) 0.9325(6)
Dy2_2 Dy 0.64783(4) 0.02102(4) 0.87946(3)
O9_2 O 0.9952(7) 0.4369(7) 0.8437(7)
O10_2 O 0.8970(8) 0.3539(9) 0.7558(7)
O3_2 O 0.4369(7) 0.9952(7) 0.1563(7)
O11_3 O 0.0504(9) 0.6072(8) 0.8913(8)
O2_3 O 0.8105(9) 0.0654(11) 0.8901(9)
O3_3 O 0.4952(7) 0.0631(7) 0.9063(7)
O6_3 O 0.6461(9) 0.1030(8) 0.7442(7)
H1_3 H 0.8447 0.0622 0.9400
H2_3 H 0.8445 0.0871 0.8448
O7_3 O 0.6836(11) 0.9560(9) 0.0210(7)
O1_3 O 0.7403(8) 0.9083(9) 0.8091(8)
O4_3 O 0.5504(9) 0.8928(8) 0.8587(8)
C1_3 C 0.7332(10) 0.8473(11) 0.7462(9)
C2_3 C 0.8060(10) 0.7761(9) 0.7438(8)
C3_3 C 0.8163(9) 0.7159(10) 0.6629(8)
C4_3 C 0.8592(11) 0.7528(11) 0.8208(9)
C5_3 C 0.8814(9) 0.6441(9) 0.6624(7)
H3_3 H 0.7787 0.7260 0.6113
C6_3 C 0.9232(10) 0.6780(9) 0.8234(9)
H4_3 H 0.8519 0.7890 0.8738
C7_3 C 0.9372(10) 0.6268(10) 0.7414(8)
C8_3 C 0.8925(11) 0.5785(11) 0.5805(11)
C9_3 C 0.9824(16) 0.6553(12) 0.9034(10)
H5_3 H 0.9837 0.5809 0.7391
O9_3 O 0.9369(7) 0.5048(7) 0.5937(7)
O10_3 O 0.8539(9) 0.6030(8) 0.5058(7)
O12_3 O 0.9560(9) 0.6836(11) 0.9790(7)
O1_4 O 0.2597(8) 0.0917(9) 0.3091(8)
O4_4 O 0.4496(9) 0.1072(8) 0.3587(8)
O7_4 O 0.3164(11) 0.0440(9) 0.5210(7)
C1_4 C 0.2668(10) 0.1527(11) 0.2462(9)
C2_4 C 0.1940(10) 0.2239(9) 0.2438(8)
C3_4 C 0.1837(9) 0.2841(10) 0.1629(8)
C4_4 C 0.1408(11) 0.2472(11) 0.3208(9)
C5_4 C 0.1186(9) 0.3559(9) 0.1624(7)
H3_4 H 0.2213 0.2740 0.1113
C6_4 C 0.0768(10) 0.3220(9) 0.3234(9)
H4_4 H 0.1481 0.2110 0.3738
C7_4 C 0.0628(10) 0.3732(10) 0.2414(8)
C8_4 C 0.1075(11) 0.4215(11) 0.0805(11)
C9_4 C 0.0176(16) 0.3447(12) 0.4034(10)
H5_4 H 0.0163 0.4191 0.2391
O9_4 O 0.0631(7) 0.4952(7) 0.0937(7)
O10_4 O 0.1461(9) 0.3970(8) 0.0058(7)
O12_4 O 0.0440(9) 0.3164(11) 0.4790(7)
O2_4 O 0.1895(9) 0.9346(11) 0.3901(9)
O3_4 O 0.5048(7) 0.9369(7) 0.4063(7)
O6_4 O 0.3539(9) 0.8970(8) 0.2442(7)
H1_4 H 0.1553 0.9378 0.4400
H2_4 H 0.1555 0.9129 0.3448
O11_4 O 0.9496(9) 0.3928(8) 0.3913(8)
O1_5 O 0.0917(9) 0.2597(8) 0.6909(8)
C1_5 C 0.1527(11) 0.2668(10) 0.7538(9)
C2_5 C 0.2239(9) 0.1940(10) 0.7562(8)
C3_5 C 0.2841(10) 0.1837(9) 0.8371(8)
C4_5 C 0.2472(11) 0.1408(11) 0.6792(9)
C5_5 C 0.3559(9) 0.1186(9) 0.8376(7)
H3_5 H 0.2740 0.2213 0.8887
C6_5 C 0.3220(9) 0.0768(10) 0.6766(9)
H4_5 H 0.2110 0.1481 0.6262
C7_5 C 0.3732(10) 0.0628(10) 0.7586(8)
C8_5 C 0.4215(11) 0.1075(11) 0.9195(11)
C9_5 C 0.3447(12) 0.0176(16) 0.5966(10)
H5_5 H 0.4191 0.0163 0.7609
O8_3 O 0.1511(8) 0.3256(7) 0.8175(6)
O2_5 O 0.9346(11) 0.1895(9) 0.6099(9)
O5_3 O 0.8256(7) 0.3489(8) 0.5675(6)
H1_5 H 0.9378 0.1553 0.5600
H2_5 H 0.9129 0.1555 0.6552
O2_6 O 0.0654(11) 0.8105(9) 0.1099(9)
O5_4 O 0.1744(7) 0.6511(8) 0.0675(6)
H1_6 H 0.0622 0.8447 0.0600
H2_6 H 0.0871 0.8445 0.1552
O1_6 O 0.9083(9) 0.7403(8) 0.1909(8)
C1_6 C 0.8473(11) 0.7332(10) 0.2538(9)
C2_6 C 0.7761(9) 0.8060(10) 0.2562(8)
C3_6 C 0.7159(10) 0.8163(9) 0.3371(8)
C4_6 C 0.7528(11) 0.8592(11) 0.1792(9)
C5_6 C 0.6441(9) 0.8814(9) 0.3376(7)
H3_6 H 0.7260 0.7787 0.3887
C6_6 C 0.6780(9) 0.9232(10) 0.1766(9)
H4_6 H 0.7890 0.8519 0.1262
C7_6 C 0.6268(10) 0.9372(10) 0.2586(8)
C8_6 C 0.5785(11) 0.8925(11) 0.4195(11)
C9_6 C 0.6553(12) 0.9824(16) 0.0966(10)
H5_6 H 0.5809 0.9837 0.2609
O8_4 O 0.8489(8) 0.6744(7) 0.3175(6)
O1_7 O 0.7597(8) 0.4083(9) 0.4409(8)
O2_7 O 0.6895(9) 0.5654(11) 0.3599(9)
C1_7 C 0.7668(10) 0.3473(11) 0.5038(9)
H1_7 H 0.6553 0.5622 0.3100
H2_7 H 0.6555 0.5871 0.4052
C2_7 C 0.6940(10) 0.2761(9) 0.5062(8)
C3_7 C 0.6837(9) 0.2159(10) 0.5871(8)
C4_7 C 0.6408(11) 0.2528(11) 0.4292(9)
C5_7 C 0.6186(9) 0.1441(9) 0.5876(7)
H3_7 H 0.7213 0.2260 0.6387
C6_7 C 0.5768(10) 0.1780(9) 0.4266(9)
H4_7 H 0.6481 0.2890 0.3762
C7_7 C 0.5628(10) 0.1268(10) 0.5086(8)
C8_7 C 0.6075(11) 0.0785(11) 0.6695(11)
C9_7 C 0.5176(16) 0.1553(12) 0.3466(10)
H5_7 H 0.5163 0.0809 0.5109
C1_8 C 0.2332(10) 0.6527(11) 0.0038(9)
C2_8 C 0.3060(10) 0.7239(9) 0.0062(8)
C3_8 C 0.3163(9) 0.7841(10) 0.0871(8)
C5_8 C 0.3814(9) 0.8559(9) 0.0876(7)
H3_8 H 0.2787 0.7740 0.1387
C7_8 C 0.4372(10) 0.8732(10) 0.0086(8)
C8_8 C 0.3925(11) 0.9215(11) 0.1695(11)
H5_8 H 0.4837 0.9191 0.0109
O1_8 O 0.2403(8) 0.5917(9) 0.9409(8)
O2_8 O 0.3105(9) 0.4346(11) 0.8599(9)
H1_8 H 0.3447 0.4378 0.8100
H2_8 H 0.3445 0.4129 0.9052
C4_8 C 0.3592(11) 0.7472(11) 0.9292(9)
C6_8 C 0.4232(10) 0.8220(9) 0.9266(9)
H4_8 H 0.3519 0.7110 0.8762
C9_8 C 0.4824(16) 0.8447(12) 0.8466(10)
loop_
_geom_bond_atom_site_label_1
_geom_bond_atom_site_label_2
_geom_bond_site_symmetry_1
_geom_bond_site_symmetry_2
Dy1 O1 1_555 1_555
O1 C1 1_555 1_555
O2 Dy1 1_555 1_555
O4 Dy1 1_555 1_555
O5 Dy1 1_555 1_555
O6 Dy1 1_555 1_555
O7 Dy1 1_555 1_555
C1 C2 1_555 1_555
H1 O2 1_555 1_555
H2 O2 1_555 1_555
C2 C3 1_555 1_555
C3 C5 1_555 1_555
C4 C2 1_555 1_555
C5 C7 1_555 1_555
H3 C3 1_555 1_555
C6 C4 1_555 1_555
H4 C4 1_555 1_555
C7 C6 1_555 1_555
C8 C5 1_555 1_555
C9 C6 1_555 1_555
H5 C7 1_555 1_555
O8 C1 1_555 1_555
Dy2 O8 1_555 1_555
O9 C8 1_555 1_555
O10 C8 1_555 1_555
O11 C9 1_555 1_555
O12 C9 1_555 1_555
Dy4 O10 1_555 1_555
Dy6 O12 1_555 1_555
Dy1_2 O1_2 1_555 1_555
O2_2 Dy1_2 1_555 1_555
O4_2 Dy1_2 1_555 1_555
O5_2 Dy1_2 1_555 1_555
O7_2 Dy1_2 1_555 1_555
H1_2 O2_2 1_555 1_555
H2_2 O2_2 1_555 1_555
C6_2 C4_2 1_555 1_555
H4_2 C4_2 1_555 1_555
C9_2 C6_2 1_555 1_555
O11_2 C9_2 1_555 1_555
O12_2 C9_2 1_555 1_555
Dy3 O12_2 1_555 1_555
C1_2 C2_2 1_555 1_555
C2_2 C3_2 1_555 1_555
C3_2 C5_2 1_555 1_555
C5_2 C7_2 1_555 1_555
H3_2 C3_2 1_555 1_555
C8_2 C5_2 1_555 1_555
H5_2 C7_2 1_555 1_555
O8_2 C1_2 1_555 1_555
Dy2_2 O8_2 1_555 1_555
O9_2 C8_2 1_555 1_555
O10_2 C8_2 1_555 1_555
Dy5 O10_2 1_555 1_555
Dy6 O11_3 1_555 1_555
O2_3 Dy2_2 1_555 1_555
O3_3 Dy2_2 1_555 1_555
O6_3 Dy2_2 1_555 1_555
H1_3 O2_3 1_555 1_555
H2_3 O2_3 1_555 1_555
O1_3 C1_3 1_555 1_555
C1_3 C2_3 1_555 1_555
C2_3 C3_3 1_555 1_555
C3_3 C5_3 1_555 1_555
C4_3 C2_3 1_555 1_555
C5_3 C7_3 1_555 1_555
H3_3 C3_3 1_555 1_555
C6_3 C4_3 1_555 1_555
H4_3 C4_3 1_555 1_555
C7_3 C6_3 1_555 1_555
C8_3 C5_3 1_555 1_555
C9_3 C6_3 1_555 1_555
H5_3 C7_3 1_555 1_555
O5 C1_3 1_555 1_555
O9_3 C8_3 1_555 1_555
O10_3 C8_3 1_555 1_555
O12_3 C9_3 1_555 1_555
Dy5 O9_3 1_555 1_555
Dy3 O10_3 1_555 1_555
O1_4 C1_4 1_555 1_555
C1_4 C2_4 1_555 1_555
C2_4 C3_4 1_555 1_555
C3_4 C5_4 1_555 1_555
C4_4 C2_4 1_555 1_555
C5_4 C7_4 1_555 1_555
H3_4 C3_4 1_555 1_555
C6_4 C4_4 1_555 1_555
H4_4 C4_4 1_555 1_555
C7_4 C6_4 1_555 1_555
C8_4 C5_4 1_555 1_555
C9_4 C6_4 1_555 1_555
H5_4 C7_4 1_555 1_555
O5_2 C1_4 1_555 1_555
O9_4 C8_4 1_555 1_555
O10_4 C8_4 1_555 1_555
O12_4 C9_4 1_555 1_555
Dy4 O9_4 1_555 1_555
O2_4 Dy2 1_555 1_555
O3_4 Dy2 1_555 1_555
O6_4 Dy2 1_555 1_555
H1_4 O2_4 1_555 1_555
H2_4 O2_4 1_555 1_555
Dy3 O11_4 1_555 1_555
O1_5 C1_5 1_555 1_555
C1_5 C2_5 1_555 1_555
C2_5 C3_5 1_555 1_555
C3_5 C5_5 1_555 1_555
C4_5 C2_5 1_555 1_555
C5_5 C7_5 1_555 1_555
H3_5 C3_5 1_555 1_555
C6_5 C4_5 1_555 1_555
H4_5 C4_5 1_555 1_555
C7_5 C6_5 1_555 1_555
C8_5 C5_5 1_555 1_555
C9_5 C6_5 1_555 1_555
H5_5 C7_5 1_555 1_555
O8_3 C1_5 1_555 1_555
Dy6 O8_3 1_555 1_555
O3_3 C8_5 1_555 1_555
O6_2 C8_5 1_555 1_555
O7_4 C9_5 1_555 1_555
O2_5 Dy5 1_555 1_555
O5_3 Dy5 1_555 1_555
H1_5 O2_5 1_555 1_555
H2_5 O2_5 1_555 1_555
O2_6 Dy4 1_555 1_555
O5_4 Dy4 1_555 1_555
H1_6 O2_6 1_555 1_555
H2_6 O2_6 1_555 1_555
O1_6 C1_6 1_555 1_555
C1_6 C2_6 1_555 1_555
C2_6 C3_6 1_555 1_555
C3_6 C5_6 1_555 1_555
C4_6 C2_6 1_555 1_555
C5_6 C7_6 1_555 1_555
H3_6 C3_6 1_555 1_555
C6_6 C4_6 1_555 1_555
H4_6 C4_6 1_555 1_555
C7_6 C6_6 1_555 1_555
C8_6 C5_6 1_555 1_555
C9_6 C6_6 1_555 1_555
H5_6 C7_6 1_555 1_555
O8_4 C1_6 1_555 1_555
Dy3 O8_4 1_555 1_555
O3_4 C8_6 1_555 1_555
O6 C8_6 1_555 1_555
O7_3 C9_6 1_555 1_555
Dy3 O1_7 1_555 1_555
O1_7 C1_7 1_555 1_555
O2_7 Dy3 1_555 1_555
C1_7 C2_7 1_555 1_555
H1_7 O2_7 1_555 1_555
H2_7 O2_7 1_555 1_555
C2_7 C3_7 1_555 1_555
C3_7 C5_7 1_555 1_555
C4_7 C2_7 1_555 1_555
C5_7 C7_7 1_555 1_555
H3_7 C3_7 1_555 1_555
C6_7 C4_7 1_555 1_555
H4_7 C4_7 1_555 1_555
C7_7 C6_7 1_555 1_555
C8_7 C5_7 1_555 1_555
C9_7 C6_7 1_555 1_555
H5_7 C7_7 1_555 1_555
O5_3 C1_7 1_555 1_555
O3 C8_7 1_555 1_555
O6_3 C8_7 1_555 1_555
O4_4 C9_7 1_555 1_555
O7_2 C9_7 1_555 1_555
C1_8 C2_8 1_555 1_555
C2_8 C3_8 1_555 1_555
C3_8 C5_8 1_555 1_555
C5_8 C7_8 1_555 1_555
H3_8 C3_8 1_555 1_555
C8_8 C5_8 1_555 1_555
H5_8 C7_8 1_555 1_555
O5_4 C1_8 1_555 1_555
O3_2 C8_8 1_555 1_555
O6_4 C8_8 1_555 1_555
Dy6 O1_8 1_555 1_555
O2_8 Dy6 1_555 1_555
H1_8 O2_8 1_555 1_555
H2_8 O2_8 1_555 1_555
C6_8 C4_8 1_555 1_555
H4_8 C4_8 1_555 1_555
C9_8 C6_8 1_555 1_555
O4_3 C9_8 1_555 1_555
O7 C9_8 1_555 1_555

#END
