
###############################################################################
#
# This file contains modified crystal structure data generated from the
# MOF subset of the Cambridge Structural Database (CSD) v543 
# hosted by the Cambridge Crystallographic Data Centre (CCDC).
#
# This work is licensed under the Creative Commons
# Attribution-NonCommercial-ShareAlike 4.0 International License.
# To view a copy of this license, visit
# http://creativecommons.org/licenses/by-nc-sa/4.0/
# or send a letter to
# Creative Commons, PO Box 1866, Mountain View, CA 94042, USA.
#
# CIF created using the CSD Python API on 29 September 2022
# The structure has been converted into the P1 space group
# The structure has a 3D framework
# The original CSD entry CAWDOU is in the orthorhombic crystal system
# The original CSD entry CAWDOU is in a Sohncke space group
# The framework has been calculated to contain at least 10.0% void space
# The void calculation uses a probe of radius 1.32A, grid spacing 0.4
# The framework is charged, counterions have been retained in the structure
#
###############################################################################

data_CAWDOU
_chemical_formula_moiety         '(C96 H72 Cl4 Cu4 N30 O28 4+)n'
_symmetry_cell_setting           triclinic
_symmetry_space_group_name_H-M   'P 1'
_symmetry_Int_Tables_number      1
_space_group_name_Hall           'P 1'
loop_
_symmetry_equiv_pos_site_id
_symmetry_equiv_pos_as_xyz
1 x,y,z
_cell_length_a                   13.7327(14)
_cell_length_b                   16.4189(16)
_cell_length_c                   16.5975(16)
_cell_angle_alpha                90
_cell_angle_beta                 90
_cell_angle_gamma                90
_cell_volume                     3742.34
loop_
_atom_site_label
_atom_site_type_symbol
_atom_site_fract_x
_atom_site_fract_y
_atom_site_fract_z
H8 H 0.0092 0.7160 0.7927
N4 N 0.0044(4) 0.6005(4) 0.7625(4)
Cu2 Cu 0.12366(7) 0.56111(6) 0.82204(6)
H3 H 0.0088 0.3025 0.9534
C5 C 0.0509(6) 0.4062(5) 0.8978(5)
H4 H 0.1019 0.3809 0.8684
C13 C 0.2808(6) 0.5033(5) 0.9299(5)
H9 H 0.2491 0.5363 0.9689
C14 C 0.3649(6) 0.4600(4) 0.9515(4)
C15 C 0.4079(5) 0.4153(4) 0.8940(4)
C16 C 0.3740(5) 0.4090(4) 0.8183(5)
H11 H 0.4051 0.3761 0.7788
C17 C 0.2881(5) 0.4551(5) 0.8007(4)
H12 H 0.2619 0.4539 0.7478
C18 C 0.4969(5) 0.3663(4) 0.9144(5)
C19 C 0.6131(7) 0.2814(4) 0.8920(4)
C20 C 0.8086(6) 0.1416(5) 0.8346(5)
H13 H 0.8620 0.1150 0.8597
C21 C 0.7519(6) 0.1907(5) 0.8784(4)
H14 H 0.7672 0.1992 0.9336
C22 C 0.6714(7) 0.2296(5) 0.8459(5)
C23 C 0.6515(6) 0.2159(6) 0.7660(5)
H15 H 0.5967 0.2411 0.7415
C24 C 0.7098(7) 0.1666(6) 0.7223(6)
H16 H 0.6939 0.1577 0.6673
N1 N 0.0387(5) 0.4870(4) 0.8897(4)
N5 N 0.2447(5) 0.4990(4) 0.8562(4)
N6 N 0.5425(5) 0.3592(4) 0.9803(4)
N7 N 0.6190(6) 0.3073(4) 0.9670(4)
N8 N 0.7912(4) 0.1285(4) 0.7531(4)
O2 O 0.5346(4) 0.3194(3) 0.8549(3)
O3 O 0.1269(5) 0.6539(3) 0.9155(3)
H17 H 0.1410 0.7045 0.8996
H18 H 0.1078 0.6484 0.9647
Cu3 Cu 0.87634(7) 0.06111(6) 0.67796(6)
N10 N 0.2088(4) 0.6285(4) 0.7469(4)
H8_2 H 0.9908 0.2160 0.7073
N4_2 N 0.9956(4) 0.1005(4) 0.7375(4)
C13_2 C 0.7192(6) 0.0033(5) 0.5701(5)
H9_2 H 0.7509 0.0363 0.5311
O3_2 O 0.8731(5) 0.1539(3) 0.5845(3)
H17_2 H 0.8590 0.2045 0.6004
H18_2 H 0.8922 0.1484 0.5353
H3_2 H 0.9912 0.8025 0.5466
C5_2 C 0.9491(6) 0.9062(5) 0.6022(5)
H4_2 H 0.8981 0.8809 0.6316
C14_2 C 0.6351(6) 0.9600(4) 0.5485(4)
H10 H 0.6096 0.9623 0.4953
C15_2 C 0.5921(5) 0.9153(4) 0.6060(4)
C16_2 C 0.6260(5) 0.9090(4) 0.6817(5)
H11_2 H 0.5949 0.8761 0.7212
C17_2 C 0.7119(5) 0.9551(5) 0.6993(4)
H12_2 H 0.7381 0.9539 0.7522
C18_2 C 0.5031(5) 0.8663(4) 0.5856(5)
C19_2 C 0.3869(7) 0.7814(4) 0.6080(4)
C20_2 C 0.1914(6) 0.6416(5) 0.6654(5)
H13_2 H 0.1380 0.6150 0.6403
C21_2 C 0.2481(6) 0.6907(5) 0.6216(4)
H14_2 H 0.2328 0.6992 0.5664
C22_2 C 0.3286(7) 0.7296(5) 0.6541(5)
C23_2 C 0.3485(6) 0.7159(6) 0.7340(5)
H15_2 H 0.4033 0.7411 0.7585
C24_2 C 0.2902(7) 0.6666(6) 0.7777(6)
H16_2 H 0.3061 0.6577 0.8327
N1_2 N 0.9613(5) 0.9870(4) 0.6103(4)
N5_2 N 0.7553(5) 0.9990(4) 0.6438(4)
N6_2 N 0.4575(5) 0.8592(4) 0.5197(4)
N7_2 N 0.3810(6) 0.8073(4) 0.5330(4)
O2_2 O 0.4654(4) 0.8194(3) 0.6451(3)
Cu1 Cu 0.37634(7) 0.43889(6) 0.32204(6)
C1 C 0.5421(6) 0.4755(6) 0.4266(6)
H1 H 0.5556 0.4193 0.4190
C2 C 0.6016(6) 0.5244(5) 0.4749(6)
H2 H 0.6547 0.5001 0.5026
C3 C 0.5855(6) 0.6071(5) 0.4834(5)
C4 C 0.5061(5) 0.6415(4) 0.4459(4)
H3_3 H 0.4912 0.6975 0.4534
C5_3 C 0.4491(6) 0.5938(5) 0.3978(5)
H4_3 H 0.3981 0.6191 0.3684
C6 C 0.6503(5) 0.6512(4) 0.5353(4)
C7 C 0.7627(6) 0.6703(5) 0.6195(4)
C8 C 0.9600(7) 0.5464(6) 0.7154(6)
H5 H 0.9820 0.4915 0.7155
C9 C 0.8833(6) 0.5675(5) 0.6668(6)
H6 H 0.8541 0.5275 0.6332
C10 C 0.8488(5) 0.6443(4) 0.6662(4)
C11 C 0.8934(7) 0.7006(5) 0.7184(5)
H7 H 0.8684 0.7543 0.7236
C12 C 0.9745(6) 0.6765(5) 0.7622(5)
C13_3 C 0.2192(6) 0.4967(5) 0.4299(5)
H9_3 H 0.2509 0.4637 0.4689
C14_3 C 0.1351(6) 0.5400(4) 0.4515(4)
H10_2 H 0.1096 0.5377 0.5047
C15_3 C 0.0921(5) 0.5847(4) 0.3940(4)
C16_3 C 0.1260(5) 0.5910(4) 0.3183(5)
H11_3 H 0.0949 0.6239 0.2788
C17_3 C 0.2119(5) 0.5449(5) 0.3007(4)
H12_3 H 0.2381 0.5461 0.2478
C18_3 C 0.0031(5) 0.6337(4) 0.4144(5)
N1_3 N 0.4613(5) 0.5130(4) 0.3897(4)
N2 N 0.6496(5) 0.7259(4) 0.5573(4)
N3 N 0.7263(5) 0.7402(4) 0.6115(4)
N5_3 N 0.2553(5) 0.5010(4) 0.3562(4)
O1 O 0.7236(3) 0.6110(3) 0.5743(3)
O3_3 O 0.3731(5) 0.3461(3) 0.4155(3)
H17_3 H 0.3590 0.2955 0.3996
H18_3 H 0.3922 0.3516 0.4647
N9 N 0.4956(4) 0.3995(4) 0.2625(4)
N10_2 N 0.2912(4) 0.3715(4) 0.2469(4)
H2_2 H 0.8453 0.4999 0.0026
C6_2 C 0.8497(5) 0.3488(4) 0.0353(4)
C7_2 C 0.7373(6) 0.3297(5) 0.1195(4)
C8_2 C 0.5400(7) 0.4536(6) 0.2154(6)
H5_2 H 0.5180 0.5085 0.2155
C9_2 C 0.6167(6) 0.4325(5) 0.1668(6)
H6_2 H 0.6459 0.4725 0.1332
C10_2 C 0.6512(5) 0.3557(4) 0.1662(4)
C11_2 C 0.6066(7) 0.2994(5) 0.2184(5)
H7_2 H 0.6316 0.2457 0.2236
C12_2 C 0.5255(6) 0.3235(5) 0.2622(5)
H8_3 H 0.4908 0.2840 0.2927
N2_2 N 0.8504(5) 0.2741(4) 0.0573(4)
N3_2 N 0.7737(5) 0.2598(4) 0.1115(4)
O1_2 O 0.7764(3) 0.3890(3) 0.0743(3)
C19_3 C 0.1131(7) 0.2186(4) 0.1080(4)
C20_3 C 0.3086(6) 0.3584(5) 0.1654(5)
H13_3 H 0.3620 0.3850 0.1403
C21_3 C 0.2519(6) 0.3093(5) 0.1216(4)
H14_3 H 0.2672 0.3008 0.0664
C22_3 C 0.1714(7) 0.2704(5) 0.1541(5)
C23_3 C 0.1515(6) 0.2841(6) 0.2340(5)
H15_3 H 0.0967 0.2589 0.2585
C24_3 C 0.2098(7) 0.3334(6) 0.2777(6)
H16_3 H 0.1939 0.3423 0.3327
N6_3 N 0.0425(5) 0.1408(4) 0.0197(4)
N7_3 N 0.1190(6) 0.1927(4) 0.0330(4)
O2_3 O 0.0346(4) 0.1806(3) 0.1451(3)
C19_4 C 0.8869(7) 0.7186(4) 0.3920(4)
C20_4 C 0.6914(6) 0.8584(5) 0.3346(5)
H13_4 H 0.6380 0.8850 0.3597
C21_4 C 0.7481(6) 0.8093(5) 0.3784(4)
H14_4 H 0.7328 0.8008 0.4336
C22_4 C 0.8286(7) 0.7704(5) 0.3459(5)
C23_4 C 0.8485(6) 0.7841(6) 0.2660(5)
H15_4 H 0.9033 0.7589 0.2415
C24_4 C 0.7902(7) 0.8334(6) 0.2223(6)
H16_4 H 0.8061 0.8423 0.1673
N6_4 N 0.9575(5) 0.6408(4) 0.4803(4)
N7_4 N 0.8810(6) 0.6927(4) 0.4670(4)
N8_2 N 0.7088(4) 0.8715(4) 0.2531(4)
O2_4 O 0.9654(4) 0.6806(3) 0.3549(3)
Cu3_2 Cu 0.62366(7) 0.93889(6) 0.17796(6)
C1_2 C 0.4579(6) 0.9755(6) 0.0734(6)
H1_2 H 0.4444 0.9193 0.0810
C13_4 C 0.7808(6) 0.9967(5) 0.0701(5)
H9_4 H 0.7491 0.9637 0.0311
O3_4 O 0.6269(5) 0.8461(3) 0.0845(3)
H17_4 H 0.6410 0.7955 0.1004
H18_4 H 0.6078 0.8516 0.0353
N9_2 N 0.5044(4) 0.8995(4) 0.2375(4)
C2_2 C 0.1016(6) 0.9756(5) 0.5251(6)
H2_3 H 0.1547 0.9999 0.4974
C3_2 C 0.0855(6) 0.8929(5) 0.5166(5)
C4_2 C 0.0061(5) 0.8585(4) 0.5541(4)
C6_3 C 0.1503(5) 0.8488(4) 0.4647(4)
C7_3 C 0.2627(6) 0.8297(5) 0.3805(4)
C8_3 C 0.4600(7) 0.9536(6) 0.2846(6)
C9_3 C 0.3833(6) 0.9325(5) 0.3332(6)
H6_3 H 0.3541 0.9725 0.3668
C10_3 C 0.3488(5) 0.8557(4) 0.3338(4)
C11_3 C 0.3934(7) 0.7994(5) 0.2816(5)
H7_3 H 0.3684 0.7457 0.2764
C12_3 C 0.4745(6) 0.8235(5) 0.2378(5)
H8_4 H 0.5092 0.7840 0.2073
N2_3 N 0.1496(5) 0.7741(4) 0.4427(4)
N3_3 N 0.2263(5) 0.7598(4) 0.3885(4)
O1_3 O 0.2236(3) 0.8890(3) 0.4257(3)
H10_3 H 0.3904 0.4623 0.0047
C1_3 C 0.9579(6) 0.5245(6) 0.9266(6)
H1_3 H 0.9444 0.5807 0.9190
C2_3 C 0.8984(6) 0.4756(5) 0.9749(6)
C3_3 C 0.9145(6) 0.3929(5) 0.9834(5)
C4_3 C 0.9939(5) 0.3585(4) 0.9459(4)
C2_4 C 0.3984(6) 0.0244(5) 0.0251(6)
C3_4 C 0.4145(6) 0.1071(5) 0.0166(5)
C4_4 C 0.4939(5) 0.1415(4) 0.0541(4)
H3_4 H 0.5088 0.1975 0.0466
C5_4 C 0.5509(6) 0.0938(5) 0.1022(5)
H4_4 H 0.6019 0.1191 0.1316
C14_4 C 0.8649(6) 0.0400(4) 0.0485(4)
C15_4 C 0.9079(5) 0.0847(4) 0.1060(4)
C16_4 C 0.8740(5) 0.0910(4) 0.1817(5)
H11_4 H 0.9051 0.1239 0.2212
C17_4 C 0.7881(5) 0.0449(5) 0.1993(4)
H12_4 H 0.7619 0.0461 0.2522
C18_4 C 0.9969(5) 0.1337(4) 0.0856(5)
N1_4 N 0.5387(5) 0.0130(4) 0.1103(4)
N5_4 N 0.7447(5) 0.0010(4) 0.1438(4)
H2_4 H 0.3453 0.0001 0.9974
C6_4 C 0.3497(5) 0.1512(4) 0.9647(4)
C7_4 C 0.2373(6) 0.1703(5) 0.8805(4)
C8_4 C 0.0400(7) 0.0464(6) 0.7846(6)
C9_4 C 0.1167(6) 0.0675(5) 0.8332(6)
H6_4 H 0.1459 0.0275 0.8668
C10_4 C 0.1512(5) 0.1443(4) 0.8338(4)
C11_4 C 0.1066(7) 0.2006(5) 0.7816(5)
H7_4 H 0.1316 0.2543 0.7764
C12_4 C 0.0255(6) 0.1765(5) 0.7378(5)
H10_4 H 0.8904 0.0377 0.9953
N2_4 N 0.3504(5) 0.2259(4) 0.9427(4)
N3_4 N 0.2737(5) 0.2402(4) 0.8885(4)
O1_4 O 0.2764(3) 0.1110(3) 0.9257(3)
H5_3 H 0.0180 0.9915 0.7845
C1_4 C 0.0421(6) 0.0245(6) 0.5734(6)
H1_4 H 0.0556 0.0807 0.5810
H5_4 H 0.4820 0.0085 0.2845
Cl1 Cl 0.3779(11) 0.6242(10) 0.1283(9)
O4 O 0.4450(13) 0.6381(12) 0.1921(10)
O5 O 0.3512(16) 0.5391(9) 0.1291(13)
O6 O 0.2933(12) 0.6737(11) 0.1394(12)
O7 O 0.4256(14) 0.6398(14) 0.0528(9)
Cl1_2 Cl 0.1221(11) 0.3758(10) 0.6283(9)
O4_2 O 0.0550(13) 0.3619(12) 0.6921(10)
O5_2 O 0.1488(16) 0.4609(9) 0.6291(13)
O6_2 O 0.2067(12) 0.3263(11) 0.6394(12)
O7_2 O 0.0744(14) 0.3602(14) 0.5528(9)
Cl1_3 Cl 0.6221(11) 0.1242(10) 0.3717(9)
O4_3 O 0.5550(13) 0.1381(12) 0.3079(10)
O5_3 O 0.6488(16) 0.0391(9) 0.3709(13)
O6_3 O 0.7067(12) 0.1737(11) 0.3606(12)
O7_3 O 0.5744(14) 0.1398(14) 0.4472(9)
Cl1_4 Cl 0.8779(11) 0.8758(10) 0.8717(9)
O4_4 O 0.9450(13) 0.8619(12) 0.8079(10)
O5_4 O 0.8512(16) 0.9609(9) 0.8709(13)
O6_4 O 0.7933(12) 0.8263(11) 0.8606(12)
O7_4 O 0.9256(14) 0.8602(14) 0.9472(9)
loop_
_geom_bond_atom_site_label_1
_geom_bond_atom_site_label_2
_geom_bond_site_symmetry_1
_geom_bond_site_symmetry_2
Cu2 N4 1_555 1_555
Cu2 N1 1_555 1_555
H4 C5 1_555 1_555
C13 H9 1_555 1_555
C14 C13 1_555 1_555
C15 C14 1_555 1_555
C16 C15 1_555 1_555
H11 C16 1_555 1_555
C17 C16 1_555 1_555
H12 C17 1_555 1_555
C18 C15 1_555 1_555
C19 C22 1_555 1_555
C20 H13 1_555 1_555
C21 C20 1_555 1_555
H14 C21 1_555 1_555
C22 C21 1_555 1_555
C23 C22 1_555 1_555
H15 C23 1_555 1_555
C24 C23 1_555 1_555
H16 C24 1_555 1_555
N5 Cu2 1_555 1_555
N6 C18 1_555 1_555
N7 C19 1_555 1_555
N8 C20 1_555 1_555
O2 C18 1_555 1_555
O3 Cu2 1_555 1_555
H17 O3 1_555 1_555
H18 O3 1_555 1_555
Cu3 N8 1_555 1_555
N10 Cu2 1_555 1_555
C5 N1 1_555 1_555
C13 N5 1_555 1_555
C17 N5 1_555 1_555
C19 O2 1_555 1_555
C24 N8 1_555 1_555
N6 N7 1_555 1_555
Cu3 N4_2 1_555 1_555
C13_2 H9_2 1_555 1_555
O3_2 Cu3 1_555 1_555
H17_2 O3_2 1_555 1_555
H18_2 O3_2 1_555 1_555
H4_2 C5_2 1_555 1_555
H10 C14_2 1_555 1_555
C15_2 C14_2 1_555 1_555
C16_2 C15_2 1_555 1_555
H11_2 C16_2 1_555 1_555
C17_2 C16_2 1_555 1_555
H12_2 C17_2 1_555 1_555
C18_2 C15_2 1_555 1_555
C19_2 C22_2 1_555 1_555
C20_2 H13_2 1_555 1_555
C21_2 C20_2 1_555 1_555
H14_2 C21_2 1_555 1_555
C22_2 C21_2 1_555 1_555
C23_2 C22_2 1_555 1_555
H15_2 C23_2 1_555 1_555
C24_2 C23_2 1_555 1_555
H16_2 C24_2 1_555 1_555
N6_2 C18_2 1_555 1_555
N7_2 C19_2 1_555 1_555
N10 C20_2 1_555 1_555
O2_2 C18_2 1_555 1_555
C5_2 N1_2 1_555 1_555
C17_2 N5_2 1_555 1_555
C19_2 O2_2 1_555 1_555
C24_2 N10 1_555 1_555
N6_2 N7_2 1_555 1_555
Cu1 N1_3 1_555 1_555
C1 H1 1_555 1_555
C2 C1 1_555 1_555
H2 C2 1_555 1_555
C3 C2 1_555 1_555
C4 C3 1_555 1_555
H3_3 C4 1_555 1_555
C5_3 C4 1_555 1_555
H4_3 C5_3 1_555 1_555
C6 C3 1_555 1_555
C7 C10 1_555 1_555
C8 H5 1_555 1_555
C9 C8 1_555 1_555
H6 C9 1_555 1_555
C10 C9 1_555 1_555
C11 C10 1_555 1_555
H7 C11 1_555 1_555
C12 C11 1_555 1_555
C13_3 H9_3 1_555 1_555
C14_3 C13_3 1_555 1_555
H10_2 C14_3 1_555 1_555
C15_3 C14_3 1_555 1_555
C16_3 C15_3 1_555 1_555
H11_3 C16_3 1_555 1_555
C17_3 C16_3 1_555 1_555
H12_3 C17_3 1_555 1_555
C18_3 C15_3 1_555 1_555
N1_3 C1 1_555 1_555
N2 C6 1_555 1_555
N3 C7 1_555 1_555
N5_3 Cu1 1_555 1_555
O1 C6 1_555 1_555
O3_3 Cu1 1_555 1_555
H17_3 O3_3 1_555 1_555
H18_3 O3_3 1_555 1_555
N9 Cu1 1_555 1_555
N10_2 Cu1 1_555 1_555
C5_3 N1_3 1_555 1_555
C7 O1 1_555 1_555
C13_3 N5_3 1_555 1_555
C17_3 N5_3 1_555 1_555
N2 N3 1_555 1_555
C7_2 C10_2 1_555 1_555
C8_2 H5_2 1_555 1_555
C9_2 C8_2 1_555 1_555
H6_2 C9_2 1_555 1_555
C10_2 C9_2 1_555 1_555
C11_2 C10_2 1_555 1_555
H7_2 C11_2 1_555 1_555
C12_2 C11_2 1_555 1_555
H8_3 C12_2 1_555 1_555
N2_2 C6_2 1_555 1_555
N3_2 C7_2 1_555 1_555
N9 C8_2 1_555 1_555
O1_2 C6_2 1_555 1_555
C7_2 O1_2 1_555 1_555
C12_2 N9 1_555 1_555
N2_2 N3_2 1_555 1_555
C19_3 C22_3 1_555 1_555
C20_3 H13_3 1_555 1_555
C21_3 C20_3 1_555 1_555
H14_3 C21_3 1_555 1_555
C22_3 C21_3 1_555 1_555
C23_3 C22_3 1_555 1_555
H15_3 C23_3 1_555 1_555
C24_3 C23_3 1_555 1_555
H16_3 C24_3 1_555 1_555
N7_3 C19_3 1_555 1_555
N10_2 C20_3 1_555 1_555
C19_3 O2_3 1_555 1_555
C24_3 N10_2 1_555 1_555
N6_3 N7_3 1_555 1_555
C19_4 C22_4 1_555 1_555
C20_4 H13_4 1_555 1_555
C21_4 C20_4 1_555 1_555
H14_4 C21_4 1_555 1_555
C22_4 C21_4 1_555 1_555
C23_4 C22_4 1_555 1_555
H15_4 C23_4 1_555 1_555
C24_4 C23_4 1_555 1_555
H16_4 C24_4 1_555 1_555
N7_4 C19_4 1_555 1_555
N8_2 C20_4 1_555 1_555
Cu3_2 N8_2 1_555 1_555
C19_4 O2_4 1_555 1_555
C24_4 N8_2 1_555 1_555
N6_4 N7_4 1_555 1_555
C1_2 H1_2 1_555 1_555
C13_4 H9_4 1_555 1_555
O3_4 Cu3_2 1_555 1_555
H17_4 O3_4 1_555 1_555
H18_4 O3_4 1_555 1_555
N9_2 Cu3_2 1_555 1_555
H2_3 C2_2 1_555 1_555
C3_2 C2_2 1_555 1_555
C4_2 C3_2 1_555 1_555
C6_3 C3_2 1_555 1_555
C7_3 C10_3 1_555 1_555
C9_3 C8_3 1_555 1_555
H6_3 C9_3 1_555 1_555
C10_3 C9_3 1_555 1_555
C11_3 C10_3 1_555 1_555
H7_3 C11_3 1_555 1_555
C12_3 C11_3 1_555 1_555
H8_4 C12_3 1_555 1_555
N2_3 C6_3 1_555 1_555
N3_3 C7_3 1_555 1_555
N9_2 C8_3 1_555 1_555
O1_3 C6_3 1_555 1_555
C7_3 O1_3 1_555 1_555
C12_3 N9_2 1_555 1_555
N2_3 N3_3 1_555 1_555
C1_3 H1_3 1_555 1_555
C2_3 C1_3 1_555 1_555
C3_3 C2_3 1_555 1_555
C4_3 C3_3 1_555 1_555
C3_4 C2_4 1_555 1_555
C4_4 C3_4 1_555 1_555
H3_4 C4_4 1_555 1_555
C5_4 C4_4 1_555 1_555
H4_4 C5_4 1_555 1_555
C15_4 C14_4 1_555 1_555
C16_4 C15_4 1_555 1_555
H11_4 C16_4 1_555 1_555
C17_4 C16_4 1_555 1_555
H12_4 C17_4 1_555 1_555
C18_4 C15_4 1_555 1_555
C5_4 N1_4 1_555 1_555
C17_4 N5_4 1_555 1_555
C7_4 C10_4 1_555 1_555
C9_4 C8_4 1_555 1_555
H6_4 C9_4 1_555 1_555
C10_4 C9_4 1_555 1_555
C11_4 C10_4 1_555 1_555
H7_4 C11_4 1_555 1_555
C12_4 C11_4 1_555 1_555
N2_4 C6_4 1_555 1_555
N3_4 C7_4 1_555 1_555
O1_4 C6_4 1_555 1_555
C7_4 O1_4 1_555 1_555
N2_4 N3_4 1_555 1_555
C1_4 H1_4 1_555 1_555
Cl1 O4 1_555 1_555
O5 Cl1 1_555 1_555
O6 Cl1 1_555 1_555
O7 Cl1 1_555 1_555
Cl1_2 O4_2 1_555 1_555
O5_2 Cl1_2 1_555 1_555
O6_2 Cl1_2 1_555 1_555
O7_2 Cl1_2 1_555 1_555
Cl1_3 O4_3 1_555 1_555
O5_3 Cl1_3 1_555 1_555
O6_3 Cl1_3 1_555 1_555
O7_3 Cl1_3 1_555 1_555
Cl1_4 O4_4 1_555 1_555
O5_4 Cl1_4 1_555 1_555
O6_4 Cl1_4 1_555 1_555
O7_4 Cl1_4 1_555 1_555

#END
