
###############################################################################
#
# This file contains modified crystal structure data generated from the
# MOF subset of the Cambridge Structural Database (CSD) v543 
# hosted by the Cambridge Crystallographic Data Centre (CCDC).
#
# This work is licensed under the Creative Commons
# Attribution-NonCommercial-ShareAlike 4.0 International License.
# To view a copy of this license, visit
# http://creativecommons.org/licenses/by-nc-sa/4.0/
# or send a letter to
# Creative Commons, PO Box 1866, Mountain View, CA 94042, USA.
#
# CIF created using the CSD Python API on 29 September 2022
# The structure has been converted into the P1 space group
# The structure has a 3D framework
# The original CSD entry CAWDOU02 is in the tetragonal crystal system
# The original CSD entry CAWDOU02 is in a Sohncke space group
# The framework has been calculated to contain at least 10.0% void space
# The void calculation uses a probe of radius 1.32A, grid spacing 0.4
# The framework is charged, counterions have been retained in the structure
#
###############################################################################

data_CAWDOU02
_chemical_formula_moiety         '(C96 H72 Cu5 N32 O13 10+)n'
_symmetry_cell_setting           triclinic
_symmetry_space_group_name_H-M   'P 1'
_symmetry_Int_Tables_number      1
_space_group_name_Hall           'P 1'
loop_
_symmetry_equiv_pos_site_id
_symmetry_equiv_pos_as_xyz
1 x,y,z
_cell_length_a                   16.4355(6)
_cell_length_b                   16.4355(6)
_cell_length_c                   13.9077(6)
_cell_angle_alpha                90
_cell_angle_beta                 90
_cell_angle_gamma                90
_cell_volume                     3756.83
loop_
_atom_site_label
_atom_site_type_symbol
_atom_site_fract_x
_atom_site_fract_y
_atom_site_fract_z
Cu3 Cu 0.682614(16) 0.317386(16) 0.2500
C20 C 0.60307(14) 0.16467(14) 0.17775(16)
H14 H 0.6294 0.1400 0.2292
C21 C 0.55542(14) 0.11702(14) 0.11896(18)
H15 H 0.5498 0.0616 0.1305
C22 C 0.51582(13) 0.15359(14) 0.04187(16)
C23 C 0.52780(15) 0.23495(15) 0.02753(17)
C24 C 0.57530(15) 0.27863(15) 0.08950(17)
H17 H 0.5814 0.3342 0.0791
N8 N 0.61346(12) 0.24454(12) 0.16479(13)
Cu1 Cu 0.817386(16) 0.817386(16) 1.0000
C1 C 0.92824(15) 0.75239(15) 0.85016(17)
H1 H 0.9679 0.7813 0.8834
C2 C 0.95062(13) 0.70907(13) 0.77037(16)
C3 C 0.89270(12) 0.66421(12) 0.72235(14)
C4 C 0.81448(14) 0.66516(14) 0.75632(16)
H3 H 0.7742 0.6350 0.7257
C5 C 0.79598(15) 0.71063(15) 0.83541(17)
H4 H 0.7426 0.7108 0.8576
C6 C 0.91365(13) 0.61570(12) 0.63763(15)
C7 C 0.89365(13) 0.53617(13) 0.52114(14)
C8 C 0.83533(14) 0.39693(14) 0.32225(16)
H5 H 0.8600 0.3706 0.2708
C9 C 0.88298(14) 0.44458(14) 0.38104(18)
H6 H 0.9384 0.4502 0.3695
C10 C 0.84641(14) 0.48418(13) 0.45813(16)
C11 C 0.76505(15) 0.47220(15) 0.47247(17)
H7 H 0.7393 0.4965 0.5246
C12 C 0.72137(15) 0.42470(15) 0.41050(17)
H8 H 0.6658 0.4186 0.4209
N1 N 0.85134(10) 0.75481(11) 0.88230(12)
N2 N 0.98259(12) 0.60882(12) 0.59546(14)
N3 N 0.96985(12) 0.55522(12) 0.51792(15)
N4 N 0.75546(12) 0.38654(12) 0.33521(13)
O1 O 0.85382(9) 0.57143(8) 0.59634(9)
O2 O 0.91272(9) 0.91272(9) 1.0000
H9 H 0.9067 0.9648 0.9967
N10 N 0.74454(12) 0.88654(12) 0.91479(13)
C1_2 C 0.74761(15) 0.42824(15) 0.10016(17)
H1_2 H 0.7187 0.4679 0.1334
C2_2 C 0.79093(13) 0.45062(13) 0.02037(16)
C4_2 C 0.83484(14) 0.31448(14) 0.00632(16)
C5_2 C 0.78937(15) 0.29598(15) 0.08541(17)
H4_2 H 0.7892 0.2426 0.1076
N1_2 N 0.74519(11) 0.35134(10) 0.13230(12)
O2_2 O 0.58728(9) 0.41272(9) 0.2500
H9_2 H 0.5352 0.4067 0.2467
C13 C 0.57176(15) 0.25239(15) 0.39984(17)
H10 H 0.5321 0.2813 0.3666
C14 C 0.54938(13) 0.20907(13) 0.47963(16)
H11 H 0.4958 0.2099 0.5011
C15 C 0.60730(12) 0.16421(12) 0.52765(14)
C16 C 0.68552(14) 0.16516(14) 0.49368(16)
H12 H 0.7258 0.1350 0.5243
C17 C 0.70402(15) 0.21063(15) 0.41459(17)
H13 H 0.7574 0.2108 0.3924
C18 C 0.58635(13) 0.11570(12) 0.61237(15)
C19 C 0.60635(13) 0.03617(13) 0.72886(14)
N5 N 0.64866(10) 0.25481(11) 0.36770(12)
N6 N 0.51741(12) 0.10882(12) 0.65454(14)
N7 N 0.53015(12) 0.05522(12) 0.73208(15)
O3 O 0.64618(9) 0.07143(8) 0.65366(9)
H18 H 0.5933 0.4648 0.2533
C20_2 C 0.66467(14) 0.89693(14) 0.92775(16)
H14_2 H 0.6400 0.8706 0.9792
C21_2 C 0.61702(14) 0.94458(14) 0.86896(18)
H15_2 H 0.5616 0.9502 0.8805
C22_2 C 0.65359(14) 0.98418(13) 0.79187(16)
C23_2 C 0.73495(15) 0.97220(15) 0.77753(17)
H16 H 0.7607 0.9965 0.7254
C24_2 C 0.77863(15) 0.92470(15) 0.83950(17)
H17_2 H 0.8342 0.9186 0.8291
Cu1_2 Cu 0.182614(16) 0.182614(16) 0.5000
C1_3 C 0.07176(15) 0.24761(15) 0.35016(17)
H1_3 H 0.0321 0.2187 0.3834
C2_3 C 0.04938(13) 0.29093(13) 0.27037(16)
C3_2 C 0.10730(12) 0.33579(12) 0.22235(14)
C4_3 C 0.18552(14) 0.33484(14) 0.25632(16)
H3_2 H 0.2258 0.3650 0.2257
C5_3 C 0.20402(15) 0.28937(15) 0.33541(17)
H4_3 H 0.2574 0.2892 0.3576
C6_2 C 0.08635(13) 0.38430(12) 0.13763(15)
C7_2 C 0.10635(13) 0.46383(13) 0.02114(14)
H7_2 H 0.2607 0.5035 0.0246
N1_3 N 0.14866(10) 0.24519(11) 0.38230(12)
N2_2 N 0.01741(12) 0.39118(12) 0.09546(14)
N3_2 N 0.03015(12) 0.44478(12) 0.01792(15)
O1_2 O 0.14618(9) 0.42857(8) 0.09634(9)
O2_3 O 0.08728(9) 0.08728(9) 0.5000
H9_3 H 0.0933 0.0352 0.4967
C13_2 C 0.24761(15) 0.07176(15) 0.64984(17)
H10_2 H 0.2187 0.0321 0.6166
C14_2 C 0.29093(13) 0.04938(13) 0.72963(16)
C15_2 C 0.33579(12) 0.10730(12) 0.77765(14)
C16_2 C 0.33484(14) 0.18552(14) 0.74368(16)
H12_2 H 0.3650 0.2258 0.7743
C17_2 C 0.28937(15) 0.20402(15) 0.66459(17)
H13_2 H 0.2892 0.2574 0.6424
C18_2 C 0.38430(12) 0.08635(13) 0.86237(15)
C19_2 C 0.46383(13) 0.10635(13) 0.97886(14)
H16_2 H 0.5035 0.2607 0.9754
N5_2 N 0.24519(11) 0.14866(10) 0.61770(12)
N6_2 N 0.39118(12) 0.01741(12) 0.90454(14)
N7_2 N 0.44478(12) 0.03015(12) 0.98208(15)
N9 N 0.11346(12) 0.25546(12) 0.58521(13)
N10_2 N 0.25546(12) 0.11346(12) 0.41479(13)
O3_2 O 0.42857(8) 0.14618(9) 0.90366(9)
H18_2 H 0.0352 0.0933 0.5033
C20_3 C 0.33533(14) 0.10307(14) 0.42775(16)
H14_3 H 0.3600 0.1294 0.4792
C21_3 C 0.38298(14) 0.05542(14) 0.36896(18)
H15_3 H 0.4384 0.0498 0.3805
C22_3 C 0.34641(14) 0.01582(13) 0.29187(16)
C23_3 C 0.26505(15) 0.02780(15) 0.27753(17)
H16_3 H 0.2393 0.0035 0.2254
C24_3 C 0.22137(15) 0.07530(15) 0.33950(17)
H17_3 H 0.1658 0.0814 0.3291
C8_2 C 0.10307(14) 0.33533(14) 0.57225(16)
H5_2 H 0.1294 0.3600 0.5208
C9_2 C 0.05542(14) 0.38298(14) 0.63104(18)
H6_2 H 0.0498 0.4384 0.6195
C10_2 C 0.01582(13) 0.34641(14) 0.70813(16)
C11_2 C 0.02780(15) 0.26505(15) 0.72247(17)
H7_3 H 0.0035 0.2393 0.7746
C12_2 C 0.07530(15) 0.22137(15) 0.66050(17)
H8_2 H 0.0814 0.1658 0.6709
C8_3 C 0.16467(14) 0.60307(14) 0.82225(16)
H5_3 H 0.1400 0.6294 0.7708
C9_3 C 0.11702(14) 0.55542(14) 0.88104(18)
H6_3 H 0.0616 0.5498 0.8695
C10_3 C 0.15359(14) 0.51582(13) 0.95813(16)
C11_3 C 0.23495(15) 0.52780(15) 0.97247(17)
C12_3 C 0.27863(15) 0.57530(15) 0.91050(17)
H8_3 H 0.3342 0.5814 0.9209
N4_2 N 0.24454(12) 0.61346(12) 0.83521(13)
Cu2 Cu 0.317386(16) 0.682614(16) 0.7500
Cu1_3 Cu 0.817386(16) 0.817386(16) -0.0000
O2_4 O 0.91272(9) 0.91272(9) -0.0000
C13_3 C 0.75239(15) 0.92824(15) 0.14984(17)
H10_3 H 0.7813 0.9679 0.1166
C14_3 C 0.70907(13) 0.95062(13) 0.22963(16)
C15_3 C 0.66421(12) 0.89270(12) 0.27765(14)
C16_3 C 0.66516(14) 0.81448(14) 0.24368(16)
H12_3 H 0.6350 0.7742 0.2743
C17_3 C 0.71063(15) 0.79598(15) 0.16459(17)
H13_3 H 0.7108 0.7426 0.1424
C18_3 C 0.61570(12) 0.91365(13) 0.36237(15)
C19_3 C 0.53617(13) 0.89365(13) 0.47886(14)
C20_4 C 0.39693(14) 0.83533(14) 0.67775(16)
H14_4 H 0.3706 0.8600 0.7292
C21_4 C 0.44458(14) 0.88298(14) 0.61896(18)
H15_4 H 0.4502 0.9384 0.6305
C22_4 C 0.48418(13) 0.84641(14) 0.54187(16)
C23_4 C 0.47220(15) 0.76505(15) 0.52753(17)
H16_4 H 0.4965 0.7393 0.4754
C24_4 C 0.42470(15) 0.72137(15) 0.58950(17)
H17_4 H 0.4186 0.6658 0.5791
N5_3 N 0.75481(11) 0.85134(10) 0.11770(12)
N6_3 N 0.60882(12) 0.98259(12) 0.40454(14)
N7_3 N 0.55522(12) 0.96985(12) 0.48208(15)
N8_2 N 0.38654(12) 0.75546(12) 0.66479(13)
N9_2 N 0.88654(12) 0.74454(12) 0.08521(13)
O3_3 O 0.57143(8) 0.85382(9) 0.40366(9)
H18_3 H 0.9648 0.9067 0.0033
C1_4 C 0.25239(15) 0.57176(15) 0.60016(17)
H1_4 H 0.2813 0.5321 0.6334
C2_4 C 0.20907(13) 0.54938(13) 0.52037(16)
H2 H 0.2099 0.4958 0.4989
C3_3 C 0.16421(12) 0.60730(12) 0.47235(14)
C4_4 C 0.16516(14) 0.68552(14) 0.50632(16)
H3_3 H 0.1350 0.7258 0.4757
C5_4 C 0.21063(15) 0.70402(15) 0.58541(17)
H4_4 H 0.2108 0.7574 0.6076
C6_3 C 0.11570(12) 0.58635(13) 0.38763(15)
C7_3 C 0.03617(13) 0.60635(13) 0.27114(14)
N1_4 N 0.25481(11) 0.64866(10) 0.63230(12)
N2_3 N 0.10882(12) 0.51741(12) 0.34546(14)
N3_3 N 0.05522(12) 0.53015(12) 0.26792(15)
O1_3 O 0.07143(8) 0.64618(9) 0.34634(9)
O2_5 O 0.41272(9) 0.58728(9) 0.7500
H9_4 H 0.4648 0.5933 0.7467
C13_4 C 0.42824(15) 0.74761(15) 0.89984(17)
H10_4 H 0.4679 0.7187 0.8666
C14_4 C 0.45062(13) 0.79093(13) 0.97963(16)
C16_4 C 0.31448(14) 0.83484(14) 0.99368(16)
C17_4 C 0.29598(15) 0.78937(15) 0.91459(17)
H13_4 H 0.2426 0.7892 0.8924
N5_4 N 0.35134(10) 0.74519(11) 0.86770(12)
H18_4 H 0.4067 0.5352 0.7533
C8_4 C 0.89693(14) 0.66467(14) 0.07225(16)
H5_4 H 0.8706 0.6400 0.0208
C9_4 C 0.94458(14) 0.61702(14) 0.13104(18)
H6_4 H 0.9502 0.5616 0.1195
C10_4 C 0.98418(13) 0.65359(14) 0.20813(16)
C11_4 C 0.97220(15) 0.73495(15) 0.22247(17)
H7_4 H 0.9965 0.7607 0.2746
C12_4 C 0.92470(15) 0.77863(15) 0.16050(17)
H8_4 H 0.9186 0.8342 0.1709
H11_2 H 0.2901 0.9958 0.7511
H2_2 H 0.9958 0.2901 0.2489
H2_3 H 0.0042 0.7099 0.7489
H11_3 H 0.7099 0.0042 0.2511
H11_4 H 0.5042 0.7901 0.0011
C15_4 C 0.39270(12) 0.83579(12) 0.02765(14)
H12_4 H 0.2742 0.8650 0.0243
C18_4 C 0.41365(13) 0.88430(12) 0.11237(15)
C19_4 C 0.39365(13) 0.96383(13) 0.22886(14)
N6_4 N 0.48259(12) 0.89118(12) 0.15454(14)
N7_4 N 0.46985(12) 0.94478(12) 0.23208(15)
O3_4 O 0.35382(9) 0.92857(8) 0.15366(9)
H2_4 H 0.7901 0.5042 0.9989
C3_4 C 0.83579(12) 0.39270(12) 0.97235(14)
H3_4 H 0.8650 0.2742 0.9757
C6_4 C 0.88430(12) 0.41365(13) 0.88763(15)
C7_4 C 0.96383(13) 0.39365(13) 0.77114(14)
N2_4 N 0.89118(12) 0.48259(12) 0.84546(14)
N3_4 N 0.94478(12) 0.46985(12) 0.76792(15)
O1_4 O 0.92857(8) 0.35382(9) 0.84634(9)
loop_
_geom_bond_atom_site_label_1
_geom_bond_atom_site_label_2
_geom_bond_site_symmetry_1
_geom_bond_site_symmetry_2
Cu3 N8 1_555 1_555
C20 H14 1_555 1_555
C21 C20 1_555 1_555
H15 C21 1_555 1_555
C22 C21 1_555 1_555
C23 C22 1_555 1_555
C24 C23 1_555 1_555
H17 C24 1_555 1_555
N8 C20 1_555 1_555
C24 N8 1_555 1_555
Cu1 N1 1_555 1_555
C1 H1 1_555 1_555
C2 C1 1_555 1_555
C3 C2 1_555 1_555
C4 C3 1_555 1_555
H3 C4 1_555 1_555
C5 C4 1_555 1_555
H4 C5 1_555 1_555
C6 C3 1_555 1_555
C7 C10 1_555 1_555
C8 H5 1_555 1_555
C9 C8 1_555 1_555
H6 C9 1_555 1_555
C10 C9 1_555 1_555
C11 C10 1_555 1_555
H7 C11 1_555 1_555
C12 C11 1_555 1_555
H8 C12 1_555 1_555
N1 C1 1_555 1_555
N2 C6 1_555 1_555
N3 C7 1_555 1_555
N4 C8 1_555 1_555
O1 C6 1_555 1_555
O2 Cu1 1_555 1_555
H9 O2 1_555 1_555
Cu3 N4 1_555 1_555
N10 Cu1 1_555 1_555
C5 N1 1_555 1_555
C7 O1 1_555 1_555
C12 N4 1_555 1_555
N2 N3 1_555 1_555
Cu3 N1_2 1_555 1_555
C1_2 H1_2 1_555 1_555
C2_2 C1_2 1_555 1_555
C5_2 C4_2 1_555 1_555
H4_2 C5_2 1_555 1_555
N1_2 C1_2 1_555 1_555
O2_2 Cu3 1_555 1_555
H9_2 O2_2 1_555 1_555
C13 H10 1_555 1_555
C14 C13 1_555 1_555
H11 C14 1_555 1_555
C15 C14 1_555 1_555
C16 C15 1_555 1_555
H12 C16 1_555 1_555
C17 C16 1_555 1_555
H13 C17 1_555 1_555
C18 C15 1_555 1_555
N5 Cu3 1_555 1_555
N6 C18 1_555 1_555
N7 C19 1_555 1_555
O3 C18 1_555 1_555
H18 O2_2 1_555 1_555
C5_2 N1_2 1_555 1_555
C13 N5 1_555 1_555
C17 N5 1_555 1_555
C19 O3 1_555 1_555
N6 N7 1_555 1_555
C20_2 H14_2 1_555 1_555
C21_2 C20_2 1_555 1_555
H15_2 C21_2 1_555 1_555
C22_2 C21_2 1_555 1_555
C23_2 C22_2 1_555 1_555
H16 C23_2 1_555 1_555
C24_2 C23_2 1_555 1_555
H17_2 C24_2 1_555 1_555
N10 C20_2 1_555 1_555
C24_2 N10 1_555 1_555
Cu1_2 N1_3 1_555 1_555
C1_3 H1_3 1_555 1_555
C2_3 C1_3 1_555 1_555
C3_2 C2_3 1_555 1_555
C4_3 C3_2 1_555 1_555
H3_2 C4_3 1_555 1_555
C5_3 C4_3 1_555 1_555
H4_3 C5_3 1_555 1_555
C6_2 C3_2 1_555 1_555
N1_3 C1_3 1_555 1_555
N2_2 C6_2 1_555 1_555
N3_2 C7_2 1_555 1_555
O1_2 C6_2 1_555 1_555
O2_3 Cu1_2 1_555 1_555
H9_3 O2_3 1_555 1_555
C13_2 H10_2 1_555 1_555
C14_2 C13_2 1_555 1_555
C15_2 C14_2 1_555 1_555
C16_2 C15_2 1_555 1_555
H12_2 C16_2 1_555 1_555
C17_2 C16_2 1_555 1_555
H13_2 C17_2 1_555 1_555
C18_2 C15_2 1_555 1_555
N5_2 Cu1_2 1_555 1_555
N6_2 C18_2 1_555 1_555
N7_2 C19_2 1_555 1_555
N9 Cu1_2 1_555 1_555
N10_2 Cu1_2 1_555 1_555
O3_2 C18_2 1_555 1_555
H18_2 O2_3 1_555 1_555
C5_3 N1_3 1_555 1_555
C7_2 O1_2 1_555 1_555
N2_2 N3_2 1_555 1_555
C13_2 N5_2 1_555 1_555
C17_2 N5_2 1_555 1_555
C19_2 O3_2 1_555 1_555
N6_2 N7_2 1_555 1_555
C20_3 H14_3 1_555 1_555
C21_3 C20_3 1_555 1_555
H15_3 C21_3 1_555 1_555
C22_3 C21_3 1_555 1_555
C23_3 C22_3 1_555 1_555
H16_3 C23_3 1_555 1_555
C24_3 C23_3 1_555 1_555
H17_3 C24_3 1_555 1_555
N10_2 C20_3 1_555 1_555
C24_3 N10_2 1_555 1_555
C8_2 H5_2 1_555 1_555
C9_2 C8_2 1_555 1_555
H6_2 C9_2 1_555 1_555
C10_2 C9_2 1_555 1_555
C11_2 C10_2 1_555 1_555
H7_3 C11_2 1_555 1_555
C12_2 C11_2 1_555 1_555
H8_2 C12_2 1_555 1_555
N9 C8_2 1_555 1_555
C12_2 N9 1_555 1_555
C8_3 H5_3 1_555 1_555
C9_3 C8_3 1_555 1_555
H6_3 C9_3 1_555 1_555
C10_3 C9_3 1_555 1_555
C11_3 C10_3 1_555 1_555
C12_3 C11_3 1_555 1_555
H8_3 C12_3 1_555 1_555
N4_2 C8_3 1_555 1_555
Cu2 N4_2 1_555 1_555
C12_3 N4_2 1_555 1_555
O2_4 Cu1_3 1_555 1_555
Cu2 N8_2 1_555 1_555
C13_3 H10_3 1_555 1_555
C14_3 C13_3 1_555 1_555
C15_3 C14_3 1_555 1_555
C16_3 C15_3 1_555 1_555
H12_3 C16_3 1_555 1_555
C17_3 C16_3 1_555 1_555
H13_3 C17_3 1_555 1_555
C18_3 C15_3 1_555 1_555
C19_3 C22_4 1_555 1_555
C20_4 H14_4 1_555 1_555
C21_4 C20_4 1_555 1_555
H15_4 C21_4 1_555 1_555
C22_4 C21_4 1_555 1_555
C23_4 C22_4 1_555 1_555
H16_4 C23_4 1_555 1_555
C24_4 C23_4 1_555 1_555
H17_4 C24_4 1_555 1_555
N5_3 Cu1_3 1_555 1_555
N6_3 C18_3 1_555 1_555
N7_3 C19_3 1_555 1_555
N8_2 C20_4 1_555 1_555
N9_2 Cu1_3 1_555 1_555
O3_3 C18_3 1_555 1_555
H18_3 O2_4 1_555 1_555
C13_3 N5_3 1_555 1_555
C17_3 N5_3 1_555 1_555
C19_3 O3_3 1_555 1_555
C24_4 N8_2 1_555 1_555
N6_3 N7_3 1_555 1_555
Cu2 N1_4 1_555 1_555
C1_4 H1_4 1_555 1_555
C2_4 C1_4 1_555 1_555
H2 C2_4 1_555 1_555
C3_3 C2_4 1_555 1_555
C4_4 C3_3 1_555 1_555
H3_3 C4_4 1_555 1_555
C5_4 C4_4 1_555 1_555
H4_4 C5_4 1_555 1_555
C6_3 C3_3 1_555 1_555
N1_4 C1_4 1_555 1_555
N2_3 C6_3 1_555 1_555
N3_3 C7_3 1_555 1_555
O1_3 C6_3 1_555 1_555
O2_5 Cu2 1_555 1_555
H9_4 O2_5 1_555 1_555
C13_4 H10_4 1_555 1_555
C14_4 C13_4 1_555 1_555
C17_4 C16_4 1_555 1_555
H13_4 C17_4 1_555 1_555
N5_4 Cu2 1_555 1_555
H18_4 O2_5 1_555 1_555
C5_4 N1_4 1_555 1_555
C7_3 O1_3 1_555 1_555
N2_3 N3_3 1_555 1_555
C13_4 N5_4 1_555 1_555
C17_4 N5_4 1_555 1_555
C8_4 H5_4 1_555 1_555
C9_4 C8_4 1_555 1_555
H6_4 C9_4 1_555 1_555
C10_4 C9_4 1_555 1_555
C11_4 C10_4 1_555 1_555
H7_4 C11_4 1_555 1_555
C12_4 C11_4 1_555 1_555
H8_4 C12_4 1_555 1_555
N9_2 C8_4 1_555 1_555
C12_4 N9_2 1_555 1_555
C18_4 C15_4 1_555 1_555
N6_4 C18_4 1_555 1_555
N7_4 C19_4 1_555 1_555
O3_4 C18_4 1_555 1_555
C19_4 O3_4 1_555 1_555
N6_4 N7_4 1_555 1_555
C6_4 C3_4 1_555 1_555
N2_4 C6_4 1_555 1_555
N3_4 C7_4 1_555 1_555
O1_4 C6_4 1_555 1_555
C7_4 O1_4 1_555 1_555
N2_4 N3_4 1_555 1_555

#END
