####################################################################### 
# 
# This file contains crystal structure data downloaded from the 
# Cambridge Structural Database (CSD) hosted by the Cambridge 
# Crystallographic Data Centre (CCDC).
# 
# Full information about CCDC data access policies and citation 
# guidelines are available at http://www.ccdc.cam.ac.uk/access/V1 
# 
# Audit and citation data items may have been added by the CCDC. 
# Please retain this information to preserve the provenance of 
# this file and to allow appropriate attribution of the data. 
# 
#######################################################################

data_3034
_audit_block_doi                 10.5517/ccvtp2d
_database_code_depnum_ccdc_archive 'CCDC 799244'
loop_
_citation_id
_citation_doi
_citation_year
1 10.1039/C2DT12005D 2012
_audit_update_record             
;
2010-11-03 deposited with the CCDC.	2024-07-09 downloaded from the CCDC.
;
_chemical_name_mineral           ????
_cell_length_a                   20.9357(12)
_cell_length_b                   20.9357(12)
_cell_length_c                   34.8126(24)
_cell_angle_alpha                90
_cell_angle_beta                 90
_cell_angle_gamma                120
_cell_volume                     13214.2(18)
_symmetry_space_group_name_H-M   R-3m
loop_
_symmetry_equiv_pos_as_xyz
'-x, -x+y, -z'
'-x, -y, -z'
'-x+y, -x, z'
'-x+y, y, z'
'-y, -x, z'
'-y, x-y, z'
'y, -x+y, -z'
'y, x, -z'
'x-y, -y, -z'
'x-y, x, -z'
'x, y, z'
'x, x-y, z'
'-x-1/3, -x+y+1/3, -z+1/3'
'-x-1/3, -y+1/3, -z+1/3'
'-x+y-1/3, -x+1/3, z+1/3'
'-x+y-1/3, y+1/3, z+1/3'
'-y-1/3, -x+1/3, z+1/3'
'-y-1/3, x-y+1/3, z+1/3'
'y-1/3, -x+y+1/3, -z+1/3'
'y-1/3, x+1/3, -z+1/3'
'x-y-1/3, -y+1/3, -z+1/3'
'x-y-1/3, x+1/3, -z+1/3'
'x-1/3, y+1/3, z+1/3'
'x-1/3, x-y+1/3, z+1/3'
'-x+1/3, -x+y-1/3, -z-1/3'
'-x+1/3, -y-1/3, -z-1/3'
'-x+y+1/3, -x-1/3, z-1/3'
'-x+y+1/3, y-1/3, z-1/3'
'-y+1/3, -x-1/3, z-1/3'
'-y+1/3, x-y-1/3, z-1/3'
'y+1/3, -x+y-1/3, -z-1/3'
'y+1/3, x-1/3, -z-1/3'
'x-y+1/3, -y-1/3, -z-1/3'
'x-y+1/3, x-1/3, -z-1/3'
'x+1/3, y-1/3, z-1/3'
'x+1/3, x-y-1/3, z-1/3'
loop_
_atom_site_label
_atom_site_type_symbol
_atom_site_symmetry_multiplicity
_atom_site_fract_x
_atom_site_fract_y
_atom_site_fract_z
_atom_site_occupancy
_atom_site_B_iso_or_equiv
Al1 Al 0 0.27673(78) 0.07328(81) 0.51482(45) 1 1.23(21)
O1 O 0 0.3091(14) 0.1041(13) 0.56894(62) 1 1.23(21)
C1 C 0 0.3158(35) 0.1579(17) 0.5868(16) 1 1.23(21)
C2 C 0 0.3319(31) 0.1660(15) 0.6320(17) 1 1.23(21)
C3 C 0 0.3246(24) 0.1015(18) 0.64753(99) 1 1.23(21)
O2 O 0 0.35413(30) 0.05828(38) 0.51150(31) 1 1.23(21)
C4 C 0 0.3644(28) 0 0.5 1 1.23(21)
C5 C 0 0.4375(34) 0 0.5 1 1.23(21)
C6 C 0 0.4407(19) -0.0572(18) 0.4856(11) 1 1.23(21)
O3 O 0 0.3315(23) 0.1658(11) 0.5019(11) 1 1.23(21)
C7 C 0 0.3864(28) 0.1932(14) 0.4773(15) 1 1.23(21)
O4 O 0 0.2498(14) 0.0272(16) 0.47231(68) 1 1.23(21)
C8 C 0 0.2799(21) 0.0607(16) 0.4383(10) 1 1.23(21)
O5 O 0 0.1967(18) 0.09833(90) 0.52002 1 1.23(21)
C9 C 0 0.1111(16) 0.05555(79) 0.5401(11) 1 1.23(21)
N1 N 0 0.32927(60) 0.04213(60) 0.62283(31) 0.25 1.23(21)
N2 N 0 0.3714(56) -0.1246(5) 0.4712(33) 0.25 1.23(21)

