
###############################################################################
#
# This file contains modified crystal structure data generated from the
# MOF subset of the Cambridge Structural Database (CSD) v543 
# hosted by the Cambridge Crystallographic Data Centre (CCDC).
#
# This work is licensed under the Creative Commons
# Attribution-NonCommercial-ShareAlike 4.0 International License.
# To view a copy of this license, visit
# http://creativecommons.org/licenses/by-nc-sa/4.0/
# or send a letter to
# Creative Commons, PO Box 1866, Mountain View, CA 94042, USA.
#
# CIF created using the CSD Python API on 29 September 2022
# The structure has been converted into the P1 space group
# The structure has a 3D framework
# The original CSD entry CAXWIJ is in the rhombohedral crystal system
# The framework has been calculated to contain at least 10.0% void space
# The void calculation uses a probe of radius 1.32A, grid spacing 0.4
#
###############################################################################

data_CAXWIJ
_chemical_formula_moiety         '(C72 H18 Fe18 O90)n'
_symmetry_cell_setting           triclinic
_symmetry_space_group_name_H-M   'P 1'
_symmetry_Int_Tables_number      1
_space_group_name_Hall           'P 1'
loop_
_symmetry_equiv_pos_site_id
_symmetry_equiv_pos_as_xyz
1 x,y,z
_cell_length_a                   25.9538(15)
_cell_length_b                   25.9538(15)
_cell_length_c                   6.8539(9)
_cell_angle_alpha                90
_cell_angle_beta                 90
_cell_angle_gamma                120
_cell_volume                     3998.25
loop_
_atom_site_label
_atom_site_type_symbol
_atom_site_fract_x
_atom_site_fract_y
_atom_site_fract_z
Fe1 Fe 0.3800(4) 0.3480(6) 0.1439(23)
O1 O 0.3250(9) 0.2957(7) 0.3485(32)
O2 O 0.3031(9) 0.2258(11) 0.6020(22)
O3 O 0.3512(7) 0.2720(4) 0.0102(28)
C1 C 0.3161(13) 0.2441(9) 0.4001(25)
C2 C 0.3297(15) 0.2046(10) 0.2879(31)
C3 C 0.3457(10) 0.2258(8) 0.0918(30)
C4 C 0.3139(10) 0.1498(9) 0.3613(27)
H1 H 0.2988(17) 0.1395(16) 0.5184(33)
O4 O 0.468(1) 0.391(2) 0.284(4)
O5 O 0.485(5) 0.368(5) 0.098(9)
Fe3 Fe 0.3187(6) 0.3653(7) 0.4772(23)
Fe4 Fe 0.3013(7) 0.2867(4) 0.8106(23)
Fe8 Fe 0.3653(7) 0.0467(4) 0.5228(23)
O7 O 0.3040(11) 0.3417(9) 0.0152(32)
O12 O 0.3155(7) 0.0613(4) 0.3231(28)
O13 O 0.3947(4) 0.4125(8) 0.3435(28)
C6 C 0.3370(15) 0.1287(10) 0.0454(31)
C7 C 0.3210(10) 0.1075(8) 0.2415(30)
O6 O 0.3417(9) 0.0376(7) 0.9848(32)
O9 O 0.3636(9) 0.1075(11) 0.7313(22)
O10 O 0.4409(11) 0.4106(14) 0.9353(22)
C5 C 0.3506(13) 0.0892(9) 0.9332(25)
C8 C 0.3528(10) 0.1835(9) 0.9720(27)
H2 H 0.3679(17) 0.1938(16) 0.8149(33)
Fe2 Fe 0.2867(4) 0.9853(6) 0.1894(23)
O8 O 0.3626(11) 0.9917(9) 0.3182(32)
O11 O 0.2258(11) 0.9227(14) 0.3980(22)
O15 O 0.199(1) 0.942(2) 0.049(4)
O16 O 0.182(5) 0.965(5) 0.235(9)
Fe6 Fe 0.3480(6) 0.9680(7) 0.8561(23)
O14 O 0.2720(4) 0.9208(8) 0.9898(28)
Fe2_2 Fe 0.0147(6) 0.3013(7) 0.1894(23)
O8_2 O 0.0083(9) 0.3710(14) 0.3182(32)
O11_2 O 0.0773(14) 0.3031(18) 0.3980(22)
O15_2 O 0.058(2) 0.256(2) 0.049(4)
O16_2 O 0.035(5) 0.216(7) 0.235(9)
Fe6_2 Fe 0.0320(7) 0.3800(9) 0.8561(23)
O14_2 O 0.0792(8) 0.3512(9) 0.9898(28)
Fe1_2 Fe 0.6520(6) 0.0320(7) 0.1439(23)
O1_2 O 0.7043(7) 0.0293(11) 0.3485(32)
O2_2 O 0.7742(11) 0.0773(14) 0.6020(22)
O3_2 O 0.7280(4) 0.0792(8) 0.0102(28)
C1_2 C 0.7559(9) 0.0720(16) 0.4001(25)
C2_2 C 0.7954(10) 0.1251(18) 0.2879(31)
C3_2 C 0.7742(8) 0.1199(13) 0.0918(30)
C4_2 C 0.8502(9) 0.1641(13) 0.3613(27)
H1_2 H 0.8605(16) 0.1593(23) 0.5184(33)
O4_2 O 0.609(2) 0.077(2) 0.284(4)
O5_2 O 0.632(5) 0.117(7) 0.098(9)
Fe4_2 Fe 0.7133(4) 0.0147(8) 0.8106(23)
Fe8_2 Fe 0.9533(4) 0.3187(8) 0.5228(23)
O12_2 O 0.9387(4) 0.2541(8) 0.3231(28)
C6_2 C 0.8713(10) 0.2082(18) 0.0454(31)
C7_2 C 0.8925(8) 0.2134(13) 0.2415(30)
O6_2 O 0.9624(7) 0.3040(11) 0.9848(32)
O9_2 O 0.8925(11) 0.2560(14) 0.7313(22)
O10_2 O 0.5894(14) 0.0302(18) 0.9353(22)
C5_2 C 0.9108(9) 0.2613(16) 0.9332(25)
C8_2 C 0.8165(9) 0.1692(13) 0.9720(27)
H2_2 H 0.8062(16) 0.1740(23) 0.8149(33)
Fe3_2 Fe 0.6347(7) 0.9533(9) 0.4772(23)
O7_2 O 0.6583(9) 0.9624(14) 0.0152(32)
O13_2 O 0.5875(8) 0.9821(9) 0.3435(28)
Fe3_3 Fe 0.0467(9) 0.6813(6) 0.4772(23)
O7_3 O 0.0376(14) 0.6960(11) 0.0152(32)
O13_3 O 0.0179(9) 0.6053(4) 0.3435(28)
Fe1_3 Fe 0.9680(7) 0.6200(4) 0.1439(23)
O1_3 O 0.9707(11) 0.6750(9) 0.3485(32)
O2_3 O 0.9227(14) 0.6969(9) 0.6020(22)
O3_3 O 0.9208(8) 0.6488(7) 0.0102(28)
C1_3 C 0.9280(16) 0.6839(13) 0.4001(25)
C2_3 C 0.8749(18) 0.6703(15) 0.2879(31)
C3_3 C 0.8801(13) 0.6543(10) 0.0918(30)
C4_3 C 0.8359(13) 0.6861(10) 0.3613(27)
H1_3 H 0.8407(23) 0.7012(17) 0.5184(33)
O4_3 O 0.923(2) 0.532(1) 0.284(4)
O5_3 O 0.883(7) 0.515(5) 0.098(9)
Fe2_3 Fe 0.6987(7) 0.7133(4) 0.1894(23)
Fe4_3 Fe 0.9853(8) 0.6987(7) 0.8106(23)
Fe8_3 Fe 0.6813(8) 0.6347(7) 0.5228(23)
O8_3 O 0.6290(14) 0.6374(11) 0.3182(32)
O11_3 O 0.6969(18) 0.7742(11) 0.3980(22)
O12_3 O 0.7459(8) 0.6845(7) 0.3231(28)
C6_3 C 0.7918(18) 0.6630(15) 0.0454(31)
C7_3 C 0.7866(13) 0.6790(10) 0.2415(30)
O15_3 O 0.744(2) 0.801(1) 0.049(4)
O16_3 O 0.784(7) 0.818(5) 0.235(9)
Fe6_3 Fe 0.6200(9) 0.6520(6) 0.8561(23)
O6_3 O 0.6960(11) 0.6583(9) 0.9848(32)
O9_3 O 0.7440(14) 0.6364(9) 0.7313(22)
O10_3 O 0.9698(18) 0.5591(11) 0.9353(22)
O14_3 O 0.6488(9) 0.7280(4) 0.9898(28)
C5_3 C 0.7387(16) 0.6494(13) 0.9332(25)
C8_3 C 0.8308(13) 0.6472(10) 0.9720(27)
H2_3 H 0.8260(23) 0.6321(17) 0.8149(33)
O4_4 O 0.801(1) 0.058(2) 0.951(4)
O5_4 O 0.818(5) 0.035(5) 0.765(9)
O7_4 O 0.6374(11) 0.0083(9) 0.6818(32)
O2_4 O 0.6364(9) 0.8925(11) 0.2687(22)
C1_4 C 0.6494(13) 0.9108(9) 0.0668(25)
C4_4 C 0.6472(10) 0.8165(9) 0.0280(27)
H1_4 H 0.6321(17) 0.8062(16) 0.1851(33)
O11_4 O 0.5591(11) 0.5894(14) 0.0647(22)
O3_4 O 0.6845(7) 0.9387(4) 0.6769(28)
C2_4 C 0.6630(15) 0.8713(10) 0.9546(31)
C3_4 C 0.6790(10) 0.8925(8) 0.7585(30)
O6_4 O 0.6750(9) 0.7043(7) 0.6515(32)
O14_4 O 0.6053(4) 0.5875(8) 0.6565(28)
C5_4 C 0.6839(13) 0.7559(9) 0.5999(25)
C6_4 C 0.6703(15) 0.7954(10) 0.7121(31)
C7_4 C 0.6543(10) 0.7742(8) 0.9082(30)
C8_4 C 0.6861(10) 0.8502(9) 0.6387(27)
H2_4 H 0.7012(17) 0.8605(16) 0.4816(33)
O15_4 O 0.532(1) 0.609(2) 0.716(4)
O16_4 O 0.515(5) 0.632(5) 0.902(9)
O14_5 O 0.4125(8) 0.0179(9) 0.6565(28)
O2_5 O 0.1075(11) 0.7440(14) 0.2687(22)
C1_5 C 0.0892(9) 0.7387(16) 0.0668(25)
C4_5 C 0.1835(9) 0.8308(13) 0.0280(27)
H1_5 H 0.1938(16) 0.8260(23) 0.1851(33)
O11_5 O 0.4106(14) 0.9698(18) 0.0647(22)
O3_5 O 0.0613(4) 0.7459(8) 0.6769(28)
C2_5 C 0.1287(10) 0.7918(18) 0.9546(31)
C3_5 C 0.1075(8) 0.7866(13) 0.7585(30)
O6_5 O 0.2957(7) 0.9707(11) 0.6515(32)
C5_5 C 0.2441(9) 0.9280(16) 0.5999(25)
C6_5 C 0.2046(10) 0.8749(18) 0.7121(31)
C7_5 C 0.2258(8) 0.8801(13) 0.9082(30)
C8_5 C 0.1498(9) 0.8359(13) 0.6387(27)
H2_5 H 0.1395(16) 0.8407(23) 0.4816(33)
O15_5 O 0.391(2) 0.923(2) 0.716(4)
O16_5 O 0.368(5) 0.883(7) 0.902(9)
O4_5 O 0.942(2) 0.744(2) 0.951(4)
O5_5 O 0.965(5) 0.784(7) 0.765(9)
O7_5 O 0.9917(9) 0.6290(14) 0.6818(32)
O2_6 O 0.2560(14) 0.3636(9) 0.2687(22)
C1_6 C 0.2613(16) 0.3506(13) 0.0668(25)
C4_6 C 0.1692(13) 0.3528(10) 0.0280(27)
H1_6 H 0.1740(23) 0.3679(17) 0.1851(33)
O11_6 O 0.0302(18) 0.4409(11) 0.0647(22)
O3_6 O 0.2541(8) 0.3155(7) 0.6769(28)
C2_6 C 0.2082(18) 0.3370(15) 0.9546(31)
C3_6 C 0.2134(13) 0.3210(10) 0.7585(30)
O4_6 O 0.256(2) 0.199(1) 0.951(4)
O5_6 O 0.216(7) 0.182(5) 0.765(9)
O6_6 O 0.0293(11) 0.3250(9) 0.6515(32)
O7_6 O 0.3710(14) 0.3626(11) 0.6818(32)
C5_6 C 0.0720(16) 0.3161(13) 0.5999(25)
C6_6 C 0.1251(18) 0.3297(15) 0.7121(31)
C7_6 C 0.1199(13) 0.3457(10) 0.9082(30)
C8_6 C 0.1641(13) 0.3139(10) 0.6387(27)
H2_6 H 0.1593(23) 0.2988(17) 0.4816(33)
O15_6 O 0.077(2) 0.468(1) 0.716(4)
O16_6 O 0.117(7) 0.485(5) 0.902(9)
O14_6 O 0.9821(9) 0.3947(4) 0.6565(28)
C3_7 C 0.0124(10) 0.5591(8) 0.4251(30)
O4_7 O 0.135(1) 0.724(2) 0.617(4)
O5_7 O 0.152(5) 0.701(5) 0.431(9)
C5_7 C 0.0172(13) 0.4226(9) 0.2666(25)
C6_7 C 0.0036(15) 0.4621(10) 0.3788(31)
C8_7 C 0.0194(10) 0.5169(9) 0.3054(27)
H2_7 H 0.0345(17) 0.5272(16) 0.1483(33)
C1_7 C 0.9828(13) 0.5774(9) 0.7334(25)
C2_7 C 0.9964(15) 0.5379(10) 0.6212(31)
C4_7 C 0.9806(10) 0.4831(9) 0.6946(27)
H1_7 H 0.9655(17) 0.4728(16) 0.8517(33)
C7_7 C 0.9876(10) 0.4409(8) 0.5749(30)
O15_7 O 0.865(1) 0.276(2) 0.383(4)
O16_7 O 0.848(5) 0.299(5) 0.569(9)
C1_8 C 0.4226(9) 0.4053(16) 0.7334(25)
C2_8 C 0.4621(10) 0.4584(18) 0.6212(31)
C3_8 C 0.4409(8) 0.4532(13) 0.4251(30)
C4_8 C 0.5169(9) 0.4974(13) 0.6946(27)
H1_8 H 0.5272(16) 0.4926(23) 0.8517(33)
O4_8 O 0.276(2) 0.410(2) 0.617(4)
O5_8 O 0.299(5) 0.450(7) 0.431(9)
C5_8 C 0.5774(9) 0.5947(16) 0.2666(25)
C6_8 C 0.5379(10) 0.5416(18) 0.3788(31)
C7_8 C 0.5591(8) 0.5468(13) 0.5749(30)
C8_8 C 0.4831(9) 0.5026(13) 0.3054(27)
H2_8 H 0.4728(16) 0.5074(23) 0.1483(33)
O15_8 O 0.724(2) 0.590(2) 0.383(4)
O16_8 O 0.701(5) 0.550(7) 0.569(9)
C1_9 C 0.5947(16) 0.0172(13) 0.7334(25)
C2_9 C 0.5416(18) 0.0036(15) 0.6212(31)
C4_9 C 0.5026(13) 0.0194(10) 0.6946(27)
H1_9 H 0.5074(23) 0.0345(17) 0.8517(33)
C7_9 C 0.4532(13) 0.0124(10) 0.5749(30)
O15_9 O 0.410(2) 0.135(1) 0.383(4)
O16_9 O 0.450(7) 0.152(5) 0.569(9)
C3_9 C 0.5468(13) 0.9876(10) 0.4251(30)
O4_9 O 0.590(2) 0.865(1) 0.617(4)
O5_9 O 0.550(7) 0.848(5) 0.431(9)
C5_9 C 0.4053(16) 0.9828(13) 0.2666(25)
C6_9 C 0.4584(18) 0.9964(15) 0.3788(31)
C8_9 C 0.4974(13) 0.9806(10) 0.3054(27)
H2_9 H 0.4926(23) 0.9655(17) 0.1483(33)
loop_
_geom_bond_atom_site_label_1
_geom_bond_atom_site_label_2
_geom_bond_site_symmetry_1
_geom_bond_site_symmetry_2
Fe1 O1 1_555 1_555
O1 C1 1_555 1_555
O2 C1 1_555 1_555
O3 Fe1 1_555 1_555
C1 C2 1_555 1_555
C2 C3 1_555 1_555
C3 O3 1_555 1_555
C4 C2 1_555 1_555
H1 C4 1_555 1_555
O4 Fe1 1_555 1_555
O5 Fe1 1_555 1_555
Fe3 O1 1_555 1_555
Fe4 O2 1_555 1_555
O7 Fe1 1_555 1_555
O13 Fe1 1_555 1_555
C6 C7 1_555 1_555
C7 C4 1_555 1_555
O4 O5 1_555 1_555
Fe3 O13 1_555 1_555
Fe8 O12 1_555 1_555
O12 C7 1_555 1_555
Fe8 O9 1_555 1_555
O6 C5 1_555 1_555
O9 C5 1_555 1_555
H2 C8 1_555 1_555
O8 Fe2 1_555 1_555
O11 Fe2 1_555 1_555
O15 Fe2 1_555 1_555
O16 Fe2 1_555 1_555
O15 O16 1_555 1_555
Fe6 O14 1_555 1_555
O8_2 Fe2_2 1_555 1_555
O11_2 Fe2_2 1_555 1_555
O15_2 Fe2_2 1_555 1_555
O16_2 Fe2_2 1_555 1_555
O15_2 O16_2 1_555 1_555
Fe6_2 O14_2 1_555 1_555
Fe1_2 O1_2 1_555 1_555
O1_2 C1_2 1_555 1_555
O2_2 C1_2 1_555 1_555
O3_2 Fe1_2 1_555 1_555
C1_2 C2_2 1_555 1_555
C2_2 C3_2 1_555 1_555
C3_2 O3_2 1_555 1_555
C4_2 C2_2 1_555 1_555
H1_2 C4_2 1_555 1_555
O4_2 Fe1_2 1_555 1_555
O5_2 Fe1_2 1_555 1_555
Fe4_2 O2_2 1_555 1_555
C6_2 C7_2 1_555 1_555
C7_2 C4_2 1_555 1_555
O4_2 O5_2 1_555 1_555
Fe8_2 O12_2 1_555 1_555
O12_2 C7_2 1_555 1_555
Fe8_2 O9_2 1_555 1_555
O6_2 C5_2 1_555 1_555
O9_2 C5_2 1_555 1_555
H2_2 C8_2 1_555 1_555
Fe3_2 O13_2 1_555 1_555
Fe3_3 O13_3 1_555 1_555
Fe1_3 O1_3 1_555 1_555
O1_3 C1_3 1_555 1_555
O2_3 C1_3 1_555 1_555
O3_3 Fe1_3 1_555 1_555
C1_3 C2_3 1_555 1_555
C2_3 C3_3 1_555 1_555
C3_3 O3_3 1_555 1_555
C4_3 C2_3 1_555 1_555
H1_3 C4_3 1_555 1_555
O4_3 Fe1_3 1_555 1_555
O5_3 Fe1_3 1_555 1_555
Fe4_3 O2_3 1_555 1_555
Fe8_3 O8_3 1_555 1_555
O8_3 Fe2_3 1_555 1_555
O11_3 Fe2_3 1_555 1_555
O12_3 Fe2_3 1_555 1_555
C6_3 C7_3 1_555 1_555
C7_3 C4_3 1_555 1_555
O15_3 Fe2_3 1_555 1_555
O16_3 Fe2_3 1_555 1_555
O4_3 O5_3 1_555 1_555
Fe8_3 O12_3 1_555 1_555
O12_3 C7_3 1_555 1_555
O15_3 O16_3 1_555 1_555
Fe6_3 O6_3 1_555 1_555
Fe8_3 O9_3 1_555 1_555
O6_3 C5_3 1_555 1_555
O9_3 C5_3 1_555 1_555
H2_3 C8_3 1_555 1_555
Fe6_3 O14_3 1_555 1_555
O4_4 Fe4_2 1_555 1_555
O5_4 Fe4_2 1_555 1_555
O7_4 Fe4_2 1_555 1_555
O4_4 O5_4 1_555 1_555
O7_2 C1_4 1_555 1_555
O2_4 C1_4 1_555 1_555
H1_4 C4_4 1_555 1_555
Fe3_2 O2_4 1_555 1_555
C2_4 C3_4 1_555 1_555
C3_4 O3_4 1_555 1_555
Fe6_3 O6_4 1_555 1_555
Fe3_2 O3_4 1_555 1_555
Fe8_3 O6_4 1_555 1_555
O6_4 C5_4 1_555 1_555
O11_3 C5_4 1_555 1_555
O14_4 Fe6_3 1_555 1_555
C5_4 C6_4 1_555 1_555
C6_4 C7_4 1_555 1_555
C8_4 C3_4 1_555 1_555
H2_4 C8_4 1_555 1_555
O15_4 Fe6_3 1_555 1_555
O16_4 Fe6_3 1_555 1_555
Fe8_3 O14_4 1_555 1_555
O14_3 C7_4 1_555 1_555
C6_4 C8_4 1_555 1_555
O15_4 O16_4 1_555 1_555
Fe8 O14_5 1_555 1_555
O7_3 C1_5 1_555 1_555
O2_5 C1_5 1_555 1_555
H1_5 C4_5 1_555 1_555
Fe3_3 O2_5 1_555 1_555
C2_5 C3_5 1_555 1_555
C3_5 O3_5 1_555 1_555
Fe6 O6_5 1_555 1_555
Fe3_3 O3_5 1_555 1_555
O6_5 C5_5 1_555 1_555
O11 C5_5 1_555 1_555
C5_5 C6_5 1_555 1_555
C6_5 C7_5 1_555 1_555
C8_5 C3_5 1_555 1_555
H2_5 C8_5 1_555 1_555
O15_5 Fe6 1_555 1_555
O16_5 Fe6 1_555 1_555
O14 C7_5 1_555 1_555
C6_5 C8_5 1_555 1_555
O15_5 O16_5 1_555 1_555
O4_5 Fe4_3 1_555 1_555
O5_5 Fe4_3 1_555 1_555
O7_5 Fe4_3 1_555 1_555
O4_5 O5_5 1_555 1_555
O7 C1_6 1_555 1_555
O2_6 C1_6 1_555 1_555
H1_6 C4_6 1_555 1_555
Fe3 O2_6 1_555 1_555
O3_6 Fe4 1_555 1_555
C2_6 C3_6 1_555 1_555
C3_6 O3_6 1_555 1_555
O4_6 Fe4 1_555 1_555
O5_6 Fe4 1_555 1_555
Fe6_2 O6_6 1_555 1_555
Fe3 O3_6 1_555 1_555
O6_6 C5_6 1_555 1_555
O7_6 Fe4 1_555 1_555
O11_2 C5_6 1_555 1_555
C5_6 C6_6 1_555 1_555
C6_6 C7_6 1_555 1_555
C8_6 C3_6 1_555 1_555
H2_6 C8_6 1_555 1_555
O15_6 Fe6_2 1_555 1_555
O16_6 Fe6_2 1_555 1_555
O4_6 O5_6 1_555 1_555
Fe3 O7_6 1_555 1_555
O14_2 C7_6 1_555 1_555
C6_6 C8_6 1_555 1_555
O15_6 O16_6 1_555 1_555
Fe8_2 O14_6 1_555 1_555
C3_7 O13_3 1_555 1_555
O4_7 Fe3_3 1_555 1_555
O5_7 Fe3_3 1_555 1_555
O8_2 C5_7 1_555 1_555
O11_6 C5_7 1_555 1_555
C5_7 C6_7 1_555 1_555
C8_7 C3_7 1_555 1_555
H2_7 C8_7 1_555 1_555
O4_7 O5_7 1_555 1_555
C6_7 C8_7 1_555 1_555
O7_5 C1_7 1_555 1_555
O10_3 C1_7 1_555 1_555
C1_7 C2_7 1_555 1_555
C4_7 C2_7 1_555 1_555
H1_7 C4_7 1_555 1_555
C7_7 C4_7 1_555 1_555
O15_7 Fe8_2 1_555 1_555
O16_7 Fe8_2 1_555 1_555
O14_6 C7_7 1_555 1_555
O15_7 O16_7 1_555 1_555
O7_6 C1_8 1_555 1_555
O10 C1_8 1_555 1_555
C1_8 C2_8 1_555 1_555
C2_8 C3_8 1_555 1_555
C3_8 O13 1_555 1_555
C4_8 C2_8 1_555 1_555
H1_8 C4_8 1_555 1_555
O4_8 Fe3 1_555 1_555
O5_8 Fe3 1_555 1_555
O8_3 C5_8 1_555 1_555
O11_4 C5_8 1_555 1_555
C5_8 C6_8 1_555 1_555
C6_8 C7_8 1_555 1_555
C7_8 C4_8 1_555 1_555
C8_8 C3_8 1_555 1_555
H2_8 C8_8 1_555 1_555
O15_8 Fe8_3 1_555 1_555
O16_8 Fe8_3 1_555 1_555
O4_8 O5_8 1_555 1_555
O14_4 C7_8 1_555 1_555
C6_8 C8_8 1_555 1_555
O15_8 O16_8 1_555 1_555
O7_4 C1_9 1_555 1_555
O10_2 C1_9 1_555 1_555
C1_9 C2_9 1_555 1_555
C4_9 C2_9 1_555 1_555
H1_9 C4_9 1_555 1_555
C7_9 C4_9 1_555 1_555
O15_9 Fe8 1_555 1_555
O16_9 Fe8 1_555 1_555
O14_5 C7_9 1_555 1_555
O15_9 O16_9 1_555 1_555
C3_9 O13_2 1_555 1_555
O4_9 Fe3_2 1_555 1_555
O5_9 Fe3_2 1_555 1_555
O8 C5_9 1_555 1_555
O11_5 C5_9 1_555 1_555
C5_9 C6_9 1_555 1_555
C8_9 C3_9 1_555 1_555
H2_9 C8_9 1_555 1_555
O4_9 O5_9 1_555 1_555
C6_9 C8_9 1_555 1_555

#END
