
###############################################################################
#
# This file contains modified crystal structure data generated from the
# MOF subset of the Cambridge Structural Database (CSD) v543 
# hosted by the Cambridge Crystallographic Data Centre (CCDC).
#
# This work is licensed under the Creative Commons
# Attribution-NonCommercial-ShareAlike 4.0 International License.
# To view a copy of this license, visit
# http://creativecommons.org/licenses/by-nc-sa/4.0/
# or send a letter to
# Creative Commons, PO Box 1866, Mountain View, CA 94042, USA.
#
# CIF created using the CSD Python API on 29 September 2022
# The structure has been converted into the P1 space group
# The structure has a 3D framework
# The original CSD entry CAXWEF is in the rhombohedral crystal system
# The framework has been calculated to contain at least 10.0% void space
# The void calculation uses a probe of radius 1.32A, grid spacing 0.4
#
###############################################################################

data_CAXWEF
_chemical_formula_moiety         '(C72 H18 Fe18 O90)n'
_symmetry_cell_setting           triclinic
_symmetry_space_group_name_H-M   'P 1'
_symmetry_Int_Tables_number      1
_space_group_name_Hall           'P 1'
loop_
_symmetry_equiv_pos_site_id
_symmetry_equiv_pos_as_xyz
1 x,y,z
_cell_length_a                   25.9572(14)
_cell_length_b                   25.9572(14)
_cell_length_c                   6.8430(8)
_cell_angle_alpha                90
_cell_angle_beta                 90
_cell_angle_gamma                120
_cell_volume                     3992.94
loop_
_atom_site_label
_atom_site_type_symbol
_atom_site_fract_x
_atom_site_fract_y
_atom_site_fract_z
Fe1 Fe 0.3809(4) 0.3480(5) 0.1410(15)
O1 O 0.3251(6) 0.2982(6) 0.3473(22)
O2 O 0.3029(8) 0.2223(10) 0.6015(21)
O3 O 0.3514(6) 0.2714(4) 0.0090(25)
C1 C 0.3155(9) 0.2467(6) 0.4054(21)
C2 C 0.3340(11) 0.2108(10) 0.2917(27)
C3 C 0.3442(8) 0.2237(7) 0.0873(27)
C4 C 0.3154(10) 0.1537(9) 0.3570(24)
H1 H 0.3018(13) 0.1416(12) 0.5137(31)
O4 O 0.4688(15) 0.3878(20) 0.286(6)
O5 O 0.485(6) 0.371(7) 0.084(16)
Fe3 Fe 0.3187(5) 0.3662(6) 0.4743(15)
Fe4 Fe 0.3004(6) 0.2858(4) 0.8077(15)
Fe8 Fe 0.3662(6) 0.0476(4) 0.5257(15)
O7 O 0.3064(8) 0.3416(6) 0.0140(22)
O12 O 0.3153(6) 0.0619(4) 0.3243(25)
O13 O 0.3953(4) 0.4133(7) 0.3423(25)
C6 C 0.3327(11) 0.1225(10) 0.0416(27)
C7 C 0.3225(8) 0.1096(7) 0.2460(27)
O6 O 0.3416(6) 0.0351(6) 0.9860(22)
O9 O 0.3638(8) 0.1110(10) 0.7318(21)
O10 O 0.4444(10) 0.4139(13) 0.9348(21)
C5 C 0.3512(9) 0.0866(6) 0.9279(21)
C8 C 0.3513(10) 0.1796(9) 0.9763(24)
H2 H 0.3649(13) 0.1917(12) 0.8196(31)
Fe2 Fe 0.2858(4) 0.9853(5) 0.1923(15)
O8 O 0.3602(8) 0.9918(6) 0.3194(22)
O11 O 0.2223(10) 0.9194(13) 0.3985(21)
O15 O 0.1979(15) 0.9455(20) 0.047(6)
O16 O 0.182(6) 0.962(7) 0.249(16)
Fe6 Fe 0.3480(5) 0.9671(6) 0.8590(15)
O14 O 0.2714(4) 0.9200(7) 0.9910(25)
Fe2_2 Fe 0.0147(5) 0.3004(6) 0.1923(15)
O8_2 O 0.0082(6) 0.3685(10) 0.3194(22)
O11_2 O 0.0806(13) 0.3029(16) 0.3985(21)
O15_2 O 0.0545(20) 0.2523(25) 0.047(6)
O16_2 O 0.038(7) 0.219(9) 0.249(16)
Fe6_2 Fe 0.0329(6) 0.3809(8) 0.8590(15)
O14_2 O 0.0800(7) 0.3514(8) 0.9910(25)
Fe1_2 Fe 0.6520(5) 0.0329(6) 0.1410(15)
O1_2 O 0.7018(6) 0.0269(8) 0.3473(22)
O2_2 O 0.7777(10) 0.0806(13) 0.6015(21)
O3_2 O 0.7286(4) 0.0800(7) 0.0090(25)
C1_2 C 0.7533(6) 0.0688(11) 0.4054(21)
C2_2 C 0.7892(10) 0.1232(15) 0.2917(27)
C3_2 C 0.7763(7) 0.1205(11) 0.0873(27)
C4_2 C 0.8463(9) 0.1617(13) 0.3570(24)
H1_2 H 0.8584(12) 0.1602(18) 0.5137(31)
O4_2 O 0.6122(20) 0.0810(25) 0.286(6)
O5_2 O 0.629(7) 0.114(9) 0.084(16)
Fe4_2 Fe 0.7142(4) 0.0147(7) 0.8077(15)
Fe8_2 Fe 0.9524(4) 0.3187(7) 0.5257(15)
O12_2 O 0.9381(4) 0.2533(7) 0.3243(25)
C6_2 C 0.8775(10) 0.2101(15) 0.0416(27)
C7_2 C 0.8904(7) 0.2128(11) 0.2460(27)
O6_2 O 0.9649(6) 0.3064(8) 0.9860(22)
O9_2 O 0.8890(10) 0.2527(13) 0.7318(21)
O10_2 O 0.5861(13) 0.0304(16) 0.9348(21)
C5_2 C 0.9134(6) 0.2645(11) 0.9279(21)
C8_2 C 0.8204(9) 0.1716(13) 0.9763(24)
H2_2 H 0.8083(12) 0.1731(18) 0.8196(31)
Fe3_2 Fe 0.6338(6) 0.9524(8) 0.4743(15)
O7_2 O 0.6584(6) 0.9649(10) 0.0140(22)
O13_2 O 0.5867(7) 0.9819(8) 0.3423(25)
Fe3_3 Fe 0.0476(8) 0.6813(5) 0.4743(15)
O7_3 O 0.0351(10) 0.6936(8) 0.0140(22)
O13_3 O 0.0181(8) 0.6047(4) 0.3423(25)
Fe1_3 Fe 0.9671(6) 0.6191(4) 0.1410(15)
O1_3 O 0.9731(8) 0.6749(6) 0.3473(22)
O2_3 O 0.9194(13) 0.6971(8) 0.6015(21)
O3_3 O 0.9200(7) 0.6486(6) 0.0090(25)
C1_3 C 0.9312(11) 0.6845(9) 0.4054(21)
C2_3 C 0.8768(15) 0.6660(11) 0.2917(27)
C3_3 C 0.8795(11) 0.6558(8) 0.0873(27)
C4_3 C 0.8383(13) 0.6846(10) 0.3570(24)
H1_3 H 0.8398(18) 0.6982(13) 0.5137(31)
O4_3 O 0.9190(25) 0.5312(15) 0.286(6)
O5_3 O 0.886(9) 0.515(6) 0.084(16)
Fe2_3 Fe 0.6996(6) 0.7142(4) 0.1923(15)
Fe4_3 Fe 0.9853(7) 0.6996(6) 0.8077(15)
Fe8_3 Fe 0.6813(7) 0.6338(6) 0.5257(15)
O8_3 O 0.6315(10) 0.6398(8) 0.3194(22)
O11_3 O 0.6971(16) 0.7777(10) 0.3985(21)
O12_3 O 0.7467(7) 0.6847(6) 0.3243(25)
C6_3 C 0.7899(15) 0.6673(11) 0.0416(27)
C7_3 C 0.7872(11) 0.6775(8) 0.2460(27)
O15_3 O 0.7477(25) 0.8021(15) 0.047(6)
O16_3 O 0.781(9) 0.818(6) 0.249(16)
Fe6_3 Fe 0.6191(8) 0.6520(5) 0.8590(15)
O6_3 O 0.6936(8) 0.6584(6) 0.9860(22)
O9_3 O 0.7473(13) 0.6362(8) 0.7318(21)
O10_3 O 0.9696(16) 0.5556(10) 0.9348(21)
O14_3 O 0.6486(8) 0.7286(4) 0.9910(25)
C5_3 C 0.7355(11) 0.6488(9) 0.9279(21)
C8_3 C 0.8284(13) 0.6487(10) 0.9763(24)
H2_3 H 0.8269(18) 0.6351(13) 0.8196(31)
O4_4 O 0.8021(15) 0.0545(20) 0.953(6)
O5_4 O 0.818(6) 0.038(7) 0.751(16)
O7_4 O 0.6398(8) 0.0082(6) 0.6806(22)
O2_4 O 0.6362(8) 0.8890(10) 0.2682(21)
C1_4 C 0.6488(9) 0.9134(6) 0.0721(21)
C4_4 C 0.6487(10) 0.8204(9) 0.0237(24)
H1_4 H 0.6351(13) 0.8083(12) 0.1804(31)
O11_4 O 0.5556(10) 0.5861(13) 0.0652(21)
O3_4 O 0.6847(6) 0.9381(4) 0.6757(25)
C2_4 C 0.6673(11) 0.8775(10) 0.9584(27)
C3_4 C 0.6775(8) 0.8904(7) 0.7540(27)
O6_4 O 0.6749(6) 0.7018(6) 0.6527(22)
O14_4 O 0.6047(4) 0.5867(7) 0.6577(25)
C5_4 C 0.6845(9) 0.7533(6) 0.5946(21)
C6_4 C 0.6660(11) 0.7892(10) 0.7083(27)
C7_4 C 0.6558(8) 0.7763(7) 0.9127(27)
C8_4 C 0.6846(10) 0.8463(9) 0.6430(24)
H2_4 H 0.6982(13) 0.8584(12) 0.4863(31)
O15_4 O 0.5312(15) 0.6122(20) 0.714(6)
O16_4 O 0.515(6) 0.629(7) 0.916(16)
O14_5 O 0.4133(7) 0.0181(8) 0.6577(25)
O2_5 O 0.1110(10) 0.7473(13) 0.2682(21)
C1_5 C 0.0866(6) 0.7355(11) 0.0721(21)
C4_5 C 0.1796(9) 0.8284(13) 0.0237(24)
H1_5 H 0.1917(12) 0.8269(18) 0.1804(31)
O11_5 O 0.4139(13) 0.9696(16) 0.0652(21)
O3_5 O 0.0619(4) 0.7467(7) 0.6757(25)
C2_5 C 0.1225(10) 0.7899(15) 0.9584(27)
C3_5 C 0.1096(7) 0.7872(11) 0.7540(27)
O6_5 O 0.2982(6) 0.9731(8) 0.6527(22)
C5_5 C 0.2467(6) 0.9312(11) 0.5946(21)
C6_5 C 0.2108(10) 0.8768(15) 0.7083(27)
C7_5 C 0.2237(7) 0.8795(11) 0.9127(27)
C8_5 C 0.1537(9) 0.8383(13) 0.6430(24)
H2_5 H 0.1416(12) 0.8398(18) 0.4863(31)
O15_5 O 0.3878(20) 0.9190(25) 0.714(6)
O16_5 O 0.371(7) 0.886(9) 0.916(16)
O4_5 O 0.9455(20) 0.7477(25) 0.953(6)
O5_5 O 0.962(7) 0.781(9) 0.751(16)
O7_5 O 0.9918(6) 0.6315(10) 0.6806(22)
O2_6 O 0.2527(13) 0.3638(8) 0.2682(21)
C1_6 C 0.2645(11) 0.3512(9) 0.0721(21)
C4_6 C 0.1716(13) 0.3513(10) 0.0237(24)
H1_6 H 0.1731(18) 0.3649(13) 0.1804(31)
O11_6 O 0.0304(16) 0.4444(10) 0.0652(21)
O3_6 O 0.2533(7) 0.3153(6) 0.6757(25)
C2_6 C 0.2101(15) 0.3327(11) 0.9584(27)
C3_6 C 0.2128(11) 0.3225(8) 0.7540(27)
O4_6 O 0.2523(25) 0.1979(15) 0.953(6)
O5_6 O 0.219(9) 0.182(6) 0.751(16)
O6_6 O 0.0269(8) 0.3251(6) 0.6527(22)
O7_6 O 0.3685(10) 0.3602(8) 0.6806(22)
C5_6 C 0.0688(11) 0.3155(9) 0.5946(21)
C6_6 C 0.1232(15) 0.3340(11) 0.7083(27)
C7_6 C 0.1205(11) 0.3442(8) 0.9127(27)
C8_6 C 0.1617(13) 0.3154(10) 0.6430(24)
H2_6 H 0.1602(18) 0.3018(13) 0.4863(31)
O15_6 O 0.0810(25) 0.4688(15) 0.714(6)
O16_6 O 0.114(9) 0.485(6) 0.916(16)
O14_6 O 0.9819(8) 0.3953(4) 0.6577(25)
C2_7 C 0.0007(11) 0.5441(10) 0.6250(27)
C3_7 C 0.0109(8) 0.5570(7) 0.4206(27)
O4_7 O 0.1355(15) 0.7211(20) 0.619(6)
O5_7 O 0.152(6) 0.704(7) 0.417(16)
C5_7 C 0.0178(9) 0.4200(6) 0.2613(21)
C8_7 C 0.0179(10) 0.5130(9) 0.3097(24)
H2_7 H 0.0315(13) 0.5251(12) 0.1530(31)
C1_7 C 0.9822(9) 0.5800(6) 0.7387(21)
C4_7 C 0.9821(10) 0.4870(9) 0.6903(24)
H1_7 H 0.9685(13) 0.4749(12) 0.8470(31)
C6_7 C 0.9993(11) 0.4559(10) 0.3750(27)
C7_7 C 0.9891(8) 0.4430(7) 0.5794(27)
O15_7 O 0.8645(15) 0.2789(20) 0.381(6)
O16_7 O 0.848(6) 0.296(7) 0.583(16)
C1_8 C 0.4200(6) 0.4021(11) 0.7387(21)
C2_8 C 0.4559(10) 0.4565(15) 0.6250(27)
C3_8 C 0.4430(7) 0.4538(11) 0.4206(27)
C4_8 C 0.5130(9) 0.4950(13) 0.6903(24)
H1_8 H 0.5251(12) 0.4935(18) 0.8470(31)
O4_8 O 0.2789(20) 0.4143(25) 0.619(6)
O5_8 O 0.296(7) 0.447(9) 0.417(16)
C5_8 C 0.5800(6) 0.5979(11) 0.2613(21)
C6_8 C 0.5441(10) 0.5435(15) 0.3750(27)
C7_8 C 0.5570(7) 0.5462(11) 0.5794(27)
C8_8 C 0.4870(9) 0.5050(13) 0.3097(24)
H2_8 H 0.4749(12) 0.5065(18) 0.1530(31)
O15_8 O 0.7211(20) 0.5857(25) 0.381(6)
O16_8 O 0.704(7) 0.553(9) 0.583(16)
C1_9 C 0.5979(11) 0.0178(9) 0.7387(21)
C4_9 C 0.5050(13) 0.0179(10) 0.6903(24)
H1_9 H 0.5065(18) 0.0315(13) 0.8470(31)
C6_9 C 0.4565(15) 0.0007(11) 0.3750(27)
C7_9 C 0.4538(11) 0.0109(8) 0.5794(27)
O15_9 O 0.4143(25) 0.1355(15) 0.381(6)
O16_9 O 0.447(9) 0.152(6) 0.583(16)
C2_9 C 0.5435(15) 0.9993(11) 0.6250(27)
C3_9 C 0.5462(11) 0.9891(8) 0.4206(27)
O4_9 O 0.5857(25) 0.8645(15) 0.619(6)
O5_9 O 0.553(9) 0.848(6) 0.417(16)
C5_9 C 0.4021(11) 0.9822(9) 0.2613(21)
C8_9 C 0.4950(13) 0.9821(10) 0.3097(24)
H2_9 H 0.4935(18) 0.9685(13) 0.1530(31)
loop_
_geom_bond_atom_site_label_1
_geom_bond_atom_site_label_2
_geom_bond_site_symmetry_1
_geom_bond_site_symmetry_2
Fe1 O1 1_555 1_555
O1 C1 1_555 1_555
O2 C1 1_555 1_555
O3 Fe1 1_555 1_555
C1 C2 1_555 1_555
C2 C3 1_555 1_555
C3 O3 1_555 1_555
C4 C2 1_555 1_555
H1 C4 1_555 1_555
O4 Fe1 1_555 1_555
O5 Fe1 1_555 1_555
Fe3 O1 1_555 1_555
Fe4 O2 1_555 1_555
O7 Fe1 1_555 1_555
O13 Fe1 1_555 1_555
C6 C7 1_555 1_555
C7 C4 1_555 1_555
O4 O5 1_555 1_555
Fe3 O13 1_555 1_555
Fe8 O12 1_555 1_555
O12 C7 1_555 1_555
Fe8 O9 1_555 1_555
O6 C5 1_555 1_555
O9 C5 1_555 1_555
H2 C8 1_555 1_555
O8 Fe2 1_555 1_555
O11 Fe2 1_555 1_555
O15 Fe2 1_555 1_555
O16 Fe2 1_555 1_555
O15 O16 1_555 1_555
Fe6 O14 1_555 1_555
O8_2 Fe2_2 1_555 1_555
O11_2 Fe2_2 1_555 1_555
O15_2 Fe2_2 1_555 1_555
O16_2 Fe2_2 1_555 1_555
O15_2 O16_2 1_555 1_555
Fe6_2 O14_2 1_555 1_555
Fe1_2 O1_2 1_555 1_555
O1_2 C1_2 1_555 1_555
O2_2 C1_2 1_555 1_555
O3_2 Fe1_2 1_555 1_555
C1_2 C2_2 1_555 1_555
C2_2 C3_2 1_555 1_555
C3_2 O3_2 1_555 1_555
C4_2 C2_2 1_555 1_555
H1_2 C4_2 1_555 1_555
O4_2 Fe1_2 1_555 1_555
O5_2 Fe1_2 1_555 1_555
Fe4_2 O2_2 1_555 1_555
C6_2 C7_2 1_555 1_555
C7_2 C4_2 1_555 1_555
O4_2 O5_2 1_555 1_555
Fe8_2 O12_2 1_555 1_555
O12_2 C7_2 1_555 1_555
Fe8_2 O9_2 1_555 1_555
O6_2 C5_2 1_555 1_555
O9_2 C5_2 1_555 1_555
H2_2 C8_2 1_555 1_555
Fe3_2 O13_2 1_555 1_555
Fe3_3 O13_3 1_555 1_555
Fe1_3 O1_3 1_555 1_555
O1_3 C1_3 1_555 1_555
O2_3 C1_3 1_555 1_555
O3_3 Fe1_3 1_555 1_555
C1_3 C2_3 1_555 1_555
C2_3 C3_3 1_555 1_555
C3_3 O3_3 1_555 1_555
C4_3 C2_3 1_555 1_555
H1_3 C4_3 1_555 1_555
O4_3 Fe1_3 1_555 1_555
O5_3 Fe1_3 1_555 1_555
Fe4_3 O2_3 1_555 1_555
Fe8_3 O8_3 1_555 1_555
O8_3 Fe2_3 1_555 1_555
O11_3 Fe2_3 1_555 1_555
O12_3 Fe2_3 1_555 1_555
C6_3 C7_3 1_555 1_555
C7_3 C4_3 1_555 1_555
O15_3 Fe2_3 1_555 1_555
O16_3 Fe2_3 1_555 1_555
O4_3 O5_3 1_555 1_555
Fe8_3 O12_3 1_555 1_555
O12_3 C7_3 1_555 1_555
O15_3 O16_3 1_555 1_555
Fe6_3 O6_3 1_555 1_555
Fe8_3 O9_3 1_555 1_555
O6_3 C5_3 1_555 1_555
O9_3 C5_3 1_555 1_555
H2_3 C8_3 1_555 1_555
Fe6_3 O14_3 1_555 1_555
O4_4 Fe4_2 1_555 1_555
O5_4 Fe4_2 1_555 1_555
O7_4 Fe4_2 1_555 1_555
O4_4 O5_4 1_555 1_555
O7_2 C1_4 1_555 1_555
O2_4 C1_4 1_555 1_555
H1_4 C4_4 1_555 1_555
Fe3_2 O2_4 1_555 1_555
C2_4 C3_4 1_555 1_555
C3_4 O3_4 1_555 1_555
Fe6_3 O6_4 1_555 1_555
Fe3_2 O3_4 1_555 1_555
Fe8_3 O6_4 1_555 1_555
O6_4 C5_4 1_555 1_555
O11_3 C5_4 1_555 1_555
O14_4 Fe6_3 1_555 1_555
C5_4 C6_4 1_555 1_555
C6_4 C7_4 1_555 1_555
C8_4 C3_4 1_555 1_555
H2_4 C8_4 1_555 1_555
O15_4 Fe6_3 1_555 1_555
O16_4 Fe6_3 1_555 1_555
Fe8_3 O14_4 1_555 1_555
O14_3 C7_4 1_555 1_555
C6_4 C8_4 1_555 1_555
O15_4 O16_4 1_555 1_555
Fe8 O14_5 1_555 1_555
O7_3 C1_5 1_555 1_555
O2_5 C1_5 1_555 1_555
H1_5 C4_5 1_555 1_555
Fe3_3 O2_5 1_555 1_555
C2_5 C3_5 1_555 1_555
C3_5 O3_5 1_555 1_555
Fe6 O6_5 1_555 1_555
Fe3_3 O3_5 1_555 1_555
O6_5 C5_5 1_555 1_555
O11 C5_5 1_555 1_555
C5_5 C6_5 1_555 1_555
C6_5 C7_5 1_555 1_555
C8_5 C3_5 1_555 1_555
H2_5 C8_5 1_555 1_555
O15_5 Fe6 1_555 1_555
O16_5 Fe6 1_555 1_555
O14 C7_5 1_555 1_555
C6_5 C8_5 1_555 1_555
O15_5 O16_5 1_555 1_555
O4_5 Fe4_3 1_555 1_555
O5_5 Fe4_3 1_555 1_555
O7_5 Fe4_3 1_555 1_555
O4_5 O5_5 1_555 1_555
O7 C1_6 1_555 1_555
O2_6 C1_6 1_555 1_555
H1_6 C4_6 1_555 1_555
Fe3 O2_6 1_555 1_555
O3_6 Fe4 1_555 1_555
C2_6 C3_6 1_555 1_555
C3_6 O3_6 1_555 1_555
O4_6 Fe4 1_555 1_555
O5_6 Fe4 1_555 1_555
Fe6_2 O6_6 1_555 1_555
Fe3 O3_6 1_555 1_555
O6_6 C5_6 1_555 1_555
O7_6 Fe4 1_555 1_555
O11_2 C5_6 1_555 1_555
C5_6 C6_6 1_555 1_555
C6_6 C7_6 1_555 1_555
C8_6 C3_6 1_555 1_555
H2_6 C8_6 1_555 1_555
O15_6 Fe6_2 1_555 1_555
O16_6 Fe6_2 1_555 1_555
O4_6 O5_6 1_555 1_555
Fe3 O7_6 1_555 1_555
O14_2 C7_6 1_555 1_555
C6_6 C8_6 1_555 1_555
O15_6 O16_6 1_555 1_555
Fe8_2 O14_6 1_555 1_555
C2_7 C3_7 1_555 1_555
C3_7 O13_3 1_555 1_555
O4_7 Fe3_3 1_555 1_555
O5_7 Fe3_3 1_555 1_555
O8_2 C5_7 1_555 1_555
O11_6 C5_7 1_555 1_555
C8_7 C3_7 1_555 1_555
H2_7 C8_7 1_555 1_555
O4_7 O5_7 1_555 1_555
O7_5 C1_7 1_555 1_555
O10_3 C1_7 1_555 1_555
H1_7 C4_7 1_555 1_555
C6_7 C7_7 1_555 1_555
C7_7 C4_7 1_555 1_555
O15_7 Fe8_2 1_555 1_555
O16_7 Fe8_2 1_555 1_555
O14_6 C7_7 1_555 1_555
O15_7 O16_7 1_555 1_555
O7_6 C1_8 1_555 1_555
O10 C1_8 1_555 1_555
C1_8 C2_8 1_555 1_555
C2_8 C3_8 1_555 1_555
C3_8 O13 1_555 1_555
C4_8 C2_8 1_555 1_555
H1_8 C4_8 1_555 1_555
O4_8 Fe3 1_555 1_555
O5_8 Fe3 1_555 1_555
O8_3 C5_8 1_555 1_555
O11_4 C5_8 1_555 1_555
C5_8 C6_8 1_555 1_555
C6_8 C7_8 1_555 1_555
C7_8 C4_8 1_555 1_555
C8_8 C3_8 1_555 1_555
H2_8 C8_8 1_555 1_555
O15_8 Fe8_3 1_555 1_555
O16_8 Fe8_3 1_555 1_555
O4_8 O5_8 1_555 1_555
O14_4 C7_8 1_555 1_555
C6_8 C8_8 1_555 1_555
O15_8 O16_8 1_555 1_555
O7_4 C1_9 1_555 1_555
O10_2 C1_9 1_555 1_555
H1_9 C4_9 1_555 1_555
C6_9 C7_9 1_555 1_555
C7_9 C4_9 1_555 1_555
O15_9 Fe8 1_555 1_555
O16_9 Fe8 1_555 1_555
O14_5 C7_9 1_555 1_555
O15_9 O16_9 1_555 1_555
C2_9 C3_9 1_555 1_555
C3_9 O13_2 1_555 1_555
O4_9 Fe3_2 1_555 1_555
O5_9 Fe3_2 1_555 1_555
O8 C5_9 1_555 1_555
O11_5 C5_9 1_555 1_555
C8_9 C3_9 1_555 1_555
H2_9 C8_9 1_555 1_555
O4_9 O5_9 1_555 1_555

#END
