
###############################################################################
#
# This file contains modified crystal structure data generated from the
# MOF subset of the Cambridge Structural Database (CSD) v543 
# hosted by the Cambridge Crystallographic Data Centre (CCDC).
#
# This work is licensed under the Creative Commons
# Attribution-NonCommercial-ShareAlike 4.0 International License.
# To view a copy of this license, visit
# http://creativecommons.org/licenses/by-nc-sa/4.0/
# or send a letter to
# Creative Commons, PO Box 1866, Mountain View, CA 94042, USA.
#
# CIF created using the CSD Python API on 29 September 2022
# The structure has been converted into the P1 space group
# The structure has a 3D framework
# The original CSD entry CAYBAH is in the tetragonal crystal system
# The framework has been calculated to contain at least 10.0% void space
# The void calculation uses a probe of radius 1.32A, grid spacing 0.4
#
###############################################################################

data_CAYBAH
_chemical_formula_moiety         '(C52 H52 Cu20 N80)n'
_symmetry_cell_setting           triclinic
_symmetry_space_group_name_H-M   'P 1'
_symmetry_Int_Tables_number      1
_space_group_name_Hall           'P 1'
loop_
_symmetry_equiv_pos_site_id
_symmetry_equiv_pos_as_xyz
1 x,y,z
_cell_length_a                   11.8447(7)
_cell_length_b                   11.8447(7)
_cell_length_c                   18.9782(13)
_cell_angle_alpha                90
_cell_angle_beta                 90
_cell_angle_gamma                90
_cell_volume                     2662.58
loop_
_atom_site_label
_atom_site_type_symbol
_atom_site_fract_x
_atom_site_fract_y
_atom_site_fract_z
Cu4 Cu 0.0000 -0.0000 0.0000
C8 C 0.2194(4) 0.0165(4) 0.0961(3)
H8 H 0.2455 0.0804 0.0728
Cu4_2 Cu 0.0000 -0.0000 1.0000
Cu1 Cu 0.0000 0.7500 0.1250
N1 N 0.0000 0.7500 0.2487(3)
Cu3 Cu 0.2500 0.7500 0.2500
Cu4_3 Cu 0.0000 1.0000 0.0000
Cu5 Cu 0.0000 0.5000 0.0000
N5 N -0.0000 0.7500 0.0013(3)
N6 N 0.1218(3) 0.8718(3) 0.1250
N8 N 0.1218(3) 0.6282(3) 0.1250
N9 N 0.0915 0.7500(4) 0.2894(2)
N13 N 0.4085 0.7500(4) 0.2106(2)
N15 N 0.2053(3) 0.8784(3) 0.1721(2)
N16 N 0.1284(3) 0.9553(3) 0.0779(2)
N19 N 0.1284(3) 0.5447(3) 0.0779(2)
N20 N 0.2053(3) 0.6216(3) 0.1721(2)
N23 N 0.2947(3) 0.6216(3) 0.3279(2)
N24 N 0.2947(3) 0.8784(3) 0.3279(2)
C3 C 0.0570 0.7500(5) 0.3562(3)
H3 H 0.1033 0.7500 0.3958
C7 C 0.2665(4) 0.9694(4) 0.1539(3)
C11 C 0.2194(4) 0.4835(4) 0.0961(3)
C12 C 0.2665(4) 0.5306(4) 0.1539(3)
H7 H 0.3304 0.9955 0.1772
H11 H 0.2455 0.4196 0.0728
H12 H 0.3304 0.5045 0.1772
Cu4_4 Cu 0.0000 1.0000 1.0000
Cu5_2 Cu 0.0000 0.5000 1.0000
N10 N 0.0000(4) 0.6585 0.9606(2)
N11 N 0.0000(4) 0.8415 0.9606(2)
C4 C 0.0000(5) 0.6930 0.8938(3)
C5 C 0.0000(5) 0.8070 0.8938(3)
H4 H 0.0000 0.6467 0.8542
H5 H -0.0000 0.8533 0.8542
Cu4_5 Cu 1.0000 -0.0000 0.0000
C6 C 0.7806(4) 0.0165(4) 0.0961(3)
H6 H 0.7545 0.0804 0.0728
Cu4_6 Cu 1.0000 -0.0000 1.0000
Cu1_2 Cu 1.0000 0.7500 0.1250
Cu2 Cu 0.7500 0.7500 0.2500
N1_2 N 1.0000 0.7500 0.2487(3)
N2 N 0.8782(3) 0.8718(3) 0.1250
N3 N 0.9085 0.7500(4) 0.2894(2)
N4 N 0.7947(3) 0.8784(3) 0.1721(2)
C1 C 0.9430 0.7500(5) 0.3562(3)
H1 H 0.8967 0.7500 0.3958
C2 C 0.7335(4) 0.9694(4) 0.1539(3)
H2 H 0.6696 0.9955 0.1772
Cu4_7 Cu 1.0000 1.0000 0.0000
Cu5_3 Cu 1.0000 0.5000 0.0000
N5_2 N 1.0000 0.7500 0.0013(3)
N7 N 0.8782(3) 0.6282(3) 0.1250
N12 N 0.5915 0.7500(4) 0.2106(2)
N14 N 0.8716(3) 0.9553(3) 0.0779(2)
N17 N 0.8716(3) 0.5447(3) 0.0779(2)
N18 N 0.7947(3) 0.6216(3) 0.1721(2)
N21 N 0.7053(3) 0.8784(3) 0.3279(2)
N22 N 0.7053(3) 0.6216(3) 0.3279(2)
C9 C 0.7806(4) 0.4835(4) 0.0961(3)
C10 C 0.7335(4) 0.5306(4) 0.1539(3)
H9 H 0.7545 0.4196 0.0728
H10 H 0.6696 0.5045 0.1772
Cu4_8 Cu 1.0000 1.0000 1.0000
Cu5_4 Cu 1.0000 0.5000 1.0000
N10_2 N 1.0000(4) 0.6585 0.9606(2)
N11_2 N 1.0000(4) 0.8415 0.9606(2)
C4_2 C 1.0000(5) 0.6930 0.8938(3)
C5_2 C 1.0000(5) 0.8070 0.8938(3)
H4_2 H 1.0000 0.6467 0.8542
H5_2 H 1.0000 0.8533 0.8542
Cu1_3 Cu 0.5000 0.2500 0.6250
Cu2_2 Cu 0.7500 0.2500 0.7500
N1_3 N 0.5000 0.2500 0.7487(3)
N2_2 N 0.6218(3) 0.1282(3) 0.6250
N3_2 N 0.5915 0.2500(4) 0.7894(2)
N4_2 N 0.7053(3) 0.1216(3) 0.6721(2)
C1_2 C 0.5570 0.2500(5) 0.8562(3)
H1_2 H 0.6033 0.2500 0.8958
C2_2 C 0.7665(4) 0.0306(4) 0.6539(3)
H2_2 H 0.8304 0.0045 0.6772
Cu3_2 Cu 0.2500 0.2500 0.7500
Cu4_9 Cu 0.5000 0.0000 0.5000
Cu5_5 Cu 0.5000 0.5000 0.5000
N5_3 N 0.5000 0.2500 0.5013(3)
N6_2 N 0.3782(3) 0.1282(3) 0.6250
N7_2 N 0.6218(3) 0.3718(3) 0.6250
N8_2 N 0.3782(3) 0.3718(3) 0.6250
N9_2 N 0.4085 0.2500(4) 0.7894(2)
N10_3 N 0.5000(4) 0.3415 0.4606(2)
N11_3 N 0.5000(4) 0.1585 0.4606(2)
N12_2 N 0.9085 0.2500(4) 0.7106(2)
N13_2 N 0.0915 0.2500(4) 0.7106(2)
N14_2 N 0.6284(3) 0.0447(3) 0.5779(2)
N15_2 N 0.2947(3) 0.1216(3) 0.6721(2)
N16_2 N 0.3716(3) 0.0447(3) 0.5779(2)
N17_2 N 0.6284(3) 0.4553(3) 0.5779(2)
N18_2 N 0.7053(3) 0.3784(3) 0.6721(2)
N19_2 N 0.3716(3) 0.4553(3) 0.5779(2)
N20_2 N 0.2947(3) 0.3784(3) 0.6721(2)
N21_2 N 0.7947(3) 0.1216(3) 0.8279(2)
N22_2 N 0.7947(3) 0.3784(3) 0.8279(2)
N23_2 N 0.2053(3) 0.3784(3) 0.8279(2)
N24_2 N 0.2053(3) 0.1216(3) 0.8279(2)
C3_2 C 0.4430 0.2500(5) 0.8562(3)
C4_3 C 0.5000(5) 0.3070 0.3938(3)
C5_3 C 0.5000(5) 0.1930 0.3938(3)
H3_2 H 0.3967 0.2500 0.8958
H4_3 H 0.5000 0.3533 0.3542
H5_3 H 0.5000 0.1467 0.3542
C7_2 C 0.2335(4) 0.0306(4) 0.6539(3)
C9_2 C 0.7194(4) 0.5165(4) 0.5961(3)
C10_2 C 0.7665(4) 0.4694(4) 0.6539(3)
C11_2 C 0.2806(4) 0.5165(4) 0.5961(3)
C12_2 C 0.2335(4) 0.4694(4) 0.6539(3)
H7_2 H 0.1696 0.0045 0.6772
H9_2 H 0.7455 0.5804 0.5728
H10_2 H 0.8304 0.4955 0.6772
H11_2 H 0.2545 0.5804 0.5728
H12_2 H 0.1696 0.4955 0.6772
Cu4_10 Cu 0.5000 1.0000 0.5000
C6_2 C 0.7194(4) 0.9835(4) 0.5961(3)
C8_2 C 0.2806(4) 0.9835(4) 0.5961(3)
H6_2 H 0.7455 0.9196 0.5728
H8_2 H 0.2545 0.9196 0.5728
C7_3 C 0.2806(4) 0.0165(4) 0.4039(3)
C12_3 C 0.7194(4) 0.0165(4) 0.4039(3)
H7_3 H 0.2545 0.0804 0.4272
H12_3 H 0.7455 0.0804 0.4272
Cu1_4 Cu 0.5000 0.7500 0.3750
N1_4 N 0.5000 0.7500 0.4987(3)
N2_3 N 0.3782(3) 0.6282(3) 0.3750
N3_3 N 0.5000(4) 0.6585 0.5394(2)
N4_3 N 0.3716(3) 0.5447(3) 0.4221(2)
C1_3 C 0.5000(5) 0.6930 0.6062(3)
H1_3 H 0.5000 0.6467 0.6458
C2_3 C 0.2806(4) 0.4835(4) 0.4039(3)
H2_3 H 0.2545 0.4196 0.4272
N5_4 N 0.5000 0.7500 0.2513(3)
N6_3 N 0.3782(3) 0.8718(3) 0.3750
N7_3 N 0.6218(3) 0.6282(3) 0.3750
N8_3 N 0.6218(3) 0.8718(3) 0.3750
N9_3 N 0.5000(4) 0.8415 0.5394(2)
N15_3 N 0.3716(3) 0.9553(3) 0.4221(2)
N18_3 N 0.6284(3) 0.5447(3) 0.4221(2)
N20_3 N 0.6284(3) 0.9553(3) 0.4221(2)
C3_3 C 0.5000(5) 0.8070 0.6062(3)
C4_4 C 0.5570 0.7500(5) 0.1438(3)
C5_4 C 0.4430 0.7500(5) 0.1438(3)
H3_3 H 0.5000 0.8533 0.6458
H4_4 H 0.6033 0.7500 0.1042
H5_4 H 0.3967 0.7500 0.1042
C6_3 C 0.2335(4) 0.5306(4) 0.3461(3)
C8_3 C 0.2335(4) 0.9694(4) 0.3461(3)
C9_3 C 0.7665(4) 0.5306(4) 0.3461(3)
C10_3 C 0.7194(4) 0.4835(4) 0.4039(3)
C11_3 C 0.7665(4) 0.9694(4) 0.3461(3)
H6_3 H 0.1696 0.5045 0.3228
H8_3 H 0.1696 0.9955 0.3228
H9_3 H 0.8304 0.5045 0.3228
H10_3 H 0.7455 0.4196 0.4272
H11_3 H 0.8304 0.9955 0.3228
N3_4 N -0.0000(4) 0.3415 0.0394(2)
C1_4 C -0.0000(5) 0.3070 0.1062(3)
H1_4 H -0.0000 0.3533 0.1458
N9_4 N -0.0000(4) 0.1585 0.0394(2)
C3_4 C -0.0000(5) 0.1930 0.1062(3)
H3_4 H -0.0000 0.1467 0.1458
Cu1_5 Cu -0.0000 0.2500 0.8750
N1_5 N -0.0000 0.2500 0.9987(3)
N2_4 N 0.1218(3) 0.3718(3) 0.8750
N4_4 N 0.1284(3) 0.4553(3) 0.9221(2)
C2_4 C 0.2194(4) 0.5165(4) 0.9039(3)
H2_4 H 0.2455 0.5804 0.9272
N5_5 N -0.0000 0.2500 0.7513(3)
N6_4 N 0.1218(3) 0.1282(3) 0.8750
N15_4 N 0.1284(3) 0.0447(3) 0.9221(2)
C5_5 C 0.0570 0.2500(5) 0.6438(3)
H5_5 H 0.1033 0.2500 0.6042
C6_4 C 0.2665(4) 0.4694(4) 0.8461(3)
C8_4 C 0.2665(4) 0.0306(4) 0.8461(3)
H6_4 H 0.3304 0.4955 0.8228
H8_4 H 0.3304 0.0045 0.8228
C7_4 C 0.2194(4) 0.9835(4) 0.9039(3)
H7_4 H 0.2455 0.9196 0.9272
N3_5 N 1.0000(4) 0.3415 0.0394(2)
C1_5 C 1.0000(5) 0.3070 0.1062(3)
H1_5 H 1.0000 0.3533 0.1458
N9_5 N 1.0000(4) 0.1585 0.0394(2)
C3_5 C 1.0000(5) 0.1930 0.1062(3)
H3_5 H 1.0000 0.1467 0.1458
Cu1_6 Cu 1.0000 0.2500 0.8750
N1_6 N 1.0000 0.2500 0.9987(3)
N5_6 N 1.0000 0.2500 0.7513(3)
N7_4 N 0.8782(3) 0.3718(3) 0.8750
N8_4 N 0.8782(3) 0.1282(3) 0.8750
N18_4 N 0.8716(3) 0.4553(3) 0.9221(2)
N20_4 N 0.8716(3) 0.0447(3) 0.9221(2)
C4_5 C 0.9430 0.2500(5) 0.6438(3)
H4_5 H 0.8967 0.2500 0.6042
C9_4 C 0.7335(4) 0.4694(4) 0.8461(3)
C10_4 C 0.7806(4) 0.5165(4) 0.9039(3)
C11_4 C 0.7335(4) 0.0306(4) 0.8461(3)
H9_4 H 0.6696 0.4955 0.8228
H10_4 H 0.7545 0.5804 0.9272
H11_4 H 0.6696 0.0045 0.8228
C12_4 C 0.7806(4) 0.9835(4) 0.9039(3)
H12_4 H 0.7545 0.9196 0.9272
loop_
_geom_bond_atom_site_label_1
_geom_bond_atom_site_label_2
_geom_bond_site_symmetry_1
_geom_bond_site_symmetry_2
H8 C8 1_555 1_555
Cu1 N1 1_555 1_555
Cu3 N9 1_555 1_555
N5 Cu1 1_555 1_555
N6 Cu1 1_555 1_555
N8 Cu1 1_555 1_555
N9 N1 1_555 1_555
N13 Cu3 1_555 1_555
N15 Cu3 1_555 1_555
N16 Cu4_3 1_555 1_555
N19 Cu5 1_555 1_555
N20 Cu3 1_555 1_555
N23 Cu3 1_555 1_555
N24 Cu3 1_555 1_555
H3 C3 1_555 1_555
C7 N15 1_555 1_555
C11 N19 1_555 1_555
C12 N20 1_555 1_555
H7 C7 1_555 1_555
H11 C11 1_555 1_555
H12 C12 1_555 1_555
N6 N15 1_555 1_555
N6 N16 1_555 1_555
N8 N19 1_555 1_555
N8 N20 1_555 1_555
N9 C3 1_555 1_555
C11 C12 1_555 1_555
Cu4_4 N11 1_555 1_555
Cu5_2 N10 1_555 1_555
C4 N10 1_555 1_555
C5 N11 1_555 1_555
H4 C4 1_555 1_555
H5 C5 1_555 1_555
C4 C5 1_555 1_555
H6 C6 1_555 1_555
Cu1_2 N1_2 1_555 1_555
Cu2 N3 1_555 1_555
N1_2 N3 1_555 1_555
N2 Cu1_2 1_555 1_555
N3 C1 1_555 1_555
N4 Cu2 1_555 1_555
C1 H1 1_555 1_555
C2 N4 1_555 1_555
H2 C2 1_555 1_555
N5_2 Cu1_2 1_555 1_555
N7 Cu1_2 1_555 1_555
N12 Cu2 1_555 1_555
N14 N2 1_555 1_555
N17 Cu5_3 1_555 1_555
N18 Cu2 1_555 1_555
N21 Cu2 1_555 1_555
N22 Cu2 1_555 1_555
C9 N17 1_555 1_555
C10 N18 1_555 1_555
H9 C9 1_555 1_555
H10 C10 1_555 1_555
N2 N4 1_555 1_555
Cu4_7 N14 1_555 1_555
N7 N17 1_555 1_555
N7 N18 1_555 1_555
C9 C10 1_555 1_555
Cu4_8 N11_2 1_555 1_555
Cu5_4 N10_2 1_555 1_555
C4_2 N10_2 1_555 1_555
C5_2 N11_2 1_555 1_555
H4_2 C4_2 1_555 1_555
H5_2 C5_2 1_555 1_555
C4_2 C5_2 1_555 1_555
Cu1_3 N1_3 1_555 1_555
Cu2_2 N3_2 1_555 1_555
N1_3 N3_2 1_555 1_555
N2_2 Cu1_3 1_555 1_555
N3_2 C1_2 1_555 1_555
N4_2 Cu2_2 1_555 1_555
C1_2 H1_2 1_555 1_555
C2_2 N4_2 1_555 1_555
H2_2 C2_2 1_555 1_555
Cu3_2 N9_2 1_555 1_555
Cu4_9 N11_3 1_555 1_555
Cu5_5 N10_3 1_555 1_555
N5_3 Cu1_3 1_555 1_555
N6_2 Cu1_3 1_555 1_555
N7_2 Cu1_3 1_555 1_555
N8_2 Cu1_3 1_555 1_555
N9_2 N1_3 1_555 1_555
N10_3 N5_3 1_555 1_555
N11_3 N5_3 1_555 1_555
N12_2 Cu2_2 1_555 1_555
N13_2 Cu3_2 1_555 1_555
N14_2 N2_2 1_555 1_555
N15_2 Cu3_2 1_555 1_555
N16_2 Cu4_9 1_555 1_555
N17_2 Cu5_5 1_555 1_555
N18_2 Cu2_2 1_555 1_555
N19_2 Cu5_5 1_555 1_555
N20_2 Cu3_2 1_555 1_555
N21_2 Cu2_2 1_555 1_555
N22_2 Cu2_2 1_555 1_555
N23_2 Cu3_2 1_555 1_555
N24_2 Cu3_2 1_555 1_555
C3_2 C1_2 1_555 1_555
C4_3 N10_3 1_555 1_555
C5_3 N11_3 1_555 1_555
H3_2 C3_2 1_555 1_555
H4_3 C4_3 1_555 1_555
H5_3 C5_3 1_555 1_555
C7_2 N15_2 1_555 1_555
C9_2 N17_2 1_555 1_555
C10_2 N18_2 1_555 1_555
C11_2 N19_2 1_555 1_555
C12_2 N20_2 1_555 1_555
H7_2 C7_2 1_555 1_555
H9_2 C9_2 1_555 1_555
H10_2 C10_2 1_555 1_555
H11_2 C11_2 1_555 1_555
H12_2 C12_2 1_555 1_555
N2_2 N4_2 1_555 1_555
Cu4_9 N14_2 1_555 1_555
N6_2 N15_2 1_555 1_555
N6_2 N16_2 1_555 1_555
N7_2 N17_2 1_555 1_555
N7_2 N18_2 1_555 1_555
N8_2 N19_2 1_555 1_555
N8_2 N20_2 1_555 1_555
N9_2 C3_2 1_555 1_555
C4_3 C5_3 1_555 1_555
C9_2 C10_2 1_555 1_555
C11_2 C12_2 1_555 1_555
H6_2 C6_2 1_555 1_555
H8_2 C8_2 1_555 1_555
H7_3 C7_3 1_555 1_555
H12_3 C12_3 1_555 1_555
Cu1_4 N1_4 1_555 1_555
Cu5_5 N3_3 1_555 1_555
N1_4 N3_3 1_555 1_555
N2_3 Cu1_4 1_555 1_555
N3_3 C1_3 1_555 1_555
N4_3 Cu5_5 1_555 1_555
C1_3 H1_3 1_555 1_555
C2_3 N4_3 1_555 1_555
H2_3 C2_3 1_555 1_555
Cu4_10 N9_3 1_555 1_555
N5_4 Cu1_4 1_555 1_555
N6_3 Cu1_4 1_555 1_555
N7_3 Cu1_4 1_555 1_555
N8_3 Cu1_4 1_555 1_555
N9_3 N1_4 1_555 1_555
N12 N5_4 1_555 1_555
N13 N5_4 1_555 1_555
N23 N2_3 1_555 1_555
N15_3 Cu4_10 1_555 1_555
N18_3 Cu5_5 1_555 1_555
N20_3 Cu4_10 1_555 1_555
C3_3 C1_3 1_555 1_555
C4_4 N12 1_555 1_555
C5_4 N13 1_555 1_555
H3_3 C3_3 1_555 1_555
H4_4 C4_4 1_555 1_555
H5_4 C5_4 1_555 1_555
C6_3 C2_3 1_555 1_555
C8_3 N24 1_555 1_555
C9_3 N22 1_555 1_555
C10_3 N18_3 1_555 1_555
C11_3 N21 1_555 1_555
H6_3 C6_3 1_555 1_555
H8_3 C8_3 1_555 1_555
H9_3 C9_3 1_555 1_555
H10_3 C10_3 1_555 1_555
H11_3 C11_3 1_555 1_555
N2_3 N4_3 1_555 1_555
N6_3 N15_3 1_555 1_555
N6_3 N24 1_555 1_555
N7_3 N22 1_555 1_555
N7_3 N18_3 1_555 1_555
N8_3 N21 1_555 1_555
N8_3 N20_3 1_555 1_555
N9_3 C3_3 1_555 1_555
N23 C6_3 1_555 1_555
C4_4 C5_4 1_555 1_555
C9_3 C10_3 1_555 1_555
Cu5 N3_4 1_555 1_555
N3_4 C1_4 1_555 1_555
C1_4 H1_4 1_555 1_555
Cu4 N9_4 1_555 1_555
C3_4 C1_4 1_555 1_555
H3_4 C3_4 1_555 1_555
N9_4 C3_4 1_555 1_555
Cu1_5 N1_5 1_555 1_555
N2_4 Cu1_5 1_555 1_555
N4_4 Cu5_2 1_555 1_555
C2_4 N4_4 1_555 1_555
H2_4 C2_4 1_555 1_555
N5_5 Cu1_5 1_555 1_555
N6_4 Cu1_5 1_555 1_555
N13_2 N5_5 1_555 1_555
N23_2 N2_4 1_555 1_555
N15_4 Cu4_2 1_555 1_555
C5_5 N13_2 1_555 1_555
H5_5 C5_5 1_555 1_555
C6_4 C2_4 1_555 1_555
C8_4 N24_2 1_555 1_555
H6_4 C6_4 1_555 1_555
H8_4 C8_4 1_555 1_555
N2_4 N4_4 1_555 1_555
N6_4 N15_4 1_555 1_555
N6_4 N24_2 1_555 1_555
N23_2 C6_4 1_555 1_555
H7_4 C7_4 1_555 1_555
Cu5_3 N3_5 1_555 1_555
N3_5 C1_5 1_555 1_555
C1_5 H1_5 1_555 1_555
Cu4_5 N9_5 1_555 1_555
C3_5 C1_5 1_555 1_555
H3_5 C3_5 1_555 1_555
N9_5 C3_5 1_555 1_555
Cu1_6 N1_6 1_555 1_555
N5_6 Cu1_6 1_555 1_555
N7_4 Cu1_6 1_555 1_555
N8_4 Cu1_6 1_555 1_555
N12_2 N5_6 1_555 1_555
N18_4 Cu5_4 1_555 1_555
N20_4 Cu4_6 1_555 1_555
C4_5 N12_2 1_555 1_555
H4_5 C4_5 1_555 1_555
C9_4 N22_2 1_555 1_555
C10_4 N18_4 1_555 1_555
C11_4 N21_2 1_555 1_555
H9_4 C9_4 1_555 1_555
H10_4 C10_4 1_555 1_555
H11_4 C11_4 1_555 1_555
N7_4 N22_2 1_555 1_555
N7_4 N18_4 1_555 1_555
N8_4 N21_2 1_555 1_555
N8_4 N20_4 1_555 1_555
C9_4 C10_4 1_555 1_555
H12_4 C12_4 1_555 1_555

#END
