
###############################################################################
#
# This file contains modified crystal structure data generated from the
# MOF subset of the Cambridge Structural Database (CSD) v543 
# hosted by the Cambridge Crystallographic Data Centre (CCDC).
#
# This work is licensed under the Creative Commons
# Attribution-NonCommercial-ShareAlike 4.0 International License.
# To view a copy of this license, visit
# http://creativecommons.org/licenses/by-nc-sa/4.0/
# or send a letter to
# Creative Commons, PO Box 1866, Mountain View, CA 94042, USA.
#
# CIF created using the CSD Python API on 29 September 2022
# The structure has been converted into the P1 space group
# The structure has a 3D framework
# The original CSD entry CAYDOX01 is in the tetragonal crystal system
# The original CSD entry CAYDOX01 is in a Sohncke space group
# The framework has been calculated to contain at least 10.0% void space
# The void calculation uses a probe of radius 1.32A, grid spacing 0.4
#
###############################################################################

data_CAYDOX01
_chemical_formula_moiety         '(C24 H32 Cu4 N32 O4)n'
_symmetry_cell_setting           triclinic
_symmetry_space_group_name_H-M   'P 1'
_symmetry_Int_Tables_number      1
_space_group_name_Hall           'P 1'
loop_
_symmetry_equiv_pos_site_id
_symmetry_equiv_pos_as_xyz
1 x,y,z
_cell_length_a                   12.3879(3)
_cell_length_b                   12.3879(3)
_cell_length_c                   7.9323(3)
_cell_angle_alpha                90
_cell_angle_beta                 90
_cell_angle_gamma                90
_cell_volume                     1217.29
loop_
_atom_site_label
_atom_site_type_symbol
_atom_site_fract_x
_atom_site_fract_y
_atom_site_fract_z
H7 H 0.0085 0.6604 0.7009
H8 H 0.0448 0.6577 0.5118
N7 N 0.0240(5) 0.3466(5) 0.5518(8)
N8 N 0.0524(4) 0.4485(4) 0.5081(7)
Cu3 Cu 0.17709(6) 0.48590(6) 0.35868(10)
N2 N 0.7249(5) 0.6060(5) 0.1648(7)
N3 N 0.6463(5) 0.6722(5) 0.2095(7)
N4 N 0.5967(4) 0.7107(4) 0.0678(7)
Cu2 Cu 0.48590(6) 0.82291(6) 0.10868(10)
N10 N 0.9476(4) 0.5515(4) 0.0081(7)
Cu1 Cu 0.82291(6) 0.51410(6) 0.85868(10)
C1 C 0.6454(6) 0.6646(6) 0.9379(8)
C2 C 0.6184(6) 0.6761(6) 0.7550(9)
H1 H 0.5557 0.7225 0.7443
H2 H 0.5989 0.6057 0.7109
C3 C 0.7081(6) 0.7217(6) 0.6490(10)
H3 H 0.6842 0.7289 0.5332
H4 H 0.7278 0.7927 0.6903
C4 C 0.8843(6) 0.6807(7) 0.5390(10)
H5 H 0.8904 0.7587 0.5347
H6 H 0.8654 0.6554 0.4271
C5 C 0.9897(6) 0.6335(5) 0.5899(11)
C6 C 0.9895(5) 0.5131(5) 0.5940(10)
N1 N 0.7242(5) 0.6003(4) 0.9934(7)
N5 N 0.9234(4) 0.4547(4) 0.6904(7)
N6 N 0.9454(5) 0.3510(5) 0.6591(7)
O1 O 0.8003(4) 0.6508(4) 0.6567(6)
N9 N 0.7107(4) 0.4033(4) 0.8178(7)
H7_2 H 0.3396 0.0085 0.9509
H8_2 H 0.3423 0.0448 0.7618
N7_2 N 0.6534(5) 0.0240(5) 0.8018(8)
N8_2 N 0.5515(4) 0.0524(4) 0.7581(7)
Cu3_2 Cu 0.51410(6) 0.17709(6) 0.60868(10)
C1_2 C 0.3354(6) 0.6454(6) 0.1879(8)
C2_2 C 0.3239(6) 0.6184(6) 0.0050(9)
N1_2 N 0.3997(4) 0.7242(5) 0.2434(7)
N2_2 N 0.3940(5) 0.7249(5) 0.4148(7)
N3_2 N 0.3278(5) 0.6463(5) 0.4595(7)
N4_2 N 0.2893(4) 0.5967(4) 0.3178(7)
N10_2 N 0.4485(4) 0.9476(4) 0.2581(7)
C1_3 C 0.3546(6) 0.3354(6) 0.4379(8)
C2_3 C 0.3816(6) 0.3239(6) 0.2550(9)
H1_2 H 0.4443 0.2775 0.2443
H2_2 H 0.4011 0.3943 0.2109
C3_2 C 0.2919(6) 0.2783(6) 0.1490(10)
H3_2 H 0.3158 0.2711 0.0332
H4_2 H 0.2722 0.2073 0.1903
C4_2 C 0.1157(6) 0.3193(7) 0.0390(10)
H5_2 H 0.1096 0.2413 0.0347
C5_2 C 0.0103(6) 0.3665(5) 0.0899(11)
C6_2 C 0.0105(5) 0.4869(5) 0.0940(10)
N1_3 N 0.2758(5) 0.3997(4) 0.4934(7)
N2_3 N 0.2751(5) 0.3940(5) 0.6648(7)
N3_3 N 0.3537(5) 0.3278(5) 0.7095(7)
N4_3 N 0.4033(4) 0.2893(4) 0.5678(7)
N5_2 N 0.0766(4) 0.5453(4) 0.1904(7)
N6_2 N 0.0546(5) 0.6490(5) 0.1591(7)
O1_2 O 0.1997(4) 0.3492(4) 0.1567(6)
H7_3 H 0.9915 0.3396 0.2009
H8_3 H 0.9552 0.3423 0.0118
N7_3 N 0.9760(5) 0.6534(5) 0.0518(8)
C1_4 C 0.6646(6) 0.3546(6) 0.6879(8)
C2_4 C 0.6761(6) 0.3816(6) 0.5050(9)
H1_3 H 0.7225 0.4443 0.4943
H2_3 H 0.6057 0.4011 0.4609
C3_3 C 0.7217(6) 0.2919(6) 0.3990(10)
H3_3 H 0.7289 0.3158 0.2832
H4_3 H 0.7927 0.2722 0.4403
C4_3 C 0.6807(7) 0.1157(6) 0.2890(10)
H5_3 H 0.7587 0.1096 0.2847
H6_2 H 0.6554 0.1346 0.1771
C5_3 C 0.6335(5) 0.0103(6) 0.3399(11)
C6_3 C 0.5131(5) 0.0105(5) 0.3440(10)
N1_4 N 0.6003(4) 0.2758(5) 0.7434(7)
N2_4 N 0.6060(5) 0.2751(5) 0.9148(7)
N3_4 N 0.6722(5) 0.3537(5) 0.9595(7)
N5_3 N 0.4547(4) 0.0766(4) 0.4404(7)
N6_3 N 0.3510(5) 0.0546(5) 0.4091(7)
O1_3 O 0.6508(4) 0.1997(4) 0.4067(6)
H7_4 H 0.6604 0.9915 0.4509
H8_4 H 0.6577 0.9552 0.2618
N7_4 N 0.3466(5) 0.9760(5) 0.3018(8)
H1_4 H 0.2775 0.5557 0.9943
H2_4 H 0.3943 0.5989 0.9609
C3_4 C 0.2783(6) 0.7081(6) 0.8990(10)
H3_4 H 0.2711 0.6842 0.7832
H4_4 H 0.2073 0.7278 0.9403
C4_4 C 0.3193(7) 0.8843(6) 0.7890(10)
H5_4 H 0.2413 0.8904 0.7847
H6_3 H 0.3446 0.8654 0.6771
C5_4 C 0.3665(5) 0.9897(6) 0.8399(11)
C6_4 C 0.4869(5) 0.9895(5) 0.8440(10)
N5_4 N 0.5453(4) 0.9234(4) 0.9404(7)
N6_4 N 0.6490(5) 0.9454(5) 0.9091(7)
O1_4 O 0.3492(4) 0.8003(4) 0.9067(6)
H6_4 H 0.1346 0.3446 0.9271
loop_
_geom_bond_atom_site_label_1
_geom_bond_atom_site_label_2
_geom_bond_site_symmetry_1
_geom_bond_site_symmetry_2
Cu3 N8 1_555 1_555
N7 N8 1_555 1_555
N3 N2 1_555 1_555
Cu2 N4 1_555 1_555
N3 N4 1_555 1_555
Cu1 N1 1_555 1_555
C1 C2 1_555 1_555
C2 H1 1_555 1_555
H2 C2 1_555 1_555
C3 C2 1_555 1_555
H3 C3 1_555 1_555
H4 C3 1_555 1_555
C4 H5 1_555 1_555
H6 C4 1_555 1_555
C5 C4 1_555 1_555
C6 C5 1_555 1_555
N1 C1 1_555 1_555
N5 Cu1 1_555 1_555
N6 N5 1_555 1_555
O1 Cu1 1_555 1_555
N9 Cu1 1_555 1_555
C3 O1 1_555 1_555
C4 O1 1_555 1_555
C6 N5 1_555 1_555
Cu3_2 N8_2 1_555 1_555
N7_2 N8_2 1_555 1_555
Cu2 N1_2 1_555 1_555
C1_2 C2_2 1_555 1_555
N1_2 C1_2 1_555 1_555
N2_2 N1_2 1_555 1_555
N3_2 N2_2 1_555 1_555
N4_2 C1_2 1_555 1_555
Cu3 N4_2 1_555 1_555
N10_2 Cu2 1_555 1_555
N3_2 N4_2 1_555 1_555
Cu3 N1_3 1_555 1_555
C1_3 C2_3 1_555 1_555
C2_3 H1_2 1_555 1_555
H2_2 C2_3 1_555 1_555
C3_2 C2_3 1_555 1_555
H3_2 C3_2 1_555 1_555
H4_2 C3_2 1_555 1_555
C4_2 H5_2 1_555 1_555
C5_2 C4_2 1_555 1_555
C6_2 C5_2 1_555 1_555
N1_3 C1_3 1_555 1_555
N2_3 N1_3 1_555 1_555
N3_3 N2_3 1_555 1_555
N4_3 C1_3 1_555 1_555
N5_2 Cu3 1_555 1_555
N6_2 N5_2 1_555 1_555
O1_2 Cu3 1_555 1_555
Cu3_2 N4_3 1_555 1_555
C3_2 O1_2 1_555 1_555
C4_2 O1_2 1_555 1_555
C6_2 N5_2 1_555 1_555
N3_3 N4_3 1_555 1_555
N7_3 N10 1_555 1_555
Cu3_2 N1_4 1_555 1_555
C1_4 C2_4 1_555 1_555
C2_4 H1_3 1_555 1_555
H2_3 C2_4 1_555 1_555
C3_3 C2_4 1_555 1_555
H3_3 C3_3 1_555 1_555
H4_3 C3_3 1_555 1_555
C4_3 H5_3 1_555 1_555
H6_2 C4_3 1_555 1_555
C5_3 C4_3 1_555 1_555
C6_3 C5_3 1_555 1_555
N1_4 C1_4 1_555 1_555
N2_4 N1_4 1_555 1_555
N3_4 N2_4 1_555 1_555
N9 C1_4 1_555 1_555
N5_3 Cu3_2 1_555 1_555
N6_3 N5_3 1_555 1_555
O1_3 Cu3_2 1_555 1_555
C3_3 O1_3 1_555 1_555
C4_3 O1_3 1_555 1_555
C6_3 N5_3 1_555 1_555
N3_4 N9 1_555 1_555
N7_4 N10_2 1_555 1_555
H3_4 C3_4 1_555 1_555
H4_4 C3_4 1_555 1_555
C4_4 H5_4 1_555 1_555
H6_3 C4_4 1_555 1_555
C5_4 C4_4 1_555 1_555
C6_4 C5_4 1_555 1_555
N6_4 N5_4 1_555 1_555
C3_4 O1_4 1_555 1_555
C4_4 O1_4 1_555 1_555
C6_4 N5_4 1_555 1_555

#END
