
###############################################################################
#
# This file contains modified crystal structure data generated from the
# MOF subset of the Cambridge Structural Database (CSD) v543 
# hosted by the Cambridge Crystallographic Data Centre (CCDC).
#
# This work is licensed under the Creative Commons
# Attribution-NonCommercial-ShareAlike 4.0 International License.
# To view a copy of this license, visit
# http://creativecommons.org/licenses/by-nc-sa/4.0/
# or send a letter to
# Creative Commons, PO Box 1866, Mountain View, CA 94042, USA.
#
# CIF created using the CSD Python API on 29 September 2022
# The structure has been converted into the P1 space group
# The structure has a 3D framework
# The original CSD entry CAYDOX is in the tetragonal crystal system
# The original CSD entry CAYDOX is in a Sohncke space group
# The framework has been calculated to contain at least 10.0% void space
# The void calculation uses a probe of radius 1.32A, grid spacing 0.4
#
###############################################################################

data_CAYDOX
_chemical_formula_moiety         '(C24 H32 Cu4 N32 O4)n'
_symmetry_cell_setting           triclinic
_symmetry_space_group_name_H-M   'P 1'
_symmetry_Int_Tables_number      1
_space_group_name_Hall           'P 1'
loop_
_symmetry_equiv_pos_site_id
_symmetry_equiv_pos_as_xyz
1 x,y,z
_cell_length_a                   12.3857(3)
_cell_length_b                   12.3857(3)
_cell_length_c                   7.8956(3)
_cell_angle_alpha                90
_cell_angle_beta                 90
_cell_angle_gamma                90
_cell_volume                     1211.23
loop_
_atom_site_label
_atom_site_type_symbol
_atom_site_fract_x
_atom_site_fract_y
_atom_site_fract_z
Cu2 Cu 0.32308(10) 0.01422(10) 0.48882(18)
Cu1 Cu 0.01422(10) 0.67692(10) 0.23882(18)
C1 C 0.1638(9) 0.8530(10) 0.3196(16)
C2 C 0.1762(11) 0.8821(9) 0.1361(17)
H1 H 0.1063 0.9031 0.0916
H2 H 0.2236 0.9442 0.1273
C3 C 0.2208(10) 0.7928(10) 0.0286(19)
H4 H 0.2925 0.7735 0.0678
H8 H 0.1587 0.4885 0.0789
N1 N 0.0996(7) 0.7753(7) 0.3759(14)
N2 N 0.1077(9) 0.7740(8) 0.5472(13)
N3 N 0.1735(8) 0.8522(9) 0.5961(15)
N4 N 0.2098(7) 0.9042(7) 0.4532(14)
O1 O 0.1511(6) 0.7006(6) 0.0380(11)
N10 N 0.0526(7) 0.5524(7) 0.3873(14)
N5 N 0.9539(8) 0.5786(7) 0.0682(13)
N6 N 0.8503(7) 0.5557(7) 0.0396(13)
N9 N 0.9042(7) 0.7902(7) 0.2032(14)
N7 N 0.8446(8) 0.4781(9) 0.9277(16)
N8 N 0.9474(7) 0.4476(7) 0.8873(14)
Cu3 Cu 0.98578(10) 0.32308(10) 0.73882(18)
C1_2 C 0.1470(10) 0.1638(9) 0.5696(16)
C2_2 C 0.1179(9) 0.1762(11) 0.3861(17)
H1_2 H 0.0969 0.1063 0.3416
H2_2 H 0.0558 0.2236 0.3773
C3_2 C 0.2072(10) 0.2208(10) 0.2786(19)
H3 H 0.1832 0.2265 0.1620
H4_2 H 0.2265 0.2925 0.3178
C4 C 0.3845(10) 0.1819(9) 0.170(2)
H5 H 0.3917 0.2598 0.1688
H6 H 0.3649 0.1587 0.0566
C5 C 0.4906(9) 0.1321(9) 0.218(2)
H7 H 0.5452 0.1553 0.1378
H8_2 H 0.5115 0.1587 0.3289
C6 C 0.4890(9) 0.0121(10) 0.223(2)
N1_2 N 0.2247(7) 0.0996(7) 0.6259(14)
N2_2 N 0.2260(8) 0.1077(9) 0.7972(13)
N3_2 N 0.1478(9) 0.1735(8) 0.8461(15)
N4_2 N 0.0958(7) 0.2098(7) 0.7032(14)
O1_2 O 0.2994(6) 0.1511(6) 0.2880(11)
N10_2 N 0.4476(7) 0.0526(7) 0.6373(14)
N5_2 N 0.4214(7) 0.9539(8) 0.3182(13)
N6_2 N 0.4443(7) 0.8503(7) 0.2896(13)
N7_2 N 0.5219(9) 0.8446(8) 0.1777(16)
N8_2 N 0.5524(7) 0.9474(7) 0.1373(14)
N5_3 N 0.0461(8) 0.4214(7) 0.5682(13)
N6_3 N 0.1497(7) 0.4443(7) 0.5396(13)
N7_3 N 0.1554(8) 0.5219(9) 0.4277(16)
C1_3 C 0.8362(9) 0.1470(10) 0.8196(16)
C2_3 C 0.8238(11) 0.1179(9) 0.6361(17)
H1_3 H 0.8937 0.0969 0.5916
H2_3 H 0.7764 0.0558 0.6273
C3_3 C 0.7792(10) 0.2072(10) 0.5286(19)
H3_2 H 0.7735 0.1832 0.4120
H4_3 H 0.7075 0.2265 0.5678
C4_2 C 0.8181(9) 0.3845(10) 0.420(2)
H5_2 H 0.7402 0.3917 0.4188
H6_2 H 0.8413 0.3649 0.3066
C5_2 C 0.8679(9) 0.4906(9) 0.468(2)
H7_2 H 0.8447 0.5452 0.3878
H8_3 H 0.8413 0.5115 0.5789
C6_2 C 0.9879(10) 0.4890(9) 0.473(2)
N1_3 N 0.9004(7) 0.2247(7) 0.8759(14)
N4_3 N 0.7902(7) 0.0958(7) 0.9532(14)
O1_3 O 0.8489(6) 0.2994(6) 0.5380(11)
N5_4 N 0.5786(7) 0.0461(8) 0.8182(13)
N6_4 N 0.5557(7) 0.1497(7) 0.7896(13)
N7_4 N 0.4781(9) 0.1554(8) 0.6777(16)
C1_4 C 0.8530(10) 0.8362(9) 0.0696(16)
N1_4 N 0.7753(7) 0.9004(7) 0.1259(14)
N2_3 N 0.7740(8) 0.8923(9) 0.2972(13)
N3_3 N 0.8522(9) 0.8265(8) 0.3461(15)
H3_3 H 0.2265 0.8168 0.9120
C4_3 C 0.1819(9) 0.6155(10) 0.920(2)
H5_3 H 0.2598 0.6083 0.9188
H6_3 H 0.1587 0.6351 0.8066
C5_3 C 0.1321(9) 0.5094(9) 0.968(2)
H7_3 H 0.1553 0.4548 0.8878
C6_3 C 0.0121(10) 0.5110(9) 0.973(2)
Cu3_2 Cu 0.67692(10) 0.98578(10) 0.98882(18)
C2_4 C 0.8821(9) 0.8238(11) 0.8861(17)
H1_4 H 0.9031 0.8937 0.8416
H2_4 H 0.9442 0.7764 0.8773
C3_4 C 0.7928(10) 0.7792(10) 0.7786(19)
H3_4 H 0.8168 0.7735 0.6620
H4_4 H 0.7735 0.7075 0.8178
C4_4 C 0.6155(10) 0.8181(9) 0.670(2)
H5_4 H 0.6083 0.7402 0.6688
H6_4 H 0.6351 0.8413 0.5566
C5_4 C 0.5094(9) 0.8679(9) 0.718(2)
H7_4 H 0.4548 0.8447 0.6378
H8_4 H 0.4885 0.8413 0.8289
C6_4 C 0.5110(9) 0.9879(10) 0.723(2)
O1_4 O 0.7006(6) 0.8489(6) 0.7880(11)
N2_4 N 0.8923(9) 0.2260(8) 0.0472(13)
N3_4 N 0.8265(8) 0.1478(9) 0.0961(15)
loop_
_geom_bond_atom_site_label_1
_geom_bond_atom_site_label_2
_geom_bond_site_symmetry_1
_geom_bond_site_symmetry_2
Cu1 N1 1_555 1_555
C1 C2 1_555 1_555
C2 H1 1_555 1_555
H2 C2 1_555 1_555
C3 C2 1_555 1_555
H4 C3 1_555 1_555
N1 C1 1_555 1_555
N2 N1 1_555 1_555
N3 N2 1_555 1_555
N4 C1 1_555 1_555
O1 Cu1 1_555 1_555
N10 Cu1 1_555 1_555
C3 O1 1_555 1_555
N3 N4 1_555 1_555
N6 N5 1_555 1_555
Cu3 N8 1_555 1_555
N7 N8 1_555 1_555
Cu2 N1_2 1_555 1_555
C1_2 C2_2 1_555 1_555
C2_2 H1_2 1_555 1_555
H2_2 C2_2 1_555 1_555
C3_2 C2_2 1_555 1_555
H3 C3_2 1_555 1_555
H4_2 C3_2 1_555 1_555
C4 H5 1_555 1_555
H6 C4 1_555 1_555
C5 C4 1_555 1_555
H7 C5 1_555 1_555
H8_2 C5 1_555 1_555
C6 C5 1_555 1_555
N1_2 C1_2 1_555 1_555
N2_2 N1_2 1_555 1_555
N3_2 N2_2 1_555 1_555
N4_2 C1_2 1_555 1_555
O1_2 Cu2 1_555 1_555
N10_2 Cu2 1_555 1_555
C3_2 O1_2 1_555 1_555
C4 O1_2 1_555 1_555
N3_2 N4_2 1_555 1_555
N6_2 N5_2 1_555 1_555
N7_2 N6_2 1_555 1_555
N7_2 N8_2 1_555 1_555
N6_3 N5_3 1_555 1_555
N7_3 N6_3 1_555 1_555
N7_3 N10 1_555 1_555
Cu3 N1_3 1_555 1_555
C1_3 C2_3 1_555 1_555
C2_3 H1_3 1_555 1_555
H2_3 C2_3 1_555 1_555
C3_3 C2_3 1_555 1_555
H3_2 C3_3 1_555 1_555
H4_3 C3_3 1_555 1_555
C4_2 H5_2 1_555 1_555
H6_2 C4_2 1_555 1_555
C5_2 C4_2 1_555 1_555
H7_2 C5_2 1_555 1_555
H8_3 C5_2 1_555 1_555
C6_2 C5_2 1_555 1_555
N1_3 C1_3 1_555 1_555
N4_3 C1_3 1_555 1_555
O1_3 Cu3 1_555 1_555
C3_3 O1_3 1_555 1_555
C4_2 O1_3 1_555 1_555
N6_4 N5_4 1_555 1_555
N7_4 N6_4 1_555 1_555
N7_4 N10_2 1_555 1_555
N1_4 C1_4 1_555 1_555
N2_3 N1_4 1_555 1_555
N3_3 N2_3 1_555 1_555
N9 C1_4 1_555 1_555
N3_3 N9 1_555 1_555
C4_3 H5_3 1_555 1_555
H6_3 C4_3 1_555 1_555
C5_3 C4_3 1_555 1_555
H7_3 C5_3 1_555 1_555
C6_3 C5_3 1_555 1_555
C2_4 H1_4 1_555 1_555
H2_4 C2_4 1_555 1_555
C3_4 C2_4 1_555 1_555
H3_4 C3_4 1_555 1_555
H4_4 C3_4 1_555 1_555
C4_4 H5_4 1_555 1_555
H6_4 C4_4 1_555 1_555
C5_4 C4_4 1_555 1_555
H7_4 C5_4 1_555 1_555
H8_4 C5_4 1_555 1_555
C6_4 C5_4 1_555 1_555
O1_4 Cu3_2 1_555 1_555
C3_4 O1_4 1_555 1_555
C4_4 O1_4 1_555 1_555
N3_4 N2_4 1_555 1_555

#END
