
###############################################################################
#
# This file contains modified crystal structure data generated from the
# MOF subset of the Cambridge Structural Database (CSD) v543 
# hosted by the Cambridge Crystallographic Data Centre (CCDC).
#
# This work is licensed under the Creative Commons
# Attribution-NonCommercial-ShareAlike 4.0 International License.
# To view a copy of this license, visit
# http://creativecommons.org/licenses/by-nc-sa/4.0/
# or send a letter to
# Creative Commons, PO Box 1866, Mountain View, CA 94042, USA.
#
# CIF created using the CSD Python API on 29 September 2022
# The structure has been converted into the P1 space group
# The structure has a 3D framework
# The original CSD entry CAYDOX03 is in the tetragonal crystal system
# The original CSD entry CAYDOX03 is in a Sohncke space group
# The framework has been calculated to contain at least 10.0% void space
# The void calculation uses a probe of radius 1.32A, grid spacing 0.4
#
###############################################################################

data_CAYDOX03
_chemical_formula_moiety         '(C24 H32 Cu4 N32 O4)n'
_symmetry_cell_setting           triclinic
_symmetry_space_group_name_H-M   'P 1'
_symmetry_Int_Tables_number      1
_space_group_name_Hall           'P 1'
loop_
_symmetry_equiv_pos_site_id
_symmetry_equiv_pos_as_xyz
1 x,y,z
_cell_length_a                   12.3965(3)
_cell_length_b                   12.3965(3)
_cell_length_c                   7.9197(3)
_cell_angle_alpha                90
_cell_angle_beta                 90
_cell_angle_gamma                90
_cell_volume                     1217.05
loop_
_atom_site_label
_atom_site_type_symbol
_atom_site_fract_x
_atom_site_fract_y
_atom_site_fract_z
H8 H 0.0077 0.6581 0.0189
H7 H 0.0456 0.6567 0.8303
N7 N 0.0239(6) 0.3467(5) 0.8661(8)
N8 N 0.0512(5) 0.4489(5) 0.8234(7)
Cu3 Cu 0.17708(6) 0.48588(6) 0.67336(10)
Cu1 Cu 0.82292(6) 0.51412(6) 0.17336(10)
C1 C 0.6452(6) 0.6644(6) 0.2525(8)
C2 C 0.6182(7) 0.6764(7) 0.0695(9)
H1 H 0.5559 0.7233 0.0591
H2 H 0.5983 0.6063 0.0249
H4 H 0.7274 0.7926 0.0053
N1 N 0.7248(5) 0.5992(5) 0.3082(7)
N2 N 0.7240(5) 0.6060(6) 0.4803(7)
N3 N 0.6461(6) 0.6730(5) 0.5241(7)
N4 N 0.5964(5) 0.7109(5) 0.3824(7)
N5 N 0.9233(4) 0.4544(5) 0.0048(7)
Cu2 Cu 0.48588(6) 0.82292(6) 0.42336(10)
N9 N 0.7109(5) 0.4036(5) 0.1324(7)
N10 N 0.9488(5) 0.5511(5) 0.3234(7)
H7_2 H 0.3433 0.0456 0.0803
H8_2 H 0.3419 0.0077 0.2689
N7_2 N 0.6533(5) 0.0239(6) 0.1161(8)
N8_2 N 0.5511(5) 0.0512(5) 0.0734(7)
Cu3_2 Cu 0.51412(6) 0.17708(6) 0.92336(10)
C1_2 C 0.3356(6) 0.6452(6) 0.5025(8)
C2_2 C 0.3236(7) 0.6182(7) 0.3195(9)
H1_2 H 0.2767 0.5559 0.3091
H2_2 H 0.3937 0.5983 0.2749
C3 C 0.2785(7) 0.7078(7) 0.2141(10)
H3 H 0.2713 0.6839 0.0980
H4_2 H 0.2074 0.7274 0.2553
C4 C 0.3193(7) 0.8855(7) 0.1047(10)
H5 H 0.2414 0.8923 0.1015
C5 C 0.3679(6) 0.9897(6) 0.1568(12)
C6 C 0.4873(5) 0.9898(5) 0.1590(11)
N1_2 N 0.4008(5) 0.7248(5) 0.5582(7)
N2_2 N 0.3940(6) 0.7240(5) 0.7303(7)
N3_2 N 0.3270(5) 0.6461(6) 0.7741(7)
N4_2 N 0.2891(5) 0.5964(5) 0.6324(7)
N5_2 N 0.5456(5) 0.9233(4) 0.2548(7)
N6 N 0.6486(5) 0.9457(5) 0.2235(8)
O1 O 0.3492(4) 0.8004(4) 0.2216(6)
N10_2 N 0.4489(5) 0.9488(5) 0.5734(7)
C1_3 C 0.3548(6) 0.3356(6) 0.7525(8)
C2_3 C 0.3818(7) 0.3236(7) 0.5695(9)
H1_3 H 0.4441 0.2767 0.5591
H2_3 H 0.4017 0.3937 0.5249
C3_2 C 0.2922(7) 0.2785(7) 0.4641(10)
H3_2 H 0.3161 0.2713 0.3480
H4_3 H 0.2726 0.2074 0.5053
C4_2 C 0.1145(7) 0.3193(7) 0.3547(10)
H5_2 H 0.1077 0.2414 0.3515
H6 H 0.1331 0.3440 0.2421
C5_2 C 0.0103(6) 0.3679(6) 0.4068(12)
C6_2 C 0.0102(5) 0.4873(5) 0.4090(11)
N1_3 N 0.2752(5) 0.4008(5) 0.8082(7)
N2_3 N 0.2760(5) 0.3940(6) 0.9803(7)
N4_3 N 0.4036(5) 0.2891(5) 0.8824(7)
N5_3 N 0.0767(4) 0.5456(5) 0.5048(7)
N6_2 N 0.0543(5) 0.6486(5) 0.4735(8)
O1_2 O 0.1996(4) 0.3492(4) 0.4716(6)
H7_3 H 0.9544 0.3433 0.3303
H8_3 H 0.9923 0.3419 0.5189
N7_3 N 0.9761(6) 0.6533(5) 0.3661(8)
C1_4 C 0.6644(6) 0.3548(6) 0.0025(8)
N1_4 N 0.5992(5) 0.2752(5) 0.0582(7)
N2_4 N 0.6060(6) 0.2760(5) 0.2303(7)
N3_3 N 0.6730(5) 0.3539(6) 0.2741(7)
C2_4 C 0.6764(7) 0.3818(7) 0.8195(9)
H1_4 H 0.7233 0.4441 0.8091
H2_4 H 0.6063 0.4017 0.7749
C3_3 C 0.7215(7) 0.2922(7) 0.7141(10)
H3_3 H 0.7287 0.3161 0.5980
H4_4 H 0.7926 0.2726 0.7553
C4_3 C 0.6807(7) 0.1145(7) 0.6047(10)
H5_3 H 0.7586 0.1077 0.6015
H6_2 H 0.6560 0.1331 0.4921
C5_3 C 0.6321(6) 0.0103(6) 0.6568(12)
C6_3 C 0.5127(5) 0.0102(5) 0.6590(11)
N5_4 N 0.4544(5) 0.0767(4) 0.7548(7)
N6_3 N 0.3514(5) 0.0543(5) 0.7235(8)
O1_3 O 0.6508(4) 0.1996(4) 0.7216(6)
H7_4 H 0.6567 0.9544 0.5803
H8_4 H 0.6581 0.9923 0.7689
N7_4 N 0.3467(5) 0.9761(6) 0.6161(8)
C3_4 C 0.7078(7) 0.7215(7) 0.9641(10)
H3_4 H 0.6839 0.7287 0.8480
C4_4 C 0.8855(7) 0.6807(7) 0.8547(10)
H5_4 H 0.8923 0.7586 0.8515
H6_3 H 0.8669 0.6560 0.7421
C5_4 C 0.9897(6) 0.6321(6) 0.9068(12)
C6_4 C 0.9898(5) 0.5127(5) 0.9090(11)
N6_4 N 0.9457(5) 0.3514(5) 0.9735(8)
O1_4 O 0.8004(4) 0.6508(4) 0.9716(6)
H6_4 H 0.3440 0.8669 0.9921
N3_4 N 0.3539(6) 0.3270(5) 0.0241(7)
loop_
_geom_bond_atom_site_label_1
_geom_bond_atom_site_label_2
_geom_bond_site_symmetry_1
_geom_bond_site_symmetry_2
Cu3 N8 1_555 1_555
N7 N8 1_555 1_555
Cu1 N1 1_555 1_555
C1 C2 1_555 1_555
C2 H1 1_555 1_555
H2 C2 1_555 1_555
N1 C1 1_555 1_555
N2 N1 1_555 1_555
N3 N2 1_555 1_555
N4 C1 1_555 1_555
N5 Cu1 1_555 1_555
Cu2 N4 1_555 1_555
N9 Cu1 1_555 1_555
N10 Cu1 1_555 1_555
N3 N4 1_555 1_555
N7_2 N8_2 1_555 1_555
Cu2 N1_2 1_555 1_555
C1_2 C2_2 1_555 1_555
C2_2 H1_2 1_555 1_555
H2_2 C2_2 1_555 1_555
C3 C2_2 1_555 1_555
H3 C3 1_555 1_555
H4_2 C3 1_555 1_555
C4 H5 1_555 1_555
C5 C4 1_555 1_555
C6 C5 1_555 1_555
N1_2 C1_2 1_555 1_555
N2_2 N1_2 1_555 1_555
N3_2 N2_2 1_555 1_555
N4_2 C1_2 1_555 1_555
N5_2 Cu2 1_555 1_555
N6 N5_2 1_555 1_555
O1 Cu2 1_555 1_555
Cu3 N4_2 1_555 1_555
N10_2 Cu2 1_555 1_555
C3 O1 1_555 1_555
C4 O1 1_555 1_555
C6 N5_2 1_555 1_555
N3_2 N4_2 1_555 1_555
Cu3 N1_3 1_555 1_555
C1_3 C2_3 1_555 1_555
C2_3 H1_3 1_555 1_555
H2_3 C2_3 1_555 1_555
C3_2 C2_3 1_555 1_555
H3_2 C3_2 1_555 1_555
H4_3 C3_2 1_555 1_555
C4_2 H5_2 1_555 1_555
H6 C4_2 1_555 1_555
C5_2 C4_2 1_555 1_555
C6_2 C5_2 1_555 1_555
N1_3 C1_3 1_555 1_555
N2_3 N1_3 1_555 1_555
N4_3 C1_3 1_555 1_555
N5_3 Cu3 1_555 1_555
N6_2 N5_3 1_555 1_555
O1_2 Cu3 1_555 1_555
Cu3_2 N4_3 1_555 1_555
C3_2 O1_2 1_555 1_555
C4_2 O1_2 1_555 1_555
C6_2 N5_3 1_555 1_555
N7_3 N10 1_555 1_555
N1_4 C1_4 1_555 1_555
N2_4 N1_4 1_555 1_555
N3_3 N2_4 1_555 1_555
N9 C1_4 1_555 1_555
N3_3 N9 1_555 1_555
C2_4 H1_4 1_555 1_555
H2_4 C2_4 1_555 1_555
C3_3 C2_4 1_555 1_555
H3_3 C3_3 1_555 1_555
H4_4 C3_3 1_555 1_555
C4_3 H5_3 1_555 1_555
H6_2 C4_3 1_555 1_555
C5_3 C4_3 1_555 1_555
C6_3 C5_3 1_555 1_555
N5_4 Cu3_2 1_555 1_555
N6_3 N5_4 1_555 1_555
O1_3 Cu3_2 1_555 1_555
C3_3 O1_3 1_555 1_555
C4_3 O1_3 1_555 1_555
C6_3 N5_4 1_555 1_555
N7_4 N10_2 1_555 1_555
H3_4 C3_4 1_555 1_555
C4_4 H5_4 1_555 1_555
H6_3 C4_4 1_555 1_555
C5_4 C4_4 1_555 1_555
C6_4 C5_4 1_555 1_555
C3_4 O1_4 1_555 1_555
C4_4 O1_4 1_555 1_555

#END
