
###############################################################################
#
# This file contains modified crystal structure data generated from the
# MOF subset of the Cambridge Structural Database (CSD) v543 
# hosted by the Cambridge Crystallographic Data Centre (CCDC).
#
# This work is licensed under the Creative Commons
# Attribution-NonCommercial-ShareAlike 4.0 International License.
# To view a copy of this license, visit
# http://creativecommons.org/licenses/by-nc-sa/4.0/
# or send a letter to
# Creative Commons, PO Box 1866, Mountain View, CA 94042, USA.
#
# CIF created using the CSD Python API on 29 September 2022
# The structure has been converted into the P1 space group
# The structure has a 3D framework
# The original CSD entry CAYDEN is in the tetragonal crystal system
# The original CSD entry CAYDEN is in a Sohncke space group
# The framework has been calculated to contain at least 10.0% void space
# The void calculation uses a probe of radius 1.32A, grid spacing 0.4
#
###############################################################################

data_CAYDEN
_chemical_formula_moiety         '(C24 H32 Cu4 N32 O4)n'
_symmetry_cell_setting           triclinic
_symmetry_space_group_name_H-M   'P 1'
_symmetry_Int_Tables_number      1
_space_group_name_Hall           'P 1'
loop_
_symmetry_equiv_pos_site_id
_symmetry_equiv_pos_as_xyz
1 x,y,z
_cell_length_a                   12.2996(3)
_cell_length_b                   12.2996(3)
_cell_length_c                   7.9073(3)
_cell_angle_alpha                90
_cell_angle_beta                 90
_cell_angle_gamma                90
_cell_volume                     1196.22
loop_
_atom_site_label
_atom_site_type_symbol
_atom_site_fract_x
_atom_site_fract_y
_atom_site_fract_z
Cu2 Cu 0.01540(5) 0.67645(5) 0.90243(8)
C1 C 0.1656(5) 0.8545(5) 0.9833(7)
C2 C 0.1764(5) 0.8832(5) 0.8003(7)
H1 H 0.2238 0.9459 0.7898
H2 H 0.1056 0.9035 0.7567
C3 C 0.2220(5) 0.7908(5) 0.6934(7)
H3 H 0.2294 0.8146 0.5770
H4 H 0.2934 0.7707 0.7348
C4 C 0.1841(5) 0.6162(5) 0.5846(8)
H5 H 0.2627 0.6097 0.5853
H6 H 0.1616 0.6359 0.4711
C5 C 0.1334(5) 0.5086(5) 0.6333(9)
H7 H 0.1583 0.4533 0.5550
H8 H 0.1588 0.4886 0.7452
C6 C 0.0114(5) 0.5095(4) 0.6338(8)
O1 O 0.1513(3) 0.6991(3) 0.7009(5)
N5 N 0.5782(4) 0.0468(4) 0.4840(6)
N6 N 0.5565(4) 0.1523(4) 0.4543(6)
N7 N 0.4784(4) 0.1573(4) 0.3429(6)
N8 N 0.4490(4) 0.0547(4) 0.2987(6)
Cu3 Cu 0.32355(5) 0.01540(5) 0.15243(8)
N9 N 0.7886(4) 0.0953(4) 0.6136(5)
Cu1 Cu 0.67645(5) 0.98460(5) 0.65243(8)
C1_2 C 0.8545(5) 0.8344(5) 0.7333(7)
C2_2 C 0.8832(5) 0.8236(5) 0.5503(7)
H1_2 H 0.9459 0.7762 0.5398
H2_2 H 0.9035 0.8944 0.5067
C3_2 C 0.7908(5) 0.7780(5) 0.4434(7)
H3_2 H 0.8146 0.7706 0.3270
H4_2 H 0.7707 0.7066 0.4848
C4_2 C 0.6162(5) 0.8159(5) 0.3346(8)
H5_2 H 0.6097 0.7373 0.3353
H6_2 H 0.6359 0.8384 0.2211
C5_2 C 0.5086(5) 0.8666(5) 0.3833(9)
H7_2 H 0.4533 0.8417 0.3050
H8_2 H 0.4886 0.8412 0.4952
C6_2 C 0.5095(4) 0.9886(5) 0.3838(8)
N1 N 0.7746(4) 0.8989(4) 0.7894(6)
N2 N 0.7741(4) 0.8913(4) 0.9613(6)
N4 N 0.9047(4) 0.7886(4) 0.8636(5)
O1_2 O 0.6991(3) 0.8487(3) 0.4509(5)
N10 N 0.5510(4) 0.9453(4) 0.7987(6)
N1_2 N 0.1011(4) 0.7746(4) 0.0394(6)
N2_2 N 0.1087(4) 0.7741(4) 0.2113(6)
N3 N 0.1729(4) 0.8530(4) 0.2561(6)
N4_2 N 0.2114(4) 0.9047(4) 0.1136(5)
N10_2 N 0.0547(4) 0.5510(4) 0.0487(6)
N5_2 N 0.9532(4) 0.5782(4) 0.7340(6)
N6_2 N 0.8477(4) 0.5565(4) 0.7043(6)
N7_2 N 0.8427(4) 0.4784(4) 0.5929(6)
N8_2 N 0.9453(4) 0.4490(4) 0.5487(6)
Cu3_2 Cu 0.98460(5) 0.32355(5) 0.40243(8)
C1_3 C 0.1455(5) 0.1656(5) 0.2333(7)
C2_3 C 0.1168(5) 0.1764(5) 0.0503(7)
H1_3 H 0.0541 0.2238 0.0398
H2_3 H 0.0965 0.1056 0.0067
N1_3 N 0.2254(4) 0.1011(4) 0.2894(6)
N2_3 N 0.2259(4) 0.1087(4) 0.4613(6)
N3_2 N 0.1470(4) 0.1729(4) 0.5061(6)
N4_3 N 0.0953(4) 0.2114(4) 0.3636(5)
N5_3 N 0.4218(4) 0.9532(4) 0.9840(6)
N6_3 N 0.4435(4) 0.8477(4) 0.9543(6)
N7_3 N 0.5216(4) 0.8427(4) 0.8429(6)
N5_4 N 0.0468(4) 0.4218(4) 0.2340(6)
N6_4 N 0.1523(4) 0.4435(4) 0.2043(6)
N7_4 N 0.1573(4) 0.5216(4) 0.0929(6)
C1_4 C 0.8344(5) 0.1455(5) 0.4833(7)
C2_4 C 0.8236(5) 0.1168(5) 0.3003(7)
H1_4 H 0.7762 0.0541 0.2898
H2_4 H 0.8944 0.0965 0.2567
C3_3 C 0.7780(5) 0.2092(5) 0.1934(7)
H3_3 H 0.7706 0.1854 0.0770
H4_3 H 0.7066 0.2293 0.2348
C4_3 C 0.8159(5) 0.3838(5) 0.0846(8)
H5_3 H 0.7373 0.3903 0.0853
C5_3 C 0.8666(5) 0.4914(5) 0.1333(9)
H7_3 H 0.8417 0.5467 0.0550
H8_3 H 0.8412 0.5114 0.2452
C6_3 C 0.9886(5) 0.4905(4) 0.1338(8)
N1_4 N 0.8989(4) 0.2254(4) 0.5394(6)
N2_4 N 0.8913(4) 0.2259(4) 0.7113(6)
N3_3 N 0.8271(4) 0.1470(4) 0.7561(6)
O1_3 O 0.8487(3) 0.3009(3) 0.2009(5)
N3_4 N 0.8530(4) 0.8271(4) 0.0061(6)
C3_4 C 0.2092(5) 0.2220(5) 0.9434(7)
H3_4 H 0.1854 0.2294 0.8270
H4_4 H 0.2293 0.2934 0.9848
C4_4 C 0.3838(5) 0.1841(5) 0.8346(8)
H5_4 H 0.3903 0.2627 0.8353
H6_3 H 0.3641 0.1616 0.7211
C5_4 C 0.4914(5) 0.1334(5) 0.8833(9)
H7_4 H 0.5467 0.1583 0.8050
H8_4 H 0.5114 0.1588 0.9952
C6_4 C 0.4905(4) 0.0114(5) 0.8838(8)
O1_4 O 0.3009(3) 0.1513(3) 0.9509(5)
H6_4 H 0.8384 0.3641 0.9711
loop_
_geom_bond_atom_site_label_1
_geom_bond_atom_site_label_2
_geom_bond_site_symmetry_1
_geom_bond_site_symmetry_2
C1 C2 1_555 1_555
C2 H1 1_555 1_555
H2 C2 1_555 1_555
C3 C2 1_555 1_555
H3 C3 1_555 1_555
H4 C3 1_555 1_555
C4 H5 1_555 1_555
H6 C4 1_555 1_555
C5 C4 1_555 1_555
H7 C5 1_555 1_555
H8 C5 1_555 1_555
C6 C5 1_555 1_555
O1 Cu2 1_555 1_555
C3 O1 1_555 1_555
C4 O1 1_555 1_555
N6 N5 1_555 1_555
N7 N6 1_555 1_555
Cu3 N8 1_555 1_555
N7 N8 1_555 1_555
Cu1 N1 1_555 1_555
C1_2 C2_2 1_555 1_555
C2_2 H1_2 1_555 1_555
H2_2 C2_2 1_555 1_555
C3_2 C2_2 1_555 1_555
H3_2 C3_2 1_555 1_555
H4_2 C3_2 1_555 1_555
C4_2 H5_2 1_555 1_555
H6_2 C4_2 1_555 1_555
C5_2 C4_2 1_555 1_555
H7_2 C5_2 1_555 1_555
H8_2 C5_2 1_555 1_555
C6_2 C5_2 1_555 1_555
N1 C1_2 1_555 1_555
N2 N1 1_555 1_555
N4 C1_2 1_555 1_555
O1_2 Cu1 1_555 1_555
N10 Cu1 1_555 1_555
C3_2 O1_2 1_555 1_555
C4_2 O1_2 1_555 1_555
N2_2 N1_2 1_555 1_555
N3 N2_2 1_555 1_555
N3 N4_2 1_555 1_555
N6_2 N5_2 1_555 1_555
N7_2 N6_2 1_555 1_555
Cu3_2 N8_2 1_555 1_555
N7_2 N8_2 1_555 1_555
Cu3 N1_3 1_555 1_555
C1_3 C2_3 1_555 1_555
C2_3 H1_3 1_555 1_555
H2_3 C2_3 1_555 1_555
N1_3 C1_3 1_555 1_555
N2_3 N1_3 1_555 1_555
N3_2 N2_3 1_555 1_555
N4_3 C1_3 1_555 1_555
N3_2 N4_3 1_555 1_555
N6_3 N5_3 1_555 1_555
N7_3 N6_3 1_555 1_555
N7_3 N10 1_555 1_555
N6_4 N5_4 1_555 1_555
N7_4 N6_4 1_555 1_555
N7_4 N10_2 1_555 1_555
Cu3_2 N1_4 1_555 1_555
C1_4 C2_4 1_555 1_555
C2_4 H1_4 1_555 1_555
H2_4 C2_4 1_555 1_555
C3_3 C2_4 1_555 1_555
H3_3 C3_3 1_555 1_555
H4_3 C3_3 1_555 1_555
C4_3 H5_3 1_555 1_555
C5_3 C4_3 1_555 1_555
H7_3 C5_3 1_555 1_555
H8_3 C5_3 1_555 1_555
C6_3 C5_3 1_555 1_555
N1_4 C1_4 1_555 1_555
N2_4 N1_4 1_555 1_555
N3_3 N2_4 1_555 1_555
N9 C1_4 1_555 1_555
O1_3 Cu3_2 1_555 1_555
C3_3 O1_3 1_555 1_555
C4_3 O1_3 1_555 1_555
N3_3 N9 1_555 1_555
H3_4 C3_4 1_555 1_555
H4_4 C3_4 1_555 1_555
C4_4 H5_4 1_555 1_555
H6_3 C4_4 1_555 1_555
C5_4 C4_4 1_555 1_555
H7_4 C5_4 1_555 1_555
H8_4 C5_4 1_555 1_555
C6_4 C5_4 1_555 1_555
C3_4 O1_4 1_555 1_555
C4_4 O1_4 1_555 1_555

#END
