
###############################################################################
#
# This file contains modified crystal structure data generated from the
# MOF subset of the Cambridge Structural Database (CSD) v543 
# hosted by the Cambridge Crystallographic Data Centre (CCDC).
#
# This work is licensed under the Creative Commons
# Attribution-NonCommercial-ShareAlike 4.0 International License.
# To view a copy of this license, visit
# http://creativecommons.org/licenses/by-nc-sa/4.0/
# or send a letter to
# Creative Commons, PO Box 1866, Mountain View, CA 94042, USA.
#
# CIF created using the CSD Python API on 29 September 2022
# The structure has been converted into the P1 space group
# The structure has a 3D framework
# The original CSD entry CEHKOT is in the orthorhombic crystal system
# The framework has been calculated to contain at least 10.0% void space
# The void calculation uses a probe of radius 1.32A, grid spacing 0.4
#
###############################################################################

data_CEHKOT
_chemical_formula_moiety         '(C64 H64 N16 O14 S4 Zn4)n'
_symmetry_cell_setting           triclinic
_symmetry_space_group_name_H-M   'P 1'
_symmetry_Int_Tables_number      1
_space_group_name_Hall           'P 1'
loop_
_symmetry_equiv_pos_site_id
_symmetry_equiv_pos_as_xyz
1 x,y,z
_cell_length_a                   16.251(5)
_cell_length_b                   16.002(5)
_cell_length_c                   9.161(5)
_cell_angle_alpha                90
_cell_angle_beta                 90
_cell_angle_gamma                90
_cell_volume                     2382.3
loop_
_atom_site_label
_atom_site_type_symbol
_atom_site_fract_x
_atom_site_fract_y
_atom_site_fract_z
H9 H 0.5643 0.5548 0.0342
C12 C 0.4199(3) 0.5968(3) 0.3250(5)
H10 H 0.3660 0.6026 0.2926
C13 C 0.5352(3) 0.6176(3) 0.4336(6)
H11 H 0.5762 0.6407 0.4918
C14 C 0.5437(4) 0.5482(4) 0.3501(6)
H12 H 0.5907 0.5156 0.3405
C15 C 0.4493(5) 0.4665(4) 0.1826(6)
H13 H 0.4849 0.4191 0.2020
H14 H 0.3931 0.4491 0.2014
C16 C 0.4572(5) 0.4905(5) 0.0250(7)
H15 H 0.4231 0.5392 0.0075
N3 N 0.4571(2) 0.6483(2) 0.4189(4)
N4 N 0.4710(3) 0.5356(3) 0.2839(5)
Zn3 Zn 0.41314(5) 0.7500 0.51431(8)
S1 S 0.12379(10) 0.7500 0.63362(17)
C2 C 0.0242(4) 0.7500 0.5700(7)
C3 C 0.0209(5) 0.7500 0.4223(8)
C4 C 0.1018(4) 0.7500 0.3574(7)
H2 H 0.1115 0.7500 0.2573
C5 C 0.1620(4) 0.7500 0.4595(7)
C6 C 0.2505(4) 0.7500 0.4356(7)
O3 O 0.2809(4) 0.7500 0.3127(6)
O4 O 0.2954(3) 0.7500 0.5515(5)
Zn1 Zn 0.91314(5) 0.7500 0.98569(8)
C1 C 0.9562(4) 0.7500 0.6773(7)
H1 H 0.9722 0.7500 0.3690
O1 O 0.9791(3) 0.7500 0.8081(5)
O2 O 0.8856(4) 0.7500 0.6370(7)
O5 O 0.7954(3) 0.7500 0.9485(5)
S1_2 S 0.62379(10) 0.7500 0.86638(17)
C1_2 C 0.4562(4) 0.7500 0.8227(7)
C2_2 C 0.5242(4) 0.7500 0.9300(7)
C7 C 0.4199(3) 0.9032(3) 0.3250(5)
H3 H 0.3660 0.8974 0.2926
C8 C 0.5352(3) 0.8824(3) 0.4336(6)
H4 H 0.5762 0.8593 0.4918
C9 C 0.5437(4) 0.9518(4) 0.3501(6)
H5 H 0.5907 0.9844 0.3405
H8 H 0.4231 0.9608 0.0075
N1 N 0.4571(2) 0.8517(2) 0.4189(4)
N2 N 0.4710(3) 0.9644(3) 0.2839(5)
O1_2 O 0.4791(3) 0.7500 0.6919(5)
O2_2 O 0.3856(4) 0.7500 0.8630(7)
H16 H 0.5643 0.9452 0.0342
Zn1_2 Zn 0.58686(5) 0.2500 0.48569(8)
S1_3 S 0.37621(10) 0.2500 0.13362(17)
C1_3 C 0.5438(4) 0.2500 0.1773(7)
C2_3 C 0.4758(4) 0.2500 0.0700(7)
C7_2 C 0.5801(3) 0.4032(3) 0.6750(5)
H3_2 H 0.6340 0.3974 0.7074
C8_2 C 0.4648(3) 0.3824(3) 0.5664(6)
H4_2 H 0.4238 0.3593 0.5082
C9_2 C 0.4563(4) 0.4518(4) 0.6499(6)
H5_2 H 0.4093 0.4844 0.6595
C10 C 0.5507(5) 0.5335(4) 0.8174(6)
H6 H 0.5151 0.5809 0.7980
H7 H 0.6069 0.5509 0.7986
C11 C 0.5428(5) 0.5095(5) 0.9750(7)
H8_2 H 0.5769 0.4608 0.9925
N1_2 N 0.5429(2) 0.3517(2) 0.5811(4)
N2_2 N 0.5290(3) 0.4644(3) 0.7161(5)
O1_3 O 0.5209(3) 0.2500 0.3081(5)
O2_3 O 0.6144(4) 0.2500 0.1370(7)
O4_2 O 0.2046(3) 0.2500 0.0515(5)
H16_2 H 0.4357 0.4452 0.9658
Zn2 Zn 0.08686(5) 0.2500 0.01431(8)
N5 N 0.5429(2) 0.1483(2) 0.5811(4)
O5_2 O 0.7046(3) 0.2500 0.4485(5)
C1_4 C 0.0438(4) 0.2500 0.3227(7)
H1_2 H 0.0278 0.2500 0.6310
O1_4 O 0.0209(3) 0.2500 0.1919(5)
O2_4 O 0.1144(4) 0.2500 0.3630(7)
S1_4 S 0.87621(10) 0.2500 0.36638(17)
C2_4 C 0.9758(4) 0.2500 0.4300(7)
C3_2 C 0.9791(5) 0.2500 0.5777(8)
C4_2 C 0.8982(4) 0.2500 0.6426(7)
H2_2 H 0.8885 0.2500 0.7427
C5_2 C 0.8380(4) 0.2500 0.5405(7)
C6_2 C 0.7495(4) 0.2500 0.5644(7)
O3_2 O 0.7191(4) 0.2500 0.6873(6)
H9_2 H 0.4357 0.0548 0.9658
C12_2 C 0.5801(3) 0.0968(3) 0.6750(5)
H10_2 H 0.6340 0.1026 0.7074
C13_2 C 0.4648(3) 0.1176(3) 0.5664(6)
H11_2 H 0.4238 0.1407 0.5082
C14_2 C 0.4563(4) 0.0482(4) 0.6499(6)
H12_2 H 0.4093 0.0156 0.6595
H15_2 H 0.5769 0.0392 0.9925
N4_2 N 0.5290(3) 0.0356(3) 0.7161(5)
C3_3 C 0.4791(5) 0.2500 0.9223(8)
H1_3 H 0.5278 0.2500 0.8690
C4_3 C 0.3982(4) 0.2500 0.8574(7)
H2_3 H 0.3885 0.2500 0.7573
C5_3 C 0.3380(4) 0.2500 0.9595(7)
C6_3 C 0.2495(4) 0.2500 0.9356(7)
O3_3 O 0.2191(4) 0.2500 0.8127(6)
C8_3 C 0.0352(3) 0.6176(3) 0.0664(6)
H4_3 H 0.0762 0.6407 0.0082
C9_3 C 0.0437(4) 0.5482(4) 0.1499(6)
H5_3 H 0.0907 0.5156 0.1595
C12_3 C 0.0801(3) 0.4032(3) 0.8250(5)
H10_3 H 0.1340 0.3974 0.7926
C15_2 C 0.0507(5) 0.5335(4) 0.6826(6)
H13_2 H 0.0151 0.5809 0.7020
H14_2 H 0.1069 0.5509 0.7014
C16_2 C 0.0428(5) 0.5095(5) 0.5250(7)
H15_3 H 0.0769 0.4608 0.5075
H16_3 H 0.0643 0.5548 0.4658
N3_2 N 0.0429(2) 0.3517(2) 0.9189(4)
N4_3 N 0.0290(3) 0.4644(3) 0.7839(5)
C7_3 C 0.0801(3) 0.0968(3) 0.8250(5)
H3_3 H 0.1340 0.1026 0.7926
H8_3 H 0.0769 0.0392 0.5075
N1_3 N 0.0429(2) 0.1483(2) 0.9189(4)
N2_3 N 0.0290(3) 0.0356(3) 0.7839(5)
C7_4 C 0.9199(3) 0.5968(3) 0.1750(5)
H3_4 H 0.8660 0.6026 0.2074
C10_2 C 0.9493(5) 0.4665(4) 0.3174(6)
H6_2 H 0.9849 0.4191 0.2980
H7_2 H 0.8931 0.4491 0.2986
C11_2 C 0.9572(5) 0.4905(5) 0.4750(7)
H8_4 H 0.9231 0.5392 0.4925
H9_3 H 0.9357 0.4452 0.5342
N1_4 N 0.9571(2) 0.6483(2) 0.0811(4)
N2_4 N 0.9710(3) 0.5356(3) 0.2161(5)
C13_3 C 0.9648(3) 0.3824(3) 0.9336(6)
H11_3 H 0.9238 0.3593 0.9918
C14_3 C 0.9563(4) 0.4518(4) 0.8501(6)
H12_3 H 0.9093 0.4844 0.8405
N5_2 N 0.9571(2) 0.8517(2) 0.0811(4)
C12_4 C 0.9199(3) 0.9032(3) 0.1750(5)
H10_4 H 0.8660 0.8974 0.2074
H15_4 H 0.9231 0.9608 0.4925
N4_4 N 0.9710(3) 0.9644(3) 0.2161(5)
C10_3 C 0.0507(5) 0.9665(4) 0.6826(6)
H6_3 H 0.0151 0.9191 0.7020
H7_3 H 0.1069 0.9491 0.7014
C11_3 C 0.0428(5) 0.9905(5) 0.5250(7)
H9_4 H 0.0643 0.9452 0.4658
C13_4 C 0.0352(3) 0.8824(3) 0.0664(6)
H11_4 H 0.0762 0.8593 0.0082
C14_4 C 0.0437(4) 0.9518(4) 0.1499(6)
H12_4 H 0.0907 0.9844 0.1595
C8_4 C 0.9648(3) 0.1176(3) 0.9336(6)
H4_4 H 0.9238 0.1407 0.9918
C9_4 C 0.9563(4) 0.0482(4) 0.8501(6)
H5_4 H 0.9093 0.0156 0.8405
C15_3 C 0.9493(5) 0.0335(4) 0.3174(6)
H13_3 H 0.9849 0.0809 0.2980
H14_3 H 0.8931 0.0509 0.2986
C16_3 C 0.9572(5) 0.0095(5) 0.4750(7)
H16_4 H 0.9357 0.0548 0.5342
C10_4 C 0.4493(5) 0.0335(4) 0.1826(6)
H6_4 H 0.4849 0.0809 0.2020
H7_4 H 0.3931 0.0509 0.2014
C11_4 C 0.4572(5) 0.0095(5) 0.0250(7)
C3_4 C 0.5209(5) 0.7500 0.0777(8)
H1_4 H 0.4722 0.7500 0.1310
C4_4 C 0.6018(4) 0.7500 0.1426(7)
H2_4 H 0.6115 0.7500 0.2427
C5_4 C 0.6620(4) 0.7500 0.0405(7)
C6_4 C 0.7505(4) 0.7500 0.0644(7)
O3_4 O 0.7809(4) 0.7500 0.1873(6)
C15_4 C 0.5507(5) 0.9665(4) 0.8174(6)
H13_4 H 0.5151 0.9191 0.7980
H14_4 H 0.6069 0.9491 0.7986
C16_4 C 0.5428(5) 0.9905(5) 0.9750(7)
loop_
_geom_bond_atom_site_label_1
_geom_bond_atom_site_label_2
_geom_bond_site_symmetry_1
_geom_bond_site_symmetry_2
C12 H10 1_555 1_555
C13 H11 1_555 1_555
C14 C13 1_555 1_555
H12 C14 1_555 1_555
C15 H13 1_555 1_555
H14 C15 1_555 1_555
H15 C16 1_555 1_555
N3 C12 1_555 1_555
N4 C12 1_555 1_555
Zn3 N3 1_555 1_555
C13 N3 1_555 1_555
C14 N4 1_555 1_555
C15 C16 1_555 1_555
C15 N4 1_555 1_555
S1 C2 1_555 1_555
C2 C3 1_555 1_555
C4 C3 1_555 1_555
H2 C4 1_555 1_555
C5 S1 1_555 1_555
C6 C5 1_555 1_555
O3 C6 1_555 1_555
O4 C6 1_555 1_555
Zn3 O4 1_555 1_555
C4 C5 1_555 1_555
O1 Zn1 1_555 1_555
O2 C1 1_555 1_555
O5 Zn1 1_555 1_555
C1 O1 1_555 1_555
Zn3 N1 1_555 1_555
S1_2 C2_2 1_555 1_555
C1_2 C2_2 1_555 1_555
C7 H3 1_555 1_555
C8 H4 1_555 1_555
C9 C8 1_555 1_555
H5 C9 1_555 1_555
N1 C7 1_555 1_555
N2 C7 1_555 1_555
O1_2 Zn3 1_555 1_555
O2_2 C1_2 1_555 1_555
C1_2 O1_2 1_555 1_555
C8 N1 1_555 1_555
C9 N2 1_555 1_555
Zn1_2 N1_2 1_555 1_555
S1_3 C2_3 1_555 1_555
C1_3 C2_3 1_555 1_555
C7_2 H3_2 1_555 1_555
C8_2 H4_2 1_555 1_555
C9_2 C8_2 1_555 1_555
H5_2 C9_2 1_555 1_555
C10 H6 1_555 1_555
H7 C10 1_555 1_555
C11 C10 1_555 1_555
H8_2 C11 1_555 1_555
N1_2 C7_2 1_555 1_555
N2_2 C7_2 1_555 1_555
O1_3 Zn1_2 1_555 1_555
O2_3 C1_3 1_555 1_555
Zn2 O4_2 1_555 1_555
N5 Zn1_2 1_555 1_555
O5_2 Zn1_2 1_555 1_555
C1_3 O1_3 1_555 1_555
C8_2 N1_2 1_555 1_555
C9_2 N2_2 1_555 1_555
C10 N2_2 1_555 1_555
O1_4 Zn2 1_555 1_555
O2_4 C1_4 1_555 1_555
C1_4 O1_4 1_555 1_555
S1_4 C2_4 1_555 1_555
C2_4 C3_2 1_555 1_555
C4_2 C3_2 1_555 1_555
H2_2 C4_2 1_555 1_555
C5_2 S1_4 1_555 1_555
C6_2 C5_2 1_555 1_555
O3_2 C6_2 1_555 1_555
O5_2 C6_2 1_555 1_555
C4_2 C5_2 1_555 1_555
C12_2 H10_2 1_555 1_555
C13_2 H11_2 1_555 1_555
C14_2 C13_2 1_555 1_555
H12_2 C14_2 1_555 1_555
N5 C12_2 1_555 1_555
N4_2 C12_2 1_555 1_555
C13_2 N5 1_555 1_555
C14_2 N4_2 1_555 1_555
C3_3 H1_3 1_555 1_555
C4_3 C3_3 1_555 1_555
H2_3 C4_3 1_555 1_555
C6_3 C5_3 1_555 1_555
O3_3 C6_3 1_555 1_555
C4_3 C5_3 1_555 1_555
C8_3 H4_3 1_555 1_555
C9_3 C8_3 1_555 1_555
H5_3 C9_3 1_555 1_555
C12_3 H10_3 1_555 1_555
C15_2 H13_2 1_555 1_555
H14_2 C15_2 1_555 1_555
H15_3 C16_2 1_555 1_555
H16_3 C16_2 1_555 1_555
N3_2 C12_3 1_555 1_555
N4_3 C12_3 1_555 1_555
C15_2 C16_2 1_555 1_555
C15_2 N4_3 1_555 1_555
C7_3 H3_3 1_555 1_555
N1_3 C7_3 1_555 1_555
N2_3 C7_3 1_555 1_555
C7_4 H3_4 1_555 1_555
C10_2 H6_2 1_555 1_555
H7_2 C10_2 1_555 1_555
C11_2 C10_2 1_555 1_555
H8_4 C11_2 1_555 1_555
H9_3 C11_2 1_555 1_555
N1_4 C7_4 1_555 1_555
N2_4 C7_4 1_555 1_555
C13_3 H11_3 1_555 1_555
C14_3 C13_3 1_555 1_555
H12_3 C14_3 1_555 1_555
C10_2 N2_4 1_555 1_555
C12_4 H10_4 1_555 1_555
N5_2 C12_4 1_555 1_555
N4_4 C12_4 1_555 1_555
C10_3 H6_3 1_555 1_555
H7_3 C10_3 1_555 1_555
C11_3 C10_3 1_555 1_555
H9_4 C11_3 1_555 1_555
C13_4 H11_4 1_555 1_555
C14_4 C13_4 1_555 1_555
H12_4 C14_4 1_555 1_555
C8_4 H4_4 1_555 1_555
C9_4 C8_4 1_555 1_555
H5_4 C9_4 1_555 1_555
C15_3 H13_3 1_555 1_555
H14_3 C15_3 1_555 1_555
H16_4 C16_3 1_555 1_555
C15_3 C16_3 1_555 1_555
C10_4 H6_4 1_555 1_555
H7_4 C10_4 1_555 1_555
C11_4 C10_4 1_555 1_555
C3_4 H1_4 1_555 1_555
C4_4 C3_4 1_555 1_555
H2_4 C4_4 1_555 1_555
C6_4 C5_4 1_555 1_555
O3_4 C6_4 1_555 1_555
C4_4 C5_4 1_555 1_555
C15_4 H13_4 1_555 1_555
H14_4 C15_4 1_555 1_555
C15_4 C16_4 1_555 1_555

#END
