
###############################################################################
#
# This file contains modified crystal structure data generated from the
# MOF subset of the Cambridge Structural Database (CSD) v543 
# hosted by the Cambridge Crystallographic Data Centre (CCDC).
#
# This work is licensed under the Creative Commons
# Attribution-NonCommercial-ShareAlike 4.0 International License.
# To view a copy of this license, visit
# http://creativecommons.org/licenses/by-nc-sa/4.0/
# or send a letter to
# Creative Commons, PO Box 1866, Mountain View, CA 94042, USA.
#
# CIF created using the CSD Python API on 29 September 2022
# The structure has been converted into the P1 space group
# The structure has a 3D framework
# The original CSD entry CEJKAH is in the monoclinic crystal system
# The framework has been calculated to contain at least 10.0% void space
# The void calculation uses a probe of radius 1.32A, grid spacing 0.4
#
###############################################################################

data_CEJKAH
_chemical_formula_moiety         '(C24 H24 Mg22 O47)n'
_symmetry_cell_setting           triclinic
_symmetry_space_group_name_H-M   'P 1'
_symmetry_Int_Tables_number      1
_space_group_name_Hall           'P 1'
loop_
_symmetry_equiv_pos_site_id
_symmetry_equiv_pos_as_xyz
1 x,y,z
_cell_length_a                   11.3532(7)
_cell_length_b                   9.9621(6)
_cell_length_c                   14.7834(9)
_cell_angle_alpha                90
_cell_angle_beta                 91.4936(7)
_cell_angle_gamma                90
_cell_volume                     1671.46
loop_
_atom_site_label
_atom_site_type_symbol
_atom_site_fract_x
_atom_site_fract_y
_atom_site_fract_z
Mg4 Mg -0.000000 0.500000 0.500000
H4 H 0.000426 0.785780 0.526609
O10 O 0.00913(16) 0.38306(19) 0.61338(13)
O29 O 0.09950(14) 0.35343(16) 0.43279(11)
O33 O 0.15105(16) 0.59642(19) 0.54000(13)
O27 O 0.69476(16) 0.04831(17) 0.63492(11)
Mg1 Mg 0.500000 0.500000 0.500000
Mg2 Mg 0.76153(7) 0.87996(7) 0.69459(5)
Mg3 Mg 0.75576(6) 0.57417(7) 0.63571(5)
Mg4_2 Mg 1.000000 0.500000 0.500000
O1 O 0.63012(14) 0.48522(16) 0.71636(11)
O2 O 0.46275(16) 0.4847(2) 0.63410(12)
C1 C 0.5200(2) 0.4712(3) 0.70585(16)
H1 H 0.477150 0.448204 0.757971
O3 O 0.51663(16) 0.70445(18) 0.51208(13)
O4 O 0.65874(14) 0.75090(16) 0.61484(11)
C2 C 0.5747(2) 0.7827(2) 0.55911(17)
H2 H 0.555801 0.875368 0.553855
O5 O 0.80524(16) 0.54831(17) 0.86508(11)
O6 O 0.80648(14) 0.69193(16) 0.74881(11)
C3 C 0.8228(2) 0.6604(2) 0.83178(15)
H3 H 0.850878 0.728865 0.871534
O7 O 0.89403(16) 0.86379(17) 0.60594(12)
O8 O 0.90050(14) 0.64657(16) 0.56721(11)
C4 C 0.9358(2) 0.7674(2) 0.56427(18)
O9 O 0.84807(14) 0.41304(16) 0.69485(11)
C5 C 0.9456(2) 0.3570(3) 0.67752(18)
H5 H 0.971988 0.288378 0.717819
O11 O 0.84895(16) 0.40358(19) 0.46000(13)
O12 O 0.68448(14) 0.47634(17) 0.52420(11)
C6 C 0.7412(2) 0.4082(3) 0.46639(16)
H6 H 0.695779 0.356226 0.424381
Mg5 Mg 0.23847(7) 0.12004(7) 0.30541(5)
Mg6 Mg 0.24424(6) 0.42583(7) 0.36429(5)
O13 O 0.36988(14) 0.51478(16) 0.28364(11)
O14 O 0.53725(16) 0.5153(2) 0.36590(12)
C7 C 0.4800(2) 0.5288(3) 0.29415(16)
H7 H 0.522850 0.551796 0.242029
O15 O 0.48337(16) 0.29555(18) 0.48792(13)
O16 O 0.34126(14) 0.24910(16) 0.38516(11)
C8 C 0.4253(2) 0.2173(2) 0.44089(17)
H8 H 0.444199 0.124632 0.446145
O17 O 0.19476(16) 0.45169(17) 0.13492(11)
O18 O 0.19352(14) 0.30807(16) 0.25119(11)
C9 C 0.1772(2) 0.3396(2) 0.16822(15)
H9 H 0.149122 0.271135 0.128466
O19 O 0.10597(16) 0.13621(17) 0.39406(12)
C10 C 0.0642(2) 0.2326(2) 0.43573(18)
O21 O 0.15193(14) 0.58696(16) 0.30515(11)
C11 C 0.0544(2) 0.6430(3) 0.32248(18)
H11 H 0.028012 0.711622 0.282181
O24 O 0.31552(14) 0.52366(17) 0.47580(11)
C12 C 0.2588(2) 0.5918(3) 0.53361(16)
H12 H 0.304221 0.643774 0.575619
Mg7 Mg 0.73847(7) 0.37996(7) 0.80541(5)
Mg8 Mg 0.26153(7) 0.62004(7) 0.19459(5)
O25 O 0.86988(14) 0.98522(16) 0.78364(11)
O26 O 0.13012(14) 0.01478(16) 0.21636(11)
O30 O 0.65193(14) 0.91304(16) 0.80515(11)
O31 O 0.34807(14) 0.08696(16) 0.19485(11)
O32 O 0.99087(16) 0.61694(19) 0.38662(13)
O28 O 0.30524(16) 0.95169(17) 0.36508(11)
H10 H 0.999574 0.214220 0.473391
Mg1_2 Mg 0.000000 0.000000 0.000000
C7_2 C 0.0200(2) 0.0288(3) 0.20585(16)
O22 O 0.50913(16) 0.11694(19) 0.11338(13)
C11_2 C 0.4456(2) 0.1430(3) 0.17752(18)
H11_2 H 0.471988 0.211622 0.217819
O24_2 O 0.18448(14) 0.02366(17) 0.02420(11)
Mg9 Mg 0.500000 0.000000 0.000000
Mg1_3 Mg 0.000000 0.000000 1.000000
O23 O 0.34895(16) 0.09642(19) 0.96000(13)
C12_2 C 0.2412(2) 0.0918(3) 0.96639(16)
H12_2 H 0.195779 0.143774 0.924381
Mg9_2 Mg 0.500000 0.000000 1.000000
Mg1_4 Mg 0.000000 1.000000 0.000000
Mg6_2 Mg 0.25576(6) 0.92583(7) 0.13571(5)
O15_2 O 0.01663(16) 0.79555(18) 0.01208(13)
O16_2 O 0.15874(14) 0.74910(16) 0.11484(11)
C8_2 C 0.0747(2) 0.7173(2) 0.05911(17)
H8_2 H 0.055801 0.624632 0.053855
O18_2 O 0.30648(14) 0.80807(16) 0.24881(11)
C9_2 C 0.3228(2) 0.8396(2) 0.33178(15)
H9_2 H 0.350878 0.771135 0.371534
O19_2 O 0.39403(16) 0.63621(17) 0.10594(12)
O20 O 0.40050(14) 0.85343(16) 0.06721(11)
C10_2 C 0.4358(2) 0.7326(2) 0.06427(18)
H10_2 H 0.500426 0.714220 0.026609
Mg9_3 Mg 0.500000 1.000000 0.000000
Mg1_5 Mg 0.000000 1.000000 1.000000
O2_2 O 0.03725(16) 0.9847(2) 0.86590(12)
H1_2 H 0.022850 0.948204 0.742029
Mg9_4 Mg 0.500000 1.000000 1.000000
Mg1_6 Mg 1.000000 0.000000 0.000000
O14_2 O 0.96275(16) 0.0153(2) 0.13410(12)
H7_2 H 0.977150 0.051796 0.257971
Mg1_7 Mg 1.000000 0.000000 1.000000
Mg3_2 Mg 0.74424(6) 0.07417(7) 0.86429(5)
O3_2 O 0.98337(16) 0.20445(18) 0.98792(13)
O4_2 O 0.84126(14) 0.25090(16) 0.88516(11)
C2_2 C 0.9253(2) 0.2827(2) 0.94089(17)
H2_2 H 0.944199 0.375368 0.946145
O6_2 O 0.69352(14) 0.19193(16) 0.75119(11)
C3_2 C 0.6772(2) 0.1604(2) 0.66822(15)
H3_2 H 0.649122 0.228865 0.628466
O7_2 O 0.60597(16) 0.36379(17) 0.89406(12)
O8_2 O 0.59950(14) 0.14657(16) 0.93279(11)
C4_2 C 0.5642(2) 0.2674(2) 0.93573(18)
H4_2 H 0.499574 0.285780 0.973391
Mg1_8 Mg 1.000000 1.000000 0.000000
O11_2 O 0.65105(16) 0.90358(19) 0.04000(13)
C6_2 C 0.7588(2) 0.9082(3) 0.03361(16)
H6_2 H 0.804221 0.856226 0.075619
Mg1_9 Mg 1.000000 1.000000 1.000000
C1_2 C 0.9800(2) 0.9712(3) 0.79415(16)
O10_2 O 0.49087(16) 0.88306(19) 0.88662(13)
C5_2 C 0.5544(2) 0.8570(3) 0.82248(18)
H5_2 H 0.528012 0.788378 0.782181
O12_2 O 0.81552(14) 0.97634(17) 0.97580(11)
loop_
_geom_bond_atom_site_label_1
_geom_bond_atom_site_label_2
_geom_bond_site_symmetry_1
_geom_bond_site_symmetry_2
O10 Mg4 1_555 1_555
O29 Mg4 1_555 1_555
O33 Mg4 1_555 1_555
Mg1 O2 1_555 1_555
Mg2 O4 1_555 1_555
Mg3 O1 1_555 1_555
Mg4_2 O8 1_555 1_555
O1 C1 1_555 1_555
O2 C1 1_555 1_555
C1 H1 1_555 1_555
O3 Mg1 1_555 1_555
O4 Mg3 1_555 1_555
C2 O3 1_555 1_555
H2 C2 1_555 1_555
O5 C3 1_555 1_555
O6 Mg2 1_555 1_555
C3 O6 1_555 1_555
H3 C3 1_555 1_555
O7 Mg2 1_555 1_555
O8 Mg3 1_555 1_555
C4 O7 1_555 1_555
O9 Mg3 1_555 1_555
C5 O9 1_555 1_555
H5 C5 1_555 1_555
O11 Mg4_2 1_555 1_555
O12 Mg1 1_555 1_555
C6 O11 1_555 1_555
H6 C6 1_555 1_555
Mg5 O16 1_555 1_555
Mg6 O13 1_555 1_555
O13 C7 1_555 1_555
O14 Mg1 1_555 1_555
C7 O14 1_555 1_555
H7 C7 1_555 1_555
O15 Mg1 1_555 1_555
O16 Mg6 1_555 1_555
C8 O15 1_555 1_555
H8 C8 1_555 1_555
O17 C9 1_555 1_555
O18 Mg5 1_555 1_555
C9 O18 1_555 1_555
H9 C9 1_555 1_555
O19 Mg5 1_555 1_555
O29 Mg6 1_555 1_555
C10 O19 1_555 1_555
O21 Mg6 1_555 1_555
C11 O21 1_555 1_555
H11 C11 1_555 1_555
O33 C12 1_555 1_555
O24 Mg1 1_555 1_555
C12 O24 1_555 1_555
H12 C12 1_555 1_555
Mg7 O1 1_555 1_555
Mg8 O13 1_555 1_555
O25 Mg2 1_555 1_555
O26 Mg5 1_555 1_555
O30 Mg2 1_555 1_555
O31 Mg5 1_555 1_555
O32 Mg4_2 1_555 1_555
Mg3 O6 1_555 1_555
Mg3 O12 1_555 1_555
O4 C2 1_555 1_555
O5 Mg7 1_555 1_555
O8 C4 1_555 1_555
O9 Mg7 1_555 1_555
O12 C6 1_555 1_555
Mg6 O18 1_555 1_555
Mg6 O24 1_555 1_555
O16 C8 1_555 1_555
O17 Mg8 1_555 1_555
O29 C10 1_555 1_555
O21 Mg8 1_555 1_555
O26 C7_2 1_555 1_555
O22 C11_2 1_555 1_555
C11_2 O31 1_555 1_555
H11_2 C11_2 1_555 1_555
O24_2 Mg1_2 1_555 1_555
O22 Mg9 1_555 1_555
O23 C12_2 1_555 1_555
H12_2 C12_2 1_555 1_555
O23 Mg9_2 1_555 1_555
Mg8 O16_2 1_555 1_555
O15_2 Mg1_4 1_555 1_555
O16_2 Mg6_2 1_555 1_555
C8_2 O15_2 1_555 1_555
H8_2 C8_2 1_555 1_555
O28 C9_2 1_555 1_555
O18_2 Mg8 1_555 1_555
C9_2 O18_2 1_555 1_555
H9_2 C9_2 1_555 1_555
O19_2 Mg8 1_555 1_555
O20 Mg6_2 1_555 1_555
C10_2 O19_2 1_555 1_555
H10_2 C10_2 1_555 1_555
Mg9_3 O20 1_555 1_555
Mg6_2 O18_2 1_555 1_555
O16_2 C8_2 1_555 1_555
O20 C10_2 1_555 1_555
Mg1_5 O2_2 1_555 1_555
O14_2 Mg1_6 1_555 1_555
Mg7 O4_2 1_555 1_555
Mg9_2 O8_2 1_555 1_555
O3_2 Mg1_7 1_555 1_555
O4_2 Mg3_2 1_555 1_555
C2_2 O3_2 1_555 1_555
H2_2 C2_2 1_555 1_555
O27 C3_2 1_555 1_555
O6_2 Mg7 1_555 1_555
C3_2 O6_2 1_555 1_555
H3_2 C3_2 1_555 1_555
O7_2 Mg7 1_555 1_555
O8_2 Mg3_2 1_555 1_555
C4_2 O7_2 1_555 1_555
H4_2 C4_2 1_555 1_555
Mg3_2 O6_2 1_555 1_555
O4_2 C2_2 1_555 1_555
O8_2 C4_2 1_555 1_555
O11_2 Mg9_3 1_555 1_555
C6_2 O11_2 1_555 1_555
H6_2 C6_2 1_555 1_555
O25 C1_2 1_555 1_555
O10_2 Mg9_4 1_555 1_555
C5_2 O30 1_555 1_555
H5_2 C5_2 1_555 1_555
O12_2 Mg1_9 1_555 1_555
O10_2 C5_2 1_555 1_555

#END
