
###############################################################################
#
# This file contains modified crystal structure data generated from the
# MOF subset of the Cambridge Structural Database (CSD) v543 
# hosted by the Cambridge Crystallographic Data Centre (CCDC).
#
# This work is licensed under the Creative Commons
# Attribution-NonCommercial-ShareAlike 4.0 International License.
# To view a copy of this license, visit
# http://creativecommons.org/licenses/by-nc-sa/4.0/
# or send a letter to
# Creative Commons, PO Box 1866, Mountain View, CA 94042, USA.
#
# CIF created using the CSD Python API on 29 September 2022
# The structure has been converted into the P1 space group
# The structure has a 3D framework
# The original CSD entry CEKHIL is in the monoclinic crystal system
# The original CSD entry CEKHIL is in a Sohncke space group
# The framework has been calculated to contain at least 10.0% void space
# The void calculation uses a probe of radius 1.32A, grid spacing 0.4
#
###############################################################################

data_CEKHIL
_chemical_formula_moiety         '(C48 H36 Co4 N4 O26)n'
_symmetry_cell_setting           triclinic
_symmetry_space_group_name_H-M   'P 1'
_symmetry_Int_Tables_number      1
_space_group_name_Hall           'P 1'
loop_
_symmetry_equiv_pos_site_id
_symmetry_equiv_pos_as_xyz
1 x,y,z
_cell_length_a                   10.152(3)
_cell_length_b                   17.953(6)
_cell_length_c                   18.062(6)
_cell_angle_alpha                90
_cell_angle_beta                 94.620(10)
_cell_angle_gamma                90
_cell_volume                     3281.26
loop_
_atom_site_label
_atom_site_type_symbol
_atom_site_fract_x
_atom_site_fract_y
_atom_site_fract_z
Co1 Co 0.49070(9) 0.30463(6) 0.37142(5)
Co2 Co 0.72568(9) 0.24931(6) 0.51191(5)
O3 O 0.4987(6) 0.1922(3) 0.3689(3)
O4 O 0.5996(6) 0.1642(3) 0.4786(3)
C10 C 0.4243(2) 0.04707(11) 0.34091(10)
H7 H 0.4105 0.0815 0.3026
C11 C 0.4875(2) 0.06935(12) 0.41088(10)
C12 C 0.5009(2) 0.01960(13) 0.46712(10)
H8 H 0.5416 0.0345 0.5127
C15 C 0.5351(2) 0.14840(12) 0.41937(11)
O11 O 0.8828(3) 0.17220(17) 0.52738(13)
H13 H 0.8468 0.1311 0.5140
H14 H 0.8961 0.1694 0.5744
O12 O 0.8517(4) 0.33348(16) 0.55581(15)
H15 H 0.9299 0.3363 0.5424
H16 H 0.8379 0.3527 0.5975
O13 O 0.6820(3) 0.23084(15) 0.62196(13)
H17 H 0.6538 0.2667 0.6471
H18 H 0.7180 0.1946 0.6461
O14 O 0.4845(6) 0.4139(3) 0.4180(3)
O15 O 0.5638(5) 0.3242(3) 0.4904(3)
O16 O 0.3530(5) 0.3204(4) 0.2803(3)
O17 O 0.2776(5) 0.2953(4) 0.3885(3)
O18 O 0.7994(5) 0.2739(3) 0.4117(3)
O19 O 0.6591(5) 0.3213(3) 0.3230(3)
N1 N 0.3209(10) 0.9559(5) 0.2588(4)
H1 H 0.3795 0.9472 0.2249
O1 O 0.1481(11) 0.8899(6) 0.2977(4)
O5 O 0.5155(6) 0.9139(3) 0.5820(3)
O6 O 0.4362(5) 0.8242(3) 0.5096(3)
C1 C 0.16001(18) 0.90583(12) 0.16946(10)
C2 C 0.02851(19) 0.88435(14) 0.15725(10)
C4 C 0.05077(17) 0.88014(14) 0.02561(10)
C5 C 0.18227(17) 0.90162(12) 0.03782(10)
C6 C 0.23689(17) 0.91447(11) 0.10974(9)
H6 H 0.3249 0.9288 0.1179
C7 C 0.2134(2) 0.91535(12) 0.24763(10)
C9 C 0.3840(2) 0.97431(11) 0.33035(9)
C13 C 0.4543(3) 0.94497(13) 0.45843(10)
C14 C 0.3988(2) 0.92160(12) 0.38641(10)
H9 H 0.3735 0.8724 0.3777
C16 C 0.4689(3) 0.89202(14) 0.51979(10)
Co5 Co 0.50930(9) 0.80463(6) 0.62858(5)
Co7 Co 0.27432(9) 0.74931(6) 0.48809(5)
N2 N 0.0688(8) 0.8569(7) 0.8937(4)
H2 H 0.1354 0.8901 0.8990
O9 O 0.2006(5) 0.7739(3) 0.5883(3)
O10 O 0.3409(5) 0.8213(3) 0.6770(3)
H5 H 0.2337 0.9074 0.9979
C17 C 0.0322(2) 0.83858(16) 0.81824(10)
C21 C 0.1157(2) 0.81227(19) 0.69884(10)
C22 C 0.1393(2) 0.83006(17) 0.77322(10)
H12 H 0.2256 0.8364 0.7937
C24 C 0.2280(3) 0.8013(2) 0.65034(11)
O2 O 0.8771(12) 0.8296(16) 0.9410(5)
O7 O 0.6470(5) 0.8204(4) 0.7197(3)
O8 O 0.7224(5) 0.7953(4) 0.6115(3)
C8 C 0.99101(18) 0.85721(15) 0.95197(10)
C18 C 0.9053(2) 0.83218(17) 0.78785(11)
H10 H 0.8346 0.8399 0.8167
C19 C 0.8832(2) 0.81383(19) 0.71292(11)
C20 C 0.9832(2) 0.80552(19) 0.66836(11)
H11 H 0.9650 0.7954 0.6181
C23 C 0.7406(2) 0.8094(2) 0.67913(12)
O2_2 O 0.1229(12) 0.3296(16) 0.0590(5)
C8_2 C 0.00899(18) 0.35721(15) 0.04803(10)
C18_2 C 0.0947(2) 0.33218(17) 0.21215(11)
H10_2 H 0.1654 0.3399 0.1833
C19_2 C 0.1168(2) 0.31383(19) 0.28708(11)
C20_2 C 0.0168(2) 0.30552(19) 0.33164(11)
H11_2 H 0.0350 0.2954 0.3819
C23_2 C 0.2594(2) 0.3094(2) 0.32087(12)
N2_2 N 0.9312(8) 0.3569(7) 0.1063(4)
H2_2 H 0.8646 0.3901 0.1010
H5_2 H 0.7663 0.4074 0.0021
C17_2 C 0.9678(2) 0.33858(16) 0.18176(10)
C21_2 C 0.8843(2) 0.31227(19) 0.30116(10)
C22_2 C 0.8607(2) 0.33006(17) 0.22678(10)
H12_2 H 0.7744 0.3364 0.2063
C24_2 C 0.7720(3) 0.3013(2) 0.34966(11)
N1_2 N 0.6791(10) 0.4559(5) 0.7412(4)
H1_2 H 0.6205 0.4472 0.7751
O1_2 O 0.8519(11) 0.3899(6) 0.7023(4)
O3_2 O 0.5013(6) 0.6922(3) 0.6311(3)
O4_2 O 0.4004(6) 0.6642(3) 0.5214(3)
C1_2 C 0.83999(18) 0.40583(12) 0.83054(10)
C2_2 C 0.97149(19) 0.38435(14) 0.84275(10)
C4_2 C 0.94923(17) 0.38014(14) 0.97439(10)
C5_2 C 0.81773(17) 0.40162(12) 0.96218(10)
C6_2 C 0.76311(17) 0.41447(11) 0.89026(9)
H6_2 H 0.6751 0.4288 0.8821
C7_2 C 0.7866(2) 0.41535(12) 0.75237(10)
C9_2 C 0.6160(2) 0.47431(11) 0.66965(9)
C10_2 C 0.5757(2) 0.54707(11) 0.65909(10)
H7_2 H 0.5895 0.5815 0.6974
C11_2 C 0.5125(2) 0.56935(12) 0.58912(10)
C12_2 C 0.4991(2) 0.51960(13) 0.53288(10)
H8_2 H 0.4584 0.5345 0.4873
C13_2 C 0.5457(3) 0.44497(13) 0.54157(10)
C14_2 C 0.6012(2) 0.42160(12) 0.61359(10)
H9_2 H 0.6265 0.3724 0.6223
C15_2 C 0.4649(2) 0.64840(12) 0.58063(11)
C16_2 C 0.5311(3) 0.39202(14) 0.48021(10)
O11_2 O 0.1172(3) 0.67220(17) 0.47262(13)
H13_2 H 0.1532 0.6311 0.4860
H14_2 H 0.1039 0.6694 0.4256
O12_2 O 0.1483(4) 0.83348(16) 0.44419(15)
H15_2 H 0.0701 0.8363 0.4576
H16_2 H 0.1621 0.8527 0.4025
O13_2 O 0.3180(3) 0.73084(15) 0.37804(13)
H17_2 H 0.3462 0.7667 0.3529
H18_2 H 0.2820 0.6946 0.3539
H3 H 0.9771 0.8786 0.1972
C3 C 0.97389(18) 0.87150(15) 0.08533(11)
H4 H 0.8859 0.8571 0.0772
H3_2 H 0.0229 0.3786 0.8028
C3_2 C 0.02611(18) 0.37150(15) 0.91467(11)
H4_2 H 0.1141 0.3571 0.9228
loop_
_geom_bond_atom_site_label_1
_geom_bond_atom_site_label_2
_geom_bond_site_symmetry_1
_geom_bond_site_symmetry_2
Co1 O3 1_555 1_555
Co2 O4 1_555 1_555
O3 C15 1_555 1_555
O4 C15 1_555 1_555
H7 C10 1_555 1_555
C11 C10 1_555 1_555
C12 C11 1_555 1_555
H8 C12 1_555 1_555
C15 C11 1_555 1_555
O11 Co2 1_555 1_555
H13 O11 1_555 1_555
H14 O11 1_555 1_555
O12 Co2 1_555 1_555
H15 O12 1_555 1_555
H16 O12 1_555 1_555
O13 Co2 1_555 1_555
H17 O13 1_555 1_555
H18 O13 1_555 1_555
O14 Co1 1_555 1_555
O15 Co1 1_555 1_555
O16 Co1 1_555 1_555
O17 Co1 1_555 1_555
O18 Co2 1_555 1_555
O19 Co1 1_555 1_555
Co2 O15 1_555 1_555
N1 H1 1_555 1_555
O1 C7 1_555 1_555
O5 C16 1_555 1_555
O6 C16 1_555 1_555
C1 C2 1_555 1_555
C5 C4 1_555 1_555
C6 C1 1_555 1_555
H6 C6 1_555 1_555
C7 N1 1_555 1_555
C9 N1 1_555 1_555
C14 C9 1_555 1_555
H9 C14 1_555 1_555
C16 C13 1_555 1_555
Co5 O5 1_555 1_555
Co7 O6 1_555 1_555
O6 Co5 1_555 1_555
C1 C7 1_555 1_555
C5 C6 1_555 1_555
C13 C14 1_555 1_555
N2 H2 1_555 1_555
O9 C24 1_555 1_555
O10 C24 1_555 1_555
C17 N2 1_555 1_555
C22 C17 1_555 1_555
H12 C22 1_555 1_555
C24 C21 1_555 1_555
Co5 O10 1_555 1_555
Co7 O9 1_555 1_555
C21 C22 1_555 1_555
O2 C8 1_555 1_555
O7 C23 1_555 1_555
O8 C23 1_555 1_555
H10 C18 1_555 1_555
C19 C18 1_555 1_555
C20 C19 1_555 1_555
H11 C20 1_555 1_555
C23 C19 1_555 1_555
Co5 O7 1_555 1_555
O8 Co5 1_555 1_555
O2_2 C8_2 1_555 1_555
O16 C23_2 1_555 1_555
O17 C23_2 1_555 1_555
H10_2 C18_2 1_555 1_555
C19_2 C18_2 1_555 1_555
C20_2 C19_2 1_555 1_555
H11_2 C20_2 1_555 1_555
C23_2 C19_2 1_555 1_555
N2_2 H2_2 1_555 1_555
O18 C24_2 1_555 1_555
O19 C24_2 1_555 1_555
C17_2 N2_2 1_555 1_555
C22_2 C17_2 1_555 1_555
H12_2 C22_2 1_555 1_555
C24_2 C21_2 1_555 1_555
C21_2 C22_2 1_555 1_555
Co5 O3_2 1_555 1_555
Co7 O4_2 1_555 1_555
N1_2 H1_2 1_555 1_555
O1_2 C7_2 1_555 1_555
O3_2 C15_2 1_555 1_555
O4_2 C15_2 1_555 1_555
O14 C16_2 1_555 1_555
O15 C16_2 1_555 1_555
C1_2 C2_2 1_555 1_555
C5_2 C4_2 1_555 1_555
C6_2 C1_2 1_555 1_555
H6_2 C6_2 1_555 1_555
C7_2 N1_2 1_555 1_555
C9_2 N1_2 1_555 1_555
C10_2 C9_2 1_555 1_555
H7_2 C10_2 1_555 1_555
C11_2 C10_2 1_555 1_555
C12_2 C11_2 1_555 1_555
H8_2 C12_2 1_555 1_555
C13_2 C12_2 1_555 1_555
C14_2 C9_2 1_555 1_555
H9_2 C14_2 1_555 1_555
C15_2 C11_2 1_555 1_555
C16_2 C13_2 1_555 1_555
O11_2 Co7 1_555 1_555
H13_2 O11_2 1_555 1_555
H14_2 O11_2 1_555 1_555
O12_2 Co7 1_555 1_555
H15_2 O12_2 1_555 1_555
H16_2 O12_2 1_555 1_555
O13_2 Co7 1_555 1_555
H17_2 O13_2 1_555 1_555
H18_2 O13_2 1_555 1_555
C1_2 C7_2 1_555 1_555
C5_2 C6_2 1_555 1_555
C13_2 C14_2 1_555 1_555
H4 C3 1_555 1_555
H4_2 C3_2 1_555 1_555

#END
