
###############################################################################
#
# This file contains modified crystal structure data generated from the
# MOF subset of the Cambridge Structural Database (CSD) v543 
# hosted by the Cambridge Crystallographic Data Centre (CCDC).
#
# This work is licensed under the Creative Commons
# Attribution-NonCommercial-ShareAlike 4.0 International License.
# To view a copy of this license, visit
# http://creativecommons.org/licenses/by-nc-sa/4.0/
# or send a letter to
# Creative Commons, PO Box 1866, Mountain View, CA 94042, USA.
#
# CIF created using the CSD Python API on 29 September 2022
# The structure has been converted into the P1 space group
# The structure has a 3D framework
# The original CSD entry CELKAH is in the tetragonal crystal system
# The original CSD entry CELKAH is in a Sohncke space group
# The framework has been calculated to contain at least 10.0% void space
# The void calculation uses a probe of radius 1.32A, grid spacing 0.4
#
###############################################################################

data_CELKAH
_chemical_formula_moiety         '(C112 H96 Cu8 N16 O48)n'
_symmetry_cell_setting           triclinic
_symmetry_space_group_name_H-M   'P 1'
_symmetry_Int_Tables_number      1
_space_group_name_Hall           'P 1'
loop_
_symmetry_equiv_pos_site_id
_symmetry_equiv_pos_as_xyz
1 x,y,z
_cell_length_a                   8.53850(10)
_cell_length_b                   8.53850(10)
_cell_length_c                   43.5020(13)
_cell_angle_alpha                90
_cell_angle_beta                 90
_cell_angle_gamma                90
_cell_volume                     3171.56
loop_
_atom_site_label
_atom_site_type_symbol
_atom_site_fract_x
_atom_site_fract_y
_atom_site_fract_z
Cu1 Cu 0.66101(8) 0.07177(9) 0.107415(15)
N1 N 0.6394(5) 0.1134(6) 0.15257(10)
N2 N 0.4846(6) 0.1706(6) 0.31233(10)
C2 C 0.5358(7) 0.2152(7) 0.16353(13)
H3 H 0.4791 0.2784 0.1494
C3 C 0.5075(7) 0.2328(8) 0.19424(13)
H4 H 0.4315 0.3067 0.2009
C4 C 0.5870(7) 0.1457(7) 0.21571(12)
C5 C 0.6997(7) 0.0432(7) 0.20424(13)
C6 C 0.7218(7) 0.0311(8) 0.17294(13)
C7 C 0.5505(7) 0.1572(7) 0.24921(12)
C8 C 0.6277(8) 0.0588(7) 0.27011(13)
C9 C 0.4446(8) 0.2637(8) 0.26094(13)
H8 H 0.3919 0.3343 0.2476
C13 C 0.5896(7) 0.0691(7) 0.30121(13)
H11 H 0.6407 0.0006 0.3152
C14 C 0.4155(7) 0.2670(8) 0.29229(13)
H12 H 0.3426 0.3416 0.2999
Cu4 Cu 0.42823(9) 0.16101(8) 0.357415(15)
O7 O 0.8878(4) 0.0811(5) 0.10789(9)
O8 O 0.4346(5) 0.0944(5) 0.10326(9)
N3 N 0.6706(6) 0.0154(6) 0.06233(10)
O1 O 0.6181(5) 0.8168(5) 0.11965(9)
O2 O 0.6122(4) 0.5811(5) 0.14211(9)
O3 O 0.3056(4) 0.8089(5) 0.10992(10)
H1 H 0.2902 0.7709 0.0924
O4 O 0.0654(5) 0.5944(5) 0.14674(9)
O5 O 0.0585(5) 0.8238(6) 0.17157(11)
O6 O 0.3678(5) 0.8370(6) 0.17647(11)
H2 H 0.4100 0.8106 0.1931
C1 C 0.5491(6) 0.7017(6) 0.12974(11)
H5 H 0.7611 0.9820 0.2179
H6 H 0.7994 0.9607 0.1656
H7 H 0.7046 0.9865 0.2632
C10 C 0.3710(6) 0.6942(6) 0.12910(13)
H9 H 0.3412 0.5898 0.1205
C11 C 0.3062(6) 0.7025(8) 0.16169(13)
H10 H 0.3372 0.6064 0.1733
C12 C 0.1289(7) 0.7144(8) 0.16037(13)
Cu2 Cu 0.83899(8) 0.57177(9) 0.142585(15)
Cu3 Cu 0.16101(8) 0.42823(9) 0.642585(15)
O1_2 O 0.3819(5) 0.1832(5) 0.61965(9)
O2_2 O 0.3878(4) 0.4189(5) 0.64211(9)
O3_2 O 0.6944(4) 0.1911(5) 0.60992(10)
H1_2 H 0.7098 0.2291 0.5924
O4_2 O 0.9346(5) 0.4056(5) 0.64674(9)
O5_2 O 0.9415(5) 0.1762(6) 0.67157(11)
O6_2 O 0.6322(5) 0.1630(6) 0.67647(11)
H2_2 H 0.5900 0.1894 0.6931
C1_2 C 0.4509(6) 0.2983(6) 0.62974(11)
H5_2 H 0.2389 0.0180 0.7179
H6_2 H 0.2006 0.0393 0.6656
H7_2 H 0.2954 0.0135 0.7632
C10_2 C 0.6290(6) 0.3058(6) 0.62910(13)
H9_2 H 0.6588 0.4102 0.6205
C11_2 C 0.6938(6) 0.2975(8) 0.66169(13)
H10_2 H 0.6628 0.3936 0.6733
C12_2 C 0.8711(7) 0.2856(8) 0.66037(13)
Cu1_2 Cu 0.33899(8) 0.92823(9) 0.607415(15)
N1_2 N 0.3606(5) 0.8866(6) 0.65257(10)
N2_2 N 0.5154(6) 0.8294(6) 0.81233(10)
C2_2 C 0.4642(7) 0.7848(7) 0.66353(13)
H3_2 H 0.5209 0.7216 0.6494
C3_2 C 0.4925(7) 0.7672(8) 0.69424(13)
H4_2 H 0.5685 0.6933 0.7009
C4_2 C 0.4130(7) 0.8543(7) 0.71571(12)
C5_2 C 0.3003(7) 0.9568(7) 0.70424(13)
C6_2 C 0.2782(7) 0.9689(8) 0.67294(13)
C7_2 C 0.4495(7) 0.8428(7) 0.74921(12)
C8_2 C 0.3723(8) 0.9412(7) 0.77011(13)
C9_2 C 0.5554(8) 0.7363(8) 0.76094(13)
H8_2 H 0.6081 0.6657 0.7476
C13_2 C 0.4104(7) 0.9309(7) 0.80121(13)
H11_2 H 0.3593 0.9994 0.8152
C14_2 C 0.5845(7) 0.7330(8) 0.79229(13)
H12_2 H 0.6574 0.6584 0.7999
Cu4_2 Cu 0.57177(9) 0.83899(8) 0.857415(15)
O7_2 O 0.1122(4) 0.9189(5) 0.60789(9)
O8_2 O 0.5654(5) 0.9056(5) 0.60326(9)
N3_2 N 0.3294(6) 0.9846(6) 0.56233(10)
O1_3 O 0.6832(5) 0.1181(5) 0.36965(9)
O2_3 O 0.9189(5) 0.1122(4) 0.39211(9)
N1_3 N 0.3866(6) 0.1394(5) 0.40257(10)
C1_3 C 0.7983(6) 0.0491(6) 0.37974(11)
C2_3 C 0.2848(7) 0.0358(7) 0.41353(13)
C3_3 C 0.2672(8) 0.0075(7) 0.44424(13)
C4_3 C 0.3543(7) 0.0870(7) 0.46571(12)
C5_3 C 0.4568(7) 0.1997(7) 0.45424(13)
H5_3 H 0.5180 0.2611 0.4679
C6_3 C 0.4689(8) 0.2218(7) 0.42294(13)
H6_3 H 0.5393 0.2994 0.4156
C7_3 C 0.3428(7) 0.0505(7) 0.49921(12)
C8_3 C 0.4412(7) 0.1277(8) 0.52011(13)
H7_3 H 0.5135 0.2046 0.5132
C13_3 C 0.4309(7) 0.0896(7) 0.55121(13)
H11_3 H 0.4994 0.1407 0.5652
Cu2_2 Cu 0.92823(9) 0.33899(8) 0.392585(15)
O7_3 O 0.4189(5) 0.3878(4) 0.35789(9)
O3_3 O 0.6911(5) 0.8056(4) 0.35992(10)
H1_3 H 0.7291 0.7902 0.3424
O4_3 O 0.9056(5) 0.5654(5) 0.39674(9)
O5_3 O 0.6762(6) 0.5585(5) 0.42157(11)
O6_3 O 0.6630(6) 0.8678(5) 0.42647(11)
H2_3 H 0.6894 0.9100 0.4431
H3_3 H 0.2216 0.9791 0.3994
H4_3 H 0.1933 0.9315 0.4509
C9_3 C 0.2363(8) 0.9446(8) 0.51094(13)
H8_3 H 0.1657 0.8919 0.4976
C10_3 C 0.8058(6) 0.8710(6) 0.37910(13)
H9_3 H 0.9102 0.8412 0.3705
C11_3 C 0.7975(8) 0.8062(6) 0.41169(13)
H10_3 H 0.8936 0.8372 0.4233
C12_3 C 0.7856(8) 0.6289(7) 0.41037(13)
C14_3 C 0.2330(8) 0.9155(7) 0.54229(13)
H12_3 H 0.1584 0.8426 0.5499
O8_3 O 0.4056(5) 0.9346(5) 0.35326(9)
C9_4 C 0.7637(8) 0.0554(8) 0.01094(13)
C14_4 C 0.7670(8) 0.0845(7) 0.04229(13)
H12_4 H 0.8416 0.1574 0.0499
O3_4 O 0.3089(5) 0.1944(4) 0.85992(10)
H1_4 H 0.2709 0.2098 0.8424
O4_4 O 0.0944(5) 0.4346(5) 0.89674(9)
O5_4 O 0.3238(6) 0.4415(5) 0.92157(11)
O6_4 O 0.3370(6) 0.1322(5) 0.92647(11)
H2_4 H 0.3106 0.0900 0.9431
H3_4 H 0.7784 0.0209 0.8994
H4_4 H 0.8067 0.0685 0.9509
H8_4 H 0.8343 0.1081 0.9976
C10_4 C 0.1942(6) 0.1290(6) 0.87910(13)
H9_4 H 0.0898 0.1588 0.8705
C11_4 C 0.2025(8) 0.1938(6) 0.91169(13)
H10_4 H 0.1064 0.1628 0.9233
C12_4 C 0.2144(8) 0.3711(7) 0.91037(13)
Cu3_2 Cu 0.07177(9) 0.66101(8) 0.892585(15)
O8_4 O 0.5944(5) 0.0654(5) 0.85326(9)
O1_4 O 0.3168(5) 0.8819(5) 0.86965(9)
O2_4 O 0.0811(5) 0.8878(4) 0.89211(9)
N1_4 N 0.6134(6) 0.8606(5) 0.90257(10)
C1_4 C 0.2017(6) 0.9509(6) 0.87974(11)
C2_4 C 0.7152(7) 0.9642(7) 0.91353(13)
C3_4 C 0.7328(8) 0.9925(7) 0.94424(13)
C4_4 C 0.6457(7) 0.9130(7) 0.96571(12)
C5_4 C 0.5432(7) 0.8003(7) 0.95424(13)
H5_4 H 0.4820 0.7389 0.9679
C6_4 C 0.5311(8) 0.7782(7) 0.92294(13)
H6_4 H 0.4607 0.7006 0.9156
C7_4 C 0.6572(7) 0.9495(7) 0.99921(12)
O7_4 O 0.5811(5) 0.6122(4) 0.85789(9)
O3_5 O 0.1944(4) 0.3089(5) 0.14008(10)
H1_5 H 0.2098 0.2709 0.1576
O5_5 O 0.4415(5) 0.3238(6) 0.07843(11)
O6_5 O 0.1322(5) 0.3370(6) 0.07353(11)
H2_5 H 0.0900 0.3106 0.0569
H3_5 H 0.0209 0.7784 0.1006
H4_5 H 0.0685 0.8067 0.0491
H8_5 H 0.1081 0.8343 0.0024
C10_5 C 0.1290(6) 0.1942(6) 0.12090(13)
H9_5 H 0.1588 0.0898 0.1295
C11_5 C 0.1938(6) 0.2025(8) 0.08831(13)
H10_5 H 0.1628 0.1064 0.0767
C12_5 C 0.3711(7) 0.2144(8) 0.08963(13)
N2_3 N 0.0154(6) 0.6706(6) 0.93767(10)
C9_5 C 0.0554(8) 0.7637(8) 0.98906(13)
C14_5 C 0.0845(7) 0.7670(8) 0.95771(13)
H12_5 H 0.1574 0.8416 0.9501
O1_5 O 0.8819(5) 0.3168(5) 0.13035(9)
N1_5 N 0.8606(5) 0.6134(6) 0.09743(10)
C1_5 C 0.9509(6) 0.2017(6) 0.12026(11)
C2_5 C 0.9642(7) 0.7152(7) 0.08647(13)
C3_5 C 0.9925(7) 0.7328(8) 0.05576(13)
C4_5 C 0.9130(7) 0.6457(7) 0.03429(12)
C5_5 C 0.8003(7) 0.5432(7) 0.04576(13)
H5_5 H 0.7389 0.4820 0.0321
C6_5 C 0.7782(7) 0.5311(8) 0.07706(13)
H6_5 H 0.7006 0.4607 0.0844
C7_5 C 0.9495(7) 0.6572(7) 0.00079(12)
N3_3 N 0.8294(6) 0.5154(6) 0.18767(10)
O1_6 O 0.1181(5) 0.6832(5) 0.63035(9)
N1_6 N 0.1394(5) 0.3866(6) 0.59743(10)
C1_6 C 0.0491(6) 0.7983(6) 0.62026(11)
C2_6 C 0.0358(7) 0.2848(7) 0.58647(13)
C3_6 C 0.0075(7) 0.2672(8) 0.55576(13)
C4_6 C 0.0870(7) 0.3543(7) 0.53429(12)
C5_6 C 0.1997(7) 0.4568(7) 0.54576(13)
H5_6 H 0.2611 0.5180 0.5321
C6_6 C 0.2218(7) 0.4689(8) 0.57706(13)
H6_6 H 0.2994 0.5393 0.5844
C7_6 C 0.0505(7) 0.3428(7) 0.50079(12)
C8_4 C 0.1277(8) 0.4412(7) 0.47989(13)
H7_4 H 0.2046 0.5135 0.4868
C13_4 C 0.0896(7) 0.4309(7) 0.44879(13)
H11_4 H 0.1407 0.4994 0.4348
N3_4 N 0.1706(6) 0.4846(6) 0.68767(10)
O3_6 O 0.8056(4) 0.6911(5) 0.64008(10)
H1_6 H 0.7902 0.7291 0.6576
O5_6 O 0.5585(5) 0.6762(6) 0.57843(11)
O6_6 O 0.8678(5) 0.6630(6) 0.57353(11)
H2_6 H 0.9100 0.6894 0.5569
N2_4 N 0.9846(6) 0.3294(6) 0.43767(10)
H3_6 H 0.9791 0.2216 0.6006
H4_6 H 0.9315 0.1933 0.5491
C9_6 C 0.9446(8) 0.2363(8) 0.48906(13)
H8_6 H 0.8919 0.1657 0.5024
C10_6 C 0.8710(6) 0.8058(6) 0.62090(13)
H9_6 H 0.8412 0.9102 0.6295
C11_6 C 0.8062(6) 0.7975(8) 0.58831(13)
H10_6 H 0.8372 0.8936 0.5767
C12_6 C 0.6289(7) 0.7856(8) 0.58963(13)
C14_6 C 0.9155(7) 0.2330(8) 0.45771(13)
H12_6 H 0.8426 0.1584 0.4501
N1_7 N 0.1134(6) 0.6394(5) 0.84743(10)
C2_7 C 0.2152(7) 0.5358(7) 0.83647(13)
H3_7 H 0.2784 0.4791 0.8506
C3_7 C 0.2328(8) 0.5075(7) 0.80576(13)
H4_7 H 0.3067 0.4315 0.7991
C4_7 C 0.1457(7) 0.5870(7) 0.78429(12)
C5_7 C 0.0432(7) 0.6997(7) 0.79576(13)
C6_7 C 0.0311(8) 0.7218(7) 0.82706(13)
C7_7 C 0.1572(7) 0.5505(7) 0.75079(12)
C8_5 C 0.0588(7) 0.6277(8) 0.72989(13)
C9_7 C 0.2637(8) 0.4446(8) 0.73906(13)
H8_7 H 0.3343 0.3919 0.7524
C13_5 C 0.0691(7) 0.5896(7) 0.69879(13)
H11_5 H 0.0006 0.6407 0.6848
C14_7 C 0.2670(8) 0.4155(7) 0.70771(13)
H12_7 H 0.3416 0.3426 0.7001
O1_7 O 0.8168(5) 0.6181(5) 0.88035(9)
O3_7 O 0.8089(5) 0.3056(4) 0.89008(10)
H1_7 H 0.7709 0.2902 0.9076
O5_7 O 0.8238(6) 0.0585(5) 0.82843(11)
O6_7 O 0.8370(6) 0.3678(5) 0.82353(11)
H2_7 H 0.8106 0.4100 0.8069
C1_7 C 0.7017(6) 0.5491(6) 0.87026(11)
H5_7 H 0.9820 0.7611 0.7821
H6_7 H 0.9607 0.7994 0.8344
H7_5 H 0.9865 0.7046 0.7368
C10_7 C 0.6942(6) 0.3710(6) 0.87090(13)
H9_7 H 0.5898 0.3412 0.8795
C11_7 C 0.7025(8) 0.3062(6) 0.83831(13)
H10_7 H 0.6064 0.3372 0.8267
C12_7 C 0.7144(8) 0.1289(7) 0.83963(13)
O1_8 O 0.1832(5) 0.3819(5) 0.38035(9)
O3_8 O 0.1911(5) 0.6944(4) 0.39008(10)
H1_8 H 0.2291 0.7098 0.4076
O5_8 O 0.1762(6) 0.9415(5) 0.32843(11)
O6_8 O 0.1630(6) 0.6322(5) 0.32353(11)
H2_8 H 0.1894 0.5900 0.3069
C1_8 C 0.2983(6) 0.4509(6) 0.37026(11)
H5_8 H 0.0180 0.2389 0.2821
H6_8 H 0.0393 0.2006 0.3344
H7_6 H 0.0135 0.2954 0.2368
C10_8 C 0.3058(6) 0.6290(6) 0.37090(13)
H9_8 H 0.4102 0.6588 0.3795
C11_8 C 0.2975(8) 0.6938(6) 0.33831(13)
H10_8 H 0.3936 0.6628 0.3267
C12_8 C 0.2856(8) 0.8711(7) 0.33963(13)
N1_8 N 0.8866(6) 0.3606(5) 0.34743(10)
C2_8 C 0.7848(7) 0.4642(7) 0.33647(13)
H3_8 H 0.7216 0.5209 0.3506
C3_8 C 0.7672(8) 0.4925(7) 0.30576(13)
H4_8 H 0.6933 0.5685 0.2991
C4_8 C 0.8543(7) 0.4130(7) 0.28429(12)
C5_8 C 0.9568(7) 0.3003(7) 0.29576(13)
C6_8 C 0.9689(8) 0.2782(7) 0.32706(13)
C7_8 C 0.8428(7) 0.4495(7) 0.25079(12)
C8_6 C 0.9412(7) 0.3723(8) 0.22989(13)
C9_8 C 0.7363(8) 0.5554(8) 0.23906(13)
H8_8 H 0.6657 0.6081 0.2524
C13_6 C 0.9309(7) 0.4104(7) 0.19879(13)
H11_6 H 0.9994 0.3593 0.1848
C14_8 C 0.7330(8) 0.5845(7) 0.20771(13)
H12_8 H 0.6584 0.6574 0.2001
C8_7 C 0.5588(7) 0.8723(8) 0.02011(13)
H7_7 H 0.4865 0.7954 0.0132
C13_7 C 0.5691(7) 0.9104(7) 0.05121(13)
H11_7 H 0.5006 0.8593 0.0652
C8_8 C 0.8723(8) 0.5588(7) 0.97989(13)
H7_8 H 0.7954 0.4865 0.9868
C13_8 C 0.9104(7) 0.5691(7) 0.94879(13)
H11_8 H 0.8593 0.5006 0.9348
loop_
_geom_bond_atom_site_label_1
_geom_bond_atom_site_label_2
_geom_bond_site_symmetry_1
_geom_bond_site_symmetry_2
N1 Cu1 1_555 1_555
N2 C13 1_555 1_555
C2 N1 1_555 1_555
H3 C2 1_555 1_555
C3 C2 1_555 1_555
H4 C3 1_555 1_555
C4 C3 1_555 1_555
C5 C4 1_555 1_555
C6 N1 1_555 1_555
C7 C4 1_555 1_555
C8 C7 1_555 1_555
C9 C7 1_555 1_555
H8 C9 1_555 1_555
C13 C8 1_555 1_555
H11 C13 1_555 1_555
C14 N2 1_555 1_555
H12 C14 1_555 1_555
Cu4 N2 1_555 1_555
O7 Cu1 1_555 1_555
O8 Cu1 1_555 1_555
N3 Cu1 1_555 1_555
C5 C6 1_555 1_555
C9 C14 1_555 1_555
O1 C1 1_555 1_555
O2 C1 1_555 1_555
O3 H1 1_555 1_555
O4 C12 1_555 1_555
O5 C12 1_555 1_555
O6 H2 1_555 1_555
C1 C10 1_555 1_555
C10 O3 1_555 1_555
H9 C10 1_555 1_555
C11 O6 1_555 1_555
H10 C11 1_555 1_555
C12 C11 1_555 1_555
Cu2 O2 1_555 1_555
C10 C11 1_555 1_555
O1_2 C1_2 1_555 1_555
O2_2 C1_2 1_555 1_555
O3_2 H1_2 1_555 1_555
O4_2 C12_2 1_555 1_555
O5_2 C12_2 1_555 1_555
O6_2 H2_2 1_555 1_555
C1_2 C10_2 1_555 1_555
C10_2 O3_2 1_555 1_555
H9_2 C10_2 1_555 1_555
C11_2 O6_2 1_555 1_555
H10_2 C11_2 1_555 1_555
C12_2 C11_2 1_555 1_555
Cu3 O2_2 1_555 1_555
C10_2 C11_2 1_555 1_555
N1_2 Cu1_2 1_555 1_555
N2_2 C13_2 1_555 1_555
C2_2 N1_2 1_555 1_555
H3_2 C2_2 1_555 1_555
C3_2 C2_2 1_555 1_555
H4_2 C3_2 1_555 1_555
C4_2 C3_2 1_555 1_555
C5_2 C4_2 1_555 1_555
C6_2 N1_2 1_555 1_555
C7_2 C4_2 1_555 1_555
C8_2 C7_2 1_555 1_555
C9_2 C7_2 1_555 1_555
H8_2 C9_2 1_555 1_555
C13_2 C8_2 1_555 1_555
H11_2 C13_2 1_555 1_555
C14_2 N2_2 1_555 1_555
H12_2 C14_2 1_555 1_555
Cu4_2 N2_2 1_555 1_555
O7_2 Cu1_2 1_555 1_555
O8_2 Cu1_2 1_555 1_555
N3_2 Cu1_2 1_555 1_555
C5_2 C6_2 1_555 1_555
C9_2 C14_2 1_555 1_555
Cu4 O1_3 1_555 1_555
O1_3 C1_3 1_555 1_555
O2_3 C1_3 1_555 1_555
N1_3 Cu4 1_555 1_555
C2_3 N1_3 1_555 1_555
C3_3 C2_3 1_555 1_555
C4_3 C3_3 1_555 1_555
C5_3 C4_3 1_555 1_555
H5_3 C5_3 1_555 1_555
C6_3 N1_3 1_555 1_555
H6_3 C6_3 1_555 1_555
C7_3 C4_3 1_555 1_555
C8_3 C7_3 1_555 1_555
H7_3 C8_3 1_555 1_555
C13_3 C8_3 1_555 1_555
H11_3 C13_3 1_555 1_555
Cu2_2 O2_3 1_555 1_555
O7_3 Cu4 1_555 1_555
C5_3 C6_3 1_555 1_555
O3_3 H1_3 1_555 1_555
O4_3 C12_3 1_555 1_555
O5_3 C12_3 1_555 1_555
O6_3 H2_3 1_555 1_555
H8_3 C9_3 1_555 1_555
C10_3 O3_3 1_555 1_555
H9_3 C10_3 1_555 1_555
C11_3 O6_3 1_555 1_555
H10_3 C11_3 1_555 1_555
C12_3 C11_3 1_555 1_555
C14_3 N3_2 1_555 1_555
H12_3 C14_3 1_555 1_555
Cu2_2 O4_3 1_555 1_555
C9_3 C14_3 1_555 1_555
C10_3 C11_3 1_555 1_555
C14_4 N3 1_555 1_555
H12_4 C14_4 1_555 1_555
C9_4 C14_4 1_555 1_555
O3_4 H1_4 1_555 1_555
O4_4 C12_4 1_555 1_555
O5_4 C12_4 1_555 1_555
O6_4 H2_4 1_555 1_555
C10_4 O3_4 1_555 1_555
H9_4 C10_4 1_555 1_555
C11_4 O6_4 1_555 1_555
H10_4 C11_4 1_555 1_555
C12_4 C11_4 1_555 1_555
Cu3_2 O4_4 1_555 1_555
C10_4 C11_4 1_555 1_555
Cu4_2 O1_4 1_555 1_555
O1_4 C1_4 1_555 1_555
O2_4 C1_4 1_555 1_555
N1_4 Cu4_2 1_555 1_555
C2_4 N1_4 1_555 1_555
C3_4 C2_4 1_555 1_555
C4_4 C3_4 1_555 1_555
C5_4 C4_4 1_555 1_555
H5_4 C5_4 1_555 1_555
C6_4 N1_4 1_555 1_555
H6_4 C6_4 1_555 1_555
C7_4 C4_4 1_555 1_555
Cu3_2 O2_4 1_555 1_555
O7_4 Cu4_2 1_555 1_555
C5_4 C6_4 1_555 1_555
O3_5 H1_5 1_555 1_555
O8 C12_5 1_555 1_555
O5_5 C12_5 1_555 1_555
O6_5 H2_5 1_555 1_555
C10_5 O3_5 1_555 1_555
H9_5 C10_5 1_555 1_555
C11_5 O6_5 1_555 1_555
H10_5 C11_5 1_555 1_555
C12_5 C11_5 1_555 1_555
C10_5 C11_5 1_555 1_555
C14_5 N2_3 1_555 1_555
H12_5 C14_5 1_555 1_555
Cu3_2 N2_3 1_555 1_555
C9_5 C14_5 1_555 1_555
Cu2 O1_5 1_555 1_555
O1_5 C1_5 1_555 1_555
O7 C1_5 1_555 1_555
N1_5 Cu2 1_555 1_555
C2_5 N1_5 1_555 1_555
C3_5 C2_5 1_555 1_555
C4_5 C3_5 1_555 1_555
C5_5 C4_5 1_555 1_555
H5_5 C5_5 1_555 1_555
C6_5 N1_5 1_555 1_555
H6_5 C6_5 1_555 1_555
C7_5 C4_5 1_555 1_555
N3_3 Cu2 1_555 1_555
C5_5 C6_5 1_555 1_555
Cu3 O1_6 1_555 1_555
O1_6 C1_6 1_555 1_555
O7_2 C1_6 1_555 1_555
N1_6 Cu3 1_555 1_555
C2_6 N1_6 1_555 1_555
C3_6 C2_6 1_555 1_555
C4_6 C3_6 1_555 1_555
C5_6 C4_6 1_555 1_555
H5_6 C5_6 1_555 1_555
C6_6 N1_6 1_555 1_555
H6_6 C6_6 1_555 1_555
C7_6 C4_6 1_555 1_555
C8_4 C7_6 1_555 1_555
H7_4 C8_4 1_555 1_555
C13_4 C8_4 1_555 1_555
H11_4 C13_4 1_555 1_555
N3_4 Cu3 1_555 1_555
C5_6 C6_6 1_555 1_555
O3_6 H1_6 1_555 1_555
O8_2 C12_6 1_555 1_555
O5_6 C12_6 1_555 1_555
O6_6 H2_6 1_555 1_555
H8_6 C9_6 1_555 1_555
C10_6 O3_6 1_555 1_555
H9_6 C10_6 1_555 1_555
C11_6 O6_6 1_555 1_555
H10_6 C11_6 1_555 1_555
C12_6 C11_6 1_555 1_555
C14_6 N2_4 1_555 1_555
H12_6 C14_6 1_555 1_555
Cu2_2 N2_4 1_555 1_555
C9_6 C14_6 1_555 1_555
C10_6 C11_6 1_555 1_555
N1_7 Cu3_2 1_555 1_555
N3_4 C13_5 1_555 1_555
C2_7 N1_7 1_555 1_555
H3_7 C2_7 1_555 1_555
C3_7 C2_7 1_555 1_555
H4_7 C3_7 1_555 1_555
C4_7 C3_7 1_555 1_555
C5_7 C4_7 1_555 1_555
C6_7 N1_7 1_555 1_555
C7_7 C4_7 1_555 1_555
C8_5 C7_7 1_555 1_555
C9_7 C7_7 1_555 1_555
H8_7 C9_7 1_555 1_555
C13_5 C8_5 1_555 1_555
H11_5 C13_5 1_555 1_555
C14_7 N3_4 1_555 1_555
H12_7 C14_7 1_555 1_555
C5_7 C6_7 1_555 1_555
C9_7 C14_7 1_555 1_555
O1_7 C1_7 1_555 1_555
O7_4 C1_7 1_555 1_555
O3_7 H1_7 1_555 1_555
O8_4 C12_7 1_555 1_555
O5_7 C12_7 1_555 1_555
O6_7 H2_7 1_555 1_555
C1_7 C10_7 1_555 1_555
C10_7 O3_7 1_555 1_555
H9_7 C10_7 1_555 1_555
C11_7 O6_7 1_555 1_555
H10_7 C11_7 1_555 1_555
C12_7 C11_7 1_555 1_555
C10_7 C11_7 1_555 1_555
O1_8 C1_8 1_555 1_555
O7_3 C1_8 1_555 1_555
O3_8 H1_8 1_555 1_555
O8_3 C12_8 1_555 1_555
O5_8 C12_8 1_555 1_555
O6_8 H2_8 1_555 1_555
C1_8 C10_8 1_555 1_555
C10_8 O3_8 1_555 1_555
H9_8 C10_8 1_555 1_555
C11_8 O6_8 1_555 1_555
H10_8 C11_8 1_555 1_555
C12_8 C11_8 1_555 1_555
C10_8 C11_8 1_555 1_555
N1_8 Cu2_2 1_555 1_555
N3_3 C13_6 1_555 1_555
C2_8 N1_8 1_555 1_555
H3_8 C2_8 1_555 1_555
C3_8 C2_8 1_555 1_555
H4_8 C3_8 1_555 1_555
C4_8 C3_8 1_555 1_555
C5_8 C4_8 1_555 1_555
C6_8 N1_8 1_555 1_555
C7_8 C4_8 1_555 1_555
C8_6 C7_8 1_555 1_555
C9_8 C7_8 1_555 1_555
H8_8 C9_8 1_555 1_555
C13_6 C8_6 1_555 1_555
H11_6 C13_6 1_555 1_555
C14_8 N3_3 1_555 1_555
H12_8 C14_8 1_555 1_555
C5_8 C6_8 1_555 1_555
C9_8 C14_8 1_555 1_555
H7_7 C8_7 1_555 1_555
C13_7 C8_7 1_555 1_555
H11_7 C13_7 1_555 1_555
H7_8 C8_8 1_555 1_555
C13_8 C8_8 1_555 1_555
H11_8 C13_8 1_555 1_555

#END
