
###############################################################################
#
# This file contains modified crystal structure data generated from the
# MOF subset of the Cambridge Structural Database (CSD) v543 
# hosted by the Cambridge Crystallographic Data Centre (CCDC).
#
# This work is licensed under the Creative Commons
# Attribution-NonCommercial-ShareAlike 4.0 International License.
# To view a copy of this license, visit
# http://creativecommons.org/licenses/by-nc-sa/4.0/
# or send a letter to
# Creative Commons, PO Box 1866, Mountain View, CA 94042, USA.
#
# CIF created using the CSD Python API on 29 September 2022
# The structure has been converted into the P1 space group
# The structure has a 3D framework
# The original CSD entry CELNUF is in the monoclinic crystal system
# The framework has been calculated to contain at least 10.0% void space
# The void calculation uses a probe of radius 1.32A, grid spacing 0.4
# The framework is charged, counterions have been retained in the structure
#
###############################################################################

data_CELNUF
_chemical_formula_moiety         '(C88 H64 N8 O52 U8 2+)n'
_symmetry_cell_setting           triclinic
_symmetry_space_group_name_H-M   'P 1'
_symmetry_Int_Tables_number      1
_space_group_name_Hall           'P 1'
loop_
_symmetry_equiv_pos_site_id
_symmetry_equiv_pos_as_xyz
1 x,y,z
_cell_length_a                   11.3233(9)
_cell_length_b                   14.6316(11)
_cell_length_c                   19.0023(14)
_cell_angle_alpha                90
_cell_angle_beta                 101.697(3)
_cell_angle_gamma                90
_cell_volume                     3082.88
loop_
_atom_site_label
_atom_site_type_symbol
_atom_site_fract_x
_atom_site_fract_y
_atom_site_fract_z
C13 C 0.0097(11) 0.0477(8) 0.0643(6)
C14 C 0.0319(12) 0.0993(11) 0.1356(7)
H9 H 0.0812 0.0622 0.1725
H10 H 0.0757 0.1552 0.1309
C16 C 0.1018(14) 0.0480(11) 0.0269(8)
H12 H 0.1719 0.0807 0.0447
C31 C 0.0916(14) 0.0001(11) 0.9627(8)
H23 H 0.1549 0.0009 0.9382
O15 O 0.4647(7) 0.7428(6) 0.8017(4)
O16 O 0.4441(8) 0.8654(6) 0.7311(5)
N3 N 0.0839(9) 0.8777(8) 0.8422(5)
C23 C 0.4119(10) 0.8137(8) 0.7745(6)
C24 C 0.2226(11) 0.9070(9) 0.7661(7)
H17 H 0.2457 0.9409 0.7298
C25 C 0.2935(11) 0.8356(8) 0.7982(6)
C26 C 0.2574(12) 0.7857(10) 0.8523(7)
H18 H 0.3050 0.7383 0.8751
C27 C 0.1168(11) 0.9272(9) 0.7888(7)
H19 H 0.0681 0.9749 0.7674
C28 C 0.1502(12) 0.8074(10) 0.8715(7)
H20 H 0.1235 0.7721 0.9058
U7 U 0.67756(4) 0.71785(3) 0.82907(2)
O26 O 0.6616(7) 0.6963(6) 0.0623(4)
O27 O 0.8924(8) 0.7070(7) 0.0539(4)
U5 U 0.82012(4) 0.73640(3) 0.16547(2)
U3 U 0.82012(4) 0.76360(3) 0.66547(2)
O19 O 0.6386(7) 0.7580(6) 0.7064(3)
O20 O 0.8552(7) 0.7190(6) 0.7867(3)
O21 O 0.8444(8) 0.8805(5) 0.6910(4)
O22 O 0.7994(7) 0.6487(6) 0.6403(4)
O23 O 0.6564(8) 0.5989(6) 0.8087(4)
O24 O 0.8411(7) 0.6955(7) 0.9345(4)
O25 O 0.6094(7) 0.6954(7) 0.9418(4)
C43 C 0.6839(10) 0.6950(8) 0.9997(5)
C44 C 0.8161(11) 0.6984(9) 0.9960(6)
O28 O 0.6928(7) 0.8313(6) 0.8485(4)
O30 O 0.6616(7) 0.8037(6) 0.5623(4)
O32 O 0.8924(8) 0.7930(7) 0.5539(4)
U2 U 0.67756(4) 0.78215(3) 0.32907(2)
O1 O 0.6386(7) 0.7420(6) 0.2064(3)
O2 O 0.8552(7) 0.7810(6) 0.2867(3)
O3 O 0.8444(8) 0.6195(5) 0.1910(4)
O4 O 0.4647(7) 0.7572(6) 0.3017(4)
O5 O 0.7994(7) 0.8513(6) 0.1403(4)
O6 O 0.6564(8) 0.9011(6) 0.3087(4)
O8 O 0.4441(8) 0.6346(6) 0.2311(5)
N1 N 0.0839(9) 0.6223(8) 0.3422(5)
C2 C 0.4119(10) 0.6863(8) 0.2745(6)
C4 C 0.2226(11) 0.5930(9) 0.2661(7)
H1 H 0.2457 0.5591 0.2298
C6 C 0.2935(11) 0.6644(8) 0.2982(6)
C8 C 0.2574(12) 0.7143(10) 0.3523(7)
H4 H 0.3050 0.7617 0.3751
C9 C 0.1168(11) 0.5728(9) 0.2888(7)
H5 H 0.0681 0.5251 0.2674
C11 C 0.1502(12) 0.6926(10) 0.3715(7)
H7 H 0.1235 0.7279 0.4058
C15 C 0.0916(14) 0.4999(11) 0.4627(8)
H11 H 0.1549 0.4991 0.4382
O10 O 0.8411(7) 0.8045(7) 0.4345(4)
O11 O 0.6094(7) 0.8046(7) 0.4418(4)
C17 C 0.6839(10) 0.8050(8) 0.4997(5)
C18 C 0.8161(11) 0.8016(9) 0.4960(6)
O14 O 0.6928(7) 0.6687(6) 0.3485(4)
C29 C 0.0097(11) 0.4523(8) 0.5643(6)
C30 C 0.0319(12) 0.4007(11) 0.6356(7)
H21 H 0.0812 0.4378 0.6725
H22 H 0.0757 0.3448 0.6309
C32 C 0.1018(14) 0.4520(11) 0.5269(8)
H24 H 0.1719 0.4193 0.5447
U1 U 0.17988(4) 0.23640(3) 0.33453(2)
U2_2 U 0.32244(4) 0.28215(3) 0.17093(2)
O1_2 O 0.3614(7) 0.2420(6) 0.2936(3)
O2_2 O 0.1448(7) 0.2810(6) 0.2133(3)
O3_2 O 0.1556(8) 0.1195(5) 0.3090(4)
O4_2 O 0.5353(7) 0.2572(6) 0.1983(4)
O5_2 O 0.2006(7) 0.3513(6) 0.3597(4)
O6_2 O 0.3436(8) 0.4011(6) 0.1913(4)
O8_2 O 0.5559(8) 0.1346(6) 0.2689(5)
N1_2 N 0.9161(9) 0.1223(8) 0.1578(5)
C2_2 C 0.5881(10) 0.1863(8) 0.2255(6)
C4_2 C 0.7774(11) 0.0930(9) 0.2339(7)
H1_2 H 0.7543 0.0591 0.2702
C6_2 C 0.7065(11) 0.1644(8) 0.2018(6)
C8_2 C 0.7426(12) 0.2143(10) 0.1477(7)
H4_2 H 0.6950 0.2617 0.1249
C9_2 C 0.8832(11) 0.0728(9) 0.2112(7)
H5_2 H 0.9319 0.0251 0.2326
C11_2 C 0.8498(12) 0.1926(10) 0.1285(7)
H7_2 H 0.8765 0.2279 0.0942
O10_2 O 0.1589(7) 0.3045(7) 0.0655(4)
O11_2 O 0.3906(7) 0.3046(7) 0.0582(4)
C17_2 C 0.3161(10) 0.3050(8) 0.0003(5)
C18_2 C 0.1839(11) 0.3016(9) 0.0040(6)
O14_2 O 0.3072(7) 0.1687(6) 0.1515(4)
O31 O 0.3384(7) 0.1963(6) 0.4377(4)
O33 O 0.1076(8) 0.2070(7) 0.4461(4)
O12 O 0.3384(7) 0.3037(6) 0.9377(4)
O13 O 0.1076(8) 0.2930(7) 0.9461(4)
U6 U 0.17988(4) 0.26360(3) 0.83453(2)
U4 U 0.32244(4) 0.21785(3) 0.67093(2)
O19_2 O 0.3614(7) 0.2580(6) 0.7936(3)
O20_2 O 0.1448(7) 0.2190(6) 0.7133(3)
O21_2 O 0.1556(8) 0.3805(5) 0.8090(4)
O22_2 O 0.2006(7) 0.1487(6) 0.8597(4)
O23_2 O 0.3436(8) 0.0989(6) 0.6913(4)
O24_2 O 0.1589(7) 0.1955(7) 0.5655(4)
O25_2 O 0.3906(7) 0.1954(7) 0.5582(4)
C43_2 C 0.3161(10) 0.1950(8) 0.5003(5)
C44_2 C 0.1839(11) 0.1984(9) 0.5040(6)
O28_2 O 0.3072(7) 0.3313(6) 0.6515(4)
O29 O 0.5353(7) 0.2428(6) 0.6983(4)
C13_2 C 0.9903(11) 0.5477(8) 0.4357(6)
C14_2 C 0.9681(12) 0.5993(11) 0.3644(7)
H9_2 H 0.9188 0.5622 0.3275
H10_2 H 0.9243 0.6552 0.3691
C16_2 C 0.8982(14) 0.5480(11) 0.4731(8)
H12_2 H 0.8281 0.5807 0.4553
O16_2 O 0.5559(8) 0.3654(6) 0.7689(5)
N3_2 N 0.9161(9) 0.3777(8) 0.6578(5)
C23_2 C 0.5881(10) 0.3137(8) 0.7255(6)
C24_2 C 0.7774(11) 0.4070(9) 0.7339(7)
H17_2 H 0.7543 0.4409 0.7702
C25_2 C 0.7065(11) 0.3356(8) 0.7018(6)
C26_2 C 0.7426(12) 0.2857(10) 0.6477(7)
H18_2 H 0.6950 0.2383 0.6249
C27_2 C 0.8832(11) 0.4272(9) 0.7112(7)
H19_2 H 0.9319 0.4749 0.7326
C28_2 C 0.8498(12) 0.3074(10) 0.6285(7)
H20_2 H 0.8765 0.2721 0.5942
C31_2 C 0.9084(14) 0.5001(11) 0.5373(8)
H23_2 H 0.8451 0.5009 0.5618
C15_2 C 0.9084(14) 0.9999(11) 0.0373(8)
H11_2 H 0.8451 0.9991 0.0618
C29_2 C 0.9903(11) 0.9523(8) 0.9357(6)
C30_2 C 0.9681(12) 0.9007(11) 0.8644(7)
H21_2 H 0.9188 0.9378 0.8275
H22_2 H 0.9243 0.8448 0.8691
C32_2 C 0.8982(14) 0.9520(11) 0.9731(8)
H24_2 H 0.8281 0.9193 0.9553
O7 O 0.9696(8) 0.2701(6) 0.3062(4)
O9 O 0.9601(9) 0.3930(6) 0.2364(5)
N2 N 0.5876(9) 0.4144(7) 0.3331(5)
C1 C 0.9203(11) 0.3418(8) 0.2776(6)
C3 C 0.8041(10) 0.3676(8) 0.2981(6)
C5 C 0.7329(11) 0.4376(8) 0.2631(6)
H2 H 0.7586 0.4702 0.2269
C7 C 0.6255(12) 0.4593(9) 0.2812(6)
H3 H 0.5784 0.5060 0.2568
C10 C 0.7610(12) 0.3204(9) 0.3515(6)
H6 H 0.8056 0.2727 0.3762
C12 C 0.6530(12) 0.3447(9) 0.3674(6)
H8 H 0.6240 0.3125 0.4025
C19 C 0.4860(10) 0.4707(8) 0.4291(6)
C20 C 0.4700(10) 0.4386(9) 0.3525(6)
H13 H 0.4176 0.3855 0.3457
H14 H 0.4313 0.4864 0.3206
C21 C 0.5236(12) 0.5587(8) 0.4477(6)
H15 H 0.5401 0.5983 0.4127
C22 C 0.4631(12) 0.4112(8) 0.4818(6)
H16 H 0.4389 0.3515 0.4698
O17 O 0.0304(8) 0.7299(6) 0.6938(4)
O18 O 0.0399(9) 0.6070(6) 0.7636(5)
N4 N 0.4124(9) 0.5856(7) 0.6669(5)
C33 C 0.0797(11) 0.6582(8) 0.7224(6)
C34 C 0.1959(10) 0.6324(8) 0.7019(6)
C35 C 0.2671(11) 0.5624(8) 0.7369(6)
H25 H 0.2414 0.5298 0.7731
C36 C 0.3745(12) 0.5407(9) 0.7188(6)
H26 H 0.4216 0.4940 0.7432
C37 C 0.2390(12) 0.6796(9) 0.6485(6)
H27 H 0.1944 0.7273 0.6238
C38 C 0.3470(12) 0.6553(9) 0.6326(6)
H28 H 0.3760 0.6875 0.5975
C39 C 0.5140(10) 0.5293(8) 0.5709(6)
C40 C 0.5300(10) 0.5614(9) 0.6475(6)
H29 H 0.5824 0.6145 0.6543
H30 H 0.5687 0.5136 0.6794
C41 C 0.4764(12) 0.4413(8) 0.5523(6)
H31 H 0.4599 0.4017 0.5873
C42 C 0.5369(12) 0.5888(8) 0.5182(6)
H32 H 0.5611 0.6485 0.5302
H3_2 H 0.4216 0.0060 0.2432
C21_2 C 0.4764(12) 0.0587(8) 0.0523(6)
H15_2 H 0.4599 0.0983 0.0873
O17_2 O 0.9696(8) 0.2299(6) 0.8062(4)
O18_2 O 0.9601(9) 0.1070(6) 0.7364(5)
N4_2 N 0.5876(9) 0.0856(7) 0.8331(5)
C33_2 C 0.9203(11) 0.1582(8) 0.7776(6)
C34_2 C 0.8041(10) 0.1324(8) 0.7981(6)
C35_2 C 0.7329(11) 0.0624(8) 0.7631(6)
H25_2 H 0.7586 0.0298 0.7269
C36_2 C 0.6255(12) 0.0407(9) 0.7812(6)
C37_2 C 0.7610(12) 0.1796(9) 0.8515(6)
H27_2 H 0.8056 0.2273 0.8762
C38_2 C 0.6530(12) 0.1553(9) 0.8674(6)
H28_2 H 0.6240 0.1875 0.9025
C39_2 C 0.4860(10) 0.0293(8) 0.9291(6)
C40_2 C 0.4700(10) 0.0614(9) 0.8525(6)
H29_2 H 0.4176 0.1145 0.8457
H30_2 H 0.4313 0.0136 0.8206
C42_2 C 0.4631(12) 0.0888(8) 0.9818(6)
H32_2 H 0.4389 0.1485 0.9698
O7_2 O 0.0304(8) 0.7701(6) 0.1938(4)
O9_2 O 0.0399(9) 0.8930(6) 0.2636(5)
N2_2 N 0.4124(9) 0.9144(7) 0.1669(5)
C1_2 C 0.0797(11) 0.8418(8) 0.2224(6)
C3_2 C 0.1959(10) 0.8676(8) 0.2019(6)
C5_2 C 0.2671(11) 0.9376(8) 0.2369(6)
H2_2 H 0.2414 0.9702 0.2731
C7_2 C 0.3745(12) 0.9593(9) 0.2188(6)
C10_2 C 0.2390(12) 0.8204(9) 0.1485(6)
H6_2 H 0.1944 0.7727 0.1238
C12_2 C 0.3470(12) 0.8447(9) 0.1326(6)
H8_2 H 0.3760 0.8125 0.0975
C19_2 C 0.5140(10) 0.9707(8) 0.0709(6)
C20_2 C 0.5300(10) 0.9386(9) 0.1475(6)
H13_2 H 0.5824 0.8855 0.1543
H14_2 H 0.5687 0.9864 0.1794
C22_2 C 0.5369(12) 0.9112(8) 0.0182(6)
H16_2 H 0.5611 0.8515 0.0302
H26_2 H 0.5784 0.9940 0.7568
C41_2 C 0.5236(12) 0.9413(8) 0.9477(6)
H31_2 H 0.5401 0.9017 0.9127
loop_
_geom_bond_atom_site_label_1
_geom_bond_atom_site_label_2
_geom_bond_site_symmetry_1
_geom_bond_site_symmetry_2
C13 C14 1_555 1_555
H9 C14 1_555 1_555
H10 C14 1_555 1_555
C16 C13 1_555 1_555
H12 C16 1_555 1_555
H23 C31 1_555 1_555
O15 C23 1_555 1_555
O16 C23 1_555 1_555
N3 C27 1_555 1_555
C23 C25 1_555 1_555
C24 H17 1_555 1_555
C25 C24 1_555 1_555
C26 C25 1_555 1_555
H18 C26 1_555 1_555
C27 C24 1_555 1_555
H19 C27 1_555 1_555
C28 N3 1_555 1_555
H20 C28 1_555 1_555
U7 O15 1_555 1_555
C26 C28 1_555 1_555
U5 O26 1_555 1_555
O27 U5 1_555 1_555
U7 O19 1_555 1_555
O19 U3 1_555 1_555
O20 U3 1_555 1_555
O21 U3 1_555 1_555
O22 U3 1_555 1_555
O23 U7 1_555 1_555
O24 U7 1_555 1_555
O25 U7 1_555 1_555
C43 O25 1_555 1_555
C44 O24 1_555 1_555
O28 U7 1_555 1_555
O30 U3 1_555 1_555
O32 U3 1_555 1_555
U7 O20 1_555 1_555
C43 C44 1_555 1_555
U5 O1 1_555 1_555
U2 O1 1_555 1_555
O2 U5 1_555 1_555
O3 U5 1_555 1_555
O4 U2 1_555 1_555
O5 U5 1_555 1_555
O6 U2 1_555 1_555
O8 C2 1_555 1_555
N1 C9 1_555 1_555
C2 O4 1_555 1_555
C4 H1 1_555 1_555
C6 C2 1_555 1_555
C8 C6 1_555 1_555
H4 C8 1_555 1_555
C9 C4 1_555 1_555
H5 C9 1_555 1_555
C11 N1 1_555 1_555
H7 C11 1_555 1_555
H11 C15 1_555 1_555
O10 U2 1_555 1_555
O11 U2 1_555 1_555
O30 C17 1_555 1_555
O32 C18 1_555 1_555
C17 O11 1_555 1_555
C18 O10 1_555 1_555
O14 U2 1_555 1_555
C29 C30 1_555 1_555
H21 C30 1_555 1_555
H22 C30 1_555 1_555
C32 C15 1_555 1_555
H24 C32 1_555 1_555
U2 O2 1_555 1_555
C4 C6 1_555 1_555
C8 C11 1_555 1_555
C17 C18 1_555 1_555
C29 C32 1_555 1_555
U1 O1_2 1_555 1_555
U2_2 O1_2 1_555 1_555
O2_2 U1 1_555 1_555
O3_2 U1 1_555 1_555
O4_2 U2_2 1_555 1_555
O5_2 U1 1_555 1_555
O6_2 U2_2 1_555 1_555
O8_2 C2_2 1_555 1_555
N1_2 C9_2 1_555 1_555
C2_2 O4_2 1_555 1_555
C4_2 H1_2 1_555 1_555
C6_2 C2_2 1_555 1_555
C8_2 C6_2 1_555 1_555
H4_2 C8_2 1_555 1_555
C9_2 C4_2 1_555 1_555
H5_2 C9_2 1_555 1_555
C11_2 N1_2 1_555 1_555
H7_2 C11_2 1_555 1_555
O10_2 U2_2 1_555 1_555
O11_2 U2_2 1_555 1_555
C17_2 O11_2 1_555 1_555
C18_2 O10_2 1_555 1_555
O14_2 U2_2 1_555 1_555
O31 U1 1_555 1_555
O33 U1 1_555 1_555
U2_2 O2_2 1_555 1_555
C4_2 C6_2 1_555 1_555
C8_2 C11_2 1_555 1_555
C17_2 C18_2 1_555 1_555
U6 O12 1_555 1_555
O13 U6 1_555 1_555
U4 O19_2 1_555 1_555
O19_2 U6 1_555 1_555
O20_2 U6 1_555 1_555
O21_2 U6 1_555 1_555
O22_2 U6 1_555 1_555
O23_2 U4 1_555 1_555
O24_2 U4 1_555 1_555
O25_2 U4 1_555 1_555
O31 C43_2 1_555 1_555
O33 C44_2 1_555 1_555
C43_2 O25_2 1_555 1_555
C44_2 O24_2 1_555 1_555
O28_2 U4 1_555 1_555
O29 U4 1_555 1_555
U4 O20_2 1_555 1_555
C43_2 C44_2 1_555 1_555
C13_2 C14_2 1_555 1_555
H9_2 C14_2 1_555 1_555
H10_2 C14_2 1_555 1_555
C16_2 C13_2 1_555 1_555
H12_2 C16_2 1_555 1_555
O29 C23_2 1_555 1_555
O16_2 C23_2 1_555 1_555
N3_2 C27_2 1_555 1_555
C23_2 C25_2 1_555 1_555
C24_2 H17_2 1_555 1_555
C25_2 C24_2 1_555 1_555
C26_2 C25_2 1_555 1_555
H18_2 C26_2 1_555 1_555
C27_2 C24_2 1_555 1_555
H19_2 C27_2 1_555 1_555
C28_2 N3_2 1_555 1_555
H20_2 C28_2 1_555 1_555
C31_2 C16_2 1_555 1_555
H23_2 C31_2 1_555 1_555
C26_2 C28_2 1_555 1_555
H11_2 C15_2 1_555 1_555
C29_2 C30_2 1_555 1_555
H21_2 C30_2 1_555 1_555
H22_2 C30_2 1_555 1_555
H24_2 C32_2 1_555 1_555
C29_2 C32_2 1_555 1_555
O9 C1 1_555 1_555
N2 C7 1_555 1_555
C1 O7 1_555 1_555
C3 C1 1_555 1_555
C5 C3 1_555 1_555
H2 C5 1_555 1_555
C7 C5 1_555 1_555
H3 C7 1_555 1_555
C10 C3 1_555 1_555
H6 C10 1_555 1_555
C12 N2 1_555 1_555
H8 C12 1_555 1_555
C19 C20 1_555 1_555
C20 N2 1_555 1_555
H13 C20 1_555 1_555
H14 C20 1_555 1_555
C21 C19 1_555 1_555
H15 C21 1_555 1_555
C22 C19 1_555 1_555
H16 C22 1_555 1_555
O17 C33 1_555 1_555
O18 C33 1_555 1_555
N4 C36 1_555 1_555
C33 C34 1_555 1_555
C34 C35 1_555 1_555
C35 H25 1_555 1_555
C36 C35 1_555 1_555
H26 C36 1_555 1_555
C37 C34 1_555 1_555
H27 C37 1_555 1_555
C38 N4 1_555 1_555
H28 C38 1_555 1_555
C39 C40 1_555 1_555
C40 N4 1_555 1_555
H29 C40 1_555 1_555
H30 C40 1_555 1_555
C41 C22 1_555 1_555
H31 C41 1_555 1_555
C42 C21 1_555 1_555
H32 C42 1_555 1_555
C10 C12 1_555 1_555
C37 C38 1_555 1_555
C39 C41 1_555 1_555
C39 C42 1_555 1_555
H15_2 C21_2 1_555 1_555
O17_2 C33_2 1_555 1_555
O18_2 C33_2 1_555 1_555
N4_2 C36_2 1_555 1_555
C33_2 C34_2 1_555 1_555
C34_2 C35_2 1_555 1_555
C35_2 H25_2 1_555 1_555
C36_2 C35_2 1_555 1_555
C37_2 C34_2 1_555 1_555
H27_2 C37_2 1_555 1_555
C38_2 N4_2 1_555 1_555
H28_2 C38_2 1_555 1_555
C39_2 C40_2 1_555 1_555
C40_2 N4_2 1_555 1_555
H29_2 C40_2 1_555 1_555
H30_2 C40_2 1_555 1_555
H32_2 C42_2 1_555 1_555
C37_2 C38_2 1_555 1_555
C39_2 C42_2 1_555 1_555
O9_2 C1_2 1_555 1_555
N2_2 C7_2 1_555 1_555
C1_2 O7_2 1_555 1_555
C3_2 C1_2 1_555 1_555
C5_2 C3_2 1_555 1_555
H2_2 C5_2 1_555 1_555
C7_2 C5_2 1_555 1_555
C10_2 C3_2 1_555 1_555
H6_2 C10_2 1_555 1_555
C12_2 N2_2 1_555 1_555
H8_2 C12_2 1_555 1_555
C19_2 C20_2 1_555 1_555
C20_2 N2_2 1_555 1_555
H13_2 C20_2 1_555 1_555
H14_2 C20_2 1_555 1_555
C22_2 C19_2 1_555 1_555
H16_2 C22_2 1_555 1_555
C10_2 C12_2 1_555 1_555
H31_2 C41_2 1_555 1_555

#END
