
###############################################################################
#
# This file contains modified crystal structure data generated from the
# MOF subset of the Cambridge Structural Database (CSD) v543 
# hosted by the Cambridge Crystallographic Data Centre (CCDC).
#
# This work is licensed under the Creative Commons
# Attribution-NonCommercial-ShareAlike 4.0 International License.
# To view a copy of this license, visit
# http://creativecommons.org/licenses/by-nc-sa/4.0/
# or send a letter to
# Creative Commons, PO Box 1866, Mountain View, CA 94042, USA.
#
# CIF created using the CSD Python API on 29 September 2022
# The structure has been converted into the P1 space group
# The structure has a 3D framework
# The original CSD entry CEPBEH is in the orthorhombic crystal system
# The framework has been calculated to contain at least 10.0% void space
# The void calculation uses a probe of radius 1.32A, grid spacing 0.4
#
###############################################################################

data_CEPBEH
_chemical_formula_moiety         '(C152 H88 Mn13 N8 O38)n'
_symmetry_cell_setting           triclinic
_symmetry_space_group_name_H-M   'P 1'
_symmetry_Int_Tables_number      1
_space_group_name_Hall           'P 1'
loop_
_symmetry_equiv_pos_site_id
_symmetry_equiv_pos_as_xyz
1 x,y,z
_cell_length_a                   23.529(3)
_cell_length_b                   7.2593(8)
_cell_length_c                   24.487(3)
_cell_angle_alpha                90
_cell_angle_beta                 90
_cell_angle_gamma                90
_cell_volume                     4182.48
loop_
_atom_site_label
_atom_site_type_symbol
_atom_site_fract_x
_atom_site_fract_y
_atom_site_fract_z
H20 H 0.0136 0.0886 0.1826
Mn4 Mn -0.0000 0.5000 0.0000
Mn6 Mn -0.0000 -0.0000 0.5000
Mn9 Mn 0.0000 0.0000 0.0000
Mn11 Mn -0.0000 0.5000 0.5000
Mn4_2 Mn -0.0000 0.5000 1.0000
Mn9_2 Mn -0.0000 -0.0000 1.0000
Mn6_2 Mn -0.0000 1.0000 0.5000
Mn9_3 Mn -0.0000 1.0000 0.0000
Mn9_4 Mn -0.0000 1.0000 1.0000
Mn2 Mn 0.5000 0.0000 0.5000
O11 O 0.48876(7) 0.1183(2) 0.42000(7)
O17 O 0.47507(7) 0.2492(2) 0.54178(7)
O18 O 0.58584(7) 0.0949(2) 0.50249(7)
O1 O 0.01124(7) 0.8817(2) 0.92000(7)
O2 O 0.04402(7) 0.5922(2) 0.92704(7)
C1 C 0.03342(10) 0.7376(4) 0.90096(10)
C2 C 0.04861(11) 0.7397(3) 0.84101(10)
O3 O 0.02493(7) 0.7492(2) 0.54178(7)
Mn1 Mn 0.5000 0.5000 0.5000
Mn2_2 Mn 0.5000 1.0000 0.5000
O4 O 0.42401(7) 0.6200(2) 0.53096(7)
O5 O 0.41416(7) 0.9051(2) 0.49751(7)
N1 N 0.06656(8) 0.7494(3) 0.57915(8)
C3 C 0.16455(10) 0.7514(3) 0.60000(10)
C4 C 0.09342(11) 0.7501(3) 0.67139(10)
C5 C 0.05191(11) 0.7500(3) 0.63214(10)
H1 H 0.0138 0.7504 0.6422
C6 C 0.32402(11) 0.7042(3) 0.59578(11)
H2 H 0.3532 0.6627 0.6183
C7 C 0.07736(11) 0.7476(3) 0.73044(10)
C8 C 0.29317(10) 0.8377(4) 0.51181(10)
H3 H 0.3015 0.8889 0.4779
C9 C 0.22450(10) 0.7599(3) 0.58110(10)
C10 C 0.12101(10) 0.7470(3) 0.56233(10)
H4 H 0.1293 0.7423 0.5252
C11 C 0.15005(11) 0.7517(3) 0.65504(10)
H5 H 0.1786 0.7529 0.6813
C12 C 0.26848(11) 0.6999(4) 0.61412(10)
H6 H 0.2606 0.6563 0.6490
C13 C 0.39629(10) 0.7650(3) 0.52241(11)
C14 C 0.03081(12) 0.8460(4) 0.74946(10)
H7 H 0.0087 0.9139 0.7252
C15 C 0.33652(10) 0.7702(3) 0.54402(10)
C16 C 0.23769(11) 0.8297(4) 0.52947(10)
H8 H 0.2087 0.8712 0.5068
C17 C 0.01711(11) 0.8430(4) 0.80475(11)
C18 C 0.09411(12) 0.6391(4) 0.82184(11)
H10 H 0.1151 0.5665 0.8458
C19 C 0.10894(12) 0.6456(4) 0.76668(11)
H11 H 0.1404 0.5803 0.7544
O6 O 0.98876(7) 0.1183(2) 0.08000(7)
O7 O 0.95598(7) 0.4078(2) 0.07296(7)
C20 C 0.96658(10) 0.2624(4) 0.09904(10)
C21 C 0.95139(11) 0.2603(3) 0.15899(10)
O8 O 0.97507(7) 0.2508(2) 0.45822(7)
O9 O 0.57599(7) 0.3800(2) 0.46904(7)
N2 N 0.93344(8) 0.2506(3) 0.42085(8)
C22 C 0.83545(10) 0.2486(3) 0.40000(10)
C23 C 0.90658(11) 0.2499(3) 0.32861(10)
C24 C 0.94809(11) 0.2500(3) 0.36786(10)
H12 H 0.9862 0.2496 0.3578
C25 C 0.67598(11) 0.2958(3) 0.40422(11)
H13 H 0.6468 0.3373 0.3817
C26 C 0.92264(11) 0.2524(3) 0.26956(10)
C27 C 0.70683(10) 0.1623(4) 0.48819(10)
H14 H 0.6985 0.1111 0.5221
C28 C 0.77550(10) 0.2401(3) 0.41890(10)
C29 C 0.87899(10) 0.2530(3) 0.43767(10)
H15 H 0.8707 0.2577 0.4748
C30 C 0.84995(11) 0.2483(3) 0.34496(10)
H16 H 0.8214 0.2471 0.3187
C31 C 0.73152(11) 0.3001(4) 0.38588(10)
H17 H 0.7394 0.3437 0.3510
C32 C 0.60371(10) 0.2350(3) 0.47759(11)
C33 C 0.96919(12) 0.1540(4) 0.25054(10)
H18 H 0.9913 0.0861 0.2748
C34 C 0.66348(10) 0.2298(3) 0.45598(10)
C35 C 0.76231(11) 0.1703(4) 0.47053(10)
H19 H 0.7913 0.1288 0.4932
C36 C 0.98289(11) 0.1570(4) 0.19525(11)
C37 C 0.90589(12) 0.3609(4) 0.17816(11)
H21 H 0.8849 0.4335 0.1542
C38 C 0.89106(12) 0.3544(4) 0.23332(11)
H22 H 0.8596 0.4197 0.2456
O12 O 0.51124(7) 0.8817(2) 0.58000(7)
O13 O 0.45598(7) 0.4078(2) 0.42704(7)
O14 O 0.54402(7) 0.5922(2) 0.57296(7)
O15 O 0.52493(7) 0.7508(2) 0.45822(7)
Mn4_3 Mn 1.0000 0.5000 0.0000
Mn6_3 Mn 1.0000 -0.0000 0.5000
Mn9_5 Mn 1.0000 0.0000 0.0000
Mn11_2 Mn 1.0000 0.5000 0.5000
Mn4_4 Mn 1.0000 0.5000 1.0000
Mn9_6 Mn 1.0000 -0.0000 1.0000
Mn6_4 Mn 1.0000 1.0000 0.5000
Mn9_7 Mn 1.0000 1.0000 0.0000
Mn9_8 Mn 1.0000 1.0000 1.0000
H9 H 0.9864 0.9114 0.8174
C1_2 C 0.46658(10) 0.2624(4) 0.40096(10)
C2_2 C 0.45139(11) 0.2603(3) 0.34101(10)
O3_2 O 0.47507(7) 0.2508(2) 0.04178(7)
O4_2 O 0.07599(7) 0.3800(2) 0.03096(7)
N1_2 N 0.43344(8) 0.2506(3) 0.07915(8)
C3_2 C 0.33545(10) 0.2486(3) 0.10000(10)
C4_2 C 0.40658(11) 0.2499(3) 0.17139(10)
C5_2 C 0.44809(11) 0.2500(3) 0.13214(10)
H1_2 H 0.4862 0.2496 0.1422
C6_2 C 0.17598(11) 0.2958(3) 0.09578(11)
H2_2 H 0.1468 0.3373 0.1183
C7_2 C 0.42264(11) 0.2524(3) 0.23044(10)
C8_2 C 0.20683(10) 0.1623(4) 0.01181(10)
C9_2 C 0.27550(10) 0.2401(3) 0.08110(10)
C10_2 C 0.37899(10) 0.2530(3) 0.06233(10)
H4_2 H 0.3707 0.2577 0.0252
C11_2 C 0.34995(11) 0.2483(3) 0.15504(10)
H5_2 H 0.3214 0.2471 0.1813
C12_2 C 0.23152(11) 0.3001(4) 0.11412(10)
H6_2 H 0.2394 0.3437 0.1490
C13_2 C 0.10371(10) 0.2350(3) 0.02241(11)
C14_2 C 0.46919(12) 0.1540(4) 0.24946(10)
H7_2 H 0.4913 0.0861 0.2252
C15_2 C 0.16348(10) 0.2298(3) 0.04402(10)
C16_2 C 0.26231(11) 0.1703(4) 0.02947(10)
H8_2 H 0.2913 0.1288 0.0068
C17_2 C 0.48289(11) 0.1570(4) 0.30475(11)
H9_2 H 0.5136 0.0886 0.3174
C18_2 C 0.40589(12) 0.3609(4) 0.32184(11)
H10_2 H 0.3849 0.4335 0.3458
C19_2 C 0.39106(12) 0.3544(4) 0.26668(11)
H11_2 H 0.3596 0.4197 0.2544
O16 O 0.02493(7) 0.7508(2) 0.04178(7)
Mn5 Mn 0.5000 -0.0000 0.0000
Mn10 Mn 0.5000 0.5000 0.0000
O5_2 O 0.08584(7) 0.0949(2) 0.99751(7)
H3_2 H 0.1985 0.1111 0.9779
Mn5_2 Mn 0.5000 -0.0000 1.0000
Mn10_2 Mn 0.5000 0.5000 1.0000
Mn5_3 Mn 0.5000 1.0000 0.0000
Mn5_4 Mn 0.5000 1.0000 1.0000
O10 O 0.91416(7) 0.9051(2) 0.00249(7)
H14_2 H 0.8015 0.8889 0.0221
C20_2 C 0.53342(10) 0.7376(4) 0.59904(10)
C21_2 C 0.54861(11) 0.7397(3) 0.65899(10)
O8_2 O 0.52493(7) 0.7492(2) 0.95822(7)
O9_2 O 0.92401(7) 0.6200(2) 0.96904(7)
N2_2 N 0.56656(8) 0.7494(3) 0.92085(8)
C22_2 C 0.66455(10) 0.7514(3) 0.90000(10)
C23_2 C 0.59342(11) 0.7501(3) 0.82861(10)
C24_2 C 0.55191(11) 0.7500(3) 0.86786(10)
H12_2 H 0.5138 0.7504 0.8578
C25_2 C 0.82402(11) 0.7042(3) 0.90422(11)
H13_2 H 0.8532 0.6627 0.8817
C26_2 C 0.57736(11) 0.7476(3) 0.76956(10)
C27_2 C 0.79317(10) 0.8377(4) 0.98819(10)
C28_2 C 0.72450(10) 0.7599(3) 0.91890(10)
C29_2 C 0.62101(10) 0.7470(3) 0.93767(10)
H15_2 H 0.6293 0.7423 0.9748
C30_2 C 0.65005(11) 0.7517(3) 0.84496(10)
H16_2 H 0.6786 0.7529 0.8187
C31_2 C 0.76848(11) 0.6999(4) 0.88588(10)
H17_2 H 0.7606 0.6563 0.8510
C32_2 C 0.89629(10) 0.7650(3) 0.97759(11)
C33_2 C 0.53081(12) 0.8460(4) 0.75054(10)
H18_2 H 0.5087 0.9139 0.7748
C34_2 C 0.83652(10) 0.7702(3) 0.95598(10)
C35_2 C 0.73769(11) 0.8297(4) 0.97053(10)
H19_2 H 0.7087 0.8712 0.9932
C36_2 C 0.51711(11) 0.8430(4) 0.69525(11)
H20_2 H 0.4864 0.9114 0.6826
C37_2 C 0.59411(12) 0.6391(4) 0.67816(11)
H21_2 H 0.6151 0.5665 0.6542
C38_2 C 0.60894(12) 0.6456(4) 0.73332(11)
H22_2 H 0.6404 0.5803 0.7456
O15_2 O 0.97507(7) 0.2492(2) 0.95822(7)
O6_2 O 0.48876(7) 0.3817(2) 0.92000(7)
O7_2 O 0.45598(7) 0.0922(2) 0.92704(7)
C20_3 C 0.46658(10) 0.2376(4) 0.90096(10)
C21_3 C 0.45139(11) 0.2397(3) 0.84101(10)
O9_3 O 0.07599(7) 0.1200(2) 0.53096(7)
O10_2 O 0.08584(7) 0.4051(2) 0.49751(7)
N2_3 N 0.43344(8) 0.2494(3) 0.57915(8)
C22_3 C 0.33545(10) 0.2514(3) 0.60000(10)
C23_3 C 0.40658(11) 0.2501(3) 0.67139(10)
C24_3 C 0.44809(11) 0.2500(3) 0.63214(10)
H12_3 H 0.4862 0.2504 0.6422
C25_3 C 0.17598(11) 0.2042(3) 0.59578(11)
H13_3 H 0.1468 0.1627 0.6183
C26_3 C 0.42264(11) 0.2476(3) 0.73044(10)
C27_3 C 0.20683(10) 0.3377(4) 0.51181(10)
H14_3 H 0.1985 0.3889 0.4779
C28_3 C 0.27550(10) 0.2599(3) 0.58110(10)
C29_3 C 0.37899(10) 0.2470(3) 0.56233(10)
H15_3 H 0.3707 0.2423 0.5252
C30_3 C 0.34995(11) 0.2517(3) 0.65504(10)
H16_3 H 0.3214 0.2529 0.6813
C31_3 C 0.23152(11) 0.1999(4) 0.61412(10)
H17_3 H 0.2394 0.1563 0.6490
C32_3 C 0.10371(10) 0.2650(3) 0.52241(11)
C33_3 C 0.46919(12) 0.3460(4) 0.74946(10)
H18_3 H 0.4913 0.4139 0.7252
C34_3 C 0.16348(10) 0.2702(3) 0.54402(10)
C35_3 C 0.26231(11) 0.3297(4) 0.52947(10)
H19_3 H 0.2913 0.3712 0.5068
C36_3 C 0.48289(11) 0.3430(4) 0.80475(11)
H20_3 H 0.5136 0.4114 0.8174
C37_3 C 0.40589(12) 0.1391(4) 0.82184(11)
H21_3 H 0.3849 0.0665 0.8458
C38_3 C 0.39106(12) 0.1456(4) 0.76668(11)
H22_3 H 0.3596 0.0803 0.7544
O12_2 O 0.01124(7) 0.6183(2) 0.42000(7)
O14_2 O 0.04402(7) 0.9078(2) 0.42704(7)
O13_2 O 0.95598(7) 0.0922(2) 0.57296(7)
O1_2 O 0.51124(7) 0.6183(2) 0.08000(7)
O2_2 O 0.54402(7) 0.9078(2) 0.07296(7)
C1_3 C 0.53342(10) 0.7624(4) 0.09904(10)
C2_3 C 0.54861(11) 0.7603(3) 0.15899(10)
O4_3 O 0.92401(7) 0.8800(2) 0.46904(7)
O5_3 O 0.91416(7) 0.5949(2) 0.50249(7)
N1_3 N 0.56656(8) 0.7506(3) 0.42085(8)
C3_3 C 0.66455(10) 0.7486(3) 0.40000(10)
C4_3 C 0.59342(11) 0.7499(3) 0.32861(10)
C5_3 C 0.55191(11) 0.7500(3) 0.36786(10)
H1_3 H 0.5138 0.7496 0.3578
C6_3 C 0.82402(11) 0.7958(3) 0.40422(11)
H2_3 H 0.8532 0.8373 0.3817
C7_3 C 0.57736(11) 0.7524(3) 0.26956(10)
C8_3 C 0.79317(10) 0.6623(4) 0.48819(10)
H3_3 H 0.8015 0.6111 0.5221
C9_3 C 0.72450(10) 0.7401(3) 0.41890(10)
C10_3 C 0.62101(10) 0.7530(3) 0.43767(10)
H4_3 H 0.6293 0.7577 0.4748
C11_3 C 0.65005(11) 0.7483(3) 0.34496(10)
H5_3 H 0.6786 0.7471 0.3187
C12_3 C 0.76848(11) 0.8001(4) 0.38588(10)
H6_3 H 0.7606 0.8437 0.3510
C13_3 C 0.89629(10) 0.7350(3) 0.47759(11)
C14_3 C 0.53081(12) 0.6540(4) 0.25054(10)
H7_3 H 0.5087 0.5861 0.2748
C15_3 C 0.83652(10) 0.7298(3) 0.45598(10)
C16_3 C 0.73769(11) 0.6703(4) 0.47053(10)
H8_3 H 0.7087 0.6288 0.4932
C17_3 C 0.51711(11) 0.6570(4) 0.19525(11)
H9_3 H 0.4864 0.5886 0.1826
C18_3 C 0.59411(12) 0.8609(4) 0.17816(11)
H10_3 H 0.6151 0.9335 0.1542
C19_3 C 0.60894(12) 0.8544(4) 0.23332(11)
H11_3 H 0.6404 0.9197 0.2456
O11_2 O 0.98876(7) 0.3817(2) 0.58000(7)
H9_4 H 0.0136 0.4114 0.6826
O5_4 O 0.58584(7) 0.4051(2) 0.00249(7)
H3_4 H 0.6985 0.3889 0.0221
C1_4 C 0.96658(10) 0.2376(4) 0.59904(10)
C2_4 C 0.95139(11) 0.2397(3) 0.65899(10)
O4_4 O 0.57599(7) 0.1200(2) 0.96904(7)
N1_4 N 0.93344(8) 0.2494(3) 0.92085(8)
C3_4 C 0.83545(10) 0.2514(3) 0.90000(10)
C4_4 C 0.90658(11) 0.2501(3) 0.82861(10)
C5_4 C 0.94809(11) 0.2500(3) 0.86786(10)
H1_4 H 0.9862 0.2504 0.8578
C6_4 C 0.67598(11) 0.2042(3) 0.90422(11)
H2_4 H 0.6468 0.1627 0.8817
C7_4 C 0.92264(11) 0.2476(3) 0.76956(10)
C8_4 C 0.70683(10) 0.3377(4) 0.98819(10)
C9_4 C 0.77550(10) 0.2599(3) 0.91890(10)
C10_4 C 0.87899(10) 0.2470(3) 0.93767(10)
H4_4 H 0.8707 0.2423 0.9748
C11_4 C 0.84995(11) 0.2517(3) 0.84496(10)
H5_4 H 0.8214 0.2529 0.8187
C12_4 C 0.73152(11) 0.1999(4) 0.88588(10)
H6_4 H 0.7394 0.1563 0.8510
C13_4 C 0.60371(10) 0.2650(3) 0.97759(11)
C14_4 C 0.96919(12) 0.3460(4) 0.75054(10)
H7_4 H 0.9913 0.4139 0.7748
C15_4 C 0.66348(10) 0.2702(3) 0.95598(10)
C16_4 C 0.76231(11) 0.3297(4) 0.97053(10)
H8_4 H 0.7913 0.3712 0.9932
C17_4 C 0.98289(11) 0.3430(4) 0.69525(11)
C18_4 C 0.90589(12) 0.1391(4) 0.67816(11)
H10_4 H 0.8849 0.0665 0.6542
C19_4 C 0.89106(12) 0.1456(4) 0.73332(11)
H11_4 H 0.8596 0.0803 0.7456
O18_2 O 0.41416(7) 0.5949(2) 0.99751(7)
C20_4 C 0.03342(10) 0.7624(4) 0.40096(10)
C21_4 C 0.04861(11) 0.7603(3) 0.34101(10)
O9_4 O 0.42401(7) 0.8800(2) 0.03096(7)
N2_4 N 0.06656(8) 0.7506(3) 0.07915(8)
C22_4 C 0.16455(10) 0.7486(3) 0.10000(10)
C23_4 C 0.09342(11) 0.7499(3) 0.17139(10)
C24_4 C 0.05191(11) 0.7500(3) 0.13214(10)
H12_4 H 0.0138 0.7496 0.1422
C25_4 C 0.32402(11) 0.7958(3) 0.09578(11)
H13_4 H 0.3532 0.8373 0.1183
C26_4 C 0.07736(11) 0.7524(3) 0.23044(10)
C27_4 C 0.29317(10) 0.6623(4) 0.01181(10)
C28_4 C 0.22450(10) 0.7401(3) 0.08110(10)
C29_4 C 0.12101(10) 0.7530(3) 0.06233(10)
H15_4 H 0.1293 0.7577 0.0252
C30_4 C 0.15005(11) 0.7483(3) 0.15504(10)
H16_4 H 0.1786 0.7471 0.1813
C31_4 C 0.26848(11) 0.8001(4) 0.11412(10)
H17_4 H 0.2606 0.8437 0.1490
C32_4 C 0.39629(10) 0.7350(3) 0.02241(11)
C33_4 C 0.03081(12) 0.6540(4) 0.24946(10)
H18_4 H 0.0087 0.5861 0.2252
C34_4 C 0.33652(10) 0.7298(3) 0.04402(10)
C35_4 C 0.23769(11) 0.6703(4) 0.02947(10)
H19_4 H 0.2087 0.6288 0.0068
C36_4 C 0.01711(11) 0.6570(4) 0.30475(11)
C37_4 C 0.09411(12) 0.8609(4) 0.32184(11)
H21_4 H 0.1151 0.9335 0.3458
C38_4 C 0.10894(12) 0.8544(4) 0.26668(11)
H22_4 H 0.1404 0.9197 0.2544
H14_4 H 0.3015 0.6111 0.9779
H20_4 H 0.9864 0.5886 0.3174
loop_
_geom_bond_atom_site_label_1
_geom_bond_atom_site_label_2
_geom_bond_site_symmetry_1
_geom_bond_site_symmetry_2
O11 Mn2 1_555 1_555
O17 Mn2 1_555 1_555
O18 Mn2 1_555 1_555
O1 C1 1_555 1_555
O2 C1 1_555 1_555
C1 C2 1_555 1_555
C2 C17 1_555 1_555
O3 N1 1_555 1_555
Mn1 O4 1_555 1_555
Mn2_2 O5 1_555 1_555
O4 C13 1_555 1_555
O5 C13 1_555 1_555
N1 C5 1_555 1_555
C3 C9 1_555 1_555
C4 C5 1_555 1_555
C5 H1 1_555 1_555
C6 H2 1_555 1_555
C7 C4 1_555 1_555
C8 H3 1_555 1_555
C9 C12 1_555 1_555
C10 N1 1_555 1_555
H4 C10 1_555 1_555
C11 C3 1_555 1_555
H5 C11 1_555 1_555
C12 C6 1_555 1_555
H6 C12 1_555 1_555
C13 C15 1_555 1_555
C14 C7 1_555 1_555
H7 C14 1_555 1_555
C15 C6 1_555 1_555
C16 C8 1_555 1_555
H8 C16 1_555 1_555
C17 C14 1_555 1_555
C18 C2 1_555 1_555
H10 C18 1_555 1_555
C19 C7 1_555 1_555
H11 C19 1_555 1_555
O6 C20 1_555 1_555
O7 C20 1_555 1_555
C20 C21 1_555 1_555
C21 C36 1_555 1_555
O8 N2 1_555 1_555
O9 Mn1 1_555 1_555
O18 C32 1_555 1_555
N2 C24 1_555 1_555
C22 C28 1_555 1_555
C23 C24 1_555 1_555
C24 H12 1_555 1_555
C25 H13 1_555 1_555
C26 C23 1_555 1_555
C27 H14 1_555 1_555
C28 C31 1_555 1_555
C29 N2 1_555 1_555
H15 C29 1_555 1_555
C30 C22 1_555 1_555
H16 C30 1_555 1_555
C31 C25 1_555 1_555
H17 C31 1_555 1_555
C32 O9 1_555 1_555
C33 C26 1_555 1_555
H18 C33 1_555 1_555
C34 C25 1_555 1_555
C35 C27 1_555 1_555
H19 C35 1_555 1_555
C36 C33 1_555 1_555
C37 C21 1_555 1_555
H21 C37 1_555 1_555
C38 C26 1_555 1_555
H22 C38 1_555 1_555
O12 Mn2_2 1_555 1_555
O13 Mn1 1_555 1_555
O14 Mn1 1_555 1_555
O15 Mn1 1_555 1_555
O17 Mn1 1_555 1_555
Mn4_2 O2 1_555 1_555
Mn4_3 O7 1_555 1_555
Mn6_2 O3 1_555 1_555
Mn6_3 O8 1_555 1_555
Mn9_4 O1 1_555 1_555
Mn9_5 O6 1_555 1_555
Mn11 O3 1_555 1_555
Mn11_2 O8 1_555 1_555
Mn2_2 O15 1_555 1_555
C3 C10 1_555 1_555
C4 C11 1_555 1_555
C8 C15 1_555 1_555
C9 C16 1_555 1_555
C18 C19 1_555 1_555
C22 C29 1_555 1_555
C23 C30 1_555 1_555
C27 C34 1_555 1_555
C28 C35 1_555 1_555
C32 C34 1_555 1_555
C37 C38 1_555 1_555
O11 C1_2 1_555 1_555
O13 C1_2 1_555 1_555
C1_2 C2_2 1_555 1_555
C2_2 C17_2 1_555 1_555
O3_2 N1_2 1_555 1_555
Mn4 O4_2 1_555 1_555
O4_2 C13_2 1_555 1_555
N1_2 C5_2 1_555 1_555
C3_2 C9_2 1_555 1_555
C4_2 C5_2 1_555 1_555
C5_2 H1_2 1_555 1_555
C6_2 H2_2 1_555 1_555
C7_2 C4_2 1_555 1_555
C9_2 C12_2 1_555 1_555
C10_2 N1_2 1_555 1_555
H4_2 C10_2 1_555 1_555
C11_2 C3_2 1_555 1_555
H5_2 C11_2 1_555 1_555
C12_2 C6_2 1_555 1_555
H6_2 C12_2 1_555 1_555
C13_2 C15_2 1_555 1_555
C14_2 C7_2 1_555 1_555
H7_2 C14_2 1_555 1_555
C15_2 C6_2 1_555 1_555
C16_2 C8_2 1_555 1_555
H8_2 C16_2 1_555 1_555
C17_2 C14_2 1_555 1_555
H9_2 C17_2 1_555 1_555
C18_2 C2_2 1_555 1_555
H10_2 C18_2 1_555 1_555
C19_2 C7_2 1_555 1_555
H11_2 C19_2 1_555 1_555
O16 Mn4 1_555 1_555
Mn5 O3_2 1_555 1_555
Mn10 O3_2 1_555 1_555
C3_2 C10_2 1_555 1_555
C4_2 C11_2 1_555 1_555
C8_2 C15_2 1_555 1_555
C9_2 C16_2 1_555 1_555
C18_2 C19_2 1_555 1_555
O16 Mn9_3 1_555 1_555
Mn9_2 O5_2 1_555 1_555
Mn9_7 O10 1_555 1_555
O12 C20_2 1_555 1_555
O14 C20_2 1_555 1_555
C20_2 C21_2 1_555 1_555
C21_2 C36_2 1_555 1_555
O8_2 N2_2 1_555 1_555
O9_2 Mn4_4 1_555 1_555
N2_2 C24_2 1_555 1_555
C22_2 C28_2 1_555 1_555
C23_2 C24_2 1_555 1_555
C24_2 H12_2 1_555 1_555
C25_2 H13_2 1_555 1_555
C26_2 C23_2 1_555 1_555
C28_2 C31_2 1_555 1_555
C29_2 N2_2 1_555 1_555
H15_2 C29_2 1_555 1_555
C30_2 C22_2 1_555 1_555
H16_2 C30_2 1_555 1_555
C31_2 C25_2 1_555 1_555
H17_2 C31_2 1_555 1_555
C32_2 O9_2 1_555 1_555
C33_2 C26_2 1_555 1_555
H18_2 C33_2 1_555 1_555
C34_2 C25_2 1_555 1_555
C35_2 C27_2 1_555 1_555
H19_2 C35_2 1_555 1_555
C36_2 C33_2 1_555 1_555
H20_2 C36_2 1_555 1_555
C37_2 C21_2 1_555 1_555
H21_2 C37_2 1_555 1_555
C38_2 C26_2 1_555 1_555
H22_2 C38_2 1_555 1_555
O15_2 Mn4_4 1_555 1_555
Mn5_4 O8_2 1_555 1_555
Mn10_2 O8_2 1_555 1_555
Mn9_6 O15_2 1_555 1_555
C22_2 C29_2 1_555 1_555
C23_2 C30_2 1_555 1_555
C27_2 C34_2 1_555 1_555
C28_2 C35_2 1_555 1_555
C32_2 C34_2 1_555 1_555
C37_2 C38_2 1_555 1_555
O6_2 C20_3 1_555 1_555
O7_2 C20_3 1_555 1_555
C20_3 C21_3 1_555 1_555
C21_3 C36_3 1_555 1_555
O17 N2_3 1_555 1_555
O9_3 Mn6 1_555 1_555
O10_2 C32_3 1_555 1_555
N2_3 C24_3 1_555 1_555
C22_3 C28_3 1_555 1_555
C23_3 C24_3 1_555 1_555
C24_3 H12_3 1_555 1_555
C25_3 H13_3 1_555 1_555
C26_3 C23_3 1_555 1_555
C27_3 H14_3 1_555 1_555
C28_3 C31_3 1_555 1_555
C29_3 N2_3 1_555 1_555
H15_3 C29_3 1_555 1_555
C30_3 C22_3 1_555 1_555
H16_3 C30_3 1_555 1_555
C31_3 C25_3 1_555 1_555
H17_3 C31_3 1_555 1_555
C32_3 O9_3 1_555 1_555
C33_3 C26_3 1_555 1_555
H18_3 C33_3 1_555 1_555
C34_3 C25_3 1_555 1_555
C35_3 C27_3 1_555 1_555
H19_3 C35_3 1_555 1_555
C36_3 C33_3 1_555 1_555
H20_3 C36_3 1_555 1_555
C37_3 C21_3 1_555 1_555
H21_3 C37_3 1_555 1_555
C38_3 C26_3 1_555 1_555
H22_3 C38_3 1_555 1_555
Mn5_2 O7_2 1_555 1_555
Mn11 O10_2 1_555 1_555
Mn10_2 O6_2 1_555 1_555
C22_3 C29_3 1_555 1_555
C23_3 C30_3 1_555 1_555
C27_3 C34_3 1_555 1_555
C28_3 C35_3 1_555 1_555
C32_3 C34_3 1_555 1_555
C37_3 C38_3 1_555 1_555
O12_2 Mn11 1_555 1_555
O14_2 Mn6_2 1_555 1_555
O13_2 Mn6_3 1_555 1_555
O1_2 C1_3 1_555 1_555
O2_2 C1_3 1_555 1_555
C1_3 C2_3 1_555 1_555
C2_3 C17_3 1_555 1_555
O15 N1_3 1_555 1_555
Mn6_4 O4_3 1_555 1_555
Mn11_2 O5_3 1_555 1_555
O4_3 C13_3 1_555 1_555
O5_3 C13_3 1_555 1_555
N1_3 C5_3 1_555 1_555
C3_3 C9_3 1_555 1_555
C4_3 C5_3 1_555 1_555
C5_3 H1_3 1_555 1_555
C6_3 H2_3 1_555 1_555
C7_3 C4_3 1_555 1_555
C8_3 H3_3 1_555 1_555
C9_3 C12_3 1_555 1_555
C10_3 N1_3 1_555 1_555
H4_3 C10_3 1_555 1_555
C11_3 C3_3 1_555 1_555
H5_3 C11_3 1_555 1_555
C12_3 C6_3 1_555 1_555
H6_3 C12_3 1_555 1_555
C13_3 C15_3 1_555 1_555
C14_3 C7_3 1_555 1_555
H7_3 C14_3 1_555 1_555
C15_3 C6_3 1_555 1_555
C16_3 C8_3 1_555 1_555
H8_3 C16_3 1_555 1_555
C17_3 C14_3 1_555 1_555
H9_3 C17_3 1_555 1_555
C18_3 C2_3 1_555 1_555
H10_3 C18_3 1_555 1_555
C19_3 C7_3 1_555 1_555
H11_3 C19_3 1_555 1_555
O11_2 Mn11_2 1_555 1_555
Mn5_3 O2_2 1_555 1_555
Mn10 O1_2 1_555 1_555
C3_3 C10_3 1_555 1_555
C4_3 C11_3 1_555 1_555
C8_3 C15_3 1_555 1_555
C9_3 C16_3 1_555 1_555
C18_3 C19_3 1_555 1_555
Mn10 O5_4 1_555 1_555
O11_2 C1_4 1_555 1_555
O13_2 C1_4 1_555 1_555
C1_4 C2_4 1_555 1_555
C2_4 C17_4 1_555 1_555
O15_2 N1_4 1_555 1_555
Mn5_2 O4_4 1_555 1_555
O4_4 C13_4 1_555 1_555
N1_4 C5_4 1_555 1_555
C3_4 C9_4 1_555 1_555
C4_4 C5_4 1_555 1_555
C5_4 H1_4 1_555 1_555
C6_4 H2_4 1_555 1_555
C7_4 C4_4 1_555 1_555
C9_4 C12_4 1_555 1_555
C10_4 N1_4 1_555 1_555
H4_4 C10_4 1_555 1_555
C11_4 C3_4 1_555 1_555
H5_4 C11_4 1_555 1_555
C12_4 C6_4 1_555 1_555
H6_4 C12_4 1_555 1_555
C13_4 C15_4 1_555 1_555
C14_4 C7_4 1_555 1_555
H7_4 C14_4 1_555 1_555
C15_4 C6_4 1_555 1_555
C16_4 C8_4 1_555 1_555
H8_4 C16_4 1_555 1_555
C17_4 C14_4 1_555 1_555
C18_4 C2_4 1_555 1_555
H10_4 C18_4 1_555 1_555
C19_4 C7_4 1_555 1_555
H11_4 C19_4 1_555 1_555
O18_2 Mn10_2 1_555 1_555
C3_4 C10_4 1_555 1_555
C4_4 C11_4 1_555 1_555
C8_4 C15_4 1_555 1_555
C9_4 C16_4 1_555 1_555
C18_4 C19_4 1_555 1_555
O12_2 C20_4 1_555 1_555
O14_2 C20_4 1_555 1_555
C20_4 C21_4 1_555 1_555
C21_4 C36_4 1_555 1_555
O16 N2_4 1_555 1_555
O9_4 Mn5_3 1_555 1_555
N2_4 C24_4 1_555 1_555
C22_4 C28_4 1_555 1_555
C23_4 C24_4 1_555 1_555
C24_4 H12_4 1_555 1_555
C25_4 H13_4 1_555 1_555
C26_4 C23_4 1_555 1_555
C28_4 C31_4 1_555 1_555
C29_4 N2_4 1_555 1_555
H15_4 C29_4 1_555 1_555
C30_4 C22_4 1_555 1_555
H16_4 C30_4 1_555 1_555
C31_4 C25_4 1_555 1_555
H17_4 C31_4 1_555 1_555
C32_4 O9_4 1_555 1_555
C33_4 C26_4 1_555 1_555
H18_4 C33_4 1_555 1_555
C34_4 C25_4 1_555 1_555
C35_4 C27_4 1_555 1_555
H19_4 C35_4 1_555 1_555
C36_4 C33_4 1_555 1_555
C37_4 C21_4 1_555 1_555
H21_4 C37_4 1_555 1_555
C38_4 C26_4 1_555 1_555
H22_4 C38_4 1_555 1_555
C22_4 C29_4 1_555 1_555
C23_4 C30_4 1_555 1_555
C27_4 C34_4 1_555 1_555
C28_4 C35_4 1_555 1_555
C32_4 C34_4 1_555 1_555
C37_4 C38_4 1_555 1_555

#END
