
###############################################################################
#
# This file contains modified crystal structure data generated from the
# MOF subset of the Cambridge Structural Database (CSD) v543 
# hosted by the Cambridge Crystallographic Data Centre (CCDC).
#
# This work is licensed under the Creative Commons
# Attribution-NonCommercial-ShareAlike 4.0 International License.
# To view a copy of this license, visit
# http://creativecommons.org/licenses/by-nc-sa/4.0/
# or send a letter to
# Creative Commons, PO Box 1866, Mountain View, CA 94042, USA.
#
# CIF created using the CSD Python API on 29 September 2022
# The structure has been converted into the P1 space group
# The structure has a 3D framework
# The original CSD entry CERMIV is in the hexagonal crystal system
# The framework has been calculated to contain at least 10.0% void space
# The void calculation uses a probe of radius 1.32A, grid spacing 0.4
# H atom positions have been added when not included in the experimental data
# Generated hydrogen atom positions removed from atoms on special positions
#
###############################################################################

data_CERMIV
_chemical_formula_moiety         '(C24 H96 O45 Pr14)n'
_symmetry_cell_setting           triclinic
_symmetry_space_group_name_H-M   'P 1'
_symmetry_Int_Tables_number      1
_space_group_name_Hall           'P 1'
loop_
_symmetry_equiv_pos_site_id
_symmetry_equiv_pos_as_xyz
1 x,y,z
_cell_length_a                   9.4003(12)
_cell_length_b                   9.4003(12)
_cell_length_c                   17.350(4)
_cell_angle_alpha                90
_cell_angle_beta                 90
_cell_angle_gamma                120
_cell_volume                     1327.74
loop_
_atom_site_label
_atom_site_type_symbol
_atom_site_fract_x
_atom_site_fract_y
_atom_site_fract_z
H17 H 0.0478388 0.54734 0.225273
H18 H 0.0264644 0.445251 0.303899
Pr1 Pr 0.6667 0.3333 0.2500
Pr2 Pr 0.0000 0.0000 0.0000
O1 O 0.2108(5) 0.1722(5) 0.0965(2)
O2 O 0.4473(5) 0.2704(5) 0.1572(2)
O3 O 0.2715(6) 0.0000 0.0000
C1 C 0.3484(5) 0.1825(14) 0.1061(2)
C2 C 0.4000(8) 0.0929(9) 0.0534(4)
H1 H 0.4985 0.1703 0.0259
H2 H 0.4246 0.0201 0.0828
O4 O 0.5625(9) 0.5502(9) 0.2500
O5 O 0.7296(5) 0.1769(7) 0.1572(2)
O6 O 0.8231(7) 0.5527(5) 0.1572(2)
O7 O 0.4473(5) 0.2704(5) 0.3428(2)
O8 O 0.7296(5) 0.1769(7) 0.3428(2)
O9 O 0.8231(7) 0.5527(5) 0.3428(2)
O10 O 0.4498(9) 0.0123(13) 0.2500
O11 O 0.9877(13) 0.4375(9) 0.2500
O17 O 0.0000 0.2715(6) 0.0000
Pr2_2 Pr 0.0000 0.0000 1.0000
O3_2 O 0.2715(6) 0.0000 1.0000
O14 O 0.1722(5) 0.2108(5) 0.9035(2)
O17_2 O 0.0000 0.2715(6) 1.0000
C6 C 0.1825(14) 0.3484(5) 0.8939(2)
C10 C 0.0929(9) 0.4000(8) 0.9466(4)
O21 O 0.2704(5) 0.4473(5) 0.8428(2)
H7 H 0.1703 0.4985 0.9741
H8 H 0.0201 0.4246 0.9172
Pr5 Pr 0.3333 0.6667 0.7500
Pr2_3 Pr -0.0000 1.0000 1.0000
O3_3 O 0.2715(6) 1.0000 1.0000
O15 O 0.0386(7) 0.8278(5) 0.9035(2)
C3 C 0.3071(12) 0.9071(9) 0.9466(4)
C7 C 0.1659(15) 0.8175(14) 0.8939(2)
H3 H 0.3282 0.8297 0.9741
H4 H 0.4045 0.9799 0.9172
O22 O 0.1769(7) 0.7296(5) 0.8428(2)
Pr2_4 Pr 1.0000 0.0000 0.0000
O12 O 0.8278(5) 0.0386(7) 0.0965(2)
O17_3 O 1.0000 0.2715(6) 0.0000
C4 C 0.8175(14) 0.1659(15) 0.1061(2)
C9 C 0.9071(9) 0.3071(12) 0.0534(4)
H5 H 0.8297 0.3282 0.0259
H6 H 0.9799 0.4045 0.0828
Pr2_5 Pr 1.0000 1.0000 0.0000
O13 O 0.9614(7) 0.7892(5) 0.0965(2)
O18 O 0.7285(6) 0.7285(6) 0.0000
C5 C 0.8341(15) 0.6516(5) 0.1061(2)
C11 C 0.6929(12) 0.6000(8) 0.0534(4)
H9 H 0.6718 0.5015 0.0259
H10 H 0.5955 0.5754 0.0828
Pr2_6 Pr 1.0000 1.0000 1.0000
O16 O 0.7892(5) 0.9614(7) 0.9035(2)
O18_2 O 0.7285(6) 0.7285(6) 1.0000
C8 C 0.6516(5) 0.8341(15) 0.8939(2)
C12 C 0.6000(8) 0.6929(12) 0.9466(4)
O23 O 0.5527(5) 0.8231(7) 0.8428(2)
H11 H 0.5015 0.6718 0.9741
H12 H 0.5754 0.5955 0.9172
H13 H 0.0333313 0.478005 0.197795
H14 H 0.0438132 0.527989 0.287924
H15 H 0.506521 0.950288 0.263031
H16 H 0.363037 0.988309 0.288832
Pr2_7 Pr 0.0000 0.0000 0.5000
O1_2 O 0.2108(5) 0.1722(5) 0.4035(2)
O3_4 O 0.2715(6) 0.0000 0.5000
C1_2 C 0.3484(5) 0.1825(14) 0.3939(2)
C2_2 C 0.4000(8) 0.0929(9) 0.4466(4)
H1_2 H 0.4985 0.1703 0.4741
H2_2 H 0.4246 0.0201 0.4172
O14_2 O 0.1722(5) 0.2108(5) 0.5965(2)
O17_4 O -0.0000 0.2715(6) 0.5000
C6_2 C 0.1825(14) 0.3484(5) 0.6061(2)
C10_2 C 0.0929(9) 0.4000(8) 0.5534(4)
O21_2 O 0.2704(5) 0.4473(5) 0.6572(2)
H7_2 H 0.1703 0.4985 0.5259
H8_2 H 0.0201 0.4246 0.5828
Pr2_8 Pr 0.0000 1.0000 0.5000
O3_5 O 0.2715(6) 1.0000 0.5000
O15_2 O 0.0386(7) 0.8278(5) 0.5965(2)
C3_2 C 0.3071(12) 0.9071(9) 0.5534(4)
C7_2 C 0.1659(15) 0.8175(14) 0.6061(2)
H3_2 H 0.3282 0.8297 0.5259
H4_2 H 0.4045 0.9799 0.5828
O22_2 O 0.1769(7) 0.7296(5) 0.6572(2)
H13_2 H 0.444674 0.966669 0.302205
H14_2 H 0.484176 0.956187 0.212076
Pr2_9 Pr 1.0000 0.0000 0.5000
O12_2 O 0.8278(5) 0.0386(7) 0.4035(2)
O17_5 O 1.0000 0.2715(6) 0.5000
C4_2 C 0.8175(14) 0.1659(15) 0.3939(2)
C9_2 C 0.9071(9) 0.3071(12) 0.4466(4)
H5_2 H 0.8297 0.3282 0.4741
H6_2 H 0.9799 0.4045 0.4172
Pr2_10 Pr 1.0000 1.0000 0.5000
O13_2 O 0.9614(7) 0.7892(5) 0.4035(2)
O16_2 O 0.7892(5) 0.9614(7) 0.5965(2)
O18_3 O 0.7285(6) 0.7285(6) 0.5000
C5_2 C 0.8341(15) 0.6516(5) 0.3939(2)
C8_2 C 0.6516(5) 0.8341(15) 0.6061(2)
C11_2 C 0.6929(12) 0.6000(8) 0.4466(4)
C12_2 C 0.6000(8) 0.6929(12) 0.5534(4)
O23_2 O 0.5527(5) 0.8231(7) 0.6572(2)
H9_2 H 0.6718 0.5015 0.4741
H10_2 H 0.5955 0.5754 0.4172
H11_2 H 0.5015 0.6718 0.5259
H12_2 H 0.5754 0.5955 0.5828
H13_3 H 0.0333313 0.478005 0.302205
H14_3 H 0.0438132 0.527989 0.212076
H15_2 H 0.506521 0.950288 0.236969
H16_2 H 0.363037 0.988309 0.211168
H15_3 H 0.0497124 0.556234 0.236969
H16_3 H 0.0116907 0.374728 0.211168
O4_2 O 0.5502(9) 0.5625(9) 0.7500
O10_2 O 0.0123(13) 0.4498(9) 0.7500
O11_2 O 0.4375(9) 0.9877(13) 0.7500
H13_4 H 0.478005 0.0333313 0.802205
H14_4 H 0.527989 0.0438132 0.712076
H15_4 H 0.950288 0.506521 0.736969
H16_4 H 0.988309 0.363037 0.711168
H13_5 H 0.966669 0.444674 0.697795
H14_5 H 0.956187 0.484176 0.787924
H13_6 H 0.478005 0.0333313 0.697795
H14_6 H 0.527989 0.0438132 0.787924
H15_5 H 0.950288 0.506521 0.763031
H16_5 H 0.988309 0.363037 0.788832
H15_6 H 0.556234 0.0497124 0.763031
H16_6 H 0.374728 0.0116907 0.788832
Pr2_11 Pr 0.0000 1.0000 0.0000
O3_6 O 0.2715(6) 1.0000 0.0000
H13_7 H 0.444674 0.966669 0.197795
H14_7 H 0.484176 0.956187 0.287924
H15_7 H 0.0497124 0.556234 0.263031
H16_7 H 0.0116907 0.374728 0.288832
Pr2_12 Pr 1.0000 0.0000 1.0000
O17_6 O 1.0000 0.2715(6) 1.0000
H13_8 H 0.966669 0.444674 0.802205
H14_8 H 0.956187 0.484176 0.712076
H15_8 H 0.556234 0.0497124 0.736969
H16_8 H 0.374728 0.0116907 0.711168
H17_2 H 0.499501 0.952161 0.225273
H18_2 H 0.418787 0.973536 0.303899
H17_3 H 0.0478388 0.54734 0.274727
H18_3 H 0.0264644 0.445251 0.196101
H17_4 H 0.499501 0.952161 0.274727
H18_4 H 0.418787 0.973536 0.196101
H17_5 H 0.54734 0.0478388 0.774727
H18_5 H 0.445251 0.0264644 0.696101
H17_6 H 0.952161 0.499501 0.774727
H18_6 H 0.973536 0.418787 0.696101
H17_7 H 0.54734 0.0478388 0.725273
H18_7 H 0.445251 0.0264644 0.803899
H17_8 H 0.952161 0.499501 0.725273
H18_8 H 0.973536 0.418787 0.803899
loop_
_geom_bond_atom_site_label_1
_geom_bond_atom_site_label_2
_geom_bond_site_symmetry_1
_geom_bond_site_symmetry_2
Pr1 O2 1_555 1_555
Pr2 O1 1_555 1_555
O1 C1 1_555 1_555
O2 C1 1_555 1_555
O3 Pr2 1_555 1_555
C1 C2 1_555 1_555
C2 O3 1_555 1_555
H1 C2 1_555 1_555
H2 C2 1_555 1_555
O4 Pr1 1_555 1_555
O5 Pr1 1_555 1_555
O6 Pr1 1_555 1_555
O7 Pr1 1_555 1_555
O8 Pr1 1_555 1_555
O9 Pr1 1_555 1_555
O10 Pr1 1_555 1_555
O11 Pr1 1_555 1_555
O17 Pr2 1_555 1_555
O3_2 Pr2_2 1_555 1_555
O14 Pr2_2 1_555 1_555
O17_2 Pr2_2 1_555 1_555
C6 O14 1_555 1_555
C10 O17_2 1_555 1_555
O21 C6 1_555 1_555
H7 C10 1_555 1_555
H8 C10 1_555 1_555
Pr5 O21 1_555 1_555
C6 C10 1_555 1_555
O3_3 Pr2_3 1_555 1_555
O15 Pr2_3 1_555 1_555
C3 O3_3 1_555 1_555
C7 O15 1_555 1_555
H3 C3 1_555 1_555
H4 C3 1_555 1_555
O22 C7 1_555 1_555
Pr5 O22 1_555 1_555
C3 C7 1_555 1_555
O12 Pr2_4 1_555 1_555
O17_3 Pr2_4 1_555 1_555
C4 O12 1_555 1_555
C9 O17_3 1_555 1_555
O5 C4 1_555 1_555
H5 C9 1_555 1_555
H6 C9 1_555 1_555
C4 C9 1_555 1_555
O13 Pr2_5 1_555 1_555
O18 Pr2_5 1_555 1_555
C5 O13 1_555 1_555
C11 O18 1_555 1_555
O6 C5 1_555 1_555
H9 C11 1_555 1_555
H10 C11 1_555 1_555
C5 C11 1_555 1_555
O16 Pr2_6 1_555 1_555
O18_2 Pr2_6 1_555 1_555
C8 O16 1_555 1_555
C12 O18_2 1_555 1_555
O23 C8 1_555 1_555
H11 C12 1_555 1_555
H12 C12 1_555 1_555
Pr5 O23 1_555 1_555
C8 C12 1_555 1_555
Pr2_7 O1_2 1_555 1_555
O1_2 C1_2 1_555 1_555
O7 C1_2 1_555 1_555
O3_4 Pr2_7 1_555 1_555
C1_2 C2_2 1_555 1_555
C2_2 O3_4 1_555 1_555
H1_2 C2_2 1_555 1_555
H2_2 C2_2 1_555 1_555
O14_2 Pr2_7 1_555 1_555
O17_4 Pr2_7 1_555 1_555
C6_2 O14_2 1_555 1_555
C10_2 O17_4 1_555 1_555
O21_2 C6_2 1_555 1_555
H7_2 C10_2 1_555 1_555
H8_2 C10_2 1_555 1_555
Pr5 O21_2 1_555 1_555
C6_2 C10_2 1_555 1_555
O3_5 Pr2_8 1_555 1_555
O15_2 Pr2_8 1_555 1_555
C3_2 O3_5 1_555 1_555
C7_2 O15_2 1_555 1_555
H3_2 C3_2 1_555 1_555
H4_2 C3_2 1_555 1_555
O22_2 C7_2 1_555 1_555
Pr5 O22_2 1_555 1_555
C3_2 C7_2 1_555 1_555
O12_2 Pr2_9 1_555 1_555
O17_5 Pr2_9 1_555 1_555
C4_2 O12_2 1_555 1_555
C9_2 O17_5 1_555 1_555
O8 C4_2 1_555 1_555
H5_2 C9_2 1_555 1_555
H6_2 C9_2 1_555 1_555
C4_2 C9_2 1_555 1_555
O13_2 Pr2_10 1_555 1_555
O16_2 Pr2_10 1_555 1_555
O18_3 Pr2_10 1_555 1_555
C5_2 O13_2 1_555 1_555
C8_2 O16_2 1_555 1_555
C11_2 O18_3 1_555 1_555
C12_2 O18_3 1_555 1_555
O9 C5_2 1_555 1_555
O23_2 C8_2 1_555 1_555
H9_2 C11_2 1_555 1_555
H10_2 C11_2 1_555 1_555
H11_2 C12_2 1_555 1_555
H12_2 C12_2 1_555 1_555
Pr5 O23_2 1_555 1_555
C5_2 C11_2 1_555 1_555
C8_2 C12_2 1_555 1_555
O4_2 Pr5 1_555 1_555
O10_2 Pr5 1_555 1_555
O11_2 Pr5 1_555 1_555
O3_6 Pr2_11 1_555 1_555
O17_6 Pr2_12 1_555 1_555

#END
