
###############################################################################
#
# This file contains modified crystal structure data generated from the
# MOF subset of the Cambridge Structural Database (CSD) v543 
# hosted by the Cambridge Crystallographic Data Centre (CCDC).
#
# This work is licensed under the Creative Commons
# Attribution-NonCommercial-ShareAlike 4.0 International License.
# To view a copy of this license, visit
# http://creativecommons.org/licenses/by-nc-sa/4.0/
# or send a letter to
# Creative Commons, PO Box 1866, Mountain View, CA 94042, USA.
#
# CIF created using the CSD Python API on 29 September 2022
# The structure has been converted into the P1 space group
# The structure has a 3D framework
# The original CSD entry CERYOQ is in the monoclinic crystal system
# The framework has been calculated to contain at least 10.0% void space
# The void calculation uses a probe of radius 1.32A, grid spacing 0.4
#
###############################################################################

data_CERYOQ
_chemical_formula_moiety         '(C136 H104 N8 O16 S8 Zn4)n'
_symmetry_cell_setting           triclinic
_symmetry_space_group_name_H-M   'P 1'
_symmetry_Int_Tables_number      1
_space_group_name_Hall           'P 1'
loop_
_symmetry_equiv_pos_site_id
_symmetry_equiv_pos_as_xyz
1 x,y,z
_cell_length_a                   13.1171(12)
_cell_length_b                   15.7256(13)
_cell_length_c                   16.4353(14)
_cell_angle_alpha                90
_cell_angle_beta                 98.137(2)
_cell_angle_gamma                90
_cell_volume                     3356.05
loop_
_atom_site_label
_atom_site_type_symbol
_atom_site_fract_x
_atom_site_fract_y
_atom_site_fract_z
H14 H 0.0060 0.1206 0.1411
C41 C 0.0487(3) 0.5020(3) 0.0065(3)
H32 H 0.0814 0.4788 0.0553
H36 H 0.2484 0.5081 0.0190
H21 H 0.4400 0.9789 0.0593
S4 S 0.21676(8) 0.05949(6) 0.03829(7)
C56 C 0.3845(3) 0.3425(2) 0.0232(3)
H43 H 0.4263 0.3883 0.0416
C57 C 0.2964(4) 0.3280(3) 0.0567(3)
H44 H 0.2786 0.3642 0.0972
C58 C 0.2336(3) 0.2596(3) 0.0305(3)
H45 H 0.1733 0.2506 0.0530
N4 N 0.2488(2) 0.60820(19) 0.8492(2)
C42 C 0.1156(3) 0.5407(2) 0.9503(3)
C43 C 0.0780(3) 0.5814(3) 0.8775(3)
H33 H 0.0075 0.5861 0.8611
C44 C 0.1471(3) 0.6152(3) 0.8295(3)
H34 H 0.1212 0.6438 0.7815
C45 C 0.2826(3) 0.5688(2) 0.9194(3)
H35 H 0.3534 0.5640 0.9346
C46 C 0.2201(3) 0.5349(2) 0.9706(3)
Zn4 Zn 0.35283(3) 0.65035(3) 0.77406(3)
N3 N 0.4021(2) 0.76278(19) 0.83256(19)
C35 C 0.3506(3) 0.8000(3) 0.8877(3)
H27 H 0.2893 0.7748 0.8974
C36 C 0.3812(3) 0.8724(3) 0.9313(3)
H28 H 0.3412 0.8953 0.9682
C37 C 0.4735(3) 0.9108(2) 0.9188(3)
C38 C 0.5262(3) 0.8755(2) 0.8616(2)
H29 H 0.5863 0.9009 0.8493
C39 C 0.4896(3) 0.8013(2) 0.8215(2)
H30 H 0.5287 0.7770 0.7846
C40 C 0.5133(3) 0.9875(3) 0.9639(3)
O5 O 0.5444(3) 0.63057(18) 0.7222(2)
O6 O 0.4588(2) 0.56660(16) 0.81007(17)
S3 S 0.48907(8) 0.41223(6) 0.87554(7)
C47 C 0.5354(3) 0.5737(2) 0.7714(3)
C48 C 0.6176(3) 0.5064(2) 0.7895(2)
C49 C 0.7102(3) 0.5201(3) 0.7599(3)
H37 H 0.7194 0.5700 0.7315
C50 C 0.7890(3) 0.4612(3) 0.7717(3)
H38 H 0.8507 0.4714 0.7516
C51 C 0.7754(3) 0.3880(3) 0.8132(3)
H39 H 0.8279 0.3479 0.8210
C52 C 0.6846(3) 0.3730(2) 0.8437(3)
H40 H 0.6766 0.3222 0.8710
C53 C 0.6048(3) 0.4317(2) 0.8348(2)
C54 C 0.5082(3) 0.3078(2) 0.9247(3)
H41 H 0.5683 0.3085 0.9665
H42 H 0.5178 0.2646 0.8843
C55 C 0.4124(3) 0.2902(2) 0.9626(2)
C59 C 0.2598(3) 0.2050(2) 0.9713(2)
C60 C 0.3499(3) 0.2209(2) 0.9377(2)
H46 H 0.3685 0.1843 0.8979
C61 C 0.1946(3) 0.1277(2) 0.9481(3)
H47 H 0.1224 0.1430 0.9357
H48 H 0.2156 0.0996 0.9006
H49 H 0.0709 0.0066 0.9015
O9 O 0.2722(3) 0.5406(2) 0.6673(2)
O11 O 0.2669(2) 0.67851(17) 0.67031(18)
S1 S 0.48907(8) 0.08777(6) 0.37554(7)
S2 S 0.21676(8) 0.44051(6) 0.53829(7)
C4 C 0.7890(3) 0.0388(3) 0.2717(3)
H2 H 0.8507 0.0286 0.2516
C5 C 0.7754(3) 0.1120(3) 0.3132(3)
H3 H 0.8279 0.1521 0.3210
C6 C 0.6846(3) 0.1270(2) 0.3437(3)
H4 H 0.6766 0.1778 0.3710
C7 C 0.6048(3) 0.0683(2) 0.3348(2)
C8 C 0.5082(3) 0.1922(2) 0.4247(3)
H5 H 0.5683 0.1915 0.4665
H6 H 0.5178 0.2354 0.3843
C9 C 0.4124(3) 0.2098(2) 0.4626(2)
C10 C 0.3845(3) 0.1575(2) 0.5232(3)
H7 H 0.4263 0.1117 0.5416
C11 C 0.2964(4) 0.1720(3) 0.5567(3)
H8 H 0.2786 0.1358 0.5972
C12 C 0.2336(3) 0.2404(3) 0.5305(3)
H9 H 0.1733 0.2494 0.5530
C13 C 0.2598(3) 0.2950(2) 0.4713(2)
C14 C 0.3499(3) 0.2791(2) 0.4377(2)
H10 H 0.3685 0.3157 0.3979
C15 C 0.1946(3) 0.3723(2) 0.4481(3)
H11 H 0.1224 0.3570 0.4357
H12 H 0.2156 0.4004 0.4006
C16 C 0.1530(3) 0.5363(2) 0.5060(2)
C17 C 0.0855(3) 0.5418(3) 0.4334(3)
H13 H 0.0709 0.4934 0.4015
C18 C 0.0394(3) 0.6180(3) 0.4077(3)
C19 C 0.0609(4) 0.6900(3) 0.4543(3)
H15 H 0.0315 0.7418 0.4365
C20 C 0.1257(3) 0.6854(3) 0.5269(3)
H16 H 0.1386 0.7343 0.5585
C21 C 0.1727(3) 0.6100(2) 0.5549(2)
C22 C 0.2422(3) 0.6081(3) 0.6356(3)
H22 H 0.0814 0.0212 0.5553
C17_2 C 0.9145(3) 0.0418(3) 0.0666(3)
C18_2 C 0.9606(3) 0.1180(3) 0.0923(3)
C19_2 C 0.9391(4) 0.1900(3) 0.0457(3)
H15_2 H 0.9685 0.2418 0.0635
O3 O 0.7278(3) 0.0406(2) 0.8327(2)
O4 O 0.7331(2) 0.17851(17) 0.82969(18)
C16_2 C 0.8470(3) 0.0363(2) 0.9940(2)
C20_2 C 0.8743(3) 0.1854(3) 0.9731(3)
H16_2 H 0.8614 0.2343 0.9415
C21_2 C 0.8273(3) 0.1100(2) 0.9451(2)
C22_2 C 0.7578(3) 0.1081(3) 0.8644(3)
Zn5 Zn 0.64717(3) 0.15035(3) 0.72594(3)
O7 O 0.2722(3) 0.9594(2) 0.1673(2)
O8 O 0.2669(2) 0.82149(17) 0.17031(18)
C62 C 0.1530(3) 0.9637(2) 0.0060(2)
C66 C 0.1257(3) 0.8146(3) 0.0269(3)
H52 H 0.1386 0.7657 0.0585
C67 C 0.1727(3) 0.8900(2) 0.0549(2)
C68 C 0.2422(3) 0.8919(3) 0.1356(3)
Zn3 Zn 0.35283(3) 0.84965(3) 0.27406(3)
H50 H 0.0060 0.3794 0.6411
O1 O 0.5444(3) 0.86943(18) 0.2222(2)
N1 N 0.4021(2) 0.73722(19) 0.33256(19)
N2 N 0.2488(2) 0.89180(19) 0.3492(2)
O2 O 0.4588(2) 0.93340(16) 0.31007(17)
C1 C 0.5354(3) 0.9263(2) 0.2714(3)
C2 C 0.6176(3) 0.9936(2) 0.2895(2)
C3 C 0.7102(3) 0.9799(3) 0.2599(3)
H1 H 0.7194 0.9300 0.2315
C23 C 0.3506(3) 0.7000(3) 0.3877(3)
H17 H 0.2893 0.7252 0.3974
C24 C 0.3812(3) 0.6276(3) 0.4313(3)
H18 H 0.3412 0.6047 0.4682
C25 C 0.4735(3) 0.5892(2) 0.4188(3)
C26 C 0.5262(3) 0.6245(2) 0.3616(2)
H19 H 0.5863 0.5991 0.3493
C27 C 0.4896(3) 0.6987(2) 0.3215(2)
H20 H 0.5287 0.7230 0.2846
C28 C 0.5133(3) 0.5125(3) 0.4639(3)
H21_2 H 0.5600 0.4789 0.4407
C29 C 0.0487(3) 0.9980(3) 0.5065(3)
C30 C 0.1156(3) 0.9593(2) 0.4503(3)
C31 C 0.0780(3) 0.9186(3) 0.3775(3)
H23 H 0.0075 0.9139 0.3611
C32 C 0.1471(3) 0.8848(3) 0.3295(3)
H24 H 0.1212 0.8562 0.2815
C33 C 0.2826(3) 0.9312(2) 0.4194(3)
H25 H 0.3534 0.9360 0.4346
C34 C 0.2201(3) 0.9651(2) 0.4706(3)
H26 H 0.2484 0.9919 0.5190
N3_2 N 0.5979(2) 0.26278(19) 0.66744(19)
C35_2 C 0.6494(3) 0.3000(3) 0.6123(3)
H27_2 H 0.7107 0.2748 0.6026
C36_2 C 0.6188(3) 0.3724(3) 0.5687(3)
H28_2 H 0.6588 0.3953 0.5318
C37_2 C 0.5265(3) 0.4108(2) 0.5812(3)
C38_2 C 0.4738(3) 0.3755(2) 0.6384(2)
H29_2 H 0.4137 0.4009 0.6507
C39_2 C 0.5104(3) 0.3013(2) 0.6785(2)
H30_2 H 0.4713 0.2770 0.7154
C40_2 C 0.4867(3) 0.4875(3) 0.5361(3)
H31 H 0.4400 0.5211 0.5593
O5_2 O 0.4556(3) 0.13057(18) 0.7778(2)
O6_2 O 0.5412(2) 0.06660(16) 0.68993(17)
C47_2 C 0.4646(3) 0.0737(2) 0.7286(3)
C48_2 C 0.3824(3) 0.0064(2) 0.7105(2)
C49_2 C 0.2898(3) 0.0201(3) 0.7401(3)
H37_2 H 0.2806 0.0700 0.7685
N5 N 0.7512(2) 0.10820(19) 0.6508(2)
H14_2 H 0.9940 0.6206 0.3589
C41_2 C 0.9513(3) 0.0020(3) 0.4935(3)
C42_2 C 0.8844(3) 0.0407(2) 0.5497(3)
C43_2 C 0.9220(3) 0.0814(3) 0.6225(3)
H33_2 H 0.9925 0.0861 0.6389
C44_2 C 0.8529(3) 0.1152(3) 0.6705(3)
H34_2 H 0.8788 0.1438 0.7185
C45_2 C 0.7174(3) 0.0688(2) 0.5806(3)
H35_2 H 0.6466 0.0640 0.5654
C46_2 C 0.7799(3) 0.0349(2) 0.5294(3)
H36_2 H 0.7516 0.0081 0.4810
O1_2 O 0.4556(3) 0.36943(18) 0.2778(2)
Zn1 Zn 0.64717(3) 0.34965(3) 0.22594(3)
N1_2 N 0.5979(2) 0.23722(19) 0.16744(19)
N2_2 N 0.7512(2) 0.39180(19) 0.1508(2)
O2_2 O 0.5412(2) 0.43340(16) 0.18993(17)
S1_2 S 0.51093(8) 0.58777(6) 0.12446(7)
C1_2 C 0.4646(3) 0.4263(2) 0.2286(3)
C2_2 C 0.3824(3) 0.4936(2) 0.2105(2)
C3_2 C 0.2898(3) 0.4799(3) 0.2401(3)
H1_2 H 0.2806 0.4300 0.2685
C4_2 C 0.2110(3) 0.5388(3) 0.2283(3)
H2_2 H 0.1493 0.5286 0.2484
C5_2 C 0.2246(3) 0.6120(3) 0.1868(3)
H3_2 H 0.1721 0.6521 0.1790
C6_2 C 0.3154(3) 0.6270(2) 0.1563(3)
H4_2 H 0.3234 0.6778 0.1290
C7_2 C 0.3952(3) 0.5683(2) 0.1652(2)
C8_2 C 0.4918(3) 0.6922(2) 0.0753(3)
H5_2 H 0.4317 0.6915 0.0335
H6_2 H 0.4822 0.7354 0.1157
C9_2 C 0.5876(3) 0.7098(2) 0.0374(2)
C13_2 C 0.7402(3) 0.7950(2) 0.0287(2)
C14_2 C 0.6501(3) 0.7791(2) 0.0623(2)
H10_2 H 0.6315 0.8157 0.1021
C15_2 C 0.8054(3) 0.8723(2) 0.0519(3)
H11_2 H 0.8776 0.8570 0.0643
H12_2 H 0.7844 0.9004 0.0994
H13_2 H 0.9291 0.9934 0.0985
C23_2 C 0.6494(3) 0.2000(3) 0.1123(3)
H17_2 H 0.7107 0.2252 0.1026
C24_2 C 0.6188(3) 0.1276(3) 0.0687(3)
H18_2 H 0.6588 0.1047 0.0318
C25_2 C 0.5265(3) 0.0892(2) 0.0812(3)
C26_2 C 0.4738(3) 0.1245(2) 0.1384(2)
H19_2 H 0.4137 0.0991 0.1507
C27_2 C 0.5104(3) 0.1987(2) 0.1785(2)
H20_2 H 0.4713 0.2230 0.2154
C28_2 C 0.4867(3) 0.0125(3) 0.0361(3)
C30_2 C 0.8844(3) 0.4593(2) 0.0497(3)
C31_2 C 0.9220(3) 0.4186(3) 0.1225(3)
H23_2 H 0.9925 0.4139 0.1389
C32_2 C 0.8529(3) 0.3848(3) 0.1705(3)
H24_2 H 0.8788 0.3562 0.2185
C33_2 C 0.7174(3) 0.4312(2) 0.0806(3)
H25_2 H 0.6466 0.4360 0.0654
C34_2 C 0.7799(3) 0.4651(2) 0.0294(3)
O10 O 0.7278(3) 0.4594(2) 0.3327(2)
O12 O 0.7331(2) 0.32149(17) 0.32969(18)
S3_2 S 0.51093(8) 0.91223(6) 0.62446(7)
S4_2 S 0.78324(8) 0.55949(6) 0.46171(7)
C50_2 C 0.2110(3) 0.9612(3) 0.7283(3)
H38_2 H 0.1493 0.9714 0.7484
C51_2 C 0.2246(3) 0.8880(3) 0.6868(3)
H39_2 H 0.1721 0.8479 0.6790
C52_2 C 0.3154(3) 0.8730(2) 0.6563(3)
H40_2 H 0.3234 0.8222 0.6290
C53_2 C 0.3952(3) 0.9317(2) 0.6652(2)
C54_2 C 0.4918(3) 0.8078(2) 0.5753(3)
H41_2 H 0.4317 0.8085 0.5335
H42_2 H 0.4822 0.7646 0.6157
C55_2 C 0.5876(3) 0.7902(2) 0.5374(2)
C56_2 C 0.6155(3) 0.8425(2) 0.4768(3)
H43_2 H 0.5737 0.8883 0.4584
C57_2 C 0.7036(4) 0.8280(3) 0.4433(3)
H44_2 H 0.7214 0.8642 0.4028
C58_2 C 0.7664(3) 0.7596(3) 0.4695(3)
H45_2 H 0.8267 0.7506 0.4470
C59_2 C 0.7402(3) 0.7050(2) 0.5287(2)
C60_2 C 0.6501(3) 0.7209(2) 0.5623(2)
H46_2 H 0.6315 0.6843 0.6021
C61_2 C 0.8054(3) 0.6277(2) 0.5519(3)
H47_2 H 0.8776 0.6430 0.5643
H48_2 H 0.7844 0.5996 0.5994
C62_2 C 0.8470(3) 0.4637(2) 0.4940(2)
C63 C 0.9145(3) 0.4582(3) 0.5666(3)
H49_2 H 0.9291 0.5066 0.5985
C64 C 0.9606(3) 0.3820(3) 0.5923(3)
C65 C 0.9391(4) 0.3100(3) 0.5457(3)
H51 H 0.9685 0.2582 0.5635
C66_2 C 0.8743(3) 0.3146(3) 0.4731(3)
H52_2 H 0.8614 0.2657 0.4415
C67_2 C 0.8273(3) 0.3900(2) 0.4451(2)
C68_2 C 0.7578(3) 0.3919(3) 0.3644(3)
H32_2 H 0.9186 0.9788 0.4447
S2_2 S 0.78324(8) 0.94051(6) 0.96171(7)
C10_2 C 0.6155(3) 0.6575(2) 0.9768(3)
H7_2 H 0.5737 0.6117 0.9584
C11_2 C 0.7036(4) 0.6720(3) 0.9433(3)
H8_2 H 0.7214 0.6358 0.9028
C12_2 C 0.7664(3) 0.7404(3) 0.9695(3)
H9_2 H 0.8267 0.7494 0.9470
C29_2 C 0.9513(3) 0.4980(3) 0.9935(3)
H22_2 H 0.9186 0.5212 0.9447
H26_2 H 0.7516 0.4919 0.9810
H31_2 H 0.5600 0.0211 0.9407
C63_2 C 0.0855(3) 0.9582(3) 0.9334(3)
C64_2 C 0.0394(3) 0.8820(3) 0.9077(3)
C65_2 C 0.0609(4) 0.8100(3) 0.9543(3)
H51_2 H 0.0315 0.7582 0.9365
H50_2 H 0.9940 0.8794 0.8589
loop_
_geom_bond_atom_site_label_1
_geom_bond_atom_site_label_2
_geom_bond_site_symmetry_1
_geom_bond_site_symmetry_2
H32 C41 1_555 1_555
H43 C56 1_555 1_555
C57 C56 1_555 1_555
H44 C57 1_555 1_555
C58 C57 1_555 1_555
H45 C58 1_555 1_555
N4 C44 1_555 1_555
C43 C42 1_555 1_555
H33 C43 1_555 1_555
C44 C43 1_555 1_555
H34 C44 1_555 1_555
C45 N4 1_555 1_555
H35 C45 1_555 1_555
C46 C42 1_555 1_555
Zn4 N4 1_555 1_555
C45 C46 1_555 1_555
N3 C35 1_555 1_555
C35 H27 1_555 1_555
C36 C35 1_555 1_555
H28 C36 1_555 1_555
C37 C36 1_555 1_555
C38 C37 1_555 1_555
H29 C38 1_555 1_555
C39 N3 1_555 1_555
H30 C39 1_555 1_555
O5 C47 1_555 1_555
Zn4 N3 1_555 1_555
O6 Zn4 1_555 1_555
S3 C53 1_555 1_555
C47 O6 1_555 1_555
C48 C47 1_555 1_555
C49 C48 1_555 1_555
H37 C49 1_555 1_555
C50 C49 1_555 1_555
H38 C50 1_555 1_555
C51 C50 1_555 1_555
H39 C51 1_555 1_555
C52 C51 1_555 1_555
H40 C52 1_555 1_555
C53 C48 1_555 1_555
C54 S3 1_555 1_555
H41 C54 1_555 1_555
H42 C54 1_555 1_555
C55 C54 1_555 1_555
C60 C55 1_555 1_555
H46 C60 1_555 1_555
C61 C59 1_555 1_555
H47 C61 1_555 1_555
H48 C61 1_555 1_555
O9 Zn4 1_555 1_555
O11 Zn4 1_555 1_555
C37 C40 1_555 1_555
C38 C39 1_555 1_555
C52 C53 1_555 1_555
C59 C60 1_555 1_555
O9 C22 1_555 1_555
O11 C22 1_555 1_555
S1 C7 1_555 1_555
S2 C15 1_555 1_555
H2 C4 1_555 1_555
C5 C4 1_555 1_555
H3 C5 1_555 1_555
C6 C5 1_555 1_555
H4 C6 1_555 1_555
C8 S1 1_555 1_555
H5 C8 1_555 1_555
H6 C8 1_555 1_555
C9 C8 1_555 1_555
C10 C9 1_555 1_555
H7 C10 1_555 1_555
C11 C10 1_555 1_555
H8 C11 1_555 1_555
C12 C11 1_555 1_555
H9 C12 1_555 1_555
C13 C12 1_555 1_555
C14 C9 1_555 1_555
H10 C14 1_555 1_555
C15 C13 1_555 1_555
H11 C15 1_555 1_555
H12 C15 1_555 1_555
C16 S2 1_555 1_555
C17 C16 1_555 1_555
H13 C17 1_555 1_555
C18 C17 1_555 1_555
C19 C18 1_555 1_555
H15 C19 1_555 1_555
C20 C19 1_555 1_555
H16 C20 1_555 1_555
C21 C16 1_555 1_555
C22 C21 1_555 1_555
C6 C7 1_555 1_555
C13 C14 1_555 1_555
C20 C21 1_555 1_555
C18_2 C17_2 1_555 1_555
C19_2 C18_2 1_555 1_555
H15_2 C19_2 1_555 1_555
O3 C22_2 1_555 1_555
O4 C22_2 1_555 1_555
H16_2 C20_2 1_555 1_555
C21_2 C16_2 1_555 1_555
C22_2 C21_2 1_555 1_555
Zn5 O3 1_555 1_555
O4 Zn5 1_555 1_555
C20_2 C21_2 1_555 1_555
O7 C68 1_555 1_555
O8 C68 1_555 1_555
H52 C66 1_555 1_555
C67 C62 1_555 1_555
C68 C67 1_555 1_555
Zn3 O7 1_555 1_555
O8 Zn3 1_555 1_555
C66 C67 1_555 1_555
O1 C1 1_555 1_555
Zn3 N1 1_555 1_555
N1 C23 1_555 1_555
N2 Zn3 1_555 1_555
O2 Zn3 1_555 1_555
C1 O2 1_555 1_555
C2 C1 1_555 1_555
C3 C2 1_555 1_555
H1 C3 1_555 1_555
C23 H17 1_555 1_555
C24 C23 1_555 1_555
H18 C24 1_555 1_555
C25 C24 1_555 1_555
C26 C25 1_555 1_555
H19 C26 1_555 1_555
C27 N1 1_555 1_555
H20 C27 1_555 1_555
C28 C25 1_555 1_555
H21_2 C28 1_555 1_555
C30 C29 1_555 1_555
C31 C30 1_555 1_555
H23 C31 1_555 1_555
C32 N2 1_555 1_555
H24 C32 1_555 1_555
C33 N2 1_555 1_555
H25 C33 1_555 1_555
C34 C30 1_555 1_555
H26 C34 1_555 1_555
N3_2 C35_2 1_555 1_555
C35_2 H27_2 1_555 1_555
C36_2 C35_2 1_555 1_555
H28_2 C36_2 1_555 1_555
C37_2 C36_2 1_555 1_555
C38_2 C37_2 1_555 1_555
H29_2 C38_2 1_555 1_555
C39_2 N3_2 1_555 1_555
H30_2 C39_2 1_555 1_555
C40_2 C28 1_555 1_555
H31 C40_2 1_555 1_555
O5_2 C47_2 1_555 1_555
Zn5 N3_2 1_555 1_555
O6_2 Zn5 1_555 1_555
C47_2 O6_2 1_555 1_555
C48_2 C47_2 1_555 1_555
C49_2 C48_2 1_555 1_555
H37_2 C49_2 1_555 1_555
N5 Zn5 1_555 1_555
C26 C27 1_555 1_555
C31 C32 1_555 1_555
C33 C34 1_555 1_555
C37_2 C40_2 1_555 1_555
C38_2 C39_2 1_555 1_555
N5 C44_2 1_555 1_555
C42_2 C41_2 1_555 1_555
C43_2 C42_2 1_555 1_555
H33_2 C43_2 1_555 1_555
C44_2 C43_2 1_555 1_555
H34_2 C44_2 1_555 1_555
C45_2 N5 1_555 1_555
H35_2 C45_2 1_555 1_555
C46_2 C42_2 1_555 1_555
H36_2 C46_2 1_555 1_555
C45_2 C46_2 1_555 1_555
O1_2 C1_2 1_555 1_555
Zn1 N1_2 1_555 1_555
N1_2 C23_2 1_555 1_555
N2_2 Zn1 1_555 1_555
O2_2 Zn1 1_555 1_555
S1_2 C7_2 1_555 1_555
C1_2 O2_2 1_555 1_555
C2_2 C1_2 1_555 1_555
C3_2 C2_2 1_555 1_555
H1_2 C3_2 1_555 1_555
C4_2 C3_2 1_555 1_555
H2_2 C4_2 1_555 1_555
C5_2 C4_2 1_555 1_555
H3_2 C5_2 1_555 1_555
C6_2 C5_2 1_555 1_555
H4_2 C6_2 1_555 1_555
C7_2 C2_2 1_555 1_555
C8_2 S1_2 1_555 1_555
H5_2 C8_2 1_555 1_555
H6_2 C8_2 1_555 1_555
C9_2 C8_2 1_555 1_555
C14_2 C9_2 1_555 1_555
H10_2 C14_2 1_555 1_555
C15_2 C13_2 1_555 1_555
H11_2 C15_2 1_555 1_555
H12_2 C15_2 1_555 1_555
C23_2 H17_2 1_555 1_555
C24_2 C23_2 1_555 1_555
H18_2 C24_2 1_555 1_555
C25_2 C24_2 1_555 1_555
C26_2 C25_2 1_555 1_555
H19_2 C26_2 1_555 1_555
C27_2 N1_2 1_555 1_555
H20_2 C27_2 1_555 1_555
C28_2 C25_2 1_555 1_555
C31_2 C30_2 1_555 1_555
H23_2 C31_2 1_555 1_555
C32_2 N2_2 1_555 1_555
H24_2 C32_2 1_555 1_555
C33_2 N2_2 1_555 1_555
H25_2 C33_2 1_555 1_555
C34_2 C30_2 1_555 1_555
O10 Zn1 1_555 1_555
O12 Zn1 1_555 1_555
C6_2 C7_2 1_555 1_555
C13_2 C14_2 1_555 1_555
C26_2 C27_2 1_555 1_555
C31_2 C32_2 1_555 1_555
C33_2 C34_2 1_555 1_555
O10 C68_2 1_555 1_555
O12 C68_2 1_555 1_555
S3_2 C53_2 1_555 1_555
S4_2 C61_2 1_555 1_555
H38_2 C50_2 1_555 1_555
C51_2 C50_2 1_555 1_555
H39_2 C51_2 1_555 1_555
C52_2 C51_2 1_555 1_555
H40_2 C52_2 1_555 1_555
C54_2 S3_2 1_555 1_555
H41_2 C54_2 1_555 1_555
H42_2 C54_2 1_555 1_555
C55_2 C54_2 1_555 1_555
C56_2 C55_2 1_555 1_555
H43_2 C56_2 1_555 1_555
C57_2 C56_2 1_555 1_555
H44_2 C57_2 1_555 1_555
C58_2 C57_2 1_555 1_555
H45_2 C58_2 1_555 1_555
C59_2 C58_2 1_555 1_555
C60_2 C55_2 1_555 1_555
H46_2 C60_2 1_555 1_555
C61_2 C59_2 1_555 1_555
H47_2 C61_2 1_555 1_555
H48_2 C61_2 1_555 1_555
C62_2 S4_2 1_555 1_555
C63 C62_2 1_555 1_555
H49_2 C63 1_555 1_555
C64 C63 1_555 1_555
C65 C64 1_555 1_555
H51 C65 1_555 1_555
C66_2 C65 1_555 1_555
H52_2 C66_2 1_555 1_555
C67_2 C62_2 1_555 1_555
C68_2 C67_2 1_555 1_555
C52_2 C53_2 1_555 1_555
C59_2 C60_2 1_555 1_555
C66_2 C67_2 1_555 1_555
H7_2 C10_2 1_555 1_555
C11_2 C10_2 1_555 1_555
H8_2 C11_2 1_555 1_555
C12_2 C11_2 1_555 1_555
H9_2 C12_2 1_555 1_555
C29_2 H22_2 1_555 1_555
C64_2 C63_2 1_555 1_555
C65_2 C64_2 1_555 1_555
H51_2 C65_2 1_555 1_555

#END
