
###############################################################################
#
# This file contains modified crystal structure data generated from the
# MOF subset of the Cambridge Structural Database (CSD) v543 
# hosted by the Cambridge Crystallographic Data Centre (CCDC).
#
# This work is licensed under the Creative Commons
# Attribution-NonCommercial-ShareAlike 4.0 International License.
# To view a copy of this license, visit
# http://creativecommons.org/licenses/by-nc-sa/4.0/
# or send a letter to
# Creative Commons, PO Box 1866, Mountain View, CA 94042, USA.
#
# CIF created using the CSD Python API on 29 September 2022
# The structure has been converted into the P1 space group
# The structure has a 3D framework
# The original CSD entry CESPAU is in the triclinic crystal system
# The framework has been calculated to contain at least 10.0% void space
# The void calculation uses a probe of radius 1.32A, grid spacing 0.4
#
###############################################################################

data_CESPAU
_chemical_formula_moiety         '(C92 H88 Cd4 N8 O24)n'
_symmetry_cell_setting           triclinic
_symmetry_space_group_name_H-M   'P 1'
_symmetry_Int_Tables_number      1
_space_group_name_Hall           'P 1'
loop_
_symmetry_equiv_pos_site_id
_symmetry_equiv_pos_as_xyz
1 x,y,z
_cell_length_a                   14.5356(14)
_cell_length_b                   15.8989(16)
_cell_length_c                   17.2554(19)
_cell_angle_alpha                112.547(4)
_cell_angle_beta                 111.545(9)
_cell_angle_gamma                95.787(8)
_cell_volume                     3287.27
loop_
_atom_site_label
_atom_site_type_symbol
_atom_site_fract_x
_atom_site_fract_y
_atom_site_fract_z
H15 H 0.225251 0.028984 0.144070
C21 C 0.3637(3) 0.0084(3) 0.1947(3)
H16 H 0.395171 0.066964 0.247568
O10 O 0.5689(2) 0.0433(2) 0.30679(18)
Cd5 Cd 0.73779(2) 0.07842(2) 0.38881(2)
C19 C 0.2125(3) 0.9017(3) 0.0488(3)
C20 C 0.2623(3) 0.9854(3) 0.1309(3)
C22 C 0.4143(3) 0.9447(3) 0.1782(3)
C23 C 0.3664(3) 0.8553(3) 0.1029(3)
H17 H 0.401818 0.809406 0.096494
C24 C 0.2704(3) 0.8346(3) 0.0397(3)
C25 C 0.5241(3) 0.9599(3) 0.2464(3)
O9 O 0.5629(2) 0.8927(2) 0.23401(18)
Cd7 Cd 0.67062(2) 0.83829(2) 0.31332(2)
H11 H 0.778210 0.008322 0.121541
O7 O 0.7633(2) 0.0425(2) 0.26786(19)
H4 H 0.983741 0.007454 0.633664
C9 C 0.8063(3) 0.0079(3) 0.5100(3)
O6 O 0.8769(2) 0.0691(2) 0.52380(17)
O19 O 0.8555(2) 0.22736(19) 0.45793(17)
O20 O 0.7180(2) 0.2214(2) 0.48329(19)
C11 C 0.8678(3) 0.8395(3) 0.0313(3)
C12 C 0.8733(3) 0.7974(3) 0.0883(3)
H9 H 0.896367 0.743567 0.079872
C13 C 0.8437(3) 0.8373(3) 0.1588(3)
H10 H 0.848221 0.810172 0.198701
C14 C 0.8085(3) 0.9142(3) 0.1711(3)
C15 C 0.8025(3) 0.9552(3) 0.1134(2)
C16 C 0.8326(3) 0.9176(3) 0.0432(3)
H12 H 0.828938 0.945612 0.004086
C17 C 0.7824(3) 0.9666(4) 0.2490(3)
O8 O 0.7923(2) 0.9232(2) 0.29706(19)
C1 C 0.9617(3) 0.7949(3) 0.8592(3)
C2 C 0.9733(3) 0.8444(3) 0.8055(3)
C3 C 0.8640(3) 0.8870(3) 0.6959(3)
C4 C 0.9449(3) 0.9350(3) 0.6941(3)
C5 C 0.9280(3) 0.9749(3) 0.6351(3)
C6 C 0.8285(3) 0.9675(3) 0.5770(3)
C7 C 0.7469(3) 0.9198(3) 0.5801(3)
H5 H 0.679716 0.915469 0.542562
C8 C 0.7649(3) 0.8784(3) 0.6390(3)
H6 H 0.709854 0.844614 0.640223
C10 C 0.9091(3) 0.8449(3) 0.9173(3)
H7 H 0.948093 0.911059 0.957747
H8 H 0.840330 0.841906 0.876966
C26 C 0.8981(3) 0.6926(3) 0.7935(3)
H19 H 0.885855 0.661279 0.828666
H20 H 0.832067 0.690136 0.749025
C27 C 0.91484(19) 0.55690(13) 0.69028(16)
C28 C 0.82260(18) 0.50218(17) 0.67388(17)
H21 H 0.785017 0.529735 0.705151
C29 C 0.78651(16) 0.40627(17) 0.61074(18)
H22 H 0.724793 0.369665 0.599768
C30 C 0.84268(19) 0.36509(13) 0.56400(16)
C31 C 0.93493(18) 0.41980(17) 0.58040(17)
H23 H 0.972503 0.392248 0.549134
C32 C 0.97101(16) 0.51571(17) 0.64354(18)
C33 C 0.8022(3) 0.2639(3) 0.4966(3)
C34 C 0.8888(3) 0.8207(3) 0.4150(3)
H25 H 0.919008 0.862511 0.399634
C35 C 0.7841(3) 0.7329(3) 0.4231(3)
C36 C 0.6991(4) 0.6782(3) 0.4165(3)
H26 H 0.633256 0.675319 0.377588
C37 C 0.7115(4) 0.6284(4) 0.4670(3)
H27 H 0.654120 0.592749 0.463769
C38 C 0.8077(4) 0.6309(3) 0.5221(3)
H28 H 0.814811 0.596181 0.555682
C39 C 0.8955(4) 0.6831(4) 0.5299(3)
H29 H 0.960926 0.683925 0.567629
C40 C 0.8810(4) 0.7354(3) 0.4776(3)
C41 C 0.4951(4) 0.8375(4) 0.3581(4)
H30 H 0.477290 0.871354 0.323844
C42 C 0.4991(4) 0.7878(4) 0.4753(4)
H31 H 0.516589 0.735959 0.437536
H32 H 0.448189 0.763600 0.490324
H33 H 0.559623 0.829225 0.532004
C43 C 0.3811(4) 0.8979(4) 0.4355(4)
H34 H 0.313727 0.855555 0.408864
H35 H 0.378996 0.936340 0.403830
H36 H 0.402391 0.938029 0.500719
C44 C 0.4975(4) 0.6584(4) 0.1215(3)
H37 H 0.452134 0.690135 0.099388
C45 C 0.3555(3) 0.5075(4) 0.0404(3)
H38 H 0.341999 0.444949 0.035649
H39 H 0.311489 0.540304 0.062530
C46 C 0.5479(4) 0.5280(4) 0.1658(3)
H41 H 0.612706 0.549322 0.166772
H42 H 0.527755 0.459961 0.138734
H43 H 0.554846 0.554321 0.228564
N1 N 0.7900(3) 0.7923(2) 0.3834(2)
N2 N 0.9469(3) 0.7866(3) 0.4718(2)
N3 N 0.4584(3) 0.8397(3) 0.4246(3)
N4 N 0.4651(3) 0.5607(3) 0.1069(3)
O1 O 0.87255(19) 0.84780(19) 0.75099(18)
O2 O 0.9042(2) 0.79919(19) 0.97037(18)
O4 O 0.95273(19) 0.64770(18) 0.74687(17)
O5 O 0.7191(2) 0.98164(19) 0.44962(18)
O13 O 0.5501(2) 0.7890(2) 0.3507(2)
O14 O 0.6059(2) 0.6988(2) 0.17310(19)
H1 H 0.018903 0.908145 0.847524
H2 H 0.002615 0.810724 0.764701
H3 H 0.011904 0.940604 0.733160
C18 C 0.0650(3) 0.7952(3) 0.9210(3)
H13 H 0.057491 0.751970 0.946866
H14 H 0.103405 0.774032 0.885006
H18 H 0.240281 0.774863 0.988355
H24 H 0.032728 0.552319 0.654517
H44 H 0.012761 0.797559 0.497398
O3 O 0.1184(2) 0.88695(18) 0.99323(18)
H40 H 0.342287 0.502969 0.979930
H40_2 H 0.657713 0.497031 0.020070
C1_2 C 0.0383(3) 0.2051(3) 0.1408(3)
C2_2 C 0.0267(3) 0.1556(3) 0.1945(3)
C3_2 C 0.1360(3) 0.1130(3) 0.3041(3)
C4_2 C 0.0551(3) 0.0650(3) 0.3059(3)
C5_2 C 0.0720(3) 0.0251(3) 0.3649(3)
C6_2 C 0.1715(3) 0.0325(3) 0.4230(3)
C7_2 C 0.2531(3) 0.0802(3) 0.4199(3)
H5_2 H 0.320284 0.084531 0.457438
C8_2 C 0.2351(3) 0.1216(3) 0.3610(3)
H6_2 H 0.290146 0.155386 0.359777
C10_2 C 0.0909(3) 0.1551(3) 0.0827(3)
H7_2 H 0.051907 0.088941 0.042253
H8_2 H 0.159670 0.158094 0.123034
C26_2 C 0.1019(3) 0.3074(3) 0.2065(3)
H19_2 H 0.114145 0.338721 0.171334
H20_2 H 0.167933 0.309864 0.250975
C27_2 C 0.08516(19) 0.44310(13) 0.30972(16)
C28_2 C 0.17740(18) 0.49782(17) 0.32612(17)
H21_2 H 0.214983 0.470265 0.294849
C29_2 C 0.21349(16) 0.59373(17) 0.38926(18)
H22_2 H 0.275207 0.630335 0.400232
C30_2 C 0.15732(19) 0.63491(13) 0.43600(16)
C31_2 C 0.06507(18) 0.58020(17) 0.41960(17)
H23_2 H 0.027497 0.607752 0.450866
C32_2 C 0.02899(16) 0.48429(17) 0.35646(18)
C33_2 C 0.1978(3) 0.7361(3) 0.5034(3)
C34_2 C 0.1112(3) 0.1793(3) 0.5850(3)
H25_2 H 0.080992 0.137489 0.600366
C35_2 C 0.2159(3) 0.2671(3) 0.5769(3)
C36_2 C 0.3009(4) 0.3218(3) 0.5835(3)
H26_2 H 0.366744 0.324681 0.622412
C37_2 C 0.2885(4) 0.3716(4) 0.5330(3)
H27_2 H 0.345880 0.407251 0.536231
C38_2 C 0.1923(4) 0.3691(3) 0.4779(3)
H28_2 H 0.185189 0.403819 0.444318
C39_2 C 0.1045(4) 0.3169(4) 0.4701(3)
H29_2 H 0.039074 0.316075 0.432371
C40_2 C 0.1190(4) 0.2646(3) 0.5224(3)
C41_2 C 0.5049(4) 0.1625(4) 0.6419(4)
H30_2 H 0.522710 0.128646 0.676156
C42_2 C 0.5009(4) 0.2122(4) 0.5247(4)
H31_2 H 0.483411 0.264041 0.562464
H32_2 H 0.551811 0.236400 0.509676
H33_2 H 0.440377 0.170775 0.467996
C43_2 C 0.6189(4) 0.1021(4) 0.5645(4)
H34_2 H 0.686273 0.144445 0.591136
H35_2 H 0.621004 0.063660 0.596170
H36_2 H 0.597609 0.061971 0.499281
C44_2 C 0.5025(4) 0.3416(4) 0.8785(3)
H37_2 H 0.547866 0.309865 0.900612
C45_2 C 0.6445(3) 0.4925(4) 0.9596(3)
H38_2 H 0.658001 0.555051 0.964351
H39_2 H 0.688511 0.459696 0.937470
C46_2 C 0.4521(4) 0.4720(4) 0.8342(3)
H41_2 H 0.387294 0.450678 0.833228
H42_2 H 0.472245 0.540039 0.861266
H43_2 H 0.445154 0.445679 0.771436
Cd2 Cd 0.32938(2) 0.16171(2) 0.68668(2)
N1_2 N 0.2100(3) 0.2077(2) 0.6166(2)
N2_2 N 0.0531(3) 0.2134(3) 0.5282(2)
N3_2 N 0.5416(3) 0.1603(3) 0.5754(3)
N4_2 N 0.5349(3) 0.4393(3) 0.8931(3)
O1_2 O 0.12745(19) 0.15220(19) 0.24901(18)
O2_2 O 0.0958(2) 0.20081(19) 0.02963(18)
O4_2 O 0.04727(19) 0.35230(18) 0.25313(17)
O5_2 O 0.2809(2) 0.01836(19) 0.55038(18)
O11 O 0.1445(2) 0.77264(19) 0.54207(17)
O12 O 0.2820(2) 0.7786(2) 0.51671(19)
O13_2 O 0.4499(2) 0.2110(2) 0.6493(2)
O14_2 O 0.3941(2) 0.3012(2) 0.82690(19)
Cd3 Cd 0.26221(2) 0.92158(2) 0.61119(2)
O16 O 0.2077(2) 0.0768(2) 0.70294(19)
O17 O 0.4371(2) 0.1073(2) 0.76599(18)
C11_2 C 0.1322(3) 0.1605(3) 0.9687(3)
C12_2 C 0.1267(3) 0.2026(3) 0.9117(3)
H9_2 H 0.103633 0.256433 0.920128
C13_2 C 0.1563(3) 0.1627(3) 0.8412(3)
H10_2 H 0.151779 0.189828 0.801299
C14_2 C 0.1915(3) 0.0858(3) 0.8289(3)
C15_2 C 0.1975(3) 0.0448(3) 0.8866(2)
C16_2 C 0.1674(3) 0.0824(3) 0.9568(3)
H12_2 H 0.171062 0.054388 0.995914
C17_2 C 0.2176(3) 0.0334(4) 0.7510(3)
H4_2 H 0.016259 0.992546 0.366336
C9_2 C 0.1937(3) 0.9921(3) 0.4900(3)
O6_2 O 0.1231(2) 0.9309(2) 0.47620(17)
O15 O 0.2367(2) 0.9575(2) 0.73214(19)
O18 O 0.4311(2) 0.9567(2) 0.69321(18)
H11_2 H 0.221790 0.991678 0.878459
C19_2 C 0.7875(3) 0.0983(3) 0.9512(3)
C20_2 C 0.7377(3) 0.0146(3) 0.8691(3)
C22_2 C 0.5857(3) 0.0553(3) 0.8218(3)
C23_2 C 0.6336(3) 0.1447(3) 0.8971(3)
H17_2 H 0.598182 0.190594 0.903506
C24_2 C 0.7296(3) 0.1654(3) 0.9603(3)
C25_2 C 0.4759(3) 0.0401(3) 0.7536(3)
H15_2 H 0.774749 0.971016 0.855930
C21_2 C 0.6363(3) 0.9916(3) 0.8053(3)
H16_2 H 0.604829 0.933036 0.752432
H1_2 H 0.981097 0.091855 0.152476
H2_2 H 0.997385 0.189276 0.235299
H3_2 H 0.988096 0.059396 0.266840
C18_2 C 0.9350(3) 0.2048(3) 0.0790(3)
H13_2 H 0.942509 0.248030 0.053134
H14_2 H 0.896595 0.225968 0.114994
H18_2 H 0.759719 0.225137 0.011645
H24_2 H 0.967272 0.447681 0.345483
H44_2 H 0.987239 0.202441 0.502602
O3_2 O 0.8816(2) 0.11305(18) 0.00677(18)
loop_
_geom_bond_atom_site_label_1
_geom_bond_atom_site_label_2
_geom_bond_site_symmetry_1
_geom_bond_site_symmetry_2
H16 C21 1_555 1_555
Cd5 O10 1_555 1_555
C19 C20 1_555 1_555
C23 C22 1_555 1_555
H17 C23 1_555 1_555
C24 C19 1_555 1_555
C25 C22 1_555 1_555
O9 C25 1_555 1_555
Cd7 O9 1_555 1_555
C23 C24 1_555 1_555
Cd5 O7 1_555 1_555
O6 C9 1_555 1_555
O19 Cd5 1_555 1_555
O20 Cd5 1_555 1_555
Cd5 O6 1_555 1_555
C11 C12 1_555 1_555
C12 H9 1_555 1_555
C13 C12 1_555 1_555
H10 C13 1_555 1_555
C14 C13 1_555 1_555
C15 C14 1_555 1_555
C16 C11 1_555 1_555
H12 C16 1_555 1_555
C17 C14 1_555 1_555
O8 C17 1_555 1_555
Cd7 O8 1_555 1_555
C15 C16 1_555 1_555
C1 C2 1_555 1_555
C3 C4 1_555 1_555
C5 C4 1_555 1_555
C6 C5 1_555 1_555
C7 C6 1_555 1_555
H5 C7 1_555 1_555
C8 C3 1_555 1_555
H6 C8 1_555 1_555
C10 C1 1_555 1_555
H7 C10 1_555 1_555
H8 C10 1_555 1_555
C26 C1 1_555 1_555
H19 C26 1_555 1_555
H20 C26 1_555 1_555
C27 C28 1_555 1_555
C28 H21 1_555 1_555
C29 C28 1_555 1_555
H22 C29 1_555 1_555
C30 C29 1_555 1_555
C31 C30 1_555 1_555
H23 C31 1_555 1_555
C32 C27 1_555 1_555
C33 C30 1_555 1_555
C34 H25 1_555 1_555
C35 C36 1_555 1_555
C36 H26 1_555 1_555
C37 C36 1_555 1_555
H27 C37 1_555 1_555
C38 C37 1_555 1_555
H28 C38 1_555 1_555
C39 C38 1_555 1_555
H29 C39 1_555 1_555
C40 C35 1_555 1_555
C41 H30 1_555 1_555
C42 H31 1_555 1_555
H32 C42 1_555 1_555
H33 C42 1_555 1_555
C43 H34 1_555 1_555
H35 C43 1_555 1_555
H36 C43 1_555 1_555
C44 H37 1_555 1_555
C45 H38 1_555 1_555
H39 C45 1_555 1_555
C46 H41 1_555 1_555
H42 C46 1_555 1_555
H43 C46 1_555 1_555
Cd7 N1 1_555 1_555
N1 C34 1_555 1_555
N2 C34 1_555 1_555
N3 C41 1_555 1_555
N4 C44 1_555 1_555
O1 C2 1_555 1_555
O2 C10 1_555 1_555
O4 C26 1_555 1_555
O19 C33 1_555 1_555
O20 C33 1_555 1_555
O13 C41 1_555 1_555
O14 C44 1_555 1_555
C3 O1 1_555 1_555
C7 C8 1_555 1_555
C27 O4 1_555 1_555
C31 C32 1_555 1_555
C35 N1 1_555 1_555
C39 C40 1_555 1_555
C40 N2 1_555 1_555
C42 N3 1_555 1_555
C43 N3 1_555 1_555
C45 N4 1_555 1_555
C46 N4 1_555 1_555
Cd7 O5 1_555 1_555
Cd7 O13 1_555 1_555
Cd7 O14 1_555 1_555
H13 C18 1_555 1_555
H14 C18 1_555 1_555
O3 C18 1_555 1_555
C1_2 C2_2 1_555 1_555
C3_2 C4_2 1_555 1_555
C5_2 C4_2 1_555 1_555
C6_2 C5_2 1_555 1_555
C7_2 C6_2 1_555 1_555
H5_2 C7_2 1_555 1_555
C8_2 C3_2 1_555 1_555
H6_2 C8_2 1_555 1_555
C10_2 C1_2 1_555 1_555
H7_2 C10_2 1_555 1_555
H8_2 C10_2 1_555 1_555
C26_2 C1_2 1_555 1_555
H19_2 C26_2 1_555 1_555
H20_2 C26_2 1_555 1_555
C27_2 C28_2 1_555 1_555
C28_2 H21_2 1_555 1_555
C29_2 C28_2 1_555 1_555
H22_2 C29_2 1_555 1_555
C30_2 C29_2 1_555 1_555
C31_2 C30_2 1_555 1_555
H23_2 C31_2 1_555 1_555
C32_2 C27_2 1_555 1_555
C33_2 C30_2 1_555 1_555
C34_2 H25_2 1_555 1_555
C35_2 C36_2 1_555 1_555
C36_2 H26_2 1_555 1_555
C37_2 C36_2 1_555 1_555
H27_2 C37_2 1_555 1_555
C38_2 C37_2 1_555 1_555
H28_2 C38_2 1_555 1_555
C39_2 C38_2 1_555 1_555
H29_2 C39_2 1_555 1_555
C40_2 C35_2 1_555 1_555
C41_2 H30_2 1_555 1_555
C42_2 H31_2 1_555 1_555
H32_2 C42_2 1_555 1_555
H33_2 C42_2 1_555 1_555
C43_2 H34_2 1_555 1_555
H35_2 C43_2 1_555 1_555
H36_2 C43_2 1_555 1_555
C44_2 H37_2 1_555 1_555
C45_2 H38_2 1_555 1_555
H39_2 C45_2 1_555 1_555
C46_2 H41_2 1_555 1_555
H42_2 C46_2 1_555 1_555
H43_2 C46_2 1_555 1_555
Cd2 N1_2 1_555 1_555
N1_2 C34_2 1_555 1_555
N2_2 C34_2 1_555 1_555
N3_2 C41_2 1_555 1_555
N4_2 C44_2 1_555 1_555
O1_2 C2_2 1_555 1_555
O2_2 C10_2 1_555 1_555
O4_2 C26_2 1_555 1_555
O11 C33_2 1_555 1_555
O12 C33_2 1_555 1_555
O13_2 C41_2 1_555 1_555
O14_2 C44_2 1_555 1_555
Cd3 O11 1_555 1_555
O17 Cd2 1_555 1_555
C3_2 O1_2 1_555 1_555
C7_2 C8_2 1_555 1_555
C27_2 O4_2 1_555 1_555
C31_2 C32_2 1_555 1_555
C35_2 N1_2 1_555 1_555
C39_2 C40_2 1_555 1_555
C40_2 N2_2 1_555 1_555
C42_2 N3_2 1_555 1_555
C43_2 N3_2 1_555 1_555
C45_2 N4_2 1_555 1_555
C46_2 N4_2 1_555 1_555
Cd2 O5_2 1_555 1_555
Cd2 O13_2 1_555 1_555
Cd2 O14_2 1_555 1_555
Cd2 O16 1_555 1_555
O12 Cd3 1_555 1_555
C11_2 C12_2 1_555 1_555
C12_2 H9_2 1_555 1_555
C13_2 C12_2 1_555 1_555
H10_2 C13_2 1_555 1_555
C14_2 C13_2 1_555 1_555
C15_2 C14_2 1_555 1_555
C16_2 C11_2 1_555 1_555
H12_2 C16_2 1_555 1_555
C17_2 C14_2 1_555 1_555
O16 C17_2 1_555 1_555
C15_2 C16_2 1_555 1_555
O6_2 C9_2 1_555 1_555
O15 Cd3 1_555 1_555
O18 Cd3 1_555 1_555
Cd3 O6_2 1_555 1_555
C19_2 C20_2 1_555 1_555
C23_2 C22_2 1_555 1_555
H17_2 C23_2 1_555 1_555
C24_2 C19_2 1_555 1_555
C25_2 C22_2 1_555 1_555
O17 C25_2 1_555 1_555
C23_2 C24_2 1_555 1_555
H16_2 C21_2 1_555 1_555
H13_2 C18_2 1_555 1_555
H14_2 C18_2 1_555 1_555
O3_2 C18_2 1_555 1_555

#END
