
###############################################################################
#
# This file contains modified crystal structure data generated from the
# MOF subset of the Cambridge Structural Database (CSD) v543 
# hosted by the Cambridge Crystallographic Data Centre (CCDC).
#
# This work is licensed under the Creative Commons
# Attribution-NonCommercial-ShareAlike 4.0 International License.
# To view a copy of this license, visit
# http://creativecommons.org/licenses/by-nc-sa/4.0/
# or send a letter to
# Creative Commons, PO Box 1866, Mountain View, CA 94042, USA.
#
# CIF created using the CSD Python API on 29 September 2022
# The structure has been converted into the P1 space group
# The structure has a 3D framework
# The original CSD entry CEVCAK is in the triclinic crystal system
# The original CSD entry CEVCAK is in a Sohncke space group
# The framework has been calculated to contain at least 10.0% void space
# The void calculation uses a probe of radius 1.32A, grid spacing 0.4
# The framework is charged, counterions have been retained in the structure
#
###############################################################################

data_CEVCAK
_chemical_formula_moiety         '(C78 H68 Co3 N12 O21 P2)n'
_symmetry_cell_setting           triclinic
_symmetry_space_group_name_H-M   'P 1'
_symmetry_Int_Tables_number      1
_space_group_name_Hall           'P 1'
loop_
_symmetry_equiv_pos_site_id
_symmetry_equiv_pos_as_xyz
1 x,y,z
_cell_length_a                   13.5630(6)
_cell_length_b                   13.5719(6)
_cell_length_c                   13.6512(6)
_cell_angle_alpha                93.0440(10)
_cell_angle_beta                 110.6830(10)
_cell_angle_gamma                108.3540(10)
_cell_volume                     2192.77
loop_
_atom_site_label
_atom_site_type_symbol
_atom_site_fract_x
_atom_site_fract_y
_atom_site_fract_z
_atom_site_U_iso_or_equiv
_atom_site_thermal_displace_type
Co3 Co 0.02560(12) 0.57731(11) 0.23651(11) 0.0548 Uani
O11 O 0.0852(5) 0.2002(5) 0.0364(5) 0.0377 Uani
O12 O 0.1571(5) 0.3769(5) 0.0683(5) 0.0459 Uani
O18 O 0.1541(6) 0.5705(6) 0.1845(6) 0.0639 Uani
H7 H 0.1692 0.6202 0.1493 0.0960 Uiso
H8 H 0.1319 0.5105 0.1436 0.0960 Uiso
O19 O 0.0924(7) 0.7445(6) 0.2497(7) 0.0859 Uani
H9 H 0.0405 0.7660 0.2114 0.1290 Uiso
H10 H 0.1611 0.7871 0.2790 0.1290 Uiso
O20 O 0.1358(6) 0.5990(5) 0.3898(5) 0.0633 Uani
H11 H 0.1793 0.6638 0.4108 0.0950 Uiso
H12 H 0.1243 0.5595 0.4370 0.0950 Uiso
C45 C 0.0802(8) 0.2903(9) 0.0233(7) 0.0346 Uani
C77 C 0.0254(9) 0.3462(9) 0.2397(8) 0.0493 Uani
H67 H 0.1035 0.3664 0.2709 0.0590 Uiso
Co5 Co 0.22169(10) 0.15684(10) 0.11359(9) 0.0287 Uani
Co2 Co 0.23484(9) 0.67015(8) 0.69395(9) 0.0303 Uani
O8 O 0.1536(5) 0.5213(5) 0.5738(5) 0.0389 Uani
O9 O 0.1466(5) 0.5202(5) 0.7309(5) 0.0370 Uani
O10 O 0.2982(6) 0.7815(5) 0.6157(6) 0.0481 Uani
O16 O 0.2661(9) 0.8012(6) 0.4519(7) 0.1135 Uani
N5 N 0.0781(6) 0.6911(6) 0.6357(6) 0.0360 Uani
N9 N 0.2987(6) 0.7822(6) 0.8346(6) 0.0390 Uani
N10 N 0.4274(6) 0.9245(6) 0.9506(6) 0.0381 Uani
C1 C 0.1203(7) 0.4725(7) 0.6392(8) 0.0331 Uani
C2 C 0.0475(7) 0.3587(6) 0.6045(7) 0.0274 Uani
C3 C 0.0166(8) 0.3066(7) 0.5026(8) 0.0422 Uani
H15 H 0.0416 0.3432 0.4552 0.0510 Uiso
C7 C 0.0100(8) 0.3029(7) 0.6736(7) 0.0367 Uani
H18 H 0.0313 0.3361 0.7431 0.0440 Uiso
C34 C 0.3112(8) 0.8355(8) 0.5496(9) 0.0447 Uani
C35 C 0.3874(7) 0.9480(7) 0.5891(7) 0.0313 Uani
C36 C 0.4228(9) 0.9952(8) 0.6957(8) 0.0441 Uani
H37 H 0.3995 0.9550 0.7419 0.0530 Uiso
H40 H 0.4006 0.9813 0.4516 0.0550 Uiso
H49 H 0.0029 0.6146 0.7234 0.0530 Uiso
C57 C 0.0387(9) 0.7441(9) 0.5576(8) 0.0542 Uani
H51 H 0.0770 0.7771 0.5168 0.0650 Uiso
C67 C 0.4062(8) 0.8335(7) 0.8878(7) 0.0394 Uani
H59 H 0.4622 0.8101 0.8832 0.0470 Uiso
C68 C 0.3223(9) 0.9278(8) 0.9348(8) 0.0539 Uani
H60 H 0.3079 0.9806 0.9672 0.0650 Uiso
C69 C 0.2460(9) 0.8427(8) 0.8657(8) 0.0529 Uani
H61 H 0.1683 0.8259 0.8414 0.0630 Uiso
H62 H 0.6262 0.9272 0.9822 0.1450 Uiso
N14 N 0.3813(6) 0.6335(6) 0.7360(6) 0.0366 Uani
C23 C 0.3835(9) 0.2676(8) 0.0012(7) 0.0483 Uani
H29 H 0.4411 0.3087 0.0645 0.0580 Uiso
P1 P 0.81625(19) 0.01011(18) 0.49022(18) 0.0322 Uani
O1 O 0.3576(5) 0.1112(5) 0.1879(5) 0.0417 Uani
O2 O 0.3164(5) 0.3149(5) 0.2062(5) 0.0372 Uani
H1 H 0.3824 0.3269 0.2089 0.0560 Uiso
H2 H 0.2712 0.3448 0.1809 0.0560 Uiso
N1 N 0.1608(6) 0.1135(6) 0.2325(5) 0.0334 Uani
N2 N 0.1567(6) 0.1055(6) 0.3923(6) 0.0346 Uani
N3 N 0.2871(6) 0.2007(6) 0.8338(6) 0.0379 Uani
N4 N 0.2833(6) 0.1982(6) 0.9937(5) 0.0360 Uani
N6 N 0.9083(6) 0.6820(6) 0.6203(6) 0.0411 Uani
N7 N 0.5316(6) 0.6139(5) 0.7254(6) 0.0330 Uani
C4 C 0.9495(8) 0.2017(7) 0.4701(8) 0.0428 Uani
H16 H 0.9310 0.1676 0.4016 0.0520 Uiso
C5 C 0.9094(7) 0.1463(7) 0.5387(7) 0.0304 Uani
C6 C 0.9414(8) 0.1984(7) 0.6405(7) 0.0361 Uani
H17 H 0.9161 0.1620 0.6879 0.0430 Uiso
C8 C 0.6818(7) 0.0150(7) 0.4077(7) 0.0326 Uani
C9 C 0.6650(8) 0.1095(8) 0.3930(8) 0.0422 Uani
H19 H 0.7244 0.1731 0.4270 0.0500 Uiso
C10 C 0.5610(8) 0.1102(8) 0.3283(8) 0.0433 Uani
H20 H 0.5509 0.1744 0.3208 0.0520 Uiso
C11 C 0.4721(7) 0.0180(7) 0.2748(7) 0.0310 Uani
C12 C 0.3596(9) 0.0216(9) 0.2033(8) 0.0406 Uani
C13 C 0.2138(8) 0.1541(8) 0.3354(7) 0.0361 Uani
H21 H 0.2827 0.2099 0.3648 0.0440 Uiso
C14 C 0.0585(9) 0.0288(8) 0.3210(8) 0.0437 Uani
C15 C 0.0622(8) 0.0344(8) 0.2244(7) 0.0436 Uani
C16 C 0.1892(7) 0.1301(7) 0.5043(7) 0.0304 Uani
C17 C 0.1590(8) 0.0510(7) 0.5586(7) 0.0361 Uani
C18 C 0.1926(8) 0.0735(8) 0.6687(7) 0.0375 Uani
H25 H 0.1748 0.0200 0.7063 0.0450 Uiso
C19 C 0.2525(8) 0.1766(8) 0.7206(7) 0.0352 Uani
C20 C 0.2831(8) 0.2548(8) 0.6668(8) 0.0434 Uani
H26 H 0.3257 0.3237 0.7033 0.0520 Uiso
C21 C 0.2509(8) 0.2314(8) 0.5581(7) 0.0392 Uani
H27 H 0.2713 0.2847 0.5213 0.0470 Uiso
C22 C 0.2261(8) 0.1592(8) 0.8909(7) 0.0380 Uani
H28 H 0.1532 0.1095 0.8618 0.0460 Uiso
C24 C 0.3886(8) 0.2691(9) 0.9043(8) 0.0523 Uani
H30 H 0.4491 0.3088 0.8889 0.0620 Uiso
C55 C 0.9984(7) 0.6549(7) 0.6701(8) 0.0438 Uani
C56 C 0.9351(9) 0.7412(10) 0.5485(9) 0.0611 Uani
H50 H 0.8908 0.7731 0.5028 0.0740 Uiso
C58 C 0.8097(8) 0.6606(7) 0.6441(8) 0.0372 Uani
C59 C 0.8161(8) 0.6391(7) 0.7434(8) 0.0421 Uani
H52 H 0.8826 0.6360 0.7925 0.0500 Uiso
C60 C 0.7240(8) 0.6224(7) 0.7695(8) 0.0438 Uani
H53 H 0.7272 0.6066 0.8358 0.0530 Uiso
C61 C 0.6261(7) 0.6294(7) 0.6963(8) 0.0364 Uani
C62 C 0.6200(8) 0.6496(7) 0.5972(8) 0.0405 Uani
H54 H 0.5532 0.6514 0.5474 0.0480 Uiso
C63 C 0.7129(7) 0.6670(7) 0.5717(7) 0.0419 Uani
H55 H 0.7099 0.6832 0.5056 0.0500 Uiso
C64 C 0.4557(7) 0.6612(7) 0.6935(7) 0.0364 Uani
H56 H 0.4562 0.7083 0.6465 0.0440 Uiso
C65 C 0.4108(8) 0.5639(8) 0.7990(8) 0.0474 Uani
H57 H 0.3734 0.5311 0.8406 0.0570 Uiso
C66 C 0.5014(8) 0.5504(8) 0.7917(9) 0.0537 Uani
H58 H 0.5371 0.5060 0.8254 0.0640 Uiso
H43 H 0.0086 0.4481 0.9644 0.0500 Uiso
O17 O 0.9204(7) 0.5735(7) 0.0821(6) 0.0877 Uani
H5 H 0.8903 0.6237 0.0731 0.1320 Uiso
H6 H 0.9546 0.5894 0.0429 0.1320 Uiso
O21 O 0.8973(7) 0.5925(6) 0.2839(8) 0.0960 Uani
H13 H 0.8927 0.6563 0.2933 0.1440 Uiso
H14 H 0.8424 0.5434 0.2904 0.1440 Uiso
N11 N 0.8469(7) 0.2506(6) 0.1656(6) 0.0443 Uani
N12 N 0.9669(7) 0.4153(6) 0.2243(7) 0.0478 Uani
C70 C 0.5336(8) 0.0054(7) 0.0093(7) 0.0368 Uani
C72 C 0.7341(11) 0.0739(10) 0.0680(14) 0.1100 Uani
H63 H 0.8001 0.0644 0.0715 0.1320 Uiso
C73 C 0.7395(9) 0.1654(8) 0.1138(9) 0.0430 Uani
C74 C 0.6434(10) 0.1781(9) 0.1046(11) 0.0782 Uani
H64 H 0.6458 0.2426 0.1339 0.0940 Uiso
C75 C 0.5418(10) 0.0988(9) 0.0533(11) 0.0769 Uani
H65 H 0.4764 0.1103 0.0490 0.0920 Uiso
C76 C 0.8602(9) 0.3541(8) 0.1790(10) 0.0607 Uani
H66 H 0.8008 0.3789 0.1585 0.0730 Uiso
C78 C 0.9530(8) 0.2463(8) 0.2031(8) 0.0464 Uani
H68 H 0.9713 0.1858 0.2032 0.0560 Uiso
P2 P 0.62507(18) 0.29367(17) 0.72216(17) 0.0288 Uani
O13 O 0.5435(6) 0.4453(6) 0.2464(5) 0.0528 Uani
O14 O 0.7140(7) 0.4376(6) 0.2840(6) 0.0681 Uani
O15 O 0.5836(5) 0.3511(5) 0.7851(4) 0.0363 Uani
C37 C 0.4903(8) 0.0981(7) 0.7325(8) 0.0407 Uani
H38 H 0.5104 0.1281 0.8028 0.0490 Uiso
C38 C 0.5299(7) 0.1592(7) 0.6664(7) 0.0272 Uani
C39 C 0.4970(8) 0.1144(7) 0.5622(7) 0.0402 Uani
H39 H 0.5235 0.1542 0.5173 0.0490 Uiso
C40 C 0.4245(9) 0.0098(8) 0.5231(8) 0.0460 Uani
C41 C 0.7606(7) 0.2888(7) 0.8042(7) 0.0295 Uani
C42 C 0.7793(8) 0.1942(7) 0.8194(8) 0.0414 Uani
H41 H 0.7230 0.1300 0.7815 0.0500 Uiso
C43 C 0.8819(8) 0.1969(7) 0.8912(8) 0.0399 Uani
H42 H 0.8932 0.1338 0.9031 0.0480 Uiso
C44 C 0.9681(7) 0.2911(7) 0.9457(7) 0.0320 Uani
C46 C 0.9508(8) 0.3840(8) 0.9288(8) 0.0413 Uani
C47 C 0.8469(8) 0.3822(7) 0.8583(8) 0.0405 Uani
H44 H 0.8356 0.4456 0.8477 0.0490 Uiso
C48 C 0.6401(7) 0.3497(6) 0.6090(7) 0.0278 Uani
C49 C 0.5509(8) 0.3759(7) 0.5435(7) 0.0355 Uani
H45 H 0.4925 0.3746 0.5647 0.0430 Uiso
C50 C 0.5486(8) 0.4041(7) 0.4460(7) 0.0362 Uani
H46 H 0.4883 0.4208 0.4019 0.0430 Uiso
C51 C 0.6360(8) 0.4073(6) 0.4154(7) 0.0313 Uani
C52 C 0.6316(9) 0.4324(7) 0.3065(8) 0.0422 Uani
C53 C 0.7265(8) 0.3857(7) 0.4833(8) 0.0401 Uani
H47 H 0.7874 0.3914 0.4645 0.0480 Uiso
C54 C 0.7278(8) 0.3559(7) 0.5782(8) 0.0364 Uani
H48 H 0.7886 0.3398 0.6221 0.0440 Uiso
C71 C 0.6294(11) 0.9910(10) 0.0140(15) 0.1208 Uani
O3 O 0.1247(5) 0.9980(5) 0.0198(5) 0.0422 Uani
H4 H 0.1541 0.9591 0.0512 0.0630 Uiso
O4 O 0.2766(6) 0.9364(6) 0.1651(6) 0.0599 Uani
O5 O 0.7102(7) 0.8287(6) 0.9103(6) 0.0613 Uani
O6 O 0.8963(7) 0.8786(7) 0.9742(6) 0.0805 Uani
O7 O 0.8590(5) 0.9467(5) 0.4334(5) 0.0437 Uani
H22 H 0.0014 0.9827 0.3368 0.0530 Uiso
H23 H 0.0067 0.9914 0.1610 0.0520 Uiso
H24 H 0.1160 0.9823 0.5217 0.0430 Uiso
C25 C 0.4888(8) 0.9245(8) 0.2897(9) 0.0557 Uani
H31 H 0.4291 0.8613 0.2550 0.0660 Uiso
C26 C 0.5922(9) 0.9216(8) 0.3551(9) 0.0535 Uani
H32 H 0.6014 0.8571 0.3637 0.0640 Uiso
C27 C 0.8019(7) 0.9620(6) 0.6064(7) 0.0315 Uani
C28 C 0.7095(8) 0.9471(7) 0.6321(8) 0.0396 Uani
H33 H 0.6467 0.9585 0.5855 0.0480 Uiso
C29 C 0.7093(9) 0.9151(7) 0.7272(8) 0.0452 Uani
H34 H 0.6456 0.9039 0.7428 0.0540 Uiso
C30 C 0.8017(8) 0.8999(7) 0.7983(8) 0.0393 Uani
C31 C 0.8018(11) 0.8661(8) 0.9026(8) 0.0490 Uani
C32 C 0.8939(8) 0.9135(7) 0.7725(7) 0.0406 Uani
H35 H 0.9565 0.9023 0.8197 0.0490 Uiso
C33 C 0.8950(8) 0.9435(7) 0.6779(7) 0.0392 Uani
H36 H 0.9577 0.9515 0.6615 0.0470 Uiso
H3 H 0.0534 0.9701 0.9896 0.0630 Uiso
loop_
_atom_site_aniso_label
_atom_site_aniso_U_11
_atom_site_aniso_U_22
_atom_site_aniso_U_33
_atom_site_aniso_U_23
_atom_site_aniso_U_13
_atom_site_aniso_U_12
Co3 0.049 0.0462 0.05 0.0048 0.0075 0.0063
O11 0.035 0.043 0.036 0.012 0.009 0.02
O12 0.026 0.04 0.055 0.014 0.001 0.006
O18 0.066 0.063 0.055 0.012 0.026 0.01
O19 0.071 0.059 0.094 0.019 0.002 0.013
O20 0.07 0.045 0.045 0.008 0.01 -0.004
C45 0.034 0.051 0.023 0.01 0.012 0.019
C77 0.044 0.063 0.039 0.012 0.019 0.013
Co5 0.0306 0.0419 0.0189 0.0099 0.0101 0.0188
Co2 0.0251 0.0278 0.0403 0.0068 0.0164 0.0082
O8 0.04 0.031 0.041 0.012 0.02 0.001
O9 0.039 0.034 0.036 0.006 0.017 0.008
O10 0.052 0.035 0.064 0.019 0.033 0.011
O16 0.158 0.053 0.042 -0.005 0.015 -0.046
N5 0.026 0.034 0.05 0.012 0.018 0.009
N9 0.042 0.034 0.039 0.005 0.015 0.012
N10 0.042 0.04 0.035 0.005 0.018 0.015
C1 0.023 0.035 0.041 0.012 0.009 0.013
C2 0.026 0.026 0.032 0.004 0.013 0.01
C3 0.046 0.031 0.05 0.015 0.024 0.007
C7 0.042 0.036 0.027 0.004 0.013 0.008
C34 0.042 0.036 0.042 0.011 0.013 -0.001
C35 0.025 0.034 0.035 0.008 0.013 0.009
C36 0.054 0.044 0.043 0.023 0.029 0.015
C57 0.05 0.072 0.06 0.031 0.032 0.032
C67 0.038 0.036 0.044 0.002 0.015 0.015
C68 0.051 0.055 0.055 -0.011 0.029 0.012
C69 0.043 0.064 0.06 0.005 0.028 0.022
N14 0.03 0.034 0.05 0.007 0.019 0.013
C23 0.041 0.064 0.023 -0.004 0.008 0.004
P1 0.0298 0.028 0.0332 0.0063 0.0069 0.0093
O1 0.038 0.051 0.041 0.022 0.011 0.025
O2 0.038 0.047 0.028 0.007 0.011 0.019
N1 0.033 0.046 0.022 0.007 0.01 0.016
N2 0.041 0.042 0.025 0.008 0.019 0.013
N3 0.032 0.056 0.018 0.007 0.006 0.01
N4 0.037 0.052 0.019 0.008 0.009 0.018
N6 0.034 0.043 0.054 0.012 0.021 0.019
N7 0.025 0.032 0.046 0.006 0.016 0.013
C4 0.053 0.038 0.03 0.001 0.015 0.009
C5 0.023 0.028 0.027 0.005 0 0.003
C6 0.04 0.031 0.033 0.011 0.018 0.002
C8 0.034 0.027 0.034 0.012 0.011 0.009
C9 0.036 0.033 0.046 0 0.004 0.012
C10 0.049 0.041 0.043 0.008 0.011 0.028
C11 0.036 0.037 0.024 0.007 0.009 0.021
C12 0.042 0.055 0.032 0.009 0.014 0.027
C13 0.033 0.048 0.028 0.011 0.016 0.01
C14 0.049 0.04 0.036 0.007 0.021 0.003
C15 0.04 0.055 0.026 0.002 0.013 0.005
C16 0.031 0.041 0.021 0.007 0.011 0.014
C17 0.041 0.038 0.025 0.005 0.011 0.011
C18 0.041 0.044 0.033 0.021 0.019 0.015
C19 0.031 0.048 0.026 0.006 0.014 0.01
C20 0.044 0.054 0.03 0.005 0.017 0.012
C21 0.043 0.046 0.027 0.013 0.017 0.009
C22 0.03 0.049 0.031 0.01 0.016 0.004
C24 0.037 0.077 0.035 0.007 0.019 0.005
C55 0.028 0.047 0.06 0.023 0.017 0.016
C56 0.056 0.093 0.069 0.047 0.038 0.051
C58 0.028 0.031 0.054 0.002 0.018 0.011
C59 0.032 0.04 0.056 0.02 0.012 0.019
C60 0.046 0.038 0.06 0.02 0.031 0.018
C61 0.025 0.03 0.056 0.007 0.017 0.011
C62 0.027 0.054 0.044 0.002 0.013 0.021
C63 0.033 0.051 0.044 0.005 0.013 0.021
C64 0.026 0.036 0.055 0.018 0.02 0.015
C65 0.04 0.05 0.068 0.031 0.031 0.022
C66 0.046 0.051 0.075 0.027 0.027 0.025
O17 0.072 0.089 0.069 0.007 0.002 0.016
O21 0.079 0.062 0.145 0.002 0.058 0.009
N11 0.05 0.038 0.042 0.008 0.018 0.012
N12 0.039 0.04 0.055 0.001 0.016 0.006
C70 0.041 0.037 0.028 0.002 0.01 0.013
C72 0.047 0.064 0.18 -0.028 0.006 0.021
C73 0.053 0.026 0.047 0 0.019 0.012
C74 0.064 0.04 0.125 -0.02 0.042 0.011
C75 0.048 0.048 0.132 -0.013 0.039 0.014
C76 0.045 0.031 0.097 0.006 0.024 0.007
C78 0.046 0.052 0.048 0.007 0.017 0.028
P2 0.0268 0.0275 0.0272 0.0044 0.0045 0.0103
O13 0.061 0.064 0.036 0.025 0.019 0.023
O14 0.065 0.096 0.073 0.033 0.05 0.038
O15 0.038 0.038 0.03 -0.001 0.007 0.018
C37 0.051 0.032 0.036 0.003 0.018 0.01
C38 0.023 0.03 0.028 0.007 0.005 0.014
C39 0.058 0.031 0.034 0.009 0.028 0.007
C40 0.062 0.044 0.027 0.004 0.025 0.004
C41 0.027 0.034 0.026 0.006 0.006 0.014
C42 0.032 0.026 0.046 -0.002 -0.001 0.004
C43 0.036 0.028 0.051 0.011 0.007 0.016
C44 0.033 0.038 0.026 0.011 0.009 0.016
C46 0.03 0.032 0.044 0.004 -0.002 0.007
C47 0.037 0.023 0.046 0.012 0.001 0.007
C48 0.023 0.023 0.029 0 0.004 0.005
C49 0.034 0.037 0.036 0.01 0.009 0.018
C50 0.033 0.04 0.033 0.01 0.006 0.017
C51 0.038 0.022 0.032 0.007 0.01 0.012
C52 0.052 0.037 0.041 0.014 0.02 0.017
C53 0.042 0.041 0.048 0.016 0.026 0.018
C54 0.033 0.037 0.039 0.006 0.009 0.018
C71 0.054 0.054 0.205 -0.05 0.005 0.019
O3 0.04 0.054 0.03 0.009 0.006 0.022
O4 0.045 0.051 0.072 0.007 0.005 0.023
O5 0.076 0.073 0.053 0.026 0.04 0.031
O6 0.059 0.112 0.036 0.02 0.006 -0.001
O7 0.048 0.041 0.044 0.005 0.016 0.021
C25 0.036 0.044 0.063 -0.001 -0.002 0.009
C26 0.042 0.032 0.064 0.003 -0.004 0.013
C27 0.031 0.017 0.042 0.01 0.01 0.007
C28 0.036 0.041 0.039 0.016 0.009 0.015
C29 0.043 0.033 0.06 0.013 0.023 0.01
C30 0.035 0.033 0.035 0.002 0.008 0
C31 0.064 0.039 0.037 0.005 0.022 0.007
C32 0.042 0.041 0.033 0.013 0.006 0.016
C33 0.033 0.041 0.036 0.01 0.008 0.009
loop_
_geom_bond_atom_site_label_1
_geom_bond_atom_site_label_2
_geom_bond_site_symmetry_1
_geom_bond_site_symmetry_2
O11 C45 1_555 1_555
O12 C45 1_555 1_555
O18 Co3 1_555 1_555
H7 O18 1_555 1_555
H8 O18 1_555 1_555
O19 Co3 1_555 1_555
H9 O19 1_555 1_555
H10 O19 1_555 1_555
O20 Co3 1_555 1_555
H11 O20 1_555 1_555
H12 O20 1_555 1_555
H67 C77 1_555 1_555
Co5 O11 1_555 1_555
Co2 O8 1_555 1_555
O8 C1 1_555 1_555
O9 Co2 1_555 1_555
O10 Co2 1_555 1_555
O16 C34 1_555 1_555
N5 Co2 1_555 1_555
N9 Co2 1_555 1_555
N10 C67 1_555 1_555
C1 O9 1_555 1_555
C2 C1 1_555 1_555
C3 C2 1_555 1_555
H15 C3 1_555 1_555
C7 C2 1_555 1_555
H18 C7 1_555 1_555
C34 O10 1_555 1_555
C35 C34 1_555 1_555
C36 C35 1_555 1_555
H37 C36 1_555 1_555
C57 N5 1_555 1_555
H51 C57 1_555 1_555
C67 N9 1_555 1_555
H59 C67 1_555 1_555
C68 N10 1_555 1_555
H60 C68 1_555 1_555
C69 N9 1_555 1_555
H61 C69 1_555 1_555
N14 Co2 1_555 1_555
C68 C69 1_555 1_555
H29 C23 1_555 1_555
Co5 O1 1_555 1_555
O1 C12 1_555 1_555
O2 Co5 1_555 1_555
H1 O2 1_555 1_555
H2 O2 1_555 1_555
N1 Co5 1_555 1_555
N2 C13 1_555 1_555
N3 C19 1_555 1_555
N4 C22 1_555 1_555
N6 C55 1_555 1_555
N7 C61 1_555 1_555
N14 C64 1_555 1_555
H16 C4 1_555 1_555
C5 P1 1_555 1_555
C6 C5 1_555 1_555
H17 C6 1_555 1_555
C8 P1 1_555 1_555
C9 C8 1_555 1_555
H19 C9 1_555 1_555
C10 C9 1_555 1_555
H20 C10 1_555 1_555
C11 C10 1_555 1_555
C12 C11 1_555 1_555
C13 N1 1_555 1_555
H21 C13 1_555 1_555
C14 N2 1_555 1_555
C15 N1 1_555 1_555
C16 N2 1_555 1_555
C17 C16 1_555 1_555
C18 C17 1_555 1_555
H25 C18 1_555 1_555
C19 C18 1_555 1_555
C20 C19 1_555 1_555
H26 C20 1_555 1_555
C21 C16 1_555 1_555
H27 C21 1_555 1_555
C22 N3 1_555 1_555
H28 C22 1_555 1_555
C24 N3 1_555 1_555
H30 C24 1_555 1_555
C56 N6 1_555 1_555
H50 C56 1_555 1_555
C58 N6 1_555 1_555
C59 C58 1_555 1_555
H52 C59 1_555 1_555
C60 C59 1_555 1_555
H53 C60 1_555 1_555
C61 C60 1_555 1_555
C62 C61 1_555 1_555
H54 C62 1_555 1_555
C63 C58 1_555 1_555
H55 C63 1_555 1_555
C64 N7 1_555 1_555
H56 C64 1_555 1_555
C65 N14 1_555 1_555
H57 C65 1_555 1_555
C66 N7 1_555 1_555
H58 C66 1_555 1_555
C4 C5 1_555 1_555
C14 C15 1_555 1_555
C20 C21 1_555 1_555
C62 C63 1_555 1_555
C65 C66 1_555 1_555
O17 H5 1_555 1_555
H6 O17 1_555 1_555
H13 O21 1_555 1_555
H14 O21 1_555 1_555
N11 C73 1_555 1_555
H63 C72 1_555 1_555
C73 C72 1_555 1_555
C74 C73 1_555 1_555
H64 C74 1_555 1_555
C75 C70 1_555 1_555
H65 C75 1_555 1_555
C76 N11 1_555 1_555
H66 C76 1_555 1_555
C78 N11 1_555 1_555
H68 C78 1_555 1_555
N12 C76 1_555 1_555
C74 C75 1_555 1_555
P2 O15 1_555 1_555
O13 C52 1_555 1_555
O14 C52 1_555 1_555
H38 C37 1_555 1_555
C38 P2 1_555 1_555
C39 C38 1_555 1_555
H39 C39 1_555 1_555
C41 P2 1_555 1_555
C42 C41 1_555 1_555
H41 C42 1_555 1_555
C43 C42 1_555 1_555
H42 C43 1_555 1_555
C44 C43 1_555 1_555
C46 C44 1_555 1_555
C47 C41 1_555 1_555
H44 C47 1_555 1_555
C48 P2 1_555 1_555
C49 C48 1_555 1_555
H45 C49 1_555 1_555
C50 C49 1_555 1_555
H46 C50 1_555 1_555
C51 C50 1_555 1_555
C52 C51 1_555 1_555
C53 C51 1_555 1_555
H47 C53 1_555 1_555
C54 C48 1_555 1_555
H48 C54 1_555 1_555
C37 C38 1_555 1_555
C39 C40 1_555 1_555
C46 C47 1_555 1_555
C53 C54 1_555 1_555
H4 O3 1_555 1_555
O5 C31 1_555 1_555
O6 C31 1_555 1_555
H31 C25 1_555 1_555
H32 C26 1_555 1_555
C28 C27 1_555 1_555
H33 C28 1_555 1_555
C29 C28 1_555 1_555
H34 C29 1_555 1_555
C30 C29 1_555 1_555
C31 C30 1_555 1_555
C32 C30 1_555 1_555
H35 C32 1_555 1_555
C33 C27 1_555 1_555
H36 C33 1_555 1_555
C25 C26 1_555 1_555
C32 C33 1_555 1_555

#END
