
###############################################################################
#
# This file contains modified crystal structure data generated from the
# MOF subset of the Cambridge Structural Database (CSD) v543 
# hosted by the Cambridge Crystallographic Data Centre (CCDC).
#
# This work is licensed under the Creative Commons
# Attribution-NonCommercial-ShareAlike 4.0 International License.
# To view a copy of this license, visit
# http://creativecommons.org/licenses/by-nc-sa/4.0/
# or send a letter to
# Creative Commons, PO Box 1866, Mountain View, CA 94042, USA.
#
# CIF created using the CSD Python API on 29 September 2022
# The structure has been converted into the P1 space group
# The structure has a 3D framework
# The original CSD entry CEVGIW is in the monoclinic crystal system
# The framework has been calculated to contain at least 10.0% void space
# The void calculation uses a probe of radius 1.32A, grid spacing 0.4
#
###############################################################################

data_CEVGIW
_chemical_formula_moiety         '(C48 H40 F18 N16 Si5 Zn4)n'
_symmetry_cell_setting           triclinic
_symmetry_space_group_name_H-M   'P 1'
_symmetry_Int_Tables_number      1
_space_group_name_Hall           'P 1'
loop_
_symmetry_equiv_pos_site_id
_symmetry_equiv_pos_as_xyz
1 x,y,z
_cell_length_a                   7.7322(9)
_cell_length_b                   20.361(3)
_cell_length_c                   12.0915(14)
_cell_angle_alpha                90
_cell_angle_beta                 102.630(2)
_cell_angle_gamma                90
_cell_volume                     1857.57
loop_
_atom_site_label
_atom_site_type_symbol
_atom_site_fract_x
_atom_site_fract_y
_atom_site_fract_z
Zn2 Zn -0.000000 0.500000 0.500000
Si1 Si 0.500000 0.500000 0.500000
F1 F 0.2782(3) 0.500000 0.49953(18)
F2 F 0.500000 0.58164(13) 0.500000
F3 F 0.5468(4) 0.500000 0.6397(2)
C3 C 0.0709(4) 0.33833(15) 0.2773(3)
H3 H 0.167169 0.312317 0.271050
C6 C 0.0889(4) 0.38672(15) 0.3592(3)
H5 H 0.199422 0.392946 0.407053
F4 F 0.7218(3) 0.500000 0.50047(18)
F5 F 0.4532(4) 0.500000 0.3603(2)
F6 F 0.500000 0.41836(13) 0.500000
N5 N 0.0459(3) 0.42508(11) 0.62705(18)
N6 N 0.2535(4) 0.27546(15) 0.9613(2)
C13 C 0.2059(4) 0.41490(16) 0.6964(3)
H11 H 0.301159 0.440346 0.686438
C14 C 0.2341(4) 0.36856(16) 0.7812(3)
H12 H 0.345837 0.363599 0.828226
C16 C 0.1128(4) 0.27887(16) 0.8848(3)
H14 H 0.021117 0.249330 0.884859
C17 C 0.0936(4) 0.32910(14) 0.7959(2)
Zn2_2 Zn 1.000000 0.500000 0.500000
N9 N 0.0459(3) 0.57492(11) 0.62705(18)
N1 N 0.9541(3) 0.42508(11) 0.37295(18)
N2 N 0.7465(4) 0.27546(15) 0.0387(2)
C1 C 0.7941(4) 0.41490(16) 0.3036(3)
H1 H 0.698841 0.440346 0.313562
C2 C 0.7659(4) 0.36856(16) 0.2188(3)
H2 H 0.654163 0.363599 0.171774
C4 C 0.8872(4) 0.27887(16) 0.1152(3)
H4 H 0.978883 0.249330 0.115141
C5 C 0.9064(4) 0.32910(14) 0.2041(2)
C15 C 0.9291(4) 0.33833(15) 0.7227(3)
H13 H 0.832831 0.312317 0.728950
C18 C 0.9111(4) 0.38672(15) 0.6408(3)
H15 H 0.800578 0.392946 0.592947
N10 N 0.9541(3) 0.57492(11) 0.37295(18)
C21 C 0.0709(4) 0.66167(15) 0.2773(3)
H18 H 0.167169 0.687683 0.271050
C24 C 0.0889(4) 0.61328(15) 0.3592(3)
H20 H 0.199422 0.607054 0.407053
N8 N 0.7465(4) 0.72454(15) 0.0387(2)
C19 C 0.7941(4) 0.58510(16) 0.3036(3)
H16 H 0.698841 0.559654 0.313562
C20 C 0.7659(4) 0.63144(16) 0.2188(3)
H17 H 0.654163 0.636401 0.171774
C22 C 0.8872(4) 0.72113(16) 0.1152(3)
H19 H 0.978883 0.750670 0.115141
C23 C 0.9064(4) 0.67090(14) 0.2041(2)
N4 N 0.2535(4) 0.72454(15) 0.9613(2)
C7 C 0.2059(4) 0.58510(16) 0.6964(3)
H6 H 0.301159 0.559654 0.686438
C8 C 0.2341(4) 0.63144(16) 0.7812(3)
H7 H 0.345837 0.636401 0.828226
C10 C 0.1128(4) 0.72113(16) 0.8848(3)
H9 H 0.021117 0.750670 0.884859
C11 C 0.0936(4) 0.67090(14) 0.7959(2)
C9 C 0.9291(4) 0.66167(15) 0.7227(3)
H8 H 0.832831 0.687683 0.728950
C12 C 0.9111(4) 0.61328(15) 0.6408(3)
H10 H 0.800578 0.607054 0.592947
N7 N 0.4541(3) 0.07492(11) 0.37295(18)
N8_2 N 0.2465(4) 0.22454(15) 0.0387(2)
C19_2 C 0.2941(4) 0.08510(16) 0.3036(3)
H16_2 H 0.198841 0.059654 0.313562
C20_2 C 0.2659(4) 0.13144(16) 0.2188(3)
H17_2 H 0.154163 0.136401 0.171774
C21_2 C 0.5709(4) 0.16167(15) 0.2773(3)
H18_2 H 0.667169 0.187683 0.271050
C22_2 C 0.3872(4) 0.22113(16) 0.1152(3)
H19_2 H 0.478883 0.250670 0.115141
C23_2 C 0.4064(4) 0.17090(14) 0.2041(2)
C24_2 C 0.5889(4) 0.11328(15) 0.3592(3)
H20_2 H 0.699422 0.107054 0.407053
Zn4 Zn 0.500000 0.000000 0.500000
N3 N 0.5459(3) 0.07492(11) 0.62705(18)
N4_2 N 0.7535(4) 0.22454(15) 0.9613(2)
C7_2 C 0.7059(4) 0.08510(16) 0.6964(3)
H6_2 H 0.801159 0.059654 0.686438
C8_2 C 0.7341(4) 0.13144(16) 0.7812(3)
H7_2 H 0.845837 0.136401 0.828226
C9_2 C 0.4291(4) 0.16167(15) 0.7227(3)
H8_2 H 0.332831 0.187683 0.728950
C10_2 C 0.6128(4) 0.22113(16) 0.8848(3)
H9_2 H 0.521117 0.250670 0.884859
C11_2 C 0.5936(4) 0.17090(14) 0.7959(2)
C12_2 C 0.4111(4) 0.11328(15) 0.6408(3)
H10_2 H 0.300578 0.107054 0.592947
Si1_2 Si 0.000000 0.000000 0.500000
F2_2 F 0.000000 0.08164(13) 0.500000
F3_2 F 0.0468(4) -0.000000 0.6397(2)
F4_2 F 0.2218(3) 0.000000 0.50047(18)
Si1_3 Si 1.000000 0.000000 0.500000
F1_2 F 0.7782(3) 0.000000 0.49953(18)
F2_3 F 1.000000 0.08164(13) 0.500000
F5_2 F 0.9532(4) 0.000000 0.3603(2)
Zn4_2 Zn 0.500000 1.000000 0.500000
Si1_4 Si 0.000000 1.000000 0.500000
F3_3 F 0.0468(4) 1.000000 0.6397(2)
F4_3 F 0.2218(3) 1.000000 0.50047(18)
F6_2 F 0.000000 0.91836(13) 0.500000
Si1_5 Si 1.000000 1.000000 0.500000
F1_3 F 0.7782(3) 1.000000 0.49953(18)
N1_2 N 0.4541(3) 0.92508(11) 0.37295(18)
N2_2 N 0.2465(4) 0.77546(15) 0.0387(2)
C1_2 C 0.2941(4) 0.91490(16) 0.3036(3)
H1_2 H 0.198841 0.940346 0.313562
C2_2 C 0.2659(4) 0.86856(16) 0.2188(3)
H2_2 H 0.154163 0.863599 0.171774
C3_2 C 0.5709(4) 0.83833(15) 0.2773(3)
H3_2 H 0.667169 0.812317 0.271050
C4_2 C 0.3872(4) 0.77887(16) 0.1152(3)
H4_2 H 0.478883 0.749330 0.115141
C5_2 C 0.4064(4) 0.82910(14) 0.2041(2)
C6_2 C 0.5889(4) 0.88672(15) 0.3592(3)
H5_2 H 0.699422 0.892946 0.407053
F5_3 F 0.9532(4) 1.000000 0.3603(2)
F6_3 F 1.000000 0.91836(13) 0.500000
N5_2 N 0.5459(3) 0.92508(11) 0.62705(18)
N6_2 N 0.7535(4) 0.77546(15) 0.9613(2)
C13_2 C 0.7059(4) 0.91490(16) 0.6964(3)
H11_2 H 0.801159 0.940346 0.686438
C14_2 C 0.7341(4) 0.86856(16) 0.7812(3)
H12_2 H 0.845837 0.863599 0.828226
C15_2 C 0.4291(4) 0.83833(15) 0.7227(3)
H13_2 H 0.332831 0.812317 0.728950
C16_2 C 0.6128(4) 0.77887(16) 0.8848(3)
H14_2 H 0.521117 0.749330 0.884859
C17_2 C 0.5936(4) 0.82910(14) 0.7959(2)
C18_2 C 0.4111(4) 0.88672(15) 0.6408(3)
H15_2 H 0.300578 0.892946 0.592947
loop_
_geom_bond_atom_site_label_1
_geom_bond_atom_site_label_2
_geom_bond_site_symmetry_1
_geom_bond_site_symmetry_2
Zn2 F1 1_555 1_555
Si1 F1 1_555 1_555
F2 Si1 1_555 1_555
F3 Si1 1_555 1_555
C3 H3 1_555 1_555
H5 C6 1_555 1_555
F4 Si1 1_555 1_555
F5 Si1 1_555 1_555
F6 Si1 1_555 1_555
N5 Zn2 1_555 1_555
N6 C16 1_555 1_555
C13 N5 1_555 1_555
H11 C13 1_555 1_555
C14 C13 1_555 1_555
H12 C14 1_555 1_555
C16 H14 1_555 1_555
C17 C14 1_555 1_555
Zn2_2 F4 1_555 1_555
N9 Zn2 1_555 1_555
C3 C6 1_555 1_555
C16 C17 1_555 1_555
N1 Zn2_2 1_555 1_555
N2 C4 1_555 1_555
C1 N1 1_555 1_555
H1 C1 1_555 1_555
C2 C1 1_555 1_555
H2 C2 1_555 1_555
C4 H4 1_555 1_555
C5 C2 1_555 1_555
C15 H13 1_555 1_555
H15 C18 1_555 1_555
N10 Zn2_2 1_555 1_555
C4 C5 1_555 1_555
C15 C18 1_555 1_555
C21 H18 1_555 1_555
H20 C24 1_555 1_555
C21 C24 1_555 1_555
N10 C19 1_555 1_555
C19 H16 1_555 1_555
C20 C19 1_555 1_555
H17 C20 1_555 1_555
C22 N8 1_555 1_555
H19 C22 1_555 1_555
C23 C20 1_555 1_555
C22 C23 1_555 1_555
N9 C7 1_555 1_555
C7 H6 1_555 1_555
C8 C7 1_555 1_555
H7 C8 1_555 1_555
C10 N4 1_555 1_555
H9 C10 1_555 1_555
C11 C8 1_555 1_555
C10 C11 1_555 1_555
C9 H8 1_555 1_555
H10 C12 1_555 1_555
C9 C12 1_555 1_555
N7 C19_2 1_555 1_555
C19_2 H16_2 1_555 1_555
C20_2 C19_2 1_555 1_555
H17_2 C20_2 1_555 1_555
C21_2 H18_2 1_555 1_555
C22_2 N8_2 1_555 1_555
H19_2 C22_2 1_555 1_555
C23_2 C20_2 1_555 1_555
C24_2 N7 1_555 1_555
H20_2 C24_2 1_555 1_555
Zn4 N7 1_555 1_555
C21_2 C23_2 1_555 1_555
C21_2 C24_2 1_555 1_555
C22_2 C23_2 1_555 1_555
N3 C7_2 1_555 1_555
C7_2 H6_2 1_555 1_555
C8_2 C7_2 1_555 1_555
H7_2 C8_2 1_555 1_555
C9_2 H8_2 1_555 1_555
C10_2 N4_2 1_555 1_555
H9_2 C10_2 1_555 1_555
C11_2 C8_2 1_555 1_555
C12_2 N3 1_555 1_555
H10_2 C12_2 1_555 1_555
Zn4 N3 1_555 1_555
C9_2 C11_2 1_555 1_555
C9_2 C12_2 1_555 1_555
C10_2 C11_2 1_555 1_555
F2_2 Si1_2 1_555 1_555
F3_2 Si1_2 1_555 1_555
F4_2 Si1_2 1_555 1_555
Zn4 F4_2 1_555 1_555
Zn4 F1_2 1_555 1_555
Si1_3 F1_2 1_555 1_555
F2_3 Si1_3 1_555 1_555
F5_2 Si1_3 1_555 1_555
F3_3 Si1_4 1_555 1_555
F4_3 Si1_4 1_555 1_555
F6_2 Si1_4 1_555 1_555
Zn4_2 F4_3 1_555 1_555
Zn4_2 F1_3 1_555 1_555
Si1_5 F1_3 1_555 1_555
N1_2 Zn4_2 1_555 1_555
N2_2 C4_2 1_555 1_555
C1_2 N1_2 1_555 1_555
H1_2 C1_2 1_555 1_555
C2_2 C1_2 1_555 1_555
H2_2 C2_2 1_555 1_555
C3_2 H3_2 1_555 1_555
C4_2 H4_2 1_555 1_555
C5_2 C2_2 1_555 1_555
C6_2 N1_2 1_555 1_555
H5_2 C6_2 1_555 1_555
F5_3 Si1_5 1_555 1_555
F6_3 Si1_5 1_555 1_555
N5_2 Zn4_2 1_555 1_555
N6_2 C16_2 1_555 1_555
C13_2 N5_2 1_555 1_555
H11_2 C13_2 1_555 1_555
C14_2 C13_2 1_555 1_555
H12_2 C14_2 1_555 1_555
C15_2 H13_2 1_555 1_555
C16_2 H14_2 1_555 1_555
C17_2 C14_2 1_555 1_555
C18_2 N5_2 1_555 1_555
H15_2 C18_2 1_555 1_555
C3_2 C5_2 1_555 1_555
C3_2 C6_2 1_555 1_555
C4_2 C5_2 1_555 1_555
C15_2 C17_2 1_555 1_555
C15_2 C18_2 1_555 1_555
C16_2 C17_2 1_555 1_555

#END
