
###############################################################################
#
# This file contains modified crystal structure data generated from the
# MOF subset of the Cambridge Structural Database (CSD) v543 
# hosted by the Cambridge Crystallographic Data Centre (CCDC).
#
# This work is licensed under the Creative Commons
# Attribution-NonCommercial-ShareAlike 4.0 International License.
# To view a copy of this license, visit
# http://creativecommons.org/licenses/by-nc-sa/4.0/
# or send a letter to
# Creative Commons, PO Box 1866, Mountain View, CA 94042, USA.
#
# CIF created using the CSD Python API on 29 September 2022
# The structure has been converted into the P1 space group
# The structure has a 3D framework
# The original CSD entry CEWSOP is in the triclinic crystal system
# The framework has been calculated to contain at least 10.0% void space
# The void calculation uses a probe of radius 1.32A, grid spacing 0.4
#
###############################################################################

data_CEWSOP
_chemical_formula_moiety         '(C74 H64 Cd4 N12 O14)n'
_symmetry_cell_setting           triclinic
_symmetry_space_group_name_H-M   'P 1'
_symmetry_Int_Tables_number      1
_space_group_name_Hall           'P 1'
loop_
_symmetry_equiv_pos_site_id
_symmetry_equiv_pos_as_xyz
1 x,y,z
_cell_length_a                   10.362(2)
_cell_length_b                   10.417(2)
_cell_length_c                   21.282(4)
_cell_angle_alpha                78.838(3)
_cell_angle_beta                 84.996(3)
_cell_angle_gamma                76.052(3)
_cell_volume                     2185.31
loop_
_atom_site_label
_atom_site_type_symbol
_atom_site_fract_x
_atom_site_fract_y
_atom_site_fract_z
_atom_site_U_iso_or_equiv
_atom_site_thermal_displace_type
Cd9 Cd 0.02529(3) 0.29231(3) 0.68954(2) 0.0262 Uani
C44 C 0.0523(5) 0.1620(5) 0.8158(2) 0.0347 Uani
C45 C 0.0524(5) 0.0959(5) 0.8849(2) 0.0381 Uani
C46 C 0.1768(5) 0.0393(6) 0.9138(2) 0.0493 Uani
H36 H 0.2555 0.0442 0.8899 0.0590 Uiso
O12 O 0.1448(4) 0.2132(4) 0.79196(16) 0.0511 Uani
C23 C 0.8188(5) 0.0219(7) 0.0235(2) 0.0532 Uani
H21 H 0.7370 0.0598 0.0051 0.0640 Uiso
C28 C 0.6900(5) 0.0592(5) 0.4281(3) 0.0443 Uani
H23 H 0.7552 0.0994 0.4054 0.0530 Uiso
C29 C 0.6032(5) 0.1261(5) 0.4679(2) 0.0452 Uani
H24 H 0.6084 0.2118 0.4723 0.0550 Uiso
C30 C 0.5026(5) 0.0655(5) 0.5036(2) 0.0341 Uani
C50 C 0.2164(5) 0.1444(5) 0.6230(2) 0.0343 Uani
C51 C 0.3155(5) 0.0698(5) 0.5799(2) 0.0344 Uani
C55 C 0.4112(5) 0.1313(5) 0.5459(2) 0.0369 Uani
H41 H 0.4146 0.2170 0.5512 0.0450 Uiso
O13 O 0.2367(3) 0.2484(4) 0.63755(17) 0.0443 Uani
O14 O 0.1139(4) 0.1008(4) 0.64353(18) 0.0476 Uani
C38 C 0.8753(7) 0.8132(7) 0.8600(3) 0.0631 Uani
C39 C 0.9255(7) 0.6838(7) 0.9065(3) 0.0651 Uani
C40 C 0.9903(9) 0.5664(8) 0.8818(4) 0.0988 Uani
H33 H 0.9953 0.5696 0.8377 0.1180 Uiso
C43 C 0.9070(9) 0.6831(8) 0.9692(4) 0.0942 Uani
H35 H 0.8594 0.7588 0.9850 0.1130 Uiso
O9 O 0.7834(5) 0.9068(5) 0.8767(2) 0.0634 Uani
O10 O 0.9271(5) 0.8200(5) 0.8052(3) 0.0872 Uani
H46 H 0.7951 0.9614 0.5917 0.0800 Uiso
C63 C 0.6730(7) 0.9228(7) 0.6694(3) 0.0628 Uani
H47 H 0.7213 0.8302 0.6815 0.0750 Uiso
H48 H 0.5997 0.9234 0.6439 0.0750 Uiso
C66 C 0.5734(6) 0.8755(6) 0.7788(3) 0.0558 Uani
H53 H 0.6500 0.8031 0.7916 0.0670 Uiso
H54 H 0.5410 0.9170 0.8160 0.0670 Uiso
C67 C 0.4641(6) 0.8139(6) 0.7606(3) 0.0516 Uani
C68 C 0.4980(7) 0.6920(7) 0.7399(4) 0.0837 Uani
H55 H 0.5872 0.6476 0.7383 0.1000 Uiso
C69 C 0.4047(6) 0.6334(6) 0.7214(4) 0.0735 Uani
H56 H 0.4299 0.5541 0.7049 0.0880 Uiso
C70 C 0.2715(6) 0.6977(5) 0.7285(3) 0.0497 Uani
C71 C 0.2339(6) 0.8196(6) 0.7481(3) 0.0508 Uani
H57 H 0.1445 0.8624 0.7518 0.0610 Uiso
C72 C 0.3340(6) 0.8785(6) 0.7624(3) 0.0535 Uani
H58 H 0.3104 0.9635 0.7734 0.0640 Uiso
C73 C 0.1607(5) 0.5126(5) 0.7275(3) 0.0439 Uani
H59 H 0.2164 0.4453 0.7546 0.0530 Uiso
C74 C 0.0111(6) 0.6186(6) 0.6649(3) 0.0589 Uani
N7 N 0.8795(4) 0.9997(5) 0.6669(2) 0.0475 Uani
H61 H 0.9376 0.9208 0.6690 0.0570 Uiso
N8 N 0.6185(4) 0.9766(4) 0.7285(2) 0.0447 Uani
N10 N 0.1742(4) 0.6376(4) 0.7111(2) 0.0453 Uani
N11 N 0.0787(6) 0.7101(5) 0.6696(3) 0.0667 Uani
N12 N 0.0571(4) 0.4957(4) 0.7003(2) 0.0404 Uani
H19 H 0.0619 0.3622 0.3607 0.0700 Uiso
C24 C 0.0608(5) 0.9107(5) 0.0801(2) 0.0401 Uani
H22 H 0.1418 0.8743 0.0995 0.0480 Uiso
C32 C 0.1768(6) 0.6135(5) 0.3928(3) 0.0455 Uani
C33 C 0.2901(6) 0.5672(5) 0.4405(3) 0.0504 Uani
C34 C 0.2519(6) 0.5300(6) 0.5074(3) 0.0552 Uani
H26 H 0.1631 0.5339 0.5202 0.0660 Uiso
C35 C 0.3487(6) 0.4890(6) 0.5513(3) 0.0520 Uani
H27 H 0.3260 0.4651 0.5945 0.0620 Uiso
C36 C 0.4775(6) 0.4830(5) 0.5320(2) 0.0432 Uani
C37 C 0.4141(6) 0.5628(5) 0.4218(3) 0.0460 Uani
H28 H 0.4351 0.5890 0.3785 0.0550 Uiso
O3 O 0.0497(3) 0.8312(3) 0.21666(14) 0.0374 Uani
O7 O 0.2028(4) 0.6594(5) 0.3364(2) 0.0703 Uani
O8 O 0.0653(5) 0.6027(5) 0.4119(2) 0.0740 Uani
C49 C 0.0601(5) 0.9715(6) 0.0145(2) 0.0393 Uani
C56 C 0.8232(6) 0.3865(5) 0.6072(3) 0.0455 Uani
C57 C 0.7099(6) 0.4328(5) 0.5595(3) 0.0504 Uani
C58 C 0.7481(6) 0.4700(6) 0.4926(3) 0.0552 Uani
H42 H 0.8369 0.4661 0.4798 0.0660 Uiso
C59 C 0.6513(6) 0.5110(6) 0.4487(3) 0.0520 Uani
H43 H 0.6740 0.5349 0.4055 0.0620 Uiso
C60 C 0.5225(6) 0.5170(5) 0.4680(2) 0.0432 Uani
C61 C 0.5859(6) 0.4372(5) 0.5782(3) 0.0460 Uani
H44 H 0.5649 0.4110 0.6215 0.0550 Uiso
O15 O 0.7972(4) 0.3406(5) 0.6636(2) 0.0703 Uani
O16 O 0.9347(5) 0.3973(5) 0.5881(2) 0.0740 Uani
Cd5 Cd 0.19225(3) 0.96340(4) 0.23139(2) 0.0373 Uani
C25 C 0.9399(5) 0.0285(6) 0.9855(2) 0.0393 Uani
C48 C 0.9392(5) 0.0893(5) 0.9199(2) 0.0401 Uani
H38 H 0.8582 0.1257 0.9005 0.0480 Uiso
O11 O 0.9503(3) 0.1688(3) 0.78334(14) 0.0374 Uani
Cd6 Cd 0.80775(3) 0.03660(4) 0.76861(2) 0.0373 Uani
C7 C 0.2365(7) 0.9994(8) 0.3704(3) 0.0668 Uani
H4 H 0.2849 0.9075 0.3842 0.0800 Uiso
C9 C 0.4913(6) 0.8099(7) 0.2359(4) 0.0682 Uani
H8 H 0.5243 0.8550 0.1956 0.0820 Uiso
H9 H 0.5549 0.7255 0.2487 0.0820 Uiso
C10 C 0.4806(6) 0.8960(6) 0.2860(3) 0.0576 Uani
H10 H 0.4568 0.8467 0.3271 0.0690 Uiso
H11 H 0.5668 0.9148 0.2893 0.0690 Uiso
H30 H 0.0798 0.9364 0.3528 0.0570 Uiso
N3 N 0.3597(5) 0.7818(5) 0.2261(2) 0.0548 Uani
H31 H 0.3453 0.7136 0.2561 0.0660 Uiso
H32 H 0.3618 0.7579 0.1880 0.0660 Uiso
C62 C 0.7635(7) 0.0006(8) 0.6296(3) 0.0668 Uani
H45 H 0.7151 0.0925 0.6158 0.0800 Uiso
C64 C 0.5087(6) 0.1901(7) 0.7641(4) 0.0682 Uani
H49 H 0.4757 0.1450 0.8044 0.0820 Uiso
H50 H 0.4451 0.2745 0.7513 0.0820 Uiso
C65 C 0.5194(6) 0.1040(6) 0.7140(3) 0.0576 Uani
H51 H 0.5432 0.1533 0.6729 0.0690 Uiso
H52 H 0.4332 0.0852 0.7107 0.0690 Uiso
H62 H 0.9202 0.0636 0.6472 0.0570 Uiso
N9 N 0.6403(5) 0.2182(5) 0.7739(2) 0.0548 Uani
H63 H 0.6547 0.2864 0.7439 0.0660 Uiso
H64 H 0.6382 0.2421 0.8120 0.0660 Uiso
H60 H 0.9381 0.6378 0.6393 0.0700 Uiso
C47 C 0.1812(5) 0.9781(7) 0.9765(2) 0.0532 Uani
H37 H 0.2630 0.9402 0.9949 0.0640 Uiso
Cd2 Cd 0.97471(3) 0.70769(3) 0.31046(2) 0.0262 Uani
C1 C 0.1247(7) 0.1868(7) 0.1400(3) 0.0631 Uani
C2 C 0.0745(7) 0.3162(7) 0.0935(3) 0.0651 Uani
C3 C 0.0097(9) 0.4336(8) 0.1182(4) 0.0988 Uani
H1 H 0.0047 0.4304 0.1623 0.1180 Uiso
C6 C 0.0930(9) 0.3169(8) 0.0308(4) 0.0942 Uani
H3 H 0.1406 0.2412 0.0150 0.1130 Uiso
H5 H 0.2049 0.0386 0.4083 0.0800 Uiso
C8 C 0.3270(7) 0.0772(7) 0.3306(3) 0.0628 Uani
H6 H 0.2787 0.1698 0.3185 0.0750 Uiso
H7 H 0.4003 0.0766 0.3561 0.0750 Uiso
C11 C 0.4266(6) 0.1245(6) 0.2212(3) 0.0558 Uani
H12 H 0.3500 0.1969 0.2084 0.0670 Uiso
H13 H 0.4590 0.0830 0.1840 0.0670 Uiso
C12 C 0.5359(6) 0.1861(6) 0.2394(3) 0.0516 Uani
C13 C 0.5020(7) 0.3080(7) 0.2601(4) 0.0837 Uani
H14 H 0.4128 0.3524 0.2617 0.1000 Uiso
C14 C 0.5953(6) 0.3666(6) 0.2786(4) 0.0735 Uani
H15 H 0.5701 0.4459 0.2951 0.0880 Uiso
C15 C 0.7285(6) 0.3023(5) 0.2715(3) 0.0497 Uani
C16 C 0.7661(6) 0.1804(6) 0.2519(3) 0.0508 Uani
H16 H 0.8555 0.1376 0.2482 0.0610 Uiso
C17 C 0.6660(6) 0.1215(6) 0.2376(3) 0.0535 Uani
H17 H 0.6896 0.0365 0.2266 0.0640 Uiso
C18 C 0.8393(5) 0.4874(5) 0.2725(3) 0.0439 Uani
H18 H 0.7836 0.5547 0.2454 0.0530 Uiso
C19 C 0.9889(6) 0.3814(6) 0.3351(3) 0.0589 Uani
C20 C 0.9477(5) 0.8380(5) 0.1842(2) 0.0347 Uani
C21 C 0.9476(5) 0.9041(5) 0.1151(2) 0.0381 Uani
C22 C 0.8232(5) 0.9607(6) 0.0862(2) 0.0493 Uani
H20 H 0.7445 0.9558 0.1101 0.0590 Uiso
C26 C 0.7836(5) 0.8556(5) 0.3770(2) 0.0343 Uani
C27 C 0.6845(5) 0.9302(5) 0.4201(2) 0.0344 Uani
C31 C 0.5888(5) 0.8687(5) 0.4541(2) 0.0369 Uani
H25 H 0.5854 0.7830 0.4488 0.0450 Uiso
N1 N 0.1205(4) 0.0003(5) 0.3331(2) 0.0475 Uani
H29 H 0.0624 0.0792 0.3310 0.0570 Uiso
N2 N 0.3815(4) 0.0234(4) 0.2715(2) 0.0447 Uani
N4 N 0.8258(4) 0.3624(4) 0.2889(2) 0.0453 Uani
N5 N 0.9213(6) 0.2899(5) 0.3304(3) 0.0667 Uani
N6 N 0.9429(4) 0.5043(4) 0.2997(2) 0.0404 Uani
O1 O 0.2166(5) 0.0932(5) 0.1233(2) 0.0634 Uani
O2 O 0.0729(5) 0.1800(5) 0.1948(3) 0.0872 Uani
O4 O 0.8552(4) 0.7868(4) 0.20804(16) 0.0511 Uani
O5 O 0.7633(3) 0.7516(4) 0.36245(17) 0.0443 Uani
O6 O 0.8861(4) 0.8992(4) 0.35647(18) 0.0476 Uani
C52 C 0.3100(5) 0.9408(5) 0.5719(3) 0.0443 Uani
H39 H 0.2448 0.9006 0.5946 0.0530 Uiso
C53 C 0.3968(5) 0.8739(5) 0.5321(2) 0.0452 Uani
H40 H 0.3916 0.7882 0.5277 0.0550 Uiso
C54 C 0.4974(5) 0.9345(5) 0.4964(2) 0.0341 Uani
C41 C 0.0467(10) 0.4470(9) 0.9214(4) 0.1011 Uani
H34 H 0.0914 0.3710 0.9050 0.1210 Uiso
C42 C 0.0327(7) 0.4477(7) 0.9854(3) 0.0666 Uani
C4 C 0.9533(10) 0.5530(9) 0.0786(4) 0.1011 Uani
H2 H 0.9086 0.6290 0.0950 0.1210 Uiso
C5 C 0.9673(7) 0.5523(7) 0.0146(3) 0.0666 Uani
loop_
_atom_site_aniso_label
_atom_site_aniso_U_11
_atom_site_aniso_U_22
_atom_site_aniso_U_33
_atom_site_aniso_U_23
_atom_site_aniso_U_13
_atom_site_aniso_U_12
Cd9 0.0265 0.0293 0.02357 -0.00255 -0.00179 -0.00945
C44 0.042 0.04 0.023 -0.001 -0.003 -0.014
C45 0.04 0.051 0.025 0.001 -0.009 -0.017
C46 0.024 0.097 0.025 0.007 0.001 -0.025
O12 0.044 0.081 0.0331 0.0061 -0.0025 -0.036
C23 0.032 0.094 0.029 0.005 -0.005 -0.017
C28 0.04 0.04 0.056 -0.015 0.021 -0.018
C29 0.05 0.034 0.054 -0.013 0.017 -0.017
C30 0.031 0.036 0.038 -0.011 0.009 -0.013
C50 0.031 0.04 0.031 -0.005 0 -0.008
C51 0.027 0.041 0.035 -0.01 0.008 -0.008
C55 0.038 0.033 0.044 -0.014 0.007 -0.014
O13 0.038 0.05 0.049 -0.0209 0.0104 -0.0128
O14 0.033 0.053 0.063 -0.0268 0.0238 -0.0181
C38 0.049 0.071 0.066 0.027 -0.027 -0.03
C39 0.063 0.065 0.065 0.021 -0.014 -0.032
C40 0.107 0.073 0.087 0.026 -0.004 0.004
C43 0.133 0.066 0.091 0.026 -0.047 -0.054
O9 0.064 0.058 0.065 0.013 -0.02 -0.021
O10 0.063 0.082 0.082 0.046 -0.001 0.001
C63 0.064 0.071 0.065 -0.01 -0.016 -0.035
C66 0.042 0.058 0.07 0.012 -0.017 -0.03
C67 0.038 0.046 0.073 0.004 -0.015 -0.021
C68 0.047 0.041 0.162 -0.006 -0.029 -0.009
C69 0.042 0.044 0.141 -0.027 -0.001 -0.015
C70 0.046 0.036 0.07 -0.009 -0.009 -0.013
C71 0.032 0.051 0.074 -0.017 0.001 -0.015
C72 0.042 0.055 0.076 -0.026 0.007 -0.027
C73 0.04 0.037 0.058 -0.009 -0.007 -0.013
C74 0.048 0.043 0.09 -0.014 -0.026 -0.009
N7 0.044 0.045 0.057 -0.008 -0.005 -0.017
N8 0.033 0.043 0.059 0.004 -0.013 -0.017
N10 0.035 0.037 0.068 -0.011 -0.01 -0.012
N11 0.078 0.033 0.094 -0.005 -0.035 -0.016
N12 0.029 0.032 0.064 -0.011 -0.006 -0.011
C24 0.029 0.061 0.03 0.001 -0.007 -0.015
C32 0.044 0.042 0.05 0 -0.02 -0.009
C33 0.051 0.035 0.066 -0.003 -0.029 -0.007
C34 0.055 0.055 0.054 0.006 -0.022 -0.015
C35 0.045 0.059 0.05 0 -0.005 -0.015
C36 0.054 0.032 0.046 -0.005 -0.002 -0.016
C37 0.045 0.043 0.048 -0.002 -0.011 -0.008
O3 0.042 0.047 0.0252 0.0061 -0.0102 -0.0208
O7 0.06 0.088 0.056 0.018 -0.028 -0.019
O8 0.05 0.107 0.06 0.004 -0.026 -0.015
C49 0.034 0.061 0.023 -0.002 -0.003 -0.015
C56 0.044 0.042 0.05 0 -0.02 -0.009
C57 0.051 0.035 0.066 -0.003 -0.029 -0.007
C58 0.055 0.055 0.054 0.006 -0.022 -0.015
C59 0.045 0.059 0.05 0 -0.005 -0.015
C60 0.054 0.032 0.046 -0.005 -0.002 -0.016
C61 0.045 0.043 0.048 -0.002 -0.011 -0.008
O15 0.06 0.088 0.056 0.018 -0.028 -0.019
O16 0.05 0.107 0.06 0.004 -0.026 -0.015
Cd5 0.0292 0.0368 0.0447 0.00419 -0.00987 -0.01168
C25 0.034 0.061 0.023 -0.002 -0.003 -0.015
C48 0.029 0.061 0.03 0.001 -0.007 -0.015
O11 0.042 0.047 0.0252 0.0061 -0.0102 -0.0208
Cd6 0.0292 0.0368 0.0447 0.00419 -0.00987 -0.01168
C7 0.068 0.092 0.053 -0.016 -0.008 -0.038
C9 0.03 0.074 0.093 -0.009 -0.003 -0.002
C10 0.035 0.054 0.079 0.007 -0.019 -0.01
N3 0.046 0.048 0.069 -0.01 -0.01 -0.006
C62 0.068 0.092 0.053 -0.016 -0.008 -0.038
C64 0.03 0.074 0.093 -0.009 -0.003 -0.002
C65 0.035 0.054 0.079 0.007 -0.019 -0.01
N9 0.046 0.048 0.069 -0.01 -0.01 -0.006
C47 0.032 0.094 0.029 0.005 -0.005 -0.017
Cd2 0.0265 0.0293 0.02357 -0.00255 -0.00179 -0.00945
C1 0.049 0.071 0.066 0.027 -0.027 -0.03
C2 0.063 0.065 0.065 0.021 -0.014 -0.032
C3 0.107 0.073 0.087 0.026 -0.004 0.004
C6 0.133 0.066 0.091 0.026 -0.047 -0.054
C8 0.064 0.071 0.065 -0.01 -0.016 -0.035
C11 0.042 0.058 0.07 0.012 -0.017 -0.03
C12 0.038 0.046 0.073 0.004 -0.015 -0.021
C13 0.047 0.041 0.162 -0.006 -0.029 -0.009
C14 0.042 0.044 0.141 -0.027 -0.001 -0.015
C15 0.046 0.036 0.07 -0.009 -0.009 -0.013
C16 0.032 0.051 0.074 -0.017 0.001 -0.015
C17 0.042 0.055 0.076 -0.026 0.007 -0.027
C18 0.04 0.037 0.058 -0.009 -0.007 -0.013
C19 0.048 0.043 0.09 -0.014 -0.026 -0.009
C20 0.042 0.04 0.023 -0.001 -0.003 -0.014
C21 0.04 0.051 0.025 0.001 -0.009 -0.017
C22 0.024 0.097 0.025 0.007 0.001 -0.025
C26 0.031 0.04 0.031 -0.005 0 -0.008
C27 0.027 0.041 0.035 -0.01 0.008 -0.008
C31 0.038 0.033 0.044 -0.014 0.007 -0.014
N1 0.044 0.045 0.057 -0.008 -0.005 -0.017
N2 0.033 0.043 0.059 0.004 -0.013 -0.017
N4 0.035 0.037 0.068 -0.011 -0.01 -0.012
N5 0.078 0.033 0.094 -0.005 -0.035 -0.016
N6 0.029 0.032 0.064 -0.011 -0.006 -0.011
O1 0.064 0.058 0.065 0.013 -0.02 -0.021
O2 0.063 0.082 0.082 0.046 -0.001 0.001
O4 0.044 0.081 0.0331 0.0061 -0.0025 -0.036
O5 0.038 0.05 0.049 -0.0209 0.0104 -0.0128
O6 0.033 0.053 0.063 -0.0268 0.0238 -0.0181
C52 0.04 0.04 0.056 -0.015 0.021 -0.018
C53 0.05 0.034 0.054 -0.013 0.017 -0.017
C54 0.031 0.036 0.038 -0.011 0.009 -0.013
C41 0.142 0.078 0.083 -0.025 0.02 -0.025
C42 0.079 0.074 0.054 -0.025 -0.002 -0.021
C4 0.142 0.078 0.083 -0.025 0.02 -0.025
C5 0.079 0.074 0.054 -0.025 -0.002 -0.021
loop_
_geom_bond_atom_site_label_1
_geom_bond_atom_site_label_2
_geom_bond_site_symmetry_1
_geom_bond_site_symmetry_2
C44 C45 1_555 1_555
C45 C46 1_555 1_555
C46 H36 1_555 1_555
O12 C44 1_555 1_555
O12 Cd9 1_555 1_555
H21 C23 1_555 1_555
C28 H23 1_555 1_555
C29 C28 1_555 1_555
H24 C29 1_555 1_555
C30 C29 1_555 1_555
C50 C51 1_555 1_555
C55 C30 1_555 1_555
H41 C55 1_555 1_555
O13 C50 1_555 1_555
O14 C50 1_555 1_555
Cd9 O13 1_555 1_555
C51 C55 1_555 1_555
O14 Cd9 1_555 1_555
C38 C39 1_555 1_555
C39 C40 1_555 1_555
C40 H33 1_555 1_555
H35 C43 1_555 1_555
O9 C38 1_555 1_555
O10 C38 1_555 1_555
Cd9 N12 1_555 1_555
H47 C63 1_555 1_555
H48 C63 1_555 1_555
C66 H53 1_555 1_555
H54 C66 1_555 1_555
C67 C66 1_555 1_555
C68 C67 1_555 1_555
H55 C68 1_555 1_555
C69 C68 1_555 1_555
H56 C69 1_555 1_555
C70 C69 1_555 1_555
C71 C70 1_555 1_555
H57 C71 1_555 1_555
C72 C67 1_555 1_555
H58 C72 1_555 1_555
C73 H59 1_555 1_555
H61 N7 1_555 1_555
N10 C70 1_555 1_555
N11 C74 1_555 1_555
N12 C73 1_555 1_555
C39 C43 1_555 1_555
C63 N8 1_555 1_555
C66 N8 1_555 1_555
C71 C72 1_555 1_555
C73 N10 1_555 1_555
C74 N12 1_555 1_555
N10 N11 1_555 1_555
H22 C24 1_555 1_555
C32 C33 1_555 1_555
C33 C34 1_555 1_555
C34 H26 1_555 1_555
C35 C34 1_555 1_555
H27 C35 1_555 1_555
C36 C35 1_555 1_555
C37 C33 1_555 1_555
H28 C37 1_555 1_555
C49 C24 1_555 1_555
C56 C57 1_555 1_555
C57 C58 1_555 1_555
C58 H42 1_555 1_555
C59 C58 1_555 1_555
H43 C59 1_555 1_555
C60 C36 1_555 1_555
C61 C36 1_555 1_555
H44 C61 1_555 1_555
O15 C56 1_555 1_555
O16 C56 1_555 1_555
Cd5 O3 1_555 1_555
C32 O7 1_555 1_555
C32 O8 1_555 1_555
C37 C60 1_555 1_555
C57 C61 1_555 1_555
C59 C60 1_555 1_555
C48 C25 1_555 1_555
H38 C48 1_555 1_555
Cd6 O11 1_555 1_555
C7 H4 1_555 1_555
C9 H8 1_555 1_555
H9 C9 1_555 1_555
C10 C9 1_555 1_555
H10 C10 1_555 1_555
H11 C10 1_555 1_555
N3 Cd5 1_555 1_555
H31 N3 1_555 1_555
H32 N3 1_555 1_555
C9 N3 1_555 1_555
C62 H45 1_555 1_555
C64 H49 1_555 1_555
H50 C64 1_555 1_555
C65 C64 1_555 1_555
H51 C65 1_555 1_555
H52 C65 1_555 1_555
N9 Cd6 1_555 1_555
H63 N9 1_555 1_555
H64 N9 1_555 1_555
C64 N9 1_555 1_555
H37 C47 1_555 1_555
Cd2 N6 1_555 1_555
C1 C2 1_555 1_555
C2 C3 1_555 1_555
C3 H1 1_555 1_555
C6 C2 1_555 1_555
H3 C6 1_555 1_555
H6 C8 1_555 1_555
H7 C8 1_555 1_555
C11 H12 1_555 1_555
H13 C11 1_555 1_555
C12 C11 1_555 1_555
C13 C12 1_555 1_555
H14 C13 1_555 1_555
C14 C13 1_555 1_555
H15 C14 1_555 1_555
C15 C14 1_555 1_555
C16 C15 1_555 1_555
H16 C16 1_555 1_555
C17 C12 1_555 1_555
H17 C17 1_555 1_555
C18 H18 1_555 1_555
C20 C21 1_555 1_555
C21 C22 1_555 1_555
C22 H20 1_555 1_555
C26 C27 1_555 1_555
C31 C27 1_555 1_555
H25 C31 1_555 1_555
H29 N1 1_555 1_555
N4 C15 1_555 1_555
N5 C19 1_555 1_555
N6 C18 1_555 1_555
O4 Cd2 1_555 1_555
O5 Cd2 1_555 1_555
O6 Cd2 1_555 1_555
C52 H39 1_555 1_555
C53 C52 1_555 1_555
H40 C53 1_555 1_555
C1 O1 1_555 1_555
C1 O2 1_555 1_555
C8 N2 1_555 1_555
C11 N2 1_555 1_555
C16 C17 1_555 1_555
C18 N4 1_555 1_555
C19 N6 1_555 1_555
C20 O4 1_555 1_555
C26 O5 1_555 1_555
C26 O6 1_555 1_555
C31 C54 1_555 1_555
N4 N5 1_555 1_555
C53 C54 1_555 1_555
H34 C41 1_555 1_555
C41 C42 1_555 1_555
H2 C4 1_555 1_555
C5 C4 1_555 1_555

#END
