
###############################################################################
#
# This file contains modified crystal structure data generated from the
# MOF subset of the Cambridge Structural Database (CSD) v543 
# hosted by the Cambridge Crystallographic Data Centre (CCDC).
#
# This work is licensed under the Creative Commons
# Attribution-NonCommercial-ShareAlike 4.0 International License.
# To view a copy of this license, visit
# http://creativecommons.org/licenses/by-nc-sa/4.0/
# or send a letter to
# Creative Commons, PO Box 1866, Mountain View, CA 94042, USA.
#
# CIF created using the CSD Python API on 29 September 2022
# The structure has been converted into the P1 space group
# The structure has a 3D framework
# The original CSD entry CEYPUT02 is in the monoclinic crystal system
# The framework has been calculated to contain at least 10.0% void space
# The void calculation uses a probe of radius 1.32A, grid spacing 0.4
#
###############################################################################

data_CEYPUT02
_chemical_formula_moiety         '(C24 H16 Co2 N4 O7)n'
_symmetry_cell_setting           triclinic
_symmetry_space_group_name_H-M   'P 1'
_symmetry_Int_Tables_number      1
_space_group_name_Hall           'P 1'
loop_
_symmetry_equiv_pos_site_id
_symmetry_equiv_pos_as_xyz
1 x,y,z
_cell_length_a                   6.30430(10)
_cell_length_b                   12.6051(2)
_cell_length_c                   10.4868(2)
_cell_angle_alpha                90
_cell_angle_beta                 91.3650(10)
_cell_angle_gamma                90
_cell_volume                     833.111
loop_
_atom_site_label
_atom_site_type_symbol
_atom_site_fract_x
_atom_site_fract_y
_atom_site_fract_z
H5 H 0.056994 0.021707 0.652480
O4 O 0.0722(7) 0.8858(4) 0.4724(4)
Co1 Co 0.4889(2) 0.24615(5) 0.83518(15)
O2 O 0.2259(6) 0.6528(3) 0.4008(4)
N1 N 0.3443(7) 0.3556(3) 0.7128(4)
N2 N 0.6327(7) 0.1562(3) 0.6950(4)
C1 C 0.1046(9) 0.6133(5) 0.4844(5)
C2 C 0.1916(9) 0.5232(4) 0.5656(5)
C3 C 0.3897(9) 0.4818(5) 0.5459(5)
H1 H 0.475042 0.509695 0.483025
C4 C 0.4610(10) 0.3976(5) 0.6209(6)
H2 H 0.594774 0.369458 0.606694
C5 C 0.1517(8) 0.3967(4) 0.7329(5)
H3 H 0.070230 0.367998 0.797199
C6 C 0.0694(8) 0.4803(5) 0.6615(5)
C8 C 0.7974(8) 0.0019(4) 0.5364(5)
C9 C 0.9187(8) 0.0448(4) 0.6368(5)
C10 C 0.8308(9) 0.1217(4) 0.7124(5)
H6 H 0.913240 0.150811 0.778239
C11 C 0.5185(9) 0.1176(5) 0.5954(6)
H7 H 0.382855 0.144258 0.579552
C12 C 0.5941(9) 0.0403(5) 0.5162(5)
H8 H 0.509340 0.014011 0.449580
O5 O 0.4204(7) 0.3567(3) 0.9957(4)
O6 O 0.7259(6) 0.3472(3) 0.9008(4)
O7 O 0.2602(6) 0.1348(3) 0.8798(4)
O8 O 0.5722(7) 0.1142(4) 0.9724(4)
C7 C 0.3836(8) 0.0876(4) 0.9581(5)
N2_2 N 0.1327(7) 0.8438(3) 0.1950(4)
H2_2 H 0.094774 0.630542 0.106694
C8_2 C 0.2974(8) 0.9981(4) 0.0364(5)
C9_2 C 0.4187(8) 0.9552(4) 0.1368(5)
H5_2 H 0.556994 0.978293 0.152480
C10_2 C 0.3308(9) 0.8783(4) 0.2124(5)
H6_2 H 0.413240 0.849189 0.278239
C11_2 C 0.0185(9) 0.8824(5) 0.0954(6)
C12_2 C 0.0941(9) 0.9597(5) 0.0162(5)
C1_2 C 0.6046(9) 0.3867(5) 0.9844(5)
H1_2 H 0.975042 0.490305 0.983025
O3 O 0.7602(6) 0.8652(3) 0.3798(4)
C7_2 C 0.8836(8) 0.9124(4) 0.4581(5)
Co3 Co 0.9889(2) 0.75385(5) 0.33518(15)
O1 O 0.9204(7) 0.6433(3) 0.4957(4)
H4 H 0.935170 0.507064 0.677351
N1_2 N 0.8443(7) 0.6444(3) 0.2128(4)
C2_2 C 0.6916(9) 0.4768(4) 0.0656(5)
C3_2 C 0.8897(9) 0.5182(5) 0.0459(5)
C4_2 C 0.9610(10) 0.6024(5) 0.1209(6)
C5_2 C 0.6517(8) 0.6033(4) 0.2329(5)
H3_2 H 0.570230 0.632002 0.297199
C6_2 C 0.5694(8) 0.5197(5) 0.1615(5)
H4_2 H 0.435170 0.492936 0.177351
H7_2 H 0.882855 0.855742 0.079552
H8_2 H 0.009340 0.985989 0.949580
loop_
_geom_bond_atom_site_label_1
_geom_bond_atom_site_label_2
_geom_bond_site_symmetry_1
_geom_bond_site_symmetry_2
Co1 N1 1_555 1_555
O2 C1 1_555 1_555
N1 C4 1_555 1_555
N2 Co1 1_555 1_555
C1 C2 1_555 1_555
C2 C3 1_555 1_555
C3 H1 1_555 1_555
C4 C3 1_555 1_555
H2 C4 1_555 1_555
C5 N1 1_555 1_555
H3 C5 1_555 1_555
C6 C2 1_555 1_555
C8 C9 1_555 1_555
C10 N2 1_555 1_555
H6 C10 1_555 1_555
C11 N2 1_555 1_555
H7 C11 1_555 1_555
C12 C8 1_555 1_555
H8 C12 1_555 1_555
O5 Co1 1_555 1_555
O6 Co1 1_555 1_555
O7 Co1 1_555 1_555
O8 Co1 1_555 1_555
C5 C6 1_555 1_555
C9 C10 1_555 1_555
C11 C12 1_555 1_555
O7 C7 1_555 1_555
O8 C7 1_555 1_555
C8_2 C9_2 1_555 1_555
C9_2 H5_2 1_555 1_555
C10_2 N2_2 1_555 1_555
H6_2 C10_2 1_555 1_555
C11_2 N2_2 1_555 1_555
C12_2 C8_2 1_555 1_555
C9_2 C10_2 1_555 1_555
C11_2 C12_2 1_555 1_555
O5 C1_2 1_555 1_555
O6 C1_2 1_555 1_555
O3 C7_2 1_555 1_555
Co3 O3 1_555 1_555
Co3 O1 1_555 1_555
Co3 N1_2 1_555 1_555
N1_2 C4_2 1_555 1_555
C2_2 C3_2 1_555 1_555
C4_2 C3_2 1_555 1_555
C5_2 N1_2 1_555 1_555
H3_2 C5_2 1_555 1_555
C6_2 C2_2 1_555 1_555
H4_2 C6_2 1_555 1_555
C5_2 C6_2 1_555 1_555

#END
