
###############################################################################
#
# This file contains modified crystal structure data generated from the
# MOF subset of the Cambridge Structural Database (CSD) v543 
# hosted by the Cambridge Crystallographic Data Centre (CCDC).
#
# This work is licensed under the Creative Commons
# Attribution-NonCommercial-ShareAlike 4.0 International License.
# To view a copy of this license, visit
# http://creativecommons.org/licenses/by-nc-sa/4.0/
# or send a letter to
# Creative Commons, PO Box 1866, Mountain View, CA 94042, USA.
#
# CIF created using the CSD Python API on 29 September 2022
# The structure has been converted into the P1 space group
# The structure has a 3D framework
# The original CSD entry CEYPUT is in the monoclinic crystal system
# The framework has been calculated to contain at least 10.0% void space
# The void calculation uses a probe of radius 1.32A, grid spacing 0.4
#
###############################################################################

data_CEYPUT
_chemical_formula_moiety         '(C24 H16 Co2 N4 O8)n'
_symmetry_cell_setting           triclinic
_symmetry_space_group_name_H-M   'P 1'
_symmetry_Int_Tables_number      1
_space_group_name_Hall           'P 1'
loop_
_symmetry_equiv_pos_site_id
_symmetry_equiv_pos_as_xyz
1 x,y,z
_cell_length_a                   6.3070(10)
_cell_length_b                   12.611(2)
_cell_length_c                   10.4919(17)
_cell_angle_alpha                90
_cell_angle_beta                 91.227(2)
_cell_angle_gamma                90
_cell_volume                     834.309
loop_
_atom_site_label
_atom_site_type_symbol
_atom_site_fract_x
_atom_site_fract_y
_atom_site_fract_z
C2 C 0.0233(9) 0.0880(5) 0.3653(6)
O3 O 0.2114(7) 0.1153(4) 0.3767(5)
Co3 Co 0.1280(2) 0.24626(5) 0.24005(18)
C3 C 0.1011(11) 0.3979(6) 0.0265(8)
H1 H 0.2355 0.3702 0.0132
Co1 Co 0.6280(2) 0.75374(5) 0.74005(18)
O1 O 0.5592(7) 0.6432(4) 0.9013(5)
O2 O 0.8658(7) 0.6524(3) 0.8048(5)
N2 N 0.7708(8) 0.8437(4) 0.6024(5)
C5 C 0.8276(10) 0.5233(5) 0.9708(7)
C7 C 0.7424(11) 0.6148(5) 0.8905(7)
C8 C 0.9693(10) 0.8791(5) 0.6158(7)
C10 C 0.9363(10) 0.9984(5) 0.4408(7)
C11 C 0.7330(10) 0.9599(5) 0.4238(7)
H7 H 0.6467 0.9867 0.3584
C12 C 0.6575(10) 0.8831(5) 0.5015(7)
H8 H 0.5222 0.8564 0.4849
N3 N 0.4823(8) 0.6438(4) 0.6190(5)
O5 O 0.7114(7) 0.8847(4) 0.8767(5)
O6 O 0.3998(7) 0.8655(3) 0.7845(5)
C1 C 0.2927(9) 0.6039(5) 0.6378(6)
O1_2 O 0.0592(7) 0.3568(4) 0.4013(5)
O2_2 O 0.3658(7) 0.3476(3) 0.3048(5)
N2_2 N 0.2708(8) 0.1563(4) 0.1024(5)
C3_2 C 0.6011(11) 0.6021(6) 0.5265(8)
H1_2 H 0.7355 0.6298 0.5132
C4 C 0.5289(11) 0.5186(6) 0.4501(7)
H2 H 0.6134 0.4913 0.3864
C5_2 C 0.3276(10) 0.4767(5) 0.4708(7)
C6 C 0.2089(10) 0.5193(5) 0.5664(7)
H3 H 0.0752 0.4924 0.5834
H4 H 0.2089 0.6335 0.6998
C7_2 C 0.2424(11) 0.3852(5) 0.3905(7)
C8_2 C 0.4693(10) 0.1209(5) 0.1158(7)
H5 H 0.5532 0.1506 0.1805
C9 C 0.5587(10) 0.0448(5) 0.0426(7)
H6 H 0.6966 0.0218 0.0591
C12_2 C 0.1575(10) 0.1169(5) 0.0015(7)
C2_2 C 0.5233(9) 0.9120(5) 0.8653(6)
C4_2 C 0.0289(11) 0.4814(6) 0.9501(7)
H2_2 H 0.1134 0.5087 0.8864
H5_2 H 0.0532 0.8494 0.6805
C9_2 C 0.0587(10) 0.9552(5) 0.5426(7)
H6_2 H 0.1966 0.9782 0.5591
O4 O 0.8998(7) 0.1345(3) 0.2845(5)
C1_2 C 0.7927(9) 0.3961(5) 0.1378(6)
N1 N 0.9823(8) 0.3562(4) 0.1190(5)
C6_2 C 0.7089(10) 0.4807(5) 0.0664(7)
H3_2 H 0.5752 0.5076 0.0834
H4_2 H 0.7089 0.3665 0.1998
C10_2 C 0.4363(10) 0.0016(5) 0.9408(7)
C11_2 C 0.2330(10) 0.0401(5) 0.9238(7)
H7_2 H 0.1467 0.0133 0.8584
H8_2 H 0.0222 0.1436 0.9849
loop_
_geom_bond_atom_site_label_1
_geom_bond_atom_site_label_2
_geom_bond_site_symmetry_1
_geom_bond_site_symmetry_2
C2 O3 1_555 1_555
O3 Co3 1_555 1_555
C3 H1 1_555 1_555
Co1 O1 1_555 1_555
O1 C7 1_555 1_555
O2 Co1 1_555 1_555
N2 Co1 1_555 1_555
C7 O2 1_555 1_555
C8 N2 1_555 1_555
C11 C10 1_555 1_555
H7 C11 1_555 1_555
C12 N2 1_555 1_555
H8 C12 1_555 1_555
N3 Co1 1_555 1_555
O5 Co1 1_555 1_555
O6 Co1 1_555 1_555
C5 C7 1_555 1_555
C11 C12 1_555 1_555
C1 N3 1_555 1_555
N3 C3_2 1_555 1_555
Co3 O1_2 1_555 1_555
O1_2 C7_2 1_555 1_555
O2_2 Co3 1_555 1_555
N2_2 Co3 1_555 1_555
C3_2 H1_2 1_555 1_555
C4 C3_2 1_555 1_555
H2 C4 1_555 1_555
C5_2 C4 1_555 1_555
C6 C1 1_555 1_555
H3 C6 1_555 1_555
H4 C1 1_555 1_555
C7_2 O2_2 1_555 1_555
C8_2 N2_2 1_555 1_555
H5 C8_2 1_555 1_555
C9 C8_2 1_555 1_555
H6 C9 1_555 1_555
C12_2 N2_2 1_555 1_555
C5_2 C6 1_555 1_555
C5_2 C7_2 1_555 1_555
C2_2 O5 1_555 1_555
O6 C2_2 1_555 1_555
H2_2 C4_2 1_555 1_555
H6_2 C9_2 1_555 1_555
C1_2 N1 1_555 1_555
C6_2 C1_2 1_555 1_555
H3_2 C6_2 1_555 1_555
H4_2 C1_2 1_555 1_555
C11_2 C10_2 1_555 1_555
H7_2 C11_2 1_555 1_555

#END
