
###############################################################################
#
# This file contains modified crystal structure data generated from the
# MOF subset of the Cambridge Structural Database (CSD) v543 
# hosted by the Cambridge Crystallographic Data Centre (CCDC).
#
# This work is licensed under the Creative Commons
# Attribution-NonCommercial-ShareAlike 4.0 International License.
# To view a copy of this license, visit
# http://creativecommons.org/licenses/by-nc-sa/4.0/
# or send a letter to
# Creative Commons, PO Box 1866, Mountain View, CA 94042, USA.
#
# CIF created using the CSD Python API on 29 September 2022
# The structure has been converted into the P1 space group
# The structure has a 3D framework
# The original CSD entry CEZZEN is in the orthorhombic crystal system
# The framework has been calculated to contain at least 10.0% void space
# The void calculation uses a probe of radius 1.32A, grid spacing 0.4
#
###############################################################################

data_CEZZEN
_chemical_formula_moiety         '(C96 H64 N16 O48 Pb7)n'
_symmetry_cell_setting           triclinic
_symmetry_space_group_name_H-M   'P 1'
_symmetry_Int_Tables_number      1
_space_group_name_Hall           'P 1'
loop_
_symmetry_equiv_pos_site_id
_symmetry_equiv_pos_as_xyz
1 x,y,z
_cell_length_a                   20.0657(8)
_cell_length_b                   21.6400(8)
_cell_length_c                   7.3127(3)
_cell_angle_alpha                90
_cell_angle_beta                 90
_cell_angle_gamma                90
_cell_volume                     3175.33
loop_
_atom_site_label
_atom_site_type_symbol
_atom_site_fract_x
_atom_site_fract_y
_atom_site_fract_z
Pb1 Pb 0.021932(5) 0.535847(5) 0.229490(14)
C6 C 0.26442(12) 0.49932(12) 0.6017(4)
C7 C 0.23848(13) 0.44357(14) 0.5368(4)
H5 H 0.2669 0.4106 0.5123
C8 C 0.22023(14) 0.54686(14) 0.6411(4)
H6 H 0.2360 0.5838 0.6894
C9 C 0.33853(13) 0.50679(13) 0.6285(4)
C11 C 0.17111(13) 0.43726(13) 0.5089(4)
H7 H 0.1538 0.3999 0.4673
C12 C 0.15317(14) 0.53935(14) 0.6086(4)
H8 H 0.1237 0.5715 0.6325
N1 N 0.13019(11) 0.48533(11) 0.5421(3)
O1 O 0.37644(10) 0.46398(8) 0.5832(3)
O2 O 0.06527(9) 0.48057(9) 0.4991(3)
O3 O 0.35806(9) 0.55701(10) 0.7029(3)
Pb3 Pb 0.478068(5) 0.535847(5) 0.729490(14)
Pb6 Pb 0.021932(5) 0.964153(5) 0.729490(14)
C13 C 0.07881(13) 0.82438(13) 0.4217(4)
H9 H 0.1191 0.8405 0.4625
C14 C 0.01086(13) 0.73710(12) 0.3483(4)
C15 C 0.07047(14) 0.76143(12) 0.4106(4)
H10 H 0.1049 0.7352 0.4449
C22 C 0.00141(14) 0.66843(13) 0.3266(4)
N4 N 0.02895(11) 0.86285(10) 0.3741(3)
O10 O 0.14194(9) 0.55701(10) 0.2029(3)
O12 O 0.03810(9) 0.92327(8) 0.3907(3)
O15 O 0.04868(10) 0.63397(9) 0.3815(3)
C1 C 0.07881(13) 0.67562(13) 0.9217(4)
H1 H 0.1191 0.6595 0.9625
C2 C 0.01086(13) 0.76290(12) 0.8483(4)
C3 C 0.07047(14) 0.73857(12) 0.9106(4)
H2 H 0.1049 0.7648 0.9449
C10 C 0.00141(14) 0.83157(13) 0.8266(4)
N2 N 0.02895(11) 0.63715(10) 0.8741(3)
O4 O 0.03810(9) 0.57673(8) 0.8907(3)
O6 O 0.04868(10) 0.86603(9) 0.8815(3)
O13 O 0.96190(9) 0.42327(8) 0.1093(3)
Pb2 Pb 0.978068(5) 0.464153(5) 0.770510(14)
Pb5 Pb 0.521932(5) 0.464153(5) 0.270510(14)
C16 C 0.96046(16) 0.77816(14) 0.2989(4)
H11 H 0.9201 0.7630 0.2551
C17 C 0.96990(14) 0.84070(13) 0.3144(4)
H12 H 0.9357 0.8678 0.2839
C18 C 0.73558(12) 0.50068(12) 0.3983(4)
C19 C 0.76152(13) 0.55643(14) 0.4632(4)
H13 H 0.7331 0.5894 0.4877
C20 C 0.77977(14) 0.45314(14) 0.3589(4)
H14 H 0.7640 0.4162 0.3106
C21 C 0.66147(13) 0.49321(13) 0.3715(4)
C23 C 0.82889(13) 0.56274(13) 0.4911(4)
H15 H 0.8462 0.6001 0.5327
C24 C 0.84683(14) 0.46065(14) 0.3914(4)
H16 H 0.8763 0.4285 0.3675
N3 N 0.86981(11) 0.51467(11) 0.4579(3)
O7 O 0.62356(10) 0.53602(8) 0.4168(3)
O8 O 0.93473(9) 0.51943(9) 0.5009(3)
O9 O 0.64194(9) 0.44299(10) 0.2971(3)
O11 O 0.85806(9) 0.44299(10) 0.7971(3)
O14 O 0.94968(11) 0.64823(10) 0.2516(3)
O16 O 0.95132(10) 0.36603(9) 0.6185(3)
C4 C 0.96046(16) 0.72184(14) 0.7989(4)
H3 H 0.9201 0.7370 0.7551
C5 C 0.96990(14) 0.65930(13) 0.8144(4)
H4 H 0.9357 0.6322 0.7839
O5 O 0.94968(11) 0.85177(10) 0.7516(3)
O13_2 O 0.53810(9) 0.07673(8) 0.1093(3)
C6_2 C 0.23558(12) 0.00068(12) 0.6017(4)
C7_2 C 0.26152(13) 0.05643(14) 0.5368(4)
H5_2 H 0.2331 0.0894 0.5123
C11_2 C 0.32889(13) 0.06274(13) 0.5089(4)
H7_2 H 0.3462 0.1001 0.4673
N1_2 N 0.36981(11) 0.01467(11) 0.5421(3)
O1_2 O 0.12356(10) 0.03602(8) 0.5832(3)
O2_2 O 0.43473(9) 0.01943(9) 0.4991(3)
Pb2_2 Pb 0.521932(5) 0.035847(5) 0.770510(14)
Pb5_2 Pb 0.978068(5) 0.035847(5) 0.270510(14)
C20_2 C 0.72023(14) 0.04686(14) 0.3589(4)
H14_2 H 0.7360 0.0838 0.3106
C21_2 C 0.83853(13) 0.00679(13) 0.3715(4)
C24_2 C 0.65317(14) 0.03935(14) 0.3914(4)
H16_2 H 0.6237 0.0715 0.3675
O9_2 O 0.85806(9) 0.05701(10) 0.2971(3)
O11_2 O 0.64194(9) 0.05701(10) 0.7971(3)
O16_2 O 0.54868(10) 0.13397(9) 0.6185(3)
Pb1_2 Pb 0.478068(5) 0.964153(5) 0.229490(14)
C8_2 C 0.27977(14) 0.95314(14) 0.6411(4)
H6_2 H 0.2640 0.9162 0.6894
C9_2 C 0.16147(13) 0.99321(13) 0.6285(4)
C12_2 C 0.34683(14) 0.96065(14) 0.6086(4)
H8_2 H 0.3763 0.9285 0.6325
O3_2 O 0.14194(9) 0.94299(10) 0.7029(3)
C13_2 C 0.42119(13) 0.67562(13) 0.4217(4)
H9_2 H 0.3809 0.6595 0.4625
C14_2 C 0.48914(13) 0.76290(12) 0.3483(4)
C15_2 C 0.42953(14) 0.73857(12) 0.4106(4)
H10_2 H 0.3951 0.7648 0.4449
C16_2 C 0.53954(16) 0.72184(14) 0.2989(4)
H11_2 H 0.5799 0.7370 0.2551
C17_2 C 0.53010(14) 0.65930(13) 0.3144(4)
H12_2 H 0.5643 0.6322 0.2839
C18_2 C 0.76442(12) 0.99932(12) 0.3983(4)
C19_2 C 0.73848(13) 0.94357(14) 0.4632(4)
H13_2 H 0.7669 0.9106 0.4877
C22_2 C 0.49859(14) 0.83157(13) 0.3266(4)
C23_2 C 0.67111(13) 0.93726(13) 0.4911(4)
H15_2 H 0.6538 0.8999 0.5327
N3_2 N 0.63019(11) 0.98533(11) 0.4579(3)
N4_2 N 0.47105(11) 0.63715(10) 0.3741(3)
O7_2 O 0.87644(10) 0.96398(8) 0.4168(3)
O8_2 O 0.56527(9) 0.98057(9) 0.5009(3)
O10_2 O 0.35806(9) 0.94299(10) 0.2029(3)
O12_2 O 0.46190(9) 0.57673(8) 0.3907(3)
O14_2 O 0.55032(11) 0.85177(10) 0.2516(3)
O15_2 O 0.45132(10) 0.86603(9) 0.3815(3)
C1_2 C 0.42119(13) 0.82438(13) 0.9217(4)
H1_2 H 0.3809 0.8405 0.9625
C2_2 C 0.48914(13) 0.73710(12) 0.8483(4)
C3_2 C 0.42953(14) 0.76143(12) 0.9106(4)
H2_2 H 0.3951 0.7352 0.9449
C4_2 C 0.53954(16) 0.77816(14) 0.7989(4)
H3_2 H 0.5799 0.7630 0.7551
C5_2 C 0.53010(14) 0.84070(13) 0.8144(4)
H4_2 H 0.5643 0.8678 0.7839
C10_2 C 0.49859(14) 0.66843(13) 0.8266(4)
N2_2 N 0.47105(11) 0.86285(10) 0.8741(3)
O4_2 O 0.46190(9) 0.92327(8) 0.8907(3)
O5_2 O 0.55032(11) 0.64823(10) 0.7516(3)
O6_2 O 0.45132(10) 0.63397(9) 0.8815(3)
C4_3 C 0.03954(16) 0.22184(14) 0.7011(4)
H3_3 H 0.0799 0.2370 0.7449
C5_3 C 0.03010(14) 0.15930(13) 0.6856(4)
H4_3 H 0.0643 0.1322 0.7161
O5_3 O 0.05032(11) 0.35177(10) 0.7484(3)
C16_3 C 0.03954(16) 0.27816(14) 0.2011(4)
H11_3 H 0.0799 0.2630 0.2449
C17_3 C 0.03010(14) 0.34070(13) 0.1856(4)
H12_3 H 0.0643 0.3678 0.2161
C18_3 C 0.26442(12) 0.00068(12) 0.1017(4)
C19_3 C 0.23848(13) 0.05643(14) 0.0368(4)
H13_3 H 0.2669 0.0894 0.0123
C23_3 C 0.17111(13) 0.06274(13) 0.0089(4)
N3_3 N 0.13019(11) 0.01467(11) 0.0421(3)
O7_3 O 0.37644(10) 0.03602(8) 0.0832(3)
O14_3 O 0.05032(11) 0.14823(10) 0.2484(3)
C20_3 C 0.22023(14) 0.95314(14) 0.1411(4)
H14_3 H 0.2360 0.9162 0.1894
C21_3 C 0.33853(13) 0.99321(13) 0.1285(4)
C24_3 C 0.15317(14) 0.96065(14) 0.1086(4)
H16_3 H 0.1237 0.9285 0.1325
C1_3 C 0.92119(13) 0.17562(13) 0.5783(4)
H1_3 H 0.8809 0.1595 0.5375
C2_3 C 0.98914(13) 0.26290(12) 0.6517(4)
C3_3 C 0.92953(14) 0.23857(12) 0.5894(4)
H2_3 H 0.8951 0.2648 0.5551
C10_3 C 0.99859(14) 0.33157(13) 0.6734(4)
N2_3 N 0.97105(11) 0.13715(10) 0.6259(3)
O4_3 O 0.96190(9) 0.07673(8) 0.6093(3)
C13_3 C 0.92119(13) 0.32438(13) 0.0783(4)
H9_3 H 0.8809 0.3405 0.0375
C14_3 C 0.98914(13) 0.23710(12) 0.1517(4)
C15_3 C 0.92953(14) 0.26143(12) 0.0894(4)
H10_3 H 0.8951 0.2352 0.0551
C22_3 C 0.99859(14) 0.16843(13) 0.1734(4)
N4_3 N 0.97105(11) 0.36285(10) 0.1259(3)
O15_3 O 0.95132(10) 0.13397(9) 0.1185(3)
C8_3 C 0.77977(14) 0.04686(14) 0.8589(4)
H6_3 H 0.7640 0.0838 0.8106
C9_3 C 0.66147(13) 0.00679(13) 0.8715(4)
C12_3 C 0.84683(14) 0.03935(14) 0.8914(4)
H8_3 H 0.8763 0.0715 0.8675
C6_3 C 0.73558(12) 0.99932(12) 0.8983(4)
C7_3 C 0.76152(13) 0.94357(14) 0.9632(4)
H5_3 H 0.7331 0.9106 0.9877
C11_3 C 0.82889(13) 0.93726(13) 0.9911(4)
N1_3 N 0.86981(11) 0.98533(11) 0.9579(3)
O1_3 O 0.62356(10) 0.96398(8) 0.9168(3)
C1_4 C 0.57881(13) 0.32438(13) 0.5783(4)
H1_4 H 0.6191 0.3405 0.5375
C2_4 C 0.51086(13) 0.23710(12) 0.6517(4)
C3_4 C 0.57047(14) 0.26143(12) 0.5894(4)
H2_4 H 0.6049 0.2352 0.5551
C4_4 C 0.46046(16) 0.27816(14) 0.7011(4)
H3_4 H 0.4201 0.2630 0.7449
C5_4 C 0.46990(14) 0.34070(13) 0.6856(4)
H4_4 H 0.4357 0.3678 0.7161
C10_4 C 0.50141(14) 0.16843(13) 0.6734(4)
H7_3 H 0.6538 0.6001 0.0327
N2_4 N 0.52895(11) 0.36285(10) 0.6259(3)
O2_3 O 0.56527(9) 0.51943(9) 0.0009(3)
O4_4 O 0.53810(9) 0.42327(8) 0.6093(3)
O5_4 O 0.44968(11) 0.14823(10) 0.7484(3)
C13_4 C 0.57881(13) 0.17562(13) 0.0783(4)
H9_4 H 0.6191 0.1595 0.0375
C14_4 C 0.51086(13) 0.26290(12) 0.1517(4)
C15_4 C 0.57047(14) 0.23857(12) 0.0894(4)
H10_4 H 0.6049 0.2648 0.0551
C16_4 C 0.46046(16) 0.22184(14) 0.2011(4)
H11_4 H 0.4201 0.2370 0.2449
C17_4 C 0.46990(14) 0.15930(13) 0.1856(4)
H12_4 H 0.4357 0.1322 0.2161
C18_4 C 0.23558(12) 0.49932(12) 0.1017(4)
C19_4 C 0.26152(13) 0.44357(14) 0.0368(4)
H13_4 H 0.2331 0.4106 0.0123
C20_4 C 0.27977(14) 0.54686(14) 0.1411(4)
H14_4 H 0.2640 0.5838 0.1894
C21_4 C 0.16147(13) 0.50679(13) 0.1285(4)
C22_4 C 0.50141(14) 0.33157(13) 0.1734(4)
C23_4 C 0.32889(13) 0.43726(13) 0.0089(4)
C24_4 C 0.34683(14) 0.53935(14) 0.1086(4)
H16_4 H 0.3763 0.5715 0.1325
N3_4 N 0.36981(11) 0.48533(11) 0.0421(3)
N4_4 N 0.52895(11) 0.13715(10) 0.1259(3)
O7_4 O 0.12356(10) 0.46398(8) 0.0832(3)
O14_4 O 0.44968(11) 0.35177(10) 0.2484(3)
O15_4 O 0.54868(10) 0.36603(9) 0.1185(3)
C6_4 C 0.76442(12) 0.50068(12) 0.8983(4)
C7_4 C 0.73848(13) 0.55643(14) 0.9632(4)
H5_4 H 0.7669 0.5894 0.9877
C8_4 C 0.72023(14) 0.45314(14) 0.8589(4)
H6_4 H 0.7360 0.4162 0.8106
C9_4 C 0.83853(13) 0.49321(13) 0.8715(4)
C11_4 C 0.67111(13) 0.56274(13) 0.9911(4)
C12_4 C 0.65317(14) 0.46065(14) 0.8914(4)
H8_4 H 0.6237 0.4285 0.8675
N1_4 N 0.63019(11) 0.51467(11) 0.9579(3)
O1_4 O 0.87644(10) 0.53602(8) 0.9168(3)
H15_3 H 0.3462 0.3999 0.9673
O8_3 O 0.43473(9) 0.48057(9) 0.9991(3)
H15_4 H 0.1538 0.1001 0.9673
O8_4 O 0.06527(9) 0.01943(9) 0.9991(3)
H7_4 H 0.8462 0.8999 0.0327
O2_4 O 0.93473(9) 0.98057(9) 0.0009(3)
loop_
_geom_bond_atom_site_label_1
_geom_bond_atom_site_label_2
_geom_bond_site_symmetry_1
_geom_bond_site_symmetry_2
Pb1 O2 1_555 1_555
C6 C7 1_555 1_555
C7 H5 1_555 1_555
C8 C6 1_555 1_555
H6 C8 1_555 1_555
C9 C6 1_555 1_555
C11 C7 1_555 1_555
H7 C11 1_555 1_555
C12 C8 1_555 1_555
H8 C12 1_555 1_555
N1 C11 1_555 1_555
O1 C9 1_555 1_555
O2 N1 1_555 1_555
O3 C9 1_555 1_555
Pb3 O3 1_555 1_555
Pb6 O12 1_555 1_555
C13 H9 1_555 1_555
C14 C15 1_555 1_555
C15 C13 1_555 1_555
H10 C15 1_555 1_555
C22 C14 1_555 1_555
N4 C13 1_555 1_555
O10 Pb1 1_555 1_555
O12 N4 1_555 1_555
O15 Pb1 1_555 1_555
C12 N1 1_555 1_555
C22 O15 1_555 1_555
C1 H1 1_555 1_555
C2 C3 1_555 1_555
C3 C1 1_555 1_555
H2 C3 1_555 1_555
C10 C2 1_555 1_555
N2 C1 1_555 1_555
O6 C10 1_555 1_555
Pb6 O6 1_555 1_555
N2 O4 1_555 1_555
Pb5 O9 1_555 1_555
H11 C16 1_555 1_555
C17 C16 1_555 1_555
H12 C17 1_555 1_555
C18 C19 1_555 1_555
C19 H13 1_555 1_555
C20 C18 1_555 1_555
H14 C20 1_555 1_555
C21 C18 1_555 1_555
C23 C19 1_555 1_555
H15 C23 1_555 1_555
C24 C20 1_555 1_555
H16 C24 1_555 1_555
N3 C23 1_555 1_555
O7 C21 1_555 1_555
O9 C21 1_555 1_555
O11 Pb2 1_555 1_555
O16 Pb2 1_555 1_555
Pb2 O8 1_555 1_555
C24 N3 1_555 1_555
N3 O8 1_555 1_555
H3 C4 1_555 1_555
C5 C4 1_555 1_555
H4 C5 1_555 1_555
C6_2 C7_2 1_555 1_555
C7_2 H5_2 1_555 1_555
C11_2 C7_2 1_555 1_555
H7_2 C11_2 1_555 1_555
N1_2 C11_2 1_555 1_555
O2_2 N1_2 1_555 1_555
Pb2_2 O2_2 1_555 1_555
Pb5_2 O9_2 1_555 1_555
H14_2 C20_2 1_555 1_555
C24_2 C20_2 1_555 1_555
H16_2 C24_2 1_555 1_555
O9_2 C21_2 1_555 1_555
O11_2 Pb2_2 1_555 1_555
O16_2 Pb2_2 1_555 1_555
H6_2 C8_2 1_555 1_555
C12_2 C8_2 1_555 1_555
H8_2 C12_2 1_555 1_555
O3_2 C9_2 1_555 1_555
Pb6 O3_2 1_555 1_555
Pb3 O12_2 1_555 1_555
C13_2 H9_2 1_555 1_555
C14_2 C15_2 1_555 1_555
C15_2 C13_2 1_555 1_555
H10_2 C15_2 1_555 1_555
C16_2 C14_2 1_555 1_555
H11_2 C16_2 1_555 1_555
C17_2 C16_2 1_555 1_555
H12_2 C17_2 1_555 1_555
C18_2 C19_2 1_555 1_555
C19_2 H13_2 1_555 1_555
C22_2 C14_2 1_555 1_555
C23_2 C19_2 1_555 1_555
H15_2 C23_2 1_555 1_555
N3_2 C23_2 1_555 1_555
N4_2 C13_2 1_555 1_555
O8_2 Pb1_2 1_555 1_555
O10_2 Pb1_2 1_555 1_555
O12_2 N4_2 1_555 1_555
O14_2 C22_2 1_555 1_555
O15_2 Pb1_2 1_555 1_555
C17_2 N4_2 1_555 1_555
C22_2 O15_2 1_555 1_555
N3_2 O8_2 1_555 1_555
C1_2 H1_2 1_555 1_555
C2_2 C3_2 1_555 1_555
C3_2 C1_2 1_555 1_555
H2_2 C3_2 1_555 1_555
C4_2 C2_2 1_555 1_555
H3_2 C4_2 1_555 1_555
C5_2 C4_2 1_555 1_555
H4_2 C5_2 1_555 1_555
C10_2 C2_2 1_555 1_555
N2_2 C1_2 1_555 1_555
O5_2 C10_2 1_555 1_555
O6_2 C10_2 1_555 1_555
Pb3 O6_2 1_555 1_555
C5_2 N2_2 1_555 1_555
N2_2 O4_2 1_555 1_555
H3_3 C4_3 1_555 1_555
C5_3 C4_3 1_555 1_555
H4_3 C5_3 1_555 1_555
H11_3 C16_3 1_555 1_555
C17_3 C16_3 1_555 1_555
H12_3 C17_3 1_555 1_555
C18_3 C19_3 1_555 1_555
C19_3 H13_3 1_555 1_555
C23_3 C19_3 1_555 1_555
N3_3 C23_3 1_555 1_555
H14_3 C20_3 1_555 1_555
C24_3 C20_3 1_555 1_555
H16_3 C24_3 1_555 1_555
O10_2 C21_3 1_555 1_555
C1_3 H1_3 1_555 1_555
C2_3 C3_3 1_555 1_555
C3_3 C1_3 1_555 1_555
H2_3 C3_3 1_555 1_555
C10_3 C2_3 1_555 1_555
N2_3 C1_3 1_555 1_555
O4_3 Pb5_2 1_555 1_555
O16 C10_3 1_555 1_555
C13_3 H9_3 1_555 1_555
C14_3 C15_3 1_555 1_555
C15_3 C13_3 1_555 1_555
H10_3 C15_3 1_555 1_555
C22_3 C14_3 1_555 1_555
N4_3 C13_3 1_555 1_555
O13 N4_3 1_555 1_555
O15_3 Pb5_2 1_555 1_555
N2_3 O4_3 1_555 1_555
C22_3 O15_3 1_555 1_555
H6_3 C8_3 1_555 1_555
C12_3 C8_3 1_555 1_555
H8_3 C12_3 1_555 1_555
O11_2 C9_3 1_555 1_555
C6_3 C7_3 1_555 1_555
C7_3 H5_3 1_555 1_555
C11_3 C7_3 1_555 1_555
N1_3 C11_3 1_555 1_555
Pb5 O2_3 1_555 1_555
C1_4 H1_4 1_555 1_555
C2_4 C3_4 1_555 1_555
C3_4 C1_4 1_555 1_555
H2_4 C3_4 1_555 1_555
C4_4 C2_4 1_555 1_555
H3_4 C4_4 1_555 1_555
C5_4 C4_4 1_555 1_555
H4_4 C5_4 1_555 1_555
C10_4 C2_4 1_555 1_555
N2_4 C1_4 1_555 1_555
O4_4 Pb5 1_555 1_555
O5_4 C10_4 1_555 1_555
O16_2 C10_4 1_555 1_555
C13_4 H9_4 1_555 1_555
C14_4 C15_4 1_555 1_555
C15_4 C13_4 1_555 1_555
H10_4 C15_4 1_555 1_555
C16_4 C14_4 1_555 1_555
H11_4 C16_4 1_555 1_555
C17_4 C16_4 1_555 1_555
H12_4 C17_4 1_555 1_555
C18_4 C19_4 1_555 1_555
C19_4 H13_4 1_555 1_555
C20_4 C18_4 1_555 1_555
H14_4 C20_4 1_555 1_555
C21_4 C18_4 1_555 1_555
C22_4 C14_4 1_555 1_555
C23_4 C19_4 1_555 1_555
C24_4 C20_4 1_555 1_555
H16_4 C24_4 1_555 1_555
N3_4 C23_4 1_555 1_555
N4_4 C13_4 1_555 1_555
O7_4 C21_4 1_555 1_555
O10 C21_4 1_555 1_555
O13_2 N4_4 1_555 1_555
O14_4 C22_4 1_555 1_555
O15_4 Pb5 1_555 1_555
C5_4 N2_4 1_555 1_555
N2_4 O4_4 1_555 1_555
C17_4 N4_4 1_555 1_555
C22_4 O15_4 1_555 1_555
C24_4 N3_4 1_555 1_555
C6_4 C7_4 1_555 1_555
C7_4 H5_4 1_555 1_555
C8_4 C6_4 1_555 1_555
H6_4 C8_4 1_555 1_555
C9_4 C6_4 1_555 1_555
C11_4 C7_4 1_555 1_555
C12_4 C8_4 1_555 1_555
H8_4 C12_4 1_555 1_555
N1_4 C11_4 1_555 1_555
O1_4 C9_4 1_555 1_555
O11 C9_4 1_555 1_555
C12_4 N1_4 1_555 1_555
Pb3 O8_3 1_555 1_555

#END
