
###############################################################################
#
# This file contains modified crystal structure data generated from the
# MOF subset of the Cambridge Structural Database (CSD) v543 
# hosted by the Cambridge Crystallographic Data Centre (CCDC).
#
# This work is licensed under the Creative Commons
# Attribution-NonCommercial-ShareAlike 4.0 International License.
# To view a copy of this license, visit
# http://creativecommons.org/licenses/by-nc-sa/4.0/
# or send a letter to
# Creative Commons, PO Box 1866, Mountain View, CA 94042, USA.
#
# CIF created using the CSD Python API on 29 September 2022
# The structure has been converted into the P1 space group
# The structure has a 3D framework
# The original CSD entry CEZZIR is in the orthorhombic crystal system
# The framework has been calculated to contain at least 10.0% void space
# The void calculation uses a probe of radius 1.32A, grid spacing 0.4
#
###############################################################################

data_CEZZIR
_chemical_formula_moiety         '(C48 H32 N8 O24 Pb1)n'
_symmetry_cell_setting           triclinic
_symmetry_space_group_name_H-M   'P 1'
_symmetry_Int_Tables_number      1
_space_group_name_Hall           'P 1'
loop_
_symmetry_equiv_pos_site_id
_symmetry_equiv_pos_as_xyz
1 x,y,z
_cell_length_a                   13.369(5)
_cell_length_b                   15.588(5)
_cell_length_c                   8.082(5)
_cell_angle_alpha                90
_cell_angle_beta                 90
_cell_angle_gamma                90
_cell_volume                     1684.26
loop_
_atom_site_label
_atom_site_type_symbol
_atom_site_fract_x
_atom_site_fract_y
_atom_site_fract_z
C1 C 0.0654(5) 0.2361(4) 0.0726(8)
H1 H 0.0015 0.2503 0.0367
C2 C 0.1332(4) 0.2987(3) 0.1090(8)
H2 H 0.1143 0.3559 0.0979
C3 C 0.2278(4) 0.2801(3) 0.1614(7)
C4 C 0.2513(5) 0.1951(4) 0.1803(10)
H3 H 0.3146 0.1796 0.2175
C5 C 0.1823(5) 0.1327(4) 0.1448(8)
H4 H 0.1988 0.0753 0.1597
C6 C 0.3050(5) 0.3486(4) 0.1946(8)
N1 N 0.0922(3) 0.1538(3) 0.0893(6)
O1 O 0.0282(3) 0.0913(3) 0.0489(5)
O2 O 0.3927(3) 0.3209(3) 0.2225(5)
O3 O 0.2806(4) 0.4243(3) 0.1924(8)
Pb3 Pb 0.5000 0.442015(14) 0.2500
Pb1 Pb -0.0000 0.057985(14) 0.7500
O8 O 0.1073(3) 0.1791(3) 0.7225(5)
Pb2 Pb 0.0000 0.942015(14) 0.2500
C7 C 0.0654(5) 0.7639(4) 0.5726(8)
H5 H 0.0015 0.7497 0.5367
C8 C 0.1332(4) 0.7013(3) 0.6090(8)
H6 H 0.1143 0.6441 0.5979
C9 C 0.2278(4) 0.7199(3) 0.6614(7)
C10 C 0.2513(5) 0.8049(4) 0.6803(10)
H7 H 0.3146 0.8204 0.7175
C11 C 0.1823(5) 0.8673(4) 0.6448(8)
H8 H 0.1988 0.9247 0.6597
C12 C 0.3050(5) 0.6514(4) 0.6946(8)
N2 N 0.0922(3) 0.8462(3) 0.5893(6)
O4 O 0.0282(3) 0.9087(3) 0.5489(5)
O7 O 0.3927(3) 0.6791(3) 0.7225(5)
O10 O 0.2806(4) 0.5757(3) 0.6924(8)
Pb5 Pb 0.5000 0.557985(14) 0.7500
Pb1_2 Pb 1.0000 0.057985(14) 0.7500
O6 O 0.9718(3) 0.0913(3) 0.4511(5)
O9 O 0.8927(3) 0.1791(3) 0.7775(5)
Pb2_2 Pb 1.0000 0.942015(14) 0.2500
O5 O 0.9718(3) 0.9087(3) 0.9511(5)
C1_2 C 0.4346(5) 0.2639(4) 0.5726(8)
H1_2 H 0.4985 0.2497 0.5367
C2_2 C 0.3668(4) 0.2013(3) 0.6090(8)
H2_2 H 0.3857 0.1441 0.5979
C3_2 C 0.2722(4) 0.2199(3) 0.6614(7)
C4_2 C 0.2487(5) 0.3049(4) 0.6803(10)
H3_2 H 0.1854 0.3204 0.7175
C5_2 C 0.3177(5) 0.3673(4) 0.6448(8)
H4_2 H 0.3012 0.4247 0.6597
C6_2 C 0.1950(5) 0.1514(4) 0.6946(8)
N1_2 N 0.4078(3) 0.3462(3) 0.5893(6)
O1_2 O 0.4718(3) 0.4087(3) 0.5489(5)
O3_2 O 0.2194(4) 0.0757(3) 0.6924(8)
C7_2 C 0.4346(5) 0.7361(4) 0.0726(8)
H5_2 H 0.4985 0.7503 0.0367
C8_2 C 0.3668(4) 0.7987(3) 0.1090(8)
H6_2 H 0.3857 0.8559 0.0979
C9_2 C 0.2722(4) 0.7801(3) 0.1614(7)
C10_2 C 0.2487(5) 0.6951(4) 0.1803(10)
H7_2 H 0.1854 0.6796 0.2175
C11_2 C 0.3177(5) 0.6327(4) 0.1448(8)
H8_2 H 0.3012 0.5753 0.1597
C12_2 C 0.1950(5) 0.8486(4) 0.1946(8)
N2_2 N 0.4078(3) 0.6538(3) 0.0893(6)
O4_2 O 0.4718(3) 0.5913(3) 0.0489(5)
O5_2 O 0.5282(3) 0.5913(3) 0.4511(5)
O7_2 O 0.1073(3) 0.8209(3) 0.2225(5)
O9_2 O 0.6073(3) 0.3209(3) 0.2775(5)
O10_2 O 0.2194(4) 0.9243(3) 0.1924(8)
O6_2 O 0.5282(3) 0.4087(3) 0.9511(5)
C7_3 C 0.5654(5) 0.7361(4) 0.4274(8)
H5_3 H 0.5015 0.7503 0.4633
C8_3 C 0.6332(4) 0.7987(3) 0.3910(8)
H6_3 H 0.6143 0.8559 0.4021
C9_3 C 0.7278(4) 0.7801(3) 0.3386(7)
C10_3 C 0.7513(5) 0.6951(4) 0.3197(10)
H7_3 H 0.8146 0.6796 0.2825
C11_3 C 0.6823(5) 0.6327(4) 0.3552(8)
H8_3 H 0.6988 0.5753 0.3403
C12_3 C 0.8050(5) 0.8486(4) 0.3054(8)
N2_3 N 0.5922(3) 0.6538(3) 0.4107(6)
O7_3 O 0.8927(3) 0.8209(3) 0.2775(5)
O10_3 O 0.7806(4) 0.9243(3) 0.3076(8)
C1_3 C 0.5654(5) 0.2639(4) 0.9274(8)
H1_3 H 0.5015 0.2497 0.9633
C2_3 C 0.6332(4) 0.2013(3) 0.8910(8)
H2_3 H 0.6143 0.1441 0.9021
C3_3 C 0.7278(4) 0.2199(3) 0.8386(7)
C4_3 C 0.7513(5) 0.3049(4) 0.8197(10)
H3_3 H 0.8146 0.3204 0.7825
C5_3 C 0.6823(5) 0.3673(4) 0.8552(8)
H4_3 H 0.6988 0.4247 0.8403
C6_3 C 0.8050(5) 0.1514(4) 0.8054(8)
N1_3 N 0.5922(3) 0.3462(3) 0.9107(6)
O3_3 O 0.7806(4) 0.0757(3) 0.8076(8)
C1_4 C 0.9346(5) 0.2361(4) 0.4274(8)
H1_4 H 0.9985 0.2503 0.4633
C2_4 C 0.8668(4) 0.2987(3) 0.3910(8)
H2_4 H 0.8857 0.3559 0.4021
C3_4 C 0.7722(4) 0.2801(3) 0.3386(7)
C4_4 C 0.7487(5) 0.1951(4) 0.3197(10)
H3_4 H 0.6854 0.1796 0.2825
C5_4 C 0.8177(5) 0.1327(4) 0.3552(8)
H4_4 H 0.8012 0.0753 0.3403
C6_4 C 0.6950(5) 0.3486(4) 0.3054(8)
N1_4 N 0.9078(3) 0.1538(3) 0.4107(6)
O3_4 O 0.7194(4) 0.4243(3) 0.3076(8)
C7_4 C 0.9346(5) 0.7639(4) 0.9274(8)
H5_4 H 0.9985 0.7497 0.9633
C8_4 C 0.8668(4) 0.7013(3) 0.8910(8)
H6_4 H 0.8857 0.6441 0.9021
C9_4 C 0.7722(4) 0.7199(3) 0.8386(7)
C10_4 C 0.7487(5) 0.8049(4) 0.8197(10)
H7_4 H 0.6854 0.8204 0.7825
C11_4 C 0.8177(5) 0.8673(4) 0.8552(8)
H8_4 H 0.8012 0.9247 0.8403
C12_4 C 0.6950(5) 0.6514(4) 0.8054(8)
N2_4 N 0.9078(3) 0.8462(3) 0.9107(6)
O7_4 O 0.6073(3) 0.6791(3) 0.7775(5)
O10_4 O 0.7194(4) 0.5757(3) 0.8076(8)
loop_
_geom_bond_atom_site_label_1
_geom_bond_atom_site_label_2
_geom_bond_site_symmetry_1
_geom_bond_site_symmetry_2
C1 H1 1_555 1_555
C2 C1 1_555 1_555
H2 C2 1_555 1_555
C3 C2 1_555 1_555
C4 C3 1_555 1_555
H3 C4 1_555 1_555
C5 C4 1_555 1_555
H4 C5 1_555 1_555
C6 C3 1_555 1_555
N1 C1 1_555 1_555
O1 N1 1_555 1_555
O2 C6 1_555 1_555
O3 C6 1_555 1_555
Pb3 O2 1_555 1_555
C5 N1 1_555 1_555
O8 Pb1 1_555 1_555
C7 H5 1_555 1_555
C8 C7 1_555 1_555
H6 C8 1_555 1_555
C9 C8 1_555 1_555
C10 C9 1_555 1_555
H7 C10 1_555 1_555
C11 C10 1_555 1_555
H8 C11 1_555 1_555
C12 C9 1_555 1_555
N2 C7 1_555 1_555
O7 C12 1_555 1_555
O10 C12 1_555 1_555
Pb2 O4 1_555 1_555
Pb5 O7 1_555 1_555
C11 N2 1_555 1_555
N2 O4 1_555 1_555
O6 Pb1_2 1_555 1_555
O9 Pb1_2 1_555 1_555
C1_2 H1_2 1_555 1_555
C2_2 C1_2 1_555 1_555
H2_2 C2_2 1_555 1_555
C3_2 C2_2 1_555 1_555
C4_2 C3_2 1_555 1_555
H3_2 C4_2 1_555 1_555
C5_2 C4_2 1_555 1_555
H4_2 C5_2 1_555 1_555
C6_2 C3_2 1_555 1_555
N1_2 C1_2 1_555 1_555
O1_2 N1_2 1_555 1_555
O8 C6_2 1_555 1_555
O3_2 C6_2 1_555 1_555
Pb3 O1_2 1_555 1_555
C7_2 H5_2 1_555 1_555
C8_2 C7_2 1_555 1_555
H6_2 C8_2 1_555 1_555
C9_2 C8_2 1_555 1_555
C10_2 C9_2 1_555 1_555
H7_2 C10_2 1_555 1_555
C11_2 C10_2 1_555 1_555
H8_2 C11_2 1_555 1_555
C12_2 C9_2 1_555 1_555
N2_2 C7_2 1_555 1_555
O4_2 Pb3 1_555 1_555
O5_2 Pb3 1_555 1_555
O7_2 C12_2 1_555 1_555
O9_2 Pb3 1_555 1_555
O10_2 C12_2 1_555 1_555
Pb5 O1_2 1_555 1_555
Pb2 O7_2 1_555 1_555
C5_2 N1_2 1_555 1_555
C11_2 N2_2 1_555 1_555
N2_2 O4_2 1_555 1_555
O5_2 Pb5 1_555 1_555
O6_2 Pb5 1_555 1_555
C7_3 H5_3 1_555 1_555
C8_3 C7_3 1_555 1_555
H6_3 C8_3 1_555 1_555
C9_3 C8_3 1_555 1_555
C10_3 C9_3 1_555 1_555
H7_3 C10_3 1_555 1_555
C11_3 C10_3 1_555 1_555
H8_3 C11_3 1_555 1_555
C12_3 C9_3 1_555 1_555
N2_3 C7_3 1_555 1_555
O7_3 C12_3 1_555 1_555
O10_3 C12_3 1_555 1_555
Pb2_2 O7_3 1_555 1_555
C11_3 N2_3 1_555 1_555
N2_3 O5_2 1_555 1_555
C1_3 H1_3 1_555 1_555
C2_3 C1_3 1_555 1_555
H2_3 C2_3 1_555 1_555
C3_3 C2_3 1_555 1_555
C4_3 C3_3 1_555 1_555
H3_3 C4_3 1_555 1_555
C5_3 C4_3 1_555 1_555
H4_3 C5_3 1_555 1_555
C6_3 C3_3 1_555 1_555
N1_3 C1_3 1_555 1_555
O6_2 N1_3 1_555 1_555
O9 C6_3 1_555 1_555
O3_3 C6_3 1_555 1_555
C5_3 N1_3 1_555 1_555
C1_4 H1_4 1_555 1_555
C2_4 C1_4 1_555 1_555
H2_4 C2_4 1_555 1_555
C3_4 C2_4 1_555 1_555
C4_4 C3_4 1_555 1_555
H3_4 C4_4 1_555 1_555
C5_4 C4_4 1_555 1_555
H4_4 C5_4 1_555 1_555
C6_4 C3_4 1_555 1_555
N1_4 C1_4 1_555 1_555
O6 N1_4 1_555 1_555
O9_2 C6_4 1_555 1_555
O3_4 C6_4 1_555 1_555
C5_4 N1_4 1_555 1_555
C7_4 H5_4 1_555 1_555
C8_4 C7_4 1_555 1_555
H6_4 C8_4 1_555 1_555
C9_4 C8_4 1_555 1_555
C10_4 C9_4 1_555 1_555
H7_4 C10_4 1_555 1_555
C11_4 C10_4 1_555 1_555
H8_4 C11_4 1_555 1_555
C12_4 C9_4 1_555 1_555
N2_4 C7_4 1_555 1_555
O7_4 C12_4 1_555 1_555
O10_4 C12_4 1_555 1_555
Pb5 O7_4 1_555 1_555
C11_4 N2_4 1_555 1_555
N2_4 O5 1_555 1_555

#END
