
###############################################################################
#
# This file contains modified crystal structure data generated from the
# MOF subset of the Cambridge Structural Database (CSD) v543 
# hosted by the Cambridge Crystallographic Data Centre (CCDC).
#
# This work is licensed under the Creative Commons
# Attribution-NonCommercial-ShareAlike 4.0 International License.
# To view a copy of this license, visit
# http://creativecommons.org/licenses/by-nc-sa/4.0/
# or send a letter to
# Creative Commons, PO Box 1866, Mountain View, CA 94042, USA.
#
# CIF created using the CSD Python API on 29 September 2022
# The structure has been converted into the P1 space group
# The structure has a 3D framework
# The original CSD entry CIBTIT is in the triclinic crystal system
# The framework has been calculated to contain at least 10.0% void space
# The void calculation uses a probe of radius 1.32A, grid spacing 0.4
# H atom positions have been added when not included in the experimental data
#
###############################################################################

data_CIBTIT
_chemical_formula_moiety         '(C72 H48 Mn12 O60)n'
_symmetry_cell_setting           triclinic
_symmetry_space_group_name_H-M   'P 1'
_symmetry_Int_Tables_number      1
_space_group_name_Hall           'P 1'
loop_
_symmetry_equiv_pos_site_id
_symmetry_equiv_pos_as_xyz
1 x,y,z
_cell_length_a                   10.2069(6)
_cell_length_b                   19.5446(10)
_cell_length_c                   19.6849(10)
_cell_angle_alpha                88.5880(10)
_cell_angle_beta                 77.5520(10)
_cell_angle_gamma                77.6540(10)
_cell_volume                     3745
loop_
_atom_site_label
_atom_site_type_symbol
_atom_site_fract_x
_atom_site_fract_y
_atom_site_fract_z
Mn9 Mn 0.06548(5) 0.28771(3) 0.84440(3)
Mn4 Mn 0.09409(5) 0.83911(3) 0.22603(3)
O28 O 0.1498(7) 0.8844(3) 0.1108(3)
O31 O 0.1961(4) 0.92720(18) 0.22240(17)
O36 O 0.3127(2) 0.82843(13) 0.24855(12)
O38 O 0.0288(3) 0.79846(16) 0.32239(14)
O44 O 0.1330(2) 0.74584(13) 0.16519(11)
H17 H 0.133008 0.936306 0.113683
H18 H 0.247993 0.865178 0.0896165
C1 C 0.2912(4) 0.38282(17) 0.25538(18)
C2 C 0.2411(3) 0.46091(17) 0.26253(17)
C3 C 0.1070(3) 0.49133(17) 0.25903(19)
H1 H 0.0479 0.4631 0.2524
C4 C 0.0601(3) 0.56363(17) 0.26536(18)
C5 C 0.1474(3) 0.60559(16) 0.27640(17)
H2 H 0.1160 0.6539 0.2811
C6 C 0.2824(3) 0.57560(16) 0.28048(17)
C7 C 0.3286(3) 0.50358(16) 0.27295(17)
H3 H 0.4190 0.4835 0.2749
C8 C 0.3770(3) 0.62137(19) 0.29231(18)
C10 C 0.4847(4) 0.10966(18) 0.23994(18)
C11 C 0.5110(3) 0.03092(17) 0.23389(18)
H4 H 0.7174 0.0101 0.2285
H6 H 0.3146 0.0248 0.2358
C19 C 0.2783(4) 0.23981(18) 0.38133(15)
C20 C 0.2536(3) 0.23778(18) 0.45960(15)
C21 C 0.3603(3) 0.24018(19) 0.49130(16)
H7 H 0.4450 0.2439 0.4642
C22 C 0.3435(3) 0.23714(18) 0.56337(15)
C23 C 0.2167(3) 0.23120(18) 0.60397(16)
H8 H 0.2040 0.2295 0.6522
C24 C 0.1086(3) 0.22782(18) 0.57190(16)
C25 C 0.1270(3) 0.23221(18) 0.49988(16)
H9 H 0.0542 0.2314 0.4787
C27 C 0.4609(3) 0.24066(19) 0.59584(17)
C28 C 0.4492(4) 0.2514(2) 0.10988(16)
C29 C 0.4951(3) 0.2569(2) 0.03196(16)
H10 H 0.3081 0.2709 0.0091
C34 C 0.6339(3) 0.2527(2) 0.00279(16)
H12 H 0.6974 0.2459 0.0311
Mn1 Mn 0.52526(5) 0.25103(2) 0.25285(2)
Mn2 Mn 0.22919(4) 0.23882(2) 0.24017(2)
Mn5 Mn 0.31902(5) 0.78161(3) 0.34964(2)
Mn6 Mn 0.65202(5) 0.65134(3) 0.28473(3)
O2 O 0.2032(3) 0.34727(13) 0.25120(16)
O3 O 0.4164(3) 0.35814(14) 0.25413(16)
O6 O 0.3267(3) 0.68461(14) 0.30474(18)
O7 O 0.5005(3) 0.59225(15) 0.28973(17)
O8 O 0.5798(3) 0.13845(14) 0.24674(15)
O9 O 0.3659(3) 0.14188(13) 0.23797(14)
O13 O 0.3966(3) 0.24529(16) 0.35017(12)
O14 O 0.1824(3) 0.23511(15) 0.35233(12)
O17 O 0.4402(2) 0.24858(13) 0.66201(11)
O18 O 0.5780(3) 0.23496(17) 0.55886(13)
O19 O 0.5387(3) 0.24928(16) 0.14540(12)
O20 O 0.3254(3) 0.24922(18) 0.13355(13)
O25 O 0.6953(3) 0.27503(19) 0.28071(19)
O26 O 0.0526(3) 0.2156(2) 0.22290(17)
O27 O 0.0445(4) 0.6085(2) 0.1143(2)
O29 O 0.2798(4) 0.89025(17) 0.38486(19)
O30 O 0.6675(4) 0.6129(2) 0.39193(17)
Mn15 Mn 0.68098(5) 0.21839(3) 0.65036(2)
Mn18 Mn 0.34798(5) 0.34866(3) 0.71527(3)
O32 O 0.8802(2) 0.66147(12) 0.25494(13)
O33 O 0.8317(3) 0.55662(14) 0.26305(17)
O37 O 0.1257(3) 0.77524(18) 0.41286(14)
O39 O 0.5598(2) 0.75142(13) 0.33799(11)
O40 O 0.4220(3) 0.76504(17) 0.44114(13)
O42 O 0.6182(3) 0.69288(16) 0.18906(13)
O45 O 0.0920(3) 0.7424(2) 0.06072(15)
H13 H 0.182319 0.905241 0.409561
H14 H 0.34054 0.894678 0.416973
H15 H 0.0411476 0.170017 0.244055
H19 H 0.694506 0.560951 0.390592
H20 H 0.737689 0.632635 0.40811
H22 H 0.0874331 0.611734 0.0643445
H23 H 0.696678 0.26089 0.329393
H24 H 0.780253 0.24945 0.249118
C30 C 0.4005(3) 0.26855(18) 0.98968(16)
C31 C 0.4427(3) 0.27673(17) 0.91806(16)
C32 C 0.5818(3) 0.27201(18) 0.88932(15)
H11 H 0.6108 0.2780 0.8418
C33 C 0.6772(3) 0.2584(2) 0.93125(16)
C35 C 0.3400(3) 0.29317(18) 0.87256(17)
C36 C 0.8263(3) 0.2559(2) 0.90124(17)
O21 O 0.2169(3) 0.29125(17) 0.90024(14)
O22 O 0.3818(3) 0.30712(16) 0.81094(13)
O23 O 0.8670(2) 0.25416(13) 0.83481(11)
O24 O 0.9080(3) 0.2576(2) 0.93928(15)
Mn12 Mn 0.90591(5) 0.16089(3) 0.77397(3)
C12 C 0.6437(3) 0.98913(17) 0.22866(18)
C13 C 0.6647(3) 0.91693(17) 0.22375(17)
C14 C 0.5548(3) 0.88441(17) 0.22637(18)
H5 H 0.5687 0.8358 0.2246
C15 C 0.4238(3) 0.92594(18) 0.2318(2)
C16 C 0.4023(3) 0.99791(19) 0.2341(2)
C17 C 0.8084(3) 0.87189(18) 0.21524(18)
C18 C 0.3035(4) 0.8918(2) 0.2340(2)
O10 O 0.9036(3) 0.90203(15) 0.22005(15)
O11 O 0.8229(3) 0.80847(14) 0.20490(17)
Mn7 Mn 0.93452(5) 0.71229(3) 0.15560(3)
C9 C 0.9160(3) 0.59532(17) 0.25964(18)
C26 C 0.9740(3) 0.21749(19) 0.61549(17)
O15 O 0.8743(3) 0.22476(18) 0.58714(14)
O16 O 0.9712(3) 0.20154(16) 0.67761(14)
O41 O 0.7831(3) 0.70875(17) 0.09976(14)
H16 H 0.972793 0.252946 0.244233
H21 H 0.979213 0.576697 0.119249
C9_2 C 0.0840(3) 0.40468(17) 0.74036(18)
C26_2 C 0.0260(3) 0.78251(19) 0.38451(17)
O4 O 0.1198(2) 0.33853(12) 0.74506(13)
O5 O 0.1683(3) 0.44338(14) 0.73695(17)
O34 O 0.1771(3) 0.19153(14) 0.79510(17)
H16_2 H 0.0272073 0.747054 0.755767
H21_2 H 0.0207868 0.423303 0.880751
O1 O 0.8039(4) 0.07280(18) 0.77760(17)
C12_2 C 0.3563(3) 0.01087(17) 0.77134(18)
C13_2 C 0.3353(3) 0.08307(17) 0.77625(17)
C14_2 C 0.4452(3) 0.11559(17) 0.77363(18)
H5_2 H 0.4313 0.1642 0.7754
C15_2 C 0.5762(3) 0.07406(18) 0.7682(2)
C16_2 C 0.5977(3) 0.00209(19) 0.7659(2)
C17_2 C 0.1916(3) 0.12811(18) 0.78476(18)
C18_2 C 0.6965(4) 0.1082(2) 0.7660(2)
O10_2 O 0.0964(3) 0.09797(15) 0.77995(15)
O12 O 0.6873(2) 0.17157(13) 0.75145(12)
C30_2 C 0.5995(3) 0.73145(18) 0.01032(16)
C31_2 C 0.5573(3) 0.72327(17) 0.08194(16)
C32_2 C 0.4182(3) 0.72799(18) 0.11068(15)
H11_2 H 0.3892 0.7220 0.1582
C33_2 C 0.3228(3) 0.7416(2) 0.06875(16)
C35_2 C 0.6600(3) 0.70683(18) 0.12744(17)
C36_2 C 0.1737(3) 0.7441(2) 0.09876(17)
C1_2 C 0.7088(4) 0.61718(17) 0.74462(18)
C2_2 C 0.7589(3) 0.53909(17) 0.73747(17)
C3_2 C 0.8930(3) 0.50867(17) 0.74097(19)
H1_2 H 0.9521 0.5369 0.7476
C4_2 C 0.9399(3) 0.43637(17) 0.73464(18)
C5_2 C 0.8526(3) 0.39441(16) 0.72360(17)
H2_2 H 0.8840 0.3461 0.7189
C6_2 C 0.7176(3) 0.42440(16) 0.71952(17)
C7_2 C 0.6714(3) 0.49642(16) 0.72705(17)
H3_2 H 0.5810 0.5165 0.7251
C8_2 C 0.6230(3) 0.37863(19) 0.70769(18)
C10_2 C 0.5153(4) 0.89034(18) 0.76006(18)
C11_2 C 0.4890(3) 0.96908(17) 0.76611(18)
H4_2 H 0.2826 0.9899 0.7715
H6_2 H 0.6854 0.9752 0.7642
C19_2 C 0.7217(4) 0.76019(18) 0.61867(15)
C20_2 C 0.7464(3) 0.76222(18) 0.54040(15)
C21_2 C 0.6397(3) 0.75982(19) 0.50870(16)
H7_2 H 0.5550 0.7561 0.5358
C22_2 C 0.6565(3) 0.76286(18) 0.43663(15)
C23_2 C 0.7833(3) 0.76880(18) 0.39603(16)
H8_2 H 0.7960 0.7705 0.3478
C24_2 C 0.8914(3) 0.77218(18) 0.42810(16)
C25_2 C 0.8730(3) 0.76779(18) 0.50012(16)
H9_2 H 0.9458 0.7686 0.5213
C27_2 C 0.5391(3) 0.75934(19) 0.40416(17)
C28_2 C 0.5508(4) 0.7486(2) 0.89012(16)
C29_2 C 0.5049(3) 0.7431(2) 0.96804(16)
H10_2 H 0.6919 0.7291 0.9909
C34_2 C 0.3661(3) 0.7473(2) 0.99721(16)
H12_2 H 0.3026 0.7541 0.9689
Mn1_2 Mn 0.47474(5) 0.74897(2) 0.74715(2)
Mn2_2 Mn 0.77081(4) 0.76118(2) 0.75983(2)
O2_2 O 0.7968(3) 0.65273(13) 0.74880(16)
O3_2 O 0.5836(3) 0.64186(14) 0.74587(16)
O6_2 O 0.6733(3) 0.31539(14) 0.69526(18)
O7_2 O 0.4995(3) 0.40775(15) 0.71027(17)
O8_2 O 0.4202(3) 0.86155(14) 0.75326(15)
O9_2 O 0.6341(3) 0.85812(13) 0.76203(14)
O13_2 O 0.6034(3) 0.75471(16) 0.64983(12)
O14_2 O 0.8176(3) 0.76489(15) 0.64767(12)
O19_2 O 0.4613(3) 0.75072(16) 0.85460(12)
O20_2 O 0.6746(3) 0.75078(18) 0.86645(13)
O25_2 O 0.3047(3) 0.72497(19) 0.71929(19)
O26_2 O 0.9474(3) 0.7844(2) 0.77710(17)
O27_2 O 0.9555(4) 0.3915(2) 0.8857(2)
O29_2 O 0.7202(4) 0.10975(17) 0.61514(19)
O30_2 O 0.3325(4) 0.3871(2) 0.60807(17)
H13_2 H 0.817681 0.0947587 0.590439
H14_2 H 0.65946 0.105322 0.583027
H15_2 H 0.958852 0.829983 0.755945
H19_2 H 0.305494 0.439049 0.609408
H20_2 H 0.262311 0.367365 0.59189
H22_2 H 0.912567 0.388266 0.935655
H23_2 H 0.303322 0.73911 0.670607
H24_2 H 0.219747 0.75055 0.750882
O28_2 O 0.8502(7) 0.1156(3) 0.8892(3)
H17_2 H 0.866992 0.0636943 0.886317
H18_2 H 0.752007 0.134822 0.910383
loop_
_geom_bond_atom_site_label_1
_geom_bond_atom_site_label_2
_geom_bond_site_symmetry_1
_geom_bond_site_symmetry_2
O28 Mn4 1_555 1_555
O31 Mn4 1_555 1_555
O36 Mn4 1_555 1_555
O38 Mn4 1_555 1_555
O44 Mn4 1_555 1_555
O28 H17 1_555 1_555
O28 H18 1_555 1_555
C1 C2 1_555 1_555
C2 C3 1_555 1_555
C3 H1 1_555 1_555
C4 C3 1_555 1_555
C5 C4 1_555 1_555
H2 C5 1_555 1_555
C6 C5 1_555 1_555
C7 C2 1_555 1_555
H3 C7 1_555 1_555
C8 C6 1_555 1_555
C10 C11 1_555 1_555
C19 C20 1_555 1_555
C20 C21 1_555 1_555
C21 H7 1_555 1_555
C22 C21 1_555 1_555
C23 C22 1_555 1_555
H8 C23 1_555 1_555
C24 C23 1_555 1_555
C25 C20 1_555 1_555
H9 C25 1_555 1_555
C27 C22 1_555 1_555
C28 C29 1_555 1_555
C34 C29 1_555 1_555
H12 C34 1_555 1_555
Mn1 Mn2 1_555 1_555
Mn2 O2 1_555 1_555
Mn5 O6 1_555 1_555
Mn6 O7 1_555 1_555
O2 C1 1_555 1_555
O3 C1 1_555 1_555
O6 C8 1_555 1_555
O7 C8 1_555 1_555
O8 C10 1_555 1_555
O9 C10 1_555 1_555
O13 C19 1_555 1_555
O14 C19 1_555 1_555
O17 C27 1_555 1_555
O18 C27 1_555 1_555
O19 C28 1_555 1_555
O20 C28 1_555 1_555
O25 Mn1 1_555 1_555
O26 Mn2 1_555 1_555
O29 Mn5 1_555 1_555
O30 Mn6 1_555 1_555
Mn15 O17 1_555 1_555
Mn18 O17 1_555 1_555
O32 Mn6 1_555 1_555
O33 Mn6 1_555 1_555
O36 Mn5 1_555 1_555
O37 Mn5 1_555 1_555
O39 Mn5 1_555 1_555
O40 Mn5 1_555 1_555
O42 Mn6 1_555 1_555
C6 C7 1_555 1_555
C24 C25 1_555 1_555
Mn1 O3 1_555 1_555
Mn1 O8 1_555 1_555
Mn1 O13 1_555 1_555
Mn1 O19 1_555 1_555
Mn2 O9 1_555 1_555
Mn2 O14 1_555 1_555
Mn2 O20 1_555 1_555
Mn6 O39 1_555 1_555
O18 Mn15 1_555 1_555
O29 H13 1_555 1_555
O29 H14 1_555 1_555
O26 H15 1_555 1_555
O30 H19 1_555 1_555
O30 H20 1_555 1_555
O27 H22 1_555 1_555
O25 H23 1_555 1_555
O25 H24 1_555 1_555
C31 C30 1_555 1_555
C32 C31 1_555 1_555
H11 C32 1_555 1_555
C33 C32 1_555 1_555
C35 C31 1_555 1_555
C36 C33 1_555 1_555
O21 C35 1_555 1_555
O22 C35 1_555 1_555
O23 C36 1_555 1_555
O24 C36 1_555 1_555
Mn9 O21 1_555 1_555
Mn12 O23 1_555 1_555
Mn18 O22 1_555 1_555
O31 C18 1_555 1_555
C13 C12 1_555 1_555
C14 C13 1_555 1_555
H5 C14 1_555 1_555
C15 C14 1_555 1_555
C17 C13 1_555 1_555
C18 C15 1_555 1_555
O10 C17 1_555 1_555
O11 C17 1_555 1_555
O36 C18 1_555 1_555
Mn7 O11 1_555 1_555
C15 C16 1_555 1_555
Mn7 O32 1_555 1_555
O32 C9 1_555 1_555
O33 C9 1_555 1_555
O15 C26 1_555 1_555
O16 C26 1_555 1_555
Mn12 O16 1_555 1_555
Mn15 O15 1_555 1_555
O41 Mn7 1_555 1_555
Mn9 O4 1_555 1_555
O4 C9_2 1_555 1_555
O5 C9_2 1_555 1_555
O37 C26_2 1_555 1_555
O38 C26_2 1_555 1_555
Mn18 O4 1_555 1_555
O34 Mn9 1_555 1_555
O5 Mn18 1_555 1_555
O1 C18_2 1_555 1_555
C13_2 C12_2 1_555 1_555
C14_2 C13_2 1_555 1_555
H5_2 C14_2 1_555 1_555
C15_2 C14_2 1_555 1_555
C17_2 C13_2 1_555 1_555
C18_2 C15_2 1_555 1_555
O10_2 C17_2 1_555 1_555
O34 C17_2 1_555 1_555
O12 C18_2 1_555 1_555
Mn12 O1 1_555 1_555
Mn15 O12 1_555 1_555
C15_2 C16_2 1_555 1_555
O12 Mn12 1_555 1_555
C31_2 C30_2 1_555 1_555
C32_2 C31_2 1_555 1_555
H11_2 C32_2 1_555 1_555
C33_2 C32_2 1_555 1_555
C35_2 C31_2 1_555 1_555
C36_2 C33_2 1_555 1_555
O41 C35_2 1_555 1_555
O42 C35_2 1_555 1_555
O44 C36_2 1_555 1_555
O45 C36_2 1_555 1_555
C1_2 C2_2 1_555 1_555
C2_2 C3_2 1_555 1_555
C3_2 H1_2 1_555 1_555
C4_2 C3_2 1_555 1_555
C5_2 C4_2 1_555 1_555
H2_2 C5_2 1_555 1_555
C6_2 C5_2 1_555 1_555
C7_2 C2_2 1_555 1_555
H3_2 C7_2 1_555 1_555
C8_2 C6_2 1_555 1_555
C10_2 C11_2 1_555 1_555
C19_2 C20_2 1_555 1_555
C20_2 C21_2 1_555 1_555
C21_2 H7_2 1_555 1_555
C22_2 C21_2 1_555 1_555
C23_2 C22_2 1_555 1_555
H8_2 C23_2 1_555 1_555
C24_2 C23_2 1_555 1_555
C25_2 C20_2 1_555 1_555
H9_2 C25_2 1_555 1_555
C27_2 C22_2 1_555 1_555
C28_2 C29_2 1_555 1_555
C34_2 C29_2 1_555 1_555
H12_2 C34_2 1_555 1_555
Mn1_2 Mn2_2 1_555 1_555
Mn2_2 O2_2 1_555 1_555
Mn15 O6_2 1_555 1_555
Mn18 O7_2 1_555 1_555
O2_2 C1_2 1_555 1_555
O3_2 C1_2 1_555 1_555
O6_2 C8_2 1_555 1_555
O7_2 C8_2 1_555 1_555
O8_2 C10_2 1_555 1_555
O9_2 C10_2 1_555 1_555
O13_2 C19_2 1_555 1_555
O14_2 C19_2 1_555 1_555
O39 C27_2 1_555 1_555
O40 C27_2 1_555 1_555
O19_2 C28_2 1_555 1_555
O20_2 C28_2 1_555 1_555
O25_2 Mn1_2 1_555 1_555
O26_2 Mn2_2 1_555 1_555
O29_2 Mn15 1_555 1_555
O30_2 Mn18 1_555 1_555
C6_2 C7_2 1_555 1_555
C24_2 C25_2 1_555 1_555
Mn1_2 O3_2 1_555 1_555
Mn1_2 O8_2 1_555 1_555
Mn1_2 O13_2 1_555 1_555
Mn1_2 O19_2 1_555 1_555
Mn2_2 O9_2 1_555 1_555
Mn2_2 O14_2 1_555 1_555
Mn2_2 O20_2 1_555 1_555
O29_2 H13_2 1_555 1_555
O29_2 H14_2 1_555 1_555
O26_2 H15_2 1_555 1_555
O30_2 H19_2 1_555 1_555
O30_2 H20_2 1_555 1_555
O27_2 H22_2 1_555 1_555
O25_2 H23_2 1_555 1_555
O25_2 H24_2 1_555 1_555
O28_2 Mn12 1_555 1_555
O28_2 H17_2 1_555 1_555
O28_2 H18_2 1_555 1_555

#END
