
###############################################################################
#
# This file contains modified crystal structure data generated from the
# MOF subset of the Cambridge Structural Database (CSD) v543 
# hosted by the Cambridge Crystallographic Data Centre (CCDC).
#
# This work is licensed under the Creative Commons
# Attribution-NonCommercial-ShareAlike 4.0 International License.
# To view a copy of this license, visit
# http://creativecommons.org/licenses/by-nc-sa/4.0/
# or send a letter to
# Creative Commons, PO Box 1866, Mountain View, CA 94042, USA.
#
# CIF created using the CSD Python API on 29 September 2022
# The structure has been converted into the P1 space group
# The structure has a 3D framework
# The original CSD entry CICDEA is in the monoclinic crystal system
# The framework has been calculated to contain at least 10.0% void space
# The void calculation uses a probe of radius 1.32A, grid spacing 0.4
#
###############################################################################

data_CICDEA
_chemical_formula_moiety         '(C112 H64 N8 O32 S8 Zn8)n'
_symmetry_cell_setting           triclinic
_symmetry_space_group_name_H-M   'P 1'
_symmetry_Int_Tables_number      1
_space_group_name_Hall           'P 1'
loop_
_symmetry_equiv_pos_site_id
_symmetry_equiv_pos_as_xyz
1 x,y,z
_cell_length_a                   16.7530(10)
_cell_length_b                   15.7679(11)
_cell_length_c                   13.5099(7)
_cell_angle_alpha                90
_cell_angle_beta                 94.909(2)
_cell_angle_gamma                90
_cell_volume                     3555.68
loop_
_atom_site_label
_atom_site_type_symbol
_atom_site_fract_x
_atom_site_fract_y
_atom_site_fract_z
C20 C 0.0588(2) 0.5271(2) 0.1498(3)
N2 N 0.1151(2) 0.4646(2) 0.1385(2)
C21 C 0.0078(3) 0.3653(3) 0.1010(3)
C22 C 0.0895(2) 0.3877(3) 0.1139(3)
H13 H 0.1282 0.3451 0.1043
C23 C 0.0854(3) 0.6111(3) 0.1714(3)
H14 H 0.1411 0.6237 0.1758
C26 C 0.0312(3) 0.6741(3) 0.1861(3)
H16 H 0.0493 0.7303 0.2003
Zn5 Zn 0.23655(3) 0.47648(3) 0.16723(3)
Zn7 Zn 0.23655(3) 0.02352(3) 0.66723(3)
Zn1 Zn 0.41259(3) 0.52419(3) 0.18390(3)
S1 S 0.29388(6) 0.25676(6) 0.43699(7)
S2 S 0.35407(6) 0.75908(6) 0.41301(7)
O1 O 0.25165(17) 0.56448(18) 0.2774(2)
O2 O 0.37618(17) 0.61679(17) 0.2744(2)
O3 O 0.26657(18) 0.38792(18) 0.2758(2)
O4 O 0.39380(18) 0.43523(18) 0.2911(2)
N1 N 0.53266(19) 0.5454(2) 0.1997(2)
C1 C 0.2844(2) 0.6866(3) 0.3668(3)
C2 C 0.6475(2) 0.6220(3) 0.2665(3)
H1 H 0.6692 0.6653 0.3096
C3 C 0.3063(2) 0.6170(3) 0.3015(3)
C4 C 0.3385(3) 0.3848(3) 0.3101(3)
C5 C 0.3624(2) 0.3153(3) 0.3802(3)
C6 C 0.2105(2) 0.7716(3) 0.4632(3)
H2 H 0.1644 0.7911 0.4928
C7 C 0.3679(2) 0.1924(3) 0.4913(3)
C8 C 0.4384(3) 0.2861(3) 0.4019(3)
H3 H 0.4843 0.3111 0.3771
C9 C 0.2842(2) 0.8099(3) 0.4771(3)
C10 C 0.6977(2) 0.5745(3) 0.2096(3)
C11 C 0.6611(3) 0.5120(3) 0.1495(3)
H4 H 0.6926 0.4774 0.1104
C12 C 0.5664(2) 0.6056(3) 0.2593(3)
H5 H 0.5332 0.6383 0.2982
C13 C 0.4417(3) 0.2154(3) 0.4645(3)
H6 H 0.4899 0.1866 0.4861
C14 C 0.2105(3) 0.7007(3) 0.4009(3)
H7 H 0.1648 0.6663 0.3841
C15 C 0.9193(2) 0.5755(3) 0.1581(3)
C16 C 0.8335(3) 0.5571(3) 0.1539(3)
H8 H 0.8121 0.5175 0.1058
C17 C 0.7837(2) 0.5926(3) 0.2135(3)
H9 H 0.8053 0.6322 0.2617
C18 C 0.9484(3) 0.6556(3) 0.1799(3)
H10 H 0.9117 0.6998 0.1911
C19 C 0.5805(3) 0.4997(3) 0.1459(3)
H11 H 0.5572 0.4567 0.1034
H12 H 0.9922 0.3092 0.0828
C24 C 0.9514(3) 0.4255(3) 0.1151(3)
H15 H 0.8962 0.4112 0.1084
C25 C 0.9757(3) 0.5099(3) 0.1398(3)
O5 O 0.40765(17) 0.07520(18) 0.5886(2)
O6 O 0.27649(17) 0.10757(18) 0.5689(2)
C27 C 0.3485(2) 0.1192(2) 0.5545(3)
O7 O 0.24799(18) 0.92560(18) 0.5698(2)
O8 O 0.37892(17) 0.89593(18) 0.56642(19)
C28 C 0.3066(3) 0.8833(2) 0.5426(3)
Zn4 Zn 0.41259(3) 0.97581(3) 0.68390(3)
O9 O 0.40765(17) 0.42480(18) 0.0886(2)
O10 O 0.27649(17) 0.39243(18) 0.0689(2)
O11 O 0.24799(18) 0.57440(18) 0.0698(2)
O12 O 0.37892(17) 0.60407(18) 0.06642(19)
N2_2 N 0.1151(2) 0.0354(2) 0.6385(2)
C21_2 C 0.0078(3) 0.1347(3) 0.6010(3)
C22_2 C 0.0895(2) 0.1123(3) 0.6139(3)
H13_2 H 0.1282 0.1549 0.6043
C27_2 C 0.3485(2) 0.3808(2) 0.0545(3)
S1_2 S 0.29388(6) 0.24324(6) 0.93699(7)
O3_2 O 0.26657(18) 0.11208(18) 0.7758(2)
O4_2 O 0.39380(18) 0.06477(18) 0.7911(2)
C4_2 C 0.3385(3) 0.1152(3) 0.8101(3)
C5_2 C 0.3624(2) 0.1847(3) 0.8802(3)
C7_2 C 0.3679(2) 0.3076(3) 0.9913(3)
C8_2 C 0.4384(3) 0.2139(3) 0.9019(3)
H3_2 H 0.4843 0.1889 0.8771
H4_2 H 0.6926 0.0226 0.6104
C13_2 C 0.4417(3) 0.2846(3) 0.9645(3)
H6_2 H 0.4899 0.3134 0.9861
C19_2 C 0.5805(3) 0.0003(3) 0.6459(3)
H11_2 H 0.5572 0.0433 0.6034
H12_2 H 0.9922 0.1908 0.5828
C24_2 C 0.9514(3) 0.0745(3) 0.6151(3)
H15_2 H 0.8962 0.0888 0.6084
C28_2 C 0.3066(3) 0.6167(2) 0.0426(3)
S2_2 S 0.35407(6) 0.74092(6) 0.91301(7)
O1_2 O 0.25165(17) 0.93552(18) 0.7774(2)
O2_2 O 0.37618(17) 0.88321(17) 0.7744(2)
N1_2 N 0.53266(19) 0.9546(2) 0.6997(2)
C1_2 C 0.2844(2) 0.8134(3) 0.8668(3)
C2_2 C 0.6475(2) 0.8780(3) 0.7665(3)
H1_2 H 0.6692 0.8347 0.8096
C3_2 C 0.3063(2) 0.8830(3) 0.8015(3)
C6_2 C 0.2105(2) 0.7284(3) 0.9632(3)
H2_2 H 0.1644 0.7089 0.9928
C9_2 C 0.2842(2) 0.6901(3) 0.9771(3)
C10_2 C 0.6977(2) 0.9255(3) 0.7096(3)
C11_2 C 0.6611(3) 0.9880(3) 0.6495(3)
C12_2 C 0.5664(2) 0.8944(3) 0.7593(3)
H5_2 H 0.5332 0.8617 0.7982
C14_2 C 0.2105(3) 0.7993(3) 0.9009(3)
H7_2 H 0.1648 0.8337 0.8841
C15_2 C 0.9193(2) 0.9245(3) 0.6581(3)
C16_2 C 0.8335(3) 0.9429(3) 0.6539(3)
H8_2 H 0.8121 0.9825 0.6058
C17_2 C 0.7837(2) 0.9074(3) 0.7135(3)
H9_2 H 0.8053 0.8678 0.7617
C18_2 C 0.9484(3) 0.8444(3) 0.6799(3)
H10_2 H 0.9117 0.8002 0.6911
C25_2 C 0.9757(3) 0.9901(3) 0.6398(3)
Zn1_2 Zn 0.58741(3) 0.02419(3) 0.31610(3)
S2_3 S 0.64593(6) 0.25908(6) 0.08699(7)
O1_3 O 0.74835(17) 0.06448(18) 0.2226(2)
O2_3 O 0.62382(17) 0.11679(17) 0.2256(2)
N1_3 N 0.46734(19) 0.0454(2) 0.3003(2)
C1_3 C 0.7156(2) 0.1866(3) 0.1332(3)
C2_3 C 0.3525(2) 0.1220(3) 0.2335(3)
H1_3 H 0.3308 0.1653 0.1904
C3_3 C 0.6937(2) 0.1170(3) 0.1985(3)
C6_3 C 0.7895(2) 0.2716(3) 0.0368(3)
H2_3 H 0.8356 0.2911 0.0072
C9_3 C 0.7158(2) 0.3099(3) 0.0229(3)
C10_3 C 0.3023(2) 0.0745(3) 0.2904(3)
C11_3 C 0.3389(3) 0.0120(3) 0.3505(3)
C12_3 C 0.4336(2) 0.1056(3) 0.2407(3)
H5_3 H 0.4668 0.1383 0.2018
C14_3 C 0.7895(3) 0.2007(3) 0.0991(3)
H7_3 H 0.8352 0.1663 0.1159
C15_3 C 0.0807(2) 0.0755(3) 0.3419(3)
C16_3 C 0.1665(3) 0.0571(3) 0.3461(3)
H8_3 H 0.1879 0.0175 0.3942
C17_3 C 0.2163(2) 0.0926(3) 0.2865(3)
H9_3 H 0.1947 0.1322 0.2383
C18_3 C 0.0516(3) 0.1556(3) 0.3201(3)
H10_3 H 0.0883 0.1998 0.3089
C25_3 C 0.0243(3) 0.0099(3) 0.3602(3)
O11_2 O 0.75201(18) 0.07440(18) 0.4302(2)
O12_2 O 0.62108(17) 0.10407(18) 0.43358(19)
O7_2 O 0.75201(18) 0.42560(18) 0.9302(2)
O8_2 O 0.62108(17) 0.39593(18) 0.93358(19)
C28_3 C 0.6934(3) 0.3833(2) 0.9574(3)
Zn4_2 Zn 0.58741(3) 0.47581(3) 0.81610(3)
Zn7_2 Zn 0.76345(3) 0.52352(3) 0.83277(3)
Zn2 Zn 0.76345(3) 0.97648(3) 0.33277(3)
S1_3 S 0.70612(6) 0.75676(6) 0.06301(7)
O3_3 O 0.73343(18) 0.88792(18) 0.2242(2)
O4_3 O 0.60620(18) 0.93523(18) 0.2089(2)
C4_3 C 0.6615(3) 0.8848(3) 0.1899(3)
C5_3 C 0.6376(2) 0.8153(3) 0.1198(3)
C7_3 C 0.6321(2) 0.6924(3) 0.0087(3)
C8_3 C 0.5616(3) 0.7861(3) 0.0981(3)
H3_3 H 0.5157 0.8111 0.1229
H4_3 H 0.3074 0.9774 0.3896
C13_3 C 0.5583(3) 0.7154(3) 0.0355(3)
H6_3 H 0.5101 0.6866 0.0139
C19_3 C 0.4195(3) 0.9997(3) 0.3541(3)
H11_3 H 0.4428 0.9567 0.3966
H12_3 H 0.0078 0.8092 0.4172
C24_3 C 0.0486(3) 0.9255(3) 0.3849(3)
H15_3 H 0.1038 0.9112 0.3916
N3 N 0.8849(2) 0.9646(2) 0.3615(2)
O9_2 O 0.59235(17) 0.92480(18) 0.4114(2)
O10_2 O 0.72351(17) 0.89243(18) 0.4311(2)
O5_2 O 0.59235(17) 0.57520(18) 0.9114(2)
O6_2 O 0.72351(17) 0.60757(18) 0.9311(2)
C27_3 C 0.6515(2) 0.6192(2) 0.9455(3)
C21_3 C 0.9922(3) 0.8653(3) 0.3990(3)
C22_3 C 0.9105(2) 0.8877(3) 0.3861(3)
H13_3 H 0.8718 0.8451 0.3957
S1_4 S 0.70612(6) 0.74324(6) 0.56301(7)
S2_4 S 0.64593(6) 0.24092(6) 0.58699(7)
O1_4 O 0.74835(17) 0.43552(18) 0.7226(2)
O2_4 O 0.62382(17) 0.38321(17) 0.7256(2)
O3_4 O 0.73343(18) 0.61208(18) 0.7242(2)
O4_4 O 0.60620(18) 0.56477(18) 0.7089(2)
N1_4 N 0.46734(19) 0.4546(2) 0.8003(2)
C1_4 C 0.7156(2) 0.3134(3) 0.6332(3)
C2_4 C 0.3525(2) 0.3780(3) 0.7335(3)
H1_4 H 0.3308 0.3347 0.6904
C3_4 C 0.6937(2) 0.3830(3) 0.6985(3)
C4_4 C 0.6615(3) 0.6152(3) 0.6899(3)
C5_4 C 0.6376(2) 0.6847(3) 0.6198(3)
C6_4 C 0.7895(2) 0.2284(3) 0.5368(3)
H2_4 H 0.8356 0.2089 0.5072
C7_4 C 0.6321(2) 0.8076(3) 0.5087(3)
C8_4 C 0.5616(3) 0.7139(3) 0.5981(3)
H3_4 H 0.5157 0.6889 0.6229
C9_4 C 0.7158(2) 0.1901(3) 0.5229(3)
C10_4 C 0.3023(2) 0.4255(3) 0.7904(3)
C11_4 C 0.3389(3) 0.4880(3) 0.8505(3)
H4_4 H 0.3074 0.5226 0.8896
C12_4 C 0.4336(2) 0.3944(3) 0.7407(3)
H5_4 H 0.4668 0.3617 0.7018
C13_4 C 0.5583(3) 0.7846(3) 0.5355(3)
H6_4 H 0.5101 0.8134 0.5139
C14_4 C 0.7895(3) 0.2993(3) 0.5991(3)
H7_4 H 0.8352 0.3337 0.6159
C15_4 C 0.0807(2) 0.4245(3) 0.8419(3)
C16_4 C 0.1665(3) 0.4429(3) 0.8461(3)
H8_4 H 0.1879 0.4825 0.8942
C17_4 C 0.2163(2) 0.4074(3) 0.7865(3)
H9_4 H 0.1947 0.3678 0.7383
C18_4 C 0.0516(3) 0.3444(3) 0.8201(3)
H10_4 H 0.0883 0.3002 0.8089
C19_4 C 0.4195(3) 0.5003(3) 0.8541(3)
H11_4 H 0.4428 0.5433 0.8966
H12_4 H 0.0078 0.6908 0.9172
C24_4 C 0.0486(3) 0.5745(3) 0.8849(3)
H15_4 H 0.1038 0.5888 0.8916
C25_4 C 0.0243(3) 0.4901(3) 0.8602(3)
C27_4 C 0.6515(2) 0.8808(2) 0.4455(3)
C28_4 C 0.6934(3) 0.1167(2) 0.4574(3)
N3_2 N 0.8849(2) 0.5354(2) 0.8615(2)
C20_2 C 0.9412(2) 0.4729(2) 0.8502(3)
C21_4 C 0.9922(3) 0.6347(3) 0.8990(3)
C22_4 C 0.9105(2) 0.6123(3) 0.8861(3)
H13_4 H 0.8718 0.6549 0.8957
C23_2 C 0.9146(3) 0.3889(3) 0.8286(3)
H14_2 H 0.8589 0.3763 0.8242
C26_2 C 0.9688(3) 0.3259(3) 0.8139(3)
H16_2 H 0.9507 0.2697 0.7997
C20_3 C 0.9412(2) 0.0271(2) 0.3502(3)
C23_3 C 0.9146(3) 0.1111(3) 0.3286(3)
H14_3 H 0.8589 0.1237 0.3242
C26_3 C 0.9688(3) 0.1741(3) 0.3139(3)
H16_3 H 0.9507 0.2303 0.2997
C20_4 C 0.0588(2) 0.9729(2) 0.6498(3)
C23_4 C 0.0854(3) 0.8889(3) 0.6714(3)
H14_4 H 0.1411 0.8763 0.6758
C26_4 C 0.0312(3) 0.8259(3) 0.6861(3)
H16_4 H 0.0493 0.7697 0.7003
loop_
_geom_bond_atom_site_label_1
_geom_bond_atom_site_label_2
_geom_bond_site_symmetry_1
_geom_bond_site_symmetry_2
C20 N2 1_555 1_555
N2 C22 1_555 1_555
C22 C21 1_555 1_555
H13 C22 1_555 1_555
C23 C20 1_555 1_555
H14 C23 1_555 1_555
H16 C26 1_555 1_555
Zn5 N2 1_555 1_555
C23 C26 1_555 1_555
Zn1 O2 1_555 1_555
Zn5 O1 1_555 1_555
S1 C5 1_555 1_555
S2 C1 1_555 1_555
O1 C3 1_555 1_555
O2 C3 1_555 1_555
O3 Zn5 1_555 1_555
O4 Zn1 1_555 1_555
N1 Zn1 1_555 1_555
C1 C3 1_555 1_555
C2 H1 1_555 1_555
C4 O3 1_555 1_555
C5 C4 1_555 1_555
C6 H2 1_555 1_555
C7 S1 1_555 1_555
C8 C5 1_555 1_555
H3 C8 1_555 1_555
C9 S2 1_555 1_555
C10 C2 1_555 1_555
C11 C10 1_555 1_555
H4 C11 1_555 1_555
C12 N1 1_555 1_555
H5 C12 1_555 1_555
C13 C7 1_555 1_555
H6 C13 1_555 1_555
C14 C1 1_555 1_555
H7 C14 1_555 1_555
C15 C16 1_555 1_555
C16 H8 1_555 1_555
C17 C10 1_555 1_555
H9 C17 1_555 1_555
C18 C15 1_555 1_555
H10 C18 1_555 1_555
C19 N1 1_555 1_555
H11 C19 1_555 1_555
H15 C24 1_555 1_555
C25 C15 1_555 1_555
O5 C27 1_555 1_555
O6 C27 1_555 1_555
C27 C7 1_555 1_555
O7 C28 1_555 1_555
O8 C28 1_555 1_555
C28 C9 1_555 1_555
Zn4 O8 1_555 1_555
Zn7 O6 1_555 1_555
O9 Zn1 1_555 1_555
O10 Zn5 1_555 1_555
O11 Zn5 1_555 1_555
O12 Zn1 1_555 1_555
O4 C4 1_555 1_555
C2 C12 1_555 1_555
C6 C9 1_555 1_555
C6 C14 1_555 1_555
C8 C13 1_555 1_555
C11 C19 1_555 1_555
C16 C17 1_555 1_555
C24 C25 1_555 1_555
N2_2 C22_2 1_555 1_555
C22_2 C21_2 1_555 1_555
H13_2 C22_2 1_555 1_555
Zn7 N2_2 1_555 1_555
O9 C27_2 1_555 1_555
O10 C27_2 1_555 1_555
S1_2 C5_2 1_555 1_555
O3_2 Zn7 1_555 1_555
C4_2 O3_2 1_555 1_555
C5_2 C4_2 1_555 1_555
C7_2 S1_2 1_555 1_555
C8_2 C5_2 1_555 1_555
H3_2 C8_2 1_555 1_555
C13_2 C7_2 1_555 1_555
H6_2 C13_2 1_555 1_555
H11_2 C19_2 1_555 1_555
H15_2 C24_2 1_555 1_555
O4_2 C4_2 1_555 1_555
C8_2 C13_2 1_555 1_555
O11 C28_2 1_555 1_555
O12 C28_2 1_555 1_555
Zn4 O2_2 1_555 1_555
S2_2 C1_2 1_555 1_555
O1_2 C3_2 1_555 1_555
O2_2 C3_2 1_555 1_555
N1_2 Zn4 1_555 1_555
C1_2 C3_2 1_555 1_555
C2_2 H1_2 1_555 1_555
C6_2 H2_2 1_555 1_555
C9_2 S2_2 1_555 1_555
C10_2 C2_2 1_555 1_555
C11_2 C10_2 1_555 1_555
C12_2 N1_2 1_555 1_555
H5_2 C12_2 1_555 1_555
C14_2 C1_2 1_555 1_555
H7_2 C14_2 1_555 1_555
C15_2 C16_2 1_555 1_555
C16_2 H8_2 1_555 1_555
C17_2 C10_2 1_555 1_555
H9_2 C17_2 1_555 1_555
C18_2 C15_2 1_555 1_555
H10_2 C18_2 1_555 1_555
C25_2 C15_2 1_555 1_555
C2_2 C12_2 1_555 1_555
C6_2 C9_2 1_555 1_555
C6_2 C14_2 1_555 1_555
C16_2 C17_2 1_555 1_555
Zn1_2 O2_3 1_555 1_555
S2_3 C1_3 1_555 1_555
O1_3 C3_3 1_555 1_555
O2_3 C3_3 1_555 1_555
N1_3 Zn1_2 1_555 1_555
C1_3 C3_3 1_555 1_555
C2_3 H1_3 1_555 1_555
C6_3 H2_3 1_555 1_555
C9_3 S2_3 1_555 1_555
C10_3 C2_3 1_555 1_555
C11_3 C10_3 1_555 1_555
C12_3 N1_3 1_555 1_555
H5_3 C12_3 1_555 1_555
C14_3 C1_3 1_555 1_555
H7_3 C14_3 1_555 1_555
C15_3 C16_3 1_555 1_555
C16_3 H8_3 1_555 1_555
C17_3 C10_3 1_555 1_555
H9_3 C17_3 1_555 1_555
C18_3 C15_3 1_555 1_555
H10_3 C18_3 1_555 1_555
C25_3 C15_3 1_555 1_555
O12_2 Zn1_2 1_555 1_555
C2_3 C12_3 1_555 1_555
C6_3 C9_3 1_555 1_555
C6_3 C14_3 1_555 1_555
C16_3 C17_3 1_555 1_555
O7_2 C28_3 1_555 1_555
O8_2 C28_3 1_555 1_555
Zn4_2 O8_2 1_555 1_555
Zn7_2 O7_2 1_555 1_555
S1_3 C5_3 1_555 1_555
O3_3 Zn2 1_555 1_555
C4_3 O3_3 1_555 1_555
C5_3 C4_3 1_555 1_555
C7_3 S1_3 1_555 1_555
C8_3 C5_3 1_555 1_555
H3_3 C8_3 1_555 1_555
C13_3 C7_3 1_555 1_555
H6_3 C13_3 1_555 1_555
H11_3 C19_3 1_555 1_555
H15_3 C24_3 1_555 1_555
N3 Zn2 1_555 1_555
O10_2 Zn2 1_555 1_555
O4_3 C4_3 1_555 1_555
C8_3 C13_3 1_555 1_555
O5_2 C27_3 1_555 1_555
O6_2 C27_3 1_555 1_555
Zn4_2 O5_2 1_555 1_555
Zn7_2 O6_2 1_555 1_555
N3 C22_3 1_555 1_555
C22_3 C21_3 1_555 1_555
H13_3 C22_3 1_555 1_555
Zn4_2 O2_4 1_555 1_555
Zn7_2 O1_4 1_555 1_555
S1_4 C5_4 1_555 1_555
S2_4 C1_4 1_555 1_555
O1_4 C3_4 1_555 1_555
O2_4 C3_4 1_555 1_555
O3_4 Zn7_2 1_555 1_555
O4_4 Zn4_2 1_555 1_555
N1_4 Zn4_2 1_555 1_555
C1_4 C3_4 1_555 1_555
C2_4 H1_4 1_555 1_555
C4_4 O3_4 1_555 1_555
C5_4 C4_4 1_555 1_555
C6_4 H2_4 1_555 1_555
C7_4 S1_4 1_555 1_555
C8_4 C5_4 1_555 1_555
H3_4 C8_4 1_555 1_555
C9_4 S2_4 1_555 1_555
C10_4 C2_4 1_555 1_555
C11_4 C10_4 1_555 1_555
H4_4 C11_4 1_555 1_555
C12_4 N1_4 1_555 1_555
H5_4 C12_4 1_555 1_555
C13_4 C7_4 1_555 1_555
H6_4 C13_4 1_555 1_555
C14_4 C1_4 1_555 1_555
H7_4 C14_4 1_555 1_555
C15_4 C16_4 1_555 1_555
C16_4 H8_4 1_555 1_555
C17_4 C10_4 1_555 1_555
H9_4 C17_4 1_555 1_555
C18_4 C15_4 1_555 1_555
H10_4 C18_4 1_555 1_555
C19_4 N1_4 1_555 1_555
H11_4 C19_4 1_555 1_555
H15_4 C24_4 1_555 1_555
C25_4 C15_4 1_555 1_555
O9_2 C27_4 1_555 1_555
O10_2 C27_4 1_555 1_555
C27_4 C7_4 1_555 1_555
O11_2 C28_4 1_555 1_555
O12_2 C28_4 1_555 1_555
C28_4 C9_4 1_555 1_555
N3_2 Zn7_2 1_555 1_555
O4_4 C4_4 1_555 1_555
C2_4 C12_4 1_555 1_555
C6_4 C9_4 1_555 1_555
C6_4 C14_4 1_555 1_555
C8_4 C13_4 1_555 1_555
C11_4 C19_4 1_555 1_555
C16_4 C17_4 1_555 1_555
C24_4 C25_4 1_555 1_555
C20_2 N3_2 1_555 1_555
N3_2 C22_4 1_555 1_555
C22_4 C21_4 1_555 1_555
H13_4 C22_4 1_555 1_555
C23_2 C20_2 1_555 1_555
H14_2 C23_2 1_555 1_555
H16_2 C26_2 1_555 1_555
C23_2 C26_2 1_555 1_555
C23_3 C20_3 1_555 1_555
H14_3 C23_3 1_555 1_555
H16_3 C26_3 1_555 1_555
C23_3 C26_3 1_555 1_555
C23_4 C20_4 1_555 1_555
H14_4 C23_4 1_555 1_555
H16_4 C26_4 1_555 1_555
C23_4 C26_4 1_555 1_555

#END
