
###############################################################################
#
# This file contains modified crystal structure data generated from the
# MOF subset of the Cambridge Structural Database (CSD) v543 
# hosted by the Cambridge Crystallographic Data Centre (CCDC).
#
# This work is licensed under the Creative Commons
# Attribution-NonCommercial-ShareAlike 4.0 International License.
# To view a copy of this license, visit
# http://creativecommons.org/licenses/by-nc-sa/4.0/
# or send a letter to
# Creative Commons, PO Box 1866, Mountain View, CA 94042, USA.
#
# CIF created using the CSD Python API on 29 September 2022
# The structure has been converted into the P1 space group
# The structure has a 3D framework
# The original CSD entry CIDCAW is in the monoclinic crystal system
# The framework has been calculated to contain at least 10.0% void space
# The void calculation uses a probe of radius 1.32A, grid spacing 0.4
# H atom positions have been added when not included in the experimental data
#
###############################################################################

data_CIDCAW
_chemical_formula_moiety         '(C112 H76 Cd12 N16 O76)n'
_symmetry_cell_setting           triclinic
_symmetry_space_group_name_H-M   'P 1'
_symmetry_Int_Tables_number      1
_space_group_name_Hall           'P 1'
loop_
_symmetry_equiv_pos_site_id
_symmetry_equiv_pos_as_xyz
1 x,y,z
_cell_length_a                   12.018(3)
_cell_length_b                   14.091(3)
_cell_length_c                   26.904(6)
_cell_angle_alpha                90
_cell_angle_beta                 92.736(4)
_cell_angle_gamma                90
_cell_volume                     4550.88
loop_
_atom_site_label
_atom_site_type_symbol
_atom_site_fract_x
_atom_site_fract_y
_atom_site_fract_z
O2 O 0.8265(7) 0.0742(5) 0.1505(3)
O9 O 0.3140(7) 0.0627(6) 0.2392(3)
O11 O 0.6525(8) 0.0281(9) 0.4602(4)
O12 O 0.2451(8) 0.1147(7) 0.3086(3)
O15 O 0.7277(12) 0.0099(9) 0.0867(4)
O18 O 0.4875(11) 0.1004(7) 0.4674(4)
C1 C 0.7510(10) 0.0148(9) 0.1314(4)
C11 C 0.3164(10) 0.0694(7) 0.2851(4)
C16 C 0.5584(9) 0.0606(9) 0.4430(4)
C22 C 0.4189(9) 0.0331(8) 0.3145(4)
C25 C 0.4385(10) 0.0585(9) 0.3636(4)
H18 H 0.3867 0.0962 0.3790
C28 C 0.5346(10) 0.0291(8) 0.3911(4)
Cd6 Cd 0.84774(6) 0.08430(5) 0.23574(3)
Cd8 Cd 0.14331(6) 0.15956(5) 0.23755(3)
H19 H 0.520165 0.158272 0.483299
Cd1 Cd 0.61447(8) 0.34217(7) 0.55110(3)
Cd2 Cd 0.65226(6) 0.58430(5) 0.26426(3)
Cd3 Cd 0.35669(6) 0.65956(5) 0.26245(3)
O1 O 0.5353(7) 0.7247(6) 0.2609(3)
O3 O 0.6833(7) 0.1822(7) 0.2414(3)
O4 O 0.4883(11) 0.4395(8) 0.5757(4)
H1 H 0.4939 0.4454 0.6072
H2 H 0.4975 0.4932 0.5622
O5 O 0.4673(6) 0.5200(6) 0.2687(3)
O6 O 0.7780(7) 0.1388(6) 0.3096(3)
O7 O 0.1485(8) 0.1791(6) 0.1530(3)
O8 O 0.7572(11) 0.4531(10) 0.5577(5)
H3 H 0.7928 0.4720 0.5841
H4 H 0.7859 0.4842 0.5343
O10 O 0.4403(9) 0.7545(8) 0.1922(5)
O13 O 0.4894(13) 0.2196(9) 0.5512(5)
H5 H 0.4745 0.2041 0.5817
H6 H 0.5191 0.1678 0.5397
O14 O 0.5576(8) 0.4802(7) 0.2041(4)
O16 O 0.6687(8) 0.2789(8) 0.4736(3)
O17 O 0.5350(9) 0.3885(8) 0.4740(3)
O19 O 0.2262(10) 0.2591(8) 0.0926(3)
N1 N 0.6732(8) 0.8884(6) 0.2392(3)
N2 N 0.7340(7) 0.9548(6) 0.2160(3)
N3 N 0.3253(7) 0.3548(6) 0.2469(3)
N4 N 0.2558(7) 0.2930(6) 0.2228(3)
C2 C 0.7028(9) 0.9482(7) 0.1672(4)
C3 C 0.3884(9) 0.4024(8) 0.2149(4)
C4 C 0.6973(10) 0.1840(8) 0.2879(4)
C5 C 0.5150(9) 0.2680(8) 0.2957(4)
H7 H 0.4969 0.2553 0.2624
C6 C 0.6183(10) 0.2356(8) 0.3174(4)
C7 C 0.6435(11) 0.2524(9) 0.3683(5)
H8 H 0.7093 0.2294 0.3833
C8 C 0.4961(9) 0.9780(9) 0.2906(4)
H9 H 0.4818 0.9615 0.2574
C9 C 0.5963(11) 0.3242(9) 0.4499(4)
C10 C 0.5198(11) 0.7682(9) 0.2193(5)
C12 C 0.6209(10) 0.8779(8) 0.1593(4)
H10 H 0.5851 0.8601 0.1293
C13 C 0.5685(9) 0.3044(8) 0.3961(4)
C14 C 0.5954(10) 0.9463(8) 0.3153(4)
C15 C 0.3318(9) 0.3555(7) 0.3016(4)
H11 H 0.2716 0.3173 0.3137
H12 H 0.3217 0.4200 0.3132
C17 C 0.6114(9) 0.9734(8) 0.3657(4)
H13 H 0.6758 0.9533 0.3831
C18 C 0.4751(9) 0.4713(8) 0.2305(4)
C19 C 0.4673(10) 0.3376(8) 0.3733(4)
H14 H 0.4180 0.3727 0.3916
C20 C 0.6056(10) 0.8419(8) 0.2050(4)
C21 C 0.3598(12) 0.3714(8) 0.1685(4)
H15 H 0.3892 0.3906 0.1388
C23 C 0.6818(9) 0.8839(9) 0.2932(4)
H16 H 0.7555 0.9042 0.3049
H17 H 0.6715 0.8188 0.3039
C24 C 0.4419(9) 0.3176(8) 0.3232(4)
C26 C 0.2128(12) 0.2447(10) 0.1377(5)
C27 C 0.2765(9) 0.3045(7) 0.1749(4)
Cd4 Cd 0.11447(8) 0.15783(7) 0.05110(3)
O20 O 0.6735(7) 0.5742(5) 0.3495(3)
O21 O 0.8167(7) 0.6822(7) 0.2586(3)
O22 O 0.7220(7) 0.6388(6) 0.1904(3)
O23 O 0.3515(8) 0.6791(6) 0.3470(3)
O24 O 0.6485(8) 0.3209(6) 0.6530(3)
O25 O 0.1860(7) 0.5627(6) 0.2608(3)
O26 O 0.2549(8) 0.6147(7) 0.1914(3)
O27 O 0.7262(10) 0.2409(8) 0.5926(3)
N5 N 0.7660(7) 0.4548(6) 0.2840(3)
N6 N 0.2442(7) 0.7930(6) 0.2772(3)
O5_2 O 0.0327(6) 0.0200(6) 0.2313(3)
O10_2 O 0.0597(9) 0.2545(8) 0.3078(5)
O18_2 O 0.0125(11) 0.6004(7) 0.0326(4)
C8_2 C 0.0039(9) 0.4780(9) 0.2094(4)
H9_2 H 0.0182 0.4615 0.2426
C11_2 C 0.1836(10) 0.5694(7) 0.2149(4)
C22_2 C 0.0811(9) 0.5331(8) 0.1855(4)
C25_2 C 0.0615(10) 0.5585(9) 0.1364(4)
H18_2 H 0.1133 0.5962 0.1210
O19_2 O 0.2738(10) 0.7591(8) 0.4074(3)
N3_2 N 0.1747(7) 0.8548(6) 0.2531(3)
C3_2 C 0.1116(9) 0.9024(8) 0.2851(4)
H7_2 H 0.0031 0.7553 0.2376
C15_2 C 0.1682(9) 0.8555(7) 0.1984(4)
H11_2 H 0.2284 0.8173 0.1863
H12_2 H 0.1783 0.9200 0.1868
C18_2 C 0.0249(9) 0.9713(8) 0.2695(4)
C19_2 C 0.0327(10) 0.8376(8) 0.1267(4)
H14_2 H 0.0820 0.8727 0.1084
C21_2 C 0.1402(12) 0.8714(8) 0.3315(4)
H15_2 H 0.1108 0.8906 0.3612
C24_2 C 0.0581(9) 0.8176(8) 0.1768(4)
C26_2 C 0.2872(12) 0.7447(10) 0.3623(5)
C27_2 C 0.2235(9) 0.8045(7) 0.3251(4)
Cd4_2 Cd 0.38553(8) 0.65783(7) 0.44890(3)
O1_2 O 0.9647(7) 0.2247(6) 0.2391(3)
O11_2 O 0.8475(8) 0.5281(9) 0.0398(4)
O15_2 O 0.7723(12) 0.5099(9) 0.4133(4)
N1_2 N 0.8268(8) 0.3884(6) 0.2608(3)
C1_2 C 0.7490(10) 0.5148(9) 0.3686(4)
C2_2 C 0.7972(9) 0.4482(7) 0.3328(4)
C10_2 C 0.9802(11) 0.2682(9) 0.2807(5)
C12_2 C 0.8791(10) 0.3779(8) 0.3407(4)
H10_2 H 0.9149 0.3601 0.3707
C14_2 C 0.9046(10) 0.4463(8) 0.1847(4)
C16_2 C 0.9416(9) 0.5606(9) 0.0570(4)
C17_2 C 0.8886(9) 0.4734(8) 0.1343(4)
H13_2 H 0.8242 0.4533 0.1169
C20_2 C 0.8944(10) 0.3419(8) 0.2950(4)
C23_2 C 0.8182(9) 0.3839(9) 0.2068(4)
H16_2 H 0.7445 0.4042 0.1951
H17_2 H 0.8285 0.3188 0.1961
C28_2 C 0.9654(10) 0.5291(8) 0.1089(4)
H19_2 H 0.979835 0.658272 0.0167008
O14_2 O 0.9424(8) 0.9802(7) 0.2959(4)
O16_2 O 0.8313(8) 0.7789(8) 0.0264(3)
O17_2 O 0.9650(9) 0.8885(8) 0.0260(3)
C4_2 C 0.8027(10) 0.6840(8) 0.2121(4)
C5_2 C 0.9850(9) 0.7680(8) 0.2043(4)
C6_2 C 0.8817(10) 0.7356(8) 0.1826(4)
C7_2 C 0.8565(11) 0.7524(9) 0.1317(5)
H8_2 H 0.7907 0.7294 0.1167
C9_2 C 0.9037(11) 0.8242(9) 0.0501(4)
C13_2 C 0.9315(9) 0.8044(8) 0.1039(4)
Cd1_2 Cd 0.88553(8) 0.84217(7) 0.94890(3)
O8_2 O 0.7428(11) 0.9531(10) 0.9423(5)
H3_2 H 0.7072 0.9720 0.9159
H4_2 H 0.7141 0.9842 0.9657
H6_2 H 0.9809 0.6678 0.9603
O24_2 O 0.8515(8) 0.8209(6) 0.8470(3)
O27_2 O 0.7738(10) 0.7409(8) 0.9074(3)
Cd2_2 Cd 0.34774(6) 0.41570(5) 0.73574(3)
Cd3_2 Cd 0.64331(6) 0.34044(5) 0.73755(3)
O1_3 O 0.4647(7) 0.2753(6) 0.7391(3)
O3_2 O 0.3167(7) 0.8178(7) 0.7586(3)
O4_2 O 0.5117(11) 0.5605(8) 0.4243(4)
H1_2 H 0.5061 0.5546 0.3928
H2_2 H 0.5025 0.5068 0.4378
O5_3 O 0.5327(6) 0.4800(6) 0.7313(3)
O6_2 O 0.2220(7) 0.8612(6) 0.6904(3)
O8_3 O 0.2428(11) 0.5469(10) 0.4423(5)
H3_3 H 0.2072 0.5280 0.4159
H4_3 H 0.2141 0.5158 0.4657
O10_3 O 0.5597(9) 0.2455(8) 0.8078(5)
O13_2 O 0.5106(13) 0.7804(9) 0.4488(5)
H5_2 H 0.5255 0.7959 0.4183
H6_3 H 0.4809 0.8322 0.4603
O14_3 O 0.4424(8) 0.5198(7) 0.7959(4)
O16_3 O 0.3313(8) 0.7211(8) 0.5264(3)
O17_3 O 0.4650(9) 0.6115(8) 0.5260(3)
N1_3 N 0.3268(8) 0.1116(6) 0.7608(3)
N2_2 N 0.2660(7) 0.0452(6) 0.7840(3)
N3_3 N 0.6747(7) 0.6452(6) 0.7531(3)
N4_2 N 0.7442(7) 0.7070(6) 0.7772(3)
C2_3 C 0.2972(9) 0.0518(7) 0.8328(4)
C3_3 C 0.6116(9) 0.5976(8) 0.7851(4)
C4_3 C 0.3027(10) 0.8160(8) 0.7121(4)
C5_3 C 0.4850(9) 0.7320(8) 0.7043(4)
H7_3 H 0.5031 0.7447 0.7376
C6_3 C 0.3817(10) 0.7644(8) 0.6826(4)
C7_3 C 0.3565(11) 0.7476(9) 0.6317(5)
H8_3 H 0.2907 0.7706 0.6167
C8_3 C 0.5039(9) 0.0220(9) 0.7094(4)
H9_3 H 0.5182 0.0385 0.7426
C9_3 C 0.4037(11) 0.6758(9) 0.5501(4)
C10_3 C 0.4802(11) 0.2318(9) 0.7807(5)
C12_3 C 0.3791(10) 0.1221(8) 0.8407(4)
H10_3 H 0.4149 0.1399 0.8707
C13_3 C 0.4315(9) 0.6956(8) 0.6039(4)
C14_3 C 0.4046(10) 0.0537(8) 0.6847(4)
C15_3 C 0.6682(9) 0.6445(7) 0.6984(4)
H11_3 H 0.7284 0.6827 0.6863
H12_3 H 0.6783 0.5800 0.6868
C17_3 C 0.3886(9) 0.0266(8) 0.6343(4)
H13_3 H 0.3242 0.0467 0.6169
C18_3 C 0.5249(9) 0.5287(8) 0.7695(4)
C19_3 C 0.5327(10) 0.6624(8) 0.6267(4)
H14_3 H 0.5820 0.6273 0.6084
C20_3 C 0.3944(10) 0.1581(8) 0.7950(4)
C21_3 C 0.6402(12) 0.6286(8) 0.8315(4)
H15_3 H 0.6108 0.6094 0.8612
C23_3 C 0.3182(9) 0.1161(9) 0.7068(4)
H16_3 H 0.2445 0.0958 0.6951
H17_3 H 0.3285 0.1812 0.6961
C24_3 C 0.5581(9) 0.6824(8) 0.6768(4)
C26_3 C 0.7872(12) 0.7553(10) 0.8623(5)
C27_3 C 0.7235(9) 0.6955(7) 0.8251(4)
Cd5 Cd 0.15226(6) 0.91570(5) 0.76426(3)
Cd7 Cd 0.85669(6) 0.84044(5) 0.76245(3)
O20_2 O 0.3265(7) 0.4258(5) 0.6505(3)
O21_2 O 0.1833(7) 0.3178(7) 0.7414(3)
O22_2 O 0.2780(7) 0.3612(6) 0.8096(3)
O25_2 O 0.8140(7) 0.4373(6) 0.7392(3)
O26_2 O 0.7451(8) 0.3853(7) 0.8086(3)
N5_2 N 0.2340(7) 0.5452(6) 0.7160(3)
N6_2 N 0.7558(7) 0.2070(6) 0.7228(3)
O2_2 O 0.1735(7) 0.9258(5) 0.8495(3)
O9_2 O 0.6860(7) 0.9373(6) 0.7608(3)
O11_3 O 0.3475(8) 0.9719(9) 0.5398(4)
O12_2 O 0.7549(8) 0.8853(7) 0.6914(3)
O15_3 O 0.2723(12) 0.9901(9) 0.9133(4)
O18_3 O 0.5125(11) 0.8996(7) 0.5326(4)
C1_3 C 0.2490(10) 0.9852(9) 0.8686(4)
C11_3 C 0.6836(10) 0.9306(7) 0.7149(4)
C16_3 C 0.4416(9) 0.9394(9) 0.5570(4)
C22_3 C 0.5811(9) 0.9669(8) 0.6855(4)
C25_3 C 0.5615(10) 0.9415(9) 0.6364(4)
H18_3 H 0.6133 0.9038 0.6210
C28_3 C 0.4654(10) 0.9709(8) 0.6089(4)
H19_3 H 0.479835 0.841728 0.516701
O8_4 O 0.2572(11) 0.0469(10) 0.0577(5)
H3_4 H 0.2928 0.0280 0.0841
H4_4 H 0.2859 0.0158 0.0343
H6_4 H 0.0191 0.3322 0.0397
O14_4 O 0.0576(8) 0.0198(7) 0.7041(4)
O16_4 O 0.1687(8) 0.2211(8) 0.9736(3)
O17_4 O 0.0350(9) 0.1115(8) 0.9740(3)
C4_4 C 0.1973(10) 0.3160(8) 0.7879(4)
C5_4 C 0.0150(9) 0.2320(8) 0.7957(4)
C6_4 C 0.1183(10) 0.2644(8) 0.8174(4)
C7_4 C 0.1435(11) 0.2476(9) 0.8683(5)
H8_4 H 0.2093 0.2706 0.8833
C9_4 C 0.0963(11) 0.1758(9) 0.9499(4)
C13_4 C 0.0685(9) 0.1956(8) 0.8961(4)
O1_4 O 0.0353(7) 0.7753(6) 0.7609(3)
O11_4 O 0.1525(8) 0.4719(9) 0.9602(4)
O15_4 O 0.2277(12) 0.4901(9) 0.5867(4)
N1_4 N 0.1732(8) 0.6116(6) 0.7392(3)
C1_4 C 0.2510(10) 0.4852(9) 0.6314(4)
C2_4 C 0.2028(9) 0.5518(7) 0.6672(4)
C10_4 C 0.0198(11) 0.7318(9) 0.7193(5)
C12_4 C 0.1209(10) 0.6221(8) 0.6593(4)
H10_4 H 0.0851 0.6399 0.6293
C14_4 C 0.0954(10) 0.5537(8) 0.8153(4)
C16_4 C 0.0584(9) 0.4394(9) 0.9430(4)
C17_4 C 0.1114(9) 0.5266(8) 0.8657(4)
H13_4 H 0.1758 0.5467 0.8831
C20_4 C 0.1056(10) 0.6581(8) 0.7050(4)
C23_4 C 0.1818(9) 0.6161(9) 0.7932(4)
H16_4 H 0.2555 0.5958 0.8049
H17_4 H 0.1715 0.6812 0.8039
C28_4 C 0.0346(10) 0.4709(8) 0.8911(4)
H19_4 H 0.0201646 0.341728 0.983299
N3_4 N 0.8253(7) 0.1452(6) 0.7469(3)
C3_4 C 0.8884(9) 0.0976(8) 0.7149(4)
H7_4 H 0.9969 0.2447 0.7624
C15_4 C 0.8318(9) 0.1445(7) 0.8016(4)
H11_4 H 0.7716 0.1827 0.8137
H12_4 H 0.8217 0.0800 0.8132
C18_4 C 0.9751(9) 0.0287(8) 0.7305(4)
C19_4 C 0.9673(10) 0.1624(8) 0.8733(4)
H14_4 H 0.9180 0.1273 0.8916
C21_4 C 0.8598(12) 0.1286(8) 0.6685(4)
H15_4 H 0.8892 0.1094 0.6388
C24_4 C 0.9419(9) 0.1824(8) 0.8232(4)
C26_4 C 0.7128(12) 0.2553(10) 0.6377(5)
C27_4 C 0.7765(9) 0.1955(7) 0.6749(4)
O5_4 O 0.9673(6) 0.9800(6) 0.7687(3)
O10_4 O 0.9403(9) 0.7455(8) 0.6922(5)
O18_4 O 0.9875(11) 0.3996(7) 0.9674(4)
C8_4 C 0.9961(9) 0.5220(9) 0.7906(4)
H9_4 H 0.9818 0.5385 0.7574
C11_4 C 0.8164(10) 0.4306(7) 0.7851(4)
C22_4 C 0.9189(9) 0.4669(8) 0.8145(4)
C25_4 C 0.9385(10) 0.4415(9) 0.8636(4)
H18_4 H 0.8867 0.4038 0.8790
O4_3 O 0.0117(11) 0.9395(8) 0.9243(4)
H1_3 H 0.0061 0.9454 0.8928
H2_3 H 0.0025 0.9932 0.9378
O13_3 O 0.0106(13) 0.7196(9) 0.9488(5)
H5_3 H 0.0255 0.7041 0.9183
O4_4 O 0.9883(11) 0.0605(8) 0.0757(4)
H1_4 H 0.9939 0.0546 0.1072
H2_4 H 0.9975 0.0068 0.0622
O13_4 O 0.9894(13) 0.2804(9) 0.0512(5)
H5_4 H 0.9745 0.2959 0.0817
loop_
_geom_bond_atom_site_label_1
_geom_bond_atom_site_label_2
_geom_bond_site_symmetry_1
_geom_bond_site_symmetry_2
O2 C1 1_555 1_555
O9 C11 1_555 1_555
O11 C16 1_555 1_555
O12 C11 1_555 1_555
O15 C1 1_555 1_555
O18 C16 1_555 1_555
C11 C22 1_555 1_555
C16 C28 1_555 1_555
C25 C22 1_555 1_555
H18 C25 1_555 1_555
Cd6 O2 1_555 1_555
Cd8 O9 1_555 1_555
O12 Cd8 1_555 1_555
C25 C28 1_555 1_555
O18 H19 1_555 1_555
Cd1 O4 1_555 1_555
Cd2 O1 1_555 1_555
Cd3 O1 1_555 1_555
O1 C10 1_555 1_555
O3 C4 1_555 1_555
O4 H1 1_555 1_555
H2 O4 1_555 1_555
O5 Cd2 1_555 1_555
O6 C4 1_555 1_555
O7 C26 1_555 1_555
O8 Cd1 1_555 1_555
H3 O8 1_555 1_555
H4 O8 1_555 1_555
O10 Cd3 1_555 1_555
O13 Cd1 1_555 1_555
H5 O13 1_555 1_555
H6 O13 1_555 1_555
O14 Cd2 1_555 1_555
O16 Cd1 1_555 1_555
O17 Cd1 1_555 1_555
O19 C26 1_555 1_555
N1 N2 1_555 1_555
N2 C2 1_555 1_555
N3 N4 1_555 1_555
N4 C27 1_555 1_555
C2 C12 1_555 1_555
C3 N3 1_555 1_555
C4 C6 1_555 1_555
C5 H7 1_555 1_555
C6 C5 1_555 1_555
C7 C6 1_555 1_555
H8 C7 1_555 1_555
C8 H9 1_555 1_555
C9 O16 1_555 1_555
C10 O10 1_555 1_555
C12 H10 1_555 1_555
C13 C7 1_555 1_555
C14 C8 1_555 1_555
C15 N3 1_555 1_555
H11 C15 1_555 1_555
H12 C15 1_555 1_555
C17 C14 1_555 1_555
H13 C17 1_555 1_555
C18 O5 1_555 1_555
C19 C13 1_555 1_555
H14 C19 1_555 1_555
C20 N1 1_555 1_555
C21 C3 1_555 1_555
H15 C21 1_555 1_555
C23 N1 1_555 1_555
H16 C23 1_555 1_555
H17 C23 1_555 1_555
C24 C5 1_555 1_555
C26 C27 1_555 1_555
C27 C21 1_555 1_555
Cd4 O7 1_555 1_555
Cd6 O3 1_555 1_555
Cd8 O7 1_555 1_555
O20 Cd2 1_555 1_555
O21 Cd2 1_555 1_555
O22 Cd2 1_555 1_555
O23 Cd3 1_555 1_555
O24 Cd1 1_555 1_555
O25 Cd3 1_555 1_555
O26 Cd3 1_555 1_555
O27 Cd1 1_555 1_555
N5 Cd2 1_555 1_555
N6 Cd3 1_555 1_555
Cd3 O5 1_555 1_555
O6 Cd6 1_555 1_555
O14 C18 1_555 1_555
O17 C9 1_555 1_555
O19 Cd4 1_555 1_555
N4 Cd8 1_555 1_555
C3 C18 1_555 1_555
C9 C13 1_555 1_555
C10 C20 1_555 1_555
C12 C20 1_555 1_555
C14 C23 1_555 1_555
C15 C24 1_555 1_555
C19 C24 1_555 1_555
O25 C11_2 1_555 1_555
O10_2 Cd8 1_555 1_555
O26 C11_2 1_555 1_555
C8_2 H9_2 1_555 1_555
C11_2 C22_2 1_555 1_555
C22_2 C8_2 1_555 1_555
C25_2 C22_2 1_555 1_555
H18_2 C25_2 1_555 1_555
Cd8 O5_2 1_555 1_555
O23 C26_2 1_555 1_555
O19_2 C26_2 1_555 1_555
N3_2 N6 1_555 1_555
N6 C27_2 1_555 1_555
C3_2 N3_2 1_555 1_555
C15_2 N3_2 1_555 1_555
H11_2 C15_2 1_555 1_555
H12_2 C15_2 1_555 1_555
H14_2 C19_2 1_555 1_555
C21_2 C3_2 1_555 1_555
H15_2 C21_2 1_555 1_555
C26_2 C27_2 1_555 1_555
C27_2 C21_2 1_555 1_555
Cd4_2 O23 1_555 1_555
O19_2 Cd4_2 1_555 1_555
C3_2 C18_2 1_555 1_555
C15_2 C24_2 1_555 1_555
C19_2 C24_2 1_555 1_555
Cd6 O1_2 1_555 1_555
O1_2 C10_2 1_555 1_555
O20 C1_2 1_555 1_555
O11_2 C16_2 1_555 1_555
O15_2 C1_2 1_555 1_555
N1_2 N5 1_555 1_555
N5 C2_2 1_555 1_555
C1_2 C2_2 1_555 1_555
C2_2 C12_2 1_555 1_555
C12_2 H10_2 1_555 1_555
C16_2 C28_2 1_555 1_555
C17_2 C14_2 1_555 1_555
H13_2 C17_2 1_555 1_555
C20_2 N1_2 1_555 1_555
C23_2 N1_2 1_555 1_555
H16_2 C23_2 1_555 1_555
H17_2 C23_2 1_555 1_555
C28_2 C17_2 1_555 1_555
C10_2 C20_2 1_555 1_555
C12_2 C20_2 1_555 1_555
C14_2 C23_2 1_555 1_555
O21 C4_2 1_555 1_555
O22 C4_2 1_555 1_555
C4_2 C6_2 1_555 1_555
C6_2 C5_2 1_555 1_555
C7_2 C6_2 1_555 1_555
H8_2 C7_2 1_555 1_555
C9_2 O16_2 1_555 1_555
C13_2 C7_2 1_555 1_555
O17_2 C9_2 1_555 1_555
C9_2 C13_2 1_555 1_555
O8_2 Cd1_2 1_555 1_555
H3_2 O8_2 1_555 1_555
H4_2 O8_2 1_555 1_555
O24_2 Cd1_2 1_555 1_555
O27_2 Cd1_2 1_555 1_555
Cd4_2 O4_2 1_555 1_555
Cd2_2 O1_3 1_555 1_555
Cd3_2 O1_3 1_555 1_555
O1_3 C10_3 1_555 1_555
O3_2 C4_3 1_555 1_555
O4_2 H1_2 1_555 1_555
H2_2 O4_2 1_555 1_555
O5_3 Cd2_2 1_555 1_555
O6_2 C4_3 1_555 1_555
O24_2 C26_3 1_555 1_555
O8_3 Cd4_2 1_555 1_555
H3_3 O8_3 1_555 1_555
H4_3 O8_3 1_555 1_555
O10_3 Cd3_2 1_555 1_555
O13_2 Cd4_2 1_555 1_555
H5_2 O13_2 1_555 1_555
H6_3 O13_2 1_555 1_555
O14_3 Cd2_2 1_555 1_555
O16_3 Cd4_2 1_555 1_555
O17_3 Cd4_2 1_555 1_555
O27_2 C26_3 1_555 1_555
N1_3 N2_2 1_555 1_555
N2_2 C2_3 1_555 1_555
N3_3 N4_2 1_555 1_555
N4_2 C27_3 1_555 1_555
C2_3 C12_3 1_555 1_555
C3_3 N3_3 1_555 1_555
C4_3 C6_3 1_555 1_555
C5_3 H7_3 1_555 1_555
C6_3 C5_3 1_555 1_555
C7_3 C6_3 1_555 1_555
H8_3 C7_3 1_555 1_555
C8_3 H9_3 1_555 1_555
C9_3 O16_3 1_555 1_555
C10_3 O10_3 1_555 1_555
C12_3 H10_3 1_555 1_555
C13_3 C7_3 1_555 1_555
C14_3 C8_3 1_555 1_555
C15_3 N3_3 1_555 1_555
H11_3 C15_3 1_555 1_555
H12_3 C15_3 1_555 1_555
C17_3 C14_3 1_555 1_555
H13_3 C17_3 1_555 1_555
C18_3 O5_3 1_555 1_555
C19_3 C13_3 1_555 1_555
H14_3 C19_3 1_555 1_555
C20_3 N1_3 1_555 1_555
C21_3 C3_3 1_555 1_555
H15_3 C21_3 1_555 1_555
C23_3 N1_3 1_555 1_555
H16_3 C23_3 1_555 1_555
H17_3 C23_3 1_555 1_555
C24_3 C5_3 1_555 1_555
C26_3 C27_3 1_555 1_555
C27_3 C21_3 1_555 1_555
Cd5 O3_2 1_555 1_555
Cd7 O24_2 1_555 1_555
O20_2 Cd2_2 1_555 1_555
O21_2 Cd2_2 1_555 1_555
O22_2 Cd2_2 1_555 1_555
O24 Cd3_2 1_555 1_555
O25_2 Cd3_2 1_555 1_555
O26_2 Cd3_2 1_555 1_555
N5_2 Cd2_2 1_555 1_555
N6_2 Cd3_2 1_555 1_555
Cd3_2 O5_3 1_555 1_555
O6_2 Cd5 1_555 1_555
O14_3 C18_3 1_555 1_555
O17_3 C9_3 1_555 1_555
N4_2 Cd7 1_555 1_555
C3_3 C18_3 1_555 1_555
C9_3 C13_3 1_555 1_555
C10_3 C20_3 1_555 1_555
C12_3 C20_3 1_555 1_555
C14_3 C23_3 1_555 1_555
C15_3 C24_3 1_555 1_555
C19_3 C24_3 1_555 1_555
O2_2 C1_3 1_555 1_555
O9_2 C11_3 1_555 1_555
O11_3 C16_3 1_555 1_555
O12_2 C11_3 1_555 1_555
O15_3 C1_3 1_555 1_555
O18_3 C16_3 1_555 1_555
C11_3 C22_3 1_555 1_555
C16_3 C28_3 1_555 1_555
C25_3 C22_3 1_555 1_555
H18_3 C25_3 1_555 1_555
Cd5 O2_2 1_555 1_555
Cd7 O9_2 1_555 1_555
O12_2 Cd7 1_555 1_555
C25_3 C28_3 1_555 1_555
O18_3 H19_3 1_555 1_555
O8_4 Cd4 1_555 1_555
H3_4 O8_4 1_555 1_555
H4_4 O8_4 1_555 1_555
O21_2 C4_4 1_555 1_555
O22_2 C4_4 1_555 1_555
C4_4 C6_4 1_555 1_555
C6_4 C5_4 1_555 1_555
C7_4 C6_4 1_555 1_555
H8_4 C7_4 1_555 1_555
C9_4 O16_4 1_555 1_555
C13_4 C7_4 1_555 1_555
O17_4 C9_4 1_555 1_555
C9_4 C13_4 1_555 1_555
Cd5 O1_4 1_555 1_555
O1_4 C10_4 1_555 1_555
O20_2 C1_4 1_555 1_555
O11_4 C16_4 1_555 1_555
O15_4 C1_4 1_555 1_555
N1_4 N5_2 1_555 1_555
N5_2 C2_4 1_555 1_555
C1_4 C2_4 1_555 1_555
C2_4 C12_4 1_555 1_555
C12_4 H10_4 1_555 1_555
C16_4 C28_4 1_555 1_555
C17_4 C14_4 1_555 1_555
H13_4 C17_4 1_555 1_555
C20_4 N1_4 1_555 1_555
C23_4 N1_4 1_555 1_555
H16_4 C23_4 1_555 1_555
H17_4 C23_4 1_555 1_555
C28_4 C17_4 1_555 1_555
C10_4 C20_4 1_555 1_555
C12_4 C20_4 1_555 1_555
C14_4 C23_4 1_555 1_555
O24 C26_4 1_555 1_555
O27 C26_4 1_555 1_555
N3_4 N6_2 1_555 1_555
N6_2 C27_4 1_555 1_555
C3_4 N3_4 1_555 1_555
C15_4 N3_4 1_555 1_555
H11_4 C15_4 1_555 1_555
H12_4 C15_4 1_555 1_555
H14_4 C19_4 1_555 1_555
C21_4 C3_4 1_555 1_555
H15_4 C21_4 1_555 1_555
C26_4 C27_4 1_555 1_555
C27_4 C21_4 1_555 1_555
C3_4 C18_4 1_555 1_555
C15_4 C24_4 1_555 1_555
C19_4 C24_4 1_555 1_555
O25_2 C11_4 1_555 1_555
O10_4 Cd7 1_555 1_555
O26_2 C11_4 1_555 1_555
C8_4 H9_4 1_555 1_555
C11_4 C22_4 1_555 1_555
C22_4 C8_4 1_555 1_555
C25_4 C22_4 1_555 1_555
H18_4 C25_4 1_555 1_555
Cd7 O5_4 1_555 1_555
O4_3 H1_3 1_555 1_555
H2_3 O4_3 1_555 1_555
H5_3 O13_3 1_555 1_555
O4_4 H1_4 1_555 1_555
H2_4 O4_4 1_555 1_555
H5_4 O13_4 1_555 1_555

#END
