
###############################################################################
#
# This file contains modified crystal structure data generated from the
# MOF subset of the Cambridge Structural Database (CSD) v543 
# hosted by the Cambridge Crystallographic Data Centre (CCDC).
#
# This work is licensed under the Creative Commons
# Attribution-NonCommercial-ShareAlike 4.0 International License.
# To view a copy of this license, visit
# http://creativecommons.org/licenses/by-nc-sa/4.0/
# or send a letter to
# Creative Commons, PO Box 1866, Mountain View, CA 94042, USA.
#
# CIF created using the CSD Python API on 29 September 2022
# The structure has been converted into the P1 space group
# The structure has a 3D framework
# The original CSD entry CIGWAT is in the triclinic crystal system
# The framework has been calculated to contain at least 10.0% void space
# The void calculation uses a probe of radius 1.32A, grid spacing 0.4
#
###############################################################################

data_CIGWAT
_chemical_formula_moiety         '(C60 H36 N7 O16 Zn4)n'
_symmetry_cell_setting           triclinic
_symmetry_space_group_name_H-M   'P 1'
_symmetry_Int_Tables_number      1
_space_group_name_Hall           'P 1'
loop_
_symmetry_equiv_pos_site_id
_symmetry_equiv_pos_as_xyz
1 x,y,z
_cell_length_a                   9.6690(19)
_cell_length_b                   13.649(3)
_cell_length_c                   14.082(3)
_cell_angle_alpha                109.91(3)
_cell_angle_beta                 106.20(3)
_cell_angle_gamma                99.92(3)
_cell_volume                     1602.76
loop_
_atom_site_label
_atom_site_type_symbol
_atom_site_fract_x
_atom_site_fract_y
_atom_site_fract_z
Zn5 Zn 0.000000 0.500000 0.000000
Zn9 Zn 0.500000 0.500000 0.000000
O11 O 0.0417(4) 0.4463(3) 0.8491(3)
O12 O 0.1732(4) 0.6178(4) 0.7335(3)
O15 O 0.2747(4) 0.4305(4) 0.8967(4)
N7 N 0.0439(5) 0.4382(4) 0.6504(4)
C46 C 0.0578(5) 0.5479(5) 0.6679(4)
H29 H 0.020969 0.734573 0.669411
C54 C 0.1587(6) 0.4336(5) 0.8320(5)
C60 C 0.1647(7) 0.4147(6) 0.7192(5)
H35 H 0.160515 0.337678 0.681864
H36 H 0.262522 0.461081 0.728552
Zn5_2 Zn 0.000000 0.500000 1.000000
Zn9_2 Zn 0.500000 0.500000 1.000000
N5 N 0.0017(4) 0.3517(3) 0.0161(4)
C35 C 0.0999(6) 0.2965(4) 0.9919(5)
H22 H 0.176021 0.328928 0.972032
C36 C 0.0956(6) 0.1968(5) 0.9943(6)
H23 H 0.166539 0.161544 0.975104
Zn5_3 Zn 1.000000 0.500000 0.000000
O9 O 0.4480(4) 0.5339(3) 0.1438(3)
O10 O 0.2321(4) 0.5726(4) 0.0914(3)
O13 O 0.3067(4) 0.3693(4) 0.2542(4)
O14 O 0.5662(5) 0.7279(4) 0.4093(4)
O16 O 0.9122(5) 0.2571(4) 0.5724(4)
C43 C 0.9285(5) 0.5707(4) 0.6019(4)
N8 N 0.4333(5) 0.5480(5) 0.3377(4)
C44 C 0.8004(5) 0.4829(4) 0.5262(4)
C45 C 0.5501(6) 0.4189(5) 0.3876(4)
C47 C 0.9171(6) 0.3498(5) 0.5797(5)
C48 C 0.3333(6) 0.5560(4) 0.1561(5)
C49 C 0.6785(5) 0.5063(4) 0.4623(4)
C50 C 0.4187(6) 0.4400(5) 0.3199(5)
C51 C 0.7892(6) 0.3733(5) 0.5110(5)
C52 C 0.6881(6) 0.6148(5) 0.4763(5)
C53 C 0.9351(6) 0.6764(5) 0.6161(4)
C55 C 0.5430(6) 0.3120(5) 0.3736(5)
H30 H 0.457089 0.253740 0.320432
C56 C 0.8147(6) 0.6989(5) 0.5518(5)
H31 H 0.820852 0.771875 0.560547
C57 C 0.6621(6) 0.2902(5) 0.4377(5)
H32 H 0.654890 0.217577 0.430599
C58 C 0.5608(6) 0.6372(5) 0.4063(5)
C59 C 0.3102(7) 0.5675(6) 0.2633(5)
H33 H 0.213254 0.514799 0.246533
H34 H 0.304098 0.641795 0.299943
Zn5_4 Zn 1.000000 0.500000 1.000000
C8 C 0.1061(6) 0.7946(4) 0.9420(5)
H1 H 0.176367 0.822429 0.915086
C14 C 0.0967(6) 0.6946(4) 0.9482(5)
H4 H 0.163350 0.656286 0.926090
C15 C 0.0267(7) 0.9628(5) 0.9741(6)
H5 H 0.079659 0.980739 0.931834
C17 C 0.0126(6) 0.8538(5) 0.9752(5)
C31 C 0.8939(6) 0.2054(4) 0.0580(5)
H19 H 0.823633 0.177571 0.084914
C32 C 0.9033(6) 0.3054(4) 0.0518(5)
H20 H 0.836650 0.343714 0.073910
C33 C 0.9733(7) 0.0372(5) 0.0259(6)
H21 H 0.920341 0.019261 0.068166
C34 C 0.9874(6) 0.1462(5) 0.0248(5)
C19 C 0.9001(6) 0.7035(4) 0.0081(5)
H7 H 0.823979 0.671072 0.027968
C24 C 0.9044(6) 0.8032(5) 0.0057(6)
H11 H 0.833461 0.838456 0.024896
O19 O 0.9583(4) 0.5537(3) 0.1509(3)
O1 O 0.5520(4) 0.4661(3) 0.8562(3)
O2 O 0.7679(4) 0.4274(4) 0.9086(3)
O5 O 0.6933(4) 0.6307(4) 0.7458(4)
N1 N 0.9983(4) 0.6483(3) 0.9839(4)
O6 O 0.4338(5) 0.2721(4) 0.5907(4)
O8 O 0.0878(5) 0.7429(4) 0.4276(4)
C1 C 0.0715(5) 0.4293(4) 0.3981(4)
N4 N 0.5667(5) 0.4520(5) 0.6623(4)
C2 C 0.1996(5) 0.5171(4) 0.4738(4)
C3 C 0.4499(6) 0.5811(5) 0.6124(4)
C5 C 0.0829(6) 0.6502(5) 0.4203(5)
C6 C 0.6667(6) 0.4440(4) 0.8439(5)
C7 C 0.3215(5) 0.4937(4) 0.5377(4)
C9 C 0.5813(6) 0.5600(5) 0.6801(5)
C10 C 0.2108(6) 0.6267(5) 0.4890(5)
C11 C 0.3119(6) 0.3852(5) 0.5237(5)
C13 C 0.0649(6) 0.3236(5) 0.3839(4)
C18 C 0.4570(6) 0.6880(5) 0.6264(5)
H6 H 0.542911 0.746260 0.679568
C21 C 0.1853(6) 0.3011(5) 0.4482(5)
H9 H 0.179148 0.228125 0.439453
C22 C 0.3379(6) 0.7098(5) 0.5623(5)
H10 H 0.345110 0.782423 0.569401
C23 C 0.4392(6) 0.3628(5) 0.5937(5)
C26 C 0.6898(7) 0.4325(6) 0.7367(5)
H12 H 0.786746 0.485201 0.753467
H13 H 0.695902 0.358205 0.700057
O4 O 0.8268(4) 0.3822(4) 0.2665(3)
O7 O 0.7253(4) 0.5695(4) 0.1033(4)
N3 N 0.9561(5) 0.5618(4) 0.3496(4)
C4 C 0.9422(5) 0.4521(5) 0.3321(4)
C12 C 0.5192(6) 0.3169(5) 0.0774(5)
H2 H 0.542635 0.373710 0.146490
H3 H 0.979031 0.265427 0.330589
C16 C 0.8413(6) 0.5664(5) 0.1680(5)
C20 C 0.5155(7) 0.2126(5) 0.0726(5)
H8 H 0.537083 0.200416 0.137009
C29 C 0.8353(7) 0.5853(6) 0.2808(5)
H16 H 0.839485 0.662322 0.318136
H17 H 0.737478 0.538919 0.271448
H26 H 0.562727 0.037777 0.110149
N10 N 0.5071(4) 0.6580(3) 0.0062(4)
N2 N 0.4929(4) 0.3420(3) 0.9938(4)
C25 C 0.4809(6) 0.1288(5) 0.9755(5)
C27 C 0.4774(7) 0.0164(5) 0.9622(6)
C28 C 0.4561(8) 0.2586(5) 0.8965(6)
H15 H 0.434539 0.272989 0.833388
C30 C 0.4488(8) 0.1535(5) 0.8855(6)
H18 H 0.421320 0.097116 0.815444
C39 C 0.5191(6) 0.8712(5) 0.0245(5)
C40 C 0.5226(7) 0.9836(5) 0.0378(6)
C41 C 0.5439(8) 0.7414(5) 0.1035(6)
H27 H 0.565461 0.727011 0.166612
C42 C 0.5512(8) 0.8465(5) 0.1145(6)
H28 H 0.578680 0.902884 0.184556
H14 H 0.437273 0.962223 0.889851
C37 C 0.4808(6) 0.6831(5) 0.9226(5)
H24 H 0.457365 0.626290 0.853510
C38 C 0.4845(7) 0.7874(5) 0.9274(5)
H25 H 0.462917 0.799584 0.862991
loop_
_geom_bond_atom_site_label_1
_geom_bond_atom_site_label_2
_geom_bond_site_symmetry_1
_geom_bond_site_symmetry_2
O11 C54 1_555 1_555
O12 C46 1_555 1_555
O15 C54 1_555 1_555
N7 C46 1_555 1_555
C54 C60 1_555 1_555
C60 N7 1_555 1_555
H35 C60 1_555 1_555
H36 C60 1_555 1_555
Zn5_2 O11 1_555 1_555
Zn9_2 O15 1_555 1_555
Zn5 N5 1_555 1_555
H22 C35 1_555 1_555
H23 C36 1_555 1_555
C35 C36 1_555 1_555
O9 C48 1_555 1_555
O10 Zn5 1_555 1_555
O13 C50 1_555 1_555
O14 C58 1_555 1_555
O16 C47 1_555 1_555
C43 C44 1_555 1_555
N8 C50 1_555 1_555
C44 C49 1_555 1_555
C45 C49 1_555 1_555
C48 O10 1_555 1_555
C49 C52 1_555 1_555
C50 C45 1_555 1_555
C51 C44 1_555 1_555
C52 C56 1_555 1_555
C53 C43 1_555 1_555
C55 C45 1_555 1_555
H30 C55 1_555 1_555
C56 C53 1_555 1_555
H31 C56 1_555 1_555
C57 C51 1_555 1_555
H32 C57 1_555 1_555
C58 N8 1_555 1_555
C59 N8 1_555 1_555
H33 C59 1_555 1_555
H34 C59 1_555 1_555
Zn9 O9 1_555 1_555
C47 C51 1_555 1_555
C48 C59 1_555 1_555
C52 C58 1_555 1_555
C55 C57 1_555 1_555
C8 H1 1_555 1_555
H4 C14 1_555 1_555
C15 H5 1_555 1_555
C17 C8 1_555 1_555
C8 C14 1_555 1_555
C15 C17 1_555 1_555
C31 H19 1_555 1_555
C32 C31 1_555 1_555
H20 C32 1_555 1_555
H21 C33 1_555 1_555
C34 C31 1_555 1_555
C33 C34 1_555 1_555
H7 C19 1_555 1_555
H11 C24 1_555 1_555
O19 Zn5_3 1_555 1_555
C19 C24 1_555 1_555
Zn5_4 O2 1_555 1_555
O1 C6 1_555 1_555
O2 C6 1_555 1_555
O5 C9 1_555 1_555
N1 Zn5_4 1_555 1_555
O6 C23 1_555 1_555
O8 C5 1_555 1_555
C1 C2 1_555 1_555
N4 C9 1_555 1_555
C2 C7 1_555 1_555
C3 C7 1_555 1_555
C6 C26 1_555 1_555
C7 C11 1_555 1_555
C9 C3 1_555 1_555
C10 C2 1_555 1_555
C11 C21 1_555 1_555
C13 C1 1_555 1_555
C18 C3 1_555 1_555
H6 C18 1_555 1_555
C21 C13 1_555 1_555
H9 C21 1_555 1_555
C22 C10 1_555 1_555
H10 C22 1_555 1_555
C23 N4 1_555 1_555
C26 N4 1_555 1_555
H12 C26 1_555 1_555
H13 C26 1_555 1_555
Zn9_2 O1 1_555 1_555
C5 C10 1_555 1_555
C11 C23 1_555 1_555
C18 C22 1_555 1_555
O19 C16 1_555 1_555
O4 C4 1_555 1_555
O7 Zn9 1_555 1_555
N3 C4 1_555 1_555
C12 H2 1_555 1_555
C16 O7 1_555 1_555
C20 C12 1_555 1_555
H8 C20 1_555 1_555
C29 N3 1_555 1_555
H16 C29 1_555 1_555
H17 C29 1_555 1_555
N10 Zn9 1_555 1_555
C16 C29 1_555 1_555
Zn9_2 N2 1_555 1_555
C27 C25 1_555 1_555
C28 N2 1_555 1_555
H15 C28 1_555 1_555
C30 C25 1_555 1_555
H18 C30 1_555 1_555
C28 C30 1_555 1_555
C41 N10 1_555 1_555
H27 C41 1_555 1_555
C42 C39 1_555 1_555
H28 C42 1_555 1_555
C39 C40 1_555 1_555
C41 C42 1_555 1_555
C37 H24 1_555 1_555
C38 C37 1_555 1_555
H25 C38 1_555 1_555

#END
