
###############################################################################
#
# This file contains modified crystal structure data generated from the
# MOF subset of the Cambridge Structural Database (CSD) v543 
# hosted by the Cambridge Crystallographic Data Centre (CCDC).
#
# This work is licensed under the Creative Commons
# Attribution-NonCommercial-ShareAlike 4.0 International License.
# To view a copy of this license, visit
# http://creativecommons.org/licenses/by-nc-sa/4.0/
# or send a letter to
# Creative Commons, PO Box 1866, Mountain View, CA 94042, USA.
#
# CIF created using the CSD Python API on 29 September 2022
# The structure has been converted into the P1 space group
# The structure has a 3D framework
# The original CSD entry CIGYUP is in the monoclinic crystal system
# The framework has been calculated to contain at least 10.0% void space
# The void calculation uses a probe of radius 1.32A, grid spacing 0.4
#
###############################################################################

data_CIGYUP
_chemical_formula_moiety         '(C76 H48 N8 O18 Zn4)n'
_symmetry_cell_setting           triclinic
_symmetry_space_group_name_H-M   'P 1'
_symmetry_Int_Tables_number      1
_space_group_name_Hall           'P 1'
loop_
_symmetry_equiv_pos_site_id
_symmetry_equiv_pos_as_xyz
1 x,y,z
_cell_length_a                   10.2423(14)
_cell_length_b                   9.9125(13)
_cell_length_c                   22.846(3)
_cell_angle_alpha                90
_cell_angle_beta                 92.735(6)
_cell_angle_gamma                90
_cell_volume                     2316.84
loop_
_atom_site_label
_atom_site_type_symbol
_atom_site_fract_x
_atom_site_fract_y
_atom_site_fract_z
N3 N 0.34805(15) 0.68901(16) 0.47535(7)
N4 N 0.0334(2) 0.5494(2) 0.50860(10)
C20 C 0.1609(2) 0.5497(2) 0.48662(11)
C21 C 0.2283(2) 0.6691(2) 0.49460(10)
H13 H 0.1888 0.7390 0.5143
C22 C 0.3442(3) 0.4629(3) 0.43967(14)
H14 H 0.3873 0.3932 0.4213
C23 C 0.4037(2) 0.5867(2) 0.44761(11)
H15 H 0.4860 0.5996 0.4331
C24 C 0.2211(3) 0.4433(3) 0.45902(13)
H16 H 0.1789 0.3608 0.4538
Zn5 Zn 0.43362(2) 0.87171(2) 0.48854(2)
Zn7 Zn 0.06638(2) 0.37171(2) 0.01146(2)
Zn1 Zn 0.56638(2) 0.12829(2) 0.51146(2)
O5 O 0.61132(16) 0.03689(17) 0.58935(6)
N1 N 0.65195(15) 0.31099(16) 0.52465(7)
N2 N 0.9666(2) 0.4506(2) 0.49140(10)
H6 H 0.7129 0.0421 0.6907
C11 C 0.8391(2) 0.4503(2) 0.51338(11)
C14 C 0.7717(2) 0.3309(2) 0.50540(10)
H7 H 0.8112 0.2610 0.4857
C16 C 0.6558(3) 0.5371(3) 0.56033(14)
H9 H 0.6127 0.6068 0.5787
C18 C 0.5963(2) 0.4133(2) 0.55239(11)
H11 H 0.5140 0.4004 0.5669
C19 C 0.7789(3) 0.5567(3) 0.54098(13)
H12 H 0.8211 0.6392 0.5462
O6 O 0.34898(14) 0.21011(19) 0.15592(6)
O7 O 0.78130(14) 0.52568(16) 0.02260(7)
O8 O 0.88553(14) 0.33203(17) 0.04023(7)
O9 O 0.49548(17) 0.15580(17) 0.42727(6)
C25 C 0.40199(19) 0.1163(2) 0.33256(8)
C26 C 0.55401(19) 0.4249(2) 0.06945(8)
H17 H 0.5480 0.5064 0.0493
C27 C 0.78802(18) 0.4080(2) 0.04189(8)
C28 C 0.4409(2) 0.2652(2) 0.25207(9)
H18 H 0.4782 0.3433 0.2377
C29 C 0.6779(2) 0.2314(2) 0.10054(9)
H19 H 0.7548 0.1814 0.1010
C30 C 0.67017(18) 0.3530(2) 0.07058(8)
C31 C 0.3094(2) 0.0663(3) 0.23608(9)
H20 H 0.2589 0.0113 0.2110
C32 C 0.36850(19) 0.1811(2) 0.21498(8)
C33 C 0.44650(19) 0.3772(2) 0.09785(9)
H21 H 0.3683 0.4250 0.0963
C34 C 0.3265(2) 0.0347(2) 0.29480(9)
C35 C 0.43013(19) 0.0754(2) 0.39508(8)
C36 C 0.45792(18) 0.2580(2) 0.12821(8)
C37 C 0.4575(2) 0.2325(2) 0.31066(9)
H23 H 0.5064 0.2889 0.3357
C38 C 0.5724(2) 0.1841(2) 0.12961(10)
H24 H 0.5782 0.1030 0.1500
O12 O 0.71870(14) 0.02568(16) 0.47740(7)
O13 O 0.38553(14) 0.16797(17) 0.54023(7)
Zn4 Zn 0.93362(2) 0.62829(2) 0.98854(2)
O1 O 0.65102(14) 0.78989(19) 0.84408(6)
O2 O 0.21870(14) 0.47432(16) 0.97740(7)
O3 O 0.11447(14) 0.66797(17) 0.95977(7)
O4 O 0.50452(17) 0.84420(17) 0.57273(6)
C1 C 0.59801(19) 0.8837(2) 0.66744(8)
C2 C 0.44599(19) 0.5751(2) 0.93055(8)
H1 H 0.4520 0.4936 0.9507
C3 C 0.21198(18) 0.5920(2) 0.95811(8)
C4 C 0.5591(2) 0.7348(2) 0.74793(9)
H2 H 0.5218 0.6567 0.7623
C5 C 0.3221(2) 0.7686(2) 0.89946(9)
H3 H 0.2452 0.8186 0.8990
C6 C 0.32983(18) 0.6470(2) 0.92942(8)
C7 C 0.6906(2) 0.9337(3) 0.76392(9)
H4 H 0.7411 0.9887 0.7890
C8 C 0.63150(19) 0.8189(2) 0.78502(8)
C9 C 0.55350(19) 0.6228(2) 0.90215(9)
H5 H 0.6317 0.5750 0.9037
C10 C 0.6735(2) 0.9653(2) 0.70520(9)
C12 C 0.56987(19) 0.9246(2) 0.60492(8)
C13 C 0.54208(18) 0.7420(2) 0.87179(8)
C15 C 0.5425(2) 0.7675(2) 0.68934(9)
H8 H 0.4936 0.7111 0.6643
C17 C 0.4276(2) 0.8159(2) 0.87039(10)
H10 H 0.4218 0.8970 0.8500
O10 O 0.38868(16) 0.96311(17) 0.41065(6)
H22 H 0.2871 0.9579 0.3093
O11 O 0.28130(14) 0.97432(16) 0.52260(7)
O14 O 0.61447(14) 0.83203(17) 0.45977(7)
O6_2 O 0.15102(14) 0.71011(19) 0.34408(6)
O9_2 O 0.00452(17) 0.65580(17) 0.07273(6)
C25_2 C 0.09801(19) 0.6163(2) 0.16744(8)
O10_2 O 0.11132(16) 0.46311(17) 0.08935(6)
C28_2 C 0.0591(2) 0.7652(2) 0.24793(9)
H18_2 H 0.0218 0.8433 0.2623
C31_2 C 0.1906(2) 0.5663(3) 0.26392(9)
H20_2 H 0.2411 0.5113 0.2890
C32_2 C 0.13150(19) 0.6811(2) 0.28502(8)
C33_2 C 0.05350(19) 0.8772(2) 0.40215(9)
H21_2 H 0.1317 0.9250 0.4037
C34_2 C 0.1735(2) 0.5347(2) 0.20520(9)
H22_2 H 0.2129 0.4579 0.1907
C35_2 C 0.06987(19) 0.5754(2) 0.10492(8)
C36_2 C 0.04208(18) 0.7580(2) 0.37179(8)
C37_2 C 0.0425(2) 0.7325(2) 0.18934(9)
N5 N 0.15195(15) 0.18901(16) 0.02465(7)
C2_2 C 0.05401(19) 0.0751(2) 0.56945(8)
C3_2 C 0.28802(18) 0.0920(2) 0.54189(8)
C5_2 C 0.1779(2) 0.2686(2) 0.60054(9)
H3_2 H 0.2548 0.3186 0.6010
C6_2 C 0.17017(18) 0.1470(2) 0.57058(8)
H8_2 H 0.0064 0.2111 0.8357
C17_2 C 0.0724(2) 0.3159(2) 0.62961(10)
H10_2 H 0.0782 0.3970 0.6500
H1_2 H 0.0480 0.9936 0.5493
C20_2 C 0.3391(2) 0.0497(2) 0.01338(11)
C21_2 C 0.2717(2) 0.1691(2) 0.00540(10)
C23_2 C 0.0963(2) 0.0867(2) 0.05239(11)
H15_2 H 0.0140 0.0996 0.0669
H17_2 H 0.9520 0.0064 0.4507
C16_2 C 0.8442(3) 0.0371(3) 0.93967(14)
H9_2 H 0.8873 0.1068 0.9213
C19_2 C 0.7211(3) 0.0567(3) 0.95902(13)
H12_2 H 0.6789 0.1392 0.9538
N4_2 N 0.4666(2) 0.0494(2) 0.99140(10)
H13_2 H 0.3112 0.2390 0.9857
N2_2 N 0.5334(2) 0.9506(2) 0.00860(10)
H7_2 H 0.6888 0.7610 0.0143
C22_2 C 0.1558(3) 0.9629(3) 0.06033(14)
H14_2 H 0.1127 0.8932 0.0787
C24_2 C 0.2789(3) 0.9433(3) 0.04098(13)
H16_2 H 0.3211 0.8608 0.0462
C26_2 C 0.94599(19) 0.9249(2) 0.43055(8)
C27_2 C 0.71198(18) 0.9080(2) 0.45811(8)
C29_2 C 0.8221(2) 0.7314(2) 0.39946(9)
H19_2 H 0.7452 0.6814 0.3990
C30_2 C 0.82983(18) 0.8530(2) 0.42942(8)
H23_2 H 0.9936 0.7889 0.1643
C38_2 C 0.9276(2) 0.6841(2) 0.37039(10)
H24_2 H 0.9218 0.6030 0.3500
O1_2 O 0.84898(14) 0.28989(19) 0.65592(6)
O4_2 O 0.99548(17) 0.34420(17) 0.92727(6)
C1_2 C 0.90199(19) 0.3837(2) 0.83256(8)
O5_2 O 0.88868(16) 0.53689(17) 0.91065(6)
N1_2 N 0.84805(15) 0.81099(16) 0.97535(7)
C4_2 C 0.9409(2) 0.2348(2) 0.75207(9)
H2_2 H 0.9782 0.1567 0.7377
C7_2 C 0.8094(2) 0.4337(3) 0.73608(9)
H4_2 H 0.7589 0.4887 0.7110
C8_2 C 0.86850(19) 0.3189(2) 0.71498(8)
C9_2 C 0.94650(19) 0.1228(2) 0.59785(9)
H5_2 H 0.8683 0.0750 0.5963
C10_2 C 0.8265(2) 0.4653(2) 0.79480(9)
H6_2 H 0.7871 0.5421 0.8093
C11_2 C 0.6609(2) 0.9503(2) 0.98662(11)
C12_2 C 0.93013(19) 0.4246(2) 0.89508(8)
C13_2 C 0.95792(18) 0.2420(2) 0.62821(8)
C14_2 C 0.7283(2) 0.8309(2) 0.99460(10)
C15_2 C 0.9575(2) 0.2675(2) 0.81066(9)
C18_2 C 0.9037(2) 0.9133(2) 0.94761(11)
H11_2 H 0.9860 0.9004 0.9331
loop_
_geom_bond_atom_site_label_1
_geom_bond_atom_site_label_2
_geom_bond_site_symmetry_1
_geom_bond_site_symmetry_2
N3 C21 1_555 1_555
C20 N4 1_555 1_555
C21 C20 1_555 1_555
H13 C21 1_555 1_555
C22 H14 1_555 1_555
C23 N3 1_555 1_555
H15 C23 1_555 1_555
C24 C20 1_555 1_555
H16 C24 1_555 1_555
Zn5 N3 1_555 1_555
C22 C23 1_555 1_555
C22 C24 1_555 1_555
Zn1 O5 1_555 1_555
N1 Zn1 1_555 1_555
N2 C11 1_555 1_555
C11 C14 1_555 1_555
C14 N1 1_555 1_555
H7 C14 1_555 1_555
C16 H9 1_555 1_555
C18 N1 1_555 1_555
H11 C18 1_555 1_555
C19 C11 1_555 1_555
H12 C19 1_555 1_555
O6 C32 1_555 1_555
O7 C27 1_555 1_555
O8 C27 1_555 1_555
O9 Zn1 1_555 1_555
C25 C34 1_555 1_555
C26 H17 1_555 1_555
C27 C30 1_555 1_555
C28 H18 1_555 1_555
C29 H19 1_555 1_555
C30 C26 1_555 1_555
C31 H20 1_555 1_555
C32 C28 1_555 1_555
C33 C26 1_555 1_555
H21 C33 1_555 1_555
C34 C31 1_555 1_555
C35 O9 1_555 1_555
C36 O6 1_555 1_555
C37 C25 1_555 1_555
H23 C37 1_555 1_555
C38 C29 1_555 1_555
H24 C38 1_555 1_555
O12 Zn1 1_555 1_555
O13 Zn1 1_555 1_555
C16 C18 1_555 1_555
C16 C19 1_555 1_555
C25 C35 1_555 1_555
C28 C37 1_555 1_555
C29 C30 1_555 1_555
C31 C32 1_555 1_555
C33 C36 1_555 1_555
C36 C38 1_555 1_555
O1 C8 1_555 1_555
O2 C3 1_555 1_555
O3 C3 1_555 1_555
O4 C12 1_555 1_555
C1 C10 1_555 1_555
C2 H1 1_555 1_555
C3 C6 1_555 1_555
C4 H2 1_555 1_555
C5 H3 1_555 1_555
C6 C2 1_555 1_555
C7 H4 1_555 1_555
C8 C4 1_555 1_555
C9 C2 1_555 1_555
H5 C9 1_555 1_555
C10 C7 1_555 1_555
C12 C1 1_555 1_555
C13 O1 1_555 1_555
C15 C1 1_555 1_555
H8 C15 1_555 1_555
C17 C5 1_555 1_555
H10 C17 1_555 1_555
Zn5 O4 1_555 1_555
O10 Zn5 1_555 1_555
O11 Zn5 1_555 1_555
O14 Zn5 1_555 1_555
C4 C15 1_555 1_555
C5 C6 1_555 1_555
C7 C8 1_555 1_555
C9 C13 1_555 1_555
C13 C17 1_555 1_555
O6_2 C32_2 1_555 1_555
C25_2 C34_2 1_555 1_555
O10_2 Zn7 1_555 1_555
C28_2 H18_2 1_555 1_555
C31_2 H20_2 1_555 1_555
C32_2 C28_2 1_555 1_555
H21_2 C33_2 1_555 1_555
C34_2 C31_2 1_555 1_555
H22_2 C34_2 1_555 1_555
C35_2 O9_2 1_555 1_555
C36_2 O6_2 1_555 1_555
C37_2 C25_2 1_555 1_555
N5 Zn7 1_555 1_555
C25_2 C35_2 1_555 1_555
O10_2 C35_2 1_555 1_555
C28_2 C37_2 1_555 1_555
C31_2 C32_2 1_555 1_555
C33_2 C36_2 1_555 1_555
O13 C3_2 1_555 1_555
C3_2 C6_2 1_555 1_555
C5_2 H3_2 1_555 1_555
C6_2 C2_2 1_555 1_555
C17_2 C5_2 1_555 1_555
H10_2 C17_2 1_555 1_555
C5_2 C6_2 1_555 1_555
N5 C21_2 1_555 1_555
C21_2 C20_2 1_555 1_555
C23_2 N5 1_555 1_555
H15_2 C23_2 1_555 1_555
C16_2 H9_2 1_555 1_555
H12_2 C19_2 1_555 1_555
C16_2 C19_2 1_555 1_555
C22_2 H14_2 1_555 1_555
H16_2 C24_2 1_555 1_555
O14 C27_2 1_555 1_555
C27_2 C30_2 1_555 1_555
C29_2 H19_2 1_555 1_555
C30_2 C26_2 1_555 1_555
C38_2 C29_2 1_555 1_555
H24_2 C38_2 1_555 1_555
C22_2 C24_2 1_555 1_555
C29_2 C30_2 1_555 1_555
Zn4 O5_2 1_555 1_555
O1_2 C8_2 1_555 1_555
O4_2 C12_2 1_555 1_555
C1_2 C10_2 1_555 1_555
O5_2 C12_2 1_555 1_555
N1_2 Zn4 1_555 1_555
C4_2 H2_2 1_555 1_555
C7_2 H4_2 1_555 1_555
C8_2 C4_2 1_555 1_555
H5_2 C9_2 1_555 1_555
C10_2 C7_2 1_555 1_555
H6_2 C10_2 1_555 1_555
C11_2 C14_2 1_555 1_555
C12_2 C1_2 1_555 1_555
C13_2 O1_2 1_555 1_555
C14_2 N1_2 1_555 1_555
C15_2 C1_2 1_555 1_555
C18_2 N1_2 1_555 1_555
H11_2 C18_2 1_555 1_555
C4_2 C15_2 1_555 1_555
C7_2 C8_2 1_555 1_555
C9_2 C13_2 1_555 1_555

#END
