
###############################################################################
#
# This file contains modified crystal structure data generated from the
# MOF subset of the Cambridge Structural Database (CSD) v543 
# hosted by the Cambridge Crystallographic Data Centre (CCDC).
#
# This work is licensed under the Creative Commons
# Attribution-NonCommercial-ShareAlike 4.0 International License.
# To view a copy of this license, visit
# http://creativecommons.org/licenses/by-nc-sa/4.0/
# or send a letter to
# Creative Commons, PO Box 1866, Mountain View, CA 94042, USA.
#
# CIF created using the CSD Python API on 29 September 2022
# The structure has been converted into the P1 space group
# The structure has a 3D framework
# The original CSD entry CILKOZ is in the monoclinic crystal system
# The framework has been calculated to contain at least 10.0% void space
# The void calculation uses a probe of radius 1.32A, grid spacing 0.4
#
###############################################################################

data_CILKOZ
_chemical_formula_moiety         '(C64 H56 N40 O12 Zn8)n'
_symmetry_cell_setting           triclinic
_symmetry_space_group_name_H-M   'P 1'
_symmetry_Int_Tables_number      1
_space_group_name_Hall           'P 1'
loop_
_symmetry_equiv_pos_site_id
_symmetry_equiv_pos_as_xyz
1 x,y,z
_cell_length_a                   17.2027(8)
_cell_length_b                   16.6803(5)
_cell_length_c                   10.0443(5)
_cell_angle_alpha                90
_cell_angle_beta                 120.267(6)
_cell_angle_gamma                90
_cell_volume                     2489.29
loop_
_atom_site_label
_atom_site_type_symbol
_atom_site_fract_x
_atom_site_fract_y
_atom_site_fract_z
N6 N 0.25058(17) 0.04784(14) 0.0137(3)
N2 N 0.1871(2) 0.02957(17) 0.1498(4)
N3 N 0.1856(2) 0.07405(18) 0.0421(4)
Zn1 Zn 0.26764(2) 0.105331(18) 0.85457(4)
C1 C 0.2907(2) 0.01416(17) 0.6085(4)
C2 C 0.3675(3) 0.0609(3) 0.6200(6)
H1 H 0.3839 0.1023 0.6960
H2 H 0.3502 0.0847 0.5219
H3 H 0.4179 0.0259 0.6496
C3 C 0.0739(2) 0.15328(18) 0.6592(4)
H4 H 0.0645 0.0982 0.6531
C4 C 0.0008(2) 0.20237(19) 0.5813(4)
C5 C 0.01325(19) 0.28447(18) 0.5891(3)
C6 C 0.1007(2) 0.31353(18) 0.6771(4)
H6 H 0.1118 0.3684 0.6849
C7 C 0.1707(2) 0.26003(18) 0.7525(4)
H7 H 0.2289 0.2798 0.8119
N1 N 0.25248(16) 0.02665(15) 0.6934(3)
N5 N 0.15785(16) 0.18041(13) 0.7432(3)
O3 O 0.35874(15) 0.18888(13) 0.9293(3)
N2_2 N 0.1871(2) 0.97043(17) 0.6498(4)
N3_2 N 0.1856(2) 0.92595(18) 0.5421(4)
N4 N 0.25058(17) 0.95216(14) 0.5137(3)
Zn2 Zn 0.26764(2) 0.894669(18) 0.35457(4)
H5 H 0.9434 0.1807 0.5239
C8 C 0.9363(2) 0.34184(19) 0.5074(4)
O1 O 0.85874(15) 0.31112(13) 0.4293(3)
O2 O 0.9497(2) 0.41431(15) 0.5200(4)
Zn3 Zn 0.76764(2) 0.394669(18) 0.35457(4)
N6_2 N 0.75058(17) 0.54784(14) 0.0137(3)
Zn1_2 Zn 0.76764(2) 0.605331(18) 0.85457(4)
C1_2 C 0.7907(2) 0.51416(17) 0.6085(4)
C2_2 C 0.8675(3) 0.5609(3) 0.6200(6)
H1_2 H 0.8839 0.6023 0.6960
H2_2 H 0.8502 0.5847 0.5219
H3_2 H 0.9179 0.5259 0.6496
C3_2 C 0.5739(2) 0.65328(18) 0.6592(4)
H4_2 H 0.5645 0.5982 0.6531
C4_2 C 0.5008(2) 0.70237(19) 0.5813(4)
H5_2 H 0.4434 0.6807 0.5239
C5_2 C 0.51325(19) 0.78447(18) 0.5891(3)
C6_2 C 0.6007(2) 0.81353(18) 0.6771(4)
H6_2 H 0.6118 0.8684 0.6849
C7_2 C 0.6707(2) 0.76003(18) 0.7525(4)
H7_2 H 0.7289 0.7798 0.8119
C8_2 C 0.4363(2) 0.84184(19) 0.5074(4)
N1_2 N 0.75248(16) 0.52665(15) 0.6934(3)
N2_3 N 0.6871(2) 0.47043(17) 0.6498(4)
N3_3 N 0.6856(2) 0.42595(18) 0.5421(4)
N4_2 N 0.75058(17) 0.45216(14) 0.5137(3)
N5_2 N 0.65785(16) 0.68041(13) 0.7432(3)
O1_2 O 0.35874(15) 0.81112(13) 0.4293(3)
O2_2 O 0.4497(2) 0.91431(15) 0.5200(4)
O3_2 O 0.85874(15) 0.68888(13) 0.9293(3)
C1_3 C 0.2907(2) 0.98584(17) 0.1085(4)
C2_3 C 0.3675(3) 0.9391(3) 0.1200(6)
H1_3 H 0.3839 0.8977 0.1960
H2_3 H 0.3502 0.9153 0.0219
H3_3 H 0.4179 0.9741 0.1496
C3_3 C 0.0739(2) 0.84672(18) 0.1592(4)
H4_3 H 0.0645 0.9018 0.1531
C4_3 C 0.0008(2) 0.79763(19) 0.0813(4)
C5_3 C 0.01325(19) 0.71553(18) 0.0891(3)
C6_3 C 0.1007(2) 0.68647(18) 0.1771(4)
H6_3 H 0.1118 0.6316 0.1849
C7_3 C 0.1707(2) 0.73997(18) 0.2525(4)
H7_3 H 0.2289 0.7202 0.3119
N1_3 N 0.25248(16) 0.97335(15) 0.1934(3)
N5_3 N 0.15785(16) 0.81959(13) 0.2432(3)
C1_4 C 0.7907(2) 0.48584(17) 0.1085(4)
C2_4 C 0.8675(3) 0.4391(3) 0.1200(6)
H1_4 H 0.8839 0.3977 0.1960
H2_4 H 0.8502 0.4153 0.0219
H3_4 H 0.9179 0.4741 0.1496
C3_4 C 0.5739(2) 0.34672(18) 0.1592(4)
H4_4 H 0.5645 0.4018 0.1531
C4_4 C 0.5008(2) 0.29763(19) 0.0813(4)
H5_3 H 0.4434 0.3193 0.0239
C5_4 C 0.51325(19) 0.21553(18) 0.0891(3)
C6_4 C 0.6007(2) 0.18647(18) 0.1771(4)
H6_4 H 0.6118 0.1316 0.1849
C7_4 C 0.6707(2) 0.23997(18) 0.2525(4)
H7_4 H 0.7289 0.2202 0.3119
C8_3 C 0.4363(2) 0.15816(19) 0.0074(4)
N1_4 N 0.75248(16) 0.47335(15) 0.1934(3)
N2_4 N 0.6871(2) 0.52957(17) 0.1498(4)
N3_4 N 0.6856(2) 0.57405(18) 0.0421(4)
N5_4 N 0.65785(16) 0.31959(13) 0.2432(3)
O2_3 O 0.4497(2) 0.08569(15) 0.0200(4)
O1_3 O 0.14126(15) 0.31112(13) 0.0707(3)
Zn3_2 Zn 0.23236(2) 0.394669(18) 0.14543(4)
Zn1_3 Zn 0.73236(2) 0.105331(18) 0.64543(4)
C1_5 C 0.7093(2) 0.01416(17) 0.8915(4)
C2_5 C 0.6325(3) 0.0609(3) 0.8800(6)
H1_5 H 0.6161 0.1023 0.8040
H2_5 H 0.6498 0.0847 0.9781
H3_5 H 0.5821 0.0259 0.8504
C3_5 C 0.9261(2) 0.15328(18) 0.8408(4)
H4_5 H 0.9355 0.0982 0.8469
C4_5 C 0.9992(2) 0.20237(19) 0.9187(4)
C5_5 C 0.98675(19) 0.28447(18) 0.9109(3)
C6_5 C 0.8993(2) 0.31353(18) 0.8229(4)
H6_5 H 0.8882 0.3684 0.8151
C7_5 C 0.8293(2) 0.26003(18) 0.7475(4)
H7_5 H 0.7711 0.2798 0.6881
N1_5 N 0.74752(16) 0.02665(15) 0.8066(3)
N5_5 N 0.84215(16) 0.18041(13) 0.7568(3)
N6_3 N 0.74942(17) 0.04784(14) 0.4863(3)
O3_3 O 0.64126(15) 0.18888(13) 0.5707(3)
Zn2_2 Zn 0.73236(2) 0.894669(18) 0.14543(4)
O1_4 O 0.64126(15) 0.81112(13) 0.0707(3)
Zn1_4 Zn 0.23236(2) 0.605331(18) 0.64543(4)
C1_6 C 0.2093(2) 0.51416(17) 0.8915(4)
C2_6 C 0.1325(3) 0.5609(3) 0.8800(6)
H1_6 H 0.1161 0.6023 0.8040
H2_6 H 0.1498 0.5847 0.9781
H3_6 H 0.0821 0.5259 0.8504
C3_6 C 0.4261(2) 0.65328(18) 0.8408(4)
H4_6 H 0.4355 0.5982 0.8469
C4_6 C 0.4992(2) 0.70237(19) 0.9187(4)
H5_4 H 0.5566 0.6807 0.9761
C5_6 C 0.48675(19) 0.78447(18) 0.9109(3)
C6_6 C 0.3993(2) 0.81353(18) 0.8229(4)
H6_6 H 0.3882 0.8684 0.8151
C7_6 C 0.3293(2) 0.76003(18) 0.7475(4)
H7_6 H 0.2711 0.7798 0.6881
C8_4 C 0.5637(2) 0.84184(19) 0.9926(4)
N1_6 N 0.24752(16) 0.52665(15) 0.8066(3)
N2_5 N 0.3129(2) 0.47043(17) 0.8502(4)
N3_5 N 0.3144(2) 0.42595(18) 0.9579(4)
N4_3 N 0.24942(17) 0.45216(14) 0.9863(3)
N5_6 N 0.34215(16) 0.68041(13) 0.7568(3)
O2_4 O 0.5503(2) 0.91431(15) 0.9800(4)
N6_4 N 0.24942(17) 0.54784(14) 0.4863(3)
O3_4 O 0.14126(15) 0.68888(13) 0.5707(3)
H5_5 H 0.0566 0.8193 0.4761
C8_5 C 0.0637(2) 0.65816(19) 0.4926(4)
O2_5 O 0.0503(2) 0.58569(15) 0.4800(4)
N2_6 N 0.8129(2) 0.02957(17) 0.3502(4)
N3_6 N 0.8144(2) 0.07405(18) 0.4579(4)
C1_7 C 0.7093(2) 0.98584(17) 0.3915(4)
C2_7 C 0.6325(3) 0.9391(3) 0.3800(6)
H1_7 H 0.6161 0.8977 0.3040
H2_7 H 0.6498 0.9153 0.4781
H3_7 H 0.5821 0.9741 0.3504
C3_7 C 0.9261(2) 0.84672(18) 0.3408(4)
H4_7 H 0.9355 0.9018 0.3469
C4_7 C 0.9992(2) 0.79763(19) 0.4187(4)
C5_7 C 0.98675(19) 0.71553(18) 0.4109(3)
C6_7 C 0.8993(2) 0.68647(18) 0.3229(4)
H6_7 H 0.8882 0.6316 0.3151
C7_7 C 0.8293(2) 0.73997(18) 0.2475(4)
H7_7 H 0.7711 0.7202 0.1881
N1_7 N 0.74752(16) 0.97335(15) 0.3066(3)
N5_7 N 0.84215(16) 0.81959(13) 0.2568(3)
C1_8 C 0.2093(2) 0.48584(17) 0.3915(4)
C2_8 C 0.1325(3) 0.4391(3) 0.3800(6)
H1_8 H 0.1161 0.3977 0.3040
H2_8 H 0.1498 0.4153 0.4781
H3_8 H 0.0821 0.4741 0.3504
C3_8 C 0.4261(2) 0.34672(18) 0.3408(4)
H4_8 H 0.4355 0.4018 0.3469
C4_8 C 0.4992(2) 0.29763(19) 0.4187(4)
H5_6 H 0.5566 0.3193 0.4761
C5_8 C 0.48675(19) 0.21553(18) 0.4109(3)
C6_8 C 0.3993(2) 0.18647(18) 0.3229(4)
H6_8 H 0.3882 0.1316 0.3151
C7_8 C 0.3293(2) 0.23997(18) 0.2475(4)
H7_8 H 0.2711 0.2202 0.1881
C8_6 C 0.5637(2) 0.15816(19) 0.4926(4)
N1_8 N 0.24752(16) 0.47335(15) 0.3066(3)
N2_7 N 0.3129(2) 0.52957(17) 0.3502(4)
N3_7 N 0.3144(2) 0.57405(18) 0.4579(4)
N5_8 N 0.34215(16) 0.31959(13) 0.2568(3)
O2_6 O 0.5503(2) 0.08569(15) 0.4800(4)
H5_7 H 0.0566 0.1807 0.9761
C8_7 C 0.0637(2) 0.34184(19) 0.9926(4)
O2_7 O 0.0503(2) 0.41431(15) 0.9800(4)
N2_8 N 0.8129(2) 0.97043(17) 0.8502(4)
N3_8 N 0.8144(2) 0.92595(18) 0.9579(4)
N4_4 N 0.74942(17) 0.95216(14) 0.9863(3)
H5_8 H 0.9434 0.8193 0.0239
C8_8 C 0.9363(2) 0.65816(19) 0.0074(4)
O2_8 O 0.9497(2) 0.58569(15) 0.0200(4)
loop_
_geom_bond_atom_site_label_1
_geom_bond_atom_site_label_2
_geom_bond_site_symmetry_1
_geom_bond_site_symmetry_2
N3 N2 1_555 1_555
N3 N6 1_555 1_555
Zn1 N1 1_555 1_555
C1 C2 1_555 1_555
C2 H1 1_555 1_555
H2 C2 1_555 1_555
H3 C2 1_555 1_555
C3 H4 1_555 1_555
C4 C3 1_555 1_555
C5 C4 1_555 1_555
C6 C5 1_555 1_555
H6 C6 1_555 1_555
C7 C6 1_555 1_555
H7 C7 1_555 1_555
N1 C1 1_555 1_555
N5 Zn1 1_555 1_555
O3 Zn1 1_555 1_555
C3 N5 1_555 1_555
C7 N5 1_555 1_555
N3_2 N2_2 1_555 1_555
Zn2 N4 1_555 1_555
N3_2 N4 1_555 1_555
O1 C8 1_555 1_555
O2 C8 1_555 1_555
Zn3 O1 1_555 1_555
Zn1_2 N1_2 1_555 1_555
C1_2 C2_2 1_555 1_555
C2_2 H1_2 1_555 1_555
H2_2 C2_2 1_555 1_555
H3_2 C2_2 1_555 1_555
C3_2 H4_2 1_555 1_555
C4_2 C3_2 1_555 1_555
H5_2 C4_2 1_555 1_555
C5_2 C4_2 1_555 1_555
C6_2 C5_2 1_555 1_555
H6_2 C6_2 1_555 1_555
C7_2 C6_2 1_555 1_555
H7_2 C7_2 1_555 1_555
C8_2 C5_2 1_555 1_555
N1_2 C1_2 1_555 1_555
N2_3 N1_2 1_555 1_555
N3_3 N2_3 1_555 1_555
N4_2 C1_2 1_555 1_555
N5_2 Zn1_2 1_555 1_555
O1_2 C8_2 1_555 1_555
O2_2 C8_2 1_555 1_555
Zn3 N4_2 1_555 1_555
Zn2 O1_2 1_555 1_555
O3_2 Zn1_2 1_555 1_555
C3_2 N5_2 1_555 1_555
C7_2 N5_2 1_555 1_555
N3_3 N4_2 1_555 1_555
Zn2 N1_3 1_555 1_555
C1_3 C2_3 1_555 1_555
C2_3 H1_3 1_555 1_555
H2_3 C2_3 1_555 1_555
H3_3 C2_3 1_555 1_555
C3_3 H4_3 1_555 1_555
C4_3 C3_3 1_555 1_555
C5_3 C4_3 1_555 1_555
C6_3 C5_3 1_555 1_555
H6_3 C6_3 1_555 1_555
C7_3 C6_3 1_555 1_555
H7_3 C7_3 1_555 1_555
N1_3 C1_3 1_555 1_555
N5_3 Zn2 1_555 1_555
C3_3 N5_3 1_555 1_555
C7_3 N5_3 1_555 1_555
Zn3 N1_4 1_555 1_555
C1_4 C2_4 1_555 1_555
C2_4 H1_4 1_555 1_555
H2_4 C2_4 1_555 1_555
H3_4 C2_4 1_555 1_555
C3_4 H4_4 1_555 1_555
C4_4 C3_4 1_555 1_555
H5_3 C4_4 1_555 1_555
C5_4 C4_4 1_555 1_555
C6_4 C5_4 1_555 1_555
H6_4 C6_4 1_555 1_555
C7_4 C6_4 1_555 1_555
H7_4 C7_4 1_555 1_555
C8_3 C5_4 1_555 1_555
N1_4 C1_4 1_555 1_555
N2_4 N1_4 1_555 1_555
N3_4 N2_4 1_555 1_555
N6_2 C1_4 1_555 1_555
N5_4 Zn3 1_555 1_555
O2_3 C8_3 1_555 1_555
C3_4 N5_4 1_555 1_555
C7_4 N5_4 1_555 1_555
N3_4 N6_2 1_555 1_555
Zn3_2 O1_3 1_555 1_555
Zn1_3 N1_5 1_555 1_555
C1_5 C2_5 1_555 1_555
C2_5 H1_5 1_555 1_555
H2_5 C2_5 1_555 1_555
H3_5 C2_5 1_555 1_555
C3_5 H4_5 1_555 1_555
C4_5 C3_5 1_555 1_555
C5_5 C4_5 1_555 1_555
C6_5 C5_5 1_555 1_555
H6_5 C6_5 1_555 1_555
C7_5 C6_5 1_555 1_555
H7_5 C7_5 1_555 1_555
N1_5 C1_5 1_555 1_555
N5_5 Zn1_3 1_555 1_555
N6_3 Zn1_3 1_555 1_555
O3_3 Zn1_3 1_555 1_555
C3_5 N5_5 1_555 1_555
C7_5 N5_5 1_555 1_555
Zn2_2 O1_4 1_555 1_555
Zn1_4 N1_6 1_555 1_555
C1_6 C2_6 1_555 1_555
C2_6 H1_6 1_555 1_555
H2_6 C2_6 1_555 1_555
H3_6 C2_6 1_555 1_555
C3_6 H4_6 1_555 1_555
C4_6 C3_6 1_555 1_555
H5_4 C4_6 1_555 1_555
C5_6 C4_6 1_555 1_555
C6_6 C5_6 1_555 1_555
H6_6 C6_6 1_555 1_555
C7_6 C6_6 1_555 1_555
H7_6 C7_6 1_555 1_555
C8_4 C5_6 1_555 1_555
N1_6 C1_6 1_555 1_555
N2_5 N1_6 1_555 1_555
N3_5 N2_5 1_555 1_555
N4_3 C1_6 1_555 1_555
N5_6 Zn1_4 1_555 1_555
O2_4 C8_4 1_555 1_555
N6_4 Zn1_4 1_555 1_555
O3_4 Zn1_4 1_555 1_555
C3_6 N5_6 1_555 1_555
C7_6 N5_6 1_555 1_555
N3_5 N4_3 1_555 1_555
O3_4 C8_5 1_555 1_555
O2_5 C8_5 1_555 1_555
N3_6 N2_6 1_555 1_555
N3_6 N6_3 1_555 1_555
Zn2_2 N1_7 1_555 1_555
C1_7 C2_7 1_555 1_555
C2_7 H1_7 1_555 1_555
H2_7 C2_7 1_555 1_555
H3_7 C2_7 1_555 1_555
C3_7 H4_7 1_555 1_555
C4_7 C3_7 1_555 1_555
C5_7 C4_7 1_555 1_555
C6_7 C5_7 1_555 1_555
H6_7 C6_7 1_555 1_555
C7_7 C6_7 1_555 1_555
H7_7 C7_7 1_555 1_555
N1_7 C1_7 1_555 1_555
N5_7 Zn2_2 1_555 1_555
C3_7 N5_7 1_555 1_555
C7_7 N5_7 1_555 1_555
Zn3_2 N1_8 1_555 1_555
C1_8 C2_8 1_555 1_555
C2_8 H1_8 1_555 1_555
H2_8 C2_8 1_555 1_555
H3_8 C2_8 1_555 1_555
C3_8 H4_8 1_555 1_555
C4_8 C3_8 1_555 1_555
H5_6 C4_8 1_555 1_555
C5_8 C4_8 1_555 1_555
C6_8 C5_8 1_555 1_555
H6_8 C6_8 1_555 1_555
C7_8 C6_8 1_555 1_555
H7_8 C7_8 1_555 1_555
C8_6 C5_8 1_555 1_555
N1_8 C1_8 1_555 1_555
N2_7 N1_8 1_555 1_555
N3_7 N2_7 1_555 1_555
N6_4 C1_8 1_555 1_555
N5_8 Zn3_2 1_555 1_555
O3_3 C8_6 1_555 1_555
O2_6 C8_6 1_555 1_555
C3_8 N5_8 1_555 1_555
C7_8 N5_8 1_555 1_555
N3_7 N6_4 1_555 1_555
O2_7 C8_7 1_555 1_555
N3_8 N2_8 1_555 1_555
N3_8 N4_4 1_555 1_555
O2_8 C8_8 1_555 1_555

#END
