
###############################################################################
#
# This file contains modified crystal structure data generated from the
# MOF subset of the Cambridge Structural Database (CSD) v543 
# hosted by the Cambridge Crystallographic Data Centre (CCDC).
#
# This work is licensed under the Creative Commons
# Attribution-NonCommercial-ShareAlike 4.0 International License.
# To view a copy of this license, visit
# http://creativecommons.org/licenses/by-nc-sa/4.0/
# or send a letter to
# Creative Commons, PO Box 1866, Mountain View, CA 94042, USA.
#
# CIF created using the CSD Python API on 29 September 2022
# The structure has been converted into the P1 space group
# The structure has a 3D framework
# The original CSD entry CIQHES is in the monoclinic crystal system
# The framework has been calculated to contain at least 10.0% void space
# The void calculation uses a probe of radius 1.32A, grid spacing 0.4
#
###############################################################################

data_CIQHES
_chemical_formula_moiety         '(C96 H48 Cd6 N16 O30)n'
_symmetry_cell_setting           triclinic
_symmetry_space_group_name_H-M   'P 1'
_symmetry_Int_Tables_number      1
_space_group_name_Hall           'P 1'
loop_
_symmetry_equiv_pos_site_id
_symmetry_equiv_pos_as_xyz
1 x,y,z
_cell_length_a                   11.8988(2)
_cell_length_b                   24.8683(4)
_cell_length_c                   12.8119(2)
_cell_angle_alpha                90
_cell_angle_beta                 93.0640(10)
_cell_angle_gamma                90
_cell_volume                     3785.66
loop_
_atom_site_label
_atom_site_type_symbol
_atom_site_fract_x
_atom_site_fract_y
_atom_site_fract_z
H11 H 0.0421 0.7222 0.0156
Cd5 Cd 0.35682(3) 0.12955(2) 0.09493(2)
Cd1 Cd 0.35682(3) 0.37045(2) 0.59493(2)
Cd2 Cd 0.13886(3) 0.37128(2) 0.39956(2)
N1 N 0.5232(4) 0.41470(17) 0.6627(3)
N2 N 0.4433(4) 0.32199(17) 0.7394(3)
N3 N 0.0180(4) 0.57880(17) 0.6733(3)
O1 O 0.6380(3) 0.55713(15) 0.5339(3)
O2 O 0.7593(3) 0.56749(15) 0.6728(3)
O3 O 0.4405(3) 0.18038(15) 0.9859(3)
O4 O 0.2920(3) 0.19002(15) 0.8719(3)
O5 O 0.2495(3) 0.42443(15) 0.6774(3)
O6 O 0.1239(3) 0.43446(15) 0.5418(3)
C1 C 0.6491(4) 0.4897(2) 0.6647(4)
C2 C 0.5571(4) 0.4612(2) 0.6234(4)
H1 H 0.5160 0.4755 0.5641
C3 C 0.5801(5) 0.3938(2) 0.7461(4)
C4 C 0.6727(5) 0.4199(3) 0.7925(5)
H2 H 0.7113 0.4048 0.8524
C5 C 0.7084(5) 0.4679(2) 0.7513(5)
H3 H 0.7726 0.4858 0.7817
C6 C 0.5378(5) 0.3420(2) 0.7869(4)
C7 C 0.4001(4) 0.2768(2) 0.7765(4)
H4 H 0.3339 0.2627 0.7421
C8 C 0.4466(4) 0.2494(2) 0.8627(4)
C9 C 0.5446(5) 0.2695(3) 0.9091(5)
H5 H 0.5799 0.2515 0.9675
C10 C 0.5921(5) 0.3158(3) 0.8711(5)
H6 H 0.6605 0.3295 0.9020
C11 C 0.6840(4) 0.5425(2) 0.6182(4)
C12 C 0.3869(4) 0.2023(2) 0.9090(4)
C13 C 0.1257(4) 0.4969(2) 0.6817(4)
C14 C 0.0543(4) 0.5333(2) 0.6301(4)
H7 H 0.0296 0.5255 0.5600
C15 C 0.0523(5) 0.5899(2) 0.7725(4)
C16 C 0.1215(5) 0.5550(2) 0.8305(4)
H8 H 0.1433 0.5631 0.9012
C17 C 0.1585(5) 0.5083(2) 0.7853(4)
H9 H 0.2060 0.4842 0.8245
C18 C 0.0127(4) 0.6412(2) 0.8161(4)
C19 C 0.0558(5) 0.6617(2) 0.9122(5)
H10 H 0.1137 0.6429 0.9510
C20 C 0.0144(5) 0.7086(2) 0.9499(4)
C23 C 0.1692(4) 0.4478(2) 0.6286(4)
Cd4 Cd 0.64318(3) 0.62955(2) 0.40507(2)
Cd8 Cd 0.86114(3) 0.62872(2) 0.60044(2)
Cd9 Cd 0.13886(3) 0.12872(2) 0.89956(2)
N6 N 0.0662(4) 0.33170(17) 0.2416(3)
O9 O 0.3620(3) 0.44287(15) 0.4661(3)
O10 O 0.2407(3) 0.43251(15) 0.3272(3)
O11 O 0.4405(3) 0.31962(15) 0.4859(3)
O12 O 0.2920(3) 0.30998(15) 0.3719(3)
O13 O 0.2120(3) 0.30322(15) 0.6087(3)
O14 O 0.0653(3) 0.30853(15) 0.4913(3)
O8 O 0.9347(3) 0.80853(15) 0.0087(3)
Cd6 Cd 0.86114(3) 0.87128(2) 0.10044(2)
N4 N 0.9338(4) 0.66830(17) 0.7584(3)
O7 O 0.7880(3) 0.80322(15) 0.8913(3)
C21 C 0.9314(4) 0.7366(2) 0.8914(4)
C22 C 0.8954(4) 0.7150(2) 0.7953(4)
H12 H 0.8408 0.7344 0.7535
C24 C 0.8801(5) 0.7869(2) 0.9325(4)
Cd3 Cd 0.64318(3) 0.87045(2) 0.90507(2)
N5 N 0.9820(4) 0.42120(17) 0.3267(3)
N4_2 N 0.0662(4) 0.16830(17) 0.7416(3)
C21_2 C 0.0686(4) 0.2366(2) 0.6086(4)
C22_2 C 0.1046(4) 0.2150(2) 0.7047(4)
H12_2 H 0.1592 0.2344 0.7465
C24_2 C 0.1199(5) 0.2869(2) 0.5675(4)
N5_2 N 0.0180(4) 0.92120(17) 0.1733(3)
N3_2 N 0.9820(4) 0.07880(17) 0.8267(3)
O1_2 O 0.3620(3) 0.05713(15) 0.9661(3)
O2_2 O 0.2407(3) 0.06749(15) 0.8272(3)
C11_2 C 0.3160(4) 0.0425(2) 0.8818(4)
C14_2 C 0.9457(4) 0.0333(2) 0.8699(4)
H7_2 H 0.9704 0.0255 0.9400
C15_2 C 0.9477(5) 0.0899(2) 0.7275(4)
C16_2 C 0.8785(5) 0.0550(2) 0.6695(4)
H8_2 H 0.8567 0.0631 0.5988
C17_2 C 0.8415(5) 0.0083(2) 0.7147(4)
C18_2 C 0.9873(4) 0.1412(2) 0.6839(4)
C19_2 C 0.9442(5) 0.1617(2) 0.5878(5)
H10_2 H 0.8863 0.1429 0.5490
C20_2 C 0.9856(5) 0.2086(2) 0.5501(4)
H11_2 H 0.9579 0.2222 0.4844
N6_2 N 0.9338(4) 0.83170(17) 0.2584(3)
O9_2 O 0.6380(3) 0.94287(15) 0.0339(3)
O10_2 O 0.7593(3) 0.93251(15) 0.1728(3)
O11_2 O 0.5595(3) 0.81962(15) 0.0141(3)
O12_2 O 0.7080(3) 0.80998(15) 0.1281(3)
N1_2 N 0.4768(4) 0.91470(17) 0.8373(3)
N2_2 N 0.5567(4) 0.82199(17) 0.7606(3)
O3_2 O 0.5595(3) 0.68038(15) 0.5141(3)
O4_2 O 0.7080(3) 0.69002(15) 0.6281(3)
O5_2 O 0.7505(3) 0.92443(15) 0.8226(3)
O6_2 O 0.8761(3) 0.93446(15) 0.9582(3)
C1_2 C 0.3509(4) 0.9897(2) 0.8353(4)
C2_2 C 0.4429(4) 0.9612(2) 0.8766(4)
H1_2 H 0.4840 0.9755 0.9359
C3_2 C 0.4199(5) 0.8938(2) 0.7539(4)
C4_2 C 0.3273(5) 0.9199(3) 0.7075(5)
H2_2 H 0.2887 0.9048 0.6476
C5_2 C 0.2916(5) 0.9679(2) 0.7487(5)
H3_2 H 0.2274 0.9858 0.7183
C6_2 C 0.4622(5) 0.8420(2) 0.7131(4)
C7_2 C 0.5999(4) 0.7768(2) 0.7235(4)
H4_2 H 0.6661 0.7627 0.7579
C8_2 C 0.5534(4) 0.7494(2) 0.6373(4)
C9_2 C 0.4554(5) 0.7695(3) 0.5909(5)
H5_2 H 0.4201 0.7515 0.5325
C10_2 C 0.4079(5) 0.8158(3) 0.6289(5)
H6_2 H 0.3395 0.8295 0.5980
C12_2 C 0.6131(4) 0.7023(2) 0.5910(4)
C13_2 C 0.8743(4) 0.9969(2) 0.8183(4)
H9_2 H 0.7940 0.9842 0.6755
C23_2 C 0.8308(4) 0.9478(2) 0.8714(4)
O7_2 O 0.2120(3) 0.19678(15) 0.1087(3)
C21_3 C 0.0686(4) 0.2634(2) 0.1086(4)
C22_3 C 0.1046(4) 0.2850(2) 0.2047(4)
H12_3 H 0.1592 0.2656 0.2465
C24_3 C 0.1199(5) 0.2131(2) 0.0675(4)
O8_2 O 0.0653(3) 0.19147(15) 0.9913(3)
N1_3 N 0.4768(4) 0.58530(17) 0.3373(3)
N2_3 N 0.5567(4) 0.67801(17) 0.2606(3)
O5_3 O 0.7505(3) 0.57557(15) 0.3226(3)
O6_3 O 0.8761(3) 0.56554(15) 0.4582(3)
C1_3 C 0.3509(4) 0.5103(2) 0.3353(4)
C2_3 C 0.4429(4) 0.5388(2) 0.3766(4)
H1_3 H 0.4840 0.5245 0.4359
C3_3 C 0.4199(5) 0.6062(2) 0.2539(4)
C4_3 C 0.3273(5) 0.5801(3) 0.2075(5)
H2_3 H 0.2887 0.5952 0.1476
C5_3 C 0.2916(5) 0.5321(2) 0.2487(5)
H3_3 H 0.2274 0.5142 0.2183
C6_3 C 0.4622(5) 0.6580(2) 0.2131(4)
C7_3 C 0.5999(4) 0.7232(2) 0.2235(4)
H4_3 H 0.6661 0.7373 0.2579
C8_3 C 0.5534(4) 0.7506(2) 0.1373(4)
C9_3 C 0.4554(5) 0.7305(3) 0.0909(5)
H5_3 H 0.4201 0.7485 0.0325
C10_3 C 0.4079(5) 0.6842(3) 0.1289(5)
H6_3 H 0.3395 0.6705 0.0980
C11_3 C 0.3160(4) 0.4575(2) 0.3818(4)
C12_3 C 0.6131(4) 0.7977(2) 0.0910(4)
C13_3 C 0.8743(4) 0.5031(2) 0.3183(4)
C14_3 C 0.9457(4) 0.4667(2) 0.3699(4)
H7_3 H 0.9704 0.4745 0.4400
C15_3 C 0.9477(5) 0.4101(2) 0.2275(4)
C16_3 C 0.8785(5) 0.4450(2) 0.1695(4)
H8_3 H 0.8567 0.4369 0.0988
C17_3 C 0.8415(5) 0.4917(2) 0.2147(4)
H9_3 H 0.7940 0.5158 0.1755
C18_3 C 0.9873(4) 0.3588(2) 0.1839(4)
C19_3 C 0.9442(5) 0.3383(2) 0.0878(5)
H10_3 H 0.8863 0.3571 0.0490
C20_3 C 0.9856(5) 0.2914(2) 0.0501(4)
C23_3 C 0.8308(4) 0.5522(2) 0.3714(4)
O13_2 O 0.7880(3) 0.69678(15) 0.3913(3)
O14_2 O 0.9347(3) 0.69147(15) 0.5087(3)
H11_3 H 0.9579 0.2778 0.9844
N1_4 N 0.5232(4) 0.08530(17) 0.1627(3)
N2_4 N 0.4433(4) 0.17801(17) 0.2394(3)
O5_4 O 0.2495(3) 0.07557(15) 0.1774(3)
O6_4 O 0.1239(3) 0.06554(15) 0.0418(3)
C1_4 C 0.6491(4) 0.0103(2) 0.1647(4)
C2_4 C 0.5571(4) 0.0388(2) 0.1234(4)
H1_4 H 0.5160 0.0245 0.0641
C3_4 C 0.5801(5) 0.1062(2) 0.2461(4)
C4_4 C 0.6727(5) 0.0801(3) 0.2925(5)
H2_4 H 0.7113 0.0952 0.3524
C5_4 C 0.7084(5) 0.0321(2) 0.2513(5)
H3_4 H 0.7726 0.0142 0.2817
C6_4 C 0.5378(5) 0.1580(2) 0.2869(4)
C7_4 C 0.4001(4) 0.2232(2) 0.2765(4)
H4_4 H 0.3339 0.2373 0.2421
C8_4 C 0.4466(4) 0.2506(2) 0.3627(4)
C9_4 C 0.5446(5) 0.2305(3) 0.4091(5)
H5_4 H 0.5799 0.2485 0.4675
C10_4 C 0.5921(5) 0.1842(3) 0.3711(5)
H6_4 H 0.6605 0.1705 0.4020
C12_4 C 0.3869(4) 0.2977(2) 0.4090(4)
C13_4 C 0.1257(4) 0.0031(2) 0.1817(4)
H9_4 H 0.2060 0.0158 0.3245
C23_4 C 0.1692(4) 0.0522(2) 0.1286(4)
C11_4 C 0.6840(4) 0.9575(2) 0.1182(4)
C14_4 C 0.0543(4) 0.9667(2) 0.1301(4)
H7_4 H 0.0296 0.9745 0.0600
C15_4 C 0.0523(5) 0.9101(2) 0.2725(4)
C16_4 C 0.1215(5) 0.9450(2) 0.3305(4)
H8_4 H 0.1433 0.9369 0.4012
C17_4 C 0.1585(5) 0.9917(2) 0.2853(4)
C18_4 C 0.0127(4) 0.8588(2) 0.3161(4)
C19_4 C 0.0558(5) 0.8383(2) 0.4122(5)
H10_4 H 0.1137 0.8571 0.4510
C20_4 C 0.0144(5) 0.7914(2) 0.4499(4)
H11_4 H 0.0421 0.7778 0.5156
C21_4 C 0.9314(4) 0.7634(2) 0.3914(4)
C22_4 C 0.8954(4) 0.7850(2) 0.2953(4)
H12_4 H 0.8408 0.7656 0.2535
C24_4 C 0.8801(5) 0.7131(2) 0.4325(4)
loop_
_geom_bond_atom_site_label_1
_geom_bond_atom_site_label_2
_geom_bond_site_symmetry_1
_geom_bond_site_symmetry_2
Cd1 N1 1_555 1_555
Cd2 O6 1_555 1_555
N1 C2 1_555 1_555
N2 Cd1 1_555 1_555
N3 C14 1_555 1_555
O1 C11 1_555 1_555
O2 C11 1_555 1_555
O3 C12 1_555 1_555
O4 C12 1_555 1_555
O5 Cd1 1_555 1_555
O6 C23 1_555 1_555
C1 C2 1_555 1_555
C2 H1 1_555 1_555
C3 N1 1_555 1_555
C4 C3 1_555 1_555
H2 C4 1_555 1_555
C5 C1 1_555 1_555
H3 C5 1_555 1_555
C6 N2 1_555 1_555
C7 N2 1_555 1_555
H4 C7 1_555 1_555
C8 C7 1_555 1_555
C9 C8 1_555 1_555
H5 C9 1_555 1_555
C10 C6 1_555 1_555
H6 C10 1_555 1_555
C11 C1 1_555 1_555
C12 C8 1_555 1_555
C13 C14 1_555 1_555
C14 H7 1_555 1_555
C15 N3 1_555 1_555
C16 C15 1_555 1_555
H8 C16 1_555 1_555
C17 C13 1_555 1_555
H9 C17 1_555 1_555
C18 C15 1_555 1_555
C19 C18 1_555 1_555
H10 C19 1_555 1_555
C20 C19 1_555 1_555
C23 O5 1_555 1_555
Cd4 O1 1_555 1_555
Cd8 O2 1_555 1_555
Cd9 O4 1_555 1_555
N6 Cd2 1_555 1_555
O9 Cd1 1_555 1_555
O10 Cd2 1_555 1_555
O11 Cd1 1_555 1_555
O12 Cd2 1_555 1_555
O13 Cd1 1_555 1_555
O14 Cd2 1_555 1_555
C3 C6 1_555 1_555
C4 C5 1_555 1_555
C9 C10 1_555 1_555
C13 C23 1_555 1_555
C16 C17 1_555 1_555
Cd6 O8 1_555 1_555
O7 C24 1_555 1_555
C22 N4 1_555 1_555
H12 C22 1_555 1_555
C24 C21 1_555 1_555
Cd3 O7 1_555 1_555
N4 Cd8 1_555 1_555
C21 C22 1_555 1_555
O13 C24_2 1_555 1_555
O14 C24_2 1_555 1_555
C22_2 N4_2 1_555 1_555
H12_2 C22_2 1_555 1_555
C24_2 C21_2 1_555 1_555
N4_2 Cd9 1_555 1_555
C21_2 C22_2 1_555 1_555
N3_2 C14_2 1_555 1_555
O1_2 C11_2 1_555 1_555
O2_2 C11_2 1_555 1_555
C14_2 H7_2 1_555 1_555
C15_2 N3_2 1_555 1_555
C16_2 C15_2 1_555 1_555
H8_2 C16_2 1_555 1_555
C18_2 C15_2 1_555 1_555
C19_2 C18_2 1_555 1_555
H10_2 C19_2 1_555 1_555
C20_2 C19_2 1_555 1_555
H11_2 C20_2 1_555 1_555
Cd9 O2_2 1_555 1_555
C16_2 C17_2 1_555 1_555
N6_2 Cd6 1_555 1_555
O10_2 Cd6 1_555 1_555
O12_2 Cd6 1_555 1_555
Cd3 N1_2 1_555 1_555
N1_2 C2_2 1_555 1_555
N2_2 Cd3 1_555 1_555
O3_2 C12_2 1_555 1_555
O4_2 C12_2 1_555 1_555
O5_2 Cd3 1_555 1_555
O6_2 C23_2 1_555 1_555
C1_2 C2_2 1_555 1_555
C2_2 H1_2 1_555 1_555
C3_2 N1_2 1_555 1_555
C4_2 C3_2 1_555 1_555
H2_2 C4_2 1_555 1_555
C5_2 C1_2 1_555 1_555
H3_2 C5_2 1_555 1_555
C6_2 N2_2 1_555 1_555
C7_2 N2_2 1_555 1_555
H4_2 C7_2 1_555 1_555
C8_2 C7_2 1_555 1_555
C9_2 C8_2 1_555 1_555
H5_2 C9_2 1_555 1_555
C10_2 C6_2 1_555 1_555
H6_2 C10_2 1_555 1_555
C12_2 C8_2 1_555 1_555
C23_2 O5_2 1_555 1_555
Cd4 O3_2 1_555 1_555
Cd8 O4_2 1_555 1_555
C3_2 C6_2 1_555 1_555
C4_2 C5_2 1_555 1_555
C9_2 C10_2 1_555 1_555
C13_2 C23_2 1_555 1_555
O7_2 C24_3 1_555 1_555
C22_3 N6 1_555 1_555
H12_3 C22_3 1_555 1_555
C24_3 C21_3 1_555 1_555
Cd5 O7_2 1_555 1_555
C21_3 C22_3 1_555 1_555
Cd9 O8_2 1_555 1_555
Cd4 N1_3 1_555 1_555
Cd8 O6_3 1_555 1_555
N1_3 C2_3 1_555 1_555
N2_3 Cd4 1_555 1_555
N5 C14_3 1_555 1_555
O9 C11_3 1_555 1_555
O10 C11_3 1_555 1_555
O11_2 C12_3 1_555 1_555
O12_2 C12_3 1_555 1_555
O5_3 Cd4 1_555 1_555
O6_3 C23_3 1_555 1_555
C1_3 C2_3 1_555 1_555
C2_3 H1_3 1_555 1_555
C3_3 N1_3 1_555 1_555
C4_3 C3_3 1_555 1_555
H2_3 C4_3 1_555 1_555
C5_3 C1_3 1_555 1_555
H3_3 C5_3 1_555 1_555
C6_3 N2_3 1_555 1_555
C7_3 N2_3 1_555 1_555
H4_3 C7_3 1_555 1_555
C8_3 C7_3 1_555 1_555
C9_3 C8_3 1_555 1_555
H5_3 C9_3 1_555 1_555
C10_3 C6_3 1_555 1_555
H6_3 C10_3 1_555 1_555
C11_3 C1_3 1_555 1_555
C12_3 C8_3 1_555 1_555
C13_3 C14_3 1_555 1_555
C14_3 H7_3 1_555 1_555
C15_3 N5 1_555 1_555
C16_3 C15_3 1_555 1_555
H8_3 C16_3 1_555 1_555
C17_3 C13_3 1_555 1_555
H9_3 C17_3 1_555 1_555
C18_3 C15_3 1_555 1_555
C19_3 C18_3 1_555 1_555
H10_3 C19_3 1_555 1_555
C20_3 C19_3 1_555 1_555
C23_3 O5_3 1_555 1_555
O13_2 Cd4 1_555 1_555
O14_2 Cd8 1_555 1_555
C3_3 C6_3 1_555 1_555
C4_3 C5_3 1_555 1_555
C9_3 C10_3 1_555 1_555
C13_3 C23_3 1_555 1_555
C16_3 C17_3 1_555 1_555
Cd5 N1_4 1_555 1_555
N1_4 C2_4 1_555 1_555
N2_4 Cd5 1_555 1_555
O11 C12_4 1_555 1_555
O12 C12_4 1_555 1_555
O5_4 Cd5 1_555 1_555
O6_4 C23_4 1_555 1_555
C1_4 C2_4 1_555 1_555
C2_4 H1_4 1_555 1_555
C3_4 N1_4 1_555 1_555
C4_4 C3_4 1_555 1_555
H2_4 C4_4 1_555 1_555
C5_4 C1_4 1_555 1_555
H3_4 C5_4 1_555 1_555
C6_4 N2_4 1_555 1_555
C7_4 N2_4 1_555 1_555
H4_4 C7_4 1_555 1_555
C8_4 C7_4 1_555 1_555
C9_4 C8_4 1_555 1_555
H5_4 C9_4 1_555 1_555
C10_4 C6_4 1_555 1_555
H6_4 C10_4 1_555 1_555
C12_4 C8_4 1_555 1_555
C23_4 O5_4 1_555 1_555
C3_4 C6_4 1_555 1_555
C4_4 C5_4 1_555 1_555
C9_4 C10_4 1_555 1_555
C13_4 C23_4 1_555 1_555
N5_2 C14_4 1_555 1_555
O9_2 C11_4 1_555 1_555
O10_2 C11_4 1_555 1_555
C14_4 H7_4 1_555 1_555
C15_4 N5_2 1_555 1_555
C16_4 C15_4 1_555 1_555
H8_4 C16_4 1_555 1_555
C18_4 C15_4 1_555 1_555
C19_4 C18_4 1_555 1_555
H10_4 C19_4 1_555 1_555
C20_4 C19_4 1_555 1_555
H11_4 C20_4 1_555 1_555
C16_4 C17_4 1_555 1_555
O13_2 C24_4 1_555 1_555
O14_2 C24_4 1_555 1_555
C22_4 N6_2 1_555 1_555
H12_4 C22_4 1_555 1_555
C24_4 C21_4 1_555 1_555
C21_4 C22_4 1_555 1_555

#END
