
###############################################################################
#
# This file contains modified crystal structure data generated from the
# MOF subset of the Cambridge Structural Database (CSD) v543 
# hosted by the Cambridge Crystallographic Data Centre (CCDC).
#
# This work is licensed under the Creative Commons
# Attribution-NonCommercial-ShareAlike 4.0 International License.
# To view a copy of this license, visit
# http://creativecommons.org/licenses/by-nc-sa/4.0/
# or send a letter to
# Creative Commons, PO Box 1866, Mountain View, CA 94042, USA.
#
# CIF created using the CSD Python API on 29 September 2022
# The structure has been converted into the P1 space group
# The structure has a 3D framework
# The original CSD entry CIRBOX is in the monoclinic crystal system
# The framework has been calculated to contain at least 10.0% void space
# The void calculation uses a probe of radius 1.32A, grid spacing 0.4
#
###############################################################################

data_CIRBOX
_chemical_formula_moiety         '(C96 H68 N16 O18 Zn4)n'
_symmetry_cell_setting           triclinic
_symmetry_space_group_name_H-M   'P 1'
_symmetry_Int_Tables_number      1
_space_group_name_Hall           'P 1'
loop_
_symmetry_equiv_pos_site_id
_symmetry_equiv_pos_as_xyz
1 x,y,z
_cell_length_a                   9.0050(4)
_cell_length_b                   28.0924(11)
_cell_length_c                   13.4462(5)
_cell_angle_alpha                90
_cell_angle_beta                 90.804(2)
_cell_angle_gamma                90
_cell_volume                     3401.18
loop_
_atom_site_label
_atom_site_type_symbol
_atom_site_fract_x
_atom_site_fract_y
_atom_site_fract_z
Zn8 Zn 0.39632(4) 0.014163(14) 0.41982(3)
O6 O 0.9140(4) 0.28241(14) 0.2865(3)
C36 C 0.9925(6) 0.27968(19) 0.3572(4)
N7 N 0.9699(7) 0.2480(2) 0.4326(4)
O8 O 0.6652(3) 0.04979(10) 0.5146(2)
O9 O 0.5179(3) 0.07312(10) 0.3892(2)
C41 C 0.6249(4) 0.07918(15) 0.4482(3)
C43 C 0.7136(5) 0.12424(16) 0.4410(3)
C44 C 0.6983(6) 0.15469(17) 0.3640(4)
H30 H 0.6267(6) 0.14780(17) 0.3135(4)
C45 C 0.8788(7) 0.2083(2) 0.4304(4)
C46 C 0.7837(6) 0.19610(19) 0.3558(4)
H31 H 0.7750(6) 0.21551(19) 0.2982(4)
C47 C 0.8147(9) 0.1358(3) 0.5149(6)
H32 H 0.8287(9) 0.1149(3) 0.5698(6)
C48 C 0.8942(11) 0.1765(3) 0.5101(6)
H33 H 0.9625(11) 0.1838(3) 0.5624(6)
N5 N 0.2067(3) 0.02016(12) 0.3373(2)
C26 C 0.0794(5) 0.02717(18) 0.3825(3)
H18 H 0.0815(5) 0.03188(18) 0.4525(3)
C30 C 0.0721(6) 0.0113(3) 0.1847(4)
H22 H 0.0728(6) 0.0047(3) 0.1154(4)
C33 C 0.2025(5) 0.0122(2) 0.2399(4)
H24 H 0.2935(5) 0.0068(2) 0.2067(4)
O11 O 0.3216(3) 0.04685(11) 0.5448(2)
C1 C 0.2960(4) 0.08447(15) 0.6989(3)
C2 C 0.3578(5) 0.09718(16) 0.7909(3)
H1 H 0.4453(5) 0.08155(16) 0.8139(3)
C4 C 0.1629(6) 0.10608(19) 0.6712(4)
H2 H 0.1163(6) 0.09715(19) 0.6102(4)
C5 C 0.2951(6) 0.13170(18) 0.8487(3)
H3 H 0.3404(6) 0.14017(18) 0.9105(3)
C6 C 0.0968(6) 0.1399(2) 0.7293(4)
H4 H 0.0043(6) 0.1533(2) 0.7094(4)
C7 C 0.1655(6) 0.1544(2) 0.8173(4)
H5 H 0.0187(7) 0.2466(2) 0.9887(4)
C9 C 0.3694(4) 0.04983(14) 0.6328(3)
O5 O 0.4755(3) 0.02589(10) 0.6682(2)
N4 N 0.1082(6) 0.1903(2) 0.8785(3)
H17 H 0.1516(6) 0.1939(2) 0.9371(3)
O1 O 0.0860(4) 0.71759(14) 0.7135(3)
C3 C 0.0075(6) 0.72032(19) 0.6428(4)
N1 N 0.0301(7) 0.7520(2) 0.5674(4)
O3 O 0.3348(3) 0.95021(10) 0.4854(2)
O4 O 0.4821(3) 0.92688(10) 0.6108(2)
C8 C 0.3751(4) 0.92082(15) 0.5518(3)
C10 C 0.2864(5) 0.87576(16) 0.5590(3)
C11 C 0.3017(6) 0.84531(17) 0.6360(4)
H6 H 0.3733(6) 0.85220(17) 0.6865(4)
C16 C 0.1212(7) 0.7917(2) 0.5696(4)
C19 C 0.2163(6) 0.80390(19) 0.6442(4)
H12 H 0.2250(6) 0.78449(19) 0.7018(4)
C21 C 0.1853(9) 0.8642(3) 0.4851(6)
H13 H 0.1713(9) 0.8851(3) 0.4302(6)
C22 C 0.1058(11) 0.8235(3) 0.4899(6)
H14 H 0.0375(11) 0.8162(3) 0.4376(6)
Zn5 Zn 0.60368(4) 0.985837(14) 0.58018(3)
C34 C 0.7040(4) 0.91553(15) 0.3011(3)
C35 C 0.6422(5) 0.90282(16) 0.2091(3)
H25 H 0.5547(5) 0.91845(16) 0.1861(3)
C37 C 0.8371(6) 0.89392(19) 0.3288(4)
H26 H 0.8837(6) 0.90285(19) 0.3898(4)
C38 C 0.7049(6) 0.86830(18) 0.1513(3)
H27 H 0.6596(6) 0.85983(18) 0.0895(3)
C39 C 0.9032(6) 0.8601(2) 0.2707(4)
H28 H 0.9957(6) 0.8467(2) 0.2906(4)
C40 C 0.8345(6) 0.8456(2) 0.1827(4)
H29 H 0.9813(7) 0.7534(2) 0.0113(4)
O7 O 0.6784(3) 0.95315(11) 0.4552(2)
C42 C 0.6306(4) 0.95017(14) 0.3672(3)
O10 O 0.5245(3) 0.97411(10) 0.3318(2)
N8 N 0.8918(6) 0.8097(2) 0.1215(3)
H34 H 0.8484(6) 0.8061(2) 0.0629(3)
N2 N 0.7933(3) 0.97984(12) 0.6627(2)
C13 C 0.9206(5) 0.97283(18) 0.6175(3)
H7 H 0.9185(5) 0.96812(18) 0.5475(3)
C18 C 0.9279(6) 0.9887(3) 0.8153(4)
H11 H 0.9272(6) 0.9953(3) 0.8846(4)
C24 C 0.7975(5) 0.9878(2) 0.7601(4)
H16 H 0.7065(5) 0.9932(2) 0.7933(4)
Zn6 Zn 0.60368(4) 0.514163(14) 0.08018(3)
O12 O 0.3216(3) 0.45315(11) 0.0448(2)
N5_2 N 0.7933(3) 0.52016(12) 0.1627(2)
C26_2 C 0.9206(5) 0.52717(18) 0.1175(3)
H18_2 H 0.9185(5) 0.53188(18) 0.0475(3)
C30_2 C 0.9279(6) 0.5113(3) 0.3153(4)
H22_2 H 0.9272(6) 0.5047(3) 0.3846(4)
C33_2 C 0.7975(5) 0.5122(2) 0.2601(4)
H24_2 H 0.7065(5) 0.5068(2) 0.2933(4)
C34_2 C 0.2960(4) 0.41553(15) 0.1989(3)
C35_2 C 0.3578(5) 0.40282(16) 0.2909(3)
H25_2 H 0.4453(5) 0.41845(16) 0.3139(3)
C37_2 C 0.1629(6) 0.39392(19) 0.1712(4)
H26_2 H 0.1163(6) 0.40285(19) 0.1102(4)
C38_2 C 0.2951(6) 0.36830(18) 0.3487(3)
H27_2 H 0.3404(6) 0.35983(18) 0.4105(3)
C39_2 C 0.0968(6) 0.3601(2) 0.2293(4)
H28_2 H 0.0043(6) 0.3467(2) 0.2094(4)
C40_2 C 0.1655(6) 0.3456(2) 0.3173(4)
H29_2 H 0.0187(7) 0.2534(2) 0.4887(4)
C42_2 C 0.3694(4) 0.45017(14) 0.1328(3)
O10_2 O 0.4755(3) 0.47411(10) 0.1682(2)
N8_2 N 0.1082(6) 0.3097(2) 0.3785(3)
H34_2 H 0.1516(6) 0.3061(2) 0.4371(3)
O13 O 0.6652(3) 0.45021(10) 0.0146(2)
O16 O 0.4821(3) 0.57312(10) 0.1108(2)
O6_2 O 0.0860(4) 0.78241(14) 0.2135(3)
C36_2 C 0.0075(6) 0.77968(19) 0.1428(4)
N7_2 N 0.0301(7) 0.7480(2) 0.0674(4)
C41_2 C 0.3751(4) 0.57918(15) 0.0518(3)
C43_2 C 0.2864(5) 0.62424(16) 0.0590(3)
C44_2 C 0.3017(6) 0.65469(17) 0.1360(4)
H30_2 H 0.3733(6) 0.64780(17) 0.1865(4)
C45_2 C 0.1212(7) 0.7083(2) 0.0696(4)
C46_2 C 0.2163(6) 0.69610(19) 0.1442(4)
H31_2 H 0.2250(6) 0.71551(19) 0.2018(4)
C21_2 C 0.8147(9) 0.3642(3) 0.0149(6)
H13_2 H 0.8287(9) 0.3851(3) 0.0698(6)
C22_2 C 0.8942(11) 0.3235(3) 0.0101(6)
H14_2 H 0.9625(11) 0.3162(3) 0.0624(6)
Zn1 Zn 0.39632(4) 0.485837(14) 0.91982(3)
C1_2 C 0.7040(4) 0.58447(15) 0.8011(3)
C2_2 C 0.6422(5) 0.59718(16) 0.7091(3)
H1_2 H 0.5547(5) 0.58155(16) 0.6861(3)
C4_2 C 0.8371(6) 0.60608(19) 0.8288(4)
H2_2 H 0.8837(6) 0.59715(19) 0.8898(4)
C5_2 C 0.7049(6) 0.63170(18) 0.6513(3)
H3_2 H 0.6596(6) 0.64017(18) 0.5895(3)
C6_2 C 0.9032(6) 0.6399(2) 0.7707(4)
H4_2 H 0.9957(6) 0.6533(2) 0.7906(4)
C7_2 C 0.8345(6) 0.6544(2) 0.6827(4)
H5_2 H 0.9813(7) 0.7466(2) 0.5113(4)
O2 O 0.6784(3) 0.54685(11) 0.9552(2)
N2_2 N 0.2067(3) 0.47984(12) 0.8373(2)
C9_2 C 0.6306(4) 0.54983(14) 0.8672(3)
C13_2 C 0.0794(5) 0.47283(18) 0.8825(3)
H7_2 H 0.0815(5) 0.46812(18) 0.9525(3)
C18_2 C 0.0721(6) 0.4887(3) 0.6847(4)
H11_2 H 0.0728(6) 0.4953(3) 0.6154(4)
C24_2 C 0.2025(5) 0.4878(2) 0.7399(4)
H16_2 H 0.2935(5) 0.4932(2) 0.7067(4)
O5_2 O 0.5245(3) 0.52589(10) 0.8318(2)
N4_2 N 0.8918(6) 0.6903(2) 0.6215(3)
H17_2 H 0.8484(6) 0.6939(2) 0.5629(3)
O14 O 0.3348(3) 0.54979(10) 0.9854(2)
O15 O 0.5179(3) 0.42688(10) 0.8892(2)
C47_2 C 0.1853(9) 0.6358(3) 0.9851(6)
H32_2 H 0.1713(9) 0.6149(3) 0.9302(6)
C48_2 C 0.1058(11) 0.6765(3) 0.9899(6)
H33_2 H 0.0375(11) 0.6838(3) 0.9376(6)
O1_2 O 0.9140(4) 0.21759(14) 0.7865(3)
C3_2 C 0.9925(6) 0.22032(19) 0.8572(4)
N1_2 N 0.9699(7) 0.2520(2) 0.9326(4)
C8_2 C 0.6249(4) 0.42082(15) 0.9482(3)
C10_2 C 0.7136(5) 0.37576(16) 0.9410(3)
C11_2 C 0.6983(6) 0.34531(17) 0.8640(4)
H6_2 H 0.6267(6) 0.35220(17) 0.8135(4)
C16_2 C 0.8788(7) 0.2917(2) 0.9304(4)
C19_2 C 0.7837(6) 0.30390(19) 0.8558(4)
H12_2 H 0.7750(6) 0.28449(19) 0.7982(4)
N3 N 0.7802(4) 0.49467(19) 0.5930(3)
C12 C 0.9388(5) 0.4796(2) 0.7335(4)
C14 C 0.5279(5) 0.4631(2) 0.5662(4)
H8 H 0.5472(5) 0.4375(2) 0.6107(4)
C15 C 0.7933(5) 0.4809(2) 0.6795(4)
H9 H 0.7070(5) 0.4706(2) 0.7133(4)
C17 C 0.6098(5) 0.5329(2) 0.4801(4)
H10 H 0.6858(5) 0.5552(2) 0.4655(4)
C20 C 0.6377(5) 0.4965(2) 0.5477(4)
C23 C 0.9440(5) 0.47195(19) 0.8341(4)
H15 H 0.8555(5) 0.46615(19) 0.8698(4)
N6 N 0.2198(4) 0.50533(19) 0.4070(3)
C25 C 0.0612(5) 0.5204(2) 0.2665(4)
C27 C 0.4721(5) 0.5369(2) 0.4338(4)
H19 H 0.4528(5) 0.5625(2) 0.3893(4)
C28 C 0.2067(5) 0.5191(2) 0.3205(4)
H20 H 0.2930(5) 0.5294(2) 0.2867(4)
C29 C 0.3902(5) 0.4671(2) 0.5199(4)
H21 H 0.3142(5) 0.4448(2) 0.5345(4)
C31 C 0.3623(5) 0.5035(2) 0.4523(4)
C32 C 0.0560(5) 0.52805(19) 0.1659(4)
H23 H 0.1445(5) 0.53385(19) 0.1302(4)
C17_2 C 0.3902(5) 0.0329(2) 0.0199(4)
H10_2 H 0.3142(5) 0.0552(2) 0.0345(4)
N6_2 N 0.7802(4) 0.00533(19) 0.0930(3)
C25_2 C 0.9388(5) 0.0204(2) 0.2335(4)
C27_2 C 0.5279(5) 0.0369(2) 0.0662(4)
H19_2 H 0.5472(5) 0.0625(2) 0.1107(4)
C28_2 C 0.7933(5) 0.0191(2) 0.1795(4)
H20_2 H 0.7070(5) 0.0294(2) 0.2133(4)
C31_2 C 0.6377(5) 0.0035(2) 0.0477(4)
C32_2 C 0.9440(5) 0.02805(19) 0.3341(4)
H23_2 H 0.8555(5) 0.03385(19) 0.3698(4)
N3_2 N 0.2198(4) 0.99467(19) 0.9070(3)
C12_2 C 0.0612(5) 0.9796(2) 0.7665(4)
C14_2 C 0.4721(5) 0.9631(2) 0.9338(4)
H8_2 H 0.4528(5) 0.9375(2) 0.8893(4)
C15_2 C 0.2067(5) 0.9809(2) 0.8205(4)
H9_2 H 0.2930(5) 0.9706(2) 0.7867(4)
C20_2 C 0.3623(5) 0.9965(2) 0.9523(4)
C23_2 C 0.0560(5) 0.97195(19) 0.6659(4)
H15_2 H 0.1445(5) 0.96615(19) 0.6302(4)
C29_2 C 0.6098(5) 0.9671(2) 0.9801(4)
H21_2 H 0.6858(5) 0.9448(2) 0.9655(4)
loop_
_geom_bond_atom_site_label_1
_geom_bond_atom_site_label_2
_geom_bond_site_symmetry_1
_geom_bond_site_symmetry_2
O6 C36 1_555 1_555
C36 N7 1_555 1_555
O8 C41 1_555 1_555
O9 C41 1_555 1_555
C41 C43 1_555 1_555
C43 C44 1_555 1_555
C44 H30 1_555 1_555
C45 N7 1_555 1_555
C46 C44 1_555 1_555
H31 C46 1_555 1_555
C47 C43 1_555 1_555
H32 C47 1_555 1_555
C48 C45 1_555 1_555
H33 C48 1_555 1_555
Zn8 O9 1_555 1_555
C45 C46 1_555 1_555
C47 C48 1_555 1_555
N5 C26 1_555 1_555
C26 H18 1_555 1_555
H22 C30 1_555 1_555
C33 N5 1_555 1_555
H24 C33 1_555 1_555
Zn8 N5 1_555 1_555
O11 Zn8 1_555 1_555
C30 C33 1_555 1_555
C1 C2 1_555 1_555
C2 H1 1_555 1_555
C4 C1 1_555 1_555
H2 C4 1_555 1_555
C5 C2 1_555 1_555
H3 C5 1_555 1_555
C6 C4 1_555 1_555
H4 C6 1_555 1_555
C7 C5 1_555 1_555
O11 C9 1_555 1_555
C9 C1 1_555 1_555
H17 N4 1_555 1_555
C6 C7 1_555 1_555
C7 N4 1_555 1_555
C9 O5 1_555 1_555
O1 C3 1_555 1_555
C3 N1 1_555 1_555
O3 C8 1_555 1_555
O4 C8 1_555 1_555
C8 C10 1_555 1_555
C10 C11 1_555 1_555
C11 H6 1_555 1_555
C16 N1 1_555 1_555
C19 C11 1_555 1_555
H12 C19 1_555 1_555
C21 C10 1_555 1_555
H13 C21 1_555 1_555
C22 C16 1_555 1_555
H14 C22 1_555 1_555
Zn5 O4 1_555 1_555
C16 C19 1_555 1_555
C21 C22 1_555 1_555
C34 C35 1_555 1_555
C35 H25 1_555 1_555
C37 C34 1_555 1_555
H26 C37 1_555 1_555
C38 C35 1_555 1_555
H27 C38 1_555 1_555
C39 C37 1_555 1_555
H28 C39 1_555 1_555
C40 C38 1_555 1_555
O7 C42 1_555 1_555
C42 C34 1_555 1_555
H34 N8 1_555 1_555
Zn5 O7 1_555 1_555
C39 C40 1_555 1_555
C40 N8 1_555 1_555
C42 O10 1_555 1_555
Zn5 N2 1_555 1_555
N2 C13 1_555 1_555
C13 H7 1_555 1_555
H11 C18 1_555 1_555
C24 N2 1_555 1_555
H16 C24 1_555 1_555
C18 C24 1_555 1_555
N5_2 C26_2 1_555 1_555
C26_2 H18_2 1_555 1_555
H22_2 C30_2 1_555 1_555
C33_2 N5_2 1_555 1_555
H24_2 C33_2 1_555 1_555
Zn6 N5_2 1_555 1_555
C34_2 C35_2 1_555 1_555
C35_2 H25_2 1_555 1_555
C37_2 C34_2 1_555 1_555
H26_2 C37_2 1_555 1_555
C38_2 C35_2 1_555 1_555
H27_2 C38_2 1_555 1_555
C39_2 C37_2 1_555 1_555
H28_2 C39_2 1_555 1_555
C40_2 C38_2 1_555 1_555
O12 C42_2 1_555 1_555
C42_2 C34_2 1_555 1_555
O10_2 Zn6 1_555 1_555
H34_2 N8_2 1_555 1_555
O13 Zn6 1_555 1_555
O16 Zn6 1_555 1_555
C30_2 C33_2 1_555 1_555
C39_2 C40_2 1_555 1_555
C40_2 N8_2 1_555 1_555
C42_2 O10_2 1_555 1_555
O6_2 C36_2 1_555 1_555
C36_2 N7_2 1_555 1_555
O16 C41_2 1_555 1_555
C41_2 C43_2 1_555 1_555
C43_2 C44_2 1_555 1_555
C44_2 H30_2 1_555 1_555
C45_2 N7_2 1_555 1_555
C46_2 C44_2 1_555 1_555
H31_2 C46_2 1_555 1_555
C45_2 C46_2 1_555 1_555
H13_2 C21_2 1_555 1_555
H14_2 C22_2 1_555 1_555
C21_2 C22_2 1_555 1_555
Zn1 N2_2 1_555 1_555
C1_2 C2_2 1_555 1_555
C2_2 H1_2 1_555 1_555
C4_2 C1_2 1_555 1_555
H2_2 C4_2 1_555 1_555
C5_2 C2_2 1_555 1_555
H3_2 C5_2 1_555 1_555
C6_2 C4_2 1_555 1_555
H4_2 C6_2 1_555 1_555
C7_2 C5_2 1_555 1_555
O2 C9_2 1_555 1_555
N2_2 C13_2 1_555 1_555
C9_2 C1_2 1_555 1_555
C13_2 H7_2 1_555 1_555
H11_2 C18_2 1_555 1_555
C24_2 N2_2 1_555 1_555
H16_2 C24_2 1_555 1_555
O5_2 Zn1 1_555 1_555
H17_2 N4_2 1_555 1_555
O14 Zn1 1_555 1_555
O15 Zn1 1_555 1_555
C6_2 C7_2 1_555 1_555
C7_2 N4_2 1_555 1_555
C9_2 O5_2 1_555 1_555
C18_2 C24_2 1_555 1_555
H32_2 C47_2 1_555 1_555
H33_2 C48_2 1_555 1_555
C47_2 C48_2 1_555 1_555
O1_2 C3_2 1_555 1_555
C3_2 N1_2 1_555 1_555
O15 C8_2 1_555 1_555
C8_2 C10_2 1_555 1_555
C10_2 C11_2 1_555 1_555
C11_2 H6_2 1_555 1_555
C16_2 N1_2 1_555 1_555
C19_2 C11_2 1_555 1_555
H12_2 C19_2 1_555 1_555
C16_2 C19_2 1_555 1_555
N3 C15 1_555 1_555
C12 C15 1_555 1_555
C14 H8 1_555 1_555
C15 H9 1_555 1_555
C17 H10 1_555 1_555
C20 N3 1_555 1_555
C23 C12 1_555 1_555
H15 C23 1_555 1_555
N6 C28 1_555 1_555
C25 C28 1_555 1_555
C27 C17 1_555 1_555
H19 C27 1_555 1_555
C28 H20 1_555 1_555
C29 C14 1_555 1_555
H21 C29 1_555 1_555
C31 N6 1_555 1_555
C32 C25 1_555 1_555
H23 C32 1_555 1_555
C14 C20 1_555 1_555
C17 C20 1_555 1_555
C27 C31 1_555 1_555
C29 C31 1_555 1_555
C17_2 H10_2 1_555 1_555
N6_2 C28_2 1_555 1_555
C25_2 C28_2 1_555 1_555
C27_2 C17_2 1_555 1_555
H19_2 C27_2 1_555 1_555
C28_2 H20_2 1_555 1_555
C31_2 N6_2 1_555 1_555
C32_2 C25_2 1_555 1_555
H23_2 C32_2 1_555 1_555
C27_2 C31_2 1_555 1_555
N3_2 C15_2 1_555 1_555
C12_2 C15_2 1_555 1_555
C14_2 H8_2 1_555 1_555
C15_2 H9_2 1_555 1_555
C20_2 N3_2 1_555 1_555
C23_2 C12_2 1_555 1_555
H15_2 C23_2 1_555 1_555
C29_2 C14_2 1_555 1_555
H21_2 C29_2 1_555 1_555
C14_2 C20_2 1_555 1_555

#END
