
###############################################################################
#
# This file contains modified crystal structure data generated from the
# MOF subset of the Cambridge Structural Database (CSD) v543 
# hosted by the Cambridge Crystallographic Data Centre (CCDC).
#
# This work is licensed under the Creative Commons
# Attribution-NonCommercial-ShareAlike 4.0 International License.
# To view a copy of this license, visit
# http://creativecommons.org/licenses/by-nc-sa/4.0/
# or send a letter to
# Creative Commons, PO Box 1866, Mountain View, CA 94042, USA.
#
# CIF created using the CSD Python API on 29 September 2022
# The structure has been converted into the P1 space group
# The structure has a 3D framework
# The original CSD entry CIRBUD is in the monoclinic crystal system
# The original CSD entry CIRBUD is in a Sohncke space group
# The framework has been calculated to contain at least 10.0% void space
# The void calculation uses a probe of radius 1.32A, grid spacing 0.4
#
###############################################################################

data_CIRBUD
_chemical_formula_moiety         '(C104 H72 N16 O20 Zn3)n'
_symmetry_cell_setting           triclinic
_symmetry_space_group_name_H-M   'P 1'
_symmetry_Int_Tables_number      1
_space_group_name_Hall           'P 1'
loop_
_symmetry_equiv_pos_site_id
_symmetry_equiv_pos_as_xyz
1 x,y,z
_cell_length_a                   8.9593(4)
_cell_length_b                   28.1440(12)
_cell_length_c                   13.9251(5)
_cell_angle_alpha                90
_cell_angle_beta                 90.550(3)
_cell_angle_gamma                90
_cell_volume                     3511.06
loop_
_atom_site_label
_atom_site_type_symbol
_atom_site_fract_x
_atom_site_fract_y
_atom_site_fract_z
Zn7 Zn 0.10370(4) 0.543369(12) 0.68047(3)
C9 C 0.2197(4) 0.60867(12) 0.9578(2)
C11 C 0.3537(5) 0.62914(15) 0.9270(3)
H7 H 0.3929 0.6204 0.8663
C19 C 0.4287(4) 0.66132(13) 0.9822(3)
H12 H 0.5198 0.6747 0.9606
O8 O 0.0214(3) 0.55623(8) 0.92468(16)
O10 O 0.1794(3) 0.57255(9) 0.80665(18)
C44 C 0.1336(4) 0.57598(13) 0.8899(2)
O1 O 0.0279(3) 0.45781(9) 0.86244(18)
O4 O 0.1661(3) 0.47659(8) 0.7331(2)
C2 C 0.1279(4) 0.44924(13) 0.8020(2)
O5 O 0.4020(5) 0.24472(14) 0.9651(3)
N4 N 0.4410(5) 0.27501(14) 0.8192(3)
H3 H 0.4835 0.2683 0.7641
C5 C 0.6305(4) 0.17474(12) 0.9274(3)
C8 C 0.8339(5) 0.11899(14) 0.9551(3)
H5 H 0.9220 0.1036 0.9338
C10 C 0.2077(4) 0.40134(14) 0.8058(3)
N7 N 0.5671(4) 0.20918(11) 0.8664(2)
H10 H 0.5975 0.2092 0.8065
C22 C 0.2807(6) 0.33287(18) 0.8976(3)
H13 H 0.2713 0.3142 0.9541
C28 C 0.4631(5) 0.24285(15) 0.8900(2)
C29 C 0.3621(5) 0.31641(16) 0.8212(4)
C36 C 0.2134(5) 0.37642(17) 0.8911(3)
H23 H 0.1696 0.3898 0.9467
C41 C 0.3492(5) 0.34024(15) 0.7326(3)
H28 H 0.3878 0.3261 0.6761
C42 C 0.2799(6) 0.38455(16) 0.7273(3)
H29 H 0.2831 0.4027 0.6699
C43 C 0.7625(6) 0.15216(16) 0.8945(3)
H30 H 0.8016 0.1593 0.8330
N9 N 0.2940(3) 0.55357(10) 0.6063(2)
N2 N 0.7725(4) 0.54562(14) 0.4184(2)
C18 C 0.7054(4) 0.57769(16) 0.4636(3)
H11 H 0.7495 0.6083 0.4672
C21 C 0.9126(4) 0.55339(15) 0.3775(3)
C30 C 0.9523(4) 0.52324(15) 0.2969(2)
H22 H 0.9931 0.6038 0.4672
C39 C 0.8486(4) 0.48690(16) 0.2638(3)
H26 H 0.7535 0.4831 0.2924
C40 C 0.8928(4) 0.45849(16) 0.1903(3)
H27 H 0.8276 0.4342 0.1679
C46 C 0.5649(4) 0.57013(17) 0.5101(3)
C49 C 0.3559(4) 0.59735(14) 0.6043(3)
H33 H 0.3062 0.6226 0.6360
C50 C 0.3645(5) 0.51881(16) 0.5573(3)
H34 H 0.3196 0.4882 0.5550
C51 C 0.4884(4) 0.60680(15) 0.5581(3)
H35 H 0.5281 0.6381 0.5587
C52 C 0.4968(5) 0.52525(14) 0.5110(3)
H36 H 0.5428 0.4993 0.4794
N2_2 N 0.2275(4) 0.04562(14) 0.5816(2)
C18_2 C 0.2946(4) 0.07769(16) 0.5364(3)
H11_2 H 0.2505 0.1083 0.5328
C21_2 C 0.0874(4) 0.05339(15) 0.6225(3)
C30_2 C 0.0477(4) 0.02324(15) 0.7031(2)
H22_2 H 0.0069 0.1038 0.5328
C46_2 C 0.4351(4) 0.07013(17) 0.4899(3)
C49_2 C 0.6441(4) 0.09735(14) 0.3957(3)
H33_2 H 0.6938 0.1226 0.3640
C50_2 C 0.6355(5) 0.01881(16) 0.4427(3)
C51_2 C 0.5116(4) 0.10680(15) 0.4419(3)
H35_2 H 0.4719 0.1381 0.4413
C52_2 C 0.5032(5) 0.02525(14) 0.4890(3)
N8 N 0.7060(3) 0.05357(10) 0.3937(2)
Zn5 Zn 0.89630(4) 0.043369(12) 0.31953(3)
O12 O 0.9786(3) 0.05623(8) 0.07532(16)
O14 O 0.8206(3) 0.07255(9) 0.19335(18)
C9_2 C 0.7803(4) 0.10867(12) 0.0422(2)
C11_2 C 0.6463(5) 0.12914(15) 0.0730(3)
H7_2 H 0.6071 0.1204 0.1337
C19_2 C 0.5713(4) 0.16132(13) 0.0178(3)
H12_2 H 0.4802 0.1747 0.0394
C44_2 C 0.8664(4) 0.07598(13) 0.1101(2)
C39_2 C 0.1514(4) 0.98690(16) 0.7362(3)
H26_2 H 0.2465 0.9831 0.7076
C40_2 C 0.1072(4) 0.95849(16) 0.8097(3)
H27_2 H 0.1724 0.9342 0.8321
H34_2 H 0.6804 0.9882 0.4450
H36_2 H 0.4572 0.9993 0.5206
Zn1 Zn 0.10302(4) 0.016874(12) 0.16634(3)
O2 O 0.1665(3) 0.07862(10) 0.2341(2)
O3 O 0.0111(3) 0.10410(8) 0.34714(17)
N1 N 0.2936(3) 0.00881(10) 0.09046(19)
C1 C 0.1234(4) 0.10849(11) 0.2939(2)
C3 C 0.1845(4) 0.18495(12) 0.3810(3)
H1 H 0.1026 0.1806 0.4230
C4 C 0.2173(4) 0.15144(11) 0.3048(2)
O6 O 0.4423(3) 0.30054(11) 0.48203(19)
N3 N 0.6253(5) 0.33359(14) 0.3898(3)
H2 H 0.6649 0.3321 0.3323
C6 C 0.4229(4) 0.20065(14) 0.2535(3)
H4 H 0.5013 0.2068 0.2098
N5 N 0.4909(4) 0.27256(12) 0.3310(2)
H6 H 0.5408 0.2794 0.2787
C12 C 0.8678(5) 0.42686(14) 0.4802(3)
H8 H 0.9564 0.4422 0.4599
C14 C 0.2818(5) 0.22448(13) 0.3891(3)
H9 H 0.2677 0.2464 0.4401
C15 C 0.8015(4) 0.44197(13) 0.5672(2)
C16 C 0.5132(4) 0.30202(12) 0.4100(3)
C17 C 0.3935(5) 0.23193(14) 0.3270(3)
C23 C 0.8122(5) 0.39235(16) 0.4259(3)
H14 H 0.8609 0.3840 0.3680
C26 C 0.6692(4) 0.41800(14) 0.5913(3)
H17 H 0.6207 0.4265 0.6492
C27 C 0.6816(4) 0.36780(13) 0.4528(3)
C31 C 0.4232(4) 0.00562(12) 0.1435(3)
H18 H 0.4189 0.0064 0.2116
C32 C 0.3346(4) 0.15933(13) 0.2443(2)
H19 H 0.3565 0.1368 0.1956
C33 C 0.6070(5) 0.38301(16) 0.5357(3)
H20 H 0.5143 0.3691 0.5528
C37 C 0.5571(4) 0.00140(13) 0.1000(3)
O7 O 0.9691(3) 0.50436(8) 0.59431(17)
O9 O 0.8204(3) 0.48100(9) 0.71478(17)
C45 C 0.8679(3) 0.47856(11) 0.6307(3)
Zn4 Zn 0.89698(4) 0.516874(12) 0.83366(3)
O11 O 0.0309(3) 0.00436(8) 0.40569(17)
H24 H 0.6456 0.9986 0.1377
O13 O 0.1796(3) 0.98100(9) 0.28522(17)
O2_2 O 0.8335(3) 0.57862(10) 0.7659(2)
O3_2 O 0.9889(3) 0.60410(8) 0.65286(17)
N1_2 N 0.7064(3) 0.50881(10) 0.90954(19)
C1_2 C 0.8766(4) 0.60849(11) 0.7061(2)
C3_2 C 0.8155(4) 0.68495(12) 0.6190(3)
H1_2 H 0.8974 0.6806 0.5770
C4_2 C 0.7827(4) 0.65144(11) 0.6952(2)
O6_2 O 0.5577(3) 0.80054(11) 0.51797(19)
N3_2 N 0.3747(5) 0.83359(14) 0.6102(3)
H2_2 H 0.3351 0.8321 0.6677
C6_2 C 0.5771(4) 0.70065(14) 0.7465(3)
H4_2 H 0.4987 0.7068 0.7902
N5_2 N 0.5091(4) 0.77256(12) 0.6690(2)
H6_2 H 0.4592 0.7794 0.7213
C12_2 C 0.1322(5) 0.92686(14) 0.5198(3)
H8_2 H 0.0436 0.9422 0.5401
C14_2 C 0.7182(5) 0.72448(13) 0.6109(3)
H9_2 H 0.7323 0.7464 0.5599
C15_2 C 0.1985(4) 0.94197(13) 0.4328(2)
C16_2 C 0.4868(4) 0.80202(12) 0.5900(3)
C17_2 C 0.6065(5) 0.73193(14) 0.6730(3)
C23_2 C 0.1878(5) 0.89235(16) 0.5741(3)
H14_2 H 0.1391 0.8840 0.6320
C26_2 C 0.3308(4) 0.91800(14) 0.4087(3)
H17_2 H 0.3793 0.9265 0.3508
C27_2 C 0.3184(4) 0.86780(13) 0.5472(3)
C31_2 C 0.5768(4) 0.50562(12) 0.8565(3)
H18_2 H 0.5811 0.5064 0.7884
C32_2 C 0.6654(4) 0.65933(13) 0.7557(2)
H19_2 H 0.6435 0.6368 0.8044
C33_2 C 0.3930(5) 0.88301(16) 0.4643(3)
H20_2 H 0.4857 0.8691 0.4472
C37_2 C 0.4429(4) 0.50140(13) 0.9000(3)
H24_2 H 0.3544 0.4986 0.8623
C45_2 C 0.1321(3) 0.97856(11) 0.3693(3)
C7 C 0.5655(4) 0.00113(14) 0.9989(3)
N6 N 0.7278(4) 0.00358(12) 0.8623(2)
C13 C 0.9079(4) 0.02881(15) 0.7442(2)
C24 C 0.8424(4) 0.08913(16) 0.6309(3)
H15 H 0.7724 0.1113 0.6055
C35 C 0.9838(5) 0.08481(15) 0.5870(3)
C38 C 0.8045(4) 0.06275(16) 0.7074(3)
H25 H 0.7098 0.0667 0.7365
C47 C 0.3042(4) 0.01177(15) 0.9963(3)
H31 H 0.2147 0.0164 0.9604
C48 C 0.4327(4) 0.00873(16) 0.9471(3)
H32 H 0.4333 0.0117 0.8792
C20 C 0.8697(4) 0.99862(17) 0.8233(3)
C25 C 0.9685(5) 0.96417(16) 0.8529(3)
H16 H 0.9417 0.9437 0.9042
C34 C 0.7147(5) 0.99899(16) 0.9513(3)
H21 H 0.8016 0.9940 0.9896
O1_2 O 0.9721(3) 0.95781(9) 0.13756(18)
O4_2 O 0.8339(3) 0.97659(8) 0.2669(2)
C2_2 C 0.8721(4) 0.94924(13) 0.1980(2)
O5_2 O 0.5980(5) 0.74472(14) 0.0349(3)
N4_2 N 0.5590(5) 0.77501(14) 0.1808(3)
H3_2 H 0.5165 0.7683 0.2359
C5_2 C 0.3695(4) 0.67474(12) 0.0726(3)
C8_2 C 0.1661(5) 0.61899(14) 0.0449(3)
H5_2 H 0.0780 0.6036 0.0662
C10_2 C 0.7923(4) 0.90134(14) 0.1942(3)
N7_2 N 0.4329(4) 0.70918(11) 0.1336(2)
H10_2 H 0.4025 0.7092 0.1935
C22_2 C 0.7193(6) 0.83287(18) 0.1024(3)
H13_2 H 0.7287 0.8142 0.0459
C28_2 C 0.5369(5) 0.74285(15) 0.1100(2)
C29_2 C 0.6379(5) 0.81641(16) 0.1788(4)
C36_2 C 0.7866(5) 0.87642(17) 0.1089(3)
H23_2 H 0.8304 0.8898 0.0533
C41_2 C 0.6508(5) 0.84024(15) 0.2674(3)
H28_2 H 0.6122 0.8261 0.3239
C42_2 C 0.7201(6) 0.88455(16) 0.2727(3)
H29_2 H 0.7169 0.9027 0.3301
C43_2 C 0.2375(6) 0.65216(16) 0.1055(3)
H30_2 H 0.1984 0.6593 0.1670
C7_2 C 0.4345(4) 0.50113(14) 0.0011(3)
N6_2 N 0.2722(4) 0.50358(12) 0.1377(2)
C13_2 C 0.0921(4) 0.52881(15) 0.2558(2)
C20_2 C 0.1303(4) 0.49862(17) 0.1767(3)
C24_2 C 0.1576(4) 0.58913(16) 0.3691(3)
H15_2 H 0.2276 0.6113 0.3945
C25_2 C 0.0315(5) 0.46417(16) 0.1471(3)
H16_2 H 0.0583 0.4437 0.0958
C34_2 C 0.2853(5) 0.49899(16) 0.0487(3)
H21_2 H 0.1984 0.4940 0.0104
C35_2 C 0.0162(5) 0.58481(15) 0.4130(3)
C38_2 C 0.1955(4) 0.56275(16) 0.2926(3)
H25_2 H 0.2902 0.5667 0.2635
C47_2 C 0.6958(4) 0.51177(15) 0.0037(3)
H31_2 H 0.7853 0.5164 0.0396
C48_2 C 0.5673(4) 0.50873(16) 0.0529(3)
H32_2 H 0.5667 0.5117 0.1208
loop_
_geom_bond_atom_site_label_1
_geom_bond_atom_site_label_2
_geom_bond_site_symmetry_1
_geom_bond_site_symmetry_2
C11 C9 1_555 1_555
H7 C11 1_555 1_555
H12 C19 1_555 1_555
O8 C44 1_555 1_555
O10 C44 1_555 1_555
C44 C9 1_555 1_555
Zn7 O10 1_555 1_555
C11 C19 1_555 1_555
O1 C2 1_555 1_555
O4 Zn7 1_555 1_555
C2 O4 1_555 1_555
O5 C28 1_555 1_555
N4 H3 1_555 1_555
C5 N7 1_555 1_555
C8 H5 1_555 1_555
C10 C2 1_555 1_555
N7 H10 1_555 1_555
C22 H13 1_555 1_555
C28 N4 1_555 1_555
C29 N4 1_555 1_555
C36 C10 1_555 1_555
H23 C36 1_555 1_555
C41 C29 1_555 1_555
H28 C41 1_555 1_555
C42 C10 1_555 1_555
H29 C42 1_555 1_555
C43 C5 1_555 1_555
H30 C43 1_555 1_555
N9 Zn7 1_555 1_555
C8 C43 1_555 1_555
N7 C28 1_555 1_555
C22 C29 1_555 1_555
C22 C36 1_555 1_555
C41 C42 1_555 1_555
N2 C18 1_555 1_555
C18 H11 1_555 1_555
C21 N2 1_555 1_555
C39 C30 1_555 1_555
H26 C39 1_555 1_555
H27 C40 1_555 1_555
C46 C18 1_555 1_555
C49 H33 1_555 1_555
C50 H34 1_555 1_555
C51 C46 1_555 1_555
H35 C51 1_555 1_555
C52 C46 1_555 1_555
H36 C52 1_555 1_555
N9 C49 1_555 1_555
C21 C30 1_555 1_555
C39 C40 1_555 1_555
C49 C51 1_555 1_555
C50 C52 1_555 1_555
C50 N9 1_555 1_555
N2_2 C18_2 1_555 1_555
C18_2 H11_2 1_555 1_555
C21_2 N2_2 1_555 1_555
C46_2 C18_2 1_555 1_555
C49_2 H33_2 1_555 1_555
C51_2 C46_2 1_555 1_555
H35_2 C51_2 1_555 1_555
C52_2 C46_2 1_555 1_555
N8 C49_2 1_555 1_555
Zn5 N8 1_555 1_555
C21_2 C30_2 1_555 1_555
C49_2 C51_2 1_555 1_555
C50_2 C52_2 1_555 1_555
C50_2 N8 1_555 1_555
O14 Zn5 1_555 1_555
C11_2 C9_2 1_555 1_555
H7_2 C11_2 1_555 1_555
H12_2 C19_2 1_555 1_555
O12 C44_2 1_555 1_555
O14 C44_2 1_555 1_555
C44_2 C9_2 1_555 1_555
C11_2 C19_2 1_555 1_555
H26_2 C39_2 1_555 1_555
H27_2 C40_2 1_555 1_555
C39_2 C40_2 1_555 1_555
O2 Zn1 1_555 1_555
O3 C1 1_555 1_555
N1 Zn1 1_555 1_555
C1 O2 1_555 1_555
C3 H1 1_555 1_555
C4 C1 1_555 1_555
O6 C16 1_555 1_555
N3 H2 1_555 1_555
C6 H4 1_555 1_555
N5 H6 1_555 1_555
C12 H8 1_555 1_555
C14 C3 1_555 1_555
H9 C14 1_555 1_555
C15 C12 1_555 1_555
C16 N3 1_555 1_555
C17 C6 1_555 1_555
C23 C12 1_555 1_555
H14 C23 1_555 1_555
C26 C15 1_555 1_555
H17 C26 1_555 1_555
C27 N3 1_555 1_555
C31 N1 1_555 1_555
H18 C31 1_555 1_555
C32 C4 1_555 1_555
H19 C32 1_555 1_555
C33 C26 1_555 1_555
H20 C33 1_555 1_555
O7 C45 1_555 1_555
O9 C45 1_555 1_555
C45 C15 1_555 1_555
Zn4 O9 1_555 1_555
C3 C4 1_555 1_555
C6 C32 1_555 1_555
N5 C16 1_555 1_555
N5 C17 1_555 1_555
C14 C17 1_555 1_555
C23 C27 1_555 1_555
C27 C33 1_555 1_555
C31 C37 1_555 1_555
O2_2 Zn4 1_555 1_555
O3_2 C1_2 1_555 1_555
N1_2 Zn4 1_555 1_555
C1_2 O2_2 1_555 1_555
C3_2 H1_2 1_555 1_555
C4_2 C1_2 1_555 1_555
O6_2 C16_2 1_555 1_555
N3_2 H2_2 1_555 1_555
C6_2 H4_2 1_555 1_555
N5_2 H6_2 1_555 1_555
C12_2 H8_2 1_555 1_555
C14_2 C3_2 1_555 1_555
H9_2 C14_2 1_555 1_555
C15_2 C12_2 1_555 1_555
C16_2 N3_2 1_555 1_555
C17_2 C6_2 1_555 1_555
C23_2 C12_2 1_555 1_555
H14_2 C23_2 1_555 1_555
C26_2 C15_2 1_555 1_555
H17_2 C26_2 1_555 1_555
C27_2 N3_2 1_555 1_555
C31_2 N1_2 1_555 1_555
H18_2 C31_2 1_555 1_555
C32_2 C4_2 1_555 1_555
H19_2 C32_2 1_555 1_555
C33_2 C26_2 1_555 1_555
H20_2 C33_2 1_555 1_555
H24_2 C37_2 1_555 1_555
O13 C45_2 1_555 1_555
C45_2 C15_2 1_555 1_555
C3_2 C4_2 1_555 1_555
C6_2 C32_2 1_555 1_555
N5_2 C16_2 1_555 1_555
N5_2 C17_2 1_555 1_555
C14_2 C17_2 1_555 1_555
C23_2 C27_2 1_555 1_555
C27_2 C33_2 1_555 1_555
C31_2 C37_2 1_555 1_555
C24 H15 1_555 1_555
C38 C13 1_555 1_555
H25 C38 1_555 1_555
H31 C47 1_555 1_555
C48 C7 1_555 1_555
H32 C48 1_555 1_555
C24 C35 1_555 1_555
C24 C38 1_555 1_555
C47 C48 1_555 1_555
C20 C25 1_555 1_555
C25 H16 1_555 1_555
H21 C34 1_555 1_555
O1_2 C2_2 1_555 1_555
C2_2 O4_2 1_555 1_555
O5_2 C28_2 1_555 1_555
N4_2 H3_2 1_555 1_555
C5_2 N7_2 1_555 1_555
C8_2 H5_2 1_555 1_555
C10_2 C2_2 1_555 1_555
N7_2 H10_2 1_555 1_555
C22_2 H13_2 1_555 1_555
C28_2 N4_2 1_555 1_555
C29_2 N4_2 1_555 1_555
C36_2 C10_2 1_555 1_555
H23_2 C36_2 1_555 1_555
C41_2 C29_2 1_555 1_555
H28_2 C41_2 1_555 1_555
C42_2 C10_2 1_555 1_555
H29_2 C42_2 1_555 1_555
C43_2 C5_2 1_555 1_555
H30_2 C43_2 1_555 1_555
C8_2 C43_2 1_555 1_555
N7_2 C28_2 1_555 1_555
C22_2 C29_2 1_555 1_555
C22_2 C36_2 1_555 1_555
C41_2 C42_2 1_555 1_555
C7_2 C34_2 1_555 1_555
N6_2 C20_2 1_555 1_555
C13_2 C20_2 1_555 1_555
C20_2 C25_2 1_555 1_555
C24_2 H15_2 1_555 1_555
C25_2 H16_2 1_555 1_555
C34_2 N6_2 1_555 1_555
H21_2 C34_2 1_555 1_555
C38_2 C13_2 1_555 1_555
H25_2 C38_2 1_555 1_555
H31_2 C47_2 1_555 1_555
C48_2 C7_2 1_555 1_555
H32_2 C48_2 1_555 1_555
C24_2 C35_2 1_555 1_555
C24_2 C38_2 1_555 1_555
C47_2 C48_2 1_555 1_555

#END
