
###############################################################################
#
# This file contains modified crystal structure data generated from the
# MOF subset of the Cambridge Structural Database (CSD) v543 
# hosted by the Cambridge Crystallographic Data Centre (CCDC).
#
# This work is licensed under the Creative Commons
# Attribution-NonCommercial-ShareAlike 4.0 International License.
# To view a copy of this license, visit
# http://creativecommons.org/licenses/by-nc-sa/4.0/
# or send a letter to
# Creative Commons, PO Box 1866, Mountain View, CA 94042, USA.
#
# CIF created using the CSD Python API on 29 September 2022
# The structure has been converted into the P1 space group
# The structure has a 3D framework
# The original CSD entry CIRTUT is in the monoclinic crystal system
# The framework has been calculated to contain at least 10.0% void space
# The void calculation uses a probe of radius 1.32A, grid spacing 0.4
#
###############################################################################

data_CIRTUT
_chemical_formula_moiety         '(C48 H32 N4 O15 Pb4 S4)n'
_symmetry_cell_setting           triclinic
_symmetry_space_group_name_H-M   'P 1'
_symmetry_Int_Tables_number      1
_space_group_name_Hall           'P 1'
loop_
_symmetry_equiv_pos_site_id
_symmetry_equiv_pos_as_xyz
1 x,y,z
_cell_length_a                   10.1711(10)
_cell_length_b                   28.951(3)
_cell_length_c                   5.6154(5)
_cell_angle_alpha                90.00
_cell_angle_beta                 97.619(2)
_cell_angle_gamma                90.00
_cell_volume                     1638.93
loop_
_atom_site_label
_atom_site_type_symbol
_atom_site_fract_x
_atom_site_fract_y
_atom_site_fract_z
Pb1 Pb 0.19122(2) 0.197100(9) 0.28427(5)
N1 N 0.0982(6) 0.1154(2) 0.1492(11)
C8 C 0.0183(8) 0.0918(3) 0.2738(15)
C10 C 0.0190(7) 0.0243(2) 0.0299(13)
Pb8 Pb 0.19122(2) 0.302900(9) 0.78427(5)
O6 O 0.0551(5) 0.27973(19) 0.3885(9)
O9 O 0.0246(5) 0.31958(19) 0.0444(10)
O10 O 0.0246(5) 0.18042(19) 0.5444(10)
O13 O 0.3808(5) 0.1666(2) 0.0300(9)
O16 O 0.3497(5) 0.22576(18) 0.7214(10)
O17 O 0.3497(5) 0.27424(18) 0.2214(10)
O21 O 0.3434(5) 0.14598(18) 0.6069(9)
O1 O 0.0551(5) 0.22027(19) 0.8885(9)
C11 C 0.1007(8) 0.0489(3) 0.8948(14)
H7 H 0.1309 0.0354 0.7620
C12 C 0.1365(8) 0.0939(3) 0.9608(14)
H8 H 0.1905 0.1099 0.8678
H13 H 0.0111 0.8937 0.5951
C21 C 0.0235(8) 0.9527(3) 0.7790(14)
H14 H 0.0804 0.9672 0.6861
H1 H 0.8427 0.2178 0.0820
H2 H 0.6152 0.2132 0.0920
H5 H 0.9889 0.1063 0.4049
C9 C 0.9765(8) 0.0473(3) 0.2210(14)
H6 H 0.9196 0.0328 0.3139
S2 S 0.39813(16) 0.32048(6) 0.2873(3)
O12 O 0.3808(5) 0.3334(2) 0.5300(9)
O20 O 0.3434(5) 0.35402(18) 0.1069(9)
C13 C 0.9838(6) 0.3031(2) 0.2282(13)
C14 C 0.8401(6) 0.3106(2) 0.2521(12)
C15 C 0.7876(7) 0.2949(2) 0.4533(14)
H9 H 0.8427 0.2822 0.5820
C16 C 0.6513(8) 0.2984(3) 0.4606(14)
H10 H 0.6152 0.2868 0.5920
C17 C 0.5708(7) 0.3188(2) 0.2768(13)
C18 C 0.6230(7) 0.3352(3) 0.0802(14)
C19 C 0.7563(7) 0.3310(3) 0.0664(13)
S1 S 0.39813(16) 0.17952(6) 0.7873(3)
C1 C 0.9838(6) 0.1969(2) 0.7282(13)
C2 C 0.8401(6) 0.1894(2) 0.7521(12)
C3 C 0.7876(7) 0.2051(2) 0.9533(14)
C4 C 0.6513(8) 0.2016(3) 0.9606(14)
C5 C 0.5708(7) 0.1812(2) 0.7768(13)
C6 C 0.6230(7) 0.1648(3) 0.5802(14)
H3 H 0.5679 0.1507 0.4557
C7 C 0.7563(7) 0.1690(3) 0.5664(13)
H4 H 0.7907 0.1581 0.4315
H11 H 0.5679 0.3493 0.9557
H12 H 0.7907 0.3419 0.9315
O7 O 0.9449(5) 0.77973(19) 0.1115(9)
C23 C 0.8993(8) 0.9511(3) 0.1052(14)
H15 H 0.8691 0.9646 0.2380
C24 C 0.8635(8) 0.9061(3) 0.0392(14)
H16 H 0.8095 0.8901 0.1322
Pb2 Pb 0.80878(2) 0.802900(9) 0.71573(5)
N2 N 0.9018(6) 0.8846(2) 0.8508(11)
O8 O 0.9449(5) 0.72027(19) 0.6115(9)
O11 O 0.9754(5) 0.81958(19) 0.4556(10)
O14 O 0.6192(5) 0.8334(2) 0.9700(9)
O18 O 0.6503(5) 0.77424(18) 0.2786(10)
O19 O 0.6503(5) 0.72576(18) 0.7786(10)
O22 O 0.6566(5) 0.85402(18) 0.3931(9)
C20 C 0.9817(8) 0.9082(3) 0.7262(15)
C22 C 0.9810(7) 0.9757(2) 0.9701(13)
H3_2 H 0.4321 0.6507 0.0443
H4_2 H 0.2093 0.6581 0.0685
Pb6 Pb 0.80878(2) 0.697100(9) 0.21573(5)
S1_2 S 0.60187(16) 0.67952(6) 0.7127(3)
O3 O 0.6192(5) 0.6666(2) 0.4700(9)
O5 O 0.6566(5) 0.64598(18) 0.8931(9)
C1_2 C 0.0162(6) 0.6969(2) 0.7718(13)
C2_2 C 0.1599(6) 0.6894(2) 0.7479(12)
C3_2 C 0.2124(7) 0.7051(2) 0.5467(14)
H1_2 H 0.1573 0.7178 0.4180
C4_2 C 0.3487(8) 0.7016(3) 0.5394(14)
H2_2 H 0.3848 0.7132 0.4080
C5_2 C 0.4292(7) 0.6812(2) 0.7232(13)
C6_2 C 0.3770(7) 0.6648(3) 0.9198(14)
C7_2 C 0.2437(7) 0.6690(3) 0.9336(13)
H5_2 H 0.0111 0.6063 0.0951
C9_2 C 0.0235(8) 0.5473(3) 0.2790(14)
H6_2 H 0.0804 0.5328 0.1861
S2_2 S 0.60187(16) 0.82048(6) 0.2127(3)
N2_2 N 0.0982(6) 0.3846(2) 0.6492(11)
C13_2 C 0.0162(6) 0.8031(2) 0.2718(13)
C14_2 C 0.1599(6) 0.8106(2) 0.2479(12)
C15_2 C 0.2124(7) 0.7949(2) 0.0467(14)
C16_2 C 0.3487(8) 0.7984(3) 0.0394(14)
C17_2 C 0.4292(7) 0.8188(2) 0.2232(13)
C18_2 C 0.3770(7) 0.8352(3) 0.4198(14)
H11_2 H 0.4321 0.8493 0.5443
C19_2 C 0.2437(7) 0.8310(3) 0.4336(13)
H12_2 H 0.2093 0.8419 0.5685
C20_2 C 0.0183(8) 0.4082(3) 0.7738(15)
C22_2 C 0.0190(7) 0.4757(2) 0.5299(13)
C23_2 C 0.1007(8) 0.4511(3) 0.3948(14)
H15_2 H 0.1309 0.4646 0.2620
C24_2 C 0.1365(8) 0.4061(3) 0.4608(14)
H16_2 H 0.1905 0.3901 0.3678
H9_2 H 0.1573 0.7822 0.9180
H10_2 H 0.3848 0.7868 0.9080
N1_2 N 0.9018(6) 0.6154(2) 0.3508(11)
O2 O 0.9754(5) 0.68042(19) 0.9556(10)
C8_2 C 0.9817(8) 0.5918(3) 0.2262(15)
C10_2 C 0.9810(7) 0.5243(2) 0.4701(13)
C11_2 C 0.8993(8) 0.5489(3) 0.6052(14)
H7_2 H 0.8691 0.5354 0.7380
C12_2 C 0.8635(8) 0.5939(3) 0.5392(14)
H8_2 H 0.8095 0.6099 0.6322
H13_2 H 0.9889 0.3937 0.9049
C21_2 C 0.9765(8) 0.4527(3) 0.7210(14)
H14_2 H 0.9196 0.4672 0.8139
loop_
_geom_bond_atom_site_label_1
_geom_bond_atom_site_label_2
_geom_bond_site_symmetry_1
_geom_bond_site_symmetry_2
Pb1 N1 1_555 1_555
N1 C8 1_555 1_555
Pb8 O6 1_555 1_555
O6 Pb1 1_555 1_555
O10 Pb1 1_555 1_555
O13 Pb1 1_555 1_555
O16 Pb1 1_555 1_555
O17 Pb1 1_555 1_555
O21 Pb1 1_555 1_555
Pb8 O16 1_555 1_555
H7 C11 1_555 1_555
H8 C12 1_555 1_555
Pb8 O1 1_555 1_555
C11 C12 1_555 1_555
H14 C21 1_555 1_555
H6 C9 1_555 1_555
Pb8 O12 1_555 1_555
S2 O12 1_555 1_555
C14 C13 1_555 1_555
C15 C14 1_555 1_555
H9 C15 1_555 1_555
C16 C15 1_555 1_555
H10 C16 1_555 1_555
C17 S2 1_555 1_555
C18 C17 1_555 1_555
C19 C14 1_555 1_555
S2 O17 1_555 1_555
S2 O20 1_555 1_555
C16 C17 1_555 1_555
C18 C19 1_555 1_555
O16 S1 1_555 1_555
O21 S1 1_555 1_555
C2 C1 1_555 1_555
C3 C2 1_555 1_555
C4 C3 1_555 1_555
C5 S1 1_555 1_555
C6 C5 1_555 1_555
H3 C6 1_555 1_555
C7 C2 1_555 1_555
H4 C7 1_555 1_555
C4 C5 1_555 1_555
C6 C7 1_555 1_555
H15 C23 1_555 1_555
H16 C24 1_555 1_555
C23 C24 1_555 1_555
Pb2 N2 1_555 1_555
N2 C20 1_555 1_555
O8 Pb2 1_555 1_555
O11 Pb2 1_555 1_555
O14 Pb2 1_555 1_555
O18 Pb2 1_555 1_555
O19 Pb2 1_555 1_555
O22 Pb2 1_555 1_555
S1_2 O3 1_555 1_555
O3 Pb6 1_555 1_555
O19 S1_2 1_555 1_555
O5 S1_2 1_555 1_555
C2_2 C1_2 1_555 1_555
C3_2 C2_2 1_555 1_555
H1_2 C3_2 1_555 1_555
C4_2 C3_2 1_555 1_555
H2_2 C4_2 1_555 1_555
C5_2 S1_2 1_555 1_555
C6_2 C5_2 1_555 1_555
C7_2 C2_2 1_555 1_555
H6_2 C9_2 1_555 1_555
Pb8 N2_2 1_555 1_555
Pb6 O18 1_555 1_555
N2_2 C20_2 1_555 1_555
C14_2 C13_2 1_555 1_555
C15_2 C14_2 1_555 1_555
C16_2 C15_2 1_555 1_555
C17_2 S2_2 1_555 1_555
C18_2 C17_2 1_555 1_555
H11_2 C18_2 1_555 1_555
C19_2 C14_2 1_555 1_555
H12_2 C19_2 1_555 1_555
C23_2 C22_2 1_555 1_555
H15_2 C23_2 1_555 1_555
C24_2 N2_2 1_555 1_555
H16_2 C24_2 1_555 1_555
C4_2 C5_2 1_555 1_555
C6_2 C7_2 1_555 1_555
S2_2 O18 1_555 1_555
S2_2 O22 1_555 1_555
C16_2 C17_2 1_555 1_555
C18_2 C19_2 1_555 1_555
C23_2 C24_2 1_555 1_555
Pb6 N1_2 1_555 1_555
N1_2 C8_2 1_555 1_555
O8 Pb6 1_555 1_555
C11_2 C10_2 1_555 1_555
H7_2 C11_2 1_555 1_555
C12_2 N1_2 1_555 1_555
H8_2 C12_2 1_555 1_555
O7 Pb6 1_555 1_555
H14_2 C21_2 1_555 1_555
C11_2 C12_2 1_555 1_555

#END
