
###############################################################################
#
# This file contains modified crystal structure data generated from the
# MOF subset of the Cambridge Structural Database (CSD) v543 
# hosted by the Cambridge Crystallographic Data Centre (CCDC).
#
# This work is licensed under the Creative Commons
# Attribution-NonCommercial-ShareAlike 4.0 International License.
# To view a copy of this license, visit
# http://creativecommons.org/licenses/by-nc-sa/4.0/
# or send a letter to
# Creative Commons, PO Box 1866, Mountain View, CA 94042, USA.
#
# CIF created using the CSD Python API on 29 September 2022
# The structure has been converted into the P1 space group
# The structure has a 3D framework
# The original CSD entry CISMAT01 is in the monoclinic crystal system
# The framework has been calculated to contain at least 10.0% void space
# The void calculation uses a probe of radius 1.32A, grid spacing 0.4
# H atom positions have been added when not included in the experimental data
# Generated hydrogen atom positions removed from atoms on special positions
#
###############################################################################

data_CISMAT01
_chemical_formula_moiety         '(C8 H32 Al9 F4 O13 P4)n'
_symmetry_cell_setting           triclinic
_symmetry_space_group_name_H-M   'P 1'
_symmetry_Int_Tables_number      1
_space_group_name_Hall           'P 1'
loop_
_symmetry_equiv_pos_site_id
_symmetry_equiv_pos_as_xyz
1 x,y,z
_cell_length_a                   4.96925(6)
_cell_length_b                   12.00129(12)
_cell_length_c                   10.74398(20)
_cell_angle_alpha                90
_cell_angle_beta                 94.0583(13)
_cell_angle_gamma                90
_cell_volume                     639.137
loop_
_atom_site_label
_atom_site_type_symbol
_atom_site_fract_x
_atom_site_fract_y
_atom_site_fract_z
_atom_site_U_iso_or_equiv
_atom_site_thermal_displace_type
Al5 Al -0.0000 0.50000 -0.0000 0.0202 Uiso
O4 O 0.4904(24) 0.25000 0.0379(10) 0.0166 Uiso
Al5_2 Al -0.0000 0.50000 1.0000 0.0202 Uiso
O12 O 0.2334(14) 0.4813(7) 0.1454(6) 0.0166 Uiso
Al2 Al 0.2477(15) 0.25000 0.8902(7) 0.0202 Uiso
F1 F 0.0472(14) 0.3512(4) 0.9678(6) 0.0166 Uiso
F3 F 0.0472(14) 0.1488(4) 0.9678(6) 0.0166 Uiso
O7 O 0.2924(14) 0.5445(6) 0.9034(7) 0.0166 Uiso
O9 O 0.4446(17) 0.3600(5) 0.8172(8) 0.0166 Uiso
O10 O 0.4446(17) 0.1400(5) 0.8172(8) 0.0166 Uiso
H10 H 0.00987397 0.197612 0.689324 . .
Al5_3 Al 1.0000 0.50000 -0.0000 0.0202 Uiso
P1 P 0.5209(9) 0.51311(35) 0.1823(4) 0.0202 Uiso
O1 O 0.7076(14) 0.4555(6) 0.0966(7) 0.0166 Uiso
O2 O 0.5554(17) 0.6400(5) 0.1828(8) 0.0166 Uiso
C1 C 0.4477(24) 0.5235(10) 0.4377(7) 0.0166 Uiso
C2 C 0.6057(24) 0.4669(9) 0.3417(9) 0.0166 Uiso
Al5_4 Al 1.0000 0.50000 1.0000 0.0202 Uiso
Al6 Al 0.7523(15) 0.75000 0.1098(7) 0.0202 Uiso
P2 P 0.4791(9) 0.48689(35) 0.8177(4) 0.0202 Uiso
F2 F 0.9528(14) 0.6488(4) 0.0322(6) 0.0166 Uiso
O11 O 0.7666(14) 0.5187(7) 0.8546(6) 0.0166 Uiso
C3 C 0.5523(24) 0.4765(10) 0.5623(7) 0.0166 Uiso
C4 C 0.3943(24) 0.5331(9) 0.6583(9) 0.0166 Uiso
H1 H 0.766591 0.49434 0.579433 . .
H2 H 0.520268 0.386779 0.564573 . .
H3 H 0.43199 0.622341 0.653667 . .
H4 H 0.180844 0.516894 0.63557 . .
H5 H 0.819156 0.483106 0.36443 . .
H6 H 0.56801 0.377659 0.346333 . .
H7 H 0.233409 0.50566 0.420567 . .
H8 H 0.479732 0.613221 0.435427 . .
O5 O 0.9620(24) 0.25000 0.7558(10) 0.0166 Uiso
H9 H 0.940999 0.326251 0.720563 . .
Al3 Al 0.0000 -0.00000 0.0000 0.0202 Uiso
Al3_2 Al 0.0000 -0.00000 1.0000 0.0202 Uiso
Al3_3 Al 0.0000 1.00000 0.0000 0.0202 Uiso
Al3_4 Al 0.0000 1.00000 1.0000 0.0202 Uiso
Al3_5 Al 1.0000 -0.00000 0.0000 0.0202 Uiso
O13 O 0.2334(14) 0.0187(7) 0.1454(6) 0.0166 Uiso
P1_2 P 0.4791(9) 0.01311(35) 0.8177(4) 0.0202 Uiso
C1_2 C 0.5523(24) 0.0235(10) 0.5623(7) 0.0166 Uiso
Al3_6 Al 1.0000 -0.00000 1.0000 0.0202 Uiso
O6 O 0.7076(14) 0.0445(6) 0.0966(7) 0.0166 Uiso
C4_2 C 0.6057(24) 0.0331(9) 0.3417(9) 0.0166 Uiso
H3_2 H 0.56801 0.122341 0.346333 . .
H4_2 H 0.819156 0.0168939 0.36443 . .
H7_2 H 0.766591 0.00566045 0.579433 . .
H8_2 H 0.520268 0.113221 0.564573 . .
O5_2 O 0.0380(24) 0.75000 0.2442(10) 0.0166 Uiso
Al3_7 Al 1.0000 1.00000 0.0000 0.0202 Uiso
H9_2 H 0.0590008 0.826251 0.279437 . .
O1_2 O 0.2924(14) 0.9555(6) 0.9034(7) 0.0166 Uiso
O3 O 0.7666(14) 0.9813(7) 0.8546(6) 0.0166 Uiso
C2_2 C 0.3943(24) 0.9669(9) 0.6583(9) 0.0166 Uiso
Al3_8 Al 1.0000 1.00000 1.0000 0.0202 Uiso
P2_2 P 0.5209(9) 0.98689(35) 0.1823(4) 0.0202 Uiso
O8 O 0.5554(17) 0.8600(5) 0.1828(8) 0.0166 Uiso
C3_2 C 0.4477(24) 0.9765(10) 0.4377(7) 0.0166 Uiso
H1_2 H 0.233409 0.99434 0.420567 . .
H2_2 H 0.479732 0.886779 0.435427 . .
H5_2 H 0.180844 0.983106 0.63557 . .
H6_2 H 0.43199 0.877659 0.653667 . .
F1_2 F 0.9528(14) 0.8512(4) 0.0322(6) 0.0166 Uiso
H10_2 H 0.990126 0.697612 0.310676 . .
O4_2 O 0.5096(24) 0.75000 0.9621(10) 0.0166 Uiso
H9_3 H 0.0590008 0.673749 0.279437 . .
H10_3 H 0.990126 0.802388 0.310676 . .
H10_4 H 0.00987397 0.302388 0.689324 . .
H9_4 H 0.940999 0.173749 0.720563 . .
loop_
_geom_bond_atom_site_label_1
_geom_bond_atom_site_label_2
_geom_bond_site_symmetry_1
_geom_bond_site_symmetry_2
O12 Al5 1_555 1_555
Al5_2 F1 1_555 1_555
Al2 F1 1_555 1_555
F3 Al2 1_555 1_555
O7 Al5_2 1_555 1_555
O9 Al2 1_555 1_555
O10 Al2 1_555 1_555
P1 O1 1_555 1_555
O1 Al5_3 1_555 1_555
O2 P1 1_555 1_555
O12 P1 1_555 1_555
C1 C2 1_555 1_555
C2 P1 1_555 1_555
Al5_4 O11 1_555 1_555
Al6 O2 1_555 1_555
P2 O7 1_555 1_555
F2 Al5_3 1_555 1_555
O9 P2 1_555 1_555
O11 P2 1_555 1_555
C3 C1 1_555 1_555
C4 P2 1_555 1_555
Al6 F2 1_555 1_555
C3 C4 1_555 1_555
C3 H1 1_555 1_555
C3 H2 1_555 1_555
C4 H3 1_555 1_555
C4 H4 1_555 1_555
C2 H5 1_555 1_555
C2 H6 1_555 1_555
C1 H7 1_555 1_555
C1 H8 1_555 1_555
O5 H9 1_555 1_555
O13 Al3 1_555 1_555
O10 P1_2 1_555 1_555
Al3_5 O6 1_555 1_555
F3 Al3_2 1_555 1_555
C4_2 H3_2 1_555 1_555
C4_2 H4_2 1_555 1_555
C1_2 H7_2 1_555 1_555
C1_2 H8_2 1_555 1_555
O5_2 H9_2 1_555 1_555
O1_2 Al3_4 1_555 1_555
Al3_8 O3 1_555 1_555
Al6 O8 1_555 1_555
O8 P2_2 1_555 1_555
C3_2 H1_2 1_555 1_555
C3_2 H2_2 1_555 1_555
C2_2 H5_2 1_555 1_555
C2_2 H6_2 1_555 1_555
Al3_7 F1_2 1_555 1_555
Al6 F1_2 1_555 1_555
O5_2 H9_3 1_555 1_555
O5 H9_4 1_555 1_555

#END
