
###############################################################################
#
# This file contains modified crystal structure data generated from the
# MOF subset of the Cambridge Structural Database (CSD) v543 
# hosted by the Cambridge Crystallographic Data Centre (CCDC).
#
# This work is licensed under the Creative Commons
# Attribution-NonCommercial-ShareAlike 4.0 International License.
# To view a copy of this license, visit
# http://creativecommons.org/licenses/by-nc-sa/4.0/
# or send a letter to
# Creative Commons, PO Box 1866, Mountain View, CA 94042, USA.
#
# CIF created using the CSD Python API on 29 September 2022
# The structure has been converted into the P1 space group
# The structure has a 3D framework
# The original CSD entry CITLUP is in the triclinic crystal system
# The framework has been calculated to contain at least 10.0% void space
# The void calculation uses a probe of radius 1.32A, grid spacing 0.4
# H atom positions have been added when not included in the experimental data
#
###############################################################################

data_CITLUP
_chemical_formula_moiety         '(C120 H84 N12 Nd4 O36)n'
_symmetry_cell_setting           triclinic
_symmetry_space_group_name_H-M   'P 1'
_symmetry_Int_Tables_number      1
_space_group_name_Hall           'P 1'
loop_
_symmetry_equiv_pos_site_id
_symmetry_equiv_pos_as_xyz
1 x,y,z
_cell_length_a                   10.2360(15)
_cell_length_b                   18.450(3)
_cell_length_c                   18.693(3)
_cell_angle_alpha                113.446(2)
_cell_angle_beta                 97.284(2)
_cell_angle_gamma                98.273(3)
_cell_volume                     3138.53
loop_
_atom_site_label
_atom_site_type_symbol
_atom_site_fract_x
_atom_site_fract_y
_atom_site_fract_z
Nd4 Nd 0.14673(3) 0.04400(2) 0.45465(2)
Nd7 Nd 0.10706(3) 0.41624(2) 0.43606(2)
C15 C 0.7139(5) 0.0057(4) 0.3388(3)
C16 C 0.6012(5) 0.0095(3) 0.3740(3)
H10 H 0.610486 0.021371 0.427914
C19 C 0.3529(5) 0.0029(3) 0.3661(3)
C20 C 0.8534(5) 0.0206(3) 0.3850(3)
C32 C 0.4129(6) 0.3233(4) 0.0540(3)
C33 C 0.5324(5) 0.3525(3) 0.1909(3)
C34 C 0.6631(5) 0.3721(3) 0.2360(3)
H20 H 0.735426 0.363336 0.210449
C35 C 0.6849(5) 0.4040(3) 0.3177(3)
C36 C 0.5786(5) 0.4180(3) 0.3566(3)
H21 H 0.594336 0.442138 0.411908
C37 C 0.4487(5) 0.3957(3) 0.3124(3)
C38 C 0.4242(5) 0.3632(3) 0.2300(3)
H22 H 0.336431 0.348542 0.200961
C39 C 0.3300(5) 0.4048(3) 0.3528(3)
C40 C 0.8276(5) 0.4215(4) 0.3628(3)
N4 N 0.5154(4) 0.3220(3) 0.1075(3)
H35 H 0.578214 0.299491 0.087500
O2 O 0.2228(4) 0.1777(2) 0.4441(2)
O3 O 0.2476(3) 0.0123(2) 0.3303(2)
O4 O 0.2405(4) 0.3639(3) 0.5266(2)
O5 O 0.3603(3) 0.0024(3) 0.4330(2)
O6 O 0.0675(5) 0.2650(3) 0.3618(3)
O7 O 0.8672(3) 0.0076(2) 0.4475(2)
O8 O 0.9525(3) 0.0407(3) 0.3599(2)
O9 O 0.3143(5) 0.3492(3) 0.0741(3)
O10 O 0.2138(4) 0.3860(3) 0.3120(2)
O11 O 0.3496(3) 0.4328(3) 0.4279(2)
O12 O 0.8593(4) 0.4749(2) 0.4335(2)
O13 O 0.9092(4) 0.3821(3) 0.3300(2)
O17 O 0.0646(4) 0.1470(2) 0.5510(2)
Nd9 Nd 0.89294(3) 0.58376(2) 0.56394(2)
N7 N 0.3535(4) 0.1456(3) 0.5826(3)
O23 O 0.1407(4) 0.5251(2) 0.5665(2)
O25 O 0.1437(4) 0.5381(3) 0.4139(2)
H37 H 0.307434 0.335613 0.499013
H38 H 0.288003 0.410317 0.577328
H39 H 0.173873 0.174593 0.393226
H40 H 0.202643 0.222821 0.489431
H41 H 0.0245926 0.239131 0.39297
H42 H 0.00730358 0.247195 0.309179
C21 C 0.4763(6) 0.1594(4) 0.5671(4)
H12 H 0.484667 0.141315 0.514163
C22 C 0.5878(6) 0.1977(4) 0.6238(4)
H13 H 0.670790 0.206889 0.610087
C23 C 0.5786(6) 0.2238(4) 0.7033(4)
H14 H 0.655470 0.249788 0.743353
C24 C 0.4540(5) 0.2106(4) 0.7222(3)
C25 C 0.3449(5) 0.1715(3) 0.6600(3)
H15 H 0.260338 0.162245 0.671917
C26 C 0.4403(6) 0.2374(4) 0.8085(3)
C27 C 0.5487(6) 0.2460(4) 0.8639(4)
H16 H 0.628498 0.233594 0.848273
C28 C 0.5405(6) 0.2731(4) 0.9435(4)
H17 H 0.615784 0.279333 0.980707
C29 C 0.4254(6) 0.2908(3) 0.9687(3)
C30 C 0.3180(6) 0.2815(4) 0.9129(4)
H18 H 0.237880 0.293075 0.928558
C31 C 0.3247(6) 0.2549(4) 0.8324(4)
H19 H 0.249709 0.249175 0.795312
C12 C 0.6401(7) 0.9454(5) 0.0836(4)
C13 C 0.5721(5) 0.9699(4) 0.2118(3)
C14 C 0.7009(5) 0.9866(3) 0.2582(3)
H9 H 0.776521 0.984982 0.235315
C17 C 0.4743(5) 0.9951(3) 0.3272(3)
C18 C 0.4616(5) 0.9768(3) 0.2469(3)
H11 H 0.377365 0.969262 0.216428
N2 N 0.5479(5) 0.9433(3) 0.1274(3)
H34 H 0.465443 0.923918 0.102381
O1 O 0.7610(5) 0.9764(5) 0.1120(3)
Nd6 Nd 0.85327(3) 0.95600(2) 0.54535(2)
O20 O 0.1328(3) 0.9924(2) 0.5525(2)
O26 O 0.0606(4) 0.8966(2) 0.3780(2)
C48 C 0.7670(7) 0.4733(4) 0.9584(4)
H28 H 0.742445 0.483095 0.913980
C49 C 0.8512(6) 0.4201(4) 0.9556(4)
C52 C 0.8951(7) 0.3695(4) 0.8814(4)
C53 C 0.8974(5) 0.3489(3) 0.7416(3)
C54 C 0.8831(5) 0.3878(3) 0.6911(3)
H31 H 0.855980 0.436895 0.708898
C55 C 0.9086(5) 0.3545(4) 0.6158(3)
C56 C 0.9469(5) 0.2802(3) 0.5876(3)
H32 H 0.966954 0.258560 0.537136
C57 C 0.9550(5) 0.2387(3) 0.6351(3)
C58 C 0.9296(5) 0.2728(3) 0.7122(3)
H33 H 0.934199 0.244739 0.743845
C59 C 0.9039(6) 0.3994(4) 0.5626(4)
C60 C 0.9880(5) 0.1568(3) 0.6016(3)
N6 N 0.8755(5) 0.3898(3) 0.8193(3)
H36 H 0.845817 0.433351 0.828461
O14 O 0.9407(6) 0.3113(3) 0.8774(3)
O15 O 0.8563(4) 0.4619(3) 0.5861(2)
O16 O 0.9508(4) 0.3708(2) 0.5005(2)
O18 O 0.9394(4) 0.1034(2) 0.6220(2)
C48_2 C 0.2330(7) 0.5267(4) 0.0416(4)
H28_2 H 0.257555 0.516905 0.086020
C49_2 C 0.1488(6) 0.5799(4) 0.0444(4)
C52_2 C 0.1049(7) 0.6305(4) 0.1186(4)
C53_2 C 0.1026(5) 0.6511(3) 0.2584(3)
C54_2 C 0.1169(5) 0.6122(3) 0.3089(3)
H31_2 H 0.144020 0.563105 0.291102
C55_2 C 0.0914(5) 0.6455(4) 0.3842(3)
C56_2 C 0.0531(5) 0.7198(3) 0.4124(3)
H32_2 H 0.033046 0.741440 0.462864
C57_2 C 0.0450(5) 0.7613(3) 0.3649(3)
C58_2 C 0.0704(5) 0.7272(3) 0.2878(3)
H33_2 H 0.065801 0.755261 0.256155
C59_2 C 0.0961(6) 0.6006(4) 0.4374(4)
C60_2 C 0.0120(5) 0.8432(3) 0.3984(3)
N6_2 N 0.1245(5) 0.6102(3) 0.1807(3)
H36_2 H 0.154183 0.566649 0.171539
O14_2 O 0.0593(6) 0.6887(3) 0.1226(3)
O16_2 O 0.0492(4) 0.6292(2) 0.4995(2)
O21 O 0.0475(3) 0.9593(3) 0.6401(2)
O24 O 0.0908(4) 0.6179(3) 0.6700(2)
C12_2 C 0.3599(7) 0.0546(5) 0.9164(4)
C13_2 C 0.4279(5) 0.0301(4) 0.7882(3)
C14_2 C 0.2991(5) 0.0134(3) 0.7418(3)
H9_2 H 0.223479 0.015018 0.764685
C17_2 C 0.5257(5) 0.0049(3) 0.6728(3)
C18_2 C 0.5384(5) 0.0232(3) 0.7531(3)
H11_2 H 0.622635 0.030738 0.783572
N2_2 N 0.4521(5) 0.0567(3) 0.8726(3)
H34_2 H 0.534557 0.076082 0.897619
O1_2 O 0.2390(5) 0.0236(5) 0.8880(3)
C21_2 C 0.5237(6) 0.8406(4) 0.4329(4)
H12_2 H 0.515333 0.858685 0.485837
C22_2 C 0.4122(6) 0.8023(4) 0.3762(4)
H13_2 H 0.329210 0.793111 0.389913
C23_2 C 0.4214(6) 0.7762(4) 0.2967(4)
H14_2 H 0.344530 0.750212 0.256647
C24_2 C 0.5460(5) 0.7894(4) 0.2778(3)
C25_2 C 0.6551(5) 0.8285(3) 0.3400(3)
H15_2 H 0.739662 0.837755 0.328083
C26_2 C 0.5597(6) 0.7626(4) 0.1915(3)
C27_2 C 0.4513(6) 0.7540(4) 0.1361(4)
H16_2 H 0.371502 0.766406 0.151727
C28_2 C 0.4595(6) 0.7269(4) 0.0565(4)
H17_2 H 0.384216 0.720667 0.019293
C29_2 C 0.5746(6) 0.7092(3) 0.0313(3)
C30_2 C 0.6820(6) 0.7185(4) 0.0871(4)
H18_2 H 0.762120 0.706925 0.071442
C31_2 C 0.6753(6) 0.7451(4) 0.1676(4)
H19_2 H 0.750291 0.750825 0.204688
N3 N 0.6465(4) 0.8544(3) 0.4174(3)
C15_2 C 0.2861(5) 0.9943(4) 0.6612(3)
C16_2 C 0.3988(5) 0.9905(3) 0.6260(3)
H10_2 H 0.389514 0.978629 0.572086
C19_2 C 0.6471(5) 0.9971(3) 0.6339(3)
C20_2 C 0.1466(5) 0.9794(3) 0.6150(3)
C32_2 C 0.5871(6) 0.6767(4) 0.9460(3)
C33_2 C 0.4676(5) 0.6475(3) 0.8091(3)
C34_2 C 0.3369(5) 0.6279(3) 0.7640(3)
H20_2 H 0.264574 0.636664 0.789551
C35_2 C 0.3151(5) 0.5960(3) 0.6823(3)
C36_2 C 0.4214(5) 0.5820(3) 0.6434(3)
H21_2 H 0.405664 0.557862 0.588092
C37_2 C 0.5513(5) 0.6043(3) 0.6876(3)
C38_2 C 0.5758(5) 0.6368(3) 0.7700(3)
H22_2 H 0.663569 0.651458 0.799039
C39_2 C 0.6700(5) 0.5952(3) 0.6472(3)
C40_2 C 0.1724(5) 0.5785(4) 0.6372(3)
N4_2 N 0.4846(4) 0.6780(3) 0.8925(3)
H35_2 H 0.421786 0.700509 0.912500
O2_2 O 0.7772(4) 0.8223(2) 0.5559(2)
O3_2 O 0.7524(3) 0.9877(2) 0.6697(2)
O4_2 O 0.7595(4) 0.6361(3) 0.4734(2)
O5_2 O 0.6397(3) 0.9976(3) 0.5670(2)
O6_2 O 0.9325(5) 0.7350(3) 0.6382(3)
O9_2 O 0.6857(5) 0.6508(3) 0.9259(3)
O10_2 O 0.7862(4) 0.6140(3) 0.6880(2)
O11_2 O 0.6504(3) 0.5672(3) 0.5721(2)
O17_2 O 0.9354(4) 0.8530(2) 0.4490(2)
H37_2 H 0.692566 0.664387 0.500987
H38_2 H 0.711997 0.589683 0.422672
H39_2 H 0.826127 0.825407 0.606774
H40_2 H 0.797357 0.777179 0.510569
H41_2 H 0.975407 0.760869 0.60703
H42_2 H 0.992696 0.752805 0.690821
C1 C 0.5784(7) 0.8181(4) 0.6945(4)
H1 H 0.668296 0.833131 0.720434
C2 C 0.4828(7) 0.8209(4) 0.7409(4)
C3 C 0.3529(7) 0.7959(5) 0.7007(4)
H2 H 0.284194 0.796124 0.728892
C4 C 0.3204(8) 0.7709(5) 0.6218(5)
H3 H 0.230869 0.754688 0.595080
C5 C 0.4255(8) 0.7699(4) 0.5811(4)
H4 H 0.403985 0.749895 0.525870
C6 C 0.5201(7) 0.8504(4) 0.8279(4)
C7 C 0.6483(9) 0.8625(8) 0.8661(5)
H5 H 0.714026 0.850063 0.835739
C8 C 0.6859(9) 0.8920(8) 0.9471(5)
H6 H 0.775757 0.899522 0.969931
C9 C 0.5937(7) 0.9108(5) 0.9953(4)
C10 C 0.4638(7) 0.8916(5) 0.9569(4)
H7 H 0.395903 0.898498 0.986141
C11 C 0.4303(7) 0.8621(5) 0.8750(4)
H8 H 0.339612 0.849584 0.851305
N1 N 0.5543(6) 0.7960(4) 0.6165(3)
C41 C 0.5859(8) 0.6013(5) 0.2970(4)
H23 H 0.549176 0.623498 0.341889
C42 C 0.5048(8) 0.5797(5) 0.2226(4)
H24 H 0.416791 0.587322 0.218070
C43 C 0.5611(7) 0.5455(5) 0.1541(4)
H25 H 0.510396 0.529906 0.103397
C44 C 0.6928(7) 0.5359(4) 0.1641(4)
C45 C 0.7622(7) 0.5601(4) 0.2430(4)
H26 H 0.850213 0.552950 0.250353
C46 C 0.7552(6) 0.4996(4) 0.0944(4)
C47 C 0.7196(8) 0.5117(5) 0.0264(4)
H27 H 0.662194 0.546546 0.026853
C50 C 0.8900(7) 0.4090(4) 0.0225(4)
H29 H 0.948596 0.374738 0.021867
C51 C 0.8427(6) 0.4487(4) 0.0922(4)
H30 H 0.870481 0.440585 0.137302
N5 N 0.7103(6) 0.5924(4) 0.3074(3)
C41_2 C 0.4141(8) 0.3987(5) 0.7030(4)
H23_2 H 0.450824 0.376502 0.658111
C42_2 C 0.4952(8) 0.4203(5) 0.7774(4)
H24_2 H 0.583209 0.412678 0.781930
C43_2 C 0.4389(7) 0.4545(5) 0.8459(4)
H25_2 H 0.489604 0.470094 0.896603
C44_2 C 0.3072(7) 0.4641(4) 0.8359(4)
C45_2 C 0.2378(7) 0.4399(4) 0.7570(4)
H26_2 H 0.149787 0.447050 0.749647
C46_2 C 0.2448(6) 0.5004(4) 0.9056(4)
C47_2 C 0.2804(8) 0.4883(5) 0.9736(4)
H27_2 H 0.337806 0.453454 0.973147
C50_2 C 0.1100(7) 0.5910(4) 0.9775(4)
H29_2 H 0.051404 0.625262 0.978133
C51_2 C 0.1573(6) 0.5513(4) 0.9078(4)
H30_2 H 0.129519 0.559415 0.862698
N5_2 N 0.2897(6) 0.4076(4) 0.6926(3)
C1_2 C 0.4216(7) 0.1819(4) 0.3055(4)
H1_2 H 0.331704 0.166869 0.279566
C2_2 C 0.5172(7) 0.1791(4) 0.2591(4)
C3_2 C 0.6471(7) 0.2041(5) 0.2993(4)
H2_2 H 0.715806 0.203876 0.271108
C4_2 C 0.6796(8) 0.2291(5) 0.3782(5)
H3_2 H 0.769131 0.245312 0.404920
C5_2 C 0.5745(8) 0.2301(4) 0.4189(4)
H4_2 H 0.596015 0.250105 0.474130
C6_2 C 0.4799(7) 0.1496(4) 0.1721(4)
C7_2 C 0.3517(9) 0.1375(8) 0.1339(5)
H5_2 H 0.285974 0.149937 0.164261
C8_2 C 0.3141(9) 0.1080(8) 0.0529(5)
H6_2 H 0.224243 0.100478 0.030069
C9_2 C 0.4063(7) 0.0892(5) 0.0047(4)
C10_2 C 0.5362(7) 0.1084(5) 0.0431(4)
H7_2 H 0.604097 0.101502 0.013859
C11_2 C 0.5697(7) 0.1379(5) 0.1250(4)
H8_2 H 0.660388 0.150416 0.148695
N1_2 N 0.4457(6) 0.2040(4) 0.3835(3)
loop_
_geom_bond_atom_site_label_1
_geom_bond_atom_site_label_2
_geom_bond_site_symmetry_1
_geom_bond_site_symmetry_2
Nd4 O2 1_555 1_555
Nd7 O4 1_555 1_555
C16 C15 1_555 1_555
H10 C16 1_555 1_555
C20 C15 1_555 1_555
C33 C34 1_555 1_555
C34 H20 1_555 1_555
C35 C34 1_555 1_555
C36 C35 1_555 1_555
H21 C36 1_555 1_555
C37 C36 1_555 1_555
C38 C33 1_555 1_555
H22 C38 1_555 1_555
C39 C37 1_555 1_555
C40 C35 1_555 1_555
N4 C32 1_555 1_555
H35 N4 1_555 1_555
O3 Nd4 1_555 1_555
O5 Nd4 1_555 1_555
O6 Nd7 1_555 1_555
O7 C20 1_555 1_555
O8 C20 1_555 1_555
O9 C32 1_555 1_555
O10 Nd7 1_555 1_555
O11 Nd7 1_555 1_555
O12 C40 1_555 1_555
O13 C40 1_555 1_555
O17 Nd4 1_555 1_555
Nd9 O12 1_555 1_555
N7 Nd4 1_555 1_555
O23 Nd7 1_555 1_555
O25 Nd7 1_555 1_555
C19 O3 1_555 1_555
C19 O5 1_555 1_555
C33 N4 1_555 1_555
C37 C38 1_555 1_555
C39 O10 1_555 1_555
C39 O11 1_555 1_555
O4 H37 1_555 1_555
O4 H38 1_555 1_555
O2 H39 1_555 1_555
O2 H40 1_555 1_555
O6 H41 1_555 1_555
O6 H42 1_555 1_555
C21 H12 1_555 1_555
C22 C21 1_555 1_555
H13 C22 1_555 1_555
C23 C22 1_555 1_555
H14 C23 1_555 1_555
C24 C23 1_555 1_555
C25 C24 1_555 1_555
H15 C25 1_555 1_555
C26 C24 1_555 1_555
C27 C26 1_555 1_555
H16 C27 1_555 1_555
C28 C27 1_555 1_555
H17 C28 1_555 1_555
C29 C28 1_555 1_555
C30 C29 1_555 1_555
H18 C30 1_555 1_555
C31 C26 1_555 1_555
H19 C31 1_555 1_555
N7 C21 1_555 1_555
C25 N7 1_555 1_555
C30 C31 1_555 1_555
C13 C14 1_555 1_555
C14 H9 1_555 1_555
C18 C13 1_555 1_555
H11 C18 1_555 1_555
N2 C12 1_555 1_555
H34 N2 1_555 1_555
O1 C12 1_555 1_555
C13 N2 1_555 1_555
C17 C18 1_555 1_555
H28 C48 1_555 1_555
C49 C48 1_555 1_555
C52 C49 1_555 1_555
C53 C54 1_555 1_555
C54 H31 1_555 1_555
C55 C54 1_555 1_555
C56 C55 1_555 1_555
H32 C56 1_555 1_555
C57 C56 1_555 1_555
C58 C53 1_555 1_555
H33 C58 1_555 1_555
C59 C55 1_555 1_555
C60 C57 1_555 1_555
N6 C52 1_555 1_555
H36 N6 1_555 1_555
O14 C52 1_555 1_555
O15 C59 1_555 1_555
O18 C60 1_555 1_555
Nd9 O15 1_555 1_555
C53 N6 1_555 1_555
C57 C58 1_555 1_555
C59 O16 1_555 1_555
H28_2 C48_2 1_555 1_555
C49_2 C48_2 1_555 1_555
C52_2 C49_2 1_555 1_555
C53_2 C54_2 1_555 1_555
C54_2 H31_2 1_555 1_555
C55_2 C54_2 1_555 1_555
C56_2 C55_2 1_555 1_555
H32_2 C56_2 1_555 1_555
C57_2 C56_2 1_555 1_555
C58_2 C53_2 1_555 1_555
H33_2 C58_2 1_555 1_555
C59_2 C55_2 1_555 1_555
C60_2 C57_2 1_555 1_555
N6_2 C52_2 1_555 1_555
H36_2 N6_2 1_555 1_555
O14_2 C52_2 1_555 1_555
O25 C59_2 1_555 1_555
O26 C60_2 1_555 1_555
C53_2 N6_2 1_555 1_555
C57_2 C58_2 1_555 1_555
C59_2 O16_2 1_555 1_555
C13_2 C14_2 1_555 1_555
C14_2 H9_2 1_555 1_555
C18_2 C13_2 1_555 1_555
H11_2 C18_2 1_555 1_555
N2_2 C12_2 1_555 1_555
H34_2 N2_2 1_555 1_555
O1_2 C12_2 1_555 1_555
C13_2 N2_2 1_555 1_555
C17_2 C18_2 1_555 1_555
C21_2 H12_2 1_555 1_555
C22_2 C21_2 1_555 1_555
H13_2 C22_2 1_555 1_555
C23_2 C22_2 1_555 1_555
H14_2 C23_2 1_555 1_555
C24_2 C23_2 1_555 1_555
C25_2 C24_2 1_555 1_555
H15_2 C25_2 1_555 1_555
C26_2 C24_2 1_555 1_555
C27_2 C26_2 1_555 1_555
H16_2 C27_2 1_555 1_555
C28_2 C27_2 1_555 1_555
H17_2 C28_2 1_555 1_555
C29_2 C28_2 1_555 1_555
C30_2 C29_2 1_555 1_555
H18_2 C30_2 1_555 1_555
C31_2 C26_2 1_555 1_555
H19_2 C31_2 1_555 1_555
N3 C21_2 1_555 1_555
Nd6 N3 1_555 1_555
C25_2 N3 1_555 1_555
C30_2 C31_2 1_555 1_555
Nd6 O2_2 1_555 1_555
Nd9 O4_2 1_555 1_555
C16_2 C15_2 1_555 1_555
H10_2 C16_2 1_555 1_555
C20_2 C15_2 1_555 1_555
C33_2 C34_2 1_555 1_555
C34_2 H20_2 1_555 1_555
C35_2 C34_2 1_555 1_555
C36_2 C35_2 1_555 1_555
H21_2 C36_2 1_555 1_555
C37_2 C36_2 1_555 1_555
C38_2 C33_2 1_555 1_555
H22_2 C38_2 1_555 1_555
C39_2 C37_2 1_555 1_555
C40_2 C35_2 1_555 1_555
N4_2 C32_2 1_555 1_555
H35_2 N4_2 1_555 1_555
O3_2 Nd6 1_555 1_555
O5_2 Nd6 1_555 1_555
O6_2 Nd9 1_555 1_555
O20 C20_2 1_555 1_555
O21 C20_2 1_555 1_555
O9_2 C32_2 1_555 1_555
O10_2 Nd9 1_555 1_555
O11_2 Nd9 1_555 1_555
O23 C40_2 1_555 1_555
O24 C40_2 1_555 1_555
O17_2 Nd6 1_555 1_555
C19_2 O3_2 1_555 1_555
C19_2 O5_2 1_555 1_555
C33_2 N4_2 1_555 1_555
C37_2 C38_2 1_555 1_555
C39_2 O10_2 1_555 1_555
C39_2 O11_2 1_555 1_555
O4_2 H37_2 1_555 1_555
O4_2 H38_2 1_555 1_555
O2_2 H39_2 1_555 1_555
O2_2 H40_2 1_555 1_555
O6_2 H41_2 1_555 1_555
O6_2 H42_2 1_555 1_555
C1 H1 1_555 1_555
C2 C1 1_555 1_555
C3 C2 1_555 1_555
H2 C3 1_555 1_555
C4 C3 1_555 1_555
H3 C4 1_555 1_555
C5 C4 1_555 1_555
H4 C5 1_555 1_555
C6 C2 1_555 1_555
C7 C6 1_555 1_555
H5 C7 1_555 1_555
C8 C7 1_555 1_555
H6 C8 1_555 1_555
C9 C8 1_555 1_555
C10 C9 1_555 1_555
H7 C10 1_555 1_555
C11 C6 1_555 1_555
H8 C11 1_555 1_555
N1 C1 1_555 1_555
C5 N1 1_555 1_555
C10 C11 1_555 1_555
C41 H23 1_555 1_555
C42 C41 1_555 1_555
H24 C42 1_555 1_555
C43 C42 1_555 1_555
H25 C43 1_555 1_555
C44 C43 1_555 1_555
C45 C44 1_555 1_555
H26 C45 1_555 1_555
C46 C44 1_555 1_555
C47 C46 1_555 1_555
H27 C47 1_555 1_555
H29 C50 1_555 1_555
C51 C46 1_555 1_555
H30 C51 1_555 1_555
N5 C41 1_555 1_555
C45 N5 1_555 1_555
C50 C51 1_555 1_555
C41_2 H23_2 1_555 1_555
C42_2 C41_2 1_555 1_555
H24_2 C42_2 1_555 1_555
C43_2 C42_2 1_555 1_555
H25_2 C43_2 1_555 1_555
C44_2 C43_2 1_555 1_555
C45_2 C44_2 1_555 1_555
H26_2 C45_2 1_555 1_555
C46_2 C44_2 1_555 1_555
C47_2 C46_2 1_555 1_555
H27_2 C47_2 1_555 1_555
H29_2 C50_2 1_555 1_555
C51_2 C46_2 1_555 1_555
H30_2 C51_2 1_555 1_555
N5_2 C41_2 1_555 1_555
C45_2 N5_2 1_555 1_555
C50_2 C51_2 1_555 1_555
C1_2 H1_2 1_555 1_555
C2_2 C1_2 1_555 1_555
C3_2 C2_2 1_555 1_555
H2_2 C3_2 1_555 1_555
C4_2 C3_2 1_555 1_555
H3_2 C4_2 1_555 1_555
C5_2 C4_2 1_555 1_555
H4_2 C5_2 1_555 1_555
C6_2 C2_2 1_555 1_555
C7_2 C6_2 1_555 1_555
H5_2 C7_2 1_555 1_555
C8_2 C7_2 1_555 1_555
H6_2 C8_2 1_555 1_555
C9_2 C8_2 1_555 1_555
C10_2 C9_2 1_555 1_555
H7_2 C10_2 1_555 1_555
C11_2 C6_2 1_555 1_555
H8_2 C11_2 1_555 1_555
N1_2 C1_2 1_555 1_555
C5_2 N1_2 1_555 1_555
C10_2 C11_2 1_555 1_555

#END
