
###############################################################################
#
# This file contains modified crystal structure data generated from the
# MOF subset of the Cambridge Structural Database (CSD) v543 
# hosted by the Cambridge Crystallographic Data Centre (CCDC).
#
# This work is licensed under the Creative Commons
# Attribution-NonCommercial-ShareAlike 4.0 International License.
# To view a copy of this license, visit
# http://creativecommons.org/licenses/by-nc-sa/4.0/
# or send a letter to
# Creative Commons, PO Box 1866, Mountain View, CA 94042, USA.
#
# CIF created using the CSD Python API on 29 September 2022
# The structure has been converted into the P1 space group
# The structure has a 3D framework
# The original CSD entry CITLOJ is in the triclinic crystal system
# The framework has been calculated to contain at least 10.0% void space
# The void calculation uses a probe of radius 1.32A, grid spacing 0.4
# H atom positions have been added when not included in the experimental data
#
###############################################################################

data_CITLOJ
_chemical_formula_moiety         '(C120 H84 La4 N12 O36)n'
_symmetry_cell_setting           triclinic
_symmetry_space_group_name_H-M   'P 1'
_symmetry_Int_Tables_number      1
_space_group_name_Hall           'P 1'
loop_
_symmetry_equiv_pos_site_id
_symmetry_equiv_pos_as_xyz
1 x,y,z
_cell_length_a                   10.3458(18)
_cell_length_b                   18.522(3)
_cell_length_c                   18.780(3)
_cell_angle_alpha                114.221(3)
_cell_angle_beta                 96.920(3)
_cell_angle_gamma                98.615(3)
_cell_volume                     3178.15
loop_
_atom_site_label
_atom_site_type_symbol
_atom_site_fract_x
_atom_site_fract_y
_atom_site_fract_z
H24 H 0.084396 0.417335 0.780896
C1 C 0.0799(17) 0.2278(6) 0.4183(7)
H1 H 0.097047 0.246392 0.473320
C4 C 0.0256(11) 0.1778(6) 0.2585(6)
C5 C 0.1569(11) 0.2028(7) 0.2985(6)
H4 H 0.223727 0.202900 0.269519
C10 C 0.0345(10) 0.1110(7) 0.0416(6)
H7 H 0.099903 0.107432 0.011118
C11 C 0.0731(11) 0.1393(8) 0.1239(6)
H8 H 0.163626 0.153115 0.146291
N1 N 0.1943(12) 0.2281(6) 0.3811(6)
C17 C 0.0200(6) 0.0045(4) 0.6722(4)
C18 C 0.0334(8) 0.0228(5) 0.7533(5)
H11 H 0.116868 0.030796 0.783610
H34 H 0.030462 0.072484 0.895257
La6 La 0.64968(3) 0.04396(2) 0.45452(2)
O21 O 0.3661(5) 0.0082(3) 0.4468(3)
O26 O 0.4422(5) 0.1063(3) 0.6244(3)
C21 C 0.0209(8) 0.8390(6) 0.4324(5)
H12 H 0.013616 0.855300 0.485412
C24 C 0.0383(8) 0.7875(5) 0.2766(5)
C25 C 0.1497(7) 0.8270(4) 0.3403(4)
H15 H 0.233729 0.834181 0.327999
C26 C 0.0526(7) 0.7614(5) 0.1923(4)
C29 C 0.0663(8) 0.7075(5) 0.0306(4)
C30 C 0.1723(9) 0.7136(6) 0.0868(5)
H18 H 0.250969 0.700787 0.070996
C31 C 0.1640(9) 0.7383(6) 0.1656(5)
H19 H 0.235435 0.739404 0.201393
N3 N 0.1421(6) 0.8543(4) 0.4163(4)
La4 La 0.35032(3) 0.95604(2) 0.54548(2)
La2 La 0.39314(4) 0.58540(2) 0.56587(2)
C19 C 0.1395(7) 0.9975(4) 0.6344(4)
C32 C 0.0813(8) 0.6763(5) 0.9468(4)
C37 C 0.0479(7) 0.6046(4) 0.6882(4)
C38 C 0.0704(7) 0.6368(4) 0.7706(4)
H22 H 0.157213 0.651781 0.799749
C39 C 0.1640(7) 0.5953(5) 0.6488(4)
C48 C 0.7401(10) 0.5282(7) 0.0393(6)
H28 H 0.767249 0.519915 0.083851
C49 C 0.6521(9) 0.5777(5) 0.0427(5)
C52 C 0.6074(10) 0.6282(5) 0.1182(5)
C53 C 0.6015(7) 0.6483(4) 0.2564(4)
C54 C 0.6161(7) 0.6098(4) 0.3053(5)
H31 H 0.644958 0.561345 0.287351
C55 C 0.5875(8) 0.6436(4) 0.3818(5)
C56 C 0.5509(7) 0.7182(4) 0.4099(4)
H32 H 0.533410 0.741666 0.461007
C57 C 0.5409(6) 0.7566(4) 0.3614(4)
C58 C 0.5690(7) 0.7250(4) 0.2862(4)
H33 H 0.566541 0.753740 0.255684
C59 C 0.5931(8) 0.5998(5) 0.4337(5)
C60 C 0.5099(7) 0.8412(4) 0.3970(4)
N6 N 0.6272(7) 0.6082(4) 0.1794(4)
H36 H 0.659438 0.565804 0.170364
O2 O 0.2686(6) 0.8210(3) 0.5564(3)
O3 O 0.2455(5) 0.9894(3) 0.6708(3)
O4 O 0.2568(6) 0.6373(4) 0.4737(3)
O5 O 0.1336(5) 0.9980(3) 0.5685(3)
O6 O 0.4410(9) 0.7388(4) 0.6458(5)
O9 O 0.1793(7) 0.6513(5) 0.9257(3)
O10 O 0.2808(5) 0.6180(4) 0.6902(3)
O11 O 0.1476(5) 0.5662(4) 0.5746(3)
O14 O 0.5575(10) 0.6847(5) 0.1204(4)
O15 O 0.6404(7) 0.5374(4) 0.4108(4)
O16 O 0.5484(5) 0.6287(3) 0.4960(3)
O17 O 0.4324(5) 0.8514(3) 0.4448(3)
O18 O 0.5578(5) 0.8937(3) 0.3756(3)
La9 La 0.60686(4) 0.41460(2) 0.43413(2)
O19 O 0.5474(5) 0.9598(4) 0.6418(3)
O20 O 0.6339(5) 0.9918(3) 0.5532(3)
O22 O 0.6410(5) 0.5285(3) 0.5669(3)
O23 O 0.3590(5) 0.4715(3) 0.4331(3)
O24 O 0.5947(5) 0.6194(4) 0.6745(3)
O25 O 0.3596(7) 0.4626(4) 0.5892(4)
H37 H 0.1709 0.811879 0.554386
H38 H 0.288381 0.774998 0.511354
H39 H 0.356007 0.756206 0.655566
H40 H 0.501536 0.75495 0.697589
H41 H 0.319435 0.67499 0.461733
H42 H 0.208828 0.590188 0.423147
C12 C 0.8611(9) 0.0564(8) 0.9188(5)
C13 C 0.9226(7) 0.0288(5) 0.7885(4)
C14 C 0.7970(7) 0.0132(5) 0.7426(4)
H9 H 0.721983 0.015211 0.765547
N2 N 0.9478(7) 0.0550(4) 0.8718(4)
O1 O 0.7403(7) 0.0245(8) 0.8907(5)
C15 C 0.7843(7) 0.9946(4) 0.6628(4)
C16 C 0.8947(7) 0.9914(4) 0.6267(4)
H10 H 0.884927 0.980744 0.573261
C20 C 0.6469(7) 0.9806(4) 0.6162(4)
C33 C 0.9643(7) 0.6468(5) 0.8101(4)
C34 C 0.8357(7) 0.6284(4) 0.7661(4)
H20 H 0.764727 0.637659 0.792222
C35 C 0.8130(7) 0.5965(4) 0.6840(4)
C36 C 0.9201(7) 0.5832(4) 0.6442(4)
H21 H 0.904772 0.560115 0.588860
C40 C 0.6748(7) 0.5801(5) 0.6395(4)
N4 N 0.9790(6) 0.6768(4) 0.8929(3)
H35 H 0.915822 0.698378 0.912761
C15_2 C 0.2157(7) 0.0054(4) 0.3372(4)
C16_2 C 0.1053(7) 0.0086(4) 0.3733(4)
H10_2 H 0.115073 0.019256 0.426739
C20_2 C 0.3531(7) 0.0194(4) 0.3838(4)
C33_2 C 0.0357(7) 0.3532(5) 0.1899(4)
C34_2 C 0.1643(7) 0.3716(4) 0.2339(4)
H20_2 H 0.235273 0.362341 0.207778
C35_2 C 0.1870(7) 0.4035(4) 0.3160(4)
C36_2 C 0.0799(7) 0.4168(4) 0.3558(4)
H21_2 H 0.095228 0.439885 0.411140
C40_2 C 0.3252(7) 0.4199(5) 0.3605(4)
N4_2 N 0.0210(6) 0.3232(4) 0.1071(3)
H35_2 H 0.084178 0.301622 0.087239
O7 O 0.4526(5) 0.0402(4) 0.3582(3)
O13 O 0.4053(5) 0.3806(4) 0.3255(3)
C12_2 C 0.1389(9) 0.9436(8) 0.0812(5)
C13_2 C 0.0774(7) 0.9712(5) 0.2115(4)
C14_2 C 0.2030(7) 0.9868(5) 0.2574(4)
H9_2 H 0.278017 0.984789 0.234453
N2_2 N 0.0522(7) 0.9450(4) 0.1282(4)
O1_2 O 0.2597(7) 0.9755(8) 0.1093(5)
C19_2 C 0.8605(7) 0.0025(4) 0.3656(4)
C32_2 C 0.9187(8) 0.3237(5) 0.0532(4)
C37_2 C 0.9521(7) 0.3954(4) 0.3118(4)
C38_2 C 0.9296(7) 0.3632(4) 0.2294(4)
H22_2 H 0.842787 0.348219 0.200251
C39_2 C 0.8360(7) 0.4047(5) 0.3512(4)
C48_2 C 0.2599(10) 0.4718(7) 0.9607(6)
H28_2 H 0.232751 0.480085 0.916149
C49_2 C 0.3479(9) 0.4223(5) 0.9573(5)
C52_2 C 0.3926(10) 0.3718(5) 0.8818(5)
C53_2 C 0.3985(7) 0.3517(4) 0.7436(4)
C54_2 C 0.3839(7) 0.3902(4) 0.6947(5)
H31_2 H 0.355042 0.438655 0.712649
C55_2 C 0.4125(8) 0.3564(4) 0.6182(5)
C56_2 C 0.4491(7) 0.2818(4) 0.5901(4)
H32_2 H 0.466590 0.258334 0.538993
C57_2 C 0.4591(6) 0.2434(4) 0.6386(4)
C58_2 C 0.4310(7) 0.2750(4) 0.7138(4)
H33_2 H 0.433459 0.246260 0.744316
C59_2 C 0.4069(8) 0.4002(5) 0.5663(5)
C60_2 C 0.4901(7) 0.1588(4) 0.6030(4)
N6_2 N 0.3728(7) 0.3918(4) 0.8206(4)
H36_2 H 0.340562 0.434196 0.829636
O2_2 O 0.7314(6) 0.1790(3) 0.4436(3)
O3_2 O 0.7545(5) 0.0106(3) 0.3292(3)
O4_2 O 0.7432(6) 0.3627(4) 0.5263(3)
O5_2 O 0.8664(5) 0.0020(3) 0.4315(3)
O6_2 O 0.5590(9) 0.2612(4) 0.3542(5)
O9_2 O 0.8207(7) 0.3487(5) 0.0743(3)
O10_2 O 0.7192(5) 0.3820(4) 0.3098(3)
O11_2 O 0.8524(5) 0.4338(4) 0.4254(3)
O14_2 O 0.4425(10) 0.3153(5) 0.8796(4)
O16_2 O 0.4516(5) 0.3713(3) 0.5040(3)
O17_2 O 0.5676(5) 0.1486(3) 0.5552(3)
N7 N 0.8579(6) 0.1457(4) 0.5837(4)
H37_2 H 0.8291 0.188121 0.445614
H38_2 H 0.711619 0.225002 0.488646
H39_2 H 0.643993 0.243794 0.344434
H40_2 H 0.498464 0.24505 0.302411
H41_2 H 0.680565 0.32501 0.538267
H42_2 H 0.791172 0.409812 0.576853
C21_2 C 0.9791(8) 0.1610(6) 0.5676(5)
H12_2 H 0.986384 0.144700 0.514588
C24_2 C 0.9617(8) 0.2125(5) 0.7234(5)
C25_2 C 0.8503(7) 0.1730(4) 0.6597(4)
H15_2 H 0.766271 0.165819 0.672001
C26_2 C 0.9474(7) 0.2386(5) 0.8077(4)
C29_2 C 0.9337(8) 0.2925(5) 0.9694(4)
C30_2 C 0.8277(9) 0.2864(6) 0.9132(5)
H18_2 H 0.749031 0.299213 0.929004
C31_2 C 0.8360(9) 0.2617(6) 0.8344(5)
H19_2 H 0.764565 0.260596 0.798607
C17_2 C 0.9800(6) 0.9955(4) 0.3278(4)
C18_2 C 0.9666(8) 0.9772(5) 0.2467(5)
H11_2 H 0.883132 0.969204 0.216390
H34_2 H 0.969538 0.927516 0.104743
C41 C 0.9143(12) 0.3984(7) 0.7015(6)
H23 H 0.950063 0.375103 0.656374
C42 C 0.9965(11) 0.4232(8) 0.7764(6)
C43 C 0.9411(11) 0.4571(7) 0.8437(6)
H25 H 0.992554 0.475295 0.894408
C44 C 0.8084(9) 0.4632(5) 0.8342(5)
C45 C 0.7386(10) 0.4365(6) 0.7563(5)
H26 H 0.649714 0.440106 0.748943
C46 C 0.7477(9) 0.4999(5) 0.9043(5)
C47 C 0.7883(11) 0.4910(7) 0.9723(6)
H27 H 0.849558 0.459043 0.972381
C50 C 0.6106(10) 0.5871(6) 0.9760(5)
H29 H 0.550168 0.619563 0.976307
C51 C 0.6594(9) 0.5475(6) 0.9067(5)
H30 H 0.630366 0.554073 0.861368
N5 N 0.7923(9) 0.4059(5) 0.6915(5)
C2 C 0.9572(10) 0.2045(6) 0.3827(5)
H2 H 0.888644 0.202985 0.410218
C3 C 0.9331(11) 0.1833(6) 0.3070(6)
H3 H 0.843779 0.170177 0.282268
C6 C 0.9859(10) 0.1474(6) 0.1718(6)
C7 C 0.8597(13) 0.1281(16) 0.1344(9)
H5 H 0.793513 0.134100 0.164516
C8 C 0.8228(12) 0.1002(16) 0.0544(8)
H6 H 0.732449 0.087744 0.031995
C9 C 0.9104(9) 0.0897(6) 0.0065(5)
C22 C 0.9057(8) 0.8000(6) 0.3735(5)
H13 H 0.823208 0.790588 0.386955
C23 C 0.9157(9) 0.7761(6) 0.2971(5)
H14 H 0.839017 0.751571 0.257330
C27 C 0.9461(9) 0.7547(6) 0.1355(5)
H16 H 0.867257 0.767267 0.151081
C28 C 0.9548(9) 0.7303(6) 0.0586(5)
H17 H 0.882635 0.728847 0.022962
C22_2 C 0.0943(8) 0.2000(6) 0.6265(5)
H13_2 H 0.176792 0.209412 0.613045
C23_2 C 0.0843(9) 0.2239(6) 0.7029(5)
H14_2 H 0.160983 0.248429 0.742670
C27_2 C 0.0539(9) 0.2453(6) 0.8645(5)
H16_2 H 0.132743 0.232733 0.848919
C28_2 C 0.0452(9) 0.2697(6) 0.9414(5)
H17_2 H 0.117365 0.271153 0.977038
C2_2 C 0.0428(10) 0.7955(6) 0.6173(5)
H2_2 H 0.111356 0.797015 0.589782
C3_2 C 0.0669(11) 0.8167(6) 0.6930(6)
H3_2 H 0.156221 0.829823 0.717732
C6_2 C 0.0141(10) 0.8526(6) 0.8282(6)
C7_2 C 0.1403(13) 0.8719(16) 0.8656(9)
H5_2 H 0.206487 0.865900 0.835484
C8_2 C 0.1772(12) 0.8998(16) 0.9456(8)
H6_2 H 0.267551 0.912256 0.968005
C9_2 C 0.0896(9) 0.9103(6) 0.9935(5)
C41_2 C 0.0857(12) 0.6016(7) 0.2985(6)
H23_2 H 0.049937 0.624897 0.343626
C42_2 C 0.0035(11) 0.5768(8) 0.2236(6)
C43_2 C 0.0589(11) 0.5429(7) 0.1563(6)
H25_2 H 0.007446 0.524705 0.105592
C44_2 C 0.1916(9) 0.5368(5) 0.1658(5)
C45_2 C 0.2614(10) 0.5635(6) 0.2437(5)
H26_2 H 0.350286 0.559894 0.251057
C46_2 C 0.2523(9) 0.5001(5) 0.0957(5)
C47_2 C 0.2117(11) 0.5090(7) 0.0277(6)
H27_2 H 0.150442 0.540957 0.027619
C50_2 C 0.3894(10) 0.4129(6) 0.0240(5)
H29_2 H 0.449832 0.380437 0.023693
C51_2 C 0.3406(9) 0.4525(6) 0.0933(5)
H30_2 H 0.369634 0.445927 0.138632
N5_2 N 0.2077(9) 0.5941(5) 0.3085(5)
C1_2 C 0.9201(17) 0.7722(6) 0.5817(7)
H1_2 H 0.902953 0.753608 0.526680
C4_2 C 0.9744(11) 0.8222(6) 0.7415(6)
C5_2 C 0.8431(11) 0.7972(7) 0.7015(6)
H4_2 H 0.776273 0.797100 0.730481
C10_2 C 0.9655(10) 0.8890(7) 0.9584(6)
H7_2 H 0.900097 0.892568 0.988882
C11_2 C 0.9269(11) 0.8607(8) 0.8761(6)
H8_2 H 0.836374 0.846885 0.853709
N1_2 N 0.8057(12) 0.7719(6) 0.6189(6)
H24_2 H 0.915604 0.582665 0.219104
loop_
_geom_bond_atom_site_label_1
_geom_bond_atom_site_label_2
_geom_bond_site_symmetry_1
_geom_bond_site_symmetry_2
C1 H1 1_555 1_555
C5 C4 1_555 1_555
H4 C5 1_555 1_555
H7 C10 1_555 1_555
H8 C11 1_555 1_555
N1 C1 1_555 1_555
C5 N1 1_555 1_555
C10 C11 1_555 1_555
H11 C18 1_555 1_555
C17 C18 1_555 1_555
La6 O21 1_555 1_555
C21 H12 1_555 1_555
C25 C24 1_555 1_555
H15 C25 1_555 1_555
C26 C24 1_555 1_555
C30 C29 1_555 1_555
H18 C30 1_555 1_555
C31 C26 1_555 1_555
H19 C31 1_555 1_555
N3 C21 1_555 1_555
La4 N3 1_555 1_555
C25 N3 1_555 1_555
C30 C31 1_555 1_555
La4 O2 1_555 1_555
La2 O4 1_555 1_555
H22 C38 1_555 1_555
C39 C37 1_555 1_555
H28 C48 1_555 1_555
C49 C48 1_555 1_555
C52 C49 1_555 1_555
C53 C54 1_555 1_555
C54 H31 1_555 1_555
C55 C54 1_555 1_555
C56 C55 1_555 1_555
H32 C56 1_555 1_555
C57 C56 1_555 1_555
C58 C53 1_555 1_555
H33 C58 1_555 1_555
C59 C55 1_555 1_555
C60 C57 1_555 1_555
N6 C52 1_555 1_555
H36 N6 1_555 1_555
O3 La4 1_555 1_555
O5 La4 1_555 1_555
O6 La2 1_555 1_555
O9 C32 1_555 1_555
O10 La2 1_555 1_555
O11 La2 1_555 1_555
O14 C52 1_555 1_555
O15 C59 1_555 1_555
O16 La2 1_555 1_555
O17 La4 1_555 1_555
O18 C60 1_555 1_555
La9 O15 1_555 1_555
O19 La4 1_555 1_555
O20 La4 1_555 1_555
O22 La2 1_555 1_555
O23 La2 1_555 1_555
O24 La2 1_555 1_555
O25 La2 1_555 1_555
C19 O3 1_555 1_555
C19 O5 1_555 1_555
C37 C38 1_555 1_555
C39 O10 1_555 1_555
C39 O11 1_555 1_555
C53 N6 1_555 1_555
C57 C58 1_555 1_555
C59 O16 1_555 1_555
C60 O17 1_555 1_555
La9 O22 1_555 1_555
La9 O23 1_555 1_555
O2 H37 1_555 1_555
O2 H38 1_555 1_555
O6 H39 1_555 1_555
O6 H40 1_555 1_555
O4 H41 1_555 1_555
O4 H42 1_555 1_555
C13 C14 1_555 1_555
C14 H9 1_555 1_555
N2 C12 1_555 1_555
O1 C12 1_555 1_555
C13 N2 1_555 1_555
C16 C15 1_555 1_555
H10 C16 1_555 1_555
C20 C15 1_555 1_555
C33 C34 1_555 1_555
C34 H20 1_555 1_555
C35 C34 1_555 1_555
C36 C35 1_555 1_555
H21 C36 1_555 1_555
C40 C35 1_555 1_555
H35 N4 1_555 1_555
O19 C20 1_555 1_555
O20 C20 1_555 1_555
O22 C40 1_555 1_555
O24 C40 1_555 1_555
C33 N4 1_555 1_555
C16_2 C15_2 1_555 1_555
H10_2 C16_2 1_555 1_555
C20_2 C15_2 1_555 1_555
C33_2 C34_2 1_555 1_555
C34_2 H20_2 1_555 1_555
C35_2 C34_2 1_555 1_555
C36_2 C35_2 1_555 1_555
H21_2 C36_2 1_555 1_555
C40_2 C35_2 1_555 1_555
H35_2 N4_2 1_555 1_555
O7 C20_2 1_555 1_555
O21 C20_2 1_555 1_555
O23 C40_2 1_555 1_555
O13 C40_2 1_555 1_555
La6 O7 1_555 1_555
C33_2 N4_2 1_555 1_555
O13 La9 1_555 1_555
C13_2 C14_2 1_555 1_555
C14_2 H9_2 1_555 1_555
N2_2 C12_2 1_555 1_555
O1_2 C12_2 1_555 1_555
C13_2 N2_2 1_555 1_555
La6 O2_2 1_555 1_555
La9 O4_2 1_555 1_555
H22_2 C38_2 1_555 1_555
C39_2 C37_2 1_555 1_555
H28_2 C48_2 1_555 1_555
C49_2 C48_2 1_555 1_555
C52_2 C49_2 1_555 1_555
C53_2 C54_2 1_555 1_555
C54_2 H31_2 1_555 1_555
C55_2 C54_2 1_555 1_555
C56_2 C55_2 1_555 1_555
H32_2 C56_2 1_555 1_555
C57_2 C56_2 1_555 1_555
C58_2 C53_2 1_555 1_555
H33_2 C58_2 1_555 1_555
C59_2 C55_2 1_555 1_555
C60_2 C57_2 1_555 1_555
N6_2 C52_2 1_555 1_555
H36_2 N6_2 1_555 1_555
O3_2 La6 1_555 1_555
O5_2 La6 1_555 1_555
O6_2 La9 1_555 1_555
O9_2 C32_2 1_555 1_555
O10_2 La9 1_555 1_555
O11_2 La9 1_555 1_555
O14_2 C52_2 1_555 1_555
O25 C59_2 1_555 1_555
O16_2 La9 1_555 1_555
O17_2 La6 1_555 1_555
O26 C60_2 1_555 1_555
N7 La6 1_555 1_555
C19_2 O3_2 1_555 1_555
C19_2 O5_2 1_555 1_555
C37_2 C38_2 1_555 1_555
C39_2 O10_2 1_555 1_555
C39_2 O11_2 1_555 1_555
C53_2 N6_2 1_555 1_555
C57_2 C58_2 1_555 1_555
C59_2 O16_2 1_555 1_555
C60_2 O17_2 1_555 1_555
O2_2 H37_2 1_555 1_555
O2_2 H38_2 1_555 1_555
O6_2 H39_2 1_555 1_555
O6_2 H40_2 1_555 1_555
O4_2 H41_2 1_555 1_555
O4_2 H42_2 1_555 1_555
C21_2 H12_2 1_555 1_555
C25_2 C24_2 1_555 1_555
H15_2 C25_2 1_555 1_555
C26_2 C24_2 1_555 1_555
C30_2 C29_2 1_555 1_555
H18_2 C30_2 1_555 1_555
C31_2 C26_2 1_555 1_555
H19_2 C31_2 1_555 1_555
N7 C21_2 1_555 1_555
C25_2 N7 1_555 1_555
C30_2 C31_2 1_555 1_555
H11_2 C18_2 1_555 1_555
C17_2 C18_2 1_555 1_555
C41 H23 1_555 1_555
C42 C41 1_555 1_555
C43 C42 1_555 1_555
H25 C43 1_555 1_555
C44 C43 1_555 1_555
C45 C44 1_555 1_555
H26 C45 1_555 1_555
C46 C44 1_555 1_555
C47 C46 1_555 1_555
H27 C47 1_555 1_555
H29 C50 1_555 1_555
C51 C46 1_555 1_555
H30 C51 1_555 1_555
N5 C41 1_555 1_555
C45 N5 1_555 1_555
C50 C51 1_555 1_555
H2 C2 1_555 1_555
C3 C2 1_555 1_555
H3 C3 1_555 1_555
C7 C6 1_555 1_555
H5 C7 1_555 1_555
C8 C7 1_555 1_555
H6 C8 1_555 1_555
C9 C8 1_555 1_555
H13 C22 1_555 1_555
C23 C22 1_555 1_555
H14 C23 1_555 1_555
H16 C27 1_555 1_555
C28 C27 1_555 1_555
H17 C28 1_555 1_555
H13_2 C22_2 1_555 1_555
C23_2 C22_2 1_555 1_555
H14_2 C23_2 1_555 1_555
H16_2 C27_2 1_555 1_555
C28_2 C27_2 1_555 1_555
H17_2 C28_2 1_555 1_555
H2_2 C2_2 1_555 1_555
C3_2 C2_2 1_555 1_555
H3_2 C3_2 1_555 1_555
C7_2 C6_2 1_555 1_555
H5_2 C7_2 1_555 1_555
C8_2 C7_2 1_555 1_555
H6_2 C8_2 1_555 1_555
C9_2 C8_2 1_555 1_555
C41_2 H23_2 1_555 1_555
C42_2 C41_2 1_555 1_555
C43_2 C42_2 1_555 1_555
H25_2 C43_2 1_555 1_555
C44_2 C43_2 1_555 1_555
C45_2 C44_2 1_555 1_555
H26_2 C45_2 1_555 1_555
C46_2 C44_2 1_555 1_555
C47_2 C46_2 1_555 1_555
H27_2 C47_2 1_555 1_555
H29_2 C50_2 1_555 1_555
C51_2 C46_2 1_555 1_555
H30_2 C51_2 1_555 1_555
N5_2 C41_2 1_555 1_555
C45_2 N5_2 1_555 1_555
C50_2 C51_2 1_555 1_555
C1_2 H1_2 1_555 1_555
C5_2 C4_2 1_555 1_555
H4_2 C5_2 1_555 1_555
H7_2 C10_2 1_555 1_555
H8_2 C11_2 1_555 1_555
N1_2 C1_2 1_555 1_555
C5_2 N1_2 1_555 1_555
C10_2 C11_2 1_555 1_555

#END
