
###############################################################################
#
# This file contains modified crystal structure data generated from the
# MOF subset of the Cambridge Structural Database (CSD) v543 
# hosted by the Cambridge Crystallographic Data Centre (CCDC).
#
# This work is licensed under the Creative Commons
# Attribution-NonCommercial-ShareAlike 4.0 International License.
# To view a copy of this license, visit
# http://creativecommons.org/licenses/by-nc-sa/4.0/
# or send a letter to
# Creative Commons, PO Box 1866, Mountain View, CA 94042, USA.
#
# CIF created using the CSD Python API on 29 September 2022
# The structure has been converted into the P1 space group
# The structure has a 3D framework
# The original CSD entry CITMAW is in the triclinic crystal system
# The framework has been calculated to contain at least 10.0% void space
# The void calculation uses a probe of radius 1.32A, grid spacing 0.4
# H atom positions have been added when not included in the experimental data
#
###############################################################################

data_CITMAW
_chemical_formula_moiety         '(C120 H84 N12 O36 Sm4)n'
_symmetry_cell_setting           triclinic
_symmetry_space_group_name_H-M   'P 1'
_symmetry_Int_Tables_number      1
_space_group_name_Hall           'P 1'
loop_
_symmetry_equiv_pos_site_id
_symmetry_equiv_pos_as_xyz
1 x,y,z
_cell_length_a                   10.192(3)
_cell_length_b                   18.344(6)
_cell_length_c                   18.624(6)
_cell_angle_alpha                113.734(6)
_cell_angle_beta                 97.281(6)
_cell_angle_gamma                98.490(6)
_cell_volume                     3085.2
loop_
_atom_site_label
_atom_site_type_symbol
_atom_site_fract_x
_atom_site_fract_y
_atom_site_fract_z
Sm4 Sm 0.35458(5) 0.45609(4) 0.04579(3)
C21 C 0.1564(11) 0.3279(7) 0.8417(7)
H12 H 0.241621 0.337565 0.830071
C22 C 0.0470(11) 0.2880(7) 0.7783(7)
C25 C 0.0233(12) 0.3364(8) 0.9322(7)
H15 H 0.015099 0.349663 0.984936
C26 C 0.0608(10) 0.2617(7) 0.6928(6)
C27 C 0.1746(11) 0.2426(8) 0.6659(6)
H16 H 0.249614 0.246426 0.702412
C28 C 0.1829(11) 0.2177(8) 0.5866(7)
H17 H 0.263921 0.207333 0.570991
C29 C 0.0751(10) 0.2084(7) 0.5317(6)
C32 C 0.0878(12) 0.1781(8) 0.4468(7)
C34 C 0.0765(9) 0.1353(6) 0.2687(6)
H20 H 0.164612 0.149225 0.297969
C35 C 0.0529(9) 0.1019(7) 0.1846(6)
C40 C 0.1744(10) 0.0933(7) 0.1463(6)
N3 N 0.1479(8) 0.3537(6) 0.9195(5)
O9 O 0.1884(9) 0.1520(6) 0.4272(5)
O12 O 0.1524(6) 0.0626(5) 0.0720(4)
O13 O 0.2917(7) 0.1161(5) 0.1886(4)
Sm7 Sm 0.39592(5) 0.08404(4) 0.06497(3)
C1 C 0.070(2) 0.7326(10) 0.9177(9)
H1 H 0.090980 0.755365 0.973385
C2 C 0.1797(15) 0.7281(9) 0.8796(10)
H2 H 0.269065 0.741486 0.906922
C3 C 0.1458(15) 0.7034(9) 0.8018(8)
H3 H 0.214784 0.702785 0.773390
C4 C 0.0175(13) 0.6791(8) 0.7611(8)
C7 C 0.0665(15) 0.6411(10) 0.6292(9)
H5 H 0.157841 0.655383 0.653330
C8 C 0.0297(16) 0.6121(10) 0.5428(9)
H6 H 0.097429 0.610577 0.513454
C14 C 0.0413(10) 0.5235(7) 0.2531(7)
H9 H 0.126056 0.532047 0.284123
C15 C 0.0290(10) 0.5044(7) 0.1720(6)
C20 C 0.1512(10) 0.4969(7) 0.1335(6)
C23 C 0.9207(11) 0.2743(8) 0.7966(7)
H13 H 0.844414 0.246838 0.755702
C24 C 0.9082(12) 0.3012(8) 0.8752(7)
H14 H 0.823722 0.295364 0.888714
C30 C 0.9634(12) 0.2261(8) 0.5548(7)
H18 H 0.889239 0.221514 0.517291
C31 C 0.9538(12) 0.2523(9) 0.6364(7)
H19 H 0.872644 0.263193 0.651325
C33 C 0.9695(10) 0.1477(6) 0.3087(6)
C36 C 0.9258(9) 0.0804(6) 0.1428(6)
H21 H 0.908958 0.054520 0.087147
C37 C 0.8200(9) 0.0960(6) 0.1813(6)
C38 C 0.8420(9) 0.1294(6) 0.2642(6)
H22 H 0.769413 0.139344 0.289725
C39 C 0.6753(10) 0.0781(7) 0.1340(7)
H34 H 0.034745 0.576520 0.399046
N4 N 0.9876(8) 0.1768(5) 0.3930(5)
H35 H 0.922375 0.197083 0.412726
O2 O 0.2835(7) 0.3240(5) 0.0570(4)
O3 O 0.4377(9) 0.2353(5) 0.1383(5)
O7 O 0.1430(6) 0.4976(5) 0.0662(4)
O8 O 0.2541(6) 0.4859(5) 0.1688(4)
O10 O 0.5960(6) 0.1185(5) 0.1668(4)
O11 O 0.6431(7) 0.0255(5) 0.0639(4)
O19 O 0.5466(7) 0.4603(5) 0.1393(4)
O20 O 0.6352(6) 0.4934(4) 0.0518(4)
O25 O 0.4410(7) 0.6034(4) 0.1219(4)
H37 H 0.202177 0.289593 0.0146805
H38 H 0.358604 0.294522 0.0501946
H41 H 0.35055 0.251704 0.147695
H42 H 0.500751 0.253838 0.190547
C46 C 0.7498(11) 0.0003(7) 0.4038(8)
C47 C 0.6622(12) 0.0505(8) 0.4069(8)
H27 H 0.634993 0.058032 0.361280
C48 C 0.6114(12) 0.0908(8) 0.4741(7)
H28 H 0.554161 0.125900 0.474163
C49 C 0.6472(11) 0.0778(7) 0.5401(7)
C50 C 0.7334(13) 0.0264(9) 0.5397(8)
H29 H 0.758466 0.018287 0.585235
C52 C 0.6069(13) 0.1300(9) 0.6164(8)
C53 C 0.6023(10) 0.1494(7) 0.7568(7)
C54 C 0.5683(9) 0.2264(7) 0.7869(7)
H31 H 0.561272 0.254057 0.754719
C55 C 0.5446(9) 0.2625(6) 0.8668(8)
C56 C 0.5508(10) 0.2190(8) 0.9118(7)
H32 H 0.528996 0.239642 0.962141
C57 C 0.5891(9) 0.1447(7) 0.8830(7)
C58 C 0.6149(10) 0.1110(7) 0.8070(7)
H33 H 0.641309 0.061361 0.789002
C59 C 0.5116(9) 0.3441(7) 0.8994(6)
C60 C 0.5887(10) 0.0971(8) 0.9351(7)
N6 N 0.6241(9) 0.1087(6) 0.6797(5)
H36 H 0.652106 0.064329 0.670154
O6 O 0.2587(7) 0.1361(5) 0.9770(4)
O14 O 0.5592(12) 0.1876(7) 0.6208(6)
O15 O 0.5590(7) 0.3966(4) 0.8781(4)
O16 O 0.4364(7) 0.3543(5) 0.9504(5)
O17 O 0.5465(7) 0.1286(5) 0.9985(4)
O18 O 0.6348(7) 0.0349(5) 0.9111(5)
Sm6 Sm 0.64542(5) 0.54391(4) 0.95421(3)
O21 O 0.3648(6) 0.5066(4) 0.9482(4)
H39 H 0.321302 0.174114 0.964431
H40 H 0.208471 0.0891383 0.926411
O26 O 0.3652(7) 0.9651(5) 0.0889(5)
C41 C 0.9122(19) 0.8993(10) 0.1998(10)
H23 H 0.946943 0.876154 0.153971
C42 C 0.7938(12) 0.9091(8) 0.1918(7)
H24 H 0.742850 0.894706 0.141114
C43 C 0.7417(13) 0.9402(9) 0.2559(8)
H25 H 0.652977 0.946814 0.248618
C44 C 0.8118(13) 0.9640(8) 0.3351(8)
C45 C 0.9408(14) 0.9565(10) 0.3462(10)
H26 H 0.990870 0.973401 0.397684
C51 C 0.7821(13) 0.9874(9) 0.4723(8)
H30 H 0.837846 0.951487 0.472092
Sm8 Sm 0.60408(5) 0.91596(4) 0.93503(3)
O22 O 0.3569(7) 0.9745(5) 0.9361(4)
C5 C 0.9199(16) 0.6818(9) 0.8053(9)
H4 H 0.830094 0.663139 0.777873
C6 C 0.9783(15) 0.6478(8) 0.6737(8)
C9 C 0.9022(13) 0.5881(10) 0.5057(8)
C10 C 0.8088(17) 0.6029(18) 0.5507(11)
H7 H 0.718425 0.595171 0.527710
C11 C 0.8492(16) 0.6294(16) 0.6305(10)
H8 H 0.780961 0.636053 0.659821
C12 C 0.8562(14) 0.5508(10) 0.4152(8)
C13 C 0.9307(10) 0.5299(7) 0.2880(6)
C16 C 0.9017(10) 0.4911(7) 0.1254(6)
H10 H 0.893010 0.478958 0.071282
C17 C 0.7858(10) 0.4959(7) 0.1601(6)
C18 C 0.8022(10) 0.5142(7) 0.2407(6)
H11 H 0.726567 0.516272 0.264080
C19 C 0.6498(12) 0.4818(8) 0.1157(7)
N1 N 0.9431(13) 0.7090(8) 0.8848(7)
N2 N 0.9525(9) 0.5558(6) 0.3726(5)
O1 O 0.7366(10) 0.5165(10) 0.3860(6)
C5_2 C 0.0801(16) 0.3182(9) 0.1947(9)
H4_2 H 0.169906 0.336861 0.222127
C6_2 C 0.0217(15) 0.3522(8) 0.3263(8)
C9_2 C 0.0978(13) 0.4119(10) 0.4943(8)
C10_2 C 0.1912(17) 0.3971(18) 0.4493(11)
H7_2 H 0.281575 0.404829 0.472290
C11_2 C 0.1508(16) 0.3706(16) 0.3695(10)
H8_2 H 0.219039 0.363947 0.340179
C12_2 C 0.1438(14) 0.4492(10) 0.5848(8)
C13_2 C 0.0693(10) 0.4701(7) 0.7120(6)
C16_2 C 0.0983(10) 0.5089(7) 0.8746(6)
H10_2 H 0.106990 0.521042 0.928718
C17_2 C 0.2142(10) 0.5041(7) 0.8399(6)
C18_2 C 0.1978(10) 0.4858(7) 0.7593(6)
H11_2 H 0.273433 0.483728 0.735920
C19_2 C 0.3502(12) 0.5182(8) 0.8843(7)
N1_2 N 0.0569(13) 0.2910(8) 0.1152(7)
N2_2 N 0.0475(9) 0.4442(6) 0.6274(5)
O1_2 O 0.2634(10) 0.4835(10) 0.6140(6)
O4 O 0.4534(7) 0.5397(5) 0.8607(4)
C41_2 C 0.0878(19) 0.1007(10) 0.8002(10)
H23_2 H 0.053057 0.123846 0.846029
C42_2 C 0.2062(12) 0.0909(8) 0.8082(7)
H24_2 H 0.257150 0.105294 0.858886
C43_2 C 0.2583(13) 0.0598(9) 0.7441(8)
H25_2 H 0.347023 0.053186 0.751382
C44_2 C 0.1882(13) 0.0360(8) 0.6649(8)
C45_2 C 0.0592(14) 0.0435(10) 0.6538(10)
H26_2 H 0.009130 0.026599 0.602316
C51_2 C 0.2179(13) 0.0126(9) 0.5277(8)
H30_2 H 0.162154 0.048513 0.527908
C46_2 C 0.2502(11) 0.9997(7) 0.5962(8)
C47_2 C 0.3378(12) 0.9495(8) 0.5931(8)
H27_2 H 0.365007 0.941968 0.638720
C48_2 C 0.3886(12) 0.9092(8) 0.5259(7)
H28_2 H 0.445839 0.874100 0.525837
C49_2 C 0.3528(11) 0.9222(7) 0.4599(7)
C50_2 C 0.2666(13) 0.9736(9) 0.4603(8)
H29_2 H 0.241534 0.981713 0.414765
C52_2 C 0.3931(13) 0.8700(9) 0.3836(8)
C53_2 C 0.3977(10) 0.8506(7) 0.2432(7)
C54_2 C 0.4317(9) 0.7736(7) 0.2131(7)
H31_2 H 0.438728 0.745943 0.245281
C55_2 C 0.4554(9) 0.7375(6) 0.1332(8)
C56_2 C 0.4492(10) 0.7810(8) 0.0882(7)
H32_2 H 0.471004 0.760358 0.037859
C57_2 C 0.4109(9) 0.8553(7) 0.1170(7)
C58_2 C 0.3851(10) 0.8890(7) 0.1930(7)
H33_2 H 0.358691 0.938639 0.210998
C59_2 C 0.4884(9) 0.6559(7) 0.1006(6)
C60_2 C 0.4113(10) 0.9029(8) 0.0649(7)
N6_2 N 0.3759(9) 0.8913(6) 0.3203(5)
H36_2 H 0.347894 0.935671 0.329846
O6_2 O 0.7413(7) 0.8639(5) 0.0230(4)
O14_2 O 0.4408(12) 0.8124(7) 0.3792(6)
O16_2 O 0.5636(7) 0.6457(5) 0.0496(5)
O17_2 O 0.4535(7) 0.8714(5) 0.0015(4)
N7 N 0.8521(8) 0.6463(6) 0.0805(5)
H39_2 H 0.678698 0.825886 0.0355693
H40_2 H 0.791529 0.910862 0.0735892
C1_2 C 0.930(2) 0.2674(10) 0.0823(9)
H1_2 H 0.909020 0.244635 0.026615
C2_2 C 0.8203(15) 0.2719(9) 0.1204(10)
H2_2 H 0.730935 0.258514 0.093078
C3_2 C 0.8542(15) 0.2966(9) 0.1982(8)
H3_2 H 0.785216 0.297215 0.226610
C4_2 C 0.9825(13) 0.3209(8) 0.2389(8)
C7_2 C 0.9335(15) 0.3589(10) 0.3708(9)
H5_2 H 0.842159 0.344617 0.346670
C8_2 C 0.9703(16) 0.3879(10) 0.4572(9)
H6_2 H 0.902571 0.389423 0.486546
C14_2 C 0.9587(10) 0.4765(7) 0.7469(7)
H9_2 H 0.873944 0.467953 0.715877
C15_2 C 0.9710(10) 0.4956(7) 0.8280(6)
C20_2 C 0.8488(10) 0.5031(7) 0.8665(6)
C23_2 C 0.0793(11) 0.7257(8) 0.2034(7)
H13_2 H 0.155586 0.753162 0.244298
C24_2 C 0.0918(12) 0.6988(8) 0.1248(7)
H14_2 H 0.176278 0.704636 0.111286
C30_2 C 0.0366(12) 0.7739(8) 0.4452(7)
H18_2 H 0.110761 0.778486 0.482709
C31_2 C 0.0462(12) 0.7477(9) 0.3636(7)
H19_2 H 0.127356 0.736807 0.348675
C33_2 C 0.0305(10) 0.8523(6) 0.6913(6)
C36_2 C 0.0742(9) 0.9196(6) 0.8572(6)
H21_2 H 0.091042 0.945480 0.912853
C37_2 C 0.1800(9) 0.9040(6) 0.8187(6)
C38_2 C 0.1580(9) 0.8706(6) 0.7358(6)
H22_2 H 0.230587 0.860656 0.710275
C39_2 C 0.3247(10) 0.9219(7) 0.8660(7)
H34_2 H 0.965255 0.423480 0.600954
N4_2 N 0.0124(8) 0.8232(5) 0.6070(5)
H35_2 H 0.077625 0.802917 0.587274
O2_2 O 0.7165(7) 0.6760(5) 0.9430(4)
O3_2 O 0.5623(9) 0.7647(5) 0.8617(5)
O7_2 O 0.8570(6) 0.5024(5) 0.9338(4)
O8_2 O 0.7459(6) 0.5141(5) 0.8312(4)
O10_2 O 0.4040(6) 0.8815(5) 0.8332(4)
O23 O 0.8476(6) 0.9374(5) 0.9280(4)
O24 O 0.7083(7) 0.8839(5) 0.8114(4)
H37_2 H 0.797823 0.710407 0.98532
H38_2 H 0.641396 0.705478 0.949805
H41_2 H 0.64945 0.748296 0.852305
H42_2 H 0.499249 0.746162 0.809453
C21_2 C 0.8436(11) 0.6721(7) 0.1583(7)
H12_2 H 0.758379 0.662435 0.169929
C22_2 C 0.9530(11) 0.7120(7) 0.2217(7)
C25_2 C 0.9767(12) 0.6636(8) 0.0678(7)
H15_2 H 0.984901 0.650337 0.015064
C26_2 C 0.9392(10) 0.7383(7) 0.3072(6)
C27_2 C 0.8254(11) 0.7574(8) 0.3341(6)
H16_2 H 0.750386 0.753574 0.297588
C28_2 C 0.8171(11) 0.7823(8) 0.4134(7)
H17_2 H 0.736079 0.792667 0.429009
C29_2 C 0.9249(10) 0.7916(7) 0.4683(6)
C32_2 C 0.9122(12) 0.8219(8) 0.5532(7)
C34_2 C 0.9235(9) 0.8647(6) 0.7313(6)
H20_2 H 0.835388 0.850775 0.702031
C35_2 C 0.9471(9) 0.8981(7) 0.8154(6)
C40_2 C 0.8256(10) 0.9067(7) 0.8537(6)
O9_2 O 0.8116(9) 0.8480(6) 0.5728(5)
N5 N 0.0001(15) 0.9225(10) 0.2783(11)
N5_2 N 0.9999(15) 0.0775(10) 0.7217(11)
loop_
_geom_bond_atom_site_label_1
_geom_bond_atom_site_label_2
_geom_bond_site_symmetry_1
_geom_bond_site_symmetry_2
C21 H12 1_555 1_555
C22 C21 1_555 1_555
H15 C25 1_555 1_555
C26 C22 1_555 1_555
C27 C26 1_555 1_555
H16 C27 1_555 1_555
C28 C27 1_555 1_555
H17 C28 1_555 1_555
C29 C28 1_555 1_555
C32 C29 1_555 1_555
C34 H20 1_555 1_555
C35 C34 1_555 1_555
C40 C35 1_555 1_555
N3 C21 1_555 1_555
O9 C32 1_555 1_555
O12 C40 1_555 1_555
O13 C40 1_555 1_555
Sm7 O12 1_555 1_555
C25 N3 1_555 1_555
O13 Sm7 1_555 1_555
Sm4 O2 1_555 1_555
Sm7 O3 1_555 1_555
C1 H1 1_555 1_555
C2 C1 1_555 1_555
H2 C2 1_555 1_555
C3 C2 1_555 1_555
H3 C3 1_555 1_555
C4 C3 1_555 1_555
H5 C7 1_555 1_555
C8 C7 1_555 1_555
H6 C8 1_555 1_555
C14 H9 1_555 1_555
C15 C14 1_555 1_555
C20 C15 1_555 1_555
H13 C23 1_555 1_555
C24 C23 1_555 1_555
H14 C24 1_555 1_555
H18 C30 1_555 1_555
H19 C31 1_555 1_555
H21 C36 1_555 1_555
C37 C36 1_555 1_555
C38 C33 1_555 1_555
H22 C38 1_555 1_555
C39 C37 1_555 1_555
H35 N4 1_555 1_555
O7 Sm4 1_555 1_555
O8 Sm4 1_555 1_555
O10 Sm7 1_555 1_555
O11 Sm7 1_555 1_555
O19 Sm4 1_555 1_555
O20 Sm4 1_555 1_555
O25 Sm4 1_555 1_555
C20 O7 1_555 1_555
C20 O8 1_555 1_555
C30 C31 1_555 1_555
C33 N4 1_555 1_555
C37 C38 1_555 1_555
C39 O10 1_555 1_555
C39 O11 1_555 1_555
O2 H37 1_555 1_555
O2 H38 1_555 1_555
O3 H41 1_555 1_555
O3 H42 1_555 1_555
C47 C46 1_555 1_555
H27 C47 1_555 1_555
C48 C47 1_555 1_555
H28 C48 1_555 1_555
C49 C48 1_555 1_555
C50 C49 1_555 1_555
H29 C50 1_555 1_555
C52 C49 1_555 1_555
C53 C54 1_555 1_555
C54 H31 1_555 1_555
C55 C54 1_555 1_555
C56 C55 1_555 1_555
H32 C56 1_555 1_555
C57 C56 1_555 1_555
C58 C53 1_555 1_555
H33 C58 1_555 1_555
C59 C55 1_555 1_555
C60 C57 1_555 1_555
N6 C52 1_555 1_555
H36 N6 1_555 1_555
O14 C52 1_555 1_555
O15 C59 1_555 1_555
O18 C60 1_555 1_555
Sm6 O15 1_555 1_555
C53 N6 1_555 1_555
C57 C58 1_555 1_555
C59 O16 1_555 1_555
C60 O17 1_555 1_555
Sm6 O21 1_555 1_555
O6 H39 1_555 1_555
O6 H40 1_555 1_555
C41 H23 1_555 1_555
C42 C41 1_555 1_555
H24 C42 1_555 1_555
C43 C42 1_555 1_555
H25 C43 1_555 1_555
C44 C43 1_555 1_555
C45 C44 1_555 1_555
H26 C45 1_555 1_555
H30 C51 1_555 1_555
Sm8 O22 1_555 1_555
H4 C5 1_555 1_555
C10 C9 1_555 1_555
H7 C10 1_555 1_555
C11 C6 1_555 1_555
H8 C11 1_555 1_555
C12 C9 1_555 1_555
H10 C16 1_555 1_555
C17 C16 1_555 1_555
C18 C13 1_555 1_555
H11 C18 1_555 1_555
C19 C17 1_555 1_555
N2 C12 1_555 1_555
O1 C12 1_555 1_555
O19 C19 1_555 1_555
O20 C19 1_555 1_555
C5 N1 1_555 1_555
C10 C11 1_555 1_555
C13 N2 1_555 1_555
C17 C18 1_555 1_555
H4_2 C5_2 1_555 1_555
C10_2 C9_2 1_555 1_555
H7_2 C10_2 1_555 1_555
C11_2 C6_2 1_555 1_555
H8_2 C11_2 1_555 1_555
C12_2 C9_2 1_555 1_555
H10_2 C16_2 1_555 1_555
C17_2 C16_2 1_555 1_555
C18_2 C13_2 1_555 1_555
H11_2 C18_2 1_555 1_555
C19_2 C17_2 1_555 1_555
N2_2 C12_2 1_555 1_555
O1_2 C12_2 1_555 1_555
O4 C19_2 1_555 1_555
O21 C19_2 1_555 1_555
Sm6 O4 1_555 1_555
C5_2 N1_2 1_555 1_555
C10_2 C11_2 1_555 1_555
C13_2 N2_2 1_555 1_555
C17_2 C18_2 1_555 1_555
C41_2 H23_2 1_555 1_555
C42_2 C41_2 1_555 1_555
H24_2 C42_2 1_555 1_555
C43_2 C42_2 1_555 1_555
H25_2 C43_2 1_555 1_555
C44_2 C43_2 1_555 1_555
C45_2 C44_2 1_555 1_555
H26_2 C45_2 1_555 1_555
H30_2 C51_2 1_555 1_555
C47_2 C46_2 1_555 1_555
H27_2 C47_2 1_555 1_555
C48_2 C47_2 1_555 1_555
H28_2 C48_2 1_555 1_555
C49_2 C48_2 1_555 1_555
C50_2 C49_2 1_555 1_555
H29_2 C50_2 1_555 1_555
C52_2 C49_2 1_555 1_555
C53_2 C54_2 1_555 1_555
C54_2 H31_2 1_555 1_555
C55_2 C54_2 1_555 1_555
C56_2 C55_2 1_555 1_555
H32_2 C56_2 1_555 1_555
C57_2 C56_2 1_555 1_555
C58_2 C53_2 1_555 1_555
H33_2 C58_2 1_555 1_555
C59_2 C55_2 1_555 1_555
C60_2 C57_2 1_555 1_555
N6_2 C52_2 1_555 1_555
H36_2 N6_2 1_555 1_555
O14_2 C52_2 1_555 1_555
O25 C59_2 1_555 1_555
O26 C60_2 1_555 1_555
C53_2 N6_2 1_555 1_555
C57_2 C58_2 1_555 1_555
C59_2 O16_2 1_555 1_555
C60_2 O17_2 1_555 1_555
O6_2 H39_2 1_555 1_555
O6_2 H40_2 1_555 1_555
Sm6 O2_2 1_555 1_555
Sm8 O3_2 1_555 1_555
C1_2 H1_2 1_555 1_555
C2_2 C1_2 1_555 1_555
H2_2 C2_2 1_555 1_555
C3_2 C2_2 1_555 1_555
H3_2 C3_2 1_555 1_555
C4_2 C3_2 1_555 1_555
H5_2 C7_2 1_555 1_555
C8_2 C7_2 1_555 1_555
H6_2 C8_2 1_555 1_555
C14_2 H9_2 1_555 1_555
C15_2 C14_2 1_555 1_555
C20_2 C15_2 1_555 1_555
H13_2 C23_2 1_555 1_555
C24_2 C23_2 1_555 1_555
H14_2 C24_2 1_555 1_555
H18_2 C30_2 1_555 1_555
H19_2 C31_2 1_555 1_555
H21_2 C36_2 1_555 1_555
C37_2 C36_2 1_555 1_555
C38_2 C33_2 1_555 1_555
H22_2 C38_2 1_555 1_555
C39_2 C37_2 1_555 1_555
H35_2 N4_2 1_555 1_555
O7_2 Sm6 1_555 1_555
O8_2 Sm6 1_555 1_555
O10_2 Sm8 1_555 1_555
O23 Sm8 1_555 1_555
O24 Sm8 1_555 1_555
C20_2 O7_2 1_555 1_555
C20_2 O8_2 1_555 1_555
C30_2 C31_2 1_555 1_555
C33_2 N4_2 1_555 1_555
C37_2 C38_2 1_555 1_555
C39_2 O10_2 1_555 1_555
C39_2 O22 1_555 1_555
O2_2 H37_2 1_555 1_555
O2_2 H38_2 1_555 1_555
O3_2 H41_2 1_555 1_555
O3_2 H42_2 1_555 1_555
C21_2 H12_2 1_555 1_555
C22_2 C21_2 1_555 1_555
H15_2 C25_2 1_555 1_555
C26_2 C22_2 1_555 1_555
C27_2 C26_2 1_555 1_555
H16_2 C27_2 1_555 1_555
C28_2 C27_2 1_555 1_555
H17_2 C28_2 1_555 1_555
C29_2 C28_2 1_555 1_555
C32_2 C29_2 1_555 1_555
C34_2 H20_2 1_555 1_555
C35_2 C34_2 1_555 1_555
C40_2 C35_2 1_555 1_555
N7 C21_2 1_555 1_555
O9_2 C32_2 1_555 1_555
O23 C40_2 1_555 1_555
O24 C40_2 1_555 1_555
C25_2 N7 1_555 1_555

#END
