
###############################################################################
#
# This file contains modified crystal structure data generated from the
# MOF subset of the Cambridge Structural Database (CSD) v543 
# hosted by the Cambridge Crystallographic Data Centre (CCDC).
#
# This work is licensed under the Creative Commons
# Attribution-NonCommercial-ShareAlike 4.0 International License.
# To view a copy of this license, visit
# http://creativecommons.org/licenses/by-nc-sa/4.0/
# or send a letter to
# Creative Commons, PO Box 1866, Mountain View, CA 94042, USA.
#
# CIF created using the CSD Python API on 29 September 2022
# The structure has been converted into the P1 space group
# The structure has a 3D framework
# The original CSD entry CIWYUD is in the triclinic crystal system
# The framework has been calculated to contain at least 10.0% void space
# The void calculation uses a probe of radius 1.32A, grid spacing 0.4
# H atom positions have been added when not included in the experimental data
#
###############################################################################

data_CIWYUD
_chemical_formula_moiety         '(C28 H16 Co6 N4 O21)n'
_symmetry_cell_setting           triclinic
_symmetry_space_group_name_H-M   'P 1'
_symmetry_Int_Tables_number      1
_space_group_name_Hall           'P 1'
loop_
_symmetry_equiv_pos_site_id
_symmetry_equiv_pos_as_xyz
1 x,y,z
_cell_length_a                   11.1389(7)
_cell_length_b                   11.2652(7)
_cell_length_c                   11.4139(7)
_cell_angle_alpha                76.3800(10)
_cell_angle_beta                 66.3690(10)
_cell_angle_gamma                78.9640(10)
_cell_volume                     1267.65
loop_
_atom_site_label
_atom_site_type_symbol
_atom_site_fract_x
_atom_site_fract_y
_atom_site_fract_z
Co9 Co 0.49522(9) 0.35896(8) 0.00924(8)
O7 O 0.4575(5) 0.2576(4) 0.8949(4)
O8 O 0.5455(5) 0.3772(4) 0.7014(5)
N2 N 0.5987(6) 0.1995(5) 0.5726(6)
C8 C 0.6337(8) 0.1102(6) 0.5033(7)
H4 H 0.6758 0.1299 0.4115
C12 C 0.5127(7) 0.0528(6) 0.7655(7)
H6 H 0.4711 0.0351 0.8574
C13 C 0.5396(7) 0.1729(6) 0.7019(7)
C14 C 0.5105(7) 0.2760(6) 0.7736(7)
Co5 Co 0.52942(9) 0.57098(8) 0.71019(8)
Co6 Co 0.60624(9) 0.39083(8) 0.49959(8)
Co2 Co 0.39376(9) 0.60917(8) 0.50041(8)
O1 O 0.3405(5) 0.5949(5) 0.6988(5)
O2 O 0.1785(6) 0.5658(8) 0.8925(6)
O5 O 0.4710(6) 0.8079(5) 0.8788(5)
O6 O 0.5368(6) 0.7574(4) 0.6825(5)
O9 O 0.5817(4) 0.5751(4) 0.5117(4)
O10 O 0.4506(5) 0.5295(4) 0.9053(4)
N1 N 0.1841(6) 0.6259(5) 0.5725(5)
C1 C 0.2193(7) 0.5859(7) 0.7742(7)
C2 C 0.1266(7) 0.6053(7) 0.7031(7)
C6 C 0.1073(8) 0.6423(7) 0.5039(7)
H3 H 0.1466 0.6611 0.4119
C9 C 0.6109(8) 0.9892(6) 0.5600(7)
H5 H 0.6386 0.9271 0.5081
C10 C 0.5472(7) 0.9604(6) 0.6932(7)
C11 C 0.5146(7) 0.8301(6) 0.7576(7)
Co8 Co 0.50478(9) 0.64104(8) 0.99076(8)
O12 O 0.7232(5) 0.5468(5) 0.7041(5)
O16 O 0.4545(5) 0.6228(4) 0.2986(5)
O17 O 0.4183(4) 0.4249(4) 0.4883(4)
N3 N 0.4013(6) 0.8005(5) 0.4274(6)
O11 O 0.2998(6) 0.6740(6) 0.1194(6)
O14 O 0.5425(5) 0.7424(4) 0.1051(4)
O19 O 0.5494(5) 0.4705(4) 0.0947(4)
H7 H 0.25346 0.74141 0.0743716
H8 H 0.256239 0.598013 0.143115
O3 O 0.7070(5) 0.6394(5) 0.8652(5)
C3 C 0.9926(7) 0.5977(7) 0.7683(7)
H1 H 0.9551 0.5829 0.8605
C4 C 0.9137(7) 0.6123(7) 0.6953(7)
C5 C 0.9734(7) 0.6333(8) 0.5609(7)
H2 H 0.9229 0.6414 0.5087
C7 C 0.7687(7) 0.5993(6) 0.7611(7)
O3_2 O 0.2930(5) 0.3606(5) 0.1348(5)
O4 O 0.2768(5) 0.4532(5) 0.2959(5)
C3_2 C 0.0074(7) 0.4023(7) 0.2317(7)
H1_2 H 0.0449 0.4171 0.1395
C4_2 C 0.0863(7) 0.3877(7) 0.3047(7)
C5_2 C 0.0266(7) 0.3667(8) 0.4391(7)
H2_2 H 0.0771 0.3586 0.4913
C7_2 C 0.2313(7) 0.4007(6) 0.2389(7)
Co4 Co 0.47058(9) 0.42902(8) 0.28981(8)
O13 O 0.5290(6) 0.1921(5) 0.1212(5)
O11_2 O 0.7002(6) 0.3260(6) 0.8806(6)
H7_2 H 0.74654 0.25859 0.925628
H8_2 H 0.743761 0.401987 0.856885
O1_2 O 0.6595(5) 0.4051(5) 0.3012(5)
O2_2 O 0.8215(6) 0.4342(8) 0.1075(6)
O6_2 O 0.4632(6) 0.2426(4) 0.3175(5)
N1_2 N 0.8159(6) 0.3741(5) 0.4275(5)
C1_2 C 0.7807(7) 0.4141(7) 0.2258(7)
C2_2 C 0.8734(7) 0.3947(7) 0.2969(7)
C6_2 C 0.8927(8) 0.3577(7) 0.4961(7)
H3_2 H 0.8534 0.3389 0.5881
C9_2 C 0.3891(8) 0.0108(6) 0.4400(7)
H5_2 H 0.3614 0.0729 0.4919
C10_2 C 0.4528(7) 0.0396(6) 0.3068(7)
C11_2 C 0.4854(7) 0.1699(6) 0.2424(7)
C8_2 C 0.3663(8) 0.8898(6) 0.4967(7)
H4_2 H 0.3242 0.8701 0.5885
C12_2 C 0.4873(7) 0.9472(6) 0.2345(7)
H6_2 H 0.5289 0.9649 0.1426
C13_2 C 0.4604(7) 0.8271(6) 0.2981(7)
C14_2 C 0.4895(7) 0.7240(6) 0.2264(7)
loop_
_geom_bond_atom_site_label_1
_geom_bond_atom_site_label_2
_geom_bond_site_symmetry_1
_geom_bond_site_symmetry_2
O7 C14 1_555 1_555
O8 C14 1_555 1_555
N2 C8 1_555 1_555
C8 H4 1_555 1_555
H6 C12 1_555 1_555
C13 N2 1_555 1_555
C14 C13 1_555 1_555
Co5 O8 1_555 1_555
Co6 O8 1_555 1_555
N2 Co6 1_555 1_555
C12 C13 1_555 1_555
Co5 O1 1_555 1_555
Co2 O1 1_555 1_555
O1 C1 1_555 1_555
O2 C1 1_555 1_555
O5 C11 1_555 1_555
O6 Co5 1_555 1_555
O9 Co5 1_555 1_555
O10 Co5 1_555 1_555
N1 Co2 1_555 1_555
C1 C2 1_555 1_555
C2 N1 1_555 1_555
C6 N1 1_555 1_555
H3 C6 1_555 1_555
H5 C9 1_555 1_555
C10 C9 1_555 1_555
C11 O6 1_555 1_555
Co6 O9 1_555 1_555
Co8 O5 1_555 1_555
O12 Co5 1_555 1_555
O16 Co2 1_555 1_555
O17 Co2 1_555 1_555
N3 Co2 1_555 1_555
Co2 O9 1_555 1_555
O10 Co8 1_555 1_555
C10 C11 1_555 1_555
Co6 O17 1_555 1_555
O11 H7 1_555 1_555
O11 H8 1_555 1_555
Co8 O3 1_555 1_555
O3 C7 1_555 1_555
O12 C7 1_555 1_555
H1 C3 1_555 1_555
C4 C3 1_555 1_555
C5 C4 1_555 1_555
H2 C5 1_555 1_555
C7 C4 1_555 1_555
Co9 O3_2 1_555 1_555
O3_2 C7_2 1_555 1_555
O4 C7_2 1_555 1_555
H1_2 C3_2 1_555 1_555
C4_2 C3_2 1_555 1_555
C5_2 C4_2 1_555 1_555
H2_2 C5_2 1_555 1_555
C7_2 C4_2 1_555 1_555
Co4 O4 1_555 1_555
O13 Co9 1_555 1_555
O19 Co9 1_555 1_555
Co4 O19 1_555 1_555
O11_2 H7_2 1_555 1_555
O11_2 H8_2 1_555 1_555
Co4 O1_2 1_555 1_555
Co6 O1_2 1_555 1_555
O1_2 C1_2 1_555 1_555
O2_2 C1_2 1_555 1_555
O13 C11_2 1_555 1_555
O6_2 Co4 1_555 1_555
O17 Co4 1_555 1_555
N1_2 Co6 1_555 1_555
C1_2 C2_2 1_555 1_555
C2_2 N1_2 1_555 1_555
C6_2 N1_2 1_555 1_555
H3_2 C6_2 1_555 1_555
H5_2 C9_2 1_555 1_555
C10_2 C9_2 1_555 1_555
C11_2 O6_2 1_555 1_555
O16 Co4 1_555 1_555
C10_2 C11_2 1_555 1_555
O14 C14_2 1_555 1_555
O16 C14_2 1_555 1_555
N3 C8_2 1_555 1_555
C8_2 H4_2 1_555 1_555
H6_2 C12_2 1_555 1_555
C13_2 N3 1_555 1_555
C14_2 C13_2 1_555 1_555
C12_2 C13_2 1_555 1_555

#END
