
###############################################################################
#
# This file contains modified crystal structure data generated from the
# MOF subset of the Cambridge Structural Database (CSD) v543 
# hosted by the Cambridge Crystallographic Data Centre (CCDC).
#
# This work is licensed under the Creative Commons
# Attribution-NonCommercial-ShareAlike 4.0 International License.
# To view a copy of this license, visit
# http://creativecommons.org/licenses/by-nc-sa/4.0/
# or send a letter to
# Creative Commons, PO Box 1866, Mountain View, CA 94042, USA.
#
# CIF created using the CSD Python API on 29 September 2022
# The structure has been converted into the P1 space group
# The structure has a 3D framework
# The original CSD entry CIXDOF is in the monoclinic crystal system
# The framework has been calculated to contain at least 10.0% void space
# The void calculation uses a probe of radius 1.32A, grid spacing 0.4
#
###############################################################################

data_CIXDOF
_chemical_formula_moiety         '(C24 H16 Cd4 N40)n'
_symmetry_cell_setting           triclinic
_symmetry_space_group_name_H-M   'P 1'
_symmetry_Int_Tables_number      1
_space_group_name_Hall           'P 1'
loop_
_symmetry_equiv_pos_site_id
_symmetry_equiv_pos_as_xyz
1 x,y,z
_cell_length_a                   10.3417(7)
_cell_length_b                   8.3702(4)
_cell_length_c                   12.4475(5)
_cell_angle_alpha                90
_cell_angle_beta                 100.397(4)
_cell_angle_gamma                90
_cell_volume                     1059.79
loop_
_atom_site_label
_atom_site_type_symbol
_atom_site_fract_x
_atom_site_fract_y
_atom_site_fract_z
Cd4 Cd 0.00342(5) 0.43169(6) 0.70665(3)
Cd1 Cd 0.50342(5) 0.06831(6) 0.20665(3)
N1 N 0.6361(6) 0.2695(7) 0.1753(4)
N2 N 0.7649(7) 0.4102(8) 0.0832(4)
N3 N 0.8143(6) 0.4241(7) 0.1934(4)
N4 N 0.5691(6) 0.1879(7) 0.4020(4)
H1 H 0.5070 0.2595 0.4111
H2 H 0.5656 0.1084 0.4500
N5 N 0.6921(5) 0.2631(6) 0.4313(3)
N6 N 0.8714(6) 0.3962(7) 0.4188(4)
N7 N 0.8694(6) 0.3673(7) 0.5281(4)
N8 N 0.8129(6) 0.2564(7) 0.7291(4)
N9 N 0.6220(6) 0.1501(7) 0.6437(4)
N10 N 0.6341(7) 0.1232(7) 0.7545(4)
C1 C 0.6603(8) 0.3179(9) 0.0770(5)
H3 H 0.6079 0.2887 0.0112
C2 C 0.7348(7) 0.3395(8) 0.2438(4)
C3 C 0.7655(7) 0.3328(8) 0.3633(5)
C4 C 0.7614(7) 0.2890(8) 0.5321(5)
C5 C 0.7283(7) 0.2284(8) 0.6346(5)
C6 C 0.7465(8) 0.1866(10) 0.8005(5)
H4 H 0.7777 0.1836 0.8754
Cd2 Cd 0.99658(5) 0.56831(6) 0.29335(3)
N13 N 0.3694(6) 0.1327(7) 0.0281(4)
N14 N 0.3129(6) 0.2436(7) 0.2291(4)
Cd3 Cd 0.49658(5) 0.93169(6) 0.79335(3)
N11 N 0.6857(6) 0.9241(7) 0.3066(4)
N12 N 0.6286(6) 0.8962(7) 0.0812(4)
N15 N 0.3659(7) 0.8768(7) 0.2455(4)
N13_2 N 0.1306(6) 0.6327(7) 0.4719(4)
N14_2 N 0.1871(6) 0.7436(7) 0.2709(4)
N15_2 N 0.1341(7) 0.3768(7) 0.2545(4)
N1_2 N 0.8639(6) 0.7695(7) 0.3247(4)
N2_2 N 0.7351(7) 0.9102(8) 0.4168(4)
N4_2 N 0.9309(6) 0.6879(7) 0.0980(4)
H1_2 H 0.9930 0.7595 0.0889
H2_2 H 0.9344 0.6084 0.0500
N5_2 N 0.8079(5) 0.7631(6) 0.0687(3)
C1_2 C 0.8397(8) 0.8179(9) 0.4230(5)
H3_2 H 0.8921 0.7887 0.4888
C2_2 C 0.7652(7) 0.8395(8) 0.2562(4)
C3_2 C 0.7345(7) 0.8328(8) 0.1367(5)
N7_2 N 0.6306(6) 0.8673(7) 0.9719(4)
N8_2 N 0.6871(6) 0.7564(7) 0.7709(4)
N9_2 N 0.8780(6) 0.6501(7) 0.8563(4)
N10_2 N 0.8659(7) 0.6232(7) 0.7455(4)
C4_2 C 0.7386(7) 0.7890(8) 0.9679(5)
C5_2 C 0.7717(7) 0.7284(8) 0.8654(5)
C6_2 C 0.7535(8) 0.6866(10) 0.6995(5)
H4_2 H 0.7223 0.6836 0.6246
N11_2 N 0.3143(6) 0.0759(7) 0.6934(4)
N12_2 N 0.3714(6) 0.1038(7) 0.9188(4)
N1_3 N 0.3639(6) 0.7305(7) 0.8247(4)
N2_3 N 0.2351(7) 0.5898(8) 0.9168(4)
N3_2 N 0.1857(6) 0.5759(7) 0.8066(4)
N4_3 N 0.4309(6) 0.8121(7) 0.5980(4)
H1_3 H 0.4930 0.7405 0.5889
H2_3 H 0.4344 0.8916 0.5500
N5_3 N 0.3079(5) 0.7369(6) 0.5687(3)
N6_2 N 0.1286(6) 0.6038(7) 0.5812(4)
N9_3 N 0.3780(6) 0.8499(7) 0.3563(4)
C1_3 C 0.3397(8) 0.6821(9) 0.9230(5)
H3_3 H 0.3921 0.7113 0.9888
C2_3 C 0.2652(7) 0.6605(8) 0.7562(4)
C3_3 C 0.2345(7) 0.6672(8) 0.6367(5)
C4_3 C 0.2386(7) 0.7110(8) 0.4679(5)
C5_3 C 0.2717(7) 0.7716(8) 0.3654(5)
C6_3 C 0.2535(8) 0.8134(10) 0.1995(5)
H4_3 H 0.2223 0.8164 0.1246
N9_4 N 0.1220(6) 0.3499(7) 0.1437(4)
C4_4 C 0.2614(7) 0.2110(8) 0.0321(5)
C5_4 C 0.2283(7) 0.2716(8) 0.1346(5)
C6_4 C 0.2465(8) 0.3134(10) 0.3005(5)
H4_4 H 0.2777 0.3164 0.3754
N1_4 N 0.1361(6) 0.2305(7) 0.6753(4)
N2_4 N 0.2649(7) 0.0898(8) 0.5832(4)
N4_4 N 0.0691(6) 0.3121(7) 0.9020(4)
H1_4 H 0.0070 0.2405 0.9111
H2_4 H 0.0656 0.3916 0.9500
N5_4 N 0.1921(5) 0.2369(6) 0.9313(3)
C1_4 C 0.1603(8) 0.1821(9) 0.5770(5)
H3_4 H 0.1079 0.2113 0.5112
C2_4 C 0.2348(7) 0.1605(8) 0.7438(4)
C3_4 C 0.2655(7) 0.1672(8) 0.8633(5)
loop_
_geom_bond_atom_site_label_1
_geom_bond_atom_site_label_2
_geom_bond_site_symmetry_1
_geom_bond_site_symmetry_2
Cd1 N1 1_555 1_555
N1 C1 1_555 1_555
N2 N3 1_555 1_555
N3 C2 1_555 1_555
N4 Cd1 1_555 1_555
H1 N4 1_555 1_555
H2 N4 1_555 1_555
N5 N4 1_555 1_555
N6 N7 1_555 1_555
N7 C4 1_555 1_555
N8 C5 1_555 1_555
N9 N10 1_555 1_555
N10 C6 1_555 1_555
C1 N2 1_555 1_555
H3 C1 1_555 1_555
C2 N1 1_555 1_555
C3 N5 1_555 1_555
C4 N5 1_555 1_555
C5 N9 1_555 1_555
C6 N8 1_555 1_555
H4 C6 1_555 1_555
Cd2 N3 1_555 1_555
N13 Cd1 1_555 1_555
N14 Cd1 1_555 1_555
N6 C3 1_555 1_555
N6 Cd2 1_555 1_555
C2 C3 1_555 1_555
C4 C5 1_555 1_555
Cd2 N1_2 1_555 1_555
N1_2 C1_2 1_555 1_555
N2_2 N11 1_555 1_555
N11 C2_2 1_555 1_555
N4_2 Cd2 1_555 1_555
H1_2 N4_2 1_555 1_555
H2_2 N4_2 1_555 1_555
N5_2 N4_2 1_555 1_555
C1_2 N2_2 1_555 1_555
H3_2 C1_2 1_555 1_555
C2_2 N1_2 1_555 1_555
C3_2 N5_2 1_555 1_555
N12 C3_2 1_555 1_555
C2_2 C3_2 1_555 1_555
N7_2 C4_2 1_555 1_555
N8_2 C5_2 1_555 1_555
N9_2 N10_2 1_555 1_555
N10_2 C6_2 1_555 1_555
C5_2 N9_2 1_555 1_555
C6_2 N8_2 1_555 1_555
H4_2 C6_2 1_555 1_555
Cd3 N7_2 1_555 1_555
N8_2 Cd3 1_555 1_555
C4_2 C5_2 1_555 1_555
Cd3 N1_3 1_555 1_555
N1_3 C1_3 1_555 1_555
N2_3 N3_2 1_555 1_555
N3_2 C2_3 1_555 1_555
N4_3 Cd3 1_555 1_555
H1_3 N4_3 1_555 1_555
H2_3 N4_3 1_555 1_555
N5_3 N4_3 1_555 1_555
N6_2 N13_2 1_555 1_555
N13_2 C4_3 1_555 1_555
N14_2 C5_3 1_555 1_555
N9_3 N15 1_555 1_555
N15 C6_3 1_555 1_555
C1_3 N2_3 1_555 1_555
H3_3 C1_3 1_555 1_555
C2_3 N1_3 1_555 1_555
C3_3 N5_3 1_555 1_555
C4_3 N5_3 1_555 1_555
C5_3 N9_3 1_555 1_555
C6_3 N14_2 1_555 1_555
H4_3 C6_3 1_555 1_555
Cd4 N3_2 1_555 1_555
N6_2 C3_3 1_555 1_555
N6_2 Cd4 1_555 1_555
C2_3 C3_3 1_555 1_555
C4_3 C5_3 1_555 1_555
N13 C4_4 1_555 1_555
N14 C5_4 1_555 1_555
N9_4 N15_2 1_555 1_555
N15_2 C6_4 1_555 1_555
C5_4 N9_4 1_555 1_555
C6_4 N14 1_555 1_555
H4_4 C6_4 1_555 1_555
C4_4 C5_4 1_555 1_555
Cd4 N1_4 1_555 1_555
N1_4 C1_4 1_555 1_555
N2_4 N11_2 1_555 1_555
N11_2 C2_4 1_555 1_555
N4_4 Cd4 1_555 1_555
H1_4 N4_4 1_555 1_555
H2_4 N4_4 1_555 1_555
N5_4 N4_4 1_555 1_555
C1_4 N2_4 1_555 1_555
H3_4 C1_4 1_555 1_555
C2_4 N1_4 1_555 1_555
C3_4 N5_4 1_555 1_555
N12_2 C3_4 1_555 1_555
C2_4 C3_4 1_555 1_555

#END
