
###############################################################################
#
# This file contains modified crystal structure data generated from the
# MOF subset of the Cambridge Structural Database (CSD) v543 
# hosted by the Cambridge Crystallographic Data Centre (CCDC).
#
# This work is licensed under the Creative Commons
# Attribution-NonCommercial-ShareAlike 4.0 International License.
# To view a copy of this license, visit
# http://creativecommons.org/licenses/by-nc-sa/4.0/
# or send a letter to
# Creative Commons, PO Box 1866, Mountain View, CA 94042, USA.
#
# CIF created using the CSD Python API on 29 September 2022
# The structure has been converted into the P1 space group
# The structure has a 3D framework
# The original CSD entry COCDAC is in the monoclinic crystal system
# The framework has been calculated to contain at least 10.0% void space
# The void calculation uses a probe of radius 1.32A, grid spacing 0.4
# The framework is charged, counterions have been retained in the structure
#
###############################################################################

data_COCDAC
_chemical_formula_moiety         '(C104 H64 Cl4 Mn4 N26 O16 S16)n'
_symmetry_cell_setting           triclinic
_symmetry_space_group_name_H-M   'P 1'
_symmetry_Int_Tables_number      1
_space_group_name_Hall           'P 1'
loop_
_symmetry_equiv_pos_site_id
_symmetry_equiv_pos_as_xyz
1 x,y,z
_cell_length_a                   9.9658(8)
_cell_length_b                   12.4659(15)
_cell_length_c                   31.7175(18)
_cell_angle_alpha                90
_cell_angle_beta                 90.002(2)
_cell_angle_gamma                90
_cell_volume                     3940.35
loop_
_atom_site_label
_atom_site_type_symbol
_atom_site_fract_x
_atom_site_fract_y
_atom_site_fract_z
O4 O 0.1048(17) 0.0120(15) 0.3118(5)
Cl1 Cl 0.0432(4) 0.9600(3) 0.27965(11)
O3 O 0.1405(16) 0.9068(13) 0.2528(4)
O1 O 0.9687(11) 0.0273(9) 0.2531(3)
O2 O 0.9675(18) 0.893(2) 0.2987(5)
O1_2 O 0.0313(11) 0.5273(9) 0.2469(3)
O2_2 O 0.0325(18) 0.393(2) 0.2013(5)
Cl1_2 Cl 0.9568(4) 0.4600(3) 0.22035(11)
O3_2 O 0.8595(16) 0.4068(13) 0.2472(4)
O4_2 O 0.8952(17) 0.5120(15) 0.1882(5)
O2_3 O 0.0325(18) 0.107(2) 0.7013(5)
O1_3 O 0.0313(11) 0.9727(9) 0.7469(3)
Cl1_3 Cl 0.9568(4) 0.0400(3) 0.72035(11)
O3_3 O 0.8595(16) 0.0932(13) 0.7472(4)
O4_3 O 0.8952(17) 0.9880(15) 0.6882(5)
Cl1_4 Cl 0.0432(4) 0.5400(3) 0.77965(11)
O3_4 O 0.1405(16) 0.5932(13) 0.7528(4)
O4_4 O 0.1048(17) 0.4880(15) 0.8118(5)
O1_4 O 0.9687(11) 0.4727(9) 0.7531(3)
O2_4 O 0.9675(18) 0.607(2) 0.7987(5)
S1 S 0.1310(3) 0.3333(3) 0.43063(7)
S2 S 0.1329(3) 0.3643(3) 0.53095(7)
N1 N 0.3219(8) 0.2324(8) 0.2835(2)
N4 N 0.3243(8) 0.3116(7) 0.6833(2)
C1 C 0.0517(10) 0.3541(9) 0.5805(3)
C2 C 0.0466(11) 0.3014(10) 0.3831(3)
C7 C 0.1415(10) 0.3394(9) 0.6166(3)
C8 C 0.2250(10) 0.3055(10) 0.2792(3)
H1 H 0.2216 0.3446 0.2543
C11 C 0.1410(10) 0.2785(8) 0.3481(3)
C14 C 0.1324(10) 0.3261(10) 0.3087(3)
H4 H 0.0619 0.3725 0.3027
C15 C 0.3325(11) 0.1859(9) 0.3203(3)
H5 H 0.4029 0.1383 0.3248
C16 C 0.2437(11) 0.2048(10) 0.3523(3)
H6 H 0.2526 0.1672 0.3775
C17 C 0.1286(11) 0.3945(10) 0.6546(3)
H7 H 0.0565 0.4409 0.6583
C18 C 0.2185(11) 0.3822(10) 0.6864(3)
H8 H 0.2083 0.4224 0.7109
C23 C 0.3374(13) 0.2599(12) 0.6468(3)
H13 H 0.4109 0.2144 0.6440
C26 C 0.2529(12) 0.2676(13) 0.6133(3)
H16 H 0.2672 0.2275 0.5889
Mn2 Mn 0.48265(15) 0.20637(13) 0.23333(4)
Mn5 Mn 0.48265(15) 0.29363(13) 0.73333(4)
S3 S 0.8385(3) 0.3854(3) 0.53201(7)
S4 S 0.8366(3) 0.3560(3) 0.42951(8)
N2 N 0.6366(7) 0.2428(7) 0.2841(2)
N3 N 0.6428(7) 0.3289(7) 0.6836(2)
N5 N 0.5048(8) 0.4577(7) 0.2344(2)
C3 C 0.9836(11) 0.3542(11) 0.4597(3)
C4 C 0.9846(10) 0.3648(10) 0.5010(3)
C5 C 0.9179(12) 0.3659(10) 0.5811(3)
C6 C 0.8261(10) 0.3533(8) 0.6174(3)
N6 N 0.5182(10) 0.5355(8) 0.2544(3)
C9 C 0.7028(10) 0.3491(9) 0.3432(3)
H2 H 0.6857 0.4066 0.3611
C10 C 0.6157(9) 0.3241(9) 0.3114(3)
H3 H 0.5383 0.3652 0.3084
C12 C 0.8210(11) 0.2848(9) 0.3484(3)
N7 N 0.4880(10) 0.3764(8) 0.2150(2)
C13 C 0.9139(11) 0.3105(10) 0.3820(3)
C19 C 0.8425(11) 0.2092(10) 0.3188(3)
H9 H 0.9219 0.1700 0.3190
C20 C 0.6307(11) 0.4086(10) 0.6572(3)
H10 H 0.5607 0.4570 0.6609
C21 C 0.7213(12) 0.4248(11) 0.6225(3)
H11 H 0.7097 0.4819 0.6039
C22 C 0.7464(12) 0.1894(11) 0.2878(3)
H12 H 0.7626 0.1343 0.2687
C24 C 0.8344(12) 0.2720(10) 0.6453(3)
H14 H 0.9044 0.2231 0.6429
C25 C 0.7440(11) 0.2599(12) 0.6765(4)
H15 H 0.7520 0.2005 0.6940
Mn3 Mn 0.51735(15) 0.70637(13) 0.26667(4)
N9 N 0.6428(7) 0.1711(7) 0.1836(2)
N10 N 0.3243(8) 0.1884(7) 0.1833(2)
N11 N 0.4818(10) 0.0355(8) 0.2456(3)
S4_2 S 0.1634(3) 0.8560(3) 0.07049(8)
N2_2 N 0.3634(7) 0.7428(7) 0.2159(2)
N5_2 N 0.4952(8) 0.9577(7) 0.2656(2)
C3_2 C 0.0164(11) 0.8542(11) 0.0403(3)
C9_2 C 0.2972(10) 0.8491(9) 0.1568(3)
H2_2 H 0.3143 0.9066 0.1389
C10_2 C 0.3843(9) 0.8241(9) 0.1886(3)
H3_2 H 0.4617 0.8652 0.1916
C12_2 C 0.1790(11) 0.7848(9) 0.1516(3)
N7_2 N 0.5120(10) 0.8764(8) 0.2850(2)
C13_2 C 0.0861(11) 0.8105(10) 0.1180(3)
C19_2 C 0.1575(11) 0.7092(10) 0.1812(3)
H9_2 H 0.0781 0.6700 0.1810
C22_2 C 0.2536(12) 0.6894(11) 0.2122(3)
H12_2 H 0.2374 0.6343 0.2313
N8 N 0.6781(8) 0.7324(8) 0.2165(2)
N9_2 N 0.3572(7) 0.6711(7) 0.3164(2)
N10_2 N 0.6757(8) 0.6884(7) 0.3167(2)
S3_2 S 0.1615(3) 0.8854(3) 0.96799(7)
N3_2 N 0.3572(7) 0.8289(7) 0.8164(2)
C4_2 C 0.0154(10) 0.8648(10) 0.9990(3)
C5_2 C 0.0821(12) 0.8659(10) 0.9189(3)
C6_2 C 0.1739(10) 0.8533(8) 0.8826(3)
C20_2 C 0.3693(11) 0.9086(10) 0.8428(3)
H10_2 H 0.4393 0.9570 0.8391
C21_2 C 0.2787(12) 0.9248(11) 0.8775(3)
H11_2 H 0.2903 0.9819 0.8961
C24_2 C 0.1656(12) 0.7720(10) 0.8547(3)
H14_2 H 0.0956 0.7231 0.8571
C25_2 C 0.2560(11) 0.7599(12) 0.8235(4)
H15_2 H 0.2480 0.7005 0.8060
Mn4 Mn 0.51735(15) 0.79363(13) 0.76667(4)
S1_2 S 0.8690(3) 0.8333(3) 0.06937(7)
C2_2 C 0.9534(11) 0.8014(10) 0.1169(3)
C8_2 C 0.7750(10) 0.8055(10) 0.2208(3)
H1_2 H 0.7784 0.8446 0.2457
C11_2 C 0.8590(10) 0.7785(8) 0.1519(3)
C14_2 C 0.8676(10) 0.8261(10) 0.1913(3)
H4_2 H 0.9381 0.8725 0.1973
C15_2 C 0.6675(11) 0.6859(9) 0.1797(3)
H5_2 H 0.5971 0.6383 0.1752
C16_2 C 0.7563(11) 0.7048(10) 0.1477(3)
H6_2 H 0.7474 0.6672 0.1225
S2_2 S 0.8671(3) 0.8643(3) 0.96905(7)
N4_2 N 0.6757(8) 0.8116(7) 0.8167(2)
C1_2 C 0.9483(10) 0.8541(9) 0.9195(3)
C7_2 C 0.8585(10) 0.8394(9) 0.8834(3)
C17_2 C 0.8714(11) 0.8945(10) 0.8454(3)
H7_2 H 0.9435 0.9409 0.8417
C18_2 C 0.7815(11) 0.8822(10) 0.8136(3)
H8_2 H 0.7917 0.9224 0.7891
C23_2 C 0.6626(13) 0.7599(12) 0.8532(3)
H13_2 H 0.5891 0.7144 0.8560
C26_2 C 0.7471(12) 0.7676(13) 0.8867(3)
H16_2 H 0.7328 0.7275 0.9111
S3_3 S 0.1615(3) 0.6146(3) 0.46799(7)
S4_3 S 0.1634(3) 0.6440(3) 0.57049(8)
N2_3 N 0.3634(7) 0.7572(7) 0.7159(2)
N5_3 N 0.4952(8) 0.5423(7) 0.7656(2)
C3_3 C 0.0164(11) 0.6458(11) 0.5403(3)
C4_3 C 0.0154(10) 0.6352(10) 0.4990(3)
C5_3 C 0.0821(12) 0.6341(10) 0.4189(3)
C6_3 C 0.1739(10) 0.6467(8) 0.3826(3)
N6_2 N 0.4818(10) 0.4645(8) 0.7456(3)
C9_3 C 0.2972(10) 0.6509(9) 0.6568(3)
H2_3 H 0.3143 0.5934 0.6389
C10_3 C 0.3843(9) 0.6759(9) 0.6886(3)
H3_3 H 0.4617 0.6348 0.6916
C12_3 C 0.1790(11) 0.7152(9) 0.6516(3)
N7_3 N 0.5120(10) 0.6236(8) 0.7850(2)
C13_3 C 0.0861(11) 0.6895(10) 0.6180(3)
C19_3 C 0.1575(11) 0.7908(10) 0.6812(3)
H9_3 H 0.0781 0.8300 0.6810
C20_3 C 0.3693(11) 0.5914(10) 0.3428(3)
H10_3 H 0.4393 0.5430 0.3391
C21_3 C 0.2787(12) 0.5752(11) 0.3775(3)
H11_3 H 0.2903 0.5181 0.3961
C22_3 C 0.2536(12) 0.8106(11) 0.7122(3)
H12_3 H 0.2374 0.8657 0.7313
C24_3 C 0.1656(12) 0.7280(10) 0.3547(3)
H14_3 H 0.0956 0.7769 0.3571
C25_3 C 0.2560(11) 0.7401(12) 0.3235(4)
H15_3 H 0.2480 0.7995 0.3060
N8_2 N 0.6781(8) 0.7676(8) 0.7165(2)
N11_2 N 0.5182(10) 0.9645(8) 0.7544(3)
S1_3 S 0.8690(3) 0.6667(3) 0.56937(7)
S2_3 S 0.8671(3) 0.6357(3) 0.46905(7)
C1_3 C 0.9483(10) 0.6459(9) 0.4195(3)
C2_3 C 0.9534(11) 0.6986(10) 0.6169(3)
C7_3 C 0.8585(10) 0.6606(9) 0.3834(3)
C8_3 C 0.7750(10) 0.6945(10) 0.7208(3)
H1_3 H 0.7784 0.6554 0.7457
C11_3 C 0.8590(10) 0.7215(8) 0.6519(3)
C14_3 C 0.8676(10) 0.6739(10) 0.6913(3)
H4_3 H 0.9381 0.6275 0.6973
C15_3 C 0.6675(11) 0.8141(9) 0.6797(3)
H5_3 H 0.5971 0.8617 0.6752
C16_3 C 0.7563(11) 0.7952(10) 0.6477(3)
H6_3 H 0.7474 0.8328 0.6225
C17_3 C 0.8714(11) 0.6055(10) 0.3454(3)
H7_3 H 0.9435 0.5591 0.3417
C18_3 C 0.7815(11) 0.6178(10) 0.3136(3)
H8_3 H 0.7917 0.5776 0.2891
C23_3 C 0.6626(13) 0.7401(12) 0.3532(3)
H13_3 H 0.5891 0.7856 0.3560
C26_3 C 0.7471(12) 0.7324(13) 0.3867(3)
H16_3 H 0.7328 0.7725 0.4111
S2_4 S 0.1329(3) 0.1357(3) 0.03095(7)
C1_4 C 0.0517(10) 0.1459(9) 0.0805(3)
C7_4 C 0.1415(10) 0.1606(9) 0.1166(3)
C17_4 C 0.1286(11) 0.1055(10) 0.1546(3)
H7_4 H 0.0565 0.0591 0.1583
C18_4 C 0.2185(11) 0.1178(10) 0.1864(3)
H8_4 H 0.2083 0.0776 0.2109
C23_4 C 0.3374(13) 0.2401(12) 0.1468(3)
H13_4 H 0.4109 0.2856 0.1440
C26_4 C 0.2529(12) 0.2324(13) 0.1133(3)
H16_4 H 0.2672 0.2725 0.0889
S1_4 S 0.1310(3) 0.1667(3) 0.93063(7)
N1_2 N 0.3219(8) 0.2676(8) 0.7835(2)
C2_4 C 0.0466(11) 0.1986(10) 0.8831(3)
C8_4 C 0.2250(10) 0.1945(10) 0.7792(3)
H1_4 H 0.2216 0.1554 0.7543
C11_4 C 0.1410(10) 0.2215(8) 0.8481(3)
C14_4 C 0.1324(10) 0.1739(10) 0.8087(3)
H4_4 H 0.0619 0.1275 0.8027
C15_4 C 0.3325(11) 0.3141(9) 0.8203(3)
H5_4 H 0.4029 0.3617 0.8248
C16_4 C 0.2437(11) 0.2952(10) 0.8523(3)
H6_4 H 0.2526 0.3328 0.8775
S3_4 S 0.8385(3) 0.1146(3) 0.03201(7)
C4_4 C 0.9846(10) 0.1352(10) 0.0010(3)
C5_4 C 0.9179(12) 0.1341(10) 0.0811(3)
C6_4 C 0.8261(10) 0.1467(8) 0.1174(3)
C20_4 C 0.6307(11) 0.0914(10) 0.1572(3)
H10_4 H 0.5607 0.0430 0.1609
C21_4 C 0.7213(12) 0.0752(11) 0.1225(3)
H11_4 H 0.7097 0.0181 0.1039
C24_4 C 0.8344(12) 0.2280(10) 0.1453(3)
H14_4 H 0.9044 0.2769 0.1429
C25_4 C 0.7440(11) 0.2401(12) 0.1765(4)
H15_4 H 0.7520 0.2995 0.1940
S4_4 S 0.8366(3) 0.1440(3) 0.92951(8)
N2_4 N 0.6366(7) 0.2572(7) 0.7841(2)
N5_4 N 0.5048(8) 0.0423(7) 0.7344(2)
C3_4 C 0.9836(11) 0.1458(11) 0.9597(3)
C9_4 C 0.7028(10) 0.1509(9) 0.8432(3)
H2_4 H 0.6857 0.0934 0.8611
C10_4 C 0.6157(9) 0.1759(9) 0.8114(3)
H3_4 H 0.5383 0.1348 0.8084
C12_4 C 0.8210(11) 0.2152(9) 0.8484(3)
N7_4 N 0.4880(10) 0.1236(8) 0.7150(2)
C13_4 C 0.9139(11) 0.1895(10) 0.8820(3)
C19_4 C 0.8425(11) 0.2908(10) 0.8188(3)
H9_4 H 0.9219 0.3300 0.8190
C22_4 C 0.7464(12) 0.3106(11) 0.7878(3)
H12_4 H 0.7626 0.3657 0.7687
loop_
_geom_bond_atom_site_label_1
_geom_bond_atom_site_label_2
_geom_bond_site_symmetry_1
_geom_bond_site_symmetry_2
O3 Cl1 1_555 1_555
O3_2 Cl1_2 1_555 1_555
O4_2 Cl1_2 1_555 1_555
O3_3 Cl1_3 1_555 1_555
O3_4 Cl1_4 1_555 1_555
O4_4 Cl1_4 1_555 1_555
S1 C2 1_555 1_555
S2 C1 1_555 1_555
N1 C8 1_555 1_555
N4 C18 1_555 1_555
C2 C11 1_555 1_555
C7 C1 1_555 1_555
C8 H1 1_555 1_555
C11 C14 1_555 1_555
C14 C8 1_555 1_555
H4 C14 1_555 1_555
C15 N1 1_555 1_555
H5 C15 1_555 1_555
C16 C11 1_555 1_555
H6 C16 1_555 1_555
C17 C7 1_555 1_555
H7 C17 1_555 1_555
C18 C17 1_555 1_555
H8 C18 1_555 1_555
C23 N4 1_555 1_555
H13 C23 1_555 1_555
C26 C7 1_555 1_555
H16 C26 1_555 1_555
Mn2 N1 1_555 1_555
Mn5 N4 1_555 1_555
C15 C16 1_555 1_555
C23 C26 1_555 1_555
Mn2 N2 1_555 1_555
S3 C4 1_555 1_555
S4 C3 1_555 1_555
N2 C10 1_555 1_555
N3 C20 1_555 1_555
N5 N6 1_555 1_555
C5 S3 1_555 1_555
C6 C5 1_555 1_555
N6 Mn3 1_555 1_555
C9 H2 1_555 1_555
C10 C9 1_555 1_555
H3 C10 1_555 1_555
C12 C9 1_555 1_555
N7 Mn2 1_555 1_555
C13 S4 1_555 1_555
C19 C12 1_555 1_555
H9 C19 1_555 1_555
C20 H10 1_555 1_555
C21 C6 1_555 1_555
H11 C21 1_555 1_555
C22 N2 1_555 1_555
H12 C22 1_555 1_555
C24 C6 1_555 1_555
H14 C24 1_555 1_555
C25 N3 1_555 1_555
H15 C25 1_555 1_555
Mn5 N3 1_555 1_555
N9 Mn2 1_555 1_555
N10 Mn2 1_555 1_555
N11 Mn2 1_555 1_555
N5 N7 1_555 1_555
C3 C4 1_555 1_555
C12 C13 1_555 1_555
C19 C22 1_555 1_555
C20 C21 1_555 1_555
C24 C25 1_555 1_555
Mn3 N2_2 1_555 1_555
S4_2 C3_2 1_555 1_555
N2_2 C10_2 1_555 1_555
C9_2 H2_2 1_555 1_555
C10_2 C9_2 1_555 1_555
H3_2 C10_2 1_555 1_555
C12_2 C9_2 1_555 1_555
N7_2 Mn3 1_555 1_555
C13_2 S4_2 1_555 1_555
C19_2 C12_2 1_555 1_555
H9_2 C19_2 1_555 1_555
C22_2 N2_2 1_555 1_555
H12_2 C22_2 1_555 1_555
N8 Mn3 1_555 1_555
N9_2 Mn3 1_555 1_555
N10_2 Mn3 1_555 1_555
N5_2 N7_2 1_555 1_555
C12_2 C13_2 1_555 1_555
C19_2 C22_2 1_555 1_555
S3_2 C4_2 1_555 1_555
N3_2 C20_2 1_555 1_555
C5_2 S3_2 1_555 1_555
C6_2 C5_2 1_555 1_555
C20_2 H10_2 1_555 1_555
C21_2 C6_2 1_555 1_555
H11_2 C21_2 1_555 1_555
C24_2 C6_2 1_555 1_555
H14_2 C24_2 1_555 1_555
C25_2 N3_2 1_555 1_555
H15_2 C25_2 1_555 1_555
Mn4 N3_2 1_555 1_555
C20_2 C21_2 1_555 1_555
C24_2 C25_2 1_555 1_555
S1_2 C2_2 1_555 1_555
N8 C8_2 1_555 1_555
C2_2 C11_2 1_555 1_555
C8_2 H1_2 1_555 1_555
C11_2 C14_2 1_555 1_555
C14_2 C8_2 1_555 1_555
H4_2 C14_2 1_555 1_555
C15_2 N8 1_555 1_555
H5_2 C15_2 1_555 1_555
C16_2 C11_2 1_555 1_555
H6_2 C16_2 1_555 1_555
C15_2 C16_2 1_555 1_555
S2_2 C1_2 1_555 1_555
N4_2 C18_2 1_555 1_555
C7_2 C1_2 1_555 1_555
C17_2 C7_2 1_555 1_555
H7_2 C17_2 1_555 1_555
C18_2 C17_2 1_555 1_555
H8_2 C18_2 1_555 1_555
C23_2 N4_2 1_555 1_555
H13_2 C23_2 1_555 1_555
C26_2 C7_2 1_555 1_555
H16_2 C26_2 1_555 1_555
Mn4 N4_2 1_555 1_555
C23_2 C26_2 1_555 1_555
Mn4 N2_3 1_555 1_555
S3_3 C4_3 1_555 1_555
S4_3 C3_3 1_555 1_555
N2_3 C10_3 1_555 1_555
N9_2 C20_3 1_555 1_555
N5_3 N6_2 1_555 1_555
C5_3 S3_3 1_555 1_555
C6_3 C5_3 1_555 1_555
N6_2 Mn5 1_555 1_555
C9_3 H2_3 1_555 1_555
C10_3 C9_3 1_555 1_555
H3_3 C10_3 1_555 1_555
C12_3 C9_3 1_555 1_555
N7_3 Mn4 1_555 1_555
C13_3 S4_3 1_555 1_555
C19_3 C12_3 1_555 1_555
H9_3 C19_3 1_555 1_555
C20_3 H10_3 1_555 1_555
C21_3 C6_3 1_555 1_555
H11_3 C21_3 1_555 1_555
C22_3 N2_3 1_555 1_555
H12_3 C22_3 1_555 1_555
C24_3 C6_3 1_555 1_555
H14_3 C24_3 1_555 1_555
C25_3 N9_2 1_555 1_555
H15_3 C25_3 1_555 1_555
N8_2 Mn4 1_555 1_555
N11_2 Mn4 1_555 1_555
N5_3 N7_3 1_555 1_555
C3_3 C4_3 1_555 1_555
C12_3 C13_3 1_555 1_555
C19_3 C22_3 1_555 1_555
C20_3 C21_3 1_555 1_555
C24_3 C25_3 1_555 1_555
S1_3 C2_3 1_555 1_555
S2_3 C1_3 1_555 1_555
N8_2 C8_3 1_555 1_555
N10_2 C18_3 1_555 1_555
C2_3 C11_3 1_555 1_555
C7_3 C1_3 1_555 1_555
C8_3 H1_3 1_555 1_555
C11_3 C14_3 1_555 1_555
C14_3 C8_3 1_555 1_555
H4_3 C14_3 1_555 1_555
C15_3 N8_2 1_555 1_555
H5_3 C15_3 1_555 1_555
C16_3 C11_3 1_555 1_555
H6_3 C16_3 1_555 1_555
C17_3 C7_3 1_555 1_555
H7_3 C17_3 1_555 1_555
C18_3 C17_3 1_555 1_555
H8_3 C18_3 1_555 1_555
C23_3 N10_2 1_555 1_555
H13_3 C23_3 1_555 1_555
C26_3 C7_3 1_555 1_555
H16_3 C26_3 1_555 1_555
C15_3 C16_3 1_555 1_555
C23_3 C26_3 1_555 1_555
S2_4 C1_4 1_555 1_555
N10 C18_4 1_555 1_555
C7_4 C1_4 1_555 1_555
C17_4 C7_4 1_555 1_555
H7_4 C17_4 1_555 1_555
C18_4 C17_4 1_555 1_555
H8_4 C18_4 1_555 1_555
C23_4 N10 1_555 1_555
H13_4 C23_4 1_555 1_555
C26_4 C7_4 1_555 1_555
H16_4 C26_4 1_555 1_555
C23_4 C26_4 1_555 1_555
S1_4 C2_4 1_555 1_555
N1_2 C8_4 1_555 1_555
C2_4 C11_4 1_555 1_555
C8_4 H1_4 1_555 1_555
C11_4 C14_4 1_555 1_555
C14_4 C8_4 1_555 1_555
H4_4 C14_4 1_555 1_555
C15_4 N1_2 1_555 1_555
H5_4 C15_4 1_555 1_555
C16_4 C11_4 1_555 1_555
H6_4 C16_4 1_555 1_555
Mn5 N1_2 1_555 1_555
C15_4 C16_4 1_555 1_555
S3_4 C4_4 1_555 1_555
N9 C20_4 1_555 1_555
C5_4 S3_4 1_555 1_555
C6_4 C5_4 1_555 1_555
C20_4 H10_4 1_555 1_555
C21_4 C6_4 1_555 1_555
H11_4 C21_4 1_555 1_555
C24_4 C6_4 1_555 1_555
H14_4 C24_4 1_555 1_555
C25_4 N9 1_555 1_555
H15_4 C25_4 1_555 1_555
C20_4 C21_4 1_555 1_555
C24_4 C25_4 1_555 1_555
Mn5 N2_4 1_555 1_555
S4_4 C3_4 1_555 1_555
N2_4 C10_4 1_555 1_555
C9_4 H2_4 1_555 1_555
C10_4 C9_4 1_555 1_555
H3_4 C10_4 1_555 1_555
C12_4 C9_4 1_555 1_555
N7_4 Mn5 1_555 1_555
C13_4 S4_4 1_555 1_555
C19_4 C12_4 1_555 1_555
H9_4 C19_4 1_555 1_555
C22_4 N2_4 1_555 1_555
H12_4 C22_4 1_555 1_555
N5_4 N7_4 1_555 1_555
C12_4 C13_4 1_555 1_555
C19_4 C22_4 1_555 1_555

#END
