
###############################################################################
#
# This file contains modified crystal structure data generated from the
# MOF subset of the Cambridge Structural Database (CSD) v543 
# hosted by the Cambridge Crystallographic Data Centre (CCDC).
#
# This work is licensed under the Creative Commons
# Attribution-NonCommercial-ShareAlike 4.0 International License.
# To view a copy of this license, visit
# http://creativecommons.org/licenses/by-nc-sa/4.0/
# or send a letter to
# Creative Commons, PO Box 1866, Mountain View, CA 94042, USA.
#
# CIF created using the CSD Python API on 29 September 2022
# The structure has been converted into the P1 space group
# The structure has a 3D framework
# The original CSD entry CODPOD is in the rhombohedral crystal system
# The framework has been calculated to contain at least 10.0% void space
# The void calculation uses a probe of radius 1.32A, grid spacing 0.4
#
###############################################################################

data_CODPOD
_chemical_formula_moiety         '(C72 H18 Co4 O50)n'
_symmetry_cell_setting           triclinic
_symmetry_space_group_name_H-M   'P 1'
_symmetry_Int_Tables_number      1
_space_group_name_Hall           'P 1'
loop_
_symmetry_equiv_pos_site_id
_symmetry_equiv_pos_as_xyz
1 x,y,z
_cell_length_a                   25.8707(11)
_cell_length_b                   25.8707
_cell_length_c                   6.7938(6)
_cell_angle_alpha                90
_cell_angle_beta                 90
_cell_angle_gamma                120
_cell_volume                     3937.86
loop_
_atom_site_label
_atom_site_type_symbol
_atom_site_fract_x
_atom_site_fract_y
_atom_site_fract_z
O9 O 0.6460(6) 0.0218(1) 0.01122
Co5 Co 0.6668(11) 0.0352(8) 0.4770(6)
O11 O 0.7091(6) 0.0206(6) 0.67788
C1 C 0.6580(4) 0.8762(8) 0.099
C3 C 0.6377(9) 0.8658(5) 0.2962(4)
C4 C 0.6270(1) 0.9073(6) 0.4089(2)
O1 O 0.6695 0.9211(4) 0.00443
O2 O 0.6449(1) 0.9576(6) 0.34455
O3 O 0.6152(9) 0.8991(2) 0.60508
C5 C 0.6314(9) 0.8158 0.39668
H2 H 0.6218(7) 0.8109(4) 0.55172
C6 C 0.6580(4) 0.7818(9) 0.099
C7 C 0.6377(9) 0.7719(10) 0.2962(4)
C8 C 0.6270(1) 0.7197(6) 0.4089(2)
O4 O 0.6695 0.7484(4) 0.00443
O5 O 0.6449(1) 0.6873(6) 0.34455
O6 O 0.6152(9) 0.7161(9) 0.60508
O10 O 0.6460(6) 0.6243(6) 0.01122
Co3 Co 0.6315(8) 0.9650(8) 0.8103(6)
Co4 Co 0.6315(8) 0.6665(11) 0.8103(6)
Co6 Co 0.6668(11) 0.6317(8) 0.4770(6)
Co7 Co 0.7017(8) 0.9998(11) 0.1436(6)
Co8 Co 0.7017(8) 0.7018(8) 0.1436(6)
C2 C 0.6588(8) 0.8294(9) 0.9995(2)
H1 H 0.6670(2) 0.8335(2) 0.8408(1)
O7 O 0.5849(4) 0.9972 0.67110
O8 O 0.5849(4) 0.5878(4) 0.67110
O12 O 0.7091(6) 0.6884(1) 0.67788
O10_2 O 0.3757(6) 0.0218(8) 0.01122
Co6_2 Co 0.3683(8) 0.0352(14) 0.4770(6)
O12_2 O 0.3116(1) 0.0206(6) 0.67788
C1_2 C 0.1238(8) 0.7818(9) 0.099
C3_2 C 0.1342(5) 0.7719(10) 0.2962(4)
C4_2 C 0.0927(6) 0.7197(6) 0.4089(2)
O1_2 O 0.0789(4) 0.7484(4) 0.00443
O2_2 O 0.0424(6) 0.6873(6) 0.34455
O3_2 O 0.1009(2) 0.7161(9) 0.60508
C5_2 C 0.1842 0.8156(9) 0.39668
H2_2 H 0.1891(4) 0.8109(8) 0.55172
C6_2 C 0.2182(9) 0.8762(10) 0.099
C7_2 C 0.2281(10) 0.8658(13) 0.2962(4)
C8_2 C 0.2803(6) 0.9073(6) 0.4089(2)
O4_2 O 0.2516(4) 0.9211(4) 0.00443
O5_2 O 0.3127(6) 0.9576(6) 0.34455
O6_2 O 0.2839(9) 0.8991(13) 0.60508
Co3_2 Co 0.0350(8) 0.6665(11) 0.8103(6)
Co4_2 Co 0.3335(11) 0.9650(14) 0.8103(6)
Co7_2 Co 0.0002(11) 0.7018(14) 0.1436(6)
Co8_2 Co 0.2982(8) 0.9998(11) 0.1436(6)
C2_2 C 0.1706(9) 0.8294(12) 0.9995(2)
H1_2 H 0.1665(2) 0.8335(3) 0.8408(1)
O7_2 O 0.0028 0.5878(4) 0.67110
O8_2 O 0.4122(4) 0.9972(6) 0.67110
O9_2 O 0.9782(1) 0.6243(6) 0.01122
Co5_2 Co 0.9648(8) 0.6317(14) 0.4770(6)
O11_2 O 0.9794(6) 0.6884(8) 0.67788
C1_3 C 0.2182(9) 0.3420(4) 0.099
C3_3 C 0.2281(10) 0.3623(9) 0.2962(4)
C4_3 C 0.2803(6) 0.3730(1) 0.4089(2)
O1_3 O 0.2516(4) 0.3305 0.00443
O2_3 O 0.3127(6) 0.3551(1) 0.34455
O3_3 O 0.2839(9) 0.3848(9) 0.60508
C5_3 C 0.1844(9) 0.3686(9) 0.39668
H2_3 H 0.1891(8) 0.3782(7) 0.55172
C6_3 C 0.1238(10) 0.3420(4) 0.099
C7_3 C 0.1342(13) 0.3623(9) 0.2962(4)
C8_3 C 0.0927(6) 0.3730(1) 0.4089(2)
O4_3 O 0.0789(4) 0.3305 0.00443
O5_3 O 0.0424(6) 0.3551(1) 0.34455
O6_3 O 0.1009(13) 0.3848(9) 0.60508
O9_3 O 0.3757(6) 0.3540(6) 0.01122
Co3_3 Co 0.3335(11) 0.3685(8) 0.8103(6)
Co4_3 Co 0.0350(14) 0.3685(8) 0.8103(6)
Co5_3 Co 0.3683(14) 0.3332(11) 0.4770(6)
Co7_3 Co 0.2982(14) 0.2983(8) 0.1436(6)
Co8_3 Co 0.0002(11) 0.2983(8) 0.1436(6)
C2_3 C 0.1706(12) 0.3412(8) 0.9995(2)
H1_3 H 0.1665(3) 0.3330(2) 0.8408(1)
O7_3 O 0.4122(4) 0.4151(4) 0.67110
O8_3 O 0.0028(6) 0.4151(4) 0.67110
O11_3 O 0.3116(8) 0.2909(6) 0.67788
O10_3 O 0.9782(8) 0.3540(6) 0.01122
Co6_3 Co 0.9648(14) 0.3332(11) 0.4770(6)
O12_3 O 0.9794(6) 0.2909(6) 0.67788
H1_4 H 0.0003(2) 0.5002(2) 0.5075(1)
C4_4 C 0.9603(1) 0.5740(6) 0.0756(2)
O3_4 O 0.9485(9) 0.5658(2) 0.27175
C5_4 C 0.9647(9) 0.4825 0.06335
H2_4 H 0.9551(7) 0.4776(4) 0.21839
C8_4 C 0.9603(1) 0.3864(6) 0.0756(2)
O6_4 O 0.9485(9) 0.3828(9) 0.27175
C1_4 C 0.9913(4) 0.5429(8) 0.765667
C2_4 C 0.9921(8) 0.4961(9) 0.6662(2)
C3_4 C 0.9710(9) 0.5325(5) 0.9629(4)
C6_4 C 0.9913(4) 0.4485(9) 0.765667
C7_4 C 0.9710(9) 0.4386(10) 0.9629(4)
O7_4 O 0.9183(4) 0.6638 0.33776
O8_4 O 0.9183(4) 0.2544(4) 0.33776
C4_5 C 0.4260(6) 0.3864(6) 0.0756(2)
O3_5 O 0.4342(2) 0.3828(9) 0.27175
C5_5 C 0.5175 0.4823(9) 0.06335
H2_5 H 0.5224(4) 0.4776(8) 0.21839
C8_5 C 0.6136(6) 0.5740(6) 0.0756(2)
O6_5 O 0.6172(9) 0.5658(13) 0.27175
C1_5 C 0.4571(8) 0.4485(9) 0.765667
C2_5 C 0.5039(9) 0.4961(12) 0.6662(2)
C3_5 C 0.4675(5) 0.4386(10) 0.9629(4)
H1_5 H 0.4998(2) 0.5002(3) 0.5075(1)
C6_5 C 0.5515(9) 0.5429(10) 0.765667
C7_5 C 0.5614(10) 0.5325(13) 0.9629(4)
O7_5 O 0.3362 0.2544(4) 0.33776
O8_5 O 0.7456(4) 0.6638(6) 0.33776
C4_6 C 0.6136(6) 0.0397(1) 0.0756(2)
O3_6 O 0.6172(9) 0.0515(9) 0.27175
C5_6 C 0.5177(9) 0.0353(9) 0.06335
H2_6 H 0.5224(8) 0.0449(7) 0.21839
C8_6 C 0.4260(6) 0.0397(1) 0.0756(2)
O6_6 O 0.4342(13) 0.0515(9) 0.27175
C1_6 C 0.5515(9) 0.0087(4) 0.765667
C2_6 C 0.5039(12) 0.0079(8) 0.6662(2)
C3_6 C 0.5614(10) 0.0290(9) 0.9629(4)
C6_6 C 0.4571(10) 0.0087(4) 0.765667
C7_6 C 0.4675(13) 0.0290(9) 0.9629(4)
O7_6 O 0.7456(4) 0.0817(4) 0.33776
O8_6 O 0.3362(6) 0.0817(4) 0.33776
H1_6 H 0.4998(3) 0.9997(2) 0.5075(1)
C1_7 C 0.3247(4) 0.2095(8) 0.432333
C2_7 C 0.3255(8) 0.1627(9) 0.3328(2)
C3_7 C 0.3044(9) 0.1991(5) 0.6295(4)
C4_7 C 0.2937(1) 0.2406(6) 0.7422(2)
H1_7 H 0.3337(2) 0.1668(2) 0.1741(1)
O3_7 O 0.2819(9) 0.2324(2) 0.93841
C5_7 C 0.2981(9) 0.1491 0.73001
H2_7 H 0.2885(7) 0.1442(4) 0.88505
C6_7 C 0.3247(4) 0.1151(9) 0.432333
C7_7 C 0.3044(9) 0.1052(10) 0.6295(4)
C8_7 C 0.2937(1) 0.0530(6) 0.7422(2)
O6_7 O 0.2819(9) 0.0494(9) 0.93841
C1_8 C 0.7905(8) 0.1151(9) 0.432333
C2_8 C 0.8373(9) 0.1627(12) 0.3328(2)
C3_8 C 0.8009(5) 0.1052(10) 0.6295(4)
C4_8 C 0.7594(6) 0.0530(6) 0.7422(2)
H1_8 H 0.8332(2) 0.1668(3) 0.1741(1)
O3_8 O 0.7676(2) 0.0494(9) 0.93841
C5_8 C 0.8509 0.1489(9) 0.73001
H2_8 H 0.8558(4) 0.1442(8) 0.88505
C6_8 C 0.8849(9) 0.2095(10) 0.432333
C7_8 C 0.8948(10) 0.1991(13) 0.6295(4)
C8_8 C 0.9470(6) 0.2406(6) 0.7422(2)
O6_8 O 0.9506(9) 0.2324(13) 0.93841
C1_9 C 0.8849(9) 0.6753(4) 0.432333
C2_9 C 0.8373(12) 0.6745(8) 0.3328(2)
C3_9 C 0.8948(10) 0.6956(9) 0.6295(4)
C4_9 C 0.9470(6) 0.7063(1) 0.7422(2)
H1_9 H 0.8332(3) 0.6663(2) 0.1741(1)
O3_9 O 0.9506(9) 0.7181(9) 0.93841
C5_9 C 0.8511(9) 0.7019(9) 0.73001
H2_9 H 0.8558(8) 0.7115(7) 0.88505
C6_9 C 0.7905(10) 0.6753(4) 0.432333
C7_9 C 0.8009(13) 0.6956(9) 0.6295(4)
C8_9 C 0.7594(6) 0.7063(1) 0.7422(2)
O6_9 O 0.7676(13) 0.7181(9) 0.93841
loop_
_geom_bond_atom_site_label_1
_geom_bond_atom_site_label_2
_geom_bond_site_symmetry_1
_geom_bond_site_symmetry_2
C3 C1 1_555 1_555
C4 C3 1_555 1_555
O1 C1 1_555 1_555
O2 C4 1_555 1_555
O3 C4 1_555 1_555
C5 C3 1_555 1_555
H2 C5 1_555 1_555
C7 C5 1_555 1_555
C8 C7 1_555 1_555
O4 C6 1_555 1_555
O5 C8 1_555 1_555
O6 C8 1_555 1_555
Co3 O3 1_555 1_555
Co4 O6 1_555 1_555
Co6 O5 1_555 1_555
Co7 O1 1_555 1_555
Co8 O4 1_555 1_555
O2 Co7 1_555 1_555
C6 C7 1_555 1_555
O5 Co8 1_555 1_555
O10 Co8 1_555 1_555
C2 H1 1_555 1_555
O7 Co3 1_555 1_555
O8 Co4 1_555 1_555
O12 Co4 1_555 1_555
C3_2 C1_2 1_555 1_555
C4_2 C3_2 1_555 1_555
O1_2 C1_2 1_555 1_555
O2_2 C4_2 1_555 1_555
O3_2 C4_2 1_555 1_555
C5_2 C3_2 1_555 1_555
H2_2 C5_2 1_555 1_555
C7_2 C5_2 1_555 1_555
C8_2 C7_2 1_555 1_555
O4_2 C6_2 1_555 1_555
O5_2 C8_2 1_555 1_555
O6_2 C8_2 1_555 1_555
Co3_2 O3_2 1_555 1_555
Co4_2 O6_2 1_555 1_555
Co7_2 O1_2 1_555 1_555
Co8_2 O4_2 1_555 1_555
O2_2 Co7_2 1_555 1_555
C6_2 C7_2 1_555 1_555
O5_2 Co8_2 1_555 1_555
C2_2 H1_2 1_555 1_555
O7_2 Co3_2 1_555 1_555
O8_2 Co4_2 1_555 1_555
C3_3 C1_3 1_555 1_555
C4_3 C3_3 1_555 1_555
O1_3 C1_3 1_555 1_555
O2_3 C4_3 1_555 1_555
O3_3 C4_3 1_555 1_555
C5_3 C3_3 1_555 1_555
H2_3 C5_3 1_555 1_555
C7_3 C5_3 1_555 1_555
C8_3 C7_3 1_555 1_555
O4_3 C6_3 1_555 1_555
O5_3 C8_3 1_555 1_555
O6_3 C8_3 1_555 1_555
Co3_3 O3_3 1_555 1_555
Co4_3 O6_3 1_555 1_555
Co5_3 O2_3 1_555 1_555
Co7_3 O1_3 1_555 1_555
Co8_3 O4_3 1_555 1_555
O2_3 Co7_3 1_555 1_555
C6_3 C7_3 1_555 1_555
O5_3 Co8_3 1_555 1_555
O9_3 Co7_3 1_555 1_555
C2_3 H1_3 1_555 1_555
O7_3 Co3_3 1_555 1_555
O8_3 Co4_3 1_555 1_555
O11_3 Co3_3 1_555 1_555
O9_2 C4_4 1_555 1_555
O3_4 C4_4 1_555 1_555
H2_4 C5_4 1_555 1_555
O10_3 C8_4 1_555 1_555
O6_4 C8_4 1_555 1_555
Co5_2 O3_4 1_555 1_555
Co6_3 O6_4 1_555 1_555
C1_4 C2_4 1_555 1_555
C3_4 C1_4 1_555 1_555
C6_4 C2_4 1_555 1_555
O7_4 Co5_2 1_555 1_555
O8_4 Co6_3 1_555 1_555
O11_2 Co5_2 1_555 1_555
O12_3 Co6_3 1_555 1_555
C6_4 C7_4 1_555 1_555
O9_3 C4_5 1_555 1_555
O3_5 C4_5 1_555 1_555
H2_5 C5_5 1_555 1_555
O10 C8_5 1_555 1_555
O6_5 C8_5 1_555 1_555
Co5_3 O3_5 1_555 1_555
Co6 O6_5 1_555 1_555
C1_5 C2_5 1_555 1_555
C2_5 H1_5 1_555 1_555
C3_5 C1_5 1_555 1_555
O7_3 C1_5 1_555 1_555
Co5_3 O7_3 1_555 1_555
C6_5 C2_5 1_555 1_555
O8 C6_5 1_555 1_555
Co6 O8 1_555 1_555
O7_5 Co5_3 1_555 1_555
O8_5 Co6 1_555 1_555
O11_3 Co5_3 1_555 1_555
O12 Co6 1_555 1_555
C6_5 C7_5 1_555 1_555
O9 C4_6 1_555 1_555
O3_6 C4_6 1_555 1_555
H2_6 C5_6 1_555 1_555
O10_2 C8_6 1_555 1_555
O6_6 C8_6 1_555 1_555
Co5 O3_6 1_555 1_555
Co6_2 O6_6 1_555 1_555
C1_6 C2_6 1_555 1_555
C3_6 C1_6 1_555 1_555
C6_6 C2_6 1_555 1_555
O7_6 Co5 1_555 1_555
O8_6 Co6_2 1_555 1_555
O11 Co5 1_555 1_555
O12_2 Co6_2 1_555 1_555
C6_6 C7_6 1_555 1_555
C1_7 C2_7 1_555 1_555
C2_7 H1_7 1_555 1_555
C3_7 C1_7 1_555 1_555
C4_7 C3_7 1_555 1_555
O7_5 C1_7 1_555 1_555
O11_3 C4_7 1_555 1_555
O3_7 C4_7 1_555 1_555
C5_7 C3_7 1_555 1_555
H2_7 C5_7 1_555 1_555
Co7_3 O7_5 1_555 1_555
C6_7 C2_7 1_555 1_555
C7_7 C5_7 1_555 1_555
C8_7 C7_7 1_555 1_555
O8_6 C6_7 1_555 1_555
O12_2 C8_7 1_555 1_555
O6_7 C8_7 1_555 1_555
C6_7 C7_7 1_555 1_555
C1_8 C2_8 1_555 1_555
C2_8 H1_8 1_555 1_555
C3_8 C1_8 1_555 1_555
C4_8 C3_8 1_555 1_555
O7_6 C1_8 1_555 1_555
O11 C4_8 1_555 1_555
O3_8 C4_8 1_555 1_555
C5_8 C3_8 1_555 1_555
H2_8 C5_8 1_555 1_555
C6_8 C2_8 1_555 1_555
C7_8 C5_8 1_555 1_555
C8_8 C7_8 1_555 1_555
O8_4 C6_8 1_555 1_555
O12_3 C8_8 1_555 1_555
O6_8 C8_8 1_555 1_555
C6_8 C7_8 1_555 1_555
C1_9 C2_9 1_555 1_555
C2_9 H1_9 1_555 1_555
C3_9 C1_9 1_555 1_555
C4_9 C3_9 1_555 1_555
O7_4 C1_9 1_555 1_555
O11_2 C4_9 1_555 1_555
O3_9 C4_9 1_555 1_555
C5_9 C3_9 1_555 1_555
H2_9 C5_9 1_555 1_555
C6_9 C2_9 1_555 1_555
C7_9 C5_9 1_555 1_555
C8_9 C7_9 1_555 1_555
O8_5 C6_9 1_555 1_555
O12 C8_9 1_555 1_555
O6_9 C8_9 1_555 1_555
Co8 O8_5 1_555 1_555
C6_9 C7_9 1_555 1_555

#END
