
###############################################################################
#
# This file contains modified crystal structure data generated from the
# MOF subset of the Cambridge Structural Database (CSD) v543 
# hosted by the Cambridge Crystallographic Data Centre (CCDC).
#
# This work is licensed under the Creative Commons
# Attribution-NonCommercial-ShareAlike 4.0 International License.
# To view a copy of this license, visit
# http://creativecommons.org/licenses/by-nc-sa/4.0/
# or send a letter to
# Creative Commons, PO Box 1866, Mountain View, CA 94042, USA.
#
# CIF created using the CSD Python API on 29 September 2022
# The structure has been converted into the P1 space group
# The structure has a 3D framework
# The original CSD entry CODPIX is in the rhombohedral crystal system
# The framework has been calculated to contain at least 10.0% void space
# The void calculation uses a probe of radius 1.32A, grid spacing 0.4
#
###############################################################################

data_CODPIX
_chemical_formula_moiety         '(C72 H18 Co8 O44)n'
_symmetry_cell_setting           triclinic
_symmetry_space_group_name_H-M   'P 1'
_symmetry_Int_Tables_number      1
_space_group_name_Hall           'P 1'
loop_
_symmetry_equiv_pos_site_id
_symmetry_equiv_pos_as_xyz
1 x,y,z
_cell_length_a                   25.9276(21)
_cell_length_b                   25.9276
_cell_length_c                   6.8267(8)
_cell_angle_alpha                90
_cell_angle_beta                 90
_cell_angle_gamma                120
_cell_volume                     3974.35
loop_
_atom_site_label
_atom_site_type_symbol
_atom_site_fract_x
_atom_site_fract_y
_atom_site_fract_z
_atom_site_U_iso_or_equiv
_atom_site_thermal_displace_type
Co5 Co 0.6642(42) 0.0405(23) 0.225(8) 0.0017 Uiso
O9 O 0.6462(14) 0.0195(10) 0.758(4) 0.0050 Uiso
O11 O 0.7066(10) 0.0204(14) 0.424(4) 0.0050 Uiso
Co7 Co 0.7096(35) 0.0024(42) 0.891(8) 0.0017 Uiso
C3 C 0.6385(11) 0.8666(7) 0.049(4) 0.0210 Uiso
C4 C 0.6330(9) 0.9109(8) 0.170(4) 0.0150 Uiso
O2 O 0.6472(10) 0.9601(10) 0.091(4) 0.0050 Uiso
O3 O 0.6126(13) 0.8964(15) 0.351(5) 0.0260 Uiso
C5 C 0.6315(16) 0.8158(8) 0.144(5) 0.0090 Uiso
H2 H 0.6171(22) 0.8085(11) 0.280(10) 0.0200 Uiso
C7 C 0.6385(11) 0.7719(13) 0.049(4) 0.0210 Uiso
C8 C 0.6330(9) 0.7221(12) 0.170(4) 0.0150 Uiso
O5 O 0.6472(10) 0.6871(14) 0.091(4) 0.0050 Uiso
O6 O 0.6126(13) 0.7162(20) 0.351(5) 0.0260 Uiso
Co3 Co 0.6262(23) 0.9571(35) 0.558(8) 0.0017 Uiso
Co4 Co 0.6262(23) 0.6691(42) 0.558(8) 0.0017 Uiso
Co6 Co 0.6642(42) 0.6238(35) 0.225(8) 0.0017 Uiso
C1 C 0.6551(11) 0.8705(14) 0.843(4) 0.0350 Uiso
C2 C 0.6753(17) 0.8377(8) 0.758(7) 0.0560 Uiso
H1 H 0.6779(23) 0.8389(12) 0.590(10) 0.0100 Uiso
O1 O 0.6704(14) 0.9222(15) 0.755(5) 0.0560 Uiso
C6 C 0.6551(11) 0.7846(18) 0.843(4) 0.0350 Uiso
O4 O 0.6704(14) 0.7482(21) 0.755(5) 0.0560 Uiso
O7 O 0.5851(21) 0.9963(14) 0.422(5) 0.0560 Uiso
O8 O 0.5851(21) 0.5889(15) 0.422(5) 0.0560 Uiso
O10 O 0.6462(14) 0.6268(10) 0.758(4) 0.0050 Uiso
O12 O 0.7066(10) 0.6861(10) 0.424(4) 0.0050 Uiso
Co8 Co 0.7096(35) 0.7071(23) 0.891(8) 0.0017 Uiso
Co6_2 Co 0.3762(35) 0.0405(55) 0.225(8) 0.0017 Uiso
O10_2 O 0.3732(10) 0.0195(17) 0.758(4) 0.0050 Uiso
O12_2 O 0.3139(10) 0.0204(14) 0.424(4) 0.0050 Uiso
Co8_2 Co 0.2929(23) 0.0024(42) 0.891(8) 0.0017 Uiso
C3_2 C 0.1334(7) 0.7719(13) 0.049(4) 0.0210 Uiso
C4_2 C 0.0891(8) 0.7221(12) 0.170(4) 0.0150 Uiso
O2_2 O 0.0399(10) 0.6871(14) 0.091(4) 0.0050 Uiso
O3_2 O 0.1036(15) 0.7162(20) 0.351(5) 0.0260 Uiso
C5_2 C 0.1842(8) 0.8157(18) 0.144(5) 0.0090 Uiso
H2_2 H 0.1915(11) 0.8086(25) 0.280(10) 0.0200 Uiso
C7_2 C 0.2281(13) 0.8666(17) 0.049(4) 0.0210 Uiso
C8_2 C 0.2779(12) 0.9109(15) 0.170(4) 0.0150 Uiso
O5_2 O 0.3129(14) 0.9601(17) 0.091(4) 0.0050 Uiso
O6_2 O 0.2838(20) 0.8964(24) 0.351(5) 0.0260 Uiso
Co3_2 Co 0.0429(35) 0.6691(42) 0.558(8) 0.0017 Uiso
Co4_2 Co 0.3309(42) 0.9571(48) 0.558(8) 0.0017 Uiso
C1_2 C 0.1295(14) 0.7846(18) 0.843(4) 0.0350 Uiso
C2_2 C 0.1623(8) 0.8376(19) 0.758(7) 0.0560 Uiso
H1_2 H 0.1611(12) 0.8390(26) 0.590(10) 0.0100 Uiso
O1_2 O 0.0778(15) 0.7482(21) 0.755(5) 0.0560 Uiso
C6_2 C 0.2154(18) 0.8705(21) 0.843(4) 0.0350 Uiso
O4_2 O 0.2518(21) 0.9222(25) 0.755(5) 0.0560 Uiso
O7_2 O 0.0037(14) 0.5889(25) 0.422(5) 0.0560 Uiso
O8_2 O 0.4111(15) 0.9963(26) 0.422(5) 0.0560 Uiso
Co5_2 Co 0.9595(23) 0.6238(48) 0.225(8) 0.0017 Uiso
O9_2 O 0.9805(10) 0.6268(17) 0.758(4) 0.0050 Uiso
O11_2 O 0.9796(14) 0.6861(17) 0.424(4) 0.0050 Uiso
Co7_2 Co 0.9976(42) 0.7071(55) 0.891(8) 0.0017 Uiso
C3_3 C 0.2281(13) 0.3615(11) 0.049(4) 0.0210 Uiso
C4_3 C 0.2779(12) 0.3670(9) 0.170(4) 0.0150 Uiso
O2_3 O 0.3129(14) 0.3528(10) 0.091(4) 0.0050 Uiso
O3_3 O 0.2838(20) 0.3874(13) 0.351(5) 0.0260 Uiso
C5_3 C 0.1843(18) 0.3685(16) 0.144(5) 0.0090 Uiso
H2_3 H 0.1914(25) 0.3829(22) 0.280(10) 0.0200 Uiso
C7_3 C 0.1334(17) 0.3615(11) 0.049(4) 0.0210 Uiso
C8_3 C 0.0891(15) 0.3670(9) 0.170(4) 0.0150 Uiso
O5_3 O 0.0399(17) 0.3528(10) 0.091(4) 0.0050 Uiso
O6_3 O 0.1036(24) 0.3874(13) 0.351(5) 0.0260 Uiso
Co3_3 Co 0.3309(42) 0.3738(23) 0.558(8) 0.0017 Uiso
Co4_3 Co 0.0429(48) 0.3738(23) 0.558(8) 0.0017 Uiso
Co5_3 Co 0.3762(48) 0.3358(42) 0.225(8) 0.0017 Uiso
C1_3 C 0.2154(18) 0.3449(11) 0.843(4) 0.0350 Uiso
C2_3 C 0.1624(19) 0.3247(17) 0.758(7) 0.0560 Uiso
H1_3 H 0.1610(26) 0.3221(23) 0.590(10) 0.0100 Uiso
O1_3 O 0.2518(21) 0.3296(14) 0.755(5) 0.0560 Uiso
C6_3 C 0.1295(21) 0.3449(11) 0.843(4) 0.0350 Uiso
O4_3 O 0.0778(25) 0.3296(14) 0.755(5) 0.0560 Uiso
O7_3 O 0.4111(25) 0.4149(21) 0.422(5) 0.0560 Uiso
O8_3 O 0.0037(26) 0.4149(21) 0.422(5) 0.0560 Uiso
O9_3 O 0.3732(17) 0.3538(14) 0.758(4) 0.0050 Uiso
O11_3 O 0.3139(17) 0.2934(10) 0.424(4) 0.0050 Uiso
Co7_3 Co 0.2929(55) 0.2904(35) 0.891(8) 0.0017 Uiso
Co6_3 Co 0.9595(55) 0.3358(42) 0.225(8) 0.0017 Uiso
O10_3 O 0.9805(17) 0.3538(14) 0.758(4) 0.0050 Uiso
O12_3 O 0.9796(14) 0.2934(10) 0.424(4) 0.0050 Uiso
Co8_3 Co 0.9976(42) 0.2904(35) 0.891(8) 0.0017 Uiso
C2_4 C 0.0086(17) 0.5044(8) 0.425(7) 0.0560 Uiso
H1_4 H 0.0112(23) 0.5056(12) 0.257(10) 0.0100 Uiso
O3_4 O 0.9459(13) 0.5631(15) 0.018(5) 0.0260 Uiso
O6_4 O 0.9459(13) 0.3829(20) 0.018(5) 0.0260 Uiso
C1_4 C 0.9884(11) 0.5372(14) 0.510(4) 0.0350 Uiso
C3_4 C 0.9718(11) 0.5333(7) 0.716(4) 0.0210 Uiso
C4_4 C 0.9663(9) 0.5776(8) 0.837(4) 0.0150 Uiso
C5_4 C 0.9648(16) 0.4825(8) 0.811(5) 0.0090 Uiso
H2_4 H 0.9504(22) 0.4752(11) 0.947(10) 0.0200 Uiso
C6_4 C 0.9884(11) 0.4513(18) 0.510(4) 0.0350 Uiso
C7_4 C 0.9718(11) 0.4386(13) 0.716(4) 0.0210 Uiso
C8_4 C 0.9663(9) 0.3888(12) 0.837(4) 0.0150 Uiso
O7_4 O 0.9185(21) 0.6629(14) 0.088(5) 0.0560 Uiso
O8_4 O 0.9185(21) 0.2555(15) 0.088(5) 0.0560 Uiso
O3_5 O 0.4369(15) 0.3829(20) 0.018(5) 0.0260 Uiso
O6_5 O 0.6171(20) 0.5631(24) 0.018(5) 0.0260 Uiso
C1_5 C 0.4628(14) 0.4513(18) 0.510(4) 0.0350 Uiso
C2_5 C 0.4956(8) 0.5043(19) 0.425(7) 0.0560 Uiso
C3_5 C 0.4667(7) 0.4386(13) 0.716(4) 0.0210 Uiso
C4_5 C 0.4224(8) 0.3888(12) 0.837(4) 0.0150 Uiso
H1_5 H 0.4944(12) 0.5057(26) 0.257(10) 0.0100 Uiso
C5_5 C 0.5175(8) 0.4824(18) 0.811(5) 0.0090 Uiso
H2_5 H 0.5248(11) 0.4753(25) 0.947(10) 0.0200 Uiso
C6_5 C 0.5487(18) 0.5372(21) 0.510(4) 0.0350 Uiso
C7_5 C 0.5614(13) 0.5333(17) 0.716(4) 0.0210 Uiso
C8_5 C 0.6112(12) 0.5776(15) 0.837(4) 0.0150 Uiso
O7_5 O 0.3371(14) 0.2555(25) 0.088(5) 0.0560 Uiso
O8_5 O 0.7445(15) 0.6629(26) 0.088(5) 0.0560 Uiso
O3_6 O 0.6171(20) 0.0541(13) 0.018(5) 0.0260 Uiso
O6_6 O 0.4369(24) 0.0541(13) 0.018(5) 0.0260 Uiso
C1_6 C 0.5487(18) 0.0116(11) 0.510(4) 0.0350 Uiso
C3_6 C 0.5614(13) 0.0282(11) 0.716(4) 0.0210 Uiso
C4_6 C 0.6112(12) 0.0337(9) 0.837(4) 0.0150 Uiso
C5_6 C 0.5176(18) 0.0352(16) 0.811(5) 0.0090 Uiso
H2_6 H 0.5247(25) 0.0496(22) 0.947(10) 0.0200 Uiso
C6_6 C 0.4628(21) 0.0116(11) 0.510(4) 0.0350 Uiso
C7_6 C 0.4667(17) 0.0282(11) 0.716(4) 0.0210 Uiso
C8_6 C 0.4224(15) 0.0337(9) 0.837(4) 0.0150 Uiso
O7_6 O 0.7445(25) 0.0815(21) 0.088(5) 0.0560 Uiso
O8_6 O 0.3371(26) 0.0815(21) 0.088(5) 0.0560 Uiso
C2_6 C 0.4957(19) 0.9914(17) 0.425(7) 0.0560 Uiso
H1_6 H 0.4943(26) 0.9888(23) 0.257(10) 0.0100 Uiso
C1_7 C 0.3218(11) 0.2038(14) 0.176(4) 0.0350 Uiso
C2_7 C 0.3420(17) 0.1710(8) 0.091(7) 0.0560 Uiso
C3_7 C 0.3052(11) 0.1999(7) 0.382(4) 0.0210 Uiso
C4_7 C 0.2997(9) 0.2442(8) 0.503(4) 0.0150 Uiso
O3_7 O 0.2793(13) 0.2297(15) 0.684(5) 0.0260 Uiso
C5_7 C 0.2982(16) 0.1491(8) 0.477(5) 0.0090 Uiso
H2_7 H 0.2838(22) 0.1418(11) 0.613(10) 0.0200 Uiso
C6_7 C 0.3218(11) 0.1179(18) 0.176(4) 0.0350 Uiso
C7_7 C 0.3052(11) 0.1052(13) 0.382(4) 0.0210 Uiso
C8_7 C 0.2997(9) 0.0554(12) 0.503(4) 0.0150 Uiso
O6_7 O 0.2793(13) 0.0495(20) 0.684(5) 0.0260 Uiso
H1_7 H 0.3446(23) 0.1722(12) 0.923(10) 0.0100 Uiso
C1_8 C 0.7962(14) 0.1179(18) 0.176(4) 0.0350 Uiso
C2_8 C 0.8290(8) 0.1709(19) 0.091(7) 0.0560 Uiso
C3_8 C 0.8001(7) 0.1052(13) 0.382(4) 0.0210 Uiso
C4_8 C 0.7558(8) 0.0554(12) 0.503(4) 0.0150 Uiso
O3_8 O 0.7703(15) 0.0495(20) 0.684(5) 0.0260 Uiso
C5_8 C 0.8509(8) 0.1490(18) 0.477(5) 0.0090 Uiso
H2_8 H 0.8582(11) 0.1419(25) 0.613(10) 0.0200 Uiso
C6_8 C 0.8821(18) 0.2038(21) 0.176(4) 0.0350 Uiso
C7_8 C 0.8948(13) 0.1999(17) 0.382(4) 0.0210 Uiso
C8_8 C 0.9446(12) 0.2442(15) 0.503(4) 0.0150 Uiso
O6_8 O 0.9505(20) 0.2297(24) 0.684(5) 0.0260 Uiso
H1_8 H 0.8278(12) 0.1723(26) 0.923(10) 0.0100 Uiso
C1_9 C 0.8821(18) 0.6782(11) 0.176(4) 0.0350 Uiso
C2_9 C 0.8291(19) 0.6580(17) 0.091(7) 0.0560 Uiso
C3_9 C 0.8948(13) 0.6948(11) 0.382(4) 0.0210 Uiso
C4_9 C 0.9446(12) 0.7003(9) 0.503(4) 0.0150 Uiso
O3_9 O 0.9505(20) 0.7207(13) 0.684(5) 0.0260 Uiso
C5_9 C 0.8510(18) 0.7018(16) 0.477(5) 0.0090 Uiso
H2_9 H 0.8581(25) 0.7162(22) 0.613(10) 0.0200 Uiso
C6_9 C 0.7962(21) 0.6782(11) 0.176(4) 0.0350 Uiso
C7_9 C 0.8001(17) 0.6948(11) 0.382(4) 0.0210 Uiso
C8_9 C 0.7558(15) 0.7003(9) 0.503(4) 0.0150 Uiso
O6_9 O 0.7703(24) 0.7207(13) 0.684(5) 0.0260 Uiso
H1_9 H 0.8277(26) 0.6554(23) 0.923(10) 0.0100 Uiso
loop_
_geom_bond_atom_site_label_1
_geom_bond_atom_site_label_2
_geom_bond_site_symmetry_1
_geom_bond_site_symmetry_2
O9 Co7 1_555 1_555
C4 C3 1_555 1_555
O2 C4 1_555 1_555
O3 C4 1_555 1_555
C5 C3 1_555 1_555
H2 C5 1_555 1_555
C7 C5 1_555 1_555
C8 C7 1_555 1_555
O5 C8 1_555 1_555
O6 C8 1_555 1_555
Co3 O3 1_555 1_555
Co4 O6 1_555 1_555
Co6 O5 1_555 1_555
C1 C2 1_555 1_555
C2 H1 1_555 1_555
O1 C1 1_555 1_555
Co3 O1 1_555 1_555
C6 C2 1_555 1_555
O4 C6 1_555 1_555
Co4 O4 1_555 1_555
O7 Co3 1_555 1_555
O8 Co4 1_555 1_555
O10 Co4 1_555 1_555
O12 Co4 1_555 1_555
Co8 O4 1_555 1_555
O10 Co8 1_555 1_555
O10_2 Co8_2 1_555 1_555
C4_2 C3_2 1_555 1_555
O2_2 C4_2 1_555 1_555
O3_2 C4_2 1_555 1_555
C5_2 C3_2 1_555 1_555
H2_2 C5_2 1_555 1_555
C7_2 C5_2 1_555 1_555
C8_2 C7_2 1_555 1_555
O5_2 C8_2 1_555 1_555
O6_2 C8_2 1_555 1_555
Co3_2 O3_2 1_555 1_555
Co4_2 O6_2 1_555 1_555
C1_2 C2_2 1_555 1_555
C2_2 H1_2 1_555 1_555
O1_2 C1_2 1_555 1_555
Co3_2 O1_2 1_555 1_555
C6_2 C2_2 1_555 1_555
O4_2 C6_2 1_555 1_555
Co4_2 O4_2 1_555 1_555
O7_2 Co3_2 1_555 1_555
O8_2 Co4_2 1_555 1_555
O9_2 Co7_2 1_555 1_555
C4_3 C3_3 1_555 1_555
O2_3 C4_3 1_555 1_555
O3_3 C4_3 1_555 1_555
C5_3 C3_3 1_555 1_555
H2_3 C5_3 1_555 1_555
C7_3 C5_3 1_555 1_555
C8_3 C7_3 1_555 1_555
O5_3 C8_3 1_555 1_555
O6_3 C8_3 1_555 1_555
Co3_3 O3_3 1_555 1_555
Co4_3 O6_3 1_555 1_555
Co5_3 O2_3 1_555 1_555
C1_3 C2_3 1_555 1_555
C2_3 H1_3 1_555 1_555
O1_3 C1_3 1_555 1_555
Co3_3 O1_3 1_555 1_555
C6_3 C2_3 1_555 1_555
O4_3 C6_3 1_555 1_555
Co4_3 O4_3 1_555 1_555
O7_3 Co3_3 1_555 1_555
O8_3 Co4_3 1_555 1_555
O9_3 Co3_3 1_555 1_555
O11_3 Co3_3 1_555 1_555
Co7_3 O1_3 1_555 1_555
O9_3 Co7_3 1_555 1_555
O10_3 Co8_3 1_555 1_555
C2_4 H1_4 1_555 1_555
Co5_2 O3_4 1_555 1_555
Co6_3 O6_4 1_555 1_555
C3_4 C1_4 1_555 1_555
C4_4 C3_4 1_555 1_555
O9_2 C4_4 1_555 1_555
C5_4 C3_4 1_555 1_555
H2_4 C5_4 1_555 1_555
C7_4 C5_4 1_555 1_555
C8_4 C7_4 1_555 1_555
O10_3 C8_4 1_555 1_555
O7_4 Co5_2 1_555 1_555
O8_4 Co6_3 1_555 1_555
O11_2 Co5_2 1_555 1_555
O12_3 Co6_3 1_555 1_555
C6_4 C7_4 1_555 1_555
Co5_3 O3_5 1_555 1_555
Co6 O6_5 1_555 1_555
C1_5 C2_5 1_555 1_555
C2_5 H1_5 1_555 1_555
C3_5 C1_5 1_555 1_555
C4_5 C3_5 1_555 1_555
O7_3 C1_5 1_555 1_555
O9_3 C4_5 1_555 1_555
C5_5 C3_5 1_555 1_555
H2_5 C5_5 1_555 1_555
Co5_3 O7_3 1_555 1_555
C6_5 C2_5 1_555 1_555
C7_5 C5_5 1_555 1_555
C8_5 C7_5 1_555 1_555
O8 C6_5 1_555 1_555
O10 C8_5 1_555 1_555
Co6 O8 1_555 1_555
O7_5 Co5_3 1_555 1_555
O8_5 Co6 1_555 1_555
O11_3 Co5_3 1_555 1_555
O12 Co6 1_555 1_555
C6_5 C7_5 1_555 1_555
Co5 O3_6 1_555 1_555
Co6_2 O6_6 1_555 1_555
C3_6 C1_6 1_555 1_555
C4_6 C3_6 1_555 1_555
O9 C4_6 1_555 1_555
C5_6 C3_6 1_555 1_555
H2_6 C5_6 1_555 1_555
C7_6 C5_6 1_555 1_555
C8_6 C7_6 1_555 1_555
O10_2 C8_6 1_555 1_555
O7_6 Co5 1_555 1_555
O8_6 Co6_2 1_555 1_555
O11 Co5 1_555 1_555
O12_2 Co6_2 1_555 1_555
C6_6 C7_6 1_555 1_555
C2_6 H1_6 1_555 1_555
C1_7 C2_7 1_555 1_555
C3_7 C1_7 1_555 1_555
C4_7 C3_7 1_555 1_555
O7_5 C1_7 1_555 1_555
O11_3 C4_7 1_555 1_555
O3_7 C4_7 1_555 1_555
C5_7 C3_7 1_555 1_555
H2_7 C5_7 1_555 1_555
C6_7 C2_7 1_555 1_555
C7_7 C5_7 1_555 1_555
C8_7 C7_7 1_555 1_555
O8_6 C6_7 1_555 1_555
O12_2 C8_7 1_555 1_555
O6_7 C8_7 1_555 1_555
Co7_3 O3_7 1_555 1_555
Co8_2 O6_7 1_555 1_555
C6_7 C7_7 1_555 1_555
C1_8 C2_8 1_555 1_555
C3_8 C1_8 1_555 1_555
C4_8 C3_8 1_555 1_555
O7_6 C1_8 1_555 1_555
O11 C4_8 1_555 1_555
O3_8 C4_8 1_555 1_555
C5_8 C3_8 1_555 1_555
H2_8 C5_8 1_555 1_555
C6_8 C2_8 1_555 1_555
C7_8 C5_8 1_555 1_555
C8_8 C7_8 1_555 1_555
O8_4 C6_8 1_555 1_555
O12_3 C8_8 1_555 1_555
O6_8 C8_8 1_555 1_555
Co7 O3_8 1_555 1_555
Co8_3 O6_8 1_555 1_555
C6_8 C7_8 1_555 1_555
C1_9 C2_9 1_555 1_555
C3_9 C1_9 1_555 1_555
C4_9 C3_9 1_555 1_555
O7_4 C1_9 1_555 1_555
O11_2 C4_9 1_555 1_555
O3_9 C4_9 1_555 1_555
C5_9 C3_9 1_555 1_555
H2_9 C5_9 1_555 1_555
C6_9 C2_9 1_555 1_555
C7_9 C5_9 1_555 1_555
C8_9 C7_9 1_555 1_555
O8_5 C6_9 1_555 1_555
O12 C8_9 1_555 1_555
O6_9 C8_9 1_555 1_555
Co7_2 O3_9 1_555 1_555
Co8 O6_9 1_555 1_555
C6_9 C7_9 1_555 1_555

#END
