
###############################################################################
#
# This file contains modified crystal structure data generated from the
# MOF subset of the Cambridge Structural Database (CSD) v543 
# hosted by the Cambridge Crystallographic Data Centre (CCDC).
#
# This work is licensed under the Creative Commons
# Attribution-NonCommercial-ShareAlike 4.0 International License.
# To view a copy of this license, visit
# http://creativecommons.org/licenses/by-nc-sa/4.0/
# or send a letter to
# Creative Commons, PO Box 1866, Mountain View, CA 94042, USA.
#
# CIF created using the CSD Python API on 29 September 2022
# The structure has been converted into the P1 space group
# The structure has a 3D framework
# The original CSD entry CODQEU is in the rhombohedral crystal system
# The framework has been calculated to contain at least 10.0% void space
# The void calculation uses a probe of radius 1.32A, grid spacing 0.4
#
###############################################################################

data_CODQEU
_chemical_formula_moiety         '(C72 H18 Co4 O50)n'
_symmetry_cell_setting           triclinic
_symmetry_space_group_name_H-M   'P 1'
_symmetry_Int_Tables_number      1
_space_group_name_Hall           'P 1'
loop_
_symmetry_equiv_pos_site_id
_symmetry_equiv_pos_as_xyz
1 x,y,z
_cell_length_a                   25.8716(11)
_cell_length_b                   25.8716
_cell_length_c                   6.7934(6)
_cell_angle_alpha                90
_cell_angle_beta                 90
_cell_angle_gamma                120
_cell_volume                     3937.9
loop_
_atom_site_label
_atom_site_type_symbol
_atom_site_fract_x
_atom_site_fract_y
_atom_site_fract_z
_atom_site_U_iso_or_equiv
_atom_site_thermal_displace_type
O9 O 0.64608 0.02176 0.01122 0.0171 Uiso
Co5 Co 0.66684 0.03526 0.47703 0.0062 Uiso
O11 O 0.70901 0.02058 0.67788 0.0171 Uiso
C1 C 0.65805 0.87628 0.0995 0.0520 Uiso
C3 C 0.63779 0.86585 0.29624 0.0232 Uiso
C4 C 0.62701 0.90736 0.40892 0.0292 Uiso
O1 O 0.6695 0.92114 0.00443 0.0025 Uiso
O2 O 0.64491 0.95766 0.34455 0.0171 Uiso
O3 O 0.61529 0.89913 0.60508 0.0171 Uiso
C5 C 0.63149 0.8158 0.39668 0.0498 Uiso
H2 H 0.62178 0.81088 0.55172 0.0837 Uiso
C6 C 0.65805 0.78177 0.0995 0.0520 Uiso
C7 C 0.63779 0.77194 0.29624 0.0232 Uiso
C8 C 0.62701 0.71965 0.40892 0.0292 Uiso
O4 O 0.6695 0.74836 0.00443 0.0025 Uiso
O5 O 0.64491 0.68725 0.34455 0.0171 Uiso
O6 O 0.61529 0.71616 0.60508 0.0171 Uiso
O10 O 0.64608 0.62433 0.01122 0.0171 Uiso
Co3 Co 0.63141 0.96492 0.81036 0.0062 Uiso
Co4 Co 0.63141 0.66649 0.81036 0.0062 Uiso
Co6 Co 0.66684 0.63159 0.47703 0.0062 Uiso
Co7 Co 0.70175 0.99982 0.14369 0.0062 Uiso
Co8 Co 0.70175 0.70192 0.14369 0.0062 Uiso
C2 C 0.65888 0.82949 0.99952 0.0214 Uiso
H1 H 0.66702 0.83352 0.84081 0.0013 Uiso
O7 O 0.58497 0.9972 0.67110 0.0025 Uiso
O8 O 0.58497 0.58781 0.67110 0.0025 Uiso
O12 O 0.70901 0.68842 0.67788 0.0171 Uiso
O10_2 O 0.37567 0.02176 0.01122 0.0171 Uiso
Co6_2 Co 0.36841 0.03526 0.47703 0.0062 Uiso
O12_2 O 0.31158 0.02058 0.67788 0.0171 Uiso
C1_2 C 0.12372 0.78177 0.0995 0.0520 Uiso
C3_2 C 0.13415 0.77194 0.29624 0.0232 Uiso
C4_2 C 0.09264 0.71965 0.40892 0.0292 Uiso
O1_2 O 0.07886 0.74836 0.00443 0.0025 Uiso
O2_2 O 0.04234 0.68725 0.34455 0.0171 Uiso
O3_2 O 0.10087 0.71616 0.60508 0.0171 Uiso
C5_2 C 0.1842 0.81569 0.39668 0.0498 Uiso
H2_2 H 0.18912 0.81090 0.55172 0.0837 Uiso
C6_2 C 0.21823 0.87628 0.0995 0.0520 Uiso
C7_2 C 0.22806 0.86585 0.29624 0.0232 Uiso
C8_2 C 0.28035 0.90736 0.40892 0.0292 Uiso
O4_2 O 0.25164 0.92114 0.00443 0.0025 Uiso
O5_2 O 0.31275 0.95766 0.34455 0.0171 Uiso
O6_2 O 0.28384 0.89913 0.60508 0.0171 Uiso
Co3_2 Co 0.03508 0.66649 0.81036 0.0062 Uiso
Co4_2 Co 0.33351 0.96492 0.81036 0.0062 Uiso
Co7_2 Co 0.00018 0.70192 0.14369 0.0062 Uiso
Co8_2 Co 0.29808 0.99982 0.14369 0.0062 Uiso
C2_2 C 0.17051 0.82939 0.99952 0.0214 Uiso
H1_2 H 0.16648 0.83350 0.84081 0.0013 Uiso
O7_2 O 0.0028 0.58781 0.67110 0.0025 Uiso
O8_2 O 0.41219 0.99717 0.67110 0.0025 Uiso
O9_2 O 0.97824 0.62433 0.01122 0.0171 Uiso
Co5_2 Co 0.96474 0.63159 0.47703 0.0062 Uiso
O11_2 O 0.97942 0.68842 0.67788 0.0171 Uiso
C1_3 C 0.21823 0.34195 0.0995 0.0520 Uiso
C3_3 C 0.22806 0.36221 0.29624 0.0232 Uiso
C4_3 C 0.28035 0.37299 0.40892 0.0292 Uiso
O1_3 O 0.25164 0.3305 0.00443 0.0025 Uiso
O2_3 O 0.31275 0.35509 0.34455 0.0171 Uiso
O3_3 O 0.28384 0.38471 0.60508 0.0171 Uiso
C5_3 C 0.18431 0.36851 0.39668 0.0498 Uiso
H2_3 H 0.18910 0.37822 0.55172 0.0837 Uiso
C6_3 C 0.12372 0.34195 0.0995 0.0520 Uiso
C7_3 C 0.13415 0.36221 0.29624 0.0232 Uiso
C8_3 C 0.09264 0.37299 0.40892 0.0292 Uiso
O4_3 O 0.07886 0.3305 0.00443 0.0025 Uiso
O5_3 O 0.04234 0.35509 0.34455 0.0171 Uiso
O6_3 O 0.10087 0.38471 0.60508 0.0171 Uiso
O9_3 O 0.37567 0.35392 0.01122 0.0171 Uiso
Co3_3 Co 0.33351 0.36859 0.81036 0.0062 Uiso
Co4_3 Co 0.03508 0.36859 0.81036 0.0062 Uiso
Co5_3 Co 0.36841 0.33316 0.47703 0.0062 Uiso
Co7_3 Co 0.29808 0.29825 0.14369 0.0062 Uiso
Co8_3 Co 0.00018 0.29825 0.14369 0.0062 Uiso
C2_3 C 0.17061 0.34112 0.99952 0.0214 Uiso
H1_3 H 0.16650 0.33298 0.84081 0.0013 Uiso
O7_3 O 0.41219 0.41503 0.67110 0.0025 Uiso
O8_3 O 0.00283 0.41503 0.67110 0.0025 Uiso
O11_3 O 0.31158 0.29099 0.67788 0.0171 Uiso
O10_3 O 0.97824 0.35392 0.01122 0.0171 Uiso
Co6_3 Co 0.96474 0.33316 0.47703 0.0062 Uiso
O12_3 O 0.97942 0.29099 0.67788 0.0171 Uiso
H1_4 H 0.00035 0.50019 0.50748 0.0013 Uiso
C4_4 C 0.96034 0.57403 0.07559 0.0292 Uiso
O3_4 O 0.94862 0.56580 0.27175 0.0171 Uiso
C5_4 C 0.96482 0.4825 0.06335 0.0498 Uiso
H2_4 H 0.95511 0.47755 0.21839 0.0837 Uiso
C8_4 C 0.96034 0.38632 0.07559 0.0292 Uiso
O6_4 O 0.94862 0.38283 0.27175 0.0171 Uiso
C1_4 C 0.99138 0.54295 0.7662 0.0520 Uiso
C2_4 C 0.99221 0.49616 0.66619 0.0214 Uiso
C3_4 C 0.97112 0.53252 0.96291 0.0232 Uiso
C6_4 C 0.99138 0.44844 0.7662 0.0520 Uiso
C7_4 C 0.97112 0.43861 0.96291 0.0232 Uiso
O7_4 O 0.91831 0.6638 0.33776 0.0025 Uiso
O8_4 O 0.91831 0.25447 0.33776 0.0025 Uiso
C4_5 C 0.42597 0.38632 0.07559 0.0292 Uiso
O3_5 O 0.43420 0.38283 0.27175 0.0171 Uiso
C5_5 C 0.5175 0.48236 0.06335 0.0498 Uiso
H2_5 H 0.52245 0.47757 0.21839 0.0837 Uiso
C8_5 C 0.61368 0.57403 0.07559 0.0292 Uiso
O6_5 O 0.61717 0.56580 0.27175 0.0171 Uiso
C1_5 C 0.45705 0.44844 0.7662 0.0520 Uiso
C2_5 C 0.50384 0.49606 0.66619 0.0214 Uiso
C3_5 C 0.46748 0.43861 0.96291 0.0232 Uiso
H1_5 H 0.49981 0.50017 0.50748 0.0013 Uiso
C6_5 C 0.55156 0.54295 0.7662 0.0520 Uiso
C7_5 C 0.56139 0.53252 0.96291 0.0232 Uiso
O7_5 O 0.3362 0.25447 0.33776 0.0025 Uiso
O8_5 O 0.74553 0.66383 0.33776 0.0025 Uiso
C4_6 C 0.61368 0.03966 0.07559 0.0292 Uiso
O3_6 O 0.61717 0.05138 0.27175 0.0171 Uiso
C5_6 C 0.51764 0.03518 0.06335 0.0498 Uiso
H2_6 H 0.52243 0.04489 0.21839 0.0837 Uiso
C8_6 C 0.42597 0.03966 0.07559 0.0292 Uiso
O6_6 O 0.43420 0.05138 0.27175 0.0171 Uiso
C1_6 C 0.55156 0.00862 0.7662 0.0520 Uiso
C2_6 C 0.50394 0.00779 0.66619 0.0214 Uiso
C3_6 C 0.56139 0.02888 0.96291 0.0232 Uiso
C6_6 C 0.45705 0.00862 0.7662 0.0520 Uiso
C7_6 C 0.46748 0.02888 0.96291 0.0232 Uiso
O7_6 O 0.74553 0.08169 0.33776 0.0025 Uiso
O8_6 O 0.33617 0.08169 0.33776 0.0025 Uiso
H1_6 H 0.49983 0.99965 0.50748 0.0013 Uiso
C1_7 C 0.32472 0.20961 0.4328 0.0520 Uiso
C2_7 C 0.32555 0.16282 0.33285 0.0214 Uiso
C3_7 C 0.30446 0.19918 0.62957 0.0232 Uiso
C4_7 C 0.29368 0.24069 0.74225 0.0292 Uiso
H1_7 H 0.33369 0.16685 0.17414 0.0013 Uiso
O3_7 O 0.28196 0.23246 0.93841 0.0171 Uiso
C5_7 C 0.29816 0.1491 0.73001 0.0498 Uiso
H2_7 H 0.28845 0.14421 0.88505 0.0837 Uiso
C6_7 C 0.32472 0.11510 0.4328 0.0520 Uiso
C7_7 C 0.30446 0.10527 0.62957 0.0232 Uiso
C8_7 C 0.29368 0.05298 0.74225 0.0292 Uiso
O6_7 O 0.28196 0.04949 0.93841 0.0171 Uiso
C1_8 C 0.79039 0.11510 0.4328 0.0520 Uiso
C2_8 C 0.83718 0.16272 0.33285 0.0214 Uiso
C3_8 C 0.80082 0.10527 0.62957 0.0232 Uiso
C4_8 C 0.75931 0.05298 0.74225 0.0292 Uiso
H1_8 H 0.83315 0.16683 0.17414 0.0013 Uiso
O3_8 O 0.76754 0.04949 0.93841 0.0171 Uiso
C5_8 C 0.8509 0.14902 0.73001 0.0498 Uiso
H2_8 H 0.85579 0.14423 0.88505 0.0837 Uiso
C6_8 C 0.88490 0.20961 0.4328 0.0520 Uiso
C7_8 C 0.89473 0.19918 0.62957 0.0232 Uiso
C8_8 C 0.94702 0.24069 0.74225 0.0292 Uiso
O6_8 O 0.95051 0.23246 0.93841 0.0171 Uiso
C1_9 C 0.88490 0.67528 0.4328 0.0520 Uiso
C2_9 C 0.83728 0.67445 0.33285 0.0214 Uiso
C3_9 C 0.89473 0.69554 0.62957 0.0232 Uiso
C4_9 C 0.94702 0.70632 0.74225 0.0292 Uiso
H1_9 H 0.83317 0.66631 0.17414 0.0013 Uiso
O3_9 O 0.95051 0.71804 0.93841 0.0171 Uiso
C5_9 C 0.85098 0.70184 0.73001 0.0498 Uiso
H2_9 H 0.85577 0.71155 0.88505 0.0837 Uiso
C6_9 C 0.79039 0.67528 0.4328 0.0520 Uiso
C7_9 C 0.80082 0.69554 0.62957 0.0232 Uiso
C8_9 C 0.75931 0.70632 0.74225 0.0292 Uiso
O6_9 O 0.76754 0.71804 0.93841 0.0171 Uiso
loop_
_geom_bond_atom_site_label_1
_geom_bond_atom_site_label_2
_geom_bond_site_symmetry_1
_geom_bond_site_symmetry_2
C3 C1 1_555 1_555
C4 C3 1_555 1_555
O1 C1 1_555 1_555
O2 C4 1_555 1_555
O3 C4 1_555 1_555
C5 C3 1_555 1_555
H2 C5 1_555 1_555
C7 C5 1_555 1_555
C8 C7 1_555 1_555
O4 C6 1_555 1_555
O5 C8 1_555 1_555
O6 C8 1_555 1_555
Co3 O3 1_555 1_555
Co4 O6 1_555 1_555
Co6 O5 1_555 1_555
Co7 O1 1_555 1_555
Co8 O4 1_555 1_555
O2 Co7 1_555 1_555
C6 C7 1_555 1_555
O5 Co8 1_555 1_555
O10 Co8 1_555 1_555
C2 H1 1_555 1_555
O7 Co3 1_555 1_555
O8 Co4 1_555 1_555
O12 Co4 1_555 1_555
C3_2 C1_2 1_555 1_555
C4_2 C3_2 1_555 1_555
O1_2 C1_2 1_555 1_555
O2_2 C4_2 1_555 1_555
O3_2 C4_2 1_555 1_555
C5_2 C3_2 1_555 1_555
H2_2 C5_2 1_555 1_555
C7_2 C5_2 1_555 1_555
C8_2 C7_2 1_555 1_555
O4_2 C6_2 1_555 1_555
O5_2 C8_2 1_555 1_555
O6_2 C8_2 1_555 1_555
Co3_2 O3_2 1_555 1_555
Co4_2 O6_2 1_555 1_555
Co7_2 O1_2 1_555 1_555
Co8_2 O4_2 1_555 1_555
O2_2 Co7_2 1_555 1_555
C6_2 C7_2 1_555 1_555
O5_2 Co8_2 1_555 1_555
C2_2 H1_2 1_555 1_555
O7_2 Co3_2 1_555 1_555
O8_2 Co4_2 1_555 1_555
C3_3 C1_3 1_555 1_555
C4_3 C3_3 1_555 1_555
O1_3 C1_3 1_555 1_555
O2_3 C4_3 1_555 1_555
O3_3 C4_3 1_555 1_555
C5_3 C3_3 1_555 1_555
H2_3 C5_3 1_555 1_555
C7_3 C5_3 1_555 1_555
C8_3 C7_3 1_555 1_555
O4_3 C6_3 1_555 1_555
O5_3 C8_3 1_555 1_555
O6_3 C8_3 1_555 1_555
Co3_3 O3_3 1_555 1_555
Co4_3 O6_3 1_555 1_555
Co5_3 O2_3 1_555 1_555
Co7_3 O1_3 1_555 1_555
Co8_3 O4_3 1_555 1_555
O2_3 Co7_3 1_555 1_555
C6_3 C7_3 1_555 1_555
O5_3 Co8_3 1_555 1_555
O9_3 Co7_3 1_555 1_555
C2_3 H1_3 1_555 1_555
O7_3 Co3_3 1_555 1_555
O8_3 Co4_3 1_555 1_555
O11_3 Co3_3 1_555 1_555
O9_2 C4_4 1_555 1_555
O3_4 C4_4 1_555 1_555
H2_4 C5_4 1_555 1_555
O10_3 C8_4 1_555 1_555
O6_4 C8_4 1_555 1_555
Co5_2 O3_4 1_555 1_555
Co6_3 O6_4 1_555 1_555
C1_4 C2_4 1_555 1_555
C3_4 C1_4 1_555 1_555
C6_4 C2_4 1_555 1_555
O7_4 Co5_2 1_555 1_555
O8_4 Co6_3 1_555 1_555
O11_2 Co5_2 1_555 1_555
O12_3 Co6_3 1_555 1_555
C6_4 C7_4 1_555 1_555
O9_3 C4_5 1_555 1_555
O3_5 C4_5 1_555 1_555
H2_5 C5_5 1_555 1_555
O10 C8_5 1_555 1_555
O6_5 C8_5 1_555 1_555
Co5_3 O3_5 1_555 1_555
Co6 O6_5 1_555 1_555
C1_5 C2_5 1_555 1_555
C2_5 H1_5 1_555 1_555
C3_5 C1_5 1_555 1_555
O7_3 C1_5 1_555 1_555
Co5_3 O7_3 1_555 1_555
C6_5 C2_5 1_555 1_555
O8 C6_5 1_555 1_555
Co6 O8 1_555 1_555
O7_5 Co5_3 1_555 1_555
O8_5 Co6 1_555 1_555
O11_3 Co5_3 1_555 1_555
O12 Co6 1_555 1_555
C6_5 C7_5 1_555 1_555
O9 C4_6 1_555 1_555
O3_6 C4_6 1_555 1_555
H2_6 C5_6 1_555 1_555
O10_2 C8_6 1_555 1_555
O6_6 C8_6 1_555 1_555
Co5 O3_6 1_555 1_555
Co6_2 O6_6 1_555 1_555
C1_6 C2_6 1_555 1_555
C3_6 C1_6 1_555 1_555
C6_6 C2_6 1_555 1_555
O7_6 Co5 1_555 1_555
O8_6 Co6_2 1_555 1_555
O11 Co5 1_555 1_555
O12_2 Co6_2 1_555 1_555
C6_6 C7_6 1_555 1_555
C1_7 C2_7 1_555 1_555
C2_7 H1_7 1_555 1_555
C3_7 C1_7 1_555 1_555
C4_7 C3_7 1_555 1_555
O7_5 C1_7 1_555 1_555
O11_3 C4_7 1_555 1_555
O3_7 C4_7 1_555 1_555
C5_7 C3_7 1_555 1_555
H2_7 C5_7 1_555 1_555
Co7_3 O7_5 1_555 1_555
C6_7 C2_7 1_555 1_555
C7_7 C5_7 1_555 1_555
C8_7 C7_7 1_555 1_555
O8_6 C6_7 1_555 1_555
O12_2 C8_7 1_555 1_555
O6_7 C8_7 1_555 1_555
C6_7 C7_7 1_555 1_555
C1_8 C2_8 1_555 1_555
C2_8 H1_8 1_555 1_555
C3_8 C1_8 1_555 1_555
C4_8 C3_8 1_555 1_555
O7_6 C1_8 1_555 1_555
O11 C4_8 1_555 1_555
O3_8 C4_8 1_555 1_555
C5_8 C3_8 1_555 1_555
H2_8 C5_8 1_555 1_555
C6_8 C2_8 1_555 1_555
C7_8 C5_8 1_555 1_555
C8_8 C7_8 1_555 1_555
O8_4 C6_8 1_555 1_555
O12_3 C8_8 1_555 1_555
O6_8 C8_8 1_555 1_555
C6_8 C7_8 1_555 1_555
C1_9 C2_9 1_555 1_555
C2_9 H1_9 1_555 1_555
C3_9 C1_9 1_555 1_555
C4_9 C3_9 1_555 1_555
O7_4 C1_9 1_555 1_555
O11_2 C4_9 1_555 1_555
O3_9 C4_9 1_555 1_555
C5_9 C3_9 1_555 1_555
H2_9 C5_9 1_555 1_555
C6_9 C2_9 1_555 1_555
C7_9 C5_9 1_555 1_555
C8_9 C7_9 1_555 1_555
O8_5 C6_9 1_555 1_555
O12 C8_9 1_555 1_555
O6_9 C8_9 1_555 1_555
Co8 O8_5 1_555 1_555
C6_9 C7_9 1_555 1_555

#END
