
###############################################################################
#
# This file contains modified crystal structure data generated from the
# MOF subset of the Cambridge Structural Database (CSD) v543 
# hosted by the Cambridge Crystallographic Data Centre (CCDC).
#
# This work is licensed under the Creative Commons
# Attribution-NonCommercial-ShareAlike 4.0 International License.
# To view a copy of this license, visit
# http://creativecommons.org/licenses/by-nc-sa/4.0/
# or send a letter to
# Creative Commons, PO Box 1866, Mountain View, CA 94042, USA.
#
# CIF created using the CSD Python API on 29 September 2022
# The structure has been converted into the P1 space group
# The structure has a 3D framework
# The original CSD entry CODROD is in the orthorhombic crystal system
# The framework has been calculated to contain at least 10.0% void space
# The void calculation uses a probe of radius 1.32A, grid spacing 0.4
# H atom positions have been added when not included in the experimental data
# Generated hydrogen atom positions removed from atoms on special positions
#
###############################################################################

data_CODROD
_chemical_formula_moiety         '(C80 H160 O128 Pr16)n'
_symmetry_cell_setting           triclinic
_symmetry_space_group_name_H-M   'P 1'
_symmetry_Int_Tables_number      1
_space_group_name_Hall           'P 1'
loop_
_symmetry_equiv_pos_site_id
_symmetry_equiv_pos_as_xyz
1 x,y,z
_cell_length_a                   9.7442(19)
_cell_length_b                   15.474(3)
_cell_length_c                   27.893(6)
_cell_angle_alpha                90
_cell_angle_beta                 90
_cell_angle_gamma                90
_cell_volume                     4205.76
loop_
_atom_site_label
_atom_site_type_symbol
_atom_site_fract_x
_atom_site_fract_y
_atom_site_fract_z
Pr8 Pr 0.1250 0.1250 0.740814(8)
O12 O 0.3757(3) 0.02603(17) 0.01658(9)
Pr7 Pr 0.8750 0.3750 0.759186(8)
C6 C 0.4339(4) 0.0943(2) 0.72079(13)
C7 C 0.8161(4) 0.1557(2) 0.72079(13)
C9 C 0.5863(4) 0.0901(3) 0.71758(19)
C10 C 0.6637(4) 0.1599(3) 0.71758(19)
H3 H 0.625(7) 0.028(5) 0.715(2)
H4 H 0.625(7) 0.222(5) 0.715(2)
O9 O 0.3743(3) 0.02603(17) 0.73342(9)
O10 O 0.8757(3) 0.22397(17) 0.73342(9)
O17 O 0.3677(3) 0.16243(17) 0.71208(11)
O18 O 0.8823(3) 0.08757(17) 0.71208(11)
O11 O 0.3743(3) 0.72397(17) 0.01658(9)
O14 O 0.5269(3) 0.87201(17) 0.06526(9)
O15 O 0.2231(3) 0.87799(17) 0.06526(9)
Pr1 Pr 0.3750 0.8750 0.759186(8)
C1 C 0.3750 0.8245(3) 0.8750
C2 C 0.3161(4) 0.6557(2) 0.72079(13)
C3 C 0.1637(4) 0.6599(3) 0.71758(19)
H1 H 0.125(7) 0.722(5) 0.715(2)
O1 O 0.3859(3) 0.78860(15) 0.83521(8)
O2 O 0.3757(3) 0.72397(17) 0.73342(9)
O3 O 0.5269(3) 0.87799(17) 0.68474(9)
O4 O 0.3823(3) 0.58757(17) 0.71208(11)
Pr2 Pr 0.3750 0.8750 0.990814(8)
Pr3 Pr 0.6250 0.6250 0.740814(8)
C4 C 0.3750 0.9255(3) 0.8750
C8 C 0.0863(4) 0.5901(3) 0.71758(19)
H2 H 0.125(7) 0.528(5) 0.715(2)
O5 O 0.3641(3) 0.96140(15) 0.83521(8)
O6 O 0.3859(3) 0.96140(15) 0.91479(8)
O7 O 0.3641(3) 0.78860(15) 0.91479(8)
O13 O 0.2231(3) 0.87201(17) 0.68474(9)
O19 O 0.1323(3) 0.83757(17) 0.78792(11)
O20 O 0.6177(3) 0.91243(17) 0.78792(11)
O21 O 0.6177(3) 0.83757(17) 0.96208(11)
O22 O 0.1323(3) 0.91243(17) 0.96208(11)
C5 C 0.9339(4) 0.5943(2) 0.72079(13)
O8 O 0.8743(3) 0.52603(17) 0.73342(9)
O16 O 0.8677(3) 0.66243(17) 0.71208(11)
Pr8_2 Pr 0.1250 0.6250 0.240814(8)
Pr1_2 Pr 0.3750 0.3750 0.259186(8)
C1_2 C 0.3750 0.3245(3) 0.3750
C2_2 C 0.3161(4) 0.1557(2) 0.22079(13)
C3_2 C 0.1637(4) 0.1599(3) 0.21758(19)
H1_2 H 0.125(7) 0.222(5) 0.215(2)
O1_2 O 0.3859(3) 0.28860(15) 0.33521(8)
O2_2 O 0.3757(3) 0.22397(17) 0.23342(9)
O3_2 O 0.5269(3) 0.37799(17) 0.18474(9)
O4_2 O 0.3823(3) 0.08757(17) 0.21208(11)
Pr2_2 Pr 0.3750 0.3750 0.490814(8)
Pr3_2 Pr 0.6250 0.1250 0.240814(8)
Pr7_2 Pr 0.8750 0.8750 0.259186(8)
C4_2 C 0.3750 0.4255(3) 0.3750
C6_2 C 0.4339(4) 0.5943(2) 0.22079(13)
C7_2 C 0.8161(4) 0.6557(2) 0.22079(13)
C8_2 C 0.0863(4) 0.0901(3) 0.21758(19)
C9_2 C 0.5863(4) 0.5901(3) 0.21758(19)
C10_2 C 0.6637(4) 0.6599(3) 0.21758(19)
H2_2 H 0.125(7) 0.028(5) 0.215(2)
H3_2 H 0.625(7) 0.528(5) 0.215(2)
H4_2 H 0.625(7) 0.722(5) 0.215(2)
O5_2 O 0.3641(3) 0.46140(15) 0.33521(8)
O6_2 O 0.3859(3) 0.46140(15) 0.41479(8)
O7_2 O 0.3641(3) 0.28860(15) 0.41479(8)
O9_2 O 0.3743(3) 0.52603(17) 0.23342(9)
O10_2 O 0.8757(3) 0.72397(17) 0.23342(9)
O11_2 O 0.3743(3) 0.22397(17) 0.51658(9)
O12_2 O 0.3757(3) 0.52603(17) 0.51658(9)
O13_2 O 0.2231(3) 0.37201(17) 0.18474(9)
O14_2 O 0.5269(3) 0.37201(17) 0.56526(9)
O15_2 O 0.2231(3) 0.37799(17) 0.56526(9)
O17_2 O 0.3677(3) 0.66243(17) 0.21208(11)
O18_2 O 0.8823(3) 0.58757(17) 0.21208(11)
O19_2 O 0.1323(3) 0.33757(17) 0.28792(11)
O20_2 O 0.6177(3) 0.41243(17) 0.28792(11)
O21_2 O 0.6177(3) 0.33757(17) 0.46208(11)
O22_2 O 0.1323(3) 0.41243(17) 0.46208(11)
C5_2 C 0.9339(4) 0.0943(2) 0.22079(13)
O8_2 O 0.8743(3) 0.02603(17) 0.23342(9)
O16_2 O 0.8677(3) 0.16243(17) 0.21208(11)
Pr8_3 Pr 0.1250 0.1250 0.509186(8)
C2_3 C 0.3161(4) 0.5943(2) 0.52921(13)
C3_3 C 0.1637(4) 0.5901(3) 0.53242(19)
H1_3 H 0.125(7) 0.528(5) 0.535(2)
O4_3 O 0.3823(3) 0.66243(17) 0.53792(11)
Pr3_3 Pr 0.6250 0.6250 0.509186(8)
C6_3 C 0.4339(4) 0.1557(2) 0.52921(13)
C7_3 C 0.8161(4) 0.0943(2) 0.52921(13)
C8_3 C 0.0863(4) 0.6599(3) 0.53242(19)
C9_3 C 0.5863(4) 0.1599(3) 0.53242(19)
C10_3 C 0.6637(4) 0.0901(3) 0.53242(19)
H2_3 H 0.125(7) 0.722(5) 0.535(2)
H3_3 H 0.625(7) 0.222(5) 0.535(2)
H4_3 H 0.625(7) 0.028(5) 0.535(2)
O10_3 O 0.8757(3) 0.02603(17) 0.51658(9)
O17_3 O 0.3677(3) 0.08757(17) 0.53792(11)
O18_3 O 0.8823(3) 0.16243(17) 0.53792(11)
Pr7_3 Pr 0.8750 0.8750 0.490814(8)
C5_3 C 0.9339(4) 0.6557(2) 0.52921(13)
O8_3 O 0.8743(3) 0.72397(17) 0.51658(9)
O16_3 O 0.8677(3) 0.58757(17) 0.53792(11)
O3_3 O 0.0269(3) 0.87799(17) 0.18474(9)
O14_3 O 0.0269(3) 0.87201(17) 0.56526(9)
O20_3 O 0.1177(3) 0.91243(17) 0.28792(11)
O21_3 O 0.1177(3) 0.83757(17) 0.46208(11)
H5 H 0.0276537 0.819883 0.169634
H11 H 0.0276537 0.930117 0.580366
C1_3 C 0.8750 0.8245(3) 0.3750
O1_3 O 0.8859(3) 0.78860(15) 0.33521(8)
C4_3 C 0.8750 0.9255(3) 0.3750
O5_3 O 0.8641(3) 0.96140(15) 0.33521(8)
O6_3 O 0.8859(3) 0.96140(15) 0.41479(8)
O7_3 O 0.8641(3) 0.78860(15) 0.41479(8)
O13_3 O 0.7231(3) 0.87201(17) 0.18474(9)
O15_3 O 0.7231(3) 0.87799(17) 0.56526(9)
O19_3 O 0.6323(3) 0.83757(17) 0.28792(11)
O22_3 O 0.6323(3) 0.91243(17) 0.46208(11)
H6 H 0.990352 0.920976 0.161595
H12 H 0.990352 0.829024 0.588405
H7 H 0.123862 0.882011 0.555814
H9 H 0.123862 0.867989 0.194186
H8 H 0.997216 0.918037 0.587796
H10 H 0.997216 0.831963 0.162204
O14_4 O 0.0269(3) 0.37201(17) 0.06526(9)
H11_2 H 0.0276537 0.430117 0.0803658
O3_4 O 0.0269(3) 0.37799(17) 0.68474(9)
O20_4 O 0.1177(3) 0.41243(17) 0.78792(11)
O21_4 O 0.1177(3) 0.33757(17) 0.96208(11)
H5_2 H 0.0276537 0.319883 0.669634
O11_3 O 0.8743(3) 0.22397(17) 0.01658(9)
O12_3 O 0.8757(3) 0.52603(17) 0.01658(9)
O15_4 O 0.7231(3) 0.37799(17) 0.06526(9)
H12_2 H 0.990352 0.329024 0.0884048
C1_4 C 0.8750 0.3245(3) 0.8750
O1_4 O 0.8859(3) 0.28860(15) 0.83521(8)
Pr2_3 Pr 0.8750 0.3750 0.990814(8)
C4_4 C 0.8750 0.4255(3) 0.8750
O5_4 O 0.8641(3) 0.46140(15) 0.83521(8)
O6_4 O 0.8859(3) 0.46140(15) 0.91479(8)
O7_4 O 0.8641(3) 0.28860(15) 0.91479(8)
O13_4 O 0.7231(3) 0.37201(17) 0.68474(9)
O19_4 O 0.6323(3) 0.33757(17) 0.78792(11)
O22_4 O 0.6323(3) 0.41243(17) 0.96208(11)
H6_2 H 0.990352 0.420976 0.661595
H9_2 H 0.123862 0.382011 0.0558142
H7_2 H 0.123862 0.367989 0.694186
H10_2 H 0.997216 0.418037 0.0877958
H8_2 H 0.997216 0.331963 0.662204
Pr5 Pr 0.1250 0.6250 0.009186(8)
Pr6 Pr 0.6250 0.1250 0.009186(8)
C6_4 C 0.3161(4) 0.0943(2) 0.02921(13)
C9_4 C 0.1637(4) 0.0901(3) 0.03242(19)
C10_4 C 0.0863(4) 0.1599(3) 0.03242(19)
H3_4 H 0.125(7) 0.028(5) 0.035(2)
H4_4 H 0.125(7) 0.222(5) 0.035(2)
O17_4 O 0.3823(3) 0.16243(17) 0.03792(11)
C2_4 C 0.4339(4) 0.6557(2) 0.02921(13)
C3_4 C 0.5863(4) 0.6599(3) 0.03242(19)
H1_4 H 0.625(7) 0.722(5) 0.035(2)
O4_4 O 0.3677(3) 0.58757(17) 0.03792(11)
C5_4 C 0.8161(4) 0.5943(2) 0.02921(13)
C8_4 C 0.6637(4) 0.5901(3) 0.03242(19)
H2_4 H 0.625(7) 0.528(5) 0.035(2)
O16_4 O 0.8823(3) 0.66243(17) 0.03792(11)
C7_4 C 0.9339(4) 0.1557(2) 0.02921(13)
O18_4 O 0.8677(3) 0.08757(17) 0.03792(11)
C5_5 C 0.0661(4) 0.4057(2) 0.27921(13)
O8_4 O 0.1257(3) 0.47397(17) 0.26658(9)
C1_5 C 0.6250 0.1755(3) 0.1250
C2_5 C 0.6839(4) 0.3443(2) 0.27921(13)
C3_5 C 0.8363(4) 0.3401(3) 0.28242(19)
H1_5 H 0.875(7) 0.278(5) 0.285(2)
O1_5 O 0.6141(3) 0.21140(15) 0.16479(8)
O2_3 O 0.6243(3) 0.27603(17) 0.26658(9)
O3_5 O 0.4731(3) 0.12201(17) 0.31526(9)
C4_5 C 0.6250 0.0745(3) 0.1250
C8_5 C 0.9137(4) 0.4099(3) 0.28242(19)
H2_5 H 0.875(7) 0.472(5) 0.285(2)
O5_5 O 0.6359(3) 0.03860(15) 0.16479(8)
O6_5 O 0.6141(3) 0.03860(15) 0.08521(8)
O7_5 O 0.6359(3) 0.21140(15) 0.08521(8)
O13_5 O 0.7769(3) 0.12799(17) 0.31526(9)
O11_4 O 0.6257(3) 0.27603(17) 0.98342(9)
O14_5 O 0.4731(3) 0.12799(17) 0.93474(9)
O15_5 O 0.7769(3) 0.12201(17) 0.93474(9)
C6_5 C 0.5661(4) 0.9057(2) 0.27921(13)
C7_5 C 0.1839(4) 0.8443(2) 0.27921(13)
C9_5 C 0.4137(4) 0.9099(3) 0.28242(19)
C10_5 C 0.3363(4) 0.8401(3) 0.28242(19)
H3_5 H 0.375(7) 0.972(5) 0.285(2)
H4_5 H 0.375(7) 0.778(5) 0.285(2)
O9_3 O 0.6257(3) 0.97397(17) 0.26658(9)
O10_4 O 0.1243(3) 0.77603(17) 0.26658(9)
O12_4 O 0.6243(3) 0.97397(17) 0.98342(9)
C5_6 C 0.0661(4) 0.9057(2) 0.77921(13)
O8_5 O 0.1257(3) 0.97397(17) 0.76658(9)
C1_6 C 0.6250 0.6755(3) 0.6250
C2_6 C 0.6839(4) 0.8443(2) 0.77921(13)
C3_6 C 0.8363(4) 0.8401(3) 0.78242(19)
H1_6 H 0.875(7) 0.778(5) 0.785(2)
O1_6 O 0.6141(3) 0.71140(15) 0.66479(8)
O2_4 O 0.6243(3) 0.77603(17) 0.76658(9)
O3_6 O 0.4731(3) 0.62201(17) 0.81526(9)
C4_6 C 0.6250 0.5745(3) 0.6250
C6_6 C 0.5661(4) 0.4057(2) 0.77921(13)
C7_6 C 0.1839(4) 0.3443(2) 0.77921(13)
C8_6 C 0.9137(4) 0.9099(3) 0.78242(19)
C9_6 C 0.4137(4) 0.4099(3) 0.78242(19)
C10_6 C 0.3363(4) 0.3401(3) 0.78242(19)
H2_6 H 0.875(7) 0.972(5) 0.785(2)
H3_6 H 0.375(7) 0.472(5) 0.785(2)
H4_6 H 0.375(7) 0.278(5) 0.785(2)
O5_6 O 0.6359(3) 0.53860(15) 0.66479(8)
O6_6 O 0.6141(3) 0.53860(15) 0.58521(8)
O7_6 O 0.6359(3) 0.71140(15) 0.58521(8)
O9_4 O 0.6257(3) 0.47397(17) 0.76658(9)
O10_5 O 0.1243(3) 0.27603(17) 0.76658(9)
O11_5 O 0.6257(3) 0.77603(17) 0.48342(9)
O12_5 O 0.6243(3) 0.47397(17) 0.48342(9)
O13_6 O 0.7769(3) 0.62799(17) 0.81526(9)
O14_6 O 0.4731(3) 0.62799(17) 0.43474(9)
O15_6 O 0.7769(3) 0.62201(17) 0.43474(9)
C5_7 C 0.0661(4) 0.3443(2) 0.47079(13)
O8_6 O 0.1257(3) 0.27603(17) 0.48342(9)
C2_7 C 0.6839(4) 0.4057(2) 0.47079(13)
C3_7 C 0.8363(4) 0.4099(3) 0.46758(19)
H1_7 H 0.875(7) 0.472(5) 0.465(2)
C6_7 C 0.5661(4) 0.8443(2) 0.47079(13)
C7_7 C 0.1839(4) 0.9057(2) 0.47079(13)
C8_7 C 0.9137(4) 0.3401(3) 0.46758(19)
C9_7 C 0.4137(4) 0.8401(3) 0.46758(19)
C10_7 C 0.3363(4) 0.9099(3) 0.46758(19)
H2_7 H 0.875(7) 0.278(5) 0.465(2)
H3_7 H 0.375(7) 0.778(5) 0.465(2)
H4_7 H 0.375(7) 0.972(5) 0.465(2)
O10_6 O 0.1243(3) 0.97397(17) 0.48342(9)
C1_7 C 0.1250 0.1755(3) 0.6250
O1_7 O 0.1141(3) 0.21140(15) 0.66479(8)
C4_7 C 0.1250 0.0745(3) 0.6250
O5_7 O 0.1359(3) 0.03860(15) 0.66479(8)
O6_7 O 0.1141(3) 0.03860(15) 0.58521(8)
O7_7 O 0.1359(3) 0.21140(15) 0.58521(8)
O13_7 O 0.2769(3) 0.12799(17) 0.81526(9)
O15_7 O 0.2769(3) 0.12201(17) 0.43474(9)
H6_3 H 0.00964822 0.079024 0.838405
H12_3 H 0.00964822 0.170976 0.411595
O3_7 O 0.9731(3) 0.12201(17) 0.81526(9)
O14_7 O 0.9731(3) 0.12799(17) 0.43474(9)
H5_3 H 0.972346 0.180117 0.830366
H11_3 H 0.972346 0.0698832 0.419634
H8_3 H 0.00278363 0.0819629 0.412204
H10_3 H 0.00278363 0.168037 0.837796
H7_3 H 0.876138 0.117989 0.444186
H9_3 H 0.876138 0.132011 0.805814
C1_8 C 0.1250 0.6755(3) 0.1250
O1_8 O 0.1141(3) 0.71140(15) 0.16479(8)
C4_8 C 0.1250 0.5745(3) 0.1250
O5_8 O 0.1359(3) 0.53860(15) 0.16479(8)
O6_8 O 0.1141(3) 0.53860(15) 0.08521(8)
O7_8 O 0.1359(3) 0.71140(15) 0.08521(8)
O13_8 O 0.2769(3) 0.62799(17) 0.31526(9)
H6_4 H 0.00964822 0.579024 0.338405
O11_6 O 0.1257(3) 0.77603(17) 0.98342(9)
O12_6 O 0.1243(3) 0.47397(17) 0.98342(9)
O15_8 O 0.2769(3) 0.62201(17) 0.93474(9)
H12_4 H 0.00964822 0.670976 0.911595
O3_8 O 0.9731(3) 0.62201(17) 0.31526(9)
H5_4 H 0.972346 0.680117 0.330366
O14_8 O 0.9731(3) 0.62799(17) 0.93474(9)
H11_4 H 0.972346 0.569883 0.919634
H8_4 H 0.00278363 0.668037 0.337796
H10_4 H 0.00278363 0.581963 0.912204
H7_4 H 0.876138 0.632011 0.305814
H9_4 H 0.876138 0.617989 0.944186
C7_8 C 0.0661(4) 0.8443(2) 0.97079(13)
C2_8 C 0.5661(4) 0.3443(2) 0.97079(13)
C3_8 C 0.4137(4) 0.3401(3) 0.96758(19)
H1_8 H 0.375(7) 0.278(5) 0.965(2)
C5_8 C 0.1839(4) 0.4057(2) 0.97079(13)
C8_8 C 0.3363(4) 0.4099(3) 0.96758(19)
H2_8 H 0.375(7) 0.472(5) 0.965(2)
C6_8 C 0.6839(4) 0.9057(2) 0.97079(13)
C9_8 C 0.8363(4) 0.9099(3) 0.96758(19)
C10_8 C 0.9137(4) 0.8401(3) 0.96758(19)
H3_8 H 0.875(7) 0.972(5) 0.965(2)
H4_8 H 0.875(7) 0.778(5) 0.965(2)
loop_
_geom_bond_atom_site_label_1
_geom_bond_atom_site_label_2
_geom_bond_site_symmetry_1
_geom_bond_site_symmetry_2
Pr8 O17 1_555 1_555
Pr7 O10 1_555 1_555
C6 C9 1_555 1_555
C7 C10 1_555 1_555
C9 C10 1_555 1_555
C10 H4 1_555 1_555
H3 C9 1_555 1_555
O10 C7 1_555 1_555
O17 C6 1_555 1_555
O18 C7 1_555 1_555
C6 O9 1_555 1_555
Pr1 O1 1_555 1_555
C1 O1 1_555 1_555
C2 C3 1_555 1_555
C3 H1 1_555 1_555
O2 Pr1 1_555 1_555
O3 Pr1 1_555 1_555
O4 C2 1_555 1_555
Pr2 O6 1_555 1_555
Pr3 O4 1_555 1_555
C4 C1 1_555 1_555
C8 C3 1_555 1_555
H2 C8 1_555 1_555
O5 Pr1 1_555 1_555
O6 C4 1_555 1_555
O7 C1 1_555 1_555
O13 Pr1 1_555 1_555
O19 Pr1 1_555 1_555
O20 Pr1 1_555 1_555
O21 Pr2 1_555 1_555
O22 Pr2 1_555 1_555
C2 O2 1_555 1_555
Pr2 O7 1_555 1_555
C4 O5 1_555 1_555
Pr7 O8 1_555 1_555
Pr3 O16 1_555 1_555
O8 C5 1_555 1_555
O16 C5 1_555 1_555
Pr1_2 O1_2 1_555 1_555
C1_2 O1_2 1_555 1_555
C2_2 C3_2 1_555 1_555
C3_2 H1_2 1_555 1_555
O2_2 Pr1_2 1_555 1_555
O3_2 Pr1_2 1_555 1_555
O4_2 C2_2 1_555 1_555
Pr2_2 O6_2 1_555 1_555
Pr3_2 O4_2 1_555 1_555
Pr8_2 O17_2 1_555 1_555
Pr7_2 O10_2 1_555 1_555
C4_2 C1_2 1_555 1_555
C6_2 C9_2 1_555 1_555
C7_2 C10_2 1_555 1_555
C8_2 C3_2 1_555 1_555
C9_2 C10_2 1_555 1_555
C10_2 H4_2 1_555 1_555
H2_2 C8_2 1_555 1_555
H3_2 C9_2 1_555 1_555
O5_2 Pr1_2 1_555 1_555
O6_2 C4_2 1_555 1_555
O7_2 C1_2 1_555 1_555
O9_2 Pr1_2 1_555 1_555
O10_2 C7_2 1_555 1_555
O11_2 Pr2_2 1_555 1_555
O12_2 Pr2_2 1_555 1_555
O13_2 Pr1_2 1_555 1_555
O14_2 Pr2_2 1_555 1_555
O15_2 Pr2_2 1_555 1_555
O17_2 C6_2 1_555 1_555
O18_2 C7_2 1_555 1_555
O19_2 Pr1_2 1_555 1_555
O20_2 Pr1_2 1_555 1_555
O21_2 Pr2_2 1_555 1_555
O22_2 Pr2_2 1_555 1_555
C2_2 O2_2 1_555 1_555
Pr2_2 O7_2 1_555 1_555
C4_2 O5_2 1_555 1_555
C6_2 O9_2 1_555 1_555
Pr3_2 O16_2 1_555 1_555
O8_2 C5_2 1_555 1_555
O16_2 C5_2 1_555 1_555
C2_3 C3_3 1_555 1_555
C3_3 H1_3 1_555 1_555
O4_3 C2_3 1_555 1_555
Pr3_3 O4_3 1_555 1_555
Pr8_3 O17_3 1_555 1_555
C6_3 C9_3 1_555 1_555
C7_3 C10_3 1_555 1_555
C8_3 C3_3 1_555 1_555
C9_3 C10_3 1_555 1_555
C10_3 H4_3 1_555 1_555
H2_3 C8_3 1_555 1_555
H3_3 C9_3 1_555 1_555
O10_3 C7_3 1_555 1_555
O17_3 C6_3 1_555 1_555
O18_3 C7_3 1_555 1_555
C2_3 O12_2 1_555 1_555
C6_3 O11_2 1_555 1_555
Pr7_3 O8_3 1_555 1_555
Pr3_3 O16_3 1_555 1_555
O8_3 C5_3 1_555 1_555
O16_3 C5_3 1_555 1_555
O3_3 H5 1_555 1_555
O14_3 H11 1_555 1_555
Pr7_2 O1_3 1_555 1_555
C1_3 O1_3 1_555 1_555
Pr7_3 O6_3 1_555 1_555
C4_3 C1_3 1_555 1_555
O5_3 Pr7_2 1_555 1_555
O6_3 C4_3 1_555 1_555
O7_3 C1_3 1_555 1_555
O13_3 Pr7_2 1_555 1_555
O15_3 Pr7_3 1_555 1_555
O19_3 Pr7_2 1_555 1_555
O22_3 Pr7_3 1_555 1_555
Pr7_3 O7_3 1_555 1_555
C4_3 O5_3 1_555 1_555
O14_3 H7 1_555 1_555
O3_3 H9 1_555 1_555
O14_4 H11_2 1_555 1_555
O3_4 H5_2 1_555 1_555
Pr7 O1_4 1_555 1_555
C1_4 O1_4 1_555 1_555
Pr2_3 O6_4 1_555 1_555
C4_4 C1_4 1_555 1_555
O5_4 Pr7 1_555 1_555
O6_4 C4_4 1_555 1_555
O7_4 C1_4 1_555 1_555
O13_4 Pr7 1_555 1_555
O19_4 Pr7 1_555 1_555
O22_4 Pr2_3 1_555 1_555
Pr2_3 O7_4 1_555 1_555
C4_4 O5_4 1_555 1_555
O14_4 H9_2 1_555 1_555
O3_4 H7_2 1_555 1_555
Pr6 O17_4 1_555 1_555
C6_4 C9_4 1_555 1_555
C9_4 C10_4 1_555 1_555
C10_4 H4_4 1_555 1_555
H3_4 C9_4 1_555 1_555
O17_4 C6_4 1_555 1_555
C6_4 O12 1_555 1_555
C2_4 C3_4 1_555 1_555
C3_4 H1_4 1_555 1_555
O4_4 C2_4 1_555 1_555
Pr5 O4_4 1_555 1_555
C5_4 C8_4 1_555 1_555
C8_4 C3_4 1_555 1_555
H2_4 C8_4 1_555 1_555
O12_3 C5_4 1_555 1_555
O16_4 C5_4 1_555 1_555
C2_4 O11 1_555 1_555
Pr6 O18_4 1_555 1_555
O11_3 C7_4 1_555 1_555
O18_4 C7_4 1_555 1_555
Pr8_2 O8_4 1_555 1_555
O8_4 C5_5 1_555 1_555
O19_2 C5_5 1_555 1_555
Pr3_2 O1_5 1_555 1_555
C1_5 O1_5 1_555 1_555
C2_5 C3_5 1_555 1_555
C3_5 H1_5 1_555 1_555
O2_3 Pr3_2 1_555 1_555
O3_5 Pr3_2 1_555 1_555
O20_2 C2_5 1_555 1_555
Pr6 O6_5 1_555 1_555
C4_5 C1_5 1_555 1_555
C8_5 C3_5 1_555 1_555
H2_5 C8_5 1_555 1_555
O5_5 Pr3_2 1_555 1_555
O6_5 C4_5 1_555 1_555
O7_5 C1_5 1_555 1_555
O13_5 Pr3_2 1_555 1_555
C2_5 O2_3 1_555 1_555
Pr6 O7_5 1_555 1_555
C4_5 O5_5 1_555 1_555
Pr8_2 O10_4 1_555 1_555
C6_5 C9_5 1_555 1_555
C7_5 C10_5 1_555 1_555
C9_5 C10_5 1_555 1_555
C10_5 H4_5 1_555 1_555
H3_5 C9_5 1_555 1_555
O10_4 C7_5 1_555 1_555
O19_3 C6_5 1_555 1_555
O20_3 C7_5 1_555 1_555
C6_5 O9_3 1_555 1_555
O8_5 C5_6 1_555 1_555
O19 C5_6 1_555 1_555
Pr3 O1_6 1_555 1_555
C1_6 O1_6 1_555 1_555
C2_6 C3_6 1_555 1_555
C3_6 H1_6 1_555 1_555
O2_4 Pr3 1_555 1_555
O3_6 Pr3 1_555 1_555
O20 C2_6 1_555 1_555
Pr3_3 O6_6 1_555 1_555
Pr8 O10_5 1_555 1_555
C4_6 C1_6 1_555 1_555
C6_6 C9_6 1_555 1_555
C7_6 C10_6 1_555 1_555
C8_6 C3_6 1_555 1_555
C9_6 C10_6 1_555 1_555
C10_6 H4_6 1_555 1_555
H2_6 C8_6 1_555 1_555
H3_6 C9_6 1_555 1_555
O5_6 Pr3 1_555 1_555
O6_6 C4_6 1_555 1_555
O7_6 C1_6 1_555 1_555
O9_4 Pr3 1_555 1_555
O10_5 C7_6 1_555 1_555
O11_5 Pr3_3 1_555 1_555
O12_5 Pr3_3 1_555 1_555
O13_6 Pr3 1_555 1_555
O14_6 Pr3_3 1_555 1_555
O15_6 Pr3_3 1_555 1_555
O19_4 C6_6 1_555 1_555
O20_4 C7_6 1_555 1_555
C2_6 O2_4 1_555 1_555
Pr3_3 O7_6 1_555 1_555
C4_6 O5_6 1_555 1_555
C6_6 O9_4 1_555 1_555
Pr8_3 O8_6 1_555 1_555
O8_6 C5_7 1_555 1_555
O22_2 C5_7 1_555 1_555
C2_7 C3_7 1_555 1_555
C3_7 H1_7 1_555 1_555
O21_2 C2_7 1_555 1_555
C6_7 C9_7 1_555 1_555
C7_7 C10_7 1_555 1_555
C8_7 C3_7 1_555 1_555
C9_7 C10_7 1_555 1_555
C10_7 H4_7 1_555 1_555
H2_7 C8_7 1_555 1_555
H3_7 C9_7 1_555 1_555
O10_6 C7_7 1_555 1_555
O22_3 C6_7 1_555 1_555
O21_3 C7_7 1_555 1_555
C2_7 O12_5 1_555 1_555
C6_7 O11_5 1_555 1_555
Pr8 O1_7 1_555 1_555
C1_7 O1_7 1_555 1_555
Pr8_3 O6_7 1_555 1_555
C4_7 C1_7 1_555 1_555
O5_7 Pr8 1_555 1_555
O6_7 C4_7 1_555 1_555
O7_7 C1_7 1_555 1_555
O13_7 Pr8 1_555 1_555
O15_7 Pr8_3 1_555 1_555
Pr8_3 O7_7 1_555 1_555
C4_7 O5_7 1_555 1_555
O3_7 H5_3 1_555 1_555
O14_7 H11_3 1_555 1_555
O14_7 H7_3 1_555 1_555
O3_7 H9_3 1_555 1_555
Pr8_2 O1_8 1_555 1_555
C1_8 O1_8 1_555 1_555
Pr5 O6_8 1_555 1_555
C4_8 C1_8 1_555 1_555
O5_8 Pr8_2 1_555 1_555
O6_8 C4_8 1_555 1_555
O7_8 C1_8 1_555 1_555
O13_8 Pr8_2 1_555 1_555
Pr5 O7_8 1_555 1_555
C4_8 O5_8 1_555 1_555
O3_8 H5_4 1_555 1_555
O14_8 H11_4 1_555 1_555
O3_8 H7_4 1_555 1_555
O14_8 H9_4 1_555 1_555
O11_6 C7_8 1_555 1_555
O22 C7_8 1_555 1_555
C2_8 C3_8 1_555 1_555
C3_8 H1_8 1_555 1_555
O22_4 C2_8 1_555 1_555
C5_8 C8_8 1_555 1_555
C8_8 C3_8 1_555 1_555
H2_8 C8_8 1_555 1_555
O12_6 C5_8 1_555 1_555
O21_4 C5_8 1_555 1_555
C2_8 O11_4 1_555 1_555
C6_8 C9_8 1_555 1_555
C9_8 C10_8 1_555 1_555
C10_8 H4_8 1_555 1_555
H3_8 C9_8 1_555 1_555
O21 C6_8 1_555 1_555
C6_8 O12_4 1_555 1_555

#END
