
###############################################################################
#
# This file contains modified crystal structure data generated from the
# MOF subset of the Cambridge Structural Database (CSD) v543 
# hosted by the Cambridge Crystallographic Data Centre (CCDC).
#
# This work is licensed under the Creative Commons
# Attribution-NonCommercial-ShareAlike 4.0 International License.
# To view a copy of this license, visit
# http://creativecommons.org/licenses/by-nc-sa/4.0/
# or send a letter to
# Creative Commons, PO Box 1866, Mountain View, CA 94042, USA.
#
# CIF created using the CSD Python API on 29 September 2022
# The structure has been converted into the P1 space group
# The structure has a 3D framework
# The original CSD entry COFLUH is in the monoclinic crystal system
# The framework has been calculated to contain at least 10.0% void space
# The void calculation uses a probe of radius 1.32A, grid spacing 0.4
#
###############################################################################

data_COFLUH
_chemical_formula_moiety         '(C112 H80 Cd6 N44 O24)n'
_symmetry_cell_setting           triclinic
_symmetry_space_group_name_H-M   'P 1'
_symmetry_Int_Tables_number      1
_space_group_name_Hall           'P 1'
loop_
_symmetry_equiv_pos_site_id
_symmetry_equiv_pos_as_xyz
1 x,y,z
_cell_length_a                   19.0296(10)
_cell_length_b                   6.9064(4)
_cell_length_c                   25.2908(14)
_cell_angle_alpha                90
_cell_angle_beta                 111.3980(10)
_cell_angle_gamma                90
_cell_volume                     3094.75
loop_
_atom_site_label
_atom_site_type_symbol
_atom_site_fract_x
_atom_site_fract_y
_atom_site_fract_z
Cd9 Cd 0.71553(2) 0.15418(5) 0.83618(2)
Cd1 Cd 0.01566(2) 0.54806(5) 0.25055(2)
Cd2 Cd 0.21553(2) 0.34582(5) 0.33618(2)
C1 C 0.5382(3) 0.7923(8) 0.5104(2)
H1 H 0.5504 0.8099 0.4783
C2 C 0.5916(3) 0.8344(8) 0.5640(2)
H2 H 0.6396 0.8757 0.5675
C3 C 0.5728(3) 0.8144(7) 0.6124(2)
C4 C 0.5015(3) 0.7458(8) 0.6059(2)
H3 H 0.4886 0.7300 0.6378
C5 C 0.4497(3) 0.7012(8) 0.5533(2)
H4 H 0.4023 0.6549 0.5498
C6 C 0.4676(3) 0.7249(8) 0.5044(2)
C7 C 0.4104(3) 0.6805(7) 0.4485(2)
C8 C 0.3397(3) 0.6041(9) 0.4338(2)
H5 H 0.3159 0.5773 0.4592
C9 C 0.3600(3) 0.6333(8) 0.3562(2)
H6 H 0.3538 0.6318 0.3179
C10 C 0.6280(3) 0.8718(7) 0.66774(19)
N1 N 0.3084(2) 0.5720(7) 0.37614(17)
N2 N 0.4218(2) 0.6972(7) 0.39750(17)
H16 H 0.4617 0.7412 0.3933
N3 N 0.7029(2) 0.8676(6) 0.68083(16)
N4 N 0.7342(2) 0.9448(6) 0.73285(17)
N5 N 0.6805(2) 0.9939(6) 0.75022(16)
N6 N 0.6120(2) 0.9477(6) 0.71055(16)
O6 O 0.1209(2) 0.5670(6) 0.34355(15)
H19 H 0.1407 0.6978 0.3509
H20 H 0.1043 0.5283 0.3740
Cd5 Cd 0.51566(2) 0.95194(5) 0.75055(2)
Cd7 Cd 0.78447(2) 0.65418(5) 0.66382(2)
N13 N 0.2971(2) 0.1324(6) 0.31917(16)
N14 N 0.1805(2) 0.5061(6) 0.25022(16)
N15 N 0.1120(2) 0.5523(6) 0.21055(16)
N16 N 0.0369(2) 0.2092(6) 0.26748(18)
N17 N 0.1076(2) 0.1393(6) 0.28827(18)
N18 N 0.0347(2) 0.8936(6) 0.25609(18)
O7 O 0.2223(2) 0.2422(7) 0.42234(16)
Cd4 Cd 0.48434(2) 0.04806(5) 0.24945(2)
C11 C 0.6237(3) 0.6266(9) 0.2355(2)
H7 H 0.5932 0.6708 0.1998
C12 C 0.7009(3) 0.6305(9) 0.2513(3)
H8 H 0.7217 0.6773 0.2258
C13 C 0.7476(3) 0.5674(8) 0.3034(2)
C14 C 0.7154(3) 0.4943(9) 0.3408(2)
H9 H 0.7463 0.4472 0.3760
C15 C 0.6379(3) 0.4915(9) 0.3257(2)
H10 H 0.6171 0.4452 0.3514
C16 C 0.5906(3) 0.5572(7) 0.2726(2)
C17 C 0.5073(3) 0.5529(7) 0.25223(19)
C18 C 0.8295(3) 0.5705(8) 0.3163(2)
C19 C 0.8672(3) 0.6127(8) 0.2810(2)
H11 H 0.8442 0.6568 0.2439
C20 C 0.9521(3) 0.5198(10) 0.3588(2)
H12 H 0.9982 0.4862 0.3864
C21 C 0.7886(3) 0.3243(9) 0.0422(2)
H13 H 0.8237 0.2761 0.0279
C22 C 0.8129(3) 0.4094(8) 0.0955(2)
C23 C 0.7594(3) 0.4793(10) 0.1161(2)
H14 H 0.7756 0.5391 0.1515
C24 C 0.6826(3) 0.4626(11) 0.0856(3)
C25 C 0.6584(3) 0.3779(13) 0.0318(3)
H15 H 0.6072 0.3662 0.0106
C26 C 0.7115(3) 0.3108(11) 0.0101(2)
C28 C 0.8964(3) 0.4185(8) 0.1322(2)
N7 N 0.9433(2) 0.5818(7) 0.30731(19)
N8 N 0.8850(3) 0.5118(9) 0.3658(2)
H17 H 0.8783 0.4758 0.3961
N9 N 0.4631(2) 0.7092(6) 0.23252(18)
N10 N 0.3924(2) 0.6393(6) 0.21173(18)
N11 N 0.3927(2) 0.4534(6) 0.2183(2)
N12 N 0.4653(2) 0.3936(6) 0.24391(18)
O1 O 0.9113(2) 0.5263(6) 0.17510(15)
O2 O 0.9412(2) 0.3211(6) 0.11854(17)
O5 O 0.6338(3) 0.5403(11) 0.1078(2)
H18 H 0.6576 0.5899 0.1386
Cd6 Cd 0.28447(2) 0.84582(5) 0.16382(2)
C27 C 0.6865(3) 0.2159(12) 0.9523(2)
O3 O 0.7223(2) 0.2578(7) 0.92234(16)
O4 O 0.6338(5) 0.0969(16) 0.9402(3)
N11_2 N 0.1073(2) 0.9534(6) 0.2817(2)
C7_2 C 0.0896(3) 0.1805(7) 0.0515(2)
C8_2 C 0.1603(3) 0.1041(9) 0.0662(2)
H5_2 H 0.1841 0.0773 0.0408
C9_2 C 0.1400(3) 0.1333(8) 0.1438(2)
H6_2 H 0.1462 0.1318 0.1821
C11_2 C 0.8763(3) 0.1266(9) 0.2645(2)
H7_2 H 0.9068 0.1708 0.3002
C12_2 C 0.7991(3) 0.1305(9) 0.2487(3)
H8_2 H 0.7783 0.1773 0.2742
C13_2 C 0.7524(3) 0.0674(8) 0.1966(2)
C16_2 C 0.9094(3) 0.0572(7) 0.2274(2)
C17_2 C 0.9927(3) 0.0529(7) 0.24777(19)
C18_2 C 0.6705(3) 0.0705(8) 0.1837(2)
C19_2 C 0.6328(3) 0.1127(8) 0.2190(2)
H11_2 H 0.6558 0.1568 0.2561
C20_2 C 0.5479(3) 0.0198(10) 0.1412(2)
H14_2 H 0.7244 0.0391 0.3485
N1_2 N 0.1916(2) 0.0720(7) 0.12386(17)
N2_2 N 0.0782(2) 0.1972(7) 0.10250(17)
H16_2 H 0.0383 0.2412 0.1067
N7_2 N 0.5567(2) 0.0818(7) 0.19269(19)
N8_2 N 0.6150(3) 0.0118(9) 0.1342(2)
O1_2 O 0.5887(2) 0.0263(6) 0.32490(15)
O5_2 O 0.8662(3) 0.0403(11) 0.3922(2)
H18_2 H 0.8424 0.0899 0.3614
O6_2 O 0.3791(2) 0.0670(6) 0.15645(15)
H19_2 H 0.3593 0.1978 0.1491
H20_2 H 0.3957 0.0283 0.1260
N14_2 N 0.3195(2) 0.0061(6) 0.24978(16)
N15_2 N 0.3880(2) 0.0523(6) 0.28945(16)
C14_2 C 0.7846(3) 0.9943(9) 0.1592(2)
H9_2 H 0.7537 0.9472 0.1240
C15_2 C 0.8621(3) 0.9915(9) 0.1743(2)
H10_2 H 0.8829 0.9452 0.1486
H12_2 H 0.5018 0.9862 0.1136
C21_2 C 0.7114(3) 0.8243(9) 0.4578(2)
H13_2 H 0.6763 0.7761 0.4721
C22_2 C 0.6871(3) 0.9094(8) 0.4045(2)
C23_2 C 0.7406(3) 0.9793(10) 0.3839(2)
C24_2 C 0.8174(3) 0.9626(11) 0.4144(3)
C25_2 C 0.8416(3) 0.8779(13) 0.4682(3)
H15_2 H 0.8928 0.8662 0.4894
C26_2 C 0.7885(3) 0.8108(11) 0.4899(2)
C27_2 C 0.8135(3) 0.7159(12) 0.5477(2)
C28_2 C 0.6036(3) 0.9185(8) 0.3678(2)
H17_2 H 0.6217 0.9758 0.1039
O2_2 O 0.5588(2) 0.8211(6) 0.38146(17)
O3_2 O 0.7777(2) 0.7578(7) 0.57766(16)
O4_2 O 0.8662(5) 0.5969(16) 0.5598(3)
N13_2 N 0.2029(2) 0.6324(6) 0.18083(16)
O7_2 O 0.2777(2) 0.7422(7) 0.07766(16)
C1_2 C 0.9618(3) 0.2923(8) 0.9896(2)
C2_2 C 0.9084(3) 0.3344(8) 0.9360(2)
H2_2 H 0.8604 0.3757 0.9325
C3_2 C 0.9272(3) 0.3144(7) 0.8876(2)
C4_2 C 0.9985(3) 0.2458(8) 0.8941(2)
C10_2 C 0.8720(3) 0.3718(7) 0.83226(19)
N3_2 N 0.7971(2) 0.3676(6) 0.81917(16)
N4_2 N 0.7658(2) 0.4448(6) 0.76715(17)
N5_2 N 0.8195(2) 0.4939(6) 0.74978(16)
N6_2 N 0.8880(2) 0.4477(6) 0.78945(16)
Cd5_2 Cd 0.98434(2) 0.45194(5) 0.74945(2)
C27_3 C 0.3135(3) 0.7841(12) 0.0477(2)
O4_3 O 0.3662(5) 0.9031(16) 0.0598(3)
C11_3 C 0.3763(3) 0.3734(9) 0.7645(2)
H7_3 H 0.4068 0.3292 0.8002
C12_3 C 0.2991(3) 0.3695(9) 0.7487(3)
H8_3 H 0.2783 0.3227 0.7742
C13_3 C 0.2524(3) 0.4326(8) 0.6966(2)
C14_3 C 0.2846(3) 0.5057(9) 0.6592(2)
H9_3 H 0.2537 0.5528 0.6240
C15_3 C 0.3621(3) 0.5085(9) 0.6743(2)
H10_3 H 0.3829 0.5548 0.6486
C16_3 C 0.4094(3) 0.4428(7) 0.7274(2)
C17_3 C 0.4927(3) 0.4471(7) 0.74777(19)
C18_3 C 0.1705(3) 0.4295(8) 0.6837(2)
C19_3 C 0.1328(3) 0.3873(8) 0.7190(2)
H11_3 H 0.1558 0.3432 0.7561
C20_3 C 0.0479(3) 0.4802(10) 0.6412(2)
H12_3 H 0.0018 0.5138 0.6136
C21_3 C 0.2114(3) 0.6757(9) 0.9578(2)
H13_3 H 0.1763 0.7239 0.9721
C22_3 C 0.1871(3) 0.5906(8) 0.9045(2)
C23_3 C 0.2406(3) 0.5207(10) 0.8839(2)
H14_3 H 0.2244 0.4609 0.8485
C24_3 C 0.3174(3) 0.5374(11) 0.9144(3)
C25_3 C 0.3416(3) 0.6221(13) 0.9682(3)
H15_3 H 0.3928 0.6338 0.9894
C26_3 C 0.2885(3) 0.6892(11) 0.9899(2)
C28_3 C 0.1036(3) 0.5815(8) 0.8678(2)
N7_3 N 0.0567(2) 0.4182(7) 0.69269(19)
N8_3 N 0.1150(3) 0.4882(9) 0.6342(2)
H17_3 H 0.1217 0.5242 0.6039
N9_2 N 0.5369(2) 0.2908(6) 0.76748(18)
N10_2 N 0.6076(2) 0.3607(6) 0.78827(18)
N11_3 N 0.6073(2) 0.5466(6) 0.7817(2)
N12_2 N 0.5347(2) 0.6064(6) 0.75609(18)
O1_3 O 0.0887(2) 0.4737(6) 0.82490(15)
O2_3 O 0.0588(2) 0.6789(6) 0.88146(17)
O5_3 O 0.3662(3) 0.4597(11) 0.8922(2)
H18_3 H 0.3424 0.4101 0.8614
C1_3 C 0.4618(3) 0.2077(8) 0.4896(2)
H1_2 H 0.4496 0.1901 0.5217
C2_3 C 0.4084(3) 0.1656(8) 0.4360(2)
H2_3 H 0.3604 0.1243 0.4325
C3_3 C 0.4272(3) 0.1856(7) 0.3876(2)
C4_3 C 0.4985(3) 0.2542(8) 0.3941(2)
H3_2 H 0.5114 0.2700 0.3622
C5_2 C 0.5503(3) 0.2988(8) 0.4467(2)
H4_2 H 0.5977 0.3451 0.4502
C6_2 C 0.5324(3) 0.2751(8) 0.4956(2)
C7_3 C 0.5896(3) 0.3195(7) 0.5515(2)
C8_3 C 0.6603(3) 0.3959(9) 0.5662(2)
H5_3 H 0.6841 0.4227 0.5408
C9_3 C 0.6400(3) 0.3667(8) 0.6438(2)
H6_3 H 0.6462 0.3682 0.6821
C10_3 C 0.3720(3) 0.1282(7) 0.33226(19)
N1_3 N 0.6916(2) 0.4280(7) 0.62386(17)
N2_3 N 0.5782(2) 0.3028(7) 0.60250(17)
H16_3 H 0.5383 0.2588 0.6067
N4_3 N 0.2658(2) 0.0552(6) 0.26715(17)
O6_3 O 0.8791(2) 0.4330(6) 0.65645(15)
H19_3 H 0.8593 0.3022 0.6491
H20_3 H 0.8957 0.4717 0.6260
N16_2 N 0.9631(2) 0.7908(6) 0.73252(18)
N17_2 N 0.8924(2) 0.8607(6) 0.71173(18)
N18_2 N 0.9653(2) 0.1064(6) 0.74391(18)
C1_4 C 0.0382(3) 0.7077(8) 0.0104(2)
C2_4 C 0.0916(3) 0.6656(8) 0.0640(2)
H2_4 H 0.1396 0.6243 0.0675
C3_4 C 0.0728(3) 0.6856(7) 0.1124(2)
C4_4 C 0.0015(3) 0.7542(8) 0.1059(2)
C10_4 C 0.1280(3) 0.6282(7) 0.16774(19)
N4_4 N 0.2342(2) 0.5552(6) 0.23285(17)
C14_4 C 0.2154(3) 0.0057(9) 0.8408(2)
H9_4 H 0.2463 0.0528 0.8760
C15_4 C 0.1379(3) 0.0085(9) 0.8257(2)
H10_4 H 0.1171 0.0548 0.8514
H12_4 H 0.4982 0.0138 0.8864
C21_4 C 0.2886(3) 0.1757(9) 0.5422(2)
H13_4 H 0.3237 0.2239 0.5279
C22_4 C 0.3129(3) 0.0906(8) 0.5955(2)
C23_4 C 0.2594(3) 0.0207(10) 0.6161(2)
C24_4 C 0.1826(3) 0.0374(11) 0.5856(3)
C25_4 C 0.1584(3) 0.1221(13) 0.5318(3)
H15_4 H 0.1072 0.1338 0.5106
C26_4 C 0.2115(3) 0.1892(11) 0.5101(2)
C27_4 C 0.1865(3) 0.2841(12) 0.4523(2)
C28_4 C 0.3964(3) 0.0815(8) 0.6322(2)
H17_4 H 0.3783 0.0242 0.8961
O2_4 O 0.4412(2) 0.1789(6) 0.61854(17)
O4_4 O 0.1338(5) 0.4031(16) 0.4402(3)
C7_4 C 0.9104(3) 0.8195(7) 0.9485(2)
C8_4 C 0.8397(3) 0.8959(9) 0.9338(2)
H5_4 H 0.8159 0.9227 0.9592
C9_4 C 0.8600(3) 0.8667(8) 0.8562(2)
H6_4 H 0.8538 0.8682 0.8179
C11_4 C 0.1237(3) 0.8734(9) 0.7355(2)
H7_4 H 0.0932 0.8292 0.6998
C12_4 C 0.2009(3) 0.8695(9) 0.7513(3)
H8_4 H 0.2217 0.8227 0.7258
C13_4 C 0.2476(3) 0.9326(8) 0.8034(2)
C16_4 C 0.0906(3) 0.9428(7) 0.7726(2)
C17_4 C 0.0073(3) 0.9471(7) 0.75223(19)
C18_4 C 0.3295(3) 0.9295(8) 0.8163(2)
C19_4 C 0.3672(3) 0.8873(8) 0.7810(2)
H11_4 H 0.3442 0.8432 0.7439
C20_4 C 0.4521(3) 0.9802(10) 0.8588(2)
H14_4 H 0.2756 0.9609 0.6515
N1_4 N 0.8084(2) 0.9280(7) 0.87614(17)
N2_4 N 0.9218(2) 0.8028(7) 0.89750(17)
H16_4 H 0.9617 0.7588 0.8933
N7_4 N 0.4433(2) 0.9182(7) 0.80731(19)
N8_4 N 0.3850(3) 0.9882(9) 0.8658(2)
O1_4 O 0.4113(2) 0.9737(6) 0.67510(15)
O5_4 O 0.1338(3) 0.9597(11) 0.6078(2)
H18_4 H 0.1576 0.9101 0.6386
O6_4 O 0.6209(2) 0.9330(6) 0.84355(15)
H19_4 H 0.6407 0.8022 0.8509
H20_4 H 0.6043 0.9717 0.8740
N11_4 N 0.8927(2) 0.0466(6) 0.7183(2)
H3_3 H 0.0114 0.2300 0.8622
C5_3 C 0.0503(3) 0.2012(8) 0.9467(2)
H4_3 H 0.0977 0.1549 0.9502
C6_3 C 0.0324(3) 0.2249(8) 0.9956(2)
H1_3 H 0.9496 0.3099 0.0217
H1_4 H 0.0504 0.6901 0.9783
H3_4 H 0.9886 0.7700 0.1378
C5_4 C 0.9497(3) 0.7988(8) 0.0533(2)
H4_4 H 0.9023 0.8451 0.0498
C6_4 C 0.9676(3) 0.7751(8) 0.0044(2)
loop_
_geom_bond_atom_site_label_1
_geom_bond_atom_site_label_2
_geom_bond_site_symmetry_1
_geom_bond_site_symmetry_2
Cd2 N1 1_555 1_555
C1 H1 1_555 1_555
C2 C1 1_555 1_555
H2 C2 1_555 1_555
C3 C2 1_555 1_555
C4 C3 1_555 1_555
H3 C4 1_555 1_555
C5 C4 1_555 1_555
H4 C5 1_555 1_555
C6 C1 1_555 1_555
C7 C6 1_555 1_555
C8 C7 1_555 1_555
H5 C8 1_555 1_555
C9 H6 1_555 1_555
C10 C3 1_555 1_555
N1 C8 1_555 1_555
N2 C7 1_555 1_555
H16 N2 1_555 1_555
N3 C10 1_555 1_555
N4 N3 1_555 1_555
N5 N4 1_555 1_555
N6 C10 1_555 1_555
O6 Cd1 1_555 1_555
H19 O6 1_555 1_555
H20 O6 1_555 1_555
Cd5 N6 1_555 1_555
Cd7 N3 1_555 1_555
N13 Cd2 1_555 1_555
N14 Cd2 1_555 1_555
N15 Cd1 1_555 1_555
N16 Cd1 1_555 1_555
N17 Cd2 1_555 1_555
N18 Cd1 1_555 1_555
O7 Cd2 1_555 1_555
Cd2 O6 1_555 1_555
C5 C6 1_555 1_555
C9 N1 1_555 1_555
C9 N2 1_555 1_555
N5 N6 1_555 1_555
N14 N15 1_555 1_555
N16 N17 1_555 1_555
C11 H7 1_555 1_555
C12 C11 1_555 1_555
H8 C12 1_555 1_555
C13 C12 1_555 1_555
C14 C13 1_555 1_555
H9 C14 1_555 1_555
C15 C14 1_555 1_555
H10 C15 1_555 1_555
C16 C11 1_555 1_555
C17 C16 1_555 1_555
C18 C13 1_555 1_555
C19 C18 1_555 1_555
H11 C19 1_555 1_555
C20 H12 1_555 1_555
C21 H13 1_555 1_555
C22 C21 1_555 1_555
C23 C22 1_555 1_555
H14 C23 1_555 1_555
C24 C23 1_555 1_555
C25 C24 1_555 1_555
H15 C25 1_555 1_555
C26 C21 1_555 1_555
C28 C22 1_555 1_555
N7 C19 1_555 1_555
N8 C18 1_555 1_555
H17 N8 1_555 1_555
N9 C17 1_555 1_555
N10 N9 1_555 1_555
N11 N10 1_555 1_555
N12 C17 1_555 1_555
O2 C28 1_555 1_555
O5 C24 1_555 1_555
H18 O5 1_555 1_555
Cd4 N12 1_555 1_555
Cd6 N10 1_555 1_555
C15 C16 1_555 1_555
C20 N7 1_555 1_555
C20 N8 1_555 1_555
C25 C26 1_555 1_555
C28 O1 1_555 1_555
N11 N12 1_555 1_555
O3 C27 1_555 1_555
O4 C27 1_555 1_555
Cd9 O3 1_555 1_555
N11_2 N18 1_555 1_555
Cd4 N7_2 1_555 1_555
C8_2 C7_2 1_555 1_555
H5_2 C8_2 1_555 1_555
C9_2 H6_2 1_555 1_555
C11_2 H7_2 1_555 1_555
C12_2 C11_2 1_555 1_555
H8_2 C12_2 1_555 1_555
C13_2 C12_2 1_555 1_555
C16_2 C11_2 1_555 1_555
C17_2 C16_2 1_555 1_555
C18_2 C13_2 1_555 1_555
C19_2 C18_2 1_555 1_555
H11_2 C19_2 1_555 1_555
N1_2 C8_2 1_555 1_555
N2_2 C7_2 1_555 1_555
H16_2 N2_2 1_555 1_555
N7_2 C19_2 1_555 1_555
N8_2 C18_2 1_555 1_555
O1_2 Cd4 1_555 1_555
H18_2 O5_2 1_555 1_555
O6_2 Cd4 1_555 1_555
H19_2 O6_2 1_555 1_555
H20_2 O6_2 1_555 1_555
N15_2 Cd4 1_555 1_555
C9_2 N1_2 1_555 1_555
C9_2 N2_2 1_555 1_555
C20_2 N7_2 1_555 1_555
C20_2 N8_2 1_555 1_555
N14_2 N15_2 1_555 1_555
H9_2 C14_2 1_555 1_555
C15_2 C14_2 1_555 1_555
H10_2 C15_2 1_555 1_555
C21_2 H13_2 1_555 1_555
C22_2 C21_2 1_555 1_555
C23_2 C22_2 1_555 1_555
C24_2 C23_2 1_555 1_555
C25_2 C24_2 1_555 1_555
H15_2 C25_2 1_555 1_555
C26_2 C21_2 1_555 1_555
C27_2 C26_2 1_555 1_555
C28_2 C22_2 1_555 1_555
O2_2 C28_2 1_555 1_555
O3_2 C27_2 1_555 1_555
O4_2 C27_2 1_555 1_555
Cd7 O3_2 1_555 1_555
N13_2 Cd6 1_555 1_555
O7_2 Cd6 1_555 1_555
C25_2 C26_2 1_555 1_555
C2_2 C1_2 1_555 1_555
H2_2 C2_2 1_555 1_555
C3_2 C2_2 1_555 1_555
C4_2 C3_2 1_555 1_555
C10_2 C3_2 1_555 1_555
N3_2 C10_2 1_555 1_555
N4_2 N3_2 1_555 1_555
N5_2 N4_2 1_555 1_555
N6_2 C10_2 1_555 1_555
Cd5_2 N6_2 1_555 1_555
Cd9 N3_2 1_555 1_555
Cd7 N5_2 1_555 1_555
N5_2 N6_2 1_555 1_555
O7_2 C27_3 1_555 1_555
O4_3 C27_3 1_555 1_555
C11_3 H7_3 1_555 1_555
C12_3 C11_3 1_555 1_555
H8_3 C12_3 1_555 1_555
C13_3 C12_3 1_555 1_555
C14_3 C13_3 1_555 1_555
H9_3 C14_3 1_555 1_555
C15_3 C14_3 1_555 1_555
H10_3 C15_3 1_555 1_555
C16_3 C11_3 1_555 1_555
C17_3 C16_3 1_555 1_555
C18_3 C13_3 1_555 1_555
C19_3 C18_3 1_555 1_555
H11_3 C19_3 1_555 1_555
C20_3 H12_3 1_555 1_555
C21_3 H13_3 1_555 1_555
C22_3 C21_3 1_555 1_555
C23_3 C22_3 1_555 1_555
H14_3 C23_3 1_555 1_555
C24_3 C23_3 1_555 1_555
C25_3 C24_3 1_555 1_555
H15_3 C25_3 1_555 1_555
C26_3 C21_3 1_555 1_555
C28_3 C22_3 1_555 1_555
N7_3 C19_3 1_555 1_555
N8_3 C18_3 1_555 1_555
H17_3 N8_3 1_555 1_555
N9_2 C17_3 1_555 1_555
N10_2 N9_2 1_555 1_555
N11_3 N10_2 1_555 1_555
N12_2 C17_3 1_555 1_555
O2_3 C28_3 1_555 1_555
O5_3 C24_3 1_555 1_555
H18_3 O5_3 1_555 1_555
Cd5 N12_2 1_555 1_555
Cd9 N10_2 1_555 1_555
C15_3 C16_3 1_555 1_555
C20_3 N7_3 1_555 1_555
C20_3 N8_3 1_555 1_555
C25_3 C26_3 1_555 1_555
C28_3 O1_3 1_555 1_555
N11_3 N12_2 1_555 1_555
Cd7 N1_3 1_555 1_555
C1_3 H1_2 1_555 1_555
C2_3 C1_3 1_555 1_555
H2_3 C2_3 1_555 1_555
C3_3 C2_3 1_555 1_555
C4_3 C3_3 1_555 1_555
H3_2 C4_3 1_555 1_555
C5_2 C4_3 1_555 1_555
H4_2 C5_2 1_555 1_555
C6_2 C1_3 1_555 1_555
C7_3 C6_2 1_555 1_555
C8_3 C7_3 1_555 1_555
H5_3 C8_3 1_555 1_555
C9_3 H6_3 1_555 1_555
C10_3 C3_3 1_555 1_555
N1_3 C8_3 1_555 1_555
N2_3 C7_3 1_555 1_555
H16_3 N2_3 1_555 1_555
N13 C10_3 1_555 1_555
N4_3 N13 1_555 1_555
N14_2 N4_3 1_555 1_555
N15_2 C10_3 1_555 1_555
O6_3 Cd5_2 1_555 1_555
H19_3 O6_3 1_555 1_555
H20_3 O6_3 1_555 1_555
N16_2 Cd5_2 1_555 1_555
N17_2 Cd7 1_555 1_555
N18_2 Cd5_2 1_555 1_555
Cd7 O6_3 1_555 1_555
C5_2 C6_2 1_555 1_555
C9_3 N1_3 1_555 1_555
C9_3 N2_3 1_555 1_555
N16_2 N17_2 1_555 1_555
C2_4 C1_4 1_555 1_555
H2_4 C2_4 1_555 1_555
C3_4 C2_4 1_555 1_555
C4_4 C3_4 1_555 1_555
C10_4 C3_4 1_555 1_555
N13_2 C10_4 1_555 1_555
N4_4 N13_2 1_555 1_555
N14 N4_4 1_555 1_555
N15 C10_4 1_555 1_555
H9_4 C14_4 1_555 1_555
C15_4 C14_4 1_555 1_555
H10_4 C15_4 1_555 1_555
C21_4 H13_4 1_555 1_555
C22_4 C21_4 1_555 1_555
C23_4 C22_4 1_555 1_555
C24_4 C23_4 1_555 1_555
C25_4 C24_4 1_555 1_555
H15_4 C25_4 1_555 1_555
C26_4 C21_4 1_555 1_555
C27_4 C26_4 1_555 1_555
C28_4 C22_4 1_555 1_555
O2_4 C28_4 1_555 1_555
O7 C27_4 1_555 1_555
O4_4 C27_4 1_555 1_555
C25_4 C26_4 1_555 1_555
Cd5 N7_4 1_555 1_555
C8_4 C7_4 1_555 1_555
H5_4 C8_4 1_555 1_555
C9_4 H6_4 1_555 1_555
C11_4 H7_4 1_555 1_555
C12_4 C11_4 1_555 1_555
H8_4 C12_4 1_555 1_555
C13_4 C12_4 1_555 1_555
C16_4 C11_4 1_555 1_555
C17_4 C16_4 1_555 1_555
C18_4 C13_4 1_555 1_555
C19_4 C18_4 1_555 1_555
H11_4 C19_4 1_555 1_555
N1_4 C8_4 1_555 1_555
N2_4 C7_4 1_555 1_555
H16_4 N2_4 1_555 1_555
N7_4 C19_4 1_555 1_555
N8_4 C18_4 1_555 1_555
O1_4 Cd5 1_555 1_555
H18_4 O5_4 1_555 1_555
O6_4 Cd5 1_555 1_555
H19_4 O6_4 1_555 1_555
H20_4 O6_4 1_555 1_555
C9_4 N1_4 1_555 1_555
C9_4 N2_4 1_555 1_555
C20_4 N7_4 1_555 1_555
C20_4 N8_4 1_555 1_555
N11_4 N18_2 1_555 1_555
H4_3 C5_3 1_555 1_555
C5_3 C6_3 1_555 1_555
H4_4 C5_4 1_555 1_555
C5_4 C6_4 1_555 1_555

#END
