
###############################################################################
#
# This file contains modified crystal structure data generated from the
# MOF subset of the Cambridge Structural Database (CSD) v543 
# hosted by the Cambridge Crystallographic Data Centre (CCDC).
#
# This work is licensed under the Creative Commons
# Attribution-NonCommercial-ShareAlike 4.0 International License.
# To view a copy of this license, visit
# http://creativecommons.org/licenses/by-nc-sa/4.0/
# or send a letter to
# Creative Commons, PO Box 1866, Mountain View, CA 94042, USA.
#
# CIF created using the CSD Python API on 29 September 2022
# The structure has been converted into the P1 space group
# The structure has a 3D framework
# The original CSD entry COJHIT is in the orthorhombic crystal system
# The original CSD entry COJHIT is in a Sohncke space group
# The framework has been calculated to contain at least 10.0% void space
# The void calculation uses a probe of radius 1.32A, grid spacing 0.4
# H atom positions have been added when not included in the experimental data
#
###############################################################################

data_COJHIT
_chemical_formula_moiety         '(C72 H32 N16)n'
_symmetry_cell_setting           triclinic
_symmetry_space_group_name_H-M   'P 1'
_symmetry_Int_Tables_number      1
_space_group_name_Hall           'P 1'
loop_
_symmetry_equiv_pos_site_id
_symmetry_equiv_pos_as_xyz
1 x,y,z
_cell_length_a                   13.2529(19)
_cell_length_b                   13.253
_cell_length_c                   13.995(2)
_cell_angle_alpha                90
_cell_angle_beta                 90
_cell_angle_gamma                90
_cell_volume                     2458.09
loop_
_atom_site_label
_atom_site_type_symbol
_atom_site_fract_x
_atom_site_fract_y
_atom_site_fract_z
Co7 Co 0.02942(11) 0.00258(18) 0.87270(9)
Co3 Co 0.02942(11) 0.99742(18) 0.12730(9)
N1 N 0.0239(14) 0.1229(11) 0.2087(8)
N2 N 0.1521(5) 0.0052(12) 0.0502(6)
N4 N 0.0227(8) 0.8787(8) 0.2069(8)
C1 C 0.2484(9) 0.002(2) 0.0741(9)
H1 H 0.2706 0.0023 0.1386
C2 C 0.0424(9) 0.2147(9) 0.1865(8)
H2 H 0.0808 0.2349 0.1325
C3 C 0.0000 0.2798(18) 0.2500
C4 C -0.0000 0.380(3) 0.2500
C5 C 0.3121(11) 0.0000 0.0000
C6 C 0.0281(8) 0.4463(12) 0.1768(15)
H3 H 0.0498 0.4130 0.1203
C7 C 0.0308(7) 0.5503(10) 0.1699(6)
H4 H 0.0526 0.5826 0.1129
C8 C -0.0000 0.6068(14) 0.2500
C9 C 0.0000 0.712(2) 0.2500
C10 C 0.4241(11) 0.0000 0.0000
C13 C 0.6337(13) 0.0000 0.0000
C14 C 0.7454(10) 0.0000 0.0000
C16 C 0.0293(16) 0.7771(11) 0.1748(12)
H14 H 0.0530623 0.753249 0.103818
C5_2 C 0.3121(11) 0.0000 1.0000
C10_2 C 0.4241(11) 0.0000 1.0000
C13_2 C 0.6337(13) 0.0000 1.0000
C14_2 C 0.7454(10) 0.0000 1.0000
N8 N 0.9053(8) 0.0193(9) 0.9536(6)
C21 C 0.4762(9) 0.0029(10) 0.9126(9)
H11 H 0.4411 0.0048 0.8534
C22 C 0.5777(9) 0.0028(10) 0.9157(9)
H12 H 0.6134 0.0047 0.8569
C23 C 0.8141(9) 0.0248(7) 0.9225(8)
H16 H 0.791991 0.0447678 0.849981
N3 N 0.9053(8) 0.9807(9) 0.0464(6)
C5_3 C 0.3121(11) 1.0000 0.0000
C10_3 C 0.4241(11) 1.0000 0.0000
C11 C 0.4762(9) 0.9971(10) 0.0874(9)
H5 H 0.4411 0.9952 0.1466
C12 C 0.5777(9) 0.9972(10) 0.0843(9)
H6 H 0.6134 0.9953 0.1431
C13_3 C 0.6337(13) 1.0000 0.0000
C14_3 C 0.7454(10) 1.0000 0.0000
C15 C 0.8141(9) 0.9752(7) 0.0775(8)
N10 N 0.0947(8) 0.9807(9) 0.4536(6)
H13 H 0.791991 0.955232 0.150019
C5_4 C 0.3121(11) 1.0000 1.0000
C10_4 C 0.4241(11) 1.0000 1.0000
C13_4 C 0.6337(13) 1.0000 1.0000
C14_4 C 0.7454(10) 1.0000 1.0000
N6 N 0.1521(5) 0.9948(12) 0.9498(6)
C17 C 0.2484(9) 0.998(2) 0.9259(9)
H7 H 0.2706 0.9977 0.8614
C3_2 C 1.0000 0.2798(18) 0.2500
C4_2 C 1.0000 0.380(3) 0.2500
C8_2 C 1.0000 0.6068(14) 0.2500
C9_2 C 1.0000 0.712(2) 0.2500
Co5 Co 0.97058(11) 0.99742(18) 0.37270(9)
N5 N 0.9761(14) 0.1229(11) 0.2913(8)
N7 N 0.8479(5) 0.0052(12) 0.4498(6)
N11 N 0.9773(8) 0.8787(8) 0.2931(8)
C18 C 0.9576(9) 0.2147(9) 0.3135(8)
H8 H 0.9192 0.2349 0.3675
C19 C 0.9719(8) 0.4463(12) 0.3232(15)
H9 H 0.9502 0.4130 0.3797
C20 C 0.9692(7) 0.5503(10) 0.3301(6)
H10 H 0.9474 0.5826 0.3871
C24 C 0.9707(16) 0.7771(11) 0.3252(12)
H15 H 0.946938 0.753249 0.396182
N9 N 0.0947(8) 0.0193(9) 0.5464(6)
N13 N 0.0227(8) 0.1213(8) 0.7931(8)
C3_3 C -0.0000 0.7202(18) 0.7500
C4_3 C -0.0000 0.620(3) 0.7500
C8_3 C -0.0000 0.3932(14) 0.7500
C9_3 C -0.0000 0.288(2) 0.7500
N5_2 N 0.0239(14) 0.8771(11) 0.7913(8)
C18_2 C 0.0424(9) 0.7853(9) 0.8135(8)
H8_2 H 0.0808 0.7651 0.8675
C19_2 C 0.0281(8) 0.5537(12) 0.8232(15)
H9_2 H 0.0498 0.5870 0.8797
C20_2 C 0.0308(7) 0.4497(10) 0.8301(6)
H10_2 H 0.0526 0.4174 0.8871
C24_2 C 0.0293(16) 0.2229(11) 0.8252(12)
H15_2 H 0.0530623 0.246751 0.896182
Co1 Co 0.97058(11) 0.00258(18) 0.62730(9)
C5_5 C 0.6879(11) 0.0000 0.5000
C10_5 C 0.5759(11) 0.0000 0.5000
C11_2 C 0.5238(9) 0.0029(10) 0.5874(9)
H5_2 H 0.5589 0.0048 0.6466
C12_2 C 0.4223(9) 0.0028(10) 0.5843(9)
H6_2 H 0.3866 0.0047 0.6431
C13_5 C 0.3663(13) 0.0000 0.5000
C14_5 C 0.2546(10) 0.0000 0.5000
C15_2 C 0.1859(9) 0.0248(7) 0.5775(8)
N12 N 0.9773(8) 0.1213(8) 0.7069(8)
C17_2 C 0.7516(9) 0.002(2) 0.4259(9)
H7_2 H 0.7294 0.0023 0.3614
H13_2 H 0.208009 0.0447678 0.650019
N1_2 N 0.9761(14) 0.8771(11) 0.7087(8)
N2_2 N 0.8479(5) 0.9948(12) 0.5502(6)
C1_2 C 0.7516(9) 0.998(2) 0.5741(9)
H1_2 H 0.7294 0.9977 0.6386
C2_2 C 0.9576(9) 0.7853(9) 0.6865(8)
H2_2 H 0.9192 0.7651 0.6325
C3_4 C 1.0000 0.7202(18) 0.7500
C4_4 C 1.0000 0.620(3) 0.7500
C5_6 C 0.6879(11) 1.0000 0.5000
C6_2 C 0.9719(8) 0.5537(12) 0.6768(15)
H3_2 H 0.9502 0.5870 0.6203
C7_2 C 0.9692(7) 0.4497(10) 0.6699(6)
H4_2 H 0.9474 0.4174 0.6129
C8_4 C 1.0000 0.3932(14) 0.7500
C9_4 C 1.0000 0.288(2) 0.7500
C10_6 C 0.5759(11) 1.0000 0.5000
C13_6 C 0.3663(13) 1.0000 0.5000
C14_6 C 0.2546(10) 1.0000 0.5000
C16_2 C 0.9707(16) 0.2229(11) 0.6748(12)
C21_2 C 0.5238(9) 0.9971(10) 0.4126(9)
H11_2 H 0.5589 0.9952 0.3534
C22_2 C 0.4223(9) 0.9972(10) 0.4157(9)
H12_2 H 0.3866 0.9953 0.3569
C23_2 C 0.1859(9) 0.9752(7) 0.4225(8)
H14_2 H 0.946938 0.246751 0.603818
H16_2 H 0.208009 0.955232 0.349981
loop_
_geom_bond_atom_site_label_1
_geom_bond_atom_site_label_2
_geom_bond_site_symmetry_1
_geom_bond_site_symmetry_2
N1 C2 1_555 1_555
N4 C16 1_555 1_555
C1 N2 1_555 1_555
H1 C1 1_555 1_555
C2 H2 1_555 1_555
C3 C2 1_555 1_555
C4 C3 1_555 1_555
C5 C1 1_555 1_555
C6 C4 1_555 1_555
H3 C6 1_555 1_555
C7 C6 1_555 1_555
H4 C7 1_555 1_555
C8 C7 1_555 1_555
C9 C8 1_555 1_555
C10 C5 1_555 1_555
C14 C13 1_555 1_555
C16 C9 1_555 1_555
Co3 N4 1_555 1_555
C16 H14 1_555 1_555
C10_2 C5_2 1_555 1_555
C14_2 C13_2 1_555 1_555
C21 C10_2 1_555 1_555
H11 C21 1_555 1_555
C22 C13_2 1_555 1_555
H12 C22 1_555 1_555
C23 C14_2 1_555 1_555
N8 C23 1_555 1_555
C21 C22 1_555 1_555
C23 H16 1_555 1_555
N3 C15 1_555 1_555
C10_3 C5_3 1_555 1_555
C11 C10_3 1_555 1_555
H5 C11 1_555 1_555
C12 C11 1_555 1_555
H6 C12 1_555 1_555
C13_3 C12 1_555 1_555
C14_3 C13_3 1_555 1_555
C15 C14_3 1_555 1_555
C15 H13 1_555 1_555
C10_4 C5_4 1_555 1_555
C14_4 C13_4 1_555 1_555
C17 C5_4 1_555 1_555
H7 C17 1_555 1_555
N6 C17 1_555 1_555
C4_2 C3_2 1_555 1_555
C9_2 C8_2 1_555 1_555
Co5 N11 1_555 1_555
C18 C3_2 1_555 1_555
H8 C18 1_555 1_555
C19 C4_2 1_555 1_555
H9 C19 1_555 1_555
C20 C8_2 1_555 1_555
H10 C20 1_555 1_555
C24 C9_2 1_555 1_555
N5 C18 1_555 1_555
N11 C24 1_555 1_555
C19 C20 1_555 1_555
C24 H15 1_555 1_555
N13 Co7 1_555 1_555
C4_3 C3_3 1_555 1_555
C9_3 C8_3 1_555 1_555
C18_2 C3_3 1_555 1_555
H8_2 C18_2 1_555 1_555
C19_2 C4_3 1_555 1_555
H9_2 C19_2 1_555 1_555
C20_2 C8_3 1_555 1_555
H10_2 C20_2 1_555 1_555
C24_2 C9_3 1_555 1_555
N5_2 C18_2 1_555 1_555
N13 C24_2 1_555 1_555
C19_2 C20_2 1_555 1_555
C24_2 H15_2 1_555 1_555
N9 C15_2 1_555 1_555
C10_5 C5_5 1_555 1_555
C11_2 C10_5 1_555 1_555
H5_2 C11_2 1_555 1_555
C12_2 C11_2 1_555 1_555
H6_2 C12_2 1_555 1_555
C13_5 C12_2 1_555 1_555
C14_5 C13_5 1_555 1_555
C15_2 C14_5 1_555 1_555
N12 Co1 1_555 1_555
C17_2 C5_5 1_555 1_555
H7_2 C17_2 1_555 1_555
N7 C17_2 1_555 1_555
C15_2 H13_2 1_555 1_555
N1_2 C2_2 1_555 1_555
N12 C16_2 1_555 1_555
C1_2 N2_2 1_555 1_555
H1_2 C1_2 1_555 1_555
C2_2 H2_2 1_555 1_555
C3_4 C2_2 1_555 1_555
C4_4 C3_4 1_555 1_555
C5_6 C1_2 1_555 1_555
C6_2 C4_4 1_555 1_555
H3_2 C6_2 1_555 1_555
C7_2 C6_2 1_555 1_555
H4_2 C7_2 1_555 1_555
C8_4 C7_2 1_555 1_555
C9_4 C8_4 1_555 1_555
C10_6 C5_6 1_555 1_555
C14_6 C13_6 1_555 1_555
C16_2 C9_4 1_555 1_555
C21_2 C10_6 1_555 1_555
H11_2 C21_2 1_555 1_555
C22_2 C13_6 1_555 1_555
H12_2 C22_2 1_555 1_555
C23_2 C14_6 1_555 1_555
N10 C23_2 1_555 1_555
C21_2 C22_2 1_555 1_555
C16_2 H14_2 1_555 1_555
C23_2 H16_2 1_555 1_555

#END
