
###############################################################################
#
# This file contains modified crystal structure data generated from the
# MOF subset of the Cambridge Structural Database (CSD) v543 
# hosted by the Cambridge Crystallographic Data Centre (CCDC).
#
# This work is licensed under the Creative Commons
# Attribution-NonCommercial-ShareAlike 4.0 International License.
# To view a copy of this license, visit
# http://creativecommons.org/licenses/by-nc-sa/4.0/
# or send a letter to
# Creative Commons, PO Box 1866, Mountain View, CA 94042, USA.
#
# CIF created using the CSD Python API on 29 September 2022
# The structure has been converted into the P1 space group
# The structure has a 3D framework
# The original CSD entry COKBIQ is in the monoclinic crystal system
# The framework has been calculated to contain at least 10.0% void space
# The void calculation uses a probe of radius 1.32A, grid spacing 0.4
#
###############################################################################

data_COKBIQ
_chemical_formula_moiety         '(C56 H32 N32 O31 Zn10)n'
_symmetry_cell_setting           triclinic
_symmetry_space_group_name_H-M   'P 1'
_symmetry_Int_Tables_number      1
_space_group_name_Hall           'P 1'
loop_
_symmetry_equiv_pos_site_id
_symmetry_equiv_pos_as_xyz
1 x,y,z
_cell_length_a                   7.9741(8)
_cell_length_b                   16.5781(18)
_cell_length_c                   15.9710(16)
_cell_angle_alpha                90
_cell_angle_beta                 99.738(2)
_cell_angle_gamma                90
_cell_volume                     2080.87
loop_
_atom_site_label
_atom_site_type_symbol
_atom_site_fract_x
_atom_site_fract_y
_atom_site_fract_z
Zn1 Zn 0.08485(9) 0.32853(4) 0.01094(5)
N5 N 0.2615(5) 0.1697(3) 0.0756(3)
N6 N 0.1058(6) 0.1301(3) 0.1709(3)
N7 N 0.1230(6) 0.2221(3) 0.0723(3)
N8 N 0.3558(7) 0.0557(3) 0.1603(3)
H6 H 0.4444 0.0499 0.1368
H7 H 0.3378 0.0230 0.1997
C13 C 0.2465(7) 0.1153(3) 0.1360(3)
C14 C 0.0367(7) 0.1961(3) 0.1294(4)
Zn9 Zn -0.0000 0.06387(5) 0.2500
O10 O 0.5929(8) 0.0766(4) 0.0474(5)
O11 O 0.1934(7) 0.3982(3) 0.1125(3)
Zn2 Zn 0.5000 0.43613(5) 0.7500
N1 N 0.2385(5) 0.3303(3) 0.9244(3)
N2 N 0.3942(6) 0.3699(3) 0.8291(3)
N3 N 0.3770(6) 0.2779(3) 0.9277(3)
N4 N 0.1442(7) 0.4443(3) 0.8397(3)
H1 H 0.0556 0.4501 0.8632
H2 H 0.1622 0.4770 0.8003
C6 C 0.2535(7) 0.3847(3) 0.8640(3)
C7 C 0.4633(7) 0.3039(3) 0.8706(4)
H4 H 0.5624 0.2794 0.8598
Zn3 Zn 0.41515(9) 0.17147(4) 0.98906(5)
O9 O 0.6618(6) 0.1513(4) 0.9535(5)
O12 O 0.3066(7) 0.1018(3) 0.8875(3)
O13 O 0.6803(8) 0.5090(4) 0.8024(3)
O14 O 0.3197(8) 0.5090(4) 0.6976(3)
N9 N 0.6058(6) 0.3699(3) 0.6709(3)
O1 O 0.8382(6) 0.3487(4) 0.0465(5)
O4 O 0.3197(8) 0.4910(4) 0.1976(3)
C3 C 0.5427(7) 0.4372(3) 0.0553(3)
H3 H 0.5717 0.3946 0.0928
C4 C 0.3974(7) 0.4810(3) 0.0597(3)
C5 C 0.2926(8) 0.4556(4) 0.1259(4)
O6 O 0.0929(8) 0.5766(4) 0.0474(5)
C8 C 0.1953(8) 0.5933(4) 0.0030(6)
C9 C 0.3537(7) 0.5451(3) 0.0035(4)
H8 H 0.9376 0.2206 0.1402
Zn8 Zn 0.5000 0.56387(5) 0.2500
Zn9_2 Zn 1.0000 0.06387(5) 0.2500
O2 O 0.9071(8) 0.4234(4) 0.9526(5)
C1 C 0.8047(8) 0.4067(4) 0.9970(6)
C2 C 0.6463(7) 0.4549(3) 0.9965(4)
O5 O 0.1618(6) 0.6513(4) 0.9535(5)
C10 C 0.4573(7) 0.5628(3) 0.9447(3)
H5 H 0.4283 0.6054 0.9072
C11 C 0.6026(7) 0.5190(3) 0.9403(3)
O7 O 0.8066(7) 0.6018(3) 0.8875(3)
C12 C 0.7074(8) 0.5444(4) 0.8741(4)
Zn6 Zn 0.91515(9) 0.67147(4) 0.98906(5)
Zn5 Zn 0.08485(9) 0.67147(4) 0.51094(5)
O1_2 O 0.1618(6) 0.3487(4) 0.4535(5)
O2_2 O 0.0929(8) 0.4234(4) 0.5474(5)
O3 O 0.8066(7) 0.3982(3) 0.3875(3)
O4_2 O 0.6803(8) 0.4910(4) 0.3024(3)
C1_2 C 0.1953(8) 0.4067(4) 0.5030(6)
C2_2 C 0.3537(7) 0.4549(3) 0.5035(4)
C3_2 C 0.4573(7) 0.4372(3) 0.4447(3)
H3_2 H 0.4283 0.3946 0.4072
C4_2 C 0.6026(7) 0.4810(3) 0.4403(3)
C5_2 C 0.7074(8) 0.4556(4) 0.3741(4)
O5_2 O 0.8382(6) 0.6513(4) 0.5465(5)
O6_2 O 0.9071(8) 0.5766(4) 0.4526(5)
C8_2 C 0.8047(8) 0.5933(4) 0.4970(6)
C9_2 C 0.6463(7) 0.5451(3) 0.4965(4)
C10_2 C 0.5427(7) 0.5628(3) 0.5553(3)
H5_2 H 0.5717 0.6054 0.5928
C11_2 C 0.3974(7) 0.5190(3) 0.5597(3)
O7_2 O 0.1934(7) 0.6018(3) 0.6125(3)
C12_2 C 0.2926(8) 0.5444(4) 0.6259(4)
H8_2 H 0.0624 0.2206 0.3598
Zn4 Zn 0.91515(9) 0.32853(4) 0.48906(5)
N1_2 N 0.7615(5) 0.3303(3) 0.5756(3)
N3_2 N 0.6230(6) 0.2779(3) 0.5723(3)
N4_2 N 0.8558(7) 0.4443(3) 0.6603(3)
H1_2 H 0.9444 0.4501 0.6368
H2_2 H 0.8378 0.4770 0.6997
C6_2 C 0.7465(7) 0.3847(3) 0.6360(3)
C7_2 C 0.5367(7) 0.3039(3) 0.6294(4)
H4_2 H 0.4376 0.2794 0.6402
Zn3_2 Zn 0.58485(9) 0.17147(4) 0.51094(5)
N5_2 N 0.7385(5) 0.1697(3) 0.4244(3)
N6_2 N 0.8942(6) 0.1301(3) 0.3291(3)
N7_2 N 0.8770(6) 0.2221(3) 0.4277(3)
N8_2 N 0.6442(7) 0.0557(3) 0.3397(3)
H6_2 H 0.5556 0.0499 0.3632
H7_2 H 0.6622 0.0230 0.3003
C13_2 C 0.7535(7) 0.1153(3) 0.3640(3)
C14_2 C 0.9633(7) 0.1961(3) 0.3706(4)
O9_2 O 0.3382(6) 0.1513(4) 0.5465(5)
O10_2 O 0.4071(8) 0.0766(4) 0.4526(5)
O12_2 O 0.6934(7) 0.1018(3) 0.6125(3)
O13_2 O 0.1803(8) 0.0090(4) 0.8024(3)
Zn2_2 Zn 0.0000 0.93613(5) 0.7500
H4_3 H 0.0624 0.7794 0.8598
N9_2 N 0.1058(6) 0.8699(3) 0.6709(3)
C11_3 C 0.1026(7) 0.0190(3) 0.9403(3)
C12_3 C 0.2074(8) 0.0444(4) 0.8741(4)
O14_2 O 0.8197(8) 0.0090(4) 0.6976(3)
Zn1_2 Zn 0.58485(9) 0.82853(4) 0.01094(5)
O1_3 O 0.3382(6) 0.8487(4) 0.0465(5)
C3_3 C 0.0427(7) 0.9372(3) 0.0553(3)
H3_3 H 0.0717 0.8946 0.0928
N5_3 N 0.7615(5) 0.6697(3) 0.0756(3)
N6_3 N 0.6058(6) 0.6301(3) 0.1709(3)
N7_3 N 0.6230(6) 0.7221(3) 0.0723(3)
N8_3 N 0.8558(7) 0.5557(3) 0.1603(3)
H6_3 H 0.9444 0.5499 0.1368
H7_3 H 0.8378 0.5230 0.1997
C13_3 C 0.7465(7) 0.6153(3) 0.1360(3)
C14_3 C 0.5367(7) 0.6961(3) 0.1294(4)
H8_3 H 0.4376 0.7206 0.1402
O11_2 O 0.6934(7) 0.8982(3) 0.1125(3)
Zn2_3 Zn 1.0000 0.93613(5) 0.7500
O2_3 O 0.4071(8) 0.9234(4) 0.9526(5)
N1_3 N 0.7385(5) 0.8303(3) 0.9244(3)
N2_2 N 0.8942(6) 0.8699(3) 0.8291(3)
N3_3 N 0.8770(6) 0.7779(3) 0.9277(3)
N4_3 N 0.6442(7) 0.9443(3) 0.8397(3)
H1_3 H 0.5556 0.9501 0.8632
H2_3 H 0.6622 0.9770 0.8003
C1_3 C 0.3047(8) 0.9067(4) 0.9970(6)
C2_3 C 0.1463(7) 0.9549(3) 0.9965(4)
C6_3 C 0.7535(7) 0.8847(3) 0.8640(3)
C7_3 C 0.9633(7) 0.8039(3) 0.8706(4)
C8_3 C 0.6953(8) 0.0933(4) 0.0030(6)
C9_3 C 0.8537(7) 0.0451(3) 0.0035(4)
C10_3 C 0.9573(7) 0.0628(3) 0.9447(3)
H5_3 H 0.9283 0.1054 0.9072
O4_3 O 0.8197(8) 0.9910(4) 0.1976(3)
C4_3 C 0.8974(7) 0.9810(3) 0.0597(3)
C5_3 C 0.7926(8) 0.9556(4) 0.1259(4)
C8_4 C 0.3047(8) 0.0933(4) 0.4970(6)
C9_4 C 0.1463(7) 0.0451(3) 0.4965(4)
C10_4 C 0.0427(7) 0.0628(3) 0.5553(3)
H5_4 H 0.0717 0.1054 0.5928
O3_2 O 0.3066(7) 0.8982(3) 0.3875(3)
O4_4 O 0.1803(8) 0.9910(4) 0.3024(3)
C4_4 C 0.1026(7) 0.9810(3) 0.4403(3)
C5_4 C 0.2074(8) 0.9556(4) 0.3741(4)
Zn4_2 Zn 0.41515(9) 0.82853(4) 0.48906(5)
C11_4 C 0.8974(7) 0.0190(3) 0.5597(3)
C12_4 C 0.7926(8) 0.0444(4) 0.6259(4)
O1_4 O 0.6618(6) 0.8487(4) 0.4535(5)
O2_4 O 0.5929(8) 0.9234(4) 0.5474(5)
N1_4 N 0.2615(5) 0.8303(3) 0.5756(3)
N3_4 N 0.1230(6) 0.7779(3) 0.5723(3)
N4_4 N 0.3558(7) 0.9443(3) 0.6603(3)
H1_4 H 0.4444 0.9501 0.6368
H2_4 H 0.3378 0.9770 0.6997
C1_4 C 0.6953(8) 0.9067(4) 0.5030(6)
C2_4 C 0.8537(7) 0.9549(3) 0.5035(4)
C3_4 C 0.9573(7) 0.9372(3) 0.4447(3)
H3_4 H 0.9283 0.8946 0.4072
C6_4 C 0.2465(7) 0.8847(3) 0.6360(3)
C7_4 C 0.0367(7) 0.8039(3) 0.6294(4)
N5_4 N 0.2385(5) 0.6697(3) 0.4244(3)
N6_4 N 0.3942(6) 0.6301(3) 0.3291(3)
N7_4 N 0.3770(6) 0.7221(3) 0.4277(3)
N8_4 N 0.1442(7) 0.5557(3) 0.3397(3)
H6_4 H 0.0556 0.5499 0.3632
H7_4 H 0.1622 0.5230 0.3003
C13_4 C 0.2535(7) 0.6153(3) 0.3640(3)
C14_4 C 0.4633(7) 0.6961(3) 0.3706(4)
H8_4 H 0.5624 0.7206 0.3598
H4_4 H 0.9376 0.7794 0.6402
loop_
_geom_bond_atom_site_label_1
_geom_bond_atom_site_label_2
_geom_bond_site_symmetry_1
_geom_bond_site_symmetry_2
N6 C13 1_555 1_555
N7 Zn1 1_555 1_555
N8 H6 1_555 1_555
H7 N8 1_555 1_555
C13 N5 1_555 1_555
C14 N6 1_555 1_555
Zn9 N6 1_555 1_555
O11 Zn1 1_555 1_555
N5 N7 1_555 1_555
N7 C14 1_555 1_555
N8 C13 1_555 1_555
Zn2 N2 1_555 1_555
N2 C6 1_555 1_555
N3 N1 1_555 1_555
N4 H1 1_555 1_555
H2 N4 1_555 1_555
C6 N1 1_555 1_555
C7 N2 1_555 1_555
H4 C7 1_555 1_555
Zn3 N3 1_555 1_555
O9 Zn3 1_555 1_555
O12 Zn3 1_555 1_555
O13 Zn2 1_555 1_555
O14 Zn2 1_555 1_555
N9 Zn2 1_555 1_555
N3 C7 1_555 1_555
N4 C6 1_555 1_555
O11 C5 1_555 1_555
O4 C5 1_555 1_555
H3 C3 1_555 1_555
C4 C3 1_555 1_555
C5 C4 1_555 1_555
O6 C8 1_555 1_555
C8 C9 1_555 1_555
C9 C4 1_555 1_555
Zn8 O4 1_555 1_555
C1 O2 1_555 1_555
C2 C1 1_555 1_555
H5 C10 1_555 1_555
C11 C2 1_555 1_555
O7 C12 1_555 1_555
C12 C11 1_555 1_555
O13 C12 1_555 1_555
Zn6 O7 1_555 1_555
C10 C11 1_555 1_555
O1_2 C1_2 1_555 1_555
O3 C5_2 1_555 1_555
O4_2 C5_2 1_555 1_555
C1_2 O2_2 1_555 1_555
C2_2 C1_2 1_555 1_555
C3_2 C2_2 1_555 1_555
H3_2 C3_2 1_555 1_555
C4_2 C3_2 1_555 1_555
C5_2 C4_2 1_555 1_555
O5_2 C8_2 1_555 1_555
O6_2 C8_2 1_555 1_555
C8_2 C9_2 1_555 1_555
C9_2 C4_2 1_555 1_555
C10_2 C9_2 1_555 1_555
H5_2 C10_2 1_555 1_555
C11_2 C2_2 1_555 1_555
O7_2 C12_2 1_555 1_555
C12_2 C11_2 1_555 1_555
O14 C12_2 1_555 1_555
Zn4 O3 1_555 1_555
Zn5 O7_2 1_555 1_555
Zn8 O4_2 1_555 1_555
C10_2 C11_2 1_555 1_555
N1_2 Zn4 1_555 1_555
N9 C6_2 1_555 1_555
N3_2 N1_2 1_555 1_555
N4_2 H1_2 1_555 1_555
H2_2 N4_2 1_555 1_555
C6_2 N1_2 1_555 1_555
C7_2 N9 1_555 1_555
H4_2 C7_2 1_555 1_555
Zn3_2 N3_2 1_555 1_555
N5_2 Zn3_2 1_555 1_555
N6_2 C13_2 1_555 1_555
N7_2 Zn4 1_555 1_555
N8_2 H6_2 1_555 1_555
H7_2 N8_2 1_555 1_555
C13_2 N5_2 1_555 1_555
C14_2 N6_2 1_555 1_555
Zn9_2 N6_2 1_555 1_555
O9_2 Zn3_2 1_555 1_555
O10_2 Zn3_2 1_555 1_555
O12_2 Zn3_2 1_555 1_555
N3_2 C7_2 1_555 1_555
N4_2 C6_2 1_555 1_555
N5_2 N7_2 1_555 1_555
N7_2 C14_2 1_555 1_555
N8_2 C13_2 1_555 1_555
N9_2 Zn2_2 1_555 1_555
O12 C12_3 1_555 1_555
C12_3 C11_3 1_555 1_555
O13_2 C12_3 1_555 1_555
Zn1_2 O1_3 1_555 1_555
H3_3 C3_3 1_555 1_555
N6_3 C13_3 1_555 1_555
N7_3 Zn1_2 1_555 1_555
N8_3 H6_3 1_555 1_555
H7_3 N8_3 1_555 1_555
C13_3 N5_3 1_555 1_555
C14_3 N6_3 1_555 1_555
H8_3 C14_3 1_555 1_555
Zn8 N6_3 1_555 1_555
O11_2 Zn1_2 1_555 1_555
N5_3 N7_3 1_555 1_555
N7_3 C14_3 1_555 1_555
N8_3 C13_3 1_555 1_555
Zn2_3 N2_2 1_555 1_555
N2_2 C6_3 1_555 1_555
N3_3 N1_3 1_555 1_555
N4_3 H1_3 1_555 1_555
H2_3 N4_3 1_555 1_555
C1_3 O2_3 1_555 1_555
C2_3 C1_3 1_555 1_555
C6_3 N1_3 1_555 1_555
C7_3 N2_2 1_555 1_555
Zn6 N3_3 1_555 1_555
N3_3 C7_3 1_555 1_555
N4_3 C6_3 1_555 1_555
O10 C8_3 1_555 1_555
C8_3 C9_3 1_555 1_555
H5_3 C10_3 1_555 1_555
O11_2 C5_3 1_555 1_555
O4_3 C5_3 1_555 1_555
C5_3 C4_3 1_555 1_555
O9_2 C8_4 1_555 1_555
O10_2 C8_4 1_555 1_555
C8_4 C9_4 1_555 1_555
C10_4 C9_4 1_555 1_555
H5_4 C10_4 1_555 1_555
O3_2 C5_4 1_555 1_555
O4_4 C5_4 1_555 1_555
C5_4 C4_4 1_555 1_555
Zn4_2 O3_2 1_555 1_555
O12_2 C12_4 1_555 1_555
C12_4 C11_4 1_555 1_555
O14_2 C12_4 1_555 1_555
Zn4_2 O1_4 1_555 1_555
O1_4 C1_4 1_555 1_555
O2_4 Zn4_2 1_555 1_555
N1_4 Zn4_2 1_555 1_555
N9_2 C6_4 1_555 1_555
N3_4 N1_4 1_555 1_555
N4_4 H1_4 1_555 1_555
H2_4 N4_4 1_555 1_555
C1_4 O2_4 1_555 1_555
C2_4 C1_4 1_555 1_555
C3_4 C2_4 1_555 1_555
H3_4 C3_4 1_555 1_555
C6_4 N1_4 1_555 1_555
C7_4 N9_2 1_555 1_555
Zn5 N3_4 1_555 1_555
N5_4 Zn5 1_555 1_555
N6_4 C13_4 1_555 1_555
N7_4 Zn4_2 1_555 1_555
N8_4 H6_4 1_555 1_555
H7_4 N8_4 1_555 1_555
C13_4 N5_4 1_555 1_555
C14_4 N6_4 1_555 1_555
H8_4 C14_4 1_555 1_555
Zn8 N6_4 1_555 1_555
N3_4 C7_4 1_555 1_555
N4_4 C6_4 1_555 1_555
N5_4 N7_4 1_555 1_555
N7_4 C14_4 1_555 1_555
N8_4 C13_4 1_555 1_555

#END
