
###############################################################################
#
# This file contains modified crystal structure data generated from the
# MOF subset of the Cambridge Structural Database (CSD) v543 
# hosted by the Cambridge Crystallographic Data Centre (CCDC).
#
# This work is licensed under the Creative Commons
# Attribution-NonCommercial-ShareAlike 4.0 International License.
# To view a copy of this license, visit
# http://creativecommons.org/licenses/by-nc-sa/4.0/
# or send a letter to
# Creative Commons, PO Box 1866, Mountain View, CA 94042, USA.
#
# CIF created using the CSD Python API on 29 September 2022
# The structure has been converted into the P1 space group
# The structure has a 3D framework
# The original CSD entry COKCEN is in the triclinic crystal system
# The framework has been calculated to contain at least 10.0% void space
# The void calculation uses a probe of radius 1.32A, grid spacing 0.4
#
###############################################################################

data_COKCEN
_chemical_formula_moiety         '(C64 H40 N16 O32 Zn8)n'
_symmetry_cell_setting           triclinic
_symmetry_space_group_name_H-M   'P 1'
_symmetry_Int_Tables_number      1
_space_group_name_Hall           'P 1'
loop_
_symmetry_equiv_pos_site_id
_symmetry_equiv_pos_as_xyz
1 x,y,z
_cell_length_a                   9.7083(3)
_cell_length_b                   12.3721(8)
_cell_length_c                   18.0053(5)
_cell_angle_alpha                91.074(4)
_cell_angle_beta                 95.987(3)
_cell_angle_gamma                99.217(4)
_cell_volume                     2121.7
loop_
_atom_site_label
_atom_site_type_symbol
_atom_site_fract_x
_atom_site_fract_y
_atom_site_fract_z
Zn1 Zn 0.32421(4) 0.09775(4) 0.60065(2)
Zn3 Zn 0.15927(5) 0.28574(5) 0.51466(2)
O3 O 0.0985(3) 0.2142(3) 0.41629(14)
O6 O 0.3358(3) 0.2343(3) 0.54847(15)
O7 O 0.2018(3) 0.0990(3) 0.17142(14)
O11 O 0.0663(3) 0.1339(3) 0.07109(14)
O15 O 0.2529(4) 0.4377(3) 0.48045(19)
H1 H 0.3223 0.4305 0.4542
H2 H 0.2868 0.4814 0.5192
H7 H 0.1851 0.0438 0.4358
C20 C 0.0190(4) 0.1655(3) 0.2645(2)
H9 H 0.1111 0.1627 0.2836
C24 C 0.0869(4) 0.1207(4) 0.1385(2)
Zn8 Zn 0.34073(4) 0.10288(4) 0.09792(2)
Zn11 Zn 0.18452(5) 0.28829(5) 0.00443(2)
O17 O 0.5046(3) 0.0810(3) 0.65685(15)
O20 O 0.0507(3) 0.1221(3) 0.57235(14)
O21 O 0.1839(3) 0.0851(3) 0.67328(15)
N9 N 0.0899(3) 0.3621(3) 0.60160(18)
C15 C 0.0040(4) 0.4653(4) 0.7234(2)
C25 C 0.0082(5) 0.6092(5) 0.9097(2)
H14 H 0.0733 0.6330 0.9506
C29 C 0.0531(5) 0.5595(5) 0.8496(3)
H17 H 0.1470 0.5519 0.8500
C31 C 0.1258(5) 0.4176(4) 0.7305(2)
H19 H 0.1797 0.4191 0.7764
C32 C 0.1643(5) 0.3688(4) 0.6690(2)
H20 H 0.2464 0.3386 0.6742
O4 O 0.5194(3) 0.0728(3) 0.15135(15)
N2 N 0.7806(3) 0.1072(3) 0.08672(16)
O12 O 0.5325(3) 0.2436(3) 0.1942(2)
O13 O 0.9122(3) 0.2923(3) 0.42591(15)
N5 N 0.7064(4) 0.1757(3) 0.04645(18)
C2 C 0.9807(4) 0.2381(4) 0.3902(2)
C4 C 0.7402(4) 0.1641(3) 0.2104(2)
C5 C 0.8350(4) 0.1348(3) 0.16353(19)
C8 C 0.9754(4) 0.1365(3) 0.1891(2)
C10 C 0.7814(4) 0.0157(4) 0.0467(2)
C13 C 0.9274(4) 0.1982(4) 0.3111(2)
C18 C 0.5856(4) 0.1611(4) 0.1834(2)
C19 C 0.7889(4) 0.1989(4) 0.2836(2)
H8 H 0.7280 0.2228 0.3144
O10 O 0.3529(3) 0.2309(3) 0.03849(16)
N6 N 0.1232(4) 0.3754(3) 0.08799(18)
C21 C 0.0709(5) 0.5431(5) 0.3448(2)
H10 H 0.1532 0.5134 0.3519
C23 C 0.0409(4) 0.4787(4) 0.2107(2)
C27 C 0.1757(5) 0.4608(6) 0.2088(3)
H15 H 0.2425 0.4839 0.2492
C28 C 0.0258(5) 0.5958(5) 0.4039(2)
H16 H 0.0805 0.6016 0.4498
C30 C 0.2134(5) 0.4094(5) 0.1483(3)
H18 H 0.3057 0.3976 0.1489
O2 O 0.0915(3) 0.2115(3) 0.91393(15)
C3 C 0.0028(4) 0.1530(3) 0.7661(2)
H3 H 0.0924 0.1437 0.7857
H5 H 0.1746 0.0426 0.9375
C11 C 0.0700(4) 0.1076(3) 0.6405(2)
O16 O 0.2790(4) 0.4236(3) 0.9490(2)
H11 H 0.3296 0.4766 0.9810
H12 H 0.3394 0.4056 0.9173
O5 O 0.9065(3) 0.2928(3) 0.92506(16)
N1 N 0.7056(3) 0.0208(3) 0.48046(16)
N4 N 0.7661(3) 0.1037(3) 0.58827(16)
C1 C 0.9156(4) 0.1932(3) 0.8122(2)
O14 O 0.5279(3) 0.2563(3) 0.69406(18)
C6 C 0.9586(4) 0.1262(3) 0.6905(2)
C7 C 0.5756(4) 0.1712(4) 0.6854(2)
N8 N 0.6948(4) 0.1731(3) 0.54683(18)
C9 C 0.7788(4) 0.2020(4) 0.7839(2)
H4 H 0.7209 0.2315 0.8140
C14 C 0.7714(4) 0.0145(4) 0.5478(2)
C16 C 0.9724(4) 0.2361(4) 0.8901(2)
C17 C 0.7288(4) 0.1672(3) 0.7113(2)
C22 C 0.6609(4) 0.1192(4) 0.4827(2)
H13 H 0.6106 0.1459 0.4422
C26 C 0.8194(4) 0.1316(3) 0.66471(19)
O1 O 0.4954(3) 0.9190(3) 0.34315(15)
O5_2 O 0.0935(3) 0.7072(3) 0.07494(16)
N1_2 N 0.2944(3) 0.9792(3) 0.51954(16)
N4_2 N 0.2339(3) 0.8963(3) 0.41173(16)
C1_2 C 0.0844(4) 0.8068(3) 0.1878(2)
O14_2 O 0.4721(3) 0.7437(3) 0.30594(18)
C6_2 C 0.0414(4) 0.8738(3) 0.3095(2)
C7_2 C 0.4244(4) 0.8288(4) 0.3146(2)
N8_2 N 0.3052(4) 0.8269(3) 0.45317(18)
C9_2 C 0.2212(4) 0.7980(4) 0.2161(2)
H4_2 H 0.2791 0.7685 0.1860
C14_2 C 0.2286(4) 0.9855(4) 0.4522(2)
C16_2 C 0.0276(4) 0.7639(4) 0.1099(2)
C17_2 C 0.2712(4) 0.8328(3) 0.2887(2)
C22_2 C 0.3391(4) 0.8808(4) 0.5173(2)
H13_2 H 0.3894 0.8541 0.5578
C26_2 C 0.1806(4) 0.8684(3) 0.33529(19)
Zn6 Zn 0.67579(4) 0.90225(4) 0.39935(2)
O2_2 O 0.9085(3) 0.7885(3) 0.08607(15)
O8 O 0.9493(3) 0.8779(3) 0.42765(14)
O9 O 0.8161(3) 0.9149(3) 0.32672(15)
C3_2 C 0.9972(4) 0.8470(3) 0.2339(2)
H3_2 H 0.9076 0.8563 0.2143
H5_2 H 0.8254 0.9574 0.0625
C11_2 C 0.9300(4) 0.8924(3) 0.3595(2)
O16_2 O 0.7210(4) 0.5764(3) 0.0510(2)
H11_2 H 0.6704 0.5234 0.0190
H12_2 H 0.6606 0.5944 0.0827
Zn10 Zn 0.84073(5) 0.71426(5) 0.48534(2)
Zn2 Zn 0.65927(4) 0.89712(4) 0.90208(2)
Zn4 Zn 0.81548(5) 0.71171(5) 0.99557(2)
O10_2 O 0.6471(3) 0.7691(3) 0.96151(16)
N6_2 N 0.8768(4) 0.6246(3) 0.91201(18)
C21_2 C 0.9291(5) 0.4569(5) 0.6552(2)
H10_2 H 0.8468 0.4866 0.6481
C23_2 C 0.9591(4) 0.5213(4) 0.7893(2)
C27_2 C 0.8243(5) 0.5392(6) 0.7912(3)
H15_2 H 0.7575 0.5161 0.7508
C28_2 C 0.9742(5) 0.4042(5) 0.5961(2)
H16_2 H 0.9195 0.3984 0.5502
C30_2 C 0.7866(5) 0.5906(5) 0.8517(3)
H18_2 H 0.6943 0.6024 0.8511
O18 O 0.4806(3) 0.9272(3) 0.84865(15)
O19 O 0.7982(3) 0.9010(3) 0.82858(14)
O22 O 0.9337(3) 0.8661(3) 0.92891(14)
N2_2 N 0.2194(3) 0.8928(3) 0.91328(16)
O12_2 O 0.4675(3) 0.7564(3) 0.8058(2)
O13_2 O 0.0878(3) 0.7077(3) 0.57409(15)
N5_2 N 0.2936(4) 0.8243(3) 0.95355(18)
C2_2 C 0.0193(4) 0.7619(4) 0.6098(2)
C4_2 C 0.2598(4) 0.8359(3) 0.7896(2)
C5_2 C 0.1650(4) 0.8652(3) 0.83647(19)
C8_2 C 0.0246(4) 0.8635(3) 0.8109(2)
C10_2 C 0.2186(4) 0.9843(4) 0.9533(2)
C13_2 C 0.0726(4) 0.8018(4) 0.6889(2)
C18_2 C 0.4144(4) 0.8389(4) 0.8166(2)
C19_2 C 0.2111(4) 0.8011(4) 0.7164(2)
H8_2 H 0.2720 0.7772 0.6856
N7 N 0.9101(3) 0.6379(3) 0.39840(18)
C15_2 C 0.9960(4) 0.5347(4) 0.2766(2)
C25_2 C 0.9918(5) 0.3908(5) 0.0903(2)
H14_2 H 0.9267 0.3670 0.0494
C29_2 C 0.9469(5) 0.4405(5) 0.1504(3)
H17_2 H 0.8530 0.4481 0.1500
C31_2 C 0.8742(5) 0.5824(4) 0.2695(2)
H19_2 H 0.8203 0.5809 0.2236
C32_2 C 0.8357(5) 0.6312(4) 0.3310(2)
H20_2 H 0.7536 0.6614 0.3258
O3_2 O 0.9015(3) 0.7858(3) 0.58371(14)
O6_2 O 0.6642(3) 0.7657(3) 0.45153(15)
O15_2 O 0.7471(4) 0.5623(3) 0.51955(19)
H1_2 H 0.6777 0.5695 0.5458
H2_2 H 0.7132 0.5186 0.4808
H7_2 H 0.8149 0.9562 0.5642
C20_2 C 0.9810(4) 0.8345(3) 0.7355(2)
H9_2 H 0.8889 0.8373 0.7164
C24_2 C 0.9131(4) 0.8793(4) 0.8615(2)
N3 N 0.7094(3) 0.0213(3) 0.98054(17)
C12 C 0.6655(4) 0.1203(4) 0.9834(2)
H6 H 0.6113 0.1461 0.9441
N3_2 N 0.2906(3) 0.9787(3) 0.01946(17)
C12_2 C 0.3345(4) 0.8797(4) 0.0166(2)
H6_2 H 0.3887 0.8539 0.0559
loop_
_geom_bond_atom_site_label_1
_geom_bond_atom_site_label_2
_geom_bond_site_symmetry_1
_geom_bond_site_symmetry_2
Zn1 O6 1_555 1_555
Zn3 O3 1_555 1_555
O6 Zn3 1_555 1_555
O7 C24 1_555 1_555
O11 C24 1_555 1_555
O15 Zn3 1_555 1_555
H1 O15 1_555 1_555
H2 O15 1_555 1_555
H9 C20 1_555 1_555
Zn8 O7 1_555 1_555
Zn11 O11 1_555 1_555
O17 Zn1 1_555 1_555
O20 Zn3 1_555 1_555
O21 Zn1 1_555 1_555
N9 Zn3 1_555 1_555
H14 C25 1_555 1_555
H17 C29 1_555 1_555
C31 C15 1_555 1_555
H19 C31 1_555 1_555
C32 N9 1_555 1_555
H20 C32 1_555 1_555
C25 C29 1_555 1_555
C31 C32 1_555 1_555
O4 C18 1_555 1_555
N2 N5 1_555 1_555
O12 C18 1_555 1_555
O13 C2 1_555 1_555
C2 C13 1_555 1_555
C4 C5 1_555 1_555
C5 N2 1_555 1_555
C8 C5 1_555 1_555
C10 N2 1_555 1_555
C13 C19 1_555 1_555
C18 C4 1_555 1_555
C19 C4 1_555 1_555
H8 C19 1_555 1_555
Zn8 O4 1_555 1_555
Zn8 O10 1_555 1_555
O10 Zn11 1_555 1_555
N6 Zn11 1_555 1_555
C21 H10 1_555 1_555
C27 C23 1_555 1_555
H15 C27 1_555 1_555
C28 C21 1_555 1_555
H16 C28 1_555 1_555
C30 N6 1_555 1_555
H18 C30 1_555 1_555
C27 C30 1_555 1_555
O20 C11 1_555 1_555
O21 C11 1_555 1_555
C3 H3 1_555 1_555
H11 O16 1_555 1_555
H12 O16 1_555 1_555
O17 C7 1_555 1_555
O5 C16 1_555 1_555
N4 N8 1_555 1_555
O14 C7 1_555 1_555
C7 C17 1_555 1_555
N8 C22 1_555 1_555
C9 C1 1_555 1_555
H4 C9 1_555 1_555
C14 N1 1_555 1_555
C16 C1 1_555 1_555
C17 C9 1_555 1_555
C22 N1 1_555 1_555
H13 C22 1_555 1_555
C26 N4 1_555 1_555
N4 C14 1_555 1_555
C6 C26 1_555 1_555
C17 C26 1_555 1_555
O1 C7_2 1_555 1_555
O5_2 C16_2 1_555 1_555
N4_2 N8_2 1_555 1_555
O14_2 C7_2 1_555 1_555
C7_2 C17_2 1_555 1_555
N8_2 C22_2 1_555 1_555
C9_2 C1_2 1_555 1_555
H4_2 C9_2 1_555 1_555
C14_2 N1_2 1_555 1_555
C16_2 C1_2 1_555 1_555
C17_2 C9_2 1_555 1_555
C22_2 N1_2 1_555 1_555
H13_2 C22_2 1_555 1_555
C26_2 N4_2 1_555 1_555
Zn6 O1 1_555 1_555
N4_2 C14_2 1_555 1_555
C6_2 C26_2 1_555 1_555
C17_2 C26_2 1_555 1_555
O8 C11_2 1_555 1_555
O9 C11_2 1_555 1_555
C3_2 H3_2 1_555 1_555
H11_2 O16_2 1_555 1_555
H12_2 O16_2 1_555 1_555
Zn6 O9 1_555 1_555
Zn10 O8 1_555 1_555
Zn2 O10_2 1_555 1_555
O10_2 Zn4 1_555 1_555
N6_2 Zn4 1_555 1_555
C21_2 H10_2 1_555 1_555
C27_2 C23_2 1_555 1_555
H15_2 C27_2 1_555 1_555
C28_2 C21_2 1_555 1_555
H16_2 C28_2 1_555 1_555
C30_2 N6_2 1_555 1_555
H18_2 C30_2 1_555 1_555
O18 Zn2 1_555 1_555
O19 Zn2 1_555 1_555
O22 Zn4 1_555 1_555
C27_2 C30_2 1_555 1_555
O18 C18_2 1_555 1_555
N2_2 N5_2 1_555 1_555
O12_2 C18_2 1_555 1_555
O13_2 C2_2 1_555 1_555
C2_2 C13_2 1_555 1_555
C4_2 C5_2 1_555 1_555
C5_2 N2_2 1_555 1_555
C8_2 C5_2 1_555 1_555
C10_2 N2_2 1_555 1_555
C13_2 C19_2 1_555 1_555
C18_2 C4_2 1_555 1_555
C19_2 C4_2 1_555 1_555
H8_2 C19_2 1_555 1_555
H14_2 C25_2 1_555 1_555
H17_2 C29_2 1_555 1_555
C31_2 C15_2 1_555 1_555
H19_2 C31_2 1_555 1_555
C32_2 N7 1_555 1_555
H20_2 C32_2 1_555 1_555
Zn10 N7 1_555 1_555
C25_2 C29_2 1_555 1_555
C31_2 C32_2 1_555 1_555
Zn6 O6_2 1_555 1_555
Zn10 O3_2 1_555 1_555
O6_2 Zn10 1_555 1_555
O19 C24_2 1_555 1_555
O22 C24_2 1_555 1_555
O15_2 Zn10 1_555 1_555
H1_2 O15_2 1_555 1_555
H2_2 O15_2 1_555 1_555
H9_2 C20_2 1_555 1_555
C12 N3 1_555 1_555
H6 C12 1_555 1_555
C12_2 N3_2 1_555 1_555
H6_2 C12_2 1_555 1_555

#END
