
###############################################################################
#
# This file contains modified crystal structure data generated from the
# MOF subset of the Cambridge Structural Database (CSD) v543 
# hosted by the Cambridge Crystallographic Data Centre (CCDC).
#
# This work is licensed under the Creative Commons
# Attribution-NonCommercial-ShareAlike 4.0 International License.
# To view a copy of this license, visit
# http://creativecommons.org/licenses/by-nc-sa/4.0/
# or send a letter to
# Creative Commons, PO Box 1866, Mountain View, CA 94042, USA.
#
# CIF created using the CSD Python API on 29 September 2022
# The structure has been converted into the P1 space group
# The structure has a 3D framework
# The original CSD entry COKDAI is in the orthorhombic crystal system
# The framework has been calculated to contain at least 10.0% void space
# The void calculation uses a probe of radius 1.32A, grid spacing 0.4
#
###############################################################################

data_COKDAI
_chemical_formula_moiety         '(C80 H76 Cd4 N16 O17 S4)n'
_symmetry_cell_setting           triclinic
_symmetry_space_group_name_H-M   'P 1'
_symmetry_Int_Tables_number      1
_space_group_name_Hall           'P 1'
loop_
_symmetry_equiv_pos_site_id
_symmetry_equiv_pos_as_xyz
1 x,y,z
_cell_length_a                   7.6483(4)
_cell_length_b                   30.7546(16)
_cell_length_c                   11.2156(6)
_cell_angle_alpha                90
_cell_angle_beta                 90
_cell_angle_gamma                90
_cell_volume                     2638.14
loop_
_atom_site_label
_atom_site_type_symbol
_atom_site_fract_x
_atom_site_fract_y
_atom_site_fract_z
Cd2 Cd 0.09523(9) 0.2500 0.78167(5)
C1 C 0.5946(9) 0.3477(2) 0.6234(6)
H1 H 0.6202 0.3384 0.5464
C2 C 0.5399(9) 0.3484(2) 0.8116(6)
H2 H 0.5194 0.3391 0.8893
C3 C 0.5412(11) 0.3898(3) 0.7750(7)
H3 H 0.5233 0.4143 0.8220
C4 C 0.5885(10) 0.4271(3) 0.5767(8)
H4 H 0.6376 0.4183 0.5007
H5 H 0.6667 0.4483 0.6123
C5 C 0.4090(11) 0.4478(3) 0.5566(7)
C6 C 0.3549(10) 0.4828(2) 0.6247(8)
H6 H 0.4263 0.4932 0.6855
C7 C 0.1928(9) 0.5028(2) 0.6028(6)
H7 H 0.1574 0.5258 0.6509
C8 C 0.0856(11) 0.4893(2) 0.5124(7)
C9 C 0.1428(13) 0.4531(3) 0.4470(8)
H8 H 0.0722 0.4423 0.3865
C10 C 0.3005(13) 0.4334(3) 0.4701(8)
H9 H 0.3333 0.4093 0.4250
N1 N 0.5742(7) 0.32166(17) 0.7155(5)
N2 N 0.5738(7) 0.38920(18) 0.6552(5)
O1 O 0.8066(8) 0.2500 0.8769(5)
H10 H 0.7925 0.2244 0.9265
H11 H 0.7925 0.2756 0.9265
O3 O 0.3852(8) 0.2500 0.8801(5)
Cd1 Cd 0.59523(9) 0.2500 0.71833(5)
N4 N 0.5742(7) 0.17834(17) 0.7155(5)
O5 O 0.3066(8) 0.2500 0.6231(5)
H21 H 0.2925 0.2244 0.5735
H22 H 0.2925 0.2756 0.5735
O7 O 0.8852(8) 0.2500 0.6199(5)
O8 O 0.6498(9) 0.2500 0.4841(6)
C11 C 0.0946(9) 0.3477(2) 0.8766(6)
H12 H 0.1202 0.3384 0.9536
C12 C 0.0399(9) 0.3484(2) 0.6884(6)
H13 H 0.0194 0.3391 0.6107
C13 C 0.0412(11) 0.3898(3) 0.7250(7)
H14 H 0.0233 0.4143 0.6780
C14 C 0.0885(10) 0.4271(3) 0.9233(8)
H15 H 0.1376 0.4183 0.9993
H16 H 0.1667 0.4483 0.8877
N3 N 0.0742(7) 0.32166(17) 0.7845(5)
N5 N 0.0738(7) 0.38920(18) 0.8448(5)
C9_2 C 0.3572(13) 0.5469(3) 0.9470(8)
H8_2 H 0.4278 0.5577 0.8865
C10_2 C 0.1995(13) 0.5666(3) 0.9701(8)
H9_2 H 0.1667 0.5907 0.9250
C15 C 0.9090(11) 0.4478(3) 0.9434(7)
C16 C 0.8549(10) 0.4828(2) 0.8753(8)
H17 H 0.9263 0.4932 0.8145
C17 C 0.6928(9) 0.5028(2) 0.8972(6)
H18 H 0.6574 0.5258 0.8491
C18 C 0.5856(11) 0.4893(2) 0.9876(7)
C1_2 C 0.0946(9) 0.1523(2) 0.8766(6)
H1_2 H 0.1202 0.1616 0.9536
C2_2 C 0.0399(9) 0.1516(2) 0.6884(6)
H2_2 H 0.0194 0.1609 0.6107
C3_2 C 0.0412(11) 0.1102(3) 0.7250(7)
H3_2 H 0.0233 0.0857 0.6780
C4_2 C 0.0885(10) 0.0729(3) 0.9233(8)
H4_2 H 0.1376 0.0817 0.9993
H5_2 H 0.1667 0.0517 0.8877
N1_2 N 0.0742(7) 0.17834(17) 0.7845(5)
N2_2 N 0.0738(7) 0.11080(18) 0.8448(5)
C5_2 C 0.9090(11) 0.0522(3) 0.9434(7)
C6_2 C 0.8549(10) 0.0172(2) 0.8753(8)
H6_2 H 0.9263 0.0068 0.8145
C8_2 C 0.5856(11) 0.0107(2) 0.9876(7)
O2 O 0.9180(8) 0.2114(3) 0.4355(6)
S1 S 0.8449(3) 0.2500 0.4923(2)
O6 O 0.9180(8) 0.2886(3) 0.4355(6)
C11_2 C 0.5946(9) 0.1523(2) 0.6234(6)
H12_2 H 0.6202 0.1616 0.5464
C12_2 C 0.5399(9) 0.1516(2) 0.8116(6)
H13_2 H 0.5194 0.1609 0.8893
C13_2 C 0.5412(11) 0.1102(3) 0.7750(7)
H14_2 H 0.5233 0.0857 0.8220
C14_2 C 0.5885(10) 0.0729(3) 0.5767(8)
H15_2 H 0.6376 0.0817 0.5007
H16_2 H 0.6667 0.0517 0.6123
C15_2 C 0.4090(11) 0.0522(3) 0.5566(7)
C16_2 C 0.3549(10) 0.0172(2) 0.6247(8)
H17_2 H 0.4263 0.0068 0.6855
C18_2 C 0.0856(11) 0.0107(2) 0.5124(7)
C19 C 0.1428(13) 0.0469(3) 0.4470(8)
H19 H 0.0722 0.0577 0.3865
C20 C 0.3005(13) 0.0666(3) 0.4701(8)
H20 H 0.3333 0.0907 0.4250
N5_2 N 0.5738(7) 0.11080(18) 0.6552(5)
O2_2 O 0.4180(8) 0.2886(3) 0.0645(6)
O4 O 0.1498(9) 0.2500 0.0159(6)
S1_2 S 0.3449(3) 0.2500 0.0077(2)
O6_2 O 0.4180(8) 0.2114(3) 0.0645(6)
C11_3 C 0.4054(9) 0.6523(2) 0.3766(6)
H12_3 H 0.3798 0.6616 0.4536
C12_3 C 0.4601(9) 0.6516(2) 0.1884(6)
H13_3 H 0.4806 0.6609 0.1107
C13_3 C 0.4588(11) 0.6102(3) 0.2250(7)
H14_3 H 0.4767 0.5857 0.1780
C14_3 C 0.4115(10) 0.5729(3) 0.4233(8)
H15_3 H 0.3624 0.5817 0.4993
H16_3 H 0.3333 0.5517 0.3877
C15_3 C 0.5910(11) 0.5522(3) 0.4434(7)
C16_3 C 0.6451(10) 0.5172(2) 0.3753(8)
H17_3 H 0.5737 0.5068 0.3145
C17_2 C 0.8072(9) 0.4972(2) 0.3972(6)
H18_2 H 0.8426 0.4742 0.3491
C18_3 C 0.9144(11) 0.5107(2) 0.4876(7)
C19_2 C 0.8572(13) 0.5469(3) 0.5530(8)
H19_2 H 0.9278 0.5577 0.6135
C20_2 C 0.6995(13) 0.5666(3) 0.5299(8)
H20_2 H 0.6667 0.5907 0.5750
N3_2 N 0.4258(7) 0.67834(17) 0.2845(5)
N5_3 N 0.4262(7) 0.61080(18) 0.3448(5)
Cd4 Cd 0.40477(9) 0.7500 0.28167(5)
C5_3 C 0.0910(11) 0.5522(3) 0.0566(7)
C6_3 C 0.1451(10) 0.5172(2) 0.1247(8)
H6_3 H 0.0737 0.5068 0.1855
C7_2 C 0.3072(9) 0.4972(2) 0.1028(6)
H7_2 H 0.3426 0.4742 0.1509
C8_3 C 0.4144(11) 0.5107(2) 0.0124(7)
O2_3 O 0.0820(8) 0.7114(3) 0.5645(6)
O3_2 O 0.1148(8) 0.7500 0.3801(5)
O4_2 O 0.3502(9) 0.7500 0.5159(6)
S1_3 S 0.1551(3) 0.7500 0.5077(2)
C19_3 C 0.6428(13) 0.4531(3) 0.0530(8)
H19_3 H 0.5722 0.4423 0.1135
C20_3 C 0.8005(13) 0.4334(3) 0.0299(8)
H20_3 H 0.8333 0.4093 0.0750
O5_2 O 0.1934(8) 0.7500 0.1231(5)
H21_2 H 0.2075 0.7756 0.0735
H22_2 H 0.2075 0.7244 0.0735
O6_3 O 0.0820(8) 0.7886(3) 0.5645(6)
C1_3 C 0.9054(9) 0.6523(2) 0.1234(6)
H1_3 H 0.8798 0.6616 0.0464
C2_3 C 0.9601(9) 0.6516(2) 0.3116(6)
H2_3 H 0.9806 0.6609 0.3893
C3_3 C 0.9588(11) 0.6102(3) 0.2750(7)
H3_3 H 0.9767 0.5857 0.3220
C4_3 C 0.9115(10) 0.5729(3) 0.0767(8)
H4_3 H 0.8624 0.5817 0.0007
H5_3 H 0.8333 0.5517 0.1123
N1_3 N 0.9258(7) 0.67834(17) 0.2155(5)
N2_3 N 0.9262(7) 0.61080(18) 0.1552(5)
O1_2 O 0.6934(8) 0.7500 0.3769(5)
H10_2 H 0.7075 0.7756 0.4265
H11_2 H 0.7075 0.7244 0.4265
Cd1_2 Cd 0.90477(9) 0.7500 0.21833(5)
N4_2 N 0.9258(7) 0.82166(17) 0.2155(5)
O7_2 O 0.6148(8) 0.7500 0.1199(5)
C15_4 C 0.0910(11) 0.9478(3) 0.0566(7)
C16_4 C 0.1451(10) 0.9828(2) 0.1247(8)
H17_4 H 0.0737 0.9932 0.1855
C18_4 C 0.4144(11) 0.9893(2) 0.0124(7)
C11_4 C 0.9054(9) 0.8477(2) 0.1234(6)
H12_4 H 0.8798 0.8384 0.0464
C12_4 C 0.9601(9) 0.8484(2) 0.3116(6)
H13_4 H 0.9806 0.8391 0.3893
C13_4 C 0.9588(11) 0.8898(3) 0.2750(7)
H14_4 H 0.9767 0.9143 0.3220
C14_4 C 0.9115(10) 0.9271(3) 0.0767(8)
H15_4 H 0.8624 0.9183 0.0007
H16_4 H 0.8333 0.9483 0.1123
N5_4 N 0.9262(7) 0.88920(18) 0.1552(5)
C1_4 C 0.4054(9) 0.8477(2) 0.3766(6)
H1_4 H 0.3798 0.8384 0.4536
C2_4 C 0.4601(9) 0.8484(2) 0.1884(6)
H2_4 H 0.4806 0.8391 0.1107
C3_4 C 0.4588(11) 0.8898(3) 0.2250(7)
H3_4 H 0.4767 0.9143 0.1780
C4_4 C 0.4115(10) 0.9271(3) 0.4233(8)
H4_4 H 0.3624 0.9183 0.4993
H5_4 H 0.3333 0.9483 0.3877
C5_4 C 0.5910(11) 0.9478(3) 0.4434(7)
C6_4 C 0.6451(10) 0.9828(2) 0.3753(8)
H6_4 H 0.5737 0.9932 0.3145
C8_4 C 0.9144(11) 0.9893(2) 0.4876(7)
C9_3 C 0.8572(13) 0.9531(3) 0.5530(8)
H8_3 H 0.9278 0.9423 0.6135
C10_3 C 0.6995(13) 0.9334(3) 0.5299(8)
H9_3 H 0.6667 0.9093 0.5750
N1_4 N 0.4258(7) 0.82166(17) 0.2845(5)
N2_4 N 0.4262(7) 0.88920(18) 0.3448(5)
O8_2 O 0.8502(9) 0.7500 0.9841(6)
O2_4 O 0.5820(8) 0.7886(3) 0.9355(6)
S1_4 S 0.6551(3) 0.7500 0.9923(2)
O6_4 O 0.5820(8) 0.7114(3) 0.9355(6)
C9_4 C 0.6428(13) 0.0469(3) 0.0530(8)
H8_4 H 0.5722 0.0577 0.1135
C10_4 C 0.8005(13) 0.0666(3) 0.0299(8)
H9_4 H 0.8333 0.0907 0.0750
C17_3 C 0.3072(9) 0.0028(2) 0.1028(6)
H18_3 H 0.3426 0.0258 0.1509
C7_3 C 0.6928(9) 0.9972(2) 0.8972(6)
H7_3 H 0.6574 0.9742 0.8491
C19_4 C 0.3572(13) 0.9531(3) 0.9470(8)
H19_4 H 0.4278 0.9423 0.8865
C20_4 C 0.1995(13) 0.9334(3) 0.9701(8)
H20_4 H 0.1667 0.9093 0.9250
C17_4 C 0.1928(9) 0.9972(2) 0.6028(6)
H18_4 H 0.1574 0.9742 0.6509
C7_4 C 0.8072(9) 0.0028(2) 0.3972(6)
H7_4 H 0.8426 0.0258 0.3491
loop_
_geom_bond_atom_site_label_1
_geom_bond_atom_site_label_2
_geom_bond_site_symmetry_1
_geom_bond_site_symmetry_2
C1 H1 1_555 1_555
C2 H2 1_555 1_555
C3 C2 1_555 1_555
H3 C3 1_555 1_555
C4 H4 1_555 1_555
H5 C4 1_555 1_555
C5 C4 1_555 1_555
C6 C5 1_555 1_555
H6 C6 1_555 1_555
C7 C6 1_555 1_555
H7 C7 1_555 1_555
C8 C7 1_555 1_555
C9 C8 1_555 1_555
H8 C9 1_555 1_555
C10 C5 1_555 1_555
H9 C10 1_555 1_555
N1 C1 1_555 1_555
N2 C1 1_555 1_555
O1 H10 1_555 1_555
H11 O1 1_555 1_555
Cd1 N1 1_555 1_555
N4 Cd1 1_555 1_555
O5 Cd1 1_555 1_555
H21 O5 1_555 1_555
H22 O5 1_555 1_555
O7 Cd1 1_555 1_555
O8 Cd1 1_555 1_555
Cd2 O3 1_555 1_555
C2 N1 1_555 1_555
C3 N2 1_555 1_555
C4 N2 1_555 1_555
C9 C10 1_555 1_555
O1 Cd1 1_555 1_555
O3 Cd1 1_555 1_555
O5 Cd2 1_555 1_555
C11 H12 1_555 1_555
C12 H13 1_555 1_555
C13 C12 1_555 1_555
H14 C13 1_555 1_555
C14 H15 1_555 1_555
H16 C14 1_555 1_555
N3 C11 1_555 1_555
N5 C11 1_555 1_555
Cd2 N3 1_555 1_555
C12 N3 1_555 1_555
C13 N5 1_555 1_555
C14 N5 1_555 1_555
H8_2 C9_2 1_555 1_555
H9_2 C10_2 1_555 1_555
C16 C15 1_555 1_555
H17 C16 1_555 1_555
C17 C16 1_555 1_555
H18 C17 1_555 1_555
C9_2 C10_2 1_555 1_555
C17 C18 1_555 1_555
C1_2 H1_2 1_555 1_555
C2_2 H2_2 1_555 1_555
C3_2 C2_2 1_555 1_555
H3_2 C3_2 1_555 1_555
C4_2 H4_2 1_555 1_555
H5_2 C4_2 1_555 1_555
N1_2 C1_2 1_555 1_555
N2_2 C1_2 1_555 1_555
Cd2 N1_2 1_555 1_555
C2_2 N1_2 1_555 1_555
C3_2 N2_2 1_555 1_555
C4_2 N2_2 1_555 1_555
C6_2 C5_2 1_555 1_555
H6_2 C6_2 1_555 1_555
O2 S1 1_555 1_555
O7 S1 1_555 1_555
O8 S1 1_555 1_555
S1 O6 1_555 1_555
C11_2 H12_2 1_555 1_555
C12_2 H13_2 1_555 1_555
C13_2 C12_2 1_555 1_555
H14_2 C13_2 1_555 1_555
C14_2 H15_2 1_555 1_555
H16_2 C14_2 1_555 1_555
C15_2 C14_2 1_555 1_555
C16_2 C15_2 1_555 1_555
H17_2 C16_2 1_555 1_555
C19 C18_2 1_555 1_555
H19 C19 1_555 1_555
C20 C15_2 1_555 1_555
H20 C20 1_555 1_555
N4 C11_2 1_555 1_555
N5_2 C11_2 1_555 1_555
C12_2 N4 1_555 1_555
C13_2 N5_2 1_555 1_555
C14_2 N5_2 1_555 1_555
C19 C20 1_555 1_555
O2_2 S1_2 1_555 1_555
O4 S1_2 1_555 1_555
S1_2 O6_2 1_555 1_555
C11_3 H12_3 1_555 1_555
C12_3 H13_3 1_555 1_555
C13_3 C12_3 1_555 1_555
H14_3 C13_3 1_555 1_555
C14_3 H15_3 1_555 1_555
H16_3 C14_3 1_555 1_555
C15_3 C14_3 1_555 1_555
C16_3 C15_3 1_555 1_555
H17_3 C16_3 1_555 1_555
C17_2 C16_3 1_555 1_555
H18_2 C17_2 1_555 1_555
C19_2 C18_3 1_555 1_555
H19_2 C19_2 1_555 1_555
C20_2 C15_3 1_555 1_555
H20_2 C20_2 1_555 1_555
N3_2 C11_3 1_555 1_555
N5_3 C11_3 1_555 1_555
Cd4 N3_2 1_555 1_555
C12_3 N3_2 1_555 1_555
C13_3 N5_3 1_555 1_555
C14_3 N5_3 1_555 1_555
C17_2 C18_3 1_555 1_555
C19_2 C20_2 1_555 1_555
C6_3 C5_3 1_555 1_555
H6_3 C6_3 1_555 1_555
C7_2 C6_3 1_555 1_555
H7_2 C7_2 1_555 1_555
C8_3 C7_2 1_555 1_555
O2_3 S1_3 1_555 1_555
O3_2 S1_3 1_555 1_555
O4_2 S1_3 1_555 1_555
S1_3 O6_3 1_555 1_555
H19_3 C19_3 1_555 1_555
H20_3 C20_3 1_555 1_555
H21_2 O5_2 1_555 1_555
H22_2 O5_2 1_555 1_555
Cd4 O3_2 1_555 1_555
O4_2 Cd4 1_555 1_555
C19_3 C20_3 1_555 1_555
O5_2 Cd4 1_555 1_555
C1_3 H1_3 1_555 1_555
C2_3 H2_3 1_555 1_555
C3_3 C2_3 1_555 1_555
H3_3 C3_3 1_555 1_555
C4_3 H4_3 1_555 1_555
H5_3 C4_3 1_555 1_555
N1_3 C1_3 1_555 1_555
N2_3 C1_3 1_555 1_555
O1_2 H10_2 1_555 1_555
H11_2 O1_2 1_555 1_555
Cd1_2 N1_3 1_555 1_555
N4_2 Cd1_2 1_555 1_555
O7_2 Cd1_2 1_555 1_555
Cd4 O1_2 1_555 1_555
C2_3 N1_3 1_555 1_555
C3_3 N2_3 1_555 1_555
C4_3 N2_3 1_555 1_555
O1_2 Cd1_2 1_555 1_555
O7_2 Cd4 1_555 1_555
C16_4 C15_4 1_555 1_555
H17_4 C16_4 1_555 1_555
C11_4 H12_4 1_555 1_555
C12_4 H13_4 1_555 1_555
C13_4 C12_4 1_555 1_555
H14_4 C13_4 1_555 1_555
C14_4 H15_4 1_555 1_555
H16_4 C14_4 1_555 1_555
N4_2 C11_4 1_555 1_555
N5_4 C11_4 1_555 1_555
C12_4 N4_2 1_555 1_555
C13_4 N5_4 1_555 1_555
C14_4 N5_4 1_555 1_555
C1_4 H1_4 1_555 1_555
C2_4 H2_4 1_555 1_555
C3_4 C2_4 1_555 1_555
H3_4 C3_4 1_555 1_555
C4_4 H4_4 1_555 1_555
H5_4 C4_4 1_555 1_555
C5_4 C4_4 1_555 1_555
C6_4 C5_4 1_555 1_555
H6_4 C6_4 1_555 1_555
C9_3 C8_4 1_555 1_555
H8_3 C9_3 1_555 1_555
C10_3 C5_4 1_555 1_555
H9_3 C10_3 1_555 1_555
N1_4 C1_4 1_555 1_555
N2_4 C1_4 1_555 1_555
Cd4 N1_4 1_555 1_555
C2_4 N1_4 1_555 1_555
C3_4 N2_4 1_555 1_555
C4_4 N2_4 1_555 1_555
C9_3 C10_3 1_555 1_555
O2_4 S1_4 1_555 1_555
O8_2 S1_4 1_555 1_555
S1_4 O6_4 1_555 1_555
H8_4 C9_4 1_555 1_555
H9_4 C10_4 1_555 1_555
H18_3 C17_3 1_555 1_555
C9_4 C10_4 1_555 1_555
H7_3 C7_3 1_555 1_555
H19_4 C19_4 1_555 1_555
H20_4 C20_4 1_555 1_555
C19_4 C20_4 1_555 1_555
H18_4 C17_4 1_555 1_555
H7_4 C7_4 1_555 1_555

#END
