
###############################################################################
#
# This file contains modified crystal structure data generated from the
# MOF subset of the Cambridge Structural Database (CSD) v543 
# hosted by the Cambridge Crystallographic Data Centre (CCDC).
#
# This work is licensed under the Creative Commons
# Attribution-NonCommercial-ShareAlike 4.0 International License.
# To view a copy of this license, visit
# http://creativecommons.org/licenses/by-nc-sa/4.0/
# or send a letter to
# Creative Commons, PO Box 1866, Mountain View, CA 94042, USA.
#
# CIF created using the CSD Python API on 29 September 2022
# The structure has been converted into the P1 space group
# The structure has a 3D framework
# The original CSD entry COKMOG is in the rhombohedral crystal system
# The framework has been calculated to contain at least 10.0% void space
# The void calculation uses a probe of radius 1.32A, grid spacing 0.4
# The framework is charged, counterions have been retained in the structure
#
###############################################################################

data_COKMOG
_chemical_formula_moiety         '(C72 H18 Cu5 O50 22-)n'
_symmetry_cell_setting           triclinic
_symmetry_space_group_name_H-M   'P 1'
_symmetry_Int_Tables_number      1
_space_group_name_Hall           'P 1'
loop_
_symmetry_equiv_pos_site_id
_symmetry_equiv_pos_as_xyz
1 x,y,z
_cell_length_a                   25.8582(7)
_cell_length_b                   25.8582
_cell_length_c                   6.26149(20)
_cell_angle_alpha                90
_cell_angle_beta                 90
_cell_angle_gamma                120
_cell_volume                     3625.81
loop_
_atom_site_label
_atom_site_type_symbol
_atom_site_fract_x
_atom_site_fract_y
_atom_site_fract_z
_atom_site_U_iso_or_equiv
_atom_site_thermal_displace_type
Cu1 Cu 0.38651(19) 0.34907(21) 0.1761(8) 0.0016 Uiso
O1 O 0.35441(32) 0.30306(29) 0.4335(10) 0.0064 Uiso
O2 O 0.29217(34) 0.22400(30) 0.6287(11) 0.0064 Uiso
O3 O 0.36050(32) 0.27702(28) 0.0078(10) 0.0060 Uiso
C1 C 0.32463(27) 0.24784(25) 0.4657(11) 0.0098 Uiso
C2 C 0.32769(28) 0.20621(27) 0.2990(11) 0.0098 Uiso
C3 C 0.34813(30) 0.22473(27) 0.0928(11) 0.0098 Uiso
O6 O 0.30617(32) 0.05631(28) 0.3255(10) 0.0060 Uiso
C6 C 0.33898(28) 0.12712(27) 0.0343(11) 0.0098 Uiso
C7 C 0.31854(30) 0.10860(27) 0.2405(11) 0.0098 Uiso
C8 C 0.31255(26) 0.14928(30) 0.3764(10) 0.0098 Uiso
H2 H 0.2995(5) 0.1378(5) 0.5317(15) 0.0110 Uiso
Cu4 Cu 0.29589(28) 0.28016(19) 0.8428(8) 0.0016 Uiso
Cu6 Cu 0.31760(21) 0.37077(28) 0.5094(8) 0.0016 Uiso
Cu8 Cu 0.37077(28) 0.05318(19) 0.4906(8) 0.0016 Uiso
O8 O 0.28198(43) 0.31226(32) 0.1002(10) 0.0064 Uiso
O12 O 0.38965(28) 0.41681(43) 0.3411(10) 0.0060 Uiso
C4 C 0.35412(26) 0.18405(30) 0.9569(10) 0.0098 Uiso
H1 H 0.3672(5) 0.1955(5) 0.8016(15) 0.0110 Uiso
O4 O 0.31226(32) 0.03027(29) 0.8998(10) 0.0064 Uiso
O5 O 0.37450(34) 0.10933(30) 0.7046(11) 0.0064 Uiso
C5 C 0.34204(27) 0.08549(25) 0.8676(11) 0.0098 Uiso
O9 O 0.44267(30) 0.40150(45) 0.9620(11) 0.0064 Uiso
O13 O 0.41681(43) 0.02717(32) 0.6589(10) 0.0060 Uiso
Cu5 Cu 0.28016(19) 0.98426(21) 0.1572(8) 0.0016 Uiso
O10 O 0.40150(45) 0.95884(34) 0.0380(11) 0.0064 Uiso
Cu2 Cu 0.34907(21) 0.96256(28) 0.8239(8) 0.0016 Uiso
O7 O 0.30306(29) 0.94865(43) 0.5665(10) 0.0064 Uiso
O11 O 0.27702(28) 0.91652(43) 0.9922(10) 0.0060 Uiso
Cu5_2 Cu 0.01574(21) 0.29589(28) 0.1572(8) 0.0016 Uiso
O10_2 O 0.04116(34) 0.44267(56) 0.0380(11) 0.0064 Uiso
Cu2_2 Cu 0.03744(28) 0.38651(35) 0.8239(8) 0.0016 Uiso
O7_2 O 0.05135(43) 0.35441(52) 0.5665(10) 0.0064 Uiso
O11_2 O 0.08348(43) 0.36050(51) 0.9922(10) 0.0060 Uiso
Cu1_2 Cu 0.65093(21) 0.03744(28) 0.1761(8) 0.0016 Uiso
O1_2 O 0.69694(29) 0.05135(43) 0.4335(10) 0.0064 Uiso
O2_2 O 0.77600(30) 0.06817(45) 0.6287(11) 0.0064 Uiso
O3_2 O 0.72298(28) 0.08348(43) 0.0078(10) 0.0060 Uiso
C1_2 C 0.75216(25) 0.07679(37) 0.4657(11) 0.0098 Uiso
C2_2 C 0.79379(27) 0.12148(39) 0.2990(11) 0.0098 Uiso
C3_2 C 0.77527(27) 0.12340(40) 0.0928(11) 0.0098 Uiso
O6_2 O 0.94369(28) 0.24985(43) 0.3255(10) 0.0060 Uiso
C6_2 C 0.87288(27) 0.21185(39) 0.0343(11) 0.0098 Uiso
C7_2 C 0.89140(27) 0.20993(40) 0.2405(11) 0.0098 Uiso
C8_2 C 0.85072(30) 0.16326(40) 0.3764(10) 0.0098 Uiso
H2_2 H 0.8622(5) 0.1616(7) 0.5317(15) 0.0110 Uiso
Cu4_2 Cu 0.71984(19) 0.01574(34) 0.8428(8) 0.0016 Uiso
Cu8_2 Cu 0.94682(19) 0.31760(34) 0.4906(8) 0.0016 Uiso
C4_2 C 0.81595(30) 0.17007(40) 0.9569(10) 0.0098 Uiso
H1_2 H 0.8045(5) 0.1717(7) 0.8016(15) 0.0110 Uiso
O4_2 O 0.96973(29) 0.28198(43) 0.8998(10) 0.0064 Uiso
O5_2 O 0.89067(30) 0.26516(45) 0.7046(11) 0.0064 Uiso
C5_2 C 0.91451(25) 0.25654(37) 0.8676(11) 0.0098 Uiso
O9_2 O 0.59850(45) 0.04116(54) 0.9620(11) 0.0064 Uiso
O13_2 O 0.97283(32) 0.38965(54) 0.6589(10) 0.0060 Uiso
Cu6_2 Cu 0.62923(28) 0.94682(35) 0.5094(8) 0.0016 Uiso
O8_2 O 0.68774(32) 0.96973(54) 0.1002(10) 0.0064 Uiso
O12_2 O 0.58319(43) 0.97283(51) 0.3411(10) 0.0060 Uiso
Cu6_3 Cu 0.05318(35) 0.68240(21) 0.5094(8) 0.0016 Uiso
O8_3 O 0.03027(54) 0.71802(43) 0.1002(10) 0.0064 Uiso
O12_3 O 0.02717(51) 0.61035(28) 0.3411(10) 0.0060 Uiso
Cu1_3 Cu 0.96256(28) 0.61349(19) 0.1761(8) 0.0016 Uiso
O1_3 O 0.94865(43) 0.64559(32) 0.4335(10) 0.0064 Uiso
O2_3 O 0.93183(45) 0.70783(34) 0.6287(11) 0.0064 Uiso
O3_3 O 0.91652(43) 0.63950(32) 0.0078(10) 0.0060 Uiso
C1_3 C 0.92321(37) 0.67537(27) 0.4657(11) 0.0098 Uiso
C2_3 C 0.87852(39) 0.67231(28) 0.2990(11) 0.0098 Uiso
C3_3 C 0.87660(40) 0.65187(30) 0.0928(11) 0.0098 Uiso
O6_3 O 0.75015(43) 0.69383(32) 0.3255(10) 0.0060 Uiso
C6_3 C 0.78815(39) 0.66102(28) 0.0343(11) 0.0098 Uiso
C7_3 C 0.79007(40) 0.68146(30) 0.2405(11) 0.0098 Uiso
C8_3 C 0.83674(40) 0.68745(26) 0.3764(10) 0.0098 Uiso
H2_3 H 0.8384(7) 0.7005(5) 0.5317(15) 0.0110 Uiso
Cu4_3 Cu 0.98426(34) 0.70411(28) 0.8428(8) 0.0016 Uiso
Cu5_3 Cu 0.70411(28) 0.71984(19) 0.1572(8) 0.0016 Uiso
Cu8_3 Cu 0.68240(34) 0.62923(28) 0.4906(8) 0.0016 Uiso
O10_3 O 0.55733(56) 0.59850(45) 0.0380(11) 0.0064 Uiso
C4_3 C 0.82993(40) 0.64588(26) 0.9569(10) 0.0098 Uiso
H1_3 H 0.8283(7) 0.6328(5) 0.8016(15) 0.0110 Uiso
O4_3 O 0.71802(43) 0.68774(32) 0.8998(10) 0.0064 Uiso
O5_3 O 0.73484(45) 0.62550(34) 0.7046(11) 0.0064 Uiso
C5_3 C 0.74346(37) 0.65796(27) 0.8676(11) 0.0098 Uiso
Cu2_3 Cu 0.61349(35) 0.65093(21) 0.8239(8) 0.0016 Uiso
O7_3 O 0.64559(52) 0.69694(29) 0.5665(10) 0.0064 Uiso
O9_3 O 0.95884(54) 0.55733(30) 0.9620(11) 0.0064 Uiso
O11_3 O 0.63950(51) 0.72298(28) 0.9922(10) 0.0060 Uiso
O13_3 O 0.61035(54) 0.58319(43) 0.6589(10) 0.0060 Uiso
O2_4 O 0.62550(34) 0.89067(30) 0.2954(11) 0.0064 Uiso
C1_4 C 0.65796(27) 0.91451(25) 0.1324(11) 0.0098 Uiso
C8_4 C 0.64588(26) 0.81595(30) 0.0431(10) 0.0098 Uiso
H2_4 H 0.6328(5) 0.8045(5) 0.1984(15) 0.0110 Uiso
O3_4 O 0.69383(32) 0.94369(28) 0.6745(10) 0.0060 Uiso
C2_4 C 0.66102(28) 0.87288(27) 0.9657(11) 0.0098 Uiso
C3_4 C 0.68146(30) 0.89140(27) 0.7595(11) 0.0098 Uiso
C4_4 C 0.68745(26) 0.85072(30) 0.6236(10) 0.0098 Uiso
H1_4 H 0.7005(5) 0.8622(5) 0.4683(15) 0.0110 Uiso
O5_4 O 0.70783(34) 0.77600(30) 0.3713(11) 0.0064 Uiso
C5_4 C 0.67537(27) 0.75216(25) 0.5343(11) 0.0098 Uiso
C6_4 C 0.67231(28) 0.79379(27) 0.7010(11) 0.0098 Uiso
C7_4 C 0.65187(30) 0.77527(27) 0.9072(11) 0.0098 Uiso
O7_4 O 0.63639(29) 0.61532(43) 0.2332(10) 0.0064 Uiso
O8_4 O 0.61532(43) 0.97892(32) 0.7668(10) 0.0064 Uiso
O7_5 O 0.38468(43) 0.02108(52) 0.2332(10) 0.0064 Uiso
O2_5 O 0.10933(30) 0.73484(45) 0.2954(11) 0.0064 Uiso
C1_5 C 0.08549(25) 0.74346(37) 0.1324(11) 0.0098 Uiso
C8_5 C 0.18405(30) 0.82993(40) 0.0431(10) 0.0098 Uiso
H2_5 H 0.1955(5) 0.8283(7) 0.1984(15) 0.0110 Uiso
O3_5 O 0.05631(28) 0.75015(43) 0.6745(10) 0.0060 Uiso
C2_5 C 0.12712(27) 0.78815(39) 0.9657(11) 0.0098 Uiso
C3_5 C 0.10860(27) 0.79007(40) 0.7595(11) 0.0098 Uiso
C4_5 C 0.14928(30) 0.83674(40) 0.6236(10) 0.0098 Uiso
H1_5 H 0.1378(5) 0.8384(7) 0.4683(15) 0.0110 Uiso
O5_5 O 0.22400(30) 0.93183(45) 0.3713(11) 0.0064 Uiso
C5_5 C 0.24784(25) 0.92321(37) 0.5343(11) 0.0098 Uiso
C6_5 C 0.20621(27) 0.87852(39) 0.7010(11) 0.0098 Uiso
C7_5 C 0.22473(27) 0.87660(40) 0.9072(11) 0.0098 Uiso
O8_5 O 0.02108(32) 0.63639(54) 0.7668(10) 0.0064 Uiso
O2_6 O 0.26516(45) 0.37450(34) 0.2954(11) 0.0064 Uiso
C1_6 C 0.25654(37) 0.34204(27) 0.1324(11) 0.0098 Uiso
C8_6 C 0.17007(40) 0.35412(26) 0.0431(10) 0.0098 Uiso
H2_6 H 0.1717(7) 0.3672(5) 0.1984(15) 0.0110 Uiso
O3_6 O 0.24985(43) 0.30617(32) 0.6745(10) 0.0060 Uiso
C2_6 C 0.21185(39) 0.33898(28) 0.9657(11) 0.0098 Uiso
C3_6 C 0.20993(40) 0.31854(30) 0.7595(11) 0.0098 Uiso
C4_6 C 0.16326(40) 0.31255(26) 0.6236(10) 0.0098 Uiso
H1_6 H 0.1616(7) 0.2995(5) 0.4683(15) 0.0110 Uiso
O5_6 O 0.06817(45) 0.29217(34) 0.3713(11) 0.0064 Uiso
C5_6 C 0.07679(37) 0.32463(27) 0.5343(11) 0.0098 Uiso
C6_6 C 0.12148(39) 0.32769(28) 0.7010(11) 0.0098 Uiso
C7_6 C 0.12340(40) 0.34813(30) 0.9072(11) 0.0098 Uiso
O8_6 O 0.36361(54) 0.38468(43) 0.7668(10) 0.0064 Uiso
O7_6 O 0.97892(52) 0.36361(29) 0.2332(10) 0.0064 Uiso
C3_7 C 0.01480(30) 0.55806(27) 0.4261(11) 0.0098 Uiso
C4_7 C 0.02079(26) 0.51738(30) 0.2902(10) 0.0098 Uiso
H1_7 H 0.0339(5) 0.5288(5) 0.1349(15) 0.0110 Uiso
C5_7 C 0.00870(27) 0.41883(25) 0.2010(11) 0.0098 Uiso
C6_7 C 0.00564(28) 0.46046(27) 0.3677(11) 0.0098 Uiso
C1_7 C 0.99130(27) 0.58117(25) 0.7990(11) 0.0098 Uiso
C2_7 C 0.99436(28) 0.53954(27) 0.6323(11) 0.0098 Uiso
C7_7 C 0.98520(30) 0.44194(27) 0.5739(11) 0.0098 Uiso
C8_7 C 0.97921(26) 0.48262(30) 0.7098(10) 0.0098 Uiso
H2_7 H 0.9661(5) 0.4712(5) 0.8651(15) 0.0110 Uiso
C1_8 C 0.41883(25) 0.41012(37) 0.7990(11) 0.0098 Uiso
C2_8 C 0.46046(27) 0.45481(39) 0.6323(11) 0.0098 Uiso
C3_8 C 0.44194(27) 0.45673(40) 0.4261(11) 0.0098 Uiso
C4_8 C 0.48262(30) 0.50340(40) 0.2902(10) 0.0098 Uiso
H1_8 H 0.4712(5) 0.5050(7) 0.1349(15) 0.0110 Uiso
C5_8 C 0.58117(25) 0.58988(37) 0.2010(11) 0.0098 Uiso
C6_8 C 0.53954(27) 0.54519(39) 0.3677(11) 0.0098 Uiso
C7_8 C 0.55806(27) 0.54327(40) 0.5739(11) 0.0098 Uiso
C8_8 C 0.51738(30) 0.49660(40) 0.7098(10) 0.0098 Uiso
H2_8 H 0.5288(5) 0.4950(7) 0.8651(15) 0.0110 Uiso
C1_9 C 0.58988(37) 0.00870(27) 0.7990(11) 0.0098 Uiso
C2_9 C 0.54519(39) 0.00564(28) 0.6323(11) 0.0098 Uiso
C7_9 C 0.45673(40) 0.01480(30) 0.5739(11) 0.0098 Uiso
C8_9 C 0.50340(40) 0.02079(26) 0.7098(10) 0.0098 Uiso
H2_9 H 0.5050(7) 0.0339(5) 0.8651(15) 0.0110 Uiso
C3_9 C 0.54327(40) 0.98520(30) 0.4261(11) 0.0098 Uiso
C4_9 C 0.49660(40) 0.97921(26) 0.2902(10) 0.0098 Uiso
H1_9 H 0.4950(7) 0.9661(5) 0.1349(15) 0.0110 Uiso
C5_9 C 0.41012(37) 0.99130(27) 0.2010(11) 0.0098 Uiso
C6_9 C 0.45481(39) 0.99436(28) 0.3677(11) 0.0098 Uiso
loop_
_geom_bond_atom_site_label_1
_geom_bond_atom_site_label_2
_geom_bond_site_symmetry_1
_geom_bond_site_symmetry_2
Cu1 O1 1_555 1_555
O1 C1 1_555 1_555
O2 C1 1_555 1_555
O3 Cu1 1_555 1_555
C1 C2 1_555 1_555
C2 C3 1_555 1_555
C3 O3 1_555 1_555
O6 C7 1_555 1_555
C7 C6 1_555 1_555
C8 C2 1_555 1_555
H2 C8 1_555 1_555
Cu4 O2 1_555 1_555
Cu6 O1 1_555 1_555
Cu8 O6 1_555 1_555
O8 Cu1 1_555 1_555
O12 Cu1 1_555 1_555
C7 C8 1_555 1_555
Cu6 O12 1_555 1_555
H1 C4 1_555 1_555
O4 C5 1_555 1_555
O5 C5 1_555 1_555
Cu8 O5 1_555 1_555
Cu8 O13 1_555 1_555
O7 Cu2 1_555 1_555
O11 Cu2 1_555 1_555
O7_2 Cu2_2 1_555 1_555
O11_2 Cu2_2 1_555 1_555
Cu1_2 O1_2 1_555 1_555
O1_2 C1_2 1_555 1_555
O2_2 C1_2 1_555 1_555
O3_2 Cu1_2 1_555 1_555
C1_2 C2_2 1_555 1_555
C2_2 C3_2 1_555 1_555
C3_2 O3_2 1_555 1_555
O6_2 C7_2 1_555 1_555
C7_2 C6_2 1_555 1_555
C8_2 C2_2 1_555 1_555
H2_2 C8_2 1_555 1_555
Cu4_2 O2_2 1_555 1_555
Cu8_2 O6_2 1_555 1_555
C7_2 C8_2 1_555 1_555
H1_2 C4_2 1_555 1_555
O4_2 C5_2 1_555 1_555
O5_2 C5_2 1_555 1_555
Cu8_2 O5_2 1_555 1_555
Cu8_2 O13_2 1_555 1_555
Cu6_2 O12_2 1_555 1_555
Cu6_3 O12_3 1_555 1_555
Cu1_3 O1_3 1_555 1_555
O1_3 C1_3 1_555 1_555
O2_3 C1_3 1_555 1_555
O3_3 Cu1_3 1_555 1_555
C1_3 C2_3 1_555 1_555
C2_3 C3_3 1_555 1_555
C3_3 O3_3 1_555 1_555
O6_3 C7_3 1_555 1_555
C7_3 C6_3 1_555 1_555
C8_3 C2_3 1_555 1_555
H2_3 C8_3 1_555 1_555
Cu4_3 O2_3 1_555 1_555
Cu8_3 O6_3 1_555 1_555
O6_3 Cu5_3 1_555 1_555
C7_3 C8_3 1_555 1_555
H1_3 C4_3 1_555 1_555
O4_3 C5_3 1_555 1_555
O5_3 C5_3 1_555 1_555
Cu2_3 O4_3 1_555 1_555
Cu8_3 O5_3 1_555 1_555
O7_3 Cu2_3 1_555 1_555
O11_3 Cu2_3 1_555 1_555
O13_3 Cu2_3 1_555 1_555
Cu8_3 O7_3 1_555 1_555
Cu8_3 O13_3 1_555 1_555
O8_2 C1_4 1_555 1_555
O2_4 C1_4 1_555 1_555
H2_4 C8_4 1_555 1_555
Cu6_2 O2_4 1_555 1_555
C2_4 C3_4 1_555 1_555
C3_4 O3_4 1_555 1_555
C4_4 C3_4 1_555 1_555
H1_4 C4_4 1_555 1_555
O7_3 C5_4 1_555 1_555
O5_4 C5_4 1_555 1_555
O11_3 C7_4 1_555 1_555
C5_4 C6_4 1_555 1_555
C6_4 C4_4 1_555 1_555
C7_4 C6_4 1_555 1_555
Cu6_2 O3_4 1_555 1_555
Cu5_3 O5_4 1_555 1_555
O7_4 Cu8_3 1_555 1_555
Cu6_2 O8_4 1_555 1_555
Cu5_3 O7_4 1_555 1_555
O7_5 Cu8 1_555 1_555
O8_3 C1_5 1_555 1_555
O2_5 C1_5 1_555 1_555
H2_5 C8_5 1_555 1_555
Cu6_3 O2_5 1_555 1_555
C2_5 C3_5 1_555 1_555
C3_5 O3_5 1_555 1_555
C4_5 C3_5 1_555 1_555
H1_5 C4_5 1_555 1_555
O7 C5_5 1_555 1_555
O5_5 C5_5 1_555 1_555
O11 C7_5 1_555 1_555
C5_5 C6_5 1_555 1_555
C6_5 C4_5 1_555 1_555
C7_5 C6_5 1_555 1_555
Cu6_3 O3_5 1_555 1_555
Cu5 O5_5 1_555 1_555
Cu6_3 O8_5 1_555 1_555
O8 C1_6 1_555 1_555
O2_6 C1_6 1_555 1_555
H2_6 C8_6 1_555 1_555
Cu6 O2_6 1_555 1_555
O3_6 Cu4 1_555 1_555
C2_6 C3_6 1_555 1_555
C3_6 O3_6 1_555 1_555
C4_6 C3_6 1_555 1_555
H1_6 C4_6 1_555 1_555
O7_2 C5_6 1_555 1_555
O5_6 C5_6 1_555 1_555
O11_2 C7_6 1_555 1_555
C5_6 C6_6 1_555 1_555
C6_6 C4_6 1_555 1_555
C7_6 C6_6 1_555 1_555
Cu6 O3_6 1_555 1_555
Cu5_2 O5_6 1_555 1_555
O8_6 Cu4 1_555 1_555
Cu6 O8_6 1_555 1_555
O7_6 Cu8_2 1_555 1_555
C3_7 O12_3 1_555 1_555
C4_7 C3_7 1_555 1_555
H1_7 C4_7 1_555 1_555
O10_2 C5_7 1_555 1_555
C5_7 C6_7 1_555 1_555
C6_7 C4_7 1_555 1_555
O9_3 C1_7 1_555 1_555
C1_7 C2_7 1_555 1_555
O13_2 C7_7 1_555 1_555
C8_7 C2_7 1_555 1_555
H2_7 C8_7 1_555 1_555
C7_7 C8_7 1_555 1_555
O8_6 C1_8 1_555 1_555
O9 C1_8 1_555 1_555
C1_8 C2_8 1_555 1_555
C2_8 C3_8 1_555 1_555
C3_8 O12 1_555 1_555
C4_8 C3_8 1_555 1_555
H1_8 C4_8 1_555 1_555
O7_4 C5_8 1_555 1_555
O10_3 C5_8 1_555 1_555
O13_3 C7_8 1_555 1_555
C5_8 C6_8 1_555 1_555
C6_8 C4_8 1_555 1_555
C7_8 C6_8 1_555 1_555
C8_8 C2_8 1_555 1_555
H2_8 C8_8 1_555 1_555
C7_8 C8_8 1_555 1_555
O9_2 C1_9 1_555 1_555
C1_9 C2_9 1_555 1_555
O13 C7_9 1_555 1_555
C8_9 C2_9 1_555 1_555
H2_9 C8_9 1_555 1_555
C7_9 C8_9 1_555 1_555
C3_9 O12_2 1_555 1_555
C4_9 C3_9 1_555 1_555
H1_9 C4_9 1_555 1_555
O10 C5_9 1_555 1_555
C5_9 C6_9 1_555 1_555
C6_9 C4_9 1_555 1_555

#END
