
###############################################################################
#
# This file contains modified crystal structure data generated from the
# MOF subset of the Cambridge Structural Database (CSD) v543 
# hosted by the Cambridge Crystallographic Data Centre (CCDC).
#
# This work is licensed under the Creative Commons
# Attribution-NonCommercial-ShareAlike 4.0 International License.
# To view a copy of this license, visit
# http://creativecommons.org/licenses/by-nc-sa/4.0/
# or send a letter to
# Creative Commons, PO Box 1866, Mountain View, CA 94042, USA.
#
# CIF created using the CSD Python API on 29 September 2022
# The structure has been converted into the P1 space group
# The structure has a 3D framework
# The original CSD entry COKMEW is in the rhombohedral crystal system
# The framework has been calculated to contain at least 10.0% void space
# The void calculation uses a probe of radius 1.32A, grid spacing 0.4
# The framework is charged, counterions have been retained in the structure
#
###############################################################################

data_COKMEW
_chemical_formula_moiety         '(C72 H18 Fe8 O54 20-)n'
_symmetry_cell_setting           triclinic
_symmetry_space_group_name_H-M   'P 1'
_symmetry_Int_Tables_number      1
_space_group_name_Hall           'P 1'
loop_
_symmetry_equiv_pos_site_id
_symmetry_equiv_pos_as_xyz
1 x,y,z
_cell_length_a                   26.0349(5)
_cell_length_b                   26.0349
_cell_length_c                   6.85076(18)
_cell_angle_alpha                90
_cell_angle_beta                 90
_cell_angle_gamma                120
_cell_volume                     4021.44
loop_
_atom_site_label
_atom_site_type_symbol
_atom_site_fract_x
_atom_site_fract_y
_atom_site_fract_z
Fe1 Fe 0.38439(17) 0.35309(18) 0.1400(5)
O1 O 0.32563(27) 0.29358(29) 0.3623(10)
O2 O 0.30203(27) 0.22925(29) 0.6031(10)
O3 O 0.35372(31) 0.27267(26) 0.0117(10)
C1 C 0.31741(26) 0.24599(24) 0.4200(9)
C2 C 0.32779(27) 0.20396(25) 0.2893(9)
C3 C 0.34479(23) 0.22365(26) 0.0916(8)
O6 O 0.31295(31) 0.06066(26) 0.3216(10)
C6 C 0.33888(27) 0.12937(25) 0.0440(9)
C7 C 0.32188(23) 0.10968(26) 0.2417(8)
C8 C 0.31654(27) 0.15094(28) 0.3572(8)
H2 H 0.3058(5) 0.1399(4) 0.5059(19)
Fe3 Fe 0.31358(18) 0.36463(25) 0.4733(5)
Fe5 Fe 0.30203(25) 0.28228(17) 0.8067(5)
Fe8 Fe 0.36463(25) 0.05106(17) 0.5267(5)
O7 O 0.30128(40) 0.34104(27) 0.0290(10)
O11 O 0.39400(26) 0.41438(40) 0.3450(10)
C4 C 0.35013(27) 0.18239(28) 0.9761(8)
H1 H 0.3609(5) 0.1934(4) 0.8274(19)
O4 O 0.34104(27) 0.03975(29) 0.9710(10)
O5 O 0.36464(27) 0.10408(29) 0.7302(10)
C5 C 0.34926(26) 0.08734(24) 0.9133(9)
O9 O 0.43742(29) 0.40611(40) 0.9364(10)
O13 O 0.41438(40) 0.02039(31) 0.6550(10)
Fe6 Fe 0.28228(17) 0.98024(18) 0.1933(5)
O10 O 0.40611(40) 0.96870(27) 0.0636(10)
Fe2 Fe 0.35309(18) 0.96870(25) 0.8600(5)
O8 O 0.29358(29) 0.96795(40) 0.6377(10)
O12 O 0.27267(26) 0.91895(40) 0.9883(10)
Fe6_2 Fe 0.01976(18) 0.30203(25) 0.1933(5)
O10_2 O 0.03130(27) 0.43742(48) 0.0636(10)
Fe2_2 Fe 0.03130(25) 0.38439(31) 0.8600(5)
O8_2 O 0.03205(40) 0.32563(49) 0.6377(10)
O12_2 O 0.08105(40) 0.35372(48) 0.9883(10)
Fe1_2 Fe 0.64691(18) 0.03130(25) 0.1400(5)
O1_2 O 0.70642(29) 0.03205(40) 0.3623(10)
O2_2 O 0.77075(29) 0.07278(40) 0.6031(10)
O3_2 O 0.72733(26) 0.08105(40) 0.0117(10)
C1_2 C 0.75401(24) 0.07142(35) 0.4200(9)
C2_2 C 0.79604(25) 0.12383(37) 0.2893(9)
C3_2 C 0.77635(26) 0.12114(35) 0.0916(8)
O6_2 O 0.93934(26) 0.25228(40) 0.3216(10)
C6_2 C 0.87063(25) 0.20950(37) 0.0440(9)
C7_2 C 0.89032(26) 0.21219(35) 0.2417(8)
C8_2 C 0.84906(28) 0.16559(39) 0.3572(8)
H2_2 H 0.8601(4) 0.1658(6) 0.5059(19)
Fe5_2 Fe 0.71772(17) 0.01976(30) 0.8067(5)
Fe8_2 Fe 0.94894(17) 0.31358(30) 0.5267(5)
C4_2 C 0.81761(28) 0.16774(39) 0.9761(8)
H1_2 H 0.8066(4) 0.1675(6) 0.8274(19)
O4_2 O 0.96025(29) 0.30128(40) 0.9710(10)
O5_2 O 0.89592(29) 0.26055(40) 0.7302(10)
C5_2 C 0.91266(24) 0.26191(35) 0.9133(9)
O9_2 O 0.59389(40) 0.03130(49) 0.9364(10)
O13_2 O 0.97961(31) 0.39400(51) 0.6550(10)
Fe3_2 Fe 0.63537(25) 0.94894(31) 0.4733(5)
O7_2 O 0.65896(27) 0.96025(48) 0.0290(10)
O11_2 O 0.58562(40) 0.97961(48) 0.3450(10)
Fe3_3 Fe 0.05106(31) 0.68642(18) 0.4733(5)
O7_3 O 0.03975(48) 0.69872(40) 0.0290(10)
O11_3 O 0.02039(48) 0.60600(26) 0.3450(10)
Fe1_3 Fe 0.96870(25) 0.61561(17) 0.1400(5)
O1_3 O 0.96795(40) 0.67437(27) 0.3623(10)
O2_3 O 0.92722(40) 0.69797(27) 0.6031(10)
O3_3 O 0.91895(40) 0.64628(31) 0.0117(10)
C1_3 C 0.92858(35) 0.68259(26) 0.4200(9)
C2_3 C 0.87617(37) 0.67221(27) 0.2893(9)
C3_3 C 0.87886(35) 0.65521(23) 0.0916(8)
O6_3 O 0.74772(40) 0.68705(31) 0.3216(10)
C6_3 C 0.79050(37) 0.66112(27) 0.0440(9)
C7_3 C 0.78781(35) 0.67812(23) 0.2417(8)
C8_3 C 0.83441(39) 0.68346(27) 0.3572(8)
H2_3 H 0.8342(6) 0.6942(5) 0.5059(19)
Fe5_3 Fe 0.98024(30) 0.69797(25) 0.8067(5)
Fe6_3 Fe 0.69797(25) 0.71772(17) 0.1933(5)
Fe8_3 Fe 0.68642(30) 0.63537(25) 0.5267(5)
O10_3 O 0.56258(48) 0.59389(40) 0.0636(10)
C4_3 C 0.83226(39) 0.64987(27) 0.9761(8)
H1_3 H 0.8325(6) 0.6391(5) 0.8274(19)
O4_3 O 0.69872(40) 0.65896(27) 0.9710(10)
O5_3 O 0.73945(40) 0.63536(27) 0.7302(10)
C5_3 C 0.73809(35) 0.65074(26) 0.9133(9)
Fe2_3 Fe 0.61561(31) 0.64691(18) 0.8600(5)
O8_3 O 0.67437(49) 0.70642(29) 0.6377(10)
O9_3 O 0.96870(49) 0.56258(29) 0.9364(10)
O12_3 O 0.64628(48) 0.72733(26) 0.9883(10)
O13_3 O 0.60600(51) 0.58562(40) 0.6550(10)
C3_4 C 0.01146(23) 0.55698(26) 0.4249(8)
C4_4 C 0.01680(27) 0.51572(28) 0.3094(8)
H1_4 H 0.0276(5) 0.5267(4) 0.1607(19)
O4_4 O 0.00770(27) 0.37309(29) 0.3044(10)
C5_4 C 0.01592(26) 0.42068(24) 0.2467(9)
C6_4 C 0.00554(27) 0.46271(25) 0.3774(9)
O9_4 O 0.10408(29) 0.73945(40) 0.2698(10)
O10_4 O 0.07278(40) 0.30203(27) 0.3969(10)
O11_4 O 0.06066(26) 0.74772(40) 0.6784(10)
O1_4 O 0.99230(27) 0.62691(29) 0.6956(10)
C1_4 C 0.98408(26) 0.57932(24) 0.7533(9)
C2_4 C 0.99446(27) 0.53729(25) 0.6226(9)
C7_4 C 0.98854(23) 0.44302(26) 0.5751(8)
C8_4 C 0.98320(27) 0.48428(28) 0.6906(8)
H2_4 H 0.9724(5) 0.4733(4) 0.8393(19)
O1_5 O 0.37309(29) 0.36538(40) 0.6956(10)
C1_5 C 0.42068(24) 0.40475(35) 0.7533(9)
C2_5 C 0.46271(25) 0.45716(37) 0.6226(9)
C3_5 C 0.44302(26) 0.45447(35) 0.4249(8)
C4_5 C 0.48428(28) 0.50107(39) 0.3094(8)
H1_5 H 0.4733(4) 0.5008(6) 0.1607(19)
O4_5 O 0.62691(29) 0.63462(40) 0.3044(10)
C5_5 C 0.57932(24) 0.59525(35) 0.2467(9)
C6_5 C 0.53729(25) 0.54284(37) 0.3774(9)
C7_5 C 0.55698(26) 0.54553(35) 0.5751(8)
C8_5 C 0.51572(28) 0.49893(39) 0.6906(8)
H2_5 H 0.5267(4) 0.4992(6) 0.8393(19)
O9_5 O 0.26055(40) 0.36464(49) 0.2698(10)
O10_5 O 0.69797(27) 0.77075(48) 0.3969(10)
O11_5 O 0.25228(40) 0.31295(48) 0.6784(10)
O1_6 O 0.63462(40) 0.00770(27) 0.6956(10)
C1_6 C 0.59525(35) 0.01592(26) 0.7533(9)
C2_6 C 0.54284(37) 0.00554(27) 0.6226(9)
C7_6 C 0.45447(35) 0.01146(23) 0.5751(8)
C8_6 C 0.50107(39) 0.01680(27) 0.6906(8)
H2_6 H 0.5008(6) 0.0276(5) 0.8393(19)
C3_6 C 0.54553(35) 0.98854(23) 0.4249(8)
C4_6 C 0.49893(39) 0.98320(27) 0.3094(8)
H1_6 H 0.4992(6) 0.9724(5) 0.1607(19)
O4_6 O 0.36538(40) 0.99230(27) 0.3044(10)
C5_6 C 0.40475(35) 0.98408(26) 0.2467(9)
C6_6 C 0.45716(37) 0.99446(27) 0.3774(9)
O9_6 O 0.63536(49) 0.89592(29) 0.2698(10)
O10_6 O 0.22925(48) 0.92722(40) 0.3969(10)
O11_6 O 0.68705(48) 0.93934(26) 0.6784(10)
C1_7 C 0.65074(26) 0.91266(24) 0.0867(9)
C8_7 C 0.64987(27) 0.81761(28) 0.0239(8)
H2_7 H 0.6391(5) 0.8066(4) 0.1726(19)
C2_7 C 0.66112(27) 0.87063(25) 0.9560(9)
C3_7 C 0.67812(23) 0.89032(26) 0.7583(8)
C4_7 C 0.68346(27) 0.84906(28) 0.6428(8)
H1_7 H 0.6942(5) 0.8601(4) 0.4941(19)
C5_7 C 0.68259(26) 0.75401(24) 0.5800(9)
C6_7 C 0.67221(27) 0.79604(25) 0.7107(9)
C7_7 C 0.65521(23) 0.77635(26) 0.9084(8)
C1_8 C 0.08734(24) 0.73809(35) 0.0867(9)
C8_8 C 0.18239(28) 0.83226(39) 0.0239(8)
H2_8 H 0.1934(4) 0.8325(6) 0.1726(19)
C2_8 C 0.12937(25) 0.79050(37) 0.9560(9)
C3_8 C 0.10968(26) 0.78781(35) 0.7583(8)
C4_8 C 0.15094(28) 0.83441(39) 0.6428(8)
H1_8 H 0.1399(4) 0.8342(6) 0.4941(19)
C5_8 C 0.24599(24) 0.92858(35) 0.5800(9)
C6_8 C 0.20396(25) 0.87617(37) 0.7107(9)
C7_8 C 0.22365(26) 0.87886(35) 0.9084(8)
C1_9 C 0.26191(35) 0.34926(26) 0.0867(9)
C8_9 C 0.16774(39) 0.35013(27) 0.0239(8)
H2_9 H 0.1675(6) 0.3609(5) 0.1726(19)
C2_9 C 0.20950(37) 0.33888(27) 0.9560(9)
C3_9 C 0.21219(35) 0.32188(23) 0.7583(8)
C4_9 C 0.16559(39) 0.31654(27) 0.6428(8)
H1_9 H 0.1658(6) 0.3058(5) 0.4941(19)
C5_9 C 0.07142(35) 0.31741(26) 0.5800(9)
C6_9 C 0.12383(37) 0.32779(27) 0.7107(9)
C7_9 C 0.12114(35) 0.34479(23) 0.9084(8)
loop_
_geom_bond_atom_site_label_1
_geom_bond_atom_site_label_2
_geom_bond_site_symmetry_1
_geom_bond_site_symmetry_2
Fe1 O1 1_555 1_555
O1 C1 1_555 1_555
O2 C1 1_555 1_555
O3 Fe1 1_555 1_555
C1 C2 1_555 1_555
C2 C3 1_555 1_555
C3 O3 1_555 1_555
O6 C7 1_555 1_555
C7 C6 1_555 1_555
C8 C2 1_555 1_555
H2 C8 1_555 1_555
Fe3 O1 1_555 1_555
Fe5 O2 1_555 1_555
Fe8 O6 1_555 1_555
O7 Fe1 1_555 1_555
O11 Fe1 1_555 1_555
C7 C8 1_555 1_555
Fe3 O11 1_555 1_555
H1 C4 1_555 1_555
O4 C5 1_555 1_555
O5 C5 1_555 1_555
Fe8 O5 1_555 1_555
Fe8 O13 1_555 1_555
O8 Fe2 1_555 1_555
O12 Fe2 1_555 1_555
O8_2 Fe2_2 1_555 1_555
O12_2 Fe2_2 1_555 1_555
Fe1_2 O1_2 1_555 1_555
O1_2 C1_2 1_555 1_555
O2_2 C1_2 1_555 1_555
O3_2 Fe1_2 1_555 1_555
C1_2 C2_2 1_555 1_555
C2_2 C3_2 1_555 1_555
C3_2 O3_2 1_555 1_555
O6_2 C7_2 1_555 1_555
C7_2 C6_2 1_555 1_555
C8_2 C2_2 1_555 1_555
H2_2 C8_2 1_555 1_555
Fe5_2 O2_2 1_555 1_555
Fe8_2 O6_2 1_555 1_555
C7_2 C8_2 1_555 1_555
H1_2 C4_2 1_555 1_555
O4_2 C5_2 1_555 1_555
O5_2 C5_2 1_555 1_555
Fe8_2 O5_2 1_555 1_555
Fe8_2 O13_2 1_555 1_555
Fe3_2 O11_2 1_555 1_555
Fe3_3 O11_3 1_555 1_555
Fe1_3 O1_3 1_555 1_555
O1_3 C1_3 1_555 1_555
O2_3 C1_3 1_555 1_555
O3_3 Fe1_3 1_555 1_555
C1_3 C2_3 1_555 1_555
C2_3 C3_3 1_555 1_555
C3_3 O3_3 1_555 1_555
O6_3 C7_3 1_555 1_555
C7_3 C6_3 1_555 1_555
C8_3 C2_3 1_555 1_555
H2_3 C8_3 1_555 1_555
Fe5_3 O2_3 1_555 1_555
Fe8_3 O6_3 1_555 1_555
O6_3 Fe6_3 1_555 1_555
C7_3 C8_3 1_555 1_555
H1_3 C4_3 1_555 1_555
O4_3 C5_3 1_555 1_555
O5_3 C5_3 1_555 1_555
Fe2_3 O4_3 1_555 1_555
Fe8_3 O5_3 1_555 1_555
O8_3 Fe2_3 1_555 1_555
O12_3 Fe2_3 1_555 1_555
O13_3 Fe2_3 1_555 1_555
Fe8_3 O8_3 1_555 1_555
Fe8_3 O13_3 1_555 1_555
C3_4 O11_3 1_555 1_555
C4_4 C3_4 1_555 1_555
H1_4 C4_4 1_555 1_555
O4_4 C5_4 1_555 1_555
O10_2 C5_4 1_555 1_555
C5_4 C6_4 1_555 1_555
C6_4 C4_4 1_555 1_555
Fe6_2 O4_4 1_555 1_555
O9_4 Fe3_3 1_555 1_555
O10_4 Fe6_2 1_555 1_555
O11_4 Fe3_3 1_555 1_555
O1_4 C1_4 1_555 1_555
O9_3 C1_4 1_555 1_555
C1_4 C2_4 1_555 1_555
O13_2 C7_4 1_555 1_555
C8_4 C2_4 1_555 1_555
H2_4 C8_4 1_555 1_555
Fe5_3 O1_4 1_555 1_555
C7_4 C8_4 1_555 1_555
Fe3 O1_5 1_555 1_555
O1_5 C1_5 1_555 1_555
O9 C1_5 1_555 1_555
C1_5 C2_5 1_555 1_555
C2_5 C3_5 1_555 1_555
C3_5 O11 1_555 1_555
C4_5 C3_5 1_555 1_555
H1_5 C4_5 1_555 1_555
O4_5 C5_5 1_555 1_555
O10_3 C5_5 1_555 1_555
O13_3 C7_5 1_555 1_555
C5_5 C6_5 1_555 1_555
C6_5 C4_5 1_555 1_555
C7_5 C6_5 1_555 1_555
C8_5 C2_5 1_555 1_555
H2_5 C8_5 1_555 1_555
Fe6_3 O4_5 1_555 1_555
Fe5 O1_5 1_555 1_555
Fe8_3 O4_5 1_555 1_555
O9_5 Fe3 1_555 1_555
O10_5 Fe6_3 1_555 1_555
O11_5 Fe3 1_555 1_555
C7_5 C8_5 1_555 1_555
Fe5 O11_5 1_555 1_555
O1_6 C1_6 1_555 1_555
O9_2 C1_6 1_555 1_555
C1_6 C2_6 1_555 1_555
O13 C7_6 1_555 1_555
C8_6 C2_6 1_555 1_555
H2_6 C8_6 1_555 1_555
Fe5_2 O1_6 1_555 1_555
C7_6 C8_6 1_555 1_555
C3_6 O11_2 1_555 1_555
C4_6 C3_6 1_555 1_555
H1_6 C4_6 1_555 1_555
O4_6 C5_6 1_555 1_555
O10 C5_6 1_555 1_555
C5_6 C6_6 1_555 1_555
C6_6 C4_6 1_555 1_555
Fe6 O4_6 1_555 1_555
O9_6 Fe3_2 1_555 1_555
O10_6 Fe6 1_555 1_555
O11_6 Fe3_2 1_555 1_555
O7_2 C1_7 1_555 1_555
O9_6 C1_7 1_555 1_555
H2_7 C8_7 1_555 1_555
C2_7 C3_7 1_555 1_555
C3_7 O11_6 1_555 1_555
C4_7 C3_7 1_555 1_555
H1_7 C4_7 1_555 1_555
O8_3 C5_7 1_555 1_555
O10_5 C5_7 1_555 1_555
O12_3 C7_7 1_555 1_555
C5_7 C6_7 1_555 1_555
C6_7 C4_7 1_555 1_555
C7_7 C6_7 1_555 1_555
O7_3 C1_8 1_555 1_555
O9_4 C1_8 1_555 1_555
H2_8 C8_8 1_555 1_555
C2_8 C3_8 1_555 1_555
C3_8 O11_4 1_555 1_555
C4_8 C3_8 1_555 1_555
H1_8 C4_8 1_555 1_555
O8 C5_8 1_555 1_555
O10_6 C5_8 1_555 1_555
O12 C7_8 1_555 1_555
C5_8 C6_8 1_555 1_555
C6_8 C4_8 1_555 1_555
C7_8 C6_8 1_555 1_555
O7 C1_9 1_555 1_555
O9_5 C1_9 1_555 1_555
H2_9 C8_9 1_555 1_555
C2_9 C3_9 1_555 1_555
C3_9 O11_5 1_555 1_555
C4_9 C3_9 1_555 1_555
H1_9 C4_9 1_555 1_555
O8_2 C5_9 1_555 1_555
O10_4 C5_9 1_555 1_555
O12_2 C7_9 1_555 1_555
C5_9 C6_9 1_555 1_555
C6_9 C4_9 1_555 1_555
C7_9 C6_9 1_555 1_555

#END
