
###############################################################################
#
# This file contains modified crystal structure data generated from the
# MOF subset of the Cambridge Structural Database (CSD) v543 
# hosted by the Cambridge Crystallographic Data Centre (CCDC).
#
# This work is licensed under the Creative Commons
# Attribution-NonCommercial-ShareAlike 4.0 International License.
# To view a copy of this license, visit
# http://creativecommons.org/licenses/by-nc-sa/4.0/
# or send a letter to
# Creative Commons, PO Box 1866, Mountain View, CA 94042, USA.
#
# CIF created using the CSD Python API on 29 September 2022
# The structure has been converted into the P1 space group
# The structure has a 3D framework
# The original CSD entry COKMIA is in the rhombohedral crystal system
# The framework has been calculated to contain at least 10.0% void space
# The void calculation uses a probe of radius 1.32A, grid spacing 0.4
# The framework is charged, counterions have been retained in the structure
#
###############################################################################

data_COKMIA
_chemical_formula_moiety         '(C72 H18 Co8 O54 20-)n'
_symmetry_cell_setting           triclinic
_symmetry_space_group_name_H-M   'P 1'
_symmetry_Int_Tables_number      1
_space_group_name_Hall           'P 1'
loop_
_symmetry_equiv_pos_site_id
_symmetry_equiv_pos_as_xyz
1 x,y,z
_cell_length_a                   25.8977(9)
_cell_length_b                   25.8977
_cell_length_c                   6.8460(4)
_cell_angle_alpha                90
_cell_angle_beta                 90
_cell_angle_gamma                120
_cell_volume                     3976.4
loop_
_atom_site_label
_atom_site_type_symbol
_atom_site_fract_x
_atom_site_fract_y
_atom_site_fract_z
Co1 Co 0.3816(14) 0.3488(14) 0.133(4)
O1 O 0.3260(5) 0.2973(6) 0.3720(18)
O2 O 0.3022(6) 0.2275(6) 0.6011(16)
O3 O 0.3562(6) 0.2740(6) 0.0047(21)
C1 C 0.3165(5) 0.2470(6) 0.4275(15)
C2 C 0.3302(5) 0.2082(5) 0.2879(15)
C3 C 0.3473(5) 0.2255(6) 0.0891(15)
O6 O 0.3105(6) 0.0593(6) 0.3286(21)
C6 C 0.3365(5) 0.1251(5) 0.0454(15)
C7 C 0.3194(5) 0.1078(6) 0.2442(15)
C8 C 0.3150(6) 0.1524(6) 0.3612(15)
H2 H 0.3051(9) 0.1405(8) 0.5073(31)
Co3 Co 0.3179(14) 0.3661(20) 0.466(4)
Co5 Co 0.3005(20) 0.2851(14) 0.800(4)
Co8 Co 0.3661(20) 0.0483(14) 0.534(4)
O7 O 0.3046(8) 0.3407(5) 0.0387(18)
O11 O 0.3927(6) 0.4155(8) 0.3380(21)
C4 C 0.3517(6) 0.1809(6) 0.9721(15)
H1 H 0.3616(9) 0.1928(8) 0.8260(31)
O4 O 0.3407(5) 0.0360(6) 0.9613(18)
O5 O 0.3645(6) 0.1058(6) 0.7322(16)
C5 C 0.3502(5) 0.0863(6) 0.9058(15)
O9 O 0.4392(6) 0.4080(8) 0.9344(16)
O13 O 0.4155(8) 0.0229(6) 0.6620(21)
Co6 Co 0.2851(14) 0.9845(14) 0.200(4)
O10 O 0.4080(8) 0.9689(6) 0.0656(16)
Co2 Co 0.3488(14) 0.9672(20) 0.867(4)
O8 O 0.2973(6) 0.9713(8) 0.6280(18)
O12 O 0.2740(6) 0.9178(8) 0.9953(21)
Co6_2 Co 0.0155(14) 0.3005(20) 0.200(4)
O10_2 O 0.0311(6) 0.4392(10) 0.0656(16)
Co2_2 Co 0.0328(20) 0.3816(24) 0.867(4)
O8_2 O 0.0287(8) 0.3260(10) 0.6280(18)
O12_2 O 0.0822(8) 0.3562(10) 0.9953(21)
Co1_2 Co 0.6512(14) 0.0328(20) 0.133(4)
O1_2 O 0.7027(6) 0.0287(8) 0.3720(18)
O2_2 O 0.7725(6) 0.0747(8) 0.6011(16)
O3_2 O 0.7260(6) 0.0822(8) 0.0047(21)
C1_2 C 0.7530(6) 0.0695(8) 0.4275(15)
C2_2 C 0.7918(5) 0.1220(7) 0.2879(15)
C3_2 C 0.7745(6) 0.1218(8) 0.0891(15)
O6_2 O 0.9407(6) 0.2511(8) 0.3286(21)
C6_2 C 0.8749(5) 0.2113(7) 0.0454(15)
C7_2 C 0.8922(6) 0.2115(8) 0.2442(15)
C8_2 C 0.8476(6) 0.1625(8) 0.3612(15)
H2_2 H 0.8595(8) 0.1645(12) 0.5073(31)
Co5_2 Co 0.7149(14) 0.0155(24) 0.800(4)
Co8_2 Co 0.9517(14) 0.3179(24) 0.534(4)
C4_2 C 0.8191(6) 0.1708(8) 0.9721(15)
H1_2 H 0.8072(8) 0.1688(12) 0.8260(31)
O4_2 O 0.9640(6) 0.3046(8) 0.9613(18)
O5_2 O 0.8942(6) 0.2586(8) 0.7322(16)
C5_2 C 0.9137(6) 0.2638(8) 0.9058(15)
O9_2 O 0.5920(8) 0.0311(10) 0.9344(16)
O13_2 O 0.9771(6) 0.3927(10) 0.6620(21)
Co3_2 Co 0.6339(20) 0.9517(24) 0.466(4)
O7_2 O 0.6593(5) 0.9640(9) 0.0387(18)
O11_2 O 0.5845(8) 0.9771(10) 0.3380(21)
Co3_3 Co 0.0483(24) 0.6821(14) 0.466(4)
O7_3 O 0.0360(9) 0.6954(8) 0.0387(18)
O11_3 O 0.0229(10) 0.6073(6) 0.3380(21)
Co1_3 Co 0.9672(20) 0.6184(14) 0.133(4)
O1_3 O 0.9713(8) 0.6740(5) 0.3720(18)
O2_3 O 0.9253(8) 0.6978(6) 0.6011(16)
O3_3 O 0.9178(8) 0.6438(6) 0.0047(21)
C1_3 C 0.9305(8) 0.6835(5) 0.4275(15)
C2_3 C 0.8780(7) 0.6698(5) 0.2879(15)
C3_3 C 0.8782(8) 0.6527(5) 0.0891(15)
O6_3 O 0.7489(8) 0.6895(6) 0.3286(21)
C6_3 C 0.7887(7) 0.6635(5) 0.0454(15)
C7_3 C 0.7885(8) 0.6806(5) 0.2442(15)
C8_3 C 0.8375(8) 0.6850(6) 0.3612(15)
H2_3 H 0.8355(12) 0.6949(9) 0.5073(31)
Co5_3 Co 0.9845(24) 0.6995(20) 0.800(4)
Co6_3 Co 0.6995(20) 0.7149(14) 0.200(4)
Co8_3 Co 0.6821(24) 0.6339(20) 0.534(4)
O10_3 O 0.5608(10) 0.5920(8) 0.0656(16)
C4_3 C 0.8292(8) 0.6483(6) 0.9721(15)
H1_3 H 0.8312(12) 0.6384(9) 0.8260(31)
O4_3 O 0.6954(8) 0.6593(5) 0.9613(18)
O5_3 O 0.7414(8) 0.6355(6) 0.7322(16)
C5_3 C 0.7362(8) 0.6498(5) 0.9058(15)
Co2_3 Co 0.6184(24) 0.6512(14) 0.867(4)
O8_3 O 0.6740(10) 0.7027(6) 0.6280(18)
O9_3 O 0.9689(10) 0.5608(6) 0.9344(16)
O12_3 O 0.6438(10) 0.7260(6) 0.9953(21)
O13_3 O 0.6073(10) 0.5845(8) 0.6620(21)
C3_4 C 0.0140(5) 0.5588(6) 0.4224(15)
C4_4 C 0.0184(6) 0.5142(6) 0.3054(15)
H1_4 H 0.0283(9) 0.5261(8) 0.1593(31)
O4_4 O 0.0073(5) 0.3694(6) 0.2947(18)
C5_4 C 0.0168(5) 0.4197(6) 0.2392(15)
C6_4 C 0.0031(5) 0.4585(5) 0.3788(15)
O9_4 O 0.1058(6) 0.7414(8) 0.2678(16)
O10_4 O 0.0747(8) 0.3022(6) 0.3989(16)
O11_4 O 0.0593(6) 0.7489(8) 0.6714(21)
O1_4 O 0.9927(5) 0.6306(6) 0.7053(18)
C1_4 C 0.9832(5) 0.5803(6) 0.7608(15)
C2_4 C 0.9969(5) 0.5415(5) 0.6212(15)
C7_4 C 0.9860(5) 0.4412(6) 0.5776(15)
C8_4 C 0.9816(6) 0.4858(6) 0.6946(15)
H2_4 H 0.9717(9) 0.4739(8) 0.8407(31)
O1_5 O 0.3694(6) 0.3620(8) 0.7053(18)
C1_5 C 0.4197(6) 0.4028(8) 0.7608(15)
C2_5 C 0.4585(5) 0.4553(7) 0.6212(15)
C3_5 C 0.4412(6) 0.4551(8) 0.4224(15)
C4_5 C 0.4858(6) 0.5041(8) 0.3054(15)
H1_5 H 0.4739(8) 0.5021(12) 0.1593(31)
O4_5 O 0.6306(6) 0.6380(8) 0.2947(18)
C5_5 C 0.5803(6) 0.5972(8) 0.2392(15)
C6_5 C 0.5415(5) 0.5447(7) 0.3788(15)
C7_5 C 0.5588(6) 0.5449(8) 0.5776(15)
C8_5 C 0.5142(6) 0.4959(8) 0.6946(15)
H2_5 H 0.5261(8) 0.4979(12) 0.8407(31)
O9_5 O 0.2586(8) 0.3645(10) 0.2678(16)
O10_5 O 0.6978(6) 0.7725(10) 0.3989(16)
O11_5 O 0.2511(8) 0.3105(10) 0.6714(21)
O1_6 O 0.6380(8) 0.0073(5) 0.7053(18)
C1_6 C 0.5972(8) 0.0168(5) 0.7608(15)
C2_6 C 0.5447(7) 0.0031(5) 0.6212(15)
C7_6 C 0.4551(8) 0.0140(5) 0.5776(15)
C8_6 C 0.5041(8) 0.0184(6) 0.6946(15)
H2_6 H 0.5021(12) 0.0283(9) 0.8407(31)
C3_6 C 0.5449(8) 0.9860(5) 0.4224(15)
C4_6 C 0.4959(8) 0.9816(6) 0.3054(15)
H1_6 H 0.4979(12) 0.9717(9) 0.1593(31)
O4_6 O 0.3620(8) 0.9927(5) 0.2947(18)
C5_6 C 0.4028(8) 0.9832(5) 0.2392(15)
C6_6 C 0.4553(7) 0.9969(5) 0.3788(15)
O9_6 O 0.6355(10) 0.8942(6) 0.2678(16)
O10_6 O 0.2275(10) 0.9253(8) 0.3989(16)
O11_6 O 0.6895(10) 0.9407(6) 0.6714(21)
C1_7 C 0.6498(5) 0.9137(6) 0.0942(15)
C8_7 C 0.6483(6) 0.8191(6) 0.0279(15)
H2_7 H 0.6384(9) 0.8072(8) 0.1740(31)
C2_7 C 0.6635(5) 0.8749(5) 0.9546(15)
C3_7 C 0.6806(5) 0.8922(6) 0.7558(15)
C4_7 C 0.6850(6) 0.8476(6) 0.6388(15)
H1_7 H 0.6949(9) 0.8595(8) 0.4927(31)
C5_7 C 0.6835(5) 0.7530(6) 0.5725(15)
C6_7 C 0.6698(5) 0.7918(5) 0.7121(15)
C7_7 C 0.6527(5) 0.7745(6) 0.9109(15)
C1_8 C 0.0863(6) 0.7362(8) 0.0942(15)
C8_8 C 0.1809(6) 0.8292(8) 0.0279(15)
H2_8 H 0.1928(8) 0.8312(12) 0.1740(31)
C2_8 C 0.1251(5) 0.7887(7) 0.9546(15)
C3_8 C 0.1078(6) 0.7885(8) 0.7558(15)
C4_8 C 0.1524(6) 0.8375(8) 0.6388(15)
H1_8 H 0.1405(8) 0.8355(12) 0.4927(31)
C5_8 C 0.2470(6) 0.9305(8) 0.5725(15)
C6_8 C 0.2082(5) 0.8780(7) 0.7121(15)
C7_8 C 0.2255(6) 0.8782(8) 0.9109(15)
C1_9 C 0.2638(8) 0.3502(5) 0.0942(15)
C8_9 C 0.1708(8) 0.3517(6) 0.0279(15)
H2_9 H 0.1688(12) 0.3616(9) 0.1740(31)
C2_9 C 0.2113(7) 0.3365(5) 0.9546(15)
C3_9 C 0.2115(8) 0.3194(5) 0.7558(15)
C4_9 C 0.1625(8) 0.3150(6) 0.6388(15)
H1_9 H 0.1645(12) 0.3051(9) 0.4927(31)
C5_9 C 0.0695(8) 0.3165(5) 0.5725(15)
C6_9 C 0.1220(7) 0.3302(5) 0.7121(15)
C7_9 C 0.1218(8) 0.3473(5) 0.9109(15)
loop_
_geom_bond_atom_site_label_1
_geom_bond_atom_site_label_2
_geom_bond_site_symmetry_1
_geom_bond_site_symmetry_2
Co1 O1 1_555 1_555
O1 C1 1_555 1_555
O2 C1 1_555 1_555
O3 Co1 1_555 1_555
C1 C2 1_555 1_555
C2 C3 1_555 1_555
C3 O3 1_555 1_555
O6 C7 1_555 1_555
C7 C6 1_555 1_555
C8 C2 1_555 1_555
H2 C8 1_555 1_555
Co3 O1 1_555 1_555
Co5 O2 1_555 1_555
Co8 O6 1_555 1_555
O7 Co1 1_555 1_555
O11 Co1 1_555 1_555
C7 C8 1_555 1_555
Co3 O11 1_555 1_555
H1 C4 1_555 1_555
O4 C5 1_555 1_555
O5 C5 1_555 1_555
Co8 O5 1_555 1_555
Co8 O13 1_555 1_555
O8 Co2 1_555 1_555
O12 Co2 1_555 1_555
O8_2 Co2_2 1_555 1_555
O12_2 Co2_2 1_555 1_555
Co1_2 O1_2 1_555 1_555
O1_2 C1_2 1_555 1_555
O2_2 C1_2 1_555 1_555
O3_2 Co1_2 1_555 1_555
C1_2 C2_2 1_555 1_555
C2_2 C3_2 1_555 1_555
C3_2 O3_2 1_555 1_555
O6_2 C7_2 1_555 1_555
C7_2 C6_2 1_555 1_555
C8_2 C2_2 1_555 1_555
H2_2 C8_2 1_555 1_555
Co5_2 O2_2 1_555 1_555
Co8_2 O6_2 1_555 1_555
C7_2 C8_2 1_555 1_555
H1_2 C4_2 1_555 1_555
O4_2 C5_2 1_555 1_555
O5_2 C5_2 1_555 1_555
Co8_2 O5_2 1_555 1_555
Co8_2 O13_2 1_555 1_555
Co3_2 O11_2 1_555 1_555
Co3_3 O11_3 1_555 1_555
Co1_3 O1_3 1_555 1_555
O1_3 C1_3 1_555 1_555
O2_3 C1_3 1_555 1_555
O3_3 Co1_3 1_555 1_555
C1_3 C2_3 1_555 1_555
C2_3 C3_3 1_555 1_555
C3_3 O3_3 1_555 1_555
O6_3 C7_3 1_555 1_555
C7_3 C6_3 1_555 1_555
C8_3 C2_3 1_555 1_555
H2_3 C8_3 1_555 1_555
Co5_3 O2_3 1_555 1_555
Co8_3 O6_3 1_555 1_555
O6_3 Co6_3 1_555 1_555
C7_3 C8_3 1_555 1_555
H1_3 C4_3 1_555 1_555
O4_3 C5_3 1_555 1_555
O5_3 C5_3 1_555 1_555
Co2_3 O4_3 1_555 1_555
Co8_3 O5_3 1_555 1_555
O8_3 Co2_3 1_555 1_555
O12_3 Co2_3 1_555 1_555
O13_3 Co2_3 1_555 1_555
Co8_3 O8_3 1_555 1_555
Co8_3 O13_3 1_555 1_555
C3_4 O11_3 1_555 1_555
C4_4 C3_4 1_555 1_555
H1_4 C4_4 1_555 1_555
O4_4 C5_4 1_555 1_555
O10_2 C5_4 1_555 1_555
C5_4 C6_4 1_555 1_555
C6_4 C4_4 1_555 1_555
Co6_2 O4_4 1_555 1_555
O9_4 Co3_3 1_555 1_555
O10_4 Co6_2 1_555 1_555
O11_4 Co3_3 1_555 1_555
O1_4 C1_4 1_555 1_555
O9_3 C1_4 1_555 1_555
C1_4 C2_4 1_555 1_555
O13_2 C7_4 1_555 1_555
C8_4 C2_4 1_555 1_555
H2_4 C8_4 1_555 1_555
Co5_3 O1_4 1_555 1_555
C7_4 C8_4 1_555 1_555
Co3 O1_5 1_555 1_555
O1_5 C1_5 1_555 1_555
O9 C1_5 1_555 1_555
C1_5 C2_5 1_555 1_555
C2_5 C3_5 1_555 1_555
C3_5 O11 1_555 1_555
C4_5 C3_5 1_555 1_555
H1_5 C4_5 1_555 1_555
O4_5 C5_5 1_555 1_555
O10_3 C5_5 1_555 1_555
O13_3 C7_5 1_555 1_555
C5_5 C6_5 1_555 1_555
C6_5 C4_5 1_555 1_555
C7_5 C6_5 1_555 1_555
C8_5 C2_5 1_555 1_555
H2_5 C8_5 1_555 1_555
Co6_3 O4_5 1_555 1_555
Co5 O1_5 1_555 1_555
Co8_3 O4_5 1_555 1_555
O9_5 Co3 1_555 1_555
O10_5 Co6_3 1_555 1_555
O11_5 Co3 1_555 1_555
C7_5 C8_5 1_555 1_555
Co5 O11_5 1_555 1_555
O1_6 C1_6 1_555 1_555
O9_2 C1_6 1_555 1_555
C1_6 C2_6 1_555 1_555
O13 C7_6 1_555 1_555
C8_6 C2_6 1_555 1_555
H2_6 C8_6 1_555 1_555
Co5_2 O1_6 1_555 1_555
C7_6 C8_6 1_555 1_555
C3_6 O11_2 1_555 1_555
C4_6 C3_6 1_555 1_555
H1_6 C4_6 1_555 1_555
O4_6 C5_6 1_555 1_555
O10 C5_6 1_555 1_555
C5_6 C6_6 1_555 1_555
C6_6 C4_6 1_555 1_555
Co6 O4_6 1_555 1_555
O9_6 Co3_2 1_555 1_555
O10_6 Co6 1_555 1_555
O11_6 Co3_2 1_555 1_555
O7_2 C1_7 1_555 1_555
O9_6 C1_7 1_555 1_555
H2_7 C8_7 1_555 1_555
C2_7 C3_7 1_555 1_555
C3_7 O11_6 1_555 1_555
C4_7 C3_7 1_555 1_555
H1_7 C4_7 1_555 1_555
O8_3 C5_7 1_555 1_555
O10_5 C5_7 1_555 1_555
O12_3 C7_7 1_555 1_555
C5_7 C6_7 1_555 1_555
C6_7 C4_7 1_555 1_555
C7_7 C6_7 1_555 1_555
O7_3 C1_8 1_555 1_555
O9_4 C1_8 1_555 1_555
H2_8 C8_8 1_555 1_555
C2_8 C3_8 1_555 1_555
C3_8 O11_4 1_555 1_555
C4_8 C3_8 1_555 1_555
H1_8 C4_8 1_555 1_555
O8 C5_8 1_555 1_555
O10_6 C5_8 1_555 1_555
O12 C7_8 1_555 1_555
C5_8 C6_8 1_555 1_555
C6_8 C4_8 1_555 1_555
C7_8 C6_8 1_555 1_555
O7 C1_9 1_555 1_555
O9_5 C1_9 1_555 1_555
H2_9 C8_9 1_555 1_555
C2_9 C3_9 1_555 1_555
C3_9 O11_5 1_555 1_555
C4_9 C3_9 1_555 1_555
H1_9 C4_9 1_555 1_555
O8_2 C5_9 1_555 1_555
O10_4 C5_9 1_555 1_555
O12_2 C7_9 1_555 1_555
C5_9 C6_9 1_555 1_555
C6_9 C4_9 1_555 1_555
C7_9 C6_9 1_555 1_555

#END
