
###############################################################################
#
# This file contains modified crystal structure data generated from the
# MOF subset of the Cambridge Structural Database (CSD) v543 
# hosted by the Cambridge Crystallographic Data Centre (CCDC).
#
# This work is licensed under the Creative Commons
# Attribution-NonCommercial-ShareAlike 4.0 International License.
# To view a copy of this license, visit
# http://creativecommons.org/licenses/by-nc-sa/4.0/
# or send a letter to
# Creative Commons, PO Box 1866, Mountain View, CA 94042, USA.
#
# CIF created using the CSD Python API on 29 September 2022
# The structure has been converted into the P1 space group
# The structure has a 3D framework
# The original CSD entry COKNIB03 is in the rhombohedral crystal system
# The framework has been calculated to contain at least 10.0% void space
# The void calculation uses a probe of radius 1.32A, grid spacing 0.4
#
###############################################################################

data_COKNIB03
_chemical_formula_moiety         '(C72 H18 Cu3 O44)n'
_symmetry_cell_setting           triclinic
_symmetry_space_group_name_H-M   'P 1'
_symmetry_Int_Tables_number      1
_space_group_name_Hall           'P 1'
loop_
_symmetry_equiv_pos_site_id
_symmetry_equiv_pos_as_xyz
1 x,y,z
_cell_length_a                   25.91920(25)
_cell_length_b                   25.91920(25)
_cell_length_c                   6.282300(60)
_cell_angle_alpha                90
_cell_angle_beta                 90
_cell_angle_gamma                120
_cell_volume                     3655.04
loop_
_atom_site_label
_atom_site_type_symbol
_atom_site_fract_x
_atom_site_fract_y
_atom_site_fract_z
Cu4 Cu 0.318013(77) 0.371307(55) 0.00842(20)
Cu1 Cu 0.295360(55) 0.280040(54) 0.34175(20)
O1 O 0.25216(23) 0.30814(22) 0.17224(91)
O2 O 0.28184(23) 0.31024(22) 0.60102(81)
C1 C 0.21045(28) 0.31942(34) 0.2588(10)
C2 C 0.25778(35) 0.34302(43) 0.6236(12)
C3 C 0.16359(15) 0.31286(15) 0.13146(66)
C4 C 0.21204(33) 0.33866(35) 0.4694(11)
O3 O 0.26556(21) 0.37322(21) 0.79272(90)
O4 O 0.35853(22) 0.27735(32) 0.50557(91)
Cu3 Cu 0.386627(54) 0.348653(77) 0.67508(20)
O5 O 0.38931(32) 0.41451(23) 0.83891(91)
O6 O 0.35643(22) 0.30493(32) 0.93435(81)
O7 O 0.44099(30) 0.40111(21) 0.45939(90)
C5 C 0.12129(33) 0.32801(35) 0.1973(11)
C6 C 0.16974(15) 0.35381(15) 0.53521(66)
C7 C 0.07555(35) 0.32365(43) 0.0431(12)
C8 C 0.12288(28) 0.34725(34) 0.4079(10)
H2 H 0.1721(13) 0.3683(13) 0.6846(52)
O9 O 0.05149(23) 0.35643(22) 0.06565(81)
O10 O 0.08117(23) 0.35853(22) 0.49443(91)
Cu6 Cu 0.037973(55) 0.386627(54) 0.32492(20)
Cu8 Cu 0.015320(77) 0.295360(55) 0.65825(20)
H1 H 0.1612(13) 0.2984(13) 0.9821(52)
O8 O 0.06777(21) 0.29345(21) 0.87395(90)
O13 O 0.97481(22) 0.38931(32) 0.16109(91)
O14 O 0.89234(30) 0.26556(21) 0.20728(90)
Cu7 Cu 0.946707(54) 0.318013(77) 0.99158(20)
O11 O 0.97691(22) 0.36173(32) 0.73231(81)
O12 O 0.94402(32) 0.25216(23) 0.82776(91)
O13_2 O 0.41451(39) 0.02519(22) 0.16109(91)
O14_2 O 0.37322(37) 0.10766(30) 0.20728(90)
Cu7_2 Cu 0.371307(94) 0.053293(54) 0.99158(20)
O11_2 O 0.38483(39) 0.02309(22) 0.73231(81)
O12_2 O 0.30814(39) 0.05598(32) 0.82776(91)
Cu4_2 Cu 0.053293(95) 0.681987(77) 0.00842(20)
O1_2 O 0.05598(32) 0.74784(23) 0.17224(91)
O2_2 O 0.02840(32) 0.71816(23) 0.60102(81)
C1_2 C 0.10897(44) 0.78955(28) 0.2588(10)
C2_2 C 0.08524(55) 0.74222(35) 0.6236(12)
C3_2 C 0.14927(21) 0.83641(15) 0.13146(66)
C4_2 C 0.12662(48) 0.78796(33) 0.4694(11)
O3_2 O 0.10766(30) 0.73444(21) 0.79272(90)
O5_2 O 0.02519(39) 0.61069(32) 0.83891(91)
C5_2 C 0.20671(48) 0.87871(33) 0.1973(11)
C6_2 C 0.18406(21) 0.83026(15) 0.53521(66)
C7_2 C 0.24809(55) 0.92445(35) 0.0431(12)
C8_2 C 0.22436(44) 0.87712(28) 0.4079(10)
H2_2 H 0.1961(18) 0.8279(13) 0.6846(52)
O9_2 O 0.30493(32) 0.94851(23) 0.06565(81)
O10_2 O 0.27735(32) 0.91883(23) 0.49443(91)
Cu6_2 Cu 0.348653(77) 0.962027(55) 0.32492(20)
Cu8_2 Cu 0.280040(95) 0.984680(77) 0.65825(20)
H1_2 H 0.1372(18) 0.8388(13) 0.9821(52)
O8_2 O 0.22567(30) 0.93223(21) 0.87395(90)
Cu1_2 Cu 0.984680(77) 0.704640(55) 0.34175(20)
O4_2 O 0.91883(39) 0.64147(22) 0.50557(91)
Cu3_2 Cu 0.962027(94) 0.613373(54) 0.67508(20)
O6_2 O 0.94851(39) 0.64357(22) 0.93435(81)
O7_2 O 0.96011(37) 0.55901(30) 0.45939(90)
O2_3 O 0.36173(32) 0.38483(23) 0.26769(81)
C2_3 C 0.41857(55) 0.40889(35) 0.2903(12)
C4_3 C 0.45995(48) 0.45463(33) 0.1361(11)
O7_3 O 0.29345(37) 0.22567(30) 0.12605(90)
C6_3 C 0.51740(21) 0.49692(15) 0.20187(66)
C8_3 C 0.55770(44) 0.54378(28) 0.0745(10)
H2_3 H 0.5295(18) 0.4945(13) 0.3512(52)
O10_3 O 0.61069(32) 0.58549(23) 0.16109(91)
Cu8_3 Cu 0.613373(95) 0.651347(77) 0.32492(20)
C1_3 C 0.44230(44) 0.45622(28) 0.9255(10)
C3_3 C 0.48260(21) 0.50308(15) 0.79813(66)
H1_3 H 0.4705(18) 0.5055(13) 0.6488(52)
C5_3 C 0.54005(48) 0.54537(33) 0.8639(11)
C7_3 C 0.58143(55) 0.59111(35) 0.7097(12)
O8_3 O 0.55901(30) 0.59889(21) 0.54061(90)
O9_3 O 0.63827(32) 0.61517(23) 0.73231(81)
Cu6_3 Cu 0.681987(77) 0.628693(55) 0.99158(20)
Cu7_3 Cu 0.704640(94) 0.719960(54) 0.65825(20)
O11_3 O 0.71816(39) 0.68976(22) 0.39898(81)
O12_3 O 0.64147(39) 0.72265(32) 0.49443(91)
O13_3 O 0.74784(39) 0.69186(22) 0.82776(91)
O14_3 O 0.70655(37) 0.77433(30) 0.87395(90)
O14_4 O 0.03989(37) 0.44099(30) 0.54061(90)
O3_3 O 0.77433(30) 0.06777(21) 0.12605(90)
Cu4_3 Cu 0.719960(95) 0.015320(77) 0.34175(20)
H2_4 H 0.8628(18) 0.1612(13) 0.0179(52)
Cu1_3 Cu 0.651347(77) 0.037973(55) 0.67508(20)
O1_3 O 0.72265(32) 0.08117(23) 0.50557(91)
O2_4 O 0.69507(32) 0.05149(23) 0.93435(81)
C1_4 C 0.77564(44) 0.12288(28) 0.5921(10)
C2_4 C 0.75191(55) 0.07555(35) 0.9569(12)
C3_4 C 0.81594(21) 0.16974(15) 0.46479(66)
C4_4 C 0.79329(48) 0.12129(33) 0.8027(11)
H1_4 H 0.8039(18) 0.1721(13) 0.3154(52)
C5_4 C 0.87338(48) 0.21204(33) 0.5306(11)
C6_4 C 0.85073(21) 0.16359(15) 0.86854(66)
C7_4 C 0.91476(55) 0.25778(35) 0.3764(12)
C8_4 C 0.89103(44) 0.21045(28) 0.7412(10)
O9_4 O 0.97160(32) 0.28184(23) 0.39898(81)
Cu3_3 Cu 0.628693(94) 0.946707(54) 0.00842(20)
O5_3 O 0.69186(39) 0.94402(32) 0.17224(91)
O6_3 O 0.61517(39) 0.97691(22) 0.26769(81)
O4_3 O 0.58549(39) 0.97481(22) 0.83891(91)
O7_4 O 0.62678(37) 0.89234(30) 0.79272(90)
O7_5 O 0.59889(21) 0.03989(37) 0.45939(90)
O2_5 O 0.68976(22) 0.97160(32) 0.60102(81)
C1_5 C 0.68058(34) 0.89103(44) 0.2588(10)
C2_5 C 0.65698(43) 0.91476(55) 0.6236(12)
C3_5 C 0.68714(15) 0.85073(21) 0.13146(66)
C4_5 C 0.66134(35) 0.87338(48) 0.4694(11)
C5_5 C 0.67199(35) 0.79329(48) 0.1973(11)
C6_5 C 0.64619(15) 0.81594(21) 0.53521(66)
C7_5 C 0.67635(43) 0.75191(55) 0.0431(12)
C8_5 C 0.65275(34) 0.77564(44) 0.4079(10)
H2_5 H 0.6317(13) 0.8039(18) 0.6846(52)
O9_5 O 0.64357(22) 0.69507(32) 0.06565(81)
O14_5 O 0.73444(21) 0.62678(37) 0.20728(90)
H1_5 H 0.7016(13) 0.8628(18) 0.9821(52)
O2_6 O 0.02309(22) 0.63827(32) 0.26769(81)
C1_6 C 0.01391(34) 0.55770(44) 0.9255(10)
C3_6 C 0.02047(15) 0.51740(21) 0.79813(66)
H1_6 H 0.0349(13) 0.5295(18) 0.6488(52)
C5_6 C 0.00533(35) 0.45995(48) 0.8639(11)
C7_6 C 0.00969(43) 0.41857(55) 0.7097(12)
C2_6 C 0.99031(43) 0.58143(55) 0.2903(12)
C4_6 C 0.99467(35) 0.54005(48) 0.1361(11)
O7_6 O 0.93223(21) 0.70655(37) 0.12605(90)
C6_6 C 0.97953(15) 0.48260(21) 0.20187(66)
C8_6 C 0.98609(34) 0.44230(44) 0.0745(10)
H2_6 H 0.9651(13) 0.4705(18) 0.3512(52)
H2_7 H 0.2984(13) 0.1372(18) 0.0179(52)
C1_7 C 0.34725(34) 0.22436(44) 0.5921(10)
C2_7 C 0.32365(43) 0.24809(55) 0.9569(12)
C3_7 C 0.35381(15) 0.18406(21) 0.46479(66)
C4_7 C 0.32801(35) 0.20671(48) 0.8027(11)
H1_7 H 0.3683(13) 0.1961(18) 0.3154(52)
C5_7 C 0.33866(35) 0.12662(48) 0.5306(11)
C6_7 C 0.31286(15) 0.14927(21) 0.86854(66)
C7_7 C 0.34302(43) 0.08524(55) 0.3764(12)
C8_7 C 0.31942(34) 0.10897(44) 0.7412(10)
O9_6 O 0.31024(22) 0.02840(32) 0.39898(81)
O14_6 O 0.40111(21) 0.96011(37) 0.54061(90)
C2_8 C 0.59111(35) 0.00969(43) 0.2903(12)
C4_8 C 0.54537(33) 0.00533(35) 0.1361(11)
C6_8 C 0.50308(15) 0.02047(15) 0.20187(66)
C8_8 C 0.45622(28) 0.01391(34) 0.0745(10)
H2_8 H 0.5055(13) 0.0349(13) 0.3512(52)
C1_8 C 0.54378(28) 0.98609(34) 0.9255(10)
C3_8 C 0.49692(15) 0.97953(15) 0.79813(66)
H1_8 H 0.4945(13) 0.9651(13) 0.6488(52)
C5_8 C 0.45463(33) 0.99467(35) 0.8639(11)
C7_8 C 0.40889(35) 0.99031(43) 0.7097(12)
H2_9 H 0.8388(13) 0.7016(13) 0.0179(52)
C1_9 C 0.87712(28) 0.65275(34) 0.5921(10)
C2_9 C 0.92445(35) 0.67635(43) 0.9569(12)
C3_9 C 0.83026(15) 0.64619(15) 0.46479(66)
C4_9 C 0.87871(33) 0.67199(35) 0.8027(11)
H1_9 H 0.8279(13) 0.6317(13) 0.3154(52)
C5_9 C 0.78796(33) 0.66134(35) 0.5306(11)
C6_9 C 0.83641(15) 0.68714(15) 0.86854(66)
C7_9 C 0.74222(35) 0.65698(43) 0.3764(12)
C8_9 C 0.78955(28) 0.68058(34) 0.7412(10)
loop_
_geom_bond_atom_site_label_1
_geom_bond_atom_site_label_2
_geom_bond_site_symmetry_1
_geom_bond_site_symmetry_2
Cu1 O1 1_555 1_555
O1 C1 1_555 1_555
O2 Cu1 1_555 1_555
C1 C3 1_555 1_555
C2 O2 1_555 1_555
C4 C1 1_555 1_555
O3 C2 1_555 1_555
O4 Cu1 1_555 1_555
Cu4 O1 1_555 1_555
Cu3 O2 1_555 1_555
O5 Cu3 1_555 1_555
O6 Cu3 1_555 1_555
O7 Cu3 1_555 1_555
C5 C3 1_555 1_555
C6 C4 1_555 1_555
C7 C5 1_555 1_555
C8 C5 1_555 1_555
H2 C6 1_555 1_555
O9 C7 1_555 1_555
O10 C8 1_555 1_555
Cu6 O9 1_555 1_555
Cu8 O10 1_555 1_555
C2 C4 1_555 1_555
O4 Cu3 1_555 1_555
C6 C8 1_555 1_555
O10 Cu6 1_555 1_555
Cu8 O8 1_555 1_555
Cu7 O11 1_555 1_555
Cu7 O12 1_555 1_555
Cu7_2 O11_2 1_555 1_555
Cu7_2 O12_2 1_555 1_555
O1_2 C1_2 1_555 1_555
C1_2 C3_2 1_555 1_555
C2_2 O2_2 1_555 1_555
C4_2 C1_2 1_555 1_555
O3_2 C2_2 1_555 1_555
Cu4_2 O1_2 1_555 1_555
C5_2 C3_2 1_555 1_555
C6_2 C4_2 1_555 1_555
C7_2 C5_2 1_555 1_555
C8_2 C5_2 1_555 1_555
H2_2 C6_2 1_555 1_555
O9_2 C7_2 1_555 1_555
O10_2 C8_2 1_555 1_555
Cu6_2 O9_2 1_555 1_555
Cu8_2 O10_2 1_555 1_555
C2_2 C4_2 1_555 1_555
C6_2 C8_2 1_555 1_555
O10_2 Cu6_2 1_555 1_555
Cu8_2 O8_2 1_555 1_555
O4_2 Cu1_2 1_555 1_555
O6_2 Cu3_2 1_555 1_555
O7_2 Cu3_2 1_555 1_555
O4_2 Cu3_2 1_555 1_555
O2_3 Cu4 1_555 1_555
C2_3 O2_3 1_555 1_555
O7 C2_3 1_555 1_555
Cu1 O2_3 1_555 1_555
O7_3 Cu1 1_555 1_555
C6_3 C4_3 1_555 1_555
H2_3 C6_3 1_555 1_555
O10_3 C8_3 1_555 1_555
Cu8_3 O10_3 1_555 1_555
C2_3 C4_3 1_555 1_555
C6_3 C8_3 1_555 1_555
O5 C1_3 1_555 1_555
C1_3 C3_3 1_555 1_555
C3_3 H1_3 1_555 1_555
C5_3 C3_3 1_555 1_555
C7_3 C5_3 1_555 1_555
O8_3 C7_3 1_555 1_555
O9_3 C7_3 1_555 1_555
Cu8_3 O8_3 1_555 1_555
Cu6_3 O9_3 1_555 1_555
Cu7_3 O9_3 1_555 1_555
O11_3 Cu8_3 1_555 1_555
O12_3 Cu8_3 1_555 1_555
O13_3 Cu6_3 1_555 1_555
O14_3 Cu7_3 1_555 1_555
Cu7_3 O11_3 1_555 1_555
Cu7_3 O12_3 1_555 1_555
Cu7_3 O13_3 1_555 1_555
O14_4 Cu6 1_555 1_555
Cu4_3 O3_3 1_555 1_555
Cu1_3 O1_3 1_555 1_555
O1_3 C1_4 1_555 1_555
O2_4 Cu1_3 1_555 1_555
C1_4 C3_4 1_555 1_555
C2_4 O2_4 1_555 1_555
C3_4 H1_4 1_555 1_555
C4_4 C1_4 1_555 1_555
Cu4_3 O1_3 1_555 1_555
C5_4 C3_4 1_555 1_555
C6_4 C4_4 1_555 1_555
C7_4 C5_4 1_555 1_555
C8_4 C5_4 1_555 1_555
O14 C7_4 1_555 1_555
O9_4 C7_4 1_555 1_555
O12 C8_4 1_555 1_555
C2_4 C4_4 1_555 1_555
C6_4 C8_4 1_555 1_555
O5_3 Cu3_3 1_555 1_555
O6_3 Cu3_3 1_555 1_555
O7_5 Cu1_3 1_555 1_555
O5_3 C1_5 1_555 1_555
C1_5 C3_5 1_555 1_555
C2_5 O2_5 1_555 1_555
C4_5 C1_5 1_555 1_555
O7_4 C2_5 1_555 1_555
C5_5 C3_5 1_555 1_555
C6_5 C4_5 1_555 1_555
C7_5 C5_5 1_555 1_555
C8_5 C5_5 1_555 1_555
H2_5 C6_5 1_555 1_555
O9_5 C7_5 1_555 1_555
O12_3 C8_5 1_555 1_555
Cu8_3 O9_5 1_555 1_555
C2_5 C4_5 1_555 1_555
C6_5 C8_5 1_555 1_555
O2_6 Cu4_2 1_555 1_555
O5_2 C1_6 1_555 1_555
C1_6 C3_6 1_555 1_555
C3_6 H1_6 1_555 1_555
C5_6 C3_6 1_555 1_555
C7_6 C5_6 1_555 1_555
O14_4 C7_6 1_555 1_555
O7_2 C2_6 1_555 1_555
O7_6 Cu1_2 1_555 1_555
C6_6 C4_6 1_555 1_555
H2_6 C6_6 1_555 1_555
O13 C8_6 1_555 1_555
C2_6 C4_6 1_555 1_555
C6_6 C8_6 1_555 1_555
O4 C1_7 1_555 1_555
C1_7 C3_7 1_555 1_555
C2_7 O6 1_555 1_555
C3_7 H1_7 1_555 1_555
C4_7 C1_7 1_555 1_555
C5_7 C3_7 1_555 1_555
C6_7 C4_7 1_555 1_555
C7_7 C5_7 1_555 1_555
C8_7 C5_7 1_555 1_555
O14_2 C7_7 1_555 1_555
O9_6 C7_7 1_555 1_555
O12_2 C8_7 1_555 1_555
C2_7 C4_7 1_555 1_555
C6_7 C8_7 1_555 1_555
O14_6 Cu6_2 1_555 1_555
O7_5 C2_8 1_555 1_555
C6_8 C4_8 1_555 1_555
H2_8 C6_8 1_555 1_555
O13_2 C8_8 1_555 1_555
C2_8 C4_8 1_555 1_555
C6_8 C8_8 1_555 1_555
O4_3 C1_8 1_555 1_555
C1_8 C3_8 1_555 1_555
C3_8 H1_8 1_555 1_555
C5_8 C3_8 1_555 1_555
C7_8 C5_8 1_555 1_555
O14_6 C7_8 1_555 1_555
O4_2 C1_9 1_555 1_555
C1_9 C3_9 1_555 1_555
C2_9 O6_2 1_555 1_555
C3_9 H1_9 1_555 1_555
C4_9 C1_9 1_555 1_555
C5_9 C3_9 1_555 1_555
C6_9 C4_9 1_555 1_555
C7_9 C5_9 1_555 1_555
C8_9 C5_9 1_555 1_555
O14_5 C7_9 1_555 1_555
O11_3 C7_9 1_555 1_555
O13_3 C8_9 1_555 1_555
C2_9 C4_9 1_555 1_555
C6_9 C8_9 1_555 1_555

#END
