
###############################################################################
#
# This file contains modified crystal structure data generated from the
# MOF subset of the Cambridge Structural Database (CSD) v543 
# hosted by the Cambridge Crystallographic Data Centre (CCDC).
#
# This work is licensed under the Creative Commons
# Attribution-NonCommercial-ShareAlike 4.0 International License.
# To view a copy of this license, visit
# http://creativecommons.org/licenses/by-nc-sa/4.0/
# or send a letter to
# Creative Commons, PO Box 1866, Mountain View, CA 94042, USA.
#
# CIF created using the CSD Python API on 29 September 2022
# The structure has been converted into the P1 space group
# The structure has a 3D framework
# The original CSD entry COKNAT is in the rhombohedral crystal system
# The framework has been calculated to contain at least 10.0% void space
# The void calculation uses a probe of radius 1.32A, grid spacing 0.4
# The framework is charged, counterions have been retained in the structure
#
###############################################################################

data_COKNAT
_chemical_formula_moiety         '(C72 H18 O54 Zn8 20-)n'
_symmetry_cell_setting           triclinic
_symmetry_space_group_name_H-M   'P 1'
_symmetry_Int_Tables_number      1
_space_group_name_Hall           'P 1'
loop_
_symmetry_equiv_pos_site_id
_symmetry_equiv_pos_as_xyz
1 x,y,z
_cell_length_a                   25.9140(17)
_cell_length_b                   25.914
_cell_length_c                   6.7986(6)
_cell_angle_alpha                90
_cell_angle_beta                 90
_cell_angle_gamma                120
_cell_volume                     3953.84
loop_
_atom_site_label
_atom_site_type_symbol
_atom_site_fract_x
_atom_site_fract_y
_atom_site_fract_z
Zn1 Zn 0.3836(8) 0.3546(9) 0.1436(22)
O1 O 0.3281(6) 0.2966(7) 0.3751(25)
O2 O 0.3001(7) 0.2267(7) 0.6112(21)
O3 O 0.3537(8) 0.2743(8) 0.0166(24)
C1 C 0.3157(7) 0.2448(7) 0.4339(19)
C2 C 0.3270(7) 0.2064(6) 0.2837(18)
C3 C 0.3431(6) 0.2212(6) 0.0919(18)
O6 O 0.3130(8) 0.0590(8) 0.3167(24)
C6 C 0.3397(7) 0.1269(6) 0.0496(18)
C7 C 0.3236(6) 0.1121(6) 0.2414(18)
C8 C 0.3142(7) 0.1492(8) 0.3689(19)
H2 H 0.3058(14) 0.1423(14) 0.498(4)
Zn3 Zn 0.3121(9) 0.3623(12) 0.4769(22)
Zn5 Zn 0.3043(12) 0.2831(8) 0.8103(22)
Zn8 Zn 0.3623(12) 0.0503(8) 0.5231(22)
O7 O 0.3018(9) 0.3386(6) 0.0418(25)
O11 O 0.3924(8) 0.4127(11) 0.3499(24)
C4 C 0.3525(7) 0.1841(8) 0.9644(19)
H1 H 0.3609(14) 0.1910(14) 0.835(4)
O4 O 0.3386(6) 0.0367(7) 0.9582(25)
O5 O 0.3666(7) 0.1066(7) 0.7221(21)
C5 C 0.3510(7) 0.0885(7) 0.8994(19)
O9 O 0.4400(7) 0.4067(10) 0.9445(21)
O13 O 0.4127(11) 0.0204(8) 0.6501(24)
Zn6 Zn 0.2831(8) 0.9787(9) 0.1897(22)
O10 O 0.4067(10) 0.9668(7) 0.0555(21)
Zn2 Zn 0.3546(9) 0.9710(12) 0.8564(22)
O8 O 0.2966(7) 0.9685(9) 0.6249(25)
O12 O 0.2743(8) 0.9206(11) 0.9834(24)
Zn6_2 Zn 0.0213(9) 0.3043(12) 0.1897(22)
O10_2 O 0.0332(7) 0.4400(12) 0.0555(21)
Zn2_2 Zn 0.0290(12) 0.3836(15) 0.8564(22)
O8_2 O 0.0315(9) 0.3281(11) 0.6249(25)
O12_2 O 0.0794(11) 0.3537(14) 0.9834(24)
Zn1_2 Zn 0.6454(9) 0.0290(12) 0.1436(22)
O1_2 O 0.7034(7) 0.0315(9) 0.3751(25)
O2_2 O 0.7733(7) 0.0734(10) 0.6112(21)
O3_2 O 0.7257(8) 0.0794(11) 0.0166(24)
C1_2 C 0.7552(7) 0.0709(10) 0.4339(19)
C2_2 C 0.7936(6) 0.1206(9) 0.2837(18)
C3_2 C 0.7788(6) 0.1219(8) 0.0919(18)
O6_2 O 0.9410(8) 0.2539(11) 0.3167(24)
C6_2 C 0.8731(6) 0.2127(9) 0.0496(18)
C7_2 C 0.8879(6) 0.2114(8) 0.2414(18)
C8_2 C 0.8508(8) 0.1649(11) 0.3689(19)
H2_2 H 0.8577(14) 0.1634(20) 0.498(4)
Zn5_2 Zn 0.7169(8) 0.0213(14) 0.8103(22)
Zn8_2 Zn 0.9497(8) 0.3121(14) 0.5231(22)
C4_2 C 0.8159(8) 0.1684(11) 0.9644(19)
H1_2 H 0.8090(14) 0.1699(20) 0.835(4)
O4_2 O 0.9633(7) 0.3018(9) 0.9582(25)
O5_2 O 0.8934(7) 0.2599(10) 0.7221(21)
C5_2 C 0.9115(7) 0.2624(10) 0.8994(19)
O9_2 O 0.5933(10) 0.0332(12) 0.9445(21)
O13_2 O 0.9796(8) 0.3924(14) 0.6501(24)
Zn3_2 Zn 0.6377(12) 0.9497(15) 0.4769(22)
O7_2 O 0.6614(6) 0.9633(11) 0.0418(25)
O11_2 O 0.5873(11) 0.9796(14) 0.3499(24)
Zn3_3 Zn 0.0503(15) 0.6879(9) 0.4769(22)
O7_3 O 0.0367(11) 0.6982(9) 0.0418(25)
O11_3 O 0.0204(14) 0.6076(8) 0.3499(24)
Zn1_3 Zn 0.9710(12) 0.6164(8) 0.1436(22)
O1_3 O 0.9685(9) 0.6719(6) 0.3751(25)
O2_3 O 0.9266(10) 0.6999(7) 0.6112(21)
O3_3 O 0.9206(11) 0.6463(8) 0.0166(24)
C1_3 C 0.9291(10) 0.6843(7) 0.4339(19)
C2_3 C 0.8794(9) 0.6730(7) 0.2837(18)
C3_3 C 0.8781(8) 0.6569(6) 0.0919(18)
O6_3 O 0.7461(11) 0.6870(8) 0.3167(24)
C6_3 C 0.7873(9) 0.6603(7) 0.0496(18)
C7_3 C 0.7886(8) 0.6764(6) 0.2414(18)
C8_3 C 0.8351(11) 0.6858(7) 0.3689(19)
H2_3 H 0.8366(20) 0.6942(14) 0.498(4)
Zn5_3 Zn 0.9787(14) 0.6957(12) 0.8103(22)
Zn6_3 Zn 0.6957(12) 0.7169(8) 0.1897(22)
Zn8_3 Zn 0.6879(14) 0.6377(12) 0.5231(22)
O10_3 O 0.5600(12) 0.5933(10) 0.0555(21)
C4_3 C 0.8316(11) 0.6475(7) 0.9644(19)
H1_3 H 0.8301(20) 0.6391(14) 0.835(4)
O4_3 O 0.6982(9) 0.6614(6) 0.9582(25)
O5_3 O 0.7401(10) 0.6334(7) 0.7221(21)
C5_3 C 0.7376(10) 0.6490(7) 0.8994(19)
Zn2_3 Zn 0.6164(15) 0.6454(9) 0.8564(22)
O8_3 O 0.6719(11) 0.7034(7) 0.6249(25)
O9_3 O 0.9668(12) 0.5600(7) 0.9445(21)
O12_3 O 0.6463(14) 0.7257(8) 0.9834(24)
O13_3 O 0.6076(14) 0.5873(11) 0.6501(24)
C3_4 C 0.0098(6) 0.5545(6) 0.4252(18)
C4_4 C 0.0192(7) 0.5174(8) 0.2977(19)
H1_4 H 0.0276(14) 0.5243(14) 0.168(4)
O4_4 O 0.0052(6) 0.3701(7) 0.2916(25)
C5_4 C 0.0176(7) 0.4219(7) 0.2328(19)
C6_4 C 0.0063(7) 0.4603(6) 0.3830(18)
O9_4 O 0.1066(7) 0.7401(10) 0.2779(21)
O10_4 O 0.0734(10) 0.3001(7) 0.3888(21)
O11_4 O 0.0590(8) 0.7461(11) 0.6833(24)
O1_4 O 0.9948(6) 0.6299(7) 0.7084(25)
C1_4 C 0.9824(7) 0.5781(7) 0.7672(19)
C2_4 C 0.9937(7) 0.5397(6) 0.6170(18)
C7_4 C 0.9902(6) 0.4455(6) 0.5748(18)
C8_4 C 0.9808(7) 0.4826(8) 0.7023(19)
H2_4 H 0.9724(14) 0.4757(14) 0.832(4)
O1_5 O 0.3701(7) 0.3648(9) 0.7084(25)
C1_5 C 0.4219(7) 0.4042(10) 0.7672(19)
C2_5 C 0.4603(6) 0.4539(9) 0.6170(18)
C3_5 C 0.4455(6) 0.4552(8) 0.4252(18)
C4_5 C 0.4826(8) 0.5017(11) 0.2977(19)
H1_5 H 0.4757(14) 0.5032(20) 0.168(4)
O4_5 O 0.6299(7) 0.6352(9) 0.2916(25)
C5_5 C 0.5781(7) 0.5958(10) 0.2328(19)
C6_5 C 0.5397(6) 0.5461(9) 0.3830(18)
C7_5 C 0.5545(6) 0.5448(8) 0.5748(18)
C8_5 C 0.5174(8) 0.4983(11) 0.7023(19)
H2_5 H 0.5243(14) 0.4968(20) 0.832(4)
O9_5 O 0.2599(10) 0.3666(12) 0.2779(21)
O10_5 O 0.6999(7) 0.7733(12) 0.3888(21)
O11_5 O 0.2539(11) 0.3130(14) 0.6833(24)
O1_6 O 0.6352(9) 0.0052(6) 0.7084(25)
C1_6 C 0.5958(10) 0.0176(7) 0.7672(19)
C2_6 C 0.5461(9) 0.0063(7) 0.6170(18)
C7_6 C 0.4552(8) 0.0098(6) 0.5748(18)
C8_6 C 0.5017(11) 0.0192(7) 0.7023(19)
H2_6 H 0.5032(20) 0.0276(14) 0.832(4)
C3_6 C 0.5448(8) 0.9902(6) 0.4252(18)
C4_6 C 0.4983(11) 0.9808(7) 0.2977(19)
H1_6 H 0.4968(20) 0.9724(14) 0.168(4)
O4_6 O 0.3648(9) 0.9948(6) 0.2916(25)
C5_6 C 0.4042(10) 0.9824(7) 0.2328(19)
C6_6 C 0.4539(9) 0.9937(7) 0.3830(18)
O9_6 O 0.6334(12) 0.8934(7) 0.2779(21)
O10_6 O 0.2267(12) 0.9266(10) 0.3888(21)
O11_6 O 0.6870(14) 0.9410(8) 0.6833(24)
C1_7 C 0.6490(7) 0.9115(7) 0.1006(19)
C8_7 C 0.6475(7) 0.8159(8) 0.0356(19)
H2_7 H 0.6391(14) 0.8090(14) 0.165(4)
C2_7 C 0.6603(7) 0.8731(6) 0.9504(18)
C3_7 C 0.6764(6) 0.8879(6) 0.7586(18)
C4_7 C 0.6858(7) 0.8508(8) 0.6311(19)
H1_7 H 0.6942(14) 0.8577(14) 0.502(4)
C5_7 C 0.6843(7) 0.7552(7) 0.5661(19)
C6_7 C 0.6730(7) 0.7936(6) 0.7163(18)
C7_7 C 0.6569(6) 0.7788(6) 0.9081(18)
C1_8 C 0.0885(7) 0.7376(10) 0.1006(19)
C8_8 C 0.1841(8) 0.8316(11) 0.0356(19)
H2_8 H 0.1910(14) 0.8301(20) 0.165(4)
C2_8 C 0.1269(6) 0.7873(9) 0.9504(18)
C3_8 C 0.1121(6) 0.7886(8) 0.7586(18)
C4_8 C 0.1492(8) 0.8351(11) 0.6311(19)
H1_8 H 0.1423(14) 0.8366(20) 0.502(4)
C5_8 C 0.2448(7) 0.9291(10) 0.5661(19)
C6_8 C 0.2064(6) 0.8794(9) 0.7163(18)
C7_8 C 0.2212(6) 0.8781(8) 0.9081(18)
C1_9 C 0.2624(10) 0.3510(7) 0.1006(19)
C8_9 C 0.1684(11) 0.3525(7) 0.0356(19)
H2_9 H 0.1699(20) 0.3609(14) 0.165(4)
C2_9 C 0.2127(9) 0.3397(7) 0.9504(18)
C3_9 C 0.2114(8) 0.3236(6) 0.7586(18)
C4_9 C 0.1649(11) 0.3142(7) 0.6311(19)
H1_9 H 0.1634(20) 0.3058(14) 0.502(4)
C5_9 C 0.0709(10) 0.3157(7) 0.5661(19)
C6_9 C 0.1206(9) 0.3270(7) 0.7163(18)
C7_9 C 0.1219(8) 0.3431(6) 0.9081(18)
loop_
_geom_bond_atom_site_label_1
_geom_bond_atom_site_label_2
_geom_bond_site_symmetry_1
_geom_bond_site_symmetry_2
Zn1 O1 1_555 1_555
O1 C1 1_555 1_555
O2 C1 1_555 1_555
O3 Zn1 1_555 1_555
C1 C2 1_555 1_555
C2 C3 1_555 1_555
C3 O3 1_555 1_555
O6 C7 1_555 1_555
C7 C6 1_555 1_555
C8 C2 1_555 1_555
H2 C8 1_555 1_555
Zn3 O1 1_555 1_555
Zn5 O2 1_555 1_555
Zn8 O6 1_555 1_555
O7 Zn1 1_555 1_555
O11 Zn1 1_555 1_555
C7 C8 1_555 1_555
Zn3 O11 1_555 1_555
H1 C4 1_555 1_555
O4 C5 1_555 1_555
O5 C5 1_555 1_555
Zn8 O5 1_555 1_555
Zn8 O13 1_555 1_555
O8 Zn2 1_555 1_555
O12 Zn2 1_555 1_555
O8_2 Zn2_2 1_555 1_555
O12_2 Zn2_2 1_555 1_555
Zn1_2 O1_2 1_555 1_555
O1_2 C1_2 1_555 1_555
O2_2 C1_2 1_555 1_555
O3_2 Zn1_2 1_555 1_555
C1_2 C2_2 1_555 1_555
C2_2 C3_2 1_555 1_555
C3_2 O3_2 1_555 1_555
O6_2 C7_2 1_555 1_555
C7_2 C6_2 1_555 1_555
C8_2 C2_2 1_555 1_555
H2_2 C8_2 1_555 1_555
Zn5_2 O2_2 1_555 1_555
Zn8_2 O6_2 1_555 1_555
C7_2 C8_2 1_555 1_555
H1_2 C4_2 1_555 1_555
O4_2 C5_2 1_555 1_555
O5_2 C5_2 1_555 1_555
Zn8_2 O5_2 1_555 1_555
Zn8_2 O13_2 1_555 1_555
Zn3_2 O11_2 1_555 1_555
Zn3_3 O11_3 1_555 1_555
Zn1_3 O1_3 1_555 1_555
O1_3 C1_3 1_555 1_555
O2_3 C1_3 1_555 1_555
O3_3 Zn1_3 1_555 1_555
C1_3 C2_3 1_555 1_555
C2_3 C3_3 1_555 1_555
C3_3 O3_3 1_555 1_555
O6_3 C7_3 1_555 1_555
C7_3 C6_3 1_555 1_555
C8_3 C2_3 1_555 1_555
H2_3 C8_3 1_555 1_555
Zn5_3 O2_3 1_555 1_555
Zn8_3 O6_3 1_555 1_555
O6_3 Zn6_3 1_555 1_555
C7_3 C8_3 1_555 1_555
H1_3 C4_3 1_555 1_555
O4_3 C5_3 1_555 1_555
O5_3 C5_3 1_555 1_555
Zn2_3 O4_3 1_555 1_555
Zn8_3 O5_3 1_555 1_555
O8_3 Zn2_3 1_555 1_555
O12_3 Zn2_3 1_555 1_555
O13_3 Zn2_3 1_555 1_555
Zn8_3 O8_3 1_555 1_555
Zn8_3 O13_3 1_555 1_555
C3_4 O11_3 1_555 1_555
C4_4 C3_4 1_555 1_555
H1_4 C4_4 1_555 1_555
O4_4 C5_4 1_555 1_555
O10_2 C5_4 1_555 1_555
C5_4 C6_4 1_555 1_555
C6_4 C4_4 1_555 1_555
Zn6_2 O4_4 1_555 1_555
O9_4 Zn3_3 1_555 1_555
O10_4 Zn6_2 1_555 1_555
O11_4 Zn3_3 1_555 1_555
O1_4 C1_4 1_555 1_555
O9_3 C1_4 1_555 1_555
C1_4 C2_4 1_555 1_555
O13_2 C7_4 1_555 1_555
C8_4 C2_4 1_555 1_555
H2_4 C8_4 1_555 1_555
Zn5_3 O1_4 1_555 1_555
C7_4 C8_4 1_555 1_555
Zn3 O1_5 1_555 1_555
O1_5 C1_5 1_555 1_555
O9 C1_5 1_555 1_555
C1_5 C2_5 1_555 1_555
C2_5 C3_5 1_555 1_555
C3_5 O11 1_555 1_555
C4_5 C3_5 1_555 1_555
H1_5 C4_5 1_555 1_555
O4_5 C5_5 1_555 1_555
O10_3 C5_5 1_555 1_555
O13_3 C7_5 1_555 1_555
C5_5 C6_5 1_555 1_555
C6_5 C4_5 1_555 1_555
C7_5 C6_5 1_555 1_555
C8_5 C2_5 1_555 1_555
H2_5 C8_5 1_555 1_555
Zn6_3 O4_5 1_555 1_555
Zn5 O1_5 1_555 1_555
Zn8_3 O4_5 1_555 1_555
O9_5 Zn3 1_555 1_555
O10_5 Zn6_3 1_555 1_555
O11_5 Zn3 1_555 1_555
C7_5 C8_5 1_555 1_555
Zn5 O11_5 1_555 1_555
O1_6 C1_6 1_555 1_555
O9_2 C1_6 1_555 1_555
C1_6 C2_6 1_555 1_555
O13 C7_6 1_555 1_555
C8_6 C2_6 1_555 1_555
H2_6 C8_6 1_555 1_555
Zn5_2 O1_6 1_555 1_555
C7_6 C8_6 1_555 1_555
C3_6 O11_2 1_555 1_555
C4_6 C3_6 1_555 1_555
H1_6 C4_6 1_555 1_555
O4_6 C5_6 1_555 1_555
O10 C5_6 1_555 1_555
C5_6 C6_6 1_555 1_555
C6_6 C4_6 1_555 1_555
Zn6 O4_6 1_555 1_555
O9_6 Zn3_2 1_555 1_555
O10_6 Zn6 1_555 1_555
O11_6 Zn3_2 1_555 1_555
O7_2 C1_7 1_555 1_555
O9_6 C1_7 1_555 1_555
H2_7 C8_7 1_555 1_555
C2_7 C3_7 1_555 1_555
C3_7 O11_6 1_555 1_555
C4_7 C3_7 1_555 1_555
H1_7 C4_7 1_555 1_555
O8_3 C5_7 1_555 1_555
O10_5 C5_7 1_555 1_555
O12_3 C7_7 1_555 1_555
C5_7 C6_7 1_555 1_555
C6_7 C4_7 1_555 1_555
C7_7 C6_7 1_555 1_555
O7_3 C1_8 1_555 1_555
O9_4 C1_8 1_555 1_555
H2_8 C8_8 1_555 1_555
C2_8 C3_8 1_555 1_555
C3_8 O11_4 1_555 1_555
C4_8 C3_8 1_555 1_555
H1_8 C4_8 1_555 1_555
O8 C5_8 1_555 1_555
O10_6 C5_8 1_555 1_555
O12 C7_8 1_555 1_555
C5_8 C6_8 1_555 1_555
C6_8 C4_8 1_555 1_555
C7_8 C6_8 1_555 1_555
O7 C1_9 1_555 1_555
O9_5 C1_9 1_555 1_555
H2_9 C8_9 1_555 1_555
C2_9 C3_9 1_555 1_555
C3_9 O11_5 1_555 1_555
C4_9 C3_9 1_555 1_555
H1_9 C4_9 1_555 1_555
O8_2 C5_9 1_555 1_555
O10_4 C5_9 1_555 1_555
O12_2 C7_9 1_555 1_555
C5_9 C6_9 1_555 1_555
C6_9 C4_9 1_555 1_555
C7_9 C6_9 1_555 1_555

#END
