
###############################################################################
#
# This file contains modified crystal structure data generated from the
# MOF subset of the Cambridge Structural Database (CSD) v543 
# hosted by the Cambridge Crystallographic Data Centre (CCDC).
#
# This work is licensed under the Creative Commons
# Attribution-NonCommercial-ShareAlike 4.0 International License.
# To view a copy of this license, visit
# http://creativecommons.org/licenses/by-nc-sa/4.0/
# or send a letter to
# Creative Commons, PO Box 1866, Mountain View, CA 94042, USA.
#
# CIF created using the CSD Python API on 29 September 2022
# The structure has been converted into the P1 space group
# The structure has a 3D framework
# The original CSD entry COKNUN03 is in the rhombohedral crystal system
# The framework has been calculated to contain at least 10.0% void space
# The void calculation uses a probe of radius 1.32A, grid spacing 0.4
#
###############################################################################

data_COKNUN03
_chemical_formula_moiety         '(C72 H18 Mn4 O48)n'
_symmetry_cell_setting           triclinic
_symmetry_space_group_name_H-M   'P 1'
_symmetry_Int_Tables_number      1
_space_group_name_Hall           'P 1'
loop_
_symmetry_equiv_pos_site_id
_symmetry_equiv_pos_as_xyz
1 x,y,z
_cell_length_a                   26.27756(32)
_cell_length_b                   26.27756(32)
_cell_length_c                   7.054415(79)
_cell_angle_alpha                90
_cell_angle_beta                 90
_cell_angle_gamma                120
_cell_volume                     4218.54
loop_
_atom_site_label
_atom_site_type_symbol
_atom_site_fract_x
_atom_site_fract_y
_atom_site_fract_z
Mn1 Mn 0.361484(68) 0.311585(68) 0.03054(18)
O2 O 0.41555(24) 0.39466(33) 0.15804(84)
C2 C 0.45503(31) 0.44435(47) 0.0670(11)
C4 C 0.50164(17) 0.48524(25) 0.18415(67)
H1 H 0.5022(14) 0.4753(21) 0.3108(55)
Mn3 Mn 0.355082(68) 0.383232(96) 0.36387(18)
C6 C 0.54470(34) 0.53890(51) 0.1186(11)
C8 C 0.59310(41) 0.57981(61) 0.2556(13)
O9 O 0.59044(25) 0.56022(36) 0.42081(98)
O10 O 0.63322(27) 0.62894(34) 0.19913(76)
Mn7 Mn 0.644918(68) 0.616768(96) 0.63613(18)
Mn8 Mn 0.716566(96) 0.694817(68) 0.30279(18)
O11 O 0.68756(41) 0.74888(24) 0.17529(84)
O12 O 0.66239(43) 0.70011(27) 0.53246(76)
O13 O 0.72799(33) 0.64578(41) 0.50863(84)
O14 O 0.77311(36) 0.69689(44) 0.08748(98)
O1 O 0.36678(27) 0.37106(34) 0.80087(76)
C1 C 0.40690(41) 0.42019(61) 0.7444(13)
C3 C 0.45530(34) 0.46110(51) 0.8814(11)
O3 O 0.40956(25) 0.43978(36) 0.57919(98)
O4 O 0.31244(41) 0.25112(24) 0.82471(84)
Mn2 Mn 0.283434(96) 0.305183(68) 0.69721(18)
O5 O 0.33761(43) 0.29989(27) 0.46754(76)
O6 O 0.27201(33) 0.35422(41) 0.49137(84)
O7 O 0.22689(36) 0.30311(44) 0.91252(98)
C5 C 0.49836(17) 0.51476(25) 0.81585(67)
H2 H 0.4978(14) 0.5247(21) 0.6892(55)
C7 C 0.54497(31) 0.55565(47) 0.9330(11)
O8 O 0.58445(24) 0.60534(33) 0.84196(84)
Mn5 Mn 0.638516(68) 0.688415(68) 0.96946(18)
Mn3_2 Mn 0.02815(12) 0.644918(68) 0.36387(18)
O11_2 O 0.06133(48) 0.31244(41) 0.17529(84)
O12_2 O 0.03773(51) 0.33761(43) 0.53246(76)
O1_2 O 0.00428(43) 0.63322(27) 0.80087(76)
C1_2 C 0.01329(73) 0.59310(41) 0.7444(13)
C3_2 C 0.00580(61) 0.54470(34) 0.8814(11)
O3_2 O 0.03022(44) 0.59044(25) 0.57919(98)
Mn2_2 Mn 0.02175(12) 0.716566(96) 0.69721(18)
O6_2 O 0.08222(53) 0.72799(33) 0.49137(84)
O7_2 O 0.07623(57) 0.77311(36) 0.91252(98)
C5_2 C 0.01640(30) 0.50164(17) 0.81585(67)
H2_2 H 0.0269(25) 0.5022(14) 0.6892(55)
C7_2 C 0.01068(56) 0.45503(31) 0.9330(11)
O8_2 O 0.02089(41) 0.41555(24) 0.84196(84)
Mn5_2 Mn 0.049899(96) 0.361484(68) 0.96946(18)
Mn1_2 Mn 0.950101(96) 0.638516(68) 0.03054(18)
O2_2 O 0.97911(41) 0.58445(24) 0.15804(84)
C2_2 C 0.98932(56) 0.54497(31) 0.0670(11)
C4_2 C 0.98360(30) 0.49836(17) 0.18415(67)
H1_2 H 0.9731(25) 0.4978(14) 0.3108(55)
C6_2 C 0.99420(61) 0.45530(34) 0.1186(11)
C8_2 C 0.98671(73) 0.40690(41) 0.2556(13)
O9_2 O 0.96978(44) 0.40956(25) 0.42081(98)
O10_2 O 0.99572(43) 0.36678(27) 0.19913(76)
Mn7_2 Mn 0.97185(12) 0.355082(68) 0.63613(18)
Mn8_2 Mn 0.97825(12) 0.283434(96) 0.30279(18)
O13_2 O 0.91778(53) 0.27201(33) 0.50863(84)
O14_2 O 0.92377(57) 0.22689(36) 0.08748(98)
O4_2 O 0.93867(48) 0.68756(41) 0.82471(84)
O5_2 O 0.96227(51) 0.66239(43) 0.46754(76)
O9_3 O 0.30311(44) 0.07623(25) 0.08748(98)
Mn7_3 Mn 0.30518(12) 0.021748(68) 0.30279(18)
O12_3 O 0.37106(51) 0.00428(43) 0.19913(76)
C1_3 C 0.34662(73) 0.25977(41) 0.4111(13)
C2_3 C 0.32265(56) 0.21164(31) 0.7337(11)
C3_3 C 0.33913(61) 0.21137(34) 0.5481(11)
O3_3 O 0.36355(44) 0.25711(25) 0.24586(98)
C4_3 C 0.31693(30) 0.16503(17) 0.85082(67)
H1_3 H 0.3064(25) 0.1645(14) 0.9775(55)
O5_3 O 0.29561(51) 0.32905(43) 0.13420(76)
C5_3 C 0.34973(30) 0.16831(17) 0.48252(67)
C6_3 C 0.32753(61) 0.12197(34) 0.7853(11)
H2_3 H 0.3602(25) 0.1689(14) 0.3559(55)
C7_3 C 0.34401(56) 0.12170(31) 0.5997(11)
C8_3 C 0.32004(73) 0.07357(41) 0.9223(13)
O8_3 O 0.35422(41) 0.08222(24) 0.50863(84)
O10_3 O 0.32905(43) 0.03345(27) 0.86580(76)
Mn5_3 Mn 0.383232(96) 0.028151(68) 0.63613(18)
O13_3 O 0.25112(53) 0.93867(33) 0.17529(84)
Mn8_3 Mn 0.31159(12) 0.950101(96) 0.96946(18)
O11_3 O 0.39466(48) 0.97911(41) 0.84196(84)
O14_3 O 0.25711(57) 0.89355(36) 0.75414(98)
O4_3 O 0.60534(48) 0.02089(41) 0.15804(84)
Mn2_3 Mn 0.68841(12) 0.049899(96) 0.03054(18)
O7_3 O 0.74289(57) 0.10645(36) 0.24586(98)
O6_3 O 0.74888(53) 0.06133(33) 0.82471(84)
Mn1_3 Mn 0.616768(96) 0.971849(68) 0.36387(18)
O1_3 O 0.67095(43) 0.96655(27) 0.13420(76)
O2_3 O 0.64578(41) 0.91778(24) 0.49137(84)
C1_4 C 0.67996(73) 0.92643(41) 0.0777(13)
C2_4 C 0.65599(56) 0.87830(31) 0.4003(11)
C3_4 C 0.67247(61) 0.87803(34) 0.2147(11)
C4_4 C 0.65027(30) 0.83169(17) 0.51748(67)
H1_4 H 0.6398(25) 0.8311(14) 0.6441(55)
Mn3_3 Mn 0.69482(12) 0.978252(68) 0.69721(18)
C5_4 C 0.68307(30) 0.83497(17) 0.14918(67)
C6_4 C 0.66087(61) 0.78863(34) 0.4519(11)
H2_4 H 0.6936(25) 0.8355(14) 0.0225(55)
C7_4 C 0.67735(56) 0.78836(31) 0.2663(11)
C8_4 C 0.65338(73) 0.74023(41) 0.5889(13)
O9_4 O 0.63645(44) 0.74289(25) 0.75414(98)
O12_4 O 0.70439(51) 0.67095(43) 0.86580(76)
O3_4 O 0.69689(44) 0.92377(25) 0.91252(98)
O5_4 O 0.62894(51) 0.99572(43) 0.80087(76)
C2_5 C 0.55565(47) 0.01068(56) 0.0670(11)
C4_5 C 0.51476(25) 0.01640(30) 0.18415(67)
H1_5 H 0.5247(21) 0.0269(25) 0.3108(55)
C6_5 C 0.46110(51) 0.00580(61) 0.1186(11)
C8_5 C 0.42019(61) 0.01329(73) 0.2556(13)
O9_5 O 0.43978(36) 0.03022(44) 0.42081(98)
O5_5 O 0.70011(27) 0.03773(51) 0.46754(76)
O12_5 O 0.29989(27) 0.96227(51) 0.53246(76)
C1_5 C 0.57981(61) 0.98671(73) 0.7444(13)
C3_5 C 0.53890(51) 0.99420(61) 0.8814(11)
O3_5 O 0.56022(36) 0.96978(44) 0.57919(98)
C5_5 C 0.48524(25) 0.98360(30) 0.81585(67)
H2_5 H 0.4753(21) 0.9731(25) 0.6892(55)
C7_5 C 0.44435(47) 0.98932(56) 0.9330(11)
O5_6 O 0.03345(27) 0.70439(51) 0.13420(76)
C1_6 C 0.91314(61) 0.65338(73) 0.4111(13)
C2_6 C 0.88898(47) 0.67735(56) 0.7337(11)
C3_6 C 0.87223(51) 0.66087(61) 0.5481(11)
O3_6 O 0.89355(36) 0.63645(44) 0.24586(98)
C4_6 C 0.84809(25) 0.68307(30) 0.85082(67)
H1_6 H 0.8580(21) 0.6936(25) 0.9775(55)
C5_6 C 0.81857(25) 0.65027(30) 0.48252(67)
C6_6 C 0.79443(51) 0.67247(61) 0.7853(11)
H2_6 H 0.8086(21) 0.6398(25) 0.3559(55)
C7_6 C 0.77768(47) 0.65599(56) 0.5997(11)
C8_6 C 0.75352(61) 0.67996(73) 0.9223(13)
C1_7 C 0.24648(61) 0.32004(73) 0.0777(13)
C2_7 C 0.22232(47) 0.34401(56) 0.4003(11)
C3_7 C 0.20557(51) 0.32753(61) 0.2147(11)
C4_7 C 0.18143(25) 0.34973(30) 0.51748(67)
H1_7 H 0.1914(21) 0.3602(25) 0.6441(55)
C5_7 C 0.15191(25) 0.31693(30) 0.14918(67)
C6_7 C 0.12777(51) 0.33913(61) 0.4519(11)
H2_7 H 0.1420(21) 0.3064(25) 0.0225(55)
C7_7 C 0.11102(47) 0.32265(56) 0.2663(11)
C8_7 C 0.08686(61) 0.34662(73) 0.5889(13)
O9_6 O 0.10645(36) 0.36355(44) 0.75414(98)
O12_6 O 0.96655(27) 0.29561(51) 0.86580(76)
C1_8 C 0.74023(41) 0.08686(61) 0.4111(13)
C2_8 C 0.78836(31) 0.11102(47) 0.7337(11)
C3_8 C 0.78863(34) 0.12777(51) 0.5481(11)
C4_8 C 0.83497(17) 0.15191(25) 0.85082(67)
H1_8 H 0.8355(14) 0.1420(21) 0.9775(55)
C5_8 C 0.83169(17) 0.18143(25) 0.48252(67)
C6_8 C 0.87803(34) 0.20557(51) 0.7853(11)
H2_8 H 0.8311(14) 0.1914(21) 0.3559(55)
C7_8 C 0.87830(31) 0.22232(47) 0.5997(11)
C8_8 C 0.92643(41) 0.24648(61) 0.9223(13)
C1_9 C 0.07357(41) 0.75352(61) 0.0777(13)
C2_9 C 0.12170(31) 0.77768(47) 0.4003(11)
C3_9 C 0.12197(34) 0.79443(51) 0.2147(11)
C4_9 C 0.16831(17) 0.81857(25) 0.51748(67)
H1_9 H 0.1689(14) 0.8086(21) 0.6441(55)
C5_9 C 0.16503(17) 0.84809(25) 0.14918(67)
C6_9 C 0.21137(34) 0.87223(51) 0.4519(11)
H2_9 H 0.1645(14) 0.8580(21) 0.0225(55)
C7_9 C 0.21164(31) 0.88898(47) 0.2663(11)
C8_9 C 0.25977(41) 0.91314(61) 0.5889(13)
loop_
_geom_bond_atom_site_label_1
_geom_bond_atom_site_label_2
_geom_bond_site_symmetry_1
_geom_bond_site_symmetry_2
O2 Mn1 1_555 1_555
C2 O2 1_555 1_555
C4 C2 1_555 1_555
H1 C4 1_555 1_555
Mn3 O2 1_555 1_555
C6 C4 1_555 1_555
C8 C6 1_555 1_555
O9 C8 1_555 1_555
O10 C8 1_555 1_555
Mn7 O9 1_555 1_555
Mn8 O10 1_555 1_555
O12 Mn7 1_555 1_555
O13 Mn7 1_555 1_555
O14 Mn8 1_555 1_555
Mn8 O11 1_555 1_555
Mn8 O12 1_555 1_555
Mn8 O13 1_555 1_555
O1 C1 1_555 1_555
C1 C3 1_555 1_555
O3 C1 1_555 1_555
Mn2 O1 1_555 1_555
O5 Mn2 1_555 1_555
O6 Mn2 1_555 1_555
O7 Mn2 1_555 1_555
C5 C3 1_555 1_555
Mn3 O3 1_555 1_555
H2 C5 1_555 1_555
C7 C5 1_555 1_555
O8 C7 1_555 1_555
Mn5 O8 1_555 1_555
Mn7 O8 1_555 1_555
O4 Mn2 1_555 1_555
O5 Mn3 1_555 1_555
O6 Mn3 1_555 1_555
O1_2 C1_2 1_555 1_555
C1_2 C3_2 1_555 1_555
O3_2 C1_2 1_555 1_555
Mn2_2 O1_2 1_555 1_555
O6_2 Mn2_2 1_555 1_555
O7_2 Mn2_2 1_555 1_555
C5_2 C3_2 1_555 1_555
Mn3_2 O3_2 1_555 1_555
H2_2 C5_2 1_555 1_555
C7_2 C5_2 1_555 1_555
O8_2 C7_2 1_555 1_555
Mn5_2 O8_2 1_555 1_555
O6_2 Mn3_2 1_555 1_555
O2_2 Mn1_2 1_555 1_555
C2_2 O2_2 1_555 1_555
C4_2 C2_2 1_555 1_555
H1_2 C4_2 1_555 1_555
C6_2 C4_2 1_555 1_555
C8_2 C6_2 1_555 1_555
O9_2 C8_2 1_555 1_555
O10_2 C8_2 1_555 1_555
Mn7_2 O9_2 1_555 1_555
Mn8_2 O10_2 1_555 1_555
O13_2 Mn7_2 1_555 1_555
O14_2 Mn8_2 1_555 1_555
Mn8_2 O13_2 1_555 1_555
Mn7_3 O9_3 1_555 1_555
O12_3 Mn7_3 1_555 1_555
O5 C1_3 1_555 1_555
C1_3 C3_3 1_555 1_555
C2_3 O4 1_555 1_555
C3_3 C2_3 1_555 1_555
O3_3 C1_3 1_555 1_555
C4_3 C2_3 1_555 1_555
H1_3 C4_3 1_555 1_555
O5_3 Mn3 1_555 1_555
C5_3 C3_3 1_555 1_555
Mn1 O3_3 1_555 1_555
C6_3 C4_3 1_555 1_555
H2_3 C5_3 1_555 1_555
C7_3 C5_3 1_555 1_555
C8_3 C6_3 1_555 1_555
O8_3 C7_3 1_555 1_555
O10_3 C8_3 1_555 1_555
Mn5_3 O8_3 1_555 1_555
Mn7_3 O8_3 1_555 1_555
O5_3 Mn1 1_555 1_555
C6_3 C7_3 1_555 1_555
O10_3 Mn5_3 1_555 1_555
O14_3 Mn8_3 1_555 1_555
Mn8_3 O11_3 1_555 1_555
O7_3 Mn2_3 1_555 1_555
O4_3 Mn2_3 1_555 1_555
Mn1_3 O1_3 1_555 1_555
O1_3 C1_4 1_555 1_555
O2_3 Mn1_3 1_555 1_555
C1_4 C3_4 1_555 1_555
C2_4 O2_3 1_555 1_555
C3_4 C2_4 1_555 1_555
C4_4 C2_4 1_555 1_555
H1_4 C4_4 1_555 1_555
Mn3_3 O2_3 1_555 1_555
C5_4 C3_4 1_555 1_555
C6_4 C4_4 1_555 1_555
H2_4 C5_4 1_555 1_555
C7_4 C5_4 1_555 1_555
C8_4 C6_4 1_555 1_555
O11 C7_4 1_555 1_555
O9_4 C8_4 1_555 1_555
O12 C8_4 1_555 1_555
Mn5 O9_4 1_555 1_555
O12_4 Mn5 1_555 1_555
C6_4 C7_4 1_555 1_555
Mn7 O12_4 1_555 1_555
Mn3_3 O3_4 1_555 1_555
O5_4 Mn3_3 1_555 1_555
C2_5 O4_3 1_555 1_555
C4_5 C2_5 1_555 1_555
H1_5 C4_5 1_555 1_555
C6_5 C4_5 1_555 1_555
C8_5 C6_5 1_555 1_555
O9_5 C8_5 1_555 1_555
O12_3 C8_5 1_555 1_555
Mn5_3 O9_5 1_555 1_555
O5_4 C1_5 1_555 1_555
C1_5 C3_5 1_555 1_555
O3_5 C1_5 1_555 1_555
C5_5 C3_5 1_555 1_555
Mn1_3 O3_5 1_555 1_555
H2_5 C5_5 1_555 1_555
C7_5 C5_5 1_555 1_555
O11_3 C7_5 1_555 1_555
O5_6 Mn3_2 1_555 1_555
O5_2 C1_6 1_555 1_555
C1_6 C3_6 1_555 1_555
C2_6 O4_2 1_555 1_555
C3_6 C2_6 1_555 1_555
O3_6 C1_6 1_555 1_555
C4_6 C2_6 1_555 1_555
H1_6 C4_6 1_555 1_555
C5_6 C3_6 1_555 1_555
Mn1_2 O3_6 1_555 1_555
C6_6 C4_6 1_555 1_555
H2_6 C5_6 1_555 1_555
C7_6 C5_6 1_555 1_555
C8_6 C6_6 1_555 1_555
O13 C7_6 1_555 1_555
O12_4 C8_6 1_555 1_555
C6_6 C7_6 1_555 1_555
O5_3 C1_7 1_555 1_555
C1_7 C3_7 1_555 1_555
C2_7 O6 1_555 1_555
C3_7 C2_7 1_555 1_555
C4_7 C2_7 1_555 1_555
H1_7 C4_7 1_555 1_555
C5_7 C3_7 1_555 1_555
C6_7 C4_7 1_555 1_555
H2_7 C5_7 1_555 1_555
C7_7 C5_7 1_555 1_555
C8_7 C6_7 1_555 1_555
O11_2 C7_7 1_555 1_555
O9_6 C8_7 1_555 1_555
O12_2 C8_7 1_555 1_555
Mn5_2 O9_6 1_555 1_555
C6_7 C7_7 1_555 1_555
Mn7_2 O12_6 1_555 1_555
O5_5 C1_8 1_555 1_555
C1_8 C3_8 1_555 1_555
C2_8 O6_3 1_555 1_555
C3_8 C2_8 1_555 1_555
O7_3 C1_8 1_555 1_555
C4_8 C2_8 1_555 1_555
H1_8 C4_8 1_555 1_555
C5_8 C3_8 1_555 1_555
C6_8 C4_8 1_555 1_555
H2_8 C5_8 1_555 1_555
C7_8 C5_8 1_555 1_555
C8_8 C6_8 1_555 1_555
O13_2 C7_8 1_555 1_555
O12_6 C8_8 1_555 1_555
C6_8 C7_8 1_555 1_555
O5_6 C1_9 1_555 1_555
C1_9 C3_9 1_555 1_555
C2_9 O6_2 1_555 1_555
C3_9 C2_9 1_555 1_555
C4_9 C2_9 1_555 1_555
H1_9 C4_9 1_555 1_555
C5_9 C3_9 1_555 1_555
C6_9 C4_9 1_555 1_555
H2_9 C5_9 1_555 1_555
C7_9 C5_9 1_555 1_555
C8_9 C6_9 1_555 1_555
O13_3 C7_9 1_555 1_555
O14_3 C8_9 1_555 1_555
O12_5 C8_9 1_555 1_555
C6_9 C7_9 1_555 1_555

#END
