
###############################################################################
#
# This file contains modified crystal structure data generated from the
# MOF subset of the Cambridge Structural Database (CSD) v543 
# hosted by the Cambridge Crystallographic Data Centre (CCDC).
#
# This work is licensed under the Creative Commons
# Attribution-NonCommercial-ShareAlike 4.0 International License.
# To view a copy of this license, visit
# http://creativecommons.org/licenses/by-nc-sa/4.0/
# or send a letter to
# Creative Commons, PO Box 1866, Mountain View, CA 94042, USA.
#
# CIF created using the CSD Python API on 29 September 2022
# The structure has been converted into the P1 space group
# The structure has a 3D framework
# The original CSD entry COKNIB is in the rhombohedral crystal system
# The framework has been calculated to contain at least 10.0% void space
# The void calculation uses a probe of radius 1.32A, grid spacing 0.4
# The framework is charged, counterions have been retained in the structure
#
###############################################################################

data_COKNIB
_chemical_formula_moiety         '(C72 H18 Cu8 O52 18-)n'
_symmetry_cell_setting           triclinic
_symmetry_space_group_name_H-M   'P 1'
_symmetry_Int_Tables_number      1
_space_group_name_Hall           'P 1'
loop_
_symmetry_equiv_pos_site_id
_symmetry_equiv_pos_as_xyz
1 x,y,z
_cell_length_a                   25.8733(7)
_cell_length_b                   25.8733
_cell_length_c                   6.25768(20)
_cell_angle_alpha                90
_cell_angle_beta                 90
_cell_angle_gamma                120
_cell_volume                     3627.84
loop_
_atom_site_label
_atom_site_type_symbol
_atom_site_fract_x
_atom_site_fract_y
_atom_site_fract_z
_atom_site_U_iso_or_equiv
_atom_site_thermal_displace_type
Cu1 Cu 0.38634(20) 0.34840(21) 0.1754(8) 0.0001 Uiso
O1 O 0.35510(34) 0.30258(28) 0.4374(11) 0.0116 Uiso
O2 O 0.29202(33) 0.22434(31) 0.6278(11) 0.0116 Uiso
O3 O 0.35912(34) 0.27591(29) 0.0047(11) 0.0116 Uiso
C1 C 0.32357(28) 0.24801(26) 0.4654(10) 0.0106 Uiso
C2 C 0.32674(27) 0.20637(26) 0.3030(10) 0.0106 Uiso
C3 C 0.34801(30) 0.22354(27) 0.0931(11) 0.0106 Uiso
O6 O 0.30755(34) 0.05742(29) 0.3286(11) 0.0116 Uiso
C6 C 0.33993(27) 0.12696(26) 0.0303(10) 0.0106 Uiso
C7 C 0.31866(30) 0.10979(27) 0.2402(11) 0.0106 Uiso
C8 C 0.31222(25) 0.14936(31) 0.3737(10) 0.0106 Uiso
H2 H 0.2980(5) 0.1370(5) 0.5376(16) 0.0208 Uiso
Cu3 Cu 0.31827(21) 0.37127(29) 0.5087(8) 0.0001 Uiso
Cu5 Cu 0.29539(29) 0.28033(20) 0.8421(8) 0.0001 Uiso
Cu8 Cu 0.37127(29) 0.05301(20) 0.4913(8) 0.0001 Uiso
O7 O 0.28081(44) 0.31157(34) 0.1041(11) 0.0116 Uiso
O11 O 0.39076(29) 0.41654(45) 0.3380(11) 0.0116 Uiso
C4 C 0.35445(25) 0.18397(31) 0.9596(10) 0.0106 Uiso
H1 H 0.3687(5) 0.1963(5) 0.7957(16) 0.0208 Uiso
O4 O 0.31157(34) 0.03075(28) 0.8959(11) 0.0116 Uiso
O5 O 0.37465(33) 0.10899(31) 0.7055(11) 0.0116 Uiso
C5 C 0.34310(28) 0.08532(26) 0.8679(10) 0.0106 Uiso
O9 O 0.44233(31) 0.40101(45) 0.9611(11) 0.0116 Uiso
O13 O 0.41654(45) 0.02579(34) 0.6620(11) 0.0116 Uiso
Cu6 Cu 0.28033(20) 0.98493(21) 0.1579(8) 0.0001 Uiso
O10 O 0.40101(45) 0.95869(33) 0.0389(11) 0.0116 Uiso
Cu2 Cu 0.34840(21) 0.96206(29) 0.8246(8) 0.0001 Uiso
O8 O 0.30258(28) 0.94748(44) 0.5626(11) 0.0116 Uiso
O12 O 0.27591(29) 0.91679(45) 0.9953(11) 0.0116 Uiso
Cu6_2 Cu 0.01507(21) 0.29539(29) 0.1579(8) 0.0001 Uiso
O10_2 O 0.04131(33) 0.44233(56) 0.0389(11) 0.0116 Uiso
Cu2_2 Cu 0.03794(29) 0.38634(36) 0.8246(8) 0.0001 Uiso
O8_2 O 0.05252(44) 0.35510(52) 0.5626(11) 0.0116 Uiso
O12_2 O 0.08321(45) 0.35912(54) 0.9953(11) 0.0116 Uiso
Cu1_2 Cu 0.65160(21) 0.03794(29) 0.1754(8) 0.0001 Uiso
O1_2 O 0.69742(28) 0.05252(44) 0.4374(11) 0.0116 Uiso
O2_2 O 0.77566(31) 0.06768(45) 0.6278(11) 0.0116 Uiso
O3_2 O 0.72409(29) 0.08321(45) 0.0047(11) 0.0116 Uiso
C1_2 C 0.75199(26) 0.07556(38) 0.4654(10) 0.0106 Uiso
C2_2 C 0.79363(26) 0.12037(37) 0.3030(10) 0.0106 Uiso
C3_2 C 0.77646(27) 0.12447(40) 0.0931(11) 0.0106 Uiso
O6_2 O 0.94258(29) 0.25012(45) 0.3286(11) 0.0116 Uiso
C6_2 C 0.87304(26) 0.21296(37) 0.0303(10) 0.0106 Uiso
C7_2 C 0.89021(27) 0.20886(40) 0.2402(11) 0.0106 Uiso
C8_2 C 0.85064(31) 0.16285(40) 0.3737(10) 0.0106 Uiso
H2_2 H 0.8630(5) 0.1609(7) 0.5376(16) 0.0208 Uiso
Cu5_2 Cu 0.71967(20) 0.01507(35) 0.8421(8) 0.0001 Uiso
Cu8_2 Cu 0.94699(20) 0.31827(35) 0.4913(8) 0.0001 Uiso
C4_2 C 0.81603(31) 0.17048(40) 0.9596(10) 0.0106 Uiso
H1_2 H 0.8037(5) 0.1724(7) 0.7957(16) 0.0208 Uiso
O4_2 O 0.96925(28) 0.28081(44) 0.8959(11) 0.0116 Uiso
O5_2 O 0.89101(31) 0.26565(45) 0.7055(11) 0.0116 Uiso
C5_2 C 0.91468(26) 0.25777(38) 0.8679(10) 0.0106 Uiso
O9_2 O 0.59899(45) 0.04131(55) 0.9611(11) 0.0116 Uiso
O13_2 O 0.97421(34) 0.39076(56) 0.6620(11) 0.0116 Uiso
Cu3_2 Cu 0.62873(29) 0.94699(36) 0.5087(8) 0.0001 Uiso
O7_2 O 0.68843(34) 0.96925(56) 0.1041(11) 0.0116 Uiso
O11_2 O 0.58346(45) 0.97421(54) 0.3380(11) 0.0116 Uiso
Cu3_3 Cu 0.05301(36) 0.68173(21) 0.5087(8) 0.0001 Uiso
O7_3 O 0.03075(56) 0.71919(44) 0.1041(11) 0.0116 Uiso
O11_3 O 0.02579(54) 0.60924(29) 0.3380(11) 0.0116 Uiso
Cu1_3 Cu 0.96206(29) 0.61366(20) 0.1754(8) 0.0001 Uiso
O1_3 O 0.94748(44) 0.64490(34) 0.4374(11) 0.0116 Uiso
O2_3 O 0.93232(45) 0.70798(33) 0.6278(11) 0.0116 Uiso
O3_3 O 0.91679(45) 0.64088(34) 0.0047(11) 0.0116 Uiso
C1_3 C 0.92444(38) 0.67643(28) 0.4654(10) 0.0106 Uiso
C2_3 C 0.87963(37) 0.67326(27) 0.3030(10) 0.0106 Uiso
C3_3 C 0.87553(40) 0.65199(30) 0.0931(11) 0.0106 Uiso
O6_3 O 0.74988(45) 0.69245(34) 0.3286(11) 0.0116 Uiso
C6_3 C 0.78704(37) 0.66007(27) 0.0303(10) 0.0106 Uiso
C7_3 C 0.79114(40) 0.68134(30) 0.2402(11) 0.0106 Uiso
C8_3 C 0.83715(40) 0.68778(25) 0.3737(10) 0.0106 Uiso
H2_3 H 0.8391(7) 0.7020(5) 0.5376(16) 0.0208 Uiso
Cu5_3 Cu 0.98493(35) 0.70461(29) 0.8421(8) 0.0001 Uiso
Cu6_3 Cu 0.70461(29) 0.71967(20) 0.1579(8) 0.0001 Uiso
Cu8_3 Cu 0.68173(35) 0.62873(29) 0.4913(8) 0.0001 Uiso
O10_3 O 0.55767(56) 0.59899(45) 0.0389(11) 0.0116 Uiso
C4_3 C 0.82952(40) 0.64555(25) 0.9596(10) 0.0106 Uiso
H1_3 H 0.8276(7) 0.6313(5) 0.7957(16) 0.0208 Uiso
O4_3 O 0.71919(44) 0.68843(34) 0.8959(11) 0.0116 Uiso
O5_3 O 0.73435(45) 0.62535(33) 0.7055(11) 0.0116 Uiso
C5_3 C 0.74223(38) 0.65690(28) 0.8679(10) 0.0106 Uiso
Cu2_3 Cu 0.61366(36) 0.65160(21) 0.8246(8) 0.0001 Uiso
O8_3 O 0.64490(52) 0.69742(28) 0.5626(11) 0.0116 Uiso
O9_3 O 0.95869(55) 0.55767(31) 0.9611(11) 0.0116 Uiso
O12_3 O 0.64088(54) 0.72409(29) 0.9953(11) 0.0116 Uiso
O13_3 O 0.60924(56) 0.58346(45) 0.6620(11) 0.0116 Uiso
O1_4 O 0.02177(34) 0.63591(28) 0.7707(11) 0.0116 Uiso
C3_4 C 0.01468(30) 0.55687(27) 0.4264(11) 0.0106 Uiso
C4_4 C 0.02112(25) 0.51730(31) 0.2929(10) 0.0106 Uiso
H1_4 H 0.0354(5) 0.5296(5) 0.1290(16) 0.0208 Uiso
C5_4 C 0.00976(28) 0.41866(26) 0.2013(10) 0.0106 Uiso
C6_4 C 0.00659(27) 0.46030(26) 0.3637(10) 0.0106 Uiso
O9_4 O 0.10899(31) 0.73435(45) 0.2945(11) 0.0116 Uiso
O10_4 O 0.06768(45) 0.29202(33) 0.3722(11) 0.0116 Uiso
O11_4 O 0.05742(29) 0.74988(45) 0.6714(11) 0.0116 Uiso
C1_4 C 0.99024(28) 0.58134(26) 0.7987(10) 0.0106 Uiso
C2_4 C 0.99341(27) 0.53970(26) 0.6363(10) 0.0106 Uiso
O4_4 O 0.97823(34) 0.36409(28) 0.2293(11) 0.0116 Uiso
C7_4 C 0.98532(30) 0.44313(27) 0.5736(11) 0.0106 Uiso
C8_4 C 0.97888(25) 0.48270(31) 0.7071(10) 0.0106 Uiso
H2_4 H 0.9646(5) 0.4704(5) 0.8710(16) 0.0208 Uiso
O1_5 O 0.36409(28) 0.38585(44) 0.7707(11) 0.0116 Uiso
C1_5 C 0.41866(26) 0.40889(38) 0.7987(10) 0.0106 Uiso
C2_5 C 0.46030(26) 0.45370(37) 0.6363(10) 0.0106 Uiso
C3_5 C 0.44313(27) 0.45780(40) 0.4264(11) 0.0106 Uiso
C4_5 C 0.48270(31) 0.50381(40) 0.2929(10) 0.0106 Uiso
H1_5 H 0.4704(5) 0.5057(7) 0.1290(16) 0.0208 Uiso
O4_5 O 0.63591(28) 0.61415(44) 0.2293(11) 0.0116 Uiso
C5_5 C 0.58134(26) 0.59111(38) 0.2013(10) 0.0106 Uiso
C6_5 C 0.53970(26) 0.54630(37) 0.3637(10) 0.0106 Uiso
C7_5 C 0.55687(27) 0.54220(40) 0.5736(11) 0.0106 Uiso
C8_5 C 0.51730(31) 0.49619(40) 0.7071(10) 0.0106 Uiso
H2_5 H 0.5296(5) 0.4943(7) 0.8710(16) 0.0208 Uiso
O9_5 O 0.26565(45) 0.37465(55) 0.2945(11) 0.0116 Uiso
O10_5 O 0.70798(33) 0.77566(56) 0.3722(11) 0.0116 Uiso
O11_5 O 0.25012(45) 0.30755(54) 0.6714(11) 0.0116 Uiso
C1_6 C 0.59111(38) 0.00976(28) 0.7987(10) 0.0106 Uiso
C2_6 C 0.54630(37) 0.00659(27) 0.6363(10) 0.0106 Uiso
O4_6 O 0.38585(44) 0.02177(34) 0.2293(11) 0.0116 Uiso
C7_6 C 0.45780(40) 0.01468(30) 0.5736(11) 0.0106 Uiso
C8_6 C 0.50381(40) 0.02112(25) 0.7071(10) 0.0106 Uiso
H2_6 H 0.5057(7) 0.0354(5) 0.8710(16) 0.0208 Uiso
O1_6 O 0.61415(44) 0.97823(34) 0.7707(11) 0.0116 Uiso
C3_6 C 0.54220(40) 0.98532(30) 0.4264(11) 0.0106 Uiso
C4_6 C 0.49619(40) 0.97888(25) 0.2929(10) 0.0106 Uiso
H1_6 H 0.4943(7) 0.9646(5) 0.1290(16) 0.0208 Uiso
C5_6 C 0.40889(38) 0.99024(28) 0.2013(10) 0.0106 Uiso
C6_6 C 0.45370(37) 0.99341(27) 0.3637(10) 0.0106 Uiso
O9_6 O 0.62535(55) 0.89101(31) 0.2945(11) 0.0116 Uiso
O10_6 O 0.22434(56) 0.93232(45) 0.3722(11) 0.0116 Uiso
O11_6 O 0.69245(54) 0.94258(29) 0.6714(11) 0.0116 Uiso
C1_7 C 0.65690(28) 0.91468(26) 0.1321(10) 0.0106 Uiso
C8_7 C 0.64555(25) 0.81603(31) 0.0404(10) 0.0106 Uiso
H2_7 H 0.6313(5) 0.8037(5) 0.2043(16) 0.0208 Uiso
C2_7 C 0.66007(27) 0.87304(26) 0.9697(10) 0.0106 Uiso
C3_7 C 0.68134(30) 0.89021(27) 0.7598(11) 0.0106 Uiso
C4_7 C 0.68778(25) 0.85064(31) 0.6263(10) 0.0106 Uiso
H1_7 H 0.7020(5) 0.8630(5) 0.4624(16) 0.0208 Uiso
C5_7 C 0.67643(28) 0.75199(26) 0.5346(10) 0.0106 Uiso
C6_7 C 0.67326(27) 0.79363(26) 0.6970(10) 0.0106 Uiso
C7_7 C 0.65199(30) 0.77646(27) 0.9069(11) 0.0106 Uiso
C1_8 C 0.08532(26) 0.74223(38) 0.1321(10) 0.0106 Uiso
C8_8 C 0.18397(31) 0.82952(40) 0.0404(10) 0.0106 Uiso
H2_8 H 0.1963(5) 0.8276(7) 0.2043(16) 0.0208 Uiso
C2_8 C 0.12696(26) 0.78704(37) 0.9697(10) 0.0106 Uiso
C3_8 C 0.10979(27) 0.79114(40) 0.7598(11) 0.0106 Uiso
C4_8 C 0.14936(31) 0.83715(40) 0.6263(10) 0.0106 Uiso
H1_8 H 0.1370(5) 0.8391(7) 0.4624(16) 0.0208 Uiso
C5_8 C 0.24801(26) 0.92444(38) 0.5346(10) 0.0106 Uiso
C6_8 C 0.20637(26) 0.87963(37) 0.6970(10) 0.0106 Uiso
C7_8 C 0.22354(27) 0.87553(40) 0.9069(11) 0.0106 Uiso
C1_9 C 0.25777(38) 0.34310(28) 0.1321(10) 0.0106 Uiso
C8_9 C 0.17048(40) 0.35445(25) 0.0404(10) 0.0106 Uiso
H2_9 H 0.1724(7) 0.3687(5) 0.2043(16) 0.0208 Uiso
C2_9 C 0.21296(37) 0.33993(27) 0.9697(10) 0.0106 Uiso
C3_9 C 0.20886(40) 0.31866(30) 0.7598(11) 0.0106 Uiso
C4_9 C 0.16285(40) 0.31222(25) 0.6263(10) 0.0106 Uiso
H1_9 H 0.1609(7) 0.2980(5) 0.4624(16) 0.0208 Uiso
C5_9 C 0.07556(38) 0.32357(28) 0.5346(10) 0.0106 Uiso
C6_9 C 0.12037(37) 0.32674(27) 0.6970(10) 0.0106 Uiso
C7_9 C 0.12447(40) 0.34801(30) 0.9069(11) 0.0106 Uiso
loop_
_geom_bond_atom_site_label_1
_geom_bond_atom_site_label_2
_geom_bond_site_symmetry_1
_geom_bond_site_symmetry_2
Cu1 O1 1_555 1_555
O1 C1 1_555 1_555
O2 C1 1_555 1_555
O3 Cu1 1_555 1_555
C1 C2 1_555 1_555
C2 C3 1_555 1_555
C3 O3 1_555 1_555
O6 C7 1_555 1_555
C7 C6 1_555 1_555
C8 C2 1_555 1_555
H2 C8 1_555 1_555
Cu3 O1 1_555 1_555
Cu5 O2 1_555 1_555
Cu8 O6 1_555 1_555
O7 Cu1 1_555 1_555
O11 Cu1 1_555 1_555
C7 C8 1_555 1_555
Cu3 O11 1_555 1_555
H1 C4 1_555 1_555
O4 C5 1_555 1_555
O5 C5 1_555 1_555
Cu8 O5 1_555 1_555
Cu8 O13 1_555 1_555
O8 Cu2 1_555 1_555
O12 Cu2 1_555 1_555
O8_2 Cu2_2 1_555 1_555
O12_2 Cu2_2 1_555 1_555
Cu1_2 O1_2 1_555 1_555
O1_2 C1_2 1_555 1_555
O2_2 C1_2 1_555 1_555
O3_2 Cu1_2 1_555 1_555
C1_2 C2_2 1_555 1_555
C2_2 C3_2 1_555 1_555
C3_2 O3_2 1_555 1_555
O6_2 C7_2 1_555 1_555
C7_2 C6_2 1_555 1_555
C8_2 C2_2 1_555 1_555
H2_2 C8_2 1_555 1_555
Cu5_2 O2_2 1_555 1_555
Cu8_2 O6_2 1_555 1_555
C7_2 C8_2 1_555 1_555
H1_2 C4_2 1_555 1_555
O4_2 C5_2 1_555 1_555
O5_2 C5_2 1_555 1_555
Cu8_2 O5_2 1_555 1_555
Cu8_2 O13_2 1_555 1_555
Cu3_2 O11_2 1_555 1_555
Cu3_3 O11_3 1_555 1_555
Cu1_3 O1_3 1_555 1_555
O1_3 C1_3 1_555 1_555
O2_3 C1_3 1_555 1_555
O3_3 Cu1_3 1_555 1_555
C1_3 C2_3 1_555 1_555
C2_3 C3_3 1_555 1_555
C3_3 O3_3 1_555 1_555
O6_3 C7_3 1_555 1_555
C7_3 C6_3 1_555 1_555
C8_3 C2_3 1_555 1_555
H2_3 C8_3 1_555 1_555
Cu5_3 O2_3 1_555 1_555
Cu8_3 O6_3 1_555 1_555
O6_3 Cu6_3 1_555 1_555
C7_3 C8_3 1_555 1_555
H1_3 C4_3 1_555 1_555
O4_3 C5_3 1_555 1_555
O5_3 C5_3 1_555 1_555
Cu2_3 O4_3 1_555 1_555
Cu8_3 O5_3 1_555 1_555
O8_3 Cu2_3 1_555 1_555
O12_3 Cu2_3 1_555 1_555
O13_3 Cu2_3 1_555 1_555
Cu8_3 O8_3 1_555 1_555
Cu8_3 O13_3 1_555 1_555
Cu3_3 O1_4 1_555 1_555
C3_4 O11_3 1_555 1_555
C4_4 C3_4 1_555 1_555
H1_4 C4_4 1_555 1_555
O10_2 C5_4 1_555 1_555
C5_4 C6_4 1_555 1_555
C6_4 C4_4 1_555 1_555
O9_4 Cu3_3 1_555 1_555
O10_4 Cu6_2 1_555 1_555
O11_4 Cu3_3 1_555 1_555
O9_3 C1_4 1_555 1_555
C1_4 C2_4 1_555 1_555
O13_2 C7_4 1_555 1_555
C8_4 C2_4 1_555 1_555
H2_4 C8_4 1_555 1_555
Cu8_2 O4_4 1_555 1_555
C7_4 C8_4 1_555 1_555
Cu3 O1_5 1_555 1_555
O1_5 C1_5 1_555 1_555
O9 C1_5 1_555 1_555
C1_5 C2_5 1_555 1_555
C2_5 C3_5 1_555 1_555
C3_5 O11 1_555 1_555
C4_5 C3_5 1_555 1_555
H1_5 C4_5 1_555 1_555
O4_5 C5_5 1_555 1_555
O10_3 C5_5 1_555 1_555
O13_3 C7_5 1_555 1_555
C5_5 C6_5 1_555 1_555
C6_5 C4_5 1_555 1_555
C7_5 C6_5 1_555 1_555
C8_5 C2_5 1_555 1_555
H2_5 C8_5 1_555 1_555
Cu6_3 O4_5 1_555 1_555
Cu5 O1_5 1_555 1_555
Cu8_3 O4_5 1_555 1_555
O9_5 Cu3 1_555 1_555
O10_5 Cu6_3 1_555 1_555
O11_5 Cu3 1_555 1_555
C7_5 C8_5 1_555 1_555
Cu5 O11_5 1_555 1_555
O9_2 C1_6 1_555 1_555
C1_6 C2_6 1_555 1_555
O13 C7_6 1_555 1_555
C8_6 C2_6 1_555 1_555
H2_6 C8_6 1_555 1_555
Cu8 O4_6 1_555 1_555
C7_6 C8_6 1_555 1_555
Cu3_2 O1_6 1_555 1_555
C3_6 O11_2 1_555 1_555
C4_6 C3_6 1_555 1_555
H1_6 C4_6 1_555 1_555
O10 C5_6 1_555 1_555
C5_6 C6_6 1_555 1_555
C6_6 C4_6 1_555 1_555
O9_6 Cu3_2 1_555 1_555
O10_6 Cu6 1_555 1_555
O11_6 Cu3_2 1_555 1_555
O7_2 C1_7 1_555 1_555
O9_6 C1_7 1_555 1_555
H2_7 C8_7 1_555 1_555
C2_7 C3_7 1_555 1_555
C3_7 O11_6 1_555 1_555
C4_7 C3_7 1_555 1_555
H1_7 C4_7 1_555 1_555
O8_3 C5_7 1_555 1_555
O10_5 C5_7 1_555 1_555
O12_3 C7_7 1_555 1_555
C5_7 C6_7 1_555 1_555
C6_7 C4_7 1_555 1_555
C7_7 C6_7 1_555 1_555
O7_3 C1_8 1_555 1_555
O9_4 C1_8 1_555 1_555
H2_8 C8_8 1_555 1_555
C2_8 C3_8 1_555 1_555
C3_8 O11_4 1_555 1_555
C4_8 C3_8 1_555 1_555
H1_8 C4_8 1_555 1_555
O8 C5_8 1_555 1_555
O10_6 C5_8 1_555 1_555
O12 C7_8 1_555 1_555
C5_8 C6_8 1_555 1_555
C6_8 C4_8 1_555 1_555
C7_8 C6_8 1_555 1_555
O7 C1_9 1_555 1_555
O9_5 C1_9 1_555 1_555
H2_9 C8_9 1_555 1_555
C2_9 C3_9 1_555 1_555
C3_9 O11_5 1_555 1_555
C4_9 C3_9 1_555 1_555
H1_9 C4_9 1_555 1_555
O8_2 C5_9 1_555 1_555
O10_4 C5_9 1_555 1_555
O12_2 C7_9 1_555 1_555
C5_9 C6_9 1_555 1_555
C6_9 C4_9 1_555 1_555
C7_9 C6_9 1_555 1_555

#END
