
###############################################################################
#
# This file contains modified crystal structure data generated from the
# MOF subset of the Cambridge Structural Database (CSD) v543 
# hosted by the Cambridge Crystallographic Data Centre (CCDC).
#
# This work is licensed under the Creative Commons
# Attribution-NonCommercial-ShareAlike 4.0 International License.
# To view a copy of this license, visit
# http://creativecommons.org/licenses/by-nc-sa/4.0/
# or send a letter to
# Creative Commons, PO Box 1866, Mountain View, CA 94042, USA.
#
# CIF created using the CSD Python API on 29 September 2022
# The structure has been converted into the P1 space group
# The structure has a 3D framework
# The original CSD entry COKNUN02 is in the rhombohedral crystal system
# The framework has been calculated to contain at least 10.0% void space
# The void calculation uses a probe of radius 1.32A, grid spacing 0.4
#
###############################################################################

data_COKNUN02
_chemical_formula_moiety         '(C72 H18 Mn10 O48)n'
_symmetry_cell_setting           triclinic
_symmetry_space_group_name_H-M   'P 1'
_symmetry_Int_Tables_number      1
_space_group_name_Hall           'P 1'
loop_
_symmetry_equiv_pos_site_id
_symmetry_equiv_pos_as_xyz
1 x,y,z
_cell_length_a                   26.2950(8)
_cell_length_b                   26.2950(8)
_cell_length_c                   7.0514(3)
_cell_angle_alpha                90
_cell_angle_beta                 90
_cell_angle_gamma                120
_cell_volume                     4222.33
loop_
_atom_site_label
_atom_site_type_symbol
_atom_site_fract_x
_atom_site_fract_y
_atom_site_fract_z
Mn4 Mn 0.0226(15) 0.6437(21) 0.352(4)
O9 O 0.0318(7) 0.7025(11) 0.122(3)
O11 O 0.0609(12) 0.3116(9) 0.183(4)
C1 C 0.0156(9) 0.5931(11) 0.761(3)
C2 C 0.0062(9) 0.5450(19) 0.883(7)
O1 O 0.0286(10) 0.5916(13) 0.585(3)
O2 O 0.0041(9) 0.6349(7) 0.789(3)
C7 C 0.0116(9) 0.4558(14) 0.923(8)
C8 C 0.0161(7) 0.5023(20) 0.808(2)
H2 H 0.02743 0.50250 0.66276
O6 O 0.0217(9) 0.4159(8) 0.850(4)
Mn2 Mn 0.0455(14) 0.3559(15) 0.981(4)
Mn6 Mn 0.0229(21) 0.7122(14) 0.686(4)
O7 O 0.1037(16) 0.3619(10) 0.748(3)
Mn1 Mn 0.9545(14) 0.6441(15) 0.019(4)
C3 C 0.9884(9) 0.5442(14) 0.077(8)
C4 C 0.9839(7) 0.4977(20) 0.192(2)
H1 H 0.97257 0.49750 0.33724
O3 O 0.9783(9) 0.5841(8) 0.150(4)
C5 C 0.9844(9) 0.4069(11) 0.239(3)
C6 C 0.9938(9) 0.4550(19) 0.117(7)
O4 O 0.9714(10) 0.4084(13) 0.415(3)
O5 O 0.9959(9) 0.3651(7) 0.211(3)
Mn5 Mn 0.9771(21) 0.2878(14) 0.314(4)
Mn8 Mn 0.9774(15) 0.3563(21) 0.648(4)
O8 O 0.8963(16) 0.6381(10) 0.252(3)
O10 O 0.9682(7) 0.2975(11) 0.878(3)
O12 O 0.9391(12) 0.6884(9) 0.817(4)
Mn1_2 Mn 0.3559(15) 0.3104(21) 0.019(4)
C3_2 C 0.4558(14) 0.4442(17) 0.077(8)
C4_2 C 0.5023(20) 0.4862(21) 0.192(2)
H1_2 H 0.50250 0.47507 0.33724
O3_2 O 0.4159(8) 0.3942(12) 0.150(4)
C5_2 C 0.5931(11) 0.5775(14) 0.239(3)
C6_2 C 0.5450(19) 0.5388(21) 0.117(7)
O4_2 O 0.5916(13) 0.5630(16) 0.415(3)
O5_2 O 0.6349(7) 0.6308(11) 0.211(3)
Mn4_2 Mn 0.3563(21) 0.3788(26) 0.352(4)
Mn5_2 Mn 0.7122(14) 0.6892(25) 0.314(4)
Mn8_2 Mn 0.6437(21) 0.6212(26) 0.648(4)
O8_2 O 0.3619(10) 0.2583(19) 0.252(3)
O9_2 O 0.2975(11) 0.3292(13) 0.122(3)
O11_2 O 0.6884(9) 0.7492(15) 0.183(4)
C1_2 C 0.4069(11) 0.4225(14) 0.761(3)
C2_2 C 0.4550(19) 0.4612(21) 0.883(7)
O1_2 O 0.4084(13) 0.4370(16) 0.585(3)
O2_2 O 0.3651(7) 0.3692(11) 0.789(3)
C7_2 C 0.5442(14) 0.5558(17) 0.923(8)
C8_2 C 0.4977(20) 0.5138(21) 0.808(2)
H2_2 H 0.49750 0.52493 0.66276
O6_2 O 0.5841(8) 0.6058(12) 0.850(4)
Mn2_2 Mn 0.6441(15) 0.6896(21) 0.981(4)
Mn6_2 Mn 0.2878(14) 0.3108(25) 0.686(4)
O7_2 O 0.6381(10) 0.7417(19) 0.748(3)
O10_2 O 0.7025(11) 0.6708(13) 0.878(3)
O12_2 O 0.3116(9) 0.2508(15) 0.817(4)
Mn1_3 Mn 0.6896(21) 0.0455(14) 0.019(4)
C3_3 C 0.5558(17) 0.0116(9) 0.077(8)
C4_3 C 0.5138(21) 0.0161(7) 0.192(2)
H1_3 H 0.52493 0.02743 0.33724
O3_3 O 0.6058(12) 0.0217(9) 0.150(4)
C5_3 C 0.4225(14) 0.0156(9) 0.239(3)
C6_3 C 0.4612(21) 0.0062(9) 0.117(7)
O4_3 O 0.4370(16) 0.0286(10) 0.415(3)
O5_3 O 0.3692(11) 0.0041(9) 0.211(3)
Mn5_3 Mn 0.3108(25) 0.0229(21) 0.314(4)
Mn8_3 Mn 0.3788(26) 0.0226(15) 0.648(4)
O8_3 O 0.7417(19) 0.1037(16) 0.252(3)
O10_3 O 0.3292(13) 0.0318(7) 0.878(3)
O12_3 O 0.7492(15) 0.0609(12) 0.817(4)
Mn4_3 Mn 0.6212(26) 0.9774(15) 0.352(4)
O9_3 O 0.6708(13) 0.9682(7) 0.122(3)
O11_3 O 0.2508(15) 0.9391(12) 0.183(4)
C1_3 C 0.5775(14) 0.9844(9) 0.761(3)
C2_3 C 0.5388(21) 0.9938(9) 0.883(7)
O1_3 O 0.5630(16) 0.9714(10) 0.585(3)
O2_3 O 0.6308(11) 0.9959(9) 0.789(3)
C7_3 C 0.4442(17) 0.9884(9) 0.923(8)
C8_3 C 0.4862(21) 0.9839(7) 0.808(2)
H2_3 H 0.47507 0.97257 0.66276
O6_3 O 0.3942(12) 0.9783(9) 0.850(4)
Mn2_3 Mn 0.3104(21) 0.9545(14) 0.981(4)
Mn6_3 Mn 0.6892(25) 0.9771(21) 0.686(4)
O7_3 O 0.2583(19) 0.8963(16) 0.748(3)
O9_4 O 0.6984(7) 0.0359(11) 0.456(3)
C1_4 C 0.6823(9) 0.9264(11) 0.094(3)
C2_4 C 0.6729(9) 0.8783(19) 0.216(7)
C3_4 C 0.6551(9) 0.8775(14) 0.410(8)
C4_4 C 0.6506(7) 0.8310(20) 0.525(2)
H1_4 H 0.63924 0.83083 0.67057
O3_4 O 0.6450(9) 0.9174(8) 0.483(4)
C5_4 C 0.6511(9) 0.7402(11) 0.572(3)
C6_4 C 0.6605(9) 0.7883(19) 0.450(7)
C7_4 C 0.6783(9) 0.7891(14) 0.256(8)
C8_4 C 0.6828(7) 0.8356(20) 0.141(2)
O5_4 O 0.6626(9) 0.6984(7) 0.544(3)
O7_4 O 0.7703(16) 0.6953(10) 0.082(3)
O11_4 O 0.7275(12) 0.6450(9) 0.517(4)
O1_4 O 0.6953(10) 0.9249(13) 0.918(3)
H2_4 H 0.69410 0.83583 0.99609
O7_5 O 0.3047(10) 0.0751(19) 0.082(3)
O11_5 O 0.3550(9) 0.0826(15) 0.517(4)
C1_5 C 0.0736(11) 0.7558(14) 0.094(3)
C2_5 C 0.1217(19) 0.7945(21) 0.216(7)
C3_5 C 0.1225(14) 0.7775(17) 0.410(8)
C4_5 C 0.1690(20) 0.8195(21) 0.525(2)
H1_5 H 0.16917 0.80840 0.67057
O3_5 O 0.0826(8) 0.7275(12) 0.483(4)
C5_5 C 0.2598(11) 0.9108(14) 0.572(3)
C6_5 C 0.2117(19) 0.8721(21) 0.450(7)
C7_5 C 0.2109(14) 0.8891(17) 0.256(8)
C8_5 C 0.1644(20) 0.8471(21) 0.141(2)
O5_5 O 0.3016(7) 0.9641(11) 0.544(3)
O1_5 O 0.0751(13) 0.7703(16) 0.918(3)
H2_5 H 0.16417 0.85826 0.99609
O9_5 O 0.9641(11) 0.6626(13) 0.456(3)
C1_6 C 0.2442(14) 0.3177(9) 0.094(3)
C2_6 C 0.2055(21) 0.3271(9) 0.216(7)
C3_6 C 0.2225(17) 0.3449(9) 0.410(8)
C4_6 C 0.1805(21) 0.3494(7) 0.525(2)
H1_6 H 0.19160 0.36076 0.67057
O3_6 O 0.2725(12) 0.3550(9) 0.483(4)
C5_6 C 0.0892(14) 0.3489(9) 0.572(3)
C6_6 C 0.1279(21) 0.3395(9) 0.450(7)
C7_6 C 0.1109(17) 0.3217(9) 0.256(8)
C8_6 C 0.1529(21) 0.3172(7) 0.141(2)
O5_6 O 0.0359(11) 0.3374(9) 0.544(3)
O9_6 O 0.3374(13) 0.3016(7) 0.456(3)
O1_6 O 0.2297(16) 0.3047(10) 0.918(3)
H2_6 H 0.14174 0.30590 0.99609
O7_6 O 0.9249(19) 0.2297(16) 0.082(3)
O11_6 O 0.9174(15) 0.2725(12) 0.517(4)
H1_7 H 0.30590 0.16417 0.00391
C1_7 C 0.3489(9) 0.2598(11) 0.428(3)
C2_7 C 0.3395(9) 0.2117(19) 0.550(7)
C3_7 C 0.3217(9) 0.2109(14) 0.744(8)
C4_7 C 0.3172(7) 0.1644(20) 0.859(2)
C5_7 C 0.3177(9) 0.0736(11) 0.906(3)
C6_7 C 0.3271(9) 0.1217(19) 0.784(7)
C7_7 C 0.3449(9) 0.1225(14) 0.590(8)
C8_7 C 0.3494(7) 0.1690(20) 0.475(2)
H2_7 H 0.36076 0.16917 0.32943
H1_8 H 0.83583 0.14174 0.00391
C1_8 C 0.7402(11) 0.0892(14) 0.428(3)
C2_8 C 0.7883(19) 0.1279(21) 0.550(7)
C3_8 C 0.7891(14) 0.1109(17) 0.744(8)
C4_8 C 0.8356(20) 0.1529(21) 0.859(2)
C5_8 C 0.9264(11) 0.2442(14) 0.906(3)
C6_8 C 0.8783(19) 0.2055(21) 0.784(7)
C7_8 C 0.8775(14) 0.2225(17) 0.590(8)
C8_8 C 0.8310(20) 0.1805(21) 0.475(2)
H2_8 H 0.83083 0.19160 0.32943
H1_9 H 0.85826 0.69410 0.00391
C1_9 C 0.9108(14) 0.6511(9) 0.428(3)
C2_9 C 0.8721(21) 0.6605(9) 0.550(7)
C3_9 C 0.8891(17) 0.6783(9) 0.744(8)
C4_9 C 0.8471(21) 0.6828(7) 0.859(2)
C5_9 C 0.7558(14) 0.6823(9) 0.906(3)
C6_9 C 0.7945(21) 0.6729(9) 0.784(7)
C7_9 C 0.7775(17) 0.6551(9) 0.590(8)
C8_9 C 0.8195(21) 0.6506(7) 0.475(2)
H2_9 H 0.80840 0.63924 0.32943
loop_
_geom_bond_atom_site_label_1
_geom_bond_atom_site_label_2
_geom_bond_site_symmetry_1
_geom_bond_site_symmetry_2
Mn4 O9 1_555 1_555
C1 C2 1_555 1_555
O1 C1 1_555 1_555
O2 C1 1_555 1_555
C8 C2 1_555 1_555
H2 C8 1_555 1_555
O6 C7 1_555 1_555
Mn4 O1 1_555 1_555
Mn6 O2 1_555 1_555
O7 Mn2 1_555 1_555
C7 C8 1_555 1_555
O6 Mn2 1_555 1_555
C3 C4 1_555 1_555
C4 H1 1_555 1_555
O3 Mn1 1_555 1_555
C5 C6 1_555 1_555
C6 C4 1_555 1_555
O4 C5 1_555 1_555
O5 C5 1_555 1_555
Mn5 O5 1_555 1_555
Mn8 O4 1_555 1_555
O8 Mn1 1_555 1_555
C3 O3 1_555 1_555
Mn8 O10 1_555 1_555
C3_2 C4_2 1_555 1_555
C4_2 H1_2 1_555 1_555
O3_2 Mn1_2 1_555 1_555
C5_2 C6_2 1_555 1_555
C6_2 C4_2 1_555 1_555
O4_2 C5_2 1_555 1_555
O5_2 C5_2 1_555 1_555
Mn4_2 O3_2 1_555 1_555
Mn5_2 O5_2 1_555 1_555
Mn8_2 O4_2 1_555 1_555
O8_2 Mn1_2 1_555 1_555
O9_2 Mn1_2 1_555 1_555
C3_2 O3_2 1_555 1_555
Mn4_2 O9_2 1_555 1_555
Mn5_2 O11_2 1_555 1_555
C1_2 C2_2 1_555 1_555
O1_2 C1_2 1_555 1_555
O2_2 C1_2 1_555 1_555
C8_2 C2_2 1_555 1_555
H2_2 C8_2 1_555 1_555
O6_2 C7_2 1_555 1_555
Mn4_2 O1_2 1_555 1_555
Mn6_2 O2_2 1_555 1_555
Mn8_2 O6_2 1_555 1_555
O7_2 Mn2_2 1_555 1_555
O10_2 Mn2_2 1_555 1_555
C7_2 C8_2 1_555 1_555
O6_2 Mn2_2 1_555 1_555
Mn6_2 O12_2 1_555 1_555
Mn8_2 O10_2 1_555 1_555
C3_3 C4_3 1_555 1_555
C4_3 H1_3 1_555 1_555
O3_3 Mn1_3 1_555 1_555
C5_3 C6_3 1_555 1_555
C6_3 C4_3 1_555 1_555
O4_3 C5_3 1_555 1_555
O5_3 C5_3 1_555 1_555
Mn5_3 O5_3 1_555 1_555
Mn8_3 O4_3 1_555 1_555
O8_3 Mn1_3 1_555 1_555
C3_3 O3_3 1_555 1_555
Mn8_3 O10_3 1_555 1_555
Mn4_3 O9_3 1_555 1_555
C1_3 C2_3 1_555 1_555
O1_3 C1_3 1_555 1_555
O2_3 C1_3 1_555 1_555
C8_3 C2_3 1_555 1_555
H2_3 C8_3 1_555 1_555
O6_3 C7_3 1_555 1_555
Mn4_3 O1_3 1_555 1_555
Mn6_3 O2_3 1_555 1_555
O7_3 Mn2_3 1_555 1_555
C7_3 C8_3 1_555 1_555
O6_3 Mn2_3 1_555 1_555
C1_4 C2_4 1_555 1_555
C2_4 C3_4 1_555 1_555
C3_4 C4_4 1_555 1_555
C4_4 H1_4 1_555 1_555
O9_3 C1_4 1_555 1_555
O3_4 Mn4_3 1_555 1_555
C5_4 C6_4 1_555 1_555
C6_4 C4_4 1_555 1_555
C7_4 C6_4 1_555 1_555
C8_4 C2_4 1_555 1_555
O7_2 C5_4 1_555 1_555
O5_4 C5_4 1_555 1_555
O11_2 C7_4 1_555 1_555
Mn5_2 O5_4 1_555 1_555
Mn6_3 O3_4 1_555 1_555
Mn8_2 O5_4 1_555 1_555
O7_4 Mn5_2 1_555 1_555
O11_4 Mn5_2 1_555 1_555
C3_4 O3_4 1_555 1_555
C7_4 C8_4 1_555 1_555
Mn8_2 O11_4 1_555 1_555
Mn6_3 O1_4 1_555 1_555
O7_5 Mn5_3 1_555 1_555
O11_5 Mn5_3 1_555 1_555
Mn8_3 O11_5 1_555 1_555
C1_5 C2_5 1_555 1_555
C2_5 C3_5 1_555 1_555
C3_5 C4_5 1_555 1_555
C4_5 H1_5 1_555 1_555
O9 C1_5 1_555 1_555
O3_5 Mn4 1_555 1_555
C5_5 C6_5 1_555 1_555
C6_5 C4_5 1_555 1_555
C7_5 C6_5 1_555 1_555
C8_5 C2_5 1_555 1_555
O7_3 C5_5 1_555 1_555
O5_5 C5_5 1_555 1_555
O11_3 C7_5 1_555 1_555
Mn6 O3_5 1_555 1_555
C3_5 O3_5 1_555 1_555
C7_5 C8_5 1_555 1_555
Mn6 O1_5 1_555 1_555
C1_6 C2_6 1_555 1_555
C2_6 C3_6 1_555 1_555
C3_6 C4_6 1_555 1_555
C4_6 H1_6 1_555 1_555
O9_2 C1_6 1_555 1_555
O3_6 Mn4_2 1_555 1_555
C5_6 C6_6 1_555 1_555
C6_6 C4_6 1_555 1_555
C7_6 C6_6 1_555 1_555
C8_6 C2_6 1_555 1_555
O7 C5_6 1_555 1_555
O5_6 C5_6 1_555 1_555
O11 C7_6 1_555 1_555
Mn6_2 O3_6 1_555 1_555
O9_6 Mn4_2 1_555 1_555
C3_6 O3_6 1_555 1_555
C7_6 C8_6 1_555 1_555
Mn6_2 O9_6 1_555 1_555
Mn6_2 O1_6 1_555 1_555
O7_6 Mn5 1_555 1_555
O11_6 Mn5 1_555 1_555
Mn8 O11_6 1_555 1_555
C1_7 C2_7 1_555 1_555
C2_7 C3_7 1_555 1_555
C3_7 C4_7 1_555 1_555
O8_2 C1_7 1_555 1_555
O9_6 C1_7 1_555 1_555
C5_7 C6_7 1_555 1_555
C6_7 C4_7 1_555 1_555
C7_7 C6_7 1_555 1_555
C8_7 C2_7 1_555 1_555
H2_7 C8_7 1_555 1_555
O10_3 C5_7 1_555 1_555
O11_5 C7_7 1_555 1_555
C3_7 O12_2 1_555 1_555
C7_7 C8_7 1_555 1_555
C1_8 C2_8 1_555 1_555
C2_8 C3_8 1_555 1_555
C3_8 C4_8 1_555 1_555
O8_3 C1_8 1_555 1_555
O9_4 C1_8 1_555 1_555
C5_8 C6_8 1_555 1_555
C6_8 C4_8 1_555 1_555
C7_8 C6_8 1_555 1_555
C8_8 C2_8 1_555 1_555
H2_8 C8_8 1_555 1_555
O10 C5_8 1_555 1_555
O11_6 C7_8 1_555 1_555
C3_8 O12_3 1_555 1_555
C7_8 C8_8 1_555 1_555
C1_9 C2_9 1_555 1_555
C2_9 C3_9 1_555 1_555
C3_9 C4_9 1_555 1_555
O8 C1_9 1_555 1_555
O9_5 C1_9 1_555 1_555
C5_9 C6_9 1_555 1_555
C6_9 C4_9 1_555 1_555
C7_9 C6_9 1_555 1_555
C8_9 C2_9 1_555 1_555
H2_9 C8_9 1_555 1_555
O10_2 C5_9 1_555 1_555
O11_4 C7_9 1_555 1_555
C3_9 O12 1_555 1_555
C7_9 C8_9 1_555 1_555

#END
