
###############################################################################
#
# This file contains modified crystal structure data generated from the
# MOF subset of the Cambridge Structural Database (CSD) v543 
# hosted by the Cambridge Crystallographic Data Centre (CCDC).
#
# This work is licensed under the Creative Commons
# Attribution-NonCommercial-ShareAlike 4.0 International License.
# To view a copy of this license, visit
# http://creativecommons.org/licenses/by-nc-sa/4.0/
# or send a letter to
# Creative Commons, PO Box 1866, Mountain View, CA 94042, USA.
#
# CIF created using the CSD Python API on 29 September 2022
# The structure has been converted into the P1 space group
# The structure has a 3D framework
# The original CSD entry COKPEZ is in the rhombohedral crystal system
# The framework has been calculated to contain at least 10.0% void space
# The void calculation uses a probe of radius 1.32A, grid spacing 0.4
# The framework is charged, counterions have been retained in the structure
#
###############################################################################

data_COKPEZ
_chemical_formula_moiety         '(C72 H18 Mg8 O54 20-)n'
_symmetry_cell_setting           triclinic
_symmetry_space_group_name_H-M   'P 1'
_symmetry_Int_Tables_number      1
_space_group_name_Hall           'P 1'
loop_
_symmetry_equiv_pos_site_id
_symmetry_equiv_pos_as_xyz
1 x,y,z
_cell_length_a                   25.8728(8)
_cell_length_b                   25.8728
_cell_length_c                   6.87004(30)
_cell_angle_alpha                90
_cell_angle_beta                 90
_cell_angle_gamma                120
_cell_volume                     3982.69
loop_
_atom_site_label
_atom_site_type_symbol
_atom_site_fract_x
_atom_site_fract_y
_atom_site_fract_z
Mg1 Mg 0.3804(4) 0.3515(4) 0.1382(10)
O1 O 0.32522(30) 0.29556(31) 0.3620(11)
O2 O 0.30284(33) 0.2288(4) 0.5976(10)
O3 O 0.3539(4) 0.2744(4) 0.0023(12)
C1 C 0.31582(32) 0.24659(33) 0.4239(9)
C2 C 0.32894(31) 0.20868(28) 0.2858(9)
C3 C 0.34593(31) 0.22389(34) 0.0919(10)
O6 O 0.3128(4) 0.0589(4) 0.3310(12)
C6 C 0.33773(31) 0.12465(28) 0.0475(9)
C7 C 0.32074(31) 0.10944(34) 0.2414(10)
C8 C 0.31402(34) 0.15082(34) 0.3605(9)
H2 H 0.3061(5) 0.1429(5) 0.5070(15)
Mg3 Mg 0.3152(4) 0.3622(6) 0.4715(10)
Mg5 Mg 0.3044(6) 0.2863(4) 0.8049(10)
Mg8 Mg 0.3622(6) 0.0471(4) 0.5285(10)
O7 O 0.30367(43) 0.34145(30) 0.0287(11)
O11 O 0.3923(4) 0.4128(6) 0.3356(12)
C4 C 0.35265(34) 0.18251(34) 0.9728(9)
H1 H 0.3606(5) 0.1904(5) 0.8263(15)
O4 O 0.34145(30) 0.03777(31) 0.9713(11)
O5 O 0.36383(33) 0.1045(4) 0.7357(10)
C5 C 0.35085(32) 0.08674(33) 0.9094(9)
O9 O 0.4379(4) 0.40737(52) 0.9309(10)
O13 O 0.4128(6) 0.0206(4) 0.6644(12)
Mg6 Mg 0.2863(4) 0.9818(4) 0.1951(10)
O10 O 0.40737(52) 0.96951(33) 0.0691(10)
Mg2 Mg 0.3515(4) 0.9711(6) 0.8618(10)
O8 O 0.29556(31) 0.97034(43) 0.6380(11)
O12 O 0.2744(4) 0.9205(6) 0.9977(12)
Mg6_2 Mg 0.0182(4) 0.3044(6) 0.1951(10)
O10_2 O 0.03049(33) 0.43787(62) 0.0691(10)
Mg2_2 Mg 0.0289(6) 0.3804(7) 0.8618(10)
O8_2 O 0.02966(43) 0.32522(53) 0.6380(11)
O12_2 O 0.0795(6) 0.3539(7) 0.9977(12)
Mg1_2 Mg 0.6485(4) 0.0289(6) 0.1382(10)
O1_2 O 0.70444(31) 0.02966(43) 0.3620(11)
O2_2 O 0.7712(4) 0.07404(52) 0.5976(10)
O3_2 O 0.7256(4) 0.0795(6) 0.0023(12)
C1_2 C 0.75341(33) 0.06923(46) 0.4239(9)
C2_2 C 0.79132(28) 0.12026(42) 0.2858(9)
C3_2 C 0.77611(34) 0.12204(46) 0.0919(10)
O6_2 O 0.9411(4) 0.2538(6) 0.3310(12)
C6_2 C 0.87535(28) 0.21307(42) 0.0475(9)
C7_2 C 0.89056(34) 0.21129(46) 0.2414(10)
C8_2 C 0.84918(34) 0.16319(48) 0.3605(9)
H2_2 H 0.8571(5) 0.1631(7) 0.5070(15)
Mg5_2 Mg 0.7137(4) 0.0182(7) 0.8049(10)
Mg8_2 Mg 0.9529(4) 0.3152(7) 0.5285(10)
C4_2 C 0.81749(34) 0.17014(48) 0.9728(9)
H1_2 H 0.8096(5) 0.1702(7) 0.8263(15)
O4_2 O 0.96223(31) 0.30367(43) 0.9713(11)
O5_2 O 0.8955(4) 0.25929(52) 0.7357(10)
C5_2 C 0.91326(33) 0.26410(46) 0.9094(9)
O9_2 O 0.59263(52) 0.03049(66) 0.9309(10)
O13_2 O 0.9794(4) 0.3923(7) 0.6644(12)
Mg3_2 Mg 0.6378(6) 0.9529(7) 0.4715(10)
O7_2 O 0.65855(30) 0.96223(52) 0.0287(11)
O11_2 O 0.5872(6) 0.9794(7) 0.3356(12)
Mg3_3 Mg 0.0471(7) 0.6848(4) 0.4715(10)
O7_3 O 0.03777(52) 0.69633(43) 0.0287(11)
O11_3 O 0.0206(7) 0.6077(4) 0.3356(12)
Mg1_3 Mg 0.9711(6) 0.6196(4) 0.1382(10)
O1_3 O 0.97034(43) 0.67478(30) 0.3620(11)
O2_3 O 0.92596(52) 0.69716(33) 0.5976(10)
O3_3 O 0.9205(6) 0.6461(4) 0.0023(12)
C1_3 C 0.93077(46) 0.68418(32) 0.4239(9)
C2_3 C 0.87974(42) 0.67106(31) 0.2858(9)
C3_3 C 0.87796(46) 0.65407(31) 0.0919(10)
O6_3 O 0.7462(6) 0.6872(4) 0.3310(12)
C6_3 C 0.78693(42) 0.66227(31) 0.0475(9)
C7_3 C 0.78871(46) 0.67926(31) 0.2414(10)
C8_3 C 0.83681(48) 0.68598(34) 0.3605(9)
H2_3 H 0.8369(7) 0.6939(5) 0.5070(15)
Mg5_3 Mg 0.9818(7) 0.6956(6) 0.8049(10)
Mg6_3 Mg 0.6956(6) 0.7137(4) 0.1951(10)
Mg8_3 Mg 0.6848(7) 0.6378(6) 0.5285(10)
O10_3 O 0.56213(62) 0.59263(52) 0.0691(10)
C4_3 C 0.82986(48) 0.64735(34) 0.9728(9)
H1_3 H 0.8298(7) 0.6394(5) 0.8263(15)
O4_3 O 0.69633(43) 0.65855(30) 0.9713(11)
O5_3 O 0.74071(52) 0.63617(33) 0.7357(10)
C5_3 C 0.73590(46) 0.64915(32) 0.9094(9)
Mg2_3 Mg 0.6196(7) 0.6485(4) 0.8618(10)
O8_3 O 0.67478(53) 0.70444(31) 0.6380(11)
O9_3 O 0.96951(66) 0.5621(4) 0.9309(10)
O12_3 O 0.6461(7) 0.7256(4) 0.9977(12)
O13_3 O 0.6077(7) 0.5872(6) 0.6644(12)
C3_4 C 0.01260(31) 0.55722(34) 0.4252(10)
C4_4 C 0.01932(34) 0.51584(34) 0.3061(9)
H1_4 H 0.0273(5) 0.5237(5) 0.1596(15)
O4_4 O 0.00811(30) 0.37111(31) 0.3047(11)
C5_4 C 0.01751(32) 0.42008(33) 0.2428(9)
C6_4 C 0.00439(31) 0.45799(28) 0.3809(9)
O9_4 O 0.1045(4) 0.74071(52) 0.2643(10)
O10_4 O 0.07404(52) 0.30284(33) 0.4024(10)
O11_4 O 0.0589(4) 0.7462(6) 0.6690(12)
O1_4 O 0.99189(30) 0.62889(31) 0.6953(11)
C1_4 C 0.98249(32) 0.57992(33) 0.7572(9)
C2_4 C 0.99561(31) 0.54201(28) 0.6191(9)
C7_4 C 0.98740(31) 0.44278(34) 0.5748(10)
C8_4 C 0.98068(34) 0.48416(34) 0.6939(9)
H2_4 H 0.9727(5) 0.4763(5) 0.8404(15)
O1_5 O 0.37111(31) 0.36299(43) 0.6953(11)
C1_5 C 0.42008(33) 0.40256(46) 0.7572(9)
C2_5 C 0.45799(28) 0.45359(42) 0.6191(9)
C3_5 C 0.44278(34) 0.45537(46) 0.4252(10)
C4_5 C 0.48416(34) 0.50347(48) 0.3061(9)
H1_5 H 0.4763(5) 0.5035(7) 0.1596(15)
O4_5 O 0.62889(31) 0.63701(43) 0.3047(11)
C5_5 C 0.57992(33) 0.59744(46) 0.2428(9)
C6_5 C 0.54201(28) 0.54641(42) 0.3809(9)
C7_5 C 0.55722(34) 0.54463(46) 0.5748(10)
C8_5 C 0.51584(34) 0.49653(48) 0.6939(9)
H2_5 H 0.5237(5) 0.4965(7) 0.8404(15)
O9_5 O 0.25929(52) 0.36383(66) 0.2643(10)
O10_5 O 0.69716(33) 0.77120(62) 0.4024(10)
O11_5 O 0.2538(6) 0.3128(7) 0.6690(12)
O1_6 O 0.63701(43) 0.00811(30) 0.6953(11)
C1_6 C 0.59744(46) 0.01751(32) 0.7572(9)
C2_6 C 0.54641(42) 0.00439(31) 0.6191(9)
C7_6 C 0.45537(46) 0.01260(31) 0.5748(10)
C8_6 C 0.50347(48) 0.01932(34) 0.6939(9)
H2_6 H 0.5035(7) 0.0273(5) 0.8404(15)
C3_6 C 0.54463(46) 0.98740(31) 0.4252(10)
C4_6 C 0.49653(48) 0.98068(34) 0.3061(9)
H1_6 H 0.4965(7) 0.9727(5) 0.1596(15)
O4_6 O 0.36299(43) 0.99189(30) 0.3047(11)
C5_6 C 0.40256(46) 0.98249(32) 0.2428(9)
C6_6 C 0.45359(42) 0.99561(31) 0.3809(9)
O9_6 O 0.63617(66) 0.8955(4) 0.2643(10)
O10_6 O 0.22880(62) 0.92596(52) 0.4024(10)
O11_6 O 0.6872(7) 0.9411(4) 0.6690(12)
C1_7 C 0.64915(32) 0.91326(33) 0.0906(9)
C8_7 C 0.64735(34) 0.81749(34) 0.0272(9)
H2_7 H 0.6394(5) 0.8096(5) 0.1737(15)
C2_7 C 0.66227(31) 0.87535(28) 0.9525(9)
C3_7 C 0.67926(31) 0.89056(34) 0.7586(10)
C4_7 C 0.68598(34) 0.84918(34) 0.6395(9)
H1_7 H 0.6939(5) 0.8571(5) 0.4930(15)
C5_7 C 0.68418(32) 0.75341(33) 0.5761(9)
C6_7 C 0.67106(31) 0.79132(28) 0.7142(9)
C7_7 C 0.65407(31) 0.77611(34) 0.9081(10)
C1_8 C 0.08674(33) 0.73590(46) 0.0906(9)
C8_8 C 0.18251(34) 0.82986(48) 0.0272(9)
H2_8 H 0.1904(5) 0.8298(7) 0.1737(15)
C2_8 C 0.12465(28) 0.78693(42) 0.9525(9)
C3_8 C 0.10944(34) 0.78871(46) 0.7586(10)
C4_8 C 0.15082(34) 0.83681(48) 0.6395(9)
H1_8 H 0.1429(5) 0.8369(7) 0.4930(15)
C5_8 C 0.24659(33) 0.93077(46) 0.5761(9)
C6_8 C 0.20868(28) 0.87974(42) 0.7142(9)
C7_8 C 0.22389(34) 0.87796(46) 0.9081(10)
C1_9 C 0.26410(46) 0.35085(32) 0.0906(9)
C8_9 C 0.17014(48) 0.35265(34) 0.0272(9)
H2_9 H 0.1702(7) 0.3606(5) 0.1737(15)
C2_9 C 0.21307(42) 0.33773(31) 0.9525(9)
C3_9 C 0.21129(46) 0.32074(31) 0.7586(10)
C4_9 C 0.16319(48) 0.31402(34) 0.6395(9)
H1_9 H 0.1631(7) 0.3061(5) 0.4930(15)
C5_9 C 0.06923(46) 0.31582(32) 0.5761(9)
C6_9 C 0.12026(42) 0.32894(31) 0.7142(9)
C7_9 C 0.12204(46) 0.34593(31) 0.9081(10)
loop_
_geom_bond_atom_site_label_1
_geom_bond_atom_site_label_2
_geom_bond_site_symmetry_1
_geom_bond_site_symmetry_2
Mg1 O1 1_555 1_555
O1 C1 1_555 1_555
O2 C1 1_555 1_555
O3 Mg1 1_555 1_555
C1 C2 1_555 1_555
C2 C3 1_555 1_555
C3 O3 1_555 1_555
O6 C7 1_555 1_555
C7 C6 1_555 1_555
C8 C2 1_555 1_555
H2 C8 1_555 1_555
Mg3 O1 1_555 1_555
Mg5 O2 1_555 1_555
Mg8 O6 1_555 1_555
O7 Mg1 1_555 1_555
O11 Mg1 1_555 1_555
C7 C8 1_555 1_555
Mg3 O11 1_555 1_555
H1 C4 1_555 1_555
O4 C5 1_555 1_555
O5 C5 1_555 1_555
Mg8 O5 1_555 1_555
Mg8 O13 1_555 1_555
O8 Mg2 1_555 1_555
O12 Mg2 1_555 1_555
O8_2 Mg2_2 1_555 1_555
O12_2 Mg2_2 1_555 1_555
Mg1_2 O1_2 1_555 1_555
O1_2 C1_2 1_555 1_555
O2_2 C1_2 1_555 1_555
O3_2 Mg1_2 1_555 1_555
C1_2 C2_2 1_555 1_555
C2_2 C3_2 1_555 1_555
C3_2 O3_2 1_555 1_555
O6_2 C7_2 1_555 1_555
C7_2 C6_2 1_555 1_555
C8_2 C2_2 1_555 1_555
H2_2 C8_2 1_555 1_555
Mg5_2 O2_2 1_555 1_555
Mg8_2 O6_2 1_555 1_555
C7_2 C8_2 1_555 1_555
H1_2 C4_2 1_555 1_555
O4_2 C5_2 1_555 1_555
O5_2 C5_2 1_555 1_555
Mg8_2 O5_2 1_555 1_555
Mg8_2 O13_2 1_555 1_555
Mg3_2 O11_2 1_555 1_555
Mg3_3 O11_3 1_555 1_555
Mg1_3 O1_3 1_555 1_555
O1_3 C1_3 1_555 1_555
O2_3 C1_3 1_555 1_555
O3_3 Mg1_3 1_555 1_555
C1_3 C2_3 1_555 1_555
C2_3 C3_3 1_555 1_555
C3_3 O3_3 1_555 1_555
O6_3 C7_3 1_555 1_555
C7_3 C6_3 1_555 1_555
C8_3 C2_3 1_555 1_555
H2_3 C8_3 1_555 1_555
Mg5_3 O2_3 1_555 1_555
Mg8_3 O6_3 1_555 1_555
O6_3 Mg6_3 1_555 1_555
C7_3 C8_3 1_555 1_555
H1_3 C4_3 1_555 1_555
O4_3 C5_3 1_555 1_555
O5_3 C5_3 1_555 1_555
Mg2_3 O4_3 1_555 1_555
Mg8_3 O5_3 1_555 1_555
O8_3 Mg2_3 1_555 1_555
O12_3 Mg2_3 1_555 1_555
O13_3 Mg2_3 1_555 1_555
Mg8_3 O8_3 1_555 1_555
Mg8_3 O13_3 1_555 1_555
C3_4 O11_3 1_555 1_555
C4_4 C3_4 1_555 1_555
H1_4 C4_4 1_555 1_555
O4_4 C5_4 1_555 1_555
O10_2 C5_4 1_555 1_555
C5_4 C6_4 1_555 1_555
C6_4 C4_4 1_555 1_555
Mg6_2 O4_4 1_555 1_555
O9_4 Mg3_3 1_555 1_555
O10_4 Mg6_2 1_555 1_555
O11_4 Mg3_3 1_555 1_555
O1_4 C1_4 1_555 1_555
O9_3 C1_4 1_555 1_555
C1_4 C2_4 1_555 1_555
O13_2 C7_4 1_555 1_555
C8_4 C2_4 1_555 1_555
H2_4 C8_4 1_555 1_555
Mg5_3 O1_4 1_555 1_555
C7_4 C8_4 1_555 1_555
Mg3 O1_5 1_555 1_555
O1_5 C1_5 1_555 1_555
O9 C1_5 1_555 1_555
C1_5 C2_5 1_555 1_555
C2_5 C3_5 1_555 1_555
C3_5 O11 1_555 1_555
C4_5 C3_5 1_555 1_555
H1_5 C4_5 1_555 1_555
O4_5 C5_5 1_555 1_555
O10_3 C5_5 1_555 1_555
O13_3 C7_5 1_555 1_555
C5_5 C6_5 1_555 1_555
C6_5 C4_5 1_555 1_555
C7_5 C6_5 1_555 1_555
C8_5 C2_5 1_555 1_555
H2_5 C8_5 1_555 1_555
Mg6_3 O4_5 1_555 1_555
Mg5 O1_5 1_555 1_555
Mg8_3 O4_5 1_555 1_555
O9_5 Mg3 1_555 1_555
O10_5 Mg6_3 1_555 1_555
O11_5 Mg3 1_555 1_555
C7_5 C8_5 1_555 1_555
Mg5 O11_5 1_555 1_555
O1_6 C1_6 1_555 1_555
O9_2 C1_6 1_555 1_555
C1_6 C2_6 1_555 1_555
O13 C7_6 1_555 1_555
C8_6 C2_6 1_555 1_555
H2_6 C8_6 1_555 1_555
Mg5_2 O1_6 1_555 1_555
C7_6 C8_6 1_555 1_555
C3_6 O11_2 1_555 1_555
C4_6 C3_6 1_555 1_555
H1_6 C4_6 1_555 1_555
O4_6 C5_6 1_555 1_555
O10 C5_6 1_555 1_555
C5_6 C6_6 1_555 1_555
C6_6 C4_6 1_555 1_555
Mg6 O4_6 1_555 1_555
O9_6 Mg3_2 1_555 1_555
O10_6 Mg6 1_555 1_555
O11_6 Mg3_2 1_555 1_555
O7_2 C1_7 1_555 1_555
O9_6 C1_7 1_555 1_555
H2_7 C8_7 1_555 1_555
C2_7 C3_7 1_555 1_555
C3_7 O11_6 1_555 1_555
C4_7 C3_7 1_555 1_555
H1_7 C4_7 1_555 1_555
O8_3 C5_7 1_555 1_555
O10_5 C5_7 1_555 1_555
O12_3 C7_7 1_555 1_555
C5_7 C6_7 1_555 1_555
C6_7 C4_7 1_555 1_555
C7_7 C6_7 1_555 1_555
O7_3 C1_8 1_555 1_555
O9_4 C1_8 1_555 1_555
H2_8 C8_8 1_555 1_555
C2_8 C3_8 1_555 1_555
C3_8 O11_4 1_555 1_555
C4_8 C3_8 1_555 1_555
H1_8 C4_8 1_555 1_555
O8 C5_8 1_555 1_555
O10_6 C5_8 1_555 1_555
O12 C7_8 1_555 1_555
C5_8 C6_8 1_555 1_555
C6_8 C4_8 1_555 1_555
C7_8 C6_8 1_555 1_555
O7 C1_9 1_555 1_555
O9_5 C1_9 1_555 1_555
H2_9 C8_9 1_555 1_555
C2_9 C3_9 1_555 1_555
C3_9 O11_5 1_555 1_555
C4_9 C3_9 1_555 1_555
H1_9 C4_9 1_555 1_555
O8_2 C5_9 1_555 1_555
O10_4 C5_9 1_555 1_555
O12_2 C7_9 1_555 1_555
C5_9 C6_9 1_555 1_555
C6_9 C4_9 1_555 1_555
C7_9 C6_9 1_555 1_555

#END
