
###############################################################################
#
# This file contains modified crystal structure data generated from the
# MOF subset of the Cambridge Structural Database (CSD) v543 
# hosted by the Cambridge Crystallographic Data Centre (CCDC).
#
# This work is licensed under the Creative Commons
# Attribution-NonCommercial-ShareAlike 4.0 International License.
# To view a copy of this license, visit
# http://creativecommons.org/licenses/by-nc-sa/4.0/
# or send a letter to
# Creative Commons, PO Box 1866, Mountain View, CA 94042, USA.
#
# CIF created using the CSD Python API on 29 September 2022
# The structure has been converted into the P1 space group
# The structure has a 3D framework
# The original CSD entry COKQIE is in the rhombohedral crystal system
# The framework has been calculated to contain at least 10.0% void space
# The void calculation uses a probe of radius 1.32A, grid spacing 0.4
# The framework is charged, counterions have been retained in the structure
#
###############################################################################

data_COKQIE
_chemical_formula_moiety         '(C72 H18 Fe8 O54 20-)n'
_symmetry_cell_setting           triclinic
_symmetry_space_group_name_H-M   'P 1'
_symmetry_Int_Tables_number      1
_space_group_name_Hall           'P 1'
loop_
_symmetry_equiv_pos_site_id
_symmetry_equiv_pos_as_xyz
1 x,y,z
_cell_length_a                   26.0818(13)
_cell_length_b                   26.0818
_cell_length_c                   6.8783(6)
_cell_angle_alpha                90
_cell_angle_beta                 90
_cell_angle_gamma                120
_cell_volume                     4052.16
loop_
_atom_site_label
_atom_site_type_symbol
_atom_site_fract_x
_atom_site_fract_y
_atom_site_fract_z
Fe1 Fe 0.38620(34) 0.3557(4) 0.1342(11)
O1 O 0.3256(5) 0.2966(5) 0.3697(19)
O2 O 0.3573(6) 0.2668(5) 0.0098(20)
C1 C 0.3206(5) 0.2494(4) 0.4203(16)
C2 C 0.3410(5) 0.2164(4) 0.1172(15)
C3 C 0.3157(5) 0.1994(4) 0.3003(15)
O4 O 0.3043(7) 0.3411(5) 0.0364(19)
O5 O 0.3999(5) 0.4238(8) 0.3431(20)
Fe2 Fe 0.3110(4) 0.36383(52) 0.4675(11)
O6 O 0.3033(9) 0.2294(5) 0.5904(18)
Fe4 Fe 0.30283(52) 0.28047(34) 0.8009(11)
C5 C 0.3216(5) 0.1515(4) 0.3578(15)
C6 C 0.3510(5) 0.1339(4) 0.0330(15)
C7 C 0.3257(5) 0.1169(4) 0.2161(15)
H2 H 0.3054(8) 0.1405(8) 0.4951(30)
O7 O 0.3094(6) 0.0665(5) 0.3235(20)
Fe6 Fe 0.36383(52) 0.05287(34) 0.5325(11)
O3 O 0.4373(5) 0.4073(7) 0.9237(18)
C4 C 0.3451(5) 0.1818(4) 0.9755(15)
H1 H 0.3613(8) 0.1928(8) 0.8382(30)
C8 C 0.3461(5) 0.0839(4) 0.9130(16)
O8 O 0.3411(5) 0.0367(5) 0.9636(19)
O9 O 0.3633(9) 0.1040(5) 0.7430(18)
O13 O 0.4238(8) 0.0240(6) 0.6569(20)
Fe5 Fe 0.28047(34) 0.9776(4) 0.1991(11)
O12 O 0.4073(7) 0.9700(9) 0.0763(18)
Fe7 Fe 0.3557(4) 0.96950(52) 0.8658(11)
O10 O 0.2668(5) 0.9095(8) 0.9902(20)
O11 O 0.2966(5) 0.9710(7) 0.6303(19)
Fe5_2 Fe 0.0224(4) 0.30283(52) 0.1991(11)
O12_2 O 0.0300(9) 0.4373(11) 0.0763(18)
Fe7_2 Fe 0.03050(52) 0.38620(66) 0.8658(11)
O10_2 O 0.0905(8) 0.3573(9) 0.9902(20)
O11_2 O 0.0290(7) 0.3256(9) 0.6303(19)
Fe1_2 Fe 0.6443(4) 0.03050(52) 0.1342(11)
O1_2 O 0.7034(5) 0.0290(7) 0.3697(19)
O2_2 O 0.7332(5) 0.0905(8) 0.0098(20)
C1_2 C 0.7506(4) 0.0712(6) 0.4203(16)
C2_2 C 0.7836(4) 0.1246(6) 0.1172(15)
C3_2 C 0.8006(4) 0.1163(6) 0.3003(15)
O6_2 O 0.7706(5) 0.0740(10) 0.5904(18)
Fe4_2 Fe 0.71953(34) 0.02237(62) 0.8009(11)
C5_2 C 0.8485(4) 0.1700(6) 0.3578(15)
C6_2 C 0.8661(4) 0.2170(6) 0.0330(15)
C7_2 C 0.8831(4) 0.2087(6) 0.2161(15)
H2_2 H 0.8595(8) 0.1648(11) 0.4951(30)
O7_2 O 0.9335(5) 0.2428(8) 0.3235(20)
Fe6_2 Fe 0.94713(34) 0.31097(62) 0.5325(11)
O3_2 O 0.5927(7) 0.0300(9) 0.9237(18)
C4_2 C 0.8182(4) 0.1633(6) 0.9755(15)
H1_2 H 0.8072(8) 0.1685(11) 0.8382(30)
C8_2 C 0.9161(4) 0.2621(6) 0.9130(16)
O8_2 O 0.9633(5) 0.3043(7) 0.9636(19)
O9_2 O 0.8960(5) 0.2594(10) 0.7430(18)
O13_2 O 0.9760(6) 0.3999(10) 0.6569(20)
O4_2 O 0.6589(5) 0.9633(9) 0.0364(19)
O5_2 O 0.5762(8) 0.9760(9) 0.3431(20)
Fe2_2 Fe 0.63617(52) 0.94713(66) 0.4675(11)
O4_3 O 0.0367(9) 0.6957(7) 0.0364(19)
O5_3 O 0.0240(9) 0.6001(5) 0.3431(20)
Fe2_3 Fe 0.05287(66) 0.6890(4) 0.4675(11)
Fe1_3 Fe 0.96950(52) 0.61380(34) 0.1342(11)
O1_3 O 0.9710(7) 0.6744(5) 0.3697(19)
O2_3 O 0.9095(8) 0.6427(6) 0.0098(20)
C1_3 C 0.9288(6) 0.6794(5) 0.4203(16)
C2_3 C 0.8754(6) 0.6590(5) 0.1172(15)
C3_3 C 0.8837(6) 0.6843(5) 0.3003(15)
O6_3 O 0.9260(10) 0.6967(9) 0.5904(18)
Fe4_3 Fe 0.97763(62) 0.69717(52) 0.8009(11)
C5_3 C 0.8300(6) 0.6784(5) 0.3578(15)
C6_3 C 0.7830(6) 0.6490(5) 0.0330(15)
C7_3 C 0.7913(6) 0.6743(5) 0.2161(15)
H2_3 H 0.8352(11) 0.6946(8) 0.4951(30)
O7_3 O 0.7572(8) 0.6906(6) 0.3235(20)
Fe5_3 Fe 0.69717(52) 0.71953(34) 0.1991(11)
Fe6_3 Fe 0.68903(62) 0.63617(52) 0.5325(11)
O12_3 O 0.5627(11) 0.5927(7) 0.0763(18)
O3_3 O 0.9700(9) 0.5627(5) 0.9237(18)
C4_3 C 0.8367(6) 0.6549(5) 0.9755(15)
H1_3 H 0.8315(11) 0.6387(8) 0.8382(30)
C8_3 C 0.7379(6) 0.6539(5) 0.9130(16)
O8_3 O 0.6957(7) 0.6589(5) 0.9636(19)
O9_3 O 0.7406(10) 0.6367(9) 0.7430(18)
Fe7_3 Fe 0.61380(66) 0.6443(4) 0.8658(11)
O10_3 O 0.6427(9) 0.7332(5) 0.9902(20)
O11_3 O 0.6744(9) 0.7034(5) 0.6303(19)
O13_3 O 0.6001(10) 0.5762(8) 0.6569(20)
O3_4 O 0.1040(5) 0.7406(7) 0.2570(18)
C2_4 C 0.0077(5) 0.5497(4) 0.4505(15)
C4_4 C 0.0118(5) 0.5151(4) 0.3088(15)
H1_4 H 0.0280(8) 0.5261(8) 0.1715(30)
O5_4 O 0.0665(5) 0.7572(8) 0.6765(20)
C6_4 C 0.0176(5) 0.4673(4) 0.3664(15)
C8_4 C 0.0127(5) 0.4173(4) 0.2464(16)
O8_4 O 0.0077(5) 0.3701(5) 0.2970(19)
O12_4 O 0.0740(7) 0.3033(9) 0.4096(18)
O1_4 O 0.9923(5) 0.6299(5) 0.7030(19)
C1_4 C 0.9873(5) 0.5827(4) 0.7536(16)
C3_4 C 0.9824(5) 0.5327(4) 0.6336(15)
C5_4 C 0.9882(5) 0.4849(4) 0.6912(15)
C7_4 C 0.9923(5) 0.4503(4) 0.5495(15)
H2_4 H 0.9720(8) 0.4739(8) 0.8285(30)
O1_5 O 0.3701(5) 0.3623(7) 0.7030(19)
O3_5 O 0.2594(7) 0.3633(9) 0.2570(18)
C1_5 C 0.4173(4) 0.4045(6) 0.7536(16)
C2_5 C 0.4503(4) 0.4579(6) 0.4505(15)
C3_5 C 0.4673(4) 0.4496(6) 0.6336(15)
C4_5 C 0.4849(4) 0.4966(6) 0.3088(15)
H1_5 H 0.4739(8) 0.5018(11) 0.1715(30)
O5_5 O 0.2428(8) 0.3094(9) 0.6765(20)
C5_5 C 0.5151(4) 0.5034(6) 0.6912(15)
C6_5 C 0.5327(4) 0.5504(6) 0.3664(15)
C7_5 C 0.5497(4) 0.5421(6) 0.5495(15)
H2_5 H 0.5261(8) 0.4982(11) 0.8285(30)
C8_5 C 0.5827(4) 0.5955(6) 0.2464(16)
O8_5 O 0.6299(5) 0.6377(7) 0.2970(19)
O12_5 O 0.6967(9) 0.7706(11) 0.4096(18)
O1_6 O 0.6377(7) 0.0077(5) 0.7030(19)
C1_6 C 0.5955(6) 0.0127(5) 0.7536(16)
C3_6 C 0.5504(6) 0.0176(5) 0.6336(15)
C5_6 C 0.4966(6) 0.0118(5) 0.6912(15)
C7_6 C 0.4579(6) 0.0077(5) 0.5495(15)
H2_6 H 0.5018(11) 0.0280(8) 0.8285(30)
O3_6 O 0.6367(9) 0.8960(5) 0.2570(18)
C2_6 C 0.5421(6) 0.9923(5) 0.4505(15)
C4_6 C 0.5034(6) 0.9882(5) 0.3088(15)
H1_6 H 0.4982(11) 0.9720(8) 0.1715(30)
O5_6 O 0.6906(9) 0.9335(5) 0.6765(20)
C6_6 C 0.4496(6) 0.9824(5) 0.3664(15)
C8_6 C 0.4045(6) 0.9873(5) 0.2464(16)
O8_6 O 0.3623(7) 0.9923(5) 0.2970(19)
O12_6 O 0.2294(11) 0.9260(7) 0.4096(18)
C1_7 C 0.6539(5) 0.9161(4) 0.0870(16)
C5_7 C 0.6549(5) 0.8182(4) 0.0245(15)
H2_7 H 0.6387(8) 0.8072(8) 0.1618(30)
C2_7 C 0.6743(5) 0.8831(4) 0.7839(15)
C3_7 C 0.6490(5) 0.8661(4) 0.9670(15)
C4_7 C 0.6784(5) 0.8485(4) 0.6422(15)
H1_7 H 0.6946(8) 0.8595(8) 0.5049(30)
C6_7 C 0.6843(5) 0.8006(4) 0.6997(15)
C7_7 C 0.6590(5) 0.7836(4) 0.8828(15)
C8_7 C 0.6794(5) 0.7506(4) 0.5797(16)
C1_8 C 0.0839(4) 0.7379(6) 0.0870(16)
C5_8 C 0.1818(4) 0.8367(6) 0.0245(15)
H2_8 H 0.1928(8) 0.8315(11) 0.1618(30)
C2_8 C 0.1169(4) 0.7913(6) 0.7839(15)
C3_8 C 0.1339(4) 0.7830(6) 0.9670(15)
C4_8 C 0.1515(4) 0.8300(6) 0.6422(15)
H1_8 H 0.1405(8) 0.8352(11) 0.5049(30)
C6_8 C 0.1994(4) 0.8837(6) 0.6997(15)
C7_8 C 0.2164(4) 0.8754(6) 0.8828(15)
C8_8 C 0.2494(4) 0.9288(6) 0.5797(16)
C1_9 C 0.2621(6) 0.3461(5) 0.0870(16)
C5_9 C 0.1633(6) 0.3451(5) 0.0245(15)
H2_9 H 0.1685(11) 0.3613(8) 0.1618(30)
C2_9 C 0.2087(6) 0.3257(5) 0.7839(15)
C3_9 C 0.2170(6) 0.3510(5) 0.9670(15)
C4_9 C 0.1700(6) 0.3216(5) 0.6422(15)
H1_9 H 0.1648(11) 0.3054(8) 0.5049(30)
C6_9 C 0.1163(6) 0.3157(5) 0.6997(15)
C7_9 C 0.1246(6) 0.3410(5) 0.8828(15)
C8_9 C 0.0712(6) 0.3206(5) 0.5797(16)
loop_
_geom_bond_atom_site_label_1
_geom_bond_atom_site_label_2
_geom_bond_site_symmetry_1
_geom_bond_site_symmetry_2
Fe1 O1 1_555 1_555
O1 C1 1_555 1_555
O2 Fe1 1_555 1_555
C1 C3 1_555 1_555
C2 O2 1_555 1_555
C3 C2 1_555 1_555
O4 Fe1 1_555 1_555
O5 Fe1 1_555 1_555
Fe2 O1 1_555 1_555
O6 C1 1_555 1_555
Fe4 O6 1_555 1_555
C5 C3 1_555 1_555
C7 C5 1_555 1_555
H2 C5 1_555 1_555
O7 C7 1_555 1_555
Fe6 O7 1_555 1_555
O5 Fe2 1_555 1_555
C6 C7 1_555 1_555
H1 C4 1_555 1_555
O8 C8 1_555 1_555
O9 C8 1_555 1_555
Fe6 O9 1_555 1_555
Fe6 O13 1_555 1_555
O11 Fe7 1_555 1_555
Fe7 O10 1_555 1_555
O11_2 Fe7_2 1_555 1_555
Fe7_2 O10_2 1_555 1_555
Fe1_2 O1_2 1_555 1_555
O1_2 C1_2 1_555 1_555
O2_2 Fe1_2 1_555 1_555
C1_2 C3_2 1_555 1_555
C2_2 O2_2 1_555 1_555
C3_2 C2_2 1_555 1_555
O6_2 C1_2 1_555 1_555
Fe4_2 O6_2 1_555 1_555
C5_2 C3_2 1_555 1_555
C7_2 C5_2 1_555 1_555
H2_2 C5_2 1_555 1_555
O7_2 C7_2 1_555 1_555
Fe6_2 O7_2 1_555 1_555
C6_2 C7_2 1_555 1_555
H1_2 C4_2 1_555 1_555
O8_2 C8_2 1_555 1_555
O9_2 C8_2 1_555 1_555
Fe6_2 O9_2 1_555 1_555
Fe6_2 O13_2 1_555 1_555
O5_2 Fe2_2 1_555 1_555
O5_3 Fe2_3 1_555 1_555
Fe1_3 O1_3 1_555 1_555
O1_3 C1_3 1_555 1_555
O2_3 Fe1_3 1_555 1_555
C1_3 C3_3 1_555 1_555
C2_3 O2_3 1_555 1_555
C3_3 C2_3 1_555 1_555
O6_3 C1_3 1_555 1_555
Fe4_3 O6_3 1_555 1_555
C5_3 C3_3 1_555 1_555
C7_3 C5_3 1_555 1_555
H2_3 C5_3 1_555 1_555
O7_3 C7_3 1_555 1_555
Fe5_3 O7_3 1_555 1_555
Fe6_3 O7_3 1_555 1_555
C6_3 C7_3 1_555 1_555
H1_3 C4_3 1_555 1_555
O8_3 C8_3 1_555 1_555
O9_3 C8_3 1_555 1_555
Fe7_3 O8_3 1_555 1_555
Fe6_3 O9_3 1_555 1_555
O11_3 Fe7_3 1_555 1_555
O13_3 Fe7_3 1_555 1_555
Fe7_3 O10_3 1_555 1_555
Fe6_3 O11_3 1_555 1_555
Fe6_3 O13_3 1_555 1_555
O3_4 Fe2_3 1_555 1_555
C2_4 O5_3 1_555 1_555
C4_4 C2_4 1_555 1_555
H1_4 C4_4 1_555 1_555
O5_4 Fe2_3 1_555 1_555
C6_4 C4_4 1_555 1_555
C8_4 C6_4 1_555 1_555
O8_4 C8_4 1_555 1_555
O12_2 C8_4 1_555 1_555
Fe5_2 O8_4 1_555 1_555
O12_4 Fe5_2 1_555 1_555
O1_4 C1_4 1_555 1_555
C1_4 C3_4 1_555 1_555
Fe4_3 O1_4 1_555 1_555
O3_3 C1_4 1_555 1_555
C5_4 C3_4 1_555 1_555
C7_4 C5_4 1_555 1_555
H2_4 C5_4 1_555 1_555
O13_2 C7_4 1_555 1_555
Fe2 O1_5 1_555 1_555
O1_5 C1_5 1_555 1_555
O3_5 Fe2 1_555 1_555
C1_5 C3_5 1_555 1_555
C2_5 O5 1_555 1_555
C3_5 C2_5 1_555 1_555
C4_5 C2_5 1_555 1_555
H1_5 C4_5 1_555 1_555
O5_5 Fe2 1_555 1_555
Fe4 O1_5 1_555 1_555
O3 C1_5 1_555 1_555
C5_5 C3_5 1_555 1_555
C6_5 C4_5 1_555 1_555
C7_5 C5_5 1_555 1_555
H2_5 C5_5 1_555 1_555
C8_5 C6_5 1_555 1_555
O13_3 C7_5 1_555 1_555
O8_5 C8_5 1_555 1_555
O12_3 C8_5 1_555 1_555
Fe5_3 O8_5 1_555 1_555
O12_5 Fe5_3 1_555 1_555
O5_5 Fe4 1_555 1_555
C6_5 C7_5 1_555 1_555
O8_5 Fe6_3 1_555 1_555
O1_6 C1_6 1_555 1_555
C1_6 C3_6 1_555 1_555
Fe4_2 O1_6 1_555 1_555
O3_2 C1_6 1_555 1_555
C5_6 C3_6 1_555 1_555
C7_6 C5_6 1_555 1_555
H2_6 C5_6 1_555 1_555
O13 C7_6 1_555 1_555
O3_6 Fe2_2 1_555 1_555
C2_6 O5_2 1_555 1_555
C4_6 C2_6 1_555 1_555
H1_6 C4_6 1_555 1_555
O5_6 Fe2_2 1_555 1_555
C6_6 C4_6 1_555 1_555
C8_6 C6_6 1_555 1_555
O8_6 C8_6 1_555 1_555
O12 C8_6 1_555 1_555
Fe5 O8_6 1_555 1_555
O12_6 Fe5 1_555 1_555
O4_2 C1_7 1_555 1_555
O3_6 C1_7 1_555 1_555
H2_7 C5_7 1_555 1_555
C2_7 O5_6 1_555 1_555
C3_7 C2_7 1_555 1_555
C4_7 C2_7 1_555 1_555
H1_7 C4_7 1_555 1_555
C6_7 C4_7 1_555 1_555
C8_7 C6_7 1_555 1_555
O10_3 C7_7 1_555 1_555
O11_3 C8_7 1_555 1_555
O12_5 C8_7 1_555 1_555
C6_7 C7_7 1_555 1_555
O4_3 C1_8 1_555 1_555
O3_4 C1_8 1_555 1_555
H2_8 C5_8 1_555 1_555
C2_8 O5_4 1_555 1_555
C3_8 C2_8 1_555 1_555
C4_8 C2_8 1_555 1_555
H1_8 C4_8 1_555 1_555
C6_8 C4_8 1_555 1_555
C8_8 C6_8 1_555 1_555
O10 C7_8 1_555 1_555
O11 C8_8 1_555 1_555
O12_6 C8_8 1_555 1_555
C6_8 C7_8 1_555 1_555
O4 C1_9 1_555 1_555
O3_5 C1_9 1_555 1_555
H2_9 C5_9 1_555 1_555
C2_9 O5_5 1_555 1_555
C3_9 C2_9 1_555 1_555
C4_9 C2_9 1_555 1_555
H1_9 C4_9 1_555 1_555
C6_9 C4_9 1_555 1_555
C8_9 C6_9 1_555 1_555
O10_2 C7_9 1_555 1_555
O11_2 C8_9 1_555 1_555
O12_4 C8_9 1_555 1_555
C6_9 C7_9 1_555 1_555

#END
