
###############################################################################
#
# This file contains modified crystal structure data generated from the
# MOF subset of the Cambridge Structural Database (CSD) v543 
# hosted by the Cambridge Crystallographic Data Centre (CCDC).
#
# This work is licensed under the Creative Commons
# Attribution-NonCommercial-ShareAlike 4.0 International License.
# To view a copy of this license, visit
# http://creativecommons.org/licenses/by-nc-sa/4.0/
# or send a letter to
# Creative Commons, PO Box 1866, Mountain View, CA 94042, USA.
#
# CIF created using the CSD Python API on 29 September 2022
# The structure has been converted into the P1 space group
# The structure has a 3D framework
# The original CSD entry COKQAW is in the rhombohedral crystal system
# The framework has been calculated to contain at least 10.0% void space
# The void calculation uses a probe of radius 1.32A, grid spacing 0.4
# The framework is charged, counterions have been retained in the structure
# H atom positions have been added when not included in the experimental data
#
###############################################################################

data_COKQAW
_chemical_formula_moiety         '(C72 H18 Cu8 O52 18-)n'
_symmetry_cell_setting           triclinic
_symmetry_space_group_name_H-M   'P 1'
_symmetry_Int_Tables_number      1
_space_group_name_Hall           'P 1'
loop_
_symmetry_equiv_pos_site_id
_symmetry_equiv_pos_as_xyz
1 x,y,z
_cell_length_a                   25.89776(33)
_cell_length_b                   25.89776
_cell_length_c                   6.27846(10)
_cell_angle_alpha                90
_cell_angle_beta                 90
_cell_angle_gamma                120
_cell_volume                     3646.77
loop_
_atom_site_label
_atom_site_type_symbol
_atom_site_fract_x
_atom_site_fract_y
_atom_site_fract_z
_atom_site_U_iso_or_equiv
_atom_site_thermal_displace_type
Cu1 Cu 0.38740(10) 0.34916(10) 0.1751(4) 0.0126 Uiso
O1 O 0.3544(4) 0.3004(4) 0.4265(17) 0.0142 Uiso
O2 O 0.2899(4) 0.2255(4) 0.6333(19) 0.0142 Uiso
O3 O 0.3624(4) 0.2781(4) 0.0119(19) 0.0142 Uiso
C1 C 0.3284(8) 0.2478(6) 0.4850(22) 0.0110 Uiso
C2 C 0.3289(8) 0.2082(8) 0.3041(30) 0.0110 Uiso
C3 C 0.3479(8) 0.2225(5) 0.0907(31) 0.0110 Uiso
O6 O 0.3043(4) 0.0552(4) 0.3214(19) 0.0142 Uiso
C6 C 0.3378(8) 0.1251(8) 0.0292(30) 0.0110 Uiso
C7 C 0.3188(8) 0.1108(5) 0.2426(31) 0.0110 Uiso
C8 C 0.3121(6) 0.1495(8) 0.3574(25) 0.0110 Uiso
Cu3 Cu 0.31751(10) 0.37157(14) 0.5084(4) 0.0126 Uiso
Cu5 Cu 0.29509(14) 0.27927(10) 0.8418(4) 0.0126 Uiso
Cu8 Cu 0.37157(14) 0.05407(10) 0.4916(4) 0.0126 Uiso
O7 O 0.2793(6) 0.3123(4) 0.0932(17) 0.0142 Uiso
O11 O 0.3886(4) 0.4176(6) 0.3452(19) 0.0142 Uiso
H1 H 0.290913 0.134009 0.512218 . .
C4 C 0.3546(6) 0.1838(8) 0.9759(25) 0.0110 Uiso
O4 O 0.3123(4) 0.0329(4) 0.9068(17) 0.0142 Uiso
O5 O 0.3768(4) 0.1078(4) 0.7000(19) 0.0142 Uiso
C5 C 0.3383(8) 0.0855(6) 0.8483(22) 0.0110 Uiso
O9 O 0.4412(4) 0.3977(6) 0.9666(19) 0.0142 Uiso
O13 O 0.4176(6) 0.0291(4) 0.6548(19) 0.0142 Uiso
H2 H 0.375754 0.199324 0.821115 . .
Cu6 Cu 0.27927(10) 0.98417(10) 0.1582(4) 0.0126 Uiso
O10 O 0.3977(6) 0.9566(4) 0.0334(19) 0.0142 Uiso
Cu2 Cu 0.34916(10) 0.96176(14) 0.8249(4) 0.0126 Uiso
O8 O 0.3004(4) 0.9460(6) 0.5735(17) 0.0142 Uiso
O12 O 0.2781(4) 0.9157(6) 0.9881(19) 0.0142 Uiso
Cu6_2 Cu 0.01583(10) 0.29509(14) 0.1582(4) 0.0126 Uiso
O10_2 O 0.0434(4) 0.4412(7) 0.0334(19) 0.0142 Uiso
Cu2_2 Cu 0.03824(14) 0.38740(17) 0.8249(4) 0.0126 Uiso
O8_2 O 0.0540(6) 0.3544(7) 0.5735(17) 0.0142 Uiso
O12_2 O 0.0843(6) 0.3624(7) 0.9881(19) 0.0142 Uiso
Cu1_2 Cu 0.65084(10) 0.03824(14) 0.1751(4) 0.0126 Uiso
O1_2 O 0.6996(4) 0.0540(6) 0.4265(17) 0.0142 Uiso
O2_2 O 0.7745(4) 0.0644(6) 0.6333(19) 0.0142 Uiso
O3_2 O 0.7219(4) 0.0843(6) 0.0119(19) 0.0142 Uiso
C1_2 C 0.7522(6) 0.0806(10) 0.4850(22) 0.0110 Uiso
C2_2 C 0.7918(8) 0.1207(11) 0.3041(30) 0.0110 Uiso
C3_2 C 0.7775(5) 0.1254(9) 0.0907(31) 0.0110 Uiso
O6_2 O 0.9448(4) 0.2490(6) 0.3214(19) 0.0142 Uiso
C6_2 C 0.8749(8) 0.2126(11) 0.0292(30) 0.0110 Uiso
C7_2 C 0.8892(5) 0.2079(9) 0.2426(31) 0.0110 Uiso
C8_2 C 0.8505(8) 0.1625(10) 0.3574(25) 0.0110 Uiso
Cu5_2 Cu 0.72073(10) 0.01583(17) 0.8418(4) 0.0126 Uiso
Cu8_2 Cu 0.94593(10) 0.31751(17) 0.4916(4) 0.0126 Uiso
H1_2 H 0.865991 0.156904 0.512218 . .
C4_2 C 0.8162(8) 0.1708(10) 0.9759(25) 0.0110 Uiso
O4_2 O 0.9671(4) 0.2793(6) 0.9068(17) 0.0142 Uiso
O5_2 O 0.8922(4) 0.2689(6) 0.7000(19) 0.0142 Uiso
C5_2 C 0.9145(6) 0.2527(10) 0.8483(22) 0.0110 Uiso
O9_2 O 0.6023(6) 0.0434(7) 0.9666(19) 0.0142 Uiso
O13_2 O 0.9709(4) 0.3886(7) 0.6548(19) 0.0142 Uiso
H2_2 H 0.800676 0.176429 0.821115 . .
Cu3_2 Cu 0.62843(14) 0.94593(17) 0.5084(4) 0.0126 Uiso
O7_2 O 0.6877(4) 0.9671(7) 0.0932(17) 0.0142 Uiso
O11_2 O 0.5824(6) 0.9709(7) 0.3452(19) 0.0142 Uiso
Cu3_3 Cu 0.05407(17) 0.68249(10) 0.5084(4) 0.0126 Uiso
O7_3 O 0.0329(7) 0.7207(6) 0.0932(17) 0.0142 Uiso
O11_3 O 0.0291(7) 0.6114(4) 0.3452(19) 0.0142 Uiso
Cu1_3 Cu 0.96176(14) 0.61260(10) 0.1751(4) 0.0126 Uiso
O1_3 O 0.9460(6) 0.6456(4) 0.4265(17) 0.0142 Uiso
O2_3 O 0.9356(6) 0.7101(4) 0.6333(19) 0.0142 Uiso
O3_3 O 0.9157(6) 0.6376(4) 0.0119(19) 0.0142 Uiso
C1_3 C 0.9194(10) 0.6716(8) 0.4850(22) 0.0110 Uiso
C2_3 C 0.8793(11) 0.6711(8) 0.3041(30) 0.0110 Uiso
C3_3 C 0.8746(9) 0.6521(8) 0.0907(31) 0.0110 Uiso
O6_3 O 0.7510(6) 0.6957(4) 0.3214(19) 0.0142 Uiso
C6_3 C 0.7874(11) 0.6622(8) 0.0292(30) 0.0110 Uiso
C7_3 C 0.7921(9) 0.6812(8) 0.2426(31) 0.0110 Uiso
C8_3 C 0.8375(10) 0.6879(6) 0.3574(25) 0.0110 Uiso
Cu5_3 Cu 0.98417(17) 0.70491(14) 0.8418(4) 0.0126 Uiso
Cu6_3 Cu 0.70491(14) 0.72073(10) 0.1582(4) 0.0126 Uiso
Cu8_3 Cu 0.68249(17) 0.62843(14) 0.4916(4) 0.0126 Uiso
O10_3 O 0.5588(7) 0.6023(6) 0.0334(19) 0.0142 Uiso
H1_3 H 0.843096 0.709087 0.512218 . .
C4_3 C 0.8292(10) 0.6454(6) 0.9759(25) 0.0110 Uiso
O4_3 O 0.7207(6) 0.6877(4) 0.9068(17) 0.0142 Uiso
O5_3 O 0.7311(6) 0.6232(4) 0.7000(19) 0.0142 Uiso
C5_3 C 0.7473(10) 0.6617(8) 0.8483(22) 0.0110 Uiso
Cu2_3 Cu 0.61260(17) 0.65084(10) 0.8249(4) 0.0126 Uiso
O8_3 O 0.6456(7) 0.6996(4) 0.5735(17) 0.0142 Uiso
O9_3 O 0.9566(7) 0.5588(4) 0.9666(19) 0.0142 Uiso
O12_3 O 0.6376(7) 0.7219(4) 0.9881(19) 0.0142 Uiso
O13_3 O 0.6114(7) 0.5824(6) 0.6548(19) 0.0142 Uiso
H2_3 H 0.823571 0.624246 0.821115 . .
O1_4 O 0.0211(4) 0.6337(4) 0.7598(17) 0.0142 Uiso
C3_4 C 0.0146(8) 0.5558(5) 0.4240(31) 0.0110 Uiso
C4_4 C 0.0213(6) 0.5171(8) 0.3092(25) 0.0110 Uiso
C5_4 C 0.0049(8) 0.4189(6) 0.1817(22) 0.0110 Uiso
C6_4 C 0.0044(8) 0.4585(8) 0.3626(30) 0.0110 Uiso
O9_4 O 0.1078(4) 0.7311(6) 0.3000(19) 0.0142 Uiso
O10_4 O 0.0644(6) 0.2899(4) 0.3667(19) 0.0142 Uiso
O11_4 O 0.0552(4) 0.7510(6) 0.6786(19) 0.0142 Uiso
H2_4 H 0.0424202 0.532658 0.154448 . .
C1_4 C 0.9951(8) 0.5811(6) 0.8183(22) 0.0110 Uiso
C2_4 C 0.9956(8) 0.5415(8) 0.6374(30) 0.0110 Uiso
O4_4 O 0.9789(4) 0.3663(4) 0.2402(17) 0.0142 Uiso
C7_4 C 0.9854(8) 0.4442(5) 0.5760(31) 0.0110 Uiso
C8_4 C 0.9787(6) 0.4829(8) 0.6908(25) 0.0110 Uiso
H1_4 H 0.95758 0.467342 0.845552 . .
O1_5 O 0.3663(4) 0.3873(6) 0.7598(17) 0.0142 Uiso
C1_5 C 0.4189(6) 0.4139(10) 0.8183(22) 0.0110 Uiso
C2_5 C 0.4585(8) 0.4540(11) 0.6374(30) 0.0110 Uiso
C3_5 C 0.4442(5) 0.4587(9) 0.4240(31) 0.0110 Uiso
C4_5 C 0.4829(8) 0.5041(10) 0.3092(25) 0.0110 Uiso
O4_5 O 0.6337(4) 0.6127(6) 0.2402(17) 0.0142 Uiso
C5_5 C 0.5811(6) 0.5861(10) 0.1817(22) 0.0110 Uiso
C6_5 C 0.5415(8) 0.5460(11) 0.3626(30) 0.0110 Uiso
C7_5 C 0.5558(5) 0.5413(9) 0.5760(31) 0.0110 Uiso
C8_5 C 0.5171(8) 0.4959(10) 0.6908(25) 0.0110 Uiso
O9_5 O 0.2689(6) 0.3768(7) 0.3000(19) 0.0142 Uiso
O10_5 O 0.7101(4) 0.7745(7) 0.3667(19) 0.0142 Uiso
O11_5 O 0.2490(6) 0.3043(7) 0.6786(19) 0.0142 Uiso
H1_5 H 0.532658 0.490238 0.845552 . .
H2_5 H 0.467342 0.509762 0.154448 . .
C1_6 C 0.5861(10) 0.0049(8) 0.8183(22) 0.0110 Uiso
C2_6 C 0.5460(11) 0.0044(8) 0.6374(30) 0.0110 Uiso
O4_6 O 0.3873(6) 0.0211(4) 0.2402(17) 0.0142 Uiso
C7_6 C 0.4587(9) 0.0146(8) 0.5760(31) 0.0110 Uiso
C8_6 C 0.5041(10) 0.0213(6) 0.6908(25) 0.0110 Uiso
H1_6 H 0.509762 0.0424202 0.845552 . .
O1_6 O 0.6127(6) 0.9789(4) 0.7598(17) 0.0142 Uiso
C3_6 C 0.5413(9) 0.9854(8) 0.4240(31) 0.0110 Uiso
C4_6 C 0.4959(10) 0.9787(6) 0.3092(25) 0.0110 Uiso
C5_6 C 0.4139(10) 0.9951(8) 0.1817(22) 0.0110 Uiso
C6_6 C 0.4540(11) 0.9956(8) 0.3626(30) 0.0110 Uiso
O9_6 O 0.6232(7) 0.8922(4) 0.3000(19) 0.0142 Uiso
O10_6 O 0.2255(7) 0.9356(6) 0.3667(19) 0.0142 Uiso
O11_6 O 0.6957(7) 0.9448(4) 0.6786(19) 0.0142 Uiso
H2_6 H 0.490238 0.95758 0.154448 . .
C1_7 C 0.6617(8) 0.9145(6) 0.1517(22) 0.0110 Uiso
C8_7 C 0.6454(6) 0.8162(8) 0.0241(25) 0.0110 Uiso
H1_7 H 0.624246 0.800676 0.178885 . .
C2_7 C 0.6622(8) 0.8749(8) 0.9708(30) 0.0110 Uiso
C3_7 C 0.6812(8) 0.8892(5) 0.7574(31) 0.0110 Uiso
C4_7 C 0.6879(6) 0.8505(8) 0.6426(25) 0.0110 Uiso
C5_7 C 0.6716(8) 0.7522(6) 0.5150(22) 0.0110 Uiso
C6_7 C 0.6711(8) 0.7918(8) 0.6959(30) 0.0110 Uiso
C7_7 C 0.6521(8) 0.7775(5) 0.9093(31) 0.0110 Uiso
H2_7 H 0.709087 0.865991 0.487782 . .
C1_8 C 0.0855(6) 0.7473(10) 0.1517(22) 0.0110 Uiso
C8_8 C 0.1838(8) 0.8292(10) 0.0241(25) 0.0110 Uiso
H1_8 H 0.199324 0.823571 0.178885 . .
C2_8 C 0.1251(8) 0.7874(11) 0.9708(30) 0.0110 Uiso
C3_8 C 0.1108(5) 0.7921(9) 0.7574(31) 0.0110 Uiso
C4_8 C 0.1495(8) 0.8375(10) 0.6426(25) 0.0110 Uiso
C5_8 C 0.2478(6) 0.9194(10) 0.5150(22) 0.0110 Uiso
C6_8 C 0.2082(8) 0.8793(11) 0.6959(30) 0.0110 Uiso
C7_8 C 0.2225(5) 0.8746(9) 0.9093(31) 0.0110 Uiso
H2_8 H 0.134009 0.843096 0.487782 . .
C1_9 C 0.2527(10) 0.3383(8) 0.1517(22) 0.0110 Uiso
C8_9 C 0.1708(10) 0.3546(6) 0.0241(25) 0.0110 Uiso
H1_9 H 0.176429 0.375754 0.178885 . .
C2_9 C 0.2126(11) 0.3378(8) 0.9708(30) 0.0110 Uiso
C3_9 C 0.2079(9) 0.3188(8) 0.7574(31) 0.0110 Uiso
C4_9 C 0.1625(10) 0.3121(6) 0.6426(25) 0.0110 Uiso
C5_9 C 0.0806(10) 0.3284(8) 0.5150(22) 0.0110 Uiso
C6_9 C 0.1207(11) 0.3289(8) 0.6959(30) 0.0110 Uiso
C7_9 C 0.1254(9) 0.3479(8) 0.9093(31) 0.0110 Uiso
H2_9 H 0.156904 0.290913 0.487782 . .
loop_
_geom_bond_atom_site_label_1
_geom_bond_atom_site_label_2
_geom_bond_site_symmetry_1
_geom_bond_site_symmetry_2
Cu1 O1 1_555 1_555
O1 C1 1_555 1_555
O2 C1 1_555 1_555
O3 Cu1 1_555 1_555
C1 C2 1_555 1_555
C2 C3 1_555 1_555
C3 O3 1_555 1_555
O6 C7 1_555 1_555
C7 C6 1_555 1_555
C8 C2 1_555 1_555
Cu3 O1 1_555 1_555
Cu5 O2 1_555 1_555
Cu8 O6 1_555 1_555
O7 Cu1 1_555 1_555
O11 Cu1 1_555 1_555
C7 C8 1_555 1_555
Cu3 O11 1_555 1_555
C8 H1 1_555 1_555
O4 C5 1_555 1_555
O5 C5 1_555 1_555
Cu8 O5 1_555 1_555
Cu8 O13 1_555 1_555
C4 H2 1_555 1_555
O8 Cu2 1_555 1_555
O12 Cu2 1_555 1_555
O8_2 Cu2_2 1_555 1_555
O12_2 Cu2_2 1_555 1_555
Cu1_2 O1_2 1_555 1_555
O1_2 C1_2 1_555 1_555
O2_2 C1_2 1_555 1_555
O3_2 Cu1_2 1_555 1_555
C1_2 C2_2 1_555 1_555
C2_2 C3_2 1_555 1_555
C3_2 O3_2 1_555 1_555
O6_2 C7_2 1_555 1_555
C7_2 C6_2 1_555 1_555
C8_2 C2_2 1_555 1_555
Cu5_2 O2_2 1_555 1_555
Cu8_2 O6_2 1_555 1_555
C7_2 C8_2 1_555 1_555
C8_2 H1_2 1_555 1_555
O4_2 C5_2 1_555 1_555
O5_2 C5_2 1_555 1_555
Cu8_2 O5_2 1_555 1_555
Cu8_2 O13_2 1_555 1_555
C4_2 H2_2 1_555 1_555
Cu3_2 O11_2 1_555 1_555
Cu3_3 O11_3 1_555 1_555
Cu1_3 O1_3 1_555 1_555
O1_3 C1_3 1_555 1_555
O2_3 C1_3 1_555 1_555
O3_3 Cu1_3 1_555 1_555
C1_3 C2_3 1_555 1_555
C2_3 C3_3 1_555 1_555
C3_3 O3_3 1_555 1_555
O6_3 C7_3 1_555 1_555
C7_3 C6_3 1_555 1_555
C8_3 C2_3 1_555 1_555
Cu5_3 O2_3 1_555 1_555
Cu8_3 O6_3 1_555 1_555
O6_3 Cu6_3 1_555 1_555
C7_3 C8_3 1_555 1_555
C8_3 H1_3 1_555 1_555
O4_3 C5_3 1_555 1_555
O5_3 C5_3 1_555 1_555
Cu2_3 O4_3 1_555 1_555
Cu8_3 O5_3 1_555 1_555
O8_3 Cu2_3 1_555 1_555
O12_3 Cu2_3 1_555 1_555
O13_3 Cu2_3 1_555 1_555
Cu8_3 O8_3 1_555 1_555
Cu8_3 O13_3 1_555 1_555
C4_3 H2_3 1_555 1_555
Cu3_3 O1_4 1_555 1_555
C3_4 O11_3 1_555 1_555
C4_4 C3_4 1_555 1_555
O10_2 C5_4 1_555 1_555
C5_4 C6_4 1_555 1_555
C6_4 C4_4 1_555 1_555
O9_4 Cu3_3 1_555 1_555
O10_4 Cu6_2 1_555 1_555
O11_4 Cu3_3 1_555 1_555
C4_4 H2_4 1_555 1_555
O9_3 C1_4 1_555 1_555
C1_4 C2_4 1_555 1_555
O13_2 C7_4 1_555 1_555
C8_4 C2_4 1_555 1_555
Cu8_2 O4_4 1_555 1_555
C7_4 C8_4 1_555 1_555
C8_4 H1_4 1_555 1_555
Cu3 O1_5 1_555 1_555
O1_5 C1_5 1_555 1_555
O9 C1_5 1_555 1_555
C1_5 C2_5 1_555 1_555
C2_5 C3_5 1_555 1_555
C3_5 O11 1_555 1_555
C4_5 C3_5 1_555 1_555
O4_5 C5_5 1_555 1_555
O10_3 C5_5 1_555 1_555
O13_3 C7_5 1_555 1_555
C5_5 C6_5 1_555 1_555
C6_5 C4_5 1_555 1_555
C7_5 C6_5 1_555 1_555
C8_5 C2_5 1_555 1_555
Cu6_3 O4_5 1_555 1_555
Cu5 O1_5 1_555 1_555
Cu8_3 O4_5 1_555 1_555
O9_5 Cu3 1_555 1_555
O10_5 Cu6_3 1_555 1_555
O11_5 Cu3 1_555 1_555
C7_5 C8_5 1_555 1_555
Cu5 O11_5 1_555 1_555
C8_5 H1_5 1_555 1_555
C4_5 H2_5 1_555 1_555
O9_2 C1_6 1_555 1_555
C1_6 C2_6 1_555 1_555
O13 C7_6 1_555 1_555
C8_6 C2_6 1_555 1_555
Cu8 O4_6 1_555 1_555
C7_6 C8_6 1_555 1_555
C8_6 H1_6 1_555 1_555
Cu3_2 O1_6 1_555 1_555
C3_6 O11_2 1_555 1_555
C4_6 C3_6 1_555 1_555
O10 C5_6 1_555 1_555
C5_6 C6_6 1_555 1_555
C6_6 C4_6 1_555 1_555
O9_6 Cu3_2 1_555 1_555
O10_6 Cu6 1_555 1_555
O11_6 Cu3_2 1_555 1_555
C4_6 H2_6 1_555 1_555
O7_2 C1_7 1_555 1_555
O9_6 C1_7 1_555 1_555
C8_7 H1_7 1_555 1_555
C2_7 C3_7 1_555 1_555
C3_7 O11_6 1_555 1_555
C4_7 C3_7 1_555 1_555
O8_3 C5_7 1_555 1_555
O10_5 C5_7 1_555 1_555
O12_3 C7_7 1_555 1_555
C5_7 C6_7 1_555 1_555
C6_7 C4_7 1_555 1_555
C7_7 C6_7 1_555 1_555
C4_7 H2_7 1_555 1_555
O7_3 C1_8 1_555 1_555
O9_4 C1_8 1_555 1_555
C8_8 H1_8 1_555 1_555
C2_8 C3_8 1_555 1_555
C3_8 O11_4 1_555 1_555
C4_8 C3_8 1_555 1_555
O8 C5_8 1_555 1_555
O10_6 C5_8 1_555 1_555
O12 C7_8 1_555 1_555
C5_8 C6_8 1_555 1_555
C6_8 C4_8 1_555 1_555
C7_8 C6_8 1_555 1_555
C4_8 H2_8 1_555 1_555
O7 C1_9 1_555 1_555
O9_5 C1_9 1_555 1_555
C8_9 H1_9 1_555 1_555
C2_9 C3_9 1_555 1_555
C3_9 O11_5 1_555 1_555
C4_9 C3_9 1_555 1_555
O8_2 C5_9 1_555 1_555
O10_4 C5_9 1_555 1_555
O12_2 C7_9 1_555 1_555
C5_9 C6_9 1_555 1_555
C6_9 C4_9 1_555 1_555
C7_9 C6_9 1_555 1_555
C4_9 H2_9 1_555 1_555

#END
