
###############################################################################
#
# This file contains modified crystal structure data generated from the
# MOF subset of the Cambridge Structural Database (CSD) v543 
# hosted by the Cambridge Crystallographic Data Centre (CCDC).
#
# This work is licensed under the Creative Commons
# Attribution-NonCommercial-ShareAlike 4.0 International License.
# To view a copy of this license, visit
# http://creativecommons.org/licenses/by-nc-sa/4.0/
# or send a letter to
# Creative Commons, PO Box 1866, Mountain View, CA 94042, USA.
#
# CIF created using the CSD Python API on 29 September 2022
# The structure has been converted into the P1 space group
# The structure has a 3D framework
# The original CSD entry COKQOK is in the rhombohedral crystal system
# The framework has been calculated to contain at least 10.0% void space
# The void calculation uses a probe of radius 1.32A, grid spacing 0.4
# The framework is charged, counterions have been retained in the structure
#
###############################################################################

data_COKQOK
_chemical_formula_moiety         '(C72 H18 O54 Zn8 20-)n'
_symmetry_cell_setting           triclinic
_symmetry_space_group_name_H-M   'P 1'
_symmetry_Int_Tables_number      1
_space_group_name_Hall           'P 1'
loop_
_symmetry_equiv_pos_site_id
_symmetry_equiv_pos_as_xyz
1 x,y,z
_cell_length_a                   25.8870(16)
_cell_length_b                   25.887
_cell_length_c                   6.8210(6)
_cell_angle_alpha                90
_cell_angle_beta                 90
_cell_angle_gamma                120
_cell_volume                     3958.6
loop_
_atom_site_label
_atom_site_type_symbol
_atom_site_fract_x
_atom_site_fract_y
_atom_site_fract_z
Zn1 Zn 0.3836(9) 0.3524(9) 0.1355(21)
O1 O 0.3271(7) 0.2944(8) 0.3618(30)
O2 O 0.3033(8) 0.2283(8) 0.6077(27)
O3 O 0.3542(9) 0.2738(8) 0.0026(26)
C1 C 0.3160(8) 0.2447(8) 0.4295(22)
C2 C 0.3259(8) 0.2064(8) 0.2833(21)
C3 C 0.3412(8) 0.2202(8) 0.0939(22)
O6 O 0.3125(9) 0.0595(8) 0.3307(26)
C6 C 0.3408(8) 0.1269(8) 0.0500(21)
C7 C 0.3255(8) 0.1131(8) 0.2394(22)
C8 C 0.3174(8) 0.1526(9) 0.3610(25)
H2 H 0.3030(13) 0.1393(13) 0.486(4)
Zn3 Zn 0.3143(9) 0.3645(13) 0.4688(21)
Zn5 Zn 0.3021(13) 0.2831(9) 0.8022(21)
Zn8 Zn 0.3645(13) 0.0503(9) 0.5312(21)
O7 O 0.3006(11) 0.3396(7) 0.0285(30)
O11 O 0.3929(8) 0.4137(12) 0.3359(26)
C4 C 0.3493(8) 0.1807(9) 0.9723(25)
H1 H 0.3637(13) 0.1940(13) 0.847(4)
O4 O 0.3396(7) 0.0389(8) 0.9715(30)
O5 O 0.3634(8) 0.1050(8) 0.7256(27)
C5 C 0.3507(8) 0.0886(8) 0.9038(22)
O9 O 0.4384(8) 0.4083(11) 0.9410(27)
O13 O 0.4137(12) 0.0209(9) 0.6641(26)
Zn6 Zn 0.2831(9) 0.9809(9) 0.1978(21)
O10 O 0.4083(11) 0.9700(8) 0.0590(27)
Zn2 Zn 0.3524(9) 0.9688(13) 0.8645(21)
O8 O 0.2944(8) 0.9673(11) 0.6382(30)
O12 O 0.2738(8) 0.9196(12) 0.9974(26)
Zn6_2 Zn 0.0191(9) 0.3021(13) 0.1978(21)
O10_2 O 0.0300(8) 0.4384(14) 0.0590(27)
Zn2_2 Zn 0.0312(13) 0.3836(16) 0.8645(21)
O8_2 O 0.0327(11) 0.3271(14) 0.6382(30)
O12_2 O 0.0804(12) 0.3542(14) 0.9974(26)
Zn1_2 Zn 0.6476(9) 0.0312(13) 0.1355(21)
O1_2 O 0.7056(8) 0.0327(11) 0.3618(30)
O2_2 O 0.7717(8) 0.0750(11) 0.6077(27)
O3_2 O 0.7262(8) 0.0804(12) 0.0026(26)
C1_2 C 0.7553(8) 0.0713(11) 0.4295(22)
C2_2 C 0.7936(8) 0.1195(11) 0.2833(21)
C3_2 C 0.7798(8) 0.1210(11) 0.0939(22)
O6_2 O 0.9405(8) 0.2529(12) 0.3307(26)
C6_2 C 0.8731(8) 0.2138(11) 0.0500(21)
C7_2 C 0.8869(8) 0.2123(11) 0.2394(22)
C8_2 C 0.8474(9) 0.1647(12) 0.3610(25)
H2_2 H 0.8607(13) 0.1636(18) 0.486(4)
Zn5_2 Zn 0.7169(9) 0.0191(16) 0.8022(21)
Zn8_2 Zn 0.9497(9) 0.3143(16) 0.5312(21)
C4_2 C 0.8193(9) 0.1686(12) 0.9723(25)
H1_2 H 0.8060(13) 0.1697(18) 0.847(4)
O4_2 O 0.9611(8) 0.3006(11) 0.9715(30)
O5_2 O 0.8950(8) 0.2583(11) 0.7256(27)
C5_2 C 0.9114(8) 0.2620(11) 0.9038(22)
O9_2 O 0.5917(11) 0.0300(14) 0.9410(27)
O13_2 O 0.9791(9) 0.3929(15) 0.6641(26)
Zn3_2 Zn 0.6355(13) 0.9497(16) 0.4688(21)
O7_2 O 0.6604(7) 0.9611(13) 0.0285(30)
O11_2 O 0.5863(12) 0.9791(14) 0.3359(26)
Zn3_3 Zn 0.0503(16) 0.6857(9) 0.4688(21)
O7_3 O 0.0389(13) 0.6994(11) 0.0285(30)
O11_3 O 0.0209(14) 0.6071(8) 0.3359(26)
Zn1_3 Zn 0.9688(13) 0.6164(9) 0.1355(21)
O1_3 O 0.9673(11) 0.6729(7) 0.3618(30)
O2_3 O 0.9250(11) 0.6967(8) 0.6077(27)
O3_3 O 0.9196(12) 0.6458(9) 0.0026(26)
C1_3 C 0.9287(11) 0.6840(8) 0.4295(22)
C2_3 C 0.8805(11) 0.6741(8) 0.2833(21)
C3_3 C 0.8790(11) 0.6588(8) 0.0939(22)
O6_3 O 0.7471(12) 0.6875(9) 0.3307(26)
C6_3 C 0.7862(11) 0.6592(8) 0.0500(21)
C7_3 C 0.7877(11) 0.6745(8) 0.2394(22)
C8_3 C 0.8353(12) 0.6826(8) 0.3610(25)
H2_3 H 0.8364(18) 0.6970(13) 0.486(4)
Zn5_3 Zn 0.9809(16) 0.6979(13) 0.8022(21)
Zn6_3 Zn 0.6979(13) 0.7169(9) 0.1978(21)
Zn8_3 Zn 0.6857(16) 0.6355(13) 0.5312(21)
O10_3 O 0.5616(14) 0.5917(11) 0.0590(27)
C4_3 C 0.8314(12) 0.6507(8) 0.9723(25)
H1_3 H 0.8303(18) 0.6363(13) 0.847(4)
O4_3 O 0.6994(11) 0.6604(7) 0.9715(30)
O5_3 O 0.7417(11) 0.6366(8) 0.7256(27)
C5_3 C 0.7380(11) 0.6493(8) 0.9038(22)
Zn2_3 Zn 0.6164(16) 0.6476(9) 0.8645(21)
O8_3 O 0.6729(14) 0.7056(8) 0.6382(30)
O9_3 O 0.9700(14) 0.5616(8) 0.9410(27)
O12_3 O 0.6458(14) 0.7262(8) 0.9974(26)
O13_3 O 0.6071(15) 0.5863(12) 0.6641(26)
C3_4 C 0.0079(8) 0.5535(8) 0.4272(22)
C4_4 C 0.0160(8) 0.5140(9) 0.3056(25)
H1_4 H 0.0304(13) 0.5273(13) 0.180(4)
O4_4 O 0.0062(7) 0.3723(8) 0.3049(30)
C5_4 C 0.0173(8) 0.4220(8) 0.2372(22)
C6_4 C 0.0074(8) 0.4603(8) 0.3834(21)
O9_4 O 0.1050(8) 0.7417(11) 0.2744(27)
O10_4 O 0.0750(11) 0.3033(8) 0.3923(27)
O11_4 O 0.0595(8) 0.7471(12) 0.6693(26)
O1_4 O 0.9938(7) 0.6277(8) 0.6951(30)
C1_4 C 0.9827(8) 0.5780(8) 0.7628(22)
C2_4 C 0.9926(8) 0.5397(8) 0.6166(21)
C7_4 C 0.9921(8) 0.4465(8) 0.5728(22)
C8_4 C 0.9840(8) 0.4860(9) 0.6944(25)
H2_4 H 0.9696(13) 0.4727(13) 0.820(4)
O1_5 O 0.3723(8) 0.3660(11) 0.6951(30)
C1_5 C 0.4220(8) 0.4046(11) 0.7628(22)
C2_5 C 0.4603(8) 0.4528(11) 0.6166(21)
C3_5 C 0.4465(8) 0.4543(11) 0.4272(22)
C4_5 C 0.4860(9) 0.5019(12) 0.3056(25)
H1_5 H 0.4727(13) 0.5030(18) 0.180(4)
O4_5 O 0.6277(8) 0.6340(11) 0.3049(30)
C5_5 C 0.5780(8) 0.5954(11) 0.2372(22)
C6_5 C 0.5397(8) 0.5472(11) 0.3834(21)
C7_5 C 0.5535(8) 0.5457(11) 0.5728(22)
C8_5 C 0.5140(9) 0.4981(12) 0.6944(25)
H2_5 H 0.5273(13) 0.4970(18) 0.820(4)
O9_5 O 0.2583(11) 0.3634(14) 0.2744(27)
O10_5 O 0.6967(8) 0.7717(14) 0.3923(27)
O11_5 O 0.2529(12) 0.3125(14) 0.6693(26)
O1_6 O 0.6340(11) 0.0062(7) 0.6951(30)
C1_6 C 0.5954(11) 0.0173(8) 0.7628(22)
C2_6 C 0.5472(11) 0.0074(8) 0.6166(21)
C7_6 C 0.4543(11) 0.0079(8) 0.5728(22)
C8_6 C 0.5019(12) 0.0160(8) 0.6944(25)
H2_6 H 0.5030(18) 0.0304(13) 0.820(4)
C3_6 C 0.5457(11) 0.9921(8) 0.4272(22)
C4_6 C 0.4981(12) 0.9840(8) 0.3056(25)
H1_6 H 0.4970(18) 0.9696(13) 0.180(4)
O4_6 O 0.3660(11) 0.9938(7) 0.3049(30)
C5_6 C 0.4046(11) 0.9827(8) 0.2372(22)
C6_6 C 0.4528(11) 0.9926(8) 0.3834(21)
O9_6 O 0.6366(14) 0.8950(8) 0.2744(27)
O10_6 O 0.2283(14) 0.9250(11) 0.3923(27)
O11_6 O 0.6875(14) 0.9405(8) 0.6693(26)
C1_7 C 0.6493(8) 0.9114(8) 0.0962(22)
C8_7 C 0.6507(8) 0.8193(9) 0.0277(25)
H2_7 H 0.6363(13) 0.8060(13) 0.153(4)
C2_7 C 0.6592(8) 0.8731(8) 0.9500(21)
C3_7 C 0.6745(8) 0.8869(8) 0.7606(22)
C4_7 C 0.6826(8) 0.8474(9) 0.6390(25)
H1_7 H 0.6970(13) 0.8607(13) 0.514(4)
C5_7 C 0.6840(8) 0.7553(8) 0.5705(22)
C6_7 C 0.6741(8) 0.7936(8) 0.7167(21)
C7_7 C 0.6588(8) 0.7798(8) 0.9061(22)
C1_8 C 0.0886(8) 0.7380(11) 0.0962(22)
C8_8 C 0.1807(9) 0.8314(12) 0.0277(25)
H2_8 H 0.1940(13) 0.8303(18) 0.153(4)
C2_8 C 0.1269(8) 0.7862(11) 0.9500(21)
C3_8 C 0.1131(8) 0.7877(11) 0.7606(22)
C4_8 C 0.1526(9) 0.8353(12) 0.6390(25)
H1_8 H 0.1393(13) 0.8364(18) 0.514(4)
C5_8 C 0.2447(8) 0.9287(11) 0.5705(22)
C6_8 C 0.2064(8) 0.8805(11) 0.7167(21)
C7_8 C 0.2202(8) 0.8790(11) 0.9061(22)
C1_9 C 0.2620(11) 0.3507(8) 0.0962(22)
C8_9 C 0.1686(12) 0.3493(8) 0.0277(25)
H2_9 H 0.1697(18) 0.3637(13) 0.153(4)
C2_9 C 0.2138(11) 0.3408(8) 0.9500(21)
C3_9 C 0.2123(11) 0.3255(8) 0.7606(22)
C4_9 C 0.1647(12) 0.3174(8) 0.6390(25)
H1_9 H 0.1636(18) 0.3030(13) 0.514(4)
C5_9 C 0.0713(11) 0.3160(8) 0.5705(22)
C6_9 C 0.1195(11) 0.3259(8) 0.7167(21)
C7_9 C 0.1210(11) 0.3412(8) 0.9061(22)
loop_
_geom_bond_atom_site_label_1
_geom_bond_atom_site_label_2
_geom_bond_site_symmetry_1
_geom_bond_site_symmetry_2
Zn1 O1 1_555 1_555
O1 C1 1_555 1_555
O2 C1 1_555 1_555
O3 Zn1 1_555 1_555
C1 C2 1_555 1_555
C2 C3 1_555 1_555
C3 O3 1_555 1_555
O6 C7 1_555 1_555
C7 C6 1_555 1_555
C8 C2 1_555 1_555
H2 C8 1_555 1_555
Zn3 O1 1_555 1_555
Zn5 O2 1_555 1_555
Zn8 O6 1_555 1_555
O7 Zn1 1_555 1_555
O11 Zn1 1_555 1_555
C7 C8 1_555 1_555
Zn3 O11 1_555 1_555
H1 C4 1_555 1_555
O4 C5 1_555 1_555
O5 C5 1_555 1_555
Zn8 O5 1_555 1_555
Zn8 O13 1_555 1_555
O8 Zn2 1_555 1_555
O12 Zn2 1_555 1_555
O8_2 Zn2_2 1_555 1_555
O12_2 Zn2_2 1_555 1_555
Zn1_2 O1_2 1_555 1_555
O1_2 C1_2 1_555 1_555
O2_2 C1_2 1_555 1_555
O3_2 Zn1_2 1_555 1_555
C1_2 C2_2 1_555 1_555
C2_2 C3_2 1_555 1_555
C3_2 O3_2 1_555 1_555
O6_2 C7_2 1_555 1_555
C7_2 C6_2 1_555 1_555
C8_2 C2_2 1_555 1_555
H2_2 C8_2 1_555 1_555
Zn5_2 O2_2 1_555 1_555
Zn8_2 O6_2 1_555 1_555
C7_2 C8_2 1_555 1_555
H1_2 C4_2 1_555 1_555
O4_2 C5_2 1_555 1_555
O5_2 C5_2 1_555 1_555
Zn8_2 O5_2 1_555 1_555
Zn8_2 O13_2 1_555 1_555
Zn3_2 O11_2 1_555 1_555
Zn3_3 O11_3 1_555 1_555
Zn1_3 O1_3 1_555 1_555
O1_3 C1_3 1_555 1_555
O2_3 C1_3 1_555 1_555
O3_3 Zn1_3 1_555 1_555
C1_3 C2_3 1_555 1_555
C2_3 C3_3 1_555 1_555
C3_3 O3_3 1_555 1_555
O6_3 C7_3 1_555 1_555
C7_3 C6_3 1_555 1_555
C8_3 C2_3 1_555 1_555
H2_3 C8_3 1_555 1_555
Zn5_3 O2_3 1_555 1_555
Zn8_3 O6_3 1_555 1_555
O6_3 Zn6_3 1_555 1_555
C7_3 C8_3 1_555 1_555
H1_3 C4_3 1_555 1_555
O4_3 C5_3 1_555 1_555
O5_3 C5_3 1_555 1_555
Zn2_3 O4_3 1_555 1_555
Zn8_3 O5_3 1_555 1_555
O8_3 Zn2_3 1_555 1_555
O12_3 Zn2_3 1_555 1_555
O13_3 Zn2_3 1_555 1_555
Zn8_3 O8_3 1_555 1_555
Zn8_3 O13_3 1_555 1_555
C3_4 O11_3 1_555 1_555
C4_4 C3_4 1_555 1_555
H1_4 C4_4 1_555 1_555
O4_4 C5_4 1_555 1_555
O10_2 C5_4 1_555 1_555
C5_4 C6_4 1_555 1_555
C6_4 C4_4 1_555 1_555
Zn6_2 O4_4 1_555 1_555
O9_4 Zn3_3 1_555 1_555
O10_4 Zn6_2 1_555 1_555
O11_4 Zn3_3 1_555 1_555
O1_4 C1_4 1_555 1_555
O9_3 C1_4 1_555 1_555
C1_4 C2_4 1_555 1_555
O13_2 C7_4 1_555 1_555
C8_4 C2_4 1_555 1_555
H2_4 C8_4 1_555 1_555
Zn5_3 O1_4 1_555 1_555
C7_4 C8_4 1_555 1_555
Zn3 O1_5 1_555 1_555
O1_5 C1_5 1_555 1_555
O9 C1_5 1_555 1_555
C1_5 C2_5 1_555 1_555
C2_5 C3_5 1_555 1_555
C3_5 O11 1_555 1_555
C4_5 C3_5 1_555 1_555
H1_5 C4_5 1_555 1_555
O4_5 C5_5 1_555 1_555
O10_3 C5_5 1_555 1_555
O13_3 C7_5 1_555 1_555
C5_5 C6_5 1_555 1_555
C6_5 C4_5 1_555 1_555
C7_5 C6_5 1_555 1_555
C8_5 C2_5 1_555 1_555
H2_5 C8_5 1_555 1_555
Zn6_3 O4_5 1_555 1_555
Zn5 O1_5 1_555 1_555
Zn8_3 O4_5 1_555 1_555
O9_5 Zn3 1_555 1_555
O10_5 Zn6_3 1_555 1_555
O11_5 Zn3 1_555 1_555
C7_5 C8_5 1_555 1_555
Zn5 O11_5 1_555 1_555
O1_6 C1_6 1_555 1_555
O9_2 C1_6 1_555 1_555
C1_6 C2_6 1_555 1_555
O13 C7_6 1_555 1_555
C8_6 C2_6 1_555 1_555
H2_6 C8_6 1_555 1_555
Zn5_2 O1_6 1_555 1_555
C7_6 C8_6 1_555 1_555
C3_6 O11_2 1_555 1_555
C4_6 C3_6 1_555 1_555
H1_6 C4_6 1_555 1_555
O4_6 C5_6 1_555 1_555
O10 C5_6 1_555 1_555
C5_6 C6_6 1_555 1_555
C6_6 C4_6 1_555 1_555
Zn6 O4_6 1_555 1_555
O9_6 Zn3_2 1_555 1_555
O10_6 Zn6 1_555 1_555
O11_6 Zn3_2 1_555 1_555
O7_2 C1_7 1_555 1_555
O9_6 C1_7 1_555 1_555
H2_7 C8_7 1_555 1_555
C2_7 C3_7 1_555 1_555
C3_7 O11_6 1_555 1_555
C4_7 C3_7 1_555 1_555
H1_7 C4_7 1_555 1_555
O8_3 C5_7 1_555 1_555
O10_5 C5_7 1_555 1_555
O12_3 C7_7 1_555 1_555
C5_7 C6_7 1_555 1_555
C6_7 C4_7 1_555 1_555
C7_7 C6_7 1_555 1_555
O7_3 C1_8 1_555 1_555
O9_4 C1_8 1_555 1_555
H2_8 C8_8 1_555 1_555
C2_8 C3_8 1_555 1_555
C3_8 O11_4 1_555 1_555
C4_8 C3_8 1_555 1_555
H1_8 C4_8 1_555 1_555
O8 C5_8 1_555 1_555
O10_6 C5_8 1_555 1_555
O12 C7_8 1_555 1_555
C5_8 C6_8 1_555 1_555
C6_8 C4_8 1_555 1_555
C7_8 C6_8 1_555 1_555
O7 C1_9 1_555 1_555
O9_5 C1_9 1_555 1_555
H2_9 C8_9 1_555 1_555
C2_9 C3_9 1_555 1_555
C3_9 O11_5 1_555 1_555
C4_9 C3_9 1_555 1_555
H1_9 C4_9 1_555 1_555
O8_2 C5_9 1_555 1_555
O10_4 C5_9 1_555 1_555
O12_2 C7_9 1_555 1_555
C5_9 C6_9 1_555 1_555
C6_9 C4_9 1_555 1_555
C7_9 C6_9 1_555 1_555

#END
