
###############################################################################
#
# This file contains modified crystal structure data generated from the
# MOF subset of the Cambridge Structural Database (CSD) v543 
# hosted by the Cambridge Crystallographic Data Centre (CCDC).
#
# This work is licensed under the Creative Commons
# Attribution-NonCommercial-ShareAlike 4.0 International License.
# To view a copy of this license, visit
# http://creativecommons.org/licenses/by-nc-sa/4.0/
# or send a letter to
# Creative Commons, PO Box 1866, Mountain View, CA 94042, USA.
#
# CIF created using the CSD Python API on 29 September 2022
# The structure has been converted into the P1 space group
# The structure has a 3D framework
# The original CSD entry COMDOY is in the orthorhombic crystal system
# The framework has been calculated to contain at least 10.0% void space
# The void calculation uses a probe of radius 1.32A, grid spacing 0.4
# H atom positions have been added when not included in the experimental data
# Generated hydrogen atom positions removed from atoms on special positions
#
###############################################################################

data_COMDOY
_chemical_formula_moiety         '(C32 H27 Ga4 O19)n'
_symmetry_cell_setting           triclinic
_symmetry_space_group_name_H-M   'P 1'
_symmetry_Int_Tables_number      1
_space_group_name_Hall           'P 1'
loop_
_symmetry_equiv_pos_site_id
_symmetry_equiv_pos_as_xyz
1 x,y,z
_cell_length_a                   18.23(2)
_cell_length_b                   6.734(8)
_cell_length_c                   11.062(12)
_cell_angle_alpha                90
_cell_angle_beta                 90
_cell_angle_gamma                90
_cell_volume                     1357.98
loop_
_atom_site_label
_atom_site_type_symbol
_atom_site_fract_x
_atom_site_fract_y
_atom_site_fract_z
Ga1 Ga 0.0000 0.0000 0.5000
O1 O 0.0000 0.2500 0.5792(6)
O2 O 0.0790(3) 0.0892(10) 0.3885(5)
C1 C 0.1813(4) 0.2500 0.3052(8)
C2 C 0.1058(4) 0.2500 0.3661(7)
C3 C 0.2153(4) 0.0791(17) 0.2776(9)
Ga2 Ga -0.0000 0.5000 0.5000
Ga3 Ga 0.5000 0.0000 0.0000
Ga4 Ga 0.5000 0.5000 0.0000
O4 O 0.0790(3) 0.4108(10) 0.3885(5)
O5 O 0.4210(3) 0.0892(10) 0.1115(5)
O6 O 0.4210(3) 0.4108(10) 0.1115(5)
C4 C 0.3187(4) 0.2500 0.1948(8)
C5 C 0.3942(4) 0.2500 0.1339(7)
C6 C 0.2847(4) 0.0791(17) 0.2224(9)
C7 C 0.2847(4) 0.4209(17) 0.2224(9)
C8 C 0.2153(4) 0.4209(17) 0.2776(9)
H4 H 0.1926 0.5411 0.2952
H5 H 0.3074 0.5411 0.2048
Ga3_2 Ga 0.5000 0.0000 1.0000
Ga4_2 Ga 0.5000 0.5000 1.0000
Ga1_2 Ga 0.0000 1.0000 0.5000
H2 H 0.1926 0.9589 0.2952
Ga3_3 Ga 0.5000 1.0000 0.0000
O3 O 0.0000 0.7500 0.4208(6)
O7 O 0.0790(3) 0.9108(10) 0.6115(5)
H6 H 0.3074 0.9589 0.2048
Ga3_4 Ga 0.5000 1.0000 1.0000
Ga1_3 Ga 1.0000 0.0000 0.5000
O1_2 O 1.0000 0.2500 0.5792(6)
Ga2_2 Ga 1.0000 0.5000 0.5000
O9 O 0.9210(3) 0.0892(10) 0.3885(5)
Ga1_4 Ga 1.0000 1.0000 0.5000
O3_2 O 1.0000 0.7500 0.4208(6)
O8 O 0.9210(3) 0.9108(10) 0.6115(5)
O8_2 O 0.0790(3) 0.5892(10) 0.6115(5)
O2_2 O 0.9210(3) 0.4108(10) 0.3885(5)
C1_2 C 0.8187(4) 0.2500 0.3052(8)
C2_2 C 0.8942(4) 0.2500 0.3661(7)
C3_2 C 0.7847(4) 0.4209(17) 0.2776(9)
H2_2 H 0.8074 0.5411 0.2952
O5_2 O 0.5790(3) 0.4108(10) 0.1115(5)
O6_2 O 0.5790(3) 0.0892(10) 0.1115(5)
O7_2 O 0.9210(3) 0.5892(10) 0.6115(5)
C4_2 C 0.6813(4) 0.2500 0.1948(8)
C5_2 C 0.6058(4) 0.2500 0.1339(7)
C6_2 C 0.7153(4) 0.4209(17) 0.2224(9)
C7_2 C 0.7153(4) 0.0791(17) 0.2224(9)
C8_2 C 0.7847(4) 0.0791(17) 0.2776(9)
H6_2 H 0.6926 0.5411 0.2048
H4_2 H 0.8074 0.9589 0.2952
H5_2 H 0.6926 0.9589 0.2048
H4_3 H 0.8074 0.0411 0.7048
H5_3 H 0.6926 0.0411 0.7952
C1_3 C 0.8187(4) 0.7500 0.6948(8)
C2_3 C 0.8942(4) 0.7500 0.6339(7)
C3_3 C 0.7847(4) 0.5791(17) 0.7224(9)
H2_3 H 0.8074 0.4589 0.7048
O5_3 O 0.5790(3) 0.5892(10) 0.8885(5)
O6_3 O 0.5790(3) 0.9108(10) 0.8885(5)
C4_3 C 0.6813(4) 0.7500 0.8052(8)
C5_3 C 0.6058(4) 0.7500 0.8661(7)
C6_3 C 0.7153(4) 0.5791(17) 0.7776(9)
C7_3 C 0.7153(4) 0.9209(17) 0.7776(9)
C8_3 C 0.7847(4) 0.9209(17) 0.7224(9)
H6_3 H 0.6926 0.4589 0.7952
H2_4 H 0.1926 0.0411 0.7048
H6_4 H 0.3074 0.0411 0.7952
C1_4 C 0.1813(4) 0.7500 0.6948(8)
C2_4 C 0.1058(4) 0.7500 0.6339(7)
C3_4 C 0.2153(4) 0.9209(17) 0.7224(9)
O5_4 O 0.4210(3) 0.9108(10) 0.8885(5)
O6_4 O 0.4210(3) 0.5892(10) 0.8885(5)
C4_4 C 0.3187(4) 0.7500 0.8052(8)
C5_4 C 0.3942(4) 0.7500 0.8661(7)
C6_4 C 0.2847(4) 0.9209(17) 0.7776(9)
C7_4 C 0.2847(4) 0.5791(17) 0.7776(9)
C8_4 C 0.2153(4) 0.5791(17) 0.7224(9)
H4_4 H 0.1926 0.4589 0.7048
H5_4 H 0.3074 0.4589 0.7952
O1_3 O 0.5000 0.7500 0.0792(6)
O3_3 O 0.5000 0.2500 0.9208(6)
loop_
_geom_bond_atom_site_label_1
_geom_bond_atom_site_label_2
_geom_bond_site_symmetry_1
_geom_bond_site_symmetry_2
Ga1 O1 1_555 1_555
O2 Ga1 1_555 1_555
C1 C2 1_555 1_555
C2 O2 1_555 1_555
C3 C1 1_555 1_555
Ga2 O1 1_555 1_555
Ga3 O5 1_555 1_555
Ga4 O6 1_555 1_555
O4 C2 1_555 1_555
O5 C5 1_555 1_555
O6 C5 1_555 1_555
C4 C5 1_555 1_555
C6 C3 1_555 1_555
C7 C4 1_555 1_555
C8 C1 1_555 1_555
H4 C8 1_555 1_555
H5 C7 1_555 1_555
Ga2 O4 1_555 1_555
C4 C6 1_555 1_555
C7 C8 1_555 1_555
O3 Ga1_2 1_555 1_555
O7 Ga1_2 1_555 1_555
Ga1_3 O1_2 1_555 1_555
Ga2_2 O1_2 1_555 1_555
O9 Ga1_3 1_555 1_555
O3_2 Ga1_4 1_555 1_555
O8 Ga1_4 1_555 1_555
O3 Ga2 1_555 1_555
O8_2 Ga2 1_555 1_555
O2_2 Ga2_2 1_555 1_555
C1_2 C2_2 1_555 1_555
C2_2 O2_2 1_555 1_555
C3_2 C1_2 1_555 1_555
H2_2 C3_2 1_555 1_555
Ga4 O5_2 1_555 1_555
Ga3 O6_2 1_555 1_555
O3_2 Ga2_2 1_555 1_555
O9 C2_2 1_555 1_555
O5_2 C5_2 1_555 1_555
O6_2 C5_2 1_555 1_555
O7_2 Ga2_2 1_555 1_555
C4_2 C5_2 1_555 1_555
C6_2 C3_2 1_555 1_555
C7_2 C4_2 1_555 1_555
C8_2 C1_2 1_555 1_555
H6_2 C6_2 1_555 1_555
C4_2 C6_2 1_555 1_555
C7_2 C8_2 1_555 1_555
C1_3 C2_3 1_555 1_555
C2_3 O7_2 1_555 1_555
C3_3 C1_3 1_555 1_555
H2_3 C3_3 1_555 1_555
Ga4_2 O5_3 1_555 1_555
Ga3_4 O6_3 1_555 1_555
O8 C2_3 1_555 1_555
O5_3 C5_3 1_555 1_555
O6_3 C5_3 1_555 1_555
C4_3 C5_3 1_555 1_555
C6_3 C3_3 1_555 1_555
C7_3 C4_3 1_555 1_555
C8_3 C1_3 1_555 1_555
H6_3 C6_3 1_555 1_555
C4_3 C6_3 1_555 1_555
C7_3 C8_3 1_555 1_555
C1_4 C2_4 1_555 1_555
C2_4 O7 1_555 1_555
C3_4 C1_4 1_555 1_555
Ga3_4 O5_4 1_555 1_555
Ga4_2 O6_4 1_555 1_555
O8_2 C2_4 1_555 1_555
O5_4 C5_4 1_555 1_555
O6_4 C5_4 1_555 1_555
C4_4 C5_4 1_555 1_555
C6_4 C3_4 1_555 1_555
C7_4 C4_4 1_555 1_555
C8_4 C1_4 1_555 1_555
H4_4 C8_4 1_555 1_555
H5_4 C7_4 1_555 1_555
C4_4 C6_4 1_555 1_555
C7_4 C8_4 1_555 1_555
Ga4 O1_3 1_555 1_555
Ga3_3 O1_3 1_555 1_555
O3_3 Ga4_2 1_555 1_555
O3_3 Ga3_2 1_555 1_555

#END
