
###############################################################################
#
# This file contains modified crystal structure data generated from the
# MOF subset of the Cambridge Structural Database (CSD) v543 
# hosted by the Cambridge Crystallographic Data Centre (CCDC).
#
# This work is licensed under the Creative Commons
# Attribution-NonCommercial-ShareAlike 4.0 International License.
# To view a copy of this license, visit
# http://creativecommons.org/licenses/by-nc-sa/4.0/
# or send a letter to
# Creative Commons, PO Box 1866, Mountain View, CA 94042, USA.
#
# CIF created using the CSD Python API on 29 September 2022
# The structure has been converted into the P1 space group
# The structure has a 3D framework
# The original CSD entry COMMEZ is in the monoclinic crystal system
# The framework has been calculated to contain at least 10.0% void space
# The void calculation uses a probe of radius 1.32A, grid spacing 0.4
#
###############################################################################

data_COMMEZ
_chemical_formula_moiety         '(C56 H40 La8 N8 O56 S6)n'
_symmetry_cell_setting           triclinic
_symmetry_space_group_name_H-M   'P 1'
_symmetry_Int_Tables_number      1
_space_group_name_Hall           'P 1'
loop_
_symmetry_equiv_pos_site_id
_symmetry_equiv_pos_as_xyz
1 x,y,z
_cell_length_a                   8.95320(10)
_cell_length_b                   14.1061(3)
_cell_length_c                   21.7625(4)
_cell_angle_alpha                90
_cell_angle_beta                 94.323(2)
_cell_angle_gamma                90
_cell_volume                     2740.67
loop_
_atom_site_label
_atom_site_type_symbol
_atom_site_fract_x
_atom_site_fract_y
_atom_site_fract_z
La1 La 0.46628(2) 0.56095(2) 0.36936(2)
S1 S 0.250000 0.47716(8) 0.500000
O1 O 0.1073(3) 0.0338(2) 0.23770(11)
O2 O 0.5466(2) 0.39412(17) 0.38420(11)
O3 O 0.2729(3) 0.04121(18) 0.16796(11)
O4 O 0.1563(3) 0.41544(19) 0.45847(11)
O5 O 0.3430(3) 0.5384(2) 0.46384(11)
O6 O 0.7394(3) 0.33824(19) 0.33567(13)
N1 N 0.4556(3) 0.1542(2) 0.23484(13)
O7 O 0.5067(3) 0.7373(2) 0.39838(15)
H1 H 0.474827 0.748535 0.435157
H2 H 0.449090 0.774886 0.374167
C1 C 0.6057(3) 0.3372(2) 0.34881(15)
C2 C 0.5061(3) 0.2609(2) 0.31975(15)
C3 C 0.3265(3) 0.1298(2) 0.25906(15)
C4 C 0.2277(4) 0.0633(2) 0.21969(16)
C5 C 0.2835(4) 0.1663(3) 0.31373(15)
H3 H 0.196164 0.145542 0.330035
C6 C 0.5429(3) 0.2172(3) 0.26580(16)
H4 H 0.633854 0.232773 0.250366
C7 C 0.3734(4) 0.2350(3) 0.34417(16)
H5 H 0.344929 0.262920 0.380182
O8 O 0.3437(3) 0.41544(19) 0.54153(11)
O9 O 0.1570(3) 0.5384(2) 0.53616(11)
La2 La 0.03372(2) 0.56095(2) 0.63064(2)
O10 O 0.3927(3) 0.0338(2) 0.76230(11)
O12 O 0.2271(3) 0.04121(18) 0.83204(11)
N2 N 0.0444(3) 0.1542(2) 0.76516(13)
H6 H 0.025173 0.748535 0.564843
H7 H 0.050910 0.774886 0.625833
C10 C 0.1735(3) 0.1298(2) 0.74094(15)
C11 C 0.2723(4) 0.0633(2) 0.78031(16)
C12 C 0.2165(4) 0.1663(3) 0.68627(15)
H8 H 0.303836 0.145542 0.669965
C14 C 0.1266(4) 0.2350(3) 0.65583(16)
H10 H 0.155071 0.262920 0.619818
La4 La 0.53372(2) 0.06095(2) 0.13064(2)
La6 La 0.53372(2) 0.43905(2) 0.63064(2)
La8 La 0.96628(2) 0.43905(2) 0.36936(2)
O15 O 0.3927(3) 0.4662(2) 0.26230(11)
O16 O 0.1073(3) 0.4662(2) 0.73770(11)
O18 O 0.7271(3) 0.54121(18) 0.33204(11)
O19 O 0.2271(3) 0.45879(18) 0.33204(11)
O20 O 0.2729(3) 0.45879(18) 0.66796(11)
O22 O 0.6563(3) 0.58456(19) 0.45847(11)
O23 O 0.2606(3) 0.66176(19) 0.66433(13)
O24 O 0.2394(3) 0.66176(19) 0.33567(13)
N4 N 0.5444(3) 0.6542(2) 0.26516(13)
La9 La 0.03372(2) 0.93905(2) 0.13064(2)
La10 La 0.46628(2) 0.93905(2) 0.86936(2)
O11 O 0.9534(2) 0.39412(17) 0.61580(11)
O13 O 0.7606(3) 0.33824(19) 0.66433(13)
O14 O 0.9933(3) 0.7373(2) 0.60162(15)
C8 C 0.8943(3) 0.3372(2) 0.65119(15)
C9 C 0.9939(3) 0.2609(2) 0.68025(15)
C13 C 0.9571(3) 0.2172(3) 0.73420(16)
H9 H 0.866146 0.232773 0.749634
La3 La 0.96628(2) 0.06095(2) 0.86936(2)
O17 O 0.7729(3) 0.54121(18) 0.66796(11)
O21 O 0.8437(3) 0.58456(19) 0.54153(11)
N3 N 0.9556(3) 0.6542(2) 0.73484(13)
O7_2 O 0.0067(3) 0.2373(2) 0.89838(15)
O22_2 O 0.1563(3) 0.08456(19) 0.95847(11)
O2_2 O 0.0466(2) 0.89412(17) 0.88420(11)
O6_2 O 0.2394(3) 0.83824(19) 0.83567(13)
C1_2 C 0.1057(3) 0.8372(2) 0.84881(15)
C2_2 C 0.0061(3) 0.7609(2) 0.81975(15)
C6_2 C 0.0429(3) 0.7172(3) 0.76580(16)
H4_2 H 0.133854 0.732773 0.750366
O9_2 O 0.6570(3) 0.0384(2) 0.03616(11)
O14_2 O 0.4933(3) 0.2373(2) 0.10162(15)
H6_2 H 0.525173 0.248535 0.064843
H7_2 H 0.550910 0.274886 0.125833
O21_2 O 0.3437(3) 0.08456(19) 0.04153(11)
O23_2 O 0.7606(3) 0.16176(19) 0.16433(13)
O5_2 O 0.8430(3) 0.0384(2) 0.96384(11)
H1_2 H 0.974827 0.248535 0.935157
H2_2 H 0.949090 0.274886 0.874167
O24_2 O 0.7394(3) 0.16176(19) 0.83567(13)
S1_2 S 0.750000 0.97716(8) 0.000000
O8_2 O 0.8437(3) 0.91544(19) 0.04153(11)
O10_2 O 0.8927(3) 0.5338(2) 0.26230(11)
O11_2 O 0.4534(2) 0.89412(17) 0.11580(11)
O13_2 O 0.2606(3) 0.83824(19) 0.16433(13)
C8_2 C 0.3943(3) 0.8372(2) 0.15119(15)
C9_2 C 0.4939(3) 0.7609(2) 0.18025(15)
C10_2 C 0.6735(3) 0.6298(2) 0.24094(15)
C11_2 C 0.7723(4) 0.5633(2) 0.28031(16)
C12_2 C 0.7165(4) 0.6663(3) 0.18627(15)
H8_2 H 0.803836 0.645542 0.169965
C13_2 C 0.4571(3) 0.7172(3) 0.23420(16)
H9_2 H 0.366146 0.732773 0.249634
C14_2 C 0.6266(4) 0.7350(3) 0.15583(16)
H10_2 H 0.655071 0.762920 0.119818
O16_2 O 0.6073(3) 0.9662(2) 0.23770(11)
O20_2 O 0.7729(3) 0.95879(18) 0.16796(11)
S1_3 S 0.750000 0.97716(8) 1.000000
O1_2 O 0.6073(3) 0.5338(2) 0.73770(11)
O4_2 O 0.6563(3) 0.91544(19) 0.95847(11)
C3_2 C 0.8265(3) 0.6298(2) 0.75906(15)
C4_2 C 0.7277(4) 0.5633(2) 0.71969(16)
C5_2 C 0.7835(4) 0.6663(3) 0.81373(15)
H3_2 H 0.696164 0.645542 0.830035
C7_2 C 0.8734(4) 0.7350(3) 0.84417(16)
H5_2 H 0.844929 0.762920 0.880182
O15_2 O 0.8927(3) 0.9662(2) 0.76230(11)
O19_2 O 0.7271(3) 0.95879(18) 0.83204(11)
O11_3 O 0.0466(2) 0.60588(17) 0.38420(11)
O14_3 O 0.0067(3) 0.2627(2) 0.39838(15)
C8_3 C 0.1057(3) 0.6628(2) 0.34881(15)
C9_3 C 0.0061(3) 0.7391(2) 0.31975(15)
C13_3 C 0.0429(3) 0.7828(3) 0.26580(16)
H9_3 H 0.133854 0.767227 0.250366
N3_2 N 0.0444(3) 0.3458(2) 0.26516(13)
S1_4 S 0.750000 0.52284(8) 0.500000
O2_3 O 0.4534(2) 0.60588(17) 0.61580(11)
O5_3 O 0.6570(3) 0.4616(2) 0.53616(11)
N1_2 N 0.5444(3) 0.8458(2) 0.76516(13)
O7_3 O 0.4933(3) 0.2627(2) 0.60162(15)
H1_3 H 0.525173 0.251465 0.564843
H2_3 H 0.550910 0.225114 0.625833
C1_3 C 0.3943(3) 0.6628(2) 0.65119(15)
C2_3 C 0.4939(3) 0.7391(2) 0.68025(15)
C3_3 C 0.6735(3) 0.8702(2) 0.74094(15)
C4_3 C 0.7723(4) 0.9367(2) 0.78031(16)
C5_3 C 0.7165(4) 0.8337(3) 0.68627(15)
H3_3 H 0.803836 0.854458 0.669965
C6_3 C 0.4571(3) 0.7828(3) 0.73420(16)
H4_3 H 0.366146 0.767227 0.749634
C7_3 C 0.6266(4) 0.7650(3) 0.65583(16)
H5_3 H 0.655071 0.737080 0.619818
O9_3 O 0.8430(3) 0.4616(2) 0.46384(11)
N2_2 N 0.9556(3) 0.8458(2) 0.23484(13)
H6_3 H 0.974827 0.251465 0.435157
H7_3 H 0.949090 0.225114 0.374167
C10_3 C 0.8265(3) 0.8702(2) 0.25906(15)
C11_3 C 0.7277(4) 0.9367(2) 0.21969(16)
C12_3 C 0.7835(4) 0.8337(3) 0.31373(15)
H8_3 H 0.696164 0.854458 0.330035
C14_3 C 0.8734(4) 0.7650(3) 0.34417(16)
H10_3 H 0.844929 0.737080 0.380182
N4_2 N 0.4556(3) 0.3458(2) 0.73484(13)
S1_5 S 0.250000 0.02284(8) 0.000000
C3_4 C 0.1735(3) 0.3702(2) 0.24094(15)
C4_4 C 0.2723(4) 0.4367(2) 0.28031(16)
C5_4 C 0.2165(4) 0.3337(3) 0.18627(15)
H3_4 H 0.303836 0.354458 0.169965
C7_4 C 0.1266(4) 0.2650(3) 0.15583(16)
H5_4 H 0.155071 0.237080 0.119818
S1_6 S 0.250000 0.02284(8) 1.000000
O11_4 O 0.5466(2) 0.10588(17) 0.88420(11)
C8_4 C 0.6057(3) 0.1628(2) 0.84881(15)
C9_4 C 0.5061(3) 0.2391(2) 0.81975(15)
C10_4 C 0.3265(3) 0.3702(2) 0.75906(15)
C11_4 C 0.2277(4) 0.4367(2) 0.71969(16)
C12_4 C 0.2835(4) 0.3337(3) 0.81373(15)
H8_4 H 0.196164 0.354458 0.830035
C13_4 C 0.5429(3) 0.2828(3) 0.76580(16)
H9_4 H 0.633854 0.267227 0.750366
C14_4 C 0.3734(4) 0.2650(3) 0.84417(16)
H10_4 H 0.344929 0.237080 0.880182
O5_4 O 0.1570(3) 0.9616(2) 0.03616(11)
H1_4 H 0.025173 0.751465 0.064843
H2_4 H 0.050910 0.725114 0.125833
O9_4 O 0.3430(3) 0.9616(2) 0.96384(11)
O14_4 O 0.5067(3) 0.7627(2) 0.89838(15)
H6_4 H 0.474827 0.751465 0.935157
H7_4 H 0.449090 0.725114 0.874167
O2_4 O 0.9534(2) 0.10588(17) 0.11580(11)
C1_4 C 0.8943(3) 0.1628(2) 0.15119(15)
C2_4 C 0.9939(3) 0.2391(2) 0.18025(15)
C6_4 C 0.9571(3) 0.2828(3) 0.23420(16)
H4_4 H 0.866146 0.267227 0.249634
O7_4 O 0.9933(3) 0.7627(2) 0.10162(15)
loop_
_geom_bond_atom_site_label_1
_geom_bond_atom_site_label_2
_geom_bond_site_symmetry_1
_geom_bond_site_symmetry_2
La1 O2 1_555 1_555
S1 O4 1_555 1_555
O1 C4 1_555 1_555
O2 C1 1_555 1_555
O3 C4 1_555 1_555
O5 La1 1_555 1_555
O6 C1 1_555 1_555
N1 C3 1_555 1_555
O7 La1 1_555 1_555
H1 O7 1_555 1_555
H2 O7 1_555 1_555
C1 C2 1_555 1_555
C2 C6 1_555 1_555
C3 C4 1_555 1_555
C5 C3 1_555 1_555
H3 C5 1_555 1_555
C6 N1 1_555 1_555
H4 C6 1_555 1_555
C7 C2 1_555 1_555
H5 C7 1_555 1_555
O8 S1 1_555 1_555
O9 S1 1_555 1_555
La2 O9 1_555 1_555
O10 C11 1_555 1_555
O12 C11 1_555 1_555
N2 C10 1_555 1_555
C10 C11 1_555 1_555
C12 C10 1_555 1_555
H8 C12 1_555 1_555
H10 C14 1_555 1_555
La4 O3 1_555 1_555
La6 O8 1_555 1_555
La8 O6 1_555 1_555
O15 La1 1_555 1_555
O16 La2 1_555 1_555
O18 La1 1_555 1_555
O19 La1 1_555 1_555
O20 La2 1_555 1_555
O22 La1 1_555 1_555
O23 La2 1_555 1_555
O24 La1 1_555 1_555
N4 La1 1_555 1_555
S1 O5 1_555 1_555
N1 La4 1_555 1_555
C5 C7 1_555 1_555
C12 C14 1_555 1_555
La6 O20 1_555 1_555
La8 O18 1_555 1_555
O13 C8 1_555 1_555
C8 O11 1_555 1_555
C9 C8 1_555 1_555
H9 C13 1_555 1_555
La6 O13 1_555 1_555
C9 C13 1_555 1_555
La6 O17 1_555 1_555
O2_2 C1_2 1_555 1_555
O6_2 C1_2 1_555 1_555
C1_2 C2_2 1_555 1_555
C2_2 C6_2 1_555 1_555
H4_2 C6_2 1_555 1_555
La10 O6_2 1_555 1_555
La4 O9_2 1_555 1_555
O14_2 La4 1_555 1_555
H6_2 O14_2 1_555 1_555
H7_2 O14_2 1_555 1_555
O21_2 La4 1_555 1_555
O23_2 La4 1_555 1_555
O5_2 La3 1_555 1_555
O24_2 La3 1_555 1_555
O8_2 S1_2 1_555 1_555
O10_2 C11_2 1_555 1_555
O18 C11_2 1_555 1_555
O13_2 C8_2 1_555 1_555
N4 C10_2 1_555 1_555
C8_2 O11_2 1_555 1_555
C9_2 C8_2 1_555 1_555
C10_2 C11_2 1_555 1_555
C12_2 C10_2 1_555 1_555
H8_2 C12_2 1_555 1_555
C13_2 N4 1_555 1_555
H9_2 C13_2 1_555 1_555
C14_2 C9_2 1_555 1_555
H10_2 C14_2 1_555 1_555
La9 O13_2 1_555 1_555
La8 O10_2 1_555 1_555
C9_2 C13_2 1_555 1_555
C12_2 C14_2 1_555 1_555
S1_3 O4_2 1_555 1_555
O1_2 C4_2 1_555 1_555
O17 C4_2 1_555 1_555
O4_2 La10 1_555 1_555
N3 C3_2 1_555 1_555
C3_2 C4_2 1_555 1_555
C5_2 C3_2 1_555 1_555
H3_2 C5_2 1_555 1_555
H5_2 C7_2 1_555 1_555
La10 O19_2 1_555 1_555
La6 O1_2 1_555 1_555
C5_2 C7_2 1_555 1_555
O24 C8_3 1_555 1_555
C8_3 O11_3 1_555 1_555
C9_3 C8_3 1_555 1_555
H9_3 C13_3 1_555 1_555
C9_3 C13_3 1_555 1_555
La6 O2_3 1_555 1_555
S1_4 O21 1_555 1_555
O15_2 C4_3 1_555 1_555
O2_3 C1_3 1_555 1_555
O19_2 C4_3 1_555 1_555
O5_3 La6 1_555 1_555
O23 C1_3 1_555 1_555
N1_2 C3_3 1_555 1_555
O7_3 La6 1_555 1_555
H1_3 O7_3 1_555 1_555
H2_3 O7_3 1_555 1_555
C1_3 C2_3 1_555 1_555
C2_3 C6_3 1_555 1_555
C3_3 C4_3 1_555 1_555
C5_3 C3_3 1_555 1_555
H3_3 C5_3 1_555 1_555
C6_3 N1_2 1_555 1_555
H4_3 C6_3 1_555 1_555
C7_3 C2_3 1_555 1_555
H5_3 C7_3 1_555 1_555
O22 S1_4 1_555 1_555
O9_3 S1_4 1_555 1_555
La8 O9_3 1_555 1_555
O16_2 C11_3 1_555 1_555
O20_2 C11_3 1_555 1_555
N2_2 C10_3 1_555 1_555
C10_3 C11_3 1_555 1_555
C12_3 C10_3 1_555 1_555
H8_3 C12_3 1_555 1_555
H10_3 C14_3 1_555 1_555
N4_2 La6 1_555 1_555
S1_4 O5_3 1_555 1_555
N1_2 La10 1_555 1_555
C5_3 C7_3 1_555 1_555
C12_3 C14_3 1_555 1_555
S1_5 O21_2 1_555 1_555
O15 C4_4 1_555 1_555
O19 C4_4 1_555 1_555
N3_2 C3_4 1_555 1_555
C3_4 C4_4 1_555 1_555
C5_4 C3_4 1_555 1_555
H3_4 C5_4 1_555 1_555
H5_4 C7_4 1_555 1_555
C5_4 C7_4 1_555 1_555
O22_2 S1_6 1_555 1_555
O16 C11_4 1_555 1_555
O20 C11_4 1_555 1_555
O24_2 C8_4 1_555 1_555
N4_2 C10_4 1_555 1_555
C8_4 O11_4 1_555 1_555
C9_4 C8_4 1_555 1_555
C10_4 C11_4 1_555 1_555
C12_4 C10_4 1_555 1_555
H8_4 C12_4 1_555 1_555
C13_4 N4_2 1_555 1_555
H9_4 C13_4 1_555 1_555
C14_4 C9_4 1_555 1_555
H10_4 C14_4 1_555 1_555
C9_4 C13_4 1_555 1_555
C12_4 C14_4 1_555 1_555
O5_4 La9 1_555 1_555
La10 O9_4 1_555 1_555
O14_4 La10 1_555 1_555
H6_4 O14_4 1_555 1_555
H7_4 O14_4 1_555 1_555
O2_4 C1_4 1_555 1_555
O23_2 C1_4 1_555 1_555
C1_4 C2_4 1_555 1_555
C2_4 C6_4 1_555 1_555
H4_4 C6_4 1_555 1_555

#END
