
###############################################################################
#
# This file contains modified crystal structure data generated from the
# MOF subset of the Cambridge Structural Database (CSD) v543 
# hosted by the Cambridge Crystallographic Data Centre (CCDC).
#
# This work is licensed under the Creative Commons
# Attribution-NonCommercial-ShareAlike 4.0 International License.
# To view a copy of this license, visit
# http://creativecommons.org/licenses/by-nc-sa/4.0/
# or send a letter to
# Creative Commons, PO Box 1866, Mountain View, CA 94042, USA.
#
# CIF created using the CSD Python API on 29 September 2022
# The structure has been converted into the P1 space group
# The structure has a 3D framework
# The original CSD entry COMVUY is in the monoclinic crystal system
# The framework has been calculated to contain at least 10.0% void space
# The void calculation uses a probe of radius 1.32A, grid spacing 0.4
#
###############################################################################

data_COMVUY
_chemical_formula_moiety         '(C56 H40 N8 Nd8 O56 S6)n'
_symmetry_cell_setting           triclinic
_symmetry_space_group_name_H-M   'P 1'
_symmetry_Int_Tables_number      1
_space_group_name_Hall           'P 1'
loop_
_symmetry_equiv_pos_site_id
_symmetry_equiv_pos_as_xyz
1 x,y,z
_cell_length_a                   8.84250(10)
_cell_length_b                   14.0615(3)
_cell_length_c                   21.4457(3)
_cell_angle_alpha                90
_cell_angle_beta                 94.2760(10)
_cell_angle_gamma                90
_cell_volume                     2659.11
loop_
_atom_site_label
_atom_site_type_symbol
_atom_site_fract_x
_atom_site_fract_y
_atom_site_fract_z
O10 O 0.0440(2) 0.39676(17) 0.38462(11)
O13 O 0.2409(2) 0.34103(19) 0.33581(12)
O14 O 0.0044(3) 0.7325(2) 0.39880(15)
H7 H 0.106764 0.750700 0.400448
C9 C 0.0059(3) 0.2616(2) 0.32001(14)
C11 C 0.1053(3) 0.3400(2) 0.34926(15)
C12 C 0.0438(3) 0.2179(2) 0.26521(16)
H10 H 0.125(6) 0.234(4) 0.246(2)
Nd3 Nd 0.03314(2) 0.06041(2) 0.13077(2)
Nd6 Nd 0.46686(2) 0.43959(2) 0.36923(2)
Nd8 Nd 0.03314(2) 0.43959(2) 0.63077(2)
O15 O 0.2271(2) 0.54071(18) 0.33364(11)
O20 O 0.1537(2) 0.58219(19) 0.45862(12)
N3 N 0.0434(3) 0.6538(2) 0.26595(12)
Nd1 Nd 0.53314(2) 0.56041(2) 0.63077(2)
S1 S 0.750000 0.47927(8) 0.500000
O1 O 0.4560(2) 0.39676(17) 0.61538(11)
O2 O 0.7271(2) 0.04071(18) 0.83364(11)
O3 O 0.6573(2) 0.54105(19) 0.53742(12)
O4 O 0.6537(2) 0.41781(19) 0.45862(12)
O5 O 0.8947(2) 0.03173(19) 0.76277(12)
O6 O 0.2591(2) 0.34103(19) 0.66419(12)
N1 N 0.5434(3) 0.1538(2) 0.76595(12)
O7 O 0.4956(3) 0.7325(2) 0.60120(15)
H1 H 0.538155 0.775001 0.631663
H2 H 0.393236 0.750700 0.599552
C1 C 0.7721(3) 0.0620(2) 0.78068(16)
C2 C 0.4941(3) 0.2616(2) 0.67999(14)
C3 C 0.6736(3) 0.1288(2) 0.74094(15)
C4 C 0.3947(3) 0.3400(2) 0.65074(15)
C5 C 0.4562(3) 0.2179(2) 0.73479(16)
C6 C 0.6276(3) 0.2356(2) 0.65509(15)
H3 H 0.656698 0.263763 0.618616
C7 C 0.7181(3) 0.1660(2) 0.68587(16)
H4 H 0.806751 0.145313 0.669434
H5 H 0.375(6) 0.234(4) 0.754(2)
O8 O 0.8427(2) 0.54105(19) 0.46258(12)
O9 O 0.8463(2) 0.41781(19) 0.54138(12)
Nd2 Nd 0.96686(2) 0.56041(2) 0.36923(2)
O11 O 0.7729(2) 0.04071(18) 0.16636(11)
O12 O 0.6053(2) 0.03173(19) 0.23723(12)
N2 N 0.9566(3) 0.1538(2) 0.23405(12)
H6 H 0.961845 0.775001 0.368337
C8 C 0.7279(3) 0.0620(2) 0.21932(16)
C10 C 0.8264(3) 0.1288(2) 0.25906(15)
C13 C 0.8724(3) 0.2356(2) 0.34491(15)
H8 H 0.843302 0.263763 0.381384
C14 C 0.7819(3) 0.1660(2) 0.31413(16)
H9 H 0.693249 0.145313 0.330566
Nd4 Nd 0.46686(2) 0.06041(2) 0.86923(2)
O16 O 0.2729(2) 0.54071(18) 0.66636(11)
O17 O 0.7729(2) 0.45929(18) 0.66636(11)
O18 O 0.7271(2) 0.45929(18) 0.33364(11)
O19 O 0.3463(2) 0.58219(19) 0.54138(12)
O21 O 0.6053(2) 0.46827(19) 0.73723(12)
O22 O 0.8947(2) 0.46827(19) 0.26277(12)
O23 O 0.7409(2) 0.65897(19) 0.33581(12)
O24 O 0.7591(2) 0.65897(19) 0.66419(12)
N4 N 0.4566(3) 0.6538(2) 0.73405(12)
Nd9 Nd 0.96686(2) 0.93959(2) 0.86923(2)
Nd10 Nd 0.53314(2) 0.93959(2) 0.13077(2)
O3_2 O 0.1573(2) 0.04105(19) 0.03742(12)
H1_2 H 0.038155 0.275001 0.131663
O24_2 O 0.2591(2) 0.15897(19) 0.16419(12)
O8_2 O 0.3427(2) 0.04105(19) 0.96258(12)
O14_2 O 0.5044(3) 0.2325(2) 0.89880(15)
H6_2 H 0.461845 0.275001 0.868337
H7_2 H 0.606764 0.250700 0.900448
O20_2 O 0.6537(2) 0.08219(19) 0.95862(12)
O23_2 O 0.2409(2) 0.15897(19) 0.83581(12)
S1_2 S 0.250000 0.97927(8) 0.000000
O5_2 O 0.3947(2) 0.53173(19) 0.26277(12)
C1_2 C 0.2721(3) 0.5620(2) 0.28068(16)
C3_2 C 0.1736(3) 0.6288(2) 0.24094(15)
C6_2 C 0.1276(3) 0.7356(2) 0.15509(15)
H3_2 H 0.156698 0.763763 0.118616
C7_2 C 0.2181(3) 0.6660(2) 0.18587(16)
H4_2 H 0.306751 0.645313 0.169434
O9_2 O 0.3463(2) 0.91781(19) 0.04138(12)
O17_2 O 0.2729(2) 0.95929(18) 0.16636(11)
O21_2 O 0.1053(2) 0.96827(19) 0.23723(12)
S1_3 S 0.250000 0.97927(8) 1.000000
O4_2 O 0.1537(2) 0.91781(19) 0.95862(12)
O10_2 O 0.5440(2) 0.89676(17) 0.88462(11)
O12_2 O 0.1053(2) 0.53173(19) 0.73723(12)
O13_2 O 0.7409(2) 0.84103(19) 0.83581(12)
C8_2 C 0.2279(3) 0.5620(2) 0.71932(16)
C9_2 C 0.5059(3) 0.7616(2) 0.82001(14)
C10_2 C 0.3264(3) 0.6288(2) 0.75906(15)
C11_2 C 0.6053(3) 0.8400(2) 0.84926(15)
C12_2 C 0.5438(3) 0.7179(2) 0.76521(16)
C13_2 C 0.3724(3) 0.7356(2) 0.84491(15)
H8_2 H 0.343302 0.763763 0.881384
C14_2 C 0.2819(3) 0.6660(2) 0.81413(16)
H9_2 H 0.193249 0.645313 0.830566
H10_2 H 0.625(6) 0.734(4) 0.746(2)
O18_2 O 0.2271(2) 0.95929(18) 0.83364(11)
O22_2 O 0.3947(2) 0.96827(19) 0.76277(12)
O7_2 O 0.9956(3) 0.2325(2) 0.10120(15)
H2_2 H 0.893236 0.250700 0.099552
O19_2 O 0.8463(2) 0.08219(19) 0.04138(12)
O1_2 O 0.9560(2) 0.89676(17) 0.11538(11)
O6_2 O 0.7591(2) 0.84103(19) 0.16419(12)
C2_2 C 0.9941(3) 0.7616(2) 0.17999(14)
C4_2 C 0.8947(3) 0.8400(2) 0.15074(15)
C5_2 C 0.9562(3) 0.7179(2) 0.23479(16)
H5_2 H 0.875(6) 0.734(4) 0.254(2)
S1_4 S 0.250000 0.52073(8) 0.500000
O1_3 O 0.5440(2) 0.60324(17) 0.38462(11)
O3_3 O 0.3427(2) 0.45895(19) 0.46258(12)
N1_2 N 0.4566(3) 0.8462(2) 0.23405(12)
O7_3 O 0.5044(3) 0.2675(2) 0.39880(15)
H1_3 H 0.461845 0.224999 0.368337
H2_3 H 0.606764 0.249300 0.400448
C1_3 C 0.2279(3) 0.9380(2) 0.21932(16)
C2_3 C 0.5059(3) 0.7384(2) 0.32001(14)
C3_3 C 0.3264(3) 0.8712(2) 0.25906(15)
C4_3 C 0.6053(3) 0.6600(2) 0.34926(15)
C5_3 C 0.5438(3) 0.7821(2) 0.26521(16)
C6_3 C 0.3724(3) 0.7644(2) 0.34491(15)
H3_3 H 0.343302 0.736237 0.381384
C7_3 C 0.2819(3) 0.8340(2) 0.31413(16)
H4_3 H 0.193249 0.854687 0.330566
H5_3 H 0.625(6) 0.766(4) 0.246(2)
O8_3 O 0.1573(2) 0.45895(19) 0.53742(12)
N2_2 N 0.0434(3) 0.8462(2) 0.76595(12)
H6_3 H 0.038155 0.224999 0.631663
C8_3 C 0.2721(3) 0.9380(2) 0.78068(16)
C10_3 C 0.1736(3) 0.8712(2) 0.74094(15)
C13_3 C 0.1276(3) 0.7644(2) 0.65509(15)
H8_3 H 0.156698 0.736237 0.618616
C14_3 C 0.2181(3) 0.8340(2) 0.68587(16)
H9_3 H 0.306751 0.854687 0.669434
N4_2 N 0.5434(3) 0.3462(2) 0.26595(12)
O10_3 O 0.9560(2) 0.60324(17) 0.61538(11)
O14_3 O 0.9956(3) 0.2675(2) 0.60120(15)
H7_3 H 0.893236 0.249300 0.599552
C9_3 C 0.9941(3) 0.7384(2) 0.67999(14)
C11_3 C 0.8947(3) 0.6600(2) 0.65074(15)
C12_3 C 0.9562(3) 0.7821(2) 0.73479(16)
H10_3 H 0.875(6) 0.766(4) 0.754(2)
N3_2 N 0.9566(3) 0.3462(2) 0.73405(12)
O1_4 O 0.0440(2) 0.10324(17) 0.88462(11)
C2_4 C 0.0059(3) 0.2384(2) 0.82001(14)
C4_4 C 0.1053(3) 0.1600(2) 0.84926(15)
C5_4 C 0.0438(3) 0.2821(2) 0.76521(16)
H5_4 H 0.125(6) 0.266(4) 0.746(2)
O7_4 O 0.0044(3) 0.7675(2) 0.89880(15)
H2_4 H 0.106764 0.749300 0.900448
S1_5 S 0.750000 0.02073(8) 0.000000
O10_4 O 0.4560(2) 0.10324(17) 0.11538(11)
C8_4 C 0.7721(3) 0.4380(2) 0.28068(16)
C9_4 C 0.4941(3) 0.2384(2) 0.17999(14)
C10_4 C 0.6736(3) 0.3712(2) 0.24094(15)
C11_4 C 0.3947(3) 0.1600(2) 0.15074(15)
C12_4 C 0.4562(3) 0.2821(2) 0.23479(16)
C13_4 C 0.6276(3) 0.2644(2) 0.15509(15)
H8_4 H 0.656698 0.236237 0.118616
C14_4 C 0.7181(3) 0.3340(2) 0.18587(16)
H9_4 H 0.806751 0.354687 0.169434
H10_4 H 0.375(6) 0.266(4) 0.254(2)
S1_6 S 0.750000 0.02073(8) 1.000000
C1_4 C 0.7279(3) 0.4380(2) 0.71932(16)
C3_4 C 0.8264(3) 0.3712(2) 0.75906(15)
C6_4 C 0.8724(3) 0.2644(2) 0.84491(15)
H3_4 H 0.843302 0.236237 0.881384
C7_4 C 0.7819(3) 0.3340(2) 0.81413(16)
H4_4 H 0.693249 0.354687 0.830566
O8_4 O 0.6573(2) 0.95895(19) 0.03742(12)
O14_4 O 0.4956(3) 0.7675(2) 0.10120(15)
H6_4 H 0.538155 0.724999 0.131663
H7_4 H 0.393236 0.749300 0.099552
O3_4 O 0.8427(2) 0.95895(19) 0.96258(12)
H1_4 H 0.961845 0.724999 0.868337
loop_
_geom_bond_atom_site_label_1
_geom_bond_atom_site_label_2
_geom_bond_site_symmetry_1
_geom_bond_site_symmetry_2
O13 C11 1_555 1_555
H7 O14 1_555 1_555
C9 C11 1_555 1_555
C11 O10 1_555 1_555
H10 C12 1_555 1_555
Nd6 O13 1_555 1_555
C9 C12 1_555 1_555
Nd6 O15 1_555 1_555
Nd1 O1 1_555 1_555
S1 O3 1_555 1_555
O1 C4 1_555 1_555
O2 C1 1_555 1_555
O3 Nd1 1_555 1_555
O4 S1 1_555 1_555
O5 C1 1_555 1_555
O6 C4 1_555 1_555
N1 C3 1_555 1_555
O7 Nd1 1_555 1_555
H1 O7 1_555 1_555
H2 O7 1_555 1_555
C1 C3 1_555 1_555
C2 C4 1_555 1_555
C3 C7 1_555 1_555
C5 N1 1_555 1_555
C6 C2 1_555 1_555
H3 C6 1_555 1_555
C7 C6 1_555 1_555
H4 C7 1_555 1_555
H5 C5 1_555 1_555
O8 S1 1_555 1_555
O9 S1 1_555 1_555
Nd2 O8 1_555 1_555
O11 C8 1_555 1_555
O12 C8 1_555 1_555
N2 C10 1_555 1_555
C8 C10 1_555 1_555
C10 C14 1_555 1_555
H8 C13 1_555 1_555
C14 C13 1_555 1_555
H9 C14 1_555 1_555
Nd4 O2 1_555 1_555
Nd6 O4 1_555 1_555
Nd8 O6 1_555 1_555
O16 Nd1 1_555 1_555
O17 Nd1 1_555 1_555
O18 Nd2 1_555 1_555
O19 Nd1 1_555 1_555
O21 Nd1 1_555 1_555
O22 Nd2 1_555 1_555
O23 Nd2 1_555 1_555
O24 Nd1 1_555 1_555
N4 Nd1 1_555 1_555
N1 Nd4 1_555 1_555
C2 C5 1_555 1_555
Nd6 O18 1_555 1_555
Nd8 O16 1_555 1_555
O3_2 Nd3 1_555 1_555
O24_2 Nd3 1_555 1_555
Nd4 O8_2 1_555 1_555
O14_2 Nd4 1_555 1_555
H6_2 O14_2 1_555 1_555
H7_2 O14_2 1_555 1_555
O20_2 Nd4 1_555 1_555
O23_2 Nd4 1_555 1_555
O15 C1_2 1_555 1_555
O5_2 C1_2 1_555 1_555
N3 C3_2 1_555 1_555
C1_2 C3_2 1_555 1_555
C3_2 C7_2 1_555 1_555
H3_2 C6_2 1_555 1_555
C7_2 C6_2 1_555 1_555
H4_2 C7_2 1_555 1_555
O9_2 S1_2 1_555 1_555
Nd10 O9_2 1_555 1_555
O5_2 Nd6 1_555 1_555
Nd10 O17_2 1_555 1_555
O4_2 S1_3 1_555 1_555
O16 C8_2 1_555 1_555
O12_2 C8_2 1_555 1_555
O13_2 C11_2 1_555 1_555
N4 C10_2 1_555 1_555
C8_2 C10_2 1_555 1_555
C9_2 C11_2 1_555 1_555
C10_2 C14_2 1_555 1_555
C11_2 O10_2 1_555 1_555
C12_2 N4 1_555 1_555
C13_2 C9_2 1_555 1_555
H8_2 C13_2 1_555 1_555
C14_2 C13_2 1_555 1_555
H9_2 C14_2 1_555 1_555
H10_2 C12_2 1_555 1_555
Nd9 O13_2 1_555 1_555
O12_2 Nd8 1_555 1_555
C9_2 C12_2 1_555 1_555
H2_2 O7_2 1_555 1_555
O1_2 C4_2 1_555 1_555
O6_2 C4_2 1_555 1_555
C2_2 C4_2 1_555 1_555
H5_2 C5_2 1_555 1_555
Nd10 O6_2 1_555 1_555
C2_2 C5_2 1_555 1_555
Nd6 O1_3 1_555 1_555
S1_4 O3_3 1_555 1_555
O1_3 C4_3 1_555 1_555
O17_2 C1_3 1_555 1_555
O3_3 Nd6 1_555 1_555
O19 S1_4 1_555 1_555
O21_2 C1_3 1_555 1_555
O23 C4_3 1_555 1_555
N1_2 C3_3 1_555 1_555
O7_3 Nd6 1_555 1_555
H1_3 O7_3 1_555 1_555
H2_3 O7_3 1_555 1_555
C1_3 C3_3 1_555 1_555
C2_3 C4_3 1_555 1_555
C3_3 C7_3 1_555 1_555
C5_3 N1_2 1_555 1_555
C6_3 C2_3 1_555 1_555
H3_3 C6_3 1_555 1_555
C7_3 C6_3 1_555 1_555
H4_3 C7_3 1_555 1_555
H5_3 C5_3 1_555 1_555
O8_3 S1_4 1_555 1_555
O20 S1_4 1_555 1_555
Nd8 O8_3 1_555 1_555
O18_2 C8_3 1_555 1_555
O22_2 C8_3 1_555 1_555
N2_2 C10_3 1_555 1_555
C8_3 C10_3 1_555 1_555
C10_3 C14_3 1_555 1_555
H8_3 C13_3 1_555 1_555
C14_3 C13_3 1_555 1_555
H9_3 C14_3 1_555 1_555
N4_2 Nd6 1_555 1_555
N1_2 Nd10 1_555 1_555
C2_3 C5_3 1_555 1_555
O24 C11_3 1_555 1_555
H7_3 O14_3 1_555 1_555
C9_3 C11_3 1_555 1_555
C11_3 O10_3 1_555 1_555
H10_3 C12_3 1_555 1_555
C9_3 C12_3 1_555 1_555
O1_4 C4_4 1_555 1_555
O23_2 C4_4 1_555 1_555
C2_4 C4_4 1_555 1_555
H5_4 C5_4 1_555 1_555
C2_4 C5_4 1_555 1_555
H2_4 O7_4 1_555 1_555
O19_2 S1_5 1_555 1_555
O18 C8_4 1_555 1_555
O22 C8_4 1_555 1_555
O24_2 C11_4 1_555 1_555
N4_2 C10_4 1_555 1_555
C8_4 C10_4 1_555 1_555
C9_4 C11_4 1_555 1_555
C10_4 C14_4 1_555 1_555
C11_4 O10_4 1_555 1_555
C12_4 N4_2 1_555 1_555
C13_4 C9_4 1_555 1_555
H8_4 C13_4 1_555 1_555
C14_4 C13_4 1_555 1_555
H9_4 C14_4 1_555 1_555
H10_4 C12_4 1_555 1_555
C9_4 C12_4 1_555 1_555
O17 C1_4 1_555 1_555
O21 C1_4 1_555 1_555
N3_2 C3_4 1_555 1_555
C1_4 C3_4 1_555 1_555
C3_4 C7_4 1_555 1_555
H3_4 C6_4 1_555 1_555
C7_4 C6_4 1_555 1_555
H4_4 C7_4 1_555 1_555
O20_2 S1_6 1_555 1_555
Nd10 O8_4 1_555 1_555
O14_4 Nd10 1_555 1_555
H6_4 O14_4 1_555 1_555
H7_4 O14_4 1_555 1_555
O3_4 Nd9 1_555 1_555

#END
