
###############################################################################
#
# This file contains modified crystal structure data generated from the
# MOF subset of the Cambridge Structural Database (CSD) v543 
# hosted by the Cambridge Crystallographic Data Centre (CCDC).
#
# This work is licensed under the Creative Commons
# Attribution-NonCommercial-ShareAlike 4.0 International License.
# To view a copy of this license, visit
# http://creativecommons.org/licenses/by-nc-sa/4.0/
# or send a letter to
# Creative Commons, PO Box 1866, Mountain View, CA 94042, USA.
#
# CIF created using the CSD Python API on 29 September 2022
# The structure has been converted into the P1 space group
# The structure has a 3D framework
# The original CSD entry COMVEI is in the monoclinic crystal system
# The framework has been calculated to contain at least 10.0% void space
# The void calculation uses a probe of radius 1.32A, grid spacing 0.4
#
###############################################################################

data_COMVEI
_chemical_formula_moiety         '(C56 H40 N8 O56 Pr8 S6)n'
_symmetry_cell_setting           triclinic
_symmetry_space_group_name_H-M   'P 1'
_symmetry_Int_Tables_number      1
_space_group_name_Hall           'P 1'
loop_
_symmetry_equiv_pos_site_id
_symmetry_equiv_pos_as_xyz
1 x,y,z
_cell_length_a                   8.87820(10)
_cell_length_b                   14.0693(2)
_cell_length_c                   21.5266(3)
_cell_angle_alpha                90
_cell_angle_beta                 94.3460(10)
_cell_angle_gamma                90
_cell_volume                     2681.16
loop_
_atom_site_label
_atom_site_type_symbol
_atom_site_fract_x
_atom_site_fract_y
_atom_site_fract_z
Pr1 Pr 0.46676(2) 0.56067(2) 0.36927(2)
S1 S 0.250000 0.47862(8) 0.500000
O1 O 0.5451(3) 0.39630(17) 0.38471(11)
O2 O 0.2731(3) 0.04087(18) 0.16697(11)
O3 O 0.1064(3) 0.03246(19) 0.23737(11)
O4 O 0.3431(3) 0.53996(18) 0.46316(11)
O5 O 0.1548(3) 0.41687(18) 0.45839(11)
O6 O 0.7409(3) 0.34015(18) 0.33604(12)
N1 N 0.4565(3) 0.1541(2) 0.23420(13)
C1 C 0.3266(4) 0.1289(2) 0.25891(16)
C2 C 0.6060(4) 0.3388(2) 0.34922(15)
C3 C 0.5066(4) 0.2616(2) 0.32007(16)
C4 C 0.5434(4) 0.2176(3) 0.26519(17)
H1 H 0.634585 0.233708 0.249319
C5 C 0.2278(4) 0.0623(2) 0.21951(16)
C6 C 0.2830(4) 0.1661(2) 0.31428(16)
H2 H 0.195111 0.145200 0.330864
C7 C 0.3730(4) 0.2352(2) 0.34467(16)
H3 H 0.344011 0.263343 0.380984
O7 O 0.5052(4) 0.7343(2) 0.39897(15)
H4 H 0.460(5) 0.776(3) 0.380(2)
H5 H 0.444(12) 0.691(5) 0.392(8)
O8 O 0.1569(3) 0.53996(18) 0.53684(11)
O9 O 0.3452(3) 0.41687(18) 0.54161(11)
Pr2 Pr 0.03324(2) 0.56067(2) 0.63073(2)
O11 O 0.2269(3) 0.04087(18) 0.83303(11)
O12 O 0.3936(3) 0.03246(19) 0.76263(11)
N2 N 0.0435(3) 0.1541(2) 0.76580(13)
C8 C 0.1734(4) 0.1289(2) 0.74109(16)
C12 C 0.2722(4) 0.0623(2) 0.78049(16)
C13 C 0.2170(4) 0.1661(2) 0.68572(16)
H7 H 0.304889 0.145200 0.669136
C14 C 0.1270(4) 0.2352(2) 0.65533(16)
H8 H 0.155989 0.263343 0.619016
H9 H 0.040(5) 0.776(3) 0.620(2)
H10 H 0.056(12) 0.691(5) 0.608(8)
Pr4 Pr 0.53324(2) 0.06067(2) 0.13073(2)
Pr6 Pr 0.53324(2) 0.43933(2) 0.63073(2)
Pr8 Pr 0.96676(2) 0.43933(2) 0.36927(2)
O16 O 0.7269(3) 0.54087(18) 0.33303(11)
O17 O 0.2269(3) 0.45913(18) 0.33303(11)
O18 O 0.2731(3) 0.45913(18) 0.66697(11)
O19 O 0.3936(3) 0.46754(19) 0.26263(11)
O20 O 0.1064(3) 0.46754(19) 0.73737(11)
O22 O 0.6548(3) 0.58313(18) 0.45839(11)
O23 O 0.2591(3) 0.65985(18) 0.66396(12)
O24 O 0.2409(3) 0.65985(18) 0.33604(12)
N4 N 0.5435(3) 0.6541(2) 0.26580(13)
Pr9 Pr 0.03324(2) 0.93933(2) 0.13073(2)
Pr10 Pr 0.46676(2) 0.93933(2) 0.86927(2)
O10 O 0.9549(3) 0.39630(17) 0.61529(11)
O13 O 0.7591(3) 0.34015(18) 0.66396(12)
C9 C 0.8940(4) 0.3388(2) 0.65078(15)
C10 C 0.9934(4) 0.2616(2) 0.67993(16)
C11 C 0.9566(4) 0.2176(3) 0.73481(17)
H6 H 0.865415 0.233708 0.750681
O14 O 0.9948(4) 0.7343(2) 0.60103(15)
Pr3 Pr 0.96676(2) 0.06067(2) 0.86927(2)
O15 O 0.7731(3) 0.54087(18) 0.66697(11)
O21 O 0.8452(3) 0.58313(18) 0.54161(11)
N3 N 0.9565(3) 0.6541(2) 0.73420(13)
O7_2 O 0.0052(4) 0.2343(2) 0.89897(15)
O22_2 O 0.1548(3) 0.08313(18) 0.95839(11)
O1_2 O 0.0451(3) 0.89630(17) 0.88471(11)
O6_2 O 0.2409(3) 0.84015(18) 0.83604(12)
C2_2 C 0.1060(4) 0.8388(2) 0.84922(15)
C3_2 C 0.0066(4) 0.7616(2) 0.82007(16)
C4_2 C 0.0434(4) 0.7176(3) 0.76519(17)
H1_2 H 0.134585 0.733708 0.749319
O8_2 O 0.6569(3) 0.03996(18) 0.03684(11)
O14_2 O 0.4948(4) 0.2343(2) 0.10103(15)
H9_2 H 0.540(5) 0.276(3) 0.120(2)
H10_2 H 0.556(12) 0.191(5) 0.108(8)
O21_2 O 0.3452(3) 0.08313(18) 0.04161(11)
O23_2 O 0.7591(3) 0.15985(18) 0.16396(12)
O4_2 O 0.8431(3) 0.03996(18) 0.96316(11)
H4_2 H 0.960(5) 0.276(3) 0.880(2)
H5_2 H 0.944(12) 0.191(5) 0.892(8)
O24_2 O 0.7409(3) 0.15985(18) 0.83604(12)
S1_2 S 0.750000 0.97862(8) -0.000000
O9_2 O 0.8452(3) 0.91687(18) 0.04161(11)
O10_2 O 0.4549(3) 0.89630(17) 0.11529(11)
O12_2 O 0.8936(3) 0.53246(19) 0.26263(11)
O13_2 O 0.2591(3) 0.84015(18) 0.16396(12)
C8_2 C 0.6734(4) 0.6289(2) 0.24109(16)
C9_2 C 0.3940(4) 0.8388(2) 0.15078(15)
C10_2 C 0.4934(4) 0.7616(2) 0.17993(16)
C11_2 C 0.4566(4) 0.7176(3) 0.23481(17)
H6_2 H 0.365415 0.733708 0.250681
C12_2 C 0.7722(4) 0.5623(2) 0.28049(16)
C13_2 C 0.7170(4) 0.6661(2) 0.18572(16)
H7_2 H 0.804889 0.645200 0.169136
C14_2 C 0.6270(4) 0.7352(2) 0.15533(16)
H8_2 H 0.655989 0.763343 0.119016
O18_2 O 0.7731(3) 0.95913(18) 0.16697(11)
O20_2 O 0.6064(3) 0.96754(19) 0.23737(11)
S1_3 S 0.750000 0.97862(8) 1.000000
O3_2 O 0.6064(3) 0.53246(19) 0.73737(11)
O5_2 O 0.6548(3) 0.91687(18) 0.95839(11)
C1_2 C 0.8266(4) 0.6289(2) 0.75891(16)
C5_2 C 0.7278(4) 0.5623(2) 0.71951(16)
C6_2 C 0.7830(4) 0.6661(2) 0.81428(16)
H2_2 H 0.695111 0.645200 0.830864
C7_2 C 0.8730(4) 0.7352(2) 0.84467(16)
H3_2 H 0.844011 0.763343 0.880984
O17_2 O 0.7269(3) 0.95913(18) 0.83303(11)
O19_2 O 0.8936(3) 0.96754(19) 0.76263(11)
O10_3 O 0.0451(3) 0.60370(17) 0.38471(11)
C9_3 C 0.1060(4) 0.6612(2) 0.34922(15)
C10_3 C 0.0066(4) 0.7384(2) 0.32007(16)
C11_3 C 0.0434(4) 0.7824(3) 0.26519(17)
H6_3 H 0.134585 0.766292 0.249319
O14_3 O 0.0052(4) 0.2657(2) 0.39897(15)
N3_2 N 0.0435(3) 0.3459(2) 0.26580(13)
S1_4 S 0.750000 0.52138(8) 0.500000
O1_3 O 0.4549(3) 0.60370(17) 0.61529(11)
O4_3 O 0.6569(3) 0.46004(18) 0.53684(11)
N1_2 N 0.5435(3) 0.8459(2) 0.76580(13)
C1_3 C 0.6734(4) 0.8711(2) 0.74109(16)
C2_3 C 0.3940(4) 0.6612(2) 0.65078(15)
C3_3 C 0.4934(4) 0.7384(2) 0.67993(16)
C4_3 C 0.4566(4) 0.7824(3) 0.73481(17)
H1_3 H 0.365415 0.766292 0.750681
C5_3 C 0.7722(4) 0.9377(2) 0.78049(16)
C6_3 C 0.7170(4) 0.8339(2) 0.68572(16)
H2_3 H 0.804889 0.854800 0.669136
C7_3 C 0.6270(4) 0.7648(2) 0.65533(16)
H3_3 H 0.655989 0.736657 0.619016
O7_3 O 0.4948(4) 0.2657(2) 0.60103(15)
H4_3 H 0.540(5) 0.224(3) 0.620(2)
H5_3 H 0.556(12) 0.309(5) 0.608(8)
O8_3 O 0.8431(3) 0.46004(18) 0.46316(11)
N2_2 N 0.9565(3) 0.8459(2) 0.23420(13)
C8_3 C 0.8266(4) 0.8711(2) 0.25891(16)
C12_3 C 0.7278(4) 0.9377(2) 0.21951(16)
C13_3 C 0.7830(4) 0.8339(2) 0.31428(16)
H7_3 H 0.695111 0.854800 0.330864
C14_3 C 0.8730(4) 0.7648(2) 0.34467(16)
H8_3 H 0.844011 0.736657 0.380984
H9_3 H 0.960(5) 0.224(3) 0.380(2)
H10_3 H 0.944(12) 0.309(5) 0.392(8)
N4_2 N 0.4565(3) 0.3459(2) 0.73420(13)
S1_5 S 0.250000 0.02138(8) 0.000000
C1_4 C 0.1734(4) 0.3711(2) 0.24109(16)
C5_4 C 0.2722(4) 0.4377(2) 0.28049(16)
C6_4 C 0.2170(4) 0.3339(2) 0.18572(16)
H2_4 H 0.304889 0.354800 0.169136
C7_4 C 0.1270(4) 0.2648(2) 0.15533(16)
H3_4 H 0.155989 0.236657 0.119016
S1_6 S 0.250000 0.02138(8) 1.000000
O10_4 O 0.5451(3) 0.10370(17) 0.88471(11)
C8_4 C 0.3266(4) 0.3711(2) 0.75891(16)
C9_4 C 0.6060(4) 0.1612(2) 0.84922(15)
C10_4 C 0.5066(4) 0.2384(2) 0.82007(16)
C11_4 C 0.5434(4) 0.2824(3) 0.76519(17)
H6_4 H 0.634585 0.266292 0.749319
C12_4 C 0.2278(4) 0.4377(2) 0.71951(16)
C13_4 C 0.2830(4) 0.3339(2) 0.81428(16)
H7_4 H 0.195111 0.354800 0.830864
C14_4 C 0.3730(4) 0.2648(2) 0.84467(16)
H8_4 H 0.344011 0.236657 0.880984
O4_4 O 0.1569(3) 0.96004(18) 0.03684(11)
H4_4 H 0.040(5) 0.724(3) 0.120(2)
H5_4 H 0.056(12) 0.809(5) 0.108(8)
O8_4 O 0.3431(3) 0.96004(18) 0.96316(11)
O14_4 O 0.5052(4) 0.7657(2) 0.89897(15)
H9_4 H 0.460(5) 0.724(3) 0.880(2)
H10_4 H 0.444(12) 0.809(5) 0.892(8)
O1_4 O 0.9549(3) 0.10370(17) 0.11529(11)
C2_4 C 0.8940(4) 0.1612(2) 0.15078(15)
C3_4 C 0.9934(4) 0.2384(2) 0.17993(16)
C4_4 C 0.9566(4) 0.2824(3) 0.23481(17)
H1_4 H 0.865415 0.266292 0.250681
O7_4 O 0.9948(4) 0.7657(2) 0.10103(15)
loop_
_geom_bond_atom_site_label_1
_geom_bond_atom_site_label_2
_geom_bond_site_symmetry_1
_geom_bond_site_symmetry_2
Pr1 O1 1_555 1_555
S1 O4 1_555 1_555
O1 C2 1_555 1_555
O2 C5 1_555 1_555
O3 C5 1_555 1_555
O4 Pr1 1_555 1_555
O5 S1 1_555 1_555
O6 C2 1_555 1_555
N1 C1 1_555 1_555
C1 C5 1_555 1_555
C2 C3 1_555 1_555
C3 C4 1_555 1_555
C4 N1 1_555 1_555
H1 C4 1_555 1_555
C6 C1 1_555 1_555
H2 C6 1_555 1_555
C7 C3 1_555 1_555
H3 C7 1_555 1_555
O7 Pr1 1_555 1_555
H4 O7 1_555 1_555
H5 O7 1_555 1_555
O8 S1 1_555 1_555
O9 S1 1_555 1_555
Pr2 O8 1_555 1_555
O11 C12 1_555 1_555
O12 C12 1_555 1_555
N2 C8 1_555 1_555
C8 C12 1_555 1_555
C13 C8 1_555 1_555
H7 C13 1_555 1_555
H8 C14 1_555 1_555
Pr4 O2 1_555 1_555
Pr6 O9 1_555 1_555
Pr8 O6 1_555 1_555
O16 Pr1 1_555 1_555
O17 Pr1 1_555 1_555
O18 Pr2 1_555 1_555
O19 Pr1 1_555 1_555
O20 Pr2 1_555 1_555
O22 Pr1 1_555 1_555
O23 Pr2 1_555 1_555
O24 Pr1 1_555 1_555
N4 Pr1 1_555 1_555
N1 Pr4 1_555 1_555
C6 C7 1_555 1_555
C13 C14 1_555 1_555
Pr6 O18 1_555 1_555
Pr8 O16 1_555 1_555
O13 C9 1_555 1_555
C9 O10 1_555 1_555
C10 C9 1_555 1_555
H6 C11 1_555 1_555
Pr6 O13 1_555 1_555
C10 C11 1_555 1_555
Pr6 O15 1_555 1_555
O1_2 C2_2 1_555 1_555
O6_2 C2_2 1_555 1_555
C2_2 C3_2 1_555 1_555
C3_2 C4_2 1_555 1_555
H1_2 C4_2 1_555 1_555
Pr10 O6_2 1_555 1_555
Pr4 O8_2 1_555 1_555
O14_2 Pr4 1_555 1_555
H9_2 O14_2 1_555 1_555
H10_2 O14_2 1_555 1_555
O21_2 Pr4 1_555 1_555
O23_2 Pr4 1_555 1_555
O4_2 Pr3 1_555 1_555
O24_2 Pr3 1_555 1_555
O9_2 S1_2 1_555 1_555
O16 C12_2 1_555 1_555
O12_2 C12_2 1_555 1_555
O13_2 C9_2 1_555 1_555
N4 C8_2 1_555 1_555
C8_2 C12_2 1_555 1_555
C9_2 O10_2 1_555 1_555
C10_2 C9_2 1_555 1_555
C11_2 N4 1_555 1_555
H6_2 C11_2 1_555 1_555
C13_2 C8_2 1_555 1_555
H7_2 C13_2 1_555 1_555
C14_2 C10_2 1_555 1_555
H8_2 C14_2 1_555 1_555
Pr9 O13_2 1_555 1_555
O12_2 Pr8 1_555 1_555
C10_2 C11_2 1_555 1_555
C13_2 C14_2 1_555 1_555
O15 C5_2 1_555 1_555
O3_2 C5_2 1_555 1_555
O5_2 S1_3 1_555 1_555
N3 C1_2 1_555 1_555
C1_2 C5_2 1_555 1_555
C6_2 C1_2 1_555 1_555
H2_2 C6_2 1_555 1_555
H3_2 C7_2 1_555 1_555
Pr10 O5_2 1_555 1_555
O3_2 Pr6 1_555 1_555
C6_2 C7_2 1_555 1_555
Pr10 O17_2 1_555 1_555
O24 C9_3 1_555 1_555
C9_3 O10_3 1_555 1_555
C10_3 C9_3 1_555 1_555
H6_3 C11_3 1_555 1_555
C10_3 C11_3 1_555 1_555
Pr6 O1_3 1_555 1_555
S1_4 O4_3 1_555 1_555
O1_3 C2_3 1_555 1_555
O17_2 C5_3 1_555 1_555
O19_2 C5_3 1_555 1_555
O4_3 Pr6 1_555 1_555
O21 S1_4 1_555 1_555
O23 C2_3 1_555 1_555
N1_2 C1_3 1_555 1_555
C1_3 C5_3 1_555 1_555
C2_3 C3_3 1_555 1_555
C3_3 C4_3 1_555 1_555
C4_3 N1_2 1_555 1_555
H1_3 C4_3 1_555 1_555
C6_3 C1_3 1_555 1_555
H2_3 C6_3 1_555 1_555
C7_3 C3_3 1_555 1_555
H3_3 C7_3 1_555 1_555
O7_3 Pr6 1_555 1_555
H4_3 O7_3 1_555 1_555
H5_3 O7_3 1_555 1_555
O8_3 S1_4 1_555 1_555
O22 S1_4 1_555 1_555
Pr8 O8_3 1_555 1_555
O18_2 C12_3 1_555 1_555
O20_2 C12_3 1_555 1_555
N2_2 C8_3 1_555 1_555
C8_3 C12_3 1_555 1_555
C13_3 C8_3 1_555 1_555
H7_3 C13_3 1_555 1_555
H8_3 C14_3 1_555 1_555
N4_2 Pr6 1_555 1_555
N1_2 Pr10 1_555 1_555
C6_3 C7_3 1_555 1_555
C13_3 C14_3 1_555 1_555
O17 C5_4 1_555 1_555
O19 C5_4 1_555 1_555
O21_2 S1_5 1_555 1_555
N3_2 C1_4 1_555 1_555
C1_4 C5_4 1_555 1_555
C6_4 C1_4 1_555 1_555
H2_4 C6_4 1_555 1_555
H3_4 C7_4 1_555 1_555
C6_4 C7_4 1_555 1_555
O22_2 S1_6 1_555 1_555
O18 C12_4 1_555 1_555
O20 C12_4 1_555 1_555
O24_2 C9_4 1_555 1_555
N4_2 C8_4 1_555 1_555
C8_4 C12_4 1_555 1_555
C9_4 O10_4 1_555 1_555
C10_4 C9_4 1_555 1_555
C11_4 N4_2 1_555 1_555
H6_4 C11_4 1_555 1_555
C13_4 C8_4 1_555 1_555
H7_4 C13_4 1_555 1_555
C14_4 C10_4 1_555 1_555
H8_4 C14_4 1_555 1_555
C10_4 C11_4 1_555 1_555
C13_4 C14_4 1_555 1_555
O4_4 Pr9 1_555 1_555
Pr10 O8_4 1_555 1_555
O14_4 Pr10 1_555 1_555
H9_4 O14_4 1_555 1_555
H10_4 O14_4 1_555 1_555
O1_4 C2_4 1_555 1_555
O23_2 C2_4 1_555 1_555
C2_4 C3_4 1_555 1_555
C3_4 C4_4 1_555 1_555
H1_4 C4_4 1_555 1_555

#END
