
###############################################################################
#
# This file contains modified crystal structure data generated from the
# MOF subset of the Cambridge Structural Database (CSD) v543 
# hosted by the Cambridge Crystallographic Data Centre (CCDC).
#
# This work is licensed under the Creative Commons
# Attribution-NonCommercial-ShareAlike 4.0 International License.
# To view a copy of this license, visit
# http://creativecommons.org/licenses/by-nc-sa/4.0/
# or send a letter to
# Creative Commons, PO Box 1866, Mountain View, CA 94042, USA.
#
# CIF created using the CSD Python API on 29 September 2022
# The structure has been converted into the P1 space group
# The structure has a 3D framework
# The original CSD entry COSYIV is in the orthorhombic crystal system
# The original CSD entry COSYIV is in a Sohncke space group
# The framework has been calculated to contain at least 10.0% void space
# The void calculation uses a probe of radius 1.32A, grid spacing 0.4
#
###############################################################################

data_COSYIV
_chemical_formula_moiety         '(C108 H104 Cd4 N16 O28)n'
_symmetry_cell_setting           triclinic
_symmetry_space_group_name_H-M   'P 1'
_symmetry_Int_Tables_number      1
_space_group_name_Hall           'P 1'
loop_
_symmetry_equiv_pos_site_id
_symmetry_equiv_pos_as_xyz
1 x,y,z
_cell_length_a                   7.4805(5)
_cell_length_b                   21.1395(9)
_cell_length_c                   21.4131(10)
_cell_angle_alpha                90
_cell_angle_beta                 90
_cell_angle_gamma                90
_cell_volume                     3386.14
loop_
_atom_site_label
_atom_site_type_symbol
_atom_site_fract_x
_atom_site_fract_y
_atom_site_fract_z
O8 O 0.0372(3) 0.42092(11) 0.33709(13)
O9 O 0.2108(4) 0.33672(11) 0.33102(15)
Cd3 Cd 0.07731(3) 0.80475(2) 0.16218(2)
O1 O 0.0939(4) 0.70095(10) 0.14120(12)
O3 O 0.3096(3) 0.50178(10) 0.31948(11)
N2 N 0.3167(4) 0.89945(12) 0.32106(12)
O4 O 0.0495(5) 0.70580(11) 0.24228(13)
O5 O 0.1965(7) 0.49049(18) 0.04373(16)
N4 N 0.2513(4) 0.84027(11) 0.23988(12)
C2 C 0.1948(4) 0.58264(14) 0.25723(16)
H2 H 0.194598 0.608349 0.292475
C4 C 0.0879(5) 0.67581(14) 0.19532(17)
C5 C 0.1411(4) 0.60724(14) 0.19969(16)
O7 O 0.2073(6) 0.40458(13) 0.10314(15)
C6 C 0.2104(5) 0.89239(14) 0.27047(15)
H3 H 0.120662 0.920478 0.258848
C8 C 0.2489(4) 0.51964(13) 0.26209(15)
C9 C 0.1940(4) 0.50480(14) 0.15231(16)
C11 C 0.1490(5) 0.56828(14) 0.14640(15)
H5 H 0.123963 0.585063 0.107217
C12 C 0.3555(4) 0.43700(14) 0.33091(18)
H6 H 0.435579 0.421939 0.297884
C14 C 0.1880(4) 0.39558(14) 0.33275(15)
C15 C 0.2408(4) 0.48090(14) 0.21037(15)
H8 H 0.267050 0.438105 0.214480
C16 C 0.4331(5) 0.84977(14) 0.32093(15)
H9 H 0.522770 0.842344 0.350109
C17 C 0.3949(4) 0.81318(13) 0.27072(15)
C19 C 0.3112(4) 0.95187(14) 0.36390(15)
C20 C 0.2865(5) 0.94254(15) 0.42660(16)
C21 C 0.2800(5) 0.99694(14) 0.46388(14)
H10 H 0.264672 0.992614 0.506771
C23 C 0.1983(6) 0.46241(18) 0.09774(19)
C24 C 0.4838(6) 0.75386(15) 0.24851(19)
H14 H 0.416394 0.717829 0.262267
H15 H 0.602682 0.751660 0.265296
H16 H 0.489525 0.754060 0.203720
C26 C 0.4500(7) 0.4340(2) 0.3926(2)
H20 H 0.557347 0.458838 0.390608
H21 H 0.479825 0.390902 0.401931
H22 H 0.373311 0.450480 0.424642
C27 C 0.2584(8) 0.87921(16) 0.45585(19)
H23 H 0.153061 0.860016 0.438617
H24 H 0.244014 0.884115 0.500133
H25 H 0.360037 0.852776 0.447599
H26 H 0.304(3) 0.497(4) 0.042(4)
N5 N 0.1812(4) 0.83367(11) 0.06656(11)
C1 C 0.1279(4) 0.88386(13) 0.03558(14)
H1 H 0.040284 0.911730 0.049480
C3 C 0.3140(4) 0.80610(15) 0.03095(13)
C25 C 0.4115(6) 0.74855(17) 0.05194(19)
H17 H 0.455556 0.754957 0.093569
H18 H 0.510064 0.740610 0.024311
H19 H 0.331837 0.712951 0.051472
H18_2 H 0.010064 0.759390 0.975689
Cd1 Cd 0.92269(3) 0.30475(2) 0.33782(2)
O1_2 O 0.9061(4) 0.20095(10) 0.35880(12)
O3_2 O 0.6904(3) 0.00178(10) 0.18052(11)
N1 N 0.7172(4) 0.61015(11) 0.01945(11)
N2_2 N 0.6833(4) 0.39945(12) 0.17894(12)
O4_2 O 0.9505(5) 0.20580(11) 0.25772(13)
N4_2 N 0.7487(4) 0.34027(11) 0.26012(12)
C2_2 C 0.8052(4) 0.08264(14) 0.24277(16)
H2_2 H 0.805402 0.108349 0.207525
C4_2 C 0.9121(5) 0.17581(14) 0.30468(17)
C5_2 C 0.8589(4) 0.10724(14) 0.30031(16)
C6_2 C 0.7896(5) 0.39239(14) 0.22953(15)
H3_2 H 0.879338 0.420478 0.241152
C7 C 0.7039(4) 0.55764(13) 0.06165(14)
C8_2 C 0.7511(4) 0.01964(13) 0.23791(15)
C9_2 C 0.8060(4) 0.00480(14) 0.34769(16)
C10 C 0.8358(5) 0.65937(15) 0.02277(14)
H4 H 0.915476 0.667744 0.055078
C11_2 C 0.8510(5) 0.06828(14) 0.35360(15)
H5_2 H 0.876037 0.085063 0.392783
C13 C 0.6708(4) 0.51280(13) 0.16178(16)
H7 H 0.655053 0.516945 0.204669
C16_2 C 0.5669(5) 0.34977(14) 0.17907(15)
H9_2 H 0.477230 0.342344 0.149891
C17_2 C 0.6051(4) 0.31318(13) 0.22928(15)
C18 C 0.6757(4) 0.56703(13) 0.12503(14)
C19_2 C 0.6888(4) 0.45187(14) 0.13610(15)
C20_2 C 0.7135(5) 0.44254(15) 0.07340(16)
C21_2 C 0.7200(5) 0.49694(14) 0.03612(14)
C22 C 0.6400(5) 0.62992(14) 0.15402(16)
H11 H 0.736732 0.658221 0.144605
H12 H 0.629843 0.625161 0.198459
H13 H 0.530590 0.646877 0.137648
C24_2 C 0.5162(6) 0.25386(15) 0.25149(19)
H14_2 H 0.583606 0.217829 0.237733
H15_2 H 0.397318 0.251660 0.234704
H16_2 H 0.510475 0.254060 0.296280
C27_2 C 0.7416(8) 0.37921(16) 0.04415(19)
H23_2 H 0.846939 0.360016 0.061383
H25_2 H 0.639963 0.352776 0.052401
N5_2 N 0.8188(4) 0.33367(11) 0.43344(11)
N3 N 0.6812(4) 0.66633(11) 0.93344(11)
C1_2 C 0.6279(4) 0.61614(13) 0.96442(14)
H1_2 H 0.540284 0.588270 0.950520
C3_2 C 0.8140(4) 0.69390(15) 0.96905(13)
H10_2 H 0.735328 0.492614 0.993229
C25_2 C 0.9115(6) 0.75145(17) 0.94806(19)
H17_2 H 0.955556 0.745043 0.906431
H19_2 H 0.831837 0.787049 0.948528
H24_2 H 0.755986 0.384115 0.999867
Cd2 Cd 0.57731(3) 0.69525(2) 0.83782(2)
O2 O 0.9628(3) 0.92092(11) 0.16291(13)
O5_2 O 0.8035(7) 0.99049(18) 0.45627(16)
O6 O 0.7892(4) 0.83672(11) 0.16898(15)
O7_2 O 0.7927(6) 0.90458(13) 0.39686(15)
C12_2 C 0.6445(4) 0.93700(14) 0.16909(18)
H6_2 H 0.564421 0.921939 0.202116
C14_2 C 0.8120(4) 0.89558(14) 0.16725(15)
C15_2 C 0.7592(4) 0.98090(14) 0.28963(15)
H8_2 H 0.732950 0.938105 0.285520
C23_2 C 0.8017(6) 0.96241(18) 0.40226(19)
C26_2 C 0.5500(7) 0.9340(2) 0.1074(2)
H20_2 H 0.442653 0.958838 0.109392
H21_2 H 0.520175 0.890902 0.098069
H22_2 H 0.626689 0.950480 0.075358
H26_2 H 0.696(3) 0.997(4) 0.458(4)
O2_2 O 0.5372(3) 0.07908(11) 0.66291(13)
O5_3 O 0.6965(7) 0.00951(18) 0.95627(16)
O6_2 O 0.7108(4) 0.16328(11) 0.66898(15)
O7_3 O 0.7073(6) 0.09542(13) 0.89686(15)
C12_3 C 0.8555(4) 0.06300(14) 0.66909(18)
H6_3 H 0.935579 0.078061 0.702116
C14_3 C 0.6880(4) 0.10442(14) 0.66725(15)
C15_3 C 0.7408(4) 0.01910(14) 0.78963(15)
H8_3 H 0.767050 0.061895 0.785520
C23_3 C 0.6983(6) 0.03759(18) 0.90226(19)
C26_3 C 0.9500(7) 0.0660(2) 0.6074(2)
H21_3 H 0.979825 0.109098 0.598069
H22_3 H 0.873311 0.049520 0.575358
H26_3 H 0.804(3) 0.003(4) 0.958(4)
Cd3_2 Cd 0.42269(3) 0.19525(2) 0.66218(2)
O1_3 O 0.5939(4) 0.79905(10) 0.85880(12)
O3_3 O 0.8096(3) 0.99822(10) 0.68052(11)
N1_2 N 0.7828(4) 0.38985(11) 0.51945(11)
N2_3 N 0.8167(4) 0.60055(12) 0.67894(12)
O4_3 O 0.5495(5) 0.79420(11) 0.75772(13)
N4_3 N 0.7513(4) 0.65973(11) 0.76012(12)
C1_3 C 0.8721(4) 0.38386(13) 0.46442(14)
H1_3 H 0.959716 0.411730 0.450520
C2_3 C 0.6948(4) 0.91736(14) 0.74277(16)
H2_3 H 0.694598 0.891651 0.707525
C3_3 C 0.6860(4) 0.30610(15) 0.46905(13)
C4_3 C 0.5879(5) 0.82419(14) 0.80468(17)
C5_3 C 0.6411(4) 0.89276(14) 0.80031(16)
C6_3 C 0.7104(5) 0.60761(14) 0.72953(15)
H3_3 H 0.620662 0.579522 0.741152
C7_2 C 0.7961(4) 0.44236(13) 0.56165(14)
C8_3 C 0.7489(4) 0.98036(13) 0.73791(15)
C9_3 C 0.6940(4) 0.99520(14) 0.84769(16)
C10_2 C 0.6642(5) 0.34063(15) 0.52277(14)
H4_2 H 0.584524 0.332256 0.555078
C11_3 C 0.6490(5) 0.93172(14) 0.85360(15)
H5_3 H 0.623963 0.914937 0.892783
C13_2 C 0.8292(4) 0.48720(13) 0.66178(16)
H7_2 H 0.844947 0.483055 0.704669
C16_3 C 0.9331(5) 0.65023(14) 0.67907(15)
C17_3 C 0.8949(4) 0.68682(13) 0.72928(15)
C18_2 C 0.8243(4) 0.43297(13) 0.62503(14)
C19_3 C 0.8112(4) 0.54813(14) 0.63610(15)
C20_3 C 0.7865(5) 0.55746(15) 0.57340(16)
C21_3 C 0.7800(5) 0.50306(14) 0.53612(14)
H10_3 H 0.764672 0.507386 0.493229
C22_2 C 0.8600(5) 0.37008(14) 0.65402(16)
H11_2 H 0.763268 0.341779 0.644605
H12_2 H 0.870157 0.374839 0.698459
H13_2 H 0.969410 0.353123 0.637648
C24_3 C 0.9838(6) 0.74614(15) 0.75149(19)
H14_3 H 0.916394 0.782171 0.737733
H16_3 H 0.989525 0.745940 0.796280
C25_3 C 0.5885(6) 0.24855(17) 0.44806(19)
H17_3 H 0.544444 0.254957 0.406431
H18_3 H 0.489936 0.240610 0.475689
H19_3 H 0.668163 0.212951 0.448528
C27_3 C 0.7584(8) 0.62079(16) 0.54415(19)
H23_3 H 0.653061 0.639984 0.561383
H24_3 H 0.744014 0.615885 0.499867
H25_3 H 0.860037 0.647224 0.552401
O8_2 O 0.4628(3) 0.57908(11) 0.83709(13)
O9_2 O 0.2892(4) 0.66328(11) 0.83102(15)
N1_3 N 0.2828(4) 0.11015(11) 0.48055(11)
N3_2 N 0.3188(4) 0.16633(11) 0.56656(11)
C1_4 C 0.3721(4) 0.11614(13) 0.53558(14)
H1_4 H 0.459716 0.088270 0.549480
C3_4 C 0.1860(4) 0.19390(15) 0.53095(13)
C7_3 C 0.2961(4) 0.05764(13) 0.43835(14)
C10_3 C 0.1642(5) 0.15937(15) 0.47723(14)
H4_3 H 0.084524 0.167744 0.444922
C13_3 C 0.3292(4) 0.01280(13) 0.33822(16)
H7_3 H 0.344947 0.016945 0.295331
C18_3 C 0.3243(4) 0.06703(13) 0.37497(14)
C22_3 C 0.3600(5) 0.12992(14) 0.34598(16)
H11_3 H 0.263268 0.158221 0.355395
H12_3 H 0.370157 0.125161 0.301541
H13_3 H 0.469410 0.146877 0.362352
C25_4 C 0.0885(6) 0.25145(17) 0.55194(19)
H17_4 H 0.044444 0.245043 0.593569
H19_4 H 0.168163 0.287049 0.551472
O1_4 O 0.4061(4) 0.29905(10) 0.64120(12)
O3_4 O 0.1904(3) 0.49822(10) 0.81948(11)
N2_4 N 0.1833(4) 0.10055(12) 0.82106(12)
O4_4 O 0.4505(5) 0.29420(11) 0.74228(13)
O5_4 O 0.3035(7) 0.50951(18) 0.54373(16)
N4_4 N 0.2487(4) 0.15973(11) 0.73988(12)
C2_4 C 0.3052(4) 0.41736(14) 0.75723(16)
H2_4 H 0.305402 0.391651 0.792475
C4_4 C 0.4121(5) 0.32419(14) 0.69532(17)
C5_4 C 0.3589(4) 0.39276(14) 0.69969(16)
O7_4 O 0.2927(6) 0.59542(13) 0.60314(15)
C6_4 C 0.2896(5) 0.10761(14) 0.77047(15)
H3_4 H 0.379338 0.079522 0.758848
C8_4 C 0.2511(4) 0.48036(13) 0.76209(15)
C9_4 C 0.3060(4) 0.49520(14) 0.65231(16)
C11_4 C 0.3510(5) 0.43172(14) 0.64640(15)
H5_4 H 0.376037 0.414937 0.607217
C12_4 C 0.1445(4) 0.56300(14) 0.83091(18)
H6_4 H 0.064421 0.578061 0.797884
C14_4 C 0.3120(4) 0.60442(14) 0.83275(15)
C15_4 C 0.2592(4) 0.51910(14) 0.71037(15)
H8_4 H 0.232950 0.561895 0.714480
C16_4 C 0.0669(5) 0.15023(14) 0.82093(15)
C17_4 C 0.1051(4) 0.18682(13) 0.77072(15)
C19_4 C 0.1888(4) 0.04813(14) 0.86390(15)
C20_4 C 0.2135(5) 0.05746(15) 0.92660(16)
C21_4 C 0.2200(5) 0.00306(14) 0.96388(14)
C23_4 C 0.3017(6) 0.53759(18) 0.59774(19)
C24_4 C 0.0162(6) 0.24614(15) 0.74851(19)
H14_4 H 0.083606 0.282171 0.762267
H16_4 H 0.010475 0.245940 0.703720
C26_4 C 0.0500(7) 0.5660(2) 0.8926(2)
H21_4 H 0.020175 0.609098 0.901931
H22_4 H 0.126689 0.549520 0.924642
C27_4 C 0.2416(8) 0.12079(16) 0.95585(19)
H23_4 H 0.346939 0.139984 0.938617
H25_4 H 0.139963 0.147224 0.947599
H26_4 H 0.196(3) 0.503(4) 0.542(4)
H20_3 H 0.057347 0.041162 0.609392
H9_3 H 0.022770 0.657656 0.649891
H15_3 H 0.102682 0.748340 0.734704
H18_4 H 0.989936 0.259390 0.524311
H10_4 H 0.235328 0.007386 0.006771
H24_4 H 0.255986 0.115885 0.000133
N1_4 N 0.2172(4) 0.88985(11) 0.98055(11)
C7_4 C 0.2039(4) 0.94236(13) 0.93835(14)
C10_4 C 0.3358(5) 0.84063(15) 0.97723(14)
H4_4 H 0.415476 0.832256 0.944922
C13_4 C 0.1708(4) 0.98720(13) 0.83822(16)
H7_4 H 0.155053 0.983055 0.795331
C18_4 C 0.1757(4) 0.93297(13) 0.87497(14)
C22_4 C 0.1400(5) 0.87008(14) 0.84598(16)
H11_4 H 0.236732 0.841779 0.855395
H12_4 H 0.129843 0.874839 0.801541
H13_4 H 0.030590 0.853123 0.862352
H9_4 H 0.977230 0.157656 0.850109
H15_4 H 0.897318 0.248340 0.765296
H20_4 H 0.942653 0.541162 0.890608
loop_
_geom_bond_atom_site_label_1
_geom_bond_atom_site_label_2
_geom_bond_site_symmetry_1
_geom_bond_site_symmetry_2
Cd3 O1 1_555 1_555
O1 C4 1_555 1_555
O8 C14 1_555 1_555
O3 C8 1_555 1_555
N2 C6 1_555 1_555
O4 Cd3 1_555 1_555
O5 C23 1_555 1_555
O9 C14 1_555 1_555
N4 Cd3 1_555 1_555
C2 H2 1_555 1_555
C4 O4 1_555 1_555
C5 C2 1_555 1_555
O7 C23 1_555 1_555
C6 N4 1_555 1_555
H3 C6 1_555 1_555
C8 C2 1_555 1_555
C9 C11 1_555 1_555
C11 C5 1_555 1_555
H5 C11 1_555 1_555
C12 O3 1_555 1_555
H6 C12 1_555 1_555
C14 C12 1_555 1_555
C15 C8 1_555 1_555
H8 C15 1_555 1_555
C16 N2 1_555 1_555
H9 C16 1_555 1_555
C17 N4 1_555 1_555
C19 N2 1_555 1_555
C20 C19 1_555 1_555
H10 C21 1_555 1_555
C23 C9 1_555 1_555
C24 C17 1_555 1_555
H14 C24 1_555 1_555
H15 C24 1_555 1_555
H16 C24 1_555 1_555
C26 C12 1_555 1_555
H20 C26 1_555 1_555
H21 C26 1_555 1_555
H22 C26 1_555 1_555
C27 C20 1_555 1_555
H23 C27 1_555 1_555
H24 C27 1_555 1_555
H25 C27 1_555 1_555
H26 O5 1_555 1_555
N5 Cd3 1_555 1_555
C4 C5 1_555 1_555
C9 C15 1_555 1_555
C16 C17 1_555 1_555
C20 C21 1_555 1_555
N5 C1 1_555 1_555
C1 H1 1_555 1_555
C3 N5 1_555 1_555
C25 C3 1_555 1_555
H17 C25 1_555 1_555
H18 C25 1_555 1_555
H19 C25 1_555 1_555
Cd1 O1_2 1_555 1_555
O1_2 C4_2 1_555 1_555
O3_2 C8_2 1_555 1_555
N2_2 C6_2 1_555 1_555
O4_2 Cd1 1_555 1_555
N4_2 Cd1 1_555 1_555
C2_2 H2_2 1_555 1_555
C4_2 O4_2 1_555 1_555
C5_2 C2_2 1_555 1_555
C6_2 N4_2 1_555 1_555
H3_2 C6_2 1_555 1_555
C7 N1 1_555 1_555
C8_2 C2_2 1_555 1_555
C9_2 C11_2 1_555 1_555
C10 N1 1_555 1_555
H4 C10 1_555 1_555
C11_2 C5_2 1_555 1_555
H5_2 C11_2 1_555 1_555
C13 H7 1_555 1_555
C16_2 N2_2 1_555 1_555
H9_2 C16_2 1_555 1_555
C17_2 N4_2 1_555 1_555
C18 C7 1_555 1_555
C19_2 N2_2 1_555 1_555
C20_2 C19_2 1_555 1_555
C21_2 C7 1_555 1_555
C22 C18 1_555 1_555
H11 C22 1_555 1_555
H12 C22 1_555 1_555
H13 C22 1_555 1_555
C24_2 C17_2 1_555 1_555
H14_2 C24_2 1_555 1_555
H15_2 C24_2 1_555 1_555
H16_2 C24_2 1_555 1_555
C27_2 C20_2 1_555 1_555
H23_2 C27_2 1_555 1_555
H25_2 C27_2 1_555 1_555
N5_2 Cd1 1_555 1_555
C4_2 C5_2 1_555 1_555
C13 C18 1_555 1_555
C13 C19_2 1_555 1_555
C16_2 C17_2 1_555 1_555
C20_2 C21_2 1_555 1_555
N3 C1_2 1_555 1_555
C1_2 H1_2 1_555 1_555
C3_2 N3 1_555 1_555
C25_2 C3_2 1_555 1_555
H17_2 C25_2 1_555 1_555
H19_2 C25_2 1_555 1_555
Cd2 N3 1_555 1_555
O2 C14_2 1_555 1_555
O5_2 C23_2 1_555 1_555
O6 C14_2 1_555 1_555
O7_2 C23_2 1_555 1_555
H6_2 C12_2 1_555 1_555
C14_2 C12_2 1_555 1_555
H8_2 C15_2 1_555 1_555
C26_2 C12_2 1_555 1_555
H20_2 C26_2 1_555 1_555
H21_2 C26_2 1_555 1_555
H22_2 C26_2 1_555 1_555
H26_2 O5_2 1_555 1_555
O2_2 C14_3 1_555 1_555
O5_3 C23_3 1_555 1_555
O6_2 C14_3 1_555 1_555
O7_3 C23_3 1_555 1_555
H6_3 C12_3 1_555 1_555
C14_3 C12_3 1_555 1_555
H8_3 C15_3 1_555 1_555
C26_3 C12_3 1_555 1_555
H21_3 C26_3 1_555 1_555
H22_3 C26_3 1_555 1_555
H26_3 O5_3 1_555 1_555
Cd3_2 O2_2 1_555 1_555
O6_2 Cd3_2 1_555 1_555
Cd2 O1_3 1_555 1_555
O1_3 C4_3 1_555 1_555
O3_3 C8_3 1_555 1_555
N1_2 C1_3 1_555 1_555
N2_3 C6_3 1_555 1_555
N5_2 C1_3 1_555 1_555
O4_3 Cd2 1_555 1_555
N4_3 Cd2 1_555 1_555
C1_3 H1_3 1_555 1_555
C2_3 H2_3 1_555 1_555
C3_3 N5_2 1_555 1_555
C4_3 O4_3 1_555 1_555
C5_3 C2_3 1_555 1_555
C6_3 N4_3 1_555 1_555
H3_3 C6_3 1_555 1_555
C7_2 N1_2 1_555 1_555
C8_3 C2_3 1_555 1_555
C9_3 C11_3 1_555 1_555
C10_2 N1_2 1_555 1_555
H4_2 C10_2 1_555 1_555
C11_3 C5_3 1_555 1_555
H5_3 C11_3 1_555 1_555
C13_2 H7_2 1_555 1_555
C16_3 N2_3 1_555 1_555
C17_3 N4_3 1_555 1_555
C18_2 C7_2 1_555 1_555
C19_3 N2_3 1_555 1_555
C20_3 C19_3 1_555 1_555
C21_3 C7_2 1_555 1_555
H10_3 C21_3 1_555 1_555
C22_2 C18_2 1_555 1_555
H11_2 C22_2 1_555 1_555
H12_2 C22_2 1_555 1_555
H13_2 C22_2 1_555 1_555
C24_3 C17_3 1_555 1_555
H14_3 C24_3 1_555 1_555
H16_3 C24_3 1_555 1_555
C25_3 C3_3 1_555 1_555
H17_3 C25_3 1_555 1_555
H18_3 C25_3 1_555 1_555
H19_3 C25_3 1_555 1_555
C27_3 C20_3 1_555 1_555
H23_3 C27_3 1_555 1_555
H24_3 C27_3 1_555 1_555
H25_3 C27_3 1_555 1_555
O8_2 Cd2 1_555 1_555
O9_2 Cd2 1_555 1_555
C3_3 C10_2 1_555 1_555
C4_3 C5_3 1_555 1_555
C13_2 C18_2 1_555 1_555
C13_2 C19_3 1_555 1_555
C16_3 C17_3 1_555 1_555
C20_3 C21_3 1_555 1_555
N1_3 C1_4 1_555 1_555
N3_2 C1_4 1_555 1_555
C1_4 H1_4 1_555 1_555
C3_4 N3_2 1_555 1_555
C7_3 N1_3 1_555 1_555
C10_3 N1_3 1_555 1_555
H4_3 C10_3 1_555 1_555
C13_3 H7_3 1_555 1_555
C18_3 C7_3 1_555 1_555
C22_3 C18_3 1_555 1_555
H11_3 C22_3 1_555 1_555
H12_3 C22_3 1_555 1_555
H13_3 C22_3 1_555 1_555
C25_4 C3_4 1_555 1_555
H17_4 C25_4 1_555 1_555
H19_4 C25_4 1_555 1_555
Cd3_2 N3_2 1_555 1_555
C3_4 C10_3 1_555 1_555
C13_3 C18_3 1_555 1_555
Cd3_2 O1_4 1_555 1_555
O1_4 C4_4 1_555 1_555
O8_2 C14_4 1_555 1_555
O3_4 C8_4 1_555 1_555
N2_4 C6_4 1_555 1_555
O4_4 Cd3_2 1_555 1_555
O5_4 C23_4 1_555 1_555
O9_2 C14_4 1_555 1_555
N4_4 Cd3_2 1_555 1_555
C2_4 H2_4 1_555 1_555
C4_4 O4_4 1_555 1_555
C5_4 C2_4 1_555 1_555
O7_4 C23_4 1_555 1_555
C6_4 N4_4 1_555 1_555
H3_4 C6_4 1_555 1_555
C8_4 C2_4 1_555 1_555
C9_4 C11_4 1_555 1_555
C11_4 C5_4 1_555 1_555
H5_4 C11_4 1_555 1_555
C12_4 O3_4 1_555 1_555
H6_4 C12_4 1_555 1_555
C14_4 C12_4 1_555 1_555
C15_4 C8_4 1_555 1_555
H8_4 C15_4 1_555 1_555
C16_4 N2_4 1_555 1_555
C17_4 N4_4 1_555 1_555
C19_4 N2_4 1_555 1_555
C20_4 C19_4 1_555 1_555
C23_4 C9_4 1_555 1_555
C24_4 C17_4 1_555 1_555
H14_4 C24_4 1_555 1_555
H16_4 C24_4 1_555 1_555
C26_4 C12_4 1_555 1_555
H21_4 C26_4 1_555 1_555
H22_4 C26_4 1_555 1_555
C27_4 C20_4 1_555 1_555
H23_4 C27_4 1_555 1_555
H25_4 C27_4 1_555 1_555
H26_4 O5_4 1_555 1_555
C4_4 C5_4 1_555 1_555
C9_4 C15_4 1_555 1_555
C16_4 C17_4 1_555 1_555
C20_4 C21_4 1_555 1_555
C7_4 N1_4 1_555 1_555
C10_4 N1_4 1_555 1_555
H4_4 C10_4 1_555 1_555
C13_4 H7_4 1_555 1_555
C18_4 C7_4 1_555 1_555
C22_4 C18_4 1_555 1_555
H11_4 C22_4 1_555 1_555
H12_4 C22_4 1_555 1_555
H13_4 C22_4 1_555 1_555
C13_4 C18_4 1_555 1_555

#END
