
###############################################################################
#
# This file contains modified crystal structure data generated from the
# MOF subset of the Cambridge Structural Database (CSD) v543 
# hosted by the Cambridge Crystallographic Data Centre (CCDC).
#
# This work is licensed under the Creative Commons
# Attribution-NonCommercial-ShareAlike 4.0 International License.
# To view a copy of this license, visit
# http://creativecommons.org/licenses/by-nc-sa/4.0/
# or send a letter to
# Creative Commons, PO Box 1866, Mountain View, CA 94042, USA.
#
# CIF created using the CSD Python API on 29 September 2022
# The structure has been converted into the P1 space group
# The structure has a 3D framework
# The original CSD entry COSYER is in the orthorhombic crystal system
# The original CSD entry COSYER is in a Sohncke space group
# The framework has been calculated to contain at least 10.0% void space
# The void calculation uses a probe of radius 1.32A, grid spacing 0.4
# H atom positions have been added when not included in the experimental data
#
###############################################################################

data_COSYER
_chemical_formula_moiety         '(C108 H104 Cd4 N16 O28)n'
_symmetry_cell_setting           triclinic
_symmetry_space_group_name_H-M   'P 1'
_symmetry_Int_Tables_number      1
_space_group_name_Hall           'P 1'
loop_
_symmetry_equiv_pos_site_id
_symmetry_equiv_pos_as_xyz
1 x,y,z
_cell_length_a                   7.4799(4)
_cell_length_b                   21.1439(9)
_cell_length_c                   21.4285(9)
_cell_angle_alpha                90
_cell_angle_beta                 90
_cell_angle_gamma                90
_cell_volume                     3389.01
loop_
_atom_site_label
_atom_site_type_symbol
_atom_site_fract_x
_atom_site_fract_y
_atom_site_fract_z
O2 O 0.0347(3) 0.07876(12) 0.83783(13)
O4 O 0.2069(4) 0.16295(13) 0.83150(16)
O6 O 0.1980(6) 0.00911(16) 0.54391(14)
O7 O 0.2047(6) 0.09552(15) 0.60375(16)
C10 C 0.1841(4) 0.10441(15) 0.83293(15)
C11 C 0.3525(5) 0.06325(15) 0.83013(17)
H5 H 0.434623 0.078457 0.797817
C16 C 0.2415(5) 0.01951(14) 0.71094(15)
H9 H 0.269336 0.062187 0.714928
C24 C 0.1975(6) 0.03743(19) 0.59776(19)
C26 C 0.4411(8) 0.0648(2) 0.8942(2)
H20 H 0.374624 0.038773 0.922603
H21 H 0.443245 0.107536 0.909380
H22 H 0.561207 0.049182 0.890904
H26 H 0.309746 0.0197343 0.521194
N3 N 0.3168(4) 0.33370(12) 0.06665(11)
C1 C 0.3697(4) 0.38493(15) 0.03608(14)
H1 H 0.455286 0.413279 0.050502
C4 C 0.1841(4) 0.30567(15) 0.03075(13)
H13 H 0.260124 0.506876 0.006738
C25 C 0.0862(7) 0.24869(18) 0.05111(19)
H17 H 0.169724 0.215417 0.059977
H18 H 0.006389 0.235360 0.018573
H19 H 0.018643 0.258219 0.088036
H24 H 0.271284 0.616823 0.000370
Cd2 Cd 0.41995(3) 0.30475(2) 0.16211(2)
Cd1 Cd 0.08005(3) 0.69525(2) 0.66211(2)
O1 O 0.0976(4) 0.79913(11) 0.64053(13)
N1 N 0.2818(4) 0.39039(12) 0.98087(11)
N2 N 0.3194(4) 0.60056(12) 0.82059(12)
O3 O 0.3068(3) 0.99785(11) 0.81993(11)
O5 O 0.0533(5) 0.79398(13) 0.74135(14)
N4 N 0.2536(4) 0.65942(12) 0.73977(12)
C2 C 0.0886(5) 0.82431(15) 0.69512(16)
C3 C 0.1436(4) 0.89269(15) 0.69956(16)
C5 C 0.1934(4) 0.91716(15) 0.75797(16)
H2 H 0.190692 0.891624 0.793293
C6 C 0.2471(4) 0.98024(14) 0.76243(15)
C7 C 0.2957(4) 0.44313(15) 0.93898(13)
C8 C 0.1607(4) 0.34044(15) 0.97760(15)
H3 H 0.079896 0.332361 0.945590
C9 C 0.1496(5) 0.93151(16) 0.64657(15)
H4 H 0.124051 0.914846 0.607408
C12 C 0.2119(5) 0.60799(15) 0.77085(15)
H6 H 0.120233 0.580406 0.759919
C13 C 0.4346(5) 0.65019(15) 0.82146(14)
H7 H 0.522696 0.657982 0.851120
C14 C 0.3296(4) 0.48771(15) 0.83809(16)
H8 H 0.345227 0.483488 0.795232
C15 C 0.1938(4) 0.99472(15) 0.65281(15)
C17 C 0.3138(5) 0.54823(15) 0.86335(15)
C18 C 0.3229(4) 0.43306(14) 0.87496(14)
C19 C 0.3963(4) 0.68659(14) 0.77025(14)
C20 C 0.2867(6) 0.55752(16) 0.92655(15)
C21 C 0.3588(5) 0.36997(15) 0.84616(16)
H10 H 0.455713 0.349782 0.867755
H11 H 0.390155 0.375458 0.803051
H12 H 0.253648 0.344121 0.849156
C22 C 0.2781(5) 0.50263(16) 0.96400(14)
C23 C 0.4881(6) 0.74547(18) 0.74733(19)
H14 H 0.511644 0.741623 0.703446
H15 H 0.598860 0.750939 0.769331
H16 H 0.412535 0.781414 0.754571
C27 C 0.2654(8) 0.62090(19) 0.9558(2)
H23 H 0.359464 0.648324 0.941731
H25 H 0.151864 0.638447 0.944162
N5 N 0.1832(4) 0.66630(12) 0.56665(11)
O1_2 O 0.4024(4) 0.20087(11) 0.14053(13)
N1_2 N 0.2182(4) 0.60961(12) 0.48087(11)
N2_2 N 0.1806(4) 0.39944(12) 0.32059(12)
O3_2 O 0.1932(3) 0.00215(11) 0.31993(11)
O5_2 O 0.4467(5) 0.20602(13) 0.24135(14)
C1_2 C 0.1303(4) 0.61507(15) 0.53608(14)
H1_2 H 0.044714 0.586721 0.550502
N4_2 N 0.2464(4) 0.34058(12) 0.23977(12)
C2_2 C 0.4114(5) 0.17569(15) 0.19512(16)
C3_2 C 0.3564(4) 0.10731(15) 0.19956(16)
C4_2 C 0.3159(4) 0.69433(15) 0.53075(13)
C5_2 C 0.3066(4) 0.08284(15) 0.25797(16)
H2_2 H 0.309308 0.108376 0.293293
C6_2 C 0.2529(4) 0.01976(14) 0.26243(15)
C7_2 C 0.2043(4) 0.55687(15) 0.43898(13)
C8_2 C 0.3393(4) 0.65956(15) 0.47760(15)
H3_2 H 0.420104 0.667639 0.445590
C9_2 C 0.3504(5) 0.06849(16) 0.14657(15)
H4_2 H 0.375949 0.085154 0.107408
C12_2 C 0.2881(5) 0.39201(15) 0.27085(15)
H6_2 H 0.379767 0.419594 0.259919
C13_2 C 0.0654(5) 0.34981(15) 0.32146(14)
C14_2 C 0.1704(4) 0.51229(15) 0.33809(16)
H8_2 H 0.154773 0.516512 0.295232
C15_2 C 0.3062(4) 0.00528(15) 0.15281(15)
C17_2 C 0.1862(5) 0.45177(15) 0.36335(15)
C18_2 C 0.1771(4) 0.56694(14) 0.37496(14)
C19_2 C 0.1037(4) 0.31341(14) 0.27025(14)
C20_2 C 0.2133(6) 0.44248(16) 0.42655(15)
C21_2 C 0.1412(5) 0.63003(15) 0.34616(16)
H10_2 H 0.044287 0.650218 0.367755
H11_2 H 0.109845 0.624542 0.303051
H12_2 H 0.246352 0.655879 0.349156
C22_2 C 0.2219(5) 0.49737(16) 0.46400(14)
H13_2 H 0.239876 0.493124 0.506738
C23_2 C 0.0119(6) 0.25453(18) 0.24733(19)
H16_2 H 0.087465 0.218586 0.254571
C25_2 C 0.4138(7) 0.75131(18) 0.55111(19)
H17_2 H 0.330276 0.784583 0.559977
H18_2 H 0.493611 0.764640 0.518573
H19_2 H 0.481357 0.741781 0.588036
C27_2 C 0.2346(8) 0.37910(19) 0.4558(2)
H23_2 H 0.140536 0.351676 0.441731
H24_2 H 0.228716 0.383177 0.500370
H25_2 H 0.348136 0.361553 0.444162
O8 O 0.5347(3) 0.42124(12) 0.16217(13)
O9 O 0.7069(4) 0.33705(13) 0.16850(16)
O2_2 O 0.4653(3) 0.92124(12) 0.33783(13)
O4_2 O 0.2931(4) 0.83705(13) 0.33150(16)
O6_2 O 0.3020(6) 0.99089(16) 0.04391(14)
O7_2 O 0.2953(6) 0.90448(15) 0.10375(16)
C10_2 C 0.3159(4) 0.89559(15) 0.33293(15)
C11_2 C 0.1475(5) 0.93675(15) 0.33013(17)
H5_2 H 0.065377 0.921543 0.297817
C16_2 C 0.2585(5) 0.98049(14) 0.21094(15)
H9_2 H 0.230664 0.937813 0.214928
C24_2 C 0.3025(6) 0.96257(19) 0.09776(19)
C26_2 C 0.0589(8) 0.9352(2) 0.3942(2)
H20_2 H 0.125376 0.961227 0.422603
H21_2 H 0.056755 0.892464 0.409380
Cd3 Cd 0.58005(3) 0.80475(2) 0.33789(2)
H26_2 H 0.190254 0.980266 0.0211938
N1_3 N 0.7182(4) 0.89039(12) 0.51913(11)
N3_2 N 0.6832(4) 0.83370(12) 0.43335(11)
C1_3 C 0.6303(4) 0.88493(15) 0.46392(14)
H1_3 H 0.544714 0.913279 0.449498
C4_3 C 0.8159(4) 0.80567(15) 0.46925(13)
C7_3 C 0.7043(4) 0.94313(15) 0.56102(13)
C8_3 C 0.8393(4) 0.84044(15) 0.52240(15)
H3_3 H 0.920104 0.832361 0.554410
C14_3 C 0.6704(4) 0.98771(15) 0.66191(16)
H8_3 H 0.654773 0.983488 0.704768
C18_3 C 0.6771(4) 0.93306(14) 0.62504(14)
C21_3 C 0.6412(5) 0.86997(15) 0.65384(16)
H10_3 H 0.544287 0.849782 0.632245
H11_3 H 0.609845 0.875458 0.696949
H12_3 H 0.746352 0.844121 0.650844
C25_3 C 0.9138(7) 0.74869(18) 0.44889(19)
H17_3 H 0.830276 0.715417 0.440023
H18_3 H 0.993611 0.735360 0.481427
H19_3 H 0.981357 0.758219 0.411964
O1_3 O 0.5976(4) 0.70087(11) 0.35947(13)
N2_3 N 0.8194(4) 0.89944(12) 0.17941(12)
O3_3 O 0.8068(3) 0.50215(11) 0.18007(11)
O5_3 O 0.5533(5) 0.70602(13) 0.25865(14)
O6_3 O 0.6980(6) 0.49089(16) 0.45609(14)
N4_3 N 0.7536(4) 0.84058(12) 0.26023(12)
C2_3 C 0.5886(5) 0.67569(15) 0.30488(16)
C3_3 C 0.6436(4) 0.60731(15) 0.30044(16)
O7_3 O 0.7047(6) 0.40448(15) 0.39625(16)
C5_3 C 0.6934(4) 0.58284(15) 0.24203(16)
H2_3 H 0.690692 0.608376 0.206707
C6_3 C 0.7471(4) 0.51976(14) 0.23757(15)
C9_3 C 0.6496(5) 0.56849(16) 0.35343(15)
H4_3 H 0.624051 0.585154 0.392592
C10_3 C 0.6841(4) 0.39559(15) 0.16707(15)
C11_3 C 0.8525(5) 0.43675(15) 0.16987(17)
H5_3 H 0.934623 0.421543 0.202183
C12_3 C 0.7119(5) 0.89201(15) 0.22915(15)
H6_3 H 0.620233 0.919594 0.240081
C13_3 C 0.9346(5) 0.84981(15) 0.17854(14)
C15_3 C 0.6938(4) 0.50528(15) 0.34719(15)
C16_3 C 0.7415(5) 0.48049(14) 0.28906(15)
H9_3 H 0.769336 0.437813 0.285072
C17_3 C 0.8138(5) 0.95177(15) 0.13665(15)
C19_3 C 0.8963(4) 0.81341(14) 0.22975(14)
C20_3 C 0.7867(6) 0.94248(16) 0.07345(15)
C22_3 C 0.7781(5) 0.99737(16) 0.03600(14)
C23_3 C 0.9881(6) 0.75453(18) 0.25267(19)
H16_3 H 0.912535 0.718586 0.245429
C24_3 C 0.6975(6) 0.46257(19) 0.40224(19)
C26_3 C 0.9411(8) 0.4352(2) 0.1058(2)
H20_3 H 0.874624 0.461227 0.077397
H21_3 H 0.943245 0.392464 0.090620
C27_3 C 0.7654(8) 0.87910(19) 0.0442(2)
H23_3 H 0.859464 0.851676 0.058269
H25_3 H 0.651864 0.861553 0.055838
H26_3 H 0.809746 0.480266 0.478806
Cd3_2 Cd 0.91995(3) 0.19525(2) 0.83789(2)
O8_2 O 0.9653(3) 0.57876(12) 0.66217(13)
O9_2 O 0.7931(4) 0.66295(13) 0.66850(16)
O1_4 O 0.9024(4) 0.29913(11) 0.85947(13)
N2_4 N 0.6806(4) 0.10056(12) 0.67941(12)
O3_4 O 0.6932(3) 0.49785(11) 0.68007(11)
O5_4 O 0.9467(5) 0.29398(13) 0.75865(14)
O6_4 O 0.8020(6) 0.50911(16) 0.95609(14)
N4_4 N 0.7464(4) 0.15942(12) 0.76023(12)
C2_4 C 0.9114(5) 0.32431(15) 0.80488(16)
C3_4 C 0.8564(4) 0.39269(15) 0.80044(16)
O7_4 O 0.7953(6) 0.59552(15) 0.89625(16)
C5_4 C 0.8066(4) 0.41716(15) 0.74203(16)
H2_4 H 0.809308 0.391624 0.706707
C6_4 C 0.7529(4) 0.48024(14) 0.73757(15)
C9_4 C 0.8504(5) 0.43151(16) 0.85343(15)
H4_4 H 0.875949 0.414846 0.892592
C10_4 C 0.8159(4) 0.60441(15) 0.66707(15)
C11_4 C 0.6475(5) 0.56325(15) 0.66987(17)
H5_4 H 0.565377 0.578457 0.702183
C12_4 C 0.7881(5) 0.10799(15) 0.72915(15)
H6_4 H 0.879767 0.080406 0.740081
C13_4 C 0.5654(5) 0.15019(15) 0.67854(14)
H7_2 H 0.477304 0.157982 0.648880
C15_4 C 0.8062(4) 0.49472(15) 0.84719(15)
C16_4 C 0.7585(5) 0.51951(14) 0.78906(15)
H9_4 H 0.730664 0.562187 0.785072
C17_4 C 0.6862(5) 0.04823(15) 0.63665(15)
C19_4 C 0.6037(4) 0.18659(14) 0.72975(14)
C20_4 C 0.7133(6) 0.05752(16) 0.57345(15)
C22_4 C 0.7219(5) 0.00263(16) 0.53600(14)
H13_3 H 0.739876 0.006876 0.493262
C23_4 C 0.5119(6) 0.24547(18) 0.75267(19)
H14_2 H 0.488356 0.241623 0.796554
H15_2 H 0.401140 0.250939 0.730669
H16_4 H 0.587465 0.281414 0.745429
C24_4 C 0.8025(6) 0.53743(19) 0.90224(19)
C26_4 C 0.5589(8) 0.5648(2) 0.6058(2)
H20_4 H 0.625376 0.538773 0.577397
H21_4 H 0.556755 0.607536 0.590620
H22_2 H 0.438793 0.549182 0.609096
C27_4 C 0.7346(8) 0.12090(19) 0.5442(2)
H23_4 H 0.640536 0.148324 0.558269
H24_3 H 0.728716 0.116823 0.499630
H25_4 H 0.848136 0.138447 0.555838
N5_2 N 0.8168(4) 0.16630(12) 0.93335(11)
H26_4 H 0.690254 0.519734 0.978806
C1_4 C 0.8697(4) 0.11507(15) 0.96392(14)
H1_4 H 0.955286 0.086721 0.949498
C4_4 C 0.6841(4) 0.19433(15) 0.96925(13)
C25_4 C 0.5862(7) 0.25131(18) 0.94889(19)
H17_4 H 0.669724 0.284583 0.940023
H18_4 H 0.506389 0.264640 0.981427
H19_4 H 0.518643 0.241781 0.911964
H7_3 H 0.977304 0.342018 0.351120
H14_3 H 0.988356 0.258377 0.203446
H15_3 H 0.901140 0.249061 0.269331
H22_3 H 0.938793 0.950818 0.390904
H7_4 H 0.022696 0.842018 0.148880
H14_4 H 0.011644 0.758377 0.296554
H15_4 H 0.098860 0.749061 0.230669
H22_4 H 0.061207 0.450818 0.109096
N1_4 N 0.7818(4) 0.10961(12) 0.01913(11)
C7_4 C 0.7957(4) 0.05687(15) 0.06102(13)
C8_4 C 0.6607(4) 0.15956(15) 0.02240(15)
H3_4 H 0.579896 0.167639 0.054410
C14_4 C 0.8296(4) 0.01229(15) 0.16191(16)
H8_4 H 0.845227 0.016512 0.204768
C18_4 C 0.8229(4) 0.06694(14) 0.12504(14)
C21_4 C 0.8588(5) 0.13003(15) 0.15384(16)
H10_4 H 0.955713 0.150218 0.132245
H11_4 H 0.890155 0.124542 0.196949
H12_4 H 0.753648 0.155879 0.150844
H13_4 H 0.760124 0.993124 0.993262
H24_4 H 0.771284 0.883177 0.999630
loop_
_geom_bond_atom_site_label_1
_geom_bond_atom_site_label_2
_geom_bond_site_symmetry_1
_geom_bond_site_symmetry_2
O2 C10 1_555 1_555
O4 C10 1_555 1_555
O6 C24 1_555 1_555
O7 C24 1_555 1_555
C10 C11 1_555 1_555
H5 C11 1_555 1_555
H9 C16 1_555 1_555
C26 C11 1_555 1_555
H20 C26 1_555 1_555
H21 C26 1_555 1_555
H22 C26 1_555 1_555
O6 H26 1_555 1_555
N3 C1 1_555 1_555
C1 H1 1_555 1_555
C4 N3 1_555 1_555
C25 C4 1_555 1_555
H17 C25 1_555 1_555
H18 C25 1_555 1_555
H19 C25 1_555 1_555
Cd2 N3 1_555 1_555
Cd1 O1 1_555 1_555
O1 C2 1_555 1_555
N2 C12 1_555 1_555
O3 C6 1_555 1_555
O5 Cd1 1_555 1_555
N4 Cd1 1_555 1_555
C2 O5 1_555 1_555
C3 C2 1_555 1_555
C5 C3 1_555 1_555
H2 C5 1_555 1_555
C6 C5 1_555 1_555
C7 N1 1_555 1_555
C8 N1 1_555 1_555
H3 C8 1_555 1_555
C9 C3 1_555 1_555
H4 C9 1_555 1_555
C12 N4 1_555 1_555
H6 C12 1_555 1_555
C13 N2 1_555 1_555
H7 C13 1_555 1_555
C14 H8 1_555 1_555
C15 C9 1_555 1_555
C17 N2 1_555 1_555
C18 C7 1_555 1_555
C19 N4 1_555 1_555
C20 C17 1_555 1_555
C21 C18 1_555 1_555
H10 C21 1_555 1_555
H11 C21 1_555 1_555
H12 C21 1_555 1_555
C22 C7 1_555 1_555
C23 C19 1_555 1_555
H14 C23 1_555 1_555
H15 C23 1_555 1_555
H16 C23 1_555 1_555
C27 C20 1_555 1_555
H23 C27 1_555 1_555
H25 C27 1_555 1_555
N5 Cd1 1_555 1_555
C13 C19 1_555 1_555
C14 C17 1_555 1_555
C14 C18 1_555 1_555
C20 C22 1_555 1_555
Cd2 O1_2 1_555 1_555
O1_2 C2_2 1_555 1_555
N1_2 C1_2 1_555 1_555
N2_2 C12_2 1_555 1_555
O3_2 C6_2 1_555 1_555
O5_2 Cd2 1_555 1_555
N5 C1_2 1_555 1_555
C1_2 H1_2 1_555 1_555
N4_2 Cd2 1_555 1_555
C2_2 O5_2 1_555 1_555
C3_2 C2_2 1_555 1_555
C4_2 N5 1_555 1_555
C5_2 C3_2 1_555 1_555
H2_2 C5_2 1_555 1_555
C6_2 C5_2 1_555 1_555
C7_2 N1_2 1_555 1_555
C8_2 N1_2 1_555 1_555
H3_2 C8_2 1_555 1_555
C9_2 C3_2 1_555 1_555
H4_2 C9_2 1_555 1_555
C12_2 N4_2 1_555 1_555
H6_2 C12_2 1_555 1_555
C13_2 N2_2 1_555 1_555
C14_2 H8_2 1_555 1_555
C15_2 C9_2 1_555 1_555
C17_2 N2_2 1_555 1_555
C18_2 C7_2 1_555 1_555
C19_2 N4_2 1_555 1_555
C20_2 C17_2 1_555 1_555
C21_2 C18_2 1_555 1_555
H10_2 C21_2 1_555 1_555
H11_2 C21_2 1_555 1_555
H12_2 C21_2 1_555 1_555
C22_2 C7_2 1_555 1_555
H13_2 C22_2 1_555 1_555
C23_2 C19_2 1_555 1_555
H16_2 C23_2 1_555 1_555
C25_2 C4_2 1_555 1_555
H17_2 C25_2 1_555 1_555
H18_2 C25_2 1_555 1_555
H19_2 C25_2 1_555 1_555
C27_2 C20_2 1_555 1_555
H23_2 C27_2 1_555 1_555
H24_2 C27_2 1_555 1_555
H25_2 C27_2 1_555 1_555
O8 Cd2 1_555 1_555
O9 Cd2 1_555 1_555
C4_2 C8_2 1_555 1_555
C13_2 C19_2 1_555 1_555
C14_2 C17_2 1_555 1_555
C14_2 C18_2 1_555 1_555
C20_2 C22_2 1_555 1_555
O2_2 C10_2 1_555 1_555
O4_2 C10_2 1_555 1_555
O6_2 C24_2 1_555 1_555
O7_2 C24_2 1_555 1_555
C10_2 C11_2 1_555 1_555
H5_2 C11_2 1_555 1_555
H9_2 C16_2 1_555 1_555
C26_2 C11_2 1_555 1_555
H20_2 C26_2 1_555 1_555
H21_2 C26_2 1_555 1_555
Cd3 O2_2 1_555 1_555
O4_2 Cd3 1_555 1_555
O6_2 H26_2 1_555 1_555
N1_3 C1_3 1_555 1_555
N3_2 C1_3 1_555 1_555
C1_3 H1_3 1_555 1_555
C4_3 N3_2 1_555 1_555
C7_3 N1_3 1_555 1_555
C8_3 N1_3 1_555 1_555
H3_3 C8_3 1_555 1_555
C14_3 H8_3 1_555 1_555
C18_3 C7_3 1_555 1_555
C21_3 C18_3 1_555 1_555
H10_3 C21_3 1_555 1_555
H11_3 C21_3 1_555 1_555
H12_3 C21_3 1_555 1_555
C25_3 C4_3 1_555 1_555
H17_3 C25_3 1_555 1_555
H18_3 C25_3 1_555 1_555
H19_3 C25_3 1_555 1_555
Cd3 N3_2 1_555 1_555
C4_3 C8_3 1_555 1_555
C14_3 C18_3 1_555 1_555
Cd3 O1_3 1_555 1_555
O1_3 C2_3 1_555 1_555
O8 C10_3 1_555 1_555
N2_3 C12_3 1_555 1_555
O3_3 C6_3 1_555 1_555
O9 C10_3 1_555 1_555
O5_3 Cd3 1_555 1_555
O6_3 C24_3 1_555 1_555
N4_3 Cd3 1_555 1_555
C2_3 O5_3 1_555 1_555
C3_3 C2_3 1_555 1_555
O7_3 C24_3 1_555 1_555
C5_3 C3_3 1_555 1_555
H2_3 C5_3 1_555 1_555
C6_3 C5_3 1_555 1_555
C9_3 C3_3 1_555 1_555
H4_3 C9_3 1_555 1_555
C10_3 C11_3 1_555 1_555
C11_3 O3_3 1_555 1_555
H5_3 C11_3 1_555 1_555
C12_3 N4_3 1_555 1_555
H6_3 C12_3 1_555 1_555
C13_3 N2_3 1_555 1_555
C15_3 C9_3 1_555 1_555
C16_3 C6_3 1_555 1_555
H9_3 C16_3 1_555 1_555
C17_3 N2_3 1_555 1_555
C19_3 N4_3 1_555 1_555
C20_3 C17_3 1_555 1_555
C23_3 C19_3 1_555 1_555
H16_3 C23_3 1_555 1_555
C24_3 C15_3 1_555 1_555
C26_3 C11_3 1_555 1_555
H20_3 C26_3 1_555 1_555
H21_3 C26_3 1_555 1_555
C27_3 C20_3 1_555 1_555
H23_3 C27_3 1_555 1_555
H25_3 C27_3 1_555 1_555
C13_3 C19_3 1_555 1_555
C15_3 C16_3 1_555 1_555
C20_3 C22_3 1_555 1_555
O6_3 H26_3 1_555 1_555
Cd3_2 O1_4 1_555 1_555
O1_4 C2_4 1_555 1_555
O8_2 C10_4 1_555 1_555
N2_4 C12_4 1_555 1_555
O3_4 C6_4 1_555 1_555
O9_2 C10_4 1_555 1_555
O5_4 Cd3_2 1_555 1_555
O6_4 C24_4 1_555 1_555
N4_4 Cd3_2 1_555 1_555
C2_4 O5_4 1_555 1_555
C3_4 C2_4 1_555 1_555
O7_4 C24_4 1_555 1_555
C5_4 C3_4 1_555 1_555
H2_4 C5_4 1_555 1_555
C6_4 C5_4 1_555 1_555
C9_4 C3_4 1_555 1_555
H4_4 C9_4 1_555 1_555
C10_4 C11_4 1_555 1_555
C11_4 O3_4 1_555 1_555
H5_4 C11_4 1_555 1_555
C12_4 N4_4 1_555 1_555
H6_4 C12_4 1_555 1_555
C13_4 N2_4 1_555 1_555
H7_2 C13_4 1_555 1_555
C15_4 C9_4 1_555 1_555
C16_4 C6_4 1_555 1_555
H9_4 C16_4 1_555 1_555
C17_4 N2_4 1_555 1_555
C19_4 N4_4 1_555 1_555
C20_4 C17_4 1_555 1_555
H13_3 C22_4 1_555 1_555
C23_4 C19_4 1_555 1_555
H14_2 C23_4 1_555 1_555
H15_2 C23_4 1_555 1_555
H16_4 C23_4 1_555 1_555
C24_4 C15_4 1_555 1_555
C26_4 C11_4 1_555 1_555
H20_4 C26_4 1_555 1_555
H21_4 C26_4 1_555 1_555
H22_2 C26_4 1_555 1_555
C27_4 C20_4 1_555 1_555
H23_4 C27_4 1_555 1_555
H24_3 C27_4 1_555 1_555
H25_4 C27_4 1_555 1_555
N5_2 Cd3_2 1_555 1_555
C13_4 C19_4 1_555 1_555
C15_4 C16_4 1_555 1_555
C20_4 C22_4 1_555 1_555
O6_4 H26_4 1_555 1_555
N5_2 C1_4 1_555 1_555
C1_4 H1_4 1_555 1_555
C4_4 N5_2 1_555 1_555
C25_4 C4_4 1_555 1_555
H17_4 C25_4 1_555 1_555
H18_4 C25_4 1_555 1_555
H19_4 C25_4 1_555 1_555
C7_4 N1_4 1_555 1_555
C8_4 N1_4 1_555 1_555
H3_4 C8_4 1_555 1_555
C14_4 H8_4 1_555 1_555
C18_4 C7_4 1_555 1_555
C21_4 C18_4 1_555 1_555
H10_4 C21_4 1_555 1_555
H11_4 C21_4 1_555 1_555
H12_4 C21_4 1_555 1_555
C14_4 C18_4 1_555 1_555

#END
