
###############################################################################
#
# This file contains modified crystal structure data generated from the
# MOF subset of the Cambridge Structural Database (CSD) v543 
# hosted by the Cambridge Crystallographic Data Centre (CCDC).
#
# This work is licensed under the Creative Commons
# Attribution-NonCommercial-ShareAlike 4.0 International License.
# To view a copy of this license, visit
# http://creativecommons.org/licenses/by-nc-sa/4.0/
# or send a letter to
# Creative Commons, PO Box 1866, Mountain View, CA 94042, USA.
#
# CIF created using the CSD Python API on 29 September 2022
# The structure has been converted into the P1 space group
# The structure has a 3D framework
# The original CSD entry COTVIS is in the monoclinic crystal system
# The framework has been calculated to contain at least 10.0% void space
# The void calculation uses a probe of radius 1.32A, grid spacing 0.4
#
###############################################################################

data_COTVIS
_chemical_formula_moiety         '(C124 H96 Nd8 O64)n'
_symmetry_cell_setting           triclinic
_symmetry_space_group_name_H-M   'P 1'
_symmetry_Int_Tables_number      1
_space_group_name_Hall           'P 1'
loop_
_symmetry_equiv_pos_site_id
_symmetry_equiv_pos_as_xyz
1 x,y,z
_cell_length_a                   14.5952(12)
_cell_length_b                   16.7329(11)
_cell_length_c                   19.5713(14)
_cell_angle_alpha                90
_cell_angle_beta                 107.344(3)
_cell_angle_gamma                90
_cell_volume                     4562.38
loop_
_atom_site_label
_atom_site_type_symbol
_atom_site_fract_x
_atom_site_fract_y
_atom_site_fract_z
C8 C 0.0204(5) 0.2247(4) 0.0599(4)
O3 O 0.1056(3) 0.2429(3) 0.0614(2)
O4 O 0.0062(3) 0.1814(3) 0.1061(2)
Nd8 Nd 0.17618(2) 0.15692(2) 0.168850(18)
H1 H 0.0075 0.3046 0.9371
C30 C 0.1281(4) 0.5541(3) 0.8817(3)
H16 H 0.0867 0.5391 0.9095
H17 H 0.1103 0.6062 0.8614
H18 H 0.1934 0.5553 0.9119
C31 C 0.1352(7) 0.4990(5) 0.6315(4)
H19 H 0.0688 0.5097 0.6073
H20 H 0.1668 0.4828 0.5972
H21 H 0.1652 0.5464 0.6556
Nd2 Nd 0.07771(2) 0.36419(2) 0.770860(18)
O15 O 0.1185(3) 0.4926(2) 0.8207(2)
H23 H 0.1353 0.5039 0.7832
O16 O 0.1429(4) 0.4308(3) 0.6872(3)
H24 H 0.0940 0.4007 0.6735
O41 O 0.1661(3) 0.3254(3) 0.8974(2)
O43 O 0.2459(3) 0.3475(3) 0.8276(3)
O45 O 0.0231(4) 0.2297(3) 0.7792(3)
O47 O 0.1151(4) 0.2448(3) 0.7098(3)
C3 C 0.9376(5) 0.2603(4) 0.0048(4)
C4 C 0.8457(5) 0.2483(4) 0.0093(3)
H2 H 0.8377 0.2214 0.0487
C12 C 0.4842(4) 0.2175(4) 0.0418(3)
H4 H 0.5363 0.1948 0.0760
C13 C 0.3938(4) 0.2190(4) 0.0532(4)
C14 C 0.3144(4) 0.2534(4) 0.0053(4)
H5 H 0.2555 0.2546 0.0145
C17 C 0.3834(5) 0.1866(4) 0.1209(4)
O5 O 0.4500(4) 0.1389(3) 0.1624(2)
O6 O 0.3077(3) 0.2058(3) 0.1403(3)
C32 C 0.4564(5) 0.5079(4) 0.2104(3)
C33 C 0.4637(5) 0.5271(4) 0.1413(3)
H25 H 0.4439 0.5774 0.1223
C34 C 0.4994(5) 0.4733(3) 0.1015(3)
C35 C 0.5316(5) 0.3998(4) 0.1319(3)
H26 H 0.5576 0.3640 0.1064
C36 C 0.5261(5) 0.3771(4) 0.2008(4)
C37 C 0.4894(5) 0.4304(4) 0.2394(4)
H27 H 0.4859 0.4162 0.2845
C38 C 0.4177(4) 0.5627(4) 0.2567(4)
C39 C 0.5533(5) 0.2973(4) 0.2334(4)
C40 C 0.5001(5) 0.4920(3) 0.0291(3)
O17 O 0.4094(3) 0.6357(3) 0.2389(2)
O18 O 0.3853(3) 0.5340(2) 0.3038(2)
O19 O 0.5231(4) 0.2703(3) 0.2792(3)
O20 O 0.6151(4) 0.2552(3) 0.2098(3)
C41 C 0.1344(4) 0.6747(3) 0.1129(4)
C42 C 0.0534(4) 0.7022(3) 0.0578(3)
C45 C 0.2353(4) 0.7244(4) 0.0439(4)
C46 C 0.2277(4) 0.6864(4) 0.1061(4)
H30 H 0.2821 0.6695 0.1417
C47 C 0.1272(4) 0.6285(3) 0.1764(4)
C49 C 0.3313(5) 0.7381(4) 0.0366(3)
C50 C 0.4086(4) 0.7479(4) 0.0296(4)
C51 C 0.5037(5) 0.7494(4) 0.0222(4)
C55 C 0.6746(4) 0.7129(4) 0.0592(3)
C56 C 0.5850(4) 0.7150(4) 0.0702(4)
H33 H 0.5786 0.6923 0.1119
C58 C 0.7564(4) 0.6772(4) 0.1142(4)
C59 C 0.2983(6) 0.5572(4) 0.4927(3)
H34 H 0.2324 0.5417 0.4830
H35 H 0.3391 0.5155 0.5188
H36 H 0.3098 0.6054 0.5206
C60 C 0.2567(4) 0.8556(3) 0.2616(4)
H37 H 0.2572 0.8799 0.3061
H38 H 0.2812 0.8928 0.2340
H39 H 0.1922 0.8410 0.2354
Nd3 Nd 0.32382(2) 0.65692(2) 0.331150(18)
O21 O 0.2007(3) 0.6154(3) 0.2267(2)
O22 O 0.0429(3) 0.6115(3) 0.1787(2)
O27 O 0.8339(3) 0.6746(3) 0.1026(2)
O28 O 0.7541(3) 0.6525(3) 0.1724(3)
O29 O 0.3189(4) 0.5709(3) 0.4263(3)
O30 O 0.3181(3) 0.7830(2) 0.2760(3)
H46 H 0.3361 0.7723 0.2396
Nd11 Nd 0.92229(2) 0.63581(2) 0.229140(18)
Nd12 Nd 0.57771(2) 0.13581(2) 0.270860(18)
O33 O 0.3944(3) 0.7429(3) 0.4386(2)
O35 O 0.4938(3) 0.6814(3) 0.3939(2)
O37 O 0.0500(4) 0.6389(3) 0.3376(2)
O39 O 0.1923(3) 0.7058(3) 0.3597(3)
C1 C 0.8656(4) 0.3253(3) 0.8871(4)
C2 C 0.9466(4) 0.2978(3) 0.9422(3)
C5 C 0.7647(4) 0.2756(4) 0.9561(4)
C6 C 0.7723(4) 0.3136(4) 0.8939(4)
H3 H 0.7179 0.3305 0.8583
C7 C 0.8728(4) 0.3715(3) 0.8236(4)
C9 C 0.6687(5) 0.2619(4) 0.9634(3)
C10 C 0.5914(4) 0.2521(4) 0.9704(4)
C11 C 0.4963(5) 0.2506(4) 0.9778(4)
C15 C 0.3254(4) 0.2871(4) 0.9408(3)
C16 C 0.4150(4) 0.2850(4) 0.9298(4)
H6 H 0.4214 0.3077 0.8881
C18 C 0.2436(4) 0.3228(4) 0.8858(4)
C19 C 0.5436(5) 0.4921(4) 0.7896(3)
C20 C 0.5363(5) 0.4729(4) 0.8587(3)
H7 H 0.5561 0.4226 0.8777
C21 C 0.5006(5) 0.5267(3) 0.8985(3)
C22 C 0.4684(5) 0.6002(4) 0.8681(3)
H8 H 0.4424 0.6360 0.8936
C23 C 0.4739(5) 0.6229(4) 0.7992(4)
C24 C 0.5106(5) 0.5696(4) 0.7606(4)
H9 H 0.5141 0.5838 0.7155
C25 C 0.5823(4) 0.4373(4) 0.7433(4)
C26 C 0.4467(5) 0.7027(4) 0.7666(4)
C27 C 0.4999(5) 0.5080(3) 0.9709(3)
C28 C 0.7017(6) 0.4428(4) 0.5073(3)
H10 H 0.7676 0.4583 0.5170
H11 H 0.6609 0.4845 0.4812
H12 H 0.6902 0.3946 0.4794
C29 C 0.7433(4) 0.1444(3) 0.7384(4)
H13 H 0.7428 0.1201 0.6939
H14 H 0.7188 0.1072 0.7660
H15 H 0.8078 0.1590 0.7646
Nd1 Nd 0.67618(2) 0.34308(2) 0.668850(18)
O1 O 0.7993(3) 0.3846(3) 0.7733(2)
O2 O 0.9571(3) 0.3885(3) 0.8213(2)
O9 O 0.5906(3) 0.3643(3) 0.7611(2)
O10 O 0.6147(3) 0.4660(2) 0.6962(2)
O11 O 0.4769(4) 0.7297(3) 0.7208(3)
O12 O 0.3849(4) 0.7448(3) 0.7902(3)
O13 O 0.6811(4) 0.4291(3) 0.5737(3)
O14 O 0.6819(3) 0.2170(2) 0.7240(3)
H22 H 0.6639 0.2277 0.7604
C43 C 0.0624(5) 0.7397(4) 0.9952(4)
C44 C 0.1543(5) 0.7517(4) 0.9907(3)
H29 H 0.1623 0.7786 0.9513
C52 C 0.5158(4) 0.7825(4) 0.9582(3)
H31 H 0.4637 0.8052 0.9240
C53 C 0.6062(4) 0.7810(4) 0.9468(4)
C54 C 0.6856(4) 0.7466(4) 0.9947(4)
H32 H 0.7445 0.7454 0.9855
C57 C 0.6166(5) 0.8134(4) 0.8791(4)
O25 O 0.5500(4) 0.8611(3) 0.8376(2)
O26 O 0.6923(3) 0.7942(3) 0.8597(3)
Nd6 Nd 0.82382(2) 0.84308(2) 0.831150(18)
Nd10 Nd 0.42229(2) 0.86419(2) 0.729140(18)
O34 O 0.6056(3) 0.2571(3) 0.5614(2)
O36 O 0.5062(3) 0.3186(3) 0.6061(2)
O38 O 0.9500(4) 0.3611(3) 0.6624(2)
O40 O 0.8077(3) 0.2942(3) 0.6403(3)
H28 H 0.9925 0.6954 0.0629
C61 C 0.8719(4) 0.4459(3) 0.1183(3)
H40 H 0.9133 0.4609 0.0905
H41 H 0.8897 0.3938 0.1386
H42 H 0.8066 0.4447 0.0881
C62 C 0.8648(7) 0.5010(5) 0.3685(4)
H43 H 0.9312 0.4903 0.3927
H44 H 0.8332 0.5172 0.4028
H45 H 0.8348 0.4536 0.3444
O31 O 0.8815(3) 0.5074(2) 0.1793(2)
H47 H 0.8647 0.4961 0.2168
O32 O 0.8571(4) 0.5692(3) 0.3128(3)
H48 H 0.9060 0.5993 0.3265
O46 O 0.9769(4) 0.7703(3) 0.2208(3)
O48 O 0.8849(4) 0.7552(3) 0.2902(3)
C48 C 0.9796(5) 0.7753(4) 0.9401(4)
O23 O 0.8944(3) 0.7571(3) 0.9386(2)
O24 O 0.9938(3) 0.8186(3) 0.8939(2)
C22_2 C 0.0316(5) 0.1002(4) 0.6319(3)
H8_2 H 0.0576 0.1360 0.6064
C23_2 C 0.0261(5) 0.1229(4) 0.7008(4)
C26_2 C 0.0533(5) 0.2027(4) 0.7334(4)
C27_2 C 0.0001(5) 0.0080(3) 0.5291(3)
C32_2 C 0.0436(5) 0.0079(4) 0.2896(3)
C33_2 C 0.0363(5) 0.0271(4) 0.3587(3)
H25_2 H 0.0561 0.0774 0.3777
C38_2 C 0.0823(4) 0.0627(4) 0.2433(4)
O17_2 O 0.0906(3) 0.1357(3) 0.2611(2)
O18_2 O 0.1147(3) 0.0340(2) 0.1962(2)
C41_2 C 0.3656(4) 0.1747(3) 0.3871(4)
C42_2 C 0.4466(4) 0.2022(3) 0.4422(3)
H28_2 H 0.5075 0.1954 0.4371
C43_2 C 0.4376(5) 0.2397(4) 0.5048(4)
C44_2 C 0.3457(5) 0.2517(4) 0.5093(3)
H29_2 H 0.3377 0.2786 0.5487
C45_2 C 0.2647(4) 0.2244(4) 0.4561(4)
C46_2 C 0.2723(4) 0.1864(4) 0.3939(4)
H30_2 H 0.2179 0.1695 0.3583
C47_2 C 0.3728(4) 0.1285(3) 0.3236(4)
C48_2 C 0.5204(5) 0.2753(4) 0.5599(4)
C49_2 C 0.1687(5) 0.2381(4) 0.4634(3)
C50_2 C 0.0914(4) 0.2479(4) 0.4704(4)
H31_2 H 0.0363 0.3052 0.5760
C59_2 C 0.2017(6) 0.0572(4) 0.0073(3)
H34_2 H 0.2676 0.0417 0.0170
C60_2 C 0.2433(4) 0.3556(3) 0.2384(4)
H37_2 H 0.2428 0.3799 0.1939
H38_2 H 0.2188 0.3928 0.2660
H39_2 H 0.3078 0.3410 0.2646
C62_2 C 0.6352(7) 0.0010(5) 0.1315(4)
H44_2 H 0.6668 0.0172 0.0972
O21_2 O 0.2993(3) 0.1154(3) 0.2733(2)
O22_2 O 0.4571(3) 0.1115(3) 0.3213(2)
O29_2 O 0.1811(4) 0.0709(3) 0.0737(3)
O30_2 O 0.1819(3) 0.2830(2) 0.2240(3)
H46_2 H 0.1639 0.2723 0.2604
O31_2 O 0.6185(3) 0.0074(2) 0.3207(2)
O32_2 O 0.6429(4) 0.0692(3) 0.1872(3)
H48_2 H 0.5940 0.0993 0.1735
O42 O 0.6661(3) 0.1746(3) 0.3974(2)
O44 O 0.7459(3) 0.1525(3) 0.3276(3)
C11_2 C 0.0037(5) 0.7506(4) 0.5222(4)
C12_2 C 0.0158(4) 0.7175(4) 0.4582(3)
C13_2 C 0.1062(4) 0.7190(4) 0.4468(4)
C14_2 C 0.1856(4) 0.7534(4) 0.4947(4)
H5_2 H 0.2445 0.7546 0.4855
C15_2 C 0.1746(4) 0.7871(4) 0.5592(3)
C16_2 C 0.0850(4) 0.7850(4) 0.5702(4)
H6_2 H 0.0786 0.8077 0.6119
C17_2 C 0.1166(5) 0.6866(4) 0.3791(4)
C18_2 C 0.2564(4) 0.8228(4) 0.6142(4)
O7 O 0.3339(3) 0.8254(3) 0.6026(2)
O8 O 0.2541(3) 0.8475(3) 0.6724(3)
C34_2 C 0.0006(5) 0.9733(3) 0.3985(3)
C37_2 C 0.0106(5) 0.9304(4) 0.2606(4)
H27_2 H 0.0141 0.9162 0.2155
C61_2 C 0.6281(4) 0.9459(3) 0.3817(3)
H40_2 H 0.5867 0.9609 0.4095
H41_2 H 0.6103 0.8938 0.3614
H42_2 H 0.6934 0.9447 0.4119
H43_2 H 0.5688 0.9903 0.1073
H45_2 H 0.6652 0.9536 0.1556
H47_2 H 0.6353 0.9961 0.2832
C21_2 C 0.9994(5) 0.0267(3) 0.6015(3)
C24_2 C 0.9894(5) 0.0696(4) 0.7394(4)
H9_2 H 0.9859 0.0838 0.7845
C30_2 C 0.3719(4) 0.0541(3) 0.6183(3)
H16_2 H 0.4133 0.0391 0.5905
H17_2 H 0.3897 0.1062 0.6386
H18_2 H 0.3066 0.0553 0.5881
H19_2 H 0.4312 0.0097 0.8927
H21_2 H 0.3348 0.0464 0.8444
H23_2 H 0.3647 0.0039 0.7168
C51_2 C 0.9963(5) 0.2494(4) 0.4778(4)
C52_2 C 0.9842(4) 0.2825(4) 0.5418(3)
C53_2 C 0.8938(4) 0.2810(4) 0.5532(4)
C54_2 C 0.8144(4) 0.2466(4) 0.5053(4)
H32_2 H 0.7555 0.2454 0.5145
C55_2 C 0.8254(4) 0.2129(4) 0.4408(3)
C56_2 C 0.9150(4) 0.2150(4) 0.4298(4)
H33_2 H 0.9214 0.1923 0.3881
C57_2 C 0.8834(5) 0.3134(4) 0.6209(4)
C58_2 C 0.7436(4) 0.1772(4) 0.3858(4)
C1_2 C 0.6344(4) 0.8253(3) 0.6129(4)
C2_2 C 0.5534(4) 0.7978(3) 0.5578(3)
H1_2 H 0.4925 0.8046 0.5629
C3_2 C 0.5624(5) 0.7603(4) 0.4952(4)
C4_2 C 0.6543(5) 0.7483(4) 0.4907(3)
H2_2 H 0.6623 0.7214 0.4513
C5_2 C 0.7353(4) 0.7756(4) 0.5439(4)
C6_2 C 0.7277(4) 0.8136(4) 0.6061(4)
H3_2 H 0.7821 0.8305 0.6417
C7_2 C 0.6272(4) 0.8715(3) 0.6764(4)
C8_2 C 0.4796(5) 0.7247(4) 0.4401(4)
C9_2 C 0.8313(5) 0.7619(4) 0.5366(3)
C10_2 C 0.9086(4) 0.7521(4) 0.5296(4)
H4_2 H 0.9637 0.6948 0.4240
C19_2 C 0.9564(5) 0.9921(4) 0.7104(3)
C20_2 C 0.9637(5) 0.9729(4) 0.6413(3)
H7_2 H 0.9439 0.9226 0.6223
C25_2 C 0.9177(4) 0.9373(4) 0.7567(4)
C28_2 C 0.7983(6) 0.9428(4) 0.9927(3)
H10_2 H 0.7324 0.9583 0.9830
C29_2 C 0.7567(4) 0.6444(3) 0.7616(4)
H13_2 H 0.7572 0.6201 0.8061
H14_2 H 0.7812 0.6072 0.7340
H15_2 H 0.6922 0.6590 0.7354
C31_2 C 0.3648(7) 0.9990(5) 0.8685(4)
H20_2 H 0.3332 0.9828 0.9028
O1_2 O 0.7007(3) 0.8846(3) 0.7267(2)
O2_2 O 0.5429(3) 0.8885(3) 0.6787(2)
O9_2 O 0.9094(3) 0.8643(3) 0.7389(2)
O10_2 O 0.8853(3) 0.9660(2) 0.8038(2)
O13_2 O 0.8189(4) 0.9291(3) 0.9263(3)
O14_2 O 0.8181(3) 0.7170(2) 0.7760(3)
H22_2 H 0.8361 0.7277 0.7396
O15_2 O 0.3815(3) 0.9926(2) 0.6793(2)
O16_2 O 0.3571(4) 0.9308(3) 0.8128(3)
H24_2 H 0.4060 0.9007 0.8265
C35_2 C 0.9684(5) 0.8998(4) 0.3681(3)
H26_2 H 0.9424 0.8640 0.3936
C36_2 C 0.9739(5) 0.8771(4) 0.2992(4)
C39_2 C 0.9467(5) 0.7973(4) 0.2666(4)
C40_2 C 0.9999(5) 0.9920(3) 0.4709(3)
H35_2 H 0.1609 0.0155 0.9812
H36_2 H 0.1902 0.1054 0.9794
H11_2 H 0.8391 0.9845 0.0188
H12_2 H 0.8098 0.8946 0.0206
loop_
_geom_bond_atom_site_label_1
_geom_bond_atom_site_label_2
_geom_bond_site_symmetry_1
_geom_bond_site_symmetry_2
O3 C8 1_555 1_555
O4 C8 1_555 1_555
Nd8 O3 1_555 1_555
O4 Nd8 1_555 1_555
C30 H16 1_555 1_555
H17 C30 1_555 1_555
H18 C30 1_555 1_555
C31 H19 1_555 1_555
H20 C31 1_555 1_555
H21 C31 1_555 1_555
O15 C30 1_555 1_555
H23 O15 1_555 1_555
O16 C31 1_555 1_555
H24 O16 1_555 1_555
O41 Nd2 1_555 1_555
O43 Nd2 1_555 1_555
O45 Nd2 1_555 1_555
O47 Nd2 1_555 1_555
Nd2 O15 1_555 1_555
Nd2 O16 1_555 1_555
C4 C3 1_555 1_555
H2 C4 1_555 1_555
H4 C12 1_555 1_555
C13 C12 1_555 1_555
C14 C13 1_555 1_555
H5 C14 1_555 1_555
C17 C13 1_555 1_555
O5 C17 1_555 1_555
O6 C17 1_555 1_555
C32 C33 1_555 1_555
C33 H25 1_555 1_555
C34 C33 1_555 1_555
C35 C34 1_555 1_555
H26 C35 1_555 1_555
C36 C35 1_555 1_555
C37 C32 1_555 1_555
H27 C37 1_555 1_555
C38 C32 1_555 1_555
C39 C36 1_555 1_555
O17 C38 1_555 1_555
O18 C38 1_555 1_555
O19 C39 1_555 1_555
O20 C39 1_555 1_555
C41 C42 1_555 1_555
C46 C41 1_555 1_555
H30 C46 1_555 1_555
C47 C41 1_555 1_555
C49 C45 1_555 1_555
C50 C49 1_555 1_555
C51 C50 1_555 1_555
C56 C51 1_555 1_555
H33 C56 1_555 1_555
C58 C55 1_555 1_555
C59 H34 1_555 1_555
H35 C59 1_555 1_555
H36 C59 1_555 1_555
C60 H37 1_555 1_555
H38 C60 1_555 1_555
H39 C60 1_555 1_555
Nd3 O17 1_555 1_555
O21 C47 1_555 1_555
O22 C47 1_555 1_555
O27 C58 1_555 1_555
O28 C58 1_555 1_555
O29 C59 1_555 1_555
O30 C60 1_555 1_555
H46 O30 1_555 1_555
Nd8 O6 1_555 1_555
Nd11 O27 1_555 1_555
Nd12 O5 1_555 1_555
O33 Nd3 1_555 1_555
O35 Nd3 1_555 1_555
O39 Nd3 1_555 1_555
C34 C40 1_555 1_555
C36 C37 1_555 1_555
O18 Nd3 1_555 1_555
O19 Nd12 1_555 1_555
O20 Nd12 1_555 1_555
C45 C46 1_555 1_555
C55 C56 1_555 1_555
Nd3 O21 1_555 1_555
Nd3 O29 1_555 1_555
Nd3 O30 1_555 1_555
O28 Nd11 1_555 1_555
C1 C2 1_555 1_555
C6 C1 1_555 1_555
H3 C6 1_555 1_555
C7 C1 1_555 1_555
C9 C5 1_555 1_555
C10 C9 1_555 1_555
C11 C10 1_555 1_555
C16 C11 1_555 1_555
H6 C16 1_555 1_555
C18 C15 1_555 1_555
C19 C20 1_555 1_555
C20 H7 1_555 1_555
C21 C20 1_555 1_555
C22 C21 1_555 1_555
H8 C22 1_555 1_555
C23 C22 1_555 1_555
C24 C19 1_555 1_555
H9 C24 1_555 1_555
C25 C19 1_555 1_555
C26 C23 1_555 1_555
C27 C21 1_555 1_555
C28 H10 1_555 1_555
H11 C28 1_555 1_555
H12 C28 1_555 1_555
C29 H13 1_555 1_555
H14 C29 1_555 1_555
H15 C29 1_555 1_555
Nd1 O1 1_555 1_555
O1 C7 1_555 1_555
O2 C7 1_555 1_555
O41 C18 1_555 1_555
O43 C18 1_555 1_555
O9 C25 1_555 1_555
O10 C25 1_555 1_555
O11 C26 1_555 1_555
O12 C26 1_555 1_555
O13 C28 1_555 1_555
O14 C29 1_555 1_555
H22 O14 1_555 1_555
C44 C43 1_555 1_555
H29 C44 1_555 1_555
H31 C52 1_555 1_555
C53 C52 1_555 1_555
C54 C53 1_555 1_555
H32 C54 1_555 1_555
C57 C53 1_555 1_555
O25 C57 1_555 1_555
O26 C57 1_555 1_555
Nd6 O26 1_555 1_555
Nd10 O11 1_555 1_555
O34 Nd1 1_555 1_555
O36 Nd1 1_555 1_555
O40 Nd1 1_555 1_555
C5 C6 1_555 1_555
C15 C16 1_555 1_555
C23 C24 1_555 1_555
Nd1 O9 1_555 1_555
Nd1 O10 1_555 1_555
Nd1 O13 1_555 1_555
Nd1 O14 1_555 1_555
O12 Nd10 1_555 1_555
O25 Nd10 1_555 1_555
C61 H40 1_555 1_555
H41 C61 1_555 1_555
H42 C61 1_555 1_555
C62 H43 1_555 1_555
H44 C62 1_555 1_555
H45 C62 1_555 1_555
O31 C61 1_555 1_555
H47 O31 1_555 1_555
O32 C62 1_555 1_555
H48 O32 1_555 1_555
O46 Nd11 1_555 1_555
O48 Nd11 1_555 1_555
Nd11 O31 1_555 1_555
Nd11 O32 1_555 1_555
O23 C48 1_555 1_555
O24 C48 1_555 1_555
Nd6 O23 1_555 1_555
O24 Nd6 1_555 1_555
H8_2 C22_2 1_555 1_555
C23_2 C22_2 1_555 1_555
C26_2 C23_2 1_555 1_555
O45 C26_2 1_555 1_555
O47 C26_2 1_555 1_555
C32_2 C33_2 1_555 1_555
C33_2 H25_2 1_555 1_555
C38_2 C32_2 1_555 1_555
O17_2 C38_2 1_555 1_555
O18_2 C38_2 1_555 1_555
C41_2 C42_2 1_555 1_555
C42_2 H28_2 1_555 1_555
C43_2 C42_2 1_555 1_555
C44_2 C43_2 1_555 1_555
H29_2 C44_2 1_555 1_555
C45_2 C44_2 1_555 1_555
C46_2 C41_2 1_555 1_555
H30_2 C46_2 1_555 1_555
C47_2 C41_2 1_555 1_555
C48_2 C43_2 1_555 1_555
C49_2 C45_2 1_555 1_555
C50_2 C49_2 1_555 1_555
C59_2 H34_2 1_555 1_555
C60_2 H37_2 1_555 1_555
H38_2 C60_2 1_555 1_555
H39_2 C60_2 1_555 1_555
H44_2 C62_2 1_555 1_555
Nd8 O17_2 1_555 1_555
Nd12 O22_2 1_555 1_555
O21_2 C47_2 1_555 1_555
O22_2 C47_2 1_555 1_555
O34 C48_2 1_555 1_555
O36 C48_2 1_555 1_555
O29_2 C59_2 1_555 1_555
O30_2 C60_2 1_555 1_555
H46_2 O30_2 1_555 1_555
O32_2 C62_2 1_555 1_555
H48_2 O32_2 1_555 1_555
O42 Nd12 1_555 1_555
O44 Nd12 1_555 1_555
O18_2 Nd8 1_555 1_555
C45_2 C46_2 1_555 1_555
Nd8 O21_2 1_555 1_555
Nd8 O29_2 1_555 1_555
Nd8 O30_2 1_555 1_555
Nd12 O31_2 1_555 1_555
Nd12 O32_2 1_555 1_555
C12_2 C11_2 1_555 1_555
C13_2 C12_2 1_555 1_555
C14_2 C13_2 1_555 1_555
H5_2 C14_2 1_555 1_555
C15_2 C14_2 1_555 1_555
C16_2 C11_2 1_555 1_555
H6_2 C16_2 1_555 1_555
C17_2 C13_2 1_555 1_555
C18_2 C15_2 1_555 1_555
O37 C17_2 1_555 1_555
O39 C17_2 1_555 1_555
O7 C18_2 1_555 1_555
O8 C18_2 1_555 1_555
H27_2 C37_2 1_555 1_555
C61_2 H40_2 1_555 1_555
H41_2 C61_2 1_555 1_555
H42_2 C61_2 1_555 1_555
Nd10 O7 1_555 1_555
C15_2 C16_2 1_555 1_555
O8 Nd10 1_555 1_555
H9_2 C24_2 1_555 1_555
C30_2 H16_2 1_555 1_555
H17_2 C30_2 1_555 1_555
H18_2 C30_2 1_555 1_555
C52_2 C51_2 1_555 1_555
C53_2 C52_2 1_555 1_555
C54_2 C53_2 1_555 1_555
H32_2 C54_2 1_555 1_555
C55_2 C54_2 1_555 1_555
C56_2 C51_2 1_555 1_555
H33_2 C56_2 1_555 1_555
C57_2 C53_2 1_555 1_555
C58_2 C55_2 1_555 1_555
O38 C57_2 1_555 1_555
O40 C57_2 1_555 1_555
O42 C58_2 1_555 1_555
O44 C58_2 1_555 1_555
C55_2 C56_2 1_555 1_555
C1_2 C2_2 1_555 1_555
C2_2 H1_2 1_555 1_555
C3_2 C2_2 1_555 1_555
C4_2 C3_2 1_555 1_555
H2_2 C4_2 1_555 1_555
C5_2 C4_2 1_555 1_555
C6_2 C1_2 1_555 1_555
H3_2 C6_2 1_555 1_555
C7_2 C1_2 1_555 1_555
C8_2 C3_2 1_555 1_555
C9_2 C5_2 1_555 1_555
C10_2 C9_2 1_555 1_555
C19_2 C20_2 1_555 1_555
C20_2 H7_2 1_555 1_555
C25_2 C19_2 1_555 1_555
C28_2 H10_2 1_555 1_555
C29_2 H13_2 1_555 1_555
H14_2 C29_2 1_555 1_555
H15_2 C29_2 1_555 1_555
H20_2 C31_2 1_555 1_555
Nd6 O1_2 1_555 1_555
Nd10 O2_2 1_555 1_555
O1_2 C7_2 1_555 1_555
O2_2 C7_2 1_555 1_555
O33 C8_2 1_555 1_555
O35 C8_2 1_555 1_555
O9_2 C25_2 1_555 1_555
O10_2 C25_2 1_555 1_555
O13_2 C28_2 1_555 1_555
O14_2 C29_2 1_555 1_555
H22_2 O14_2 1_555 1_555
O16_2 C31_2 1_555 1_555
H24_2 O16_2 1_555 1_555
H26_2 C35_2 1_555 1_555
C36_2 C35_2 1_555 1_555
C39_2 C36_2 1_555 1_555
O46 C39_2 1_555 1_555
O48 C39_2 1_555 1_555
C5_2 C6_2 1_555 1_555
Nd6 O9_2 1_555 1_555
Nd6 O10_2 1_555 1_555
Nd6 O13_2 1_555 1_555
Nd6 O14_2 1_555 1_555
Nd10 O15_2 1_555 1_555
Nd10 O16_2 1_555 1_555

#END
