
###############################################################################
#
# This file contains modified crystal structure data generated from the
# MOF subset of the Cambridge Structural Database (CSD) v543 
# hosted by the Cambridge Crystallographic Data Centre (CCDC).
#
# This work is licensed under the Creative Commons
# Attribution-NonCommercial-ShareAlike 4.0 International License.
# To view a copy of this license, visit
# http://creativecommons.org/licenses/by-nc-sa/4.0/
# or send a letter to
# Creative Commons, PO Box 1866, Mountain View, CA 94042, USA.
#
# CIF created using the CSD Python API on 29 September 2022
# The structure has been converted into the P1 space group
# The structure has a 3D framework
# The original CSD entry COTXUH is in the monoclinic crystal system
# The framework has been calculated to contain at least 10.0% void space
# The void calculation uses a probe of radius 1.32A, grid spacing 0.4
#
###############################################################################

data_COTXUH
_chemical_formula_moiety         '(C156 H96 N4 O21 Tb4)n'
_symmetry_cell_setting           triclinic
_symmetry_space_group_name_H-M   'P 1'
_symmetry_Int_Tables_number      1
_space_group_name_Hall           'P 1'
loop_
_symmetry_equiv_pos_site_id
_symmetry_equiv_pos_as_xyz
1 x,y,z
_cell_length_a                   23.0476(10)
_cell_length_b                   24.9332(12)
_cell_length_c                   7.1717(3)
_cell_angle_alpha                90
_cell_angle_beta                 106.2776(10)
_cell_angle_gamma                90
_cell_volume                     3956.02
loop_
_atom_site_label
_atom_site_type_symbol
_atom_site_fract_x
_atom_site_fract_y
_atom_site_fract_z
Tb1 Tb 0.30666(2) 0.01665(2) 0.36588(3)
C1 C 0.1992(4) 0.0480(5) 0.4655(13)
C2 C 0.1404(4) 0.0599(5) 0.5092(15)
C3 C 0.0897(5) 0.0601(5) 0.3592(15)
H1 H 0.092310 0.055928 0.230188
C4 C 0.0300(7) 0.0728(6) 0.583(2)
C5 C 0.0342(6) 0.0664(6) 0.3927(15)
C6 C 0.1363(6) 0.0677(5) 0.6955(19)
H3 H 0.172374 0.068454 0.799677
C7 C 0.0824(6) 0.0744(5) 0.7357(15)
H4 H 0.080788 0.080038 0.865133
O1 O 0.2019(4) 0.0472(4) 0.2954(13)
O2 O 0.2461(3) 0.0374(3) 0.6073(9)
O8 O 0.3653(3) 0.0367(3) 0.7114(9)
O11 O 0.3057(4) 0.0617(2) 0.0630(8)
O12 O 0.4126(5) 0.0464(4) 0.4869(13)
O13 O 0.3049(4) 0.1132(2) 0.3110(8)
C27 C 0.4138(5) 0.0471(5) 0.6603(13)
C28 C 0.4681(5) 0.0587(4) 0.8147(13)
C32 C 0.5803(5) 0.0591(5) 0.9253(15)
H19 H 0.617669 0.054657 0.895866
C33 C 0.5264(5) 0.0543(5) 0.7754(13)
H20 H 0.528082 0.048117 0.646249
C35 C 0.2902(6) 0.2070(5) 0.0767(15)
H22 H 0.286715 0.212037 0.204378
C37 C 0.3032(6) 0.1091(3) 0.1360(14)
C39 C 0.2991(6) 0.1561(4) 0.0107(16)
Tb4 Tb 0.30666(2) 0.98335(2) 0.86588(3)
O7 O 0.2461(3) 0.9626(3) 0.1073(9)
O9 O 0.3653(3) 0.9633(3) 0.2114(9)
O10 O 0.3057(4) 0.9383(2) 0.5630(8)
C2_2 C 0.1404(4) 0.9401(5) 0.0092(15)
C4_2 C 0.0300(7) 0.9272(6) 0.083(2)
C6_2 C 0.1363(6) 0.9323(5) 0.1955(19)
H3_2 H 0.172374 0.931546 0.299677
C7_2 C 0.0824(6) 0.9256(5) 0.2357(15)
H4_2 H 0.080788 0.919962 0.365133
C1_2 C 0.1992(4) 0.9520(5) 0.9655(13)
C3_2 C 0.0897(5) 0.9399(5) 0.8592(15)
H1_2 H 0.092310 0.944072 0.730188
C5_2 C 0.0342(6) 0.9336(6) 0.8927(15)
O1_2 O 0.2019(4) 0.9528(4) 0.7954(13)
O12_2 O 0.4126(5) 0.9536(4) 0.9869(13)
O13_2 O 0.3049(4) 0.8868(2) 0.8110(8)
H2 H 0.998520 0.933543 0.786705
C9 C 0.9181(4) 0.9042(4) 0.9789(15)
H5 H 0.922792 0.891275 0.859352
H6 H 0.828155 0.889493 0.913325
C17 C 0.6423(5) 0.8848(5) 0.9115(15)
H10 H 0.610503 0.859966 0.903619
C18 C 0.6354(5) 0.9258(5) 0.7724(14)
C19 C 0.6830(4) 0.9609(4) 0.7852(14)
H11 H 0.679625 0.987726 0.688587
C20 C 0.7358(4) 0.9573(4) 0.9381(14)
H12 H 0.766854 0.983119 0.948118
C27_2 C 0.4138(5) 0.9529(5) 0.1603(13)
C28_2 C 0.4681(5) 0.9413(4) 0.3147(13)
C29 C 0.4680(5) 0.9296(6) 0.5016(18)
H17 H 0.430485 0.926587 0.531580
C30 C 0.5230(5) 0.9219(5) 0.6520(15)
H18 H 0.521864 0.911416 0.778213
C31 C 0.5807(6) 0.9301(6) 0.612(2)
C32_2 C 0.5803(5) 0.9409(5) 0.4253(15)
H19_2 H 0.617669 0.945343 0.395866
C33_2 C 0.5264(5) 0.9457(5) 0.2754(13)
H20_2 H 0.528082 0.951883 0.146249
C22 C 0.3399(6) 0.7074(5) 0.0351(17)
H14 H 0.368420 0.735793 0.052505
C23 C 0.2986(5) 0.7076(3) 0.1457(13)
C24 C 0.2591(5) 0.6647(4) 0.1210(14)
H15 H 0.230155 0.663996 0.192875
C26 C 0.2960(5) 0.7538(5) 0.2693(15)
C34 C 0.3075(8) 0.8047(5) 0.2107(15)
H21 H 0.317809 0.809080 0.092318
C35_2 C 0.2902(6) 0.7930(5) 0.5767(15)
H22_2 H 0.286715 0.787963 0.704378
C36 C 0.2865(8) 0.7492(6) 0.4517(15)
H23 H 0.277120 0.714917 0.493205
C37_2 C 0.3032(6) 0.8909(3) 0.6360(14)
C38 C 0.3042(7) 0.8490(4) 0.3216(14)
H24 H 0.305299 0.883791 0.268730
C39_2 C 0.2991(6) 0.8439(4) 0.5107(16)
C22_2 C 0.8399(6) 0.2074(5) 0.0351(17)
H14_2 H 0.868420 0.235793 0.052505
C23_2 C 0.7986(5) 0.2076(3) 0.1457(13)
C24_2 C 0.7591(5) 0.1647(4) 0.1210(14)
H15_2 H 0.730155 0.163996 0.192875
C26_2 C 0.7960(5) 0.2538(5) 0.2693(15)
C34_2 C 0.8075(8) 0.3047(5) 0.2107(15)
H21_2 H 0.817809 0.309080 0.092318
C35_3 C 0.7902(6) 0.2930(5) 0.5767(15)
H22_3 H 0.786715 0.287963 0.704378
C36_2 C 0.7865(8) 0.2492(6) 0.4517(15)
H23_2 H 0.777120 0.214917 0.493205
C37_3 C 0.8032(6) 0.3909(3) 0.6360(14)
C38_2 C 0.8042(7) 0.3490(4) 0.3216(14)
H24_2 H 0.805299 0.383791 0.268730
C39_3 C 0.7991(6) 0.3439(4) 0.5107(16)
O4 O 0.8057(4) 0.4383(2) 0.5630(8)
O6 O 0.8049(4) 0.3868(2) 0.8110(8)
Tb5 Tb 0.80666(2) 0.51665(2) 0.36588(3)
Tb6 Tb 0.80666(2) 0.48335(2) 0.86588(3)
C35_4 C 0.7902(6) 0.7070(5) 0.0767(15)
H22_4 H 0.786715 0.712037 0.204378
C37_4 C 0.8032(6) 0.6091(3) 0.1360(14)
C39_4 C 0.7991(6) 0.6561(4) 0.0107(16)
O4_2 O 0.8057(4) 0.5617(2) 0.0630(8)
O6_2 O 0.8049(4) 0.6132(2) 0.3110(8)
C8 C 0.9689(5) 0.9247(5) 0.1221(14)
C10 C 0.8619(5) 0.9028(5) 0.0115(14)
C11 C 0.9584(5) 0.9435(5) 0.2909(14)
H7 H 0.991481 0.957613 0.389566
C12 C 0.9031(5) 0.9429(4) 0.3222(13)
H8 H 0.898026 0.957800 0.438413
C13 C 0.8541(5) 0.9207(4) 0.1870(13)
C14 C 0.8011(7) 0.8750(3) 0.382(2)
C15 C 0.7439(4) 0.9166(4) 0.0772(12)
C16 C 0.6957(5) 0.8807(4) 0.0602(14)
H9 H 0.699692 0.852754 0.153202
C21 C 0.8411(4) 0.8319(3) 0.4030(15)
H13 H 0.868709 0.829910 0.326569
C22_3 C 0.8399(6) 0.7926(5) 0.5351(17)
H14_3 H 0.868420 0.764207 0.552505
C23_3 C 0.7986(5) 0.7924(3) 0.6457(13)
C24_3 C 0.7591(5) 0.8353(4) 0.6210(14)
H15_3 H 0.730155 0.836004 0.692875
C25 C 0.7601(5) 0.8781(4) 0.4926(14)
H16 H 0.733840 0.908036 0.481910
C26_3 C 0.7960(5) 0.7462(5) 0.7693(15)
C34_3 C 0.8075(8) 0.6953(5) 0.7107(15)
H21_3 H 0.817809 0.690920 0.592318
C36_3 C 0.7865(8) 0.7508(6) 0.9517(15)
H23_3 H 0.777120 0.785083 0.993205
C38_3 C 0.8042(7) 0.6510(4) 0.8216(14)
H24_3 H 0.805299 0.616209 0.768730
N1 N 0.7981(4) 0.9138(3) 0.2322(11)
C1_3 C 0.6992(4) 0.5480(5) 0.4655(13)
C2_3 C 0.6404(4) 0.5599(5) 0.5092(15)
C3_3 C 0.5897(5) 0.5601(5) 0.3592(15)
H1_3 H 0.592310 0.555928 0.230188
C4_3 C 0.5300(7) 0.5728(6) 0.583(2)
C5_3 C 0.5342(6) 0.5664(6) 0.3927(15)
H2_2 H 0.498520 0.566457 0.286705
C6_3 C 0.6363(6) 0.5677(5) 0.6955(19)
H3_3 H 0.672374 0.568454 0.799677
C7_3 C 0.5824(6) 0.5744(5) 0.7357(15)
H4_3 H 0.580788 0.580038 0.865133
C8_2 C 0.4689(5) 0.5753(5) 0.6221(14)
C9_2 C 0.4181(4) 0.5958(4) 0.4789(15)
H5_2 H 0.422792 0.608725 0.359352
C10_2 C 0.3619(5) 0.5972(5) 0.5115(14)
H6_2 H 0.328155 0.610507 0.413325
C11_2 C 0.4584(5) 0.5565(5) 0.7909(14)
H7_2 H 0.491481 0.542387 0.889566
C12_2 C 0.4031(5) 0.5571(4) 0.8222(13)
H8_2 H 0.398026 0.542200 0.938413
C13_2 C 0.3541(5) 0.5793(4) 0.6870(13)
C14_2 C 0.3011(7) 0.6250(3) 0.882(2)
C15_2 C 0.2439(4) 0.5834(4) 0.5772(12)
C16_2 C 0.1957(5) 0.6193(4) 0.5602(14)
H9_2 H 0.199692 0.647246 0.653202
C17_2 C 0.1423(5) 0.6152(5) 0.4115(15)
H10_2 H 0.110503 0.640034 0.403619
C18_2 C 0.1354(5) 0.5742(5) 0.2724(14)
C19_2 C 0.1830(4) 0.5391(4) 0.2852(14)
H11_2 H 0.179625 0.512274 0.188587
C20_2 C 0.2358(4) 0.5427(4) 0.4381(14)
H12_2 H 0.266854 0.516881 0.448118
C21_2 C 0.3411(4) 0.6681(3) 0.9030(15)
H13_2 H 0.368709 0.670090 0.826569
C25_2 C 0.2601(5) 0.6219(4) 0.9926(14)
H16_2 H 0.233840 0.591964 0.981910
C30_2 C 0.0230(5) 0.5781(5) 0.1520(15)
H18_2 H 0.021864 0.588584 0.278213
C31_2 C 0.0807(6) 0.5699(6) 0.112(2)
N1_2 N 0.2981(4) 0.5862(3) 0.7322(11)
O1_3 O 0.7019(4) 0.5472(4) 0.2954(13)
O2_2 O 0.7461(3) 0.5374(3) 0.6073(9)
O7_2 O 0.7461(3) 0.4626(3) 0.1073(9)
O8_2 O 0.8653(3) 0.5367(3) 0.7114(9)
O9_2 O 0.8653(3) 0.4633(3) 0.2114(9)
O12_3 O 0.9126(5) 0.5464(4) 0.4869(13)
C27_3 C 0.9138(5) 0.5471(5) 0.6603(13)
C28_3 C 0.9681(5) 0.5587(4) 0.8147(13)
C2_4 C 0.6404(4) 0.4401(5) 0.0092(15)
C4_4 C 0.5300(7) 0.4272(6) 0.083(2)
C6_4 C 0.6363(6) 0.4323(5) 0.1955(19)
H3_4 H 0.672374 0.431546 0.299677
C7_4 C 0.5824(6) 0.4256(5) 0.2357(15)
H4_4 H 0.580788 0.419962 0.365133
C8_3 C 0.4689(5) 0.4247(5) 0.1221(14)
C10_3 C 0.3619(5) 0.4028(5) 0.0115(14)
C11_3 C 0.4584(5) 0.4435(5) 0.2909(14)
H7_3 H 0.491481 0.457613 0.389566
C12_3 C 0.4031(5) 0.4429(4) 0.3222(13)
H8_3 H 0.398026 0.457800 0.438413
C13_3 C 0.3541(5) 0.4207(4) 0.1870(13)
C14_3 C 0.3011(7) 0.3750(3) 0.382(2)
C15_3 C 0.2439(4) 0.4166(4) 0.0772(12)
C16_3 C 0.1957(5) 0.3807(4) 0.0602(14)
H9_3 H 0.199692 0.352754 0.153202
C21_3 C 0.3411(4) 0.3319(3) 0.4030(15)
H13_3 H 0.368709 0.329910 0.326569
C22_4 C 0.3399(6) 0.2926(5) 0.5351(17)
H14_4 H 0.368420 0.264207 0.552505
C23_4 C 0.2986(5) 0.2924(3) 0.6457(13)
C24_4 C 0.2591(5) 0.3353(4) 0.6210(14)
H15_4 H 0.230155 0.336004 0.692875
C25_3 C 0.2601(5) 0.3781(4) 0.4926(14)
H16_3 H 0.233840 0.408036 0.481910
C26_4 C 0.2960(5) 0.2462(5) 0.7693(15)
C34_4 C 0.3075(8) 0.1953(5) 0.7107(15)
H21_4 H 0.317809 0.190920 0.592318
C36_4 C 0.2865(8) 0.2508(6) 0.9517(15)
H23_4 H 0.277120 0.285083 0.993205
C38_4 C 0.3042(7) 0.1510(4) 0.8216(14)
H24_4 H 0.305299 0.116209 0.768730
N1_3 N 0.2981(4) 0.4138(3) 0.2322(11)
C1_4 C 0.6992(4) 0.4520(5) 0.9655(13)
C3_4 C 0.5897(5) 0.4399(5) 0.8592(15)
H1_4 H 0.592310 0.444072 0.730188
C5_4 C 0.5342(6) 0.4336(6) 0.8927(15)
H2_3 H 0.498520 0.433543 0.786705
C9_3 C 0.4181(4) 0.4042(4) 0.9789(15)
H5_3 H 0.422792 0.391275 0.859352
H6_3 H 0.328155 0.389493 0.913325
C17_3 C 0.1423(5) 0.3848(5) 0.9115(15)
H10_3 H 0.110503 0.359966 0.903619
C18_3 C 0.1354(5) 0.4258(5) 0.7724(14)
C19_3 C 0.1830(4) 0.4609(4) 0.7852(14)
H11_3 H 0.179625 0.487726 0.688587
C20_3 C 0.2358(4) 0.4573(4) 0.9381(14)
H12_3 H 0.266854 0.483119 0.948118
C30_3 C 0.0230(5) 0.4219(5) 0.6520(15)
H18_3 H 0.021864 0.411416 0.778213
C31_3 C 0.0807(6) 0.4301(6) 0.612(2)
C32_3 C 0.0803(5) 0.4409(5) 0.4253(15)
H19_3 H 0.117669 0.445343 0.395866
C33_3 C 0.0264(5) 0.4457(5) 0.2754(13)
H20_3 H 0.028082 0.451883 0.146249
O1_4 O 0.7019(4) 0.4528(4) 0.7954(13)
O12_4 O 0.9126(5) 0.4536(4) 0.9869(13)
C27_4 C 0.9138(5) 0.4529(5) 0.1603(13)
C28_4 C 0.9681(5) 0.4413(4) 0.3147(13)
C29_2 C 0.9680(5) 0.4296(6) 0.5016(18)
H17_2 H 0.930485 0.426587 0.531580
H2_4 H 0.998520 0.066457 0.286705
C8_4 C 0.9689(5) 0.0753(5) 0.6221(14)
C9_4 C 0.9181(4) 0.0958(4) 0.4789(15)
H5_4 H 0.922792 0.108725 0.359352
C10_4 C 0.8619(5) 0.0972(5) 0.5115(14)
H6_4 H 0.828155 0.110507 0.413325
C11_4 C 0.9584(5) 0.0565(5) 0.7909(14)
H7_4 H 0.991481 0.042387 0.889566
C12_4 C 0.9031(5) 0.0571(4) 0.8222(13)
H8_4 H 0.898026 0.042200 0.938413
C13_4 C 0.8541(5) 0.0793(4) 0.6870(13)
C14_4 C 0.8011(7) 0.1250(3) 0.882(2)
C15_4 C 0.7439(4) 0.0834(4) 0.5772(12)
C16_4 C 0.6957(5) 0.1193(4) 0.5602(14)
H9_4 H 0.699692 0.147246 0.653202
C17_4 C 0.6423(5) 0.1152(5) 0.4115(15)
H10_4 H 0.610503 0.140034 0.403619
C18_4 C 0.6354(5) 0.0742(5) 0.2724(14)
C19_4 C 0.6830(4) 0.0391(4) 0.2852(14)
H11_4 H 0.679625 0.012274 0.188587
C20_4 C 0.7358(4) 0.0427(4) 0.4381(14)
H12_4 H 0.766854 0.016881 0.448118
C21_4 C 0.8411(4) 0.1681(3) 0.9030(15)
H13_4 H 0.868709 0.170090 0.826569
C25_4 C 0.7601(5) 0.1219(4) 0.9926(14)
H16_4 H 0.733840 0.091964 0.981910
C29_3 C 0.4680(5) 0.0704(6) 0.0016(18)
H17_3 H 0.430485 0.073413 0.031580
C30_4 C 0.5230(5) 0.0781(5) 0.1520(15)
H18_4 H 0.521864 0.088584 0.278213
C31_4 C 0.5807(6) 0.0699(6) 0.112(2)
N1_4 N 0.7981(4) 0.0862(3) 0.7322(11)
C32_4 C 0.0803(5) 0.5591(5) 0.9253(15)
H19_4 H 0.117669 0.554657 0.895866
C33_4 C 0.0264(5) 0.5543(5) 0.7754(13)
H20_4 H 0.028082 0.548117 0.646249
C29_4 C 0.9680(5) 0.5704(6) 0.0016(18)
H17_4 H 0.930485 0.573413 0.031580
loop_
_geom_bond_atom_site_label_1
_geom_bond_atom_site_label_2
_geom_bond_site_symmetry_1
_geom_bond_site_symmetry_2
Tb1 O1 1_555 1_555
C1 C2 1_555 1_555
C2 C3 1_555 1_555
C3 H1 1_555 1_555
C4 C5 1_555 1_555
C5 C3 1_555 1_555
C6 C2 1_555 1_555
H3 C6 1_555 1_555
C7 C4 1_555 1_555
H4 C7 1_555 1_555
O1 C1 1_555 1_555
O2 Tb1 1_555 1_555
O8 Tb1 1_555 1_555
O11 Tb1 1_555 1_555
O12 Tb1 1_555 1_555
O13 Tb1 1_555 1_555
C1 O2 1_555 1_555
C6 C7 1_555 1_555
C27 C28 1_555 1_555
H19 C32 1_555 1_555
C33 C28 1_555 1_555
H20 C33 1_555 1_555
O8 C27 1_555 1_555
O12 C27 1_555 1_555
C32 C33 1_555 1_555
C35 H22 1_555 1_555
C37 C39 1_555 1_555
C39 C35 1_555 1_555
O11 C37 1_555 1_555
O13 C37 1_555 1_555
Tb4 O10 1_555 1_555
C6_2 C2_2 1_555 1_555
H3_2 C6_2 1_555 1_555
C7_2 C4_2 1_555 1_555
H4_2 C7_2 1_555 1_555
C6_2 C7_2 1_555 1_555
Tb4 O1_2 1_555 1_555
C3_2 H1_2 1_555 1_555
C5_2 C3_2 1_555 1_555
O1_2 C1_2 1_555 1_555
O12_2 Tb4 1_555 1_555
O13_2 Tb4 1_555 1_555
H5 C9 1_555 1_555
H10 C17 1_555 1_555
C18 C17 1_555 1_555
C19 C18 1_555 1_555
H11 C19 1_555 1_555
H12 C20 1_555 1_555
C27_2 C28_2 1_555 1_555
C28_2 C29 1_555 1_555
C29 H17 1_555 1_555
C30 C29 1_555 1_555
H18 C30 1_555 1_555
C31 C18 1_555 1_555
C32_2 C31 1_555 1_555
H19_2 C32_2 1_555 1_555
C33_2 C28_2 1_555 1_555
H20_2 C33_2 1_555 1_555
O9 C27_2 1_555 1_555
C19 C20 1_555 1_555
C30 C31 1_555 1_555
C32_2 C33_2 1_555 1_555
H14 C22 1_555 1_555
C23 C22 1_555 1_555
C24 C23 1_555 1_555
H15 C24 1_555 1_555
C26 C23 1_555 1_555
C34 C26 1_555 1_555
H21 C34 1_555 1_555
C35_2 H22_2 1_555 1_555
C36 C26 1_555 1_555
H23 C36 1_555 1_555
C37_2 C39_2 1_555 1_555
C38 C34 1_555 1_555
H24 C38 1_555 1_555
C39_2 C35_2 1_555 1_555
O10 C37_2 1_555 1_555
O13_2 C37_2 1_555 1_555
C35_2 C36 1_555 1_555
C38 C39_2 1_555 1_555
H14_2 C22_2 1_555 1_555
C23_2 C22_2 1_555 1_555
C24_2 C23_2 1_555 1_555
H15_2 C24_2 1_555 1_555
C26_2 C23_2 1_555 1_555
C34_2 C26_2 1_555 1_555
H21_2 C34_2 1_555 1_555
C35_3 H22_3 1_555 1_555
C36_2 C26_2 1_555 1_555
H23_2 C36_2 1_555 1_555
C37_3 C39_3 1_555 1_555
C38_2 C34_2 1_555 1_555
H24_2 C38_2 1_555 1_555
C39_3 C35_3 1_555 1_555
O4 C37_3 1_555 1_555
O6 C37_3 1_555 1_555
Tb5 O4 1_555 1_555
Tb6 O4 1_555 1_555
C35_3 C36_2 1_555 1_555
C38_2 C39_3 1_555 1_555
O6 Tb6 1_555 1_555
C35_4 H22_4 1_555 1_555
C37_4 C39_4 1_555 1_555
C39_4 C35_4 1_555 1_555
O4_2 C37_4 1_555 1_555
O6_2 C37_4 1_555 1_555
Tb5 O4_2 1_555 1_555
O6_2 Tb5 1_555 1_555
C11 C8 1_555 1_555
H7 C11 1_555 1_555
C12 C11 1_555 1_555
H8 C12 1_555 1_555
C13 C10 1_555 1_555
C14 C21 1_555 1_555
C15 C16 1_555 1_555
C16 H9 1_555 1_555
C21 H13 1_555 1_555
C22_3 C21 1_555 1_555
H14_3 C22_3 1_555 1_555
C23_3 C22_3 1_555 1_555
C24_3 C23_3 1_555 1_555
H15_3 C24_3 1_555 1_555
C25 C14 1_555 1_555
H16 C25 1_555 1_555
C26_3 C23_3 1_555 1_555
C34_3 C26_3 1_555 1_555
H21_3 C34_3 1_555 1_555
C36_3 C26_3 1_555 1_555
H23_3 C36_3 1_555 1_555
C38_3 C34_3 1_555 1_555
H24_3 C38_3 1_555 1_555
N1 C13 1_555 1_555
C12 C13 1_555 1_555
C14 N1 1_555 1_555
C15 N1 1_555 1_555
C24_3 C25 1_555 1_555
Tb5 O1_3 1_555 1_555
C1_3 C2_3 1_555 1_555
C2_3 C3_3 1_555 1_555
C3_3 H1_3 1_555 1_555
C4_3 C5_3 1_555 1_555
C5_3 C3_3 1_555 1_555
H2_2 C5_3 1_555 1_555
C6_3 C2_3 1_555 1_555
H3_3 C6_3 1_555 1_555
C7_3 C4_3 1_555 1_555
H4_3 C7_3 1_555 1_555
C8_2 C4_3 1_555 1_555
C9_2 C8_2 1_555 1_555
H5_2 C9_2 1_555 1_555
C10_2 C9_2 1_555 1_555
H6_2 C10_2 1_555 1_555
C11_2 C8_2 1_555 1_555
H7_2 C11_2 1_555 1_555
C12_2 C11_2 1_555 1_555
H8_2 C12_2 1_555 1_555
C13_2 C10_2 1_555 1_555
C14_2 C21_2 1_555 1_555
C15_2 C16_2 1_555 1_555
C16_2 H9_2 1_555 1_555
C17_2 C16_2 1_555 1_555
H10_2 C17_2 1_555 1_555
C18_2 C17_2 1_555 1_555
C19_2 C18_2 1_555 1_555
H11_2 C19_2 1_555 1_555
C20_2 C15_2 1_555 1_555
H12_2 C20_2 1_555 1_555
C21_2 H13_2 1_555 1_555
C25_2 C14_2 1_555 1_555
H16_2 C25_2 1_555 1_555
H18_2 C30_2 1_555 1_555
C31_2 C18_2 1_555 1_555
N1_2 C13_2 1_555 1_555
O1_3 C1_3 1_555 1_555
O2_2 Tb5 1_555 1_555
Tb6 O2_2 1_555 1_555
O7_2 Tb5 1_555 1_555
O8_2 Tb5 1_555 1_555
O9_2 Tb5 1_555 1_555
O12_3 Tb5 1_555 1_555
C1_3 O2_2 1_555 1_555
C6_3 C7_3 1_555 1_555
C12_2 C13_2 1_555 1_555
C14_2 N1_2 1_555 1_555
C15_2 N1_2 1_555 1_555
C19_2 C20_2 1_555 1_555
C30_2 C31_2 1_555 1_555
Tb6 O8_2 1_555 1_555
C27_3 C28_3 1_555 1_555
O8_2 C27_3 1_555 1_555
O12_3 C27_3 1_555 1_555
C6_4 C2_4 1_555 1_555
H3_4 C6_4 1_555 1_555
C7_4 C4_4 1_555 1_555
H4_4 C7_4 1_555 1_555
C8_3 C4_4 1_555 1_555
C11_3 C8_3 1_555 1_555
H7_3 C11_3 1_555 1_555
C12_3 C11_3 1_555 1_555
H8_3 C12_3 1_555 1_555
C13_3 C10_3 1_555 1_555
C14_3 C21_3 1_555 1_555
C15_3 C16_3 1_555 1_555
C16_3 H9_3 1_555 1_555
C21_3 H13_3 1_555 1_555
C22_4 C21_3 1_555 1_555
H14_4 C22_4 1_555 1_555
C23_4 C22_4 1_555 1_555
C24_4 C23_4 1_555 1_555
H15_4 C24_4 1_555 1_555
C25_3 C14_3 1_555 1_555
H16_3 C25_3 1_555 1_555
C26_4 C23_4 1_555 1_555
C34_4 C26_4 1_555 1_555
H21_4 C34_4 1_555 1_555
C36_4 C26_4 1_555 1_555
H23_4 C36_4 1_555 1_555
C38_4 C34_4 1_555 1_555
H24_4 C38_4 1_555 1_555
N1_3 C13_3 1_555 1_555
C6_4 C7_4 1_555 1_555
C12_3 C13_3 1_555 1_555
C14_3 N1_3 1_555 1_555
C15_3 N1_3 1_555 1_555
C24_4 C25_3 1_555 1_555
Tb6 O1_4 1_555 1_555
C3_4 H1_4 1_555 1_555
C5_4 C3_4 1_555 1_555
H2_3 C5_4 1_555 1_555
H5_3 C9_3 1_555 1_555
H10_3 C17_3 1_555 1_555
C18_3 C17_3 1_555 1_555
C19_3 C18_3 1_555 1_555
H11_3 C19_3 1_555 1_555
H12_3 C20_3 1_555 1_555
H18_3 C30_3 1_555 1_555
C31_3 C18_3 1_555 1_555
C32_3 C31_3 1_555 1_555
H19_3 C32_3 1_555 1_555
H20_3 C33_3 1_555 1_555
O1_4 C1_4 1_555 1_555
O12_4 Tb6 1_555 1_555
C19_3 C20_3 1_555 1_555
C30_3 C31_3 1_555 1_555
C32_3 C33_3 1_555 1_555
C27_4 C28_4 1_555 1_555
C28_4 C29_2 1_555 1_555
C29_2 H17_2 1_555 1_555
O9_2 C27_4 1_555 1_555
C9_4 C8_4 1_555 1_555
H5_4 C9_4 1_555 1_555
C10_4 C9_4 1_555 1_555
H6_4 C10_4 1_555 1_555
C11_4 C8_4 1_555 1_555
H7_4 C11_4 1_555 1_555
C12_4 C11_4 1_555 1_555
H8_4 C12_4 1_555 1_555
C13_4 C10_4 1_555 1_555
C14_4 C21_4 1_555 1_555
C15_4 C16_4 1_555 1_555
C16_4 H9_4 1_555 1_555
C17_4 C16_4 1_555 1_555
H10_4 C17_4 1_555 1_555
C18_4 C17_4 1_555 1_555
C19_4 C18_4 1_555 1_555
H11_4 C19_4 1_555 1_555
C20_4 C15_4 1_555 1_555
H12_4 C20_4 1_555 1_555
C21_4 H13_4 1_555 1_555
C25_4 C14_4 1_555 1_555
H16_4 C25_4 1_555 1_555
C29_3 H17_3 1_555 1_555
C30_4 C29_3 1_555 1_555
H18_4 C30_4 1_555 1_555
C31_4 C18_4 1_555 1_555
N1_4 C13_4 1_555 1_555
C12_4 C13_4 1_555 1_555
C14_4 N1_4 1_555 1_555
C15_4 N1_4 1_555 1_555
C19_4 C20_4 1_555 1_555
C30_4 C31_4 1_555 1_555
H19_4 C32_4 1_555 1_555
H20_4 C33_4 1_555 1_555
C32_4 C33_4 1_555 1_555
C29_4 H17_4 1_555 1_555

#END
