
###############################################################################
#
# This file contains modified crystal structure data generated from the
# MOF subset of the Cambridge Structural Database (CSD) v543 
# hosted by the Cambridge Crystallographic Data Centre (CCDC).
#
# This work is licensed under the Creative Commons
# Attribution-NonCommercial-ShareAlike 4.0 International License.
# To view a copy of this license, visit
# http://creativecommons.org/licenses/by-nc-sa/4.0/
# or send a letter to
# Creative Commons, PO Box 1866, Mountain View, CA 94042, USA.
#
# CIF created using the CSD Python API on 29 September 2022
# The structure has been converted into the P1 space group
# The structure has a 3D framework
# The original CSD entry COVJAB is in the triclinic crystal system
# The framework has been calculated to contain at least 10.0% void space
# The void calculation uses a probe of radius 1.32A, grid spacing 0.4
# H atom positions have been added when not included in the experimental data
#
###############################################################################

data_COVJAB
_chemical_formula_moiety         '(C60 H60 N24 O68 U10)n'
_symmetry_cell_setting           triclinic
_symmetry_space_group_name_H-M   'P 1'
_symmetry_Int_Tables_number      1
_space_group_name_Hall           'P 1'
loop_
_symmetry_equiv_pos_site_id
_symmetry_equiv_pos_as_xyz
1 x,y,z
_cell_length_a                   15.194(7)
_cell_length_b                   15.495(8)
_cell_length_c                   15.532(8)
_cell_angle_alpha                75.816(8)
_cell_angle_beta                 79.957(9)
_cell_angle_gamma                74.166(9)
_cell_volume                     3387.98
loop_
_atom_site_label
_atom_site_type_symbol
_atom_site_fract_x
_atom_site_fract_y
_atom_site_fract_z
C16 C 0.013(2) 0.850(2) 0.6166(19)
C17 C 0.0060(16) 0.8969(19) 0.6970(18)
H13 H 0.0263 0.8508 0.7489
H14 H 0.0456 0.9394 0.6817
O14 O 0.0878(14) 0.7865(14) 0.6082(13)
O23 O 0.0133(17) 0.5486(16) 0.9826(14)
O24 O 0.048(2) 0.489(2) 0.865(2)
U8 U 0.16198(8) 0.69365(8) 0.51062(7)
H25 H 0.0868434 0.518912 0.814612
C18 C 0.866(2) 0.084(2) 0.6143(16)
C19 C 0.898(2) 0.0446(18) 0.7028(16)
H15 H 0.8520 0.0670 0.7490
H16 H 0.9544 0.0615 0.7052
C23 C 0.593(2) 0.0430(18) 0.8321(18)
H17 H 0.5273 0.0624 0.8481
H18 H 0.6065 0.0684 0.7690
C24 C 0.640(2) 0.079(2) 0.8831(19)
O15 O 0.8689(13) 0.0409(13) 0.5573(12)
O16 O 0.8600(15) 0.1718(14) 0.5959(14)
O17 O 0.6447(16) 0.1603(15) 0.8605(13)
O18 O 0.6660(15) 0.0365(15) 0.9609(13)
O27 O 0.8236(18) 0.0076(16) 0.0604(17)
O38 O 0.7095(14) 0.0757(13) 0.4713(12)
U6 U 0.83802(8) 0.30635(8) 0.48938(7)
U11 U 0.53266(10) 0.30784(11) 0.85504(7)
U12 U 0.18488(7) 0.06594(7) 0.48976(6)
H27 H 0.811859 0.0607056 0.00940537
H28 H 0.810458 0.0299144 0.117129
O19 O 0.6129(14) 0.8563(14) 0.0226(12)
O20 O 0.5039(15) 0.7961(14) 0.0040(12)
U9 U 0.72317(9) 0.90583(9) 0.06451(7)
U10 U 0.46734(10) 0.69216(11) 0.14496(7)
C1 C 0.798(2) 0.774(2) 0.2088(17)
C2 C 0.818(2) 0.7155(19) 0.2973(17)
H1 H 0.7977 0.7525 0.3424
H2 H 0.8845 0.6914 0.2967
C3 C 0.820(2) 0.4774(18) 0.3592(17)
C4 C 0.802(2) 0.5566(15) 0.2865(16)
H3 H 0.8577 0.5597 0.2456
H4 H 0.7555 0.5515 0.2537
C5 C 0.6729(19) 0.6700(19) 0.3563(17)
C6 C 0.5474(19) 0.7633(19) 0.3873(17)
C7 C 0.545(2) 0.623(2) 0.3748(18)
C8 C 0.5739(17) 0.9058(18) 0.3814(16)
H5 H 0.6032 0.9072 0.3205
H6 H 0.5377 0.9674 0.3843
C9 C 0.6464(19) 0.8816(19) 0.4407(18)
C10 C 0.4084(19) 0.877(2) 0.4199(15)
H7 H 0.3898 0.9382 0.3832
H8 H 0.3790 0.8375 0.4016
C11 C 0.374(2) 0.882(2) 0.5116(16)
C12 C 0.542(2) 0.4722(17) 0.368(2)
H9 H 0.5072 0.4290 0.4038
H10 H 0.6022 0.4553 0.3885
C13 C 0.552(3) 0.466(3) 0.274(2)
C14 C 0.4012(18) 0.5793(18) 0.4126(18)
H11 H 0.3930 0.6087 0.4629
H12 H 0.3845 0.5211 0.4356
C15 C 0.332(2) 0.6390(19) 0.3482(18)
C20 C 0.8480(18) 0.8993(18) 0.7628(15)
C21 C 0.809(2) 0.764(2) 0.8068(17)
C22 C 0.7033(19) 0.9049(19) 0.8220(15)
C25 C 0.5508(19) 0.9016(18) 0.8831(16)
H19 H 0.5481 0.8643 0.8421
H20 H 0.4924 0.9468 0.8854
C26 C 0.559(2) 0.8350(19) 0.9826(17)
C27 C 0.753(2) 0.629(2) 0.828(2)
H21 H 0.7767 0.5642 0.8290
H22 H 0.7250 0.6353 0.8877
C28 C 0.681(2) 0.664(2) 0.7682(19)
C29 C 0.938(2) 0.594(3) 0.809(2)
H23 H 0.9321 0.5425 0.7877
H24 H 0.9820 0.6223 0.7670
C30 C 0.977(2) 0.557(3) 0.899(2)
N1 N 0.7713(16) 0.6355(15) 0.3219(14)
N2 N 0.4969(16) 0.5599(15) 0.3809(15)
N3 N 0.5100(16) 0.8438(16) 0.4009(14)
N4 N 0.6389(15) 0.7447(15) 0.3645(13)
N5 N 0.6317(16) 0.6034(15) 0.3576(14)
N6 N 0.4977(15) 0.7081(16) 0.3946(13)
N7 N 0.9149(14) 0.9440(15) 0.7165(14)
N8 N 0.835(2) 0.6712(18) 0.8080(18)
N9 N 0.6189(16) 0.9480(17) 0.8462(14)
N10 N 0.7691(15) 0.9508(15) 0.7870(13)
N11 N 0.8743(15) 0.8090(16) 0.7737(14)
N12 N 0.7191(16) 0.8122(16) 0.8324(13)
O1 O 0.8217(14) 0.8483(14) 0.1851(12)
O2 O 0.7395(14) 0.7592(13) 0.1672(12)
O3 O 0.8524(14) 0.4007(13) 0.3388(12)
O4 O 0.7910(14) 0.4755(13) 0.4498(12)
O5 O 0.3552(15) 0.6752(14) 0.2729(12)
O6 O 0.2504(13) 0.6530(12) 0.3793(12)
O7 O 0.5184(19) 0.5329(19) 0.2149(18)
O8 O 0.614(2) 0.434(2) 0.223(2)
O9 O 0.2905(14) 0.9243(13) 0.5287(12)
O10 O 0.4322(16) 0.8551(17) 0.5668(14)
O11 O 0.6200(15) 0.8460(14) 0.5300(13)
O12 O 0.7110(13) 0.9120(12) 0.4238(11)
O13 O 0.9555(15) 0.8561(15) 0.5642(14)
O21 O 0.5996(17) 0.6594(16) 0.7837(14)
O22 O 0.7024(14) 0.7158(13) 0.6818(12)
O26 O 0.6386(15) 0.9487(14) 0.1432(12)
O28 O 0.5340(15) 0.7323(16) 0.1984(13)
O29 O 0.4011(16) 0.6553(16) 0.0892(13)
O30 O 0.9401(14) 0.3121(13) 0.5172(12)
O31 O 0.7325(14) 0.2944(13) 0.4638(12)
O32 O 0.8788(13) 0.9600(13) 0.4113(12)
O33 O 0.7445(12) 0.9125(11) 0.6137(10)
O34 O 0.4162(17) 0.7369(18) 0.7366(17)
O35 O 0.5345(17) 0.8745(17) 0.6989(15)
O36 O 0.8546(16) 0.7671(14) 0.5064(15)
U4 U 0.54718(9) 0.76867(12) 0.64557(8)
U5 U 0.81512(7) 0.93406(7) 0.51024(6)
O37 O 0.7496(13) 0.3470(12) 0.6207(12)
O39 O 0.9122(14) 0.2135(14) 0.3918(13)
O41 O 0.3553(16) 0.8397(15) 0.1395(13)
H26 H 0.889031 0.973269 0.0530063
H29 H 0.871454 0.759601 0.443488
H30 H 0.907414 0.73429 0.541056
C1_2 C 0.202(2) 0.226(2) 0.7912(17)
C2_2 C 0.182(2) 0.2845(19) 0.7027(17)
H1_2 H 0.2023 0.2475 0.6576
H2_2 H 0.1155 0.3086 0.7033
C3_2 C 0.180(2) 0.5226(18) 0.6408(17)
C4_2 C 0.198(2) 0.4434(15) 0.7135(16)
H3_2 H 0.1423 0.4403 0.7544
H4_2 H 0.2445 0.4485 0.7463
C5_2 C 0.3271(19) 0.3300(19) 0.6437(17)
C6_2 C 0.4526(19) 0.2367(19) 0.6127(17)
C7_2 C 0.455(2) 0.377(2) 0.6252(18)
C8_2 C 0.4261(17) 0.0942(18) 0.6186(16)
H5_2 H 0.3968 0.0928 0.6795
H6_2 H 0.4623 0.0326 0.6157
C9_2 C 0.3536(19) 0.1184(19) 0.5593(18)
C10_2 C 0.5916(19) 0.123(2) 0.5801(15)
H7_2 H 0.6102 0.0618 0.6168
H8_2 H 0.6210 0.1625 0.5984
C11_2 C 0.626(2) 0.118(2) 0.4884(16)
C12_2 C 0.458(2) 0.5278(17) 0.632(2)
H9_2 H 0.4928 0.5710 0.5962
H10_2 H 0.3978 0.5447 0.6115
C13_2 C 0.448(3) 0.534(3) 0.726(2)
C14_2 C 0.5988(18) 0.4207(18) 0.5874(18)
H11_2 H 0.6070 0.3913 0.5371
H12_2 H 0.6155 0.4789 0.5644
C15_2 C 0.668(2) 0.3610(19) 0.6518(18)
C20_2 C 0.1520(18) 0.1007(18) 0.2372(15)
C21_2 C 0.191(2) 0.236(2) 0.1932(17)
C22_2 C 0.2967(19) 0.0951(19) 0.1780(15)
C25_2 C 0.4492(19) 0.0984(18) 0.1169(16)
H19_2 H 0.4519 0.1357 0.1579
H20_2 H 0.5076 0.0532 0.1146
C26_2 C 0.441(2) 0.1650(19) 0.0174(17)
C27_2 C 0.247(2) 0.371(2) 0.172(2)
H21_2 H 0.2233 0.4358 0.1710
H22_2 H 0.2750 0.3647 0.1123
C28_2 C 0.319(2) 0.336(2) 0.2318(19)
C29_2 C 0.062(2) 0.406(3) 0.191(2)
H23_2 H 0.0679 0.4575 0.2123
H24_2 H 0.0180 0.3777 0.2330
C30_2 C 0.023(2) 0.443(3) 0.101(2)
N1_2 N 0.2287(16) 0.3645(15) 0.6781(14)
N2_2 N 0.5031(16) 0.4401(15) 0.6191(15)
N3_2 N 0.4900(16) 0.1562(16) 0.5991(14)
N4_2 N 0.3611(15) 0.2553(15) 0.6355(13)
N5_2 N 0.3683(16) 0.3966(15) 0.6424(14)
N6_2 N 0.5023(15) 0.2919(16) 0.6054(13)
N7_2 N 0.0851(14) 0.0560(15) 0.2835(14)
N8_2 N 0.165(2) 0.3288(18) 0.1920(18)
N9_2 N 0.3811(16) 0.0520(17) 0.1538(14)
N10_2 N 0.2309(15) 0.0492(15) 0.2130(13)
N11_2 N 0.1257(15) 0.1910(16) 0.2263(14)
N12_2 N 0.2809(16) 0.1878(16) 0.1676(13)
O1_2 O 0.1783(14) 0.1517(14) 0.8149(12)
O2_2 O 0.2605(14) 0.2408(13) 0.8328(12)
O3_2 O 0.1476(14) 0.5993(13) 0.6612(12)
O4_2 O 0.2090(14) 0.5245(13) 0.5502(12)
O5_2 O 0.6448(15) 0.3248(14) 0.7271(12)
O7_2 O 0.4816(19) 0.4671(19) 0.7851(18)
O8_2 O 0.386(2) 0.566(2) 0.777(2)
O10_2 O 0.5678(16) 0.1449(17) 0.4332(14)
O11_2 O 0.3800(15) 0.1540(14) 0.4700(13)
O12_2 O 0.2890(13) 0.0880(12) 0.5762(11)
O13_2 O 0.0445(15) 0.1439(15) 0.4358(14)
O21_2 O 0.4004(17) 0.3406(16) 0.2163(14)
O22_2 O 0.2976(14) 0.2842(13) 0.3182(12)
O26_2 O 0.3614(15) 0.0513(14) 0.8568(12)
O28_2 O 0.4660(15) 0.2677(16) 0.8016(13)
O29_2 O 0.5989(16) 0.3447(16) 0.9108(13)
O30_2 O 0.0599(14) 0.6879(13) 0.4828(12)
O31_2 O 0.2675(14) 0.7056(13) 0.5362(12)
O32_2 O 0.1212(13) 0.0400(13) 0.5887(12)
O33_2 O 0.2555(12) 0.0875(11) 0.3863(10)
O34_2 O 0.5838(17) 0.2631(18) 0.2634(17)
O35_2 O 0.4655(17) 0.1255(17) 0.3011(15)
O36_2 O 0.1454(16) 0.2329(14) 0.4936(15)
U2 U 0.27683(9) 0.09417(9) 0.93549(7)
U4_2 U 0.45282(9) 0.23133(12) 0.35443(8)
O40 O 0.1400(15) 0.8282(14) 0.4041(14)
O43 O 0.3871(14) 0.1437(14) 0.9774(12)
O44 O 0.4961(15) 0.2039(14) 0.9960(12)
H26_2 H 0.110969 0.026731 0.946994
H29_2 H 0.128546 0.240399 0.556512
H30_2 H 0.0925864 0.26571 0.458944
O42 O 0.3340(15) 0.9635(15) 0.0391(13)
C18_2 C 0.134(2) 0.916(2) 0.3857(16)
C19_2 C 0.102(2) 0.9554(18) 0.2972(16)
H15_2 H 0.1480 0.9330 0.2510
H16_2 H 0.0456 0.9385 0.2948
C23_2 C 0.407(2) 0.9570(18) 0.1679(18)
H17_2 H 0.4727 0.9376 0.1519
H18_2 H 0.3935 0.9316 0.2310
C24_2 C 0.360(2) 0.921(2) 0.1169(19)
O15_2 O 0.1311(13) 0.9591(13) 0.4427(12)
O27_2 O 0.1764(18) 0.9924(16) 0.9396(17)
H27_2 H 0.188141 0.939294 0.990595
H28_2 H 0.189542 0.970086 0.882871
C16_2 C 0.987(2) 0.150(2) 0.3834(19)
C17_2 C 0.9940(16) 0.1031(19) 0.3030(18)
H13_2 H 0.9737 0.1492 0.2511
H14_2 H 0.9544 0.0606 0.3183
O23_2 O 0.9867(17) 0.4514(16) 0.0174(14)
O24_2 O 0.952(2) 0.511(2) 0.135(2)
H25_2 H 0.913157 0.481088 0.185388
O25 O 0.8053(16) 0.8619(16) 0.9846(14)
O25_2 O 0.1947(16) 0.1381(16) 0.0154(14)
loop_
_geom_bond_atom_site_label_1
_geom_bond_atom_site_label_2
_geom_bond_site_symmetry_1
_geom_bond_site_symmetry_2
C16 C17 1_555 1_555
C17 H13 1_555 1_555
H14 C17 1_555 1_555
O14 C16 1_555 1_555
U8 O14 1_555 1_555
O24 H25 1_555 1_555
C18 C19 1_555 1_555
C19 H15 1_555 1_555
H16 C19 1_555 1_555
C23 H17 1_555 1_555
H18 C23 1_555 1_555
C24 C23 1_555 1_555
O15 C18 1_555 1_555
O16 C18 1_555 1_555
O17 C24 1_555 1_555
O18 C24 1_555 1_555
U6 O16 1_555 1_555
U11 O17 1_555 1_555
O27 H27 1_555 1_555
O27 H28 1_555 1_555
U10 O20 1_555 1_555
O19 U9 1_555 1_555
C1 C2 1_555 1_555
C2 H1 1_555 1_555
H2 C2 1_555 1_555
C3 C4 1_555 1_555
C4 H3 1_555 1_555
H4 C4 1_555 1_555
C5 N1 1_555 1_555
C6 N3 1_555 1_555
C7 N2 1_555 1_555
C8 H5 1_555 1_555
H6 C8 1_555 1_555
C9 C8 1_555 1_555
C10 H7 1_555 1_555
H8 C10 1_555 1_555
C11 C10 1_555 1_555
C12 H9 1_555 1_555
H10 C12 1_555 1_555
C13 C12 1_555 1_555
C14 H11 1_555 1_555
H12 C14 1_555 1_555
C15 C14 1_555 1_555
C20 N7 1_555 1_555
C21 N8 1_555 1_555
C22 N9 1_555 1_555
C25 H19 1_555 1_555
H20 C25 1_555 1_555
C26 C25 1_555 1_555
C27 H21 1_555 1_555
H22 C27 1_555 1_555
C28 C27 1_555 1_555
C29 H23 1_555 1_555
H24 C29 1_555 1_555
C30 C29 1_555 1_555
N1 C2 1_555 1_555
N2 C12 1_555 1_555
N3 C8 1_555 1_555
N4 C5 1_555 1_555
N5 C5 1_555 1_555
N6 C6 1_555 1_555
N8 C27 1_555 1_555
N10 C20 1_555 1_555
N11 C20 1_555 1_555
N12 C21 1_555 1_555
O1 C1 1_555 1_555
O2 C1 1_555 1_555
O3 C3 1_555 1_555
O4 C3 1_555 1_555
O5 C15 1_555 1_555
O6 C15 1_555 1_555
O7 C13 1_555 1_555
O8 C13 1_555 1_555
O9 C11 1_555 1_555
O10 C11 1_555 1_555
O11 C9 1_555 1_555
O12 C9 1_555 1_555
O21 C28 1_555 1_555
O22 C28 1_555 1_555
O26 U9 1_555 1_555
O28 U10 1_555 1_555
O29 U10 1_555 1_555
O30 U6 1_555 1_555
O31 U6 1_555 1_555
O32 U5 1_555 1_555
O33 U5 1_555 1_555
O34 U4 1_555 1_555
O35 U4 1_555 1_555
O36 U5 1_555 1_555
U6 O3 1_555 1_555
U9 O1 1_555 1_555
U10 O5 1_555 1_555
U4 O10 1_555 1_555
U5 O12 1_555 1_555
O37 U6 1_555 1_555
O39 U6 1_555 1_555
O41 U10 1_555 1_555
U8 O6 1_555 1_555
C4 N1 1_555 1_555
C6 N4 1_555 1_555
C7 N5 1_555 1_555
C7 N6 1_555 1_555
C10 N3 1_555 1_555
C14 N2 1_555 1_555
C21 N11 1_555 1_555
C22 N10 1_555 1_555
C22 N12 1_555 1_555
C25 N9 1_555 1_555
C29 N8 1_555 1_555
O2 U9 1_555 1_555
O4 U6 1_555 1_555
O7 U10 1_555 1_555
O11 U4 1_555 1_555
O13 U5 1_555 1_555
O21 U4 1_555 1_555
O22 U4 1_555 1_555
O36 H29 1_555 1_555
O36 H30 1_555 1_555
C1_2 C2_2 1_555 1_555
C2_2 H1_2 1_555 1_555
H2_2 C2_2 1_555 1_555
C3_2 C4_2 1_555 1_555
C4_2 H3_2 1_555 1_555
H4_2 C4_2 1_555 1_555
C5_2 N1_2 1_555 1_555
C6_2 N3_2 1_555 1_555
C7_2 N2_2 1_555 1_555
C8_2 H5_2 1_555 1_555
H6_2 C8_2 1_555 1_555
C9_2 C8_2 1_555 1_555
C10_2 H7_2 1_555 1_555
H8_2 C10_2 1_555 1_555
C11_2 C10_2 1_555 1_555
C12_2 H9_2 1_555 1_555
H10_2 C12_2 1_555 1_555
C13_2 C12_2 1_555 1_555
C14_2 H11_2 1_555 1_555
H12_2 C14_2 1_555 1_555
C15_2 C14_2 1_555 1_555
C20_2 N7_2 1_555 1_555
C21_2 N8_2 1_555 1_555
C22_2 N9_2 1_555 1_555
C25_2 H19_2 1_555 1_555
H20_2 C25_2 1_555 1_555
C26_2 C25_2 1_555 1_555
C27_2 H21_2 1_555 1_555
H22_2 C27_2 1_555 1_555
C28_2 C27_2 1_555 1_555
C29_2 H23_2 1_555 1_555
H24_2 C29_2 1_555 1_555
C30_2 C29_2 1_555 1_555
N1_2 C2_2 1_555 1_555
N2_2 C12_2 1_555 1_555
N3_2 C8_2 1_555 1_555
N4_2 C5_2 1_555 1_555
N5_2 C5_2 1_555 1_555
N6_2 C6_2 1_555 1_555
N8_2 C27_2 1_555 1_555
N10_2 C20_2 1_555 1_555
N11_2 C20_2 1_555 1_555
N12_2 C21_2 1_555 1_555
O1_2 C1_2 1_555 1_555
O2_2 C1_2 1_555 1_555
O3_2 C3_2 1_555 1_555
O4_2 C3_2 1_555 1_555
O5_2 C15_2 1_555 1_555
O37 C15_2 1_555 1_555
O7_2 C13_2 1_555 1_555
O8_2 C13_2 1_555 1_555
O38 C11_2 1_555 1_555
O10_2 C11_2 1_555 1_555
O11_2 C9_2 1_555 1_555
O12_2 C9_2 1_555 1_555
O21_2 C28_2 1_555 1_555
O22_2 C28_2 1_555 1_555
O26_2 U2 1_555 1_555
O28_2 U11 1_555 1_555
O29_2 U11 1_555 1_555
O30_2 U8 1_555 1_555
O31_2 U8 1_555 1_555
O32_2 U12 1_555 1_555
O33_2 U12 1_555 1_555
O34_2 U4_2 1_555 1_555
O35_2 U4_2 1_555 1_555
O36_2 U12 1_555 1_555
U8 O3_2 1_555 1_555
U2 O1_2 1_555 1_555
U11 O5_2 1_555 1_555
U4_2 O10_2 1_555 1_555
U12 O12_2 1_555 1_555
O40 U8 1_555 1_555
O43 U2 1_555 1_555
O44 U11 1_555 1_555
C4_2 N1_2 1_555 1_555
C6_2 N4_2 1_555 1_555
C7_2 N5_2 1_555 1_555
C7_2 N6_2 1_555 1_555
C10_2 N3_2 1_555 1_555
C14_2 N2_2 1_555 1_555
C21_2 N11_2 1_555 1_555
C22_2 N10_2 1_555 1_555
C22_2 N12_2 1_555 1_555
C25_2 N9_2 1_555 1_555
C29_2 N8_2 1_555 1_555
O2_2 U2 1_555 1_555
O4_2 U8 1_555 1_555
O7_2 U11 1_555 1_555
O11_2 U4_2 1_555 1_555
O13_2 U12 1_555 1_555
O21_2 U4_2 1_555 1_555
O22_2 U4_2 1_555 1_555
O36_2 H29_2 1_555 1_555
O36_2 H30_2 1_555 1_555
C18_2 C19_2 1_555 1_555
C19_2 H15_2 1_555 1_555
H16_2 C19_2 1_555 1_555
C23_2 H17_2 1_555 1_555
H18_2 C23_2 1_555 1_555
C24_2 C23_2 1_555 1_555
O15_2 C18_2 1_555 1_555
O40 C18_2 1_555 1_555
O41 C24_2 1_555 1_555
O42 C24_2 1_555 1_555
O27_2 H27_2 1_555 1_555
O27_2 H28_2 1_555 1_555
C16_2 C17_2 1_555 1_555
C17_2 H13_2 1_555 1_555
H14_2 C17_2 1_555 1_555
O39 C16_2 1_555 1_555
O24_2 H25_2 1_555 1_555

#END
