
###############################################################################
#
# This file contains modified crystal structure data generated from the
# MOF subset of the Cambridge Structural Database (CSD) v543 
# hosted by the Cambridge Crystallographic Data Centre (CCDC).
#
# This work is licensed under the Creative Commons
# Attribution-NonCommercial-ShareAlike 4.0 International License.
# To view a copy of this license, visit
# http://creativecommons.org/licenses/by-nc-sa/4.0/
# or send a letter to
# Creative Commons, PO Box 1866, Mountain View, CA 94042, USA.
#
# CIF created using the CSD Python API on 29 September 2022
# The structure has been converted into the P1 space group
# The structure has a 3D framework
# The original CSD entry COVNIN is in the triclinic crystal system
# The framework has been calculated to contain at least 10.0% void space
# The void calculation uses a probe of radius 1.32A, grid spacing 0.4
#
###############################################################################

data_COVNIN
_chemical_formula_moiety         '(C92 H76 Cd4 N28 O14)n'
_symmetry_cell_setting           triclinic
_symmetry_space_group_name_H-M   'P 1'
_symmetry_Int_Tables_number      1
_space_group_name_Hall           'P 1'
loop_
_symmetry_equiv_pos_site_id
_symmetry_equiv_pos_as_xyz
1 x,y,z
_cell_length_a                   10.9275(7)
_cell_length_b                   13.9238(7)
_cell_length_c                   17.8792(12)
_cell_angle_alpha                103.103(5)
_cell_angle_beta                 101.211(6)
_cell_angle_gamma                107.587(5)
_cell_volume                     2422.3
loop_
_atom_site_label
_atom_site_type_symbol
_atom_site_fract_x
_atom_site_fract_y
_atom_site_fract_z
H14 H 0.0117 0.3492 0.4484
H15 H 0.0128 0.3554 0.5779
H2 H 0.0105 0.3458 0.8719
H3 H 0.0065 0.3348 0.9979
O9 O 0.0738(5) 0.3782(3) 0.7264(3)
O12 O 0.0184(4) 0.5928(3) 0.7682(3)
H25 H 0.0096 0.7700 0.7730
C6 C 0.6471(5) 0.4355(4) 0.1300(3)
C7 C 0.5368(6) 0.4653(5) 0.1240(3)
H4 H 0.5032 0.4798 0.0777
C8 C 0.5278(6) 0.4574(5) 0.2501(3)
H5 H 0.4869 0.4647 0.2910
C9 C 0.6392(5) 0.4296(4) 0.2622(3)
C10 C 0.6977(5) 0.4164(4) 0.2002(3)
H6 H 0.7707 0.3949 0.2057
C11 C 0.4649(5) 0.1680(4) 0.2062(3)
H7 H 0.4279 0.1767 0.2488
C12 C 0.5789(5) 0.1432(4) 0.2170(3)
C13 C 0.6341(5) 0.1308(4) 0.1535(3)
H8 H 0.7117 0.1151 0.1587
C14 C 0.5732(5) 0.1418(4) 0.0825(3)
C15 C 0.4588(5) 0.1679(4) 0.0786(3)
H9 H 0.4185 0.1771 0.0312
C16 C 0.6285(5) 0.1279(4) 0.0143(3)
C17 C 0.7095(5) 0.4223(4) 0.0642(3)
C23 C 0.7526(5) 0.4075(4) 0.5360(3)
H13 H 0.6879 0.4220 0.5586
C24 C 0.7440(5) 0.4053(4) 0.4573(3)
C25 C 0.6988(5) 0.4152(4) 0.3379(3)
C26 C 0.8436(5) 0.3849(4) 0.4248(3)
C27 C 0.9460(5) 0.3645(4) 0.4695(3)
C28 C 0.9447(5) 0.3682(4) 0.5465(3)
C29 C 0.6420(5) 0.1299(4) 0.2919(3)
C30 C 0.7747(5) 0.1024(4) 0.3829(3)
C31 C 0.6705(5) 0.1167(4) 0.4130(3)
C32 C 0.6623(5) 0.1086(4) 0.4869(3)
H16 H 0.5909 0.1169 0.5052
C33 C 0.8600(5) 0.0751(4) 0.5041(3)
H17 H 0.9250 0.0607 0.5368
C34 C 0.8735(5) 0.0811(4) 0.4304(3)
H18 H 0.9452 0.0714 0.4131
N2 N 0.8513(4) 0.3892(3) 0.5802(2)
N4 N 0.7578(4) 0.0887(3) 0.5320(2)
N6 N 0.8165(4) 0.3890(3) 0.0689(2)
H35 H 0.8555 0.3737 0.1087
N7 N 0.6530(5) 0.4233(4) 0.4010(3)
N8 N 0.8124(4) 0.3913(3) 0.3487(2)
H36 H 0.8559 0.3821 0.3141
N10 N 0.7343(4) 0.0984(4) 0.0160(2)
N11 N 0.5882(4) 0.1348(3) 0.3541(2)
H38 H 0.5162 0.1470 0.3562
N12 N 0.7552(4) 0.1115(3) 0.3069(2)
N13 N 0.4755(5) 0.4744(5) 0.1825(3)
N14 N 0.4044(4) 0.1804(4) 0.1385(2)
Cd4 Cd 0.74741(4) 0.08687(3) 0.65842(2)
Cd7 Cd 0.87001(4) 0.39813(3) 0.71766(2)
C1 C 0.7675(5) 0.4208(4) 0.8782(3)
H1 H 0.7077 0.4420 0.8476
C2 C 0.9468(5) 0.3640(4) 0.8935(3)
C3 C 0.9460(5) 0.3569(4) 0.9688(3)
C4 C 0.8492(5) 0.3848(4) 0.9985(3)
C5 C 0.7579(5) 0.4159(4) 0.9530(3)
C18 C 0.6546(5) 0.1167(4) 0.8191(3)
H10 H 0.5890 0.1332 0.7887
C19 C 0.8491(6) 0.0652(5) 0.9084(3)
H11 H 0.9145 0.0466 0.9367
C20 C 0.6574(5) 0.1183(4) 0.8969(3)
C21 C 0.7545(5) 0.0926(4) 0.9416(3)
C22 C 0.8395(6) 0.0674(5) 0.8314(3)
H12 H 0.9024 0.0510 0.8079
C41 C 0.5604(5) 0.2020(4) 0.6518(3)
C42 C 0.4426(13) 0.2363(11) 0.6397(9)
H27 H 0.4782 0.3125 0.6510
H28 H 0.3953 0.2067 0.5831
C43 C 0.3544(9) 0.2162(8) 0.6773(8)
H29 H 0.4004 0.2430 0.7341
H30 H 0.3135 0.1400 0.6638
C44 C 0.2393(9) 0.2609(8) 0.6627(7)
H31 H 0.2772 0.3357 0.6684
H32 H 0.1807 0.2248 0.6087
C45 C 0.1668(11) 0.2465(9) 0.7171(6)
H33 H 0.2295 0.2800 0.7702
H34 H 0.1319 0.1712 0.7102
C46 C 0.0539(5) 0.2839(5) 0.7170(3)
N1 N 0.8611(4) 0.3957(3) 0.8487(2)
N3 N 0.7456(4) 0.0916(4) 0.7874(2)
N5 N 0.6711(5) 0.4391(4) 0.9956(2)
N9 N 0.5794(4) 0.1410(3) 0.9440(2)
H37 H 0.5122 0.1600 0.9312
O1 O 0.6755(6) 0.2653(5) 0.6706(3)
O2 O 0.5390(5) 0.1069(3) 0.6380(2)
O10 O 0.9391(6) 0.2244(5) 0.7076(3)
O11 O 0.8006(4) 0.5421(3) 0.7310(2)
C35 C 0.7564(6) 0.8810(5) 0.6221(3)
C36 C 0.7471(10) 0.7694(6) 0.5969(5)
H19 H 0.6535 0.7251 0.5832
H20 H 0.7741 0.7579 0.5481
C37 C 0.8179(14) 0.7329(7) 0.6481(5)
H21 H 0.9112 0.7633 0.6497
H22 H 0.7899 0.6571 0.6236
C38 C 0.8132(7) 0.7499(5) 0.7335(4)
H23 H 0.8209 0.8222 0.7571
H24 H 0.7285 0.7029 0.7352
C39 C 0.9266(8) 0.7283(5) 0.7804(5)
H26 H 0.9327 0.7517 0.8368
C40 C 0.9131(6) 0.6141(4) 0.7575(3)
O5 O 0.6495(4) 0.8994(3) 0.6188(3)
O6 O 0.8668(4) 0.9558(3) 0.6456(3)
O4 O 0.0609(6) 0.7756(5) 0.2924(3)
Cd3 Cd 0.25259(4) 0.91313(3) 0.34158(2)
Cd5 Cd 0.12999(4) 0.60187(3) 0.28234(2)
C35_2 C 0.2436(6) 0.1190(5) 0.3779(3)
C36_2 C 0.2529(10) 0.2306(6) 0.4031(5)
H19_2 H 0.3465 0.2749 0.4168
H20_2 H 0.2259 0.2421 0.4519
C37_2 C 0.1821(14) 0.2671(7) 0.3519(5)
H21_2 H 0.0888 0.2367 0.3503
H22_2 H 0.2101 0.3429 0.3764
C38_2 C 0.1868(7) 0.2501(5) 0.2665(4)
H23_2 H 0.1791 0.1778 0.2429
H24_2 H 0.2715 0.2971 0.2648
C39_2 C 0.0734(8) 0.2717(5) 0.2196(5)
H26_2 H 0.0673 0.2483 0.1632
C40_2 C 0.0869(6) 0.3859(4) 0.2425(3)
O5_2 O 0.3505(4) 0.1006(3) 0.3812(3)
O6_2 O 0.1332(4) 0.0442(3) 0.3544(3)
O7 O 0.1994(4) 0.4579(3) 0.2690(2)
C1_2 C 0.2325(5) 0.5792(4) 0.1218(3)
H1_2 H 0.2923 0.5580 0.1524
C2_2 C 0.0532(5) 0.6360(4) 0.1065(3)
C3_2 C 0.0540(5) 0.6431(4) 0.0312(3)
C4_2 C 0.1508(5) 0.6152(4) 0.0015(3)
C5_2 C 0.2421(5) 0.5841(4) 0.0470(3)
C18_2 C 0.3454(5) 0.8833(4) 0.1809(3)
H10_2 H 0.4110 0.8668 0.2113
C19_2 C 0.1509(6) 0.9348(5) 0.0916(3)
H11_2 H 0.0855 0.9534 0.0633
C20_2 C 0.3426(5) 0.8817(4) 0.1031(3)
C21_2 C 0.2455(5) 0.9074(4) 0.0584(3)
C22_2 C 0.1605(6) 0.9326(5) 0.1686(3)
H12_2 H 0.0976 0.9490 0.1921
C41_2 C 0.4396(5) 0.7980(4) 0.3482(3)
C42_2 C 0.5574(13) 0.7637(11) 0.3603(9)
H27_2 H 0.5218 0.6875 0.3490
H28_2 H 0.6047 0.7933 0.4169
C43_2 C 0.6456(9) 0.7838(8) 0.3227(8)
H29_2 H 0.5996 0.7570 0.2659
H30_2 H 0.6865 0.8600 0.3362
C44_2 C 0.7607(9) 0.7391(8) 0.3373(7)
H31_2 H 0.7228 0.6643 0.3316
H32_2 H 0.8193 0.7752 0.3913
C45_2 C 0.8332(11) 0.7535(9) 0.2829(6)
H33_2 H 0.7705 0.7200 0.2298
H34_2 H 0.8681 0.8288 0.2898
C46_2 C 0.9461(5) 0.7161(5) 0.2830(3)
N1_2 N 0.1389(4) 0.6043(3) 0.1513(2)
N3_2 N 0.2544(4) 0.9084(4) 0.2126(2)
N5_2 N 0.3289(5) 0.5609(4) 0.0044(2)
N9_2 N 0.4206(4) 0.8590(3) 0.0560(2)
H37_2 H 0.4878 0.8400 0.0688
O1_2 O 0.3245(6) 0.7347(5) 0.3294(3)
O2_2 O 0.4610(5) 0.8931(3) 0.3620(2)
O3 O 0.9262(5) 0.6218(3) 0.2736(3)
N15 N 0.1487(4) 0.6108(3) 0.4198(2)
N16 N 0.2422(4) 0.9113(3) 0.4680(2)
C6_2 C 0.3529(5) 0.5645(4) 0.8700(3)
C7_2 C 0.4632(6) 0.5347(5) 0.8760(3)
H4_2 H 0.4968 0.5202 0.9223
C8_2 C 0.4722(6) 0.5426(5) 0.7499(3)
H5_2 H 0.5131 0.5353 0.7090
C9_2 C 0.3608(5) 0.5704(4) 0.7378(3)
C10_2 C 0.3023(5) 0.5836(4) 0.7998(3)
H6_2 H 0.2293 0.6051 0.7943
C11_2 C 0.5351(5) 0.8320(4) 0.7938(3)
H7_2 H 0.5721 0.8233 0.7512
C12_2 C 0.4211(5) 0.8568(4) 0.7830(3)
C13_2 C 0.3659(5) 0.8692(4) 0.8465(3)
H8_2 H 0.2883 0.8849 0.8413
C14_2 C 0.4268(5) 0.8582(4) 0.9175(3)
C15_2 C 0.5412(5) 0.8321(4) 0.9214(3)
H9_2 H 0.5815 0.8229 0.9688
C16_2 C 0.3715(5) 0.8721(4) 0.9857(3)
C17_2 C 0.2905(5) 0.5777(4) 0.9358(3)
C23_2 C 0.2474(5) 0.5925(4) 0.4640(3)
H13_2 H 0.3121 0.5780 0.4414
C24_2 C 0.2560(5) 0.5947(4) 0.5427(3)
C25_2 C 0.3012(5) 0.5848(4) 0.6621(3)
C26_2 C 0.1564(5) 0.6151(4) 0.5752(3)
C27_2 C 0.0540(5) 0.6355(4) 0.5305(3)
C28_2 C 0.0553(5) 0.6318(4) 0.4535(3)
C29_2 C 0.3580(5) 0.8701(4) 0.7081(3)
C30_2 C 0.2253(5) 0.8976(4) 0.6171(3)
C31_2 C 0.3295(5) 0.8833(4) 0.5870(3)
C32_2 C 0.3377(5) 0.8914(4) 0.5131(3)
H16_2 H 0.4091 0.8831 0.4948
C33_2 C 0.1400(5) 0.9249(4) 0.4959(3)
H17_2 H 0.0750 0.9393 0.4632
C34_2 C 0.1265(5) 0.9189(4) 0.5696(3)
H18_2 H 0.0548 0.9286 0.5869
N6_2 N 0.1835(4) 0.6110(3) 0.9311(2)
H35_2 H 0.1445 0.6263 0.8913
N7_2 N 0.3470(5) 0.5767(4) 0.5990(3)
N8_2 N 0.1876(4) 0.6087(3) 0.6513(2)
H36_2 H 0.1441 0.6179 0.6859
N10_2 N 0.2657(4) 0.9016(4) 0.9840(2)
N11_2 N 0.4118(4) 0.8652(3) 0.6459(2)
H38_2 H 0.4838 0.8530 0.6438
N12_2 N 0.2448(4) 0.8885(3) 0.6931(2)
N13_2 N 0.5245(5) 0.5256(5) 0.8175(3)
N14_2 N 0.5956(4) 0.8196(4) 0.8615(2)
H25_2 H 0.9904 0.2300 0.2270
O8 O 0.9816(4) 0.4072(3) 0.2318(3)
H2_2 H 0.9895 0.6542 0.1281
H3_2 H 0.9935 0.6652 0.0021
H14_2 H 0.9883 0.6508 0.5516
H15_2 H 0.9872 0.6446 0.4221
loop_
_geom_bond_atom_site_label_1
_geom_bond_atom_site_label_2
_geom_bond_site_symmetry_1
_geom_bond_site_symmetry_2
C6 C7 1_555 1_555
C7 H4 1_555 1_555
C8 H5 1_555 1_555
C9 C8 1_555 1_555
C10 C6 1_555 1_555
H6 C10 1_555 1_555
C11 H7 1_555 1_555
C12 C11 1_555 1_555
C13 C12 1_555 1_555
H8 C13 1_555 1_555
C14 C13 1_555 1_555
C15 C14 1_555 1_555
H9 C15 1_555 1_555
C16 C14 1_555 1_555
C17 C6 1_555 1_555
C23 H13 1_555 1_555
C24 C23 1_555 1_555
C25 C9 1_555 1_555
C26 C24 1_555 1_555
C27 C26 1_555 1_555
C28 C27 1_555 1_555
C29 C12 1_555 1_555
C30 C31 1_555 1_555
C31 C32 1_555 1_555
C32 H16 1_555 1_555
C33 H17 1_555 1_555
C34 C30 1_555 1_555
H18 C34 1_555 1_555
N2 C23 1_555 1_555
N4 C32 1_555 1_555
H35 N6 1_555 1_555
N7 C24 1_555 1_555
N8 C25 1_555 1_555
H36 N8 1_555 1_555
N10 C16 1_555 1_555
N11 C29 1_555 1_555
H38 N11 1_555 1_555
N12 C29 1_555 1_555
N13 C7 1_555 1_555
N14 C11 1_555 1_555
Cd4 N4 1_555 1_555
Cd7 N2 1_555 1_555
C8 N13 1_555 1_555
C9 C10 1_555 1_555
C15 N14 1_555 1_555
C17 N6 1_555 1_555
C25 N7 1_555 1_555
C26 N8 1_555 1_555
C28 N2 1_555 1_555
C30 N12 1_555 1_555
C31 N11 1_555 1_555
C33 C34 1_555 1_555
C33 N4 1_555 1_555
C1 H1 1_555 1_555
C3 C2 1_555 1_555
C4 C3 1_555 1_555
C5 C1 1_555 1_555
C18 H10 1_555 1_555
C19 H11 1_555 1_555
C20 C18 1_555 1_555
C21 C19 1_555 1_555
C22 C19 1_555 1_555
H12 C22 1_555 1_555
C41 C42 1_555 1_555
C42 H27 1_555 1_555
H28 C42 1_555 1_555
C43 C42 1_555 1_555
H29 C43 1_555 1_555
H30 C43 1_555 1_555
C44 C43 1_555 1_555
H31 C44 1_555 1_555
H32 C44 1_555 1_555
C45 C44 1_555 1_555
H33 C45 1_555 1_555
H34 C45 1_555 1_555
C46 C45 1_555 1_555
Cd4 N3 1_555 1_555
Cd7 N1 1_555 1_555
N1 C1 1_555 1_555
N3 C18 1_555 1_555
N5 C5 1_555 1_555
H37 N9 1_555 1_555
O1 C41 1_555 1_555
O2 C41 1_555 1_555
O9 C46 1_555 1_555
O10 Cd4 1_555 1_555
O11 Cd7 1_555 1_555
C2 N1 1_555 1_555
C4 C5 1_555 1_555
C20 C21 1_555 1_555
C20 N9 1_555 1_555
C22 N3 1_555 1_555
Cd4 O1 1_555 1_555
Cd4 O2 1_555 1_555
Cd7 O1 1_555 1_555
Cd7 O10 1_555 1_555
C35 C36 1_555 1_555
C36 H19 1_555 1_555
H20 C36 1_555 1_555
C37 C36 1_555 1_555
H21 C37 1_555 1_555
H22 C37 1_555 1_555
C38 C37 1_555 1_555
H23 C38 1_555 1_555
H24 C38 1_555 1_555
C39 C38 1_555 1_555
H26 C39 1_555 1_555
C40 C39 1_555 1_555
O5 C35 1_555 1_555
O6 C35 1_555 1_555
O11 C40 1_555 1_555
Cd3 O4 1_555 1_555
O4 Cd5 1_555 1_555
C35_2 C36_2 1_555 1_555
C36_2 H19_2 1_555 1_555
H20_2 C36_2 1_555 1_555
C37_2 C36_2 1_555 1_555
H21_2 C37_2 1_555 1_555
H22_2 C37_2 1_555 1_555
C38_2 C37_2 1_555 1_555
H23_2 C38_2 1_555 1_555
H24_2 C38_2 1_555 1_555
C39_2 C38_2 1_555 1_555
H26_2 C39_2 1_555 1_555
C40_2 C39_2 1_555 1_555
O5_2 C35_2 1_555 1_555
O6_2 C35_2 1_555 1_555
O7 C40_2 1_555 1_555
Cd5 O7 1_555 1_555
C1_2 H1_2 1_555 1_555
C3_2 C2_2 1_555 1_555
C4_2 C3_2 1_555 1_555
C5_2 C1_2 1_555 1_555
C18_2 H10_2 1_555 1_555
C19_2 H11_2 1_555 1_555
C20_2 C18_2 1_555 1_555
C21_2 C19_2 1_555 1_555
C22_2 C19_2 1_555 1_555
H12_2 C22_2 1_555 1_555
C41_2 C42_2 1_555 1_555
C42_2 H27_2 1_555 1_555
H28_2 C42_2 1_555 1_555
C43_2 C42_2 1_555 1_555
H29_2 C43_2 1_555 1_555
H30_2 C43_2 1_555 1_555
C44_2 C43_2 1_555 1_555
H31_2 C44_2 1_555 1_555
H32_2 C44_2 1_555 1_555
C45_2 C44_2 1_555 1_555
H33_2 C45_2 1_555 1_555
H34_2 C45_2 1_555 1_555
C46_2 C45_2 1_555 1_555
Cd3 N3_2 1_555 1_555
Cd5 N1_2 1_555 1_555
N1_2 C1_2 1_555 1_555
N3_2 C18_2 1_555 1_555
N5_2 C5_2 1_555 1_555
H37_2 N9_2 1_555 1_555
O1_2 C41_2 1_555 1_555
O2_2 C41_2 1_555 1_555
O3 C46_2 1_555 1_555
N15 Cd5 1_555 1_555
N16 Cd3 1_555 1_555
C2_2 N1_2 1_555 1_555
C4_2 C5_2 1_555 1_555
C20_2 C21_2 1_555 1_555
C20_2 N9_2 1_555 1_555
C22_2 N3_2 1_555 1_555
Cd3 O1_2 1_555 1_555
Cd3 O2_2 1_555 1_555
Cd5 O1_2 1_555 1_555
C6_2 C7_2 1_555 1_555
C7_2 H4_2 1_555 1_555
C8_2 H5_2 1_555 1_555
C9_2 C8_2 1_555 1_555
C10_2 C6_2 1_555 1_555
H6_2 C10_2 1_555 1_555
C11_2 H7_2 1_555 1_555
C12_2 C11_2 1_555 1_555
C13_2 C12_2 1_555 1_555
H8_2 C13_2 1_555 1_555
C14_2 C13_2 1_555 1_555
C15_2 C14_2 1_555 1_555
H9_2 C15_2 1_555 1_555
C16_2 C14_2 1_555 1_555
C17_2 C6_2 1_555 1_555
C23_2 H13_2 1_555 1_555
C24_2 C23_2 1_555 1_555
C25_2 C9_2 1_555 1_555
C26_2 C24_2 1_555 1_555
C27_2 C26_2 1_555 1_555
C28_2 C27_2 1_555 1_555
C29_2 C12_2 1_555 1_555
C30_2 C31_2 1_555 1_555
C31_2 C32_2 1_555 1_555
C32_2 H16_2 1_555 1_555
C33_2 H17_2 1_555 1_555
C34_2 C30_2 1_555 1_555
H18_2 C34_2 1_555 1_555
N15 C23_2 1_555 1_555
N16 C32_2 1_555 1_555
H35_2 N6_2 1_555 1_555
N7_2 C24_2 1_555 1_555
N8_2 C25_2 1_555 1_555
H36_2 N8_2 1_555 1_555
N10_2 C16_2 1_555 1_555
N11_2 C29_2 1_555 1_555
H38_2 N11_2 1_555 1_555
N12_2 C29_2 1_555 1_555
N13_2 C7_2 1_555 1_555
N14_2 C11_2 1_555 1_555
C8_2 N13_2 1_555 1_555
C9_2 C10_2 1_555 1_555
C15_2 N14_2 1_555 1_555
C17_2 N6_2 1_555 1_555
C25_2 N7_2 1_555 1_555
C26_2 N8_2 1_555 1_555
C28_2 N15 1_555 1_555
C30_2 N12_2 1_555 1_555
C31_2 N11_2 1_555 1_555
C33_2 C34_2 1_555 1_555
C33_2 N16 1_555 1_555

#END
