
###############################################################################
#
# This file contains modified crystal structure data generated from the
# MOF subset of the Cambridge Structural Database (CSD) v543 
# hosted by the Cambridge Crystallographic Data Centre (CCDC).
#
# This work is licensed under the Creative Commons
# Attribution-NonCommercial-ShareAlike 4.0 International License.
# To view a copy of this license, visit
# http://creativecommons.org/licenses/by-nc-sa/4.0/
# or send a letter to
# Creative Commons, PO Box 1866, Mountain View, CA 94042, USA.
#
# CIF created using the CSD Python API on 29 September 2022
# The structure has been converted into the P1 space group
# The structure has a 3D framework
# The original CSD entry COWMUX is in the monoclinic crystal system
# The framework has been calculated to contain at least 10.0% void space
# The void calculation uses a probe of radius 1.32A, grid spacing 0.4
# H atom positions have been added when not included in the experimental data
#
###############################################################################

data_COWMUX
_chemical_formula_moiety         '(C48 H72 N4 O28 Tm4)n'
_symmetry_cell_setting           triclinic
_symmetry_space_group_name_H-M   'P 1'
_symmetry_Int_Tables_number      1
_space_group_name_Hall           'P 1'
loop_
_symmetry_equiv_pos_site_id
_symmetry_equiv_pos_as_xyz
1 x,y,z
_cell_length_a                   9.5430(12)
_cell_length_b                   13.8215(17)
_cell_length_c                   15.2993(19)
_cell_angle_alpha                90
_cell_angle_beta                 93.388(2)
_cell_angle_gamma                90
_cell_volume                     2014.43
loop_
_atom_site_label
_atom_site_type_symbol
_atom_site_fract_x
_atom_site_fract_y
_atom_site_fract_z
C1 C 0.1062(13) 0.1272(11) 0.2052(10)
H1 H 0.1076 0.0916 0.2599
H2 H 0.1931 0.1635 0.2037
C2 C 0.0936(13) 0.0565(10) 0.1277(9)
H3 H 0.0931 0.0970 0.0751
O2 O 0.3406(9) 0.0284(7) 0.1347(6)
O4 O 0.0794(11) 0.3369(8) 0.2699(7)
Tm2 Tm 0.04323(6) 0.38863(4) 0.41444(4)
O12 O 0.6058(9) 0.0385(7) 0.0472(6)
Tm1 Tm 0.45677(6) 0.88863(4) 0.08556(4)
C7 C 0.2189(12) 0.9915(11) 0.1228(8)
O3 O 0.2064(9) 0.9047(7) 0.1014(7)
O8 O 0.3497(12) 0.7513(9) 0.0182(8)
O9 O 0.4206(11) 0.8369(8) 0.2301(7)
O10 O 0.5669(12) 0.7528(8) 0.1563(7)
O11 O 0.6623(10) 0.9564(8) 0.1638(7)
H17 H 0.717465 0.867291 0.00728234
C10 C 0.401(2) 0.6844(16) 0.9820(15)
H10 H 0.4982 0.6830 0.9824
C11 C 0.184(3) 0.609(2) 0.936(3)
H11 H 0.1466 0.6629 0.9662
H12 H 0.1547 0.5497 0.9631
H13 H 0.1509 0.6095 0.8760
C12 C 0.400(4) 0.535(2) 0.899(3)
H14 H 0.5005 0.5427 0.9051
H15 H 0.3699 0.5346 0.8384
H16 H 0.3747 0.4750 0.9256
O1 O 0.6261(10) 0.8359(8) 0.9908(7)
N1 N 0.335(2) 0.6137(14) 0.9423(11)
O13 O 0.3942(9) 0.9615(7) 0.9528(6)
H18 H 0.636479 0.764567 0.995425
C3 C 0.9532(12) 0.0041(10) 0.1223(9)
C4 C 0.8314(13) 0.0735(11) 0.1168(10)
H6 H 0.8374 0.1119 0.0633
C5 C 0.8399(13) 0.1424(10) 0.1941(10)
H7 H 0.8308 0.1062 0.2478
H8 H 0.7630 0.1882 0.1883
C6 C 0.9798(14) 0.1972(12) 0.1993(10)
H9 H 0.9849 0.2351 0.1454
C8 C 0.6924(12) 0.0203(9) 0.1111(8)
C9 C 0.9967(14) 0.2666(10) 0.2763(9)
O5 O 0.9331(12) 0.2528(8) 0.3437(7)
Tm4 Tm 0.54323(6) 0.11137(4) 0.91444(4)
H4 H 0.9479 0.9625 0.0711
H5 H 0.9468 0.9635 0.1736
C1_2 C 0.3938(13) 0.6272(11) 0.2948(10)
H1_2 H 0.3924 0.5916 0.2401
H2_2 H 0.3069 0.6635 0.2963
C2_2 C 0.4064(13) 0.5565(10) 0.3723(9)
H3_2 H 0.4069 0.5970 0.4249
C3_2 C 0.5468(12) 0.5041(10) 0.3777(9)
H4_2 H 0.5521 0.4625 0.4289
H5_2 H 0.5532 0.4635 0.3264
C4_2 C 0.6686(13) 0.5735(11) 0.3832(10)
H6_2 H 0.6626 0.6119 0.4367
C5_2 C 0.6601(13) 0.6424(10) 0.3059(10)
H7_2 H 0.6692 0.6062 0.2522
H8_2 H 0.7370 0.6882 0.3117
C6_2 C 0.5202(14) 0.6972(12) 0.3007(10)
H9_2 H 0.5151 0.7351 0.3546
C7_2 C 0.2811(12) 0.4915(11) 0.3772(8)
C8_2 C 0.8076(12) 0.5203(9) 0.3889(8)
C9_2 C 0.5033(14) 0.7666(10) 0.2237(9)
C10_2 C 0.099(2) 0.1844(16) 0.5180(15)
H10_2 H 0.0018 0.1830 0.5176
C11_2 C 0.316(3) 0.109(2) 0.564(3)
H11_2 H 0.3534 0.1629 0.5338
H12_2 H 0.3453 0.0497 0.5369
H13_2 H 0.3491 0.1095 0.6240
C12_2 C 0.100(4) 0.035(2) 0.601(3)
H15_2 H 0.1301 0.0346 0.6616
O2_2 O 0.1594(9) 0.5284(7) 0.3653(6)
O3_2 O 0.2936(9) 0.4047(7) 0.3986(7)
O6 O 0.8377(10) 0.4564(8) 0.3362(7)
O7 O 0.8942(9) 0.5385(7) 0.4528(6)
O8_2 O 0.1503(12) 0.2513(9) 0.4818(8)
N1_2 N 0.165(2) 0.1137(14) 0.5577(11)
Tm4_2 Tm 0.95677(6) 0.61137(4) 0.58556(4)
O13_2 O 0.1058(9) 0.4615(7) 0.5472(6)
H14_2 H 0.9995 0.0427 0.5949
O1_2 O 0.8739(10) 0.3359(8) 0.5092(7)
H17_2 H 0.782535 0.367291 0.492718
H18_2 H 0.863521 0.264567 0.504575
H4_3 H 0.0521 0.0375 0.9289
H5_3 H 0.0532 0.0365 0.8264
O6_2 O 0.3377(10) 0.0436(8) 0.8362(7)
C3_3 C 0.0468(12) 0.9959(10) 0.8777(9)
C4_3 C 0.1686(13) 0.9265(11) 0.8832(10)
H6_3 H 0.1626 0.8881 0.9367
C5_3 C 0.1601(13) 0.8576(10) 0.8059(10)
H7_3 H 0.1692 0.8938 0.7522
H8_3 H 0.2370 0.8118 0.8117
C6_3 C 0.0202(14) 0.8028(12) 0.8007(10)
H9_3 H 0.0151 0.7649 0.8546
C8_3 C 0.3076(12) 0.9797(9) 0.8889(8)
C9_3 C 0.0033(14) 0.7334(10) 0.7237(9)
O5_2 O 0.0669(12) 0.7472(8) 0.6563(7)
C10_3 C 0.599(2) 0.3156(16) 0.0180(15)
H10_3 H 0.5018 0.3170 0.0176
C11_3 C 0.816(3) 0.391(2) 0.064(3)
H11_3 H 0.8534 0.3371 0.0338
H12_3 H 0.8453 0.4503 0.0369
H13_3 H 0.8491 0.3905 0.1240
C12_3 C 0.600(4) 0.465(2) 0.101(3)
H14_3 H 0.4995 0.4573 0.0949
H15_3 H 0.6301 0.4654 0.1616
H16_2 H 0.6253 0.5250 0.0744
O1_3 O 0.3739(10) 0.1641(8) 0.0092(7)
N1_3 N 0.665(2) 0.3863(14) 0.0577(11)
H18_3 H 0.363521 0.235433 0.00457501
C7_3 C 0.7811(12) 0.0085(11) 0.8772(8)
O3_3 O 0.7936(9) 0.0953(7) 0.8986(7)
O8_3 O 0.6503(12) 0.2487(9) 0.9818(8)
O9_2 O 0.5794(11) 0.1631(8) 0.7699(7)
O10_2 O 0.4331(12) 0.2472(8) 0.8437(7)
H17_3 H 0.282535 0.132709 0.992718
C1_3 C 0.8938(13) 0.8728(11) 0.7948(10)
H1_3 H 0.8924 0.9084 0.7401
H2_3 H 0.8069 0.8365 0.7963
C2_3 C 0.9064(13) 0.9435(10) 0.8723(9)
H3_3 H 0.9069 0.9030 0.9249
O2_3 O 0.6594(9) 0.9716(7) 0.8653(6)
O4_2 O 0.9206(11) 0.6631(8) 0.7301(7)
H14_4 H 0.0005 0.9573 0.4051
O1_4 O 0.1261(10) 0.6641(8) 0.4908(7)
O11_2 O 0.1623(10) 0.5436(8) 0.6638(7)
H17_4 H 0.217465 0.632709 0.507282
H18_4 H 0.136479 0.735433 0.495425
C1_4 C 0.6062(13) 0.3728(11) 0.7052(10)
H1_4 H 0.6076 0.4084 0.7599
H2_4 H 0.6931 0.3365 0.7037
C2_4 C 0.5936(13) 0.4435(10) 0.6277(9)
H3_4 H 0.5931 0.4030 0.5751
C3_4 C 0.4532(12) 0.4959(10) 0.6223(9)
H4_4 H 0.4479 0.5375 0.5711
H5_4 H 0.4468 0.5365 0.6736
C4_4 C 0.3314(13) 0.4265(11) 0.6168(10)
H6_4 H 0.3374 0.3881 0.5633
C5_4 C 0.3399(13) 0.3576(10) 0.6941(10)
H7_4 H 0.3308 0.3938 0.7478
H8_4 H 0.2630 0.3118 0.6883
C6_4 C 0.4798(14) 0.3028(12) 0.6993(10)
H9_4 H 0.4849 0.2649 0.6454
C7_4 C 0.7189(12) 0.5085(11) 0.6228(8)
C8_4 C 0.1924(12) 0.4797(9) 0.6111(8)
C9_4 C 0.4967(14) 0.2334(10) 0.7763(9)
C10_4 C 0.901(2) 0.8156(16) 0.4820(15)
H10_4 H 0.9982 0.8170 0.4824
C11_4 C 0.684(3) 0.891(2) 0.436(3)
H11_4 H 0.6466 0.8371 0.4662
H12_4 H 0.6547 0.9503 0.4631
H13_4 H 0.6509 0.8905 0.3760
C12_4 C 0.900(4) 0.965(2) 0.399(3)
H15_4 H 0.8699 0.9654 0.3384
O2_4 O 0.8406(9) 0.4716(7) 0.6347(6)
O3_4 O 0.7064(9) 0.5953(7) 0.6014(7)
O8_4 O 0.8497(12) 0.7487(9) 0.5182(8)
N1_4 N 0.835(2) 0.8863(14) 0.4423(11)
H16_3 H 0.1253 0.9750 0.5744
H16_4 H 0.8747 0.0250 0.4256
loop_
_geom_bond_atom_site_label_1
_geom_bond_atom_site_label_2
_geom_bond_site_symmetry_1
_geom_bond_site_symmetry_2
C1 H1 1_555 1_555
H2 C1 1_555 1_555
C2 C1 1_555 1_555
H3 C2 1_555 1_555
Tm2 O4 1_555 1_555
O3 Tm1 1_555 1_555
O8 Tm1 1_555 1_555
O9 Tm1 1_555 1_555
O10 Tm1 1_555 1_555
O11 Tm1 1_555 1_555
C7 O3 1_555 1_555
C10 H10 1_555 1_555
C11 H11 1_555 1_555
H12 C11 1_555 1_555
H13 C11 1_555 1_555
C12 H14 1_555 1_555
H15 C12 1_555 1_555
H16 C12 1_555 1_555
N1 C10 1_555 1_555
C11 N1 1_555 1_555
C12 N1 1_555 1_555
O1 H18 1_555 1_555
C4 C3 1_555 1_555
H6 C4 1_555 1_555
C5 C4 1_555 1_555
H7 C5 1_555 1_555
H8 C5 1_555 1_555
H9 C6 1_555 1_555
C8 C4 1_555 1_555
C9 C6 1_555 1_555
O5 C9 1_555 1_555
O12 C8 1_555 1_555
C5 C6 1_555 1_555
C1_2 H1_2 1_555 1_555
H2_2 C1_2 1_555 1_555
C2_2 C1_2 1_555 1_555
H3_2 C2_2 1_555 1_555
C3_2 C2_2 1_555 1_555
H4_2 C3_2 1_555 1_555
H5_2 C3_2 1_555 1_555
C4_2 C3_2 1_555 1_555
H6_2 C4_2 1_555 1_555
C5_2 C4_2 1_555 1_555
H7_2 C5_2 1_555 1_555
H8_2 C5_2 1_555 1_555
C6_2 C1_2 1_555 1_555
H9_2 C6_2 1_555 1_555
C7_2 C2_2 1_555 1_555
C8_2 C4_2 1_555 1_555
C9_2 C6_2 1_555 1_555
C10_2 H10_2 1_555 1_555
C11_2 H11_2 1_555 1_555
H12_2 C11_2 1_555 1_555
H13_2 C11_2 1_555 1_555
H15_2 C12_2 1_555 1_555
O2_2 Tm2 1_555 1_555
O3_2 Tm2 1_555 1_555
O9 C9_2 1_555 1_555
O10 C9_2 1_555 1_555
O6 C8_2 1_555 1_555
O7 C8_2 1_555 1_555
O8_2 Tm2 1_555 1_555
N1_2 C10_2 1_555 1_555
Tm4_2 O7 1_555 1_555
O13_2 Tm2 1_555 1_555
C5_2 C6_2 1_555 1_555
C7_2 O2_2 1_555 1_555
C7_2 O3_2 1_555 1_555
C10_2 O8_2 1_555 1_555
C11_2 N1_2 1_555 1_555
C12_2 N1_2 1_555 1_555
O1_2 H17_2 1_555 1_555
O1_2 H18_2 1_555 1_555
Tm4 O6_2 1_555 1_555
C4_3 C3_3 1_555 1_555
H6_3 C4_3 1_555 1_555
C5_3 C4_3 1_555 1_555
H7_3 C5_3 1_555 1_555
H8_3 C5_3 1_555 1_555
H9_3 C6_3 1_555 1_555
C8_3 C4_3 1_555 1_555
C9_3 C6_3 1_555 1_555
O5_2 C9_3 1_555 1_555
O13 C8_3 1_555 1_555
C5_3 C6_3 1_555 1_555
C10_3 H10_3 1_555 1_555
C11_3 H11_3 1_555 1_555
H12_3 C11_3 1_555 1_555
H13_3 C11_3 1_555 1_555
C12_3 H14_3 1_555 1_555
H15_3 C12_3 1_555 1_555
H16_2 C12_3 1_555 1_555
N1_3 C10_3 1_555 1_555
C11_3 N1_3 1_555 1_555
C12_3 N1_3 1_555 1_555
O1_3 H18_3 1_555 1_555
O3_3 Tm4 1_555 1_555
O8_3 Tm4 1_555 1_555
O9_2 Tm4 1_555 1_555
O10_2 Tm4 1_555 1_555
C7_3 O3_3 1_555 1_555
C1_3 H1_3 1_555 1_555
H2_3 C1_3 1_555 1_555
C2_3 C1_3 1_555 1_555
H3_3 C2_3 1_555 1_555
Tm4_2 O4_2 1_555 1_555
O1_4 H17_4 1_555 1_555
O1_4 H18_4 1_555 1_555
C1_4 H1_4 1_555 1_555
H2_4 C1_4 1_555 1_555
C2_4 C1_4 1_555 1_555
H3_4 C2_4 1_555 1_555
C3_4 C2_4 1_555 1_555
H4_4 C3_4 1_555 1_555
H5_4 C3_4 1_555 1_555
C4_4 C3_4 1_555 1_555
H6_4 C4_4 1_555 1_555
C5_4 C4_4 1_555 1_555
H7_4 C5_4 1_555 1_555
H8_4 C5_4 1_555 1_555
C6_4 C1_4 1_555 1_555
H9_4 C6_4 1_555 1_555
C7_4 C2_4 1_555 1_555
C8_4 C4_4 1_555 1_555
C9_4 C6_4 1_555 1_555
C10_4 H10_4 1_555 1_555
C11_4 H11_4 1_555 1_555
H12_4 C11_4 1_555 1_555
H13_4 C11_4 1_555 1_555
H15_4 C12_4 1_555 1_555
O2_4 Tm4_2 1_555 1_555
O3_4 Tm4_2 1_555 1_555
O9_2 C9_4 1_555 1_555
O10_2 C9_4 1_555 1_555
O11_2 C8_4 1_555 1_555
O13_2 C8_4 1_555 1_555
O8_4 Tm4_2 1_555 1_555
N1_4 C10_4 1_555 1_555
C5_4 C6_4 1_555 1_555
C7_4 O2_4 1_555 1_555
C7_4 O3_4 1_555 1_555
C10_4 O8_4 1_555 1_555
C11_4 N1_4 1_555 1_555
C12_4 N1_4 1_555 1_555

#END
