
###############################################################################
#
# This file contains modified crystal structure data generated from the
# MOF subset of the Cambridge Structural Database (CSD) v543 
# hosted by the Cambridge Crystallographic Data Centre (CCDC).
#
# This work is licensed under the Creative Commons
# Attribution-NonCommercial-ShareAlike 4.0 International License.
# To view a copy of this license, visit
# http://creativecommons.org/licenses/by-nc-sa/4.0/
# or send a letter to
# Creative Commons, PO Box 1866, Mountain View, CA 94042, USA.
#
# CIF created using the CSD Python API on 29 September 2022
# The structure has been converted into the P1 space group
# The structure has a 3D framework
# The original CSD entry COWSEP is in the monoclinic crystal system
# The framework has been calculated to contain at least 10.0% void space
# The void calculation uses a probe of radius 1.32A, grid spacing 0.4
# H atom positions have been added when not included in the experimental data
#
###############################################################################

data_COWSEP
_chemical_formula_moiety         '(C144 H96 Br8 Cd8 N24 O32)n'
_symmetry_cell_setting           triclinic
_symmetry_space_group_name_H-M   'P 1'
_symmetry_Int_Tables_number      1
_space_group_name_Hall           'P 1'
loop_
_symmetry_equiv_pos_site_id
_symmetry_equiv_pos_as_xyz
1 x,y,z
_cell_length_a                   15.661(4)
_cell_length_b                   13.297(3)
_cell_length_c                   23.290(5)
_cell_angle_alpha                90
_cell_angle_beta                 108.660(3)
_cell_angle_gamma                90
_cell_volume                     4595.06
loop_
_atom_site_label
_atom_site_type_symbol
_atom_site_fract_x
_atom_site_fract_y
_atom_site_fract_z
Cd1 Cd 0.15164(2) 0.25771(2) 0.03554(2)
O3 O 0.0265(3) 0.2296(3) 0.07438(18)
O4 O 0.0302(2) 0.3699(3) 0.02586(19)
O5 O 0.2897(2) 0.1362(3) 0.02093(16)
O7 O 0.1971(2) 0.0976(2) 0.07119(15)
N4 N 0.2458(3) 0.3306(3) 0.12202(18)
N1 N 0.0680(2) 0.1836(3) 0.94555(16)
C5 C 0.0448(3) 0.2340(4) 0.8928(2)
C13 C 0.0366(3) 0.0895(4) 0.9449(2)
H7 H 0.0524 0.0541 0.9812
O6 O 0.2103(2) 0.3638(3) 0.97907(16)
H12 H 0.0694307 0.310433 0.892112
Br1 Br 0.70087(5) 0.19943(5) 0.10718(4)
O1 O 0.7897(2) 0.6362(3) 0.02093(16)
C1 C 0.7572(3) 0.5751(3) 0.0495(2)
O2 O 0.6971(2) 0.5976(2) 0.07119(15)
C2 C 0.7914(3) 0.4684(3) 0.0572(2)
C3 C 0.7403(3) 0.3956(4) 0.0745(2)
H1 H 0.6858 0.4131 0.0797
C4 C 0.8712(3) 0.4409(4) 0.0474(2)
H2 H 0.9037 0.4881 0.0333
C7 C 0.9926(3) 0.3127(4) 0.0522(2)
C9 C 0.8528(4) 0.2708(4) 0.0766(3)
H4 H 0.8738 0.2051 0.0839
C10 C 0.9026(3) 0.3419(4) 0.0586(2)
C12 C 0.7708(4) 0.2973(4) 0.0839(3)
Cd2 Cd 0.65164(2) 0.75771(2) 0.03554(2)
N2 N 0.7458(3) 0.1694(3) 0.62202(18)
C6 C 0.9909(3) 0.1919(4) 0.8397(2)
H3 H 0.9766 0.2287 0.8039
C8 C 0.9576(3) 0.0953(4) 0.8390(2)
C11 C 0.9829(3) 0.0429(4) 0.8940(2)
N3 N 0.9062(3) 0.0456(4) 0.78637(18)
C14 C 0.8545(3) 0.0900(4) 0.7323(2)
C15 C 0.7797(4) 0.0763(4) 0.6258(2)
H8 H 0.7670 0.0382 0.5905
C16 C 0.8326(4) 0.0341(4) 0.6796(2)
C17 C 0.8166(4) 0.1837(4) 0.7294(2)
H10 H 0.8259 0.2213 0.7645
C18 C 0.7645(4) 0.2223(4) 0.6738(3)
H11 H 0.7416 0.2871 0.6724
Cd3 Cd 0.84836(2) 0.74229(2) 0.96446(2)
Cd4 Cd 0.65164(2) 0.24229(2) 0.53554(2)
Br1_2 Br 0.29913(5) 0.19943(5) 0.39282(4)
O1_2 O 0.2103(2) 0.6362(3) 0.47907(16)
C1_2 C 0.2428(3) 0.5751(3) 0.4505(2)
O2_2 O 0.3029(2) 0.5976(2) 0.42881(15)
C2_2 C 0.2086(3) 0.4684(3) 0.4428(2)
C3_2 C 0.2597(3) 0.3956(4) 0.4255(2)
H1_2 H 0.3142 0.4131 0.4203
N2_2 N 0.2542(3) 0.1694(3) 0.87798(18)
C4_2 C 0.1288(3) 0.4409(4) 0.4526(2)
H2_2 H 0.0963 0.4881 0.4667
C6_2 C 0.0091(3) 0.1919(4) 0.6603(2)
H3_2 H 0.0234 0.2287 0.6961
C7_2 C 0.0074(3) 0.3127(4) 0.4478(2)
C8_2 C 0.0424(3) 0.0953(4) 0.6610(2)
C9_2 C 0.1472(4) 0.2708(4) 0.4234(3)
H4_2 H 0.1262 0.2051 0.4161
C10_2 C 0.0974(3) 0.3419(4) 0.4414(2)
C11_2 C 0.0171(3) 0.0429(4) 0.6060(2)
N3_2 N 0.0938(3) 0.0456(4) 0.71363(18)
C12_2 C 0.2292(4) 0.2973(4) 0.4161(3)
C14_2 C 0.1455(3) 0.0900(4) 0.7677(2)
C15_2 C 0.2203(4) 0.0763(4) 0.8742(2)
H8_2 H 0.2330 0.0382 0.9095
C16_2 C 0.1674(4) 0.0341(4) 0.8204(2)
C17_2 C 0.1834(4) 0.1837(4) 0.7706(2)
H10_2 H 0.1741 0.2213 0.7355
C18_2 C 0.2355(4) 0.2223(4) 0.8262(3)
H11_2 H 0.2584 0.2871 0.8276
Cd2_2 Cd 0.34836(2) 0.75771(2) 0.46446(2)
Cd3_2 Cd 0.15164(2) 0.74229(2) 0.53554(2)
Cd4_2 Cd 0.34836(2) 0.24229(2) 0.96446(2)
Cd1_2 Cd 0.84836(2) 0.25771(2) 0.46446(2)
N1_2 N 0.9320(2) 0.1836(3) 0.55445(16)
O3_2 O 0.9735(3) 0.2296(3) 0.42562(18)
O4_2 O 0.9698(2) 0.3699(3) 0.47414(19)
C5_2 C 0.9552(3) 0.2340(4) 0.6072(2)
C13_2 C 0.9634(3) 0.0895(4) 0.5551(2)
H7_2 H 0.9476 0.0541 0.5188
O5_2 O 0.7103(2) 0.1362(3) 0.47907(16)
O6_2 O 0.7897(2) 0.3638(3) 0.52093(16)
O7_2 O 0.8029(2) 0.0976(2) 0.42881(15)
N4_2 N 0.7542(3) 0.3306(3) 0.37798(18)
H12_2 H 0.930569 0.310433 0.607888
C1_3 C 0.2572(3) 0.0751(3) 0.0495(2)
Br1_3 Br 0.20087(5) 0.69943(5) 0.10718(4)
C2_3 C 0.2914(3) 0.9684(3) 0.0572(2)
C3_3 C 0.2403(3) 0.8956(4) 0.0745(2)
H1_3 H 0.1858 0.9131 0.0797
C4_3 C 0.3712(3) 0.9409(4) 0.0474(2)
H2_3 H 0.4037 0.9881 0.0333
O3_3 O 0.5265(3) 0.7296(3) 0.07438(18)
O4_3 O 0.5302(2) 0.8699(3) 0.02586(19)
C7_3 C 0.4926(3) 0.8127(4) 0.0522(2)
C9_3 C 0.3528(4) 0.7708(4) 0.0766(3)
H4_3 H 0.3738 0.7051 0.0839
C10_3 C 0.4026(3) 0.8419(4) 0.0586(2)
C12_3 C 0.2708(4) 0.7973(4) 0.0839(3)
N4_3 N 0.7458(3) 0.8306(3) 0.12202(18)
N1_3 N 0.5680(2) 0.6836(3) 0.94555(16)
N2_3 N 0.2458(3) 0.6694(3) 0.62202(18)
C5_3 C 0.5448(3) 0.7340(4) 0.8928(2)
C6_3 C 0.4909(3) 0.6919(4) 0.8397(2)
H3_3 H 0.4766 0.7287 0.8039
C8_3 C 0.4576(3) 0.5953(4) 0.8390(2)
C11_3 C 0.4829(3) 0.5429(4) 0.8940(2)
H5 H 0.4634 0.4772 0.8958
N3_3 N 0.4062(3) 0.5456(4) 0.78637(18)
H6 H 0.4066 0.4810 0.7875
C13_3 C 0.5366(3) 0.5895(4) 0.9449(2)
H7_3 H 0.5524 0.5541 0.9812
C14_3 C 0.3545(3) 0.5900(4) 0.7323(2)
C15_3 C 0.2797(4) 0.5763(4) 0.6258(2)
H8_3 H 0.2670 0.5382 0.5905
C16_3 C 0.3326(4) 0.5341(4) 0.6796(2)
H9 H 0.3533 0.4684 0.6803
C17_3 C 0.3166(4) 0.6837(4) 0.7294(2)
H10_3 H 0.3259 0.7213 0.7645
C18_3 C 0.2645(4) 0.7223(4) 0.6738(3)
H11_3 H 0.2416 0.7871 0.6724
O6_3 O 0.7103(2) 0.8638(3) 0.97907(16)
H12_3 H 0.569431 0.810433 0.892112
C1_4 C 0.7428(3) 0.0751(3) 0.4505(2)
Br1_4 Br 0.79913(5) 0.69943(5) 0.39282(4)
N1_4 N 0.4320(2) 0.6836(3) 0.55445(16)
C2_4 C 0.7086(3) 0.9684(3) 0.4428(2)
C3_4 C 0.7597(3) 0.8956(4) 0.4255(2)
H1_4 H 0.8142 0.9131 0.4203
N2_4 N 0.7542(3) 0.6694(3) 0.87798(18)
C4_4 C 0.6288(3) 0.9409(4) 0.4526(2)
H2_4 H 0.5963 0.9881 0.4667
O3_4 O 0.4735(3) 0.7296(3) 0.42562(18)
O4_4 O 0.4698(2) 0.8699(3) 0.47414(19)
C5_4 C 0.4552(3) 0.7340(4) 0.6072(2)
C6_4 C 0.5091(3) 0.6919(4) 0.6603(2)
H3_4 H 0.5234 0.7287 0.6961
C7_4 C 0.5074(3) 0.8127(4) 0.4478(2)
C8_4 C 0.5424(3) 0.5953(4) 0.6610(2)
C9_4 C 0.6472(4) 0.7708(4) 0.4234(3)
H4_4 H 0.6262 0.7051 0.4161
C10_4 C 0.5974(3) 0.8419(4) 0.4414(2)
C11_4 C 0.5171(3) 0.5429(4) 0.6060(2)
H5_2 H 0.5366 0.4772 0.6042
N3_4 N 0.5938(3) 0.5456(4) 0.71363(18)
H6_2 H 0.5934 0.4810 0.7125
C12_4 C 0.7292(4) 0.7973(4) 0.4161(3)
C13_4 C 0.4634(3) 0.5895(4) 0.5551(2)
H7_4 H 0.4476 0.5541 0.5188
C14_4 C 0.6455(3) 0.5900(4) 0.7677(2)
C15_4 C 0.7203(4) 0.5763(4) 0.8742(2)
H8_4 H 0.7330 0.5382 0.9095
C16_4 C 0.6674(4) 0.5341(4) 0.8204(2)
H9_2 H 0.6467 0.4684 0.8197
C17_4 C 0.6834(4) 0.6837(4) 0.7706(2)
H10_4 H 0.6741 0.7213 0.7355
C18_4 C 0.7355(4) 0.7223(4) 0.8262(3)
H11_4 H 0.7584 0.7871 0.8276
O6_4 O 0.2897(2) 0.8638(3) 0.52093(16)
N4_4 N 0.2542(3) 0.8306(3) 0.37798(18)
H12_4 H 0.430569 0.810433 0.607888
C6_5 C 0.0091(3) 0.8081(4) 0.1603(2)
H3_5 H 0.0234 0.7713 0.1961
C8_5 C 0.0424(3) 0.9047(4) 0.1610(2)
C11_5 C 0.0171(3) 0.9571(4) 0.1060(2)
N3_5 N 0.0938(3) 0.9544(4) 0.21363(18)
C14_5 C 0.1455(3) 0.9100(4) 0.2677(2)
C15_5 C 0.2203(4) 0.9237(4) 0.3742(2)
H8_5 H 0.2330 0.9618 0.4095
C16_5 C 0.1674(4) 0.9659(4) 0.3204(2)
C17_5 C 0.1834(4) 0.8163(4) 0.2706(2)
H10_5 H 0.1741 0.7787 0.2355
C18_5 C 0.2355(4) 0.7777(4) 0.3262(3)
H11_5 H 0.2584 0.7129 0.3276
Br1_5 Br 0.29913(5) 0.80057(5) 0.89282(4)
C1_5 C 0.2428(3) 0.4249(3) 0.9505(2)
O2_3 O 0.3029(2) 0.4024(2) 0.92881(15)
C2_5 C 0.2086(3) 0.5316(3) 0.9428(2)
C3_5 C 0.2597(3) 0.6044(4) 0.9255(2)
H1_5 H 0.3142 0.5869 0.9203
C4_5 C 0.1288(3) 0.5591(4) 0.9526(2)
H2_5 H 0.0963 0.5119 0.9667
C7_5 C 0.0074(3) 0.6873(4) 0.9478(2)
C9_5 C 0.1472(4) 0.7292(4) 0.9234(3)
H4_5 H 0.1262 0.7949 0.9161
C10_5 C 0.0974(3) 0.6581(4) 0.9414(2)
C12_5 C 0.2292(4) 0.7027(4) 0.9161(3)
N1_5 N 0.9320(2) 0.8164(3) 0.05445(16)
C5_5 C 0.9552(3) 0.7660(4) 0.1072(2)
C13_5 C 0.9634(3) 0.9105(4) 0.0551(2)
H7_5 H 0.9476 0.9459 0.0188
H12_5 H 0.930569 0.689567 0.107888
O3_5 O 0.9735(3) 0.7704(3) 0.92562(18)
O4_5 O 0.9698(2) 0.6301(3) 0.97414(19)
O7_3 O 0.8029(2) 0.9024(2) 0.92881(15)
N1_6 N 0.0680(2) 0.8164(3) 0.44555(16)
O3_6 O 0.0265(3) 0.7704(3) 0.57438(18)
O4_6 O 0.0302(2) 0.6301(3) 0.52586(19)
C5_6 C 0.0448(3) 0.7660(4) 0.3928(2)
C13_6 C 0.0366(3) 0.9105(4) 0.4449(2)
H7_6 H 0.0524 0.9459 0.4812
O7_4 O 0.1971(2) 0.9024(2) 0.57119(15)
H12_6 H 0.0694307 0.689567 0.392112
Br1_6 Br 0.70087(5) 0.80057(5) 0.60718(4)
C1_6 C 0.7572(3) 0.4249(3) 0.5495(2)
O2_4 O 0.6971(2) 0.4024(2) 0.57119(15)
C2_6 C 0.7914(3) 0.5316(3) 0.5572(2)
C3_6 C 0.7403(3) 0.6044(4) 0.5745(2)
H1_6 H 0.6858 0.5869 0.5797
C4_6 C 0.8712(3) 0.5591(4) 0.5474(2)
H2_6 H 0.9037 0.5119 0.5333
C6_6 C 0.9909(3) 0.8081(4) 0.3397(2)
H3_6 H 0.9766 0.7713 0.3039
C7_6 C 0.9926(3) 0.6873(4) 0.5522(2)
C8_6 C 0.9576(3) 0.9047(4) 0.3390(2)
C9_6 C 0.8528(4) 0.7292(4) 0.5766(3)
H4_6 H 0.8738 0.7949 0.5839
C10_6 C 0.9026(3) 0.6581(4) 0.5586(2)
C11_6 C 0.9829(3) 0.9571(4) 0.3940(2)
N3_6 N 0.9062(3) 0.9544(4) 0.28637(18)
C12_6 C 0.7708(4) 0.7027(4) 0.5839(3)
C14_6 C 0.8545(3) 0.9100(4) 0.2323(2)
C15_6 C 0.7797(4) 0.9237(4) 0.1258(2)
H8_6 H 0.7670 0.9618 0.0905
C16_6 C 0.8326(4) 0.9659(4) 0.1796(2)
C17_6 C 0.8166(4) 0.8163(4) 0.2294(2)
H10_6 H 0.8259 0.7787 0.2645
C18_6 C 0.7645(4) 0.7777(4) 0.1738(3)
H11_6 H 0.7416 0.7129 0.1724
N1_7 N 0.4320(2) 0.3164(3) 0.05445(16)
C5_7 C 0.4552(3) 0.2660(4) 0.1072(2)
C6_7 C 0.5091(3) 0.3081(4) 0.1603(2)
H3_7 H 0.5234 0.2713 0.1961
C8_7 C 0.5424(3) 0.4047(4) 0.1610(2)
C11_7 C 0.5171(3) 0.4571(4) 0.1060(2)
H5_3 H 0.5366 0.5228 0.1042
N3_7 N 0.5938(3) 0.4544(4) 0.21363(18)
H6_3 H 0.5934 0.5190 0.2125
C13_7 C 0.4634(3) 0.4105(4) 0.0551(2)
H7_7 H 0.4476 0.4459 0.0188
C14_7 C 0.6455(3) 0.4100(4) 0.2677(2)
C15_7 C 0.7203(4) 0.4237(4) 0.3742(2)
H8_7 H 0.7330 0.4618 0.4095
C16_7 C 0.6674(4) 0.4659(4) 0.3204(2)
H9_3 H 0.6467 0.5316 0.3197
C17_7 C 0.6834(4) 0.3163(4) 0.2706(2)
H10_7 H 0.6741 0.2787 0.2355
C18_7 C 0.7355(4) 0.2777(4) 0.3262(3)
H11_7 H 0.7584 0.2129 0.3276
H12_7 H 0.430569 0.189567 0.107888
Br1_7 Br 0.79913(5) 0.30057(5) 0.89282(4)
C2_7 C 0.7086(3) 0.0316(3) 0.9428(2)
C3_7 C 0.7597(3) 0.1044(4) 0.9255(2)
H1_7 H 0.8142 0.0869 0.9203
C4_7 C 0.6288(3) 0.0591(4) 0.9526(2)
H2_7 H 0.5963 0.0119 0.9667
O3_7 O 0.4735(3) 0.2704(3) 0.92562(18)
O4_7 O 0.4698(2) 0.1301(3) 0.97414(19)
C7_7 C 0.5074(3) 0.1873(4) 0.9478(2)
C9_7 C 0.6472(4) 0.2292(4) 0.9234(3)
H4_7 H 0.6262 0.2949 0.9161
C10_7 C 0.5974(3) 0.1581(4) 0.9414(2)
C12_7 C 0.7292(4) 0.2027(4) 0.9161(3)
C1_7 C 0.7428(3) 0.9249(3) 0.9505(2)
Br1_8 Br 0.20087(5) 0.30057(5) 0.60718(4)
N1_8 N 0.5680(2) 0.3164(3) 0.44555(16)
C2_8 C 0.2914(3) 0.0316(3) 0.5572(2)
C3_8 C 0.2403(3) 0.1044(4) 0.5745(2)
H1_8 H 0.1858 0.0869 0.5797
C4_8 C 0.3712(3) 0.0591(4) 0.5474(2)
H2_8 H 0.4037 0.0119 0.5333
O3_8 O 0.5265(3) 0.2704(3) 0.57438(18)
O4_8 O 0.5302(2) 0.1301(3) 0.52586(19)
C5_8 C 0.5448(3) 0.2660(4) 0.3928(2)
C6_8 C 0.4909(3) 0.3081(4) 0.3397(2)
H3_8 H 0.4766 0.2713 0.3039
C7_8 C 0.4926(3) 0.1873(4) 0.5522(2)
C8_8 C 0.4576(3) 0.4047(4) 0.3390(2)
C9_8 C 0.3528(4) 0.2292(4) 0.5766(3)
H4_8 H 0.3738 0.2949 0.5839
C10_8 C 0.4026(3) 0.1581(4) 0.5586(2)
C11_8 C 0.4829(3) 0.4571(4) 0.3940(2)
H5_4 H 0.4634 0.5228 0.3958
N3_8 N 0.4062(3) 0.4544(4) 0.28637(18)
H6_4 H 0.4066 0.5190 0.2875
C12_8 C 0.2708(4) 0.2027(4) 0.5839(3)
C13_8 C 0.5366(3) 0.4105(4) 0.4449(2)
H7_8 H 0.5524 0.4459 0.4812
C14_8 C 0.3545(3) 0.4100(4) 0.2323(2)
C15_8 C 0.2797(4) 0.4237(4) 0.1258(2)
H8_8 H 0.2670 0.4618 0.0905
C16_8 C 0.3326(4) 0.4659(4) 0.1796(2)
H9_4 H 0.3533 0.5316 0.1803
C17_8 C 0.3166(4) 0.3163(4) 0.2294(2)
H10_8 H 0.3259 0.2787 0.2645
C18_8 C 0.2645(4) 0.2777(4) 0.1738(3)
H11_8 H 0.2416 0.2129 0.1724
H12_8 H 0.569431 0.189567 0.392112
C1_8 C 0.2572(3) 0.9249(3) 0.5495(2)
H5_5 H 0.9634 0.9772 0.8958
H6_5 H 0.9066 0.9810 0.7875
H9_5 H 0.8533 0.9684 0.6803
H5_6 H 0.0366 0.9772 0.6042
H6_6 H 0.0934 0.9810 0.7125
H9_6 H 0.1467 0.9684 0.8197
H5_7 H 0.0366 0.0228 0.1042
H6_7 H 0.0934 0.0190 0.2125
H9_7 H 0.1467 0.0316 0.3197
H5_8 H 0.9634 0.0228 0.3958
H6_8 H 0.9066 0.0190 0.2875
H9_8 H 0.8533 0.0316 0.1803
loop_
_geom_bond_atom_site_label_1
_geom_bond_atom_site_label_2
_geom_bond_site_symmetry_1
_geom_bond_site_symmetry_2
O3 Cd1 1_555 1_555
O4 Cd1 1_555 1_555
O5 Cd1 1_555 1_555
O7 Cd1 1_555 1_555
N4 Cd1 1_555 1_555
N1 C5 1_555 1_555
C13 N1 1_555 1_555
H7 C13 1_555 1_555
C5 H12 1_555 1_555
Br1 C12 1_555 1_555
O1 C1 1_555 1_555
C1 O2 1_555 1_555
O2 Cd2 1_555 1_555
C2 C1 1_555 1_555
C3 C2 1_555 1_555
H1 C3 1_555 1_555
C4 C2 1_555 1_555
H2 C4 1_555 1_555
C9 H4 1_555 1_555
C10 C4 1_555 1_555
C12 C3 1_555 1_555
Cd2 O1 1_555 1_555
C7 C10 1_555 1_555
C9 C10 1_555 1_555
C9 C12 1_555 1_555
N2 C15 1_555 1_555
C6 H3 1_555 1_555
C8 C6 1_555 1_555
C11 C8 1_555 1_555
N3 C8 1_555 1_555
C14 N3 1_555 1_555
C15 H8 1_555 1_555
C16 C14 1_555 1_555
C17 C14 1_555 1_555
H10 C17 1_555 1_555
C18 N2 1_555 1_555
H11 C18 1_555 1_555
Cd4 N2 1_555 1_555
C15 C16 1_555 1_555
C17 C18 1_555 1_555
Br1_2 C12_2 1_555 1_555
O1_2 C1_2 1_555 1_555
C1_2 O2_2 1_555 1_555
O2_2 Cd2_2 1_555 1_555
C2_2 C1_2 1_555 1_555
C3_2 C2_2 1_555 1_555
H1_2 C3_2 1_555 1_555
N2_2 C15_2 1_555 1_555
C4_2 C2_2 1_555 1_555
H2_2 C4_2 1_555 1_555
C6_2 H3_2 1_555 1_555
C8_2 C6_2 1_555 1_555
C9_2 H4_2 1_555 1_555
C10_2 C4_2 1_555 1_555
C11_2 C8_2 1_555 1_555
N3_2 C8_2 1_555 1_555
C12_2 C3_2 1_555 1_555
C14_2 N3_2 1_555 1_555
C15_2 H8_2 1_555 1_555
C16_2 C14_2 1_555 1_555
C17_2 C14_2 1_555 1_555
H10_2 C17_2 1_555 1_555
C18_2 N2_2 1_555 1_555
H11_2 C18_2 1_555 1_555
Cd2_2 O1_2 1_555 1_555
Cd3_2 O1_2 1_555 1_555
Cd4_2 N2_2 1_555 1_555
C7_2 C10_2 1_555 1_555
C9_2 C10_2 1_555 1_555
C9_2 C12_2 1_555 1_555
C15_2 C16_2 1_555 1_555
C17_2 C18_2 1_555 1_555
Cd1_2 N1_2 1_555 1_555
N1_2 C5_2 1_555 1_555
O3_2 Cd1_2 1_555 1_555
O4_2 Cd1_2 1_555 1_555
C13_2 N1_2 1_555 1_555
H7_2 C13_2 1_555 1_555
O5_2 Cd1_2 1_555 1_555
O6_2 Cd1_2 1_555 1_555
O7_2 Cd1_2 1_555 1_555
N4_2 Cd1_2 1_555 1_555
C5_2 H12_2 1_555 1_555
O5 C1_3 1_555 1_555
C1_3 O7 1_555 1_555
Br1_3 C12_3 1_555 1_555
C3_3 C2_3 1_555 1_555
H1_3 C3_3 1_555 1_555
C4_3 C2_3 1_555 1_555
H2_3 C4_3 1_555 1_555
O3_3 Cd2 1_555 1_555
O4_3 Cd2 1_555 1_555
C7_3 O3_3 1_555 1_555
C9_3 H4_3 1_555 1_555
C10_3 C4_3 1_555 1_555
C12_3 C3_3 1_555 1_555
N4_3 Cd2 1_555 1_555
O4_3 C7_3 1_555 1_555
C7_3 C10_3 1_555 1_555
C9_3 C10_3 1_555 1_555
C9_3 C12_3 1_555 1_555
N1_3 C5_3 1_555 1_555
N2_3 C15_3 1_555 1_555
C5_3 C6_3 1_555 1_555
C6_3 H3_3 1_555 1_555
C8_3 C6_3 1_555 1_555
C11_3 C8_3 1_555 1_555
H5 C11_3 1_555 1_555
N3_3 C8_3 1_555 1_555
H6 N3_3 1_555 1_555
C13_3 N1_3 1_555 1_555
H7_3 C13_3 1_555 1_555
C14_3 N3_3 1_555 1_555
C15_3 H8_3 1_555 1_555
C16_3 C14_3 1_555 1_555
H9 C16_3 1_555 1_555
C17_3 C14_3 1_555 1_555
H10_3 C17_3 1_555 1_555
C18_3 N2_3 1_555 1_555
H11_3 C18_3 1_555 1_555
Cd3_2 N2_3 1_555 1_555
C11_3 C13_3 1_555 1_555
C15_3 C16_3 1_555 1_555
C17_3 C18_3 1_555 1_555
C5_3 H12_3 1_555 1_555
O5_2 C1_4 1_555 1_555
C1_4 O7_2 1_555 1_555
Cd4 O5_2 1_555 1_555
Cd2_2 N1_4 1_555 1_555
Br1_4 C12_4 1_555 1_555
N1_4 C5_4 1_555 1_555
C3_4 C2_4 1_555 1_555
H1_4 C3_4 1_555 1_555
N2_4 C15_4 1_555 1_555
C4_4 C2_4 1_555 1_555
H2_4 C4_4 1_555 1_555
O3_4 Cd2_2 1_555 1_555
O4_4 Cd2_2 1_555 1_555
C5_4 C6_4 1_555 1_555
C6_4 H3_4 1_555 1_555
C7_4 O3_4 1_555 1_555
C8_4 C6_4 1_555 1_555
C9_4 H4_4 1_555 1_555
C10_4 C4_4 1_555 1_555
C11_4 C8_4 1_555 1_555
H5_2 C11_4 1_555 1_555
N3_4 C8_4 1_555 1_555
H6_2 N3_4 1_555 1_555
C12_4 C3_4 1_555 1_555
C13_4 N1_4 1_555 1_555
H7_4 C13_4 1_555 1_555
C14_4 N3_4 1_555 1_555
C15_4 H8_4 1_555 1_555
C16_4 C14_4 1_555 1_555
H9_2 C16_4 1_555 1_555
C17_4 C14_4 1_555 1_555
H10_4 C17_4 1_555 1_555
C18_4 N2_4 1_555 1_555
H11_4 C18_4 1_555 1_555
Cd3 N2_4 1_555 1_555
O6_4 Cd2_2 1_555 1_555
N4_4 Cd2_2 1_555 1_555
O4_4 C7_4 1_555 1_555
C7_4 C10_4 1_555 1_555
C9_4 C10_4 1_555 1_555
C9_4 C12_4 1_555 1_555
C11_4 C13_4 1_555 1_555
C15_4 C16_4 1_555 1_555
C17_4 C18_4 1_555 1_555
C5_4 H12_4 1_555 1_555
N4_4 C15_5 1_555 1_555
C6_5 H3_5 1_555 1_555
C8_5 C6_5 1_555 1_555
C11_5 C8_5 1_555 1_555
N3_5 C8_5 1_555 1_555
C14_5 N3_5 1_555 1_555
C15_5 H8_5 1_555 1_555
C16_5 C14_5 1_555 1_555
C17_5 C14_5 1_555 1_555
H10_5 C17_5 1_555 1_555
C18_5 N4_4 1_555 1_555
H11_5 C18_5 1_555 1_555
C15_5 C16_5 1_555 1_555
C17_5 C18_5 1_555 1_555
Br1_5 C12_5 1_555 1_555
O6 C1_5 1_555 1_555
C1_5 O2_3 1_555 1_555
O2_3 Cd4_2 1_555 1_555
C2_5 C1_5 1_555 1_555
C3_5 C2_5 1_555 1_555
H1_5 C3_5 1_555 1_555
C4_5 C2_5 1_555 1_555
H2_5 C4_5 1_555 1_555
C9_5 H4_5 1_555 1_555
C10_5 C4_5 1_555 1_555
C12_5 C3_5 1_555 1_555
Cd4_2 O6 1_555 1_555
C7_5 C10_5 1_555 1_555
C9_5 C10_5 1_555 1_555
C9_5 C12_5 1_555 1_555
N1_5 C5_5 1_555 1_555
C13_5 N1_5 1_555 1_555
H7_5 C13_5 1_555 1_555
C5_5 H12_5 1_555 1_555
O3_5 Cd3 1_555 1_555
O4_5 Cd3 1_555 1_555
O6_3 Cd3 1_555 1_555
O7_3 Cd3 1_555 1_555
Cd3_2 N1_6 1_555 1_555
N1_6 C5_6 1_555 1_555
O3_6 Cd3_2 1_555 1_555
O4_6 Cd3_2 1_555 1_555
C13_6 N1_6 1_555 1_555
H7_6 C13_6 1_555 1_555
O6_4 Cd3_2 1_555 1_555
O7_4 Cd3_2 1_555 1_555
C5_6 H12_6 1_555 1_555
Br1_6 C12_6 1_555 1_555
O6_2 C1_6 1_555 1_555
C1_6 O2_4 1_555 1_555
O2_4 Cd4 1_555 1_555
C2_6 C1_6 1_555 1_555
C3_6 C2_6 1_555 1_555
H1_6 C3_6 1_555 1_555
N4_3 C15_6 1_555 1_555
C4_6 C2_6 1_555 1_555
H2_6 C4_6 1_555 1_555
C6_6 H3_6 1_555 1_555
C8_6 C6_6 1_555 1_555
C9_6 H4_6 1_555 1_555
C10_6 C4_6 1_555 1_555
C11_6 C8_6 1_555 1_555
N3_6 C8_6 1_555 1_555
C12_6 C3_6 1_555 1_555
C14_6 N3_6 1_555 1_555
C15_6 H8_6 1_555 1_555
C16_6 C14_6 1_555 1_555
C17_6 C14_6 1_555 1_555
H10_6 C17_6 1_555 1_555
C18_6 N4_3 1_555 1_555
H11_6 C18_6 1_555 1_555
Cd4 O6_2 1_555 1_555
C7_6 C10_6 1_555 1_555
C9_6 C10_6 1_555 1_555
C9_6 C12_6 1_555 1_555
C15_6 C16_6 1_555 1_555
C17_6 C18_6 1_555 1_555
N1_7 C5_7 1_555 1_555
N4_2 C15_7 1_555 1_555
C5_7 C6_7 1_555 1_555
C6_7 H3_7 1_555 1_555
C8_7 C6_7 1_555 1_555
C11_7 C8_7 1_555 1_555
H5_3 C11_7 1_555 1_555
N3_7 C8_7 1_555 1_555
H6_3 N3_7 1_555 1_555
C13_7 N1_7 1_555 1_555
H7_7 C13_7 1_555 1_555
C14_7 N3_7 1_555 1_555
C15_7 H8_7 1_555 1_555
C16_7 C14_7 1_555 1_555
H9_3 C16_7 1_555 1_555
C17_7 C14_7 1_555 1_555
H10_7 C17_7 1_555 1_555
C18_7 N4_2 1_555 1_555
H11_7 C18_7 1_555 1_555
C11_7 C13_7 1_555 1_555
C15_7 C16_7 1_555 1_555
C17_7 C18_7 1_555 1_555
C5_7 H12_7 1_555 1_555
Br1_7 C12_7 1_555 1_555
C3_7 C2_7 1_555 1_555
H1_7 C3_7 1_555 1_555
C4_7 C2_7 1_555 1_555
H2_7 C4_7 1_555 1_555
O3_7 Cd4_2 1_555 1_555
O4_7 Cd4_2 1_555 1_555
C7_7 O3_7 1_555 1_555
C9_7 H4_7 1_555 1_555
C10_7 C4_7 1_555 1_555
C12_7 C3_7 1_555 1_555
O4_7 C7_7 1_555 1_555
C7_7 C10_7 1_555 1_555
C9_7 C10_7 1_555 1_555
C9_7 C12_7 1_555 1_555
O6_3 C1_7 1_555 1_555
C1_7 O7_3 1_555 1_555
Cd4 N1_8 1_555 1_555
Br1_8 C12_8 1_555 1_555
N1_8 C5_8 1_555 1_555
C3_8 C2_8 1_555 1_555
H1_8 C3_8 1_555 1_555
N4 C15_8 1_555 1_555
C4_8 C2_8 1_555 1_555
H2_8 C4_8 1_555 1_555
O3_8 Cd4 1_555 1_555
O4_8 Cd4 1_555 1_555
C5_8 C6_8 1_555 1_555
C6_8 H3_8 1_555 1_555
C7_8 O3_8 1_555 1_555
C8_8 C6_8 1_555 1_555
C9_8 H4_8 1_555 1_555
C10_8 C4_8 1_555 1_555
C11_8 C8_8 1_555 1_555
H5_4 C11_8 1_555 1_555
N3_8 C8_8 1_555 1_555
H6_4 N3_8 1_555 1_555
C12_8 C3_8 1_555 1_555
C13_8 N1_8 1_555 1_555
H7_8 C13_8 1_555 1_555
C14_8 N3_8 1_555 1_555
C15_8 H8_8 1_555 1_555
C16_8 C14_8 1_555 1_555
H9_4 C16_8 1_555 1_555
C17_8 C14_8 1_555 1_555
H10_8 C17_8 1_555 1_555
C18_8 N4 1_555 1_555
H11_8 C18_8 1_555 1_555
O4_8 C7_8 1_555 1_555
C7_8 C10_8 1_555 1_555
C9_8 C10_8 1_555 1_555
C9_8 C12_8 1_555 1_555
C11_8 C13_8 1_555 1_555
C15_8 C16_8 1_555 1_555
C17_8 C18_8 1_555 1_555
C5_8 H12_8 1_555 1_555
O6_4 C1_8 1_555 1_555
C1_8 O7_4 1_555 1_555

#END
