
###############################################################################
#
# This file contains modified crystal structure data generated from the
# MOF subset of the Cambridge Structural Database (CSD) v543 
# hosted by the Cambridge Crystallographic Data Centre (CCDC).
#
# This work is licensed under the Creative Commons
# Attribution-NonCommercial-ShareAlike 4.0 International License.
# To view a copy of this license, visit
# http://creativecommons.org/licenses/by-nc-sa/4.0/
# or send a letter to
# Creative Commons, PO Box 1866, Mountain View, CA 94042, USA.
#
# CIF created using the CSD Python API on 29 September 2022
# The structure has been converted into the P1 space group
# The structure has a 3D framework
# The original CSD entry COXQUB is in the monoclinic crystal system
# The original CSD entry COXQUB is in a Sohncke space group
# The framework has been calculated to contain at least 10.0% void space
# The void calculation uses a probe of radius 1.32A, grid spacing 0.4
#
###############################################################################

data_COXQUB
_chemical_formula_moiety         '(C80 H88 Cd8 N16 O44 S8)n'
_symmetry_cell_setting           triclinic
_symmetry_space_group_name_H-M   'P 1'
_symmetry_Int_Tables_number      1
_space_group_name_Hall           'P 1'
loop_
_symmetry_equiv_pos_site_id
_symmetry_equiv_pos_as_xyz
1 x,y,z
_cell_length_a                   24.624(1)
_cell_length_b                   9.7554(5)
_cell_length_c                   13.5956(7)
_cell_angle_alpha                90
_cell_angle_beta                 120.663(1)
_cell_angle_gamma                90
_cell_volume                     2809.26
loop_
_atom_site_label
_atom_site_type_symbol
_atom_site_fract_x
_atom_site_fract_y
_atom_site_fract_z
N4 N 0.1493(2) 0.6734(5) 0.5045(4)
C16 C 0.1399(3) 0.8081(7) 0.5032(6)
C17 C 0.0800(3) 0.8679(7) 0.4501(6)
C18 C 0.0265(3) 0.7843(6) 0.3956(5)
C19 C 0.0364(3) 0.6452(6) 0.3960(6)
C20 C 0.0979(3) 0.5925(7) 0.4507(6)
H13 H 0.1758 0.8659 0.5401
H14 H 0.0757 0.9654 0.4518
H15 H 0.0016 0.5847 0.3597
H16 H 0.1036 0.4963 0.4501
Cd6 Cd 0.24591(2) 0.57306(8) 0.60272(3)
Cd1 Cd 0.74352(2) 0.0667 0.14355(3)
O1 O 0.7276(2) 0.0259(4) 0.2949(4)
N1 N 0.6466(2) 0.1716(6) 0.0312(5)
C5 C 0.6408(3) 0.3070(7) 0.0125(6)
C15 C 0.8929(3) 0.0390(6) 0.2823(7)
H4 H 0.6780 0.3606 0.0428
H11 H 0.9889 0.0478 0.3642
H12 H 0.8880 0.1358 0.2785
O13 O 0.7860(3) 0.2813(6) 0.1946(5)
Cd3 Cd 0.74591(2) 0.07306(8) 0.60272(3)
O9 O 0.7646(3) 0.0946(6) 0.9965(5)
N2 N 0.3423(2) 0.4758(5) 0.7198(5)
C1 C 0.5938(3) 0.0970(8) 0.9854(8)
C2 C 0.5345(3) 0.1539(7) 0.9207(7)
C3 C 0.5274(3) 0.2923(7) 0.9017(5)
C4 C 0.5816(3) 0.3723(7) 0.9504(6)
C6 C 0.4626(3) 0.3552(6) 0.8389(5)
C7 C 0.4084(3) 0.2777(6) 0.7899(5)
C8 C 0.3498(3) 0.3402(7) 0.7330(6)
C9 C 0.3946(3) 0.5527(9) 0.7685(7)
C10 C 0.4548(3) 0.4988(7) 0.8289(7)
H1 H 0.5970 0.0010 0.9971
H2 H 0.4989 0.0955 0.8883
H3 H 0.5794 0.4701 0.9408
H5 H 0.4114 0.1814 0.7947
H6 H 0.3132 0.2840 0.7025
H7 H 0.3900 0.6496 0.7608
H8 H 0.4909 0.5571 0.8632
H17 H 0.7541 0.0237 0.9419
H18 H 0.7832 0.1770 0.9909
Cd2 Cd 0.75409(2) 0.57306(8) 0.39728(3)
S1 S 0.69152(7) 0.9142(2) 0.3116(1)
S2 S 0.81456(7) 0.3917(2) 0.2768(1)
O2 O 0.6242(2) 0.9306(6) 0.2338(5)
O3 O 0.7134(2) 0.7808(4) 0.2900(4)
O4 O 0.7072(2) 0.9185(5) 0.4311(4)
O5 O 0.7995(3) 0.3733(6) 0.3685(5)
O6 O 0.8827(3) 0.3916(8) 0.3292(6)
O7 O 0.7854(4) 0.5211(6) 0.2238(6)
O10 O 0.6990(3) 0.8446(6) 0.0765(5)
O11 O 0.7044(2) 0.6522(5) 0.4941(4)
N3 N 0.8405(2) 0.9626(6) 0.2381(5)
C11 C 0.8491(3) 0.8240(7) 0.2467(6)
C12 C 0.9078(3) 0.7639(6) 0.2979(6)
C13 C 0.9619(3) 0.8452(6) 0.3401(5)
C14 C 0.9535(3) 0.9881(7) 0.3335(7)
H9 H 0.8130 0.7664 0.2150
H10 H 0.9112 0.6669 0.3049
H19 H 0.6908 0.8136 0.0038
H20 H 0.6897 0.7874 0.1223
H21 H 0.7270 0.7073 0.5603
H22 H 0.6615 0.6292 0.4666
O12 O 0.7928(2) 0.4185(5) 0.5689(4)
N5 N 0.6577(2) 0.4758(5) 0.2802(5)
N6 N 0.8507(2) 0.6734(5) 0.4955(4)
O9_2 O 0.2354(3) 0.0946(6) 0.0035(5)
C1_2 C 0.4062(3) 0.0970(8) 0.0146(8)
C2_2 C 0.4655(3) 0.1539(7) 0.0793(7)
C3_2 C 0.4726(3) 0.2923(7) 0.0983(5)
C4_2 C 0.4184(3) 0.3723(7) 0.0496(6)
C6_2 C 0.5374(3) 0.3552(6) 0.1611(5)
C7_2 C 0.5916(3) 0.2777(6) 0.2101(5)
C8_2 C 0.6502(3) 0.3402(7) 0.2670(6)
C9_2 C 0.6054(3) 0.5527(9) 0.2315(7)
C10_2 C 0.5452(3) 0.4988(7) 0.1711(7)
H1_2 H 0.4030 0.0010 0.0029
H2_2 H 0.5011 0.0955 0.1117
H3_2 H 0.4206 0.4701 0.0592
H5_2 H 0.5886 0.1814 0.2053
H6_2 H 0.6868 0.2840 0.2975
H7_2 H 0.6100 0.6496 0.2392
H8_2 H 0.5091 0.5571 0.1368
H17_2 H 0.2459 0.0237 0.0581
H18_2 H 0.2168 0.1770 0.0091
Cd1_2 Cd 0.25648(2) 0.0667 0.85645(3)
O1_2 O 0.2724(2) 0.0259(4) 0.7051(4)
N1_2 N 0.3534(2) 0.1716(6) 0.9688(5)
C5_2 C 0.3592(3) 0.3070(7) 0.9875(6)
C15_2 C 0.1071(3) 0.0390(6) 0.7177(7)
H4_2 H 0.3220 0.3606 0.9572
H11_2 H 0.0111 0.0478 0.6358
H12_2 H 0.1120 0.1358 0.7215
O13_2 O 0.2140(3) 0.2813(6) 0.8054(5)
Cd3_2 Cd 0.25409(2) 0.07306(8) 0.39728(3)
S1_2 S 0.30848(7) 0.9142(2) 0.6884(1)
S2_2 S 0.18544(7) 0.3917(2) 0.7232(1)
O2_2 O 0.3758(2) 0.9306(6) 0.7662(5)
O3_2 O 0.2866(2) 0.7808(4) 0.7100(4)
O4_2 O 0.2928(2) 0.9185(5) 0.5689(4)
O5_2 O 0.2005(3) 0.3733(6) 0.6315(5)
O6_2 O 0.1173(3) 0.3916(8) 0.6708(6)
O7_2 O 0.2146(4) 0.5211(6) 0.7762(6)
O10_2 O 0.3010(3) 0.8446(6) 0.9235(5)
O11_2 O 0.2956(2) 0.6522(5) 0.5059(4)
N3_2 N 0.1595(2) 0.9626(6) 0.7619(5)
C11_2 C 0.1509(3) 0.8240(7) 0.7533(6)
C12_2 C 0.0922(3) 0.7639(6) 0.7021(6)
C13_2 C 0.0381(3) 0.8452(6) 0.6599(5)
C14_2 C 0.0465(3) 0.9881(7) 0.6665(7)
H9_2 H 0.1870 0.7664 0.7850
H10_2 H 0.0888 0.6669 0.6951
H19_2 H 0.3092 0.8136 0.9962
H20_2 H 0.3103 0.7874 0.8777
H21_2 H 0.2730 0.7073 0.4397
H22_2 H 0.3385 0.6292 0.5334
O12_2 O 0.2072(2) 0.4185(5) 0.4311(4)
C16_2 C 0.8601(3) 0.8081(7) 0.4968(6)
C17_2 C 0.9200(3) 0.8679(7) 0.5499(6)
C18_2 C 0.9735(3) 0.7843(6) 0.6044(5)
C19_2 C 0.9636(3) 0.6452(6) 0.6040(6)
C20_2 C 0.9021(3) 0.5925(7) 0.5493(6)
H13_2 H 0.8242 0.8659 0.4599
H14_2 H 0.9243 0.9654 0.5482
H15_2 H 0.9984 0.5847 0.6403
H16_2 H 0.8964 0.4963 0.5499
Cd1_3 Cd 0.24352(2) 0.5667 0.14355(3)
S1_3 S 0.19152(7) 0.4142(2) 0.3116(1)
O1_3 O 0.2276(2) 0.5259(4) 0.2949(4)
O2_3 O 0.1242(2) 0.4306(6) 0.2338(5)
O3_3 O 0.2134(2) 0.2808(4) 0.2900(4)
O7_3 O 0.2854(4) 0.0211(6) 0.2238(6)
O10_3 O 0.1990(3) 0.3446(6) 0.0765(5)
O11_3 O 0.2044(2) 0.1522(5) 0.4941(4)
N1_3 N 0.1466(2) 0.6716(6) 0.0312(5)
N3_3 N 0.3405(2) 0.4626(6) 0.2381(5)
N4_2 N 0.6493(2) 0.1734(5) 0.5045(4)
C5_3 C 0.1408(3) 0.8070(7) 0.0125(6)
C11_3 C 0.3491(3) 0.3240(7) 0.2467(6)
C12_3 C 0.4078(3) 0.2639(6) 0.2979(6)
C13_3 C 0.4619(3) 0.3452(6) 0.3401(5)
C14_3 C 0.4535(3) 0.4881(7) 0.3335(7)
C15_3 C 0.3929(3) 0.5390(6) 0.2823(7)
C16_3 C 0.6399(3) 0.3081(7) 0.5032(6)
C17_3 C 0.5800(3) 0.3679(7) 0.4501(6)
C18_3 C 0.5265(3) 0.2843(6) 0.3956(5)
C19_3 C 0.5364(3) 0.1452(6) 0.3960(6)
C20_3 C 0.5979(3) 0.0925(7) 0.4507(6)
H4_3 H 0.1780 0.8606 0.0428
H9_3 H 0.3130 0.2664 0.2150
H10_3 H 0.4112 0.1669 0.3049
H11_3 H 0.4889 0.5478 0.3642
H12_3 H 0.3880 0.6358 0.2785
H13_3 H 0.6758 0.3659 0.5401
H14_3 H 0.5757 0.4654 0.4518
H15_3 H 0.5016 0.0847 0.3597
H19_3 H 0.1908 0.3136 0.0038
H20_3 H 0.1897 0.2874 0.1223
H21_3 H 0.2270 0.2073 0.5603
H22_3 H 0.1615 0.1292 0.4666
O13_3 O 0.2860(3) 0.7813(6) 0.1946(5)
N6_2 N 0.3507(2) 0.1734(5) 0.4955(4)
S2_3 S 0.31456(7) 0.8917(2) 0.2768(1)
O5_3 O 0.2995(3) 0.8733(6) 0.3685(5)
O6_3 O 0.3827(3) 0.8916(8) 0.3292(6)
H16_3 H 0.6036 0.9963 0.4501
N5_2 N 0.1577(2) 0.9758(5) 0.2802(5)
C9_3 C 0.8946(3) 0.0527(9) 0.7685(7)
H7_3 H 0.8900 0.1496 0.7608
H8_3 H 0.9909 0.0571 0.8632
N2_2 N 0.8423(2) 0.9758(5) 0.7198(5)
C6_3 C 0.9626(3) 0.8552(6) 0.8389(5)
C7_3 C 0.9084(3) 0.7777(6) 0.7899(5)
C8_3 C 0.8498(3) 0.8402(7) 0.7330(6)
C10_3 C 0.9548(3) 0.9988(7) 0.8289(7)
H2_3 H 0.9989 0.5955 0.8883
H5_3 H 0.9114 0.6814 0.7947
H6_3 H 0.8132 0.7840 0.7025
C9_4 C 0.1054(3) 0.0527(9) 0.2315(7)
H7_4 H 0.1100 0.1496 0.2392
H8_4 H 0.0091 0.0571 0.1368
C6_4 C 0.0374(3) 0.8552(6) 0.1611(5)
C7_4 C 0.0916(3) 0.7777(6) 0.2101(5)
C8_4 C 0.1502(3) 0.8402(7) 0.2670(6)
C10_4 C 0.0452(3) 0.9988(7) 0.1711(7)
H2_4 H 0.0011 0.5955 0.1117
H5_4 H 0.0886 0.6814 0.2053
H6_4 H 0.1868 0.7840 0.2975
Cd1_4 Cd 0.75648(2) 0.5667 0.85645(3)
S1_4 S 0.80848(7) 0.4142(2) 0.6884(1)
O1_4 O 0.7724(2) 0.5259(4) 0.7051(4)
O2_4 O 0.8758(2) 0.4306(6) 0.7662(5)
O3_4 O 0.7866(2) 0.2808(4) 0.7100(4)
O7_4 O 0.7146(4) 0.0211(6) 0.7762(6)
O10_4 O 0.8010(3) 0.3446(6) 0.9235(5)
O11_4 O 0.7956(2) 0.1522(5) 0.5059(4)
N1_4 N 0.8534(2) 0.6716(6) 0.9688(5)
N3_4 N 0.6595(2) 0.4626(6) 0.7619(5)
C5_4 C 0.8592(3) 0.8070(7) 0.9875(6)
C11_4 C 0.6509(3) 0.3240(7) 0.7533(6)
C12_4 C 0.5922(3) 0.2639(6) 0.7021(6)
C13_4 C 0.5381(3) 0.3452(6) 0.6599(5)
C14_4 C 0.5465(3) 0.4881(7) 0.6665(7)
C15_4 C 0.6071(3) 0.5390(6) 0.7177(7)
C16_4 C 0.3601(3) 0.3081(7) 0.4968(6)
C17_4 C 0.4200(3) 0.3679(7) 0.5499(6)
C18_4 C 0.4735(3) 0.2843(6) 0.6044(5)
C19_4 C 0.4636(3) 0.1452(6) 0.6040(6)
C20_4 C 0.4021(3) 0.0925(7) 0.5493(6)
H4_4 H 0.8220 0.8606 0.9572
H9_4 H 0.6870 0.2664 0.7850
H10_4 H 0.5888 0.1669 0.6951
H11_4 H 0.5111 0.5478 0.6358
H12_4 H 0.6120 0.6358 0.7215
H13_4 H 0.3242 0.3659 0.4599
H14_4 H 0.4243 0.4654 0.5482
H15_4 H 0.4984 0.0847 0.6403
H19_4 H 0.8092 0.3136 0.9962
H20_4 H 0.8103 0.2874 0.8777
H21_4 H 0.7730 0.2073 0.4397
H22_4 H 0.8385 0.1292 0.5334
O13_4 O 0.7140(3) 0.7813(6) 0.8054(5)
S2_4 S 0.68544(7) 0.8917(2) 0.7232(1)
O5_4 O 0.7005(3) 0.8733(6) 0.6315(5)
O6_4 O 0.6173(3) 0.8916(8) 0.6708(6)
H16_4 H 0.3964 0.9963 0.5499
O9_3 O 0.2646(3) 0.5946(6) 0.9965(5)
C1_3 C 0.0938(3) 0.5970(8) 0.9854(8)
C2_3 C 0.0345(3) 0.6539(7) 0.9207(7)
C3_3 C 0.0274(3) 0.7923(7) 0.9017(5)
C4_3 C 0.0816(3) 0.8723(7) 0.9504(6)
H1_3 H 0.0970 0.5010 0.9971
H3_3 H 0.0794 0.9701 0.9408
H17_3 H 0.2541 0.5237 0.9419
H18_3 H 0.2832 0.6770 0.9909
O9_4 O 0.7354(3) 0.5946(6) 0.0035(5)
C1_4 C 0.9062(3) 0.5970(8) 0.0146(8)
C2_4 C 0.9655(3) 0.6539(7) 0.0793(7)
C3_4 C 0.9726(3) 0.7923(7) 0.0983(5)
C4_4 C 0.9184(3) 0.8723(7) 0.0496(6)
H1_4 H 0.9030 0.5010 0.0029
H3_4 H 0.9206 0.9701 0.0592
H17_4 H 0.7459 0.5237 0.0581
H18_4 H 0.7168 0.6770 0.0091
loop_
_geom_bond_atom_site_label_1
_geom_bond_atom_site_label_2
_geom_bond_site_symmetry_1
_geom_bond_site_symmetry_2
N4 C16 1_555 1_555
C16 C17 1_555 1_555
C17 C18 1_555 1_555
C19 C18 1_555 1_555
C20 N4 1_555 1_555
H13 C16 1_555 1_555
H14 C17 1_555 1_555
H15 C19 1_555 1_555
H16 C20 1_555 1_555
Cd6 N4 1_555 1_555
C19 C20 1_555 1_555
Cd1 O1 1_555 1_555
N1 Cd1 1_555 1_555
C5 N1 1_555 1_555
H4 C5 1_555 1_555
H12 C15 1_555 1_555
O13 Cd1 1_555 1_555
N2 C8 1_555 1_555
C2 C1 1_555 1_555
C3 C2 1_555 1_555
C4 C3 1_555 1_555
C6 C3 1_555 1_555
C7 C6 1_555 1_555
C8 C7 1_555 1_555
C9 N2 1_555 1_555
C10 C6 1_555 1_555
H1 C1 1_555 1_555
H2 C2 1_555 1_555
H3 C4 1_555 1_555
H5 C7 1_555 1_555
H6 C8 1_555 1_555
H7 C9 1_555 1_555
H8 C10 1_555 1_555
H17 O9 1_555 1_555
H18 O9 1_555 1_555
Cd6 N2 1_555 1_555
C9 C10 1_555 1_555
Cd2 O3 1_555 1_555
S2 O5 1_555 1_555
O2 S1 1_555 1_555
O3 S1 1_555 1_555
O4 S1 1_555 1_555
O5 Cd2 1_555 1_555
O6 S2 1_555 1_555
O7 S2 1_555 1_555
O13 S2 1_555 1_555
O11 Cd2 1_555 1_555
C11 N3 1_555 1_555
C12 C11 1_555 1_555
C13 C12 1_555 1_555
C14 C13 1_555 1_555
H9 C11 1_555 1_555
H10 C12 1_555 1_555
H19 O10 1_555 1_555
H20 O10 1_555 1_555
H21 O11 1_555 1_555
H22 O11 1_555 1_555
O12 Cd2 1_555 1_555
N5 Cd2 1_555 1_555
N6 Cd2 1_555 1_555
N5 C8_2 1_555 1_555
C2_2 C1_2 1_555 1_555
C3_2 C2_2 1_555 1_555
C4_2 C3_2 1_555 1_555
C6_2 C3_2 1_555 1_555
C7_2 C6_2 1_555 1_555
C8_2 C7_2 1_555 1_555
C9_2 N5 1_555 1_555
C10_2 C6_2 1_555 1_555
H1_2 C1_2 1_555 1_555
H2_2 C2_2 1_555 1_555
H3_2 C4_2 1_555 1_555
H5_2 C7_2 1_555 1_555
H6_2 C8_2 1_555 1_555
H7_2 C9_2 1_555 1_555
H8_2 C10_2 1_555 1_555
H17_2 O9_2 1_555 1_555
H18_2 O9_2 1_555 1_555
C9_2 C10_2 1_555 1_555
Cd1_2 O1_2 1_555 1_555
N1_2 Cd1_2 1_555 1_555
C5_2 N1_2 1_555 1_555
H4_2 C5_2 1_555 1_555
H12_2 C15_2 1_555 1_555
O13_2 Cd1_2 1_555 1_555
Cd6 O3_2 1_555 1_555
S2_2 O5_2 1_555 1_555
O2_2 S1_2 1_555 1_555
O3_2 S1_2 1_555 1_555
O4_2 S1_2 1_555 1_555
O5_2 Cd6 1_555 1_555
O6_2 S2_2 1_555 1_555
O7_2 S2_2 1_555 1_555
O13_2 S2_2 1_555 1_555
O11_2 Cd6 1_555 1_555
C11_2 N3_2 1_555 1_555
C12_2 C11_2 1_555 1_555
C13_2 C12_2 1_555 1_555
C14_2 C13_2 1_555 1_555
H9_2 C11_2 1_555 1_555
H10_2 C12_2 1_555 1_555
H19_2 O10_2 1_555 1_555
H20_2 O10_2 1_555 1_555
H21_2 O11_2 1_555 1_555
H22_2 O11_2 1_555 1_555
O12_2 Cd6 1_555 1_555
N6 C16_2 1_555 1_555
C16_2 C17_2 1_555 1_555
C17_2 C18_2 1_555 1_555
C19_2 C18_2 1_555 1_555
C20_2 N6 1_555 1_555
H13_2 C16_2 1_555 1_555
H14_2 C17_2 1_555 1_555
H15_2 C19_2 1_555 1_555
H16_2 C20_2 1_555 1_555
C19_2 C20_2 1_555 1_555
Cd1_3 O1_3 1_555 1_555
Cd3_2 O3_3 1_555 1_555
S1_3 O1_3 1_555 1_555
O2_3 S1_3 1_555 1_555
O3_3 S1_3 1_555 1_555
O12_2 S1_3 1_555 1_555
O10_3 Cd1_3 1_555 1_555
O11_3 Cd3_2 1_555 1_555
N1_3 Cd1_3 1_555 1_555
N3_3 Cd1_3 1_555 1_555
N4_2 C16_3 1_555 1_555
C5_3 N1_3 1_555 1_555
C11_3 N3_3 1_555 1_555
C12_3 C11_3 1_555 1_555
C13_3 C12_3 1_555 1_555
C14_3 C13_3 1_555 1_555
C15_3 N3_3 1_555 1_555
C16_3 C17_3 1_555 1_555
C17_3 C18_3 1_555 1_555
C18_3 C13_3 1_555 1_555
C19_3 C18_3 1_555 1_555
C20_3 N4_2 1_555 1_555
H4_3 C5_3 1_555 1_555
H9_3 C11_3 1_555 1_555
H10_3 C12_3 1_555 1_555
H11_3 C14_3 1_555 1_555
H12_3 C15_3 1_555 1_555
H13_3 C16_3 1_555 1_555
H14_3 C17_3 1_555 1_555
H15_3 C19_3 1_555 1_555
H19_3 O10_3 1_555 1_555
H20_3 O10_3 1_555 1_555
H21_3 O11_3 1_555 1_555
H22_3 O11_3 1_555 1_555
O13_3 Cd1_3 1_555 1_555
N6_2 Cd3_2 1_555 1_555
Cd3 N4_2 1_555 1_555
C14_3 C15_3 1_555 1_555
C19_3 C20_3 1_555 1_555
S2_3 O5_3 1_555 1_555
O6_3 S2_3 1_555 1_555
O13_3 S2_3 1_555 1_555
H7_3 C9_3 1_555 1_555
N2_2 C8_3 1_555 1_555
C7_3 C6_3 1_555 1_555
C8_3 C7_3 1_555 1_555
C10_3 C6_3 1_555 1_555
H5_3 C7_3 1_555 1_555
H6_3 C8_3 1_555 1_555
H7_4 C9_4 1_555 1_555
N5_2 C8_4 1_555 1_555
C7_4 C6_4 1_555 1_555
C8_4 C7_4 1_555 1_555
C10_4 C6_4 1_555 1_555
H5_4 C7_4 1_555 1_555
H6_4 C8_4 1_555 1_555
Cd1_4 O1_4 1_555 1_555
Cd3 O3_4 1_555 1_555
S1_4 O1_4 1_555 1_555
O2_4 S1_4 1_555 1_555
O3_4 S1_4 1_555 1_555
O12 S1_4 1_555 1_555
O10_4 Cd1_4 1_555 1_555
O11_4 Cd3 1_555 1_555
N1_4 Cd1_4 1_555 1_555
N3_4 Cd1_4 1_555 1_555
N6_2 C16_4 1_555 1_555
C5_4 N1_4 1_555 1_555
C11_4 N3_4 1_555 1_555
C12_4 C11_4 1_555 1_555
C13_4 C12_4 1_555 1_555
C14_4 C13_4 1_555 1_555
C15_4 N3_4 1_555 1_555
C16_4 C17_4 1_555 1_555
C17_4 C18_4 1_555 1_555
C18_4 C13_4 1_555 1_555
C19_4 C18_4 1_555 1_555
C20_4 N6_2 1_555 1_555
H4_4 C5_4 1_555 1_555
H9_4 C11_4 1_555 1_555
H10_4 C12_4 1_555 1_555
H11_4 C14_4 1_555 1_555
H12_4 C15_4 1_555 1_555
H13_4 C16_4 1_555 1_555
H14_4 C17_4 1_555 1_555
H15_4 C19_4 1_555 1_555
H19_4 O10_4 1_555 1_555
H20_4 O10_4 1_555 1_555
H21_4 O11_4 1_555 1_555
H22_4 O11_4 1_555 1_555
O13_4 Cd1_4 1_555 1_555
C14_4 C15_4 1_555 1_555
C19_4 C20_4 1_555 1_555
S2_4 O5_4 1_555 1_555
O6_4 S2_4 1_555 1_555
O13_4 S2_4 1_555 1_555
C2_3 C1_3 1_555 1_555
C3_3 C2_3 1_555 1_555
C4_3 C3_3 1_555 1_555
H1_3 C1_3 1_555 1_555
H3_3 C4_3 1_555 1_555
H17_3 O9_3 1_555 1_555
H18_3 O9_3 1_555 1_555
C2_4 C1_4 1_555 1_555
C3_4 C2_4 1_555 1_555
C4_4 C3_4 1_555 1_555
H1_4 C1_4 1_555 1_555
H3_4 C4_4 1_555 1_555
H17_4 O9_4 1_555 1_555
H18_4 O9_4 1_555 1_555

#END
