
###############################################################################
#
# This file contains modified crystal structure data generated from the
# MOF subset of the Cambridge Structural Database (CSD) v543 
# hosted by the Cambridge Crystallographic Data Centre (CCDC).
#
# This work is licensed under the Creative Commons
# Attribution-NonCommercial-ShareAlike 4.0 International License.
# To view a copy of this license, visit
# http://creativecommons.org/licenses/by-nc-sa/4.0/
# or send a letter to
# Creative Commons, PO Box 1866, Mountain View, CA 94042, USA.
#
# CIF created using the CSD Python API on 29 September 2022
# The structure has been converted into the P1 space group
# The structure has a 3D framework
# The original CSD entry COYTOA is in the monoclinic crystal system
# The framework has been calculated to contain at least 10.0% void space
# The void calculation uses a probe of radius 1.32A, grid spacing 0.4
#
###############################################################################

data_COYTOA
_chemical_formula_moiety         '(C56 H28 N8 O34 Sm4)n'
_symmetry_cell_setting           triclinic
_symmetry_space_group_name_H-M   'P 1'
_symmetry_Int_Tables_number      1
_space_group_name_Hall           'P 1'
loop_
_symmetry_equiv_pos_site_id
_symmetry_equiv_pos_as_xyz
1 x,y,z
_cell_length_a                   12.0648(12)
_cell_length_b                   12.5148(13)
_cell_length_c                   12.3787(13)
_cell_angle_alpha                90
_cell_angle_beta                 115.069(2)
_cell_angle_gamma                90
_cell_volume                     1692.97
loop_
_atom_site_label
_atom_site_type_symbol
_atom_site_fract_x
_atom_site_fract_y
_atom_site_fract_z
O5 O 0.9391(3) 0.2148(3) 0.0155(3)
O7 O 0.8186(3) 0.0123(3) 0.2369(3)
O8 O 0.6337(4) 0.0222(4) 0.2386(4)
N2 N 0.7572(4) 0.1482(3) 0.0631(3)
C4 C 0.7084(5) 0.0446(4) 0.1993(5)
C13 C 0.5481(4) 0.1507(4) 0.0283(4)
H7 H 0.4879 0.1299 0.0522
C14 C 0.6677(5) 0.1193(4) 0.0929(4)
Sm4 Sm 0.95967(2) 0.050750(19) 0.14517(2)
O3 O 0.9789(3) 0.2040(3) 0.2805(3)
O1 O 0.1187(3) 0.4953(3) 0.5708(3)
O2 O 0.2947(4) 0.4595(3) 0.5611(4)
O4 O 0.0613(3) 0.1402(3) 0.8643(3)
O6 O 0.8075(3) 0.2682(4) 0.8351(4)
H1 H 0.8704 0.2824 0.8278
O9 O 0.0929(4) 0.5182(3) 0.8445(3)
H2 H 0.1098 0.4621 0.9021
H3 H 0.1682 0.5431 0.8447
N1 N 0.1588(4) 0.3398(3) 0.7272(3)
C1 C 0.2242(5) 0.4477(4) 0.6063(5)
C2 C 0.0649(4) 0.2272(4) 0.8201(4)
C3 C 0.8355(5) 0.2311(4) 0.9408(5)
C5 C 0.2531(4) 0.3706(4) 0.7052(4)
C6 C 0.3699(5) 0.3298(4) 0.7678(4)
H4 H 0.4337 0.3544 0.7512
C7 C 0.3922(4) 0.2531(4) 0.8546(4)
C8 C 0.2913(5) 0.2159(4) 0.8708(4)
H5 H 0.3005 0.1615 0.9251
C9 C 0.1785(4) 0.2603(4) 0.8061(4)
C10 C 0.7281(4) 0.2078(4) 0.9665(4)
C11 C 0.6114(5) 0.2415(4) 0.8955(5)
H6 H 0.5955 0.2823 0.8277
C12 C 0.5178(5) 0.2139(4) 0.9267(4)
Sm2 Sm 0.04033(2) 0.550750(19) 0.35483(2)
Sm1 Sm 0.95967(2) 0.449250(19) 0.64517(2)
O3_2 O 0.9789(3) 0.2960(3) 0.7805(3)
O10 O 0.8813(3) 0.5047(3) 0.4292(3)
O11 O 0.9387(3) 0.6402(3) 0.6357(3)
O12 O 0.9391(3) 0.2852(3) 0.5155(3)
O13 O 0.8186(3) 0.4877(3) 0.7369(3)
N3 N 0.7572(4) 0.3518(3) 0.5631(3)
O10_2 O 0.1187(3) 0.0047(3) 0.0708(3)
O1_2 O 0.8813(3) 0.9953(3) 0.9292(3)
O2_2 O 0.7053(4) 0.9595(3) 0.9389(4)
O5_2 O 0.0609(3) 0.7148(3) 0.4845(3)
O6_2 O 0.1925(3) 0.7682(4) 0.6649(4)
H1_2 H 0.1296 0.7824 0.6722
O7_2 O 0.1814(3) 0.5123(3) 0.2631(3)
O8_2 O 0.3663(4) 0.5222(4) 0.2614(4)
H2_2 H 0.8902 0.9621 0.5979
N1_2 N 0.8412(4) 0.8398(3) 0.7728(3)
N2_2 N 0.2428(4) 0.6482(3) 0.4369(3)
C1_2 C 0.7758(5) 0.9477(4) 0.8937(5)
C2_2 C 0.9351(4) 0.7272(4) 0.6799(4)
C3_2 C 0.1645(5) 0.7311(4) 0.5592(5)
C4_2 C 0.2916(5) 0.5446(4) 0.3007(5)
C5_2 C 0.7469(4) 0.8706(4) 0.7948(4)
C6_2 C 0.6301(5) 0.8298(4) 0.7322(4)
H4_2 H 0.5663 0.8544 0.7488
C7_2 C 0.6078(4) 0.7531(4) 0.6454(4)
C8_2 C 0.7087(5) 0.7159(4) 0.6292(4)
H5_2 H 0.6995 0.6615 0.5749
C9_2 C 0.8215(4) 0.7603(4) 0.6939(4)
C10_2 C 0.2719(4) 0.7078(4) 0.5335(4)
C11_2 C 0.3886(5) 0.7415(4) 0.6045(5)
H6_2 H 0.4045 0.7823 0.6723
C12_2 C 0.4822(5) 0.7139(4) 0.5733(4)
C13_2 C 0.4519(4) 0.6507(4) 0.4717(4)
H7_2 H 0.5121 0.6299 0.4478
C14_2 C 0.3323(5) 0.6193(4) 0.4071(4)
O3_3 O 0.0211(3) 0.7040(3) 0.2195(3)
O11_2 O 0.0613(3) 0.3598(3) 0.3643(3)
O2_3 O 0.7053(4) 0.5405(3) 0.4389(4)
O4_2 O 0.9387(3) 0.8598(3) 0.1357(3)
O6_3 O 0.1925(3) 0.7318(4) 0.1649(4)
H1_3 H 0.1296 0.7176 0.1722
O9_2 O 0.9071(4) 0.4818(3) 0.1555(3)
H2_3 H 0.8902 0.5379 0.0979
H3_2 H 0.8318 0.4569 0.1553
N1_3 N 0.8412(4) 0.6602(3) 0.2728(3)
C1_3 C 0.7758(5) 0.5523(4) 0.3937(5)
C2_3 C 0.9351(4) 0.7728(4) 0.1799(4)
C3_3 C 0.1645(5) 0.7689(4) 0.0592(5)
C5_3 C 0.7469(4) 0.6294(4) 0.2948(4)
C6_3 C 0.6301(5) 0.6702(4) 0.2322(4)
H4_3 H 0.5663 0.6456 0.2488
C7_3 C 0.6078(4) 0.7469(4) 0.1454(4)
C8_3 C 0.7087(5) 0.7841(4) 0.1292(4)
H5_3 H 0.6995 0.8385 0.0749
C9_3 C 0.8215(4) 0.7397(4) 0.1939(4)
C10_3 C 0.2719(4) 0.7922(4) 0.0335(4)
C11_3 C 0.3886(5) 0.7585(4) 0.1045(5)
H6_3 H 0.4045 0.7177 0.1723
C12_3 C 0.4822(5) 0.7861(4) 0.0733(4)
O2_4 O 0.2947(4) 0.0405(3) 0.0611(4)
O6_4 O 0.8075(3) 0.2318(4) 0.3351(4)
H1_4 H 0.8704 0.2176 0.3278
O8_3 O 0.6337(4) 0.4778(4) 0.7386(4)
H2_4 H 0.1098 0.0379 0.4021
N1_4 N 0.1588(4) 0.1602(3) 0.2272(3)
C1_4 C 0.2242(5) 0.0523(4) 0.1063(5)
C2_4 C 0.0649(4) 0.2728(4) 0.3201(4)
C3_4 C 0.8355(5) 0.2689(4) 0.4408(5)
C4_3 C 0.7084(5) 0.4554(4) 0.6993(5)
C5_4 C 0.2531(4) 0.1294(4) 0.2052(4)
C6_4 C 0.3699(5) 0.1702(4) 0.2678(4)
H4_4 H 0.4337 0.1456 0.2512
C7_4 C 0.3922(4) 0.2469(4) 0.3546(4)
C8_4 C 0.2913(5) 0.2841(4) 0.3708(4)
H5_4 H 0.3005 0.3385 0.4251
C9_4 C 0.1785(4) 0.2397(4) 0.3061(4)
C10_4 C 0.7281(4) 0.2922(4) 0.4665(4)
C11_4 C 0.6114(5) 0.2585(4) 0.3955(5)
H6_4 H 0.5955 0.2177 0.3277
C12_4 C 0.5178(5) 0.2861(4) 0.4267(4)
C13_3 C 0.5481(4) 0.3493(4) 0.5283(4)
H7_3 H 0.4879 0.3701 0.5522
C14_3 C 0.6677(5) 0.3807(4) 0.5929(4)
Sm3 Sm 0.04033(2) 0.949250(19) 0.85483(2)
O3_4 O 0.0211(3) 0.7960(3) 0.7195(3)
O12_2 O 0.0609(3) 0.7852(3) 0.9845(3)
O13_2 O 0.1814(3) 0.9877(3) 0.7631(3)
N3_2 N 0.2428(4) 0.8518(3) 0.9369(3)
O8_4 O 0.3663(4) 0.9778(4) 0.7614(4)
C4_4 C 0.2916(5) 0.9554(4) 0.8007(5)
C13_4 C 0.4519(4) 0.8493(4) 0.9717(4)
H7_4 H 0.5121 0.8701 0.9478
C14_4 C 0.3323(5) 0.8807(4) 0.9071(4)
O9_3 O 0.9071(4) 0.0182(3) 0.6555(3)
H3_3 H 0.8318 0.0431 0.6553
O9_4 O 0.0929(4) 0.9818(3) 0.3445(3)
H3_4 H 0.1682 0.9569 0.3447
loop_
_geom_bond_atom_site_label_1
_geom_bond_atom_site_label_2
_geom_bond_site_symmetry_1
_geom_bond_site_symmetry_2
O7 C4 1_555 1_555
O8 C4 1_555 1_555
C4 C14 1_555 1_555
H7 C13 1_555 1_555
C14 N2 1_555 1_555
Sm4 O5 1_555 1_555
O7 Sm4 1_555 1_555
N2 Sm4 1_555 1_555
C13 C14 1_555 1_555
O3 Sm4 1_555 1_555
O1 C1 1_555 1_555
O2 C1 1_555 1_555
O4 C2 1_555 1_555
O6 H1 1_555 1_555
H2 O9 1_555 1_555
H3 O9 1_555 1_555
C1 C5 1_555 1_555
C3 O6 1_555 1_555
C5 N1 1_555 1_555
C6 C5 1_555 1_555
H4 C6 1_555 1_555
C7 C6 1_555 1_555
C8 C7 1_555 1_555
H5 C8 1_555 1_555
C9 N1 1_555 1_555
C10 C3 1_555 1_555
C11 C10 1_555 1_555
H6 C11 1_555 1_555
C12 C7 1_555 1_555
Sm2 O1 1_555 1_555
C2 C9 1_555 1_555
C8 C9 1_555 1_555
C11 C12 1_555 1_555
O3_2 Sm1 1_555 1_555
O10 Sm1 1_555 1_555
O11 Sm1 1_555 1_555
O12 Sm1 1_555 1_555
O13 Sm1 1_555 1_555
N3 Sm1 1_555 1_555
O1_2 C1_2 1_555 1_555
O2_2 C1_2 1_555 1_555
O11 C2_2 1_555 1_555
O5_2 C3_2 1_555 1_555
O6_2 H1_2 1_555 1_555
O7_2 C4_2 1_555 1_555
O8_2 C4_2 1_555 1_555
N2_2 C10_2 1_555 1_555
C1_2 C5_2 1_555 1_555
C3_2 O6_2 1_555 1_555
C4_2 C14_2 1_555 1_555
C5_2 N1_2 1_555 1_555
C6_2 C5_2 1_555 1_555
H4_2 C6_2 1_555 1_555
C7_2 C6_2 1_555 1_555
C8_2 C7_2 1_555 1_555
H5_2 C8_2 1_555 1_555
C9_2 N1_2 1_555 1_555
C10_2 C3_2 1_555 1_555
C11_2 C10_2 1_555 1_555
H6_2 C11_2 1_555 1_555
C12_2 C7_2 1_555 1_555
C13_2 C12_2 1_555 1_555
H7_2 C13_2 1_555 1_555
C14_2 N2_2 1_555 1_555
Sm2 O5_2 1_555 1_555
O7_2 Sm2 1_555 1_555
N2_2 Sm2 1_555 1_555
C2_2 C9_2 1_555 1_555
C8_2 C9_2 1_555 1_555
C11_2 C12_2 1_555 1_555
C13_2 C14_2 1_555 1_555
O3_3 Sm2 1_555 1_555
O11_2 Sm2 1_555 1_555
O10 C1_3 1_555 1_555
O2_3 C1_3 1_555 1_555
O4_2 C2_3 1_555 1_555
O6_3 H1_3 1_555 1_555
H2_3 O9_2 1_555 1_555
H3_2 O9_2 1_555 1_555
C1_3 C5_3 1_555 1_555
C3_3 O6_3 1_555 1_555
C5_3 N1_3 1_555 1_555
C6_3 C5_3 1_555 1_555
H4_3 C6_3 1_555 1_555
C7_3 C6_3 1_555 1_555
C8_3 C7_3 1_555 1_555
H5_3 C8_3 1_555 1_555
C9_3 N1_3 1_555 1_555
C10_3 C3_3 1_555 1_555
C11_3 C10_3 1_555 1_555
H6_3 C11_3 1_555 1_555
C12_3 C7_3 1_555 1_555
C2_3 C9_3 1_555 1_555
C8_3 C9_3 1_555 1_555
C11_3 C12_3 1_555 1_555
O10_2 C1_4 1_555 1_555
O2_4 C1_4 1_555 1_555
O11_2 C2_4 1_555 1_555
O12 C3_4 1_555 1_555
O6_4 H1_4 1_555 1_555
O13 C4_3 1_555 1_555
O8_3 C4_3 1_555 1_555
N3 C10_4 1_555 1_555
C1_4 C5_4 1_555 1_555
C3_4 O6_4 1_555 1_555
C4_3 C14_3 1_555 1_555
C5_4 N1_4 1_555 1_555
C6_4 C5_4 1_555 1_555
H4_4 C6_4 1_555 1_555
C7_4 C6_4 1_555 1_555
C8_4 C7_4 1_555 1_555
H5_4 C8_4 1_555 1_555
C9_4 N1_4 1_555 1_555
C10_4 C3_4 1_555 1_555
C11_4 C10_4 1_555 1_555
H6_4 C11_4 1_555 1_555
C12_4 C7_4 1_555 1_555
C13_3 C12_4 1_555 1_555
H7_3 C13_3 1_555 1_555
C14_3 N3 1_555 1_555
C2_4 C9_4 1_555 1_555
C8_4 C9_4 1_555 1_555
C11_4 C12_4 1_555 1_555
C13_3 C14_3 1_555 1_555
O3_4 Sm3 1_555 1_555
O12_2 Sm3 1_555 1_555
O13_2 Sm3 1_555 1_555
N3_2 Sm3 1_555 1_555
O13_2 C4_4 1_555 1_555
O8_4 C4_4 1_555 1_555
C4_4 C14_4 1_555 1_555
H7_4 C13_4 1_555 1_555
C14_4 N3_2 1_555 1_555
C13_4 C14_4 1_555 1_555
H3_3 O9_3 1_555 1_555
H3_4 O9_4 1_555 1_555

#END
