
###############################################################################
#
# This file contains modified crystal structure data generated from the
# MOF subset of the Cambridge Structural Database (CSD) v543 
# hosted by the Cambridge Crystallographic Data Centre (CCDC).
#
# This work is licensed under the Creative Commons
# Attribution-NonCommercial-ShareAlike 4.0 International License.
# To view a copy of this license, visit
# http://creativecommons.org/licenses/by-nc-sa/4.0/
# or send a letter to
# Creative Commons, PO Box 1866, Mountain View, CA 94042, USA.
#
# CIF created using the CSD Python API on 29 September 2022
# The structure has been converted into the P1 space group
# The structure has a 3D framework
# The original CSD entry COYTEQ is in the monoclinic crystal system
# The framework has been calculated to contain at least 10.0% void space
# The void calculation uses a probe of radius 1.32A, grid spacing 0.4
#
###############################################################################

data_COYTEQ
_chemical_formula_moiety         '(C56 H28 La4 N8 O34)n'
_symmetry_cell_setting           triclinic
_symmetry_space_group_name_H-M   'P 1'
_symmetry_Int_Tables_number      1
_space_group_name_Hall           'P 1'
loop_
_symmetry_equiv_pos_site_id
_symmetry_equiv_pos_as_xyz
1 x,y,z
_cell_length_a                   12.1200(17)
_cell_length_b                   12.8067(18)
_cell_length_c                   12.3605(17)
_cell_angle_alpha                90
_cell_angle_beta                 114.974(2)
_cell_angle_gamma                90
_cell_volume                     1739.18
loop_
_atom_site_label
_atom_site_type_symbol
_atom_site_fract_x
_atom_site_fract_y
_atom_site_fract_z
O5 O 0.3011(4) 0.9894(3) 0.7333(4)
O6 O 0.1165(4) 0.9735(4) 0.7322(4)
O7 O 0.4332(3) 0.7853(3) 0.5201(4)
O8 O 0.3038(4) 0.7267(4) 0.3408(4)
H1 H 0.3663 0.7158 0.3322
N2 N 0.2474(4) 0.8499(4) 0.5629(4)
C3 C 0.1920(5) 0.9540(5) 0.6951(5)
C4 C 0.3314(6) 0.7666(5) 0.4455(6)
C10 C 0.1566(5) 0.8795(5) 0.5898(5)
C11 C 0.0391(5) 0.8477(5) 0.5246(5)
C12 C 0.0115(5) 0.7841(5) 0.4251(5)
C13 C 0.1082(5) 0.7572(5) 0.3969(6)
H7 H 0.0946 0.7164 0.3302
C14 C 0.2226(5) 0.7914(5) 0.4682(5)
La4 La 0.45178(3) 0.95520(3) 0.64630(3)
La2 La 0.54822(3) 0.04480(3) 0.35370(3)
La1 La 0.45178(3) 0.54480(3) 0.14630(3)
O1 O 0.4790(3) 0.6970(3) 0.2890(4)
O2 O 0.5600(4) 0.8495(4) 0.3644(4)
O3 O 0.6181(3) 0.5023(3) 0.0753(4)
O4 O 0.7863(4) 0.5425(4) 0.0544(4)
O9 O 0.5916(4) 0.4772(4) 0.3541(4)
H2 H 0.5884 0.5186 0.4064
H3 H 0.6642 0.4744 0.3605
N1 N 0.6571(4) 0.6561(4) 0.2300(4)
C1 C 0.5637(5) 0.7646(5) 0.3219(5)
C2 C 0.7205(5) 0.5520(5) 0.1068(6)
C5 C 0.6750(5) 0.7326(5) 0.3079(5)
C6 C 0.7881(5) 0.7798(5) 0.3705(5)
H4 H 0.7973 0.8339 0.4238
C7 C 0.8862(5) 0.7445(5) 0.3515(5)
C8 C 0.8651(5) 0.6697(5) 0.2653(5)
H5 H 0.9285 0.6469 0.2477
C9 C 0.7500(5) 0.6282(5) 0.2047(5)
H6 H 0.9779 0.8684 0.5467
O10 O 0.4400(4) 0.3495(4) 0.1356(4)
O12 O 0.3011(4) 0.5106(3) 0.2333(4)
O13 O 0.4332(3) 0.7147(3) 0.0201(4)
N3 N 0.2474(4) 0.6501(4) 0.0629(4)
La3 La 0.54822(3) 0.45520(3) 0.85370(3)
O11 O 0.3819(3) 0.4977(3) 0.9247(4)
O1_2 O 0.5210(3) 0.1970(3) 0.2110(4)
O3_2 O 0.3819(3) 0.0023(3) 0.4247(4)
O4_2 O 0.2137(4) 0.0425(4) 0.4456(4)
H2_2 H 0.4116 0.0186 0.0936
N1_2 N 0.3429(4) 0.1561(4) 0.2700(4)
C1_2 C 0.4363(5) 0.2646(5) 0.1781(5)
C2_2 C 0.2795(5) 0.0520(5) 0.3932(6)
C5_2 C 0.3250(5) 0.2326(5) 0.1921(5)
C6_2 C 0.2119(5) 0.2798(5) 0.1295(5)
H4_2 H 0.2027 0.3339 0.0762
C7_2 C 0.1138(5) 0.2445(5) 0.1485(5)
C8_2 C 0.1349(5) 0.1697(5) 0.2347(5)
H5_2 H 0.0715 0.1469 0.2523
C9_2 C 0.2500(5) 0.1282(5) 0.2953(5)
O12_2 O 0.6989(4) 0.0106(3) 0.2667(4)
O13_2 O 0.5668(3) 0.2147(3) 0.4799(4)
N3_2 N 0.7526(4) 0.1501(4) 0.4371(4)
O9_2 O 0.4084(4) 0.9772(4) 0.1459(4)
H3_2 H 0.3358 0.9744 0.1395
O11_2 O 0.6181(3) 0.9977(3) 0.5753(4)
O5_2 O 0.6989(4) 0.4894(3) 0.7667(4)
O6_2 O 0.8835(4) 0.4735(4) 0.7678(4)
O7_2 O 0.5668(3) 0.2853(3) 0.9799(4)
N2_2 N 0.7526(4) 0.3499(4) 0.9371(4)
C3_2 C 0.8080(5) 0.4540(5) 0.8049(5)
C10_2 C 0.8434(5) 0.3795(5) 0.9102(5)
C11_2 C 0.9609(5) 0.3477(5) 0.9754(5)
O1_3 O 0.5210(3) 0.3030(3) 0.7110(4)
O2_2 O 0.4400(4) 0.1505(4) 0.6356(4)
O4_3 O 0.2137(4) 0.4575(4) 0.9456(4)
O9_3 O 0.4084(4) 0.5228(4) 0.6459(4)
H2_3 H 0.4116 0.4814 0.5936
H3_3 H 0.3358 0.5256 0.6395
N1_3 N 0.3429(4) 0.3439(4) 0.7700(4)
C1_3 C 0.4363(5) 0.2354(5) 0.6781(5)
C2_3 C 0.2795(5) 0.4480(5) 0.8932(6)
C5_3 C 0.3250(5) 0.2674(5) 0.6921(5)
C6_3 C 0.2119(5) 0.2202(5) 0.6295(5)
H4_3 H 0.2027 0.1661 0.5762
C7_3 C 0.1138(5) 0.2555(5) 0.6485(5)
C8_3 C 0.1349(5) 0.3303(5) 0.7347(5)
H5_3 H 0.0715 0.3531 0.7523
C9_3 C 0.2500(5) 0.3718(5) 0.7953(5)
H6_2 H 0.0221 0.1316 0.4533
O10_2 O 0.5600(4) 0.6505(4) 0.8644(4)
O6_3 O 0.8835(4) 0.0265(4) 0.2678(4)
O8_2 O 0.6962(4) 0.2733(4) 0.6592(4)
H1_2 H 0.6337 0.2842 0.6678
C3_3 C 0.8080(5) 0.0460(5) 0.3049(5)
C4_2 C 0.6686(6) 0.2334(5) 0.5545(6)
C10_3 C 0.8434(5) 0.1205(5) 0.4102(5)
C11_3 C 0.9609(5) 0.1523(5) 0.4754(5)
C12_2 C 0.9885(5) 0.2159(5) 0.5749(5)
C13_2 C 0.8918(5) 0.2428(5) 0.6031(6)
H7_2 H 0.9054 0.2836 0.6698
C14_2 C 0.7774(5) 0.2086(5) 0.5318(5)
O6_4 O 0.1165(4) 0.5265(4) 0.2322(4)
C3_4 C 0.1920(5) 0.5460(5) 0.1951(5)
C10_4 C 0.1566(5) 0.6205(5) 0.0898(5)
C11_4 C 0.0391(5) 0.6523(5) 0.0246(5)
O9_4 O 0.5916(4) 0.0228(4) 0.8541(4)
H3_4 H 0.6642 0.0256 0.8605
O1_4 O 0.4790(3) 0.8030(3) 0.7890(4)
O4_4 O 0.7863(4) 0.9575(4) 0.5544(4)
H2_4 H 0.5884 0.9814 0.9064
N1_4 N 0.6571(4) 0.8439(4) 0.7300(4)
C1_4 C 0.5637(5) 0.7354(5) 0.8219(5)
C2_4 C 0.7205(5) 0.9480(5) 0.6068(6)
C5_4 C 0.6750(5) 0.7674(5) 0.8079(5)
C6_4 C 0.7881(5) 0.7202(5) 0.8705(5)
H4_4 H 0.7973 0.6661 0.9238
C7_4 C 0.8862(5) 0.7555(5) 0.8515(5)
C8_4 C 0.8651(5) 0.8303(5) 0.7653(5)
H5_4 H 0.9285 0.8531 0.7477
C9_4 C 0.7500(5) 0.8718(5) 0.7047(5)
H6_3 H 0.0221 0.3684 0.9533
O8_3 O 0.6962(4) 0.2267(4) 0.1592(4)
H1_3 H 0.6337 0.2158 0.1678
C4_3 C 0.6686(6) 0.2666(5) 0.0545(6)
C12_3 C 0.9885(5) 0.2841(5) 0.0749(5)
C13_3 C 0.8918(5) 0.2572(5) 0.1031(6)
H7_3 H 0.9054 0.2164 0.1698
C14_3 C 0.7774(5) 0.2914(5) 0.0318(5)
O8_4 O 0.3038(4) 0.7733(4) 0.8408(4)
H1_4 H 0.3663 0.7842 0.8322
C4_4 C 0.3314(6) 0.7334(5) 0.9455(6)
C12_4 C 0.0115(5) 0.7159(5) 0.9251(5)
C13_4 C 0.1082(5) 0.7428(5) 0.8969(6)
H7_4 H 0.0946 0.7836 0.8302
C14_4 C 0.2226(5) 0.7086(5) 0.9682(5)
H6_4 H 0.9779 0.6316 0.0467
loop_
_geom_bond_atom_site_label_1
_geom_bond_atom_site_label_2
_geom_bond_site_symmetry_1
_geom_bond_site_symmetry_2
O5 C3 1_555 1_555
O6 C3 1_555 1_555
O7 C4 1_555 1_555
O8 H1 1_555 1_555
N2 C10 1_555 1_555
C3 C10 1_555 1_555
C4 O8 1_555 1_555
C10 C11 1_555 1_555
C13 C12 1_555 1_555
H7 C13 1_555 1_555
C14 N2 1_555 1_555
La4 O5 1_555 1_555
O7 La4 1_555 1_555
N2 La4 1_555 1_555
C4 C14 1_555 1_555
C11 C12 1_555 1_555
C13 C14 1_555 1_555
La1 O1 1_555 1_555
O1 C1 1_555 1_555
O2 C1 1_555 1_555
O3 La1 1_555 1_555
O4 C2 1_555 1_555
O9 La1 1_555 1_555
H2 O9 1_555 1_555
H3 O9 1_555 1_555
N1 La1 1_555 1_555
C1 C5 1_555 1_555
C2 O3 1_555 1_555
C5 N1 1_555 1_555
C6 C5 1_555 1_555
H4 C6 1_555 1_555
C7 C6 1_555 1_555
C8 C7 1_555 1_555
H5 C8 1_555 1_555
C9 N1 1_555 1_555
O10 La1 1_555 1_555
O12 La1 1_555 1_555
O13 La1 1_555 1_555
N3 La1 1_555 1_555
C2 C9 1_555 1_555
C8 C9 1_555 1_555
La3 O11 1_555 1_555
La2 O1_2 1_555 1_555
O1_2 C1_2 1_555 1_555
O10 C1_2 1_555 1_555
O3_2 La2 1_555 1_555
O4_2 C2_2 1_555 1_555
N1_2 La2 1_555 1_555
C1_2 C5_2 1_555 1_555
C2_2 O3_2 1_555 1_555
C5_2 N1_2 1_555 1_555
C6_2 C5_2 1_555 1_555
H4_2 C6_2 1_555 1_555
C7_2 C6_2 1_555 1_555
C8_2 C7_2 1_555 1_555
H5_2 C8_2 1_555 1_555
C9_2 N1_2 1_555 1_555
O12_2 La2 1_555 1_555
O13_2 La2 1_555 1_555
N3_2 La2 1_555 1_555
C2_2 C9_2 1_555 1_555
C8_2 C9_2 1_555 1_555
H3_2 O9_2 1_555 1_555
La4 O11_2 1_555 1_555
O5_2 C3_2 1_555 1_555
O6_2 C3_2 1_555 1_555
N2_2 C10_2 1_555 1_555
C3_2 C10_2 1_555 1_555
C10_2 C11_2 1_555 1_555
La3 O5_2 1_555 1_555
O7_2 La3 1_555 1_555
N2_2 La3 1_555 1_555
La3 O1_3 1_555 1_555
O1_3 C1_3 1_555 1_555
O2_2 C1_3 1_555 1_555
O4_3 C2_3 1_555 1_555
O9_3 La3 1_555 1_555
H2_3 O9_3 1_555 1_555
H3_3 O9_3 1_555 1_555
N1_3 La3 1_555 1_555
C1_3 C5_3 1_555 1_555
C2_3 O11 1_555 1_555
C5_3 N1_3 1_555 1_555
C6_3 C5_3 1_555 1_555
H4_3 C6_3 1_555 1_555
C7_3 C6_3 1_555 1_555
C8_3 C7_3 1_555 1_555
H5_3 C8_3 1_555 1_555
C9_3 N1_3 1_555 1_555
O10_2 La3 1_555 1_555
C2_3 C9_3 1_555 1_555
C8_3 C9_3 1_555 1_555
O12_2 C3_3 1_555 1_555
O6_3 C3_3 1_555 1_555
O13_2 C4_2 1_555 1_555
O8_2 H1_2 1_555 1_555
N3_2 C10_3 1_555 1_555
C3_3 C10_3 1_555 1_555
C4_2 O8_2 1_555 1_555
C10_3 C11_3 1_555 1_555
C13_2 C12_2 1_555 1_555
H7_2 C13_2 1_555 1_555
C14_2 N3_2 1_555 1_555
C4_2 C14_2 1_555 1_555
C11_3 C12_2 1_555 1_555
C13_2 C14_2 1_555 1_555
O12 C3_4 1_555 1_555
O6_4 C3_4 1_555 1_555
N3 C10_4 1_555 1_555
C3_4 C10_4 1_555 1_555
C10_4 C11_4 1_555 1_555
H3_4 O9_4 1_555 1_555
La4 O1_4 1_555 1_555
O1_4 C1_4 1_555 1_555
O10_2 C1_4 1_555 1_555
O4_4 C2_4 1_555 1_555
N1_4 La4 1_555 1_555
C1_4 C5_4 1_555 1_555
C2_4 O11_2 1_555 1_555
C5_4 N1_4 1_555 1_555
C6_4 C5_4 1_555 1_555
H4_4 C6_4 1_555 1_555
C7_4 C6_4 1_555 1_555
C8_4 C7_4 1_555 1_555
H5_4 C8_4 1_555 1_555
C9_4 N1_4 1_555 1_555
C2_4 C9_4 1_555 1_555
C8_4 C9_4 1_555 1_555
O8_3 H1_3 1_555 1_555
C4_3 O8_3 1_555 1_555
C13_3 C12_3 1_555 1_555
H7_3 C13_3 1_555 1_555
C4_3 C14_3 1_555 1_555
C13_3 C14_3 1_555 1_555
O8_4 H1_4 1_555 1_555
C4_4 O8_4 1_555 1_555
C13_4 C12_4 1_555 1_555
H7_4 C13_4 1_555 1_555
C4_4 C14_4 1_555 1_555
C13_4 C14_4 1_555 1_555

#END
