
###############################################################################
#
# This file contains modified crystal structure data generated from the
# MOF subset of the Cambridge Structural Database (CSD) v543 
# hosted by the Cambridge Crystallographic Data Centre (CCDC).
#
# This work is licensed under the Creative Commons
# Attribution-NonCommercial-ShareAlike 4.0 International License.
# To view a copy of this license, visit
# http://creativecommons.org/licenses/by-nc-sa/4.0/
# or send a letter to
# Creative Commons, PO Box 1866, Mountain View, CA 94042, USA.
#
# CIF created using the CSD Python API on 29 September 2022
# The structure has been converted into the P1 space group
# The structure has a 3D framework
# The original CSD entry COZMEM is in the cubic crystal system
# The framework has been calculated to contain at least 10.0% void space
# The void calculation uses a probe of radius 1.32A, grid spacing 0.4
#
###############################################################################

data_COZMEM
_chemical_formula_moiety         '(C120 H72 Co12 N48)n'
_symmetry_cell_setting           triclinic
_symmetry_space_group_name_H-M   'P 1'
_symmetry_Int_Tables_number      1
_space_group_name_Hall           'P 1'
loop_
_symmetry_equiv_pos_site_id
_symmetry_equiv_pos_as_xyz
1 x,y,z
_cell_length_a                   16.9604(17)
_cell_length_b                   16.9604(17)
_cell_length_c                   16.9604(17)
_cell_angle_alpha                90
_cell_angle_beta                 90
_cell_angle_gamma                90
_cell_volume                     4878.75
loop_
_atom_site_label
_atom_site_type_symbol
_atom_site_fract_x
_atom_site_fract_y
_atom_site_fract_z
Co1 Co 0.750 0.000 0.500
C1 C 0.6861(6) 0.1019(10) 0.6282(6)
N1 N 0.6818(3) 0.0321(10) 0.5879(3)
H2 H 0.7252(8) 0.1402(11) 0.6161(8)
C5 C 0.6282(6) 0.1019(10) 0.6861(6)
N2 N 0.5879(3) 0.0321(10) 0.6818(3)
H3 H 0.6161(8) 0.1402(11) 0.7252(8)
C7 C 0.6218(3) 0.0086(10) 0.3782(3)
C8 C 0.5974(5) 0.0847(10) 0.4026(5)
C9 C 0.5765(8) 0.1500(11) 0.4235(8)
H4 H 0.5594(10) 0.2035(12) 0.4406(10)
Co2 Co 0.500 0.000 0.750
Co3 Co 0.500 0.000 0.250
N6 N 0.8182(3) 0.0879(3) 0.4679(10)
Co1_2 Co 0.750 1.000 0.500
C2 C 0.6218(3) 0.9914(10) 0.6218(3)
C3 C 0.5974(5) 0.9153(10) 0.5974(5)
C4 C 0.5765(8) 0.8500(11) 0.5765(8)
H1 H 0.5594(10) 0.7965(12) 0.5594(10)
C6 C 0.6861(6) 0.8981(10) 0.3718(6)
N3 N 0.6818(3) 0.9679(10) 0.4121(3)
H5 H 0.7252(8) 0.8598(11) 0.3839(8)
C10 C 0.6282(6) 0.8981(10) 0.3139(6)
N4 N 0.5879(3) 0.9679(10) 0.3182(3)
H6 H 0.6161(8) 0.8598(11) 0.2748(8)
Co2_2 Co 0.500 1.000 0.750
Co3_2 Co 0.500 1.000 0.250
N5 N 0.8182(3) 0.9121(3) 0.5321(10)
Co1_3 Co 0.250 0.500 0.000
C1_2 C 0.3139(6) 0.3718(6) 0.1019(10)
N1_2 N 0.3182(3) 0.4121(3) 0.0321(10)
H2_2 H 0.2748(8) 0.3839(8) 0.1402(11)
C5_2 C 0.3718(6) 0.3139(6) 0.1019(10)
N2_2 N 0.4121(3) 0.3182(3) 0.0321(10)
H3_2 H 0.3839(8) 0.2748(8) 0.1402(11)
C7_2 C 0.3782(3) 0.6218(3) 0.0086(10)
C8_2 C 0.4026(5) 0.5974(5) 0.0847(10)
C9_2 C 0.4235(8) 0.5765(8) 0.1500(11)
H4_2 H 0.4406(10) 0.5594(10) 0.2035(12)
Co2_3 Co 0.500 0.250 0.000
Co3_3 Co 0.500 0.750 0.000
N6_2 N 0.1818(3) 0.5321(10) 0.0879(3)
Co1_4 Co 0.250 0.500 1.000
C2_2 C 0.3782(3) 0.3782(3) 0.9914(10)
C3_2 C 0.4026(5) 0.4026(5) 0.9153(10)
C4_2 C 0.4235(8) 0.4235(8) 0.8500(11)
H1_2 H 0.4406(10) 0.4406(10) 0.7965(12)
C6_2 C 0.3139(6) 0.6282(6) 0.8981(10)
N3_2 N 0.3182(3) 0.5879(3) 0.9679(10)
H5_2 H 0.2748(8) 0.6161(8) 0.8598(11)
C10_2 C 0.3718(6) 0.6861(6) 0.8981(10)
N4_2 N 0.4121(3) 0.6818(3) 0.9679(10)
H6_2 H 0.3839(8) 0.7252(8) 0.8598(11)
Co2_4 Co 0.500 0.250 1.000
Co3_4 Co 0.500 0.750 1.000
N5_2 N 0.1818(3) 0.4679(10) 0.9121(3)
Co1_5 Co 0.250 0.000 0.500
C1_3 C 0.3139(6) 0.1019(10) 0.3718(6)
N1_3 N 0.3182(3) 0.0321(10) 0.4121(3)
H2_3 H 0.2748(8) 0.1402(11) 0.3839(8)
C5_3 C 0.3718(6) 0.1019(10) 0.3139(6)
N2_3 N 0.4121(3) 0.0321(10) 0.3182(3)
H3_3 H 0.3839(8) 0.1402(11) 0.2748(8)
C7_3 C 0.3782(3) 0.0086(10) 0.6218(3)
C8_3 C 0.4026(5) 0.0847(10) 0.5974(5)
C9_3 C 0.4235(8) 0.1500(11) 0.5765(8)
H4_3 H 0.4406(10) 0.2035(12) 0.5594(10)
N6_3 N 0.1818(3) 0.0879(3) 0.5321(10)
Co1_6 Co 0.250 1.000 0.500
C2_3 C 0.3782(3) 0.9914(10) 0.3782(3)
C3_3 C 0.4026(5) 0.9153(10) 0.4026(5)
C4_3 C 0.4235(8) 0.8500(11) 0.4235(8)
H1_3 H 0.4406(10) 0.7965(12) 0.4406(10)
C6_3 C 0.3139(6) 0.8981(10) 0.6282(6)
N3_3 N 0.3182(3) 0.9679(10) 0.5879(3)
H5_3 H 0.2748(8) 0.8598(11) 0.6161(8)
C10_3 C 0.3718(6) 0.8981(10) 0.6861(6)
N4_3 N 0.4121(3) 0.9679(10) 0.6818(3)
H6_3 H 0.3839(8) 0.8598(11) 0.7252(8)
N5_3 N 0.1818(3) 0.9121(3) 0.4679(10)
Co1_7 Co -0.000 0.250 0.500
C2_4 C 0.0086(10) 0.3782(3) 0.6218(3)
C3_4 C 0.0847(10) 0.4026(5) 0.5974(5)
C4_4 C 0.1500(11) 0.4235(8) 0.5765(8)
H1_4 H 0.2035(12) 0.4406(10) 0.5594(10)
C6_4 C 0.1019(10) 0.3139(6) 0.3718(6)
N3_4 N 0.0321(10) 0.3182(3) 0.4121(3)
H5_4 H 0.1402(11) 0.2748(8) 0.3839(8)
C10_4 C 0.1019(10) 0.3718(6) 0.3139(6)
N4_4 N 0.0321(10) 0.4121(3) 0.3182(3)
H6_4 H 0.1402(11) 0.3839(8) 0.2748(8)
Co2_5 Co -0.000 0.500 0.750
Co3_5 Co -0.000 0.500 0.250
N5_4 N 0.0879(3) 0.1818(3) 0.5321(10)
Co1_8 Co 1.000 0.250 0.500
C1_4 C 0.8981(10) 0.3139(6) 0.6282(6)
N1_4 N 0.9679(10) 0.3182(3) 0.5879(3)
H2_4 H 0.8598(11) 0.2748(8) 0.6161(8)
C5_4 C 0.8981(10) 0.3718(6) 0.6861(6)
N2_4 N 0.9679(10) 0.4121(3) 0.6818(3)
H3_4 H 0.8598(11) 0.3839(8) 0.7252(8)
C7_4 C 0.9914(10) 0.3782(3) 0.3782(3)
C8_4 C 0.9153(10) 0.4026(5) 0.4026(5)
C9_4 C 0.8500(11) 0.4235(8) 0.4235(8)
H4_4 H 0.7965(12) 0.4406(10) 0.4406(10)
Co2_6 Co 1.000 0.500 0.750
Co3_6 Co 1.000 0.500 0.250
N6_4 N 0.9121(3) 0.1818(3) 0.4679(10)
C6_5 C 0.1019(10) 0.6282(6) 0.6861(6)
N3_5 N 0.0321(10) 0.5879(3) 0.6818(3)
H5_5 H 0.1402(11) 0.6161(8) 0.7252(8)
C10_5 C 0.1019(10) 0.6861(6) 0.6282(6)
N4_5 N 0.0321(10) 0.6818(3) 0.5879(3)
H6_5 H 0.1402(11) 0.7252(8) 0.6161(8)
Co3_7 Co -0.000 0.750 0.500
N5_5 N 0.0879(3) 0.4679(10) 0.8182(3)
C7_5 C 0.9914(10) 0.6218(3) 0.6218(3)
C8_5 C 0.9153(10) 0.5974(5) 0.5974(5)
C9_5 C 0.8500(11) 0.5765(8) 0.5765(8)
H4_5 H 0.7965(12) 0.5594(10) 0.5594(10)
Co3_8 Co 1.000 0.750 0.500
N6_5 N 0.9121(3) 0.5321(10) 0.8182(3)
C2_5 C 0.0086(10) 0.6218(3) 0.3782(3)
C3_5 C 0.0847(10) 0.5974(5) 0.4026(5)
C4_5 C 0.1500(11) 0.5765(8) 0.4235(8)
H1_5 H 0.2035(12) 0.5594(10) 0.4406(10)
N5_6 N 0.0879(3) 0.5321(10) 0.1818(3)
C1_5 C 0.8981(10) 0.6282(6) 0.3139(6)
N1_5 N 0.9679(10) 0.5879(3) 0.3182(3)
H2_5 H 0.8598(11) 0.6161(8) 0.2748(8)
C5_5 C 0.8981(10) 0.6861(6) 0.3718(6)
N2_5 N 0.9679(10) 0.6818(3) 0.4121(3)
H3_5 H 0.8598(11) 0.7252(8) 0.3839(8)
N6_6 N 0.9121(3) 0.4679(10) 0.1818(3)
N5_7 N 0.0879(3) 0.8182(3) 0.4679(10)
N6_7 N 0.9121(3) 0.8182(3) 0.5321(10)
C7_6 C 0.6218(3) 0.3782(3) 0.0086(10)
C8_6 C 0.5974(5) 0.4026(5) 0.0847(10)
C9_6 C 0.5765(8) 0.4235(8) 0.1500(11)
H4_6 H 0.5594(10) 0.4406(10) 0.2035(12)
Co3_9 Co 0.750 0.500 0.000
N6_8 N 0.5321(10) 0.1818(3) 0.0879(3)
C6_6 C 0.6282(6) 0.3139(6) 0.8981(10)
N3_6 N 0.5879(3) 0.3182(3) 0.9679(10)
H5_6 H 0.6161(8) 0.2748(8) 0.8598(11)
C10_6 C 0.6861(6) 0.3718(6) 0.8981(10)
N4_6 N 0.6818(3) 0.4121(3) 0.9679(10)
H6_6 H 0.7252(8) 0.3839(8) 0.8598(11)
Co3_10 Co 0.750 0.500 1.000
N5_8 N 0.4679(10) 0.1818(3) 0.9121(3)
N5_9 N 0.4679(10) 0.0879(3) 0.8182(3)
N6_9 N 0.5321(10) 0.9121(3) 0.8182(3)
N6_10 N 0.5321(10) 0.0879(3) 0.1818(3)
N5_10 N 0.4679(10) 0.9121(3) 0.1818(3)
C6_7 C 0.6282(6) 0.6861(6) 0.1019(10)
N3_7 N 0.5879(3) 0.6818(3) 0.0321(10)
H5_7 H 0.6161(8) 0.7252(8) 0.1402(11)
C10_7 C 0.6861(6) 0.6282(6) 0.1019(10)
N4_7 N 0.6818(3) 0.5879(3) 0.0321(10)
H6_7 H 0.7252(8) 0.6161(8) 0.1402(11)
N5_11 N 0.4679(10) 0.8182(3) 0.0879(3)
C7_7 C 0.6218(3) 0.6218(3) 0.9914(10)
C8_7 C 0.5974(5) 0.5974(5) 0.9153(10)
C9_7 C 0.5765(8) 0.5765(8) 0.8500(11)
H4_7 H 0.5594(10) 0.5594(10) 0.7965(12)
N6_11 N 0.5321(10) 0.8182(3) 0.9121(3)
N5_12 N 0.8182(3) 0.4679(10) 0.0879(3)
N6_12 N 0.8182(3) 0.5321(10) 0.9121(3)
C1_6 C 0.1861(6) 0.6019(10) 0.1282(6)
C2_6 C 0.1218(3) 0.4914(10) 0.1218(3)
C3_6 C 0.0974(5) 0.4153(10) 0.0974(5)
C4_6 C 0.0765(8) 0.3500(11) 0.0765(8)
H1_6 H 0.0594(10) 0.2965(12) 0.0594(10)
H2_6 H 0.2252(8) 0.6402(11) 0.1161(8)
C5_6 C 0.1282(6) 0.6019(10) 0.1861(6)
H3_6 H 0.1161(8) 0.6402(11) 0.2252(8)
C6_8 C 0.1861(6) 0.3981(10) 0.8718(6)
C7_8 C 0.1218(3) 0.5086(10) 0.8782(3)
C8_8 C 0.0974(5) 0.5847(10) 0.9026(5)
C9_8 C 0.0765(8) 0.6500(11) 0.9235(8)
H4_8 H 0.0594(10) 0.7035(12) 0.9406(10)
H5_8 H 0.2252(8) 0.3598(11) 0.8839(8)
C10_8 C 0.1282(6) 0.3981(10) 0.8139(6)
H6_8 H 0.1161(8) 0.3598(11) 0.7748(8)
C6_9 C 0.8139(6) 0.1282(6) 0.3981(10)
C7_9 C 0.8782(3) 0.1218(3) 0.5086(10)
C8_9 C 0.9026(5) 0.0974(5) 0.5847(10)
C9_9 C 0.9235(8) 0.0765(8) 0.6500(11)
H4_9 H 0.9406(10) 0.0594(10) 0.7035(12)
H5_9 H 0.7748(8) 0.1161(8) 0.3598(11)
C10_9 C 0.8718(6) 0.1861(6) 0.3981(10)
H6_9 H 0.8839(8) 0.2252(8) 0.3598(11)
C1_7 C 0.8139(6) 0.8718(6) 0.6019(10)
C2_7 C 0.8782(3) 0.8782(3) 0.4914(10)
C3_7 C 0.9026(5) 0.9026(5) 0.4153(10)
C4_7 C 0.9235(8) 0.9235(8) 0.3500(11)
H1_7 H 0.9406(10) 0.9406(10) 0.2965(12)
H2_7 H 0.7748(8) 0.8839(8) 0.6402(11)
C5_7 C 0.8718(6) 0.8139(6) 0.6019(10)
H3_7 H 0.8839(8) 0.7748(8) 0.6402(11)
C6_10 C 0.8139(6) 0.3981(10) 0.1282(6)
C7_10 C 0.8782(3) 0.5086(10) 0.1218(3)
C8_10 C 0.9026(5) 0.5847(10) 0.0974(5)
C9_10 C 0.9235(8) 0.6500(11) 0.0765(8)
H4_10 H 0.9406(10) 0.7035(12) 0.0594(10)
H5_10 H 0.7748(8) 0.3598(11) 0.1161(8)
C10_10 C 0.8718(6) 0.3981(10) 0.1861(6)
H6_10 H 0.8839(8) 0.3598(11) 0.2252(8)
C1_8 C 0.8139(6) 0.6019(10) 0.8718(6)
C2_8 C 0.8782(3) 0.4914(10) 0.8782(3)
C3_8 C 0.9026(5) 0.4153(10) 0.9026(5)
C4_8 C 0.9235(8) 0.3500(11) 0.9235(8)
H1_8 H 0.9406(10) 0.2965(12) 0.9406(10)
H2_8 H 0.7748(8) 0.6402(11) 0.8839(8)
C5_8 C 0.8718(6) 0.6019(10) 0.8139(6)
H3_8 H 0.8839(8) 0.6402(11) 0.7748(8)
C1_9 C 0.3981(10) 0.8139(6) 0.1282(6)
C2_9 C 0.5086(10) 0.8782(3) 0.1218(3)
C3_9 C 0.5847(10) 0.9026(5) 0.0974(5)
C4_9 C 0.6500(11) 0.9235(8) 0.0765(8)
H1_9 H 0.7035(12) 0.9406(10) 0.0594(10)
H2_9 H 0.3598(11) 0.7748(8) 0.1161(8)
C5_9 C 0.3981(10) 0.8718(6) 0.1861(6)
H3_9 H 0.3598(11) 0.8839(8) 0.2252(8)
C6_11 C 0.6019(10) 0.8139(6) 0.8718(6)
C7_11 C 0.4914(10) 0.8782(3) 0.8782(3)
C8_11 C 0.4153(10) 0.9026(5) 0.9026(5)
C9_11 C 0.3500(11) 0.9235(8) 0.9235(8)
H4_11 H 0.2965(12) 0.9406(10) 0.9406(10)
H5_11 H 0.6402(11) 0.7748(8) 0.8839(8)
C10_11 C 0.6019(10) 0.8718(6) 0.8139(6)
H6_11 H 0.6402(11) 0.8839(8) 0.7748(8)
C6_12 C 0.6019(10) 0.1282(6) 0.1861(6)
C7_12 C 0.4914(10) 0.1218(3) 0.1218(3)
C8_12 C 0.4153(10) 0.0974(5) 0.0974(5)
C9_12 C 0.3500(11) 0.0765(8) 0.0765(8)
H4_12 H 0.2965(12) 0.0594(10) 0.0594(10)
H5_12 H 0.6402(11) 0.1161(8) 0.2252(8)
C10_12 C 0.6019(10) 0.1861(6) 0.1282(6)
H6_12 H 0.6402(11) 0.2252(8) 0.1161(8)
C1_10 C 0.3981(10) 0.1282(6) 0.8139(6)
C2_10 C 0.5086(10) 0.1218(3) 0.8782(3)
C3_10 C 0.5847(10) 0.0974(5) 0.9026(5)
C4_10 C 0.6500(11) 0.0765(8) 0.9235(8)
H1_10 H 0.7035(12) 0.0594(10) 0.9406(10)
H2_10 H 0.3598(11) 0.1161(8) 0.7748(8)
C5_10 C 0.3981(10) 0.1861(6) 0.8718(6)
H3_10 H 0.3598(11) 0.2252(8) 0.8839(8)
C6_13 C 0.1282(6) 0.8139(6) 0.3981(10)
C7_13 C 0.1218(3) 0.8782(3) 0.5086(10)
C8_13 C 0.0974(5) 0.9026(5) 0.5847(10)
C9_13 C 0.0765(8) 0.9235(8) 0.6500(11)
H4_13 H 0.0594(10) 0.9406(10) 0.7035(12)
H5_13 H 0.1161(8) 0.7748(8) 0.3598(11)
C10_13 C 0.1861(6) 0.8718(6) 0.3981(10)
H6_13 H 0.2252(8) 0.8839(8) 0.3598(11)
C6_14 C 0.1282(6) 0.1861(6) 0.6019(10)
C7_14 C 0.1218(3) 0.1218(3) 0.4914(10)
C8_14 C 0.0974(5) 0.0974(5) 0.4153(10)
C9_14 C 0.0765(8) 0.0765(8) 0.3500(11)
H4_14 H 0.0594(10) 0.0594(10) 0.2965(12)
H5_14 H 0.1161(8) 0.2252(8) 0.6402(11)
C10_14 C 0.1861(6) 0.1282(6) 0.6019(10)
H6_14 H 0.2252(8) 0.1161(8) 0.6402(11)
loop_
_geom_bond_atom_site_label_1
_geom_bond_atom_site_label_2
_geom_bond_site_symmetry_1
_geom_bond_site_symmetry_2
Co1 N1 1_555 1_555
C1 N1 1_555 1_555
H2 C1 1_555 1_555
C5 C1 1_555 1_555
H3 C5 1_555 1_555
C7 C8 1_555 1_555
C8 C9 1_555 1_555
C9 H4 1_555 1_555
Co2 N2 1_555 1_555
N6 Co1 1_555 1_555
C5 N2 1_555 1_555
C2 C3 1_555 1_555
C3 C4 1_555 1_555
C4 H1 1_555 1_555
C6 N3 1_555 1_555
N3 Co1_2 1_555 1_555
H5 C6 1_555 1_555
C10 C6 1_555 1_555
H6 C10 1_555 1_555
Co3_2 N4 1_555 1_555
N5 Co1_2 1_555 1_555
C10 N4 1_555 1_555
Co1_3 N1_2 1_555 1_555
C1_2 N1_2 1_555 1_555
H2_2 C1_2 1_555 1_555
C5_2 C1_2 1_555 1_555
H3_2 C5_2 1_555 1_555
C7_2 C8_2 1_555 1_555
C8_2 C9_2 1_555 1_555
C9_2 H4_2 1_555 1_555
Co2_3 N2_2 1_555 1_555
N6_2 Co1_3 1_555 1_555
C5_2 N2_2 1_555 1_555
C2_2 C3_2 1_555 1_555
C3_2 C4_2 1_555 1_555
C4_2 H1_2 1_555 1_555
C6_2 N3_2 1_555 1_555
N3_2 Co1_4 1_555 1_555
H5_2 C6_2 1_555 1_555
C10_2 C6_2 1_555 1_555
H6_2 C10_2 1_555 1_555
Co3_4 N4_2 1_555 1_555
N5_2 Co1_4 1_555 1_555
C10_2 N4_2 1_555 1_555
Co1_5 N1_3 1_555 1_555
C1_3 N1_3 1_555 1_555
H2_3 C1_3 1_555 1_555
C5_3 C1_3 1_555 1_555
H3_3 C5_3 1_555 1_555
C7_3 C8_3 1_555 1_555
C8_3 C9_3 1_555 1_555
C9_3 H4_3 1_555 1_555
Co3 N2_3 1_555 1_555
N6_3 Co1_5 1_555 1_555
C5_3 N2_3 1_555 1_555
C2_3 C3_3 1_555 1_555
C3_3 C4_3 1_555 1_555
C4_3 H1_3 1_555 1_555
C6_3 N3_3 1_555 1_555
N3_3 Co1_6 1_555 1_555
H5_3 C6_3 1_555 1_555
C10_3 C6_3 1_555 1_555
H6_3 C10_3 1_555 1_555
Co2_2 N4_3 1_555 1_555
N5_3 Co1_6 1_555 1_555
C10_3 N4_3 1_555 1_555
C2_4 C3_4 1_555 1_555
C3_4 C4_4 1_555 1_555
C4_4 H1_4 1_555 1_555
C6_4 N3_4 1_555 1_555
N3_4 Co1_7 1_555 1_555
H5_4 C6_4 1_555 1_555
C10_4 C6_4 1_555 1_555
H6_4 C10_4 1_555 1_555
Co3_5 N4_4 1_555 1_555
N5_4 Co1_7 1_555 1_555
C10_4 N4_4 1_555 1_555
Co1_8 N1_4 1_555 1_555
C1_4 N1_4 1_555 1_555
H2_4 C1_4 1_555 1_555
C5_4 C1_4 1_555 1_555
H3_4 C5_4 1_555 1_555
C7_4 C8_4 1_555 1_555
C8_4 C9_4 1_555 1_555
C9_4 H4_4 1_555 1_555
Co2_6 N2_4 1_555 1_555
N6_4 Co1_8 1_555 1_555
C5_4 N2_4 1_555 1_555
C6_5 N3_5 1_555 1_555
N3_5 Co2_5 1_555 1_555
H5_5 C6_5 1_555 1_555
C10_5 C6_5 1_555 1_555
H6_5 C10_5 1_555 1_555
Co3_7 N4_5 1_555 1_555
N5_5 Co2_5 1_555 1_555
C10_5 N4_5 1_555 1_555
C7_5 C8_5 1_555 1_555
C8_5 C9_5 1_555 1_555
C9_5 H4_5 1_555 1_555
N6_5 Co2_6 1_555 1_555
C2_5 C3_5 1_555 1_555
C3_5 C4_5 1_555 1_555
C4_5 H1_5 1_555 1_555
N5_6 Co3_5 1_555 1_555
Co3_6 N1_5 1_555 1_555
C1_5 N1_5 1_555 1_555
H2_5 C1_5 1_555 1_555
C5_5 C1_5 1_555 1_555
H3_5 C5_5 1_555 1_555
Co3_8 N2_5 1_555 1_555
N6_6 Co3_6 1_555 1_555
C5_5 N2_5 1_555 1_555
N5_7 Co3_7 1_555 1_555
N6_7 Co3_8 1_555 1_555
C7_6 C8_6 1_555 1_555
C8_6 C9_6 1_555 1_555
C9_6 H4_6 1_555 1_555
N6_8 Co2_3 1_555 1_555
C6_6 N3_6 1_555 1_555
N3_6 Co2_4 1_555 1_555
H5_6 C6_6 1_555 1_555
C10_6 C6_6 1_555 1_555
H6_6 C10_6 1_555 1_555
Co3_10 N4_6 1_555 1_555
N5_8 Co2_4 1_555 1_555
C10_6 N4_6 1_555 1_555
N5_9 Co2 1_555 1_555
N6_9 Co2_2 1_555 1_555
N6_10 Co3 1_555 1_555
N5_10 Co3_2 1_555 1_555
C6_7 N3_7 1_555 1_555
N3_7 Co3_3 1_555 1_555
H5_7 C6_7 1_555 1_555
C10_7 C6_7 1_555 1_555
H6_7 C10_7 1_555 1_555
Co3_9 N4_7 1_555 1_555
N5_11 Co3_3 1_555 1_555
C10_7 N4_7 1_555 1_555
C7_7 C8_7 1_555 1_555
C8_7 C9_7 1_555 1_555
C9_7 H4_7 1_555 1_555
N6_11 Co3_4 1_555 1_555
N5_12 Co3_9 1_555 1_555
N6_12 Co3_10 1_555 1_555
C1_6 N6_2 1_555 1_555
C2_6 C3_6 1_555 1_555
C3_6 C4_6 1_555 1_555
C4_6 H1_6 1_555 1_555
N6_2 C2_6 1_555 1_555
H2_6 C1_6 1_555 1_555
C5_6 C1_6 1_555 1_555
N5_6 C2_6 1_555 1_555
H3_6 C5_6 1_555 1_555
C5_6 N5_6 1_555 1_555
C6_8 N5_2 1_555 1_555
C7_8 C8_8 1_555 1_555
C8_8 C9_8 1_555 1_555
C9_8 H4_8 1_555 1_555
H5_8 C6_8 1_555 1_555
C10_8 C6_8 1_555 1_555
N5_5 C7_8 1_555 1_555
H6_8 C10_8 1_555 1_555
C7_8 N5_2 1_555 1_555
C10_8 N5_5 1_555 1_555
C6_9 N6 1_555 1_555
C7_9 C8_9 1_555 1_555
C8_9 C9_9 1_555 1_555
C9_9 H4_9 1_555 1_555
H5_9 C6_9 1_555 1_555
C10_9 C6_9 1_555 1_555
N6_4 C7_9 1_555 1_555
H6_9 C10_9 1_555 1_555
C7_9 N6 1_555 1_555
C10_9 N6_4 1_555 1_555
C1_7 N5 1_555 1_555
C2_7 C3_7 1_555 1_555
C3_7 C4_7 1_555 1_555
C4_7 H1_7 1_555 1_555
N5 C2_7 1_555 1_555
H2_7 C1_7 1_555 1_555
C5_7 C1_7 1_555 1_555
N6_7 C2_7 1_555 1_555
H3_7 C5_7 1_555 1_555
C5_7 N6_7 1_555 1_555
C6_10 N5_12 1_555 1_555
C7_10 C8_10 1_555 1_555
C8_10 C9_10 1_555 1_555
C9_10 H4_10 1_555 1_555
H5_10 C6_10 1_555 1_555
C10_10 C6_10 1_555 1_555
N6_6 C7_10 1_555 1_555
H6_10 C10_10 1_555 1_555
C7_10 N5_12 1_555 1_555
C10_10 N6_6 1_555 1_555
C1_8 N6_12 1_555 1_555
C2_8 C3_8 1_555 1_555
C3_8 C4_8 1_555 1_555
C4_8 H1_8 1_555 1_555
N6_12 C2_8 1_555 1_555
H2_8 C1_8 1_555 1_555
C5_8 C1_8 1_555 1_555
N6_5 C2_8 1_555 1_555
H3_8 C5_8 1_555 1_555
C5_8 N6_5 1_555 1_555
C1_9 N5_11 1_555 1_555
C2_9 C3_9 1_555 1_555
C3_9 C4_9 1_555 1_555
C4_9 H1_9 1_555 1_555
N5_11 C2_9 1_555 1_555
H2_9 C1_9 1_555 1_555
C5_9 C1_9 1_555 1_555
N5_10 C2_9 1_555 1_555
H3_9 C5_9 1_555 1_555
C5_9 N5_10 1_555 1_555
C6_11 N6_11 1_555 1_555
C7_11 C8_11 1_555 1_555
C8_11 C9_11 1_555 1_555
C9_11 H4_11 1_555 1_555
H5_11 C6_11 1_555 1_555
C10_11 C6_11 1_555 1_555
N6_9 C7_11 1_555 1_555
H6_11 C10_11 1_555 1_555
C7_11 N6_11 1_555 1_555
C10_11 N6_9 1_555 1_555
C6_12 N6_10 1_555 1_555
C7_12 C8_12 1_555 1_555
C8_12 C9_12 1_555 1_555
C9_12 H4_12 1_555 1_555
H5_12 C6_12 1_555 1_555
C10_12 C6_12 1_555 1_555
N6_8 C7_12 1_555 1_555
H6_12 C10_12 1_555 1_555
C7_12 N6_10 1_555 1_555
C10_12 N6_8 1_555 1_555
C1_10 N5_9 1_555 1_555
C2_10 C3_10 1_555 1_555
C3_10 C4_10 1_555 1_555
C4_10 H1_10 1_555 1_555
N5_9 C2_10 1_555 1_555
H2_10 C1_10 1_555 1_555
C5_10 C1_10 1_555 1_555
N5_8 C2_10 1_555 1_555
H3_10 C5_10 1_555 1_555
C5_10 N5_8 1_555 1_555
C6_13 N5_7 1_555 1_555
C7_13 C8_13 1_555 1_555
C8_13 C9_13 1_555 1_555
C9_13 H4_13 1_555 1_555
H5_13 C6_13 1_555 1_555
C10_13 C6_13 1_555 1_555
N5_3 C7_13 1_555 1_555
H6_13 C10_13 1_555 1_555
C7_13 N5_7 1_555 1_555
C10_13 N5_3 1_555 1_555
C6_14 N5_4 1_555 1_555
C7_14 C8_14 1_555 1_555
C8_14 C9_14 1_555 1_555
C9_14 H4_14 1_555 1_555
H5_14 C6_14 1_555 1_555
C10_14 C6_14 1_555 1_555
N6_3 C7_14 1_555 1_555
H6_14 C10_14 1_555 1_555
C7_14 N5_4 1_555 1_555
C10_14 N6_3 1_555 1_555

#END
