
###############################################################################
#
# This file contains modified crystal structure data generated from the
# MOF subset of the Cambridge Structural Database (CSD) v543 
# hosted by the Cambridge Crystallographic Data Centre (CCDC).
#
# This work is licensed under the Creative Commons
# Attribution-NonCommercial-ShareAlike 4.0 International License.
# To view a copy of this license, visit
# http://creativecommons.org/licenses/by-nc-sa/4.0/
# or send a letter to
# Creative Commons, PO Box 1866, Mountain View, CA 94042, USA.
#
# CIF created using the CSD Python API on 29 September 2022
# The structure has been converted into the P1 space group
# The structure has a 3D framework
# The original CSD entry CUFFEP is in the cubic crystal system
# The framework has been calculated to contain at least 10.0% void space
# The void calculation uses a probe of radius 1.32A, grid spacing 0.4
# The framework is charged, counterions have been retained in the structure
# H atom positions have been added when not included in the experimental data
#
###############################################################################

data_CUFFEP
_chemical_formula_moiety         '(C144 H48 In14 O88 6-)n'
_symmetry_cell_setting           triclinic
_symmetry_space_group_name_H-M   'P 1'
_symmetry_Int_Tables_number      1
_space_group_name_Hall           'P 1'
loop_
_symmetry_equiv_pos_site_id
_symmetry_equiv_pos_as_xyz
1 x,y,z
_cell_length_a                   20.46390(10)
_cell_length_b                   20.46390(10)
_cell_length_c                   20.46390(10)
_cell_angle_alpha                90
_cell_angle_beta                 90
_cell_angle_gamma                90
_cell_volume                     8569.69
loop_
_atom_site_label
_atom_site_type_symbol
_atom_site_fract_x
_atom_site_fract_y
_atom_site_fract_z
In1 In -0.0000 0.2500 0.3750
In5 In 0.2500 0.6250 0.5000
In6 In 0.2500 0.3750 0.0000
In7 In 0.3750 0.0000 0.2500
In8 In 0.1250 0.0000 0.7500
O5 O 0.0539(3) 0.3329(3) 0.4140(3)
O7 O 0.1671(3) 0.5860(3) 0.5539(3)
O8 O 0.0829(3) 0.1961(3) 0.3360(3)
O9 O 0.1961(3) 0.3360(3) 0.0829(3)
O10 O 0.3360(3) 0.0829(3) 0.1961(3)
O12 O 0.0860(3) 0.0539(3) 0.6671(3)
O24 O 0.1872(3) 0.5307(3) 0.4633(3)
O25 O 0.0628(3) 0.2867(3) 0.2807(3)
O26 O 0.2867(3) 0.2807(3) 0.0628(3)
O27 O 0.2807(3) 0.0628(3) 0.2867(3)
O28 O 0.0367(3) 0.1872(3) 0.4693(3)
C6 C 0.0302(5) 0.4040(4) 0.5024(4)
C7 C 0.0960(4) 0.4976(4) 0.5302(5)
C8 C 0.0024(4) 0.4698(5) 0.5960(4)
C9 C 0.1540(4) 0.2198(5) 0.2476(4)
C10 C 0.2476(4) 0.1540(4) 0.2198(5)
C11 C 0.2198(5) 0.2476(4) 0.1540(4)
C17 C 0.0826(4) 0.4420(4) 0.4896(4)
C18 C 0.0580(4) 0.5104(4) 0.5826(4)
C20 C 0.1920(4) 0.1674(4) 0.2604(4)
C21 C 0.2604(4) 0.1920(4) 0.1674(4)
C22 C 0.1674(4) 0.2604(4) 0.1920(4)
C25 C 0.0104(4) 0.0826(4) 0.5580(4)
C28 C 0.0138(5) 0.3461(4) 0.4598(4)
C30 C 0.1539(4) 0.5402(4) 0.5138(5)
C31 C 0.0961(4) 0.2362(5) 0.2902(4)
C32 C 0.2362(5) 0.2902(4) 0.0961(4)
C33 C 0.2902(4) 0.0961(4) 0.2362(5)
C35 C 0.0402(4) 0.0138(5) 0.6539(4)
H4 H 0.301363 0.180508 0.135434
H5 H 0.135434 0.301363 0.180508
H7 H 0.0694916 0.551363 0.614566
H8 H 0.0513635 0.114566 0.569492
H9 H 0.180508 0.135434 0.301363
H11 H 0.114566 0.430508 0.448637
In6_2 In 0.2500 0.3750 1.0000
In7_2 In 0.3750 1.0000 0.2500
In8_2 In 0.1250 1.0000 0.7500
O29 O 0.0307(3) 0.9633(3) 0.6872(3)
In1_2 In 1.0000 0.2500 0.3750
O1 O 0.9171(3) 0.3039(3) 0.3360(3)
O2 O 0.9372(3) 0.2133(3) 0.2807(3)
C1 C 0.8460(4) 0.2802(5) 0.2476(4)
C2 C 0.8080(4) 0.3326(4) 0.2604(4)
C3 C 0.9039(4) 0.2638(5) 0.2902(4)
In2 In 0.7500 0.1250 0.0000
In3 In 0.6250 0.5000 0.2500
In4 In 0.8750 0.5000 0.7500
O3 O 0.8039(3) 0.1640(3) 0.0829(3)
O4 O 0.6640(3) 0.4171(3) 0.1961(3)
O6 O 0.9140(3) 0.4461(3) 0.6671(3)
O11 O 0.9461(3) 0.1671(3) 0.4140(3)
O16 O 0.6671(3) 0.0860(3) 0.0539(3)
O17 O 0.5860(3) 0.5539(3) 0.1671(3)
O18 O 0.6640(3) 0.5829(3) 0.3039(3)
O19 O 0.5860(3) 0.4461(3) 0.3329(3)
O20 O 0.7133(3) 0.2193(3) 0.0628(3)
O21 O 0.7193(3) 0.4372(3) 0.2867(3)
O22 O 0.9633(3) 0.3128(3) 0.4693(3)
O23 O 0.9693(3) 0.5367(3) 0.6872(3)
O31 O 0.8128(3) 0.0307(3) 0.0367(3)
O34 O 0.5307(3) 0.4633(3) 0.1872(3)
O35 O 0.7193(3) 0.5628(3) 0.2133(3)
O36 O 0.5307(3) 0.5367(3) 0.3128(3)
C4 C 0.7524(4) 0.3460(4) 0.2198(5)
C5 C 0.7802(5) 0.2524(4) 0.1540(4)
C12 C 0.9698(5) 0.0960(4) 0.5024(4)
C13 C 0.9040(4) 0.0024(4) 0.5302(5)
C14 C 0.9976(4) 0.0302(5) 0.5960(4)
C15 C 0.7396(4) 0.3080(4) 0.1674(4)
C16 C 0.8326(4) 0.2396(4) 0.1920(4)
C19 C 0.9896(4) 0.4174(4) 0.5580(4)
C23 C 0.9174(4) 0.0580(4) 0.4896(4)
C26 C 0.7638(5) 0.2098(4) 0.0961(4)
C27 C 0.7098(4) 0.4039(4) 0.2362(5)
C29 C 0.9598(4) 0.4862(5) 0.6539(4)
C34 C 0.9862(5) 0.1539(4) 0.4598(4)
H1 H 0.819492 0.364566 0.301363
H2 H 0.698637 0.319492 0.135434
H3 H 0.864566 0.198637 0.180508
H10 H 0.948637 0.385434 0.569492
H12 H 0.885434 0.0694916 0.448637
In2_2 In 0.7500 0.1250 1.0000
O14 O 0.8329(3) 0.0860(3) 0.9461(3)
O15 O 0.6961(3) 0.1640(3) 0.9171(3)
O32 O 0.7867(3) 0.2193(3) 0.9372(3)
O33 O 0.6872(3) 0.0307(3) 0.9633(3)
In9 In 0.7500 0.8750 0.5000
O13 O 0.8329(3) 0.9140(3) 0.5539(3)
O30 O 0.8128(3) 0.9693(3) 0.4633(3)
C24 C 0.9420(4) 0.9896(4) 0.5826(4)
C36 C 0.8461(4) 0.9598(4) 0.5138(5)
H6 H 0.930508 0.948637 0.614566
O29_2 O 0.4693(3) 0.0367(3) 0.1872(3)
C24_2 C 0.5580(4) 0.0104(4) 0.0826(4)
C36_2 C 0.6539(4) 0.0402(4) 0.0138(5)
H6_2 H 0.569492 0.0513635 0.114566
O7_2 O 0.3329(3) 0.4140(3) 0.0539(3)
O12_2 O 0.4140(3) 0.9461(3) 0.1671(3)
C6_2 C 0.4698(5) 0.5960(4) 0.0024(4)
C7_2 C 0.4040(4) 0.5024(4) 0.0302(5)
C8_2 C 0.4976(4) 0.5302(5) 0.0960(4)
C12_2 C 0.5302(5) 0.9040(4) 0.0024(4)
C13_2 C 0.5960(4) 0.9976(4) 0.0302(5)
C14_2 C 0.5024(4) 0.9698(5) 0.0960(4)
C18_2 C 0.4420(4) 0.4896(4) 0.0826(4)
C19_2 C 0.5104(4) 0.5826(4) 0.0580(4)
C25_2 C 0.4896(4) 0.9174(4) 0.0580(4)
C29_2 C 0.5402(4) 0.5138(5) 0.1539(4)
C30_2 C 0.3461(4) 0.4598(4) 0.0138(5)
C35_2 C 0.4598(4) 0.9862(5) 0.1539(4)
H7_2 H 0.430508 0.448637 0.114566
H8_2 H 0.448637 0.885434 0.0694916
H10_2 H 0.551363 0.614566 0.0694916
In1_3 In 0.5000 0.7500 0.8750
O1_2 O 0.5829(3) 0.6961(3) 0.8360(3)
O2_2 O 0.5628(3) 0.7867(3) 0.7807(3)
C1_2 C 0.6540(4) 0.7198(5) 0.7476(4)
C2_2 C 0.6920(4) 0.6674(4) 0.7604(4)
C3_2 C 0.5961(4) 0.7362(5) 0.7902(4)
O3_2 O 0.6961(3) 0.8360(3) 0.5829(3)
O4_2 O 0.8360(3) 0.5829(3) 0.6961(3)
O5_2 O 0.4461(3) 0.6671(3) 0.9140(3)
O8_2 O 0.4171(3) 0.8039(3) 0.8360(3)
O9_2 O 0.3039(3) 0.6640(3) 0.5829(3)
O10_2 O 0.1640(3) 0.9171(3) 0.6961(3)
O11_2 O 0.5539(3) 0.8329(3) 0.9140(3)
O14_2 O 0.6671(3) 0.9140(3) 0.4461(3)
O15_2 O 0.8039(3) 0.8360(3) 0.4171(3)
O18_2 O 0.8360(3) 0.4171(3) 0.8039(3)
O19_2 O 0.9140(3) 0.5539(3) 0.8329(3)
O20_2 O 0.7867(3) 0.7807(3) 0.5628(3)
O21_2 O 0.7807(3) 0.5628(3) 0.7867(3)
O22_2 O 0.5367(3) 0.6872(3) 0.9693(3)
O24_2 O 0.3128(3) 0.4693(3) 0.9633(3)
O25_2 O 0.4372(3) 0.7133(3) 0.7807(3)
O26_2 O 0.2133(3) 0.7193(3) 0.5628(3)
O27_2 O 0.2193(3) 0.9372(3) 0.7867(3)
O28_2 O 0.4633(3) 0.8128(3) 0.9693(3)
O31_2 O 0.6872(3) 0.9693(3) 0.5367(3)
O32_2 O 0.7133(3) 0.7807(3) 0.4372(3)
O35_2 O 0.7807(3) 0.4372(3) 0.7133(3)
O36_2 O 0.9693(3) 0.4633(3) 0.8128(3)
C4_2 C 0.7476(4) 0.6540(4) 0.7198(5)
C5_2 C 0.7198(5) 0.7476(4) 0.6540(4)
C9_2 C 0.3460(4) 0.7802(5) 0.7476(4)
C10_2 C 0.2524(4) 0.8460(4) 0.7198(5)
C11_2 C 0.2802(5) 0.7524(4) 0.6540(4)
C15_2 C 0.7604(4) 0.6920(4) 0.6674(4)
C16_2 C 0.6674(4) 0.7604(4) 0.6920(4)
C17_2 C 0.4174(4) 0.5580(4) 0.9896(4)
C20_2 C 0.3080(4) 0.8326(4) 0.7604(4)
C21_2 C 0.2396(4) 0.8080(4) 0.6674(4)
C22_2 C 0.3326(4) 0.7396(4) 0.6920(4)
C23_2 C 0.5826(4) 0.9420(4) 0.9896(4)
C26_2 C 0.7362(5) 0.7902(4) 0.5961(4)
C27_2 C 0.7902(4) 0.5961(4) 0.7362(5)
C28_2 C 0.4862(5) 0.6539(4) 0.9598(4)
C31_2 C 0.4039(4) 0.7638(5) 0.7902(4)
C32_2 C 0.2638(5) 0.7098(4) 0.5961(4)
C33_2 C 0.2098(4) 0.9039(4) 0.7362(5)
C34_2 C 0.5138(5) 0.8461(4) 0.9598(4)
H1_2 H 0.680508 0.635434 0.801363
H2_2 H 0.801363 0.680508 0.635434
H3_2 H 0.635434 0.801363 0.680508
H4_2 H 0.198637 0.819492 0.635434
H5_2 H 0.364566 0.698637 0.680508
H9_2 H 0.319492 0.864566 0.801363
H11_2 H 0.385434 0.569492 0.948637
H12_2 H 0.614566 0.930508 0.948637
O17_2 O 0.4140(3) 0.0539(3) 0.3329(3)
O23_2 O 0.0307(3) 0.0367(3) 0.8128(3)
In1_4 In 0.0000 0.7500 0.1250
O1_3 O 0.0829(3) 0.8039(3) 0.1640(3)
O2_3 O 0.0628(3) 0.7133(3) 0.2193(3)
C1_3 C 0.1540(4) 0.7802(5) 0.2524(4)
C2_3 C 0.1920(4) 0.8326(4) 0.2396(4)
C3_3 C 0.0961(4) 0.7638(5) 0.2098(4)
O3_3 O 0.1961(3) 0.6640(3) 0.4171(3)
O4_3 O 0.3360(3) 0.9171(3) 0.3039(3)
O11_3 O 0.0539(3) 0.6671(3) 0.0860(3)
O16_2 O 0.3329(3) 0.5860(3) 0.4461(3)
O20_3 O 0.2867(3) 0.7193(3) 0.4372(3)
O21_3 O 0.2807(3) 0.9372(3) 0.2133(3)
O22_3 O 0.0367(3) 0.8128(3) 0.0307(3)
O30_2 O 0.1872(3) 0.4693(3) 0.0367(3)
O33_2 O 0.3128(3) 0.5307(3) 0.5367(3)
O34_2 O 0.4693(3) 0.9633(3) 0.3128(3)
C4_3 C 0.2476(4) 0.8460(4) 0.2802(5)
C5_3 C 0.2198(5) 0.7524(4) 0.3460(4)
C15_3 C 0.2604(4) 0.8080(4) 0.3326(4)
C16_3 C 0.1674(4) 0.7396(4) 0.3080(4)
C23_3 C 0.0826(4) 0.5580(4) 0.0104(4)
C26_3 C 0.2362(5) 0.7098(4) 0.4039(4)
C27_3 C 0.2902(4) 0.9039(4) 0.2638(5)
C34_3 C 0.0138(5) 0.6539(4) 0.0402(4)
H1_3 H 0.180508 0.864566 0.198637
H2_3 H 0.301363 0.819492 0.364566
H3_3 H 0.135434 0.698637 0.319492
H12_3 H 0.114566 0.569492 0.0513635
O6_2 O 0.0860(3) 0.9461(3) 0.8329(3)
O13_2 O 0.1671(3) 0.4140(3) 0.9461(3)
C12_3 C 0.0302(5) 0.5960(4) 0.9976(4)
C13_3 C 0.0960(4) 0.5024(4) 0.9698(5)
C14_3 C 0.0024(4) 0.5302(5) 0.9040(4)
C19_3 C 0.0104(4) 0.9174(4) 0.9420(4)
C24_3 C 0.0580(4) 0.4896(4) 0.9174(4)
C29_3 C 0.0402(4) 0.9862(5) 0.8461(4)
C36_3 C 0.1539(4) 0.4598(4) 0.9862(5)
H6_3 H 0.0694916 0.448637 0.885434
H10_3 H 0.0513635 0.885434 0.930508
C18_3 C 0.9420(4) 0.0104(4) 0.9174(4)
C30_3 C 0.8461(4) 0.0402(4) 0.9862(5)
H7_3 H 0.930508 0.0513635 0.885434
In1_5 In 1.0000 0.7500 0.1250
O5_3 O 0.9461(3) 0.8329(3) 0.0860(3)
O8_3 O 0.9171(3) 0.6961(3) 0.1640(3)
O25_3 O 0.9372(3) 0.7867(3) 0.2193(3)
O28_3 O 0.9633(3) 0.6872(3) 0.0307(3)
C9_3 C 0.8460(4) 0.7198(5) 0.2524(4)
C10_3 C 0.7524(4) 0.6540(4) 0.2802(5)
C11_3 C 0.7802(5) 0.7476(4) 0.3460(4)
C17_3 C 0.9174(4) 0.9420(4) 0.0104(4)
C20_3 C 0.8080(4) 0.6674(4) 0.2396(4)
C21_3 C 0.7396(4) 0.6920(4) 0.3326(4)
C22_3 C 0.8326(4) 0.7604(4) 0.3080(4)
C28_3 C 0.9862(5) 0.8461(4) 0.0402(4)
C31_3 C 0.9039(4) 0.7362(5) 0.2098(4)
C32_3 C 0.7638(5) 0.7902(4) 0.4039(4)
C33_3 C 0.7098(4) 0.5961(4) 0.2638(5)
H4_3 H 0.698637 0.680508 0.364566
H5_3 H 0.864566 0.801363 0.319492
H9_3 H 0.819492 0.635434 0.198637
H11_3 H 0.885434 0.930508 0.0513635
C6_3 C 0.9698(5) 0.9040(4) 0.9976(4)
C7_3 C 0.9040(4) 0.9976(4) 0.9698(5)
C8_3 C 0.9976(4) 0.9698(5) 0.9040(4)
C25_3 C 0.9896(4) 0.5826(4) 0.9420(4)
C35_3 C 0.9598(4) 0.5138(5) 0.8461(4)
H8_3 H 0.948637 0.614566 0.930508
In1_6 In 0.5000 0.2500 0.6250
O1_4 O 0.4171(3) 0.1961(3) 0.6640(3)
O2_4 O 0.4372(3) 0.2867(3) 0.7193(3)
C1_4 C 0.3460(4) 0.2198(5) 0.7524(4)
C2_4 C 0.3080(4) 0.1674(4) 0.7396(4)
C3_4 C 0.4039(4) 0.2362(5) 0.7098(4)
O3_4 O 0.3039(3) 0.3360(3) 0.9171(3)
O4_4 O 0.1640(3) 0.0829(3) 0.8039(3)
O5_4 O 0.5539(3) 0.1671(3) 0.5860(3)
O8_4 O 0.5829(3) 0.3039(3) 0.6640(3)
O11_4 O 0.4461(3) 0.3329(3) 0.5860(3)
O20_4 O 0.2133(3) 0.2807(3) 0.9372(3)
O21_4 O 0.2193(3) 0.0628(3) 0.7133(3)
O22_4 O 0.4633(3) 0.1872(3) 0.5307(3)
O25_4 O 0.5628(3) 0.2133(3) 0.7193(3)
O28_4 O 0.5367(3) 0.3128(3) 0.5307(3)
C4_4 C 0.2524(4) 0.1540(4) 0.7802(5)
C5_4 C 0.2802(5) 0.2476(4) 0.8460(4)
C6_4 C 0.5302(5) 0.0960(4) 0.4976(4)
C7_4 C 0.5960(4) 0.0024(4) 0.4698(5)
C8_4 C 0.5024(4) 0.0302(5) 0.4040(4)
C9_4 C 0.6540(4) 0.2802(5) 0.7524(4)
C10_4 C 0.7476(4) 0.3460(4) 0.7802(5)
C11_4 C 0.7198(5) 0.2524(4) 0.8460(4)
C12_4 C 0.4698(5) 0.4040(4) 0.4976(4)
C13_4 C 0.4040(4) 0.4976(4) 0.4698(5)
C14_4 C 0.4976(4) 0.4698(5) 0.4040(4)
C15_4 C 0.2396(4) 0.1920(4) 0.8326(4)
C16_4 C 0.3326(4) 0.2604(4) 0.8080(4)
C17_4 C 0.5826(4) 0.0580(4) 0.5104(4)
C19_4 C 0.4896(4) 0.0826(4) 0.4420(4)
C20_4 C 0.6920(4) 0.3326(4) 0.7396(4)
C21_4 C 0.7604(4) 0.3080(4) 0.8326(4)
C22_4 C 0.6674(4) 0.2396(4) 0.8080(4)
C23_4 C 0.4174(4) 0.4420(4) 0.5104(4)
C24_4 C 0.4420(4) 0.5104(4) 0.4174(4)
C25_4 C 0.5104(4) 0.4174(4) 0.4420(4)
C26_4 C 0.2638(5) 0.2902(4) 0.9039(4)
C27_4 C 0.2098(4) 0.0961(4) 0.7638(5)
C28_4 C 0.5138(5) 0.1539(4) 0.5402(4)
C29_4 C 0.4598(4) 0.0138(5) 0.3461(4)
C31_4 C 0.5961(4) 0.2638(5) 0.7098(4)
C32_4 C 0.7362(5) 0.2098(4) 0.9039(4)
C33_4 C 0.7902(4) 0.4039(4) 0.7638(5)
C34_4 C 0.4862(5) 0.3461(4) 0.5402(4)
C35_4 C 0.5402(4) 0.4862(5) 0.3461(4)
C36_4 C 0.3461(4) 0.5402(4) 0.4862(5)
H1_4 H 0.319492 0.135434 0.698637
H2_4 H 0.198637 0.180508 0.864566
H3_4 H 0.364566 0.301363 0.819492
H4_4 H 0.801363 0.319492 0.864566
H5_4 H 0.635434 0.198637 0.819492
H6_4 H 0.430508 0.551363 0.385434
H8_4 H 0.551363 0.385434 0.430508
H9_4 H 0.680508 0.364566 0.698637
H10_4 H 0.448637 0.114566 0.430508
H11_4 H 0.614566 0.0694916 0.551363
H12_4 H 0.385434 0.430508 0.551363
C18_4 C 0.5580(4) 0.9896(4) 0.4174(4)
C30_4 C 0.6539(4) 0.9598(4) 0.4862(5)
H7_4 H 0.569492 0.948637 0.385434
loop_
_geom_bond_atom_site_label_1
_geom_bond_atom_site_label_2
_geom_bond_site_symmetry_1
_geom_bond_site_symmetry_2
In5 O7 1_555 1_555
In6 O9 1_555 1_555
In7 O10 1_555 1_555
In8 O12 1_555 1_555
O5 In1 1_555 1_555
O7 C30 1_555 1_555
O8 In1 1_555 1_555
O9 C32 1_555 1_555
O10 C33 1_555 1_555
O12 C35 1_555 1_555
O24 In5 1_555 1_555
O25 In1 1_555 1_555
O26 In6 1_555 1_555
O27 In7 1_555 1_555
O28 In1 1_555 1_555
C6 C17 1_555 1_555
C7 C17 1_555 1_555
C8 C18 1_555 1_555
C9 C20 1_555 1_555
C10 C20 1_555 1_555
C11 C21 1_555 1_555
C18 C7 1_555 1_555
C21 C10 1_555 1_555
C22 C9 1_555 1_555
C28 O5 1_555 1_555
C30 O24 1_555 1_555
C31 O8 1_555 1_555
C32 O26 1_555 1_555
C33 O27 1_555 1_555
O25 C31 1_555 1_555
C6 C28 1_555 1_555
C7 C30 1_555 1_555
C9 C31 1_555 1_555
C10 C33 1_555 1_555
C11 C22 1_555 1_555
C11 C32 1_555 1_555
C21 H4 1_555 1_555
C22 H5 1_555 1_555
C18 H7 1_555 1_555
C25 H8 1_555 1_555
C20 H9 1_555 1_555
C17 H11 1_555 1_555
O29 In8_2 1_555 1_555
In1_2 O1 1_555 1_555
O1 C3 1_555 1_555
O2 In1_2 1_555 1_555
C1 C2 1_555 1_555
C2 C4 1_555 1_555
C3 O2 1_555 1_555
In2 O3 1_555 1_555
In3 O4 1_555 1_555
In4 O6 1_555 1_555
O3 C26 1_555 1_555
O4 C27 1_555 1_555
O6 C29 1_555 1_555
O11 In1_2 1_555 1_555
O16 In2 1_555 1_555
O17 In3 1_555 1_555
O18 In3 1_555 1_555
O19 In3 1_555 1_555
O20 In2 1_555 1_555
O21 In3 1_555 1_555
O22 In1_2 1_555 1_555
O23 In4 1_555 1_555
O31 In2 1_555 1_555
O34 In3 1_555 1_555
O35 In3 1_555 1_555
O36 In3 1_555 1_555
C4 C15 1_555 1_555
C5 C15 1_555 1_555
C12 C23 1_555 1_555
C13 C23 1_555 1_555
C16 C1 1_555 1_555
C26 O20 1_555 1_555
C27 O21 1_555 1_555
C29 O23 1_555 1_555
C34 O11 1_555 1_555
C1 C3 1_555 1_555
C4 C27 1_555 1_555
C5 C16 1_555 1_555
C5 C26 1_555 1_555
C12 C34 1_555 1_555
C2 H1 1_555 1_555
C15 H2 1_555 1_555
C16 H3 1_555 1_555
C19 H10 1_555 1_555
C23 H12 1_555 1_555
O14 In2_2 1_555 1_555
O15 In2_2 1_555 1_555
O32 In2_2 1_555 1_555
O33 In2_2 1_555 1_555
In9 O13 1_555 1_555
O13 C36 1_555 1_555
O30 In9 1_555 1_555
C36 O30 1_555 1_555
C24 H6 1_555 1_555
O16 C36_2 1_555 1_555
O29_2 In7 1_555 1_555
C24_2 H6_2 1_555 1_555
In6 O7_2 1_555 1_555
In7_2 O12_2 1_555 1_555
O17 C29_2 1_555 1_555
O7_2 C30_2 1_555 1_555
O12_2 C35_2 1_555 1_555
C8_2 C18_2 1_555 1_555
C18_2 C7_2 1_555 1_555
C19_2 C6_2 1_555 1_555
C25_2 C12_2 1_555 1_555
C29_2 O34 1_555 1_555
C7_2 C30_2 1_555 1_555
C8_2 C19_2 1_555 1_555
C8_2 C29_2 1_555 1_555
C14_2 C25_2 1_555 1_555
C14_2 C35_2 1_555 1_555
C18_2 H7_2 1_555 1_555
C25_2 H8_2 1_555 1_555
C19_2 H10_2 1_555 1_555
In1_3 O1_2 1_555 1_555
O1_2 C3_2 1_555 1_555
O2_2 In1_3 1_555 1_555
C1_2 C2_2 1_555 1_555
C2_2 C4_2 1_555 1_555
C3_2 O2_2 1_555 1_555
In9 O3_2 1_555 1_555
In4 O4_2 1_555 1_555
In5 O9_2 1_555 1_555
In8_2 O10_2 1_555 1_555
O3_2 C26_2 1_555 1_555
O4_2 C27_2 1_555 1_555
O5_2 In1_3 1_555 1_555
O8_2 In1_3 1_555 1_555
O9_2 C32_2 1_555 1_555
O10_2 C33_2 1_555 1_555
O11_2 In1_3 1_555 1_555
O14_2 In9 1_555 1_555
O15_2 In9 1_555 1_555
O18_2 In4 1_555 1_555
O19_2 In4 1_555 1_555
O20_2 In9 1_555 1_555
O21_2 In4 1_555 1_555
O22_2 In1_3 1_555 1_555
O24_2 In6_2 1_555 1_555
O25_2 In1_3 1_555 1_555
O26_2 In5 1_555 1_555
O27_2 In8_2 1_555 1_555
O28_2 In1_3 1_555 1_555
O31_2 In9 1_555 1_555
O32_2 In9 1_555 1_555
O35_2 In4 1_555 1_555
O36_2 In4 1_555 1_555
C4_2 C15_2 1_555 1_555
C5_2 C15_2 1_555 1_555
C9_2 C20_2 1_555 1_555
C10_2 C20_2 1_555 1_555
C11_2 C21_2 1_555 1_555
C16_2 C1_2 1_555 1_555
C21_2 C10_2 1_555 1_555
C22_2 C9_2 1_555 1_555
C26_2 O20_2 1_555 1_555
C27_2 O21_2 1_555 1_555
C28_2 O5_2 1_555 1_555
C31_2 O8_2 1_555 1_555
C32_2 O26_2 1_555 1_555
C33_2 O27_2 1_555 1_555
C34_2 O11_2 1_555 1_555
C1_2 C3_2 1_555 1_555
O22_2 C28_2 1_555 1_555
O25_2 C31_2 1_555 1_555
O28_2 C34_2 1_555 1_555
C4_2 C27_2 1_555 1_555
C5_2 C16_2 1_555 1_555
C5_2 C26_2 1_555 1_555
C9_2 C31_2 1_555 1_555
C10_2 C33_2 1_555 1_555
C11_2 C22_2 1_555 1_555
C11_2 C32_2 1_555 1_555
C2_2 H1_2 1_555 1_555
C15_2 H2_2 1_555 1_555
C16_2 H3_2 1_555 1_555
C21_2 H4_2 1_555 1_555
C22_2 H5_2 1_555 1_555
C20_2 H9_2 1_555 1_555
C17_2 H11_2 1_555 1_555
C23_2 H12_2 1_555 1_555
O17_2 In7 1_555 1_555
O23_2 In8 1_555 1_555
In1_4 O1_3 1_555 1_555
O1_3 C3_3 1_555 1_555
O2_3 In1_4 1_555 1_555
C1_3 C2_3 1_555 1_555
C2_3 C4_3 1_555 1_555
C3_3 O2_3 1_555 1_555
In5 O3_3 1_555 1_555
In7_2 O4_3 1_555 1_555
O3_3 C26_3 1_555 1_555
O4_3 C27_3 1_555 1_555
O11_3 In1_4 1_555 1_555
O16_2 In5 1_555 1_555
O20_3 In5 1_555 1_555
O21_3 In7_2 1_555 1_555
O22_3 In1_4 1_555 1_555
O30_2 In6 1_555 1_555
O33_2 In5 1_555 1_555
O34_2 In7_2 1_555 1_555
C4_3 C15_3 1_555 1_555
C5_3 C15_3 1_555 1_555
C16_3 C1_3 1_555 1_555
C26_3 O20_3 1_555 1_555
C27_3 O21_3 1_555 1_555
C34_3 O11_3 1_555 1_555
C1_3 C3_3 1_555 1_555
C4_3 C27_3 1_555 1_555
C5_3 C16_3 1_555 1_555
C5_3 C26_3 1_555 1_555
C2_3 H1_3 1_555 1_555
C15_3 H2_3 1_555 1_555
C16_3 H3_3 1_555 1_555
C23_3 H12_3 1_555 1_555
In8_2 O6_2 1_555 1_555
In6_2 O13_2 1_555 1_555
O6_2 C29_3 1_555 1_555
O13_2 C36_3 1_555 1_555
C14_3 C24_3 1_555 1_555
C24_3 C13_3 1_555 1_555
C13_3 C36_3 1_555 1_555
C24_3 H6_3 1_555 1_555
C19_3 H10_3 1_555 1_555
O14 C30_3 1_555 1_555
C18_3 H7_3 1_555 1_555
O5_3 In1_5 1_555 1_555
O8_3 In1_5 1_555 1_555
O15_2 C32_3 1_555 1_555
O18 C33_3 1_555 1_555
O25_3 In1_5 1_555 1_555
O28_3 In1_5 1_555 1_555
C9_3 C20_3 1_555 1_555
C10_3 C20_3 1_555 1_555
C11_3 C21_3 1_555 1_555
C21_3 C10_3 1_555 1_555
C22_3 C9_3 1_555 1_555
C28_3 O5_3 1_555 1_555
C31_3 O8_3 1_555 1_555
C32_3 O32_2 1_555 1_555
C33_3 O35 1_555 1_555
O25_3 C31_3 1_555 1_555
C9_3 C31_3 1_555 1_555
C10_3 C33_3 1_555 1_555
C11_3 C22_3 1_555 1_555
C11_3 C32_3 1_555 1_555
C21_3 H4_3 1_555 1_555
C22_3 H5_3 1_555 1_555
C20_3 H9_3 1_555 1_555
C17_3 H11_3 1_555 1_555
O19_2 C35_3 1_555 1_555
C35_3 O36_2 1_555 1_555
C25_3 H8_3 1_555 1_555
In1_6 O1_4 1_555 1_555
O1_4 C3_4 1_555 1_555
O2_4 In1_6 1_555 1_555
C1_4 C2_4 1_555 1_555
C2_4 C4_4 1_555 1_555
C3_4 O2_4 1_555 1_555
In6_2 O3_4 1_555 1_555
In8 O4_4 1_555 1_555
O3_4 C26_4 1_555 1_555
O4_4 C27_4 1_555 1_555
O5_4 In1_6 1_555 1_555
O17_2 C29_4 1_555 1_555
O8_4 In1_6 1_555 1_555
O15 C32_4 1_555 1_555
O18_2 C33_4 1_555 1_555
O11_4 In1_6 1_555 1_555
O19 C35_4 1_555 1_555
O16_2 C36_4 1_555 1_555
O20_4 In6_2 1_555 1_555
O21_4 In8 1_555 1_555
O22_4 In1_6 1_555 1_555
O25_4 In1_6 1_555 1_555
O28_4 In1_6 1_555 1_555
C4_4 C15_4 1_555 1_555
C5_4 C15_4 1_555 1_555
C6_4 C17_4 1_555 1_555
C7_4 C17_4 1_555 1_555
C9_4 C20_4 1_555 1_555
C10_4 C20_4 1_555 1_555
C11_4 C21_4 1_555 1_555
C12_4 C23_4 1_555 1_555
C13_4 C23_4 1_555 1_555
C14_4 C24_4 1_555 1_555
C16_4 C1_4 1_555 1_555
C19_4 C6_4 1_555 1_555
C21_4 C10_4 1_555 1_555
C22_4 C9_4 1_555 1_555
C24_4 C13_4 1_555 1_555
C25_4 C12_4 1_555 1_555
C26_4 O20_4 1_555 1_555
C27_4 O21_4 1_555 1_555
C28_4 O5_4 1_555 1_555
C31_4 O8_4 1_555 1_555
C32_4 O32 1_555 1_555
C33_4 O35_2 1_555 1_555
C34_4 O11_4 1_555 1_555
C35_4 O36 1_555 1_555
C36_4 O33_2 1_555 1_555
C1_4 C3_4 1_555 1_555
O22_4 C28_4 1_555 1_555
O25_4 C31_4 1_555 1_555
O28_4 C34_4 1_555 1_555
C4_4 C27_4 1_555 1_555
C5_4 C16_4 1_555 1_555
C5_4 C26_4 1_555 1_555
C6_4 C28_4 1_555 1_555
C8_4 C19_4 1_555 1_555
C8_4 C29_4 1_555 1_555
C9_4 C31_4 1_555 1_555
C10_4 C33_4 1_555 1_555
C11_4 C22_4 1_555 1_555
C11_4 C32_4 1_555 1_555
C12_4 C34_4 1_555 1_555
C13_4 C36_4 1_555 1_555
C14_4 C25_4 1_555 1_555
C14_4 C35_4 1_555 1_555
C2_4 H1_4 1_555 1_555
C15_4 H2_4 1_555 1_555
C16_4 H3_4 1_555 1_555
C21_4 H4_4 1_555 1_555
C22_4 H5_4 1_555 1_555
C24_4 H6_4 1_555 1_555
C25_4 H8_4 1_555 1_555
C20_4 H9_4 1_555 1_555
C19_4 H10_4 1_555 1_555
C17_4 H11_4 1_555 1_555
C23_4 H12_4 1_555 1_555
O14_2 C30_4 1_555 1_555
C30_4 O31_2 1_555 1_555
C18_4 H7_4 1_555 1_555

#END
