
###############################################################################
#
# This file contains modified crystal structure data generated from the
# MOF subset of the Cambridge Structural Database (CSD) v543 
# hosted by the Cambridge Crystallographic Data Centre (CCDC).
#
# This work is licensed under the Creative Commons
# Attribution-NonCommercial-ShareAlike 4.0 International License.
# To view a copy of this license, visit
# http://creativecommons.org/licenses/by-nc-sa/4.0/
# or send a letter to
# Creative Commons, PO Box 1866, Mountain View, CA 94042, USA.
#
# CIF created using the CSD Python API on 29 September 2022
# The structure has been converted into the P1 space group
# The structure has a 3D framework
# The original CSD entry CUHLID is in the monoclinic crystal system
# The original CSD entry CUHLID is in a Sohncke space group
# The framework has been calculated to contain at least 10.0% void space
# The void calculation uses a probe of radius 1.32A, grid spacing 0.4
#
###############################################################################

data_CUHLID
_chemical_formula_moiety         '(C48 H32 Co4 N8 O15)n'
_symmetry_cell_setting           triclinic
_symmetry_space_group_name_H-M   'P 1'
_symmetry_Int_Tables_number      1
_space_group_name_Hall           'P 1'
loop_
_symmetry_equiv_pos_site_id
_symmetry_equiv_pos_as_xyz
1 x,y,z
_cell_length_a                   9.8029(4)
_cell_length_b                   12.7788(5)
_cell_length_c                   10.8370(5)
_cell_angle_alpha                90
_cell_angle_beta                 100.881(2)
_cell_angle_gamma                90
_cell_volume                     1333.14
loop_
_atom_site_label
_atom_site_type_symbol
_atom_site_fract_x
_atom_site_fract_y
_atom_site_fract_z
Co8 Co 0.12316(19) 0.07997(19) 0.75086(18)
Co1 Co 0.37280(18) 0.58160(19) 0.25104(18)
O1 O 0.2701(8) 0.6731(7) 0.3587(8)
O2 O 0.1965(8) 0.5400(7) 0.1231(8)
O4 O 0.6868(8) 0.5501(6) 0.1211(8)
N1 N 0.1398(9) 0.9400(8) 0.6490(10)
O7 O 0.4821(8) 0.4879(7) 0.1433(8)
O8 O 0.0573(8) 0.6149(7) 0.3788(8)
C3 C 0.1500(12) 0.7642(10) 0.4924(12)
C4 C 0.1503(11) 0.6735(10) 0.4030(11)
C5 C 0.0830(11) 0.4817(9) 0.0976(11)
C8 C 0.2674(9) 0.8269(8) 0.5361(9)
H3 H 0.353575 0.810510 0.512609
H6 H 0.611756 0.136268 0.018495
C12 C 0.6060(10) 0.2884(8) 0.0678(9)
H7 H 0.605813 0.276727 0.154351
C13 C 0.2583(9) 0.9120(7) 0.6128(9)
H8 H 0.339423 0.952424 0.641184
C14 C 0.0940(12) 0.3921(10) 0.0067(12)
C17 C 0.0297(9) 0.7894(8) 0.5343(9)
C18 C 0.0281(8) 0.8751(7) 0.6137(9)
C20 C 0.6015(13) 0.3892(10) 0.0189(12)
C24 C 0.5865(11) 0.4837(9) 0.1040(11)
Co6 Co 0.87684(19) 0.57997(19) 0.24914(18)
O10 O 0.5502(9) 0.6187(7) 0.3789(8)
N6 N 0.3611(9) 0.4472(8) 0.3638(10)
N8 N 0.3866(10) 0.7176(8) 0.1351(10)
N3 N 0.1102(10) 0.2210(8) 0.8561(10)
C6 C 0.2222(10) 0.2771(7) 0.8953(8)
H2 H 0.307358 0.256819 0.872668
C9 C 0.2187(9) 0.3662(7) 0.9698(8)
H4 H 0.299252 0.408022 0.994625
C10 C 0.6104(8) 0.3145(8) 0.8206(8)
H5 H 0.611099 0.323872 0.733818
C11 C 0.6106(10) 0.2054(8) 0.9861(9)
N4 N 0.6134(10) 0.2176(8) 0.8649(10)
C22 C 0.6062(9) 0.4021(8) 0.8935(8)
H15 H 0.606459 0.470124 0.858100
Co5 Co 0.62720(18) 0.08160(19) 0.74896(18)
H10 H 0.640439 0.024292 0.476076
O3 O 0.7701(8) 0.6687(7) 0.3598(8)
N2 N 0.6389(9) 0.9472(8) 0.6362(10)
O6 O 0.9796(8) 0.4950(8) 0.1336(8)
C1 C 0.6506(11) 0.6759(10) 0.3991(11)
C2 C 0.6362(9) 0.7604(8) 0.6043(9)
H1 H 0.629307 0.692891 0.639241
C7 C 0.6469(13) 0.7696(10) 0.4820(13)
C16 C 0.6436(9) 0.9561(7) 0.5114(9)
H11 H 0.948298 0.748470 0.509257
H12 H 0.945530 0.889099 0.644708
C21 C 0.6351(9) 0.8493(7) 0.6799(10)
H14 H 0.631454 0.839675 0.766194
C23 C 0.6526(9) 0.8724(8) 0.4342(9)
H16 H 0.662552 0.883214 0.349635
N5 N 0.8602(9) 0.4400(8) 0.3510(10)
N7 N 0.8898(10) 0.7210(8) 0.1439(10)
O3_2 O 0.2299(8) 0.1687(7) 0.6402(8)
O5 O 0.4498(9) 0.1187(7) 0.6211(8)
C1_2 C 0.3494(11) 0.1759(10) 0.6009(11)
C2_2 C 0.3638(9) 0.2604(8) 0.3957(9)
H1_2 H 0.370693 0.192891 0.360759
C7_2 C 0.3531(13) 0.2696(10) 0.5180(13)
C16_2 C 0.3564(9) 0.4561(7) 0.4886(9)
H10_2 H 0.359561 0.524292 0.523924
H11_2 H 0.051702 0.248470 0.490743
H12_2 H 0.054470 0.389099 0.355292
C21_2 C 0.3649(9) 0.3493(7) 0.3201(10)
H14_2 H 0.368546 0.339675 0.233806
C23_2 C 0.3474(9) 0.3724(8) 0.5658(9)
H16_2 H 0.337448 0.383214 0.650365
O9 O 0.3132(8) 0.0501(6) 0.8789(8)
O6_2 O 0.0204(8) 0.9950(8) 0.8664(8)
O1_2 O 0.7299(8) 0.1731(7) 0.6413(8)
O2_2 O 0.8035(8) 0.0400(7) 0.8769(8)
O8_2 O 0.9427(8) 0.1149(7) 0.6212(8)
C3_2 C 0.8500(12) 0.2642(10) 0.5076(12)
C4_2 C 0.8497(11) 0.1735(10) 0.5970(11)
C8_2 C 0.7326(9) 0.3269(8) 0.4639(9)
H3_2 H 0.646425 0.310510 0.487391
C13_2 C 0.7417(9) 0.4120(7) 0.3872(9)
H8_2 H 0.660577 0.452424 0.358816
C17_2 C 0.9703(9) 0.2894(8) 0.4657(9)
C18_2 C 0.9719(8) 0.3751(7) 0.3863(9)
C6_2 C 0.7778(10) 0.7771(7) 0.1047(8)
H2_2 H 0.692642 0.756819 0.127332
C9_2 C 0.7813(9) 0.8662(7) 0.0302(8)
H4_2 H 0.700748 0.908022 0.005375
C10_2 C 0.3896(8) 0.8145(8) 0.1794(8)
H5_2 H 0.388901 0.823872 0.266182
C11_2 C 0.3894(10) 0.7054(8) 0.0139(9)
C22_2 C 0.3938(9) 0.9021(8) 0.1065(8)
H15_2 H 0.393541 0.970124 0.141900
O7_2 O 0.5179(8) 0.9879(7) 0.8567(8)
C5_2 C 0.9170(11) 0.9817(9) 0.9024(11)
H6_2 H 0.388244 0.636268 0.981505
C12_2 C 0.3940(10) 0.7884(8) 0.9322(9)
H7_2 H 0.394187 0.776727 0.845649
C14_2 C 0.9060(12) 0.8921(10) 0.9933(12)
C20_2 C 0.3985(13) 0.8892(10) 0.9811(12)
C24_2 C 0.4135(11) 0.9837(9) 0.8960(11)
C15 C 0.9897(9) 0.2491(7) 0.8872(9)
H9 H 0.908931 0.209040 0.856182
C19 C 0.9788(9) 0.3338(7) 0.9623(8)
H13 H 0.891820 0.351716 0.983174
C15_2 C 0.0103(9) 0.7491(7) 0.1128(9)
H9_2 H 0.091069 0.709040 0.143818
C19_2 C 0.0212(9) 0.8338(7) 0.0377(8)
H13_2 H 0.108180 0.851716 0.016826
loop_
_geom_bond_atom_site_label_1
_geom_bond_atom_site_label_2
_geom_bond_site_symmetry_1
_geom_bond_site_symmetry_2
Co1 O1 1_555 1_555
O1 C4 1_555 1_555
O2 Co1 1_555 1_555
O4 C24 1_555 1_555
N1 C13 1_555 1_555
O7 Co1 1_555 1_555
C3 C4 1_555 1_555
C4 O8 1_555 1_555
C5 O2 1_555 1_555
C8 C3 1_555 1_555
H3 C8 1_555 1_555
H7 C12 1_555 1_555
C13 C8 1_555 1_555
H8 C13 1_555 1_555
C14 C5 1_555 1_555
C17 C3 1_555 1_555
C18 N1 1_555 1_555
C20 C12 1_555 1_555
C24 O7 1_555 1_555
Co6 O4 1_555 1_555
O10 Co1 1_555 1_555
N6 Co1 1_555 1_555
N8 Co1 1_555 1_555
C17 C18 1_555 1_555
C20 C24 1_555 1_555
N3 C6 1_555 1_555
C6 H2 1_555 1_555
C9 C6 1_555 1_555
H4 C9 1_555 1_555
C10 H5 1_555 1_555
N4 C10 1_555 1_555
C22 C10 1_555 1_555
H15 C22 1_555 1_555
Co5 N4 1_555 1_555
Co8 N3 1_555 1_555
C11 N4 1_555 1_555
Co6 O3 1_555 1_555
O3 C1 1_555 1_555
O10 C1 1_555 1_555
N2 C16 1_555 1_555
O6 Co6 1_555 1_555
C1 C7 1_555 1_555
C2 H1 1_555 1_555
C7 C2 1_555 1_555
C21 N2 1_555 1_555
H14 C21 1_555 1_555
C23 C7 1_555 1_555
H16 C23 1_555 1_555
N5 Co6 1_555 1_555
N7 Co6 1_555 1_555
C2 C21 1_555 1_555
C16 C23 1_555 1_555
Co8 O3_2 1_555 1_555
O3_2 C1_2 1_555 1_555
O5 C1_2 1_555 1_555
N6 C16_2 1_555 1_555
C1_2 C7_2 1_555 1_555
C2_2 H1_2 1_555 1_555
C7_2 C2_2 1_555 1_555
C16_2 H10_2 1_555 1_555
C21_2 N6 1_555 1_555
H14_2 C21_2 1_555 1_555
C23_2 C7_2 1_555 1_555
H16_2 C23_2 1_555 1_555
Co5 O5 1_555 1_555
O9 Co8 1_555 1_555
C2_2 C21_2 1_555 1_555
C16_2 C23_2 1_555 1_555
Co5 O1_2 1_555 1_555
O1_2 C4_2 1_555 1_555
O2_2 Co5 1_555 1_555
N5 C13_2 1_555 1_555
C3_2 C4_2 1_555 1_555
C4_2 O8_2 1_555 1_555
C8_2 C3_2 1_555 1_555
H3_2 C8_2 1_555 1_555
C13_2 C8_2 1_555 1_555
H8_2 C13_2 1_555 1_555
C17_2 C3_2 1_555 1_555
C18_2 N5 1_555 1_555
C17_2 C18_2 1_555 1_555
N7 C6_2 1_555 1_555
C6_2 H2_2 1_555 1_555
C9_2 C6_2 1_555 1_555
H4_2 C9_2 1_555 1_555
C10_2 H5_2 1_555 1_555
N8 C10_2 1_555 1_555
C22_2 C10_2 1_555 1_555
H15_2 C22_2 1_555 1_555
C11_2 N8 1_555 1_555
H7_2 C12_2 1_555 1_555
C14_2 C5_2 1_555 1_555
C20_2 C12_2 1_555 1_555
C24_2 O7_2 1_555 1_555
C20_2 C24_2 1_555 1_555
H9 C15 1_555 1_555
H13 C19 1_555 1_555
C15 C19 1_555 1_555
H9_2 C15_2 1_555 1_555
H13_2 C19_2 1_555 1_555
C15_2 C19_2 1_555 1_555

#END
