
###############################################################################
#
# This file contains modified crystal structure data generated from the
# MOF subset of the Cambridge Structural Database (CSD) v543 
# hosted by the Cambridge Crystallographic Data Centre (CCDC).
#
# This work is licensed under the Creative Commons
# Attribution-NonCommercial-ShareAlike 4.0 International License.
# To view a copy of this license, visit
# http://creativecommons.org/licenses/by-nc-sa/4.0/
# or send a letter to
# Creative Commons, PO Box 1866, Mountain View, CA 94042, USA.
#
# CIF created using the CSD Python API on 29 September 2022
# The structure has been converted into the P1 space group
# The structure has a 3D framework
# The original CSD entry CUHLOJ is in the monoclinic crystal system
# The framework has been calculated to contain at least 10.0% void space
# The void calculation uses a probe of radius 1.32A, grid spacing 0.4
#
###############################################################################

data_CUHLOJ
_chemical_formula_moiety         '(C24 H16 Co2 N4 O7)n'
_symmetry_cell_setting           triclinic
_symmetry_space_group_name_H-M   'P 1'
_symmetry_Int_Tables_number      1
_space_group_name_Hall           'P 1'
loop_
_symmetry_equiv_pos_site_id
_symmetry_equiv_pos_as_xyz
1 x,y,z
_cell_length_a                   6.1722(7)
_cell_length_b                   12.6903(11)
_cell_length_c                   10.3679(11)
_cell_angle_alpha                90
_cell_angle_beta                 90.645(4)
_cell_angle_gamma                90
_cell_volume                     812.036
loop_
_atom_site_label
_atom_site_type_symbol
_atom_site_fract_x
_atom_site_fract_y
_atom_site_fract_z
O3 O 0.0498(13) 0.3593(6) 0.3123(8)
H2 H 0.083658 0.151836 0.735000
H6 H 0.038061 0.491704 0.127113
O5 O 0.2058(12) 0.1365(6) 0.4252(8)
N3 N 0.1176(17) 0.3523(7) 0.5975(10)
Co3 Co 0.4725(3) 0.75332(9) 0.9734(2)
O1 O 0.7058(12) 0.8635(6) 0.9252(8)
O4 O 0.3844(13) 0.8822(7) 0.8338(8)
C4 C 0.5748(17) 0.9094(8) 0.8466(9)
C4_2 C 0.0748(17) 0.0906(8) 0.3466(9)
O2 O 0.2333(12) 0.6517(5) 0.9083(8)
O3_2 O 0.5498(13) 0.6407(6) 0.8123(8)
C3 C 0.0717(18) 0.4790(9) 0.7667(11)
C7 C 0.3990(18) 0.4802(9) 0.6452(11)
H6_2 H 0.538061 0.508296 0.627113
C8 C 0.3144(18) 0.3964(8) 0.5749(11)
H7 H 0.398806 0.368168 0.507096
C11 C 0.2723(19) 0.5215(9) 0.7430(11)
C12 C 0.357(2) 0.6159(11) 0.8212(13)
Co1 Co 0.9725(3) 0.24668(9) 0.4734(2)
N1 N 0.8226(14) 0.1558(7) 0.6121(9)
O2_2 O 0.7333(12) 0.3483(5) 0.4083(8)
N2 N 0.6176(17) 0.6477(7) 0.0975(10)
C1 C 0.8644(19) 0.0391(9) 0.7916(12)
H1 H 0.951609 0.010052 0.858710
C2 C 0.9467(19) 0.1211(8) 0.7158(10)
C3_2 C 0.5717(18) 0.5210(9) 0.2667(11)
H3 H 0.486656 0.495233 0.335683
C5 C 0.5372(18) 0.0445(8) 0.6710(11)
H4 H 0.391720 0.022450 0.657077
C6 C 0.6279(19) 0.1197(9) 0.5935(12)
H5 H 0.544674 0.146576 0.523161
C7_2 C 0.8990(18) 0.5198(9) 0.1452(11)
C8_2 C 0.8144(18) 0.6036(8) 0.0749(11)
H7_2 H 0.898806 0.631832 0.007096
C9 C 0.494(2) 0.6026(8) 0.1883(11)
H8 H 0.350107 0.626873 0.199381
C10 C 0.6615(19) 0.0007(10) 0.7704(11)
C11_2 C 0.7723(19) 0.4785(9) 0.2430(11)
C12_2 C 0.857(2) 0.3841(11) 0.3212(13)
O6 O 0.8844(13) 0.1178(7) 0.3338(8)
N1_2 N 0.3226(14) 0.8442(7) 0.1121(9)
C1_2 C 0.3644(19) 0.9609(9) 0.2916(12)
H1_2 H 0.451609 0.989948 0.358710
C2_2 C 0.4467(19) 0.8789(8) 0.2158(10)
H2_2 H 0.583658 0.848164 0.235000
C5_2 C 0.0372(18) 0.9555(8) 0.1710(11)
C6_2 C 0.1279(19) 0.8803(9) 0.0935(12)
H5_2 H 0.044674 0.853424 0.023161
C10_2 C 0.1615(19) 0.9993(10) 0.2704(11)
H3_2 H 0.986656 0.504767 0.835683
C9_2 C 0.994(2) 0.3974(8) 0.6883(11)
H8_2 H 0.850107 0.373127 0.699381
H4_2 H 0.891720 0.977550 0.157077
loop_
_geom_bond_atom_site_label_1
_geom_bond_atom_site_label_2
_geom_bond_site_symmetry_1
_geom_bond_site_symmetry_2
O1 C4 1_555 1_555
O4 C4 1_555 1_555
Co3 O1 1_555 1_555
O4 Co3 1_555 1_555
O5 C4_2 1_555 1_555
O2 Co3 1_555 1_555
N3 C8 1_555 1_555
O3_2 Co3 1_555 1_555
C7 H6_2 1_555 1_555
C8 C7 1_555 1_555
H7 C8 1_555 1_555
C11 C3 1_555 1_555
C12 O2 1_555 1_555
O3_2 C12 1_555 1_555
C7 C11 1_555 1_555
C11 C12 1_555 1_555
Co1 N1 1_555 1_555
N1 C2 1_555 1_555
O2_2 Co1 1_555 1_555
N2 C8_2 1_555 1_555
C1 H1 1_555 1_555
C2 C1 1_555 1_555
C3_2 H3 1_555 1_555
C5 H4 1_555 1_555
C6 N1 1_555 1_555
H5 C6 1_555 1_555
C8_2 C7_2 1_555 1_555
H7_2 C8_2 1_555 1_555
C9 N2 1_555 1_555
H8 C9 1_555 1_555
C10 C1 1_555 1_555
C11_2 C3_2 1_555 1_555
C12_2 O2_2 1_555 1_555
O6 Co1 1_555 1_555
C3_2 C9 1_555 1_555
C5 C6 1_555 1_555
C5 C10 1_555 1_555
C7_2 C11_2 1_555 1_555
C11_2 C12_2 1_555 1_555
N1_2 C2_2 1_555 1_555
C1_2 H1_2 1_555 1_555
C2_2 C1_2 1_555 1_555
H2_2 C2_2 1_555 1_555
C6_2 N1_2 1_555 1_555
H5_2 C6_2 1_555 1_555
C10_2 C1_2 1_555 1_555
C5_2 C6_2 1_555 1_555
C5_2 C10_2 1_555 1_555
H8_2 C9_2 1_555 1_555

#END
