
###############################################################################
#
# This file contains modified crystal structure data generated from the
# MOF subset of the Cambridge Structural Database (CSD) v543 
# hosted by the Cambridge Crystallographic Data Centre (CCDC).
#
# This work is licensed under the Creative Commons
# Attribution-NonCommercial-ShareAlike 4.0 International License.
# To view a copy of this license, visit
# http://creativecommons.org/licenses/by-nc-sa/4.0/
# or send a letter to
# Creative Commons, PO Box 1866, Mountain View, CA 94042, USA.
#
# CIF created using the CSD Python API on 29 September 2022
# The structure has been converted into the P1 space group
# The structure has a 3D framework
# The original CSD entry CUHPUR is in the orthorhombic crystal system
# The framework has been calculated to contain at least 10.0% void space
# The void calculation uses a probe of radius 1.32A, grid spacing 0.4
#
###############################################################################

data_CUHPUR
_chemical_formula_moiety         '(C104 H64 Cd6 N8 O32)n'
_symmetry_cell_setting           triclinic
_symmetry_space_group_name_H-M   'P 1'
_symmetry_Int_Tables_number      1
_space_group_name_Hall           'P 1'
loop_
_symmetry_equiv_pos_site_id
_symmetry_equiv_pos_as_xyz
1 x,y,z
_cell_length_a                   12.9491(5)
_cell_length_b                   21.2900(6)
_cell_length_c                   11.6829(5)
_cell_angle_alpha                90
_cell_angle_beta                 90
_cell_angle_gamma                90
_cell_volume                     3220.82
loop_
_atom_site_label
_atom_site_type_symbol
_atom_site_fract_x
_atom_site_fract_y
_atom_site_fract_z
Cd1 Cd 0.61047(3) 0.060220(14) 0.0000
N3 N 0.6044(2) 0.06074(14) 0.1976(3)
O5 O 0.4258(3) 0.05211(14) 0.0000
O6 O 0.5974(3) 0.16812(17) 0.0000
O7 O 0.7543(3) 0.13338(15) 0.0000
Cd1_2 Cd 0.61047(3) 0.060220(14) 1.0000
C9 C 0.5318(5) 0.0877(3) 0.7445(5)
H5 H 0.4771 0.1072 0.7854
C10 C 0.5293(5) 0.0897(3) 0.6265(5)
H6 H 0.4734 0.1100 0.5889
C11 C 0.6053(3) 0.06325(18) 0.5634(4)
C12 C 0.6819(5) 0.0342(4) 0.6258(5)
H7 H 0.7377 0.0143 0.5876
C13 C 0.6777(5) 0.0342(4) 0.7432(5)
H8 H 0.7314 0.0135 0.7837
N1 N 0.6044(2) 0.06074(14) 0.8024(3)
C14 C 0.5318(5) 0.0877(3) 0.2555(5)
H9 H 0.4771 0.1072 0.2146
C15 C 0.5293(5) 0.0897(3) 0.3735(5)
H10 H 0.4734 0.1100 0.4111
C16 C 0.6053(3) 0.06325(18) 0.4366(4)
C17 C 0.6819(5) 0.0342(4) 0.3742(5)
H11 H 0.7377 0.0143 0.4124
C18 C 0.6777(5) 0.0342(4) 0.2568(5)
H12 H 0.7314 0.0135 0.2163
O5_2 O 0.4258(3) 0.05211(14) 1.0000
O6_2 O 0.5974(3) 0.16812(17) 1.0000
O7_2 O 0.7543(3) 0.13338(15) 1.0000
C1 C 0.6698(4) 0.9355(2) 0.0000
C2 C 0.7059(4) 0.8690(2) 0.0000
C3 C 0.8087(4) 0.8548(2) 0.0000
H1 H 0.8572 0.8883 0.0000
C4 C 0.8446(4) 0.7948(3) 0.0000
H2 H 0.9167 0.7866 0.0000
C5 C 0.7713(4) 0.7435(2) 0.0000
C6 C 0.6690(4) 0.7583(2) 0.0000
H3 H 0.6190 0.7257 0.0000
C7 C 0.6369(4) 0.8208(3) 0.0000
H4 H 0.5651 0.8299 0.0000
C8 C 0.8087(4) 0.6784(2) 0.0000
O1 O 0.7352(3) 0.97884(14) 0.0000
O2 O 0.5742(3) 0.94789(14) 0.0000
O3 O 0.9026(3) 0.66812(17) 0.0000
O4 O 0.7457(3) 0.63338(15) 0.0000
Cd2 Cd 0.38953(3) 0.939780(14) 0.0000
Cd3 Cd 0.88953(3) 0.560220(14) 0.0000
C1_2 C 0.6698(4) 0.9355(2) 1.0000
C2_2 C 0.7059(4) 0.8690(2) 1.0000
C3_2 C 0.8087(4) 0.8548(2) 1.0000
H1_2 H 0.8572 0.8883 1.0000
C4_2 C 0.8446(4) 0.7948(3) 1.0000
H2_2 H 0.9167 0.7866 1.0000
C5_2 C 0.7713(4) 0.7435(2) 1.0000
C6_2 C 0.6690(4) 0.7583(2) 1.0000
H3_2 H 0.6190 0.7257 1.0000
C7_2 C 0.6369(4) 0.8208(3) 1.0000
H4_2 H 0.5651 0.8299 1.0000
C8_2 C 0.8087(4) 0.6784(2) 1.0000
O1_2 O 0.7352(3) 0.97884(14) 1.0000
O2_2 O 0.5742(3) 0.94789(14) 1.0000
O3_2 O 0.9026(3) 0.66812(17) 1.0000
O4_2 O 0.7457(3) 0.63338(15) 1.0000
Cd2_2 Cd 0.38953(3) 0.939780(14) 1.0000
Cd3_2 Cd 0.88953(3) 0.560220(14) 1.0000
C1_3 C 0.3302(4) 0.0645(2) 0.0000
C2_3 C 0.2941(4) 0.1310(2) 0.0000
C3_3 C 0.1913(4) 0.1452(2) 0.0000
H1_3 H 0.1428 0.1117 0.0000
C4_3 C 0.1554(4) 0.2052(3) 0.0000
H2_3 H 0.0833 0.2134 0.0000
C5_3 C 0.2287(4) 0.2565(2) 0.0000
C6_3 C 0.3310(4) 0.2417(2) 0.0000
H3_3 H 0.3810 0.2743 0.0000
C7_3 C 0.3631(4) 0.1792(3) 0.0000
H4_3 H 0.4349 0.1701 0.0000
C8_3 C 0.1913(4) 0.3216(2) 0.0000
O1_3 O 0.2648(3) 0.02116(14) 0.0000
O3_3 O 0.0974(3) 0.33188(17) 0.0000
O4_3 O 0.2543(3) 0.36662(15) 0.0000
Cd3_3 Cd 0.11047(3) 0.439780(14) 0.0000
C1_4 C 0.3302(4) 0.0645(2) 1.0000
C2_4 C 0.2941(4) 0.1310(2) 1.0000
C3_4 C 0.1913(4) 0.1452(2) 1.0000
H1_4 H 0.1428 0.1117 1.0000
C4_4 C 0.1554(4) 0.2052(3) 1.0000
H2_4 H 0.0833 0.2134 1.0000
C5_4 C 0.2287(4) 0.2565(2) 1.0000
C6_4 C 0.3310(4) 0.2417(2) 1.0000
H3_4 H 0.3810 0.2743 1.0000
C7_4 C 0.3631(4) 0.1792(3) 1.0000
H4_4 H 0.4349 0.1701 1.0000
C8_4 C 0.1913(4) 0.3216(2) 1.0000
O1_4 O 0.2648(3) 0.02116(14) 1.0000
O3_4 O 0.0974(3) 0.33188(17) 1.0000
O4_4 O 0.2543(3) 0.36662(15) 1.0000
Cd3_4 Cd 0.11047(3) 0.439780(14) 1.0000
N3_2 N 0.3956(2) 0.93926(14) 0.1976(3)
O6_3 O 0.4026(3) 0.83188(17) 0.0000
O7_3 O 0.2457(3) 0.86662(15) 0.0000
C9_2 C 0.4682(5) 0.9123(3) 0.7445(5)
H5_2 H 0.5229 0.8928 0.7854
C10_2 C 0.4707(5) 0.9103(3) 0.6265(5)
H6_2 H 0.5266 0.8900 0.5889
C11_2 C 0.3947(3) 0.93675(18) 0.5634(4)
C12_2 C 0.3181(5) 0.9658(4) 0.6258(5)
H7_2 H 0.2623 0.9857 0.5876
C13_2 C 0.3223(5) 0.9658(4) 0.7432(5)
H8_2 H 0.2686 0.9865 0.7837
N1_2 N 0.3956(2) 0.93926(14) 0.8024(3)
C14_2 C 0.4682(5) 0.9123(3) 0.2555(5)
H9_2 H 0.5229 0.8928 0.2146
C15_2 C 0.4707(5) 0.9103(3) 0.3735(5)
H10_2 H 0.5266 0.8900 0.4111
C16_2 C 0.3947(3) 0.93675(18) 0.4366(4)
C17_2 C 0.3181(5) 0.9658(4) 0.3742(5)
H11_2 H 0.2623 0.9857 0.4124
C18_2 C 0.3223(5) 0.9658(4) 0.2568(5)
H12_2 H 0.2686 0.9865 0.2163
O6_4 O 0.4026(3) 0.83188(17) 1.0000
O7_4 O 0.2457(3) 0.86662(15) 1.0000
C1_5 C 0.1698(4) 0.5645(2) 0.0000
C2_5 C 0.2059(4) 0.6310(2) 0.0000
C3_5 C 0.3087(4) 0.6452(2) 0.0000
H1_5 H 0.3572 0.6117 0.0000
C4_5 C 0.3446(4) 0.7052(3) 0.0000
H2_5 H 0.4167 0.7134 0.0000
C5_5 C 0.2713(4) 0.7565(2) 0.0000
C6_5 C 0.1690(4) 0.7417(2) 0.0000
H3_5 H 0.1190 0.7743 0.0000
C7_5 C 0.1369(4) 0.6792(3) 0.0000
H4_5 H 0.0651 0.6701 0.0000
C8_5 C 0.3087(4) 0.8216(2) 0.0000
C9_3 C 0.0318(5) 0.4123(3) 0.2555(5)
C10_3 C 0.0293(5) 0.4103(3) 0.3735(5)
C11_3 C 0.1053(3) 0.43675(18) 0.4366(4)
C12_3 C 0.1819(5) 0.4658(4) 0.3742(5)
H7_3 H 0.2377 0.4857 0.4124
C13_3 C 0.1777(5) 0.4658(4) 0.2568(5)
H8_3 H 0.2314 0.4865 0.2163
N1_3 N 0.1044(2) 0.43926(14) 0.1976(3)
O1_5 O 0.2352(3) 0.52116(14) 0.0000
O2_3 O 0.0742(3) 0.55211(14) 0.0000
C14_3 C 0.0318(5) 0.4123(3) 0.7445(5)
C15_3 C 0.0293(5) 0.4103(3) 0.6265(5)
C16_3 C 0.1053(3) 0.43675(18) 0.5634(4)
C17_3 C 0.1819(5) 0.4658(4) 0.6258(5)
H11_3 H 0.2377 0.4857 0.5876
C18_3 C 0.1777(5) 0.4658(4) 0.7432(5)
H12_3 H 0.2314 0.4865 0.7837
N2 N 0.1044(2) 0.43926(14) 0.8024(3)
C1_6 C 0.1698(4) 0.5645(2) 1.0000
C2_6 C 0.2059(4) 0.6310(2) 1.0000
C3_6 C 0.3087(4) 0.6452(2) 1.0000
H1_6 H 0.3572 0.6117 1.0000
C4_6 C 0.3446(4) 0.7052(3) 1.0000
H2_6 H 0.4167 0.7134 1.0000
C5_6 C 0.2713(4) 0.7565(2) 1.0000
C6_6 C 0.1690(4) 0.7417(2) 1.0000
H3_6 H 0.1190 0.7743 1.0000
C7_6 C 0.1369(4) 0.6792(3) 1.0000
H4_6 H 0.0651 0.6701 1.0000
C8_6 C 0.3087(4) 0.8216(2) 1.0000
O1_6 O 0.2352(3) 0.52116(14) 1.0000
O2_4 O 0.0742(3) 0.55211(14) 1.0000
H5_3 H 0.9771 0.3928 0.2146
H6_3 H 0.9734 0.3900 0.4111
H9_3 H 0.9771 0.3928 0.7854
H10_3 H 0.9734 0.3900 0.5889
O5_3 O 0.9258(3) 0.44789(14) 0.0000
O5_4 O 0.9258(3) 0.44789(14) 1.0000
H5_4 H 0.0229 0.6072 0.2146
H6_4 H 0.0266 0.6100 0.4111
H9_4 H 0.0229 0.6072 0.7854
H10_4 H 0.0266 0.6100 0.5889
C1_7 C 0.8302(4) 0.4355(2) 0.0000
C2_7 C 0.7941(4) 0.3690(2) 0.0000
C3_7 C 0.6913(4) 0.3548(2) 0.0000
H1_7 H 0.6428 0.3883 0.0000
C4_7 C 0.6554(4) 0.2948(3) 0.0000
H2_7 H 0.5833 0.2866 0.0000
C5_7 C 0.7287(4) 0.2435(2) 0.0000
C6_7 C 0.8310(4) 0.2583(2) 0.0000
H3_7 H 0.8810 0.2257 0.0000
C7_7 C 0.8631(4) 0.3208(3) 0.0000
H4_7 H 0.9349 0.3299 0.0000
C8_7 C 0.6913(4) 0.1784(2) 0.0000
C9_4 C 0.9682(5) 0.5877(3) 0.2555(5)
C10_4 C 0.9707(5) 0.5897(3) 0.3735(5)
C11_4 C 0.8947(3) 0.56325(18) 0.4366(4)
C12_4 C 0.8181(5) 0.5342(4) 0.3742(5)
H7_4 H 0.7623 0.5143 0.4124
C13_4 C 0.8223(5) 0.5342(4) 0.2568(5)
H8_4 H 0.7686 0.5135 0.2163
N1_4 N 0.8956(2) 0.56074(14) 0.1976(3)
O1_7 O 0.7648(3) 0.47884(14) 0.0000
C14_4 C 0.9682(5) 0.5877(3) 0.7445(5)
C15_4 C 0.9707(5) 0.5897(3) 0.6265(5)
C16_4 C 0.8947(3) 0.56325(18) 0.5634(4)
C17_4 C 0.8181(5) 0.5342(4) 0.6258(5)
H11_4 H 0.7623 0.5143 0.5876
C18_4 C 0.8223(5) 0.5342(4) 0.7432(5)
H12_4 H 0.7686 0.5135 0.7837
N2_2 N 0.8956(2) 0.56074(14) 0.8024(3)
C1_8 C 0.8302(4) 0.4355(2) 1.0000
C2_8 C 0.7941(4) 0.3690(2) 1.0000
C3_8 C 0.6913(4) 0.3548(2) 1.0000
H1_8 H 0.6428 0.3883 1.0000
C4_8 C 0.6554(4) 0.2948(3) 1.0000
H2_8 H 0.5833 0.2866 1.0000
C5_8 C 0.7287(4) 0.2435(2) 1.0000
C6_8 C 0.8310(4) 0.2583(2) 1.0000
H3_8 H 0.8810 0.2257 1.0000
C7_8 C 0.8631(4) 0.3208(3) 1.0000
H4_8 H 0.9349 0.3299 1.0000
C8_8 C 0.6913(4) 0.1784(2) 1.0000
O1_8 O 0.7648(3) 0.47884(14) 1.0000
loop_
_geom_bond_atom_site_label_1
_geom_bond_atom_site_label_2
_geom_bond_site_symmetry_1
_geom_bond_site_symmetry_2
N3 Cd1 1_555 1_555
O5 Cd1 1_555 1_555
O6 Cd1 1_555 1_555
O7 Cd1 1_555 1_555
Cd1_2 N1 1_555 1_555
C9 H5 1_555 1_555
C10 C9 1_555 1_555
H6 C10 1_555 1_555
C11 C10 1_555 1_555
C12 C11 1_555 1_555
H7 C12 1_555 1_555
C13 C12 1_555 1_555
H8 C13 1_555 1_555
N1 C9 1_555 1_555
C14 H9 1_555 1_555
C15 C14 1_555 1_555
H10 C15 1_555 1_555
C16 C11 1_555 1_555
C17 C16 1_555 1_555
H11 C17 1_555 1_555
C18 C17 1_555 1_555
H12 C18 1_555 1_555
N3 C14 1_555 1_555
O5_2 Cd1_2 1_555 1_555
O6_2 Cd1_2 1_555 1_555
O7_2 Cd1_2 1_555 1_555
C13 N1 1_555 1_555
C15 C16 1_555 1_555
C18 N3 1_555 1_555
C1 C2 1_555 1_555
C2 C3 1_555 1_555
C3 H1 1_555 1_555
C4 C3 1_555 1_555
H2 C4 1_555 1_555
C5 C4 1_555 1_555
C6 C5 1_555 1_555
H3 C6 1_555 1_555
C7 C2 1_555 1_555
H4 C7 1_555 1_555
C8 C5 1_555 1_555
O3 C8 1_555 1_555
O4 C8 1_555 1_555
Cd2 O2 1_555 1_555
Cd3 O3 1_555 1_555
C1 O1 1_555 1_555
C1 O2 1_555 1_555
C6 C7 1_555 1_555
O4 Cd3 1_555 1_555
C1_2 C2_2 1_555 1_555
C2_2 C3_2 1_555 1_555
C3_2 H1_2 1_555 1_555
C4_2 C3_2 1_555 1_555
H2_2 C4_2 1_555 1_555
C5_2 C4_2 1_555 1_555
C6_2 C5_2 1_555 1_555
H3_2 C6_2 1_555 1_555
C7_2 C2_2 1_555 1_555
H4_2 C7_2 1_555 1_555
C8_2 C5_2 1_555 1_555
O3_2 C8_2 1_555 1_555
O4_2 C8_2 1_555 1_555
Cd2_2 O2_2 1_555 1_555
Cd3_2 O3_2 1_555 1_555
C1_2 O1_2 1_555 1_555
C1_2 O2_2 1_555 1_555
C6_2 C7_2 1_555 1_555
O4_2 Cd3_2 1_555 1_555
C1_3 C2_3 1_555 1_555
C2_3 C3_3 1_555 1_555
C3_3 H1_3 1_555 1_555
C4_3 C3_3 1_555 1_555
H2_3 C4_3 1_555 1_555
C5_3 C4_3 1_555 1_555
C6_3 C5_3 1_555 1_555
H3_3 C6_3 1_555 1_555
C7_3 C2_3 1_555 1_555
H4_3 C7_3 1_555 1_555
C8_3 C5_3 1_555 1_555
O3_3 C8_3 1_555 1_555
O4_3 C8_3 1_555 1_555
Cd3_3 O3_3 1_555 1_555
C1_3 O1_3 1_555 1_555
C1_3 O5 1_555 1_555
C6_3 C7_3 1_555 1_555
O4_3 Cd3_3 1_555 1_555
C1_4 C2_4 1_555 1_555
C2_4 C3_4 1_555 1_555
C3_4 H1_4 1_555 1_555
C4_4 C3_4 1_555 1_555
H2_4 C4_4 1_555 1_555
C5_4 C4_4 1_555 1_555
C6_4 C5_4 1_555 1_555
H3_4 C6_4 1_555 1_555
C7_4 C2_4 1_555 1_555
H4_4 C7_4 1_555 1_555
C8_4 C5_4 1_555 1_555
O3_4 C8_4 1_555 1_555
O4_4 C8_4 1_555 1_555
Cd3_4 O3_4 1_555 1_555
C1_4 O1_4 1_555 1_555
C1_4 O5_2 1_555 1_555
C6_4 C7_4 1_555 1_555
O4_4 Cd3_4 1_555 1_555
N3_2 Cd2 1_555 1_555
O6_3 Cd2 1_555 1_555
O7_3 Cd2 1_555 1_555
Cd2_2 N1_2 1_555 1_555
C9_2 H5_2 1_555 1_555
C10_2 C9_2 1_555 1_555
H6_2 C10_2 1_555 1_555
C11_2 C10_2 1_555 1_555
C12_2 C11_2 1_555 1_555
H7_2 C12_2 1_555 1_555
C13_2 C12_2 1_555 1_555
H8_2 C13_2 1_555 1_555
N1_2 C9_2 1_555 1_555
C14_2 H9_2 1_555 1_555
C15_2 C14_2 1_555 1_555
H10_2 C15_2 1_555 1_555
C16_2 C11_2 1_555 1_555
C17_2 C16_2 1_555 1_555
H11_2 C17_2 1_555 1_555
C18_2 C17_2 1_555 1_555
H12_2 C18_2 1_555 1_555
N3_2 C14_2 1_555 1_555
O6_4 Cd2_2 1_555 1_555
O7_4 Cd2_2 1_555 1_555
C13_2 N1_2 1_555 1_555
C15_2 C16_2 1_555 1_555
C18_2 N3_2 1_555 1_555
Cd3_3 N1_3 1_555 1_555
C1_5 C2_5 1_555 1_555
C2_5 C3_5 1_555 1_555
C3_5 H1_5 1_555 1_555
C4_5 C3_5 1_555 1_555
H2_5 C4_5 1_555 1_555
C5_5 C4_5 1_555 1_555
C6_5 C5_5 1_555 1_555
H3_5 C6_5 1_555 1_555
C7_5 C2_5 1_555 1_555
H4_5 C7_5 1_555 1_555
C8_5 C5_5 1_555 1_555
C10_3 C9_3 1_555 1_555
C11_3 C10_3 1_555 1_555
C12_3 C11_3 1_555 1_555
H7_3 C12_3 1_555 1_555
C13_3 C12_3 1_555 1_555
H8_3 C13_3 1_555 1_555
N1_3 C9_3 1_555 1_555
O1_5 Cd3_3 1_555 1_555
O2_3 Cd3_3 1_555 1_555
O6_3 C8_5 1_555 1_555
O7_3 C8_5 1_555 1_555
Cd3_4 N2 1_555 1_555
C15_3 C14_3 1_555 1_555
C16_3 C11_3 1_555 1_555
C17_3 C16_3 1_555 1_555
H11_3 C17_3 1_555 1_555
C18_3 C17_3 1_555 1_555
H12_3 C18_3 1_555 1_555
N2 C14_3 1_555 1_555
C1_5 O1_5 1_555 1_555
C1_5 O2_3 1_555 1_555
C6_5 C7_5 1_555 1_555
C13_3 N1_3 1_555 1_555
C15_3 C16_3 1_555 1_555
C18_3 N2 1_555 1_555
C1_6 C2_6 1_555 1_555
C2_6 C3_6 1_555 1_555
C3_6 H1_6 1_555 1_555
C4_6 C3_6 1_555 1_555
H2_6 C4_6 1_555 1_555
C5_6 C4_6 1_555 1_555
C6_6 C5_6 1_555 1_555
H3_6 C6_6 1_555 1_555
C7_6 C2_6 1_555 1_555
H4_6 C7_6 1_555 1_555
C8_6 C5_6 1_555 1_555
O1_6 Cd3_4 1_555 1_555
O2_4 Cd3_4 1_555 1_555
O6_4 C8_6 1_555 1_555
O7_4 C8_6 1_555 1_555
C1_6 O1_6 1_555 1_555
C1_6 O2_4 1_555 1_555
C6_6 C7_6 1_555 1_555
Cd3 O5_3 1_555 1_555
Cd3_2 O5_4 1_555 1_555
Cd3 N1_4 1_555 1_555
C1_7 C2_7 1_555 1_555
C2_7 C3_7 1_555 1_555
C3_7 H1_7 1_555 1_555
C4_7 C3_7 1_555 1_555
H2_7 C4_7 1_555 1_555
C5_7 C4_7 1_555 1_555
C6_7 C5_7 1_555 1_555
H3_7 C6_7 1_555 1_555
C7_7 C2_7 1_555 1_555
H4_7 C7_7 1_555 1_555
C8_7 C5_7 1_555 1_555
C10_4 C9_4 1_555 1_555
C11_4 C10_4 1_555 1_555
C12_4 C11_4 1_555 1_555
H7_4 C12_4 1_555 1_555
C13_4 C12_4 1_555 1_555
H8_4 C13_4 1_555 1_555
N1_4 C9_4 1_555 1_555
O1_7 Cd3 1_555 1_555
O6 C8_7 1_555 1_555
O7 C8_7 1_555 1_555
Cd3_2 N2_2 1_555 1_555
C15_4 C14_4 1_555 1_555
C16_4 C11_4 1_555 1_555
C17_4 C16_4 1_555 1_555
H11_4 C17_4 1_555 1_555
C18_4 C17_4 1_555 1_555
H12_4 C18_4 1_555 1_555
N2_2 C14_4 1_555 1_555
C1_7 O1_7 1_555 1_555
C1_7 O5_3 1_555 1_555
C6_7 C7_7 1_555 1_555
C13_4 N1_4 1_555 1_555
C15_4 C16_4 1_555 1_555
C18_4 N2_2 1_555 1_555
C1_8 C2_8 1_555 1_555
C2_8 C3_8 1_555 1_555
C3_8 H1_8 1_555 1_555
C4_8 C3_8 1_555 1_555
H2_8 C4_8 1_555 1_555
C5_8 C4_8 1_555 1_555
C6_8 C5_8 1_555 1_555
H3_8 C6_8 1_555 1_555
C7_8 C2_8 1_555 1_555
H4_8 C7_8 1_555 1_555
C8_8 C5_8 1_555 1_555
O1_8 Cd3_2 1_555 1_555
O6_2 C8_8 1_555 1_555
O7_2 C8_8 1_555 1_555
C1_8 O1_8 1_555 1_555
C1_8 O5_4 1_555 1_555
C6_8 C7_8 1_555 1_555

#END
