
###############################################################################
#
# This file contains modified crystal structure data generated from the
# MOF subset of the Cambridge Structural Database (CSD) v543 
# hosted by the Cambridge Crystallographic Data Centre (CCDC).
#
# This work is licensed under the Creative Commons
# Attribution-NonCommercial-ShareAlike 4.0 International License.
# To view a copy of this license, visit
# http://creativecommons.org/licenses/by-nc-sa/4.0/
# or send a letter to
# Creative Commons, PO Box 1866, Mountain View, CA 94042, USA.
#
# CIF created using the CSD Python API on 29 September 2022
# The structure has been converted into the P1 space group
# The structure has a 3D framework
# The original CSD entry CUJXUC is in the monoclinic crystal system
# The framework has been calculated to contain at least 10.0% void space
# The void calculation uses a probe of radius 1.32A, grid spacing 0.4
# H atom positions have been added when not included in the experimental data
# Generated hydrogen atom positions removed from atoms on special positions
#
###############################################################################

data_CUJXUC
_chemical_formula_moiety         '(C40 H80 Co6 Mo32 N16 O97)n'
_symmetry_cell_setting           triclinic
_symmetry_space_group_name_H-M   'P 1'
_symmetry_Int_Tables_number      1
_space_group_name_Hall           'P 1'
loop_
_symmetry_equiv_pos_site_id
_symmetry_equiv_pos_as_xyz
1 x,y,z
_cell_length_a                   20.2455(9)
_cell_length_b                   10.3106(5)
_cell_length_c                   21.1660(10)
_cell_angle_alpha                90
_cell_angle_beta                 97.7170(10)
_cell_angle_gamma                90
_cell_volume                     4378.25
loop_
_atom_site_label
_atom_site_type_symbol
_atom_site_fract_x
_atom_site_fract_y
_atom_site_fract_z
O19 O 0.55882(14) 0.0359(3) 0.03701(13)
O24 O 0.65894(15) 0.1173(3) 0.14659(15)
O26 O 0.53219(14) 0.0552(3) 0.16516(14)
O27 O 0.44575(14) 0.2001(3) 0.01386(14)
Co2 Co 0.7500 0.2500 -0.0000
Mo14 Mo 0.362446(17) 0.05056(3) 0.013382(17)
Co1 Co 0.2500 0.2500 0.5000
Mo1 Mo 0.450539(17) 0.06420(3) 0.672349(17)
O1 O 0.30718(14) 0.0788(3) 0.50701(14)
C1 C 0.1992(2) 0.0706(4) 0.6016(2)
O2 O 0.19142(16) 0.1704(3) 0.42281(16)
N1 N 0.18326(19) 0.1805(4) 0.56340(19)
H1 H 0.1463 0.2205 0.5654
Mo2 Mo 0.488055(17) 0.15423(3) 0.526902(16)
O3 O 0.42857(14) 0.0233(3) 0.57628(13)
O4 O 0.52706(14) 0.1653(3) 0.61095(14)
O5 O 0.44118(14) 0.0359(3) 0.46299(13)
O6 O 0.5000 0.1211(4) 0.7500
C5 C 0.2399(2) 0.0799(5) 0.6600(2)
H5 H 0.2566 0.1601 0.6746
O8 O 0.39972(16) 0.1990(3) 0.66041(15)
O11 O 0.34106(15) 0.1173(3) 0.35341(15)
O13 O 0.46781(14) 0.0552(3) 0.33484(14)
O14 O 0.55425(14) 0.2001(3) 0.48614(14)
O15 O 0.43676(15) 0.2866(3) 0.51948(15)
Mo5 Mo 0.549461(17) 0.06420(3) 0.827651(17)
O16 O 0.69282(14) 0.0788(3) 0.99299(14)
Mo6 Mo 0.511945(17) 0.15423(3) 0.973098(16)
O17 O 0.57143(14) 0.0233(3) 0.92372(13)
O18 O 0.47294(14) 0.1653(3) 0.88905(14)
O21 O 0.60028(16) 0.1990(3) 0.83959(15)
O28 O 0.56324(15) 0.2866(3) 0.98052(15)
C6 C 0.3008(2) 0.4294(4) 0.3984(2)
N3 N 0.31674(19) 0.3195(4) 0.43660(19)
H6 H 0.3537 0.2795 0.4346
C7 C 0.3231(2) 0.5506(5) 0.4183(3)
H7 H 0.3493 0.5599 0.4576
N4 N 0.2706(2) 0.6491(4) 0.3267(2)
C8 C 0.3082(3) 0.6534(5) 0.3826(3)
H8 H 0.3249 0.7334 0.3976
C9 C 0.2447(3) 0.5299(5) 0.3039(3)
H9 H 0.2175 0.5248 0.2649
C10 C 0.2601(2) 0.4201(5) 0.3400(2)
H10 H 0.2434 0.3399 0.3254
O29 O 0.30858(16) 0.3296(3) 0.57719(16)
Co2_2 Co 0.7500 0.2500 1.0000
O30 O 0.19282(14) 0.4212(3) 0.49299(14)
Mo13 Mo 0.637554(17) 0.05056(3) 0.486618(17)
Mo15 Mo 0.607901(17) 0.01718(4) 0.638026(17)
Mo16 Mo 0.392099(17) 0.01718(4) 0.861974(17)
H11 H 0.206237 0.237904 0.598652
H16 H 0.293763 0.262096 0.401348
Mo8 Mo 0.607901(17) 0.98282(4) 0.138026(17)
O23 O 0.65590(14) 0.8887(3) 0.07321(14)
O25 O 0.64011(15) 0.8821(3) 0.19851(14)
Mo10 Mo 0.450539(17) 0.93580(3) 0.172349(17)
Mo12 Mo 0.488055(17) 0.84577(3) 0.026902(16)
O32 O 0.52706(14) 0.8347(3) 0.11095(14)
C2 C 0.1769(2) 0.9494(5) 0.5817(3)
H2 H 0.1507 0.9401 0.5424
N2 N 0.2294(2) 0.8509(4) 0.6733(2)
Mo3 Mo 0.362446(17) 0.94944(3) 0.513382(17)
C3 C 0.1918(3) 0.8466(5) 0.6174(3)
H3 H 0.1751 0.7666 0.6024
Mo4 Mo 0.392099(17) 0.98282(4) 0.361974(17)
C4 C 0.2553(3) 0.9701(5) 0.6961(3)
H4 H 0.2825 0.9752 0.7351
O7 O 0.40268(16) 0.9433(3) 0.69510(16)
O9 O 0.32443(15) 0.8336(3) 0.55337(15)
O10 O 0.34410(14) 0.8887(3) 0.42679(14)
O12 O 0.35989(15) 0.8821(3) 0.30149(14)
Mo7 Mo 0.637554(17) 0.94944(3) 0.986618(17)
O20 O 0.59732(16) 0.9433(3) 0.80490(16)
O22 O 0.67557(15) 0.8336(3) 0.94663(15)
Mo9 Mo 0.549461(17) 0.93580(3) 0.327651(17)
Mo11 Mo 0.511945(17) 0.84577(3) 0.473098(16)
O31 O 0.47294(14) 0.8347(3) 0.38905(14)
O33 O 0.55882(14) 0.9641(3) 0.53701(13)
O34 O 0.44118(14) 0.9641(3) 0.96299(13)
O35 O 0.53219(14) 0.9448(3) 0.66516(14)
O36 O 0.46781(14) 0.9448(3) 0.83484(14)
O37 O 0.44575(14) 0.7999(3) 0.51386(14)
O38 O 0.55425(14) 0.7999(3) 0.98614(14)
O2_2 O 0.80858(16) 0.1704(3) 0.07719(16)
C6_2 C 0.6992(2) 0.4294(4) 0.1016(2)
N3_2 N 0.68326(19) 0.3195(4) 0.06340(19)
H6_2 H 0.6463 0.2795 0.0654
C7_2 C 0.6769(2) 0.5506(5) 0.0817(3)
H7_2 H 0.6507 0.5599 0.0424
N4_2 N 0.7294(2) 0.6491(4) 0.1733(2)
C8_2 C 0.6918(3) 0.6534(5) 0.1174(3)
H8_2 H 0.6751 0.7334 0.1024
C9_2 C 0.7553(3) 0.5299(5) 0.1961(3)
H9_2 H 0.7825 0.5248 0.2351
C10_2 C 0.7399(2) 0.4201(5) 0.1600(2)
H10_2 H 0.7566 0.3399 0.1746
O30_2 O 0.80718(14) 0.4212(3) 0.00701(14)
H16_2 H 0.706237 0.262096 0.0986521
C1_2 C 0.8008(2) 0.0706(4) 0.8984(2)
N1_2 N 0.81674(19) 0.1805(4) 0.93660(19)
H1_2 H 0.8537 0.2205 0.9346
C5_2 C 0.7601(2) 0.0799(5) 0.8400(2)
H5_2 H 0.7434 0.1601 0.8254
O29_2 O 0.69142(16) 0.3296(3) 0.92281(16)
H11_2 H 0.793763 0.237904 0.901348
C2_2 C 0.8231(2) 0.9494(5) 0.9183(3)
H2_2 H 0.8493 0.9401 0.9576
N2_2 N 0.7706(2) 0.8509(4) 0.8267(2)
C3_2 C 0.8082(3) 0.8466(5) 0.8826(3)
H3_2 H 0.8249 0.7666 0.8976
C4_2 C 0.7447(3) 0.9701(5) 0.8039(3)
H4_2 H 0.7175 0.9752 0.7649
Mo8_2 Mo 0.107901(17) 0.48282(4) 0.138026(17)
O19_2 O 0.05882(14) 0.5359(3) 0.03701(13)
O23_2 O 0.15590(14) 0.3887(3) 0.07321(14)
O24_2 O 0.15894(15) 0.6173(3) 0.14659(15)
O25_2 O 0.14011(15) 0.3821(3) 0.19851(14)
O26_2 O 0.03219(14) 0.5552(3) 0.16516(14)
Co2_3 Co 0.2500 0.7500 -0.0000
O32_2 O 0.02706(14) 0.3347(3) 0.11095(14)
O4_2 O 0.02706(14) 0.6653(3) 0.61095(14)
O6_2 O 0.0000 0.6211(4) 0.7500
O14_2 O 0.05425(14) 0.7001(3) 0.48614(14)
Mo5_2 Mo 0.049461(17) 0.56420(3) 0.827651(17)
O16_2 O 0.19282(14) 0.5788(3) 0.99299(14)
Mo6_2 Mo 0.011945(17) 0.65423(3) 0.973098(16)
O17_2 O 0.07143(14) 0.5233(3) 0.92372(13)
Mo7_2 Mo 0.137554(17) 0.44944(3) 0.986618(17)
O20_2 O 0.09732(16) 0.4433(3) 0.80490(16)
O21_2 O 0.10028(16) 0.6990(3) 0.83959(15)
O22_2 O 0.17557(15) 0.3336(3) 0.94663(15)
O28_2 O 0.06324(15) 0.7866(3) 0.98052(15)
Co2_4 Co 0.2500 0.7500 1.0000
Mo9_2 Mo 0.049461(17) 0.43580(3) 0.327651(17)
Mo11_2 Mo 0.011945(17) 0.34577(3) 0.473098(16)
Mo13_2 Mo 0.137554(17) 0.55056(3) 0.486618(17)
Mo15_2 Mo 0.107901(17) 0.51718(4) 0.638026(17)
O33_2 O 0.05882(14) 0.4641(3) 0.53701(13)
O35_2 O 0.03219(14) 0.4448(3) 0.66516(14)
O38_2 O 0.05425(14) 0.2999(3) 0.98614(14)
C7_3 C 0.8231(2) 0.0506(5) 0.4183(3)
H7_3 H 0.8493 0.0599 0.4576
N4_3 N 0.7706(2) 0.1491(4) 0.3267(2)
C8_3 C 0.8082(3) 0.1534(5) 0.3826(3)
H8_3 H 0.8249 0.2334 0.3976
C9_3 C 0.7447(3) 0.0299(5) 0.3039(3)
H9_3 H 0.7175 0.0248 0.2649
O27_2 O 0.94575(14) 0.7001(3) 0.01386(14)
Mo10_2 Mo 0.950539(17) 0.43580(3) 0.172349(17)
Mo12_2 Mo 0.988055(17) 0.34577(3) 0.026902(16)
Mo14_2 Mo 0.862446(17) 0.55056(3) 0.013382(17)
Co1_2 Co 0.7500 0.7500 0.5000
Mo1_2 Mo 0.950539(17) 0.56420(3) 0.672349(17)
O1_2 O 0.80718(14) 0.5788(3) 0.50701(14)
C1_3 C 0.6992(2) 0.5706(4) 0.6016(2)
O2_3 O 0.69142(16) 0.6704(3) 0.42281(16)
N1_3 N 0.68326(19) 0.6805(4) 0.56340(19)
H1_3 H 0.6463 0.7205 0.5654
Mo2_2 Mo 0.988055(17) 0.65423(3) 0.526902(16)
O3_2 O 0.92857(14) 0.5233(3) 0.57628(13)
C2_3 C 0.6769(2) 0.4494(5) 0.5817(3)
H2_3 H 0.6507 0.4401 0.5424
N2_3 N 0.7294(2) 0.3509(4) 0.6733(2)
Mo3_2 Mo 0.862446(17) 0.44944(3) 0.513382(17)
C3_3 C 0.6918(3) 0.3466(5) 0.6174(3)
H3_3 H 0.6751 0.2666 0.6024
Mo4_2 Mo 0.892099(17) 0.48282(4) 0.361974(17)
O5_2 O 0.94118(14) 0.5359(3) 0.46299(13)
C4_3 C 0.7553(3) 0.4701(5) 0.6961(3)
H4_3 H 0.7825 0.4752 0.7351
O6_3 O 1.0000 0.6211(4) 0.7500
C5_3 C 0.7399(2) 0.5799(5) 0.6600(2)
H5_3 H 0.7566 0.6601 0.6746
O7_2 O 0.90268(16) 0.4433(3) 0.69510(16)
O8_2 O 0.89972(16) 0.6990(3) 0.66041(15)
O9_2 O 0.82443(15) 0.3336(3) 0.55337(15)
O10_2 O 0.84410(14) 0.3887(3) 0.42679(14)
O11_2 O 0.84106(15) 0.6173(3) 0.35341(15)
O12_2 O 0.85989(15) 0.3821(3) 0.30149(14)
O13_2 O 0.96781(14) 0.5552(3) 0.33484(14)
O15_2 O 0.93676(15) 0.7866(3) 0.51948(15)
O18_2 O 0.97294(14) 0.6653(3) 0.88905(14)
C6_3 C 0.8008(2) 0.9294(4) 0.3984(2)
N3_3 N 0.81674(19) 0.8195(4) 0.43660(19)
H6_3 H 0.8537 0.7795 0.4346
C10_3 C 0.7601(2) 0.9201(5) 0.3400(2)
H10_3 H 0.7434 0.8399 0.3254
O29_3 O 0.80858(16) 0.8296(3) 0.57719(16)
O30_3 O 0.69282(14) 0.9212(3) 0.49299(14)
O31_2 O 0.97294(14) 0.3347(3) 0.38905(14)
Mo16_2 Mo 0.892099(17) 0.51718(4) 0.861974(17)
O34_2 O 0.94118(14) 0.4641(3) 0.96299(13)
O36_2 O 0.96781(14) 0.4448(3) 0.83484(14)
O37_2 O 0.94575(14) 0.2999(3) 0.51386(14)
H11_3 H 0.706237 0.737904 0.598652
H16_3 H 0.793763 0.762096 0.401348
C7_4 C 0.1769(2) 0.0506(5) 0.0817(3)
H7_4 H 0.1507 0.0599 0.0424
N4_4 N 0.2294(2) 0.1491(4) 0.1733(2)
C8_4 C 0.1918(3) 0.1534(5) 0.1174(3)
H8_4 H 0.1751 0.2334 0.1024
C9_4 C 0.2553(3) 0.0299(5) 0.1961(3)
H9_4 H 0.2825 0.0248 0.2351
O2_4 O 0.30858(16) 0.6704(3) 0.07719(16)
C6_4 C 0.1992(2) 0.9294(4) 0.1016(2)
N3_4 N 0.18326(19) 0.8195(4) 0.06340(19)
H6_4 H 0.1463 0.7795 0.0654
C10_4 C 0.2399(2) 0.9201(5) 0.1600(2)
H10_4 H 0.2566 0.8399 0.1746
O30_4 O 0.30718(14) 0.9212(3) 0.00701(14)
H16_4 H 0.206237 0.762096 0.0986521
C1_4 C 0.3008(2) 0.5706(4) 0.8984(2)
N1_4 N 0.31674(19) 0.6805(4) 0.93660(19)
H1_4 H 0.3537 0.7205 0.9346
C2_4 C 0.3231(2) 0.4494(5) 0.9183(3)
H2_4 H 0.3493 0.4401 0.9576
N2_4 N 0.2706(2) 0.3509(4) 0.8267(2)
C3_4 C 0.3082(3) 0.3466(5) 0.8826(3)
H3_4 H 0.3249 0.2666 0.8976
C4_4 C 0.2447(3) 0.4701(5) 0.8039(3)
H4_4 H 0.2175 0.4752 0.7649
C5_4 C 0.2601(2) 0.5799(5) 0.8400(2)
H5_4 H 0.2434 0.6601 0.8254
O29_4 O 0.19142(16) 0.8296(3) 0.92281(16)
H11_4 H 0.293763 0.737904 0.901348
O7_3 O 0.59732(16) 0.0567(3) 0.30490(16)
O9_3 O 0.67557(15) 0.1664(3) 0.44663(15)
O10_3 O 0.65590(14) 0.1113(3) 0.57321(14)
O12_3 O 0.64011(15) 0.1179(3) 0.69851(14)
O20_3 O 0.40268(16) 0.0567(3) 0.19510(16)
O22_3 O 0.32443(15) 0.1664(3) 0.05337(15)
O23_3 O 0.34410(14) 0.1113(3) 0.92679(14)
O25_3 O 0.35989(15) 0.1179(3) 0.80149(14)
O3_3 O 0.57143(14) 0.9767(3) 0.42372(13)
O6_4 O 0.5000 0.8789(4) 0.2500
O8_3 O 0.60028(16) 0.8010(3) 0.33959(15)
O11_3 O 0.65894(15) 0.8827(3) 0.64659(15)
O15_3 O 0.56324(15) 0.7134(3) 0.48052(15)
O17_3 O 0.42857(14) 0.9767(3) 0.07628(13)
O21_3 O 0.39972(16) 0.8010(3) 0.16041(15)
O28_3 O 0.43676(15) 0.7134(3) 0.01948(15)
O24_3 O 0.34106(15) 0.8827(3) 0.85341(15)
O3_4 O 0.07143(14) 0.4767(3) 0.42372(13)
O6_5 O 0.0000 0.3789(4) 0.2500
O7_4 O 0.09732(16) 0.5567(3) 0.30490(16)
O8_4 O 0.10028(16) 0.3010(3) 0.33959(15)
O9_4 O 0.17557(15) 0.6664(3) 0.44663(15)
O10_4 O 0.15590(14) 0.6113(3) 0.57321(14)
O11_4 O 0.15894(15) 0.3827(3) 0.64659(15)
O12_4 O 0.14011(15) 0.6179(3) 0.69851(14)
O15_4 O 0.06324(15) 0.2134(3) 0.48052(15)
O6_6 O 1.0000 0.3789(4) 0.2500
O17_4 O 0.92857(14) 0.4767(3) 0.07628(13)
O20_4 O 0.90268(16) 0.5567(3) 0.19510(16)
O21_4 O 0.89972(16) 0.3010(3) 0.16041(15)
O22_4 O 0.82443(15) 0.6664(3) 0.05337(15)
O28_4 O 0.93676(15) 0.2134(3) 0.01948(15)
O23_4 O 0.84410(14) 0.6113(3) 0.92679(14)
O24_4 O 0.84106(15) 0.3827(3) 0.85341(15)
O25_4 O 0.85989(15) 0.6179(3) 0.80149(14)
loop_
_geom_bond_atom_site_label_1
_geom_bond_atom_site_label_2
_geom_bond_site_symmetry_1
_geom_bond_site_symmetry_2
Mo14 O27 1_555 1_555
Co1 O1 1_555 1_555
Mo1 O3 1_555 1_555
C1 N1 1_555 1_555
O2 Co1 1_555 1_555
N1 Co1 1_555 1_555
H1 N1 1_555 1_555
Mo2 O3 1_555 1_555
O4 Mo1 1_555 1_555
O5 Mo2 1_555 1_555
O6 Mo1 1_555 1_555
C5 C1 1_555 1_555
H5 C5 1_555 1_555
O8 Mo1 1_555 1_555
O14 Mo2 1_555 1_555
O15 Mo2 1_555 1_555
Mo5 O6 1_555 1_555
Mo6 O17 1_555 1_555
O17 Mo5 1_555 1_555
O18 Mo5 1_555 1_555
O21 Mo5 1_555 1_555
O28 Mo6 1_555 1_555
C6 N3 1_555 1_555
N3 Co1 1_555 1_555
H6 N3 1_555 1_555
C7 C6 1_555 1_555
H7 C7 1_555 1_555
N4 C8 1_555 1_555
C8 C7 1_555 1_555
H8 C8 1_555 1_555
C9 N4 1_555 1_555
H9 C9 1_555 1_555
C10 C6 1_555 1_555
H10 C10 1_555 1_555
O29 Co1 1_555 1_555
Co2_2 O16 1_555 1_555
O30 Co1 1_555 1_555
Mo13 O14 1_555 1_555
Mo15 O4 1_555 1_555
Mo16 O18 1_555 1_555
Mo2 O4 1_555 1_555
Mo6 O18 1_555 1_555
C9 C10 1_555 1_555
N1 H11 1_555 1_555
N3 H16 1_555 1_555
O25 Mo8 1_555 1_555
O32 Mo8 1_555 1_555
Mo8 O23 1_555 1_555
Mo10 O32 1_555 1_555
Mo12 O32 1_555 1_555
H2 C2 1_555 1_555
N2 C3 1_555 1_555
C3 C2 1_555 1_555
H3 C3 1_555 1_555
C4 N2 1_555 1_555
H4 C4 1_555 1_555
O9 Mo3 1_555 1_555
O10 Mo3 1_555 1_555
O12 Mo4 1_555 1_555
O22 Mo7 1_555 1_555
O31 Mo4 1_555 1_555
O37 Mo3 1_555 1_555
O38 Mo7 1_555 1_555
Mo4 O10 1_555 1_555
Mo9 O31 1_555 1_555
Mo11 O31 1_555 1_555
Mo11 O33 1_555 1_555
Mo11 O37 1_555 1_555
O2_2 Co2 1_555 1_555
C6_2 N3_2 1_555 1_555
N3_2 Co2 1_555 1_555
H6_2 N3_2 1_555 1_555
C7_2 C6_2 1_555 1_555
H7_2 C7_2 1_555 1_555
N4_2 C8_2 1_555 1_555
C8_2 C7_2 1_555 1_555
H8_2 C8_2 1_555 1_555
C9_2 N4_2 1_555 1_555
H9_2 C9_2 1_555 1_555
C10_2 C6_2 1_555 1_555
H10_2 C10_2 1_555 1_555
O30_2 Co2 1_555 1_555
C9_2 C10_2 1_555 1_555
N3_2 H16_2 1_555 1_555
C1_2 N1_2 1_555 1_555
N1_2 Co2_2 1_555 1_555
H1_2 N1_2 1_555 1_555
C5_2 C1_2 1_555 1_555
H5_2 C5_2 1_555 1_555
O29_2 Co2_2 1_555 1_555
N1_2 H11_2 1_555 1_555
H2_2 C2_2 1_555 1_555
N2_2 C3_2 1_555 1_555
C3_2 C2_2 1_555 1_555
H3_2 C3_2 1_555 1_555
C4_2 N2_2 1_555 1_555
H4_2 C4_2 1_555 1_555
Mo8_2 O19_2 1_555 1_555
O24_2 Mo8_2 1_555 1_555
O25_2 Mo8_2 1_555 1_555
O26_2 Mo8_2 1_555 1_555
O32_2 Mo8_2 1_555 1_555
Mo8_2 O23_2 1_555 1_555
Mo5_2 O6_2 1_555 1_555
O16_2 Mo7_2 1_555 1_555
Mo6_2 O17_2 1_555 1_555
O17_2 Mo5_2 1_555 1_555
Mo7_2 O17_2 1_555 1_555
O20_2 Mo5_2 1_555 1_555
O21_2 Mo5_2 1_555 1_555
O22_2 Mo7_2 1_555 1_555
O28_2 Mo6_2 1_555 1_555
Co2_4 O16_2 1_555 1_555
Mo13_2 O14_2 1_555 1_555
Mo15_2 O4_2 1_555 1_555
O38_2 Mo7_2 1_555 1_555
Mo11_2 O33_2 1_555 1_555
Mo13_2 O33_2 1_555 1_555
Mo15_2 O33_2 1_555 1_555
Mo15_2 O35_2 1_555 1_555
H7_3 C7_3 1_555 1_555
N4_3 C8_3 1_555 1_555
C8_3 C7_3 1_555 1_555
H8_3 C8_3 1_555 1_555
C9_3 N4_3 1_555 1_555
H9_3 C9_3 1_555 1_555
Mo14_2 O27_2 1_555 1_555
Co1_2 O1_2 1_555 1_555
Mo1_2 O3_2 1_555 1_555
O1_2 Mo3_2 1_555 1_555
C1_3 N1_3 1_555 1_555
O2_3 Co1_2 1_555 1_555
N1_3 Co1_2 1_555 1_555
H1_3 N1_3 1_555 1_555
Mo2_2 O3_2 1_555 1_555
O3_2 Mo3_2 1_555 1_555
C2_3 C1_3 1_555 1_555
H2_3 C2_3 1_555 1_555
N2_3 C3_3 1_555 1_555
Mo3_2 O5_2 1_555 1_555
C3_3 C2_3 1_555 1_555
H3_3 C3_3 1_555 1_555
Mo4_2 O5_2 1_555 1_555
O5_2 Mo2_2 1_555 1_555
C4_3 N2_3 1_555 1_555
H4_3 C4_3 1_555 1_555
O6_3 Mo1_2 1_555 1_555
C5_3 C1_3 1_555 1_555
H5_3 C5_3 1_555 1_555
O7_2 Mo1_2 1_555 1_555
O8_2 Mo1_2 1_555 1_555
O9_2 Mo3_2 1_555 1_555
O10_2 Mo3_2 1_555 1_555
O11_2 Mo4_2 1_555 1_555
O12_2 Mo4_2 1_555 1_555
O13_2 Mo4_2 1_555 1_555
O15_2 Mo2_2 1_555 1_555
C6_3 N3_3 1_555 1_555
N3_3 Co1_2 1_555 1_555
H6_3 N3_3 1_555 1_555
C10_3 C6_3 1_555 1_555
H10_3 C10_3 1_555 1_555
O29_3 Co1_2 1_555 1_555
O30_3 Co1_2 1_555 1_555
O31_2 Mo4_2 1_555 1_555
Mo16_2 O18_2 1_555 1_555
O37_2 Mo3_2 1_555 1_555
Mo4_2 O10_2 1_555 1_555
C4_3 C5_3 1_555 1_555
Mo16_2 O34_2 1_555 1_555
Mo16_2 O36_2 1_555 1_555
N1_3 H11_3 1_555 1_555
N3_3 H16_3 1_555 1_555
H7_4 C7_4 1_555 1_555
N4_4 C8_4 1_555 1_555
C8_4 C7_4 1_555 1_555
H8_4 C8_4 1_555 1_555
C9_4 N4_4 1_555 1_555
H9_4 C9_4 1_555 1_555
O2_4 Co2_3 1_555 1_555
C6_4 N3_4 1_555 1_555
N3_4 Co2_3 1_555 1_555
H6_4 N3_4 1_555 1_555
C10_4 C6_4 1_555 1_555
H10_4 C10_4 1_555 1_555
O30_4 Co2_3 1_555 1_555
N3_4 H16_4 1_555 1_555
C1_4 N1_4 1_555 1_555
N1_4 Co2_4 1_555 1_555
H1_4 N1_4 1_555 1_555
C2_4 C1_4 1_555 1_555
H2_4 C2_4 1_555 1_555
N2_4 C3_4 1_555 1_555
C3_4 C2_4 1_555 1_555
H3_4 C3_4 1_555 1_555
C4_4 N2_4 1_555 1_555
H4_4 C4_4 1_555 1_555
C5_4 C1_4 1_555 1_555
H5_4 C5_4 1_555 1_555
O29_4 Co2_4 1_555 1_555
C4_4 C5_4 1_555 1_555
N1_4 H11_4 1_555 1_555
O9_3 Mo13 1_555 1_555
O10_3 Mo13 1_555 1_555
O12_3 Mo15 1_555 1_555
O22_3 Mo14 1_555 1_555
Mo15 O10_3 1_555 1_555
O25_3 Mo16 1_555 1_555
Mo16 O23_3 1_555 1_555
Mo9 O3_3 1_555 1_555
Mo11 O3_3 1_555 1_555
O6_4 Mo9 1_555 1_555
O8_3 Mo9 1_555 1_555
O15_3 Mo11 1_555 1_555
Mo10 O6_4 1_555 1_555
Mo12 O17_3 1_555 1_555
O17_3 Mo10 1_555 1_555
O21_3 Mo10 1_555 1_555
O28_3 Mo12 1_555 1_555
Mo9_2 O3_4 1_555 1_555
O30 Mo13_2 1_555 1_555
Mo11_2 O3_4 1_555 1_555
O3_4 Mo13_2 1_555 1_555
O6_5 Mo9_2 1_555 1_555
O7_4 Mo9_2 1_555 1_555
O8_4 Mo9_2 1_555 1_555
O9_4 Mo13_2 1_555 1_555
O10_4 Mo13_2 1_555 1_555
O11_4 Mo15_2 1_555 1_555
O12_4 Mo15_2 1_555 1_555
O15_4 Mo11_2 1_555 1_555
Mo15_2 O10_4 1_555 1_555
Mo10_2 O6_6 1_555 1_555
O30_2 Mo14_2 1_555 1_555
Mo12_2 O17_4 1_555 1_555
O17_4 Mo10_2 1_555 1_555
Mo14_2 O17_4 1_555 1_555
O20_4 Mo10_2 1_555 1_555
O21_4 Mo10_2 1_555 1_555
O22_4 Mo14_2 1_555 1_555
O28_4 Mo12_2 1_555 1_555
O24_4 Mo16_2 1_555 1_555
O25_4 Mo16_2 1_555 1_555
Mo16_2 O23_4 1_555 1_555

#END
