
###############################################################################
#
# This file contains modified crystal structure data generated from the
# MOF subset of the Cambridge Structural Database (CSD) v543 
# hosted by the Cambridge Crystallographic Data Centre (CCDC).
#
# This work is licensed under the Creative Commons
# Attribution-NonCommercial-ShareAlike 4.0 International License.
# To view a copy of this license, visit
# http://creativecommons.org/licenses/by-nc-sa/4.0/
# or send a letter to
# Creative Commons, PO Box 1866, Mountain View, CA 94042, USA.
#
# CIF created using the CSD Python API on 29 September 2022
# The structure has been converted into the P1 space group
# The structure has a 3D framework
# The original CSD entry CUJXOW is in the monoclinic crystal system
# The framework has been calculated to contain at least 10.0% void space
# The void calculation uses a probe of radius 1.32A, grid spacing 0.4
# H atom positions have been added when not included in the experimental data
# Generated hydrogen atom positions removed from atoms on special positions
#
###############################################################################

data_CUJXOW
_chemical_formula_moiety         '(C40 H80 Cu6 Mo32 N16 O97)n'
_symmetry_cell_setting           triclinic
_symmetry_space_group_name_H-M   'P 1'
_symmetry_Int_Tables_number      1
_space_group_name_Hall           'P 1'
loop_
_symmetry_equiv_pos_site_id
_symmetry_equiv_pos_as_xyz
1 x,y,z
_cell_length_a                   20.4469(6)
_cell_length_b                   10.2715(3)
_cell_length_c                   21.1301(6)
_cell_angle_alpha                90
_cell_angle_beta                 97.75
_cell_angle_gamma                90
_cell_volume                     4397.22
loop_
_atom_site_label
_atom_site_type_symbol
_atom_site_fract_x
_atom_site_fract_y
_atom_site_fract_z
O17 O 0.09516(13) 0.0611(3) 0.30360(12)
Mo6 Mo 0.134915(13) 0.06267(3) 0.485766(13)
O19 O 0.17030(12) 0.1822(3) 0.44575(12)
O23 O 0.15232(11) 0.1233(2) 0.57273(10)
Mo8 Mo 0.107126(13) 0.02281(3) 0.637792(13)
O25 O 0.13864(12) 0.1241(3) 0.69844(11)
O32 O 0.02448(11) 0.1659(2) 0.61129(11)
O34 O 0.04932(11) 0.2060(2) 0.48591(11)
O35 O 0.03359(11) 0.0541(2) 0.16552(11)
O37 O 0.05907(11) 0.0315(2) 0.03685(10)
Mo9 Mo 0.049153(13) 0.06180(3) 0.827393(13)
Mo13 Mo 0.014689(13) 0.15321(3) 0.972844(13)
O5 O 0.02448(11) 0.8341(2) 0.11129(11)
O14 O -0.0000 0.8786(3) 0.2500
Mo5 Mo 0.049153(13) 0.93820(3) 0.327393(13)
O16 O 0.10127(13) 0.8053(3) 0.33988(12)
O18 O 0.19183(12) 0.9383(2) 0.49207(12)
Mo7 Mo 0.014689(13) 0.84679(3) 0.472844(13)
O22 O 0.06802(12) 0.7175(2) 0.47938(12)
O24 O 0.16001(12) 0.8915(3) 0.64446(12)
O26 O 0.03359(11) 0.9459(2) 0.66552(11)
O27 O 0.05907(11) 0.9685(2) 0.53685(10)
O28 O 0.07050(11) 0.9836(2) 0.42288(11)
Mo15 Mo 0.107126(13) 0.97719(3) 0.137792(13)
Cu2 Cu 0.2500 0.7500 0.5000
O6 O 0.04932(11) 0.7940(2) 0.98591(11)
Mo11 Mo 0.134915(13) 0.93733(3) 0.985766(13)
O2 O 0.90484(13) 0.0611(3) 0.19640(12)
Mo2 Mo 0.865085(13) 0.06267(3) 0.014234(13)
O4 O 0.82970(12) 0.1822(3) 0.05425(12)
C2 C 0.7566(2) 0.0223(4) 0.1942(2)
H3 H 0.7837 0.0178 0.2332
N2 N 0.69224(16) 0.1457(3) 0.11529(16)
C4 C 0.67844(19) 0.0408(4) 0.07917(19)
H4 H 0.6524 0.0490 0.0397
C5 C 0.7303(2) 0.1389(4) 0.1717(2)
H5 H 0.7390 0.2139 0.1960
Mo10 Mo 0.950847(13) 0.06180(3) 0.672607(13)
Mo14 Mo 0.985311(13) 0.15321(3) 0.527156(13)
O33 O 0.95068(11) 0.2060(2) 0.01409(11)
O36 O 0.96641(11) 0.0541(2) 0.33448(11)
O38 O 0.94093(11) 0.0315(2) 0.46315(10)
O8 O 0.84768(11) 0.1233(2) 0.92727(10)
Mo4 Mo 0.892874(13) 0.02281(3) 0.862208(13)
O10 O 0.86136(12) 0.1241(3) 0.80156(11)
O31 O 0.97552(11) 0.1659(2) 0.88871(11)
Mo1 Mo 0.950847(13) 0.93820(3) 0.172607(13)
O1 O 0.89873(13) 0.8053(3) 0.16012(12)
O3 O 0.80817(12) 0.9383(2) 0.00793(12)
Mo3 Mo 0.985311(13) 0.84679(3) 0.027156(13)
O7 O 0.93198(12) 0.7175(2) 0.02062(12)
O13 O 0.92950(11) 0.9836(2) 0.07712(11)
O14_2 O 1.0000 0.8786(3) 0.2500
Cu1 Cu 0.7500 0.7500 0.0000
N1 N 0.68673(15) 0.8088(3) 0.06063(14)
H1 H 0.6509 0.7662 0.0629
C1 C 0.74209(19) 0.9113(4) 0.15781(18)
H2 H 0.7590 0.8310 0.1724
O15 O 0.80761(13) 0.6726(3) 0.07592(13)
C3 C 0.70208(17) 0.9205(4) 0.09923(17)
O20 O 0.97552(11) 0.8341(2) 0.38871(11)
O21 O 0.95068(11) 0.7940(2) 0.51409(11)
Mo12 Mo 0.865085(13) 0.93733(3) 0.514234(13)
Mo16 Mo 0.892874(13) 0.97719(3) 0.362208(13)
H14 H 0.662661 0.865694 0.0257098
O9 O 0.83999(12) 0.8915(3) 0.85554(12)
O11 O 0.96641(11) 0.9459(2) 0.83448(11)
O12 O 0.94093(11) 0.9685(2) 0.96315(10)
Cu1_2 Cu 0.7500 0.7500 1.0000
N3 N 0.81327(15) 0.6912(3) 0.93937(14)
H6 H 0.8491 0.7338 0.9371
C6 C 0.75791(19) 0.5887(4) 0.84219(18)
H7 H 0.7410 0.6690 0.8276
C7 C 0.7434(2) 0.4777(4) 0.8058(2)
H8 H 0.7163 0.4822 0.7668
N4 N 0.80776(16) 0.3543(3) 0.88471(16)
C8 C 0.79792(17) 0.5795(4) 0.90077(17)
C9 C 0.82156(19) 0.4592(4) 0.92083(19)
H9 H 0.8476 0.4510 0.9603
C10 C 0.7697(2) 0.3611(4) 0.8283(2)
H10 H 0.7610 0.2861 0.8040
O29 O 0.69239(13) 0.8274(3) 0.92408(13)
O30 O 0.69183(12) 0.5617(2) 0.99207(12)
H13 H 0.837339 0.634306 0.97429
C2_2 C 0.2434(2) 0.0223(4) 0.3058(2)
H3_2 H 0.2163 0.0178 0.2668
N2_2 N 0.30776(16) 0.1457(3) 0.38471(16)
C4_2 C 0.32156(19) 0.0408(4) 0.42083(19)
H4_2 H 0.3476 0.0490 0.4603
C5_2 C 0.2697(2) 0.1389(4) 0.3283(2)
H5_2 H 0.2610 0.2139 0.3040
N1_2 N 0.31327(15) 0.8088(3) 0.43937(14)
H1_2 H 0.3491 0.7662 0.4371
C1_2 C 0.25791(19) 0.9113(4) 0.34219(18)
H2_2 H 0.2410 0.8310 0.3276
O15_2 O 0.19239(13) 0.6726(3) 0.42408(13)
C3_2 C 0.29792(17) 0.9205(4) 0.40077(17)
N3_2 N 0.18673(15) 0.6912(3) 0.56063(14)
H6_2 H 0.1509 0.7338 0.5629
C6_2 C 0.24209(19) 0.5887(4) 0.65781(18)
H7_2 H 0.2590 0.6690 0.6724
C7_2 C 0.2566(2) 0.4777(4) 0.6942(2)
H8_2 H 0.2837 0.4822 0.7332
N4_2 N 0.19224(16) 0.3543(3) 0.61529(16)
C8_2 C 0.20208(17) 0.5795(4) 0.59923(17)
C9_2 C 0.17844(19) 0.4592(4) 0.57917(19)
H9_2 H 0.1524 0.4510 0.5397
C10_2 C 0.2303(2) 0.3611(4) 0.6717(2)
H10_2 H 0.2390 0.2861 0.6960
O29_2 O 0.30761(13) 0.8274(3) 0.57592(13)
O30_2 O 0.30817(12) 0.5617(2) 0.50793(12)
H13_2 H 0.162661 0.634306 0.52571
H14_2 H 0.337339 0.865694 0.47429
Mo1_2 Mo 0.450847(13) 0.43820(3) 0.172607(13)
O1_2 O 0.39873(13) 0.3053(3) 0.16012(12)
O2_2 O 0.40484(13) 0.5611(3) 0.19640(12)
O3_2 O 0.30817(12) 0.4383(2) 0.00793(12)
Mo2_2 Mo 0.365085(13) 0.56267(3) 0.014234(13)
O4_2 O 0.32970(12) 0.6822(3) 0.05425(12)
Mo3_2 Mo 0.485311(13) 0.34679(3) 0.027156(13)
O5_2 O 0.52448(11) 0.3341(2) 0.11129(11)
O7_2 O 0.43198(12) 0.2175(2) 0.02062(12)
O13_2 O 0.42950(11) 0.4836(2) 0.07712(11)
O14_3 O 0.5000 0.3786(3) 0.2500
Cu1_3 Cu 0.2500 0.2500 0.0000
N1_3 N 0.18673(15) 0.3088(3) 0.06063(14)
H1_3 H 0.1509 0.2662 0.0629
C1_3 C 0.24209(19) 0.4113(4) 0.15781(18)
H2_3 H 0.2590 0.3310 0.1724
O15_3 O 0.30761(13) 0.1726(3) 0.07592(13)
C2_3 C 0.2566(2) 0.5223(4) 0.1942(2)
H3_3 H 0.2837 0.5178 0.2332
N2_3 N 0.19224(16) 0.6457(3) 0.11529(16)
C3_3 C 0.20208(17) 0.4205(4) 0.09923(17)
C4_3 C 0.17844(19) 0.5408(4) 0.07917(19)
H4_3 H 0.1524 0.5490 0.0397
C5_3 C 0.2303(2) 0.6389(4) 0.1717(2)
H5_3 H 0.2390 0.7139 0.1960
Mo5_2 Mo 0.549153(13) 0.43820(3) 0.327393(13)
O16_2 O 0.60127(13) 0.3053(3) 0.33988(12)
O17_2 O 0.59516(13) 0.5611(3) 0.30360(12)
O18_2 O 0.69183(12) 0.4383(2) 0.49207(12)
Mo6_2 Mo 0.634915(13) 0.56267(3) 0.485766(13)
O19_2 O 0.67030(12) 0.6822(3) 0.44575(12)
Mo7_2 Mo 0.514689(13) 0.34679(3) 0.472844(13)
O20_2 O 0.47552(11) 0.3341(2) 0.38871(11)
O21_2 O 0.45068(11) 0.2940(2) 0.51409(11)
O22_2 O 0.56802(12) 0.2175(2) 0.47938(12)
O23_2 O 0.65232(11) 0.6233(2) 0.57273(10)
Mo8_2 Mo 0.607126(13) 0.52281(3) 0.637792(13)
O24_2 O 0.66001(12) 0.3915(3) 0.64446(12)
O25_2 O 0.63864(12) 0.6241(3) 0.69844(11)
O26_2 O 0.53359(11) 0.4459(2) 0.66552(11)
O27_2 O 0.55907(11) 0.4685(2) 0.53685(10)
O28_2 O 0.57050(11) 0.4836(2) 0.42288(11)
Mo10_2 Mo 0.450847(13) 0.56180(3) 0.672607(13)
Mo12_2 Mo 0.365085(13) 0.43733(3) 0.514234(13)
Mo14_2 Mo 0.485311(13) 0.65321(3) 0.527156(13)
O32_2 O 0.52448(11) 0.6659(2) 0.61129(11)
O33_2 O 0.45068(11) 0.7060(2) 0.01409(11)
O34_2 O 0.54932(11) 0.7060(2) 0.48591(11)
Mo15_2 Mo 0.607126(13) 0.47719(3) 0.137792(13)
Mo16_2 Mo 0.392874(13) 0.47719(3) 0.362208(13)
O35_2 O 0.53359(11) 0.5541(2) 0.16552(11)
O36_2 O 0.46641(11) 0.5541(2) 0.33448(11)
O37_2 O 0.55907(11) 0.5315(2) 0.03685(10)
O38_2 O 0.44093(11) 0.5315(2) 0.46315(10)
Cu2_2 Cu 0.7500 0.2500 0.5000
H14_3 H 0.162661 0.365694 0.0257098
O6_2 O 0.54932(11) 0.2940(2) 0.98591(11)
O8_2 O 0.34768(11) 0.6233(2) 0.92727(10)
Mo4_2 Mo 0.392874(13) 0.52281(3) 0.862208(13)
O9_2 O 0.33999(12) 0.3915(3) 0.85554(12)
O10_2 O 0.36136(12) 0.6241(3) 0.80156(11)
O11_2 O 0.46641(11) 0.4459(2) 0.83448(11)
O12_2 O 0.44093(11) 0.4685(2) 0.96315(10)
Cu1_4 Cu 0.2500 0.2500 1.0000
N3_3 N 0.31327(15) 0.1912(3) 0.93937(14)
H6_3 H 0.3491 0.2338 0.9371
C6_3 C 0.25791(19) 0.0887(4) 0.84219(18)
H7_3 H 0.2410 0.1690 0.8276
C8_3 C 0.29792(17) 0.0795(4) 0.90077(17)
O29_3 O 0.19239(13) 0.3274(3) 0.92408(13)
Mo9_2 Mo 0.549153(13) 0.56180(3) 0.827393(13)
O30_3 O 0.19183(12) 0.0617(2) 0.99207(12)
Mo11_2 Mo 0.634915(13) 0.43733(3) 0.985766(13)
Mo13_2 Mo 0.514689(13) 0.65321(3) 0.972844(13)
O31_2 O 0.47552(11) 0.6659(2) 0.88871(11)
H13_3 H 0.337339 0.134306 0.97429
C7_3 C 0.2434(2) 0.9777(4) 0.8058(2)
H8_3 H 0.2163 0.9822 0.7668
N4_3 N 0.30776(16) 0.8543(3) 0.88471(16)
C9_3 C 0.32156(19) 0.9592(4) 0.92083(19)
H9_3 H 0.3476 0.9510 0.9603
C10_3 C 0.2697(2) 0.8611(4) 0.8283(2)
H10_3 H 0.2610 0.7861 0.8040
N1_4 N 0.81327(15) 0.3088(3) 0.43937(14)
H1_4 H 0.8491 0.2662 0.4371
C1_4 C 0.75791(19) 0.4113(4) 0.34219(18)
H2_4 H 0.7410 0.3310 0.3276
O15_4 O 0.69239(13) 0.1726(3) 0.42408(13)
C2_4 C 0.7434(2) 0.5223(4) 0.3058(2)
H3_4 H 0.7163 0.5178 0.2668
N2_4 N 0.80776(16) 0.6457(3) 0.38471(16)
C3_4 C 0.79792(17) 0.4205(4) 0.40077(17)
C4_4 C 0.82156(19) 0.5408(4) 0.42083(19)
H4_4 H 0.8476 0.5490 0.4603
C5_4 C 0.7697(2) 0.6389(4) 0.3283(2)
H5_4 H 0.7610 0.7139 0.3040
N3_4 N 0.68673(15) 0.1912(3) 0.56063(14)
H6_4 H 0.6509 0.2338 0.5629
C6_4 C 0.74209(19) 0.0887(4) 0.65781(18)
H7_4 H 0.7590 0.1690 0.6724
C8_4 C 0.70208(17) 0.0795(4) 0.59923(17)
O29_4 O 0.80761(13) 0.3274(3) 0.57592(13)
O30_4 O 0.80817(12) 0.0617(2) 0.50793(12)
H13_4 H 0.662661 0.134306 0.52571
H14_4 H 0.837339 0.365694 0.47429
C7_4 C 0.7566(2) 0.9777(4) 0.6942(2)
H8_4 H 0.7837 0.9822 0.7332
N4_4 N 0.69224(16) 0.8543(3) 0.61529(16)
C9_4 C 0.67844(19) 0.9592(4) 0.57917(19)
H9_4 H 0.6524 0.9510 0.5397
C10_4 C 0.7303(2) 0.8611(4) 0.6717(2)
H10_4 H 0.7390 0.7861 0.6960
O9_3 O 0.16001(12) 0.1085(3) 0.14446(12)
O1_3 O 0.10127(13) 0.1947(3) 0.83988(12)
O7_3 O 0.06802(12) 0.2825(2) 0.97938(12)
O13_3 O 0.07050(11) 0.0164(2) 0.92288(11)
O14_4 O -0.0000 0.1214(3) 0.7500
O8_3 O 0.15232(11) 0.8767(2) 0.07273(10)
O10_3 O 0.13864(12) 0.8759(3) 0.19844(11)
O2_3 O 0.09516(13) 0.9389(3) 0.80360(12)
O4_3 O 0.17030(12) 0.8178(3) 0.94575(12)
O14_5 O 1.0000 0.1214(3) 0.7500
O16_3 O 0.89873(13) 0.1947(3) 0.66012(12)
O22_3 O 0.93198(12) 0.2825(2) 0.52062(12)
O24_3 O 0.83999(12) 0.1085(3) 0.35554(12)
O28_3 O 0.92950(11) 0.0164(2) 0.57712(11)
O17_3 O 0.90484(13) 0.9389(3) 0.69640(12)
O19_3 O 0.82970(12) 0.8178(3) 0.55425(12)
O23_3 O 0.84768(11) 0.8767(2) 0.42727(10)
O25_3 O 0.86136(12) 0.8759(3) 0.30156(11)
O8_4 O 0.65232(11) 0.3767(2) 0.07273(10)
O9_4 O 0.66001(12) 0.6085(3) 0.14446(12)
O10_4 O 0.63864(12) 0.3759(3) 0.19844(11)
O1_4 O 0.60127(13) 0.6947(3) 0.83988(12)
O2_4 O 0.59516(13) 0.4389(3) 0.80360(12)
O4_4 O 0.67030(12) 0.3178(3) 0.94575(12)
O7_4 O 0.56802(12) 0.7825(2) 0.97938(12)
O13_4 O 0.57050(11) 0.5164(2) 0.92288(11)
O14_6 O 0.5000 0.6214(3) 0.7500
O16_4 O 0.39873(13) 0.6947(3) 0.66012(12)
O17_4 O 0.40484(13) 0.4389(3) 0.69640(12)
O19_4 O 0.32970(12) 0.3178(3) 0.55425(12)
O22_4 O 0.43198(12) 0.7825(2) 0.52062(12)
O23_4 O 0.34768(11) 0.3767(2) 0.42727(10)
O24_4 O 0.33999(12) 0.6085(3) 0.35554(12)
O25_4 O 0.36136(12) 0.3759(3) 0.30156(11)
O28_4 O 0.42950(11) 0.5164(2) 0.57712(11)
loop_
_geom_bond_atom_site_label_1
_geom_bond_atom_site_label_2
_geom_bond_site_symmetry_1
_geom_bond_site_symmetry_2
Mo6 O19 1_555 1_555
O23 Mo6 1_555 1_555
Mo8 O23 1_555 1_555
O25 Mo8 1_555 1_555
O32 Mo8 1_555 1_555
O34 Mo6 1_555 1_555
Mo5 O14 1_555 1_555
O16 Mo5 1_555 1_555
O22 Mo7 1_555 1_555
O28 Mo5 1_555 1_555
Mo15 O5 1_555 1_555
Cu2 O18 1_555 1_555
Mo7 O27 1_555 1_555
Mo7 O28 1_555 1_555
Mo11 O6 1_555 1_555
Mo2 O4 1_555 1_555
H3 C2 1_555 1_555
N2 C4 1_555 1_555
H4 C4 1_555 1_555
C5 C2 1_555 1_555
H5 C5 1_555 1_555
O33 Mo2 1_555 1_555
N2 C5 1_555 1_555
Mo14 O38 1_555 1_555
Mo4 O8 1_555 1_555
O10 Mo4 1_555 1_555
O31 Mo4 1_555 1_555
Mo1 O1 1_555 1_555
O7 Mo3 1_555 1_555
O13 Mo1 1_555 1_555
O14_2 Mo1 1_555 1_555
Cu1 O3 1_555 1_555
N1 Cu1 1_555 1_555
H1 N1 1_555 1_555
C1 H2 1_555 1_555
O15 Cu1 1_555 1_555
C3 N1 1_555 1_555
Mo12 O21 1_555 1_555
Mo16 O20 1_555 1_555
Mo3 O13 1_555 1_555
C1 C3 1_555 1_555
N1 H14 1_555 1_555
N3 Cu1_2 1_555 1_555
H6 N3 1_555 1_555
C6 H7 1_555 1_555
C7 C6 1_555 1_555
H8 C7 1_555 1_555
N4 C9 1_555 1_555
C8 N3 1_555 1_555
C9 C8 1_555 1_555
H9 C9 1_555 1_555
C10 C7 1_555 1_555
H10 C10 1_555 1_555
O29 Cu1_2 1_555 1_555
O30 Cu1_2 1_555 1_555
C6 C8 1_555 1_555
N4 C10 1_555 1_555
N3 H13 1_555 1_555
H3_2 C2_2 1_555 1_555
N2_2 C4_2 1_555 1_555
H4_2 C4_2 1_555 1_555
C5_2 C2_2 1_555 1_555
H5_2 C5_2 1_555 1_555
N2_2 C5_2 1_555 1_555
N1_2 Cu2 1_555 1_555
H1_2 N1_2 1_555 1_555
C1_2 H2_2 1_555 1_555
O15_2 Cu2 1_555 1_555
C3_2 N1_2 1_555 1_555
N3_2 Cu2 1_555 1_555
H6_2 N3_2 1_555 1_555
C6_2 H7_2 1_555 1_555
C7_2 C6_2 1_555 1_555
H8_2 C7_2 1_555 1_555
N4_2 C9_2 1_555 1_555
C8_2 N3_2 1_555 1_555
C9_2 C8_2 1_555 1_555
H9_2 C9_2 1_555 1_555
C10_2 C7_2 1_555 1_555
H10_2 C10_2 1_555 1_555
O29_2 Cu2 1_555 1_555
O30_2 Cu2 1_555 1_555
C1_2 C3_2 1_555 1_555
C6_2 C8_2 1_555 1_555
N4_2 C10_2 1_555 1_555
N3_2 H13_2 1_555 1_555
N1_2 H14_2 1_555 1_555
Mo1_2 O1_2 1_555 1_555
O2_2 Mo1_2 1_555 1_555
O3_2 Mo2_2 1_555 1_555
Mo2_2 O4_2 1_555 1_555
Mo3_2 O5_2 1_555 1_555
O5_2 Mo1_2 1_555 1_555
O7_2 Mo3_2 1_555 1_555
O13_2 Mo1_2 1_555 1_555
O14_3 Mo1_2 1_555 1_555
Cu1_3 O3_2 1_555 1_555
N1_3 Cu1_3 1_555 1_555
H1_3 N1_3 1_555 1_555
C1_3 H2_3 1_555 1_555
O15_3 Cu1_3 1_555 1_555
C2_3 C1_3 1_555 1_555
H3_3 C2_3 1_555 1_555
N2_3 C4_3 1_555 1_555
C3_3 N1_3 1_555 1_555
C4_3 C3_3 1_555 1_555
H4_3 C4_3 1_555 1_555
C5_3 C2_3 1_555 1_555
H5_3 C5_3 1_555 1_555
Mo5_2 O14_3 1_555 1_555
O16_2 Mo5_2 1_555 1_555
O17_2 Mo5_2 1_555 1_555
O18_2 Mo6_2 1_555 1_555
Mo6_2 O19_2 1_555 1_555
Mo7_2 O20_2 1_555 1_555
O20_2 Mo5_2 1_555 1_555
O21_2 Mo7_2 1_555 1_555
O22_2 Mo7_2 1_555 1_555
O23_2 Mo6_2 1_555 1_555
Mo8_2 O23_2 1_555 1_555
O24_2 Mo8_2 1_555 1_555
O25_2 Mo8_2 1_555 1_555
O26_2 Mo8_2 1_555 1_555
O27_2 Mo6_2 1_555 1_555
O28_2 Mo5_2 1_555 1_555
Mo10_2 O26_2 1_555 1_555
Mo12_2 O21_2 1_555 1_555
Mo14_2 O27_2 1_555 1_555
O32_2 Mo8_2 1_555 1_555
O33_2 Mo2_2 1_555 1_555
O34_2 Mo6_2 1_555 1_555
Mo15_2 O5_2 1_555 1_555
Mo16_2 O20_2 1_555 1_555
O35_2 Mo1_2 1_555 1_555
O36_2 Mo5_2 1_555 1_555
O37_2 Mo3_2 1_555 1_555
O38_2 Mo7_2 1_555 1_555
Cu2_2 O18_2 1_555 1_555
Mo2_2 O13_2 1_555 1_555
Mo3_2 O13_2 1_555 1_555
C1_3 C3_3 1_555 1_555
N2_3 C5_3 1_555 1_555
Mo6_2 O28_2 1_555 1_555
Mo7_2 O27_2 1_555 1_555
Mo7_2 O28_2 1_555 1_555
Mo8_2 O27_2 1_555 1_555
Mo10_2 O32_2 1_555 1_555
Mo12_2 O38_2 1_555 1_555
Mo14_2 O32_2 1_555 1_555
Mo14_2 O34_2 1_555 1_555
Mo14_2 O38_2 1_555 1_555
Mo15_2 O35_2 1_555 1_555
Mo15_2 O37_2 1_555 1_555
Mo16_2 O36_2 1_555 1_555
Mo16_2 O38_2 1_555 1_555
N1_3 H14_3 1_555 1_555
Mo4_2 O8_2 1_555 1_555
O9_2 Mo4_2 1_555 1_555
O10_2 Mo4_2 1_555 1_555
O11_2 Mo4_2 1_555 1_555
N3_3 Cu1_4 1_555 1_555
H6_3 N3_3 1_555 1_555
C6_3 H7_3 1_555 1_555
C8_3 N3_3 1_555 1_555
O29_3 Cu1_4 1_555 1_555
Mo9_2 O11_2 1_555 1_555
O30_3 Cu1_4 1_555 1_555
Mo11_2 O6_2 1_555 1_555
Mo13_2 O12_2 1_555 1_555
O31_2 Mo4_2 1_555 1_555
Mo4_2 O12_2 1_555 1_555
C6_3 C8_3 1_555 1_555
Mo9_2 O31_2 1_555 1_555
Mo13_2 O31_2 1_555 1_555
N3_3 H13_3 1_555 1_555
H8_3 C7_3 1_555 1_555
N4_3 C9_3 1_555 1_555
H9_3 C9_3 1_555 1_555
C10_3 C7_3 1_555 1_555
H10_3 C10_3 1_555 1_555
N4_3 C10_3 1_555 1_555
N1_4 Cu2_2 1_555 1_555
H1_4 N1_4 1_555 1_555
C1_4 H2_4 1_555 1_555
O15_4 Cu2_2 1_555 1_555
C2_4 C1_4 1_555 1_555
H3_4 C2_4 1_555 1_555
N2_4 C4_4 1_555 1_555
C3_4 N1_4 1_555 1_555
C4_4 C3_4 1_555 1_555
H4_4 C4_4 1_555 1_555
C5_4 C2_4 1_555 1_555
H5_4 C5_4 1_555 1_555
N3_4 Cu2_2 1_555 1_555
H6_4 N3_4 1_555 1_555
C6_4 H7_4 1_555 1_555
C8_4 N3_4 1_555 1_555
O29_4 Cu2_2 1_555 1_555
O30_4 Cu2_2 1_555 1_555
C1_4 C3_4 1_555 1_555
N2_4 C5_4 1_555 1_555
C6_4 C8_4 1_555 1_555
N3_4 H13_4 1_555 1_555
N1_4 H14_4 1_555 1_555
H8_4 C7_4 1_555 1_555
N4_4 C9_4 1_555 1_555
H9_4 C9_4 1_555 1_555
C10_4 C7_4 1_555 1_555
H10_4 C10_4 1_555 1_555
N4_4 C10_4 1_555 1_555
Mo9 O1_3 1_555 1_555
O7_3 Mo13 1_555 1_555
O13_3 Mo9 1_555 1_555
O14_4 Mo9 1_555 1_555
Mo13 O13_3 1_555 1_555
Mo15 O8_3 1_555 1_555
O10_3 Mo15 1_555 1_555
Mo11 O4_3 1_555 1_555
Mo10 O14_5 1_555 1_555
O16_3 Mo10 1_555 1_555
O22_3 Mo14 1_555 1_555
O28_3 Mo10 1_555 1_555
Mo14 O28_3 1_555 1_555
Mo12 O19_3 1_555 1_555
O23_3 Mo12 1_555 1_555
Mo16 O23_3 1_555 1_555
O25_3 Mo16 1_555 1_555
Mo15_2 O8_4 1_555 1_555
O9_4 Mo15_2 1_555 1_555
O10_4 Mo15_2 1_555 1_555
Mo9_2 O1_4 1_555 1_555
O2_4 Mo9_2 1_555 1_555
O30 Mo11_2 1_555 1_555
Mo11_2 O4_4 1_555 1_555
O7_4 Mo13_2 1_555 1_555
O13_4 Mo9_2 1_555 1_555
O14_6 Mo9_2 1_555 1_555
Mo10_2 O14_6 1_555 1_555
O16_4 Mo10_2 1_555 1_555
O17_4 Mo10_2 1_555 1_555
O30_2 Mo12_2 1_555 1_555
Mo12_2 O19_4 1_555 1_555
O22_4 Mo14_2 1_555 1_555
O23_4 Mo12_2 1_555 1_555
Mo16_2 O23_4 1_555 1_555
O24_4 Mo16_2 1_555 1_555
O25_4 Mo16_2 1_555 1_555
O28_4 Mo10_2 1_555 1_555
Mo11_2 O13_4 1_555 1_555
Mo13_2 O13_4 1_555 1_555
Mo12_2 O28_4 1_555 1_555
Mo14_2 O28_4 1_555 1_555

#END
