
###############################################################################
#
# This file contains modified crystal structure data generated from the
# MOF subset of the Cambridge Structural Database (CSD) v543 
# hosted by the Cambridge Crystallographic Data Centre (CCDC).
#
# This work is licensed under the Creative Commons
# Attribution-NonCommercial-ShareAlike 4.0 International License.
# To view a copy of this license, visit
# http://creativecommons.org/licenses/by-nc-sa/4.0/
# or send a letter to
# Creative Commons, PO Box 1866, Mountain View, CA 94042, USA.
#
# CIF created using the CSD Python API on 29 September 2022
# The structure has been converted into the P1 space group
# The structure has a 3D framework
# The original CSD entry CUKSUZ is in the monoclinic crystal system
# The framework has been calculated to contain at least 10.0% void space
# The void calculation uses a probe of radius 1.32A, grid spacing 0.4
#
###############################################################################

data_CUKSUZ
_chemical_formula_moiety         '(C48 H40 Bi2 N4 O28)n'
_symmetry_cell_setting           triclinic
_symmetry_space_group_name_H-M   'P 1'
_symmetry_Int_Tables_number      1
_space_group_name_Hall           'P 1'
loop_
_symmetry_equiv_pos_site_id
_symmetry_equiv_pos_as_xyz
1 x,y,z
_cell_length_a                   10.1416(3)
_cell_length_b                   14.7630(4)
_cell_length_c                   11.3618(3)
_cell_angle_alpha                90
_cell_angle_beta                 100.1670(10)
_cell_angle_gamma                90
_cell_volume                     1674.38
loop_
_atom_site_label
_atom_site_type_symbol
_atom_site_fract_x
_atom_site_fract_y
_atom_site_fract_z
Bi3 Bi 0.10722(2) 0.04864(2) 0.89589(2)
C4 C 0.0397(5) 0.6383(4) 0.7163(5)
C5 C 0.0516(5) 0.7087(4) 0.7980(5)
H2 H 0.136126 0.736981 0.822638
C8 C 0.1581(6) 0.6045(4) 0.6678(5)
O4 O 0.0522(4) 0.8652(2) 0.9456(4)
O5 O 0.2739(3) 0.6342(3) 0.7127(3)
O6 O 0.1453(5) 0.5447(3) 0.5886(5)
Bi2 Bi 0.39278(2) 0.54864(2) 0.60411(2)
H6 H 0.655785 0.339275 0.070958
H7 H 0.365991 0.398553 0.020278
H8 H 0.422624 0.297368 0.038029
Bi5 Bi 0.89278(2) 0.95136(2) 0.10411(2)
C1 C 0.6724(5) 0.5824(4) 0.6858(5)
C2 C 0.8045(5) 0.6262(4) 0.7262(5)
C3 C 0.9151(5) 0.5963(4) 0.6797(5)
H1 H 0.906209 0.548013 0.623596
C6 C 0.9415(5) 0.7382(4) 0.8441(5)
C7 C 0.8187(5) 0.6967(4) 0.8075(5)
H3 H 0.742929 0.717080 0.838720
C9 C 0.9532(5) 0.8144(4) 0.9332(5)
C10 C 0.6405(18) 0.3335(13) 0.9837(16)
H4 H 0.711352 0.365614 0.952101
H5 H 0.641685 0.269298 0.961878
C11 C 0.399(2) 0.3466(15) 0.9803(18)
H9 H 0.328829 0.325848 0.915182
C12 C 0.5022(14) 0.4328(8) 0.8411(11)
H10 H 0.583320 0.443367 0.812505
N1 N 0.5120(11) 0.3722(7) 0.9337(9)
O1 O 0.6636(4) 0.5080(3) 0.6330(4)
O2 O 0.5684(3) 0.6254(3) 0.7090(4)
O3 O 0.8570(4) 0.8225(3) 0.9918(4)
O7 O 0.4147(8) 0.4713(4) 0.7944(5)
Bi4 Bi 0.60722(2) 0.45136(2) 0.39589(2)
O8 O 0.3364(4) 0.4920(3) 0.3670(4)
O9 O 0.3570(4) 0.6775(3) 0.4918(4)
O10 O 0.4478(4) 0.3652(2) 0.5544(4)
O11 O 0.5522(4) 0.6348(2) 0.4456(4)
O9_2 O 0.1430(4) 0.1775(3) 0.0082(4)
O12 O 0.2261(3) 0.1342(3) 0.7873(3)
O13 O 0.3547(5) 0.0447(3) 0.9114(5)
O8_2 O 0.1636(4) 0.9920(3) 0.1330(4)
C11_2 C 0.101(2) 0.8466(15) 0.5197(18)
H7_2 H 0.134009 0.898553 0.479722
H8_2 H 0.077376 0.797368 0.461971
H9_2 H 0.171171 0.825848 0.584818
O7_2 O 0.0853(8) 0.9713(4) 0.7056(5)
O11_2 O 0.9478(4) 0.1348(2) 0.0544(4)
C1_2 C 0.8276(5) 0.0824(4) 0.8142(5)
C2_2 C 0.6955(5) 0.1262(4) 0.7738(5)
C3_2 C 0.5849(5) 0.0963(4) 0.8203(5)
H1_2 H 0.593791 0.048013 0.876404
C4_2 C 0.4603(5) 0.1383(4) 0.7837(5)
C5_2 C 0.4484(5) 0.2087(4) 0.7020(5)
H2_2 H 0.363874 0.236981 0.677362
C6_2 C 0.5585(5) 0.2382(4) 0.6559(5)
C7_2 C 0.6813(5) 0.1967(4) 0.6925(5)
H3_2 H 0.757071 0.217080 0.661280
C8_2 C 0.3419(6) 0.1045(4) 0.8322(5)
C9_2 C 0.5468(5) 0.3144(4) 0.5668(5)
O1_2 O 0.8364(4) 0.0080(3) 0.8670(4)
O2_2 O 0.9316(3) 0.1254(3) 0.7910(4)
O3_2 O 0.6430(4) 0.3225(3) 0.5082(4)
C1_3 C 0.3276(5) 0.4176(4) 0.3142(5)
C2_3 C 0.1955(5) 0.3738(4) 0.2738(5)
C3_3 C 0.0849(5) 0.4037(4) 0.3203(5)
H1_3 H 0.093791 0.451987 0.376404
C6_3 C 0.0585(5) 0.2618(4) 0.1559(5)
C7_3 C 0.1813(5) 0.3033(4) 0.1925(5)
H3_3 H 0.257071 0.282920 0.161280
C9_3 C 0.0468(5) 0.1856(4) 0.0668(5)
C10_2 C 0.3595(18) 0.6665(13) 0.0163(16)
H4_2 H 0.288648 0.634386 0.047899
H5_2 H 0.358315 0.730702 0.038122
C11_3 C 0.601(2) 0.6534(15) 0.0197(18)
H9_3 H 0.671171 0.674152 0.084818
C12_2 C 0.4978(14) 0.5672(8) 0.1589(11)
H10_2 H 0.416680 0.556633 0.187495
N1_2 N 0.4880(11) 0.6278(7) 0.0663(9)
O2_3 O 0.4316(3) 0.3746(3) 0.2910(4)
O7_3 O 0.5853(8) 0.5287(4) 0.2056(5)
O12_2 O 0.7261(3) 0.3658(3) 0.2873(3)
O13_2 O 0.8547(5) 0.4553(3) 0.4114(5)
H6_2 H 0.344215 0.660725 0.929042
H7_3 H 0.634009 0.601447 0.979722
H8_3 H 0.577376 0.702632 0.961971
C4_3 C 0.9603(5) 0.3617(4) 0.2837(5)
C5_3 C 0.9484(5) 0.2913(4) 0.2020(5)
H2_3 H 0.863874 0.263019 0.177362
C8_3 C 0.8419(6) 0.3955(4) 0.3322(5)
C1_4 C 0.1724(5) 0.9176(4) 0.1858(5)
C2_4 C 0.3045(5) 0.8738(4) 0.2262(5)
C3_4 C 0.4151(5) 0.9037(4) 0.1797(5)
H1_4 H 0.406209 0.951987 0.123596
C4_4 C 0.5397(5) 0.8617(4) 0.2163(5)
C5_4 C 0.5516(5) 0.7913(4) 0.2980(5)
H2_4 H 0.636126 0.763019 0.322638
C6_4 C 0.4415(5) 0.7618(4) 0.3441(5)
C7_4 C 0.3187(5) 0.8033(4) 0.3075(5)
H3_4 H 0.242929 0.782920 0.338720
C8_4 C 0.6581(6) 0.8955(4) 0.1678(5)
C9_4 C 0.4532(5) 0.6856(4) 0.4332(5)
O2_4 O 0.0684(3) 0.8746(3) 0.2090(4)
O5_2 O 0.7739(3) 0.8658(3) 0.2127(3)
O6_2 O 0.6453(5) 0.9553(3) 0.0886(5)
C11_4 C 0.899(2) 0.1534(15) 0.4803(18)
H7_4 H 0.865991 0.101447 0.520278
H8_4 H 0.922624 0.202632 0.538029
H9_4 H 0.828829 0.174152 0.415182
O7_4 O 0.9147(8) 0.0287(4) 0.2944(5)
C10_3 C 0.8595(18) 0.8335(13) 0.5163(16)
H4_3 H 0.788648 0.865614 0.547899
H5_3 H 0.858315 0.769298 0.538122
H6_3 H 0.844215 0.839275 0.429042
C12_3 C 0.9978(14) 0.9328(8) 0.6589(11)
H10_3 H 0.916680 0.943367 0.687495
N1_3 N 0.9880(11) 0.8722(7) 0.5663(9)
C10_4 C 0.1405(18) 0.1665(13) 0.4837(16)
H4_4 H 0.211352 0.134386 0.452101
H5_4 H 0.141685 0.230702 0.461878
H6_4 H 0.155785 0.160725 0.570958
C12_4 C 0.0022(14) 0.0672(8) 0.3411(11)
H10_4 H 0.083320 0.056633 0.312505
N1_4 N 0.0120(11) 0.1278(7) 0.4337(9)
loop_
_geom_bond_atom_site_label_1
_geom_bond_atom_site_label_2
_geom_bond_site_symmetry_1
_geom_bond_site_symmetry_2
C5 C4 1_555 1_555
H2 C5 1_555 1_555
C8 C4 1_555 1_555
O5 C8 1_555 1_555
O6 C8 1_555 1_555
Bi2 O5 1_555 1_555
O6 Bi2 1_555 1_555
Bi2 O1 1_555 1_555
C1 C2 1_555 1_555
C2 C3 1_555 1_555
C3 H1 1_555 1_555
C7 C2 1_555 1_555
H3 C7 1_555 1_555
C9 C6 1_555 1_555
C10 H4 1_555 1_555
H5 C10 1_555 1_555
H9 C11 1_555 1_555
C12 H10 1_555 1_555
N1 C10 1_555 1_555
O1 C1 1_555 1_555
O2 Bi2 1_555 1_555
O3 C9 1_555 1_555
O7 Bi2 1_555 1_555
Bi4 O1 1_555 1_555
O8 Bi2 1_555 1_555
O9 Bi2 1_555 1_555
O10 Bi2 1_555 1_555
O11 Bi2 1_555 1_555
C1 O2 1_555 1_555
C6 C7 1_555 1_555
C11 N1 1_555 1_555
C12 N1 1_555 1_555
C12 O7 1_555 1_555
Bi4 O8 1_555 1_555
Bi4 O10 1_555 1_555
Bi4 O11 1_555 1_555
O12 Bi3 1_555 1_555
O13 Bi3 1_555 1_555
C11_2 H7_2 1_555 1_555
H8_2 C11_2 1_555 1_555
H9_2 C11_2 1_555 1_555
C1_2 C2_2 1_555 1_555
C2_2 C3_2 1_555 1_555
C3_2 H1_2 1_555 1_555
C4_2 C3_2 1_555 1_555
C5_2 C4_2 1_555 1_555
H2_2 C5_2 1_555 1_555
C6_2 C5_2 1_555 1_555
C7_2 C2_2 1_555 1_555
H3_2 C7_2 1_555 1_555
C8_2 C4_2 1_555 1_555
C9_2 C6_2 1_555 1_555
O1_2 C1_2 1_555 1_555
O3_2 C9_2 1_555 1_555
O10 C9_2 1_555 1_555
O12 C8_2 1_555 1_555
O13 C8_2 1_555 1_555
Bi4 O3_2 1_555 1_555
C1_2 O2_2 1_555 1_555
C6_2 C7_2 1_555 1_555
C1_3 C2_3 1_555 1_555
C2_3 C3_3 1_555 1_555
C3_3 H1_3 1_555 1_555
C7_3 C2_3 1_555 1_555
H3_3 C7_3 1_555 1_555
C9_3 C6_3 1_555 1_555
C10_2 H4_2 1_555 1_555
H5_2 C10_2 1_555 1_555
H9_3 C11_3 1_555 1_555
C12_2 H10_2 1_555 1_555
N1_2 C10_2 1_555 1_555
O8 C1_3 1_555 1_555
O2_3 Bi4 1_555 1_555
O9_2 C9_3 1_555 1_555
O7_3 Bi4 1_555 1_555
O12_2 Bi4 1_555 1_555
O13_2 Bi4 1_555 1_555
C1_3 O2_3 1_555 1_555
C6_3 C7_3 1_555 1_555
C11_3 N1_2 1_555 1_555
C12_2 N1_2 1_555 1_555
C12_2 O7_3 1_555 1_555
C5_3 C4_3 1_555 1_555
H2_3 C5_3 1_555 1_555
C8_3 C4_3 1_555 1_555
O12_2 C8_3 1_555 1_555
O13_2 C8_3 1_555 1_555
C1_4 C2_4 1_555 1_555
C2_4 C3_4 1_555 1_555
C3_4 H1_4 1_555 1_555
C4_4 C3_4 1_555 1_555
C5_4 C4_4 1_555 1_555
H2_4 C5_4 1_555 1_555
C6_4 C5_4 1_555 1_555
C7_4 C2_4 1_555 1_555
H3_4 C7_4 1_555 1_555
C8_4 C4_4 1_555 1_555
C9_4 C6_4 1_555 1_555
O8_2 C1_4 1_555 1_555
O9 C9_4 1_555 1_555
O11 C9_4 1_555 1_555
O5_2 C8_4 1_555 1_555
O6_2 C8_4 1_555 1_555
Bi5 O5_2 1_555 1_555
C1_4 O2_4 1_555 1_555
C6_4 C7_4 1_555 1_555
O6_2 Bi5 1_555 1_555
C11_4 H7_4 1_555 1_555
H8_4 C11_4 1_555 1_555
H9_4 C11_4 1_555 1_555
C10_3 H4_3 1_555 1_555
H5_3 C10_3 1_555 1_555
H6_3 C10_3 1_555 1_555
C12_3 H10_3 1_555 1_555
N1_3 C10_3 1_555 1_555
C12_3 N1_3 1_555 1_555
C10_4 H4_4 1_555 1_555
H5_4 C10_4 1_555 1_555
H6_4 C10_4 1_555 1_555
C12_4 H10_4 1_555 1_555
N1_4 C10_4 1_555 1_555
C12_4 N1_4 1_555 1_555

#END
