
###############################################################################
#
# This file contains modified crystal structure data generated from the
# MOF subset of the Cambridge Structural Database (CSD) v543 
# hosted by the Cambridge Crystallographic Data Centre (CCDC).
#
# This work is licensed under the Creative Commons
# Attribution-NonCommercial-ShareAlike 4.0 International License.
# To view a copy of this license, visit
# http://creativecommons.org/licenses/by-nc-sa/4.0/
# or send a letter to
# Creative Commons, PO Box 1866, Mountain View, CA 94042, USA.
#
# CIF created using the CSD Python API on 29 September 2022
# The structure has been converted into the P1 space group
# The structure has a 3D framework
# The original CSD entry CUKXUC01 is in the monoclinic crystal system
# The framework has been calculated to contain at least 10.0% void space
# The void calculation uses a probe of radius 1.32A, grid spacing 0.4
#
###############################################################################

data_CUKXUC01
_chemical_formula_moiety         '(C62 H80 Eu8 N28 O64)n'
_symmetry_cell_setting           triclinic
_symmetry_space_group_name_H-M   'P 1'
_symmetry_Int_Tables_number      1
_space_group_name_Hall           'P 1'
loop_
_symmetry_equiv_pos_site_id
_symmetry_equiv_pos_as_xyz
1 x,y,z
_cell_length_a                   12.7130(11)
_cell_length_b                   16.7745(15)
_cell_length_c                   14.7977(13)
_cell_angle_alpha                90
_cell_angle_beta                 91.265(4)
_cell_angle_gamma                90
_cell_volume                     3154.9
loop_
_atom_site_label
_atom_site_type_symbol
_atom_site_fract_x
_atom_site_fract_y
_atom_site_fract_z
H2 H 0.0467 0.8865 0.4746
O8 O 0.0491(4) 0.7733(3) 0.6201(4)
H3 H 0.0682 0.7249 0.6052
H4 H 0.0455 0.7717 0.6791
H17 H 0.0389 0.9359 0.0399
Eu6 Eu 0.37598(3) 0.69835(2) 0.05604(2)
O18 O 0.1935(4) 0.7166(3) 0.0800(3)
O19 O 0.2083(4) 0.8855(3) 0.0553(3)
O24 O 0.0237(4) 0.7345(3) 0.0638(4)
Eu1 Eu 0.87598(3) 0.80165(2) 0.55604(2)
O1 O 0.6935(4) 0.7834(3) 0.5800(3)
O2 O 0.2917(4) 0.6145(3) 0.9447(3)
O3 O 0.1449(4) 0.6709(3) 0.8847(3)
O4 O 0.3775(4) 0.3272(3) 0.7198(3)
O5 O 0.5237(4) 0.7655(3) 0.5638(4)
O6 O 0.3254(4) 0.4283(3) 0.6363(3)
O7 O 0.9936(4) 0.9081(3) 0.5023(4)
H1 H 0.9611 0.9359 0.4601
N1 N 0.4085(5) 0.6532(3) 0.7680(4)
C1 C 0.2237(6) 0.6237(4) 0.8838(5)
N2 N 0.5000 0.7700(5) 0.7500
N3 N 0.3264(5) 0.5318(3) 0.7883(4)
C2 C 0.6014(6) 0.7855(4) 0.6117(5)
C3 C 0.3466(6) 0.3990(4) 0.7129(5)
N4 N 0.5000 0.5289(5) 0.7500
C4 C 0.5875(6) 0.8100(5) 0.7096(5)
H5 H 0.6526 0.7975 0.7446
H6 H 0.5762 0.8683 0.7125
C5 C 0.2285(6) 0.5728(4) 0.7988(5)
H7 H 0.1711 0.5329 0.8000
H8 H 0.2158 0.6074 0.7455
C6 C 0.5000 0.6887(6) 0.7500
C7 C 0.3338(6) 0.4455(4) 0.7995(5)
H9 H 0.2694 0.4266 0.8293
H10 H 0.3943 0.4336 0.8405
C8 C 0.4152(6) 0.5727(4) 0.7678(5)
O9 O 0.3065(4) 0.7834(3) 0.9200(3)
O10 O 0.7083(4) 0.6145(3) 0.5553(3)
O11 O 0.8551(4) 0.6709(3) 0.6153(3)
O12 O 0.6225(4) 0.3272(3) 0.7802(3)
O13 O 0.4763(4) 0.7655(3) 0.9362(4)
O14 O 0.6746(4) 0.4283(3) 0.8637(3)
N5 N 0.5915(5) 0.6532(3) 0.7320(4)
C9 C 0.7763(6) 0.6237(4) 0.6162(5)
N6 N 0.6736(5) 0.5318(3) 0.7117(4)
C10 C 0.3986(6) 0.7855(4) 0.8883(5)
C11 C 0.6534(6) 0.3990(4) 0.7871(5)
C12 C 0.4125(6) 0.8100(5) 0.7904(5)
H11 H 0.3474 0.7975 0.7554
H12 H 0.4238 0.8683 0.7875
C13 C 0.7715(6) 0.5728(4) 0.7012(5)
H13 H 0.8289 0.5329 0.7000
H14 H 0.7842 0.6074 0.7545
C14 C 0.6662(6) 0.4455(4) 0.7005(5)
H15 H 0.7306 0.4266 0.6707
H16 H 0.6057 0.4336 0.6595
C15 C 0.5848(6) 0.5727(4) 0.7322(5)
Eu2 Eu 0.12402(3) 0.80165(2) 0.94396(2)
O15 O 0.0064(4) 0.9081(3) 0.9977(4)
Eu3 Eu 0.37598(3) 0.30165(2) 0.55604(2)
Eu4 Eu 0.62402(3) 0.30165(2) 0.94396(2)
Eu5 Eu 0.62402(3) 0.69835(2) 0.44396(2)
O17 O 0.8065(4) 0.7166(3) 0.4200(3)
O20 O 0.7917(4) 0.8855(3) 0.4447(3)
O21 O 0.8775(4) 0.8272(3) 0.7198(3)
O22 O 0.1225(4) 0.8272(3) 0.7802(3)
O23 O 0.9763(4) 0.7345(3) 0.4362(4)
O25 O 0.8254(4) 0.9283(3) 0.6363(3)
O26 O 0.1746(4) 0.9283(3) 0.8637(3)
O1_2 O 0.1935(4) 0.2834(3) 0.5800(3)
O5_2 O 0.0237(4) 0.2655(3) 0.5638(4)
O7_2 O 0.4936(4) 0.4081(3) 0.5023(4)
H1_2 H 0.4611 0.4359 0.4601
H2_2 H 0.5467 0.3865 0.4746
O8_2 O 0.5491(4) 0.2733(3) 0.6201(4)
H3_2 H 0.5682 0.2249 0.6052
H4_2 H 0.5455 0.2717 0.6791
N2_2 N -0.0000 0.2700(5) 0.7500
C2_2 C 0.1014(6) 0.2855(4) 0.6117(5)
N4_2 N -0.0000 0.0289(5) 0.7500
C4_2 C 0.0875(6) 0.3100(5) 0.7096(5)
H5_2 H 0.1526 0.2975 0.7446
H6_2 H 0.0762 0.3683 0.7125
C6_2 C -0.0000 0.1887(6) 0.7500
O10_2 O 0.2083(4) 0.1145(3) 0.5553(3)
O11_2 O 0.3551(4) 0.1709(3) 0.6153(3)
N5_2 N 0.0915(5) 0.1532(3) 0.7320(4)
C9_2 C 0.2763(6) 0.1237(4) 0.6162(5)
N6_2 N 0.1736(5) 0.0318(3) 0.7117(4)
C13_2 C 0.2715(6) 0.0728(4) 0.7012(5)
H13_2 H 0.3289 0.0329 0.7000
H14_2 H 0.2842 0.1074 0.7545
C15_2 C 0.0848(6) 0.0727(4) 0.7322(5)
Eu5_2 Eu 0.12402(3) 0.19835(2) 0.44396(2)
O17_2 O 0.3065(4) 0.2166(3) 0.4200(3)
O20_2 O 0.2917(4) 0.3855(3) 0.4447(3)
O23_2 O 0.4763(4) 0.2345(3) 0.4362(4)
C11_2 C 0.1534(6) 0.8990(4) 0.7871(5)
C14_2 C 0.1662(6) 0.9455(4) 0.7005(5)
H15_2 H 0.2306 0.9266 0.6707
H16_2 H 0.1057 0.9336 0.6595
H17_2 H 0.5389 0.4359 0.0399
H18 H 0.4533 0.3865 0.0254
Eu6_2 Eu 0.87598(3) 0.19835(2) 0.05604(2)
O18_2 O 0.6935(4) 0.2166(3) 0.0800(3)
O19_2 O 0.7083(4) 0.3855(3) 0.0553(3)
O24_2 O 0.5237(4) 0.2345(3) 0.0638(4)
O2_2 O 0.7917(4) 0.1145(3) 0.9447(3)
O3_2 O 0.6449(4) 0.1709(3) 0.8847(3)
N1_2 N 0.9085(5) 0.1532(3) 0.7680(4)
C1_2 C 0.7237(6) 0.1237(4) 0.8838(5)
N2_3 N 1.0000 0.2700(5) 0.7500
N3_2 N 0.8264(5) 0.0318(3) 0.7883(4)
N4_3 N 1.0000 0.0289(5) 0.7500
C5_2 C 0.7285(6) 0.0728(4) 0.7988(5)
H7_2 H 0.6711 0.0329 0.8000
H8_2 H 0.7158 0.1074 0.7455
C6_3 C 1.0000 0.1887(6) 0.7500
C8_2 C 0.9152(6) 0.0727(4) 0.7678(5)
O9_2 O 0.8065(4) 0.2834(3) 0.9200(3)
O13_2 O 0.9763(4) 0.2655(3) 0.9362(4)
C10_2 C 0.8986(6) 0.2855(4) 0.8883(5)
C12_2 C 0.9125(6) 0.3100(5) 0.7904(5)
H11_2 H 0.8474 0.2975 0.7554
H12_2 H 0.9238 0.3683 0.7875
O15_2 O 0.5064(4) 0.4081(3) 0.9977(4)
O16 O 0.4509(4) 0.2733(3) 0.8799(4)
H19 H 0.4318 0.2249 0.8948
H20 H 0.4545 0.2717 0.8209
C3_2 C 0.8466(6) 0.8990(4) 0.7129(5)
C7_2 C 0.8338(6) 0.9455(4) 0.7995(5)
H9_2 H 0.7694 0.9266 0.8293
H10_2 H 0.8943 0.9336 0.8405
O3_3 O 0.8551(4) 0.3291(3) 0.1153(3)
O4_2 O 0.6225(4) 0.6728(3) 0.2802(3)
O6_2 O 0.6746(4) 0.5717(3) 0.3637(3)
O7_3 O 0.0064(4) 0.0919(3) 0.4977(4)
H1_3 H 0.0389 0.0641 0.5399
N1_3 N 0.5915(5) 0.3468(3) 0.2320(4)
C1_3 C 0.7763(6) 0.3763(4) 0.1162(5)
N2_4 N 0.5000 0.2300(5) 0.2500
N3_3 N 0.6736(5) 0.4682(3) 0.2117(4)
C2_3 C 0.3986(6) 0.2145(4) 0.3883(5)
C3_3 C 0.6534(6) 0.6010(4) 0.2871(5)
N4_4 N 0.5000 0.4711(5) 0.2500
C4_3 C 0.4125(6) 0.1900(5) 0.2904(5)
H5_3 H 0.3474 0.2025 0.2554
H6_3 H 0.4238 0.1317 0.2875
C5_3 C 0.7715(6) 0.4272(4) 0.2012(5)
H7_3 H 0.8289 0.4671 0.2000
H8_3 H 0.7842 0.3926 0.2545
C6_4 C 0.5000 0.3113(6) 0.2500
C7_3 C 0.6662(6) 0.5545(4) 0.2005(5)
H9_3 H 0.7306 0.5734 0.1707
H10_3 H 0.6057 0.5664 0.1595
C8_3 C 0.5848(6) 0.4273(4) 0.2322(5)
O11_3 O 0.1449(4) 0.3291(3) 0.3847(3)
O12_2 O 0.3775(4) 0.6728(3) 0.2198(3)
O14_2 O 0.3254(4) 0.5717(3) 0.1363(3)
N5_3 N 0.4085(5) 0.3468(3) 0.2680(4)
C9_3 C 0.2237(6) 0.3763(4) 0.3838(5)
N6_3 N 0.3264(5) 0.4682(3) 0.2883(4)
C10_3 C 0.6014(6) 0.2145(4) 0.1117(5)
C11_3 C 0.3466(6) 0.6010(4) 0.2129(5)
C12_3 C 0.5875(6) 0.1900(5) 0.2096(5)
H11_3 H 0.6526 0.2025 0.2446
H12_3 H 0.5762 0.1317 0.2125
C13_3 C 0.2285(6) 0.4272(4) 0.2988(5)
H13_3 H 0.1711 0.4671 0.3000
H14_3 H 0.2158 0.3926 0.2455
C14_3 C 0.3338(6) 0.5545(4) 0.2995(5)
H15_3 H 0.2694 0.5734 0.3293
H16_3 H 0.3943 0.5664 0.3405
C15_3 C 0.4152(6) 0.4273(4) 0.2678(5)
O15_3 O 0.9936(4) 0.0919(3) 0.0023(4)
O21_2 O 0.1225(4) 0.1728(3) 0.2802(3)
O22_2 O 0.8775(4) 0.1728(3) 0.2198(3)
O25_2 O 0.1746(4) 0.0717(3) 0.3637(3)
O26_2 O 0.8254(4) 0.0717(3) 0.1363(3)
H17_3 H 0.9611 0.0641 0.9601
C3_4 C 0.1534(6) 0.1010(4) 0.2871(5)
C7_4 C 0.1662(6) 0.0545(4) 0.2005(5)
H9_4 H 0.2306 0.0734 0.1707
H10_4 H 0.1057 0.0664 0.1595
O3_4 O 0.3551(4) 0.8291(3) 0.1153(3)
N1_4 N 0.0915(5) 0.8468(3) 0.2320(4)
C1_4 C 0.2763(6) 0.8763(4) 0.1162(5)
N2_5 N 0.0000 0.7300(5) 0.2500
N3_4 N 0.1736(5) 0.9682(3) 0.2117(4)
N4_5 N 0.0000 0.9711(5) 0.2500
C5_4 C 0.2715(6) 0.9272(4) 0.2012(5)
H7_4 H 0.3289 0.9671 0.2000
H8_4 H 0.2842 0.8926 0.2545
C6_5 C 0.0000 0.8113(6) 0.2500
C8_4 C 0.0848(6) 0.9273(4) 0.2322(5)
C10_4 C 0.1014(6) 0.7145(4) 0.1117(5)
C12_4 C 0.0875(6) 0.6900(5) 0.2096(5)
H11_4 H 0.1526 0.7025 0.2446
H12_4 H 0.0762 0.6317 0.2125
O15_4 O 0.4936(4) 0.5919(3) 0.0023(4)
O16_2 O 0.5491(4) 0.7267(3) 0.1201(4)
H19_2 H 0.5682 0.7751 0.1052
H20_2 H 0.5455 0.7283 0.1791
H17_4 H 0.4611 0.5641 0.9601
H18_2 H 0.5467 0.6135 0.9746
C11_4 C 0.8466(6) 0.1010(4) 0.2129(5)
C14_4 C 0.8338(6) 0.0545(4) 0.2995(5)
H15_4 H 0.7694 0.0734 0.3293
H16_4 H 0.8943 0.0664 0.3405
O7_4 O 0.5064(4) 0.5919(3) 0.4977(4)
H1_4 H 0.5389 0.5641 0.5399
H2_3 H 0.4533 0.6135 0.5254
O8_3 O 0.4509(4) 0.7267(3) 0.3799(4)
H3_3 H 0.4318 0.7751 0.3948
H4_3 H 0.4545 0.7283 0.3209
N2_6 N 1.0000 0.7300(5) 0.2500
C2_4 C 0.8986(6) 0.7145(4) 0.3883(5)
N4_6 N 1.0000 0.9711(5) 0.2500
C4_4 C 0.9125(6) 0.6900(5) 0.2904(5)
H5_4 H 0.8474 0.7025 0.2554
H6_4 H 0.9238 0.6317 0.2875
C6_6 C 1.0000 0.8113(6) 0.2500
O11_4 O 0.6449(4) 0.8291(3) 0.3847(3)
N5_4 N 0.9085(5) 0.8468(3) 0.2680(4)
C9_4 C 0.7237(6) 0.8763(4) 0.3838(5)
N6_4 N 0.8264(5) 0.9682(3) 0.2883(4)
C13_4 C 0.7285(6) 0.9272(4) 0.2988(5)
H13_4 H 0.6711 0.9671 0.3000
H14_4 H 0.7158 0.8926 0.2455
C15_4 C 0.9152(6) 0.9273(4) 0.2678(5)
H18_3 H 0.9533 0.8865 0.0254
O16_3 O 0.9509(4) 0.7733(3) 0.8799(4)
H19_3 H 0.9318 0.7249 0.8948
H20_3 H 0.9545 0.7717 0.8209
O16_4 O 0.0491(4) 0.2267(3) 0.1201(4)
H19_4 H 0.0682 0.2751 0.1052
H20_4 H 0.0455 0.2283 0.1791
H18_4 H 0.0467 0.1135 0.9746
H2_4 H 0.9533 0.1135 0.5254
O8_4 O 0.9509(4) 0.2267(3) 0.3799(4)
H3_4 H 0.9318 0.2751 0.3948
H4_4 H 0.9545 0.2283 0.3209
loop_
_geom_bond_atom_site_label_1
_geom_bond_atom_site_label_2
_geom_bond_site_symmetry_1
_geom_bond_site_symmetry_2
H3 O8 1_555 1_555
H4 O8 1_555 1_555
Eu6 O18 1_555 1_555
Eu1 O1 1_555 1_555
O1 C2 1_555 1_555
O2 C1 1_555 1_555
O3 C1 1_555 1_555
O4 C3 1_555 1_555
O5 C2 1_555 1_555
O6 C3 1_555 1_555
O7 Eu1 1_555 1_555
H1 O7 1_555 1_555
N1 C6 1_555 1_555
C1 C5 1_555 1_555
N2 C4 1_555 1_555
N3 C5 1_555 1_555
C2 C4 1_555 1_555
C3 C7 1_555 1_555
N4 C8 1_555 1_555
C4 H5 1_555 1_555
H6 C4 1_555 1_555
C5 H7 1_555 1_555
H8 C5 1_555 1_555
C6 N2 1_555 1_555
C7 N3 1_555 1_555
H9 C7 1_555 1_555
H10 C7 1_555 1_555
C8 N1 1_555 1_555
O9 C10 1_555 1_555
O10 C9 1_555 1_555
O11 Eu1 1_555 1_555
O12 C11 1_555 1_555
O13 C10 1_555 1_555
O14 C11 1_555 1_555
N5 C6 1_555 1_555
C9 O11 1_555 1_555
N6 C13 1_555 1_555
C10 C12 1_555 1_555
C11 C14 1_555 1_555
C12 N2 1_555 1_555
H11 C12 1_555 1_555
H12 C12 1_555 1_555
C13 C9 1_555 1_555
H13 C13 1_555 1_555
H14 C13 1_555 1_555
C14 N6 1_555 1_555
H15 C14 1_555 1_555
H16 C14 1_555 1_555
C15 N4 1_555 1_555
Eu2 O3 1_555 1_555
O15 Eu2 1_555 1_555
Eu3 O4 1_555 1_555
Eu4 O12 1_555 1_555
Eu5 O1 1_555 1_555
O17 Eu1 1_555 1_555
O20 Eu1 1_555 1_555
O21 Eu1 1_555 1_555
O22 Eu2 1_555 1_555
O23 Eu1 1_555 1_555
O25 Eu1 1_555 1_555
O26 Eu2 1_555 1_555
O5 Eu5 1_555 1_555
O6 Eu3 1_555 1_555
N3 C8 1_555 1_555
O9 Eu2 1_555 1_555
O10 Eu5 1_555 1_555
O14 Eu4 1_555 1_555
N5 C15 1_555 1_555
N6 C15 1_555 1_555
Eu5 O17 1_555 1_555
Eu3 O1_2 1_555 1_555
O1_2 C2_2 1_555 1_555
O5_2 C2_2 1_555 1_555
O7_2 Eu3 1_555 1_555
H1_2 O7_2 1_555 1_555
H2_2 O7_2 1_555 1_555
O8_2 Eu3 1_555 1_555
H3_2 O8_2 1_555 1_555
H4_2 O8_2 1_555 1_555
N2_2 C4_2 1_555 1_555
C2_2 C4_2 1_555 1_555
C4_2 H5_2 1_555 1_555
H6_2 C4_2 1_555 1_555
C6_2 N2_2 1_555 1_555
O10_2 C9_2 1_555 1_555
O11_2 Eu3 1_555 1_555
N5_2 C6_2 1_555 1_555
C9_2 O11_2 1_555 1_555
N6_2 C13_2 1_555 1_555
C13_2 C9_2 1_555 1_555
H13_2 C13_2 1_555 1_555
H14_2 C13_2 1_555 1_555
C15_2 N4_2 1_555 1_555
Eu5_2 O1_2 1_555 1_555
O17_2 Eu3 1_555 1_555
O20_2 Eu3 1_555 1_555
O23_2 Eu3 1_555 1_555
O5_2 Eu5_2 1_555 1_555
O10_2 Eu5_2 1_555 1_555
N5_2 C15_2 1_555 1_555
N6_2 C15_2 1_555 1_555
Eu5_2 O17_2 1_555 1_555
O22 C11_2 1_555 1_555
O26 C11_2 1_555 1_555
C11_2 C14_2 1_555 1_555
H15_2 C14_2 1_555 1_555
H16_2 C14_2 1_555 1_555
Eu6_2 O18_2 1_555 1_555
O2_2 C1_2 1_555 1_555
O3_2 C1_2 1_555 1_555
N1_2 C6_3 1_555 1_555
C1_2 C5_2 1_555 1_555
N3_2 C5_2 1_555 1_555
N4_3 C8_2 1_555 1_555
C5_2 H7_2 1_555 1_555
H8_2 C5_2 1_555 1_555
C6_3 N2_3 1_555 1_555
C8_2 N1_2 1_555 1_555
O9_2 C10_2 1_555 1_555
O13_2 C10_2 1_555 1_555
C10_2 C12_2 1_555 1_555
C12_2 N2_3 1_555 1_555
H11_2 C12_2 1_555 1_555
H12_2 C12_2 1_555 1_555
Eu4 O3_2 1_555 1_555
O15_2 Eu4 1_555 1_555
O16 Eu4 1_555 1_555
H19 O16 1_555 1_555
H20 O16 1_555 1_555
N3_2 C8_2 1_555 1_555
O9_2 Eu4 1_555 1_555
O21 C3_2 1_555 1_555
O25 C3_2 1_555 1_555
C3_2 C7_2 1_555 1_555
H9_2 C7_2 1_555 1_555
H10_2 C7_2 1_555 1_555
O17_2 C2_3 1_555 1_555
O19_2 C1_3 1_555 1_555
O3_3 C1_3 1_555 1_555
O4_2 C3_3 1_555 1_555
O23_2 C2_3 1_555 1_555
O6_2 C3_3 1_555 1_555
O7_3 Eu5_2 1_555 1_555
H1_3 O7_3 1_555 1_555
N1_3 C6_4 1_555 1_555
C1_3 C5_3 1_555 1_555
N2_4 C4_3 1_555 1_555
N3_3 C5_3 1_555 1_555
C2_3 C4_3 1_555 1_555
C3_3 C7_3 1_555 1_555
N4_4 C8_3 1_555 1_555
C4_3 H5_3 1_555 1_555
H6_3 C4_3 1_555 1_555
C5_3 H7_3 1_555 1_555
H8_3 C5_3 1_555 1_555
C6_4 N2_4 1_555 1_555
C7_3 N3_3 1_555 1_555
H9_3 C7_3 1_555 1_555
H10_3 C7_3 1_555 1_555
C8_3 N1_3 1_555 1_555
O18_2 C10_3 1_555 1_555
O20_2 C9_3 1_555 1_555
O11_3 Eu5_2 1_555 1_555
O12_2 C11_3 1_555 1_555
O24_2 C10_3 1_555 1_555
O14_2 C11_3 1_555 1_555
N5_3 C6_4 1_555 1_555
C9_3 O11_3 1_555 1_555
N6_3 C13_3 1_555 1_555
C10_3 C12_3 1_555 1_555
C11_3 C14_3 1_555 1_555
C12_3 N2_4 1_555 1_555
H11_3 C12_3 1_555 1_555
H12_3 C12_3 1_555 1_555
C13_3 C9_3 1_555 1_555
H13_3 C13_3 1_555 1_555
H14_3 C13_3 1_555 1_555
C14_3 N6_3 1_555 1_555
H15_3 C14_3 1_555 1_555
H16_3 C14_3 1_555 1_555
C15_3 N4_4 1_555 1_555
Eu6_2 O3_3 1_555 1_555
O15_3 Eu6_2 1_555 1_555
Eu5 O4_2 1_555 1_555
Eu6 O12_2 1_555 1_555
O21_2 Eu5_2 1_555 1_555
O22_2 Eu6_2 1_555 1_555
O25_2 Eu5_2 1_555 1_555
O26_2 Eu6_2 1_555 1_555
O6_2 Eu5 1_555 1_555
N3_3 C8_3 1_555 1_555
O14_2 Eu6 1_555 1_555
N5_3 C15_3 1_555 1_555
N6_3 C15_3 1_555 1_555
O21_2 C3_4 1_555 1_555
O25_2 C3_4 1_555 1_555
C3_4 C7_4 1_555 1_555
H9_4 C7_4 1_555 1_555
H10_4 C7_4 1_555 1_555
O19 C1_4 1_555 1_555
O3_4 C1_4 1_555 1_555
N1_4 C6_5 1_555 1_555
C1_4 C5_4 1_555 1_555
N3_4 C5_4 1_555 1_555
N4_5 C8_4 1_555 1_555
C5_4 H7_4 1_555 1_555
H8_4 C5_4 1_555 1_555
C6_5 N2_5 1_555 1_555
C8_4 N1_4 1_555 1_555
O18 C10_4 1_555 1_555
O24 C10_4 1_555 1_555
C10_4 C12_4 1_555 1_555
C12_4 N2_5 1_555 1_555
H11_4 C12_4 1_555 1_555
H12_4 C12_4 1_555 1_555
Eu6 O3_4 1_555 1_555
O15_4 Eu6 1_555 1_555
O16_2 Eu6 1_555 1_555
H19_2 O16_2 1_555 1_555
H20_2 O16_2 1_555 1_555
N3_4 C8_4 1_555 1_555
O22_2 C11_4 1_555 1_555
O26_2 C11_4 1_555 1_555
C11_4 C14_4 1_555 1_555
H15_4 C14_4 1_555 1_555
H16_4 C14_4 1_555 1_555
O17 C2_4 1_555 1_555
O23 C2_4 1_555 1_555
O7_4 Eu5 1_555 1_555
H1_4 O7_4 1_555 1_555
H2_3 O7_4 1_555 1_555
O8_3 Eu5 1_555 1_555
H3_3 O8_3 1_555 1_555
H4_3 O8_3 1_555 1_555
N2_6 C4_4 1_555 1_555
C2_4 C4_4 1_555 1_555
C4_4 H5_4 1_555 1_555
H6_4 C4_4 1_555 1_555
C6_6 N2_6 1_555 1_555
O20 C9_4 1_555 1_555
O11_4 Eu5 1_555 1_555
N5_4 C6_6 1_555 1_555
C9_4 O11_4 1_555 1_555
N6_4 C13_4 1_555 1_555
C13_4 C9_4 1_555 1_555
H13_4 C13_4 1_555 1_555
H14_4 C13_4 1_555 1_555
C15_4 N4_6 1_555 1_555
N5_4 C15_4 1_555 1_555
N6_4 C15_4 1_555 1_555
H19_3 O16_3 1_555 1_555
H20_3 O16_3 1_555 1_555
H19_4 O16_4 1_555 1_555
H20_4 O16_4 1_555 1_555
H3_4 O8_4 1_555 1_555
H4_4 O8_4 1_555 1_555

#END
