
###############################################################################
#
# This file contains modified crystal structure data generated from the
# MOF subset of the Cambridge Structural Database (CSD) v543 
# hosted by the Cambridge Crystallographic Data Centre (CCDC).
#
# This work is licensed under the Creative Commons
# Attribution-NonCommercial-ShareAlike 4.0 International License.
# To view a copy of this license, visit
# http://creativecommons.org/licenses/by-nc-sa/4.0/
# or send a letter to
# Creative Commons, PO Box 1866, Mountain View, CA 94042, USA.
#
# CIF created using the CSD Python API on 29 September 2022
# The structure has been converted into the P1 space group
# The structure has a 3D framework
# The original CSD entry CUMMEE is in the monoclinic crystal system
# The framework has been calculated to contain at least 10.0% void space
# The void calculation uses a probe of radius 1.32A, grid spacing 0.4
#
###############################################################################

data_CUMMEE
_chemical_formula_moiety         '(C144 H72 Cd4 N24 O46 Ru6)n'
_symmetry_cell_setting           triclinic
_symmetry_space_group_name_H-M   'P 1'
_symmetry_Int_Tables_number      1
_space_group_name_Hall           'P 1'
loop_
_symmetry_equiv_pos_site_id
_symmetry_equiv_pos_as_xyz
1 x,y,z
_cell_length_a                   19.8070(5)
_cell_length_b                   15.3580(3)
_cell_length_c                   23.9322(6)
_cell_angle_alpha                90
_cell_angle_beta                 116.709(3)
_cell_angle_gamma                90
_cell_volume                     6503.3
loop_
_atom_site_label
_atom_site_type_symbol
_atom_site_fract_x
_atom_site_fract_y
_atom_site_fract_z
Cd5 Cd 0.019609(10) 0.424613(11) 0.459174(8)
O13 O 0.0272(3) 0.6942(3) 0.5990(2)
O17 O 0.10633(14) 0.5526(2) 0.58285(15)
Cd1 Cd 0.980391(10) 0.575387(11) 0.540826(8)
Ru1 Ru 0.5000 0.430504(17) 0.2500
O1 O 0.4728(3) 0.8058(3) 0.4010(2)
O2 O 0.5856(3) 0.7992(3) 0.4377(3)
O3 O 0.86218(14) 0.5419(2) 0.47339(13)
O4 O 0.89367(14) 0.4474(2) 0.41715(15)
O5 O 0.51882(19) 0.0275(2) 0.39174(17)
O6 O 0.4973(2) 0.1118(3) 0.45727(13)
N1 N 0.50197(14) 0.52961(16) 0.30883(13)
N2 N 0.61373(14) 0.44065(16) 0.30779(12)
N3 N 0.49616(14) 0.32758(15) 0.30263(11)
C1 C 0.4425(2) 0.5727(2) 0.3072(2)
H1 H 0.3936 0.5504 0.2812
C2 C 0.4475(2) 0.6468(3) 0.3404(2)
H2 H 0.4034 0.6749 0.3377
C3 C 0.5178(2) 0.6794(3) 0.3777(2)
C4 C 0.5811(2) 0.6333(2) 0.3834(2)
H3 H 0.6304 0.6530 0.4112
C5 C 0.57205(18) 0.5597(2) 0.34855(17)
C6 C 0.63454(17) 0.5069(2) 0.34975(15)
C7 C 0.70992(18) 0.5230(2) 0.38977(16)
H4 H 0.7235 0.5699 0.4187
C8 C 0.76504(17) 0.4707(2) 0.38728(16)
C9 C 0.7435(2) 0.4033(2) 0.34516(17)
H5 H 0.7805 0.3664 0.3427
C10 C 0.66816(18) 0.3895(2) 0.30653(15)
H6 H 0.6540 0.3421 0.2780
C11 C 0.5259(3) 0.7637(3) 0.4110(3)
C12 C 0.84746(19) 0.4882(2) 0.43024(18)
C13 C 0.4950(2) 0.3332(2) 0.35867(14)
H7 H 0.4927 0.3892 0.3747
C14 C 0.4969(2) 0.2614(3) 0.39278(15)
H8 H 0.4948 0.2678 0.4315
C15 C 0.5018(2) 0.1795(2) 0.37138(16)
C16 C 0.50329(19) 0.1729(2) 0.31449(15)
H9 H 0.5068 0.1174 0.2984
C17 C 0.49961(16) 0.24731(18) 0.28102(12)
C18 C 0.5065(3) 0.0986(3) 0.40934(19)
O7 O 0.48118(19) 0.0275(2) 0.10826(17)
O8 O 0.5027(2) 0.1118(3) 0.04273(13)
N4 N 0.50384(14) 0.32758(15) 0.19737(11)
C19 C 0.5050(2) 0.3332(2) 0.14133(14)
H10 H 0.5073 0.3892 0.1253
C20 C 0.5031(2) 0.2614(3) 0.10722(15)
H11 H 0.5052 0.2678 0.0685
C21 C 0.4982(2) 0.1795(2) 0.12862(16)
C22 C 0.49671(19) 0.1729(2) 0.18551(15)
H12 H 0.4932 0.1174 0.2016
C23 C 0.50039(16) 0.24731(18) 0.21898(12)
C24 C 0.4935(3) 0.0986(3) 0.09066(19)
O9 O 0.5272(3) 0.8058(3) 0.0990(2)
O10 O 0.4144(3) 0.7992(3) 0.0623(3)
O11 O 0.13782(14) 0.5419(2) 0.02661(13)
O12 O 0.10633(14) 0.4474(2) 0.08285(15)
N5 N 0.49803(14) 0.52961(16) 0.19117(13)
N6 N 0.38627(14) 0.44065(16) 0.19221(12)
C25 C 0.5575(2) 0.5727(2) 0.1928(2)
H13 H 0.6064 0.5504 0.2188
C26 C 0.5525(2) 0.6468(3) 0.1596(2)
H14 H 0.5966 0.6749 0.1623
C27 C 0.4822(2) 0.6794(3) 0.1223(2)
C28 C 0.4189(2) 0.6333(2) 0.1166(2)
H15 H 0.3696 0.6530 0.0888
C29 C 0.42795(18) 0.5597(2) 0.15145(17)
C30 C 0.36546(17) 0.5069(2) 0.15025(15)
C31 C 0.29008(18) 0.5230(2) 0.11023(16)
H16 H 0.2765 0.5699 0.0813
C32 C 0.23496(17) 0.4707(2) 0.11272(16)
C33 C 0.2565(2) 0.4033(2) 0.15484(17)
H17 H 0.2195 0.3664 0.1573
C34 C 0.33184(18) 0.3895(2) 0.19347(15)
H18 H 0.3460 0.3421 0.2220
C35 C 0.4741(3) 0.7637(3) 0.0890(3)
C36 C 0.15254(19) 0.4882(2) 0.06976(18)
Cd3 Cd 0.480391(10) 0.075387(11) 0.540826(8)
Cd8 Cd 0.519609(10) 0.924613(11) 0.459174(8)
Cd10 Cd 0.480391(10) 0.924613(11) 0.040826(8)
O15 O 0.9144(3) 0.7008(3) 0.5623(3)
O19 O 0.98118(19) 0.4725(2) 0.60826(17)
O21 O 0.9973(2) 0.6118(3) 0.45727(13)
O22 O 0.0027(2) 0.6118(3) 0.04273(13)
Cd2 Cd 0.019609(10) 0.575387(11) 0.959174(8)
Cd4 Cd 0.519609(10) 0.075387(11) 0.959174(8)
O16 O 0.0856(3) 0.7008(3) 0.9377(3)
O20 O 0.01882(19) 0.4725(2) 0.89174(17)
Cd6 Cd 0.980391(10) 0.424613(11) 0.040826(8)
O14 O 0.9728(3) 0.6942(3) 0.9010(2)
O18 O 0.89367(14) 0.5526(2) 0.91715(15)
O2_2 O 0.0856(3) 0.2992(3) 0.4377(3)
O3_2 O 0.36218(14) 0.0419(2) 0.47339(13)
N1_2 N 0.00197(14) 0.02961(16) 0.30883(13)
C3_2 C 0.0178(2) 0.1794(3) 0.3777(2)
C4_2 C 0.0811(2) 0.1333(2) 0.3834(2)
H3_2 H 0.1304 0.1530 0.4112
C5_2 C 0.07205(18) 0.0597(2) 0.34855(17)
C6_2 C 0.13454(17) 0.0069(2) 0.34975(15)
C7_2 C 0.20992(18) 0.0230(2) 0.38977(16)
H4_2 H 0.2235 0.0699 0.4187
C11_2 C 0.0259(3) 0.2637(3) 0.4110(3)
O9_2 O 0.0272(3) 0.3058(3) 0.0990(2)
C25_2 C 0.0575(2) 0.0727(2) 0.1928(2)
H13_2 H 0.1064 0.0504 0.2188
C26_2 C 0.0525(2) 0.1468(3) 0.1596(2)
H14_2 H 0.0966 0.1749 0.1623
O13_2 O 0.5272(3) 0.1942(3) 0.5990(2)
O15_2 O 0.4144(3) 0.2008(3) 0.5623(3)
O17_2 O 0.60633(14) 0.0526(2) 0.58285(15)
Ru1_2 Ru -0.0000 0.930504(17) 0.2500
O4_2 O 0.39367(14) 0.9474(2) 0.41715(15)
O5_2 O 0.01882(19) 0.5275(2) 0.39174(17)
N2_2 N 0.11373(14) 0.94065(16) 0.30779(12)
C8_2 C 0.26504(17) 0.9707(2) 0.38728(16)
C9_2 C 0.2435(2) 0.9033(2) 0.34516(17)
H5_2 H 0.2805 0.8664 0.3427
C10_2 C 0.16816(18) 0.8895(2) 0.30653(15)
H6_2 H 0.1540 0.8421 0.2780
C12_2 C 0.34746(19) 0.9882(2) 0.43024(18)
C15_2 C 0.0018(2) 0.6795(2) 0.37138(16)
C16_2 C 0.00329(19) 0.6729(2) 0.31449(15)
H9_2 H 0.0068 0.6174 0.2984
C18_2 C 0.0065(3) 0.5986(3) 0.40934(19)
N4_2 N 0.00384(14) 0.82758(15) 0.19737(11)
C19_2 C 0.0050(2) 0.8332(2) 0.14133(14)
H10_2 H 0.0073 0.8892 0.1253
C20_2 C 0.0031(2) 0.7614(3) 0.10722(15)
H11_2 H 0.0052 0.7678 0.0685
C23_2 C 0.00039(16) 0.74731(18) 0.21898(12)
O19_2 O 0.48118(19) 0.9725(2) 0.60826(17)
O1_2 O 0.9728(3) 0.3058(3) 0.4010(2)
C1_2 C 0.9425(2) 0.0727(2) 0.3072(2)
H1_2 H 0.8936 0.0504 0.2812
C2_2 C 0.9475(2) 0.1468(3) 0.3404(2)
H2_2 H 0.9034 0.1749 0.3377
O10_2 O 0.9144(3) 0.2992(3) 0.0623(3)
O11_2 O 0.63782(14) 0.0419(2) 0.02661(13)
N5_2 N 0.99803(14) 0.02961(16) 0.19117(13)
C27_2 C 0.9822(2) 0.1794(3) 0.1223(2)
C28_2 C 0.9189(2) 0.1333(2) 0.1166(2)
H15_2 H 0.8696 0.1530 0.0888
C29_2 C 0.92795(18) 0.0597(2) 0.15145(17)
C30_2 C 0.86546(17) 0.0069(2) 0.15025(15)
C31_2 C 0.79008(18) 0.0230(2) 0.11023(16)
H16_2 H 0.7765 0.0699 0.0813
C35_2 C 0.9741(3) 0.2637(3) 0.0890(3)
O14_2 O 0.4728(3) 0.1942(3) 0.9010(2)
O16_2 O 0.5856(3) 0.2008(3) 0.9377(3)
O18_2 O 0.39367(14) 0.0526(2) 0.91715(15)
Ru1_3 Ru 1.0000 0.930504(17) 0.2500
N3_2 N 0.99616(14) 0.82758(15) 0.30263(11)
C13_2 C 0.9950(2) 0.8332(2) 0.35867(14)
H7_2 H 0.9927 0.8892 0.3747
C14_2 C 0.9969(2) 0.7614(3) 0.39278(15)
H8_2 H 0.9948 0.7678 0.4315
C17_2 C 0.99961(16) 0.74731(18) 0.28102(12)
O7_2 O 0.98118(19) 0.5275(2) 0.10826(17)
C21_2 C 0.9982(2) 0.6795(2) 0.12862(16)
C22_2 C 0.99671(19) 0.6729(2) 0.18551(15)
H12_2 H 0.9932 0.6174 0.2016
C24_2 C 0.9935(3) 0.5986(3) 0.09066(19)
O12_2 O 0.60633(14) 0.9474(2) 0.08285(15)
N6_2 N 0.88627(14) 0.94065(16) 0.19221(12)
C32_2 C 0.73496(17) 0.9707(2) 0.11272(16)
C33_2 C 0.7565(2) 0.9033(2) 0.15484(17)
H17_2 H 0.7195 0.8664 0.1573
C34_2 C 0.83184(18) 0.8895(2) 0.19347(15)
H18_2 H 0.8460 0.8421 0.2220
C36_2 C 0.65254(19) 0.9882(2) 0.06976(18)
O20_2 O 0.51882(19) 0.9725(2) 0.89174(17)
Ru1_4 Ru 0.5000 0.569496(17) 0.7500
O3_3 O 0.13782(14) 0.4581(2) 0.52661(13)
O6_2 O 0.5027(2) 0.8882(3) 0.54273(13)
N1_3 N 0.49803(14) 0.47039(16) 0.69117(13)
N2_3 N 0.38627(14) 0.55935(16) 0.69221(12)
N3_3 N 0.50384(14) 0.67242(15) 0.69737(11)
C1_3 C 0.5575(2) 0.4273(2) 0.6928(2)
H1_3 H 0.6064 0.4496 0.7188
C2_3 C 0.5525(2) 0.3532(3) 0.6596(2)
H2_3 H 0.5966 0.3251 0.6623
C3_3 C 0.4822(2) 0.3206(3) 0.6223(2)
C4_3 C 0.4189(2) 0.3667(2) 0.6166(2)
H3_3 H 0.3696 0.3470 0.5888
C5_3 C 0.42795(18) 0.4403(2) 0.65145(17)
C6_3 C 0.36546(17) 0.4931(2) 0.65025(15)
C7_3 C 0.29008(18) 0.4770(2) 0.61023(16)
H4_3 H 0.2765 0.4301 0.5813
C8_3 C 0.23496(17) 0.5293(2) 0.61272(16)
C9_3 C 0.2565(2) 0.5967(2) 0.65484(17)
H5_3 H 0.2195 0.6336 0.6573
C10_3 C 0.33184(18) 0.6105(2) 0.69347(15)
H6_3 H 0.3460 0.6579 0.7220
C11_3 C 0.4741(3) 0.2363(3) 0.5890(3)
C12_3 C 0.15254(19) 0.5118(2) 0.56976(18)
C13_3 C 0.5050(2) 0.6668(2) 0.64133(14)
H7_3 H 0.5073 0.6108 0.6253
C14_3 C 0.5031(2) 0.7386(3) 0.60722(15)
H8_3 H 0.5052 0.7322 0.5685
C15_3 C 0.4982(2) 0.8205(2) 0.62862(16)
C16_3 C 0.49671(19) 0.8271(2) 0.68551(15)
H9_3 H 0.4932 0.8826 0.7016
C17_3 C 0.50039(16) 0.75269(18) 0.71898(12)
C18_3 C 0.4935(3) 0.9014(3) 0.59066(19)
O8_2 O 0.4973(2) 0.8882(3) 0.95727(13)
N4_3 N 0.49616(14) 0.67242(15) 0.80263(11)
C19_3 C 0.4950(2) 0.6668(2) 0.85867(14)
H10_3 H 0.4927 0.6108 0.8747
C20_3 C 0.4969(2) 0.7386(3) 0.89278(15)
H11_3 H 0.4948 0.7322 0.9315
C21_3 C 0.5018(2) 0.8205(2) 0.87138(16)
C22_3 C 0.50329(19) 0.8271(2) 0.81449(15)
H12_3 H 0.5068 0.8826 0.7984
C23_3 C 0.49961(16) 0.75269(18) 0.78102(12)
C24_3 C 0.5065(3) 0.9014(3) 0.90934(19)
O11_3 O 0.86218(14) 0.4581(2) 0.97339(13)
N5_3 N 0.50197(14) 0.47039(16) 0.80883(13)
N6_3 N 0.61373(14) 0.55935(16) 0.80779(12)
C25_3 C 0.4425(2) 0.4273(2) 0.8072(2)
H13_3 H 0.3936 0.4496 0.7812
C26_3 C 0.4475(2) 0.3532(3) 0.8404(2)
H14_3 H 0.4034 0.3251 0.8377
C27_3 C 0.5178(2) 0.3206(3) 0.8777(2)
C28_3 C 0.5811(2) 0.3667(2) 0.8834(2)
H15_3 H 0.6304 0.3470 0.9112
C29_3 C 0.57205(18) 0.4403(2) 0.84855(17)
C30_3 C 0.63454(17) 0.4931(2) 0.84975(15)
C31_3 C 0.70992(18) 0.4770(2) 0.88977(16)
H16_3 H 0.7235 0.4301 0.9187
C32_3 C 0.76504(17) 0.5293(2) 0.88728(16)
C33_3 C 0.7435(2) 0.5967(2) 0.84516(17)
H17_3 H 0.7805 0.6336 0.8427
C34_3 C 0.66816(18) 0.6105(2) 0.80653(15)
H18_3 H 0.6540 0.6579 0.7780
C35_3 C 0.5259(3) 0.2363(3) 0.9110(3)
C36_3 C 0.84746(19) 0.5118(2) 0.93024(18)
O21_2 O 0.0027(2) 0.3882(3) 0.54273(13)
O22_2 O 0.9973(2) 0.3882(3) 0.95727(13)
Ru1_5 Ru 0.0000 0.069496(17) 0.7500
N3_4 N 0.00384(14) 0.17242(15) 0.69737(11)
C13_4 C 0.0050(2) 0.1668(2) 0.64133(14)
H7_4 H 0.0073 0.1108 0.6253
C14_4 C 0.0031(2) 0.2386(3) 0.60722(15)
H8_4 H 0.0052 0.2322 0.5685
C17_4 C 0.00039(16) 0.25269(18) 0.71898(12)
C21_4 C 0.0018(2) 0.3205(2) 0.87138(16)
C22_4 C 0.00329(19) 0.3271(2) 0.81449(15)
H12_4 H 0.0068 0.3826 0.7984
C24_4 C 0.0065(3) 0.4014(3) 0.90934(19)
N6_4 N 0.11373(14) 0.05935(16) 0.80779(12)
C32_4 C 0.26504(17) 0.0293(2) 0.88728(16)
C33_4 C 0.2435(2) 0.0967(2) 0.84516(17)
H17_4 H 0.2805 0.1336 0.8427
C34_4 C 0.16816(18) 0.1105(2) 0.80653(15)
H18_4 H 0.1540 0.1579 0.7780
C36_4 C 0.34746(19) 0.0118(2) 0.93024(18)
C1_4 C 0.0575(2) 0.9273(2) 0.6928(2)
H1_4 H 0.1064 0.9496 0.7188
C2_4 C 0.0525(2) 0.8532(3) 0.6596(2)
H2_4 H 0.0966 0.8251 0.6623
O11_4 O 0.36218(14) 0.9581(2) 0.97339(13)
N5_4 N 0.00197(14) 0.97039(16) 0.80883(13)
C27_4 C 0.0178(2) 0.8206(3) 0.8777(2)
C28_4 C 0.0811(2) 0.8667(2) 0.8834(2)
H15_4 H 0.1304 0.8470 0.9112
C29_4 C 0.07205(18) 0.9403(2) 0.84855(17)
C30_4 C 0.13454(17) 0.9931(2) 0.84975(15)
C31_4 C 0.20992(18) 0.9770(2) 0.88977(16)
H16_4 H 0.2235 0.9301 0.9187
C35_4 C 0.0259(3) 0.7363(3) 0.9110(3)
Ru1_6 Ru 1.0000 0.069496(17) 0.7500
N2_4 N 0.88627(14) 0.05935(16) 0.69221(12)
C8_4 C 0.73496(17) 0.0293(2) 0.61272(16)
C9_4 C 0.7565(2) 0.0967(2) 0.65484(17)
H5_4 H 0.7195 0.1336 0.6573
C10_4 C 0.83184(18) 0.1105(2) 0.69347(15)
H6_4 H 0.8460 0.1579 0.7220
C12_4 C 0.65254(19) 0.0118(2) 0.56976(18)
C15_4 C 0.9982(2) 0.3205(2) 0.62862(16)
C16_4 C 0.99671(19) 0.3271(2) 0.68551(15)
H9_4 H 0.9932 0.3826 0.7016
C18_4 C 0.9935(3) 0.4014(3) 0.59066(19)
N4_4 N 0.99616(14) 0.17242(15) 0.80263(11)
C19_4 C 0.9950(2) 0.1668(2) 0.85867(14)
H10_4 H 0.9927 0.1108 0.8747
C20_4 C 0.9969(2) 0.2386(3) 0.89278(15)
H11_4 H 0.9948 0.2322 0.9315
C23_4 C 0.99961(16) 0.25269(18) 0.78102(12)
O3_4 O 0.63782(14) 0.9581(2) 0.52661(13)
N1_4 N 0.99803(14) 0.97039(16) 0.69117(13)
C3_4 C 0.9822(2) 0.8206(3) 0.6223(2)
C4_4 C 0.9189(2) 0.8667(2) 0.6166(2)
H3_4 H 0.8696 0.8470 0.5888
C5_4 C 0.92795(18) 0.9403(2) 0.65145(17)
C6_4 C 0.86546(17) 0.9931(2) 0.65025(15)
C7_4 C 0.79008(18) 0.9770(2) 0.61023(16)
H4_4 H 0.7765 0.9301 0.5813
C11_4 C 0.9741(3) 0.7363(3) 0.5890(3)
C25_4 C 0.9425(2) 0.9273(2) 0.8072(2)
H13_4 H 0.8936 0.9496 0.7812
C26_4 C 0.9475(2) 0.8532(3) 0.8404(2)
H14_4 H 0.9034 0.8251 0.8377
loop_
_geom_bond_atom_site_label_1
_geom_bond_atom_site_label_2
_geom_bond_site_symmetry_1
_geom_bond_site_symmetry_2
Cd1 O3 1_555 1_555
Ru1 N1 1_555 1_555
O1 C11 1_555 1_555
O2 C11 1_555 1_555
O3 C12 1_555 1_555
O4 C12 1_555 1_555
O5 C18 1_555 1_555
O6 C18 1_555 1_555
N1 C1 1_555 1_555
N2 Ru1 1_555 1_555
N3 Ru1 1_555 1_555
C1 H1 1_555 1_555
C2 C1 1_555 1_555
H2 C2 1_555 1_555
C3 C2 1_555 1_555
C4 C3 1_555 1_555
H3 C4 1_555 1_555
C5 N1 1_555 1_555
C6 N2 1_555 1_555
C7 C6 1_555 1_555
H4 C7 1_555 1_555
C8 C7 1_555 1_555
C9 C8 1_555 1_555
H5 C9 1_555 1_555
C10 N2 1_555 1_555
H6 C10 1_555 1_555
C11 C3 1_555 1_555
C12 C8 1_555 1_555
C13 N3 1_555 1_555
H7 C13 1_555 1_555
C14 C13 1_555 1_555
H8 C14 1_555 1_555
C15 C14 1_555 1_555
C16 C15 1_555 1_555
H9 C16 1_555 1_555
C17 N3 1_555 1_555
C18 C15 1_555 1_555
O7 C24 1_555 1_555
O8 C24 1_555 1_555
N4 Ru1 1_555 1_555
C19 N4 1_555 1_555
H10 C19 1_555 1_555
C20 C19 1_555 1_555
H11 C20 1_555 1_555
C21 C20 1_555 1_555
C22 C21 1_555 1_555
H12 C22 1_555 1_555
C23 C17 1_555 1_555
C24 C21 1_555 1_555
O9 C35 1_555 1_555
O10 C35 1_555 1_555
O11 C36 1_555 1_555
O12 C36 1_555 1_555
N5 Ru1 1_555 1_555
N6 Ru1 1_555 1_555
C25 N5 1_555 1_555
H13 C25 1_555 1_555
C26 C25 1_555 1_555
H14 C26 1_555 1_555
C27 C26 1_555 1_555
C28 C27 1_555 1_555
H15 C28 1_555 1_555
C29 N5 1_555 1_555
C30 N6 1_555 1_555
C31 C30 1_555 1_555
H16 C31 1_555 1_555
C32 C31 1_555 1_555
C33 C32 1_555 1_555
H17 C33 1_555 1_555
C34 N6 1_555 1_555
H18 C34 1_555 1_555
C35 C27 1_555 1_555
C36 C32 1_555 1_555
Cd3 O6 1_555 1_555
Cd8 O1 1_555 1_555
Cd10 O9 1_555 1_555
O15 Cd1 1_555 1_555
O19 Cd1 1_555 1_555
O21 Cd1 1_555 1_555
O2 Cd8 1_555 1_555
C4 C5 1_555 1_555
C5 C6 1_555 1_555
C9 C10 1_555 1_555
C16 C17 1_555 1_555
N4 C23 1_555 1_555
C22 C23 1_555 1_555
O10 Cd10 1_555 1_555
C28 C29 1_555 1_555
C29 C30 1_555 1_555
C33 C34 1_555 1_555
O16 Cd2 1_555 1_555
O20 Cd2 1_555 1_555
Cd3 O3_2 1_555 1_555
O2_2 C11_2 1_555 1_555
C4_2 C3_2 1_555 1_555
H3_2 C4_2 1_555 1_555
C5_2 N1_2 1_555 1_555
C7_2 C6_2 1_555 1_555
H4_2 C7_2 1_555 1_555
C11_2 C3_2 1_555 1_555
H13_2 C25_2 1_555 1_555
C26_2 C25_2 1_555 1_555
H14_2 C26_2 1_555 1_555
O13_2 Cd3 1_555 1_555
O15_2 Cd3 1_555 1_555
O17_2 Cd3 1_555 1_555
O2_2 Cd5 1_555 1_555
C4_2 C5_2 1_555 1_555
C5_2 C6_2 1_555 1_555
O4_2 C12_2 1_555 1_555
O5_2 C18_2 1_555 1_555
N2_2 Ru1_2 1_555 1_555
C9_2 C8_2 1_555 1_555
H5_2 C9_2 1_555 1_555
C10_2 N2_2 1_555 1_555
H6_2 C10_2 1_555 1_555
C12_2 C8_2 1_555 1_555
C16_2 C15_2 1_555 1_555
H9_2 C16_2 1_555 1_555
C18_2 C15_2 1_555 1_555
N4_2 Ru1_2 1_555 1_555
C19_2 N4_2 1_555 1_555
H10_2 C19_2 1_555 1_555
C20_2 C19_2 1_555 1_555
H11_2 C20_2 1_555 1_555
Cd8 O4_2 1_555 1_555
Cd5 O5_2 1_555 1_555
C9_2 C10_2 1_555 1_555
N4_2 C23_2 1_555 1_555
C1_2 H1_2 1_555 1_555
C2_2 C1_2 1_555 1_555
H2_2 C2_2 1_555 1_555
O10_2 C35_2 1_555 1_555
C28_2 C27_2 1_555 1_555
H15_2 C28_2 1_555 1_555
C29_2 N5_2 1_555 1_555
C31_2 C30_2 1_555 1_555
H16_2 C31_2 1_555 1_555
C35_2 C27_2 1_555 1_555
O10_2 Cd6 1_555 1_555
C28_2 C29_2 1_555 1_555
C29_2 C30_2 1_555 1_555
O14_2 Cd4 1_555 1_555
O16_2 Cd4 1_555 1_555
O18_2 Cd4 1_555 1_555
N3_2 Ru1_3 1_555 1_555
C13_2 N3_2 1_555 1_555
H7_2 C13_2 1_555 1_555
C14_2 C13_2 1_555 1_555
H8_2 C14_2 1_555 1_555
C17_2 N3_2 1_555 1_555
O7_2 C24_2 1_555 1_555
C22_2 C21_2 1_555 1_555
H12_2 C22_2 1_555 1_555
C24_2 C21_2 1_555 1_555
O12_2 C36_2 1_555 1_555
N6_2 Ru1_3 1_555 1_555
C33_2 C32_2 1_555 1_555
H17_2 C33_2 1_555 1_555
C34_2 N6_2 1_555 1_555
H18_2 C34_2 1_555 1_555
C36_2 C32_2 1_555 1_555
Cd10 O12_2 1_555 1_555
Cd6 O7_2 1_555 1_555
C33_2 C34_2 1_555 1_555
Cd5 O3_3 1_555 1_555
Ru1_4 N1_3 1_555 1_555
O13_2 C11_3 1_555 1_555
O15_2 C11_3 1_555 1_555
O3_3 C12_3 1_555 1_555
O17 C12_3 1_555 1_555
O19_2 C18_3 1_555 1_555
O6_2 C18_3 1_555 1_555
N1_3 C1_3 1_555 1_555
N2_3 Ru1_4 1_555 1_555
N3_3 Ru1_4 1_555 1_555
C1_3 H1_3 1_555 1_555
C2_3 C1_3 1_555 1_555
H2_3 C2_3 1_555 1_555
C3_3 C2_3 1_555 1_555
C4_3 C3_3 1_555 1_555
H3_3 C4_3 1_555 1_555
C5_3 N1_3 1_555 1_555
C6_3 N2_3 1_555 1_555
C7_3 C6_3 1_555 1_555
H4_3 C7_3 1_555 1_555
C8_3 C7_3 1_555 1_555
C9_3 C8_3 1_555 1_555
H5_3 C9_3 1_555 1_555
C10_3 N2_3 1_555 1_555
H6_3 C10_3 1_555 1_555
C11_3 C3_3 1_555 1_555
C12_3 C8_3 1_555 1_555
C13_3 N3_3 1_555 1_555
H7_3 C13_3 1_555 1_555
C14_3 C13_3 1_555 1_555
H8_3 C14_3 1_555 1_555
C15_3 C14_3 1_555 1_555
C16_3 C15_3 1_555 1_555
H9_3 C16_3 1_555 1_555
C17_3 N3_3 1_555 1_555
C18_3 C15_3 1_555 1_555
O20_2 C24_3 1_555 1_555
O8_2 C24_3 1_555 1_555
N4_3 Ru1_4 1_555 1_555
C19_3 N4_3 1_555 1_555
H10_3 C19_3 1_555 1_555
C20_3 C19_3 1_555 1_555
H11_3 C20_3 1_555 1_555
C21_3 C20_3 1_555 1_555
C22_3 C21_3 1_555 1_555
H12_3 C22_3 1_555 1_555
C23_3 C17_3 1_555 1_555
C24_3 C21_3 1_555 1_555
O14_2 C35_3 1_555 1_555
O16_2 C35_3 1_555 1_555
O11_3 C36_3 1_555 1_555
O18 C36_3 1_555 1_555
N5_3 Ru1_4 1_555 1_555
N6_3 Ru1_4 1_555 1_555
C25_3 N5_3 1_555 1_555
H13_3 C25_3 1_555 1_555
C26_3 C25_3 1_555 1_555
H14_3 C26_3 1_555 1_555
C27_3 C26_3 1_555 1_555
C28_3 C27_3 1_555 1_555
H15_3 C28_3 1_555 1_555
C29_3 N5_3 1_555 1_555
C30_3 N6_3 1_555 1_555
C31_3 C30_3 1_555 1_555
H16_3 C31_3 1_555 1_555
C32_3 C31_3 1_555 1_555
C33_3 C32_3 1_555 1_555
H17_3 C33_3 1_555 1_555
C34_3 N6_3 1_555 1_555
H18_3 C34_3 1_555 1_555
C35_3 C27_3 1_555 1_555
C36_3 C32_3 1_555 1_555
Cd8 O6_2 1_555 1_555
O21_2 Cd5 1_555 1_555
C4_3 C5_3 1_555 1_555
C5_3 C6_3 1_555 1_555
C9_3 C10_3 1_555 1_555
C16_3 C17_3 1_555 1_555
N4_3 C23_3 1_555 1_555
C22_3 C23_3 1_555 1_555
C28_3 C29_3 1_555 1_555
C29_3 C30_3 1_555 1_555
C33_3 C34_3 1_555 1_555
N3_4 Ru1_5 1_555 1_555
C13_4 N3_4 1_555 1_555
H7_4 C13_4 1_555 1_555
C14_4 C13_4 1_555 1_555
H8_4 C14_4 1_555 1_555
C17_4 N3_4 1_555 1_555
O20 C24_4 1_555 1_555
C22_4 C21_4 1_555 1_555
H12_4 C22_4 1_555 1_555
C24_4 C21_4 1_555 1_555
O18_2 C36_4 1_555 1_555
N6_4 Ru1_5 1_555 1_555
C33_4 C32_4 1_555 1_555
H17_4 C33_4 1_555 1_555
C34_4 N6_4 1_555 1_555
H18_4 C34_4 1_555 1_555
C36_4 C32_4 1_555 1_555
C33_4 C34_4 1_555 1_555
C1_4 H1_4 1_555 1_555
C2_4 C1_4 1_555 1_555
H2_4 C2_4 1_555 1_555
O16 C35_4 1_555 1_555
C28_4 C27_4 1_555 1_555
H15_4 C28_4 1_555 1_555
C29_4 N5_4 1_555 1_555
C31_4 C30_4 1_555 1_555
H16_4 C31_4 1_555 1_555
C35_4 C27_4 1_555 1_555
C28_4 C29_4 1_555 1_555
C29_4 C30_4 1_555 1_555
O17_2 C12_4 1_555 1_555
O19 C18_4 1_555 1_555
N2_4 Ru1_6 1_555 1_555
C9_4 C8_4 1_555 1_555
H5_4 C9_4 1_555 1_555
C10_4 N2_4 1_555 1_555
H6_4 C10_4 1_555 1_555
C12_4 C8_4 1_555 1_555
C16_4 C15_4 1_555 1_555
H9_4 C16_4 1_555 1_555
C18_4 C15_4 1_555 1_555
N4_4 Ru1_6 1_555 1_555
C19_4 N4_4 1_555 1_555
H10_4 C19_4 1_555 1_555
C20_4 C19_4 1_555 1_555
H11_4 C20_4 1_555 1_555
C9_4 C10_4 1_555 1_555
N4_4 C23_4 1_555 1_555
Cd8 O3_4 1_555 1_555
O15 C11_4 1_555 1_555
C4_4 C3_4 1_555 1_555
H3_4 C4_4 1_555 1_555
C5_4 N1_4 1_555 1_555
C7_4 C6_4 1_555 1_555
H4_4 C7_4 1_555 1_555
C11_4 C3_4 1_555 1_555
H13_4 C25_4 1_555 1_555
C26_4 C25_4 1_555 1_555
H14_4 C26_4 1_555 1_555
C4_4 C5_4 1_555 1_555
C5_4 C6_4 1_555 1_555

#END
