
###############################################################################
#
# This file contains modified crystal structure data generated from the
# MOF subset of the Cambridge Structural Database (CSD) v543 
# hosted by the Cambridge Crystallographic Data Centre (CCDC).
#
# This work is licensed under the Creative Commons
# Attribution-NonCommercial-ShareAlike 4.0 International License.
# To view a copy of this license, visit
# http://creativecommons.org/licenses/by-nc-sa/4.0/
# or send a letter to
# Creative Commons, PO Box 1866, Mountain View, CA 94042, USA.
#
# CIF created using the CSD Python API on 29 September 2022
# The structure has been converted into the P1 space group
# The structure has a 3D framework
# The original CSD entry CUNCIA is in the tetragonal crystal system
# The original CSD entry CUNCIA is in a Sohncke space group
# The framework has been calculated to contain at least 10.0% void space
# The void calculation uses a probe of radius 1.32A, grid spacing 0.4
#
###############################################################################

data_CUNCIA
_chemical_formula_moiety         '(C108 H88 Co12 N16 O48)n'
_symmetry_cell_setting           triclinic
_symmetry_space_group_name_H-M   'P 1'
_symmetry_Int_Tables_number      1
_space_group_name_Hall           'P 1'
loop_
_symmetry_equiv_pos_site_id
_symmetry_equiv_pos_as_xyz
1 x,y,z
_cell_length_a                   11.0533(6)
_cell_length_b                   11.0533(6)
_cell_length_c                   31.3156(16)
_cell_angle_alpha                90
_cell_angle_beta                 90
_cell_angle_gamma                90
_cell_volume                     3826
loop_
_atom_site_label
_atom_site_type_symbol
_atom_site_fract_x
_atom_site_fract_y
_atom_site_fract_z
Co1 Co 0.30240(9) 0.07408(8) 0.3646(4)
C2 C 0.0311(7) 0.1203(8) 0.3558(4)
O6 O 0.1203(5) 0.0537(6) 0.3601(4)
O7 O 0.0330(6) 0.2295(6) 0.3431(5)
Co7 Co 0.18243(10) 0.34258(9) 0.3301(4)
O14 O 0.2856(5) 0.2041(5) 0.3148(4)
O15 O 0.2906(10) 0.1958(7) 0.4163(4)
O18 O 0.4833(6) 0.0839(9) 0.3758(4)
N5 N 0.2972(6) 0.9229(5) 0.4080(4)
O19 O 0.3281(7) 0.9409(5) 0.3176(4)
C3 C 0.9116(6) 0.0701(8) 0.3694(4)
O8 O 0.5688(5) 0.1877(8) 0.3253(4)
C7 C 0.6928(7) 0.0743(6) 0.3712(4)
C8 C 0.8007(7) 0.1235(7) 0.3575(4)
H11 H 0.8003 0.1935 0.3399
C9 C 0.5723(6) 0.1181(7) 0.3552(4)
Co9 Co 0.43914(9) 0.21016(8) 0.2764(4)
Co2 Co 0.65742(9) 0.18243(10) 0.5801(4)
C1 C 0.6988(9) 0.2684(11) 0.6695(5)
H1 H 0.6636 0.2842 0.6966
O1 O 0.7959(5) 0.2856(5) 0.5648(4)
H2 H 0.8403 0.2293 0.5453
Co3 Co 0.78984(8) 0.43914(9) 0.5264(4)
O2 O 0.7588(9) 0.3151(8) 0.4731(4)
H3 H 0.8061 0.3233 0.4510
H4 H 0.7632 0.2386 0.4795
O3 O 0.5340(5) 0.0468(5) 0.5712(4)
H5 H 0.4751 0.0731 0.5571
O4 O 0.8042(7) 0.2906(10) 0.6663(4)
O5 O 0.6302(6) 0.2278(8) 0.6421(4)
N1 N 0.7894(6) 0.5959(6) 0.4853(4)
N2 N 0.6655(7) 0.8988(7) 0.4924(4)
H7 H 0.6049 0.9155 0.4750
H8 H 0.6365 0.8792 0.5177
C4 C 0.9094(6) 0.9703(7) 0.3967(4)
H9 H 0.9836 0.9342 0.4051
C5 C 0.8020(7) 0.9229(6) 0.4118(4)
C6 C 0.6923(7) 0.9742(7) 0.3989(4)
H10 H 0.6178 0.9417 0.4088
C10 C 0.7991(6) 0.8113(7) 0.4387(4)
C11 C 0.7293(7) 0.8045(7) 0.4763(4)
C12 C 0.7265(7) 0.6928(7) 0.4973(4)
H12 H 0.6762 0.6857 0.5218
C13 C 0.8598(7) 0.6056(7) 0.4506(4)
H13 H 0.9079 0.5384 0.4422
C14 C 0.8645(6) 0.7112(8) 0.4264(4)
H14 H 0.9129 0.7142 0.4013
C15 C 0.5186(6) 0.3922(7) 0.5388(4)
O10 O 0.6073(5) 0.4600(6) 0.5339(4)
C16 C 0.4000(6) 0.4421(7) 0.5236(4)
N4 N 0.1597(6) 0.6242(6) 0.4005(4)
H15 H 0.1566 0.5635 0.4188
H16 H 0.0857 0.6514 0.3961
O11 O 0.5201(5) 0.2876(6) 0.5553(4)
C17 C 0.2890(6) 0.3931(6) 0.5365(4)
H17 H 0.2871 0.3261 0.5555
O12 O 0.0591(5) 0.3281(7) 0.5676(4)
C18 C 0.1814(7) 0.4427(6) 0.5213(4)
C19 C 0.1847(7) 0.5418(6) 0.4946(4)
H18 H 0.1107 0.5748 0.4844
C20 C 0.2940(6) 0.5956(6) 0.4819(4)
C21 C 0.4011(6) 0.5468(7) 0.4975(4)
H19 H 0.4760 0.5841 0.4906
C22 C 0.0609(6) 0.3946(7) 0.5349(4)
C23 C 0.2969(6) 0.7068(6) 0.4553(4)
C24 C 0.2289(6) 0.7157(6) 0.4167(4)
C25 C 0.2329(7) 0.8272(6) 0.3952(4)
H20 H 0.1866 0.8351 0.3698
C26 C 0.3638(7) 0.9115(7) 0.4436(4)
H21 H 0.4125 0.9775 0.4526
C27 C 0.3635(7) 0.8065(7) 0.4673(4)
H22 H 0.4106 0.8028 0.4927
Co6 Co 0.92592(8) 0.30240(9) 0.6146(4)
O16 O 0.7705(6) 0.0330(6) 0.5931(5)
O17 O 0.8123(8) 0.5688(5) 0.5753(4)
O20 O 0.9725(5) 0.4219(7) 0.5130(4)
O13 O 0.0275(5) 0.5781(7) 0.0130(4)
Co5 Co 0.07408(8) 0.69760(9) 0.1146(4)
Co8 Co 0.21016(8) 0.56086(9) 0.0264(4)
Co2_2 Co 0.34258(9) 0.81757(10) 0.0801(4)
C1_2 C 0.3012(9) 0.7316(11) 0.1695(5)
H1_2 H 0.3364 0.7158 0.1966
O1_2 O 0.2041(5) 0.7144(5) 0.0648(4)
H2_2 H 0.1597 0.7707 0.0453
O3_2 O 0.4660(5) 0.9532(5) 0.0712(4)
H5_2 H 0.5249 0.9269 0.0571
O4_2 O 0.1958(7) 0.7094(10) 0.1663(4)
O5_2 O 0.3698(6) 0.7722(8) 0.1421(4)
H8_2 H 0.3635 0.1208 0.0177
H12_2 H 0.3238 0.3143 0.0218
C15_2 C 0.4814(6) 0.6078(7) 0.0388(4)
O10_2 O 0.3927(5) 0.5400(6) 0.0339(4)
C16_2 C 0.6000(6) 0.5579(7) 0.0236(4)
O11_2 O 0.4799(5) 0.7124(6) 0.0553(4)
C17_2 C 0.7110(6) 0.6069(6) 0.0365(4)
H17_2 H 0.7129 0.6739 0.0555
O12_2 O 0.9409(5) 0.6719(7) 0.0676(4)
C18_2 C 0.8186(7) 0.5573(6) 0.0213(4)
C22_2 C 0.9391(6) 0.6054(7) 0.0349(4)
O16_2 O 0.2295(6) 0.9670(6) 0.0931(5)
O17_2 O 0.1877(8) 0.4312(5) 0.0753(4)
O2_2 O 0.2412(9) 0.6849(8) 0.9731(4)
H3_2 H 0.1939 0.6767 0.9510
H4_2 H 0.2368 0.7614 0.9795
N1_2 N 0.2106(6) 0.4041(6) 0.9853(4)
N2_2 N 0.3345(7) 0.1012(7) 0.9924(4)
H7_2 H 0.3951 0.0845 0.9750
C4_2 C 0.0906(6) 0.0297(7) 0.8967(4)
H9_2 H 0.0164 0.0658 0.9051
C5_2 C 0.1980(7) 0.0771(6) 0.9118(4)
C6_2 C 0.3077(7) 0.0258(7) 0.8989(4)
H10_2 H 0.3822 0.0583 0.9088
C10_2 C 0.2009(6) 0.1887(7) 0.9387(4)
C11_2 C 0.2707(7) 0.1955(7) 0.9763(4)
C12_2 C 0.2735(7) 0.3072(7) 0.9973(4)
C13_2 C 0.1402(7) 0.3944(7) 0.9506(4)
H13_2 H 0.0921 0.4616 0.9422
C14_2 C 0.1355(6) 0.2888(8) 0.9264(4)
H14_2 H 0.0871 0.2858 0.9013
N3 N 0.7028(6) 0.0771(5) 0.9080(4)
N4_2 N 0.8403(6) 0.3758(6) 0.9005(4)
H15_2 H 0.8434 0.4365 0.9188
H16_2 H 0.9143 0.3486 0.8961
C19_2 C 0.8153(7) 0.4582(6) 0.9946(4)
H18_2 H 0.8893 0.4252 0.9844
C20_2 C 0.7060(6) 0.4044(6) 0.9819(4)
C21_2 C 0.5989(6) 0.4532(7) 0.9975(4)
H19_2 H 0.5240 0.4159 0.9906
C23_2 C 0.7031(6) 0.2932(6) 0.9553(4)
C24_2 C 0.7711(6) 0.2843(6) 0.9167(4)
C25_2 C 0.7671(7) 0.1728(6) 0.8952(4)
H20_2 H 0.8134 0.1649 0.8698
C26_2 C 0.6362(7) 0.0885(7) 0.9436(4)
H21_2 H 0.5875 0.0225 0.9526
C27_2 C 0.6365(7) 0.1935(7) 0.9673(4)
H22_2 H 0.5894 0.1972 0.9927
C3_2 C 0.0884(6) 0.9299(8) 0.8694(4)
O8_2 O 0.4312(5) 0.8123(8) 0.8253(4)
O9 O 0.5167(6) 0.9161(9) 0.8758(4)
C7_2 C 0.3072(7) 0.9257(6) 0.8712(4)
C8_2 C 0.1993(7) 0.8765(7) 0.8575(4)
H11_2 H 0.1997 0.8065 0.8399
C9_2 C 0.4277(6) 0.8819(7) 0.8552(4)
Co4 Co 0.69760(9) 0.92592(8) 0.8646(4)
Co9_2 Co 0.56086(9) 0.78984(8) 0.7764(4)
O19_2 O 0.6719(7) 0.0591(5) 0.8176(4)
C2_2 C 0.9689(7) 0.8797(8) 0.8558(4)
O6_2 O 0.8797(5) 0.9463(6) 0.8601(4)
O7_2 O 0.9670(6) 0.7705(6) 0.8431(5)
Co7_2 Co 0.81757(10) 0.65742(9) 0.8301(4)
O14_2 O 0.7144(5) 0.7959(5) 0.8148(4)
O15_2 O 0.7094(10) 0.8042(7) 0.9163(4)
N5_2 N 0.0771(5) 0.2972(6) 0.6580(4)
C1_3 C 0.7316(11) 0.6988(9) 0.9195(5)
H1_3 H 0.7158 0.6636 0.9466
H2_3 H 0.7707 0.8403 0.7953
O2_3 O 0.6849(8) 0.7588(9) 0.7231(4)
H3_3 H 0.6767 0.8061 0.7010
H4_3 H 0.7614 0.7632 0.7295
O3_3 O 0.9532(5) 0.5340(5) 0.8212(4)
H5_3 H 0.9269 0.4751 0.8071
O5_3 O 0.7722(8) 0.6302(6) 0.8921(4)
N1_3 N 0.4041(6) 0.7894(6) 0.7353(4)
N2_3 N 0.1012(7) 0.6655(7) 0.7424(4)
H7_3 H 0.0845 0.6049 0.7250
H8_3 H 0.1208 0.6365 0.7677
C4_3 C 0.0297(7) 0.9094(6) 0.6467(4)
H9_3 H 0.0658 0.9836 0.6551
C5_3 C 0.0771(6) 0.8020(7) 0.6618(4)
C6_3 C 0.0258(7) 0.6923(7) 0.6489(4)
H10_3 H 0.0583 0.6178 0.6588
C10_3 C 0.1887(7) 0.7991(6) 0.6887(4)
C11_3 C 0.1955(7) 0.7293(7) 0.7263(4)
C12_3 C 0.3072(7) 0.7265(7) 0.7473(4)
H12_3 H 0.3143 0.6762 0.7718
C13_3 C 0.3944(7) 0.8598(7) 0.7006(4)
H13_3 H 0.4616 0.9079 0.6922
C14_3 C 0.2888(8) 0.8645(6) 0.6764(4)
H14_3 H 0.2858 0.9129 0.6513
C15_3 C 0.6078(7) 0.5186(6) 0.7888(4)
O10_3 O 0.5400(6) 0.6073(5) 0.7839(4)
C16_3 C 0.5579(7) 0.4000(6) 0.7736(4)
N4_3 N 0.3758(6) 0.1597(6) 0.6505(4)
H15_3 H 0.4365 0.1566 0.6688
H16_3 H 0.3486 0.0857 0.6461
O11_3 O 0.7124(6) 0.5201(5) 0.8053(4)
C17_3 C 0.6069(6) 0.2890(6) 0.7865(4)
H17_3 H 0.6739 0.2871 0.8055
C18_3 C 0.5573(6) 0.1814(7) 0.7713(4)
C19_3 C 0.4582(6) 0.1847(7) 0.7446(4)
H18_3 H 0.4252 0.1107 0.7344
C20_3 C 0.4044(6) 0.2940(6) 0.7319(4)
C21_3 C 0.4532(7) 0.4011(6) 0.7475(4)
H19_3 H 0.4159 0.4760 0.7406
C22_3 C 0.6054(7) 0.0609(6) 0.7849(4)
C23_3 C 0.2932(6) 0.2969(6) 0.7053(4)
C24_3 C 0.2843(6) 0.2289(6) 0.6667(4)
C25_3 C 0.1728(6) 0.2329(7) 0.6452(4)
H20_3 H 0.1649 0.1866 0.6198
C26_3 C 0.0885(7) 0.3638(7) 0.6936(4)
H21_3 H 0.0225 0.4125 0.7026
C27_3 C 0.1935(7) 0.3635(7) 0.7173(4)
H22_3 H 0.1972 0.4106 0.7427
O20_2 O 0.5781(7) 0.9725(5) 0.7630(4)
C2_3 C 0.8797(8) 0.0311(7) 0.6058(4)
O6_3 O 0.9463(6) 0.1203(5) 0.6101(4)
O18_2 O 0.9161(9) 0.4833(6) 0.6258(4)
C3_3 C 0.9299(8) 0.9116(6) 0.6194(4)
C7_3 C 0.9257(6) 0.6928(7) 0.6212(4)
C8_3 C 0.8765(7) 0.8007(7) 0.6075(4)
H11_3 H 0.8065 0.8003 0.5899
C9_3 C 0.8819(7) 0.5723(6) 0.6052(4)
C3_4 C 0.0701(8) 0.0884(6) 0.1194(4)
O9_2 O 0.0839(9) 0.5167(6) 0.1258(4)
C7_4 C 0.0743(6) 0.3072(7) 0.1212(4)
C8_4 C 0.1235(7) 0.1993(7) 0.1075(4)
H11_4 H 0.1935 0.1997 0.0899
C9_4 C 0.1181(7) 0.4277(6) 0.1052(4)
C2_4 C 0.1203(8) 0.9689(7) 0.1058(4)
O6_4 O 0.0537(6) 0.8797(5) 0.1101(4)
O13_2 O 0.4219(7) 0.0275(5) 0.2630(4)
C1_4 C 0.2684(11) 0.3012(9) 0.4195(5)
H1_4 H 0.2842 0.3364 0.4466
H2_4 H 0.2293 0.1597 0.2953
O2_4 O 0.3151(8) 0.2412(9) 0.2231(4)
H3_4 H 0.3233 0.1939 0.2010
H4_4 H 0.2386 0.2368 0.2295
O3_4 O 0.0468(5) 0.4660(5) 0.3212(4)
H5_4 H 0.0731 0.5249 0.3071
O5_4 O 0.2278(8) 0.3698(6) 0.3921(4)
N1_4 N 0.5959(6) 0.2106(6) 0.2353(4)
N2_4 N 0.8988(7) 0.3345(7) 0.2424(4)
H7_4 H 0.9155 0.3951 0.2250
H8_4 H 0.8792 0.3635 0.2677
C4_4 C 0.9703(7) 0.0906(6) 0.1467(4)
H9_4 H 0.9342 0.0164 0.1551
C5_4 C 0.9229(6) 0.1980(7) 0.1618(4)
C6_4 C 0.9742(7) 0.3077(7) 0.1489(4)
H10_4 H 0.9417 0.3822 0.1588
C10_4 C 0.8113(7) 0.2009(6) 0.1887(4)
C11_4 C 0.8045(7) 0.2707(7) 0.2263(4)
C12_4 C 0.6928(7) 0.2735(7) 0.2473(4)
H12_4 H 0.6857 0.3238 0.2718
C13_4 C 0.6056(7) 0.1402(7) 0.2006(4)
H13_4 H 0.5384 0.0921 0.1922
C14_4 C 0.7112(8) 0.1355(6) 0.1764(4)
H14_4 H 0.7142 0.0871 0.1513
C15_4 C 0.3922(7) 0.4814(6) 0.2888(4)
N3_2 N 0.9229(5) 0.7028(6) 0.1580(4)
O10_4 O 0.4600(6) 0.3927(5) 0.2839(4)
C16_4 C 0.4421(7) 0.6000(6) 0.2736(4)
N4_4 N 0.6242(6) 0.8403(6) 0.1505(4)
H15_4 H 0.5635 0.8434 0.1688
H16_4 H 0.6514 0.9143 0.1461
O11_4 O 0.2876(6) 0.4799(5) 0.3053(4)
C17_4 C 0.3931(6) 0.7110(6) 0.2865(4)
H17_4 H 0.3261 0.7129 0.3055
C18_4 C 0.4427(6) 0.8186(7) 0.2713(4)
C19_4 C 0.5418(6) 0.8153(7) 0.2446(4)
H18_4 H 0.5748 0.8893 0.2344
C20_4 C 0.5956(6) 0.7060(6) 0.2319(4)
C21_4 C 0.5468(7) 0.5989(6) 0.2475(4)
H19_4 H 0.5841 0.5240 0.2406
C22_4 C 0.3946(7) 0.9391(6) 0.2849(4)
C23_4 C 0.7068(6) 0.7031(6) 0.2053(4)
C24_4 C 0.7157(6) 0.7711(6) 0.1667(4)
C25_4 C 0.8272(6) 0.7671(7) 0.1452(4)
H20_4 H 0.8351 0.8134 0.1198
C26_4 C 0.9115(7) 0.6362(7) 0.1936(4)
H21_4 H 0.9775 0.5875 0.2026
C27_4 C 0.8065(7) 0.6365(7) 0.2173(4)
H22_4 H 0.8028 0.5894 0.2427
H6 H 0.5434 0.9733 0.5659
H6_2 H 0.4566 0.0267 0.0659
H6_3 H 0.0267 0.5434 0.8159
H6_4 H 0.9733 0.4566 0.3159
loop_
_geom_bond_atom_site_label_1
_geom_bond_atom_site_label_2
_geom_bond_site_symmetry_1
_geom_bond_site_symmetry_2
Co1 O6 1_555 1_555
C2 O6 1_555 1_555
O7 C2 1_555 1_555
Co7 O7 1_555 1_555
O14 Co1 1_555 1_555
O15 Co1 1_555 1_555
O18 Co1 1_555 1_555
Co7 O14 1_555 1_555
O8 C9 1_555 1_555
O18 C9 1_555 1_555
C8 C3 1_555 1_555
H11 C8 1_555 1_555
C9 C7 1_555 1_555
Co9 O8 1_555 1_555
C7 C8 1_555 1_555
Co2 O1 1_555 1_555
C1 H1 1_555 1_555
O1 H2 1_555 1_555
Co3 O1 1_555 1_555
O2 Co3 1_555 1_555
H3 O2 1_555 1_555
H4 O2 1_555 1_555
O3 Co2 1_555 1_555
H5 O3 1_555 1_555
O4 C1 1_555 1_555
O5 Co2 1_555 1_555
N1 Co3 1_555 1_555
N2 H7 1_555 1_555
H8 N2 1_555 1_555
H9 C4 1_555 1_555
C5 C4 1_555 1_555
C6 C5 1_555 1_555
H10 C6 1_555 1_555
C10 C5 1_555 1_555
C11 N2 1_555 1_555
C12 N1 1_555 1_555
H12 C12 1_555 1_555
C13 N1 1_555 1_555
H13 C13 1_555 1_555
C14 C10 1_555 1_555
H14 C14 1_555 1_555
C15 O10 1_555 1_555
N5 C25 1_555 1_555
O10 Co3 1_555 1_555
C16 C15 1_555 1_555
N4 H15 1_555 1_555
H16 N4 1_555 1_555
O11 Co2 1_555 1_555
C17 C16 1_555 1_555
H17 C17 1_555 1_555
O12 C22 1_555 1_555
C18 C17 1_555 1_555
C19 C18 1_555 1_555
H18 C19 1_555 1_555
C20 C19 1_555 1_555
C21 C16 1_555 1_555
H19 C21 1_555 1_555
C22 C18 1_555 1_555
C23 C20 1_555 1_555
C24 N4 1_555 1_555
C25 C24 1_555 1_555
H20 C25 1_555 1_555
C26 N5 1_555 1_555
H21 C26 1_555 1_555
C27 C23 1_555 1_555
H22 C27 1_555 1_555
Co6 O1 1_555 1_555
O16 Co2 1_555 1_555
O17 Co3 1_555 1_555
O20 Co3 1_555 1_555
C1 O5 1_555 1_555
O4 Co6 1_555 1_555
C10 C11 1_555 1_555
C11 C12 1_555 1_555
C13 C14 1_555 1_555
C15 O11 1_555 1_555
C20 C21 1_555 1_555
C23 C24 1_555 1_555
C26 C27 1_555 1_555
Co8 O13 1_555 1_555
Co2_2 O1_2 1_555 1_555
C1_2 H1_2 1_555 1_555
O1_2 H2_2 1_555 1_555
Co8 O1_2 1_555 1_555
O3_2 Co2_2 1_555 1_555
H5_2 O3_2 1_555 1_555
O4_2 C1_2 1_555 1_555
O5_2 Co2_2 1_555 1_555
C15_2 O10_2 1_555 1_555
O10_2 Co8 1_555 1_555
C16_2 C15_2 1_555 1_555
O11_2 Co2_2 1_555 1_555
C17_2 C16_2 1_555 1_555
H17_2 C17_2 1_555 1_555
O12_2 C22_2 1_555 1_555
C18_2 C17_2 1_555 1_555
C22_2 C18_2 1_555 1_555
Co5 O1_2 1_555 1_555
O16_2 Co2_2 1_555 1_555
O17_2 Co8 1_555 1_555
C1_2 O5_2 1_555 1_555
O4_2 Co5 1_555 1_555
C15_2 O11_2 1_555 1_555
H3_2 O2_2 1_555 1_555
H4_2 O2_2 1_555 1_555
N2_2 H7_2 1_555 1_555
H9_2 C4_2 1_555 1_555
C5_2 C4_2 1_555 1_555
C6_2 C5_2 1_555 1_555
H10_2 C6_2 1_555 1_555
C10_2 C5_2 1_555 1_555
C11_2 N2_2 1_555 1_555
C12_2 N1_2 1_555 1_555
C13_2 N1_2 1_555 1_555
H13_2 C13_2 1_555 1_555
C14_2 C10_2 1_555 1_555
H14_2 C14_2 1_555 1_555
N3 C25_2 1_555 1_555
N4_2 H15_2 1_555 1_555
H16_2 N4_2 1_555 1_555
H18_2 C19_2 1_555 1_555
C20_2 C19_2 1_555 1_555
H19_2 C21_2 1_555 1_555
C23_2 C20_2 1_555 1_555
C24_2 N4_2 1_555 1_555
C25_2 C24_2 1_555 1_555
H20_2 C25_2 1_555 1_555
C26_2 N3 1_555 1_555
H21_2 C26_2 1_555 1_555
C27_2 C23_2 1_555 1_555
H22_2 C27_2 1_555 1_555
C10_2 C11_2 1_555 1_555
C11_2 C12_2 1_555 1_555
C13_2 C14_2 1_555 1_555
C20_2 C21_2 1_555 1_555
C23_2 C24_2 1_555 1_555
C26_2 C27_2 1_555 1_555
O8_2 C9_2 1_555 1_555
O9 C9_2 1_555 1_555
C8_2 C3_2 1_555 1_555
H11_2 C8_2 1_555 1_555
C9_2 C7_2 1_555 1_555
Co4 O9 1_555 1_555
Co9_2 O8_2 1_555 1_555
C7_2 C8_2 1_555 1_555
Co4 O6_2 1_555 1_555
C2_2 O6_2 1_555 1_555
O7_2 C2_2 1_555 1_555
Co7_2 O7_2 1_555 1_555
O14_2 Co4 1_555 1_555
O15_2 Co4 1_555 1_555
Co7_2 O14_2 1_555 1_555
C1_3 H1_3 1_555 1_555
O14_2 H2_3 1_555 1_555
Co9_2 O14_2 1_555 1_555
O2_3 Co9_2 1_555 1_555
H3_3 O2_3 1_555 1_555
H4_3 O2_3 1_555 1_555
O3_3 Co7_2 1_555 1_555
H5_3 O3_3 1_555 1_555
O15_2 C1_3 1_555 1_555
O5_3 Co7_2 1_555 1_555
N1_3 Co9_2 1_555 1_555
N2_3 H7_3 1_555 1_555
H8_3 N2_3 1_555 1_555
H9_3 C4_3 1_555 1_555
C5_3 C4_3 1_555 1_555
C6_3 C5_3 1_555 1_555
H10_3 C6_3 1_555 1_555
C10_3 C5_3 1_555 1_555
C11_3 N2_3 1_555 1_555
C12_3 N1_3 1_555 1_555
H12_3 C12_3 1_555 1_555
C13_3 N1_3 1_555 1_555
H13_3 C13_3 1_555 1_555
C14_3 C10_3 1_555 1_555
H14_3 C14_3 1_555 1_555
C15_3 O10_3 1_555 1_555
N5_2 C25_3 1_555 1_555
O10_3 Co9_2 1_555 1_555
C16_3 C15_3 1_555 1_555
N4_3 H15_3 1_555 1_555
H16_3 N4_3 1_555 1_555
O11_3 Co7_2 1_555 1_555
C17_3 C16_3 1_555 1_555
H17_3 C17_3 1_555 1_555
O19_2 C22_3 1_555 1_555
C18_3 C17_3 1_555 1_555
C19_3 C18_3 1_555 1_555
H18_3 C19_3 1_555 1_555
C20_3 C19_3 1_555 1_555
C21_3 C16_3 1_555 1_555
H19_3 C21_3 1_555 1_555
C22_3 C18_3 1_555 1_555
C23_3 C20_3 1_555 1_555
C24_3 N4_3 1_555 1_555
C25_3 C24_3 1_555 1_555
H20_3 C25_3 1_555 1_555
C26_3 N5_2 1_555 1_555
H21_3 C26_3 1_555 1_555
C27_3 C23_3 1_555 1_555
H22_3 C27_3 1_555 1_555
O20_2 Co9_2 1_555 1_555
C1_3 O5_3 1_555 1_555
C10_3 C11_3 1_555 1_555
C11_3 C12_3 1_555 1_555
C13_3 C14_3 1_555 1_555
C15_3 O11_3 1_555 1_555
C20_3 C21_3 1_555 1_555
C23_3 C24_3 1_555 1_555
C26_3 C27_3 1_555 1_555
Co6 O6_3 1_555 1_555
C2_3 O6_3 1_555 1_555
O16 C2_3 1_555 1_555
O18_2 Co6 1_555 1_555
O17 C9_3 1_555 1_555
O18_2 C9_3 1_555 1_555
C8_3 C3_3 1_555 1_555
H11_3 C8_3 1_555 1_555
C9_3 C7_3 1_555 1_555
C7_3 C8_3 1_555 1_555
O17_2 C9_4 1_555 1_555
O9_2 C9_4 1_555 1_555
C8_4 C3_4 1_555 1_555
H11_4 C8_4 1_555 1_555
C9_4 C7_4 1_555 1_555
Co5 O9_2 1_555 1_555
C7_4 C8_4 1_555 1_555
Co5 O6_4 1_555 1_555
C2_4 O6_4 1_555 1_555
O16_2 C2_4 1_555 1_555
Co9 O13_2 1_555 1_555
C1_4 H1_4 1_555 1_555
O14 H2_4 1_555 1_555
Co9 O14 1_555 1_555
O2_4 Co9 1_555 1_555
H3_4 O2_4 1_555 1_555
H4_4 O2_4 1_555 1_555
O3_4 Co7 1_555 1_555
H5_4 O3_4 1_555 1_555
O15 C1_4 1_555 1_555
O5_4 Co7 1_555 1_555
N1_4 Co9 1_555 1_555
N2_4 H7_4 1_555 1_555
H8_4 N2_4 1_555 1_555
H9_4 C4_4 1_555 1_555
C5_4 C4_4 1_555 1_555
C6_4 C5_4 1_555 1_555
H10_4 C6_4 1_555 1_555
C10_4 C5_4 1_555 1_555
C11_4 N2_4 1_555 1_555
C12_4 N1_4 1_555 1_555
H12_4 C12_4 1_555 1_555
C13_4 N1_4 1_555 1_555
H13_4 C13_4 1_555 1_555
C14_4 C10_4 1_555 1_555
H14_4 C14_4 1_555 1_555
C15_4 O10_4 1_555 1_555
N3_2 C25_4 1_555 1_555
O10_4 Co9 1_555 1_555
C16_4 C15_4 1_555 1_555
N4_4 H15_4 1_555 1_555
H16_4 N4_4 1_555 1_555
O11_4 Co7 1_555 1_555
C17_4 C16_4 1_555 1_555
H17_4 C17_4 1_555 1_555
O19 C22_4 1_555 1_555
C18_4 C17_4 1_555 1_555
C19_4 C18_4 1_555 1_555
H18_4 C19_4 1_555 1_555
C20_4 C19_4 1_555 1_555
C21_4 C16_4 1_555 1_555
H19_4 C21_4 1_555 1_555
C22_4 C18_4 1_555 1_555
C23_4 C20_4 1_555 1_555
C24_4 N4_4 1_555 1_555
C25_4 C24_4 1_555 1_555
H20_4 C25_4 1_555 1_555
C26_4 N3_2 1_555 1_555
H21_4 C26_4 1_555 1_555
C27_4 C23_4 1_555 1_555
H22_4 C27_4 1_555 1_555
C1_4 O5_4 1_555 1_555
C10_4 C11_4 1_555 1_555
C11_4 C12_4 1_555 1_555
C13_4 C14_4 1_555 1_555
C15_4 O11_4 1_555 1_555
C20_4 C21_4 1_555 1_555
C23_4 C24_4 1_555 1_555
C26_4 C27_4 1_555 1_555

#END
