
###############################################################################
#
# This file contains modified crystal structure data generated from the
# MOF subset of the Cambridge Structural Database (CSD) v543 
# hosted by the Cambridge Crystallographic Data Centre (CCDC).
#
# This work is licensed under the Creative Commons
# Attribution-NonCommercial-ShareAlike 4.0 International License.
# To view a copy of this license, visit
# http://creativecommons.org/licenses/by-nc-sa/4.0/
# or send a letter to
# Creative Commons, PO Box 1866, Mountain View, CA 94042, USA.
#
# CIF created using the CSD Python API on 29 September 2022
# The structure has been converted into the P1 space group
# The structure has a 3D framework
# The original CSD entry CUNGEY01 is in the orthorhombic crystal system
# The framework has been calculated to contain at least 10.0% void space
# The void calculation uses a probe of radius 1.32A, grid spacing 0.4
# H atom positions have been added when not included in the experimental data
#
###############################################################################

data_CUNGEY01
_chemical_formula_moiety         '(C90 H86 N8 O16 Zn2)n'
_symmetry_cell_setting           triclinic
_symmetry_space_group_name_H-M   'P 1'
_symmetry_Int_Tables_number      1
_space_group_name_Hall           'P 1'
loop_
_symmetry_equiv_pos_site_id
_symmetry_equiv_pos_as_xyz
1 x,y,z
_cell_length_a                   8.972(4)
_cell_length_b                   16.235(7)
_cell_length_c                   14.772(6)
_cell_angle_alpha                90
_cell_angle_beta                 90
_cell_angle_gamma                90
_cell_volume                     2151.7
loop_
_atom_site_label
_atom_site_type_symbol
_atom_site_fract_x
_atom_site_fract_y
_atom_site_fract_z
Zn1 Zn 0.08823(6) 0.7500 0.2500
N1 N 0.2425(3) 0.69281(16) 0.33372(16)
C4 C 0.3589(4) 0.6639(2) 0.4747(2)
H2 H 0.3720 0.6778 0.5353
C6 C 0.2642(4) 0.7090(2) 0.4212(2)
H3 H 0.2130 0.7529 0.4471
C7 C 0.4348(4) 0.5975(2) 0.4384(3)
C9 C 0.5351(5) 0.5429(2) 0.4953(3)
C10 C 0.4133(5) 0.5815(3) 0.3481(3)
H5 H 0.4634 0.5382 0.3204
C11 C 0.3174(5) 0.6299(3) 0.2989(3)
H6 H 0.3043 0.6180 0.2378
N2 N 0.7575(3) 0.30719(16) 0.66628(16)
C16 C 0.6411(4) 0.3361(2) 0.5253(2)
H8 H 0.6280 0.3222 0.4647
C17 C 0.7358(4) 0.2910(2) 0.5788(2)
H9 H 0.7870 0.2471 0.5529
C18 C 0.5652(4) 0.4025(2) 0.5616(3)
C19 C 0.4649(5) 0.4571(2) 0.5047(3)
C20 C 0.5867(5) 0.4185(3) 0.6519(3)
H10 H 0.5366 0.4618 0.6796
C21 C 0.6826(5) 0.3701(3) 0.7011(3)
H11 H 0.6957 0.3820 0.7622
Zn3 Zn 0.91177(6) 0.2500 0.7500
N3 N 0.2425(3) 0.80719(16) 0.16628(16)
H15 H 0.548809 0.570112 0.562165
H16 H 0.643512 0.537427 0.462698
H17 H 0.451191 0.429888 0.437835
H18 H 0.356488 0.462573 0.537302
N2_2 N 0.7575(3) 0.19281(16) 0.83372(16)
C16_2 C 0.6411(4) 0.1639(2) 0.9747(2)
C17_2 C 0.7358(4) 0.2090(2) 0.9212(2)
H9_2 H 0.7870 0.2529 0.9471
C18_2 C 0.5652(4) 0.0975(2) 0.9384(3)
C19_2 C 0.4649(5) 0.0429(2) 0.9953(3)
C20_2 C 0.5867(5) 0.0815(3) 0.8481(3)
H10_2 H 0.5366 0.0382 0.8204
C21_2 C 0.6826(5) 0.1299(3) 0.7989(3)
H11_2 H 0.6957 0.1180 0.7378
H18_2 H 0.356488 0.0374266 0.962698
C4_2 C 0.3589(4) 0.8361(2) 0.0253(2)
C6_2 C 0.2642(4) 0.7910(2) 0.0788(2)
H3_2 H 0.2130 0.7471 0.0529
C7_2 C 0.4348(4) 0.9025(2) 0.0616(3)
C9_2 C 0.5351(5) 0.9571(2) 0.0047(3)
C10_2 C 0.4133(5) 0.9185(3) 0.1519(3)
H5_2 H 0.4634 0.9618 0.1796
C11_2 C 0.3174(5) 0.8701(3) 0.2011(3)
H6_2 H 0.3043 0.8820 0.2622
H16_2 H 0.643512 0.962573 0.0373017
O1 O 0.9988(3) 0.67200(15) 0.16609(17)
C1 C 0.9188(4) 0.6225(2) 0.2123(3)
C2 C 0.8319(3) 0.5585(2) 0.1611(2)
C3 C 0.8319(4) 0.5580(2) 0.0669(2)
H1 H 0.8876 0.5971 0.0357
C5 C 0.7500 0.5000 0.0183(3)
O2 O 0.9127(3) 0.6249(2) 0.2956(2)
C8 C 0.7500 0.5000 0.2071(3)
H4 H 0.7500 0.5000 0.2701
O3 O 0.5012(3) 0.32800(15) 0.16609(17)
C13 C 0.5812(4) 0.3775(2) 0.2123(3)
C14 C 0.6681(3) 0.4415(2) 0.1611(2)
C15 C 0.6681(4) 0.4420(2) 0.0669(2)
H7 H 0.6124 0.4029 0.0357
O4 O 0.5873(3) 0.3751(2) 0.2956(2)
Zn2 Zn 0.41177(6) 0.2500 0.2500
O5 O 0.9988(3) 0.82800(15) 0.33391(17)
N1_2 N 0.2575(3) 0.30719(16) 0.33372(16)
C4_3 C 0.1411(4) 0.3361(2) 0.4747(2)
H2_2 H 0.1280 0.3222 0.5353
C6_3 C 0.2358(4) 0.2910(2) 0.4212(2)
H3_3 H 0.2870 0.2471 0.4471
C7_3 C 0.0652(4) 0.4025(2) 0.4384(3)
C10_3 C 0.0867(5) 0.4185(3) 0.3481(3)
H5_3 H 0.0366 0.4618 0.3204
C11_3 C 0.1826(5) 0.3701(3) 0.2989(3)
H6_3 H 0.1957 0.3820 0.2378
C19_3 C 0.0351(5) 0.5429(2) 0.5047(3)
O5_2 O 0.5012(3) 0.17200(15) 0.33391(17)
N3_2 N 0.2575(3) 0.19281(16) 0.16628(16)
H17_2 H 0.0488089 0.570112 0.437835
H18_3 H 0.143512 0.537427 0.537302
C5_2 C 0.7500 0.0000 0.4817(3)
C8_2 C 0.7500 0.0000 0.2929(3)
H4_2 H 0.7500 0.0000 0.2299
C12 C 0.7500 0.0000 0.5853(3)
C13_2 C 0.5812(4) 0.1225(2) 0.2877(3)
C14_2 C 0.6681(3) 0.0585(2) 0.3389(2)
C15_2 C 0.6681(4) 0.0580(2) 0.4331(2)
H7_2 H 0.6124 0.0971 0.4643
O4_2 O 0.5873(3) 0.1249(2) 0.2044(2)
H12 H 0.863331 0.0087653 0.609874
H13 H 0.679598 0.0498571 0.609874
C1_2 C 0.9188(4) 0.8775(2) 0.2877(3)
C2_2 C 0.8319(3) 0.9415(2) 0.3389(2)
C3_2 C 0.8319(4) 0.9420(2) 0.4331(2)
H1_2 H 0.8876 0.9029 0.4643
C5_3 C 0.7500 1.0000 0.4817(3)
O2_2 O 0.9127(3) 0.8751(2) 0.2044(2)
C8_3 C 0.7500 1.0000 0.2929(3)
H4_3 H 0.7500 1.0000 0.2299
C12_2 C 0.7500 1.0000 0.5853(3)
H14 H 0.70707 0.941378 0.609874
C4_4 C 0.1411(4) 0.1639(2) 0.0253(2)
C6_4 C 0.2358(4) 0.2090(2) 0.0788(2)
H3_4 H 0.2870 0.2529 0.0529
C7_4 C 0.0652(4) 0.0975(2) 0.0616(3)
C10_4 C 0.0867(5) 0.0815(3) 0.1519(3)
H5_4 H 0.0366 0.0382 0.1796
C11_4 C 0.1826(5) 0.1299(3) 0.2011(3)
H6_4 H 0.1957 0.1180 0.2622
H14_2 H 0.79293 0.0586224 0.609874
H12_2 H 0.636669 0.991235 0.609874
H13_2 H 0.820402 0.950143 0.609874
H17_3 H 0.0488089 0.929888 0.0621651
C12_3 C 0.7500 0.5000 0.9147(3)
H12_3 H 0.863331 0.491235 0.890126
H13_3 H 0.679598 0.450143 0.890126
H14_3 H 0.70707 0.558622 0.890126
H12_4 H 0.636669 0.508765 0.890126
H13_4 H 0.820402 0.549857 0.890126
H14_4 H 0.79293 0.441378 0.890126
C9_3 C 0.9649(5) 0.4571(2) 0.4953(3)
N2_3 N 0.7425(3) 0.69281(16) 0.66628(16)
C16_3 C 0.8589(4) 0.6639(2) 0.5253(2)
H8_2 H 0.8720 0.6778 0.4647
C17_3 C 0.7642(4) 0.7090(2) 0.5788(2)
H9_3 H 0.7130 0.7529 0.5529
C18_3 C 0.9348(4) 0.5975(2) 0.5616(3)
C20_3 C 0.9133(5) 0.5815(3) 0.6519(3)
H10_3 H 0.9634 0.5382 0.6796
C21_3 C 0.8174(5) 0.6299(3) 0.7011(3)
H11_3 H 0.8043 0.6180 0.7622
Zn3_2 Zn 0.58823(6) 0.7500 0.7500
H15_2 H 0.951191 0.429888 0.562165
H16_3 H 0.856488 0.462573 0.462698
H15_3 H 0.951191 0.0701124 0.937835
N2_4 N 0.7425(3) 0.80719(16) 0.83372(16)
C16_4 C 0.8589(4) 0.8361(2) 0.9747(2)
C17_4 C 0.7642(4) 0.7910(2) 0.9212(2)
H9_4 H 0.7130 0.7471 0.9471
C18_4 C 0.9348(4) 0.9025(2) 0.9384(3)
C20_4 C 0.9133(5) 0.9185(3) 0.8481(3)
H10_4 H 0.9634 0.9618 0.8204
C21_4 C 0.8174(5) 0.8701(3) 0.7989(3)
H11_4 H 0.8043 0.8820 0.7378
O1_2 O 0.0012(3) 0.32800(15) 0.83391(17)
C1_3 C 0.0812(4) 0.3775(2) 0.7877(3)
C2_3 C 0.1681(3) 0.4415(2) 0.8389(2)
C3_3 C 0.1681(4) 0.4420(2) 0.9331(2)
H1_3 H 0.1124 0.4029 0.9643
C5_4 C 0.2500 0.5000 0.9817(3)
O2_3 O 0.0873(3) 0.3751(2) 0.7044(2)
C8_4 C 0.2500 0.5000 0.7929(3)
H4_4 H 0.2500 0.5000 0.7299
O3_2 O 0.4988(3) 0.67200(15) 0.83391(17)
C13_3 C 0.4188(4) 0.6225(2) 0.7877(3)
C14_3 C 0.3319(3) 0.5585(2) 0.8389(2)
C15_3 C 0.3319(4) 0.5580(2) 0.9331(2)
H7_3 H 0.3876 0.5971 0.9643
O4_3 O 0.4127(3) 0.6249(2) 0.7044(2)
O5_3 O 0.0012(3) 0.17200(15) 0.66609(17)
O5_4 O 0.4988(3) 0.82800(15) 0.66609(17)
C1_4 C 0.0812(4) 0.1225(2) 0.7123(3)
C2_4 C 0.1681(3) 0.0585(2) 0.6611(2)
C3_4 C 0.1681(4) 0.0580(2) 0.5669(2)
H1_4 H 0.1124 0.0971 0.5357
C5_5 C 0.2500 -0.0000 0.5183(3)
O2_4 O 0.0873(3) 0.1249(2) 0.7956(2)
C8_5 C 0.2500 -0.0000 0.7071(3)
H4_5 H 0.2500 -0.0000 0.7701
C12_4 C 0.2500 -0.0000 0.4147(3)
H14_5 H 0.29293 0.0586224 0.390126
C5_6 C 0.2500 1.0000 0.5183(3)
C8_6 C 0.2500 1.0000 0.7071(3)
H4_6 H 0.2500 1.0000 0.7701
C12_5 C 0.2500 1.0000 0.4147(3)
C13_4 C 0.4188(4) 0.8775(2) 0.7123(3)
C14_4 C 0.3319(3) 0.9415(2) 0.6611(2)
C15_4 C 0.3319(4) 0.9420(2) 0.5669(2)
H7_4 H 0.3876 0.9029 0.5357
O4_4 O 0.4127(3) 0.8751(2) 0.7956(2)
H12_5 H 0.136669 0.991235 0.390126
H13_5 H 0.320402 0.950143 0.390126
H12_6 H 0.363331 0.0087653 0.390126
H13_6 H 0.179598 0.0498571 0.390126
H14_6 H 0.20707 0.941378 0.390126
H8_3 H 0.6280 0.1778 0.0353
H17_4 H 0.451191 0.0701124 0.0621651
H2_3 H 0.3720 0.8222 0.9647
H15_4 H 0.548809 0.929888 0.937835
H2_4 H 0.1280 0.1778 0.9647
C19_4 C 0.0351(5) 0.9571(2) 0.9953(3)
H18_4 H 0.143512 0.962573 0.962698
C9_4 C 0.9649(5) 0.0429(2) 0.0047(3)
H16_4 H 0.856488 0.0374266 0.0373017
H8_4 H 0.8720 0.8222 0.0353
C12_6 C 0.2500 0.5000 0.0853(3)
H12_7 H 0.136669 0.508765 0.109874
H13_7 H 0.320402 0.549857 0.109874
H14_7 H 0.29293 0.441378 0.109874
H12_8 H 0.363331 0.491235 0.109874
H13_8 H 0.179598 0.450143 0.109874
H14_8 H 0.20707 0.558622 0.109874
loop_
_geom_bond_atom_site_label_1
_geom_bond_atom_site_label_2
_geom_bond_site_symmetry_1
_geom_bond_site_symmetry_2
N1 Zn1 1_555 1_555
C4 H2 1_555 1_555
C6 N1 1_555 1_555
H3 C6 1_555 1_555
C7 C4 1_555 1_555
C9 C7 1_555 1_555
C10 C7 1_555 1_555
H5 C10 1_555 1_555
C11 N1 1_555 1_555
H6 C11 1_555 1_555
N2 C17 1_555 1_555
C16 H8 1_555 1_555
C17 C16 1_555 1_555
H9 C17 1_555 1_555
C18 C16 1_555 1_555
C19 C9 1_555 1_555
C20 C18 1_555 1_555
H10 C20 1_555 1_555
C21 N2 1_555 1_555
H11 C21 1_555 1_555
Zn3 N2 1_555 1_555
N3 Zn1 1_555 1_555
C4 C6 1_555 1_555
C10 C11 1_555 1_555
C18 C19 1_555 1_555
C20 C21 1_555 1_555
C9 H15 1_555 1_555
C9 H16 1_555 1_555
C19 H17 1_555 1_555
C19 H18 1_555 1_555
N2_2 C17_2 1_555 1_555
C17_2 C16_2 1_555 1_555
H9_2 C17_2 1_555 1_555
C18_2 C16_2 1_555 1_555
C20_2 C18_2 1_555 1_555
H10_2 C20_2 1_555 1_555
C21_2 N2_2 1_555 1_555
H11_2 C21_2 1_555 1_555
Zn3 N2_2 1_555 1_555
C18_2 C19_2 1_555 1_555
C20_2 C21_2 1_555 1_555
C19_2 H18_2 1_555 1_555
C6_2 N3 1_555 1_555
H3_2 C6_2 1_555 1_555
C7_2 C4_2 1_555 1_555
C9_2 C7_2 1_555 1_555
C10_2 C7_2 1_555 1_555
H5_2 C10_2 1_555 1_555
C11_2 N3 1_555 1_555
H6_2 C11_2 1_555 1_555
C4_2 C6_2 1_555 1_555
C10_2 C11_2 1_555 1_555
C9_2 H16_2 1_555 1_555
O1 C1 1_555 1_555
C1 C2 1_555 1_555
C2 C3 1_555 1_555
C3 H1 1_555 1_555
C5 C3 1_555 1_555
O2 C1 1_555 1_555
C8 C2 1_555 1_555
H4 C8 1_555 1_555
O3 C13 1_555 1_555
C13 C14 1_555 1_555
C14 C8 1_555 1_555
C15 C5 1_555 1_555
H7 C15 1_555 1_555
O4 C13 1_555 1_555
Zn2 O3 1_555 1_555
C14 C15 1_555 1_555
N1_2 Zn2 1_555 1_555
C4_3 H2_2 1_555 1_555
C6_3 N1_2 1_555 1_555
H3_3 C6_3 1_555 1_555
C7_3 C4_3 1_555 1_555
C10_3 C7_3 1_555 1_555
H5_3 C10_3 1_555 1_555
C11_3 N1_2 1_555 1_555
H6_3 C11_3 1_555 1_555
O5_2 Zn2 1_555 1_555
N3_2 Zn2 1_555 1_555
C4_3 C6_3 1_555 1_555
C10_3 C11_3 1_555 1_555
C19_3 H17_2 1_555 1_555
C19_3 H18_3 1_555 1_555
H4_2 C8_2 1_555 1_555
C12 C5_2 1_555 1_555
O5_2 C13_2 1_555 1_555
C13_2 C14_2 1_555 1_555
C14_2 C8_2 1_555 1_555
C15_2 C5_2 1_555 1_555
H7_2 C15_2 1_555 1_555
O4_2 C13_2 1_555 1_555
C14_2 C15_2 1_555 1_555
C12 H12 1_555 1_555
C12 H13 1_555 1_555
O5 C1_2 1_555 1_555
C1_2 C2_2 1_555 1_555
C2_2 C3_2 1_555 1_555
C3_2 H1_2 1_555 1_555
C5_3 C3_2 1_555 1_555
O2_2 C1_2 1_555 1_555
C8_3 C2_2 1_555 1_555
H4_3 C8_3 1_555 1_555
C12_2 C5_3 1_555 1_555
C12_2 H14 1_555 1_555
C6_4 N3_2 1_555 1_555
H3_4 C6_4 1_555 1_555
C7_4 C4_4 1_555 1_555
C10_4 C7_4 1_555 1_555
H5_4 C10_4 1_555 1_555
C11_4 N3_2 1_555 1_555
H6_4 C11_4 1_555 1_555
C4_4 C6_4 1_555 1_555
C10_4 C11_4 1_555 1_555
C12 H14_2 1_555 1_555
C12_2 H12_2 1_555 1_555
C12_2 H13_2 1_555 1_555
C12_3 H12_3 1_555 1_555
C12_3 H13_3 1_555 1_555
C12_3 H14_3 1_555 1_555
C12_3 H12_4 1_555 1_555
C12_3 H13_4 1_555 1_555
C12_3 H14_4 1_555 1_555
N2_3 C17_3 1_555 1_555
C16_3 H8_2 1_555 1_555
C17_3 C16_3 1_555 1_555
H9_3 C17_3 1_555 1_555
C18_3 C16_3 1_555 1_555
C20_3 C18_3 1_555 1_555
H10_3 C20_3 1_555 1_555
C21_3 N2_3 1_555 1_555
H11_3 C21_3 1_555 1_555
Zn3_2 N2_3 1_555 1_555
C20_3 C21_3 1_555 1_555
C9_3 H15_2 1_555 1_555
C9_3 H16_3 1_555 1_555
N2_4 C17_4 1_555 1_555
C17_4 C16_4 1_555 1_555
H9_4 C17_4 1_555 1_555
C18_4 C16_4 1_555 1_555
C20_4 C18_4 1_555 1_555
H10_4 C20_4 1_555 1_555
C21_4 N2_4 1_555 1_555
H11_4 C21_4 1_555 1_555
Zn3_2 N2_4 1_555 1_555
C20_4 C21_4 1_555 1_555
O1_2 C1_3 1_555 1_555
C1_3 C2_3 1_555 1_555
C2_3 C3_3 1_555 1_555
C3_3 H1_3 1_555 1_555
C5_4 C3_3 1_555 1_555
O2_3 C1_3 1_555 1_555
C8_4 C2_3 1_555 1_555
H4_4 C8_4 1_555 1_555
O3_2 C13_3 1_555 1_555
C13_3 C14_3 1_555 1_555
C14_3 C8_4 1_555 1_555
C15_3 C5_4 1_555 1_555
H7_3 C15_3 1_555 1_555
O4_3 C13_3 1_555 1_555
Zn3_2 O3_2 1_555 1_555
C14_3 C15_3 1_555 1_555
O5_4 Zn3_2 1_555 1_555
O5_3 C1_4 1_555 1_555
C1_4 C2_4 1_555 1_555
C2_4 C3_4 1_555 1_555
C3_4 H1_4 1_555 1_555
C5_5 C3_4 1_555 1_555
O2_4 C1_4 1_555 1_555
C8_5 C2_4 1_555 1_555
H4_5 C8_5 1_555 1_555
C12_4 C5_5 1_555 1_555
C12_4 H14_5 1_555 1_555
H4_6 C8_6 1_555 1_555
C12_5 C5_6 1_555 1_555
O5_4 C13_4 1_555 1_555
C13_4 C14_4 1_555 1_555
C14_4 C8_6 1_555 1_555
C15_4 C5_6 1_555 1_555
H7_4 C15_4 1_555 1_555
O4_4 C13_4 1_555 1_555
C14_4 C15_4 1_555 1_555
C12_5 H12_5 1_555 1_555
C12_5 H13_5 1_555 1_555
C12_4 H12_6 1_555 1_555
C12_4 H13_6 1_555 1_555
C12_5 H14_6 1_555 1_555
C19_4 H18_4 1_555 1_555
C9_4 H16_4 1_555 1_555
C12_6 H12_7 1_555 1_555
C12_6 H13_7 1_555 1_555
C12_6 H14_7 1_555 1_555
C12_6 H12_8 1_555 1_555
C12_6 H13_8 1_555 1_555
C12_6 H14_8 1_555 1_555

#END
