
###############################################################################
#
# This file contains modified crystal structure data generated from the
# MOF subset of the Cambridge Structural Database (CSD) v543 
# hosted by the Cambridge Crystallographic Data Centre (CCDC).
#
# This work is licensed under the Creative Commons
# Attribution-NonCommercial-ShareAlike 4.0 International License.
# To view a copy of this license, visit
# http://creativecommons.org/licenses/by-nc-sa/4.0/
# or send a letter to
# Creative Commons, PO Box 1866, Mountain View, CA 94042, USA.
#
# CIF created using the CSD Python API on 29 September 2022
# The structure has been converted into the P1 space group
# The structure has a 3D framework
# The original CSD entry CUNGIE is in the monoclinic crystal system
# The original CSD entry CUNGIE is in a Sohncke space group
# The framework has been calculated to contain at least 10.0% void space
# The void calculation uses a probe of radius 1.32A, grid spacing 0.4
#
###############################################################################

data_CUNGIE
_chemical_formula_moiety         '(C126 H86 N54 Zn10)n'
_symmetry_cell_setting           triclinic
_symmetry_space_group_name_H-M   'P 1'
_symmetry_Int_Tables_number      1
_space_group_name_Hall           'P 1'
loop_
_symmetry_equiv_pos_site_id
_symmetry_equiv_pos_as_xyz
1 x,y,z
_cell_length_a                   9.96450(10)
_cell_length_b                   15.83910(10)
_cell_length_c                   21.1899(2)
_cell_angle_alpha                90
_cell_angle_beta                 94.0260(10)
_cell_angle_gamma                90
_cell_volume                     3336.12
loop_
_atom_site_label
_atom_site_type_symbol
_atom_site_fract_x
_atom_site_fract_y
_atom_site_fract_z
Zn3 Zn 0.13035(8) 0.02506(5) 0.49306(4)
N10 N 0.1006(5) 0.0537(3) 0.4016(2)
N19 N 0.2179(5) 0.1216(3) 0.5394(2)
N20 N 0.3031(5) 0.2500(3) 0.5591(2)
C31 C 0.2503(6) 0.1965(4) 0.5157(3)
H22 H 0.237144 0.209866 0.472941
C32 C 0.3053(6) 0.2066(4) 0.6164(3)
C33 C 0.3458(6) 0.2306(4) 0.6782(3)
H23 H 0.380726 0.284030 0.687091
C34 C 0.3321(7) 0.1722(4) 0.7256(3)
H24 H 0.357222 0.186685 0.767353
C35 C 0.2800(7) 0.0898(4) 0.7115(3)
H25 H 0.273542 0.051017 0.744106
C36 C 0.2397(6) 0.0671(4) 0.6515(3)
H26 H 0.204210 0.013813 0.642573
C37 C 0.2531(6) 0.1264(4) 0.6035(3)
C38 C 0.1781(7) 0.0939(4) 0.3593(3)
C39 C 0.0938(8) 0.1102(4) 0.3050(3)
C40 C 0.1397(12) 0.1508(6) 0.2521(4)
H27 H 0.083838 0.161574 0.215995
C41 C 0.2729(14) 0.1736(7) 0.2572(5)
H28 H 0.307350 0.202599 0.223753
C42 C 0.3608(12) 0.1549(8) 0.3114(5)
H29 H 0.451184 0.169426 0.311208
C43 C 0.3155(8) 0.1161(6) 0.3640(4)
H30 H 0.371582 0.105175 0.400011
Zn7 Zn 0.37513(8) 0.36351(5) 0.53963(4)
N16 N 0.2488(5) 0.9228(3) 0.5043(2)
N17 N 0.3753(5) 0.9350(3) 0.4895(2)
N18 N 0.4430(5) 0.8618(3) 0.4938(2)
C25 C 0.3573(6) 0.8006(4) 0.5114(3)
C26 C 0.3759(6) 0.7143(4) 0.5237(3)
H18 H 0.458486 0.688143 0.520004
C27 C 0.2649(7) 0.6701(4) 0.5414(3)
H19 H 0.273210 0.612700 0.550069
C28 C 0.1412(7) 0.7092(4) 0.5467(3)
H20 H 0.069226 0.676825 0.558470
C29 C 0.1212(7) 0.7938(4) 0.5350(3)
H21 H 0.037978 0.819218 0.538844
C30 C 0.2317(6) 0.8395(4) 0.5173(3)
C60 C 0.0114(6) 0.7507(4) 0.1777(3)
H42 H 0.049886 0.697740 0.173120
H43 H 0.017653 0.784551 0.085973
Zn6 Zn 0.62487(8) 0.86351(5) 0.46037(4)
N2 N 0.0668(5) 0.9509(3) 0.9706(2)
N3 N 0.1358(5) 0.8800(3) 0.9830(2)
N4 N 0.2639(5) 0.8910(3) 0.9693(2)
C6 C 0.2785(6) 0.9713(4) 0.9471(3)
H5 H 0.475592 0.991121 0.927948
Zn9 Zn 0.36614(7) 0.78515(5) 0.95566(3)
Zn1 Zn 0.88002(7) 0.95662(5) 0.00008(3)
N5 N 0.9016(5) 0.9470(3) 0.0952(2)
N7 N 0.8562(6) 0.9881(3) 0.1892(2)
N11 N 0.9503(5) 0.9996(3) 0.5258(2)
N12 N 0.8796(5) 0.9388(3) 0.4948(2)
N13 N 0.7547(5) 0.9367(3) 0.5125(2)
N14 N 0.5922(5) 0.9288(3) 0.3789(2)
C12 C 0.6910(6) 0.9759(3) 0.3600(2)
H9 H 0.770403 0.986680 0.384370
C13 C 0.5381(8) 0.9757(4) 0.2817(3)
C14 C 0.4591(11) 0.9857(6) 0.2252(5)
C15 C 0.3385(12) 0.9457(7) 0.2193(5)
H11 H 0.285910 0.949679 0.181390
C16 C 0.2913(10) 0.8986(6) 0.2692(6)
H12 H 0.206815 0.873628 0.264013
C17 C 0.3671(8) 0.8883(5) 0.3259(4)
H13 H 0.335837 0.856924 0.358875
C18 C 0.4930(7) 0.9275(4) 0.3310(3)
C19 C 0.7408(6) 0.9991(4) 0.5569(3)
C57 C 0.9047(6) 0.9068(4) 0.1954(3)
C58 C 0.9228(7) 0.8541(4) 0.2485(3)
H40 H 0.901402 0.871298 0.288572
C59 C 0.9745(7) 0.7747(4) 0.2375(3)
H41 H 0.985041 0.736486 0.270796
C61 C 0.9934(6) 0.8016(4) 0.1256(3)
C62 C 0.9357(5) 0.8816(3) 0.1357(3)
N30 N 0.6969(5) 0.7500(3) 0.4409(2)
N1 N 0.7622(5) 0.8589(3) 0.9717(2)
N25 N 0.6310(5) 0.8685(4) 0.9787(3)
N26 N 0.5666(5) 0.7969(3) 0.9643(2)
C1 C 0.6429(7) 0.6538(4) 0.9282(3)
H1 H 0.559388 0.627361 0.924835
C2 C 0.7582(7) 0.6121(4) 0.9148(3)
H2 H 0.752357 0.555772 0.902649
C3 C 0.8864(7) 0.6520(4) 0.9189(3)
H3 H 0.961984 0.621638 0.908949
C4 C 0.8997(6) 0.7345(4) 0.9372(3)
H4 H 0.983287 0.760893 0.939714
C5 C 0.7842(5) 0.7780(4) 0.9520(3)
C63 C 0.6576(6) 0.7383(4) 0.9474(3)
Zn1_2 Zn 0.11998(7) 0.45662(5) 0.99992(3)
Zn2 Zn 0.19637(9) 0.56795(5) 0.74294(4)
N5_2 N 0.0984(5) 0.4470(3) 0.9048(2)
N6 N 0.1444(6) 0.5093(3) 0.8713(2)
N7_2 N 0.1438(6) 0.4881(3) 0.8108(2)
N8 N 0.0315(6) 0.5782(3) 0.6846(2)
N9 N 0.0220(5) 0.5453(4) 0.6265(2)
N11_2 N 0.0497(5) 0.4996(3) 0.4742(2)
N12_2 N 0.1204(5) 0.4388(3) 0.5052(2)
N13_2 N 0.2453(5) 0.4367(3) 0.4875(2)
N14_2 N 0.4078(5) 0.4288(3) 0.6211(2)
N15 N 0.3363(6) 0.5060(3) 0.6982(2)
N21 N 0.2613(5) 0.6761(3) 0.7818(2)
N22 N 0.3351(5) 0.7550(3) 0.8629(2)
C12_2 C 0.3090(6) 0.4759(3) 0.6400(2)
H9_2 H 0.229597 0.486680 0.615630
C13_2 C 0.4619(8) 0.4757(4) 0.7183(3)
C14_2 C 0.5409(11) 0.4857(6) 0.7748(5)
H10 H 0.511782 0.518656 0.807517
C15_2 C 0.6615(12) 0.4457(7) 0.7807(5)
H11_2 H 0.714090 0.449679 0.818610
C16_2 C 0.7087(10) 0.3986(6) 0.7308(6)
H12_2 H 0.793185 0.373628 0.735987
C17_2 C 0.6329(8) 0.3883(5) 0.6741(4)
H13_2 H 0.664163 0.356924 0.641125
C18_2 C 0.5070(7) 0.4275(4) 0.6690(3)
C19_2 C 0.2592(6) 0.4991(4) 0.4431(3)
C20 C 0.3717(6) 0.5265(4) 0.4119(3)
H14 H 0.455023 0.500196 0.417950
C21 C 0.3513(7) 0.5936(5) 0.3724(3)
H15 H 0.422749 0.613085 0.350434
C22 C 0.2267(7) 0.6345(4) 0.3636(3)
H16 H 0.218656 0.680730 0.336512
C23 C 0.1162(7) 0.6086(4) 0.3936(3)
H17 H 0.033373 0.635405 0.386999
C24 C 0.1346(6) 0.5400(4) 0.4345(3)
N27 N 0.2723(6) 0.6836(4) 0.8447(3)
C44 C 0.2403(6) 0.6244(3) 0.9822(3)
H31 H 0.223237 0.617878 0.938718
C51 C 0.3692(6) 0.7960(4) 0.8092(3)
C52 C 0.4356(7) 0.8714(4) 0.7999(3)
H36 H 0.468392 0.904086 0.834045
C53 C 0.4514(8) 0.8964(5) 0.7387(3)
H37 H 0.495868 0.946661 0.731325
C54 C 0.4019(7) 0.8474(4) 0.6877(3)
H38 H 0.414516 0.866062 0.646906
C55 C 0.3349(7) 0.7722(4) 0.6952(3)
H39 H 0.300881 0.740485 0.660806
C56 C 0.3209(6) 0.7464(4) 0.7578(3)
C57_2 C 0.0953(6) 0.4068(4) 0.8046(3)
C58_2 C 0.0772(7) 0.3541(4) 0.7515(3)
H40_2 H 0.098598 0.371298 0.711428
C59_2 C 0.0255(7) 0.2747(4) 0.7625(3)
H41_2 H 0.014959 0.236486 0.729204
C61_2 C 0.0066(6) 0.3016(4) 0.8744(3)
C62_2 C 0.0643(5) 0.3816(3) 0.8643(3)
N29 N 0.5570(5) 0.3618(3) 0.5062(2)
Zn3_2 Zn 0.86965(8) 0.52506(5) 0.50694(4)
N10_2 N 0.8994(5) 0.5537(3) 0.5984(2)
N16_2 N 0.7512(5) 0.4228(3) 0.4957(2)
N17_2 N 0.6247(5) 0.4350(3) 0.5105(2)
N19_2 N 0.7821(5) 0.6216(3) 0.4606(2)
C25_2 C 0.6427(6) 0.3006(4) 0.4886(3)
C26_2 C 0.6241(6) 0.2143(4) 0.4763(3)
H18_2 H 0.541514 0.188143 0.479996
C27_2 C 0.7351(7) 0.1701(4) 0.4586(3)
H19_2 H 0.726790 0.112700 0.449931
C28_2 C 0.8588(7) 0.2092(4) 0.4533(3)
H20_2 H 0.930774 0.176825 0.441530
C29_2 C 0.8788(7) 0.2938(4) 0.4650(3)
H21_2 H 0.962022 0.319218 0.461156
C30_2 C 0.7683(6) 0.3395(4) 0.4827(3)
C31_2 C 0.7497(6) 0.6965(4) 0.4843(3)
H22_2 H 0.762856 0.709866 0.527059
C32_2 C 0.6947(6) 0.7066(4) 0.3836(3)
C33_2 C 0.6542(6) 0.7306(4) 0.3218(3)
H23_2 H 0.619274 0.784030 0.312909
C34_2 C 0.6679(7) 0.6722(4) 0.2744(3)
H24_2 H 0.642778 0.686685 0.232647
C35_2 C 0.7200(7) 0.5898(4) 0.2885(3)
H25_2 H 0.726458 0.551017 0.255894
C36_2 C 0.7603(6) 0.5671(4) 0.3485(3)
H26_2 H 0.795790 0.513813 0.357427
C37_2 C 0.7469(6) 0.6264(4) 0.3965(3)
C38_2 C 0.8219(7) 0.5939(4) 0.6407(3)
C39_2 C 0.9062(8) 0.6102(4) 0.6950(3)
C40_2 C 0.8603(12) 0.6508(6) 0.7479(4)
H27_2 H 0.916162 0.661574 0.784005
C41_2 C 0.7271(14) 0.6736(7) 0.7428(5)
H28_2 H 0.692650 0.702599 0.776247
C42_2 C 0.6392(12) 0.6549(8) 0.6886(5)
H29_2 H 0.548816 0.669426 0.688792
C43_2 C 0.6845(8) 0.6161(6) 0.6360(4)
H30_2 H 0.628418 0.605175 0.599989
C60_2 C 0.9886(6) 0.2507(4) 0.8223(3)
H42_2 H 0.950114 0.197740 0.826880
H43_2 H 0.982347 0.284551 0.914027
C7 C 0.3906(6) 0.0155(4) 0.9271(3)
C8 C 0.3674(6) 0.0960(4) 0.9065(3)
H6 H 0.438626 0.126697 0.892092
C9 C 0.2385(6) 0.1350(4) 0.9060(3)
H7 H 0.227834 0.189982 0.891032
C10 C 0.1306(6) 0.0934(4) 0.9272(3)
H8 H 0.047055 0.119427 0.928124
C11 C 0.1510(5) 0.0094(4) 0.9476(3)
Zn2_2 Zn 0.80363(9) 0.06795(5) 0.25706(4)
Zn5 Zn 0.63386(7) 0.28515(5) 0.04434(3)
N6_2 N 0.8556(6) 0.0093(3) 0.1287(2)
N8_2 N 0.9685(6) 0.0782(3) 0.3154(2)
N9_2 N 0.9780(5) 0.0453(4) 0.3735(2)
N15_2 N 0.6637(6) 0.0060(3) 0.3018(2)
N21_2 N 0.7387(5) 0.1761(3) 0.2182(2)
N22_2 N 0.6649(5) 0.2550(3) 0.1371(2)
H10_2 H 0.488218 0.018656 0.192483
C20_2 C 0.6283(6) 0.0265(4) 0.5881(3)
H14_2 H 0.544977 0.000196 0.582050
C21_2 C 0.6487(7) 0.0936(5) 0.6276(3)
H15_2 H 0.577251 0.113085 0.649566
C22_2 C 0.7733(7) 0.1345(4) 0.6364(3)
H16_2 H 0.781344 0.180730 0.663488
C23_2 C 0.8838(7) 0.1086(4) 0.6064(3)
H17_2 H 0.966627 0.135405 0.613001
C24_2 C 0.8654(6) 0.0400(4) 0.5655(3)
N27_2 N 0.7277(6) 0.1836(4) 0.1553(3)
C44_2 C 0.7597(6) 0.1244(3) 0.0178(3)
H31_2 H 0.776763 0.117878 0.061282
C51_2 C 0.6308(6) 0.2960(4) 0.1908(3)
C52_2 C 0.5644(7) 0.3714(4) 0.2001(3)
H36_2 H 0.531608 0.404086 0.165955
C53_2 C 0.5486(8) 0.3964(5) 0.2613(3)
H37_2 H 0.504132 0.446661 0.268675
C54_2 C 0.5981(7) 0.3474(4) 0.3123(3)
H38_2 H 0.585484 0.366062 0.353094
C55_2 C 0.6651(7) 0.2722(4) 0.3048(3)
H39_2 H 0.699119 0.240485 0.339194
C56_2 C 0.6791(6) 0.2464(4) 0.2422(3)
N28 N 0.7361(5) 0.3910(3) 0.0307(2)
N31 N 0.4334(5) 0.2969(3) 0.0357(2)
N1_2 N 0.2378(5) 0.3589(3) 0.0283(2)
N23 N 0.2952(5) 0.6932(3) 0.0086(2)
N24 N 0.2122(5) 0.5655(3) 0.0241(2)
N25_2 N 0.3690(5) 0.3685(4) 0.0213(3)
C1_2 C 0.3571(7) 0.1538(4) 0.0718(3)
H1_2 H 0.440612 0.127361 0.075165
C2_2 C 0.2418(7) 0.1121(4) 0.0852(3)
H2_2 H 0.247643 0.055772 0.097351
C3_2 C 0.1136(7) 0.1520(4) 0.0811(3)
H3_2 H 0.038016 0.121638 0.091051
C4_2 C 0.1003(6) 0.2345(4) 0.0628(3)
H4_2 H 0.016713 0.260893 0.060286
C5_2 C 0.2158(5) 0.2780(4) 0.0480(3)
C45 C 0.2545(6) 0.5989(4) 0.0828(3)
C46 C 0.3032(6) 0.6795(4) 0.0724(3)
C47 C 0.3518(6) 0.7305(4) 0.1234(3)
H32 H 0.382595 0.785074 0.117091
C48 C 0.3518(7) 0.6961(5) 0.1824(3)
H33 H 0.383652 0.728022 0.217131
C49 C 0.3052(7) 0.6143(5) 0.1922(3)
H34 H 0.308833 0.593209 0.233271
C50 C 0.2544(6) 0.5640(5) 0.1437(3)
H35 H 0.221756 0.510078 0.150690
C63_2 C 0.3424(6) 0.2383(4) 0.0526(3)
N2_2 N 0.9332(5) 0.4509(3) 0.0294(2)
N3_2 N 0.8642(5) 0.3800(3) 0.0170(2)
C6_2 C 0.7215(6) 0.4713(4) 0.0529(3)
C7_2 C 0.6094(6) 0.5155(4) 0.0729(3)
H5_2 H 0.524408 0.491121 0.072052
C8_2 C 0.6326(6) 0.5960(4) 0.0935(3)
H6_2 H 0.561374 0.626697 0.107908
C9_2 C 0.7615(6) 0.6350(4) 0.0940(3)
H7_2 H 0.772166 0.689982 0.108968
C10_2 C 0.8694(6) 0.5934(4) 0.0728(3)
H8_2 H 0.952945 0.619427 0.071876
C11_2 C 0.8490(5) 0.5094(4) 0.0524(3)
N23_2 N 0.7048(5) 0.1932(3) 0.9914(2)
N24_2 N 0.7878(5) 0.0655(3) 0.9759(2)
C45_2 C 0.7455(6) 0.0989(4) 0.9172(3)
C46_2 C 0.6968(6) 0.1795(4) 0.9276(3)
C47_2 C 0.6482(6) 0.2305(4) 0.8766(3)
H32_2 H 0.617405 0.285074 0.882909
C48_2 C 0.6482(7) 0.1961(5) 0.8176(3)
H33_2 H 0.616348 0.228022 0.782869
C49_2 C 0.6948(7) 0.1143(5) 0.8078(3)
H34_2 H 0.691167 0.093209 0.766729
C50_2 C 0.7456(6) 0.0640(5) 0.8563(3)
H35_2 H 0.778244 0.010078 0.849310
loop_
_geom_bond_atom_site_label_1
_geom_bond_atom_site_label_2
_geom_bond_site_symmetry_1
_geom_bond_site_symmetry_2
Zn3 N10 1_555 1_555
N19 Zn3 1_555 1_555
N20 C31 1_555 1_555
C31 N19 1_555 1_555
H22 C31 1_555 1_555
C32 N20 1_555 1_555
C33 C32 1_555 1_555
H23 C33 1_555 1_555
C34 C33 1_555 1_555
H24 C34 1_555 1_555
C35 C34 1_555 1_555
H25 C35 1_555 1_555
C36 C35 1_555 1_555
H26 C36 1_555 1_555
C37 N19 1_555 1_555
C38 N10 1_555 1_555
C40 C39 1_555 1_555
H27 C40 1_555 1_555
C41 C40 1_555 1_555
H28 C41 1_555 1_555
C42 C41 1_555 1_555
H29 C42 1_555 1_555
C43 C38 1_555 1_555
H30 C43 1_555 1_555
Zn7 N20 1_555 1_555
C32 C37 1_555 1_555
C36 C37 1_555 1_555
C38 C39 1_555 1_555
C42 C43 1_555 1_555
N17 N16 1_555 1_555
N18 N17 1_555 1_555
C25 N18 1_555 1_555
C26 C25 1_555 1_555
H18 C26 1_555 1_555
C27 C26 1_555 1_555
H19 C27 1_555 1_555
C28 C27 1_555 1_555
H20 C28 1_555 1_555
C29 C28 1_555 1_555
H21 C29 1_555 1_555
C30 N16 1_555 1_555
H42 C60 1_555 1_555
Zn6 N18 1_555 1_555
C25 C30 1_555 1_555
C29 C30 1_555 1_555
N3 N2 1_555 1_555
N4 N3 1_555 1_555
C6 N4 1_555 1_555
Zn9 N4 1_555 1_555
Zn6 N13 1_555 1_555
N5 Zn1 1_555 1_555
N12 N11 1_555 1_555
N13 N12 1_555 1_555
N14 Zn6 1_555 1_555
C12 N14 1_555 1_555
H9 C12 1_555 1_555
C14 C13 1_555 1_555
C15 C14 1_555 1_555
H11 C15 1_555 1_555
C16 C15 1_555 1_555
H12 C16 1_555 1_555
C17 C16 1_555 1_555
H13 C17 1_555 1_555
C18 N14 1_555 1_555
C19 N13 1_555 1_555
C57 N7 1_555 1_555
C58 C57 1_555 1_555
H40 C58 1_555 1_555
C59 C58 1_555 1_555
H41 C59 1_555 1_555
C62 N5 1_555 1_555
N30 Zn6 1_555 1_555
C13 C18 1_555 1_555
C17 C18 1_555 1_555
C57 C62 1_555 1_555
C61 C62 1_555 1_555
N1 N25 1_555 1_555
N25 N26 1_555 1_555
N26 C63 1_555 1_555
C1 H1 1_555 1_555
C2 C1 1_555 1_555
H2 C2 1_555 1_555
C3 C2 1_555 1_555
H3 C3 1_555 1_555
C4 C3 1_555 1_555
H4 C4 1_555 1_555
C5 N1 1_555 1_555
C63 C1 1_555 1_555
Zn9 N26 1_555 1_555
C4 C5 1_555 1_555
C5 C63 1_555 1_555
Zn2 N7_2 1_555 1_555
Zn7 N13_2 1_555 1_555
Zn9 N22 1_555 1_555
N5_2 Zn1_2 1_555 1_555
N6 N5_2 1_555 1_555
N7_2 N6 1_555 1_555
N8 Zn2 1_555 1_555
N9 N8 1_555 1_555
N12_2 N11_2 1_555 1_555
N13_2 N12_2 1_555 1_555
N14_2 Zn7 1_555 1_555
N15 Zn2 1_555 1_555
N21 Zn2 1_555 1_555
N22 N27 1_555 1_555
C12_2 N14_2 1_555 1_555
H9_2 C12_2 1_555 1_555
C13_2 N15 1_555 1_555
C14_2 C13_2 1_555 1_555
H10 C14_2 1_555 1_555
C15_2 C14_2 1_555 1_555
H11_2 C15_2 1_555 1_555
C16_2 C15_2 1_555 1_555
H12_2 C16_2 1_555 1_555
C17_2 C16_2 1_555 1_555
H13_2 C17_2 1_555 1_555
C18_2 N14_2 1_555 1_555
C19_2 N13_2 1_555 1_555
C20 C19_2 1_555 1_555
H14 C20 1_555 1_555
C21 C20 1_555 1_555
H15 C21 1_555 1_555
C22 C21 1_555 1_555
H16 C22 1_555 1_555
C23 C22 1_555 1_555
H17 C23 1_555 1_555
C24 N11_2 1_555 1_555
N27 N21 1_555 1_555
H31 C44 1_555 1_555
C51 N22 1_555 1_555
C52 C51 1_555 1_555
H36 C52 1_555 1_555
C53 C52 1_555 1_555
H37 C53 1_555 1_555
C54 C53 1_555 1_555
H38 C54 1_555 1_555
C55 C54 1_555 1_555
H39 C55 1_555 1_555
C56 N21 1_555 1_555
C57_2 N7_2 1_555 1_555
C58_2 C57_2 1_555 1_555
H40_2 C58_2 1_555 1_555
C59_2 C58_2 1_555 1_555
H41_2 C59_2 1_555 1_555
C62_2 N5_2 1_555 1_555
N29 Zn7 1_555 1_555
N15 C12_2 1_555 1_555
C13_2 C18_2 1_555 1_555
C17_2 C18_2 1_555 1_555
C19_2 C24 1_555 1_555
C23 C24 1_555 1_555
C51 C56 1_555 1_555
C55 C56 1_555 1_555
C57_2 C62_2 1_555 1_555
C61_2 C62_2 1_555 1_555
Zn3_2 N10_2 1_555 1_555
N16_2 Zn3_2 1_555 1_555
N17_2 N16_2 1_555 1_555
N29 N17_2 1_555 1_555
N19_2 Zn3_2 1_555 1_555
N30 C31_2 1_555 1_555
C25_2 N29 1_555 1_555
C26_2 C25_2 1_555 1_555
H18_2 C26_2 1_555 1_555
C27_2 C26_2 1_555 1_555
H19_2 C27_2 1_555 1_555
C28_2 C27_2 1_555 1_555
H20_2 C28_2 1_555 1_555
C29_2 C28_2 1_555 1_555
H21_2 C29_2 1_555 1_555
C30_2 N16_2 1_555 1_555
C31_2 N19_2 1_555 1_555
H22_2 C31_2 1_555 1_555
C32_2 N30 1_555 1_555
C33_2 C32_2 1_555 1_555
H23_2 C33_2 1_555 1_555
C34_2 C33_2 1_555 1_555
H24_2 C34_2 1_555 1_555
C35_2 C34_2 1_555 1_555
H25_2 C35_2 1_555 1_555
C36_2 C35_2 1_555 1_555
H26_2 C36_2 1_555 1_555
C37_2 N19_2 1_555 1_555
C38_2 N10_2 1_555 1_555
C40_2 C39_2 1_555 1_555
H27_2 C40_2 1_555 1_555
C41_2 C40_2 1_555 1_555
H28_2 C41_2 1_555 1_555
C42_2 C41_2 1_555 1_555
H29_2 C42_2 1_555 1_555
C43_2 C38_2 1_555 1_555
H30_2 C43_2 1_555 1_555
H42_2 C60_2 1_555 1_555
C25_2 C30_2 1_555 1_555
C29_2 C30_2 1_555 1_555
C32_2 C37_2 1_555 1_555
C36_2 C37_2 1_555 1_555
C38_2 C39_2 1_555 1_555
C42_2 C43_2 1_555 1_555
C8 C7 1_555 1_555
H6 C8 1_555 1_555
C9 C8 1_555 1_555
H7 C9 1_555 1_555
C10 C9 1_555 1_555
H8 C10 1_555 1_555
C10 C11 1_555 1_555
Zn5 N22_2 1_555 1_555
N8_2 Zn2_2 1_555 1_555
N9_2 N8_2 1_555 1_555
N15_2 Zn2_2 1_555 1_555
N21_2 Zn2_2 1_555 1_555
N22_2 N27_2 1_555 1_555
H14_2 C20_2 1_555 1_555
C21_2 C20_2 1_555 1_555
H15_2 C21_2 1_555 1_555
C22_2 C21_2 1_555 1_555
H16_2 C22_2 1_555 1_555
C23_2 C22_2 1_555 1_555
H17_2 C23_2 1_555 1_555
N27_2 N21_2 1_555 1_555
H31_2 C44_2 1_555 1_555
C51_2 N22_2 1_555 1_555
C52_2 C51_2 1_555 1_555
H36_2 C52_2 1_555 1_555
C53_2 C52_2 1_555 1_555
H37_2 C53_2 1_555 1_555
C54_2 C53_2 1_555 1_555
H38_2 C54_2 1_555 1_555
C55_2 C54_2 1_555 1_555
H39_2 C55_2 1_555 1_555
C56_2 N21_2 1_555 1_555
N28 Zn5 1_555 1_555
N31 Zn5 1_555 1_555
C23_2 C24_2 1_555 1_555
C51_2 C56_2 1_555 1_555
C55_2 C56_2 1_555 1_555
N1_2 N25_2 1_555 1_555
N25_2 N31 1_555 1_555
N31 C63_2 1_555 1_555
C1_2 H1_2 1_555 1_555
C2_2 C1_2 1_555 1_555
H2_2 C2_2 1_555 1_555
C3_2 C2_2 1_555 1_555
H3_2 C3_2 1_555 1_555
C4_2 C3_2 1_555 1_555
H4_2 C4_2 1_555 1_555
C5_2 N1_2 1_555 1_555
C45 N24 1_555 1_555
C46 N23 1_555 1_555
C47 C46 1_555 1_555
H32 C47 1_555 1_555
C48 C47 1_555 1_555
H33 C48 1_555 1_555
C49 C48 1_555 1_555
H34 C49 1_555 1_555
C50 C45 1_555 1_555
H35 C50 1_555 1_555
C63_2 C1_2 1_555 1_555
C4_2 C5_2 1_555 1_555
C5_2 C63_2 1_555 1_555
C45 C46 1_555 1_555
C49 C50 1_555 1_555
N3_2 N2_2 1_555 1_555
N28 N3_2 1_555 1_555
C6_2 N28 1_555 1_555
C7_2 C6_2 1_555 1_555
H5_2 C7_2 1_555 1_555
C8_2 C7_2 1_555 1_555
H6_2 C8_2 1_555 1_555
C9_2 C8_2 1_555 1_555
H7_2 C9_2 1_555 1_555
C10_2 C9_2 1_555 1_555
H8_2 C10_2 1_555 1_555
C11_2 N2_2 1_555 1_555
C6_2 C11_2 1_555 1_555
C10_2 C11_2 1_555 1_555
C45_2 N24_2 1_555 1_555
C46_2 N23_2 1_555 1_555
C47_2 C46_2 1_555 1_555
H32_2 C47_2 1_555 1_555
C48_2 C47_2 1_555 1_555
H33_2 C48_2 1_555 1_555
C49_2 C48_2 1_555 1_555
H34_2 C49_2 1_555 1_555
C50_2 C45_2 1_555 1_555
H35_2 C50_2 1_555 1_555
C45_2 C46_2 1_555 1_555
C49_2 C50_2 1_555 1_555

#END
