
###############################################################################
#
# This file contains modified crystal structure data generated from the
# MOF subset of the Cambridge Structural Database (CSD) v543 
# hosted by the Cambridge Crystallographic Data Centre (CCDC).
#
# This work is licensed under the Creative Commons
# Attribution-NonCommercial-ShareAlike 4.0 International License.
# To view a copy of this license, visit
# http://creativecommons.org/licenses/by-nc-sa/4.0/
# or send a letter to
# Creative Commons, PO Box 1866, Mountain View, CA 94042, USA.
#
# CIF created using the CSD Python API on 29 September 2022
# The structure has been converted into the P1 space group
# The structure has a 3D framework
# The original CSD entry CUNKEE is in the monoclinic crystal system
# The framework has been calculated to contain at least 10.0% void space
# The void calculation uses a probe of radius 1.32A, grid spacing 0.4
#
###############################################################################

data_CUNKEE
_chemical_formula_moiety         '(C64 H44 Cd9 N4 O34)n'
_symmetry_cell_setting           triclinic
_symmetry_space_group_name_H-M   'P 1'
_symmetry_Int_Tables_number      1
_space_group_name_Hall           'P 1'
loop_
_symmetry_equiv_pos_site_id
_symmetry_equiv_pos_as_xyz
1 x,y,z
_cell_length_a                   9.6430(10)
_cell_length_b                   11.8045(12)
_cell_length_c                   17.3844(17)
_cell_angle_alpha                90
_cell_angle_beta                 92.209(2)
_cell_angle_gamma                90
_cell_volume                     1977.41
loop_
_atom_site_label
_atom_site_type_symbol
_atom_site_fract_x
_atom_site_fract_y
_atom_site_fract_z
Cd11 Cd 0.0000 0.5000 0.0000
Cd7 Cd 0.03891(2) 0.69965(2) 0.83508(2)
Cd11_2 Cd -0.0000 0.5000 1.0000
C1 C 0.6912(3) 0.6976(2) 0.04886(16)
H1 H 0.7799 0.7118 0.0695
N1 N 0.0349(3) 0.6193(2) 0.31855(15)
C2 C 0.5777(3) 0.6995(2) 0.09636(15)
C6 C 0.4465(3) 0.6754(3) 0.06508(16)
H3 H 0.3710 0.6741 0.0968
C7 C 0.0465(5) 0.6622(3) 0.23962(18)
H4 H 0.1404 0.6883 0.2323
C8 C 0.0100(3) 0.5688(3) 0.18181(17)
C10 C 0.1329(5) 0.5244(5) 0.4258(2)
H7 H 0.2105 0.4923 0.4507
C11 C 0.1440(5) 0.5714(5) 0.3540(2)
H8 H 0.2286 0.5695 0.3301
C12 C 0.0079(4) 0.5247(3) 0.46116(17)
O5 O 0.0080(3) 0.5989(2) 0.11338(13)
C14 C 0.5956(3) 0.7296(3) 0.18078(16)
O8 O 0.4909(3) 0.7149(2) 0.22167(13)
O9 O 0.7072(3) 0.7664(3) 0.20731(15)
H13 H 0.0160 0.2742 0.7687
C19 C 0.0869(4) 0.3791(4) 0.6498(2)
H14 H 0.1630 0.3469 0.6761
C23 C 0.1018(4) 0.4247(4) 0.5780(2)
H17 H 0.1877 0.4214 0.5556
O10 O 0.0151(4) 0.5250(2) 0.79053(15)
Cd5 Cd 0.53891(2) 0.80035(2) 0.33508(2)
Cd11_3 Cd 1.0000 0.5000 0.0000
O20 O 0.2311(3) 0.3143(3) 0.15290(14)
O22 O 0.08667(19) 0.33585(18) 0.05278(12)
O25 O 0.0091(3) 0.2149(2) 0.27833(13)
O1 O 0.7689(3) 0.6857(3) 0.84710(14)
C3 C 0.4263(3) 0.6532(2) 0.98673(15)
C4 C 0.2817(3) 0.6312(3) 0.95376(16)
C5 C 0.5386(3) 0.6543(2) 0.93947(15)
H2 H 0.5251 0.6416 0.8869
O2 O 0.91333(19) 0.66415(18) 0.94722(12)
O4 O 0.2043(2) 0.5807(3) 0.99818(16)
O6 O 0.2519(2) 0.6661(3) 0.88797(14)
C15 C 0.6715(3) 0.6743(2) 0.97038(15)
C16 C 0.7915(3) 0.6736(3) 0.91767(16)
O16 O 0.0346(5) 0.8733(3) 0.8958(2)
H21 H 0.0622 0.8722 0.9496
H22 H 0.1008 0.9267 0.8777
Cd11_4 Cd 1.0000 0.5000 1.0000
Cd1 Cd 0.96109(2) 0.30035(2) 0.16492(2)
H5 H 0.9840 0.7258 0.2313
C9 C 0.9131(4) 0.6209(4) 0.3502(2)
H6 H 0.8370 0.6531 0.3239
C13 C 0.8982(4) 0.5753(4) 0.4220(2)
H9 H 0.8123 0.5786 0.4444
O3 O 0.9849(4) 0.4750(2) 0.20947(15)
O7 O 0.9654(5) 0.1267(3) 0.1042(2)
H10 H 0.9378 0.1278 0.0504
H11 H 0.8992 0.0733 0.1223
N2 N 0.9651(3) 0.3807(2) 0.68145(15)
C17 C 0.9535(5) 0.3378(3) 0.76038(18)
H12 H 0.8596 0.3117 0.7677
C18 C 0.9900(3) 0.4312(3) 0.81819(17)
C20 C 0.8671(5) 0.4756(5) 0.5742(2)
H15 H 0.7895 0.5077 0.5493
C21 C 0.8560(5) 0.4286(5) 0.6460(2)
H16 H 0.7714 0.4305 0.6699
C22 C 0.9921(4) 0.4753(3) 0.53884(17)
O11 O 0.9920(3) 0.4011(2) 0.88662(13)
C26 C 0.5737(3) 0.3468(2) 0.01327(15)
C27 C 0.7183(3) 0.3688(3) 0.04624(16)
C28 C 0.4614(3) 0.3457(2) 0.06053(15)
H19 H 0.4749 0.3584 0.1131
O14 O 0.7957(2) 0.4193(3) 0.00182(16)
O15 O 0.7481(2) 0.3339(3) 0.11203(14)
C31 C 0.3285(3) 0.3257(2) 0.02962(15)
C32 C 0.2085(3) 0.3264(3) 0.08233(16)
C24 C 0.3088(3) 0.3024(2) 0.95114(16)
H18 H 0.2201 0.2882 0.9305
C25 C 0.4223(3) 0.3005(2) 0.90364(15)
C29 C 0.5535(3) 0.3246(3) 0.93492(16)
H20 H 0.6290 0.3259 0.9032
C30 C 0.4044(3) 0.2704(3) 0.81922(16)
O17 O 0.5091(3) 0.2851(2) 0.77833(13)
O18 O 0.2928(3) 0.2336(3) 0.79269(15)
Cd8 Cd 0.46109(2) 0.19965(2) 0.66492(2)
O26 O 0.9909(3) 0.7851(2) 0.72167(13)
Cd9 Cd 0.5000 -0.0000 0.5000
O12 O 0.2689(3) 0.8143(3) 0.34710(14)
C24_2 C 0.1912(3) 0.8024(2) 0.54886(16)
H18_2 H 0.2799 0.7882 0.5695
C25_2 C 0.0777(3) 0.8005(2) 0.59636(15)
C28_2 C 0.0386(3) 0.8457(2) 0.43947(15)
H19_2 H 0.0251 0.8584 0.3869
O13 O 0.41333(19) 0.83585(18) 0.44722(12)
C30_2 C 0.0956(3) 0.7704(3) 0.68078(16)
C31_2 C 0.1715(3) 0.8257(2) 0.47038(15)
C32_2 C 0.2915(3) 0.8264(3) 0.41767(16)
O18_2 O 0.2072(3) 0.7336(3) 0.70731(15)
Cd9_2 Cd 0.5000 1.0000 0.5000
N1_2 N 0.4651(3) 0.1193(2) 0.18145(15)
C3_2 C 0.0737(3) 0.1532(2) 0.51327(15)
C4_2 C 0.2183(3) 0.1312(3) 0.54624(16)
C6_2 C 0.0535(3) 0.1754(3) 0.43492(16)
H3_2 H 0.1290 0.1741 0.4032
C7_2 C 0.4535(5) 0.1622(3) 0.26038(18)
H4_2 H 0.3596 0.1883 0.2677
H5_2 H 0.5160 0.2258 0.2687
C8_2 C 0.4900(3) 0.0688(3) 0.31819(17)
C9_2 C 0.5869(4) 0.1209(4) 0.1498(2)
H6_2 H 0.6630 0.1531 0.1761
C10_2 C 0.3671(5) 0.0244(5) 0.0742(2)
C11_2 C 0.3560(5) 0.0714(5) 0.1460(2)
H8_2 H 0.2714 0.0695 0.1699
C12_2 C 0.4921(4) 0.0247(3) 0.03884(17)
C13_2 C 0.6018(4) 0.0753(4) 0.0780(2)
H9_2 H 0.6877 0.0786 0.0556
O4_2 O 0.2957(2) 0.0807(3) 0.50182(16)
O5_2 O 0.4920(3) 0.0989(2) 0.38662(13)
O6_2 O 0.2481(2) 0.1661(3) 0.61203(14)
O16_2 O 0.4654(5) 0.3733(3) 0.6042(2)
H21_2 H 0.4378 0.3722 0.5504
H22_2 H 0.3992 0.4267 0.6223
O19 O 0.7311(3) 0.1857(3) 0.65290(14)
O21 O 0.58667(19) 0.16415(18) 0.55278(12)
O23 O 0.4849(4) 0.0250(2) 0.70947(15)
H15_2 H 0.7105 0.0077 0.9507
H7_2 H 0.2895 0.9923 0.0493
O3_2 O 0.5151(4) 0.9750(2) 0.29053(15)
O7_2 O 0.5346(5) 0.6267(3) 0.3958(2)
H10_2 H 0.5622 0.6278 0.4496
H11_2 H 0.6008 0.5733 0.3777
C26_2 C 0.9263(3) 0.8468(2) 0.48673(15)
C27_2 C 0.7817(3) 0.8688(3) 0.45376(16)
C29_2 C 0.9465(3) 0.8246(3) 0.56508(16)
H20_2 H 0.8710 0.8259 0.5968
O14_2 O 0.7043(2) 0.9193(3) 0.49818(16)
O15_2 O 0.7519(2) 0.8339(3) 0.38797(14)
O24 O 0.5080(3) 0.9011(2) 0.61338(13)
N2_2 N 0.5349(3) 0.8807(2) 0.81855(15)
C17_2 C 0.5465(5) 0.8378(3) 0.73962(18)
H12_2 H 0.6404 0.8117 0.7323
H13_2 H 0.4840 0.7742 0.7313
C18_2 C 0.5100(3) 0.9312(3) 0.68181(17)
C19_2 C 0.4131(4) 0.8791(4) 0.8502(2)
H14_2 H 0.3370 0.8469 0.8239
C20_2 C 0.6329(5) 0.9756(5) 0.9258(2)
C21_2 C 0.6440(5) 0.9286(5) 0.8540(2)
H16_2 H 0.7286 0.9305 0.8301
C22_2 C 0.5079(4) 0.9753(3) 0.96116(17)
C23_2 C 0.3982(4) 0.9247(4) 0.9220(2)
H17_2 H 0.3123 0.9214 0.9444
C1_2 C 0.8088(3) 0.1976(2) 0.45114(16)
H1_2 H 0.7201 0.2118 0.4305
C2_2 C 0.9223(3) 0.1995(2) 0.40364(15)
C5_2 C 0.9614(3) 0.1543(2) 0.56053(15)
H2_2 H 0.9749 0.1416 0.6131
C14_2 C 0.9044(3) 0.2296(3) 0.31922(16)
C15_2 C 0.8285(3) 0.1743(2) 0.52962(15)
C16_2 C 0.7085(3) 0.1736(3) 0.58233(16)
O9_2 O 0.7928(3) 0.2664(3) 0.29269(15)
loop_
_geom_bond_atom_site_label_1
_geom_bond_atom_site_label_2
_geom_bond_site_symmetry_1
_geom_bond_site_symmetry_2
C1 H1 1_555 1_555
N1 C7 1_555 1_555
C2 C1 1_555 1_555
C6 C2 1_555 1_555
H3 C6 1_555 1_555
C7 H4 1_555 1_555
C8 C7 1_555 1_555
C10 H7 1_555 1_555
C11 N1 1_555 1_555
H8 C11 1_555 1_555
C12 C10 1_555 1_555
O5 Cd11 1_555 1_555
C14 C2 1_555 1_555
O8 C14 1_555 1_555
O9 C14 1_555 1_555
H14 C19 1_555 1_555
C23 C19 1_555 1_555
H17 C23 1_555 1_555
Cd5 O8 1_555 1_555
Cd7 O10 1_555 1_555
Cd11 O22 1_555 1_555
C8 O5 1_555 1_555
C10 C11 1_555 1_555
Cd11_2 O4 1_555 1_555
O1 C16 1_555 1_555
C3 C4 1_555 1_555
C4 O4 1_555 1_555
C5 C3 1_555 1_555
H2 C5 1_555 1_555
O2 C16 1_555 1_555
O6 C4 1_555 1_555
C16 C15 1_555 1_555
Cd7 O6 1_555 1_555
O16 Cd7 1_555 1_555
H21 O16 1_555 1_555
H22 O16 1_555 1_555
Cd11_4 O2 1_555 1_555
C5 C15 1_555 1_555
Cd1 O3 1_555 1_555
H6 C9 1_555 1_555
C13 C9 1_555 1_555
H9 C13 1_555 1_555
O7 Cd1 1_555 1_555
H10 O7 1_555 1_555
H11 O7 1_555 1_555
N2 C17 1_555 1_555
C17 H12 1_555 1_555
C18 C17 1_555 1_555
C20 H15 1_555 1_555
C21 N2 1_555 1_555
H16 C21 1_555 1_555
O11 C18 1_555 1_555
O20 C32 1_555 1_555
C26 C27 1_555 1_555
C27 O14 1_555 1_555
C28 C26 1_555 1_555
H19 C28 1_555 1_555
O22 C32 1_555 1_555
O14 Cd11_3 1_555 1_555
O15 Cd1 1_555 1_555
C32 C31 1_555 1_555
Cd11_4 O11 1_555 1_555
C20 C21 1_555 1_555
C20 C22 1_555 1_555
C27 O15 1_555 1_555
C28 C31 1_555 1_555
C24 H18 1_555 1_555
C25 C24 1_555 1_555
C29 C25 1_555 1_555
H20 C29 1_555 1_555
C30 C25 1_555 1_555
O17 C30 1_555 1_555
O18 C30 1_555 1_555
Cd8 O17 1_555 1_555
O12 C32_2 1_555 1_555
C24_2 H18_2 1_555 1_555
C25_2 C24_2 1_555 1_555
H19_2 C28_2 1_555 1_555
O13 C32_2 1_555 1_555
C30_2 C25_2 1_555 1_555
C31_2 C24_2 1_555 1_555
C32_2 C31_2 1_555 1_555
O18_2 C30_2 1_555 1_555
Cd5 O12 1_555 1_555
Cd9_2 O13 1_555 1_555
C28_2 C31_2 1_555 1_555
O13 Cd5 1_555 1_555
Cd9 O4_2 1_555 1_555
N1_2 C7_2 1_555 1_555
C3_2 C4_2 1_555 1_555
C4_2 O4_2 1_555 1_555
H3_2 C6_2 1_555 1_555
C7_2 H4_2 1_555 1_555
H5_2 C7_2 1_555 1_555
C8_2 C7_2 1_555 1_555
C9_2 N1_2 1_555 1_555
H6_2 C9_2 1_555 1_555
C11_2 N1_2 1_555 1_555
H8_2 C11_2 1_555 1_555
C12_2 C10_2 1_555 1_555
C13_2 C9_2 1_555 1_555
H9_2 C13_2 1_555 1_555
O5_2 Cd9 1_555 1_555
O6_2 C4_2 1_555 1_555
Cd8 O6_2 1_555 1_555
O16_2 Cd8 1_555 1_555
H21_2 O16_2 1_555 1_555
H22_2 O16_2 1_555 1_555
O19 Cd8 1_555 1_555
O21 Cd9 1_555 1_555
O23 Cd8 1_555 1_555
C3_2 C6_2 1_555 1_555
C8_2 O5_2 1_555 1_555
C10_2 C11_2 1_555 1_555
C12_2 C13_2 1_555 1_555
Cd8 O21 1_555 1_555
Cd5 O3_2 1_555 1_555
O7_2 Cd5 1_555 1_555
H10_2 O7_2 1_555 1_555
H11_2 O7_2 1_555 1_555
C26_2 C27_2 1_555 1_555
C27_2 O14_2 1_555 1_555
H20_2 C29_2 1_555 1_555
O14_2 Cd9_2 1_555 1_555
O15_2 Cd5 1_555 1_555
O24 Cd9_2 1_555 1_555
C26_2 C29_2 1_555 1_555
C27_2 O15_2 1_555 1_555
N2_2 C17_2 1_555 1_555
C17_2 H12_2 1_555 1_555
H13_2 C17_2 1_555 1_555
C18_2 C17_2 1_555 1_555
C19_2 N2_2 1_555 1_555
H14_2 C19_2 1_555 1_555
C21_2 N2_2 1_555 1_555
H16_2 C21_2 1_555 1_555
C23_2 C19_2 1_555 1_555
H17_2 C23_2 1_555 1_555
O24 C18_2 1_555 1_555
C20_2 C21_2 1_555 1_555
C20_2 C22_2 1_555 1_555
C22_2 C23_2 1_555 1_555
O19 C16_2 1_555 1_555
C1_2 H1_2 1_555 1_555
C2_2 C1_2 1_555 1_555
H2_2 C5_2 1_555 1_555
O21 C16_2 1_555 1_555
C14_2 C2_2 1_555 1_555
C15_2 C1_2 1_555 1_555
C16_2 C15_2 1_555 1_555
O9_2 C14_2 1_555 1_555
C5_2 C15_2 1_555 1_555

#END
