
###############################################################################
#
# This file contains modified crystal structure data generated from the
# MOF subset of the Cambridge Structural Database (CSD) v543 
# hosted by the Cambridge Crystallographic Data Centre (CCDC).
#
# This work is licensed under the Creative Commons
# Attribution-NonCommercial-ShareAlike 4.0 International License.
# To view a copy of this license, visit
# http://creativecommons.org/licenses/by-nc-sa/4.0/
# or send a letter to
# Creative Commons, PO Box 1866, Mountain View, CA 94042, USA.
#
# CIF created using the CSD Python API on 29 September 2022
# The structure has been converted into the P1 space group
# The structure has a 3D framework
# The original CSD entry CUNKOO is in the monoclinic crystal system
# The framework has been calculated to contain at least 10.0% void space
# The void calculation uses a probe of radius 1.32A, grid spacing 0.4
#
###############################################################################

data_CUNKOO
_chemical_formula_moiety         '(C64 H44 Mn8 N4 O35)n'
_symmetry_cell_setting           triclinic
_symmetry_space_group_name_H-M   'P 1'
_symmetry_Int_Tables_number      1
_space_group_name_Hall           'P 1'
loop_
_symmetry_equiv_pos_site_id
_symmetry_equiv_pos_as_xyz
1 x,y,z
_cell_length_a                   9.5267(5)
_cell_length_b                   11.6780(6)
_cell_length_c                   17.2749(9)
_cell_angle_alpha                90
_cell_angle_beta                 92.9340(10)
_cell_angle_gamma                90
_cell_volume                     1919.36
loop_
_atom_site_label
_atom_site_type_symbol
_atom_site_fract_x
_atom_site_fract_y
_atom_site_fract_z
Mn5 Mn -0.0000 -0.0000 0.5000
Mn5_2 Mn -0.0000 1.0000 0.5000
Mn12 Mn 0.03035(5) 0.80092(4) 0.33622(3)
Mn5_3 Mn 1.0000 -0.0000 0.5000
O21 O 0.0865(2) 0.1564(2) 0.55293(14)
Mn7 Mn 0.5000 0.5000 0.0000
Mn2 Mn 0.53035(5) 0.69908(4) 0.83622(3)
O1 O 0.9135(2) 0.8436(2) 0.44707(14)
O2 O 0.1983(3) 0.9253(3) 0.49601(18)
O3 O 0.5095(4) 0.5321(3) 0.79308(16)
O4 O 0.4920(4) 0.4064(3) 0.88912(15)
O5 O 0.2379(3) 0.8312(3) 0.38808(16)
O6 O 0.4960(4) 0.7793(3) 0.72384(16)
O7 O 0.7692(3) 0.8116(3) 0.34645(16)
O8 O 0.7159(4) 0.7332(4) 0.70650(18)
O9 O 0.5275(5) 0.8659(3) 0.8929(2)
H1 H 0.4395 0.8900 0.9014
H2 H 0.5583 0.9221 0.8622
N1 N 0.4667(4) 0.3832(3) 0.68294(17)
C1 C 0.5342(3) 0.8468(3) 0.43904(17)
H3 H 0.5196 0.8602 0.3862
C2 C 0.6693(3) 0.8266(3) 0.47004(17)
C3 C 0.4207(3) 0.8472(3) 0.48638(17)
C4 C 0.6905(3) 0.8023(3) 0.54846(18)
H4 H 0.7809 0.7883 0.5692
C5 C 0.5768(3) 0.7989(3) 0.59638(18)
C6 C 0.4428(3) 0.8237(3) 0.56537(18)
H5 H 0.3672 0.8246 0.5974
C7 C 0.2740(3) 0.8702(3) 0.45356(19)
C8 C 0.7901(3) 0.8282(3) 0.41743(19)
C9 C 0.4924(4) 0.4761(3) 0.5391(2)
C10 C 0.4897(4) 0.4358(3) 0.82016(19)
C11 C 0.5995(4) 0.7676(3) 0.6814(2)
C12 C 0.6056(4) 0.4262(4) 0.5796(2)
H6 H 0.6924 0.4224 0.5574
C13 C 0.5902(5) 0.3823(4) 0.6522(2)
H7 H 0.6676 0.3517 0.6800
C14 C 0.4549(6) 0.3400(3) 0.7626(2)
H8 H 0.5193 0.2765 0.7720
H9 H 0.3601 0.3126 0.7692
C15 C 0.3551(5) 0.4296(6) 0.6467(3)
H10 H 0.2692 0.4303 0.6701
C16 C 0.3665(5) 0.4771(6) 0.5740(3)
H11 H 0.2881 0.5099 0.5485
O10 O 0.4905(4) 0.4679(3) 0.20692(16)
O11 O 0.5080(4) 0.5936(3) 0.11088(15)
N2 N 0.5333(4) 0.6168(3) 0.31706(17)
C17 C 0.5076(4) 0.5239(3) 0.4609(2)
C18 C 0.5103(4) 0.5642(3) 0.17984(19)
C19 C 0.3944(4) 0.5738(4) 0.4204(2)
H12 H 0.3076 0.5776 0.4426
C20 C 0.4098(5) 0.6177(4) 0.3478(2)
H13 H 0.3324 0.6483 0.3200
C21 C 0.5451(6) 0.6600(3) 0.2374(2)
H14 H 0.4807 0.7235 0.2280
H15 H 0.6399 0.6874 0.2308
C22 C 0.6449(5) 0.5704(6) 0.3533(3)
H16 H 0.7308 0.5697 0.3299
C23 C 0.6335(5) 0.5229(6) 0.4260(3)
H17 H 0.7119 0.4901 0.4515
Mn5_4 Mn 1.0000 1.0000 0.5000
Mn7_2 Mn 0.5000 0.5000 1.0000
Mn10 Mn 0.46965(5) 0.30092(4) 0.16378(3)
O22 O 0.4135(2) 0.6564(2) 0.94707(14)
O24 O 0.0080(4) 0.9064(3) 0.61088(15)
O27 O 0.7379(3) 0.6688(3) 0.88808(16)
O13 O 0.8017(3) 0.0747(3) 0.50399(18)
O14 O 0.7621(3) 0.1688(3) 0.61192(16)
O15 O 0.5040(4) 0.2207(3) 0.27616(16)
O16 O 0.2308(3) 0.1884(3) 0.65355(16)
O17 O 0.2841(4) 0.2668(4) 0.29350(18)
O18 O 0.4725(5) 0.1341(3) 0.1071(2)
H18 H 0.5605 0.1100 0.0986
H19 H 0.4417 0.0779 0.1378
C24 C 0.4658(3) 0.1532(3) 0.56096(17)
H20 H 0.4804 0.1398 0.6138
C25 C 0.3307(3) 0.1734(3) 0.52996(17)
C26 C 0.5793(3) 0.1528(3) 0.51362(17)
C27 C 0.3095(3) 0.1977(3) 0.45154(18)
H21 H 0.2191 0.2117 0.4308
C28 C 0.4232(3) 0.2011(3) 0.40362(18)
C29 C 0.5572(3) 0.1763(3) 0.43463(18)
H22 H 0.6328 0.1754 0.4026
C30 C 0.7260(3) 0.1298(3) 0.54644(19)
C31 C 0.2099(3) 0.1718(3) 0.58257(19)
C32 C 0.4005(4) 0.2324(3) 0.3186(2)
Mn9 Mn 0.96965(5) 0.19908(4) 0.66378(3)
O20 O 0.5865(2) 0.3436(2) 0.05293(14)
O25 O 0.9920(4) 0.0936(3) 0.38912(15)
O26 O 0.2621(3) 0.3312(3) 0.11192(16)
O17_2 O 0.2159(4) 0.7668(4) 0.20650(18)
O18_2 O 0.0275(5) 0.6341(3) 0.3929(2)
H19_2 H 0.0583 0.5779 0.3622
C27_2 C 0.1905(3) 0.6977(3) 0.04846(18)
H21_2 H 0.2809 0.7117 0.0692
C28_2 C 0.0768(3) 0.7011(3) 0.09638(18)
C32_2 C 0.0995(4) 0.7324(3) 0.1814(2)
O23 O 0.0095(4) 0.9679(3) 0.29308(16)
O16_2 O 0.2692(3) 0.6884(3) 0.84645(16)
C24_2 C 0.0342(3) 0.6532(3) 0.93904(17)
H20_2 H 0.0196 0.6398 0.8862
C25_2 C 0.1693(3) 0.6734(3) 0.97004(17)
C31_2 C 0.2901(3) 0.6718(3) 0.91743(19)
O2_2 O 0.3017(3) 0.4253(3) 0.00399(18)
C3_2 C 0.0793(3) 0.3472(3) 0.01362(17)
C7_2 C 0.2260(3) 0.3702(3) 0.04644(19)
C19_2 C 0.1056(4) 0.0738(4) 0.0796(2)
H12_2 H 0.1924 0.0776 0.0574
C20_2 C 0.0902(5) 0.1177(4) 0.1522(2)
H13_2 H 0.1676 0.1483 0.1800
H14_2 H 0.0193 0.2235 0.2720
O15_2 O 0.9960(4) 0.7207(3) 0.22384(16)
H18_2 H 0.9395 0.6100 0.4014
C29_2 C 0.9428(3) 0.6763(3) 0.06537(18)
H22_2 H 0.8672 0.6754 0.0974
O6_2 O 0.0040(4) 0.2793(3) 0.77616(16)
H1_2 H 0.0605 0.3900 0.5986
C6_2 C 0.0572(3) 0.3237(3) 0.93463(18)
H5_2 H 0.1328 0.3246 0.9026
H11_2 H 0.2119 0.0099 0.9515
O13_2 O 0.6983(3) 0.5747(3) 0.99601(18)
C26_2 C 0.9207(3) 0.6528(3) 0.98638(17)
C30_2 C 0.7740(3) 0.6298(3) 0.95356(19)
N1_2 N 0.0333(4) 0.8832(3) 0.81706(17)
C9_2 C 0.0076(4) 0.9761(3) 0.9609(2)
C10_2 C 0.0103(4) 0.9358(3) 0.67984(19)
C14_2 C 0.0451(6) 0.8400(3) 0.7374(2)
H9_2 H 0.1399 0.8126 0.7308
C15_2 C 0.1449(5) 0.9296(6) 0.8533(3)
H10_2 H 0.2308 0.9303 0.8299
C16_2 C 0.1335(5) 0.9771(6) 0.9260(3)
O7_2 O 0.7308(3) 0.3116(3) 0.15355(16)
C1_2 C 0.9658(3) 0.3468(3) 0.06096(17)
H3_2 H 0.9804 0.3602 0.1138
C2_2 C 0.8307(3) 0.3266(3) 0.02996(17)
C8_2 C 0.7099(3) 0.3282(3) 0.08257(19)
N2_2 N 0.9667(4) 0.1168(3) 0.18294(17)
C17_2 C 0.9924(4) 0.0239(3) 0.0391(2)
C18_2 C 0.9897(4) 0.0642(3) 0.32016(19)
C21_2 C 0.9549(6) 0.1600(3) 0.2626(2)
H15_2 H 0.8601 0.1874 0.2692
C22_2 C 0.8551(5) 0.0704(6) 0.1467(3)
H16_2 H 0.7692 0.0697 0.1701
C23_2 C 0.8665(5) 0.0229(6) 0.0740(3)
O3_2 O 0.9905(4) 0.0321(3) 0.70692(16)
O8_2 O 0.7841(4) 0.2332(4) 0.79350(18)
O9_2 O 0.9725(5) 0.3659(3) 0.6071(2)
H2_2 H 0.9417 0.4221 0.6378
C4_2 C 0.8095(3) 0.3023(3) 0.95154(18)
H4_2 H 0.7191 0.2883 0.9308
C5_2 C 0.9232(3) 0.2989(3) 0.90362(18)
C11_2 C 0.9005(4) 0.2676(3) 0.8186(2)
H17_2 H 0.7881 0.9901 0.0485
C12_2 C 0.8944(4) 0.9262(4) 0.9204(2)
H6_2 H 0.8076 0.9224 0.9426
C13_2 C 0.9098(5) 0.8823(4) 0.8478(2)
H7_2 H 0.8324 0.8517 0.8200
H8_2 H 0.9807 0.7765 0.7280
loop_
_geom_bond_atom_site_label_1
_geom_bond_atom_site_label_2
_geom_bond_site_symmetry_1
_geom_bond_site_symmetry_2
O21 Mn5 1_555 1_555
Mn5_2 O2 1_555 1_555
Mn2 O3 1_555 1_555
O1 C8 1_555 1_555
O2 C7 1_555 1_555
O3 C10 1_555 1_555
O4 C10 1_555 1_555
O5 C7 1_555 1_555
O6 Mn2 1_555 1_555
O7 C8 1_555 1_555
O8 C11 1_555 1_555
O9 Mn2 1_555 1_555
H1 O9 1_555 1_555
H2 O9 1_555 1_555
N1 C13 1_555 1_555
C1 H3 1_555 1_555
C2 C1 1_555 1_555
C3 C1 1_555 1_555
C4 C2 1_555 1_555
H4 C4 1_555 1_555
C5 C4 1_555 1_555
C6 C3 1_555 1_555
H5 C6 1_555 1_555
C7 C3 1_555 1_555
C8 C2 1_555 1_555
C9 C12 1_555 1_555
C10 C14 1_555 1_555
C11 O6 1_555 1_555
C12 H6 1_555 1_555
C13 C12 1_555 1_555
H7 C13 1_555 1_555
C14 N1 1_555 1_555
H8 C14 1_555 1_555
H9 C14 1_555 1_555
C15 N1 1_555 1_555
H10 C15 1_555 1_555
C16 C9 1_555 1_555
H11 C16 1_555 1_555
O10 C18 1_555 1_555
O11 C18 1_555 1_555
N2 C20 1_555 1_555
C17 C9 1_555 1_555
C18 C21 1_555 1_555
C19 C17 1_555 1_555
H12 C19 1_555 1_555
C20 C19 1_555 1_555
H13 C20 1_555 1_555
C21 N2 1_555 1_555
H14 C21 1_555 1_555
H15 C21 1_555 1_555
C22 N2 1_555 1_555
H16 C22 1_555 1_555
C23 C17 1_555 1_555
H17 C23 1_555 1_555
Mn5_4 O1 1_555 1_555
Mn7 O11 1_555 1_555
Mn7_2 O4 1_555 1_555
Mn10 O10 1_555 1_555
Mn12 O5 1_555 1_555
O22 Mn2 1_555 1_555
O24 Mn5_2 1_555 1_555
O27 Mn2 1_555 1_555
C5 C6 1_555 1_555
C5 C11 1_555 1_555
C15 C16 1_555 1_555
C22 C23 1_555 1_555
Mn7_2 O22 1_555 1_555
Mn10 O15 1_555 1_555
O21 C31 1_555 1_555
O13 Mn5_3 1_555 1_555
O14 C30 1_555 1_555
O15 C32 1_555 1_555
O16 C31 1_555 1_555
O17 C32 1_555 1_555
O18 Mn10 1_555 1_555
H18 O18 1_555 1_555
H19 O18 1_555 1_555
C24 H20 1_555 1_555
C25 C24 1_555 1_555
C26 C24 1_555 1_555
C27 C25 1_555 1_555
H21 C27 1_555 1_555
C28 C27 1_555 1_555
C29 C26 1_555 1_555
H22 C29 1_555 1_555
C30 O13 1_555 1_555
C31 C25 1_555 1_555
C32 C28 1_555 1_555
Mn9 O14 1_555 1_555
O20 Mn10 1_555 1_555
O25 Mn5_3 1_555 1_555
O26 Mn10 1_555 1_555
C26 C30 1_555 1_555
C28 C29 1_555 1_555
O17_2 C32_2 1_555 1_555
O18_2 Mn12 1_555 1_555
H19_2 O18_2 1_555 1_555
H21_2 C27_2 1_555 1_555
C28_2 C27_2 1_555 1_555
C32_2 C28_2 1_555 1_555
O23 Mn12 1_555 1_555
O22 C31_2 1_555 1_555
O16_2 C31_2 1_555 1_555
C24_2 H20_2 1_555 1_555
C25_2 C24_2 1_555 1_555
C31_2 C25_2 1_555 1_555
Mn7 O2_2 1_555 1_555
O2_2 C7_2 1_555 1_555
O26 C7_2 1_555 1_555
C7_2 C3_2 1_555 1_555
H12_2 C19_2 1_555 1_555
C20_2 C19_2 1_555 1_555
H13_2 C20_2 1_555 1_555
H22_2 C29_2 1_555 1_555
O20 Mn7 1_555 1_555
H5_2 C6_2 1_555 1_555
O13_2 Mn7_2 1_555 1_555
O27 C30_2 1_555 1_555
C30_2 O13_2 1_555 1_555
C26_2 C30_2 1_555 1_555
O24 C10_2 1_555 1_555
C10_2 C14_2 1_555 1_555
C14_2 N1_2 1_555 1_555
H9_2 C14_2 1_555 1_555
C15_2 N1_2 1_555 1_555
H10_2 C15_2 1_555 1_555
C16_2 C9_2 1_555 1_555
C15_2 C16_2 1_555 1_555
O20 C8_2 1_555 1_555
O7_2 C8_2 1_555 1_555
C1_2 H3_2 1_555 1_555
C2_2 C1_2 1_555 1_555
C8_2 C2_2 1_555 1_555
O25 C18_2 1_555 1_555
C18_2 C21_2 1_555 1_555
C21_2 N2_2 1_555 1_555
H15_2 C21_2 1_555 1_555
C22_2 N2_2 1_555 1_555
H16_2 C22_2 1_555 1_555
C23_2 C17_2 1_555 1_555
C22_2 C23_2 1_555 1_555
Mn9 O3_2 1_555 1_555
O8_2 C11_2 1_555 1_555
O9_2 Mn9 1_555 1_555
H2_2 O9_2 1_555 1_555
H4_2 C4_2 1_555 1_555
C5_2 C4_2 1_555 1_555
C5_2 C11_2 1_555 1_555
C12_2 H6_2 1_555 1_555
C13_2 C12_2 1_555 1_555
H7_2 C13_2 1_555 1_555

#END
