
###############################################################################
#
# This file contains modified crystal structure data generated from the
# MOF subset of the Cambridge Structural Database (CSD) v543 
# hosted by the Cambridge Crystallographic Data Centre (CCDC).
#
# This work is licensed under the Creative Commons
# Attribution-NonCommercial-ShareAlike 4.0 International License.
# To view a copy of this license, visit
# http://creativecommons.org/licenses/by-nc-sa/4.0/
# or send a letter to
# Creative Commons, PO Box 1866, Mountain View, CA 94042, USA.
#
# CIF created using the CSD Python API on 29 September 2022
# The structure has been converted into the P1 space group
# The structure has a 3D framework
# The original CSD entry CUPSEO is in the hexagonal crystal system
# The original CSD entry CUPSEO is in a Sohncke space group
# The framework has been calculated to contain at least 10.0% void space
# The void calculation uses a probe of radius 1.32A, grid spacing 0.4
# H atom positions have been added when not included in the experimental data
#
###############################################################################

data_CUPSEO
_chemical_formula_moiety         '(C60 H72 Ca2 Cu9 N12 O44 S6)n'
_symmetry_cell_setting           triclinic
_symmetry_space_group_name_H-M   'P 1'
_symmetry_Int_Tables_number      1
_space_group_name_Hall           'P 1'
loop_
_symmetry_equiv_pos_site_id
_symmetry_equiv_pos_as_xyz
1 x,y,z
_cell_length_a                   17.7932(12)
_cell_length_b                   17.7932(12)
_cell_length_c                   12.7581(8)
_cell_angle_alpha                90
_cell_angle_beta                 90
_cell_angle_gamma                120
_cell_volume                     3498.04
loop_
_atom_site_label
_atom_site_type_symbol
_atom_site_fract_x
_atom_site_fract_y
_atom_site_fract_z
N2 N 0.0991(6) 0.5050(8) 0.2349(8)
O4 O 0.2387(5) 0.5614(5) 0.1264(6)
O5 O 0.0222(5) 0.5738(6) 0.1392(7)
O7 O 0.2921(6) 0.4921(6) 0.2185(7)
C3 C 0.2328(9) 0.5104(10) 0.2047(11)
C4 C 0.1535(11) 0.4667(10) 0.2627(11)
H2 H 0.170241 0.482700 0.337708
C5 C 0.0217(9) 0.4831(9) 0.2703(9)
C7 C 0.1156(12) 0.3678(10) 0.257(2)
H3 H 0.161472 0.353388 0.272033
H4 H 0.069122 0.338754 0.310093
O8 O 0.0811(11) 0.3385(10) 0.155(3)
Cu8 Cu 0.13656(9) 0.58195(9) 0.12092(7)
Cu10 Cu 0.41805(9) 0.55461(13) 0.12092(7)
H34 H 0.127999 0.367611 0.102208
Ca4 Ca 0.333333 0.666667 0.9908(4)
Ca1 Ca 0.666667 0.333333 0.4908(4)
Cu1 Cu 0.86332(9) 0.42046(9) 0.36217(7)
Cu2 Cu 0.86344(9) 0.41805(9) 0.62092(7)
N1 N 0.9045(6) 0.5029(7) 0.2472(8)
O1 O 0.8226(3) 0.3580(3) 0.4894(8)
O2 O 0.7630(5) 0.4383(5) 0.3547(6)
O3 O 0.9825(5) 0.4289(6) 0.3498(7)
O6 O 0.7054(8) 0.5044(8) 0.2623(8)
C1 C 0.8446(7) 0.5280(9) 0.2041(10)
H1 H 0.872033 0.592553 0.199877
C2 C 0.7654(8) 0.4878(10) 0.2862(11)
C6 C 0.9794(7) 0.5246(7) 0.2099(9)
C8 C 0.8097(13) 0.4838(19) 0.0913(13)
H5 H 0.858148 0.517237 0.041956
H6 H 0.763579 0.496930 0.072177
C9 C 0.7720(16) 0.3836(19) 0.061(2)
H8 H 0.730577 0.345519 0.114793
C10 C 0.9163(12) 0.3045(17) 0.111(2)
H9 H 0.969038 0.317911 0.072376
H10 H 0.931305 0.322643 0.184511
H11 H 0.875579 0.241835 0.108669
S1 S 0.8648(17) 0.3636(19) 0.051(2)
Cu3 Cu 0.57954(9) 0.44286(13) 0.36217(7)
Cu4 Cu 0.58195(9) 0.44539(13) 0.62092(7)
N3 N 0.4971(7) 0.4016(9) 0.2472(8)
N4 N 0.4950(8) 0.5941(10) 0.2349(8)
O9 O 0.6420(3) 0.4646(4) 0.4894(8)
O10 O 0.5617(5) 0.3247(7) 0.3547(6)
O11 O 0.5711(6) 0.5536(8) 0.3498(7)
O12 O 0.4386(5) 0.6773(7) 0.1264(6)
O13 O 0.4262(6) 0.4484(8) 0.1392(7)
O14 O 0.4956(8) 0.2010(11) 0.2623(8)
O15 O 0.5079(6) 0.8000(8) 0.2185(7)
C11 C 0.4720(9) 0.3166(11) 0.2041(10)
H12 H 0.407447 0.279480 0.199877
C12 C 0.5122(10) 0.2776(13) 0.2862(11)
C13 C 0.4896(10) 0.7224(13) 0.2047(11)
C14 C 0.5333(10) 0.6868(15) 0.2627(11)
H13 H 0.517300 0.687541 0.337708
C15 C 0.5169(9) 0.5386(13) 0.2703(9)
C16 C 0.4754(7) 0.4548(10) 0.2099(9)
C17 C 0.6322(10) 0.7478(16) 0.257(2)
H14 H 0.646612 0.808084 0.272033
H15 H 0.661246 0.730368 0.310093
O16 O 0.6615(10) 0.7426(15) 0.155(3)
C18 C 0.5162(19) 0.3259(23) 0.0913(13)
H16 H 0.482763 0.340911 0.041956
H17 H 0.503070 0.266649 0.072177
C19 C 0.6164(19) 0.3884(25) 0.061(2)
H19 H 0.654481 0.385058 0.114793
C20 C 0.6955(17) 0.6118(21) 0.111(2)
H20 H 0.682089 0.651127 0.072376
H21 H 0.677357 0.608662 0.184511
H22 H 0.758165 0.633744 0.108669
S2 S 0.6364(19) 0.5012(25) 0.051(2)
Cu5 Cu 0.55714(13) 0.13668(9) 0.36217(7)
Cu6 Cu 0.55461(13) 0.13656(9) 0.62092(7)
N5 N 0.5984(9) 0.0955(6) 0.2472(8)
O17 O 0.5354(4) 0.1774(3) 0.4894(8)
O18 O 0.6753(7) 0.2370(5) 0.3547(6)
O19 O 0.4464(8) 0.0175(5) 0.3498(7)
O22 O 0.7990(11) 0.2946(8) 0.2623(8)
C21 C 0.6834(11) 0.1554(7) 0.2041(10)
H23 H 0.720520 0.127967 0.199877
C22 C 0.7224(13) 0.2346(8) 0.2862(11)
C26 C 0.5452(10) 0.0206(7) 0.2099(9)
C28 C 0.6741(23) 0.1903(13) 0.0913(13)
H27 H 0.659089 0.141852 0.041956
H28 H 0.733351 0.236421 0.072177
C29 C 0.6116(25) 0.2280(16) 0.061(2)
H30 H 0.614942 0.269423 0.114793
C30 C 0.3882(21) 0.0837(12) 0.111(2)
H31 H 0.348873 0.030962 0.072376
H32 H 0.391338 0.068695 0.184511
H33 H 0.366256 0.124421 0.108669
S3 S 0.4988(25) 0.1352(17) 0.051(2)
Cu12 Cu 0.44539(13) 0.86344(9) 0.12092(7)
N7 N 0.9009(6) 0.4950(8) 0.7349(8)
N8 N 0.5050(8) 0.4059(10) 0.7349(8)
N9 N 0.5941(10) 0.0991(6) 0.7349(8)
O25 O 0.7613(5) 0.4386(5) 0.6264(6)
O26 O 0.5614(5) 0.3227(7) 0.6264(6)
O27 O 0.6773(7) 0.2387(5) 0.6264(6)
O28 O 0.9778(5) 0.4262(6) 0.6392(7)
O29 O 0.5738(6) 0.5516(8) 0.6392(7)
O30 O 0.4484(8) 0.0222(5) 0.6392(7)
O31 O 0.7079(6) 0.5079(6) 0.7185(7)
O32 O 0.4921(6) 0.2000(8) 0.7185(7)
O33 O 0.8000(8) 0.2921(6) 0.7185(7)
H35 H 0.632389 0.760388 0.102208
H7 H 0.741205 0.370762 0.992683
H18 H 0.629238 0.370443 0.992683
H29 H 0.629557 0.258795 0.992683
N6 N 0.4059(10) 0.9009(6) 0.2349(8)
O20 O 0.3227(7) 0.7613(5) 0.1264(6)
O21 O 0.5516(8) 0.9778(5) 0.1392(7)
O23 O 0.2000(8) 0.7079(6) 0.2185(7)
C23 C 0.2776(13) 0.7672(9) 0.2047(11)
C24 C 0.3132(15) 0.8465(11) 0.2627(11)
H24 H 0.312459 0.829759 0.337708
C25 C 0.4614(13) 0.9783(9) 0.2703(9)
C27 C 0.2522(16) 0.8844(12) 0.257(2)
H25 H 0.191916 0.838528 0.272033
H26 H 0.269632 0.930878 0.310093
O24 O 0.2574(15) 0.9189(11) 0.155(3)
H36 H 0.239612 0.872001 0.102208
C23_2 C 0.7224(13) 0.2328(9) 0.7047(11)
C24_2 C 0.6868(15) 0.1535(11) 0.7627(11)
H24_2 H 0.687541 0.170241 0.837708
C25_2 C 0.5386(13) 0.0217(9) 0.7703(9)
C27_2 C 0.7478(16) 0.1156(12) 0.757(2)
H25_2 H 0.808084 0.161472 0.772033
H26_2 H 0.730368 0.069122 0.810093
O24_2 O 0.7426(15) 0.0811(11) 0.655(3)
H36_2 H 0.760388 0.127999 0.602208
Cu1_2 Cu 0.13668(9) 0.57954(9) 0.86217(7)
N1_2 N 0.0955(6) 0.4971(7) 0.7472(8)
O1_2 O 0.1774(3) 0.6420(3) 0.9894(8)
O2_2 O 0.2370(5) 0.5617(5) 0.8547(6)
O3_2 O 0.0175(5) 0.5711(6) 0.8498(7)
O6_2 O 0.2946(8) 0.4956(8) 0.7623(8)
C1_2 C 0.1554(7) 0.4720(9) 0.7041(10)
H1_2 H 0.127967 0.407447 0.699877
C2_2 C 0.2346(8) 0.5122(10) 0.7862(11)
C6_2 C 0.0206(7) 0.4754(7) 0.7099(9)
C8_2 C 0.1903(13) 0.5162(19) 0.5913(13)
H5_2 H 0.141852 0.482763 0.541956
H6_2 H 0.236421 0.503070 0.572177
C9_2 C 0.2280(16) 0.6164(19) 0.561(2)
H7_2 H 0.258795 0.629238 0.492683
H8_2 H 0.269423 0.654481 0.614793
C10_2 C 0.0837(12) 0.6955(17) 0.611(2)
H9_2 H 0.030962 0.682089 0.572376
H10_2 H 0.068695 0.677357 0.684511
H11_2 H 0.124421 0.758165 0.608669
S1_2 S 0.1352(17) 0.6364(19) 0.551(2)
Cu3_2 Cu 0.42046(9) 0.55714(13) 0.86217(7)
N3_2 N 0.5029(7) 0.5984(9) 0.7472(8)
O9_2 O 0.3580(3) 0.5354(4) 0.9894(8)
O10_2 O 0.4383(5) 0.6753(7) 0.8547(6)
O11_2 O 0.4289(6) 0.4464(8) 0.8498(7)
O14_2 O 0.5044(8) 0.7990(11) 0.7623(8)
C11_2 C 0.5280(9) 0.6834(11) 0.7041(10)
H12_2 H 0.592553 0.720520 0.699877
C12_2 C 0.4878(10) 0.7224(13) 0.7862(11)
C13_2 C 0.5104(10) 0.2776(13) 0.7047(11)
C14_2 C 0.4667(10) 0.3132(15) 0.7627(11)
H13_2 H 0.482700 0.312459 0.837708
C15_2 C 0.4831(9) 0.4614(13) 0.7703(9)
C16_2 C 0.5246(7) 0.5452(10) 0.7099(9)
C17_2 C 0.3678(10) 0.2522(16) 0.757(2)
H14_2 H 0.353388 0.191916 0.772033
H15_2 H 0.338754 0.269632 0.810093
O16_2 O 0.3385(10) 0.2574(15) 0.655(3)
C18_2 C 0.4838(19) 0.6741(23) 0.5913(13)
H16_2 H 0.517237 0.659089 0.541956
H17_2 H 0.496930 0.733351 0.572177
C19_2 C 0.3836(19) 0.6116(25) 0.561(2)
H18_2 H 0.370762 0.629557 0.492683
H19_2 H 0.345519 0.614942 0.614793
C20_2 C 0.3045(17) 0.3882(21) 0.611(2)
H20_2 H 0.317911 0.348873 0.572376
H21_2 H 0.322643 0.391338 0.684511
H22_2 H 0.241835 0.366256 0.608669
S2_2 S 0.3636(19) 0.4988(25) 0.551(2)
Cu5_2 Cu 0.44286(13) 0.86332(9) 0.86217(7)
N5_2 N 0.4016(9) 0.9045(6) 0.7472(8)
O17_2 O 0.4646(4) 0.8226(3) 0.9894(8)
O18_2 O 0.3247(7) 0.7630(5) 0.8547(6)
O19_2 O 0.5536(8) 0.9825(5) 0.8498(7)
O22_2 O 0.2010(11) 0.7054(8) 0.7623(8)
C21_2 C 0.3166(11) 0.8446(7) 0.7041(10)
H23_2 H 0.279480 0.872033 0.699877
C22_2 C 0.2776(13) 0.7654(8) 0.7862(11)
C26_2 C 0.4548(10) 0.9794(7) 0.7099(9)
C28_2 C 0.3259(23) 0.8097(13) 0.5913(13)
H27_2 H 0.340911 0.858148 0.541956
H28_2 H 0.266649 0.763579 0.572177
C29_2 C 0.3884(25) 0.7720(16) 0.561(2)
H29_2 H 0.370443 0.741205 0.492683
H30_2 H 0.385058 0.730577 0.614793
C30_2 C 0.6118(21) 0.9163(12) 0.611(2)
H31_2 H 0.651127 0.969038 0.572376
H32_2 H 0.608662 0.931305 0.684511
H33_2 H 0.633744 0.875579 0.608669
S3_2 S 0.5012(25) 0.8648(17) 0.551(2)
H35_2 H 0.367611 0.239612 0.602208
C3_2 C 0.7672(9) 0.4896(10) 0.7047(11)
C4_2 C 0.8465(11) 0.5333(10) 0.7627(11)
H2_2 H 0.829759 0.517300 0.837708
C5_2 C 0.9783(9) 0.5169(9) 0.7703(9)
C7_2 C 0.8844(12) 0.6322(10) 0.757(2)
H3_2 H 0.838528 0.646612 0.772033
H4_2 H 0.930878 0.661246 0.810093
O8_2 O 0.9189(11) 0.6615(10) 0.655(3)
H34_2 H 0.872001 0.632389 0.602208
loop_
_geom_bond_atom_site_label_1
_geom_bond_atom_site_label_2
_geom_bond_site_symmetry_1
_geom_bond_site_symmetry_2
N2 C4 1_555 1_555
O4 C3 1_555 1_555
O7 C3 1_555 1_555
C3 C4 1_555 1_555
C4 H2 1_555 1_555
C5 N2 1_555 1_555
C7 C4 1_555 1_555
H3 C7 1_555 1_555
H4 C7 1_555 1_555
O8 C7 1_555 1_555
Cu8 N2 1_555 1_555
Cu10 O7 1_555 1_555
O4 Cu8 1_555 1_555
O5 Cu8 1_555 1_555
O8 H34 1_555 1_555
Ca1 O1 1_555 1_555
Cu1 N1 1_555 1_555
Cu2 O1 1_555 1_555
N1 C1 1_555 1_555
O1 Cu1 1_555 1_555
O2 Ca1 1_555 1_555
O3 Cu1 1_555 1_555
O6 C2 1_555 1_555
C1 H1 1_555 1_555
C2 O2 1_555 1_555
C6 N1 1_555 1_555
C8 C1 1_555 1_555
H5 C8 1_555 1_555
H6 C8 1_555 1_555
C9 C8 1_555 1_555
H8 C9 1_555 1_555
C10 H9 1_555 1_555
H10 C10 1_555 1_555
H11 C10 1_555 1_555
S1 C9 1_555 1_555
Cu3 O6 1_555 1_555
Cu4 O9 1_555 1_555
N3 Cu3 1_555 1_555
N4 C14 1_555 1_555
O9 Ca1 1_555 1_555
O10 Ca1 1_555 1_555
O11 Cu3 1_555 1_555
O12 C13 1_555 1_555
O13 C16 1_555 1_555
O14 C12 1_555 1_555
O15 C13 1_555 1_555
C11 N3 1_555 1_555
H12 C11 1_555 1_555
C12 O10 1_555 1_555
C13 C14 1_555 1_555
C14 H13 1_555 1_555
C15 N4 1_555 1_555
C16 N3 1_555 1_555
C17 C14 1_555 1_555
H14 C17 1_555 1_555
H15 C17 1_555 1_555
O16 C17 1_555 1_555
C18 C11 1_555 1_555
H16 C18 1_555 1_555
H17 C18 1_555 1_555
C19 C18 1_555 1_555
H19 C19 1_555 1_555
C20 H20 1_555 1_555
H21 C20 1_555 1_555
H22 C20 1_555 1_555
S2 C19 1_555 1_555
Cu5 O14 1_555 1_555
Cu6 O17 1_555 1_555
N5 Cu5 1_555 1_555
O17 Ca1 1_555 1_555
O18 Ca1 1_555 1_555
O19 Cu5 1_555 1_555
O22 Cu1 1_555 1_555
C21 N5 1_555 1_555
H23 C21 1_555 1_555
C22 O18 1_555 1_555
C26 N5 1_555 1_555
C28 C21 1_555 1_555
H27 C28 1_555 1_555
H28 C28 1_555 1_555
C29 C28 1_555 1_555
H30 C29 1_555 1_555
C30 H31 1_555 1_555
H32 C30 1_555 1_555
H33 C30 1_555 1_555
S3 C29 1_555 1_555
Cu10 N4 1_555 1_555
Cu12 O15 1_555 1_555
N7 Cu2 1_555 1_555
N8 Cu4 1_555 1_555
N9 Cu6 1_555 1_555
O25 Ca1 1_555 1_555
O26 Ca1 1_555 1_555
O27 Ca1 1_555 1_555
O28 Cu2 1_555 1_555
O29 Cu4 1_555 1_555
O30 Cu6 1_555 1_555
O31 Cu4 1_555 1_555
O32 Cu6 1_555 1_555
O33 Cu2 1_555 1_555
Cu1 O2 1_555 1_555
Cu2 O25 1_555 1_555
C1 C2 1_555 1_555
C10 S1 1_555 1_555
Cu3 O9 1_555 1_555
Cu3 O10 1_555 1_555
Cu4 O26 1_555 1_555
O11 C15 1_555 1_555
O12 Cu10 1_555 1_555
O13 Cu10 1_555 1_555
C11 C12 1_555 1_555
C15 C16 1_555 1_555
C20 S2 1_555 1_555
Cu5 O17 1_555 1_555
Cu5 O18 1_555 1_555
Cu6 O27 1_555 1_555
O22 C22 1_555 1_555
C21 C22 1_555 1_555
C30 S3 1_555 1_555
O16 H35 1_555 1_555
N6 C24 1_555 1_555
O20 C23 1_555 1_555
O23 C23 1_555 1_555
C23 C24 1_555 1_555
C24 H24 1_555 1_555
C25 N6 1_555 1_555
C27 C24 1_555 1_555
H25 C27 1_555 1_555
H26 C27 1_555 1_555
O24 C27 1_555 1_555
Cu8 O23 1_555 1_555
Cu12 N6 1_555 1_555
O20 Cu12 1_555 1_555
O21 Cu12 1_555 1_555
O24 H36 1_555 1_555
N9 C24_2 1_555 1_555
O27 C23_2 1_555 1_555
O33 C23_2 1_555 1_555
C23_2 C24_2 1_555 1_555
C24_2 H24_2 1_555 1_555
C25_2 N9 1_555 1_555
C27_2 C24_2 1_555 1_555
H25_2 C27_2 1_555 1_555
H26_2 C27_2 1_555 1_555
O24_2 C27_2 1_555 1_555
O24_2 H36_2 1_555 1_555
Ca4 O1_2 1_555 1_555
Cu1_2 N1_2 1_555 1_555
N1_2 C1_2 1_555 1_555
O1_2 Cu1_2 1_555 1_555
O2_2 Ca4 1_555 1_555
O3_2 Cu1_2 1_555 1_555
O6_2 C2_2 1_555 1_555
C1_2 H1_2 1_555 1_555
C2_2 O2_2 1_555 1_555
C6_2 N1_2 1_555 1_555
C8_2 C1_2 1_555 1_555
H5_2 C8_2 1_555 1_555
H6_2 C8_2 1_555 1_555
C9_2 C8_2 1_555 1_555
H7_2 C9_2 1_555 1_555
H8_2 C9_2 1_555 1_555
C10_2 H9_2 1_555 1_555
H10_2 C10_2 1_555 1_555
H11_2 C10_2 1_555 1_555
S1_2 C9_2 1_555 1_555
Cu3_2 O6_2 1_555 1_555
N3_2 Cu3_2 1_555 1_555
N8 C14_2 1_555 1_555
O9_2 Ca4 1_555 1_555
O10_2 Ca4 1_555 1_555
O11_2 Cu3_2 1_555 1_555
O26 C13_2 1_555 1_555
O29 C16_2 1_555 1_555
O14_2 C12_2 1_555 1_555
O32 C13_2 1_555 1_555
C11_2 N3_2 1_555 1_555
H12_2 C11_2 1_555 1_555
C12_2 O10_2 1_555 1_555
C13_2 C14_2 1_555 1_555
C14_2 H13_2 1_555 1_555
C15_2 N8 1_555 1_555
C16_2 N3_2 1_555 1_555
C17_2 C14_2 1_555 1_555
H14_2 C17_2 1_555 1_555
H15_2 C17_2 1_555 1_555
O16_2 C17_2 1_555 1_555
C18_2 C11_2 1_555 1_555
H16_2 C18_2 1_555 1_555
H17_2 C18_2 1_555 1_555
C19_2 C18_2 1_555 1_555
H18_2 C19_2 1_555 1_555
H19_2 C19_2 1_555 1_555
C20_2 H20_2 1_555 1_555
H21_2 C20_2 1_555 1_555
H22_2 C20_2 1_555 1_555
S2_2 C19_2 1_555 1_555
Cu5_2 O14_2 1_555 1_555
N5_2 Cu5_2 1_555 1_555
O17_2 Ca4 1_555 1_555
O18_2 Ca4 1_555 1_555
O19_2 Cu5_2 1_555 1_555
O22_2 Cu1_2 1_555 1_555
C21_2 N5_2 1_555 1_555
H23_2 C21_2 1_555 1_555
C22_2 O18_2 1_555 1_555
C26_2 N5_2 1_555 1_555
C28_2 C21_2 1_555 1_555
H27_2 C28_2 1_555 1_555
H28_2 C28_2 1_555 1_555
C29_2 C28_2 1_555 1_555
H29_2 C29_2 1_555 1_555
H30_2 C29_2 1_555 1_555
C30_2 H31_2 1_555 1_555
H32_2 C30_2 1_555 1_555
H33_2 C30_2 1_555 1_555
S3_2 C29_2 1_555 1_555
Cu1_2 O2_2 1_555 1_555
C1_2 C2_2 1_555 1_555
C10_2 S1_2 1_555 1_555
Cu3_2 O9_2 1_555 1_555
Cu3_2 O10_2 1_555 1_555
O11_2 C15_2 1_555 1_555
C11_2 C12_2 1_555 1_555
C15_2 C16_2 1_555 1_555
C20_2 S2_2 1_555 1_555
Cu5_2 O17_2 1_555 1_555
Cu5_2 O18_2 1_555 1_555
O22_2 C22_2 1_555 1_555
C21_2 C22_2 1_555 1_555
C30_2 S3_2 1_555 1_555
O16_2 H35_2 1_555 1_555
N7 C4_2 1_555 1_555
O25 C3_2 1_555 1_555
O31 C3_2 1_555 1_555
C3_2 C4_2 1_555 1_555
C4_2 H2_2 1_555 1_555
C5_2 N7 1_555 1_555
C7_2 C4_2 1_555 1_555
H3_2 C7_2 1_555 1_555
H4_2 C7_2 1_555 1_555
O8_2 C7_2 1_555 1_555
O8_2 H34_2 1_555 1_555

#END
