
###############################################################################
#
# This file contains modified crystal structure data generated from the
# MOF subset of the Cambridge Structural Database (CSD) v543 
# hosted by the Cambridge Crystallographic Data Centre (CCDC).
#
# This work is licensed under the Creative Commons
# Attribution-NonCommercial-ShareAlike 4.0 International License.
# To view a copy of this license, visit
# http://creativecommons.org/licenses/by-nc-sa/4.0/
# or send a letter to
# Creative Commons, PO Box 1866, Mountain View, CA 94042, USA.
#
# CIF created using the CSD Python API on 29 September 2022
# The structure has been converted into the P1 space group
# The structure has a 3D framework
# The original CSD entry CUSKOT is in the hexagonal crystal system
# The framework has been calculated to contain at least 10.0% void space
# The void calculation uses a probe of radius 1.32A, grid spacing 0.4
# The framework is charged, counterions have been retained in the structure
# H atom positions have been added when not included in the experimental data
#
###############################################################################

data_CUSKOT
_chemical_formula_moiety         '(C90 H78 Cl16 Fe6 K12 N6 O32 3-)n'
_symmetry_cell_setting           triclinic
_symmetry_space_group_name_H-M   'P 1'
_symmetry_Int_Tables_number      1
_space_group_name_Hall           'P 1'
loop_
_symmetry_equiv_pos_site_id
_symmetry_equiv_pos_as_xyz
1 x,y,z
_cell_length_a                   12.790(5)
_cell_length_b                   12.790(5)
_cell_length_c                   19.510(5)
_cell_angle_alpha                90
_cell_angle_beta                 90
_cell_angle_gamma                120
_cell_volume                     2763.94
loop_
_atom_site_label
_atom_site_type_symbol
_atom_site_fract_x
_atom_site_fract_y
_atom_site_fract_z
K1 K 0.000000 0.000000 0.500000
K1_2 K -0.000000 1.000000 0.500000
K1_3 K 1.000000 0.000000 0.500000
K1_4 K 1.000000 1.000000 0.500000
K1_5 K -0.000000 -0.000000 -0.000000
K1_6 K -0.000000 -0.000000 1.000000
K1_7 K 0.000000 1.000000 -0.000000
K1_8 K -0.000000 1.000000 1.000000
K1_9 K 1.000000 -0.000000 -0.000000
K1_10 K 1.000000 -0.000000 1.000000
K1_11 K 1.000000 1.000000 -0.000000
K1_12 K 1.000000 1.000000 1.000000
Cl1 Cl 0.000000 0.000000 0.5870(5)
Cl1_2 Cl -0.000000 1.000000 0.5870(5)
Cl1_3 Cl 1.000000 0.000000 0.5870(5)
Cl1_4 Cl 1.000000 1.000000 0.5870(5)
Cl1_5 Cl -0.000000 -0.000000 0.0870(5)
Cl1_6 Cl -0.000000 1.000000 0.0870(5)
Cl1_7 Cl 1.000000 -0.000000 0.0870(5)
Cl1_8 Cl 1.000000 1.000000 0.0870(5)
Cl1_9 Cl -0.000000 -0.000000 0.4130(5)
Cl1_10 Cl -0.000000 1.000000 0.4130(5)
Cl1_11 Cl 1.000000 -0.000000 0.4130(5)
Cl1_12 Cl 1.000000 1.000000 0.4130(5)
Cl1_13 Cl 0.000000 0.000000 0.9130(5)
Cl1_14 Cl -0.000000 1.000000 0.9130(5)
Cl1_15 Cl 1.000000 0.000000 0.9130(5)
Cl1_16 Cl 1.000000 1.000000 0.9130(5)
C43 C 0.2972(17) 0.0249(27) 0.750000
N3 N 0.285(2) 0.1127(30) 0.750000
H21 H 0.379184 0.050124 0.750000
C44 C 0.226(2) 0.131(4) 0.8120(15)
C45 C 0.226(2) 0.131(4) 0.6880(15)
H34 H 0.135462 0.0538045 0.682048
H35 H 0.220563 0.212716 0.694499
H36 H 0.279274 0.139724 0.642581
H37 H 0.279274 0.139724 0.857419
H38 H 0.220563 0.212716 0.805501
H39 H 0.135462 0.0538045 0.817952
C35 C 0.0339(4) 0.3219(7) 0.0008(2)
C36 C 0.0301(2) 0.5025(4) 0.96842(13)
C38 C 0.0639(3) 0.4141(5) 0.95590(16)
H16 H 0.055984 0.264310 0.991269
C39 C 0.0573(3) 0.5998(5) 0.92194(12)
H18 H 0.107118 0.419250 0.916495
C41 C 0.0296(3) 0.6874(5) 0.93915(17)
C42 C 0.1165(2) 0.6131(4) 0.85313(12)
H20 H 0.053372 0.753640 0.910465
O19 O 0.10608(17) 0.52040(29) 0.82430(9)
O20 O 0.17111(18) 0.71781(31) 0.82821(9)
Fe9 Fe 0.20891(4) 0.50123(6) 0.750000
Fe10 Fe 0.29232(4) 0.79109(4) 0.750000
O21 O 0.333333 0.666667 0.750000
O22 O 0.2451(3) 0.9246(5) 0.750000
O23 O 0.41432(23) 0.89392(17) 0.82430(9)
O24 O 0.41432(23) 0.89392(17) 0.67570(9)
O25 O 0.17111(18) 0.71781(31) 0.67179(9)
H3 H 0.791674 0.055984 0.008731
C12 C 0.5276(3) 0.0301(2) 0.03158(13)
C18 C 0.6498(4) 0.0639(3) 0.04410(16)
C19 C 0.4575(4) 0.0573(3) 0.07806(12)
H7 H 0.687868 0.107118 0.083505
C24 C 0.5034(3) 0.1165(2) 0.14687(12)
C25 C 0.3422(4) 0.0296(3) 0.06085(17)
O13 O 0.45330(25) 0.17111(18) 0.17179(9)
O14 O 0.58568(23) 0.10608(17) 0.17570(9)
H11 H 0.299732 0.053372 0.089535
Fe4 Fe 0.50123(6) 0.29232(4) 0.250000
Fe5 Fe 0.70768(4) 0.20891(4) 0.250000
O17 O 0.82889(18) 0.28219(31) 0.17179(9)
Fe8 Fe 0.79109(4) 0.49877(6) 0.250000
C31 C 0.8835(2) 0.3869(4) 0.14687(12)
O18 O 0.89392(17) 0.47960(29) 0.17570(9)
C32 C 0.9427(3) 0.4002(5) 0.07806(12)
C33 C 0.9704(3) 0.3126(5) 0.06085(17)
C34 C 0.9699(2) 0.4975(4) 0.03158(13)
H15 H 0.946628 0.246360 0.089535
C37 C 0.9361(3) 0.5859(5) 0.04410(16)
H17 H 0.892882 0.580750 0.083505
H19 H 0.944016 0.735690 0.008731
C6 C 0.7120(6) 0.0339(4) 0.9992(2)
C40 C 0.9661(4) 0.6781(7) 0.9992(2)
C20 C 0.2880(6) 0.9661(4) 0.0008(2)
C22 C 0.5025(4) 0.4724(3) 0.03158(13)
C26 C 0.4141(5) 0.3502(4) 0.04410(16)
H9 H 0.264310 0.208326 0.008731
C27 C 0.5998(5) 0.5425(4) 0.07806(12)
C28 C 0.6781(7) 0.7120(6) 0.0008(2)
H12 H 0.419250 0.312132 0.083505
C29 C 0.6131(4) 0.4966(3) 0.14687(12)
C30 C 0.6874(5) 0.6578(4) 0.06085(17)
O15 O 0.71781(31) 0.54670(25) 0.17179(9)
O16 O 0.52040(29) 0.41432(23) 0.17570(9)
H14 H 0.753640 0.700268 0.089535
C1 C 0.4966(3) 0.8835(2) 0.85313(12)
O3 O 0.54670(25) 0.82889(18) 0.67179(9)
O4 O 0.6795(4) 0.7549(3) 0.750000
C2 C 0.5425(4) 0.9427(3) 0.92194(12)
C3 C 0.7277(21) 0.7028(17) 0.750000
C4 C 0.6578(4) 0.9704(3) 0.93915(17)
C5 C 0.4724(3) 0.9699(2) 0.96842(13)
N1 N 0.8277(23) 0.715(2) 0.750000
H1 H 0.670940 0.620816 0.750000
H2 H 0.700268 0.946628 0.910465
C7 C 0.3502(4) 0.9361(3) 0.95590(16)
C8 C 0.905(4) 0.774(2) 0.6880(15)
H4 H 0.312132 0.892882 0.916495
Fe2 Fe 0.49877(6) 0.70768(4) 0.750000
O5 O 0.10608(17) 0.52040(29) 0.67570(9)
O6 O 0.47960(29) 0.58568(23) 0.67570(9)
O7 O 0.47960(29) 0.58568(23) 0.82430(9)
O8 O 0.54670(25) 0.82889(18) 0.82821(9)
O10 O 0.28219(31) 0.45330(25) 0.82821(9)
O11 O 0.0754(5) 0.3205(4) 0.750000
O12 O 0.28219(31) 0.45330(25) 0.67179(9)
C9 C 0.3869(4) 0.5034(3) 0.85313(12)
C11 C 0.4002(5) 0.4575(4) 0.92194(12)
C13 C 0.905(4) 0.774(2) 0.8120(15)
C14 C 0.3126(5) 0.3422(4) 0.93915(17)
C15 C 0.4975(4) 0.5276(3) 0.96842(13)
C21 C 0.3219(7) 0.2880(6) 0.9992(2)
H6 H 0.246360 0.299732 0.910465
C23 C 0.5859(5) 0.6498(4) 0.95590(16)
H8 H 0.208326 0.944016 0.991269
H10 H 0.580750 0.687868 0.916495
H13 H 0.735690 0.791674 0.991269
H22 H 0.918343 0.864538 0.682048
H23 H 0.992153 0.779437 0.694499
H24 H 0.86045 0.720726 0.642581
H31 H 0.86045 0.720726 0.857419
H32 H 0.992153 0.779437 0.805501
H33 H 0.918343 0.864538 0.817952
C10 C 0.9751(27) 0.2723(21) 0.750000
N2 N 0.8873(30) 0.1723(23) 0.750000
H5 H 0.949876 0.329060 0.750000
C16 C 0.869(4) 0.095(4) 0.8120(15)
C17 C 0.869(4) 0.095(4) 0.6880(15)
H25 H 0.860276 0.13955 0.857419
H26 H 0.787284 0.0078474 0.805501
H27 H 0.946196 0.0816573 0.817952
H28 H 0.946196 0.0816573 0.682048
H29 H 0.787284 0.0078474 0.694499
H30 H 0.860276 0.13955 0.642581
C10_2 C 0.0249(27) 0.7277(21) 0.250000
N2_2 N 0.1127(30) 0.8277(23) 0.250000
H5_2 H 0.050124 0.670940 0.250000
C16_2 C 0.131(4) 0.905(4) 0.3120(15)
C17_2 C 0.131(4) 0.905(4) 0.1880(15)
H25_2 H 0.139724 0.86045 0.357419
H26_2 H 0.212716 0.992153 0.305501
H27_2 H 0.0538045 0.918343 0.317952
H28_2 H 0.0538045 0.918343 0.182048
H29_2 H 0.212716 0.992153 0.194499
H30_2 H 0.139724 0.86045 0.142581
O1 O 0.666667 0.333333 0.250000
O2 O 0.58568(23) 0.10608(17) 0.32430(9)
C1_2 C 0.5034(3) 0.1165(2) 0.35313(12)
O4_2 O 0.3205(4) 0.2451(3) 0.250000
C2_2 C 0.4575(4) 0.0573(3) 0.42194(12)
C3_2 C 0.2723(21) 0.2972(17) 0.250000
C4_2 C 0.3422(4) 0.0296(3) 0.43915(17)
C5_2 C 0.5276(3) 0.0301(2) 0.46842(13)
N1_2 N 0.1723(23) 0.285(2) 0.250000
H1_2 H 0.329060 0.379184 0.250000
H2_2 H 0.299732 0.053372 0.410465
C7_2 C 0.6498(4) 0.0639(3) 0.45590(16)
C8_2 C 0.095(4) 0.226(2) 0.1880(15)
H4_2 H 0.687868 0.107118 0.416495
O7_2 O 0.52040(29) 0.41432(23) 0.32430(9)
O8_2 O 0.45330(25) 0.17111(18) 0.32821(9)
O9 O 0.89392(17) 0.47960(29) 0.32430(9)
O10_2 O 0.71781(31) 0.54670(25) 0.32821(9)
O11_2 O 0.9246(5) 0.6795(4) 0.250000
C9_2 C 0.6131(4) 0.4966(3) 0.35313(12)
C11_2 C 0.5998(5) 0.5425(4) 0.42194(12)
C13_2 C 0.095(4) 0.226(2) 0.3120(15)
C14_2 C 0.6874(5) 0.6578(4) 0.43915(17)
C15_2 C 0.5025(4) 0.4724(3) 0.46842(13)
C20_2 C 0.7120(6) 0.0339(4) 0.5008(2)
C21_2 C 0.6781(7) 0.7120(6) 0.4992(2)
H6_2 H 0.753640 0.700268 0.410465
C22_2 C 0.4975(4) 0.5276(3) 0.53158(13)
C23_2 C 0.4141(5) 0.3502(4) 0.45590(16)
H8_2 H 0.791674 0.055984 0.491269
C26_2 C 0.5859(5) 0.6498(4) 0.54410(16)
H9_2 H 0.735690 0.791674 0.508731
C27_2 C 0.4002(5) 0.4575(4) 0.57806(12)
C28_2 C 0.3219(7) 0.2880(6) 0.5008(2)
H10_2 H 0.419250 0.312132 0.416495
H12_2 H 0.580750 0.687868 0.583505
C29_2 C 0.3869(4) 0.5034(3) 0.64687(12)
C30_2 C 0.3126(5) 0.3422(4) 0.56085(17)
H13_2 H 0.264310 0.208326 0.491269
H14_2 H 0.246360 0.299732 0.589535
H22_2 H 0.0816573 0.135462 0.182048
H23_2 H 0.0078474 0.220563 0.194499
H24_2 H 0.13955 0.279274 0.142581
H31_2 H 0.13955 0.279274 0.357419
H32_2 H 0.0078474 0.220563 0.305501
H33_2 H 0.0816573 0.135462 0.317952
C6_2 C 0.2880(6) 0.9661(4) 0.4992(2)
H3_2 H 0.208326 0.944016 0.508731
C12_2 C 0.4724(3) 0.9699(2) 0.53158(13)
C18_2 C 0.3502(4) 0.9361(3) 0.54410(16)
C19_2 C 0.5425(4) 0.9427(3) 0.57806(12)
H7_2 H 0.312132 0.892882 0.583505
C24_2 C 0.4966(3) 0.8835(2) 0.64687(12)
C25_2 C 0.6578(4) 0.9704(3) 0.56085(17)
H11_2 H 0.700268 0.946628 0.589535
C31_2 C 0.1165(2) 0.6131(4) 0.64687(12)
C32_2 C 0.0573(3) 0.5998(5) 0.57806(12)
C33_2 C 0.0296(3) 0.6874(5) 0.56085(17)
C34_2 C 0.0301(2) 0.5025(4) 0.53158(13)
H15_2 H 0.053372 0.753640 0.589535
C37_2 C 0.0639(3) 0.4141(5) 0.54410(16)
C40_2 C 0.0339(4) 0.3219(7) 0.4992(2)
H17_2 H 0.107118 0.419250 0.583505
H19_2 H 0.055984 0.264310 0.508731
C35_2 C 0.9661(4) 0.6781(7) 0.5008(2)
C36_2 C 0.9699(2) 0.4975(4) 0.46842(13)
C38_2 C 0.9361(3) 0.5859(5) 0.45590(16)
H16_2 H 0.944016 0.735690 0.491269
C39_2 C 0.9427(3) 0.4002(5) 0.42194(12)
H18_2 H 0.892882 0.580750 0.416495
C41_2 C 0.9704(3) 0.3126(5) 0.43915(17)
C42_2 C 0.8835(2) 0.3869(4) 0.35313(12)
H20_2 H 0.946628 0.246360 0.410465
O20_2 O 0.82889(18) 0.28219(31) 0.32821(9)
O22_2 O 0.7549(3) 0.0754(5) 0.250000
C43_2 C 0.7028(17) 0.9751(27) 0.250000
N3_2 N 0.715(2) 0.8873(30) 0.250000
H21_2 H 0.620816 0.949876 0.250000
C44_2 C 0.774(2) 0.869(4) 0.3120(15)
C45_2 C 0.774(2) 0.869(4) 0.1880(15)
H34_2 H 0.864538 0.946196 0.182048
H35_2 H 0.779437 0.787284 0.194499
H36_2 H 0.720726 0.860276 0.142581
H37_2 H 0.720726 0.860276 0.357419
H38_2 H 0.779437 0.787284 0.305501
H39_2 H 0.864538 0.946196 0.317952
loop_
_geom_bond_atom_site_label_1
_geom_bond_atom_site_label_2
_geom_bond_site_symmetry_1
_geom_bond_site_symmetry_2
N3 C43 1_555 1_555
H21 C43 1_555 1_555
C44 N3 1_555 1_555
C45 N3 1_555 1_555
C45 H34 1_555 1_555
C45 H35 1_555 1_555
C45 H36 1_555 1_555
C44 H37 1_555 1_555
C44 H38 1_555 1_555
C44 H39 1_555 1_555
C39 C36 1_555 1_555
H18 C38 1_555 1_555
C41 C39 1_555 1_555
C42 C39 1_555 1_555
H20 C41 1_555 1_555
O19 C42 1_555 1_555
O20 C42 1_555 1_555
Fe9 O19 1_555 1_555
Fe10 O20 1_555 1_555
O21 Fe9 1_555 1_555
O22 Fe10 1_555 1_555
O23 Fe10 1_555 1_555
O24 Fe10 1_555 1_555
O25 Fe10 1_555 1_555
C36 C38 1_555 1_555
Fe10 O21 1_555 1_555
C19 C12 1_555 1_555
H7 C18 1_555 1_555
C24 C19 1_555 1_555
C25 C19 1_555 1_555
O13 C24 1_555 1_555
O14 C24 1_555 1_555
H11 C25 1_555 1_555
Fe4 O13 1_555 1_555
Fe5 O14 1_555 1_555
O17 Fe5 1_555 1_555
Fe8 O18 1_555 1_555
C31 O17 1_555 1_555
O18 C31 1_555 1_555
C32 C31 1_555 1_555
C33 C32 1_555 1_555
C34 C32 1_555 1_555
H15 C33 1_555 1_555
C37 C34 1_555 1_555
H17 C37 1_555 1_555
C12 C18 1_555 1_555
C27 C22 1_555 1_555
H12 C26 1_555 1_555
C29 C27 1_555 1_555
C30 C27 1_555 1_555
O15 C29 1_555 1_555
O16 C29 1_555 1_555
H14 C30 1_555 1_555
Fe8 O15 1_555 1_555
Fe4 O16 1_555 1_555
C22 C26 1_555 1_555
C28 C30 1_555 1_555
O21 Fe2 1_555 1_555
C1 O23 1_555 1_555
O3 Fe2 1_555 1_555
O4 C3 1_555 1_555
C2 C1 1_555 1_555
C3 N1 1_555 1_555
C4 C2 1_555 1_555
C5 C2 1_555 1_555
N1 C8 1_555 1_555
H1 C3 1_555 1_555
H2 C4 1_555 1_555
C7 C5 1_555 1_555
H4 C7 1_555 1_555
Fe2 O4 1_555 1_555
O5 Fe9 1_555 1_555
O6 Fe2 1_555 1_555
O7 Fe2 1_555 1_555
O8 C1 1_555 1_555
O10 Fe9 1_555 1_555
O11 Fe9 1_555 1_555
O12 Fe9 1_555 1_555
C9 O7 1_555 1_555
C11 C9 1_555 1_555
C13 N1 1_555 1_555
C14 C11 1_555 1_555
C15 C11 1_555 1_555
C21 C14 1_555 1_555
H6 C14 1_555 1_555
C23 C15 1_555 1_555
H10 C23 1_555 1_555
Fe2 O8 1_555 1_555
O10 C9 1_555 1_555
C8 H22 1_555 1_555
C8 H23 1_555 1_555
C8 H24 1_555 1_555
C13 H31 1_555 1_555
C13 H32 1_555 1_555
C13 H33 1_555 1_555
N2 C10 1_555 1_555
H5 C10 1_555 1_555
C16 N2 1_555 1_555
C17 N2 1_555 1_555
C16 H25 1_555 1_555
C16 H26 1_555 1_555
C16 H27 1_555 1_555
C17 H28 1_555 1_555
C17 H29 1_555 1_555
C17 H30 1_555 1_555
N2_2 C10_2 1_555 1_555
H5_2 C10_2 1_555 1_555
C16_2 N2_2 1_555 1_555
C17_2 N2_2 1_555 1_555
C16_2 H25_2 1_555 1_555
C16_2 H26_2 1_555 1_555
C16_2 H27_2 1_555 1_555
C17_2 H28_2 1_555 1_555
C17_2 H29_2 1_555 1_555
C17_2 H30_2 1_555 1_555
Fe5 O1 1_555 1_555
O1 Fe4 1_555 1_555
O2 Fe5 1_555 1_555
C1_2 O2 1_555 1_555
O4_2 C3_2 1_555 1_555
C2_2 C1_2 1_555 1_555
C3_2 N1_2 1_555 1_555
C4_2 C2_2 1_555 1_555
C5_2 C2_2 1_555 1_555
N1_2 C8_2 1_555 1_555
H1_2 C3_2 1_555 1_555
H2_2 C4_2 1_555 1_555
C7_2 C5_2 1_555 1_555
H4_2 C7_2 1_555 1_555
Fe4 O4_2 1_555 1_555
Fe8 O1 1_555 1_555
O7_2 Fe4 1_555 1_555
O8_2 C1_2 1_555 1_555
O9 Fe8 1_555 1_555
O10_2 Fe8 1_555 1_555
O11_2 Fe8 1_555 1_555
C9_2 O7_2 1_555 1_555
C11_2 C9_2 1_555 1_555
C13_2 N1_2 1_555 1_555
C14_2 C11_2 1_555 1_555
C15_2 C11_2 1_555 1_555
C20_2 C7_2 1_555 1_555
C21_2 C14_2 1_555 1_555
H6_2 C14_2 1_555 1_555
C22_2 C15_2 1_555 1_555
C23_2 C15_2 1_555 1_555
H8_2 C20_2 1_555 1_555
C26_2 C21_2 1_555 1_555
H9_2 C21_2 1_555 1_555
C27_2 C22_2 1_555 1_555
C28_2 C23_2 1_555 1_555
H10_2 C23_2 1_555 1_555
H12_2 C26_2 1_555 1_555
C29_2 C27_2 1_555 1_555
C30_2 C27_2 1_555 1_555
H13_2 C28_2 1_555 1_555
O12 C29_2 1_555 1_555
O6 C29_2 1_555 1_555
H14_2 C30_2 1_555 1_555
Fe4 O8_2 1_555 1_555
O10_2 C9_2 1_555 1_555
C22_2 C26_2 1_555 1_555
C28_2 C30_2 1_555 1_555
C8_2 H22_2 1_555 1_555
C8_2 H23_2 1_555 1_555
C8_2 H24_2 1_555 1_555
C13_2 H31_2 1_555 1_555
C13_2 H32_2 1_555 1_555
C13_2 H33_2 1_555 1_555
H3_2 C6_2 1_555 1_555
C18_2 C6_2 1_555 1_555
C19_2 C12_2 1_555 1_555
H7_2 C18_2 1_555 1_555
C24_2 C19_2 1_555 1_555
C25_2 C19_2 1_555 1_555
O3 C24_2 1_555 1_555
O24 C24_2 1_555 1_555
H11_2 C25_2 1_555 1_555
C31_2 O25 1_555 1_555
O5 C31_2 1_555 1_555
C32_2 C31_2 1_555 1_555
C33_2 C32_2 1_555 1_555
C34_2 C32_2 1_555 1_555
H15_2 C33_2 1_555 1_555
C37_2 C34_2 1_555 1_555
C40_2 C37_2 1_555 1_555
H17_2 C37_2 1_555 1_555
H19_2 C40_2 1_555 1_555
C12_2 C18_2 1_555 1_555
C38_2 C35_2 1_555 1_555
H16_2 C35_2 1_555 1_555
C39_2 C36_2 1_555 1_555
H18_2 C38_2 1_555 1_555
C41_2 C39_2 1_555 1_555
C42_2 C39_2 1_555 1_555
H20_2 C41_2 1_555 1_555
O9 C42_2 1_555 1_555
O20_2 C42_2 1_555 1_555
Fe5 O20_2 1_555 1_555
O22_2 Fe5 1_555 1_555
C36_2 C38_2 1_555 1_555
N3_2 C43_2 1_555 1_555
H21_2 C43_2 1_555 1_555
C44_2 N3_2 1_555 1_555
C45_2 N3_2 1_555 1_555
C45_2 H34_2 1_555 1_555
C45_2 H35_2 1_555 1_555
C45_2 H36_2 1_555 1_555
C44_2 H37_2 1_555 1_555
C44_2 H38_2 1_555 1_555
C44_2 H39_2 1_555 1_555

#END
