
###############################################################################
#
# This file contains modified crystal structure data generated from the
# MOF subset of the Cambridge Structural Database (CSD) v543 
# hosted by the Cambridge Crystallographic Data Centre (CCDC).
#
# This work is licensed under the Creative Commons
# Attribution-NonCommercial-ShareAlike 4.0 International License.
# To view a copy of this license, visit
# http://creativecommons.org/licenses/by-nc-sa/4.0/
# or send a letter to
# Creative Commons, PO Box 1866, Mountain View, CA 94042, USA.
#
# CIF created using the CSD Python API on 29 September 2022
# The structure has been converted into the P1 space group
# The structure has a 3D framework
# The original CSD entry CUSQEP is in the monoclinic crystal system
# The framework has been calculated to contain at least 10.0% void space
# The void calculation uses a probe of radius 1.32A, grid spacing 0.4
#
###############################################################################

data_CUSQEP
_chemical_formula_moiety         '(C116 H92 Bi4 N4 O36)n'
_symmetry_cell_setting           triclinic
_symmetry_space_group_name_H-M   'P 1'
_symmetry_Int_Tables_number      1
_space_group_name_Hall           'P 1'
loop_
_symmetry_equiv_pos_site_id
_symmetry_equiv_pos_as_xyz
1 x,y,z
_cell_length_a                   8.0268(2)
_cell_length_b                   23.5350(6)
_cell_length_c                   16.7335(5)
_cell_angle_alpha                90
_cell_angle_beta                 97.682(3)
_cell_angle_gamma                90
_cell_volume                     3132.77
loop_
_atom_site_label
_atom_site_type_symbol
_atom_site_fract_x
_atom_site_fract_y
_atom_site_fract_z
O5 O 0.3031(8) 0.6962(2) 0.0596(5)
C3 C 0.1614(9) 0.7074(3) 0.0279(4)
C7 C 0.0196(8) 0.6654(3) 0.0215(4)
C19 C 0.0523(9) 0.6091(3) 0.0374(5)
H7 H 0.162431 0.596852 0.051713
Bi4 Bi 0.35376(3) 0.80895(2) 0.02529(2)
O2 O 0.1267(6) 0.7558(2) 0.9977(4)
O16 O 0.1704(13) 0.6405(6) 0.7197(5)
H36 H 0.165493 0.638891 0.663947
C54 C 0.0339(19) 0.6710(8) 0.8260(7)
H38 H 0.135980 0.659435 0.854218
H39 H 0.002382 0.705538 0.846309
C55 C 0.0518(16) 0.6775(7) 0.7396(8)
N2 N 0.0107(14) 0.7267(4) 0.2809(5)
C58 C 0.1849(16) 0.7087(10) 0.2924(13)
H44 H 0.219521 0.702458 0.346945
H45 H 0.195601 0.675296 0.263865
H46 H 0.251275 0.736867 0.273690
C4 C 0.6202(8) 0.5437(2) 0.0051(4)
C10 C 0.7574(8) 0.5872(3) 0.0117(4)
C12 C 0.9211(9) 0.5704(3) 0.0321(4)
H2 H 0.944569 0.532263 0.042521
C16 C 0.8567(9) 0.6834(3) 0.0040(5)
O10 O 0.7056(6) 0.6525(2) 0.4175(3)
O12 O 0.9457(7) 0.6070(2) 0.4227(3)
C30 C 0.4459(8) 0.4781(3) 0.0704(4)
O13 O 0.3302(7) 0.3449(3) 0.3974(3)
C31 C 0.5661(8) 0.5217(2) 0.0755(4)
O15 O 0.1416(10) 0.4094(3) 0.3988(4)
C34 C 0.8075(10) 0.6182(3) 0.3886(4)
C35 C 0.6317(8) 0.5469(3) 0.1559(4)
C37 C 0.7436(8) 0.5934(3) 0.3068(4)
C38 C 0.3934(8) 0.4547(3) 0.1466(4)
C40 C 0.6133(9) 0.6186(3) 0.2572(4)
H24 H 0.560953 0.650788 0.274420
C42 C 0.3077(9) 0.4131(3) 0.2913(4)
C43 C 0.2548(11) 0.3886(4) 0.3685(5)
C44 C 0.8157(9) 0.5449(3) 0.2808(4)
H26 H 0.904405 0.527819 0.313527
H27 H 0.165894 0.278061 0.003701
C46 C 0.5605(9) 0.5960(3) 0.1814(4)
H28 H 0.475975 0.614116 0.147357
C47 C 0.7581(9) 0.5213(3) 0.2065(4)
H29 H 0.805649 0.487766 0.190683
C49 C 0.2719(10) 0.4805(3) 0.1837(5)
H31 H 0.218266 0.512739 0.160741
C50 C 0.2267(11) 0.4590(3) 0.2562(5)
H32 H 0.141431 0.476298 0.280004
C51 C 0.2767(9) 0.3556(3) 0.0025(4)
H33 H 0.386903 0.343230 0.016105
C52 C 0.4323(10) 0.3878(4) 0.2563(5)
H34 H 0.489734 0.356788 0.281028
C53 C 0.4738(11) 0.4084(3) 0.1834(5)
H35 H 0.557498 0.390432 0.159314
Bi3 Bi 0.14624(3) 0.30895(2) 0.47471(2)
Bi5 Bi 0.85376(3) 0.69105(2) 0.52529(2)
O1 O 0.2944(6) 0.3475(2) 0.5825(3)
O3 O 0.0543(7) 0.3930(2) 0.5773(3)
C1 C 0.5541(8) 0.5219(3) 0.9296(4)
O4 O 0.6698(7) 0.6551(3) 0.6026(3)
C2 C 0.4339(8) 0.4783(2) 0.9245(4)
O6 O 0.8584(10) 0.5906(3) 0.6012(4)
C5 C 0.1925(10) 0.3818(3) 0.6114(4)
C6 C 0.3683(8) 0.4531(3) 0.8441(4)
C8 C 0.2564(8) 0.4066(3) 0.6932(4)
C9 C 0.6066(8) 0.5453(3) 0.8534(4)
C11 C 0.3867(9) 0.3814(3) 0.7428(4)
H1 H 0.439047 0.349212 0.725580
C13 C 0.6923(9) 0.5869(3) 0.7087(4)
C14 C 0.7452(11) 0.6114(4) 0.6315(5)
C15 C 0.1843(9) 0.4551(3) 0.7192(4)
H3 H 0.095595 0.472181 0.686473
H4 H 0.834106 0.721939 0.996299
C17 C 0.4395(9) 0.4040(3) 0.8186(4)
H5 H 0.524025 0.385884 0.852643
C18 C 0.2419(9) 0.4787(3) 0.7935(4)
H6 H 0.194351 0.512234 0.809317
C20 C 0.7281(10) 0.5195(3) 0.8163(5)
H8 H 0.781734 0.487261 0.839259
C21 C 0.7733(11) 0.5410(3) 0.7438(5)
H9 H 0.858569 0.523702 0.719996
C22 C 0.7233(9) 0.6444(3) 0.9975(4)
H10 H 0.613097 0.656770 0.983895
C23 C 0.5677(10) 0.6122(4) 0.7437(5)
H11 H 0.510266 0.643212 0.718972
C24 C 0.5262(11) 0.5916(3) 0.8166(5)
H13 H 0.442502 0.609568 0.840686
H14 H 0.047878 0.356186 0.168372
O8 O 0.0276(13) 0.2918(4) 0.3082(5)
O9 O 0.0183(11) 0.2581(3) 0.5894(4)
C27 C 0.0673(18) 0.2607(4) 0.6585(7)
H17 H 0.180819 0.252255 0.672035
C28 C 0.077(2) 0.2742(6) 0.7995(7)
H18 H 0.029977 0.247299 0.830628
H19 H 0.066790 0.310111 0.821681
H20 H 0.189446 0.265907 0.798347
C33 C 0.3798(8) 0.4563(2) 0.9949(4)
C39 C 0.2426(8) 0.4128(3) 0.9883(4)
C41 C 0.0789(9) 0.4296(3) 0.9679(4)
H25 H 0.055431 0.467737 0.957479
C45 C 0.1433(9) 0.3166(3) 0.9960(5)
H37 H 0.952122 0.643814 0.831628
O17 O 0.9724(13) 0.7082(4) 0.6918(5)
O18 O 0.9817(11) 0.7419(3) 0.4106(4)
C56 C 0.9327(18) 0.7393(4) 0.3415(7)
H40 H 0.819181 0.747745 0.327965
C57 C 0.923(2) 0.7258(6) 0.2005(7)
H41 H 0.970023 0.752701 0.169372
H42 H 0.933210 0.689889 0.178319
H43 H 0.810554 0.734093 0.201653
O20 O 0.3733(6) 0.2558(2) 0.5023(4)
O21 O 0.6267(6) 0.7442(2) 0.4977(4)
O24 O 0.1969(8) 0.1962(2) 0.4404(5)
O25 O 0.8031(8) 0.8038(2) 0.5596(5)
O11 O 0.8733(6) 0.2442(2) 0.0023(4)
O7 O 0.8296(13) 0.3595(6) 0.2803(5)
H12 H 0.834507 0.361109 0.336053
C25 C 0.9661(19) 0.3290(8) 0.1740(7)
H15 H 0.864020 0.340565 0.145782
H16 H 0.997618 0.294462 0.153691
C26 C 0.9482(16) 0.3225(7) 0.2604(8)
N1 N 0.9893(14) 0.2733(4) 0.7191(5)
C29 C 0.8151(16) 0.2913(10) 0.7076(13)
H21 H 0.780479 0.297542 0.653055
H22 H 0.804399 0.324704 0.736135
H23 H 0.748725 0.263133 0.726310
O14 O 0.6969(8) 0.3038(2) 0.9404(5)
C32 C 0.8386(9) 0.2926(3) 0.9721(4)
C36 C 0.9804(8) 0.3346(3) 0.9785(4)
C48 C 0.9477(9) 0.3909(3) 0.9626(5)
H30 H 0.837569 0.403148 0.948287
Bi6 Bi 0.64624(3) 0.19105(2) 0.97471(2)
O7_2 O 0.6704(13) 0.8595(6) 0.2197(5)
H12_2 H 0.665493 0.861109 0.163947
C25_2 C 0.5339(19) 0.8290(8) 0.3260(7)
H14_2 H 0.452122 0.856186 0.331628
H15_2 H 0.635980 0.840565 0.354218
H16_2 H 0.502382 0.794462 0.346309
C26_2 C 0.5518(16) 0.8225(7) 0.2396(8)
O8_2 O 0.4724(13) 0.7918(4) 0.1918(5)
O23 O 0.1698(7) 0.8449(3) 0.1026(3)
O26 O 0.3584(10) 0.9094(3) 0.1012(4)
O1_2 O 0.2056(6) 0.8475(2) 0.9175(3)
O3_2 O 0.4457(7) 0.8930(2) 0.9227(3)
C2_2 C 0.0661(8) 0.9783(2) 0.5755(4)
C5_2 C 0.3075(10) 0.8818(3) 0.8886(4)
C6_2 C 0.1317(8) 0.9531(3) 0.6559(4)
C8_2 C 0.2436(8) 0.9066(3) 0.8068(4)
C11_2 C 0.1133(9) 0.8814(3) 0.7572(4)
H1_2 H 0.060953 0.849212 0.774420
C15_2 C 0.3157(9) 0.9551(3) 0.7808(4)
H3_2 H 0.404405 0.972181 0.813527
C17_2 C 0.0605(9) 0.9040(3) 0.6814(4)
C18_2 C 0.2581(9) 0.9787(3) 0.7065(4)
O9_2 O 0.4817(11) 0.7581(3) 0.9106(4)
C27_2 C 0.4327(18) 0.7607(4) 0.8415(7)
H17_2 H 0.319181 0.752255 0.827965
N1_2 N 0.5107(14) 0.7733(4) 0.7809(5)
C28_2 C 0.423(2) 0.7742(6) 0.7005(7)
H18_2 H 0.470023 0.747299 0.669372
H19_2 H 0.433210 0.810111 0.678319
H20_2 H 0.310554 0.765907 0.701653
C29_2 C 0.6849(16) 0.7913(10) 0.7924(13)
H21_2 H 0.719521 0.797542 0.846945
H22_2 H 0.695601 0.824704 0.763865
H23_2 H 0.751275 0.763133 0.773690
C30_2 C 0.0541(8) 0.9781(3) 0.4296(4)
C32_2 C 0.6614(9) 0.7926(3) 0.5279(4)
C33_2 C 0.1202(8) 0.9563(2) 0.5051(4)
C36_2 C 0.5196(8) 0.8346(3) 0.5215(4)
C38_2 C 0.1066(8) 0.9547(3) 0.3534(4)
C39_2 C 0.2574(8) 0.9128(3) 0.5117(4)
C41_2 C 0.4211(9) 0.9296(3) 0.5321(4)
H25_2 H 0.444569 0.967737 0.542521
C42_2 C 0.1923(9) 0.9131(3) 0.2087(4)
C43_2 C 0.2452(11) 0.8886(4) 0.1315(5)
C45_2 C 0.3567(9) 0.8166(3) 0.5040(5)
H27_2 H 0.334106 0.778061 0.496299
C48_2 C 0.5523(9) 0.8909(3) 0.5374(5)
H30_2 H 0.662431 0.903148 0.551713
C49_2 C 0.2281(10) 0.9805(3) 0.3163(5)
C50_2 C 0.2733(11) 0.9590(3) 0.2438(5)
H32_2 H 0.358569 0.976298 0.219996
C51_2 C 0.2233(9) 0.8556(3) 0.4975(4)
H33_2 H 0.113097 0.843230 0.483895
C52_2 C 0.0677(10) 0.8878(4) 0.2437(5)
H34_2 H 0.010266 0.856788 0.218972
C53_2 C 0.0262(11) 0.9084(3) 0.3166(5)
O18_2 O 0.5183(11) 0.2419(3) 0.0894(4)
C56_2 C 0.5673(18) 0.2393(4) 0.1585(7)
H40_2 H 0.680819 0.247745 0.172035
N2_2 N 0.4893(14) 0.2267(4) 0.2191(5)
C57_2 C 0.577(2) 0.2258(6) 0.2995(7)
H41_2 H 0.529977 0.252701 0.330628
H42_2 H 0.566790 0.189889 0.321681
H43_2 H 0.689446 0.234093 0.298347
C58_2 C 0.3151(16) 0.2087(10) 0.2076(13)
H44_2 H 0.280479 0.202458 0.153055
H45_2 H 0.304399 0.175296 0.236135
H46_2 H 0.248725 0.236867 0.226310
O19 O 0.7944(6) 0.1525(2) 0.0825(3)
O22 O 0.5543(7) 0.1070(2) 0.0773(3)
C1_2 C 0.9459(8) 0.0219(3) 0.5704(4)
O4_2 O 0.8302(7) 0.1551(3) 0.8974(3)
C3_2 C 0.3386(9) 0.2074(3) 0.4721(4)
C4_2 C 0.8798(8) 0.0437(2) 0.4949(4)
O6_2 O 0.6416(10) 0.0906(3) 0.8988(4)
C7_2 C 0.4804(8) 0.1654(3) 0.4785(4)
C9_2 C 0.8934(8) 0.0453(3) 0.6466(4)
C10_2 C 0.7426(8) 0.0872(3) 0.4883(4)
C12_2 C 0.5789(9) 0.0704(3) 0.4679(4)
H2_2 H 0.555431 0.032263 0.457479
C13_2 C 0.8077(9) 0.0869(3) 0.7913(4)
C14_2 C 0.7548(11) 0.1114(4) 0.8685(5)
C16_2 C 0.6433(9) 0.1834(3) 0.4960(5)
H4_2 H 0.665894 0.221939 0.503701
C19_2 C 0.4477(9) 0.1091(3) 0.4626(5)
H7_2 H 0.337569 0.096852 0.448287
C20_2 C 0.7719(10) 0.0195(3) 0.6837(5)
C21_2 C 0.7267(11) 0.0410(3) 0.7562(5)
H9_2 H 0.641431 0.023702 0.780004
C22_2 C 0.7767(9) 0.1444(3) 0.5025(4)
H10_2 H 0.886903 0.156770 0.516105
C23_2 C 0.9323(10) 0.1122(4) 0.7563(5)
H11_2 H 0.989734 0.143212 0.781028
C24_2 C 0.9738(11) 0.0916(3) 0.6834(5)
C31_2 C 0.9339(8) 0.0217(2) 0.4245(4)
C34_2 C 0.6925(10) 0.1182(3) 0.1114(4)
C35_2 C 0.8683(8) 0.0469(3) 0.3441(4)
C37_2 C 0.7564(8) 0.0934(3) 0.1932(4)
C40_2 C 0.8867(9) 0.1186(3) 0.2428(4)
H24_2 H 0.939047 0.150788 0.225580
C44_2 C 0.6843(9) 0.0449(3) 0.2192(4)
H26_2 H 0.595595 0.027819 0.186473
C46_2 C 0.9395(9) 0.0960(3) 0.3186(4)
C47_2 C 0.7419(9) 0.0213(3) 0.2935(4)
O16_2 O 0.3296(13) 0.1405(6) 0.7803(5)
H36_2 H 0.334507 0.138891 0.836053
C54_2 C 0.4661(19) 0.1710(8) 0.6740(7)
H37_2 H 0.547878 0.143814 0.668372
H38_2 H 0.364020 0.159435 0.645782
H39_2 H 0.497618 0.205538 0.653691
C55_2 C 0.4482(16) 0.1775(7) 0.7604(8)
O17_2 O 0.5276(13) 0.2082(4) 0.8082(5)
H6_2 H 0.305649 0.012234 0.690683
H13_2 H 0.057498 0.109568 0.659314
H28_2 H 0.024025 0.114116 0.352643
H31_2 H 0.281734 0.012739 0.339259
H5_2 H 0.975975 0.885884 0.647357
H8_2 H 0.718266 0.987261 0.660741
H29_2 H 0.694351 0.987766 0.309317
H35_2 H 0.942502 0.890432 0.340686
loop_
_geom_bond_atom_site_label_1
_geom_bond_atom_site_label_2
_geom_bond_site_symmetry_1
_geom_bond_site_symmetry_2
O5 C3 1_555 1_555
C3 C7 1_555 1_555
C19 C7 1_555 1_555
H7 C19 1_555 1_555
O5 Bi4 1_555 1_555
O16 H36 1_555 1_555
H38 C54 1_555 1_555
H39 C54 1_555 1_555
C55 O16 1_555 1_555
C58 N2 1_555 1_555
H44 C58 1_555 1_555
H45 C58 1_555 1_555
H46 C58 1_555 1_555
C54 C55 1_555 1_555
C10 C4 1_555 1_555
C12 C10 1_555 1_555
H2 C12 1_555 1_555
O10 C34 1_555 1_555
O12 C34 1_555 1_555
C30 C31 1_555 1_555
O13 C43 1_555 1_555
C31 C4 1_555 1_555
O15 C43 1_555 1_555
C34 C37 1_555 1_555
C35 C31 1_555 1_555
C37 C40 1_555 1_555
C38 C30 1_555 1_555
C40 H24 1_555 1_555
C42 C43 1_555 1_555
C44 C37 1_555 1_555
H26 C44 1_555 1_555
C46 C35 1_555 1_555
H28 C46 1_555 1_555
C47 C35 1_555 1_555
H29 C47 1_555 1_555
C49 C38 1_555 1_555
H31 C49 1_555 1_555
C50 C42 1_555 1_555
H32 C50 1_555 1_555
H33 C51 1_555 1_555
C52 C42 1_555 1_555
H34 C52 1_555 1_555
C53 C38 1_555 1_555
H35 C53 1_555 1_555
Bi3 O13 1_555 1_555
Bi5 O10 1_555 1_555
O12 Bi5 1_555 1_555
O15 Bi3 1_555 1_555
C40 C46 1_555 1_555
C44 C47 1_555 1_555
C49 C50 1_555 1_555
C52 C53 1_555 1_555
Bi3 O1 1_555 1_555
O1 C5 1_555 1_555
O3 Bi3 1_555 1_555
C1 C2 1_555 1_555
O4 C14 1_555 1_555
C2 C6 1_555 1_555
O6 C14 1_555 1_555
C5 O3 1_555 1_555
C6 C17 1_555 1_555
C8 C5 1_555 1_555
C9 C1 1_555 1_555
C11 C8 1_555 1_555
H1 C11 1_555 1_555
C13 C14 1_555 1_555
C15 C8 1_555 1_555
H3 C15 1_555 1_555
C17 C11 1_555 1_555
H5 C17 1_555 1_555
C18 C6 1_555 1_555
H6 C18 1_555 1_555
C20 C9 1_555 1_555
H8 C20 1_555 1_555
C21 C13 1_555 1_555
H9 C21 1_555 1_555
H10 C22 1_555 1_555
C23 C13 1_555 1_555
H11 C23 1_555 1_555
C24 C9 1_555 1_555
H13 C24 1_555 1_555
O8 Bi3 1_555 1_555
O9 Bi3 1_555 1_555
C27 O9 1_555 1_555
H17 C27 1_555 1_555
H18 C28 1_555 1_555
H19 C28 1_555 1_555
H20 C28 1_555 1_555
C33 C2 1_555 1_555
C39 C33 1_555 1_555
C41 C39 1_555 1_555
H25 C41 1_555 1_555
Bi5 O4 1_555 1_555
O17 Bi5 1_555 1_555
O18 Bi5 1_555 1_555
C56 O18 1_555 1_555
H40 C56 1_555 1_555
H41 C57 1_555 1_555
H42 C57 1_555 1_555
H43 C57 1_555 1_555
O20 Bi3 1_555 1_555
O21 Bi5 1_555 1_555
O24 Bi3 1_555 1_555
O25 Bi5 1_555 1_555
O6 Bi5 1_555 1_555
C15 C18 1_555 1_555
C20 C21 1_555 1_555
C23 C24 1_555 1_555
O7 H12 1_555 1_555
H15 C25 1_555 1_555
H16 C25 1_555 1_555
C26 O7 1_555 1_555
C29 N1 1_555 1_555
H21 C29 1_555 1_555
H22 C29 1_555 1_555
H23 C29 1_555 1_555
O14 C32 1_555 1_555
C32 C36 1_555 1_555
C48 C36 1_555 1_555
H30 C48 1_555 1_555
C25 C26 1_555 1_555
O14 Bi6 1_555 1_555
O7_2 H12_2 1_555 1_555
C25_2 H14_2 1_555 1_555
H15_2 C25_2 1_555 1_555
H16_2 C25_2 1_555 1_555
C26_2 O7_2 1_555 1_555
O8_2 Bi4 1_555 1_555
O23 Bi4 1_555 1_555
O26 Bi4 1_555 1_555
C25_2 C26_2 1_555 1_555
C26_2 O8_2 1_555 1_555
O1_2 C5_2 1_555 1_555
C2_2 C6_2 1_555 1_555
C5_2 O3_2 1_555 1_555
C6_2 C17_2 1_555 1_555
C8_2 C5_2 1_555 1_555
C11_2 C8_2 1_555 1_555
H1_2 C11_2 1_555 1_555
C15_2 C8_2 1_555 1_555
H3_2 C15_2 1_555 1_555
C17_2 C11_2 1_555 1_555
C18_2 C6_2 1_555 1_555
C27_2 O9_2 1_555 1_555
H17_2 C27_2 1_555 1_555
N1_2 C27_2 1_555 1_555
C28_2 N1_2 1_555 1_555
H18_2 C28_2 1_555 1_555
H19_2 C28_2 1_555 1_555
H20_2 C28_2 1_555 1_555
C29_2 N1_2 1_555 1_555
H21_2 C29_2 1_555 1_555
H22_2 C29_2 1_555 1_555
H23_2 C29_2 1_555 1_555
O21 C32_2 1_555 1_555
O23 C43_2 1_555 1_555
O25 C32_2 1_555 1_555
C32_2 C36_2 1_555 1_555
C33_2 C2_2 1_555 1_555
O26 C43_2 1_555 1_555
C36_2 C45_2 1_555 1_555
C38_2 C30_2 1_555 1_555
C39_2 C33_2 1_555 1_555
C41_2 C39_2 1_555 1_555
H25_2 C41_2 1_555 1_555
C42_2 C43_2 1_555 1_555
C45_2 H27_2 1_555 1_555
C48_2 C36_2 1_555 1_555
H30_2 C48_2 1_555 1_555
C49_2 C38_2 1_555 1_555
C50_2 C42_2 1_555 1_555
H32_2 C50_2 1_555 1_555
C51_2 C39_2 1_555 1_555
H33_2 C51_2 1_555 1_555
C52_2 C42_2 1_555 1_555
H34_2 C52_2 1_555 1_555
C53_2 C38_2 1_555 1_555
C15_2 C18_2 1_555 1_555
C30_2 C33_2 1_555 1_555
C41_2 C48_2 1_555 1_555
C45_2 C51_2 1_555 1_555
C49_2 C50_2 1_555 1_555
C52_2 C53_2 1_555 1_555
C56_2 O18_2 1_555 1_555
H40_2 C56_2 1_555 1_555
N2_2 C56_2 1_555 1_555
C57_2 N2_2 1_555 1_555
H41_2 C57_2 1_555 1_555
H42_2 C57_2 1_555 1_555
H43_2 C57_2 1_555 1_555
C58_2 N2_2 1_555 1_555
H44_2 C58_2 1_555 1_555
H45_2 C58_2 1_555 1_555
H46_2 C58_2 1_555 1_555
O20 C3_2 1_555 1_555
O4_2 C14_2 1_555 1_555
O24 C3_2 1_555 1_555
C3_2 C7_2 1_555 1_555
C4_2 C1_2 1_555 1_555
O6_2 C14_2 1_555 1_555
C7_2 C16_2 1_555 1_555
C9_2 C1_2 1_555 1_555
C10_2 C4_2 1_555 1_555
C12_2 C10_2 1_555 1_555
H2_2 C12_2 1_555 1_555
C13_2 C14_2 1_555 1_555
C16_2 H4_2 1_555 1_555
C19_2 C7_2 1_555 1_555
H7_2 C19_2 1_555 1_555
C20_2 C9_2 1_555 1_555
C21_2 C13_2 1_555 1_555
H9_2 C21_2 1_555 1_555
C22_2 C10_2 1_555 1_555
H10_2 C22_2 1_555 1_555
C23_2 C13_2 1_555 1_555
H11_2 C23_2 1_555 1_555
C24_2 C9_2 1_555 1_555
O19 C34_2 1_555 1_555
O22 C34_2 1_555 1_555
C31_2 C4_2 1_555 1_555
C34_2 C37_2 1_555 1_555
C35_2 C31_2 1_555 1_555
C37_2 C40_2 1_555 1_555
C40_2 H24_2 1_555 1_555
C44_2 C37_2 1_555 1_555
H26_2 C44_2 1_555 1_555
C46_2 C35_2 1_555 1_555
C47_2 C35_2 1_555 1_555
Bi6 O4_2 1_555 1_555
O16_2 H36_2 1_555 1_555
C54_2 H37_2 1_555 1_555
H38_2 C54_2 1_555 1_555
H39_2 C54_2 1_555 1_555
C55_2 O16_2 1_555 1_555
O17_2 Bi6 1_555 1_555
O6_2 Bi6 1_555 1_555
C12_2 C19_2 1_555 1_555
C16_2 C22_2 1_555 1_555
C20_2 C21_2 1_555 1_555
C23_2 C24_2 1_555 1_555
C40_2 C46_2 1_555 1_555
C44_2 C47_2 1_555 1_555
C54_2 C55_2 1_555 1_555
C55_2 O17_2 1_555 1_555

#END
