
###############################################################################
#
# This file contains modified crystal structure data generated from the
# MOF subset of the Cambridge Structural Database (CSD) v543 
# hosted by the Cambridge Crystallographic Data Centre (CCDC).
#
# This work is licensed under the Creative Commons
# Attribution-NonCommercial-ShareAlike 4.0 International License.
# To view a copy of this license, visit
# http://creativecommons.org/licenses/by-nc-sa/4.0/
# or send a letter to
# Creative Commons, PO Box 1866, Mountain View, CA 94042, USA.
#
# CIF created using the CSD Python API on 29 September 2022
# The structure has been converted into the P1 space group
# The structure has a 3D framework
# The original CSD entry CUVYUO is in the monoclinic crystal system
# The framework has been calculated to contain at least 10.0% void space
# The void calculation uses a probe of radius 1.32A, grid spacing 0.4
#
###############################################################################

data_CUVYUO
_chemical_formula_moiety         '(C36 H36 Eu4 N8 O26)n'
_symmetry_cell_setting           triclinic
_symmetry_space_group_name_H-M   'P 1'
_symmetry_Int_Tables_number      1
_space_group_name_Hall           'P 1'
loop_
_symmetry_equiv_pos_site_id
_symmetry_equiv_pos_as_xyz
1 x,y,z
_cell_length_a                   8.7700(11)
_cell_length_b                   14.0506(17)
_cell_length_c                   11.8427(15)
_cell_angle_alpha                90
_cell_angle_beta                 93.1780(10)
_cell_angle_gamma                90
_cell_volume                     1457.06
loop_
_atom_site_label
_atom_site_type_symbol
_atom_site_fract_x
_atom_site_fract_y
_atom_site_fract_z
Eu1 Eu 0.22866(3) 0.133429(19) 0.06191(2)
N1 N 0.0634(5) 0.2743(3) 0.1241(4)
O2 O 0.0071(4) 0.4008(3) 0.4563(3)
O3 O 0.2450(4) 0.1686(3) 0.2593(3)
O4 O 0.2308(4) 0.2616(3) 0.4079(3)
O5 O 0.4573(4) 0.0489(3) 0.1297(3)
O7 O 0.4413(5) 0.2459(3) 0.0956(4)
H8 H 0.5108 0.2234 0.1381
H9 H 0.4285 0.3040 0.1128
C4 C 0.0853(6) 0.2997(4) 0.2372(4)
C8 C 0.1945(6) 0.2413(4) 0.3075(4)
C9 C 0.5308(7) 0.0008(4) 0.0624(4)
Eu4 Eu 0.22866(3) 0.366571(19) 0.56191(2)
O11 O 0.0071(4) 0.0992(3) 0.9563(3)
O15 O 0.2308(4) 0.2384(3) 0.9079(3)
O19 O 0.3505(4) 0.0465(3) 0.9143(3)
O6 O 0.6495(4) 0.9535(3) 0.0857(3)
C10 C 0.1058(12) 0.8337(11) 0.5413(7)
H10 H 0.1080 0.8983 0.5704
H11 H 0.0423 0.7956 0.5883
C11 C 0.2664(9) 0.7934(8) 0.5449(7)
H12 H 0.3305 0.8342 0.5015
H13 H 0.2642 0.7310 0.5099
C12 C 0.3355(12) 0.7851(9) 0.6653(8)
H14 H 0.3873 0.8432 0.6861
H15 H 0.4068 0.7333 0.6698
H16 H 0.2558 0.7736 0.7161
N4 N 0.0878(6) 0.8955(3) 0.3418(4)
O8 O 0.1396(5) 0.9963(3) 0.1535(3)
C14 C 0.0394(7) 0.8331(4) 0.4190(4)
C15 C 0.0083(6) 0.8756(4) 0.2404(4)
C16 C 0.0472(7) 0.9287(4) 0.1375(5)
Eu5 Eu 0.77134(3) 0.866571(19) 0.93809(2)
O17 O 0.5427(4) 0.9511(3) 0.8703(3)
C18 C 0.4692(7) 0.9992(4) 0.9376(4)
N2 N 0.9122(6) 0.3955(3) 0.1582(4)
O1 O 0.8604(5) 0.4963(3) 0.3465(3)
C5 C 0.9606(7) 0.3331(4) 0.0810(4)
C6 C 0.9917(6) 0.3756(4) 0.2596(4)
C7 C 0.9528(7) 0.4287(4) 0.3625(5)
Eu3 Eu 0.77134(3) 0.633429(19) 0.43809(2)
C1 C 0.8942(12) 0.3337(11) 0.9587(7)
H1 H 0.8920 0.3983 0.9296
H2 H 0.9577 0.2956 0.9117
C2 C 0.7336(9) 0.2934(8) 0.9551(7)
H3 H 0.6695 0.3342 0.9985
H4 H 0.7358 0.2310 0.9901
C3 C 0.6645(12) 0.2851(9) 0.8347(8)
H5 H 0.6127 0.3432 0.8139
H6 H 0.5932 0.2333 0.8302
H7 H 0.7442 0.2736 0.7839
N3 N 0.9366(5) 0.7743(3) 0.3759(4)
O10 O 0.9929(4) 0.9008(3) 0.0437(3)
O12 O 0.9929(4) 0.5992(3) 0.5437(3)
O13 O 0.7550(4) 0.6686(3) 0.2407(3)
O14 O 0.7692(4) 0.7616(3) 0.0921(3)
O16 O 0.7692(4) 0.7384(3) 0.5921(3)
O18 O 0.5427(4) 0.5489(3) 0.3703(3)
O20 O 0.6495(4) 0.5465(3) 0.5857(3)
O21 O 0.5587(5) 0.7459(3) 0.4044(4)
H17 H 0.4892 0.7234 0.3619
H18 H 0.5715 0.8040 0.3872
C13 C 0.9147(6) 0.7997(4) 0.2628(4)
C17 C 0.8055(6) 0.7413(4) 0.1925(4)
O6_2 O 0.3505(4) 0.4535(3) 0.4143(3)
C9_2 C 0.4692(7) 0.5008(4) 0.4376(4)
O17_2 O 0.4573(4) 0.4511(3) 0.6297(3)
C18_2 C 0.5308(7) 0.4992(4) 0.5624(4)
N3_2 N 0.0634(5) 0.2257(3) 0.6241(4)
O9 O 0.1396(5) 0.5037(3) 0.6535(3)
O13_2 O 0.2450(4) 0.3314(3) 0.7593(3)
O21_2 O 0.4413(5) 0.2541(3) 0.5956(4)
H17_2 H 0.5108 0.2766 0.6381
H18_2 H 0.4285 0.1960 0.6128
C13_2 C 0.0853(6) 0.2003(4) 0.7372(4)
C17_2 C 0.1945(6) 0.2587(4) 0.8075(4)
C1_2 C 0.1058(12) 0.6663(11) 0.0413(7)
H1_2 H 0.1080 0.6017 0.0704
H2_2 H 0.0423 0.7044 0.0883
C2_2 C 0.2664(9) 0.7066(8) 0.0449(7)
H3_2 H 0.3305 0.6658 0.0015
H4_2 H 0.2642 0.7690 0.0099
C3_2 C 0.3355(12) 0.7149(9) 0.1653(8)
H5_2 H 0.3873 0.6568 0.1861
H6_2 H 0.4068 0.7667 0.1698
H7_2 H 0.2558 0.7264 0.2161
N2_2 N 0.0878(6) 0.6045(3) 0.8418(4)
C5_2 C 0.0394(7) 0.6669(4) 0.9190(4)
C6_2 C 0.0083(6) 0.6244(4) 0.7404(4)
C7_2 C 0.0472(7) 0.5713(4) 0.6375(5)
C10_2 C 0.8942(12) 0.1663(11) 0.4587(7)
H10_2 H 0.8920 0.1017 0.4296
H11_2 H 0.9577 0.2044 0.4117
C11_2 C 0.7336(9) 0.2066(8) 0.4551(7)
H12_2 H 0.6695 0.1658 0.4985
H13_2 H 0.7358 0.2690 0.4901
C12_2 C 0.6645(12) 0.2149(9) 0.3347(8)
H14_2 H 0.6127 0.1568 0.3139
H15_2 H 0.5932 0.2667 0.3302
H16_2 H 0.7442 0.2264 0.2839
N4_2 N 0.9122(6) 0.1045(3) 0.6582(4)
O8_2 O 0.8604(5) 0.0037(3) 0.8465(3)
C14_2 C 0.9606(7) 0.1669(4) 0.5810(4)
C15_2 C 0.9917(6) 0.1244(4) 0.7596(4)
C16_2 C 0.9528(7) 0.0713(4) 0.8625(5)
N1_2 N 0.9366(5) 0.7257(3) 0.8759(4)
O3_2 O 0.7550(4) 0.8314(3) 0.7407(3)
O7_2 O 0.5587(5) 0.7541(3) 0.9044(4)
H8_2 H 0.4892 0.7766 0.8619
H9_2 H 0.5715 0.6960 0.8872
C4_2 C 0.9147(6) 0.7003(4) 0.7628(4)
C8_2 C 0.8055(6) 0.7587(4) 0.6925(4)
loop_
_geom_bond_atom_site_label_1
_geom_bond_atom_site_label_2
_geom_bond_site_symmetry_1
_geom_bond_site_symmetry_2
Eu1 N1 1_555 1_555
N1 C4 1_555 1_555
O3 Eu1 1_555 1_555
O4 C8 1_555 1_555
O5 Eu1 1_555 1_555
O7 Eu1 1_555 1_555
H8 O7 1_555 1_555
H9 O7 1_555 1_555
C8 O3 1_555 1_555
C9 O5 1_555 1_555
Eu4 O2 1_555 1_555
O4 Eu4 1_555 1_555
C4 C8 1_555 1_555
C10 H10 1_555 1_555
H11 C10 1_555 1_555
C11 C10 1_555 1_555
H12 C11 1_555 1_555
H13 C11 1_555 1_555
C12 C11 1_555 1_555
H14 C12 1_555 1_555
H15 C12 1_555 1_555
H16 C12 1_555 1_555
N4 C14 1_555 1_555
C14 C10 1_555 1_555
C15 N4 1_555 1_555
C16 O8 1_555 1_555
C15 C16 1_555 1_555
O17 Eu5 1_555 1_555
O17 C18 1_555 1_555
N2 C5 1_555 1_555
O1 C7 1_555 1_555
C6 N2 1_555 1_555
C7 C6 1_555 1_555
Eu3 O1 1_555 1_555
C1 H1 1_555 1_555
H2 C1 1_555 1_555
C2 C1 1_555 1_555
H3 C2 1_555 1_555
H4 C2 1_555 1_555
C3 C2 1_555 1_555
H5 C3 1_555 1_555
H6 C3 1_555 1_555
H7 C3 1_555 1_555
Eu3 N3 1_555 1_555
N3 C13 1_555 1_555
O12 Eu3 1_555 1_555
O13 Eu3 1_555 1_555
O16 Eu3 1_555 1_555
O18 Eu3 1_555 1_555
O20 Eu3 1_555 1_555
O21 Eu3 1_555 1_555
H17 O21 1_555 1_555
H18 O21 1_555 1_555
C17 O13 1_555 1_555
O14 C17 1_555 1_555
C13 C17 1_555 1_555
O6_2 C9_2 1_555 1_555
C9_2 O18 1_555 1_555
Eu4 O6_2 1_555 1_555
O17_2 Eu4 1_555 1_555
C18_2 C9_2 1_555 1_555
O17_2 C18_2 1_555 1_555
O20 C18_2 1_555 1_555
Eu4 N3_2 1_555 1_555
N3_2 C13_2 1_555 1_555
O9 Eu4 1_555 1_555
O13_2 Eu4 1_555 1_555
O21_2 Eu4 1_555 1_555
H17_2 O21_2 1_555 1_555
H18_2 O21_2 1_555 1_555
C17_2 O13_2 1_555 1_555
O15 C17_2 1_555 1_555
C13_2 C17_2 1_555 1_555
C1_2 H1_2 1_555 1_555
H2_2 C1_2 1_555 1_555
C2_2 C1_2 1_555 1_555
H3_2 C2_2 1_555 1_555
H4_2 C2_2 1_555 1_555
C3_2 C2_2 1_555 1_555
H5_2 C3_2 1_555 1_555
H6_2 C3_2 1_555 1_555
H7_2 C3_2 1_555 1_555
N2_2 C5_2 1_555 1_555
O9 C7_2 1_555 1_555
C6_2 N2_2 1_555 1_555
C7_2 C6_2 1_555 1_555
C10_2 H10_2 1_555 1_555
H11_2 C10_2 1_555 1_555
C11_2 C10_2 1_555 1_555
H12_2 C11_2 1_555 1_555
H13_2 C11_2 1_555 1_555
C12_2 C11_2 1_555 1_555
H14_2 C12_2 1_555 1_555
H15_2 C12_2 1_555 1_555
H16_2 C12_2 1_555 1_555
N4_2 C14_2 1_555 1_555
C14_2 C10_2 1_555 1_555
C15_2 N4_2 1_555 1_555
C16_2 O8_2 1_555 1_555
C15_2 C16_2 1_555 1_555
Eu5 N1_2 1_555 1_555
N1_2 C4_2 1_555 1_555
O3_2 Eu5 1_555 1_555
O16 C8_2 1_555 1_555
O7_2 Eu5 1_555 1_555
H8_2 O7_2 1_555 1_555
H9_2 O7_2 1_555 1_555
C8_2 O3_2 1_555 1_555
C4_2 C8_2 1_555 1_555

#END
