
###############################################################################
#
# This file contains modified crystal structure data generated from the
# MOF subset of the Cambridge Structural Database (CSD) v543 
# hosted by the Cambridge Crystallographic Data Centre (CCDC).
#
# This work is licensed under the Creative Commons
# Attribution-NonCommercial-ShareAlike 4.0 International License.
# To view a copy of this license, visit
# http://creativecommons.org/licenses/by-nc-sa/4.0/
# or send a letter to
# Creative Commons, PO Box 1866, Mountain View, CA 94042, USA.
#
# CIF created using the CSD Python API on 29 September 2022
# The structure has been converted into the P1 space group
# The structure has a 3D framework
# The original CSD entry CUWNUG is in the monoclinic crystal system
# The framework has been calculated to contain at least 10.0% void space
# The void calculation uses a probe of radius 1.32A, grid spacing 0.4
#
###############################################################################

data_CUWNUG
_chemical_formula_moiety         '(C60 H32 N8 O16)n'
_symmetry_cell_setting           triclinic
_symmetry_space_group_name_H-M   'P 1'
_symmetry_Int_Tables_number      1
_space_group_name_Hall           'P 1'
loop_
_symmetry_equiv_pos_site_id
_symmetry_equiv_pos_as_xyz
1 x,y,z
_cell_length_a                   11.1911(4)
_cell_length_b                   13.7660(4)
_cell_length_c                   13.1938(4)
_cell_angle_alpha                90
_cell_angle_beta                 108.2670(10)
_cell_angle_gamma                90
_cell_volume                     1930.16
loop_
_atom_site_label
_atom_site_type_symbol
_atom_site_fract_x
_atom_site_fract_y
_atom_site_fract_z
Cd5 Cd 0.11465(2) 0.92496(2) 0.03519(2)
Cd1 Cd 0.11465(2) 0.57504(2) 0.53519(2)
O5 O 0.2039(2) 0.46873(18) 0.6637(2)
O6 O 0.1863(2) 0.47278(19) 0.4361(2)
N3 N 0.2665(3) 0.6852(2) 0.5666(2)
Cd3 Cd 0.88535(2) 0.07504(2) 0.96481(2)
O1 O 0.7961(2) 0.96873(18) 0.8363(2)
O2 O 0.8137(2) 0.52722(19) 0.5639(2)
O3 O 0.9824(2) 0.6250(2) 0.6181(2)
O4 O 0.9687(2) 0.87551(19) 0.8837(2)
N1 N 0.4629(3) 0.7390(2) 0.6064(2)
C1 C 0.1699(3) 0.8112(3) 0.4252(3)
H1 H 0.085230 0.789991 0.409548
C2 C 0.7958(3) 0.6749(3) 0.6475(3)
C3 C 0.7887(3) 0.8178(2) 0.7505(3)
C4 C 0.2671(3) 0.7670(2) 0.5047(3)
C5 C 0.3904(3) 0.8012(2) 0.5278(3)
C6 C 0.5976(3) 0.7409(3) 0.6475(3)
C7 C 0.3852(3) 0.6712(3) 0.6248(3)
H2 H 0.412543 0.619168 0.673895
C8 C 0.6574(3) 0.8155(3) 0.7142(3)
H3 H 0.610023 0.864401 0.735106
C9 C 0.8705(3) 0.6026(3) 0.6066(3)
C10 C 0.6647(3) 0.6704(3) 0.6140(3)
H4 H 0.621995 0.619375 0.568529
C11 C 0.8567(3) 0.7488(2) 0.7156(3)
H5 H 0.945971 0.752087 0.738446
C12 C 0.8566(3) 0.8939(3) 0.8298(3)
C13 C 0.4221(4) 0.8779(3) 0.4722(3)
H6 H 0.506299 0.900270 0.488522
C14 C 0.2016(4) 0.8871(3) 0.3699(3)
H7 H 0.137354 0.918400 0.314790
C15 C 0.3264(4) 0.9191(3) 0.3933(3)
H8 H 0.344644 0.970910 0.352935
Cd4 Cd 0.88535(2) 0.42496(2) 0.46481(2)
O7 O 0.9687(2) 0.62449(19) 0.3837(2)
C1_2 C 0.8301(3) 0.3112(3) 0.0748(3)
H1_2 H 0.914770 0.289991 0.090452
C13_2 C 0.5779(4) 0.3779(3) 0.0278(3)
H6_2 H 0.493701 0.400270 0.011478
C14_2 C 0.7984(4) 0.3871(3) 0.1301(3)
H7_2 H 0.862646 0.418400 0.185210
C15_2 C 0.6736(4) 0.4191(3) 0.1067(3)
H8_2 H 0.655356 0.470910 0.147065
O7_2 O 0.0313(2) 0.12449(19) 0.1163(2)
O2_2 O 0.1863(2) 0.02722(19) 0.9361(2)
O3_2 O 0.0176(2) 0.1250(2) 0.8819(2)
O4_2 O 0.0313(2) 0.37551(19) 0.6163(2)
N1_2 N 0.5371(3) 0.2390(2) 0.8936(2)
N2 N 0.7335(3) 0.1852(2) 0.9334(2)
C2_2 C 0.2042(3) 0.1749(3) 0.8525(3)
C3_2 C 0.2113(3) 0.3178(2) 0.7495(3)
C4_2 C 0.7329(3) 0.2670(2) 0.9953(3)
C5_2 C 0.6096(3) 0.3012(2) 0.9722(3)
C6_2 C 0.4024(3) 0.2409(3) 0.8525(3)
C7_2 C 0.6148(3) 0.1712(3) 0.8752(3)
H2_2 H 0.587457 0.119168 0.826105
C8_2 C 0.3426(3) 0.3155(3) 0.7858(3)
H3_2 H 0.389977 0.364401 0.764894
C9_2 C 0.1295(3) 0.1026(3) 0.8934(3)
C10_2 C 0.3353(3) 0.1704(3) 0.8860(3)
H4_2 H 0.378005 0.119375 0.931471
C11_2 C 0.1433(3) 0.2488(2) 0.7844(3)
H5_2 H 0.054029 0.252087 0.761554
C12_2 C 0.1434(3) 0.3939(3) 0.6702(3)
O6_2 O 0.8137(2) 0.97278(19) 0.0639(2)
O1_2 O 0.2039(2) 0.03127(18) 0.1637(2)
O3_3 O 0.0176(2) 0.3750(2) 0.3819(2)
N1_3 N 0.5371(3) 0.2610(2) 0.3936(2)
N2_2 N 0.7335(3) 0.3148(2) 0.4334(2)
C1_3 C 0.8301(3) 0.1888(3) 0.5748(3)
H1_3 H 0.914770 0.210009 0.590452
C2_3 C 0.2042(3) 0.3251(3) 0.3525(3)
C3_3 C 0.2113(3) 0.1822(2) 0.2495(3)
C4_3 C 0.7329(3) 0.2330(2) 0.4953(3)
C5_3 C 0.6096(3) 0.1988(2) 0.4722(3)
C6_3 C 0.4024(3) 0.2591(3) 0.3525(3)
C7_3 C 0.6148(3) 0.3288(3) 0.3752(3)
H2_3 H 0.587457 0.380832 0.326105
C8_3 C 0.3426(3) 0.1845(3) 0.2858(3)
H3_3 H 0.389977 0.135599 0.264894
C9_3 C 0.1295(3) 0.3974(3) 0.3934(3)
C10_3 C 0.3353(3) 0.3296(3) 0.3860(3)
H4_3 H 0.378005 0.380625 0.431471
C11_3 C 0.1433(3) 0.2512(2) 0.2844(3)
H5_3 H 0.054029 0.247913 0.261554
C12_3 C 0.1434(3) 0.1061(3) 0.1702(3)
C13_3 C 0.5779(4) 0.1221(3) 0.5278(3)
H6_3 H 0.493701 0.099730 0.511478
C14_3 C 0.7984(4) 0.1129(3) 0.6301(3)
H7_3 H 0.862646 0.081600 0.685210
C15_3 C 0.6736(4) 0.0809(3) 0.6067(3)
H8_3 H 0.655356 0.029090 0.647065
O5_2 O 0.7961(2) 0.53127(18) 0.3363(2)
N3_2 N 0.2665(3) 0.8148(2) 0.0666(2)
O3_4 O 0.9824(2) 0.8750(2) 0.1181(2)
N1_4 N 0.4629(3) 0.7610(2) 0.1064(2)
C2_4 C 0.7958(3) 0.8251(3) 0.1475(3)
C3_4 C 0.7887(3) 0.6822(2) 0.2505(3)
C4_4 C 0.2671(3) 0.7330(2) 0.0047(3)
C5_4 C 0.3904(3) 0.6988(2) 0.0278(3)
C6_4 C 0.5976(3) 0.7591(3) 0.1475(3)
C7_4 C 0.3852(3) 0.8288(3) 0.1248(3)
H2_4 H 0.412543 0.880832 0.173895
C8_4 C 0.6574(3) 0.6845(3) 0.2142(3)
H3_4 H 0.610023 0.635599 0.235106
C9_4 C 0.8705(3) 0.8974(3) 0.1066(3)
C10_4 C 0.6647(3) 0.8296(3) 0.1140(3)
H4_4 H 0.621995 0.880625 0.068529
C11_4 C 0.8567(3) 0.7512(2) 0.2156(3)
H5_4 H 0.945971 0.747913 0.238446
C12_4 C 0.8566(3) 0.6061(3) 0.3298(3)
C1_4 C 0.1699(3) 0.6888(3) 0.9252(3)
H1_4 H 0.085230 0.710009 0.909548
C13_4 C 0.4221(4) 0.6221(3) 0.9722(3)
H6_4 H 0.506299 0.599730 0.988522
C14_4 C 0.2016(4) 0.6129(3) 0.8699(3)
H7_4 H 0.137354 0.581600 0.814790
C15_4 C 0.3264(4) 0.5809(3) 0.8933(3)
H8_4 H 0.344644 0.529090 0.852935
loop_
_geom_bond_atom_site_label_1
_geom_bond_atom_site_label_2
_geom_bond_site_symmetry_1
_geom_bond_site_symmetry_2
O5 Cd1 1_555 1_555
O6 Cd1 1_555 1_555
N3 Cd1 1_555 1_555
O1 C12 1_555 1_555
O2 C9 1_555 1_555
O3 C9 1_555 1_555
O4 C12 1_555 1_555
N1 C5 1_555 1_555
N3 C4 1_555 1_555
C1 H1 1_555 1_555
C2 C9 1_555 1_555
C3 C8 1_555 1_555
C4 C1 1_555 1_555
C5 C4 1_555 1_555
C6 N1 1_555 1_555
C7 N1 1_555 1_555
H2 C7 1_555 1_555
C8 C6 1_555 1_555
H3 C8 1_555 1_555
C10 C2 1_555 1_555
H4 C10 1_555 1_555
C11 C2 1_555 1_555
H5 C11 1_555 1_555
C12 C3 1_555 1_555
C13 C5 1_555 1_555
H6 C13 1_555 1_555
C14 C1 1_555 1_555
H7 C14 1_555 1_555
C15 C13 1_555 1_555
H8 C15 1_555 1_555
Cd4 O2 1_555 1_555
N3 C7 1_555 1_555
C3 C11 1_555 1_555
C6 C10 1_555 1_555
C14 C15 1_555 1_555
C1_2 H1_2 1_555 1_555
H6_2 C13_2 1_555 1_555
C14_2 C1_2 1_555 1_555
H7_2 C14_2 1_555 1_555
C15_2 C13_2 1_555 1_555
H8_2 C15_2 1_555 1_555
C14_2 C15_2 1_555 1_555
O5 C12_2 1_555 1_555
O2_2 C9_2 1_555 1_555
O3_2 C9_2 1_555 1_555
O4_2 C12_2 1_555 1_555
N1_2 C5_2 1_555 1_555
N2 C4_2 1_555 1_555
C2_2 C9_2 1_555 1_555
C3_2 C8_2 1_555 1_555
C5_2 C4_2 1_555 1_555
C6_2 N1_2 1_555 1_555
C7_2 N1_2 1_555 1_555
H2_2 C7_2 1_555 1_555
C8_2 C6_2 1_555 1_555
H3_2 C8_2 1_555 1_555
C10_2 C2_2 1_555 1_555
H4_2 C10_2 1_555 1_555
C11_2 C2_2 1_555 1_555
H5_2 C11_2 1_555 1_555
C12_2 C3_2 1_555 1_555
Cd3 N2 1_555 1_555
N2 C7_2 1_555 1_555
C3_2 C11_2 1_555 1_555
C6_2 C10_2 1_555 1_555
O1_2 C12_3 1_555 1_555
O6 C9_3 1_555 1_555
O3_3 C9_3 1_555 1_555
O7_2 C12_3 1_555 1_555
N1_3 C5_3 1_555 1_555
N2_2 C4_3 1_555 1_555
C1_3 H1_3 1_555 1_555
C2_3 C9_3 1_555 1_555
C3_3 C8_3 1_555 1_555
C4_3 C1_3 1_555 1_555
C5_3 C4_3 1_555 1_555
C6_3 N1_3 1_555 1_555
C7_3 N1_3 1_555 1_555
H2_3 C7_3 1_555 1_555
C8_3 C6_3 1_555 1_555
H3_3 C8_3 1_555 1_555
C10_3 C2_3 1_555 1_555
H4_3 C10_3 1_555 1_555
C11_3 C2_3 1_555 1_555
H5_3 C11_3 1_555 1_555
C12_3 C3_3 1_555 1_555
C13_3 C5_3 1_555 1_555
H6_3 C13_3 1_555 1_555
C14_3 C1_3 1_555 1_555
H7_3 C14_3 1_555 1_555
C15_3 C13_3 1_555 1_555
H8_3 C15_3 1_555 1_555
Cd4 N2_2 1_555 1_555
N2_2 C7_3 1_555 1_555
C3_3 C11_3 1_555 1_555
C6_3 C10_3 1_555 1_555
C14_3 C15_3 1_555 1_555
O5_2 Cd4 1_555 1_555
N3_2 Cd5 1_555 1_555
O5_2 C12_4 1_555 1_555
O6_2 C9_4 1_555 1_555
O3_4 C9_4 1_555 1_555
O7 C12_4 1_555 1_555
N1_4 C5_4 1_555 1_555
N3_2 C4_4 1_555 1_555
C2_4 C9_4 1_555 1_555
C3_4 C8_4 1_555 1_555
C5_4 C4_4 1_555 1_555
C6_4 N1_4 1_555 1_555
C7_4 N1_4 1_555 1_555
H2_4 C7_4 1_555 1_555
C8_4 C6_4 1_555 1_555
H3_4 C8_4 1_555 1_555
C10_4 C2_4 1_555 1_555
H4_4 C10_4 1_555 1_555
C11_4 C2_4 1_555 1_555
H5_4 C11_4 1_555 1_555
C12_4 C3_4 1_555 1_555
N3_2 C7_4 1_555 1_555
C3_4 C11_4 1_555 1_555
C6_4 C10_4 1_555 1_555
C1_4 H1_4 1_555 1_555
H6_4 C13_4 1_555 1_555
C14_4 C1_4 1_555 1_555
H7_4 C14_4 1_555 1_555
C15_4 C13_4 1_555 1_555
H8_4 C15_4 1_555 1_555
C14_4 C15_4 1_555 1_555

#END
