
###############################################################################
#
# This file contains modified crystal structure data generated from the
# MOF subset of the Cambridge Structural Database (CSD) v543 
# hosted by the Cambridge Crystallographic Data Centre (CCDC).
#
# This work is licensed under the Creative Commons
# Attribution-NonCommercial-ShareAlike 4.0 International License.
# To view a copy of this license, visit
# http://creativecommons.org/licenses/by-nc-sa/4.0/
# or send a letter to
# Creative Commons, PO Box 1866, Mountain View, CA 94042, USA.
#
# CIF created using the CSD Python API on 29 September 2022
# The structure has been converted into the P1 space group
# The structure has a 3D framework
# The original CSD entry CUWNIU is in the monoclinic crystal system
# The framework has been calculated to contain at least 10.0% void space
# The void calculation uses a probe of radius 1.32A, grid spacing 0.4
#
###############################################################################

data_CUWNIU
_chemical_formula_moiety         '(C60 H32 N8 O16)n'
_symmetry_cell_setting           triclinic
_symmetry_space_group_name_H-M   'P 1'
_symmetry_Int_Tables_number      1
_space_group_name_Hall           'P 1'
loop_
_symmetry_equiv_pos_site_id
_symmetry_equiv_pos_as_xyz
1 x,y,z
_cell_length_a                   10.9470(3)
_cell_length_b                   12.8845(4)
_cell_length_c                   13.5188(4)
_cell_angle_alpha                90
_cell_angle_beta                 109.2070(10)
_cell_angle_gamma                90
_cell_volume                     1800.64
loop_
_atom_site_label
_atom_site_type_symbol
_atom_site_fract_x
_atom_site_fract_y
_atom_site_fract_z
Co5 Co 0.10535(5) 0.07378(4) 0.03374(4)
Co1 Co 0.10535(5) 0.42622(4) 0.53374(4)
O6 O 0.2002(3) 0.5235(2) 0.6539(2)
O7 O 0.1799(3) 0.5215(2) 0.4459(2)
N3 N 0.2523(3) 0.3189(3) 0.5633(3)
O1 O 0.9736(3) 0.1270(2) 0.8944(2)
O2 O 0.7998(3) 0.0235(2) 0.8461(2)
O3 O 0.8201(3) 0.4785(2) 0.5541(2)
O4 O 0.9903(3) 0.3703(2) 0.6103(2)
N2 N 0.4570(3) 0.2665(3) 0.6061(3)
C1 C 0.7995(4) 0.3277(3) 0.6457(3)
C2 C 0.8615(4) 0.2519(3) 0.7172(3)
H1 H 0.953191 0.247087 0.740097
C3 C 0.8598(4) 0.1046(3) 0.8389(3)
C4 C 0.3853(4) 0.2001(3) 0.5268(3)
C5 C 0.7903(4) 0.1825(3) 0.7559(3)
C6 C 0.2573(4) 0.2323(3) 0.5023(3)
C7 C 0.3733(4) 0.3365(3) 0.6221(3)
H2 H 0.398873 0.392308 0.670506
C8 C 0.5952(4) 0.2645(3) 0.6486(3)
C9 C 0.8766(4) 0.3982(3) 0.5999(3)
C10 C 0.6559(4) 0.1871(3) 0.7195(3)
H3 H 0.606364 0.138107 0.742711
C11 C 0.6657(4) 0.3353(3) 0.6118(3)
H4 H 0.622835 0.388236 0.563986
C12 C 0.1602(4) 0.1833(3) 0.4223(4)
H5 H 0.071968 0.202382 0.406420
C13 C 0.1966(4) 0.1060(4) 0.3670(4)
H6 H 0.131969 0.071719 0.311986
C14 C 0.4234(4) 0.1232(4) 0.4724(3)
H7 H 0.511433 0.102823 0.490200
C15 C 0.3268(5) 0.0767(4) 0.3900(4)
H8 H 0.349035 0.024741 0.349005
Co4 Co 0.89465(5) 0.57378(4) 0.46626(4)
O5 O 0.9736(3) 0.3730(2) 0.3944(2)
Co3 Co 0.89465(5) 0.92622(4) 0.96626(4)
C12_2 C 0.8398(4) 0.6833(3) 0.0777(4)
H5_2 H 0.928032 0.702382 0.093580
C13_2 C 0.8034(4) 0.6060(4) 0.1330(4)
H6_2 H 0.868031 0.571719 0.188014
C14_2 C 0.5766(4) 0.6232(4) 0.0276(3)
H7_2 H 0.488567 0.602823 0.009800
C15_2 C 0.6732(5) 0.5767(4) 0.1100(4)
H8_2 H 0.650965 0.524741 0.150995
O5_2 O 0.0264(3) 0.8730(2) 0.1056(2)
O1_2 O 0.0264(3) 0.6270(2) 0.6056(2)
O3_2 O 0.1799(3) 0.9785(2) 0.9459(2)
O4_2 O 0.0097(3) 0.8703(2) 0.8897(2)
N1 N 0.7477(3) 0.8189(3) 0.9367(3)
N2_2 N 0.5430(3) 0.7665(3) 0.8939(3)
C1_2 C 0.2005(4) 0.8277(3) 0.8543(3)
C2_2 C 0.1385(4) 0.7519(3) 0.7828(3)
H1_2 H 0.046809 0.747087 0.759903
C3_2 C 0.1402(4) 0.6046(3) 0.6611(3)
C4_2 C 0.6147(4) 0.7001(3) 0.9732(3)
C5_2 C 0.2097(4) 0.6825(3) 0.7441(3)
C6_2 C 0.7427(4) 0.7323(3) 0.9977(3)
C7_2 C 0.6267(4) 0.8365(3) 0.8779(3)
H2_2 H 0.601127 0.892308 0.829494
C8_2 C 0.4048(4) 0.7645(3) 0.8514(3)
C9_2 C 0.1234(4) 0.8982(3) 0.9001(3)
C10_2 C 0.3441(4) 0.6871(3) 0.7805(3)
H3_2 H 0.393636 0.638107 0.757289
C11_2 C 0.3343(4) 0.8353(3) 0.8882(3)
H4_2 H 0.377165 0.888236 0.936014
O7_2 O 0.8201(3) 0.0215(2) 0.0541(2)
O2_2 O 0.2002(3) 0.9765(2) 0.1539(2)
O4_3 O 0.0097(3) 0.6297(2) 0.3897(2)
N1_2 N 0.7477(3) 0.6811(3) 0.4367(3)
N2_3 N 0.5430(3) 0.7335(3) 0.3939(3)
C1_3 C 0.2005(4) 0.6723(3) 0.3543(3)
C2_3 C 0.1385(4) 0.7481(3) 0.2828(3)
H1_3 H 0.046809 0.752913 0.259903
C3_3 C 0.1402(4) 0.8954(3) 0.1611(3)
C4_3 C 0.6147(4) 0.7999(3) 0.4732(3)
C5_3 C 0.2097(4) 0.8175(3) 0.2441(3)
C6_3 C 0.7427(4) 0.7677(3) 0.4977(3)
C7_3 C 0.6267(4) 0.6635(3) 0.3779(3)
H2_3 H 0.601127 0.607692 0.329494
C8_3 C 0.4048(4) 0.7355(3) 0.3514(3)
C9_3 C 0.1234(4) 0.6018(3) 0.4001(3)
C10_3 C 0.3441(4) 0.8129(3) 0.2805(3)
H3_3 H 0.393636 0.861893 0.257289
C11_3 C 0.3343(4) 0.6647(3) 0.3882(3)
H4_3 H 0.377165 0.611764 0.436014
C12_3 C 0.8398(4) 0.8167(3) 0.5777(4)
H5_3 H 0.928032 0.797618 0.593580
C13_3 C 0.8034(4) 0.8940(4) 0.6330(4)
H6_3 H 0.868031 0.928281 0.688014
C14_3 C 0.5766(4) 0.8768(4) 0.5276(3)
H7_3 H 0.488567 0.897177 0.509800
C15_3 C 0.6732(5) 0.9233(4) 0.6100(4)
H8_3 H 0.650965 0.975259 0.650995
O6_2 O 0.7998(3) 0.4765(2) 0.3461(2)
N3_2 N 0.2523(3) 0.1811(3) 0.0633(3)
O4_4 O 0.9903(3) 0.1297(2) 0.1103(2)
N2_4 N 0.4570(3) 0.2335(3) 0.1061(3)
C1_4 C 0.7995(4) 0.1723(3) 0.1457(3)
C2_4 C 0.8615(4) 0.2481(3) 0.2172(3)
H1_4 H 0.953191 0.252913 0.240097
C3_4 C 0.8598(4) 0.3954(3) 0.3389(3)
C4_4 C 0.3853(4) 0.2999(3) 0.0268(3)
C5_4 C 0.7903(4) 0.3175(3) 0.2559(3)
C6_4 C 0.2573(4) 0.2677(3) 0.0023(3)
C7_4 C 0.3733(4) 0.1635(3) 0.1221(3)
H2_4 H 0.398873 0.107692 0.170506
C8_4 C 0.5952(4) 0.2355(3) 0.1486(3)
C9_4 C 0.8766(4) 0.1018(3) 0.0999(3)
C10_4 C 0.6559(4) 0.3129(3) 0.2195(3)
H3_4 H 0.606364 0.361893 0.242711
C11_4 C 0.6657(4) 0.1647(3) 0.1118(3)
H4_4 H 0.622835 0.111764 0.063986
C12_4 C 0.1602(4) 0.3167(3) 0.9223(4)
H5_4 H 0.071968 0.297618 0.906420
C13_4 C 0.1966(4) 0.3940(4) 0.8670(4)
H6_4 H 0.131969 0.428281 0.811986
C14_4 C 0.4234(4) 0.3768(4) 0.9724(3)
H7_4 H 0.511433 0.397177 0.990200
C15_4 C 0.3268(5) 0.4233(4) 0.8900(4)
H8_4 H 0.349035 0.475259 0.849005
loop_
_geom_bond_atom_site_label_1
_geom_bond_atom_site_label_2
_geom_bond_site_symmetry_1
_geom_bond_site_symmetry_2
O6 Co1 1_555 1_555
O7 Co1 1_555 1_555
N3 Co1 1_555 1_555
O1 C3 1_555 1_555
O2 C3 1_555 1_555
O3 C9 1_555 1_555
O4 C9 1_555 1_555
N3 C6 1_555 1_555
N2 C4 1_555 1_555
C1 C2 1_555 1_555
C2 H1 1_555 1_555
C3 C5 1_555 1_555
C4 C6 1_555 1_555
C5 C2 1_555 1_555
C6 C12 1_555 1_555
C7 N3 1_555 1_555
H2 C7 1_555 1_555
C8 N2 1_555 1_555
C9 C1 1_555 1_555
C10 C5 1_555 1_555
H3 C10 1_555 1_555
C11 C1 1_555 1_555
H4 C11 1_555 1_555
C12 H5 1_555 1_555
C13 C12 1_555 1_555
H6 C13 1_555 1_555
C14 C4 1_555 1_555
H7 C14 1_555 1_555
C15 C13 1_555 1_555
H8 C15 1_555 1_555
Co4 O3 1_555 1_555
N2 C7 1_555 1_555
C8 C10 1_555 1_555
C8 C11 1_555 1_555
C14 C15 1_555 1_555
C12_2 H5_2 1_555 1_555
C13_2 C12_2 1_555 1_555
H6_2 C13_2 1_555 1_555
H7_2 C14_2 1_555 1_555
C15_2 C13_2 1_555 1_555
H8_2 C15_2 1_555 1_555
C14_2 C15_2 1_555 1_555
O1_2 C3_2 1_555 1_555
O6 C3_2 1_555 1_555
O3_2 C9_2 1_555 1_555
O4_2 C9_2 1_555 1_555
N1 C6_2 1_555 1_555
N2_2 C4_2 1_555 1_555
C1_2 C2_2 1_555 1_555
C2_2 H1_2 1_555 1_555
C3_2 C5_2 1_555 1_555
C4_2 C6_2 1_555 1_555
C5_2 C2_2 1_555 1_555
C7_2 N1 1_555 1_555
H2_2 C7_2 1_555 1_555
C8_2 N2_2 1_555 1_555
C9_2 C1_2 1_555 1_555
C10_2 C5_2 1_555 1_555
H3_2 C10_2 1_555 1_555
C11_2 C1_2 1_555 1_555
H4_2 C11_2 1_555 1_555
Co3 N1 1_555 1_555
N2_2 C7_2 1_555 1_555
C8_2 C10_2 1_555 1_555
C8_2 C11_2 1_555 1_555
O5_2 C3_3 1_555 1_555
O2_2 C3_3 1_555 1_555
O7 C9_3 1_555 1_555
O4_3 C9_3 1_555 1_555
N1_2 C6_3 1_555 1_555
N2_3 C4_3 1_555 1_555
C1_3 C2_3 1_555 1_555
C2_3 H1_3 1_555 1_555
C3_3 C5_3 1_555 1_555
C4_3 C6_3 1_555 1_555
C5_3 C2_3 1_555 1_555
C6_3 C12_3 1_555 1_555
C7_3 N1_2 1_555 1_555
H2_3 C7_3 1_555 1_555
C8_3 N2_3 1_555 1_555
C9_3 C1_3 1_555 1_555
C10_3 C5_3 1_555 1_555
H3_3 C10_3 1_555 1_555
C11_3 C1_3 1_555 1_555
H4_3 C11_3 1_555 1_555
C12_3 H5_3 1_555 1_555
C13_3 C12_3 1_555 1_555
H6_3 C13_3 1_555 1_555
C14_3 C4_3 1_555 1_555
H7_3 C14_3 1_555 1_555
C15_3 C13_3 1_555 1_555
H8_3 C15_3 1_555 1_555
Co4 N1_2 1_555 1_555
N2_3 C7_3 1_555 1_555
C8_3 C10_3 1_555 1_555
C8_3 C11_3 1_555 1_555
C14_3 C15_3 1_555 1_555
O6_2 Co4 1_555 1_555
N3_2 Co5 1_555 1_555
O5 C3_4 1_555 1_555
O6_2 C3_4 1_555 1_555
O7_2 C9_4 1_555 1_555
O4_4 C9_4 1_555 1_555
N3_2 C6_4 1_555 1_555
N2_4 C4_4 1_555 1_555
C1_4 C2_4 1_555 1_555
C2_4 H1_4 1_555 1_555
C3_4 C5_4 1_555 1_555
C4_4 C6_4 1_555 1_555
C5_4 C2_4 1_555 1_555
C7_4 N3_2 1_555 1_555
H2_4 C7_4 1_555 1_555
C8_4 N2_4 1_555 1_555
C9_4 C1_4 1_555 1_555
C10_4 C5_4 1_555 1_555
H3_4 C10_4 1_555 1_555
C11_4 C1_4 1_555 1_555
H4_4 C11_4 1_555 1_555
N2_4 C7_4 1_555 1_555
C8_4 C10_4 1_555 1_555
C8_4 C11_4 1_555 1_555
C12_4 H5_4 1_555 1_555
C13_4 C12_4 1_555 1_555
H6_4 C13_4 1_555 1_555
H7_4 C14_4 1_555 1_555
C15_4 C13_4 1_555 1_555
H8_4 C15_4 1_555 1_555
C14_4 C15_4 1_555 1_555

#END
