
###############################################################################
#
# This file contains modified crystal structure data generated from the
# MOF subset of the Cambridge Structural Database (CSD) v543 
# hosted by the Cambridge Crystallographic Data Centre (CCDC).
#
# This work is licensed under the Creative Commons
# Attribution-NonCommercial-ShareAlike 4.0 International License.
# To view a copy of this license, visit
# http://creativecommons.org/licenses/by-nc-sa/4.0/
# or send a letter to
# Creative Commons, PO Box 1866, Mountain View, CA 94042, USA.
#
# CIF created using the CSD Python API on 29 September 2022
# The structure has been converted into the P1 space group
# The structure has a 3D framework
# The original CSD entry CUWRIW is in the monoclinic crystal system
# The framework has been calculated to contain at least 10.0% void space
# The void calculation uses a probe of radius 1.32A, grid spacing 0.4
#
###############################################################################

data_CUWRIW
_chemical_formula_moiety         '(C40 H32 Ag3 F20 N8 Nb6 O2)n'
_symmetry_cell_setting           triclinic
_symmetry_space_group_name_H-M   'P 1'
_symmetry_Int_Tables_number      1
_space_group_name_Hall           'P 1'
loop_
_symmetry_equiv_pos_site_id
_symmetry_equiv_pos_as_xyz
1 x,y,z
_cell_length_a                   3.8103(2)
_cell_length_b                   16.7026(10)
_cell_length_c                   22.2523(12)
_cell_angle_alpha                90
_cell_angle_beta                 90.021(3)
_cell_angle_gamma                90
_cell_volume                     1416.18
loop_
_atom_site_label
_atom_site_type_symbol
_atom_site_fract_x
_atom_site_fract_y
_atom_site_fract_z
F5 F 0.2549(16) 0.1133(3) 0.2580(2)
F7 F 0.2451(16) 0.3867(3) 0.2420(2)
Nb1 Nb 0.1854(3) 0.0000 0.25741(4)
Ag1 Ag 0.7500 0.2500 0.2500
N1 N 0.6696(15) 0.2512(3) 0.1554(2)
C1 C 0.7297(17) 0.3167(4) 0.1231(2)
H1 H 0.8181 0.3631 0.1427
C2 C 0.6673(16) 0.3194(4) 0.0617(2)
H2 H 0.7151 0.3669 0.0396
C3 C 0.4707(16) 0.1849(4) 0.0668(2)
H3 H 0.3801 0.1378 0.0486
C4 C 0.5356(15) 0.2529(3) 0.0329(2)
C5 C 0.5404(18) 0.1869(4) 0.1277(2)
H4 H 0.4942 0.1404 0.1509
F1 F 0.241(3) 0.0000 0.3435(3)
F2 F 0.247(2) -0.0000 0.1718(3)
N3 N 0.8304(15) 0.2488(3) 0.3446(2)
O2 O 0.732(3) -0.0000 0.2574(5)
Ag3 Ag 0.2500 0.2500 0.7500
N2 N 0.3304(15) 0.2512(3) 0.8446(2)
C6 C 0.2703(17) 0.3167(4) 0.8769(2)
H5 H 0.1819 0.3631 0.8573
C7 C 0.3327(16) 0.3194(4) 0.9383(2)
H6 H 0.2849 0.3669 0.9604
C8 C 0.5293(16) 0.1849(4) 0.9332(2)
H7 H 0.6199 0.1378 0.9514
C9 C 0.4644(15) 0.2529(3) 0.9671(2)
C10 C 0.4596(18) 0.1869(4) 0.8723(2)
H8 H 0.5058 0.1404 0.8491
Nb1_2 Nb 0.1854(3) 1.0000 0.25741(4)
F1_2 F 0.241(3) 1.0000 0.3435(3)
F2_2 F 0.247(2) 1.0000 0.1718(3)
Ag4 Ag 0.7500 0.7500 0.2500
F4 F 0.2549(16) 0.8867(3) 0.2580(2)
O2_2 O 0.732(3) 1.0000 0.2574(5)
O1 O 0.268(3) 0.0000 0.7426(5)
Nb2 Nb 0.8146(3) 0.0000 0.74259(4)
O1_2 O 0.268(3) 1.0000 0.7426(5)
Nb2_2 Nb 0.8146(3) 1.0000 0.74259(4)
Ag5 Ag 0.2500 0.7500 0.7500
F1_3 F 0.759(3) 0.0000 0.6565(3)
F2_3 F 0.753(2) -0.0000 0.8282(3)
F3 F 0.7451(16) 0.1133(3) 0.7420(2)
N3_2 N 0.1696(15) 0.2488(3) 0.6554(2)
F6 F 0.7549(16) 0.3867(3) 0.7580(2)
F1_4 F 0.759(3) 1.0000 0.6565(3)
F2_4 F 0.753(2) 1.0000 0.8282(3)
F4_2 F 0.7451(16) 0.8867(3) 0.7420(2)
N1_2 N 0.1696(15) 0.7512(3) 0.6554(2)
C1_2 C 0.2297(17) 0.8167(4) 0.6231(2)
H1_2 H 0.3181 0.8631 0.6427
C2_2 C 0.1673(16) 0.8194(4) 0.5617(2)
H2_2 H 0.2151 0.8669 0.5396
C4_2 C 0.0356(15) 0.7529(3) 0.5329(2)
C5_2 C 0.0404(18) 0.6869(4) 0.6277(2)
N3_3 N 0.3304(15) 0.7488(3) 0.8446(2)
C8_2 C 0.0293(16) 0.6849(4) 0.4332(2)
H7_2 H 0.1199 0.6378 0.4514
H8_2 H 0.0058 0.6404 0.3491
F5_2 F 0.7549(16) 0.6133(3) 0.7580(2)
O2_3 O 0.232(3) 0.5000 0.7574(5)
Nb1_3 Nb 0.6854(3) 0.5000 0.75741(4)
C3_2 C 0.9707(16) 0.6849(4) 0.5668(2)
H3_2 H 0.8801 0.6378 0.5486
H4_2 H 0.9942 0.6404 0.6509
F1_5 F 0.741(3) 0.5000 0.8435(3)
F2_5 F 0.747(2) 0.5000 0.6718(3)
N2_2 N 0.8304(15) 0.7512(3) 0.3446(2)
C6_2 C 0.7703(17) 0.8167(4) 0.3769(2)
H5_2 H 0.6819 0.8631 0.3573
C7_2 C 0.8327(16) 0.8194(4) 0.4383(2)
H6_2 H 0.7849 0.8669 0.4604
C9_2 C 0.9644(15) 0.7529(3) 0.4671(2)
C10_2 C 0.9596(18) 0.6869(4) 0.3723(2)
Nb2_3 Nb 0.3146(3) 0.5000 0.24259(4)
F1_6 F 0.259(3) 0.5000 0.1565(3)
F2_6 F 0.253(2) 0.5000 0.3282(3)
F3_2 F 0.2451(16) 0.6133(3) 0.2420(2)
O1_3 O 0.768(3) 0.5000 0.2426(5)
N3_4 N 0.6696(15) 0.7488(3) 0.1554(2)
C6_3 C 0.7297(17) 0.6833(4) 0.1231(2)
H5_3 H 0.8181 0.6369 0.1427
C7_3 C 0.6673(16) 0.6806(4) 0.0617(2)
H6_3 H 0.7151 0.6331 0.0396
C8_3 C 0.4707(16) 0.8151(4) 0.0668(2)
H7_3 H 0.3801 0.8622 0.0486
C9_3 C 0.5356(15) 0.7471(3) 0.0329(2)
C10_3 C 0.5404(18) 0.8131(4) 0.1277(2)
H8_3 H 0.4942 0.8596 0.1509
C1_3 C 0.2703(17) 0.6833(4) 0.8769(2)
H1_3 H 0.1819 0.6369 0.8573
C2_3 C 0.3327(16) 0.6806(4) 0.9383(2)
H2_3 H 0.2849 0.6331 0.9604
C3_3 C 0.5293(16) 0.8151(4) 0.9332(2)
H3_3 H 0.6199 0.8622 0.9514
C4_3 C 0.4644(15) 0.7471(3) 0.9671(2)
C5_3 C 0.4596(18) 0.8131(4) 0.8723(2)
H4_3 H 0.5058 0.8596 0.8491
C3_4 C 0.0293(16) 0.3151(4) 0.4332(2)
H3_4 H 0.1199 0.3622 0.4514
H4_4 H 0.0058 0.3596 0.3491
C6_4 C 0.2297(17) 0.1833(4) 0.6231(2)
H5_4 H 0.3181 0.1369 0.6427
C7_4 C 0.1673(16) 0.1806(4) 0.5617(2)
H6_4 H 0.2151 0.1331 0.5396
C9_4 C 0.0356(15) 0.2471(3) 0.5329(2)
C10_4 C 0.0404(18) 0.3131(4) 0.6277(2)
C1_4 C 0.7703(17) 0.1833(4) 0.3769(2)
H1_4 H 0.6819 0.1369 0.3573
C2_4 C 0.8327(16) 0.1806(4) 0.4383(2)
H2_4 H 0.7849 0.1331 0.4604
C4_4 C 0.9644(15) 0.2471(3) 0.4671(2)
C5_4 C 0.9596(18) 0.3131(4) 0.3723(2)
C8_4 C 0.9707(16) 0.3151(4) 0.5668(2)
H7_4 H 0.8801 0.3622 0.5486
H8_4 H 0.9942 0.3596 0.6509
loop_
_geom_bond_atom_site_label_1
_geom_bond_atom_site_label_2
_geom_bond_site_symmetry_1
_geom_bond_site_symmetry_2
Nb1 F1 1_555 1_555
Ag1 N1 1_555 1_555
N1 C1 1_555 1_555
C1 H1 1_555 1_555
C2 C1 1_555 1_555
H2 C2 1_555 1_555
C3 H3 1_555 1_555
C4 C2 1_555 1_555
C5 N1 1_555 1_555
H4 C5 1_555 1_555
F2 Nb1 1_555 1_555
F5 Nb1 1_555 1_555
N3 Ag1 1_555 1_555
F7 Ag1 1_555 1_555
O2 Nb1 1_555 1_555
Ag1 F5 1_555 1_555
C3 C4 1_555 1_555
C3 C5 1_555 1_555
Ag3 N2 1_555 1_555
N2 C6 1_555 1_555
C6 H5 1_555 1_555
C7 C6 1_555 1_555
H6 C7 1_555 1_555
C8 H7 1_555 1_555
C10 N2 1_555 1_555
H8 C10 1_555 1_555
C7 C9 1_555 1_555
C8 C9 1_555 1_555
C8 C10 1_555 1_555
Nb1_2 F1_2 1_555 1_555
F2_2 Nb1_2 1_555 1_555
Ag4 F4 1_555 1_555
F4 Nb1_2 1_555 1_555
O2_2 Nb1_2 1_555 1_555
Nb2 O1 1_555 1_555
Nb2_2 O1_2 1_555 1_555
Nb2 F1_3 1_555 1_555
F2_3 Nb2 1_555 1_555
F3 Nb2 1_555 1_555
N3_2 Ag3 1_555 1_555
F6 Ag3 1_555 1_555
Ag3 F3 1_555 1_555
Nb2_2 F1_4 1_555 1_555
F2_4 Nb2_2 1_555 1_555
Ag5 F4_2 1_555 1_555
F4_2 Nb2_2 1_555 1_555
Ag5 N1_2 1_555 1_555
N1_2 C1_2 1_555 1_555
C1_2 H1_2 1_555 1_555
C2_2 C1_2 1_555 1_555
H2_2 C2_2 1_555 1_555
C4_2 C2_2 1_555 1_555
C5_2 N1_2 1_555 1_555
N3_3 Ag5 1_555 1_555
C8_2 H7_2 1_555 1_555
F5_2 Ag5 1_555 1_555
Nb1_3 F1_5 1_555 1_555
C3_2 H3_2 1_555 1_555
F2_5 Nb1_3 1_555 1_555
F5_2 Nb1_3 1_555 1_555
O2_3 Nb1_3 1_555 1_555
Ag4 N2_2 1_555 1_555
N2_2 C6_2 1_555 1_555
C6_2 H5_2 1_555 1_555
C7_2 C6_2 1_555 1_555
H6_2 C7_2 1_555 1_555
C10_2 N2_2 1_555 1_555
F6 Nb1_3 1_555 1_555
C7_2 C9_2 1_555 1_555
Nb2_3 F1_6 1_555 1_555
F2_6 Nb2_3 1_555 1_555
F3_2 Nb2_3 1_555 1_555
O1_3 Nb2_3 1_555 1_555
Ag4 F3_2 1_555 1_555
F7 Nb2_3 1_555 1_555
N3_4 Ag4 1_555 1_555
N3_4 C6_3 1_555 1_555
C6_3 H5_3 1_555 1_555
C7_3 C6_3 1_555 1_555
H6_3 C7_3 1_555 1_555
C8_3 H7_3 1_555 1_555
C10_3 N3_4 1_555 1_555
H8_3 C10_3 1_555 1_555
C7_3 C9_3 1_555 1_555
C8_3 C9_3 1_555 1_555
C8_3 C10_3 1_555 1_555
N3_3 C1_3 1_555 1_555
C1_3 H1_3 1_555 1_555
C2_3 C1_3 1_555 1_555
H2_3 C2_3 1_555 1_555
C3_3 H3_3 1_555 1_555
C4_3 C2_3 1_555 1_555
C5_3 N3_3 1_555 1_555
H4_3 C5_3 1_555 1_555
C3_3 C4_3 1_555 1_555
C3_3 C5_3 1_555 1_555
C3_4 H3_4 1_555 1_555
N3_2 C6_4 1_555 1_555
C6_4 H5_4 1_555 1_555
C7_4 C6_4 1_555 1_555
H6_4 C7_4 1_555 1_555
C10_4 N3_2 1_555 1_555
C7_4 C9_4 1_555 1_555
N3 C1_4 1_555 1_555
C1_4 H1_4 1_555 1_555
C2_4 C1_4 1_555 1_555
H2_4 C2_4 1_555 1_555
C4_4 C2_4 1_555 1_555
C5_4 N3 1_555 1_555
C8_4 H7_4 1_555 1_555

#END
