
###############################################################################
#
# This file contains modified crystal structure data generated from the
# MOF subset of the Cambridge Structural Database (CSD) v543 
# hosted by the Cambridge Crystallographic Data Centre (CCDC).
#
# This work is licensed under the Creative Commons
# Attribution-NonCommercial-ShareAlike 4.0 International License.
# To view a copy of this license, visit
# http://creativecommons.org/licenses/by-nc-sa/4.0/
# or send a letter to
# Creative Commons, PO Box 1866, Mountain View, CA 94042, USA.
#
# CIF created using the CSD Python API on 29 September 2022
# The structure has been converted into the P1 space group
# The structure has a 3D framework
# The original CSD entry CUWYAW is in the monoclinic crystal system
# The framework has been calculated to contain at least 10.0% void space
# The void calculation uses a probe of radius 1.32A, grid spacing 0.4
# H atom positions have been added when not included in the experimental data
#
###############################################################################

data_CUWYAW
_chemical_formula_moiety         '(C128 H96 Eu8 N8 O64)n'
_symmetry_cell_setting           triclinic
_symmetry_space_group_name_H-M   'P 1'
_symmetry_Int_Tables_number      1
_space_group_name_Hall           'P 1'
loop_
_symmetry_equiv_pos_site_id
_symmetry_equiv_pos_as_xyz
1 x,y,z
_cell_length_a                   29.5467(13)
_cell_length_b                   12.9685(7)
_cell_length_c                   14.2361(7)
_cell_angle_alpha                90
_cell_angle_beta                 94.610(4)
_cell_angle_gamma                90
_cell_volume                     5437.29
loop_
_atom_site_label
_atom_site_type_symbol
_atom_site_fract_x
_atom_site_fract_y
_atom_site_fract_z
C1 C 0.1023(2) 0.7447(6) 0.0406(5)
C2 C 0.0573(2) 0.7682(6) 0.0776(5)
C3 C 0.0310(3) 0.6894(7) 0.1084(7)
H1 H 0.0428 0.6229 0.1131
C7 C 0.0406(2) 0.8674(6) 0.0762(6)
H4 H 0.0586 0.9214 0.0576
O1 O 0.12504(16) 0.8168(4) 0.0087(4)
O2 O 0.11669(15) 0.6532(4) 0.0431(4)
O9 O 0.21319(14) 0.5449(3) 0.0503(3)
O10 O 0.27096(13) 0.6461(3) 0.0296(3)
O12 O 0.20185(14) 0.7460(4) 0.1299(3)
Eu1 Eu 0.186593(9) 0.70005(2) 0.967551(19)
O7 O 0.1505(2) 0.5514(5) 0.8851(4)
O8 O 0.14709(19) 0.7696(5) 0.8250(4)
O11 O 0.22904(13) 0.8539(3) 0.9704(3)
O13 O 0.23256(14) 0.6712(4) 0.8408(3)
H9 H 0.149578 0.845961 0.825526
H10 H 0.160976 0.741776 0.769027
H11 H 0.132443 0.575392 0.827386
H12 H 0.174262 0.502574 0.867371
C9 C 0.7548(2) 0.0656(5) 0.0651(4)
H5 H 0.8432 0.0308 0.0687
O3 O 0.71319(14) 0.0449(3) 0.0503(3)
O4 O 0.77096(13) 0.1461(3) 0.0296(3)
Eu4 Eu 0.813407(9) 0.29995(2) 0.032449(19)
Eu3 Eu 0.686593(9) 0.20005(2) 0.967551(19)
C4 C 0.9869(3) 0.7075(7) 0.1328(7)
H2 H 0.9688 0.6532 0.1505
C5 C 0.9702(2) 0.8072(6) 0.1302(6)
C6 C 0.9975(2) 0.8873(6) 0.1020(6)
H3 H 0.9865 0.9546 0.1006
C8 C 0.9229(3) 0.8233(7) 0.1507(6)
C10 C 0.78444(19) 0.9939(5) 0.1245(4)
C11 C 0.8305(2) 0.9882(5) 0.1120(4)
C12 C 0.8573(2) 0.9184(5) 0.1648(5)
C13 C 0.8383(2) 0.8596(5) 0.2332(4)
H6 H 0.8564 0.8139 0.2699
C14 C 0.79241(19) 0.8683(5) 0.2473(4)
C15 C 0.7654(2) 0.9345(5) 0.1916(4)
H7 H 0.7345 0.9391 0.1992
C16 C 0.7727(2) 0.8089(5) 0.3251(4)
N1 N 0.90395(17) 0.9119(5) 0.1479(4)
O5 O 0.79815(14) 0.7460(4) 0.3701(3)
O6 O 0.73256(14) 0.8288(4) 0.3408(3)
H8 H 0.911(4) 0.756(4) 0.163(8)
Eu2 Eu 0.813407(9) 0.70005(2) 0.532449(19)
Eu5 Eu 0.686593(9) 0.79995(2) 0.467551(19)
C9_2 C 0.2452(2) 0.0656(5) 0.4349(4)
H5_2 H 0.1568 0.0308 0.4313
O3_2 O 0.28681(14) 0.0449(3) 0.4497(3)
O4_2 O 0.22904(13) 0.1461(3) 0.4704(3)
Eu3_2 Eu 0.313407(9) 0.20005(2) 0.532449(19)
Eu4_2 Eu 0.186593(9) 0.29995(2) 0.467551(19)
C4_2 C 0.0131(3) 0.7075(7) 0.3672(7)
H2_2 H 0.0312 0.6532 0.3495
C5_2 C 0.0298(2) 0.8072(6) 0.3698(6)
C6_2 C 0.0025(2) 0.8873(6) 0.3980(6)
H3_2 H 0.0135 0.9546 0.3994
C8_2 C 0.0771(3) 0.8233(7) 0.3493(6)
C10_2 C 0.21556(19) 0.9939(5) 0.3755(4)
C11_2 C 0.1695(2) 0.9882(5) 0.3880(4)
C12_2 C 0.1427(2) 0.9184(5) 0.3352(5)
C13_2 C 0.1617(2) 0.8596(5) 0.2668(4)
H6_2 H 0.1436 0.8139 0.2301
C14_2 C 0.20759(19) 0.8683(5) 0.2527(4)
C15_2 C 0.2346(2) 0.9345(5) 0.3084(4)
H7_2 H 0.2655 0.9391 0.3008
C16_2 C 0.2273(2) 0.8089(5) 0.1749(4)
N1_2 N 0.09605(17) 0.9119(5) 0.3521(4)
O6_2 O 0.26744(14) 0.8288(4) 0.1592(3)
H8_2 H 0.089(4) 0.756(4) 0.337(8)
Eu5_2 Eu 0.313407(9) 0.79995(2) 0.032449(19)
C1_2 C 0.8977(2) 0.7447(6) 0.4594(5)
C2_2 C 0.9427(2) 0.7682(6) 0.4224(5)
C3_2 C 0.9690(3) 0.6894(7) 0.3916(7)
H1_2 H 0.9572 0.6229 0.3869
C7_2 C 0.9594(2) 0.8674(6) 0.4238(6)
H4_2 H 0.9414 0.9214 0.4424
O1_2 O 0.87496(16) 0.8168(4) 0.4913(4)
O2_2 O 0.88331(15) 0.6532(4) 0.4569(4)
O7_2 O 0.8495(2) 0.5514(5) 0.6149(4)
O8_2 O 0.85291(19) 0.7696(5) 0.6750(4)
O9_2 O 0.78681(14) 0.5449(3) 0.4497(3)
O10_2 O 0.72904(13) 0.6461(3) 0.4704(3)
O11_2 O 0.77096(13) 0.8539(3) 0.5296(3)
O13_2 O 0.76744(14) 0.6712(4) 0.6592(3)
H9_2 H 0.850422 0.845961 0.674474
H10_2 H 0.839024 0.741776 0.730973
H11_2 H 0.867557 0.575392 0.672614
H12_2 H 0.825738 0.502574 0.632629
C1_3 C 0.6023(2) 0.2447(6) 0.0406(5)
C2_3 C 0.5573(2) 0.2682(6) 0.0776(5)
C3_3 C 0.5310(3) 0.1894(7) 0.1084(7)
H1_3 H 0.5428 0.1229 0.1131
C4_3 C 0.4869(3) 0.2075(7) 0.1328(7)
H2_3 H 0.4688 0.1532 0.1505
C5_3 C 0.4702(2) 0.3072(6) 0.1302(6)
C6_3 C 0.4975(2) 0.3873(6) 0.1020(6)
H3_3 H 0.4865 0.4546 0.1006
C7_3 C 0.5406(2) 0.3674(6) 0.0762(6)
H4_3 H 0.5586 0.4214 0.0576
C8_3 C 0.4229(3) 0.3233(7) 0.1507(6)
C9_3 C 0.2548(2) 0.5656(5) 0.0651(4)
C10_3 C 0.28444(19) 0.4939(5) 0.1245(4)
C11_3 C 0.3305(2) 0.4882(5) 0.1120(4)
H5_3 H 0.3432 0.5308 0.0687
C12_3 C 0.3573(2) 0.4184(5) 0.1648(5)
C13_3 C 0.3383(2) 0.3596(5) 0.2332(4)
H6_3 H 0.3564 0.3139 0.2699
C14_3 C 0.29241(19) 0.3683(5) 0.2473(4)
C15_3 C 0.2654(2) 0.4345(5) 0.1916(4)
H7_3 H 0.2345 0.4391 0.1992
C16_3 C 0.2727(2) 0.3089(5) 0.3251(4)
N1_3 N 0.40395(17) 0.4119(5) 0.1479(4)
O1_3 O 0.62504(16) 0.3168(4) 0.0087(4)
O2_3 O 0.61669(15) 0.1532(4) 0.0431(4)
O5_2 O 0.29815(14) 0.2460(4) 0.3701(3)
O6_3 O 0.23256(14) 0.3288(4) 0.3408(3)
H8_3 H 0.411(4) 0.256(4) 0.163(8)
O12_2 O 0.70185(14) 0.2460(4) 0.1299(3)
O7_3 O 0.6505(2) 0.0514(5) 0.8851(4)
O8_3 O 0.64709(19) 0.2696(5) 0.8250(4)
O11_3 O 0.72904(13) 0.3539(3) 0.9704(3)
O13_3 O 0.73256(14) 0.1712(4) 0.8408(3)
H9_3 H 0.649578 0.345961 0.825526
H10_3 H 0.660976 0.241776 0.769027
H11_3 H 0.632443 0.0753918 0.827386
H12_3 H 0.674262 0.00257361 0.867371
C1_4 C 0.3977(2) 0.2447(6) 0.4594(5)
C2_4 C 0.4427(2) 0.2682(6) 0.4224(5)
C3_4 C 0.4690(3) 0.1894(7) 0.3916(7)
H1_4 H 0.4572 0.1229 0.3869
C4_4 C 0.5131(3) 0.2075(7) 0.3672(7)
H2_4 H 0.5312 0.1532 0.3495
C5_4 C 0.5298(2) 0.3072(6) 0.3698(6)
C6_4 C 0.5025(2) 0.3873(6) 0.3980(6)
H3_4 H 0.5135 0.4546 0.3994
C7_4 C 0.4594(2) 0.3674(6) 0.4238(6)
H4_4 H 0.4414 0.4214 0.4424
C8_4 C 0.5771(3) 0.3233(7) 0.3493(6)
C9_4 C 0.7452(2) 0.5656(5) 0.4349(4)
C10_4 C 0.71556(19) 0.4939(5) 0.3755(4)
C11_4 C 0.6695(2) 0.4882(5) 0.3880(4)
H5_4 H 0.6568 0.5308 0.4313
C12_4 C 0.6427(2) 0.4184(5) 0.3352(5)
C13_4 C 0.6617(2) 0.3596(5) 0.2668(4)
H6_4 H 0.6436 0.3139 0.2301
C14_4 C 0.70759(19) 0.3683(5) 0.2527(4)
C15_4 C 0.7346(2) 0.4345(5) 0.3084(4)
H7_4 H 0.7655 0.4391 0.3008
C16_4 C 0.7273(2) 0.3089(5) 0.1749(4)
N1_4 N 0.59605(17) 0.4119(5) 0.3521(4)
O1_4 O 0.37496(16) 0.3168(4) 0.4913(4)
O2_4 O 0.38331(15) 0.1532(4) 0.4569(4)
O6_4 O 0.76744(14) 0.3288(4) 0.1592(3)
O7_4 O 0.3495(2) 0.0514(5) 0.6149(4)
O8_4 O 0.35291(19) 0.2696(5) 0.6750(4)
H8_4 H 0.589(4) 0.256(4) 0.337(8)
O11_4 O 0.27096(13) 0.3539(3) 0.5296(3)
O13_4 O 0.26744(14) 0.1712(4) 0.6592(3)
H9_4 H 0.350422 0.345961 0.674474
H10_4 H 0.339024 0.241776 0.730973
H11_4 H 0.367557 0.0753918 0.672614
H12_4 H 0.325738 0.00257361 0.632629
C4_5 C 0.0131(3) 0.2925(7) 0.8672(7)
H2_5 H 0.0312 0.3468 0.8495
C5_5 C 0.0298(2) 0.1928(6) 0.8698(6)
C6_5 C 0.0025(2) 0.1127(6) 0.8980(6)
H3_5 H 0.0135 0.0454 0.8994
C8_5 C 0.0771(3) 0.1767(7) 0.8493(6)
C10_5 C 0.21556(19) 0.0061(5) 0.8755(4)
C11_5 C 0.1695(2) 0.0118(5) 0.8880(4)
C12_5 C 0.1427(2) 0.0816(5) 0.8352(5)
C13_5 C 0.1617(2) 0.1404(5) 0.7668(4)
H6_5 H 0.1436 0.1861 0.7301
C14_5 C 0.20759(19) 0.1317(5) 0.7527(4)
C15_5 C 0.2346(2) 0.0655(5) 0.8084(4)
H7_5 H 0.2655 0.0609 0.8008
C16_5 C 0.2273(2) 0.1911(5) 0.6749(4)
N1_5 N 0.09605(17) 0.0881(5) 0.8521(4)
O5_3 O 0.20185(14) 0.2540(4) 0.6299(3)
H8_5 H 0.089(4) 0.244(4) 0.837(8)
C9_5 C 0.2452(2) 0.9344(5) 0.9349(4)
H5_5 H 0.1568 0.9692 0.9313
O3_3 O 0.28681(14) 0.9551(3) 0.9497(3)
O7_5 O 0.8495(2) 0.4486(5) 0.1149(4)
O8_5 O 0.85291(19) 0.2304(5) 0.1750(4)
H9_5 H 0.850422 0.154039 0.174474
H10_5 H 0.839024 0.258224 0.230973
H11_5 H 0.867557 0.424608 0.172614
H12_5 H 0.825738 0.497426 0.132629
C1_5 C 0.8977(2) 0.2553(6) 0.9594(5)
C2_5 C 0.9427(2) 0.2318(6) 0.9224(5)
C3_5 C 0.9690(3) 0.3106(7) 0.8916(7)
H1_5 H 0.9572 0.3771 0.8869
C7_5 C 0.9594(2) 0.1326(6) 0.9238(6)
H4_5 H 0.9414 0.0786 0.9424
O1_5 O 0.87496(16) 0.1832(4) 0.9913(4)
O2_5 O 0.88331(15) 0.3468(4) 0.9569(4)
O9_3 O 0.78681(14) 0.4551(3) 0.9497(3)
O12_3 O 0.79815(14) 0.2540(4) 0.8701(3)
C1_6 C 0.1023(2) 0.2553(6) 0.5406(5)
C2_6 C 0.0573(2) 0.2318(6) 0.5776(5)
C3_6 C 0.0310(3) 0.3106(7) 0.6084(7)
H1_6 H 0.0428 0.3771 0.6131
C7_6 C 0.0406(2) 0.1326(6) 0.5762(6)
H4_6 H 0.0586 0.0786 0.5576
O1_6 O 0.12504(16) 0.1832(4) 0.5087(4)
O2_6 O 0.11669(15) 0.3468(4) 0.5431(4)
O7_6 O 0.1505(2) 0.4486(5) 0.3851(4)
O8_6 O 0.14709(19) 0.2304(5) 0.3250(4)
O9_4 O 0.21319(14) 0.4551(3) 0.5503(3)
H9_6 H 0.149578 0.154039 0.325526
H10_6 H 0.160976 0.258224 0.269027
H11_6 H 0.132443 0.424608 0.327386
H12_6 H 0.174262 0.497426 0.367371
C4_6 C 0.9869(3) 0.2925(7) 0.6328(7)
H2_6 H 0.9688 0.3468 0.6505
C5_6 C 0.9702(2) 0.1928(6) 0.6302(6)
C6_6 C 0.9975(2) 0.1127(6) 0.6020(6)
H3_6 H 0.9865 0.0454 0.6006
C8_6 C 0.9229(3) 0.1767(7) 0.6507(6)
C10_6 C 0.78444(19) 0.0061(5) 0.6245(4)
C11_6 C 0.8305(2) 0.0118(5) 0.6120(4)
C12_6 C 0.8573(2) 0.0816(5) 0.6648(5)
C13_6 C 0.8383(2) 0.1404(5) 0.7332(4)
H6_6 H 0.8564 0.1861 0.7699
C14_6 C 0.79241(19) 0.1317(5) 0.7473(4)
C15_6 C 0.7654(2) 0.0655(5) 0.6916(4)
H7_6 H 0.7345 0.0609 0.6992
C16_6 C 0.7727(2) 0.1911(5) 0.8251(4)
N1_6 N 0.90395(17) 0.0881(5) 0.6479(4)
H8_6 H 0.911(4) 0.244(4) 0.663(8)
C9_6 C 0.7548(2) 0.9344(5) 0.5651(4)
H5_6 H 0.8432 0.9692 0.5687
O3_4 O 0.71319(14) 0.9551(3) 0.5503(3)
O7_7 O 0.3495(2) 0.9486(5) 0.1149(4)
O8_7 O 0.35291(19) 0.7304(5) 0.1750(4)
H9_7 H 0.350422 0.654039 0.174474
H10_7 H 0.339024 0.758224 0.230973
H11_7 H 0.367557 0.924608 0.172614
H12_7 H 0.325738 0.997426 0.132629
C1_7 C 0.3977(2) 0.7553(6) 0.9594(5)
C2_7 C 0.4427(2) 0.7318(6) 0.9224(5)
C3_7 C 0.4690(3) 0.8106(7) 0.8916(7)
H1_7 H 0.4572 0.8771 0.8869
C4_7 C 0.5131(3) 0.7925(7) 0.8672(7)
H2_7 H 0.5312 0.8468 0.8495
C5_7 C 0.5298(2) 0.6928(6) 0.8698(6)
C6_7 C 0.5025(2) 0.6127(6) 0.8980(6)
H3_7 H 0.5135 0.5454 0.8994
C7_7 C 0.4594(2) 0.6326(6) 0.9238(6)
H4_7 H 0.4414 0.5786 0.9424
C8_7 C 0.5771(3) 0.6767(7) 0.8493(6)
C9_7 C 0.7452(2) 0.4344(5) 0.9349(4)
C10_7 C 0.71556(19) 0.5061(5) 0.8755(4)
C11_7 C 0.6695(2) 0.5118(5) 0.8880(4)
H5_7 H 0.6568 0.4692 0.9313
C12_7 C 0.6427(2) 0.5816(5) 0.8352(5)
C13_7 C 0.6617(2) 0.6404(5) 0.7668(4)
H6_7 H 0.6436 0.6861 0.7301
C14_7 C 0.70759(19) 0.6317(5) 0.7527(4)
C15_7 C 0.7346(2) 0.5655(5) 0.8084(4)
H7_7 H 0.7655 0.5609 0.8008
C16_7 C 0.7273(2) 0.6911(5) 0.6749(4)
N1_7 N 0.59605(17) 0.5881(5) 0.8521(4)
O1_7 O 0.37496(16) 0.6832(4) 0.9913(4)
O2_7 O 0.38331(15) 0.8468(4) 0.9569(4)
O5_4 O 0.70185(14) 0.7540(4) 0.6299(3)
H8_7 H 0.589(4) 0.744(4) 0.837(8)
O12_4 O 0.29815(14) 0.7540(4) 0.8701(3)
C1_8 C 0.6023(2) 0.7553(6) 0.5406(5)
C2_8 C 0.5573(2) 0.7318(6) 0.5776(5)
C3_8 C 0.5310(3) 0.8106(7) 0.6084(7)
H1_8 H 0.5428 0.8771 0.6131
C4_8 C 0.4869(3) 0.7925(7) 0.6328(7)
H2_8 H 0.4688 0.8468 0.6505
C5_8 C 0.4702(2) 0.6928(6) 0.6302(6)
C6_8 C 0.4975(2) 0.6127(6) 0.6020(6)
H3_8 H 0.4865 0.5454 0.6006
C7_8 C 0.5406(2) 0.6326(6) 0.5762(6)
H4_8 H 0.5586 0.5786 0.5576
C8_8 C 0.4229(3) 0.6767(7) 0.6507(6)
C9_8 C 0.2548(2) 0.4344(5) 0.5651(4)
C10_8 C 0.28444(19) 0.5061(5) 0.6245(4)
C11_8 C 0.3305(2) 0.5118(5) 0.6120(4)
H5_8 H 0.3432 0.4692 0.5687
C12_8 C 0.3573(2) 0.5816(5) 0.6648(5)
C13_8 C 0.3383(2) 0.6404(5) 0.7332(4)
H6_8 H 0.3564 0.6861 0.7699
C14_8 C 0.29241(19) 0.6317(5) 0.7473(4)
C15_8 C 0.2654(2) 0.5655(5) 0.6916(4)
H7_8 H 0.2345 0.5609 0.6992
C16_8 C 0.2727(2) 0.6911(5) 0.8251(4)
N1_8 N 0.40395(17) 0.5881(5) 0.6479(4)
O1_8 O 0.62504(16) 0.6832(4) 0.5087(4)
O2_8 O 0.61669(15) 0.8468(4) 0.5431(4)
O7_8 O 0.6505(2) 0.9486(5) 0.3851(4)
O8_8 O 0.64709(19) 0.7304(5) 0.3250(4)
H8_8 H 0.411(4) 0.744(4) 0.663(8)
H9_8 H 0.649578 0.654039 0.325526
H10_8 H 0.660976 0.758224 0.269027
H11_8 H 0.632443 0.924608 0.327386
H12_8 H 0.674262 0.997426 0.367371
loop_
_geom_bond_atom_site_label_1
_geom_bond_atom_site_label_2
_geom_bond_site_symmetry_1
_geom_bond_site_symmetry_2
C1 C2 1_555 1_555
C2 C3 1_555 1_555
C3 H1 1_555 1_555
C7 C2 1_555 1_555
H4 C7 1_555 1_555
O1 C1 1_555 1_555
C1 O2 1_555 1_555
O7 Eu1 1_555 1_555
O8 Eu1 1_555 1_555
O11 Eu1 1_555 1_555
O13 Eu1 1_555 1_555
O8 H9 1_555 1_555
O8 H10 1_555 1_555
O7 H11 1_555 1_555
O7 H12 1_555 1_555
O3 C9 1_555 1_555
O4 C9 1_555 1_555
Eu4 O4 1_555 1_555
H2 C4 1_555 1_555
C5 C4 1_555 1_555
C6 C5 1_555 1_555
H3 C6 1_555 1_555
C8 C5 1_555 1_555
C10 C11 1_555 1_555
C12 C11 1_555 1_555
C13 C12 1_555 1_555
H6 C13 1_555 1_555
C14 C13 1_555 1_555
C15 C10 1_555 1_555
H7 C15 1_555 1_555
C16 C14 1_555 1_555
N1 C8 1_555 1_555
O5 C16 1_555 1_555
O6 C16 1_555 1_555
H8 C8 1_555 1_555
Eu2 O5 1_555 1_555
Eu5 O6 1_555 1_555
C12 N1 1_555 1_555
C14 C15 1_555 1_555
O3_2 C9_2 1_555 1_555
O4_2 C9_2 1_555 1_555
Eu3_2 O3_2 1_555 1_555
Eu4_2 O4_2 1_555 1_555
O4_2 Eu3_2 1_555 1_555
H2_2 C4_2 1_555 1_555
C5_2 C4_2 1_555 1_555
C6_2 C5_2 1_555 1_555
H3_2 C6_2 1_555 1_555
C8_2 C5_2 1_555 1_555
C10_2 C11_2 1_555 1_555
C12_2 C11_2 1_555 1_555
C13_2 C12_2 1_555 1_555
H6_2 C13_2 1_555 1_555
C14_2 C13_2 1_555 1_555
C15_2 C10_2 1_555 1_555
H7_2 C15_2 1_555 1_555
C16_2 C14_2 1_555 1_555
N1_2 C8_2 1_555 1_555
O12 C16_2 1_555 1_555
O6_2 C16_2 1_555 1_555
H8_2 C8_2 1_555 1_555
Eu5_2 O6_2 1_555 1_555
C12_2 N1_2 1_555 1_555
C14_2 C15_2 1_555 1_555
Eu2 O1_2 1_555 1_555
C1_2 C2_2 1_555 1_555
C2_2 C3_2 1_555 1_555
C3_2 H1_2 1_555 1_555
C7_2 C2_2 1_555 1_555
H4_2 C7_2 1_555 1_555
O1_2 C1_2 1_555 1_555
O2_2 Eu2 1_555 1_555
O7_2 Eu2 1_555 1_555
O8_2 Eu2 1_555 1_555
O9_2 Eu2 1_555 1_555
O10_2 Eu2 1_555 1_555
O11_2 Eu2 1_555 1_555
O13_2 Eu2 1_555 1_555
C1_2 O2_2 1_555 1_555
O8_2 H9_2 1_555 1_555
O8_2 H10_2 1_555 1_555
O7_2 H11_2 1_555 1_555
O7_2 H12_2 1_555 1_555
C1_3 C2_3 1_555 1_555
C2_3 C3_3 1_555 1_555
C3_3 H1_3 1_555 1_555
C4_3 C3_3 1_555 1_555
H2_3 C4_3 1_555 1_555
C5_3 C4_3 1_555 1_555
C6_3 C5_3 1_555 1_555
H3_3 C6_3 1_555 1_555
C7_3 C2_3 1_555 1_555
H4_3 C7_3 1_555 1_555
C8_3 C5_3 1_555 1_555
C9_3 C10_3 1_555 1_555
C10_3 C11_3 1_555 1_555
C11_3 H5_3 1_555 1_555
C12_3 C11_3 1_555 1_555
C13_3 C12_3 1_555 1_555
H6_3 C13_3 1_555 1_555
C14_3 C13_3 1_555 1_555
C15_3 C10_3 1_555 1_555
H7_3 C15_3 1_555 1_555
C16_3 C14_3 1_555 1_555
N1_3 C8_3 1_555 1_555
O1_3 C1_3 1_555 1_555
O9 C9_3 1_555 1_555
O10 C9_3 1_555 1_555
O5_2 C16_3 1_555 1_555
O6_3 C16_3 1_555 1_555
H8_3 C8_3 1_555 1_555
Eu3_2 O5_2 1_555 1_555
Eu5_2 O10 1_555 1_555
Eu4_2 O6_3 1_555 1_555
C1_3 O2_3 1_555 1_555
C6_3 C7_3 1_555 1_555
C12_3 N1_3 1_555 1_555
C14_3 C15_3 1_555 1_555
O7_3 Eu3 1_555 1_555
O8_3 Eu3 1_555 1_555
O11_3 Eu3 1_555 1_555
O13_3 Eu3 1_555 1_555
O8_3 H9_3 1_555 1_555
O8_3 H10_3 1_555 1_555
O7_3 H11_3 1_555 1_555
O7_3 H12_3 1_555 1_555
Eu3_2 O1_4 1_555 1_555
C1_4 C2_4 1_555 1_555
C2_4 C3_4 1_555 1_555
C3_4 H1_4 1_555 1_555
C4_4 C3_4 1_555 1_555
H2_4 C4_4 1_555 1_555
C5_4 C4_4 1_555 1_555
C6_4 C5_4 1_555 1_555
H3_4 C6_4 1_555 1_555
C7_4 C2_4 1_555 1_555
H4_4 C7_4 1_555 1_555
C8_4 C5_4 1_555 1_555
C9_4 C10_4 1_555 1_555
C10_4 C11_4 1_555 1_555
C11_4 H5_4 1_555 1_555
C12_4 C11_4 1_555 1_555
C13_4 C12_4 1_555 1_555
H6_4 C13_4 1_555 1_555
C14_4 C13_4 1_555 1_555
C15_4 C10_4 1_555 1_555
H7_4 C15_4 1_555 1_555
C16_4 C14_4 1_555 1_555
N1_4 C8_4 1_555 1_555
O1_4 C1_4 1_555 1_555
O2_4 Eu3_2 1_555 1_555
O9_2 C9_4 1_555 1_555
O10_2 C9_4 1_555 1_555
O12_2 C16_4 1_555 1_555
O6_4 C16_4 1_555 1_555
O7_4 Eu3_2 1_555 1_555
O8_4 Eu3_2 1_555 1_555
H8_4 C8_4 1_555 1_555
Eu5 O10_2 1_555 1_555
Eu4 O6_4 1_555 1_555
O11_4 Eu3_2 1_555 1_555
O13_4 Eu3_2 1_555 1_555
C1_4 O2_4 1_555 1_555
C6_4 C7_4 1_555 1_555
C12_4 N1_4 1_555 1_555
C14_4 C15_4 1_555 1_555
O8_4 H9_4 1_555 1_555
O8_4 H10_4 1_555 1_555
O7_4 H11_4 1_555 1_555
O7_4 H12_4 1_555 1_555
H2_5 C4_5 1_555 1_555
C5_5 C4_5 1_555 1_555
C6_5 C5_5 1_555 1_555
H3_5 C6_5 1_555 1_555
C8_5 C5_5 1_555 1_555
C10_5 C11_5 1_555 1_555
C12_5 C11_5 1_555 1_555
C13_5 C12_5 1_555 1_555
H6_5 C13_5 1_555 1_555
C14_5 C13_5 1_555 1_555
C15_5 C10_5 1_555 1_555
H7_5 C15_5 1_555 1_555
C16_5 C14_5 1_555 1_555
N1_5 C8_5 1_555 1_555
O5_3 C16_5 1_555 1_555
O13_4 C16_5 1_555 1_555
H8_5 C8_5 1_555 1_555
Eu4_2 O5_3 1_555 1_555
C12_5 N1_5 1_555 1_555
C14_5 C15_5 1_555 1_555
O3_3 C9_5 1_555 1_555
O11 C9_5 1_555 1_555
O7_5 Eu4 1_555 1_555
O8_5 Eu4 1_555 1_555
O8_5 H9_5 1_555 1_555
O8_5 H10_5 1_555 1_555
O7_5 H11_5 1_555 1_555
O7_5 H12_5 1_555 1_555
C1_5 C2_5 1_555 1_555
C2_5 C3_5 1_555 1_555
C3_5 H1_5 1_555 1_555
C7_5 C2_5 1_555 1_555
H4_5 C7_5 1_555 1_555
O1_5 C1_5 1_555 1_555
C1_5 O2_5 1_555 1_555
Eu4_2 O1_6 1_555 1_555
C1_6 C2_6 1_555 1_555
C2_6 C3_6 1_555 1_555
C3_6 H1_6 1_555 1_555
C7_6 C2_6 1_555 1_555
H4_6 C7_6 1_555 1_555
O1_6 C1_6 1_555 1_555
O2_6 Eu4_2 1_555 1_555
O7_6 Eu4_2 1_555 1_555
O8_6 Eu4_2 1_555 1_555
O9_4 Eu4_2 1_555 1_555
O11_4 Eu4_2 1_555 1_555
C1_6 O2_6 1_555 1_555
O8_6 H9_6 1_555 1_555
O8_6 H10_6 1_555 1_555
O7_6 H11_6 1_555 1_555
O7_6 H12_6 1_555 1_555
H2_6 C4_6 1_555 1_555
C5_6 C4_6 1_555 1_555
C6_6 C5_6 1_555 1_555
H3_6 C6_6 1_555 1_555
C8_6 C5_6 1_555 1_555
C10_6 C11_6 1_555 1_555
C12_6 C11_6 1_555 1_555
C13_6 C12_6 1_555 1_555
H6_6 C13_6 1_555 1_555
C14_6 C13_6 1_555 1_555
C15_6 C10_6 1_555 1_555
H7_6 C15_6 1_555 1_555
C16_6 C14_6 1_555 1_555
N1_6 C8_6 1_555 1_555
O12_3 C16_6 1_555 1_555
O13_3 C16_6 1_555 1_555
H8_6 C8_6 1_555 1_555
C12_6 N1_6 1_555 1_555
C14_6 C15_6 1_555 1_555
O3_4 C9_6 1_555 1_555
O11_2 C9_6 1_555 1_555
Eu5 O3_4 1_555 1_555
O11_2 Eu5 1_555 1_555
O7_7 Eu5_2 1_555 1_555
O8_7 Eu5_2 1_555 1_555
O8_7 H9_7 1_555 1_555
O8_7 H10_7 1_555 1_555
O7_7 H11_7 1_555 1_555
O7_7 H12_7 1_555 1_555
C1_7 C2_7 1_555 1_555
C2_7 C3_7 1_555 1_555
C3_7 H1_7 1_555 1_555
C4_7 C3_7 1_555 1_555
H2_7 C4_7 1_555 1_555
C5_7 C4_7 1_555 1_555
C6_7 C5_7 1_555 1_555
H3_7 C6_7 1_555 1_555
C7_7 C2_7 1_555 1_555
H4_7 C7_7 1_555 1_555
C8_7 C5_7 1_555 1_555
C9_7 C10_7 1_555 1_555
C10_7 C11_7 1_555 1_555
C11_7 H5_7 1_555 1_555
C12_7 C11_7 1_555 1_555
C13_7 C12_7 1_555 1_555
H6_7 C13_7 1_555 1_555
C14_7 C13_7 1_555 1_555
C15_7 C10_7 1_555 1_555
H7_7 C15_7 1_555 1_555
C16_7 C14_7 1_555 1_555
N1_7 C8_7 1_555 1_555
O1_7 C1_7 1_555 1_555
O9_3 C9_7 1_555 1_555
O11_3 C9_7 1_555 1_555
O5_4 C16_7 1_555 1_555
O13_2 C16_7 1_555 1_555
H8_7 C8_7 1_555 1_555
Eu5 O5_4 1_555 1_555
C1_7 O2_7 1_555 1_555
C6_7 C7_7 1_555 1_555
C12_7 N1_7 1_555 1_555
C14_7 C15_7 1_555 1_555
Eu5 O1_8 1_555 1_555
C1_8 C2_8 1_555 1_555
C2_8 C3_8 1_555 1_555
C3_8 H1_8 1_555 1_555
C4_8 C3_8 1_555 1_555
H2_8 C4_8 1_555 1_555
C5_8 C4_8 1_555 1_555
C6_8 C5_8 1_555 1_555
H3_8 C6_8 1_555 1_555
C7_8 C2_8 1_555 1_555
H4_8 C7_8 1_555 1_555
C8_8 C5_8 1_555 1_555
C9_8 C10_8 1_555 1_555
C10_8 C11_8 1_555 1_555
C11_8 H5_8 1_555 1_555
C12_8 C11_8 1_555 1_555
C13_8 C12_8 1_555 1_555
H6_8 C13_8 1_555 1_555
C14_8 C13_8 1_555 1_555
C15_8 C10_8 1_555 1_555
H7_8 C15_8 1_555 1_555
C16_8 C14_8 1_555 1_555
N1_8 C8_8 1_555 1_555
O1_8 C1_8 1_555 1_555
O2_8 Eu5 1_555 1_555
O9_4 C9_8 1_555 1_555
O11_4 C9_8 1_555 1_555
O12_4 C16_8 1_555 1_555
O13 C16_8 1_555 1_555
O7_8 Eu5 1_555 1_555
O8_8 Eu5 1_555 1_555
H8_8 C8_8 1_555 1_555
C1_8 O2_8 1_555 1_555
C6_8 C7_8 1_555 1_555
C12_8 N1_8 1_555 1_555
C14_8 C15_8 1_555 1_555
O8_8 H9_8 1_555 1_555
O8_8 H10_8 1_555 1_555
O7_8 H11_8 1_555 1_555
O7_8 H12_8 1_555 1_555

#END
