
###############################################################################
#
# This file contains modified crystal structure data generated from the
# MOF subset of the Cambridge Structural Database (CSD) v543 
# hosted by the Cambridge Crystallographic Data Centre (CCDC).
#
# This work is licensed under the Creative Commons
# Attribution-NonCommercial-ShareAlike 4.0 International License.
# To view a copy of this license, visit
# http://creativecommons.org/licenses/by-nc-sa/4.0/
# or send a letter to
# Creative Commons, PO Box 1866, Mountain View, CA 94042, USA.
#
# CIF created using the CSD Python API on 29 September 2022
# The structure has been converted into the P1 space group
# The structure has a 3D framework
# The original CSD entry DABWUA01 is in the monoclinic crystal system
# The framework has been calculated to contain at least 10.0% void space
# The void calculation uses a probe of radius 1.32A, grid spacing 0.4
#
###############################################################################

data_DABWUA01
_chemical_formula_moiety         '(C64 H40 Cu8 N16 O12)n'
_symmetry_cell_setting           triclinic
_symmetry_space_group_name_H-M   'P 1'
_symmetry_Int_Tables_number      1
_space_group_name_Hall           'P 1'
loop_
_symmetry_equiv_pos_site_id
_symmetry_equiv_pos_as_xyz
1 x,y,z
_cell_length_a                   13.5518(4)
_cell_length_b                   13.9161(4)
_cell_length_c                   14.8283(4)
_cell_angle_alpha                90
_cell_angle_beta                 90.716(3)
_cell_angle_gamma                90
_cell_volume                     2796.22
loop_
_atom_site_label
_atom_site_type_symbol
_atom_site_fract_x
_atom_site_fract_y
_atom_site_fract_z
C1 C 0.3655(2) 0.4663(2) 0.11493(18)
C2 C 0.28675(19) 0.41690(19) 0.16875(17)
C3 C 0.26074(18) 0.32315(18) 0.14702(16)
H1 H 0.2943 0.2896 0.1008
C4 C 0.18508(18) 0.27907(18) 0.19375(16)
C5 C 0.13681(19) 0.32489(18) 0.26284(16)
H2 H 0.0854 0.2934 0.2942
C6 C 0.16459(19) 0.41811(19) 0.28585(17)
C7 C 0.23785(19) 0.4643(2) 0.23808(17)
H3 H 0.2549 0.5288 0.2526
C8 C 0.11526(19) 0.4682(2) 0.36367(18)
C9 C 0.0250(2) 0.2367(2) 0.05573(19)
H5 H 0.0362 0.2995 0.0840
C10 C 0.08742(18) 0.16347(18) 0.10132(16)
C11 C 0.19302(19) 0.09478(18) 0.19244(16)
C12 C 0.2683(2) 0.0758(2) 0.26375(17)
C13 C 0.3208(3) 0.1434(3) 0.3084(3)
H7 H 0.3116 0.2094 0.2943
C14 C 0.3881(3) 0.1166(3) 0.3748(3)
H8 H 0.4247 0.1657 0.4046
Cu1 Cu 0.5000 -0.0000 0.5000
Cu2 Cu 0.0000 0.0000 0.0000
N1 N 0.15600(15) 0.18300(15) 0.16719(13)
N2 N 0.08457(15) 0.07026(15) 0.08866(14)
N3 N 0.15018(17) 0.02668(17) 0.14628(15)
N4 N 0.40407(16) 0.02823(18) 0.39869(14)
O1 O 0.42631(13) 0.41127(13) 0.07532(12)
O2 O 0.36679(16) 0.55486(14) 0.10857(15)
O3 O 0.05033(13) 0.41856(13) 0.40438(11)
O4 O 0.13731(16) 0.55186(15) 0.38364(15)
Cu5 Cu 0.5000 0.5000 0.0000
Cu7 Cu 0.0000 0.5000 0.5000
O10 O 0.42631(13) 0.08873(13) 0.57532(12)
O11 O 0.63321(16) 0.05486(14) 0.39143(15)
H4 H 0.0421 0.2401 0.9918
Cu2_2 Cu 0.0000 -0.0000 1.0000
Cu5_2 Cu 0.5000 0.5000 1.0000
O14 O 0.05033(13) 0.08144(13) 0.90438(11)
C15 C 0.3561(4) 0.9632(3) 0.3534(3)
H9 H 0.3688 0.8976 0.3672
C16 C 0.2876(4) 0.9835(3) 0.2863(3)
H10 H 0.2541 0.9326 0.2560
Cu1_2 Cu 0.5000 1.0000 0.5000
Cu2_3 Cu 0.0000 1.0000 0.0000
N9 N 0.59593(16) 0.97177(18) 0.60131(14)
O9 O 0.57369(13) 0.91127(13) 0.42468(12)
O12 O 0.36679(16) 0.94514(14) 0.60857(15)
Cu2_4 Cu 0.0000 1.0000 1.0000
H16 H 0.0447 0.7810 0.9387
O16 O 0.13731(16) 0.94814(15) 0.88364(15)
H6 H 0.9553 0.2190 0.0613
Cu2_5 Cu 1.0000 0.0000 0.0000
Cu7_2 Cu 1.0000 0.5000 0.5000
O15 O 0.86269(16) 0.05186(15) 0.11636(15)
Cu2_6 Cu 1.0000 -0.0000 1.0000
C31 C 0.6439(4) 0.0368(3) 0.6466(3)
H19 H 0.6312 0.1024 0.6328
C32 C 0.7124(4) 0.0165(3) 0.7137(3)
H20 H 0.7459 0.0674 0.7440
Cu2_7 Cu 1.0000 1.0000 0.0000
H14 H 0.9579 0.7599 0.0082
O13 O 0.94967(13) 0.91856(13) 0.09562(11)
Cu2_8 Cu 1.0000 1.0000 1.0000
C17 C 0.6345(2) 0.5337(2) 0.88507(18)
C18 C 0.71325(19) 0.58310(19) 0.83125(17)
C19 C 0.73926(18) 0.67685(18) 0.85298(16)
H11 H 0.7057 0.7104 0.8992
C20 C 0.81492(18) 0.72093(18) 0.80625(16)
C21 C 0.86319(19) 0.67511(18) 0.73716(16)
H12 H 0.9146 0.7066 0.7058
C22 C 0.83541(19) 0.58189(19) 0.71415(17)
C23 C 0.76215(19) 0.5357(2) 0.76192(17)
H13 H 0.7451 0.4712 0.7474
C24 C 0.88474(19) 0.5318(2) 0.63633(18)
C25 C 0.9750(2) 0.7633(2) 0.94427(19)
H15 H 0.9638 0.7005 0.9160
C26 C 0.91258(18) 0.83653(18) 0.89868(16)
C27 C 0.80698(19) 0.90522(18) 0.80756(16)
C28 C 0.7317(2) 0.9242(2) 0.73625(17)
C29 C 0.6792(3) 0.8566(3) 0.6916(3)
H17 H 0.6884 0.7906 0.7057
C30 C 0.6119(3) 0.8834(3) 0.6252(3)
H18 H 0.5753 0.8343 0.5954
N5 N 0.84400(15) 0.81700(15) 0.83281(13)
N6 N 0.91543(15) 0.92974(15) 0.91134(14)
N7 N 0.84982(17) 0.97332(17) 0.85372(15)
O5 O 0.57369(13) 0.58873(13) 0.92468(12)
O6 O 0.63321(16) 0.44514(14) 0.89143(15)
O7 O 0.94967(13) 0.58144(13) 0.59562(11)
O8 O 0.86269(16) 0.44814(15) 0.61636(15)
H6_2 H 0.0447 0.7190 0.4387
C17_2 C 0.3655(2) 0.0337(2) 0.61493(18)
C18_2 C 0.28675(19) 0.08310(19) 0.66875(17)
C19_2 C 0.26074(18) 0.17685(18) 0.64702(16)
H11_2 H 0.2943 0.2104 0.6008
C20_2 C 0.18508(18) 0.22093(18) 0.69375(16)
C21_2 C 0.13681(19) 0.17511(18) 0.76284(16)
H12_2 H 0.0854 0.2066 0.7942
C22_2 C 0.16459(19) 0.08189(19) 0.78585(17)
C23_2 C 0.23785(19) 0.0357(2) 0.73808(17)
C24_2 C 0.11526(19) 0.0318(2) 0.86367(18)
C25_2 C 0.0250(2) 0.2633(2) 0.55573(19)
H14_2 H 0.0421 0.2599 0.4918
H15_2 H 0.0362 0.2005 0.5840
C26_2 C 0.08742(18) 0.33653(18) 0.60132(16)
C27_2 C 0.19302(19) 0.40522(18) 0.69244(16)
C28_2 C 0.2683(2) 0.4242(2) 0.76375(17)
C29_2 C 0.3208(3) 0.3566(3) 0.8084(3)
H17_2 H 0.3116 0.2906 0.7943
C30_2 C 0.3881(3) 0.3834(3) 0.8748(3)
H18_2 H 0.4247 0.3343 0.9046
C31_2 C 0.3561(4) 0.5368(3) 0.8534(3)
H19_2 H 0.3688 0.6024 0.8672
C32_2 C 0.2876(4) 0.5165(3) 0.7863(3)
H20_2 H 0.2541 0.5674 0.7560
N5_2 N 0.15600(15) 0.31700(15) 0.66719(13)
N6_2 N 0.08457(15) 0.42974(15) 0.58866(14)
N7_2 N 0.15018(17) 0.47332(17) 0.64628(15)
N8 N 0.40407(16) 0.47177(18) 0.89869(14)
H13_2 H 0.2549 0.9712 0.7526
H3_2 H 0.7451 0.0288 0.2474
C1_2 C 0.6345(2) 0.9663(2) 0.38507(18)
C2_2 C 0.71325(19) 0.91690(19) 0.33125(17)
C3_2 C 0.73926(18) 0.82315(18) 0.35298(16)
H1_2 H 0.7057 0.7896 0.3992
C4_2 C 0.81492(18) 0.77907(18) 0.30625(16)
C5_2 C 0.86319(19) 0.82489(18) 0.23716(16)
H2_2 H 0.9146 0.7934 0.2058
C6_2 C 0.83541(19) 0.91811(19) 0.21415(17)
C7_2 C 0.76215(19) 0.9643(2) 0.26192(17)
C8_2 C 0.88474(19) 0.9682(2) 0.13633(18)
C9_2 C 0.9750(2) 0.7367(2) 0.44427(19)
H4_2 H 0.9579 0.7401 0.5082
H5_2 H 0.9638 0.7995 0.4160
C10_2 C 0.91258(18) 0.66347(18) 0.39868(16)
C11_2 C 0.80698(19) 0.59478(18) 0.30756(16)
C12_2 C 0.7317(2) 0.5758(2) 0.23625(17)
C13_2 C 0.6792(3) 0.6434(3) 0.1916(3)
H7_2 H 0.6884 0.7094 0.2057
C14_2 C 0.6119(3) 0.6166(3) 0.1252(3)
H8_2 H 0.5753 0.6657 0.0954
C15_2 C 0.6439(4) 0.4632(3) 0.1466(3)
H9_2 H 0.6312 0.3976 0.1328
C16_2 C 0.7124(4) 0.4835(3) 0.2137(3)
H10_2 H 0.7459 0.4326 0.2440
N1_2 N 0.84400(15) 0.68300(15) 0.33281(13)
N2_2 N 0.91543(15) 0.57026(15) 0.41134(14)
N3_2 N 0.84982(17) 0.52668(17) 0.35372(15)
N4_2 N 0.59593(16) 0.52823(18) 0.10131(14)
H16_2 H 0.9553 0.2810 0.5613
loop_
_geom_bond_atom_site_label_1
_geom_bond_atom_site_label_2
_geom_bond_site_symmetry_1
_geom_bond_site_symmetry_2
C1 C2 1_555 1_555
C2 C3 1_555 1_555
C3 H1 1_555 1_555
C4 C3 1_555 1_555
C5 C4 1_555 1_555
H2 C5 1_555 1_555
C6 C5 1_555 1_555
C7 C2 1_555 1_555
H3 C7 1_555 1_555
C8 C6 1_555 1_555
H5 C9 1_555 1_555
C10 C9 1_555 1_555
C11 C12 1_555 1_555
C12 C13 1_555 1_555
C13 H7 1_555 1_555
C14 C13 1_555 1_555
H8 C14 1_555 1_555
Cu1 N4 1_555 1_555
Cu2 N2 1_555 1_555
N1 C4 1_555 1_555
N2 C10 1_555 1_555
N3 C11 1_555 1_555
N4 C14 1_555 1_555
O1 C1 1_555 1_555
O2 C1 1_555 1_555
O3 C8 1_555 1_555
O4 C8 1_555 1_555
Cu5 O1 1_555 1_555
Cu7 O3 1_555 1_555
O10 Cu1 1_555 1_555
O11 Cu1 1_555 1_555
C6 C7 1_555 1_555
C10 N1 1_555 1_555
C11 N1 1_555 1_555
N2 N3 1_555 1_555
O2 Cu5 1_555 1_555
O4 Cu7 1_555 1_555
O14 Cu2_2 1_555 1_555
C15 H9 1_555 1_555
H10 C16 1_555 1_555
N9 Cu1_2 1_555 1_555
O9 Cu1_2 1_555 1_555
O12 Cu1_2 1_555 1_555
C15 C16 1_555 1_555
O16 Cu2_4 1_555 1_555
O15 Cu2_5 1_555 1_555
C31 H19 1_555 1_555
H20 C32 1_555 1_555
C31 C32 1_555 1_555
O13 Cu2_7 1_555 1_555
C17 C18 1_555 1_555
C18 C19 1_555 1_555
C19 H11 1_555 1_555
C20 C19 1_555 1_555
C21 C20 1_555 1_555
H12 C21 1_555 1_555
C22 C21 1_555 1_555
C23 C18 1_555 1_555
H13 C23 1_555 1_555
C24 C22 1_555 1_555
H15 C25 1_555 1_555
C26 C25 1_555 1_555
C27 C28 1_555 1_555
C28 C29 1_555 1_555
C29 H17 1_555 1_555
C30 C29 1_555 1_555
H18 C30 1_555 1_555
N5 C20 1_555 1_555
N6 Cu2_8 1_555 1_555
N7 C27 1_555 1_555
N9 C30 1_555 1_555
O5 C17 1_555 1_555
O6 C17 1_555 1_555
O7 C24 1_555 1_555
O8 C24 1_555 1_555
Cu5_2 O5 1_555 1_555
Cu7_2 O7 1_555 1_555
C22 C23 1_555 1_555
C26 N5 1_555 1_555
C26 N6 1_555 1_555
C27 N5 1_555 1_555
N6 N7 1_555 1_555
O6 Cu5_2 1_555 1_555
O8 Cu7_2 1_555 1_555
C17_2 C18_2 1_555 1_555
C18_2 C19_2 1_555 1_555
C19_2 H11_2 1_555 1_555
C20_2 C19_2 1_555 1_555
C21_2 C20_2 1_555 1_555
H12_2 C21_2 1_555 1_555
C22_2 C21_2 1_555 1_555
C23_2 C18_2 1_555 1_555
C24_2 C22_2 1_555 1_555
C25_2 H14_2 1_555 1_555
H15_2 C25_2 1_555 1_555
C26_2 C25_2 1_555 1_555
C27_2 C28_2 1_555 1_555
C28_2 C29_2 1_555 1_555
C29_2 H17_2 1_555 1_555
C30_2 C29_2 1_555 1_555
H18_2 C30_2 1_555 1_555
C31_2 H19_2 1_555 1_555
C32_2 C28_2 1_555 1_555
H20_2 C32_2 1_555 1_555
N5_2 C20_2 1_555 1_555
N6_2 Cu7 1_555 1_555
N7_2 C27_2 1_555 1_555
N8 C30_2 1_555 1_555
O10 C17_2 1_555 1_555
O14 C24_2 1_555 1_555
Cu5_2 N8 1_555 1_555
C22_2 C23_2 1_555 1_555
C26_2 N5_2 1_555 1_555
C26_2 N6_2 1_555 1_555
C27_2 N5_2 1_555 1_555
C31_2 C32_2 1_555 1_555
C31_2 N8 1_555 1_555
N6_2 N7_2 1_555 1_555
C1_2 C2_2 1_555 1_555
C2_2 C3_2 1_555 1_555
C3_2 H1_2 1_555 1_555
C4_2 C3_2 1_555 1_555
C5_2 C4_2 1_555 1_555
H2_2 C5_2 1_555 1_555
C6_2 C5_2 1_555 1_555
C7_2 C2_2 1_555 1_555
C8_2 C6_2 1_555 1_555
C9_2 H4_2 1_555 1_555
H5_2 C9_2 1_555 1_555
C10_2 C9_2 1_555 1_555
C11_2 C12_2 1_555 1_555
C12_2 C13_2 1_555 1_555
C13_2 H7_2 1_555 1_555
C14_2 C13_2 1_555 1_555
H8_2 C14_2 1_555 1_555
C15_2 H9_2 1_555 1_555
C16_2 C12_2 1_555 1_555
H10_2 C16_2 1_555 1_555
Cu5 N4_2 1_555 1_555
Cu7_2 N2_2 1_555 1_555
N1_2 C4_2 1_555 1_555
N2_2 C10_2 1_555 1_555
N3_2 C11_2 1_555 1_555
N4_2 C14_2 1_555 1_555
O9 C1_2 1_555 1_555
O13 C8_2 1_555 1_555
C6_2 C7_2 1_555 1_555
C10_2 N1_2 1_555 1_555
C11_2 N1_2 1_555 1_555
C15_2 C16_2 1_555 1_555
C15_2 N4_2 1_555 1_555
N2_2 N3_2 1_555 1_555

#END
