
###############################################################################
#
# This file contains modified crystal structure data generated from the
# MOF subset of the Cambridge Structural Database (CSD) v543 
# hosted by the Cambridge Crystallographic Data Centre (CCDC).
#
# This work is licensed under the Creative Commons
# Attribution-NonCommercial-ShareAlike 4.0 International License.
# To view a copy of this license, visit
# http://creativecommons.org/licenses/by-nc-sa/4.0/
# or send a letter to
# Creative Commons, PO Box 1866, Mountain View, CA 94042, USA.
#
# CIF created using the CSD Python API on 29 September 2022
# The structure has been converted into the P1 space group
# The structure has a 3D framework
# The original CSD entry DACXAK is in the triclinic crystal system
# The framework has been calculated to contain at least 10.0% void space
# The void calculation uses a probe of radius 1.32A, grid spacing 0.4
#
###############################################################################

data_DACXAK
_chemical_formula_moiety         '(C40 H34 Co3 F2 N4 O18)n'
_symmetry_cell_setting           triclinic
_symmetry_space_group_name_H-M   'P 1'
_symmetry_Int_Tables_number      1
_space_group_name_Hall           'P 1'
loop_
_symmetry_equiv_pos_site_id
_symmetry_equiv_pos_as_xyz
1 x,y,z
_cell_length_a                   9.0172(3)
_cell_length_b                   11.0767(3)
_cell_length_c                   13.4345(4)
_cell_angle_alpha                72.013(2)
_cell_angle_beta                 79.731(2)
_cell_angle_gamma                78.162(2)
_cell_volume                     1239.57
loop_
_atom_site_label
_atom_site_type_symbol
_atom_site_fract_x
_atom_site_fract_y
_atom_site_fract_z
_atom_site_U_iso_or_equiv
_atom_site_thermal_displace_type
H23 H 0.2191 0.0293 0.0467 0.0290 Uiso
F2 F 0.0321(3) 0.6164(3) 0.12030(19) 0.0369 Uani
C36 C 0.2264(4) 0.5309(4) 0.0076(3) 0.0200 Uani
H31 H 0.2761 0.4800 0.0650 0.0240 Uiso
C39 C 0.0910(5) 0.6134(4) 0.0201(3) 0.0230 Uani
C21 C 0.4339(4) 0.0294(4) 0.8368(3) 0.0198 Uani
H18 H 0.4063 0.1128 0.7952 0.0240 Uiso
C25 C 0.2083(4) 0.0330(4) 0.9752(3) 0.0239 Uani
H24 H 0.1863 0.1229 0.9357 0.0290 Uiso
O6 O 0.1097(3) 0.1388(3) 0.2356(2) 0.0260 Uani
H11 H 0.0751 0.2531 0.0502 0.0250 Uiso
H20 H 0.3988 0.7894 0.0261 0.0290 Uiso
H22 H 0.0953 0.8776 0.0200 0.0320 Uiso
Co8 Co 0.00988(7) 0.14097(5) 0.49787(4) 0.0165 Uani
Co10 Co 0.28539(6) 0.01854(5) 0.32304(4) 0.0158 Uani
N3 N 0.5583(4) 0.9513(3) 0.8150(3) 0.0187 Uani
N4 N 0.3521(4) 0.9731(3) 0.9269(3) 0.0210 Uani
C22 C 0.5561(4) 0.8387(4) 0.8953(3) 0.0192 Uani
H19 H 0.6301 0.7656 0.9011 0.0230 Uiso
C23 C 0.4284(5) 0.8513(4) 0.9649(3) 0.0241 Uani
C24 C 0.0760(4) 0.9662(4) 0.9773(3) 0.0265 Uani
H21 H 0.0684 0.9660 0.9062 0.0320 Uiso
Co13 Co 0.71461(6) 0.98146(5) 0.67696(4) 0.0158 Uani
N1 N 0.4417(4) 0.0487(3) 0.1850(3) 0.0187 Uani
N2 N 0.6479(4) 0.0269(3) 0.0731(3) 0.0210 Uani
C13 C 0.4439(4) 0.1613(4) 0.1047(3) 0.0192 Uani
H9 H 0.3699 0.2344 0.0989 0.0230 Uiso
C14 C 0.5716(5) 0.1487(4) 0.0351(3) 0.0241 Uani
C17 C 0.9240(4) 0.0338(4) 0.0227(3) 0.0265 Uani
H12 H 0.9316 0.0340 0.0938 0.0320 Uiso
O23 O 0.3478(3) 0.1816(3) 0.3439(2) 0.0252 Uani
H10 H 0.6012 0.2106 0.9739 0.0290 Uiso
H13 H 0.9047 0.1224 0.9800 0.0320 Uiso
O1 O 0.1482(3) 0.7243(2) 0.4450(2) 0.0236 Uani
O2 O 0.5866(3) 0.5623(3) 0.1038(2) 0.0205 Uani
O3 O 0.1508(3) 0.9851(2) 0.4631(2) 0.0170 Uani
O5 O 0.9361(3) 0.2252(3) 0.3472(2) 0.0267 Uani
O7 O 0.2432(3) 0.8541(3) 0.2922(2) 0.0267 Uani
O9 O 0.1656(3) 0.2671(3) 0.4503(2) 0.0283 Uani
O10 O 0.4726(3) 0.8993(3) 0.4120(3) 0.0369 Uani
H2 H 0.4893 0.8967 0.4752 0.0550 Uiso
H3 H 0.5478 0.8436 0.3923 0.0550 Uiso
C1 C 0.9215(4) 0.3093(4) 0.1642(3) 0.0185 Uani
C2 C 0.4134(4) 0.6433(4) 0.2309(3) 0.0182 Uani
H4 H 0.4442 0.7229 0.1984 0.0220 Uiso
C3 C 0.3245(5) 0.4037(4) 0.3280(3) 0.0221 Uani
C4 C 0.5661(4) 0.9706(4) 0.1632(3) 0.0198 Uani
H5 H 0.5937 0.8872 0.2048 0.0240 Uiso
C5 C 0.2979(5) 0.6294(4) 0.3163(3) 0.0228 Uani
C6 C 0.7878(4) 0.3946(4) 0.1804(3) 0.0198 Uani
H6 H 0.7479 0.3991 0.2482 0.0240 Uiso
C7 C 0.2745(4) 0.2738(4) 0.3782(3) 0.0182 Uani
C8 C 0.4369(4) 0.4191(4) 0.2409(3) 0.0158 Uani
H7 H 0.4812 0.3501 0.2143 0.0190 Uiso
C9 C 0.4817(4) 0.5386(4) 0.1948(3) 0.0180 Uani
C10 C 0.9970(4) 0.2180(4) 0.2565(3) 0.0182 Uani
C11 C 0.7155(4) 0.4723(4) 0.0948(3) 0.0197 Uani
C15 C 0.9844(4) 0.3071(4) 0.0622(3) 0.0210 Uani
C16 C 0.2243(5) 0.7452(4) 0.3532(3) 0.0234 Uani
C18 C 0.7917(4) 0.9670(4) 0.0248(3) 0.0239 Uani
H15 H 0.8137 0.8771 0.0643 0.0290 Uiso
C20 C 0.2544(5) 0.5083(4) 0.3646(3) 0.0239 Uani
H16 H 0.1780 0.4979 0.4217 0.0290 Uiso
O18 O 0.0865(4) 0.0761(3) 0.6566(2) 0.0296 Uani
H25 H 0.0150 0.0447 0.7033 0.0440 Uiso
H34 H 0.166(5) 0.019(5) 0.651(5) 0.0700 Uiso
O26 O 0.0639(3) 0.7748(3) 0.6528(2) 0.0267 Uani
O22 O 0.8492(3) 0.0149(2) 0.5369(2) 0.0170 Uani
Co1 Co 0.99012(7) 0.85903(5) 0.50213(4) 0.0165 Uani
O8 O 0.9135(4) 0.9239(3) 0.3434(2) 0.0296 Uani
H1 H 0.9850 0.9553 0.2967 0.0440 Uiso
H17 H 0.834(5) 0.981(5) 0.349(5) 0.0700 Uiso
O11 O 0.8518(3) 0.2757(2) 0.5550(2) 0.0236 Uani
O12 O 0.4134(3) 0.4377(3) 0.8962(2) 0.0205 Uani
O14 O 0.6522(3) 0.8184(3) 0.6561(2) 0.0252 Uani
O17 O 0.7568(3) 0.1459(3) 0.7078(2) 0.0267 Uani
O19 O 0.8344(3) 0.7329(3) 0.5497(2) 0.0283 Uani
O20 O 0.5274(3) 0.1007(3) 0.5880(3) 0.0369 Uani
H26 H 0.5107 0.1033 0.5248 0.0550 Uiso
H27 H 0.4522 0.1564 0.6077 0.0550 Uiso
C26 C 0.0785(4) 0.6907(4) 0.8358(3) 0.0185 Uani
C27 C 0.5866(4) 0.3567(4) 0.7691(3) 0.0182 Uani
H28 H 0.5558 0.2771 0.8016 0.0220 Uiso
C28 C 0.6755(5) 0.5963(4) 0.6720(3) 0.0221 Uani
C29 C 0.7021(5) 0.3706(4) 0.6837(3) 0.0228 Uani
C30 C 0.2122(4) 0.6054(4) 0.8196(3) 0.0198 Uani
H29 H 0.2521 0.6009 0.7518 0.0240 Uiso
C31 C 0.7255(4) 0.7262(4) 0.6218(3) 0.0182 Uani
C32 C 0.5631(4) 0.5809(4) 0.7591(3) 0.0158 Uani
H30 H 0.5188 0.6499 0.7857 0.0190 Uiso
C33 C 0.5183(4) 0.4614(4) 0.8052(3) 0.0180 Uani
C34 C 0.0030(4) 0.7820(4) 0.7435(3) 0.0182 Uani
C35 C 0.2845(4) 0.5277(4) 0.9052(3) 0.0197 Uani
C37 C 0.0156(4) 0.6929(4) 0.9378(3) 0.0210 Uani
C38 C 0.7757(5) 0.2548(4) 0.6468(3) 0.0234 Uani
C40 C 0.7456(5) 0.4917(4) 0.6354(3) 0.0239 Uani
H33 H 0.8220 0.5021 0.5783 0.0290 Uiso
O28 O 0.8903(3) 0.8612(3) 0.7644(2) 0.0260 Uani
H32 H 0.9249 0.7469 0.9498 0.0250 Uiso
F1 F 0.9679(3) 0.3836(3) 0.87970(19) 0.0369 Uani
C12 C 0.7736(4) 0.4691(4) 0.9924(3) 0.0200 Uani
H8 H 0.7239 0.5200 0.9350 0.0240 Uiso
H14 H 0.7809 0.9707 0.9533 0.0290 Uiso
C19 C 0.9090(5) 0.3866(4) 0.9799(3) 0.0230 Uani
loop_
_atom_site_aniso_label
_atom_site_aniso_U_11
_atom_site_aniso_U_22
_atom_site_aniso_U_33
_atom_site_aniso_U_23
_atom_site_aniso_U_13
_atom_site_aniso_U_12
F2 0.0449 0.0423 0.0171 -0.0117 0.0065 0.0035
C36 0.023 0.022 0.0142 -0.0036 -0.0015 -0.0052
C39 0.031 0.024 0.0161 -0.0112 0.0081 -0.0102
C21 0.0212 0.0122 0.022 -0.0039 0.008 -0.0045
C25 0.0189 0.028 0.027 -0.0165 0.0102 -0.0065
O6 0.0226 0.0271 0.0201 -0.0018 0.0028 0.0018
Co8 0.0216 0.0094 0.0141 -0.0027 0.008 -0.0027
Co10 0.0169 0.0098 0.0163 -0.0029 0.0071 -0.0016
N3 0.0185 0.014 0.0214 -0.0052 0.0061 -0.0048
N4 0.0172 0.0243 0.0226 -0.0115 0.0096 -0.0086
C22 0.0177 0.0186 0.0171 -0.0001 0.0012 -0.0038
C23 0.027 0.026 0.0139 0.0003 0.0031 -0.0062
C24 0.022 0.036 0.025 -0.0176 0.0076 -0.0075
Co13 0.0169 0.0098 0.0163 -0.0029 0.0071 -0.0016
N1 0.0185 0.014 0.0214 -0.0052 0.0061 -0.0048
N2 0.0172 0.0243 0.0226 -0.0115 0.0096 -0.0086
C13 0.0177 0.0186 0.0171 -0.0001 0.0012 -0.0038
C14 0.027 0.026 0.0139 0.0003 0.0031 -0.0062
C17 0.022 0.036 0.025 -0.0176 0.0076 -0.0075
O23 0.0273 0.0162 0.0304 -0.0126 0.0144 -0.0059
O1 0.0318 0.0121 0.0207 -0.0059 0.0125 -0.0012
O2 0.0202 0.0185 0.014 -0.0005 0.0076 0.0016
O3 0.0191 0.0082 0.0193 -0.0026 0.0048 -0.0006
O5 0.0326 0.0202 0.0186 -0.0016 0.0044 0.0027
O7 0.0392 0.0153 0.0225 -0.0082 0.0135 -0.008
O9 0.0319 0.0205 0.0298 -0.0119 0.0182 -0.0101
O10 0.0253 0.044 0.0301 -0.0054 -0.0019 0.0104
C1 0.0176 0.0135 0.0191 -0.0006 0.0045 -0.0031
C2 0.0232 0.0137 0.0144 0.0009 0.0003 -0.0056
C3 0.026 0.021 0.02 -0.0076 0.0027 -0.0076
C4 0.0212 0.0122 0.022 -0.0039 0.008 -0.0045
C5 0.029 0.019 0.019 -0.0072 0.0078 -0.0071
C6 0.0206 0.0208 0.0161 -0.0064 0.0072 -0.0057
C7 0.0181 0.017 0.022 -0.009 0.0014 -0.0061
C8 0.0159 0.0168 0.014 -0.0066 0.0019 -0.0009
C9 0.0177 0.0207 0.0117 -0.0027 0.0037 -0.0021
C10 0.0146 0.0151 0.022 -0.0042 0.006 -0.005
C11 0.0198 0.0199 0.016 -0.0043 0.0053 -0.0031
C15 0.022 0.0144 0.025 -0.0099 0.0079 -0.0017
C16 0.029 0.0161 0.023 -0.008 0.0121 -0.0085
C18 0.0189 0.028 0.027 -0.0165 0.0102 -0.0065
C20 0.025 0.023 0.022 -0.0079 0.0117 -0.01
O18 0.029 0.0353 0.0187 -0.0035 0.0055 -0.0058
O26 0.0326 0.0202 0.0186 -0.0016 0.0044 0.0027
O22 0.0191 0.0082 0.0193 -0.0026 0.0048 -0.0006
Co1 0.0216 0.0094 0.0141 -0.0027 0.008 -0.0027
O8 0.029 0.0353 0.0187 -0.0035 0.0055 -0.0058
O11 0.0318 0.0121 0.0207 -0.0059 0.0125 -0.0012
O12 0.0202 0.0185 0.014 -0.0005 0.0076 0.0016
O14 0.0273 0.0162 0.0304 -0.0126 0.0144 -0.0059
O17 0.0392 0.0153 0.0225 -0.0082 0.0135 -0.008
O19 0.0319 0.0205 0.0298 -0.0119 0.0182 -0.0101
O20 0.0253 0.044 0.0301 -0.0054 -0.0019 0.0104
C26 0.0176 0.0135 0.0191 -0.0006 0.0045 -0.0031
C27 0.0232 0.0137 0.0144 0.0009 0.0003 -0.0056
C28 0.026 0.021 0.02 -0.0076 0.0027 -0.0076
C29 0.029 0.019 0.019 -0.0072 0.0078 -0.0071
C30 0.0206 0.0208 0.0161 -0.0064 0.0072 -0.0057
C31 0.0181 0.017 0.022 -0.009 0.0014 -0.0061
C32 0.0159 0.0168 0.014 -0.0066 0.0019 -0.0009
C33 0.0177 0.0207 0.0117 -0.0027 0.0037 -0.0021
C34 0.0146 0.0151 0.022 -0.0042 0.006 -0.005
C35 0.0198 0.0199 0.016 -0.0043 0.0053 -0.0031
C37 0.022 0.0144 0.025 -0.0099 0.0079 -0.0017
C38 0.029 0.0161 0.023 -0.008 0.0121 -0.0085
C40 0.025 0.023 0.022 -0.0079 0.0117 -0.01
O28 0.0226 0.0271 0.0201 -0.0018 0.0028 0.0018
F1 0.0449 0.0423 0.0171 -0.0117 0.0065 0.0035
C12 0.023 0.022 0.0142 -0.0036 -0.0015 -0.0052
C19 0.031 0.024 0.0161 -0.0112 0.0081 -0.0102
loop_
_geom_bond_atom_site_label_1
_geom_bond_atom_site_label_2
_geom_bond_site_symmetry_1
_geom_bond_site_symmetry_2
F2 C39 1_555 1_555
H31 C36 1_555 1_555
C39 C36 1_555 1_555
C21 H18 1_555 1_555
H24 C25 1_555 1_555
Co10 O6 1_555 1_555
C22 N3 1_555 1_555
H19 C22 1_555 1_555
C23 N4 1_555 1_555
H21 C24 1_555 1_555
Co13 N3 1_555 1_555
C22 C23 1_555 1_555
N1 Co10 1_555 1_555
C13 N1 1_555 1_555
H9 C13 1_555 1_555
C14 N2 1_555 1_555
C17 H12 1_555 1_555
O23 Co10 1_555 1_555
C13 C14 1_555 1_555
O1 C16 1_555 1_555
O2 C9 1_555 1_555
O23 C7 1_555 1_555
O5 C10 1_555 1_555
O9 C7 1_555 1_555
H2 O10 1_555 1_555
H3 O10 1_555 1_555
C1 C6 1_555 1_555
C2 H4 1_555 1_555
C3 C7 1_555 1_555
H5 C4 1_555 1_555
C5 C2 1_555 1_555
C6 H6 1_555 1_555
C8 C3 1_555 1_555
H7 C8 1_555 1_555
C9 C2 1_555 1_555
C10 C1 1_555 1_555
C11 O2 1_555 1_555
C15 C1 1_555 1_555
C16 O7 1_555 1_555
H15 C18 1_555 1_555
C20 C3 1_555 1_555
H16 C20 1_555 1_555
Co8 O9 1_555 1_555
O18 Co8 1_555 1_555
H25 O18 1_555 1_555
H34 O18 1_555 1_555
C5 C16 1_555 1_555
C5 C20 1_555 1_555
C6 C11 1_555 1_555
C8 C9 1_555 1_555
O8 Co1 1_555 1_555
H1 O8 1_555 1_555
H17 O8 1_555 1_555
O12 C33 1_555 1_555
O14 C31 1_555 1_555
O26 C34 1_555 1_555
O19 Co1 1_555 1_555
H26 O20 1_555 1_555
H27 O20 1_555 1_555
C26 C30 1_555 1_555
C27 H28 1_555 1_555
C28 C31 1_555 1_555
C29 C27 1_555 1_555
C30 H29 1_555 1_555
C31 O19 1_555 1_555
C32 C28 1_555 1_555
H30 C32 1_555 1_555
C33 C27 1_555 1_555
C34 C26 1_555 1_555
C35 O12 1_555 1_555
C37 C26 1_555 1_555
C38 O11 1_555 1_555
C40 C28 1_555 1_555
H33 C40 1_555 1_555
Co13 O14 1_555 1_555
O17 C38 1_555 1_555
C29 C38 1_555 1_555
C29 C40 1_555 1_555
C30 C35 1_555 1_555
C32 C33 1_555 1_555
O28 Co13 1_555 1_555
F1 C19 1_555 1_555
H8 C12 1_555 1_555
C19 C12 1_555 1_555

#END
