
###############################################################################
#
# This file contains modified crystal structure data generated from the
# MOF subset of the Cambridge Structural Database (CSD) v543 
# hosted by the Cambridge Crystallographic Data Centre (CCDC).
#
# This work is licensed under the Creative Commons
# Attribution-NonCommercial-ShareAlike 4.0 International License.
# To view a copy of this license, visit
# http://creativecommons.org/licenses/by-nc-sa/4.0/
# or send a letter to
# Creative Commons, PO Box 1866, Mountain View, CA 94042, USA.
#
# CIF created using the CSD Python API on 29 September 2022
# The structure has been converted into the P1 space group
# The structure has a 3D framework
# The original CSD entry DACZUF is in the monoclinic crystal system
# The framework has been calculated to contain at least 10.0% void space
# The void calculation uses a probe of radius 1.32A, grid spacing 0.4
# H atom positions have been added when not included in the experimental data
# Generated hydrogen atom positions removed from atoms on special positions
#
###############################################################################

data_DACZUF
_chemical_formula_moiety         '(C120 H120 Co24 N32 O60)n'
_symmetry_cell_setting           triclinic
_symmetry_space_group_name_H-M   'P 1'
_symmetry_Int_Tables_number      1
_space_group_name_Hall           'P 1'
loop_
_symmetry_equiv_pos_site_id
_symmetry_equiv_pos_as_xyz
1 x,y,z
_cell_length_a                   34.791(18)
_cell_length_b                   10.290(4)
_cell_length_c                   13.669(5)
_cell_angle_alpha                90
_cell_angle_beta                 112.964(12)
_cell_angle_gamma                90
_cell_volume                     4505.69
loop_
_atom_site_label
_atom_site_type_symbol
_atom_site_fract_x
_atom_site_fract_y
_atom_site_fract_z
Co1 Co -0.0000 0.0207(3) 0.2500
Co2 Co 0.09697(6) 0.00608(19) 0.47105(18)
Co3 Co 0.0000 -0.0000 0.5000
N1 N 0.0961(4) 0.0138(12) 0.2998(11)
O3 O 0.0347(3) 0.0521(11) 0.4095(9)
N2 N 0.0563(4) 0.0115(12) 0.2279(10)
N3 N 0.0560(4) 0.0101(12) 0.1331(10)
O4 O 0.3778(3) 0.3174(11) 0.4986(9)
N4 N 0.0958(4) 0.0047(14) 0.1398(11)
C3 C 0.3259(5) 0.1040(15) 0.4539(14)
H1 H 0.3141 0.1865 0.4450
C6 C 0.3668(6) 0.0899(18) 0.4938(15)
O6 O 0.4341(5) 0.1902(13) 0.5658(14)
O7 O 0.0000 0.2378(18) 0.2500
C8 C 0.2524(5) 0.0029(15) 0.3750(14)
C10 C 0.2297(7) 0.066(3) 0.4224(19)
H5 H 0.2439 0.1070 0.4871
C11 C 0.1188(3) 0.0137(10) 0.2423(8)
C12 C 0.1657(5) 0.0137(16) 0.2904(13)
C13 C 0.1868(6) 0.071(2) 0.3792(17)
H6 H 0.1729 0.1154 0.4145
C15 C 0.3960(4) 0.2027(18) 0.5250(12)
Co8 Co 0.40303(6) 0.49392(19) 0.52895(18)
Co11 Co 0.0000 0.0000 0.0000
O18 O 0.1222(3) 0.1826(11) 0.5014(9)
H21 H 0.0291846 0.269967 0.275351
Co11_2 Co 0.0000 0.0000 1.0000
Co3_2 Co 0.0000 1.0000 0.5000
O1 O 0.0000 0.8163(18) 0.2500
C1 C 0.2993(5) 0.9889(18) 0.4238(15)
O2 O 0.4184(4) 0.7066(10) 0.5477(11)
C2 C 0.3782(5) 0.7193(16) 0.5089(12)
O5 O 0.3541(4) 0.6255(13) 0.4842(11)
C4 C 0.3841(5) 0.9619(16) 0.5106(14)
H2 H 0.4130 0.9528 0.5408
C5 C 0.3156(4) 0.8721(17) 0.4401(13)
H3 H 0.2986 0.7989 0.4232
C7 C 0.3616(5) 0.8587(19) 0.4858(13)
O8 O 0.0049(4) 0.7961(14) 0.4785(10)
C9 C 0.2303(5) 0.937(2) 0.2760(16)
H4 H 0.2448 0.8944 0.2412
C14 C 0.1876(6) 0.939(2) 0.2337(17)
H7 H 0.1726 0.8954 0.1709
Co11_3 Co 0.0000 1.0000 0.0000
O15 O 0.0816(4) 0.7934(10) 0.4523(11)
N9 N 0.0560(4) 0.9899(12) 0.6331(10)
N11 N 0.0958(4) 0.9953(14) 0.6398(11)
O20 O 0.1459(4) 0.8745(13) 0.5158(11)
Co6 Co 0.09697(6) 0.99392(19) 0.97105(18)
Co11_4 Co 0.0000 1.0000 1.0000
Co1_2 Co 1.0000 0.0207(3) 0.2500
Co3_3 Co 1.0000 -0.0000 0.5000
O7_2 O 1.0000 0.2378(18) 0.2500
Co4 Co 0.90303(6) 0.00608(19) 0.02895(18)
N5 N 0.9039(4) 0.0138(12) 0.2002(11)
O10 O 0.9653(3) 0.0521(11) 0.0905(9)
N6 N 0.9437(4) 0.0115(12) 0.2721(10)
N7 N 0.9440(4) 0.0101(12) 0.3669(10)
O11 O 0.6222(3) 0.3174(11) 0.0014(9)
N8 N 0.9042(4) 0.0047(14) 0.3602(11)
C18 C 0.6741(5) 0.1040(15) 0.0461(14)
H8 H 0.6859 0.1865 0.0550
C21 C 0.6332(6) 0.0899(18) 0.0062(15)
C23 C 0.7476(5) 0.0029(15) 0.1250(14)
C25 C 0.7703(7) 0.066(3) 0.0776(19)
H12 H 0.7561 0.1070 0.0129
C26 C 0.8812(3) 0.0137(10) 0.2577(8)
C27 C 0.8343(5) 0.0137(16) 0.2096(13)
C28 C 0.8132(6) 0.071(2) 0.1208(17)
H13 H 0.8271 0.1154 0.0855
O14 O 0.9951(4) 0.2039(14) 0.5215(10)
Co11_5 Co 1.0000 0.0000 0.0000
H22 H 0.984066 0.269967 0.17676
O13 O 0.5659(5) 0.1902(13) 0.9342(14)
C30 C 0.6040(4) 0.2027(18) 0.9750(12)
Co10 Co 0.59697(6) 0.49392(19) 0.97105(18)
Co11_6 Co 1.0000 0.0000 1.0000
O19 O 0.8778(3) 0.1826(11) 0.9986(9)
Co3_4 Co 1.0000 1.0000 0.5000
O1_2 O 1.0000 0.8163(18) 0.2500
C16 C 0.7007(5) 0.9889(18) 0.0762(15)
O12 O 0.6459(4) 0.6255(13) 0.0158(11)
C20 C 0.6844(4) 0.8721(17) 0.0599(13)
H10 H 0.7014 0.7989 0.0768
C22 C 0.6384(5) 0.8587(19) 0.0142(13)
C24 C 0.7697(5) 0.937(2) 0.2240(16)
H11 H 0.7552 0.8944 0.2588
C29 C 0.8124(6) 0.939(2) 0.2663(17)
H14 H 0.8274 0.8954 0.3291
Co5 Co 0.90303(6) 0.99392(19) 0.52895(18)
Co11_7 Co 1.0000 1.0000 0.0000
O16 O 0.9184(4) 0.7934(10) 0.0477(11)
O17 O 0.9653(3) 0.9479(11) 0.5905(9)
H17 H 0.986749 0.784133 0.297888
H18 H 0.984066 0.784133 0.17676
H20 H 0.99004 0.747945 0.516189
O9 O 0.5816(4) 0.7066(10) 0.9523(11)
C17 C 0.6218(5) 0.7193(16) 0.9911(12)
C19 C 0.6159(5) 0.9619(16) 0.9894(14)
H9 H 0.5870 0.9528 0.9592
Co11_8 Co 1.0000 1.0000 1.0000
N10 N 0.9042(4) 0.9953(14) 0.8602(11)
O21 O 0.8541(4) 0.8745(13) 0.9842(11)
H15 H 0.0191608 0.246113 0.0487923
H22_2 H 0.0159337 0.269967 0.32324
O14_2 O 0.0049(4) 0.2039(14) 0.9785(10)
H16 H 0.0212797 0.21898 0.934143
H17_2 H 0.0132509 0.784133 0.202112
H18_2 H 0.0159337 0.784133 0.32324
O17_2 O 0.0347(3) 0.9479(11) 0.9095(9)
H20_2 H 0.00996005 0.747945 0.983811
H21_2 H 0.970815 0.269967 0.224649
O8_2 O 0.9951(4) 0.7961(14) 0.0215(10)
N9_2 N 0.9440(4) 0.9899(12) 0.8669(10)
H19 H 0.965219 0.770424 0.992231
Co1_3 Co 0.5000 0.5207(3) 0.2500
Co2_2 Co 0.59697(6) 0.50608(19) 0.47105(18)
Co3_5 Co 0.5000 0.5000 0.5000
O1_3 O 0.5000 0.3163(18) 0.2500
C1_2 C 0.7993(5) 0.4889(18) 0.4238(15)
O2_2 O 0.9184(4) 0.2066(10) 0.5477(11)
N1_2 N 0.5961(4) 0.5138(12) 0.2998(11)
O3_2 O 0.5347(3) 0.5521(11) 0.4095(9)
N2_2 N 0.5563(4) 0.5115(12) 0.2279(10)
N3_2 N 0.5560(4) 0.5101(12) 0.1331(10)
C2_2 C 0.8782(5) 0.2193(16) 0.5089(12)
O4_2 O 0.8778(3) 0.8174(11) 0.4986(9)
N4_2 N 0.5958(4) 0.5047(14) 0.1398(11)
O5_2 O 0.8541(4) 0.1255(13) 0.4842(11)
C3_2 C 0.8259(5) 0.6040(15) 0.4539(14)
H1_2 H 0.8141 0.6865 0.4450
C4_2 C 0.8841(5) 0.4619(16) 0.5106(14)
H2_2 H 0.9130 0.4528 0.5408
C5_2 C 0.8156(4) 0.3721(17) 0.4401(13)
H3_2 H 0.7986 0.2989 0.4232
C6_2 C 0.8668(6) 0.5899(18) 0.4938(15)
C7_2 C 0.8616(5) 0.3587(19) 0.4858(13)
O6_2 O 0.9341(5) 0.6902(13) 0.5658(14)
O7_3 O 0.5000 0.7378(18) 0.2500
C8_2 C 0.7524(5) 0.5029(15) 0.3750(14)
O8_3 O 0.5049(4) 0.2961(14) 0.4785(10)
C9_2 C 0.7303(5) 0.437(2) 0.2760(16)
H4_2 H 0.7448 0.3944 0.2412
C10_2 C 0.7297(7) 0.566(3) 0.4224(19)
H5_2 H 0.7439 0.6070 0.4871
C11_2 C 0.6188(3) 0.5137(10) 0.2423(8)
C12_2 C 0.6657(5) 0.5137(16) 0.2904(13)
C13_2 C 0.6868(6) 0.571(2) 0.3792(17)
H6_2 H 0.6729 0.6154 0.4145
C14_2 C 0.6876(6) 0.439(2) 0.2337(17)
H7_2 H 0.6726 0.3954 0.1709
C15_2 C 0.8960(4) 0.7027(18) 0.5250(12)
Co4_2 Co 0.40303(6) 0.50608(19) 0.02895(18)
C16_2 C 0.2007(5) 0.4889(18) 0.0762(15)
N5_2 N 0.4039(4) 0.5138(12) 0.2002(11)
O10_2 O 0.4653(3) 0.5521(11) 0.0905(9)
N6_2 N 0.4437(4) 0.5115(12) 0.2721(10)
N7_2 N 0.4440(4) 0.5101(12) 0.3669(10)
O11_2 O 0.1222(3) 0.8174(11) 0.0014(9)
N8_2 N 0.4042(4) 0.5047(14) 0.3602(11)
O12_2 O 0.1459(4) 0.1255(13) 0.0158(11)
C18_2 C 0.1741(5) 0.6040(15) 0.0461(14)
H8_2 H 0.1859 0.6865 0.0550
C20_2 C 0.1844(4) 0.3721(17) 0.0599(13)
H10_2 H 0.2014 0.2989 0.0768
C21_2 C 0.1332(6) 0.5899(18) 0.0062(15)
C22_2 C 0.1384(5) 0.3587(19) 0.0142(13)
C23_2 C 0.2476(5) 0.5029(15) 0.1250(14)
C24_2 C 0.2697(5) 0.437(2) 0.2240(16)
H11_2 H 0.2552 0.3944 0.2588
C25_2 C 0.2703(7) 0.566(3) 0.0776(19)
H12_2 H 0.2561 0.6070 0.0129
C26_2 C 0.3812(3) 0.5137(10) 0.2577(8)
C27_2 C 0.3343(5) 0.5137(16) 0.2096(13)
C28_2 C 0.3132(6) 0.571(2) 0.1208(17)
H13_2 H 0.3271 0.6154 0.0855
C29_2 C 0.3124(6) 0.439(2) 0.2663(17)
H14_2 H 0.3274 0.3954 0.3291
O14_3 O 0.4951(4) 0.7039(14) 0.5215(10)
Co11_9 Co 0.5000 0.5000 0.0000
O15_2 O 0.5816(4) 0.2934(10) 0.4523(11)
O16_2 O 0.4184(4) 0.2934(10) 0.0477(11)
O17_3 O 0.4653(3) 0.4479(11) 0.5905(9)
N9_3 N 0.5560(4) 0.4899(12) 0.6331(10)
O18_2 O 0.6222(3) 0.6826(11) 0.5014(9)
N11_2 N 0.5958(4) 0.4953(14) 0.6398(11)
O20_2 O 0.6459(4) 0.3745(13) 0.5158(11)
O9_2 O 0.0816(4) 0.2066(10) 0.9523(11)
C17_2 C 0.1218(5) 0.2193(16) 0.9911(12)
C19_2 C 0.1159(5) 0.4619(16) 0.9894(14)
H9_2 H 0.0870 0.4528 0.9592
O13_2 O 0.0659(5) 0.6902(13) 0.9342(14)
C30_2 C 0.1040(4) 0.7027(18) 0.9750(12)
Co11_10 Co 0.5000 0.5000 1.0000
O19_2 O 0.3778(3) 0.6826(11) 0.9986(9)
N10_2 N 0.4042(4) 0.4953(14) 0.8602(11)
O21_2 O 0.3541(4) 0.3745(13) 0.9842(11)
O8_4 O 0.4951(4) 0.2961(14) 0.0215(10)
H15_2 H 0.519161 0.746113 0.0487923
O14_4 O 0.5049(4) 0.7039(14) 0.9785(10)
O17_4 O 0.5347(3) 0.4479(11) 0.9095(9)
N9_4 N 0.4440(4) 0.4899(12) 0.8669(10)
H16_2 H 0.52128 0.71898 0.934143
H19_2 H 0.465219 0.270424 0.992231
H20_3 H 0.50996 0.247945 0.983811
C17_3 C 0.3782(5) 0.2807(16) 0.0089(12)
C19_3 C 0.3841(5) 0.0381(16) 0.0106(14)
H9_3 H 0.4130 0.0472 0.0408
O1_4 O 0.0000 0.1837(18) 0.7500
C16_3 C 0.2993(5) 0.0111(18) 0.9238(15)
C20_3 C 0.3156(4) 0.1279(17) 0.9401(13)
H10_3 H 0.2986 0.2011 0.9232
C22_3 C 0.3616(5) 0.1413(19) 0.9858(13)
C24_3 C 0.2303(5) 0.063(2) 0.7760(16)
H11_3 H 0.2448 0.1056 0.7412
C29_3 C 0.1876(6) 0.061(2) 0.7337(17)
H14_3 H 0.1726 0.1046 0.6709
H17_3 H 0.0132509 0.215867 0.702112
H18_3 H 0.0159337 0.215867 0.82324
H20_4 H 0.00996005 0.252055 0.483811
O13_3 O 0.4341(5) 0.8098(13) 0.0658(14)
C30_3 C 0.3960(4) 0.7973(18) 0.0250(12)
Co1_4 Co 0.0000 0.9793(3) 0.7500
O7_4 O 0.0000 0.7622(18) 0.7500
N5_3 N 0.0961(4) 0.9862(12) 0.7998(11)
N6_3 N 0.0563(4) 0.9885(12) 0.7279(10)
C18_3 C 0.3259(5) 0.8960(15) 0.9539(14)
H8_3 H 0.3141 0.8135 0.9450
C21_3 C 0.3668(6) 0.9101(18) 0.9938(15)
C23_3 C 0.2524(5) 0.9971(15) 0.8750(14)
C25_3 C 0.2297(7) 0.934(3) 0.9224(19)
H12_3 H 0.2439 0.8930 0.9871
C26_3 C 0.1188(3) 0.9863(10) 0.7423(8)
C27_3 C 0.1657(5) 0.9863(16) 0.7904(13)
C28_3 C 0.1868(6) 0.929(2) 0.8792(17)
H13_3 H 0.1729 0.8846 0.9145
H22_3 H 0.0159337 0.730033 0.82324
O1_5 O 1.0000 0.1837(18) 0.7500
C1_3 C 0.7007(5) 0.0111(18) 0.5762(15)
C2_3 C 0.6218(5) 0.2807(16) 0.4911(12)
C4_3 C 0.6159(5) 0.0381(16) 0.4894(14)
H2_3 H 0.5870 0.0472 0.4592
C5_3 C 0.6844(4) 0.1279(17) 0.5599(13)
H3_3 H 0.7014 0.2011 0.5768
C7_3 C 0.6384(5) 0.1413(19) 0.5142(13)
C9_3 C 0.7697(5) 0.063(2) 0.7240(16)
H4_3 H 0.7552 0.1056 0.7588
C14_3 C 0.8124(6) 0.061(2) 0.7663(17)
H7_3 H 0.8274 0.1046 0.8291
Co1_5 Co 1.0000 0.9793(3) 0.7500
N1_3 N 0.9039(4) 0.9862(12) 0.7002(11)
N2_3 N 0.9437(4) 0.9885(12) 0.7721(10)
C3_3 C 0.6741(5) 0.8960(15) 0.5461(14)
H1_3 H 0.6859 0.8135 0.5550
C6_3 C 0.6332(6) 0.9101(18) 0.5062(15)
O6_3 O 0.5659(5) 0.8098(13) 0.4342(14)
O7_5 O 1.0000 0.7622(18) 0.7500
C8_3 C 0.7476(5) 0.9971(15) 0.6250(14)
C10_3 C 0.7703(7) 0.934(3) 0.5776(19)
H5_3 H 0.7561 0.8930 0.5129
C11_3 C 0.8812(3) 0.9863(10) 0.7577(8)
C12_3 C 0.8343(5) 0.9863(16) 0.7096(13)
C13_3 C 0.8132(6) 0.929(2) 0.6208(17)
H6_3 H 0.8271 0.8846 0.5855
C15_3 C 0.6040(4) 0.7973(18) 0.4750(12)
H21_3 H 0.970815 0.730033 0.724649
H19_3 H 0.0347807 0.229576 0.00776926
H21_4 H 0.0291846 0.730033 0.775351
H20_5 H 0.99004 0.252055 0.0161893
H17_4 H 0.986749 0.215867 0.797888
H18_4 H 0.984066 0.215867 0.67676
H16_3 H 0.97872 0.78102 0.0658569
H15_3 H 0.980839 0.753887 0.951208
H22_4 H 0.984066 0.730033 0.67676
C17_4 C 0.8782(5) 0.7807(16) 0.0089(12)
C19_4 C 0.8841(5) 0.5381(16) 0.0106(14)
H9_4 H 0.9130 0.5472 0.0408
O13_4 O 0.9341(5) 0.3098(13) 0.0658(14)
C30_4 C 0.8960(4) 0.2973(18) 0.0250(12)
Co1_6 Co 0.5000 0.4793(3) 0.7500
O1_6 O 0.5000 0.6837(18) 0.7500
C1_4 C 0.2007(5) 0.5111(18) 0.5762(15)
N1_4 N 0.4039(4) 0.4862(12) 0.7002(11)
N2_4 N 0.4437(4) 0.4885(12) 0.7721(10)
C2_4 C 0.1218(5) 0.7807(16) 0.4911(12)
C3_4 C 0.1741(5) 0.3960(15) 0.5461(14)
H1_4 H 0.1859 0.3135 0.5550
C4_4 C 0.1159(5) 0.5381(16) 0.4894(14)
H2_4 H 0.0870 0.5472 0.4592
C5_4 C 0.1844(4) 0.6279(17) 0.5599(13)
H3_4 H 0.2014 0.7011 0.5768
C6_4 C 0.1332(6) 0.4101(18) 0.5062(15)
C7_4 C 0.1384(5) 0.6413(19) 0.5142(13)
O6_4 O 0.0659(5) 0.3098(13) 0.4342(14)
O7_6 O 0.5000 0.2622(18) 0.7500
C8_4 C 0.2476(5) 0.4971(15) 0.6250(14)
C9_4 C 0.2697(5) 0.563(2) 0.7240(16)
H4_4 H 0.2552 0.6056 0.7588
C10_4 C 0.2703(7) 0.434(3) 0.5776(19)
H5_4 H 0.2561 0.3930 0.5129
C11_4 C 0.3812(3) 0.4863(10) 0.7577(8)
C12_4 C 0.3343(5) 0.4863(16) 0.7096(13)
C13_4 C 0.3132(6) 0.429(2) 0.6208(17)
H6_4 H 0.3271 0.3846 0.5855
C14_4 C 0.3124(6) 0.561(2) 0.7663(17)
H7_4 H 0.3274 0.6046 0.8291
C15_4 C 0.1040(4) 0.2973(18) 0.4750(12)
C16_4 C 0.7993(5) 0.5111(18) 0.9238(15)
N5_4 N 0.5961(4) 0.4862(12) 0.7998(11)
N6_4 N 0.5563(4) 0.4885(12) 0.7279(10)
C18_4 C 0.8259(5) 0.3960(15) 0.9539(14)
H8_4 H 0.8141 0.3135 0.9450
C20_4 C 0.8156(4) 0.6279(17) 0.9401(13)
H10_4 H 0.7986 0.7011 0.9232
C21_4 C 0.8668(6) 0.4101(18) 0.9938(15)
C22_4 C 0.8616(5) 0.6413(19) 0.9858(13)
C23_4 C 0.7524(5) 0.4971(15) 0.8750(14)
C24_4 C 0.7303(5) 0.563(2) 0.7760(16)
H11_4 H 0.7448 0.6056 0.7412
C25_4 C 0.7297(7) 0.434(3) 0.9224(19)
H12_4 H 0.7439 0.3930 0.9871
C26_4 C 0.6188(3) 0.4863(10) 0.7423(8)
C27_4 C 0.6657(5) 0.4863(16) 0.7904(13)
C28_4 C 0.6868(6) 0.429(2) 0.8792(17)
H13_4 H 0.6729 0.3846 0.9145
C29_4 C 0.6876(6) 0.561(2) 0.7337(17)
H14_4 H 0.6726 0.6046 0.6709
H16_4 H 0.47872 0.28102 0.0658569
H19_4 H 0.534781 0.729576 0.00776926
H20_6 H 0.49004 0.752055 0.0161893
H15_4 H 0.480839 0.253887 0.951208
loop_
_geom_bond_atom_site_label_1
_geom_bond_atom_site_label_2
_geom_bond_site_symmetry_1
_geom_bond_site_symmetry_2
Co2 N1 1_555 1_555
Co3 O3 1_555 1_555
N1 N2 1_555 1_555
O3 Co1 1_555 1_555
N2 Co1 1_555 1_555
N3 N2 1_555 1_555
O4 C15 1_555 1_555
N4 N3 1_555 1_555
C3 H1 1_555 1_555
C6 C3 1_555 1_555
O6 C15 1_555 1_555
O7 Co1 1_555 1_555
C10 C8 1_555 1_555
H5 C10 1_555 1_555
C11 N1 1_555 1_555
C12 C11 1_555 1_555
C13 C10 1_555 1_555
H6 C13 1_555 1_555
C15 C6 1_555 1_555
Co8 O4 1_555 1_555
Co11 N3 1_555 1_555
O18 Co2 1_555 1_555
Co2 O3 1_555 1_555
N4 C11 1_555 1_555
C12 C13 1_555 1_555
O7 H21 1_555 1_555
O2 C2 1_555 1_555
C2 O5 1_555 1_555
O5 Co8 1_555 1_555
C4 H2 1_555 1_555
C5 C1 1_555 1_555
H3 C5 1_555 1_555
C7 C2 1_555 1_555
O8 Co3_2 1_555 1_555
H4 C9 1_555 1_555
C14 C9 1_555 1_555
H7 C14 1_555 1_555
Co8 O2 1_555 1_555
N9 Co3_2 1_555 1_555
C4 C7 1_555 1_555
C5 C7 1_555 1_555
N9 N11 1_555 1_555
O7_2 Co1_2 1_555 1_555
Co4 N5 1_555 1_555
N5 N6 1_555 1_555
O10 Co1_2 1_555 1_555
N6 Co1_2 1_555 1_555
N7 Co3_3 1_555 1_555
N8 N7 1_555 1_555
C18 H8 1_555 1_555
C21 C18 1_555 1_555
C25 C23 1_555 1_555
H12 C25 1_555 1_555
C26 N5 1_555 1_555
C27 C26 1_555 1_555
C28 C25 1_555 1_555
H13 C28 1_555 1_555
O14 Co3_3 1_555 1_555
Co4 O10 1_555 1_555
O10 Co11_5 1_555 1_555
N6 N7 1_555 1_555
N8 C26 1_555 1_555
C27 C28 1_555 1_555
O7_2 H22 1_555 1_555
O13 C30 1_555 1_555
C20 C16 1_555 1_555
H10 C20 1_555 1_555
H11 C24 1_555 1_555
C29 C24 1_555 1_555
H14 C29 1_555 1_555
O17 Co3_4 1_555 1_555
C20 C22 1_555 1_555
Co5 O17 1_555 1_555
O1_2 H17 1_555 1_555
O1_2 H18 1_555 1_555
O9 C17 1_555 1_555
C19 H9 1_555 1_555
Co10 O9 1_555 1_555
O7 H22_2 1_555 1_555
O14_2 Co11_2 1_555 1_555
O14_2 H16 1_555 1_555
O1 H17_2 1_555 1_555
O1 H18_2 1_555 1_555
O17_2 Co11_4 1_555 1_555
Co6 O17_2 1_555 1_555
O7_2 H21_2 1_555 1_555
O8_2 Co11_7 1_555 1_555
N9_2 Co11_8 1_555 1_555
N9_2 N10 1_555 1_555
Co1_3 O1_3 1_555 1_555
Co2_2 N1_2 1_555 1_555
Co3_5 O3_2 1_555 1_555
C1_2 C3_2 1_555 1_555
O2_2 C2_2 1_555 1_555
N1_2 N2_2 1_555 1_555
O3_2 Co1_3 1_555 1_555
N2_2 Co1_3 1_555 1_555
N3_2 N2_2 1_555 1_555
C2_2 O5_2 1_555 1_555
O4_2 C15_2 1_555 1_555
N4_2 N3_2 1_555 1_555
C3_2 H1_2 1_555 1_555
C4_2 H2_2 1_555 1_555
C5_2 C1_2 1_555 1_555
H3_2 C5_2 1_555 1_555
C6_2 C3_2 1_555 1_555
C7_2 C2_2 1_555 1_555
O6_2 C15_2 1_555 1_555
O7_3 Co1_3 1_555 1_555
C8_2 C1_2 1_555 1_555
O8_3 Co3_5 1_555 1_555
C9_2 C8_2 1_555 1_555
H4_2 C9_2 1_555 1_555
C10_2 C8_2 1_555 1_555
H5_2 C10_2 1_555 1_555
C11_2 N1_2 1_555 1_555
C12_2 C11_2 1_555 1_555
C13_2 C10_2 1_555 1_555
H6_2 C13_2 1_555 1_555
C14_2 C9_2 1_555 1_555
H7_2 C14_2 1_555 1_555
C15_2 C6_2 1_555 1_555
Co4_2 N5_2 1_555 1_555
C16_2 C18_2 1_555 1_555
N5_2 N6_2 1_555 1_555
O10_2 Co1_3 1_555 1_555
N6_2 Co1_3 1_555 1_555
N7_2 Co3_5 1_555 1_555
N8_2 N7_2 1_555 1_555
C18_2 H8_2 1_555 1_555
C20_2 C16_2 1_555 1_555
H10_2 C20_2 1_555 1_555
C21_2 C18_2 1_555 1_555
C23_2 C16_2 1_555 1_555
C24_2 C23_2 1_555 1_555
H11_2 C24_2 1_555 1_555
C25_2 C23_2 1_555 1_555
H12_2 C25_2 1_555 1_555
C26_2 N5_2 1_555 1_555
C27_2 C26_2 1_555 1_555
C28_2 C25_2 1_555 1_555
H13_2 C28_2 1_555 1_555
C29_2 C24_2 1_555 1_555
H14_2 C29_2 1_555 1_555
O14_3 Co3_5 1_555 1_555
Co8 N8_2 1_555 1_555
Co5 O4_2 1_555 1_555
Co11_9 N3_2 1_555 1_555
O15_2 Co2_2 1_555 1_555
O16_2 Co4_2 1_555 1_555
O17_3 Co3_5 1_555 1_555
N9_3 Co3_5 1_555 1_555
O18_2 Co2_2 1_555 1_555
N11_2 Co2_2 1_555 1_555
O20_2 Co2_2 1_555 1_555
Co2_2 O3_2 1_555 1_555
N4_2 C11_2 1_555 1_555
C4_2 C6_2 1_555 1_555
C4_2 C7_2 1_555 1_555
C5_2 C7_2 1_555 1_555
C12_2 C13_2 1_555 1_555
C12_2 C14_2 1_555 1_555
Co4_2 O10_2 1_555 1_555
O10_2 Co11_9 1_555 1_555
N6_2 N7_2 1_555 1_555
N8_2 C26_2 1_555 1_555
C20_2 C22_2 1_555 1_555
C27_2 C28_2 1_555 1_555
C27_2 C29_2 1_555 1_555
Co8 O17_3 1_555 1_555
N9_3 N11_2 1_555 1_555
O9_2 C17_2 1_555 1_555
C19_2 H9_2 1_555 1_555
O13_2 C30_2 1_555 1_555
O8_4 Co11_9 1_555 1_555
O14_4 Co11_10 1_555 1_555
O17_4 Co11_10 1_555 1_555
N9_4 Co11_10 1_555 1_555
Co10 O17_4 1_555 1_555
N9_4 N10_2 1_555 1_555
O14_4 H16_2 1_555 1_555
O16_2 C17_3 1_555 1_555
C19_3 H9_3 1_555 1_555
C20_3 C16_3 1_555 1_555
H10_3 C20_3 1_555 1_555
H11_3 C24_3 1_555 1_555
C29_3 C24_3 1_555 1_555
H14_3 C29_3 1_555 1_555
C20_3 C22_3 1_555 1_555
O1_4 H17_3 1_555 1_555
O1_4 H18_3 1_555 1_555
O13_3 C30_3 1_555 1_555
O7_4 Co1_4 1_555 1_555
Co6 N5_3 1_555 1_555
N5_3 N6_3 1_555 1_555
O17_2 Co1_4 1_555 1_555
N6_3 Co1_4 1_555 1_555
C18_3 H8_3 1_555 1_555
C21_3 C18_3 1_555 1_555
C25_3 C23_3 1_555 1_555
H12_3 C25_3 1_555 1_555
C26_3 N5_3 1_555 1_555
C27_3 C26_3 1_555 1_555
C28_3 C25_3 1_555 1_555
H13_3 C28_3 1_555 1_555
N6_3 N9 1_555 1_555
N11 C26_3 1_555 1_555
C27_3 C28_3 1_555 1_555
O7_4 H22_3 1_555 1_555
O15_2 C2_3 1_555 1_555
C2_3 O20_2 1_555 1_555
C4_3 H2_3 1_555 1_555
C5_3 C1_3 1_555 1_555
H3_3 C5_3 1_555 1_555
C7_3 C2_3 1_555 1_555
H4_3 C9_3 1_555 1_555
C14_3 C9_3 1_555 1_555
H7_3 C14_3 1_555 1_555
C4_3 C7_3 1_555 1_555
C5_3 C7_3 1_555 1_555
Co5 N1_3 1_555 1_555
N1_3 N2_3 1_555 1_555
O17 Co1_5 1_555 1_555
N2_3 Co1_5 1_555 1_555
N9_2 N2_3 1_555 1_555
O18_2 C15_3 1_555 1_555
C3_3 H1_3 1_555 1_555
C6_3 C3_3 1_555 1_555
O6_3 C15_3 1_555 1_555
O7_5 Co1_5 1_555 1_555
C10_3 C8_3 1_555 1_555
H5_3 C10_3 1_555 1_555
C11_3 N1_3 1_555 1_555
C12_3 C11_3 1_555 1_555
C13_3 C10_3 1_555 1_555
H6_3 C13_3 1_555 1_555
C15_3 C6_3 1_555 1_555
N10 C11_3 1_555 1_555
C12_3 C13_3 1_555 1_555
O7_5 H21_3 1_555 1_555
O7_4 H21_4 1_555 1_555
O1_5 H17_4 1_555 1_555
O1_5 H18_4 1_555 1_555
O8_2 H16_3 1_555 1_555
O7_5 H22_4 1_555 1_555
O16 C17_4 1_555 1_555
C19_4 H9_4 1_555 1_555
O13_4 C30_4 1_555 1_555
Co1_6 O1_6 1_555 1_555
Co8 N1_4 1_555 1_555
C1_4 C3_4 1_555 1_555
O15 C2_4 1_555 1_555
N1_4 N2_4 1_555 1_555
O17_3 Co1_6 1_555 1_555
N2_4 Co1_6 1_555 1_555
N9_4 N2_4 1_555 1_555
C2_4 O20 1_555 1_555
O18 C15_4 1_555 1_555
C3_4 H1_4 1_555 1_555
C4_4 H2_4 1_555 1_555
C5_4 C1_4 1_555 1_555
H3_4 C5_4 1_555 1_555
C6_4 C3_4 1_555 1_555
C7_4 C2_4 1_555 1_555
O6_4 C15_4 1_555 1_555
O7_6 Co1_6 1_555 1_555
C8_4 C1_4 1_555 1_555
C9_4 C8_4 1_555 1_555
H4_4 C9_4 1_555 1_555
C10_4 C8_4 1_555 1_555
H5_4 C10_4 1_555 1_555
C11_4 N1_4 1_555 1_555
C12_4 C11_4 1_555 1_555
C13_4 C10_4 1_555 1_555
H6_4 C13_4 1_555 1_555
C14_4 C9_4 1_555 1_555
H7_4 C14_4 1_555 1_555
C15_4 C6_4 1_555 1_555
Co10 N5_4 1_555 1_555
C16_4 C18_4 1_555 1_555
N5_4 N6_4 1_555 1_555
O17_4 Co1_6 1_555 1_555
N6_4 Co1_6 1_555 1_555
C18_4 H8_4 1_555 1_555
C20_4 C16_4 1_555 1_555
H10_4 C20_4 1_555 1_555
C21_4 C18_4 1_555 1_555
C23_4 C16_4 1_555 1_555
C24_4 C23_4 1_555 1_555
H11_4 C24_4 1_555 1_555
C25_4 C23_4 1_555 1_555
H12_4 C25_4 1_555 1_555
C26_4 N5_4 1_555 1_555
C27_4 C26_4 1_555 1_555
C28_4 C25_4 1_555 1_555
H13_4 C28_4 1_555 1_555
C29_4 C24_4 1_555 1_555
H14_4 C29_4 1_555 1_555
N10_2 C11_4 1_555 1_555
C4_4 C6_4 1_555 1_555
C4_4 C7_4 1_555 1_555
C5_4 C7_4 1_555 1_555
C12_4 C13_4 1_555 1_555
C12_4 C14_4 1_555 1_555
N6_4 N9_3 1_555 1_555
N11_2 C26_4 1_555 1_555
C20_4 C22_4 1_555 1_555
C27_4 C28_4 1_555 1_555
C27_4 C29_4 1_555 1_555
O8_4 H16_4 1_555 1_555

#END
