
###############################################################################
#
# This file contains modified crystal structure data generated from the
# MOF subset of the Cambridge Structural Database (CSD) v543 
# hosted by the Cambridge Crystallographic Data Centre (CCDC).
#
# This work is licensed under the Creative Commons
# Attribution-NonCommercial-ShareAlike 4.0 International License.
# To view a copy of this license, visit
# http://creativecommons.org/licenses/by-nc-sa/4.0/
# or send a letter to
# Creative Commons, PO Box 1866, Mountain View, CA 94042, USA.
#
# CIF created using the CSD Python API on 29 September 2022
# The structure has been converted into the P1 space group
# The structure has a 3D framework
# The original CSD entry DADKUR is in the monoclinic crystal system
# The framework has been calculated to contain at least 10.0% void space
# The void calculation uses a probe of radius 1.32A, grid spacing 0.4
#
###############################################################################

data_DADKUR
_chemical_formula_moiety         '(C88 H56 Co14 N32 O48)n'
_symmetry_cell_setting           triclinic
_symmetry_space_group_name_H-M   'P 1'
_symmetry_Int_Tables_number      1
_space_group_name_Hall           'P 1'
loop_
_symmetry_equiv_pos_site_id
_symmetry_equiv_pos_as_xyz
1 x,y,z
_cell_length_a                   18.545(2)
_cell_length_b                   19.571(3)
_cell_length_c                   15.773(2)
_cell_angle_alpha                90
_cell_angle_beta                 90.477(13)
_cell_angle_gamma                90
_cell_volume                     5724.52
loop_
_atom_site_label
_atom_site_type_symbol
_atom_site_fract_x
_atom_site_fract_y
_atom_site_fract_z
O3 O 0.2283(3) 0.5761(4) 0.0021(3)
Co7 Co 0.09945(3) 0.48587(4) 0.01666(4)
Co1 Co 0.09945(3) 0.51413(4) 0.51666(4)
Co2 Co 0.0000 0.71283(6) 0.2500
O1 O 0.14621(18) 0.5468(2) 0.6198(2)
O2 O 0.2086(2) 0.6272(3) 0.5532(3)
O4 O 0.1554(2) 0.5159(2) 0.9216(2)
O5 O 0.40582(18) 0.7429(2) 0.7262(2)
O6 O 0.4354(2) 0.6993(3) 0.8473(3)
H1 H 0.4130 0.6968 0.8918
N1 N 0.0314(2) 0.5773(2) 0.4563(2)
N4 N 0.1135(3) 0.6609(4) 0.4087(4)
H2 H 0.1457 0.6486 0.4452
H3 H 0.1223 0.6938 0.3742
C1 C 0.1933(3) 0.5943(4) 0.6176(4)
C2 C 0.2297(3) 0.6073(3) 0.7016(3)
C3 C 0.2912(2) 0.6505(3) 0.7054(3)
H4 H 0.3079 0.6718 0.6567
C4 C 0.3265(3) 0.6605(3) 0.7833(3)
C5 C 0.3923(3) 0.7036(3) 0.7866(4)
C6 C 0.2995(3) 0.6300(4) 0.8562(3)
H5 H 0.3222 0.6379 0.9080
C7 C 0.2390(3) 0.5881(3) 0.8527(3)
C8 C 0.2064(4) 0.5595(4) 0.9315(4)
C9 C 0.2046(3) 0.5770(3) 0.7755(3)
H6 H 0.1642 0.5488 0.7730
C11 C 0.0491(3) 0.6284(3) 0.4055(3)
N6 N 0.0031(2) 0.6462(2) 0.1505(2)
N7 N 0.0380(2) 0.5595(2) 0.0680(3)
C21 C 0.0548(3) 0.6027(3) 0.1306(3)
H14 H 0.0994 0.6023 0.1580
Co9 Co 0.5000 0.78717(6) 0.7500
O14 O 0.1554(2) 0.4841(2) 0.4216(2)
O15 O 0.09418(18) 0.7571(2) 0.2738(2)
N9 N 0.0380(2) 0.4405(2) 0.5680(3)
Co2_2 Co 1.0000 0.71283(6) 0.2500
N2 N 0.9969(2) 0.6462(2) 0.3495(2)
N3 N 0.9620(2) 0.5595(2) 0.4320(3)
C10 C 0.9452(3) 0.6027(3) 0.3694(3)
H7 H 0.9006 0.6023 0.3420
N5 N 0.9686(2) 0.5773(2) 0.0437(2)
N8 N 0.8865(3) 0.6609(4) 0.0913(4)
H9 H 0.8543 0.6486 0.0548
H10 H 0.8777 0.6938 0.1258
C22 C 0.9509(3) 0.6284(3) 0.0945(3)
Co5 Co 0.90055(3) 0.48587(4) 0.48334(4)
O13 O 0.8446(2) 0.4841(2) 0.0784(2)
O16 O 0.90582(18) 0.7571(2) 0.2262(2)
Co3 Co 0.90055(3) 0.51413(4) 0.98334(4)
O7 O 0.85379(18) 0.5468(2) 0.8802(2)
O8 O 0.7914(2) 0.6272(3) 0.9468(3)
O9 O 0.7717(3) 0.5761(4) 0.4979(3)
O10 O 0.8446(2) 0.5159(2) 0.5784(2)
O11 O 0.59418(18) 0.7429(2) 0.7738(2)
O12 O 0.5646(2) 0.6993(3) 0.6527(3)
H8 H 0.5870 0.6968 0.6082
C12 C 0.8067(3) 0.5943(4) 0.8824(4)
C13 C 0.7703(3) 0.6073(3) 0.7984(3)
C14 C 0.7088(2) 0.6505(3) 0.7946(3)
H11 H 0.6921 0.6718 0.8433
C15 C 0.6735(3) 0.6605(3) 0.7167(3)
C16 C 0.6077(3) 0.7036(3) 0.7134(4)
C17 C 0.7005(3) 0.6300(4) 0.6438(3)
H12 H 0.6778 0.6379 0.5920
C18 C 0.7610(3) 0.5881(3) 0.6473(3)
C19 C 0.7936(4) 0.5595(4) 0.5685(4)
C20 C 0.7954(3) 0.5770(3) 0.7245(3)
H13 H 0.8358 0.5488 0.7270
N10 N 0.9620(2) 0.4405(2) 0.9320(3)
Co9_2 Co 0.0000 0.28717(6) 0.7500
Co1_2 Co 0.59945(3) 0.01413(4) 0.51666(4)
Co2_3 Co 0.5000 0.21283(6) 0.2500
O1_2 O 0.64621(18) 0.0468(2) 0.6198(2)
O2_2 O 0.7086(2) 0.1272(3) 0.5532(3)
O4_2 O 0.6554(2) 0.0159(2) 0.9216(2)
O5_2 O 0.90582(18) 0.2429(2) 0.7262(2)
O6_2 O 0.9354(2) 0.1993(3) 0.8473(3)
H1_2 H 0.9130 0.1968 0.8918
N1_2 N 0.5314(2) 0.0773(2) 0.4563(2)
N2_2 N 0.4969(2) 0.1462(2) 0.3495(2)
N3_2 N 0.4620(2) 0.0595(2) 0.4320(3)
N4_2 N 0.6135(3) 0.1609(4) 0.4087(4)
H2_2 H 0.6457 0.1486 0.4452
H3_2 H 0.6223 0.1938 0.3742
C1_2 C 0.6933(3) 0.0943(4) 0.6176(4)
C2_2 C 0.7297(3) 0.1073(3) 0.7016(3)
C3_2 C 0.7912(2) 0.1505(3) 0.7054(3)
H4_2 H 0.8079 0.1718 0.6567
C4_2 C 0.8265(3) 0.1605(3) 0.7833(3)
C5_2 C 0.8923(3) 0.2036(3) 0.7866(4)
C6_2 C 0.7995(3) 0.1300(4) 0.8562(3)
H5_2 H 0.8222 0.1379 0.9080
C7_2 C 0.7390(3) 0.0881(3) 0.8527(3)
C8_2 C 0.7064(4) 0.0595(4) 0.9315(4)
C9_2 C 0.7046(3) 0.0770(3) 0.7755(3)
H6_2 H 0.6642 0.0488 0.7730
C10_2 C 0.4452(3) 0.1027(3) 0.3694(3)
H7_2 H 0.4006 0.1023 0.3420
C11_2 C 0.5491(3) 0.1284(3) 0.4055(3)
N5_2 N 0.4686(2) 0.0773(2) 0.0437(2)
N6_2 N 0.5031(2) 0.1462(2) 0.1505(2)
N7_2 N 0.5380(2) 0.0595(2) 0.0680(3)
N8_2 N 0.3865(3) 0.1609(4) 0.0913(4)
H9_2 H 0.3543 0.1486 0.0548
H10_2 H 0.3777 0.1938 0.1258
C21_2 C 0.5548(3) 0.1027(3) 0.1306(3)
H14_2 H 0.5994 0.1023 0.1580
C22_2 C 0.4509(3) 0.1284(3) 0.0945(3)
Co9_3 Co 1.0000 0.28717(6) 0.7500
O15_2 O 0.59418(18) 0.2571(2) 0.2738(2)
O16_2 O 0.40582(18) 0.2571(2) 0.2262(2)
Co3_2 Co 0.40055(3) 0.01413(4) 0.98334(4)
O7_2 O 0.35379(18) 0.0468(2) 0.8802(2)
O8_2 O 0.2914(2) 0.1272(3) 0.9468(3)
O9_2 O 0.2717(3) 0.0761(4) 0.4979(3)
O10_2 O 0.3446(2) 0.0159(2) 0.5784(2)
O11_2 O 0.09418(18) 0.2429(2) 0.7738(2)
O12_2 O 0.0646(2) 0.1993(3) 0.6527(3)
H8_2 H 0.0870 0.1968 0.6082
C12_2 C 0.3067(3) 0.0943(4) 0.8824(4)
C13_2 C 0.2703(3) 0.1073(3) 0.7984(3)
C14_2 C 0.2088(2) 0.1505(3) 0.7946(3)
H11_2 H 0.1921 0.1718 0.8433
C15_2 C 0.1735(3) 0.1605(3) 0.7167(3)
C16_2 C 0.1077(3) 0.2036(3) 0.7134(4)
C17_2 C 0.2005(3) 0.1300(4) 0.6438(3)
H12_2 H 0.1778 0.1379 0.5920
C18_2 C 0.2610(3) 0.0881(3) 0.6473(3)
C19_2 C 0.2936(4) 0.0595(4) 0.5685(4)
C20_2 C 0.2954(3) 0.0770(3) 0.7245(3)
H13_2 H 0.3358 0.0488 0.7270
Co7_2 Co 0.59945(3) 0.98587(4) 0.01666(4)
Co5_2 Co 0.40055(3) 0.98587(4) 0.48334(4)
O13_2 O 0.3446(2) 0.9841(2) 0.0784(2)
O14_2 O 0.6554(2) 0.9841(2) 0.4216(2)
N9_2 N 0.5380(2) 0.9405(2) 0.5680(3)
N10_2 N 0.4620(2) 0.9405(2) 0.9320(3)
O7_3 O 0.14621(18) 0.4532(2) 0.1198(2)
O8_3 O 0.2086(2) 0.3728(3) 0.0532(3)
O9_3 O 0.2283(3) 0.4239(4) 0.5021(3)
O12_3 O 0.4354(2) 0.3007(3) 0.3473(3)
H8_3 H 0.4130 0.3032 0.3918
C12_3 C 0.1933(3) 0.4057(4) 0.1176(4)
C13_3 C 0.2297(3) 0.3927(3) 0.2016(3)
C14_3 C 0.2912(2) 0.3495(3) 0.2054(3)
H11_3 H 0.3079 0.3282 0.1567
C15_3 C 0.3265(3) 0.3395(3) 0.2833(3)
C16_3 C 0.3923(3) 0.2964(3) 0.2866(4)
C17_3 C 0.2995(3) 0.3700(4) 0.3562(3)
H12_3 H 0.3222 0.3621 0.4080
C18_3 C 0.2390(3) 0.4119(3) 0.3527(3)
C19_3 C 0.2064(4) 0.4405(4) 0.4315(4)
C20_3 C 0.2046(3) 0.4230(3) 0.2755(3)
H13_3 H 0.1642 0.4512 0.2730
N2_3 N 0.0031(2) 0.3538(2) 0.6505(2)
C10_3 C 0.0548(3) 0.3973(3) 0.6306(3)
H7_3 H 0.0994 0.3977 0.6580
N5_3 N 0.0314(2) 0.4227(2) 0.9563(2)
N8_3 N 0.1135(3) 0.3391(4) 0.9087(4)
H9_3 H 0.1457 0.3514 0.9452
H10_3 H 0.1223 0.3062 0.8742
C22_3 C 0.0491(3) 0.3716(3) 0.9055(3)
O1_3 O 0.85379(18) 0.4532(2) 0.3802(2)
O2_3 O 0.7914(2) 0.3728(3) 0.4468(3)
O6_3 O 0.5646(2) 0.3007(3) 0.1527(3)
H1_3 H 0.5870 0.3032 0.1082
N1_3 N 0.9686(2) 0.4227(2) 0.5437(2)
N4_3 N 0.8865(3) 0.3391(4) 0.5913(4)
H2_3 H 0.8543 0.3514 0.5548
H3_3 H 0.8777 0.3062 0.6258
C1_3 C 0.8067(3) 0.4057(4) 0.3824(4)
C2_3 C 0.7703(3) 0.3927(3) 0.2984(3)
C3_3 C 0.7088(2) 0.3495(3) 0.2946(3)
H4_3 H 0.6921 0.3282 0.3433
C4_3 C 0.6735(3) 0.3395(3) 0.2167(3)
C5_3 C 0.6077(3) 0.2964(3) 0.2134(4)
C6_3 C 0.7005(3) 0.3700(4) 0.1438(3)
H5_3 H 0.6778 0.3621 0.0920
C7_3 C 0.7610(3) 0.4119(3) 0.1473(3)
C8_3 C 0.7936(4) 0.4405(4) 0.0685(4)
C9_3 C 0.7954(3) 0.4230(3) 0.2245(3)
H6_3 H 0.8358 0.4512 0.2270
C11_3 C 0.9509(3) 0.3716(3) 0.5945(3)
N6_3 N 0.9969(2) 0.3538(2) 0.8495(2)
C21_3 C 0.9452(3) 0.3973(3) 0.8694(3)
H14_3 H 0.9006 0.3977 0.8420
O3_2 O 0.7717(3) 0.4239(4) 0.9979(3)
O7_4 O 0.64621(18) 0.9532(2) 0.1198(2)
O8_4 O 0.7086(2) 0.8728(3) 0.0532(3)
O9_4 O 0.7283(3) 0.9239(4) 0.5021(3)
O12_4 O 0.9354(2) 0.8007(3) 0.3473(3)
H8_4 H 0.9130 0.8032 0.3918
C12_4 C 0.6933(3) 0.9057(4) 0.1176(4)
C13_4 C 0.7297(3) 0.8927(3) 0.2016(3)
C14_4 C 0.7912(2) 0.8495(3) 0.2054(3)
H11_4 H 0.8079 0.8282 0.1567
C15_4 C 0.8265(3) 0.8395(3) 0.2833(3)
C16_4 C 0.8923(3) 0.7964(3) 0.2866(4)
C17_4 C 0.7995(3) 0.8700(4) 0.3562(3)
H12_4 H 0.8222 0.8621 0.4080
C18_4 C 0.7390(3) 0.9119(3) 0.3527(3)
C19_4 C 0.7064(4) 0.9405(4) 0.4315(4)
C20_4 C 0.7046(3) 0.9230(3) 0.2755(3)
H13_4 H 0.6642 0.9512 0.2730
O1_4 O 0.35379(18) 0.9532(2) 0.3802(2)
O2_4 O 0.2914(2) 0.8728(3) 0.4468(3)
O6_4 O 0.0646(2) 0.8007(3) 0.1527(3)
H1_4 H 0.0870 0.8032 0.1082
N1_4 N 0.4686(2) 0.9227(2) 0.5437(2)
N2_4 N 0.5031(2) 0.8538(2) 0.6505(2)
N4_4 N 0.3865(3) 0.8391(4) 0.5913(4)
H2_4 H 0.3543 0.8514 0.5548
H3_4 H 0.3777 0.8062 0.6258
C1_4 C 0.3067(3) 0.9057(4) 0.3824(4)
C2_4 C 0.2703(3) 0.8927(3) 0.2984(3)
C3_4 C 0.2088(2) 0.8495(3) 0.2946(3)
H4_4 H 0.1921 0.8282 0.3433
C4_4 C 0.1735(3) 0.8395(3) 0.2167(3)
C5_4 C 0.1077(3) 0.7964(3) 0.2134(4)
C6_4 C 0.2005(3) 0.8700(4) 0.1438(3)
H5_4 H 0.1778 0.8621 0.0920
C7_4 C 0.2610(3) 0.9119(3) 0.1473(3)
C8_4 C 0.2936(4) 0.9405(4) 0.0685(4)
C9_4 C 0.2954(3) 0.9230(3) 0.2245(3)
H6_4 H 0.3358 0.9512 0.2270
C10_4 C 0.5548(3) 0.8973(3) 0.6306(3)
H7_4 H 0.5994 0.8977 0.6580
C11_4 C 0.4509(3) 0.8716(3) 0.5945(3)
N5_4 N 0.5314(2) 0.9227(2) 0.9563(2)
N6_4 N 0.4969(2) 0.8538(2) 0.8495(2)
N8_4 N 0.6135(3) 0.8391(4) 0.9087(4)
H9_4 H 0.6457 0.8514 0.9452
H10_4 H 0.6223 0.8062 0.8742
C21_4 C 0.4452(3) 0.8973(3) 0.8694(3)
H14_4 H 0.4006 0.8977 0.8420
C22_4 C 0.5491(3) 0.8716(3) 0.9055(3)
O3_3 O 0.7283(3) 0.0761(4) 0.0021(3)
O3_4 O 0.2717(3) 0.9239(4) 0.9979(3)
loop_
_geom_bond_atom_site_label_1
_geom_bond_atom_site_label_2
_geom_bond_site_symmetry_1
_geom_bond_site_symmetry_2
Co1 O1 1_555 1_555
O1 C1 1_555 1_555
O2 C1 1_555 1_555
O4 C8 1_555 1_555
O5 C5 1_555 1_555
O6 H1 1_555 1_555
N1 Co1 1_555 1_555
N4 H2 1_555 1_555
H3 N4 1_555 1_555
C1 C2 1_555 1_555
C2 C3 1_555 1_555
C3 H4 1_555 1_555
C4 C3 1_555 1_555
C5 O6 1_555 1_555
C6 C4 1_555 1_555
H5 C6 1_555 1_555
C7 C6 1_555 1_555
C8 C7 1_555 1_555
C9 C2 1_555 1_555
H6 C9 1_555 1_555
C11 N1 1_555 1_555
N6 Co2 1_555 1_555
C21 N6 1_555 1_555
H14 C21 1_555 1_555
Co7 N7 1_555 1_555
Co9 O5 1_555 1_555
O14 Co1 1_555 1_555
O15 Co2 1_555 1_555
N9 Co1 1_555 1_555
N4 C11 1_555 1_555
C4 C5 1_555 1_555
C7 C9 1_555 1_555
N7 C21 1_555 1_555
Co2_2 N2 1_555 1_555
N2 C10 1_555 1_555
C10 N3 1_555 1_555
H7 C10 1_555 1_555
N8 H9 1_555 1_555
H10 N8 1_555 1_555
C22 N5 1_555 1_555
Co5 N3 1_555 1_555
O16 Co2_2 1_555 1_555
N8 C22 1_555 1_555
Co3 O7 1_555 1_555
O7 C12 1_555 1_555
O8 C12 1_555 1_555
O9 C19 1_555 1_555
O10 C19 1_555 1_555
O11 C16 1_555 1_555
O12 H8 1_555 1_555
C12 C13 1_555 1_555
C13 C14 1_555 1_555
C14 H11 1_555 1_555
C15 C14 1_555 1_555
C16 O12 1_555 1_555
C17 C15 1_555 1_555
H12 C17 1_555 1_555
C18 C17 1_555 1_555
C19 C18 1_555 1_555
C20 C13 1_555 1_555
H13 C20 1_555 1_555
Co5 O10 1_555 1_555
Co9 O11 1_555 1_555
N10 Co3 1_555 1_555
C15 C16 1_555 1_555
C18 C20 1_555 1_555
Co1_2 O1_2 1_555 1_555
Co2_3 N2_2 1_555 1_555
O1_2 C1_2 1_555 1_555
O2_2 C1_2 1_555 1_555
O4_2 C8_2 1_555 1_555
O5_2 C5_2 1_555 1_555
O6_2 H1_2 1_555 1_555
N1_2 Co1_2 1_555 1_555
N2_2 C10_2 1_555 1_555
N3_2 N1_2 1_555 1_555
N4_2 H2_2 1_555 1_555
H3_2 N4_2 1_555 1_555
C1_2 C2_2 1_555 1_555
C2_2 C3_2 1_555 1_555
C3_2 H4_2 1_555 1_555
C4_2 C3_2 1_555 1_555
C5_2 O6_2 1_555 1_555
C6_2 C4_2 1_555 1_555
H5_2 C6_2 1_555 1_555
C7_2 C6_2 1_555 1_555
C8_2 C7_2 1_555 1_555
C9_2 C2_2 1_555 1_555
H6_2 C9_2 1_555 1_555
C10_2 N3_2 1_555 1_555
H7_2 C10_2 1_555 1_555
C11_2 N1_2 1_555 1_555
N6_2 Co2_3 1_555 1_555
N7_2 N5_2 1_555 1_555
N8_2 H9_2 1_555 1_555
H10_2 N8_2 1_555 1_555
C21_2 N6_2 1_555 1_555
H14_2 C21_2 1_555 1_555
C22_2 N5_2 1_555 1_555
Co9_3 O5_2 1_555 1_555
O15_2 Co2_3 1_555 1_555
O16_2 Co2_3 1_555 1_555
N2_2 C11_2 1_555 1_555
N4_2 C11_2 1_555 1_555
C4_2 C5_2 1_555 1_555
C7_2 C9_2 1_555 1_555
N6_2 C22_2 1_555 1_555
N7_2 C21_2 1_555 1_555
N8_2 C22_2 1_555 1_555
Co3_2 O7_2 1_555 1_555
O7_2 C12_2 1_555 1_555
O8_2 C12_2 1_555 1_555
O9_2 C19_2 1_555 1_555
O10_2 C19_2 1_555 1_555
O11_2 C16_2 1_555 1_555
O12_2 H8_2 1_555 1_555
C12_2 C13_2 1_555 1_555
C13_2 C14_2 1_555 1_555
C14_2 H11_2 1_555 1_555
C15_2 C14_2 1_555 1_555
C16_2 O12_2 1_555 1_555
C17_2 C15_2 1_555 1_555
H12_2 C17_2 1_555 1_555
C18_2 C17_2 1_555 1_555
C19_2 C18_2 1_555 1_555
C20_2 C13_2 1_555 1_555
H13_2 C20_2 1_555 1_555
Co9_2 O11_2 1_555 1_555
C15_2 C16_2 1_555 1_555
C18_2 C20_2 1_555 1_555
Co7 O7_3 1_555 1_555
O7_3 C12_3 1_555 1_555
O8_3 C12_3 1_555 1_555
O9_3 C19_3 1_555 1_555
O14 C19_3 1_555 1_555
O16_2 C16_3 1_555 1_555
O12_3 H8_3 1_555 1_555
C12_3 C13_3 1_555 1_555
C13_3 C14_3 1_555 1_555
C14_3 H11_3 1_555 1_555
C15_3 C14_3 1_555 1_555
C16_3 O12_3 1_555 1_555
C17_3 C15_3 1_555 1_555
H12_3 C17_3 1_555 1_555
C18_3 C17_3 1_555 1_555
C19_3 C18_3 1_555 1_555
C20_3 C13_3 1_555 1_555
H13_3 C20_3 1_555 1_555
C15_3 C16_3 1_555 1_555
C18_3 C20_3 1_555 1_555
Co9_2 N2_3 1_555 1_555
N2_3 C10_3 1_555 1_555
C10_3 N9 1_555 1_555
H7_3 C10_3 1_555 1_555
N8_3 H9_3 1_555 1_555
H10_3 N8_3 1_555 1_555
C22_3 N5_3 1_555 1_555
N8_3 C22_3 1_555 1_555
Co5 O1_3 1_555 1_555
O1_3 C1_3 1_555 1_555
O2_3 C1_3 1_555 1_555
O13 C8_3 1_555 1_555
O15_2 C5_3 1_555 1_555
O6_3 H1_3 1_555 1_555
N1_3 Co5 1_555 1_555
N4_3 H2_3 1_555 1_555
H3_3 N4_3 1_555 1_555
C1_3 C2_3 1_555 1_555
C2_3 C3_3 1_555 1_555
C3_3 H4_3 1_555 1_555
C4_3 C3_3 1_555 1_555
C5_3 O6_3 1_555 1_555
C6_3 C4_3 1_555 1_555
H5_3 C6_3 1_555 1_555
C7_3 C6_3 1_555 1_555
C8_3 C7_3 1_555 1_555
C9_3 C2_3 1_555 1_555
H6_3 C9_3 1_555 1_555
C11_3 N1_3 1_555 1_555
N6_3 Co9_3 1_555 1_555
C21_3 N6_3 1_555 1_555
H14_3 C21_3 1_555 1_555
N4_3 C11_3 1_555 1_555
C4_3 C5_3 1_555 1_555
C7_3 C9_3 1_555 1_555
N10 C21_3 1_555 1_555
Co7_2 O7_4 1_555 1_555
O7_4 C12_4 1_555 1_555
O8_4 C12_4 1_555 1_555
O9_4 C19_4 1_555 1_555
O14_2 C19_4 1_555 1_555
O16 C16_4 1_555 1_555
O12_4 H8_4 1_555 1_555
C12_4 C13_4 1_555 1_555
C13_4 C14_4 1_555 1_555
C14_4 H11_4 1_555 1_555
C15_4 C14_4 1_555 1_555
C16_4 O12_4 1_555 1_555
C17_4 C15_4 1_555 1_555
H12_4 C17_4 1_555 1_555
C18_4 C17_4 1_555 1_555
C19_4 C18_4 1_555 1_555
C20_4 C13_4 1_555 1_555
H13_4 C20_4 1_555 1_555
C15_4 C16_4 1_555 1_555
C18_4 C20_4 1_555 1_555
Co5_2 O1_4 1_555 1_555
Co9 N2_4 1_555 1_555
O1_4 C1_4 1_555 1_555
O2_4 C1_4 1_555 1_555
O13_2 C8_4 1_555 1_555
O15 C5_4 1_555 1_555
O6_4 H1_4 1_555 1_555
N1_4 Co5_2 1_555 1_555
N2_4 C10_4 1_555 1_555
N9_2 N1_4 1_555 1_555
N4_4 H2_4 1_555 1_555
H3_4 N4_4 1_555 1_555
C1_4 C2_4 1_555 1_555
C2_4 C3_4 1_555 1_555
C3_4 H4_4 1_555 1_555
C4_4 C3_4 1_555 1_555
C5_4 O6_4 1_555 1_555
C6_4 C4_4 1_555 1_555
H5_4 C6_4 1_555 1_555
C7_4 C6_4 1_555 1_555
C8_4 C7_4 1_555 1_555
C9_4 C2_4 1_555 1_555
H6_4 C9_4 1_555 1_555
C10_4 N9_2 1_555 1_555
H7_4 C10_4 1_555 1_555
C11_4 N1_4 1_555 1_555
N6_4 Co9 1_555 1_555
N10_2 N5_4 1_555 1_555
N8_4 H9_4 1_555 1_555
H10_4 N8_4 1_555 1_555
C21_4 N6_4 1_555 1_555
H14_4 C21_4 1_555 1_555
C22_4 N5_4 1_555 1_555
N2_4 C11_4 1_555 1_555
N4_4 C11_4 1_555 1_555
C4_4 C5_4 1_555 1_555
C7_4 C9_4 1_555 1_555
N6_4 C22_4 1_555 1_555
N10_2 C21_4 1_555 1_555
N8_4 C22_4 1_555 1_555

#END
