
###############################################################################
#
# This file contains modified crystal structure data generated from the
# MOF subset of the Cambridge Structural Database (CSD) v543 
# hosted by the Cambridge Crystallographic Data Centre (CCDC).
#
# This work is licensed under the Creative Commons
# Attribution-NonCommercial-ShareAlike 4.0 International License.
# To view a copy of this license, visit
# http://creativecommons.org/licenses/by-nc-sa/4.0/
# or send a letter to
# Creative Commons, PO Box 1866, Mountain View, CA 94042, USA.
#
# CIF created using the CSD Python API on 29 September 2022
# The structure has been converted into the P1 space group
# The structure has a 3D framework
# The original CSD entry DADKOL is in the monoclinic crystal system
# The framework has been calculated to contain at least 10.0% void space
# The void calculation uses a probe of radius 1.32A, grid spacing 0.4
#
###############################################################################

data_DADKOL
_chemical_formula_moiety         '(C88 H56 N32 O48 Zn14)n'
_symmetry_cell_setting           triclinic
_symmetry_space_group_name_H-M   'P 1'
_symmetry_Int_Tables_number      1
_space_group_name_Hall           'P 1'
loop_
_symmetry_equiv_pos_site_id
_symmetry_equiv_pos_as_xyz
1 x,y,z
_cell_length_a                   17.1879(10)
_cell_length_b                   20.9539(7)
_cell_length_c                   15.6155(5)
_cell_angle_alpha                90
_cell_angle_beta                 91.641(4)
_cell_angle_gamma                90
_cell_volume                     5621.67
loop_
_atom_site_label
_atom_site_type_symbol
_atom_site_fract_x
_atom_site_fract_y
_atom_site_fract_z
O9 O 0.2760(3) 0.58368(19) 0.0085(2)
Zn5 Zn 0.39779(2) 0.48239(2) 0.02208(3)
Zn2 Zn -0.0000 0.80121(2) 0.7500
Zn3 Zn 0.39779(2) 0.51761(2) 0.52208(3)
O7 O 0.09585(17) 0.75245(12) 0.73128(18)
O8 O 0.0717(2) 0.71994(18) 0.8581(2)
O10 O 0.33156(19) 0.51220(13) 0.92745(19)
O11 O 0.2856(2) 0.62376(18) 0.5562(2)
H8 H 0.2520 0.6503 0.5667
O12 O 0.35096(18) 0.54911(14) 0.62386(18)
N5 N 0.46228(18) 0.44629(13) 0.5728(2)
N6 N 0.53293(17) 0.42477(12) 0.54312(18)
N7 N 0.49753(17) 0.36341(12) 0.65093(19)
N8 N 0.6169(3) 0.3405(2) 0.5859(3)
H9 H 0.6086 0.3000 0.5988
H10 H 0.6351 0.3407 0.5331
C12 C 0.3032(2) 0.5940(2) 0.6222(3)
C13 C 0.2668(2) 0.61007(18) 0.7061(2)
C14 C 0.2915(2) 0.57866(19) 0.7794(3)
H11 H 0.3299 0.5475 0.7766
C15 C 0.2593(2) 0.59339(19) 0.8577(2)
C16 C 0.2900(3) 0.5606(2) 0.9376(3)
C17 C 0.2010(2) 0.63851(18) 0.8609(3)
H12 H 0.1790 0.6478 0.9132
C18 C 0.1747(2) 0.67006(18) 0.7882(3)
C19 C 0.1101(4) 0.7169(3) 0.7934(3)
C20 C 0.2079(2) 0.65586(18) 0.7103(3)
H13 H 0.1909 0.6769 0.6608
C21 C 0.4441(2) 0.40891(17) 0.6351(2)
H14 H 0.3988 0.4131 0.6656
C22 C 0.5509(2) 0.37504(17) 0.5923(2)
Zn7 Zn 0.60221(2) 0.48239(2) 0.47792(3)
Zn9 Zn 0.5000 0.30121(2) 0.7500
O13 O 0.33156(19) 0.48780(13) 0.42745(19)
N10 N 0.46707(17) 0.57523(12) 0.45688(18)
N11 N 0.00247(17) 0.86341(12) 0.84907(19)
O14 O 0.66844(19) 0.48780(13) 0.07255(19)
N9 N 0.53293(17) 0.57523(12) 0.04312(18)
Zn1 Zn 0.60221(2) 0.51761(2) 0.97792(3)
Zn2_2 Zn 1.0000 0.80121(2) 0.7500
O1 O 0.90415(17) 0.75245(12) 0.76872(18)
O2 O 0.9283(2) 0.71994(18) 0.6419(2)
O3 O 0.7240(3) 0.58368(19) 0.4915(2)
O4 O 0.66844(19) 0.51220(13) 0.57255(19)
O5 O 0.7144(2) 0.62376(18) 0.9438(2)
H1 H 0.7480 0.6503 0.9333
O6 O 0.64904(18) 0.54911(14) 0.87614(18)
N1 N 0.53772(18) 0.44629(13) 0.9272(2)
N2 N 0.46707(17) 0.42477(12) 0.95688(18)
N3 N 0.50247(17) 0.36341(12) 0.84907(19)
N4 N 0.3831(3) 0.3405(2) 0.9141(3)
H2 H 0.3914 0.3000 0.9012
H3 H 0.3649 0.3407 0.9669
C1 C 0.6968(2) 0.5940(2) 0.8778(3)
C2 C 0.7332(2) 0.61007(18) 0.7939(2)
C3 C 0.7085(2) 0.57866(19) 0.7206(3)
H4 H 0.6701 0.5475 0.7234
C4 C 0.7407(2) 0.59339(19) 0.6423(2)
C5 C 0.7100(3) 0.5606(2) 0.5624(3)
C6 C 0.7990(2) 0.63851(18) 0.6391(3)
H5 H 0.8210 0.6478 0.5868
C7 C 0.8253(2) 0.67006(18) 0.7118(3)
C8 C 0.8899(4) 0.7169(3) 0.7066(3)
C9 C 0.7921(2) 0.65586(18) 0.7897(3)
H6 H 0.8091 0.6769 0.8392
C10 C 0.5559(2) 0.40891(17) 0.8649(2)
H7 H 0.6012 0.4131 0.8344
C11 C 0.4491(2) 0.37504(17) 0.9077(2)
N12 N 0.99753(17) 0.86341(12) 0.65093(19)
N6_2 N 0.03293(17) 0.92477(12) 0.54312(18)
N8_2 N 0.1169(3) 0.8405(2) 0.5859(3)
H9_2 H 0.1086 0.8000 0.5988
H10_2 H 0.1351 0.8407 0.5331
C22_2 C 0.0509(2) 0.87504(17) 0.5923(2)
Zn7_2 Zn 0.10221(2) 0.98239(2) 0.47792(3)
O9_2 O 0.7760(3) 0.08368(19) 0.0085(2)
N9_2 N 0.03293(17) 0.07523(12) 0.04312(18)
Zn1_2 Zn 0.10221(2) 0.01761(2) 0.97792(3)
O1_2 O 0.40415(17) 0.25245(12) 0.76872(18)
O2_2 O 0.4283(2) 0.21994(18) 0.6419(2)
O3_2 O 0.2240(3) 0.08368(19) 0.4915(2)
O4_2 O 0.16844(19) 0.01220(13) 0.57255(19)
O5_2 O 0.2144(2) 0.12376(18) 0.9438(2)
H1_2 H 0.2480 0.1503 0.9333
O6_2 O 0.14904(18) 0.04911(14) 0.87614(18)
C1_2 C 0.1968(2) 0.0940(2) 0.8778(3)
C2_2 C 0.2332(2) 0.11007(18) 0.7939(2)
C3_2 C 0.2085(2) 0.07866(19) 0.7206(3)
H4_2 H 0.1701 0.0475 0.7234
C4_2 C 0.2407(2) 0.09339(19) 0.6423(2)
C5_2 C 0.2100(3) 0.0606(2) 0.5624(3)
C6_2 C 0.2990(2) 0.13851(18) 0.6391(3)
H5_2 H 0.3210 0.1478 0.5868
C7_2 C 0.3253(2) 0.17006(18) 0.7118(3)
C8_2 C 0.3899(4) 0.2169(3) 0.7066(3)
C9_2 C 0.2921(2) 0.15586(18) 0.7897(3)
H6_2 H 0.3091 0.1769 0.8392
Zn3_2 Zn 0.89779(2) 0.01761(2) 0.52208(3)
O7_2 O 0.59585(17) 0.25245(12) 0.73128(18)
O8_2 O 0.5717(2) 0.21994(18) 0.8581(2)
O10_2 O 0.83156(19) 0.01220(13) 0.92745(19)
O11_2 O 0.7856(2) 0.12376(18) 0.5562(2)
H8_2 H 0.7520 0.1503 0.5667
O12_2 O 0.85096(18) 0.04911(14) 0.62386(18)
C12_2 C 0.8032(2) 0.0940(2) 0.6222(3)
C13_2 C 0.7668(2) 0.11007(18) 0.7061(2)
C14_2 C 0.7915(2) 0.07866(19) 0.7794(3)
H11_2 H 0.8299 0.0475 0.7766
C15_2 C 0.7593(2) 0.09339(19) 0.8577(2)
C16_2 C 0.7900(3) 0.0606(2) 0.9376(3)
C17_2 C 0.7010(2) 0.13851(18) 0.8609(3)
H12_2 H 0.6790 0.1478 0.9132
C18_2 C 0.6747(2) 0.17006(18) 0.7882(3)
C19_2 C 0.6101(4) 0.2169(3) 0.7934(3)
C20_2 C 0.7079(2) 0.15586(18) 0.7103(3)
H13_2 H 0.6909 0.1769 0.6608
N10_2 N 0.96707(17) 0.07523(12) 0.45688(18)
Zn5_2 Zn 0.89779(2) 0.98239(2) 0.02208(3)
O14_2 O 0.16844(19) 0.98780(13) 0.07255(19)
N1_2 N 0.03772(18) 0.94629(13) 0.9272(2)
C10_2 C 0.0559(2) 0.90891(17) 0.8649(2)
H7_2 H 0.1012 0.9131 0.8344
N5_2 N 0.96228(18) 0.94629(13) 0.5728(2)
C21_2 C 0.9441(2) 0.90891(17) 0.6351(2)
H14_2 H 0.8988 0.9131 0.6656
O13_2 O 0.83156(19) 0.98780(13) 0.42745(19)
N2_2 N 0.96707(17) 0.92477(12) 0.95688(18)
N4_2 N 0.8831(3) 0.8405(2) 0.9141(3)
H2_2 H 0.8914 0.8000 0.9012
H3_2 H 0.8649 0.8407 0.9669
C11_2 C 0.9491(2) 0.87504(17) 0.9077(2)
Zn2_3 Zn 0.0000 0.19879(2) 0.2500
O1_3 O 0.09585(17) 0.24755(12) 0.23128(18)
O2_3 O 0.0717(2) 0.28006(18) 0.3581(2)
O3_3 O 0.2760(3) 0.41632(19) 0.5085(2)
O5_3 O 0.2856(2) 0.37624(18) 0.0562(2)
H1_3 H 0.2520 0.3497 0.0667
O6_3 O 0.35096(18) 0.45089(14) 0.12386(18)
N1_3 N 0.46228(18) 0.55371(13) 0.0728(2)
N3_2 N 0.49753(17) 0.63659(12) 0.15093(19)
N4_3 N 0.6169(3) 0.6595(2) 0.0859(3)
H2_3 H 0.6086 0.7000 0.0988
H3_3 H 0.6351 0.6593 0.0331
C1_3 C 0.3032(2) 0.4060(2) 0.1222(3)
C2_3 C 0.2668(2) 0.38993(18) 0.2061(2)
C3_3 C 0.2915(2) 0.42134(19) 0.2794(3)
H4_3 H 0.3299 0.4525 0.2766
C4_3 C 0.2593(2) 0.40661(19) 0.3577(2)
C5_3 C 0.2900(3) 0.4394(2) 0.4376(3)
C6_3 C 0.2010(2) 0.36149(18) 0.3609(3)
H5_3 H 0.1790 0.3522 0.4132
C7_3 C 0.1747(2) 0.32994(18) 0.2882(3)
C8_3 C 0.1101(4) 0.2831(3) 0.2934(3)
C9_3 C 0.2079(2) 0.34414(18) 0.2103(3)
H6_3 H 0.1909 0.3231 0.1608
C10_3 C 0.4441(2) 0.59109(17) 0.1351(2)
H7_3 H 0.3988 0.5869 0.1656
C11_3 C 0.5509(2) 0.62496(17) 0.0923(2)
Zn8 Zn 0.5000 0.69879(2) 0.2500
N12_2 N 0.00247(17) 0.13659(12) 0.34907(19)
Zn2_4 Zn 1.0000 0.19879(2) 0.2500
O7_3 O 0.90415(17) 0.24755(12) 0.26872(18)
O8_3 O 0.9283(2) 0.28006(18) 0.1419(2)
O11_3 O 0.7144(2) 0.37624(18) 0.4438(2)
H8_3 H 0.7480 0.3497 0.4333
O12_3 O 0.64904(18) 0.45089(14) 0.37614(18)
N5_3 N 0.53772(18) 0.55371(13) 0.4272(2)
N7_2 N 0.50247(17) 0.63659(12) 0.34907(19)
N8_3 N 0.3831(3) 0.6595(2) 0.4141(3)
H9_3 H 0.3914 0.7000 0.4012
H10_3 H 0.3649 0.6593 0.4669
C12_3 C 0.6968(2) 0.4060(2) 0.3778(3)
C13_3 C 0.7332(2) 0.38993(18) 0.2939(2)
C14_3 C 0.7085(2) 0.42134(19) 0.2206(3)
H11_3 H 0.6701 0.4525 0.2234
C15_3 C 0.7407(2) 0.40661(19) 0.1423(2)
C16_3 C 0.7100(3) 0.4394(2) 0.0624(3)
C17_3 C 0.7990(2) 0.36149(18) 0.1391(3)
H12_3 H 0.8210 0.3522 0.0868
C18_3 C 0.8253(2) 0.32994(18) 0.2118(3)
C19_3 C 0.8899(4) 0.2831(3) 0.2066(3)
C20_3 C 0.7921(2) 0.34414(18) 0.2897(3)
H13_3 H 0.8091 0.3231 0.3392
C21_3 C 0.5559(2) 0.59109(17) 0.3649(2)
H14_3 H 0.6012 0.5869 0.3344
C22_3 C 0.4491(2) 0.62496(17) 0.4077(2)
N11_2 N 0.99753(17) 0.13659(12) 0.15093(19)
O9_3 O 0.7240(3) 0.41632(19) 0.9915(2)
N4_4 N 0.1169(3) 0.1595(2) 0.0859(3)
H2_4 H 0.1086 0.2000 0.0988
H3_4 H 0.1351 0.1593 0.0331
C11_4 C 0.0509(2) 0.12496(17) 0.0923(2)
N1_4 N 0.96228(18) 0.05371(13) 0.0728(2)
C10_4 C 0.9441(2) 0.09109(17) 0.1351(2)
H7_4 H 0.8988 0.0869 0.1656
N5_4 N 0.03772(18) 0.05371(13) 0.4272(2)
C21_4 C 0.0559(2) 0.09109(17) 0.3649(2)
H14_4 H 0.1012 0.0869 0.3344
O1_4 O 0.59585(17) 0.74755(12) 0.23128(18)
O2_4 O 0.5717(2) 0.78006(18) 0.3581(2)
O3_4 O 0.7760(3) 0.91632(19) 0.5085(2)
O5_4 O 0.7856(2) 0.87624(18) 0.0562(2)
H1_4 H 0.7520 0.8497 0.0667
O6_4 O 0.85096(18) 0.95089(14) 0.12386(18)
C1_4 C 0.8032(2) 0.9060(2) 0.1222(3)
C2_4 C 0.7668(2) 0.88993(18) 0.2061(2)
C3_4 C 0.7915(2) 0.92134(19) 0.2794(3)
H4_4 H 0.8299 0.9525 0.2766
C4_4 C 0.7593(2) 0.90661(19) 0.3577(2)
C5_4 C 0.7900(3) 0.9394(2) 0.4376(3)
C6_4 C 0.7010(2) 0.86149(18) 0.3609(3)
H5_4 H 0.6790 0.8522 0.4132
C7_4 C 0.6747(2) 0.82994(18) 0.2882(3)
C8_4 C 0.6101(4) 0.7831(3) 0.2934(3)
C9_4 C 0.7079(2) 0.84414(18) 0.2103(3)
H6_4 H 0.6909 0.8231 0.1608
O7_4 O 0.40415(17) 0.74755(12) 0.26872(18)
O8_4 O 0.4283(2) 0.78006(18) 0.1419(2)
O11_4 O 0.2144(2) 0.87624(18) 0.4438(2)
H8_4 H 0.2480 0.8497 0.4333
O12_4 O 0.14904(18) 0.95089(14) 0.37614(18)
C12_4 C 0.1968(2) 0.9060(2) 0.3778(3)
C13_4 C 0.2332(2) 0.88993(18) 0.2939(2)
C14_4 C 0.2085(2) 0.92134(19) 0.2206(3)
H11_4 H 0.1701 0.9525 0.2234
C15_4 C 0.2407(2) 0.90661(19) 0.1423(2)
C16_4 C 0.2100(3) 0.9394(2) 0.0624(3)
C17_4 C 0.2990(2) 0.86149(18) 0.1391(3)
H12_4 H 0.3210 0.8522 0.0868
C18_4 C 0.3253(2) 0.82994(18) 0.2118(3)
C19_4 C 0.3899(4) 0.7831(3) 0.2066(3)
C20_4 C 0.2921(2) 0.84414(18) 0.2897(3)
H13_4 H 0.3091 0.8231 0.3392
O9_4 O 0.2240(3) 0.91632(19) 0.9915(2)
N8_4 N 0.8831(3) 0.1595(2) 0.4141(3)
H9_4 H 0.8914 0.2000 0.4012
H10_4 H 0.8649 0.1593 0.4669
C22_4 C 0.9491(2) 0.12496(17) 0.4077(2)
loop_
_geom_bond_atom_site_label_1
_geom_bond_atom_site_label_2
_geom_bond_site_symmetry_1
_geom_bond_site_symmetry_2
Zn3 O12 1_555 1_555
O7 Zn2 1_555 1_555
O8 C19 1_555 1_555
O10 C16 1_555 1_555
O11 H8 1_555 1_555
O12 C12 1_555 1_555
N5 Zn3 1_555 1_555
N6 N5 1_555 1_555
N7 C21 1_555 1_555
N8 H9 1_555 1_555
H10 N8 1_555 1_555
C12 O11 1_555 1_555
C13 C12 1_555 1_555
C14 C13 1_555 1_555
H11 C14 1_555 1_555
C15 C14 1_555 1_555
C16 C15 1_555 1_555
C17 C15 1_555 1_555
H12 C17 1_555 1_555
C18 C17 1_555 1_555
C19 O7 1_555 1_555
C20 C13 1_555 1_555
H13 C20 1_555 1_555
C21 N5 1_555 1_555
H14 C21 1_555 1_555
C22 N6 1_555 1_555
Zn7 N6 1_555 1_555
Zn9 N7 1_555 1_555
O13 Zn3 1_555 1_555
N10 Zn3 1_555 1_555
N11 Zn2 1_555 1_555
N7 C22 1_555 1_555
N8 C22 1_555 1_555
C18 C19 1_555 1_555
C18 C20 1_555 1_555
Zn1 O6 1_555 1_555
Zn2_2 O1 1_555 1_555
O1 C8 1_555 1_555
O2 C8 1_555 1_555
O3 C5 1_555 1_555
O4 C5 1_555 1_555
O5 H1 1_555 1_555
O6 C1 1_555 1_555
N1 Zn1 1_555 1_555
N2 N1 1_555 1_555
N3 C10 1_555 1_555
N4 H2 1_555 1_555
H3 N4 1_555 1_555
C1 O5 1_555 1_555
C2 C1 1_555 1_555
C3 C2 1_555 1_555
H4 C3 1_555 1_555
C4 C3 1_555 1_555
C5 C4 1_555 1_555
C6 C4 1_555 1_555
H5 C6 1_555 1_555
C7 C6 1_555 1_555
C8 C7 1_555 1_555
C9 C2 1_555 1_555
H6 C9 1_555 1_555
C10 N1 1_555 1_555
H7 C10 1_555 1_555
C11 N2 1_555 1_555
Zn7 O4 1_555 1_555
Zn9 N3 1_555 1_555
N12 Zn2_2 1_555 1_555
N3 C11 1_555 1_555
N4 C11 1_555 1_555
C7 C9 1_555 1_555
N8_2 H9_2 1_555 1_555
H10_2 N8_2 1_555 1_555
C22_2 N6_2 1_555 1_555
Zn7_2 N6_2 1_555 1_555
N8_2 C22_2 1_555 1_555
Zn1_2 O6_2 1_555 1_555
Zn9 O1_2 1_555 1_555
O1_2 C8_2 1_555 1_555
O2_2 C8_2 1_555 1_555
O3_2 C5_2 1_555 1_555
O4_2 C5_2 1_555 1_555
O5_2 H1_2 1_555 1_555
O6_2 C1_2 1_555 1_555
C1_2 O5_2 1_555 1_555
C2_2 C1_2 1_555 1_555
C3_2 C2_2 1_555 1_555
H4_2 C3_2 1_555 1_555
C4_2 C3_2 1_555 1_555
C5_2 C4_2 1_555 1_555
C6_2 C4_2 1_555 1_555
H5_2 C6_2 1_555 1_555
C7_2 C6_2 1_555 1_555
C8_2 C7_2 1_555 1_555
C9_2 C2_2 1_555 1_555
H6_2 C9_2 1_555 1_555
Zn3_2 O12_2 1_555 1_555
O7_2 Zn9 1_555 1_555
O8_2 C19_2 1_555 1_555
O10_2 C16_2 1_555 1_555
O11_2 H8_2 1_555 1_555
O12_2 C12_2 1_555 1_555
C12_2 O11_2 1_555 1_555
C13_2 C12_2 1_555 1_555
C14_2 C13_2 1_555 1_555
H11_2 C14_2 1_555 1_555
C15_2 C14_2 1_555 1_555
C16_2 C15_2 1_555 1_555
C17_2 C15_2 1_555 1_555
H12_2 C17_2 1_555 1_555
C18_2 C17_2 1_555 1_555
C19_2 O7_2 1_555 1_555
C20_2 C13_2 1_555 1_555
H13_2 C20_2 1_555 1_555
N10_2 Zn3_2 1_555 1_555
C7_2 C9_2 1_555 1_555
C18_2 C19_2 1_555 1_555
C18_2 C20_2 1_555 1_555
N11 C10_2 1_555 1_555
C10_2 N1_2 1_555 1_555
H7_2 C10_2 1_555 1_555
N12 C21_2 1_555 1_555
C21_2 N5_2 1_555 1_555
H14_2 C21_2 1_555 1_555
N4_2 H2_2 1_555 1_555
H3_2 N4_2 1_555 1_555
C11_2 N2_2 1_555 1_555
N4_2 C11_2 1_555 1_555
Zn5 O6_3 1_555 1_555
Zn2_3 O1_3 1_555 1_555
O1_3 C8_3 1_555 1_555
O2_3 C8_3 1_555 1_555
O3_3 C5_3 1_555 1_555
O13 C5_3 1_555 1_555
O5_3 H1_3 1_555 1_555
O6_3 C1_3 1_555 1_555
N1_3 Zn5 1_555 1_555
N9 N1_3 1_555 1_555
N3_2 C10_3 1_555 1_555
N4_3 H2_3 1_555 1_555
H3_3 N4_3 1_555 1_555
C1_3 O5_3 1_555 1_555
C2_3 C1_3 1_555 1_555
C3_3 C2_3 1_555 1_555
H4_3 C3_3 1_555 1_555
C4_3 C3_3 1_555 1_555
C5_3 C4_3 1_555 1_555
C6_3 C4_3 1_555 1_555
H5_3 C6_3 1_555 1_555
C7_3 C6_3 1_555 1_555
C8_3 C7_3 1_555 1_555
C9_3 C2_3 1_555 1_555
H6_3 C9_3 1_555 1_555
C10_3 N1_3 1_555 1_555
H7_3 C10_3 1_555 1_555
C11_3 N9 1_555 1_555
Zn8 N3_2 1_555 1_555
N12_2 Zn2_3 1_555 1_555
N3_2 C11_3 1_555 1_555
N4_3 C11_3 1_555 1_555
C7_3 C9_3 1_555 1_555
Zn7 O12_3 1_555 1_555
O7_3 Zn2_4 1_555 1_555
O8_3 C19_3 1_555 1_555
O14 C16_3 1_555 1_555
O11_3 H8_3 1_555 1_555
O12_3 C12_3 1_555 1_555
N5_3 Zn7 1_555 1_555
N10 N5_3 1_555 1_555
N7_2 C21_3 1_555 1_555
N8_3 H9_3 1_555 1_555
H10_3 N8_3 1_555 1_555
C12_3 O11_3 1_555 1_555
C13_3 C12_3 1_555 1_555
C14_3 C13_3 1_555 1_555
H11_3 C14_3 1_555 1_555
C15_3 C14_3 1_555 1_555
C16_3 C15_3 1_555 1_555
C17_3 C15_3 1_555 1_555
H12_3 C17_3 1_555 1_555
C18_3 C17_3 1_555 1_555
C19_3 O7_3 1_555 1_555
C20_3 C13_3 1_555 1_555
H13_3 C20_3 1_555 1_555
C21_3 N5_3 1_555 1_555
H14_3 C21_3 1_555 1_555
C22_3 N10 1_555 1_555
Zn8 N7_2 1_555 1_555
N11_2 Zn2_4 1_555 1_555
N7_2 C22_3 1_555 1_555
N8_3 C22_3 1_555 1_555
C18_3 C19_3 1_555 1_555
C18_3 C20_3 1_555 1_555
N4_4 H2_4 1_555 1_555
H3_4 N4_4 1_555 1_555
C11_4 N9_2 1_555 1_555
N4_4 C11_4 1_555 1_555
N11_2 C10_4 1_555 1_555
C10_4 N1_4 1_555 1_555
H7_4 C10_4 1_555 1_555
N12_2 C21_4 1_555 1_555
C21_4 N5_4 1_555 1_555
H14_4 C21_4 1_555 1_555
Zn5_2 O6_4 1_555 1_555
Zn8 O1_4 1_555 1_555
O1_4 C8_4 1_555 1_555
O2_4 C8_4 1_555 1_555
O3_4 C5_4 1_555 1_555
O13_2 C5_4 1_555 1_555
O5_4 H1_4 1_555 1_555
O6_4 C1_4 1_555 1_555
C1_4 O5_4 1_555 1_555
C2_4 C1_4 1_555 1_555
C3_4 C2_4 1_555 1_555
H4_4 C3_4 1_555 1_555
C4_4 C3_4 1_555 1_555
C5_4 C4_4 1_555 1_555
C6_4 C4_4 1_555 1_555
H5_4 C6_4 1_555 1_555
C7_4 C6_4 1_555 1_555
C8_4 C7_4 1_555 1_555
C9_4 C2_4 1_555 1_555
H6_4 C9_4 1_555 1_555
Zn7_2 O12_4 1_555 1_555
O7_4 Zn8 1_555 1_555
O8_4 C19_4 1_555 1_555
O14_2 C16_4 1_555 1_555
O11_4 H8_4 1_555 1_555
O12_4 C12_4 1_555 1_555
C12_4 O11_4 1_555 1_555
C13_4 C12_4 1_555 1_555
C14_4 C13_4 1_555 1_555
H11_4 C14_4 1_555 1_555
C15_4 C14_4 1_555 1_555
C16_4 C15_4 1_555 1_555
C17_4 C15_4 1_555 1_555
H12_4 C17_4 1_555 1_555
C18_4 C17_4 1_555 1_555
C19_4 O7_4 1_555 1_555
C20_4 C13_4 1_555 1_555
H13_4 C20_4 1_555 1_555
C7_4 C9_4 1_555 1_555
C18_4 C19_4 1_555 1_555
C18_4 C20_4 1_555 1_555
N8_4 H9_4 1_555 1_555
H10_4 N8_4 1_555 1_555
C22_4 N10_2 1_555 1_555
N8_4 C22_4 1_555 1_555

#END
