
###############################################################################
#
# This file contains modified crystal structure data generated from the
# MOF subset of the Cambridge Structural Database (CSD) v543 
# hosted by the Cambridge Crystallographic Data Centre (CCDC).
#
# This work is licensed under the Creative Commons
# Attribution-NonCommercial-ShareAlike 4.0 International License.
# To view a copy of this license, visit
# http://creativecommons.org/licenses/by-nc-sa/4.0/
# or send a letter to
# Creative Commons, PO Box 1866, Mountain View, CA 94042, USA.
#
# CIF created using the CSD Python API on 29 September 2022
# The structure has been converted into the P1 space group
# The structure has a 3D framework
# The original CSD entry DADLIG is in the triclinic crystal system
# The framework has been calculated to contain at least 10.0% void space
# The void calculation uses a probe of radius 1.32A, grid spacing 0.4
#
###############################################################################

data_DADLIG
_chemical_formula_moiety         '(C174 H134 Mn10 N16 O28)n'
_symmetry_cell_setting           triclinic
_symmetry_space_group_name_H-M   'P 1'
_symmetry_Int_Tables_number      1
_space_group_name_Hall           'P 1'
loop_
_symmetry_equiv_pos_site_id
_symmetry_equiv_pos_as_xyz
1 x,y,z
_cell_length_a                   13.0203(5)
_cell_length_b                   19.7760(7)
_cell_length_c                   20.8274(8)
_cell_angle_alpha                61.932(4)
_cell_angle_beta                 73.268(3)
_cell_angle_gamma                80.162(3)
_cell_volume                     4527.78
loop_
_atom_site_label
_atom_site_type_symbol
_atom_site_fract_x
_atom_site_fract_y
_atom_site_fract_z
O26 O 0.1655(2) 0.3177(2) 0.01613(18)
C104 C 0.0397(3) 0.1350(3) 0.1289(3)
H72 H 0.0484 0.1199 0.0915
C107 C 0.0778(3) 0.2037(3) 0.1112(3)
C113 C 0.0654(4) 0.2234(3) 0.1688(3)
H75 H 0.0908 0.2695 0.1585
C129 C 0.1351(3) 0.2540(3) 0.0320(3)
C151 C 0.0153(4) 0.1747(3) 0.2418(3)
H101 H 0.0082 0.1889 0.2796
O20 O 0.1548(2) 0.22867(18) 0.98361(17)
Mn13 Mn 0.08455(5) 0.20235(3) 0.90042(3)
Mn17 Mn 0.29339(5) 0.29806(4) 0.90380(4)
O17 O 0.0581(2) 0.32420(17) 0.84272(17)
O22 O 0.2023(3) 0.37985(17) 0.83100(18)
C98 C 0.0623(3) 0.4590(2) 0.7777(2)
C103 C 0.1107(4) 0.3811(3) 0.8204(2)
H100 H 0.0451 0.7324 0.5882
C155 C 0.0639(4) 0.5962(3) 0.7192(3)
H105 H 0.0994 0.6400 0.7047
C158 C 0.1117(4) 0.5250(3) 0.7557(3)
H108 H 0.1782 0.5219 0.7654
Mn7 Mn 0.0000 -0.0000 -0.0000
C165 C 0.3875(5) 0.2639(4) 0.1397(3)
H115 H 0.4035 0.3106 0.1387
H116 H 0.3336 0.2370 0.1851
C166 C 0.4881(5) 0.2134(4) 0.1332(3)
H117 H 0.4907 0.1697 0.1811
H118 H 0.5524 0.2421 0.1145
C171 C 0.3621(5) 0.0475(4) 0.0352(5)
H125 H 0.3716 0.0381 0.0833
C174 C 0.4030(4) 0.2332(3) 0.0434(3)
N10 N 0.3538(4) 0.2797(3) 0.0739(3)
H130 H 0.3071 0.3152 0.0562
N11 N 0.2608(3) 0.0841(2) 0.0239(3)
H131 H 0.2341 0.1223 0.0333
N16 N 0.4764(4) 0.1891(3) 0.0800(3)
H134 H 0.5121 0.1513 0.0731
Mn7_2 Mn 0.0000 -0.0000 1.0000
O16 O 0.1265(2) 0.07816(16) 0.97567(16)
O23 O 0.0425(3) 0.1727(2) 0.82752(18)
O24 O 0.3828(2) 0.22938(19) 0.98984(19)
O25 O 0.2427(3) 0.2120(2) 0.8385(2)
O29 O 0.3942(3) 0.2355(2) 0.8464(2)
O30 O 0.3974(3) 0.3869(2) 0.8652(2)
C89 C 0.3956(3) 0.1503(3) 0.7946(3)
C95 C 0.9199(3) 0.0533(3) 0.3378(3)
C116 C 0.9756(3) 0.1054(3) 0.2599(2)
C121 C 0.2119(4) 0.0527(3) 0.9974(3)
C124 C 0.3410(4) 0.1210(3) 0.7670(3)
H81 H 0.2679 0.1326 0.7708
C127 C 0.3923(4) 0.0744(3) 0.7335(3)
H83 H 0.3532 0.0564 0.7141
C131 C 0.5423(4) 0.0154(3) 0.6244(3)
H86 H 0.4841 0.0463 0.6075
C133 C 0.3419(4) 0.2023(3) 0.8294(3)
C137 C 0.8572(4) 0.0181(3) 0.4699(3)
H89 H 0.8522 0.0300 0.5090
C138 C 0.4994(4) 0.0540(3) 0.7281(3)
C139 C 0.9884(4) 0.0880(3) 0.2016(3)
H90 H 0.9614 0.0426 0.2114
C148 C 0.5613(4) 0.0075(3) 0.6893(3)
C149 C 0.9072(4) 0.0681(3) 0.3974(3)
H99 H 0.9328 0.1132 0.3892
H110 H 0.0275 0.2278 0.6952
C163 C 0.5020(4) 0.1319(4) 0.7893(4)
H113 H 0.5413 0.1517 0.8070
C164 C 0.5526(4) 0.0827(4) 0.7569(4)
H114 H 0.6250 0.0693 0.7550
C169 C 0.3943(5) 0.4521(5) 0.8567(4)
C170 C 0.3464(13) 0.5590(8) 0.8739(8)
H122 H 0.2816 0.5887 0.8611
H123 H 0.3633 0.5685 0.9113
H124 H 0.4204 0.0776 0.9957
C173 C 0.4394(12) 0.5804(5) 0.8043(6)
H127 H 0.5030 0.5919 0.8122
H128 H 0.4200 0.6232 0.7606
N12 N 0.4527(5) 0.5092(3) 0.7990(4)
H132 H 0.4951 0.5038 0.7613
N13 N 0.3319(9) 0.4774(4) 0.9023(4)
H133 H 0.2881 0.4500 0.9434
O12 O 0.2302(3) 0.5486(2) 0.3656(2)
H1 H 0.2957 0.5424 0.3562
O13 O 0.2537(3) 0.5448(2) 0.4689(2)
C25 C 0.0793(4) 0.5808(3) 0.4433(3)
C35 C 0.0172(4) 0.5954(3) 0.3942(3)
H12 H 0.0464 0.5878 0.3516
C36 C 0.0356(4) 0.5931(3) 0.5056(3)
H13 H 0.0769 0.5835 0.5390
C39 C 0.1965(4) 0.5556(3) 0.4283(3)
O4 O 0.0700(2) 0.80542(17) 0.03162(17)
Mn7_3 Mn 0.0000 1.0000 -0.0000
O3 O 0.1212(2) 0.92579(18) 0.96478(17)
O6 O 0.0200(3) 0.9448(2) 0.11012(19)
C1 C 0.1227(3) 0.8586(3) 0.9744(3)
C3 C 0.1888(3) 0.8383(2) 0.9136(2)
C6 C 0.3616(3) 0.7698(3) 0.4893(2)
C7 C 0.1801(3) 0.7678(3) 0.9181(3)
H2 H 0.1429 0.7299 0.9626
C10 C 0.3250(3) 0.7919(3) 0.7247(2)
C12 C 0.2953(3) 0.8768(3) 0.7880(3)
H3 H 0.3355 0.9138 0.7445
C13 C 0.5414(4) 0.7232(3) 0.5158(3)
C14 C 0.4611(3) 0.8037(3) 0.6139(3)
H4 H 0.5274 0.8213 0.5818
C15 C 0.8663(4) 0.6354(3) 0.4701(3)
C18 C 0.2833(3) 0.8072(3) 0.7909(3)
C19 C 0.2149(4) 0.8095(3) 0.3994(3)
C21 C 0.3994(4) 0.7645(3) 0.5992(3)
C22 C 0.2660(4) 0.7531(3) 0.7082(3)
H6 H 0.1996 0.7354 0.7401
C23 C 0.2488(3) 0.8926(3) 0.8486(3)
H7 H 0.2580 0.9398 0.8454
C24 C 0.0028(4) 0.8814(3) 0.1663(3)
C27 C 0.2254(4) 0.7528(3) 0.8580(3)
H9 H 0.2174 0.7050 0.8621
C28 C 0.1468(4) 0.8326(3) 0.3454(3)
C30 C 0.4239(4) 0.8167(3) 0.6762(3)
H10 H 0.4660 0.8426 0.6860
C31 C 0.7536(3) 0.6662(3) 0.4846(3)
C45 C 0.9112(4) 0.6216(3) 0.4082(3)
H20 H 0.8694 0.6301 0.3754
C48 C 0.0460(3) 0.8679(3) 0.2309(3)
C49 C 0.5884(4) 0.6704(3) 0.5729(3)
H21 H 0.5491 0.6527 0.6224
C53 C 0.7053(4) 0.7186(3) 0.4279(3)
H24 H 0.7439 0.7350 0.3783
C55 C 0.2974(4) 0.8364(3) 0.4732(3)
H26 H 0.3026 0.8689 0.4929
C56 C 0.6931(4) 0.6435(3) 0.5573(3)
H27 H 0.7237 0.6092 0.5967
C57 C 0.1112(4) 0.9197(3) 0.2249(3)
H28 H 0.1228 0.9663 0.1821
C58 C 0.3019(4) 0.7400(3) 0.6470(3)
H29 H 0.2595 0.7140 0.6375
C59 C 0.2261(4) 0.8559(3) 0.4291(3)
H30 H 0.1847 0.9013 0.4193
C65 C 0.6009(4) 0.7473(3) 0.4428(3)
H35 H 0.5710 0.7829 0.4035
C66 C 0.1591(4) 0.9027(3) 0.2819(3)
H36 H 0.2007 0.9390 0.2778
C70 C 0.2748(5) 0.7422(3) 0.4174(3)
H40 H 0.2658 0.7090 0.3995
C72 C 0.9315(4) 0.6195(3) 0.5183(3)
H42 H 0.9031 0.6271 0.5609
C73 C 0.0234(4) 0.8046(3) 0.2972(3)
C74 C 0.0729(4) 0.7862(3) 0.3541(3)
H44 H 0.0555 0.7418 0.3987
C75 C 0.3491(4) 0.7205(3) 0.4615(3)
H45 H 0.3891 0.6745 0.4721
N7 N 0.4359(3) 0.7518(2) 0.5341(2)
C167 C 0.3552(6) 0.9726(4) 0.0326(6)
H119 H 0.3396 0.9303 0.0825
H120 H 0.4211 0.9604 0.0030
Mn7_4 Mn 0.0000 1.0000 1.0000
C91 C 0.9141(4) 0.6809(2) 0.6658(3)
C92 C 0.9653(3) 0.6042(2) 0.7037(2)
C96 C 0.8162(4) 0.8270(2) 0.5950(2)
C119 C 0.8155(4) 0.9523(3) 0.4851(3)
C120 C 0.8054(4) 0.6961(3) 0.6896(3)
H78 H 0.7637 0.6572 0.7298
C125 C 0.9654(4) 0.4664(3) 0.7605(3)
H82 H 0.9316 0.4225 0.7732
C128 C 0.7575(4) 0.7680(3) 0.6548(3)
H84 H 0.6846 0.7764 0.6722
C130 C 0.9168(4) 0.5373(3) 0.7248(3)
H85 H 0.8507 0.5402 0.7147
C134 C 0.6941(4) 0.9329(2) 0.6062(3)
C141 C 0.6072(4) 0.9787(3) 0.5833(3)
H92 H 0.5915 0.9852 0.5399
C147 C 0.9237(4) 0.8124(3) 0.5698(3)
H98 H 0.9645 0.8511 0.5284
C150 C 0.9720(4) 0.7405(3) 0.6055(3)
C154 C 0.7131(4) 0.9220(3) 0.6723(3)
H104 H 0.7705 0.8901 0.6894
C156 C 0.6466(4) 0.9585(3) 0.7139(3)
H106 H 0.6598 0.9497 0.7588
C168 C 0.8773(5) 0.9859(3) 0.3548(3)
H121 H 0.8838 0.9730 0.3163
C172 C 0.8250(5) 0.9367(3) 0.4269(3)
H126 H 0.7963 0.8925 0.4353
N9 N 0.2676(3) 0.9900(3) 0.9975(3)
H129 H 0.2532 0.9631 0.9789
N14 N 0.7653(3) 0.9003(2) 0.5601(2)
Mn7_5 Mn 1.0000 -0.0000 -0.0000
C4 C 0.0859(4) 0.3191(2) 0.3342(3)
C5 C 0.0347(3) 0.3958(2) 0.2963(2)
C9 C 0.1838(4) 0.1730(2) 0.4050(2)
C32 C 0.1845(4) 0.0477(3) 0.5149(3)
C33 C 0.1946(4) 0.3039(3) 0.3104(3)
H11 H 0.2363 0.3428 0.2702
C38 C 0.0346(4) 0.5336(3) 0.2395(3)
H15 H 0.0684 0.5775 0.2268
C41 C 0.2425(4) 0.2320(3) 0.3452(3)
H17 H 0.3154 0.2236 0.3278
C43 C 0.0832(4) 0.4627(3) 0.2752(3)
H18 H 0.1493 0.4598 0.2853
C47 C 0.3059(4) 0.0671(2) 0.3938(3)
C54 C 0.3928(4) 0.0213(3) 0.4167(3)
H25 H 0.4085 0.0148 0.4601
C60 C 0.0763(4) 0.1876(3) 0.4302(3)
H31 H 0.0355 0.1489 0.4716
C63 C 0.0280(4) 0.2595(3) 0.3945(3)
C67 C 0.2869(4) 0.0780(3) 0.3277(3)
H37 H 0.2295 0.1099 0.3106
C69 C 0.3534(4) 0.0415(3) 0.2861(3)
H39 H 0.3402 0.0503 0.2412
C81 C 0.1227(5) 0.0141(3) 0.6452(3)
H54 H 0.1162 0.0270 0.6837
C85 C 0.1750(5) 0.0633(3) 0.5731(3)
H59 H 0.2037 0.1075 0.5647
N1 N 0.7324(3) 0.0100(3) 0.0025(3)
H62 H 0.7468 0.0369 0.0211
N6 N 0.2347(3) 0.0997(2) 0.4399(2)
Mn7_6 Mn 1.0000 -0.0000 1.0000
O34 O 0.8788(2) 0.07421(18) 0.03522(17)
C80 C 0.6448(6) 0.0274(4) 0.9674(6)
H52 H 0.6604 0.0697 0.9175
H53 H 0.5789 0.0396 0.9970
O21 O 0.9800(3) 0.0552(2) 0.88988(19)
C88 C 0.8773(3) 0.1414(3) 0.0256(3)
C90 C 0.8112(3) 0.1617(2) 0.0864(2)
C93 C 0.6384(3) 0.2302(3) 0.5107(2)
C94 C 0.8199(3) 0.2322(3) 0.0819(3)
H69 H 0.8571 0.2701 0.0374
C97 C 0.6750(3) 0.2081(3) 0.2753(2)
C99 C 0.7047(3) 0.1232(3) 0.2120(3)
H70 H 0.6645 0.0862 0.2555
C100 C 0.4586(4) 0.2768(3) 0.4842(3)
C101 C 0.5389(3) 0.1963(3) 0.3861(3)
H71 H 0.4726 0.1787 0.4182
C102 C 0.1337(4) 0.3646(3) 0.5299(3)
C105 C 0.7167(3) 0.1928(3) 0.2091(3)
C106 C 0.7851(4) 0.1905(3) 0.6006(3)
C108 C 0.6006(4) 0.2355(3) 0.4008(3)
C109 C 0.7340(4) 0.2469(3) 0.2918(3)
H73 H 0.8004 0.2646 0.2599
C110 C 0.7512(3) 0.1074(3) 0.1514(3)
H74 H 0.7420 0.0602 0.1546
C111 C 0.9972(4) 0.1186(3) 0.8337(3)
C114 C 0.7746(4) 0.2472(3) 0.1420(3)
H76 H 0.7826 0.2950 0.1379
C115 C 0.8532(4) 0.1674(3) 0.6546(3)
C117 C 0.5761(4) 0.1833(3) 0.3238(3)
H77 H 0.5340 0.1574 0.3140
C118 C 0.2464(3) 0.3338(3) 0.5154(3)
C132 C 0.0888(4) 0.3784(3) 0.5918(3)
H87 H 0.1306 0.3699 0.6246
C135 C 0.9540(3) 0.1321(3) 0.7691(3)
C136 C 0.4116(4) 0.3296(3) 0.4271(3)
H88 H 0.4509 0.3473 0.3776
C140 C 0.2947(4) 0.2814(3) 0.5721(3)
H91 H 0.2561 0.2650 0.6217
C142 C 0.7026(4) 0.1636(3) 0.5268(3)
H93 H 0.6974 0.1311 0.5071
C143 C 0.3069(4) 0.3565(3) 0.4427(3)
H94 H 0.2763 0.3908 0.4033
C144 C 0.8888(4) 0.0803(3) 0.7751(3)
H95 H 0.8772 0.0337 0.8179
C145 C 0.6981(4) 0.2600(3) 0.3530(3)
H96 H 0.7405 0.2860 0.3625
C146 C 0.7739(4) 0.1441(3) 0.5709(3)
H97 H 0.8153 0.0987 0.5807
C152 C 0.3991(4) 0.2527(3) 0.5572(3)
H102 H 0.4290 0.2171 0.5965
C153 C 0.8409(4) 0.0973(3) 0.7181(3)
H103 H 0.7993 0.0610 0.7222
C157 C 0.7252(5) 0.2578(3) 0.5826(3)
H107 H 0.7342 0.2910 0.6005
C159 C 0.0685(4) 0.3805(3) 0.4817(3)
H109 H 0.0969 0.3729 0.4391
C160 C 0.9766(4) 0.1954(3) 0.7028(3)
C161 C 0.9271(4) 0.2138(3) 0.6459(3)
H111 H 0.9445 0.2582 0.6013
C162 C 0.6509(4) 0.2795(3) 0.5385(3)
H112 H 0.6109 0.3255 0.5279
N15 N 0.5641(3) 0.2482(2) 0.4659(2)
O36 O 0.9300(2) 0.19458(17) 0.96838(17)
Mn7_7 Mn 1.0000 1.0000 -0.0000
Mn10 Mn 0.91545(5) 0.79765(3) 0.09958(3)
Mn3 Mn 0.70661(5) 0.70194(4) 0.09620(4)
O1 O 0.8735(2) 0.92184(16) 0.02433(16)
O8 O 0.9575(3) 0.8273(2) 0.17248(18)
O9 O 0.6172(2) 0.77062(19) 0.01016(19)
O10 O 0.7573(3) 0.7880(2) 0.1615(2)
O14 O 0.6058(3) 0.7645(2) 0.1536(2)
O15 O 0.6026(3) 0.6131(2) 0.1348(2)
C2 C 0.6044(3) 0.8497(3) 0.2054(3)
C8 C 0.0801(3) 0.9467(3) 0.6622(3)
C29 C 0.0244(3) 0.8946(3) 0.7401(2)
C34 C 0.7881(4) 0.9473(3) 0.0026(3)
C37 C 0.6590(4) 0.8790(3) 0.2330(3)
H14 H 0.7321 0.8674 0.2292
C40 C 0.6077(4) 0.9256(3) 0.2665(3)
H16 H 0.6468 0.9436 0.2859
C44 C 0.4577(4) 0.9846(3) 0.3756(3)
H19 H 0.5159 0.9537 0.3925
C46 C 0.6581(4) 0.7977(3) 0.1706(3)
C50 C 0.1428(4) 0.9819(3) 0.5301(3)
H22 H 0.1478 0.9700 0.4910
C51 C 0.5006(4) 0.9460(3) 0.2719(3)
C52 C 0.0116(4) 0.9120(3) 0.7984(3)
H23 H 0.0386 0.9574 0.7886
C61 C 0.4387(4) 0.9925(3) 0.3107(3)
C62 C 0.0928(4) 0.9319(3) 0.6026(3)
H32 H 0.0672 0.8868 0.6108
H43 H 0.9725 0.7722 0.3048
C76 C 0.4980(4) 0.8681(4) 0.2107(4)
H46 H 0.4587 0.8483 0.1930
C77 C 0.4474(4) 0.9173(4) 0.2431(4)
H47 H 0.3750 0.9307 0.2450
C82 C 0.6057(5) 0.5479(5) 0.1433(4)
C83 C 0.6536(13) 0.4410(8) 0.1261(8)
H55 H 0.7184 0.4113 0.1389
H56 H 0.6367 0.4315 0.0887
H57 H 0.5796 0.9224 0.0043
C86 C 0.5606(12) 0.4196(5) 0.1957(6)
H60 H 0.4970 0.4081 0.1878
H61 H 0.5800 0.3768 0.2394
N4 N 0.5473(5) 0.4908(3) 0.2010(4)
H65 H 0.5049 0.4962 0.2387
N5 N 0.6681(9) 0.5226(4) 0.0977(4)
H66 H 0.7119 0.5500 0.0566
Mn7_8 Mn 1.0000 1.0000 1.0000
O31 O 0.9419(2) 0.67580(17) 0.15728(17)
O37 O 0.8452(2) 0.77133(18) 0.01639(17)
O39 O 0.7977(3) 0.62015(17) 0.16900(18)
C78 C 0.6125(5) 0.7361(4) 0.8603(3)
H48 H 0.5965 0.6894 0.8613
H49 H 0.6664 0.7630 0.8149
C79 C 0.5119(5) 0.7866(4) 0.8668(3)
H50 H 0.5093 0.8303 0.8189
H51 H 0.4476 0.7579 0.8855
C84 C 0.6379(5) 0.9525(4) 0.9648(5)
H58 H 0.6284 0.9619 0.9167
C87 C 0.5970(4) 0.7668(3) 0.9566(3)
N2 N 0.6462(4) 0.7203(3) 0.9261(3)
H63 H 0.6929 0.6848 0.9438
N3 N 0.7392(3) 0.9159(2) 0.9761(3)
H64 H 0.7659 0.8777 0.9667
N8 N 0.5236(4) 0.8109(3) 0.9200(3)
H67 H 0.4879 0.8487 0.9269
C11 C 0.9377(3) 0.5410(2) 0.2223(2)
C16 C 0.8893(4) 0.6189(3) 0.1796(2)
H33 H 0.9549 0.2676 0.4118
C68 C 0.9361(4) 0.4038(3) 0.2808(3)
H38 H 0.9006 0.3600 0.2953
C71 C 0.8883(4) 0.4750(3) 0.2443(3)
H41 H 0.8218 0.4781 0.2346
O27 O 0.7698(3) 0.4514(2) 0.6344(2)
H68 H 0.7043 0.4576 0.6438
O28 O 0.7463(3) 0.4552(2) 0.5311(2)
C112 C 0.9207(4) 0.4192(3) 0.5567(3)
C122 C 0.9828(4) 0.4046(3) 0.6058(3)
H79 H 0.9536 0.4122 0.6484
C123 C 0.9644(4) 0.4069(3) 0.4944(3)
H80 H 0.9231 0.4165 0.4610
C126 C 0.8035(4) 0.4444(3) 0.5717(3)
O11 O 0.8345(2) 0.6823(2) 0.98387(18)
C17 C 0.9603(3) 0.8650(3) 0.8711(3)
H5 H 0.9516 0.8801 0.9085
C20 C 0.9222(3) 0.7963(3) 0.8888(3)
C26 C 0.9346(4) 0.7766(3) 0.8312(3)
H8 H 0.9092 0.7305 0.8415
C42 C 0.8649(3) 0.7460(3) 0.9680(3)
C64 C 0.9847(4) 0.8253(3) 0.7582(3)
H34 H 0.9918 0.8111 0.7204
loop_
_geom_bond_atom_site_label_1
_geom_bond_atom_site_label_2
_geom_bond_site_symmetry_1
_geom_bond_site_symmetry_2
O26 C129 1_555 1_555
C104 H72 1_555 1_555
C107 C104 1_555 1_555
C113 C107 1_555 1_555
H75 C113 1_555 1_555
C129 C107 1_555 1_555
C151 C113 1_555 1_555
H101 C151 1_555 1_555
Mn13 O20 1_555 1_555
Mn17 O20 1_555 1_555
O17 C103 1_555 1_555
O22 C103 1_555 1_555
C98 C103 1_555 1_555
H105 C155 1_555 1_555
C158 C98 1_555 1_555
H108 C158 1_555 1_555
Mn13 O17 1_555 1_555
Mn17 O22 1_555 1_555
C155 C158 1_555 1_555
C165 H115 1_555 1_555
H116 C165 1_555 1_555
C166 C165 1_555 1_555
H117 C166 1_555 1_555
H118 C166 1_555 1_555
H125 C171 1_555 1_555
C174 N10 1_555 1_555
N10 C165 1_555 1_555
H130 N10 1_555 1_555
H131 N11 1_555 1_555
N16 C166 1_555 1_555
H134 N16 1_555 1_555
C171 N11 1_555 1_555
C174 N16 1_555 1_555
Mn13 O16 1_555 1_555
Mn17 O24 1_555 1_555
O16 Mn7_2 1_555 1_555
O23 Mn13 1_555 1_555
O25 Mn13 1_555 1_555
O29 Mn17 1_555 1_555
O30 Mn17 1_555 1_555
C89 C124 1_555 1_555
C95 C116 1_555 1_555
C116 C139 1_555 1_555
C121 O16 1_555 1_555
C124 H81 1_555 1_555
C127 C124 1_555 1_555
H83 C127 1_555 1_555
C131 H86 1_555 1_555
C133 O25 1_555 1_555
C137 H89 1_555 1_555
C138 C127 1_555 1_555
H90 C139 1_555 1_555
C148 C131 1_555 1_555
C149 C95 1_555 1_555
H99 C149 1_555 1_555
C163 C89 1_555 1_555
H113 C163 1_555 1_555
C164 C138 1_555 1_555
H114 C164 1_555 1_555
C169 O30 1_555 1_555
C170 H122 1_555 1_555
H123 C170 1_555 1_555
C173 C170 1_555 1_555
H127 C173 1_555 1_555
H128 C173 1_555 1_555
N12 C169 1_555 1_555
H132 N12 1_555 1_555
N13 C169 1_555 1_555
H133 N13 1_555 1_555
O29 C133 1_555 1_555
C89 C133 1_555 1_555
C137 C149 1_555 1_555
C138 C148 1_555 1_555
C163 C164 1_555 1_555
C170 N13 1_555 1_555
C173 N12 1_555 1_555
O12 H1 1_555 1_555
O13 C39 1_555 1_555
C25 C35 1_555 1_555
C35 H12 1_555 1_555
C36 C25 1_555 1_555
H13 C36 1_555 1_555
C39 O12 1_555 1_555
C25 C39 1_555 1_555
O3 C1 1_555 1_555
O6 Mn7_3 1_555 1_555
C1 C3 1_555 1_555
C3 C7 1_555 1_555
C6 C55 1_555 1_555
C7 H2 1_555 1_555
C10 C18 1_555 1_555
C12 H3 1_555 1_555
C13 C49 1_555 1_555
C14 H4 1_555 1_555
C15 C31 1_555 1_555
C18 C12 1_555 1_555
C19 C28 1_555 1_555
C21 C14 1_555 1_555
C22 C10 1_555 1_555
H6 C22 1_555 1_555
C23 C3 1_555 1_555
H7 C23 1_555 1_555
C24 O6 1_555 1_555
C27 C7 1_555 1_555
H9 C27 1_555 1_555
C28 C66 1_555 1_555
C30 C10 1_555 1_555
H10 C30 1_555 1_555
C31 C53 1_555 1_555
C45 C15 1_555 1_555
H20 C45 1_555 1_555
C48 C24 1_555 1_555
C49 H21 1_555 1_555
C53 H24 1_555 1_555
C55 H26 1_555 1_555
C56 C31 1_555 1_555
H27 C56 1_555 1_555
C57 C48 1_555 1_555
H28 C57 1_555 1_555
C58 C21 1_555 1_555
H29 C58 1_555 1_555
C59 C19 1_555 1_555
H30 C59 1_555 1_555
C65 C13 1_555 1_555
H35 C65 1_555 1_555
C66 C57 1_555 1_555
H36 C66 1_555 1_555
C70 C19 1_555 1_555
H40 C70 1_555 1_555
C72 C15 1_555 1_555
H42 C72 1_555 1_555
C73 C48 1_555 1_555
C74 C28 1_555 1_555
H44 C74 1_555 1_555
C75 C6 1_555 1_555
H45 C75 1_555 1_555
N7 C6 1_555 1_555
C167 H119 1_555 1_555
H120 C167 1_555 1_555
Mn7_4 O3 1_555 1_555
C12 C23 1_555 1_555
C13 N7 1_555 1_555
C14 C30 1_555 1_555
C18 C27 1_555 1_555
C21 N7 1_555 1_555
C22 C58 1_555 1_555
C49 C56 1_555 1_555
C53 C65 1_555 1_555
C55 C59 1_555 1_555
C70 C75 1_555 1_555
C73 C74 1_555 1_555
C91 C92 1_555 1_555
C92 C130 1_555 1_555
C96 C128 1_555 1_555
C120 C91 1_555 1_555
H78 C120 1_555 1_555
H82 C125 1_555 1_555
C128 C120 1_555 1_555
H84 C128 1_555 1_555
C130 C125 1_555 1_555
H85 C130 1_555 1_555
C134 C141 1_555 1_555
H92 C141 1_555 1_555
C147 C96 1_555 1_555
H98 C147 1_555 1_555
C150 C91 1_555 1_555
C154 C134 1_555 1_555
H104 C154 1_555 1_555
H106 C156 1_555 1_555
H121 C168 1_555 1_555
C172 C119 1_555 1_555
H126 C172 1_555 1_555
H129 N9 1_555 1_555
N14 C96 1_555 1_555
C119 N14 1_555 1_555
C134 N14 1_555 1_555
C147 C150 1_555 1_555
C154 C156 1_555 1_555
C168 C172 1_555 1_555
C4 C5 1_555 1_555
C5 C43 1_555 1_555
C9 C41 1_555 1_555
C33 C4 1_555 1_555
H11 C33 1_555 1_555
H15 C38 1_555 1_555
C41 C33 1_555 1_555
H17 C41 1_555 1_555
C43 C38 1_555 1_555
H18 C43 1_555 1_555
C47 C54 1_555 1_555
H25 C54 1_555 1_555
C60 C9 1_555 1_555
H31 C60 1_555 1_555
C63 C4 1_555 1_555
C67 C47 1_555 1_555
H37 C67 1_555 1_555
H39 C69 1_555 1_555
H54 C81 1_555 1_555
C85 C32 1_555 1_555
H59 C85 1_555 1_555
H62 N1 1_555 1_555
N6 C9 1_555 1_555
O34 Mn7_5 1_555 1_555
C32 N6 1_555 1_555
C47 N6 1_555 1_555
C60 C63 1_555 1_555
C67 C69 1_555 1_555
C81 C85 1_555 1_555
C80 H52 1_555 1_555
H53 C80 1_555 1_555
O34 C88 1_555 1_555
O21 Mn7_6 1_555 1_555
C88 C90 1_555 1_555
C90 C94 1_555 1_555
C93 C142 1_555 1_555
C94 H69 1_555 1_555
C97 C105 1_555 1_555
C99 H70 1_555 1_555
C100 C136 1_555 1_555
C101 H71 1_555 1_555
C102 C118 1_555 1_555
C105 C99 1_555 1_555
C106 C115 1_555 1_555
C108 C101 1_555 1_555
C109 C97 1_555 1_555
H73 C109 1_555 1_555
C110 C90 1_555 1_555
H74 C110 1_555 1_555
C111 O21 1_555 1_555
C114 C94 1_555 1_555
H76 C114 1_555 1_555
C115 C153 1_555 1_555
C117 C97 1_555 1_555
H77 C117 1_555 1_555
C118 C140 1_555 1_555
C132 C102 1_555 1_555
H87 C132 1_555 1_555
C135 C111 1_555 1_555
C136 H88 1_555 1_555
C140 H91 1_555 1_555
C142 H93 1_555 1_555
C143 C118 1_555 1_555
H94 C143 1_555 1_555
C144 C135 1_555 1_555
H95 C144 1_555 1_555
C145 C108 1_555 1_555
H96 C145 1_555 1_555
C146 C106 1_555 1_555
H97 C146 1_555 1_555
C152 C100 1_555 1_555
H102 C152 1_555 1_555
C153 C144 1_555 1_555
H103 C153 1_555 1_555
C157 C106 1_555 1_555
H107 C157 1_555 1_555
C159 C102 1_555 1_555
H109 C159 1_555 1_555
C160 C135 1_555 1_555
C161 C115 1_555 1_555
H111 C161 1_555 1_555
C162 C93 1_555 1_555
H112 C162 1_555 1_555
N15 C93 1_555 1_555
C99 C110 1_555 1_555
C100 N15 1_555 1_555
C101 C117 1_555 1_555
C105 C114 1_555 1_555
C108 N15 1_555 1_555
C109 C145 1_555 1_555
C136 C143 1_555 1_555
C140 C152 1_555 1_555
C142 C146 1_555 1_555
C157 C162 1_555 1_555
C160 C161 1_555 1_555
Mn7_7 O1 1_555 1_555
Mn10 O1 1_555 1_555
Mn3 O9 1_555 1_555
O1 C34 1_555 1_555
O8 Mn10 1_555 1_555
O10 Mn10 1_555 1_555
O14 Mn3 1_555 1_555
O15 Mn3 1_555 1_555
C2 C37 1_555 1_555
C8 C29 1_555 1_555
C29 C52 1_555 1_555
C37 H14 1_555 1_555
C40 C37 1_555 1_555
H16 C40 1_555 1_555
C44 H19 1_555 1_555
C46 O10 1_555 1_555
C50 H22 1_555 1_555
C51 C40 1_555 1_555
H23 C52 1_555 1_555
C61 C44 1_555 1_555
C62 C8 1_555 1_555
H32 C62 1_555 1_555
C76 C2 1_555 1_555
H46 C76 1_555 1_555
C77 C51 1_555 1_555
H47 C77 1_555 1_555
C82 O15 1_555 1_555
C83 H55 1_555 1_555
H56 C83 1_555 1_555
C86 C83 1_555 1_555
H60 C86 1_555 1_555
H61 C86 1_555 1_555
N4 C82 1_555 1_555
H65 N4 1_555 1_555
N5 C82 1_555 1_555
H66 N5 1_555 1_555
O31 Mn10 1_555 1_555
O37 Mn10 1_555 1_555
O39 Mn3 1_555 1_555
Mn3 O37 1_555 1_555
O14 C46 1_555 1_555
C2 C46 1_555 1_555
C50 C62 1_555 1_555
C51 C61 1_555 1_555
C76 C77 1_555 1_555
C83 N5 1_555 1_555
C86 N4 1_555 1_555
C78 H48 1_555 1_555
H49 C78 1_555 1_555
C79 C78 1_555 1_555
H50 C79 1_555 1_555
H51 C79 1_555 1_555
H58 C84 1_555 1_555
C87 N2 1_555 1_555
N2 C78 1_555 1_555
H63 N2 1_555 1_555
H64 N3 1_555 1_555
N8 C79 1_555 1_555
H67 N8 1_555 1_555
C84 N3 1_555 1_555
C87 N8 1_555 1_555
O31 C16 1_555 1_555
O39 C16 1_555 1_555
C11 C16 1_555 1_555
H38 C68 1_555 1_555
C71 C11 1_555 1_555
H41 C71 1_555 1_555
C68 C71 1_555 1_555
O27 H68 1_555 1_555
O28 C126 1_555 1_555
C112 C122 1_555 1_555
C122 H79 1_555 1_555
C123 C112 1_555 1_555
H80 C123 1_555 1_555
C126 O27 1_555 1_555
C112 C126 1_555 1_555
O11 C42 1_555 1_555
C17 H5 1_555 1_555
C20 C17 1_555 1_555
C26 C20 1_555 1_555
H8 C26 1_555 1_555
C42 C20 1_555 1_555
C64 C26 1_555 1_555
H34 C64 1_555 1_555

#END
