
###############################################################################
#
# This file contains modified crystal structure data generated from the
# MOF subset of the Cambridge Structural Database (CSD) v543 
# hosted by the Cambridge Crystallographic Data Centre (CCDC).
#
# This work is licensed under the Creative Commons
# Attribution-NonCommercial-ShareAlike 4.0 International License.
# To view a copy of this license, visit
# http://creativecommons.org/licenses/by-nc-sa/4.0/
# or send a letter to
# Creative Commons, PO Box 1866, Mountain View, CA 94042, USA.
#
# CIF created using the CSD Python API on 29 September 2022
# The structure has been converted into the P1 space group
# The structure has a 3D framework
# The original CSD entry DADNII is in the monoclinic crystal system
# The framework has been calculated to contain at least 10.0% void space
# The void calculation uses a probe of radius 1.32A, grid spacing 0.4
#
###############################################################################

data_DADNII
_chemical_formula_moiety         '(C32 H72 Eu8 Fe6 N8 O88 S16 4+)n'
_symmetry_cell_setting           triclinic
_symmetry_space_group_name_H-M   'P 1'
_symmetry_Int_Tables_number      1
_space_group_name_Hall           'P 1'
loop_
_symmetry_equiv_pos_site_id
_symmetry_equiv_pos_as_xyz
1 x,y,z
_cell_length_a                   15.5244(13)
_cell_length_b                   16.3987(13)
_cell_length_c                   12.6433(10)
_cell_angle_alpha                90
_cell_angle_beta                 93.0750(10)
_cell_angle_gamma                90
_cell_volume                     3214.1
loop_
_atom_site_label
_atom_site_type_symbol
_atom_site_fract_x
_atom_site_fract_y
_atom_site_fract_z
C1 C 0.8867(17) 0.7639(18) 0.667(2)
H1 H 0.8965 0.7232 0.7214
H2 H 0.8657 0.7383 0.6029
H3 H 0.9399 0.7916 0.6559
C2 C 0.7815(16) 0.9001(15) 0.651(2)
H4 H 0.7410 0.9250 0.6957
H5 H 0.8268 0.9381 0.6379
H6 H 0.7526 0.8848 0.5849
N1 N 0.8188(16) 0.8266(14) 0.704(2)
H7 H 0.7733 0.7964 0.7181
H8 H 0.8404 0.8446 0.7660
C1_2 C 0.1133(17) 0.7639(18) 0.833(2)
H1_2 H 0.1035 0.7232 0.7786
H2_2 H 0.1343 0.7383 0.8971
H3_2 H 0.0601 0.7916 0.8441
C2_2 C 0.2185(16) 0.9001(15) 0.849(2)
H4_2 H 0.2590 0.9250 0.8043
H5_2 H 0.1732 0.9381 0.8621
H6_2 H 0.2474 0.8848 0.9151
N1_2 N 0.1812(16) 0.8266(14) 0.796(2)
H7_2 H 0.2267 0.7964 0.7819
H8_2 H 0.1596 0.8446 0.7340
C1_3 C 0.3867(17) 0.2639(18) 0.667(2)
H1_3 H 0.3965 0.2232 0.7214
H2_3 H 0.3657 0.2383 0.6029
H3_3 H 0.4399 0.2916 0.6559
C2_3 C 0.2815(16) 0.4001(15) 0.651(2)
H4_3 H 0.2410 0.4250 0.6957
H5_3 H 0.3268 0.4381 0.6379
H6_3 H 0.2526 0.3848 0.5849
N1_3 N 0.3188(16) 0.3266(14) 0.704(2)
H7_3 H 0.2733 0.2964 0.7181
H8_3 H 0.3404 0.3446 0.7660
C1_4 C 0.6133(17) 0.2639(18) 0.833(2)
H1_4 H 0.6035 0.2232 0.7786
H2_4 H 0.6343 0.2383 0.8971
H3_4 H 0.5601 0.2916 0.8441
C2_4 C 0.7185(16) 0.4001(15) 0.849(2)
H4_4 H 0.7590 0.4250 0.8043
H5_4 H 0.6732 0.4381 0.8621
H6_4 H 0.7474 0.3848 0.9151
N1_4 N 0.6812(16) 0.3266(14) 0.796(2)
H7_4 H 0.7267 0.2964 0.7819
H8_4 H 0.6596 0.3446 0.7340
C1_5 C 0.1133(17) 0.2361(18) 0.333(2)
H1_5 H 0.1035 0.2768 0.2786
H2_5 H 0.1343 0.2617 0.3971
H3_5 H 0.0601 0.2084 0.3441
C2_5 C 0.2185(16) 0.0999(15) 0.349(2)
H4_5 H 0.2590 0.0750 0.3043
H5_5 H 0.1732 0.0619 0.3621
H6_5 H 0.2474 0.1152 0.4151
N1_5 N 0.1812(16) 0.1734(14) 0.296(2)
H7_5 H 0.2267 0.2036 0.2819
H8_5 H 0.1596 0.1554 0.2340
C1_6 C 0.8867(17) 0.2361(18) 0.167(2)
H1_6 H 0.8965 0.2768 0.2214
H2_6 H 0.8657 0.2617 0.1029
H3_6 H 0.9399 0.2084 0.1559
C2_6 C 0.7815(16) 0.0999(15) 0.151(2)
H4_6 H 0.7410 0.0750 0.1957
H5_6 H 0.8268 0.0619 0.1379
H6_6 H 0.7526 0.1152 0.0849
N1_6 N 0.8188(16) 0.1734(14) 0.204(2)
H7_6 H 0.7733 0.2036 0.2181
H8_6 H 0.8404 0.1554 0.2660
C1_7 C 0.6133(17) 0.7361(18) 0.333(2)
H1_7 H 0.6035 0.7768 0.2786
H2_7 H 0.6343 0.7617 0.3971
H3_7 H 0.5601 0.7084 0.3441
C2_7 C 0.7185(16) 0.5999(15) 0.349(2)
H4_7 H 0.7590 0.5750 0.3043
H5_7 H 0.6732 0.5619 0.3621
H6_7 H 0.7474 0.6152 0.4151
N1_7 N 0.6812(16) 0.6734(14) 0.296(2)
H7_7 H 0.7267 0.7036 0.2819
H8_7 H 0.6596 0.6554 0.2340
C1_8 C 0.3867(17) 0.7361(18) 0.167(2)
H1_8 H 0.3965 0.7768 0.2214
H2_8 H 0.3657 0.7617 0.1029
H3_8 H 0.4399 0.7084 0.1559
C2_8 C 0.2815(16) 0.5999(15) 0.151(2)
H4_8 H 0.2410 0.5750 0.1957
H5_8 H 0.3268 0.5619 0.1379
H6_8 H 0.2526 0.6152 0.0849
N1_8 N 0.3188(16) 0.6734(14) 0.204(2)
H7_8 H 0.2733 0.7036 0.2181
H8_8 H 0.3404 0.6554 0.2660
S2 S 0.18365(14) 0.34951(14) 0.0757(2)
O3 O 0.0863(4) 0.1432(4) 0.0766(4)
O7 O 0.0749(5) 0.0412(4) 0.1842(6)
O9 O 0.2548(4) 0.4001(4) 0.0408(7)
C3 C 0.0648(6) 0.0734(5) 0.0952(7)
O10 O 0.1315(6) 0.3889(7) 0.1526(8)
O11 O 0.2278(5) 0.2774(6) 0.1228(8)
Eu4 Eu 0.37803(3) 0.31101(3) 0.08853(3)
Eu1 Eu 0.12197(3) 0.18899(3) 0.91147(3)
Fe1 Fe 0.0000 0.04959(10) 0.7500
S1 S 0.10725(13) 0.21920(14) 0.66703(15)
O1 O 0.0545(4) 0.0622(4) 0.9011(5)
O2 O 0.1031(4) 0.1414(4) 0.7279(5)
O4 O 0.0242(4) 0.2338(4) 0.6085(5)
O5 O 0.1267(5) 0.3211(5) 0.9888(7)
O6 O 0.1220(4) 0.2824(4) 0.7495(5)
O8 O 0.1767(4) 0.2182(5) 0.5962(6)
C4 C 0.0368(10) 0.0220(10) 0.9969(10)
O26 O 0.2452(4) 0.0999(4) 0.9592(7)
O28 O 0.2722(5) 0.2226(6) 0.8772(8)
Fe2 Fe 0.0000 0.95041(10) 0.2500
H9 H 0.0806 0.9789 0.9997
O25 O 0.0749(5) 0.9588(4) 0.6842(6)
H10 H 0.9194 0.0211 0.0003
Fe1_2 Fe 1.0000 0.04959(10) 0.7500
Eu2 Eu 0.87803(3) 0.18899(3) 0.58853(3)
S3 S 0.89275(13) 0.21920(14) 0.83297(15)
S4 S 0.81635(14) 0.34951(14) 0.4243(2)
O15 O 0.8969(4) 0.1414(4) 0.7721(5)
O16 O 0.9758(4) 0.2338(4) 0.8915(5)
O17 O 0.8733(5) 0.3211(5) 0.5112(7)
O18 O 0.8780(4) 0.2824(4) 0.7505(5)
O19 O 0.8233(4) 0.2182(5) 0.9038(6)
O20 O 0.7452(4) 0.4001(4) 0.4592(7)
O21 O 0.8685(6) 0.3889(7) 0.3474(8)
O22 O 0.7722(5) 0.2774(6) 0.3772(8)
Eu5 Eu 0.62197(3) 0.31101(3) 0.41147(3)
O23 O 0.9455(4) 0.0622(4) 0.5989(5)
O24 O 0.9137(4) 0.1432(4) 0.4234(4)
O27 O 0.7548(4) 0.0999(4) 0.5408(7)
O29 O 0.7278(5) 0.2226(6) 0.6228(8)
O12 O 0.9455(4) 0.9378(4) 0.0989(5)
C6 C 0.9632(10) 0.9780(10) 0.0031(10)
Eu3 Eu 0.87803(3) 0.81101(3) 0.08853(3)
Fe2_2 Fe 1.0000 0.95041(10) 0.2500
O13 O 0.9137(4) 0.8568(4) 0.9234(4)
O14 O 0.9251(5) 0.9588(4) 0.8158(6)
C5 C 0.9352(6) 0.9266(5) 0.9048(7)
H10_2 H 0.0806 0.0211 0.4997
O12_2 O 0.0545(4) 0.9378(4) 0.4011(5)
O13_2 O 0.0863(4) 0.8568(4) 0.5766(4)
C5_2 C 0.0648(6) 0.9266(5) 0.5952(7)
C6_2 C 0.0368(10) 0.9780(10) 0.4969(10)
Eu3_2 Eu 0.12197(3) 0.81101(3) 0.41147(3)
O7_2 O 0.9251(5) 0.0412(4) 0.3158(6)
C3_2 C 0.9352(6) 0.0734(5) 0.4048(7)
C4_2 C 0.9632(10) 0.0220(10) 0.5031(10)
H9_2 H 0.9194 0.9789 0.5003
S2_2 S 0.68365(14) 0.84951(14) 0.0757(2)
O3_2 O 0.5863(4) 0.6432(4) 0.0766(4)
O7_3 O 0.5749(5) 0.5412(4) 0.1842(6)
O9_2 O 0.7548(4) 0.9001(4) 0.0408(7)
C3_3 C 0.5648(6) 0.5734(5) 0.0952(7)
O10_2 O 0.6315(6) 0.8889(7) 0.1526(8)
O11_2 O 0.7278(5) 0.7774(6) 0.1228(8)
O12_3 O 0.4455(4) 0.4378(4) 0.0989(5)
C6_3 C 0.4632(10) 0.4780(10) 0.0031(10)
H10_3 H 0.4194 0.5211 0.0003
Fe2_3 Fe 0.5000 0.45041(10) 0.2500
Eu1_2 Eu 0.62197(3) 0.68899(3) 0.91147(3)
Fe1_3 Fe 0.5000 0.54959(10) 0.7500
S1_2 S 0.60725(13) 0.71920(14) 0.66703(15)
O1_2 O 0.5545(4) 0.5622(4) 0.9011(5)
O2_2 O 0.6031(4) 0.6414(4) 0.7279(5)
O4_2 O 0.5242(4) 0.7338(4) 0.6085(5)
O5_2 O 0.6267(5) 0.8211(5) 0.9888(7)
O6_2 O 0.6220(4) 0.7824(4) 0.7495(5)
O8_2 O 0.6767(4) 0.7182(5) 0.5962(6)
C4_3 C 0.5368(10) 0.5220(10) 0.9969(10)
H9_3 H 0.5806 0.4789 0.9997
O13_3 O 0.4137(4) 0.3568(4) 0.9234(4)
O14_2 O 0.4251(5) 0.4588(4) 0.8158(6)
C5_3 C 0.4352(6) 0.4266(5) 0.9048(7)
Eu2_2 Eu 0.37803(3) 0.68899(3) 0.58853(3)
S3_2 S 0.39275(13) 0.71920(14) 0.83297(15)
S4_2 S 0.31635(14) 0.84951(14) 0.4243(2)
O15_2 O 0.3969(4) 0.6414(4) 0.7721(5)
O16_2 O 0.4758(4) 0.7338(4) 0.8915(5)
O17_2 O 0.3733(5) 0.8211(5) 0.5112(7)
O18_2 O 0.3780(4) 0.7824(4) 0.7505(5)
O19_2 O 0.3233(4) 0.7182(5) 0.9038(6)
O20_2 O 0.2452(4) 0.9001(4) 0.4592(7)
O21_2 O 0.3685(6) 0.8889(7) 0.3474(8)
O22_2 O 0.2722(5) 0.7774(6) 0.3772(8)
O23_2 O 0.4455(4) 0.5622(4) 0.5989(5)
O24_2 O 0.4137(4) 0.6432(4) 0.4234(4)
O25_2 O 0.5749(5) 0.4588(4) 0.6842(6)
O26_2 O 0.7452(4) 0.5999(4) 0.9592(7)
O27_2 O 0.2548(4) 0.5999(4) 0.5408(7)
O28_2 O 0.7722(5) 0.7226(6) 0.8772(8)
O29_2 O 0.2278(5) 0.7226(6) 0.6228(8)
O7_4 O 0.4251(5) 0.5412(4) 0.3158(6)
C3_4 C 0.4352(6) 0.5734(5) 0.4048(7)
C4_4 C 0.4632(10) 0.5220(10) 0.5031(10)
H9_4 H 0.4194 0.4789 0.5003
O12_4 O 0.5545(4) 0.4378(4) 0.4011(5)
O13_4 O 0.5863(4) 0.3568(4) 0.5766(4)
C5_4 C 0.5648(6) 0.4266(5) 0.5952(7)
C6_4 C 0.5368(10) 0.4780(10) 0.4969(10)
H10_4 H 0.5806 0.5211 0.4997
S3_3 S 0.10725(13) 0.78080(14) 0.16703(15)
S4_3 S 0.18365(14) 0.65049(14) 0.5757(2)
O15_3 O 0.1031(4) 0.8586(4) 0.2279(5)
O16_3 O 0.0242(4) 0.7662(4) 0.1085(5)
O17_3 O 0.1267(5) 0.6789(5) 0.4888(7)
O18_3 O 0.1220(4) 0.7176(4) 0.2495(5)
O19_3 O 0.1767(4) 0.7818(5) 0.0962(6)
O21_3 O 0.1315(6) 0.6111(7) 0.6526(8)
S1_3 S 0.89275(13) 0.78080(14) 0.33297(15)
O2_3 O 0.8969(4) 0.8586(4) 0.2721(5)
O4_3 O 0.9758(4) 0.7662(4) 0.3915(5)
O5_3 O 0.8733(5) 0.6789(5) 0.0112(7)
O6_3 O 0.8780(4) 0.7176(4) 0.2505(5)
O8_3 O 0.8233(4) 0.7818(5) 0.4038(6)
S2_3 S 0.81635(14) 0.65049(14) 0.9243(2)
O10_3 O 0.8685(6) 0.6111(7) 0.8474(8)
S1_4 S 0.39275(13) 0.28080(14) 0.33297(15)
O2_4 O 0.3969(4) 0.3586(4) 0.2721(5)
O4_4 O 0.4758(4) 0.2662(4) 0.3915(5)
O5_4 O 0.3733(5) 0.1789(5) 0.0112(7)
O6_4 O 0.3780(4) 0.2176(4) 0.2505(5)
O8_4 O 0.3233(4) 0.2818(5) 0.4038(6)
S3_4 S 0.60725(13) 0.28080(14) 0.16703(15)
S4_4 S 0.68365(14) 0.15049(14) 0.5757(2)
O15_4 O 0.6031(4) 0.3586(4) 0.2279(5)
O16_4 O 0.5242(4) 0.2662(4) 0.1085(5)
O17_4 O 0.6267(5) 0.1789(5) 0.4888(7)
O18_4 O 0.6220(4) 0.2176(4) 0.2495(5)
O19_4 O 0.6767(4) 0.2818(5) 0.0962(6)
O21_4 O 0.6315(6) 0.1111(7) 0.6526(8)
S2_4 S 0.31635(14) 0.15049(14) 0.9243(2)
O10_4 O 0.3685(6) 0.1111(7) 0.8474(8)
loop_
_geom_bond_atom_site_label_1
_geom_bond_atom_site_label_2
_geom_bond_site_symmetry_1
_geom_bond_site_symmetry_2
C1 H1 1_555 1_555
H2 C1 1_555 1_555
H3 C1 1_555 1_555
C2 H4 1_555 1_555
H5 C2 1_555 1_555
H6 C2 1_555 1_555
N1 C1 1_555 1_555
H7 N1 1_555 1_555
H8 N1 1_555 1_555
C2 N1 1_555 1_555
C1_2 H1_2 1_555 1_555
H2_2 C1_2 1_555 1_555
H3_2 C1_2 1_555 1_555
C2_2 H4_2 1_555 1_555
H5_2 C2_2 1_555 1_555
H6_2 C2_2 1_555 1_555
N1_2 C1_2 1_555 1_555
H7_2 N1_2 1_555 1_555
H8_2 N1_2 1_555 1_555
C2_2 N1_2 1_555 1_555
C1_3 H1_3 1_555 1_555
H2_3 C1_3 1_555 1_555
H3_3 C1_3 1_555 1_555
C2_3 H4_3 1_555 1_555
H5_3 C2_3 1_555 1_555
H6_3 C2_3 1_555 1_555
N1_3 C1_3 1_555 1_555
H7_3 N1_3 1_555 1_555
H8_3 N1_3 1_555 1_555
C2_3 N1_3 1_555 1_555
C1_4 H1_4 1_555 1_555
H2_4 C1_4 1_555 1_555
H3_4 C1_4 1_555 1_555
C2_4 H4_4 1_555 1_555
H5_4 C2_4 1_555 1_555
H6_4 C2_4 1_555 1_555
N1_4 C1_4 1_555 1_555
H7_4 N1_4 1_555 1_555
H8_4 N1_4 1_555 1_555
C2_4 N1_4 1_555 1_555
C1_5 H1_5 1_555 1_555
H2_5 C1_5 1_555 1_555
H3_5 C1_5 1_555 1_555
C2_5 H4_5 1_555 1_555
H5_5 C2_5 1_555 1_555
H6_5 C2_5 1_555 1_555
N1_5 C1_5 1_555 1_555
H7_5 N1_5 1_555 1_555
H8_5 N1_5 1_555 1_555
C2_5 N1_5 1_555 1_555
C1_6 H1_6 1_555 1_555
H2_6 C1_6 1_555 1_555
H3_6 C1_6 1_555 1_555
C2_6 H4_6 1_555 1_555
H5_6 C2_6 1_555 1_555
H6_6 C2_6 1_555 1_555
N1_6 C1_6 1_555 1_555
H7_6 N1_6 1_555 1_555
H8_6 N1_6 1_555 1_555
C2_6 N1_6 1_555 1_555
C1_7 H1_7 1_555 1_555
H2_7 C1_7 1_555 1_555
H3_7 C1_7 1_555 1_555
C2_7 H4_7 1_555 1_555
H5_7 C2_7 1_555 1_555
H6_7 C2_7 1_555 1_555
N1_7 C1_7 1_555 1_555
H7_7 N1_7 1_555 1_555
H8_7 N1_7 1_555 1_555
C2_7 N1_7 1_555 1_555
C1_8 H1_8 1_555 1_555
H2_8 C1_8 1_555 1_555
H3_8 C1_8 1_555 1_555
C2_8 H4_8 1_555 1_555
H5_8 C2_8 1_555 1_555
H6_8 C2_8 1_555 1_555
N1_8 C1_8 1_555 1_555
H7_8 N1_8 1_555 1_555
H8_8 N1_8 1_555 1_555
C2_8 N1_8 1_555 1_555
O7 C3 1_555 1_555
O9 S2 1_555 1_555
C3 O3 1_555 1_555
O10 S2 1_555 1_555
O11 S2 1_555 1_555
Eu4 O9 1_555 1_555
O11 Eu4 1_555 1_555
Eu1 O1 1_555 1_555
Fe1 O1 1_555 1_555
S1 O2 1_555 1_555
O1 C4 1_555 1_555
O2 Eu1 1_555 1_555
O4 S1 1_555 1_555
O5 Eu1 1_555 1_555
O6 Eu1 1_555 1_555
O8 S1 1_555 1_555
O26 Eu1 1_555 1_555
O28 Eu1 1_555 1_555
Fe1 O2 1_555 1_555
S1 O6 1_555 1_555
S3 O15 1_555 1_555
S4 O17 1_555 1_555
O15 Fe1_2 1_555 1_555
O17 Eu2 1_555 1_555
O18 Eu2 1_555 1_555
O19 S3 1_555 1_555
O20 S4 1_555 1_555
O21 S4 1_555 1_555
O22 S4 1_555 1_555
Eu5 O20 1_555 1_555
O23 Fe1_2 1_555 1_555
O24 Eu2 1_555 1_555
O27 Eu2 1_555 1_555
O29 Eu2 1_555 1_555
Eu2 O15 1_555 1_555
Eu2 O23 1_555 1_555
S3 O16 1_555 1_555
S3 O18 1_555 1_555
O22 Eu5 1_555 1_555
O12 C6 1_555 1_555
Eu3 O12 1_555 1_555
O12 Fe2_2 1_555 1_555
O13 C5 1_555 1_555
C5 O14 1_555 1_555
O12_2 C6_2 1_555 1_555
O13_2 C5_2 1_555 1_555
C5_2 O25 1_555 1_555
Eu3_2 O12_2 1_555 1_555
O12_2 Fe2 1_555 1_555
O13_2 Eu3_2 1_555 1_555
C5_2 C6_2 1_555 1_555
O23 C4_2 1_555 1_555
O7_2 C3_2 1_555 1_555
C3_2 O24 1_555 1_555
C4_2 C3_2 1_555 1_555
O7_3 C3_3 1_555 1_555
O9_2 S2_2 1_555 1_555
C3_3 O3_2 1_555 1_555
O10_2 S2_2 1_555 1_555
O11_2 S2_2 1_555 1_555
O12_3 C6_3 1_555 1_555
H10_3 C6_3 1_555 1_555
Eu4 O12_3 1_555 1_555
Eu3 O9_2 1_555 1_555
Fe2_3 O7_3 1_555 1_555
O11_2 Eu3 1_555 1_555
O12_3 Fe2_3 1_555 1_555
Eu1_2 O1_2 1_555 1_555
Fe1_3 O1_2 1_555 1_555
S1_2 O2_2 1_555 1_555
O1_2 C4_3 1_555 1_555
O2_2 Eu1_2 1_555 1_555
O4_2 S1_2 1_555 1_555
O5_2 Eu1_2 1_555 1_555
O6_2 Eu1_2 1_555 1_555
O8_2 S1_2 1_555 1_555
H9_3 C4_3 1_555 1_555
O13_3 C5_3 1_555 1_555
O14_2 Fe1_3 1_555 1_555
C5_3 O14_2 1_555 1_555
Eu2_2 O4_2 1_555 1_555
S3_2 O15_2 1_555 1_555
S4_2 O17_2 1_555 1_555
O15_2 Fe1_3 1_555 1_555
O16_2 Eu1_2 1_555 1_555
O17_2 Eu2_2 1_555 1_555
O18_2 Eu2_2 1_555 1_555
O19_2 S3_2 1_555 1_555
O20_2 S4_2 1_555 1_555
O21_2 S4_2 1_555 1_555
O22_2 S4_2 1_555 1_555
Eu3_2 O20_2 1_555 1_555
O23_2 Fe1_3 1_555 1_555
O24_2 Eu2_2 1_555 1_555
O25_2 Fe1_3 1_555 1_555
O26_2 Eu1_2 1_555 1_555
O27_2 Eu2_2 1_555 1_555
O28_2 Eu1_2 1_555 1_555
O29_2 Eu2_2 1_555 1_555
Fe1_3 O2_2 1_555 1_555
S1_2 O6_2 1_555 1_555
Eu2_2 O15_2 1_555 1_555
Eu2_2 O23_2 1_555 1_555
S3_2 O16_2 1_555 1_555
S3_2 O18_2 1_555 1_555
O22_2 Eu3_2 1_555 1_555
O23_2 C4_4 1_555 1_555
O7_4 C3_4 1_555 1_555
C3_4 O24_2 1_555 1_555
C4_4 C3_4 1_555 1_555
H9_4 C4_4 1_555 1_555
O12_4 C6_4 1_555 1_555
O13_4 C5_4 1_555 1_555
C5_4 O25_2 1_555 1_555
C6_4 C4_4 1_555 1_555
H10_4 C6_4 1_555 1_555
Eu5 O12_4 1_555 1_555
Fe2_3 O7_4 1_555 1_555
O12_4 Fe2_3 1_555 1_555
O13_4 Eu5 1_555 1_555
C5_4 C6_4 1_555 1_555
S3_3 O15_3 1_555 1_555
S4_3 O17_3 1_555 1_555
O15_3 Fe2 1_555 1_555
O17_3 Eu3_2 1_555 1_555
O18_3 Eu3_2 1_555 1_555
O19_3 S3_3 1_555 1_555
O27_2 S4_3 1_555 1_555
O21_3 S4_3 1_555 1_555
O29_2 S4_3 1_555 1_555
Eu3_2 O15_3 1_555 1_555
S3_3 O16_3 1_555 1_555
S3_3 O18_3 1_555 1_555
S1_3 O2_3 1_555 1_555
O2_3 Eu3 1_555 1_555
O4_3 S1_3 1_555 1_555
O5_3 Eu3 1_555 1_555
O6_3 Eu3 1_555 1_555
O8_3 S1_3 1_555 1_555
Fe2_2 O2_3 1_555 1_555
S1_3 O6_3 1_555 1_555
O26_2 S2_3 1_555 1_555
O10_3 S2_3 1_555 1_555
O28_2 S2_3 1_555 1_555
S1_4 O2_4 1_555 1_555
O2_4 Eu4 1_555 1_555
O4_4 S1_4 1_555 1_555
O5_4 Eu4 1_555 1_555
O6_4 Eu4 1_555 1_555
O8_4 S1_4 1_555 1_555
Eu5 O4_4 1_555 1_555
S3_4 O15_4 1_555 1_555
S4_4 O17_4 1_555 1_555
O15_4 Fe2_3 1_555 1_555
O16_4 Eu4 1_555 1_555
O17_4 Eu5 1_555 1_555
O18_4 Eu5 1_555 1_555
O19_4 S3_4 1_555 1_555
O27 S4_4 1_555 1_555
O21_4 S4_4 1_555 1_555
O29 S4_4 1_555 1_555
Fe2_3 O2_4 1_555 1_555
S1_4 O6_4 1_555 1_555
Eu5 O15_4 1_555 1_555
S3_4 O16_4 1_555 1_555
S3_4 O18_4 1_555 1_555
O26 S2_4 1_555 1_555
O10_4 S2_4 1_555 1_555
O28 S2_4 1_555 1_555

#END
