
###############################################################################
#
# This file contains modified crystal structure data generated from the
# MOF subset of the Cambridge Structural Database (CSD) v543 
# hosted by the Cambridge Crystallographic Data Centre (CCDC).
#
# This work is licensed under the Creative Commons
# Attribution-NonCommercial-ShareAlike 4.0 International License.
# To view a copy of this license, visit
# http://creativecommons.org/licenses/by-nc-sa/4.0/
# or send a letter to
# Creative Commons, PO Box 1866, Mountain View, CA 94042, USA.
#
# CIF created using the CSD Python API on 29 September 2022
# The structure has been converted into the P1 space group
# The structure has a 3D framework
# The original CSD entry DADTUY14 is in the rhombohedral crystal system
# The framework has been calculated to contain at least 10.0% void space
# The void calculation uses a probe of radius 1.32A, grid spacing 0.4
# The framework is charged, counterions have been retained in the structure
# H atom positions have been added when not included in the experimental data
#
###############################################################################

data_DADTUY14
_chemical_formula_moiety         '(C22 H22 Co9 O32 9-)n'
_symmetry_cell_setting           triclinic
_symmetry_space_group_name_H-M   'P 1'
_symmetry_Int_Tables_number      1
_space_group_name_Hall           'P 1'
loop_
_symmetry_equiv_pos_site_id
_symmetry_equiv_pos_as_xyz
1 x,y,z
_cell_length_a                   8.19700(10)
_cell_length_b                   8.19700(10)
_cell_length_c                   22.2487(6)
_cell_angle_alpha                90
_cell_angle_beta                 90
_cell_angle_gamma                120
_cell_volume                     1294.63
loop_
_atom_site_label
_atom_site_type_symbol
_atom_site_fract_x
_atom_site_fract_y
_atom_site_fract_z
Co1 Co 0.0000 0.0000 0.0000
O1 O 0.2168(3) 0.0081(3) 0.05343(10)
C2 C 0.1263(7) 0.3333(10) 0.0833
O4 O 0.1165(3) 0.4580(4) 0.11324(10)
Co4 Co 0.3333 0.6667 0.1667
H1 H 0.259174 0.333341 0.0832632
Co1_2 Co 0.0000 -0.0000 1.0000
O9 O 0.2087(4) 0.2168(3) 0.94657(10)
Co1_3 Co 0.0000 1.0000 0.0000
C1 C 0.2070(7) 0.8737(7) 0.0833
O2 O 0.3414(3) 0.8835(3) 0.11324(10)
H3 H 0.0741671 0.740826 0.0832632
Co1_4 Co 0.0000 1.0000 1.0000
O8 O 0.0081(3) 0.7913(4) 0.94657(10)
Co1_5 Co 1.0000 0.0000 0.0000
O3 O 0.9919(3) 0.2087(4) 0.05343(10)
Co1_6 Co 1.0000 -0.0000 1.0000
Co1_7 Co 1.0000 1.0000 0.0000
O5 O 0.7913(4) 0.7832(3) 0.05343(10)
C3 C 0.6667(10) 0.7930(7) 0.0833
O6 O 0.5420(4) 0.6586(3) 0.11324(10)
H2 H 0.666659 0.925833 0.0832632
Co1_8 Co 1.0000 1.0000 1.0000
O7 O 0.7832(3) 0.9919(3) 0.94657(10)
Co1_9 Co 0.0000 0.0000 0.5000
O1_2 O 0.0081(3) 0.2168(3) 0.44657(10)
C2_2 C 0.3333(10) 0.1263(7) 0.4167
O4_2 O 0.4580(4) 0.1165(3) 0.38676(10)
Co4_2 Co 0.6667 0.3333 0.3333
O9_2 O 0.2168(3) 0.2087(4) 0.55343(10)
H1_2 H 0.333341 0.259174 0.416737
Co1_10 Co 0.0000 1.0000 0.5000
O3_2 O 0.2087(4) 0.9919(3) 0.44657(10)
Co1_11 Co 1.0000 0.0000 0.5000
C1_2 C 0.8737(7) 0.2070(7) 0.4167
O2_2 O 0.8835(3) 0.3414(3) 0.38676(10)
O8_2 O 0.7913(4) 0.0081(3) 0.55343(10)
H3_2 H 0.740826 0.0741671 0.416737
Co1_12 Co 1.0000 1.0000 0.5000
O5_2 O 0.7832(3) 0.7913(4) 0.44657(10)
C3_2 C 0.7930(7) 0.6667(10) 0.4167
O6_2 O 0.6586(3) 0.5420(4) 0.38676(10)
O7_2 O 0.9919(3) 0.7832(3) 0.55343(10)
H2_2 H 0.925833 0.666659 0.416737
O7_3 O 0.4499(3) 0.3252(3) 0.27990(10)
O8_3 O 0.6748(3) 0.1246(4) 0.27990(10)
O9_3 O 0.8754(4) 0.5501(3) 0.27990(10)
C2_3 C -0.0000(10) 0.4596(7) 0.7500
O4_3 O 0.1246(4) 0.4499(3) 0.72010(10)
Co4_3 Co 0.3333 0.6667 0.6667
H1_3 H 7.73615e-06 0.592507 0.75007
Co1_13 Co 0.6667 0.3333 0.8333
O1_3 O 0.6748(3) 0.5501(3) 0.77990(10)
C1_3 C 0.5404(7) 0.5403(7) 0.7500
O2_3 O 0.5501(3) 0.6748(3) 0.72010(10)
O3_3 O 0.8754(4) 0.3252(3) 0.77990(10)
C2_4 C 1.0000(10) 0.4596(7) 0.7500
O5_3 O 0.4499(3) 0.1246(4) 0.77990(10)
C3_3 C 0.4597(7) 0.0000(10) 0.7500
O7_4 O 0.6586(3) 0.1165(3) 0.88676(10)
O8_4 O 0.4580(4) 0.3414(3) 0.88676(10)
O9_4 O 0.8835(3) 0.5420(4) 0.88676(10)
H1_4 H 1.00001 0.592507 0.75007
H2_3 H 0.5925 -7.73615e-06 0.75007
H3_3 H 0.407493 0.4075 0.75007
C3_4 C 0.4597(7) 1.0000(10) 0.7500
O6_3 O 0.3252(3) 0.8754(4) 0.72010(10)
H2_4 H 0.5925 0.999992 0.75007
O7_5 O 0.1165(3) 0.6586(3) 0.61324(10)
O8_5 O 0.3414(3) 0.4580(4) 0.61324(10)
O9_5 O 0.5420(4) 0.8835(3) 0.61324(10)
O7_6 O 0.3252(3) 0.4499(3) 0.22010(10)
O8_6 O 0.1246(4) 0.6748(3) 0.22010(10)
O9_6 O 0.5501(3) 0.8754(4) 0.22010(10)
C3_5 C 0.3333(10) 0.2070(7) 0.9167
H2_5 H 0.333341 0.0741671 0.916737
C1_4 C 0.7930(7) 0.1263(7) 0.9167
H3_4 H 0.925833 0.259174 0.916737
C2_5 C 0.8737(7) 0.6667(10) 0.9167
H1_5 H 0.740826 0.666659 0.916737
C3_6 C 0.2070(7) 0.3333(10) 0.5833
H2_6 H 0.0741671 0.333341 0.583263
C1_5 C 0.1263(7) 0.7930(7) 0.5833
H3_5 H 0.259174 0.925833 0.583263
C2_6 C 0.6667(10) 0.8737(7) 0.5833
H1_6 H 0.666659 0.740826 0.583263
C3_7 C 0.5403(7) -0.0000(10) 0.2500
H2_7 H 0.4075 7.73615e-06 0.24993
C1_6 C 0.4596(7) 0.4597(7) 0.2500
C2_7 C 0.0000(10) 0.5404(7) 0.2500
C3_8 C 0.5403(7) 1.0000(10) 0.2500
H1_7 H -7.73615e-06 0.407493 0.24993
H2_8 H 0.4075 1.00001 0.24993
H3_6 H 0.592507 0.5925 0.24993
C2_8 C 1.0000(10) 0.5404(7) 0.2500
H1_8 H 0.999992 0.407493 0.24993
loop_
_geom_bond_atom_site_label_1
_geom_bond_atom_site_label_2
_geom_bond_site_symmetry_1
_geom_bond_site_symmetry_2
Co1 O1 1_555 1_555
O4 C2 1_555 1_555
Co4 O4 1_555 1_555
C2 H1 1_555 1_555
O9 Co1_2 1_555 1_555
C1 O2 1_555 1_555
O2 Co4 1_555 1_555
C1 H3 1_555 1_555
O8 Co1_4 1_555 1_555
O3 Co1_5 1_555 1_555
O5 Co1_7 1_555 1_555
C3 O5 1_555 1_555
O6 C3 1_555 1_555
Co4 O6 1_555 1_555
C3 H2 1_555 1_555
O7 Co1_8 1_555 1_555
Co1_9 O1_2 1_555 1_555
O4_2 C2_2 1_555 1_555
Co4_2 O4_2 1_555 1_555
O9_2 Co1_9 1_555 1_555
C2_2 H1_2 1_555 1_555
O3_2 Co1_10 1_555 1_555
C1_2 O2_2 1_555 1_555
O2_2 Co4_2 1_555 1_555
O8_2 Co1_11 1_555 1_555
C1_2 H3_2 1_555 1_555
O5_2 Co1_12 1_555 1_555
C3_2 O5_2 1_555 1_555
O6_2 C3_2 1_555 1_555
Co4_2 O6_2 1_555 1_555
O7_2 Co1_12 1_555 1_555
C3_2 H2_2 1_555 1_555
O7_3 Co4_2 1_555 1_555
O8_3 Co4_2 1_555 1_555
O9_3 Co4_2 1_555 1_555
O4_3 C2_3 1_555 1_555
Co4_3 O4_3 1_555 1_555
C2_3 H1_3 1_555 1_555
Co1_13 O1_3 1_555 1_555
O1_3 C1_3 1_555 1_555
C1_3 O2_3 1_555 1_555
O2_3 Co4_3 1_555 1_555
O3_3 Co1_13 1_555 1_555
C2_4 O3_3 1_555 1_555
O5_3 Co1_13 1_555 1_555
C3_3 O5_3 1_555 1_555
O7_4 Co1_13 1_555 1_555
O8_4 Co1_13 1_555 1_555
O9_4 Co1_13 1_555 1_555
C2_4 H1_4 1_555 1_555
C3_3 H2_3 1_555 1_555
C1_3 H3_3 1_555 1_555
O6_3 C3_4 1_555 1_555
Co4_3 O6_3 1_555 1_555
C3_4 H2_4 1_555 1_555
O7_5 Co4_3 1_555 1_555
O8_5 Co4_3 1_555 1_555
O9_5 Co4_3 1_555 1_555
O7_6 Co4 1_555 1_555
O8_6 Co4 1_555 1_555
O9_6 Co4 1_555 1_555
C3_5 O9 1_555 1_555
O8_4 C3_5 1_555 1_555
C3_5 H2_5 1_555 1_555
C1_4 O7_4 1_555 1_555
C1_4 H3_4 1_555 1_555
O9_4 C2_5 1_555 1_555
C2_5 H1_5 1_555 1_555
C3_6 O9_2 1_555 1_555
O8_5 C3_6 1_555 1_555
C3_6 H2_6 1_555 1_555
C1_5 O7_5 1_555 1_555
C1_5 H3_5 1_555 1_555
O9_5 C2_6 1_555 1_555
C2_6 H1_6 1_555 1_555
O8_3 C3_7 1_555 1_555
C3_7 H2_7 1_555 1_555
O7_6 C1_6 1_555 1_555
C1_6 O7_3 1_555 1_555
C2_7 O8_6 1_555 1_555
C3_8 O9_6 1_555 1_555
C2_7 H1_7 1_555 1_555
C3_8 H2_8 1_555 1_555
C1_6 H3_6 1_555 1_555
O9_3 C2_8 1_555 1_555
C2_8 H1_8 1_555 1_555

#END
