
###############################################################################
#
# This file contains modified crystal structure data generated from the
# MOF subset of the Cambridge Structural Database (CSD) v543 
# hosted by the Cambridge Crystallographic Data Centre (CCDC).
#
# This work is licensed under the Creative Commons
# Attribution-NonCommercial-ShareAlike 4.0 International License.
# To view a copy of this license, visit
# http://creativecommons.org/licenses/by-nc-sa/4.0/
# or send a letter to
# Creative Commons, PO Box 1866, Mountain View, CA 94042, USA.
#
# CIF created using the CSD Python API on 29 September 2022
# The structure has been converted into the P1 space group
# The structure has a 3D framework
# The original CSD entry DADTUY05 is in the rhombohedral crystal system
# The framework has been calculated to contain at least 10.0% void space
# The void calculation uses a probe of radius 1.32A, grid spacing 0.4
#
###############################################################################

data_DADTUY05
_chemical_formula_moiety         '(C22 H22 Co7 O30)n'
_symmetry_cell_setting           triclinic
_symmetry_space_group_name_H-M   'P 1'
_symmetry_Int_Tables_number      1
_space_group_name_Hall           'P 1'
loop_
_symmetry_equiv_pos_site_id
_symmetry_equiv_pos_as_xyz
1 x,y,z
_cell_length_a                   8.1856(5)
_cell_length_b                   8.1856(5)
_cell_length_c                   22.0665(14)
_cell_angle_alpha                90
_cell_angle_beta                 90
_cell_angle_gamma                120
_cell_volume                     1280.46
loop_
_atom_site_label
_atom_site_type_symbol
_atom_site_fract_x
_atom_site_fract_y
_atom_site_fract_z
C3 C 0.0000(6) 0.5437(4) 0.2500
H3 H -0.0000 0.4301 0.2500
O6 O 0.1260(3) 0.6772(2) 0.22019(7)
Co4 Co 0.3333 0.6667 0.1667
Co1 Co 0.6667 0.3333 0.3333
O1 O 0.4488(2) 0.3228(2) 0.27981(7)
C1 C 0.4563(4) 0.4563(4) 0.2500
H1 H 0.5699 0.5699 0.2500
O2 O 0.3228(2) 0.4488(2) 0.22019(7)
O3 O 0.6772(2) 0.1260(3) 0.27981(7)
C2 C 0.5437(4) 0.0000(6) 0.2500
H2 H 0.4301 0.0000 0.2500
O5 O 0.8740(3) 0.5512(2) 0.27981(7)
C3_2 C 1.0000(6) 0.5437(4) 0.2500
H3_2 H 1.0000 0.4301 0.2500
O7 O 0.8845(2) 0.3439(2) 0.38686(7)
O8 O 0.6561(2) 0.5407(3) 0.38686(7)
O9 O 0.4593(3) 0.1155(2) 0.38686(7)
C2_2 C 0.5437(4) 1.0000(6) 0.2500
H2_2 H 0.4301 1.0000 0.2500
O4 O 0.5512(2) 0.8740(3) 0.22019(7)
O7_2 O 0.3439(2) 0.8845(2) 0.11314(7)
O8_2 O 0.5407(3) 0.6561(2) 0.11314(7)
O9_2 O 0.1155(2) 0.4593(3) 0.11314(7)
Co4_2 Co -0.0000 0.0000 0.5000
Co4_3 Co -0.0000 1.0000 0.5000
O6_2 O 0.7927(3) 0.0105(2) 0.55352(7)
Co4_4 Co 1.0000 0.0000 0.5000
Co1_2 Co 0.3334 0.6666 0.6666
O1_2 O 0.1155(2) 0.6561(2) 0.61314(7)
C1_2 C 0.1230(4) 0.7896(4) 0.5833
H1_2 H 0.2366 0.9032 0.5833
O3_2 O 0.3439(2) 0.4593(3) 0.61314(7)
C2_3 C 0.2104(4) 0.3333(6) 0.5833
H2_3 H 0.0968 0.3333 0.5833
O4_2 O 0.2179(2) 0.2073(3) 0.55352(7)
O5_2 O 0.5407(3) 0.8845(2) 0.61314(7)
C3_3 C 0.6667(6) 0.8770(4) 0.5833
H3_3 H 0.6667 0.7634 0.5833
Co4_5 Co 1.0000 1.0000 0.5000
O7_3 O 0.5512(2) 0.6772(2) 0.72019(7)
O8_3 O 0.3228(2) 0.8740(3) 0.72019(7)
O9_3 O 0.1260(3) 0.4488(2) 0.72019(7)
O2_2 O 0.9895(2) 0.7821(2) 0.55352(7)
O7_4 O 0.0105(2) 0.2179(2) 0.44648(7)
O8_4 O 0.2073(3) 0.9895(2) 0.44648(7)
O9_4 O 0.7821(2) 0.7927(3) 0.44648(7)
Co1_3 Co 0.0000 -0.0000 -0.0000
O7_5 O 0.2179(2) 0.0105(2) 0.05352(7)
Co1_4 Co 0.0000 -0.0000 1.0000
O5_3 O 0.2073(3) 0.2179(2) 0.94648(7)
C3_4 C 0.3333(6) 0.2104(4) 0.9167
H3_4 H 0.3333 0.0968 0.9167
O6_3 O 0.4593(3) 0.3439(2) 0.88686(7)
Co4_6 Co 0.6666 0.3334 0.8334
Co1_5 Co 0.0000 1.0000 -0.0000
Co1_6 Co 0.0000 1.0000 1.0000
O3_3 O 0.0105(2) 0.7927(3) 0.94648(7)
Co1_7 Co 1.0000 -0.0000 -0.0000
O8_5 O 0.9895(2) 0.2073(3) 0.05352(7)
Co1_8 Co 1.0000 -0.0000 1.0000
C1_3 C 0.7896(4) 0.1230(4) 0.9167
H1_3 H 0.9032 0.2366 0.9167
O2_3 O 0.6561(2) 0.1155(2) 0.88686(7)
Co1_9 Co 1.0000 1.0000 -0.0000
O9_5 O 0.7927(3) 0.7821(2) 0.05352(7)
Co1_10 Co 1.0000 1.0000 1.0000
O1_3 O 0.7821(2) 0.9895(2) 0.94648(7)
C2_4 C 0.8770(4) 0.6667(6) 0.9167
H2_4 H 0.7634 0.6667 0.9167
O4_3 O 0.8845(2) 0.5407(3) 0.88686(7)
O7_6 O 0.6772(2) 0.5512(2) 0.77981(7)
O8_6 O 0.8740(3) 0.3228(2) 0.77981(7)
O9_6 O 0.4488(2) 0.1260(3) 0.77981(7)
C2_5 C 0.4563(4) 0.0000(6) 0.7500
H2_5 H 0.5699 0.0000 0.7500
C1_4 C 0.5437(4) 0.5437(4) 0.7500
H1_4 H 0.4301 0.4301 0.7500
C2_6 C 0.4563(4) 1.0000(6) 0.7500
H2_6 H 0.5699 1.0000 0.7500
C3_5 C -0.0000(6) 0.4563(4) 0.7500
H3_5 H 0.0000 0.5699 0.7500
C3_6 C 1.0000(6) 0.4563(4) 0.7500
H3_6 H 1.0000 0.5699 0.7500
C1_5 C 0.8770(4) 0.2104(4) 0.4167
H1_5 H 0.7634 0.0968 0.4167
C2_7 C 0.7896(4) 0.6667(6) 0.4167
H2_7 H 0.9032 0.6667 0.4167
C3_7 C 0.3333(6) 0.1230(4) 0.4167
H3_7 H 0.3333 0.2366 0.4167
C2_8 C 0.1230(4) 0.3333(6) 0.0833
H2_8 H 0.2366 0.3333 0.0833
C1_6 C 0.2104(4) 0.8770(4) 0.0833
H1_6 H 0.0968 0.7634 0.0833
C3_8 C 0.6667(6) 0.7896(4) 0.0833
H3_8 H 0.6667 0.9032 0.0833
loop_
_geom_bond_atom_site_label_1
_geom_bond_atom_site_label_2
_geom_bond_site_symmetry_1
_geom_bond_site_symmetry_2
H3 C3 1_555 1_555
O6 C3 1_555 1_555
Co4 O6 1_555 1_555
Co1 O1 1_555 1_555
O1 C1 1_555 1_555
C1 H1 1_555 1_555
O2 C1 1_555 1_555
O3 Co1 1_555 1_555
C2 O3 1_555 1_555
H2 C2 1_555 1_555
O5 Co1 1_555 1_555
C3_2 O5 1_555 1_555
H3_2 C3_2 1_555 1_555
Co4 O2 1_555 1_555
O7 Co1 1_555 1_555
O8 Co1 1_555 1_555
O9 Co1 1_555 1_555
H2_2 C2_2 1_555 1_555
O4 C2_2 1_555 1_555
Co4 O4 1_555 1_555
O7_2 Co4 1_555 1_555
O8_2 Co4 1_555 1_555
O9_2 Co4 1_555 1_555
Co4_4 O6_2 1_555 1_555
Co1_2 O1_2 1_555 1_555
O1_2 C1_2 1_555 1_555
C1_2 H1_2 1_555 1_555
O3_2 Co1_2 1_555 1_555
C2_3 O3_2 1_555 1_555
H2_3 C2_3 1_555 1_555
O4_2 C2_3 1_555 1_555
O5_2 Co1_2 1_555 1_555
C3_3 O5_2 1_555 1_555
H3_3 C3_3 1_555 1_555
Co4_2 O4_2 1_555 1_555
O7_3 Co1_2 1_555 1_555
O8_3 Co1_2 1_555 1_555
O9_3 Co1_2 1_555 1_555
Co4_5 O2_2 1_555 1_555
O7_4 Co4_2 1_555 1_555
O8_4 Co4_3 1_555 1_555
O9_4 Co4_5 1_555 1_555
O7_5 Co1_3 1_555 1_555
O5_3 Co1_4 1_555 1_555
C3_4 O5_3 1_555 1_555
H3_4 C3_4 1_555 1_555
O6_3 C3_4 1_555 1_555
Co4_6 O6_3 1_555 1_555
O3_3 Co1_6 1_555 1_555
O8_5 Co1_7 1_555 1_555
C1_3 H1_3 1_555 1_555
O2_3 C1_3 1_555 1_555
Co4_6 O2_3 1_555 1_555
O9_5 Co1_9 1_555 1_555
Co1_10 O1_3 1_555 1_555
H2_4 C2_4 1_555 1_555
O4_3 C2_4 1_555 1_555
Co4_6 O4_3 1_555 1_555
O7_6 Co4_6 1_555 1_555
O8_6 Co4_6 1_555 1_555
O9_6 Co4_6 1_555 1_555
H2_5 C2_5 1_555 1_555
O9_6 C2_5 1_555 1_555
O7_3 C1_4 1_555 1_555
C1_4 H1_4 1_555 1_555
O7_6 C1_4 1_555 1_555
C2_6 O8_3 1_555 1_555
H2_6 C2_6 1_555 1_555
C3_5 O9_3 1_555 1_555
H3_5 C3_5 1_555 1_555
H3_6 C3_6 1_555 1_555
O8_6 C3_6 1_555 1_555
O7 C1_5 1_555 1_555
C1_5 H1_5 1_555 1_555
C2_7 O8 1_555 1_555
H2_7 C2_7 1_555 1_555
O9_4 C2_7 1_555 1_555
C3_7 O9 1_555 1_555
H3_7 C3_7 1_555 1_555
H2_8 C2_8 1_555 1_555
O9_2 C2_8 1_555 1_555
C1_6 H1_6 1_555 1_555
O7_2 C1_6 1_555 1_555
C3_8 O9_5 1_555 1_555
H3_8 C3_8 1_555 1_555
O8_2 C3_8 1_555 1_555

#END
