
###############################################################################
#
# This file contains modified crystal structure data generated from the
# MOF subset of the Cambridge Structural Database (CSD) v543 
# hosted by the Cambridge Crystallographic Data Centre (CCDC).
#
# This work is licensed under the Creative Commons
# Attribution-NonCommercial-ShareAlike 4.0 International License.
# To view a copy of this license, visit
# http://creativecommons.org/licenses/by-nc-sa/4.0/
# or send a letter to
# Creative Commons, PO Box 1866, Mountain View, CA 94042, USA.
#
# CIF created using the CSD Python API on 29 September 2022
# The structure has been converted into the P1 space group
# The structure has a 3D framework
# The original CSD entry DADVAG08 is in the rhombohedral crystal system
# The framework has been calculated to contain at least 10.0% void space
# The void calculation uses a probe of radius 1.32A, grid spacing 0.4
# The framework is charged, counterions have been retained in the structure
#
###############################################################################

data_DADVAG08
_chemical_formula_moiety         '(C22 H30 Ni9 O32 3-)n'
_symmetry_cell_setting           triclinic
_symmetry_space_group_name_H-M   'P 1'
_symmetry_Int_Tables_number      1
_space_group_name_Hall           'P 1'
loop_
_symmetry_equiv_pos_site_id
_symmetry_equiv_pos_as_xyz
1 x,y,z
_cell_length_a                   7.9580(6)
_cell_length_b                   7.9580(6)
_cell_length_c                   21.1236(17)
_cell_angle_alpha                90
_cell_angle_beta                 90
_cell_angle_gamma                120
_cell_volume                     1158.53
loop_
_atom_site_label
_atom_site_type_symbol
_atom_site_fract_x
_atom_site_fract_y
_atom_site_fract_z
Ni1 Ni 0.0000 0.0000 0.0000
C2 C 0.2138(7) 0.3334(10) 0.0833
O3 O 0.2214(3) 0.2020(4) 0.05381(11)
H2 H 0.109(6) 0.333(8) 0.0833
O4 O 0.3527(3) 0.4647(4) 0.11286(11)
Ni4 Ni 0.3333 0.6667 0.1667
Ni1_2 Ni -0.0000 0.0000 1.0000
O7 O 0.0194(3) 0.2214(3) 0.94619(11)
Ni1_3 Ni 0.0000 1.0000 0.0000
C1 C 0.1196(7) 0.7862(7) 0.0833
H1 H 0.224(6) 0.891(6) 0.0833
O2 O 0.1119(3) 0.6473(3) 0.11286(11)
Ni1_4 Ni 0.0000 1.0000 1.0000
O9 O 0.2020(4) 0.9806(3) 0.94619(11)
Ni1_5 Ni 1.0000 0.0000 0.0000
O5 O 0.7980(4) 0.0194(3) 0.05381(11)
Ni1_6 Ni 1.0000 0.0000 1.0000
Ni1_7 Ni 1.0000 1.0000 0.0000
O1 O 0.9806(3) 0.7786(3) 0.05381(11)
C3 C 0.6666(10) 0.8804(7) 0.0833
H3 H 0.667(8) 0.776(6) 0.0833
O6 O 0.5353(4) 0.8881(3) 0.11286(11)
Ni1_8 Ni 1.0000 1.0000 1.0000
O8 O 0.7786(3) 0.7980(4) 0.94619(11)
Ni1_9 Ni -0.0000 0.0000 0.5000
C1_2 C 0.3334(10) 0.2138(7) 0.4167
O1_2 O 0.2020(4) 0.2214(3) 0.44619(11)
H1_2 H 0.333(8) 0.109(6) 0.4167
O2_2 O 0.4647(4) 0.3527(3) 0.38714(11)
Ni3 Ni 0.6667 0.3333 0.3333
O9_2 O 0.2214(5) 0.0194(3) 0.55381(11)
Ni1_10 Ni 0.0000 1.0000 0.5000
O3_2 O 0.0194(5) 0.7980(4) 0.44619(11)
Ni1_11 Ni 1.0000 0.0000 0.5000
C3_2 C 0.7862(12) 0.1196(7) 0.4167
H3_2 H 0.891(10) 0.224(6) 0.4167
O6_2 O 0.6473(5) 0.1119(3) 0.38714(11)
O8_2 O 0.9806(5) 0.2020(4) 0.55381(11)
Ni1_12 Ni 1.0000 1.0000 0.5000
C2_2 C 0.8804(12) 0.6666(10) 0.4167
H2_2 H 0.776(10) 0.667(8) 0.4167
O4_2 O 0.8881(5) 0.5353(4) 0.38714(11)
O5_2 O 0.7786(5) 0.9806(3) 0.44619(11)
O7_2 O 0.7980(4) 0.7786(3) 0.55381(11)
H2_3 H 0.776(6) 0.666(8) 0.4166
H3_3 H 0.334(8) 0.109(6) 0.4166
O7_3 O 0.6861(3) 0.5547(3) 0.27952(11)
O8_3 O 0.4453(3) 0.1313(4) 0.27952(11)
O9_3 O 0.8687(4) 0.3139(3) 0.27952(11)
C1_3 C 0.0001(10) 0.5471(7) 0.7500
O2_3 O 0.1313(4) 0.6861(3) 0.72048(11)
Ni3_2 Ni 0.3333 0.6667 0.6667
Ni1_13 Ni 0.6667 0.3333 0.8333
C1_4 C 1.0001(10) 0.5471(7) 0.7500
O1_3 O 0.8687(4) 0.5547(3) 0.77952(11)
H1_3 H 1.000(8) 0.442(6) 0.7500
C2_3 C 0.5471(12) -0.0001(10) 0.7500
O3_3 O 0.6861(5) 0.1313(4) 0.77952(11)
H2_4 H 0.443(10) 0.000(8) 0.7500
C3_3 C 0.4529(12) 0.4529(7) 0.7500
O5_3 O 0.4453(5) 0.3139(3) 0.77952(11)
H3_4 H 0.558(10) 0.557(6) 0.7500
O6_3 O 0.3139(5) 0.4453(3) 0.72048(11)
O7_4 O 0.4647(4) 0.1119(3) 0.88714(11)
O8_4 O 0.6473(5) 0.5353(4) 0.88714(11)
O9_4 O 0.8881(5) 0.3527(3) 0.88714(11)
C2_4 C 0.5471(12) 0.9999(10) 0.7500
O4_3 O 0.5547(5) 0.8687(4) 0.72048(11)
H2_5 H 0.442(6) 1.000(8) 0.7500
H3_5 H 0.000(8) 0.443(6) 0.7500
O7_5 O 0.3527(3) 0.8881(3) 0.61286(11)
O8_5 O 0.1119(3) 0.4647(4) 0.61286(11)
O9_5 O 0.5353(4) 0.6473(3) 0.61286(11)
H1_4 H 0.666(8) 0.776(6) 0.0834
H2_6 H 0.109(10) 0.334(8) 0.0834
O7_6 O 0.1313(4) 0.4453(3) 0.22048(11)
O8_6 O 0.3139(5) 0.8687(4) 0.22048(11)
O9_6 O 0.5547(5) 0.6861(3) 0.22048(11)
C3_4 C 0.3334(10) 0.1196(7) 0.9167
H3_6 H 0.333(8) 0.224(6) 0.9167
C1_5 C 0.8804(7) 0.2138(7) 0.9167
H1_5 H 0.776(6) 0.109(6) 0.9167
C2_5 C 0.7862(7) 0.6666(10) 0.9167
H2_7 H 0.891(6) 0.667(8) 0.9167
C2_6 C 0.1196(12) 0.3334(10) 0.5833
H2_8 H 0.224(10) 0.333(8) 0.5833
C3_5 C 0.2138(12) 0.8804(7) 0.5833
H3_7 H 0.109(10) 0.776(6) 0.5833
C1_6 C 0.6666(10) 0.7862(7) 0.5833
H1_6 H 0.667(8) 0.891(6) 0.5833
H2_9 H 0.224(6) 0.334(8) 0.5834
H3_8 H 0.666(8) 0.891(6) 0.5834
C2_7 C 0.4529(12) 0.0001(10) 0.2500
C1_7 C -0.0001(10) 0.4529(7) 0.2500
H1_7 H 0.000(8) 0.558(6) 0.2500
C2_8 C 0.4529(12) 1.0001(10) 0.2500
H2_10 H 0.557(10) 1.000(8) 0.2500
C3_6 C 0.5471(12) 0.5471(7) 0.2500
H3_9 H 0.442(10) 0.443(6) 0.2500
C1_8 C 0.9999(10) 0.4529(7) 0.2500
H2_11 H 0.558(6) 0.000(8) 0.2500
H3_10 H 1.000(8) 0.557(6) 0.2500
H1_8 H 0.334(8) 0.224(6) 0.9166
H2_12 H 0.891(10) 0.666(8) 0.9166
loop_
_geom_bond_atom_site_label_1
_geom_bond_atom_site_label_2
_geom_bond_site_symmetry_1
_geom_bond_site_symmetry_2
C2 O3 1_555 1_555
O3 Ni1 1_555 1_555
H2 C2 1_555 1_555
O4 C2 1_555 1_555
Ni4 O4 1_555 1_555
O7 Ni1_2 1_555 1_555
H1 C1 1_555 1_555
O2 C1 1_555 1_555
Ni4 O2 1_555 1_555
O9 Ni1_4 1_555 1_555
O5 Ni1_5 1_555 1_555
Ni1_7 O1 1_555 1_555
H3 C3 1_555 1_555
O6 C3 1_555 1_555
Ni4 O6 1_555 1_555
O8 Ni1_8 1_555 1_555
Ni1_9 O1_2 1_555 1_555
C1_2 O1_2 1_555 1_555
H1_2 C1_2 1_555 1_555
O2_2 C1_2 1_555 1_555
Ni3 O2_2 1_555 1_555
O9_2 Ni1_9 1_555 1_555
O3_2 Ni1_10 1_555 1_555
H3_2 C3_2 1_555 1_555
O6_2 C3_2 1_555 1_555
Ni3 O6_2 1_555 1_555
O8_2 Ni1_11 1_555 1_555
H2_2 C2_2 1_555 1_555
O4_2 C2_2 1_555 1_555
O5_2 Ni1_12 1_555 1_555
Ni3 O4_2 1_555 1_555
O7_2 Ni1_12 1_555 1_555
H2_3 C2_2 1_555 1_555
H3_3 C1_2 1_555 1_555
O7_3 Ni3 1_555 1_555
O8_3 Ni3 1_555 1_555
O9_3 Ni3 1_555 1_555
O2_3 C1_3 1_555 1_555
Ni3_2 O2_3 1_555 1_555
Ni1_13 O1_3 1_555 1_555
C1_4 O1_3 1_555 1_555
H1_3 C1_4 1_555 1_555
C2_3 O3_3 1_555 1_555
O3_3 Ni1_13 1_555 1_555
H2_4 C2_3 1_555 1_555
C3_3 O5_3 1_555 1_555
O5_3 Ni1_13 1_555 1_555
H3_4 C3_3 1_555 1_555
O6_3 C3_3 1_555 1_555
Ni3_2 O6_3 1_555 1_555
O7_4 Ni1_13 1_555 1_555
O8_4 Ni1_13 1_555 1_555
O9_4 Ni1_13 1_555 1_555
O4_3 C2_4 1_555 1_555
Ni3_2 O4_3 1_555 1_555
H2_5 C2_4 1_555 1_555
H3_5 C1_3 1_555 1_555
O7_5 Ni3_2 1_555 1_555
O8_5 Ni3_2 1_555 1_555
O9_5 Ni3_2 1_555 1_555
H1_4 C3 1_555 1_555
H2_6 C2 1_555 1_555
O7_6 Ni4 1_555 1_555
O8_6 Ni4 1_555 1_555
O9_6 Ni4 1_555 1_555
H3_6 C3_4 1_555 1_555
O7_4 C3_4 1_555 1_555
H1_5 C1_5 1_555 1_555
O9_4 C1_5 1_555 1_555
C2_5 O8 1_555 1_555
H2_7 C2_5 1_555 1_555
O8_4 C2_5 1_555 1_555
H2_8 C2_6 1_555 1_555
O8_5 C2_6 1_555 1_555
H3_7 C3_5 1_555 1_555
O7_5 C3_5 1_555 1_555
C1_6 O7_2 1_555 1_555
H1_6 C1_6 1_555 1_555
O9_5 C1_6 1_555 1_555
H2_9 C2_6 1_555 1_555
H3_8 C1_6 1_555 1_555
O8_3 C2_7 1_555 1_555
C1_7 O7_6 1_555 1_555
H1_7 C1_7 1_555 1_555
C2_8 O8_6 1_555 1_555
H2_10 C2_8 1_555 1_555
C3_6 O9_6 1_555 1_555
H3_9 C3_6 1_555 1_555
O7_3 C3_6 1_555 1_555
O9_3 C1_8 1_555 1_555
H2_11 C2_7 1_555 1_555
H3_10 C1_8 1_555 1_555
H1_8 C3_4 1_555 1_555
H2_12 C2_5 1_555 1_555

#END
