
###############################################################################
#
# This file contains modified crystal structure data generated from the
# MOF subset of the Cambridge Structural Database (CSD) v543 
# hosted by the Cambridge Crystallographic Data Centre (CCDC).
#
# This work is licensed under the Creative Commons
# Attribution-NonCommercial-ShareAlike 4.0 International License.
# To view a copy of this license, visit
# http://creativecommons.org/licenses/by-nc-sa/4.0/
# or send a letter to
# Creative Commons, PO Box 1866, Mountain View, CA 94042, USA.
#
# CIF created using the CSD Python API on 29 September 2022
# The structure has been converted into the P1 space group
# The structure has a 3D framework
# The original CSD entry DADVAG10 is in the rhombohedral crystal system
# The framework has been calculated to contain at least 10.0% void space
# The void calculation uses a probe of radius 1.32A, grid spacing 0.4
# The framework is charged, counterions have been retained in the structure
#
###############################################################################

data_DADVAG10
_chemical_formula_moiety         '(C22 H22 Ni5 O28 3-)n'
_symmetry_cell_setting           triclinic
_symmetry_space_group_name_H-M   'P 1'
_symmetry_Int_Tables_number      1
_space_group_name_Hall           'P 1'
loop_
_symmetry_equiv_pos_site_id
_symmetry_equiv_pos_as_xyz
1 x,y,z
_cell_length_a                   8.1348(10)
_cell_length_b                   8.1348(10)
_cell_length_c                   22.176(4)
_cell_angle_alpha                90
_cell_angle_beta                 90
_cell_angle_gamma                120
_cell_volume                     1270.89
loop_
_atom_site_label
_atom_site_type_symbol
_atom_site_fract_x
_atom_site_fract_y
_atom_site_fract_z
Ni4 Ni -0.000000 0.000000 0.000000
Ni4_2 Ni -0.000000 0.000000 1.000000
Ni4_3 Ni -0.000000 1.000000 0.000000
O2 O 0.0063(4) 0.7922(3) 0.94676(10)
Ni4_4 Ni -0.000000 1.000000 1.000000
Ni4_5 Ni 1.000000 0.000000 0.000000
Ni4_6 Ni 1.000000 0.000000 1.000000
Ni4_7 Ni 1.000000 1.000000 0.000000
Ni1 Ni 0.666667 0.333333 0.833333
O1 O 0.8807(3) 0.5411(3) 0.88657(10)
C1 C 0.8725(5) 0.666667 0.916667
H1 H 0.7557(5) 0.666667 0.916667
O3 O 0.4589(3) 0.3396(4) 0.88657(10)
C2 C 0.333333 0.20583(50) 0.916667
H2 H 0.333333 0.08903(50) 0.916667
O4 O 0.2078(3) 0.2140(3) 0.94676(10)
O5 O 0.6604(4) 0.1193(3) 0.88657(10)
C3 C 0.79417(50) 0.1275(5) 0.916667
H3 H 0.91097(50) 0.2443(5) 0.916667
Ni4_8 Ni 1.000000 1.000000 1.000000
O7 O 0.4526(3) 0.1256(3) 0.78010(10)
O8 O 0.8744(3) 0.3271(4) 0.78010(10)
O9 O 0.6729(4) 0.5474(3) 0.78010(10)
O6 O 0.7860(3) 0.9937(4) 0.94676(10)
Ni4_9 Ni 0.000000 -0.000000 0.500000
Ni4_10 Ni 0.000000 1.000000 0.500000
O2_2 O 0.7922(3) 0.0063(4) 0.55324(10)
Ni4_11 Ni 1.000000 -0.000000 0.500000
Ni1_2 Ni 0.333333 0.666667 0.666667
O1_2 O 0.5411(3) 0.8807(3) 0.61343(10)
C1_2 C 0.666667 0.8725(5) 0.583333
H1_2 H 0.666667 0.7557(5) 0.583333
O3_2 O 0.3396(4) 0.4589(3) 0.61343(10)
C2_2 C 0.20583(50) 0.333333 0.583333
H2_2 H 0.08903(50) 0.333333 0.583333
O4_2 O 0.2140(3) 0.2078(3) 0.55324(10)
O5_2 O 0.1193(3) 0.6604(4) 0.61343(10)
C3_2 C 0.1275(5) 0.79417(50) 0.583333
H3_2 H 0.2443(5) 0.91097(50) 0.583333
Ni4_12 Ni 1.000000 1.000000 0.500000
O7_2 O 0.1256(3) 0.4526(3) 0.71990(10)
O8_2 O 0.3271(4) 0.8744(3) 0.71990(10)
O9_2 O 0.5474(3) 0.6729(4) 0.71990(10)
O6_2 O 0.9937(4) 0.7860(3) 0.55324(10)
C1_3 C 0.5392(5) 0.000000 0.250000
H1_3 H 0.4224(5) 0.000000 0.250000
O2_3 O 0.6729(4) 0.1256(3) 0.28010(10)
Ni4_13 Ni 0.666666 0.333334 0.333334
Ni1_3 Ni 0.333334 0.666666 0.166666
O1_3 O 0.5474(3) 0.8744(3) 0.21990(10)
C1_4 C 0.5392(5) 1.000000 0.250000
H1_4 H 0.4224(5) 1.000000 0.250000
O3_3 O 0.1256(3) 0.6729(4) 0.21990(10)
C2_3 C -0.000000 0.53917(50) 0.250000
H2_3 H -0.000000 0.42237(50) 0.250000
O5_3 O 0.3271(4) 0.4526(3) 0.21990(10)
C3_3 C 0.46083(50) 0.4608(5) 0.250000
H3_3 H 0.57763(50) 0.5776(5) 0.250000
O6_3 O 0.4526(3) 0.3271(4) 0.28010(10)
O7_3 O 0.1193(3) 0.4589(3) 0.11343(10)
O8_3 O 0.5411(3) 0.6604(4) 0.11343(10)
O9_3 O 0.3396(4) 0.8807(3) 0.11343(10)
C2_4 C 1.000000 0.53917(50) 0.250000
H2_4 H 1.000000 0.42237(50) 0.250000
O4_3 O 0.8744(3) 0.5474(3) 0.28010(10)
O9_4 O 0.2140(3) 0.0063(4) 0.05324(10)
O8_4 O 0.9937(4) 0.2078(3) 0.05324(10)
O7_4 O 0.7922(3) 0.7860(3) 0.05324(10)
O9_5 O 0.0063(4) 0.2140(3) 0.44676(10)
O8_5 O 0.2078(3) 0.9937(4) 0.44676(10)
O7_5 O 0.7860(3) 0.7922(3) 0.44676(10)
O7_6 O 0.4589(3) 0.1193(3) 0.38657(10)
O8_6 O 0.6604(4) 0.5411(3) 0.38657(10)
O9_6 O 0.8807(3) 0.3396(4) 0.38657(10)
C1_5 C 0.1275(5) 0.333333 0.083333
H1_5 H 0.2443(5) 0.333333 0.083333
C2_5 C 0.666667 0.79417(50) 0.083333
H2_5 H 0.666667 0.91097(50) 0.083333
C3_4 C 0.20583(50) 0.8725(5) 0.083333
H3_4 H 0.08903(50) 0.7557(5) 0.083333
C1_6 C 0.333333 0.1275(5) 0.416667
H1_6 H 0.333333 0.2443(5) 0.416667
C2_6 C 0.79417(50) 0.666667 0.416667
H2_6 H 0.91097(50) 0.666667 0.416667
C3_5 C 0.8725(5) 0.20583(50) 0.416667
H3_5 H 0.7557(5) 0.08903(50) 0.416667
C2_7 C 0.000000 0.46083(50) 0.750000
H2_7 H 0.000000 0.57763(50) 0.750000
C1_7 C 0.4608(5) -0.000000 0.750000
H1_7 H 0.5776(5) -0.000000 0.750000
C2_8 C 1.000000 0.46083(50) 0.750000
H2_8 H 1.000000 0.57763(50) 0.750000
C3_6 C 0.53917(50) 0.5392(5) 0.750000
H3_6 H 0.42237(50) 0.4224(5) 0.750000
C1_8 C 0.4608(5) 1.000000 0.750000
H1_8 H 0.5776(5) 1.000000 0.750000
loop_
_geom_bond_atom_site_label_1
_geom_bond_atom_site_label_2
_geom_bond_site_symmetry_1
_geom_bond_site_symmetry_2
Ni4_4 O2 1_555 1_555
Ni1 O1 1_555 1_555
O1 C1 1_555 1_555
C1 H1 1_555 1_555
O3 Ni1 1_555 1_555
C2 O3 1_555 1_555
H2 C2 1_555 1_555
O4 C2 1_555 1_555
O5 Ni1 1_555 1_555
C3 O5 1_555 1_555
H3 C3 1_555 1_555
Ni4_2 O4 1_555 1_555
O7 Ni1 1_555 1_555
O8 Ni1 1_555 1_555
O9 Ni1 1_555 1_555
Ni4_8 O6 1_555 1_555
Ni4_11 O2_2 1_555 1_555
Ni1_2 O1_2 1_555 1_555
O1_2 C1_2 1_555 1_555
C1_2 H1_2 1_555 1_555
O3_2 Ni1_2 1_555 1_555
C2_2 O3_2 1_555 1_555
H2_2 C2_2 1_555 1_555
O4_2 C2_2 1_555 1_555
O5_2 Ni1_2 1_555 1_555
C3_2 O5_2 1_555 1_555
H3_2 C3_2 1_555 1_555
Ni4_9 O4_2 1_555 1_555
O7_2 Ni1_2 1_555 1_555
O8_2 Ni1_2 1_555 1_555
O9_2 Ni1_2 1_555 1_555
Ni4_12 O6_2 1_555 1_555
C1_3 H1_3 1_555 1_555
O2_3 C1_3 1_555 1_555
Ni4_13 O2_3 1_555 1_555
Ni1_3 O1_3 1_555 1_555
O1_3 C1_4 1_555 1_555
C1_4 H1_4 1_555 1_555
O3_3 Ni1_3 1_555 1_555
C2_3 O3_3 1_555 1_555
H2_3 C2_3 1_555 1_555
O5_3 Ni1_3 1_555 1_555
C3_3 O5_3 1_555 1_555
H3_3 C3_3 1_555 1_555
O6_3 C3_3 1_555 1_555
Ni4_13 O6_3 1_555 1_555
O7_3 Ni1_3 1_555 1_555
O8_3 Ni1_3 1_555 1_555
O9_3 Ni1_3 1_555 1_555
H2_4 C2_4 1_555 1_555
O4_3 C2_4 1_555 1_555
Ni4_13 O4_3 1_555 1_555
O9_4 Ni4 1_555 1_555
O8_4 Ni4_5 1_555 1_555
O7_4 Ni4_7 1_555 1_555
O9_5 Ni4_9 1_555 1_555
O8_5 Ni4_10 1_555 1_555
O7_5 Ni4_12 1_555 1_555
O7_6 Ni4_13 1_555 1_555
O8_6 Ni4_13 1_555 1_555
O9_6 Ni4_13 1_555 1_555
O7_3 C1_5 1_555 1_555
C1_5 H1_5 1_555 1_555
C2_5 O8_3 1_555 1_555
H2_5 C2_5 1_555 1_555
O7_4 C2_5 1_555 1_555
C3_4 O9_3 1_555 1_555
H3_4 C3_4 1_555 1_555
O7_6 C1_6 1_555 1_555
C1_6 H1_6 1_555 1_555
C2_6 O8_6 1_555 1_555
H2_6 C2_6 1_555 1_555
O7_5 C2_6 1_555 1_555
C3_5 O9_6 1_555 1_555
H3_5 C3_5 1_555 1_555
H2_7 C2_7 1_555 1_555
O7_2 C2_7 1_555 1_555
O7 C1_7 1_555 1_555
C1_7 H1_7 1_555 1_555
C2_8 O8 1_555 1_555
H2_8 C2_8 1_555 1_555
C3_6 O9 1_555 1_555
H3_6 C3_6 1_555 1_555
O9_2 C3_6 1_555 1_555
C1_8 H1_8 1_555 1_555
O8_2 C1_8 1_555 1_555

#END
