
###############################################################################
#
# This file contains modified crystal structure data generated from the
# MOF subset of the Cambridge Structural Database (CSD) v543 
# hosted by the Cambridge Crystallographic Data Centre (CCDC).
#
# This work is licensed under the Creative Commons
# Attribution-NonCommercial-ShareAlike 4.0 International License.
# To view a copy of this license, visit
# http://creativecommons.org/licenses/by-nc-sa/4.0/
# or send a letter to
# Creative Commons, PO Box 1866, Mountain View, CA 94042, USA.
#
# CIF created using the CSD Python API on 29 September 2022
# The structure has been converted into the P1 space group
# The structure has a 3D framework
# The original CSD entry DADVAG02 is in the rhombohedral crystal system
# The framework has been calculated to contain at least 10.0% void space
# The void calculation uses a probe of radius 1.32A, grid spacing 0.4
# The framework is charged, counterions have been retained in the structure
#
###############################################################################

data_DADVAG02
_chemical_formula_moiety         '(C22 H22 Ni7 O30 3-)n'
_symmetry_cell_setting           triclinic
_symmetry_space_group_name_H-M   'P 1'
_symmetry_Int_Tables_number      1
_space_group_name_Hall           'P 1'
loop_
_symmetry_equiv_pos_site_id
_symmetry_equiv_pos_as_xyz
1 x,y,z
_cell_length_a                   8.0878(7)
_cell_length_b                   8.0878(7)
_cell_length_c                   21.9107(15)
_cell_angle_alpha                90
_cell_angle_beta                 90
_cell_angle_gamma                120
_cell_volume                     1241.22
loop_
_atom_site_label
_atom_site_type_symbol
_atom_site_fract_x
_atom_site_fract_y
_atom_site_fract_z
C3 C -0.0000(8) 0.5400(6) 0.2500
H3 H -0.0000 0.4250 0.2500
O6 O 0.1260(5) 0.6728(3) 0.21966(9)
Ni4 Ni 0.3333 0.6667 0.1667
Ni1 Ni 0.6667 0.3333 0.3333
O1 O 0.4532(4) 0.3272(3) 0.28034(9)
C1 C 0.4600(6) 0.4600(6) 0.2500
H1 H 0.5750 0.5750 0.2500
O2 O 0.3272(3) 0.4532(4) 0.21966(9)
O3 O 0.6728(3) 0.1260(5) 0.28034(9)
C2 C 0.5400(6) 0.0000(8) 0.2500
H2 H 0.4250 0.0000 0.2500
O5 O 0.8740(5) 0.5468(4) 0.28034(9)
C3_2 C 1.0000(8) 0.5400(6) 0.2500
H3_2 H 1.0000 0.4250 0.2500
O7 O 0.8801(4) 0.3395(3) 0.38633(9)
O8 O 0.6605(3) 0.5407(5) 0.38633(9)
O9 O 0.4593(5) 0.1199(4) 0.38633(9)
C2_2 C 0.5400(6) 1.0000(8) 0.2500
H2_2 H 0.4250 1.0000 0.2500
O4 O 0.5468(4) 0.8740(5) 0.21966(9)
O7_2 O 0.3395(3) 0.8801(4) 0.11367(9)
O8_2 O 0.5407(5) 0.6605(3) 0.11367(9)
O9_2 O 0.1199(4) 0.4593(5) 0.11367(9)
Ni4_2 Ni -0.0000 0.0000 0.5000
Ni4_3 Ni -0.0000 1.0000 0.5000
O6_2 O 0.7927(5) 0.0061(3) 0.55299(9)
Ni4_4 Ni 1.0000 0.0000 0.5000
Ni1_2 Ni 0.3334 0.6666 0.6666
O1_2 O 0.1199(4) 0.6605(3) 0.61367(9)
C1_2 C 0.1267(6) 0.7933(6) 0.5833
H1_2 H 0.2417 0.9083 0.5833
O3_2 O 0.3395(3) 0.4593(5) 0.61367(9)
C2_3 C 0.2067(6) 0.3333(8) 0.5833
H2_3 H 0.0917 0.3333 0.5833
O4_2 O 0.2135(4) 0.2073(5) 0.55299(9)
O5_2 O 0.5407(5) 0.8801(4) 0.61367(9)
C3_3 C 0.6667(8) 0.8733(6) 0.5833
H3_3 H 0.6667 0.7583 0.5833
Ni4_5 Ni 1.0000 1.0000 0.5000
O7_3 O 0.5468(4) 0.6728(3) 0.71966(9)
O8_3 O 0.3272(3) 0.8740(5) 0.71966(9)
O9_3 O 0.1260(5) 0.4532(4) 0.71966(9)
O2_2 O 0.9939(3) 0.7865(4) 0.55299(9)
O7_4 O 0.0061(3) 0.2135(4) 0.44701(9)
O8_4 O 0.2073(5) 0.9939(3) 0.44701(9)
O9_4 O 0.7865(4) 0.7927(5) 0.44701(9)
Ni1_3 Ni 0.0000 -0.0000 -0.0000
O7_5 O 0.2135(4) 0.0061(3) 0.05299(9)
Ni1_4 Ni 0.0000 -0.0000 1.0000
O5_3 O 0.2073(5) 0.2135(4) 0.94701(9)
C3_4 C 0.3333(8) 0.2067(6) 0.9167
H3_4 H 0.3333 0.0917 0.9167
O6_3 O 0.4593(5) 0.3395(3) 0.88633(9)
Ni4_6 Ni 0.6666 0.3334 0.8334
Ni1_5 Ni 0.0000 1.0000 -0.0000
Ni1_6 Ni 0.0000 1.0000 1.0000
O3_3 O 0.0061(3) 0.7927(5) 0.94701(9)
Ni1_7 Ni 1.0000 -0.0000 -0.0000
O8_5 O 0.9939(3) 0.2073(5) 0.05299(9)
Ni1_8 Ni 1.0000 -0.0000 1.0000
C1_3 C 0.7933(6) 0.1267(6) 0.9167
H1_3 H 0.9083 0.2417 0.9167
O2_3 O 0.6605(3) 0.1199(4) 0.88633(9)
Ni1_9 Ni 1.0000 1.0000 -0.0000
O9_5 O 0.7927(5) 0.7865(4) 0.05299(9)
Ni1_10 Ni 1.0000 1.0000 1.0000
O1_3 O 0.7865(4) 0.9939(3) 0.94701(9)
C2_4 C 0.8733(6) 0.6667(8) 0.9167
H2_4 H 0.7583 0.6667 0.9167
O4_3 O 0.8801(4) 0.5407(5) 0.88633(9)
O7_6 O 0.6728(3) 0.5468(4) 0.78034(9)
O8_6 O 0.8740(5) 0.3272(3) 0.78034(9)
O9_6 O 0.4532(4) 0.1260(5) 0.78034(9)
C2_5 C 0.4600(6) 0.0000(8) 0.7500
H2_5 H 0.5750 0.0000 0.7500
C1_4 C 0.5400(6) 0.5400(6) 0.7500
H1_4 H 0.4250 0.4250 0.7500
C2_6 C 0.4600(6) 1.0000(8) 0.7500
H2_6 H 0.5750 1.0000 0.7500
C3_5 C 0.0000(8) 0.4600(6) 0.7500
H3_5 H 0.0000 0.5750 0.7500
C3_6 C 1.0000(8) 0.4600(6) 0.7500
H3_6 H 1.0000 0.5750 0.7500
C1_5 C 0.8733(6) 0.2067(6) 0.4167
H1_5 H 0.7583 0.0917 0.4167
C2_7 C 0.7933(6) 0.6667(8) 0.4167
H2_7 H 0.9083 0.6667 0.4167
C3_7 C 0.3333(8) 0.1267(6) 0.4167
H3_7 H 0.3333 0.2417 0.4167
C2_8 C 0.1267(6) 0.3333(8) 0.0833
H2_8 H 0.2417 0.3333 0.0833
C1_6 C 0.2067(6) 0.8733(6) 0.0833
H1_6 H 0.0917 0.7583 0.0833
C3_8 C 0.6667(8) 0.7933(6) 0.0833
H3_8 H 0.6667 0.9083 0.0833
loop_
_geom_bond_atom_site_label_1
_geom_bond_atom_site_label_2
_geom_bond_site_symmetry_1
_geom_bond_site_symmetry_2
H3 C3 1_555 1_555
O6 C3 1_555 1_555
Ni4 O6 1_555 1_555
Ni1 O1 1_555 1_555
O1 C1 1_555 1_555
C1 H1 1_555 1_555
O2 C1 1_555 1_555
O3 Ni1 1_555 1_555
C2 O3 1_555 1_555
H2 C2 1_555 1_555
O5 Ni1 1_555 1_555
C3_2 O5 1_555 1_555
H3_2 C3_2 1_555 1_555
Ni4 O2 1_555 1_555
O7 Ni1 1_555 1_555
O8 Ni1 1_555 1_555
O9 Ni1 1_555 1_555
H2_2 C2_2 1_555 1_555
O4 C2_2 1_555 1_555
Ni4 O4 1_555 1_555
O7_2 Ni4 1_555 1_555
O8_2 Ni4 1_555 1_555
O9_2 Ni4 1_555 1_555
Ni4_4 O6_2 1_555 1_555
Ni1_2 O1_2 1_555 1_555
O1_2 C1_2 1_555 1_555
C1_2 H1_2 1_555 1_555
O3_2 Ni1_2 1_555 1_555
C2_3 O3_2 1_555 1_555
H2_3 C2_3 1_555 1_555
O4_2 C2_3 1_555 1_555
O5_2 Ni1_2 1_555 1_555
C3_3 O5_2 1_555 1_555
H3_3 C3_3 1_555 1_555
Ni4_2 O4_2 1_555 1_555
O7_3 Ni1_2 1_555 1_555
O8_3 Ni1_2 1_555 1_555
O9_3 Ni1_2 1_555 1_555
Ni4_5 O2_2 1_555 1_555
O7_4 Ni4_2 1_555 1_555
O8_4 Ni4_3 1_555 1_555
O9_4 Ni4_5 1_555 1_555
O7_5 Ni1_3 1_555 1_555
O5_3 Ni1_4 1_555 1_555
C3_4 O5_3 1_555 1_555
H3_4 C3_4 1_555 1_555
O6_3 C3_4 1_555 1_555
Ni4_6 O6_3 1_555 1_555
O3_3 Ni1_6 1_555 1_555
O8_5 Ni1_7 1_555 1_555
C1_3 H1_3 1_555 1_555
O2_3 C1_3 1_555 1_555
Ni4_6 O2_3 1_555 1_555
O9_5 Ni1_9 1_555 1_555
Ni1_10 O1_3 1_555 1_555
H2_4 C2_4 1_555 1_555
O4_3 C2_4 1_555 1_555
Ni4_6 O4_3 1_555 1_555
O7_6 Ni4_6 1_555 1_555
O8_6 Ni4_6 1_555 1_555
O9_6 Ni4_6 1_555 1_555
H2_5 C2_5 1_555 1_555
O9_6 C2_5 1_555 1_555
O7_3 C1_4 1_555 1_555
C1_4 H1_4 1_555 1_555
O7_6 C1_4 1_555 1_555
C2_6 O8_3 1_555 1_555
H2_6 C2_6 1_555 1_555
C3_5 O9_3 1_555 1_555
H3_5 C3_5 1_555 1_555
H3_6 C3_6 1_555 1_555
O8_6 C3_6 1_555 1_555
O7 C1_5 1_555 1_555
C1_5 H1_5 1_555 1_555
C2_7 O8 1_555 1_555
H2_7 C2_7 1_555 1_555
O9_4 C2_7 1_555 1_555
C3_7 O9 1_555 1_555
H3_7 C3_7 1_555 1_555
H2_8 C2_8 1_555 1_555
O9_2 C2_8 1_555 1_555
C1_6 H1_6 1_555 1_555
O7_2 C1_6 1_555 1_555
C3_8 O9_5 1_555 1_555
H3_8 C3_8 1_555 1_555
O8_2 C3_8 1_555 1_555

#END
