
###############################################################################
#
# This file contains modified crystal structure data generated from the
# MOF subset of the Cambridge Structural Database (CSD) v543 
# hosted by the Cambridge Crystallographic Data Centre (CCDC).
#
# This work is licensed under the Creative Commons
# Attribution-NonCommercial-ShareAlike 4.0 International License.
# To view a copy of this license, visit
# http://creativecommons.org/licenses/by-nc-sa/4.0/
# or send a letter to
# Creative Commons, PO Box 1866, Mountain View, CA 94042, USA.
#
# CIF created using the CSD Python API on 29 September 2022
# The structure has been converted into the P1 space group
# The structure has a 3D framework
# The original CSD entry DAFTEM is in the monoclinic crystal system
# The framework has been calculated to contain at least 10.0% void space
# The void calculation uses a probe of radius 1.32A, grid spacing 0.4
#
###############################################################################

data_DAFTEM
_chemical_formula_moiety         '(C40 H24 N12 O12 Zn12)n'
_symmetry_cell_setting           triclinic
_symmetry_space_group_name_H-M   'P 1'
_symmetry_Int_Tables_number      1
_space_group_name_Hall           'P 1'
loop_
_symmetry_equiv_pos_site_id
_symmetry_equiv_pos_as_xyz
1 x,y,z
_cell_length_a                   9.10541
_cell_length_b                   19.38000
_cell_length_c                   8.30000
_cell_angle_alpha                90
_cell_angle_beta                 111.2
_cell_angle_gamma                90
_cell_volume                     1365.52
loop_
_atom_site_label
_atom_site_type_symbol
_atom_site_fract_x
_atom_site_fract_y
_atom_site_fract_z
_atom_site_U_iso_or_equiv
_atom_site_thermal_displace_type
Zn5 Zn 0.000 0.000 0.000 0.0127 Uiso
Zn8 Zn 0.341098 0.038538 0.466883 0.0127 Uiso
Zn5_2 Zn 0.000 -0.000 1.000 0.0127 Uiso
Zn6 Zn 0.658902 0.538538 0.033117 0.0127 Uiso
O9 O 0.176368 0.542781 0.007862 0.0127 Uiso
N7 N 0.509314 0.454541 0.240728 0.0127 Uiso
Zn1 Zn 0.000 0.500 0.500 0.0127 Uiso
Zn2 Zn 0.341098 0.461462 0.966883 0.0127 Uiso
O1 O 0.045420 0.398251 0.580918 0.0127 Uiso
O2 O 0.202150 0.376940 0.859145 0.0127 Uiso
O4 O 0.009881 0.018994 0.749301 0.0127 Uiso
N1 N 0.247533 0.534623 0.576028 0.0127 Uiso
N2 N 0.346212 0.520743 0.736787 0.0127 Uiso
N3 N 0.490686 0.545459 0.759272 0.0127 Uiso
C1 C 0.108148 0.358364 0.709241 0.0127 Uiso
C2 C 0.071134 0.280810 0.683912 0.0127 Uiso
C6 C 0.119148 0.158984 0.779928 0.0127 Uiso
H3 H 0.179988 0.119561 0.876203 0.0127 Uiso
C7 C 0.157823 0.230655 0.803965 0.0127 Uiso
H4 H 0.252124 0.248715 0.918460 0.0127 Uiso
C9 C 0.329990 0.568163 0.495002 0.0127 Uiso
H5 H 0.276821 0.583901 0.362027 0.0127 Uiso
C10 C 0.481755 0.575181 0.609239 0.0127 Uiso
H6 H 0.582220 0.599381 0.594507 0.0127 Uiso
O7 O 0.176368 0.957219 0.507862 0.0127 Uiso
C13 C 0.052165 0.741739 0.462244 0.0127 Uiso
H7 H 0.116899 0.701956 0.555676 0.0127 Uiso
C14 C 0.090888 0.813411 0.485764 0.0127 Uiso
H8 H 0.186875 0.831367 0.598709 0.0127 Uiso
C15 C 0.006795 0.863514 0.363256 0.0127 Uiso
C18 C 0.058721 0.939159 0.373853 0.0127 Uiso
Zn5_3 Zn 0.000 1.000 0.000 0.0127 Uiso
O12 O 0.009881 0.481006 0.249301 0.0127 Uiso
Zn5_4 Zn 0.000 1.000 1.000 0.0127 Uiso
Zn5_5 Zn 1.000 0.000 0.000 0.0127 Uiso
Zn5_6 Zn 1.000 -0.000 1.000 0.0127 Uiso
Zn1_2 Zn 1.000 0.500 0.500 0.0127 Uiso
O3 O 0.823632 0.042781 0.492138 0.0127 Uiso
C3 C 0.947835 0.258261 0.537756 0.0127 Uiso
H1 H 0.883101 0.298044 0.444324 0.0127 Uiso
C4 C 0.909112 0.186589 0.514236 0.0127 Uiso
H2 H 0.813125 0.168633 0.401291 0.0127 Uiso
C5 C 0.993205 0.136486 0.636744 0.0127 Uiso
C8 C 0.941279 0.060841 0.626147 0.0127 Uiso
O5 O 0.954580 0.601749 0.419082 0.0127 Uiso
O6 O 0.797850 0.623060 0.140855 0.0127 Uiso
O8 O 0.990119 0.981006 0.250699 0.0127 Uiso
N4 N 0.752467 0.465377 0.423972 0.0127 Uiso
N5 N 0.653788 0.479257 0.263213 0.0127 Uiso
C11 C 0.891852 0.641636 0.290759 0.0127 Uiso
C12 C 0.928866 0.719190 0.316088 0.0127 Uiso
C16 C 0.880852 0.841016 0.220072 0.0127 Uiso
H9 H 0.820012 0.880439 0.123797 0.0127 Uiso
C17 C 0.842177 0.769345 0.196035 0.0127 Uiso
H10 H 0.747876 0.751285 0.081540 0.0127 Uiso
C19 C 0.670010 0.431837 0.504998 0.0127 Uiso
H11 H 0.723179 0.416099 0.637973 0.0127 Uiso
C20 C 0.518245 0.424819 0.390761 0.0127 Uiso
H12 H 0.417780 0.400619 0.405493 0.0127 Uiso
Zn5_7 Zn 1.000 1.000 0.000 0.0127 Uiso
O11 O 0.990119 0.518994 0.750699 0.0127 Uiso
Zn5_8 Zn 1.000 1.000 1.000 0.0127 Uiso
O10 O 0.823632 0.457219 0.992138 0.0127 Uiso
Zn7 Zn 0.658902 0.961462 0.533117 0.0127 Uiso
O5_2 O 0.045420 0.101749 0.080918 0.0127 Uiso
O6_2 O 0.202150 0.123060 0.359145 0.0127 Uiso
C11_2 C 0.108148 0.141636 0.209241 0.0127 Uiso
C12_2 C 0.071134 0.219190 0.183912 0.0127 Uiso
C16_2 C 0.119148 0.341016 0.279928 0.0127 Uiso
H9_2 H 0.179988 0.380439 0.376203 0.0127 Uiso
C17_2 C 0.157823 0.269345 0.303965 0.0127 Uiso
H10_2 H 0.252124 0.251285 0.418460 0.0127 Uiso
N8 N 0.509314 0.045459 0.740728 0.0127 Uiso
H1_2 H 0.116899 0.798044 0.055676 0.0127 Uiso
H2_2 H 0.186875 0.668633 0.098709 0.0127 Uiso
N4_2 N 0.247533 0.965377 0.076028 0.0127 Uiso
N5_2 N 0.346212 0.979257 0.236787 0.0127 Uiso
N6 N 0.490686 0.954541 0.259272 0.0127 Uiso
C20_2 C 0.481755 0.924819 0.109239 0.0127 Uiso
H12_2 H 0.582220 0.900619 0.094507 0.0127 Uiso
C3_2 C 0.052165 0.758261 0.962244 0.0127 Uiso
C4_2 C 0.090888 0.686589 0.985764 0.0127 Uiso
C5_2 C 0.006795 0.636486 0.863256 0.0127 Uiso
C8_2 C 0.058721 0.560841 0.873853 0.0127 Uiso
C19_2 C 0.329990 0.931837 0.995002 0.0127 Uiso
H11_2 H 0.276821 0.916099 0.862027 0.0127 Uiso
C9_2 C 0.670010 0.068163 0.004998 0.0127 Uiso
H5_2 H 0.723179 0.083901 0.137973 0.0127 Uiso
C13_2 C 0.947835 0.241739 0.037756 0.0127 Uiso
C14_2 C 0.909112 0.313411 0.014236 0.0127 Uiso
C15_2 C 0.993205 0.363514 0.136744 0.0127 Uiso
C18_2 C 0.941279 0.439159 0.126147 0.0127 Uiso
N1_2 N 0.752467 0.034623 0.923972 0.0127 Uiso
N2_2 N 0.653788 0.020743 0.763213 0.0127 Uiso
C10_2 C 0.518245 0.075181 0.890761 0.0127 Uiso
H6_2 H 0.417780 0.099381 0.905493 0.0127 Uiso
H7_2 H 0.883101 0.201956 0.944324 0.0127 Uiso
H8_2 H 0.813125 0.331367 0.901291 0.0127 Uiso
O1_2 O 0.954580 0.898251 0.919082 0.0127 Uiso
O2_2 O 0.797850 0.876940 0.640855 0.0127 Uiso
C1_2 C 0.891852 0.858364 0.790759 0.0127 Uiso
C2_2 C 0.928866 0.780810 0.816088 0.0127 Uiso
C6_2 C 0.880852 0.658984 0.720072 0.0127 Uiso
H3_2 H 0.820012 0.619561 0.623797 0.0127 Uiso
C7_2 C 0.842177 0.730655 0.696035 0.0127 Uiso
H4_2 H 0.747876 0.748715 0.581540 0.0127 Uiso
loop_
_geom_bond_atom_site_label_1
_geom_bond_atom_site_label_2
_geom_bond_site_symmetry_1
_geom_bond_site_symmetry_2
Zn1 O1 1_555 1_555
Zn2 O2 1_555 1_555
O1 C1 1_555 1_555
O2 C1 1_555 1_555
N1 Zn1 1_555 1_555
N2 Zn2 1_555 1_555
N3 N2 1_555 1_555
C1 C2 1_555 1_555
H3 C6 1_555 1_555
C7 C2 1_555 1_555
H4 C7 1_555 1_555
C9 N1 1_555 1_555
H5 C9 1_555 1_555
C10 N3 1_555 1_555
H6 C10 1_555 1_555
O7 C18 1_555 1_555
H7 C13 1_555 1_555
C14 C13 1_555 1_555
H8 C14 1_555 1_555
C15 C14 1_555 1_555
C18 C15 1_555 1_555
Zn5_2 O4 1_555 1_555
O12 Zn1 1_555 1_555
N1 N2 1_555 1_555
C6 C7 1_555 1_555
C9 C10 1_555 1_555
O3 C8 1_555 1_555
C3 H1 1_555 1_555
C4 C3 1_555 1_555
H2 C4 1_555 1_555
C5 C4 1_555 1_555
C8 C5 1_555 1_555
Zn6 O6 1_555 1_555
O5 Zn1_2 1_555 1_555
O6 C11 1_555 1_555
N4 Zn1_2 1_555 1_555
N5 Zn6 1_555 1_555
N7 N5 1_555 1_555
C11 O5 1_555 1_555
C12 C11 1_555 1_555
H9 C16 1_555 1_555
C17 C12 1_555 1_555
H10 C17 1_555 1_555
C19 N4 1_555 1_555
H11 C19 1_555 1_555
C20 N7 1_555 1_555
H12 C20 1_555 1_555
Zn5_7 O8 1_555 1_555
O11 Zn1_2 1_555 1_555
N4 N5 1_555 1_555
C16 C17 1_555 1_555
C19 C20 1_555 1_555
Zn8 O6_2 1_555 1_555
O5_2 Zn5 1_555 1_555
O6_2 C11_2 1_555 1_555
C11_2 O5_2 1_555 1_555
C12_2 C11_2 1_555 1_555
H9_2 C16_2 1_555 1_555
C17_2 C12_2 1_555 1_555
H10_2 C17_2 1_555 1_555
N8 Zn8 1_555 1_555
C16_2 C17_2 1_555 1_555
N4_2 Zn5_3 1_555 1_555
N6 N5_2 1_555 1_555
C20_2 N6 1_555 1_555
H12_2 C20_2 1_555 1_555
Zn7 N6 1_555 1_555
N4_2 N5_2 1_555 1_555
C4_2 C3_2 1_555 1_555
C5_2 C4_2 1_555 1_555
C8_2 C5_2 1_555 1_555
H11_2 C19_2 1_555 1_555
H5_2 C9_2 1_555 1_555
C14_2 C13_2 1_555 1_555
C15_2 C14_2 1_555 1_555
C18_2 C15_2 1_555 1_555
N1_2 Zn5_6 1_555 1_555
N8 N2_2 1_555 1_555
C10_2 N8 1_555 1_555
H6_2 C10_2 1_555 1_555
N1_2 N2_2 1_555 1_555
Zn5_8 O1_2 1_555 1_555
Zn7 O2_2 1_555 1_555
O1_2 C1_2 1_555 1_555
O2_2 C1_2 1_555 1_555
C1_2 C2_2 1_555 1_555
H3_2 C6_2 1_555 1_555
C7_2 C2_2 1_555 1_555
H4_2 C7_2 1_555 1_555
C6_2 C7_2 1_555 1_555

#END
