
###############################################################################
#
# This file contains modified crystal structure data generated from the
# MOF subset of the Cambridge Structural Database (CSD) v543 
# hosted by the Cambridge Crystallographic Data Centre (CCDC).
#
# This work is licensed under the Creative Commons
# Attribution-NonCommercial-ShareAlike 4.0 International License.
# To view a copy of this license, visit
# http://creativecommons.org/licenses/by-nc-sa/4.0/
# or send a letter to
# Creative Commons, PO Box 1866, Mountain View, CA 94042, USA.
#
# CIF created using the CSD Python API on 29 September 2022
# The structure has been converted into the P1 space group
# The structure has a 3D framework
# The original CSD entry DAFTIQ is in the triclinic crystal system
# The original CSD entry DAFTIQ is in a Sohncke space group
# The framework has been calculated to contain at least 10.0% void space
# The void calculation uses a probe of radius 1.32A, grid spacing 0.4
#
###############################################################################

data_DAFTIQ
_chemical_formula_moiety         '(C40 H24 N12 O16 Zn5)n'
_symmetry_cell_setting           triclinic
_symmetry_space_group_name_H-M   'P 1'
_symmetry_Int_Tables_number      1
_space_group_name_Hall           'P 1'
loop_
_symmetry_equiv_pos_site_id
_symmetry_equiv_pos_as_xyz
1 x,y,z
_cell_length_a                   11.0826
_cell_length_b                   9.1504
_cell_length_c                   19.49644
_cell_angle_alpha                93.72728
_cell_angle_beta                 91.30884
_cell_angle_gamma                117.6215
_cell_volume                     1744.96
loop_
_atom_site_label
_atom_site_type_symbol
_atom_site_fract_x
_atom_site_fract_y
_atom_site_fract_z
_atom_site_U_iso_or_equiv
_atom_site_thermal_displace_type
Zn8 Zn 0.145481 0.705709 0.011829 0.0127 Uiso
N16 N 0.039952 0.345154 0.026462 0.0127 Uiso
Zn11 Zn 0.816276 0.261610 0.991070 0.0127 Uiso
Zn1 Zn 0.416870 0.329720 0.529326 0.0127 Uiso
Zn3 Zn 0.600257 0.656962 0.476176 0.0127 Uiso
O1 O 0.468239 0.092924 0.602912 0.0127 Uiso
O2 O 0.348022 0.241965 0.625948 0.0127 Uiso
N1 N 0.626030 0.216366 0.443569 0.0127 Uiso
N2 N 0.585856 0.333647 0.464017 0.0127 Uiso
N3 N 0.668524 0.472453 0.434174 0.0127 Uiso
C1 C 0.396637 0.143192 0.642299 0.0127 Uiso
C2 C 0.362400 0.088369 0.713608 0.0127 Uiso
C6 C 0.236829 0.082115 0.819788 0.0127 Uiso
H3 H 0.164763 0.113742 0.851294 0.0127 Uiso
C7 C 0.274701 0.136365 0.754591 0.0127 Uiso
H4 H 0.233949 0.213406 0.733612 0.0127 Uiso
C9 C 0.735229 0.280940 0.400658 0.0127 Uiso
H5 H 0.784931 0.208205 0.377566 0.0127 Uiso
C10 C 0.762108 0.442241 0.394863 0.0127 Uiso
H6 H 0.840073 0.537266 0.366269 0.0127 Uiso
N4 N 0.889776 0.754956 0.987086 0.0127 Uiso
N5 N 0.944857 0.650413 0.995717 0.0127 Uiso
N6 N 0.840731 0.492312 0.982058 0.0127 Uiso
C11 C 0.750180 0.662670 0.968395 0.0127 Uiso
H7 H 0.683843 0.720837 0.959769 0.0127 Uiso
C12 C 0.718913 0.497197 0.965059 0.0127 Uiso
H8 H 0.620254 0.383404 0.952738 0.0127 Uiso
O5 O 0.535025 0.940231 0.400518 0.0127 Uiso
O6 O 0.680400 0.820504 0.384311 0.0127 Uiso
N7 N 0.374919 0.743038 0.5425 0.0127 Uiso
N8 N 0.425529 0.635425 0.522743 0.0127 Uiso
N9 N 0.347135 0.492472 0.550820 0.0127 Uiso
C13 C 0.616575 0.900491 0.363679 0.0127 Uiso
C14 C 0.643108 0.946696 0.290893 0.0127 Uiso
C18 C 0.776075 0.974249 0.186200 0.0127 Uiso
H11 H 0.862093 0.965743 0.156932 0.0127 Uiso
C19 C 0.749564 0.928424 0.253255 0.0127 Uiso
H12 H 0.812255 0.880061 0.277895 0.0127 Uiso
C21 C 0.263263 0.668204 0.583047 0.0127 Uiso
H13 H 0.206720 0.733026 0.605493 0.0127 Uiso
C22 C 0.245587 0.510113 0.588042 0.0127 Uiso
H14 H 0.170241 0.409917 0.615293 0.0127 Uiso
O10 O 0.803133 0.112770 0.888090 0.0127 Uiso
O12 O 0.713118 0.034931 0.527712 0.0127 Uiso
C23 C 0.872398 0.044907 0.855334 0.0127 Uiso
C24 C 0.860919 0.034224 0.776799 0.0127 Uiso
C27 C 0.823717 0.008171 0.630001 0.0127 Uiso
C28 C 0.761166 0.085521 0.674296 0.0127 Uiso
H17 H 0.690634 0.125122 0.650788 0.0127 Uiso
C29 C 0.779268 0.097987 0.746859 0.0127 Uiso
H18 H 0.726701 0.153477 0.781435 0.0127 Uiso
O15 O 0.252005 0.138951 0.458656 0.0127 Uiso
C33 C 0.113470 0.036377 0.248405 0.0127 Uiso
H19 H 0.069506 0.107856 0.225068 0.0127 Uiso
C34 C 0.136028 0.053218 0.320796 0.0127 Uiso
H20 H 0.112219 0.139056 0.355646 0.0127 Uiso
C38 C 0.255316 0.010727 0.424905 0.0127 Uiso
Zn12 Zn 0.492761 0.987640 0.491327 0.0127 Uiso
O24 O 0.804581 0.855034 0.519127 0.0127 Uiso
O3 O 0.246145 0.787541 0.927672 0.0127 Uiso
O4 O 0.180407 0.988418 0.954225 0.0127 Uiso
C3 C 0.412357 0.986219 0.739572 0.0127 Uiso
H1 H 0.481317 0.950650 0.707653 0.0127 Uiso
C4 C 0.373560 0.930705 0.804665 0.0127 Uiso
H2 H 0.411213 0.850082 0.824562 0.0127 Uiso
C5 C 0.284696 0.977587 0.845082 0.0127 Uiso
C8 C 0.233871 0.915685 0.913391 0.0127 Uiso
O9 O 0.946958 0.989989 0.883741 0.0127 Uiso
C25 C 0.928996 0.963470 0.732315 0.0127 Uiso
H15 H 0.995785 0.916643 0.754245 0.0127 Uiso
C26 C 0.910690 0.951221 0.659655 0.0127 Uiso
H16 H 0.959478 0.892362 0.624327 0.0127 Uiso
C30 C 0.779313 0.966934 0.553414 0.0127 Uiso
O13 O 0.072142 0.983761 0.098247 0.0127 Uiso
O14 O 0.211641 0.853241 0.093634 0.0127 Uiso
O16 O 0.311264 0.929134 0.448951 0.0127 Uiso
C31 C 0.142298 0.922653 0.126345 0.0127 Uiso
C32 C 0.151507 0.931024 0.204601 0.0127 Uiso
C35 C 0.198476 0.966379 0.350308 0.0127 Uiso
C36 C 0.227514 0.853088 0.306820 0.0127 Uiso
H21 H 0.279234 0.790473 0.331051 0.0127 Uiso
C37 C 0.204103 0.835293 0.234427 0.0127 Uiso
H22 H 0.231545 0.751803 0.199975 0.0127 Uiso
N10 N 0.081797 0.233783 0.043663 0.0127 Uiso
N12 N 0.140623 0.499904 0.050936 0.0127 Uiso
C39 C 0.208885 0.317091 0.079640 0.0127 Uiso
H23 H 0.261898 0.251032 0.099257 0.0127 Uiso
C40 C 0.246643 0.485170 0.084402 0.0127 Uiso
H24 H 0.340170 0.594282 0.108439 0.0127 Uiso
Zn17 Zn 0.989652 0.000314 0.004306 0.0127 Uiso
O7 O 0.707341 0.215403 0.070538 0.0127 Uiso
O8 O 0.809517 0.050759 0.046896 0.0127 Uiso
C15 C 0.562930 0.011181 0.259959 0.0127 Uiso
H9 H 0.480494 0.023919 0.290066 0.0127 Uiso
C16 C 0.588206 0.057085 0.19291 0.0127 Uiso
H10 H 0.526366 0.107462 0.168673 0.0127 Uiso
C17 C 0.696455 0.040133 0.156001 0.0127 Uiso
C20 C 0.738225 0.102428 0.087163 0.0127 Uiso
loop_
_geom_bond_atom_site_label_1
_geom_bond_atom_site_label_2
_geom_bond_site_symmetry_1
_geom_bond_site_symmetry_2
Zn1 O2 1_555 1_555
Zn3 N3 1_555 1_555
Zn11 N6 1_555 1_555
O1 C1 1_555 1_555
O2 C1 1_555 1_555
N2 Zn1 1_555 1_555
N3 N2 1_555 1_555
C1 C2 1_555 1_555
H3 C6 1_555 1_555
C7 C2 1_555 1_555
H4 C7 1_555 1_555
C9 N1 1_555 1_555
H5 C9 1_555 1_555
C10 N3 1_555 1_555
H6 C10 1_555 1_555
N4 N5 1_555 1_555
N5 N6 1_555 1_555
N6 C12 1_555 1_555
C11 N4 1_555 1_555
H7 C11 1_555 1_555
C12 C11 1_555 1_555
H8 C12 1_555 1_555
O5 C13 1_555 1_555
O6 Zn3 1_555 1_555
N7 N8 1_555 1_555
N8 Zn3 1_555 1_555
N9 Zn1 1_555 1_555
C13 O6 1_555 1_555
C14 C13 1_555 1_555
H11 C18 1_555 1_555
C19 C14 1_555 1_555
H12 C19 1_555 1_555
C21 N7 1_555 1_555
H13 C21 1_555 1_555
C22 N9 1_555 1_555
H14 C22 1_555 1_555
O10 Zn11 1_555 1_555
C23 O10 1_555 1_555
C24 C23 1_555 1_555
C28 C27 1_555 1_555
H17 C28 1_555 1_555
C29 C24 1_555 1_555
H18 C29 1_555 1_555
O15 Zn1 1_555 1_555
C33 H19 1_555 1_555
C34 C33 1_555 1_555
H20 C34 1_555 1_555
C38 O15 1_555 1_555
Zn12 O5 1_555 1_555
O24 Zn3 1_555 1_555
N1 N2 1_555 1_555
C6 C7 1_555 1_555
C9 C10 1_555 1_555
N7 Zn12 1_555 1_555
N8 N9 1_555 1_555
C18 C19 1_555 1_555
C21 C22 1_555 1_555
C28 C29 1_555 1_555
Zn8 O14 1_555 1_555
O3 C8 1_555 1_555
O4 C8 1_555 1_555
C3 H1 1_555 1_555
C4 C3 1_555 1_555
H2 C4 1_555 1_555
C5 C4 1_555 1_555
C8 C5 1_555 1_555
O24 C30 1_555 1_555
H15 C25 1_555 1_555
C26 C25 1_555 1_555
H16 C26 1_555 1_555
O13 C31 1_555 1_555
O14 C31 1_555 1_555
O16 Zn12 1_555 1_555
C31 C32 1_555 1_555
C36 C35 1_555 1_555
H21 C36 1_555 1_555
C37 C32 1_555 1_555
H22 C37 1_555 1_555
N10 N16 1_555 1_555
N16 N12 1_555 1_555
N12 Zn8 1_555 1_555
C39 N10 1_555 1_555
H23 C39 1_555 1_555
C40 N12 1_555 1_555
H24 C40 1_555 1_555
C36 C37 1_555 1_555
C39 C40 1_555 1_555
O7 C20 1_555 1_555
O8 C20 1_555 1_555
H9 C15 1_555 1_555
C16 C15 1_555 1_555
H10 C16 1_555 1_555
C17 C16 1_555 1_555
C20 C17 1_555 1_555
Zn17 O8 1_555 1_555

#END
