
###############################################################################
#
# This file contains modified crystal structure data generated from the
# MOF subset of the Cambridge Structural Database (CSD) v543 
# hosted by the Cambridge Crystallographic Data Centre (CCDC).
#
# This work is licensed under the Creative Commons
# Attribution-NonCommercial-ShareAlike 4.0 International License.
# To view a copy of this license, visit
# http://creativecommons.org/licenses/by-nc-sa/4.0/
# or send a letter to
# Creative Commons, PO Box 1866, Mountain View, CA 94042, USA.
#
# CIF created using the CSD Python API on 29 September 2022
# The structure has been converted into the P1 space group
# The structure has a 3D framework
# The original CSD entry DAGDIZ is in the monoclinic crystal system
# The framework has been calculated to contain at least 10.0% void space
# The void calculation uses a probe of radius 1.32A, grid spacing 0.4
# H atom positions have been added when not included in the experimental data
#
###############################################################################

data_DAGDIZ
_chemical_formula_moiety         '(C72 H96 Cd10 O58)n'
_symmetry_cell_setting           triclinic
_symmetry_space_group_name_H-M   'P 1'
_symmetry_Int_Tables_number      1
_space_group_name_Hall           'P 1'
loop_
_symmetry_equiv_pos_site_id
_symmetry_equiv_pos_as_xyz
1 x,y,z
_cell_length_a                   11.8055(4)
_cell_length_b                   17.0691(7)
_cell_length_c                   15.2668(5)
_cell_angle_alpha                90
_cell_angle_beta                 92.452(2)
_cell_angle_gamma                90
_cell_volume                     3073.58
loop_
_atom_site_label
_atom_site_type_symbol
_atom_site_fract_x
_atom_site_fract_y
_atom_site_fract_z
Cd3 Cd 0.25511(5) 0.30880(4) 0.00839(4)
O23 O 0.0767(5) 0.2734(4) 0.0343(4)
O25 O 0.3265(5) 0.3036(4) 0.1598(4)
O26 O 0.3376(6) 0.2013(4) 0.0755(4)
H22 H 0.468369 0.388973 0.0340155
O2 O 0.2837(6) 0.2414(5) 0.7393(4)
O3 O 0.2799(5) 0.2508(5) 0.8801(4)
O6 O 0.4422(6) 0.3552(6) 0.9842(6)
C4 C 0.2364(6) 0.2631(5) 0.8050(6)
C5 C 0.1233(7) 0.3073(6) 0.7955(6)
H4 H 0.0870 0.3052 0.8520
C6 C 0.0450(7) 0.2649(6) 0.7265(6)
H5 H 0.0799 0.2653 0.6701
H6 H 0.0347 0.2108 0.7439
C15 C 0.1387(7) 0.3928(5) 0.7715(6)
H16 H 0.1864 0.4183 0.8163
H17 H 0.1763 0.3963 0.7164
C17 C 0.0259(7) 0.4343(6) 0.7632(5)
C18 C 0.0386(7) 0.5208(6) 0.7393(6)
O15 O 0.1314(5) 0.5548(4) 0.7477(5)
O24 O 0.2048(7) 0.4306(4) 0.9843(5)
Cd4 Cd 0.43301(5) 0.17455(4) 0.80611(4)
Cd11 Cd 0.06699(5) 0.67455(4) 0.69389(4)
H21 H 0.441585 0.386 0.929003
Cd1 Cd 0.69668(5) 0.12099(4) 0.72823(4)
O1 O 0.5402(5) 0.1909(4) 0.6717(4)
O4 O 0.5767(5) 0.2266(4) 0.5343(4)
O5 O 0.8236(8) 0.0379(6) 0.7980(8)
O7 O 0.4269(9) 0.1136(7) 0.9472(7)
C1 C 0.5117(6) 0.2018(5) 0.5911(6)
C2 C 0.3919(6) 0.1773(6) 0.5580(6)
H1 H 0.3434 0.1759 0.6085
C3 C 0.4005(6) 0.0954(5) 0.5229(5)
H2 H 0.4307 0.0611 0.5688
H3 H 0.4525 0.0947 0.4754
C7 C 0.9295(6) 0.3062(6) 0.7185(5)
H7 H 0.8920 0.3005 0.7742
C8 C 0.9435(7) 0.3932(5) 0.6994(6)
H8 H 0.9698 0.3992 0.6405
H9 H 0.8701 0.4184 0.7014
C9 C 0.3387(7) 0.2348(6) 0.4903(5)
H10 H 0.3876 0.2400 0.4412
H11 H 0.3305 0.2860 0.5168
C10 C 0.2215(7) 0.2037(6) 0.4579(6)
H12 H 0.1730 0.2010 0.5084
C11 C 0.1629(7) 0.2565(6) 0.3885(6)
C12 C 0.2310(7) 0.1217(6) 0.4205(5)
H13 H 0.2772 0.1231 0.3695
H14 H 0.1562 0.1029 0.4019
O8 O 0.2206(5) 0.3022(5) 0.3465(4)
O9 O 0.0576(5) 0.2460(5) 0.3764(5)
C13 C 0.2846(7) 0.0648(6) 0.4893(5)
H15 H 0.2351 0.0640 0.5393
C16 C 0.8590(7) 0.2650(6) 0.6477(6)
H18 H 0.9929 0.4325 0.8209
O12 O 0.8265(5) 0.1964(4) 0.6598(4)
O13 O 0.8376(6) 0.2987(4) 0.5755(4)
O14 O 0.9506(5) 0.5570(4) 0.7093(4)
O16 O 0.7206(5) 0.1978(5) 0.8465(4)
O17 O 0.6970(8) 0.0299(5) 0.6228(5)
O18 O 0.5494(5) 0.0570(4) 0.7907(4)
O21 O 0.5576(5) 0.2540(5) 0.8764(5)
O22 O 0.3686(5) 0.0548(4) 0.7523(5)
Cd5 Cd 0.75511(5) 0.19120(4) 0.50839(4)
Cd6 Cd 0.19668(5) 0.37901(4) 0.22823(4)
Cd10 Cd 0.80332(5) 0.62099(4) 0.77177(4)
H20 H 0.901727 0.0517981 0.781985
H23 H 0.493978 0.130098 0.984129
H24 H 0.356584 0.129668 0.975805
C14 C 0.2939(7) 0.9816(5) 0.4569(6)
O10 O 0.3030(8) 0.9701(5) 0.3772(5)
O11 O 0.2952(7) 0.9306(4) 0.5157(5)
Cd8 Cd 0.30332(5) 0.87901(4) 0.27177(4)
Cd9 Cd 0.24489(5) 0.80880(4) 0.49161(4)
H19 H 0.806734 0.983128 0.779814
Cd7 Cd 0.93301(5) 0.32545(4) 0.30611(4)
O1_2 O 0.0402(5) 0.3091(4) 0.1717(4)
O2_2 O 0.7837(6) 0.2586(5) 0.2393(4)
O3_2 O 0.7799(5) 0.2492(5) 0.3801(4)
O5_2 O 0.3236(8) 0.4621(6) 0.2980(8)
O6_2 O 0.9422(6) 0.1448(6) 0.4842(6)
C1_2 C 0.0117(6) 0.2982(5) 0.0911(6)
C4_2 C 0.7364(6) 0.2369(5) 0.3050(6)
C5_2 C 0.6233(7) 0.1927(6) 0.2955(6)
H4_2 H 0.5870 0.1948 0.3520
C6_2 C 0.5450(7) 0.2351(6) 0.2265(6)
H5_2 H 0.5799 0.2347 0.1701
H6_2 H 0.5347 0.2892 0.2439
C7_2 C 0.4295(6) 0.1938(6) 0.2185(5)
H7_2 H 0.3920 0.1995 0.2742
C8_2 C 0.4435(7) 0.1068(5) 0.1994(6)
H8_2 H 0.4698 0.1008 0.1405
H9_2 H 0.3701 0.0816 0.2014
C15_2 C 0.6387(7) 0.1072(5) 0.2715(6)
H16_2 H 0.6864 0.0817 0.3163
H17_2 H 0.6763 0.1037 0.2164
C16_2 C 0.3590(7) 0.2350(6) 0.1477(6)
C17_2 C 0.5259(7) 0.0657(6) 0.2632(5)
H18_2 H 0.4929 0.0675 0.3209
O17_2 O 0.1970(8) 0.4701(5) 0.1228(5)
O18_2 O 0.0494(5) 0.4430(4) 0.2907(4)
O24_2 O 0.7048(7) 0.0694(4) 0.4843(5)
H19_2 H 0.306734 0.516872 0.279814
H20_2 H 0.401727 0.448202 0.281985
H21_2 H 0.941585 0.114 0.429003
H22_2 H 0.968369 0.111027 0.534015
C18_2 C 0.5386(7) 0.9792(6) 0.2393(6)
O14_2 O 0.4506(5) 0.9430(4) 0.2093(4)
O15_2 O 0.6314(5) 0.9452(4) 0.2477(5)
Cd11_2 Cd 0.56699(5) 0.82545(4) 0.19389(4)
O7_2 O 0.9269(9) 0.3864(7) 0.4472(7)
C2_2 C 0.8919(6) 0.3227(6) 0.0580(6)
H1_2 H 0.8434 0.3241 0.1085
C3_2 C 0.9005(6) 0.4046(5) 0.0229(5)
H2_2 H 0.9307 0.4389 0.0688
H11_2 H 0.8305 0.2140 0.0168
H12_2 H 0.6730 0.2990 0.0084
H15_2 H 0.7351 0.4360 0.0393
O11_2 O 0.7952(7) 0.5694(4) 0.0157(5)
O22_2 O 0.8686(5) 0.4452(4) 0.2523(5)
H23_2 H 0.993978 0.369902 0.484129
H24_2 H 0.856584 0.370332 0.475805
H3_2 H 0.9525 0.4053 0.9754
C9_2 C 0.8387(7) 0.2652(6) 0.9903(5)
H10_2 H 0.8876 0.2600 0.9412
C10_2 C 0.7215(7) 0.2963(6) 0.9579(6)
C11_2 C 0.6629(7) 0.2435(6) 0.8885(6)
C12_2 C 0.7310(7) 0.3783(6) 0.9205(5)
H13_2 H 0.7772 0.3769 0.8695
H14_2 H 0.6562 0.3971 0.9019
C13_2 C 0.7846(7) 0.4352(6) 0.9893(5)
C14_2 C 0.7939(7) 0.5184(5) 0.9569(6)
O10_2 O 0.8030(8) 0.5299(5) 0.8772(5)
Cd9_2 Cd 0.74489(5) 0.69120(4) 0.99161(4)
C14_3 C 0.7061(7) 0.0184(5) 0.5431(6)
H19_3 H 0.193266 0.0168718 0.220186
O1_3 O 0.4598(5) 0.8091(4) 0.3283(4)
O4_2 O 0.4233(5) 0.7734(4) 0.4657(4)
O5_3 O 0.1764(8) 0.9621(6) 0.2020(8)
O7_3 O 0.5731(9) 0.8864(7) 0.0528(7)
C1_3 C 0.4883(6) 0.7982(5) 0.4089(6)
C2_3 C 0.6081(6) 0.8227(6) 0.4420(6)
H1_3 H 0.6566 0.8241 0.3915
C3_3 C 0.5995(6) 0.9046(5) 0.4771(5)
H2_3 H 0.5693 0.9389 0.4312
H3_3 H 0.5475 0.9053 0.5246
C7_3 C 0.0705(6) 0.6938(6) 0.2815(5)
H7_3 H 0.1080 0.6995 0.2258
C8_3 C 0.0565(7) 0.6068(5) 0.3006(6)
H8_3 H 0.0302 0.6008 0.3595
H9_3 H 0.1299 0.5816 0.2986
C9_3 C 0.6613(7) 0.7652(6) 0.5097(5)
H10_3 H 0.6124 0.7600 0.5588
H11_3 H 0.6695 0.7140 0.4832
C10_3 C 0.7785(7) 0.7963(6) 0.5421(6)
H12_3 H 0.8270 0.7990 0.4916
C11_3 C 0.8371(7) 0.7435(6) 0.6115(6)
C12_3 C 0.7690(7) 0.8783(6) 0.5795(5)
H13_3 H 0.7228 0.8769 0.6305
H14_3 H 0.8438 0.8971 0.5981
O8_2 O 0.7794(5) 0.6978(5) 0.6535(4)
O9_2 O 0.9424(5) 0.7540(5) 0.6236(5)
C13_3 C 0.7154(7) 0.9352(6) 0.5107(5)
H15_3 H 0.7649 0.9360 0.4607
C16_3 C 0.1410(7) 0.7350(6) 0.3523(6)
H18_3 H 0.0071 0.5675 0.1791
O12_2 O 0.1735(5) 0.8036(4) 0.3402(4)
O13_2 O 0.1624(6) 0.7013(4) 0.4245(4)
O16_2 O 0.2794(5) 0.8022(5) 0.1535(4)
O19 O 0.7163(6) 0.7586(5) 0.2607(4)
O20 O 0.7201(5) 0.7492(5) 0.1199(4)
O21_2 O 0.4424(5) 0.7460(5) 0.1236(5)
H20_3 H 0.0982725 0.948202 0.218015
H23_3 H 0.506022 0.869902 0.0158712
H24_3 H 0.643416 0.870332 0.0241946
O6_3 O 0.5578(6) 0.6448(6) 0.0158(6)
C4_3 C 0.7636(6) 0.7369(5) 0.1950(6)
C5_3 C 0.8767(7) 0.6927(6) 0.2045(6)
H4_3 H 0.9130 0.6948 0.1480
C6_3 C 0.9550(7) 0.7351(6) 0.2735(6)
H5_3 H 0.9201 0.7347 0.3299
H6_3 H 0.9653 0.7892 0.2561
C15_3 C 0.8613(7) 0.6072(5) 0.2285(6)
H16_3 H 0.8136 0.5817 0.1837
H17_3 H 0.8237 0.6037 0.2836
C17_3 C 0.9741(7) 0.5657(6) 0.2368(5)
C18_3 C 0.9614(7) 0.4792(6) 0.2607(6)
H21_3 H 0.558415 0.614 0.0709974
O23_2 O 0.9233(5) 0.7266(4) 0.9657(4)
O25_2 O 0.6735(5) 0.6964(4) 0.8402(4)
O26_2 O 0.6624(6) 0.7987(4) 0.9245(4)
H22_3 H 0.531631 0.611027 0.965985
H3_4 H 0.0475 0.5947 0.0246
C9_4 C 0.1613(7) 0.7348(6) 0.0097(5)
H10_4 H 0.1124 0.7400 0.0588
C10_4 C 0.2785(7) 0.7037(6) 0.0421(6)
C11_4 C 0.3371(7) 0.7565(6) 0.1115(6)
C12_4 C 0.2690(7) 0.6217(6) 0.0795(5)
H13_4 H 0.2228 0.6231 0.1305
H14_4 H 0.3438 0.6029 0.0981
C13_4 C 0.2154(7) 0.5648(6) 0.0107(5)
C14_4 C 0.2061(7) 0.4816(5) 0.0431(6)
O7_4 O 0.0731(9) 0.6136(7) 0.5528(7)
C2_4 C 0.1081(6) 0.6773(6) 0.9420(6)
H1_4 H 0.1566 0.6759 0.8915
C3_4 C 0.0995(6) 0.5954(5) 0.9771(5)
H2_4 H 0.0693 0.5611 0.9312
H11_4 H 0.1695 0.7860 0.9832
H12_4 H 0.3270 0.7010 0.9916
H15_4 H 0.2649 0.5640 0.9607
O19_2 O 0.2163(6) 0.7414(5) 0.7607(4)
O20_2 O 0.2201(5) 0.7508(5) 0.6199(4)
H23_4 H 0.00602174 0.630098 0.515871
H24_4 H 0.143416 0.629668 0.524195
C18_4 C 0.4614(7) 0.0208(6) 0.7607(6)
O1_4 O 0.9598(5) 0.6909(4) 0.8283(4)
O5_4 O 0.6764(8) 0.5379(6) 0.7020(8)
O6_4 O 0.0578(6) 0.8552(6) 0.5158(6)
C1_4 C 0.9883(6) 0.7018(5) 0.9089(6)
C4_4 C 0.2636(6) 0.7631(5) 0.6950(6)
C5_4 C 0.3767(7) 0.8073(6) 0.7045(6)
H4_4 H 0.4130 0.8052 0.6480
C6_4 C 0.4550(7) 0.7649(6) 0.7735(6)
H5_4 H 0.4201 0.7653 0.8299
H6_4 H 0.4653 0.7108 0.7561
C7_4 C 0.5705(6) 0.8062(6) 0.7815(5)
H7_4 H 0.6080 0.8005 0.7258
C8_4 C 0.5565(7) 0.8932(5) 0.8006(6)
H8_4 H 0.5302 0.8992 0.8595
H9_4 H 0.6299 0.9184 0.7986
C15_4 C 0.3613(7) 0.8928(5) 0.7285(6)
H16_4 H 0.3136 0.9183 0.6837
H17_4 H 0.3237 0.8963 0.7836
C16_4 C 0.6410(7) 0.7650(6) 0.8523(6)
C17_4 C 0.4741(7) 0.9343(6) 0.7368(5)
H18_4 H 0.5071 0.9325 0.6791
H19_4 H 0.693266 0.483128 0.720186
H20_4 H 0.598273 0.551798 0.718015
H21_4 H 0.0584152 0.886 0.570997
H22_4 H 0.031631 0.888973 0.465985
loop_
_geom_bond_atom_site_label_1
_geom_bond_atom_site_label_2
_geom_bond_site_symmetry_1
_geom_bond_site_symmetry_2
O23 Cd3 1_555 1_555
O25 Cd3 1_555 1_555
O26 Cd3 1_555 1_555
O2 C4 1_555 1_555
O3 C4 1_555 1_555
C4 C5 1_555 1_555
C5 H4 1_555 1_555
C6 C5 1_555 1_555
H5 C6 1_555 1_555
H6 C6 1_555 1_555
C15 C5 1_555 1_555
H16 C15 1_555 1_555
H17 C15 1_555 1_555
C18 C17 1_555 1_555
O15 C18 1_555 1_555
Cd4 O2 1_555 1_555
O3 Cd4 1_555 1_555
C15 C17 1_555 1_555
O15 Cd11 1_555 1_555
O6 H21 1_555 1_555
Cd1 O1 1_555 1_555
Cd4 O1 1_555 1_555
O1 C1 1_555 1_555
O4 C1 1_555 1_555
O5 Cd1 1_555 1_555
O7 Cd4 1_555 1_555
C1 C2 1_555 1_555
C2 H1 1_555 1_555
C3 C2 1_555 1_555
H2 C3 1_555 1_555
H3 C3 1_555 1_555
H7 C7 1_555 1_555
C8 C7 1_555 1_555
H8 C8 1_555 1_555
H9 C8 1_555 1_555
C9 C2 1_555 1_555
H10 C9 1_555 1_555
H11 C9 1_555 1_555
C10 C9 1_555 1_555
H12 C10 1_555 1_555
C11 C10 1_555 1_555
C12 C10 1_555 1_555
H13 C12 1_555 1_555
H14 C12 1_555 1_555
O8 C11 1_555 1_555
O9 C11 1_555 1_555
C13 C3 1_555 1_555
H15 C13 1_555 1_555
C16 C7 1_555 1_555
O12 Cd1 1_555 1_555
O13 C16 1_555 1_555
O16 Cd1 1_555 1_555
O17 Cd1 1_555 1_555
O18 Cd1 1_555 1_555
O21 Cd4 1_555 1_555
O22 Cd4 1_555 1_555
Cd5 O4 1_555 1_555
Cd6 O8 1_555 1_555
Cd10 O14 1_555 1_555
Cd4 O18 1_555 1_555
C12 C13 1_555 1_555
C16 O12 1_555 1_555
O12 Cd5 1_555 1_555
O13 Cd5 1_555 1_555
O5 H20 1_555 1_555
O7 H23 1_555 1_555
O7 H24 1_555 1_555
O10 C14 1_555 1_555
O11 C14 1_555 1_555
Cd8 O10 1_555 1_555
Cd9 O11 1_555 1_555
Cd6 O1_2 1_555 1_555
Cd5 O3_2 1_555 1_555
O1_2 C1_2 1_555 1_555
O2_2 C4_2 1_555 1_555
O3_2 C4_2 1_555 1_555
O23 C1_2 1_555 1_555
O5_2 Cd6 1_555 1_555
O6_2 Cd5 1_555 1_555
C4_2 C5_2 1_555 1_555
C5_2 H4_2 1_555 1_555
C6_2 C5_2 1_555 1_555
H5_2 C6_2 1_555 1_555
H6_2 C6_2 1_555 1_555
C7_2 C6_2 1_555 1_555
H7_2 C7_2 1_555 1_555
C8_2 C7_2 1_555 1_555
H8_2 C8_2 1_555 1_555
H9_2 C8_2 1_555 1_555
C15_2 C5_2 1_555 1_555
H16_2 C15_2 1_555 1_555
H17_2 C15_2 1_555 1_555
C16_2 C7_2 1_555 1_555
C17_2 C8_2 1_555 1_555
H18_2 C17_2 1_555 1_555
O25 Cd6 1_555 1_555
O26 C16_2 1_555 1_555
O17_2 Cd6 1_555 1_555
O18_2 Cd6 1_555 1_555
O24_2 Cd5 1_555 1_555
Cd7 O2_2 1_555 1_555
O3_2 Cd7 1_555 1_555
C15_2 C17_2 1_555 1_555
C16_2 O25 1_555 1_555
O5_2 H19_2 1_555 1_555
O5_2 H20_2 1_555 1_555
O6_2 H21_2 1_555 1_555
O6_2 H22_2 1_555 1_555
O14_2 C18_2 1_555 1_555
O15_2 C18_2 1_555 1_555
Cd8 O14_2 1_555 1_555
Cd11_2 O14_2 1_555 1_555
O15_2 Cd11_2 1_555 1_555
O7_2 Cd7 1_555 1_555
C2_2 H1_2 1_555 1_555
C3_2 C2_2 1_555 1_555
H2_2 C3_2 1_555 1_555
O22_2 Cd7 1_555 1_555
O7_2 H23_2 1_555 1_555
O7_2 H24_2 1_555 1_555
H10_2 C9_2 1_555 1_555
C10_2 C9_2 1_555 1_555
C11_2 C10_2 1_555 1_555
C12_2 C10_2 1_555 1_555
H13_2 C12_2 1_555 1_555
H14_2 C12_2 1_555 1_555
O16 C11_2 1_555 1_555
O21 C11_2 1_555 1_555
C14_2 C13_2 1_555 1_555
O10_2 C14_2 1_555 1_555
Cd10 O10_2 1_555 1_555
C12_2 C13_2 1_555 1_555
O17 C14_3 1_555 1_555
O24_2 C14_3 1_555 1_555
Cd8 O1_3 1_555 1_555
Cd11_2 O1_3 1_555 1_555
O1_3 C1_3 1_555 1_555
O4_2 C1_3 1_555 1_555
O5_3 Cd8 1_555 1_555
O7_3 Cd11_2 1_555 1_555
C1_3 C2_3 1_555 1_555
C2_3 H1_3 1_555 1_555
C3_3 C2_3 1_555 1_555
H2_3 C3_3 1_555 1_555
H3_3 C3_3 1_555 1_555
H7_3 C7_3 1_555 1_555
C8_3 C7_3 1_555 1_555
H8_3 C8_3 1_555 1_555
H9_3 C8_3 1_555 1_555
C9_3 C2_3 1_555 1_555
H10_3 C9_3 1_555 1_555
H11_3 C9_3 1_555 1_555
C10_3 C9_3 1_555 1_555
H12_3 C10_3 1_555 1_555
C11_3 C10_3 1_555 1_555
C12_3 C10_3 1_555 1_555
H13_3 C12_3 1_555 1_555
H14_3 C12_3 1_555 1_555
O8_2 C11_3 1_555 1_555
O9_2 C11_3 1_555 1_555
C13_3 C3_3 1_555 1_555
H15_3 C13_3 1_555 1_555
C16_3 C7_3 1_555 1_555
O12_2 Cd8 1_555 1_555
O13_2 C16_3 1_555 1_555
O16_2 Cd8 1_555 1_555
O19 Cd11_2 1_555 1_555
O20 Cd11_2 1_555 1_555
O21_2 Cd11_2 1_555 1_555
Cd9 O4_2 1_555 1_555
Cd10 O8_2 1_555 1_555
C12_3 C13_3 1_555 1_555
C16_3 O12_2 1_555 1_555
O12_2 Cd9 1_555 1_555
O13_2 Cd9 1_555 1_555
O5_3 H20_3 1_555 1_555
O7_3 H23_3 1_555 1_555
O7_3 H24_3 1_555 1_555
O19 C4_3 1_555 1_555
O20 C4_3 1_555 1_555
C4_3 C5_3 1_555 1_555
C5_3 H4_3 1_555 1_555
C6_3 C5_3 1_555 1_555
H5_3 C6_3 1_555 1_555
H6_3 C6_3 1_555 1_555
C15_3 C5_3 1_555 1_555
H16_3 C15_3 1_555 1_555
H17_3 C15_3 1_555 1_555
C18_3 C17_3 1_555 1_555
O22_2 C18_3 1_555 1_555
C15_3 C17_3 1_555 1_555
O6_3 H21_3 1_555 1_555
O23_2 Cd9_2 1_555 1_555
O25_2 Cd9_2 1_555 1_555
O26_2 Cd9_2 1_555 1_555
H10_4 C9_4 1_555 1_555
C10_4 C9_4 1_555 1_555
C11_4 C10_4 1_555 1_555
C12_4 C10_4 1_555 1_555
H13_4 C12_4 1_555 1_555
H14_4 C12_4 1_555 1_555
O16_2 C11_4 1_555 1_555
O21_2 C11_4 1_555 1_555
C14_4 C13_4 1_555 1_555
O17_2 C14_4 1_555 1_555
C12_4 C13_4 1_555 1_555
O7_4 Cd11 1_555 1_555
C2_4 H1_4 1_555 1_555
C3_4 C2_4 1_555 1_555
H2_4 C3_4 1_555 1_555
O19_2 Cd11 1_555 1_555
O20_2 Cd11 1_555 1_555
O7_4 H23_4 1_555 1_555
O7_4 H24_4 1_555 1_555
O18 C18_4 1_555 1_555
O22 C18_4 1_555 1_555
Cd10 O1_4 1_555 1_555
Cd9 O20_2 1_555 1_555
O1_4 C1_4 1_555 1_555
O19_2 C4_4 1_555 1_555
O20_2 C4_4 1_555 1_555
O23_2 C1_4 1_555 1_555
O5_4 Cd10 1_555 1_555
O6_4 Cd9 1_555 1_555
C4_4 C5_4 1_555 1_555
C5_4 H4_4 1_555 1_555
C6_4 C5_4 1_555 1_555
H5_4 C6_4 1_555 1_555
H6_4 C6_4 1_555 1_555
C7_4 C6_4 1_555 1_555
H7_4 C7_4 1_555 1_555
C8_4 C7_4 1_555 1_555
H8_4 C8_4 1_555 1_555
H9_4 C8_4 1_555 1_555
C15_4 C5_4 1_555 1_555
H16_4 C15_4 1_555 1_555
H17_4 C15_4 1_555 1_555
C16_4 C7_4 1_555 1_555
C17_4 C8_4 1_555 1_555
H18_4 C17_4 1_555 1_555
O25_2 Cd10 1_555 1_555
O26_2 C16_4 1_555 1_555
C15_4 C17_4 1_555 1_555
C16_4 O25_2 1_555 1_555
O5_4 H19_4 1_555 1_555
O5_4 H20_4 1_555 1_555
O6_4 H21_4 1_555 1_555
O6_4 H22_4 1_555 1_555

#END
