
###############################################################################
#
# This file contains modified crystal structure data generated from the
# MOF subset of the Cambridge Structural Database (CSD) v543 
# hosted by the Cambridge Crystallographic Data Centre (CCDC).
#
# This work is licensed under the Creative Commons
# Attribution-NonCommercial-ShareAlike 4.0 International License.
# To view a copy of this license, visit
# http://creativecommons.org/licenses/by-nc-sa/4.0/
# or send a letter to
# Creative Commons, PO Box 1866, Mountain View, CA 94042, USA.
#
# CIF created using the CSD Python API on 29 September 2022
# The structure has been converted into the P1 space group
# The structure has a 3D framework
# The original CSD entry DAGYET is in the monoclinic crystal system
# The framework has been calculated to contain at least 10.0% void space
# The void calculation uses a probe of radius 1.32A, grid spacing 0.4
#
###############################################################################

data_DAGYET
_chemical_formula_moiety         '(C84 H84 Ca19 Eu4 N12 O72)n'
_symmetry_cell_setting           triclinic
_symmetry_space_group_name_H-M   'P 1'
_symmetry_Int_Tables_number      1
_space_group_name_Hall           'P 1'
loop_
_symmetry_equiv_pos_site_id
_symmetry_equiv_pos_as_xyz
1 x,y,z
_cell_length_a                   16.259(5)
_cell_length_b                   9.427(5)
_cell_length_c                   24.049(5)
_cell_angle_alpha                90
_cell_angle_beta                 108.495(5)
_cell_angle_gamma                90
_cell_volume                     3495.7
loop_
_atom_site_label
_atom_site_type_symbol
_atom_site_fract_x
_atom_site_fract_y
_atom_site_fract_z
Ca3 Ca 0.0000 0.0000 0.5000
H8 H 0.0193 0.5336 0.6311
H9 H 0.0097 0.3585 0.5622
H39 H 0.013(5) 0.121(5) 0.612(3)
O36 O 0.13821(19) 0.0982(3) 0.53416(17)
H41 H 0.151(4) 0.150(6) 0.5629(18)
H42 H 0.170(4) 0.039(5) 0.526(3)
Ca3_2 Ca 0.0000 1.0000 0.5000
O15 O 0.0072(3) 0.9503(5) 0.4063(2)
H19 H 0.0590(19) 0.973(9) 0.417(4)
O40 O 0.06385(17) 0.7869(3) 0.53306(13)
Eu1 Eu 0.701938(8) 0.502012(16) 0.403162(6)
O1 O 0.62643(16) 0.3182(3) 0.33488(10)
C1 C 0.6373(2) 0.2919(3) 0.28570(14)
O2 O 0.59895(17) 0.1978(3) 0.25119(11)
O3 O 0.48502(15) 0.8007(3) 0.30998(11)
C2 C 0.5306(2) 0.7042(3) 0.33809(14)
O4 O 0.60916(15) 0.6816(3) 0.34262(11)
C3 C 0.4922(2) 0.6052(3) 0.37212(14)
N1 N 0.54707(15) 0.5059(3) 0.40252(10)
C4 C 0.5194(2) 0.4136(3) 0.43485(13)
C5 C 0.5872(2) 0.3085(3) 0.46768(13)
O5 O 0.66303(15) 0.3284(2) 0.46561(11)
O6 O 0.56508(17) 0.2107(2) 0.49436(11)
Ca2 Ca 0.5000 0.0000 0.5000
O7 O 0.38693(19) 0.0646(3) 0.41347(13)
O8 O 0.41684(19) 0.0944(3) 0.55352(12)
C6 C 0.4364(2) 0.4171(4) 0.43844(16)
C7 C 0.3807(2) 0.5213(4) 0.40784(18)
C8 C 0.4083(2) 0.6158(4) 0.37386(17)
O9 O 0.53152(17) 0.0967(3) 0.35205(10)
C9 C 0.7026(2) 0.3804(3) 0.26996(14)
N2 N 0.73645(17) 0.4865(3) 0.30806(11)
C10 C 0.7959(2) 0.5718(4) 0.29840(15)
C11 C 0.8237(3) 0.5537(5) 0.25026(17)
C12 C 0.7905(3) 0.4438(6) 0.2121(2)
C13 C 0.7293(3) 0.3566(5) 0.22179(17)
C14 C 0.8314(2) 0.6827(4) 0.34478(16)
O11 O 0.80553(15) 0.6763(3) 0.38907(11)
O12 O 0.8834(2) 0.7700(3) 0.33708(13)
O13 O 0.81614(16) 0.3240(3) 0.41526(11)
C15 C 0.8812(2) 0.3084(3) 0.45962(15)
O14 O 0.93615(17) 0.2131(3) 0.46694(13)
Ca3_3 Ca 1.0000 0.0000 0.5000
C16 C 0.8925(2) 0.4158(3) 0.50765(14)
N3 N 0.82682(16) 0.5063(3) 0.49956(11)
C17 C 0.8300(2) 0.6041(4) 0.54007(14)
C18 C 0.9003(3) 0.6179(5) 0.58994(17)
C19 C 0.9697(3) 0.5258(5) 0.5981(2)
C20 C 0.9651(3) 0.4231(5) 0.55712(18)
C21 C 0.7510(2) 0.6985(4) 0.52609(16)
O17 O 0.69595(15) 0.6831(3) 0.47643(10)
O18 O 0.74458(18) 0.7817(3) 0.56475(13)
H1 H 0.4188 0.3504 0.4609
H2 H 0.3250 0.5282 0.4096
H3 H 0.3714 0.6874 0.3525
H4 H 0.8638 0.6157 0.2435
H5 H 0.8091 0.4291 0.1801
H6 H 0.7058 0.2809 0.1963
H7 H 0.9015 0.6875 0.6170
H10 H 0.358(3) 0.025(5) 0.3829(15)
H13 H 0.559(3) 0.164(4) 0.345(2)
H15 H 0.348(3) 0.100(6) 0.424(2)
H16 H 0.4852(19) 0.125(5) 0.354(2)
H20 H 0.425(4) 0.049(5) 0.5836(15)
H21 H 0.388(3) 0.166(4) 0.545(2)
O33 O 0.46848(17) 0.0967(3) 0.14795(10)
H35 H 0.441(3) 0.164(4) 0.155(2)
H36 H 0.5148(19) 0.125(5) 0.146(2)
O35 O 0.9928(3) 0.0497(5) 0.5937(2)
H40 H 0.9410(19) 0.027(9) 0.583(4)
O37 O 0.40105(17) 0.1978(3) 0.24881(11)
Ca4 Ca 0.5000 0.99955(9) 0.2500
Ca6 Ca 0.5000 0.00045(9) 0.7500
Ca2_2 Ca 0.5000 1.0000 0.5000
O10 O 0.65073(17) 0.9148(3) 0.28809(12)
Ca3_4 Ca 1.0000 1.0000 0.5000
O16 O 0.86179(19) 0.9018(3) 0.46584(17)
H11 H 0.649(3) 0.833(3) 0.300(2)
H12 H 0.691(3) 0.964(5) 0.308(2)
H14 H 0.849(4) 0.850(6) 0.4371(18)
H17 H 0.830(4) 0.961(5) 0.474(3)
H18 H 0.987(5) 0.879(5) 0.388(3)
Eu2 Eu 0.298062(8) 0.497988(16) 0.596838(6)
O19 O 0.37357(16) 0.6818(3) 0.66512(10)
C22 C 0.3627(2) 0.7081(3) 0.71430(14)
O20 O 0.40105(17) 0.8022(3) 0.74881(11)
O21 O 0.51498(15) 0.1993(3) 0.69002(11)
C23 C 0.4694(2) 0.2958(3) 0.66191(14)
O22 O 0.39084(15) 0.3184(3) 0.65738(11)
C24 C 0.5078(2) 0.3948(3) 0.62788(14)
N4 N 0.45293(15) 0.4941(3) 0.59748(10)
C25 C 0.4806(2) 0.5864(3) 0.56515(13)
C26 C 0.4128(2) 0.6915(3) 0.53232(13)
O23 O 0.33697(15) 0.6716(2) 0.53439(11)
O24 O 0.43492(17) 0.7893(2) 0.50564(11)
O25 O 0.61307(19) 0.9354(3) 0.58653(13)
O26 O 0.58316(19) 0.9056(3) 0.44648(12)
C27 C 0.5636(2) 0.5829(4) 0.56156(16)
C28 C 0.6193(2) 0.4787(4) 0.59216(18)
C29 C 0.5917(2) 0.3842(4) 0.62614(17)
C30 C 0.2974(2) 0.6196(3) 0.73004(14)
N5 N 0.26355(17) 0.5135(3) 0.69194(11)
C31 C 0.2041(2) 0.4282(4) 0.70160(15)
C32 C 0.1763(3) 0.4463(5) 0.74974(17)
C33 C 0.2095(3) 0.5562(6) 0.7879(2)
C34 C 0.2707(3) 0.6434(5) 0.77821(17)
C35 C 0.1686(2) 0.3173(4) 0.65522(16)
O27 O 0.19447(15) 0.3237(3) 0.61093(11)
O28 O 0.1166(2) 0.2300(3) 0.66292(13)
O29 O 0.18386(16) 0.6760(3) 0.58474(11)
C36 C 0.1188(2) 0.6916(3) 0.54038(15)
C37 C 0.1075(2) 0.5842(3) 0.49235(14)
N6 N 0.17318(16) 0.4937(3) 0.50044(11)
C38 C 0.1700(2) 0.3959(4) 0.45993(14)
C39 C 0.0997(3) 0.3821(5) 0.41006(17)
C40 C 0.0303(3) 0.4742(5) 0.4019(2)
C41 C 0.0349(3) 0.5769(5) 0.44288(18)
C42 C 0.2490(2) 0.3015(4) 0.47391(16)
O31 O 0.30405(15) 0.3169(3) 0.52357(10)
O32 O 0.25542(18) 0.2183(3) 0.43525(13)
H22 H 0.5812 0.6496 0.5391
H23 H 0.6750 0.4718 0.5904
H24 H 0.6286 0.3126 0.6475
H25 H 0.1362 0.3843 0.7565
H26 H 0.1909 0.5709 0.8199
H27 H 0.2942 0.7191 0.8037
H28 H 0.0985 0.3125 0.3830
H31 H 0.642(3) 0.975(5) 0.6171(15)
H32 H 0.652(3) 0.900(6) 0.576(2)
H33 H 0.575(4) 0.951(5) 0.4164(15)
H34 H 0.612(3) 0.834(4) 0.455(2)
O34 O 0.34927(17) 0.9148(3) 0.21191(12)
H37 H 0.351(3) 0.833(3) 0.200(2)
H38 H 0.309(3) 0.964(5) 0.192(2)
O39 O 0.51498(15) 0.8007(3) 0.19002(11)
H29 H 0.9807 0.4664 0.3689
H30 H 0.9903 0.6415 0.4378
Ca7 Ca 0.0000 0.0000 -0.0000
Ca7_2 Ca 0.0000 -0.0000 1.0000
H29_2 H 0.0193 0.4664 0.1311
H30_2 H 0.0097 0.6415 0.0622
Ca7_3 Ca 0.0000 1.0000 -0.0000
Ca7_4 Ca 0.0000 1.0000 1.0000
Eu1_2 Eu 0.298062(8) 0.502012(16) 0.096838(6)
O1_2 O 0.37357(16) 0.3182(3) 0.16512(10)
C1_2 C 0.3627(2) 0.2919(3) 0.21430(14)
C2_2 C 0.4694(2) 0.7042(3) 0.16191(14)
O4_2 O 0.39084(15) 0.6816(3) 0.15738(11)
C3_2 C 0.5078(2) 0.6052(3) 0.12788(14)
N1_2 N 0.45293(15) 0.5059(3) 0.09748(10)
C4_2 C 0.4806(2) 0.4136(3) 0.06515(13)
C5_2 C 0.4128(2) 0.3085(3) 0.03232(13)
O5_2 O 0.33697(15) 0.3284(2) 0.03439(11)
O6_2 O 0.43492(17) 0.2107(2) 0.00564(11)
Ca2_3 Ca 0.5000 0.0000 -0.0000
O7_2 O 0.61307(19) 0.0646(3) 0.08653(13)
C6_2 C 0.5636(2) 0.4171(4) 0.06156(16)
C7_2 C 0.6193(2) 0.5213(4) 0.09216(18)
C8_2 C 0.5917(2) 0.6158(4) 0.12614(17)
C9_2 C 0.2974(2) 0.3804(3) 0.23004(14)
N2_2 N 0.26355(17) 0.4865(3) 0.19194(11)
C10_2 C 0.2041(2) 0.5718(4) 0.20160(15)
C11_2 C 0.1763(3) 0.5537(5) 0.24974(17)
C12_2 C 0.2095(3) 0.4438(6) 0.2879(2)
C13_2 C 0.2707(3) 0.3566(5) 0.27821(17)
C14_2 C 0.1686(2) 0.6827(4) 0.15522(16)
O11_2 O 0.19447(15) 0.6763(3) 0.11093(11)
O12_2 O 0.1166(2) 0.7700(3) 0.16292(13)
O13_2 O 0.18386(16) 0.3240(3) 0.08474(11)
C15_2 C 0.1188(2) 0.3084(3) 0.04038(15)
O14_2 O 0.06385(17) 0.2131(3) 0.03306(13)
N3_2 N 0.17318(16) 0.5063(3) 0.00044(11)
O17_2 O 0.30405(15) 0.6831(3) 0.02357(10)
H1_2 H 0.5812 0.3504 0.0391
H2_2 H 0.6750 0.5282 0.0904
H3_2 H 0.6286 0.6874 0.1475
H4_2 H 0.1362 0.6157 0.2565
H5_2 H 0.1909 0.4291 0.3199
H6_2 H 0.2942 0.2809 0.3037
H10_2 H 0.642(3) 0.025(5) 0.1171(15)
H15_2 H 0.652(3) 0.100(6) 0.076(2)
Ca7_5 Ca 1.0000 0.0000 -0.0000
Ca2_4 Ca 0.5000 -0.0000 1.0000
O8_2 O 0.58316(19) 0.0944(3) 0.94648(12)
C16_2 C 0.1075(2) 0.4158(3) 0.99235(14)
C17_2 C 0.1700(2) 0.6041(4) 0.95993(14)
C18_2 C 0.0997(3) 0.6179(5) 0.91006(17)
C19_2 C 0.0303(3) 0.5258(5) 0.9019(2)
C20_2 C 0.0349(3) 0.4231(5) 0.94288(18)
C21_2 C 0.2490(2) 0.6985(4) 0.97391(16)
O18_2 O 0.25542(18) 0.7817(3) 0.93525(13)
H7_2 H 0.0985 0.6875 0.8830
H20_2 H 0.575(4) 0.049(5) 0.9164(15)
H21_2 H 0.612(3) 0.166(4) 0.955(2)
O35_2 O 0.0072(3) 0.0497(5) 0.9063(2)
H40_2 H 0.0590(19) 0.027(9) 0.917(4)
Ca7_6 Ca 1.0000 -0.0000 1.0000
Ca2_5 Ca 0.5000 1.0000 -0.0000
O16_2 O 0.13821(19) 0.9018(3) 0.03416(17)
H14_2 H 0.151(4) 0.850(6) 0.0629(18)
H17_2 H 0.170(4) 0.961(5) 0.026(3)
H18_2 H 0.013(5) 0.879(5) 0.112(3)
O26_2 O 0.41684(19) 0.9056(3) 0.05352(12)
C37_2 C 0.8925(2) 0.5842(3) 0.00765(14)
C38_2 C 0.8300(2) 0.3959(4) 0.04007(14)
C39_2 C 0.9003(3) 0.3821(5) 0.08994(17)
C40_2 C 0.9697(3) 0.4742(5) 0.0981(2)
C41_2 C 0.9651(3) 0.5769(5) 0.05712(18)
C42_2 C 0.7510(2) 0.3015(4) 0.02609(16)
O32_2 O 0.74458(18) 0.2183(3) 0.06475(13)
H28_2 H 0.9015 0.3125 0.1170
H33_2 H 0.425(4) 0.951(5) 0.0836(15)
H34_2 H 0.388(3) 0.834(4) 0.045(2)
Ca7_7 Ca 1.0000 1.0000 -0.0000
Ca2_6 Ca 0.5000 1.0000 1.0000
Eu2_2 Eu 0.701938(8) 0.497988(16) 0.903162(6)
O19_2 O 0.62643(16) 0.6818(3) 0.83488(10)
C22_2 C 0.6373(2) 0.7081(3) 0.78570(14)
O20_2 O 0.59895(17) 0.8022(3) 0.75119(11)
O21_2 O 0.48502(15) 0.1993(3) 0.80998(11)
C23_2 C 0.5306(2) 0.2958(3) 0.83809(14)
O22_2 O 0.60916(15) 0.3184(3) 0.84262(11)
C24_2 C 0.4922(2) 0.3948(3) 0.87212(14)
N4_2 N 0.54707(15) 0.4941(3) 0.90252(10)
C25_2 C 0.5194(2) 0.5864(3) 0.93485(13)
C26_2 C 0.5872(2) 0.6915(3) 0.96768(13)
O23_2 O 0.66303(15) 0.6716(2) 0.96561(11)
O24_2 O 0.56508(17) 0.7893(2) 0.99436(11)
O25_2 O 0.38693(19) 0.9354(3) 0.91347(13)
C27_2 C 0.4364(2) 0.5829(4) 0.93844(16)
C28_2 C 0.3807(2) 0.4787(4) 0.90784(18)
C29_2 C 0.4083(2) 0.3842(4) 0.87386(17)
C30_2 C 0.7026(2) 0.6196(3) 0.76996(14)
N5_2 N 0.73645(17) 0.5135(3) 0.80806(11)
C31_2 C 0.7959(2) 0.4282(4) 0.79840(15)
C32_2 C 0.8237(3) 0.4463(5) 0.75026(17)
C33_2 C 0.7905(3) 0.5562(6) 0.7121(2)
C34_2 C 0.7293(3) 0.6434(5) 0.72179(17)
C35_2 C 0.8314(2) 0.3173(4) 0.84478(16)
O27_2 O 0.80553(15) 0.3237(3) 0.88907(11)
O28_2 O 0.8834(2) 0.2300(3) 0.83708(13)
O29_2 O 0.81614(16) 0.6760(3) 0.91526(11)
C36_2 C 0.8812(2) 0.6916(3) 0.95962(15)
O30 O 0.93615(17) 0.7869(3) 0.96694(13)
N6_2 N 0.82682(16) 0.4937(3) 0.99956(11)
O31_2 O 0.69595(15) 0.3169(3) 0.97643(10)
H22_2 H 0.4188 0.6496 0.9609
H23_2 H 0.3250 0.4718 0.9096
H24_2 H 0.3714 0.3126 0.8525
H25_2 H 0.8638 0.3843 0.7435
H26_2 H 0.8091 0.5709 0.6801
H27_2 H 0.7058 0.7191 0.6963
H31_2 H 0.358(3) 0.975(5) 0.8829(15)
H32_2 H 0.348(3) 0.900(6) 0.924(2)
Ca7_8 Ca 1.0000 1.0000 1.0000
H8_2 H 0.9807 0.5336 0.8689
H9_2 H 0.9903 0.3585 0.9378
H39_2 H 0.987(5) 0.121(5) 0.888(3)
O36_2 O 0.86179(19) 0.0982(3) 0.96584(17)
H41_2 H 0.849(4) 0.150(6) 0.9371(18)
H42_2 H 0.830(4) 0.039(5) 0.974(3)
O15_2 O 0.9928(3) 0.9503(5) 0.0937(2)
H19_2 H 0.9410(19) 0.973(9) 0.083(4)
O10_2 O 0.34927(17) 0.0852(3) 0.71191(12)
H11_2 H 0.351(3) 0.167(3) 0.700(2)
H12_2 H 0.309(3) 0.036(5) 0.692(2)
O34_2 O 0.65073(17) 0.0852(3) 0.78809(12)
H37_2 H 0.649(3) 0.167(3) 0.800(2)
H38_2 H 0.691(3) 0.036(5) 0.808(2)
O9_2 O 0.46848(17) 0.9033(3) 0.64795(10)
H13_2 H 0.441(3) 0.836(4) 0.655(2)
H16_2 H 0.5148(19) 0.875(5) 0.646(2)
O33_2 O 0.53152(17) 0.9033(3) 0.85205(10)
H35_2 H 0.559(3) 0.836(4) 0.845(2)
H36_2 H 0.4852(19) 0.875(5) 0.854(2)
loop_
_geom_bond_atom_site_label_1
_geom_bond_atom_site_label_2
_geom_bond_site_symmetry_1
_geom_bond_site_symmetry_2
O36 Ca3 1_555 1_555
H41 O36 1_555 1_555
H42 O36 1_555 1_555
O15 Ca3_2 1_555 1_555
H19 O15 1_555 1_555
O40 Ca3_2 1_555 1_555
Eu1 O1 1_555 1_555
O1 C1 1_555 1_555
C1 O2 1_555 1_555
O3 C2 1_555 1_555
C2 O4 1_555 1_555
O4 Eu1 1_555 1_555
C3 C2 1_555 1_555
N1 Eu1 1_555 1_555
C4 N1 1_555 1_555
C5 C4 1_555 1_555
O5 Eu1 1_555 1_555
O6 C5 1_555 1_555
Ca2 O6 1_555 1_555
O7 Ca2 1_555 1_555
O8 Ca2 1_555 1_555
C6 C4 1_555 1_555
C7 C6 1_555 1_555
C8 C3 1_555 1_555
O9 H13 1_555 1_555
C9 C1 1_555 1_555
N2 Eu1 1_555 1_555
C10 N2 1_555 1_555
C11 C10 1_555 1_555
C12 C11 1_555 1_555
C13 C9 1_555 1_555
C14 C10 1_555 1_555
O11 Eu1 1_555 1_555
O12 C14 1_555 1_555
O13 Eu1 1_555 1_555
C15 O13 1_555 1_555
O14 C15 1_555 1_555
Ca3_3 O14 1_555 1_555
C16 C15 1_555 1_555
N3 Eu1 1_555 1_555
C17 N3 1_555 1_555
C18 C17 1_555 1_555
C19 C18 1_555 1_555
C20 C16 1_555 1_555
C21 C17 1_555 1_555
O17 Eu1 1_555 1_555
O18 C21 1_555 1_555
H1 C6 1_555 1_555
H2 C7 1_555 1_555
H3 C8 1_555 1_555
H4 C11 1_555 1_555
H5 C12 1_555 1_555
H6 C13 1_555 1_555
H7 C18 1_555 1_555
H10 O7 1_555 1_555
H15 O7 1_555 1_555
H16 O9 1_555 1_555
H20 O8 1_555 1_555
H21 O8 1_555 1_555
H35 O33 1_555 1_555
H36 O33 1_555 1_555
O35 Ca3_3 1_555 1_555
H40 O35 1_555 1_555
Ca4 O3 1_555 1_555
C3 N1 1_555 1_555
C5 O5 1_555 1_555
C7 C8 1_555 1_555
C9 N2 1_555 1_555
C12 C13 1_555 1_555
C14 O11 1_555 1_555
C16 N3 1_555 1_555
C19 C20 1_555 1_555
C21 O17 1_555 1_555
O10 Ca4 1_555 1_555
O16 Ca3_4 1_555 1_555
H11 O10 1_555 1_555
H12 O10 1_555 1_555
H14 O16 1_555 1_555
H17 O16 1_555 1_555
Eu2 O19 1_555 1_555
O19 C22 1_555 1_555
C22 O20 1_555 1_555
O21 C23 1_555 1_555
C23 O22 1_555 1_555
O22 Eu2 1_555 1_555
C24 C23 1_555 1_555
N4 Eu2 1_555 1_555
C25 N4 1_555 1_555
C26 C25 1_555 1_555
O23 Eu2 1_555 1_555
O24 Ca2_2 1_555 1_555
O25 Ca2_2 1_555 1_555
O26 Ca2_2 1_555 1_555
C27 C25 1_555 1_555
C28 C27 1_555 1_555
C29 C24 1_555 1_555
C30 C22 1_555 1_555
N5 Eu2 1_555 1_555
C31 N5 1_555 1_555
C32 C31 1_555 1_555
C33 C32 1_555 1_555
C34 C30 1_555 1_555
C35 C31 1_555 1_555
O27 Eu2 1_555 1_555
O28 C35 1_555 1_555
O29 Eu2 1_555 1_555
C36 O29 1_555 1_555
O40 C36 1_555 1_555
C37 C36 1_555 1_555
N6 Eu2 1_555 1_555
C38 N6 1_555 1_555
C39 C38 1_555 1_555
C40 C39 1_555 1_555
C41 C37 1_555 1_555
C42 C38 1_555 1_555
O31 Eu2 1_555 1_555
O32 C42 1_555 1_555
H22 C27 1_555 1_555
H23 C28 1_555 1_555
H24 C29 1_555 1_555
H25 C32 1_555 1_555
H26 C33 1_555 1_555
H27 C34 1_555 1_555
H28 C39 1_555 1_555
H31 O25 1_555 1_555
H32 O25 1_555 1_555
H33 O26 1_555 1_555
H34 O26 1_555 1_555
O34 Ca4 1_555 1_555
H37 O34 1_555 1_555
H38 O34 1_555 1_555
Ca6 O21 1_555 1_555
O39 Ca4 1_555 1_555
C24 N4 1_555 1_555
C26 O23 1_555 1_555
C26 O24 1_555 1_555
C28 C29 1_555 1_555
C30 N5 1_555 1_555
C33 C34 1_555 1_555
C35 O27 1_555 1_555
C37 N6 1_555 1_555
C40 C41 1_555 1_555
C42 O31 1_555 1_555
Eu1_2 O1_2 1_555 1_555
O1_2 C1_2 1_555 1_555
C1_2 O37 1_555 1_555
O39 C2_2 1_555 1_555
C2_2 O4_2 1_555 1_555
O4_2 Eu1_2 1_555 1_555
C3_2 C2_2 1_555 1_555
N1_2 Eu1_2 1_555 1_555
C4_2 N1_2 1_555 1_555
C5_2 C4_2 1_555 1_555
O5_2 Eu1_2 1_555 1_555
O6_2 C5_2 1_555 1_555
Ca2_3 O6_2 1_555 1_555
O7_2 Ca2_3 1_555 1_555
C6_2 C4_2 1_555 1_555
C7_2 C6_2 1_555 1_555
C8_2 C3_2 1_555 1_555
C9_2 C1_2 1_555 1_555
N2_2 Eu1_2 1_555 1_555
C10_2 N2_2 1_555 1_555
C11_2 C10_2 1_555 1_555
C12_2 C11_2 1_555 1_555
C13_2 C9_2 1_555 1_555
C14_2 C10_2 1_555 1_555
O11_2 Eu1_2 1_555 1_555
O12_2 C14_2 1_555 1_555
O13_2 Eu1_2 1_555 1_555
C15_2 O13_2 1_555 1_555
O14_2 C15_2 1_555 1_555
Ca7 O14_2 1_555 1_555
N3_2 Eu1_2 1_555 1_555
O17_2 Eu1_2 1_555 1_555
H1_2 C6_2 1_555 1_555
H2_2 C7_2 1_555 1_555
H3_2 C8_2 1_555 1_555
H4_2 C11_2 1_555 1_555
H5_2 C12_2 1_555 1_555
H6_2 C13_2 1_555 1_555
H10_2 O7_2 1_555 1_555
H15_2 O7_2 1_555 1_555
C3_2 N1_2 1_555 1_555
C5_2 O5_2 1_555 1_555
C7_2 C8_2 1_555 1_555
C9_2 N2_2 1_555 1_555
C12_2 C13_2 1_555 1_555
C14_2 O11_2 1_555 1_555
O8_2 Ca2_4 1_555 1_555
C18_2 C17_2 1_555 1_555
C19_2 C18_2 1_555 1_555
C20_2 C16_2 1_555 1_555
C21_2 C17_2 1_555 1_555
O18_2 C21_2 1_555 1_555
H7_2 C18_2 1_555 1_555
H20_2 O8_2 1_555 1_555
H21_2 O8_2 1_555 1_555
O35_2 Ca7_2 1_555 1_555
H40_2 O35_2 1_555 1_555
C19_2 C20_2 1_555 1_555
O16_2 Ca7_3 1_555 1_555
H14_2 O16_2 1_555 1_555
H17_2 O16_2 1_555 1_555
O26_2 Ca2_5 1_555 1_555
C39_2 C38_2 1_555 1_555
C40_2 C39_2 1_555 1_555
C41_2 C37_2 1_555 1_555
C42_2 C38_2 1_555 1_555
O32_2 C42_2 1_555 1_555
H28_2 C39_2 1_555 1_555
H33_2 O26_2 1_555 1_555
H34_2 O26_2 1_555 1_555
C40_2 C41_2 1_555 1_555
Eu2_2 O19_2 1_555 1_555
O19_2 C22_2 1_555 1_555
C22_2 O20_2 1_555 1_555
O21_2 C23_2 1_555 1_555
C23_2 O22_2 1_555 1_555
O22_2 Eu2_2 1_555 1_555
C24_2 C23_2 1_555 1_555
N4_2 Eu2_2 1_555 1_555
C25_2 N4_2 1_555 1_555
C26_2 C25_2 1_555 1_555
O23_2 Eu2_2 1_555 1_555
O24_2 Ca2_6 1_555 1_555
O25_2 Ca2_6 1_555 1_555
C27_2 C25_2 1_555 1_555
C28_2 C27_2 1_555 1_555
C29_2 C24_2 1_555 1_555
C30_2 C22_2 1_555 1_555
N5_2 Eu2_2 1_555 1_555
C31_2 N5_2 1_555 1_555
C32_2 C31_2 1_555 1_555
C33_2 C32_2 1_555 1_555
C34_2 C30_2 1_555 1_555
C35_2 C31_2 1_555 1_555
O27_2 Eu2_2 1_555 1_555
O28_2 C35_2 1_555 1_555
O29_2 Eu2_2 1_555 1_555
C36_2 O29_2 1_555 1_555
O30 C36_2 1_555 1_555
N6_2 Eu2_2 1_555 1_555
O31_2 Eu2_2 1_555 1_555
H22_2 C27_2 1_555 1_555
H23_2 C28_2 1_555 1_555
H24_2 C29_2 1_555 1_555
H25_2 C32_2 1_555 1_555
H26_2 C33_2 1_555 1_555
H27_2 C34_2 1_555 1_555
H31_2 O25_2 1_555 1_555
H32_2 O25_2 1_555 1_555
Ca6 O21_2 1_555 1_555
Ca7_8 O30 1_555 1_555
C24_2 N4_2 1_555 1_555
C26_2 O23_2 1_555 1_555
C26_2 O24_2 1_555 1_555
C28_2 C29_2 1_555 1_555
C30_2 N5_2 1_555 1_555
C33_2 C34_2 1_555 1_555
C35_2 O27_2 1_555 1_555
O36_2 Ca7_6 1_555 1_555
H41_2 O36_2 1_555 1_555
H42_2 O36_2 1_555 1_555
O15_2 Ca7_7 1_555 1_555
H19_2 O15_2 1_555 1_555
O10_2 Ca6 1_555 1_555
H11_2 O10_2 1_555 1_555
H12_2 O10_2 1_555 1_555
O34_2 Ca6 1_555 1_555
H37_2 O34_2 1_555 1_555
H38_2 O34_2 1_555 1_555
O9_2 H13_2 1_555 1_555
H16_2 O9_2 1_555 1_555
H35_2 O33_2 1_555 1_555
H36_2 O33_2 1_555 1_555

#END
