
###############################################################################
#
# This file contains modified crystal structure data generated from the
# MOF subset of the Cambridge Structural Database (CSD) v543 
# hosted by the Cambridge Crystallographic Data Centre (CCDC).
#
# This work is licensed under the Creative Commons
# Attribution-NonCommercial-ShareAlike 4.0 International License.
# To view a copy of this license, visit
# http://creativecommons.org/licenses/by-nc-sa/4.0/
# or send a letter to
# Creative Commons, PO Box 1866, Mountain View, CA 94042, USA.
#
# CIF created using the CSD Python API on 29 September 2022
# The structure has been converted into the P1 space group
# The structure has a 3D framework
# The original CSD entry DAHLEH is in the hexagonal crystal system
# The original CSD entry DAHLEH is in a Sohncke space group
# The framework has been calculated to contain at least 10.0% void space
# The void calculation uses a probe of radius 1.32A, grid spacing 0.4
#
###############################################################################

data_DAHLEH
_chemical_formula_moiety         '(C78 H108 Cd6 N12 O24)n'
_symmetry_cell_setting           triclinic
_symmetry_space_group_name_H-M   'P 1'
_symmetry_Int_Tables_number      1
_space_group_name_Hall           'P 1'
loop_
_symmetry_equiv_pos_site_id
_symmetry_equiv_pos_as_xyz
1 x,y,z
_cell_length_a                   16.3615(18)
_cell_length_b                   16.3615(18)
_cell_length_c                   14.634(3)
_cell_angle_alpha                90
_cell_angle_beta                 90
_cell_angle_gamma                120
_cell_volume                     3392.66
loop_
_atom_site_label
_atom_site_type_symbol
_atom_site_fract_x
_atom_site_fract_y
_atom_site_fract_z
Cd1 Cd 0.60968(6) 0.25963(5) 0.06222(5)
O3 O 0.4477(10) 0.2019(12) 0.0159(11)
O4 O 0.5081(9) 0.3107(11) 0.1105(13)
C13 C 0.4396(13) 0.2552(15) 0.0687(17)
H18 H 0.3820 0.2529 0.0761
N3 N 0.5636(8) 0.1138(7) 0.1217(7)
N4 N 0.7654(7) 0.3858(10) 0.0372(6)
O5 O 0.6871(6) 0.3233(8) 0.2038(5)
N2 N 0.6204(7) 0.2346(7) 0.7039(6)
H1 H 0.6482 0.2327 0.6451
O1 O 0.6362(6) 0.3129(6) 0.8705(5)
O2 O 0.6396(6) 0.1937(6) 0.9361(6)
H3 H 0.4020 0.0040 0.7777
C3 C 0.4906(9) 0.0707(8) 0.6743(8)
C4 C 0.5224(12) 0.0517(10) 0.5973(10)
H4 H 0.5632 0.1015 0.5599
C6 C 0.5210(9) 0.1700(8) 0.7003(8)
H6 H 0.4935 0.1943 0.6571
H7 H 0.4947 0.1692 0.7599
C7 C 0.6663(9) 0.2120(8) 0.7753(7)
H8 H 0.6421 0.1437 0.7755
C8 C 0.6430(9) 0.2417(9) 0.8693(7)
C9 C 0.7740(11) 0.2639(11) 0.7644(10)
H9 H 0.7967 0.3310 0.7592
H10 H 0.8014 0.2543 0.8193
C10 C 0.8099(14) 0.233(2) 0.6809(16)
H11 H 0.7784 0.2419 0.6283
C11 C 0.7785(19) 0.1311(18) 0.680(2)
H12 H 0.7755 0.1093 0.7414
H13 H 0.8224 0.1208 0.6453
H14 H 0.7172 0.0970 0.6524
C12 C 0.9158(19) 0.312(2) 0.672(2)
H15 H 0.9328 0.3547 0.7224
H16 H 0.9243 0.3461 0.6158
H17 H 0.9553 0.2841 0.6712
Cd2 Cd 0.64995(8) 0.39032(6) 0.72889(5)
N1 N 0.4364(8) 0.8862(7) 0.6217(7)
C1 C 0.4061(10) 0.9044(9) 0.6998(10)
H2 H 0.3682 0.8544 0.7384
C2 C 0.4289(10) 0.9948(8) 0.7255(10)
C5 C 0.4962(11) 0.9591(9) 0.5710(11)
H5 H 0.5210 0.9489 0.5178
Cd3 Cd 0.39032(6) 0.74037(5) 0.56222(5)
N1_2 N 0.1138(7) 0.5502(11) 0.9550(7)
C5_2 C 0.0409(9) 0.5371(14) 0.9043(11)
H5_2 H 0.0511 0.5721 0.8511
Cd3_2 Cd 0.25963(5) 0.64995(8) 0.89555(5)
Cd1_2 Cd 0.74037(5) 0.35005(8) 0.39555(5)
O2_2 O 0.8063(6) 0.4459(8) 0.2694(6)
O3_2 O 0.7981(12) 0.2458(16) 0.3492(11)
O4_2 O 0.6893(11) 0.1974(14) 0.4438(13)
H3_2 H 0.9960 0.3980 0.1110
C3_2 C 0.9293(8) 0.4199(12) 0.0076(8)
C6_2 C 0.8300(8) 0.3510(12) 0.0336(8)
H7_2 H 0.8308 0.3255 0.0932
C7_2 C 0.7880(8) 0.4543(12) 0.1086(7)
H8_2 H 0.8563 0.4984 0.1088
C8_2 C 0.7583(9) 0.4013(13) 0.2026(7)
C9_2 C 0.7361(11) 0.5101(16) 0.0977(10)
H9_2 H 0.6690 0.4657 0.0925
H10_2 H 0.7457 0.5471 0.1526
C10_2 C 0.767(2) 0.5769(24) 0.0142(16)
C11_2 C 0.8689(18) 0.6474(26) 0.013(2)
H12_2 H 0.8907 0.6662 0.0747
C12_2 C 0.688(2) 0.6038(28) 0.005(2)
H15_2 H 0.6453 0.5781 0.0557
H17_2 H 0.7159 0.6712 0.0045
C13_2 C 0.7448(15) 0.1844(20) 0.4020(17)
H18_2 H 0.7471 0.1291 0.4094
N3_2 N 0.8862(7) 0.4498(11) 0.4550(7)
N4_2 N 0.6142(10) 0.3796(12) 0.3706(6)
O5_2 O 0.6767(8) 0.3638(10) 0.5372(5)
N1_3 N 0.4498(11) 0.5636(8) 0.2884(7)
H1_2 H 0.5845 0.3518 0.3118
O2_3 O 0.5541(8) 0.3604(6) 0.6028(6)
O3_3 O 0.7542(16) 0.5523(10) 0.6826(11)
O4_3 O 0.8026(14) 0.4919(9) 0.7772(13)
C1_2 C 0.4983(13) 0.5939(10) 0.3665(10)
H2_2 H 0.4862 0.6318 0.4051
C2_2 C 0.5659(13) 0.5711(10) 0.3922(10)
H3_3 H 0.6020 0.5980 0.4444
C3_3 C 0.5801(12) 0.5094(9) 0.3410(8)
C4_2 C 0.5293(16) 0.4776(12) 0.2640(10)
H4_2 H 0.5383 0.4368 0.2266
C5_3 C 0.4629(14) 0.5038(11) 0.2377(11)
H5_3 H 0.4279 0.4790 0.1845
C6_3 C 0.6490(12) 0.4790(9) 0.3670(8)
H6_2 H 0.7008 0.5065 0.3238
H7_3 H 0.6745 0.5053 0.4266
C7_3 C 0.5457(12) 0.3337(9) 0.4420(7)
H8_3 H 0.5016 0.3579 0.4422
C8_3 C 0.5987(13) 0.3570(9) 0.5360(7)
C9_3 C 0.4899(16) 0.2260(11) 0.4311(10)
H9_3 H 0.5343 0.2033 0.4259
H10_3 H 0.4529 0.1986 0.4860
C10_3 C 0.4231(24) 0.1901(14) 0.3476(16)
H11_2 H 0.4635 0.2216 0.2950
C11_3 C 0.3526(26) 0.2215(19) 0.347(2)
H12_3 H 0.3338 0.2245 0.4081
H13_2 H 0.2984 0.1776 0.3120
H14_2 H 0.3798 0.2828 0.3191
C12_3 C 0.3962(28) 0.0842(19) 0.339(2)
H15_3 H 0.4219 0.0672 0.3891
H16_2 H 0.4218 0.0757 0.2825
H17_3 H 0.3288 0.0447 0.3379
C13_3 C 0.8156(20) 0.5604(13) 0.7354(17)
H18_3 H 0.8709 0.6180 0.7428
Cd3_3 Cd 0.35005(8) 0.60968(6) 0.22889(5)
N3_3 N 0.5502(11) 0.4364(8) 0.7884(7)
C1_3 C 0.5939(10) 0.0956(9) 0.1998(10)
H2_3 H 0.6318 0.1456 0.2384
C2_3 C 0.5711(10) 0.0052(8) 0.2255(10)
C5_4 C 0.5038(11) 0.0409(9) 0.0710(11)
H5_4 H 0.4790 0.0511 0.0178
N2_2 N 0.3796(7) 0.7654(7) 0.2039(6)
H1_3 H 0.3518 0.7673 0.1451
O1_2 O 0.3638(6) 0.6871(6) 0.3705(5)
O2_4 O 0.3604(6) 0.8063(6) 0.4361(6)
O3_4 O 0.5523(10) 0.7981(12) 0.5159(11)
O4_4 O 0.4919(9) 0.6893(11) 0.6105(13)
H3_4 H 0.5980 0.9960 0.2777
C3_4 C 0.5094(9) 0.9293(8) 0.1743(8)
C4_3 C 0.4776(12) 0.9483(10) 0.0973(10)
H4_3 H 0.4368 0.8985 0.0599
C6_4 C 0.4790(9) 0.8300(8) 0.2003(8)
H6_3 H 0.5065 0.8057 0.1571
H7_4 H 0.5053 0.8308 0.2599
C7_4 C 0.3337(9) 0.7880(8) 0.2753(7)
H8_4 H 0.3579 0.8563 0.2755
C8_4 C 0.3570(9) 0.7583(9) 0.3693(7)
C9_4 C 0.2260(11) 0.7361(11) 0.2644(10)
H9_4 H 0.2033 0.6690 0.2592
H10_4 H 0.1986 0.7457 0.3193
C10_4 C 0.1901(14) 0.767(2) 0.1809(16)
H11_3 H 0.2216 0.7581 0.1283
C11_4 C 0.2215(19) 0.8689(18) 0.180(2)
H12_4 H 0.2245 0.8907 0.2414
H13_3 H 0.1776 0.8792 0.1453
H14_3 H 0.2828 0.9030 0.1524
C12_4 C 0.0842(19) 0.688(2) 0.172(2)
H15_4 H 0.0672 0.6453 0.2224
H16_3 H 0.0757 0.6539 0.1158
H17_4 H 0.0447 0.7159 0.1712
C13_4 C 0.5604(13) 0.7448(15) 0.5687(17)
H18_4 H 0.6180 0.7471 0.5761
N4_3 N 0.2346(7) 0.6142(10) 0.5372(6)
O5_3 O 0.3129(6) 0.6767(8) 0.7038(5)
O5_4 O 0.3233(8) 0.6362(10) 0.0372(5)
H1_4 H 0.2327 0.5845 0.4784
O2_5 O 0.1937(6) 0.5541(8) 0.7694(6)
O3_5 O 0.2019(12) 0.7542(16) 0.8492(11)
O4_5 O 0.3107(11) 0.8026(14) 0.9438(13)
H3_5 H 0.0040 0.6020 0.6110
C3_5 C 0.0707(8) 0.5801(12) 0.5076(8)
C4_4 C 0.0517(10) 0.5293(16) 0.4306(10)
H4_4 H 0.1015 0.5383 0.3932
C6_5 C 0.1700(8) 0.6490(12) 0.5336(8)
H6_4 H 0.1943 0.7008 0.4904
H7_5 H 0.1692 0.6745 0.5932
C7_5 C 0.2120(8) 0.5457(12) 0.6086(7)
H8_5 H 0.1437 0.5016 0.6088
C8_5 C 0.2417(9) 0.5987(13) 0.7026(7)
C9_5 C 0.2639(11) 0.4899(16) 0.5977(10)
H9_5 H 0.3310 0.5343 0.5925
H10_5 H 0.2543 0.4529 0.6526
C10_5 C 0.233(2) 0.4231(24) 0.5142(16)
H11_4 H 0.2419 0.4635 0.4616
C11_5 C 0.1311(18) 0.3526(26) 0.513(2)
H12_5 H 0.1093 0.3338 0.5747
H13_4 H 0.1208 0.2984 0.4786
H14_4 H 0.0970 0.3798 0.4857
C12_5 C 0.312(2) 0.3962(28) 0.505(2)
H15_5 H 0.3547 0.4219 0.5557
H16_4 H 0.3461 0.4218 0.4491
H17_5 H 0.2841 0.3288 0.5045
C13_5 C 0.2552(15) 0.8156(20) 0.9020(17)
H18_5 H 0.2529 0.8709 0.9094
N4_4 N 0.3858(10) 0.6204(12) 0.8706(6)
C1_4 C 0.9044(9) 0.4983(13) 0.5331(10)
H2_4 H 0.8544 0.4862 0.5717
C2_4 C 0.9948(8) 0.5659(13) 0.5588(10)
C5_5 C 0.9591(9) 0.4629(14) 0.4043(11)
H5_5 H 0.9489 0.4279 0.3511
O2_6 O 0.4459(8) 0.6396(6) 0.1028(6)
O3_6 O 0.2458(16) 0.4477(10) 0.1826(11)
O4_6 O 0.1974(14) 0.5081(9) 0.2772(13)
C8_6 C 0.4013(13) 0.6430(9) 0.0360(7)
C13_6 C 0.1844(20) 0.4396(13) 0.2354(17)
H18_6 H 0.1291 0.3820 0.2428
H1_5 H 0.4155 0.6482 0.8118
C1_5 C 0.5017(13) 0.4061(10) 0.8665(10)
H2_5 H 0.5138 0.3682 0.9051
C2_5 C 0.4341(13) 0.4289(10) 0.8922(10)
H3_6 H 0.3980 0.4020 0.9444
C3_6 C 0.4199(12) 0.4906(9) 0.8410(8)
C4_5 C 0.4707(16) 0.5224(12) 0.7640(10)
H4_5 H 0.4617 0.5632 0.7266
C5_6 C 0.5371(14) 0.4962(11) 0.7377(11)
H5_6 H 0.5721 0.5210 0.6845
C6_6 C 0.3510(12) 0.5210(9) 0.8670(8)
H6_5 H 0.2992 0.4935 0.8238
H7_6 H 0.3255 0.4947 0.9266
C7_6 C 0.4543(12) 0.6663(9) 0.9420(7)
H8_6 H 0.4984 0.6421 0.9422
C9_6 C 0.5101(16) 0.7740(11) 0.9311(10)
H9_6 H 0.4657 0.7967 0.9259
H10_6 H 0.5471 0.8014 0.9860
C10_6 C 0.5769(24) 0.8099(14) 0.8476(16)
H11_5 H 0.5365 0.7784 0.7950
C11_6 C 0.6474(26) 0.7785(19) 0.847(2)
H12_6 H 0.6662 0.7755 0.9081
H13_5 H 0.7016 0.8224 0.8120
H14_5 H 0.6202 0.7172 0.8191
C12_6 C 0.6038(28) 0.9158(19) 0.839(2)
H15_6 H 0.5781 0.9328 0.8891
H16_5 H 0.5782 0.9243 0.7825
H17_6 H 0.6712 0.9553 0.8379
C1_6 C 0.0956(9) 0.5017(13) 0.0331(10)
H2_6 H 0.1456 0.5138 0.0717
C2_6 C 0.0052(8) 0.4341(13) 0.0588(10)
H1_6 H 0.7673 0.4155 0.9784
C4_6 C 0.9483(10) 0.4707(16) 0.9306(10)
H4_6 H 0.8985 0.4617 0.8932
H6_6 H 0.8057 0.2992 0.9904
H11_6 H 0.7581 0.5365 0.9616
H13_6 H 0.8792 0.7016 0.9786
H14_6 H 0.9030 0.6202 0.9857
H16_6 H 0.6539 0.5782 0.9491
loop_
_geom_bond_atom_site_label_1
_geom_bond_atom_site_label_2
_geom_bond_site_symmetry_1
_geom_bond_site_symmetry_2
O3 Cd1 1_555 1_555
O4 Cd1 1_555 1_555
C13 O3 1_555 1_555
H18 C13 1_555 1_555
N3 Cd1 1_555 1_555
N4 Cd1 1_555 1_555
O5 Cd1 1_555 1_555
O4 C13 1_555 1_555
N2 H1 1_555 1_555
O1 C8 1_555 1_555
O2 C8 1_555 1_555
C4 C3 1_555 1_555
H4 C4 1_555 1_555
C6 N2 1_555 1_555
H6 C6 1_555 1_555
H7 C6 1_555 1_555
C7 N2 1_555 1_555
H8 C7 1_555 1_555
C8 C7 1_555 1_555
C9 C7 1_555 1_555
H9 C9 1_555 1_555
H10 C9 1_555 1_555
C10 C9 1_555 1_555
H11 C10 1_555 1_555
C11 C10 1_555 1_555
H12 C11 1_555 1_555
H13 C11 1_555 1_555
H14 C11 1_555 1_555
C12 C10 1_555 1_555
H15 C12 1_555 1_555
H16 C12 1_555 1_555
H17 C12 1_555 1_555
Cd2 N2 1_555 1_555
O1 Cd2 1_555 1_555
C3 C6 1_555 1_555
N1 C1 1_555 1_555
C1 H2 1_555 1_555
C2 C1 1_555 1_555
C5 N1 1_555 1_555
H5 C5 1_555 1_555
Cd3 N1 1_555 1_555
C5_2 N1_2 1_555 1_555
H5_2 C5_2 1_555 1_555
Cd3_2 N1_2 1_555 1_555
Cd1_2 O2_2 1_555 1_555
O5 C8_2 1_555 1_555
O2_2 C8_2 1_555 1_555
O3_2 Cd1_2 1_555 1_555
O4_2 Cd1_2 1_555 1_555
C6_2 N4 1_555 1_555
H7_2 C6_2 1_555 1_555
C7_2 N4 1_555 1_555
H8_2 C7_2 1_555 1_555
C8_2 C7_2 1_555 1_555
C9_2 C7_2 1_555 1_555
H9_2 C9_2 1_555 1_555
H10_2 C9_2 1_555 1_555
C10_2 C9_2 1_555 1_555
C11_2 C10_2 1_555 1_555
H12_2 C11_2 1_555 1_555
C12_2 C10_2 1_555 1_555
H15_2 C12_2 1_555 1_555
H17_2 C12_2 1_555 1_555
C13_2 O3_2 1_555 1_555
H18_2 C13_2 1_555 1_555
N3_2 Cd1_2 1_555 1_555
N4_2 Cd1_2 1_555 1_555
O5_2 Cd1_2 1_555 1_555
O4_2 C13_2 1_555 1_555
C3_2 C6_2 1_555 1_555
Cd2 O2_3 1_555 1_555
N1_3 C1_2 1_555 1_555
N4_2 H1_2 1_555 1_555
O5_2 C8_3 1_555 1_555
O2_3 C8_3 1_555 1_555
O3_3 Cd2 1_555 1_555
O4_3 Cd2 1_555 1_555
C1_2 H2_2 1_555 1_555
C2_2 C1_2 1_555 1_555
H3_3 C2_2 1_555 1_555
C3_3 C2_2 1_555 1_555
C4_2 C3_3 1_555 1_555
H4_2 C4_2 1_555 1_555
C5_3 N1_3 1_555 1_555
H5_3 C5_3 1_555 1_555
C6_3 N4_2 1_555 1_555
H6_2 C6_3 1_555 1_555
H7_3 C6_3 1_555 1_555
C7_3 N4_2 1_555 1_555
H8_3 C7_3 1_555 1_555
C8_3 C7_3 1_555 1_555
C9_3 C7_3 1_555 1_555
H9_3 C9_3 1_555 1_555
H10_3 C9_3 1_555 1_555
C10_3 C9_3 1_555 1_555
H11_2 C10_3 1_555 1_555
C11_3 C10_3 1_555 1_555
H12_3 C11_3 1_555 1_555
H13_2 C11_3 1_555 1_555
H14_2 C11_3 1_555 1_555
C12_3 C10_3 1_555 1_555
H15_3 C12_3 1_555 1_555
H16_2 C12_3 1_555 1_555
H17_3 C12_3 1_555 1_555
C13_3 O3_3 1_555 1_555
H18_3 C13_3 1_555 1_555
Cd3_3 N1_3 1_555 1_555
N3_3 Cd2 1_555 1_555
O4_3 C13_3 1_555 1_555
C3_3 C6_3 1_555 1_555
C4_2 C5_3 1_555 1_555
N3 C1_3 1_555 1_555
C1_3 H2_3 1_555 1_555
C2_3 C1_3 1_555 1_555
C5_4 N3 1_555 1_555
H5_4 C5_4 1_555 1_555
Cd3 O2_4 1_555 1_555
N2_2 H1_3 1_555 1_555
O1_2 C8_4 1_555 1_555
O2_4 C8_4 1_555 1_555
O3_4 Cd3 1_555 1_555
O4_4 Cd3 1_555 1_555
C4_3 C3_4 1_555 1_555
H4_3 C4_3 1_555 1_555
C6_4 N2_2 1_555 1_555
H6_3 C6_4 1_555 1_555
H7_4 C6_4 1_555 1_555
C7_4 N2_2 1_555 1_555
H8_4 C7_4 1_555 1_555
C8_4 C7_4 1_555 1_555
C9_4 C7_4 1_555 1_555
H9_4 C9_4 1_555 1_555
H10_4 C9_4 1_555 1_555
C10_4 C9_4 1_555 1_555
H11_3 C10_4 1_555 1_555
C11_4 C10_4 1_555 1_555
H12_4 C11_4 1_555 1_555
H13_3 C11_4 1_555 1_555
H14_3 C11_4 1_555 1_555
C12_4 C10_4 1_555 1_555
H15_4 C12_4 1_555 1_555
H16_3 C12_4 1_555 1_555
H17_4 C12_4 1_555 1_555
C13_4 O3_4 1_555 1_555
H18_4 C13_4 1_555 1_555
Cd3_3 N2_2 1_555 1_555
N4_3 Cd3 1_555 1_555
O5_3 Cd3 1_555 1_555
O1_2 Cd3_3 1_555 1_555
O4_4 C13_4 1_555 1_555
C3_4 C6_4 1_555 1_555
Cd3_2 O2_5 1_555 1_555
N4_3 H1_4 1_555 1_555
O5_3 C8_5 1_555 1_555
O2_5 C8_5 1_555 1_555
O3_5 Cd3_2 1_555 1_555
O4_5 Cd3_2 1_555 1_555
C4_4 C3_5 1_555 1_555
H4_4 C4_4 1_555 1_555
C6_5 N4_3 1_555 1_555
H6_4 C6_5 1_555 1_555
H7_5 C6_5 1_555 1_555
C7_5 N4_3 1_555 1_555
H8_5 C7_5 1_555 1_555
C8_5 C7_5 1_555 1_555
C9_5 C7_5 1_555 1_555
H9_5 C9_5 1_555 1_555
H10_5 C9_5 1_555 1_555
C10_5 C9_5 1_555 1_555
H11_4 C10_5 1_555 1_555
C11_5 C10_5 1_555 1_555
H12_5 C11_5 1_555 1_555
H13_4 C11_5 1_555 1_555
H14_4 C11_5 1_555 1_555
C12_5 C10_5 1_555 1_555
H15_5 C12_5 1_555 1_555
H16_4 C12_5 1_555 1_555
H17_5 C12_5 1_555 1_555
C13_5 O3_5 1_555 1_555
H18_5 C13_5 1_555 1_555
N4_4 Cd3_2 1_555 1_555
O4_5 C13_5 1_555 1_555
C3_5 C6_5 1_555 1_555
N3_2 C1_4 1_555 1_555
C1_4 H2_4 1_555 1_555
C2_4 C1_4 1_555 1_555
C5_5 N3_2 1_555 1_555
H5_5 C5_5 1_555 1_555
Cd3_3 O2_6 1_555 1_555
O5_4 C8_6 1_555 1_555
O2_6 C8_6 1_555 1_555
O3_6 Cd3_3 1_555 1_555
O4_6 Cd3_3 1_555 1_555
C13_6 O3_6 1_555 1_555
H18_6 C13_6 1_555 1_555
O4_6 C13_6 1_555 1_555
N3_3 C1_5 1_555 1_555
N4_4 H1_5 1_555 1_555
C1_5 H2_5 1_555 1_555
C2_5 C1_5 1_555 1_555
H3_6 C2_5 1_555 1_555
C3_6 C2_5 1_555 1_555
C4_5 C3_6 1_555 1_555
H4_5 C4_5 1_555 1_555
C5_6 N3_3 1_555 1_555
H5_6 C5_6 1_555 1_555
C6_6 N4_4 1_555 1_555
H6_5 C6_6 1_555 1_555
H7_6 C6_6 1_555 1_555
C7_6 N4_4 1_555 1_555
H8_6 C7_6 1_555 1_555
C9_6 C7_6 1_555 1_555
H9_6 C9_6 1_555 1_555
H10_6 C9_6 1_555 1_555
C10_6 C9_6 1_555 1_555
H11_5 C10_6 1_555 1_555
C11_6 C10_6 1_555 1_555
H12_6 C11_6 1_555 1_555
H13_5 C11_6 1_555 1_555
H14_5 C11_6 1_555 1_555
C12_6 C10_6 1_555 1_555
H15_6 C12_6 1_555 1_555
H16_5 C12_6 1_555 1_555
H17_6 C12_6 1_555 1_555
C3_6 C6_6 1_555 1_555
C4_5 C5_6 1_555 1_555
C1_6 H2_6 1_555 1_555
C2_6 C1_6 1_555 1_555
H4_6 C4_6 1_555 1_555

#END
