
###############################################################################
#
# This file contains modified crystal structure data generated from the
# MOF subset of the Cambridge Structural Database (CSD) v543 
# hosted by the Cambridge Crystallographic Data Centre (CCDC).
#
# This work is licensed under the Creative Commons
# Attribution-NonCommercial-ShareAlike 4.0 International License.
# To view a copy of this license, visit
# http://creativecommons.org/licenses/by-nc-sa/4.0/
# or send a letter to
# Creative Commons, PO Box 1866, Mountain View, CA 94042, USA.
#
# CIF created using the CSD Python API on 29 September 2022
# The structure has been converted into the P1 space group
# The structure has a 3D framework
# The original CSD entry DAHLIL is in the hexagonal crystal system
# The original CSD entry DAHLIL is in a Sohncke space group
# The framework has been calculated to contain at least 10.0% void space
# The void calculation uses a probe of radius 1.32A, grid spacing 0.4
#
###############################################################################

data_DAHLIL
_chemical_formula_moiety         '(C84 H120 Cd6 N12 O24)n'
_symmetry_cell_setting           triclinic
_symmetry_space_group_name_H-M   'P 1'
_symmetry_Int_Tables_number      1
_space_group_name_Hall           'P 1'
loop_
_symmetry_equiv_pos_site_id
_symmetry_equiv_pos_as_xyz
1 x,y,z
_cell_length_a                   16.320(3)
_cell_length_b                   16.320(3)
_cell_length_c                   14.387(3)
_cell_angle_alpha                90
_cell_angle_beta                 90
_cell_angle_gamma                120
_cell_volume                     3318.5
loop_
_atom_site_label
_atom_site_type_symbol
_atom_site_fract_x
_atom_site_fract_y
_atom_site_fract_z
Cd1 Cd 0.65402(10) 0.38504(9) 0.08176(8)
N2 N 0.6308(11) 0.2345(11) 0.0566(9)
O1 O 0.6349(9) 0.3054(9) 0.2272(8)
O2 O 0.6522(10) 0.1937(9) 0.2948(8)
O3 O 0.7548(10) 0.5426(10) 0.0255(9)
O4 O 0.7991(11) 0.4931(10) 0.1456(11)
C3 C 0.5014(13) 0.0660(12) 0.0307(12)
C6 C 0.5278(14) 0.1649(13) 0.0520(13)
H6 H 0.4991 0.1655 0.1124
H7 H 0.4993 0.1865 0.0041
C7 C 0.6790(12) 0.2116(12) 0.1293(13)
H8 H 0.6569 0.1423 0.1283
C8 C 0.6519(13) 0.2393(14) 0.2252(11)
C9 C 0.7872(14) 0.2688(16) 0.1209(13)
H9 H 0.8072 0.3369 0.1234
H10 H 0.8148 0.2546 0.1756
C10 C 0.8274(14) 0.2518(17) 0.0368(14)
C11 C 0.806(2) 0.1520(19) 0.0238(18)
H12 H 0.8250 0.1312 0.0795
H14 H 0.7378 0.1109 0.0137
C12 C 0.9357(17) 0.321(2) 0.0330(18)
H15 H 0.9479 0.3859 0.0241
H17 H 0.9647 0.3175 0.0914
C13 C 0.8116(15) 0.5575(16) 0.0929(16)
C14 C 0.892(2) 0.6568(17) 0.106(2)
H18 H 0.8670 0.6964 0.1302
H19 H 0.9229 0.6820 0.0462
H20 H 0.9374 0.6567 0.1501
Cd2 Cd 0.61496(9) 0.26898(13) 0.41509(8)
N3 N 0.5623(16) 0.4413(12) 0.1470(10)
H1 H 0.6597 0.2343 0.9954
C4 C 0.5415(15) 0.0443(13) 0.9556(13)
H4 H 0.5914 0.0936 0.9211
H11 H 0.7991 0.2673 0.9826
H13 H 0.8406 0.1486 0.9698
H16 H 0.9630 0.3039 0.9811
O5 O 0.6705(13) 0.3651(9) 0.8939(8)
O6 O 0.5415(13) 0.3478(10) 0.9615(8)
N1 N 0.4413(12) 0.8790(11) 0.9803(10)
C5 C 0.5087(15) 0.9516(12) 0.9320(12)
H5 H 0.5349 0.9384 0.8791
Cd3 Cd 0.38504(9) 0.73102(13) 0.91509(8)
Cd1_2 Cd 0.26898(13) 0.65402(10) 0.24843(8)
N2_2 N 0.3963(16) 0.6308(11) 0.2233(9)
H1_2 H 0.4254 0.6597 0.1621
O1_2 O 0.3295(13) 0.6349(9) 0.3939(8)
O2_2 O 0.4585(13) 0.6522(10) 0.4615(8)
O3_2 O 0.2122(14) 0.7548(10) 0.1922(9)
O4_2 O 0.3060(15) 0.7991(11) 0.3123(11)
C1 C 0.5050(20) 0.4041(14) 0.2203(12)
H2 H 0.5084 0.3564 0.2551
C2 C 0.4421(19) 0.4309(14) 0.2476(13)
H3 H 0.4028 0.4022 0.3002
C3_2 C 0.4354(18) 0.5014(13) 0.1974(12)
C4_2 C 0.4972(20) 0.5415(15) 0.1223(13)
H4_2 H 0.4978 0.5914 0.0878
C5_2 C 0.5571(19) 0.5087(15) 0.0987(12)
H5_2 H 0.5965 0.5349 0.0458
C6_2 C 0.3629(19) 0.5278(14) 0.2187(13)
H6_2 H 0.3336 0.4991 0.2791
H7_2 H 0.3128 0.4993 0.1708
C7_2 C 0.4674(17) 0.6790(12) 0.2960(13)
H8_2 H 0.5146 0.6569 0.2950
C8_2 C 0.4126(19) 0.6519(13) 0.3919(11)
C9_2 C 0.5184(21) 0.7872(14) 0.2876(13)
H9_2 H 0.4703 0.8072 0.2901
H10_2 H 0.5602 0.8148 0.3423
C10_2 C 0.5756(22) 0.8274(14) 0.2035(14)
H11_2 H 0.5318 0.7991 0.1493
C11_2 C 0.6540(28) 0.806(2) 0.1905(18)
H12_2 H 0.6938 0.8250 0.2462
H13_2 H 0.6920 0.8406 0.1365
H14_2 H 0.6269 0.7378 0.1804
C12_2 C 0.6147(26) 0.9357(17) 0.1997(18)
H15_2 H 0.5620 0.9479 0.1908
H16_2 H 0.6591 0.9630 0.1478
H17_2 H 0.6472 0.9647 0.2581
C13_2 C 0.2541(22) 0.8116(15) 0.2596(16)
C14_2 C 0.2352(26) 0.892(2) 0.273(2)
H18_2 H 0.1706 0.8670 0.2969
H19_2 H 0.2409 0.9229 0.2129
H20_2 H 0.2807 0.9374 0.3168
Cd2_2 Cd 0.34598(16) 0.61496(9) 0.58176(8)
N3_2 N 0.1210(20) 0.5623(16) 0.3136(10)
O5_2 O 0.3054(16) 0.6705(13) 0.0605(8)
O6_2 O 0.1937(16) 0.5415(13) 0.1281(8)
C1_2 C 0.1009(14) 0.5050(20) 0.3869(12)
H2_2 H 0.1520 0.5084 0.4217
C2_2 C 0.0112(13) 0.4421(19) 0.4142(13)
H3_2 H 0.0006 0.4028 0.4668
C5_3 C 0.0484(12) 0.5571(19) 0.2653(12)
H5_3 H 0.0616 0.5965 0.2124
N2_3 N 0.7655(11) 0.3963(16) 0.3899(9)
H1_3 H 0.7657 0.4254 0.3287
O1_3 O 0.6946(9) 0.3295(13) 0.5605(8)
O2_3 O 0.8063(9) 0.4585(13) 0.6281(8)
O3_3 O 0.4574(10) 0.2122(14) 0.3588(9)
O4_3 O 0.5069(10) 0.3060(15) 0.4789(11)
C3_3 C 0.9340(12) 0.4354(18) 0.3640(12)
C4_3 C 0.9557(13) 0.4972(20) 0.2889(13)
H4_3 H 0.9064 0.4978 0.2544
C6_3 C 0.8351(13) 0.3629(19) 0.3853(13)
H6_3 H 0.8345 0.3336 0.4457
H7_3 H 0.8135 0.3128 0.3374
C7_3 C 0.7884(12) 0.4674(17) 0.4626(13)
H8_3 H 0.8577 0.5146 0.4616
C8_3 C 0.7607(14) 0.4126(19) 0.5585(11)
C9_3 C 0.7312(16) 0.5184(21) 0.4542(13)
H9_3 H 0.6631 0.4703 0.4567
H10_3 H 0.7454 0.5602 0.5089
C10_3 C 0.7482(17) 0.5756(22) 0.3701(14)
H11_3 H 0.7327 0.5318 0.3159
C11_3 C 0.8480(19) 0.6540(28) 0.3571(18)
H12_3 H 0.8688 0.6938 0.4128
H13_3 H 0.8514 0.6920 0.3031
H14_3 H 0.8891 0.6269 0.3470
C12_3 C 0.679(2) 0.6147(26) 0.3663(18)
H15_3 H 0.6141 0.5620 0.3574
H16_3 H 0.6961 0.6591 0.3144
H17_3 H 0.6825 0.6472 0.4247
C13_3 C 0.4425(16) 0.2541(22) 0.4262(16)
C14_3 C 0.3432(17) 0.2352(26) 0.439(2)
H18_3 H 0.3036 0.1706 0.4635
H19_3 H 0.3180 0.2409 0.3795
H20_3 H 0.3433 0.2807 0.4834
Cd2_3 Cd 0.73102(13) 0.34598(16) 0.74843(8)
N3_3 N 0.5587(12) 0.1210(20) 0.4803(10)
C1_3 C 0.5959(14) 0.1009(14) 0.5536(12)
H2_3 H 0.6436 0.1520 0.5884
C2_3 C 0.5691(14) 0.0112(13) 0.5809(13)
H3_3 H 0.5978 0.0006 0.6335
C5_4 C 0.4913(15) 0.0484(12) 0.4320(12)
H5_4 H 0.4651 0.0616 0.3791
N2_4 N 0.3692(11) 0.7655(11) 0.5566(9)
H1_4 H 0.3403 0.7657 0.4954
O1_4 O 0.3651(9) 0.6946(9) 0.7272(8)
O2_4 O 0.3478(10) 0.8063(9) 0.7948(8)
O3_4 O 0.2452(10) 0.4574(10) 0.5255(9)
O4_4 O 0.2009(11) 0.5069(10) 0.6456(11)
C3_4 C 0.4986(13) 0.9340(12) 0.5307(12)
C4_4 C 0.4585(15) 0.9557(13) 0.4556(13)
H4_4 H 0.4086 0.9064 0.4211
C6_4 C 0.4722(14) 0.8351(13) 0.5520(13)
H6_4 H 0.5009 0.8345 0.6124
H7_4 H 0.5007 0.8135 0.5041
C7_4 C 0.3210(12) 0.7884(12) 0.6293(13)
H8_4 H 0.3431 0.8577 0.6283
C8_4 C 0.3481(13) 0.7607(14) 0.7252(11)
C9_4 C 0.2128(14) 0.7312(16) 0.6209(13)
H9_4 H 0.1928 0.6631 0.6234
H10_4 H 0.1852 0.7454 0.6756
C10_4 C 0.1726(14) 0.7482(17) 0.5368(14)
H11_4 H 0.2009 0.7327 0.4826
C11_4 C 0.194(2) 0.8480(19) 0.5238(18)
H12_4 H 0.1750 0.8688 0.5795
H13_4 H 0.1594 0.8514 0.4698
H14_4 H 0.2622 0.8891 0.5137
C12_4 C 0.0643(17) 0.679(2) 0.5330(18)
H15_4 H 0.0521 0.6141 0.5241
H16_4 H 0.0370 0.6961 0.4811
H17_4 H 0.0353 0.6825 0.5914
C13_4 C 0.1884(15) 0.4425(16) 0.5929(16)
C14_4 C 0.108(2) 0.3432(17) 0.606(2)
H18_4 H 0.1330 0.3036 0.6302
H19_4 H 0.0771 0.3180 0.5462
H20_4 H 0.0626 0.3433 0.6501
N3_4 N 0.4377(16) 0.5587(12) 0.6470(10)
N2_5 N 0.6037(16) 0.3692(11) 0.7233(9)
H1_5 H 0.5746 0.3403 0.6621
O3_5 O 0.7878(14) 0.2452(10) 0.6922(9)
O4_5 O 0.6940(15) 0.2009(11) 0.8123(11)
C1_4 C 0.4950(20) 0.5959(14) 0.7203(12)
H2_4 H 0.4916 0.6436 0.7551
C2_4 C 0.5579(19) 0.5691(14) 0.7476(13)
H3_4 H 0.5972 0.5978 0.8002
C3_5 C 0.5646(18) 0.4986(13) 0.6974(12)
C4_5 C 0.5028(20) 0.4585(15) 0.6223(13)
H4_5 H 0.5022 0.4086 0.5878
C5_5 C 0.4429(19) 0.4913(15) 0.5987(12)
H5_5 H 0.4035 0.4651 0.5458
C6_5 C 0.6371(19) 0.4722(14) 0.7187(13)
H6_5 H 0.6664 0.5009 0.7791
H7_5 H 0.6872 0.5007 0.6708
C7_5 C 0.5326(17) 0.3210(12) 0.7960(13)
H8_5 H 0.4854 0.3431 0.7950
C8_5 C 0.5874(19) 0.3481(13) 0.8919(11)
C9_5 C 0.4816(21) 0.2128(14) 0.7876(13)
H9_5 H 0.5297 0.1928 0.7901
H10_5 H 0.4398 0.1852 0.8423
C10_5 C 0.4244(22) 0.1726(14) 0.7035(14)
H11_5 H 0.4682 0.2009 0.6493
C11_5 C 0.3460(28) 0.194(2) 0.6905(18)
H12_5 H 0.3062 0.1750 0.7462
H13_5 H 0.3080 0.1594 0.6365
H14_5 H 0.3731 0.2622 0.6804
C12_5 C 0.3853(26) 0.0643(17) 0.6997(18)
H15_5 H 0.4380 0.0521 0.6908
H16_5 H 0.3409 0.0370 0.6478
H17_5 H 0.3528 0.0353 0.7581
C13_5 C 0.7459(22) 0.1884(15) 0.7596(16)
C14_5 C 0.7648(26) 0.108(2) 0.773(2)
H18_5 H 0.8294 0.1330 0.7969
H19_5 H 0.7591 0.0771 0.7129
H20_5 H 0.7193 0.0626 0.8168
N3_5 N 0.8790(20) 0.4377(16) 0.8136(10)
C8_6 C 0.2393(14) 0.5874(19) 0.0585(11)
H10_6 H 0.2546 0.4398 0.0089
N2_6 N 0.2345(11) 0.6037(16) 0.8899(9)
H1_6 H 0.2343 0.5746 0.8287
O3_6 O 0.5426(10) 0.7878(14) 0.8588(9)
O4_6 O 0.4931(10) 0.6940(15) 0.9789(11)
C3_6 C 0.0660(12) 0.5646(18) 0.8640(12)
C4_6 C 0.0443(13) 0.5028(20) 0.7889(13)
H4_6 H 0.0936 0.5022 0.7544
C6_6 C 0.1649(13) 0.6371(19) 0.8853(13)
H6_6 H 0.1655 0.6664 0.9457
H7_6 H 0.1865 0.6872 0.8374
C7_6 C 0.2116(12) 0.5326(17) 0.9626(13)
H8_6 H 0.1423 0.4854 0.9616
C9_6 C 0.2688(16) 0.4816(21) 0.9542(13)
H9_6 H 0.3369 0.5297 0.9567
C10_6 C 0.2518(17) 0.4244(22) 0.8701(14)
H11_6 H 0.2673 0.4682 0.8159
C11_6 C 0.1520(19) 0.3460(28) 0.8571(18)
H12_6 H 0.1312 0.3062 0.9128
H13_6 H 0.1486 0.3080 0.8031
H14_6 H 0.1109 0.3731 0.8470
C12_6 C 0.321(2) 0.3853(26) 0.8663(18)
H15_6 H 0.3859 0.4380 0.8574
H16_6 H 0.3039 0.3409 0.8144
H17_6 H 0.3175 0.3528 0.9247
C13_6 C 0.5575(16) 0.7459(22) 0.9262(16)
C14_6 C 0.6568(17) 0.7648(26) 0.939(2)
H18_6 H 0.6964 0.8294 0.9635
H19_6 H 0.6820 0.7591 0.8795
H20_6 H 0.6567 0.7193 0.9834
C1_5 C 0.8991(14) 0.4950(20) 0.8869(12)
H2_5 H 0.8480 0.4916 0.9217
C2_5 C 0.9888(13) 0.5579(19) 0.9142(13)
H3_5 H 0.9994 0.5972 0.9668
C5_6 C 0.9516(12) 0.4429(19) 0.7653(12)
H5_6 H 0.9384 0.4035 0.7124
C1_6 C 0.4041(14) 0.8991(14) 0.0536(12)
H2_6 H 0.3564 0.8480 0.0884
C2_6 C 0.4309(14) 0.9888(13) 0.0809(13)
H3_6 H 0.4022 0.9994 0.1335
loop_
_geom_bond_atom_site_label_1
_geom_bond_atom_site_label_2
_geom_bond_site_symmetry_1
_geom_bond_site_symmetry_2
Cd1 N2 1_555 1_555
O1 Cd1 1_555 1_555
O2 C8 1_555 1_555
O3 Cd1 1_555 1_555
O4 Cd1 1_555 1_555
C6 N2 1_555 1_555
H6 C6 1_555 1_555
H7 C6 1_555 1_555
C7 N2 1_555 1_555
H8 C7 1_555 1_555
C8 O1 1_555 1_555
C9 C7 1_555 1_555
H9 C9 1_555 1_555
H10 C9 1_555 1_555
C10 C9 1_555 1_555
C11 C10 1_555 1_555
H12 C11 1_555 1_555
H14 C11 1_555 1_555
C12 C10 1_555 1_555
H15 C12 1_555 1_555
H17 C12 1_555 1_555
C13 O3 1_555 1_555
C14 C13 1_555 1_555
H18 C14 1_555 1_555
H19 C14 1_555 1_555
H20 C14 1_555 1_555
Cd2 O1 1_555 1_555
N3 Cd1 1_555 1_555
O2 Cd2 1_555 1_555
O4 C13 1_555 1_555
C3 C6 1_555 1_555
C7 C8 1_555 1_555
H4 C4 1_555 1_555
C5 N1 1_555 1_555
H5 C5 1_555 1_555
Cd3 N1 1_555 1_555
Cd1_2 N2_2 1_555 1_555
N3 C1 1_555 1_555
N2_2 H1_2 1_555 1_555
O1_2 Cd1_2 1_555 1_555
O2_2 C8_2 1_555 1_555
O3_2 Cd1_2 1_555 1_555
O4_2 Cd1_2 1_555 1_555
C1 H2 1_555 1_555
C2 C1 1_555 1_555
H3 C2 1_555 1_555
C3_2 C2 1_555 1_555
C4_2 C3_2 1_555 1_555
H4_2 C4_2 1_555 1_555
C5_2 N3 1_555 1_555
H5_2 C5_2 1_555 1_555
C6_2 N2_2 1_555 1_555
H6_2 C6_2 1_555 1_555
H7_2 C6_2 1_555 1_555
C7_2 N2_2 1_555 1_555
H8_2 C7_2 1_555 1_555
C8_2 O1_2 1_555 1_555
C9_2 C7_2 1_555 1_555
H9_2 C9_2 1_555 1_555
H10_2 C9_2 1_555 1_555
C10_2 C9_2 1_555 1_555
H11_2 C10_2 1_555 1_555
C11_2 C10_2 1_555 1_555
H12_2 C11_2 1_555 1_555
H13_2 C11_2 1_555 1_555
H14_2 C11_2 1_555 1_555
C12_2 C10_2 1_555 1_555
H15_2 C12_2 1_555 1_555
H16_2 C12_2 1_555 1_555
H17_2 C12_2 1_555 1_555
C13_2 O3_2 1_555 1_555
C14_2 C13_2 1_555 1_555
H18_2 C14_2 1_555 1_555
H19_2 C14_2 1_555 1_555
H20_2 C14_2 1_555 1_555
Cd2_2 O1_2 1_555 1_555
N3_2 Cd1_2 1_555 1_555
O5_2 Cd1_2 1_555 1_555
O6_2 Cd1_2 1_555 1_555
O2_2 Cd2_2 1_555 1_555
O4_2 C13_2 1_555 1_555
C3_2 C6_2 1_555 1_555
C4_2 C5_2 1_555 1_555
C7_2 C8_2 1_555 1_555
N3_2 C1_2 1_555 1_555
C1_2 H2_2 1_555 1_555
C2_2 C1_2 1_555 1_555
H3_2 C2_2 1_555 1_555
C5_3 N3_2 1_555 1_555
H5_3 C5_3 1_555 1_555
Cd2 N2_3 1_555 1_555
N2_3 H1_3 1_555 1_555
O1_3 Cd2 1_555 1_555
O2_3 C8_3 1_555 1_555
O3_3 Cd2 1_555 1_555
O4_3 Cd2 1_555 1_555
C4_3 C3_3 1_555 1_555
H4_3 C4_3 1_555 1_555
C6_3 N2_3 1_555 1_555
H6_3 C6_3 1_555 1_555
H7_3 C6_3 1_555 1_555
C7_3 N2_3 1_555 1_555
H8_3 C7_3 1_555 1_555
C8_3 O1_3 1_555 1_555
C9_3 C7_3 1_555 1_555
H9_3 C9_3 1_555 1_555
H10_3 C9_3 1_555 1_555
C10_3 C9_3 1_555 1_555
H11_3 C10_3 1_555 1_555
C11_3 C10_3 1_555 1_555
H12_3 C11_3 1_555 1_555
H13_3 C11_3 1_555 1_555
H14_3 C11_3 1_555 1_555
C12_3 C10_3 1_555 1_555
H15_3 C12_3 1_555 1_555
H16_3 C12_3 1_555 1_555
H17_3 C12_3 1_555 1_555
C13_3 O3_3 1_555 1_555
C14_3 C13_3 1_555 1_555
H18_3 C14_3 1_555 1_555
H19_3 C14_3 1_555 1_555
H20_3 C14_3 1_555 1_555
Cd2_3 O1_3 1_555 1_555
N3_3 Cd2 1_555 1_555
O2_3 Cd2_3 1_555 1_555
O4_3 C13_3 1_555 1_555
C3_3 C6_3 1_555 1_555
C7_3 C8_3 1_555 1_555
N3_3 C1_3 1_555 1_555
C1_3 H2_3 1_555 1_555
C2_3 C1_3 1_555 1_555
H3_3 C2_3 1_555 1_555
C5_4 N3_3 1_555 1_555
H5_4 C5_4 1_555 1_555
Cd2_2 N2_4 1_555 1_555
N2_4 H1_4 1_555 1_555
O1_4 Cd2_2 1_555 1_555
O2_4 C8_4 1_555 1_555
O3_4 Cd2_2 1_555 1_555
O4_4 Cd2_2 1_555 1_555
C4_4 C3_4 1_555 1_555
H4_4 C4_4 1_555 1_555
C6_4 N2_4 1_555 1_555
H6_4 C6_4 1_555 1_555
H7_4 C6_4 1_555 1_555
C7_4 N2_4 1_555 1_555
H8_4 C7_4 1_555 1_555
C8_4 O1_4 1_555 1_555
C9_4 C7_4 1_555 1_555
H9_4 C9_4 1_555 1_555
H10_4 C9_4 1_555 1_555
C10_4 C9_4 1_555 1_555
H11_4 C10_4 1_555 1_555
C11_4 C10_4 1_555 1_555
H12_4 C11_4 1_555 1_555
H13_4 C11_4 1_555 1_555
H14_4 C11_4 1_555 1_555
C12_4 C10_4 1_555 1_555
H15_4 C12_4 1_555 1_555
H16_4 C12_4 1_555 1_555
H17_4 C12_4 1_555 1_555
C13_4 O3_4 1_555 1_555
C14_4 C13_4 1_555 1_555
H18_4 C14_4 1_555 1_555
H19_4 C14_4 1_555 1_555
H20_4 C14_4 1_555 1_555
Cd3 O1_4 1_555 1_555
N3_4 Cd2_2 1_555 1_555
O2_4 Cd3 1_555 1_555
O4_4 C13_4 1_555 1_555
C3_4 C6_4 1_555 1_555
C7_4 C8_4 1_555 1_555
Cd2_3 N2_5 1_555 1_555
N3_4 C1_4 1_555 1_555
N2_5 H1_5 1_555 1_555
O5 Cd2_3 1_555 1_555
O6 C8_5 1_555 1_555
O3_5 Cd2_3 1_555 1_555
O4_5 Cd2_3 1_555 1_555
C1_4 H2_4 1_555 1_555
C2_4 C1_4 1_555 1_555
H3_4 C2_4 1_555 1_555
C3_5 C2_4 1_555 1_555
C4_5 C3_5 1_555 1_555
H4_5 C4_5 1_555 1_555
C5_5 N3_4 1_555 1_555
H5_5 C5_5 1_555 1_555
C6_5 N2_5 1_555 1_555
H6_5 C6_5 1_555 1_555
H7_5 C6_5 1_555 1_555
C7_5 N2_5 1_555 1_555
H8_5 C7_5 1_555 1_555
C8_5 O5 1_555 1_555
C9_5 C7_5 1_555 1_555
H9_5 C9_5 1_555 1_555
H10_5 C9_5 1_555 1_555
C10_5 C9_5 1_555 1_555
H11_5 C10_5 1_555 1_555
C11_5 C10_5 1_555 1_555
H12_5 C11_5 1_555 1_555
H13_5 C11_5 1_555 1_555
H14_5 C11_5 1_555 1_555
C12_5 C10_5 1_555 1_555
H15_5 C12_5 1_555 1_555
H16_5 C12_5 1_555 1_555
H17_5 C12_5 1_555 1_555
C13_5 O3_5 1_555 1_555
C14_5 C13_5 1_555 1_555
H18_5 C14_5 1_555 1_555
H19_5 C14_5 1_555 1_555
H20_5 C14_5 1_555 1_555
N3_5 Cd2_3 1_555 1_555
O4_5 C13_5 1_555 1_555
C3_5 C6_5 1_555 1_555
C4_5 C5_5 1_555 1_555
C7_5 C8_5 1_555 1_555
O6_2 C8_6 1_555 1_555
C8_6 O5_2 1_555 1_555
Cd3 N2_6 1_555 1_555
N2_6 H1_6 1_555 1_555
O3_6 Cd3 1_555 1_555
O4_6 Cd3 1_555 1_555
C4_6 C3_6 1_555 1_555
H4_6 C4_6 1_555 1_555
C6_6 N2_6 1_555 1_555
H6_6 C6_6 1_555 1_555
H7_6 C6_6 1_555 1_555
C7_6 N2_6 1_555 1_555
H8_6 C7_6 1_555 1_555
C9_6 C7_6 1_555 1_555
H9_6 C9_6 1_555 1_555
C10_6 C9_6 1_555 1_555
H11_6 C10_6 1_555 1_555
C11_6 C10_6 1_555 1_555
H12_6 C11_6 1_555 1_555
H13_6 C11_6 1_555 1_555
H14_6 C11_6 1_555 1_555
C12_6 C10_6 1_555 1_555
H15_6 C12_6 1_555 1_555
H16_6 C12_6 1_555 1_555
H17_6 C12_6 1_555 1_555
C13_6 O3_6 1_555 1_555
C14_6 C13_6 1_555 1_555
H18_6 C14_6 1_555 1_555
H19_6 C14_6 1_555 1_555
H20_6 C14_6 1_555 1_555
O4_6 C13_6 1_555 1_555
C3_6 C6_6 1_555 1_555
N3_5 C1_5 1_555 1_555
C1_5 H2_5 1_555 1_555
C2_5 C1_5 1_555 1_555
H3_5 C2_5 1_555 1_555
C5_6 N3_5 1_555 1_555
H5_6 C5_6 1_555 1_555
C1_6 H2_6 1_555 1_555
C2_6 C1_6 1_555 1_555
H3_6 C2_6 1_555 1_555

#END
