
###############################################################################
#
# This file contains modified crystal structure data generated from the
# MOF subset of the Cambridge Structural Database (CSD) v543 
# hosted by the Cambridge Crystallographic Data Centre (CCDC).
#
# This work is licensed under the Creative Commons
# Attribution-NonCommercial-ShareAlike 4.0 International License.
# To view a copy of this license, visit
# http://creativecommons.org/licenses/by-nc-sa/4.0/
# or send a letter to
# Creative Commons, PO Box 1866, Mountain View, CA 94042, USA.
#
# CIF created using the CSD Python API on 29 September 2022
# The structure has been converted into the P1 space group
# The structure has a 3D framework
# The original CSD entry DAJHUS is in the monoclinic crystal system
# The framework has been calculated to contain at least 10.0% void space
# The void calculation uses a probe of radius 1.32A, grid spacing 0.4
#
###############################################################################

data_DAJHUS
_chemical_formula_moiety         '(C144 H88 Co8 N8 O32)n'
_symmetry_cell_setting           triclinic
_symmetry_space_group_name_H-M   'P 1'
_symmetry_Int_Tables_number      1
_space_group_name_Hall           'P 1'
loop_
_symmetry_equiv_pos_site_id
_symmetry_equiv_pos_as_xyz
1 x,y,z
_cell_length_a                   16.900(3)
_cell_length_b                   20.189(3)
_cell_length_c                   12.1277(18)
_cell_angle_alpha                90.00
_cell_angle_beta                 116.888(12)
_cell_angle_gamma                90.00
_cell_volume                     3690.56
loop_
_atom_site_label
_atom_site_type_symbol
_atom_site_fract_x
_atom_site_fract_y
_atom_site_fract_z
C19 C 0.2787(3) 0.2701(2) 0.0376(3)
C20 C 0.3136(2) 0.27148(19) 0.1734(3)
C21 C 0.3812(3) 0.3150(2) 0.2405(3)
C22 C 0.4159(2) 0.31632(18) 0.3666(3)
H12 H 0.4619 0.3458 0.4100
N2 N 0.38759(16) 0.27752(11) 0.4311(2)
C23 C 0.3206(2) 0.23645(16) 0.3664(3)
C24 C 0.2823(2) 0.23203(18) 0.2383(3)
H13 H 0.2359 0.2027 0.1964
H14 H 0.2986 0.2097 0.4087
H15 H 0.4030 0.3433 0.2003
H16 H 0.3009 0.3018 0.0032
Co5 Co 0.44574(2) 0.280431(16) 0.62234(3)
C19_2 C 0.7787(3) 0.7701(2) 0.0376(3)
C20_2 C 0.8136(2) 0.77148(19) 0.1734(3)
C21_2 C 0.8812(3) 0.8150(2) 0.2405(3)
C22_2 C 0.9159(2) 0.81632(18) 0.3666(3)
H12_2 H 0.9619 0.8458 0.4100
N2_2 N 0.88759(16) 0.77752(11) 0.4311(2)
C23_2 C 0.8206(2) 0.73645(16) 0.3664(3)
C24_2 C 0.7823(2) 0.73203(18) 0.2383(3)
H13_2 H 0.7359 0.7027 0.1964
H14_2 H 0.7986 0.7097 0.4087
H15_2 H 0.9030 0.8433 0.2003
H16_2 H 0.8009 0.8018 0.0032
Co5_2 Co 0.94574(2) 0.780431(16) 0.62234(3)
O7 O 0.37252(14) 0.20908(10) 0.64635(19)
O8 O 0.45653(14) 0.21303(10) 0.8509(2)
C27 C 0.2550(2) 0.02263(15) 0.8047(3)
C28 C 0.3237(2) 0.05499(18) 0.9070(3)
H18 H 0.3401 0.0392 0.9865
C29 C 0.3657(2) 0.10853(17) 0.8910(3)
H19 H 0.4100 0.1294 0.9595
C30 C 0.34294(19) 0.13300(14) 0.7706(3)
C31 C 0.27450(19) 0.10429(14) 0.6710(3)
H20 H 0.2577 0.1217 0.5926
C32 C 0.22879(19) 0.04895(14) 0.6844(3)
C33 C 0.1569(2) 0.01876(16) 0.5828(3)
H21 H 0.1375 0.0365 0.5040
C36 C 0.39433(18) 0.18922(14) 0.7547(3)
Co7 Co 0.55426(2) 0.280431(16) 0.87766(3)
Co1 Co 0.05426(2) 0.780431(16) 0.87766(3)
O5 O 0.03492(14) 0.85332(10) 0.63703(19)
O6 O 0.12282(14) 0.85325(10) 0.84070(18)
C25 C 0.14448(19) 0.93587(14) 0.7179(3)
C26 C 0.2123(2) 0.96518(15) 0.8178(3)
H17 H 0.2305 0.9469 0.8959
C34 C 0.1159(2) 0.96421(16) 0.5988(3)
H22 H 0.0687 0.9453 0.5310
C35 C 0.09775(18) 0.87615(13) 0.7333(3)
O9 O 0.12748(14) 0.70908(10) 0.85365(19)
O12 O 0.04347(14) 0.71303(10) 0.6491(2)
O3 O 0.62748(14) 0.20908(10) 0.85365(19)
O4 O 0.54347(14) 0.21303(10) 0.6491(2)
C3 C 0.7450(2) 0.02263(15) 0.6953(3)
C4 C 0.6763(2) 0.05499(18) 0.5930(3)
H2 H 0.6599 0.0392 0.5135
C5 C 0.6343(2) 0.10853(17) 0.6090(3)
H3 H 0.5900 0.1294 0.5405
C6 C 0.65706(19) 0.13300(14) 0.7294(3)
C7 C 0.72550(19) 0.10429(14) 0.8290(3)
H4 H 0.7423 0.1217 0.9074
C8 C 0.77121(19) 0.04895(14) 0.8156(3)
C9 C 0.8431(2) 0.01876(16) 0.9172(3)
H5 H 0.8625 0.0365 0.9960
C12 C 0.60567(18) 0.18922(14) 0.7453(3)
O1 O 0.96508(14) 0.85332(10) 0.86297(19)
O2 O 0.87718(14) 0.85325(10) 0.65930(18)
C1 C 0.85552(19) 0.93587(14) 0.7821(3)
C2 C 0.7877(2) 0.96518(15) 0.6822(3)
H1 H 0.7695 0.9469 0.6041
C10 C 0.8841(2) 0.96421(16) 0.9012(3)
H6 H 0.9313 0.9453 0.9690
C11 C 0.90225(18) 0.87615(13) 0.7667(3)
O10 O 0.95653(14) 0.71303(10) 0.8509(2)
O11 O 0.87252(14) 0.70908(10) 0.64635(19)
O1_2 O 0.46508(14) 0.35332(10) 0.86297(19)
O2_2 O 0.37718(14) 0.35325(10) 0.65930(18)
C1_2 C 0.35552(19) 0.43587(14) 0.7821(3)
C2_2 C 0.2877(2) 0.46518(15) 0.6822(3)
H1_2 H 0.2695 0.4469 0.6041
C3_2 C 0.2450(2) 0.52263(15) 0.6953(3)
C4_2 C 0.1763(2) 0.55499(18) 0.5930(3)
H2_2 H 0.1599 0.5392 0.5135
C5_2 C 0.1343(2) 0.60853(17) 0.6090(3)
H3_2 H 0.0900 0.6294 0.5405
C6_2 C 0.15706(19) 0.63300(14) 0.7294(3)
C7_2 C 0.22550(19) 0.60429(14) 0.8290(3)
H4_2 H 0.2423 0.6217 0.9074
C8_2 C 0.27121(19) 0.54895(14) 0.8156(3)
C9_2 C 0.3431(2) 0.51876(16) 0.9172(3)
H5_2 H 0.3625 0.5365 0.9960
C10_2 C 0.3841(2) 0.46421(16) 0.9012(3)
H6_2 H 0.4313 0.4453 0.9690
C11_2 C 0.40225(18) 0.37615(13) 0.7667(3)
C12_2 C 0.10567(18) 0.68922(14) 0.7453(3)
O5_2 O 0.53492(14) 0.35332(10) 0.63703(19)
O6_2 O 0.62282(14) 0.35325(10) 0.84070(18)
C25_2 C 0.64448(19) 0.43587(14) 0.7179(3)
C26_2 C 0.7123(2) 0.46518(15) 0.8178(3)
H17_2 H 0.7305 0.4469 0.8959
C27_2 C 0.7550(2) 0.52263(15) 0.8047(3)
C28_2 C 0.8237(2) 0.55499(18) 0.9070(3)
H18_2 H 0.8401 0.5392 0.9865
C29_2 C 0.8657(2) 0.60853(17) 0.8910(3)
H19_2 H 0.9100 0.6294 0.9595
C30_2 C 0.84294(19) 0.63300(14) 0.7706(3)
C31_2 C 0.77450(19) 0.60429(14) 0.6710(3)
H20_2 H 0.7577 0.6217 0.5926
C32_2 C 0.72879(19) 0.54895(14) 0.6844(3)
C33_2 C 0.6569(2) 0.51876(16) 0.5828(3)
H21_2 H 0.6375 0.5365 0.5040
C34_2 C 0.6159(2) 0.46421(16) 0.5988(3)
H22_2 H 0.5687 0.4453 0.5310
C35_2 C 0.59775(18) 0.37615(13) 0.7333(3)
C36_2 C 0.89433(18) 0.68922(14) 0.7547(3)
Co1_2 Co 0.05426(2) 0.219569(16) 0.37766(3)
C13 C 0.0841(2) 0.18368(18) 0.6334(3)
H7 H 0.0381 0.1542 0.5900
C14 C 0.1188(3) 0.1850(2) 0.7595(3)
H8 H 0.0970 0.1567 0.7997
C15 C 0.1864(2) 0.22852(19) 0.8266(3)
C16 C 0.2177(2) 0.26797(18) 0.7617(3)
H9 H 0.2641 0.2973 0.8036
C17 C 0.1794(2) 0.26355(16) 0.6336(3)
H10 H 0.2014 0.2903 0.5913
C18 C 0.2213(3) 0.2299(2) 0.9624(3)
H11 H 0.1991 0.1982 0.9968
N1 N 0.11241(16) 0.22248(11) 0.5689(2)
O5_3 O 0.03492(14) 0.14668(10) 0.13703(19)
O6_3 O 0.12282(14) 0.14675(10) 0.34070(18)
C25_3 C 0.14448(19) 0.06413(14) 0.2179(3)
C26_3 C 0.2123(2) 0.03482(15) 0.3178(3)
H17_3 H 0.2305 0.0531 0.3959
C34_3 C 0.1159(2) 0.03579(16) 0.0988(3)
H22_3 H 0.0687 0.0547 0.0310
C35_3 C 0.09775(18) 0.12385(13) 0.2333(3)
O9_2 O 0.12748(14) 0.29092(10) 0.35365(19)
O12_2 O 0.04347(14) 0.28697(10) 0.1491(2)
O7_2 O 0.37252(14) 0.79092(10) 0.14635(19)
O8_2 O 0.45653(14) 0.78697(10) 0.3509(2)
C27_3 C 0.2550(2) 0.97737(15) 0.3047(3)
C28_3 C 0.3237(2) 0.94501(18) 0.4070(3)
H18_3 H 0.3401 0.9608 0.4865
C29_3 C 0.3657(2) 0.89147(17) 0.3910(3)
H19_3 H 0.4100 0.8706 0.4595
C30_3 C 0.34294(19) 0.86700(14) 0.2706(3)
C31_3 C 0.27450(19) 0.89571(14) 0.1710(3)
H20_3 H 0.2577 0.8783 0.0926
C32_3 C 0.22879(19) 0.95105(14) 0.1844(3)
C33_3 C 0.1569(2) 0.98124(16) 0.0828(3)
H21_3 H 0.1375 0.9635 0.0040
C36_3 C 0.39433(18) 0.81078(14) 0.2547(3)
Co6 Co 0.44574(2) 0.719569(16) 0.12234(3)
Co7_2 Co 0.55426(2) 0.719569(16) 0.37766(3)
O1_3 O 0.96508(14) 0.14668(10) 0.36297(19)
O2_3 O 0.87718(14) 0.14675(10) 0.15930(18)
C1_3 C 0.85552(19) 0.06413(14) 0.2821(3)
C2_3 C 0.7877(2) 0.03482(15) 0.1822(3)
H1_3 H 0.7695 0.0531 0.1041
C10_3 C 0.8841(2) 0.03579(16) 0.4012(3)
H6_3 H 0.9313 0.0547 0.4690
C11_3 C 0.90225(18) 0.12385(13) 0.2667(3)
Co2 Co 0.94574(2) 0.219569(16) 0.12234(3)
O10_2 O 0.95653(14) 0.28697(10) 0.3509(2)
O11_2 O 0.87252(14) 0.29092(10) 0.14635(19)
O3_2 O 0.62748(14) 0.79092(10) 0.35365(19)
O4_2 O 0.54347(14) 0.78697(10) 0.1491(2)
C3_3 C 0.7450(2) 0.97737(15) 0.1953(3)
C4_3 C 0.6763(2) 0.94501(18) 0.0930(3)
H2_3 H 0.6599 0.9608 0.0135
C5_3 C 0.6343(2) 0.89147(17) 0.1090(3)
H3_3 H 0.5900 0.8706 0.0405
C6_3 C 0.65706(19) 0.86700(14) 0.2294(3)
C7_3 C 0.72550(19) 0.89571(14) 0.3290(3)
H4_3 H 0.7423 0.8783 0.4074
C8_3 C 0.77121(19) 0.95105(14) 0.3156(3)
C9_3 C 0.8431(2) 0.98124(16) 0.4172(3)
H5_3 H 0.8625 0.9635 0.4960
C12_3 C 0.60567(18) 0.81078(14) 0.2453(3)
O1_4 O 0.46508(14) 0.64668(10) 0.36297(19)
O2_4 O 0.37718(14) 0.64675(10) 0.15930(18)
C1_4 C 0.35552(19) 0.56413(14) 0.2821(3)
C2_4 C 0.2877(2) 0.53482(15) 0.1822(3)
H1_4 H 0.2695 0.5531 0.1041
C3_4 C 0.2450(2) 0.47737(15) 0.1953(3)
C4_4 C 0.1763(2) 0.44501(18) 0.0930(3)
H2_4 H 0.1599 0.4608 0.0135
C5_4 C 0.1343(2) 0.39147(17) 0.1090(3)
H3_4 H 0.0900 0.3706 0.0405
C6_4 C 0.15706(19) 0.36700(14) 0.2294(3)
C7_4 C 0.22550(19) 0.39571(14) 0.3290(3)
H4_4 H 0.2423 0.3783 0.4074
C8_4 C 0.27121(19) 0.45105(14) 0.3156(3)
C9_4 C 0.3431(2) 0.48124(16) 0.4172(3)
H5_4 H 0.3625 0.4635 0.4960
C10_4 C 0.3841(2) 0.53579(16) 0.4012(3)
H6_4 H 0.4313 0.5547 0.4690
C11_4 C 0.40225(18) 0.62385(13) 0.2667(3)
C12_4 C 0.10567(18) 0.31078(14) 0.2453(3)
C13_2 C 0.5841(2) 0.68368(18) 0.6334(3)
H7_2 H 0.5381 0.6542 0.5900
C14_2 C 0.6188(3) 0.6850(2) 0.7595(3)
H8_2 H 0.5970 0.6567 0.7997
C15_2 C 0.6864(2) 0.72852(19) 0.8266(3)
C16_2 C 0.7177(2) 0.76797(18) 0.7617(3)
H9_2 H 0.7641 0.7973 0.8036
C17_2 C 0.6794(2) 0.76355(16) 0.6336(3)
H10_2 H 0.7014 0.7903 0.5913
C18_2 C 0.7213(3) 0.7299(2) 0.9624(3)
H11_2 H 0.6991 0.6982 0.9968
N1_2 N 0.61241(16) 0.72248(11) 0.5689(2)
O5_4 O 0.53492(14) 0.64668(10) 0.13703(19)
O6_4 O 0.62282(14) 0.64675(10) 0.34070(18)
C25_4 C 0.64448(19) 0.56413(14) 0.2179(3)
C26_4 C 0.7123(2) 0.53482(15) 0.3178(3)
H17_4 H 0.7305 0.5531 0.3959
C27_4 C 0.7550(2) 0.47737(15) 0.3047(3)
C28_4 C 0.8237(2) 0.44501(18) 0.4070(3)
H18_4 H 0.8401 0.4608 0.4865
C29_4 C 0.8657(2) 0.39147(17) 0.3910(3)
H19_4 H 0.9100 0.3706 0.4595
C30_4 C 0.84294(19) 0.36700(14) 0.2706(3)
C31_4 C 0.77450(19) 0.39571(14) 0.1710(3)
H20_4 H 0.7577 0.3783 0.0926
C32_4 C 0.72879(19) 0.45105(14) 0.1844(3)
C33_4 C 0.6569(2) 0.48124(16) 0.0828(3)
H21_4 H 0.6375 0.4635 0.0040
C34_4 C 0.6159(2) 0.53579(16) 0.0988(3)
H22_4 H 0.5687 0.5547 0.0310
C35_4 C 0.59775(18) 0.62385(13) 0.2333(3)
C36_4 C 0.89433(18) 0.31078(14) 0.2547(3)
N3 N 0.88759(16) 0.22248(11) 0.9311(2)
C13_3 C 0.5841(2) 0.31632(18) 0.1334(3)
H7_3 H 0.5381 0.3458 0.0900
C14_3 C 0.6188(3) 0.3150(2) 0.2595(3)
H8_3 H 0.5970 0.3433 0.2997
C15_3 C 0.6864(2) 0.27148(19) 0.3266(3)
C16_3 C 0.7177(2) 0.23203(18) 0.2617(3)
H9_3 H 0.7641 0.2027 0.3036
C17_3 C 0.6794(2) 0.23645(16) 0.1336(3)
H10_3 H 0.7014 0.2097 0.0913
C18_3 C 0.7213(3) 0.2701(2) 0.4624(3)
H11_3 H 0.6991 0.3018 0.4968
N1_3 N 0.61241(16) 0.27752(11) 0.0689(2)
C19_3 C 0.7787(3) 0.2299(2) 0.5376(3)
C20_3 C 0.8136(2) 0.22852(19) 0.6734(3)
C21_3 C 0.8812(3) 0.1850(2) 0.7405(3)
C22_3 C 0.9159(2) 0.18368(18) 0.8666(3)
H12_3 H 0.9619 0.1542 0.9100
C23_3 C 0.8206(2) 0.26355(16) 0.8664(3)
C24_3 C 0.7823(2) 0.26797(18) 0.7383(3)
H13_3 H 0.7359 0.2973 0.6964
H14_3 H 0.7986 0.2903 0.9087
H15_3 H 0.9030 0.1567 0.7003
H16_3 H 0.8009 0.1982 0.5032
N3_2 N 0.38759(16) 0.72248(11) 0.9311(2)
C13_4 C 0.0841(2) 0.81632(18) 0.1334(3)
H7_4 H 0.0381 0.8458 0.0900
C14_4 C 0.1188(3) 0.8150(2) 0.2595(3)
H8_4 H 0.0970 0.8433 0.2997
C15_4 C 0.1864(2) 0.77148(19) 0.3266(3)
C16_4 C 0.2177(2) 0.73203(18) 0.2617(3)
H9_4 H 0.2641 0.7027 0.3036
C17_4 C 0.1794(2) 0.73645(16) 0.1336(3)
H10_4 H 0.2014 0.7097 0.0913
C18_4 C 0.2213(3) 0.7701(2) 0.4624(3)
H11_4 H 0.1991 0.8018 0.4968
N1_4 N 0.11241(16) 0.77752(11) 0.0689(2)
C19_4 C 0.2787(3) 0.7299(2) 0.5376(3)
C20_4 C 0.3136(2) 0.72852(19) 0.6734(3)
C21_4 C 0.3812(3) 0.6850(2) 0.7405(3)
C22_4 C 0.4159(2) 0.68368(18) 0.8666(3)
H12_4 H 0.4619 0.6542 0.9100
C23_4 C 0.3206(2) 0.76355(16) 0.8664(3)
C24_4 C 0.2823(2) 0.76797(18) 0.7383(3)
H13_4 H 0.2359 0.7973 0.6964
H14_4 H 0.2986 0.7903 0.9087
H15_4 H 0.4030 0.6567 0.7003
H16_4 H 0.3009 0.6982 0.5032
loop_
_geom_bond_atom_site_label_1
_geom_bond_atom_site_label_2
_geom_bond_site_symmetry_1
_geom_bond_site_symmetry_2
C20 C19 1_555 1_555
C21 C20 1_555 1_555
C22 C21 1_555 1_555
H12 C22 1_555 1_555
N2 C22 1_555 1_555
C23 N2 1_555 1_555
C24 C20 1_555 1_555
H13 C24 1_555 1_555
H14 C23 1_555 1_555
H15 C21 1_555 1_555
H16 C19 1_555 1_555
Co5 N2 1_555 1_555
C23 C24 1_555 1_555
C20_2 C19_2 1_555 1_555
C21_2 C20_2 1_555 1_555
C22_2 C21_2 1_555 1_555
H12_2 C22_2 1_555 1_555
N2_2 C22_2 1_555 1_555
C23_2 N2_2 1_555 1_555
C24_2 C20_2 1_555 1_555
H13_2 C24_2 1_555 1_555
H14_2 C23_2 1_555 1_555
H15_2 C21_2 1_555 1_555
H16_2 C19_2 1_555 1_555
Co5_2 N2_2 1_555 1_555
C23_2 C24_2 1_555 1_555
O7 C36 1_555 1_555
O8 C36 1_555 1_555
C28 C27 1_555 1_555
H18 C28 1_555 1_555
C29 C28 1_555 1_555
H19 C29 1_555 1_555
C30 C29 1_555 1_555
C31 C30 1_555 1_555
H20 C31 1_555 1_555
C32 C27 1_555 1_555
C33 C32 1_555 1_555
H21 C33 1_555 1_555
C36 C30 1_555 1_555
Co5 O7 1_555 1_555
Co7 O8 1_555 1_555
C31 C32 1_555 1_555
Co5 Co7 1_555 1_555
O5 C35 1_555 1_555
O6 Co1 1_555 1_555
C25 C26 1_555 1_555
C26 H17 1_555 1_555
C34 C25 1_555 1_555
H22 C34 1_555 1_555
C35 O6 1_555 1_555
O9 Co1 1_555 1_555
C25 C35 1_555 1_555
O3 C12 1_555 1_555
O4 C12 1_555 1_555
C4 C3 1_555 1_555
H2 C4 1_555 1_555
C5 C4 1_555 1_555
H3 C5 1_555 1_555
C6 C5 1_555 1_555
C7 C6 1_555 1_555
H4 C7 1_555 1_555
C8 C3 1_555 1_555
C9 C8 1_555 1_555
H5 C9 1_555 1_555
C12 C6 1_555 1_555
Co7 O3 1_555 1_555
Co5 O4 1_555 1_555
C7 C8 1_555 1_555
O1 C11 1_555 1_555
O2 C11 1_555 1_555
C1 C2 1_555 1_555
C2 H1 1_555 1_555
C10 C1 1_555 1_555
H6 C10 1_555 1_555
C11 C1 1_555 1_555
O11 Co5_2 1_555 1_555
O2 Co5_2 1_555 1_555
Co7 O1_2 1_555 1_555
O1_2 C11_2 1_555 1_555
O2_2 C11_2 1_555 1_555
O9 C12_2 1_555 1_555
O12 C12_2 1_555 1_555
C1_2 C2_2 1_555 1_555
C2_2 H1_2 1_555 1_555
C3_2 C2_2 1_555 1_555
C4_2 C3_2 1_555 1_555
H2_2 C4_2 1_555 1_555
C5_2 C4_2 1_555 1_555
H3_2 C5_2 1_555 1_555
C6_2 C5_2 1_555 1_555
C7_2 C6_2 1_555 1_555
H4_2 C7_2 1_555 1_555
C8_2 C3_2 1_555 1_555
C9_2 C8_2 1_555 1_555
H5_2 C9_2 1_555 1_555
C10_2 C1_2 1_555 1_555
H6_2 C10_2 1_555 1_555
C11_2 C1_2 1_555 1_555
C12_2 C6_2 1_555 1_555
O5_2 C35_2 1_555 1_555
O6_2 Co7 1_555 1_555
O11 C36_2 1_555 1_555
O10 C36_2 1_555 1_555
C25_2 C26_2 1_555 1_555
C26_2 H17_2 1_555 1_555
C27_2 C26_2 1_555 1_555
C28_2 C27_2 1_555 1_555
H18_2 C28_2 1_555 1_555
C29_2 C28_2 1_555 1_555
H19_2 C29_2 1_555 1_555
C30_2 C29_2 1_555 1_555
C31_2 C30_2 1_555 1_555
H20_2 C31_2 1_555 1_555
C32_2 C27_2 1_555 1_555
C33_2 C32_2 1_555 1_555
H21_2 C33_2 1_555 1_555
C34_2 C25_2 1_555 1_555
H22_2 C34_2 1_555 1_555
C35_2 O6_2 1_555 1_555
C36_2 C30_2 1_555 1_555
O2_2 Co5 1_555 1_555
C7_2 C8_2 1_555 1_555
C9_2 C10_2 1_555 1_555
O5_2 Co5 1_555 1_555
C25_2 C35_2 1_555 1_555
C31_2 C32_2 1_555 1_555
C33_2 C34_2 1_555 1_555
C13 H7 1_555 1_555
C14 C13 1_555 1_555
H8 C14 1_555 1_555
C15 C14 1_555 1_555
C16 C15 1_555 1_555
H9 C16 1_555 1_555
C17 C16 1_555 1_555
H10 C17 1_555 1_555
C18 C15 1_555 1_555
H11 C18 1_555 1_555
N1 Co1_2 1_555 1_555
O5_3 C35_3 1_555 1_555
O6_3 Co1_2 1_555 1_555
C25_3 C26_3 1_555 1_555
C26_3 H17_3 1_555 1_555
C34_3 C25_3 1_555 1_555
H22_3 C34_3 1_555 1_555
C35_3 O6_3 1_555 1_555
O9_2 Co1_2 1_555 1_555
C13 N1 1_555 1_555
C17 N1 1_555 1_555
C25_3 C35_3 1_555 1_555
O7_2 C36_3 1_555 1_555
O8_2 C36_3 1_555 1_555
C28_3 C27_3 1_555 1_555
H18_3 C28_3 1_555 1_555
C29_3 C28_3 1_555 1_555
H19_3 C29_3 1_555 1_555
C30_3 C29_3 1_555 1_555
C31_3 C30_3 1_555 1_555
H20_3 C31_3 1_555 1_555
C32_3 C27_3 1_555 1_555
C33_3 C32_3 1_555 1_555
H21_3 C33_3 1_555 1_555
C36_3 C30_3 1_555 1_555
Co6 O7_2 1_555 1_555
Co7_2 O8_2 1_555 1_555
C31_3 C32_3 1_555 1_555
Co6 Co7_2 1_555 1_555
O1_3 C11_3 1_555 1_555
O2_3 C11_3 1_555 1_555
C1_3 C2_3 1_555 1_555
C2_3 H1_3 1_555 1_555
C10_3 C1_3 1_555 1_555
H6_3 C10_3 1_555 1_555
C11_3 C1_3 1_555 1_555
O11_2 Co2 1_555 1_555
O2_3 Co2 1_555 1_555
O3_2 C12_3 1_555 1_555
O4_2 C12_3 1_555 1_555
C4_3 C3_3 1_555 1_555
H2_3 C4_3 1_555 1_555
C5_3 C4_3 1_555 1_555
H3_3 C5_3 1_555 1_555
C6_3 C5_3 1_555 1_555
C7_3 C6_3 1_555 1_555
H4_3 C7_3 1_555 1_555
C8_3 C3_3 1_555 1_555
C9_3 C8_3 1_555 1_555
H5_3 C9_3 1_555 1_555
C12_3 C6_3 1_555 1_555
Co7_2 O3_2 1_555 1_555
Co6 O4_2 1_555 1_555
C7_3 C8_3 1_555 1_555
Co7_2 O1_4 1_555 1_555
O1_4 C11_4 1_555 1_555
O2_4 C11_4 1_555 1_555
O9_2 C12_4 1_555 1_555
O12_2 C12_4 1_555 1_555
C1_4 C2_4 1_555 1_555
C2_4 H1_4 1_555 1_555
C3_4 C2_4 1_555 1_555
C4_4 C3_4 1_555 1_555
H2_4 C4_4 1_555 1_555
C5_4 C4_4 1_555 1_555
H3_4 C5_4 1_555 1_555
C6_4 C5_4 1_555 1_555
C7_4 C6_4 1_555 1_555
H4_4 C7_4 1_555 1_555
C8_4 C3_4 1_555 1_555
C9_4 C8_4 1_555 1_555
H5_4 C9_4 1_555 1_555
C10_4 C1_4 1_555 1_555
H6_4 C10_4 1_555 1_555
C11_4 C1_4 1_555 1_555
C12_4 C6_4 1_555 1_555
C13_2 H7_2 1_555 1_555
C14_2 C13_2 1_555 1_555
H8_2 C14_2 1_555 1_555
C15_2 C14_2 1_555 1_555
C16_2 C15_2 1_555 1_555
H9_2 C16_2 1_555 1_555
C17_2 C16_2 1_555 1_555
H10_2 C17_2 1_555 1_555
C18_2 C15_2 1_555 1_555
H11_2 C18_2 1_555 1_555
N1_2 Co7_2 1_555 1_555
O5_4 C35_4 1_555 1_555
O6_4 Co7_2 1_555 1_555
O11_2 C36_4 1_555 1_555
O10_2 C36_4 1_555 1_555
C25_4 C26_4 1_555 1_555
C26_4 H17_4 1_555 1_555
C27_4 C26_4 1_555 1_555
C28_4 C27_4 1_555 1_555
H18_4 C28_4 1_555 1_555
C29_4 C28_4 1_555 1_555
H19_4 C29_4 1_555 1_555
C30_4 C29_4 1_555 1_555
C31_4 C30_4 1_555 1_555
H20_4 C31_4 1_555 1_555
C32_4 C27_4 1_555 1_555
C33_4 C32_4 1_555 1_555
H21_4 C33_4 1_555 1_555
C34_4 C25_4 1_555 1_555
H22_4 C34_4 1_555 1_555
C35_4 O6_4 1_555 1_555
C36_4 C30_4 1_555 1_555
O2_4 Co6 1_555 1_555
C7_4 C8_4 1_555 1_555
C9_4 C10_4 1_555 1_555
C13_2 N1_2 1_555 1_555
C17_2 N1_2 1_555 1_555
O5_4 Co6 1_555 1_555
C25_4 C35_4 1_555 1_555
C31_4 C32_4 1_555 1_555
C33_4 C34_4 1_555 1_555
C13_3 H7_3 1_555 1_555
C14_3 C13_3 1_555 1_555
H8_3 C14_3 1_555 1_555
C15_3 C14_3 1_555 1_555
C16_3 C15_3 1_555 1_555
H9_3 C16_3 1_555 1_555
C17_3 C16_3 1_555 1_555
H10_3 C17_3 1_555 1_555
C18_3 C15_3 1_555 1_555
H11_3 C18_3 1_555 1_555
C19_3 C18_3 1_555 1_555
C20_3 C19_3 1_555 1_555
C21_3 C20_3 1_555 1_555
C22_3 C21_3 1_555 1_555
H12_3 C22_3 1_555 1_555
N3 C22_3 1_555 1_555
C23_3 N3 1_555 1_555
C24_3 C20_3 1_555 1_555
H13_3 C24_3 1_555 1_555
H14_3 C23_3 1_555 1_555
H15_3 C21_3 1_555 1_555
H16_3 C19_3 1_555 1_555
C13_3 N1_3 1_555 1_555
C17_3 N1_3 1_555 1_555
C23_3 C24_3 1_555 1_555
C13_4 H7_4 1_555 1_555
C14_4 C13_4 1_555 1_555
H8_4 C14_4 1_555 1_555
C15_4 C14_4 1_555 1_555
C16_4 C15_4 1_555 1_555
H9_4 C16_4 1_555 1_555
C17_4 C16_4 1_555 1_555
H10_4 C17_4 1_555 1_555
C18_4 C15_4 1_555 1_555
H11_4 C18_4 1_555 1_555
C19_4 C18_4 1_555 1_555
C20_4 C19_4 1_555 1_555
C21_4 C20_4 1_555 1_555
C22_4 C21_4 1_555 1_555
H12_4 C22_4 1_555 1_555
N3_2 C22_4 1_555 1_555
C23_4 N3_2 1_555 1_555
C24_4 C20_4 1_555 1_555
H13_4 C24_4 1_555 1_555
H14_4 C23_4 1_555 1_555
H15_4 C21_4 1_555 1_555
H16_4 C19_4 1_555 1_555
C13_4 N1_4 1_555 1_555
C17_4 N1_4 1_555 1_555
C23_4 C24_4 1_555 1_555

#END
