
###############################################################################
#
# This file contains modified crystal structure data generated from the
# MOF subset of the Cambridge Structural Database (CSD) v543 
# hosted by the Cambridge Crystallographic Data Centre (CCDC).
#
# This work is licensed under the Creative Commons
# Attribution-NonCommercial-ShareAlike 4.0 International License.
# To view a copy of this license, visit
# http://creativecommons.org/licenses/by-nc-sa/4.0/
# or send a letter to
# Creative Commons, PO Box 1866, Mountain View, CA 94042, USA.
#
# CIF created using the CSD Python API on 29 September 2022
# The structure has been converted into the P1 space group
# The structure has a 3D framework
# The original CSD entry DALMAI is in the monoclinic crystal system
# The framework has been calculated to contain at least 10.0% void space
# The void calculation uses a probe of radius 1.32A, grid spacing 0.4
#
###############################################################################

data_DALMAI
_chemical_formula_moiety         '(C96 H80 N24 Ni6 O24)n'
_symmetry_cell_setting           triclinic
_symmetry_space_group_name_H-M   'P 1'
_symmetry_Int_Tables_number      1
_space_group_name_Hall           'P 1'
loop_
_symmetry_equiv_pos_site_id
_symmetry_equiv_pos_as_xyz
1 x,y,z
_cell_length_a                   18.481(3)
_cell_length_b                   13.1140(10)
_cell_length_c                   14.956(2)
_cell_angle_alpha                90
_cell_angle_beta                 126.958(16)
_cell_angle_gamma                90
_cell_volume                     2896.44
loop_
_atom_site_label
_atom_site_type_symbol
_atom_site_fract_x
_atom_site_fract_y
_atom_site_fract_z
Ni1 Ni 0.250000 0.250000 0.500000
O1 O 0.1597(3) 0.3713(3) 0.4225(3)
O2 O 0.3036(3) 0.3217(3) 0.6517(3)
H1 H 0.262546 0.326959 0.663897
H2 H 0.317156 0.386424 0.650826
O3 O 0.0818(3) 0.3280(3) 0.2417(3)
N1 N 0.3441(3) 0.3326(3) 0.4922(4)
C1 C 0.1004(4) 0.3846(4) 0.3212(5)
C2 C 0.0474(4) 0.4835(4) 0.2867(5)
C3 C 0.4683(4) 0.4643(4) 0.4992(5)
C4 C 0.0473(4) 0.6681(4) 0.2886(5)
N2 N 0.0993(4) 0.7602(4) 0.3283(4)
C5 C 0.3202(5) 0.3897(5) 0.4043(5)
H3 H 0.260835 0.385308 0.339873
C6 C 0.3792(4) 0.4555(5) 0.4036(5)
H4 H 0.359130 0.493095 0.339883
C7 C 0.0939(4) 0.5749(4) 0.3236(5)
H5 H 0.156797 0.574622 0.372418
N3 N 0.1697(5) 0.7704(5) 0.3250(5)
C8 C 0.4291(5) 0.3410(5) 0.5818(6)
H6 H 0.448045 0.301852 0.644282
C9 C 0.4916(5) 0.4052(5) 0.5877(6)
H7 H 0.550499 0.407809 0.653412
C10 C 0.2036(7) 0.8607(7) 0.3715(7)
H8 H 0.253701 0.889226 0.380615
C11 C 0.1584(6) 0.9064(6) 0.4036(8)
H9 H 0.170028 0.969926 0.437376
C12 C 0.0913(6) 0.8394(6) 0.3762(8)
H10 H 0.048237 0.848031 0.388925
N6 N 0.6559(3) 0.6674(3) 0.5078(4)
C20 C 0.5317(4) 0.5357(4) 0.5008(5)
C21 C 0.6798(5) 0.6103(5) 0.5957(5)
H15 H 0.739165 0.614692 0.660127
C22 C 0.6208(4) 0.5445(5) 0.5964(5)
H16 H 0.640870 0.506905 0.660117
C23 C 0.5709(5) 0.6590(5) 0.4182(6)
H17 H 0.551955 0.698148 0.355718
C24 C 0.5084(5) 0.5948(5) 0.4123(6)
H18 H 0.449501 0.592191 0.346588
O6 O 0.1964(3) 0.1783(3) 0.3483(3)
H19 H 0.237454 0.173041 0.336103
H20 H 0.182844 0.113576 0.349174
Ni3 Ni 0.750000 0.750000 0.500000
O7 O 0.3403(3) 0.1287(3) 0.5775(3)
N7 N 0.1559(3) 0.1674(3) 0.5078(4)
O4 O 0.8403(3) 0.3713(3) 0.0775(3)
O5 O 0.9182(3) 0.3280(3) 0.2583(3)
C13 C 0.8996(4) 0.3846(4) 0.1788(5)
C14 C 0.9526(4) 0.4835(4) 0.2133(5)
C15 C 0.9527(4) 0.6681(4) 0.2114(5)
N4 N 0.9007(4) 0.7602(4) 0.1717(4)
C16 C 0.9061(4) 0.5749(4) 0.1764(5)
H11 H 0.843203 0.574622 0.127582
N5 N 0.8303(5) 0.7704(5) 0.1750(5)
C17 C 0.7964(7) 0.8607(7) 0.1285(7)
H12 H 0.746299 0.889226 0.119385
C18 C 0.8416(6) 0.9064(6) 0.0964(8)
H13 H 0.829972 0.969926 0.062624
C19 C 0.9087(6) 0.8394(6) 0.1238(8)
H14 H 0.951763 0.848031 0.111075
Ni2 Ni 0.750000 0.250000 0.000000
Ni2_2 Ni 0.750000 0.250000 1.000000
N1_2 N 0.6559(3) 0.3326(3) 0.0078(4)
C3_2 C 0.5317(4) 0.4643(4) 0.0008(5)
C5_2 C 0.6798(5) 0.3897(5) 0.0957(5)
H3_2 H 0.739165 0.385308 0.160127
C6_2 C 0.6208(4) 0.4555(5) 0.0964(5)
H4_2 H 0.640870 0.493095 0.160117
C23_2 C 0.4291(5) 0.6590(5) 0.0818(6)
H17_2 H 0.448045 0.698148 0.144282
C24_2 C 0.4916(5) 0.5948(5) 0.0877(6)
H18_2 H 0.550499 0.592191 0.153412
O6_2 O 0.8036(3) 0.1783(3) 0.1517(3)
H19_2 H 0.762546 0.173041 0.163897
H20_2 H 0.817156 0.113576 0.150826
Ni3_2 Ni 0.250000 0.750000 0.000000
O2_2 O 0.6964(3) 0.3217(3) 0.8483(3)
H1_2 H 0.737454 0.326959 0.836103
H2_2 H 0.682844 0.386424 0.849174
C8_2 C 0.5709(5) 0.3410(5) 0.9182(6)
H6_2 H 0.551955 0.301852 0.855718
C9_2 C 0.5084(5) 0.4052(5) 0.9123(6)
H7_2 H 0.449501 0.407809 0.846588
N6_2 N 0.3441(3) 0.6674(3) 0.9922(4)
C20_2 C 0.4683(4) 0.5357(4) 0.9992(5)
C21_2 C 0.3202(5) 0.6103(5) 0.9043(5)
H15_2 H 0.260835 0.614692 0.839873
C22_2 C 0.3792(4) 0.5445(5) 0.9036(5)
H16_2 H 0.359130 0.506905 0.839883
Ni3_3 Ni 0.250000 0.750000 1.000000
O7_2 O 0.6597(3) 0.1287(3) 0.9225(3)
N7_2 N 0.8441(3) 0.1674(3) 0.9922(4)
C20_3 C 0.0317(4) 0.0357(4) 0.5008(5)
C21_3 C 0.1798(5) 0.1103(5) 0.5957(5)
H15_3 H 0.239165 0.114692 0.660127
C22_3 C 0.1208(4) 0.0445(5) 0.5964(5)
H16_3 H 0.140870 0.006905 0.660117
C23_3 C 0.0709(5) 0.1590(5) 0.4182(6)
H17_3 H 0.051955 0.198148 0.355718
C24_3 C 0.0084(5) 0.0948(5) 0.4123(6)
O1_2 O 0.6597(3) 0.8713(3) 0.4225(3)
O2_3 O 0.8036(3) 0.8217(3) 0.6517(3)
H1_3 H 0.762546 0.826959 0.663897
H2_3 H 0.817156 0.886424 0.650826
O3_2 O 0.5818(3) 0.8280(3) 0.2417(3)
N1_3 N 0.8441(3) 0.8326(3) 0.4922(4)
C1_2 C 0.6004(4) 0.8846(4) 0.3212(5)
C2_2 C 0.5474(4) 0.9835(4) 0.2867(5)
C3_3 C 0.9683(4) 0.9643(4) 0.4992(5)
C5_3 C 0.8202(5) 0.8897(5) 0.4043(5)
H3_3 H 0.760835 0.885308 0.339873
C6_3 C 0.8792(4) 0.9555(5) 0.4036(5)
H4_3 H 0.859130 0.993095 0.339883
C8_3 C 0.9291(5) 0.8410(5) 0.5818(6)
H6_3 H 0.948045 0.801852 0.644282
C9_3 C 0.9916(5) 0.9052(5) 0.5877(6)
O4_2 O 0.3403(3) 0.8713(3) 0.0775(3)
O5_2 O 0.4182(3) 0.8280(3) 0.2583(3)
C13_2 C 0.3996(4) 0.8846(4) 0.1788(5)
C14_2 C 0.4526(4) 0.9835(4) 0.2133(5)
O6_3 O 0.6964(3) 0.6783(3) 0.3483(3)
H19_3 H 0.737454 0.673041 0.336103
H20_3 H 0.682844 0.613576 0.349174
O7_3 O 0.8403(3) 0.6287(3) 0.5775(3)
N1_4 N 0.1559(3) 0.8326(3) 0.0078(4)
C3_4 C 0.0317(4) 0.9643(4) 0.0008(5)
C5_4 C 0.1798(5) 0.8897(5) 0.0957(5)
H3_4 H 0.239165 0.885308 0.160127
C6_4 C 0.1208(4) 0.9555(5) 0.0964(5)
H4_4 H 0.140870 0.993095 0.160117
O6_4 O 0.3036(3) 0.6783(3) 0.1517(3)
H19_4 H 0.262546 0.673041 0.163897
H20_4 H 0.317156 0.613576 0.150826
O2_4 O 0.1964(3) 0.8217(3) 0.8483(3)
H1_4 H 0.237454 0.826959 0.836103
H2_4 H 0.182844 0.886424 0.849174
C8_4 C 0.0709(5) 0.8410(5) 0.9182(6)
H6_4 H 0.051955 0.801852 0.855718
C9_4 C 0.0084(5) 0.9052(5) 0.9123(6)
O7_4 O 0.1597(3) 0.6287(3) 0.9225(3)
C23_4 C 0.9291(5) 0.1590(5) 0.0818(6)
H17_4 H 0.948045 0.198148 0.144282
C24_4 C 0.9916(5) 0.0948(5) 0.0877(6)
C20_4 C 0.9683(4) 0.0357(4) 0.9992(5)
C21_4 C 0.8202(5) 0.1103(5) 0.9043(5)
H15_4 H 0.760835 0.114692 0.839873
C22_4 C 0.8792(4) 0.0445(5) 0.9036(5)
H16_4 H 0.859130 0.006905 0.839883
O5_3 O 0.0818(3) 0.6720(3) 0.7417(3)
C13_3 C 0.1004(4) 0.6154(4) 0.8212(5)
C14_3 C 0.0474(4) 0.5165(4) 0.7867(5)
C15_2 C 0.0473(4) 0.3319(4) 0.7886(5)
N4_2 N 0.0993(4) 0.2398(4) 0.8283(4)
C16_2 C 0.0939(4) 0.4251(4) 0.8236(5)
H11_2 H 0.156797 0.425378 0.872418
N5_2 N 0.1697(5) 0.2296(5) 0.8250(5)
C17_2 C 0.2036(7) 0.1393(7) 0.8715(7)
H12_2 H 0.253701 0.110774 0.880615
C18_2 C 0.1584(6) 0.0936(6) 0.9036(8)
H13_2 H 0.170028 0.030074 0.937376
C19_2 C 0.0913(6) 0.1606(6) 0.8762(8)
H14_2 H 0.048237 0.151969 0.888925
O3_3 O 0.9182(3) 0.6720(3) 0.7583(3)
C1_3 C 0.8996(4) 0.6154(4) 0.6788(5)
C2_3 C 0.9526(4) 0.5165(4) 0.7133(5)
C4_2 C 0.9527(4) 0.3319(4) 0.7114(5)
N2_2 N 0.9007(4) 0.2398(4) 0.6717(4)
C7_2 C 0.9061(4) 0.4251(4) 0.6764(5)
H5_2 H 0.843203 0.425378 0.627582
N3_2 N 0.8303(5) 0.2296(5) 0.6750(5)
C10_2 C 0.7964(7) 0.1393(7) 0.6285(7)
H8_2 H 0.746299 0.110774 0.619385
C11_2 C 0.8416(6) 0.0936(6) 0.5964(8)
H9_2 H 0.829972 0.030074 0.562624
C12_2 C 0.9087(6) 0.1606(6) 0.6238(8)
H10_2 H 0.951763 0.151969 0.611075
O3_4 O 0.4182(3) 0.1720(3) 0.7583(3)
C1_4 C 0.3996(4) 0.1154(4) 0.6788(5)
C2_4 C 0.4526(4) 0.0165(4) 0.7133(5)
O5_4 O 0.5818(3) 0.1720(3) 0.7417(3)
C13_4 C 0.6004(4) 0.1154(4) 0.8212(5)
C14_4 C 0.5474(4) 0.0165(4) 0.7867(5)
H7_3 H 0.050499 0.907809 0.653412
H7_4 H 0.949501 0.907809 0.846588
C4_3 C 0.4527(4) 0.8319(4) 0.7114(5)
N2_3 N 0.4007(4) 0.7398(4) 0.6717(4)
C7_3 C 0.4061(4) 0.9251(4) 0.6764(5)
H5_3 H 0.343203 0.925378 0.627582
N3_3 N 0.3303(5) 0.7296(5) 0.6750(5)
C10_3 C 0.2964(7) 0.6393(7) 0.6285(7)
H8_3 H 0.246299 0.610774 0.619385
C11_3 C 0.3416(6) 0.5936(6) 0.5964(8)
H9_3 H 0.329972 0.530074 0.562624
C12_3 C 0.4087(6) 0.6606(6) 0.6238(8)
H10_3 H 0.451763 0.651969 0.611075
C15_3 C 0.5473(4) 0.8319(4) 0.7886(5)
N4_3 N 0.5993(4) 0.7398(4) 0.8283(4)
C16_3 C 0.5939(4) 0.9251(4) 0.8236(5)
H11_3 H 0.656797 0.925378 0.872418
N5_3 N 0.6697(5) 0.7296(5) 0.8250(5)
C17_3 C 0.7036(7) 0.6393(7) 0.8715(7)
H12_3 H 0.753701 0.610774 0.880615
C18_3 C 0.6584(6) 0.5936(6) 0.9036(8)
H13_3 H 0.670028 0.530074 0.937376
C19_3 C 0.5913(6) 0.6606(6) 0.8762(8)
H14_3 H 0.548237 0.651969 0.888925
C4_4 C 0.5473(4) 0.1681(4) 0.2886(5)
N2_4 N 0.5993(4) 0.2602(4) 0.3283(4)
C7_4 C 0.5939(4) 0.0749(4) 0.3236(5)
H5_4 H 0.656797 0.074622 0.372418
N3_4 N 0.6697(5) 0.2704(5) 0.3250(5)
C10_4 C 0.7036(7) 0.3607(7) 0.3715(7)
H8_4 H 0.753701 0.389226 0.380615
C11_4 C 0.6584(6) 0.4064(6) 0.4036(8)
H9_4 H 0.670028 0.469926 0.437376
C12_4 C 0.5913(6) 0.3394(6) 0.3762(8)
H10_4 H 0.548237 0.348031 0.388925
C15_4 C 0.4527(4) 0.1681(4) 0.2114(5)
N4_4 N 0.4007(4) 0.2602(4) 0.1717(4)
C16_4 C 0.4061(4) 0.0749(4) 0.1764(5)
H11_4 H 0.343203 0.074622 0.127582
N5_4 N 0.3303(5) 0.2704(5) 0.1750(5)
C17_4 C 0.2964(7) 0.3607(7) 0.1285(7)
H12_4 H 0.246299 0.389226 0.119385
C18_4 C 0.3416(6) 0.4064(6) 0.0964(8)
H13_4 H 0.329972 0.469926 0.062624
C19_4 C 0.4087(6) 0.3394(6) 0.1238(8)
H14_4 H 0.451763 0.348031 0.111075
H18_3 H 0.949501 0.092191 0.346588
H18_4 H 0.050499 0.092191 0.153412
loop_
_geom_bond_atom_site_label_1
_geom_bond_atom_site_label_2
_geom_bond_site_symmetry_1
_geom_bond_site_symmetry_2
Ni1 O1 1_555 1_555
O1 C1 1_555 1_555
O2 Ni1 1_555 1_555
H1 O2 1_555 1_555
H2 O2 1_555 1_555
O3 C1 1_555 1_555
N1 Ni1 1_555 1_555
C1 C2 1_555 1_555
C2 C7 1_555 1_555
C3 C6 1_555 1_555
C4 N2 1_555 1_555
N2 N3 1_555 1_555
C5 N1 1_555 1_555
H3 C5 1_555 1_555
C6 C5 1_555 1_555
H4 C6 1_555 1_555
C7 C4 1_555 1_555
H5 C7 1_555 1_555
N3 C10 1_555 1_555
C8 N1 1_555 1_555
H6 C8 1_555 1_555
C9 C3 1_555 1_555
H7 C9 1_555 1_555
C10 H8 1_555 1_555
C11 C10 1_555 1_555
H9 C11 1_555 1_555
C12 N2 1_555 1_555
H10 C12 1_555 1_555
N6 C21 1_555 1_555
C20 C3 1_555 1_555
C21 H15 1_555 1_555
C22 C20 1_555 1_555
H16 C22 1_555 1_555
C23 N6 1_555 1_555
H17 C23 1_555 1_555
C24 C20 1_555 1_555
H18 C24 1_555 1_555
O6 Ni1 1_555 1_555
H19 O6 1_555 1_555
H20 O6 1_555 1_555
Ni3 N6 1_555 1_555
O7 Ni1 1_555 1_555
N7 Ni1 1_555 1_555
C8 C9 1_555 1_555
C11 C12 1_555 1_555
C21 C22 1_555 1_555
C23 C24 1_555 1_555
O4 C13 1_555 1_555
O5 C13 1_555 1_555
C13 C14 1_555 1_555
N4 C15 1_555 1_555
C16 C14 1_555 1_555
H11 C16 1_555 1_555
N5 N4 1_555 1_555
C17 N5 1_555 1_555
H12 C17 1_555 1_555
C18 C17 1_555 1_555
H13 C18 1_555 1_555
C19 N4 1_555 1_555
H14 C19 1_555 1_555
Ni2 O4 1_555 1_555
C15 C16 1_555 1_555
C18 C19 1_555 1_555
N1_2 Ni2 1_555 1_555
C3_2 C6_2 1_555 1_555
C5_2 N1_2 1_555 1_555
H3_2 C5_2 1_555 1_555
C6_2 C5_2 1_555 1_555
H4_2 C6_2 1_555 1_555
H17_2 C23_2 1_555 1_555
H18_2 C24_2 1_555 1_555
O6_2 Ni2 1_555 1_555
H19_2 O6_2 1_555 1_555
H20_2 O6_2 1_555 1_555
C23_2 C24_2 1_555 1_555
O2_2 Ni2_2 1_555 1_555
H1_2 O2_2 1_555 1_555
H2_2 O2_2 1_555 1_555
H6_2 C8_2 1_555 1_555
H7_2 C9_2 1_555 1_555
N6_2 C21_2 1_555 1_555
C21_2 H15_2 1_555 1_555
C22_2 C20_2 1_555 1_555
H16_2 C22_2 1_555 1_555
Ni3_3 N6_2 1_555 1_555
O7_2 Ni2_2 1_555 1_555
N7_2 Ni2_2 1_555 1_555
C8_2 C9_2 1_555 1_555
C21_2 C22_2 1_555 1_555
N7 C21_3 1_555 1_555
C21_3 H15_3 1_555 1_555
C22_3 C20_3 1_555 1_555
H16_3 C22_3 1_555 1_555
C23_3 N7 1_555 1_555
H17_3 C23_3 1_555 1_555
C24_3 C20_3 1_555 1_555
C21_3 C22_3 1_555 1_555
C23_3 C24_3 1_555 1_555
Ni3 O1_2 1_555 1_555
O1_2 C1_2 1_555 1_555
O2_3 Ni3 1_555 1_555
H1_3 O2_3 1_555 1_555
H2_3 O2_3 1_555 1_555
O3_2 C1_2 1_555 1_555
N1_3 Ni3 1_555 1_555
C1_2 C2_2 1_555 1_555
C3_3 C6_3 1_555 1_555
C5_3 N1_3 1_555 1_555
H3_3 C5_3 1_555 1_555
C6_3 C5_3 1_555 1_555
H4_3 C6_3 1_555 1_555
C8_3 N1_3 1_555 1_555
H6_3 C8_3 1_555 1_555
C9_3 C3_3 1_555 1_555
O4_2 C13_2 1_555 1_555
O5_2 C13_2 1_555 1_555
C13_2 C14_2 1_555 1_555
C14_2 C2_2 1_555 1_555
O6_3 Ni3 1_555 1_555
H19_3 O6_3 1_555 1_555
H20_3 O6_3 1_555 1_555
Ni3_2 O4_2 1_555 1_555
O7_3 Ni3 1_555 1_555
C8_3 C9_3 1_555 1_555
N1_4 Ni3_2 1_555 1_555
C3_4 C6_4 1_555 1_555
C5_4 N1_4 1_555 1_555
H3_4 C5_4 1_555 1_555
C6_4 C5_4 1_555 1_555
H4_4 C6_4 1_555 1_555
O6_4 Ni3_2 1_555 1_555
H19_4 O6_4 1_555 1_555
H20_4 O6_4 1_555 1_555
O2_4 Ni3_3 1_555 1_555
H1_4 O2_4 1_555 1_555
H2_4 O2_4 1_555 1_555
H6_4 C8_4 1_555 1_555
O7_4 Ni3_3 1_555 1_555
C8_4 C9_4 1_555 1_555
H17_4 C23_4 1_555 1_555
C23_4 C24_4 1_555 1_555
N7_2 C21_4 1_555 1_555
C21_4 H15_4 1_555 1_555
C22_4 C20_4 1_555 1_555
H16_4 C22_4 1_555 1_555
C21_4 C22_4 1_555 1_555
O7_4 C13_3 1_555 1_555
O5_3 C13_3 1_555 1_555
C13_3 C14_3 1_555 1_555
N4_2 C15_2 1_555 1_555
C16_2 C14_3 1_555 1_555
H11_2 C16_2 1_555 1_555
N5_2 N4_2 1_555 1_555
C17_2 N5_2 1_555 1_555
H12_2 C17_2 1_555 1_555
C18_2 C17_2 1_555 1_555
H13_2 C18_2 1_555 1_555
C19_2 N4_2 1_555 1_555
H14_2 C19_2 1_555 1_555
C15_2 C16_2 1_555 1_555
C18_2 C19_2 1_555 1_555
O7_3 C1_3 1_555 1_555
O3_3 C1_3 1_555 1_555
C1_3 C2_3 1_555 1_555
C2_3 C7_2 1_555 1_555
C4_2 N2_2 1_555 1_555
N2_2 N3_2 1_555 1_555
C7_2 C4_2 1_555 1_555
H5_2 C7_2 1_555 1_555
N3_2 C10_2 1_555 1_555
C10_2 H8_2 1_555 1_555
C11_2 C10_2 1_555 1_555
H9_2 C11_2 1_555 1_555
C12_2 N2_2 1_555 1_555
H10_2 C12_2 1_555 1_555
C11_2 C12_2 1_555 1_555
O7 C1_4 1_555 1_555
O3_4 C1_4 1_555 1_555
C1_4 C2_4 1_555 1_555
O7_2 C13_4 1_555 1_555
O5_4 C13_4 1_555 1_555
C13_4 C14_4 1_555 1_555
C14_4 C2_4 1_555 1_555
C4_3 N2_3 1_555 1_555
N2_3 N3_3 1_555 1_555
C7_3 C4_3 1_555 1_555
H5_3 C7_3 1_555 1_555
N3_3 C10_3 1_555 1_555
C10_3 H8_3 1_555 1_555
C11_3 C10_3 1_555 1_555
H9_3 C11_3 1_555 1_555
C12_3 N2_3 1_555 1_555
H10_3 C12_3 1_555 1_555
C15_3 C4_3 1_555 1_555
N4_3 C15_3 1_555 1_555
H11_3 C16_3 1_555 1_555
N5_3 N4_3 1_555 1_555
C17_3 N5_3 1_555 1_555
H12_3 C17_3 1_555 1_555
C18_3 C17_3 1_555 1_555
H13_3 C18_3 1_555 1_555
C19_3 N4_3 1_555 1_555
H14_3 C19_3 1_555 1_555
C11_3 C12_3 1_555 1_555
C15_3 C16_3 1_555 1_555
C18_3 C19_3 1_555 1_555
C4_4 N2_4 1_555 1_555
N2_4 N3_4 1_555 1_555
C7_4 C4_4 1_555 1_555
H5_4 C7_4 1_555 1_555
N3_4 C10_4 1_555 1_555
C10_4 H8_4 1_555 1_555
C11_4 C10_4 1_555 1_555
H9_4 C11_4 1_555 1_555
C12_4 N2_4 1_555 1_555
H10_4 C12_4 1_555 1_555
C15_4 C4_4 1_555 1_555
N4_4 C15_4 1_555 1_555
H11_4 C16_4 1_555 1_555
N5_4 N4_4 1_555 1_555
C17_4 N5_4 1_555 1_555
H12_4 C17_4 1_555 1_555
C18_4 C17_4 1_555 1_555
H13_4 C18_4 1_555 1_555
C19_4 N4_4 1_555 1_555
H14_4 C19_4 1_555 1_555
C11_4 C12_4 1_555 1_555
C15_4 C16_4 1_555 1_555
C18_4 C19_4 1_555 1_555

#END
