
###############################################################################
#
# This file contains modified crystal structure data generated from the
# MOF subset of the Cambridge Structural Database (CSD) v543 
# hosted by the Cambridge Crystallographic Data Centre (CCDC).
#
# This work is licensed under the Creative Commons
# Attribution-NonCommercial-ShareAlike 4.0 International License.
# To view a copy of this license, visit
# http://creativecommons.org/licenses/by-nc-sa/4.0/
# or send a letter to
# Creative Commons, PO Box 1866, Mountain View, CA 94042, USA.
#
# CIF created using the CSD Python API on 29 September 2022
# The structure has been converted into the P1 space group
# The structure has a 3D framework
# The original CSD entry DALXEW is in the monoclinic crystal system
# The framework has been calculated to contain at least 10.0% void space
# The void calculation uses a probe of radius 1.32A, grid spacing 0.4
#
###############################################################################

data_DALXEW
_chemical_formula_moiety         '(C24 H16 N96 O32 Pb12)n'
_symmetry_cell_setting           triclinic
_symmetry_space_group_name_H-M   'P 1'
_symmetry_Int_Tables_number      1
_space_group_name_Hall           'P 1'
loop_
_symmetry_equiv_pos_site_id
_symmetry_equiv_pos_as_xyz
1 x,y,z
_cell_length_a                   13.8912(18)
_cell_length_b                   24.074(3)
_cell_length_c                   8.5487(11)
_cell_angle_alpha                90
_cell_angle_beta                 96.655(2)
_cell_angle_gamma                90
_cell_volume                     2839.57
loop_
_atom_site_label
_atom_site_type_symbol
_atom_site_fract_x
_atom_site_fract_y
_atom_site_fract_z
N2 N 0.3614(7) 0.6075(4) 0.0923(10)
N3 N 0.3385(7) 0.6605(4) 0.0633(9)
N15 N 0.0252(7) 0.7341(4) 0.0849(10)
Pb6 Pb 0.5000 0.50981(2) 0.2500
Pb8 Pb 0.23260(3) 0.730598(17) 0.24721(4)
O10 O 0.6057(6) 0.4681(3) 0.0546(9)
O15 O 0.3457(5) 0.7823(3) 0.0607(8)
Pb1 Pb 0.5000 0.49019(2) 0.7500
Pb2 Pb 0.26740(3) 0.769402(17) 0.75279(4)
N1 N 0.3724(6) 0.5848(4) 0.9525(9)
N4 N 0.3318(6) 0.6691(4) 0.9069(9)
N5 N 0.4118(6) 0.5763(4) 0.6153(9)
N6 N 0.4016(7) 0.5844(4) 0.4576(9)
N7 N 0.3420(7) 0.6271(4) 0.4231(10)
N8 N 0.3169(6) 0.6457(4) 0.5587(9)
N9 N 0.0871(6) 0.7533(4) 0.6067(9)
N10 N 0.0655(7) 0.7471(4) 0.4502(10)
O1 O 0.3943(6) 0.5319(3) 0.9454(9)
O2 O 0.2524(5) 0.6860(3) 0.5613(8)
O4 O 0.3659(12) 0.8720(8) 0.766(2)
C1 C 0.3536(7) 0.6232(4) 0.8412(10)
C2 C 0.3589(7) 0.6142(4) 0.6749(11)
C3 C 0.0082(7) 0.7417(4) 0.6662(10)
H1 H 0.408(6) 0.864(5) 0.703(11)
H2 H 0.392(9) 0.899(5) 0.821(16)
N16 N 0.0622(7) 0.7311(4) 0.9502(10)
O5 O 0.1543(5) 0.7177(3) 0.9393(8)
N25 N 0.1615(7) 0.8395(4) 0.9367(9)
N27 N 0.5882(6) 0.5763(4) 0.8847(9)
O9 O 0.6057(6) 0.5319(3) 0.5546(9)
O11 O 0.3943(6) 0.4681(3) 0.4454(9)
O12 O 0.2476(5) 0.8140(3) 0.4387(8)
N14 N 0.9345(7) 0.7471(4) 0.0498(10)
N22 N 0.5984(7) 0.5844(4) 0.0424(9)
N23 N 0.6580(7) 0.6271(4) 0.0769(10)
Pb10 Pb 0.76740(3) 0.730598(17) 0.25279(4)
O13 O 0.7524(5) 0.8140(3) 0.0613(8)
N11 N 0.9748(7) 0.7341(4) 0.4151(10)
N12 N 0.9378(7) 0.7311(4) 0.5498(10)
O3 O 0.8457(5) 0.7177(3) 0.5607(8)
N13 N 0.9129(6) 0.7533(4) 0.8933(9)
C4 C 0.9918(7) 0.7417(4) 0.8338(10)
Pb3 Pb 0.73260(3) 0.769402(17) 0.74721(4)
N17 N 0.6276(6) 0.5848(4) 0.5475(9)
N18 N 0.6386(7) 0.6075(4) 0.4077(10)
N19 N 0.6615(7) 0.6605(4) 0.4367(9)
N20 N 0.6682(6) 0.6691(4) 0.5931(9)
N24 N 0.6831(6) 0.6457(4) 0.9413(9)
O7 O 0.7476(5) 0.6860(3) 0.9387(8)
O8 O 0.6341(12) 0.8720(8) 0.734(2)
C5 C 0.6464(7) 0.6232(4) 0.6588(10)
C6 C 0.6411(7) 0.6142(4) 0.8251(11)
H3 H 0.592(6) 0.864(5) 0.797(11)
H4 H 0.608(9) 0.899(5) 0.679(16)
N26 N 0.8385(7) 0.8395(4) 0.5633(9)
O14 O 0.6543(5) 0.7823(3) 0.4393(8)
Pb6_2 Pb 0.0000 0.00981(2) 0.2500
N27_2 N 0.0882(6) 0.0763(4) 0.8847(9)
O9_2 O 0.1057(6) 0.0319(3) 0.5546(9)
O10_2 O 0.1057(6) 0.9681(3) 0.0546(9)
Pb1_2 Pb 0.0000 0.99019(2) 0.7500
N2_2 N 0.8614(7) 0.1075(4) 0.0923(10)
N3_2 N 0.8385(7) 0.1605(4) 0.0633(9)
N14_2 N 0.4345(7) 0.2471(4) 0.0498(10)
N15_2 N 0.5252(7) 0.2341(4) 0.0849(10)
N22_2 N 0.0984(7) 0.0844(4) 0.0424(9)
N23_2 N 0.1580(7) 0.1271(4) 0.0769(10)
Pb6_3 Pb 1.0000 0.00981(2) 0.2500
Pb8_2 Pb 0.73260(3) 0.230598(17) 0.24721(4)
Pb10_2 Pb 0.26740(3) 0.230598(17) 0.25279(4)
O13_2 O 0.2524(5) 0.3140(3) 0.0613(8)
O15_2 O 0.8457(5) 0.2823(3) 0.0607(8)
Pb2_2 Pb 0.76740(3) 0.269402(17) 0.75279(4)
N1_2 N 0.8724(6) 0.0848(4) 0.9525(9)
N4_2 N 0.8318(6) 0.1691(4) 0.9069(9)
N5_2 N 0.9118(6) 0.0763(4) 0.6153(9)
N6_2 N 0.9016(7) 0.0844(4) 0.4576(9)
N7_2 N 0.8420(7) 0.1271(4) 0.4231(10)
N8_2 N 0.8169(6) 0.1457(4) 0.5587(9)
N9_2 N 0.5871(6) 0.2533(4) 0.6067(9)
N10_2 N 0.5655(7) 0.2471(4) 0.4502(10)
N11_2 N 0.4748(7) 0.2341(4) 0.4151(10)
N12_2 N 0.4378(7) 0.2311(4) 0.5498(10)
O1_2 O 0.8943(6) 0.0319(3) 0.9454(9)
O2_2 O 0.7524(5) 0.1860(3) 0.5613(8)
O3_2 O 0.3457(5) 0.2177(3) 0.5607(8)
O4_2 O 0.8659(12) 0.3720(8) 0.766(2)
C1_2 C 0.8536(7) 0.1232(4) 0.8412(10)
C2_2 C 0.8589(7) 0.1142(4) 0.6749(11)
C3_2 C 0.5082(7) 0.2417(4) 0.6662(10)
H1_2 H 0.908(6) 0.364(5) 0.703(11)
H2_2 H 0.892(9) 0.399(5) 0.821(16)
N13_2 N 0.4129(6) 0.2533(4) 0.8933(9)
N16_2 N 0.5622(7) 0.2311(4) 0.9502(10)
O5_2 O 0.6543(5) 0.2177(3) 0.9393(8)
C4_2 C 0.4918(7) 0.2417(4) 0.8338(10)
Pb3_2 Pb 0.23260(3) 0.269402(17) 0.74721(4)
N17_2 N 0.1276(6) 0.0848(4) 0.5475(9)
N18_2 N 0.1386(7) 0.1075(4) 0.4077(10)
N19_2 N 0.1615(7) 0.1605(4) 0.4367(9)
N20_2 N 0.1682(6) 0.1691(4) 0.5931(9)
N24_2 N 0.1831(6) 0.1457(4) 0.9413(9)
O7_2 O 0.2476(5) 0.1860(3) 0.9387(8)
O8_2 O 0.1341(12) 0.3720(8) 0.734(2)
C5_2 C 0.1464(7) 0.1232(4) 0.6588(10)
C6_2 C 0.1411(7) 0.1142(4) 0.8251(11)
H3_2 H 0.092(6) 0.364(5) 0.797(11)
H4_2 H 0.108(9) 0.399(5) 0.679(16)
N25_2 N 0.6615(7) 0.3395(4) 0.9367(9)
N26_2 N 0.3385(7) 0.3395(4) 0.5633(9)
O12_2 O 0.7476(5) 0.3140(3) 0.4387(8)
O14_2 O 0.1543(5) 0.2823(3) 0.4393(8)
Pb1_3 Pb 1.0000 0.99019(2) 0.7500
O11_2 O 0.8943(6) 0.9681(3) 0.4454(9)
N11_3 N 0.0252(7) 0.2659(4) 0.5849(10)
N12_3 N 0.0622(7) 0.2689(4) 0.4502(10)
N13_3 N 0.0871(6) 0.2467(4) 0.1067(9)
C4_3 C 0.0082(7) 0.2583(4) 0.1662(10)
N17_3 N 0.3724(6) 0.4152(4) 0.4525(9)
N18_3 N 0.3614(7) 0.3925(4) 0.5923(10)
N20_3 N 0.3318(6) 0.3309(4) 0.4069(9)
N21 N 0.4118(6) 0.4237(4) 0.1153(9)
N24_3 N 0.3169(6) 0.3543(4) 0.0587(9)
O8_3 O 0.3659(12) 0.1280(8) 0.266(2)
C5_3 C 0.3536(7) 0.3768(4) 0.3412(10)
C6_3 C 0.3589(7) 0.3858(4) 0.1749(11)
H3_3 H 0.408(6) 0.136(5) 0.203(11)
H4_3 H 0.392(9) 0.101(5) 0.321(16)
N14_3 N 0.0655(7) 0.2529(4) 0.9502(10)
N22_3 N 0.4016(7) 0.4156(4) 0.9576(9)
N23_3 N 0.3420(7) 0.3729(4) 0.9231(10)
N1_3 N 0.6276(6) 0.4152(4) 0.0475(9)
N4_3 N 0.6682(6) 0.3309(4) 0.0931(9)
N5_3 N 0.5882(6) 0.4237(4) 0.3847(9)
N6_3 N 0.5984(7) 0.4156(4) 0.5424(9)
N7_3 N 0.6580(7) 0.3729(4) 0.5769(10)
N8_3 N 0.6831(6) 0.3543(4) 0.4413(9)
N9_3 N 0.9129(6) 0.2467(4) 0.3933(9)
N10_3 N 0.9345(7) 0.2529(4) 0.5498(10)
O4_3 O 0.6341(12) 0.1280(8) 0.234(2)
C1_3 C 0.6464(7) 0.3768(4) 0.1588(10)
C2_3 C 0.6411(7) 0.3858(4) 0.3251(11)
C3_3 C 0.9918(7) 0.2583(4) 0.3338(10)
H1_3 H 0.592(6) 0.136(5) 0.297(11)
H2_3 H 0.608(9) 0.101(5) 0.179(16)
N16_3 N 0.9378(7) 0.2689(4) 0.0498(10)
N2_3 N 0.6386(7) 0.3925(4) 0.9077(10)
N15_3 N 0.9748(7) 0.2659(4) 0.9151(10)
N1_4 N 0.1276(6) 0.9152(4) 0.0475(9)
N4_4 N 0.1682(6) 0.8309(4) 0.0931(9)
N5_4 N 0.0882(6) 0.9237(4) 0.3847(9)
N6_4 N 0.0984(7) 0.9156(4) 0.5424(9)
N7_4 N 0.1580(7) 0.8729(4) 0.5769(10)
N8_4 N 0.1831(6) 0.8543(4) 0.4413(9)
N9_4 N 0.4129(6) 0.7467(4) 0.3933(9)
N10_4 N 0.4345(7) 0.7529(4) 0.5498(10)
N11_4 N 0.5252(7) 0.7659(4) 0.5849(10)
N12_4 N 0.5622(7) 0.7689(4) 0.4502(10)
O4_4 O 0.1341(12) 0.6280(8) 0.234(2)
C1_4 C 0.1464(7) 0.8768(4) 0.1588(10)
C2_4 C 0.1411(7) 0.8858(4) 0.3251(11)
C3_4 C 0.4918(7) 0.7583(4) 0.3338(10)
H1_4 H 0.092(6) 0.636(5) 0.297(11)
H2_4 H 0.108(9) 0.601(5) 0.179(16)
N13_4 N 0.5871(6) 0.7467(4) 0.1067(9)
N16_4 N 0.4378(7) 0.7689(4) 0.0498(10)
C4_4 C 0.5082(7) 0.7583(4) 0.1662(10)
N17_4 N 0.8724(6) 0.9152(4) 0.4525(9)
N18_4 N 0.8614(7) 0.8925(4) 0.5923(10)
N20_4 N 0.8318(6) 0.8309(4) 0.4069(9)
N21_2 N 0.9118(6) 0.9237(4) 0.1153(9)
N24_4 N 0.8169(6) 0.8543(4) 0.0587(9)
O8_4 O 0.8659(12) 0.6280(8) 0.266(2)
C5_4 C 0.8536(7) 0.8768(4) 0.3412(10)
C6_4 C 0.8589(7) 0.8858(4) 0.1749(11)
H3_4 H 0.908(6) 0.636(5) 0.203(11)
H4_4 H 0.892(9) 0.601(5) 0.321(16)
N2_4 N 0.1386(7) 0.8925(4) 0.9077(10)
N14_4 N 0.5655(7) 0.7529(4) 0.9502(10)
N15_4 N 0.4748(7) 0.7659(4) 0.9151(10)
N22_4 N 0.9016(7) 0.9156(4) 0.9576(9)
N23_4 N 0.8420(7) 0.8729(4) 0.9231(10)
loop_
_geom_bond_atom_site_label_1
_geom_bond_atom_site_label_2
_geom_bond_site_symmetry_1
_geom_bond_site_symmetry_2
N2 N3 1_555 1_555
Pb8 N3 1_555 1_555
Pb6 O10 1_555 1_555
Pb8 O15 1_555 1_555
Pb1 N5 1_555 1_555
Pb2 N4 1_555 1_555
N4 C1 1_555 1_555
N5 N6 1_555 1_555
N6 N7 1_555 1_555
N7 N8 1_555 1_555
N8 O2 1_555 1_555
N9 Pb2 1_555 1_555
N10 N9 1_555 1_555
O1 Pb1 1_555 1_555
O2 Pb2 1_555 1_555
O4 Pb2 1_555 1_555
C1 N1 1_555 1_555
C2 N5 1_555 1_555
C3 N9 1_555 1_555
H1 O4 1_555 1_555
H2 O4 1_555 1_555
N16 O5 1_555 1_555
O5 Pb2 1_555 1_555
Pb8 O2 1_555 1_555
N25 Pb2 1_555 1_555
N27 Pb1 1_555 1_555
O9 Pb1 1_555 1_555
O11 Pb1 1_555 1_555
O12 Pb2 1_555 1_555
N1 O1 1_555 1_555
N8 C2 1_555 1_555
C1 C2 1_555 1_555
Pb8 O12 1_555 1_555
N22 N23 1_555 1_555
Pb10 O13 1_555 1_555
N12 N11 1_555 1_555
O3 N12 1_555 1_555
Pb3 O3 1_555 1_555
N17 N18 1_555 1_555
N18 N19 1_555 1_555
N19 N20 1_555 1_555
N20 Pb3 1_555 1_555
N24 O7 1_555 1_555
O9 N17 1_555 1_555
O7 Pb3 1_555 1_555
O8 Pb3 1_555 1_555
C5 N17 1_555 1_555
C6 N27 1_555 1_555
H3 O8 1_555 1_555
H4 O8 1_555 1_555
Pb6 O9 1_555 1_555
Pb10 O3 1_555 1_555
N26 Pb3 1_555 1_555
O14 Pb3 1_555 1_555
N13 C4 1_555 1_555
N13 Pb3 1_555 1_555
N19 Pb10 1_555 1_555
N20 C5 1_555 1_555
N24 C6 1_555 1_555
C5 C6 1_555 1_555
Pb10 O14 1_555 1_555
Pb6 O11 1_555 1_555
N2_2 N3_2 1_555 1_555
N14_2 N15_2 1_555 1_555
N22_2 N23_2 1_555 1_555
Pb8_2 N3_2 1_555 1_555
Pb8_2 O15_2 1_555 1_555
Pb10_2 O13_2 1_555 1_555
Pb2_2 N4_2 1_555 1_555
N4_2 C1_2 1_555 1_555
N5_2 N6_2 1_555 1_555
N6_2 N7_2 1_555 1_555
N7_2 N8_2 1_555 1_555
N8_2 O2_2 1_555 1_555
N9_2 Pb2_2 1_555 1_555
N10_2 N9_2 1_555 1_555
N11_2 N10_2 1_555 1_555
N12_2 N11_2 1_555 1_555
O2_2 Pb2_2 1_555 1_555
O3_2 N12_2 1_555 1_555
O4_2 Pb2_2 1_555 1_555
C1_2 N1_2 1_555 1_555
C2_2 N5_2 1_555 1_555
C3_2 N9_2 1_555 1_555
H1_2 O4_2 1_555 1_555
H2_2 O4_2 1_555 1_555
N16_2 O5_2 1_555 1_555
O5_2 Pb2_2 1_555 1_555
C4_2 C3_2 1_555 1_555
Pb3_2 O3_2 1_555 1_555
N17_2 N18_2 1_555 1_555
N18_2 N19_2 1_555 1_555
N19_2 N20_2 1_555 1_555
N20_2 Pb3_2 1_555 1_555
N24_2 O7_2 1_555 1_555
O9_2 N17_2 1_555 1_555
O7_2 Pb3_2 1_555 1_555
O8_2 Pb3_2 1_555 1_555
C5_2 N17_2 1_555 1_555
C6_2 N27_2 1_555 1_555
H3_2 O8_2 1_555 1_555
H4_2 O8_2 1_555 1_555
Pb6_2 O9_2 1_555 1_555
Pb8_2 O2_2 1_555 1_555
Pb10_2 O3_2 1_555 1_555
N25_2 Pb2_2 1_555 1_555
N26_2 Pb3_2 1_555 1_555
O12_2 Pb2_2 1_555 1_555
O14_2 Pb3_2 1_555 1_555
N1_2 O1_2 1_555 1_555
N8_2 C2_2 1_555 1_555
N12_2 C3_2 1_555 1_555
C1_2 C2_2 1_555 1_555
N13_2 C4_2 1_555 1_555
N13_2 Pb3_2 1_555 1_555
N16_2 C4_2 1_555 1_555
N19_2 Pb10_2 1_555 1_555
N20_2 C5_2 1_555 1_555
N24_2 C6_2 1_555 1_555
C5_2 C6_2 1_555 1_555
Pb8_2 O12_2 1_555 1_555
Pb10_2 O14_2 1_555 1_555
O11_2 Pb1_3 1_555 1_555
N12_3 N11_3 1_555 1_555
O14_2 N12_3 1_555 1_555
N17_3 N18_3 1_555 1_555
N18_3 N26_2 1_555 1_555
N26_2 N20_3 1_555 1_555
N20_3 Pb10_2 1_555 1_555
N24_3 O13_2 1_555 1_555
O11 N17_3 1_555 1_555
O8_3 Pb10_2 1_555 1_555
C5_3 N17_3 1_555 1_555
C6_3 N21 1_555 1_555
H3_3 O8_3 1_555 1_555
H4_3 O8_3 1_555 1_555
Pb6 N21 1_555 1_555
N13_3 C4_3 1_555 1_555
N13_3 Pb10_2 1_555 1_555
N20_3 C5_3 1_555 1_555
N24_3 C6_3 1_555 1_555
C5_3 C6_3 1_555 1_555
N22_3 N23_3 1_555 1_555
Pb6 N5_3 1_555 1_555
Pb8_2 N4_3 1_555 1_555
N4_3 C1_3 1_555 1_555
N5_3 N6_3 1_555 1_555
N6_3 N7_3 1_555 1_555
N7_3 N8_3 1_555 1_555
N8_3 O12_2 1_555 1_555
N9_3 Pb8_2 1_555 1_555
N10_3 N9_3 1_555 1_555
O4_3 Pb8_2 1_555 1_555
C1_3 N1_3 1_555 1_555
C2_3 N5_3 1_555 1_555
C3_3 N9_3 1_555 1_555
H1_3 O4_3 1_555 1_555
H2_3 O4_3 1_555 1_555
N16_3 O15_2 1_555 1_555
N1_3 O10 1_555 1_555
N8_3 C2_3 1_555 1_555
C1_3 C2_3 1_555 1_555
N2_3 N25_2 1_555 1_555
Pb8 N4_4 1_555 1_555
N4_4 C1_4 1_555 1_555
N5_4 N6_4 1_555 1_555
N6_4 N7_4 1_555 1_555
N7_4 N8_4 1_555 1_555
N8_4 O12 1_555 1_555
N9_4 Pb8 1_555 1_555
N10_4 N9_4 1_555 1_555
N11_4 N10_4 1_555 1_555
N12_4 N11_4 1_555 1_555
O14 N12_4 1_555 1_555
O4_4 Pb8 1_555 1_555
C1_4 N1_4 1_555 1_555
C2_4 N5_4 1_555 1_555
C3_4 N9_4 1_555 1_555
H1_4 O4_4 1_555 1_555
H2_4 O4_4 1_555 1_555
N16_4 O15 1_555 1_555
C4_4 C3_4 1_555 1_555
N17_4 N18_4 1_555 1_555
N18_4 N26 1_555 1_555
N26 N20_4 1_555 1_555
N20_4 Pb10 1_555 1_555
N24_4 O13 1_555 1_555
O11_2 N17_4 1_555 1_555
O8_4 Pb10 1_555 1_555
C5_4 N17_4 1_555 1_555
C6_4 N21_2 1_555 1_555
H3_4 O8_4 1_555 1_555
H4_4 O8_4 1_555 1_555
N1_4 O10_2 1_555 1_555
N8_4 C2_4 1_555 1_555
N12_4 C3_4 1_555 1_555
C1_4 C2_4 1_555 1_555
N13_4 C4_4 1_555 1_555
N13_4 Pb10 1_555 1_555
N16_4 C4_4 1_555 1_555
N20_4 C5_4 1_555 1_555
N24_4 C6_4 1_555 1_555
C5_4 C6_4 1_555 1_555
N2_4 N25 1_555 1_555
N14_4 N15_4 1_555 1_555
N22_4 N23_4 1_555 1_555

#END
