
###############################################################################
#
# This file contains modified crystal structure data generated from the
# MOF subset of the Cambridge Structural Database (CSD) v543 
# hosted by the Cambridge Crystallographic Data Centre (CCDC).
#
# This work is licensed under the Creative Commons
# Attribution-NonCommercial-ShareAlike 4.0 International License.
# To view a copy of this license, visit
# http://creativecommons.org/licenses/by-nc-sa/4.0/
# or send a letter to
# Creative Commons, PO Box 1866, Mountain View, CA 94042, USA.
#
# CIF created using the CSD Python API on 29 September 2022
# The structure has been converted into the P1 space group
# The structure has a 3D framework
# The original CSD entry DAMQUF is in the triclinic crystal system
# The framework has been calculated to contain at least 10.0% void space
# The void calculation uses a probe of radius 1.32A, grid spacing 0.4
# The framework is charged, counterions have been retained in the structure
#
###############################################################################

data_DAMQUF
_chemical_formula_moiety         '(C52 H58 N4 O28 P4 Pb7)n'
_symmetry_cell_setting           triclinic
_symmetry_space_group_name_H-M   'P 1'
_symmetry_Int_Tables_number      1
_space_group_name_Hall           'P 1'
loop_
_symmetry_equiv_pos_site_id
_symmetry_equiv_pos_as_xyz
1 x,y,z
_cell_length_a                   11.727(3)
_cell_length_b                   12.652(3)
_cell_length_c                   13.879(3)
_cell_angle_alpha                95.064(3)
_cell_angle_beta                 105.759(3)
_cell_angle_gamma                104.946(3)
_cell_volume                     1886.82
loop_
_atom_site_label
_atom_site_type_symbol
_atom_site_fract_x
_atom_site_fract_y
_atom_site_fract_z
_atom_site_U_iso_or_equiv
_atom_site_thermal_displace_type
O6 O 0.1289(12) 0.2725(12) 0.5388(10) 0.0505 Uani
O7 O 0.1578(15) 0.2697(13) 0.7016(10) 0.0600 Uani
C8 C 0.0946(18) 0.2355(16) 0.6126(14) 0.0357 Uani
Pb10 Pb 0.33836(6) 0.38788(5) 0.62297(4) 0.0238 Uani
Pb13 Pb 0.49170(6) 0.65172(5) 0.84269(4) 0.0217 Uani
O20 O 0.2585(12) 0.5420(11) 0.7514(10) 0.0414 Uani
O21 O 0.2270(12) 0.5375(12) 0.5850(10) 0.0418 Uani
O32 O 0.6412(10) 0.5293(8) 0.9330(8) 0.0244 Uani
O36 O 0.4272(12) 0.6378(10) 0.9859(9) 0.0324 Uani
O43 O 0.4265(14) 0.8221(11) 0.8594(10) 0.0408 Uani
O48 O 0.6930(14) 0.7987(12) 0.8937(13) 0.0593 Uani
C29 C 0.0790(16) 0.6823(14) 0.7078(14) 0.0309 Uani
H35 H 0.1219 0.7385 0.6774 0.0370 Uiso
H36 H 0.1259 0.6929 0.7782 0.0370 Uiso
C30 C 0.0695(15) 0.5654(13) 0.6556(12) 0.0262 Uani
H37 H 0.0245 0.5560 0.5848 0.0310 Uiso
H39 H 0.0419 0.4866 0.7713 0.0550 Uiso
C33 C 0.1960(16) 0.5474(14) 0.6641(14) 0.0299 Uani
Pb4 Pb 0.76752(6) 0.61177(5) 0.10296(5) 0.0275 Uani
O11 O 0.5728(12) 0.3622(10) 0.0141(9) 0.0324 Uani
Pb15 Pb 0.50830(6) 0.34828(5) 0.15731(4) 0.0217 Uani
O33 O 0.3588(10) 0.4707(8) 0.0670(8) 0.0244 Uani
O38 O 0.5783(10) 0.5975(9) 0.1396(9) 0.0280 Uani
O45 O 0.7594(14) 0.7840(11) 0.0550(12) 0.0509 Uani
P2 P 0.5548(4) 0.4108(3) 0.9171(3) 0.0201 Uani
O12 O 0.4217(10) 0.4025(9) 0.8604(9) 0.0280 Uani
N2 N 0.5681(13) 0.2055(11) 0.8402(10) 0.0282 Uani
C9 C 0.9754(17) 0.1446(14) 0.5840(14) 0.0329 Uani
C10 C 0.9182(15) 0.0898(15) 0.4863(13) 0.0303 Uani
H13 H 0.9493 0.1155 0.4327 0.0370 Uiso
C13 C 0.821(2) 0.020(2) 0.6358(17) 0.0672 Uani
C14 C 0.921(2) 0.1137(18) 0.6595(15) 0.0547 Uani
H16 H 0.9553 0.1563 0.7269 0.0660 Uiso
C16 C 0.6083(15) 0.3273(12) 0.8359(12) 0.0230 Uani
H17 H 0.6972 0.3531 0.8558 0.0280 Uiso
H18 H 0.5774 0.3379 0.7671 0.0280 Uiso
C17 C 0.6153(18) 0.1413(14) 0.7702(15) 0.0339 Uani
H19 H 0.7035 0.1721 0.7871 0.0410 Uiso
H20 H 0.5789 0.1486 0.7012 0.0410 Uiso
C18 C 0.5839(18) 0.0199(14) 0.7782(16) 0.0407 Uani
H21 H 0.6277 0.0120 0.8452 0.0490 Uiso
C20 C 0.3995(18) 0.0355(14) 0.8289(15) 0.0388 Uani
H24 H 0.3115 0.0061 0.8146 0.0460 Uiso
H25 H 0.4382 0.0295 0.8978 0.0460 Uiso
C21 C 0.4316(16) 0.1582(13) 0.8181(14) 0.0325 Uani
H26 H 0.3898 0.1652 0.7502 0.0390 Uiso
H27 H 0.4042 0.1992 0.8643 0.0390 Uiso
Pb20 Pb 0.23248(6) 0.38823(5) 0.89704(5) 0.0275 Uani
O46 O 0.2406(14) 0.2160(11) 0.9450(12) 0.0509 Uani
Pb1 Pb 0.42196(6) 0.70180(5) 0.53432(5) 0.0270 Uani
P1 P 0.3708(4) 0.4376(3) 0.3743(3) 0.0215 Uani
O1 O 0.4156(11) 0.5634(9) 0.3885(9) 0.0310 Uani
O2 O 0.4748(10) 0.3924(9) 0.3581(8) 0.0265 Uani
O3 O 0.3213(10) 0.3903(10) 0.4559(8) 0.0300 Uani
O8 O 0.6092(12) 0.8043(10) 0.4304(10) 0.0432 Uani
O9 O 0.6108(15) 0.8420(12) 0.5879(12) 0.0626 Uani
O13 O 0.4080(15) 0.7768(10) 0.7005(10) 0.0487 Uani
N1 N 0.1207(13) 0.3957(13) 0.2540(10) 0.0313 Uani
H1 H 0.0757 0.3897 0.1888 0.0380 Uiso
C1 C 0.2436(16) 0.3814(15) 0.2560(12) 0.0285 Uani
H2 H 0.2650 0.4513 0.2334 0.0340 Uiso
H3 H 0.2558 0.3448 0.1977 0.0340 Uiso
C2 C 0.0497(16) 0.3056(15) 0.2989(14) 0.0330 Uani
H4 H 0.0954 0.3119 0.3690 0.0400 Uiso
H5 H 0.0417 0.2337 0.2642 0.0400 Uiso
C5 C 0.0028(19) 0.5212(16) 0.2993(18) 0.0459 Uani
H9 H 0.0119 0.5943 0.3322 0.0550 Uiso
C6 C 0.1283(15) 0.5046(14) 0.3077(16) 0.0352 Uani
H11 H 0.1764 0.5629 0.2826 0.0420 Uiso
H12 H 0.1708 0.5095 0.3784 0.0420 Uiso
C11 C 0.8162(17) 0.9977(15) 0.4644(14) 0.0370 Uani
H14 H 0.7817 0.9553 0.3970 0.0440 Uiso
C12 C 0.7639(18) 0.9643(14) 0.5396(13) 0.0358 Uani
H15 H 0.7882 0.9955 0.6889 0.0800 Uiso
C15 C 0.6534(18) 0.8630(15) 0.5157(15) 0.0391 Uani
H22 H 0.6105 0.9807 0.7303 0.0490 Uiso
C19 C 0.4417(18) 0.9659(13) 0.7592(12) 0.0293 Uani
H23 H 0.3987 0.9677 0.6901 0.0350 Uiso
C22 C 0.4215(16) 0.8481(13) 0.7728(13) 0.0256 Uani
Pb5 Pb 0.57804(6) 0.29820(5) 0.46568(5) 0.0270 Uani
Pb8 Pb 0.66164(6) 0.61212(5) 0.37703(4) 0.0238 Uani
P3 P 0.6292(4) 0.5624(3) 0.6257(3) 0.0215 Uani
O17 O 0.5844(11) 0.4366(9) 0.6115(9) 0.0310 Uani
O18 O 0.5252(10) 0.6076(9) 0.6419(8) 0.0265 Uani
O19 O 0.6787(10) 0.6097(10) 0.5441(8) 0.0300 Uani
O23 O 0.7730(12) 0.4625(12) 0.4150(10) 0.0418 Uani
O25 O 0.8711(12) 0.7275(12) 0.4612(10) 0.0505 Uani
O28 O 0.3908(12) 0.1957(10) 0.5696(10) 0.0432 Uani
O30 O 0.3892(15) 0.1580(12) 0.4121(12) 0.0626 Uani
O40 O 0.5920(15) 0.2232(10) 0.2995(10) 0.0487 Uani
N3 N 0.8793(13) 0.6043(13) 0.7460(10) 0.0313 Uani
H30 H 0.9243 0.6103 0.8112 0.0380 Uiso
C27 C 0.7564(16) 0.6186(15) 0.7440(12) 0.0285 Uani
H31 H 0.7350 0.5487 0.7666 0.0340 Uiso
H32 H 0.7442 0.6552 0.8023 0.0340 Uiso
C28 C 0.9503(16) 0.6944(15) 0.7011(14) 0.0330 Uani
H33 H 0.9046 0.6881 0.6310 0.0400 Uiso
H34 H 0.9583 0.7663 0.7358 0.0400 Uiso
C31 C 0.9972(19) 0.4788(16) 0.7007(18) 0.0459 Uani
H38 H 0.9881 0.4057 0.6678 0.0550 Uiso
C32 C 0.8717(15) 0.4954(14) 0.6923(16) 0.0352 Uani
H40 H 0.8236 0.4371 0.7174 0.0420 Uiso
H41 H 0.8292 0.4905 0.6216 0.0420 Uiso
O41 O 0.5735(14) 0.1779(11) 0.1406(10) 0.0408 Uani
H51 H 0.3895 0.0193 0.2697 0.0490 Uiso
C45 C 0.5583(18) 0.0341(13) 0.2408(12) 0.0293 Uani
H52 H 0.6013 0.0323 0.3099 0.0350 Uiso
C48 C 0.5785(16) 0.1519(13) 0.2272(13) 0.0256 Uani
O4 O 0.7415(12) 0.4580(11) 0.2486(10) 0.0414 Uani
O16 O 0.3070(14) 0.2013(12) 0.1063(13) 0.0593 Uani
C3 C 0.9210(16) 0.3177(14) 0.2922(14) 0.0309 Uani
H6 H 0.8781 0.2615 0.3226 0.0370 Uiso
H7 H 0.8741 0.3071 0.2218 0.0370 Uiso
C4 C 0.9305(15) 0.4346(13) 0.3444(12) 0.0262 Uani
H8 H 0.9755 0.4440 0.4152 0.0310 Uiso
H10 H 0.9581 0.5134 0.2287 0.0550 Uiso
C7 C 0.8040(16) 0.4526(14) 0.3359(14) 0.0299 Uani
C23 C 0.2266(17) 0.1739(14) 0.0217(15) 0.0342 Uani
C24 C 0.1089(17) 0.0841(14) 0.0114(14) 0.0324 Uani
C25 C 0.085(2) 0.044(2) 0.0931(17) 0.0707 Uani
H28 H 0.1433 0.0693 0.1568 0.0860 Uiso
P4 P 0.4452(4) 0.5892(3) 0.0829(3) 0.0201 Uani
N4 N 0.4319(13) 0.7945(11) 0.1598(10) 0.0282 Uani
C42 C 0.3917(15) 0.6727(12) 0.1641(12) 0.0230 Uani
H46 H 0.3028 0.6469 0.1442 0.0280 Uiso
H47 H 0.4226 0.6621 0.2329 0.0280 Uiso
C43 C 0.3847(18) 0.8587(14) 0.2298(15) 0.0339 Uani
H48 H 0.2965 0.8279 0.2129 0.0410 Uiso
H49 H 0.4211 0.8514 0.2988 0.0410 Uiso
C44 C 0.4161(18) 0.9801(14) 0.2218(16) 0.0407 Uani
H50 H 0.3723 0.9880 0.1548 0.0490 Uiso
C46 C 0.6005(18) 0.9645(14) 0.1711(15) 0.0388 Uani
H53 H 0.6885 0.9939 0.1854 0.0460 Uiso
H54 H 0.5618 0.9705 0.1022 0.0460 Uiso
C47 C 0.5684(16) 0.8418(13) 0.1819(14) 0.0325 Uani
H55 H 0.6102 0.8348 0.2498 0.0390 Uiso
H56 H 0.5958 0.8008 0.1357 0.0390 Uiso
C26 C 0.026(2) 0.036(2) 0.9167(16) 0.0612 Uani
H29 H 0.0445 0.0564 0.8589 0.0740 Uiso
C52 C 0.974(2) 0.964(2) 0.0833(16) 0.0612 Uani
H58 H 0.9555 0.9436 0.1411 0.0740 Uiso
C49 C 0.7734(17) 0.8261(14) 0.9783(15) 0.0342 Uani
C50 C 0.8911(17) 0.9159(14) 0.9886(14) 0.0324 Uani
C51 C 0.915(2) 0.956(2) 0.9069(17) 0.0707 Uani
H57 H 0.8567 0.9307 0.8432 0.0860 Uiso
C37 C 0.1838(17) 0.0023(15) 0.5356(14) 0.0370 Uani
H43 H 0.2183 0.0447 0.6030 0.0440 Uiso
C38 C 0.2361(18) 0.0357(14) 0.4604(13) 0.0358 Uani
H44 H 0.2118 0.0045 0.3111 0.0800 Uiso
C41 C 0.3466(18) 0.1370(15) 0.4843(15) 0.0391 Uani
C35 C 0.0246(17) 0.8554(14) 0.4160(14) 0.0329 Uani
C36 C 0.0818(15) 0.9102(15) 0.5137(13) 0.0303 Uani
H42 H 0.0507 0.8845 0.5673 0.0370 Uiso
C39 C 0.179(2) 0.980(2) 0.3642(17) 0.0672 Uani
C40 C 0.079(2) 0.8863(18) 0.3405(15) 0.0547 Uani
H45 H 0.0447 0.8437 0.2731 0.0660 Uiso
O26 O 0.8422(15) 0.7303(13) 0.2984(10) 0.0600 Uani
C34 C 0.9054(18) 0.7645(16) 0.3874(14) 0.0357 Uani
loop_
_atom_site_aniso_label
_atom_site_aniso_U_11
_atom_site_aniso_U_22
_atom_site_aniso_U_33
_atom_site_aniso_U_23
_atom_site_aniso_U_13
_atom_site_aniso_U_12
O6 0.031 0.058 0.037 0.017 -0.001 -0.021
O7 0.05 0.062 0.041 -0.013 0.011 -0.019
C8 0.031 0.043 0.034 0.003 0.018 0.005
Pb10 0.0176 0.0251 0.0244 0.004 0.0056 0
Pb13 0.0178 0.0218 0.023 0.0047 0.0049 0.0026
O20 0.024 0.047 0.046 0.009 0.002 0.007
O21 0.034 0.057 0.036 -0.002 0.011 0.019
O32 0.026 0.013 0.03 0.005 0.005 0.002
O36 0.038 0.034 0.029 0.011 0.014 0.011
O43 0.059 0.036 0.041 0.015 0.028 0.021
O48 0.032 0.039 0.082 -0.004 0.007 -0.016
C29 0.017 0.032 0.044 0.012 0.009 0.006
C30 0.022 0.026 0.026 0.002 0.001 0.007
C33 0.017 0.032 0.043 0 0.014 0.008
Pb4 0.0172 0.0326 0.0273 0.0041 0.0034 0.0023
O11 0.038 0.034 0.029 0.011 0.014 0.011
Pb15 0.0178 0.0218 0.023 0.0047 0.0049 0.0026
O33 0.026 0.013 0.03 0.005 0.005 0.002
O38 0.013 0.018 0.046 -0.001 0.003 0.001
O45 0.046 0.033 0.084 0.014 0.046 0
P2 0.019 0.0136 0.024 0.0019 0.0052 0.0002
O12 0.013 0.018 0.046 -0.001 0.003 0.001
N2 0.025 0.023 0.033 -0.006 0.013 0
C9 0.027 0.029 0.045 0.004 0.024 -0.001
C10 0.014 0.048 0.027 0.016 0.003 0.006
C13 0.077 0.064 0.048 -0.009 0.045 -0.022
C14 0.049 0.062 0.035 -0.014 0.03 -0.025
C16 0.015 0.018 0.031 0.005 0.009 -0.006
C17 0.03 0.025 0.052 0 0.023 0.008
C18 0.041 0.023 0.062 -0.003 0.034 0
C20 0.032 0.022 0.054 0.013 0.006 -0.001
C21 0.022 0.017 0.044 -0.006 0.005 -0.01
Pb20 0.0172 0.0326 0.0273 0.0041 0.0034 0.0023
O46 0.046 0.033 0.084 0.014 0.046 0
Pb1 0.0265 0.0256 0.0266 0.0052 0.0072 0.0044
P1 0.013 0.026 0.0204 -0.0003 0.0025 0.001
O1 0.028 0.018 0.042 -0.003 0.007 0.005
O2 0.014 0.035 0.034 0.001 0.009 0.013
O3 0.013 0.052 0.024 0.008 0.008 0.005
O8 0.032 0.03 0.042 0.003 -0.004 -0.017
O9 0.057 0.038 0.079 -0.007 0.038 -0.022
O13 0.083 0.026 0.039 0.001 0.029 0.01
N1 0.022 0.054 0.017 0.004 0.01 0.006
C1 0.023 0.044 0.018 0.005 0.011 0.004
C2 0.022 0.036 0.04 0.008 0.01 0.006
C5 0.032 0.027 0.073 0.013 0.012 0.002
C6 0.012 0.026 0.076 0.028 0.015 0.012
C11 0.026 0.037 0.034 -0.003 0 -0.002
C12 0.039 0.027 0.03 0.002 0.011 -0.009
C15 0.027 0.027 0.054 0.002 0.018 -0.012
C19 0.049 0.021 0.021 0.005 0.009 0.017
C22 0.028 0.021 0.033 0.008 0.014 0.01
Pb5 0.0265 0.0256 0.0266 0.0052 0.0072 0.0044
Pb8 0.0176 0.0251 0.0244 0.004 0.0056 0
P3 0.013 0.026 0.0204 -0.0003 0.0025 0.001
O17 0.028 0.018 0.042 -0.003 0.007 0.005
O18 0.014 0.035 0.034 0.001 0.009 0.013
O19 0.013 0.052 0.024 0.008 0.008 0.005
O23 0.034 0.057 0.036 -0.002 0.011 0.019
O25 0.031 0.058 0.037 0.017 -0.001 -0.021
O28 0.032 0.03 0.042 0.003 -0.004 -0.017
O30 0.057 0.038 0.079 -0.007 0.038 -0.022
O40 0.083 0.026 0.039 0.001 0.029 0.01
N3 0.022 0.054 0.017 0.004 0.01 0.006
C27 0.023 0.044 0.018 0.005 0.011 0.004
C28 0.022 0.036 0.04 0.008 0.01 0.006
C31 0.032 0.027 0.073 0.013 0.012 0.002
C32 0.012 0.026 0.076 0.028 0.015 0.012
O41 0.059 0.036 0.041 0.015 0.028 0.021
C45 0.049 0.021 0.021 0.005 0.009 0.017
C48 0.028 0.021 0.033 0.008 0.014 0.01
O4 0.024 0.047 0.046 0.009 0.002 0.007
O16 0.032 0.039 0.082 -0.004 0.007 -0.016
C3 0.017 0.032 0.044 0.012 0.009 0.006
C4 0.022 0.026 0.026 0.002 0.001 0.007
C7 0.017 0.032 0.043 0 0.014 0.008
C23 0.022 0.027 0.055 0.006 0.021 0
C24 0.029 0.021 0.046 0.014 0.01 0.004
C25 0.048 0.09 0.046 0.02 0.003 -0.018
P4 0.019 0.0136 0.024 0.0019 0.0052 0.0002
N4 0.025 0.023 0.033 -0.006 0.013 0
C42 0.015 0.018 0.031 0.005 0.009 -0.006
C43 0.03 0.025 0.052 0 0.023 0.008
C44 0.041 0.023 0.062 -0.003 0.034 0
C46 0.032 0.022 0.054 0.013 0.006 -0.001
C47 0.022 0.017 0.044 -0.006 0.005 -0.01
C26 0.042 0.072 0.045 0.037 -0.003 -0.017
C52 0.042 0.072 0.045 0.037 -0.003 -0.017
C49 0.022 0.027 0.055 0.006 0.021 0
C50 0.029 0.021 0.046 0.014 0.01 0.004
C51 0.048 0.09 0.046 0.02 0.003 -0.018
C37 0.026 0.037 0.034 -0.003 0 -0.002
C38 0.039 0.027 0.03 0.002 0.011 -0.009
C41 0.027 0.027 0.054 0.002 0.018 -0.012
C35 0.027 0.029 0.045 0.004 0.024 -0.001
C36 0.014 0.048 0.027 0.016 0.003 0.006
C39 0.077 0.064 0.048 -0.009 0.045 -0.022
C40 0.049 0.062 0.035 -0.014 0.03 -0.025
O26 0.05 0.062 0.041 -0.013 0.011 -0.019
C34 0.031 0.043 0.034 0.003 0.018 0.005
loop_
_geom_bond_atom_site_label_1
_geom_bond_atom_site_label_2
_geom_bond_site_symmetry_1
_geom_bond_site_symmetry_2
O6 C8 1_555 1_555
O7 C8 1_555 1_555
Pb10 O6 1_555 1_555
Pb10 O21 1_555 1_555
Pb13 O20 1_555 1_555
O20 C33 1_555 1_555
O21 C33 1_555 1_555
O32 Pb13 1_555 1_555
O36 Pb13 1_555 1_555
O43 Pb13 1_555 1_555
O48 Pb13 1_555 1_555
H35 C29 1_555 1_555
H36 C29 1_555 1_555
C30 C29 1_555 1_555
H37 C30 1_555 1_555
C33 C30 1_555 1_555
Pb15 O11 1_555 1_555
O33 Pb15 1_555 1_555
O38 Pb4 1_555 1_555
O45 Pb4 1_555 1_555
P2 O32 1_555 1_555
O12 P2 1_555 1_555
N2 C16 1_555 1_555
C9 C10 1_555 1_555
C10 H13 1_555 1_555
C14 C9 1_555 1_555
H16 C14 1_555 1_555
C16 P2 1_555 1_555
H17 C16 1_555 1_555
H18 C16 1_555 1_555
C17 N2 1_555 1_555
H19 C17 1_555 1_555
H20 C17 1_555 1_555
C18 C17 1_555 1_555
H21 C18 1_555 1_555
H24 C20 1_555 1_555
H25 C20 1_555 1_555
C21 N2 1_555 1_555
H26 C21 1_555 1_555
H27 C21 1_555 1_555
Pb20 O12 1_555 1_555
O46 Pb20 1_555 1_555
C13 C14 1_555 1_555
C20 C21 1_555 1_555
Pb1 O1 1_555 1_555
Pb10 O3 1_555 1_555
P1 O1 1_555 1_555
O2 P1 1_555 1_555
O3 P1 1_555 1_555
O8 C15 1_555 1_555
O9 Pb1 1_555 1_555
O13 Pb1 1_555 1_555
O43 C22 1_555 1_555
N1 H1 1_555 1_555
C1 P1 1_555 1_555
H2 C1 1_555 1_555
H3 C1 1_555 1_555
C2 N1 1_555 1_555
H4 C2 1_555 1_555
H5 C2 1_555 1_555
H9 C5 1_555 1_555
C6 N1 1_555 1_555
H11 C6 1_555 1_555
H12 C6 1_555 1_555
H14 C11 1_555 1_555
C12 C11 1_555 1_555
C15 O9 1_555 1_555
H23 C19 1_555 1_555
C22 O13 1_555 1_555
Pb5 O2 1_555 1_555
Pb8 O8 1_555 1_555
P3 O17 1_555 1_555
O17 Pb5 1_555 1_555
O18 Pb1 1_555 1_555
O19 Pb8 1_555 1_555
O23 Pb8 1_555 1_555
O25 Pb8 1_555 1_555
O28 Pb10 1_555 1_555
O30 Pb5 1_555 1_555
O40 Pb5 1_555 1_555
N3 H30 1_555 1_555
C27 P3 1_555 1_555
H31 C27 1_555 1_555
H32 C27 1_555 1_555
C28 N3 1_555 1_555
H33 C28 1_555 1_555
H34 C28 1_555 1_555
H38 C31 1_555 1_555
C32 N3 1_555 1_555
H40 C32 1_555 1_555
H41 C32 1_555 1_555
N1 C1 1_555 1_555
C5 C6 1_555 1_555
C12 C15 1_555 1_555
C19 C22 1_555 1_555
P3 O18 1_555 1_555
P3 O19 1_555 1_555
N3 C27 1_555 1_555
C31 C32 1_555 1_555
Pb15 O41 1_555 1_555
O40 C48 1_555 1_555
O41 C48 1_555 1_555
H52 C45 1_555 1_555
C48 C45 1_555 1_555
Pb15 O4 1_555 1_555
O4 C7 1_555 1_555
O23 C7 1_555 1_555
O16 Pb15 1_555 1_555
H6 C3 1_555 1_555
H7 C3 1_555 1_555
C4 C3 1_555 1_555
H8 C4 1_555 1_555
C7 C4 1_555 1_555
C23 O16 1_555 1_555
C24 C23 1_555 1_555
C25 C24 1_555 1_555
H28 C25 1_555 1_555
P4 O33 1_555 1_555
O38 P4 1_555 1_555
N4 C42 1_555 1_555
C42 P4 1_555 1_555
H46 C42 1_555 1_555
H47 C42 1_555 1_555
C43 N4 1_555 1_555
H48 C43 1_555 1_555
H49 C43 1_555 1_555
C44 C43 1_555 1_555
H50 C44 1_555 1_555
H53 C46 1_555 1_555
H54 C46 1_555 1_555
C47 N4 1_555 1_555
H55 C47 1_555 1_555
H56 C47 1_555 1_555
C46 C47 1_555 1_555
H29 C26 1_555 1_555
H58 C52 1_555 1_555
O48 C49 1_555 1_555
C49 C50 1_555 1_555
C50 C51 1_555 1_555
H57 C51 1_555 1_555
O28 C41 1_555 1_555
O30 C41 1_555 1_555
H43 C37 1_555 1_555
C38 C37 1_555 1_555
C41 C38 1_555 1_555
C36 C35 1_555 1_555
H42 C36 1_555 1_555
C40 C35 1_555 1_555
H45 C40 1_555 1_555
C39 C40 1_555 1_555
O26 C34 1_555 1_555
C34 O25 1_555 1_555

#END
