
###############################################################################
#
# This file contains modified crystal structure data generated from the
# MOF subset of the Cambridge Structural Database (CSD) v543 
# hosted by the Cambridge Crystallographic Data Centre (CCDC).
#
# This work is licensed under the Creative Commons
# Attribution-NonCommercial-ShareAlike 4.0 International License.
# To view a copy of this license, visit
# http://creativecommons.org/licenses/by-nc-sa/4.0/
# or send a letter to
# Creative Commons, PO Box 1866, Mountain View, CA 94042, USA.
#
# CIF created using the CSD Python API on 29 September 2022
# The structure has been converted into the P1 space group
# The structure has a 3D framework
# The original CSD entry DAMZEZ is in the orthorhombic crystal system
# The original CSD entry DAMZEZ is in a Sohncke space group
# The framework has been calculated to contain at least 10.0% void space
# The void calculation uses a probe of radius 1.32A, grid spacing 0.4
#
###############################################################################

data_DAMZEZ
_chemical_formula_moiety         '(C136 H112 Cd5 N24 O32)n'
_symmetry_cell_setting           triclinic
_symmetry_space_group_name_H-M   'P 1'
_symmetry_Int_Tables_number      1
_space_group_name_Hall           'P 1'
loop_
_symmetry_equiv_pos_site_id
_symmetry_equiv_pos_as_xyz
1 x,y,z
_cell_length_a                   10.342(4)
_cell_length_b                   15.079(4)
_cell_length_c                   25.117(6)
_cell_angle_alpha                90
_cell_angle_beta                 90
_cell_angle_gamma                90
_cell_volume                     3916.92
loop_
_atom_site_label
_atom_site_type_symbol
_atom_site_fract_x
_atom_site_fract_y
_atom_site_fract_z
O1 O 0.133(3) 0.0972(19) 0.4822(10)
O2 O 0.281(3) 0.0880(19) 0.4172(11)
C1 C 0.178(3) 0.117(2) 0.4371(13)
C2 C 0.025(3) 0.195(2) 0.1002(14)
C6 C 0.102(3) 0.181(2) 0.4048(13)
C7 C 0.021(3) 0.234(2) 0.3209(13)
N4 N 0.028(3) 0.2248(18) 0.2634(10)
C10 C 0.032(3) 0.200(2) 0.1552(14)
H2 H 0.0934 0.1666 0.1737
C17 C 0.103(3) 0.179(2) 0.3487(13)
H9 H 0.1589 0.1415 0.3305
C20 C 0.023(3) 0.243(2) 0.4302(14)
H10 H 0.0220 0.2458 0.4671
O5 O 0.054(3) 0.0974(19) 0.0287(11)
C28 C 0.105(3) 0.126(2) 0.0702(14)
O6 O 0.211(3) 0.1048(19) 0.0902(11)
Cd4 Cd 0.41212(14) 0.00026(13) 0.46334(6)
Cd8 Cd 0.32837(15) 0.00591(12) 0.04404(6)
N7 N 0.101(2) 0.4772(18) 0.5738(10)
Cd7 Cd 0.17163(15) 0.99409(12) 0.54404(6)
Cd5 Cd 0.08788(14) 0.99974(13) 0.96334(6)
Cd1 Cd 0.91212(14) 0.49974(13) 0.53666(6)
Cd2 Cd 0.67163(15) 0.50591(12) 0.45596(6)
O3 O 0.773(3) 0.4014(19) 0.4080(11)
O4 O 0.917(3) 0.3940(19) 0.4741(11)
N1 N 0.287(2) 0.507(2) 0.3858(9)
N2 N 0.938(3) 0.2616(18) 0.2391(11)
C3 C 0.860(3) 0.306(2) 0.0993(13)
C4 C 0.871(3) 0.370(2) 0.4296(14)
C5 C 0.946(3) 0.300(2) 0.4012(14)
N3 N 0.480(2) 0.5265(15) 0.4193(10)
C8 C 0.858(3) 0.307(2) 0.1533(13)
H1 H 0.7989 0.3427 0.1711
C9 C 0.946(3) 0.255(2) 0.1827(14)
C11 C 0.163(3) 0.467(2) 0.3706(12)
H3 H 0.0931 0.5005 0.3863
H4 H 0.1590 0.4068 0.3845
C12 C 0.943(3) 0.248(2) 0.0725(14)
H5 H 0.9418 0.2459 0.0355
C13 C 0.940(3) 0.294(2) 0.3458(14)
H6 H 0.8836 0.3287 0.3262
C14 C 0.146(3) 0.464(2) 0.3100(12)
C15 C 0.032(3) 0.489(2) 0.2873(11)
C16 C 0.247(3) 0.433(2) 0.2776(12)
H8 H 0.3236 0.4140 0.2931
C18 C 0.384(3) 0.469(2) 0.4134(12)
C19 C 0.115(3) 0.459(2) 0.1993(13)
C21 C 0.325(3) 0.593(2) 0.3726(12)
H11 H 0.2775 0.6351 0.3535
C22 C 0.443(3) 0.603(2) 0.3937(12)
H12 H 0.4935 0.6539 0.3913
C23 C 0.016(3) 0.485(2) 0.2323(11)
C24 C 0.102(3) 0.461(2) 0.1402(12)
H14 H 0.0928 0.4004 0.1273
H15 H 0.0246 0.4932 0.1307
C25 C 0.383(3) 0.374(2) 0.4322(13)
H16 H 0.3497 0.3364 0.4039
H17 H 0.4703 0.3553 0.4400
C26 C 0.232(3) 0.429(2) 0.2226(12)
H18 H 0.2986 0.4074 0.2013
C27 C 0.301(3) 0.362(2) 0.4806(12)
H19 H 0.3265 0.4046 0.5072
H20 H 0.3119 0.3034 0.4943
H21 H 0.2118 0.3716 0.4715
C29 C 0.777(3) 0.369(2) 0.0674(13)
O7 O 0.828(3) 0.3967(18) 0.0246(10)
O8 O 0.667(3) 0.3868(18) 0.0869(10)
N5 N 0.214(2) 0.502(2) 0.1142(9)
C30 C 0.308(3) 0.463(2) 0.0860(12)
C31 C 0.221(3) 0.355(2) 0.0192(12)
H22 H 0.1345 0.3734 0.0274
H23 H 0.2211 0.2935 0.0093
C32 C 0.307(3) 0.368(2) 0.0679(12)
H25 H 0.2756 0.3308 0.0966
H26 H 0.3942 0.3498 0.0594
C33 C 0.245(3) 0.590(2) 0.1209(12)
H27 H 0.1977 0.6332 0.1391
N6 N 0.399(2) 0.5228(18) 0.0738(10)
C34 C 0.360(3) 0.602(2) 0.0954(16)
H28 H 0.4047 0.6552 0.0930
Cd3 Cd 0.58788(14) 0.50026(13) 0.03666(6)
O9 O 0.633(3) 0.4028(19) 0.5178(10)
O10 O 0.781(3) 0.4120(19) 0.5828(11)
O11 O 0.946(3) 0.5974(19) 0.4713(11)
O12 O 0.789(3) 0.6048(19) 0.4098(11)
O13 O 0.672(3) 0.6033(18) 0.5246(10)
O14 O 0.833(3) 0.6132(18) 0.5869(10)
H24 H 0.2539 0.3899 0.9902
Cd6 Cd 0.82837(15) 0.49409(12) 0.95596(6)
N1_2 N 0.213(2) 0.493(2) 0.8858(9)
N3_2 N 0.020(2) 0.4735(15) 0.9193(10)
C11_2 C 0.337(3) 0.533(2) 0.8706(12)
H3_2 H 0.4069 0.4995 0.8863
H4_2 H 0.3410 0.5932 0.8845
C14_2 C 0.354(3) 0.536(2) 0.8100(12)
C15_2 C 0.468(3) 0.511(2) 0.7873(11)
H7 H 0.5349 0.4906 0.8086
C16_2 C 0.253(3) 0.567(2) 0.7776(12)
H8_2 H 0.1764 0.5860 0.7931
C18_2 C 0.116(3) 0.531(2) 0.9134(12)
C19_2 C 0.385(3) 0.541(2) 0.6993(13)
C21_2 C 0.175(3) 0.407(2) 0.8726(12)
H11_2 H 0.2225 0.3649 0.8535
C22_2 C 0.057(3) 0.397(2) 0.8937(12)
H12_2 H 0.0065 0.3461 0.8913
C23_2 C 0.484(3) 0.515(2) 0.7323(11)
H13 H 0.5637 0.5007 0.7176
C24_2 C 0.398(3) 0.539(2) 0.6402(12)
H14_2 H 0.4072 0.5996 0.6273
H15_2 H 0.4754 0.5068 0.6307
C25_2 C 0.117(3) 0.626(2) 0.9322(13)
H16_2 H 0.1503 0.6636 0.9039
H17_2 H 0.0297 0.6447 0.9400
C26_2 C 0.268(3) 0.571(2) 0.7226(12)
H18_2 H 0.2014 0.5926 0.7013
C27_2 C 0.199(3) 0.638(2) 0.9806(12)
H20_2 H 0.1881 0.6966 0.9943
H21_2 H 0.2882 0.6284 0.9715
N5_2 N 0.286(2) 0.498(2) 0.6142(9)
C30_2 C 0.192(3) 0.537(2) 0.5860(12)
C31_2 C 0.279(3) 0.645(2) 0.5192(12)
H22_2 H 0.3655 0.6266 0.5274
H23_2 H 0.2789 0.7065 0.5093
H24_2 H 0.2461 0.6101 0.4902
C32_2 C 0.193(3) 0.632(2) 0.5679(12)
H25_2 H 0.2244 0.6692 0.5966
H26_2 H 0.1058 0.6502 0.5594
C33_2 C 0.255(3) 0.410(2) 0.6209(12)
H27_2 H 0.3023 0.3668 0.6391
C34_2 C 0.140(3) 0.398(2) 0.5954(16)
H28_2 H 0.0953 0.3448 0.5930
O9_2 O 0.867(3) 0.5972(19) 0.0178(10)
O10_2 O 0.719(3) 0.5880(19) 0.0828(11)
O1_2 O 0.367(3) 0.9028(19) 0.9822(10)
O2_2 O 0.219(3) 0.9120(19) 0.9172(11)
O3_2 O 0.727(3) 0.5986(19) 0.9080(11)
C1_2 C 0.322(3) 0.883(2) 0.9371(13)
O4_2 O 0.583(3) 0.6060(19) 0.9741(11)
N2_2 N 0.562(3) 0.7384(18) 0.7391(11)
C2_2 C 0.475(3) 0.805(2) 0.6002(14)
C3_2 C 0.640(3) 0.694(2) 0.5993(13)
C4_2 C 0.629(3) 0.630(2) 0.9296(14)
C5_2 C 0.554(3) 0.700(2) 0.9012(14)
C6_2 C 0.398(3) 0.819(2) 0.9048(13)
C7_2 C 0.479(3) 0.766(2) 0.8209(13)
C8_2 C 0.642(3) 0.693(2) 0.6533(13)
H1_2 H 0.7011 0.6573 0.6711
N4_2 N 0.472(3) 0.7752(18) 0.7634(10)
C9_2 C 0.554(3) 0.745(2) 0.6827(14)
C10_2 C 0.468(3) 0.800(2) 0.6552(14)
H2_2 H 0.4066 0.8334 0.6737
C12_2 C 0.557(3) 0.752(2) 0.5725(14)
H5_2 H 0.5582 0.7541 0.5355
C13_2 C 0.560(3) 0.706(2) 0.8458(14)
H6_2 H 0.6164 0.6713 0.8262
C17_2 C 0.397(3) 0.821(2) 0.8487(13)
H9_2 H 0.3411 0.8585 0.8305
C20_2 C 0.477(3) 0.757(2) 0.9302(14)
H10_2 H 0.4780 0.7542 0.9671
O5_2 O 0.446(3) 0.9026(19) 0.5287(11)
C28_2 C 0.395(3) 0.874(2) 0.5702(14)
O6_2 O 0.289(3) 0.8952(19) 0.5902(11)
C29_2 C 0.723(3) 0.631(2) 0.5674(13)
O11_2 O 0.554(3) 0.4026(19) 0.9713(11)
O12_2 O 0.711(3) 0.3952(19) 0.9098(11)
O3_3 O 0.273(3) 0.0986(19) 0.5920(11)
C1_3 C 0.678(3) 0.383(2) 0.5629(13)
O4_3 O 0.417(3) 0.1060(19) 0.5259(11)
N2_3 N 0.438(3) 0.2384(18) 0.7609(11)
C2_3 C 0.525(3) 0.305(2) 0.8998(14)
C3_3 C 0.360(3) 0.194(2) 0.9007(13)
C4_3 C 0.371(3) 0.130(2) 0.5704(14)
C5_3 C 0.446(3) 0.200(2) 0.5988(14)
C6_3 C 0.602(3) 0.319(2) 0.5952(13)
C7_3 C 0.521(3) 0.266(2) 0.6791(13)
C8_3 C 0.358(3) 0.193(2) 0.8467(13)
H1_3 H 0.2989 0.1573 0.8289
N4_3 N 0.528(3) 0.2752(18) 0.7366(10)
C9_3 C 0.446(3) 0.245(2) 0.8173(14)
C10_3 C 0.532(3) 0.300(2) 0.8448(14)
H2_3 H 0.5934 0.3334 0.8263
C12_3 C 0.443(3) 0.252(2) 0.9275(14)
H5_3 H 0.4418 0.2541 0.9645
C13_3 C 0.440(3) 0.206(2) 0.6542(14)
H6_3 H 0.3836 0.1713 0.6738
C17_3 C 0.603(3) 0.321(2) 0.6513(13)
H9_3 H 0.6589 0.3585 0.6695
C20_3 C 0.523(3) 0.257(2) 0.5698(14)
H10_3 H 0.5220 0.2542 0.5329
C28_3 C 0.605(3) 0.374(2) 0.9298(14)
C29_3 C 0.277(3) 0.131(2) 0.9326(13)
O7_2 O 0.328(3) 0.1033(18) 0.9754(10)
O8_2 O 0.167(3) 0.1132(18) 0.9131(10)
N7_2 N 0.601(2) 0.0228(18) 0.4262(10)
O13_2 O 0.172(3) 0.8967(18) 0.4754(10)
O14_2 O 0.333(3) 0.8868(18) 0.4131(10)
N1_3 N 0.787(2) 0.993(2) 0.6142(9)
N3_3 N 0.980(2) 0.9735(15) 0.5807(10)
H3_3 H 0.5931 0.9995 0.6137
H7_2 H 0.4651 0.9906 0.6914
C21_3 C 0.825(3) 0.907(2) 0.6274(12)
H11_3 H 0.7775 0.8649 0.6465
C22_3 C 0.943(3) 0.897(2) 0.6063(12)
H12_3 H 0.9935 0.8461 0.6087
N5_3 N 0.714(2) 0.998(2) 0.8858(9)
C33_3 C 0.745(3) 0.910(2) 0.8791(12)
H27_3 H 0.6977 0.8668 0.8609
N6_2 N 0.899(2) 0.9772(18) 0.9262(10)
C34_3 C 0.860(3) 0.898(2) 0.9046(16)
H28_3 H 0.9047 0.8448 0.9070
N1_4 N 0.713(2) 0.007(2) 0.1142(9)
N3_4 N 0.520(2) 0.0265(15) 0.0807(10)
H3_4 H 0.9069 0.0005 0.1137
C21_4 C 0.675(3) 0.093(2) 0.1274(12)
H11_4 H 0.7225 0.1351 0.1465
C22_4 C 0.557(3) 0.103(2) 0.1063(12)
H12_4 H 0.5065 0.1539 0.1087
N5_4 N 0.786(2) 0.002(2) 0.3858(9)
C33_4 C 0.755(3) 0.090(2) 0.3791(12)
H27_4 H 0.8023 0.1332 0.3609
C34_4 C 0.640(3) 0.102(2) 0.4046(16)
H28_4 H 0.5953 0.1552 0.4070
O3_4 O 0.227(3) 0.9014(19) 0.0920(11)
O4_4 O 0.083(3) 0.8940(19) 0.0259(11)
N2_4 N 0.062(3) 0.7616(18) 0.2609(11)
C3_4 C 0.140(3) 0.806(2) 0.4007(13)
C4_4 C 0.129(3) 0.870(2) 0.0704(14)
C5_4 C 0.054(3) 0.800(2) 0.0988(14)
C8_4 C 0.142(3) 0.807(2) 0.3467(13)
H1_4 H 0.2011 0.8427 0.3289
C9_4 C 0.054(3) 0.755(2) 0.3173(14)
C11_3 C 0.837(3) 0.967(2) 0.1294(12)
H4_3 H 0.8410 0.9068 0.1155
C12_4 C 0.057(3) 0.748(2) 0.4275(14)
H5_4 H 0.0582 0.7459 0.4645
C13_4 C 0.060(3) 0.794(2) 0.1542(14)
H6_4 H 0.1164 0.8287 0.1738
C14_3 C 0.854(3) 0.964(2) 0.1900(12)
C15_3 C 0.968(3) 0.989(2) 0.2127(11)
C16_3 C 0.753(3) 0.933(2) 0.2224(12)
H8_3 H 0.6764 0.9140 0.2069
C18_3 C 0.616(3) 0.969(2) 0.0866(12)
C19_3 C 0.885(3) 0.959(2) 0.3007(13)
C23_3 C 0.984(3) 0.985(2) 0.2677(11)
C24_3 C 0.898(3) 0.961(2) 0.3598(12)
H14_3 H 0.9072 0.9004 0.3727
H15_3 H 0.9754 0.9932 0.3693
C25_3 C 0.617(3) 0.874(2) 0.0678(13)
H16_3 H 0.6503 0.8364 0.0961
H17_3 H 0.5297 0.8553 0.0600
C26_3 C 0.768(3) 0.929(2) 0.2774(12)
H18_3 H 0.7014 0.9074 0.2987
C27_3 C 0.699(3) 0.862(2) 0.0194(12)
H20_3 H 0.6881 0.8034 0.0057
H21_3 H 0.7882 0.8716 0.0285
C29_4 C 0.223(3) 0.869(2) 0.4326(13)
C30_3 C 0.692(3) 0.963(2) 0.4140(12)
C31_3 C 0.779(3) 0.855(2) 0.4808(12)
H22_3 H 0.8655 0.8734 0.4726
H23_3 H 0.7789 0.7935 0.4907
H24_3 H 0.7461 0.8899 0.5098
C32_3 C 0.693(3) 0.868(2) 0.4321(12)
H25_3 H 0.7244 0.8308 0.4034
H26_3 H 0.6058 0.8498 0.4406
H19_2 H 0.6735 0.9046 0.9928
C1_4 C 0.822(3) 0.617(2) 0.0629(13)
C2_4 C 0.975(3) 0.695(2) 0.3998(14)
C6_4 C 0.898(3) 0.681(2) 0.0952(13)
C7_4 C 0.979(3) 0.734(2) 0.1791(13)
N4_4 N 0.972(3) 0.7248(18) 0.2366(10)
C10_4 C 0.968(3) 0.700(2) 0.3448(14)
H2_4 H 0.9066 0.6666 0.3263
C17_4 C 0.897(3) 0.679(2) 0.1513(13)
H9_4 H 0.8411 0.6415 0.1695
C20_4 C 0.977(3) 0.743(2) 0.0698(14)
H10_4 H 0.9780 0.7458 0.0329
C28_4 C 0.895(3) 0.626(2) 0.4298(14)
H7_3 H 0.9651 0.5094 0.3086
H13_2 H 0.9363 0.4993 0.2176
H19_3 H 0.1735 0.5954 0.0072
H24_4 H 0.7539 0.1101 0.0098
C11_4 C 0.663(3) 0.033(2) 0.6294(12)
H4_4 H 0.6590 0.0932 0.6155
C14_4 C 0.646(3) 0.036(2) 0.6900(12)
C15_4 C 0.532(3) 0.011(2) 0.7127(11)
C16_4 C 0.747(3) 0.067(2) 0.7224(12)
H8_4 H 0.8236 0.0860 0.7069
C18_4 C 0.884(3) 0.031(2) 0.5866(12)
C19_4 C 0.615(3) 0.041(2) 0.8007(13)
C23_4 C 0.516(3) 0.015(2) 0.7677(11)
H13_3 H 0.4363 0.0007 0.7824
C24_4 C 0.602(3) 0.039(2) 0.8598(12)
H14_4 H 0.5928 0.0996 0.8727
H15_4 H 0.5246 0.0068 0.8693
C25_4 C 0.883(3) 0.126(2) 0.5678(13)
H16_4 H 0.8497 0.1636 0.5961
H17_4 H 0.9703 0.1447 0.5600
C26_4 C 0.732(3) 0.071(2) 0.7774(12)
H18_4 H 0.7986 0.0926 0.7987
C27_4 C 0.801(3) 0.138(2) 0.5194(12)
H19_4 H 0.8265 0.0954 0.4928
H20_4 H 0.8119 0.1966 0.5057
H21_4 H 0.7118 0.1284 0.5285
C30_4 C 0.808(3) 0.037(2) 0.9140(12)
C31_4 C 0.721(3) 0.145(2) 0.9808(12)
H22_4 H 0.6345 0.1266 0.9726
H23_4 H 0.7211 0.2065 0.9907
C32_4 C 0.807(3) 0.132(2) 0.9321(12)
H25_4 H 0.7756 0.1692 0.9034
H26_4 H 0.8942 0.1502 0.9406
H7_4 H 0.0349 0.0094 0.1914
H13_4 H 0.0637 0.9993 0.2824
loop_
_geom_bond_atom_site_label_1
_geom_bond_atom_site_label_2
_geom_bond_site_symmetry_1
_geom_bond_site_symmetry_2
O1 C1 1_555 1_555
O2 C1 1_555 1_555
C1 C6 1_555 1_555
C2 C10 1_555 1_555
C6 C17 1_555 1_555
C7 N4 1_555 1_555
H2 C10 1_555 1_555
C17 C7 1_555 1_555
H9 C17 1_555 1_555
H10 C20 1_555 1_555
O5 C28 1_555 1_555
C28 C2 1_555 1_555
O6 C28 1_555 1_555
Cd4 O2 1_555 1_555
Cd8 O6 1_555 1_555
C6 C20 1_555 1_555
Cd1 O4 1_555 1_555
Cd2 O3 1_555 1_555
O3 C4 1_555 1_555
O4 C4 1_555 1_555
N1 C11 1_555 1_555
C3 C8 1_555 1_555
C4 C5 1_555 1_555
C5 C13 1_555 1_555
N3 Cd2 1_555 1_555
C8 H1 1_555 1_555
C9 N2 1_555 1_555
C11 H3 1_555 1_555
H4 C11 1_555 1_555
H5 C12 1_555 1_555
H6 C13 1_555 1_555
C14 C11 1_555 1_555
C15 C14 1_555 1_555
C16 C14 1_555 1_555
H8 C16 1_555 1_555
C18 N1 1_555 1_555
C19 C23 1_555 1_555
C21 N1 1_555 1_555
H11 C21 1_555 1_555
C22 N3 1_555 1_555
H12 C22 1_555 1_555
C23 C15 1_555 1_555
C24 C19 1_555 1_555
H14 C24 1_555 1_555
H15 C24 1_555 1_555
C25 C18 1_555 1_555
H16 C25 1_555 1_555
H17 C25 1_555 1_555
C26 C16 1_555 1_555
H18 C26 1_555 1_555
C27 C25 1_555 1_555
H19 C27 1_555 1_555
H20 C27 1_555 1_555
H21 C27 1_555 1_555
C29 C3 1_555 1_555
O7 C29 1_555 1_555
O8 C29 1_555 1_555
N5 C24 1_555 1_555
C30 N5 1_555 1_555
C31 H22 1_555 1_555
H23 C31 1_555 1_555
C32 C30 1_555 1_555
H25 C32 1_555 1_555
H26 C32 1_555 1_555
C33 N5 1_555 1_555
H27 C33 1_555 1_555
N6 C30 1_555 1_555
C34 C33 1_555 1_555
H28 C34 1_555 1_555
Cd3 O8 1_555 1_555
O9 Cd2 1_555 1_555
O10 Cd1 1_555 1_555
O11 Cd1 1_555 1_555
O12 Cd2 1_555 1_555
O13 Cd2 1_555 1_555
O14 Cd1 1_555 1_555
C3 C12 1_555 1_555
N3 C18 1_555 1_555
C8 C9 1_555 1_555
C19 C26 1_555 1_555
C21 C22 1_555 1_555
C31 C32 1_555 1_555
N6 C34 1_555 1_555
N6 Cd3 1_555 1_555
N1_2 C11_2 1_555 1_555
C11_2 H3_2 1_555 1_555
H4_2 C11_2 1_555 1_555
C14_2 C11_2 1_555 1_555
C15_2 C14_2 1_555 1_555
H7 C15_2 1_555 1_555
C16_2 C14_2 1_555 1_555
H8_2 C16_2 1_555 1_555
C18_2 N1_2 1_555 1_555
C19_2 C23_2 1_555 1_555
C21_2 N1_2 1_555 1_555
H11_2 C21_2 1_555 1_555
C22_2 N3_2 1_555 1_555
H12_2 C22_2 1_555 1_555
C23_2 C15_2 1_555 1_555
H13 C23_2 1_555 1_555
C24_2 C19_2 1_555 1_555
H14_2 C24_2 1_555 1_555
H15_2 C24_2 1_555 1_555
C25_2 C18_2 1_555 1_555
H16_2 C25_2 1_555 1_555
H17_2 C25_2 1_555 1_555
C26_2 C16_2 1_555 1_555
H18_2 C26_2 1_555 1_555
C27_2 C25_2 1_555 1_555
H20_2 C27_2 1_555 1_555
H21_2 C27_2 1_555 1_555
N5_2 C24_2 1_555 1_555
C30_2 N5_2 1_555 1_555
C31_2 H22_2 1_555 1_555
H23_2 C31_2 1_555 1_555
H24_2 C31_2 1_555 1_555
C32_2 C30_2 1_555 1_555
H25_2 C32_2 1_555 1_555
H26_2 C32_2 1_555 1_555
C33_2 N5_2 1_555 1_555
H27_2 C33_2 1_555 1_555
N7 C30_2 1_555 1_555
C34_2 C33_2 1_555 1_555
H28_2 C34_2 1_555 1_555
N3_2 C18_2 1_555 1_555
C19_2 C26_2 1_555 1_555
C21_2 C22_2 1_555 1_555
C31_2 C32_2 1_555 1_555
N7 C34_2 1_555 1_555
O10_2 Cd3 1_555 1_555
Cd6 O3_2 1_555 1_555
O1_2 C1_2 1_555 1_555
O2_2 C1_2 1_555 1_555
O3_2 C4_2 1_555 1_555
C1_2 C6_2 1_555 1_555
O4_2 C4_2 1_555 1_555
N2_2 N4_2 1_555 1_555
C2_2 C10_2 1_555 1_555
C3_2 C8_2 1_555 1_555
C4_2 C5_2 1_555 1_555
C5_2 C13_2 1_555 1_555
C6_2 C17_2 1_555 1_555
C7_2 N4_2 1_555 1_555
C8_2 H1_2 1_555 1_555
C9_2 N2_2 1_555 1_555
C10_2 C9_2 1_555 1_555
H2_2 C10_2 1_555 1_555
C12_2 C2_2 1_555 1_555
H5_2 C12_2 1_555 1_555
C13_2 C7_2 1_555 1_555
H6_2 C13_2 1_555 1_555
C17_2 C7_2 1_555 1_555
H9_2 C17_2 1_555 1_555
C20_2 C5_2 1_555 1_555
H10_2 C20_2 1_555 1_555
O5_2 C28_2 1_555 1_555
C28_2 C2_2 1_555 1_555
O6_2 C28_2 1_555 1_555
C29_2 C3_2 1_555 1_555
O13 C29_2 1_555 1_555
O14 C29_2 1_555 1_555
Cd5 O2_2 1_555 1_555
Cd7 O6_2 1_555 1_555
O12_2 Cd6 1_555 1_555
C3_2 C12_2 1_555 1_555
C6_2 C20_2 1_555 1_555
C8_2 C9_2 1_555 1_555
Cd4 O4_3 1_555 1_555
O9 C1_3 1_555 1_555
O10 C1_3 1_555 1_555
O3_3 C4_3 1_555 1_555
C1_3 C6_3 1_555 1_555
O4_3 C4_3 1_555 1_555
N2_3 N4_3 1_555 1_555
C2_3 C10_3 1_555 1_555
C3_3 C8_3 1_555 1_555
C4_3 C5_3 1_555 1_555
C5_3 C13_3 1_555 1_555
C6_3 C17_3 1_555 1_555
C7_3 N4_3 1_555 1_555
C8_3 H1_3 1_555 1_555
C9_3 N2_3 1_555 1_555
C10_3 C9_3 1_555 1_555
H2_3 C10_3 1_555 1_555
C12_3 C2_3 1_555 1_555
H5_3 C12_3 1_555 1_555
C13_3 C7_3 1_555 1_555
H6_3 C13_3 1_555 1_555
C17_3 C7_3 1_555 1_555
H9_3 C17_3 1_555 1_555
C20_3 C5_3 1_555 1_555
H10_3 C20_3 1_555 1_555
O11_2 C28_3 1_555 1_555
C28_3 C2_3 1_555 1_555
O12_2 C28_3 1_555 1_555
C29_3 C3_3 1_555 1_555
O7_2 C29_3 1_555 1_555
O8_2 C29_3 1_555 1_555
N7_2 Cd4 1_555 1_555
C3_3 C12_3 1_555 1_555
C6_3 C20_3 1_555 1_555
C8_3 C9_3 1_555 1_555
O13_2 Cd7 1_555 1_555
C21_3 N1_3 1_555 1_555
H11_3 C21_3 1_555 1_555
C22_3 N3_3 1_555 1_555
H12_3 C22_3 1_555 1_555
C33_3 N5_3 1_555 1_555
H27_3 C33_3 1_555 1_555
C34_3 C33_3 1_555 1_555
H28_3 C34_3 1_555 1_555
C21_3 C22_3 1_555 1_555
N6_2 C34_3 1_555 1_555
N3_4 Cd8 1_555 1_555
C21_4 N1_4 1_555 1_555
H11_4 C21_4 1_555 1_555
C22_4 N3_4 1_555 1_555
H12_4 C22_4 1_555 1_555
C33_4 N5_4 1_555 1_555
H27_4 C33_4 1_555 1_555
C34_4 C33_4 1_555 1_555
H28_4 C34_4 1_555 1_555
C21_4 C22_4 1_555 1_555
N7_2 C34_4 1_555 1_555
O3_4 C4_4 1_555 1_555
O4_4 C4_4 1_555 1_555
C3_4 C8_4 1_555 1_555
C4_4 C5_4 1_555 1_555
C5_4 C13_4 1_555 1_555
C8_4 H1_4 1_555 1_555
C9_4 N2_4 1_555 1_555
H4_3 C11_3 1_555 1_555
H5_4 C12_4 1_555 1_555
H6_4 C13_4 1_555 1_555
C14_3 C11_3 1_555 1_555
C15_3 C14_3 1_555 1_555
C16_3 C14_3 1_555 1_555
H8_3 C16_3 1_555 1_555
C19_3 C23_3 1_555 1_555
C23_3 C15_3 1_555 1_555
C24_3 C19_3 1_555 1_555
H14_3 C24_3 1_555 1_555
H15_3 C24_3 1_555 1_555
C25_3 C18_3 1_555 1_555
H16_3 C25_3 1_555 1_555
H17_3 C25_3 1_555 1_555
C26_3 C16_3 1_555 1_555
H18_3 C26_3 1_555 1_555
C27_3 C25_3 1_555 1_555
H20_3 C27_3 1_555 1_555
H21_3 C27_3 1_555 1_555
C29_4 C3_4 1_555 1_555
O13_2 C29_4 1_555 1_555
O14_2 C29_4 1_555 1_555
C31_3 H22_3 1_555 1_555
H23_3 C31_3 1_555 1_555
H24_3 C31_3 1_555 1_555
C32_3 C30_3 1_555 1_555
H25_3 C32_3 1_555 1_555
H26_3 C32_3 1_555 1_555
C3_4 C12_4 1_555 1_555
C8_4 C9_4 1_555 1_555
C19_3 C26_3 1_555 1_555
C31_3 C32_3 1_555 1_555
O9_2 C1_4 1_555 1_555
O10_2 C1_4 1_555 1_555
C1_4 C6_4 1_555 1_555
C2_4 C10_4 1_555 1_555
C6_4 C17_4 1_555 1_555
C7_4 N4_4 1_555 1_555
H2_4 C10_4 1_555 1_555
C17_4 C7_4 1_555 1_555
H9_4 C17_4 1_555 1_555
H10_4 C20_4 1_555 1_555
O11 C28_4 1_555 1_555
C28_4 C2_4 1_555 1_555
O12 C28_4 1_555 1_555
C6_4 C20_4 1_555 1_555
H4_4 C11_4 1_555 1_555
C14_4 C11_4 1_555 1_555
C15_4 C14_4 1_555 1_555
C16_4 C14_4 1_555 1_555
H8_4 C16_4 1_555 1_555
C19_4 C23_4 1_555 1_555
C23_4 C15_4 1_555 1_555
H13_3 C23_4 1_555 1_555
C24_4 C19_4 1_555 1_555
H14_4 C24_4 1_555 1_555
H15_4 C24_4 1_555 1_555
C25_4 C18_4 1_555 1_555
H16_4 C25_4 1_555 1_555
H17_4 C25_4 1_555 1_555
C26_4 C16_4 1_555 1_555
H18_4 C26_4 1_555 1_555
C27_4 C25_4 1_555 1_555
H19_4 C27_4 1_555 1_555
H20_4 C27_4 1_555 1_555
H21_4 C27_4 1_555 1_555
C31_4 H22_4 1_555 1_555
H23_4 C31_4 1_555 1_555
C32_4 C30_4 1_555 1_555
H25_4 C32_4 1_555 1_555
H26_4 C32_4 1_555 1_555
C19_4 C26_4 1_555 1_555
C31_4 C32_4 1_555 1_555

#END
