
###############################################################################
#
# This file contains modified crystal structure data generated from the
# MOF subset of the Cambridge Structural Database (CSD) v543 
# hosted by the Cambridge Crystallographic Data Centre (CCDC).
#
# This work is licensed under the Creative Commons
# Attribution-NonCommercial-ShareAlike 4.0 International License.
# To view a copy of this license, visit
# http://creativecommons.org/licenses/by-nc-sa/4.0/
# or send a letter to
# Creative Commons, PO Box 1866, Mountain View, CA 94042, USA.
#
# CIF created using the CSD Python API on 29 September 2022
# The structure has been converted into the P1 space group
# The structure has a 3D framework
# The original CSD entry DAQMER is in the triclinic crystal system
# The framework has been calculated to contain at least 10.0% void space
# The void calculation uses a probe of radius 1.32A, grid spacing 0.4
#
###############################################################################

data_DAQMER
_chemical_formula_moiety         '(C156 H100 N4 O16 Zn4)n'
_symmetry_cell_setting           triclinic
_symmetry_space_group_name_H-M   'P 1'
_symmetry_Int_Tables_number      1
_space_group_name_Hall           'P 1'
loop_
_symmetry_equiv_pos_site_id
_symmetry_equiv_pos_as_xyz
1 x,y,z
_cell_length_a                   15.472(3)
_cell_length_b                   20.407(3)
_cell_length_c                   20.722(5)
_cell_angle_alpha                60.551(5)
_cell_angle_beta                 74.795(9)
_cell_angle_gamma                74.410(6)
_cell_volume                     5421.28
loop_
_atom_site_label
_atom_site_type_symbol
_atom_site_fract_x
_atom_site_fract_y
_atom_site_fract_z
H3 H 0.2658 0.0260 0.4986
C6 C 0.1309(8) 0.0401(6) 0.6064(7)
H5 H 0.0748 0.0293 0.6385
C7 C 0.1398(8) 0.1158(7) 0.5623(8)
H6 H 0.1971 0.1245 0.5315
C8 C 0.0754(9) 0.1842(6) 0.5558(7)
C12 C 0.0361(8) 0.3257(7) 0.5078(8)
C13 C 0.1047(8) 0.2572(6) 0.5207(7)
C14 C 0.2023(9) 0.2630(8) 0.4988(7)
H9 H 0.2479 0.2192 0.5065
C15 C 0.2229(7) 0.3315(7) 0.4682(7)
H10 H 0.2853 0.3359 0.4510
C16 C 0.1612(9) 0.3992(8) 0.4585(8)
H11 H 0.1809 0.4462 0.4412
C17 C 0.0639(8) 0.3931(7) 0.4767(7)
H12 H 0.0198 0.4382 0.4661
H20 H 0.1694 0.0131 0.3430
C32 C 0.1436(6) 0.0266(4) 0.2130(4)
C33 C 0.0644(6) 0.0733(5) 0.2337(5)
H23 H 0.0439 0.0642 0.2844
C34 C 0.0201(6) 0.1319(5) 0.1760(5)
C35 C 0.0443(5) 0.1462(4) 0.1025(4)
C36 C 0.1256(6) 0.1041(5) 0.0825(6)
H25 H 0.1484 0.1173 0.0311
C37 C 0.1728(6) 0.0427(6) 0.1384(5)
H26 H 0.2251 0.0121 0.1249
H48 H 0.1005 0.2907 0.0470
O7 O 0.3791(5) 0.6091(4) 0.5844(4)
O8 O 0.3333(5) 0.6768(4) 0.6483(4)
C64 C 0.3384(6) 0.6198(5) 0.6375(5)
C65 C 0.2838(8) 0.5587(7) 0.6903(6)
C66 C 0.2297(7) 0.5680(6) 0.7583(6)
H43 H 0.2238 0.6130 0.7630
C67 C 0.1892(7) 0.5064(5) 0.8131(6)
H44 H 0.1608 0.5061 0.8598
C68 C 0.1892(7) 0.4419(5) 0.8011(5)
C69 C 0.2356(7) 0.4343(6) 0.7397(6)
H45 H 0.2386 0.3906 0.7333
C70 C 0.2790(6) 0.4960(5) 0.6859(6)
H46 H 0.3089 0.4933 0.6408
C71 C 0.1404(5) 0.3825(5) 0.8619(5)
C72 C 0.1370(7) 0.3635(6) 0.9403(7)
H47 H 0.1647 0.3921 0.9517
C73 C 0.0956(8) 0.3063(7) 0.9966(7)
C74 C 0.0420(5) 0.2670(5) 0.9798(4)
C75 C 0.0482(7) 0.2833(6) 0.9060(6)
H49 H 0.0193 0.2552 0.8948
C76 C 0.0942(7) 0.3382(5) 0.8486(6)
H50 H 0.0961 0.3477 0.7986
Zn5 Zn 0.41148(6) 0.75826(5) 0.59194(5)
Zn9 Zn 0.48054(6) 0.66535(5) 0.50829(5)
O1 O 0.3494(4) 0.7934(3) 0.4967(4)
O2 O 0.3988(4) 0.7268(3) 0.4292(3)
N1 N 0.3304(6) 0.8503(4) 0.6058(4)
C1 C 0.2665(6) 0.8414(6) 0.6651(5)
H1 H 0.2652 0.7916 0.7058
C2 C 0.1980(8) 0.9041(6) 0.6711(6)
H2 H 0.1550 0.8963 0.7154
C3 C 0.1982(7) 0.9776(6) 0.6077(6)
C4 C 0.2663(7) 0.9800(5) 0.5443(5)
C5 C 0.3291(8) 0.9210(5) 0.5472(5)
H4 H 0.3765 0.9285 0.5057
C25 C 0.3521(7) 0.7849(6) 0.4405(6)
C26 C 0.2935(6) 0.8465(5) 0.3846(4)
C27 C 0.2492(7) 0.9096(6) 0.3921(5)
H19 H 0.2513 0.9137 0.4354
C28 C 0.2003(7) 0.9690(5) 0.3368(6)
C29 C 0.1962(6) 0.9644(5) 0.2729(5)
C30 C 0.2442(8) 0.8975(5) 0.2654(5)
H21 H 0.2453 0.8942 0.2210
C31 C 0.2877(6) 0.8394(5) 0.3203(5)
H22 H 0.3147 0.7934 0.3167
O9 O 0.5068(4) 0.8203(3) 0.5186(4)
O10 O 0.5575(4) 0.7459(3) 0.4569(3)
O11 O 0.5346(5) 0.6371(4) 0.6083(4)
O12 O 0.4936(6) 0.6966(4) 0.6736(5)
N3 N 0.5717(5) 0.5738(4) 0.5025(5)
C9 C 0.9878(10) 0.1770(6) 0.5816(9)
H7 H 0.9694 0.1284 0.6057
C10 C 0.9263(8) 0.2411(7) 0.5721(10)
H8 H 0.8647 0.2345 0.5917
C11 C 0.9431(10) 0.3142(9) 0.5374(10)
C18 C 0.8651(10) 0.3838(8) 0.5122(10)
H13 H 0.8803 0.4302 0.4707
C19 C 0.7852(7) 0.3830(6) 0.5423(6)
H14 H 0.7707 0.3347 0.5798
C20 C 0.6566(6) 0.5875(6) 0.4601(7)
H15 H 0.6666 0.6379 0.4250
C21 C 0.7282(8) 0.5243(6) 0.4707(7)
H16 H 0.7871 0.5309 0.4422
C22 C 0.7077(8) 0.4488(6) 0.5271(6)
C23 C 0.6251(7) 0.4377(6) 0.5650(6)
H17 H 0.6133 0.3875 0.5993
C24 C 0.5559(7) 0.5002(6) 0.5538(6)
H18 H 0.4969 0.4925 0.5817
H24 H 0.9694 0.1644 0.1884
H28 H 0.6295 0.0441 0.3330
C45 C 0.7522(6) 0.0379(4) 0.2189(5)
C46 C 0.7145(7) 0.1129(5) 0.1910(7)
H31 H 0.6547 0.1277 0.2120
C47 C 0.7608(7) 0.1667(6) 0.1339(6)
H32 H 0.7317 0.2184 0.1141
C48 C 0.8526(5) 0.1484(5) 0.1020(5)
C49 C 0.8846(7) 0.0719(5) 0.1316(5)
H33 H 0.9444 0.0564 0.1113
C50 C 0.8378(5) 0.0138(4) 0.1893(4)
H40 H 0.8718 0.3566 0.0067
C77 C 0.9953(5) 0.2050(4) 0.0431(5)
C78 C 0.9063(5) 0.2063(4) 0.0451(4)
C51 C 0.5350(6) 0.6441(5) 0.6633(6)
C52 C 0.5959(7) 0.5841(5) 0.7211(7)
C53 C 0.5990(8) 0.5858(6) 0.7812(5)
H35 H 0.5673 0.6277 0.7909
C54 C 0.6508(7) 0.5239(5) 0.8318(5)
H36 H 0.6501 0.5241 0.8777
C55 C 0.7019(6) 0.4634(4) 0.8223(5)
C56 C 0.7010(7) 0.4596(5) 0.7570(5)
H37 H 0.7348 0.4175 0.7484
C57 C 0.6478(7) 0.5209(5) 0.7038(5)
H38 H 0.6456 0.5212 0.6583
C58 C 0.7515(5) 0.3974(5) 0.8777(5)
C59 C 0.7948(7) 0.4079(5) 0.9249(5)
H39 H 0.7898 0.4578 0.9193
C60 C 0.8427(6) 0.3477(5) 0.9773(5)
C61 C 0.8496(6) 0.2744(5) 0.9884(4)
C62 C 0.8061(7) 0.2614(5) 0.9471(5)
H41 H 0.8086 0.2109 0.9553
C63 C 0.7570(6) 0.3248(5) 0.8916(5)
H42 H 0.7269 0.3152 0.8633
C38 C 0.5509(7) 0.8016(7) 0.4676(6)
C39 C 0.6097(6) 0.8626(5) 0.4003(5)
C40 C 0.5857(7) 0.9404(5) 0.3968(5)
H27 H 0.5394 0.9526 0.4315
C41 C 0.6383(7) 0.9944(6) 0.3369(6)
C42 C 0.7010(5) 0.9773(5) 0.2849(5)
C43 C 0.7144(8) 0.9011(5) 0.2897(5)
H29 H 0.7561 0.8886 0.2531
C44 C 0.6657(9) 0.8491(6) 0.3478(5)
H30 H 0.6730 0.8003 0.3501
H34 H 0.8635 0.9613 0.2067
O3 O 0.4932(4) 0.1797(3) 0.4814(4)
O4 O 0.4425(4) 0.2541(3) 0.5431(3)
C38_2 C 0.4491(7) 0.1984(7) 0.5324(6)
C39_2 C 0.3903(6) 0.1374(5) 0.5997(5)
C40_2 C 0.4143(7) 0.0596(5) 0.6032(5)
H27_2 H 0.4606 0.0474 0.5685
C41_2 C 0.3617(7) 0.0056(6) 0.6631(6)
C42_2 C 0.2990(5) 0.0227(5) 0.7151(5)
C43_2 C 0.2856(8) 0.0989(5) 0.7103(5)
H29_2 H 0.2439 0.1114 0.7469
C44_2 C 0.3343(9) 0.1509(6) 0.6522(5)
H30_2 H 0.3270 0.1997 0.6499
H34_2 H 0.1365 0.0387 0.7933
Zn3 Zn 0.58852(6) 0.24174(5) 0.40806(5)
Zn6 Zn 0.51946(6) 0.33465(5) 0.49171(5)
O5 O 0.4654(5) 0.3629(4) 0.3917(4)
O6 O 0.5064(6) 0.3034(4) 0.3264(5)
C51_2 C 0.4650(6) 0.3559(5) 0.3367(6)
C52_2 C 0.4041(7) 0.4159(5) 0.2789(7)
C53_2 C 0.4010(8) 0.4142(6) 0.2188(5)
H35_2 H 0.4327 0.3723 0.2091
C54_2 C 0.3492(7) 0.4761(5) 0.1682(5)
H36_2 H 0.3499 0.4759 0.1223
C55_2 C 0.2981(6) 0.5366(4) 0.1777(5)
C56_2 C 0.2990(7) 0.5404(5) 0.2430(5)
H37_2 H 0.2652 0.5825 0.2516
C57_2 C 0.3522(7) 0.4791(5) 0.2962(5)
H38_2 H 0.3544 0.4788 0.3417
C58_2 C 0.2485(5) 0.6026(5) 0.1223(5)
C59_2 C 0.2052(7) 0.5921(5) 0.0751(5)
H39_2 H 0.2102 0.5422 0.0807
C60_2 C 0.1573(6) 0.6523(5) 0.0227(5)
C61_2 C 0.1504(6) 0.7256(5) 0.0116(4)
C62_2 C 0.1939(7) 0.7386(5) 0.0529(5)
H41_2 H 0.1914 0.7891 0.0447
C63_2 C 0.2430(6) 0.6752(5) 0.1084(5)
H42_2 H 0.2731 0.6848 0.1367
N2 N 0.4283(5) 0.4262(4) 0.4975(5)
C9_2 C 0.0122(10) 0.8230(6) 0.4184(9)
H7_2 H 0.0306 0.8716 0.3943
C10_2 C 0.0737(8) 0.7589(7) 0.4279(10)
H8_2 H 0.1353 0.7655 0.4083
C11_2 C 0.0569(10) 0.6858(9) 0.4626(10)
C18_2 C 0.1349(10) 0.6162(8) 0.4878(10)
H13_2 H 0.1197 0.5698 0.5293
C19_2 C 0.2148(7) 0.6170(6) 0.4577(6)
H14_2 H 0.2293 0.6653 0.4202
C20_2 C 0.3434(6) 0.4125(6) 0.5399(7)
H15_2 H 0.3334 0.3621 0.5750
C21_2 C 0.2718(8) 0.4757(6) 0.5293(7)
H16_2 H 0.2129 0.4691 0.5578
C22_2 C 0.2923(8) 0.5512(6) 0.4729(6)
C23_2 C 0.3749(7) 0.5623(6) 0.4350(6)
H17_2 H 0.3867 0.6125 0.4007
C24_2 C 0.4441(7) 0.4998(6) 0.4462(6)
H18_2 H 0.5031 0.5075 0.4183
H24_2 H 0.0306 0.8356 0.8116
H28_2 H 0.3705 0.9559 0.6670
C45_2 C 0.2478(6) 0.9621(4) 0.7811(5)
C46_2 C 0.2855(7) 0.8871(5) 0.8090(7)
H31_2 H 0.3453 0.8723 0.7880
C47_2 C 0.2392(7) 0.8333(6) 0.8661(6)
H32_2 H 0.2683 0.7816 0.8859
C48_2 C 0.1474(5) 0.8516(5) 0.8980(5)
C49_2 C 0.1154(7) 0.9281(5) 0.8684(5)
H33_2 H 0.0556 0.9436 0.8887
C50_2 C 0.1622(5) 0.9862(4) 0.8107(4)
H40_2 H 0.1282 0.6434 0.9933
C77_2 C 0.0047(5) 0.7950(4) 0.9569(5)
C78_2 C 0.0937(5) 0.7937(4) 0.9549(4)
O1_2 O 0.6506(4) 0.2066(3) 0.5033(4)
O2_2 O 0.6012(4) 0.2732(3) 0.5708(3)
N1_2 N 0.6696(6) 0.1497(4) 0.3942(4)
C1_2 C 0.7335(6) 0.1586(6) 0.3349(5)
H1_2 H 0.7348 0.2084 0.2942
C2_2 C 0.8020(8) 0.0959(6) 0.3289(6)
H2_2 H 0.8450 0.1037 0.2846
C3_2 C 0.8018(7) 0.0224(6) 0.3923(6)
C4_2 C 0.7337(7) 0.0200(5) 0.4557(5)
C5_2 C 0.6709(8) 0.0790(5) 0.4528(5)
H4_2 H 0.6235 0.0715 0.4943
C25_2 C 0.6479(7) 0.2151(6) 0.5595(6)
C26_2 C 0.7065(6) 0.1535(5) 0.6154(4)
C27_2 C 0.7508(7) 0.0904(6) 0.6079(5)
H19_2 H 0.7487 0.0863 0.5646
C28_2 C 0.7997(7) 0.0310(5) 0.6632(6)
C29_2 C 0.8038(6) 0.0356(5) 0.7271(5)
C30_2 C 0.7558(8) 0.1025(5) 0.7346(5)
H21_2 H 0.7547 0.1058 0.7790
C31_2 C 0.7123(6) 0.1606(5) 0.6797(5)
H22_2 H 0.6853 0.2066 0.6833
O13 O 0.6209(5) 0.3909(4) 0.4156(4)
O14 O 0.6667(5) 0.3232(4) 0.3517(4)
C64_2 C 0.6616(6) 0.3802(5) 0.3625(5)
C65_2 C 0.7162(8) 0.4413(7) 0.3097(6)
C66_2 C 0.7703(7) 0.4320(6) 0.2417(6)
H43_2 H 0.7762 0.3870 0.2370
C67_2 C 0.8108(7) 0.4936(5) 0.1869(6)
H44_2 H 0.8392 0.4939 0.1402
C68_2 C 0.8108(7) 0.5581(5) 0.1989(5)
C69_2 C 0.7644(7) 0.5657(6) 0.2603(6)
H45_2 H 0.7614 0.6094 0.2667
C70_2 C 0.7210(6) 0.5040(5) 0.3141(6)
H46_2 H 0.6911 0.5067 0.3592
C71_2 C 0.8596(5) 0.6175(5) 0.1381(5)
C72_2 C 0.8630(7) 0.6365(6) 0.0597(7)
H47_2 H 0.8353 0.6079 0.0483
C73_2 C 0.9044(8) 0.6937(7) 0.0034(7)
C74_2 C 0.9580(5) 0.7330(5) 0.0202(4)
C75_2 C 0.9518(7) 0.7167(6) 0.0940(6)
H49_2 H 0.9807 0.7448 0.1052
C76_2 C 0.9058(7) 0.6618(5) 0.1514(6)
H50_2 H 0.9039 0.6523 0.2014
H3_2 H 0.7342 0.9740 0.5014
C6_2 C 0.8691(8) 0.9599(6) 0.3936(7)
H5_2 H 0.9252 0.9707 0.3615
C7_2 C 0.8602(8) 0.8842(7) 0.4377(8)
H6_2 H 0.8029 0.8755 0.4685
C8_2 C 0.9246(9) 0.8158(6) 0.4442(7)
C12_2 C 0.9639(8) 0.6743(7) 0.4922(8)
C13_2 C 0.8953(8) 0.7428(6) 0.4793(7)
C14_2 C 0.7977(9) 0.7370(8) 0.5012(7)
H9_2 H 0.7521 0.7808 0.4935
C15_2 C 0.7771(7) 0.6685(7) 0.5318(7)
H10_2 H 0.7147 0.6641 0.5490
C16_2 C 0.8388(9) 0.6008(8) 0.5415(8)
H11_2 H 0.8191 0.5538 0.5588
C17_2 C 0.9361(8) 0.6069(7) 0.5233(7)
H12_2 H 0.9802 0.5618 0.5339
H20_2 H 0.8306 0.9869 0.6570
C32_2 C 0.8564(6) 0.9734(4) 0.7870(4)
C33_2 C 0.9356(6) 0.9267(5) 0.7663(5)
H23_2 H 0.9561 0.9358 0.7156
C34_2 C 0.9799(6) 0.8681(5) 0.8240(5)
C35_2 C 0.9557(5) 0.8538(4) 0.8975(4)
C36_2 C 0.8744(6) 0.8959(5) 0.9175(6)
H25_2 H 0.8516 0.8827 0.9689
C37_2 C 0.8272(6) 0.9573(6) 0.8616(5)
H26_2 H 0.7749 0.9879 0.8751
H48_2 H 0.8995 0.7093 0.9530
loop_
_geom_bond_atom_site_label_1
_geom_bond_atom_site_label_2
_geom_bond_site_symmetry_1
_geom_bond_site_symmetry_2
H5 C6 1_555 1_555
C7 C6 1_555 1_555
H6 C7 1_555 1_555
C8 C7 1_555 1_555
C13 C8 1_555 1_555
C14 C13 1_555 1_555
H9 C14 1_555 1_555
C15 C14 1_555 1_555
H10 C15 1_555 1_555
C16 C15 1_555 1_555
H11 C16 1_555 1_555
C17 C12 1_555 1_555
H12 C17 1_555 1_555
C33 C32 1_555 1_555
H23 C33 1_555 1_555
C34 C33 1_555 1_555
C35 C34 1_555 1_555
C36 C35 1_555 1_555
H25 C36 1_555 1_555
C37 C32 1_555 1_555
H26 C37 1_555 1_555
C12 C13 1_555 1_555
C16 C17 1_555 1_555
C36 C37 1_555 1_555
O7 C64 1_555 1_555
O8 C64 1_555 1_555
C64 C65 1_555 1_555
C65 C66 1_555 1_555
C66 H43 1_555 1_555
C67 C66 1_555 1_555
H44 C67 1_555 1_555
C68 C67 1_555 1_555
C69 C68 1_555 1_555
H45 C69 1_555 1_555
C70 C65 1_555 1_555
H46 C70 1_555 1_555
C71 C68 1_555 1_555
C72 C71 1_555 1_555
H47 C72 1_555 1_555
C73 C72 1_555 1_555
C74 C73 1_555 1_555
C75 C74 1_555 1_555
H49 C75 1_555 1_555
C76 C71 1_555 1_555
H50 C76 1_555 1_555
Zn5 O8 1_555 1_555
Zn9 O7 1_555 1_555
C69 C70 1_555 1_555
C75 C76 1_555 1_555
Zn5 O1 1_555 1_555
Zn9 O2 1_555 1_555
O1 C25 1_555 1_555
O2 C25 1_555 1_555
N1 Zn5 1_555 1_555
C1 N1 1_555 1_555
H1 C1 1_555 1_555
C2 C1 1_555 1_555
H2 C2 1_555 1_555
C3 C2 1_555 1_555
C4 C3 1_555 1_555
C5 N1 1_555 1_555
H4 C5 1_555 1_555
C25 C26 1_555 1_555
C26 C27 1_555 1_555
C27 H19 1_555 1_555
C28 C27 1_555 1_555
C29 C28 1_555 1_555
C30 C29 1_555 1_555
H21 C30 1_555 1_555
C31 C26 1_555 1_555
H22 C31 1_555 1_555
O9 Zn5 1_555 1_555
O10 Zn9 1_555 1_555
O11 Zn9 1_555 1_555
O12 Zn5 1_555 1_555
N3 Zn9 1_555 1_555
C4 C5 1_555 1_555
C30 C31 1_555 1_555
N3 C20 1_555 1_555
H7 C9 1_555 1_555
C10 C9 1_555 1_555
H8 C10 1_555 1_555
C11 C10 1_555 1_555
C18 C11 1_555 1_555
H13 C18 1_555 1_555
C19 C18 1_555 1_555
H14 C19 1_555 1_555
C20 H15 1_555 1_555
C21 C20 1_555 1_555
H16 C21 1_555 1_555
C22 C19 1_555 1_555
C23 C22 1_555 1_555
H17 C23 1_555 1_555
C24 N3 1_555 1_555
H18 C24 1_555 1_555
C46 C45 1_555 1_555
H31 C46 1_555 1_555
C47 C46 1_555 1_555
H32 C47 1_555 1_555
C48 C47 1_555 1_555
C49 C48 1_555 1_555
H33 C49 1_555 1_555
C50 C45 1_555 1_555
C78 C48 1_555 1_555
C21 C22 1_555 1_555
C23 C24 1_555 1_555
C49 C50 1_555 1_555
C77 C78 1_555 1_555
O11 C51 1_555 1_555
O12 C51 1_555 1_555
C51 C52 1_555 1_555
C52 C53 1_555 1_555
C53 H35 1_555 1_555
C54 C53 1_555 1_555
H36 C54 1_555 1_555
C55 C54 1_555 1_555
C56 C55 1_555 1_555
H37 C56 1_555 1_555
C57 C52 1_555 1_555
H38 C57 1_555 1_555
C58 C55 1_555 1_555
C59 C58 1_555 1_555
H39 C59 1_555 1_555
C60 C59 1_555 1_555
C61 C60 1_555 1_555
C62 C61 1_555 1_555
H41 C62 1_555 1_555
C63 C58 1_555 1_555
H42 C63 1_555 1_555
C56 C57 1_555 1_555
C62 C63 1_555 1_555
O9 C38 1_555 1_555
O10 C38 1_555 1_555
C38 C39 1_555 1_555
C39 C40 1_555 1_555
C40 H27 1_555 1_555
C41 C40 1_555 1_555
C42 C41 1_555 1_555
C43 C42 1_555 1_555
H29 C43 1_555 1_555
C44 C39 1_555 1_555
H30 C44 1_555 1_555
C43 C44 1_555 1_555
O3 C38_2 1_555 1_555
O4 C38_2 1_555 1_555
C38_2 C39_2 1_555 1_555
C39_2 C40_2 1_555 1_555
C40_2 H27_2 1_555 1_555
C41_2 C40_2 1_555 1_555
C42_2 C41_2 1_555 1_555
C43_2 C42_2 1_555 1_555
H29_2 C43_2 1_555 1_555
C44_2 C39_2 1_555 1_555
H30_2 C44_2 1_555 1_555
Zn3 O3 1_555 1_555
Zn6 O4 1_555 1_555
C43_2 C44_2 1_555 1_555
O5 C51_2 1_555 1_555
O6 C51_2 1_555 1_555
C51_2 C52_2 1_555 1_555
C52_2 C53_2 1_555 1_555
C53_2 H35_2 1_555 1_555
C54_2 C53_2 1_555 1_555
H36_2 C54_2 1_555 1_555
C55_2 C54_2 1_555 1_555
C56_2 C55_2 1_555 1_555
H37_2 C56_2 1_555 1_555
C57_2 C52_2 1_555 1_555
H38_2 C57_2 1_555 1_555
C58_2 C55_2 1_555 1_555
C59_2 C58_2 1_555 1_555
H39_2 C59_2 1_555 1_555
C60_2 C59_2 1_555 1_555
C61_2 C60_2 1_555 1_555
C62_2 C61_2 1_555 1_555
H41_2 C62_2 1_555 1_555
C63_2 C58_2 1_555 1_555
H42_2 C63_2 1_555 1_555
Zn3 O6 1_555 1_555
Zn6 O5 1_555 1_555
C56_2 C57_2 1_555 1_555
C62_2 C63_2 1_555 1_555
N2 C20_2 1_555 1_555
H7_2 C9_2 1_555 1_555
C10_2 C9_2 1_555 1_555
H8_2 C10_2 1_555 1_555
C11_2 C10_2 1_555 1_555
C18_2 C11_2 1_555 1_555
H13_2 C18_2 1_555 1_555
C19_2 C18_2 1_555 1_555
H14_2 C19_2 1_555 1_555
C20_2 H15_2 1_555 1_555
C21_2 C20_2 1_555 1_555
H16_2 C21_2 1_555 1_555
C22_2 C19_2 1_555 1_555
C23_2 C22_2 1_555 1_555
H17_2 C23_2 1_555 1_555
C24_2 N2 1_555 1_555
H18_2 C24_2 1_555 1_555
C46_2 C45_2 1_555 1_555
H31_2 C46_2 1_555 1_555
C47_2 C46_2 1_555 1_555
H32_2 C47_2 1_555 1_555
C48_2 C47_2 1_555 1_555
C49_2 C48_2 1_555 1_555
H33_2 C49_2 1_555 1_555
C50_2 C45_2 1_555 1_555
C78_2 C48_2 1_555 1_555
Zn6 N2 1_555 1_555
C21_2 C22_2 1_555 1_555
C23_2 C24_2 1_555 1_555
C49_2 C50_2 1_555 1_555
C77_2 C78_2 1_555 1_555
Zn3 O1_2 1_555 1_555
Zn6 O2_2 1_555 1_555
O1_2 C25_2 1_555 1_555
O2_2 C25_2 1_555 1_555
N1_2 Zn3 1_555 1_555
C1_2 N1_2 1_555 1_555
H1_2 C1_2 1_555 1_555
C2_2 C1_2 1_555 1_555
H2_2 C2_2 1_555 1_555
C3_2 C2_2 1_555 1_555
C4_2 C3_2 1_555 1_555
C5_2 N1_2 1_555 1_555
H4_2 C5_2 1_555 1_555
C25_2 C26_2 1_555 1_555
C26_2 C27_2 1_555 1_555
C27_2 H19_2 1_555 1_555
C28_2 C27_2 1_555 1_555
C29_2 C28_2 1_555 1_555
C30_2 C29_2 1_555 1_555
H21_2 C30_2 1_555 1_555
C31_2 C26_2 1_555 1_555
H22_2 C31_2 1_555 1_555
O13 Zn6 1_555 1_555
O14 Zn3 1_555 1_555
C4_2 C5_2 1_555 1_555
C30_2 C31_2 1_555 1_555
O13 C64_2 1_555 1_555
O14 C64_2 1_555 1_555
C64_2 C65_2 1_555 1_555
C65_2 C66_2 1_555 1_555
C66_2 H43_2 1_555 1_555
C67_2 C66_2 1_555 1_555
H44_2 C67_2 1_555 1_555
C68_2 C67_2 1_555 1_555
C69_2 C68_2 1_555 1_555
H45_2 C69_2 1_555 1_555
C70_2 C65_2 1_555 1_555
H46_2 C70_2 1_555 1_555
C71_2 C68_2 1_555 1_555
C72_2 C71_2 1_555 1_555
H47_2 C72_2 1_555 1_555
C73_2 C72_2 1_555 1_555
C74_2 C73_2 1_555 1_555
C75_2 C74_2 1_555 1_555
H49_2 C75_2 1_555 1_555
C76_2 C71_2 1_555 1_555
H50_2 C76_2 1_555 1_555
C69_2 C70_2 1_555 1_555
C75_2 C76_2 1_555 1_555
H5_2 C6_2 1_555 1_555
C7_2 C6_2 1_555 1_555
H6_2 C7_2 1_555 1_555
C8_2 C7_2 1_555 1_555
C13_2 C8_2 1_555 1_555
C14_2 C13_2 1_555 1_555
H9_2 C14_2 1_555 1_555
C15_2 C14_2 1_555 1_555
H10_2 C15_2 1_555 1_555
C16_2 C15_2 1_555 1_555
H11_2 C16_2 1_555 1_555
C17_2 C12_2 1_555 1_555
H12_2 C17_2 1_555 1_555
C33_2 C32_2 1_555 1_555
H23_2 C33_2 1_555 1_555
C34_2 C33_2 1_555 1_555
C35_2 C34_2 1_555 1_555
C36_2 C35_2 1_555 1_555
H25_2 C36_2 1_555 1_555
C37_2 C32_2 1_555 1_555
H26_2 C37_2 1_555 1_555
C12_2 C13_2 1_555 1_555
C16_2 C17_2 1_555 1_555
C36_2 C37_2 1_555 1_555

#END
