
###############################################################################
#
# This file contains modified crystal structure data generated from the
# MOF subset of the Cambridge Structural Database (CSD) v543 
# hosted by the Cambridge Crystallographic Data Centre (CCDC).
#
# This work is licensed under the Creative Commons
# Attribution-NonCommercial-ShareAlike 4.0 International License.
# To view a copy of this license, visit
# http://creativecommons.org/licenses/by-nc-sa/4.0/
# or send a letter to
# Creative Commons, PO Box 1866, Mountain View, CA 94042, USA.
#
# CIF created using the CSD Python API on 29 September 2022
# The structure has been converted into the P1 space group
# The structure has a 3D framework
# The original CSD entry DARNUJ is in the monoclinic crystal system
# The original CSD entry DARNUJ is in a Sohncke space group
# The framework has been calculated to contain at least 10.0% void space
# The void calculation uses a probe of radius 1.32A, grid spacing 0.4
# The framework is charged, counterions have been retained in the structure
#
###############################################################################

data_DARNUJ
_chemical_formula_moiety         '(C48 H32 Fe4 N8 O15 4+)n'
_symmetry_cell_setting           triclinic
_symmetry_space_group_name_H-M   'P 1'
_symmetry_Int_Tables_number      1
_space_group_name_Hall           'P 1'
loop_
_symmetry_equiv_pos_site_id
_symmetry_equiv_pos_as_xyz
1 x,y,z
_cell_length_a                   9.8993(5)
_cell_length_b                   13.0177(7)
_cell_length_c                   10.6798(6)
_cell_angle_alpha                90
_cell_angle_beta                 101.287(2)
_cell_angle_gamma                90
_cell_volume                     1349.65
loop_
_atom_site_label
_atom_site_type_symbol
_atom_site_fract_x
_atom_site_fract_y
_atom_site_fract_z
Fe2 Fe 0.37324(11) 0.43262(7) 0.25160(10)
O2 O 0.0642(5) 0.3984(4) 0.3823(4)
N2 N 0.1401(5) 0.0768(4) 0.6472(5)
O5 O 0.4793(4) 0.5235(3) 0.1404(4)
O6 O 0.6825(4) 0.4602(4) 0.1153(4)
O7 O 0.2750(5) 0.3446(3) 0.3652(5)
O8 O 0.1917(4) 0.4710(3) 0.1211(4)
C3 C 0.0289(6) 0.1385(5) 0.6107(5)
C5 C 0.0886(6) 0.5283(5) 0.0944(6)
C6 C 0.5898(6) 0.5261(5) 0.1002(5)
C7 C 0.2581(5) 0.1027(5) 0.6119(5)
H4 H 0.336020 0.062644 0.639665
C9 C 0.1554(7) 0.2497(5) 0.4941(6)
C12 C 0.6042(6) 0.7186(5) 0.0689(5)
H8 H 0.600718 0.727919 0.154582
C15 C 0.0960(6) 0.6184(5) 0.0064(6)
C18 C 0.1649(6) 0.3394(5) 0.4079(6)
C19 C 0.2680(6) 0.1875(5) 0.5349(5)
H12 H 0.351173 0.202269 0.510813
H13 H 0.613317 0.866740 0.026180
C21 C 0.0341(6) 0.2249(5) 0.5349(5)
C23 C 0.6026(6) 0.6204(5) 0.0171(6)
Fe3 Fe 0.87632(11) 0.43383(7) 0.24852(11)
N5 N 0.3610(5) 0.5713(4) 0.3680(5)
O9 O 0.5598(5) 0.3976(4) 0.3843(5)
N8 N 0.3853(5) 0.2944(4) 0.1356(5)
C4 C 0.2169(6) 0.6454(5) 0.9687(5)
H3 H 0.295773 0.605623 0.992634
C8 C 0.6073(6) 0.6114(5) 0.8898(5)
H5 H 0.606687 0.546853 0.852257
C11 C 0.6128(6) 0.6982(5) 0.8188(5)
H7 H 0.615354 0.689944 0.732828
N3 N 0.1085(5) 0.7919(4) 0.8552(5)
N4 N 0.6147(5) 0.7944(4) 0.8644(5)
C20 C 0.6110(6) 0.8015(5) 0.9904(5)
C24 C 0.2189(5) 0.7328(5) 0.8946(5)
H16 H 0.301373 0.751126 0.871193
Fe5 Fe 0.12368(11) 0.93383(7) 0.75148(11)
Fe8 Fe 0.62676(11) 0.93262(7) 0.74840(10)
O1 O 0.9756(5) 0.5158(4) 0.1274(5)
O3 O 0.7727(5) 0.3485(3) 0.3624(5)
N1 N 0.6390(5) 0.0713(4) 0.6320(5)
C1 C 0.6537(6) 0.2454(5) 0.4828(6)
H2 H 0.947177 0.122709 0.636906
C10 C 0.6350(6) 0.1647(5) 0.6809(5)
H6 H 0.630397 0.171040 0.766747
C13 C 0.6500(6) 0.0624(5) 0.5104(5)
C14 C 0.6620(6) 0.3388(5) 0.4033(6)
C16 C 0.6373(6) 0.2544(5) 0.6082(5)
H10 H 0.628031 0.318605 0.643663
C17 C 0.6593(6) 0.1465(5) 0.4340(5)
H11 H 0.669315 0.137228 0.349997
H14 H 0.956491 0.266140 0.511563
N6 N 0.8599(5) 0.5768(4) 0.3528(5)
N7 N 0.8915(5) 0.2919(4) 0.1448(5)
H9 H 0.651419 0.997071 0.475493
O1_2 O 0.0244(5) 0.0158(4) 0.8726(5)
O3_2 O 0.2273(5) 0.8485(3) 0.6376(5)
O4 O 0.4402(5) 0.8976(4) 0.6157(5)
C1_2 C 0.3463(6) 0.7454(5) 0.5172(6)
H2_2 H 0.052823 0.622709 0.363094
C10_2 C 0.3650(6) 0.6647(5) 0.3191(5)
H6_2 H 0.369603 0.671040 0.233253
C13_2 C 0.3500(6) 0.5624(5) 0.4896(5)
H9_2 H 0.348581 0.497071 0.524507
C14_2 C 0.3380(6) 0.8388(5) 0.5967(6)
C16_2 C 0.3627(6) 0.7544(5) 0.3918(5)
H10_2 H 0.371969 0.818605 0.356337
C17_2 C 0.3407(6) 0.6465(5) 0.5660(5)
H11_2 H 0.330685 0.637228 0.650003
H14_2 H 0.043509 0.766140 0.488437
O10 O 0.3175(4) 0.9602(4) 0.8847(4)
C4_2 C 0.7831(6) 0.1454(5) 0.0313(5)
H3_2 H 0.704227 0.105623 0.007366
C8_2 C 0.3927(6) 0.1114(5) 0.1102(5)
H5_2 H 0.393313 0.046853 0.147743
C11_2 C 0.3872(6) 0.1982(5) 0.1812(5)
H7_2 H 0.384646 0.189944 0.267172
C20_2 C 0.3890(6) 0.3015(5) 0.0096(5)
C24_2 C 0.7811(5) 0.2328(5) 0.1054(5)
H16_2 H 0.698627 0.251126 0.128807
O5_2 O 0.5207(4) 0.0235(3) 0.8596(4)
C5_2 C 0.9114(6) 0.0283(5) 0.9056(6)
C6_2 C 0.4102(6) 0.0261(5) 0.8998(5)
C12_2 C 0.3958(6) 0.2186(5) 0.9311(5)
H8_2 H 0.399282 0.227919 0.845418
C15_2 C 0.9040(6) 0.1184(5) 0.9936(6)
H13_2 H 0.386683 0.366740 0.973820
C23_2 C 0.3974(6) 0.1204(5) 0.9829(6)
O2_2 O 0.9358(5) 0.8984(4) 0.6177(4)
O7_2 O 0.7250(5) 0.8446(3) 0.6348(5)
O8_2 O 0.8083(4) 0.9710(3) 0.8789(4)
C3_2 C 0.9711(6) 0.6385(5) 0.3893(5)
C7_2 C 0.7419(5) 0.6027(5) 0.3881(5)
H4_2 H 0.663980 0.562644 0.360335
C9_2 C 0.8446(7) 0.7497(5) 0.5059(6)
C18_2 C 0.8351(6) 0.8394(5) 0.5921(6)
C19_2 C 0.7320(6) 0.6875(5) 0.4651(5)
H12_2 H 0.648827 0.702269 0.489187
C21_2 C 0.9659(6) 0.7249(5) 0.4651(5)
C2 C 0.9786(6) 0.6798(5) 0.9635(5)
H1 H 0.894978 0.663824 0.986121
C22 C 0.9897(5) 0.7631(5) 0.8881(5)
H15 H 0.911052 0.801877 0.858094
C2_2 C 0.0214(6) 0.1798(5) 0.0365(5)
H1_2 H 0.105022 0.163824 0.013879
C22_2 C 0.0103(5) 0.2631(5) 0.1119(5)
H15_2 H 0.088948 0.301877 0.141906
loop_
_geom_bond_atom_site_label_1
_geom_bond_atom_site_label_2
_geom_bond_site_symmetry_1
_geom_bond_site_symmetry_2
Fe2 O5 1_555 1_555
N2 C3 1_555 1_555
O5 C6 1_555 1_555
O6 C6 1_555 1_555
O7 Fe2 1_555 1_555
O8 Fe2 1_555 1_555
C5 O8 1_555 1_555
C6 C23 1_555 1_555
C7 N2 1_555 1_555
H4 C7 1_555 1_555
C9 C18 1_555 1_555
C12 H8 1_555 1_555
C18 O2 1_555 1_555
C19 C7 1_555 1_555
H12 C19 1_555 1_555
C21 C3 1_555 1_555
Fe3 O6 1_555 1_555
N5 Fe2 1_555 1_555
O9 Fe2 1_555 1_555
N8 Fe2 1_555 1_555
O7 C18 1_555 1_555
C5 C15 1_555 1_555
C9 C19 1_555 1_555
C9 C21 1_555 1_555
C12 C23 1_555 1_555
C4 H3 1_555 1_555
C8 H5 1_555 1_555
C11 C8 1_555 1_555
H7 C11 1_555 1_555
N4 C11 1_555 1_555
C24 C4 1_555 1_555
H16 C24 1_555 1_555
Fe5 N3 1_555 1_555
Fe8 N4 1_555 1_555
N3 C24 1_555 1_555
N4 C20 1_555 1_555
Fe3 O1 1_555 1_555
O3 Fe3 1_555 1_555
N1 C10 1_555 1_555
O9 C14 1_555 1_555
C1 C14 1_555 1_555
C10 H6 1_555 1_555
C13 N1 1_555 1_555
C14 O3 1_555 1_555
C16 C1 1_555 1_555
H10 C16 1_555 1_555
C17 C1 1_555 1_555
H11 C17 1_555 1_555
N6 Fe3 1_555 1_555
N7 Fe3 1_555 1_555
C10 C16 1_555 1_555
C13 C17 1_555 1_555
O3_2 Fe5 1_555 1_555
N5 C10_2 1_555 1_555
O4 C14_2 1_555 1_555
C1_2 C14_2 1_555 1_555
C10_2 H6_2 1_555 1_555
C13_2 N5 1_555 1_555
H9_2 C13_2 1_555 1_555
C14_2 O3_2 1_555 1_555
C16_2 C1_2 1_555 1_555
H10_2 C16_2 1_555 1_555
C17_2 C1_2 1_555 1_555
H11_2 C17_2 1_555 1_555
Fe8 O4 1_555 1_555
O10 Fe5 1_555 1_555
C10_2 C16_2 1_555 1_555
C13_2 C17_2 1_555 1_555
C4_2 H3_2 1_555 1_555
C8_2 H5_2 1_555 1_555
C11_2 C8_2 1_555 1_555
H7_2 C11_2 1_555 1_555
N8 C11_2 1_555 1_555
C24_2 C4_2 1_555 1_555
H16_2 C24_2 1_555 1_555
N7 C24_2 1_555 1_555
N8 C20_2 1_555 1_555
O5_2 C6_2 1_555 1_555
C6_2 C23_2 1_555 1_555
C12_2 H8_2 1_555 1_555
C5_2 C15_2 1_555 1_555
C12_2 C23_2 1_555 1_555
N6 C3_2 1_555 1_555
O7_2 Fe8 1_555 1_555
O8_2 Fe8 1_555 1_555
C7_2 N6 1_555 1_555
H4_2 C7_2 1_555 1_555
C9_2 C18_2 1_555 1_555
C18_2 O2_2 1_555 1_555
C19_2 C7_2 1_555 1_555
H12_2 C19_2 1_555 1_555
C21_2 C3_2 1_555 1_555
O7_2 C18_2 1_555 1_555
C9_2 C19_2 1_555 1_555
C9_2 C21_2 1_555 1_555
C2 H1 1_555 1_555
C22 C2 1_555 1_555
H15 C22 1_555 1_555
C2_2 H1_2 1_555 1_555
C22_2 C2_2 1_555 1_555
H15_2 C22_2 1_555 1_555

#END
