
###############################################################################
#
# This file contains modified crystal structure data generated from the
# MOF subset of the Cambridge Structural Database (CSD) v543 
# hosted by the Cambridge Crystallographic Data Centre (CCDC).
#
# This work is licensed under the Creative Commons
# Attribution-NonCommercial-ShareAlike 4.0 International License.
# To view a copy of this license, visit
# http://creativecommons.org/licenses/by-nc-sa/4.0/
# or send a letter to
# Creative Commons, PO Box 1866, Mountain View, CA 94042, USA.
#
# CIF created using the CSD Python API on 29 September 2022
# The structure has been converted into the P1 space group
# The structure has a 3D framework
# The original CSD entry DARSEV is in the triclinic crystal system
# The original CSD entry DARSEV is in a Sohncke space group
# The framework has been calculated to contain at least 10.0% void space
# The void calculation uses a probe of radius 1.32A, grid spacing 0.4
# H atom positions have been added when not included in the experimental data
#
###############################################################################

data_DARSEV
_chemical_formula_moiety         '(C90 H54 Cd3 Cl12 N6 O6)n'
_symmetry_cell_setting           triclinic
_symmetry_space_group_name_H-M   'P 1'
_symmetry_Int_Tables_number      1
_space_group_name_Hall           'P 1'
loop_
_symmetry_equiv_pos_site_id
_symmetry_equiv_pos_as_xyz
1 x,y,z
_cell_length_a                   10.2343(5)
_cell_length_b                   19.1180(10)
_cell_length_c                   20.9287(10)
_cell_angle_alpha                67.553(3)
_cell_angle_beta                 86.753(3)
_cell_angle_gamma                83.630(3)
_cell_volume                     3760.82
loop_
_atom_site_label
_atom_site_type_symbol
_atom_site_fract_x
_atom_site_fract_y
_atom_site_fract_z
_atom_site_U_iso_or_equiv
_atom_site_thermal_displace_type
N6 N 0.1477(13) 0.0131(8) 0.9815(7) 0.0398 Uani
C76 C 0.021(2) 0.0138(14) 0.9852(13) 0.1020 Uiso
C79 C 0.101(3) 0.1439(16) 0.9696(14) 0.1180 Uiso
H43 H 0.1340 0.1892 0.9680 0.1420 Uiso
C80 C 0.188(3) 0.0748(15) 0.9801(14) 0.1080 Uiso
H44 H 0.2786 0.0755 0.9863 0.1300 Uiso
C89 C 0.0619(13) 0.3766(9) 0.8687(8) 0.1620 Uiso
C90 C 0.0304(10) 0.3020(8) 0.8994(7) 0.1310 Uiso
H48 H 0.0949 0.2612 0.9022 0.1580 Uiso
Cl12 Cl 0.2129(8) 0.4032(4) 0.8331(4) 0.1620 Uiso
Cl3 Cl 0.1668(7) 0.0676(4) 0.1582(3) 0.1163 Uani
C39 C 0.0665(19) 0.0088(12) 0.2227(10) 0.0827 Uani
C40 C 0.075(2) 0.0021(14) 0.2902(10) 0.0891 Uani
H22 H 0.1332 0.0318 0.3006 0.1080 Uiso
Cd4 Cd 0.27911(6) 0.90064(4) 0.99168(4) 0.0366 Uani
Cl1 Cl 0.4634(4) 0.7855(3) 0.0196(2) 0.0461 Uani
Cl2 Cl 0.0767(4) 0.8196(3) 0.0298(2) 0.0404 Uani
Cl7 Cl 0.2984(8) 0.5760(4) 0.4331(3) 0.1242 Uani
O1 O 0.6008(10) 0.7857(8) 0.5443(5) 0.0758 Uani
N1 N 0.5531(12) 0.8800(9) 0.8451(7) 0.0410 Uani
N2 N 0.3050(13) 0.8840(6) 0.1121(7) 0.0346 Uani
C1 C 0.5335(16) 0.8127(9) 0.8387(9) 0.0480 Uiso
H1 H 0.5452 0.7654 0.8766 0.0570 Uiso
C2 C 0.4965(15) 0.8171(10) 0.7752(8) 0.0560 Uiso
H2 H 0.4844 0.7712 0.7697 0.0670 Uiso
C3 C 0.4755(14) 0.8861(10) 0.7178(7) 0.0497 Uani
C4 C 0.4891(15) 0.9516(10) 0.7279(8) 0.0540 Uiso
C5 C 0.5311(14) 0.9439(9) 0.7930(8) 0.0440 Uiso
H4 H 0.5445 0.9891 0.7995 0.0520 Uiso
C6 C 0.4454(15) 0.8857(9) 0.6500(8) 0.0500 Uiso
C7 C 0.3289(14) 0.9250(10) 0.6108(7) 0.0567 Uani
C8 C 0.2328(16) 0.9673(11) 0.6360(7) 0.0682 Uani
H5 H 0.2413 0.9687 0.6804 0.0820 Uiso
C11 C 0.1993(17) 0.9611(11) 0.5058(9) 0.0774 Uani
H7 H 0.1877 0.9604 0.4613 0.0930 Uiso
C12 C 0.3114(14) 0.9196(9) 0.5464(7) 0.0587 Uani
C13 C 0.4087(17) 0.8803(9) 0.5171(9) 0.0580 Uiso
C14 C 0.5147(14) 0.8318(11) 0.5617(7) 0.0624 Uani
C15 C 0.5270(13) 0.8339(11) 0.6268(7) 0.0623 Uani
H8 H 0.5919 0.7997 0.6570 0.0750 Uiso
C16 C 0.3908(18) 0.8732(10) 0.4490(10) 0.0580 Uiso
C17 C 0.3591(13) 0.8006(11) 0.4463(7) 0.0609 Uani
C18 C 0.3443(15) 0.7350(11) 0.5055(7) 0.0617 Uani
H9 H 0.3486 0.7382 0.5495 0.0740 Uiso
C19 C 0.3248(18) 0.6696(14) 0.5030(9) 0.0821 Uani
H10 H 0.3175 0.6257 0.5440 0.0980 Uiso
C20 C 0.3148(19) 0.6670(11) 0.4367(9) 0.0769 Uani
C21 C 0.3280(16) 0.7268(11) 0.3766(8) 0.0682 Uani
H11 H 0.3228 0.7210 0.3337 0.0820 Uiso
C22 C 0.3495(13) 0.7982(9) 0.3779(7) 0.0515 Uani
C23 C 0.3685(13) 0.8621(8) 0.3191(7) 0.0440 Uiso
C24 C 0.3971(16) 0.9272(10) 0.3237(9) 0.0610 Uiso
H12 H 0.4119 0.9696 0.2825 0.0730 Uiso
C25 C 0.4061(17) 0.9343(10) 0.3919(9) 0.0580 Uiso
C26 C 0.4114(13) 0.9080(8) 0.1271(7) 0.0450 Uiso
H13 H 0.4723 0.9310 0.0912 0.0540 Uiso
C27 C 0.4361(14) 0.9004(8) 0.1948(7) 0.0450 Uiso
H14 H 0.5130 0.9182 0.2043 0.0540 Uiso
C28 C 0.3477(13) 0.8667(8) 0.2482(7) 0.0420 Uiso
C29 C 0.2368(13) 0.8447(10) 0.2291(7) 0.0587 Uani
H15 H 0.1719 0.8232 0.2632 0.0700 Uiso
C30 C 0.2186(12) 0.8534(9) 0.1615(6) 0.0501 Uani
H16 H 0.1418 0.8370 0.1503 0.0600 Uiso
O6 O 0.531(3) 0.2414(19) 0.0092(18) 0.1310 Uiso
C70 C 0.5446(11) 0.4105(7) 0.0033(7) 0.1520 Uiso
C71 C 0.4519(12) 0.4702(7) 0.0014(7) 0.1330 Uiso
C72 C 0.4243(17) 0.4861(10) 0.0605(8) 0.1950 Uiso
H38 H 0.3610 0.5269 0.0592 0.2340 Uiso
C73 C 0.489(2) 0.4424(12) 0.1215(7) 0.2030 Uiso
C74 C 0.5821(19) 0.3827(11) 0.1235(7) 0.1910 Uiso
H39 H 0.6266 0.3529 0.1652 0.2300 Uiso
C75 C 0.6097(15) 0.3668(9) 0.0644(8) 0.1760 Uiso
H40 H 0.6731 0.3260 0.0657 0.2120 Uiso
H45 H 0.7256 0.1464 0.0048 0.1930 Uiso
Cl11 Cl 0.4264(8) 0.4419(5) 0.2018(4) 0.1740 Uiso
Cd6 Cd 0.64464(14) 0.87225(10) 0.94727(8) 0.0431 Uani
H49 H 0.650324 0.815457 0.502254 . .
H50 H 0.51451 0.993314 0.418988 . .
Cd1 Cd 0.00925(6) 0.83542(4) 0.90585(4) 0.0363 Uani
Cl4 Cl 0.2156(4) 0.9109(3) 0.8668(2) 0.0381 Uani
Cl8 Cl 0.4727(4) 0.9883(3) 0.9431(2) 0.0425 Uani
Cl9 Cl 0.0807(10) 0.5567(4) 0.6647(4) 0.1503 Uani
N5 N 0.1397(14) 0.7162(8) 0.9222(7) 0.0457 Uani
C41 C 0.0075(17) 0.9563(13) 0.3402(9) 0.0781 Uani
H23 H 0.0204 0.9526 0.3860 0.0940 Uiso
C49 C 0.005(2) 0.6557(18) 0.5326(12) 0.1106 Uani
H26 H 0.0271 0.6134 0.5195 0.1300 Uiso
C50 C 0.020(2) 0.6462(16) 0.6050(12) 0.1084 Uani
H27 H 0.0131 0.7036 0.6667 0.0900 Uiso
C59 C 0.0593(14) 0.8163(8) 0.6923(7) 0.0500 Uiso
H31 H 0.1299 0.7989 0.6689 0.0600 Uiso
C60 C 0.0788(14) 0.8193(8) 0.7558(7) 0.0500 Uiso
H32 H 0.1636 0.8032 0.7755 0.0600 Uiso
C61 C 0.2613(12) 0.7076(7) 0.9443(7) 0.0410 Uiso
H33 H 0.2892 0.7463 0.9568 0.0490 Uiso
C62 C 0.3492(16) 0.6463(9) 0.9501(8) 0.0580 Uiso
H34 H 0.4359 0.6419 0.9661 0.0690 Uiso
C63 C 0.3020(17) 0.5861(10) 0.9299(9) 0.0620 Uiso
C64 C 0.1772(18) 0.5996(10) 0.9037(10) 0.0710 Uiso
H35 H 0.1439 0.5646 0.8880 0.0850 Uiso
C65 C 0.1020(16) 0.6649(9) 0.9008(9) 0.0560 Uiso
H36 H 0.0166 0.6739 0.8820 0.0670 Uiso
O5 O 0.5379(17) 0.4237(9) 0.8227(9) 0.1470 Uiso
C66 C 0.3868(14) 0.5139(8) 0.9403(8) 0.1090 Uiso
C67 C 0.4144(16) 0.4980(9) 0.8813(7) 0.1240 Uiso
H37 H 0.3699 0.5278 0.8395 0.1490 Uiso
C68 C 0.5071(16) 0.4383(9) 0.8832(7) 0.1420 Uiso
C69 C 0.5722(15) 0.3946(8) 0.9442(8) 0.1090 Uiso
C77 C 0.935(3) 0.0774(17) 0.9738(15) 0.1300 Uiso
H42 H 0.8437 0.0710 0.9756 0.1560 Uiso
C78 C 0.964(2) 0.1399(13) 0.9617(11) 0.0830 Uiso
C81 C 0.6844(10) 0.3317(8) 0.9489(7) 0.0820 Uiso
C82 C 0.6528(12) 0.2571(8) 0.9797(8) 0.2120 Uiso
C83 C 0.7471(15) 0.1974(7) 0.9837(8) 0.1610 Uiso
C84 C 0.8730(13) 0.2124(6) 0.9570(7) 0.0730 Uiso
C85 C 0.9045(10) 0.2870(6) 0.9262(5) 0.1330 Uiso
C86 C 0.8102(10) 0.3467(6) 0.9221(5) 0.1280 Uiso
C87 C 0.8417(14) 0.4213(6) 0.8914(7) 0.1170 Uiso
H46 H 0.7773 0.4621 0.8886 0.1400 Uiso
C88 C 0.9676(16) 0.4363(7) 0.8646(8) 0.1500 Uiso
H47 H 0.9892 0.4873 0.8436 0.1800 Uiso
H53 H 0.572637 0.469068 0.78666 . .
H54 H 0.462567 0.266193 0.9736 . .
N8 N 0.7258(14) 0.8724(10) 0.0498(8) 0.0550 Uani
Cl6 Cl 0.8332(4) 0.9551(3) 0.8789(3) 0.0486 Uani
Cl10 Cl 0.8076(4) 0.7540(3) 0.9506(3) 0.0458 Uani
O3 O 0.6797(10) 0.7726(9) 0.4189(6) 0.0920 Uani
O4 O 0.7575(14) 0.9753(9) 0.4322(6) 0.1095 Uani
N4 N 0.9833(12) 0.8439(9) 0.7912(6) 0.0511 Uani
C31 C 0.7587(15) 0.8087(10) 0.1023(9) 0.0480 Uiso
H17 H 0.7594 0.7616 0.0967 0.0580 Uiso
C32 C 0.7916(13) 0.8085(9) 0.1641(8) 0.0440 Uiso
H18 H 0.8106 0.7616 0.2018 0.0530 Uiso
C33 C 0.7975(16) 0.8757(9) 0.1726(9) 0.0470 Uiso
C34 C 0.7702(14) 0.9442(9) 0.1172(8) 0.0500 Uiso
H19 H 0.7749 0.9921 0.1205 0.0600 Uiso
C35 C 0.7355(16) 0.9377(12) 0.0570(8) 0.0557 Uani
H20 H 0.7173 0.9834 0.0179 0.0670 Uiso
C36 C 0.8160(15) 0.8758(9) 0.2446(8) 0.0480 Uiso
C37 C 0.9005(15) 0.9186(9) 0.2594(8) 0.0570 Uiso
C38 C 0.9793(17) 0.9688(11) 0.2079(9) 0.0770 Uani
H21 H 0.9705 0.9747 0.1612 0.0930 Uiso
C42 C 0.9170(13) 0.9127(11) 0.3298(8) 0.0617 Uani
C43 C 0.8474(19) 0.8676(11) 0.3805(10) 0.0660 Uiso
C44 C 0.7544(15) 0.8185(13) 0.3683(8) 0.0756 Uani
C45 C 0.7420(15) 0.8277(12) 0.2979(8) 0.0712 Uani
H24 H 0.6810 0.8001 0.2870 0.0850 Uiso
C46 C 0.8654(18) 0.8540(14) 0.4547(9) 0.0826 Uani
C47 C 0.9250(14) 0.7811(13) 0.5067(8) 0.0737 Uani
C48 C 0.9615(16) 0.7193(14) 0.4869(10) 0.0771 Uani
H25 H 0.9543 0.7247 0.4401 0.0920 Uiso
C51 C 0.9942(17) 0.7078(13) 0.6214(9) 0.0750 Uani
C52 C 0.9394(15) 0.7789(11) 0.5736(8) 0.0608 Uani
C53 C 0.9081(16) 0.8410(10) 0.5932(9) 0.0580 Uiso
C54 C 0.8469(19) 0.9066(11) 0.5463(10) 0.0790 Uiso
H28 H 0.8225 0.9490 0.5591 0.0950 Uiso
C55 C 0.8194(19) 0.9115(11) 0.4781(10) 0.0750 Uiso
C56 C 0.8652(14) 0.8712(8) 0.7616(7) 0.0500 Uiso
H29 H 0.7990 0.8918 0.7849 0.0600 Uiso
C57 C 0.8373(16) 0.8699(10) 0.6968(8) 0.0610 Uiso
H30 H 0.7534 0.8899 0.6770 0.0730 Uiso
C58 C 0.9325(14) 0.8394(8) 0.6619(7) 0.0490 Uiso
H51 H 0.620633 0.803564 0.439436 . .
H52 H 0.67895 0.962443 0.414734 . .
Cl5 Cl 0.0087(6) 0.0558(4) 0.6277(3) 0.1211 Uani
O2 O 0.4310(13) 0.0005(8) 0.3943(6) 0.0820 Uani
H3 H 0.4708 0.0002 0.6923 0.0650 Uiso
C9 C 0.1298(17) 0.0052(11) 0.5970(9) 0.0736 Uani
C10 C 0.112(2) 0.0004(12) 0.5316(10) 0.0928 Uani
H6 H 0.0360 0.0262 0.5059 0.1110 Uiso
H41 H 0.9855 0.9667 0.9967 0.1220 Uiso
loop_
_atom_site_aniso_label
_atom_site_aniso_U_11
_atom_site_aniso_U_22
_atom_site_aniso_U_33
_atom_site_aniso_U_23
_atom_site_aniso_U_13
_atom_site_aniso_U_12
N6 0.041 0.039 0.029 -0.002 0.01 -0.006
Cl3 0.123 0.146 0.087 -0.052 0.009 -0.018
C39 0.074 0.103 0.081 -0.05 -0.018 0.015
C40 0.075 0.15 0.068 -0.073 -0.022 0.011
Cd4 0.0267 0.0637 0.0269 -0.0277 -0.006 0.0068
Cl1 0.033 0.074 0.031 -0.023 -0.0003 0.008
Cl2 0.033 0.067 0.03 -0.028 -0.002 -0.0049
Cl7 0.185 0.098 0.096 -0.043 -0.022 -0.007
O1 0.05 0.152 0.037 -0.054 0.001 0.009
N1 0.023 0.092 0.025 -0.04 0.002 -0.011
N2 0.045 0.028 0.036 -0.022 -0.008 0.016
C3 0.039 0.081 0.03 -0.019 -0.007 -0.014
C7 0.043 0.1 0.031 -0.026 -0.005 -0.016
C8 0.077 0.11 0.031 -0.04 -0.001 -0.015
C11 0.069 0.115 0.058 -0.047 -0.019 0.013
C12 0.051 0.085 0.047 -0.031 -0.021 -0.002
C14 0.048 0.125 0.03 -0.044 -0.008 -0.016
C15 0.037 0.124 0.04 -0.052 -0.01 0.016
C17 0.039 0.118 0.035 -0.039 -0.005 -0.007
C18 0.063 0.085 0.033 -0.016 -0.005 -0.011
C19 0.075 0.12 0.044 -0.023 -0.001 -0.009
C20 0.088 0.09 0.059 -0.037 -0.007 0.001
C21 0.073 0.098 0.037 -0.035 -0.01 0.017
C22 0.049 0.082 0.035 -0.035 -0.009 -0.002
C29 0.039 0.112 0.028 -0.033 -0.002 0.005
C30 0.029 0.106 0.028 -0.043 -0.005 0.009
Cd6 0.0264 0.0881 0.0267 -0.0365 -0.0042 0.0025
Cd1 0.0249 0.0658 0.0276 -0.03 -0.0044 0.0043
Cl4 0.024 0.069 0.029 -0.027 -0.0015 -0.004
Cl8 0.034 0.062 0.034 -0.023 -0.001 0.0026
Cl9 0.228 0.118 0.112 -0.05 -0.04 -0.003
N5 0.046 0.061 0.037 -0.029 0.001 0.004
C41 0.067 0.143 0.046 -0.061 -0.016 0.002
C49 0.078 0.2 0.086 -0.091 -0.008 -0.006
C50 0.078 0.16 0.088 -0.045 -0.022 -0.012
N8 0.027 0.094 0.034 -0.019 -0.002 0.017
Cl6 0.024 0.066 0.056 -0.026 -0.004 0.0077
Cl10 0.032 0.07 0.047 -0.035 0.001 -0.006
O3 0.048 0.201 0.051 -0.072 0.008 -0.026
O4 0.109 0.171 0.061 -0.074 -0.045 0.069
N4 0.023 0.116 0.021 -0.032 -0.005 -0.01
C35 0.061 0.092 0.031 -0.043 -0.016 0.004
C38 0.066 0.114 0.07 -0.059 -0.03 0.017
C42 0.031 0.12 0.053 -0.056 -0.014 0.008
C44 0.053 0.156 0.041 -0.067 -0.009 0.009
C45 0.057 0.129 0.052 -0.064 -0.026 0.013
C46 0.056 0.17 0.05 -0.075 -0.021 0.007
C47 0.03 0.169 0.055 -0.08 -0.013 0
C48 0.045 0.149 0.056 -0.059 -0.015 -0.004
C51 0.067 0.128 0.055 -0.059 0.004 -0.025
C52 0.046 0.116 0.037 -0.046 -0.007 -0.01
Cl5 0.108 0.167 0.103 -0.081 -0.035 0.054
O2 0.1 0.11 0.052 -0.045 -0.007 -0.02
C9 0.069 0.103 0.062 -0.048 -0.018 0.008
C10 0.079 0.122 0.077 -0.038 -0.049 0.018
loop_
_geom_bond_atom_site_label_1
_geom_bond_atom_site_label_2
_geom_bond_site_symmetry_1
_geom_bond_site_symmetry_2
N6 C76 1_555 1_555
H43 C79 1_555 1_555
C80 N6 1_555 1_555
H44 C80 1_555 1_555
H48 C90 1_555 1_555
Cl12 C89 1_555 1_555
C79 C80 1_555 1_555
C89 C90 1_555 1_555
Cl3 C39 1_555 1_555
C40 C39 1_555 1_555
H22 C40 1_555 1_555
Cl7 C20 1_555 1_555
O1 C14 1_555 1_555
N1 C1 1_555 1_555
C1 H1 1_555 1_555
C2 C1 1_555 1_555
H2 C2 1_555 1_555
C3 C2 1_555 1_555
C4 C3 1_555 1_555
C5 N1 1_555 1_555
H4 C5 1_555 1_555
C6 C3 1_555 1_555
C7 C6 1_555 1_555
C8 C7 1_555 1_555
H5 C8 1_555 1_555
H7 C11 1_555 1_555
C12 C7 1_555 1_555
C13 C12 1_555 1_555
C14 C13 1_555 1_555
C15 C6 1_555 1_555
H8 C15 1_555 1_555
C16 C13 1_555 1_555
C17 C16 1_555 1_555
C18 C17 1_555 1_555
H9 C18 1_555 1_555
C19 C18 1_555 1_555
H10 C19 1_555 1_555
C20 C19 1_555 1_555
C21 C20 1_555 1_555
H11 C21 1_555 1_555
C22 C17 1_555 1_555
C23 C22 1_555 1_555
C24 C23 1_555 1_555
H12 C24 1_555 1_555
C25 C16 1_555 1_555
C26 N2 1_555 1_555
H13 C26 1_555 1_555
C27 C26 1_555 1_555
H14 C27 1_555 1_555
C28 C23 1_555 1_555
C29 C28 1_555 1_555
H15 C29 1_555 1_555
C30 N2 1_555 1_555
H16 C30 1_555 1_555
C72 C71 1_555 1_555
H38 C72 1_555 1_555
C73 C72 1_555 1_555
C74 C73 1_555 1_555
H39 C74 1_555 1_555
C75 C70 1_555 1_555
H40 C75 1_555 1_555
Cl11 C73 1_555 1_555
Cd6 N1 1_555 1_555
C4 C5 1_555 1_555
C11 C12 1_555 1_555
C14 C15 1_555 1_555
C21 C22 1_555 1_555
C24 C25 1_555 1_555
C27 C28 1_555 1_555
C29 C30 1_555 1_555
C70 C71 1_555 1_555
C74 C75 1_555 1_555
O1 H49 1_555 1_555
Cl4 Cd1 1_555 1_555
Cl8 Cd4 1_555 1_555
Cl9 C50 1_555 1_555
N5 Cd1 1_555 1_555
H23 C41 1_555 1_555
H26 C49 1_555 1_555
C50 C49 1_555 1_555
H31 C59 1_555 1_555
H32 C60 1_555 1_555
C61 N5 1_555 1_555
H33 C61 1_555 1_555
C62 C61 1_555 1_555
H34 C62 1_555 1_555
C63 C62 1_555 1_555
C64 C63 1_555 1_555
H35 C64 1_555 1_555
C65 N5 1_555 1_555
H36 C65 1_555 1_555
O5 C68 1_555 1_555
C66 C63 1_555 1_555
C67 C66 1_555 1_555
H37 C67 1_555 1_555
C68 C67 1_555 1_555
C69 C68 1_555 1_555
H42 C77 1_555 1_555
C78 C77 1_555 1_555
C81 C69 1_555 1_555
C82 C81 1_555 1_555
C83 C82 1_555 1_555
C84 C78 1_555 1_555
C85 C84 1_555 1_555
C86 C81 1_555 1_555
C87 C86 1_555 1_555
H46 C87 1_555 1_555
C88 C87 1_555 1_555
H47 C88 1_555 1_555
Cd6 Cl8 1_555 1_555
Cd4 Cl4 1_555 1_555
C59 C60 1_555 1_555
C64 C65 1_555 1_555
C83 C84 1_555 1_555
C85 C86 1_555 1_555
O5 H53 1_555 1_555
Cd6 Cl6 1_555 1_555
O3 C44 1_555 1_555
O4 C55 1_555 1_555
N8 C31 1_555 1_555
C31 H17 1_555 1_555
C32 C31 1_555 1_555
H18 C32 1_555 1_555
C33 C32 1_555 1_555
C34 C33 1_555 1_555
H19 C34 1_555 1_555
C35 N8 1_555 1_555
H20 C35 1_555 1_555
C36 C33 1_555 1_555
C37 C36 1_555 1_555
C38 C37 1_555 1_555
H21 C38 1_555 1_555
C42 C37 1_555 1_555
C43 C42 1_555 1_555
C44 C43 1_555 1_555
C45 C36 1_555 1_555
H24 C45 1_555 1_555
C46 C43 1_555 1_555
C47 C46 1_555 1_555
C48 C47 1_555 1_555
H25 C48 1_555 1_555
C52 C47 1_555 1_555
C53 C52 1_555 1_555
C54 C53 1_555 1_555
H28 C54 1_555 1_555
C55 C46 1_555 1_555
C56 N4 1_555 1_555
H29 C56 1_555 1_555
C57 C56 1_555 1_555
H30 C57 1_555 1_555
C58 C53 1_555 1_555
Cd6 Cl10 1_555 1_555
C34 C35 1_555 1_555
C44 C45 1_555 1_555
C51 C52 1_555 1_555
C54 C55 1_555 1_555
C57 C58 1_555 1_555
O3 H51 1_555 1_555
O4 H52 1_555 1_555
Cl5 C9 1_555 1_555
C10 C9 1_555 1_555
H6 C10 1_555 1_555

#END
