
###############################################################################
#
# This file contains modified crystal structure data generated from the
# MOF subset of the Cambridge Structural Database (CSD) v543 
# hosted by the Cambridge Crystallographic Data Centre (CCDC).
#
# This work is licensed under the Creative Commons
# Attribution-NonCommercial-ShareAlike 4.0 International License.
# To view a copy of this license, visit
# http://creativecommons.org/licenses/by-nc-sa/4.0/
# or send a letter to
# Creative Commons, PO Box 1866, Mountain View, CA 94042, USA.
#
# CIF created using the CSD Python API on 29 September 2022
# The structure has been converted into the P1 space group
# The structure has a 3D framework
# The original CSD entry DARVIE is in the monoclinic crystal system
# The framework has been calculated to contain at least 10.0% void space
# The void calculation uses a probe of radius 1.32A, grid spacing 0.4
#
###############################################################################

data_DARVIE
_chemical_formula_moiety         '(C16 H16 Co4 N14 O15)n'
_symmetry_cell_setting           triclinic
_symmetry_space_group_name_H-M   'P 1'
_symmetry_Int_Tables_number      1
_space_group_name_Hall           'P 1'
loop_
_symmetry_equiv_pos_site_id
_symmetry_equiv_pos_as_xyz
1 x,y,z
_cell_length_a                   9.1332(9)
_cell_length_b                   13.8397(12)
_cell_length_c                   9.0847(8)
_cell_angle_alpha                90
_cell_angle_beta                 117.392(5)
_cell_angle_gamma                90
_cell_volume                     1019.56
loop_
_atom_site_label
_atom_site_type_symbol
_atom_site_fract_x
_atom_site_fract_y
_atom_site_fract_z
Co1 Co 0.27761(13) 0.59577(8) 0.22189(12)
O1 O 0.0207(6) 0.6090(4) 0.1066(6)
O3 O 0.5256(6) 0.5555(4) 0.3409(6)
O4 O 0.7122(6) 0.4844(4) 0.5733(6)
C2 C 0.5707(9) 0.5114(5) 0.4767(8)
N1 N 0.3129(8) 0.7235(5) 0.3584(7)
N2 N 0.4315(9) 0.7900(5) 0.3837(8)
H1 H 0.4948 0.7904 0.3344
N3 N 0.3172(8) 0.8322(4) 0.5388(7)
C3 C 0.2476(9) 0.7523(5) 0.4531(8)
H2 H 0.1595 0.7195 0.4598
C4 C 0.4369(9) 0.8543(5) 0.4950(8)
N4 N 0.536(2) 0.9290(11) 0.540(2)
H3 H 0.6030 0.9383 0.4955
H4 H 0.5360 0.9699 0.6137
O6 O 0.2064(6) 0.4671(4) 0.0760(6)
O7 O 0.4744(6) 0.4445(4) 0.6591(6)
O8 O 0.2878(6) 0.5156(4) 0.4267(6)
C6 C 0.4293(9) 0.4886(5) 0.5233(8)
Co4 Co 0.72239(13) 0.40423(8) 0.77811(12)
Co5 Co 0.27761(13) 0.90423(8) 0.72189(12)
N10 N 0.3172(8) 0.6678(4) 0.0388(7)
O2 O 0.7936(6) 0.5329(4) 0.9240(6)
O5 O 0.9793(6) 0.3910(4) 0.8934(6)
N5 N 0.6871(8) 0.2765(5) 0.6416(7)
N6 N 0.5685(9) 0.2100(5) 0.6163(8)
H5 H 0.5052 0.2096 0.6656
N7 N 0.6828(8) 0.1678(4) 0.4612(7)
C7 C 0.7524(9) 0.2477(5) 0.5469(8)
H6 H 0.8405 0.2805 0.5402
C8 C 0.5631(9) 0.1457(5) 0.5050(8)
N8 N 0.464(2) 0.0710(11) 0.460(2)
H7 H 0.3970 0.0617 0.5045
H8 H 0.4640 0.0301 0.3863
Co3 Co 0.72239(13) 0.09577(8) 0.27811(12)
N9 N 0.6828(8) 0.3322(4) 0.9612(7)
N8_2 N 0.536(2) 0.5710(11) 0.040(2)
H8_2 H 0.5360 0.5301 0.1137
O5_2 O 0.0207(6) 0.8910(4) 0.6066(6)
N5_2 N 0.3129(8) 0.7765(5) 0.8584(7)
N6_2 N 0.4315(9) 0.7100(5) 0.8837(8)
H5_2 H 0.4948 0.7096 0.8344
C7_2 C 0.2476(9) 0.7477(5) 0.9531(8)
H6_2 H 0.1595 0.7805 0.9598
C8_2 C 0.4369(9) 0.6457(5) 0.9950(8)
H7_2 H 0.6030 0.5617 0.9955
O9 O 0.5256(6) 0.9445(4) 0.8409(6)
O10 O 0.2878(6) 0.9844(4) 0.9267(6)
O1_2 O 0.9793(6) 0.1090(4) 0.3934(6)
O3_2 O 0.4744(6) 0.0555(4) 0.1591(6)
C2_2 C 0.4293(9) 0.0114(5) 0.0233(8)
N1_2 N 0.6871(8) 0.2235(5) 0.1416(7)
N2_2 N 0.5685(9) 0.2900(5) 0.1163(8)
H1_2 H 0.5052 0.2904 0.1656
C3_2 C 0.7524(9) 0.2523(5) 0.0469(8)
H2_2 H 0.8405 0.2195 0.0402
C4_2 C 0.5631(9) 0.3543(5) 0.0050(8)
H3_2 H 0.3970 0.4383 0.0045
O8_2 O 0.7122(6) 0.0156(4) 0.0733(6)
N4_2 N 0.464(2) 0.4290(11) 0.960(2)
H4_2 H 0.4640 0.4699 0.8863
C6_2 C 0.5707(9) 0.9886(5) 0.9767(8)
C5 C 0.0540(9) 0.4601(5) 0.9907(8)
C1 C 0.9460(9) 0.5399(5) 0.0093(8)
O2_2 O 0.2064(6) 0.0329(4) 0.5760(6)
C1_2 C 0.0540(9) 0.0399(5) 0.4907(8)
O6_2 O 0.7936(6) 0.9671(4) 0.4240(6)
C5_2 C 0.9460(9) 0.9601(5) 0.5093(8)
loop_
_geom_bond_atom_site_label_1
_geom_bond_atom_site_label_2
_geom_bond_site_symmetry_1
_geom_bond_site_symmetry_2
Co1 O1 1_555 1_555
O3 Co1 1_555 1_555
O4 C2 1_555 1_555
C2 O3 1_555 1_555
N1 Co1 1_555 1_555
N2 N1 1_555 1_555
H1 N2 1_555 1_555
N3 C3 1_555 1_555
C3 N1 1_555 1_555
H2 C3 1_555 1_555
C4 N2 1_555 1_555
N4 C4 1_555 1_555
H3 N4 1_555 1_555
H4 N4 1_555 1_555
O6 Co1 1_555 1_555
O7 C6 1_555 1_555
O8 Co1 1_555 1_555
C6 C2 1_555 1_555
Co4 O4 1_555 1_555
Co5 N3 1_555 1_555
N10 Co1 1_555 1_555
N3 C4 1_555 1_555
O7 Co4 1_555 1_555
O8 C6 1_555 1_555
Co4 O2 1_555 1_555
N5 Co4 1_555 1_555
N6 N5 1_555 1_555
H5 N6 1_555 1_555
N7 C7 1_555 1_555
C7 N5 1_555 1_555
H6 C7 1_555 1_555
C8 N6 1_555 1_555
N8 C8 1_555 1_555
H7 N8 1_555 1_555
H8 N8 1_555 1_555
Co3 N7 1_555 1_555
N9 Co4 1_555 1_555
O5 Co4 1_555 1_555
N7 C8 1_555 1_555
H8_2 N8_2 1_555 1_555
N5_2 Co5 1_555 1_555
N6_2 N5_2 1_555 1_555
H5_2 N6_2 1_555 1_555
C7_2 N5_2 1_555 1_555
H6_2 C7_2 1_555 1_555
C8_2 N6_2 1_555 1_555
O9 Co5 1_555 1_555
O10 Co5 1_555 1_555
O5_2 Co5 1_555 1_555
Co3 O1_2 1_555 1_555
O3_2 Co3 1_555 1_555
C2_2 O3_2 1_555 1_555
N1_2 Co3 1_555 1_555
N2_2 N1_2 1_555 1_555
H1_2 N2_2 1_555 1_555
C3_2 N1_2 1_555 1_555
H2_2 C3_2 1_555 1_555
C4_2 N2_2 1_555 1_555
O8_2 Co3 1_555 1_555
H4_2 N4_2 1_555 1_555
O9 C6_2 1_555 1_555
O2_2 C1_2 1_555 1_555
C5_2 O6_2 1_555 1_555

#END
