
###############################################################################
#
# This file contains modified crystal structure data generated from the
# MOF subset of the Cambridge Structural Database (CSD) v543 
# hosted by the Cambridge Crystallographic Data Centre (CCDC).
#
# This work is licensed under the Creative Commons
# Attribution-NonCommercial-ShareAlike 4.0 International License.
# To view a copy of this license, visit
# http://creativecommons.org/licenses/by-nc-sa/4.0/
# or send a letter to
# Creative Commons, PO Box 1866, Mountain View, CA 94042, USA.
#
# CIF created using the CSD Python API on 29 September 2022
# The structure has been converted into the P1 space group
# The structure has a 3D framework
# The original CSD entry DASFAI is in the triclinic crystal system
# The framework has been calculated to contain at least 10.0% void space
# The void calculation uses a probe of radius 1.32A, grid spacing 0.4
#
###############################################################################

data_DASFAI
_chemical_formula_moiety         '(C24 H4 F12 O14 Sc2)n'
_symmetry_cell_setting           triclinic
_symmetry_space_group_name_H-M   'P 1'
_symmetry_Int_Tables_number      1
_space_group_name_Hall           'P 1'
loop_
_symmetry_equiv_pos_site_id
_symmetry_equiv_pos_as_xyz
1 x,y,z
_cell_length_a                   4.79757(17)
_cell_length_b                   10.0870(4)
_cell_length_c                   18.1374(7)
_cell_angle_alpha                80.387(3)
_cell_angle_beta                 84.542(3)
_cell_angle_gamma                88.510(3)
_cell_volume                     861.431
loop_
_atom_site_label
_atom_site_type_symbol
_atom_site_fract_x
_atom_site_fract_y
_atom_site_fract_z
_atom_site_U_iso_or_equiv
_atom_site_thermal_displace_type
F2 F 0.1868(2) 0.05307(11) 0.12802(6) 0.0186 Uani
C4 C 0.0931(4) 0.02306(18) 0.06574(11) 0.0129 Uani
F1 F 0.3909(2) 0.18809(11) 0.99992(6) 0.0188 Uani
O2 O 0.0470(3) 0.18674(13) 0.80740(8) 0.0154 Uani
O3 O 0.4624(3) 0.19698(13) 0.84975(8) 0.0156 Uani
C1 C 0.2143(4) 0.15913(17) 0.85690(11) 0.0127 Uani
C2 C 0.1085(4) 0.07523(17) 0.93009(11) 0.0117 Uani
C3 C 0.1993(4) 0.09458(17) 0.99795(11) 0.0122 Uani
Sc4 Sc 0.72826(7) 0.29369(3) 0.75744(2) 0.0107 Uani
Sc8 Sc 0.27174(7) 0.70631(3) 0.24256(2) 0.0107 Uani
O19 O 0.0005(3) 0.36733(13) 0.66044(7) 0.0152 Uani
F4 F 0.8021(2) 0.32410(11) 0.09124(7) 0.0225 Uani
C8 C 0.6455(4) 0.41030(18) 0.04730(11) 0.0152 Uani
F9 F 0.0498(2) 0.63415(11) 0.05326(7) 0.0206 Uani
O10 O 0.2217(3) 0.54930(13) 0.18942(8) 0.0173 Uani
O11 O 0.3562(4) 0.33668(14) 0.19750(9) 0.0312 Uani
C17 C 0.3290(4) 0.44968(19) 0.16176(11) 0.0161 Uani
C18 C 0.4183(4) 0.47633(18) 0.07867(11) 0.0147 Uani
C19 C 0.2763(4) 0.56697(17) 0.02874(11) 0.0145 Uani
F3 F 0.9502(2) 0.36585(11) 0.94674(7) 0.0206 Uani
F5 F 0.1337(3) 0.29454(12) 0.52290(7) 0.0266 Uani
F6 F 0.3558(2) 0.38046(11) 0.38637(7) 0.0220 Uani
O1 O 0.6365(3) 0.13365(14) 0.70313(9) 0.0220 Uani
H1 H 0.697(5) 0.115(2) 0.6603(7) 0.0260 Uiso
H2 H 0.551(4) 0.0642(15) 0.7274(10) 0.0260 Uiso
O4 O 0.7783(3) 0.45070(13) 0.81058(8) 0.0173 Uani
O5 O 0.6438(4) 0.66332(14) 0.80250(9) 0.0312 Uani
O6 O 0.4029(3) 0.40234(13) 0.70540(8) 0.0158 Uani
C5 C 0.6710(4) 0.55032(19) 0.83824(11) 0.0161 Uani
C6 C 0.5817(4) 0.52367(18) 0.92133(11) 0.0147 Uani
C7 C 0.7237(4) 0.43303(17) 0.97126(11) 0.0145 Uani
C9 C 0.2506(4) 0.40347(17) 0.65274(11) 0.0124 Uani
C10 C 0.3778(4) 0.45332(18) 0.57412(11) 0.0142 Uani
C11 C 0.3115(4) 0.39749(19) 0.51324(11) 0.0162 Uani
C12 C 0.4287(4) 0.44233(19) 0.44129(11) 0.0153 Uani
F10 F 0.1979(2) 0.67590(11) 0.90876(7) 0.0225 Uani
C20 C 0.3545(4) 0.58970(18) 0.95270(11) 0.0152 Uani
F11 F 0.8663(3) 0.70546(12) 0.47710(7) 0.0266 Uani
F12 F 0.6442(2) 0.61954(11) 0.61363(7) 0.0220 Uani
O12 O 0.5971(3) 0.59766(13) 0.29460(8) 0.0158 Uani
O13 O 0.9995(3) 0.63267(13) 0.33956(7) 0.0152 Uani
C21 C 0.7494(4) 0.59653(17) 0.34726(11) 0.0124 Uani
C22 C 0.6222(4) 0.54668(18) 0.42588(11) 0.0142 Uani
C23 C 0.6885(4) 0.60251(19) 0.48676(11) 0.0162 Uani
C24 C 0.5713(4) 0.55767(19) 0.55871(11) 0.0153 Uani
F7 F 0.6091(2) 0.81191(11) 0.00008(6) 0.0188 Uani
O8 O 0.9530(3) 0.81326(13) 0.19260(8) 0.0154 Uani
O9 O 0.5376(3) 0.80302(13) 0.15025(8) 0.0156 Uani
C13 C 0.7857(4) 0.84087(17) 0.14310(11) 0.0127 Uani
C14 C 0.8915(4) 0.92477(17) 0.06991(11) 0.0117 Uani
C15 C 0.8007(4) 0.90542(17) 0.00205(11) 0.0122 Uani
O14 O 0.3635(3) 0.86635(14) 0.29687(9) 0.0220 Uani
H3 H 0.303(5) 0.885(2) 0.3397(7) 0.0260 Uiso
H4 H 0.449(4) 0.9358(15) 0.2726(10) 0.0260 Uiso
F8 F 0.8132(2) 0.94693(11) 0.87198(6) 0.0186 Uani
C16 C 0.9069(4) 0.97694(18) 0.93426(11) 0.0129 Uani
loop_
_atom_site_aniso_label
_atom_site_aniso_U_11
_atom_site_aniso_U_22
_atom_site_aniso_U_33
_atom_site_aniso_U_23
_atom_site_aniso_U_13
_atom_site_aniso_U_12
F2 0.0236 0.0208 0.0116 -0.001 -0.0035 -0.0076
C4 0.0123 0.0149 0.0114 -0.0014 -0.0012 -0.0002
F1 0.0189 0.0185 0.0181 0.0012 -0.0018 -0.012
O2 0.0135 0.018 0.0126 0.0034 -0.0012 0.0002
O3 0.0123 0.0195 0.0131 0.0019 0.002 -0.0033
C1 0.0128 0.0109 0.013 -0.0002 0.0027 0.0008
C2 0.0096 0.0116 0.0116 0.0027 0.0026 0.0005
C3 0.0089 0.0102 0.0166 -0.0002 0.0005 -0.0034
Sc4 0.01 0.01288 0.00821 0.00043 0.00122 -0.00226
Sc8 0.01 0.01288 0.00821 0.00043 0.00122 -0.00226
O19 0.0118 0.0209 0.0113 0.0009 0.0021 -0.0033
F4 0.0244 0.0236 0.0175 0.0013 -0.0017 0.0074
C8 0.0172 0.0114 0.0168 -0.0012 -0.0017 -0.0005
F9 0.0202 0.0229 0.0183 -0.0052 0.0025 0.0057
O10 0.0199 0.0184 0.0143 -0.0059 0.001 -0.0015
O11 0.0477 0.0201 0.0198 0.0043 0.0117 0.0072
C17 0.0165 0.0175 0.0145 -0.0035 0.0004 -0.0025
C18 0.019 0.0115 0.0139 -0.0032 0.0006 -0.005
C19 0.0134 0.0117 0.0186 -0.0051 0.0026 -0.0015
F3 0.0202 0.0229 0.0183 -0.0052 0.0025 0.0057
F5 0.0321 0.0287 0.0182 -0.0033 0.0065 -0.0209
F6 0.0271 0.0262 0.0131 -0.0036 0.0002 -0.0109
O1 0.0294 0.0212 0.0156 -0.0066 0.0054 -0.01
O4 0.0199 0.0184 0.0143 -0.0059 0.001 -0.0015
O5 0.0477 0.0201 0.0198 0.0043 0.0117 0.0072
O6 0.014 0.0203 0.0113 0.0026 -0.0007 -0.0013
C5 0.0165 0.0175 0.0145 -0.0035 0.0004 -0.0025
C6 0.019 0.0115 0.0139 -0.0032 0.0006 -0.005
C7 0.0134 0.0117 0.0186 -0.0051 0.0026 -0.0015
C9 0.0125 0.0118 0.0117 0.0003 0.0011 0.0012
C10 0.0124 0.0174 0.0111 0.0015 0.0012 0.0002
C11 0.0129 0.0178 0.0166 0.0007 0.0005 -0.0058
C12 0.0143 0.0188 0.0125 -0.0022 -0.0007 -0.0018
F10 0.0244 0.0236 0.0175 0.0013 -0.0017 0.0074
C20 0.0172 0.0114 0.0168 -0.0012 -0.0017 -0.0005
F11 0.0321 0.0287 0.0182 -0.0033 0.0065 -0.0209
F12 0.0271 0.0262 0.0131 -0.0036 0.0002 -0.0109
O12 0.014 0.0203 0.0113 0.0026 -0.0007 -0.0013
O13 0.0118 0.0209 0.0113 0.0009 0.0021 -0.0033
C21 0.0125 0.0118 0.0117 0.0003 0.0011 0.0012
C22 0.0124 0.0174 0.0111 0.0015 0.0012 0.0002
C23 0.0129 0.0178 0.0166 0.0007 0.0005 -0.0058
C24 0.0143 0.0188 0.0125 -0.0022 -0.0007 -0.0018
F7 0.0189 0.0185 0.0181 0.0012 -0.0018 -0.012
O8 0.0135 0.018 0.0126 0.0034 -0.0012 0.0002
O9 0.0123 0.0195 0.0131 0.0019 0.002 -0.0033
C13 0.0128 0.0109 0.013 -0.0002 0.0027 0.0008
C14 0.0096 0.0116 0.0116 0.0027 0.0026 0.0005
C15 0.0089 0.0102 0.0166 -0.0002 0.0005 -0.0034
O14 0.0294 0.0212 0.0156 -0.0066 0.0054 -0.01
F8 0.0236 0.0208 0.0116 -0.001 -0.0035 -0.0076
C16 0.0123 0.0149 0.0114 -0.0014 -0.0012 -0.0002
loop_
_geom_bond_atom_site_label_1
_geom_bond_atom_site_label_2
_geom_bond_site_symmetry_1
_geom_bond_site_symmetry_2
F2 C4 1_555 1_555
F1 C3 1_555 1_555
O3 C1 1_555 1_555
C1 O2 1_555 1_555
C2 C1 1_555 1_555
C3 C2 1_555 1_555
Sc4 O3 1_555 1_555
F4 C8 1_555 1_555
F9 C19 1_555 1_555
O10 C17 1_555 1_555
O11 C17 1_555 1_555
C17 C18 1_555 1_555
C18 C8 1_555 1_555
C19 C18 1_555 1_555
Sc8 O10 1_555 1_555
Sc4 O1 1_555 1_555
F3 C7 1_555 1_555
F5 C11 1_555 1_555
F6 C12 1_555 1_555
O1 H1 1_555 1_555
H2 O1 1_555 1_555
O4 Sc4 1_555 1_555
O5 C5 1_555 1_555
O6 Sc4 1_555 1_555
O19 C9 1_555 1_555
C5 O4 1_555 1_555
C6 C5 1_555 1_555
C7 C6 1_555 1_555
C9 O6 1_555 1_555
C10 C9 1_555 1_555
C11 C10 1_555 1_555
C12 C11 1_555 1_555
F10 C20 1_555 1_555
C20 C6 1_555 1_555
F11 C23 1_555 1_555
F12 C24 1_555 1_555
O12 C21 1_555 1_555
O13 C21 1_555 1_555
C21 C22 1_555 1_555
C22 C12 1_555 1_555
C23 C22 1_555 1_555
C24 C10 1_555 1_555
Sc8 O12 1_555 1_555
C23 C24 1_555 1_555
F7 C15 1_555 1_555
O8 C13 1_555 1_555
O9 C13 1_555 1_555
C13 C14 1_555 1_555
C15 C14 1_555 1_555
Sc8 O9 1_555 1_555
O14 Sc8 1_555 1_555
H3 O14 1_555 1_555
H4 O14 1_555 1_555
F8 C16 1_555 1_555

#END
