
###############################################################################
#
# This file contains modified crystal structure data generated from the
# MOF subset of the Cambridge Structural Database (CSD) v543 
# hosted by the Cambridge Crystallographic Data Centre (CCDC).
#
# This work is licensed under the Creative Commons
# Attribution-NonCommercial-ShareAlike 4.0 International License.
# To view a copy of this license, visit
# http://creativecommons.org/licenses/by-nc-sa/4.0/
# or send a letter to
# Creative Commons, PO Box 1866, Mountain View, CA 94042, USA.
#
# CIF created using the CSD Python API on 29 September 2022
# The structure has been converted into the P1 space group
# The structure has a 3D framework
# The original CSD entry DAWWAC is in the monoclinic crystal system
# The framework has been calculated to contain at least 10.0% void space
# The void calculation uses a probe of radius 1.32A, grid spacing 0.4
# H atom positions have been added when not included in the experimental data
#
###############################################################################

data_DAWWAC
_chemical_formula_moiety         '(C64 H64 Co9 N44 O12)n'
_symmetry_cell_setting           triclinic
_symmetry_space_group_name_H-M   'P 1'
_symmetry_Int_Tables_number      1
_space_group_name_Hall           'P 1'
loop_
_symmetry_equiv_pos_site_id
_symmetry_equiv_pos_as_xyz
1 x,y,z
_cell_length_a                   10.6055(19)
_cell_length_b                   13.150(2)
_cell_length_c                   23.066(5)
_cell_angle_alpha                90
_cell_angle_beta                 100.439(5)
_cell_angle_gamma                90
_cell_volume                     3163.59
loop_
_atom_site_label
_atom_site_type_symbol
_atom_site_fract_x
_atom_site_fract_y
_atom_site_fract_z
N4 N 0.2231(4) 0.2080(3) 0.0808(2)
C1 C 0.0311(5) 0.1095(5) 0.0622(3)
C4 C 0.0204(6) 0.2867(5) 0.0813(3)
C7 C 0.1518(6) 0.2886(5) 0.0865(3)
H4 H 0.1931 0.3507 0.0946
C8 C 0.1637(5) 0.1190(5) 0.0696(3)
H5 H 0.2126 0.0611 0.0667
Co4 Co 0.42466(6) 0.20800(5) 0.07778(3)
Co2 Co 0.5000 0.0000 0.0000
N1 N 0.6207(4) 0.1903(3) 0.06187(19)
N2 N 0.4441(4) 0.0603(4) 0.11671(19)
N3 N 0.7644(4) 0.0990(4) 0.0306(2)
N6 N 0.7322(4) 0.2398(4) 0.0797(2)
N7 N 0.6401(4) 0.1078(3) 0.03290(19)
O2 O 0.4097(4) 0.3508(3) 0.03928(19)
N9 N 0.4391(5) 0.0335(4) 0.1725(2)
H1 H 0.9924 0.0466 0.0532
C3 C 0.9569(5) 0.1944(4) 0.0683(2)
H2 H 0.9751 0.3456 0.0863
C5 C 0.8183(5) 0.1796(4) 0.0595(2)
N25 N 0.4703(5) 0.2754(4) 0.1624(2)
Co2_2 Co 0.5000 -0.0000 1.0000
O1 O 0.3786(3) 0.1243(3) 0.99705(15)
O3 O 0.2213(5) 0.2175(4) 0.9455(2)
C6 C 0.2883(6) 0.1428(5) 0.9526(2)
H3 H 0.2737 0.0936 0.9231
N11 N 0.3738(9) 0.4201(7) 0.9475(5)
C14 C 0.4190(8) 0.3569(6) 0.9860(4)
C15 C 0.2926(12) 0.4951(10) 0.9625(6)
C16 C 0.3984(17) 0.4130(11) 0.8848(6)
N16 N 0.5248(4) 0.0207(3) 0.91151(19)
N19 N 0.4703(5) 0.2246(4) 0.6624(2)
C18 C 0.5299(5) 0.0643(5) 0.8253(2)
N21 N 0.5069(5) 0.1002(4) 0.8762(2)
C25 C 0.4191(7) 0.2027(5) 0.7588(3)
H15 H 0.3724 0.2215 0.7875
C26 C 0.5146(6) 0.1230(5) 0.7702(3)
C27 C 0.3991(6) 0.2496(6) 0.7055(3)
H16 H 0.3363 0.2997 0.6976
C28 C 0.5862(7) 0.1072(6) 0.7285(3)
H17 H 0.6530 0.0604 0.7351
C29 C 0.5609(7) 0.1598(6) 0.6763(3)
H18 H 0.6136 0.1474 0.6489
Co7 Co 0.42466(6) 0.29200(5) 0.57778(3)
H19 H 0.47606 0.297036 0.97079
H20 H 0.361601 0.34096 0.865445
H21 H 0.350164 0.47552 0.858808
H22 H 0.50108 0.417427 0.885174
H23 H 0.343713 0.540217 0.998902
H24 H 0.261139 0.544169 0.924608
H25 H 0.209493 0.459523 0.975712
Co2_3 Co 0.5000 1.0000 0.0000
N5 N 0.4752(4) 0.9793(3) 0.08849(19)
N8 N 0.5297(5) 0.7754(4) 0.3376(2)
C2 C 0.4701(5) 0.9357(5) 0.1747(2)
N10 N 0.4931(5) 0.8998(4) 0.1238(2)
C9 C 0.5809(7) 0.7973(5) 0.2412(3)
H6 H 0.6276 0.7785 0.2125
C10 C 0.4854(6) 0.8770(5) 0.2298(3)
C11 C 0.6009(6) 0.7504(6) 0.2945(3)
H7 H 0.6637 0.7003 0.3024
C12 C 0.4138(7) 0.8928(6) 0.2715(3)
H8 H 0.3470 0.9396 0.2649
C13 C 0.4391(7) 0.8402(6) 0.3237(3)
H9 H 0.3864 0.8526 0.3511
O4 O 0.6214(3) 0.8757(3) 0.00295(15)
O6 O 0.7787(5) 0.7825(4) 0.0545(2)
C22 C 0.7117(6) 0.8572(5) 0.0474(2)
H12 H 0.7263 0.9064 0.0769
N22 N 0.6262(9) 0.5799(7) 0.0525(5)
C30 C 0.5810(8) 0.6431(6) 0.0140(4)
C31 C 0.7074(12) 0.5049(10) 0.0375(6)
C32 C 0.6016(17) 0.5870(11) 0.1152(6)
Co5 Co 0.57534(6) 0.70800(5) 0.42222(3)
H26 H 0.790507 0.540477 0.0242881
H27 H 0.738861 0.455831 0.0753922
H28 H 0.656287 0.459783 0.00109783
H29 H 0.52394 0.702964 0.0292097
H30 H 0.49892 0.582573 0.114826
H31 H 0.649836 0.52448 0.141192
H32 H 0.638399 0.65904 0.134555
Co2_4 Co 0.5000 1.0000 1.0000
Co3 Co 0.57534(6) 0.79200(5) 0.92222(3)
N12 N 0.3793(4) 0.8097(3) 0.93813(19)
N13 N 0.5559(4) 0.9397(4) 0.88329(19)
N14 N 0.2356(4) 0.9010(4) 0.9694(2)
N17 N 0.2678(4) 0.7602(4) 0.9203(2)
N18 N 0.3599(4) 0.8922(3) 0.96710(19)
O5 O 0.5903(4) 0.6492(3) 0.96072(19)
N20 N 0.5609(5) 0.9665(4) 0.8275(2)
H10 H 0.0076 0.9534 0.9468
C19 C 0.0431(5) 0.8056(4) 0.9317(2)
H11 H 0.0249 0.6544 0.9137
C21 C 0.1817(5) 0.8204(4) 0.9405(2)
N24 N 0.7769(4) 0.7920(3) 0.9192(2)
N26 N 0.5297(5) 0.7246(4) 0.8376(2)
C17 C 0.9689(5) 0.8905(5) 0.9378(3)
C20 C 0.9796(6) 0.7133(5) 0.9187(3)
C23 C 0.8482(6) 0.7114(5) 0.9135(3)
H13 H 0.8069 0.6493 0.9054
C24 C 0.8363(5) 0.8810(5) 0.9304(3)
H14 H 0.7874 0.9389 0.9333
N15 N 0.2231(4) 0.2920(3) 0.5808(2)
C17_2 C 0.0311(5) 0.3905(5) 0.5622(3)
C20_2 C 0.0204(6) 0.2133(5) 0.5813(3)
C23_2 C 0.1518(6) 0.2114(5) 0.5865(3)
H13_2 H 0.1931 0.1493 0.5946
C24_2 C 0.1637(5) 0.3810(5) 0.5696(3)
H14_2 H 0.2126 0.4389 0.5667
Co2_5 Co 0.5000 0.5000 0.5000
O1_2 O 0.6214(3) 0.6243(3) 0.50295(15)
N1_2 N 0.3793(4) 0.6903(3) 0.43813(19)
N2_2 N 0.5559(4) 0.5603(4) 0.38329(19)
N3_2 N 0.2356(4) 0.5990(4) 0.4694(2)
N5_2 N 0.5248(4) 0.4793(3) 0.41151(19)
N6_2 N 0.2678(4) 0.7398(4) 0.4203(2)
N7_2 N 0.3599(4) 0.6078(3) 0.46710(19)
O2_2 O 0.5903(4) 0.8508(3) 0.46072(19)
O3_2 O 0.7787(5) 0.7175(4) 0.5545(2)
N9_2 N 0.5609(5) 0.5335(4) 0.3275(2)
H1_2 H 0.0076 0.5466 0.4468
C2_2 C 0.5299(5) 0.4357(5) 0.3253(2)
C3_2 C 0.0431(5) 0.6944(4) 0.4317(2)
N10_2 N 0.5069(5) 0.3998(4) 0.3762(2)
H2_2 H 0.0249 0.8456 0.4137
C5_2 C 0.1817(5) 0.6796(4) 0.4405(2)
C6_2 C 0.7117(6) 0.6428(5) 0.5474(2)
H3_2 H 0.7263 0.5936 0.5769
C9_2 C 0.4191(7) 0.2973(5) 0.2588(3)
H6_2 H 0.3724 0.2785 0.2875
C10_2 C 0.5146(6) 0.3770(5) 0.2702(3)
C11_2 C 0.3991(6) 0.2504(6) 0.2055(3)
H7_2 H 0.3363 0.2003 0.1976
C12_2 C 0.5862(7) 0.3928(6) 0.2285(3)
H8_2 H 0.6530 0.4396 0.2351
C13_2 C 0.5609(7) 0.3402(6) 0.1763(3)
H9_2 H 0.6136 0.3526 0.1489
N11_2 N 0.6262(9) 0.9201(7) 0.5525(5)
C14_2 C 0.5810(8) 0.8569(6) 0.5140(4)
C15_2 C 0.7074(12) 0.9951(10) 0.5375(6)
C16_2 C 0.6016(17) 0.9130(11) 0.6152(6)
O4_2 O 0.3786(3) 0.3757(3) 0.49705(15)
N12_2 N 0.6207(4) 0.3097(3) 0.56187(19)
N13_2 N 0.4441(4) 0.4397(4) 0.61671(19)
N14_2 N 0.7644(4) 0.4010(4) 0.5306(2)
N16_2 N 0.4752(4) 0.5207(3) 0.58849(19)
N17_2 N 0.7322(4) 0.2602(4) 0.5797(2)
N18_2 N 0.6401(4) 0.3922(3) 0.53290(19)
O5_2 O 0.4097(4) 0.1492(3) 0.53928(19)
O6_2 O 0.2213(5) 0.2825(4) 0.4455(2)
N20_2 N 0.4391(5) 0.4665(4) 0.6725(2)
H10_2 H 0.9924 0.4534 0.5532
C18_2 C 0.4701(5) 0.5643(5) 0.6747(2)
C19_2 C 0.9569(5) 0.3056(4) 0.5683(2)
N21_2 N 0.4931(5) 0.6002(4) 0.6238(2)
H11_2 H 0.9751 0.1544 0.5863
C21_2 C 0.8183(5) 0.3204(4) 0.5595(2)
C22_2 C 0.2883(6) 0.3572(5) 0.4526(2)
H12_2 H 0.2737 0.4064 0.4231
C25_2 C 0.5809(7) 0.7027(5) 0.7412(3)
H15_2 H 0.6276 0.7215 0.7125
C26_2 C 0.4854(6) 0.6230(5) 0.7298(3)
C27_2 C 0.6009(6) 0.7496(6) 0.7945(3)
H16_2 H 0.6637 0.7997 0.8024
C28_2 C 0.4138(7) 0.6072(6) 0.7715(3)
H17_2 H 0.3470 0.5604 0.7649
C29_2 C 0.4391(7) 0.6598(6) 0.8237(3)
H18_2 H 0.3864 0.6474 0.8511
N22_2 N 0.3738(9) 0.0799(7) 0.4475(5)
C30_2 C 0.4190(8) 0.1431(6) 0.4860(4)
C31_2 C 0.2926(12) 0.0049(10) 0.4625(6)
C32_2 C 0.3984(17) 0.0870(11) 0.3848(6)
N23 N 0.7769(4) 0.7080(3) 0.4192(2)
H19_2 H 0.52394 0.797036 0.52921
H20_2 H 0.638399 0.84096 0.634555
H21_2 H 0.649836 0.97552 0.641192
H22_2 H 0.49892 0.917427 0.614826
H25_2 H 0.790507 0.959523 0.524288
H26_2 H 0.209493 0.0404771 0.475712
H29_2 H 0.47606 0.202964 0.47079
H30_2 H 0.50108 0.0825726 0.385174
H31_2 H 0.350164 0.0244797 0.358808
H32_2 H 0.361601 0.15904 0.365445
C1_2 C 0.9689(5) 0.6095(5) 0.4378(3)
C4_2 C 0.9796(6) 0.7867(5) 0.4187(3)
C7_2 C 0.8482(6) 0.7886(5) 0.4135(3)
H4_2 H 0.8069 0.8507 0.4054
C8_2 C 0.8363(5) 0.6190(5) 0.4304(3)
H5_2 H 0.7874 0.5611 0.4333
H23_2 H 0.656287 0.0402173 0.501098
H24_2 H 0.738861 0.0441692 0.575392
H27_2 H 0.261139 0.955831 0.424608
H28_2 H 0.343713 0.959783 0.498902
loop_
_geom_bond_atom_site_label_1
_geom_bond_atom_site_label_2
_geom_bond_site_symmetry_1
_geom_bond_site_symmetry_2
N4 C7 1_555 1_555
C7 C4 1_555 1_555
H4 C7 1_555 1_555
C8 N4 1_555 1_555
H5 C8 1_555 1_555
Co4 N4 1_555 1_555
C1 C8 1_555 1_555
N1 Co4 1_555 1_555
N2 Co4 1_555 1_555
N3 N7 1_555 1_555
N6 N1 1_555 1_555
N7 Co2 1_555 1_555
O2 Co4 1_555 1_555
N9 N2 1_555 1_555
C5 N3 1_555 1_555
N25 Co4 1_555 1_555
N1 N7 1_555 1_555
N6 C5 1_555 1_555
C3 C5 1_555 1_555
Co2_2 O1 1_555 1_555
O1 C6 1_555 1_555
O3 C6 1_555 1_555
C6 H3 1_555 1_555
N11 C14 1_555 1_555
C15 N11 1_555 1_555
C16 N11 1_555 1_555
N16 Co2_2 1_555 1_555
N19 C27 1_555 1_555
N21 N16 1_555 1_555
C25 H15 1_555 1_555
C26 C18 1_555 1_555
C27 C25 1_555 1_555
H16 C27 1_555 1_555
C28 C26 1_555 1_555
H17 C28 1_555 1_555
C29 N19 1_555 1_555
H18 C29 1_555 1_555
Co7 N19 1_555 1_555
C18 N21 1_555 1_555
C25 C26 1_555 1_555
C28 C29 1_555 1_555
C14 H19 1_555 1_555
C16 H20 1_555 1_555
C16 H21 1_555 1_555
C16 H22 1_555 1_555
C15 H23 1_555 1_555
C15 H24 1_555 1_555
C15 H25 1_555 1_555
N5 Co2_3 1_555 1_555
N8 C11 1_555 1_555
N10 N5 1_555 1_555
C9 H6 1_555 1_555
C10 C2 1_555 1_555
C11 C9 1_555 1_555
H7 C11 1_555 1_555
C12 C10 1_555 1_555
H8 C12 1_555 1_555
C13 N8 1_555 1_555
H9 C13 1_555 1_555
O4 Co2_3 1_555 1_555
O6 C22 1_555 1_555
C22 O4 1_555 1_555
H12 C22 1_555 1_555
N22 C30 1_555 1_555
C31 N22 1_555 1_555
C32 N22 1_555 1_555
Co5 N8 1_555 1_555
C2 N10 1_555 1_555
C9 C10 1_555 1_555
C12 C13 1_555 1_555
C31 H26 1_555 1_555
C31 H27 1_555 1_555
C31 H28 1_555 1_555
C30 H29 1_555 1_555
C32 H30 1_555 1_555
C32 H31 1_555 1_555
C32 H32 1_555 1_555
N12 Co3 1_555 1_555
N13 Co3 1_555 1_555
N14 N18 1_555 1_555
N17 N12 1_555 1_555
N18 Co2_4 1_555 1_555
O5 Co3 1_555 1_555
N20 N13 1_555 1_555
C21 N14 1_555 1_555
N24 Co3 1_555 1_555
N26 Co3 1_555 1_555
N12 N18 1_555 1_555
N17 C21 1_555 1_555
C19 C21 1_555 1_555
N24 C23 1_555 1_555
C23 C20 1_555 1_555
H13 C23 1_555 1_555
C24 N24 1_555 1_555
H14 C24 1_555 1_555
C17 C24 1_555 1_555
N15 C23_2 1_555 1_555
C23_2 C20_2 1_555 1_555
H13_2 C23_2 1_555 1_555
C24_2 N15 1_555 1_555
H14_2 C24_2 1_555 1_555
Co7 N15 1_555 1_555
C17_2 C24_2 1_555 1_555
Co5 O1_2 1_555 1_555
Co2_5 O1_2 1_555 1_555
O1_2 C6_2 1_555 1_555
N1_2 Co5 1_555 1_555
N2_2 Co5 1_555 1_555
N3_2 N7_2 1_555 1_555
N5_2 Co2_5 1_555 1_555
N6_2 N1_2 1_555 1_555
N7_2 Co2_5 1_555 1_555
O2_2 Co5 1_555 1_555
O3_2 C6_2 1_555 1_555
N25 C11_2 1_555 1_555
N9_2 N2_2 1_555 1_555
C2_2 N9_2 1_555 1_555
N10_2 N5_2 1_555 1_555
C5_2 N3_2 1_555 1_555
C6_2 H3_2 1_555 1_555
C9_2 H6_2 1_555 1_555
C10_2 C2_2 1_555 1_555
C11_2 C9_2 1_555 1_555
H7_2 C11_2 1_555 1_555
C12_2 C10_2 1_555 1_555
H8_2 C12_2 1_555 1_555
C13_2 N25 1_555 1_555
H9_2 C13_2 1_555 1_555
N11_2 C14_2 1_555 1_555
C14_2 O2_2 1_555 1_555
C15_2 N11_2 1_555 1_555
C16_2 N11_2 1_555 1_555
Co7 O4_2 1_555 1_555
O4_2 Co2_5 1_555 1_555
N12_2 Co7 1_555 1_555
N13_2 Co7 1_555 1_555
N14_2 N18_2 1_555 1_555
N16_2 Co2_5 1_555 1_555
N17_2 N12_2 1_555 1_555
N18_2 Co2_5 1_555 1_555
O5_2 Co7 1_555 1_555
O6_2 C22_2 1_555 1_555
N26 C27_2 1_555 1_555
N20_2 N13_2 1_555 1_555
C18_2 N20_2 1_555 1_555
N21_2 N16_2 1_555 1_555
C21_2 N14_2 1_555 1_555
C22_2 O4_2 1_555 1_555
H12_2 C22_2 1_555 1_555
C25_2 H15_2 1_555 1_555
C26_2 C18_2 1_555 1_555
C27_2 C25_2 1_555 1_555
H16_2 C27_2 1_555 1_555
C28_2 C26_2 1_555 1_555
H17_2 C28_2 1_555 1_555
C29_2 N26 1_555 1_555
H18_2 C29_2 1_555 1_555
N22_2 C30_2 1_555 1_555
C30_2 O5_2 1_555 1_555
C31_2 N22_2 1_555 1_555
C32_2 N22_2 1_555 1_555
N23 Co5 1_555 1_555
N1_2 N7_2 1_555 1_555
N2_2 N5_2 1_555 1_555
N6_2 C5_2 1_555 1_555
C2_2 N10_2 1_555 1_555
C3_2 C5_2 1_555 1_555
C9_2 C10_2 1_555 1_555
C12_2 C13_2 1_555 1_555
N12_2 N18_2 1_555 1_555
N13_2 N16_2 1_555 1_555
N17_2 C21_2 1_555 1_555
C18_2 N21_2 1_555 1_555
C19_2 C21_2 1_555 1_555
C25_2 C26_2 1_555 1_555
C28_2 C29_2 1_555 1_555
C14_2 H19_2 1_555 1_555
C16_2 H20_2 1_555 1_555
C16_2 H21_2 1_555 1_555
C16_2 H22_2 1_555 1_555
C15_2 H25_2 1_555 1_555
C31_2 H26_2 1_555 1_555
C30_2 H29_2 1_555 1_555
C32_2 H30_2 1_555 1_555
C32_2 H31_2 1_555 1_555
C32_2 H32_2 1_555 1_555
N23 C7_2 1_555 1_555
C7_2 C4_2 1_555 1_555
H4_2 C7_2 1_555 1_555
C8_2 N23 1_555 1_555
H5_2 C8_2 1_555 1_555
C1_2 C8_2 1_555 1_555

#END
