
###############################################################################
#
# This file contains modified crystal structure data generated from the
# MOF subset of the Cambridge Structural Database (CSD) v543 
# hosted by the Cambridge Crystallographic Data Centre (CCDC).
#
# This work is licensed under the Creative Commons
# Attribution-NonCommercial-ShareAlike 4.0 International License.
# To view a copy of this license, visit
# http://creativecommons.org/licenses/by-nc-sa/4.0/
# or send a letter to
# Creative Commons, PO Box 1866, Mountain View, CA 94042, USA.
#
# CIF created using the CSD Python API on 29 September 2022
# The structure has been converted into the P1 space group
# The structure has a 3D framework
# The original CSD entry DAWWIJ is in the orthorhombic crystal system
# The framework has been calculated to contain at least 10.0% void space
# The void calculation uses a probe of radius 1.32A, grid spacing 0.4
#
###############################################################################

data_DAWWIJ
_chemical_formula_moiety         '(C64 H64 Mn21 N40 O44)n'
_symmetry_cell_setting           triclinic
_symmetry_space_group_name_H-M   'P 1'
_symmetry_Int_Tables_number      1
_space_group_name_Hall           'P 1'
loop_
_symmetry_equiv_pos_site_id
_symmetry_equiv_pos_as_xyz
1 x,y,z
_cell_length_a                   12.170(2)
_cell_length_b                   13.601(3)
_cell_length_c                   17.400(4)
_cell_angle_alpha                90
_cell_angle_beta                 90
_cell_angle_gamma                90
_cell_volume                     2880.12
loop_
_atom_site_label
_atom_site_type_symbol
_atom_site_fract_x
_atom_site_fract_y
_atom_site_fract_z
Mn1 Mn 0.78734(4) 0.24503(4) 0.78798(3)
Mn2 Mn 0.5000 0.5000 0.5000
N1 N 0.8023(2) 0.5161(2) 0.65376(18)
N2 N 0.9118(3) 0.5062(3) 0.6620(3)
N3 N 0.8241(3) 0.3918(2) 0.7309(2)
N4 N 0.6217(2) 0.6689(2) 0.69643(16)
N5 N 0.5507(2) 0.5812(2) 0.60008(16)
C1 C 0.9208(4) 0.4304(3) 0.7080(3)
H1 H 0.9883 0.4053 0.7236
C2 C 0.7520(3) 0.4477(3) 0.6948(3)
H2 H 0.6762 0.4400 0.6978
C3 C 0.7549(3) 0.5929(3) 0.6051(2)
H3 H 0.8004 0.6514 0.6071
H4 H 0.7518 0.5705 0.5522
C4 C 0.6416(3) 0.6163(2) 0.63307(19)
C5 C 0.5089(3) 0.6697(3) 0.70388(19)
C6 C 0.4644(3) 0.7254(3) 0.7704(2)
C7 C 0.4648(3) 0.6146(2) 0.64388(19)
C8 C 0.3524(3) 0.5807(3) 0.6228(2)
O1 O 0.5337(2) 0.75111(18) 0.82087(15)
O2 O 0.3646(2) 0.74817(19) 0.77376(16)
O3 O 0.3484(2) 0.51527(19) 0.57056(15)
O4 O 0.2678(2) 0.6136(2) 0.65448(16)
O5 O 0.7456(3) 0.3270(2) 0.89365(17)
H5 H 0.7632 0.3869 0.9000
H6 H 0.6863 0.3217 0.9191
O6 O 0.4544(3) 0.6478(2) 0.44598(17)
H7 H 0.4810 0.6759 0.4072
H8 H 0.3871 0.6407 0.4350
Mn3 Mn 0.21266(4) 0.75497(4) 0.21202(3)
Mn4 Mn 0.71266(4) 0.74503(4) 0.78798(3)
Mn5 Mn 0.21266(4) 0.74503(4) 0.71202(3)
Mn6 Mn 0.28734(4) 0.25497(4) 0.21202(3)
Mn7 Mn 0.78734(4) 0.25497(4) 0.28798(3)
N6 N 0.1977(2) 0.4839(2) 0.34624(18)
N7 N 0.0882(3) 0.4938(3) 0.3380(3)
N8 N 0.1759(3) 0.6082(2) 0.2691(2)
N9 N 0.3783(2) 0.3311(2) 0.30357(16)
N10 N 0.8783(2) 0.1689(2) 0.69643(16)
N11 N 0.1217(2) 0.8311(2) 0.30357(16)
N12 N 0.4493(2) 0.4188(2) 0.39992(16)
C9 C 0.0792(4) 0.5696(3) 0.2920(3)
H9 H 0.0117 0.5947 0.2764
C10 C 0.2480(3) 0.5523(3) 0.3052(3)
H10 H 0.3238 0.5600 0.3022
C11 C 0.2451(3) 0.4071(3) 0.3949(2)
H11 H 0.1996 0.3486 0.3929
H12 H 0.2482 0.4295 0.4478
C12 C 0.3584(3) 0.3837(2) 0.36693(19)
C13 C 0.4911(3) 0.3303(3) 0.29612(19)
C14 C 0.5356(3) 0.2746(3) 0.2296(2)
C15 C 0.5352(3) 0.3854(2) 0.35612(19)
C16 C 0.6476(3) 0.4193(3) 0.3772(2)
O7 O 0.4663(2) 0.24889(18) 0.17913(15)
O8 O 0.9663(2) 0.25111(18) 0.82087(15)
O9 O 0.0337(2) 0.74889(18) 0.17913(15)
O10 O 0.6354(2) 0.25183(19) 0.22624(16)
O11 O 0.6354(2) 0.24817(19) 0.72624(16)
O12 O 0.3646(2) 0.75183(19) 0.27376(16)
O13 O 0.6516(2) 0.48473(19) 0.42944(15)
O14 O 0.7322(2) 0.3864(2) 0.34552(16)
O15 O 0.7322(2) 0.1136(2) 0.84552(16)
O16 O 0.2678(2) 0.8864(2) 0.15448(16)
O17 O 0.2544(3) 0.6730(2) 0.10635(17)
H13 H 0.2368 0.6131 0.1000
H14 H 0.3137 0.6783 0.0809
O18 O 0.5456(3) 0.3522(2) 0.55402(17)
H15 H 0.5190 0.3241 0.5928
H16 H 0.6129 0.3593 0.5650
Mn2_2 Mn -0.0000 0.5000 0.0000
C6_2 C 0.0356(3) 0.2746(3) 0.2704(2)
C7_2 C 0.0352(3) 0.3854(2) 0.14388(19)
C8_2 C 0.1476(3) 0.4193(3) 0.1228(2)
O2_2 O 0.1354(2) 0.25183(19) 0.27376(16)
O3_2 O 0.1516(2) 0.48473(19) 0.07056(15)
O4_2 O 0.2322(2) 0.3864(2) 0.15448(16)
Mn2_3 Mn 0.0000 0.5000 1.0000
O6_2 O 0.0456(3) 0.3522(2) 0.94598(17)
H7_2 H 0.0190 0.3241 0.9072
H8_2 H 0.1129 0.3593 0.9350
Mn3_2 Mn 0.28734(4) 0.24503(4) 0.71202(3)
N6_2 N 0.3023(2) 0.5161(2) 0.84624(18)
N7_2 N 0.4118(3) 0.5062(3) 0.8380(3)
N8_2 N 0.3241(3) 0.3918(2) 0.7691(2)
N9_2 N 0.1217(2) 0.6689(2) 0.80357(16)
N11_2 N 0.3783(2) 0.1689(2) 0.80357(16)
N12_2 N 0.0507(2) 0.5812(2) 0.89992(16)
C9_2 C 0.4208(4) 0.4304(3) 0.7920(3)
H9_2 H 0.4883 0.4053 0.7764
C10_2 C 0.2520(3) 0.4477(3) 0.8052(3)
H10_2 H 0.1762 0.4400 0.8022
C11_2 C 0.2549(3) 0.5929(3) 0.8949(2)
H11_2 H 0.3004 0.6514 0.8929
H12_2 H 0.2518 0.5705 0.9478
C12_2 C 0.1416(3) 0.6163(2) 0.86693(19)
C13_2 C 0.0089(3) 0.6697(3) 0.79612(19)
O7_2 O 0.0337(2) 0.75111(18) 0.67913(15)
O9_2 O 0.4663(2) 0.25111(18) 0.67913(15)
O12_2 O 0.1354(2) 0.24817(19) 0.77376(16)
O16_2 O 0.2322(2) 0.1136(2) 0.65448(16)
O17_2 O 0.2456(3) 0.3270(2) 0.60635(17)
H13_2 H 0.2632 0.3869 0.6000
H14_2 H 0.1863 0.3217 0.5809
Mn1_2 Mn 0.71266(4) 0.75497(4) 0.28798(3)
Mn2_4 Mn 1.0000 0.5000 0.0000
N1_2 N 0.6977(2) 0.4839(2) 0.15376(18)
N2_2 N 0.5882(3) 0.4938(3) 0.1620(3)
N3_2 N 0.6759(3) 0.6082(2) 0.2309(2)
N4_2 N 0.8783(2) 0.3311(2) 0.19643(16)
N5_2 N 0.9493(2) 0.4188(2) 0.10008(16)
C1_2 C 0.5792(4) 0.5696(3) 0.2080(3)
H1_2 H 0.5117 0.5947 0.2236
C2_2 C 0.7480(3) 0.5523(3) 0.1948(3)
H2_2 H 0.8238 0.5600 0.1978
C3_2 C 0.7451(3) 0.4071(3) 0.1051(2)
H3_2 H 0.6996 0.3486 0.1071
H4_2 H 0.7482 0.4295 0.0522
C4_2 C 0.8584(3) 0.3837(2) 0.13307(19)
C5_2 C 0.9911(3) 0.3303(3) 0.20388(19)
O1_2 O 0.9663(2) 0.24889(18) 0.32087(15)
O5_2 O 0.7544(3) 0.6730(2) 0.39365(17)
H5_2 H 0.7368 0.6131 0.4000
H6_2 H 0.8137 0.6783 0.4191
N10_2 N 0.6217(2) 0.8311(2) 0.19643(16)
O8_2 O 0.5337(2) 0.74889(18) 0.32087(15)
O11_2 O 0.8646(2) 0.75183(19) 0.22624(16)
O15_2 O 0.7678(2) 0.8864(2) 0.34552(16)
O18_2 O 0.9544(3) 0.6478(2) 0.05402(17)
H15_2 H 0.9810 0.6759 0.0928
H16_2 H 0.8871 0.6407 0.0650
Mn2_5 Mn 1.0000 0.5000 1.0000
C14_2 C 0.9644(3) 0.7254(3) 0.7296(2)
C15_2 C 0.9648(3) 0.6146(2) 0.85612(19)
C16_2 C 0.8524(3) 0.5807(3) 0.8772(2)
O10_2 O 0.8646(2) 0.74817(19) 0.72624(16)
O13_2 O 0.8484(2) 0.51527(19) 0.92944(15)
O14_2 O 0.7678(2) 0.6136(2) 0.84552(16)
Mn2_6 Mn 0.5000 0.0000 -0.0000
O6_3 O 0.5456(3) 0.1478(2) 0.05402(17)
H7_3 H 0.5190 0.1759 0.0928
H8_3 H 0.6129 0.1407 0.0650
N8_3 N 0.8241(3) 0.1082(2) 0.2309(2)
C9_3 C 0.9208(4) 0.0696(3) 0.2080(3)
H9_3 H 0.9883 0.0947 0.2236
C10_3 C 0.7520(3) 0.0523(3) 0.1948(3)
H10_3 H 0.6762 0.0600 0.1978
O17_3 O 0.7456(3) 0.1730(2) 0.39365(17)
H13_3 H 0.7632 0.1131 0.4000
H14_3 H 0.6863 0.1783 0.4191
Mn2_7 Mn 0.5000 0.0000 1.0000
N1_3 N 0.1977(2) 0.0161(2) 0.84624(18)
N2_3 N 0.0882(3) 0.0062(3) 0.8380(3)
N5_3 N 0.4493(2) 0.0812(2) 0.89992(16)
C3_3 C 0.2451(3) 0.0929(3) 0.8949(2)
H3_3 H 0.1996 0.1514 0.8929
H4_3 H 0.2482 0.0705 0.9478
C4_3 C 0.3584(3) 0.1163(2) 0.86693(19)
C5_3 C 0.4911(3) 0.1697(3) 0.79612(19)
C6_3 C 0.5356(3) 0.2254(3) 0.7296(2)
C7_3 C 0.5352(3) 0.1146(2) 0.85612(19)
C8_3 C 0.6476(3) 0.0807(3) 0.8772(2)
O3_3 O 0.6516(2) 0.01527(19) 0.92944(15)
Mn2_8 Mn 0.5000 1.0000 -0.0000
N6_3 N 0.8023(2) 0.9839(2) 0.15376(18)
N7_3 N 0.9118(3) 0.9938(3) 0.1620(3)
N12_3 N 0.5507(2) 0.9188(2) 0.10008(16)
C11_3 C 0.7549(3) 0.9071(3) 0.1051(2)
H11_3 H 0.8004 0.8486 0.1071
H12_3 H 0.7518 0.9295 0.0522
C12_3 C 0.6416(3) 0.8837(2) 0.13307(19)
C13_3 C 0.5089(3) 0.8303(3) 0.20388(19)
C14_3 C 0.4644(3) 0.7746(3) 0.2704(2)
C15_3 C 0.4648(3) 0.8854(2) 0.14388(19)
C16_3 C 0.3524(3) 0.9193(3) 0.1228(2)
O13_3 O 0.3484(2) 0.98473(19) 0.07056(15)
Mn2_9 Mn 0.5000 1.0000 1.0000
N3_3 N 0.1759(3) 0.8918(2) 0.7691(2)
C1_3 C 0.0792(4) 0.9304(3) 0.7920(3)
H1_3 H 0.0117 0.9053 0.7764
C2_3 C 0.2480(3) 0.9477(3) 0.8052(3)
H2_3 H 0.3238 0.9400 0.8022
O5_3 O 0.2544(3) 0.8270(2) 0.60635(17)
H5_3 H 0.2368 0.8869 0.6000
H6_3 H 0.3137 0.8217 0.5809
O18_3 O 0.4544(3) 0.8522(2) 0.94598(17)
H15_3 H 0.4810 0.8241 0.9072
H16_3 H 0.3871 0.8593 0.9350
Mn2_10 Mn 0.0000 -0.0000 0.5000
N3_4 N 0.3241(3) 0.1082(2) 0.2691(2)
C1_4 C 0.4208(4) 0.0696(3) 0.2920(3)
H1_4 H 0.4883 0.0947 0.2764
C2_4 C 0.2520(3) 0.0523(3) 0.3052(3)
H2_4 H 0.1762 0.0600 0.3022
O5_4 O 0.2456(3) 0.1730(2) 0.10635(17)
H5_4 H 0.2632 0.1131 0.1000
H6_4 H 0.1863 0.1783 0.0809
C14_4 C 0.0356(3) 0.2254(3) 0.7704(2)
C15_4 C 0.0352(3) 0.1146(2) 0.64388(19)
C16_4 C 0.1476(3) 0.0807(3) 0.6228(2)
O13_4 O 0.1516(2) 0.01527(19) 0.57056(15)
O18_4 O 0.0456(3) 0.1478(2) 0.44598(17)
H15_4 H 0.0190 0.1759 0.4072
H16_4 H 0.1129 0.1407 0.4350
Mn2_11 Mn -0.0000 1.0000 0.5000
N1_4 N 0.3023(2) 0.9839(2) 0.34624(18)
N2_4 N 0.4118(3) 0.9938(3) 0.3380(3)
N5_4 N 0.0507(2) 0.9188(2) 0.39992(16)
C3_4 C 0.2549(3) 0.9071(3) 0.3949(2)
H3_4 H 0.3004 0.8486 0.3929
H4_4 H 0.2518 0.9295 0.4478
C4_4 C 0.1416(3) 0.8837(2) 0.36693(19)
C5_4 C 0.0089(3) 0.8303(3) 0.29612(19)
Mn2_12 Mn 1.0000 -0.0000 0.5000
N6_4 N 0.6977(2) 0.0161(2) 0.65376(18)
N7_4 N 0.5882(3) 0.0062(3) 0.6620(3)
N12_4 N 0.9493(2) 0.0812(2) 0.60008(16)
C11_4 C 0.7451(3) 0.0929(3) 0.6051(2)
H11_4 H 0.6996 0.1514 0.6071
H12_4 H 0.7482 0.0705 0.5522
C12_4 C 0.8584(3) 0.1163(2) 0.63307(19)
C13_4 C 0.9911(3) 0.1697(3) 0.70388(19)
Mn2_13 Mn 1.0000 1.0000 0.5000
C6_4 C 0.9644(3) 0.7746(3) 0.2296(2)
C7_4 C 0.9648(3) 0.8854(2) 0.35612(19)
C8_4 C 0.8524(3) 0.9193(3) 0.3772(2)
O3_4 O 0.8484(2) 0.98473(19) 0.42944(15)
O6_4 O 0.9544(3) 0.8522(2) 0.55402(17)
H7_4 H 0.9810 0.8241 0.5928
H8_4 H 0.8871 0.8593 0.5650
N8_4 N 0.6759(3) 0.8918(2) 0.7309(2)
C9_4 C 0.5792(4) 0.9304(3) 0.7080(3)
H9_4 H 0.5117 0.9053 0.7236
C10_4 C 0.7480(3) 0.9477(3) 0.6948(3)
H10_4 H 0.8238 0.9400 0.6978
O17_4 O 0.7544(3) 0.8270(2) 0.89365(17)
H13_4 H 0.7368 0.8869 0.9000
H14_4 H 0.8137 0.8217 0.9191
loop_
_geom_bond_atom_site_label_1
_geom_bond_atom_site_label_2
_geom_bond_site_symmetry_1
_geom_bond_site_symmetry_2
Mn1 N3 1_555 1_555
Mn2 N5 1_555 1_555
N1 N2 1_555 1_555
N2 C1 1_555 1_555
N3 C1 1_555 1_555
N4 C4 1_555 1_555
N5 C4 1_555 1_555
C1 H1 1_555 1_555
C2 N1 1_555 1_555
H2 C2 1_555 1_555
C3 N1 1_555 1_555
H3 C3 1_555 1_555
H4 C3 1_555 1_555
C4 C3 1_555 1_555
C5 N4 1_555 1_555
C6 C5 1_555 1_555
C7 N5 1_555 1_555
C8 C7 1_555 1_555
O1 C6 1_555 1_555
O2 C6 1_555 1_555
O3 Mn2 1_555 1_555
O4 C8 1_555 1_555
O5 Mn1 1_555 1_555
H5 O5 1_555 1_555
H6 O5 1_555 1_555
O6 Mn2 1_555 1_555
H7 O6 1_555 1_555
H8 O6 1_555 1_555
Mn3 N8 1_555 1_555
Mn4 N4 1_555 1_555
Mn5 O2 1_555 1_555
Mn6 N9 1_555 1_555
Mn7 O10 1_555 1_555
N6 N7 1_555 1_555
N7 C9 1_555 1_555
N8 C9 1_555 1_555
N9 C12 1_555 1_555
N10 Mn1 1_555 1_555
N11 Mn3 1_555 1_555
N12 Mn2 1_555 1_555
C9 H9 1_555 1_555
C10 N6 1_555 1_555
H10 C10 1_555 1_555
C11 N6 1_555 1_555
H11 C11 1_555 1_555
H12 C11 1_555 1_555
C12 N12 1_555 1_555
C13 N9 1_555 1_555
C14 C13 1_555 1_555
C15 N12 1_555 1_555
C16 C15 1_555 1_555
O7 Mn6 1_555 1_555
O8 Mn1 1_555 1_555
O9 Mn3 1_555 1_555
O10 C14 1_555 1_555
O11 Mn1 1_555 1_555
O12 Mn3 1_555 1_555
O13 Mn2 1_555 1_555
O14 Mn7 1_555 1_555
O15 Mn1 1_555 1_555
O16 Mn3 1_555 1_555
O17 Mn3 1_555 1_555
H13 O17 1_555 1_555
H14 O17 1_555 1_555
O18 Mn2 1_555 1_555
H15 O18 1_555 1_555
H16 O18 1_555 1_555
N3 C2 1_555 1_555
C5 C7 1_555 1_555
C8 O3 1_555 1_555
O1 Mn4 1_555 1_555
O4 Mn5 1_555 1_555
N8 C10 1_555 1_555
C11 C12 1_555 1_555
C13 C15 1_555 1_555
C14 O7 1_555 1_555
C16 O13 1_555 1_555
C16 O14 1_555 1_555
C8_2 C7_2 1_555 1_555
O2_2 C6_2 1_555 1_555
O3_2 Mn2_2 1_555 1_555
O4_2 C8_2 1_555 1_555
Mn6 O2_2 1_555 1_555
C8_2 O3_2 1_555 1_555
O4_2 Mn6 1_555 1_555
O6_2 Mn2_3 1_555 1_555
H7_2 O6_2 1_555 1_555
H8_2 O6_2 1_555 1_555
Mn3_2 N8_2 1_555 1_555
Mn5 N9_2 1_555 1_555
N6_2 N7_2 1_555 1_555
N7_2 C9_2 1_555 1_555
N8_2 C9_2 1_555 1_555
N9_2 C12_2 1_555 1_555
N11_2 Mn3_2 1_555 1_555
N12_2 Mn2_3 1_555 1_555
C9_2 H9_2 1_555 1_555
C10_2 N6_2 1_555 1_555
H10_2 C10_2 1_555 1_555
C11_2 N6_2 1_555 1_555
H11_2 C11_2 1_555 1_555
H12_2 C11_2 1_555 1_555
C12_2 N12_2 1_555 1_555
C13_2 N9_2 1_555 1_555
O7_2 Mn5 1_555 1_555
O9_2 Mn3_2 1_555 1_555
O12_2 Mn3_2 1_555 1_555
O16_2 Mn3_2 1_555 1_555
O17_2 Mn3_2 1_555 1_555
H13_2 O17_2 1_555 1_555
H14_2 O17_2 1_555 1_555
N8_2 C10_2 1_555 1_555
C11_2 C12_2 1_555 1_555
Mn1_2 N3_2 1_555 1_555
Mn2_4 N5_2 1_555 1_555
N1_2 N2_2 1_555 1_555
N2_2 C1_2 1_555 1_555
N3_2 C1_2 1_555 1_555
N4_2 C4_2 1_555 1_555
N5_2 C4_2 1_555 1_555
C1_2 H1_2 1_555 1_555
C2_2 N1_2 1_555 1_555
H2_2 C2_2 1_555 1_555
C3_2 N1_2 1_555 1_555
H3_2 C3_2 1_555 1_555
H4_2 C3_2 1_555 1_555
C4_2 C3_2 1_555 1_555
C5_2 N4_2 1_555 1_555
O5_2 Mn1_2 1_555 1_555
H5_2 O5_2 1_555 1_555
H6_2 O5_2 1_555 1_555
Mn7 N4_2 1_555 1_555
N10_2 Mn1_2 1_555 1_555
O8_2 Mn1_2 1_555 1_555
O11_2 Mn1_2 1_555 1_555
O15_2 Mn1_2 1_555 1_555
O18_2 Mn2_4 1_555 1_555
H15_2 O18_2 1_555 1_555
H16_2 O18_2 1_555 1_555
N3_2 C2_2 1_555 1_555
O1_2 Mn7 1_555 1_555
Mn4 O10_2 1_555 1_555
C16_2 C15_2 1_555 1_555
O10_2 C14_2 1_555 1_555
O13_2 Mn2_5 1_555 1_555
O14_2 Mn4 1_555 1_555
C16_2 O13_2 1_555 1_555
C16_2 O14_2 1_555 1_555
O6_3 Mn2_6 1_555 1_555
H7_3 O6_3 1_555 1_555
H8_3 O6_3 1_555 1_555
Mn7 N8_3 1_555 1_555
N8_3 C9_3 1_555 1_555
C9_3 H9_3 1_555 1_555
H10_3 C10_3 1_555 1_555
O17_3 Mn7 1_555 1_555
H13_3 O17_3 1_555 1_555
H14_3 O17_3 1_555 1_555
N8_3 C10_3 1_555 1_555
Mn2_7 N5_3 1_555 1_555
N1_3 N2_3 1_555 1_555
N11_2 C4_3 1_555 1_555
N5_3 C4_3 1_555 1_555
C3_3 N1_3 1_555 1_555
H3_3 C3_3 1_555 1_555
H4_3 C3_3 1_555 1_555
C4_3 C3_3 1_555 1_555
C5_3 N11_2 1_555 1_555
C6_3 C5_3 1_555 1_555
C7_3 N5_3 1_555 1_555
C8_3 C7_3 1_555 1_555
O9_2 C6_3 1_555 1_555
O11 C6_3 1_555 1_555
O3_3 Mn2_7 1_555 1_555
O15 C8_3 1_555 1_555
C5_3 C7_3 1_555 1_555
C8_3 O3_3 1_555 1_555
N6_3 N7_3 1_555 1_555
N10_2 C12_3 1_555 1_555
N12_3 Mn2_8 1_555 1_555
C11_3 N6_3 1_555 1_555
H11_3 C11_3 1_555 1_555
H12_3 C11_3 1_555 1_555
C12_3 N12_3 1_555 1_555
C13_3 N10_2 1_555 1_555
C14_3 C13_3 1_555 1_555
C15_3 N12_3 1_555 1_555
C16_3 C15_3 1_555 1_555
O12 C14_3 1_555 1_555
O13_3 Mn2_8 1_555 1_555
C11_3 C12_3 1_555 1_555
C13_3 C15_3 1_555 1_555
C14_3 O8_2 1_555 1_555
C16_3 O13_3 1_555 1_555
C16_3 O16 1_555 1_555
Mn5 N3_3 1_555 1_555
N3_3 C1_3 1_555 1_555
C1_3 H1_3 1_555 1_555
H2_3 C2_3 1_555 1_555
O5_3 Mn5 1_555 1_555
H5_3 O5_3 1_555 1_555
H6_3 O5_3 1_555 1_555
O18_3 Mn2_9 1_555 1_555
H15_3 O18_3 1_555 1_555
H16_3 O18_3 1_555 1_555
N3_3 C2_3 1_555 1_555
Mn6 N3_4 1_555 1_555
N3_4 C1_4 1_555 1_555
C1_4 H1_4 1_555 1_555
H2_4 C2_4 1_555 1_555
O5_4 Mn6 1_555 1_555
H5_4 O5_4 1_555 1_555
H6_4 O5_4 1_555 1_555
C16_4 C15_4 1_555 1_555
O12_2 C14_4 1_555 1_555
O13_4 Mn2_10 1_555 1_555
O18_4 Mn2_10 1_555 1_555
H15_4 O18_4 1_555 1_555
H16_4 O18_4 1_555 1_555
N3_4 C2_4 1_555 1_555
C16_4 O13_4 1_555 1_555
C16_4 O16_2 1_555 1_555
Mn2_11 N5_4 1_555 1_555
N1_4 N2_4 1_555 1_555
N11 C4_4 1_555 1_555
N5_4 C4_4 1_555 1_555
C3_4 N1_4 1_555 1_555
H3_4 C3_4 1_555 1_555
H4_4 C3_4 1_555 1_555
C4_4 C3_4 1_555 1_555
C5_4 N11 1_555 1_555
N6_4 N7_4 1_555 1_555
N10 C12_4 1_555 1_555
N12_4 Mn2_12 1_555 1_555
C11_4 N6_4 1_555 1_555
H11_4 C11_4 1_555 1_555
H12_4 C11_4 1_555 1_555
C12_4 N12_4 1_555 1_555
C13_4 N10 1_555 1_555
C11_4 C12_4 1_555 1_555
C8_4 C7_4 1_555 1_555
O11_2 C6_4 1_555 1_555
O3_4 Mn2_13 1_555 1_555
O15_2 C8_4 1_555 1_555
O6_4 Mn2_13 1_555 1_555
H7_4 O6_4 1_555 1_555
H8_4 O6_4 1_555 1_555
Mn4 N8_4 1_555 1_555
N8_4 C9_4 1_555 1_555
C9_4 H9_4 1_555 1_555
H10_4 C10_4 1_555 1_555
O17_4 Mn4 1_555 1_555
H13_4 O17_4 1_555 1_555
H14_4 O17_4 1_555 1_555
C8_4 O3_4 1_555 1_555
N8_4 C10_4 1_555 1_555

#END
