
###############################################################################
#
# This file contains modified crystal structure data generated from the
# MOF subset of the Cambridge Structural Database (CSD) v543 
# hosted by the Cambridge Crystallographic Data Centre (CCDC).
#
# This work is licensed under the Creative Commons
# Attribution-NonCommercial-ShareAlike 4.0 International License.
# To view a copy of this license, visit
# http://creativecommons.org/licenses/by-nc-sa/4.0/
# or send a letter to
# Creative Commons, PO Box 1866, Mountain View, CA 94042, USA.
#
# CIF created using the CSD Python API on 29 September 2022
# The structure has been converted into the P1 space group
# The structure has a 3D framework
# The original CSD entry DAXNIA is in the rhombohedral crystal system
# The framework has been calculated to contain at least 10.0% void space
# The void calculation uses a probe of radius 1.32A, grid spacing 0.4
# The framework is charged, counterions have been retained in the structure
#
###############################################################################

data_DAXNIA
_chemical_formula_moiety         '(C22 H22 O32 Zn9 3-)n'
_symmetry_cell_setting           triclinic
_symmetry_space_group_name_H-M   'P 1'
_symmetry_Int_Tables_number      1
_space_group_name_Hall           'P 1'
loop_
_symmetry_equiv_pos_site_id
_symmetry_equiv_pos_as_xyz
1 x,y,z
_cell_length_a                   8.18180(10)
_cell_length_b                   8.18180(10)
_cell_length_c                   22.1235(7)
_cell_angle_alpha                90
_cell_angle_beta                 90
_cell_angle_gamma                120
_cell_volume                     1282.57
loop_
_atom_site_label
_atom_site_type_symbol
_atom_site_fract_x
_atom_site_fract_y
_atom_site_fract_z
Zn1 Zn 0.0000 -0.0000 0.0000
O7 O 0.21784(11) 0.01078(11) 0.05373(3)
Zn1_2 Zn 0.0000 -0.0000 1.0000
Zn4 Zn 0.6667 0.3333 0.8333
O5 O 0.20706(16) 0.21784(11) 0.94627(3)
O6 O 0.45961(16) 0.34411(11) 0.88706(3)
C3 C 0.3333(3) 0.2106(2) 0.9167
H3 H 0.3334 0.0970 0.9167
Zn1_3 Zn 0.0000 1.0000 0.0000
Zn1_4 Zn 0.0000 1.0000 1.0000
O3 O 0.01078(11) 0.79294(16) 0.94627(3)
Zn1_5 Zn 1.0000 -0.0000 0.0000
O8 O 0.98922(11) 0.20706(16) 0.05373(3)
Zn1_6 Zn 1.0000 -0.0000 1.0000
C1 C 0.7894(2) 0.1227(2) 0.9167
H1 H 0.9030 0.2364 0.9167
O2 O 0.65589(11) 0.11549(11) 0.88706(3)
Zn1_7 Zn 1.0000 1.0000 0.0000
O9 O 0.79294(16) 0.78216(11) 0.05373(3)
Zn1_8 Zn 1.0000 1.0000 1.0000
O1 O 0.78216(11) 0.98922(11) 0.94627(3)
O4 O 0.88451(11) 0.54039(16) 0.88706(3)
C2 C 0.8773(2) 0.6667(3) 0.9167
H2 H 0.7636 0.6666 0.9167
Zn1_9 Zn -0.0000 0.0000 0.5000
Zn4_2 Zn 0.3333 0.6667 0.6667
O5_2 O 0.21784(11) 0.20706(16) 0.55373(3)
O6_2 O 0.34411(11) 0.45961(16) 0.61294(3)
O7_2 O 0.01078(11) 0.21784(11) 0.44627(3)
C3_2 C 0.2106(2) 0.3333(3) 0.5833
H3_2 H 0.0970 0.3334 0.5833
Zn1_10 Zn 0.0000 1.0000 0.5000
C1_2 C 0.1227(2) 0.7894(2) 0.5833
H1_2 H 0.2364 0.9030 0.5833
O2_2 O 0.11549(11) 0.65589(11) 0.61294(3)
O8_2 O 0.20706(16) 0.98922(11) 0.44627(3)
Zn1_11 Zn 1.0000 0.0000 0.5000
O3_2 O 0.79294(16) 0.01078(11) 0.55373(3)
Zn1_12 Zn 1.0000 1.0000 0.5000
O1_2 O 0.98922(11) 0.78216(11) 0.55373(3)
O4_2 O 0.54039(16) 0.88451(11) 0.61294(3)
O9_2 O 0.78216(11) 0.79294(16) 0.44627(3)
C2_2 C 0.6667(3) 0.8773(2) 0.5833
H2_2 H 0.6666 0.7636 0.5833
Zn4_3 Zn 0.3333 0.6667 0.1667
O6_3 O 0.12627(16) 0.67745(11) 0.22040(3)
C3_3 C -0.0000(3) 0.5439(2) 0.2500
H3_3 H 0.0001 0.4303 0.2500
Zn1_13 Zn 0.6667 0.3333 0.3333
O1_3 O 0.44883(11) 0.32255(11) 0.27960(3)
C1_3 C 0.4561(2) 0.4560(2) 0.2500
H1_3 H 0.5697 0.5697 0.2500
O2_3 O 0.32255(11) 0.44883(11) 0.22040(3)
O3_3 O 0.67745(11) 0.12627(16) 0.27960(3)
O5_3 O 0.87373(16) 0.55117(11) 0.27960(3)
O7_3 O 0.88451(11) 0.34411(11) 0.38706(3)
O8_3 O 0.65589(11) 0.54039(16) 0.38706(3)
O9_3 O 0.45961(16) 0.11549(11) 0.38706(3)
C2_3 C 0.5440(2) 0.0000(3) 0.2500
C3_4 C 1.0000(3) 0.5439(2) 0.2500
H2_3 H 0.4303 -0.0001 0.2500
H3_4 H 1.0001 0.4303 0.2500
O4_3 O 0.55117(11) 0.87373(16) 0.22040(3)
C2_4 C 0.5440(2) 1.0000(3) 0.2500
H2_4 H 0.4303 0.9999 0.2500
O7_4 O 0.67745(11) 0.55117(11) 0.77960(3)
O8_4 O 0.87373(16) 0.32255(11) 0.77960(3)
O9_4 O 0.44883(11) 0.12627(16) 0.77960(3)
O7_5 O 0.55117(11) 0.67745(11) 0.72040(3)
O8_5 O 0.32255(11) 0.87373(16) 0.72040(3)
O9_5 O 0.12627(16) 0.44883(11) 0.72040(3)
O7_6 O 0.34411(11) 0.88451(11) 0.11294(3)
O8_6 O 0.54039(16) 0.65589(11) 0.11294(3)
O9_6 O 0.11549(11) 0.45961(16) 0.11294(3)
C2_5 C 0.1227(2) 0.3333(3) 0.0833
H2_5 H 0.2364 0.3334 0.0833
C1_4 C 0.2106(2) 0.8773(2) 0.0833
H1_4 H 0.0970 0.7636 0.0833
C3_5 C 0.6667(3) 0.7894(2) 0.0833
H3_5 H 0.6666 0.9030 0.0833
C2_6 C 0.3333(3) 0.1227(2) 0.4167
H2_6 H 0.3334 0.2364 0.4167
C1_5 C 0.8773(2) 0.2106(2) 0.4167
H1_5 H 0.7636 0.0970 0.4167
C3_6 C 0.7894(2) 0.6667(3) 0.4167
H3_6 H 0.9030 0.6666 0.4167
C2_7 C 0.4560(2) -0.0000(3) 0.7500
H2_7 H 0.5697 0.0001 0.7500
C1_6 C 0.5439(2) 0.5440(2) 0.7500
H1_6 H 0.4303 0.4303 0.7500
C2_8 C 0.4560(2) 1.0000(3) 0.7500
C3_7 C 0.0000(3) 0.4561(2) 0.7500
H2_8 H 0.5697 1.0001 0.7500
H3_7 H -0.0001 0.5697 0.7500
C3_8 C 1.0000(3) 0.4561(2) 0.7500
H3_8 H 0.9999 0.5697 0.7500
loop_
_geom_bond_atom_site_label_1
_geom_bond_atom_site_label_2
_geom_bond_site_symmetry_1
_geom_bond_site_symmetry_2
O7 Zn1 1_555 1_555
Zn4 O6 1_555 1_555
O5 Zn1_2 1_555 1_555
O6 C3 1_555 1_555
C3 O5 1_555 1_555
H3 C3 1_555 1_555
O3 Zn1_4 1_555 1_555
O8 Zn1_5 1_555 1_555
C1 H1 1_555 1_555
Zn4 O2 1_555 1_555
O2 C1 1_555 1_555
O9 Zn1_7 1_555 1_555
Zn1_8 O1 1_555 1_555
Zn4 O4 1_555 1_555
O4 C2 1_555 1_555
H2 C2 1_555 1_555
Zn4_2 O6_2 1_555 1_555
O5_2 Zn1_9 1_555 1_555
O6_2 C3_2 1_555 1_555
O7_2 Zn1_9 1_555 1_555
C3_2 O5_2 1_555 1_555
H3_2 C3_2 1_555 1_555
C1_2 H1_2 1_555 1_555
Zn4_2 O2_2 1_555 1_555
O2_2 C1_2 1_555 1_555
O8_2 Zn1_10 1_555 1_555
O3_2 Zn1_11 1_555 1_555
Zn1_12 O1_2 1_555 1_555
Zn4_2 O4_2 1_555 1_555
O4_2 C2_2 1_555 1_555
O9_2 Zn1_12 1_555 1_555
H2_2 C2_2 1_555 1_555
Zn4_3 O6_3 1_555 1_555
O6_3 C3_3 1_555 1_555
H3_3 C3_3 1_555 1_555
Zn1_13 O1_3 1_555 1_555
O1_3 C1_3 1_555 1_555
C1_3 H1_3 1_555 1_555
Zn4_3 O2_3 1_555 1_555
O2_3 C1_3 1_555 1_555
O3_3 Zn1_13 1_555 1_555
O5_3 Zn1_13 1_555 1_555
O7_3 Zn1_13 1_555 1_555
O8_3 Zn1_13 1_555 1_555
O9_3 Zn1_13 1_555 1_555
C2_3 O3_3 1_555 1_555
C3_4 O5_3 1_555 1_555
H2_3 C2_3 1_555 1_555
H3_4 C3_4 1_555 1_555
Zn4_3 O4_3 1_555 1_555
O4_3 C2_4 1_555 1_555
H2_4 C2_4 1_555 1_555
O7_4 Zn4 1_555 1_555
O8_4 Zn4 1_555 1_555
O9_4 Zn4 1_555 1_555
O7_5 Zn4_2 1_555 1_555
O8_5 Zn4_2 1_555 1_555
O9_5 Zn4_2 1_555 1_555
O7_6 Zn4_3 1_555 1_555
O8_6 Zn4_3 1_555 1_555
O9_6 Zn4_3 1_555 1_555
O9_6 C2_5 1_555 1_555
H2_5 C2_5 1_555 1_555
C1_4 H1_4 1_555 1_555
O7_6 C1_4 1_555 1_555
O8_6 C3_5 1_555 1_555
C3_5 O9 1_555 1_555
H3_5 C3_5 1_555 1_555
O9_3 C2_6 1_555 1_555
H2_6 C2_6 1_555 1_555
C1_5 H1_5 1_555 1_555
O7_3 C1_5 1_555 1_555
O8_3 C3_6 1_555 1_555
C3_6 O9_2 1_555 1_555
H3_6 C3_6 1_555 1_555
O9_4 C2_7 1_555 1_555
H2_7 C2_7 1_555 1_555
O7_5 C1_6 1_555 1_555
C1_6 H1_6 1_555 1_555
O7_4 C1_6 1_555 1_555
C2_8 O8_5 1_555 1_555
C3_7 O9_5 1_555 1_555
H2_8 C2_8 1_555 1_555
H3_7 C3_7 1_555 1_555
O8_4 C3_8 1_555 1_555
H3_8 C3_8 1_555 1_555

#END
