
###############################################################################
#
# This file contains modified crystal structure data generated from the
# MOF subset of the Cambridge Structural Database (CSD) v543 
# hosted by the Cambridge Crystallographic Data Centre (CCDC).
#
# This work is licensed under the Creative Commons
# Attribution-NonCommercial-ShareAlike 4.0 International License.
# To view a copy of this license, visit
# http://creativecommons.org/licenses/by-nc-sa/4.0/
# or send a letter to
# Creative Commons, PO Box 1866, Mountain View, CA 94042, USA.
#
# CIF created using the CSD Python API on 29 September 2022
# The structure has been converted into the P1 space group
# The structure has a 3D framework
# The original CSD entry DAXQUS is in the rhombohedral crystal system
# The framework has been calculated to contain at least 10.0% void space
# The void calculation uses a probe of radius 1.32A, grid spacing 0.4
# The framework is charged, counterions have been retained in the structure
#
###############################################################################

data_DAXQUS
_chemical_formula_moiety         '(C58 H58 Mn34 O96 22-)n'
_symmetry_cell_setting           triclinic
_symmetry_space_group_name_H-M   'P 1'
_symmetry_Int_Tables_number      1
_space_group_name_Hall           'P 1'
loop_
_symmetry_equiv_pos_site_id
_symmetry_equiv_pos_as_xyz
1 x,y,z
_cell_length_a                   8.5557(5)
_cell_length_b                   8.5557(5)
_cell_length_c                   63.715(4)
_cell_angle_alpha                90
_cell_angle_beta                 90
_cell_angle_gamma                120
_cell_volume                     4039.09
loop_
_atom_site_label
_atom_site_type_symbol
_atom_site_fract_x
_atom_site_fract_y
_atom_site_fract_z
Mn3 Mn 0.333333 0.666667 0.27770(2)
O14 O 0.1340(3) 0.4620(3) 0.29858(3)
O19 O 0.1264(3) 0.6797(3) 0.25910(3)
O20 O 0.3203(3) 0.4468(4) 0.25910(3)
O21 O 0.5532(4) 0.8736(3) 0.25910(3)
O24 O 0.5380(3) 0.6721(4) 0.29858(3)
O25 O 0.3279(4) 0.8660(3) 0.29858(3)
Mn1 Mn 0.666667 0.333333 0.333333
Mn2 Mn -0.000000 0.000000 0.38897(2)
O2 O 0.4579(3) 0.3452(3) 0.35133(3)
O3 O 0.1993(3) 0.2047(3) 0.36809(3)
C1 C 0.3442(4) 0.2253(4) 0.36257(4)
H1 H 0.372743 0.140121 0.367430
C2 C 0.333333 0.1135(5) 0.416667
H2 H 0.333341 0.222229 0.416665
O4 O 0.4598(3) 0.1134(4) 0.42576(3)
O5 O 0.0130(3) 0.2199(4) 0.40757(3)
O13 O 0.8754(3) 0.3215(3) 0.31534(3)
C7 C 0.9891(4) 0.4414(4) 0.30410(4)
H7 H 0.960590 0.526546 0.299237
O15 O 0.6785(3) 0.5540(4) 0.31534(3)
C8 C 0.5586(4) 0.5478(6) 0.30410(4)
H8 H 0.473454 0.434045 0.299237
O17 O 0.4460(4) 0.1246(3) 0.31534(3)
C9 C 0.4522(6) 0.0109(4) 0.30410(4)
H9 H 0.565955 0.039410 0.299237
Mn8 Mn 0.666667 0.333333 0.44436(2)
O22 O 0.6548(3) 0.1127(4) 0.35133(3)
O23 O 0.8873(4) 0.5421(3) 0.35133(3)
Mn2_2 Mn 0.000000 1.000000 0.38897(2)
O1 O 0.2069(3) 0.9870(3) 0.40757(3)
O11 O 0.0054(4) 0.8007(3) 0.36809(3)
Mn2_3 Mn 1.000000 0.000000 0.38897(2)
C3 C 0.7747(4) 0.1189(6) 0.36257(4)
H3 H 0.859879 0.232622 0.367430
C4 C 0.8865(5) 0.21983(50) 0.416667
H4 H 0.777771 0.111112 0.416665
O8 O 0.8866(4) 0.3463(3) 0.42576(3)
Mn2_4 Mn 1.000000 1.000000 0.38897(2)
O7 O 0.7953(3) 0.9946(4) 0.36809(3)
O9 O 0.7801(4) 0.7931(3) 0.40757(3)
C5 C 0.8811(6) 0.6558(4) 0.36257(4)
H5 H 0.767378 0.627257 0.367430
C6 C 0.78017(50) 0.666667 0.416667
H6 H 0.888888 0.666659 0.416665
O12 O 0.6537(3) 0.5402(3) 0.42576(3)
Mn3_2 Mn 0.666667 0.333333 0.22230(2)
O14_2 O 0.4620(3) 0.1340(3) 0.20142(3)
O19_2 O 0.6797(3) 0.1264(3) 0.24090(3)
O20_2 O 0.4468(4) 0.3203(3) 0.24090(3)
O21_2 O 0.8736(3) 0.5532(4) 0.24090(3)
O24_2 O 0.6721(4) 0.5380(3) 0.20142(3)
O25_2 O 0.8660(3) 0.3279(4) 0.20142(3)
Mn1_2 Mn 0.333333 0.666667 0.166667
Mn2_5 Mn -0.000000 -0.000000 0.11103(2)
O2_2 O 0.3452(3) 0.4579(3) 0.14867(3)
O3_2 O 0.2047(3) 0.1993(3) 0.13191(3)
C1_2 C 0.2253(4) 0.3442(4) 0.13743(4)
H1_2 H 0.140121 0.372743 0.132570
C2_2 C 0.1135(5) 0.333333 0.083333
H2_2 H 0.222229 0.333341 0.083335
O4_2 O 0.1134(4) 0.4598(3) 0.07424(3)
O5_2 O 0.2199(4) 0.0130(3) 0.09243(3)
O13_2 O 0.3215(3) 0.8754(3) 0.18466(3)
C7_2 C 0.4414(4) 0.9891(4) 0.19590(4)
H7_2 H 0.526546 0.960590 0.200763
O15_2 O 0.5540(4) 0.6785(3) 0.18466(3)
C8_2 C 0.5478(6) 0.5586(4) 0.19590(4)
H8_2 H 0.434045 0.473454 0.200763
O17_2 O 0.1246(3) 0.4460(4) 0.18466(3)
C9_2 C 0.0109(4) 0.4522(6) 0.19590(4)
H9_2 H 0.039410 0.565955 0.200763
Mn8_2 Mn 0.333333 0.666667 0.05564(2)
O22_2 O 0.1127(4) 0.6548(3) 0.14867(3)
O23_2 O 0.5421(3) 0.8873(4) 0.14867(3)
Mn2_6 Mn -0.000000 1.000000 0.11103(2)
C3_2 C 0.1189(6) 0.7747(4) 0.13743(4)
H3_2 H 0.232622 0.859879 0.132570
C4_2 C 0.21983(50) 0.8865(5) 0.083333
H4_2 H 0.111112 0.777771 0.083335
O8_2 O 0.3463(3) 0.8866(4) 0.07424(3)
Mn2_7 Mn 1.000000 -0.000000 0.11103(2)
O1_2 O 0.9870(3) 0.2069(3) 0.09243(3)
O11_2 O 0.8007(3) 0.0054(4) 0.13191(3)
Mn2_8 Mn 1.000000 1.000000 0.11103(2)
O7_2 O 0.9946(4) 0.7953(3) 0.13191(3)
O9_2 O 0.7931(3) 0.7801(4) 0.09243(3)
C5_2 C 0.6558(4) 0.8811(6) 0.13743(4)
H5_2 H 0.627257 0.767378 0.132570
C6_2 C 0.666667 0.78017(50) 0.083333
H6_2 H 0.666659 0.888888 0.083335
O12_2 O 0.5402(3) 0.6537(3) 0.07424(3)
Mn3_3 Mn 0.000000 0.000000 0.61103(2)
O21_3 O 0.2199(4) 0.2069(3) 0.59243(3)
O24_3 O 0.2047(3) 0.0054(4) 0.63191(3)
Mn3_4 Mn 0.000000 1.000000 0.61103(2)
Mn3_5 Mn 1.000000 0.000000 0.61103(2)
O19_3 O 0.7931(3) 0.0130(3) 0.59243(3)
O25_3 O 0.9946(4) 0.1993(3) 0.63191(3)
Mn1_3 Mn 0.333334 0.666666 0.666666
O2_3 O 0.1246(3) 0.6785(3) 0.68466(3)
C1_3 C 0.0109(4) 0.5586(4) 0.69590(4)
H1_3 H 0.039410 0.473454 0.700763
C2_3 C -0.000000 0.4468(5) 0.750000
H2_3 H 0.000008 0.555562 0.749998
O4_3 O 0.1264(3) 0.4468(4) 0.75910(3)
Mn3_6 Mn 1.000000 1.000000 0.61103(2)
O13_3 O 0.5421(3) 0.6548(3) 0.64867(3)
O14_3 O 0.8007(3) 0.7953(3) 0.63191(3)
C7_3 C 0.6558(4) 0.7747(4) 0.63743(4)
H7_3 H 0.627257 0.859879 0.632570
O15_3 O 0.3452(3) 0.8873(4) 0.64867(3)
C8_3 C 0.2253(4) 0.8811(6) 0.63743(4)
H8_3 H 0.140121 0.767378 0.632570
O17_3 O 0.1127(4) 0.4579(3) 0.64867(3)
C9_3 C 0.1189(6) 0.3442(4) 0.63743(4)
H9_3 H 0.232622 0.372743 0.632570
Mn8_3 Mn 0.333333 0.666667 0.77770(2)
O20_3 O 0.9870(3) 0.7801(4) 0.59243(3)
O22_3 O 0.3215(3) 0.4460(4) 0.68466(3)
O23_3 O 0.5540(4) 0.8754(3) 0.68466(3)
Mn2_9 Mn 0.666667 0.333333 0.72230(2)
O1_3 O 0.8736(3) 0.3203(3) 0.74090(3)
O3_3 O 0.8660(3) 0.5380(3) 0.70142(3)
C2_4 C 1.000000 0.4468(5) 0.750000
H2_4 H 1.000008 0.555562 0.749998
O5_3 O 0.6797(3) 0.5532(4) 0.74090(3)
O7_3 O 0.4620(3) 0.3279(4) 0.70142(3)
C3_3 C 0.4414(4) 0.4522(6) 0.69590(4)
H3_3 H 0.526546 0.565955 0.700763
C4_3 C 0.5532(5) 0.55317(50) 0.750000
H4_3 H 0.444438 0.444445 0.749998
O8_3 O 0.5532(4) 0.6797(3) 0.75910(3)
O9_3 O 0.4468(4) 0.1264(3) 0.74090(3)
O11_3 O 0.6721(4) 0.1340(3) 0.70142(3)
C6_3 C 0.44683(50) 0.000000 0.750000
H6_3 H 0.555555 -0.000008 0.749998
C5_3 C 0.5478(6) 0.9891(4) 0.69590(4)
H5_3 H 0.434045 0.960590 0.700763
C6_4 C 0.44683(50) 1.000000 0.750000
H6_4 H 0.555555 0.999992 0.749998
O12_3 O 0.3203(3) 0.8736(3) 0.75910(3)
Mn1_4 Mn -0.000000 0.000000 0.500000
Mn3_7 Mn 0.333333 0.666667 0.55564(2)
O14_4 O 0.1286(3) 0.4674(3) 0.53476(3)
C7_4 C 0.1080(4) 0.3225(4) 0.52924(4)
H7_4 H 0.193212 0.293924 0.534097
O15_4 O 0.2206(4) 0.0119(3) 0.51800(3)
O19_4 O 0.3463(3) 0.4598(3) 0.57424(3)
O20_4 O 0.1134(4) 0.6537(3) 0.57424(3)
O21_4 O 0.5402(3) 0.8866(4) 0.57424(3)
O23_4 O 0.2088(3) 0.2206(4) 0.48200(3)
O24_4 O 0.3387(4) 0.8714(3) 0.53476(3)
O25_4 O 0.5326(3) 0.6613(4) 0.53476(3)
Mn1_5 Mn -0.000000 1.000000 0.500000
O2_4 O 0.0119(3) 0.7912(3) 0.48200(3)
C8_4 C 0.2144(6) 0.8920(4) 0.52924(4)
H8_4 H 0.100711 0.806788 0.534097
Mn1_6 Mn 1.000000 0.000000 0.500000
O13_4 O 0.9881(3) 0.2088(3) 0.51800(3)
Mn1_7 Mn 1.000000 1.000000 0.500000
O3_4 O 0.8714(3) 0.5326(3) 0.46524(3)
C1_4 C 0.8920(4) 0.6775(4) 0.47076(4)
H1_4 H 0.806788 0.706076 0.465903
O7_4 O 0.6613(4) 0.1286(3) 0.46524(3)
C3_4 C 0.7856(6) 0.1080(4) 0.47076(4)
H3_4 H 0.899289 0.193212 0.465903
O11_4 O 0.4674(3) 0.3387(4) 0.46524(3)
C5_4 C 0.3225(4) 0.2144(6) 0.47076(4)
H5_4 H 0.293924 0.100711 0.465903
O17_4 O 0.7912(3) 0.7794(4) 0.51800(3)
C9_4 C 0.6775(4) 0.7856(6) 0.52924(4)
H9_4 H 0.706076 0.899289 0.534097
O22_4 O 0.7794(4) 0.9881(3) 0.48200(3)
Mn1_8 Mn 0.000000 -0.000000 -0.000000
O23_5 O 0.2206(4) 0.2088(3) 0.01800(3)
Mn1_9 Mn 0.000000 -0.000000 1.000000
Mn3_8 Mn 0.666667 0.333333 0.94436(2)
O14_5 O 0.4674(3) 0.1286(3) 0.96524(3)
C7_5 C 0.3225(4) 0.1080(4) 0.97076(4)
H7_5 H 0.293924 0.193212 0.965903
O15_5 O 0.0119(3) 0.2206(4) 0.98200(3)
O19_5 O 0.4598(3) 0.3463(3) 0.92576(3)
O20_5 O 0.6537(3) 0.1134(4) 0.92576(3)
O21_5 O 0.8866(4) 0.5402(3) 0.92576(3)
O24_5 O 0.8714(3) 0.3387(4) 0.96524(3)
O25_5 O 0.6613(4) 0.5326(3) 0.96524(3)
Mn1_10 Mn 0.000000 1.000000 -0.000000
Mn1_11 Mn 0.000000 1.000000 1.000000
O13_5 O 0.2088(3) 0.9881(3) 0.98200(3)
Mn1_12 Mn 1.000000 -0.000000 -0.000000
O2_5 O 0.7912(3) 0.0119(3) 0.01800(3)
Mn1_13 Mn 1.000000 -0.000000 1.000000
C8_5 C 0.8920(4) 0.2144(6) 0.97076(4)
H8_5 H 0.806788 0.100711 0.965903
Mn1_14 Mn 1.000000 1.000000 -0.000000
O3_5 O 0.5326(3) 0.8714(3) 0.03476(3)
C1_5 C 0.6775(4) 0.8920(4) 0.02924(4)
H1_5 H 0.706076 0.806788 0.034097
O7_5 O 0.1286(3) 0.6613(4) 0.03476(3)
C3_5 C 0.1080(4) 0.7856(6) 0.02924(4)
H3_5 H 0.193212 0.899289 0.034097
O11_5 O 0.3387(4) 0.4674(3) 0.03476(3)
C5_5 C 0.2144(6) 0.3225(4) 0.02924(4)
H5_5 H 0.100711 0.293924 0.034097
O22_5 O 0.9881(3) 0.7794(4) 0.01800(3)
Mn1_15 Mn 1.000000 1.000000 1.000000
O17_5 O 0.7794(4) 0.7912(3) 0.98200(3)
C9_5 C 0.7856(6) 0.6775(4) 0.97076(4)
H9_5 H 0.899289 0.706076 0.965903
Mn3_9 Mn -0.000000 0.000000 0.88897(2)
O21_6 O 0.2069(3) 0.2199(4) 0.90757(3)
O24_6 O 0.0054(4) 0.2047(3) 0.86809(3)
Mn3_10 Mn 0.000000 1.000000 0.88897(2)
O19_6 O 0.0130(3) 0.7931(3) 0.90757(3)
O25_6 O 0.1993(3) 0.9946(4) 0.86809(3)
Mn3_11 Mn 1.000000 0.000000 0.88897(2)
Mn1_16 Mn 0.666666 0.333334 0.833334
O2_6 O 0.6785(3) 0.1246(3) 0.81534(3)
C1_6 C 0.5586(4) 0.0109(4) 0.80410(4)
H1_6 H 0.473454 0.039410 0.799237
Mn3_12 Mn 1.000000 1.000000 0.88897(2)
O13_6 O 0.6548(3) 0.5421(3) 0.85133(3)
O14_6 O 0.7953(3) 0.8007(3) 0.86809(3)
C7_6 C 0.7747(4) 0.6558(4) 0.86257(4)
H7_6 H 0.859879 0.627257 0.867430
O15_6 O 0.8873(4) 0.3452(3) 0.85133(3)
C8_6 C 0.8811(6) 0.2253(4) 0.86257(4)
H8_6 H 0.767378 0.140121 0.867430
O17_6 O 0.4579(3) 0.1127(4) 0.85133(3)
C9_6 C 0.3442(4) 0.1189(6) 0.86257(4)
H9_6 H 0.372743 0.232622 0.867430
O20_6 O 0.7801(4) 0.9870(3) 0.90757(3)
O22_6 O 0.4460(4) 0.3215(3) 0.81534(3)
O23_6 O 0.8754(3) 0.5540(4) 0.81534(3)
O3_6 O 0.5380(3) 0.8660(3) 0.79858(3)
O7_6 O 0.3279(4) 0.4620(3) 0.79858(3)
C3_6 C 0.4522(6) 0.4414(4) 0.80410(4)
H3_6 H 0.565955 0.526546 0.799237
O11_6 O 0.1340(3) 0.6721(4) 0.79858(3)
C5_6 C 0.9891(4) 0.5478(6) 0.80410(4)
H5_6 H 0.960590 0.434045 0.799237
C6_5 C 0.21983(50) 0.333333 0.583333
H6_5 H 0.111112 0.333341 0.583335
C4_4 C 0.1135(5) 0.78017(50) 0.583333
H4_4 H 0.222229 0.888888 0.583335
C2_5 C 0.666667 0.8865(5) 0.583333
H2_5 H 0.666659 0.777771 0.583335
C6_6 C 0.333333 0.21983(50) 0.916667
H6_6 H 0.333341 0.111112 0.916665
C4_5 C 0.78017(50) 0.1135(5) 0.916667
H4_5 H 0.888888 0.222229 0.916665
C2_6 C 0.8865(5) 0.666667 0.916667
H2_6 H 0.777771 0.666659 0.916665
C6_7 C 0.55317(50) -0.000000 0.250000
H6_7 H 0.444445 0.000008 0.250002
C2_7 C 0.000000 0.5532(5) 0.250000
H2_7 H -0.000008 0.444438 0.250002
C4_6 C 0.4468(5) 0.44683(50) 0.250000
H4_6 H 0.555562 0.555555 0.250002
C6_8 C 0.55317(50) 1.000000 0.250000
H6_8 H 0.444445 1.000008 0.250002
C2_8 C 1.000000 0.5532(5) 0.250000
H2_8 H 0.999992 0.444438 0.250002
loop_
_geom_bond_atom_site_label_1
_geom_bond_atom_site_label_2
_geom_bond_site_symmetry_1
_geom_bond_site_symmetry_2
Mn3 O14 1_555 1_555
O19 Mn3 1_555 1_555
O20 Mn3 1_555 1_555
O21 Mn3 1_555 1_555
O24 Mn3 1_555 1_555
O25 Mn3 1_555 1_555
Mn1 O2 1_555 1_555
O2 C1 1_555 1_555
O3 Mn2 1_555 1_555
C1 O3 1_555 1_555
H1 C1 1_555 1_555
C2 H2 1_555 1_555
O4 C2 1_555 1_555
O5 Mn2 1_555 1_555
O13 Mn1 1_555 1_555
C7 O13 1_555 1_555
H7 C7 1_555 1_555
O15 Mn1 1_555 1_555
O24 C8 1_555 1_555
C8 O15 1_555 1_555
H8 C8 1_555 1_555
O17 Mn1 1_555 1_555
C9 O17 1_555 1_555
H9 C9 1_555 1_555
Mn8 O4 1_555 1_555
O22 Mn1 1_555 1_555
O23 Mn1 1_555 1_555
Mn2_2 O1 1_555 1_555
O11 Mn2_2 1_555 1_555
O22 C3 1_555 1_555
H3 C3 1_555 1_555
H4 C4 1_555 1_555
O8 C4 1_555 1_555
Mn8 O8 1_555 1_555
O7 Mn2_4 1_555 1_555
O9 Mn2_4 1_555 1_555
O23 C5 1_555 1_555
H5 C5 1_555 1_555
C6 O9 1_555 1_555
H6 C6 1_555 1_555
O12 C6 1_555 1_555
Mn8 O12 1_555 1_555
Mn3_2 O14_2 1_555 1_555
O19_2 Mn3_2 1_555 1_555
O20_2 Mn3_2 1_555 1_555
O21_2 Mn3_2 1_555 1_555
O24_2 Mn3_2 1_555 1_555
O25_2 Mn3_2 1_555 1_555
Mn1_2 O2_2 1_555 1_555
O2_2 C1_2 1_555 1_555
O3_2 Mn2_5 1_555 1_555
C1_2 O3_2 1_555 1_555
H1_2 C1_2 1_555 1_555
C2_2 H2_2 1_555 1_555
O4_2 C2_2 1_555 1_555
O5_2 Mn2_5 1_555 1_555
O13_2 Mn1_2 1_555 1_555
C7_2 O13_2 1_555 1_555
H7_2 C7_2 1_555 1_555
O15_2 Mn1_2 1_555 1_555
O24_2 C8_2 1_555 1_555
C8_2 O15_2 1_555 1_555
H8_2 C8_2 1_555 1_555
O17_2 Mn1_2 1_555 1_555
C9_2 O17_2 1_555 1_555
H9_2 C9_2 1_555 1_555
Mn8_2 O4_2 1_555 1_555
O22_2 Mn1_2 1_555 1_555
O23_2 Mn1_2 1_555 1_555
O22_2 C3_2 1_555 1_555
H3_2 C3_2 1_555 1_555
H4_2 C4_2 1_555 1_555
O8_2 C4_2 1_555 1_555
Mn8_2 O8_2 1_555 1_555
Mn2_7 O1_2 1_555 1_555
O11_2 Mn2_7 1_555 1_555
O7_2 Mn2_8 1_555 1_555
O9_2 Mn2_8 1_555 1_555
O23_2 C5_2 1_555 1_555
H5_2 C5_2 1_555 1_555
C6_2 O9_2 1_555 1_555
H6_2 C6_2 1_555 1_555
O12_2 C6_2 1_555 1_555
Mn8_2 O12_2 1_555 1_555
O21_3 Mn3_3 1_555 1_555
O24_3 Mn3_3 1_555 1_555
O19_3 Mn3_5 1_555 1_555
O25_3 Mn3_5 1_555 1_555
Mn1_3 O2_3 1_555 1_555
O2_3 C1_3 1_555 1_555
H1_3 C1_3 1_555 1_555
C2_3 H2_3 1_555 1_555
O4_3 C2_3 1_555 1_555
Mn3_6 O14_3 1_555 1_555
O13_3 Mn1_3 1_555 1_555
O14_3 C7_3 1_555 1_555
C7_3 O13_3 1_555 1_555
H7_3 C7_3 1_555 1_555
O15_3 Mn1_3 1_555 1_555
C8_3 O15_3 1_555 1_555
H8_3 C8_3 1_555 1_555
O17_3 Mn1_3 1_555 1_555
C9_3 O17_3 1_555 1_555
H9_3 C9_3 1_555 1_555
Mn8_3 O4_3 1_555 1_555
O20_3 Mn3_6 1_555 1_555
O22_3 Mn1_3 1_555 1_555
O23_3 Mn1_3 1_555 1_555
Mn2_9 O1_3 1_555 1_555
O1_3 C2_4 1_555 1_555
O3_3 Mn2_9 1_555 1_555
C2_4 H2_4 1_555 1_555
O5_3 Mn2_9 1_555 1_555
O22_3 C3_3 1_555 1_555
O7_3 Mn2_9 1_555 1_555
C3_3 O7_3 1_555 1_555
H3_3 C3_3 1_555 1_555
C4_3 O5_3 1_555 1_555
H4_3 C4_3 1_555 1_555
O8_3 C4_3 1_555 1_555
O9_3 Mn2_9 1_555 1_555
O11_3 Mn2_9 1_555 1_555
C6_3 O9_3 1_555 1_555
H6_3 C6_3 1_555 1_555
Mn8_3 O8_3 1_555 1_555
O23_3 C5_3 1_555 1_555
H5_3 C5_3 1_555 1_555
H6_4 C6_4 1_555 1_555
O12_3 C6_4 1_555 1_555
Mn8_3 O12_3 1_555 1_555
Mn3_7 O14_4 1_555 1_555
O14_4 C7_4 1_555 1_555
H7_4 C7_4 1_555 1_555
O15_4 Mn1_4 1_555 1_555
O19_4 Mn3_7 1_555 1_555
O20_4 Mn3_7 1_555 1_555
O21_4 Mn3_7 1_555 1_555
O23_4 Mn1_4 1_555 1_555
O24_4 Mn3_7 1_555 1_555
O25_4 Mn3_7 1_555 1_555
Mn1_5 O2_4 1_555 1_555
O24_4 C8_4 1_555 1_555
H8_4 C8_4 1_555 1_555
O13_4 Mn1_6 1_555 1_555
O3_4 Mn8 1_555 1_555
C1_4 O3_4 1_555 1_555
H1_4 C1_4 1_555 1_555
O7_4 Mn8 1_555 1_555
C3_4 O7_4 1_555 1_555
H3_4 C3_4 1_555 1_555
O23_4 C5_4 1_555 1_555
O11_4 Mn8 1_555 1_555
C5_4 O11_4 1_555 1_555
H5_4 C5_4 1_555 1_555
O17_4 Mn1_7 1_555 1_555
O25_4 C9_4 1_555 1_555
C9_4 O17_4 1_555 1_555
H9_4 C9_4 1_555 1_555
O22_4 Mn1_7 1_555 1_555
O23_5 Mn1_8 1_555 1_555
Mn3_8 O14_5 1_555 1_555
O14_5 C7_5 1_555 1_555
H7_5 C7_5 1_555 1_555
O15_5 Mn1_9 1_555 1_555
O19_5 Mn3_8 1_555 1_555
O20_5 Mn3_8 1_555 1_555
O21_5 Mn3_8 1_555 1_555
O24_5 Mn3_8 1_555 1_555
O25_5 Mn3_8 1_555 1_555
O13_5 Mn1_11 1_555 1_555
Mn1_12 O2_5 1_555 1_555
O24_5 C8_5 1_555 1_555
H8_5 C8_5 1_555 1_555
O3_5 Mn8_2 1_555 1_555
C1_5 O3_5 1_555 1_555
H1_5 C1_5 1_555 1_555
O7_5 Mn8_2 1_555 1_555
C3_5 O7_5 1_555 1_555
H3_5 C3_5 1_555 1_555
O23_5 C5_5 1_555 1_555
O11_5 Mn8_2 1_555 1_555
C5_5 O11_5 1_555 1_555
H5_5 C5_5 1_555 1_555
O22_5 Mn1_14 1_555 1_555
O17_5 Mn1_15 1_555 1_555
O25_5 C9_5 1_555 1_555
C9_5 O17_5 1_555 1_555
H9_5 C9_5 1_555 1_555
O21_6 Mn3_9 1_555 1_555
O24_6 Mn3_9 1_555 1_555
O19_6 Mn3_10 1_555 1_555
O25_6 Mn3_10 1_555 1_555
Mn1_16 O2_6 1_555 1_555
O2_6 C1_6 1_555 1_555
H1_6 C1_6 1_555 1_555
Mn3_12 O14_6 1_555 1_555
O13_6 Mn1_16 1_555 1_555
O14_6 C7_6 1_555 1_555
C7_6 O13_6 1_555 1_555
H7_6 C7_6 1_555 1_555
O15_6 Mn1_16 1_555 1_555
C8_6 O15_6 1_555 1_555
H8_6 C8_6 1_555 1_555
O17_6 Mn1_16 1_555 1_555
C9_6 O17_6 1_555 1_555
H9_6 C9_6 1_555 1_555
O20_6 Mn3_12 1_555 1_555
O22_6 Mn1_16 1_555 1_555
O23_6 Mn1_16 1_555 1_555
O3_6 Mn8_3 1_555 1_555
O22_6 C3_6 1_555 1_555
O7_6 Mn8_3 1_555 1_555
C3_6 O7_6 1_555 1_555
H3_6 C3_6 1_555 1_555
O11_6 Mn8_3 1_555 1_555
O23_6 C5_6 1_555 1_555
H5_6 C5_6 1_555 1_555
C6_5 O21_3 1_555 1_555
H6_5 C6_5 1_555 1_555
O19_4 C6_5 1_555 1_555
H4_4 C4_4 1_555 1_555
O20_4 C4_4 1_555 1_555
C2_5 H2_5 1_555 1_555
O21_4 C2_5 1_555 1_555
C6_6 O21_6 1_555 1_555
H6_6 C6_6 1_555 1_555
O19_5 C6_6 1_555 1_555
H4_5 C4_5 1_555 1_555
O20_5 C4_5 1_555 1_555
C2_6 H2_6 1_555 1_555
O21_5 C2_6 1_555 1_555
H6_7 C6_7 1_555 1_555
O19_2 C6_7 1_555 1_555
O19 C2_7 1_555 1_555
C2_7 H2_7 1_555 1_555
C4_6 O20 1_555 1_555
H4_6 C4_6 1_555 1_555
O20_2 C4_6 1_555 1_555
C6_8 O21 1_555 1_555
H6_8 C6_8 1_555 1_555
C2_8 H2_8 1_555 1_555
O21_2 C2_8 1_555 1_555

#END
