
###############################################################################
#
# This file contains modified crystal structure data generated from the
# MOF subset of the Cambridge Structural Database (CSD) v543 
# hosted by the Cambridge Crystallographic Data Centre (CCDC).
#
# This work is licensed under the Creative Commons
# Attribution-NonCommercial-ShareAlike 4.0 International License.
# To view a copy of this license, visit
# http://creativecommons.org/licenses/by-nc-sa/4.0/
# or send a letter to
# Creative Commons, PO Box 1866, Mountain View, CA 94042, USA.
#
# CIF created using the CSD Python API on 29 September 2022
# The structure has been converted into the P1 space group
# The structure has a 3D framework
# The original CSD entry DAYKEV is in the monoclinic crystal system
# The framework has been calculated to contain at least 10.0% void space
# The void calculation uses a probe of radius 1.32A, grid spacing 0.4
#
###############################################################################

data_DAYKEV
_chemical_formula_moiety         '(C52 H32 N8 Nd4 O27)n'
_symmetry_cell_setting           triclinic
_symmetry_space_group_name_H-M   'P 1'
_symmetry_Int_Tables_number      1
_space_group_name_Hall           'P 1'
loop_
_symmetry_equiv_pos_site_id
_symmetry_equiv_pos_as_xyz
1 x,y,z
_cell_length_a                   9.2521(5)
_cell_length_b                   13.8933(8)
_cell_length_c                   11.8460(9)
_cell_angle_alpha                90
_cell_angle_beta                 90.801(7)
_cell_angle_gamma                90
_cell_volume                     1522.56
loop_
_atom_site_label
_atom_site_type_symbol
_atom_site_fract_x
_atom_site_fract_y
_atom_site_fract_z
Nd1 Nd 0.27404(2) 0.133420(16) 0.048795(19)
O1 O 0.4151(4) 0.0296(3) 0.1716(3)
O5 O 0.0542(4) 0.2424(3) 0.0483(4)
O6 O 0.0974(4) 0.0219(3) 0.1244(3)
H7 H 0.0336 0.2921 0.0871
H8 H 0.1263 0.2424 0.0050
O12 O 0.2369(4) 0.1901(2) 0.2400(3)
N4 N 0.4568(5) 0.2683(3) 0.1221(4)
Nd5 Nd 0.27404(2) 0.366580(16) 0.548795(19)
O9 O 0.4017(4) 0.0423(3) 0.9141(3)
O10 O 0.3090(4) 0.2389(2) 0.8971(3)
O11 O 0.2369(4) 0.3099(2) 0.7400(3)
O17 O 0.0933(4) 0.0730(3) 0.9060(3)
N3 N 0.4568(5) 0.2317(3) 0.6221(4)
N6 N 0.5751(5) 0.0966(3) 0.6512(4)
H9 H 0.6328 0.0492 0.6399
C13 C 0.6883(6) 0.2773(4) 0.4484(5)
H10 H 0.6644 0.3297 0.4934
C14 C 0.7722(7) 0.2910(5) 0.3542(6)
H11 H 0.8066 0.3521 0.3371
C15 C 0.8054(7) 0.2133(6) 0.2846(6)
H12 H 0.8614 0.2218 0.2208
C16 C 0.7530(9) 0.1231(5) 0.3128(6)
H13 H 0.7726 0.0706 0.2668
C17 C 0.6721(8) 0.1107(5) 0.4083(6)
H14 H 0.6390 0.0495 0.4268
C18 C 0.6397(6) 0.1868(4) 0.4765(5)
C19 C 0.5556(6) 0.1724(4) 0.5811(4)
C20 C 0.4906(5) 0.0353(3) 0.8361(4)
C21 C 0.4884(5) 0.1073(4) 0.7429(4)
C22 C 0.4147(5) 0.1920(3) 0.7244(4)
C23 C 0.3116(5) 0.2495(3) 0.7919(4)
C24 C 0.0001(5) 0.0134(3) 0.9367(4)
O2 O 0.5983(4) 0.9577(3) 0.0859(3)
O3 O 0.6910(4) 0.7611(2) 0.1029(3)
O4 O 0.7631(4) 0.6901(2) 0.2600(3)
N1 N 0.5432(5) 0.7683(3) 0.3779(4)
N2 N 0.4249(5) 0.9034(3) 0.3488(4)
H1 H 0.3672 0.9508 0.3601
C1 C 0.3117(6) 0.7227(4) 0.5516(5)
H2 H 0.3356 0.6703 0.5066
C2 C 0.2278(7) 0.7090(5) 0.6458(6)
H3 H 0.1934 0.6479 0.6629
C3 C 0.1946(7) 0.7867(6) 0.7154(6)
H4 H 0.1386 0.7782 0.7792
C4 C 0.2470(9) 0.8769(5) 0.6872(6)
H5 H 0.2274 0.9294 0.7332
C5 C 0.3279(8) 0.8893(5) 0.5917(6)
H6 H 0.3610 0.9505 0.5732
C6 C 0.3603(6) 0.8132(4) 0.5235(5)
C7 C 0.4444(6) 0.8276(4) 0.4189(4)
C8 C 0.5094(5) 0.9647(3) 0.1639(4)
C9 C 0.5116(5) 0.8927(4) 0.2571(4)
C10 C 0.5853(5) 0.8080(3) 0.2756(4)
C11 C 0.6884(5) 0.7505(3) 0.2081(4)
C12 C -0.0001(5) 0.9866(3) 0.0633(4)
Nd3 Nd 0.72596(2) 0.633420(16) 0.451205(19)
O18 O 0.9067(4) 0.9270(3) 0.0940(3)
Nd2 Nd 0.72596(2) 0.866580(16) 0.951205(19)
O8 O 0.5849(4) 0.9704(3) 0.8284(3)
O13 O 0.7631(4) 0.8099(2) 0.7600(3)
O14 O 0.9458(4) 0.7576(3) 0.9517(4)
O16 O 0.9026(4) 0.9781(3) 0.8756(3)
N5 N 0.5432(5) 0.7317(3) 0.8779(4)
H15 H 0.9664 0.7079 0.9129
H16 H 0.8737 0.7576 0.9950
C24_2 C 1.0001(5) 0.0134(3) 0.9367(4)
C12_2 C 0.9999(5) 0.9866(3) 0.0633(4)
O7 O 0.0933(4) 0.4270(3) 0.4060(3)
C12_3 C 0.0001(5) 0.4866(3) 0.4367(4)
O15 O 0.0974(4) 0.4781(3) 0.6244(3)
C24_3 C -0.0001(5) 0.5134(3) 0.5633(4)
O1_2 O 0.5849(4) 0.5296(3) 0.3284(3)
O2_2 O 0.4017(4) 0.4577(3) 0.4141(3)
O3_2 O 0.3090(4) 0.2611(2) 0.3971(3)
O5_2 O 0.9458(4) 0.7424(3) 0.4517(4)
O6_2 O 0.9026(4) 0.5219(3) 0.3756(3)
N2_2 N 0.5751(5) 0.4034(3) 0.1512(4)
H1_2 H 0.6328 0.4508 0.1399
C7_2 C 0.5556(6) 0.3276(4) 0.0811(4)
C8_2 C 0.4906(5) 0.4647(3) 0.3361(4)
C9_2 C 0.4884(5) 0.3927(4) 0.2429(4)
C10_2 C 0.4147(5) 0.3080(3) 0.2244(4)
C11_2 C 0.3116(5) 0.2505(3) 0.2919(4)
C12_4 C 1.0001(5) 0.4866(3) 0.4367(4)
H7_2 H 0.9664 0.7921 0.4129
H8_2 H 0.8737 0.7424 0.4950
O8_2 O 0.4151(4) 0.4704(3) 0.6716(3)
O9_2 O 0.5983(4) 0.5423(3) 0.5859(3)
O10_2 O 0.6910(4) 0.7389(2) 0.6029(3)
O14_2 O 0.0542(4) 0.2576(3) 0.5483(4)
O17_2 O 0.9067(4) 0.5730(3) 0.5940(3)
N6_2 N 0.4249(5) 0.5966(3) 0.8488(4)
H9_2 H 0.3672 0.5492 0.8601
C19_2 C 0.4444(6) 0.6724(4) 0.9189(4)
C20_2 C 0.5094(5) 0.5353(3) 0.6639(4)
C21_2 C 0.5116(5) 0.6073(4) 0.7571(4)
C22_2 C 0.5853(5) 0.6920(3) 0.7756(4)
C23_2 C 0.6884(5) 0.7495(3) 0.7081(4)
C24_4 C 0.9999(5) 0.5134(3) 0.5633(4)
H15_2 H 0.0336 0.2079 0.5871
H16_2 H 0.1263 0.2576 0.5050
C13_2 C 0.3117(6) 0.7773(4) 0.0516(5)
H10_2 H 0.3356 0.8297 0.0066
C14_2 C 0.2278(7) 0.7910(5) 0.1458(6)
H11_2 H 0.1934 0.8521 0.1629
C15_2 C 0.1946(7) 0.7133(6) 0.2154(6)
H12_2 H 0.1386 0.7218 0.2792
C16_2 C 0.2470(9) 0.6231(5) 0.1872(6)
H13_2 H 0.2274 0.5706 0.2332
C17_2 C 0.3279(8) 0.6107(5) 0.0917(6)
H14_2 H 0.3610 0.5495 0.0732
C18_2 C 0.3603(6) 0.6868(4) 0.0235(5)
C1_2 C 0.6883(6) 0.2227(4) 0.9484(5)
H2_2 H 0.6644 0.1703 0.9934
C2_2 C 0.7722(7) 0.2090(5) 0.8542(6)
H3_2 H 0.8066 0.1479 0.8371
C3_2 C 0.8054(7) 0.2867(6) 0.7846(6)
H4_2 H 0.8614 0.2782 0.7208
C4_2 C 0.7530(9) 0.3769(5) 0.8128(6)
H5_2 H 0.7726 0.4294 0.7668
C5_2 C 0.6721(8) 0.3893(5) 0.9083(6)
H6_2 H 0.6390 0.4505 0.9268
C6_2 C 0.6397(6) 0.3132(4) 0.9765(5)
loop_
_geom_bond_atom_site_label_1
_geom_bond_atom_site_label_2
_geom_bond_site_symmetry_1
_geom_bond_site_symmetry_2
Nd1 O1 1_555 1_555
O5 Nd1 1_555 1_555
O6 Nd1 1_555 1_555
H7 O5 1_555 1_555
H8 O5 1_555 1_555
O12 Nd1 1_555 1_555
N4 Nd1 1_555 1_555
Nd5 O11 1_555 1_555
O11 C23 1_555 1_555
N3 Nd5 1_555 1_555
N6 H9 1_555 1_555
C13 H10 1_555 1_555
C14 C13 1_555 1_555
H11 C14 1_555 1_555
C15 C14 1_555 1_555
H12 C15 1_555 1_555
C16 C15 1_555 1_555
H13 C16 1_555 1_555
C17 C16 1_555 1_555
H14 C17 1_555 1_555
C18 C13 1_555 1_555
C19 N3 1_555 1_555
C21 N6 1_555 1_555
C22 N3 1_555 1_555
C23 O10 1_555 1_555
O9 C20 1_555 1_555
O17 C24 1_555 1_555
N6 C19 1_555 1_555
C17 C18 1_555 1_555
C18 C19 1_555 1_555
C20 C21 1_555 1_555
C21 C22 1_555 1_555
C22 C23 1_555 1_555
O2 C8 1_555 1_555
O3 C11 1_555 1_555
O4 C11 1_555 1_555
N1 C7 1_555 1_555
N2 H1 1_555 1_555
C1 H2 1_555 1_555
C2 C1 1_555 1_555
H3 C2 1_555 1_555
C3 C2 1_555 1_555
H4 C3 1_555 1_555
C4 C3 1_555 1_555
H5 C4 1_555 1_555
C5 C4 1_555 1_555
H6 C5 1_555 1_555
C6 C1 1_555 1_555
C7 N2 1_555 1_555
C8 C9 1_555 1_555
C9 N2 1_555 1_555
C10 N1 1_555 1_555
C11 C10 1_555 1_555
Nd3 O4 1_555 1_555
N1 Nd3 1_555 1_555
C5 C6 1_555 1_555
C6 C7 1_555 1_555
C9 C10 1_555 1_555
O8 Nd2 1_555 1_555
O13 Nd2 1_555 1_555
O14 Nd2 1_555 1_555
O16 Nd2 1_555 1_555
N5 Nd2 1_555 1_555
H15 O14 1_555 1_555
H16 O14 1_555 1_555
O18 C12_2 1_555 1_555
O7 C12_3 1_555 1_555
Nd5 O7 1_555 1_555
O15 Nd5 1_555 1_555
C24_3 C12_3 1_555 1_555
O15 C24_3 1_555 1_555
Nd3 O1_2 1_555 1_555
O1_2 C8_2 1_555 1_555
O2_2 C8_2 1_555 1_555
O3_2 C11_2 1_555 1_555
O12 C11_2 1_555 1_555
O5_2 Nd3 1_555 1_555
O6_2 Nd3 1_555 1_555
N4 C7_2 1_555 1_555
N2_2 H1_2 1_555 1_555
C7_2 N2_2 1_555 1_555
C8_2 C9_2 1_555 1_555
C9_2 N2_2 1_555 1_555
C10_2 N4 1_555 1_555
C11_2 C10_2 1_555 1_555
C12_4 O6_2 1_555 1_555
H7_2 O5_2 1_555 1_555
H8_2 O5_2 1_555 1_555
Nd5 O2_2 1_555 1_555
O8_2 Nd5 1_555 1_555
O9_2 Nd3 1_555 1_555
O10_2 Nd3 1_555 1_555
O13 C23_2 1_555 1_555
O14_2 Nd5 1_555 1_555
O17_2 Nd3 1_555 1_555
N6_2 H9_2 1_555 1_555
C19_2 N5 1_555 1_555
C20_2 O8_2 1_555 1_555
C21_2 N6_2 1_555 1_555
C22_2 N5 1_555 1_555
C23_2 O10_2 1_555 1_555
C24_4 C12_4 1_555 1_555
H15_2 O14_2 1_555 1_555
H16_2 O14_2 1_555 1_555
O3_2 Nd5 1_555 1_555
C9_2 C10_2 1_555 1_555
O9_2 C20_2 1_555 1_555
O17_2 C24_4 1_555 1_555
N6_2 C19_2 1_555 1_555
C20_2 C21_2 1_555 1_555
C21_2 C22_2 1_555 1_555
C22_2 C23_2 1_555 1_555
C13_2 H10_2 1_555 1_555
C14_2 C13_2 1_555 1_555
H11_2 C14_2 1_555 1_555
C15_2 C14_2 1_555 1_555
H12_2 C15_2 1_555 1_555
C16_2 C15_2 1_555 1_555
H13_2 C16_2 1_555 1_555
C17_2 C16_2 1_555 1_555
H14_2 C17_2 1_555 1_555
C18_2 C13_2 1_555 1_555
C17_2 C18_2 1_555 1_555
C1_2 H2_2 1_555 1_555
C2_2 C1_2 1_555 1_555
H3_2 C2_2 1_555 1_555
C3_2 C2_2 1_555 1_555
H4_2 C3_2 1_555 1_555
C4_2 C3_2 1_555 1_555
H5_2 C4_2 1_555 1_555
C5_2 C4_2 1_555 1_555
H6_2 C5_2 1_555 1_555
C6_2 C1_2 1_555 1_555
C5_2 C6_2 1_555 1_555

#END
