
###############################################################################
#
# This file contains modified crystal structure data generated from the
# MOF subset of the Cambridge Structural Database (CSD) v543 
# hosted by the Cambridge Crystallographic Data Centre (CCDC).
#
# This work is licensed under the Creative Commons
# Attribution-NonCommercial-ShareAlike 4.0 International License.
# To view a copy of this license, visit
# http://creativecommons.org/licenses/by-nc-sa/4.0/
# or send a letter to
# Creative Commons, PO Box 1866, Mountain View, CA 94042, USA.
#
# CIF created using the CSD Python API on 29 September 2022
# The structure has been converted into the P1 space group
# The structure has a 3D framework
# The original CSD entry DAYKOF01 is in the monoclinic crystal system
# The framework has been calculated to contain at least 10.0% void space
# The void calculation uses a probe of radius 1.32A, grid spacing 0.4
#
###############################################################################

data_DAYKOF01
_chemical_formula_moiety         '(C48 H32 N8 O26 Tb4)n'
_symmetry_cell_setting           triclinic
_symmetry_space_group_name_H-M   'P 1'
_symmetry_Int_Tables_number      1
_space_group_name_Hall           'P 1'
loop_
_symmetry_equiv_pos_site_id
_symmetry_equiv_pos_as_xyz
1 x,y,z
_cell_length_a                   9.1212(12)
_cell_length_b                   13.8186(18)
_cell_length_c                   11.5993(15)
_cell_angle_alpha                90
_cell_angle_beta                 91.298(2)
_cell_angle_gamma                90
_cell_volume                     1461.63
loop_
_atom_site_label
_atom_site_type_symbol
_atom_site_fract_x
_atom_site_fract_y
_atom_site_fract_z
C12 C 0.0025(10) 0.4853(6) 0.5644(8)
H8 H 0.005(14) 0.260(9) 0.506(9)
O7 O 0.1011(7) 0.5209(5) 0.6264(6)
O8 O 0.0963(7) 0.5720(5) 0.4040(6)
Tb4 Tb 0.27254(4) 0.63134(3) 0.55019(3)
Tb1 Tb 0.72746(4) 0.36866(3) 0.44981(3)
O1 O 0.7631(7) 0.1848(4) 0.7583(5)
N1 N 0.4279(9) 0.4015(6) 0.8508(7)
N2 N 0.5480(8) 0.2647(5) 0.8786(6)
C1 C 0.6929(9) 0.2482(6) 0.7051(7)
C2 C 0.4489(10) 0.3249(6) 0.9215(8)
C3 C 0.5883(10) 0.3050(6) 0.7749(7)
O2 O 0.7020(7) 0.2623(4) 0.5995(5)
C4 C 0.5151(10) 0.3904(6) 0.7565(8)
C5 C 0.5095(10) 0.4635(6) 0.6614(8)
O3 O 0.5992(8) 0.4560(5) 0.5822(6)
O4 O 0.4164(8) 0.5281(5) 0.6714(6)
O5 O 0.9037(7) 0.4280(5) 0.5960(6)
O6 O 0.9451(8) 0.2650(5) 0.4489(6)
H6 H 0.362(13) 0.445(8) 0.860(13)
H7 H 0.948(16) 0.213(6) 0.410(10)
C13 C 0.9975(10) 0.5147(6) 0.4356(8)
O9 O 0.8989(7) 0.4791(5) 0.3736(6)
O10 O 0.2369(7) 0.8152(4) 0.2417(5)
N3 N 0.5721(9) 0.5985(6) 0.1492(7)
N4 N 0.4520(8) 0.7353(5) 0.1214(6)
C14 C 0.3071(9) 0.7518(6) 0.2949(7)
C15 C 0.5511(10) 0.6751(6) 0.0785(8)
C16 C 0.4117(10) 0.6950(6) 0.2251(7)
O11 O 0.2980(7) 0.7377(4) 0.4005(5)
C17 C 0.4849(10) 0.6096(6) 0.2435(8)
C18 C 0.4905(10) 0.5365(6) 0.3386(8)
O12 O 0.4008(8) 0.5440(5) 0.4178(6)
O13 O 0.5836(8) 0.4719(5) 0.3286(6)
O14 O 0.0549(8) 0.7350(5) 0.5511(6)
H14 H 0.638(13) 0.555(8) 0.140(13)
H15 H 0.052(16) 0.787(6) 0.590(10)
Tb3 Tb 0.27254(4) 0.86866(3) 0.05019(3)
Tb5 Tb 0.72746(4) 0.13134(3) 0.94981(3)
O15 O 0.2369(7) 0.6848(4) 0.7417(5)
O16 O 0.7631(7) 0.3152(4) 0.2583(5)
N5 N 0.4520(8) 0.7647(5) 0.6214(6)
N6 N 0.5480(8) 0.2353(5) 0.3786(6)
H16 H 0.995(14) 0.740(9) 0.494(9)
H16_2 H 0.005(14) 0.240(9) 0.006(9)
C13_2 C 0.0025(10) 0.0147(6) 0.0644(8)
N3_2 N 0.4279(9) 0.0985(6) 0.3508(7)
C14_2 C 0.6929(9) 0.2518(6) 0.2051(7)
C15_2 C 0.4489(10) 0.1751(6) 0.4215(8)
C16_2 C 0.5883(10) 0.1950(6) 0.2749(7)
O11_2 O 0.7020(7) 0.2377(4) 0.0995(5)
C17_2 C 0.5151(10) 0.1096(6) 0.2565(8)
C18_2 C 0.5095(10) 0.0365(6) 0.1614(8)
C19 C 0.3646(11) 0.1889(7) 0.5273(8)
C20 C 0.2503(15) 0.1233(8) 0.6942(11)
H9 H 0.2310 0.0709 0.7420
C21 C 0.3104(12) 0.2800(7) 0.5541(9)
H10 H 0.3312 0.3329 0.5077
C22 C 0.3348(13) 0.1106(8) 0.5982(10)
H11 H 0.3718 0.0497 0.5810
O12_2 O 0.5992(8) 0.0440(5) 0.0822(6)
C23 C 0.1945(13) 0.2129(9) 0.7196(10)
H12 H 0.1359 0.2208 0.7835
C24 C 0.2252(12) 0.2913(8) 0.6505(10)
H13 H 0.1885 0.3520 0.6687
H14_2 H 0.362(13) 0.055(8) 0.360(13)
O17 O 0.9037(7) 0.0720(5) 0.0960(6)
O4_2 O 0.5836(8) 0.0281(5) 0.8286(6)
O14_2 O 0.9451(8) 0.2350(5) 0.9489(6)
H15_2 H 0.948(16) 0.287(6) 0.910(10)
O18 O 0.8989(7) 0.0209(5) 0.8736(6)
O6_2 O 0.0549(8) 0.7650(5) 0.0511(6)
H7_2 H 0.052(16) 0.713(6) 0.090(10)
O9_2 O 0.1011(7) 0.9791(5) 0.1264(6)
O13_2 O 0.4164(8) 0.9719(5) 0.1714(6)
N1_2 N 0.5721(9) 0.9015(6) 0.6492(7)
C1_2 C 0.3071(9) 0.7482(6) 0.7949(7)
C2_2 C 0.5511(10) 0.8249(6) 0.5785(8)
C3_2 C 0.4117(10) 0.8050(6) 0.7251(7)
O2_2 O 0.2980(7) 0.7623(4) 0.9005(5)
C4_2 C 0.4849(10) 0.8904(6) 0.7435(8)
C5_2 C 0.4905(10) 0.9635(6) 0.8386(8)
C6 C 0.6354(11) 0.8111(7) 0.4727(8)
C7 C 0.7497(15) 0.8767(8) 0.3058(11)
H1 H 0.7690 0.9291 0.2580
C8 C 0.6896(12) 0.7200(7) 0.4459(9)
H2 H 0.6688 0.6671 0.4923
C9 C 0.6652(13) 0.8894(8) 0.4018(10)
H3 H 0.6282 0.9503 0.4190
O3_2 O 0.4008(8) 0.9560(5) 0.9178(6)
C10 C 0.8055(13) 0.7871(9) 0.2804(10)
H4 H 0.8641 0.7792 0.2165
C11 C 0.7748(12) 0.7087(8) 0.3495(10)
H5 H 0.8115 0.6480 0.3313
O5_2 O 0.0963(7) 0.9280(5) 0.9040(6)
H6_2 H 0.638(13) 0.945(8) 0.640(13)
C12_2 C 0.9975(10) 0.9853(6) 0.9356(8)
H8_2 H 0.995(14) 0.760(9) 0.994(9)
C6_2 C 0.3646(11) 0.3111(7) 0.0273(8)
C7_2 C 0.2503(15) 0.3767(8) 0.1942(11)
H1_2 H 0.2310 0.4291 0.2420
C8_2 C 0.3104(12) 0.2200(7) 0.0541(9)
H2_2 H 0.3312 0.1671 0.0077
C9_2 C 0.3348(13) 0.3894(8) 0.0982(10)
H3_2 H 0.3718 0.4503 0.0810
C10_2 C 0.1945(13) 0.2871(9) 0.2196(10)
H4_2 H 0.1359 0.2792 0.2835
C11_2 C 0.2252(12) 0.2087(8) 0.1505(10)
H5_2 H 0.1885 0.1480 0.1687
C19_2 C 0.6354(11) 0.6889(7) 0.9727(8)
C20_2 C 0.7497(15) 0.6233(8) 0.8058(11)
H9_2 H 0.7690 0.5709 0.7580
C21_2 C 0.6896(12) 0.7800(7) 0.9459(9)
H10_2 H 0.6688 0.8329 0.9923
C22_2 C 0.6652(13) 0.6106(8) 0.9018(10)
H11_2 H 0.6282 0.5497 0.9190
C23_2 C 0.8055(13) 0.7129(9) 0.7804(10)
H12_2 H 0.8641 0.7208 0.7165
C24_2 C 0.7748(12) 0.7913(8) 0.8495(10)
H13_2 H 0.8115 0.8520 0.8313
loop_
_geom_bond_atom_site_label_1
_geom_bond_atom_site_label_2
_geom_bond_site_symmetry_1
_geom_bond_site_symmetry_2
O7 C12 1_555 1_555
Tb4 O7 1_555 1_555
O8 Tb4 1_555 1_555
Tb1 O2 1_555 1_555
O1 C1 1_555 1_555
N1 C2 1_555 1_555
N2 C2 1_555 1_555
C1 C3 1_555 1_555
C3 N2 1_555 1_555
O2 C1 1_555 1_555
C4 N1 1_555 1_555
C5 C4 1_555 1_555
O3 Tb1 1_555 1_555
O4 C5 1_555 1_555
O5 Tb1 1_555 1_555
O6 Tb1 1_555 1_555
H6 N1 1_555 1_555
H7 O6 1_555 1_555
O9 Tb1 1_555 1_555
Tb4 O4 1_555 1_555
O10 C14 1_555 1_555
N3 C15 1_555 1_555
N4 C15 1_555 1_555
C14 C16 1_555 1_555
C16 N4 1_555 1_555
O11 Tb4 1_555 1_555
C17 N3 1_555 1_555
C18 C17 1_555 1_555
O12 Tb4 1_555 1_555
O13 Tb1 1_555 1_555
O14 Tb4 1_555 1_555
H14 N3 1_555 1_555
H15 O14 1_555 1_555
Tb3 O10 1_555 1_555
Tb5 O1 1_555 1_555
O15 Tb4 1_555 1_555
O16 Tb1 1_555 1_555
N5 Tb4 1_555 1_555
N6 Tb1 1_555 1_555
N2 Tb5 1_555 1_555
C3 C4 1_555 1_555
C5 O3 1_555 1_555
C13 O9 1_555 1_555
N4 Tb3 1_555 1_555
C14 O11 1_555 1_555
C16 C17 1_555 1_555
C18 O12 1_555 1_555
C18 O13 1_555 1_555
O16 C14_2 1_555 1_555
N3_2 C15_2 1_555 1_555
N6 C15_2 1_555 1_555
C14_2 C16_2 1_555 1_555
C15_2 C19 1_555 1_555
C16_2 N6 1_555 1_555
C17_2 N3_2 1_555 1_555
C18_2 C17_2 1_555 1_555
C19 C21 1_555 1_555
C20 H9 1_555 1_555
C21 H10 1_555 1_555
C22 C19 1_555 1_555
H11 C22 1_555 1_555
C23 C20 1_555 1_555
H12 C23 1_555 1_555
C24 C21 1_555 1_555
H13 C24 1_555 1_555
H14_2 N3_2 1_555 1_555
C14_2 O11_2 1_555 1_555
C16_2 C17_2 1_555 1_555
C18_2 O12_2 1_555 1_555
C20 C22 1_555 1_555
C23 C24 1_555 1_555
Tb5 O4_2 1_555 1_555
O14_2 Tb5 1_555 1_555
H15_2 O14_2 1_555 1_555
O18 Tb5 1_555 1_555
O6_2 Tb3 1_555 1_555
H7_2 O6_2 1_555 1_555
O9_2 Tb3 1_555 1_555
O13_2 Tb3 1_555 1_555
O15 C1_2 1_555 1_555
N1_2 C2_2 1_555 1_555
N5 C2_2 1_555 1_555
C1_2 C3_2 1_555 1_555
C2_2 C6 1_555 1_555
C3_2 N5 1_555 1_555
O2_2 C1_2 1_555 1_555
C4_2 N1_2 1_555 1_555
C5_2 C4_2 1_555 1_555
C6 C8 1_555 1_555
C7 H1 1_555 1_555
C8 H2 1_555 1_555
C9 C6 1_555 1_555
H3 C9 1_555 1_555
C10 C7 1_555 1_555
H4 C10 1_555 1_555
C11 C8 1_555 1_555
H5 C11 1_555 1_555
H6_2 N1_2 1_555 1_555
C3_2 C4_2 1_555 1_555
C5_2 O3_2 1_555 1_555
C7 C9 1_555 1_555
C10 C11 1_555 1_555
C6_2 C8_2 1_555 1_555
C7_2 H1_2 1_555 1_555
C8_2 H2_2 1_555 1_555
C9_2 C6_2 1_555 1_555
H3_2 C9_2 1_555 1_555
C10_2 C7_2 1_555 1_555
H4_2 C10_2 1_555 1_555
C11_2 C8_2 1_555 1_555
H5_2 C11_2 1_555 1_555
C7_2 C9_2 1_555 1_555
C10_2 C11_2 1_555 1_555
C19_2 C21_2 1_555 1_555
C20_2 H9_2 1_555 1_555
C21_2 H10_2 1_555 1_555
C22_2 C19_2 1_555 1_555
H11_2 C22_2 1_555 1_555
C23_2 C20_2 1_555 1_555
H12_2 C23_2 1_555 1_555
C24_2 C21_2 1_555 1_555
H13_2 C24_2 1_555 1_555
C20_2 C22_2 1_555 1_555
C23_2 C24_2 1_555 1_555

#END
