
###############################################################################
#
# This file contains modified crystal structure data generated from the
# MOF subset of the Cambridge Structural Database (CSD) v543 
# hosted by the Cambridge Crystallographic Data Centre (CCDC).
#
# This work is licensed under the Creative Commons
# Attribution-NonCommercial-ShareAlike 4.0 International License.
# To view a copy of this license, visit
# http://creativecommons.org/licenses/by-nc-sa/4.0/
# or send a letter to
# Creative Commons, PO Box 1866, Mountain View, CA 94042, USA.
#
# CIF created using the CSD Python API on 29 September 2022
# The structure has been converted into the P1 space group
# The structure has a 3D framework
# The original CSD entry DAYNIE is in the triclinic crystal system
# The framework has been calculated to contain at least 10.0% void space
# The void calculation uses a probe of radius 1.32A, grid spacing 0.4
#
###############################################################################

data_DAYNIE
_chemical_formula_moiety         '(C64 H36 N4 O16 S8 Zn4)n'
_symmetry_cell_setting           triclinic
_symmetry_space_group_name_H-M   'P 1'
_symmetry_Int_Tables_number      1
_space_group_name_Hall           'P 1'
loop_
_symmetry_equiv_pos_site_id
_symmetry_equiv_pos_as_xyz
1 x,y,z
_cell_length_a                   10.9220(8)
_cell_length_b                   10.9591(9)
_cell_length_c                   21.1760(17)
_cell_angle_alpha                94.526(2)
_cell_angle_beta                 100.839(2)
_cell_angle_gamma                91.115(2)
_cell_volume                     2480.16
loop_
_atom_site_label
_atom_site_type_symbol
_atom_site_fract_x
_atom_site_fract_y
_atom_site_fract_z
H12 H 0.0008 0.8232 0.5064
H13 H 0.0158 0.8405 0.6159
O9 O 0.736(3) 0.088(3) 0.1696(17)
O10 O 0.789(3) 0.107(3) 0.2767(16)
N2 N 0.704(3) 0.876(3) 0.0511(15)
C30 C 0.800(4) 0.861(6) 0.022(2)
H16 H 0.8801 0.8681 0.0463
C32 C 0.590(4) 0.865(5) 0.015(2)
H18 H 0.5211 0.8770 0.0344
Zn5 Zn 0.7315(3) 0.8993(3) 0.14916(18)
Zn2 Zn 0.7853(3) 0.9232(3) 0.29113(18)
S1 S 0.6939(11) 0.7863(14) 0.6067(5)
S2 S 0.9294(11) 0.7691(13) 0.6997(5)
S3 S 0.5411(11) 0.7591(13) 0.7253(5)
S4 S 0.7821(10) 0.7507(12) 0.8146(5)
O3 O 0.743(4) 0.720(3) 0.1657(17)
O4 O 0.773(3) 0.738(3) 0.2732(17)
O5 O 0.553(3) 0.900(3) 0.1629(15)
O6 O 0.597(2) 0.926(3) 0.2705(15)
N1 N 0.808(3) 0.919(3) 0.3888(15)
C1 C 0.767(3) 0.148(3) 0.223(2)
C2 C 0.768(4) 0.286(3) 0.222(2)
C3 C 0.758(5) 0.339(4) 0.165(2)
H1 H 0.7520 0.2905 0.1262
C4 C 0.757(5) 0.466(4) 0.164(2)
H2 H 0.7522 0.5011 0.1250
C5 C 0.776(5) 0.360(4) 0.279(2)
H3 H 0.7829 0.3248 0.3177
C6 C 0.774(5) 0.484(4) 0.278(2)
H4 H 0.7795 0.5332 0.3160
C7 C 0.764(4) 0.539(3) 0.220(2)
C8 C 0.759(4) 0.677(3) 0.219(2)
C10 C 0.132(3) 0.915(3) 0.2217(19)
C11 C 0.172(4) 0.908(4) 0.163(2)
H5 H 0.1140 0.9051 0.1251
C12 C 0.298(4) 0.906(4) 0.161(2)
H6 H 0.3245 0.8988 0.1221
C13 C 0.218(4) 0.923(4) 0.278(2)
H7 H 0.1914 0.9280 0.3175
C14 C 0.345(4) 0.924(4) 0.278(2)
H8 H 0.4030 0.9314 0.3161
C15 C 0.385(3) 0.913(3) 0.2189(19)
C16 C 0.522(3) 0.913(3) 0.2176(19)
C17 C 0.716(5) 0.937(7) 0.419(2)
H9 H 0.6439 0.9705 0.3974
C18 C 0.720(5) 0.907(8) 0.482(2)
H10 H 0.6504 0.9179 0.5012
C19 C 0.914(4) 0.880(5) 0.422(2)
H11 H 0.9832 0.8730 0.4025
C20 C 0.926(4) 0.851(6) 0.485(2)
C21 C 0.826(4) 0.862(5) 0.5159(19)
C22 C 0.834(4) 0.827(5) 0.5821(19)
C23 C 0.939(4) 0.819(5) 0.626(2)
C24 C 0.765(4) 0.769(4) 0.6864(18)
C25 C 0.704(4) 0.759(4) 0.7348(18)
C26 C 0.543(4) 0.795(4) 0.807(2)
H14 H 0.4706 0.8147 0.8216
C27 C 0.651(4) 0.793(4) 0.8481(18)
C28 C 0.669(4) 0.821(4) 0.9174(18)
C29 C 0.786(4) 0.834(6) 0.955(2)
H15 H 0.8557 0.8248 0.9366
C31 C 0.568(4) 0.839(6) 0.949(2)
H17 H 0.4874 0.8321 0.9250
O11 O 0.923(2) 0.910(3) 0.1704(15)
O12 O 0.966(3) 0.914(3) 0.2777(15)
C9 C 0.995(3) 0.915(3) 0.2234(19)
O7 O 0.077(2) 0.090(3) 0.8296(15)
O8 O 0.034(3) 0.086(3) 0.7223(15)
C9_2 C 0.005(3) 0.085(3) 0.7766(19)
Zn3 Zn 0.2685(3) 0.1007(3) 0.85084(18)
Zn6 Zn 0.2147(3) 0.0768(3) 0.70887(18)
S1_2 S 0.3061(11) 0.2137(14) 0.3933(5)
S2_2 S 0.0706(11) 0.2309(13) 0.3003(5)
S3_2 S 0.4589(11) 0.2409(13) 0.2747(5)
S4_2 S 0.2179(10) 0.2493(12) 0.1854(5)
O1 O 0.264(3) 0.912(3) 0.8304(17)
O2 O 0.211(3) 0.893(3) 0.7233(16)
O3_2 O 0.257(4) 0.280(3) 0.8343(17)
O4_2 O 0.227(3) 0.262(3) 0.7268(17)
O5_2 O 0.447(3) 0.100(3) 0.8371(15)
O6_2 O 0.403(2) 0.074(3) 0.7295(15)
N1_2 N 0.192(3) 0.081(3) 0.6112(15)
C1_2 C 0.233(3) 0.852(3) 0.777(2)
C2_2 C 0.232(4) 0.714(3) 0.778(2)
C3_2 C 0.242(5) 0.661(4) 0.835(2)
H1_2 H 0.2480 0.7095 0.8738
C4_2 C 0.243(5) 0.534(4) 0.836(2)
H2_2 H 0.2478 0.4989 0.8750
C5_2 C 0.224(5) 0.640(4) 0.721(2)
H3_2 H 0.2171 0.6752 0.6823
C6_2 C 0.226(5) 0.516(4) 0.722(2)
H4_2 H 0.2205 0.4668 0.6840
C7_2 C 0.236(4) 0.461(3) 0.780(2)
C8_2 C 0.241(4) 0.323(3) 0.781(2)
C10_2 C 0.868(3) 0.085(3) 0.7783(19)
C11_2 C 0.828(4) 0.092(4) 0.837(2)
H5_2 H 0.8860 0.0949 0.8749
C12_2 C 0.702(4) 0.094(4) 0.839(2)
H6_2 H 0.6755 0.1012 0.8779
C13_2 C 0.782(4) 0.077(4) 0.722(2)
H7_2 H 0.8086 0.0720 0.6825
C14_2 C 0.655(4) 0.076(4) 0.722(2)
H8_2 H 0.5970 0.0686 0.6839
C15_2 C 0.615(3) 0.087(3) 0.7811(19)
C16_2 C 0.478(3) 0.087(3) 0.7824(19)
C17_2 C 0.284(5) 0.063(7) 0.581(2)
H9_2 H 0.3561 0.0295 0.6026
C18_2 C 0.280(5) 0.093(8) 0.518(2)
H10_2 H 0.3496 0.0821 0.4988
C19_2 C 0.086(4) 0.120(5) 0.578(2)
H11_2 H 0.0168 0.1270 0.5975
C20_2 C 0.074(4) 0.149(6) 0.515(2)
C21_2 C 0.174(4) 0.138(5) 0.4841(19)
C22_2 C 0.166(4) 0.173(5) 0.4179(19)
C23_2 C 0.061(4) 0.181(5) 0.374(2)
C24_2 C 0.235(4) 0.231(4) 0.3136(18)
C25_2 C 0.296(4) 0.241(4) 0.2652(18)
C26_2 C 0.457(4) 0.205(4) 0.193(2)
H14_2 H 0.5294 0.1853 0.1784
C27_2 C 0.349(4) 0.207(4) 0.1519(18)
C28_2 C 0.331(4) 0.179(4) 0.0826(18)
C29_2 C 0.214(4) 0.166(6) 0.045(2)
H15_2 H 0.1443 0.1752 0.0634
C31_2 C 0.432(4) 0.161(6) 0.051(2)
H17_2 H 0.5126 0.1679 0.0750
N3 N 0.296(3) 0.124(3) 0.9489(15)
C30_2 C 0.200(4) 0.139(6) 0.978(2)
H16_2 H 0.1199 0.1319 0.9537
C32_2 C 0.410(4) 0.135(5) 0.985(2)
H18_2 H 0.4789 0.1230 0.9656
H12_2 H 0.9992 0.1768 0.4936
H13_2 H 0.9842 0.1595 0.3841
loop_
_geom_bond_atom_site_label_1
_geom_bond_atom_site_label_2
_geom_bond_site_symmetry_1
_geom_bond_site_symmetry_2
N2 C30 1_555 1_555
H16 C30 1_555 1_555
C32 N2 1_555 1_555
H18 C32 1_555 1_555
Zn5 N2 1_555 1_555
Zn5 O3 1_555 1_555
Zn2 O4 1_555 1_555
S1 C22 1_555 1_555
S2 C23 1_555 1_555
S3 C25 1_555 1_555
S4 C25 1_555 1_555
O9 C1 1_555 1_555
O10 C1 1_555 1_555
O3 C8 1_555 1_555
O4 C8 1_555 1_555
O5 Zn5 1_555 1_555
O6 Zn2 1_555 1_555
N1 Zn2 1_555 1_555
C1 C2 1_555 1_555
C2 C3 1_555 1_555
C3 H1 1_555 1_555
C4 C3 1_555 1_555
H2 C4 1_555 1_555
C5 C2 1_555 1_555
H3 C5 1_555 1_555
C6 C5 1_555 1_555
H4 C6 1_555 1_555
C7 C4 1_555 1_555
C8 C7 1_555 1_555
C10 C11 1_555 1_555
C11 H5 1_555 1_555
C12 C11 1_555 1_555
H6 C12 1_555 1_555
C13 C10 1_555 1_555
H7 C13 1_555 1_555
C14 C13 1_555 1_555
H8 C14 1_555 1_555
C15 C12 1_555 1_555
C16 O5 1_555 1_555
C17 N1 1_555 1_555
H9 C17 1_555 1_555
C18 C17 1_555 1_555
H10 C18 1_555 1_555
C19 N1 1_555 1_555
H11 C19 1_555 1_555
C20 C19 1_555 1_555
C21 C18 1_555 1_555
C22 C21 1_555 1_555
C23 C22 1_555 1_555
C24 S1 1_555 1_555
C25 C24 1_555 1_555
C26 S3 1_555 1_555
H14 C26 1_555 1_555
C27 S4 1_555 1_555
C28 C27 1_555 1_555
C29 C28 1_555 1_555
H15 C29 1_555 1_555
C31 C28 1_555 1_555
H17 C31 1_555 1_555
O11 Zn5 1_555 1_555
O12 Zn2 1_555 1_555
S2 C24 1_555 1_555
O6 C16 1_555 1_555
C6 C7 1_555 1_555
C14 C15 1_555 1_555
C15 C16 1_555 1_555
C20 C21 1_555 1_555
C26 C27 1_555 1_555
O11 C9 1_555 1_555
O12 C9 1_555 1_555
O7 C9_2 1_555 1_555
O8 C9_2 1_555 1_555
Zn3 O7 1_555 1_555
Zn6 O8 1_555 1_555
Zn3 O3_2 1_555 1_555
Zn6 O4_2 1_555 1_555
S1_2 C22_2 1_555 1_555
S2_2 C23_2 1_555 1_555
S3_2 C25_2 1_555 1_555
S4_2 C25_2 1_555 1_555
O1 C1_2 1_555 1_555
O2 C1_2 1_555 1_555
O3_2 C8_2 1_555 1_555
O4_2 C8_2 1_555 1_555
O5_2 Zn3 1_555 1_555
O6_2 Zn6 1_555 1_555
N1_2 Zn6 1_555 1_555
C1_2 C2_2 1_555 1_555
C2_2 C3_2 1_555 1_555
C3_2 H1_2 1_555 1_555
C4_2 C3_2 1_555 1_555
H2_2 C4_2 1_555 1_555
C5_2 C2_2 1_555 1_555
H3_2 C5_2 1_555 1_555
C6_2 C5_2 1_555 1_555
H4_2 C6_2 1_555 1_555
C7_2 C4_2 1_555 1_555
C8_2 C7_2 1_555 1_555
C10_2 C11_2 1_555 1_555
C11_2 H5_2 1_555 1_555
C12_2 C11_2 1_555 1_555
H6_2 C12_2 1_555 1_555
C13_2 C10_2 1_555 1_555
H7_2 C13_2 1_555 1_555
C14_2 C13_2 1_555 1_555
H8_2 C14_2 1_555 1_555
C15_2 C12_2 1_555 1_555
C16_2 O5_2 1_555 1_555
C17_2 N1_2 1_555 1_555
H9_2 C17_2 1_555 1_555
C18_2 C17_2 1_555 1_555
H10_2 C18_2 1_555 1_555
C19_2 N1_2 1_555 1_555
H11_2 C19_2 1_555 1_555
C20_2 C19_2 1_555 1_555
C21_2 C18_2 1_555 1_555
C22_2 C21_2 1_555 1_555
C23_2 C22_2 1_555 1_555
C24_2 S1_2 1_555 1_555
C25_2 C24_2 1_555 1_555
C26_2 S3_2 1_555 1_555
H14_2 C26_2 1_555 1_555
C27_2 S4_2 1_555 1_555
C28_2 C27_2 1_555 1_555
C29_2 C28_2 1_555 1_555
H15_2 C29_2 1_555 1_555
C31_2 C28_2 1_555 1_555
H17_2 C31_2 1_555 1_555
N3 Zn3 1_555 1_555
S2_2 C24_2 1_555 1_555
O6_2 C16_2 1_555 1_555
C6_2 C7_2 1_555 1_555
C14_2 C15_2 1_555 1_555
C15_2 C16_2 1_555 1_555
C20_2 C21_2 1_555 1_555
C26_2 C27_2 1_555 1_555
N3 C30_2 1_555 1_555
H16_2 C30_2 1_555 1_555
C32_2 N3 1_555 1_555
H18_2 C32_2 1_555 1_555

#END
