
###############################################################################
#
# This file contains modified crystal structure data generated from the
# MOF subset of the Cambridge Structural Database (CSD) v543 
# hosted by the Cambridge Crystallographic Data Centre (CCDC).
#
# This work is licensed under the Creative Commons
# Attribution-NonCommercial-ShareAlike 4.0 International License.
# To view a copy of this license, visit
# http://creativecommons.org/licenses/by-nc-sa/4.0/
# or send a letter to
# Creative Commons, PO Box 1866, Mountain View, CA 94042, USA.
#
# CIF created using the CSD Python API on 29 September 2022
# The structure has been converted into the P1 space group
# The structure has a 3D framework
# The original CSD entry DEDCEY is in the tetragonal crystal system
# The original CSD entry DEDCEY is in a Sohncke space group
# The framework has been calculated to contain at least 10.0% void space
# The void calculation uses a probe of radius 1.32A, grid spacing 0.4
#
###############################################################################

data_DEDCEY
_chemical_formula_moiety         '(C128 H56 Ce6 O48)n'
_symmetry_cell_setting           triclinic
_symmetry_space_group_name_H-M   'P 1'
_symmetry_Int_Tables_number      1
_space_group_name_Hall           'P 1'
loop_
_symmetry_equiv_pos_site_id
_symmetry_equiv_pos_as_xyz
1 x,y,z
_cell_length_a                   31.8571(16)
_cell_length_b                   31.8571(16)
_cell_length_c                   4.0399(2)
_cell_angle_alpha                90
_cell_angle_beta                 90
_cell_angle_gamma                90
_cell_volume                     4099.99
loop_
_atom_site_label
_atom_site_type_symbol
_atom_site_fract_x
_atom_site_fract_y
_atom_site_fract_z
Ce4 Ce 0.23379(2) 0.76621(2) 0.000000
Ce6 Ce 0.76621(2) 0.23379(2) 0.000000
O14 O 0.30404(9) 0.30404(9) 0.000000
O16 O 0.21968(11) 0.28338(11) 0.0273(14)
Ce1 Ce 0.26621(2) 0.26621(2) 0.500000
O2 O 0.24638(11) 0.34112(10) 0.5110(17)
O3 O 0.28965(15) 0.38158(13) 0.2233(12)
H1 H 0.298527 0.358340 0.154375
O4 O 0.21662(11) 0.71968(11) 0.5273(14)
O5 O 0.25362(14) 0.68786(12) 0.1405(9)
O6 O 0.27484(15) 0.53408(14) 0.2267(14)
O7 O 0.13568(14) 0.52208(12) 0.9717(18)
C1 C 0.2589(2) 0.3758(2) 0.4105(13)
C2 C 0.23491(17) 0.41420(14) 0.512(2)
C3 C 0.2495(2) 0.45411(19) 0.4157(12)
H2 H 0.274396 0.456600 0.287991
C4 C 0.22733(16) 0.48987(15) 0.508(2)
C5 C 0.19041(19) 0.48659(18) 0.6901(14)
C6 C 0.1754(2) 0.44652(18) 0.7839(14)
H3 H 0.150099 0.443847 0.906031
C7 C 0.1984(2) 0.41091(19) 0.6947(14)
H4 H 0.188770 0.383970 0.760919
C8 C 0.22931(19) 0.68621(19) 0.3861(13)
C9 C 0.21373(16) 0.64440(14) 0.505(3)
C10 C 0.2353(2) 0.60812(18) 0.4074(12)
H5 H 0.259844 0.610070 0.275085
C11 C 0.22018(16) 0.56933(14) 0.507(2)
C12 C 0.18304(19) 0.56634(18) 0.6947(14)
C13 C 0.16203(19) 0.60276(18) 0.7850(13)
H6 H 0.136805 0.600864 0.909527
C14 C 0.17741(18) 0.64188(17) 0.6957(13)
H7 H 0.163324 0.666698 0.764058
C15 C 0.2441(2) 0.53151(19) 0.4029(13)
C16 C 0.16665(19) 0.52418(19) 0.7942(14)
O8 O 0.34112(10) 0.24638(11) 0.4890(17)
O9 O 0.38158(13) 0.28965(15) 0.7767(12)
H8 H 0.358340 0.298527 0.845625
O10 O 0.71968(11) 0.21662(11) 0.4727(14)
O11 O 0.68786(12) 0.25362(14) 0.8595(9)
O12 O 0.53408(14) 0.27484(15) 0.7733(14)
O13 O 0.52208(12) 0.13568(14) 0.0283(18)
C17 C 0.3758(2) 0.2589(2) 0.5895(13)
C18 C 0.41420(14) 0.23491(17) 0.488(2)
C19 C 0.45411(19) 0.2495(2) 0.5843(12)
H9 H 0.456600 0.274396 0.712009
C20 C 0.48987(15) 0.22733(16) 0.492(2)
C21 C 0.48659(18) 0.19041(19) 0.3099(14)
C22 C 0.44652(18) 0.1754(2) 0.2161(14)
H10 H 0.443847 0.150099 0.093969
C23 C 0.41091(19) 0.1984(2) 0.3053(14)
H11 H 0.383970 0.188770 0.239081
C24 C 0.68621(19) 0.22931(19) 0.6139(13)
C25 C 0.64440(14) 0.21373(16) 0.495(3)
C26 C 0.60812(18) 0.2353(2) 0.5926(12)
H12 H 0.610070 0.259844 0.724915
C27 C 0.56933(14) 0.22018(16) 0.493(2)
C28 C 0.56634(18) 0.18304(19) 0.3053(14)
C29 C 0.60276(18) 0.16203(19) 0.2150(13)
H13 H 0.600864 0.136805 0.090473
C30 C 0.64188(17) 0.17741(18) 0.3043(13)
H14 H 0.666698 0.163324 0.235942
C31 C 0.53151(19) 0.2441(2) 0.5971(13)
C32 C 0.52418(19) 0.16665(19) 0.2058(14)
Ce4_2 Ce 0.23379(2) 0.76621(2) 1.000000
Ce6_2 Ce 0.76621(2) 0.23379(2) 1.000000
O14_2 O 0.30404(9) 0.30404(9) 1.000000
O18 O 0.28338(11) 0.21968(11) 0.9727(14)
O19 O 0.18786(12) 0.24638(14) 0.6405(9)
O20 O 0.24638(14) 0.18786(12) 0.3595(9)
O14_3 O 0.69596(9) 0.69596(9) 0.000000
O16_2 O 0.78032(11) 0.71662(11) 0.0273(14)
Ce1_2 Ce 0.73379(2) 0.73379(2) 0.500000
O2_2 O 0.75362(11) 0.65888(10) 0.5110(17)
O3_2 O 0.71035(15) 0.61842(13) 0.2233(12)
H1_2 H 0.701473 0.641660 0.154375
O4_2 O 0.78338(11) 0.28032(11) 0.5273(14)
O5_2 O 0.74638(14) 0.31214(12) 0.1405(9)
O6_2 O 0.72516(15) 0.46592(14) 0.2267(14)
O7_2 O 0.86432(14) 0.47792(12) 0.9717(18)
C1_2 C 0.7411(2) 0.6242(2) 0.4105(13)
C2_2 C 0.76509(17) 0.58580(14) 0.512(2)
C3_2 C 0.7505(2) 0.54589(19) 0.4157(12)
H2_2 H 0.725604 0.543400 0.287991
C4_2 C 0.77267(16) 0.51013(15) 0.508(2)
C5_2 C 0.80959(19) 0.51341(18) 0.6901(14)
C6_2 C 0.8246(2) 0.55348(18) 0.7839(14)
H3_2 H 0.849901 0.556153 0.906031
C7_2 C 0.8016(2) 0.58909(19) 0.6947(14)
H4_2 H 0.811230 0.616030 0.760919
C8_2 C 0.77069(19) 0.31379(19) 0.3861(13)
C9_2 C 0.78627(16) 0.35560(14) 0.505(3)
C10_2 C 0.7647(2) 0.39188(18) 0.4074(12)
H5_2 H 0.740156 0.389930 0.275085
C11_2 C 0.77982(16) 0.43067(14) 0.507(2)
C12_2 C 0.81696(19) 0.43366(18) 0.6947(14)
C13_2 C 0.83797(19) 0.39724(18) 0.7850(13)
H6_2 H 0.863195 0.399136 0.909527
C14_2 C 0.82259(18) 0.35812(17) 0.6957(13)
H7_2 H 0.836676 0.333302 0.764058
C15_2 C 0.7559(2) 0.46849(19) 0.4029(13)
C16_2 C 0.83335(19) 0.47582(19) 0.7942(14)
O8_2 O 0.65888(10) 0.75362(11) 0.4890(17)
O9_2 O 0.61842(13) 0.71035(15) 0.7767(12)
H8_2 H 0.641660 0.701473 0.845625
O10_2 O 0.28032(11) 0.78338(11) 0.4727(14)
O11_2 O 0.31214(12) 0.74638(14) 0.8595(9)
O12_2 O 0.46592(14) 0.72516(15) 0.7733(14)
O13_2 O 0.47792(12) 0.86432(14) 0.0283(18)
C17_2 C 0.6242(2) 0.7411(2) 0.5895(13)
C18_2 C 0.58580(14) 0.76509(17) 0.488(2)
C19_2 C 0.54589(19) 0.7505(2) 0.5843(12)
H9_2 H 0.543400 0.725604 0.712009
C20_2 C 0.51013(15) 0.77267(16) 0.492(2)
C21_2 C 0.51341(18) 0.80959(19) 0.3099(14)
C22_2 C 0.55348(18) 0.8246(2) 0.2161(14)
H10_2 H 0.556153 0.849901 0.093969
C23_2 C 0.58909(19) 0.8016(2) 0.3053(14)
H11_2 H 0.616030 0.811230 0.239081
C24_2 C 0.31379(19) 0.77069(19) 0.6139(13)
C25_2 C 0.35560(14) 0.78627(16) 0.495(3)
C26_2 C 0.39188(18) 0.7647(2) 0.5926(12)
H12_2 H 0.389930 0.740156 0.724915
C27_2 C 0.43067(14) 0.77982(16) 0.493(2)
C28_2 C 0.43366(18) 0.81696(19) 0.3053(14)
C29_2 C 0.39724(18) 0.83797(19) 0.2150(13)
H13_2 H 0.399136 0.863195 0.090473
C30_2 C 0.35812(17) 0.82259(18) 0.3043(13)
H14_2 H 0.333302 0.836676 0.235942
C31_2 C 0.46849(19) 0.7559(2) 0.5971(13)
C32_2 C 0.47582(19) 0.83335(19) 0.2058(14)
O14_4 O 0.69596(9) 0.69596(9) 1.000000
O18_2 O 0.71662(11) 0.78032(11) 0.9727(14)
O19_2 O 0.81214(12) 0.75362(14) 0.6405(9)
O20_2 O 0.75362(14) 0.81214(12) 0.3595(9)
O12_3 O 0.22516(15) 0.03408(14) 0.2733(14)
C24_3 C 0.27069(19) 0.18621(19) 0.1139(13)
C26_3 C 0.2647(2) 0.10812(18) 0.0926(12)
H12_3 H 0.240156 0.110070 0.224915
C31_3 C 0.2559(2) 0.03151(19) 0.0971(13)
O13_3 O 0.36432(14) 0.02208(12) 0.5283(18)
C25_3 C 0.28627(16) 0.14440(14) 0.995(3)
C27_3 C 0.27982(16) 0.06933(14) 0.993(2)
C28_3 C 0.31696(19) 0.06634(18) 0.8053(14)
C29_3 C 0.33797(19) 0.10276(18) 0.7150(13)
H13_3 H 0.363195 0.100864 0.590473
C30_3 C 0.32259(18) 0.14188(17) 0.8043(13)
H14_3 H 0.336676 0.166698 0.735942
C32_3 C 0.33335(19) 0.02418(19) 0.7058(14)
O2_3 O 0.15888(10) 0.74638(11) 0.0110(17)
C2_3 C 0.08580(14) 0.73491(17) 0.012(2)
C4_3 C 0.01013(15) 0.72733(16) 0.008(2)
C5_3 C 0.01341(18) 0.69041(19) 0.1901(14)
C6_3 C 0.05348(18) 0.6754(2) 0.2839(14)
H3_3 H 0.056153 0.650099 0.406031
C7_3 C 0.08909(19) 0.6984(2) 0.1947(14)
H4_3 H 0.116030 0.688770 0.260919
O9_3 O 0.21035(15) 0.88158(13) 0.2767(12)
H8_3 H 0.201473 0.858340 0.345625
C17_3 C 0.2411(2) 0.8758(2) 0.0895(13)
C19_3 C 0.2505(2) 0.95411(19) 0.0843(12)
H9_3 H 0.225604 0.956600 0.212009
O14_5 O 0.19596(9) 0.80404(9) 0.500000
O3_3 O 0.11842(13) 0.78965(15) 0.7233(12)
H1_3 H 0.141660 0.798527 0.654375
C1_3 C 0.1242(2) 0.7589(2) 0.9105(13)
C3_3 C 0.04589(19) 0.7495(2) 0.9157(12)
H2_3 H 0.043400 0.774396 0.787991
O8_3 O 0.25362(11) 0.84112(10) 0.9890(17)
C18_3 C 0.26509(17) 0.91420(14) 0.988(2)
C20_3 C 0.27267(16) 0.98987(15) 0.992(2)
C21_3 C 0.30959(19) 0.98659(18) 0.8099(14)
C22_3 C 0.3246(2) 0.94652(18) 0.7161(14)
H10_3 H 0.349901 0.943847 0.593969
C23_3 C 0.3016(2) 0.91091(19) 0.8053(14)
H11_3 H 0.311230 0.883970 0.739081
O7_3 O 0.97792(12) 0.63568(14) 0.4717(18)
C9_3 C 0.85560(14) 0.71373(16) 0.005(3)
C11_3 C 0.93067(14) 0.72018(16) 0.007(2)
C12_3 C 0.93366(18) 0.68304(19) 0.1947(14)
C13_3 C 0.89724(18) 0.66203(19) 0.2850(13)
H6_3 H 0.899136 0.636805 0.409527
C14_3 C 0.85812(17) 0.67741(18) 0.1957(13)
H7_3 H 0.833302 0.663324 0.264058
C16_3 C 0.97582(19) 0.66665(19) 0.2942(14)
O6_3 O 0.96592(14) 0.77484(15) 0.7267(14)
C8_3 C 0.81379(19) 0.72931(19) 0.8861(13)
C10_3 C 0.89188(18) 0.7353(2) 0.9074(12)
H5_3 H 0.889930 0.759844 0.775085
C15_3 C 0.96849(19) 0.7441(2) 0.9029(13)
O7_4 O 0.02208(12) 0.36432(14) 0.4717(18)
C9_4 C 0.14440(14) 0.28627(16) 0.005(3)
C11_4 C 0.06933(14) 0.27982(16) 0.007(2)
C12_4 C 0.06634(18) 0.31696(19) 0.1947(14)
C13_4 C 0.10276(18) 0.33797(19) 0.2850(13)
H6_4 H 0.100864 0.363195 0.409527
C14_4 C 0.14188(17) 0.32259(18) 0.1957(13)
H7_4 H 0.166698 0.336676 0.264058
C16_4 C 0.02418(19) 0.33335(19) 0.2942(14)
O6_4 O 0.03408(14) 0.22516(15) 0.7267(14)
C8_4 C 0.18621(19) 0.27069(19) 0.8861(13)
C10_4 C 0.10812(18) 0.2647(2) 0.9074(12)
H5_4 H 0.110070 0.240156 0.775085
C15_4 C 0.03151(19) 0.2559(2) 0.9029(13)
O2_4 O 0.84112(10) 0.25362(11) 0.0110(17)
C2_4 C 0.91420(14) 0.26509(17) 0.012(2)
C4_4 C 0.98987(15) 0.27267(16) 0.008(2)
C5_4 C 0.98659(18) 0.30959(19) 0.1901(14)
C6_4 C 0.94652(18) 0.3246(2) 0.2839(14)
H3_4 H 0.943847 0.349901 0.406031
C7_4 C 0.91091(19) 0.3016(2) 0.1947(14)
H4_4 H 0.883970 0.311230 0.260919
O9_4 O 0.78965(15) 0.11842(13) 0.2767(12)
H8_4 H 0.798527 0.141660 0.345625
C17_4 C 0.7589(2) 0.1242(2) 0.0895(13)
C19_4 C 0.7495(2) 0.04589(19) 0.0843(12)
H9_4 H 0.774396 0.043400 0.212009
O14_6 O 0.80404(9) 0.19596(9) 0.500000
O3_4 O 0.88158(13) 0.21035(15) 0.7233(12)
H1_4 H 0.858340 0.201473 0.654375
C1_4 C 0.8758(2) 0.2411(2) 0.9105(13)
C3_4 C 0.95411(19) 0.2505(2) 0.9157(12)
H2_4 H 0.956600 0.225604 0.787991
O8_4 O 0.74638(11) 0.15888(10) 0.9890(17)
C18_4 C 0.73491(17) 0.08580(14) 0.988(2)
C20_4 C 0.72733(16) 0.01013(15) 0.992(2)
C21_4 C 0.69041(19) 0.01341(18) 0.8099(14)
C22_4 C 0.6754(2) 0.05348(18) 0.7161(14)
H10_4 H 0.650099 0.056153 0.593969
C23_4 C 0.6984(2) 0.08909(19) 0.8053(14)
H11_4 H 0.688770 0.116030 0.739081
O12_4 O 0.77484(15) 0.96592(14) 0.2733(14)
C24_4 C 0.72931(19) 0.81379(19) 0.1139(13)
C26_4 C 0.7353(2) 0.89188(18) 0.0926(12)
H12_4 H 0.759844 0.889930 0.224915
C31_4 C 0.7441(2) 0.96849(19) 0.0971(13)
O13_4 O 0.63568(14) 0.97792(12) 0.5283(18)
C25_4 C 0.71373(16) 0.85560(14) 0.995(3)
C27_4 C 0.72018(16) 0.93067(14) 0.993(2)
C28_4 C 0.68304(19) 0.93366(18) 0.8053(14)
C29_4 C 0.66203(19) 0.89724(18) 0.7150(13)
H13_4 H 0.636805 0.899136 0.590473
C30_4 C 0.67741(18) 0.85812(17) 0.8043(13)
H14_4 H 0.663324 0.833302 0.735942
C32_4 C 0.66665(19) 0.97582(19) 0.7058(14)
loop_
_geom_bond_atom_site_label_1
_geom_bond_atom_site_label_2
_geom_bond_site_symmetry_1
_geom_bond_site_symmetry_2
Ce1 O14 1_555 1_555
O2 Ce1 1_555 1_555
O3 H1 1_555 1_555
O4 C8 1_555 1_555
O5 C8 1_555 1_555
O6 C15 1_555 1_555
O7 C16 1_555 1_555
C1 O2 1_555 1_555
C2 C1 1_555 1_555
C3 C2 1_555 1_555
H2 C3 1_555 1_555
C4 C3 1_555 1_555
C5 C4 1_555 1_555
C6 C5 1_555 1_555
H3 C6 1_555 1_555
C7 C2 1_555 1_555
H4 C7 1_555 1_555
C8 C9 1_555 1_555
C9 C10 1_555 1_555
C10 H5 1_555 1_555
C11 C10 1_555 1_555
C12 C11 1_555 1_555
C13 C12 1_555 1_555
H6 C13 1_555 1_555
C14 C9 1_555 1_555
H7 C14 1_555 1_555
C15 C4 1_555 1_555
C16 C5 1_555 1_555
O8 Ce1 1_555 1_555
O9 H8 1_555 1_555
O10 C24 1_555 1_555
O11 C24 1_555 1_555
O12 C31 1_555 1_555
O13 C32 1_555 1_555
C17 O8 1_555 1_555
C18 C17 1_555 1_555
C19 C18 1_555 1_555
H9 C19 1_555 1_555
C20 C19 1_555 1_555
C21 C20 1_555 1_555
C22 C21 1_555 1_555
H10 C22 1_555 1_555
C23 C18 1_555 1_555
H11 C23 1_555 1_555
C24 C25 1_555 1_555
C25 C26 1_555 1_555
C26 H12 1_555 1_555
C27 C26 1_555 1_555
C28 C27 1_555 1_555
C29 C28 1_555 1_555
H13 C29 1_555 1_555
C30 C25 1_555 1_555
H14 C30 1_555 1_555
C31 C20 1_555 1_555
C32 C21 1_555 1_555
Ce4 O4 1_555 1_555
Ce4_2 O4 1_555 1_555
Ce6 O10 1_555 1_555
Ce6_2 O10 1_555 1_555
O14_2 Ce1 1_555 1_555
O16 Ce1 1_555 1_555
O18 Ce1 1_555 1_555
O19 Ce1 1_555 1_555
O20 Ce1 1_555 1_555
O3 C1 1_555 1_555
O5 Ce4 1_555 1_555
C6 C7 1_555 1_555
C11 C15 1_555 1_555
C12 C16 1_555 1_555
C13 C14 1_555 1_555
O9 C17 1_555 1_555
O11 Ce6_2 1_555 1_555
C22 C23 1_555 1_555
C27 C31 1_555 1_555
C28 C32 1_555 1_555
C29 C30 1_555 1_555
Ce1_2 O14_3 1_555 1_555
O2_2 Ce1_2 1_555 1_555
O3_2 H1_2 1_555 1_555
O4_2 C8_2 1_555 1_555
O5_2 C8_2 1_555 1_555
O6_2 C15_2 1_555 1_555
O7_2 C16_2 1_555 1_555
C1_2 O2_2 1_555 1_555
C2_2 C1_2 1_555 1_555
C3_2 C2_2 1_555 1_555
H2_2 C3_2 1_555 1_555
C4_2 C3_2 1_555 1_555
C5_2 C4_2 1_555 1_555
C6_2 C5_2 1_555 1_555
H3_2 C6_2 1_555 1_555
C7_2 C2_2 1_555 1_555
H4_2 C7_2 1_555 1_555
C8_2 C9_2 1_555 1_555
C9_2 C10_2 1_555 1_555
C10_2 H5_2 1_555 1_555
C11_2 C10_2 1_555 1_555
C12_2 C11_2 1_555 1_555
C13_2 C12_2 1_555 1_555
H6_2 C13_2 1_555 1_555
C14_2 C9_2 1_555 1_555
H7_2 C14_2 1_555 1_555
C15_2 C4_2 1_555 1_555
C16_2 C5_2 1_555 1_555
O8_2 Ce1_2 1_555 1_555
O9_2 H8_2 1_555 1_555
O10_2 C24_2 1_555 1_555
O11_2 C24_2 1_555 1_555
O12_2 C31_2 1_555 1_555
O13_2 C32_2 1_555 1_555
C17_2 O8_2 1_555 1_555
C18_2 C17_2 1_555 1_555
C19_2 C18_2 1_555 1_555
H9_2 C19_2 1_555 1_555
C20_2 C19_2 1_555 1_555
C21_2 C20_2 1_555 1_555
C22_2 C21_2 1_555 1_555
H10_2 C22_2 1_555 1_555
C23_2 C18_2 1_555 1_555
H11_2 C23_2 1_555 1_555
C24_2 C25_2 1_555 1_555
C25_2 C26_2 1_555 1_555
C26_2 H12_2 1_555 1_555
C27_2 C26_2 1_555 1_555
C28_2 C27_2 1_555 1_555
C29_2 C28_2 1_555 1_555
H13_2 C29_2 1_555 1_555
C30_2 C25_2 1_555 1_555
H14_2 C30_2 1_555 1_555
C31_2 C20_2 1_555 1_555
C32_2 C21_2 1_555 1_555
Ce6 O4_2 1_555 1_555
Ce6_2 O4_2 1_555 1_555
Ce4 O10_2 1_555 1_555
Ce4_2 O10_2 1_555 1_555
O14_4 Ce1_2 1_555 1_555
O16_2 Ce1_2 1_555 1_555
O18_2 Ce1_2 1_555 1_555
O19_2 Ce1_2 1_555 1_555
O20_2 Ce1_2 1_555 1_555
O3_2 C1_2 1_555 1_555
O5_2 Ce6 1_555 1_555
C6_2 C7_2 1_555 1_555
C11_2 C15_2 1_555 1_555
C12_2 C16_2 1_555 1_555
C13_2 C14_2 1_555 1_555
O9_2 C17_2 1_555 1_555
O11_2 Ce4_2 1_555 1_555
C22_2 C23_2 1_555 1_555
C27_2 C31_2 1_555 1_555
C28_2 C32_2 1_555 1_555
C29_2 C30_2 1_555 1_555
O20 C24_3 1_555 1_555
O12_3 C31_3 1_555 1_555
C26_3 H12_3 1_555 1_555
O13_3 C32_3 1_555 1_555
C28_3 C27_3 1_555 1_555
C29_3 C28_3 1_555 1_555
H13_3 C29_3 1_555 1_555
C30_3 C25_3 1_555 1_555
H14_3 C30_3 1_555 1_555
C28_3 C32_3 1_555 1_555
C29_3 C30_3 1_555 1_555
O2_3 Ce4 1_555 1_555
C5_3 C4_3 1_555 1_555
C6_3 C5_3 1_555 1_555
H3_3 C6_3 1_555 1_555
C7_3 C2_3 1_555 1_555
H4_3 C7_3 1_555 1_555
O9_3 H8_3 1_555 1_555
H9_3 C19_3 1_555 1_555
O14_5 Ce4 1_555 1_555
C6_3 C7_3 1_555 1_555
O9_3 C17_3 1_555 1_555
Ce4_2 O14_5 1_555 1_555
O3_3 H1_3 1_555 1_555
H2_3 C3_3 1_555 1_555
O8_3 Ce4_2 1_555 1_555
C21_3 C20_3 1_555 1_555
C22_3 C21_3 1_555 1_555
H10_3 C22_3 1_555 1_555
C23_3 C18_3 1_555 1_555
H11_3 C23_3 1_555 1_555
O3_3 C1_3 1_555 1_555
C22_3 C23_3 1_555 1_555
O7_3 C16_3 1_555 1_555
C12_3 C11_3 1_555 1_555
C13_3 C12_3 1_555 1_555
H6_3 C13_3 1_555 1_555
C14_3 C9_3 1_555 1_555
H7_3 C14_3 1_555 1_555
C12_3 C16_3 1_555 1_555
C13_3 C14_3 1_555 1_555
O19_2 C8_3 1_555 1_555
O6_3 C15_3 1_555 1_555
C10_3 H5_3 1_555 1_555
O7_4 C16_4 1_555 1_555
C12_4 C11_4 1_555 1_555
C13_4 C12_4 1_555 1_555
H6_4 C13_4 1_555 1_555
C14_4 C9_4 1_555 1_555
H7_4 C14_4 1_555 1_555
C12_4 C16_4 1_555 1_555
C13_4 C14_4 1_555 1_555
O19 C8_4 1_555 1_555
O6_4 C15_4 1_555 1_555
C10_4 H5_4 1_555 1_555
O2_4 Ce6 1_555 1_555
C5_4 C4_4 1_555 1_555
C6_4 C5_4 1_555 1_555
H3_4 C6_4 1_555 1_555
C7_4 C2_4 1_555 1_555
H4_4 C7_4 1_555 1_555
O9_4 H8_4 1_555 1_555
H9_4 C19_4 1_555 1_555
O14_6 Ce6 1_555 1_555
C6_4 C7_4 1_555 1_555
O9_4 C17_4 1_555 1_555
Ce6_2 O14_6 1_555 1_555
O3_4 H1_4 1_555 1_555
H2_4 C3_4 1_555 1_555
O8_4 Ce6_2 1_555 1_555
C21_4 C20_4 1_555 1_555
C22_4 C21_4 1_555 1_555
H10_4 C22_4 1_555 1_555
C23_4 C18_4 1_555 1_555
H11_4 C23_4 1_555 1_555
O3_4 C1_4 1_555 1_555
C22_4 C23_4 1_555 1_555
O20_2 C24_4 1_555 1_555
O12_4 C31_4 1_555 1_555
C26_4 H12_4 1_555 1_555
O13_4 C32_4 1_555 1_555
C28_4 C27_4 1_555 1_555
C29_4 C28_4 1_555 1_555
H13_4 C29_4 1_555 1_555
C30_4 C25_4 1_555 1_555
H14_4 C30_4 1_555 1_555
C28_4 C32_4 1_555 1_555
C29_4 C30_4 1_555 1_555

#END
