
###############################################################################
#
# This file contains modified crystal structure data generated from the
# MOF subset of the Cambridge Structural Database (CSD) v543 
# hosted by the Cambridge Crystallographic Data Centre (CCDC).
#
# This work is licensed under the Creative Commons
# Attribution-NonCommercial-ShareAlike 4.0 International License.
# To view a copy of this license, visit
# http://creativecommons.org/licenses/by-nc-sa/4.0/
# or send a letter to
# Creative Commons, PO Box 1866, Mountain View, CA 94042, USA.
#
# CIF created using the CSD Python API on 29 September 2022
# The structure has been converted into the P1 space group
# The structure has a 3D framework
# The original CSD entry DEDGUS is in the triclinic crystal system
# The framework has been calculated to contain at least 10.0% void space
# The void calculation uses a probe of radius 1.32A, grid spacing 0.4
#
###############################################################################

data_DEDGUS
_chemical_formula_moiety         '(C108 H92 Co8 N12 O31)n'
_symmetry_cell_setting           triclinic
_symmetry_space_group_name_H-M   'P 1'
_symmetry_Int_Tables_number      1
_space_group_name_Hall           'P 1'
loop_
_symmetry_equiv_pos_site_id
_symmetry_equiv_pos_as_xyz
1 x,y,z
_cell_length_a                   9.505(2)
_cell_length_b                   18.124(4)
_cell_length_c                   18.211(4)
_cell_angle_alpha                96.900(10)
_cell_angle_beta                 90.088(9)
_cell_angle_gamma                97.374(11)
_cell_volume                     3088.25
loop_
_atom_site_label
_atom_site_type_symbol
_atom_site_fract_x
_atom_site_fract_y
_atom_site_fract_z
Co15 Co 0.000000 -0.000000 0.500000
Co15_2 Co -0.000000 1.000000 0.500000
C22 C 0.3867(9) 0.0033(6) 0.4510(5)
H24 H 0.310294 0.005575 0.417975
O19 O 0.8706(6) 0.0849(3) 0.5302(3)
O20 O 0.7688(6) 0.1589(4) 0.4669(3)
C59 C 0.7637(9) 0.0999(6) 0.4961(4)
C60 C 0.6257(9) 0.0476(5) 0.4974(4)
C61 C 0.5150(9) 0.0516(5) 0.4486(5)
H49 H 0.525787 0.086844 0.413689
Co15_3 Co 1.000000 -0.000000 0.500000
Co16 Co 0.98520(13) 0.19280(8) 0.52010(6)
O37 O 0.1650(6) 0.0651(3) 0.5603(3)
O38 O 0.0533(6) 0.0417(4) 0.4024(3)
Co4 Co 0.01480(13) 0.80720(8) 0.47990(6)
O10 O 0.1294(6) 0.9151(3) 0.4698(3)
O11 O 0.2312(6) 0.8411(4) 0.5331(3)
O12 O 0.1338(6) 0.7722(4) 0.3857(3)
N2 N 0.2363(9) 0.8133(6) 0.2838(5)
C16 C 0.1313(10) 0.8033(6) 0.3277(5)
H16 H 0.045287 0.820753 0.315300
C17 C 0.3684(13) 0.7863(9) 0.3012(7)
H17 H 0.374419 0.783420 0.354492
H18 H 0.448523 0.820916 0.286750
H19 H 0.371325 0.736454 0.274133
C18 C 0.2212(14) 0.8430(7) 0.2140(6)
H20 H 0.250268 0.807784 0.173530
H21 H 0.281187 0.891301 0.215134
H22 H 0.121862 0.849884 0.206364
C19 C 0.2363(9) 0.9001(6) 0.5039(4)
C20 C 0.3743(9) 0.9524(5) 0.5026(4)
C21 C 0.4850(9) 0.9484(5) 0.5514(5)
H23 H 0.474213 0.913156 0.586311
C62 C 0.6133(9) 0.9967(6) 0.5490(5)
H50 H 0.689706 0.994425 0.582025
Co15_4 Co 1.000000 1.000000 0.500000
Co10 Co 0.500000 0.000000 -0.000000
Co10_2 Co 0.500000 -0.000000 1.000000
O35 O 0.6709(6) 0.0855(3) 0.0320(3)
O43 O 0.3681(6) 0.0651(3) 0.0614(3)
C6 C 0.1115(8) 0.0039(5) 0.9517(4)
H10 H 0.188327 0.006917 0.918401
C58 C 0.0086(9) 0.0530(6) 0.9507(5)
H48 H 0.014941 0.089111 0.916639
O36 O 0.4648(6) 0.0437(4) 0.9037(3)
H57 H 0.022298 0.254498 0.252730
H58 H 0.034595 0.181542 0.195376
Co10_3 Co 0.500000 1.000000 -0.000000
O2 O 0.1901(7) 0.8382(4) 0.0290(3)
O4 O 0.5352(6) 0.9563(4) 0.0963(3)
O5 O 0.5090(6) 0.8298(4) 0.0718(3)
O6 O 0.8350(6) 0.9349(3) 0.4397(3)
O7 O 0.8563(6) 0.8126(4) 0.4058(3)
O8 O 0.9467(6) 0.9583(4) 0.5976(3)
O9 O 0.9122(6) 0.8337(3) 0.5748(3)
O13 O 0.6319(6) 0.9349(3) 0.9386(3)
O14 O 0.5499(6) 0.8132(4) 0.9033(3)
O15 O 0.6691(11) 0.6584(5) 0.6797(5)
N3 N 0.9553(8) 0.6915(4) 0.4900(4)
N4 N 0.7208(13) 0.5401(6) 0.6576(5)
H1 H 0.689280 0.491906 0.653669
C4 C 0.2119(8) 0.8975(6) 0.0008(5)
C5 C 0.1007(9) 0.9517(5) 0.0006(4)
C8 C 0.5491(9) 0.8921(5) 0.1103(4)
C9 C 0.6242(9) 0.8886(5) 0.1843(4)
C10 C 0.6723(9) 0.8214(6) 0.1987(4)
H12 H 0.662151 0.779233 0.161786
C11 C 0.7346(10) 0.8163(6) 0.2667(4)
H13 H 0.765725 0.770757 0.276906
C12 C 0.7508(9) 0.8802(5) 0.3205(4)
C13 C 0.7063(11) 0.9465(6) 0.3045(5)
H14 H 0.718730 0.989631 0.340206
C14 C 0.6434(11) 0.9498(6) 0.2362(5)
H15 H 0.613471 0.995422 0.225558
C15 C 0.8194(9) 0.8764(5) 0.3957(4)
C23 C 0.9009(9) 0.8947(5) 0.6134(4)
C24 C 0.8233(9) 0.8902(5) 0.6845(4)
C25 C 0.8356(10) 0.9528(5) 0.7385(4)
H25 H 0.888470 0.998724 0.729117
C26 C 0.7697(10) 0.9467(5) 0.8058(5)
H26 H 0.780126 0.988539 0.843145
C27 C 0.6895(9) 0.8812(5) 0.8194(4)
C28 C 0.6767(9) 0.8207(5) 0.7667(4)
H27 H 0.622816 0.775052 0.776285
C29 C 0.7423(9) 0.8254(5) 0.6991(4)
H28 H 0.730914 0.783134 0.662366
C30 C 0.6176(9) 0.8771(5) 0.8931(4)
C31 C 0.9248(13) 0.6428(6) 0.4306(5)
H29 H 0.936874 0.660049 0.383503
C32 C 0.8778(17) 0.5706(7) 0.4332(6)
H30 H 0.857508 0.537833 0.388597
C33 C 0.8586(16) 0.5435(7) 0.5004(6)
H31 H 0.825055 0.492209 0.503027
C34 C 0.8899(14) 0.5935(6) 0.5648(5)
C35 C 0.9353(10) 0.6670(5) 0.5555(5)
H32 H 0.953398 0.702297 0.598505
C36 C 0.8681(15) 0.5672(7) 0.6411(6)
H33 H 0.926812 0.526488 0.645161
H34 H 0.903240 0.609340 0.679094
C37 C 0.6371(17) 0.5922(8) 0.6789(6)
C38 C 0.4868(17) 0.5619(7) 0.7036(6)
C39 C 0.3905(17) 0.6184(8) 0.7150(7)
H35 H 0.421116 0.668529 0.706379
C40 C 0.2536(17) 0.5984(7) 0.7385(6)
H36 H 0.187980 0.634044 0.743311
C41 C 0.2137(16) 0.5262(7) 0.7547(6)
C42 C 0.0719(15) 0.5025(7) 0.7814(5)
H37 H 0.006967 0.538295 0.789694
C43 C 0.0312(15) 0.4322(7) 0.7943(6)
C44 C 0.1312(15) 0.3787(8) 0.7844(6)
H38 H 0.103547 0.328798 0.794618
C45 C 0.2638(16) 0.3984(7) 0.7609(7)
H39 H 0.329301 0.362761 0.755765
C46 C 0.3044(16) 0.4708(7) 0.7441(6)
C47 C 0.4479(17) 0.4926(7) 0.7179(6)
H40 H 0.512857 0.456800 0.711226
O32 O 0.1481(11) 0.6641(5) 0.1804(5)
N11 N 0.2040(12) 0.5472(6) 0.1679(5)
H52 H 0.175671 0.499235 0.169438
C102 C 0.1156(15) 0.5971(8) 0.1841(6)
C103 C 0.3501(14) 0.5724(7) 0.1472(6)
H87 H 0.389345 0.616064 0.182539
H88 H 0.408970 0.531731 0.151281
C104 C 0.3599(13) 0.5943(7) 0.0686(6)
C105 C 0.3437(13) 0.5397(7) 0.0085(6)
H89 H 0.325775 0.488111 0.015011
C108 C 0.3781(11) 0.6680(6) 0.0566(5)
H92 H 0.386942 0.705495 0.098066
Co10_4 Co 0.500000 1.000000 1.000000
Co11 Co 0.39100(14) 0.80642(9) 0.97746(7)
O1 O 0.2520(7) 0.7707(4) 0.8827(3)
O3 O 0.3291(6) 0.9145(3) 0.9680(3)
N1 N 0.1673(8) 0.8055(5) 0.7772(4)
C1 C 0.2685(10) 0.8012(6) 0.8255(5)
H3 H 0.361580 0.823248 0.815606
C2 C 0.1960(12) 0.8423(7) 0.7114(5)
H4 H 0.136048 0.882348 0.710650
H5 H 0.175351 0.805707 0.667375
H6 H 0.296089 0.863765 0.711787
C3 C 0.0198(12) 0.7765(8) 0.7917(6)
H9 H 0.017807 0.746041 0.832730
N12 N 0.3839(8) 0.6891(5) 0.9893(4)
C106 C 0.3541(12) 0.5621(7) 0.9386(6)
H90 H 0.347093 0.525778 0.896128
C107 C 0.3748(11) 0.6372(6) 0.9307(5)
H91 H 0.382607 0.652240 0.882476
Co13 Co 0.60900(14) 0.19358(9) 0.02254(7)
O17 O 0.8099(7) 0.1618(4) 0.9710(3)
C55 C 0.7881(8) 0.1025(6) 0.9992(5)
C56 C 0.8993(9) 0.0483(5) 0.9994(4)
N6 N 0.6161(8) 0.3109(5) 0.0107(4)
C52 C 0.6459(12) 0.4379(7) 0.0614(6)
H44 H 0.652907 0.474222 0.103872
C53 C 0.6252(11) 0.3628(6) 0.0693(5)
H45 H 0.617393 0.347760 0.117524
O21 O 0.7480(7) 0.2293(4) 0.1173(3)
N7 N 0.8327(8) 0.1945(5) 0.2228(4)
C63 C 0.7315(10) 0.1988(6) 0.1745(5)
H53 H 0.638420 0.176752 0.184394
C64 C 0.8040(12) 0.1577(7) 0.2886(5)
H54 H 0.863952 0.117652 0.289350
H55 H 0.824649 0.194293 0.332625
H56 H 0.703911 0.136235 0.288213
C65 C 0.9802(12) 0.2235(8) 0.2083(6)
H59 H 0.982193 0.253959 0.167270
O45 O 0.4501(6) 0.1868(4) 0.0967(3)
O16 O 0.8519(11) 0.3359(5) 0.8196(5)
N5 N 0.7960(12) 0.4528(6) 0.8321(5)
H2 H 0.824329 0.500765 0.830562
C7 C 0.9914(9) 0.9470(6) 0.0493(5)
H11 H 0.985059 0.910889 0.083361
C48 C 0.8844(15) 0.4029(8) 0.8159(6)
C49 C 0.6499(14) 0.4276(7) 0.8528(6)
H41 H 0.610655 0.383936 0.817461
H42 H 0.591030 0.468269 0.848719
C50 C 0.6401(13) 0.4057(7) 0.9314(6)
C51 C 0.6563(13) 0.4603(7) 0.9915(6)
H43 H 0.674225 0.511889 0.984989
C54 C 0.6219(11) 0.3320(6) 0.9434(5)
H46 H 0.613058 0.294505 0.901934
C57 C 0.8885(8) 0.9961(5) 0.0483(4)
H47 H 0.811673 0.993083 0.081599
O23 O 0.4910(6) 0.1702(4) 0.9282(3)
O25 O 0.1437(6) 0.1874(4) 0.5942(3)
O27 O 0.0878(6) 0.1663(3) 0.4252(3)
O31 O 0.3309(11) 0.3416(5) 0.3203(5)
N9 N 0.0447(8) 0.3085(4) 0.5100(4)
N10 N 0.2792(13) 0.4599(6) 0.3424(5)
H51 H 0.310720 0.508094 0.346331
C66 C 0.4509(9) 0.1079(5) 0.8897(4)
C67 C 0.3758(9) 0.1114(5) 0.8157(4)
C68 C 0.3277(9) 0.1786(6) 0.8013(4)
H60 H 0.337849 0.220767 0.838214
C69 C 0.2654(10) 0.1837(6) 0.7333(4)
H61 H 0.234275 0.229243 0.723094
C70 C 0.2492(9) 0.1198(5) 0.6795(4)
C71 C 0.2937(11) 0.0535(6) 0.6955(5)
H62 H 0.281270 0.010369 0.659794
C72 C 0.3566(11) 0.0502(6) 0.7638(5)
H63 H 0.386529 0.004578 0.774442
C73 C 0.1806(9) 0.1236(5) 0.6043(4)
C77 C 0.0991(9) 0.1053(5) 0.3866(4)
C78 C 0.1767(9) 0.1098(5) 0.3155(4)
C79 C 0.1644(10) 0.0472(5) 0.2615(4)
H71 H 0.111530 0.001276 0.270883
C80 C 0.2303(10) 0.0533(5) 0.1942(5)
H72 H 0.219874 0.011461 0.156855
C81 C 0.3105(9) 0.1188(5) 0.1806(4)
C82 C 0.3233(9) 0.1793(5) 0.2333(4)
H73 H 0.377184 0.224948 0.223715
C83 C 0.2577(9) 0.1746(5) 0.3009(4)
H74 H 0.269086 0.216866 0.337634
C84 C 0.3824(9) 0.1229(5) 0.1069(4)
C85 C 0.0752(13) 0.3572(6) 0.5694(5)
H75 H 0.063126 0.339951 0.616497
C86 C 0.1222(17) 0.4294(7) 0.5668(6)
H76 H 0.142492 0.462167 0.611403
C87 C 0.1414(16) 0.4565(7) 0.4996(6)
H77 H 0.174945 0.507791 0.496973
C88 C 0.1101(14) 0.4065(6) 0.4352(5)
C89 C 0.0647(10) 0.3330(5) 0.4445(5)
H78 H 0.046602 0.297703 0.401495
C90 C 0.1319(15) 0.4328(7) 0.3589(6)
H79 H 0.073188 0.473512 0.354839
H80 H 0.096760 0.390660 0.320906
C91 C 0.3629(17) 0.4078(8) 0.3211(6)
C92 C 0.5132(17) 0.4381(7) 0.2964(6)
C93 C 0.6095(17) 0.3816(8) 0.2850(7)
H81 H 0.578884 0.331471 0.293621
C94 C 0.7464(17) 0.4016(7) 0.2615(6)
H82 H 0.812020 0.365956 0.256689
C95 C 0.7863(16) 0.4738(7) 0.2453(6)
C96 C 0.9281(15) 0.4975(7) 0.2186(5)
H83 H 0.993033 0.461705 0.210306
C97 C 0.9688(15) 0.5678(7) 0.2057(6)
C98 C 0.8688(15) 0.6213(8) 0.2156(6)
H84 H 0.896453 0.671202 0.205382
C99 C 0.7362(16) 0.6016(7) 0.2391(7)
H85 H 0.670699 0.637239 0.244235
C100 C 0.6956(16) 0.5292(7) 0.2559(6)
C101 C 0.5521(17) 0.5074(7) 0.2821(6)
H86 H 0.487143 0.543200 0.288774
H7 H 0.977702 0.745502 0.747270
H8 H 0.965405 0.818458 0.804624
O28 O 0.8662(6) 0.2278(4) 0.6143(3)
N8 N 0.7637(9) 0.1867(6) 0.7162(5)
C74 C 0.8687(10) 0.1967(6) 0.6723(5)
H64 H 0.954713 0.179247 0.684700
C75 C 0.6316(13) 0.2137(9) 0.6988(7)
H65 H 0.625581 0.216580 0.645508
H66 H 0.551477 0.179084 0.713250
H67 H 0.628675 0.263546 0.725867
C76 C 0.7788(14) 0.1570(7) 0.7860(6)
H68 H 0.749732 0.192216 0.826470
H69 H 0.718813 0.108699 0.784866
H70 H 0.878138 0.150116 0.793636
loop_
_geom_bond_atom_site_label_1
_geom_bond_atom_site_label_2
_geom_bond_site_symmetry_1
_geom_bond_site_symmetry_2
H24 C22 1_555 1_555
O19 C59 1_555 1_555
O20 C59 1_555 1_555
C59 C60 1_555 1_555
C60 C61 1_555 1_555
C61 C22 1_555 1_555
H49 C61 1_555 1_555
Co15_3 O19 1_555 1_555
Co16 O19 1_555 1_555
O37 Co15 1_555 1_555
O38 Co15 1_555 1_555
O20 Co16 1_555 1_555
O10 Co15_2 1_555 1_555
O11 Co4 1_555 1_555
O12 Co4 1_555 1_555
N2 C16 1_555 1_555
C16 O12 1_555 1_555
H16 C16 1_555 1_555
C17 N2 1_555 1_555
H17 C17 1_555 1_555
H18 C17 1_555 1_555
H19 C17 1_555 1_555
C18 N2 1_555 1_555
H20 C18 1_555 1_555
H21 C18 1_555 1_555
H22 C18 1_555 1_555
C19 O10 1_555 1_555
C20 C19 1_555 1_555
C21 C20 1_555 1_555
H23 C21 1_555 1_555
C62 C21 1_555 1_555
H50 C62 1_555 1_555
Co4 O10 1_555 1_555
O11 C19 1_555 1_555
O35 Co10 1_555 1_555
O43 Co10 1_555 1_555
H10 C6 1_555 1_555
C58 C6 1_555 1_555
H48 C58 1_555 1_555
O36 Co10_2 1_555 1_555
Co15_4 O6 1_555 1_555
O4 Co10_3 1_555 1_555
O6 C15 1_555 1_555
O7 C15 1_555 1_555
O8 Co15_4 1_555 1_555
O13 C30 1_555 1_555
O14 C30 1_555 1_555
O15 C37 1_555 1_555
N4 H1 1_555 1_555
C4 O2 1_555 1_555
C5 C4 1_555 1_555
C8 O4 1_555 1_555
C9 C8 1_555 1_555
C10 C9 1_555 1_555
H12 C10 1_555 1_555
C11 C10 1_555 1_555
H13 C11 1_555 1_555
C12 C11 1_555 1_555
C13 C12 1_555 1_555
H14 C13 1_555 1_555
C14 C9 1_555 1_555
H15 C14 1_555 1_555
C15 C12 1_555 1_555
C23 O8 1_555 1_555
C24 C23 1_555 1_555
C25 C24 1_555 1_555
H25 C25 1_555 1_555
C26 C25 1_555 1_555
H26 C26 1_555 1_555
C27 C26 1_555 1_555
C28 C27 1_555 1_555
H27 C28 1_555 1_555
C29 C24 1_555 1_555
H28 C29 1_555 1_555
C30 C27 1_555 1_555
C31 N3 1_555 1_555
H29 C31 1_555 1_555
C32 C31 1_555 1_555
H30 C32 1_555 1_555
C33 C32 1_555 1_555
H31 C33 1_555 1_555
C34 C33 1_555 1_555
C35 N3 1_555 1_555
H32 C35 1_555 1_555
C36 N4 1_555 1_555
H33 C36 1_555 1_555
H34 C36 1_555 1_555
C37 N4 1_555 1_555
C38 C37 1_555 1_555
C39 C38 1_555 1_555
H35 C39 1_555 1_555
C40 C39 1_555 1_555
H36 C40 1_555 1_555
C41 C40 1_555 1_555
C42 C41 1_555 1_555
H37 C42 1_555 1_555
C43 C42 1_555 1_555
C44 C43 1_555 1_555
H38 C44 1_555 1_555
C45 C44 1_555 1_555
H39 C45 1_555 1_555
C46 C41 1_555 1_555
C47 C38 1_555 1_555
H40 C47 1_555 1_555
O32 C102 1_555 1_555
N11 H52 1_555 1_555
C102 N11 1_555 1_555
C103 N11 1_555 1_555
H87 C103 1_555 1_555
H88 C103 1_555 1_555
C104 C103 1_555 1_555
C105 C104 1_555 1_555
H89 C105 1_555 1_555
H92 C108 1_555 1_555
Co10_4 O13 1_555 1_555
Co11 O14 1_555 1_555
O5 C8 1_555 1_555
O9 C23 1_555 1_555
C13 C14 1_555 1_555
C28 C29 1_555 1_555
C34 C35 1_555 1_555
C34 C36 1_555 1_555
C45 C46 1_555 1_555
C46 C47 1_555 1_555
C104 C108 1_555 1_555
Co10_4 O3 1_555 1_555
Co11 O1 1_555 1_555
O1 C1 1_555 1_555
O3 Co11 1_555 1_555
N1 C1 1_555 1_555
C1 H3 1_555 1_555
C2 N1 1_555 1_555
H4 C2 1_555 1_555
H5 C2 1_555 1_555
H6 C2 1_555 1_555
C3 N1 1_555 1_555
H9 C3 1_555 1_555
N12 Co11 1_555 1_555
H90 C106 1_555 1_555
C107 N12 1_555 1_555
H91 C107 1_555 1_555
C106 C107 1_555 1_555
O35 Co13 1_555 1_555
O17 C55 1_555 1_555
C55 C56 1_555 1_555
N6 C53 1_555 1_555
H44 C52 1_555 1_555
C53 C52 1_555 1_555
H45 C53 1_555 1_555
Co13 N6 1_555 1_555
O21 Co13 1_555 1_555
N7 C63 1_555 1_555
C63 O21 1_555 1_555
H53 C63 1_555 1_555
C64 N7 1_555 1_555
H54 C64 1_555 1_555
H55 C64 1_555 1_555
H56 C64 1_555 1_555
C65 N7 1_555 1_555
H59 C65 1_555 1_555
O45 Co13 1_555 1_555
O16 C48 1_555 1_555
N5 H2 1_555 1_555
H11 C7 1_555 1_555
C48 N5 1_555 1_555
C49 N5 1_555 1_555
H41 C49 1_555 1_555
H42 C49 1_555 1_555
C50 C49 1_555 1_555
C51 C50 1_555 1_555
H43 C51 1_555 1_555
H46 C54 1_555 1_555
C57 C7 1_555 1_555
H47 C57 1_555 1_555
O36 C66 1_555 1_555
O37 C73 1_555 1_555
O25 C73 1_555 1_555
O38 C77 1_555 1_555
O43 C84 1_555 1_555
O45 C84 1_555 1_555
O31 C91 1_555 1_555
N10 H51 1_555 1_555
C66 O23 1_555 1_555
C67 C66 1_555 1_555
C68 C67 1_555 1_555
H60 C68 1_555 1_555
C69 C68 1_555 1_555
H61 C69 1_555 1_555
C70 C69 1_555 1_555
C71 C70 1_555 1_555
H62 C71 1_555 1_555
C72 C67 1_555 1_555
H63 C72 1_555 1_555
C73 C70 1_555 1_555
C77 O27 1_555 1_555
C78 C77 1_555 1_555
C79 C78 1_555 1_555
H71 C79 1_555 1_555
C80 C79 1_555 1_555
H72 C80 1_555 1_555
C81 C80 1_555 1_555
C82 C81 1_555 1_555
H73 C82 1_555 1_555
C83 C78 1_555 1_555
H74 C83 1_555 1_555
C84 C81 1_555 1_555
C85 N9 1_555 1_555
H75 C85 1_555 1_555
C86 C85 1_555 1_555
H76 C86 1_555 1_555
C87 C86 1_555 1_555
H77 C87 1_555 1_555
C88 C87 1_555 1_555
C89 N9 1_555 1_555
H78 C89 1_555 1_555
C90 N10 1_555 1_555
H79 C90 1_555 1_555
H80 C90 1_555 1_555
C91 N10 1_555 1_555
C92 C91 1_555 1_555
C93 C92 1_555 1_555
H81 C93 1_555 1_555
C94 C93 1_555 1_555
H82 C94 1_555 1_555
C95 C94 1_555 1_555
C96 C95 1_555 1_555
H83 C96 1_555 1_555
C97 C96 1_555 1_555
C98 C97 1_555 1_555
H84 C98 1_555 1_555
C99 C98 1_555 1_555
H85 C99 1_555 1_555
C100 C95 1_555 1_555
C101 C92 1_555 1_555
H86 C101 1_555 1_555
C50 C54 1_555 1_555
C71 C72 1_555 1_555
C82 C83 1_555 1_555
C88 C89 1_555 1_555
C88 C90 1_555 1_555
C99 C100 1_555 1_555
C100 C101 1_555 1_555
O28 Co16 1_555 1_555
N8 C74 1_555 1_555
C74 O28 1_555 1_555
H64 C74 1_555 1_555
C75 N8 1_555 1_555
H65 C75 1_555 1_555
H66 C75 1_555 1_555
H67 C75 1_555 1_555
C76 N8 1_555 1_555
H68 C76 1_555 1_555
H69 C76 1_555 1_555
H70 C76 1_555 1_555

#END
