
###############################################################################
#
# This file contains modified crystal structure data generated from the
# MOF subset of the Cambridge Structural Database (CSD) v543 
# hosted by the Cambridge Crystallographic Data Centre (CCDC).
#
# This work is licensed under the Creative Commons
# Attribution-NonCommercial-ShareAlike 4.0 International License.
# To view a copy of this license, visit
# http://creativecommons.org/licenses/by-nc-sa/4.0/
# or send a letter to
# Creative Commons, PO Box 1866, Mountain View, CA 94042, USA.
#
# CIF created using the CSD Python API on 29 September 2022
# The structure has been converted into the P1 space group
# The structure has a 3D framework
# The original CSD entry DEFCEA is in the tetragonal crystal system
# The original CSD entry DEFCEA is in a Sohncke space group
# The framework has been calculated to contain at least 10.0% void space
# The void calculation uses a probe of radius 1.32A, grid spacing 0.4
#
###############################################################################

data_DEFCEA
_chemical_formula_moiety         '(C96 H48 N48 S8 Zn6)n'
_symmetry_cell_setting           triclinic
_symmetry_space_group_name_H-M   'P 1'
_symmetry_Int_Tables_number      1
_space_group_name_Hall           'P 1'
loop_
_symmetry_equiv_pos_site_id
_symmetry_equiv_pos_as_xyz
1 x,y,z
_cell_length_a                   16.5490(14)
_cell_length_b                   16.5490(14)
_cell_length_c                   12.4563(12)
_cell_angle_alpha                90
_cell_angle_beta                 90
_cell_angle_gamma                90
_cell_volume                     3411.4
loop_
_atom_site_label
_atom_site_type_symbol
_atom_site_fract_x
_atom_site_fract_y
_atom_site_fract_z
S1 S 0.1401(4) 0.5135(4) 0.6188(5)
N1 N 0.2555(7) 0.3612(6) 0.2236(9)
N2 N 0.2199(7) 0.3853(7) 0.1279(11)
N5 N 0.1670(10) 0.4877(9) 0.4943(16)
N6 N 0.0692(10) 0.5813(11) 0.5918(14)
C1 C 0.1757(11) 0.4496(10) 0.1473(15)
H1 H 0.148691 0.480100 0.093561
C2 C 0.2253(8) 0.4096(8) 0.3001(12)
H2 H 0.238306 0.404393 0.374087
C3 C 0.1733(9) 0.4678(8) 0.2605(13)
C4 C 0.1196(6) 0.5315(6) 0.4300(8)
C5 C 0.1212(5) 0.5292(5) 0.3184(8)
C6 C 0.0704(6) 0.5791(6) 0.2594(6)
H3 H 0.071565 0.577532 0.183187
C7 C 0.0180(6) 0.6315(6) 0.3119(8)
C8 C 0.0163(5) 0.6339(6) 0.4234(8)
C9 C 0.0671(6) 0.5839(6) 0.4825(6)
Zn4 Zn 0.32217(10) 0.26295(10) 0.24221(17)
N8 N 0.3386(5) 0.2593(6) 0.0089(8)
Zn1 Zn 0.23705(10) 0.32217(10) 0.99221(17)
N7 N 0.1388(6) 0.2555(7) 0.9736(9)
N9 N 0.2566(6) 0.3765(6) 0.8560(8)
N3 N 0.8386(5) 0.7593(6) 0.5089(8)
N4 N 0.8765(6) 0.7434(6) 0.6060(8)
H4 H 0.983228 0.665663 0.271541
C10 C 0.9490(6) 0.6852(7) 0.4775(12)
C11 C 0.9423(8) 0.7027(8) 0.5876(12)
H5 H 0.980271 0.687007 0.640827
C12 C 0.8861(8) 0.7279(9) 0.4358(12)
H6 H 0.877502 0.734290 0.360922
Zn2 Zn 0.82217(10) 0.76295(10) 0.74221(17)
Zn3 Zn 0.73705(10) 0.82217(10) 0.49221(17)
Zn1_2 Zn 0.26295(10) 0.17783(10) 0.49221(17)
N1_2 N 0.2445(7) 0.1388(6) 0.7236(9)
N2_2 N 0.2801(7) 0.1147(7) 0.6279(11)
N5_2 N 0.3330(10) 0.0123(9) 0.9943(16)
C1_2 C 0.3243(11) 0.0504(10) 0.6473(15)
H1_2 H 0.351309 0.019900 0.593561
C2_2 C 0.2747(8) 0.0904(8) 0.8001(12)
H2_2 H 0.261694 0.095607 0.874087
C3_2 C 0.3267(9) 0.0322(8) 0.7605(13)
Zn4_2 Zn 0.17783(10) 0.23705(10) 0.74221(17)
N7_2 N 0.3612(6) 0.2445(7) 0.4736(9)
N8_2 N 0.1614(5) 0.2407(6) 0.5089(8)
N9_2 N 0.2434(6) 0.1235(6) 0.3560(8)
S1_2 S 0.3599(4) 0.9865(4) 0.1188(5)
N3_2 N 0.6614(5) 0.7407(6) 0.0089(8)
N4_2 N 0.6235(6) 0.7566(6) 0.1060(8)
N6_2 N 0.4308(10) 0.9187(11) 0.0918(14)
C11_2 C 0.5577(8) 0.7973(8) 0.0876(12)
H5_2 H 0.519729 0.812993 0.140827
Zn2_2 Zn 0.67783(10) 0.73705(10) 0.24221(17)
C4_2 C 0.3804(6) 0.9685(6) 0.9300(8)
C5_2 C 0.3788(5) 0.9708(5) 0.8184(8)
C6_2 C 0.4296(6) 0.9209(6) 0.7594(6)
H3_2 H 0.428435 0.922468 0.683187
C7_2 C 0.4820(6) 0.8685(6) 0.8119(8)
H4_2 H 0.516772 0.834337 0.771541
C8_2 C 0.4837(5) 0.8661(6) 0.9234(8)
C9_2 C 0.4329(6) 0.9161(6) 0.9825(6)
C10_2 C 0.5510(6) 0.8148(7) 0.9775(12)
C12_2 C 0.6139(8) 0.7721(9) 0.9358(12)
H6_2 H 0.622498 0.765710 0.860922
Zn3_2 Zn 0.76295(10) 0.67783(10) 0.99221(17)
S1_3 S 0.4865(4) 0.6401(4) 0.8688(5)
N1_3 N 0.6388(6) 0.7555(7) 0.4736(9)
N2_3 N 0.6147(7) 0.7199(7) 0.3779(11)
N3_3 N 0.2407(6) 0.3386(5) 0.7589(8)
N5_3 N 0.5123(9) 0.6670(10) 0.7443(16)
N6_3 N 0.4187(11) 0.5692(10) 0.8418(14)
C1_3 C 0.5504(10) 0.6757(11) 0.3973(15)
H1_3 H 0.519900 0.648691 0.343561
C2_3 C 0.5904(8) 0.7253(8) 0.5501(12)
H2_3 H 0.595607 0.738306 0.624087
C3_3 C 0.5322(8) 0.6733(9) 0.5105(13)
C4_3 C 0.4685(6) 0.6196(6) 0.6800(8)
C5_3 C 0.4708(5) 0.6212(5) 0.5684(8)
C6_3 C 0.4209(6) 0.5704(6) 0.5094(6)
H3_3 H 0.422468 0.571565 0.433187
C7_3 C 0.3685(6) 0.5180(6) 0.5619(8)
H4_3 H 0.334337 0.483228 0.521541
C8_3 C 0.3661(6) 0.5163(5) 0.6734(8)
C9_3 C 0.4161(6) 0.5671(6) 0.7325(6)
C10_3 C 0.3148(7) 0.4490(6) 0.7275(12)
C11_3 C 0.2973(8) 0.4423(8) 0.8376(12)
H5_3 H 0.312993 0.480271 0.890827
C12_3 C 0.2721(9) 0.3861(8) 0.6858(12)
H6_3 H 0.265710 0.377502 0.610922
N7_3 N 0.7445(7) 0.6388(6) 0.2236(9)
N8_3 N 0.7407(6) 0.8386(5) 0.2589(8)
N3_4 N 0.2593(6) 0.1614(5) 0.2589(8)
H4_4 H 0.165663 0.016772 0.021541
C10_4 C 0.1852(7) 0.0510(6) 0.2275(12)
C11_4 C 0.2027(8) 0.0577(8) 0.3376(12)
H5_4 H 0.187007 0.019729 0.390827
C12_4 C 0.2279(9) 0.1139(8) 0.1858(12)
H6_4 H 0.234290 0.122498 0.110922
N1_4 N 0.8612(6) 0.7445(7) 0.9736(9)
N2_4 N 0.8853(7) 0.7801(7) 0.8779(11)
C1_4 C 0.9496(10) 0.8243(11) 0.8973(15)
H1_4 H 0.980100 0.851309 0.843561
N7_4 N 0.7555(7) 0.8612(6) 0.7236(9)
N8_4 N 0.7593(6) 0.6614(5) 0.7589(8)
S1_4 S 0.6401(4) 0.0135(4) 0.1188(5)
N4_3 N 0.3765(6) 0.2434(6) 0.1060(8)
N6_4 N 0.5692(10) 0.0813(11) 0.0918(14)
C11_5 C 0.4423(8) 0.2027(8) 0.0876(12)
H5_5 H 0.480271 0.187007 0.140827
C4_4 C 0.6196(6) 0.0315(6) 0.9300(8)
C5_4 C 0.6212(5) 0.0292(5) 0.8184(8)
C6_4 C 0.5704(6) 0.0791(6) 0.7594(6)
H3_4 H 0.571565 0.077532 0.683187
C7_4 C 0.5180(6) 0.1315(6) 0.8119(8)
H4_5 H 0.483228 0.165663 0.771541
C8_4 C 0.5163(5) 0.1339(6) 0.9234(8)
C9_4 C 0.5671(6) 0.0839(6) 0.9825(6)
C10_5 C 0.4490(6) 0.1852(7) 0.9775(12)
C12_5 C 0.3861(8) 0.2279(9) 0.9358(12)
H6_5 H 0.377502 0.234290 0.860922
N2_5 N 0.7199(7) 0.8853(7) 0.6279(11)
N5_4 N 0.6670(10) 0.9877(9) 0.9943(16)
C1_5 C 0.6757(11) 0.9496(10) 0.6473(15)
H1_5 H 0.648691 0.980100 0.593561
C2_4 C 0.7253(8) 0.9096(8) 0.8001(12)
H2_4 H 0.738306 0.904393 0.874087
C3_4 C 0.6733(9) 0.9678(8) 0.7605(13)
N9_3 N 0.7566(6) 0.8765(6) 0.3560(8)
N4_4 N 0.1235(6) 0.2566(6) 0.6060(8)
H4_6 H 0.016772 0.334337 0.271541
C10_6 C 0.0510(6) 0.3148(7) 0.4775(12)
C11_6 C 0.0577(8) 0.2973(8) 0.5876(12)
H5_6 H 0.019729 0.312993 0.640827
C12_6 C 0.1139(8) 0.2721(9) 0.4358(12)
H6_6 H 0.122498 0.265710 0.360922
S1_5 S 0.8599(4) 0.4865(4) 0.6188(5)
N2_6 N 0.7801(7) 0.6147(7) 0.1279(11)
N5_5 N 0.8330(10) 0.5123(9) 0.4943(16)
N6_5 N 0.9308(10) 0.4187(11) 0.5918(14)
C1_6 C 0.8243(11) 0.5504(10) 0.1473(15)
H1_6 H 0.851309 0.519900 0.093561
C2_5 C 0.7747(8) 0.5904(8) 0.3001(12)
H2_5 H 0.761694 0.595607 0.374087
C3_5 C 0.8267(9) 0.5322(8) 0.2605(13)
C4_5 C 0.8804(6) 0.4685(6) 0.4300(8)
C5_5 C 0.8788(5) 0.4708(5) 0.3184(8)
C6_5 C 0.9296(6) 0.4209(6) 0.2594(6)
H3_5 H 0.928435 0.422468 0.183187
C7_5 C 0.9820(6) 0.3685(6) 0.3119(8)
C8_5 C 0.9837(5) 0.3661(6) 0.4234(8)
C9_5 C 0.9329(6) 0.4161(6) 0.4825(6)
N9_4 N 0.7434(6) 0.6235(6) 0.8560(8)
N2_7 N 0.1147(7) 0.2199(7) 0.8779(11)
C1_7 C 0.0504(10) 0.1757(11) 0.8973(15)
H1_7 H 0.019900 0.148691 0.843561
H4_7 H 0.834337 0.983228 0.021541
C10_7 C 0.8148(7) 0.9490(6) 0.2275(12)
C11_7 C 0.7973(8) 0.9423(8) 0.3376(12)
H5_7 H 0.812993 0.980271 0.390827
C12_7 C 0.7721(9) 0.8861(8) 0.1858(12)
H6_7 H 0.765710 0.877502 0.110922
S1_6 S 0.5135(4) 0.3599(4) 0.8688(5)
N2_8 N 0.3853(7) 0.2801(7) 0.3779(11)
N5_6 N 0.4877(9) 0.3330(10) 0.7443(16)
N6_6 N 0.5813(11) 0.4308(10) 0.8418(14)
C1_8 C 0.4496(10) 0.3243(11) 0.3973(15)
H1_8 H 0.480100 0.351309 0.343561
C2_6 C 0.4096(8) 0.2747(8) 0.5501(12)
H2_6 H 0.404393 0.261694 0.624087
C3_6 C 0.4678(8) 0.3267(9) 0.5105(13)
C4_6 C 0.5315(6) 0.3804(6) 0.6800(8)
C5_6 C 0.5292(5) 0.3788(5) 0.5684(8)
C6_6 C 0.5791(6) 0.4296(6) 0.5094(6)
H3_6 H 0.577532 0.428435 0.433187
C7_6 C 0.6315(6) 0.4820(6) 0.5619(8)
H4_8 H 0.665663 0.516772 0.521541
C8_6 C 0.6339(6) 0.4837(5) 0.6734(8)
C9_6 C 0.5839(6) 0.4329(6) 0.7325(6)
C10_8 C 0.6852(7) 0.5510(6) 0.7275(12)
C11_8 C 0.7027(8) 0.5577(8) 0.8376(12)
H5_8 H 0.687007 0.519729 0.890827
C12_8 C 0.7279(9) 0.6139(8) 0.6858(12)
H6_8 H 0.734290 0.622498 0.610922
S1_7 S 0.0135(4) 0.8599(4) 0.3688(5)
N6_7 N 0.0813(11) 0.9308(10) 0.3418(14)
C4_7 C 0.0315(6) 0.8804(6) 0.1800(8)
C5_7 C 0.0292(5) 0.8788(5) 0.0684(8)
C6_7 C 0.0791(6) 0.9296(6) 0.0094(6)
C7_7 C 0.1315(6) 0.9820(6) 0.0619(8)
C8_7 C 0.1339(6) 0.9837(5) 0.1734(8)
C9_7 C 0.0839(6) 0.9329(6) 0.2325(6)
H3_7 H 0.077532 0.928435 0.933187
N5_7 N 0.9877(9) 0.8330(10) 0.2443(16)
C2_7 C 0.9096(8) 0.7747(8) 0.0501(12)
H2_7 H 0.904393 0.761694 0.124087
C3_7 C 0.9678(8) 0.8267(9) 0.0105(13)
N5_8 N 0.0123(9) 0.1670(10) 0.2443(16)
C2_8 C 0.0904(8) 0.2253(8) 0.0501(12)
H2_8 H 0.095607 0.238306 0.124087
C3_8 C 0.0322(8) 0.1733(9) 0.0105(13)
S1_8 S 0.9865(4) 0.1401(4) 0.3688(5)
N6_8 N 0.9187(11) 0.0692(10) 0.3418(14)
C4_8 C 0.9685(6) 0.1196(6) 0.1800(8)
C5_8 C 0.9708(5) 0.1212(5) 0.0684(8)
C6_8 C 0.9209(6) 0.0704(6) 0.0094(6)
C7_8 C 0.8685(6) 0.0180(6) 0.0619(8)
C8_8 C 0.8661(6) 0.0163(5) 0.1734(8)
C9_8 C 0.9161(6) 0.0671(6) 0.2325(6)
H3_8 H 0.922468 0.071565 0.933187
loop_
_geom_bond_atom_site_label_1
_geom_bond_atom_site_label_2
_geom_bond_site_symmetry_1
_geom_bond_site_symmetry_2
S1 N5 1_555 1_555
N1 N2 1_555 1_555
N2 C1 1_555 1_555
N5 C4 1_555 1_555
N6 S1 1_555 1_555
C1 H1 1_555 1_555
C2 N1 1_555 1_555
H2 C2 1_555 1_555
C3 C1 1_555 1_555
C4 C5 1_555 1_555
C5 C3 1_555 1_555
C6 C5 1_555 1_555
H3 C6 1_555 1_555
C7 C6 1_555 1_555
C8 C7 1_555 1_555
C9 N6 1_555 1_555
Zn4 N1 1_555 1_555
C2 C3 1_555 1_555
C4 C9 1_555 1_555
C8 C9 1_555 1_555
N7 Zn1 1_555 1_555
N9 Zn1 1_555 1_555
N3 N4 1_555 1_555
N4 C11 1_555 1_555
C11 C10 1_555 1_555
H5 C11 1_555 1_555
C12 N3 1_555 1_555
H6 C12 1_555 1_555
Zn2 N4 1_555 1_555
Zn3 N3 1_555 1_555
C10 C12 1_555 1_555
Zn1_2 N2_2 1_555 1_555
N1_2 N2_2 1_555 1_555
N2_2 C1_2 1_555 1_555
C1_2 H1_2 1_555 1_555
C2_2 N1_2 1_555 1_555
H2_2 C2_2 1_555 1_555
C3_2 C1_2 1_555 1_555
Zn4_2 N1_2 1_555 1_555
N7_2 Zn1_2 1_555 1_555
N8_2 Zn1_2 1_555 1_555
N9_2 Zn1_2 1_555 1_555
C2_2 C3_2 1_555 1_555
N3_2 N4_2 1_555 1_555
N4_2 C11_2 1_555 1_555
N6_2 S1_2 1_555 1_555
H5_2 C11_2 1_555 1_555
Zn2_2 N4_2 1_555 1_555
C4_2 C5_2 1_555 1_555
C6_2 C5_2 1_555 1_555
H3_2 C6_2 1_555 1_555
C7_2 C6_2 1_555 1_555
H4_2 C7_2 1_555 1_555
C8_2 C7_2 1_555 1_555
C10_2 C8_2 1_555 1_555
H6_2 C12_2 1_555 1_555
C4_2 C9_2 1_555 1_555
C8_2 C9_2 1_555 1_555
C10_2 C12_2 1_555 1_555
Zn2_2 N2_3 1_555 1_555
S1_3 N5_3 1_555 1_555
N1_3 N2_3 1_555 1_555
N2_3 C1_3 1_555 1_555
N3_3 N9 1_555 1_555
N9 C11_3 1_555 1_555
N5_3 C4_3 1_555 1_555
N6_3 S1_3 1_555 1_555
C1_3 H1_3 1_555 1_555
C2_3 N1_3 1_555 1_555
H2_3 C2_3 1_555 1_555
C3_3 C1_3 1_555 1_555
C4_3 C5_3 1_555 1_555
C5_3 C3_3 1_555 1_555
C6_3 C5_3 1_555 1_555
H3_3 C6_3 1_555 1_555
C7_3 C6_3 1_555 1_555
H4_3 C7_3 1_555 1_555
C8_3 C7_3 1_555 1_555
C9_3 N6_3 1_555 1_555
C10_3 C8_3 1_555 1_555
C11_3 C10_3 1_555 1_555
H5_3 C11_3 1_555 1_555
C12_3 N3_3 1_555 1_555
H6_3 C12_3 1_555 1_555
Zn4_2 N3_3 1_555 1_555
Zn3 N1_3 1_555 1_555
N7_3 Zn2_2 1_555 1_555
N8_3 Zn2_2 1_555 1_555
C2_3 C3_3 1_555 1_555
C4_3 C9_3 1_555 1_555
C8_3 C9_3 1_555 1_555
C10_3 C12_3 1_555 1_555
N3_4 N9_2 1_555 1_555
N9_2 C11_4 1_555 1_555
C11_4 C10_4 1_555 1_555
H5_4 C11_4 1_555 1_555
C12_4 N3_4 1_555 1_555
H6_4 C12_4 1_555 1_555
Zn4 N3_4 1_555 1_555
C10_4 C12_4 1_555 1_555
Zn2 N2_4 1_555 1_555
N1_4 N2_4 1_555 1_555
N2_4 C1_4 1_555 1_555
C1_4 H1_4 1_555 1_555
Zn3_2 N1_4 1_555 1_555
N7_4 Zn2 1_555 1_555
N8_4 Zn2 1_555 1_555
N8 N4_3 1_555 1_555
N4_3 C11_5 1_555 1_555
N6_4 S1_4 1_555 1_555
H5_5 C11_5 1_555 1_555
Zn4 N4_3 1_555 1_555
C4_4 C5_4 1_555 1_555
C6_4 C5_4 1_555 1_555
H3_4 C6_4 1_555 1_555
C7_4 C6_4 1_555 1_555
H4_5 C7_4 1_555 1_555
C8_4 C7_4 1_555 1_555
C10_5 C8_4 1_555 1_555
H6_5 C12_5 1_555 1_555
C4_4 C9_4 1_555 1_555
C8_4 C9_4 1_555 1_555
C10_5 C12_5 1_555 1_555
Zn3 N2_5 1_555 1_555
N7_4 N2_5 1_555 1_555
N2_5 C1_5 1_555 1_555
C1_5 H1_5 1_555 1_555
C2_4 N7_4 1_555 1_555
H2_4 C2_4 1_555 1_555
C3_4 C1_5 1_555 1_555
N9_3 Zn3 1_555 1_555
C2_4 C3_4 1_555 1_555
N8_2 N4_4 1_555 1_555
N4_4 C11_6 1_555 1_555
C11_6 C10_6 1_555 1_555
H5_6 C11_6 1_555 1_555
C12_6 N8_2 1_555 1_555
H6_6 C12_6 1_555 1_555
Zn4_2 N4_4 1_555 1_555
C10_6 C12_6 1_555 1_555
S1_5 N5_5 1_555 1_555
N7_3 N2_6 1_555 1_555
N2_6 C1_6 1_555 1_555
N5_5 C4_5 1_555 1_555
N6_5 S1_5 1_555 1_555
C1_6 H1_6 1_555 1_555
C2_5 N7_3 1_555 1_555
H2_5 C2_5 1_555 1_555
C3_5 C1_6 1_555 1_555
C4_5 C5_5 1_555 1_555
C5_5 C3_5 1_555 1_555
C6_5 C5_5 1_555 1_555
H3_5 C6_5 1_555 1_555
C7_5 C6_5 1_555 1_555
C8_5 C7_5 1_555 1_555
C9_5 N6_5 1_555 1_555
C2_5 C3_5 1_555 1_555
C4_5 C9_5 1_555 1_555
C8_5 C9_5 1_555 1_555
N9_4 Zn3_2 1_555 1_555
Zn4_2 N2_7 1_555 1_555
N7 N2_7 1_555 1_555
N2_7 C1_7 1_555 1_555
C1_7 H1_7 1_555 1_555
N8_3 N9_3 1_555 1_555
N9_3 C11_7 1_555 1_555
C11_7 C10_7 1_555 1_555
H5_7 C11_7 1_555 1_555
C12_7 N8_3 1_555 1_555
H6_7 C12_7 1_555 1_555
C10_7 C12_7 1_555 1_555
Zn4 N2_8 1_555 1_555
S1_6 N5_6 1_555 1_555
N7_2 N2_8 1_555 1_555
N2_8 C1_8 1_555 1_555
N8_4 N9_4 1_555 1_555
N9_4 C11_8 1_555 1_555
N5_6 C4_6 1_555 1_555
N6_6 S1_6 1_555 1_555
C1_8 H1_8 1_555 1_555
C2_6 N7_2 1_555 1_555
H2_6 C2_6 1_555 1_555
C3_6 C1_8 1_555 1_555
C4_6 C5_6 1_555 1_555
C5_6 C3_6 1_555 1_555
C6_6 C5_6 1_555 1_555
H3_6 C6_6 1_555 1_555
C7_6 C6_6 1_555 1_555
H4_8 C7_6 1_555 1_555
C8_6 C7_6 1_555 1_555
C9_6 N6_6 1_555 1_555
C10_8 C8_6 1_555 1_555
C11_8 C10_8 1_555 1_555
H5_8 C11_8 1_555 1_555
C12_8 N8_4 1_555 1_555
H6_8 C12_8 1_555 1_555
C2_6 C3_6 1_555 1_555
C4_6 C9_6 1_555 1_555
C8_6 C9_6 1_555 1_555
C10_8 C12_8 1_555 1_555
N6_7 S1_7 1_555 1_555
C4_7 C5_7 1_555 1_555
C6_7 C5_7 1_555 1_555
C7_7 C6_7 1_555 1_555
C8_7 C7_7 1_555 1_555
C9_7 N6_7 1_555 1_555
C4_7 C9_7 1_555 1_555
C8_7 C9_7 1_555 1_555
H2_7 C2_7 1_555 1_555
C2_7 C3_7 1_555 1_555
H2_8 C2_8 1_555 1_555
C2_8 C3_8 1_555 1_555
N6_8 S1_8 1_555 1_555
C4_8 C5_8 1_555 1_555
C6_8 C5_8 1_555 1_555
C7_8 C6_8 1_555 1_555
C8_8 C7_8 1_555 1_555
C9_8 N6_8 1_555 1_555
C4_8 C9_8 1_555 1_555
C8_8 C9_8 1_555 1_555

#END
