
###############################################################################
#
# This file contains modified crystal structure data generated from the
# MOF subset of the Cambridge Structural Database (CSD) v543 
# hosted by the Cambridge Crystallographic Data Centre (CCDC).
#
# This work is licensed under the Creative Commons
# Attribution-NonCommercial-ShareAlike 4.0 International License.
# To view a copy of this license, visit
# http://creativecommons.org/licenses/by-nc-sa/4.0/
# or send a letter to
# Creative Commons, PO Box 1866, Mountain View, CA 94042, USA.
#
# CIF created using the CSD Python API on 29 September 2022
# The structure has been converted into the P1 space group
# The structure has a 3D framework
# The original CSD entry DEJJEK is in the rhombohedral crystal system
# The framework has been calculated to contain at least 10.0% void space
# The void calculation uses a probe of radius 1.32A, grid spacing 0.4
#
###############################################################################

data_DEJJEK
_chemical_formula_moiety         '(C90 H18 O61 Sc14)n'
_symmetry_cell_setting           triclinic
_symmetry_space_group_name_H-M   'P 1'
_symmetry_Int_Tables_number      1
_space_group_name_Hall           'P 1'
loop_
_symmetry_equiv_pos_site_id
_symmetry_equiv_pos_as_xyz
1 x,y,z
_cell_length_a                   15.934(9)
_cell_length_b                   15.934(9)
_cell_length_c                   10.762(4)
_cell_angle_alpha                90
_cell_angle_beta                 90
_cell_angle_gamma                120
_cell_volume                     2366.32
loop_
_atom_site_label
_atom_site_type_symbol
_atom_site_fract_x
_atom_site_fract_y
_atom_site_fract_z
Sc1 Sc 0.3333 0.1667 0.6667
Sc2 Sc 0.0000 0.0000 0.5000
O1 O 0.1275(2) 0.0631(3) 0.3880(2)
O3 O 0.3304(2) 0.2139(2) 0.4904(2)
O4 O 0.2545(3) 0.2830(2) 0.4052(2)
C1 C 0.2955(3) 0.2338(3) 0.3987(3)
C2 C 0.3113(3) 0.1991(3) 0.2752(3)
C3 C 0.2528(3) 0.1025(3) 0.2385(3)
C4 C 0.3909(3) 0.2619(3) 0.2049(3)
H1 H 0.4298 0.3256 0.2311
C5 C 0.1670(3) 0.0318(4) 0.3138(3)
C7 C 0.3554(3) 0.1342(3) 0.0581(3)
C8 C 0.4139(3) 0.2308(3) 0.0948(3)
C9 C 0.2758(3) 0.0714(3) 0.1284(3)
H2 H 0.2369 0.0077 0.1022
O7 O 0.5287(2) 0.3901(3) 0.0348(2)
C10 C 0.4997(3) 0.3015(4) 0.0195(3)
O10 O 0.0568(3) 0.1948(4) 0.2985(2)
Sc9 Sc -0.0000 0.5000 0.0000
Sc11 Sc 0.5000 0.4999 0.0000
Sc13 Sc 0.5001 0.0000 0.0000
Sc16 Sc 0.1667 0.3334 0.3334
O27 O 0.0644(4) 0.1275(2) 0.6120(2)
O30 O 0.4719(4) 0.1953(2) 0.6318(2)
O33 O 0.1948(4) 0.1380(2) 0.7015(2)
O34 O 0.3363(2) 0.1194(2) 0.8429(2)
O38 O 0.3837(2) 0.3048(4) 0.7385(2)
O41 O 0.2830(2) 0.0285(4) 0.5948(2)
C6 C 0.3712(3) 0.0995(3) 0.9346(3)
O6 O 0.5392(2) 0.2702(3) 0.9453(2)
O8 O 0.4122(3) 0.0503(2) 0.9281(2)
Sc9_2 Sc -0.0000 0.5000 1.0000
Sc11_2 Sc 0.5000 0.4999 1.0000
Sc13_2 Sc 0.5001 0.0000 1.0000
Sc19 Sc 0.6667 0.3333 0.8333
Sc2_2 Sc -0.0000 1.0000 0.5000
O2 O 0.1380(2) 0.9432(3) 0.2985(2)
O20 O 0.0285(4) 0.7455(3) 0.4052(2)
Sc13_3 Sc 0.5001 1.0000 0.0000
Sc15 Sc 0.1666 0.8333 0.3334
O26 O 0.0631(3) 0.9356(4) 0.6120(2)
Sc13_4 Sc 0.5001 1.0000 1.0000
Sc2_3 Sc 1.0000 0.0000 0.5000
Sc3 Sc 0.8333 0.1666 0.6667
O9 O 0.9369(3) 0.0644(4) 0.3880(2)
O11 O 0.7861(2) 0.1165(3) 0.4904(2)
C11 C 0.7662(3) 0.0617(4) 0.3987(3)
C12 C 0.8009(3) 0.1122(4) 0.2752(3)
C13 C 0.8975(3) 0.1503(4) 0.2385(3)
C14 C 0.7381(3) 0.1290(4) 0.2049(3)
H3 H 0.6744 0.1042 0.2311
C15 C 0.9682(4) 0.1352(5) 0.3138(3)
C17 C 0.8658(3) 0.2211(4) 0.0581(3)
C18 C 0.7692(3) 0.1830(4) 0.0948(3)
C19 C 0.9286(3) 0.2043(4) 0.1284(3)
H4 H 0.9923 0.2291 0.1022
O15 O 0.6099(3) 0.1385(4) 0.0348(2)
C20 C 0.6985(4) 0.1981(5) 0.0195(3)
Sc9_3 Sc 1.0000 0.5000 0.0000
O28 O 0.8047(2) 0.2765(3) 0.6318(2)
O31 O 0.8620(2) 0.0568(3) 0.7015(2)
O35 O 0.8806(2) 0.2168(3) 0.8429(2)
O39 O 0.6952(4) 0.0788(3) 0.7385(2)
O42 O 0.9715(4) 0.2545(3) 0.5948(2)
C16 C 0.9005(3) 0.2716(4) 0.9346(3)
O14 O 0.7298(3) 0.2689(4) 0.9453(2)
O16 O 0.9497(2) 0.3618(4) 0.9281(2)
Sc9_4 Sc 1.0000 0.5000 1.0000
Sc2_4 Sc 1.0000 1.0000 0.5000
O12 O 0.7170(2) 0.9715(4) 0.4052(2)
Sc4 Sc 0.8334 0.6667 0.6667
O17 O 0.9356(4) 0.8725(2) 0.3880(2)
O18 O 0.8052(4) 0.8620(2) 0.2985(2)
O19 O 0.8835(3) 0.6696(2) 0.4904(2)
C21 C 0.9383(4) 0.7045(3) 0.3987(3)
C22 C 0.8878(4) 0.6887(3) 0.2752(3)
C23 C 0.8497(4) 0.7472(3) 0.2385(3)
C24 C 0.8710(4) 0.6091(3) 0.2049(3)
H5 H 0.8958 0.5702 0.2311
C25 C 0.8648(5) 0.8330(3) 0.3138(3)
C27 C 0.7789(4) 0.6446(3) 0.0581(3)
C28 C 0.8170(4) 0.5861(3) 0.0948(3)
C29 C 0.7957(4) 0.7242(3) 0.1284(3)
H6 H 0.7709 0.7631 0.1022
O23 O 0.8615(4) 0.4713(2) 0.0348(2)
C30 C 0.8019(5) 0.5003(3) 0.0195(3)
Sc14 Sc 0.6666 0.8334 0.3334
O25 O 0.8725(2) 0.9369(3) 0.6120(2)
O29 O 0.7235(3) 0.5281(4) 0.6318(2)
O32 O 0.9432(3) 0.8052(4) 0.7015(2)
O36 O 0.7832(3) 0.6637(2) 0.8429(2)
O37 O 0.9212(3) 0.6163(2) 0.7385(2)
O40 O 0.7455(3) 0.7170(2) 0.5948(2)
C26 C 0.7284(4) 0.6288(3) 0.9346(3)
O22 O 0.7311(4) 0.4608(2) 0.9453(2)
O24 O 0.6382(4) 0.5878(3) 0.9281(2)
O34_2 O 0.0029(2) 0.4528(2) 0.1763(2)
O38_2 O 0.0503(2) 0.6382(4) 0.0719(2)
C4_2 C 0.0576(3) 0.5952(3) 0.5382(3)
H1_2 H 0.0965 0.6589 0.5644
C6_2 C 0.0378(3) 0.4329(3) 0.2680(3)
C7_2 C 0.0220(3) 0.4676(3) 0.3915(3)
C8_2 C 0.0805(3) 0.5642(3) 0.4282(3)
O6_2 O 0.2058(2) 0.6036(3) 0.2787(2)
O7_2 O 0.1953(2) 0.7235(3) 0.3682(2)
C10_2 C 0.1663(3) 0.6349(4) 0.3529(3)
O8_2 O 0.0788(3) 0.3837(2) 0.2615(2)
Sc19_2 Sc 0.3333 0.6667 0.1667
O30_2 O 0.1385(4) 0.5287(2) 0.9652(2)
O35_2 O 0.5472(2) 0.5502(3) 0.1763(2)
O39_2 O 0.3618(4) 0.4122(3) 0.0719(2)
O1_2 O 0.7942(2) 0.3964(3) 0.7213(2)
O3_2 O 0.9971(2) 0.5472(2) 0.8237(2)
C1_2 C 0.9622(3) 0.5671(3) 0.7320(3)
C2_2 C 0.9780(3) 0.5324(3) 0.6085(3)
C3_2 C 0.9195(3) 0.4358(3) 0.5718(3)
C5_2 C 0.8337(3) 0.3651(4) 0.6471(3)
C9_2 C 0.9424(3) 0.4048(3) 0.4618(3)
H2_2 H 0.9035 0.3411 0.4356
O9_2 O 0.6036(3) 0.3977(4) 0.7213(2)
O11_2 O 0.4528(2) 0.4498(3) 0.8237(2)
C11_2 C 0.4329(3) 0.3950(4) 0.7320(3)
C12_2 C 0.4676(3) 0.4455(4) 0.6085(3)
C13_2 C 0.5642(3) 0.4836(4) 0.5718(3)
C14_2 C 0.4048(3) 0.4623(4) 0.5382(3)
H3_2 H 0.3411 0.4375 0.5644
C15_2 C 0.6349(4) 0.4685(5) 0.6471(3)
C16_2 C 0.5671(3) 0.6050(4) 0.2680(3)
C17_2 C 0.5324(3) 0.5545(4) 0.3915(3)
C18_2 C 0.4358(3) 0.5164(4) 0.4282(3)
C19_2 C 0.5952(3) 0.5377(4) 0.4618(3)
H4_2 H 0.6589 0.5625 0.4356
O14_2 O 0.3964(3) 0.6023(4) 0.2787(2)
O15_2 O 0.2765(3) 0.4719(4) 0.3682(2)
C20_2 C 0.3651(4) 0.5315(5) 0.3529(3)
O16_2 O 0.6163(2) 0.6952(4) 0.2615(2)
O17_2 O 0.6023(4) 0.2058(2) 0.7213(2)
O19_2 O 0.5502(3) 0.0029(2) 0.8237(2)
C21_2 C 0.6050(4) 0.0378(3) 0.7320(3)
C22_2 C 0.5545(4) 0.0220(3) 0.6085(3)
C23_2 C 0.5164(4) 0.0805(3) 0.5718(3)
C25_2 C 0.5315(5) 0.1663(3) 0.6471(3)
C29_2 C 0.4623(4) 0.0576(3) 0.4618(3)
H6_2 H 0.4375 0.0965 0.4356
O28_2 O 0.4713(2) 0.6099(3) 0.9652(2)
O36_2 O 0.4498(3) 0.9971(2) 0.1763(2)
O37_2 O 0.5878(3) 0.9497(2) 0.0719(2)
C24_2 C 0.5377(4) 0.9424(3) 0.5382(3)
H5_2 H 0.5625 0.9035 0.5644
C26_2 C 0.3950(4) 0.9622(3) 0.2680(3)
C27_2 C 0.4455(4) 0.9780(3) 0.3915(3)
C28_2 C 0.4836(4) 0.9195(3) 0.4282(3)
O22_2 O 0.3977(4) 0.7942(2) 0.2787(2)
O23_2 O 0.5281(4) 0.8047(2) 0.3682(2)
C30_2 C 0.4685(5) 0.8337(3) 0.3529(3)
O24_2 O 0.3048(4) 0.9212(3) 0.2615(2)
O29_2 O 0.3901(3) 0.8615(4) 0.9652(2)
O1_3 O 0.4608(2) 0.7298(3) 0.0547(2)
O3_3 O 0.6637(2) 0.8806(2) 0.1571(2)
C1_3 C 0.6288(3) 0.9005(3) 0.0654(3)
O9_3 O 0.2702(3) 0.7311(4) 0.0547(2)
O11_3 O 0.1194(2) 0.7832(3) 0.1571(2)
C11_3 C 0.0995(3) 0.7284(4) 0.0654(3)
O17_3 O 0.2689(4) 0.5392(2) 0.0547(2)
O19_3 O 0.2168(3) 0.3363(2) 0.1571(2)
C21_3 C 0.2716(4) 0.3712(3) 0.0654(3)
O34_3 O 0.6696(2) 0.7861(2) 0.5096(2)
O35_3 O 0.2139(2) 0.8835(3) 0.5096(2)
O36_3 O 0.1165(3) 0.3304(2) 0.5096(2)
C2_3 C 0.6446(3) 0.8658(3) 0.9419(3)
C3_3 C 0.5861(3) 0.7692(3) 0.9052(3)
C4_3 C 0.7242(3) 0.9286(3) 0.8716(3)
H1_3 H 0.7631 0.9923 0.8978
C5_3 C 0.5003(3) 0.6985(4) 0.9805(3)
C6_3 C 0.7045(3) 0.7662(3) 0.6013(3)
C7_3 C 0.6887(3) 0.8009(3) 0.7248(3)
C8_3 C 0.7472(3) 0.8975(3) 0.7615(3)
C9_3 C 0.6091(3) 0.7381(3) 0.7951(3)
H2_3 H 0.5702 0.6744 0.7689
C10_3 C 0.8330(3) 0.9682(4) 0.6862(3)
C12_3 C 0.1342(3) 0.7789(4) 0.9419(3)
C13_3 C 0.2308(3) 0.8170(4) 0.9052(3)
C14_3 C 0.0714(3) 0.7957(4) 0.8716(3)
H3_3 H 0.0077 0.7709 0.8978
C15_3 C 0.3015(4) 0.8019(5) 0.9805(3)
C16_3 C 0.2338(3) 0.9383(4) 0.6013(3)
C17_3 C 0.1991(3) 0.8878(4) 0.7248(3)
C18_3 C 0.1025(3) 0.8497(4) 0.7615(3)
C19_3 C 0.2619(3) 0.8710(4) 0.7951(3)
H4_3 H 0.3256 0.8958 0.7689
C20_3 C 0.0318(4) 0.8648(5) 0.6862(3)
C22_3 C 0.2211(4) 0.3554(3) 0.9419(3)
C23_3 C 0.1830(4) 0.4139(3) 0.9052(3)
C24_3 C 0.2043(4) 0.2758(3) 0.8716(3)
H5_3 H 0.2291 0.2369 0.8978
C25_3 C 0.1981(5) 0.4997(3) 0.9805(3)
C26_3 C 0.0617(4) 0.2955(3) 0.6013(3)
C27_3 C 0.1122(4) 0.3113(3) 0.7248(3)
C28_3 C 0.1503(4) 0.2528(3) 0.7615(3)
C29_3 C 0.1290(4) 0.3909(3) 0.7951(3)
H6_3 H 0.1042 0.4298 0.7689
C30_3 C 0.1352(5) 0.1670(3) 0.6862(3)
loop_
_geom_bond_atom_site_label_1
_geom_bond_atom_site_label_2
_geom_bond_site_symmetry_1
_geom_bond_site_symmetry_2
Sc1 O3 1_555 1_555
Sc2 O1 1_555 1_555
O1 C5 1_555 1_555
O3 C1 1_555 1_555
O4 C1 1_555 1_555
C1 C2 1_555 1_555
C2 C3 1_555 1_555
C3 C5 1_555 1_555
C4 C2 1_555 1_555
H1 C4 1_555 1_555
C7 C8 1_555 1_555
C8 C4 1_555 1_555
C9 C3 1_555 1_555
H2 C9 1_555 1_555
O7 C10 1_555 1_555
C10 C8 1_555 1_555
Sc11 O7 1_555 1_555
Sc16 O4 1_555 1_555
O27 Sc2 1_555 1_555
O30 Sc1 1_555 1_555
O33 Sc1 1_555 1_555
O34 Sc1 1_555 1_555
O38 Sc1 1_555 1_555
O41 Sc1 1_555 1_555
C7 C9 1_555 1_555
O10 Sc16 1_555 1_555
O34 C6 1_555 1_555
O8 C6 1_555 1_555
Sc13_2 O8 1_555 1_555
Sc19 O6 1_555 1_555
Sc15 O2 1_555 1_555
O26 Sc2_2 1_555 1_555
O20 Sc15 1_555 1_555
Sc3 O11 1_555 1_555
O9 Sc2_3 1_555 1_555
O11 C11 1_555 1_555
C11 C12 1_555 1_555
C12 C13 1_555 1_555
C13 C15 1_555 1_555
C14 C12 1_555 1_555
H3 C14 1_555 1_555
C15 O9 1_555 1_555
C17 C18 1_555 1_555
C18 C14 1_555 1_555
C19 C13 1_555 1_555
H4 C19 1_555 1_555
O15 C20 1_555 1_555
C20 C18 1_555 1_555
Sc13 O15 1_555 1_555
O28 Sc3 1_555 1_555
O31 Sc3 1_555 1_555
O35 Sc3 1_555 1_555
O39 Sc3 1_555 1_555
O42 Sc3 1_555 1_555
C17 C19 1_555 1_555
O35 C16 1_555 1_555
O16 C16 1_555 1_555
Sc9_4 O16 1_555 1_555
Sc19 O14 1_555 1_555
Sc4 O19 1_555 1_555
O17 Sc2_4 1_555 1_555
O18 C25 1_555 1_555
O19 C21 1_555 1_555
C21 C22 1_555 1_555
C22 C23 1_555 1_555
C23 C25 1_555 1_555
C24 C22 1_555 1_555
H5 C24 1_555 1_555
C25 O17 1_555 1_555
C27 C28 1_555 1_555
C28 C24 1_555 1_555
C29 C23 1_555 1_555
H6 C29 1_555 1_555
O23 C30 1_555 1_555
C30 C28 1_555 1_555
Sc9_3 O23 1_555 1_555
Sc14 O12 1_555 1_555
O25 Sc2_4 1_555 1_555
O29 Sc4 1_555 1_555
O32 Sc4 1_555 1_555
O36 Sc4 1_555 1_555
O37 Sc4 1_555 1_555
O40 Sc4 1_555 1_555
O18 Sc14 1_555 1_555
C27 C29 1_555 1_555
O36 C26 1_555 1_555
O24 C26 1_555 1_555
Sc11_2 O24 1_555 1_555
Sc19 O22 1_555 1_555
O34_2 Sc9 1_555 1_555
O38_2 Sc9 1_555 1_555
H1_2 C4_2 1_555 1_555
O34_2 C6_2 1_555 1_555
C6_2 C7_2 1_555 1_555
C7_2 C8_2 1_555 1_555
C8_2 C4_2 1_555 1_555
O6_2 C10_2 1_555 1_555
O7_2 C10_2 1_555 1_555
C10_2 C8_2 1_555 1_555
O8_2 C6_2 1_555 1_555
Sc15 O7_2 1_555 1_555
Sc16 O8_2 1_555 1_555
Sc19_2 O6_2 1_555 1_555
O30_2 Sc9_2 1_555 1_555
O35_2 Sc11 1_555 1_555
O39_2 Sc11 1_555 1_555
Sc9_4 O3_2 1_555 1_555
Sc19 O1_2 1_555 1_555
O1_2 C5_2 1_555 1_555
O28 C5_2 1_555 1_555
O3_2 C1_2 1_555 1_555
O37 C1_2 1_555 1_555
C1_2 C2_2 1_555 1_555
C2_2 C3_2 1_555 1_555
C3_2 C5_2 1_555 1_555
C9_2 C3_2 1_555 1_555
H2_2 C9_2 1_555 1_555
Sc11_2 O11_2 1_555 1_555
O9_2 Sc19 1_555 1_555
O29 C15_2 1_555 1_555
O11_2 C11_2 1_555 1_555
O38 C11_2 1_555 1_555
C11_2 C12_2 1_555 1_555
C12_2 C13_2 1_555 1_555
C13_2 C15_2 1_555 1_555
C14_2 C12_2 1_555 1_555
H3_2 C14_2 1_555 1_555
C15_2 O9_2 1_555 1_555
O35_2 C16_2 1_555 1_555
C16_2 C17_2 1_555 1_555
C17_2 C18_2 1_555 1_555
C18_2 C14_2 1_555 1_555
C19_2 C13_2 1_555 1_555
H4_2 C19_2 1_555 1_555
O14_2 C20_2 1_555 1_555
O15_2 C20_2 1_555 1_555
C20_2 C18_2 1_555 1_555
O16_2 C16_2 1_555 1_555
Sc13_2 O19_2 1_555 1_555
O17_2 Sc19 1_555 1_555
O30 C25_2 1_555 1_555
O19_2 C21_2 1_555 1_555
O39 C21_2 1_555 1_555
C21_2 C22_2 1_555 1_555
C22_2 C23_2 1_555 1_555
C23_2 C25_2 1_555 1_555
C25_2 O17_2 1_555 1_555
C29_2 C23_2 1_555 1_555
H6_2 C29_2 1_555 1_555
Sc14 O16_2 1_555 1_555
Sc16 O15_2 1_555 1_555
Sc19_2 O14_2 1_555 1_555
O28_2 Sc11_2 1_555 1_555
C17_2 C19_2 1_555 1_555
O36_2 Sc13_3 1_555 1_555
O37_2 Sc13_3 1_555 1_555
H5_2 C24_2 1_555 1_555
O36_2 C26_2 1_555 1_555
C26_2 C27_2 1_555 1_555
C27_2 C28_2 1_555 1_555
C28_2 C24_2 1_555 1_555
O22_2 C30_2 1_555 1_555
O23_2 C30_2 1_555 1_555
C30_2 C28_2 1_555 1_555
O24_2 C26_2 1_555 1_555
Sc14 O23_2 1_555 1_555
Sc15 O24_2 1_555 1_555
Sc19_2 O22_2 1_555 1_555
O29_2 Sc13_4 1_555 1_555
Sc14 O3_3 1_555 1_555
Sc19_2 O1_3 1_555 1_555
O3_3 C1_3 1_555 1_555
O37_2 C1_3 1_555 1_555
Sc15 O11_3 1_555 1_555
O9_3 Sc19_2 1_555 1_555
O11_3 C11_3 1_555 1_555
O38_2 C11_3 1_555 1_555
Sc16 O19_3 1_555 1_555
O17_3 Sc19_2 1_555 1_555
O19_3 C21_3 1_555 1_555
O39_2 C21_3 1_555 1_555
O34_3 Sc14 1_555 1_555
O35_3 Sc15 1_555 1_555
O36_3 Sc16 1_555 1_555
O28_2 C5_3 1_555 1_555
C2_3 C3_3 1_555 1_555
C3_3 C5_3 1_555 1_555
C4_3 C2_3 1_555 1_555
H1_3 C4_3 1_555 1_555
O34_3 C6_3 1_555 1_555
C6_3 C7_3 1_555 1_555
C7_3 C8_3 1_555 1_555
C8_3 C4_3 1_555 1_555
C9_3 C3_3 1_555 1_555
H2_3 C9_3 1_555 1_555
O25 C10_3 1_555 1_555
C10_3 C8_3 1_555 1_555
O40 C6_3 1_555 1_555
O29_2 C15_3 1_555 1_555
C12_3 C13_3 1_555 1_555
C13_3 C15_3 1_555 1_555
C14_3 C12_3 1_555 1_555
H3_3 C14_3 1_555 1_555
O35_3 C16_3 1_555 1_555
C16_3 C17_3 1_555 1_555
C17_3 C18_3 1_555 1_555
C18_3 C14_3 1_555 1_555
C19_3 C13_3 1_555 1_555
H4_3 C19_3 1_555 1_555
O26 C20_3 1_555 1_555
C20_3 C18_3 1_555 1_555
O30_2 C25_3 1_555 1_555
C22_3 C23_3 1_555 1_555
C23_3 C25_3 1_555 1_555
C24_3 C22_3 1_555 1_555
H5_3 C24_3 1_555 1_555
O36_3 C26_3 1_555 1_555
C26_3 C27_3 1_555 1_555
C27_3 C28_3 1_555 1_555
C28_3 C24_3 1_555 1_555
C29_3 C23_3 1_555 1_555
H6_3 C29_3 1_555 1_555
O27 C30_3 1_555 1_555
O33 C30_3 1_555 1_555
C30_3 C28_3 1_555 1_555
C7_3 C9_3 1_555 1_555
C17_3 C19_3 1_555 1_555
C27_3 C29_3 1_555 1_555

#END
