
###############################################################################
#
# This file contains modified crystal structure data generated from the
# MOF subset of the Cambridge Structural Database (CSD) v543 
# hosted by the Cambridge Crystallographic Data Centre (CCDC).
#
# This work is licensed under the Creative Commons
# Attribution-NonCommercial-ShareAlike 4.0 International License.
# To view a copy of this license, visit
# http://creativecommons.org/licenses/by-nc-sa/4.0/
# or send a letter to
# Creative Commons, PO Box 1866, Mountain View, CA 94042, USA.
#
# CIF created using the CSD Python API on 29 September 2022
# The structure has been converted into the P1 space group
# The structure has a 3D framework
# The original CSD entry DEJTIW is in the monoclinic crystal system
# The framework has been calculated to contain at least 10.0% void space
# The void calculation uses a probe of radius 1.32A, grid spacing 0.4
#
###############################################################################

data_DEJTIW
_chemical_formula_moiety         '(C36 H36 Cd4 O22)n'
_symmetry_cell_setting           triclinic
_symmetry_space_group_name_H-M   'P 1'
_symmetry_Int_Tables_number      1
_space_group_name_Hall           'P 1'
loop_
_symmetry_equiv_pos_site_id
_symmetry_equiv_pos_as_xyz
1 x,y,z
_cell_length_a                   9.2484(18)
_cell_length_b                   15.569(3)
_cell_length_c                   8.6385(17)
_cell_angle_alpha                90
_cell_angle_beta                 95.42(3)
_cell_angle_gamma                90
_cell_volume                     1238.28
loop_
_atom_site_label
_atom_site_type_symbol
_atom_site_fract_x
_atom_site_fract_y
_atom_site_fract_z
O5 O 0.1022(5) 0.2365(4) 0.2160(7)
O6 O 0.0535(5) 0.3450(4) 0.0667(7)
C9 C 0.0241(7) 0.2715(6) 0.1157(10)
Cd4 Cd 0.27136(5) 0.33710(4) 0.26931(7)
O3 O 0.4803(4) 0.3241(4) 0.1577(5)
C2 C 0.7434(7) 0.0882(5) 0.0403(8)
C3 C 0.6109(6) 0.1385(5) 0.0760(9)
H2 H 0.6089 0.1429 0.1877
H3 H 0.5241 0.1083 0.0344
C4 C 0.6117(6) 0.2292(5) 0.0051(9)
C5 C 0.7518(6) 0.2765(5) 0.0638(9)
H5 H 0.7502 0.2880 0.1740
H6 H 0.7541 0.3314 0.0109
C6 C 0.8909(6) 0.2264(5) 0.0385(9)
C7 C 0.8849(7) 0.1348(5) 0.1015(10)
H8 H 0.8916 0.1366 0.2142
H9 H 0.9676 0.1027 0.0714
C8 C 0.4744(7) 0.2730(5) 0.0440(10)
O4 O 0.3567(5) 0.2565(4) 0.9618(7)
H1 H 0.7420 0.0837 0.9270
H4 H 0.6086 0.2237 0.8918
H7 H 0.8999 0.2234 0.9265
Cd3 Cd 0.27136(5) 0.16290(4) 0.76931(7)
Cd1 Cd 0.72864(5) 0.83710(4) 0.23069(7)
O1 O 0.7080(5) 0.9859(4) 0.2379(7)
O2 O 0.7749(5) 0.9348(3) 0.0255(6)
C1 C 0.7423(6) 0.9962(6) 0.1070(10)
O7 O 0.5197(4) 0.8241(4) 0.3423(5)
O8 O 0.6433(5) 0.7435(4) 0.0382(7)
O9 O 0.8978(5) 0.7365(4) 0.2840(7)
O10 O 0.9465(5) 0.8450(4) 0.4333(7)
O1_2 O 0.2920(5) 0.4859(4) 0.2621(7)
O2_2 O 0.2251(5) 0.4348(3) 0.4745(6)
O4_2 O 0.6433(5) 0.7565(4) 0.5382(7)
C1_2 C 0.2577(6) 0.4962(6) 0.3930(10)
C2_2 C 0.2566(7) 0.5882(5) 0.4597(8)
H1_2 H 0.2580 0.5837 0.5730
C3_2 C 0.3891(6) 0.6385(5) 0.4240(9)
H2_2 H 0.3911 0.6429 0.3123
H3_2 H 0.4759 0.6083 0.4656
C4_2 C 0.3883(6) 0.7292(5) 0.4949(9)
H4_2 H 0.3914 0.7237 0.6082
C5_2 C 0.2482(6) 0.7765(5) 0.4362(9)
H5_2 H 0.2498 0.7880 0.3260
H6_2 H 0.2459 0.8314 0.4891
C6_2 C 0.1091(6) 0.7264(5) 0.4615(9)
H7_2 H 0.1001 0.7234 0.5735
C7_2 C 0.1151(7) 0.6348(5) 0.3985(10)
H8_2 H 0.1084 0.6366 0.2858
H9_2 H 0.0324 0.6027 0.4286
C8_2 C 0.5256(7) 0.7730(5) 0.4560(10)
Cd3_2 Cd 0.72864(5) 0.66290(4) 0.73069(7)
O8_2 O 0.3567(5) 0.2435(4) 0.4618(7)
C9_2 C 0.9759(7) 0.7715(6) 0.3843(10)
O1_3 O 0.2920(5) 0.0141(4) 0.7621(7)
O2_3 O 0.2251(5) 0.0652(3) 0.9745(6)
C1_3 C 0.2577(6) 0.0038(6) 0.8930(10)
O7_2 O 0.4803(4) 0.1759(4) 0.6577(5)
O9_2 O 0.1022(5) 0.2635(4) 0.7160(7)
O10_2 O 0.0535(5) 0.1550(4) 0.5667(7)
H1_3 H 0.2580 0.9163 0.0730
H4_3 H 0.3914 0.7763 0.1082
H7_3 H 0.1001 0.7766 0.0735
O3_2 O 0.5197(4) 0.6759(4) 0.8423(5)
C2_3 C 0.2566(7) 0.9118(5) 0.9597(8)
C3_3 C 0.3891(6) 0.8615(5) 0.9240(9)
H2_3 H 0.3911 0.8571 0.8123
H3_3 H 0.4759 0.8917 0.9656
C4_3 C 0.3883(6) 0.7708(5) 0.9949(9)
C5_3 C 0.2482(6) 0.7235(5) 0.9362(9)
H5_3 H 0.2498 0.7120 0.8260
H6_3 H 0.2459 0.6686 0.9891
C6_3 C 0.1091(6) 0.7736(5) 0.9615(9)
C7_3 C 0.1151(7) 0.8652(5) 0.8985(10)
H8_3 H 0.1084 0.8634 0.7858
H9_3 H 0.0324 0.8973 0.9286
C8_3 C 0.5256(7) 0.7270(5) 0.9560(10)
O5_2 O 0.8978(5) 0.7635(4) 0.7840(7)
O6_2 O 0.9465(5) 0.6550(4) 0.9333(7)
C9_3 C 0.9759(7) 0.7285(6) 0.8843(10)
C9_4 C 0.0241(7) 0.2285(6) 0.6157(10)
O1_4 O 0.7080(5) 0.5141(4) 0.7379(7)
O2_4 O 0.7749(5) 0.5652(3) 0.5255(6)
C1_4 C 0.7423(6) 0.5038(6) 0.6070(10)
C2_4 C 0.7434(7) 0.4118(5) 0.5403(8)
H1_4 H 0.7420 0.4163 0.4270
C3_4 C 0.6109(6) 0.3615(5) 0.5760(9)
H2_4 H 0.6089 0.3571 0.6877
H3_4 H 0.5241 0.3917 0.5344
C4_4 C 0.6117(6) 0.2708(5) 0.5051(9)
H4_4 H 0.6086 0.2763 0.3918
C5_4 C 0.7518(6) 0.2235(5) 0.5638(9)
H5_4 H 0.7502 0.2120 0.6740
H6_4 H 0.7541 0.1686 0.5109
C6_4 C 0.8909(6) 0.2736(5) 0.5385(9)
H7_4 H 0.8999 0.2766 0.4265
C7_4 C 0.8849(7) 0.3652(5) 0.6015(10)
H8_4 H 0.8916 0.3634 0.7142
H9_4 H 0.9676 0.3973 0.5714
C8_4 C 0.4744(7) 0.2270(5) 0.5440(10)
loop_
_geom_bond_atom_site_label_1
_geom_bond_atom_site_label_2
_geom_bond_site_symmetry_1
_geom_bond_site_symmetry_2
O5 C9 1_555 1_555
O6 C9 1_555 1_555
Cd4 O5 1_555 1_555
O6 Cd4 1_555 1_555
O3 C8 1_555 1_555
C3 C2 1_555 1_555
H2 C3 1_555 1_555
H3 C3 1_555 1_555
C4 C3 1_555 1_555
C5 C4 1_555 1_555
H5 C5 1_555 1_555
H6 C5 1_555 1_555
C6 C5 1_555 1_555
C7 C2 1_555 1_555
H8 C7 1_555 1_555
H9 C7 1_555 1_555
C8 C4 1_555 1_555
Cd4 O3 1_555 1_555
C6 C7 1_555 1_555
Cd3 O4 1_555 1_555
Cd1 O1 1_555 1_555
O1 C1 1_555 1_555
O2 Cd1 1_555 1_555
C1 O2 1_555 1_555
O7 Cd1 1_555 1_555
O8 Cd1 1_555 1_555
O9 Cd1 1_555 1_555
O10 Cd1 1_555 1_555
Cd4 O1_2 1_555 1_555
O1_2 C1_2 1_555 1_555
O2_2 Cd4 1_555 1_555
O7 C8_2 1_555 1_555
O4_2 C8_2 1_555 1_555
C1_2 O2_2 1_555 1_555
C2_2 C1_2 1_555 1_555
H1_2 C2_2 1_555 1_555
C3_2 C2_2 1_555 1_555
H2_2 C3_2 1_555 1_555
H3_2 C3_2 1_555 1_555
C4_2 C3_2 1_555 1_555
H4_2 C4_2 1_555 1_555
C5_2 C4_2 1_555 1_555
H5_2 C5_2 1_555 1_555
H6_2 C5_2 1_555 1_555
C6_2 C5_2 1_555 1_555
H7_2 C6_2 1_555 1_555
C7_2 C2_2 1_555 1_555
H8_2 C7_2 1_555 1_555
H9_2 C7_2 1_555 1_555
C8_2 C4_2 1_555 1_555
Cd3_2 O4_2 1_555 1_555
O8_2 Cd4 1_555 1_555
C6_2 C7_2 1_555 1_555
O9 C9_2 1_555 1_555
O10 C9_2 1_555 1_555
Cd3 O1_3 1_555 1_555
O1_3 C1_3 1_555 1_555
O2_3 Cd3 1_555 1_555
C1_3 O2_3 1_555 1_555
O7_2 Cd3 1_555 1_555
O9_2 Cd3 1_555 1_555
O10_2 Cd3 1_555 1_555
O3_2 C8_3 1_555 1_555
C3_3 C2_3 1_555 1_555
H2_3 C3_3 1_555 1_555
H3_3 C3_3 1_555 1_555
C4_3 C3_3 1_555 1_555
C5_3 C4_3 1_555 1_555
H5_3 C5_3 1_555 1_555
H6_3 C5_3 1_555 1_555
C6_3 C5_3 1_555 1_555
C7_3 C2_3 1_555 1_555
H8_3 C7_3 1_555 1_555
H9_3 C7_3 1_555 1_555
C8_3 C4_3 1_555 1_555
Cd3_2 O3_2 1_555 1_555
C6_3 C7_3 1_555 1_555
O5_2 C9_3 1_555 1_555
O6_2 C9_3 1_555 1_555
Cd3_2 O5_2 1_555 1_555
O6_2 Cd3_2 1_555 1_555
O9_2 C9_4 1_555 1_555
O10_2 C9_4 1_555 1_555
Cd3_2 O1_4 1_555 1_555
O1_4 C1_4 1_555 1_555
O2_4 Cd3_2 1_555 1_555
O7_2 C8_4 1_555 1_555
O8_2 C8_4 1_555 1_555
C1_4 O2_4 1_555 1_555
C2_4 C1_4 1_555 1_555
H1_4 C2_4 1_555 1_555
C3_4 C2_4 1_555 1_555
H2_4 C3_4 1_555 1_555
H3_4 C3_4 1_555 1_555
C4_4 C3_4 1_555 1_555
H4_4 C4_4 1_555 1_555
C5_4 C4_4 1_555 1_555
H5_4 C5_4 1_555 1_555
H6_4 C5_4 1_555 1_555
C6_4 C5_4 1_555 1_555
H7_4 C6_4 1_555 1_555
C7_4 C2_4 1_555 1_555
H8_4 C7_4 1_555 1_555
H9_4 C7_4 1_555 1_555
C8_4 C4_4 1_555 1_555
C6_4 C7_4 1_555 1_555

#END
