
###############################################################################
#
# This file contains modified crystal structure data generated from the
# MOF subset of the Cambridge Structural Database (CSD) v543 
# hosted by the Cambridge Crystallographic Data Centre (CCDC).
#
# This work is licensed under the Creative Commons
# Attribution-NonCommercial-ShareAlike 4.0 International License.
# To view a copy of this license, visit
# http://creativecommons.org/licenses/by-nc-sa/4.0/
# or send a letter to
# Creative Commons, PO Box 1866, Mountain View, CA 94042, USA.
#
# CIF created using the CSD Python API on 29 September 2022
# The structure has been converted into the P1 space group
# The structure has a 3D framework
# The original CSD entry DEKCII is in the triclinic crystal system
# The framework has been calculated to contain at least 10.0% void space
# The void calculation uses a probe of radius 1.32A, grid spacing 0.4
#
###############################################################################

data_DEKCII
_chemical_formula_moiety         '(C48 H36 Eu2 N24 O24)n'
_symmetry_cell_setting           triclinic
_symmetry_space_group_name_H-M   'P 1'
_symmetry_Int_Tables_number      1
_space_group_name_Hall           'P 1'
loop_
_symmetry_equiv_pos_site_id
_symmetry_equiv_pos_as_xyz
1 x,y,z
_cell_length_a                   10.5944(9)
_cell_length_b                   11.4880(11)
_cell_length_c                   16.4492(14)
_cell_angle_alpha                99.9830(10)
_cell_angle_beta                 104.884(2)
_cell_angle_gamma                107.886(2)
_cell_volume                     1770.72
loop_
_atom_site_label
_atom_site_type_symbol
_atom_site_fract_x
_atom_site_fract_y
_atom_site_fract_z
Eu1 Eu 0.26076(3) 0.04141(3) 0.258060(18)
N5 N 0.1457(5) 0.0947(5) 0.4649(3)
H3 H 0.1946 0.0490 0.4571
N6 N 0.1432(5) 0.1288(5) 0.5475(3)
N7 N 0.1293(6) 0.3310(5) 0.2025(4)
N8 N 0.0768(6) 0.4189(5) 0.2280(4)
H4 H 0.0099 0.4242 0.1879
O5 O 0.0969(4) 0.0893(4) 0.3205(3)
O6 O 0.0711(5) 0.2368(5) 0.6397(3)
O7 O 0.2838(5) 0.2373(4) 0.2415(3)
O8 O 0.0635(5) 0.5826(4) 0.3216(3)
O9 O 0.4556(5) 0.0007(5) 0.2611(3)
C9 C 0.0815(7) 0.1234(6) 0.3938(4)
C10 C 0.0006(7) 0.1997(6) 0.4095(4)
C12 C 0.0731(6) 0.2019(6) 0.5604(4)
C13 C 0.2274(8) 0.3174(6) 0.2638(5)
C14 C 0.2740(8) 0.3921(6) 0.3527(5)
H13 H 0.3431 0.3812 0.3953
C15 C 0.2170(8) 0.4788(6) 0.3746(5)
H14 H 0.2434 0.5250 0.4325
C16 C 0.1145(7) 0.4981(6) 0.3063(4)
Eu8 Eu 0.01992(3) 0.28707(3) 0.759686(18)
O13 O 0.4146(5) 0.1619(4) 0.4018(3)
O14 O 0.2571(5) 0.0225(4) 0.1078(3)
N1 N 0.3046(6) 0.9096(5) 0.4722(3)
N2 N 0.4024(5) 0.8963(5) 0.5393(3)
H1 H 0.4065 0.9285 0.5916
N9 N 0.6347(6) 0.9384(5) 0.2993(4)
N10 N 0.7102(5) 0.8710(5) 0.2747(4)
H5 H 0.7777 0.8694 0.3162
N11 N 0.1102(5) 0.6640(5) 0.0322(3)
H6 H 0.0707 0.7187 0.0382
O1 O 0.2042(4) 0.8738(4) 0.3283(3)
O2 O 0.5854(5) 0.8381(4) 0.5982(3)
O3 O 0.0359(4) 0.8792(4) 0.1700(3)
O10 O 0.7671(5) 0.7441(4) 0.1797(3)
O11 O 0.1480(5) 0.6728(5) 0.1742(3)
C1 C 0.2943(7) 0.8572(6) 0.3928(4)
C2 C 0.3787(7) 0.7853(6) 0.3772(4)
H7 H 0.3662 0.7437 0.3203
C3 C 0.4757(7) 0.7778(6) 0.4444(4)
H8 H 0.5320 0.7328 0.4339
C4 C 0.4931(7) 0.8376(6) 0.5311(4)
C17 C 0.5296(6) 0.9390(6) 0.2372(4)
C18 C 0.4992(7) 0.8769(7) 0.1484(5)
H15 H 0.4264 0.8819 0.1051
C19 C 0.5759(7) 0.8110(7) 0.1273(5)
H16 H 0.5538 0.7676 0.0692
C20 C 0.6929(7) 0.8062(6) 0.1935(4)
C21 C 0.1678(6) 0.6343(6) 0.1048(4)
C22 C 0.2446(7) 0.5532(7) 0.0944(4)
H17 H 0.2939 0.5344 0.1427
C23 C 0.2448(7) 0.5044(7) 0.0137(5)
H18 H 0.2943 0.4513 0.0065
Eu4 Eu 0.73924(3) 0.95859(3) 0.741940(18)
Eu6 Eu 0.98008(3) 0.71293(3) 0.240314(18)
N12 N 0.1086(6) 0.6151(5) 0.9498(4)
O12 O 0.1571(5) 0.4769(5) 0.8606(3)
C24 C 0.1705(7) 0.5329(6) 0.9399(4)
H9 H 0.9142 0.0451 0.1733
C7 C 0.8251(7) 0.0254(6) 0.0468(4)
H10 H 0.7906 0.0904 0.0543
H11 H 0.9519 0.2236 0.3639
C11 C 0.9956(7) 0.2364(7) 0.4906(4)
H12 H 0.9416 0.2840 0.5009
N3 N 0.9237(5) 0.8260(5) 0.0259(3)
C5 C 0.9533(6) 0.9001(6) 0.1036(4)
C6 C 0.8989(7) 0.9992(6) 0.1169(4)
O15 O 0.9289(5) 0.7632(5) 0.3603(3)
O18 O 0.8429(5) 0.5231(5) 0.1394(3)
N4 N 0.8457(5) 0.8543(5) 0.9570(3)
H2 H 0.8232 0.8043 0.9059
O4 O 0.7429(5) 0.9775(4) 0.8922(3)
C8 C 0.8009(6) 0.9517(6) 0.9609(4)
N4_2 N 0.1543(5) 0.1457(5) 0.0430(3)
H2_2 H 0.1768 0.1957 0.0941
C8_2 C 0.1991(6) 0.0483(6) 0.0391(4)
N3_2 N 0.0763(5) 0.1740(5) 0.9741(3)
C5_2 C 0.0467(6) 0.0999(6) 0.8964(4)
C6_2 C 0.1011(7) 0.0008(6) 0.8831(4)
O17 O 0.2329(5) 0.2559(4) 0.8203(3)
H9_2 H 0.0858 0.9549 0.8267
C7_2 C 0.1749(7) 0.9746(6) 0.9532(4)
H10_2 H 0.2094 0.9096 0.9457
H11_2 H 0.0481 0.7764 0.6361
C11_2 C 0.0044(7) 0.7636(7) 0.5094(4)
H12_2 H 0.0584 0.7160 0.4991
N12_2 N 0.8914(6) 0.3849(5) 0.0502(4)
C24_2 C 0.8295(7) 0.4671(6) 0.0601(4)
N1_2 N 0.6954(6) 0.0904(5) 0.5278(3)
N2_2 N 0.5976(5) 0.1037(5) 0.4607(3)
H1_2 H 0.5935 0.0715 0.4084
N9_2 N 0.3653(6) 0.0616(5) 0.7007(4)
N10_2 N 0.2898(5) 0.1290(5) 0.7253(4)
H5_2 H 0.2223 0.1306 0.6838
N11_2 N 0.8898(5) 0.3360(5) 0.9678(3)
H6_2 H 0.9293 0.2813 0.9618
O1_2 O 0.7958(4) 0.1262(4) 0.6717(3)
O3_2 O 0.9641(4) 0.1208(4) 0.8300(3)
O11_2 O 0.8520(5) 0.3272(5) 0.8258(3)
C1_2 C 0.7057(7) 0.1428(6) 0.6072(4)
C2_2 C 0.6213(7) 0.2147(6) 0.6228(4)
H7_2 H 0.6338 0.2563 0.6797
C3_2 C 0.5243(7) 0.2222(6) 0.5556(4)
H8_2 H 0.4680 0.2672 0.5661
C4_2 C 0.5069(7) 0.1624(6) 0.4689(4)
C17_2 C 0.4704(6) 0.0610(6) 0.7628(4)
C18_2 C 0.5008(7) 0.1231(7) 0.8516(5)
H15_2 H 0.5736 0.1181 0.8949
C19_2 C 0.4241(7) 0.1890(7) 0.8727(5)
H16_2 H 0.4462 0.2324 0.9308
C20_2 C 0.3071(7) 0.1938(6) 0.8065(4)
C21_2 C 0.8322(6) 0.3657(6) 0.8952(4)
C22_2 C 0.7554(7) 0.4468(7) 0.9056(4)
H17_2 H 0.7061 0.4656 0.8573
C23_2 C 0.7552(7) 0.4956(7) 0.9863(5)
H18_2 H 0.7057 0.5487 0.9935
O16 O 0.9365(5) 0.4174(4) 0.6784(3)
N5_2 N 0.8543(5) 0.9053(5) 0.5351(3)
H3_2 H 0.8054 0.9510 0.5429
N6_2 N 0.8568(5) 0.8712(5) 0.4525(3)
N7_2 N 0.8707(6) 0.6690(5) 0.7975(4)
N8_2 N 0.9232(6) 0.5811(5) 0.7720(4)
H4_2 H 0.9901 0.5758 0.8121
O5_2 O 0.9031(4) 0.9107(4) 0.6795(3)
O7_2 O 0.7162(5) 0.7627(4) 0.7585(3)
O9_2 O 0.5444(5) 0.9993(5) 0.7389(3)
C9_2 C 0.9185(7) 0.8766(6) 0.6062(4)
C10_2 C 0.9994(7) 0.8003(6) 0.5905(4)
C12_2 C 0.9269(6) 0.7981(6) 0.4396(4)
C13_2 C 0.7726(8) 0.6826(6) 0.7362(5)
C14_2 C 0.7260(8) 0.6079(6) 0.6473(5)
H13_2 H 0.6569 0.6188 0.6047
C15_2 C 0.7830(8) 0.5212(6) 0.6254(5)
H14_2 H 0.7566 0.4750 0.5675
C16_2 C 0.8855(7) 0.5019(6) 0.6937(4)
loop_
_geom_bond_atom_site_label_1
_geom_bond_atom_site_label_2
_geom_bond_site_symmetry_1
_geom_bond_site_symmetry_2
N5 H3 1_555 1_555
N6 N5 1_555 1_555
N7 N8 1_555 1_555
N8 H4 1_555 1_555
O5 Eu1 1_555 1_555
O6 C12 1_555 1_555
O7 Eu1 1_555 1_555
O8 C16 1_555 1_555
O9 Eu1 1_555 1_555
C9 N5 1_555 1_555
C10 C9 1_555 1_555
C12 N6 1_555 1_555
C13 N7 1_555 1_555
C14 C13 1_555 1_555
H13 C14 1_555 1_555
C15 C14 1_555 1_555
H14 C15 1_555 1_555
C16 N8 1_555 1_555
Eu8 O6 1_555 1_555
O13 Eu1 1_555 1_555
O14 Eu1 1_555 1_555
O5 C9 1_555 1_555
O7 C13 1_555 1_555
C15 C16 1_555 1_555
N1 N2 1_555 1_555
N2 H1 1_555 1_555
N9 N10 1_555 1_555
N10 H5 1_555 1_555
N11 H6 1_555 1_555
O1 C1 1_555 1_555
O2 C4 1_555 1_555
O10 C20 1_555 1_555
C1 N1 1_555 1_555
C2 C1 1_555 1_555
H7 C2 1_555 1_555
C3 C2 1_555 1_555
H8 C3 1_555 1_555
C4 N2 1_555 1_555
C17 N9 1_555 1_555
C18 C17 1_555 1_555
H15 C18 1_555 1_555
C19 C18 1_555 1_555
H16 C19 1_555 1_555
C20 N10 1_555 1_555
C21 N11 1_555 1_555
C22 C21 1_555 1_555
H17 C22 1_555 1_555
C23 C22 1_555 1_555
H18 C23 1_555 1_555
Eu4 O2 1_555 1_555
Eu6 O10 1_555 1_555
O11 C21 1_555 1_555
C3 C4 1_555 1_555
C19 C20 1_555 1_555
O12 C24 1_555 1_555
C24 N12 1_555 1_555
Eu8 O12 1_555 1_555
H10 C7 1_555 1_555
H12 C11 1_555 1_555
C5 N3 1_555 1_555
C6 C5 1_555 1_555
O15 Eu6 1_555 1_555
O18 Eu6 1_555 1_555
N4 H2 1_555 1_555
O4 C8 1_555 1_555
C8 N4 1_555 1_555
Eu4 O4 1_555 1_555
N4_2 H2_2 1_555 1_555
O14 C8_2 1_555 1_555
C8_2 N4_2 1_555 1_555
C5_2 N3_2 1_555 1_555
C6_2 C5_2 1_555 1_555
O17 Eu8 1_555 1_555
H10_2 C7_2 1_555 1_555
H12_2 C11_2 1_555 1_555
O18 C24_2 1_555 1_555
C24_2 N12_2 1_555 1_555
N1_2 N2_2 1_555 1_555
N2_2 H1_2 1_555 1_555
N9_2 N10_2 1_555 1_555
N10_2 H5_2 1_555 1_555
N11_2 H6_2 1_555 1_555
O1_2 C1_2 1_555 1_555
O13 C4_2 1_555 1_555
O17 C20_2 1_555 1_555
C1_2 N1_2 1_555 1_555
C2_2 C1_2 1_555 1_555
H7_2 C2_2 1_555 1_555
C3_2 C2_2 1_555 1_555
H8_2 C3_2 1_555 1_555
C4_2 N2_2 1_555 1_555
C17_2 N9_2 1_555 1_555
C18_2 C17_2 1_555 1_555
H15_2 C18_2 1_555 1_555
C19_2 C18_2 1_555 1_555
H16_2 C19_2 1_555 1_555
C20_2 N10_2 1_555 1_555
C21_2 N11_2 1_555 1_555
C22_2 C21_2 1_555 1_555
H17_2 C22_2 1_555 1_555
C23_2 C22_2 1_555 1_555
H18_2 C23_2 1_555 1_555
O11_2 C21_2 1_555 1_555
C3_2 C4_2 1_555 1_555
C19_2 C20_2 1_555 1_555
N5_2 H3_2 1_555 1_555
N6_2 N5_2 1_555 1_555
N7_2 N8_2 1_555 1_555
N8_2 H4_2 1_555 1_555
O5_2 Eu4 1_555 1_555
O15 C12_2 1_555 1_555
O7_2 Eu4 1_555 1_555
O16 C16_2 1_555 1_555
O9_2 Eu4 1_555 1_555
C9_2 N5_2 1_555 1_555
C10_2 C9_2 1_555 1_555
C12_2 N6_2 1_555 1_555
C13_2 N7_2 1_555 1_555
C14_2 C13_2 1_555 1_555
H13_2 C14_2 1_555 1_555
C15_2 C14_2 1_555 1_555
H14_2 C15_2 1_555 1_555
C16_2 N8_2 1_555 1_555
O5_2 C9_2 1_555 1_555
O7_2 C13_2 1_555 1_555
C15_2 C16_2 1_555 1_555

#END
