
###############################################################################
#
# This file contains modified crystal structure data generated from the
# MOF subset of the Cambridge Structural Database (CSD) v543 
# hosted by the Cambridge Crystallographic Data Centre (CCDC).
#
# This work is licensed under the Creative Commons
# Attribution-NonCommercial-ShareAlike 4.0 International License.
# To view a copy of this license, visit
# http://creativecommons.org/licenses/by-nc-sa/4.0/
# or send a letter to
# Creative Commons, PO Box 1866, Mountain View, CA 94042, USA.
#
# CIF created using the CSD Python API on 29 September 2022
# The structure has been converted into the P1 space group
# The structure has a 3D framework
# The original CSD entry DEKCEE is in the triclinic crystal system
# The framework has been calculated to contain at least 10.0% void space
# The void calculation uses a probe of radius 1.32A, grid spacing 0.4
#
###############################################################################

data_DEKCEE
_chemical_formula_moiety         '(C48 H36 Dy4 N24 O22)n'
_symmetry_cell_setting           triclinic
_symmetry_space_group_name_H-M   'P 1'
_symmetry_Int_Tables_number      1
_space_group_name_Hall           'P 1'
loop_
_symmetry_equiv_pos_site_id
_symmetry_equiv_pos_as_xyz
1 x,y,z
_cell_length_a                   10.5160(8)
_cell_length_b                   11.4129(9)
_cell_length_c                   16.3637(14)
_cell_angle_alpha                100.038(2)
_cell_angle_beta                 104.852(3)
_cell_angle_gamma                107.200(3)
_cell_volume                     1745.64
loop_
_atom_site_label
_atom_site_type_symbol
_atom_site_fract_x
_atom_site_fract_y
_atom_site_fract_z
N9 N 0.1334(10) 0.4400(9) 0.2975(6)
H5 H 0.1534 0.4811 0.3512
N10 N 0.2144(9) 0.3743(9) 0.2740(6)
O4 O 0.0905(7) 0.3421(7) 0.5986(4)
O10 O 0.2733(8) 0.2458(7) 0.1802(5)
H10 H 0.0352 0.2309 0.4336
C17 C 0.0273(11) 0.4386(10) 0.2373(7)
C19 C 0.0782(12) 0.3077(11) 0.1272(7)
H16 H 0.0588 0.2639 0.0693
C20 C 0.1949(11) 0.3069(10) 0.1935(7)
Dy4 Dy 0.24059(4) 0.45928(4) 0.74159(3)
Dy6 Dy 0.48544(5) 0.21579(4) 0.24036(3)
O8 O 0.5703(8) 0.0886(7) 0.3213(5)
H14 H 0.7527 0.0312 0.4315
C16 C 0.6196(12) 0.0029(9) 0.3085(6)
Dy1 Dy 0.75941(4) 0.54072(4) 0.25841(3)
N1 N 0.4260(8) 0.3274(8) 0.0264(5)
H1 H 0.4561 0.2652 0.0196
N3 N 0.8055(8) 0.4108(7) 0.4726(5)
H2 H 0.7519 0.4520 0.4821
N4 N 0.9037(8) 0.3967(7) 0.5397(5)
N5 N 0.6440(9) 0.5928(8) 0.4644(5)
N6 N 0.6419(9) 0.6276(8) 0.5470(5)
H3 H 0.6864 0.6035 0.5888
N7 N 0.6355(11) 0.8327(8) 0.2043(6)
H4 H 0.6070 0.7861 0.1512
N8 N 0.5807(10) 0.9217(8) 0.2273(6)
O1 O 0.5380(7) 0.3820(6) 0.1730(4)
O3 O 0.7050(7) 0.3747(6) 0.3265(4)
O5 O 0.5992(8) 0.5934(7) 0.3206(4)
O6 O 0.5695(9) 0.7350(8) 0.6404(5)
O7 O 0.7836(9) 0.7329(7) 0.2413(5)
O9 O 0.9516(8) 0.4986(8) 0.2602(5)
O11 O 0.3463(8) 0.0267(7) 0.1421(5)
C1 C 0.4547(10) 0.4016(9) 0.1050(6)
C2 C 0.3987(11) 0.5015(9) 0.1174(6)
H7 H 0.4134 0.5487 0.1736
C3 C 0.3251(11) 0.5251(10) 0.0467(6)
H8 H 0.2890 0.5899 0.0542
C5 C 0.7985(10) 0.3576(9) 0.3935(6)
C6 C 0.8845(11) 0.2872(9) 0.3783(6)
H9 H 0.8737 0.2473 0.3210
C7 C 0.9791(11) 0.2775(9) 0.4440(6)
C8 C 0.9954(11) 0.3393(9) 0.5320(6)
C9 C 0.5824(11) 0.6263(10) 0.3948(6)
C10 C 0.5021(11) 0.7038(10) 0.4107(6)
H11 H 0.4540 0.7291 0.3651
C11 C 0.4964(12) 0.7401(10) 0.4919(7)
H12 H 0.4449 0.7913 0.5027
C12 C 0.5682(12) 0.7006(10) 0.5606(7)
C13 C 0.7334(12) 0.8202(9) 0.2660(7)
C14 C 0.7784(13) 0.8935(10) 0.3544(7)
H13 H 0.8451 0.8804 0.3980
C15 C 0.7229(13) 0.9820(10) 0.3738(7)
C18 C 0.9955(12) 0.3700(11) 0.1461(7)
H15 H 0.9192 0.3697 0.1020
Dy8 Dy 0.51456(5) 0.78421(4) 0.75964(3)
O13 O 0.7566(8) 0.5214(7) 0.1092(4)
O14 O 0.9095(7) 0.6579(7) 0.4014(4)
O15 O 0.4305(9) 0.2650(8) 0.3596(5)
O18 O 0.6492(8) 0.1712(7) 0.1757(5)
N2 N 0.3457(9) 0.3528(8) 0.9552(5)
O2 O 0.2434(8) 0.4786(7) 0.8908(4)
C4 C 0.3004(11) 0.4524(10) 0.9591(6)
H17 H 0.2038 0.0506 0.9959
N12 N 0.3910(9) 0.8375(8) 0.9689(5)
O12 O 0.3508(8) 0.8288(7) 0.8243(5)
C22 C 0.2554(11) 0.9983(10) 0.9885(7)
C23 C 0.2549(11) 0.9488(10) 0.9063(7)
H18 H 0.2061 0.9690 0.8580
C24 C 0.3303(11) 0.8659(9) 0.8958(6)
N12_2 N 0.6090(9) 0.1625(8) 0.0311(5)
C22_2 C 0.7446(11) 0.0017(10) 0.0115(7)
C23_2 C 0.7451(11) 0.0512(10) 0.0937(7)
H18_2 H 0.7939 0.0310 0.1420
C24_2 C 0.6697(11) 0.1341(9) 0.1042(6)
N2_2 N 0.6543(9) 0.6472(8) 0.0448(5)
C4_2 C 0.6996(11) 0.5476(10) 0.0409(6)
H17_2 H 0.7962 0.9494 0.0041
N1_2 N 0.5740(8) 0.6726(8) 0.9736(5)
H1_2 H 0.5439 0.7348 0.9804
N3_2 N 0.1945(8) 0.5892(7) 0.5274(5)
H2_2 H 0.2481 0.5480 0.5179
N4_2 N 0.0963(8) 0.6033(7) 0.4603(5)
N5_2 N 0.3560(9) 0.4072(8) 0.5356(5)
N6_2 N 0.3581(9) 0.3724(8) 0.4530(5)
H3_2 H 0.3136 0.3965 0.4112
N7_2 N 0.3645(11) 0.1673(8) 0.7957(6)
H4_2 H 0.3930 0.2139 0.8488
N8_2 N 0.4193(10) 0.0783(8) 0.7727(6)
O1_2 O 0.4620(7) 0.6180(6) 0.8270(4)
O3_2 O 0.2950(7) 0.6253(6) 0.6735(4)
O5_2 O 0.4008(8) 0.4066(7) 0.6794(4)
O7_2 O 0.2164(9) 0.2671(7) 0.7587(5)
O9_2 O 0.0484(8) 0.5014(8) 0.7398(5)
O11_2 O 0.6537(8) 0.9733(7) 0.8579(5)
C1_2 C 0.5453(10) 0.5984(9) 0.8950(6)
C2_2 C 0.6013(11) 0.4985(9) 0.8826(6)
H7_2 H 0.5866 0.4513 0.8264
C3_2 C 0.6749(11) 0.4749(10) 0.9533(6)
H8_2 H 0.7110 0.4101 0.9458
C5_2 C 0.2015(10) 0.6424(9) 0.6065(6)
C6_2 C 0.1155(11) 0.7128(9) 0.6217(6)
H9_2 H 0.1263 0.7527 0.6790
C7_2 C 0.0209(11) 0.7225(9) 0.5560(6)
C8_2 C 0.0046(11) 0.6607(9) 0.4680(6)
C9_2 C 0.4176(11) 0.3737(10) 0.6052(6)
C10_2 C 0.4979(11) 0.2962(10) 0.5893(6)
H11_2 H 0.5460 0.2709 0.6349
C11_2 C 0.5036(12) 0.2599(10) 0.5081(7)
H12_2 H 0.5551 0.2087 0.4973
C12_2 C 0.4318(12) 0.2994(10) 0.4394(7)
C13_2 C 0.2666(12) 0.1798(9) 0.7340(7)
C14_2 C 0.2216(13) 0.1065(10) 0.6456(7)
H13_2 H 0.1549 0.1196 0.6020
C15_2 C 0.2771(13) 0.0180(10) 0.6262(7)
C18_2 C 0.0045(12) 0.6300(11) 0.8539(7)
H15_2 H 0.0808 0.6303 0.8980
O16 O 0.4297(8) 0.9114(7) 0.6787(5)
O17 O 0.7267(8) 0.7542(7) 0.8198(5)
H14_2 H 0.2473 0.9688 0.5685
C16_2 C 0.3804(12) 0.9971(9) 0.6915(6)
N9_2 N 0.8666(10) 0.5600(9) 0.7025(6)
H5_2 H 0.8466 0.5189 0.6488
N10_2 N 0.7856(9) 0.6257(9) 0.7260(6)
H10_2 H 0.9648 0.7691 0.5664
C17_2 C 0.9727(11) 0.5614(10) 0.7627(7)
C19_2 C 0.9218(12) 0.6923(11) 0.8728(7)
H16_2 H 0.9412 0.7361 0.9307
C20_2 C 0.8051(11) 0.6931(10) 0.8065(7)
N11 N 0.3955(9) 0.8862(8) 0.0521(5)
H6 H 0.4364 0.8629 0.0956
C21 C 0.3336(11) 0.9716(9) 0.0632(7)
N11_2 N 0.6045(9) 0.1138(8) 0.9479(5)
H6_2 H 0.5636 0.1371 0.9044
C21_2 C 0.6664(11) 0.0284(9) 0.9368(7)
loop_
_geom_bond_atom_site_label_1
_geom_bond_atom_site_label_2
_geom_bond_site_symmetry_1
_geom_bond_site_symmetry_2
N9 H5 1_555 1_555
N10 N9 1_555 1_555
O10 C20 1_555 1_555
C17 N9 1_555 1_555
H16 C19 1_555 1_555
C20 N10 1_555 1_555
Dy4 O4 1_555 1_555
Dy6 O10 1_555 1_555
C19 C20 1_555 1_555
O8 C16 1_555 1_555
Dy6 O8 1_555 1_555
Dy1 O1 1_555 1_555
Dy6 O1 1_555 1_555
N1 H1 1_555 1_555
N3 H2 1_555 1_555
N4 N3 1_555 1_555
N5 N6 1_555 1_555
N6 H3 1_555 1_555
N7 H4 1_555 1_555
N8 N7 1_555 1_555
O1 C1 1_555 1_555
O3 Dy1 1_555 1_555
O5 Dy1 1_555 1_555
O6 C12 1_555 1_555
O7 Dy1 1_555 1_555
O9 Dy1 1_555 1_555
O11 Dy6 1_555 1_555
C1 N1 1_555 1_555
C2 C1 1_555 1_555
H7 C2 1_555 1_555
C3 C2 1_555 1_555
H8 C3 1_555 1_555
C5 N3 1_555 1_555
C6 C5 1_555 1_555
H9 C6 1_555 1_555
C7 C6 1_555 1_555
C8 N4 1_555 1_555
C9 N5 1_555 1_555
C10 C9 1_555 1_555
H11 C10 1_555 1_555
C11 C10 1_555 1_555
H12 C11 1_555 1_555
C12 N6 1_555 1_555
C13 N7 1_555 1_555
C14 C13 1_555 1_555
H13 C14 1_555 1_555
C15 C14 1_555 1_555
H15 C18 1_555 1_555
Dy8 O6 1_555 1_555
O13 Dy1 1_555 1_555
O14 Dy1 1_555 1_555
O15 Dy6 1_555 1_555
O18 Dy6 1_555 1_555
Dy6 O3 1_555 1_555
O3 C5 1_555 1_555
O5 C9 1_555 1_555
O7 C13 1_555 1_555
C7 C8 1_555 1_555
C11 C12 1_555 1_555
O2 C4 1_555 1_555
C4 N2 1_555 1_555
Dy4 O2 1_555 1_555
O12 C24 1_555 1_555
C23 C22 1_555 1_555
H18 C23 1_555 1_555
C24 N12 1_555 1_555
Dy8 O12 1_555 1_555
C23 C24 1_555 1_555
O18 C24_2 1_555 1_555
C23_2 C22_2 1_555 1_555
H18_2 C23_2 1_555 1_555
C24_2 N12_2 1_555 1_555
C23_2 C24_2 1_555 1_555
O13 C4_2 1_555 1_555
C4_2 N2_2 1_555 1_555
Dy4 O1_2 1_555 1_555
Dy8 O1_2 1_555 1_555
N1_2 H1_2 1_555 1_555
N3_2 H2_2 1_555 1_555
N4_2 N3_2 1_555 1_555
N5_2 N6_2 1_555 1_555
N6_2 H3_2 1_555 1_555
N7_2 H4_2 1_555 1_555
N8_2 N7_2 1_555 1_555
O1_2 C1_2 1_555 1_555
O3_2 Dy4 1_555 1_555
O5_2 Dy4 1_555 1_555
O15 C12_2 1_555 1_555
O7_2 Dy4 1_555 1_555
O9_2 Dy4 1_555 1_555
O11_2 Dy8 1_555 1_555
C1_2 N1_2 1_555 1_555
C2_2 C1_2 1_555 1_555
H7_2 C2_2 1_555 1_555
C3_2 C2_2 1_555 1_555
H8_2 C3_2 1_555 1_555
C5_2 N3_2 1_555 1_555
C6_2 C5_2 1_555 1_555
H9_2 C6_2 1_555 1_555
C7_2 C6_2 1_555 1_555
C8_2 N4_2 1_555 1_555
C9_2 N5_2 1_555 1_555
C10_2 C9_2 1_555 1_555
H11_2 C10_2 1_555 1_555
C11_2 C10_2 1_555 1_555
H12_2 C11_2 1_555 1_555
C12_2 N6_2 1_555 1_555
C13_2 N7_2 1_555 1_555
C14_2 C13_2 1_555 1_555
H13_2 C14_2 1_555 1_555
C15_2 C14_2 1_555 1_555
H15_2 C18_2 1_555 1_555
O16 Dy8 1_555 1_555
O17 Dy8 1_555 1_555
Dy8 O3_2 1_555 1_555
O3_2 C5_2 1_555 1_555
O5_2 C9_2 1_555 1_555
O7_2 C13_2 1_555 1_555
C7_2 C8_2 1_555 1_555
C11_2 C12_2 1_555 1_555
O16 C16_2 1_555 1_555
N9_2 H5_2 1_555 1_555
N10_2 N9_2 1_555 1_555
O17 C20_2 1_555 1_555
C17_2 N9_2 1_555 1_555
H16_2 C19_2 1_555 1_555
C20_2 N10_2 1_555 1_555
C19_2 C20_2 1_555 1_555
N11 H6 1_555 1_555
C21 N11 1_555 1_555
N11_2 H6_2 1_555 1_555
C21_2 N11_2 1_555 1_555

#END
