
###############################################################################
#
# This file contains modified crystal structure data generated from the
# MOF subset of the Cambridge Structural Database (CSD) v543 
# hosted by the Cambridge Crystallographic Data Centre (CCDC).
#
# This work is licensed under the Creative Commons
# Attribution-NonCommercial-ShareAlike 4.0 International License.
# To view a copy of this license, visit
# http://creativecommons.org/licenses/by-nc-sa/4.0/
# or send a letter to
# Creative Commons, PO Box 1866, Mountain View, CA 94042, USA.
#
# CIF created using the CSD Python API on 29 September 2022
# The structure has been converted into the P1 space group
# The structure has a 3D framework
# The original CSD entry DEKYOK is in the triclinic crystal system
# The framework has been calculated to contain at least 10.0% void space
# The void calculation uses a probe of radius 1.32A, grid spacing 0.4
#
###############################################################################

data_DEKYOK
_chemical_formula_moiety         '(C44 H20 O16 Tb2)n'
_symmetry_cell_setting           triclinic
_symmetry_space_group_name_H-M   'P 1'
_symmetry_Int_Tables_number      1
_space_group_name_Hall           'P 1'
loop_
_symmetry_equiv_pos_site_id
_symmetry_equiv_pos_as_xyz
1 x,y,z
_cell_length_a                   9.933(2)
_cell_length_b                   11.292(3)
_cell_length_c                   13.383(3)
_cell_angle_alpha                98.740(6)
_cell_angle_beta                 99.894(7)
_cell_angle_gamma                106.303(4)
_cell_volume                     1387.12
loop_
_atom_site_label
_atom_site_type_symbol
_atom_site_fract_x
_atom_site_fract_y
_atom_site_fract_z
_atom_site_U_iso_or_equiv
_atom_site_thermal_displace_type
O15 O 0.1325(5) 0.3021(5) 0.3048(4) 0.0317 Uani
O16 O 0.2566(5) 0.4878(5) 0.2881(4) 0.0308 Uani
C42 C 0.0138(8) 0.5273(9) 0.1772(7) 0.0414 Uani
H20 H 0.1028 0.5887 0.1878 0.0500 Uiso
C43 C 0.0069(8) 0.4233(7) 0.2175(5) 0.0285 Uani
C44 C 0.1387(7) 0.4021(7) 0.2734(6) 0.0272 Uani
Tb8 Tb 0.39032(3) 0.36179(3) 0.37004(2) 0.0163 Uani
O3 O 0.3259(5) 0.1350(5) 0.3348(4) 0.0278 Uani
O4 O 0.3230(6) 0.2258(5) 0.4897(4) 0.0331 Uani
H4 H 0.1502 0.0482 0.5579 0.0420 Uiso
C10 C 0.2508(7) 0.0011(7) 0.4497(6) 0.0274 Uani
C11 C 0.3047(8) 0.1266(7) 0.4230(6) 0.0295 Uani
C15 C 0.3701(7) 0.4665(8) 0.0272(5) 0.0296 Uani
H6 H 0.2825 0.4413 0.0464 0.0350 Uiso
O13 O 0.5493(5) 0.4869(5) 0.2734(4) 0.0292 Uani
O14 O 0.3841(5) 0.3069(5) 0.1863(4) 0.0318 Uani
C34 C 0.4739(8) 0.4113(8) 0.1902(5) 0.0290 Uani
C35 C 0.4928(7) 0.4511(7) 0.0910(5) 0.0263 Uani
C36 C 0.6273(8) 0.4844(8) 0.0603(6) 0.0320 Uani
C38 C 0.7550(7) 0.4598(7) 0.1134(5) 0.0244 Uani
C39 C 0.7476(8) 0.3556(8) 0.1567(6) 0.0364 Uani
H17 H 0.6584 0.2967 0.1510 0.0430 Uiso
C40 C 0.8928(8) 0.5457(9) 0.1205(7) 0.0425 Uani
H18 H 0.9023 0.6136 0.0878 0.0510 Uiso
C41 C 0.8709(7) 0.3369(7) 0.2085(5) 0.0267 Uani
H19 H 0.8631 0.2662 0.2375 0.0320 Uiso
Tb1 Tb 0.60968(3) 0.63821(3) 0.62996(2) 0.0163 Uani
O1 O 0.3750(5) 0.5114(4) 0.5083(3) 0.0202 Uani
O2 O 0.3817(5) 0.6907(5) 0.5992(4) 0.0296 Uani
O5 O 0.4507(5) 0.5131(5) 0.7266(4) 0.0292 Uani
O6 O 0.6159(5) 0.6931(5) 0.8137(4) 0.0318 Uani
C1 C 0.3100(7) 0.5878(7) 0.5440(6) 0.0243 Uani
C2 C 0.1491(7) 0.5440(7) 0.5149(5) 0.0225 Uani
C3 C 0.0769(6) 0.4203(6) 0.5198(5) 0.0143 Uani
H1 H 0.1307 0.3668 0.5333 0.0170 Uiso
C4 C 0.0721(7) 0.6263(6) 0.4945(5) 0.0176 Uani
C5 C 0.1360(7) 0.7541(7) 0.4802(5) 0.0210 Uani
C6 C 0.2308(8) 0.7804(7) 0.4140(7) 0.0348 Uani
H2 H 0.2583 0.7151 0.3813 0.0420 Uiso
C7 C 0.1069(7) 0.8574(6) 0.5344(6) 0.0270 Uani
H3 H 0.0469 0.8445 0.5806 0.0320 Uiso
C8 C 0.1676(9) 0.9805(7) 0.5194(6) 0.0346 Uani
C9 C 0.2834(9) 0.8971(7) 0.3962(6) 0.0363 Uani
H5 H 0.3413 0.9098 0.3487 0.0440 Uiso
C12 C 0.5261(8) 0.5887(8) 0.8098(5) 0.0290 Uani
C13 C 0.5072(7) 0.5489(7) 0.9090(5) 0.0263 Uani
C14 C 0.3727(8) 0.5156(8) 0.9397(6) 0.0320 Uani
C16 C 0.2450(7) 0.5402(7) 0.8866(5) 0.0244 Uani
C17 C 0.2524(8) 0.6444(8) 0.8433(6) 0.0364 Uani
H7 H 0.3416 0.7033 0.8490 0.0430 Uiso
C18 C 0.1072(8) 0.4543(9) 0.8795(7) 0.0425 Uani
H8 H 0.0977 0.3864 0.9122 0.0510 Uiso
C19 C 0.1291(7) 0.6631(7) 0.7915(5) 0.0267 Uani
H9 H 0.1369 0.7338 0.7625 0.0320 Uiso
C37 C 0.6299(7) 0.5335(8) 0.9728(5) 0.0296 Uani
H16 H 0.7175 0.5587 0.9536 0.0350 Uiso
O18 O 0.6250(5) 0.4886(4) 0.4917(3) 0.0202 Uani
O20 O 0.6741(5) 0.8650(5) 0.6652(4) 0.0278 Uani
O22 O 0.6770(6) 0.7742(5) 0.5103(4) 0.0331 Uani
O25 O 0.8675(5) 0.6979(5) 0.6952(4) 0.0317 Uani
O27 O 0.7434(5) 0.5122(5) 0.7119(4) 0.0308 Uani
C20 C 0.9862(8) 0.4727(9) 0.8228(7) 0.0414 Uani
H10 H 0.8972 0.4113 0.8122 0.0500 Uiso
C21 C 0.9931(8) 0.5767(7) 0.7825(5) 0.0285 Uani
C22 C 0.8613(7) 0.5979(7) 0.7266(6) 0.0272 Uani
O10 O 0.6183(5) 0.3093(5) 0.4008(4) 0.0296 Uani
C23 C 0.6900(7) 0.4122(7) 0.4560(6) 0.0243 Uani
C24 C 0.8509(7) 0.4560(7) 0.4851(5) 0.0225 Uani
C25 C 0.9231(6) 0.5797(6) 0.4802(5) 0.0143 Uani
H11 H 0.8693 0.6332 0.4667 0.0170 Uiso
C26 C 0.9279(7) 0.3737(6) 0.5055(5) 0.0176 Uani
C27 C 0.8640(7) 0.2459(7) 0.5198(5) 0.0210 Uani
C28 C 0.7692(8) 0.2196(7) 0.5860(7) 0.0348 Uani
H12 H 0.7417 0.2849 0.6187 0.0420 Uiso
C29 C 0.8931(7) 0.1426(6) 0.4656(6) 0.0270 Uani
H13 H 0.9531 0.1555 0.4194 0.0320 Uiso
C30 C 0.8324(9) 0.0195(7) 0.4806(6) 0.0346 Uani
C31 C 0.7166(9) 0.1029(7) 0.6038(6) 0.0363 Uani
H15 H 0.6587 0.0902 0.6513 0.0440 Uiso
H14 H 0.8498 0.9518 0.4421 0.0420 Uiso
C32 C 0.7492(7) 0.9989(7) 0.5503(6) 0.0274 Uani
C33 C 0.6953(8) 0.8734(7) 0.5770(6) 0.0295 Uani
loop_
_atom_site_aniso_label
_atom_site_aniso_U_11
_atom_site_aniso_U_22
_atom_site_aniso_U_33
_atom_site_aniso_U_23
_atom_site_aniso_U_13
_atom_site_aniso_U_12
O15 0.026 0.036 0.036 0.014 0 0.015
O16 0.026 0.037 0.032 0.007 -0.005 0.021
C42 0.016 0.05 0.059 0.03 0.005 0.004
C43 0.033 0.043 0.013 0.008 -0.001 0.02
C44 0.012 0.03 0.044 0.017 0.011 0.006
Tb8 0.01274 0.0191 0.0193 0.00944 0.0032 0.00612
O3 0.033 0.027 0.025 0.011 0.007 0.009
O4 0.036 0.016 0.05 0.019 0.015 0.003
C10 0.021 0.025 0.04 0.019 0.012 0.004
C11 0.022 0.024 0.049 0.015 0.009 0.013
C15 0.014 0.062 0.027 0.027 0.013 0.02
O13 0.024 0.036 0.027 0.016 0.007 0.003
O14 0.033 0.028 0.036 0.014 0.015 0.004
C34 0.029 0.051 0.014 0.01 0 0.025
C35 0.022 0.042 0.017 0.012 0.003 0.011
C36 0.024 0.051 0.039 0.03 0.016 0.024
C38 0.018 0.046 0.014 0.011 0.009 0.012
C39 0.019 0.046 0.046 0.019 0.001 0.012
C40 0.025 0.054 0.063 0.047 0.01 0.017
C41 0.016 0.039 0.027 0.021 0 0.007
Tb1 0.01274 0.0191 0.0193 0.00944 0.0032 0.00612
O1 0.019 0.027 0.014 -0.002 -0.0033 0.014
O2 0.022 0.022 0.045 0.005 0.005 0.01
O5 0.024 0.036 0.027 0.016 0.007 0.003
O6 0.033 0.028 0.036 0.014 0.015 0.004
C1 0.015 0.029 0.038 0.02 0.01 0.012
C2 0.016 0.027 0.027 0.008 0.006 0.009
C3 0.013 0.017 0.014 0.005 0.002 0.006
C4 0.019 0.023 0.009 0.001 -0.002 0.008
C5 0.015 0.03 0.025 0.017 0.003 0.013
C6 0.034 0.016 0.058 0.01 0.019 0.007
C7 0.023 0.021 0.041 0.01 0.023 0.002
C8 0.044 0.031 0.034 0.008 0.008 0.02
C9 0.044 0.026 0.046 0.014 0.025 0.01
C12 0.029 0.051 0.014 0.01 0 0.025
C13 0.022 0.042 0.017 0.012 0.003 0.011
C14 0.024 0.051 0.039 0.03 0.016 0.024
C16 0.018 0.046 0.014 0.011 0.009 0.012
C17 0.019 0.046 0.046 0.019 0.001 0.012
C18 0.025 0.054 0.063 0.047 0.01 0.017
C19 0.016 0.039 0.027 0.021 0 0.007
C37 0.014 0.062 0.027 0.027 0.013 0.02
O18 0.019 0.027 0.014 -0.002 -0.0033 0.014
O20 0.033 0.027 0.025 0.011 0.007 0.009
O22 0.036 0.016 0.05 0.019 0.015 0.003
O25 0.026 0.036 0.036 0.014 0 0.015
O27 0.026 0.037 0.032 0.007 -0.005 0.021
C20 0.016 0.05 0.059 0.03 0.005 0.004
C21 0.033 0.043 0.013 0.008 -0.001 0.02
C22 0.012 0.03 0.044 0.017 0.011 0.006
O10 0.022 0.022 0.045 0.005 0.005 0.01
C23 0.015 0.029 0.038 0.02 0.01 0.012
C24 0.016 0.027 0.027 0.008 0.006 0.009
C25 0.013 0.017 0.014 0.005 0.002 0.006
C26 0.019 0.023 0.009 0.001 -0.002 0.008
C27 0.015 0.03 0.025 0.017 0.003 0.013
C28 0.034 0.016 0.058 0.01 0.019 0.007
C29 0.023 0.021 0.041 0.01 0.023 0.002
C30 0.044 0.031 0.034 0.008 0.008 0.02
C31 0.044 0.026 0.046 0.014 0.025 0.01
C32 0.021 0.025 0.04 0.019 0.012 0.004
C33 0.022 0.024 0.049 0.015 0.009 0.013
loop_
_geom_bond_atom_site_label_1
_geom_bond_atom_site_label_2
_geom_bond_site_symmetry_1
_geom_bond_site_symmetry_2
O15 C44 1_555 1_555
O16 C44 1_555 1_555
H20 C42 1_555 1_555
C44 C43 1_555 1_555
Tb8 O15 1_555 1_555
O16 Tb8 1_555 1_555
C42 C43 1_555 1_555
O3 C11 1_555 1_555
O4 C11 1_555 1_555
C11 C10 1_555 1_555
Tb8 O3 1_555 1_555
O4 Tb8 1_555 1_555
H6 C15 1_555 1_555
O13 C34 1_555 1_555
O14 C34 1_555 1_555
C34 C35 1_555 1_555
C35 C15 1_555 1_555
C36 C35 1_555 1_555
C38 C36 1_555 1_555
C39 C38 1_555 1_555
H17 C39 1_555 1_555
C40 C38 1_555 1_555
H18 C40 1_555 1_555
C41 C39 1_555 1_555
H19 C41 1_555 1_555
Tb8 O13 1_555 1_555
O14 Tb8 1_555 1_555
Tb1 O1 1_555 1_555
O1 C1 1_555 1_555
O2 Tb1 1_555 1_555
O5 Tb1 1_555 1_555
O6 Tb1 1_555 1_555
C1 O2 1_555 1_555
C2 C1 1_555 1_555
C3 C2 1_555 1_555
H1 C3 1_555 1_555
C4 C2 1_555 1_555
C5 C4 1_555 1_555
C6 C5 1_555 1_555
H2 C6 1_555 1_555
C7 C5 1_555 1_555
H3 C7 1_555 1_555
C8 C7 1_555 1_555
C9 C6 1_555 1_555
H5 C9 1_555 1_555
C12 O5 1_555 1_555
C13 C12 1_555 1_555
C14 C13 1_555 1_555
C16 C14 1_555 1_555
C17 C16 1_555 1_555
H7 C17 1_555 1_555
C18 C16 1_555 1_555
H8 C18 1_555 1_555
C19 C17 1_555 1_555
H9 C19 1_555 1_555
C37 C13 1_555 1_555
H16 C37 1_555 1_555
Tb8 O1 1_555 1_555
O18 Tb1 1_555 1_555
O20 Tb1 1_555 1_555
O22 Tb1 1_555 1_555
O25 Tb1 1_555 1_555
O27 Tb1 1_555 1_555
O6 C12 1_555 1_555
Tb8 O18 1_555 1_555
O25 C22 1_555 1_555
O27 C22 1_555 1_555
H10 C20 1_555 1_555
C22 C21 1_555 1_555
O18 C23 1_555 1_555
O10 C23 1_555 1_555
C23 C24 1_555 1_555
C24 C25 1_555 1_555
H11 C25 1_555 1_555
C27 C26 1_555 1_555
C28 C27 1_555 1_555
H12 C28 1_555 1_555
C29 C27 1_555 1_555
H13 C29 1_555 1_555
C30 C29 1_555 1_555
C31 C28 1_555 1_555
H15 C31 1_555 1_555
C20 C21 1_555 1_555
O10 Tb8 1_555 1_555
C24 C26 1_555 1_555
O20 C33 1_555 1_555
O22 C33 1_555 1_555
C33 C32 1_555 1_555

#END
