
###############################################################################
#
# This file contains modified crystal structure data generated from the
# MOF subset of the Cambridge Structural Database (CSD) v543 
# hosted by the Cambridge Crystallographic Data Centre (CCDC).
#
# This work is licensed under the Creative Commons
# Attribution-NonCommercial-ShareAlike 4.0 International License.
# To view a copy of this license, visit
# http://creativecommons.org/licenses/by-nc-sa/4.0/
# or send a letter to
# Creative Commons, PO Box 1866, Mountain View, CA 94042, USA.
#
# CIF created using the CSD Python API on 29 September 2022
# The structure has been converted into the P1 space group
# The structure has a 3D framework
# The original CSD entry DENFUA is in the orthorhombic crystal system
# The original CSD entry DENFUA is in a Sohncke space group
# The framework has been calculated to contain at least 10.0% void space
# The void calculation uses a probe of radius 1.32A, grid spacing 0.4
#
###############################################################################

data_DENFUA
_chemical_formula_moiety         '(C20 H12 Mn2 N20 O6)n'
_symmetry_cell_setting           triclinic
_symmetry_space_group_name_H-M   'P 1'
_symmetry_Int_Tables_number      1
_space_group_name_Hall           'P 1'
loop_
_symmetry_equiv_pos_site_id
_symmetry_equiv_pos_as_xyz
1 x,y,z
_cell_length_a                   8.7052(17)
_cell_length_b                   10.349(2)
_cell_length_c                   10.742(2)
_cell_angle_alpha                90
_cell_angle_beta                 90
_cell_angle_gamma                90
_cell_volume                     967.748
loop_
_atom_site_label
_atom_site_type_symbol
_atom_site_fract_x
_atom_site_fract_y
_atom_site_fract_z
C4 C 0.0105(8) 0.7445(7) 0.6527(6)
H2 H 0.0258 0.7117 0.5731
N4 N 0.0938(6) 0.6981(6) 0.7474(5)
C5 C 0.0622(9) 0.7466(7) 0.8610(6)
H3 H 0.1162 0.7155 0.9295
Mn4 Mn 0.30504(11) 0.56144(9) 0.72184(9)
Mn1 Mn 0.69496(11) 0.06144(9) 0.77816(9)
O3 O 0.6651(6) 0.1477(5) 0.9567(4)
N6 N 0.9062(6) 0.1981(6) 0.7526(5)
N7 N 0.5433(9) 0.2061(7) 0.6973(7)
N1 N 0.8734(6) 0.8919(5) 0.7833(6)
C1 C 0.9004(8) 0.8415(6) 0.6712(6)
O1 O 0.7262(6) 0.9938(5) 0.5860(5)
N2 N 0.5117(8) 0.9251(7) 0.8203(8)
C2 C 0.8121(9) 0.9009(6) 0.5626(6)
C3 C 0.9511(9) 0.8420(7) 0.8792(6)
H1 H 0.9309 0.8713 0.9594
N3 N 0.4853(6) 0.8143(6) 0.8090(6)
O2 O 0.8349(6) 0.8523(5) 0.4567(4)
N5 N 0.4567(9) 0.7061(7) 0.8027(7)
Mn2 Mn 0.80504(11) 0.93856(9) 0.27816(9)
N3_2 N 0.0147(6) 0.1857(6) 0.3090(6)
N5_2 N 0.0433(9) 0.2939(7) 0.3027(7)
Mn3 Mn 0.19496(11) 0.43856(9) 0.22184(9)
N1_2 N 0.6266(6) 0.1081(5) 0.2833(6)
C1_2 C 0.5996(8) 0.1585(6) 0.1712(6)
O1_2 O 0.7738(6) 0.0062(5) 0.0860(5)
N2_2 N 0.9883(8) 0.0749(7) 0.3203(8)
C2_2 C 0.6879(9) 0.0991(6) 0.0626(6)
C3_2 C 0.5489(9) 0.1580(7) 0.3792(6)
H1_2 H 0.5691 0.1287 0.4594
C4_2 C 0.4895(8) 0.2555(7) 0.1527(6)
H2_2 H 0.4742 0.2883 0.0731
N4_2 N 0.4062(6) 0.3019(6) 0.2474(5)
C5_2 C 0.4378(9) 0.2534(7) 0.3610(6)
H3_2 H 0.3838 0.2845 0.4295
N6_2 N 0.5938(6) 0.8019(6) 0.2526(5)
N7_2 N 0.9567(9) 0.7939(7) 0.1973(7)
O2_2 O 0.1651(6) 0.3523(5) 0.0433(4)
N1_3 N 0.1266(6) 0.3919(5) 0.7167(6)
C1_3 C 0.0996(8) 0.3415(6) 0.8288(6)
O1_3 O 0.2738(6) 0.4938(5) 0.9140(5)
N2_3 N 0.4883(8) 0.4251(7) 0.6797(8)
C2_3 C 0.1879(9) 0.4009(6) 0.9374(6)
C3_3 C 0.0489(9) 0.3420(7) 0.6208(6)
H1_3 H 0.0691 0.3713 0.5406
N3_3 N 0.5147(6) 0.3143(6) 0.6910(6)
O3_2 O 0.3349(6) 0.6477(5) 0.5433(4)
C4_3 C 0.9895(8) 0.2445(7) 0.8473(6)
H2_3 H 0.9742 0.2117 0.9269
C5_3 C 0.9378(9) 0.2466(7) 0.6390(6)
H3_3 H 0.8838 0.2155 0.5705
N1_4 N 0.3734(6) 0.6081(5) 0.2167(6)
C1_4 C 0.4004(8) 0.6585(6) 0.3288(6)
O1_4 O 0.2262(6) 0.5062(5) 0.4140(5)
N2_4 N 0.0117(8) 0.5749(7) 0.1797(8)
C2_4 C 0.3121(9) 0.5991(6) 0.4374(6)
C3_4 C 0.4511(9) 0.6580(7) 0.1208(6)
H1_4 H 0.4309 0.6287 0.0406
C4_4 C 0.5105(8) 0.7555(7) 0.3473(6)
H2_4 H 0.5258 0.7883 0.4269
C5_4 C 0.5622(9) 0.7534(7) 0.1390(6)
H3_4 H 0.6162 0.7845 0.0705
N3_4 N 0.9853(6) 0.6857(6) 0.1910(6)
loop_
_geom_bond_atom_site_label_1
_geom_bond_atom_site_label_2
_geom_bond_site_symmetry_1
_geom_bond_site_symmetry_2
H2 C4 1_555 1_555
N4 C4 1_555 1_555
H3 C5 1_555 1_555
Mn4 N4 1_555 1_555
N4 C5 1_555 1_555
O3 Mn1 1_555 1_555
N6 Mn1 1_555 1_555
N7 Mn1 1_555 1_555
N1 C1 1_555 1_555
C1 C2 1_555 1_555
C2 O1 1_555 1_555
C3 N1 1_555 1_555
H1 C3 1_555 1_555
N3 N2 1_555 1_555
O2 C2 1_555 1_555
N5 N3 1_555 1_555
Mn2 O2 1_555 1_555
Mn4 N5 1_555 1_555
N5_2 N3_2 1_555 1_555
Mn3 N5_2 1_555 1_555
N1_2 C1_2 1_555 1_555
C1_2 C2_2 1_555 1_555
C2_2 O1_2 1_555 1_555
C3_2 N1_2 1_555 1_555
H1_2 C3_2 1_555 1_555
C4_2 C1_2 1_555 1_555
H2_2 C4_2 1_555 1_555
N4_2 C4_2 1_555 1_555
C5_2 C3_2 1_555 1_555
H3_2 C5_2 1_555 1_555
Mn3 N4_2 1_555 1_555
N4_2 C5_2 1_555 1_555
N6_2 Mn2 1_555 1_555
N7_2 Mn2 1_555 1_555
Mn3 O2_2 1_555 1_555
Mn4 N1_3 1_555 1_555
N1_3 C1_3 1_555 1_555
C1_3 C2_3 1_555 1_555
O1_3 Mn4 1_555 1_555
N2_3 Mn4 1_555 1_555
C2_3 O1_3 1_555 1_555
C3_3 N1_3 1_555 1_555
H1_3 C3_3 1_555 1_555
N3_3 N2_3 1_555 1_555
N7 N3_3 1_555 1_555
O3_2 Mn4 1_555 1_555
H2_3 C4_3 1_555 1_555
N6 C4_3 1_555 1_555
H3_3 C5_3 1_555 1_555
N6 C5_3 1_555 1_555
Mn3 N1_4 1_555 1_555
N1_4 C1_4 1_555 1_555
C1_4 C2_4 1_555 1_555
O1_4 Mn3 1_555 1_555
N2_4 Mn3 1_555 1_555
C2_4 O1_4 1_555 1_555
C3_4 N1_4 1_555 1_555
H1_4 C3_4 1_555 1_555
O3_2 C2_4 1_555 1_555
C4_4 C1_4 1_555 1_555
H2_4 C4_4 1_555 1_555
N6_2 C4_4 1_555 1_555
C5_4 C3_4 1_555 1_555
H3_4 C5_4 1_555 1_555
N6_2 C5_4 1_555 1_555
N7_2 N3_4 1_555 1_555

#END
