
###############################################################################
#
# This file contains modified crystal structure data generated from the
# MOF subset of the Cambridge Structural Database (CSD) v543 
# hosted by the Cambridge Crystallographic Data Centre (CCDC).
#
# This work is licensed under the Creative Commons
# Attribution-NonCommercial-ShareAlike 4.0 International License.
# To view a copy of this license, visit
# http://creativecommons.org/licenses/by-nc-sa/4.0/
# or send a letter to
# Creative Commons, PO Box 1866, Mountain View, CA 94042, USA.
#
# CIF created using the CSD Python API on 29 September 2022
# The structure has been converted into the P1 space group
# The structure has a 3D framework
# The original CSD entry DETWAD is in the tetragonal crystal system
# The original CSD entry DETWAD is in a Sohncke space group
# The framework has been calculated to contain at least 10.0% void space
# The void calculation uses a probe of radius 1.32A, grid spacing 0.4
#
###############################################################################

data_DETWAD
_chemical_formula_moiety         '(C48 H16 Cs5 In5 O31 S8)n'
_symmetry_cell_setting           triclinic
_symmetry_space_group_name_H-M   'P 1'
_symmetry_Int_Tables_number      1
_space_group_name_Hall           'P 1'
loop_
_symmetry_equiv_pos_site_id
_symmetry_equiv_pos_as_xyz
1 x,y,z
_cell_length_a                   13.6387(6)
_cell_length_b                   13.6387(6)
_cell_length_c                   15.1597(16)
_cell_angle_alpha                90
_cell_angle_beta                 90
_cell_angle_gamma                90
_cell_volume                     2819.92
loop_
_atom_site_label
_atom_site_type_symbol
_atom_site_fract_x
_atom_site_fract_y
_atom_site_fract_z
In4 In -0.000000 0.56474(13) 0.000000
In4_2 In -0.000000 0.56474(13) 1.000000
Cs3 Cs 0.1533(2) 0.500000 0.750000
In1 In 0.43526(13) 0.000000 0.250000
S1 S 0.2284(5) 0.2782(5) 0.1052(4)
O1 O 0.3213(15) 0.1053(14) 0.2936(9)
O2 O 0.3651(11) 0.1138(10) 0.1550(9)
O3 O 0.0317(9) 0.4879(9) 0.1269(8)
O4 O 0.1178(9) 0.4403(9) 0.0083(8)
C1 C 0.3124(17) 0.1449(17) 0.2178(9)
C2 C 0.2434(18) 0.2277(18) 0.2056(17)
C3 C 0.188(2) 0.282(2) 0.2601(15)
H1 H 0.194515 0.271447 0.321751
C4 C 0.128(2) 0.346(2) 0.2338(17)
H2 H 0.081923 0.380795 0.268985
C5 C 0.1425(16) 0.3568(16) 0.1470(14)
C6 C 0.0939(12) 0.4325(14) 0.0894(9)
Cs1 Cs 0.500000 0.1533(2) 0.000000
In4_3 In 1.000000 0.56474(13) 0.000000
O11 O 0.5121(9) 0.0317(9) 0.3769(8)
O14 O 0.5597(9) 0.1178(9) 0.2583(8)
Cs1_2 Cs 0.500000 0.1533(2) 1.000000
S2 S 0.7716(5) 0.2782(5) 0.8948(4)
O5 O 0.6787(15) 0.1053(14) 0.7064(9)
O6 O 0.6349(11) 0.1138(10) 0.8450(9)
O7 O 0.9683(9) 0.4879(9) 0.8731(8)
O8 O 0.8822(9) 0.4403(9) 0.9917(8)
C7 C 0.6876(17) 0.1449(17) 0.7822(9)
C8 C 0.7566(18) 0.2277(18) 0.7944(17)
C9 C 0.812(2) 0.282(2) 0.7399(15)
H3 H 0.805485 0.271447 0.678249
C10 C 0.872(2) 0.346(2) 0.7662(17)
H4 H 0.918077 0.380795 0.731015
C11 C 0.8575(16) 0.3568(16) 0.8530(14)
C12 C 0.9061(12) 0.4325(14) 0.9106(9)
In2 In 0.56474(13) 0.000000 0.750000
In4_4 In 1.000000 0.56474(13) 1.000000
In1_2 In 0.43526(13) 1.000000 0.250000
O9 O 0.3213(15) 0.8947(14) 0.2064(9)
O10 O 0.3651(11) 0.8862(10) 0.3450(9)
O13 O 0.5121(9) 0.9683(9) 0.1231(8)
O15 O 0.5597(9) 0.8822(9) 0.2417(8)
In2_2 In 0.56474(13) 1.000000 0.750000
O12 O 0.4879(9) 0.9683(9) 0.8769(8)
Cs2 Cs 0.8467(2) 0.500000 0.250000
In3 In 0.000000 0.43526(13) 0.500000
O13_2 O 0.4879(9) 0.0317(9) 0.6231(8)
O15_2 O 0.4403(9) 0.1178(9) 0.7417(8)
S1_2 S 0.7716(5) 0.7218(5) 0.6052(4)
O1_2 O 0.6787(15) 0.8947(14) 0.7936(9)
O2_2 O 0.6349(11) 0.8862(10) 0.6550(9)
O3_2 O 0.9683(9) 0.5121(9) 0.6269(8)
O4_2 O 0.8822(9) 0.5597(9) 0.5083(8)
C1_2 C 0.6876(17) 0.8551(17) 0.7178(9)
C2_2 C 0.7566(18) 0.7723(18) 0.7056(17)
C3_2 C 0.812(2) 0.718(2) 0.7601(15)
H1_2 H 0.805485 0.728553 0.821751
C4_2 C 0.872(2) 0.654(2) 0.7338(17)
H2_2 H 0.918077 0.619205 0.768985
C5_2 C 0.8575(16) 0.6432(16) 0.6470(14)
C6_2 C 0.9061(12) 0.5675(14) 0.5894(9)
Cs1_3 Cs 0.500000 0.8467(2) 0.500000
S2_2 S 0.2284(5) 0.7218(5) 0.3948(4)
O7_2 O 0.0317(9) 0.5121(9) 0.3731(8)
O8_2 O 0.1178(9) 0.5597(9) 0.4917(8)
C7_2 C 0.3124(17) 0.8551(17) 0.2822(9)
C8_2 C 0.2434(18) 0.7723(18) 0.2944(17)
C9_2 C 0.188(2) 0.718(2) 0.2399(15)
H3_2 H 0.194515 0.728553 0.178249
C10_2 C 0.128(2) 0.654(2) 0.2662(17)
H4_2 H 0.081923 0.619205 0.231015
C11_2 C 0.1425(16) 0.6432(16) 0.3530(14)
C12_2 C 0.0939(12) 0.5675(14) 0.4106(9)
In3_2 In 1.000000 0.43526(13) 0.500000
O14_2 O 0.4403(9) 0.8822(9) 0.7583(8)
O9_2 O 0.1053(14) 0.3213(15) 0.4564(9)
O10_2 O 0.1138(10) 0.3651(11) 0.5950(9)
S1_3 S 0.7218(5) 0.2284(5) 0.3552(4)
O1_3 O 0.8947(14) 0.3213(15) 0.5436(9)
O2_3 O 0.8862(10) 0.3651(11) 0.4050(9)
C1_3 C 0.8551(17) 0.3124(17) 0.4678(9)
C2_3 C 0.7723(18) 0.2434(18) 0.4556(17)
C3_3 C 0.718(2) 0.188(2) 0.5101(15)
H1_3 H 0.728553 0.194515 0.571751
C4_3 C 0.654(2) 0.128(2) 0.4838(17)
H2_3 H 0.619205 0.081923 0.518985
C5_3 C 0.6432(16) 0.1425(16) 0.3970(14)
C6_3 C 0.5675(14) 0.0939(12) 0.3394(9)
S2_3 S 0.7218(5) 0.7716(5) 0.1448(4)
O6_2 O 0.8862(10) 0.6349(11) 0.0950(9)
C7_3 C 0.8551(17) 0.6876(17) 0.0322(9)
C8_3 C 0.7723(18) 0.7566(18) 0.0444(17)
C10_3 C 0.654(2) 0.872(2) 0.0162(17)
C11_3 C 0.6432(16) 0.8575(16) 0.1030(14)
C12_3 C 0.5675(14) 0.9061(12) 0.1606(9)
O5_2 O 0.8947(14) 0.6787(15) 0.9564(9)
C9_3 C 0.718(2) 0.812(2) 0.9899(15)
H3_3 H 0.728553 0.805485 0.928249
H4_3 H 0.619205 0.918077 0.981015
O1_4 O 0.1053(14) 0.6787(15) 0.0436(9)
C3_4 C 0.282(2) 0.812(2) 0.0101(15)
H1_4 H 0.271447 0.805485 0.071751
H2_4 H 0.380795 0.918077 0.018985
S1_4 S 0.2782(5) 0.7716(5) 0.8552(4)
O2_4 O 0.1138(10) 0.6349(11) 0.9050(9)
C1_4 C 0.1449(17) 0.6876(17) 0.9678(9)
C2_4 C 0.2277(18) 0.7566(18) 0.9556(17)
C4_4 C 0.346(2) 0.872(2) 0.9838(17)
C5_4 C 0.3568(16) 0.8575(16) 0.8970(14)
C6_4 C 0.4325(14) 0.9061(12) 0.8394(9)
S2_4 S 0.2782(5) 0.2284(5) 0.6448(4)
C7_4 C 0.1449(17) 0.3124(17) 0.5322(9)
C8_4 C 0.2277(18) 0.2434(18) 0.5444(17)
C9_4 C 0.282(2) 0.188(2) 0.4899(15)
H3_4 H 0.271447 0.194515 0.428249
C10_4 C 0.346(2) 0.128(2) 0.5162(17)
H4_4 H 0.380795 0.081923 0.481015
C11_4 C 0.3568(16) 0.1425(16) 0.6030(14)
C12_4 C 0.4325(14) 0.0939(12) 0.6606(9)
loop_
_geom_bond_atom_site_label_1
_geom_bond_atom_site_label_2
_geom_bond_site_symmetry_1
_geom_bond_site_symmetry_2
In1 O1 1_555 1_555
S1 C2 1_555 1_555
O1 C1 1_555 1_555
O2 In1 1_555 1_555
O3 C6 1_555 1_555
O4 C6 1_555 1_555
C1 O2 1_555 1_555
C2 C1 1_555 1_555
C3 C2 1_555 1_555
H1 C3 1_555 1_555
C4 C3 1_555 1_555
H2 C4 1_555 1_555
C5 S1 1_555 1_555
C6 C5 1_555 1_555
Cs1 O2 1_555 1_555
In4 O3 1_555 1_555
O11 In1 1_555 1_555
O14 In1 1_555 1_555
O4 In4 1_555 1_555
C4 C5 1_555 1_555
S2 C8 1_555 1_555
O5 C7 1_555 1_555
O6 Cs1_2 1_555 1_555
O7 C12 1_555 1_555
O8 C12 1_555 1_555
C7 O6 1_555 1_555
C8 C7 1_555 1_555
C9 C8 1_555 1_555
H3 C9 1_555 1_555
C10 C9 1_555 1_555
H4 C10 1_555 1_555
C11 S2 1_555 1_555
C12 C11 1_555 1_555
In2 O5 1_555 1_555
In4_4 O7 1_555 1_555
O6 In2 1_555 1_555
O8 In4_4 1_555 1_555
C10 C11 1_555 1_555
O9 In1_2 1_555 1_555
O10 In1_2 1_555 1_555
O13 In1_2 1_555 1_555
O15 In1_2 1_555 1_555
In2_2 O12 1_555 1_555
O13_2 In2 1_555 1_555
O15_2 In2 1_555 1_555
In2_2 O1_2 1_555 1_555
S1_2 C2_2 1_555 1_555
O1_2 C1_2 1_555 1_555
O2_2 In2_2 1_555 1_555
O3_2 C6_2 1_555 1_555
O4_2 C6_2 1_555 1_555
C1_2 O2_2 1_555 1_555
C2_2 C1_2 1_555 1_555
C3_2 C2_2 1_555 1_555
H1_2 C3_2 1_555 1_555
C4_2 C3_2 1_555 1_555
H2_2 C4_2 1_555 1_555
C5_2 S1_2 1_555 1_555
C6_2 C5_2 1_555 1_555
Cs1_3 O2_2 1_555 1_555
S2_2 C8_2 1_555 1_555
O9 C7_2 1_555 1_555
O10 Cs1_3 1_555 1_555
O7_2 C12_2 1_555 1_555
O8_2 C12_2 1_555 1_555
C7_2 O10 1_555 1_555
C8_2 C7_2 1_555 1_555
C9_2 C8_2 1_555 1_555
H3_2 C9_2 1_555 1_555
C10_2 C9_2 1_555 1_555
H4_2 C10_2 1_555 1_555
C11_2 S2_2 1_555 1_555
C12_2 C11_2 1_555 1_555
In3_2 O3_2 1_555 1_555
In3 O7_2 1_555 1_555
O14_2 In2_2 1_555 1_555
O4_2 In3_2 1_555 1_555
C4_2 C5_2 1_555 1_555
O8_2 In3 1_555 1_555
C10_2 C11_2 1_555 1_555
O9_2 In3 1_555 1_555
O10_2 In3 1_555 1_555
In3_2 O1_3 1_555 1_555
S1_3 C2_3 1_555 1_555
O1_3 C1_3 1_555 1_555
O2_3 In3_2 1_555 1_555
O11 C6_3 1_555 1_555
O14 C6_3 1_555 1_555
C1_3 O2_3 1_555 1_555
C2_3 C1_3 1_555 1_555
C3_3 C2_3 1_555 1_555
H1_3 C3_3 1_555 1_555
C4_3 C3_3 1_555 1_555
H2_3 C4_3 1_555 1_555
C5_3 S1_3 1_555 1_555
C6_3 C5_3 1_555 1_555
Cs2 O2_3 1_555 1_555
S2_3 C8_3 1_555 1_555
O6_2 Cs2 1_555 1_555
O13 C12_3 1_555 1_555
O15 C12_3 1_555 1_555
C7_3 O6_2 1_555 1_555
C8_3 C7_3 1_555 1_555
C11_3 S2_3 1_555 1_555
C12_3 C11_3 1_555 1_555
C4_3 C5_3 1_555 1_555
O6_2 In4_3 1_555 1_555
C10_3 C11_3 1_555 1_555
H3_3 C9_3 1_555 1_555
In4_4 O5_2 1_555 1_555
In4 O1_4 1_555 1_555
H1_4 C3_4 1_555 1_555
S1_4 C2_4 1_555 1_555
O2_4 In4_2 1_555 1_555
O12 C6_4 1_555 1_555
O14_2 C6_4 1_555 1_555
C1_4 O2_4 1_555 1_555
C2_4 C1_4 1_555 1_555
C5_4 S1_4 1_555 1_555
C6_4 C5_4 1_555 1_555
Cs3 O2_4 1_555 1_555
S2_4 C8_4 1_555 1_555
O9_2 C7_4 1_555 1_555
O10_2 Cs3 1_555 1_555
O13_2 C12_4 1_555 1_555
O15_2 C12_4 1_555 1_555
C7_4 O10_2 1_555 1_555
C8_4 C7_4 1_555 1_555
C9_4 C8_4 1_555 1_555
H3_4 C9_4 1_555 1_555
C10_4 C9_4 1_555 1_555
H4_4 C10_4 1_555 1_555
C11_4 S2_4 1_555 1_555
C12_4 C11_4 1_555 1_555
C4_4 C5_4 1_555 1_555
C10_4 C11_4 1_555 1_555

#END
