
###############################################################################
#
# This file contains modified crystal structure data generated from the
# MOF subset of the Cambridge Structural Database (CSD) v543 
# hosted by the Cambridge Crystallographic Data Centre (CCDC).
#
# This work is licensed under the Creative Commons
# Attribution-NonCommercial-ShareAlike 4.0 International License.
# To view a copy of this license, visit
# http://creativecommons.org/licenses/by-nc-sa/4.0/
# or send a letter to
# Creative Commons, PO Box 1866, Mountain View, CA 94042, USA.
#
# CIF created using the CSD Python API on 29 September 2022
# The structure has been converted into the P1 space group
# The structure has a 3D framework
# The original CSD entry DEYGAS is in the triclinic crystal system
# The framework has been calculated to contain at least 10.0% void space
# The void calculation uses a probe of radius 1.32A, grid spacing 0.4
#
###############################################################################

data_DEYGAS
_chemical_formula_moiety         '(C136 H96 N28 Ni2 O16)n'
_symmetry_cell_setting           triclinic
_symmetry_space_group_name_H-M   'P 1'
_symmetry_Int_Tables_number      1
_space_group_name_Hall           'P 1'
loop_
_symmetry_equiv_pos_site_id
_symmetry_equiv_pos_as_xyz
1 x,y,z
_cell_length_a                   14.9947(18)
_cell_length_b                   15.203(2)
_cell_length_c                   16.623(2)
_cell_angle_alpha                66.723(13)
_cell_angle_beta                 75.792(11)
_cell_angle_gamma                84.833(11)
_cell_volume                     3374.43
loop_
_atom_site_label
_atom_site_type_symbol
_atom_site_fract_x
_atom_site_fract_y
_atom_site_fract_z
Ni1 Ni 0.73126(3) 0.00106(3) 0.23902(3)
O5 O 0.11859(19) 0.06836(18) 0.29017(17)
N14 N 0.1641(2) 0.0237(2) 0.14726(19)
H45 H 0.2134 0.0172 0.4326
C62 C 0.0615(3) 0.0944(2) 0.2412(2)
C63 C 0.0824(2) 0.0664(2) 0.1602(2)
C64 C 0.0252(2) 0.0858(2) 0.1019(2)
C65 C 0.0591(3) 0.0675(3) 0.0244(3)
C66 C 0.1441(3) 0.0239(3) 0.0107(3)
C67 C 0.1938(3) 0.0018(3) 0.0742(3)
O9 O 0.86982(17) 0.04925(16) 0.16859(16)
N15 N 0.6803(2) 0.07467(19) 0.12351(19)
N16 N 0.3056(2) 0.1275(2) 0.1718(2)
N17 N 0.7059(2) 0.11995(19) 0.27232(19)
C16 C 0.6048(3) 0.1229(3) 0.0136(3)
C17 C 0.7194(3) 0.1531(2) 0.0592(2)
H13 H 0.7704 0.1826 0.0606
C18 C 0.6081(3) 0.0559(3) 0.0952(2)
H14 H 0.5675 0.0044 0.1277
Ni2 Ni 0.23051(3) 0.99624(3) 0.24787(3)
O1 O 0.59572(17) 0.95639(16) 0.30615(16)
O2 O 0.5640(2) 0.80388(19) 0.3976(2)
O3 O 0.34182(18) 0.92685(17) 0.20236(17)
O4 O 0.47209(19) 0.85800(19) 0.23450(19)
N1 N 0.7867(2) 0.92654(19) 0.35065(18)
N2 N 0.8089(2) 0.8035(2) 0.46903(19)
N4 N 0.6759(2) 0.18567(19) 0.99085(19)
N5 N 0.7568(2) 0.87907(19) 0.20862(19)
N6 N 0.7352(2) 0.7509(2) 0.1850(2)
N8 N 0.3930(2) 0.2534(2) 0.1334(2)
N9 N 0.1589(2) 0.8640(2) 0.3218(2)
N10 N 0.0795(2) 0.7339(2) 0.3550(2)
N13 N 0.2981(2) 0.96943(19) 0.3480(2)
C1 C 0.7549(3) 0.8433(2) 0.4104(2)
H1 H 0.7016 0.8150 0.4123
C2 C 0.8800(3) 0.8675(3) 0.4443(3)
H2 H 0.9280 0.8607 0.4726
C3 C 0.8657(3) 0.9418(3) 0.3708(3)
H3 H 0.9037 0.9954 0.3385
C4 C 0.7942(3) 0.7115(3) 0.5414(2)
C5 C 0.8392(3) 0.6881(3) 0.6095(3)
H4 H 0.8788 0.7321 0.6092
C6 C 0.8255(3) 0.5995(3) 0.6783(3)
H5 H 0.8575 0.5834 0.7235
C7 C 0.7651(3) 0.5329(3) 0.6821(2)
C8 C 0.7230(3) 0.5577(3) 0.6126(3)
H6 H 0.6836 0.5137 0.6126
C9 C 0.7365(3) 0.6458(3) 0.5421(3)
H7 H 0.7068 0.6606 0.4954
C10 C 0.7443(3) 0.4402(2) 0.7614(2)
C11 C 0.7541(3) 0.4323(3) 0.8446(3)
H8 H 0.7756 0.4848 0.8500
C12 C 0.7328(3) 0.3489(2) 0.9195(2)
H9 H 0.7403 0.3447 0.9748
C13 C 0.7001(3) 0.2710(2) 0.9113(2)
C14 C 0.6904(3) 0.2758(3) 0.8300(2)
H10 H 0.6693 0.2231 0.8249
C15 C 0.7127(3) 0.3610(3) 0.7552(3)
H11 H 0.7062 0.3647 0.6997
H12 H 0.5629 0.1261 0.9796
C19 C 0.6962(3) 0.8294(2) 0.1986(2)
H15 H 0.6346 0.8457 0.2007
C20 C 0.8373(3) 0.8285(3) 0.2040(3)
H16 H 0.8921 0.8457 0.2108
C21 C 0.8255(3) 0.7508(3) 0.1884(3)
H17 H 0.8698 0.7058 0.1813
C22 C 0.6880(3) 0.6788(3) 0.1753(3)
C23 C 0.7369(3) 0.6157(3) 0.1408(3)
H18 H 0.8007 0.6202 0.1224
C24 C 0.6901(3) 0.5450(3) 0.1337(3)
H19 H 0.7233 0.5030 0.1096
C25 C 0.5955(3) 0.5357(3) 0.1615(3)
C26 C 0.5483(3) 0.6009(3) 0.1949(4)
H20 H 0.4845 0.5973 0.2128
C27 C 0.5941(3) 0.6717(3) 0.2025(4)
H21 H 0.5610 0.7142 0.2261
C28 C 0.5456(3) 0.4597(3) 0.1551(3)
C29 C 0.5723(3) 0.4317(3) 0.0834(3)
H22 H 0.6245 0.4591 0.0389
C30 C 0.5230(3) 0.3639(3) 0.0764(3)
H23 H 0.5419 0.3462 0.0273
C31 C 0.4461(3) 0.3222(3) 0.1416(3)
C32 C 0.4167(3) 0.3490(3) 0.2147(3)
H24 H 0.3639 0.3219 0.2585
C33 C 0.4674(3) 0.4169(3) 0.2209(3)
H25 H 0.4488 0.4343 0.2702
C34 C 0.3496(3) 0.1757(3) 0.2006(3)
H26 H 0.3506 0.1582 0.2606
C35 C 0.3229(4) 0.1770(4) 0.0821(3)
H27 H 0.2998 0.1609 0.0426
C36 C 0.3780(4) 0.2530(4) 0.0573(3)
C37 C 0.1131(3) 0.8182(3) 0.2920(3)
H29 H 0.1050 0.8419 0.2334
C38 C 0.1527(4) 0.8049(3) 0.4091(3)
H30 H 0.1785 0.8177 0.4488
C39 C 0.1043(4) 0.7254(3) 0.4306(3)
H31 H 0.0905 0.6748 0.4863
C40 C 0.0276(3) 0.6657(3) 0.3449(3)
H34 H 0.0079 0.5809 0.2000
C45 C 0.0450(3) 0.6552(3) 0.2636(3)
H35 H 0.0896 0.6930 0.2152
C55 C 0.5428(3) 0.8884(3) 0.3595(2)
C56 C 0.4434(2) 0.9185(2) 0.3832(2)
C57 C 0.4143(3) 0.9397(3) 0.4592(3)
H43 H 0.4539 0.9299 0.4971
C58 C 0.3270(3) 0.9754(3) 0.4795(3)
H44 H 0.3069 0.9884 0.5311
C59 C 0.2713(3) 0.9910(3) 0.4212(3)
C60 C 0.3822(2) 0.9316(2) 0.3294(2)
C61 C 0.4004(3) 0.9033(2) 0.2487(2)
H48 H 0.2498 0.9708 0.0670
O6 O 0.99158(19) 0.14248(18) 0.25293(19)
O8 O 0.90668(19) 0.20276(18) 0.0817(2)
C68 C 0.9256(3) 0.1182(2) 0.1196(2)
N12 N 0.7293(2) 0.2470(2) 0.2970(2)
C41 C 0.9612(3) 0.6102(3) 0.4169(3)
H32 H 0.9499 0.6170 0.4717
C42 C 0.9114(3) 0.5442(3) 0.4069(3)
H33 H 0.8659 0.5079 0.4552
C43 C 0.9277(3) 0.5310(3) 0.3273(3)
C44 C 0.9959(3) 0.5882(3) 0.2546(3)
C46 C 0.8748(3) 0.4575(3) 0.3185(3)
C47 C 0.9146(3) 0.4132(3) 0.2598(4)
H36 H 0.9743 0.4294 0.2256
C48 C 0.8658(3) 0.3443(3) 0.2517(4)
H37 H 0.8920 0.3160 0.2111
C49 C 0.7779(3) 0.3184(3) 0.3049(3)
C50 C 0.7379(3) 0.3628(3) 0.3613(3)
H38 H 0.6781 0.3465 0.3953
C51 C 0.7860(3) 0.4326(3) 0.3684(3)
H39 H 0.7581 0.4627 0.4072
C52 C 0.7687(3) 0.1736(2) 0.2751(3)
H40 H 0.8316 0.1623 0.2636
C53 C 0.6236(3) 0.1622(3) 0.2921(3)
H41 H 0.5668 0.1400 0.2943
C54 C 0.6355(3) 0.2398(3) 0.3079(3)
H42 H 0.5902 0.2802 0.3231
H46 H 0.0246 0.0847 0.9810
H47 H 0.1661 0.0103 0.9595
H28 H 0.4011 0.2964 0.9990
N11 N 0.2941(2) 0.88005(19) 0.72768(19)
N12_2 N 0.2707(2) 0.7530(2) 0.7030(2)
C41_2 C 0.0388(3) 0.3898(3) 0.5831(3)
H32_2 H 0.0501 0.3830 0.5283
C42_2 C 0.0886(3) 0.4558(3) 0.5931(3)
H33_2 H 0.1341 0.4921 0.5448
C43_2 C 0.0723(3) 0.4690(3) 0.6727(3)
C44_2 C 0.0041(3) 0.4118(3) 0.7454(3)
C46_2 C 0.1252(3) 0.5425(3) 0.6815(3)
C47_2 C 0.0854(3) 0.5868(3) 0.7402(4)
H36_2 H 0.0257 0.5706 0.7744
C48_2 C 0.1342(3) 0.6557(3) 0.7483(4)
H37_2 H 0.1080 0.6840 0.7889
C49_2 C 0.2221(3) 0.6816(3) 0.6951(3)
C50_2 C 0.2621(3) 0.6372(3) 0.6387(3)
H38_2 H 0.3219 0.6535 0.6047
C51_2 C 0.2140(3) 0.5674(3) 0.6316(3)
H39_2 H 0.2419 0.5373 0.5928
C52_2 C 0.2313(3) 0.8264(2) 0.7249(3)
H40_2 H 0.1684 0.8377 0.7364
C53_2 C 0.3764(3) 0.8378(3) 0.7079(3)
H41_2 H 0.4332 0.8600 0.7057
C54_2 C 0.3645(3) 0.7602(3) 0.6921(3)
H42_2 H 0.4098 0.7198 0.6769
Ni3 Ni 0.26874(3) 0.99894(3) 0.76098(3)
O6_2 O 0.00842(19) 0.85752(18) 0.74707(19)
O7 O 0.13018(17) 0.95075(16) 0.83141(16)
O8_2 O 0.09332(19) 0.79724(18) 0.9183(2)
C68_2 C 0.0744(3) 0.8818(2) 0.8804(2)
Ni6 Ni 0.76949(3) 0.00376(3) 0.75213(3)
O1_2 O 0.40428(17) 0.04361(16) 0.69385(16)
O2_2 O 0.4360(2) 0.19612(19) 0.6024(2)
O3_2 O 0.65818(18) 0.07315(17) 0.79764(17)
O4_2 O 0.52791(19) 0.14200(19) 0.76550(19)
N1_2 N 0.2133(2) 0.07346(19) 0.64935(18)
N2_2 N 0.1911(2) 0.1965(2) 0.53097(19)
N4_2 N 0.3241(2) 0.81433(19) 0.00915(19)
N5_2 N 0.2432(2) 0.12093(19) 0.79138(19)
N6_2 N 0.2648(2) 0.2491(2) 0.8150(2)
N7 N 0.6944(2) 0.8725(2) 0.8282(2)
N8_2 N 0.6070(2) 0.7466(2) 0.8666(2)
N9_2 N 0.8411(2) 0.1360(2) 0.6782(2)
N10_2 N 0.9205(2) 0.2661(2) 0.6450(2)
N13_2 N 0.7019(2) 0.03057(19) 0.6520(2)
C1_2 C 0.2451(3) 0.1567(2) 0.5896(2)
H1_2 H 0.2984 0.1850 0.5877
C2_2 C 0.1200(3) 0.1325(3) 0.5557(3)
H2_2 H 0.0720 0.1393 0.5274
C3_2 C 0.1343(3) 0.0582(3) 0.6292(3)
H3_2 H 0.0963 0.0046 0.6615
C4_2 C 0.2058(3) 0.2885(3) 0.4586(2)
C5_2 C 0.1608(3) 0.3119(3) 0.3905(3)
H4_2 H 0.1212 0.2679 0.3908
C6_2 C 0.1745(3) 0.4005(3) 0.3217(3)
H5_2 H 0.1425 0.4166 0.2765
C7_2 C 0.2349(3) 0.4671(3) 0.3179(2)
C8_2 C 0.2770(3) 0.4423(3) 0.3874(3)
H6_2 H 0.3164 0.4863 0.3874
C9_2 C 0.2635(3) 0.3542(3) 0.4579(3)
H7_2 H 0.2932 0.3394 0.5046
C10_2 C 0.2557(3) 0.5598(2) 0.2386(2)
C11_2 C 0.2459(3) 0.5677(3) 0.1554(3)
H8_2 H 0.2244 0.5152 0.1500
C12_2 C 0.2672(3) 0.6511(2) 0.0805(2)
H9_2 H 0.2597 0.6553 0.0252
C13_2 C 0.2999(3) 0.7290(2) 0.0887(2)
C14_2 C 0.3096(3) 0.7242(3) 0.1700(2)
H10_2 H 0.3307 0.7769 0.1751
C15_2 C 0.2873(3) 0.6390(3) 0.2448(3)
H11_2 H 0.2938 0.6353 0.3003
H12_2 H 0.4371 0.8739 0.0204
C19_2 C 0.3038(3) 0.1706(2) 0.8014(2)
H15_2 H 0.3654 0.1543 0.7993
C20_2 C 0.1627(3) 0.1715(3) 0.7960(3)
H16_2 H 0.1079 0.1543 0.7892
C21_2 C 0.1745(3) 0.2492(3) 0.8116(3)
H17_2 H 0.1302 0.2942 0.8187
C22_2 C 0.3120(3) 0.3212(3) 0.8247(3)
C23_2 C 0.2631(3) 0.3843(3) 0.8592(3)
H18_2 H 0.1993 0.3798 0.8776
C24_2 C 0.3099(3) 0.4550(3) 0.8663(3)
H19_2 H 0.2767 0.4970 0.8904
C25_2 C 0.4045(3) 0.4643(3) 0.8385(3)
C26_2 C 0.4517(3) 0.3991(3) 0.8051(4)
H20_2 H 0.5155 0.4027 0.7872
C27_2 C 0.4059(3) 0.3283(3) 0.7975(4)
H21_2 H 0.4390 0.2858 0.7739
C28_2 C 0.4544(3) 0.5403(3) 0.8449(3)
C29_2 C 0.4277(3) 0.5683(3) 0.9166(3)
H22_2 H 0.3755 0.5409 0.9611
C30_2 C 0.4770(3) 0.6361(3) 0.9236(3)
H23_2 H 0.4581 0.6538 0.9727
C31_2 C 0.5539(3) 0.6778(3) 0.8584(3)
C32_2 C 0.5833(3) 0.6510(3) 0.7853(3)
H24_2 H 0.6361 0.6781 0.7415
C33_2 C 0.5326(3) 0.5831(3) 0.7791(3)
H25_2 H 0.5512 0.5657 0.7298
C34_2 C 0.6504(3) 0.8243(3) 0.7994(3)
H26_2 H 0.6494 0.8418 0.7394
C35_2 C 0.6771(4) 0.8230(4) 0.9179(3)
H27_2 H 0.7002 0.8391 0.9574
C36_2 C 0.6220(4) 0.7470(4) 0.9427(3)
C37_2 C 0.8869(3) 0.1818(3) 0.7080(3)
H29_2 H 0.8950 0.1581 0.7666
C38_2 C 0.8473(4) 0.1951(3) 0.5909(3)
H30_2 H 0.8215 0.1823 0.5512
C39_2 C 0.8957(4) 0.2746(3) 0.5694(3)
H31_2 H 0.9095 0.3252 0.5137
C40_2 C 0.9724(3) 0.3343(3) 0.6551(3)
H34_2 H 0.9921 0.4191 0.8000
C45_2 C 0.9550(3) 0.3448(3) 0.7364(3)
H35_2 H 0.9104 0.3070 0.7848
C55_2 C 0.4572(3) 0.1116(3) 0.6405(2)
C56_2 C 0.5566(2) 0.0815(2) 0.6168(2)
C57_2 C 0.5857(3) 0.0603(3) 0.5408(3)
H43_2 H 0.5461 0.0701 0.5029
C58_2 C 0.6730(3) 0.0246(3) 0.5205(3)
H44_2 H 0.6931 0.0116 0.4689
C59_2 C 0.7287(3) 0.0090(3) 0.5788(3)
C60_2 C 0.6178(2) 0.0684(2) 0.6706(2)
C61_2 C 0.5996(3) 0.0967(2) 0.7513(2)
H48_2 H 0.7502 0.0292 0.9330
N3 N 0.3197(2) 0.92533(19) 0.87649(19)
C16_2 C 0.3952(3) 0.8771(3) 0.9864(3)
C17_2 C 0.2806(3) 0.8469(2) 0.9408(2)
H13_2 H 0.2296 0.8174 0.9394
C18_2 C 0.3919(3) 0.9441(3) 0.9048(2)
H14_2 H 0.4325 0.9956 0.8723
O5_2 O 0.88141(19) 0.93164(18) 0.70983(17)
N14_2 N 0.8359(2) 0.9763(2) 0.85274(19)
H45_2 H 0.7866 0.9828 0.5674
C62_2 C 0.9385(3) 0.9056(2) 0.7588(2)
C63_2 C 0.9176(2) 0.9336(2) 0.8398(2)
C64_2 C 0.9748(2) 0.9142(2) 0.8981(2)
C65_2 C 0.9409(3) 0.9325(3) 0.9756(3)
C66_2 C 0.8559(3) 0.9761(3) 0.9893(3)
C67_2 C 0.8062(3) 0.9982(3) 0.9258(3)
H28_2 H 0.5989 0.7036 0.0010
H46_2 H 0.9754 0.9153 0.0190
H47_2 H 0.8339 0.9897 0.0405
loop_
_geom_bond_atom_site_label_1
_geom_bond_atom_site_label_2
_geom_bond_site_symmetry_1
_geom_bond_site_symmetry_2
C62 O5 1_555 1_555
C63 N14 1_555 1_555
C64 C63 1_555 1_555
C65 C64 1_555 1_555
C66 C65 1_555 1_555
C67 N14 1_555 1_555
O9 Ni1 1_555 1_555
N15 Ni1 1_555 1_555
N17 Ni1 1_555 1_555
C62 C63 1_555 1_555
C66 C67 1_555 1_555
N15 C17 1_555 1_555
H13 C17 1_555 1_555
C18 N15 1_555 1_555
H14 C18 1_555 1_555
C16 C18 1_555 1_555
Ni2 O3 1_555 1_555
O1 C55 1_555 1_555
O2 C55 1_555 1_555
O3 C61 1_555 1_555
O4 C61 1_555 1_555
N2 C1 1_555 1_555
N4 C13 1_555 1_555
N6 C19 1_555 1_555
N16 C34 1_555 1_555
N8 C31 1_555 1_555
N9 Ni2 1_555 1_555
N10 C37 1_555 1_555
N13 Ni2 1_555 1_555
C1 N1 1_555 1_555
H1 C1 1_555 1_555
C2 N2 1_555 1_555
H2 C2 1_555 1_555
C3 N1 1_555 1_555
H3 C3 1_555 1_555
C4 N2 1_555 1_555
C5 C4 1_555 1_555
H4 C5 1_555 1_555
C6 C5 1_555 1_555
H5 C6 1_555 1_555
C7 C6 1_555 1_555
C8 C7 1_555 1_555
H6 C8 1_555 1_555
C9 C4 1_555 1_555
H7 C9 1_555 1_555
C10 C7 1_555 1_555
C11 C10 1_555 1_555
H8 C11 1_555 1_555
C12 C11 1_555 1_555
H9 C12 1_555 1_555
C13 C12 1_555 1_555
C14 C13 1_555 1_555
H10 C14 1_555 1_555
C15 C10 1_555 1_555
H11 C15 1_555 1_555
C19 N5 1_555 1_555
H15 C19 1_555 1_555
C20 N5 1_555 1_555
H16 C20 1_555 1_555
C21 N6 1_555 1_555
H17 C21 1_555 1_555
C22 N6 1_555 1_555
C23 C22 1_555 1_555
H18 C23 1_555 1_555
C24 C23 1_555 1_555
H19 C24 1_555 1_555
C25 C24 1_555 1_555
C26 C25 1_555 1_555
H20 C26 1_555 1_555
C27 C22 1_555 1_555
H21 C27 1_555 1_555
C28 C25 1_555 1_555
C29 C28 1_555 1_555
H22 C29 1_555 1_555
C30 C29 1_555 1_555
H23 C30 1_555 1_555
C31 C30 1_555 1_555
C32 C31 1_555 1_555
H24 C32 1_555 1_555
C33 C28 1_555 1_555
H25 C33 1_555 1_555
C34 N8 1_555 1_555
H26 C34 1_555 1_555
C35 N16 1_555 1_555
H27 C35 1_555 1_555
C36 N8 1_555 1_555
C37 N9 1_555 1_555
H29 C37 1_555 1_555
C38 N9 1_555 1_555
H30 C38 1_555 1_555
C39 N10 1_555 1_555
H31 C39 1_555 1_555
C40 N10 1_555 1_555
C45 C40 1_555 1_555
H35 C45 1_555 1_555
C55 C56 1_555 1_555
C56 C57 1_555 1_555
C57 H43 1_555 1_555
C58 C57 1_555 1_555
H44 C58 1_555 1_555
C59 N13 1_555 1_555
C60 N13 1_555 1_555
C61 C60 1_555 1_555
C2 C3 1_555 1_555
C8 C9 1_555 1_555
C14 C15 1_555 1_555
C20 C21 1_555 1_555
C26 C27 1_555 1_555
C32 C33 1_555 1_555
C35 C36 1_555 1_555
C38 C39 1_555 1_555
C56 C60 1_555 1_555
C58 C59 1_555 1_555
O9 C68 1_555 1_555
O8 C68 1_555 1_555
N17 C52 1_555 1_555
N12 C49 1_555 1_555
H32 C41 1_555 1_555
C42 C41 1_555 1_555
H33 C42 1_555 1_555
C43 C42 1_555 1_555
C44 C43 1_555 1_555
C46 C43 1_555 1_555
C47 C46 1_555 1_555
H36 C47 1_555 1_555
C48 C47 1_555 1_555
H37 C48 1_555 1_555
C49 C48 1_555 1_555
C50 C49 1_555 1_555
H38 C50 1_555 1_555
C51 C46 1_555 1_555
H39 C51 1_555 1_555
C52 N12 1_555 1_555
H40 C52 1_555 1_555
C53 N17 1_555 1_555
H41 C53 1_555 1_555
C54 N12 1_555 1_555
H42 C54 1_555 1_555
C50 C51 1_555 1_555
C53 C54 1_555 1_555
N11 C52_2 1_555 1_555
N12_2 C49_2 1_555 1_555
H32_2 C41_2 1_555 1_555
C42_2 C41_2 1_555 1_555
H33_2 C42_2 1_555 1_555
C43_2 C42_2 1_555 1_555
C44_2 C43_2 1_555 1_555
C46_2 C43_2 1_555 1_555
C47_2 C46_2 1_555 1_555
H36_2 C47_2 1_555 1_555
C48_2 C47_2 1_555 1_555
H37_2 C48_2 1_555 1_555
C49_2 C48_2 1_555 1_555
C50_2 C49_2 1_555 1_555
H38_2 C50_2 1_555 1_555
C51_2 C46_2 1_555 1_555
H39_2 C51_2 1_555 1_555
C52_2 N12_2 1_555 1_555
H40_2 C52_2 1_555 1_555
C53_2 N11 1_555 1_555
H41_2 C53_2 1_555 1_555
C54_2 N12_2 1_555 1_555
H42_2 C54_2 1_555 1_555
Ni3 N11 1_555 1_555
C50_2 C51_2 1_555 1_555
C53_2 C54_2 1_555 1_555
O7 C68_2 1_555 1_555
O8_2 C68_2 1_555 1_555
Ni3 O7 1_555 1_555
Ni6 O3_2 1_555 1_555
O1_2 C55_2 1_555 1_555
O2_2 C55_2 1_555 1_555
O3_2 C61_2 1_555 1_555
O4_2 C61_2 1_555 1_555
N2_2 C1_2 1_555 1_555
N4_2 C13_2 1_555 1_555
N6_2 C19_2 1_555 1_555
N7 C34_2 1_555 1_555
N8_2 C31_2 1_555 1_555
N9_2 Ni6 1_555 1_555
N10_2 C37_2 1_555 1_555
N13_2 Ni6 1_555 1_555
C1_2 N1_2 1_555 1_555
H1_2 C1_2 1_555 1_555
C2_2 N2_2 1_555 1_555
H2_2 C2_2 1_555 1_555
C3_2 N1_2 1_555 1_555
H3_2 C3_2 1_555 1_555
C4_2 N2_2 1_555 1_555
C5_2 C4_2 1_555 1_555
H4_2 C5_2 1_555 1_555
C6_2 C5_2 1_555 1_555
H5_2 C6_2 1_555 1_555
C7_2 C6_2 1_555 1_555
C8_2 C7_2 1_555 1_555
H6_2 C8_2 1_555 1_555
C9_2 C4_2 1_555 1_555
H7_2 C9_2 1_555 1_555
C10_2 C7_2 1_555 1_555
C11_2 C10_2 1_555 1_555
H8_2 C11_2 1_555 1_555
C12_2 C11_2 1_555 1_555
H9_2 C12_2 1_555 1_555
C13_2 C12_2 1_555 1_555
C14_2 C13_2 1_555 1_555
H10_2 C14_2 1_555 1_555
C15_2 C10_2 1_555 1_555
H11_2 C15_2 1_555 1_555
C19_2 N5_2 1_555 1_555
H15_2 C19_2 1_555 1_555
C20_2 N5_2 1_555 1_555
H16_2 C20_2 1_555 1_555
C21_2 N6_2 1_555 1_555
H17_2 C21_2 1_555 1_555
C22_2 N6_2 1_555 1_555
C23_2 C22_2 1_555 1_555
H18_2 C23_2 1_555 1_555
C24_2 C23_2 1_555 1_555
H19_2 C24_2 1_555 1_555
C25_2 C24_2 1_555 1_555
C26_2 C25_2 1_555 1_555
H20_2 C26_2 1_555 1_555
C27_2 C22_2 1_555 1_555
H21_2 C27_2 1_555 1_555
C28_2 C25_2 1_555 1_555
C29_2 C28_2 1_555 1_555
H22_2 C29_2 1_555 1_555
C30_2 C29_2 1_555 1_555
H23_2 C30_2 1_555 1_555
C31_2 C30_2 1_555 1_555
C32_2 C31_2 1_555 1_555
H24_2 C32_2 1_555 1_555
C33_2 C28_2 1_555 1_555
H25_2 C33_2 1_555 1_555
C34_2 N8_2 1_555 1_555
H26_2 C34_2 1_555 1_555
C35_2 N7 1_555 1_555
H27_2 C35_2 1_555 1_555
C36_2 N8_2 1_555 1_555
C37_2 N9_2 1_555 1_555
H29_2 C37_2 1_555 1_555
C38_2 N9_2 1_555 1_555
H30_2 C38_2 1_555 1_555
C39_2 N10_2 1_555 1_555
H31_2 C39_2 1_555 1_555
C40_2 N10_2 1_555 1_555
C45_2 C40_2 1_555 1_555
H35_2 C45_2 1_555 1_555
C55_2 C56_2 1_555 1_555
C56_2 C57_2 1_555 1_555
C57_2 H43_2 1_555 1_555
C58_2 C57_2 1_555 1_555
H44_2 C58_2 1_555 1_555
C59_2 N13_2 1_555 1_555
C60_2 N13_2 1_555 1_555
C61_2 C60_2 1_555 1_555
C2_2 C3_2 1_555 1_555
C8_2 C9_2 1_555 1_555
C14_2 C15_2 1_555 1_555
C20_2 C21_2 1_555 1_555
C26_2 C27_2 1_555 1_555
C32_2 C33_2 1_555 1_555
C35_2 C36_2 1_555 1_555
C38_2 C39_2 1_555 1_555
C56_2 C60_2 1_555 1_555
C58_2 C59_2 1_555 1_555
N3 C17_2 1_555 1_555
H13_2 C17_2 1_555 1_555
C18_2 N3 1_555 1_555
H14_2 C18_2 1_555 1_555
Ni3 N3 1_555 1_555
C16_2 C18_2 1_555 1_555
C62_2 O5_2 1_555 1_555
C63_2 N14_2 1_555 1_555
C64_2 C63_2 1_555 1_555
C65_2 C64_2 1_555 1_555
C66_2 C65_2 1_555 1_555
C67_2 N14_2 1_555 1_555
C62_2 C63_2 1_555 1_555
C66_2 C67_2 1_555 1_555

#END
