
###############################################################################
#
# This file contains modified crystal structure data generated from the
# MOF subset of the Cambridge Structural Database (CSD) v543 
# hosted by the Cambridge Crystallographic Data Centre (CCDC).
#
# This work is licensed under the Creative Commons
# Attribution-NonCommercial-ShareAlike 4.0 International License.
# To view a copy of this license, visit
# http://creativecommons.org/licenses/by-nc-sa/4.0/
# or send a letter to
# Creative Commons, PO Box 1866, Mountain View, CA 94042, USA.
#
# CIF created using the CSD Python API on 29 September 2022
# The structure has been converted into the P1 space group
# The structure has a 3D framework
# The original CSD entry DEZCER is in the monoclinic crystal system
# The framework has been calculated to contain at least 10.0% void space
# The void calculation uses a probe of radius 1.32A, grid spacing 0.4
# The framework is charged, counterions have been retained in the structure
#
###############################################################################

data_DEZCER
_chemical_formula_moiety         '(C108 H108 Cl4 Mn8 N16 O48 2+)n'
_symmetry_cell_setting           triclinic
_symmetry_space_group_name_H-M   'P 1'
_symmetry_Int_Tables_number      1
_space_group_name_Hall           'P 1'
loop_
_symmetry_equiv_pos_site_id
_symmetry_equiv_pos_as_xyz
1 x,y,z
_cell_length_a                   10.1273(1)
_cell_length_b                   15.3853(2)
_cell_length_c                   27.6549(3)
_cell_angle_alpha                90
_cell_angle_beta                 92.722(8)
_cell_angle_gamma                90
_cell_volume                     4304.09
loop_
_atom_site_label
_atom_site_type_symbol
_atom_site_fract_x
_atom_site_fract_y
_atom_site_fract_z
Cl1 Cl 0.82141(11) 0.24856(7) 0.51492(4)
O1 O 0.7540(3) 0.3226(2) 0.50469(16)
O2 O 0.7592(3) 0.17109(19) 0.50095(11)
O3 O 0.8245(5) 0.2435(3) 0.56836(14)
O4 O 0.9557(3) 0.2510(2) 0.50635(14)
Cl1_2 Cl 0.17859(11) 0.74856(7) 0.98508(4)
O1_2 O 0.2460(3) 0.8226(2) 0.99531(16)
O2_2 O 0.2408(3) 0.67109(19) 0.99905(11)
O3_2 O 0.1755(5) 0.7435(3) 0.93164(14)
O4_2 O 0.0443(3) 0.7510(2) 0.99365(14)
Cl1_3 Cl 0.17859(11) 0.75144(7) 0.48508(4)
O1_3 O 0.2460(3) 0.6774(2) 0.49531(16)
O2_3 O 0.2408(3) 0.82891(19) 0.49905(11)
O3_3 O 0.1755(5) 0.7565(3) 0.43164(14)
O4_3 O 0.0443(3) 0.7490(2) 0.49365(14)
Cl1_4 Cl 0.82141(11) 0.25144(7) 0.01492(4)
O1_4 O 0.7540(3) 0.1774(2) 0.00469(16)
O2_4 O 0.7592(3) 0.32891(19) 0.00095(11)
O3_4 O 0.8245(5) 0.2565(3) 0.06836(14)
O4_4 O 0.9557(3) 0.2490(2) 0.00635(14)
Mn1 Mn 0.39829(4) 0.18929(3) 0.246939(15)
O6 O 0.2636(2) 0.08300(16) 0.24664(8)
O7 O 0.0807(2) 0.37437(15) 0.24486(7)
O8 O 0.2141(2) 0.26024(14) 0.24790(7)
O9 O 0.5866(3) 0.1318(2) 0.24701(9)
O10 O 0.7585(3) 0.04328(18) 0.24739(9)
O11 O 0.5087(2) 0.31496(15) 0.24915(7)
N1 N 0.4029(3) 0.18915(19) 0.33024(9)
N2 N 0.3790(3) 0.30630(19) 0.66387(9)
C1 C 0.2646(3) 0.0045(2) 0.25090(10)
C2 C 0.1882(3) 0.3391(2) 0.24748(10)
H2 H 0.2608 0.3762 0.2494
C3 C 0.6513(5) 0.0723(3) 0.24558(15)
H3 H 0.5943 0.0254 0.2409
C4 C 0.2919(4) 0.1940(3) 0.35444(12)
H4 H 0.2116 0.1873 0.3371
C5 C 0.5146(4) 0.1961(3) 0.35678(12)
H5 H 0.5935 0.1906 0.3412
C6 C 0.2896(4) 0.2085(3) 0.40341(12)
H6 H 0.2095 0.2118 0.4184
C7 C 0.5219(4) 0.2110(3) 0.40574(13)
H7 H 0.6039 0.2162 0.4221
C8 C 0.4087(4) 0.2181(3) 0.43041(12)
C9 C 0.4198(4) 0.2383(3) 0.48289(13)
H8 H 0.5050 0.2375 0.4969
C10 C 0.3297(5) 0.2564(3) 0.51103(14)
H9 H 0.2434 0.2573 0.4979
C11 C 0.3497(4) 0.2765(3) 0.56352(12)
C12 C 0.2421(4) 0.2830(3) 0.59180(13)
H10 H 0.1571 0.2783 0.5778
C13 C 0.4725(4) 0.2892(3) 0.58645(13)
H11 H 0.5482 0.2879 0.5687
C14 C 0.2604(4) 0.2963(3) 0.64072(12)
H12 H 0.1858 0.2986 0.6590
C15 C 0.4825(4) 0.3040(3) 0.63609(12)
H13 H 0.5661 0.3127 0.6507
H24 H 0.0738(19) 0.181(2) 0.2431(11)
H25 H 0.513(3) 0.345(2) 0.2770(7)
H26 H 0.507(3) 0.346(2) 0.2219(7)
Mn4 Mn 0.39829(4) 0.31071(3) 0.746939(15)
Mn7 Mn 0.03359(5) 0.51192(3) 0.250595(15)
Mn8 Mn 0.96641(5) 0.01192(3) 0.249405(15)
O22 O 0.2415(3) 0.54328(18) 0.25261(9)
O24 O 0.0077(2) 0.65183(15) 0.25704(8)
N6 N 0.3790(3) 0.19370(19) 0.16387(9)
N9 N 0.0243(3) 0.5203(2) 0.16925(9)
N11 N 0.0338(3) 0.49445(19) 0.33173(9)
C37 C 0.3297(5) 0.2436(3) 0.01103(14)
C38 C 0.3497(4) 0.2235(3) 0.06352(12)
C39 C 0.2421(4) 0.2170(3) 0.09180(13)
H37 H 0.1571 0.2217 0.0778
C40 C 0.4725(4) 0.2108(3) 0.08645(13)
H38 H 0.5482 0.2121 0.0687
C41 C 0.2604(4) 0.2037(3) 0.14072(12)
H39 H 0.1858 0.2014 0.1590
C42 C 0.4825(4) 0.1960(3) 0.13609(12)
H40 H 0.5661 0.1873 0.1507
H54 H 0.071(2) 0.6933(19) 0.2547(12)
O13 O 0.1672(2) 0.54378(15) 0.75281(8)
O15 O 0.2636(2) 0.41700(16) 0.74664(8)
O18 O 0.2141(2) 0.23976(14) 0.74790(7)
O20 O 0.5866(3) 0.3682(2) 0.74701(9)
O23 O 0.5087(2) 0.18504(15) 0.74915(7)
N5 N 0.4029(3) 0.31085(19) 0.83024(9)
N10 N 0.0338(3) 0.00555(19) 0.83173(9)
C28 C 0.2646(3) 0.4955(2) 0.75090(10)
H28 H 0.3471 0.5222 0.7530
C31 C 0.2919(4) 0.3060(3) 0.85444(12)
H31 H 0.2116 0.3127 0.8371
C32 C 0.5146(4) 0.3039(3) 0.85678(12)
H32 H 0.5935 0.3094 0.8412
C33 C 0.2896(4) 0.2915(3) 0.90341(12)
H33 H 0.2095 0.2882 0.9184
C34 C 0.5219(4) 0.2890(3) 0.90574(13)
H34 H 0.6039 0.2838 0.9221
C35 C 0.4087(4) 0.2819(3) 0.93041(12)
C36 C 0.4198(4) 0.2617(3) 0.98289(13)
H35 H 0.5050 0.2625 0.9969
H36 H 0.2434 0.2427 0.9979
C49 C 0.0012(4) 0.0315(3) 0.98413(10)
C50 C 0.0147(3) 0.0218(2) 0.93197(11)
C53 C 0.0052(4) 0.0811(2) 0.85241(11)
H52 H 0.513(3) 0.155(2) 0.7770(7)
H53 H 0.507(3) 0.154(2) 0.7219(7)
O5 O 0.1672(2) 0.95622(15) 0.25281(8)
H1 H 0.3471 0.9778 0.2530
C17 C 0.0155(4) 0.9521(3) 0.35755(11)
H15 H 0.0388 0.9016 0.3416
C19 C 0.0241(4) 0.9522(3) 0.40703(12)
H17 H 0.0508 0.9023 0.4238
H19 H 0.0064 0.9121 0.0041
C24 C 0.0042(4) 0.9080(2) 0.09906(11)
H20 H 0.0232 0.8534 0.0867
H22 H 0.0093 0.8708 0.1675
Mn9 Mn 0.03359(5) 0.98808(3) 0.750595(15)
N8 N 0.0243(3) 0.9797(2) 0.66925(9)
C43 C 0.0544(4) 0.9083(3) 0.64520(11)
H41 H 0.0816 0.8597 0.6630
C45 C 0.0478(4) 0.9018(3) 0.59561(12)
H43 H 0.0703 0.8500 0.5807
C47 C 0.0072(4) 0.9734(3) 0.56791(11)
C48 C 0.0029(4) 0.9677(3) 0.51468(11)
H45 H 0.0044 0.9124 0.5012
C52 C 0.0467(4) 0.9440(3) 0.91060(12)
H48 H 0.0623 0.8950 0.9297
C54 C 0.0557(4) 0.9386(2) 0.86173(11)
H50 H 0.0782 0.8854 0.8485
O12 O 0.9923(2) 0.15183(15) 0.24296(8)
N3 N 0.9757(3) 0.0203(2) 0.33075(9)
C16 C 0.9456(4) 0.0917(3) 0.35480(11)
H14 H 0.9184 0.1403 0.3370
C18 C 0.9522(4) 0.0982(3) 0.40439(12)
H16 H 0.9297 0.1500 0.4193
C20 C 0.9928(4) 0.0266(3) 0.43209(11)
C21 C 0.9971(4) 0.0323(3) 0.48532(11)
H18 H 0.9956 0.0876 0.4988
C25 C 0.9533(4) 0.0560(3) 0.08940(12)
H21 H 0.9377 0.1050 0.0703
C27 C 0.9443(4) 0.0614(2) 0.13827(11)
H23 H 0.9218 0.1146 0.1515
H27 H 0.929(2) 0.1933(19) 0.2453(12)
O14 O 0.8328(2) 0.45622(15) 0.24719(8)
C44 C 0.9845(4) 0.0479(3) 0.64245(11)
H42 H 0.9612 0.0984 0.6584
C46 C 0.9759(4) 0.0478(3) 0.59297(12)
H44 H 0.9492 0.0977 0.5762
H51 H 0.9262(19) 0.681(2) 0.2569(11)
Mn11 Mn 0.96641(5) 0.48808(3) 0.749405(15)
H46 H 0.9936 0.0879 0.9959
C51 C 0.9958(4) 0.0920(2) 0.90094(11)
H47 H 0.9768 0.1466 0.9133
H49 H 0.9907 0.1292 0.8325
N4 N 0.9662(3) 0.99445(19) 0.16827(9)
C22 C 0.9988(4) 0.9685(3) 0.01587(10)
C23 C 0.9853(3) 0.9782(2) 0.06803(11)
C26 C 0.9948(4) 0.9189(2) 0.14759(11)
Mn5 Mn 0.60171(4) 0.68929(3) 0.253061(15)
O16 O 0.9193(2) 0.87437(15) 0.25514(7)
O17 O 0.7859(2) 0.76024(14) 0.25210(7)
C29 C 0.8118(3) 0.8391(2) 0.25252(10)
H29 H 0.7392 0.8762 0.2506
C16_2 C 0.0544(4) 0.5917(3) 0.14520(11)
H14_2 H 0.0816 0.6403 0.1630
C18_2 C 0.0478(4) 0.5982(3) 0.09561(12)
H16_2 H 0.0703 0.6500 0.0807
C20_2 C 0.0072(4) 0.5266(3) 0.06791(11)
C21_2 C 0.0029(4) 0.5323(3) 0.01468(11)
H18_2 H 0.0044 0.5876 0.0012
C22_2 C 0.0012(4) 0.4685(3) 0.48413(10)
C23_2 C 0.0147(3) 0.4782(2) 0.43197(11)
C25_2 C 0.0467(4) 0.5560(3) 0.41060(12)
H21_2 H 0.0623 0.6050 0.4297
C26_2 C 0.0052(4) 0.4189(2) 0.35241(11)
C27_2 C 0.0557(4) 0.5614(2) 0.36173(11)
H23_2 H 0.0782 0.6146 0.3485
O19 O 0.4134(3) 0.6318(2) 0.25299(9)
C30 C 0.3487(5) 0.5723(3) 0.25442(15)
H30 H 0.4057 0.5254 0.2591
H46_2 H 0.0064 0.5879 0.5041
C51_2 C 0.0042(4) 0.5920(2) 0.59906(11)
H47_2 H 0.0232 0.6466 0.5867
H49_2 H 0.0093 0.6292 0.6675
C44_2 C 0.0155(4) 0.5479(3) 0.85755(11)
H42_2 H 0.0388 0.5984 0.8416
C46_2 C 0.0241(4) 0.5478(3) 0.90703(12)
H44_2 H 0.0508 0.5977 0.9238
O13_2 O 0.8328(2) 0.04378(15) 0.74719(8)
H28_2 H 0.6529 0.0222 0.7470
O6_2 O 0.7364(2) 0.58300(16) 0.25336(8)
O11_2 O 0.4913(2) 0.81496(15) 0.25085(7)
N1_2 N 0.5971(3) 0.68915(19) 0.16976(9)
C1_2 C 0.7354(3) 0.5045(2) 0.24910(10)
H1_2 H 0.6529 0.4778 0.2470
C4_2 C 0.7081(4) 0.6940(3) 0.14556(12)
H4_2 H 0.7884 0.6873 0.1629
C5_2 C 0.4854(4) 0.6961(3) 0.14322(12)
H5_2 H 0.4065 0.6906 0.1588
C6_2 C 0.7104(4) 0.7085(3) 0.09659(12)
H6_2 H 0.7905 0.7118 0.0816
C7_2 C 0.4781(4) 0.7110(3) 0.09426(13)
H7_2 H 0.3961 0.7162 0.0779
C8_2 C 0.5913(4) 0.7181(3) 0.06959(12)
C9_2 C 0.5802(4) 0.7383(3) 0.01711(13)
H8_2 H 0.4950 0.7375 0.0031
H9_2 H 0.7566 0.7573 0.0021
C17_2 C 0.9845(4) 0.4521(3) 0.14245(11)
H15_2 H 0.9612 0.4016 0.1584
C19_2 C 0.9759(4) 0.4522(3) 0.09297(12)
H17_2 H 0.9492 0.4023 0.0762
H19_2 H 0.9936 0.4121 0.4959
C24_2 C 0.9958(4) 0.4080(2) 0.40094(11)
H20_2 H 0.9768 0.3534 0.4133
H22_2 H 0.9907 0.3708 0.3325
H25_2 H 0.487(3) 0.845(2) 0.2230(7)
H26_2 H 0.493(3) 0.846(2) 0.2781(7)
Mn3 Mn 0.60171(4) 0.81071(3) 0.753061(15)
O15_2 O 0.7364(2) 0.91700(16) 0.75336(8)
O18_2 O 0.7859(2) 0.73976(14) 0.75210(7)
O20_2 O 0.4134(3) 0.8682(2) 0.75299(9)
O23_2 O 0.4913(2) 0.68504(15) 0.75085(7)
N5_2 N 0.5971(3) 0.81085(19) 0.66976(9)
N6_2 N 0.6210(3) 0.69370(19) 0.33613(9)
N7 N 0.6210(3) 0.80630(19) 0.83613(9)
N10_2 N 0.9662(3) 0.50555(19) 0.66827(9)
C28_2 C 0.7354(3) 0.9955(2) 0.74910(10)
C31_2 C 0.7081(4) 0.8060(3) 0.64556(12)
H31_2 H 0.7884 0.8127 0.6629
C32_2 C 0.4854(4) 0.8039(3) 0.64322(12)
H32_2 H 0.4065 0.8094 0.6588
C33_2 C 0.7104(4) 0.7915(3) 0.59659(12)
H33_2 H 0.7905 0.7882 0.5816
C34_2 C 0.4781(4) 0.7890(3) 0.59426(13)
H34_2 H 0.3961 0.7838 0.5779
C35_2 C 0.5913(4) 0.7819(3) 0.56959(12)
C36_2 C 0.5802(4) 0.7617(3) 0.51711(13)
H35_2 H 0.4950 0.7625 0.5031
C37_2 C 0.6703(5) 0.7436(3) 0.48897(14)
H36_2 H 0.7566 0.7427 0.5021
C38_2 C 0.6503(4) 0.7235(3) 0.43648(12)
C39_2 C 0.7579(4) 0.7170(3) 0.40820(13)
H37_2 H 0.8429 0.7217 0.4222
C40_2 C 0.5275(4) 0.7108(3) 0.41355(13)
H38_2 H 0.4518 0.7121 0.4313
C41_2 C 0.7396(4) 0.7037(3) 0.35928(12)
H39_2 H 0.8142 0.7014 0.3410
C42_2 C 0.5175(4) 0.6960(3) 0.36391(12)
H40_2 H 0.4339 0.6873 0.3493
C49_2 C 0.9988(4) 0.5315(3) 0.51587(10)
C50_2 C 0.9853(3) 0.5218(2) 0.56803(11)
C52_2 C 0.9533(4) 0.4440(3) 0.58940(12)
H48_2 H 0.9377 0.3950 0.5703
C53_2 C 0.9948(4) 0.5811(2) 0.64759(11)
C54_2 C 0.9443(4) 0.4386(2) 0.63827(11)
H50_2 H 0.9218 0.3854 0.6515
H52_2 H 0.487(3) 0.655(2) 0.7230(7)
H53_2 H 0.493(3) 0.654(2) 0.7781(7)
C10_2 C 0.6703(5) 0.7564(3) 0.98897(14)
C11_2 C 0.6503(4) 0.7765(3) 0.93648(12)
C12_2 C 0.7579(4) 0.7830(3) 0.90820(13)
H10_2 H 0.8429 0.7783 0.9222
C13_2 C 0.5275(4) 0.7892(3) 0.91355(13)
H11_2 H 0.4518 0.7879 0.9313
C14_2 C 0.7396(4) 0.7963(3) 0.85928(12)
H12_2 H 0.8142 0.7986 0.8410
C15_2 C 0.5175(4) 0.8040(3) 0.86391(12)
H13_2 H 0.4339 0.8127 0.8493
N8_2 N 0.9757(3) 0.4797(2) 0.83075(9)
C43_2 C 0.9456(4) 0.4083(3) 0.85480(11)
H41_2 H 0.9184 0.3597 0.8370
C45_2 C 0.9522(4) 0.4018(3) 0.90439(12)
H43_2 H 0.9297 0.3500 0.9193
C47_2 C 0.9928(4) 0.4734(3) 0.93209(11)
C48_2 C 0.9971(4) 0.4677(3) 0.98532(11)
H45_2 H 0.9956 0.4124 0.9988
O16_2 O 0.0807(2) 0.12563(15) 0.74486(7)
C29_2 C 0.1882(3) 0.1609(2) 0.74748(10)
H29_2 H 0.2608 0.1238 0.7494
O12_2 O 0.0077(2) 0.84817(15) 0.75704(8)
H27_2 H 0.071(2) 0.8067(19) 0.7547(12)
O21 O 0.2415(3) 0.95672(18) 0.75261(9)
C30_2 C 0.3487(5) 0.9277(3) 0.75442(15)
H30_2 H 0.4057 0.9746 0.7591
H51_2 H 0.0738(19) 0.319(2) 0.7431(11)
O7_2 O 0.9193(2) 0.62563(15) 0.75514(7)
C2_2 C 0.8118(3) 0.6609(2) 0.75252(10)
H2_2 H 0.7392 0.6238 0.7506
H24_2 H 0.9262(19) 0.819(2) 0.7569(11)
O22_2 O 0.7585(3) 0.45672(18) 0.74739(9)
O24_2 O 0.9923(2) 0.34817(15) 0.74296(8)
H54_2 H 0.929(2) 0.3067(19) 0.7453(12)
C3_2 C 0.6513(5) 0.4277(3) 0.74558(15)
H3_2 H 0.5943 0.4746 0.7409
loop_
_geom_bond_atom_site_label_1
_geom_bond_atom_site_label_2
_geom_bond_site_symmetry_1
_geom_bond_site_symmetry_2
Cl1 O1 1_555 1_555
O2 Cl1 1_555 1_555
O3 Cl1 1_555 1_555
O4 Cl1 1_555 1_555
Cl1_2 O1_2 1_555 1_555
O2_2 Cl1_2 1_555 1_555
O3_2 Cl1_2 1_555 1_555
O4_2 Cl1_2 1_555 1_555
Cl1_3 O1_3 1_555 1_555
O2_3 Cl1_3 1_555 1_555
O3_3 Cl1_3 1_555 1_555
O4_3 Cl1_3 1_555 1_555
Cl1_4 O1_4 1_555 1_555
O2_4 Cl1_4 1_555 1_555
O3_4 Cl1_4 1_555 1_555
O4_4 Cl1_4 1_555 1_555
Mn1 O6 1_555 1_555
O6 C1 1_555 1_555
O7 C2 1_555 1_555
O8 Mn1 1_555 1_555
O9 Mn1 1_555 1_555
O10 C3 1_555 1_555
O11 Mn1 1_555 1_555
N1 Mn1 1_555 1_555
N2 C14 1_555 1_555
C2 O8 1_555 1_555
H2 C2 1_555 1_555
C3 O9 1_555 1_555
H3 C3 1_555 1_555
C4 N1 1_555 1_555
H4 C4 1_555 1_555
C5 N1 1_555 1_555
H5 C5 1_555 1_555
C6 C4 1_555 1_555
H6 C6 1_555 1_555
C7 C5 1_555 1_555
H7 C7 1_555 1_555
C8 C6 1_555 1_555
C9 C8 1_555 1_555
H8 C9 1_555 1_555
C10 C9 1_555 1_555
H9 C10 1_555 1_555
C11 C10 1_555 1_555
C12 C11 1_555 1_555
H10 C12 1_555 1_555
C13 C11 1_555 1_555
H11 C13 1_555 1_555
C14 C12 1_555 1_555
H12 C14 1_555 1_555
C15 N2 1_555 1_555
H13 C15 1_555 1_555
H25 O11 1_555 1_555
H26 O11 1_555 1_555
Mn4 N2 1_555 1_555
Mn7 O7 1_555 1_555
Mn8 O10 1_555 1_555
O22 Mn7 1_555 1_555
O24 Mn7 1_555 1_555
N6 Mn1 1_555 1_555
N9 Mn7 1_555 1_555
N11 Mn7 1_555 1_555
C38 C37 1_555 1_555
C39 C38 1_555 1_555
H37 C39 1_555 1_555
C40 C38 1_555 1_555
H38 C40 1_555 1_555
C41 N6 1_555 1_555
H39 C41 1_555 1_555
C42 N6 1_555 1_555
H40 C42 1_555 1_555
H54 O24 1_555 1_555
C7 C8 1_555 1_555
C13 C15 1_555 1_555
C39 C41 1_555 1_555
C40 C42 1_555 1_555
Mn4 O15 1_555 1_555
O13 C28 1_555 1_555
O15 C28 1_555 1_555
O18 Mn4 1_555 1_555
O20 Mn4 1_555 1_555
O23 Mn4 1_555 1_555
N5 Mn4 1_555 1_555
N10 C53 1_555 1_555
C28 H28 1_555 1_555
C31 N5 1_555 1_555
H31 C31 1_555 1_555
C32 N5 1_555 1_555
H32 C32 1_555 1_555
C33 C31 1_555 1_555
H33 C33 1_555 1_555
C34 C32 1_555 1_555
H34 C34 1_555 1_555
C35 C33 1_555 1_555
C36 C35 1_555 1_555
H35 C36 1_555 1_555
C50 C49 1_555 1_555
H52 O23 1_555 1_555
H53 O23 1_555 1_555
C34 C35 1_555 1_555
H15 C17 1_555 1_555
C19 C17 1_555 1_555
H17 C19 1_555 1_555
H20 C24 1_555 1_555
Mn9 N8 1_555 1_555
N8 C43 1_555 1_555
C43 H41 1_555 1_555
C45 C43 1_555 1_555
H43 C45 1_555 1_555
C47 C45 1_555 1_555
H45 C48 1_555 1_555
C47 C48 1_555 1_555
H48 C52 1_555 1_555
H50 C54 1_555 1_555
C52 C54 1_555 1_555
O12 Mn8 1_555 1_555
N3 Mn8 1_555 1_555
C16 N3 1_555 1_555
H14 C16 1_555 1_555
C18 C16 1_555 1_555
H16 C18 1_555 1_555
C20 C18 1_555 1_555
C21 C20 1_555 1_555
H18 C21 1_555 1_555
H21 C25 1_555 1_555
H23 C27 1_555 1_555
H27 O12 1_555 1_555
H42 C44 1_555 1_555
C46 C44 1_555 1_555
H44 C46 1_555 1_555
C25 C27 1_555 1_555
H47 C51 1_555 1_555
C23 C22 1_555 1_555
C26 N4 1_555 1_555
Mn5 O17 1_555 1_555
O17 C29 1_555 1_555
C29 O16 1_555 1_555
H29 C29 1_555 1_555
C16_2 N9 1_555 1_555
H14_2 C16_2 1_555 1_555
C18_2 C16_2 1_555 1_555
H16_2 C18_2 1_555 1_555
C20_2 C18_2 1_555 1_555
C21_2 C20_2 1_555 1_555
H18_2 C21_2 1_555 1_555
C23_2 C22_2 1_555 1_555
C25_2 C23_2 1_555 1_555
H21_2 C25_2 1_555 1_555
C26_2 N11 1_555 1_555
C27_2 N11 1_555 1_555
H23_2 C27_2 1_555 1_555
Mn5 O19 1_555 1_555
O19 C30 1_555 1_555
C30 O22 1_555 1_555
H30 C30 1_555 1_555
H47_2 C51_2 1_555 1_555
C25_2 C27_2 1_555 1_555
H42_2 C44_2 1_555 1_555
C46_2 C44_2 1_555 1_555
H44_2 C46_2 1_555 1_555
Mn5 O6_2 1_555 1_555
O14 C1_2 1_555 1_555
O6_2 C1_2 1_555 1_555
O11_2 Mn5 1_555 1_555
N1_2 Mn5 1_555 1_555
C1_2 H1_2 1_555 1_555
C4_2 N1_2 1_555 1_555
H4_2 C4_2 1_555 1_555
C5_2 N1_2 1_555 1_555
H5_2 C5_2 1_555 1_555
C6_2 C4_2 1_555 1_555
H6_2 C6_2 1_555 1_555
C7_2 C5_2 1_555 1_555
H7_2 C7_2 1_555 1_555
C8_2 C6_2 1_555 1_555
C9_2 C8_2 1_555 1_555
H8_2 C9_2 1_555 1_555
H15_2 C17_2 1_555 1_555
C19_2 C17_2 1_555 1_555
H17_2 C19_2 1_555 1_555
H20_2 C24_2 1_555 1_555
H25_2 O11_2 1_555 1_555
H26_2 O11_2 1_555 1_555
Mn3 O15_2 1_555 1_555
Mn11 N10_2 1_555 1_555
O15_2 C28_2 1_555 1_555
O18_2 Mn3 1_555 1_555
O20_2 Mn3 1_555 1_555
O23_2 Mn3 1_555 1_555
N5_2 Mn3 1_555 1_555
N6_2 Mn5 1_555 1_555
N7 Mn3 1_555 1_555
N10_2 C53_2 1_555 1_555
C31_2 N5_2 1_555 1_555
H31_2 C31_2 1_555 1_555
C32_2 N5_2 1_555 1_555
H32_2 C32_2 1_555 1_555
C33_2 C31_2 1_555 1_555
H33_2 C33_2 1_555 1_555
C34_2 C32_2 1_555 1_555
H34_2 C34_2 1_555 1_555
C35_2 C33_2 1_555 1_555
C36_2 C35_2 1_555 1_555
H35_2 C36_2 1_555 1_555
C37_2 C36_2 1_555 1_555
H36_2 C37_2 1_555 1_555
C38_2 C37_2 1_555 1_555
C39_2 C38_2 1_555 1_555
H37_2 C39_2 1_555 1_555
C40_2 C38_2 1_555 1_555
H38_2 C40_2 1_555 1_555
C41_2 N6_2 1_555 1_555
H39_2 C41_2 1_555 1_555
C42_2 N6_2 1_555 1_555
H40_2 C42_2 1_555 1_555
C50_2 C49_2 1_555 1_555
C52_2 C50_2 1_555 1_555
H48_2 C52_2 1_555 1_555
C54_2 N10_2 1_555 1_555
H50_2 C54_2 1_555 1_555
H52_2 O23_2 1_555 1_555
H53_2 O23_2 1_555 1_555
C7_2 C8_2 1_555 1_555
C34_2 C35_2 1_555 1_555
C39_2 C41_2 1_555 1_555
C40_2 C42_2 1_555 1_555
C52_2 C54_2 1_555 1_555
N7 C14_2 1_555 1_555
C11_2 C10_2 1_555 1_555
C12_2 C11_2 1_555 1_555
H10_2 C12_2 1_555 1_555
C13_2 C11_2 1_555 1_555
H11_2 C13_2 1_555 1_555
C14_2 C12_2 1_555 1_555
H12_2 C14_2 1_555 1_555
C15_2 N7 1_555 1_555
H13_2 C15_2 1_555 1_555
Mn11 N8_2 1_555 1_555
N8_2 C43_2 1_555 1_555
C43_2 H41_2 1_555 1_555
C45_2 C43_2 1_555 1_555
H43_2 C45_2 1_555 1_555
C47_2 C45_2 1_555 1_555
H45_2 C48_2 1_555 1_555
C13_2 C15_2 1_555 1_555
C47_2 C48_2 1_555 1_555
O18 C29_2 1_555 1_555
C29_2 O16_2 1_555 1_555
H29_2 C29_2 1_555 1_555
O12_2 Mn9 1_555 1_555
H27_2 O12_2 1_555 1_555
O20_2 C30_2 1_555 1_555
O21 Mn9 1_555 1_555
C30_2 O21 1_555 1_555
H30_2 C30_2 1_555 1_555
O7_2 C2_2 1_555 1_555
C2_2 O18_2 1_555 1_555
H2_2 C2_2 1_555 1_555
Mn11 O7_2 1_555 1_555
O22_2 Mn11 1_555 1_555
O24_2 Mn11 1_555 1_555
H54_2 O24_2 1_555 1_555
O22_2 C3_2 1_555 1_555
C3_2 O20 1_555 1_555
H3_2 C3_2 1_555 1_555

#END
