
###############################################################################
#
# This file contains modified crystal structure data generated from the
# MOF subset of the Cambridge Structural Database (CSD) v543 
# hosted by the Cambridge Crystallographic Data Centre (CCDC).
#
# This work is licensed under the Creative Commons
# Attribution-NonCommercial-ShareAlike 4.0 International License.
# To view a copy of this license, visit
# http://creativecommons.org/licenses/by-nc-sa/4.0/
# or send a letter to
# Creative Commons, PO Box 1866, Mountain View, CA 94042, USA.
#
# CIF created using the CSD Python API on 29 September 2022
# The structure has been converted into the P1 space group
# The structure has a 3D framework
# The original CSD entry DIBPAH is in the monoclinic crystal system
# The framework has been calculated to contain at least 10.0% void space
# The void calculation uses a probe of radius 1.32A, grid spacing 0.4
# H atom positions have been added when not included in the experimental data
#
###############################################################################

data_DIBPAH
_chemical_formula_moiety         '(C84 H116 Ce4 N24 O24)n'
_symmetry_cell_setting           triclinic
_symmetry_space_group_name_H-M   'P 1'
_symmetry_Int_Tables_number      1
_space_group_name_Hall           'P 1'
loop_
_symmetry_equiv_pos_site_id
_symmetry_equiv_pos_as_xyz
1 x,y,z
_cell_length_a                   16.143(4)
_cell_length_b                   7.7507(18)
_cell_length_c                   27.374(6)
_cell_angle_alpha                90
_cell_angle_beta                 93.077(3)
_cell_angle_gamma                90
_cell_volume                     3420.08
loop_
_atom_site_label
_atom_site_type_symbol
_atom_site_fract_x
_atom_site_fract_y
_atom_site_fract_z
C4 C 0.0515(6) 0.1756(13) 0.3658(3)
H4 H 0.1053 0.2127 0.3793
H5 H 0.0434 0.0565 0.3753
C5 C 0.0492(6) 0.1882(13) 0.3109(3)
H6 H 0.062(5) 0.308(12) 0.302(3)
C20 C 0.1137(6) 0.0729(12) 0.2907(3)
O5 O 0.1877(3) 0.1273(8) 0.2842(2)
O6 O 0.1208(4) 0.0453(9) 0.1847(2)
Ce4 Ce 0.27604(2) 0.37143(6) 0.266125(14)
O9 O 0.2829(4) 0.1525(8) 0.20580(19)
H28 H 0.109014 0.153487 0.202476
H29 H 0.143359 0.0739256 0.152646
Ce1 Ce 0.22396(2) 0.87143(6) 0.233875(14)
O4 O 0.0980(4) 0.9175(8) 0.2806(2)
O8 O 0.2171(4) 0.6525(8) 0.29420(19)
O10 O 0.2861(4) 0.9342(8) 0.1552(2)
O11 O 0.3482(4) 0.9057(8) 0.2842(2)
O12 O 0.3123(3) 0.6273(8) 0.2158(2)
O13 O 0.1350(4) 0.6769(8) 0.1930(2)
C1 C 0.7897(6) 0.4079(12) 0.6623(3)
C2 C 0.8023(7) 0.2830(14) 0.6204(3)
H1 H 0.822(6) 0.173(12) 0.634(3)
C3 C 0.9834(6) 0.2886(15) 0.3867(4)
H2 H 0.9841 0.2744 0.4219
H3 H 0.9943 0.4090 0.3797
C6 C 0.9636(5) 0.1458(14) 0.2903(3)
H7 H 0.9532 0.0241 0.2955
H8 H 0.9613 0.1662 0.2553
C7 C 0.8958(6) 0.2495(14) 0.3127(3)
H9 H 0.8996 0.3689 0.3024
H10 H 0.8422 0.2053 0.3010
C8 C 0.8384(6) 0.2078(12) 0.3928(3)
C9 C 0.7045(5) 0.1205(14) 0.3993(3)
C10 C 0.7846(6) 0.1825(13) 0.4676(3)
C11 C 0.4815(6) 0.0456(16) 0.3835(3)
H11 H 0.4746 0.1700 0.3834
C13 C 0.5423(6) 0.0520(15) 0.3028(3)
H14 H 0.5389 0.0065 0.2697
H15 H 0.5363 0.1763 0.3007
C14 C 0.6268(6) 0.0099(16) 0.3264(3)
H17 H 0.6694 0.0682 0.3089
C15 C 0.5668(6) 0.0002(18) 0.4065(4)
H18 H 0.5727 0.0490 0.4392
C16 C 0.8652(6) 0.3472(15) 0.5854(3)
H20 H 0.9191 0.3548 0.6027
H21 H 0.8496 0.4623 0.5745
C17 C 0.7207(7) 0.2508(18) 0.5920(4)
H22 H 0.6975 0.3605 0.5810
H23 H 0.6822 0.1982 0.6135
C18 C 0.8716(6) 0.2320(16) 0.5416(4)
H24 H 0.9084 0.2848 0.5191
H25 H 0.8957 0.1226 0.5521
C19 C 0.7294(7) 0.1369(16) 0.5487(3)
H26 H 0.7448 0.0218 0.5598
H27 H 0.6763 0.1289 0.5304
C21 C 0.3885(6) 0.0221(11) 0.3062(3)
N1 N 0.7082(4) 0.1325(12) 0.4486(3)
N2 N 0.6313(5) 0.0650(12) 0.3777(3)
N3 N 0.8501(5) 0.2155(11) 0.4425(3)
N4 N 0.7643(5) 0.1660(12) 0.3695(3)
N5 N 0.9025(4) 0.2410(11) 0.3653(3)
N6 N 0.7917(5) 0.2007(12) 0.5164(3)
O1 O 0.7829(4) 0.3475(8) 0.70580(19)
O2 O 0.7861(4) 0.5658(8) 0.6552(2)
O7 O 0.3650(4) 0.1769(8) 0.3070(2)
Ce5 Ce 0.77604(2) 0.12857(6) 0.766125(14)
Ce6 Ce 0.72396(2) 0.62857(6) 0.733875(14)
H12 H 0.4390 0.9963 0.4030
C12 C 0.4706(6) 0.9777(13) 0.3309(4)
H13 H 0.476(5) 0.852(12) 0.332(3)
H16 H 0.6365 0.8866 0.3245
H19 H 0.5719 0.8759 0.4094
C11_2 C 0.0185(6) 0.5456(16) 0.1165(3)
H11_2 H 0.0254 0.6700 0.1166
H12_2 H 0.0610 0.4963 0.0970
C12_2 C 0.0294(6) 0.4777(13) 0.1691(4)
H13_2 H 0.024(5) 0.352(12) 0.168(3)
C21_2 C 0.1115(6) 0.5221(11) 0.1938(3)
O3 O 0.1518(4) 0.4057(8) 0.2158(2)
O2_2 O 0.7139(4) 0.0658(8) 0.8448(2)
C3_2 C 0.5166(6) 0.7886(15) 0.1133(4)
H2_2 H 0.5159 0.7744 0.0781
H3_2 H 0.5057 0.9090 0.1203
C4_2 C 0.4485(6) 0.6756(13) 0.1342(3)
H4_2 H 0.3947 0.7127 0.1207
H5_2 H 0.4566 0.5565 0.1247
C5_2 C 0.4508(6) 0.6882(13) 0.1891(3)
H6_2 H 0.438(5) 0.808(12) 0.198(3)
C6_2 C 0.5364(5) 0.6458(14) 0.2097(3)
H7_2 H 0.5468 0.5241 0.2045
H8_2 H 0.5387 0.6662 0.2447
C7_2 C 0.6042(6) 0.7495(14) 0.1873(3)
H9_2 H 0.6004 0.8689 0.1976
H10_2 H 0.6578 0.7053 0.1990
C8_2 C 0.6616(6) 0.7078(12) 0.1072(3)
C9_2 C 0.7955(5) 0.6205(14) 0.1007(3)
C10_2 C 0.7154(6) 0.6825(13) 0.0324(3)
C13_2 C 0.9577(6) 0.5520(15) 0.1972(3)
H14_2 H 0.9611 0.5065 0.2303
H15_2 H 0.9637 0.6763 0.1993
C14_2 C 0.8732(6) 0.5099(16) 0.1736(3)
H16_2 H 0.8635 0.3866 0.1755
H17_2 H 0.8306 0.5682 0.1911
C15_2 C 0.9332(6) 0.5002(18) 0.0935(4)
H18_2 H 0.9273 0.5490 0.0608
H19_2 H 0.9281 0.3759 0.0906
C20_2 C 0.3863(6) 0.5729(12) 0.2093(3)
N1_2 N 0.7918(4) 0.6325(12) 0.0514(3)
N2_2 N 0.8687(5) 0.5650(12) 0.1223(3)
N3_2 N 0.6499(5) 0.7155(11) 0.0575(3)
N4_2 N 0.7357(5) 0.6660(12) 0.1305(3)
N5_2 N 0.5975(4) 0.7410(11) 0.1347(3)
O4_2 O 0.4020(4) 0.4175(8) 0.2194(2)
O6_2 O 0.3792(4) 0.5453(9) 0.3153(2)
O10_2 O 0.2139(4) 0.4342(8) 0.3448(2)
H28_2 H 0.390986 0.653487 0.297524
H29_2 H 0.356641 0.573926 0.347354
C1_2 C 0.7103(6) 0.9079(12) 0.8377(3)
C2_2 C 0.6977(7) 0.7830(14) 0.8796(3)
H1_2 H 0.678(6) 0.673(12) 0.866(3)
C16_2 C 0.6348(6) 0.8472(15) 0.9146(3)
H20_2 H 0.5809 0.8548 0.8973
H21_2 H 0.6504 0.9623 0.9255
C17_2 C 0.7793(7) 0.7508(18) 0.9080(4)
H22_2 H 0.8025 0.8605 0.9190
H23_2 H 0.8178 0.6982 0.8865
C18_2 C 0.6284(6) 0.7320(16) 0.9584(4)
H24_2 H 0.5916 0.7848 0.9809
H25_2 H 0.6043 0.6226 0.9479
C19_2 C 0.7706(7) 0.6369(16) 0.9513(3)
H26_2 H 0.7552 0.5218 0.9402
H27_2 H 0.8237 0.6289 0.9696
N6_2 N 0.7083(5) 0.7007(12) 0.9836(3)
O1_2 O 0.7171(4) 0.8475(8) 0.79420(19)
H12_3 H 0.5610 0.0037 0.5970
C12_3 C 0.5294(6) 0.0223(13) 0.6691(4)
H13_3 H 0.524(5) 0.148(12) 0.668(3)
H16_3 H 0.3635 0.1134 0.6755
H19_3 H 0.4281 0.1241 0.5906
O3_2 O 0.6518(4) 0.0943(8) 0.7158(2)
C1_3 C 0.2103(6) 0.5921(12) 0.3377(3)
C2_3 C 0.1977(7) 0.7170(14) 0.3796(3)
H1_3 H 0.178(6) 0.827(12) 0.366(3)
C3_3 C 0.0166(6) 0.7114(15) 0.6133(4)
H2_3 H 0.0159 0.7256 0.5781
H3_3 H 0.0057 0.5910 0.6203
C6_3 C 0.0364(5) 0.8542(14) 0.7097(3)
H7_3 H 0.0468 0.9759 0.7045
H8_3 H 0.0387 0.8338 0.7447
C7_3 C 0.1042(6) 0.7505(14) 0.6873(3)
H9_3 H 0.1004 0.6311 0.6976
H10_3 H 0.1578 0.7947 0.6990
C8_3 C 0.1616(6) 0.7922(12) 0.6072(3)
C9_3 C 0.2955(5) 0.8795(14) 0.6007(3)
C10_3 C 0.2154(6) 0.8175(13) 0.5324(3)
C11_3 C 0.5185(6) 0.9544(16) 0.6165(3)
H11_3 H 0.5254 0.8300 0.6166
C13_3 C 0.4577(6) 0.9480(15) 0.6972(3)
H14_3 H 0.4611 0.9935 0.7303
H15_3 H 0.4637 0.8237 0.6993
C14_3 C 0.3732(6) 0.9901(16) 0.6736(3)
H17_3 H 0.3306 0.9318 0.6911
C15_3 C 0.4332(6) 0.9998(18) 0.5935(4)
H18_3 H 0.4273 0.9510 0.5608
C16_3 C 0.1348(6) 0.6528(15) 0.4146(3)
H20_3 H 0.0809 0.6452 0.3973
H21_3 H 0.1504 0.5377 0.4255
C17_3 C 0.2793(7) 0.7492(18) 0.4080(4)
H22_3 H 0.3025 0.6395 0.4190
H23_3 H 0.3178 0.8018 0.3865
C18_3 C 0.1284(6) 0.7680(16) 0.4584(4)
H24_3 H 0.0916 0.7152 0.4809
H25_3 H 0.1043 0.8774 0.4479
C19_3 C 0.2706(7) 0.8631(16) 0.4513(3)
H26_3 H 0.2552 0.9782 0.4402
H27_3 H 0.3237 0.8711 0.4696
C21_3 C 0.6115(6) 0.9779(11) 0.6938(3)
N1_3 N 0.2918(4) 0.8675(12) 0.5514(3)
N2_3 N 0.3687(5) 0.9350(12) 0.6223(3)
N3_3 N 0.1499(5) 0.7845(11) 0.5575(3)
N4_3 N 0.2357(5) 0.8340(12) 0.6305(3)
N5_3 N 0.0975(4) 0.7590(11) 0.6347(3)
N6_3 N 0.2083(5) 0.7993(12) 0.4836(3)
O7_2 O 0.6350(4) 0.8231(8) 0.6930(2)
O4_3 O 0.9020(4) 0.0825(8) 0.7194(2)
O12_2 O 0.6877(3) 0.3727(8) 0.7842(2)
O13_2 O 0.8650(4) 0.3231(8) 0.8070(2)
C4_3 C 0.9485(6) 0.8244(13) 0.6342(3)
H4_3 H 0.8947 0.7873 0.6207
H5_3 H 0.9566 0.9435 0.6247
C5_3 C 0.9508(6) 0.8118(13) 0.6891(3)
H6_3 H 0.938(5) 0.692(12) 0.698(3)
C20_3 C 0.8863(6) 0.9271(12) 0.7093(3)
O5_2 O 0.8123(3) 0.8727(8) 0.7158(2)
O6_3 O 0.8792(4) 0.9547(9) 0.8153(2)
H28_3 H 0.890986 0.846513 0.797524
H29_3 H 0.856641 0.926074 0.847354
C1_4 C 0.2897(6) 0.0921(12) 0.1623(3)
C2_4 C 0.3023(7) 0.2170(14) 0.1204(3)
H1_4 H 0.322(6) 0.327(12) 0.134(3)
C16_4 C 0.3652(6) 0.1528(15) 0.0854(3)
H20_4 H 0.4191 0.1452 0.1027
H21_4 H 0.3496 0.0377 0.0745
C17_4 C 0.2207(7) 0.2492(18) 0.0920(4)
H22_4 H 0.1975 0.1395 0.0810
H23_4 H 0.1822 0.3018 0.1135
C18_4 C 0.3716(6) 0.2680(16) 0.0416(4)
H24_4 H 0.4084 0.2152 0.0191
H25_4 H 0.3957 0.3774 0.0521
C19_4 C 0.2294(7) 0.3631(16) 0.0487(3)
H26_4 H 0.2448 0.4782 0.0598
H27_4 H 0.1763 0.3711 0.0304
N6_4 N 0.2917(5) 0.2993(12) 0.0164(3)
C3_4 C 0.4834(6) 0.2114(15) 0.8867(4)
H2_4 H 0.4841 0.2256 0.9219
H3_4 H 0.4943 0.0910 0.8797
C4_4 C 0.5515(6) 0.3244(13) 0.8658(3)
H4_4 H 0.6053 0.2873 0.8793
H5_4 H 0.5434 0.4435 0.8753
C5_4 C 0.5492(6) 0.3118(13) 0.8109(3)
H6_4 H 0.562(5) 0.192(12) 0.802(3)
C6_4 C 0.4636(5) 0.3542(14) 0.7903(3)
H7_4 H 0.4532 0.4759 0.7955
H8_4 H 0.4613 0.3338 0.7553
C7_4 C 0.3958(6) 0.2505(14) 0.8127(3)
H9_4 H 0.3996 0.1311 0.8024
H10_4 H 0.3422 0.2947 0.8010
C8_4 C 0.3384(6) 0.2922(12) 0.8928(3)
C9_4 C 0.2045(5) 0.3795(14) 0.8993(3)
C10_4 C 0.2846(6) 0.3175(13) 0.9676(3)
C13_4 C 0.0423(6) 0.4480(15) 0.8028(3)
H14_4 H 0.0389 0.4935 0.7697
H15_4 H 0.0363 0.3237 0.8007
C14_4 C 0.1268(6) 0.4901(16) 0.8264(3)
H16_4 H 0.1365 0.6134 0.8245
H17_4 H 0.1694 0.4318 0.8089
C15_4 C 0.0668(6) 0.4998(18) 0.9065(4)
H18_4 H 0.0727 0.4510 0.9392
H19_4 H 0.0719 0.6241 0.9094
C20_4 C 0.6137(6) 0.4271(12) 0.7907(3)
N1_4 N 0.2082(4) 0.3675(12) 0.9486(3)
N2_4 N 0.1313(5) 0.4350(12) 0.8777(3)
N3_4 N 0.3501(5) 0.2845(11) 0.9425(3)
N4_4 N 0.2643(5) 0.3340(12) 0.8695(3)
N5_4 N 0.4025(4) 0.2590(11) 0.8653(3)
O4_4 O 0.5980(4) 0.5825(8) 0.7806(2)
O6_4 O 0.6208(4) 0.4547(9) 0.6847(2)
O11_2 O 0.8482(4) 0.5943(8) 0.7842(2)
H28_4 H 0.609014 0.346513 0.702476
H29_4 H 0.643359 0.426074 0.652646
C11_4 C 0.9815(6) 0.4544(16) 0.8835(3)
H11_4 H 0.9746 0.3300 0.8834
H12_4 H 0.9390 0.5037 0.9030
C12_4 C 0.9706(6) 0.5223(13) 0.8309(4)
H13_4 H 0.976(5) 0.648(12) 0.832(3)
C21_4 C 0.8885(6) 0.4779(11) 0.8062(3)
loop_
_geom_bond_atom_site_label_1
_geom_bond_atom_site_label_2
_geom_bond_site_symmetry_1
_geom_bond_site_symmetry_2
H4 C4 1_555 1_555
H5 C4 1_555 1_555
C5 C4 1_555 1_555
H6 C5 1_555 1_555
C20 C5 1_555 1_555
O5 C20 1_555 1_555
Ce4 O5 1_555 1_555
Ce4 O9 1_555 1_555
O6 H28 1_555 1_555
O6 H29 1_555 1_555
Ce1 O4 1_555 1_555
O8 Ce1 1_555 1_555
O10 Ce1 1_555 1_555
O11 Ce1 1_555 1_555
O12 Ce1 1_555 1_555
O13 Ce1 1_555 1_555
C1 C2 1_555 1_555
C2 H1 1_555 1_555
C3 H2 1_555 1_555
H3 C3 1_555 1_555
H7 C6 1_555 1_555
H8 C6 1_555 1_555
C7 C6 1_555 1_555
H9 C7 1_555 1_555
H10 C7 1_555 1_555
C8 N3 1_555 1_555
C9 N1 1_555 1_555
C10 N1 1_555 1_555
C11 H11 1_555 1_555
H14 C13 1_555 1_555
H15 C13 1_555 1_555
C14 C13 1_555 1_555
H17 C14 1_555 1_555
C15 C11 1_555 1_555
H18 C15 1_555 1_555
C16 C2 1_555 1_555
H20 C16 1_555 1_555
H21 C16 1_555 1_555
C17 C2 1_555 1_555
H22 C17 1_555 1_555
H23 C17 1_555 1_555
C18 C16 1_555 1_555
H24 C18 1_555 1_555
H25 C18 1_555 1_555
C19 C17 1_555 1_555
H26 C19 1_555 1_555
H27 C19 1_555 1_555
N2 C9 1_555 1_555
N3 C10 1_555 1_555
N4 C8 1_555 1_555
N5 C3 1_555 1_555
N6 C10 1_555 1_555
O1 C1 1_555 1_555
O2 C1 1_555 1_555
O7 C21 1_555 1_555
Ce4 O7 1_555 1_555
Ce5 O1 1_555 1_555
Ce6 O1 1_555 1_555
C7 N5 1_555 1_555
C8 N5 1_555 1_555
C9 N4 1_555 1_555
C14 N2 1_555 1_555
C15 N2 1_555 1_555
C18 N6 1_555 1_555
C19 N6 1_555 1_555
O2 Ce6 1_555 1_555
H13 C12 1_555 1_555
C11_2 H11_2 1_555 1_555
H12_2 C11_2 1_555 1_555
C12_2 C11_2 1_555 1_555
H13_2 C12_2 1_555 1_555
C21_2 C12_2 1_555 1_555
O3 C21_2 1_555 1_555
O13 C21_2 1_555 1_555
Ce4 O3 1_555 1_555
O2_2 Ce5 1_555 1_555
C3_2 H2_2 1_555 1_555
H3_2 C3_2 1_555 1_555
C4_2 C3_2 1_555 1_555
H4_2 C4_2 1_555 1_555
H5_2 C4_2 1_555 1_555
C5_2 C4_2 1_555 1_555
H6_2 C5_2 1_555 1_555
C6_2 C5_2 1_555 1_555
H7_2 C6_2 1_555 1_555
H8_2 C6_2 1_555 1_555
C7_2 C6_2 1_555 1_555
H9_2 C7_2 1_555 1_555
H10_2 C7_2 1_555 1_555
C8_2 N3_2 1_555 1_555
C9_2 N1_2 1_555 1_555
C10_2 N1_2 1_555 1_555
H14_2 C13_2 1_555 1_555
H15_2 C13_2 1_555 1_555
C14_2 C13_2 1_555 1_555
H16_2 C14_2 1_555 1_555
H17_2 C14_2 1_555 1_555
H18_2 C15_2 1_555 1_555
H19_2 C15_2 1_555 1_555
C20_2 C5_2 1_555 1_555
Ce4 O4_2 1_555 1_555
N2_2 C9_2 1_555 1_555
N3_2 C10_2 1_555 1_555
N4_2 C8_2 1_555 1_555
N5_2 C3_2 1_555 1_555
O4_2 C20_2 1_555 1_555
O12 C20_2 1_555 1_555
O6_2 Ce4 1_555 1_555
O8 Ce4 1_555 1_555
O10_2 Ce4 1_555 1_555
C7_2 N5_2 1_555 1_555
C8_2 N5_2 1_555 1_555
C9_2 N4_2 1_555 1_555
C14_2 N2_2 1_555 1_555
C15_2 N2_2 1_555 1_555
Ce4 O12 1_555 1_555
O6_2 H28_2 1_555 1_555
O6_2 H29_2 1_555 1_555
C1_2 C2_2 1_555 1_555
C2_2 H1_2 1_555 1_555
C16_2 C2_2 1_555 1_555
H20_2 C16_2 1_555 1_555
H21_2 C16_2 1_555 1_555
C17_2 C2_2 1_555 1_555
H22_2 C17_2 1_555 1_555
H23_2 C17_2 1_555 1_555
C18_2 C16_2 1_555 1_555
H24_2 C18_2 1_555 1_555
H25_2 C18_2 1_555 1_555
C19_2 C17_2 1_555 1_555
H26_2 C19_2 1_555 1_555
H27_2 C19_2 1_555 1_555
O1_2 C1_2 1_555 1_555
Ce6 O1_2 1_555 1_555
C18_2 N6_2 1_555 1_555
C19_2 N6_2 1_555 1_555
H13_3 C12_3 1_555 1_555
Ce5 O3_2 1_555 1_555
C1_3 C2_3 1_555 1_555
C2_3 H1_3 1_555 1_555
C3_3 H2_3 1_555 1_555
H3_3 C3_3 1_555 1_555
H7_3 C6_3 1_555 1_555
H8_3 C6_3 1_555 1_555
C7_3 C6_3 1_555 1_555
H9_3 C7_3 1_555 1_555
H10_3 C7_3 1_555 1_555
C8_3 N3_3 1_555 1_555
C9_3 N1_3 1_555 1_555
C10_3 N1_3 1_555 1_555
C11_3 H11_3 1_555 1_555
H14_3 C13_3 1_555 1_555
H15_3 C13_3 1_555 1_555
C14_3 C13_3 1_555 1_555
H17_3 C14_3 1_555 1_555
C15_3 C11_3 1_555 1_555
H18_3 C15_3 1_555 1_555
C16_3 C2_3 1_555 1_555
H20_3 C16_3 1_555 1_555
H21_3 C16_3 1_555 1_555
C17_3 C2_3 1_555 1_555
H22_3 C17_3 1_555 1_555
H23_3 C17_3 1_555 1_555
C18_3 C16_3 1_555 1_555
H24_3 C18_3 1_555 1_555
H25_3 C18_3 1_555 1_555
C19_3 C17_3 1_555 1_555
H26_3 C19_3 1_555 1_555
H27_3 C19_3 1_555 1_555
N2_3 C9_3 1_555 1_555
N3_3 C10_3 1_555 1_555
N4_3 C8_3 1_555 1_555
N5_3 C3_3 1_555 1_555
N6_3 C10_3 1_555 1_555
O8 C1_3 1_555 1_555
O10_2 C1_3 1_555 1_555
O7_2 C21_3 1_555 1_555
Ce6 O7_2 1_555 1_555
C7_3 N5_3 1_555 1_555
C8_3 N5_3 1_555 1_555
C9_3 N4_3 1_555 1_555
C14_3 N2_3 1_555 1_555
C15_3 N2_3 1_555 1_555
C18_3 N6_3 1_555 1_555
C19_3 N6_3 1_555 1_555
Ce5 O4_3 1_555 1_555
O12_2 Ce5 1_555 1_555
O13_2 Ce5 1_555 1_555
H4_3 C4_3 1_555 1_555
H5_3 C4_3 1_555 1_555
C5_3 C4_3 1_555 1_555
H6_3 C5_3 1_555 1_555
C20_3 C5_3 1_555 1_555
O5_2 C20_3 1_555 1_555
Ce6 O5_2 1_555 1_555
O6_3 H28_3 1_555 1_555
O6_3 H29_3 1_555 1_555
C1_4 C2_4 1_555 1_555
C2_4 H1_4 1_555 1_555
C16_4 C2_4 1_555 1_555
H20_4 C16_4 1_555 1_555
H21_4 C16_4 1_555 1_555
C17_4 C2_4 1_555 1_555
H22_4 C17_4 1_555 1_555
H23_4 C17_4 1_555 1_555
C18_4 C16_4 1_555 1_555
H24_4 C18_4 1_555 1_555
H25_4 C18_4 1_555 1_555
C19_4 C17_4 1_555 1_555
H26_4 C19_4 1_555 1_555
H27_4 C19_4 1_555 1_555
O9 C1_4 1_555 1_555
C18_4 N6_4 1_555 1_555
C19_4 N6_4 1_555 1_555
C3_4 H2_4 1_555 1_555
H3_4 C3_4 1_555 1_555
C4_4 C3_4 1_555 1_555
H4_4 C4_4 1_555 1_555
H5_4 C4_4 1_555 1_555
C5_4 C4_4 1_555 1_555
H6_4 C5_4 1_555 1_555
C6_4 C5_4 1_555 1_555
H7_4 C6_4 1_555 1_555
H8_4 C6_4 1_555 1_555
C7_4 C6_4 1_555 1_555
H9_4 C7_4 1_555 1_555
H10_4 C7_4 1_555 1_555
C8_4 N3_4 1_555 1_555
C9_4 N1_4 1_555 1_555
C10_4 N1_4 1_555 1_555
H14_4 C13_4 1_555 1_555
H15_4 C13_4 1_555 1_555
C14_4 C13_4 1_555 1_555
H16_4 C14_4 1_555 1_555
H17_4 C14_4 1_555 1_555
H18_4 C15_4 1_555 1_555
H19_4 C15_4 1_555 1_555
C20_4 C5_4 1_555 1_555
Ce6 O4_4 1_555 1_555
N2_4 C9_4 1_555 1_555
N3_4 C10_4 1_555 1_555
N4_4 C8_4 1_555 1_555
N5_4 C3_4 1_555 1_555
O4_4 C20_4 1_555 1_555
O12_2 C20_4 1_555 1_555
O6_4 Ce6 1_555 1_555
O11_2 Ce6 1_555 1_555
C7_4 N5_4 1_555 1_555
C8_4 N5_4 1_555 1_555
C9_4 N4_4 1_555 1_555
C14_4 N2_4 1_555 1_555
C15_4 N2_4 1_555 1_555
Ce6 O12_2 1_555 1_555
O6_4 H28_4 1_555 1_555
O6_4 H29_4 1_555 1_555
C11_4 H11_4 1_555 1_555
H12_4 C11_4 1_555 1_555
C12_4 C11_4 1_555 1_555
H13_4 C12_4 1_555 1_555
C21_4 C12_4 1_555 1_555
O11_2 C21_4 1_555 1_555
O13_2 C21_4 1_555 1_555

#END
