
###############################################################################
#
# This file contains modified crystal structure data generated from the
# MOF subset of the Cambridge Structural Database (CSD) v543 
# hosted by the Cambridge Crystallographic Data Centre (CCDC).
#
# This work is licensed under the Creative Commons
# Attribution-NonCommercial-ShareAlike 4.0 International License.
# To view a copy of this license, visit
# http://creativecommons.org/licenses/by-nc-sa/4.0/
# or send a letter to
# Creative Commons, PO Box 1866, Mountain View, CA 94042, USA.
#
# CIF created using the CSD Python API on 29 September 2022
# The structure has been converted into the P1 space group
# The structure has a 3D framework
# The original CSD entry DIBXIX is in the triclinic crystal system
# The framework has been calculated to contain at least 10.0% void space
# The void calculation uses a probe of radius 1.32A, grid spacing 0.4
#
###############################################################################

data_DIBXIX
_chemical_formula_moiety         '(C32 H20 Cu9 Eu2 N10 O18)n'
_symmetry_cell_setting           triclinic
_symmetry_space_group_name_H-M   'P 1'
_symmetry_Int_Tables_number      1
_space_group_name_Hall           'P 1'
loop_
_symmetry_equiv_pos_site_id
_symmetry_equiv_pos_as_xyz
1 x,y,z
_cell_length_a                   10.7491(16)
_cell_length_b                   10.7585(16)
_cell_length_c                   11.8901(18)
_cell_angle_alpha                70.146(2)
_cell_angle_beta                 78.016(2)
_cell_angle_gamma                61.0300(10)
_cell_volume                     1129.91
loop_
_atom_site_label
_atom_site_type_symbol
_atom_site_fract_x
_atom_site_fract_y
_atom_site_fract_z
Cu1 Cu 0.0000 0.0000 0.0000
Cu1_2 Cu 0.0000 0.0000 1.0000
Cu2 Cu 0.0000 0.0000 0.5000
N2 N 0.0225(4) 0.0180(4) 0.7389(3)
O20 O 0.2233(4) 0.0129(4) 0.9589(3)
Cu1_3 Cu 0.0000 1.0000 0.0000
H11 H 0.0045 0.2707 0.5213
N12 N 0.0492(4) 0.9892(4) 0.1556(3)
N16 N 0.1104(4) 0.7753(4) 0.0362(4)
H5 H 0.0023 0.2783 0.8219
Cu1_4 Cu 0.0000 1.0000 1.0000
Cu2_2 Cu -0.0000 1.0000 0.5000
N11 N 0.0555(4) 0.9760(4) 0.3375(4)
N13 N 0.0906(5) 0.7739(4) 0.5721(4)
O19 O 0.2329(4) 0.9915(4) 0.4581(3)
Cu1_5 Cu 1.0000 0.0000 0.0000
C20 C 0.2650(5) 0.0019(5) 0.0547(4)
C27 C 0.0774(6) 0.6827(6) 0.1287(5)
C28 C 0.1562(6) 0.5314(6) 0.1546(5)
H16 H 0.1290 0.4699 0.2194
C29 C 0.2770(5) 0.4716(5) 0.0827(5)
C32 C 0.3695(6) 0.3070(6) 0.1087(5)
O12 O 0.3811(3) 0.0021(4) 0.0571(3)
O16 O 0.4848(4) 0.2591(4) 0.0483(3)
O17 O 0.3313(4) 0.2219(4) 0.1923(4)
O18 O 0.6320(5) 0.0848(5) 0.2841(5)
H19 H 0.712(7) 0.039(8) 0.313(7)
H20 H 0.592(8) 0.150(7) 0.301(8)
C1 C 0.8221(5) 0.0225(5) 0.7168(4)
C2 C 0.8270(5) 0.0116(5) 0.8345(4)
C3 C 0.7177(5) 0.0345(5) 0.6407(5)
C5 C 0.0589(7) 0.6868(6) 0.5390(6)
C6 C 0.1158(7) 0.5365(6) 0.5901(6)
H2 H 0.0915 0.4794 0.5638
C7 C 0.2088(6) 0.4706(6) 0.6801(5)
C8 C 0.2415(8) 0.5613(7) 0.7139(7)
H3 H 0.3035 0.5218 0.7748
C9 C 0.1823(8) 0.7100(6) 0.6575(6)
H4 H 0.2076 0.7691 0.6801
C10 C 0.2758(5) 0.3071(5) 0.7408(5)
Cu1_6 Cu 1.0000 0.0000 1.0000
Cu2_3 Cu 1.0000 0.0000 0.5000
Eu1 Eu 0.45094(2) 0.00069(2) 0.83559(2)
N1 N 0.9445(4) 0.0240(4) 0.6625(4)
N3 N 0.9508(4) 0.0108(4) 0.8444(3)
O1 O 0.7671(4) 0.0085(4) 0.5419(3)
O2 O 0.5894(4) 0.0757(4) 0.6795(3)
O5 O 0.2615(4) 0.2203(4) 0.7015(4)
O6 O 0.3480(5) 0.2606(4) 0.8300(4)
C30 C 0.3109(6) 0.5688(6) 0.9873(5)
H17 H 0.3912 0.5332 0.9374
C31 C 0.2259(6) 0.7180(6) 0.9664(5)
H18 H 0.2494 0.7820 0.9011
N14 N 0.9094(5) 0.2261(4) 0.4279(4)
N15 N 0.8896(4) 0.2247(4) 0.9638(4)
C14 C 0.6891(6) 0.4312(6) 0.0127(5)
H7 H 0.6088 0.4668 0.0626
C15 C 0.7741(6) 0.2820(6) 0.0336(5)
H8 H 0.7506 0.2180 0.0989
Cu1_7 Cu 1.0000 1.0000 0.0000
O4 O 0.7767(4) 0.9871(4) 0.0411(3)
C17 C 0.1779(5) 0.9775(5) 0.2832(4)
C18 C 0.1730(5) 0.9884(5) 0.1655(4)
C19 C 0.2823(5) 0.9655(5) 0.3593(5)
C21 C 0.9411(7) 0.3132(6) 0.4610(6)
C22 C 0.8842(7) 0.4635(6) 0.4099(6)
H12 H 0.9085 0.5206 0.4362
C23 C 0.7912(6) 0.5294(6) 0.3199(5)
C24 C 0.7585(8) 0.4387(7) 0.2861(7)
H13 H 0.6965 0.4782 0.2252
C25 C 0.8177(8) 0.2900(6) 0.3425(6)
H14 H 0.7924 0.2309 0.3199
C26 C 0.7242(5) 0.6929(5) 0.2592(5)
Eu2 Eu 0.54906(2) 0.99931(2) 0.16441(2)
O11 O 0.4106(4) 0.9243(4) 0.3205(3)
O14 O 0.7385(4) 0.7797(4) 0.2985(4)
O15 O 0.6520(5) 0.7394(4) 0.1700(4)
C4 C 0.7350(5) 0.9981(5) 0.9453(4)
C11 C 0.9226(6) 0.3173(6) 0.8713(5)
C12 C 0.8438(6) 0.4686(6) 0.8454(5)
H6 H 0.8710 0.5301 0.7806
C13 C 0.7230(5) 0.5284(5) 0.9173(5)
C16 C 0.6305(6) 0.6930(6) 0.8913(5)
Cu1_8 Cu 1.0000 1.0000 1.0000
Cu2_4 Cu 1.0000 1.0000 0.5000
O3 O 0.6189(3) 0.9979(4) 0.9429(3)
O7 O 0.5152(4) 0.7409(4) 0.9517(3)
O8 O 0.6687(4) 0.7781(4) 0.8077(4)
O9 O 0.3680(5) 0.9152(5) 0.7159(5)
H9 H 0.288(7) 0.961(8) 0.687(7)
H10 H 0.408(8) 0.850(7) 0.699(8)
H15 H 0.9977 0.7217 0.1781
H1 H 0.9955 0.7293 0.4787
N7 N 0.9775(4) 0.9820(4) 0.2611(3)
loop_
_geom_bond_atom_site_label_1
_geom_bond_atom_site_label_2
_geom_bond_site_symmetry_1
_geom_bond_site_symmetry_2
O20 Cu1_2 1_555 1_555
N12 Cu1_3 1_555 1_555
N16 Cu1_3 1_555 1_555
N11 Cu2_2 1_555 1_555
N13 Cu2_2 1_555 1_555
O19 Cu2_2 1_555 1_555
C20 O12 1_555 1_555
C28 C27 1_555 1_555
H16 C28 1_555 1_555
C29 C28 1_555 1_555
C32 C29 1_555 1_555
N16 C27 1_555 1_555
O16 C32 1_555 1_555
O17 C32 1_555 1_555
H19 O18 1_555 1_555
H20 O18 1_555 1_555
C1 C2 1_555 1_555
C3 C1 1_555 1_555
C6 C5 1_555 1_555
H2 C6 1_555 1_555
C7 C6 1_555 1_555
C8 C7 1_555 1_555
H3 C8 1_555 1_555
C9 C8 1_555 1_555
H4 C9 1_555 1_555
C10 C7 1_555 1_555
Cu1_6 N3 1_555 1_555
Cu2_3 N1 1_555 1_555
Eu1 O2 1_555 1_555
N1 C1 1_555 1_555
N3 C2 1_555 1_555
N13 C5 1_555 1_555
O1 C3 1_555 1_555
O2 C3 1_555 1_555
O5 C10 1_555 1_555
O6 C10 1_555 1_555
H17 C30 1_555 1_555
C31 C30 1_555 1_555
H18 C31 1_555 1_555
O20 Eu1 1_555 1_555
N14 Cu2_3 1_555 1_555
N15 Cu1_6 1_555 1_555
C9 N13 1_555 1_555
Cu2_3 O1 1_555 1_555
Eu1 O5 1_555 1_555
Eu1 O6 1_555 1_555
H7 C14 1_555 1_555
C15 C14 1_555 1_555
H8 C15 1_555 1_555
C17 C18 1_555 1_555
C19 C17 1_555 1_555
C22 C21 1_555 1_555
H12 C22 1_555 1_555
C23 C22 1_555 1_555
C24 C23 1_555 1_555
H13 C24 1_555 1_555
C25 C24 1_555 1_555
H14 C25 1_555 1_555
C26 C23 1_555 1_555
N11 C17 1_555 1_555
N12 C18 1_555 1_555
N14 C21 1_555 1_555
O19 C19 1_555 1_555
O11 C19 1_555 1_555
O14 C26 1_555 1_555
O15 C26 1_555 1_555
Cu1_7 O4 1_555 1_555
O4 Eu2 1_555 1_555
C25 N14 1_555 1_555
Eu2 O11 1_555 1_555
Eu2 O14 1_555 1_555
Eu2 O15 1_555 1_555
C4 O3 1_555 1_555
C12 C11 1_555 1_555
H6 C12 1_555 1_555
C13 C12 1_555 1_555
C16 C13 1_555 1_555
N15 C11 1_555 1_555
O7 C16 1_555 1_555
O8 C16 1_555 1_555
H9 O9 1_555 1_555
H10 O9 1_555 1_555

#END
