
###############################################################################
#
# This file contains modified crystal structure data generated from the
# MOF subset of the Cambridge Structural Database (CSD) v543 
# hosted by the Cambridge Crystallographic Data Centre (CCDC).
#
# This work is licensed under the Creative Commons
# Attribution-NonCommercial-ShareAlike 4.0 International License.
# To view a copy of this license, visit
# http://creativecommons.org/licenses/by-nc-sa/4.0/
# or send a letter to
# Creative Commons, PO Box 1866, Mountain View, CA 94042, USA.
#
# CIF created using the CSD Python API on 29 September 2022
# The structure has been converted into the P1 space group
# The structure has a 3D framework
# The original CSD entry DIBXAP is in the triclinic crystal system
# The framework has been calculated to contain at least 10.0% void space
# The void calculation uses a probe of radius 1.32A, grid spacing 0.4
#
###############################################################################

data_DIBXAP
_chemical_formula_moiety         '(C32 H20 Cu9 Ho2 N10 O18)n'
_symmetry_cell_setting           triclinic
_symmetry_space_group_name_H-M   'P 1'
_symmetry_Int_Tables_number      1
_space_group_name_Hall           'P 1'
loop_
_symmetry_equiv_pos_site_id
_symmetry_equiv_pos_as_xyz
1 x,y,z
_cell_length_a                   10.6390(16)
_cell_length_b                   10.6982(16)
_cell_length_c                   11.9375(18)
_cell_angle_alpha                70.078(2)
_cell_angle_beta                 77.610(2)
_cell_angle_gamma                60.7997(10)
_cell_volume                     1113.13
loop_
_atom_site_label
_atom_site_type_symbol
_atom_site_fract_x
_atom_site_fract_y
_atom_site_fract_z
Cu1 Cu 0.0000 -0.0000 -0.0000
Cu1_2 Cu -0.0000 -0.0000 1.0000
Cu2 Cu -0.0000 -0.0000 0.5000
N2 N 0.0245(4) 0.0189(4) 0.7381(4)
O20 O 0.2234(3) 0.0146(3) 0.9582(3)
Cu1_3 Cu -0.0000 1.0000 -0.0000
H11 H 0.0096 0.2730 0.5140
N12 N 0.0473(4) 0.9897(4) 0.1560(3)
N16 N 0.1121(4) 0.7747(4) 0.0356(4)
H5 H 0.0029 0.2787 0.8213
Cu1_4 Cu -0.0000 1.0000 1.0000
Cu2_2 Cu -0.0000 1.0000 0.5000
N11 N 0.0539(4) 0.9765(4) 0.3370(4)
N13 N 0.0921(4) 0.7735(5) 0.5711(4)
O19 O 0.2351(4) 0.9921(4) 0.4545(3)
Cu1_5 Cu 1.0000 -0.0000 -0.0000
C20 C 0.2649(5) 0.0028(5) 0.0539(4)
C27 C 0.0779(6) 0.6815(6) 0.1293(5)
C28 C 0.1583(6) 0.5281(6) 0.1552(6)
H16 H 0.1318 0.4661 0.2207
C29 C 0.2794(5) 0.4682(6) 0.0814(5)
C32 C 0.3708(5) 0.3032(5) 0.1071(5)
O12 O 0.3821(3) 0.0048(4) 0.0566(3)
O16 O 0.4870(4) 0.2534(4) 0.0461(3)
O17 O 0.3331(4) 0.2176(4) 0.1916(4)
O18 O 0.6312(4) 0.0826(4) 0.2760(4)
H19 H 0.709(5) 0.039(7) 0.302(6)
H20 H 0.575(6) 0.114(7) 0.323(5)
C1 C 0.8225(5) 0.0220(5) 0.7181(4)
C2 C 0.8283(5) 0.0113(5) 0.8357(4)
C3 C 0.7156(5) 0.0352(5) 0.6429(4)
C5 C 0.0571(6) 0.6846(6) 0.5436(6)
C6 C 0.1139(7) 0.5334(7) 0.5953(6)
H2 H 0.0878 0.4753 0.5717
C7 C 0.2101(5) 0.4694(6) 0.6827(5)
C8 C 0.2477(7) 0.5598(7) 0.7110(7)
H3 H 0.3132 0.5201 0.7690
C9 C 0.1882(7) 0.7098(8) 0.6530(6)
H4 H 0.2166 0.7693 0.6722
C10 C 0.2792(5) 0.3031(5) 0.7442(5)
Cu1_6 Cu 1.0000 -0.0000 1.0000
Cu2_3 Cu 1.0000 -0.0000 0.5000
Ho1 Ho 0.45124(2) 0.00192(2) 0.839173(19)
N1 N 0.9461(4) 0.0235(4) 0.6630(4)
N3 N 0.9527(4) 0.0103(4) 0.8440(3)
O1 O 0.7649(4) 0.0079(4) 0.5455(3)
O2 O 0.5863(4) 0.0770(4) 0.6827(3)
O5 O 0.2618(4) 0.2168(4) 0.7074(3)
O6 O 0.3506(4) 0.2588(4) 0.8319(4)
C30 C 0.3133(5) 0.5659(6) 0.9861(5)
H17 H 0.3942 0.5297 0.9356
C31 C 0.2290(5) 0.7144(5) 0.9658(5)
H18 H 0.2534 0.7779 0.9002
N14 N 0.9079(4) 0.2265(5) 0.4289(4)
N15 N 0.8879(4) 0.2253(4) 0.9644(4)
C14 C 0.6867(5) 0.4341(6) 0.0139(5)
H7 H 0.6058 0.4703 0.0644
C15 C 0.7710(5) 0.2856(5) 0.0342(5)
H8 H 0.7466 0.2221 0.0998
Cu1_7 Cu 1.0000 1.0000 -0.0000
O4 O 0.7766(3) 0.9854(3) 0.0418(3)
C17 C 0.1775(5) 0.9780(5) 0.2819(4)
C18 C 0.1717(5) 0.9887(5) 0.1643(4)
C19 C 0.2844(5) 0.9648(5) 0.3571(4)
C21 C 0.9429(6) 0.3154(6) 0.4564(6)
C22 C 0.8861(7) 0.4666(7) 0.4047(6)
H12 H 0.9122 0.5247 0.4283
C23 C 0.7899(5) 0.5306(6) 0.3173(5)
C24 C 0.7523(7) 0.4402(7) 0.2890(7)
H13 H 0.6868 0.4799 0.2310
C25 C 0.8118(7) 0.2902(8) 0.3470(6)
H14 H 0.7834 0.2307 0.3278
C26 C 0.7208(5) 0.6969(5) 0.2558(5)
Ho2 Ho 0.54876(2) 0.99808(2) 0.160827(19)
O11 O 0.4137(4) 0.9230(4) 0.3173(3)
O14 O 0.7382(4) 0.7832(4) 0.2926(3)
O15 O 0.6494(4) 0.7412(4) 0.1681(4)
C4 C 0.7351(5) 0.9972(5) 0.9461(4)
C11 C 0.9221(6) 0.3185(6) 0.8707(5)
C12 C 0.8417(6) 0.4719(6) 0.8448(6)
H6 H 0.8682 0.5339 0.7793
C13 C 0.7206(5) 0.5318(6) 0.9186(5)
C16 C 0.6292(5) 0.6968(5) 0.8929(5)
Cu1_8 Cu 1.0000 1.0000 1.0000
Cu2_4 Cu 1.0000 1.0000 0.5000
O3 O 0.6179(3) 0.9952(4) 0.9434(3)
O7 O 0.5130(4) 0.7466(4) 0.9539(3)
O8 O 0.6669(4) 0.7824(4) 0.8084(4)
O9 O 0.3688(4) 0.9174(4) 0.7240(4)
H9 H 0.291(5) 0.961(7) 0.698(6)
H10 H 0.425(6) 0.886(7) 0.677(5)
H15 H 0.9971 0.7213 0.1787
H1 H 0.9904 0.7270 0.4860
N7 N 0.9755(4) 0.9811(4) 0.2619(4)
loop_
_geom_bond_atom_site_label_1
_geom_bond_atom_site_label_2
_geom_bond_site_symmetry_1
_geom_bond_site_symmetry_2
O20 Cu1_2 1_555 1_555
N12 Cu1_3 1_555 1_555
N16 Cu1_3 1_555 1_555
N11 Cu2_2 1_555 1_555
N13 Cu2_2 1_555 1_555
O19 Cu2_2 1_555 1_555
C20 O12 1_555 1_555
C28 C27 1_555 1_555
H16 C28 1_555 1_555
C29 C28 1_555 1_555
C32 C29 1_555 1_555
N16 C27 1_555 1_555
O16 C32 1_555 1_555
O17 C32 1_555 1_555
H19 O18 1_555 1_555
H20 O18 1_555 1_555
C1 C2 1_555 1_555
C3 C1 1_555 1_555
C6 C5 1_555 1_555
H2 C6 1_555 1_555
C7 C6 1_555 1_555
C8 C7 1_555 1_555
H3 C8 1_555 1_555
C9 C8 1_555 1_555
H4 C9 1_555 1_555
C10 C7 1_555 1_555
Cu1_6 N3 1_555 1_555
Cu2_3 N1 1_555 1_555
Ho1 O2 1_555 1_555
N1 C1 1_555 1_555
N3 C2 1_555 1_555
N13 C5 1_555 1_555
O1 C3 1_555 1_555
O2 C3 1_555 1_555
O5 C10 1_555 1_555
O6 C10 1_555 1_555
H17 C30 1_555 1_555
C31 C30 1_555 1_555
H18 C31 1_555 1_555
O20 Ho1 1_555 1_555
N14 Cu2_3 1_555 1_555
N15 Cu1_6 1_555 1_555
C9 N13 1_555 1_555
Cu2_3 O1 1_555 1_555
Ho1 O5 1_555 1_555
Ho1 O6 1_555 1_555
H7 C14 1_555 1_555
C15 C14 1_555 1_555
H8 C15 1_555 1_555
C17 C18 1_555 1_555
C19 C17 1_555 1_555
C22 C21 1_555 1_555
H12 C22 1_555 1_555
C23 C22 1_555 1_555
C24 C23 1_555 1_555
H13 C24 1_555 1_555
C25 C24 1_555 1_555
H14 C25 1_555 1_555
C26 C23 1_555 1_555
N11 C17 1_555 1_555
N12 C18 1_555 1_555
N14 C21 1_555 1_555
O19 C19 1_555 1_555
O11 C19 1_555 1_555
O14 C26 1_555 1_555
O15 C26 1_555 1_555
Cu1_7 O4 1_555 1_555
O4 Ho2 1_555 1_555
C25 N14 1_555 1_555
Ho2 O11 1_555 1_555
Ho2 O14 1_555 1_555
Ho2 O15 1_555 1_555
C4 O3 1_555 1_555
C12 C11 1_555 1_555
H6 C12 1_555 1_555
C13 C12 1_555 1_555
C16 C13 1_555 1_555
N15 C11 1_555 1_555
O7 C16 1_555 1_555
O8 C16 1_555 1_555
H9 O9 1_555 1_555
H10 O9 1_555 1_555

#END
