
###############################################################################
#
# This file contains modified crystal structure data generated from the
# MOF subset of the Cambridge Structural Database (CSD) v543 
# hosted by the Cambridge Crystallographic Data Centre (CCDC).
#
# This work is licensed under the Creative Commons
# Attribution-NonCommercial-ShareAlike 4.0 International License.
# To view a copy of this license, visit
# http://creativecommons.org/licenses/by-nc-sa/4.0/
# or send a letter to
# Creative Commons, PO Box 1866, Mountain View, CA 94042, USA.
#
# CIF created using the CSD Python API on 29 September 2022
# The structure has been converted into the P1 space group
# The structure has a 3D framework
# The original CSD entry DIDNOW is in the monoclinic crystal system
# The framework has been calculated to contain at least 10.0% void space
# The void calculation uses a probe of radius 1.32A, grid spacing 0.4
#
###############################################################################

data_DIDNOW
_chemical_formula_moiety         '(C88 H56 Cu4 N16 O20)n'
_symmetry_cell_setting           triclinic
_symmetry_space_group_name_H-M   'P 1'
_symmetry_Int_Tables_number      1
_space_group_name_Hall           'P 1'
loop_
_symmetry_equiv_pos_site_id
_symmetry_equiv_pos_as_xyz
1 x,y,z
_cell_length_a                   9.083(3)
_cell_length_b                   12.331(4)
_cell_length_c                   22.239(6)
_cell_angle_alpha                90
_cell_angle_beta                 96.899(5)
_cell_angle_gamma                90
_cell_volume                     2472.79
loop_
_atom_site_label
_atom_site_type_symbol
_atom_site_fract_x
_atom_site_fract_y
_atom_site_fract_z
N1 N 0.1487(5) 0.2934(3) 0.1730(2)
Cu1 Cu 0.39873(5) 0.47817(4) 0.195621(17)
O1 O 0.2850(3) 0.6137(2) 0.20972(10)
O2 O 0.3074(3) 0.5567(2) 0.11922(10)
O3 O 0.2071(4) 0.3622(3) 0.20930(16)
C7 C 0.1516(3) 0.7111(2) 0.12689(14)
C8 C 0.0277(4) 0.8040(2) 0.04062(14)
C10 C 0.0716(4) 0.7726(3) 0.16516(14)
H5 H 0.0846 0.7611 0.2068
C11 C 0.1286(4) 0.7262(2) 0.06545(14)
H6 H 0.1803 0.6844 0.0402
C14 C 0.2535(4) 0.6237(3) 0.15327(15)
O4 O 0.1785(5) 0.2893(3) 0.1199(2)
O5 O 0.0478(5) 0.2341(4) 0.1866(2)
N5 N 0.4939(3) 0.4659(2) 0.28094(12)
N6 N 0.5168(3) 0.3696(2) 0.15701(11)
C2 C 0.6466(3) 0.2061(2) 0.09400(12)
C3 C 0.8069(3) 0.0405(2) 0.08507(13)
H1 H 0.8507 0.0496 0.1247
N2 N 0.6422(3) 0.10959(18) 0.00097(10)
C9 C 0.6131(4) 0.2987(3) 0.18545(14)
H4 H 0.6364 0.3050 0.2272
C12 C 0.6791(4) 0.2171(2) 0.15626(13)
H7 H 0.7450 0.1696 0.1780
C15 C 0.4901(5) 0.3615(3) 0.09682(15)
H9 H 0.4263 0.4113 0.0759
C17 C 0.7025(3) 0.1149(2) 0.05886(12)
C22 C 0.5524(5) 0.2831(3) 0.06465(15)
H14 H 0.5316 0.2813 0.0227
N3 N 0.4939(3) 0.0341(2) 0.78094(12)
C4 C 0.6815(3) 0.0264(2) 0.96737(12)
C5 C 0.6176(3) 0.0288(2) 0.90214(13)
C20 C 0.5181(4) 0.1093(3) 0.88014(14)
H12 H 0.4914 0.1629 0.9062
C21 C 0.4587(4) 0.1108(3) 0.82005(14)
H13 H 0.3930 0.1657 0.8062
Cu3 Cu 0.39873(5) 0.02183(4) 0.695621(17)
N1_2 N 0.1487(5) 0.2066(3) 0.6730(2)
O3_2 O 0.2071(4) 0.1378(3) 0.70930(16)
O4_2 O 0.1785(5) 0.2107(3) 0.6199(2)
O5_2 O 0.0478(5) 0.2659(4) 0.6866(2)
N6_2 N 0.5168(3) 0.1304(2) 0.65701(11)
C1 C 0.8446(3) 0.5478(2) 0.55077(13)
C2_2 C 0.6466(3) 0.2939(2) 0.59400(12)
C3_2 C 0.8069(3) 0.4595(2) 0.58507(13)
H1_2 H 0.8507 0.4504 0.6247
N2_2 N 0.6422(3) 0.39041(18) 0.50097(10)
C4_2 C 0.6815(3) 0.4736(2) 0.46737(12)
C5_2 C 0.6176(3) 0.4712(2) 0.40214(13)
C6 C 0.5881(4) 0.5430(3) 0.30207(15)
H2 H 0.6121 0.5962 0.2753
C9_2 C 0.6131(4) 0.2013(3) 0.68545(14)
H4_2 H 0.6364 0.1950 0.7272
C12_2 C 0.6791(4) 0.2829(2) 0.65626(13)
H7_2 H 0.7450 0.3304 0.6780
C13 C 0.6520(4) 0.5489(3) 0.36078(14)
H8 H 0.7181 0.6046 0.3730
C15_2 C 0.4901(5) 0.1385(3) 0.59682(15)
H9_2 H 0.4263 0.0887 0.5759
C16 C 0.9510(3) 0.6315(2) 0.57760(13)
C17_2 C 0.7025(3) 0.3851(2) 0.55886(12)
C18 C 0.7789(3) 0.5538(2) 0.49104(13)
H10 H 0.8004 0.6118 0.4669
C19 C 0.9732(4) 0.6491(3) 0.63992(14)
H11 H 0.9209 0.6075 0.6651
C20_2 C 0.5181(4) 0.3907(3) 0.38014(14)
H12_2 H 0.4914 0.3371 0.4062
C21_2 C 0.4587(4) 0.3892(3) 0.32005(14)
H13_2 H 0.3930 0.3343 0.3062
C22_2 C 0.5524(5) 0.2169(3) 0.56465(15)
H14_2 H 0.5316 0.2187 0.5227
H3 H 0.0115 0.8128 0.9988
C1_2 C 0.8446(3) 0.9522(2) 0.05077(13)
C16_2 C 0.9510(3) 0.8685(2) 0.07760(13)
C19_2 C 0.9732(4) 0.8509(3) 0.13992(14)
H11_2 H 0.9209 0.8925 0.1651
C6_2 C 0.5881(4) 0.9570(3) 0.80207(15)
H2_2 H 0.6121 0.9038 0.7753
C13_2 C 0.6520(4) 0.9511(3) 0.86078(14)
H8_2 H 0.7181 0.8954 0.8730
C18_2 C 0.7789(3) 0.9462(2) 0.99104(13)
H10_2 H 0.8004 0.8882 0.9669
C1_3 C 0.1554(3) 0.4522(2) 0.44923(13)
C2_3 C 0.3534(3) 0.7061(2) 0.40600(12)
C3_3 C 0.1931(3) 0.5405(2) 0.41493(13)
H1_3 H 0.1493 0.5496 0.3753
N2_3 N 0.3578(3) 0.60959(18) 0.49903(10)
N3_2 N 0.5061(3) 0.5341(2) 0.71906(12)
C4_3 C 0.3185(3) 0.5264(2) 0.53263(12)
C5_3 C 0.3824(3) 0.5288(2) 0.59786(13)
C6_3 C 0.4119(4) 0.4570(3) 0.69793(15)
H2_3 H 0.3879 0.4038 0.7247
N4 N 0.4832(3) 0.8696(2) 0.34299(11)
C9_3 C 0.3869(4) 0.7987(3) 0.31455(14)
H4_3 H 0.3636 0.8050 0.2728
C12_3 C 0.3209(4) 0.7171(2) 0.34374(13)
H7_3 H 0.2550 0.6696 0.3220
C13_3 C 0.3480(4) 0.4511(3) 0.63922(14)
H8_3 H 0.2819 0.3954 0.6270
C15_3 C 0.5099(5) 0.8615(3) 0.40318(15)
H9_3 H 0.5737 0.9113 0.4241
C16_3 C 0.0490(3) 0.3685(2) 0.42240(13)
C17_3 C 0.2975(3) 0.6149(2) 0.44114(12)
C18_3 C 0.2211(3) 0.4462(2) 0.50896(13)
H10_3 H 0.1996 0.3882 0.5331
C19_3 C 0.0268(4) 0.3509(3) 0.36008(14)
H11_3 H 0.0791 0.3925 0.3349
C20_3 C 0.4819(4) 0.6093(3) 0.61986(14)
H12_3 H 0.5086 0.6629 0.5938
C21_3 C 0.5413(4) 0.6108(3) 0.67995(14)
H13_3 H 0.6070 0.6657 0.6938
C22_3 C 0.4476(5) 0.7831(3) 0.43535(15)
H14_3 H 0.4684 0.7813 0.4773
Cu2 Cu 0.60127(5) 0.97817(4) 0.304379(17)
Cu3_2 Cu 0.60127(5) 0.52183(4) 0.804379(17)
N1_3 N 0.8513(5) 0.7934(3) 0.3270(2)
O3_3 O 0.7929(4) 0.8622(3) 0.29070(16)
O4_3 O 0.8215(5) 0.7893(3) 0.3801(2)
O5_3 O 0.9522(5) 0.7341(4) 0.3134(2)
N5_2 N 0.5061(3) 0.9659(2) 0.21906(12)
C4_4 C 0.3185(3) 0.9736(2) 0.03263(12)
C5_4 C 0.3824(3) 0.9712(2) 0.09786(13)
C20_4 C 0.4819(4) 0.8907(3) 0.11986(14)
H12_4 H 0.5086 0.8371 0.0938
C21_4 C 0.5413(4) 0.8892(3) 0.17995(14)
H13_4 H 0.6070 0.8343 0.1938
C2_4 C 0.3534(3) 0.7939(2) 0.90600(12)
C3_4 C 0.1931(3) 0.9595(2) 0.91493(13)
H1_4 H 0.1493 0.9504 0.8753
N2_4 N 0.3578(3) 0.89041(18) 0.99903(10)
N4_2 N 0.4832(3) 0.6304(2) 0.84299(11)
C9_4 C 0.3869(4) 0.7013(3) 0.81455(14)
H4_4 H 0.3636 0.6950 0.7728
C12_4 C 0.3209(4) 0.7829(2) 0.84374(13)
H7_4 H 0.2550 0.8304 0.8220
C15_4 C 0.5099(5) 0.6385(3) 0.90318(15)
H9_4 H 0.5737 0.5887 0.9241
C17_4 C 0.2975(3) 0.8851(2) 0.94114(12)
C22_4 C 0.4476(5) 0.7169(3) 0.93535(15)
H14_4 H 0.4684 0.7187 0.9773
N1_4 N 0.8513(5) 0.7066(3) 0.8270(2)
O1_2 O 0.7150(3) 0.3863(2) 0.79028(10)
O2_2 O 0.6926(3) 0.4433(2) 0.88078(10)
O3_4 O 0.7929(4) 0.6378(3) 0.79070(16)
C7_2 C 0.8484(3) 0.2889(2) 0.87311(14)
C8_2 C 0.9723(4) 0.1960(2) 0.95938(14)
C10_2 C 0.9284(4) 0.2274(3) 0.83484(14)
H5_2 H 0.9154 0.2389 0.7932
C11_2 C 0.8714(4) 0.2738(2) 0.93455(14)
H6_2 H 0.8197 0.3156 0.9598
C14_2 C 0.7465(4) 0.3763(3) 0.84673(15)
O4_4 O 0.8215(5) 0.7107(3) 0.8801(2)
O5_4 O 0.9522(5) 0.7659(4) 0.8134(2)
O1_3 O 0.7150(3) 0.1137(2) 0.29028(10)
O2_3 O 0.6926(3) 0.0567(2) 0.38078(10)
C7_3 C 0.8484(3) 0.2111(2) 0.37311(14)
C8_3 C 0.9723(4) 0.3040(2) 0.45938(14)
H3_2 H 0.9885 0.3128 0.5012
C10_3 C 0.9284(4) 0.2726(3) 0.33484(14)
H5_3 H 0.9154 0.2611 0.2932
C11_3 C 0.8714(4) 0.2262(2) 0.43455(14)
H6_3 H 0.8197 0.1844 0.4598
C14_3 C 0.7465(4) 0.1237(3) 0.34673(15)
C6_4 C 0.4119(4) 0.0430(3) 0.19793(15)
H2_4 H 0.3879 0.0962 0.2247
C13_4 C 0.3480(4) 0.0489(3) 0.13922(14)
H8_4 H 0.2819 0.1046 0.1270
C18_4 C 0.2211(3) 0.0538(2) 0.00896(13)
H10_4 H 0.1996 0.1118 0.0331
C1_4 C 0.1554(3) 0.0478(2) 0.94923(13)
C16_4 C 0.0490(3) 0.1315(2) 0.92240(13)
C19_4 C 0.0268(4) 0.1491(3) 0.86008(14)
H11_4 H 0.0791 0.1075 0.8349
H3_3 H 0.9885 0.1872 0.0012
O1_4 O 0.2850(3) 0.8863(2) 0.70972(10)
O2_4 O 0.3074(3) 0.9433(2) 0.61922(10)
C7_4 C 0.1516(3) 0.7889(2) 0.62689(14)
C8_4 C 0.0277(4) 0.6960(2) 0.54062(14)
H3_4 H 0.0115 0.6872 0.4988
C10_4 C 0.0716(4) 0.7274(3) 0.66516(14)
H5_4 H 0.0846 0.7389 0.7068
C11_4 C 0.1286(4) 0.7738(2) 0.56545(14)
H6_4 H 0.1803 0.8156 0.5402
C14_4 C 0.2535(4) 0.8763(3) 0.65327(15)
loop_
_geom_bond_atom_site_label_1
_geom_bond_atom_site_label_2
_geom_bond_site_symmetry_1
_geom_bond_site_symmetry_2
N1 O3 1_555 1_555
Cu1 O1 1_555 1_555
O1 C14 1_555 1_555
O2 Cu1 1_555 1_555
O3 Cu1 1_555 1_555
C7 C10 1_555 1_555
C10 H5 1_555 1_555
C11 C7 1_555 1_555
H6 C11 1_555 1_555
C14 O2 1_555 1_555
O4 N1 1_555 1_555
O5 N1 1_555 1_555
N5 Cu1 1_555 1_555
N6 Cu1 1_555 1_555
C7 C14 1_555 1_555
C8 C11 1_555 1_555
C2 C12 1_555 1_555
C3 H1 1_555 1_555
N6 C9 1_555 1_555
C9 H4 1_555 1_555
C12 C9 1_555 1_555
H7 C12 1_555 1_555
C15 N6 1_555 1_555
H9 C15 1_555 1_555
C17 C2 1_555 1_555
C22 C2 1_555 1_555
H14 C22 1_555 1_555
C3 C17 1_555 1_555
N2 C17 1_555 1_555
C15 C22 1_555 1_555
C4 C5 1_555 1_555
C20 C5 1_555 1_555
H12 C20 1_555 1_555
C21 N3 1_555 1_555
H13 C21 1_555 1_555
Cu3 N3 1_555 1_555
C20 C21 1_555 1_555
N1_2 O3_2 1_555 1_555
O3_2 Cu3 1_555 1_555
O4_2 N1_2 1_555 1_555
O5_2 N1_2 1_555 1_555
N6_2 Cu3 1_555 1_555
C1 C3_2 1_555 1_555
C2_2 C12_2 1_555 1_555
C3_2 H1_2 1_555 1_555
N2_2 C4_2 1_555 1_555
N5 C6 1_555 1_555
C4_2 C5_2 1_555 1_555
C5_2 C13 1_555 1_555
C6 H2 1_555 1_555
N6_2 C9_2 1_555 1_555
C9_2 H4_2 1_555 1_555
C12_2 C9_2 1_555 1_555
H7_2 C12_2 1_555 1_555
C13 C6 1_555 1_555
H8 C13 1_555 1_555
C15_2 N6_2 1_555 1_555
H9_2 C15_2 1_555 1_555
C16 C1 1_555 1_555
C17_2 C2_2 1_555 1_555
C18 C1 1_555 1_555
H10 C18 1_555 1_555
H11 C19 1_555 1_555
C20_2 C5_2 1_555 1_555
H12_2 C20_2 1_555 1_555
C21_2 N5 1_555 1_555
H13_2 C21_2 1_555 1_555
C22_2 C2_2 1_555 1_555
H14_2 C22_2 1_555 1_555
C3_2 C17_2 1_555 1_555
N2_2 C17_2 1_555 1_555
C4_2 C18 1_555 1_555
C15_2 C22_2 1_555 1_555
C16 C19 1_555 1_555
C20_2 C21_2 1_555 1_555
C16_2 C1_2 1_555 1_555
H11_2 C19_2 1_555 1_555
C16_2 C19_2 1_555 1_555
C6_2 H2_2 1_555 1_555
C13_2 C6_2 1_555 1_555
H8_2 C13_2 1_555 1_555
H10_2 C18_2 1_555 1_555
C1_3 C3_3 1_555 1_555
C2_3 C12_3 1_555 1_555
C3_3 H1_3 1_555 1_555
N2_3 C4_3 1_555 1_555
N3_2 C6_3 1_555 1_555
C4_3 C5_3 1_555 1_555
C5_3 C13_3 1_555 1_555
C6_3 H2_3 1_555 1_555
N4 C9_3 1_555 1_555
C9_3 H4_3 1_555 1_555
C12_3 C9_3 1_555 1_555
H7_3 C12_3 1_555 1_555
C13_3 C6_3 1_555 1_555
H8_3 C13_3 1_555 1_555
C15_3 N4 1_555 1_555
H9_3 C15_3 1_555 1_555
C16_3 C1_3 1_555 1_555
C17_3 C2_3 1_555 1_555
C18_3 C1_3 1_555 1_555
H10_3 C18_3 1_555 1_555
H11_3 C19_3 1_555 1_555
C20_3 C5_3 1_555 1_555
H12_3 C20_3 1_555 1_555
C21_3 N3_2 1_555 1_555
H13_3 C21_3 1_555 1_555
C22_3 C2_3 1_555 1_555
H14_3 C22_3 1_555 1_555
Cu2 N4 1_555 1_555
Cu3_2 N3_2 1_555 1_555
C3_3 C17_3 1_555 1_555
N2_3 C17_3 1_555 1_555
C4_3 C18_3 1_555 1_555
C15_3 C22_3 1_555 1_555
C16_3 C19_3 1_555 1_555
C20_3 C21_3 1_555 1_555
N1_3 O3_3 1_555 1_555
O3_3 Cu2 1_555 1_555
O4_3 N1_3 1_555 1_555
O5_3 N1_3 1_555 1_555
N5_2 Cu2 1_555 1_555
C4_4 C5_4 1_555 1_555
C20_4 C5_4 1_555 1_555
H12_4 C20_4 1_555 1_555
C21_4 N5_2 1_555 1_555
H13_4 C21_4 1_555 1_555
C20_4 C21_4 1_555 1_555
C2_4 C12_4 1_555 1_555
C3_4 H1_4 1_555 1_555
N4_2 C9_4 1_555 1_555
C9_4 H4_4 1_555 1_555
C12_4 C9_4 1_555 1_555
H7_4 C12_4 1_555 1_555
C15_4 N4_2 1_555 1_555
H9_4 C15_4 1_555 1_555
C17_4 C2_4 1_555 1_555
C22_4 C2_4 1_555 1_555
H14_4 C22_4 1_555 1_555
Cu3_2 N4_2 1_555 1_555
C3_4 C17_4 1_555 1_555
N2_4 C17_4 1_555 1_555
C15_4 C22_4 1_555 1_555
N1_4 O3_4 1_555 1_555
Cu3_2 O1_2 1_555 1_555
O1_2 C14_2 1_555 1_555
O2_2 Cu3_2 1_555 1_555
O3_4 Cu3_2 1_555 1_555
C7_2 C10_2 1_555 1_555
C10_2 H5_2 1_555 1_555
C11_2 C7_2 1_555 1_555
H6_2 C11_2 1_555 1_555
C14_2 O2_2 1_555 1_555
O4_4 N1_4 1_555 1_555
O5_4 N1_4 1_555 1_555
C7_2 C14_2 1_555 1_555
C8_2 C11_2 1_555 1_555
O1_3 C14_3 1_555 1_555
C7_3 C10_3 1_555 1_555
C8_3 H3_2 1_555 1_555
C10_3 H5_3 1_555 1_555
C11_3 C7_3 1_555 1_555
H6_3 C11_3 1_555 1_555
C14_3 O2_3 1_555 1_555
C7_3 C14_3 1_555 1_555
C8_3 C11_3 1_555 1_555
C6_4 H2_4 1_555 1_555
C13_4 C6_4 1_555 1_555
H8_4 C13_4 1_555 1_555
H10_4 C18_4 1_555 1_555
C16_4 C1_4 1_555 1_555
H11_4 C19_4 1_555 1_555
C16_4 C19_4 1_555 1_555
O1_4 C14_4 1_555 1_555
C7_4 C10_4 1_555 1_555
C8_4 H3_4 1_555 1_555
C10_4 H5_4 1_555 1_555
C11_4 C7_4 1_555 1_555
H6_4 C11_4 1_555 1_555
C14_4 O2_4 1_555 1_555
C7_4 C14_4 1_555 1_555
C8_4 C11_4 1_555 1_555

#END
