
###############################################################################
#
# This file contains modified crystal structure data generated from the
# MOF subset of the Cambridge Structural Database (CSD) v543 
# hosted by the Cambridge Crystallographic Data Centre (CCDC).
#
# This work is licensed under the Creative Commons
# Attribution-NonCommercial-ShareAlike 4.0 International License.
# To view a copy of this license, visit
# http://creativecommons.org/licenses/by-nc-sa/4.0/
# or send a letter to
# Creative Commons, PO Box 1866, Mountain View, CA 94042, USA.
#
# CIF created using the CSD Python API on 29 September 2022
# The structure has been converted into the P1 space group
# The structure has a 3D framework
# The original CSD entry DIDVIW is in the rhombohedral crystal system
# The framework has been calculated to contain at least 10.0% void space
# The void calculation uses a probe of radius 1.32A, grid spacing 0.4
#
###############################################################################

data_DIDVIW
_chemical_formula_moiety         '(C22 H22 Mn9 O32)n'
_symmetry_cell_setting           triclinic
_symmetry_space_group_name_H-M   'P 1'
_symmetry_Int_Tables_number      1
_space_group_name_Hall           'P 1'
loop_
_symmetry_equiv_pos_site_id
_symmetry_equiv_pos_as_xyz
1 x,y,z
_cell_length_a                   8.327(1)
_cell_length_b                   8.327(1)
_cell_length_c                   22.890(6)
_cell_angle_alpha                90
_cell_angle_beta                 90
_cell_angle_gamma                120
_cell_volume                     1374.53
loop_
_atom_site_label
_atom_site_type_symbol
_atom_site_fract_x
_atom_site_fract_y
_atom_site_fract_z
Mn1 Mn 0.0000 0.0000 0.0000
Mn3 Mn 0.3333 0.6667 0.1667
O3 O 0.2211(3) 0.2109(4) 0.05448(7)
O4 O 0.3435(2) 0.4558(4) 0.11219(7)
C2 C 0.2149(5) 0.3334(7) 0.0833
H2 H 0.1032 0.3334 0.0833
Mn1_2 Mn -0.0000 0.0000 1.0000
O7 O 0.0102(2) 0.2211(3) 0.94552(7)
Mn1_3 Mn -0.0000 1.0000 0.0000
C1 C 0.1185(5) 0.7851(5) 0.0833
H1 H 0.2302 0.8968 0.0833
O2 O 0.1122(3) 0.6565(2) 0.11219(7)
Mn1_4 Mn 0.0000 1.0000 1.0000
O9 O 0.2109(4) 0.9898(2) 0.94552(7)
Mn1_5 Mn 1.0000 0.0000 0.0000
O5 O 0.7891(4) 0.0102(2) 0.05448(7)
Mn1_6 Mn 1.0000 0.0000 1.0000
Mn1_7 Mn 1.0000 1.0000 0.0000
O1 O 0.9898(2) 0.7789(3) 0.05448(7)
O6 O 0.5442(4) 0.8878(3) 0.11219(7)
C3 C 0.6666(7) 0.8815(5) 0.0833
H3 H 0.6666 0.7698 0.0833
Mn1_8 Mn 1.0000 1.0000 1.0000
O8 O 0.7789(3) 0.7891(4) 0.94552(7)
Mn1_9 Mn -0.0000 0.0000 0.5000
Mn3_2 Mn 0.6667 0.3333 0.3333
O3_2 O 0.2109(4) 0.2211(3) 0.44552(7)
O4_2 O 0.4558(4) 0.3435(2) 0.38781(7)
O7_2 O 0.2211(3) 0.0102(2) 0.55448(7)
C2_2 C 0.3334(7) 0.2149(5) 0.4167
H2_2 H 0.3334 0.1032 0.4167
Mn1_10 Mn -0.0000 1.0000 0.5000
O5_2 O 0.0102(2) 0.7891(4) 0.44552(7)
Mn1_11 Mn 1.0000 0.0000 0.5000
C1_2 C 0.7851(5) 0.1185(5) 0.4167
H1_2 H 0.8968 0.2302 0.4167
O2_2 O 0.6565(2) 0.1122(3) 0.38781(7)
O9_2 O 0.9898(2) 0.2109(4) 0.55448(7)
Mn1_12 Mn 1.0000 1.0000 0.5000
O1_2 O 0.7789(3) 0.9898(2) 0.44552(7)
O6_2 O 0.8878(3) 0.5442(4) 0.38781(7)
O8_2 O 0.7891(4) 0.7789(3) 0.55448(7)
C3_2 C 0.8815(5) 0.6666(7) 0.4167
H3_2 H 0.7698 0.6666 0.4167
Mn3_3 Mn 0.6667 0.3333 0.8333
O4_3 O 0.6769(2) 0.1224(4) 0.77885(7)
C2_3 C 0.5482(5) 0.0001(7) 0.7500
H2_3 H 0.4365 0.0001 0.7500
Mn1_13 Mn 0.3333 0.6667 0.6667
O1_3 O 0.3231(2) 0.4456(3) 0.72115(7)
C1_3 C 0.4518(5) 0.4518(5) 0.7500
H1_3 H 0.5635 0.5635 0.7500
O2_3 O 0.4456(3) 0.3231(2) 0.77885(7)
O3_3 O 0.5544(3) 0.8776(4) 0.72115(7)
O5_3 O 0.1224(4) 0.6769(2) 0.72115(7)
O7_3 O 0.3435(2) 0.8878(3) 0.61219(7)
O8_3 O 0.1122(3) 0.4558(4) 0.61219(7)
O9_3 O 0.5442(4) 0.6565(2) 0.61219(7)
C2_4 C 0.5482(5) 1.0001(7) 0.7500
C3_3 C -0.0001(7) 0.5482(5) 0.7500
H2_4 H 0.4365 1.0001 0.7500
H3_3 H -0.0001 0.4365 0.7500
O6_3 O 0.8776(4) 0.5544(3) 0.77885(7)
C3_4 C 0.9999(7) 0.5482(5) 0.7500
H3_4 H 0.9999 0.4365 0.7500
O7_4 O 0.5544(3) 0.6769(2) 0.22115(7)
O8_4 O 0.1224(4) 0.4456(3) 0.22115(7)
O9_4 O 0.3231(2) 0.8776(4) 0.22115(7)
O7_5 O 0.6769(2) 0.5544(3) 0.27885(7)
O8_5 O 0.4456(3) 0.1224(4) 0.27885(7)
O9_5 O 0.8776(4) 0.3231(2) 0.27885(7)
O7_6 O 0.8878(3) 0.3435(2) 0.88781(7)
O8_6 O 0.4558(4) 0.1122(3) 0.88781(7)
O9_6 O 0.6565(2) 0.5442(4) 0.88781(7)
C3_5 C 0.3334(7) 0.1185(5) 0.9167
H3_5 H 0.3334 0.2302 0.9167
C1_4 C 0.8815(5) 0.2149(5) 0.9167
H1_4 H 0.7698 0.1032 0.9167
C2_5 C 0.7851(5) 0.6666(7) 0.9167
H2_5 H 0.8968 0.6666 0.9167
C3_6 C 0.1185(5) 0.3334(7) 0.5833
H3_6 H 0.2302 0.3334 0.5833
C1_5 C 0.2149(5) 0.8815(5) 0.5833
H1_5 H 0.1032 0.7698 0.5833
C2_6 C 0.6666(7) 0.7851(5) 0.5833
H2_6 H 0.6666 0.8968 0.5833
C3_7 C 0.0001(7) 0.4518(5) 0.2500
H3_7 H 0.0001 0.5635 0.2500
C1_6 C 0.5482(5) 0.5482(5) 0.2500
H1_6 H 0.4365 0.4365 0.2500
C2_7 C 0.4518(5) -0.0001(7) 0.2500
C3_8 C 1.0001(7) 0.4518(5) 0.2500
H2_7 H 0.5635 -0.0001 0.2500
H3_8 H 1.0001 0.5635 0.2500
C2_8 C 0.4518(5) 0.9999(7) 0.2500
H2_8 H 0.5635 0.9999 0.2500
loop_
_geom_bond_atom_site_label_1
_geom_bond_atom_site_label_2
_geom_bond_site_symmetry_1
_geom_bond_site_symmetry_2
Mn3 O4 1_555 1_555
O3 Mn1 1_555 1_555
O4 C2 1_555 1_555
C2 O3 1_555 1_555
H2 C2 1_555 1_555
O7 Mn1_2 1_555 1_555
C1 H1 1_555 1_555
Mn3 O2 1_555 1_555
O2 C1 1_555 1_555
O9 Mn1_4 1_555 1_555
O5 Mn1_5 1_555 1_555
Mn1_7 O1 1_555 1_555
Mn3 O6 1_555 1_555
O6 C3 1_555 1_555
H3 C3 1_555 1_555
O8 Mn1_8 1_555 1_555
Mn3_2 O4_2 1_555 1_555
O3_2 Mn1_9 1_555 1_555
O4_2 C2_2 1_555 1_555
O7_2 Mn1_9 1_555 1_555
C2_2 O3_2 1_555 1_555
H2_2 C2_2 1_555 1_555
O5_2 Mn1_10 1_555 1_555
C1_2 H1_2 1_555 1_555
Mn3_2 O2_2 1_555 1_555
O2_2 C1_2 1_555 1_555
O9_2 Mn1_11 1_555 1_555
Mn1_12 O1_2 1_555 1_555
Mn3_2 O6_2 1_555 1_555
O6_2 C3_2 1_555 1_555
O8_2 Mn1_12 1_555 1_555
H3_2 C3_2 1_555 1_555
Mn3_3 O4_3 1_555 1_555
O4_3 C2_3 1_555 1_555
H2_3 C2_3 1_555 1_555
Mn1_13 O1_3 1_555 1_555
O1_3 C1_3 1_555 1_555
C1_3 H1_3 1_555 1_555
Mn3_3 O2_3 1_555 1_555
O2_3 C1_3 1_555 1_555
O3_3 Mn1_13 1_555 1_555
O5_3 Mn1_13 1_555 1_555
O7_3 Mn1_13 1_555 1_555
O8_3 Mn1_13 1_555 1_555
O9_3 Mn1_13 1_555 1_555
C2_4 O3_3 1_555 1_555
C3_3 O5_3 1_555 1_555
H2_4 C2_4 1_555 1_555
H3_3 C3_3 1_555 1_555
Mn3_3 O6_3 1_555 1_555
O6_3 C3_4 1_555 1_555
H3_4 C3_4 1_555 1_555
O7_4 Mn3 1_555 1_555
O8_4 Mn3 1_555 1_555
O9_4 Mn3 1_555 1_555
O7_5 Mn3_2 1_555 1_555
O8_5 Mn3_2 1_555 1_555
O9_5 Mn3_2 1_555 1_555
O7_6 Mn3_3 1_555 1_555
O8_6 Mn3_3 1_555 1_555
O9_6 Mn3_3 1_555 1_555
O8_6 C3_5 1_555 1_555
H3_5 C3_5 1_555 1_555
C1_4 H1_4 1_555 1_555
O7_6 C1_4 1_555 1_555
O9_6 C2_5 1_555 1_555
C2_5 O8 1_555 1_555
H2_5 C2_5 1_555 1_555
O8_3 C3_6 1_555 1_555
H3_6 C3_6 1_555 1_555
C1_5 H1_5 1_555 1_555
O7_3 C1_5 1_555 1_555
O9_3 C2_6 1_555 1_555
C2_6 O8_2 1_555 1_555
H2_6 C2_6 1_555 1_555
O8_4 C3_7 1_555 1_555
H3_7 C3_7 1_555 1_555
O7_5 C1_6 1_555 1_555
C1_6 H1_6 1_555 1_555
O7_4 C1_6 1_555 1_555
C2_7 O8_5 1_555 1_555
C3_8 O9_5 1_555 1_555
H2_7 C2_7 1_555 1_555
H3_8 C3_8 1_555 1_555
O9_4 C2_8 1_555 1_555
H2_8 C2_8 1_555 1_555

#END
