
###############################################################################
#
# This file contains modified crystal structure data generated from the
# MOF subset of the Cambridge Structural Database (CSD) v543 
# hosted by the Cambridge Crystallographic Data Centre (CCDC).
#
# This work is licensed under the Creative Commons
# Attribution-NonCommercial-ShareAlike 4.0 International License.
# To view a copy of this license, visit
# http://creativecommons.org/licenses/by-nc-sa/4.0/
# or send a letter to
# Creative Commons, PO Box 1866, Mountain View, CA 94042, USA.
#
# CIF created using the CSD Python API on 29 September 2022
# The structure has been converted into the P1 space group
# The structure has a 3D framework
# The original CSD entry DIGPER is in the tetragonal crystal system
# The original CSD entry DIGPER is in a Sohncke space group
# The framework has been calculated to contain at least 10.0% void space
# The void calculation uses a probe of radius 1.32A, grid spacing 0.4
# H atom positions have been added when not included in the experimental data
# Generated hydrogen atom positions removed from atoms on special positions
#
###############################################################################

data_DIGPER
_chemical_formula_moiety         '(C39 H29 Gd4 O28)n'
_symmetry_cell_setting           triclinic
_symmetry_space_group_name_H-M   'P 1'
_symmetry_Int_Tables_number      1
_space_group_name_Hall           'P 1'
loop_
_symmetry_equiv_pos_site_id
_symmetry_equiv_pos_as_xyz
1 x,y,z
_cell_length_a                   10.35480(10)
_cell_length_b                   10.35480(10)
_cell_length_c                   14.4872(3)
_cell_angle_alpha                90
_cell_angle_beta                 90
_cell_angle_gamma                90
_cell_volume                     1553.34
loop_
_atom_site_label
_atom_site_type_symbol
_atom_site_fract_x
_atom_site_fract_y
_atom_site_fract_z
Gd1 Gd 0.64554(2) 0.64554(2) 0.1250
O1 O 0.8129(3) 0.8129(3) 0.1250
O2 O 0.6068(3) 0.4272(3) 0.1541(2)
O3 O 0.5905(3) 0.2534(3) 0.23663(17)
C2 C 0.5000 0.0356(4) 0.0000
C3 C 0.5827(4) 0.3114(3) 0.1609(2)
C4 C 0.5417(4) 0.1026(3) 0.0776(2)
H1 H 0.5699 0.0577 0.1295
C5 C 0.5411(3) 0.2370(3) 0.0775(2)
C6 C 0.5000 0.3030(5) 0.0000
H2 H 0.5000 0.3928 0.0000
Gd6 Gd 0.64554(2) 0.35446(2) 0.3750
O8 O 0.4272(3) 0.6068(3) 0.0959(2)
O10 O 0.5905(3) 0.7466(3) 0.26337(17)
O11 O 0.8351(2) 0.5686(3) 0.19111(18)
O12 O 0.5686(3) 0.8351(2) 0.05889(18)
C2_2 C 0.5000 0.0356(4) 1.0000
C6_2 C 0.5000 0.3030(5) 1.0000
H2_2 H 0.5000 0.3928 1.0000
O5 O 0.3932(3) 0.4272(3) 0.8459(2)
C7 C 0.4173(4) 0.3114(3) 0.8391(2)
C8 C 0.4589(3) 0.2370(3) 0.9225(2)
C9 C 0.4583(4) 0.1026(3) 0.9224(2)
H3 H 0.4301 0.0577 0.8705
O6 O 0.4095(3) 0.2534(3) 0.76337(17)
Gd4 Gd 0.35446(2) 0.64554(2) 0.8750
Gd5 Gd 0.35446(2) 0.35446(2) 0.6250
O9 O 0.7466(3) 0.5905(3) 0.98663(17)
C1 C 0.5000 0.8894(4) 0.0000
O4 O 0.4314(3) 0.8351(2) 0.94111(18)
C1_2 C 0.5000 0.8894(4) 1.0000
O4_2 O 0.1649(2) 0.4314(3) 0.69111(18)
C1_3 C 0.1106(4) 0.5000 0.7500
O7 O 0.1649(2) 0.5686(3) 0.80889(18)
O10_2 O 0.2534(3) 0.5905(3) 0.01337(17)
O1_2 O 0.1871(3) 0.8129(3) 0.8750
O2_2 O 0.5728(3) 0.6068(3) 0.9041(2)
C2_3 C 0.9644(4) 0.5000 0.7500
C3_2 C 0.6886(3) 0.5827(4) 0.9109(2)
C4_2 C 0.8974(3) 0.5417(4) 0.8276(2)
H1_2 H 0.9423 0.5699 0.8795
C5_2 C 0.7630(3) 0.5411(3) 0.8275(2)
C6_3 C 0.6970(5) 0.5000 0.7500
H2_3 H 0.6072 0.5000 0.7500
O5_2 O 0.5728(3) 0.3932(3) 0.5959(2)
C7_2 C 0.6886(3) 0.4173(4) 0.5891(2)
C8_2 C 0.7630(3) 0.4589(3) 0.6725(2)
C9_2 C 0.8974(3) 0.4583(4) 0.6724(2)
H3_2 H 0.9423 0.4301 0.6205
O6_2 O 0.7466(3) 0.4095(3) 0.51337(17)
O9_2 O 0.4095(3) 0.7466(3) 0.73663(17)
O4_3 O 0.5686(3) 0.1649(2) 0.44111(18)
C1_4 C 0.5000 0.1106(4) 0.5000
O7_2 O 0.4314(3) 0.1649(2) 0.55889(18)
O1_3 O 0.1871(3) 0.1871(3) 0.6250
O2_3 O 0.3932(3) 0.5728(3) 0.6541(2)
C2_4 C 0.5000 0.9644(4) 0.5000
C3_3 C 0.4173(4) 0.6886(3) 0.6609(2)
C4_3 C 0.4583(4) 0.8974(3) 0.5776(2)
H1_3 H 0.4301 0.9423 0.6295
C5_3 C 0.4589(3) 0.7630(3) 0.5775(2)
C6_4 C 0.5000 0.6970(5) 0.5000
H2_4 H 0.5000 0.6072 0.5000
O5_3 O 0.6068(3) 0.5728(3) 0.3459(2)
C7_3 C 0.5827(4) 0.6886(3) 0.3391(2)
C8_3 C 0.5411(3) 0.7630(3) 0.4225(2)
C9_3 C 0.5417(4) 0.8974(3) 0.4224(2)
H3_3 H 0.5699 0.9423 0.3705
O9_3 O 0.2534(3) 0.4095(3) 0.48663(17)
O1_4 O 0.8129(3) 0.1871(3) 0.3750
O2_4 O 0.4272(3) 0.3932(3) 0.4041(2)
C2_5 C 0.0356(4) 0.5000 0.2500
C3_4 C 0.3114(3) 0.4173(4) 0.4109(2)
C4_4 C 0.1026(3) 0.4583(4) 0.3276(2)
H1_4 H 0.0577 0.4301 0.3795
C5_4 C 0.2370(3) 0.4589(3) 0.3275(2)
C6_5 C 0.3030(5) 0.5000 0.2500
H2_5 H 0.3928 0.5000 0.2500
C7_4 C 0.3114(3) 0.5827(4) 0.0891(2)
C8_4 C 0.2370(3) 0.5411(3) 0.1725(2)
C9_4 C 0.1026(3) 0.5417(4) 0.1724(2)
H3_4 H 0.0577 0.5699 0.1205
O12_2 O 0.8351(2) 0.4314(3) 0.30889(18)
C1_5 C 0.8894(4) 0.5000 0.2500
loop_
_geom_bond_atom_site_label_1
_geom_bond_atom_site_label_2
_geom_bond_site_symmetry_1
_geom_bond_site_symmetry_2
Gd1 O1 1_555 1_555
O2 Gd1 1_555 1_555
O3 C3 1_555 1_555
C2 C4 1_555 1_555
C3 O2 1_555 1_555
C4 H1 1_555 1_555
C5 C3 1_555 1_555
C6 C5 1_555 1_555
H2 C6 1_555 1_555
Gd6 O3 1_555 1_555
O8 Gd1 1_555 1_555
O10 Gd1 1_555 1_555
O11 Gd1 1_555 1_555
O12 Gd1 1_555 1_555
C4 C5 1_555 1_555
H2_2 C6_2 1_555 1_555
O5 C7 1_555 1_555
C7 C8 1_555 1_555
C8 C6_2 1_555 1_555
C9 C2_2 1_555 1_555
H3 C9 1_555 1_555
O6 C7 1_555 1_555
Gd4 O5 1_555 1_555
Gd5 O6 1_555 1_555
C8 C9 1_555 1_555
O12 C1 1_555 1_555
O4 C1_2 1_555 1_555
Gd4 O4 1_555 1_555
O4_2 C1_3 1_555 1_555
O7 C1_3 1_555 1_555
Gd4 O7 1_555 1_555
Gd5 O4_2 1_555 1_555
Gd4 O1_2 1_555 1_555
O2_2 Gd4 1_555 1_555
O9 C3_2 1_555 1_555
C2_3 C4_2 1_555 1_555
C3_2 O2_2 1_555 1_555
C4_2 H1_2 1_555 1_555
C5_2 C3_2 1_555 1_555
C6_3 C5_2 1_555 1_555
H2_3 C6_3 1_555 1_555
O5_2 C7_2 1_555 1_555
C7_2 C8_2 1_555 1_555
C8_2 C6_3 1_555 1_555
C9_2 C2_3 1_555 1_555
H3_2 C9_2 1_555 1_555
O6_2 C7_2 1_555 1_555
Gd5 O5_2 1_555 1_555
Gd6 O6_2 1_555 1_555
O9_2 Gd4 1_555 1_555
C4_2 C5_2 1_555 1_555
C8_2 C9_2 1_555 1_555
O4_3 C1_4 1_555 1_555
O7_2 C1_4 1_555 1_555
Gd5 O7_2 1_555 1_555
Gd6 O4_3 1_555 1_555
Gd5 O1_3 1_555 1_555
O2_3 Gd5 1_555 1_555
O9_2 C3_3 1_555 1_555
C2_4 C4_3 1_555 1_555
C3_3 O2_3 1_555 1_555
C4_3 H1_3 1_555 1_555
C5_3 C3_3 1_555 1_555
C6_4 C5_3 1_555 1_555
H2_4 C6_4 1_555 1_555
O5_3 C7_3 1_555 1_555
C7_3 C8_3 1_555 1_555
C8_3 C6_4 1_555 1_555
C9_3 C2_4 1_555 1_555
H3_3 C9_3 1_555 1_555
O10 C7_3 1_555 1_555
Gd6 O5_3 1_555 1_555
O9_3 Gd5 1_555 1_555
C4_3 C5_3 1_555 1_555
C8_3 C9_3 1_555 1_555
Gd6 O1_4 1_555 1_555
O2_4 Gd6 1_555 1_555
O9_3 C3_4 1_555 1_555
C2_5 C4_4 1_555 1_555
C3_4 O2_4 1_555 1_555
C4_4 H1_4 1_555 1_555
C5_4 C3_4 1_555 1_555
C6_5 C5_4 1_555 1_555
H2_5 C6_5 1_555 1_555
O8 C7_4 1_555 1_555
C7_4 C8_4 1_555 1_555
C8_4 C6_5 1_555 1_555
C9_4 C2_5 1_555 1_555
H3_4 C9_4 1_555 1_555
O10_2 C7_4 1_555 1_555
O12_2 Gd6 1_555 1_555
C4_4 C5_4 1_555 1_555
C8_4 C9_4 1_555 1_555
O11 C1_5 1_555 1_555
O12_2 C1_5 1_555 1_555

#END
