
###############################################################################
#
# This file contains modified crystal structure data generated from the
# MOF subset of the Cambridge Structural Database (CSD) v543 
# hosted by the Cambridge Crystallographic Data Centre (CCDC).
#
# This work is licensed under the Creative Commons
# Attribution-NonCommercial-ShareAlike 4.0 International License.
# To view a copy of this license, visit
# http://creativecommons.org/licenses/by-nc-sa/4.0/
# or send a letter to
# Creative Commons, PO Box 1866, Mountain View, CA 94042, USA.
#
# CIF created using the CSD Python API on 29 September 2022
# The structure has been converted into the P1 space group
# The structure has a 3D framework
# The original CSD entry DIMDAG is in the triclinic crystal system
# The framework has been calculated to contain at least 10.0% void space
# The void calculation uses a probe of radius 1.32A, grid spacing 0.4
#
###############################################################################

data_DIMDAG
_chemical_formula_moiety         '(C120 H102 Cd12 N12 O48)n'
_symmetry_cell_setting           triclinic
_symmetry_space_group_name_H-M   'P 1'
_symmetry_Int_Tables_number      1
_space_group_name_Hall           'P 1'
loop_
_symmetry_equiv_pos_site_id
_symmetry_equiv_pos_as_xyz
1 x,y,z
_cell_length_a                   15.3042(7)
_cell_length_b                   15.5719(7)
_cell_length_c                   16.3522(8)
_cell_angle_alpha                104.7230(10)
_cell_angle_beta                 105.1510(10)
_cell_angle_gamma                101.6280(10)
_cell_volume                     3484.91
loop_
_atom_site_label
_atom_site_type_symbol
_atom_site_fract_x
_atom_site_fract_y
_atom_site_fract_z
Cd15 Cd 0.248983(18) 0.033700(18) 0.461091(17)
O10 O 0.17409(19) 0.1417(2) 0.4438(2)
O11 O 0.0734(2) 0.01148(19) 0.3445(2)
O12 O 0.2793(2) 0.86323(19) 0.56097(19)
O13 O 0.1720(2) 0.89337(18) 0.45857(19)
N2 N 0.0250(2) 0.3923(2) 0.3959(3)
H9 H 0.0820 0.4155 0.4358
C20 C 0.0528(3) 0.2453(3) 0.3900(3)
H11 H 0.1165 0.2781 0.4260
C21 C 0.0246(3) 0.1493(3) 0.3613(3)
C23 C 0.0440(3) 0.5535(3) 0.4073(3)
C25 C 0.0512(3) 0.7131(3) 0.4233(3)
H14 H 0.0198 0.7581 0.4133
C26 C 0.1474(3) 0.7404(3) 0.4647(3)
C27 C 0.1924(3) 0.6739(3) 0.4778(3)
H15 H 0.2588 0.6917 0.5067
C28 C 0.1411(3) 0.5814(3) 0.4490(3)
H16 H 0.1730 0.5365 0.4580
C31 C 0.0952(3) 0.0975(3) 0.3837(3)
C32 C 0.2039(3) 0.8409(3) 0.4970(3)
Cd23 Cd 0.357619(19) 0.997360(18) 0.662540(18)
Cd27 Cd 0.092421(18) 0.948431(18) 0.207163(18)
Cd17 Cd 0.574451(19) 0.039998(19) 0.123884(19)
Cd21 Cd 0.642381(19) 0.002640(18) 0.337460(18)
O8 O 0.7218(2) 0.1322(2) 0.1824(2)
O9 O 0.72858(19) 0.02130(18) 0.24341(19)
O14 O 0.9036(3) 0.4317(2) 0.3187(4)
C17 C 0.8668(3) 0.1497(3) 0.2901(3)
C18 C 0.8951(3) 0.2463(3) 0.3159(3)
H10 H 0.8508 0.2788 0.2991
C19 C 0.9888(3) 0.2943(3) 0.3666(3)
C22 C 0.9310(3) 0.1011(3) 0.3117(2)
H12 H 0.9111 0.0353 0.2927
C24 C 0.9996(3) 0.6212(3) 0.3959(4)
H13 H 0.9329 0.6040 0.3689
C29 C 0.9839(3) 0.4544(3) 0.3708(4)
C30 C 0.7653(3) 0.0973(3) 0.2356(3)
O15 O 0.5672(2) 0.09698(19) 0.27078(19)
N3 N 0.5439(4) 0.2365(3) 0.3162(3)
C33 C 0.4855(5) 0.2953(4) 0.3407(5)
H17 H 0.4285 0.2576 0.3453
H18 H 0.4673 0.3244 0.2948
H19 H 0.5213 0.3435 0.3986
C34 C 0.6349(4) 0.2796(4) 0.3050(4)
H20 H 0.6659 0.2317 0.2885
H21 H 0.6763 0.3271 0.3615
H22 H 0.6220 0.3080 0.2578
C35 C 0.5188(4) 0.1501(4) 0.2968(3)
C36 C 0.4224(4) 0.1045(4) 0.3019(4)
H23 H 0.4110 0.0371 0.2840
H24 H 0.3726 0.1195 0.2615
H25 H 0.4221 0.1277 0.3634
O19 O 0.5085(2) 0.1546(2) 0.1067(2)
O20 O 0.4085(2) 0.0209(2) 0.0132(2)
O21 O 0.5049(2) 0.89637(19) 0.10811(18)
O22 O 0.5272(2) 0.88218(18) 0.24428(18)
N5 N 0.3598(2) 0.4006(2) 0.0476(3)
H35 H 0.4017 0.4286 0.1014
C43 C 0.3263(3) 0.3024(3) 0.0186(3)
C44 C 0.3884(3) 0.2544(3) 0.0484(3)
H37 H 0.4510 0.2874 0.0871
C45 C 0.3593(3) 0.1584(3) 0.0218(3)
C47 C 0.3762(3) 0.5568(3) 0.0431(3)
C49 C 0.4251(3) 0.7067(3) 0.0271(3)
C50 C 0.4512(3) 0.7484(3) 0.1190(3)
C51 C 0.4380(3) 0.6940(3) 0.1725(3)
H41 H 0.4543 0.7221 0.2353
C52 C 0.4011(3) 0.5989(3) 0.1347(3)
H42 H 0.3928 0.5621 0.1718
C55 C 0.4299(3) 0.1085(3) 0.0489(3)
C56 C 0.4981(3) 0.8512(3) 0.1606(3)
Cd5 Cd 0.0000 -0.0000 0.0000
O54 O 0.74977(18) 0.03421(17) 0.67935(17)
O55 O 0.1092(2) 0.12175(19) 0.0984(2)
O63 O 0.7207(2) 0.13677(19) 0.43903(19)
O65 O 0.8280(2) 0.10663(18) 0.54143(19)
O17 O 0.0528(2) 0.1489(2) 0.8498(2)
O18 O 0.06501(19) 0.02805(18) 0.89453(19)
O23 O 0.2750(2) 0.4235(2) 0.9221(2)
C41 C 0.2029(3) 0.1575(3) 0.9435(3)
C42 C 0.2333(3) 0.2534(3) 0.9660(3)
H36 H 0.1904 0.2857 0.9453
C46 C 0.2659(3) 0.1093(3) 0.9703(3)
H38 H 0.2456 0.0437 0.9537
C48 C 0.3878(3) 0.6113(3) 0.9899(3)
H39 H 0.3699 0.5831 0.9269
H40 H 0.4329 0.7435 0.9898
C53 C 0.3319(3) 0.4547(3) 0.9980(3)
C54 C 0.1003(3) 0.1080(3) 0.8931(3)
Cd5_2 Cd 0.0000 0.0000 1.0000
Cd1 Cd 0.751017(18) 0.966300(18) 0.538909(17)
O1 O 0.61128(19) 0.8468(2) 0.49752(19)
O2 O 0.59191(18) 0.96392(17) 0.45000(17)
O3 O 0.15733(19) 0.83111(18) 0.22426(19)
O4 O 0.25023(18) 0.96579(17) 0.32065(17)
O6 O 0.1641(2) 0.09203(18) 0.22661(19)
O7 O 0.3887(2) 0.5660(2) 0.4394(2)
N1 N 0.2949(2) 0.5937(2) 0.3223(2)
H1 H 0.2456 0.5667 0.2733
C1 C 0.4560(3) 0.8341(2) 0.4086(2)
C2 C 0.4243(3) 0.7397(3) 0.3968(3)
H2 H 0.4664 0.7091 0.4226
C3 C 0.3304(3) 0.6910(2) 0.3468(3)
C4 C 0.2686(3) 0.7369(3) 0.3119(2)
H3 H 0.2047 0.7035 0.2777
C5 C 0.2999(3) 0.8311(2) 0.3267(2)
C6 C 0.3942(3) 0.8799(2) 0.3745(2)
H4 H 0.4159 0.9443 0.3836
C7 C 0.2842(3) 0.4361(3) 0.3158(3)
C8 C 0.2850(3) 0.3740(3) 0.3636(3)
H5 H 0.3132 0.3966 0.4269
C9 C 0.2452(3) 0.2797(3) 0.3202(3)
H6 H 0.2461 0.2380 0.3536
C10 C 0.2042(3) 0.2465(3) 0.2282(3)
C11 C 0.2050(3) 0.3074(3) 0.1795(3)
H7 H 0.1780 0.2844 0.1161
C12 C 0.2451(3) 0.4015(3) 0.2230(3)
H8 H 0.2460 0.4428 0.1892
C13 C 0.3277(3) 0.5374(3) 0.3653(3)
C14 C 0.5593(3) 0.8843(3) 0.4548(2)
C15 C 0.2310(3) 0.8784(3) 0.2886(2)
C16 C 0.1553(3) 0.1447(3) 0.1801(3)
O16 O 0.74046(19) 0.91325(18) 0.38411(18)
N4 N 0.7772(3) 0.8015(3) 0.2940(3)
C37 C 0.6776(4) 0.7559(4) 0.2411(4)
H26 H 0.6389 0.7937 0.2622
H27 H 0.6587 0.6948 0.2479
H28 H 0.6685 0.7485 0.1779
C38 C 0.8457(4) 0.7543(4) 0.2713(4)
H29 H 0.9097 0.7913 0.3108
H30 H 0.8413 0.7469 0.2089
H31 H 0.8319 0.6932 0.2790
C39 C 0.8019(3) 0.8773(3) 0.3619(3)
C40 C 0.9046(3) 0.9207(3) 0.4155(3)
H32 H 0.9120 0.9764 0.4642
H33 H 0.9393 0.9378 0.3767
H34 H 0.9297 0.8765 0.4407
Cd5_3 Cd 0.0000 1.0000 0.0000
O57 O 0.82591(19) 0.8583(2) 0.5562(2)
O61 O 0.9266(2) 0.98852(19) 0.6555(2)
O73 O 0.0952(2) 0.9064(2) 0.05134(19)
Cd5_4 Cd 0.0000 1.0000 1.0000
Cd19 Cd 0.425549(19) 0.960002(19) 0.876116(19)
O68 O 0.5915(2) 0.9791(2) 0.9868(2)
C118 C 0.1585(4) 0.8720(4) 0.0315(4)
C120 C 0.2612(4) 0.9128(5) 0.0979(5)
H100 H 0.2636 0.9638 0.1489
H101 H 0.2814 0.8644 0.1193
H102 H 0.3032 0.9362 0.0674
N12 N 0.1415(4) 0.8035(4) 0.9594(3)
C117 C 0.2186(7) 0.7659(6) 0.9414(6)
H94 H 0.2774 0.7986 0.9916
H95 H 0.2024 0.6997 0.9342
H96 H 0.2270 0.7747 0.8863
C119 C 0.0484(5) 0.7693(6) 0.8965(4)
H97 H 0.0073 0.8019 0.9203
H98 H 0.0495 0.7796 0.8400
H99 H 0.0241 0.7028 0.8858
N6 N 0.8585(4) 0.1965(4) 0.0406(3)
C57 C 0.7814(7) 0.2341(6) 0.0586(6)
H43 H 0.7226 0.2014 0.0084
H44 H 0.7976 0.3003 0.0658
H45 H 0.7730 0.2253 0.1137
C59 C 0.9516(5) 0.2307(6) 0.1035(4)
H46 H 0.9927 0.1981 0.0797
H47 H 0.9505 0.2204 0.1600
H48 H 0.9759 0.2972 0.1142
Cd5_5 Cd 1.0000 -0.0000 0.0000
Cd4 Cd 0.907579(18) 0.051569(18) 0.792837(18)
O24 O 0.9048(2) 0.0936(2) 0.94866(19)
C58 C 0.8415(4) 0.1280(4) 0.9685(4)
C60 C 0.7388(4) 0.0872(5) 0.9021(5)
H49 H 0.7364 0.0362 0.8511
H50 H 0.7186 0.1356 0.8807
H51 H 0.6968 0.0638 0.9326
Cd5_6 Cd 1.0000 0.0000 1.0000
O50 O 0.84267(19) 0.16889(18) 0.77574(19)
Cd5_7 Cd 1.0000 1.0000 0.0000
O66 O 0.93499(19) 0.97195(18) 0.10547(19)
Cd5_8 Cd 1.0000 1.0000 1.0000
O25 O 0.38872(19) 0.1532(2) 0.50248(19)
O26 O 0.40809(18) 0.03608(17) 0.55000(17)
O29 O 0.8908(2) 0.87825(19) 0.9016(2)
O30 O 0.8359(2) 0.90797(18) 0.77339(19)
O31 O 0.6113(2) 0.4340(2) 0.5606(2)
N7 N 0.7051(2) 0.4063(2) 0.6777(2)
H52 H 0.7544 0.4333 0.7267
C61 C 0.5440(3) 0.1659(2) 0.5914(2)
C62 C 0.5757(3) 0.2603(3) 0.6032(3)
H53 H 0.5336 0.2909 0.5774
C63 C 0.6696(3) 0.3090(2) 0.6532(3)
C64 C 0.7314(3) 0.2631(3) 0.6881(2)
H54 H 0.7953 0.2965 0.7223
C65 C 0.7001(3) 0.1689(2) 0.6733(2)
C66 C 0.6058(3) 0.1201(2) 0.6255(2)
H55 H 0.5841 0.0557 0.6164
C67 C 0.7158(3) 0.5639(3) 0.6842(3)
C68 C 0.7150(3) 0.6260(3) 0.6364(3)
H56 H 0.6868 0.6034 0.5731
C69 C 0.7548(3) 0.7203(3) 0.6798(3)
H57 H 0.7539 0.7620 0.6464
C70 C 0.7958(3) 0.7535(3) 0.7718(3)
C71 C 0.7950(3) 0.6926(3) 0.8205(3)
H58 H 0.8220 0.7156 0.8839
C72 C 0.7549(3) 0.5985(3) 0.7770(3)
H59 H 0.7540 0.5572 0.8108
C73 C 0.6723(3) 0.4626(3) 0.6347(3)
C74 C 0.4407(3) 0.1157(3) 0.5452(2)
C75 C 0.7690(3) 0.1216(3) 0.7114(2)
C76 C 0.8447(3) 0.8553(3) 0.8199(3)
O40 O 0.25954(19) 0.08675(18) 0.61589(18)
N10 N 0.2228(3) 0.1985(3) 0.7060(3)
C97 C 0.3224(4) 0.2441(4) 0.7589(4)
H77 H 0.3611 0.2063 0.7378
H78 H 0.3413 0.3052 0.7521
H79 H 0.3315 0.2515 0.8221
C98 C 0.1543(4) 0.2457(4) 0.7287(4)
H80 H 0.0903 0.2087 0.6892
H81 H 0.1587 0.2531 0.7911
H82 H 0.1681 0.3068 0.7210
C99 C 0.1981(3) 0.1227(3) 0.6381(3)
C100 C 0.0954(3) 0.0793(3) 0.5845(3)
H83 H 0.0880 0.0236 0.5358
H84 H 0.0607 0.0622 0.6233
H85 H 0.0703 0.1235 0.5593
O70 O 0.4951(2) 0.10363(19) 0.89189(18)
O72 O 0.4728(2) 0.11782(18) 0.75572(18)
O41 O 0.9472(2) 0.8511(2) 0.1502(2)
O47 O 0.7250(2) 0.5765(2) 0.0779(2)
C101 C 0.7971(3) 0.8425(3) 0.0565(3)
C102 C 0.7667(3) 0.7466(3) 0.0340(3)
H87 H 0.8096 0.7143 0.0547
C106 C 0.7341(3) 0.8907(3) 0.0297(3)
H89 H 0.7544 0.9563 0.0463
C108 C 0.6122(3) 0.3887(3) 0.0101(3)
H90 H 0.6301 0.4169 0.0731
H91 H 0.5671 0.2565 0.0102
C113 C 0.6681(3) 0.5453(3) 0.0020(3)
C114 C 0.8997(3) 0.8920(3) 0.1069(3)
O32 O 0.2782(2) 0.8678(2) 0.8176(2)
O33 O 0.27142(19) 0.97870(18) 0.75659(19)
O38 O 0.0964(3) 0.5683(2) 0.6813(4)
C77 C 0.1332(3) 0.8503(3) 0.7099(3)
C78 C 0.1049(3) 0.7537(3) 0.6841(3)
H61 H 0.1492 0.7212 0.7009
C79 C 0.0112(3) 0.7057(3) 0.6334(3)
C82 C 0.0690(3) 0.8989(3) 0.6883(2)
H63 H 0.0889 0.9647 0.7073
C84 C 0.0004(3) 0.3788(3) 0.6041(4)
H64 H 0.0671 0.3960 0.6311
C89 C 0.0161(3) 0.5456(3) 0.6292(4)
C90 C 0.2347(3) 0.9027(3) 0.7644(3)
O39 O 0.4328(2) 0.90302(19) 0.72922(19)
N9 N 0.4561(4) 0.7635(3) 0.6838(3)
C93 C 0.5145(5) 0.7047(4) 0.6593(5)
H68 H 0.5715 0.7424 0.6547
H69 H 0.5327 0.6756 0.7052
H70 H 0.4787 0.6565 0.6014
C94 C 0.3651(4) 0.7204(4) 0.6950(4)
H71 H 0.3341 0.7683 0.7115
H72 H 0.3237 0.6729 0.6385
H73 H 0.3780 0.6920 0.7422
C95 C 0.4812(4) 0.8499(4) 0.7032(3)
C96 C 0.5776(4) 0.8955(4) 0.6981(4)
H74 H 0.5890 0.9629 0.7160
H75 H 0.6274 0.8805 0.7385
H76 H 0.5779 0.8723 0.6366
O43 O 0.4915(2) 0.8454(2) 0.8933(2)
N11 N 0.6402(2) 0.5994(2) 0.9524(3)
H86 H 0.5983 0.5714 0.8986
C103 C 0.6737(3) 0.6976(3) 0.9814(3)
C104 C 0.6116(3) 0.7456(3) 0.9516(3)
H88 H 0.5490 0.7126 0.9129
C105 C 0.6407(3) 0.8416(3) 0.9782(3)
C107 C 0.6238(3) 0.4432(3) 0.9569(3)
C109 C 0.5749(3) 0.2933(3) 0.9729(3)
C110 C 0.5488(3) 0.2516(3) 0.8810(3)
C111 C 0.5620(3) 0.3060(3) 0.8275(3)
H92 H 0.5457 0.2779 0.7647
C112 C 0.5989(3) 0.4011(3) 0.8653(3)
H93 H 0.6072 0.4379 0.8282
C115 C 0.5701(3) 0.8915(3) 0.9511(3)
C116 C 0.5019(3) 0.1488(3) 0.8394(3)
N8 N 0.9750(2) 0.6077(2) 0.6041(3)
H60 H 0.9180 0.5845 0.5642
C80 C 0.9472(3) 0.7547(3) 0.6100(3)
H62 H 0.8835 0.7219 0.5740
C81 C 0.9754(3) 0.8507(3) 0.6387(3)
C83 C 0.9560(3) 0.4465(3) 0.5927(3)
C85 C 0.9488(3) 0.2869(3) 0.5767(3)
H65 H 0.9802 0.2419 0.5867
C86 C 0.8526(3) 0.2596(3) 0.5353(3)
C87 C 0.8076(3) 0.3261(3) 0.5222(3)
H66 H 0.7412 0.3083 0.4933
C88 C 0.8589(3) 0.4186(3) 0.5510(3)
H67 H 0.8270 0.4635 0.5420
C91 C 0.9048(3) 0.9025(3) 0.6163(3)
C92 C 0.7961(3) 0.1591(3) 0.5030(3)
loop_
_geom_bond_atom_site_label_1
_geom_bond_atom_site_label_2
_geom_bond_site_symmetry_1
_geom_bond_site_symmetry_2
O10 C31 1_555 1_555
O11 C31 1_555 1_555
O12 C32 1_555 1_555
O13 C32 1_555 1_555
N2 H9 1_555 1_555
H11 C20 1_555 1_555
C21 C20 1_555 1_555
H14 C25 1_555 1_555
C26 C25 1_555 1_555
C27 C26 1_555 1_555
H15 C27 1_555 1_555
C28 C23 1_555 1_555
H16 C28 1_555 1_555
C31 C21 1_555 1_555
C32 C26 1_555 1_555
Cd15 O10 1_555 1_555
Cd23 O12 1_555 1_555
O11 Cd15 1_555 1_555
C27 C28 1_555 1_555
Cd17 O8 1_555 1_555
O8 C30 1_555 1_555
O9 Cd17 1_555 1_555
O14 C29 1_555 1_555
C17 C18 1_555 1_555
C18 H10 1_555 1_555
C22 C17 1_555 1_555
H12 C22 1_555 1_555
C24 H13 1_555 1_555
C30 O9 1_555 1_555
O15 Cd17 1_555 1_555
N3 C33 1_555 1_555
C33 H17 1_555 1_555
H18 C33 1_555 1_555
H19 C33 1_555 1_555
C34 N3 1_555 1_555
H20 C34 1_555 1_555
H21 C34 1_555 1_555
H22 C34 1_555 1_555
C35 O15 1_555 1_555
C36 C35 1_555 1_555
H23 C36 1_555 1_555
H24 C36 1_555 1_555
H25 C36 1_555 1_555
O19 Cd17 1_555 1_555
O20 Cd17 1_555 1_555
O21 C56 1_555 1_555
O22 C56 1_555 1_555
N5 H35 1_555 1_555
C43 N5 1_555 1_555
C44 C43 1_555 1_555
H37 C44 1_555 1_555
C45 C44 1_555 1_555
C50 C49 1_555 1_555
C51 C50 1_555 1_555
H41 C51 1_555 1_555
C52 C47 1_555 1_555
H42 C52 1_555 1_555
C55 O19 1_555 1_555
C56 C50 1_555 1_555
O55 Cd5 1_555 1_555
O63 Cd21 1_555 1_555
Cd21 O9 1_555 1_555
Cd21 O15 1_555 1_555
C17 C30 1_555 1_555
C18 C19 1_555 1_555
N3 C35 1_555 1_555
O20 C55 1_555 1_555
C45 C55 1_555 1_555
C51 C52 1_555 1_555
O17 C54 1_555 1_555
O23 C53 1_555 1_555
C41 C42 1_555 1_555
C42 H36 1_555 1_555
C46 C41 1_555 1_555
H38 C46 1_555 1_555
C48 H39 1_555 1_555
C54 O18 1_555 1_555
Cd5_2 O18 1_555 1_555
C41 C54 1_555 1_555
Cd1 O1 1_555 1_555
O1 C14 1_555 1_555
O2 Cd1 1_555 1_555
O3 C15 1_555 1_555
O4 C15 1_555 1_555
O55 C16 1_555 1_555
O6 C16 1_555 1_555
O7 C13 1_555 1_555
N1 H1 1_555 1_555
C1 C2 1_555 1_555
C2 H2 1_555 1_555
C3 N1 1_555 1_555
C4 C3 1_555 1_555
H3 C4 1_555 1_555
C5 C4 1_555 1_555
C6 C1 1_555 1_555
H4 C6 1_555 1_555
C7 C8 1_555 1_555
C8 H5 1_555 1_555
C9 C8 1_555 1_555
H6 C9 1_555 1_555
C10 C9 1_555 1_555
C11 C10 1_555 1_555
H7 C11 1_555 1_555
C12 C7 1_555 1_555
H8 C12 1_555 1_555
C13 N1 1_555 1_555
C14 O2 1_555 1_555
C15 C5 1_555 1_555
C16 C10 1_555 1_555
O16 Cd1 1_555 1_555
N4 C37 1_555 1_555
C37 H26 1_555 1_555
H27 C37 1_555 1_555
H28 C37 1_555 1_555
C38 N4 1_555 1_555
H29 C38 1_555 1_555
H30 C38 1_555 1_555
H31 C38 1_555 1_555
C39 O16 1_555 1_555
C40 C39 1_555 1_555
H32 C40 1_555 1_555
H33 C40 1_555 1_555
H34 C40 1_555 1_555
O57 Cd1 1_555 1_555
O61 Cd1 1_555 1_555
Cd27 O3 1_555 1_555
O73 Cd5_3 1_555 1_555
O4 Cd27 1_555 1_555
C1 C14 1_555 1_555
C2 C3 1_555 1_555
C5 C6 1_555 1_555
C7 C13 1_555 1_555
C11 C12 1_555 1_555
N4 C39 1_555 1_555
Cd27 O73 1_555 1_555
Cd19 O68 1_555 1_555
C118 O73 1_555 1_555
C120 C118 1_555 1_555
H100 C120 1_555 1_555
H101 C120 1_555 1_555
H102 C120 1_555 1_555
N12 C117 1_555 1_555
C117 H94 1_555 1_555
H95 C117 1_555 1_555
H96 C117 1_555 1_555
C119 N12 1_555 1_555
H97 C119 1_555 1_555
H98 C119 1_555 1_555
H99 C119 1_555 1_555
N6 C57 1_555 1_555
C57 H43 1_555 1_555
H44 C57 1_555 1_555
H45 C57 1_555 1_555
C59 N6 1_555 1_555
H46 C59 1_555 1_555
H47 C59 1_555 1_555
H48 C59 1_555 1_555
O24 Cd4 1_555 1_555
C58 O24 1_555 1_555
C60 C58 1_555 1_555
H49 C60 1_555 1_555
H50 C60 1_555 1_555
H51 C60 1_555 1_555
O50 Cd4 1_555 1_555
O54 Cd4 1_555 1_555
O24 Cd5_6 1_555 1_555
O66 Cd5_7 1_555 1_555
Cd15 O25 1_555 1_555
O25 C74 1_555 1_555
O26 Cd15 1_555 1_555
O50 C75 1_555 1_555
O54 C75 1_555 1_555
O29 Cd5_8 1_555 1_555
O31 C73 1_555 1_555
N7 H52 1_555 1_555
C61 C62 1_555 1_555
C62 H53 1_555 1_555
C63 N7 1_555 1_555
C64 C63 1_555 1_555
H54 C64 1_555 1_555
C65 C64 1_555 1_555
C66 C61 1_555 1_555
H55 C66 1_555 1_555
C67 C68 1_555 1_555
C68 H56 1_555 1_555
C69 C68 1_555 1_555
H57 C69 1_555 1_555
C70 C69 1_555 1_555
C71 C70 1_555 1_555
H58 C71 1_555 1_555
C72 C67 1_555 1_555
H59 C72 1_555 1_555
C73 N7 1_555 1_555
C74 O26 1_555 1_555
C75 C65 1_555 1_555
C76 O29 1_555 1_555
O40 Cd15 1_555 1_555
N10 C97 1_555 1_555
C97 H77 1_555 1_555
H78 C97 1_555 1_555
H79 C97 1_555 1_555
C98 N10 1_555 1_555
H80 C98 1_555 1_555
H81 C98 1_555 1_555
H82 C98 1_555 1_555
C99 O40 1_555 1_555
C100 C99 1_555 1_555
H83 C100 1_555 1_555
H84 C100 1_555 1_555
H85 C100 1_555 1_555
O30 C76 1_555 1_555
C61 C74 1_555 1_555
C62 C63 1_555 1_555
C65 C66 1_555 1_555
C67 C73 1_555 1_555
C70 C76 1_555 1_555
C71 C72 1_555 1_555
N10 C99 1_555 1_555
O47 C113 1_555 1_555
C101 C102 1_555 1_555
C102 H87 1_555 1_555
C106 C101 1_555 1_555
H89 C106 1_555 1_555
C108 H90 1_555 1_555
C114 O41 1_555 1_555
O66 C114 1_555 1_555
C101 C114 1_555 1_555
Cd19 O32 1_555 1_555
O32 C90 1_555 1_555
O33 Cd19 1_555 1_555
O38 C89 1_555 1_555
C77 C78 1_555 1_555
C78 H61 1_555 1_555
C82 C77 1_555 1_555
H63 C82 1_555 1_555
C84 H64 1_555 1_555
C90 O33 1_555 1_555
O39 Cd19 1_555 1_555
N9 C93 1_555 1_555
C93 H68 1_555 1_555
H69 C93 1_555 1_555
H70 C93 1_555 1_555
C94 N9 1_555 1_555
H71 C94 1_555 1_555
H72 C94 1_555 1_555
H73 C94 1_555 1_555
C95 O39 1_555 1_555
C96 C95 1_555 1_555
H74 C96 1_555 1_555
H75 C96 1_555 1_555
H76 C96 1_555 1_555
O43 Cd19 1_555 1_555
O70 C116 1_555 1_555
O72 C116 1_555 1_555
N11 H86 1_555 1_555
C103 N11 1_555 1_555
C104 C103 1_555 1_555
H88 C104 1_555 1_555
C105 C104 1_555 1_555
C110 C109 1_555 1_555
C111 C110 1_555 1_555
H92 C111 1_555 1_555
C112 C107 1_555 1_555
H93 C112 1_555 1_555
C115 O43 1_555 1_555
C116 C110 1_555 1_555
Cd23 O33 1_555 1_555
Cd23 O39 1_555 1_555
C77 C90 1_555 1_555
C78 C79 1_555 1_555
N9 C95 1_555 1_555
O68 C115 1_555 1_555
C105 C115 1_555 1_555
C111 C112 1_555 1_555
O57 C91 1_555 1_555
O61 C91 1_555 1_555
O63 C92 1_555 1_555
O65 C92 1_555 1_555
N8 H60 1_555 1_555
H62 C80 1_555 1_555
C81 C80 1_555 1_555
H65 C85 1_555 1_555
C86 C85 1_555 1_555
C87 C86 1_555 1_555
H66 C87 1_555 1_555
C88 C83 1_555 1_555
H67 C88 1_555 1_555
C91 C81 1_555 1_555
C92 C86 1_555 1_555
C87 C88 1_555 1_555

#END
