
###############################################################################
#
# This file contains modified crystal structure data generated from the
# MOF subset of the Cambridge Structural Database (CSD) v543 
# hosted by the Cambridge Crystallographic Data Centre (CCDC).
#
# This work is licensed under the Creative Commons
# Attribution-NonCommercial-ShareAlike 4.0 International License.
# To view a copy of this license, visit
# http://creativecommons.org/licenses/by-nc-sa/4.0/
# or send a letter to
# Creative Commons, PO Box 1866, Mountain View, CA 94042, USA.
#
# CIF created using the CSD Python API on 29 September 2022
# The structure has been converted into the P1 space group
# The structure has a 3D framework
# The original CSD entry DINDIP is in the triclinic crystal system
# The framework has been calculated to contain at least 10.0% void space
# The void calculation uses a probe of radius 1.32A, grid spacing 0.4
#
###############################################################################

data_DINDIP
_chemical_formula_moiety         '(C58 H28 N8 O18 Zn2)n'
_symmetry_cell_setting           triclinic
_symmetry_space_group_name_H-M   'P 1'
_symmetry_Int_Tables_number      1
_space_group_name_Hall           'P 1'
loop_
_symmetry_equiv_pos_site_id
_symmetry_equiv_pos_as_xyz
1 x,y,z
_cell_length_a                   10.29(2)
_cell_length_b                   11.80(2)
_cell_length_c                   12.35(3)
_cell_angle_alpha                92.38(3)
_cell_angle_beta                 106.84(3)
_cell_angle_gamma                99.41(3)
_cell_volume                     1409.65
loop_
_atom_site_label
_atom_site_type_symbol
_atom_site_fract_x
_atom_site_fract_y
_atom_site_fract_z
Zn2 Zn 0.11199(8) 0.54089(8) 0.44456(7)
Zn4 Zn 0.11912(8) 0.08359(8) 0.40416(7)
O12 O 0.1575(6) 0.6336(5) 0.5983(4)
O13 O 0.2177(5) 0.4257(5) 0.5265(4)
N5 N 0.2284(6) 0.6499(6) 0.3718(5)
O3 O 0.9831(5) 0.1650(5) 0.2978(4)
O4 O 0.9649(6) 0.0966(6) 0.1219(5)
O5 O 0.9970(5) 0.4186(5) 0.3128(5)
O6 O 0.8425(6) 0.3664(5) 0.4017(4)
C15 C 0.9275(8) 0.1523(7) 0.1925(6)
C16 C 0.8854(8) 0.3662(7) 0.3166(7)
C17 C 0.7845(7) 0.3023(7) 0.2104(6)
C18 C 0.8026(7) 0.2068(7) 0.1527(6)
C19 C 0.6981(8) 0.1523(7) 0.0567(6)
H9 H 0.7098 0.0875 0.0175
C20 C 0.5789(8) 0.1947(7) 0.0208(7)
C21 C 0.5596(9) 0.2902(8) 0.0772(7)
H10 H 0.4781 0.3188 0.0515
C22 C 0.6623(8) 0.3430(8) 0.1722(7)
H11 H 0.6493 0.4071 0.2115
Zn8 Zn 0.88801(8) 0.45911(8) 0.55544(7)
O14 O 0.9491(5) 0.6278(4) 0.3945(4)
O2 O 0.0359(5) 0.1266(5) 0.5233(4)
O7 O 0.4769(6) 0.1341(5) 0.9287(5)
O9 O 0.0509(5) 0.3722(4) 0.6055(4)
C14 C 0.0625(7) 0.1270(6) 0.6281(6)
C23 C 0.4068(7) 0.1947(7) 0.8463(6)
C24 C 0.2728(7) 0.1417(7) 0.7897(6)
H12 H 0.2346 0.0721 0.8104
C25 C 0.1962(7) 0.1948(6) 0.7011(6)
C26 C 0.2537(7) 0.3015(6) 0.6728(6)
C27 C 0.3878(7) 0.3499(7) 0.7308(6)
H13 H 0.4271 0.4199 0.7114
C28 C 0.4653(7) 0.2969(7) 0.8173(6)
H14 H 0.5565 0.3302 0.8556
C29 C 0.1664(7) 0.3690(6) 0.5942(6)
O11 O 0.0169(5) 0.8350(5) 0.7022(4)
O1 O 0.9858(5) 0.0703(4) 0.6770(4)
C11 C 0.4815(8) 0.0011(7) 0.3022(6)
H6 H 0.4055 0.0107 0.2428
C12 C 0.5992(8) 0.0807(7) 0.3315(7)
H7 H 0.6037 0.1470 0.2936
C13 C 0.7124(8) 0.0640(7) 0.4171(7)
H8 H 0.7933 0.1186 0.4333
Zn1 Zn 0.88088(8) 0.91641(8) 0.59584(7)
N2 N 0.2342(6) 0.7970(6) 0.2652(5)
H1 H 0.2070 0.8392 0.2110
N3 N 0.7116(6) 0.9766(5) 0.4761(5)
N4 N 0.7124(6) 0.7980(5) 0.6013(5)
C1 C 0.1615(8) 0.7026(8) 0.2879(7)
H2 H 0.0694 0.6757 0.2472
C2 C 0.3595(7) 0.7225(6) 0.4118(6)
C3 C 0.3622(7) 0.8142(7) 0.3460(6)
C4 C 0.4765(7) 0.9039(7) 0.3633(6)
C5 C 0.5941(7) 0.8952(6) 0.4517(6)
C6 C 0.5942(7) 0.7973(7) 0.5191(6)
C7 C 0.4776(7) 0.7125(6) 0.5037(6)
C8 C 0.4860(8) 0.6258(7) 0.5761(7)
H3 H 0.4103 0.5674 0.5682
C9 C 0.6069(8) 0.6274(8) 0.6591(7)
H4 H 0.6140 0.5703 0.7090
C10 C 0.7171(7) 0.7121(8) 0.6692(7)
H5 H 0.7994 0.7105 0.7254
O10 O 0.9641(5) 0.8734(5) 0.4767(4)
N1 N 0.7716(6) 0.3501(6) 0.6282(5)
N2_2 N 0.7658(6) 0.2030(6) 0.7348(5)
H1_2 H 0.7930 0.1608 0.7890
N3_2 N 0.2884(6) 0.0234(5) 0.5239(5)
N4_2 N 0.2876(6) 0.2020(5) 0.3987(5)
C1_2 C 0.8385(8) 0.2974(8) 0.7121(7)
H2_2 H 0.9306 0.3243 0.7528
C2_2 C 0.6405(7) 0.2775(6) 0.5882(6)
C3_2 C 0.6378(7) 0.1858(7) 0.6540(6)
C4_2 C 0.5235(7) 0.0961(7) 0.6367(6)
C5_2 C 0.4059(7) 0.1048(6) 0.5483(6)
C6_2 C 0.4058(7) 0.2027(7) 0.4809(6)
C7_2 C 0.5224(7) 0.2875(6) 0.4963(6)
C8_2 C 0.5140(8) 0.3742(7) 0.4239(7)
H3_2 H 0.5897 0.4326 0.4318
C9_2 C 0.3931(8) 0.3726(8) 0.3409(7)
H4_2 H 0.3860 0.4297 0.2910
C10_2 C 0.2829(7) 0.2879(8) 0.3308(7)
H5_2 H 0.2006 0.2895 0.2746
O1_2 O 0.0142(5) 0.9297(4) 0.3230(4)
C11_2 C 0.5185(8) 0.9989(7) 0.6978(6)
H6_2 H 0.5945 0.9893 0.7572
C12_2 C 0.4008(8) 0.9193(7) 0.6685(7)
H7_2 H 0.3963 0.8530 0.7064
C13_2 C 0.2876(8) 0.9360(7) 0.5829(7)
H8_2 H 0.2067 0.8814 0.5667
O7_2 O 0.5231(6) 0.8659(5) 0.0713(5)
O8 O 0.7823(5) 0.5743(5) 0.4735(4)
C14_2 C 0.9375(7) 0.8730(6) 0.3719(6)
C23_2 C 0.5932(7) 0.8053(7) 0.1537(6)
C24_2 C 0.7272(7) 0.8583(7) 0.2103(6)
H12_2 H 0.7654 0.9279 0.1896
C25_2 C 0.8038(7) 0.8052(6) 0.2989(6)
C26_2 C 0.7463(7) 0.6985(6) 0.3272(6)
C27_2 C 0.6122(7) 0.6501(7) 0.2692(6)
H13_2 H 0.5729 0.5801 0.2886
C28_2 C 0.5347(7) 0.7031(7) 0.1827(6)
H14_2 H 0.4435 0.6698 0.1444
C29_2 C 0.8336(7) 0.6310(6) 0.4058(6)
O4_2 O 0.0351(6) 0.9034(6) 0.8781(5)
O5_2 O 0.0030(5) 0.5814(5) 0.6872(5)
C15_2 C 0.0725(8) 0.8477(7) 0.8075(6)
C16_2 C 0.1146(8) 0.6338(7) 0.6834(7)
C17_2 C 0.2155(7) 0.6977(7) 0.7896(6)
C18_2 C 0.1974(7) 0.7932(7) 0.8473(6)
C19_2 C 0.3019(8) 0.8477(7) 0.9433(6)
H9_2 H 0.2902 0.9125 0.9825
C20_2 C 0.4211(8) 0.8053(7) 0.9792(7)
C21_2 C 0.4404(9) 0.7098(8) 0.9228(7)
H10_2 H 0.5219 0.6812 0.9485
C22_2 C 0.3377(8) 0.6570(8) 0.8278(7)
H11_2 H 0.3507 0.5929 0.7885
loop_
_geom_bond_atom_site_label_1
_geom_bond_atom_site_label_2
_geom_bond_site_symmetry_1
_geom_bond_site_symmetry_2
O12 Zn2 1_555 1_555
O13 Zn2 1_555 1_555
N5 Zn2 1_555 1_555
O3 C15 1_555 1_555
O4 C15 1_555 1_555
O5 C16 1_555 1_555
O6 C16 1_555 1_555
C15 C18 1_555 1_555
C16 C17 1_555 1_555
C17 C18 1_555 1_555
C18 C19 1_555 1_555
C19 H9 1_555 1_555
C20 C19 1_555 1_555
C21 C20 1_555 1_555
H10 C21 1_555 1_555
C22 C17 1_555 1_555
H11 C22 1_555 1_555
Zn8 O6 1_555 1_555
C21 C22 1_555 1_555
O2 C14 1_555 1_555
O13 C29 1_555 1_555
O9 C29 1_555 1_555
C14 C25 1_555 1_555
C23 O7 1_555 1_555
C24 C23 1_555 1_555
H12 C24 1_555 1_555
C25 C24 1_555 1_555
C26 C25 1_555 1_555
C27 C26 1_555 1_555
H13 C27 1_555 1_555
C28 C23 1_555 1_555
H14 C28 1_555 1_555
C29 C26 1_555 1_555
Zn4 O2 1_555 1_555
C27 C28 1_555 1_555
H6 C11 1_555 1_555
C12 C11 1_555 1_555
H7 C12 1_555 1_555
H8 C13 1_555 1_555
C12 C13 1_555 1_555
N5 C1 1_555 1_555
N2 H1 1_555 1_555
N3 Zn1 1_555 1_555
N4 Zn1 1_555 1_555
C1 N2 1_555 1_555
H2 C1 1_555 1_555
C2 N5 1_555 1_555
C3 N2 1_555 1_555
C4 C3 1_555 1_555
C5 N3 1_555 1_555
C6 N4 1_555 1_555
C7 C2 1_555 1_555
C8 C7 1_555 1_555
H3 C8 1_555 1_555
C9 C8 1_555 1_555
H4 C9 1_555 1_555
C10 N4 1_555 1_555
H5 C10 1_555 1_555
O10 Zn1 1_555 1_555
C2 C3 1_555 1_555
C4 C5 1_555 1_555
C5 C6 1_555 1_555
C6 C7 1_555 1_555
C9 C10 1_555 1_555
N1 C1_2 1_555 1_555
N2_2 H1_2 1_555 1_555
N3_2 Zn4 1_555 1_555
N4_2 Zn4 1_555 1_555
C1_2 N2_2 1_555 1_555
H2_2 C1_2 1_555 1_555
C2_2 N1 1_555 1_555
C3_2 N2_2 1_555 1_555
C4_2 C3_2 1_555 1_555
C5_2 N3_2 1_555 1_555
C6_2 N4_2 1_555 1_555
C7_2 C2_2 1_555 1_555
C8_2 C7_2 1_555 1_555
H3_2 C8_2 1_555 1_555
C9_2 C8_2 1_555 1_555
H4_2 C9_2 1_555 1_555
C10_2 N4_2 1_555 1_555
H5_2 C10_2 1_555 1_555
Zn8 N1 1_555 1_555
C2_2 C3_2 1_555 1_555
C4_2 C5_2 1_555 1_555
C5_2 C6_2 1_555 1_555
C6_2 C7_2 1_555 1_555
C9_2 C10_2 1_555 1_555
H6_2 C11_2 1_555 1_555
C12_2 C11_2 1_555 1_555
H7_2 C12_2 1_555 1_555
H8_2 C13_2 1_555 1_555
C12_2 C13_2 1_555 1_555
O10 C14_2 1_555 1_555
O8 C29_2 1_555 1_555
O14 C29_2 1_555 1_555
C14_2 C25_2 1_555 1_555
C23_2 O7_2 1_555 1_555
C24_2 C23_2 1_555 1_555
H12_2 C24_2 1_555 1_555
C25_2 C24_2 1_555 1_555
C26_2 C25_2 1_555 1_555
C27_2 C26_2 1_555 1_555
H13_2 C27_2 1_555 1_555
C28_2 C23_2 1_555 1_555
H14_2 C28_2 1_555 1_555
C29_2 C26_2 1_555 1_555
Zn8 O8 1_555 1_555
C27_2 C28_2 1_555 1_555
O11 C15_2 1_555 1_555
O4_2 C15_2 1_555 1_555
O5_2 C16_2 1_555 1_555
O12 C16_2 1_555 1_555
C15_2 C18_2 1_555 1_555
C16_2 C17_2 1_555 1_555
C17_2 C18_2 1_555 1_555
C18_2 C19_2 1_555 1_555
C19_2 H9_2 1_555 1_555
C20_2 C19_2 1_555 1_555
C21_2 C20_2 1_555 1_555
H10_2 C21_2 1_555 1_555
C22_2 C17_2 1_555 1_555
H11_2 C22_2 1_555 1_555
C21_2 C22_2 1_555 1_555

#END
