
###############################################################################
#
# This file contains modified crystal structure data generated from the
# MOF subset of the Cambridge Structural Database (CSD) v543 
# hosted by the Cambridge Crystallographic Data Centre (CCDC).
#
# This work is licensed under the Creative Commons
# Attribution-NonCommercial-ShareAlike 4.0 International License.
# To view a copy of this license, visit
# http://creativecommons.org/licenses/by-nc-sa/4.0/
# or send a letter to
# Creative Commons, PO Box 1866, Mountain View, CA 94042, USA.
#
# CIF created using the CSD Python API on 29 September 2022
# The structure has been converted into the P1 space group
# The structure has a 3D framework
# The original CSD entry DIXVUC04 is in the hexagonal crystal system
# The framework has been calculated to contain at least 10.0% void space
# The void calculation uses a probe of radius 1.32A, grid spacing 0.4
# The framework is charged, counterions have been retained in the structure
#
###############################################################################

data_DIXVUC04
_chemical_formula_moiety         '(C36 H48 Cl4 Fe18 N48 O47 32+)n'
_symmetry_cell_setting           triclinic
_symmetry_space_group_name_H-M   'P 1'
_symmetry_Int_Tables_number      1
_space_group_name_Hall           'P 1'
loop_
_symmetry_equiv_pos_site_id
_symmetry_equiv_pos_as_xyz
1 x,y,z
_cell_length_a                   11.036(6)
_cell_length_b                   11.036(6)
_cell_length_c                   22.991(15)
_cell_angle_alpha                90
_cell_angle_beta                 90
_cell_angle_gamma                120
_cell_volume                     2425
loop_
_atom_site_label
_atom_site_type_symbol
_atom_site_fract_x
_atom_site_fract_y
_atom_site_fract_z
Cl1 Cl 0.6667 0.3333 0.47736(10)
O1 O 0.6667 0.3333 0.4141(5)
O2 O 0.6563(10) 0.2049(7) 0.4864(4)
O3 O 0.7951(7) 0.4514(12) 0.4864(4)
O4 O 0.5486(12) 0.3437(10) 0.4864(4)
Cl1_2 Cl 0.3333 0.6666 0.97736(10)
O1_2 O 0.3333 0.6666 0.9141(5)
O2_2 O 0.2049(7) 0.5486(12) 0.9864(4)
O3_2 O 0.4514(12) 0.6563(14) 0.9864(4)
O4_2 O 0.3437(10) 0.7951(16) 0.9864(4)
Cl1_3 Cl 0.3333 0.6667 0.52264(10)
O1_3 O 0.3333 0.6667 0.5859(5)
O2_3 O 0.3437(10) 0.7951(7) 0.5136(4)
O3_3 O 0.2049(7) 0.5486(12) 0.5136(4)
O4_3 O 0.4514(12) 0.6563(10) 0.5136(4)
Cl1_4 Cl 0.6667 0.3334 0.02264(10)
O1_4 O 0.6667 0.3334 0.0859(5)
O2_4 O 0.7951(7) 0.4514(12) 0.0136(4)
O3_4 O 0.5486(12) 0.3437(14) 0.0136(4)
O4_4 O 0.6563(10) 0.2049(16) 0.0136(4)
Fe1 Fe 0.0000 0.0000 0.5000
N1 N 0.0463(3) 0.1837(3) 0.44674(14)
N2 N 0.1686(4) 0.2562(5) 0.4175(2)
N3 N 0.1739(4) 0.3623(5) 0.3913(2)
N4 N 0.0558(3) 0.3630(3) 0.40469(13)
C2 C 0.0303(4) 0.4747(4) 0.38420(18)
H2 H 0.1191 0.5565 0.3745
N8 N 0.1837(3) 0.1374(4) 0.55326(14)
C5 C 0.2737(6) 0.0198(4) 0.43851(17)
N13 N 0.2562(5) 0.0876(6) 0.5825(2)
C7 C 0.2539(4) 0.2737(6) 0.56149(17)
H6 H 0.3368 0.1065 0.4541
N21 N 0.3623(5) 0.1884(6) 0.6087(2)
N22 N 0.3630(3) 0.3072(4) 0.59531(13)
H8 H 0.2303 0.3368 0.5459
C12 C 0.4747(4) 0.4444(6) 0.61580(18)
H13 H 0.5118 0.0113 0.4155
C15 C 0.4971(5) 0.0638(3) 0.33227(15)
H16 H 0.5565 0.4374 0.6255
H17 H 0.5005 0.5118 0.5845
C17 C 0.4333(4) 0.4971(5) 0.66773(15)
O11 O 0.6111(4) 0.0813(3) 0.31268(13)
O12 O 0.4248(4) 0.1138(3) 0.31271(12)
O15 O 0.5298(3) 0.6111(4) 0.68732(13)
O16 O 0.3110(3) 0.4248(4) 0.68729(12)
Fe6 Fe 0.74010(10) 0.20842(7) 0.2500
Fe7 Fe 0.46832(7) 0.25990(10) 0.2500
Fe10 Fe 0.53168(7) 0.74010(10) 0.7500
Fe11 Fe 0.20842(7) 0.46832(7) 0.7500
O27 O 0.6111(4) 0.0813(3) 0.18732(13)
O28 O 0.8862(3) 0.3110(3) 0.31271(12)
O29 O 0.8862(3) 0.3110(3) 0.18729(12)
O30 O 0.6667 0.3334 0.2500
O31 O 0.8182(10) 0.0705(7) 0.2500
H23 H 0.7837 0.0006 0.2272
H24 H 0.7837 0.0006 0.2728
Fe1_2 Fe 0.0000 1.0000 0.5000
N6 N 0.1374(4) 0.9537(3) 0.44674(14)
N11 N 0.0876(6) 0.8314(4) 0.4175(2)
C6 C 0.0198(4) 0.7461(4) 0.56149(17)
N17 N 0.1884(6) 0.8261(4) 0.3913(2)
N18 N 0.3072(4) 0.9442(3) 0.40469(13)
H7 H 0.1065 0.7697 0.5459
C10 C 0.4444(6) 0.9697(4) 0.38420(18)
H12 H 0.4374 0.8809 0.3745
H15 H 0.0113 0.4995 0.5845
C16 C 0.0638(3) 0.5667(4) 0.66773(15)
O13 O 0.0813(3) 0.4702(3) 0.68732(13)
O14 O 0.1138(3) 0.6890(3) 0.68729(12)
Fe9 Fe 0.25990(10) 0.79158(7) 0.7500
Fe1_3 Fe 1.0000 0.0000 0.5000
C1 C 0.9802(4) 0.2539(4) 0.43851(17)
H1 H 0.8935 0.2303 0.4541
H3 H 0.9887 0.5005 0.4155
C3 C 0.9362(3) 0.4333(4) 0.33227(15)
O5 O 0.9187(3) 0.5298(3) 0.31268(13)
Fe2 Fe 0.79158(7) 0.53168(7) 0.2500
N9 N 0.8626(4) 0.0463(3) 0.55326(14)
N14 N 0.9124(6) 0.1686(4) 0.5825(2)
N23 N 0.8116(6) 0.1739(4) 0.6087(2)
N24 N 0.6928(4) 0.0558(3) 0.59531(13)
C13 C 0.5556(6) 0.0303(4) 0.61580(18)
H18 H 0.5626 0.1191 0.6255
Fe1_4 Fe 1.0000 1.0000 0.5000
N5 N 0.8163(3) 0.8626(4) 0.44674(14)
N7 N 0.9537(3) 0.8163(3) 0.55326(14)
N10 N 0.7438(5) 0.9124(6) 0.4175(2)
C4 C 0.7461(4) 0.7263(6) 0.43851(17)
N12 N 0.8314(4) 0.7438(5) 0.5825(2)
C8 C 0.7263(6) 0.9802(4) 0.56149(17)
N15 N 0.6377(5) 0.8116(6) 0.3913(2)
N16 N 0.6370(3) 0.6928(4) 0.40469(13)
H5 H 0.7697 0.6632 0.4541
N19 N 0.8261(4) 0.6377(5) 0.6087(2)
N20 N 0.9442(3) 0.6370(3) 0.59531(13)
H9 H 0.6632 0.8935 0.5459
C9 C 0.5253(4) 0.5556(6) 0.38420(18)
C11 C 0.9697(4) 0.5253(4) 0.61580(18)
H10 H 0.4435 0.5626 0.3745
H11 H 0.4995 0.4882 0.4155
C14 C 0.5667(4) 0.5029(5) 0.33227(15)
H14 H 0.8809 0.4435 0.6255
H19 H 0.4882 0.9887 0.5845
C18 C 0.5029(5) 0.9362(3) 0.66773(15)
O9 O 0.4702(3) 0.3889(4) 0.31268(13)
O10 O 0.6890(3) 0.5752(4) 0.31271(12)
O17 O 0.3889(4) 0.9187(3) 0.68732(13)
O18 O 0.5752(4) 0.8862(3) 0.68729(12)
O22 O 0.4702(3) 0.3889(4) 0.18732(13)
O24 O 0.4248(4) 0.1138(3) 0.18729(12)
O26 O 0.2523(12) 0.1818(10) 0.2500
H21 H 0.2169 0.2163 0.2272
H22 H 0.2169 0.2163 0.2728
O27_2 O 0.9187(3) 0.5298(5) 0.18732(13)
O29_2 O 0.6890(3) 0.5752(4) 0.18729(12)
O31_2 O 0.9295(7) 0.7477(12) 0.2500
H23_2 H 0.9994 0.7831 0.2272
H24_2 H 0.9994 0.7831 0.2728
Fe1_5 Fe 0.0000 0.0000 0.0000
N9_2 N 0.0463(3) 0.1837(5) 0.05326(14)
C7_2 C 0.2737(6) 0.0198(7) 0.06149(17)
N14_2 N 0.1686(4) 0.2562(7) 0.0825(2)
H8_2 H 0.3368 0.1065 0.0459
N23_2 N 0.1739(4) 0.3623(7) 0.1087(2)
N24_2 N 0.0558(3) 0.3630(5) 0.09531(13)
C13_2 C 0.0303(4) 0.4747(7) 0.11580(18)
H17_2 H 0.5118 0.0113 0.0845
C17_2 C 0.4971(5) 0.0638(6) 0.16773(15)
H18_2 H 0.1191 0.5565 0.1255
Fe1_6 Fe 0.0000 0.0000 1.0000
N1_2 N 0.1837(3) 0.1374(4) 0.94674(14)
N2_2 N 0.2562(5) 0.0876(6) 0.9175(2)
C1_2 C 0.2539(4) 0.2737(6) 0.93851(17)
N3_2 N 0.3623(5) 0.1884(6) 0.8913(2)
N4_2 N 0.3630(3) 0.3072(4) 0.90469(13)
H1_2 H 0.2303 0.3368 0.9541
C2_2 C 0.4747(4) 0.4444(6) 0.88420(18)
H2_2 H 0.5565 0.4374 0.8745
H3_2 H 0.5005 0.5118 0.9155
C3_2 C 0.4333(4) 0.4971(5) 0.83227(15)
O5_2 O 0.5298(3) 0.6111(4) 0.81268(13)
O6 O 0.3110(3) 0.4248(4) 0.81271(12)
O7 O 0.3334 0.6667 0.7500
O8 O 0.0705(7) 0.2523(12) 0.7500
H4 H 0.0006 0.2169 0.7728
O19 O 0.0813(3) 0.4702(5) 0.81268(13)
H20 H 0.0006 0.2169 0.7272
Fe1_7 Fe -0.0000 1.0000 1.0000
C5_2 C 0.0198(4) 0.7461(7) 0.93851(17)
H6_2 H 0.1065 0.7697 0.9541
H13_2 H 0.0113 0.4995 0.9155
C15_2 C 0.0638(3) 0.5667(6) 0.83227(15)
O12_2 O 0.1138(3) 0.6890(5) 0.81271(12)
Fe1_8 Fe 1.0000 0.0000 0.0000
C8_2 C 0.9802(4) 0.2539(7) 0.06149(17)
H9_2 H 0.8935 0.2303 0.0459
H19_2 H 0.9887 0.5005 0.0845
C18_2 C 0.9362(3) 0.4333(6) 0.16773(15)
Fe1_9 Fe 1.0000 1.0000 0.0000
N7_2 N 0.8163(3) 0.8626(4) 0.05326(14)
N12_2 N 0.7438(5) 0.9124(6) 0.0825(2)
C6_2 C 0.7461(4) 0.7263(6) 0.06149(17)
N19_2 N 0.6377(5) 0.8116(6) 0.1087(2)
N20_2 N 0.6370(3) 0.6928(4) 0.09531(13)
H7_2 H 0.7697 0.6632 0.0459
C11_2 C 0.5253(4) 0.5556(6) 0.11580(18)
H14_2 H 0.4435 0.5626 0.1255
H15_2 H 0.4995 0.4882 0.0845
C16_2 C 0.5667(4) 0.5029(5) 0.16773(15)
Fe1_10 Fe 1.0000 1.0000 1.0000
N6_2 N 0.9537(3) 0.8163(5) 0.94674(14)
C4_2 C 0.7263(6) 0.9802(7) 0.93851(17)
N11_2 N 0.8314(4) 0.7438(7) 0.9175(2)
H5_2 H 0.6632 0.8935 0.9541
N17_2 N 0.8261(4) 0.6377(7) 0.8913(2)
N18_2 N 0.9442(3) 0.6370(5) 0.90469(13)
C10_2 C 0.9697(4) 0.5253(7) 0.88420(18)
H11_2 H 0.4882 0.9887 0.9155
C14_2 C 0.5029(5) 0.9362(6) 0.83227(15)
H12_2 H 0.8809 0.4435 0.8745
O9_2 O 0.3889(4) 0.9187(5) 0.81268(13)
O10_2 O 0.5752(4) 0.8862(5) 0.81271(12)
O26_2 O 0.1818(10) 0.9295(16) 0.7500
H21_2 H 0.2163 0.9994 0.7272
H22_2 H 0.2163 0.9994 0.7728
O31_3 O 0.7477(12) 0.8182(10) 0.7500
H23_3 H 0.7831 0.7837 0.7272
H24_3 H 0.7831 0.7837 0.7728
Fe1_11 Fe -0.0000 1.0000 0.0000
N8_2 N 0.1374(4) 0.9537(5) 0.05326(14)
N13_2 N 0.0876(6) 0.8314(8) 0.0825(2)
N21_2 N 0.1884(6) 0.8261(8) 0.1087(2)
N22_2 N 0.3072(4) 0.9442(5) 0.09531(13)
C12_2 C 0.4444(6) 0.9697(7) 0.11580(18)
H16_2 H 0.4374 0.8809 0.1255
Fe1_12 Fe 1.0000 0.0000 1.0000
N5_2 N 0.8626(4) 0.0463(5) 0.94674(14)
N10_2 N 0.9124(6) 0.1686(8) 0.9175(2)
N15_2 N 0.8116(6) 0.1739(8) 0.8913(2)
N16_2 N 0.6928(4) 0.0558(5) 0.90469(13)
C9_2 C 0.5556(6) 0.0303(7) 0.88420(18)
H10_2 H 0.5626 0.1191 0.8745
loop_
_geom_bond_atom_site_label_1
_geom_bond_atom_site_label_2
_geom_bond_site_symmetry_1
_geom_bond_site_symmetry_2
Cl1 O1 1_555 1_555
O2 Cl1 1_555 1_555
O3 Cl1 1_555 1_555
O4 Cl1 1_555 1_555
Cl1_2 O1_2 1_555 1_555
O2_2 Cl1_2 1_555 1_555
O3_2 Cl1_2 1_555 1_555
O4_2 Cl1_2 1_555 1_555
Cl1_3 O1_3 1_555 1_555
O2_3 Cl1_3 1_555 1_555
O3_3 Cl1_3 1_555 1_555
O4_3 Cl1_3 1_555 1_555
Cl1_4 O1_4 1_555 1_555
O2_4 Cl1_4 1_555 1_555
O3_4 Cl1_4 1_555 1_555
O4_4 Cl1_4 1_555 1_555
Fe1 N1 1_555 1_555
N1 N2 1_555 1_555
N2 N3 1_555 1_555
N3 N4 1_555 1_555
C2 N4 1_555 1_555
H2 C2 1_555 1_555
N8 Fe1 1_555 1_555
N13 N8 1_555 1_555
C7 N8 1_555 1_555
H6 C5 1_555 1_555
N21 N13 1_555 1_555
N22 C7 1_555 1_555
H8 C7 1_555 1_555
C12 N22 1_555 1_555
H16 C12 1_555 1_555
H17 C12 1_555 1_555
C17 C12 1_555 1_555
O11 C15 1_555 1_555
O12 C15 1_555 1_555
O15 C17 1_555 1_555
O16 C17 1_555 1_555
Fe6 O11 1_555 1_555
Fe7 O12 1_555 1_555
Fe10 O15 1_555 1_555
Fe11 O16 1_555 1_555
O27 Fe6 1_555 1_555
O28 Fe6 1_555 1_555
O29 Fe6 1_555 1_555
O30 Fe6 1_555 1_555
O31 Fe6 1_555 1_555
H23 O31 1_555 1_555
H24 O31 1_555 1_555
N21 N22 1_555 1_555
Fe7 O30 1_555 1_555
N6 Fe1_2 1_555 1_555
N11 N6 1_555 1_555
N17 N11 1_555 1_555
H7 C6 1_555 1_555
C10 N18 1_555 1_555
H12 C10 1_555 1_555
O13 C16 1_555 1_555
O14 C16 1_555 1_555
Fe11 O13 1_555 1_555
Fe9 O14 1_555 1_555
N17 N18 1_555 1_555
H1 C1 1_555 1_555
O5 C3 1_555 1_555
O28 C3 1_555 1_555
Fe2 O5 1_555 1_555
O30 Fe2 1_555 1_555
N9 Fe1_3 1_555 1_555
N14 N9 1_555 1_555
N23 N14 1_555 1_555
C13 N24 1_555 1_555
H18 C13 1_555 1_555
N23 N24 1_555 1_555
N5 Fe1_4 1_555 1_555
N7 Fe1_4 1_555 1_555
N10 N5 1_555 1_555
C4 N5 1_555 1_555
N12 N7 1_555 1_555
N15 N10 1_555 1_555
N16 C4 1_555 1_555
H5 C4 1_555 1_555
N19 N12 1_555 1_555
H9 C8 1_555 1_555
C9 N16 1_555 1_555
C11 N20 1_555 1_555
H10 C9 1_555 1_555
H11 C9 1_555 1_555
C14 C9 1_555 1_555
H14 C11 1_555 1_555
O9 C14 1_555 1_555
O10 C14 1_555 1_555
O17 C18 1_555 1_555
O18 C18 1_555 1_555
Fe7 O9 1_555 1_555
Fe2 O10 1_555 1_555
Fe9 O17 1_555 1_555
Fe10 O18 1_555 1_555
O22 Fe7 1_555 1_555
O24 Fe7 1_555 1_555
O26 Fe7 1_555 1_555
H21 O26 1_555 1_555
H22 O26 1_555 1_555
N15 N16 1_555 1_555
N19 N20 1_555 1_555
O27_2 Fe2 1_555 1_555
O29_2 Fe2 1_555 1_555
O31_2 Fe2 1_555 1_555
H23_2 O31_2 1_555 1_555
H24_2 O31_2 1_555 1_555
N9_2 Fe1_5 1_555 1_555
N14_2 N9_2 1_555 1_555
H8_2 C7_2 1_555 1_555
N23_2 N14_2 1_555 1_555
C13_2 N24_2 1_555 1_555
H18_2 C13_2 1_555 1_555
O27 C17_2 1_555 1_555
O24 C17_2 1_555 1_555
N23_2 N24_2 1_555 1_555
Fe1_6 N1_2 1_555 1_555
N1_2 N2_2 1_555 1_555
N2_2 N3_2 1_555 1_555
C1_2 N1_2 1_555 1_555
N3_2 N4_2 1_555 1_555
N4_2 C1_2 1_555 1_555
H1_2 C1_2 1_555 1_555
C2_2 N4_2 1_555 1_555
H2_2 C2_2 1_555 1_555
H3_2 C2_2 1_555 1_555
C3_2 C2_2 1_555 1_555
O5_2 C3_2 1_555 1_555
O6 C3_2 1_555 1_555
Fe10 O5_2 1_555 1_555
O7 Fe10 1_555 1_555
O8 H4 1_555 1_555
Fe11 O6 1_555 1_555
O19 Fe11 1_555 1_555
Fe9 O7 1_555 1_555
H20 O8 1_555 1_555
O7 Fe11 1_555 1_555
O8 Fe11 1_555 1_555
H6_2 C5_2 1_555 1_555
O19 C15_2 1_555 1_555
O12_2 C15_2 1_555 1_555
Fe9 O12_2 1_555 1_555
H9_2 C8_2 1_555 1_555
O27_2 C18_2 1_555 1_555
O29 C18_2 1_555 1_555
N7_2 Fe1_9 1_555 1_555
N12_2 N7_2 1_555 1_555
C6_2 N7_2 1_555 1_555
N19_2 N12_2 1_555 1_555
N20_2 C6_2 1_555 1_555
H7_2 C6_2 1_555 1_555
C11_2 N20_2 1_555 1_555
H14_2 C11_2 1_555 1_555
H15_2 C11_2 1_555 1_555
C16_2 C11_2 1_555 1_555
O22 C16_2 1_555 1_555
O29_2 C16_2 1_555 1_555
N19_2 N20_2 1_555 1_555
N6_2 Fe1_10 1_555 1_555
N11_2 N6_2 1_555 1_555
H5_2 C4_2 1_555 1_555
N17_2 N11_2 1_555 1_555
C10_2 N18_2 1_555 1_555
H12_2 C10_2 1_555 1_555
O9_2 C14_2 1_555 1_555
O10_2 C14_2 1_555 1_555
Fe9 O9_2 1_555 1_555
Fe10 O10_2 1_555 1_555
O26_2 Fe9 1_555 1_555
H21_2 O26_2 1_555 1_555
H22_2 O26_2 1_555 1_555
N17_2 N18_2 1_555 1_555
O31_3 Fe10 1_555 1_555
H23_3 O31_3 1_555 1_555
H24_3 O31_3 1_555 1_555
N8_2 Fe1_11 1_555 1_555
N13_2 N8_2 1_555 1_555
N21_2 N13_2 1_555 1_555
C12_2 N22_2 1_555 1_555
H16_2 C12_2 1_555 1_555
N21_2 N22_2 1_555 1_555
N5_2 Fe1_12 1_555 1_555
N10_2 N5_2 1_555 1_555
N15_2 N10_2 1_555 1_555
C9_2 N16_2 1_555 1_555
H10_2 C9_2 1_555 1_555
N15_2 N16_2 1_555 1_555

#END
