
###############################################################################
#
# This file contains modified crystal structure data generated from the
# MOF subset of the Cambridge Structural Database (CSD) v543 
# hosted by the Cambridge Crystallographic Data Centre (CCDC).
#
# This work is licensed under the Creative Commons
# Attribution-NonCommercial-ShareAlike 4.0 International License.
# To view a copy of this license, visit
# http://creativecommons.org/licenses/by-nc-sa/4.0/
# or send a letter to
# Creative Commons, PO Box 1866, Mountain View, CA 94042, USA.
#
# CIF created using the CSD Python API on 29 September 2022
# The structure has been converted into the P1 space group
# The structure has a 3D framework
# The original CSD entry DIXVUC01 is in the hexagonal crystal system
# The framework has been calculated to contain at least 10.0% void space
# The void calculation uses a probe of radius 1.32A, grid spacing 0.4
# The framework is charged, counterions have been retained in the structure
#
###############################################################################

data_DIXVUC01
_chemical_formula_moiety         '(C36 H48 Cl4 Fe18 N48 O48 32+)n'
_symmetry_cell_setting           triclinic
_symmetry_space_group_name_H-M   'P 1'
_symmetry_Int_Tables_number      1
_space_group_name_Hall           'P 1'
loop_
_symmetry_equiv_pos_site_id
_symmetry_equiv_pos_as_xyz
1 x,y,z
_cell_length_a                   10.7401(3)
_cell_length_b                   10.7401(3)
_cell_length_c                   23.0238(6)
_cell_angle_alpha                90
_cell_angle_beta                 90
_cell_angle_gamma                120
_cell_volume                     2299.98
loop_
_atom_site_label
_atom_site_type_symbol
_atom_site_fract_x
_atom_site_fract_y
_atom_site_fract_z
Cl1 Cl 0.3333 0.6667 0.52748(7)
O1 O 0.3333 0.6667 0.5902(3)
O2 O 0.2049(4) 0.6616(4) 0.51030(17)
O3 O 0.3384(4) 0.5433(6) 0.51030(17)
O4 O 0.4567(6) 0.7951(4) 0.51030(17)
Cl1_2 Cl 0.6667 0.3334 0.02748(7)
O1_2 O 0.6667 0.3334 0.0902(3)
O2_2 O 0.6616(4) 0.4567(6) 0.01030(17)
O3_2 O 0.5433(6) 0.2049(7) 0.01030(17)
O4_2 O 0.7951(4) 0.3384(7) 0.01030(17)
Cl1_3 Cl 0.6667 0.3333 0.47252(7)
O1_3 O 0.6667 0.3333 0.4098(3)
O2_3 O 0.7951(4) 0.3384(4) 0.48970(17)
O3_3 O 0.6616(4) 0.4567(6) 0.48970(17)
O4_3 O 0.5433(6) 0.2049(4) 0.48970(17)
Cl1_4 Cl 0.3333 0.6666 0.97252(7)
O1_4 O 0.3333 0.6666 0.9098(3)
O2_4 O 0.3384(4) 0.5433(6) 0.98970(17)
O3_4 O 0.4567(6) 0.7951(7) 0.98970(17)
O4_4 O 0.2049(4) 0.6616(7) 0.98970(17)
Fe1 Fe -0.0000 -0.0000 0.5000
N1 N 0.1294(3) 0.1753(3) 0.44970(12)
N2 N 0.0770(3) 0.2508(4) 0.42178(15)
C1 C 0.2690(3) 0.2440(3) 0.44041(14)
N3 N 0.1806(4) 0.3604(4) 0.39608(16)
N4 N 0.3024(3) 0.3583(3) 0.40744(12)
H1 H 0.3348 0.2167 0.4548
C2 C 0.4407(4) 0.4716(4) 0.38692(15)
H2 H 0.5128 0.4962 0.4181
H3 H 0.4338 0.5583 0.3787
C3 C 0.4923(4) 0.4311(4) 0.33288(13)
O5 O 0.4187(3) 0.3066(3) 0.31323(10)
O6 O 0.6079(3) 0.5309(3) 0.31303(12)
Fe2 Fe 0.46573(7) 0.20499(8) 0.2500
O7 O 0.6667 0.3334 0.2500
O8 O 0.8151(8) 0.7545(6) 0.2500
H4 H 0.7794 0.7898 0.2268
N8 N 0.1753(3) 0.0459(4) 0.55030(12)
N13 N 0.2508(4) 0.1738(5) 0.57822(15)
C8 C 0.0250(4) 0.2690(3) 0.55959(14)
N21 N 0.3604(4) 0.1798(6) 0.60392(16)
N22 N 0.3583(3) 0.0559(4) 0.59256(12)
H9 H 0.1181 0.3348 0.5452
C12 C 0.4716(4) 0.0309(6) 0.61308(15)
H17 H 0.5583 0.1245 0.6213
H18 H 0.0166 0.5128 0.5819
C18 C 0.0612(6) 0.4923(4) 0.66712(13)
O17 O 0.1121(4) 0.4187(3) 0.68677(10)
O18 O 0.0770(4) 0.6079(3) 0.68697(12)
Fe3 Fe 0.73926(11) 0.53427(7) 0.2500
Fe12 Fe 0.26074(11) 0.46573(7) 0.7500
Fe13 Fe 0.20499(8) 0.73926(11) 0.7500
O19 O 0.8879(4) 0.5813(3) 0.18677(10)
O20 O 0.8879(4) 0.5813(3) 0.31323(10)
O21 O 0.6079(3) 0.5309(3) 0.18697(12)
Fe14 Fe 0.79501(8) 0.26074(11) 0.2500
H20 H 0.7794 0.7898 0.2732
H21 H 0.0104 0.2206 0.2732
H22 H 0.0104 0.2206 0.2268
Fe1_2 Fe 0.0000 1.0000 0.5000
N6 N 0.0459(4) 0.8706(3) 0.44970(12)
N11 N 0.1738(5) 0.9230(3) 0.42178(15)
C7 C 0.2440(3) 0.9750(4) 0.55959(14)
N17 N 0.1798(6) 0.8194(4) 0.39608(16)
N18 N 0.0559(4) 0.6976(3) 0.40744(12)
H8 H 0.2167 0.8819 0.5452
C10 C 0.0309(6) 0.5593(4) 0.38692(15)
H13 H 0.1245 0.5662 0.3787
H16 H 0.4962 0.9834 0.5819
C17 C 0.4311(4) 0.9388(6) 0.66712(13)
O15 O 0.3066(3) 0.8879(4) 0.68677(10)
O16 O 0.5309(3) 0.9230(4) 0.68697(12)
Fe11 Fe 0.53427(7) 0.79501(8) 0.7500
Fe1_3 Fe 1.0000 -0.0000 0.5000
N9 N 0.9541(4) 0.1294(3) 0.55030(12)
C4 C 0.7560(3) 0.0250(4) 0.44041(14)
N14 N 0.8262(5) 0.0770(3) 0.57822(15)
H5 H 0.7833 0.1181 0.4548
N23 N 0.8202(6) 0.1806(4) 0.60392(16)
N24 N 0.9441(4) 0.3024(3) 0.59256(12)
C13 C 0.9691(6) 0.4407(4) 0.61308(15)
H10 H 0.5038 0.0166 0.4181
C14 C 0.5689(4) 0.0612(6) 0.33288(13)
H19 H 0.8755 0.4338 0.6213
O9 O 0.6934(3) 0.1121(4) 0.31323(10)
O10 O 0.4691(3) 0.0770(4) 0.31303(12)
O22 O 0.6934(3) 0.1121(4) 0.18677(10)
O23 O 0.9230(4) 0.3921(3) 0.31303(12)
O24 O 0.9230(4) 0.3921(3) 0.18697(12)
O26 O 0.9394(10) 0.1849(8) 0.2500
Fe1_4 Fe 1.0000 1.0000 0.5000
N5 N 0.8247(3) 0.9541(4) 0.44970(12)
N7 N 0.8706(3) 0.8247(3) 0.55030(12)
N10 N 0.7492(4) 0.8262(5) 0.42178(15)
C5 C 0.9750(4) 0.7310(3) 0.44041(14)
N12 N 0.9230(3) 0.7492(4) 0.57822(15)
C6 C 0.7310(3) 0.7560(3) 0.55959(14)
N15 N 0.6396(4) 0.8202(6) 0.39608(16)
N16 N 0.6417(3) 0.9441(4) 0.40744(12)
H6 H 0.8819 0.6652 0.4548
N19 N 0.8194(4) 0.6396(4) 0.60392(16)
N20 N 0.6976(3) 0.6417(3) 0.59256(12)
H7 H 0.6652 0.7833 0.5452
C9 C 0.5284(4) 0.9691(6) 0.38692(15)
C11 C 0.5593(4) 0.5284(4) 0.61308(15)
H11 H 0.4417 0.8755 0.3787
H12 H 0.9834 0.4872 0.4181
C15 C 0.9388(6) 0.5077(4) 0.33288(13)
H14 H 0.4872 0.5038 0.5819
H15 H 0.5662 0.4417 0.6213
C16 C 0.5077(4) 0.5689(4) 0.66712(13)
O13 O 0.5813(3) 0.6934(3) 0.68677(10)
O14 O 0.3921(3) 0.4691(3) 0.68697(12)
O27 O 0.4187(3) 0.3066(5) 0.18677(10)
O29 O 0.4691(3) 0.0770(4) 0.18697(12)
O31 O 0.2455(6) 0.0606(10) 0.2500
H23 H 0.2102 0.9896 0.2732
H24 H 0.2102 0.9896 0.2268
Fe1_5 Fe -0.0000 -0.0000 -0.0000
N9_2 N 0.1294(3) 0.1753(5) 0.05030(12)
N14_2 N 0.0770(3) 0.2508(6) 0.07822(15)
C8_2 C 0.2690(3) 0.2440(5) 0.05959(14)
N23_2 N 0.1806(4) 0.3604(7) 0.10392(16)
N24_2 N 0.3024(3) 0.3583(5) 0.09256(12)
H9_2 H 0.3348 0.2167 0.0452
C13_2 C 0.4407(4) 0.4716(7) 0.11308(15)
H18_2 H 0.5128 0.4962 0.0819
H19_2 H 0.4338 0.5583 0.1213
C18_2 C 0.4923(4) 0.4311(7) 0.16712(13)
Fe1_6 Fe -0.0000 -0.0000 1.0000
N1_2 N 0.1753(3) 0.0459(4) 0.94970(12)
N2_2 N 0.2508(4) 0.1738(5) 0.92178(15)
N3_2 N 0.3604(4) 0.1798(6) 0.89608(16)
N4_2 N 0.3583(3) 0.0559(4) 0.90744(12)
C2_2 C 0.4716(4) 0.0309(6) 0.88692(15)
H3_2 H 0.5583 0.1245 0.8787
H4_2 H 0.7898 0.0104 0.7268
C4_2 C 0.0250(4) 0.2690(5) 0.94041(14)
H5_2 H 0.1181 0.3348 0.9548
H10_2 H 0.0166 0.5128 0.9181
C14_2 C 0.0612(6) 0.4923(7) 0.83288(13)
O9_2 O 0.1121(4) 0.4187(5) 0.81323(10)
O10_2 O 0.0770(4) 0.6079(5) 0.81303(12)
O23_2 O 0.3921(3) 0.4691(5) 0.81303(12)
O25 O 0.3334 0.6667 0.7500
O26_2 O 0.1849(8) 0.2455(13) 0.7500
H20_2 H 0.7898 0.0104 0.7732
H21_2 H 0.2206 0.2102 0.7732
H22_2 H 0.2206 0.2102 0.7268
Fe1_7 Fe -0.0000 1.0000 -0.0000
N8_2 N 0.0459(4) 0.8706(5) 0.05030(12)
N13_2 N 0.1738(5) 0.9230(6) 0.07822(15)
N21_2 N 0.1798(6) 0.8194(7) 0.10392(16)
N22_2 N 0.0559(4) 0.6976(5) 0.09256(12)
C12_2 C 0.0309(6) 0.5593(7) 0.11308(15)
H17_2 H 0.1245 0.5662 0.1213
Fe1_8 Fe -0.0000 1.0000 1.0000
C1_2 C 0.2440(3) 0.9750(4) 0.94041(14)
H1_2 H 0.2167 0.8819 0.9548
H2_2 H 0.4962 0.9834 0.9181
C3_2 C 0.4311(4) 0.9388(6) 0.83288(13)
O5_2 O 0.3066(3) 0.8879(4) 0.81323(10)
O6_2 O 0.5309(3) 0.9230(4) 0.81303(12)
O8_2 O 0.7545(6) 0.9394(10) 0.7500
O20_2 O 0.5813(3) 0.6934(5) 0.81323(10)
Fe1_9 Fe 1.0000 -0.0000 -0.0000
C6_2 C 0.7560(3) 0.0250(4) 0.05959(14)
H7_2 H 0.7833 0.1181 0.0452
H14_2 H 0.5038 0.0166 0.0819
C16_2 C 0.5689(4) 0.0612(6) 0.16712(13)
Fe1_10 Fe 1.0000 -0.0000 1.0000
N5_2 N 0.9541(4) 0.1294(5) 0.94970(12)
N10_2 N 0.8262(5) 0.0770(6) 0.92178(15)
N15_2 N 0.8202(6) 0.1806(7) 0.89608(16)
N16_2 N 0.9441(4) 0.3024(5) 0.90744(12)
C9_2 C 0.9691(6) 0.4407(7) 0.88692(15)
H11_2 H 0.8755 0.4338 0.8787
Fe1_11 Fe 1.0000 1.0000 -0.0000
N7_2 N 0.8247(3) 0.9541(4) 0.05030(12)
N12_2 N 0.7492(4) 0.8262(5) 0.07822(15)
C7_2 C 0.9750(4) 0.7310(5) 0.05959(14)
N19_2 N 0.6396(4) 0.8202(6) 0.10392(16)
N20_2 N 0.6417(3) 0.9441(4) 0.09256(12)
H8_2 H 0.8819 0.6652 0.0452
C11_2 C 0.5284(4) 0.9691(6) 0.11308(15)
H15_2 H 0.4417 0.8755 0.1213
H16_2 H 0.9834 0.4872 0.0819
C17_2 C 0.9388(6) 0.5077(7) 0.16712(13)
Fe1_12 Fe 1.0000 1.0000 1.0000
N6_2 N 0.8706(3) 0.8247(5) 0.94970(12)
N11_2 N 0.9230(3) 0.7492(6) 0.92178(15)
C5_2 C 0.7310(3) 0.7560(5) 0.94041(14)
N17_2 N 0.8194(4) 0.6396(7) 0.89608(16)
N18_2 N 0.6976(3) 0.6417(5) 0.90744(12)
H6_2 H 0.6652 0.7833 0.9548
C10_2 C 0.5593(4) 0.5284(7) 0.88692(15)
H12_2 H 0.4872 0.5038 0.9181
H13_2 H 0.5662 0.4417 0.8787
C15_2 C 0.5077(4) 0.5689(7) 0.83288(13)
O8_3 O 0.0606(10) 0.8151(8) 0.7500
H4_3 H 0.9896 0.7794 0.7268
H20_3 H 0.9896 0.7794 0.7732
loop_
_geom_bond_atom_site_label_1
_geom_bond_atom_site_label_2
_geom_bond_site_symmetry_1
_geom_bond_site_symmetry_2
Cl1 O1 1_555 1_555
O2 Cl1 1_555 1_555
O3 Cl1 1_555 1_555
O4 Cl1 1_555 1_555
Cl1_2 O1_2 1_555 1_555
O2_2 Cl1_2 1_555 1_555
O3_2 Cl1_2 1_555 1_555
O4_2 Cl1_2 1_555 1_555
Cl1_3 O1_3 1_555 1_555
O2_3 Cl1_3 1_555 1_555
O3_3 Cl1_3 1_555 1_555
O4_3 Cl1_3 1_555 1_555
Cl1_4 O1_4 1_555 1_555
O2_4 Cl1_4 1_555 1_555
O3_4 Cl1_4 1_555 1_555
O4_4 Cl1_4 1_555 1_555
Fe1 N1 1_555 1_555
N1 N2 1_555 1_555
N2 N3 1_555 1_555
C1 N1 1_555 1_555
N3 N4 1_555 1_555
N4 C1 1_555 1_555
H1 C1 1_555 1_555
C2 N4 1_555 1_555
H2 C2 1_555 1_555
H3 C2 1_555 1_555
C3 C2 1_555 1_555
O5 C3 1_555 1_555
O6 C3 1_555 1_555
Fe2 O5 1_555 1_555
O7 Fe2 1_555 1_555
O8 H4 1_555 1_555
N8 Fe1 1_555 1_555
N13 N8 1_555 1_555
N21 N13 1_555 1_555
H9 C8 1_555 1_555
C12 N22 1_555 1_555
H17 C12 1_555 1_555
O17 C18 1_555 1_555
O18 C18 1_555 1_555
Fe3 O6 1_555 1_555
Fe12 O17 1_555 1_555
Fe13 O18 1_555 1_555
O19 Fe3 1_555 1_555
O20 Fe3 1_555 1_555
O21 Fe3 1_555 1_555
Fe14 O7 1_555 1_555
H20 O8 1_555 1_555
O7 Fe3 1_555 1_555
O8 Fe3 1_555 1_555
N21 N22 1_555 1_555
N6 Fe1_2 1_555 1_555
N11 N6 1_555 1_555
N17 N11 1_555 1_555
H8 C7 1_555 1_555
C10 N18 1_555 1_555
H13 C10 1_555 1_555
O15 C17 1_555 1_555
O16 C17 1_555 1_555
Fe13 O15 1_555 1_555
Fe11 O16 1_555 1_555
N17 N18 1_555 1_555
N9 Fe1_3 1_555 1_555
N14 N9 1_555 1_555
H5 C4 1_555 1_555
N23 N14 1_555 1_555
C13 N24 1_555 1_555
H19 C13 1_555 1_555
O9 C14 1_555 1_555
O10 C14 1_555 1_555
Fe14 O9 1_555 1_555
Fe2 O10 1_555 1_555
O22 Fe14 1_555 1_555
O23 Fe14 1_555 1_555
O24 Fe14 1_555 1_555
O26 Fe14 1_555 1_555
N23 N24 1_555 1_555
N5 Fe1_4 1_555 1_555
N7 Fe1_4 1_555 1_555
N10 N5 1_555 1_555
N12 N7 1_555 1_555
C6 N7 1_555 1_555
N15 N10 1_555 1_555
H6 C5 1_555 1_555
N19 N12 1_555 1_555
N20 C6 1_555 1_555
H7 C6 1_555 1_555
C9 N16 1_555 1_555
C11 N20 1_555 1_555
H11 C9 1_555 1_555
H14 C11 1_555 1_555
H15 C11 1_555 1_555
C16 C11 1_555 1_555
O20 C15 1_555 1_555
O23 C15 1_555 1_555
O13 C16 1_555 1_555
O14 C16 1_555 1_555
Fe11 O13 1_555 1_555
Fe12 O14 1_555 1_555
N15 N16 1_555 1_555
N19 N20 1_555 1_555
O27 Fe2 1_555 1_555
O29 Fe2 1_555 1_555
O31 Fe2 1_555 1_555
N9_2 Fe1_5 1_555 1_555
N14_2 N9_2 1_555 1_555
C8_2 N9_2 1_555 1_555
N23_2 N14_2 1_555 1_555
N24_2 C8_2 1_555 1_555
H9_2 C8_2 1_555 1_555
C13_2 N24_2 1_555 1_555
H18_2 C13_2 1_555 1_555
H19_2 C13_2 1_555 1_555
C18_2 C13_2 1_555 1_555
O27 C18_2 1_555 1_555
O21 C18_2 1_555 1_555
N23_2 N24_2 1_555 1_555
Fe1_6 N1_2 1_555 1_555
N1_2 N2_2 1_555 1_555
N2_2 N3_2 1_555 1_555
N3_2 N4_2 1_555 1_555
C2_2 N4_2 1_555 1_555
H3_2 C2_2 1_555 1_555
H5_2 C4_2 1_555 1_555
O9_2 C14_2 1_555 1_555
O10_2 C14_2 1_555 1_555
Fe12 O9_2 1_555 1_555
Fe13 O10_2 1_555 1_555
O23_2 Fe12 1_555 1_555
O25 Fe12 1_555 1_555
O26_2 Fe12 1_555 1_555
H21_2 O26_2 1_555 1_555
H22_2 O26_2 1_555 1_555
Fe13 O25 1_555 1_555
N8_2 Fe1_7 1_555 1_555
N13_2 N8_2 1_555 1_555
N21_2 N13_2 1_555 1_555
C12_2 N22_2 1_555 1_555
H17_2 C12_2 1_555 1_555
N21_2 N22_2 1_555 1_555
H1_2 C1_2 1_555 1_555
O5_2 C3_2 1_555 1_555
O6_2 C3_2 1_555 1_555
Fe13 O5_2 1_555 1_555
Fe11 O6_2 1_555 1_555
O20_2 Fe11 1_555 1_555
O25 Fe11 1_555 1_555
O8_2 Fe11 1_555 1_555
H7_2 C6_2 1_555 1_555
O22 C16_2 1_555 1_555
O29 C16_2 1_555 1_555
N5_2 Fe1_10 1_555 1_555
N10_2 N5_2 1_555 1_555
N15_2 N10_2 1_555 1_555
C9_2 N16_2 1_555 1_555
H11_2 C9_2 1_555 1_555
N15_2 N16_2 1_555 1_555
N7_2 Fe1_11 1_555 1_555
N12_2 N7_2 1_555 1_555
N19_2 N12_2 1_555 1_555
H8_2 C7_2 1_555 1_555
C11_2 N20_2 1_555 1_555
H15_2 C11_2 1_555 1_555
O19 C17_2 1_555 1_555
O24 C17_2 1_555 1_555
N19_2 N20_2 1_555 1_555
N6_2 Fe1_12 1_555 1_555
N11_2 N6_2 1_555 1_555
C5_2 N6_2 1_555 1_555
N17_2 N11_2 1_555 1_555
N18_2 C5_2 1_555 1_555
H6_2 C5_2 1_555 1_555
C10_2 N18_2 1_555 1_555
H12_2 C10_2 1_555 1_555
H13_2 C10_2 1_555 1_555
C15_2 C10_2 1_555 1_555
O20_2 C15_2 1_555 1_555
O23_2 C15_2 1_555 1_555
N17_2 N18_2 1_555 1_555
O8_3 Fe13 1_555 1_555

#END
