
###############################################################################
#
# This file contains modified crystal structure data generated from the
# MOF subset of the Cambridge Structural Database (CSD) v543 
# hosted by the Cambridge Crystallographic Data Centre (CCDC).
#
# This work is licensed under the Creative Commons
# Attribution-NonCommercial-ShareAlike 4.0 International License.
# To view a copy of this license, visit
# http://creativecommons.org/licenses/by-nc-sa/4.0/
# or send a letter to
# Creative Commons, PO Box 1866, Mountain View, CA 94042, USA.
#
# CIF created using the CSD Python API on 29 September 2022
# The structure has been converted into the P1 space group
# The structure has a 3D framework
# The original CSD entry DIYWIT is in the monoclinic crystal system
# The framework has been calculated to contain at least 10.0% void space
# The void calculation uses a probe of radius 1.32A, grid spacing 0.4
#
###############################################################################

data_DIYWIT
_chemical_formula_moiety         '(C120 H96 Cd8 N16 O40)n'
_symmetry_cell_setting           triclinic
_symmetry_space_group_name_H-M   'P 1'
_symmetry_Int_Tables_number      1
_space_group_name_Hall           'P 1'
loop_
_symmetry_equiv_pos_site_id
_symmetry_equiv_pos_as_xyz
1 x,y,z
_cell_length_a                   11.128(5)
_cell_length_b                   14.055(6)
_cell_length_c                   22.979(10)
_cell_angle_alpha                90
_cell_angle_beta                 103.992(5)
_cell_angle_gamma                90
_cell_volume                     3487.37
loop_
_atom_site_label
_atom_site_type_symbol
_atom_site_fract_x
_atom_site_fract_y
_atom_site_fract_z
Cd2 Cd 0.06686(2) 0.67120(2) 0.192861(11)
H2 H 0.0481 0.8677 0.2226
O2 O 0.0653(2) 0.4996(2) 0.19159(12)
H3 H 0.0047 0.4892 0.2073
H4 H 0.1382 0.4790 0.2060
H21 H 0.0186 0.4505 0.5791
H24 H 0.0077 0.4379 0.6862
N5 N 0.1042(3) 0.6591(3) 0.29304(15)
O13 O 0.2512(2) 0.7512(2) 0.20543(14)
O14 O 0.2240(2) 0.6430(2) 0.13550(13)
Cd3 Cd 0.80139(2) 0.02606(2) 0.302245(11)
Cd1 Cd 0.69861(2) 0.52606(2) 0.197755(11)
N1 N 0.8958(3) 0.3409(3) 0.70696(15)
N2 N 0.9066(4) 0.3691(3) 0.61497(16)
N3 N 0.6180(3) 0.6589(2) 0.35244(15)
N4 N 0.6647(3) 0.6248(2) 0.26743(14)
O1 O 0.9998(3) 0.8305(2) 0.19859(15)
H1 H 0.9856 0.7986 0.2277
O3 O 0.9337(2) 0.6787(2) 0.10165(11)
O4 O 0.8204(2) 0.62547(17) 0.16070(10)
O5 O 0.7878(2) 0.90145(18) 0.22300(11)
O6 O 0.6259(2) 0.95059(18) 0.25256(11)
C1 C 0.8332(3) 0.6478(2) 0.10917(15)
C2 C 0.7304(3) 0.6354(2) 0.05399(14)
C3 C 0.7621(3) 0.5889(3) 0.00633(15)
H5 H 0.8445 0.5731 0.0092
C7 C 0.6072(3) 0.6628(2) 0.04902(14)
C9 C 0.5651(3) 0.7146(2) 0.09748(14)
C10 C 0.4503(3) 0.6915(2) 0.10812(15)
H8 H 0.4017 0.6453 0.0846
C11 C 0.4073(3) 0.7357(2) 0.15283(15)
C12 C 0.4786(3) 0.8046(2) 0.18805(16)
H9 H 0.4492 0.8354 0.2177
C13 C 0.5947(3) 0.8281(2) 0.17916(15)
C14 C 0.6356(3) 0.7838(2) 0.13375(14)
H10 H 0.7122 0.8006 0.1273
C15 C 0.6749(3) 0.8976(2) 0.22034(15)
C16 C 0.2863(3) 0.7082(3) 0.16533(18)
C17 C 0.5921(4) 0.6047(3) 0.30299(18)
H11 H 0.5304 0.5586 0.2949
C18 C 0.7147(4) 0.7162(3) 0.3483(2)
H12 H 0.7538 0.7610 0.3763
C19 C 0.7429(4) 0.6955(3) 0.29597(19)
H13 H 0.8050 0.7242 0.2814
C20 C 0.5707(5) 0.6430(4) 0.4064(2)
H14 H 0.4909 0.6114 0.3953
H15 H 0.5601 0.7035 0.4248
C21 C 0.6623(5) 0.5818(4) 0.4503(2)
C22 C 0.7431(5) 0.6195(4) 0.4990(2)
H16 H 0.7371 0.6836 0.5079
C23 C 0.8339(6) 0.5644(4) 0.5356(2)
H17 H 0.8882 0.5927 0.5681
C24 C 0.8457(6) 0.4710(4) 0.5253(2)
C25 C 0.7615(7) 0.4319(4) 0.4775(2)
H18 H 0.7661 0.3672 0.4700
C26 C 0.6699(7) 0.4856(4) 0.4402(3)
H19 H 0.6137 0.4568 0.4085
C27 C 0.9460(6) 0.4113(4) 0.5640(2)
H20 H 0.9688 0.3609 0.5400
C28 C 0.8203(6) 0.3003(4) 0.6126(2)
H22 H 0.7741 0.2709 0.5781
C29 C 0.8136(6) 0.2824(4) 0.6691(2)
H23 H 0.7621 0.2378 0.6806
C30 C 0.9482(4) 0.3915(3) 0.6723(2)
Cd6 Cd 0.93314(2) 0.32880(2) 0.807139(11)
O11 O 0.7122(2) 0.40145(18) 0.27700(11)
O12 O 0.8741(2) 0.45059(18) 0.24744(11)
O15 O 0.6570(2) 0.42560(19) 0.10679(11)
O16 O 0.5097(2) 0.48326(19) 0.14539(11)
O9 O 0.3430(2) 0.57440(19) 0.89321(11)
O10 O 0.4903(2) 0.51674(19) 0.85461(11)
C4 C 0.6741(3) 0.5658(3) 0.95510(15)
H6 H 0.6971 0.5335 0.9241
C5 C 0.5512(3) 0.5906(2) 0.94954(15)
C6 C 0.5198(3) 0.6403(2) 0.99593(15)
H7 H 0.4381 0.6593 0.9916
C8 C 0.4549(3) 0.5605(2) 0.89572(15)
Cd4 Cd 0.30139(2) 0.47394(2) 0.802245(11)
O7 O 0.2488(2) 0.2512(2) 0.29457(14)
O8 O 0.2760(2) 0.1430(2) 0.36450(13)
O9_2 O 0.1570(2) 0.07440(19) 0.60679(11)
O10_2 O 0.0097(2) 0.01674(19) 0.64539(11)
H7_2 H 0.0619 0.1593 0.5084
C8_2 C 0.0451(3) 0.0605(2) 0.60428(15)
C10_2 C 0.0497(3) 0.1915(2) 0.39188(15)
H8_2 H 0.0983 0.1453 0.4154
C11_2 C 0.0927(3) 0.2357(2) 0.34717(15)
C12_2 C 0.0214(3) 0.3046(2) 0.31195(16)
H9_2 H 0.0508 0.3354 0.2823
C16_2 C 0.2137(3) 0.2082(3) 0.33467(18)
H14_2 H 0.0091 0.1114 0.1047
Cd5 Cd 0.43314(2) 0.17120(2) 0.307139(11)
Cd4_2 Cd 0.19861(2) 0.97394(2) 0.697755(11)
N3_2 N 0.8820(3) 0.1589(2) 0.14756(15)
N4_2 N 0.8353(3) 0.1248(2) 0.23257(14)
O1_2 O 0.5002(3) 0.3305(2) 0.30141(15)
H1_2 H 0.5144 0.2986 0.2723
H2_2 H 0.4519 0.3677 0.2774
O3_2 O 0.5663(2) 0.1787(2) 0.39835(11)
O4_2 O 0.6796(2) 0.12547(17) 0.33930(10)
C1_2 C 0.6668(3) 0.1478(2) 0.39083(15)
C2_2 C 0.7696(3) 0.1354(2) 0.44601(14)
C3_2 C 0.7379(3) 0.0889(3) 0.49367(15)
H5_2 H 0.6555 0.0731 0.4908
C4_2 C 0.8259(3) 0.0658(3) 0.54490(15)
H6_2 H 0.8029 0.0335 0.5759
C5_2 C 0.9488(3) 0.0906(2) 0.55046(15)
C6_2 C 0.9802(3) 0.1403(2) 0.50407(15)
C7_2 C 0.8928(3) 0.1628(2) 0.45098(14)
C9_2 C 0.9349(3) 0.2146(2) 0.40252(14)
C13_2 C 0.9053(3) 0.3281(2) 0.32084(15)
C14_2 C 0.8644(3) 0.2838(2) 0.36625(14)
H10_2 H 0.7878 0.3006 0.3727
C15_2 C 0.8251(3) 0.3976(2) 0.27966(15)
C17_2 C 0.9079(4) 0.1047(3) 0.19701(18)
H11_2 H 0.9696 0.0586 0.2051
C18_2 C 0.7853(4) 0.2162(3) 0.1517(2)
H12_2 H 0.7462 0.2610 0.1237
C19_2 C 0.7571(4) 0.1955(3) 0.20403(19)
H13_2 H 0.6950 0.2242 0.2186
C20_2 C 0.9293(5) 0.1430(4) 0.0936(2)
H15_2 H 0.9399 0.2035 0.0752
C21_2 C 0.8377(5) 0.0818(4) 0.0497(2)
C22_2 C 0.7569(5) 0.1195(4) 0.0010(2)
N5_2 N 0.3958(3) 0.1591(3) 0.20696(15)
O2_2 O 0.4347(2) 0.9996(2) 0.30841(12)
H3_2 H 0.4953 0.9892 0.2927
H4_2 H 0.3618 0.9790 0.2940
C25_2 C 0.7385(7) 0.9319(4) 0.0225(2)
H18_2 H 0.7339 0.8672 0.0300
C26_2 C 0.8301(7) 0.9856(4) 0.0598(3)
H19_2 H 0.8863 0.9568 0.0915
O15_2 O 0.8430(2) 0.92560(19) 0.39321(11)
O16_2 O 0.9903(2) 0.98326(19) 0.35461(11)
N1_2 N 0.6042(3) 0.8409(3) 0.79304(15)
N2_2 N 0.5934(4) 0.8691(3) 0.88503(16)
C24_2 C 0.6543(6) 0.9710(4) 0.9747(2)
C27_2 C 0.5540(6) 0.9113(4) 0.9360(2)
H20_2 H 0.5312 0.8609 0.9600
H21_2 H 0.4814 0.9505 0.9209
C28_2 C 0.6797(6) 0.8003(4) 0.8874(2)
H22_2 H 0.7259 0.7709 0.9219
C29_2 C 0.6864(6) 0.7824(4) 0.8309(2)
H23_2 H 0.7379 0.7378 0.8194
C30_2 C 0.5518(4) 0.8915(3) 0.8277(2)
H24_2 H 0.4923 0.9379 0.8138
Cd6_2 Cd 0.56686(2) 0.82880(2) 0.692861(11)
C4_3 C 0.3259(3) 0.4342(3) 0.04490(15)
H6_3 H 0.3029 0.4665 0.0759
C5_3 C 0.4488(3) 0.4094(2) 0.05046(15)
C6_3 C 0.4802(3) 0.3597(2) 0.00407(15)
H7_3 H 0.5619 0.3407 0.0084
C8_3 C 0.5451(3) 0.4395(2) 0.10428(15)
N2_3 N 0.0934(4) 0.6309(3) 0.38503(16)
N3_3 N 0.3820(3) 0.3411(2) 0.64756(15)
N4_3 N 0.3353(3) 0.3752(2) 0.73257(14)
O1_3 O 0.0002(3) 0.1695(2) 0.80141(15)
H1_3 H 0.0144 0.2014 0.7723
O3_3 O 0.0663(2) 0.3213(2) 0.89835(11)
O4_3 O 0.1796(2) 0.37453(17) 0.83930(10)
O5_2 O 0.2122(2) 0.09855(18) 0.77700(11)
O6_2 O 0.3741(2) 0.04941(18) 0.74744(11)
O7_2 O 0.7488(2) 0.2488(2) 0.79457(14)
O8_2 O 0.7760(2) 0.3570(2) 0.86450(13)
C1_3 C 0.1668(3) 0.3522(2) 0.89083(15)
C2_3 C 0.2696(3) 0.3646(2) 0.94601(14)
C3_3 C 0.2379(3) 0.4111(3) 0.99367(15)
H5_3 H 0.1555 0.4269 0.9908
C7_3 C 0.3928(3) 0.3372(2) 0.95098(14)
C9_3 C 0.4349(3) 0.2854(2) 0.90252(14)
C10_3 C 0.5497(3) 0.3085(2) 0.89188(15)
H8_3 H 0.5983 0.3547 0.9154
C11_3 C 0.5927(3) 0.2643(2) 0.84717(15)
C12_3 C 0.5214(3) 0.1954(2) 0.81195(16)
H9_3 H 0.5508 0.1646 0.7823
C13_3 C 0.4053(3) 0.1719(2) 0.82084(15)
C14_3 C 0.3644(3) 0.2162(2) 0.86625(14)
H10_3 H 0.2878 0.1994 0.8727
C15_3 C 0.3251(3) 0.1024(2) 0.77966(15)
C16_3 C 0.7137(3) 0.2918(3) 0.83467(18)
C17_3 C 0.4079(4) 0.3953(3) 0.69701(18)
H11_3 H 0.4696 0.4414 0.7051
C18_3 C 0.2853(4) 0.2838(3) 0.6517(2)
H12_3 H 0.2462 0.2390 0.6237
C19_3 C 0.2571(4) 0.3045(3) 0.70403(19)
H13_3 H 0.1950 0.2758 0.7186
C20_3 C 0.4293(5) 0.3570(4) 0.5936(2)
H14_3 H 0.5091 0.3886 0.6047
H15_3 H 0.4399 0.2965 0.5752
C21_3 C 0.3377(5) 0.4182(4) 0.5497(2)
C22_3 C 0.2569(5) 0.3805(4) 0.5010(2)
H16_2 H 0.2629 0.3164 0.4921
C23_2 C 0.1661(6) 0.4356(4) 0.4644(2)
H17_2 H 0.1118 0.4073 0.4319
C24_3 C 0.1543(6) 0.5290(4) 0.4747(2)
C25_3 C 0.2385(7) 0.5681(4) 0.5225(2)
H18_3 H 0.2339 0.6328 0.5300
C26_3 C 0.3301(7) 0.5144(4) 0.5598(3)
H19_3 H 0.3863 0.5432 0.5915
C27_3 C 0.0540(6) 0.5887(4) 0.4360(2)
H20_3 H 0.0312 0.6391 0.4600
C28_3 C 0.1797(6) 0.6997(4) 0.3874(2)
H22_3 H 0.2259 0.7291 0.4219
C29_3 C 0.1864(6) 0.7176(4) 0.3309(2)
H23_3 H 0.2379 0.7622 0.3194
C30_3 C 0.0518(4) 0.6085(3) 0.3277(2)
O11_2 O 0.2878(2) 0.59855(18) 0.72300(11)
O12_2 O 0.1259(2) 0.54941(18) 0.75256(11)
H2_3 H 0.9519 0.1323 0.7774
O2_3 O 0.9347(2) 0.5004(2) 0.80841(12)
H3_3 H 0.9953 0.5108 0.7927
H4_3 H 0.8618 0.5210 0.7940
H21_3 H 0.9814 0.5495 0.4209
H24_3 H 0.9923 0.5621 0.3138
N2_4 N 0.4066(4) 0.1309(3) 0.11497(16)
C24_4 C 0.3457(6) 0.0290(4) 0.0253(2)
C27_4 C 0.4460(6) 0.0887(4) 0.0640(2)
H20_4 H 0.4688 0.1391 0.0400
H21_4 H 0.5186 0.0495 0.0791
C28_4 C 0.3203(6) 0.1997(4) 0.1126(2)
H22_4 H 0.2741 0.2291 0.0781
C29_4 C 0.3136(6) 0.2176(4) 0.1691(2)
H23_4 H 0.2621 0.2622 0.1806
C30_4 C 0.4482(4) 0.1085(3) 0.1723(2)
H24_4 H 0.5077 0.0621 0.1862
O2_4 O 0.5653(2) 0.0004(2) 0.69159(12)
H3_4 H 0.5047 0.0108 0.7073
H4_4 H 0.6382 0.0210 0.7060
C25_4 C 0.2615(7) 0.0681(4) 0.9775(2)
H18_4 H 0.2661 0.1328 0.9700
C26_4 C 0.1699(7) 0.0144(4) 0.9402(3)
H19_4 H 0.1137 0.0432 0.9085
N3_4 N 0.1180(3) 0.8411(2) 0.85244(15)
N4_4 N 0.1647(3) 0.8752(2) 0.76743(14)
O1_4 O 0.4998(3) 0.6695(2) 0.69859(15)
H1_4 H 0.4856 0.7014 0.7277
H2_4 H 0.5481 0.6323 0.7226
O3_4 O 0.4337(2) 0.8213(2) 0.60165(11)
O4_4 O 0.3204(2) 0.87453(17) 0.66070(10)
C1_4 C 0.3332(3) 0.8522(2) 0.60917(15)
C2_4 C 0.2304(3) 0.8646(2) 0.55399(14)
C3_4 C 0.2621(3) 0.9111(3) 0.50633(15)
H5_4 H 0.3445 0.9269 0.5092
C4_4 C 0.1741(3) 0.9342(3) 0.45510(15)
H6_4 H 0.1971 0.9665 0.4241
C5_4 C 0.0512(3) 0.9094(2) 0.44954(15)
C6_4 C 0.0198(3) 0.8597(2) 0.49593(15)
C7_4 C 0.1072(3) 0.8372(2) 0.54902(14)
C9_4 C 0.0651(3) 0.7854(2) 0.59748(14)
C13_4 C 0.0947(3) 0.6719(2) 0.67916(15)
C14_4 C 0.1356(3) 0.7162(2) 0.63375(14)
H10_4 H 0.2122 0.6994 0.6273
C15_4 C 0.1749(3) 0.6024(2) 0.72034(15)
C17_4 C 0.0921(4) 0.8953(3) 0.80299(18)
H11_4 H 0.0304 0.9414 0.7949
C18_4 C 0.2147(4) 0.7838(3) 0.8483(2)
H12_4 H 0.2538 0.7390 0.8763
C19_4 C 0.2429(4) 0.8045(3) 0.79597(19)
H13_4 H 0.3050 0.7758 0.7814
C20_4 C 0.0707(5) 0.8570(4) 0.9064(2)
H15_4 H 0.0601 0.7965 0.9248
C21_4 C 0.1623(5) 0.9182(4) 0.9503(2)
C22_4 C 0.2431(5) 0.8805(4) 0.9990(2)
O13_2 O 0.7512(2) 0.7488(2) 0.70543(14)
O14_2 O 0.7240(2) 0.8570(2) 0.63550(13)
H7_4 H 0.9381 0.8407 0.4916
C8_4 C 0.9549(3) 0.9395(2) 0.39572(15)
C10_4 C 0.9503(3) 0.8085(2) 0.60812(15)
H8_4 H 0.9017 0.8547 0.5846
C11_4 C 0.9073(3) 0.7643(2) 0.65283(15)
C12_4 C 0.9786(3) 0.6954(2) 0.68805(16)
H9_4 H 0.9492 0.6646 0.7177
C16_4 C 0.7863(3) 0.7918(3) 0.66533(18)
H14_4 H 0.9909 0.8886 0.8953
H16_3 H 0.7629 0.1836 0.9921
C23_3 C 0.6661(6) 0.0644(4) 0.9644(2)
H17_3 H 0.6118 0.0927 0.9319
H16_4 H 0.2371 0.8164 0.0079
C23_4 C 0.3339(6) 0.9356(4) 0.0356(2)
H17_4 H 0.3882 0.9073 0.0681
loop_
_geom_bond_atom_site_label_1
_geom_bond_atom_site_label_2
_geom_bond_site_symmetry_1
_geom_bond_site_symmetry_2
O2 Cd2 1_555 1_555
H3 O2 1_555 1_555
H4 O2 1_555 1_555
N5 Cd2 1_555 1_555
O13 Cd2 1_555 1_555
O14 Cd2 1_555 1_555
Cd1 N4 1_555 1_555
N1 C29 1_555 1_555
N2 C27 1_555 1_555
N3 C17 1_555 1_555
N4 C17 1_555 1_555
O1 H1 1_555 1_555
O4 Cd1 1_555 1_555
O5 C15 1_555 1_555
O6 C15 1_555 1_555
O13 C16 1_555 1_555
O14 C16 1_555 1_555
C1 O3 1_555 1_555
C2 C1 1_555 1_555
C3 C2 1_555 1_555
H5 C3 1_555 1_555
C7 C2 1_555 1_555
C9 C7 1_555 1_555
C10 C9 1_555 1_555
H8 C10 1_555 1_555
C11 C10 1_555 1_555
C12 C11 1_555 1_555
H9 C12 1_555 1_555
C13 C12 1_555 1_555
C14 C9 1_555 1_555
H10 C14 1_555 1_555
C15 C13 1_555 1_555
C16 C11 1_555 1_555
C17 H11 1_555 1_555
C18 N3 1_555 1_555
H12 C18 1_555 1_555
C19 N4 1_555 1_555
H13 C19 1_555 1_555
C20 N3 1_555 1_555
H14 C20 1_555 1_555
H15 C20 1_555 1_555
C21 C20 1_555 1_555
C22 C21 1_555 1_555
H16 C22 1_555 1_555
C23 C22 1_555 1_555
H17 C23 1_555 1_555
C24 C23 1_555 1_555
C25 C24 1_555 1_555
H18 C25 1_555 1_555
C26 C21 1_555 1_555
H19 C26 1_555 1_555
C27 C24 1_555 1_555
H20 C27 1_555 1_555
C28 N2 1_555 1_555
H22 C28 1_555 1_555
C29 C28 1_555 1_555
H23 C29 1_555 1_555
C30 N1 1_555 1_555
Cd6 N1 1_555 1_555
O11 Cd1 1_555 1_555
O12 Cd1 1_555 1_555
O15 Cd1 1_555 1_555
O16 Cd1 1_555 1_555
N2 C30 1_555 1_555
O4 C1 1_555 1_555
C13 C14 1_555 1_555
C18 C19 1_555 1_555
C25 C26 1_555 1_555
O9 C8 1_555 1_555
O10 C8 1_555 1_555
H6 C4 1_555 1_555
C5 C4 1_555 1_555
C6 C5 1_555 1_555
H7 C6 1_555 1_555
C8 C5 1_555 1_555
Cd4 O9 1_555 1_555
O10 Cd4 1_555 1_555
O7 C16_2 1_555 1_555
O8 C16_2 1_555 1_555
O9_2 C8_2 1_555 1_555
O10_2 C8_2 1_555 1_555
H8_2 C10_2 1_555 1_555
C11_2 C10_2 1_555 1_555
C12_2 C11_2 1_555 1_555
H9_2 C12_2 1_555 1_555
C16_2 C11_2 1_555 1_555
Cd5 O7 1_555 1_555
O8 Cd5 1_555 1_555
Cd3 N4_2 1_555 1_555
Cd5 O1_2 1_555 1_555
N3_2 C17_2 1_555 1_555
N4_2 C17_2 1_555 1_555
O1_2 H1_2 1_555 1_555
H2_2 O1_2 1_555 1_555
O3_2 Cd5 1_555 1_555
O4_2 Cd3 1_555 1_555
O11 C15_2 1_555 1_555
O12 C15_2 1_555 1_555
C1_2 O3_2 1_555 1_555
C2_2 C1_2 1_555 1_555
C3_2 C2_2 1_555 1_555
H5_2 C3_2 1_555 1_555
C4_2 C3_2 1_555 1_555
H6_2 C4_2 1_555 1_555
C5_2 C4_2 1_555 1_555
C6_2 C5_2 1_555 1_555
C7_2 C2_2 1_555 1_555
C9_2 C7_2 1_555 1_555
C14_2 C9_2 1_555 1_555
H10_2 C14_2 1_555 1_555
C15_2 C13_2 1_555 1_555
C17_2 H11_2 1_555 1_555
C18_2 N3_2 1_555 1_555
H12_2 C18_2 1_555 1_555
C19_2 N4_2 1_555 1_555
H13_2 C19_2 1_555 1_555
C20_2 N3_2 1_555 1_555
H15_2 C20_2 1_555 1_555
C21_2 C20_2 1_555 1_555
C22_2 C21_2 1_555 1_555
N5_2 Cd5 1_555 1_555
Cd5 O4_2 1_555 1_555
O4_2 C1_2 1_555 1_555
C6_2 C7_2 1_555 1_555
C13_2 C14_2 1_555 1_555
C18_2 C19_2 1_555 1_555
H3_2 O2_2 1_555 1_555
H4_2 O2_2 1_555 1_555
H18_2 C25_2 1_555 1_555
H19_2 C26_2 1_555 1_555
C25_2 C26_2 1_555 1_555
N1_2 C29_2 1_555 1_555
N2_2 C27_2 1_555 1_555
C27_2 C24_2 1_555 1_555
H20_2 C27_2 1_555 1_555
H21_2 C27_2 1_555 1_555
C28_2 N2_2 1_555 1_555
H22_2 C28_2 1_555 1_555
C29_2 C28_2 1_555 1_555
H23_2 C29_2 1_555 1_555
C30_2 N1_2 1_555 1_555
H24_2 C30_2 1_555 1_555
Cd6_2 N1_2 1_555 1_555
N2_2 C30_2 1_555 1_555
O15 C8_3 1_555 1_555
O16 C8_3 1_555 1_555
H6_3 C4_3 1_555 1_555
C5_3 C4_3 1_555 1_555
C6_3 C5_3 1_555 1_555
H7_3 C6_3 1_555 1_555
C8_3 C5_3 1_555 1_555
Cd4 N4_3 1_555 1_555
N5 C29_3 1_555 1_555
N2_3 C27_3 1_555 1_555
N3_3 C17_3 1_555 1_555
N4_3 C17_3 1_555 1_555
O1_3 H1_3 1_555 1_555
O4_3 Cd4 1_555 1_555
O5_2 C15_3 1_555 1_555
O6_2 C15_3 1_555 1_555
O7_2 C16_3 1_555 1_555
O8_2 C16_3 1_555 1_555
C1_3 O3_3 1_555 1_555
C2_3 C1_3 1_555 1_555
C3_3 C2_3 1_555 1_555
H5_3 C3_3 1_555 1_555
C7_3 C2_3 1_555 1_555
C9_3 C7_3 1_555 1_555
C10_3 C9_3 1_555 1_555
H8_3 C10_3 1_555 1_555
C11_3 C10_3 1_555 1_555
C12_3 C11_3 1_555 1_555
H9_3 C12_3 1_555 1_555
C13_3 C12_3 1_555 1_555
C14_3 C9_3 1_555 1_555
H10_3 C14_3 1_555 1_555
C15_3 C13_3 1_555 1_555
C16_3 C11_3 1_555 1_555
C17_3 H11_3 1_555 1_555
C18_3 N3_3 1_555 1_555
H12_3 C18_3 1_555 1_555
C19_3 N4_3 1_555 1_555
H13_3 C19_3 1_555 1_555
C20_3 N3_3 1_555 1_555
H14_3 C20_3 1_555 1_555
H15_3 C20_3 1_555 1_555
C21_3 C20_3 1_555 1_555
C22_3 C21_3 1_555 1_555
H16_2 C22_3 1_555 1_555
C23_2 C22_3 1_555 1_555
H17_2 C23_2 1_555 1_555
C24_3 C23_2 1_555 1_555
C25_3 C24_3 1_555 1_555
H18_3 C25_3 1_555 1_555
C26_3 C21_3 1_555 1_555
H19_3 C26_3 1_555 1_555
C27_3 C24_3 1_555 1_555
H20_3 C27_3 1_555 1_555
C28_3 N2_3 1_555 1_555
H22_3 C28_3 1_555 1_555
C29_3 C28_3 1_555 1_555
H23_3 C29_3 1_555 1_555
C30_3 N5 1_555 1_555
Cd6 O7_2 1_555 1_555
O11_2 Cd4 1_555 1_555
O12_2 Cd4 1_555 1_555
N2_3 C30_3 1_555 1_555
O4_3 C1_3 1_555 1_555
O8_2 Cd6 1_555 1_555
C13_3 C14_3 1_555 1_555
C18_3 C19_3 1_555 1_555
C25_3 C26_3 1_555 1_555
O2_3 Cd6 1_555 1_555
H3_3 O2_3 1_555 1_555
H4_3 O2_3 1_555 1_555
N5_2 C29_4 1_555 1_555
N2_4 C27_4 1_555 1_555
C27_4 C24_4 1_555 1_555
H20_4 C27_4 1_555 1_555
H21_4 C27_4 1_555 1_555
C28_4 N2_4 1_555 1_555
H22_4 C28_4 1_555 1_555
C29_4 C28_4 1_555 1_555
H23_4 C29_4 1_555 1_555
C30_4 N5_2 1_555 1_555
H24_4 C30_4 1_555 1_555
N2_4 C30_4 1_555 1_555
H3_4 O2_4 1_555 1_555
H4_4 O2_4 1_555 1_555
H18_4 C25_4 1_555 1_555
H19_4 C26_4 1_555 1_555
C25_4 C26_4 1_555 1_555
Cd4_2 N4_4 1_555 1_555
Cd6_2 O1_4 1_555 1_555
N3_4 C17_4 1_555 1_555
N4_4 C17_4 1_555 1_555
O1_4 H1_4 1_555 1_555
H2_4 O1_4 1_555 1_555
O3_4 Cd6_2 1_555 1_555
O4_4 Cd4_2 1_555 1_555
O11_2 C15_4 1_555 1_555
O12_2 C15_4 1_555 1_555
C1_4 O3_4 1_555 1_555
C2_4 C1_4 1_555 1_555
C3_4 C2_4 1_555 1_555
H5_4 C3_4 1_555 1_555
C4_4 C3_4 1_555 1_555
H6_4 C4_4 1_555 1_555
C5_4 C4_4 1_555 1_555
C6_4 C5_4 1_555 1_555
C7_4 C2_4 1_555 1_555
C9_4 C7_4 1_555 1_555
C14_4 C9_4 1_555 1_555
H10_4 C14_4 1_555 1_555
C15_4 C13_4 1_555 1_555
C17_4 H11_4 1_555 1_555
C18_4 N3_4 1_555 1_555
H12_4 C18_4 1_555 1_555
C19_4 N4_4 1_555 1_555
H13_4 C19_4 1_555 1_555
C20_4 N3_4 1_555 1_555
H15_4 C20_4 1_555 1_555
C21_4 C20_4 1_555 1_555
C22_4 C21_4 1_555 1_555
O13_2 Cd6_2 1_555 1_555
O14_2 Cd6_2 1_555 1_555
Cd6_2 O4_4 1_555 1_555
O4_4 C1_4 1_555 1_555
C6_4 C7_4 1_555 1_555
C13_4 C14_4 1_555 1_555
C18_4 C19_4 1_555 1_555
O13_2 C16_4 1_555 1_555
O14_2 C16_4 1_555 1_555
O15_2 C8_4 1_555 1_555
O16_2 C8_4 1_555 1_555
H8_4 C10_4 1_555 1_555
C11_4 C10_4 1_555 1_555
C12_4 C11_4 1_555 1_555
H9_4 C12_4 1_555 1_555
C16_4 C11_4 1_555 1_555
H17_3 C23_3 1_555 1_555
H17_4 C23_4 1_555 1_555

#END
