
###############################################################################
#
# This file contains modified crystal structure data generated from the
# MOF subset of the Cambridge Structural Database (CSD) v543 
# hosted by the Cambridge Crystallographic Data Centre (CCDC).
#
# This work is licensed under the Creative Commons
# Attribution-NonCommercial-ShareAlike 4.0 International License.
# To view a copy of this license, visit
# http://creativecommons.org/licenses/by-nc-sa/4.0/
# or send a letter to
# Creative Commons, PO Box 1866, Mountain View, CA 94042, USA.
#
# CIF created using the CSD Python API on 29 September 2022
# The structure has been converted into the P1 space group
# The structure has a 3D framework
# The original CSD entry DIZDAT is in the monoclinic crystal system
# The framework has been calculated to contain at least 10.0% void space
# The void calculation uses a probe of radius 1.32A, grid spacing 0.4
#
###############################################################################

data_DIZDAT
_chemical_formula_moiety         '(C104 H80 N48 O24 Pb8 S8)n'
_symmetry_cell_setting           triclinic
_symmetry_space_group_name_H-M   'P 1'
_symmetry_Int_Tables_number      1
_space_group_name_Hall           'P 1'
loop_
_symmetry_equiv_pos_site_id
_symmetry_equiv_pos_as_xyz
1 x,y,z
_cell_length_a                   31.684(4)
_cell_length_b                   10.0017(12)
_cell_length_c                   13.3763(17)
_cell_angle_alpha                90
_cell_angle_beta                 106.607(3)
_cell_angle_gamma                90
_cell_volume                     4062.05
loop_
_atom_site_label
_atom_site_type_symbol
_atom_site_fract_x
_atom_site_fract_y
_atom_site_fract_z
Pb1 Pb 0.246458(6) 0.173727(18) 0.145186(14)
O1 O 0.25334(11) 0.3851(4) 0.2849(3)
O2 O 0.31156(14) 0.4457(4) 0.4065(3)
O3 O 0.31327(13) 0.2684(4) 0.3115(3)
S1 S 0.28856(7) 0.62536(16) 0.14398(14)
N1 N 0.27171(15) 0.3704(4) 0.0582(3)
N2 N 0.32135(14) 0.0794(4) 0.1275(3)
N6 N 0.29283(15) 0.3666(5) 0.3344(4)
C1 C 0.27902(17) 0.4779(5) 0.0950(4)
C5 C 0.39838(17) 0.1002(5) 0.1446(4)
H3 H 0.4238 0.1554 0.1579
C6 C 0.35808(17) 0.1540(5) 0.1452(4)
H4 H 0.3564 0.2469 0.1585
H6 H 0.5426 0.0635 0.1203
H10 H 0.6217 0.0834 0.1269
Pb3 Pb 0.253542(6) 0.673727(18) 0.354814(14)
N8 N 0.16835(15) 0.2955(5) 0.1146(4)
Pb4 Pb 0.253542(6) 0.326273(18) 0.854814(14)
N7 N 0.22829(15) 0.1296(4) 0.9418(3)
N3 N 0.47606(14) 0.9735(5) 0.1227(4)
N4 N 0.51267(14) 0.8944(5) 0.1194(4)
N5 N 0.66835(15) 0.7955(5) 0.1146(4)
C2 C 0.32388(17) 0.9483(5) 0.1069(4)
H1 H 0.2978 0.8959 0.0917
C3 C 0.36313(18) 0.8874(5) 0.1070(4)
H2 H 0.3641 0.7939 0.0955
C4 C 0.40126(17) 0.9648(6) 0.1243(4)
C7 C 0.44266(18) 0.9007(6) 0.1204(4)
H5 H 0.4445 0.8062 0.1161
C8 C 0.54528(17) 0.9690(6) 0.1190(4)
C9 C 0.58750(17) 0.9065(6) 0.1165(4)
C10 C 0.59274(18) 0.7695(6) 0.1114(5)
H7 H 0.5688 0.7109 0.1087
C11 C 0.63281(19) 0.7196(6) 0.1104(5)
H8 H 0.6358 0.6253 0.1065
C12 C 0.66365(17) 0.9293(5) 0.1223(4)
H9 H 0.6885 0.9849 0.1278
C13 C 0.62403(16) 0.9890(6) 0.1226(4)
Pb2 Pb 0.746458(6) 0.673727(18) 0.145186(14)
O4 O 0.18844(14) 0.9457(4) 0.0935(3)
Pb1_2 Pb 0.753542(6) 0.173727(18) 0.354814(14)
O1_2 O 0.74666(11) 0.3851(4) 0.2151(3)
O2_2 O 0.68844(14) 0.4457(4) 0.0935(3)
O3_2 O 0.68673(13) 0.2684(4) 0.1885(3)
S1_2 S 0.71144(7) 0.62536(16) 0.35602(14)
N1_2 N 0.72829(15) 0.3704(4) 0.4418(3)
N2_2 N 0.67865(14) 0.0794(4) 0.3725(3)
N6_2 N 0.70717(15) 0.3666(5) 0.1656(4)
C1_2 C 0.72098(17) 0.4779(5) 0.4050(4)
C5_2 C 0.60162(17) 0.1002(5) 0.3554(4)
H3_2 H 0.5762 0.1554 0.3421
C6_2 C 0.64192(17) 0.1540(5) 0.3548(4)
H4_2 H 0.6436 0.2469 0.3415
H6_2 H 0.4574 0.0635 0.3797
H10_2 H 0.3783 0.0834 0.3731
Pb4_2 Pb 0.746458(6) 0.326273(18) 0.645186(14)
N7_2 N 0.77171(15) 0.1296(4) 0.5582(3)
N8_2 N 0.83165(15) 0.2955(5) 0.3854(4)
N3_2 N 0.52394(14) 0.9735(5) 0.3773(4)
N4_2 N 0.48733(14) 0.8944(5) 0.3806(4)
N5_2 N 0.33165(15) 0.7955(5) 0.3854(4)
C2_2 C 0.67612(17) 0.9483(5) 0.3931(4)
H1_2 H 0.7022 0.8959 0.4083
C3_2 C 0.63687(18) 0.8874(5) 0.3930(4)
H2_2 H 0.6359 0.7939 0.4045
C4_2 C 0.59874(17) 0.9648(6) 0.3757(4)
C7_2 C 0.55734(18) 0.9007(6) 0.3796(4)
H5_2 H 0.5555 0.8062 0.3839
C8_2 C 0.45472(17) 0.9690(6) 0.3810(4)
C9_2 C 0.41250(17) 0.9065(6) 0.3835(4)
C10_2 C 0.40726(18) 0.7695(6) 0.3886(5)
H7_2 H 0.4312 0.7109 0.3913
C11_2 C 0.36719(19) 0.7196(6) 0.3896(5)
H8_2 H 0.3642 0.6253 0.3935
C12_2 C 0.33635(17) 0.9293(5) 0.3777(4)
H9_2 H 0.3115 0.9849 0.3722
C13_2 C 0.37597(16) 0.9890(6) 0.3774(4)
O4_2 O 0.81156(14) 0.9457(4) 0.4065(3)
N4_3 N 0.01267(14) 0.3944(5) 0.1194(4)
C8_3 C 0.04528(17) 0.4690(6) 0.1190(4)
H6_3 H 0.0426 0.5635 0.1203
C9_3 C 0.08750(17) 0.4065(6) 0.1165(4)
C10_3 C 0.09274(18) 0.2695(6) 0.1114(5)
H7_3 H 0.0688 0.2109 0.1087
C11_3 C 0.13281(19) 0.2196(6) 0.1104(5)
H8_3 H 0.1358 0.1253 0.1065
C12_3 C 0.16365(17) 0.4293(5) 0.1223(4)
H9_3 H 0.1885 0.4849 0.1278
C13_3 C 0.12403(16) 0.4890(6) 0.1226(4)
H10_3 H 0.1217 0.5834 0.1269
S1_3 S 0.78856(7) 0.12536(16) 0.14398(14)
O1_3 O 0.75334(11) 0.8851(4) 0.2849(3)
O3_3 O 0.81327(13) 0.7684(4) 0.3115(3)
N1_3 N 0.77171(15) 0.8704(4) 0.0582(3)
N2_3 N 0.82135(14) 0.5794(4) 0.1275(3)
N3_3 N 0.97606(14) 0.4735(5) 0.1227(4)
N6_3 N 0.79283(15) 0.8666(5) 0.3344(4)
C1_3 C 0.77902(17) 0.9779(5) 0.0950(4)
C2_3 C 0.82388(17) 0.4483(5) 0.1069(4)
H1_3 H 0.7978 0.3959 0.0917
C3_3 C 0.86313(18) 0.3874(5) 0.1070(4)
H2_3 H 0.8641 0.2939 0.0955
C4_3 C 0.90126(17) 0.4648(6) 0.1243(4)
C5_3 C 0.89838(17) 0.6002(5) 0.1446(4)
H3_3 H 0.9238 0.6554 0.1579
C6_3 C 0.85808(17) 0.6540(5) 0.1452(4)
H4_3 H 0.8564 0.7469 0.1585
C7_3 C 0.94266(18) 0.4007(6) 0.1204(4)
H5_3 H 0.9445 0.3062 0.1161
Pb4_3 Pb 0.753542(6) 0.826273(18) 0.854814(14)
N7_3 N 0.72829(15) 0.6296(4) 0.9418(3)
S1_4 S 0.21144(7) 0.12536(16) 0.35602(14)
O1_4 O 0.24666(11) 0.8851(4) 0.2151(3)
O3_4 O 0.18673(13) 0.7684(4) 0.1885(3)
N1_4 N 0.22829(15) 0.8704(4) 0.4418(3)
N2_4 N 0.17865(14) 0.5794(4) 0.3725(3)
N3_4 N 0.02394(14) 0.4735(5) 0.3773(4)
N6_4 N 0.20717(15) 0.8666(5) 0.1656(4)
C1_4 C 0.22098(17) 0.9779(5) 0.4050(4)
C2_4 C 0.17612(17) 0.4483(5) 0.3931(4)
H1_4 H 0.2022 0.3959 0.4083
C3_4 C 0.13687(18) 0.3874(5) 0.3930(4)
H2_4 H 0.1359 0.2939 0.4045
C4_4 C 0.09874(17) 0.4648(6) 0.3757(4)
C5_4 C 0.10162(17) 0.6002(5) 0.3554(4)
H3_4 H 0.0762 0.6554 0.3421
C6_4 C 0.14192(17) 0.6540(5) 0.3548(4)
H4_4 H 0.1436 0.7469 0.3415
C7_4 C 0.05734(18) 0.4007(6) 0.3796(4)
H5_4 H 0.0555 0.3062 0.3839
Pb4_4 Pb 0.246458(6) 0.826273(18) 0.645186(14)
N7_4 N 0.27171(15) 0.6296(4) 0.5582(3)
N4_4 N 0.98733(14) 0.3944(5) 0.3806(4)
C8_4 C 0.95472(17) 0.4690(6) 0.3810(4)
H6_4 H 0.9574 0.5635 0.3797
C9_4 C 0.91250(17) 0.4065(6) 0.3835(4)
C10_4 C 0.90726(18) 0.2695(6) 0.3886(5)
H7_4 H 0.9312 0.2109 0.3913
C11_4 C 0.86719(19) 0.2196(6) 0.3896(5)
H8_4 H 0.8642 0.1253 0.3935
C12_4 C 0.83635(17) 0.4293(5) 0.3777(4)
H9_4 H 0.8115 0.4849 0.3722
C13_4 C 0.87597(16) 0.4890(6) 0.3774(4)
H10_4 H 0.8783 0.5834 0.3731
N3_5 N 0.52394(14) 0.0265(5) 0.8773(4)
N4_5 N 0.48733(14) 0.1056(5) 0.8806(4)
N5_3 N 0.33165(15) 0.2045(5) 0.8854(4)
C2_5 C 0.67612(17) 0.0517(5) 0.8931(4)
H1_5 H 0.7022 0.1041 0.9083
C3_5 C 0.63687(18) 0.1126(5) 0.8930(4)
H2_5 H 0.6359 0.2061 0.9045
C4_5 C 0.59874(17) 0.0352(6) 0.8757(4)
C7_5 C 0.55734(18) 0.0993(6) 0.8796(4)
H5_5 H 0.5555 0.1938 0.8839
C8_5 C 0.45472(17) 0.0310(6) 0.8810(4)
C9_5 C 0.41250(17) 0.0935(6) 0.8835(4)
C10_5 C 0.40726(18) 0.2305(6) 0.8886(5)
H7_5 H 0.4312 0.2891 0.8913
C11_5 C 0.36719(19) 0.2804(6) 0.8896(5)
H8_5 H 0.3642 0.3747 0.8935
C12_5 C 0.33635(17) 0.0707(5) 0.8777(4)
H9_5 H 0.3115 0.0151 0.8722
C13_5 C 0.37597(16) 0.0110(6) 0.8774(4)
O4_3 O 0.81156(14) 0.0543(4) 0.9065(3)
O1_5 O 0.74666(11) 0.6149(4) 0.7151(3)
O2_3 O 0.68844(14) 0.5543(4) 0.5935(3)
O3_5 O 0.68673(13) 0.7316(4) 0.6885(3)
S1_5 S 0.71144(7) 0.37464(16) 0.85602(14)
N2_5 N 0.67865(14) 0.9206(4) 0.8725(3)
N6_5 N 0.70717(15) 0.6334(5) 0.6656(4)
C1_5 C 0.72098(17) 0.5221(5) 0.9050(4)
C5_5 C 0.60162(17) 0.8998(5) 0.8554(4)
H3_5 H 0.5762 0.8446 0.8421
C6_5 C 0.64192(17) 0.8460(5) 0.8548(4)
H4_5 H 0.6436 0.7531 0.8415
H6_5 H 0.4574 0.9365 0.8797
H10_5 H 0.3783 0.9166 0.8731
N8_3 N 0.83165(15) 0.7045(5) 0.8854(4)
N3_6 N 0.47606(14) 0.0265(5) 0.6227(4)
N4_6 N 0.51267(14) 0.1056(5) 0.6194(4)
N5_4 N 0.66835(15) 0.2045(5) 0.6146(4)
C2_6 C 0.32388(17) 0.0517(5) 0.6069(4)
H1_6 H 0.2978 0.1041 0.5917
C3_6 C 0.36313(18) 0.1126(5) 0.6070(4)
H2_6 H 0.3641 0.2061 0.5955
C4_6 C 0.40126(17) 0.0352(6) 0.6243(4)
C7_6 C 0.44266(18) 0.0993(6) 0.6204(4)
H5_6 H 0.4445 0.1938 0.6161
C8_6 C 0.54528(17) 0.0310(6) 0.6190(4)
C9_6 C 0.58750(17) 0.0935(6) 0.6165(4)
C10_6 C 0.59274(18) 0.2305(6) 0.6114(5)
H7_6 H 0.5688 0.2891 0.6087
C11_6 C 0.63281(19) 0.2804(6) 0.6104(5)
H8_6 H 0.6358 0.3747 0.6065
C12_6 C 0.66365(17) 0.0707(5) 0.6223(4)
H9_6 H 0.6885 0.0151 0.6278
C13_6 C 0.62403(16) 0.0110(6) 0.6226(4)
O4_4 O 0.18844(14) 0.0543(4) 0.5935(3)
O1_6 O 0.25334(11) 0.6149(4) 0.7849(3)
O2_4 O 0.31156(14) 0.5543(4) 0.9065(3)
O3_6 O 0.31327(13) 0.7316(4) 0.8115(3)
S1_6 S 0.28856(7) 0.37464(16) 0.64398(14)
N2_6 N 0.32135(14) 0.9206(4) 0.6275(3)
N6_6 N 0.29283(15) 0.6334(5) 0.8344(4)
C1_6 C 0.27902(17) 0.5221(5) 0.5950(4)
C5_6 C 0.39838(17) 0.8998(5) 0.6446(4)
H3_6 H 0.4238 0.8446 0.6579
C6_6 C 0.35808(17) 0.8460(5) 0.6452(4)
H4_6 H 0.3564 0.7531 0.6585
H6_6 H 0.5426 0.9365 0.6203
H10_6 H 0.6217 0.9166 0.6269
N8_4 N 0.16835(15) 0.7045(5) 0.6146(4)
O1_7 O 0.24666(11) 0.1149(4) 0.7151(3)
O3_7 O 0.18673(13) 0.2316(4) 0.6885(3)
N2_7 N 0.17865(14) 0.4206(4) 0.8725(3)
N3_7 N 0.02394(14) 0.5265(5) 0.8773(4)
N6_7 N 0.20717(15) 0.1334(5) 0.6656(4)
C1_7 C 0.22098(17) 0.0221(5) 0.9050(4)
C2_7 C 0.17612(17) 0.5517(5) 0.8931(4)
H1_7 H 0.2022 0.6041 0.9083
C3_7 C 0.13687(18) 0.6126(5) 0.8930(4)
H2_7 H 0.1359 0.7061 0.9045
C4_7 C 0.09874(17) 0.5352(6) 0.8757(4)
C5_7 C 0.10162(17) 0.3998(5) 0.8554(4)
H3_7 H 0.0762 0.3446 0.8421
C6_7 C 0.14192(17) 0.3460(5) 0.8548(4)
H4_7 H 0.1436 0.2531 0.8415
C7_7 C 0.05734(18) 0.5993(6) 0.8796(4)
H5_7 H 0.0555 0.6938 0.8839
S1_7 S 0.21144(7) 0.87464(16) 0.85602(14)
N4_7 N 0.98733(14) 0.6056(5) 0.8806(4)
C8_7 C 0.95472(17) 0.5310(6) 0.8810(4)
H6_7 H 0.9574 0.4365 0.8797
C9_7 C 0.91250(17) 0.5935(6) 0.8835(4)
C10_7 C 0.90726(18) 0.7305(6) 0.8886(5)
H7_7 H 0.9312 0.7891 0.8913
C11_7 C 0.86719(19) 0.7804(6) 0.8896(5)
H8_7 H 0.8642 0.8747 0.8935
C12_7 C 0.83635(17) 0.5707(5) 0.8777(4)
H9_7 H 0.8115 0.5151 0.8722
C13_7 C 0.87597(16) 0.5110(6) 0.8774(4)
H10_7 H 0.8783 0.4166 0.8731
N4_8 N 0.01267(14) 0.6056(5) 0.6194(4)
C8_8 C 0.04528(17) 0.5310(6) 0.6190(4)
H6_8 H 0.0426 0.4365 0.6203
C9_8 C 0.08750(17) 0.5935(6) 0.6165(4)
C10_8 C 0.09274(18) 0.7305(6) 0.6114(5)
H7_8 H 0.0688 0.7891 0.6087
C11_8 C 0.13281(19) 0.7804(6) 0.6104(5)
H8_8 H 0.1358 0.8747 0.6065
C12_8 C 0.16365(17) 0.5707(5) 0.6223(4)
H9_8 H 0.1885 0.5151 0.6278
C13_8 C 0.12403(16) 0.5110(6) 0.6226(4)
H10_8 H 0.1217 0.4166 0.6269
O1_8 O 0.75334(11) 0.1149(4) 0.7849(3)
O3_8 O 0.81327(13) 0.2316(4) 0.8115(3)
N2_8 N 0.82135(14) 0.4206(4) 0.6275(3)
N3_8 N 0.97606(14) 0.5265(5) 0.6227(4)
N6_8 N 0.79283(15) 0.1334(5) 0.8344(4)
C1_8 C 0.77902(17) 0.0221(5) 0.5950(4)
C2_8 C 0.82388(17) 0.5517(5) 0.6069(4)
H1_8 H 0.7978 0.6041 0.5917
C3_8 C 0.86313(18) 0.6126(5) 0.6070(4)
H2_8 H 0.8641 0.7061 0.5955
C4_8 C 0.90126(17) 0.5352(6) 0.6243(4)
C5_8 C 0.89838(17) 0.3998(5) 0.6446(4)
H3_8 H 0.9238 0.3446 0.6579
C6_8 C 0.85808(17) 0.3460(5) 0.6452(4)
H4_8 H 0.8564 0.2531 0.6585
C7_8 C 0.94266(18) 0.5993(6) 0.6204(4)
H5_8 H 0.9445 0.6938 0.6161
S1_8 S 0.78856(7) 0.87464(16) 0.64398(14)
loop_
_geom_bond_atom_site_label_1
_geom_bond_atom_site_label_2
_geom_bond_site_symmetry_1
_geom_bond_site_symmetry_2
Pb1 O1 1_555 1_555
O1 N6 1_555 1_555
O2 N6 1_555 1_555
O3 Pb1 1_555 1_555
S1 C1 1_555 1_555
N1 Pb1 1_555 1_555
N2 Pb1 1_555 1_555
N6 O3 1_555 1_555
C1 N1 1_555 1_555
H3 C5 1_555 1_555
C6 N2 1_555 1_555
H4 C6 1_555 1_555
Pb3 O2 1_555 1_555
N8 Pb1 1_555 1_555
C5 C6 1_555 1_555
Pb4 N7 1_555 1_555
N3 N4 1_555 1_555
N4 C8 1_555 1_555
N5 C11 1_555 1_555
H1 C2 1_555 1_555
C3 C2 1_555 1_555
H2 C3 1_555 1_555
C4 C3 1_555 1_555
C7 N3 1_555 1_555
H5 C7 1_555 1_555
C9 C8 1_555 1_555
C10 C9 1_555 1_555
H7 C10 1_555 1_555
C11 C10 1_555 1_555
H8 C11 1_555 1_555
C12 N5 1_555 1_555
H9 C12 1_555 1_555
C13 C9 1_555 1_555
Pb2 N5 1_555 1_555
C4 C7 1_555 1_555
C12 C13 1_555 1_555
Pb1_2 O1_2 1_555 1_555
O1_2 N6_2 1_555 1_555
O2_2 N6_2 1_555 1_555
O3_2 Pb1_2 1_555 1_555
S1_2 C1_2 1_555 1_555
N1_2 Pb1_2 1_555 1_555
N2_2 Pb1_2 1_555 1_555
N6_2 O3_2 1_555 1_555
C1_2 N1_2 1_555 1_555
H3_2 C5_2 1_555 1_555
C6_2 N2_2 1_555 1_555
H4_2 C6_2 1_555 1_555
Pb2 O2_2 1_555 1_555
Pb4_2 N1_2 1_555 1_555
N7_2 Pb1_2 1_555 1_555
N8_2 Pb1_2 1_555 1_555
C5_2 C6_2 1_555 1_555
Pb4_2 N7_2 1_555 1_555
N3_2 N4_2 1_555 1_555
N4_2 C8_2 1_555 1_555
N5_2 C11_2 1_555 1_555
H1_2 C2_2 1_555 1_555
C3_2 C2_2 1_555 1_555
H2_2 C3_2 1_555 1_555
C4_2 C3_2 1_555 1_555
C7_2 N3_2 1_555 1_555
H5_2 C7_2 1_555 1_555
C9_2 C8_2 1_555 1_555
C10_2 C9_2 1_555 1_555
H7_2 C10_2 1_555 1_555
C11_2 C10_2 1_555 1_555
H8_2 C11_2 1_555 1_555
C12_2 N5_2 1_555 1_555
H9_2 C12_2 1_555 1_555
C13_2 C9_2 1_555 1_555
Pb3 N5_2 1_555 1_555
C4_2 C7_2 1_555 1_555
C12_2 C13_2 1_555 1_555
N4_3 C8_3 1_555 1_555
N8 C11_3 1_555 1_555
C8_3 H6_3 1_555 1_555
C9_3 C8_3 1_555 1_555
C10_3 C9_3 1_555 1_555
H7_3 C10_3 1_555 1_555
C11_3 C10_3 1_555 1_555
H8_3 C11_3 1_555 1_555
C12_3 N8 1_555 1_555
H9_3 C12_3 1_555 1_555
C13_3 C9_3 1_555 1_555
H10_3 C13_3 1_555 1_555
C12_3 C13_3 1_555 1_555
Pb2 O1_3 1_555 1_555
O1_3 N6_3 1_555 1_555
O4_2 N6_3 1_555 1_555
O3_3 Pb2 1_555 1_555
N1_3 Pb2 1_555 1_555
N2_3 Pb2 1_555 1_555
N6_3 O3_3 1_555 1_555
C1_3 N1_3 1_555 1_555
C2_3 N2_3 1_555 1_555
H1_3 C2_3 1_555 1_555
C3_3 C2_3 1_555 1_555
H2_3 C3_3 1_555 1_555
C4_3 C3_3 1_555 1_555
C5_3 C4_3 1_555 1_555
H3_3 C5_3 1_555 1_555
C6_3 N2_3 1_555 1_555
H4_3 C6_3 1_555 1_555
C7_3 N3_3 1_555 1_555
H5_3 C7_3 1_555 1_555
C4_3 C7_3 1_555 1_555
C5_3 C6_3 1_555 1_555
Pb4_3 N7_3 1_555 1_555
Pb3 O1_4 1_555 1_555
O1_4 N6_4 1_555 1_555
O4 N6_4 1_555 1_555
O3_4 Pb3 1_555 1_555
N1_4 Pb3 1_555 1_555
N2_4 Pb3 1_555 1_555
N6_4 O3_4 1_555 1_555
C1_4 N1_4 1_555 1_555
C2_4 N2_4 1_555 1_555
H1_4 C2_4 1_555 1_555
C3_4 C2_4 1_555 1_555
H2_4 C3_4 1_555 1_555
C4_4 C3_4 1_555 1_555
C5_4 C4_4 1_555 1_555
H3_4 C5_4 1_555 1_555
C6_4 N2_4 1_555 1_555
H4_4 C6_4 1_555 1_555
C7_4 N3_4 1_555 1_555
H5_4 C7_4 1_555 1_555
Pb4_4 N1_4 1_555 1_555
N7_4 Pb3 1_555 1_555
C4_4 C7_4 1_555 1_555
C5_4 C6_4 1_555 1_555
Pb4_4 N7_4 1_555 1_555
N4_4 C8_4 1_555 1_555
N8_2 C11_4 1_555 1_555
C8_4 H6_4 1_555 1_555
C9_4 C8_4 1_555 1_555
C10_4 C9_4 1_555 1_555
H7_4 C10_4 1_555 1_555
C11_4 C10_4 1_555 1_555
H8_4 C11_4 1_555 1_555
C12_4 N8_2 1_555 1_555
H9_4 C12_4 1_555 1_555
C13_4 C9_4 1_555 1_555
H10_4 C13_4 1_555 1_555
C12_4 C13_4 1_555 1_555
N3_5 N4_5 1_555 1_555
N4_5 C8_5 1_555 1_555
N5_3 C11_5 1_555 1_555
H1_5 C2_5 1_555 1_555
C3_5 C2_5 1_555 1_555
H2_5 C3_5 1_555 1_555
C4_5 C3_5 1_555 1_555
C7_5 N3_5 1_555 1_555
H5_5 C7_5 1_555 1_555
C9_5 C8_5 1_555 1_555
C10_5 C9_5 1_555 1_555
H7_5 C10_5 1_555 1_555
C11_5 C10_5 1_555 1_555
H8_5 C11_5 1_555 1_555
C12_5 N5_3 1_555 1_555
H9_5 C12_5 1_555 1_555
C13_5 C9_5 1_555 1_555
Pb4 N5_3 1_555 1_555
C4_5 C7_5 1_555 1_555
C12_5 C13_5 1_555 1_555
Pb4_3 O1_5 1_555 1_555
O1_5 N6_5 1_555 1_555
O2_3 N6_5 1_555 1_555
O3_5 Pb4_3 1_555 1_555
S1_5 C1_5 1_555 1_555
N2_5 Pb4_3 1_555 1_555
N6_5 O3_5 1_555 1_555
C1_5 N7_3 1_555 1_555
H3_5 C5_5 1_555 1_555
C6_5 N2_5 1_555 1_555
H4_5 C6_5 1_555 1_555
Pb4_2 O2_3 1_555 1_555
N8_3 Pb4_3 1_555 1_555
C5_5 C6_5 1_555 1_555
N3_6 N4_6 1_555 1_555
N4_6 C8_6 1_555 1_555
N5_4 C11_6 1_555 1_555
H1_6 C2_6 1_555 1_555
C3_6 C2_6 1_555 1_555
H2_6 C3_6 1_555 1_555
C4_6 C3_6 1_555 1_555
C7_6 N3_6 1_555 1_555
H5_6 C7_6 1_555 1_555
C9_6 C8_6 1_555 1_555
C10_6 C9_6 1_555 1_555
H7_6 C10_6 1_555 1_555
C11_6 C10_6 1_555 1_555
H8_6 C11_6 1_555 1_555
C12_6 N5_4 1_555 1_555
H9_6 C12_6 1_555 1_555
C13_6 C9_6 1_555 1_555
Pb4_2 N5_4 1_555 1_555
C4_6 C7_6 1_555 1_555
C12_6 C13_6 1_555 1_555
Pb4_4 O1_6 1_555 1_555
O1_6 N6_6 1_555 1_555
O2_4 N6_6 1_555 1_555
O3_6 Pb4_4 1_555 1_555
S1_6 C1_6 1_555 1_555
N2_6 Pb4_4 1_555 1_555
N6_6 O3_6 1_555 1_555
C1_6 N7_4 1_555 1_555
H3_6 C5_6 1_555 1_555
C6_6 N2_6 1_555 1_555
H4_6 C6_6 1_555 1_555
Pb4 O2_4 1_555 1_555
N8_4 Pb4_4 1_555 1_555
C5_6 C6_6 1_555 1_555
Pb4 O1_7 1_555 1_555
O1_7 N6_7 1_555 1_555
O4_4 N6_7 1_555 1_555
O3_7 Pb4 1_555 1_555
N2_7 Pb4 1_555 1_555
N6_7 O3_7 1_555 1_555
C1_7 N7 1_555 1_555
C2_7 N2_7 1_555 1_555
H1_7 C2_7 1_555 1_555
C3_7 C2_7 1_555 1_555
H2_7 C3_7 1_555 1_555
C4_7 C3_7 1_555 1_555
C5_7 C4_7 1_555 1_555
H3_7 C5_7 1_555 1_555
C6_7 N2_7 1_555 1_555
H4_7 C6_7 1_555 1_555
C7_7 N3_7 1_555 1_555
H5_7 C7_7 1_555 1_555
C4_7 C7_7 1_555 1_555
C5_7 C6_7 1_555 1_555
N4_7 C8_7 1_555 1_555
N8_3 C11_7 1_555 1_555
C8_7 H6_7 1_555 1_555
C9_7 C8_7 1_555 1_555
C10_7 C9_7 1_555 1_555
H7_7 C10_7 1_555 1_555
C11_7 C10_7 1_555 1_555
H8_7 C11_7 1_555 1_555
C12_7 N8_3 1_555 1_555
H9_7 C12_7 1_555 1_555
C13_7 C9_7 1_555 1_555
H10_7 C13_7 1_555 1_555
C12_7 C13_7 1_555 1_555
N4_8 C8_8 1_555 1_555
N8_4 C11_8 1_555 1_555
C8_8 H6_8 1_555 1_555
C9_8 C8_8 1_555 1_555
C10_8 C9_8 1_555 1_555
H7_8 C10_8 1_555 1_555
C11_8 C10_8 1_555 1_555
H8_8 C11_8 1_555 1_555
C12_8 N8_4 1_555 1_555
H9_8 C12_8 1_555 1_555
C13_8 C9_8 1_555 1_555
H10_8 C13_8 1_555 1_555
C12_8 C13_8 1_555 1_555
Pb4_2 O1_8 1_555 1_555
O1_8 N6_8 1_555 1_555
O4_3 N6_8 1_555 1_555
O3_8 Pb4_2 1_555 1_555
N2_8 Pb4_2 1_555 1_555
N6_8 O3_8 1_555 1_555
C1_8 N7_2 1_555 1_555
C2_8 N2_8 1_555 1_555
H1_8 C2_8 1_555 1_555
C3_8 C2_8 1_555 1_555
H2_8 C3_8 1_555 1_555
C4_8 C3_8 1_555 1_555
C5_8 C4_8 1_555 1_555
H3_8 C5_8 1_555 1_555
C6_8 N2_8 1_555 1_555
H4_8 C6_8 1_555 1_555
C7_8 N3_8 1_555 1_555
H5_8 C7_8 1_555 1_555
C4_8 C7_8 1_555 1_555
C5_8 C6_8 1_555 1_555

#END
