
###############################################################################
#
# This file contains modified crystal structure data generated from the
# MOF subset of the Cambridge Structural Database (CSD) v543 
# hosted by the Cambridge Crystallographic Data Centre (CCDC).
#
# This work is licensed under the Creative Commons
# Attribution-NonCommercial-ShareAlike 4.0 International License.
# To view a copy of this license, visit
# http://creativecommons.org/licenses/by-nc-sa/4.0/
# or send a letter to
# Creative Commons, PO Box 1866, Mountain View, CA 94042, USA.
#
# CIF created using the CSD Python API on 29 September 2022
# The structure has been converted into the P1 space group
# The structure has a 3D framework
# The original CSD entry DOHDOU is in the rhombohedral crystal system
# The framework has been calculated to contain at least 10.0% void space
# The void calculation uses a probe of radius 1.32A, grid spacing 0.4
#
###############################################################################

data_DOHDOU
_chemical_formula_moiety         '(C22 H22 Mg9 O32)n'
_symmetry_cell_setting           triclinic
_symmetry_space_group_name_H-M   'P 1'
_symmetry_Int_Tables_number      1
_space_group_name_Hall           'P 1'
loop_
_symmetry_equiv_pos_site_id
_symmetry_equiv_pos_as_xyz
1 x,y,z
_cell_length_a                   8.149(3)
_cell_length_b                   8.149(3)
_cell_length_c                   22.598(8)
_cell_angle_alpha                90
_cell_angle_beta                 90
_cell_angle_gamma                120
_cell_volume                     1299.6
loop_
_atom_site_label
_atom_site_type_symbol
_atom_site_fract_x
_atom_site_fract_y
_atom_site_fract_z
Mg1 Mg 0.0000 0.0000 0.00000
Mg4 Mg 0.3333 0.6667 0.16667
O5 O 0.2108(3) 0.2106(2) 0.05287(7)
O6 O 0.3335(2) 0.4561(2) 0.11380(7)
C3 C 0.2047(4) 0.3333 0.0833
H3 H 0.0983(50) 0.3333 0.0833
Mg1_2 Mg -0.0000 -0.0000 1.00000
O8 O 0.0002(2) 0.2108(3) 0.94713(7)
Mg1_3 Mg 0.0000 1.0000 0.00000
O4 O 0.1225(3) 0.6665(2) 0.11380(7)
C2 C 0.1286(4) 0.7953(4) 0.0833
H2 H 0.235(5) 0.9017(50) 0.0833
Mg1_4 Mg 0.0000 1.0000 1.00000
O7 O 0.2106(2) 0.9998(2) 0.94713(7)
Mg1_5 Mg 1.0000 0.0000 0.00000
O1 O 0.7894(2) 0.0002(2) 0.05287(7)
Mg1_6 Mg 1.0000 -0.0000 1.00000
Mg1_7 Mg 1.0000 1.0000 0.00000
C1 C 0.6667 0.8714(4) 0.0833
H1 H 0.6667 0.765(5) 0.0833
O2 O 0.5439(2) 0.8775(3) 0.11380(7)
O3 O 0.9998(2) 0.7892(3) 0.05287(7)
Mg1_8 Mg 1.0000 1.0000 1.00000
O9 O 0.7892(3) 0.7894(2) 0.94713(7)
Mg1_9 Mg -0.0000 -0.0000 0.50000
Mg4_2 Mg 0.6667 0.3333 0.33333
O5_2 O 0.2106(2) 0.2108(3) 0.44713(7)
O6_2 O 0.4561(2) 0.3335(2) 0.38620(7)
O8_2 O 0.2108(3) 0.0002(2) 0.55287(7)
C3_2 C 0.3333 0.2047(4) 0.4167
H3_2 H 0.3333 0.0983(50) 0.4167
Mg1_10 Mg -0.0000 1.0000 0.50000
O1_2 O 0.0002(2) 0.7894(2) 0.44713(7)
Mg1_11 Mg 1.0000 -0.0000 0.50000
O4_2 O 0.6665(2) 0.1225(3) 0.38620(7)
O7_2 O 0.9998(2) 0.2106(2) 0.55287(7)
C2_2 C 0.7953(4) 0.1286(4) 0.4167
H2_2 H 0.9017(50) 0.235(5) 0.4167
Mg1_12 Mg 1.0000 1.0000 0.50000
C1_2 C 0.8714(4) 0.6667 0.4167
H1_2 H 0.765(5) 0.6667 0.4167
O2_2 O 0.8775(3) 0.5439(2) 0.38620(7)
O3_2 O 0.7892(3) 0.9998(2) 0.44713(7)
O9_2 O 0.7894(2) 0.7892(3) 0.55287(7)
O7_3 O 0.8773(2) 0.3331(2) 0.28046(7)
O8_3 O 0.6669(2) 0.5441(3) 0.28046(7)
O9_3 O 0.4559(3) 0.1227(2) 0.28046(7)
Mg4_3 Mg 0.3333 0.6667 0.66667
O6_3 O 0.1227(2) 0.6669(2) 0.71954(7)
C3_3 C -0.0000 0.5380(4) 0.7500
H3_3 H -0.0000 0.4316(50) 0.7500
Mg1_13 Mg 0.6667 0.3333 0.83333
O1_3 O 0.6669(2) 0.1227(2) 0.78046(7)
C1_3 C 0.5381(4) 0.0000 0.7500
H1_3 H 0.432(5) 0.0000 0.7500
O3_3 O 0.4559(3) 0.3331(2) 0.78046(7)
O4_3 O 0.3331(2) 0.4559(3) 0.71954(7)
O5_3 O 0.8773(2) 0.5441(3) 0.78046(7)
O7_4 O 0.6665(2) 0.5439(2) 0.88620(7)
O8_4 O 0.8775(3) 0.3335(2) 0.88620(7)
O9_4 O 0.4561(2) 0.1225(3) 0.88620(7)
C2_3 C 0.4620(4) 0.4619(4) 0.7500
C3_4 C 1.0000 0.5380(4) 0.7500
H2_3 H 0.5684(50) 0.568(5) 0.7500
H3_4 H 1.0000 0.4316(50) 0.7500
C1_4 C 0.5381(4) 1.0000 0.7500
H1_4 H 0.432(5) 1.0000 0.7500
O2_3 O 0.5441(3) 0.8773(2) 0.71954(7)
O7_5 O 0.5439(2) 0.6665(2) 0.61380(7)
O8_5 O 0.3335(2) 0.8775(3) 0.61380(7)
O9_5 O 0.1225(3) 0.4561(2) 0.61380(7)
O7_6 O 0.3331(2) 0.8773(2) 0.21954(7)
O8_6 O 0.5441(3) 0.6669(2) 0.21954(7)
O9_6 O 0.1227(2) 0.4559(3) 0.21954(7)
C1_5 C 0.3333 0.1286(4) 0.9167
H1_5 H 0.3333 0.235(5) 0.9167
C2_4 C 0.8714(4) 0.2047(4) 0.9167
H2_4 H 0.765(5) 0.0983(50) 0.9167
C3_5 C 0.7953(4) 0.6667 0.9167
H3_5 H 0.9017(50) 0.6667 0.9167
C1_6 C 0.1286(4) 0.3333 0.5833
H1_6 H 0.235(5) 0.3333 0.5833
C2_5 C 0.2047(4) 0.8714(4) 0.5833
H2_5 H 0.0983(50) 0.765(5) 0.5833
C3_6 C 0.6667 0.7953(4) 0.5833
H3_6 H 0.6667 0.9017(50) 0.5833
C1_7 C 0.4619(4) -0.0000 0.2500
H1_7 H 0.568(5) -0.0000 0.2500
C1_8 C 0.4619(4) 1.0000 0.2500
H1_8 H 0.568(5) 1.0000 0.2500
C2_6 C 0.5380(4) 0.5381(4) 0.2500
C3_7 C 0.0000 0.4620(4) 0.2500
H2_6 H 0.4316(50) 0.432(5) 0.2500
H3_7 H 0.0000 0.5684(50) 0.2500
C3_8 C 1.0000 0.4620(4) 0.2500
H3_8 H 1.0000 0.5684(50) 0.2500
loop_
_geom_bond_atom_site_label_1
_geom_bond_atom_site_label_2
_geom_bond_site_symmetry_1
_geom_bond_site_symmetry_2
Mg4 O6 1_555 1_555
O5 Mg1 1_555 1_555
O6 C3 1_555 1_555
C3 O5 1_555 1_555
H3 C3 1_555 1_555
O8 Mg1_2 1_555 1_555
Mg4 O4 1_555 1_555
O4 C2 1_555 1_555
H2 C2 1_555 1_555
O7 Mg1_4 1_555 1_555
Mg1_5 O1 1_555 1_555
C1 H1 1_555 1_555
Mg4 O2 1_555 1_555
O2 C1 1_555 1_555
O3 Mg1_7 1_555 1_555
O9 Mg1_8 1_555 1_555
Mg4_2 O6_2 1_555 1_555
O5_2 Mg1_9 1_555 1_555
O6_2 C3_2 1_555 1_555
O8_2 Mg1_9 1_555 1_555
C3_2 O5_2 1_555 1_555
H3_2 C3_2 1_555 1_555
Mg1_10 O1_2 1_555 1_555
Mg4_2 O4_2 1_555 1_555
O4_2 C2_2 1_555 1_555
O7_2 Mg1_11 1_555 1_555
H2_2 C2_2 1_555 1_555
C1_2 H1_2 1_555 1_555
Mg4_2 O2_2 1_555 1_555
O2_2 C1_2 1_555 1_555
O3_2 Mg1_12 1_555 1_555
O9_2 Mg1_12 1_555 1_555
O7_3 Mg4_2 1_555 1_555
O8_3 Mg4_2 1_555 1_555
O9_3 Mg4_2 1_555 1_555
Mg4_3 O6_3 1_555 1_555
O6_3 C3_3 1_555 1_555
H3_3 C3_3 1_555 1_555
Mg1_13 O1_3 1_555 1_555
O1_3 C1_3 1_555 1_555
C1_3 H1_3 1_555 1_555
Mg4_3 O4_3 1_555 1_555
O3_3 Mg1_13 1_555 1_555
O4_3 C2_3 1_555 1_555
O5_3 Mg1_13 1_555 1_555
O7_4 Mg1_13 1_555 1_555
O8_4 Mg1_13 1_555 1_555
O9_4 Mg1_13 1_555 1_555
C2_3 O3_3 1_555 1_555
C3_4 O5_3 1_555 1_555
H2_3 C2_3 1_555 1_555
H3_4 C3_4 1_555 1_555
C1_4 H1_4 1_555 1_555
Mg4_3 O2_3 1_555 1_555
O2_3 C1_4 1_555 1_555
O7_5 Mg4_3 1_555 1_555
O8_5 Mg4_3 1_555 1_555
O9_5 Mg4_3 1_555 1_555
O7_6 Mg4 1_555 1_555
O8_6 Mg4 1_555 1_555
O9_6 Mg4 1_555 1_555
C1_5 H1_5 1_555 1_555
O9_4 C1_5 1_555 1_555
O8_4 C2_4 1_555 1_555
H2_4 C2_4 1_555 1_555
O7_4 C3_5 1_555 1_555
C3_5 O9 1_555 1_555
H3_5 C3_5 1_555 1_555
C1_6 H1_6 1_555 1_555
O9_5 C1_6 1_555 1_555
O8_5 C2_5 1_555 1_555
H2_5 C2_5 1_555 1_555
O7_5 C3_6 1_555 1_555
C3_6 O9_2 1_555 1_555
H3_6 C3_6 1_555 1_555
C1_7 H1_7 1_555 1_555
O9_3 C1_7 1_555 1_555
O7_6 C1_8 1_555 1_555
C1_8 H1_8 1_555 1_555
O8_3 C2_6 1_555 1_555
C2_6 O8_6 1_555 1_555
C3_7 O9_6 1_555 1_555
H2_6 C2_6 1_555 1_555
H3_7 C3_7 1_555 1_555
O7_3 C3_8 1_555 1_555
H3_8 C3_8 1_555 1_555

#END
