
###############################################################################
#
# This file contains modified crystal structure data generated from the
# MOF subset of the Cambridge Structural Database (CSD) v543 
# hosted by the Cambridge Crystallographic Data Centre (CCDC).
#
# This work is licensed under the Creative Commons
# Attribution-NonCommercial-ShareAlike 4.0 International License.
# To view a copy of this license, visit
# http://creativecommons.org/licenses/by-nc-sa/4.0/
# or send a letter to
# Creative Commons, PO Box 1866, Mountain View, CA 94042, USA.
#
# CIF created using the CSD Python API on 29 September 2022
# The structure has been converted into the P1 space group
# The structure has a 3D framework
# The original CSD entry DOHYIJ is in the monoclinic crystal system
# The framework has been calculated to contain at least 10.0% void space
# The void calculation uses a probe of radius 1.32A, grid spacing 0.4
#
###############################################################################

data_DOHYIJ
_chemical_formula_moiety         '(C56 H32 Cu4 Eu4 N8 O29)n'
_symmetry_cell_setting           triclinic
_symmetry_space_group_name_H-M   'P 1'
_symmetry_Int_Tables_number      1
_space_group_name_Hall           'P 1'
loop_
_symmetry_equiv_pos_site_id
_symmetry_equiv_pos_as_xyz
1 x,y,z
_cell_length_a                   9.226(2)
_cell_length_b                   21.606(3)
_cell_length_c                   9.5587(14)
_cell_angle_alpha                90
_cell_angle_beta                 116.142(14)
_cell_angle_gamma                90
_cell_volume                     1710.49
loop_
_atom_site_label
_atom_site_type_symbol
_atom_site_fract_x
_atom_site_fract_y
_atom_site_fract_z
C7 C 0.1229(8) 0.1346(3) 0.6275(9)
H5 H 0.2032 0.1595 0.6998
C8 C 0.0012(9) 0.1170(4) 0.6585(8)
C11 C 0.0207(7) 0.0829(3) 0.3855(8)
H8 H 0.0311 0.0706 0.2971
N2 N 0.1358(6) 0.1178(3) 0.4938(7)
Eu4 Eu 0.35883(3) 0.008593(14) 0.12332(3)
Cu3 Cu 0.30966(10) 0.14579(4) 0.45878(12)
O19 O 0.1160(5) 0.0664(2) 0.0517(6)
C14 C 0.0073(7) 0.9643(3) 0.0113(7)
O8 O 0.1427(5) 0.9436(2) 0.0902(6)
H4 H 0.3446 0.2241 0.0046
H6 H 0.9976 0.1273 0.7513
C9 C 0.8825(8) 0.0829(3) 0.5457(8)
H7 H 0.7939 0.0705 0.5607
C10 C 0.8911(7) 0.0657(3) 0.4044(7)
C12 C 0.7589(7) 0.0304(3) 0.2710(7)
O2 O 0.3867(5) 0.1140(2) 0.0565(6)
O3 O 0.7876(6) 0.0049(2) 0.1638(6)
O4 O 0.6328(5) 0.0303(2) 0.2818(5)
O15 O 0.3816(5) 0.0579(2) 0.3718(5)
Cu1 Cu 0.30966(10) 0.35421(4) 0.95878(12)
C1 C 0.5595(8) 0.3041(3) 0.8979(9)
H1 H 0.5771 0.3448 0.8776
C2 C 0.6525(9) 0.2586(4) 0.8834(10)
H2 H 0.7355 0.2685 0.8571
C3 C 0.6252(8) 0.1974(4) 0.9074(9)
H3 H 0.6844 0.1658 0.8910
C4 C 0.5100(7) 0.1845(3) 0.9553(7)
C5 C 0.4229(7) 0.2326(3) 0.9709(8)
C6 C 0.4741(7) 0.1199(3) 0.9882(7)
N1 N 0.4438(6) 0.2920(2) 0.9403(7)
O1 O 0.5332(6) 0.0753(2) 0.9493(6)
C27 C 0.4777(7) 0.0344(3) 0.5027(6)
C28 C 0.9927(7) 0.0357(3) 0.9887(7)
N5 N 0.1358(6) 0.3822(3) 0.9938(7)
O14 O 0.3816(5) 0.4421(2) 0.8718(5)
O17 O 0.5389(5) 0.06075(19) 0.6379(5)
O21 O 0.8573(5) 0.0564(2) 0.9098(6)
Cu2 Cu 0.69034(10) 0.64579(4) 0.04122(12)
C15 C 0.4405(8) 0.6959(3) 0.1021(9)
H9 H 0.4229 0.6552 0.1224
C16 C 0.3475(9) 0.7414(4) 0.1166(10)
H10 H 0.2645 0.7315 0.1429
C17 C 0.3748(8) 0.8026(4) 0.0926(9)
H11 H 0.3156 0.8342 0.1090
C18 C 0.4900(7) 0.8155(3) 0.0447(7)
C19 C 0.5771(7) 0.7674(3) 0.0291(8)
C20 C 0.5259(7) 0.8801(3) 0.0118(7)
N3 N 0.5562(6) 0.7080(2) 0.0597(7)
N6 N 0.8642(6) 0.6178(3) 0.0062(7)
O9 O 0.4668(6) 0.9247(2) 0.0507(6)
O16 O 0.6184(5) 0.5579(2) 0.1282(5)
O18 O 0.4611(5) 0.93925(19) 0.3621(5)
Eu1 Eu 0.64117(3) 0.991407(14) 0.87668(3)
C13 C 0.5223(7) 0.9656(3) 0.4973(6)
O5 O 0.6184(5) 0.9421(2) 0.6282(5)
O7 O 0.8840(5) 0.9336(2) 0.9483(6)
Cu4 Cu 0.69034(10) 0.85421(4) 0.54122(12)
H12 H 0.6554 0.7759 0.9954
H14 H 0.0024 0.8727 0.2487
C23 C 0.1175(8) 0.9171(3) 0.4543(8)
H15 H 0.2061 0.9295 0.4393
C24 C 0.1089(7) 0.9343(3) 0.5956(7)
C26 C 0.2411(7) 0.9696(3) 0.7290(7)
O10 O 0.6133(5) 0.8860(2) 0.9435(6)
O11 O 0.2124(6) 0.9951(2) 0.8362(6)
O12 O 0.3672(5) 0.9697(2) 0.7182(5)
C21 C 0.8771(8) 0.8654(3) 0.3725(9)
H13 H 0.7968 0.8405 0.3002
C22 C 0.9988(9) 0.8830(4) 0.3415(8)
C25 C 0.9793(7) 0.9171(3) 0.6145(8)
H16 H 0.9689 0.9294 0.7029
N4 N 0.8642(6) 0.8822(3) 0.5062(7)
C25_2 C 0.0207(7) 0.4171(3) 0.8855(8)
H16_2 H 0.0311 0.4294 0.7971
C13_2 C 0.4777(7) 0.4656(3) 0.0027(6)
O6 O 0.5389(5) 0.43925(19) 0.1379(5)
Eu3 Eu 0.64117(3) 0.508593(14) 0.37668(3)
H14_2 H 0.9976 0.3727 0.2513
C23_2 C 0.8825(8) 0.4171(3) 0.0457(8)
H15_2 H 0.7939 0.4295 0.0607
Eu1_2 Eu 0.35883(3) 0.491407(14) 0.62332(3)
C1_2 C 0.4405(8) 0.8041(3) 0.6021(9)
H1_2 H 0.4229 0.8448 0.6224
C2_2 C 0.3475(9) 0.7586(4) 0.6166(10)
H2_2 H 0.2645 0.7685 0.6429
C3_2 C 0.3748(8) 0.6974(4) 0.5926(9)
H3_2 H 0.3156 0.6658 0.6090
C4_2 C 0.4900(7) 0.6845(3) 0.5447(7)
C5_2 C 0.5771(7) 0.7326(3) 0.5291(8)
H4_2 H 0.6554 0.7241 0.4954
C6_2 C 0.5259(7) 0.6199(3) 0.5118(7)
C10_2 C 0.1089(7) 0.5657(3) 0.0956(7)
C12_2 C 0.2411(7) 0.5304(3) 0.2290(7)
N1_2 N 0.5562(6) 0.7920(2) 0.5597(7)
O1_2 O 0.4668(6) 0.5753(2) 0.5507(6)
O2_2 O 0.6133(5) 0.6140(2) 0.4435(6)
O3_2 O 0.2124(6) 0.5049(2) 0.3362(6)
O4_2 O 0.3672(5) 0.5303(2) 0.2182(5)
O7_2 O 0.1160(5) 0.4336(2) 0.5517(6)
C15_2 C 0.5595(8) 0.1959(3) 0.3979(9)
H9_2 H 0.5771 0.1552 0.3776
C16_2 C 0.6525(9) 0.2414(4) 0.3834(10)
H10_2 H 0.7355 0.2315 0.3571
C17_2 C 0.6252(8) 0.3026(4) 0.4074(9)
H11_2 H 0.6844 0.3342 0.3910
C18_2 C 0.5100(7) 0.3155(3) 0.4553(7)
C19_2 C 0.4229(7) 0.2674(3) 0.4709(8)
H12_2 H 0.3446 0.2759 0.5046
C20_2 C 0.4741(7) 0.3801(3) 0.4882(7)
C24_2 C 0.8911(7) 0.4343(3) 0.9044(7)
C26_2 C 0.7589(7) 0.4696(3) 0.7710(7)
C27_2 C 0.5223(7) 0.5344(3) 0.9973(6)
C28_2 C 0.0073(7) 0.5357(3) 0.5113(7)
N3_2 N 0.4438(6) 0.2080(2) 0.4403(7)
O9_2 O 0.5332(6) 0.4247(2) 0.4493(6)
O10_2 O 0.3867(5) 0.3860(2) 0.5565(6)
O11_2 O 0.7876(6) 0.4951(2) 0.6638(6)
O12_2 O 0.6328(5) 0.4697(2) 0.7818(5)
O17_2 O 0.4611(5) 0.56075(19) 0.8621(5)
O20 O 0.8840(5) 0.5664(2) 0.4483(6)
O21_2 O 0.1427(5) 0.5564(2) 0.5902(6)
O22 O 0.8573(5) 0.4436(2) 0.4098(6)
H6_2 H 0.0024 0.6273 0.7487
C9_2 C 0.1175(8) 0.5829(3) 0.9543(8)
H7_2 H 0.2061 0.5705 0.9393
C11_2 C 0.9793(7) 0.5829(3) 0.1145(8)
H8_2 H 0.9689 0.5706 0.2029
C14_2 C 0.9927(7) 0.4643(3) 0.4887(7)
C21_2 C 0.1229(8) 0.3654(3) 0.1275(9)
H13_2 H 0.2032 0.3405 0.1998
C22_2 C 0.0012(9) 0.3830(4) 0.1585(8)
C7_2 C 0.8771(8) 0.6346(3) 0.8725(9)
H5_2 H 0.7968 0.6595 0.8002
C8_2 C 0.9988(9) 0.6170(4) 0.8415(8)
loop_
_geom_bond_atom_site_label_1
_geom_bond_atom_site_label_2
_geom_bond_site_symmetry_1
_geom_bond_site_symmetry_2
C7 H5 1_555 1_555
C8 C7 1_555 1_555
H8 C11 1_555 1_555
N2 C7 1_555 1_555
Cu3 N2 1_555 1_555
O19 Eu4 1_555 1_555
C11 N2 1_555 1_555
O8 C14 1_555 1_555
H7 C9 1_555 1_555
C10 C9 1_555 1_555
C12 C10 1_555 1_555
O4 C12 1_555 1_555
Eu4 O2 1_555 1_555
O15 Eu4 1_555 1_555
C12 O3 1_555 1_555
O4 Eu4 1_555 1_555
Cu1 N1 1_555 1_555
C1 H1 1_555 1_555
C2 C1 1_555 1_555
H2 C2 1_555 1_555
C3 C2 1_555 1_555
H3 C3 1_555 1_555
C4 C3 1_555 1_555
C5 C4 1_555 1_555
C6 C4 1_555 1_555
N1 C1 1_555 1_555
O1 C6 1_555 1_555
Cu3 O15 1_555 1_555
N5 Cu1 1_555 1_555
O14 Cu1 1_555 1_555
C5 N1 1_555 1_555
C27 O15 1_555 1_555
C27 O17 1_555 1_555
C28 O21 1_555 1_555
Cu2 N3 1_555 1_555
C15 H9 1_555 1_555
C16 C15 1_555 1_555
H10 C16 1_555 1_555
C17 C16 1_555 1_555
H11 C17 1_555 1_555
C18 C17 1_555 1_555
C19 C18 1_555 1_555
C20 C18 1_555 1_555
N3 C15 1_555 1_555
N6 Cu2 1_555 1_555
O16 Cu2 1_555 1_555
C19 N3 1_555 1_555
C20 O9 1_555 1_555
C13 O5 1_555 1_555
O5 Eu1 1_555 1_555
O18 C13 1_555 1_555
O7 Eu1 1_555 1_555
Cu4 O5 1_555 1_555
H15 C23 1_555 1_555
C24 C23 1_555 1_555
C26 C24 1_555 1_555
O10 Eu1 1_555 1_555
O12 Eu1 1_555 1_555
C26 O11 1_555 1_555
C26 O12 1_555 1_555
Cu4 N4 1_555 1_555
C21 H13 1_555 1_555
C22 C21 1_555 1_555
H16 C25 1_555 1_555
N4 C21 1_555 1_555
C25 N4 1_555 1_555
H16_2 C25_2 1_555 1_555
C25_2 N5 1_555 1_555
O6 C13_2 1_555 1_555
Eu3 O6 1_555 1_555
H15_2 C23_2 1_555 1_555
O16 Eu3 1_555 1_555
Eu1_2 O1_2 1_555 1_555
Cu4 N1_2 1_555 1_555
C1_2 H1_2 1_555 1_555
C2_2 C1_2 1_555 1_555
H2_2 C2_2 1_555 1_555
C3_2 C2_2 1_555 1_555
H3_2 C3_2 1_555 1_555
C4_2 C3_2 1_555 1_555
C5_2 C4_2 1_555 1_555
H4_2 C5_2 1_555 1_555
C6_2 C4_2 1_555 1_555
C12_2 C10_2 1_555 1_555
N1_2 C1_2 1_555 1_555
O1_2 C6_2 1_555 1_555
O2_2 C6_2 1_555 1_555
O3_2 Eu1_2 1_555 1_555
O4_2 C12_2 1_555 1_555
O14 Eu1_2 1_555 1_555
O7_2 Eu1_2 1_555 1_555
Eu3 O2_2 1_555 1_555
Cu3 N3_2 1_555 1_555
C15_2 H9_2 1_555 1_555
C16_2 C15_2 1_555 1_555
H10_2 C16_2 1_555 1_555
C17_2 C16_2 1_555 1_555
H11_2 C17_2 1_555 1_555
C18_2 C17_2 1_555 1_555
C19_2 C18_2 1_555 1_555
H12_2 C19_2 1_555 1_555
C20_2 C18_2 1_555 1_555
C26_2 C24_2 1_555 1_555
N3_2 C15_2 1_555 1_555
O9_2 Eu3 1_555 1_555
O10_2 Eu1_2 1_555 1_555
O11_2 Eu3 1_555 1_555
O12_2 Eu1_2 1_555 1_555
O17_2 Eu1_2 1_555 1_555
O20 Eu3 1_555 1_555
O21_2 Eu1_2 1_555 1_555
O22 Eu3 1_555 1_555
C5_2 N1_2 1_555 1_555
C12_2 O3_2 1_555 1_555
O4_2 Eu3 1_555 1_555
C19_2 N3_2 1_555 1_555
C20_2 O9_2 1_555 1_555
C20_2 O10_2 1_555 1_555
C26_2 O11_2 1_555 1_555
C26_2 O12_2 1_555 1_555
C27_2 O17_2 1_555 1_555
C28_2 O21_2 1_555 1_555
H7_2 C9_2 1_555 1_555
H8_2 C11_2 1_555 1_555
O22 C14_2 1_555 1_555
C11_2 N6 1_555 1_555
C21_2 H13_2 1_555 1_555
C22_2 C21_2 1_555 1_555
C7_2 H5_2 1_555 1_555
C8_2 C7_2 1_555 1_555

#END
