
###############################################################################
#
# This file contains modified crystal structure data generated from the
# MOF subset of the Cambridge Structural Database (CSD) v543 
# hosted by the Cambridge Crystallographic Data Centre (CCDC).
#
# This work is licensed under the Creative Commons
# Attribution-NonCommercial-ShareAlike 4.0 International License.
# To view a copy of this license, visit
# http://creativecommons.org/licenses/by-nc-sa/4.0/
# or send a letter to
# Creative Commons, PO Box 1866, Mountain View, CA 94042, USA.
#
# CIF created using the CSD Python API on 29 September 2022
# The structure has been converted into the P1 space group
# The structure has a 3D framework
# The original CSD entry DOKDAL is in the triclinic crystal system
# The framework has been calculated to contain at least 10.0% void space
# The void calculation uses a probe of radius 1.32A, grid spacing 0.4
#
###############################################################################

data_DOKDAL
_chemical_formula_moiety         '(C80 H52 N20 O16 Zn4)n'
_symmetry_cell_setting           triclinic
_symmetry_space_group_name_H-M   'P 1'
_symmetry_Int_Tables_number      1
_space_group_name_Hall           'P 1'
loop_
_symmetry_equiv_pos_site_id
_symmetry_equiv_pos_as_xyz
1 x,y,z
_cell_length_a                   13.657(2)
_cell_length_b                   15.099(3)
_cell_length_c                   17.129(3)
_cell_angle_alpha                69.483(2)
_cell_angle_beta                 71.932(2)
_cell_angle_gamma                74.038(2)
_cell_volume                     3089.61
loop_
_atom_site_label
_atom_site_type_symbol
_atom_site_fract_x
_atom_site_fract_y
_atom_site_fract_z
_atom_site_U_iso_or_equiv
_atom_site_thermal_displace_type
C41 C 0.1556(4) 0.1784(3) 0.8126(3) 0.0504 Uani
H27 H 0.222660 0.168516 0.775026 0.0600 Uiso
C42 C 0.1161(4) 0.1011(3) 0.8730(4) 0.0600 Uani
H28 H 0.155830 0.037891 0.877141 0.0730 Uiso
C43 C 0.0195(4) 0.1147(3) 0.9274(3) 0.0444 Uani
C46 C 0.0985(3) 0.2701(3) 0.8062(3) 0.0323 Uani
C47 C 0.1447(3) 0.3568(3) 0.7452(2) 0.0286 Uani
O9 O 0.2400(2) 0.34229(19) 0.7089(2) 0.0411 Uani
O10 O 0.0845(2) 0.43641(18) 0.73646(18) 0.0320 Uani
Zn9 Zn 0.13644(3) 0.56065(3) 0.67710(2) 0.0184 Uani
Zn12 Zn 0.34785(3) 0.43275(3) 0.65692(2) 0.0184 Uani
N13 N 0.0232(2) 0.6813(2) 0.66696(19) 0.0248 Uani
H37 H 0.009443 0.897698 0.538965 0.0440 Uiso
C59 C 0.0460(3) 0.7561(3) 0.5970(2) 0.0322 Uani
H38 H 0.103582 0.744560 0.551103 0.0390 Uiso
O11 O 0.4200(2) 0.54888(18) 0.60704(18) 0.0314 Uani
O12 O 0.2562(2) 0.63611(17) 0.62323(18) 0.0295 Uani
C48 C 0.3550(3) 0.6272(2) 0.6024(2) 0.0260 Uani
C49 C 0.5017(3) 0.7194(3) 0.5247(3) 0.0286 Uani
H31 H 0.545923 0.661853 0.514431 0.0340 Uiso
C50 C 0.3988(3) 0.7183(3) 0.5702(3) 0.0305 Uani
N12 N 0.5229(3) 0.9698(2) 0.4793(3) 0.0422 Uani
C51 C 0.5408(3) 0.8039(3) 0.4939(3) 0.0347 Uani
H32 H 0.610918 0.805213 0.461018 0.0410 Uiso
C52 C 0.4764(4) 0.8863(3) 0.5117(3) 0.0400 Uani
C53 C 0.3722(4) 0.8863(3) 0.5552(4) 0.0559 Uani
H33 H 0.328008 0.943745 0.565656 0.0670 Uiso
C54 C 0.3330(4) 0.8030(3) 0.5831(4) 0.0501 Uani
H34 H 0.261101 0.803259 0.611167 0.0600 Uiso
C60 C 0.2656(4) 0.4826(4) 0.0632(3) 0.0549 Uani
C61 C 0.1679(4) 0.5040(3) 0.0465(3) 0.0408 Uani
H39 H 0.106508 0.513947 0.089940 0.0490 Uiso
C62 C 0.3558(5) 0.4681(7) 0.0028(4) 0.0897 Uani
H40 H 0.422254 0.457690 0.014634 0.1080 Uiso
O15 O 0.1514(2) 0.54466(18) 0.56011(16) 0.0271 Uani
O16 O 0.3163(2) 0.46246(18) 0.54117(16) 0.0266 Uani
N14 N 0.4737(2) 0.3247(2) 0.65866(18) 0.0231 Uani
C67 C 0.5705(3) 0.3418(3) 0.6143(2) 0.0276 Uani
H43 H 0.578560 0.406548 0.584600 0.0330 Uiso
N15 N 0.7489(3) 0.0032(2) 0.6696(2) 0.0327 Uani
C68 C 0.2321(3) 0.5023(2) 0.5183(2) 0.0221 Uani
C69 C 0.2275(3) 0.4991(3) 0.4325(2) 0.0269 Uani
C70 C 0.6483(3) 0.1747(3) 0.6520(2) 0.0294 Uani
C71 C 0.6578(3) 0.2709(3) 0.6099(2) 0.0286 Uani
H44 H 0.724458 0.286871 0.578502 0.0340 Uiso
C72 C 0.4654(3) 0.2321(3) 0.6993(3) 0.0322 Uani
H45 H 0.397985 0.218161 0.730672 0.0390 Uiso
C73 C 0.5486(3) 0.1567(3) 0.6980(3) 0.0344 Uani
H46 H 0.538292 0.092685 0.728215 0.0410 Uiso
N16 N 0.8361(3) 0.1227(2) 0.6092(3) 0.0432 Uani
C74 C 0.7416(3) 0.1008(3) 0.6439(3) 0.0320 Uani
C75 C 0.1254(4) 0.5188(3) 0.3345(3) 0.0408 Uani
H47 H 0.059253 0.534912 0.320635 0.0490 Uiso
N17 N 0.2828(4) 0.4765(4) 0.1442(3) 0.0644 Uani
C76 C 0.3186(3) 0.4718(3) 0.3749(3) 0.0349 Uani
H48 H 0.384384 0.457167 0.388923 0.0420 Uiso
N19 N 0.9071(3) 0.0373(2) 0.6104(3) 0.0440 Uani
C77 C 0.1321(3) 0.5241(3) 0.4109(2) 0.0334 Uani
H49 H 0.070383 0.545129 0.449487 0.0400 Uiso
N20 N 0.2008(3) 0.4909(3) 0.1977(2) 0.0438 Uani
C78 C 0.2167(4) 0.4894(3) 0.2770(3) 0.0395 Uani
C80 C 0.3144(4) 0.4657(4) 0.2978(3) 0.0442 Uani
H50 H 0.376701 0.445810 0.259079 0.0530 Uiso
O20 O 0.1579(2) 0.5488(2) 0.79390(17) 0.0381 Uani
O22 O 0.3152(3) 0.4538(2) 0.77412(18) 0.0461 Uani
C63 C 0.1599(4) 0.5108(3) 0.9657(3) 0.0408 Uani
H41 H 0.092805 0.527612 0.953318 0.0490 Uiso
C64 C 0.3480(5) 0.4690(6) 0.9215(4) 0.0852 Uani
H42 H 0.409229 0.453255 0.880001 0.1020 Uiso
C65 C 0.2484(4) 0.4934(3) 0.9033(3) 0.0410 Uani
C66 C 0.2408(4) 0.4989(3) 0.8161(2) 0.0345 Uani
N1 N 0.0290(3) 0.9603(3) 0.0045(3) 0.0530 Uani
C4 C 0.0411(4) 0.7941(3) 0.0803(3) 0.0466 Uani
H3 H 0.109309 0.785070 0.043946 0.0550 Uiso
C5 C 0.0013(3) 0.7164(3) 0.1414(3) 0.0364 Uani
H4 H 0.042426 0.653512 0.147565 0.0430 Uiso
C8 C 0.0616(3) 0.3014(3) 0.2710(3) 0.0331 Uani
H5 H 0.080791 0.353764 0.222517 0.0400 Uiso
C9 C 0.1223(3) 0.2109(3) 0.2746(3) 0.0364 Uani
H6 H 0.182079 0.201396 0.229601 0.0430 Uiso
C10 C 0.0944(3) 0.1341(3) 0.3451(3) 0.0334 Uani
C11 C 0.0096(3) 0.1529(3) 0.4108(3) 0.0370 Uani
N8 N 0.3352(3) 0.0451(3) 0.3000(3) 0.0429 Uani
C36 C 0.1467(3) 0.0331(3) 0.3542(3) 0.0342 Uani
H25 H 0.341(3) 0.091(3) 0.329(3) 0.0360 Uiso
H26 H 0.325(4) 0.079(4) 0.258(3) 0.0390 Uiso
N11 N 0.9710(3) 0.0397(3) 0.9955(3) 0.0530 Uani
C44 C 0.9589(4) 0.2059(3) 0.9197(3) 0.0466 Uani
H29 H 0.890691 0.214930 0.956054 0.0550 Uiso
C45 C 0.9987(3) 0.2836(3) 0.8586(3) 0.0364 Uani
H30 H 0.957574 0.346488 0.852435 0.0430 Uiso
O3 O 0.8421(2) 0.4512(2) 0.20610(17) 0.0381 Uani
C16 C 0.8401(4) 0.4892(3) 0.0343(3) 0.0408 Uani
H11 H 0.907195 0.472388 0.046682 0.0490 Uiso
C17 C 0.6520(5) 0.5310(6) 0.0785(4) 0.0852 Uani
H12 H 0.590771 0.546745 0.119999 0.1020 Uiso
C18 C 0.7516(4) 0.5066(3) 0.0967(3) 0.0410 Uani
C19 C 0.7592(4) 0.5011(3) 0.1839(2) 0.0345 Uani
O4 O 0.6848(3) 0.5462(2) 0.22588(18) 0.0461 Uani
Zn6 Zn 0.86356(3) 0.43935(3) 0.32290(2) 0.0184 Uani
Zn10 Zn 0.65215(3) 0.56725(3) 0.34308(2) 0.0184 Uani
C1 C 0.8444(4) 0.8216(3) 0.1874(3) 0.0504 Uani
H1 H 0.777340 0.831484 0.224974 0.0600 Uiso
C2 C 0.8839(4) 0.8989(3) 0.1270(4) 0.0600 Uani
H2 H 0.844170 0.962109 0.122859 0.0730 Uiso
C3 C 0.9805(4) 0.8853(3) 0.0726(3) 0.0444 Uani
C6 C 0.9015(3) 0.7299(3) 0.1938(3) 0.0323 Uani
C7 C 0.8553(3) 0.6432(3) 0.2548(2) 0.0286 Uani
O1 O 0.7600(2) 0.65771(19) 0.2911(2) 0.0411 Uani
O2 O 0.9155(2) 0.56359(18) 0.26354(18) 0.0320 Uani
C13 C 0.7344(4) 0.5174(4) 0.9368(3) 0.0549 Uani
C14 C 0.8321(4) 0.4960(3) 0.9535(3) 0.0408 Uani
H9 H 0.893492 0.486053 0.910060 0.0490 Uiso
C15 C 0.6442(5) 0.5319(7) 0.9972(4) 0.0897 Uani
H10 H 0.577746 0.542310 0.985366 0.1080 Uiso
O5 O 0.8486(2) 0.45534(18) 0.43989(16) 0.0271 Uani
O6 O 0.5800(2) 0.45112(18) 0.39296(18) 0.0314 Uani
O7 O 0.7438(2) 0.36389(17) 0.37677(18) 0.0295 Uani
O8 O 0.6837(2) 0.53754(18) 0.45883(16) 0.0266 Uani
N3 N 0.5263(2) 0.6753(2) 0.34134(18) 0.0231 Uani
C20 C 0.4295(3) 0.6582(3) 0.3857(2) 0.0276 Uani
H13 H 0.421440 0.593452 0.415400 0.0330 Uiso
N4 N 0.2511(3) 0.9968(2) 0.3304(2) 0.0327 Uani
C21 C 0.6450(3) 0.3728(2) 0.3976(2) 0.0260 Uani
C22 C 0.7679(3) 0.4977(2) 0.4817(2) 0.0221 Uani
C23 C 0.7725(3) 0.5009(3) 0.5675(2) 0.0269 Uani
C24 C 0.3517(3) 0.8253(3) 0.3480(2) 0.0294 Uani
C25 C 0.3422(3) 0.7291(3) 0.3901(2) 0.0286 Uani
H14 H 0.275542 0.713129 0.421498 0.0340 Uiso
C26 C 0.5346(3) 0.7679(3) 0.3007(3) 0.0322 Uani
H15 H 0.602015 0.781839 0.269328 0.0390 Uiso
C27 C 0.4514(3) 0.8433(3) 0.3020(3) 0.0344 Uani
H16 H 0.461708 0.907315 0.271785 0.0410 Uiso
C28 C 0.4983(3) 0.2806(3) 0.4753(3) 0.0286 Uani
H17 H 0.454077 0.338147 0.485569 0.0340 Uiso
N5 N 0.1639(3) 0.8773(2) 0.3908(3) 0.0432 Uani
C29 C 0.2584(3) 0.8992(3) 0.3561(3) 0.0320 Uani
C30 C 0.8746(4) 0.4812(3) 0.6655(3) 0.0408 Uani
H18 H 0.940747 0.465088 0.679365 0.0490 Uiso
C31 C 0.6012(3) 0.2817(3) 0.4298(3) 0.0305 Uani
N6 N 0.4771(3) 0.0302(2) 0.5207(3) 0.0422 Uani
N7 N 0.7172(4) 0.5235(4) 0.8558(3) 0.0644 Uani
C32 C 0.6814(3) 0.5282(3) 0.6251(3) 0.0349 Uani
H19 H 0.615616 0.542833 0.611077 0.0420 Uiso
N9 N 0.0929(3) 0.9627(2) 0.3896(3) 0.0440 Uani
C33 C 0.8679(3) 0.4759(3) 0.5891(2) 0.0334 Uani
H20 H 0.929617 0.454871 0.550513 0.0400 Uiso
C34 C 0.4592(3) 0.1961(3) 0.5061(3) 0.0347 Uani
H21 H 0.389082 0.194787 0.538982 0.0410 Uiso
N10 N 0.7992(3) 0.5091(3) 0.8023(2) 0.0438 Uani
C35 C 0.7833(4) 0.5106(3) 0.7230(3) 0.0395 Uani
C37 C 0.6856(4) 0.5343(4) 0.7022(3) 0.0442 Uani
H22 H 0.623299 0.554190 0.740921 0.0530 Uiso
C38 C 0.5236(4) 0.1137(3) 0.4883(3) 0.0400 Uani
C39 C 0.6278(4) 0.1137(3) 0.4448(4) 0.0559 Uani
H23 H 0.671992 0.056255 0.434344 0.0670 Uiso
C40 C 0.6670(4) 0.1970(3) 0.4169(4) 0.0501 Uani
H24 H 0.738899 0.196741 0.388833 0.0600 Uiso
N21 N 0.9768(2) 0.3187(2) 0.33304(19) 0.0248 Uani
H7 H 0.990557 0.102302 0.461035 0.0440 Uiso
C12 C 0.9540(3) 0.2439(3) 0.4030(2) 0.0322 Uani
H8 H 0.896418 0.255440 0.448897 0.0390 Uiso
C55 C 0.9384(3) 0.6986(3) 0.7290(3) 0.0331 Uani
H35 H 0.919209 0.646236 0.777483 0.0400 Uiso
C56 C 0.8777(3) 0.7891(3) 0.7254(3) 0.0364 Uani
H36 H 0.817921 0.798604 0.770399 0.0430 Uiso
C57 C 0.9056(3) 0.8659(3) 0.6549(3) 0.0334 Uani
C58 C 0.9904(3) 0.8471(3) 0.5892(3) 0.0370 Uani
N18 N 0.6648(3) 0.9549(3) 0.7000(3) 0.0429 Uani
C79 C 0.8533(3) 0.9669(3) 0.6458(3) 0.0342 Uani
H51 H 0.659(3) 0.909(3) 0.671(3) 0.0360 Uiso
H52 H 0.675(4) 0.921(4) 0.742(3) 0.0390 Uiso
loop_
_atom_site_aniso_label
_atom_site_aniso_U_11
_atom_site_aniso_U_22
_atom_site_aniso_U_33
_atom_site_aniso_U_23
_atom_site_aniso_U_13
_atom_site_aniso_U_12
C41 0.041 0.03 0.058 0.003 0 -0.006
C42 0.047 0.021 0.081 0.007 0.003 -0.007
C43 0.045 0.028 0.047 0.0092 -0.01 -0.0133
C46 0.034 0.0217 0.033 0.0072 -0.0106 -0.0092
C47 0.033 0.0231 0.0276 -0.0002 -0.0096 -0.0084
O9 0.0312 0.0186 0.056 0.0057 -0.0058 -0.0039
O10 0.0346 0.0176 0.0343 0.0099 -0.0118 -0.0089
Zn9 0.0241 0.014 0.0157 -0.00359 -0.00691 1e-05
Zn12 0.0251 0.0144 0.0134 -0.00329 -0.00618 0.0006
N13 0.0236 0.0207 0.0236 -0.0068 -0.0034 0.004
C59 0.031 0.0276 0.0241 -0.0045 0.0007 0.0042
O11 0.0323 0.021 0.0421 -0.0132 -0.0054 -0.0054
O12 0.0323 0.0198 0.0361 -0.0043 -0.0107 -0.0066
C48 0.037 0.0192 0.026 -0.0061 -0.0116 -0.0076
C49 0.033 0.022 0.034 -0.012 -0.0094 -0.0034
C50 0.037 0.0173 0.04 -0.0081 -0.0117 -0.0066
N12 0.04 0.0252 0.062 -0.0147 -0.0061 -0.0113
C51 0.034 0.029 0.042 -0.0135 -0.0046 -0.0083
C52 0.042 0.024 0.056 -0.0132 -0.009 -0.0102
C53 0.043 0.027 0.095 -0.029 -0.001 -0.005
C54 0.034 0.029 0.085 -0.027 0.003 -0.0083
C60 0.056 0.084 0.033 -0.03 -0.021 0.003
C61 0.051 0.051 0.0183 -0.0143 -0.0139 0.006
C62 0.043 0.188 0.059 -0.081 0 -0.009
O15 0.033 0.0291 0.0205 -0.0092 -0.0108 -0.0002
O16 0.0308 0.0309 0.0191 -0.0102 -0.0106 0.0019
N14 0.033 0.016 0.0177 -0.0035 -0.0073 -0.0008
C67 0.032 0.023 0.0256 -0.0038 -0.0091 -0.0033
N15 0.0324 0.0184 0.0304 -0.0024 0.0011 0.0058
C68 0.0292 0.0199 0.0182 -0.0058 -0.0059 -0.0055
C69 0.037 0.028 0.0167 -0.007 -0.0093 -0.0037
C70 0.036 0.0182 0.025 -0.0028 -0.0062 0.0035
C71 0.029 0.0195 0.03 -0.0037 -0.0038 -0.0013
C72 0.03 0.0204 0.03 -0.0009 0.0037 0.0001
C73 0.038 0.0187 0.032 0.0001 0.0002 -0.0023
N16 0.035 0.025 0.05 -0.0031 -0.0006 0.0038
C74 0.036 0.0198 0.029 -0.0051 -0.0031 0.0046
C75 0.042 0.058 0.027 -0.008 -0.0206 -0.008
N17 0.052 0.113 0.035 -0.038 -0.017 0.003
C76 0.034 0.049 0.0245 -0.0188 -0.0093 0.0012
N19 0.038 0.0237 0.05 -0.0048 -0.0007 0.0072
C77 0.032 0.048 0.0216 -0.0154 -0.0062 -0.0029
N20 0.049 0.061 0.0294 -0.0225 -0.0128 -0.0064
C78 0.054 0.052 0.0214 -0.0155 -0.0154 -0.01
C80 0.043 0.063 0.033 -0.032 -0.003 -0.003
O20 0.0463 0.0505 0.0205 -0.0159 -0.0126 -0.0011
O22 0.067 0.047 0.02 -0.0194 -0.0173 0.0165
C63 0.049 0.046 0.027 -0.01 -0.016 -0.001
C64 0.05 0.168 0.046 -0.056 -0.02 0.009
C65 0.051 0.049 0.024 -0.0163 -0.017 0.006
C66 0.056 0.034 0.0156 -0.0078 -0.0165 -0.002
N1 0.051 0.0311 0.06 0.009 -0.008 -0.0162
C4 0.044 0.036 0.045 0.002 -0.002 -0.012
C5 0.039 0.026 0.036 0.0018 -0.0089 -0.0075
C8 0.039 0.0229 0.0244 -0.0003 -0.0036 0.0015
C9 0.036 0.031 0.027 -0.0053 0.0001 0.0049
C10 0.034 0.0212 0.033 -0.0036 -0.0061 0.006
C11 0.041 0.0242 0.027 0.0034 -0.0025 0.0027
N8 0.04 0.0227 0.053 -0.0077 -0.005 0.0035
C36 0.034 0.0214 0.028 -0.0022 0.0013 0.0083
N11 0.051 0.0311 0.06 0.009 -0.008 -0.0162
C44 0.044 0.036 0.045 0.002 -0.002 -0.012
C45 0.039 0.026 0.036 0.0018 -0.0089 -0.0075
O3 0.0463 0.0505 0.0205 -0.0159 -0.0126 -0.0011
C16 0.049 0.046 0.027 -0.01 -0.016 -0.001
C17 0.05 0.168 0.046 -0.056 -0.02 0.009
C18 0.051 0.049 0.024 -0.0163 -0.017 0.006
C19 0.056 0.034 0.0156 -0.0078 -0.0165 -0.002
O4 0.067 0.047 0.02 -0.0194 -0.0173 0.0165
Zn6 0.0241 0.014 0.0157 -0.00359 -0.00691 1e-05
Zn10 0.0251 0.0144 0.0134 -0.00329 -0.00618 0.0006
C1 0.041 0.03 0.058 0.003 0 -0.006
C2 0.047 0.021 0.081 0.007 0.003 -0.007
C3 0.045 0.028 0.047 0.0092 -0.01 -0.0133
C6 0.034 0.0217 0.033 0.0072 -0.0106 -0.0092
C7 0.033 0.0231 0.0276 -0.0002 -0.0096 -0.0084
O1 0.0312 0.0186 0.056 0.0057 -0.0058 -0.0039
O2 0.0346 0.0176 0.0343 0.0099 -0.0118 -0.0089
C13 0.056 0.084 0.033 -0.03 -0.021 0.003
C14 0.051 0.051 0.0183 -0.0143 -0.0139 0.006
C15 0.043 0.188 0.059 -0.081 0 -0.009
O5 0.033 0.0291 0.0205 -0.0092 -0.0108 -0.0002
O6 0.0323 0.021 0.0421 -0.0132 -0.0054 -0.0054
O7 0.0323 0.0198 0.0361 -0.0043 -0.0107 -0.0066
O8 0.0308 0.0309 0.0191 -0.0102 -0.0106 0.0019
N3 0.033 0.016 0.0177 -0.0035 -0.0073 -0.0008
C20 0.032 0.023 0.0256 -0.0038 -0.0091 -0.0033
N4 0.0324 0.0184 0.0304 -0.0024 0.0011 0.0058
C21 0.037 0.0192 0.026 -0.0061 -0.0116 -0.0076
C22 0.0292 0.0199 0.0182 -0.0058 -0.0059 -0.0055
C23 0.037 0.028 0.0167 -0.007 -0.0093 -0.0037
C24 0.036 0.0182 0.025 -0.0028 -0.0062 0.0035
C25 0.029 0.0195 0.03 -0.0037 -0.0038 -0.0013
C26 0.03 0.0204 0.03 -0.0009 0.0037 0.0001
C27 0.038 0.0187 0.032 0.0001 0.0002 -0.0023
C28 0.033 0.022 0.034 -0.012 -0.0094 -0.0034
N5 0.035 0.025 0.05 -0.0031 -0.0006 0.0038
C29 0.036 0.0198 0.029 -0.0051 -0.0031 0.0046
C30 0.042 0.058 0.027 -0.008 -0.0206 -0.008
C31 0.037 0.0173 0.04 -0.0081 -0.0117 -0.0066
N6 0.04 0.0252 0.062 -0.0147 -0.0061 -0.0113
N7 0.052 0.113 0.035 -0.038 -0.017 0.003
C32 0.034 0.049 0.0245 -0.0188 -0.0093 0.0012
N9 0.038 0.0237 0.05 -0.0048 -0.0007 0.0072
C33 0.032 0.048 0.0216 -0.0154 -0.0062 -0.0029
C34 0.034 0.029 0.042 -0.0135 -0.0046 -0.0083
N10 0.049 0.061 0.0294 -0.0225 -0.0128 -0.0064
C35 0.054 0.052 0.0214 -0.0155 -0.0154 -0.01
C37 0.043 0.063 0.033 -0.032 -0.003 -0.003
C38 0.042 0.024 0.056 -0.0132 -0.009 -0.0102
C39 0.043 0.027 0.095 -0.029 -0.001 -0.005
C40 0.034 0.029 0.085 -0.027 0.003 -0.0083
N21 0.0236 0.0207 0.0236 -0.0068 -0.0034 0.004
C12 0.031 0.0276 0.0241 -0.0045 0.0007 0.0042
C55 0.039 0.0229 0.0244 -0.0003 -0.0036 0.0015
C56 0.036 0.031 0.027 -0.0053 0.0001 0.0049
C57 0.034 0.0212 0.033 -0.0036 -0.0061 0.006
C58 0.041 0.0242 0.027 0.0034 -0.0025 0.0027
N18 0.04 0.0227 0.053 -0.0077 -0.005 0.0035
C79 0.034 0.0214 0.028 -0.0022 0.0013 0.0083
loop_
_geom_bond_atom_site_label_1
_geom_bond_atom_site_label_2
_geom_bond_site_symmetry_1
_geom_bond_site_symmetry_2
C41 H27 1_555 1_555
C42 C41 1_555 1_555
H28 C42 1_555 1_555
C46 C41 1_555 1_555
C47 C46 1_555 1_555
O9 C47 1_555 1_555
O10 C47 1_555 1_555
Zn9 O10 1_555 1_555
Zn12 O9 1_555 1_555
C42 C43 1_555 1_555
C59 N13 1_555 1_555
H38 C59 1_555 1_555
Zn9 N13 1_555 1_555
O11 C48 1_555 1_555
O12 C48 1_555 1_555
C48 C50 1_555 1_555
C49 H31 1_555 1_555
C50 C49 1_555 1_555
C51 C49 1_555 1_555
H32 C51 1_555 1_555
C52 N12 1_555 1_555
C53 C52 1_555 1_555
H33 C53 1_555 1_555
C54 C50 1_555 1_555
H34 C54 1_555 1_555
C60 C61 1_555 1_555
C61 H39 1_555 1_555
C62 C60 1_555 1_555
H40 C62 1_555 1_555
Zn9 O12 1_555 1_555
Zn12 O11 1_555 1_555
O15 Zn9 1_555 1_555
O16 Zn12 1_555 1_555
N14 Zn12 1_555 1_555
C67 N14 1_555 1_555
H43 C67 1_555 1_555
N15 C74 1_555 1_555
C68 O15 1_555 1_555
C69 C68 1_555 1_555
C70 C71 1_555 1_555
C71 C67 1_555 1_555
H44 C71 1_555 1_555
C72 N14 1_555 1_555
H45 C72 1_555 1_555
C73 C70 1_555 1_555
H46 C73 1_555 1_555
N16 C74 1_555 1_555
C74 C70 1_555 1_555
C75 H47 1_555 1_555
N17 C60 1_555 1_555
C76 C69 1_555 1_555
H48 C76 1_555 1_555
N19 N16 1_555 1_555
C77 C69 1_555 1_555
H49 C77 1_555 1_555
N20 N17 1_555 1_555
C78 C75 1_555 1_555
C80 C76 1_555 1_555
H50 C80 1_555 1_555
O20 Zn9 1_555 1_555
O22 Zn12 1_555 1_555
C51 C52 1_555 1_555
C53 C54 1_555 1_555
O16 C68 1_555 1_555
C72 C73 1_555 1_555
C75 C77 1_555 1_555
N20 C78 1_555 1_555
C78 C80 1_555 1_555
O20 C66 1_555 1_555
H41 C63 1_555 1_555
H42 C64 1_555 1_555
C65 C63 1_555 1_555
C66 C65 1_555 1_555
O22 C66 1_555 1_555
C64 C65 1_555 1_555
H3 C4 1_555 1_555
C5 C4 1_555 1_555
H4 C5 1_555 1_555
C8 H5 1_555 1_555
C9 C8 1_555 1_555
H6 C9 1_555 1_555
C10 C9 1_555 1_555
C11 C10 1_555 1_555
C36 C10 1_555 1_555
H25 N8 1_555 1_555
H26 N8 1_555 1_555
H29 C44 1_555 1_555
C45 C44 1_555 1_555
H30 C45 1_555 1_555
O3 C19 1_555 1_555
H11 C16 1_555 1_555
H12 C17 1_555 1_555
C18 C16 1_555 1_555
C19 C18 1_555 1_555
O4 C19 1_555 1_555
Zn6 O3 1_555 1_555
Zn10 O4 1_555 1_555
C17 C18 1_555 1_555
C1 H1 1_555 1_555
C2 C1 1_555 1_555
H2 C2 1_555 1_555
C3 C2 1_555 1_555
C6 C1 1_555 1_555
C7 C6 1_555 1_555
O1 C7 1_555 1_555
O2 C7 1_555 1_555
C13 C14 1_555 1_555
C14 H9 1_555 1_555
C15 C13 1_555 1_555
H10 C15 1_555 1_555
Zn6 O2 1_555 1_555
Zn10 O1 1_555 1_555
O5 Zn6 1_555 1_555
O6 Zn10 1_555 1_555
O7 Zn6 1_555 1_555
O8 Zn10 1_555 1_555
N3 Zn10 1_555 1_555
C20 N3 1_555 1_555
H13 C20 1_555 1_555
N4 C29 1_555 1_555
C21 O6 1_555 1_555
C22 O5 1_555 1_555
C23 C22 1_555 1_555
C24 C25 1_555 1_555
C25 C20 1_555 1_555
H14 C25 1_555 1_555
C26 N3 1_555 1_555
H15 C26 1_555 1_555
C27 C24 1_555 1_555
H16 C27 1_555 1_555
C28 H17 1_555 1_555
N5 C29 1_555 1_555
C29 C24 1_555 1_555
C30 H18 1_555 1_555
C31 C21 1_555 1_555
N6 C38 1_555 1_555
N7 C13 1_555 1_555
C32 C23 1_555 1_555
H19 C32 1_555 1_555
N9 N5 1_555 1_555
C33 C23 1_555 1_555
H20 C33 1_555 1_555
C34 C28 1_555 1_555
H21 C34 1_555 1_555
N10 N7 1_555 1_555
C35 C30 1_555 1_555
C37 C32 1_555 1_555
H22 C37 1_555 1_555
C38 C34 1_555 1_555
C39 C38 1_555 1_555
H23 C39 1_555 1_555
C40 C31 1_555 1_555
H24 C40 1_555 1_555
N21 Zn6 1_555 1_555
O7 C21 1_555 1_555
O8 C22 1_555 1_555
C26 C27 1_555 1_555
C28 C31 1_555 1_555
C30 C33 1_555 1_555
N10 C35 1_555 1_555
C35 C37 1_555 1_555
C39 C40 1_555 1_555
C12 N21 1_555 1_555
H8 C12 1_555 1_555
C55 H35 1_555 1_555
C56 C55 1_555 1_555
H36 C56 1_555 1_555
C57 C56 1_555 1_555
C58 C57 1_555 1_555
C79 C57 1_555 1_555
H51 N18 1_555 1_555
H52 N18 1_555 1_555

#END
