
###############################################################################
#
# This file contains modified crystal structure data generated from the
# MOF subset of the Cambridge Structural Database (CSD) v543 
# hosted by the Cambridge Crystallographic Data Centre (CCDC).
#
# This work is licensed under the Creative Commons
# Attribution-NonCommercial-ShareAlike 4.0 International License.
# To view a copy of this license, visit
# http://creativecommons.org/licenses/by-nc-sa/4.0/
# or send a letter to
# Creative Commons, PO Box 1866, Mountain View, CA 94042, USA.
#
# CIF created using the CSD Python API on 29 September 2022
# The structure has been converted into the P1 space group
# The structure has a 3D framework
# The original CSD entry DOKHIV is in the monoclinic crystal system
# The framework has been calculated to contain at least 10.0% void space
# The void calculation uses a probe of radius 1.32A, grid spacing 0.4
# The framework is charged, counterions have been retained in the structure
# H atom positions have been added when not included in the experimental data
#
###############################################################################

data_DOKHIV
_chemical_formula_moiety         '(C112 H72 Cu13 N8 O70 S6 4+)n'
_symmetry_cell_setting           triclinic
_symmetry_space_group_name_H-M   'P 1'
_symmetry_Int_Tables_number      1
_space_group_name_Hall           'P 1'
loop_
_symmetry_equiv_pos_site_id
_symmetry_equiv_pos_as_xyz
1 x,y,z
_cell_length_a                   33.5656(8)
_cell_length_b                   6.6676(2)
_cell_length_c                   21.2236(5)
_cell_angle_alpha                90
_cell_angle_beta                 126.7420(10)
_cell_angle_gamma                90
_cell_volume                     3806.26
loop_
_atom_site_label
_atom_site_type_symbol
_atom_site_fract_x
_atom_site_fract_y
_atom_site_fract_z
O24 O 0.0293(3) 0.0966(9) 0.7353(4)
O9 O 0.9707(3) 0.0966(9) 0.7647(4)
C10 C 0.8433(4) 0.0244(15) 0.6325(5)
H4 H 0.8678 0.0280 0.6865
C11 C 0.8077(4) 0.1693(16) 0.5994(5)
H5 H 0.8086 0.2680 0.6312
C12 C 0.7699(3) 0.1729(13) 0.5190(5)
C13 C 0.7721(4) 0.0225(16) 0.4761(5)
H6 H 0.7486 0.0189 0.4217
Cu6 Cu 0.60265(3) 0.84035(14) 0.35313(5)
C24 C 0.6567(4) 0.4756(15) 0.3675(5)
H11 H 0.6322 0.4720 0.3135
C25 C 0.6923(4) 0.3307(16) 0.4006(5)
H12 H 0.6914 0.2320 0.3688
C26 C 0.7301(3) 0.3271(13) 0.4810(5)
C27 C 0.7279(4) 0.4775(16) 0.5239(5)
H13 H 0.7514 0.4811 0.5783
C28 C 0.6917(4) 0.6201(16) 0.4869(5)
H14 H 0.6924 0.7212 0.5177
N2 N 0.6552(3) 0.6253(11) 0.4094(4)
O4 O 0.37856(19) 0.9384(9) 0.0458(3)
C8 C 0.4045(3) 0.9976(11) 0.0246(4)
Cu4 Cu 0.39735(3) 0.84035(14) 0.14687(5)
Cu8 Cu 0.49868(3) 0.98699(14) 0.18043(5)
O7 O 0.45150(17) 0.9680(7) 0.7054(3)
Cu7 Cu 0.50132(3) 0.98699(14) 0.31957(5)
O10 O 0.3841(2) 0.8468(9) 0.2244(3)
O11 O 0.45322(19) 0.9454(10) 0.3394(3)
O12 O 0.45108(19) 0.9824(8) 0.5688(3)
O13 O 0.54892(19) 0.9824(8) 0.9312(3)
O17 O 0.2224(2) 0.9073(12) 0.2855(3)
O18 O 0.2249(2) 0.9143(10) 0.1827(3)
O19 O 0.54850(17) 0.9680(7) 0.7946(3)
O23 O 0.4664(2) 0.6561(8) 0.1805(3)
C15 C 0.3793(3) 0.9143(12) 0.3282(4)
C16 C 0.4046(3) 0.9470(11) 0.4090(4)
H8 H 0.4391 0.9570 0.4422
C17 C 0.3776(3) 0.9644(11) 0.4389(4)
C18 C 0.3261(3) 0.9458(12) 0.3890(4)
H9 H 0.3083 0.9536 0.4095
C19 C 0.3015(3) 0.9164(12) 0.3101(4)
C20 C 0.3278(3) 0.8996(12) 0.2796(4)
H10 H 0.3110 0.8781 0.2260
C21 C 0.4087(3) 0.9000(12) 0.2958(4)
C23 C 0.2452(3) 0.9098(13) 0.2582(5)
N3 N 0.3448(3) 0.6253(11) 0.0906(4)
C13_2 C 0.2279(4) 0.0225(16) 0.0239(5)
H6_2 H 0.2514 0.0189 0.0783
C24_2 C 0.3433(4) 0.4756(15) 0.1325(5)
H11_2 H 0.3678 0.4720 0.1865
C25_2 C 0.3077(4) 0.3307(16) 0.0994(5)
H12_2 H 0.3086 0.2320 0.1312
C26_2 C 0.2699(3) 0.3271(13) 0.0190(5)
C28_2 C 0.3083(4) 0.6201(16) 0.0131(5)
C10_2 C 0.1567(4) 0.0244(15) 0.8675(5)
H4_2 H 0.1322 0.0280 0.8135
C11_2 C 0.1923(4) 0.1693(16) 0.9006(5)
H5_2 H 0.1914 0.2680 0.8688
C12_2 C 0.2301(3) 0.1729(13) 0.9810(5)
C27_2 C 0.2721(4) 0.4775(16) 0.9761(5)
H13_2 H 0.2486 0.4811 0.9217
H14_2 H 0.3076 0.7212 0.9823
O10_2 O 0.6159(2) 0.8468(9) 0.2756(3)
O11_2 O 0.54678(19) 0.9454(10) 0.1606(3)
O16 O 0.62144(19) 0.9384(9) 0.4542(3)
O17_2 O 0.7776(2) 0.9073(12) 0.2145(3)
O18_2 O 0.7751(2) 0.9143(10) 0.3173(3)
O23_2 O 0.5336(2) 0.6561(8) 0.3195(3)
C15_2 C 0.6207(3) 0.9143(12) 0.1718(4)
C16_2 C 0.5954(3) 0.9470(11) 0.0910(4)
H8_2 H 0.5609 0.9570 0.0578
C17_2 C 0.6224(3) 0.9644(11) 0.0611(4)
C18_2 C 0.6739(3) 0.9458(12) 0.1110(4)
H9_2 H 0.6917 0.9536 0.0905
C19_2 C 0.6985(3) 0.9164(12) 0.1899(4)
C20_2 C 0.6722(3) 0.8996(12) 0.2204(4)
H10_2 H 0.6890 0.8781 0.2740
C21_2 C 0.5913(3) 0.9000(12) 0.2042(4)
C23_2 C 0.7548(3) 0.9098(13) 0.2418(5)
C8_2 C 0.5955(3) 0.9976(11) 0.4754(4)
S1 S 0.5000 0.5262(4) 0.2500
O9_2 O 0.5293(3) 0.4034(9) 0.2353(4)
O24_2 O 0.4707(3) 0.4034(9) 0.2647(4)
H15 H 0.796303 0.793798 0.343182
H16 H 0.795783 0.963065 0.841073
H15_2 H 0.203697 0.793798 0.156818
H16_2 H 0.204217 0.963065 0.658927
S1_2 S -0.0000 0.9738(4) 0.7500
Cu2 Cu 0.00132(3) 0.51301(14) 0.81957(5)
Cu5 Cu 0.10265(3) 0.65965(14) 0.85313(5)
Cu7_2 Cu 0.00132(3) 0.48699(14) 0.31957(5)
O13_2 O 0.04892(19) 0.4824(8) 0.9312(3)
O14 O 0.04892(19) 0.5176(8) 0.4312(3)
O19_2 O 0.04850(17) 0.4680(7) 0.7946(3)
O21 O 0.04850(17) 0.5320(7) 0.2946(3)
O22 O 0.0336(2) 0.8439(8) 0.8195(3)
Cu6_2 Cu 0.10265(3) 0.34035(14) 0.35313(5)
C28_3 C 0.1917(4) 0.1201(16) 0.4869(5)
H14_3 H 0.1924 0.2212 0.5177
N2_2 N 0.1552(3) 0.1253(11) 0.4094(4)
H7 H 0.1924 0.7788 0.0177
O10_3 O 0.1159(2) 0.3468(9) 0.2756(3)
O11_3 O 0.04678(19) 0.4454(10) 0.1606(3)
O16_2 O 0.12144(19) 0.4384(9) 0.4542(3)
O17_3 O 0.2776(2) 0.4073(12) 0.2145(3)
O18_3 O 0.2751(2) 0.4143(10) 0.3173(3)
O23_3 O 0.0336(2) 0.1561(8) 0.3195(3)
C15_3 C 0.1207(3) 0.4143(12) 0.1718(4)
C16_3 C 0.0954(3) 0.4470(11) 0.0910(4)
H8_3 H 0.0609 0.4570 0.0578
C17_3 C 0.1224(3) 0.4644(11) 0.0611(4)
C18_3 C 0.1739(3) 0.4458(12) 0.1110(4)
H9_3 H 0.1917 0.4536 0.0905
C19_3 C 0.1985(3) 0.4164(12) 0.1899(4)
C20_3 C 0.1722(3) 0.3996(12) 0.2204(4)
H10_3 H 0.1890 0.3781 0.2740
C21_3 C 0.0913(3) 0.4000(12) 0.2042(4)
C23_3 C 0.2548(3) 0.4098(13) 0.2418(5)
H16_3 H 0.295783 0.536935 0.341073
O1 O 0.1159(2) 0.6532(9) 0.7756(3)
O2 O 0.04678(19) 0.5546(10) 0.6606(3)
O5 O 0.2776(2) 0.5927(12) 0.7145(3)
O6 O 0.2751(2) 0.5857(10) 0.8173(3)
C1 C 0.1207(3) 0.5857(12) 0.6718(4)
C2 C 0.0954(3) 0.5530(11) 0.5910(4)
H1 H 0.0609 0.5430 0.5578
C3 C 0.1224(3) 0.5356(11) 0.5611(4)
C4 C 0.1739(3) 0.5542(12) 0.6110(4)
H2 H 0.1917 0.5464 0.5905
C5 C 0.1985(3) 0.5836(12) 0.6899(4)
C6 C 0.1722(3) 0.6004(12) 0.7204(4)
H3 H 0.1890 0.6219 0.7740
C7 C 0.0913(3) 0.6000(12) 0.7042(4)
C8_3 C 0.0955(3) 0.4976(11) 0.4754(4)
C9 C 0.2548(3) 0.5902(13) 0.7418(5)
C14 C 0.1917(4) 0.8799(16) 0.9869(5)
N1 N 0.1552(3) 0.8747(11) 0.9094(4)
O15 O 0.12144(19) 0.5616(9) 0.9542(3)
C22 C 0.0955(3) 0.5024(11) 0.9754(4)
H15_3 H 0.296303 0.706202 0.843182
S1_3 S 0.0000 0.0262(4) 0.2500
H15_4 H 0.296303 0.293798 0.343182
H16_4 H 0.295783 0.463065 0.841073
O3 O 0.95108(19) 0.5176(8) 0.0688(3)
O4_2 O 0.87856(19) 0.4384(9) 0.0458(3)
C8_4 C 0.9045(3) 0.4976(11) 0.0246(4)
Cu4_2 Cu 0.89735(3) 0.34035(14) 0.14687(5)
Cu8_2 Cu 0.99868(3) 0.48699(14) 0.18043(5)
S1_4 S 1.0000 0.9738(4) 0.7500
Cu1 Cu 0.89735(3) 0.65965(14) 0.64687(5)
O1_2 O 0.8841(2) 0.6532(9) 0.7244(3)
O2_2 O 0.95322(19) 0.5546(10) 0.8394(3)
O5_2 O 0.7224(2) 0.5927(12) 0.7855(3)
O6_2 O 0.7249(2) 0.5857(10) 0.6827(3)
O7_2 O 0.95150(17) 0.4680(7) 0.7054(3)
O8 O 0.9664(2) 0.8439(8) 0.6805(3)
C1_2 C 0.8793(3) 0.5857(12) 0.8282(4)
C2_2 C 0.9046(3) 0.5530(11) 0.9090(4)
H1_2 H 0.9391 0.5430 0.9422
C3_2 C 0.8776(3) 0.5356(11) 0.9389(4)
C4_2 C 0.8261(3) 0.5542(12) 0.8890(4)
H2_2 H 0.8083 0.5464 0.9095
C5_2 C 0.8015(3) 0.5836(12) 0.8101(4)
C6_2 C 0.8278(3) 0.6004(12) 0.7796(4)
H3_2 H 0.8110 0.6219 0.7260
C7_2 C 0.9087(3) 0.6000(12) 0.7958(4)
C9_2 C 0.7452(3) 0.5902(13) 0.7582(5)
C14_2 C 0.8083(4) 0.8799(16) 0.5131(5)
H7_2 H 0.8076 0.7788 0.4823
N1_2 N 0.8448(3) 0.8747(11) 0.5906(4)
Cu9 Cu 0.99868(3) 0.51301(14) 0.68043(5)
O10_4 O 0.8841(2) 0.3468(9) 0.2244(3)
O11_4 O 0.95322(19) 0.4454(10) 0.3394(3)
O12_2 O 0.95108(19) 0.4824(8) 0.5688(3)
O15_2 O 0.87856(19) 0.5616(9) 0.5458(3)
O17_4 O 0.7224(2) 0.4073(12) 0.2855(3)
O18_4 O 0.7249(2) 0.4143(10) 0.1827(3)
O20 O 0.95150(17) 0.5320(7) 0.2054(3)
O23_4 O 0.9664(2) 0.1561(8) 0.1805(3)
C15_4 C 0.8793(3) 0.4143(12) 0.3282(4)
C16_4 C 0.9046(3) 0.4470(11) 0.4090(4)
H8_4 H 0.9391 0.4570 0.4422
C17_4 C 0.8776(3) 0.4644(11) 0.4389(4)
C18_4 C 0.8261(3) 0.4458(12) 0.3890(4)
H9_4 H 0.8083 0.4536 0.4095
C19_4 C 0.8015(3) 0.4164(12) 0.3101(4)
C20_4 C 0.8278(3) 0.3996(12) 0.2796(4)
H10_4 H 0.8110 0.3781 0.2260
C21_4 C 0.9087(3) 0.4000(12) 0.2958(4)
C22_2 C 0.9045(3) 0.5024(11) 0.5246(4)
C23_4 C 0.7452(3) 0.4098(13) 0.2582(5)
N3_2 N 0.8448(3) 0.1253(11) 0.0906(4)
H15_5 H 0.703697 0.706202 0.656818
H16_5 H 0.704217 0.536935 0.158927
C28_4 C 0.8083(4) 0.1201(16) 0.0131(5)
H14_4 H 0.8076 0.2212 0.9823
S1_5 S 1.0000 0.0262(4) 0.2500
H15_6 H 0.703697 0.293798 0.156818
H16_6 H 0.704217 0.463065 0.658927
O3_2 O 0.45108(19) 0.0176(8) 0.0688(3)
S1_6 S 0.5000 0.4738(4) 0.7500
Cu1_2 Cu 0.39735(3) 0.15965(14) 0.64687(5)
Cu2_2 Cu 0.50132(3) 0.01301(14) 0.81957(5)
O1_3 O 0.3841(2) 0.1532(9) 0.7244(3)
O2_3 O 0.45322(19) 0.0546(10) 0.8394(3)
O5_3 O 0.2224(2) 0.0927(12) 0.7855(3)
O6_3 O 0.2249(2) 0.0857(10) 0.6827(3)
O8_2 O 0.4664(2) 0.3439(8) 0.6805(3)
O9_3 O 0.4707(3) 0.5966(9) 0.7647(4)
C1_3 C 0.3793(3) 0.0857(12) 0.8282(4)
C2_3 C 0.4046(3) 0.0530(11) 0.9090(4)
H1_3 H 0.4391 0.0430 0.9422
C3_3 C 0.3776(3) 0.0356(11) 0.9389(4)
C4_3 C 0.3261(3) 0.0542(12) 0.8890(4)
H2_3 H 0.3083 0.0464 0.9095
C5_3 C 0.3015(3) 0.0836(12) 0.8101(4)
C6_3 C 0.3278(3) 0.1004(12) 0.7796(4)
H3_3 H 0.3110 0.1219 0.7260
C7_3 C 0.4087(3) 0.1000(12) 0.7958(4)
C9_3 C 0.2452(3) 0.0902(13) 0.7582(5)
C10_3 C 0.3433(4) 0.5244(15) 0.6325(5)
H4_3 H 0.3678 0.5280 0.6865
C11_3 C 0.3077(4) 0.6693(16) 0.5994(5)
H5_3 H 0.3086 0.7680 0.6312
C12_3 C 0.2699(3) 0.6729(13) 0.5190(5)
C13_3 C 0.2721(4) 0.5225(16) 0.4761(5)
H6_3 H 0.2486 0.5189 0.4217
C14_3 C 0.3083(4) 0.3799(16) 0.5131(5)
H7_3 H 0.3076 0.2788 0.4823
N1_3 N 0.3448(3) 0.3747(11) 0.5906(4)
Cu5_2 Cu 0.60265(3) 0.15965(14) 0.85313(5)
Cu9_2 Cu 0.49868(3) 0.01301(14) 0.68043(5)
O14_2 O 0.54892(19) 0.0176(8) 0.4312(3)
O15_3 O 0.37856(19) 0.0616(9) 0.5458(3)
O20_2 O 0.45150(17) 0.0320(7) 0.2054(3)
O21_2 O 0.54850(17) 0.0320(7) 0.2946(3)
O22_2 O 0.5336(2) 0.3439(8) 0.8195(3)
O24_3 O 0.5293(3) 0.5966(9) 0.7353(4)
C22_3 C 0.4045(3) 0.0024(11) 0.5246(4)
C24_3 C 0.1567(4) 0.9756(15) 0.3675(5)
H11_3 H 0.1322 0.9720 0.3135
C25_3 C 0.1923(4) 0.8307(16) 0.4006(5)
H12_3 H 0.1914 0.7320 0.3688
C26_3 C 0.2301(3) 0.8271(13) 0.4810(5)
C27_3 C 0.2279(4) 0.9775(16) 0.5239(5)
H13_3 H 0.2514 0.9811 0.5783
H15_7 H 0.203697 0.206202 0.656818
H16_7 H 0.204217 0.036935 0.158927
C13_4 C 0.7279(4) 0.5225(16) 0.0239(5)
H6_4 H 0.7514 0.5189 0.0783
H7_4 H 0.6924 0.2788 0.0177
C24_4 C 0.8433(4) 0.9756(15) 0.1325(5)
H11_4 H 0.8678 0.9720 0.1865
C25_4 C 0.8077(4) 0.8307(16) 0.0994(5)
H12_4 H 0.8086 0.7320 0.1312
C26_4 C 0.7699(3) 0.8271(13) 0.0190(5)
H16_8 H 0.795783 0.036935 0.341073
O1_4 O 0.6159(2) 0.1532(9) 0.7756(3)
O2_4 O 0.54678(19) 0.0546(10) 0.6606(3)
O5_4 O 0.7776(2) 0.0927(12) 0.7145(3)
O6_4 O 0.7751(2) 0.0857(10) 0.8173(3)
C1_4 C 0.6207(3) 0.0857(12) 0.6718(4)
C2_4 C 0.5954(3) 0.0530(11) 0.5910(4)
H1_4 H 0.5609 0.0430 0.5578
C3_4 C 0.6224(3) 0.0356(11) 0.5611(4)
C4_4 C 0.6739(3) 0.0542(12) 0.6110(4)
H2_4 H 0.6917 0.0464 0.5905
C5_4 C 0.6985(3) 0.0836(12) 0.6899(4)
C6_4 C 0.6722(3) 0.1004(12) 0.7204(4)
H3_4 H 0.6890 0.1219 0.7740
C7_4 C 0.5913(3) 0.1000(12) 0.7042(4)
C9_4 C 0.7548(3) 0.0902(13) 0.7418(5)
C10_4 C 0.6567(4) 0.5244(15) 0.8675(5)
H4_4 H 0.6322 0.5280 0.8135
C11_4 C 0.6923(4) 0.6693(16) 0.9006(5)
H5_4 H 0.6914 0.7680 0.8688
C12_4 C 0.7301(3) 0.6729(13) 0.9810(5)
C14_4 C 0.6917(4) 0.3799(16) 0.9869(5)
N1_4 N 0.6552(3) 0.3747(11) 0.9094(4)
O15_4 O 0.62144(19) 0.0616(9) 0.9542(3)
C22_4 C 0.5955(3) 0.0024(11) 0.9754(4)
C27_4 C 0.7721(4) 0.9775(16) 0.9761(5)
H13_4 H 0.7486 0.9811 0.9217
H15_8 H 0.796303 0.206202 0.843182
O9_4 O 0.0293(3) 0.9034(9) 0.2353(4)
O24_4 O 0.9707(3) 0.9034(9) 0.2647(4)
loop_
_geom_bond_atom_site_label_1
_geom_bond_atom_site_label_2
_geom_bond_site_symmetry_1
_geom_bond_site_symmetry_2
C10 H4 1_555 1_555
C11 C10 1_555 1_555
H5 C11 1_555 1_555
C12 C11 1_555 1_555
C13 C12 1_555 1_555
H6 C13 1_555 1_555
Cu6 N2 1_555 1_555
C24 H11 1_555 1_555
C25 C24 1_555 1_555
H12 C25 1_555 1_555
C26 C12 1_555 1_555
C27 C26 1_555 1_555
H13 C27 1_555 1_555
C28 C27 1_555 1_555
H14 C28 1_555 1_555
N2 C24 1_555 1_555
C25 C26 1_555 1_555
C28 N2 1_555 1_555
O4 C8 1_555 1_555
Cu4 O4 1_555 1_555
Cu4 O10 1_555 1_555
Cu7 O11 1_555 1_555
O10 C21 1_555 1_555
O11 C21 1_555 1_555
O17 C23 1_555 1_555
O18 C23 1_555 1_555
O23 Cu4 1_555 1_555
C15 C16 1_555 1_555
C16 H8 1_555 1_555
C17 C16 1_555 1_555
C18 C17 1_555 1_555
H9 C18 1_555 1_555
C19 C18 1_555 1_555
C20 C15 1_555 1_555
H10 C20 1_555 1_555
C21 C15 1_555 1_555
C23 C19 1_555 1_555
N3 Cu4 1_555 1_555
C19 C20 1_555 1_555
H6_2 C13_2 1_555 1_555
C24_2 H11_2 1_555 1_555
C25_2 C24_2 1_555 1_555
H12_2 C25_2 1_555 1_555
N3 C24_2 1_555 1_555
C25_2 C26_2 1_555 1_555
C28_2 N3 1_555 1_555
C10_2 H4_2 1_555 1_555
C11_2 C10_2 1_555 1_555
H5_2 C11_2 1_555 1_555
C12_2 C11_2 1_555 1_555
H13_2 C27_2 1_555 1_555
Cu6 O10_2 1_555 1_555
Cu8 O11_2 1_555 1_555
O10_2 C21_2 1_555 1_555
O11_2 C21_2 1_555 1_555
O16 Cu6 1_555 1_555
O17_2 C23_2 1_555 1_555
O18_2 C23_2 1_555 1_555
O23_2 Cu6 1_555 1_555
C15_2 C16_2 1_555 1_555
C16_2 H8_2 1_555 1_555
C17_2 C16_2 1_555 1_555
C18_2 C17_2 1_555 1_555
H9_2 C18_2 1_555 1_555
C19_2 C18_2 1_555 1_555
C20_2 C15_2 1_555 1_555
H10_2 C20_2 1_555 1_555
C21_2 C15_2 1_555 1_555
C23_2 C19_2 1_555 1_555
C19_2 C20_2 1_555 1_555
O16 C8_2 1_555 1_555
S1 O23_2 1_555 1_555
O9_2 S1 1_555 1_555
O23 S1 1_555 1_555
O24_2 S1 1_555 1_555
O18_2 H15 1_555 1_555
O18 H15_2 1_555 1_555
Cu5 O19_2 1_555 1_555
O13_2 Cu2 1_555 1_555
O14 Cu7_2 1_555 1_555
O19_2 Cu2 1_555 1_555
O21 Cu7_2 1_555 1_555
O22 S1_2 1_555 1_555
Cu5 O22 1_555 1_555
Cu6_2 N2_2 1_555 1_555
H14_3 C28_3 1_555 1_555
C28_3 N2_2 1_555 1_555
Cu6_2 O10_3 1_555 1_555
O10_3 C21_3 1_555 1_555
O11_3 C21_3 1_555 1_555
O16_2 Cu6_2 1_555 1_555
O17_3 C23_3 1_555 1_555
O18_3 C23_3 1_555 1_555
O21 Cu6_2 1_555 1_555
O23_3 Cu6_2 1_555 1_555
C15_3 C16_3 1_555 1_555
C16_3 H8_3 1_555 1_555
C17_3 C16_3 1_555 1_555
C18_3 C17_3 1_555 1_555
H9_3 C18_3 1_555 1_555
C19_3 C18_3 1_555 1_555
C20_3 C15_3 1_555 1_555
H10_3 C20_3 1_555 1_555
C21_3 C15_3 1_555 1_555
C23_3 C19_3 1_555 1_555
C19_3 C20_3 1_555 1_555
O18_3 H16_3 1_555 1_555
Cu5 O1 1_555 1_555
O1 C7 1_555 1_555
O2 C7 1_555 1_555
O14 C8_3 1_555 1_555
O16_2 C8_3 1_555 1_555
O5 C9 1_555 1_555
O6 C9 1_555 1_555
C1 C2 1_555 1_555
C2 H1 1_555 1_555
C3 C2 1_555 1_555
C4 C3 1_555 1_555
H2 C4 1_555 1_555
C5 C4 1_555 1_555
C6 C1 1_555 1_555
H3 C6 1_555 1_555
C7 C1 1_555 1_555
C8_3 C3 1_555 1_555
C9 C5 1_555 1_555
N1 Cu5 1_555 1_555
O15 Cu5 1_555 1_555
C22 O13_2 1_555 1_555
C5 C6 1_555 1_555
C14 N1 1_555 1_555
O15 C22 1_555 1_555
O6 H15_3 1_555 1_555
S1_3 O23_3 1_555 1_555
O18_3 H15_4 1_555 1_555
O6 H16_4 1_555 1_555
O3 C8_4 1_555 1_555
O4_2 C8_4 1_555 1_555
Cu4_2 O4_2 1_555 1_555
Cu8_2 O3 1_555 1_555
S1_4 O8 1_555 1_555
Cu1 O1_2 1_555 1_555
O1_2 C7_2 1_555 1_555
O2_2 C7_2 1_555 1_555
O5_2 C9_2 1_555 1_555
O6_2 C9_2 1_555 1_555
O7_2 Cu1 1_555 1_555
O8 Cu1 1_555 1_555
C1_2 C2_2 1_555 1_555
C2_2 H1_2 1_555 1_555
C3_2 C2_2 1_555 1_555
C4_2 C3_2 1_555 1_555
H2_2 C4_2 1_555 1_555
C5_2 C4_2 1_555 1_555
C6_2 C1_2 1_555 1_555
H3_2 C6_2 1_555 1_555
C7_2 C1_2 1_555 1_555
C9_2 C5_2 1_555 1_555
H7_2 C14_2 1_555 1_555
N1_2 Cu1 1_555 1_555
Cu4_2 O10_4 1_555 1_555
Cu9 O7_2 1_555 1_555
O10_4 C21_4 1_555 1_555
O11_4 C21_4 1_555 1_555
O12_2 Cu9 1_555 1_555
O15_2 Cu1 1_555 1_555
O17_4 C23_4 1_555 1_555
O18_4 C23_4 1_555 1_555
O20 Cu4_2 1_555 1_555
O23_4 Cu4_2 1_555 1_555
C15_4 C16_4 1_555 1_555
C16_4 H8_4 1_555 1_555
C17_4 C16_4 1_555 1_555
C18_4 C17_4 1_555 1_555
H9_4 C18_4 1_555 1_555
C19_4 C18_4 1_555 1_555
C20_4 C15_4 1_555 1_555
H10_4 C20_4 1_555 1_555
C21_4 C15_4 1_555 1_555
C22_2 O12_2 1_555 1_555
C23_4 C19_4 1_555 1_555
N3_2 Cu4_2 1_555 1_555
C5_2 C6_2 1_555 1_555
C14_2 N1_2 1_555 1_555
O15_2 C22_2 1_555 1_555
C17_4 C22_2 1_555 1_555
C19_4 C20_4 1_555 1_555
O6_2 H15_5 1_555 1_555
O18_4 H16_5 1_555 1_555
O20 Cu8_2 1_555 1_555
C28_4 N3_2 1_555 1_555
O23_4 S1_5 1_555 1_555
O18_4 H15_6 1_555 1_555
O6_2 H16_6 1_555 1_555
S1_6 O8_2 1_555 1_555
Cu1_2 O1_3 1_555 1_555
Cu2_2 O2_3 1_555 1_555
O1_3 C7_3 1_555 1_555
O2_3 C7_3 1_555 1_555
O5_3 C9_3 1_555 1_555
O6_3 C9_3 1_555 1_555
O8_2 Cu1_2 1_555 1_555
O9_3 S1_6 1_555 1_555
C1_3 C2_3 1_555 1_555
C2_3 H1_3 1_555 1_555
C3_3 C2_3 1_555 1_555
C4_3 C3_3 1_555 1_555
H2_3 C4_3 1_555 1_555
C5_3 C4_3 1_555 1_555
C6_3 C1_3 1_555 1_555
H3_3 C6_3 1_555 1_555
C7_3 C1_3 1_555 1_555
C9_3 C5_3 1_555 1_555
C10_3 H4_3 1_555 1_555
C11_3 C10_3 1_555 1_555
H5_3 C11_3 1_555 1_555
C12_3 C11_3 1_555 1_555
C13_3 C12_3 1_555 1_555
H6_3 C13_3 1_555 1_555
C14_3 C13_3 1_555 1_555
H7_3 C14_3 1_555 1_555
N1_3 Cu1_2 1_555 1_555
O15_3 Cu1_2 1_555 1_555
O22_2 S1_6 1_555 1_555
O24_3 S1_6 1_555 1_555
C24_3 H11_3 1_555 1_555
C25_3 C24_3 1_555 1_555
H12_3 C25_3 1_555 1_555
C26_3 C12_3 1_555 1_555
C27_3 C26_3 1_555 1_555
H13_3 C27_3 1_555 1_555
C5_3 C6_3 1_555 1_555
C10_3 N1_3 1_555 1_555
C14_3 N1_3 1_555 1_555
Cu5_2 O22_2 1_555 1_555
O15_3 C22_3 1_555 1_555
C25_3 C26_3 1_555 1_555
O6_3 H15_7 1_555 1_555
H6_4 C13_4 1_555 1_555
C24_4 H11_4 1_555 1_555
C25_4 C24_4 1_555 1_555
H12_4 C25_4 1_555 1_555
C25_4 C26_4 1_555 1_555
Cu5_2 O1_4 1_555 1_555
Cu9_2 O2_4 1_555 1_555
O1_4 C7_4 1_555 1_555
O2_4 C7_4 1_555 1_555
O5_4 C9_4 1_555 1_555
O6_4 C9_4 1_555 1_555
C1_4 C2_4 1_555 1_555
C2_4 H1_4 1_555 1_555
C3_4 C2_4 1_555 1_555
C4_4 C3_4 1_555 1_555
H2_4 C4_4 1_555 1_555
C5_4 C4_4 1_555 1_555
C6_4 C1_4 1_555 1_555
H3_4 C6_4 1_555 1_555
C7_4 C1_4 1_555 1_555
C9_4 C5_4 1_555 1_555
C10_4 H4_4 1_555 1_555
C11_4 C10_4 1_555 1_555
H5_4 C11_4 1_555 1_555
C12_4 C11_4 1_555 1_555
N1_4 Cu5_2 1_555 1_555
O15_4 Cu5_2 1_555 1_555
H13_4 C27_4 1_555 1_555
C5_4 C6_4 1_555 1_555
C10_4 N1_4 1_555 1_555
C14_4 N1_4 1_555 1_555
O15_4 C22_4 1_555 1_555
O6_4 H15_8 1_555 1_555

#END
