
###############################################################################
#
# This file contains modified crystal structure data generated from the
# MOF subset of the Cambridge Structural Database (CSD) v543 
# hosted by the Cambridge Crystallographic Data Centre (CCDC).
#
# This work is licensed under the Creative Commons
# Attribution-NonCommercial-ShareAlike 4.0 International License.
# To view a copy of this license, visit
# http://creativecommons.org/licenses/by-nc-sa/4.0/
# or send a letter to
# Creative Commons, PO Box 1866, Mountain View, CA 94042, USA.
#
# CIF created using the CSD Python API on 29 September 2022
# The structure has been converted into the P1 space group
# The structure has a 3D framework
# The original CSD entry DOQTIP is in the monoclinic crystal system
# The framework has been calculated to contain at least 10.0% void space
# The void calculation uses a probe of radius 1.32A, grid spacing 0.4
#
###############################################################################

data_DOQTIP
_chemical_formula_moiety         '(C112 H120 N16 O28 Zn8)n'
_symmetry_cell_setting           triclinic
_symmetry_space_group_name_H-M   'P 1'
_symmetry_Int_Tables_number      1
_space_group_name_Hall           'P 1'
loop_
_symmetry_equiv_pos_site_id
_symmetry_equiv_pos_as_xyz
1 x,y,z
_cell_length_a                   17.23(3)
_cell_length_b                   19.96(3)
_cell_length_c                   9.432(15)
_cell_angle_alpha                90
_cell_angle_beta                 105.708(18)
_cell_angle_gamma                90
_cell_volume                     3122.62
loop_
_atom_site_label
_atom_site_type_symbol
_atom_site_fract_x
_atom_site_fract_y
_atom_site_fract_z
C3 C 0.3830(2) 0.2292(2) 0.0353(5)
H2 H 0.3502 0.1894 0.0074
H3 H 0.3888 0.2374 0.1390
C4 C 0.4666(2) 0.2162(2) 0.0129(5)
H4 H 0.4933 0.1813 0.0803
C5 C 0.5189(2) 0.2792(2) 0.0389(4)
H6 H 0.5242 0.2934 0.1405
H10 H 0.4037 0.3663 0.0700
C8 C 0.6043(2) 0.2685(2) 0.0242(4)
O3 O 0.64921(18) 0.31920(18) 0.0408(4)
Zn2 Zn 0.76642(2) 0.32092(2) 0.02635(5)
N5 N 0.79199(19) 0.42042(16) 0.0667(4)
O10 O 0.8025(2) 0.28589(16) 0.2389(3)
O11 O 0.87520(19) 0.28915(18) 0.0011(4)
C9 C 0.8488(2) 0.43992(19) 0.1876(4)
H11 H 0.8792 0.4074 0.2486
C10 C 0.8638(2) 0.5075(2) 0.2254(4)
C11 C 0.8176(3) 0.5553(2) 0.1321(5)
H12 H 0.8246 0.6006 0.1557
C12 C 0.7612(3) 0.5356(2) 0.0042(5)
C14 C 0.9255(3) 0.5274(2) 0.3590(5)
H15 H 0.9303 0.5723 0.3864
N2 N 0.9726(2) 0.48475(19) 0.4383(4)
C19 C 0.7501(2) 0.0320(2) 0.0251(5)
H19 H 0.7879 0.0453 0.1108
H7 H 0.9922 0.1244 0.0457
C21 C 0.8043(2) 0.2269(2) 0.2805(4)
C22 C 0.8393(2) 0.2112(2) 0.4462(4)
H21 H 0.7936 0.2002 0.4854
C23 C 0.8830(2) 0.2708(2) 0.5353(5)
H22 H 0.8502 0.3106 0.5074
H23 H 0.8888 0.2626 0.6390
C24 C 0.9666(2) 0.2838(2) 0.5129(5)
H24 H 0.9933 0.3187 0.5803
H25 H 0.9605 0.2998 0.4133
C26 C 0.9747(2) 0.1644(2) 0.4381(5)
H28 H 0.9655 0.1776 0.3360
C27 C 0.8941(2) 0.1492(2) 0.4693(5)
H29 H 0.8672 0.1135 0.4045
H30 H 0.9037 0.1337 0.5700
O5 O 0.7779(2) 0.17724(16) 0.1981(3)
Zn1 Zn 0.23358(2) 0.32092(2) 0.47365(5)
C1 C 0.3043(2) 0.2731(2) 0.7805(4)
C2 C 0.3393(2) 0.2888(2) 0.9462(4)
H1 H 0.2936 0.2998 0.9854
H5 H 0.4605 0.2002 0.9133
C6 C 0.4747(2) 0.3356(2) 0.9381(5)
H7_2 H 0.5078 0.3756 0.9543
H8 H 0.4655 0.3224 0.8360
C7 C 0.3941(2) 0.3508(2) 0.9693(5)
H9 H 0.3672 0.3865 0.9045
C9_2 C 0.1512(2) 0.43992(19) 0.3124(4)
H11_2 H 0.1208 0.4074 0.2514
C10_2 C 0.1362(2) 0.5075(2) 0.2746(4)
C11_2 C 0.1824(3) 0.5553(2) 0.3679(5)
H12_2 H 0.1754 0.6006 0.3443
C12_2 C 0.2388(3) 0.5356(2) 0.4958(5)
H13 H 0.2685 0.5673 0.5605
C13 C 0.2501(2) 0.4680(2) 0.5251(5)
H14 H 0.2879 0.4547 0.6108
C14_2 C 0.0745(3) 0.5274(2) 0.1410(5)
H15_2 H 0.0697 0.5723 0.1136
N1 N 0.20801(19) 0.42042(16) 0.4333(4)
N2_2 N 0.0274(2) 0.48475(19) 0.0617(4)
O1 O 0.2779(2) 0.32276(16) 0.6981(3)
O2 O 0.3025(2) 0.21411(16) 0.7389(3)
O4 O 0.62480(19) 0.21085(18) 0.9989(4)
C21_2 C 0.6957(2) 0.2731(2) 0.7195(4)
C22_2 C 0.6607(2) 0.2888(2) 0.5538(4)
H21_2 H 0.7064 0.2998 0.5146
C23_2 C 0.6170(2) 0.2292(2) 0.4647(5)
H22_2 H 0.6498 0.1894 0.4926
H23_2 H 0.6112 0.2374 0.3610
C24_2 C 0.5334(2) 0.2162(2) 0.4871(5)
H24_2 H 0.5067 0.1813 0.4197
H25_2 H 0.5395 0.2002 0.5867
C25 C 0.4811(2) 0.2792(2) 0.4611(4)
H26 H 0.4758 0.2934 0.3595
C26_2 C 0.5253(2) 0.3356(2) 0.5619(5)
H27 H 0.4922 0.3756 0.5457
H28_2 H 0.5345 0.3224 0.6640
C27_2 C 0.6059(2) 0.3508(2) 0.5307(5)
H29_2 H 0.6328 0.3865 0.5955
H30_2 H 0.5963 0.3663 0.4300
C28 C 0.3957(2) 0.2685(2) 0.4758(4)
O5_2 O 0.7221(2) 0.32276(16) 0.8019(3)
O6 O 0.6975(2) 0.21411(16) 0.7611(3)
O7 O 0.35079(18) 0.31920(18) 0.4592(4)
O8 O 0.37520(19) 0.21085(18) 0.5011(4)
Zn4 Zn 0.26642(2) 0.17908(2) 0.52635(5)
Zn5 Zn 0.73358(2) 0.17908(2) 0.97365(5)
O9 O 0.1975(2) 0.28589(16) 0.2611(3)
O12 O 0.12480(19) 0.28915(18) 0.4989(4)
H13_2 H 0.7315 0.5673 0.9395
C13_2 C 0.7499(2) 0.4680(2) 0.9749(5)
H14_2 H 0.7121 0.4547 0.8892
C15 C 0.3488(2) 0.06008(19) 0.6876(4)
H16 H 0.3792 0.0926 0.7486
C19_2 C 0.2499(2) 0.0320(2) 0.4749(5)
H19_2 H 0.2121 0.0453 0.3892
N3 N 0.29199(19) 0.07958(16) 0.5667(4)
N4 N 0.4726(2) 0.01525(19) 0.9383(4)
C10_3 C 0.3638(2) 0.0075(2) 0.2254(4)
C11_3 C 0.3176(3) 0.0553(2) 0.1321(5)
H12_3 H 0.3246 0.1006 0.1557
C12_3 C 0.2612(3) 0.0356(2) 0.0042(5)
C14_3 C 0.4255(3) 0.0274(2) 0.3590(5)
H15_3 H 0.4303 0.0723 0.3864
C15_2 C 0.6512(2) 0.06008(19) 0.8124(4)
H16_2 H 0.6208 0.0926 0.7514
N3_2 N 0.70801(19) 0.07958(16) 0.9333(4)
N4_2 N 0.5274(2) 0.01525(19) 0.5617(4)
C1_2 C 0.1957(2) 0.2269(2) 0.2195(4)
C2_2 C 0.1607(2) 0.2112(2) 0.0538(4)
H1_2 H 0.2064 0.2002 0.0146
H5_2 H 0.0395 0.2998 0.0867
C6_2 C 0.0253(2) 0.1644(2) 0.0619(5)
H8_2 H 0.0345 0.1776 0.1640
C7_2 C 0.1059(2) 0.1492(2) 0.0307(5)
H9_2 H 0.1328 0.1135 0.0955
O1_2 O 0.2221(2) 0.17724(16) 0.3019(3)
C25_2 C 0.0189(2) 0.2208(2) 0.5389(4)
H26_2 H 0.0242 0.2066 0.6405
H27_2 H 0.0078 0.1244 0.4543
C28_2 C 0.1043(2) 0.2315(2) 0.5242(4)
O7_2 O 0.14921(18) 0.18080(18) 0.5408(4)
C5_2 C 0.9811(2) 0.2208(2) 0.9611(4)
H6_2 H 0.9758 0.2066 0.8595
C8_2 C 0.8957(2) 0.2315(2) 0.9758(4)
O3_2 O 0.85079(18) 0.18080(18) 0.9592(4)
C15_3 C 0.8488(2) 0.56008(19) 0.6876(4)
H16_3 H 0.8792 0.5926 0.7486
C16 C 0.8638(2) 0.4925(2) 0.7254(4)
C17 C 0.8176(3) 0.4447(2) 0.6321(5)
H17 H 0.8246 0.3994 0.6557
C18 C 0.7612(3) 0.4644(2) 0.5042(5)
H18 H 0.7315 0.4327 0.4395
C19_3 C 0.7499(2) 0.5320(2) 0.4749(5)
H19_3 H 0.7121 0.5453 0.3892
C20 C 0.9255(3) 0.4726(2) 0.8590(5)
H20 H 0.9303 0.4277 0.8864
N3_3 N 0.79199(19) 0.57958(16) 0.5667(4)
N4_3 N 0.9726(2) 0.51525(19) 0.9383(4)
Zn3 Zn 0.76642(2) 0.67908(2) 0.52635(5)
H18_2 H 0.2685 0.4327 0.0605
C19_4 C 0.2501(2) 0.5320(2) 0.0251(5)
H19_4 H 0.2879 0.5453 0.1108
C5_3 C 0.0189(2) 0.7792(2) 0.0389(4)
H6_3 H 0.0242 0.7934 0.1405
C8_3 C 0.1043(2) 0.7685(2) 0.0242(4)
O3_3 O 0.14921(18) 0.81920(18) 0.0408(4)
Zn2_2 Zn 0.26642(2) 0.82092(2) 0.02635(5)
N5_2 N 0.29199(19) 0.92042(16) 0.0667(4)
O10_2 O 0.3025(2) 0.78589(16) 0.2389(3)
O11_2 O 0.37520(19) 0.78915(18) 0.0011(4)
Zn1_2 Zn 0.73358(2) 0.82092(2) 0.47365(5)
C1_3 C 0.8043(2) 0.7731(2) 0.7805(4)
C2_3 C 0.8393(2) 0.7888(2) 0.9462(4)
H1_3 H 0.7936 0.7998 0.9854
H5_3 H 0.9605 0.7002 0.9133
C6_3 C 0.9747(2) 0.8356(2) 0.9381(5)
H8_3 H 0.9655 0.8224 0.8360
C7_3 C 0.8941(2) 0.8508(2) 0.9693(5)
H9_3 H 0.8672 0.8865 0.9045
C9_3 C 0.6512(2) 0.93992(19) 0.3124(4)
H11_3 H 0.6208 0.9074 0.2514
C13_3 C 0.7501(2) 0.9680(2) 0.5251(5)
H14_3 H 0.7879 0.9547 0.6108
N1_2 N 0.70801(19) 0.92042(16) 0.4333(4)
N2_3 N 0.5274(2) 0.98475(19) 0.0617(4)
O1_3 O 0.7779(2) 0.82276(16) 0.6981(3)
O2_2 O 0.8025(2) 0.71411(16) 0.7389(3)
C25_3 C 0.9811(2) 0.7792(2) 0.4611(4)
H26_3 H 0.9758 0.7934 0.3595
H27_3 H 0.9922 0.8756 0.5457
C28_3 C 0.8957(2) 0.7685(2) 0.4758(4)
O7_3 O 0.85079(18) 0.81920(18) 0.4592(4)
O8_2 O 0.87520(19) 0.71085(18) 0.5011(4)
O9_2 O 0.6975(2) 0.78589(16) 0.2611(3)
O12_2 O 0.62480(19) 0.78915(18) 0.4989(4)
C9_4 C 0.3488(2) 0.93992(19) 0.1876(4)
H11_4 H 0.3792 0.9074 0.2486
N2_4 N 0.4726(2) 0.98475(19) 0.4383(4)
C16_2 C 0.6362(2) 0.9925(2) 0.7746(4)
C17_2 C 0.6824(3) 0.9447(2) 0.8679(5)
H17_2 H 0.6754 0.8994 0.8443
C18_2 C 0.7388(3) 0.9644(2) 0.9958(5)
C20_2 C 0.5745(3) 0.9726(2) 0.6410(5)
H20_2 H 0.5697 0.9277 0.6136
C1_4 C 0.6957(2) 0.7269(2) 0.2195(4)
C2_4 C 0.6607(2) 0.7112(2) 0.0538(4)
H1_4 H 0.7064 0.7002 0.0146
H5_4 H 0.5395 0.7998 0.0867
C6_4 C 0.5253(2) 0.6644(2) 0.0619(5)
H7_3 H 0.4922 0.6244 0.0457
H8_4 H 0.5345 0.6776 0.1640
C7_4 C 0.6059(2) 0.6492(2) 0.0307(5)
H9_4 H 0.6328 0.6135 0.0955
O1_4 O 0.7221(2) 0.67724(16) 0.3019(3)
C21_3 C 0.3043(2) 0.7269(2) 0.2805(4)
C22_3 C 0.3393(2) 0.7112(2) 0.4462(4)
H21_3 H 0.2936 0.7002 0.4854
C23_3 C 0.3830(2) 0.7708(2) 0.5353(5)
H22_3 H 0.3502 0.8106 0.5074
H23_3 H 0.3888 0.7626 0.6390
C24_3 C 0.4666(2) 0.7838(2) 0.5129(5)
H24_3 H 0.4933 0.8187 0.5803
H25_3 H 0.4605 0.7998 0.4133
C25_4 C 0.5189(2) 0.7208(2) 0.5389(4)
H26_4 H 0.5242 0.7066 0.6405
C26_3 C 0.4747(2) 0.6644(2) 0.4381(5)
H27_4 H 0.5078 0.6244 0.4543
H28_3 H 0.4655 0.6776 0.3360
C27_3 C 0.3941(2) 0.6492(2) 0.4693(5)
H29_3 H 0.3672 0.6135 0.4045
H30_3 H 0.4037 0.6337 0.5700
C28_4 C 0.6043(2) 0.7315(2) 0.5242(4)
O5_3 O 0.2779(2) 0.67724(16) 0.1981(3)
O7_4 O 0.64921(18) 0.68080(18) 0.5408(4)
C15_4 C 0.1512(2) 0.56008(19) 0.8124(4)
H16_4 H 0.1208 0.5926 0.7514
C16_3 C 0.1362(2) 0.4925(2) 0.7746(4)
C17_3 C 0.1824(3) 0.4447(2) 0.8679(5)
H17_3 H 0.1754 0.3994 0.8443
C18_3 C 0.2388(3) 0.4644(2) 0.9958(5)
C20_3 C 0.0745(3) 0.4726(2) 0.6410(5)
H20_3 H 0.0697 0.4277 0.6136
N3_4 N 0.20801(19) 0.57958(16) 0.9333(4)
N4_4 N 0.0274(2) 0.51525(19) 0.5617(4)
Zn3_2 Zn 0.23358(2) 0.67908(2) 0.97365(5)
H7_4 H 0.0078 0.8756 0.9543
O4_2 O 0.12480(19) 0.71085(18) 0.9989(4)
C21_4 C 0.1957(2) 0.7731(2) 0.7195(4)
C22_4 C 0.1607(2) 0.7888(2) 0.5538(4)
H21_4 H 0.2064 0.7998 0.5146
C23_4 C 0.1170(2) 0.7292(2) 0.4647(5)
H22_4 H 0.1498 0.6894 0.4926
H23_4 H 0.1112 0.7374 0.3610
C24_4 C 0.0334(2) 0.7162(2) 0.4871(5)
H24_4 H 0.0067 0.6813 0.4197
H25_4 H 0.0395 0.7002 0.5867
C26_4 C 0.0253(2) 0.8356(2) 0.5619(5)
H28_4 H 0.0345 0.8224 0.6640
C27_4 C 0.1059(2) 0.8508(2) 0.5307(5)
H29_4 H 0.1328 0.8865 0.5955
H30_4 H 0.0963 0.8663 0.4300
O5_4 O 0.2221(2) 0.82276(16) 0.8019(3)
O6_2 O 0.1975(2) 0.71411(16) 0.7611(3)
C13_4 C 0.2499(2) 0.9680(2) 0.9749(5)
H14_4 H 0.2121 0.9547 0.8892
C3_2 C 0.6170(2) 0.7708(2) 0.9647(5)
H2_2 H 0.6498 0.8106 0.9926
H3_2 H 0.6112 0.7626 0.8610
C4_2 C 0.5334(2) 0.7838(2) 0.9871(5)
H4_2 H 0.5067 0.8187 0.9197
C5_4 C 0.4811(2) 0.7208(2) 0.9611(4)
H6_4 H 0.4758 0.7066 0.8595
H10_2 H 0.5963 0.6337 0.9300
C8_4 C 0.3957(2) 0.7315(2) 0.9758(4)
O3_4 O 0.35079(18) 0.68080(18) 0.9592(4)
C10_4 C 0.6362(2) 0.0075(2) 0.2746(4)
C11_4 C 0.6824(3) 0.0553(2) 0.3679(5)
H12_4 H 0.6754 0.1006 0.3443
C12_4 C 0.7388(3) 0.0356(2) 0.4958(5)
H13_3 H 0.7685 0.0673 0.5605
C14_4 C 0.5745(3) 0.0274(2) 0.1410(5)
H15_4 H 0.5697 0.0723 0.1136
C3_3 C 0.8830(2) 0.7292(2) 0.0353(5)
H2_3 H 0.8502 0.6894 0.0074
H3_3 H 0.8888 0.7374 0.1390
C4_3 C 0.9666(2) 0.7162(2) 0.0129(5)
H4_3 H 0.9933 0.6813 0.0803
H10_3 H 0.9037 0.8663 0.0700
C16_4 C 0.3638(2) 0.9925(2) 0.7254(4)
C17_4 C 0.3176(3) 0.9447(2) 0.6321(5)
H17_4 H 0.3246 0.8994 0.6557
C18_4 C 0.2612(3) 0.9644(2) 0.5042(5)
H18_3 H 0.2315 0.9327 0.4395
C20_4 C 0.4255(3) 0.9726(2) 0.8590(5)
H20_4 H 0.4303 0.9277 0.8864
H13_4 H 0.2315 0.0673 0.9395
H18_4 H 0.7685 0.9327 0.0605
C3_4 C 0.1170(2) 0.2708(2) 0.9647(5)
H2_4 H 0.1498 0.3106 0.9926
H3_4 H 0.1112 0.2626 0.8610
C4_4 C 0.0334(2) 0.2838(2) 0.9871(5)
H4_4 H 0.0067 0.3187 0.9197
H10_4 H 0.0963 0.1337 0.9300
loop_
_geom_bond_atom_site_label_1
_geom_bond_atom_site_label_2
_geom_bond_site_symmetry_1
_geom_bond_site_symmetry_2
H2 C3 1_555 1_555
H3 C3 1_555 1_555
C4 C3 1_555 1_555
H4 C4 1_555 1_555
C5 C4 1_555 1_555
H6 C5 1_555 1_555
C8 C5 1_555 1_555
O3 C8 1_555 1_555
Zn2 O3 1_555 1_555
N5 Zn2 1_555 1_555
O10 Zn2 1_555 1_555
O11 Zn2 1_555 1_555
C9 H11 1_555 1_555
C10 C9 1_555 1_555
C11 C10 1_555 1_555
H12 C11 1_555 1_555
C12 C11 1_555 1_555
C14 C10 1_555 1_555
H15 C14 1_555 1_555
N5 C9 1_555 1_555
N2 C14 1_555 1_555
H19 C19 1_555 1_555
C21 C22 1_555 1_555
C22 H21 1_555 1_555
C23 C22 1_555 1_555
H22 C23 1_555 1_555
H23 C23 1_555 1_555
C24 C23 1_555 1_555
H24 C24 1_555 1_555
H25 C24 1_555 1_555
H28 C26 1_555 1_555
C27 C22 1_555 1_555
H29 C27 1_555 1_555
H30 C27 1_555 1_555
O10 C21 1_555 1_555
C21 O5 1_555 1_555
C26 C27 1_555 1_555
Zn1 N1 1_555 1_555
C1 C2 1_555 1_555
C2 H1 1_555 1_555
H7_2 C6 1_555 1_555
H8 C6 1_555 1_555
C7 C2 1_555 1_555
H9 C7 1_555 1_555
C9_2 H11_2 1_555 1_555
C10_2 C9_2 1_555 1_555
C11_2 C10_2 1_555 1_555
H12_2 C11_2 1_555 1_555
C12_2 C11_2 1_555 1_555
H13 C12_2 1_555 1_555
C13 C12_2 1_555 1_555
H14 C13 1_555 1_555
C14_2 C10_2 1_555 1_555
H15_2 C14_2 1_555 1_555
N1 C9_2 1_555 1_555
N2_2 C14_2 1_555 1_555
O1 Zn1 1_555 1_555
O2 C1 1_555 1_555
C21_2 C22_2 1_555 1_555
C22_2 H21_2 1_555 1_555
C23_2 C22_2 1_555 1_555
H22_2 C23_2 1_555 1_555
H23_2 C23_2 1_555 1_555
C24_2 C23_2 1_555 1_555
H24_2 C24_2 1_555 1_555
H25_2 C24_2 1_555 1_555
C25 C24_2 1_555 1_555
H26 C25 1_555 1_555
C26_2 C25 1_555 1_555
H27 C26_2 1_555 1_555
H28_2 C26_2 1_555 1_555
C27_2 C22_2 1_555 1_555
H29_2 C27_2 1_555 1_555
H30_2 C27_2 1_555 1_555
C28 C25 1_555 1_555
O6 C21_2 1_555 1_555
O7 Zn1 1_555 1_555
O8 C28 1_555 1_555
Zn4 O2 1_555 1_555
Zn5 O4 1_555 1_555
O9 Zn1 1_555 1_555
O12 Zn1 1_555 1_555
C1 O1 1_555 1_555
C6 C7 1_555 1_555
C13 N1 1_555 1_555
C21_2 O5_2 1_555 1_555
C26_2 C27_2 1_555 1_555
C28 O7 1_555 1_555
O6 Zn5 1_555 1_555
O8 Zn4 1_555 1_555
H14_2 C13_2 1_555 1_555
C15 H16 1_555 1_555
H19_2 C19_2 1_555 1_555
N3 C15 1_555 1_555
Zn4 N3 1_555 1_555
C19_2 N3 1_555 1_555
C11_3 C10_3 1_555 1_555
H12_3 C11_3 1_555 1_555
C12_3 C11_3 1_555 1_555
C14_3 C10_3 1_555 1_555
H15_3 C14_3 1_555 1_555
C15_2 H16_2 1_555 1_555
N3_2 C15_2 1_555 1_555
Zn5 N3_2 1_555 1_555
C1_2 C2_2 1_555 1_555
C2_2 H1_2 1_555 1_555
H8_2 C6_2 1_555 1_555
C7_2 C2_2 1_555 1_555
H9_2 C7_2 1_555 1_555
O1_2 Zn4 1_555 1_555
O9 C1_2 1_555 1_555
H26_2 C25_2 1_555 1_555
C28_2 C25_2 1_555 1_555
O7_2 Zn4 1_555 1_555
O12 C28_2 1_555 1_555
C1_2 O1_2 1_555 1_555
C6_2 C7_2 1_555 1_555
C28_2 O7_2 1_555 1_555
H6_2 C5_2 1_555 1_555
C8_2 C5_2 1_555 1_555
O3_2 C8_2 1_555 1_555
Zn5 O3_2 1_555 1_555
C15_3 H16_3 1_555 1_555
C16 C15_3 1_555 1_555
C17 C16 1_555 1_555
H17 C17 1_555 1_555
C18 C17 1_555 1_555
H18 C18 1_555 1_555
C19_3 C18 1_555 1_555
H19_3 C19_3 1_555 1_555
C20 C16 1_555 1_555
H20 C20 1_555 1_555
N3_3 C15_3 1_555 1_555
Zn3 N3_3 1_555 1_555
C19_3 N3_3 1_555 1_555
C20 N4_3 1_555 1_555
H19_4 C19_4 1_555 1_555
H6_3 C5_3 1_555 1_555
C8_3 C5_3 1_555 1_555
O3_3 C8_3 1_555 1_555
Zn2_2 O3_3 1_555 1_555
N5_2 Zn2_2 1_555 1_555
O10_2 Zn2_2 1_555 1_555
O11_2 Zn2_2 1_555 1_555
Zn1_2 N1_2 1_555 1_555
C1_3 C2_3 1_555 1_555
C2_3 H1_3 1_555 1_555
H8_3 C6_3 1_555 1_555
C7_3 C2_3 1_555 1_555
H9_3 C7_3 1_555 1_555
C9_3 H11_3 1_555 1_555
H14_3 C13_3 1_555 1_555
N1_2 C9_3 1_555 1_555
O1_3 Zn1_2 1_555 1_555
O2_2 C1_3 1_555 1_555
H26_3 C25_3 1_555 1_555
C28_3 C25_3 1_555 1_555
O7_3 Zn1_2 1_555 1_555
O8_2 C28_3 1_555 1_555
Zn3 O2_2 1_555 1_555
O9_2 Zn1_2 1_555 1_555
O12_2 Zn1_2 1_555 1_555
C1_3 O1_3 1_555 1_555
C6_3 C7_3 1_555 1_555
C13_3 N1_2 1_555 1_555
C28_3 O7_3 1_555 1_555
O8_2 Zn3 1_555 1_555
C9_4 H11_4 1_555 1_555
N5_2 C9_4 1_555 1_555
C17_2 C16_2 1_555 1_555
H17_2 C17_2 1_555 1_555
C18_2 C17_2 1_555 1_555
C20_2 C16_2 1_555 1_555
H20_2 C20_2 1_555 1_555
C1_4 C2_4 1_555 1_555
C2_4 H1_4 1_555 1_555
H7_3 C6_4 1_555 1_555
H8_4 C6_4 1_555 1_555
C7_4 C2_4 1_555 1_555
H9_4 C7_4 1_555 1_555
O1_4 Zn3 1_555 1_555
O9_2 C1_4 1_555 1_555
C21_3 C22_3 1_555 1_555
C22_3 H21_3 1_555 1_555
C23_3 C22_3 1_555 1_555
H22_3 C23_3 1_555 1_555
H23_3 C23_3 1_555 1_555
C24_3 C23_3 1_555 1_555
H24_3 C24_3 1_555 1_555
H25_3 C24_3 1_555 1_555
C25_4 C24_3 1_555 1_555
H26_4 C25_4 1_555 1_555
C26_3 C25_4 1_555 1_555
H27_4 C26_3 1_555 1_555
H28_3 C26_3 1_555 1_555
C27_3 C22_3 1_555 1_555
H29_3 C27_3 1_555 1_555
H30_3 C27_3 1_555 1_555
C28_4 C25_4 1_555 1_555
O10_2 C21_3 1_555 1_555
O7_4 Zn3 1_555 1_555
O12_2 C28_4 1_555 1_555
C1_4 O1_4 1_555 1_555
C6_4 C7_4 1_555 1_555
C21_3 O5_3 1_555 1_555
C26_3 C27_3 1_555 1_555
C28_4 O7_4 1_555 1_555
C15_4 H16_4 1_555 1_555
C16_3 C15_4 1_555 1_555
C17_3 C16_3 1_555 1_555
H17_3 C17_3 1_555 1_555
C18_3 C17_3 1_555 1_555
C20_3 C16_3 1_555 1_555
H20_3 C20_3 1_555 1_555
N3_4 C15_4 1_555 1_555
Zn3_2 N3_4 1_555 1_555
C20_3 N4_4 1_555 1_555
C21_4 C22_4 1_555 1_555
C22_4 H21_4 1_555 1_555
C23_4 C22_4 1_555 1_555
H22_4 C23_4 1_555 1_555
H23_4 C23_4 1_555 1_555
C24_4 C23_4 1_555 1_555
H24_4 C24_4 1_555 1_555
H25_4 C24_4 1_555 1_555
H28_4 C26_4 1_555 1_555
C27_4 C22_4 1_555 1_555
H29_4 C27_4 1_555 1_555
H30_4 C27_4 1_555 1_555
O6_2 C21_4 1_555 1_555
Zn3_2 O4_2 1_555 1_555
C21_4 O5_4 1_555 1_555
C26_4 C27_4 1_555 1_555
O6_2 Zn3_2 1_555 1_555
H14_4 C13_4 1_555 1_555
H2_2 C3_2 1_555 1_555
H3_2 C3_2 1_555 1_555
C4_2 C3_2 1_555 1_555
H4_2 C4_2 1_555 1_555
C5_4 C4_2 1_555 1_555
H6_4 C5_4 1_555 1_555
C8_4 C5_4 1_555 1_555
O3_4 C8_4 1_555 1_555
Zn3_2 O3_4 1_555 1_555
C11_4 C10_4 1_555 1_555
H12_4 C11_4 1_555 1_555
C12_4 C11_4 1_555 1_555
H13_3 C12_4 1_555 1_555
C14_4 C10_4 1_555 1_555
H15_4 C14_4 1_555 1_555
H2_3 C3_3 1_555 1_555
H3_3 C3_3 1_555 1_555
C4_3 C3_3 1_555 1_555
H4_3 C4_3 1_555 1_555
C17_4 C16_4 1_555 1_555
H17_4 C17_4 1_555 1_555
C18_4 C17_4 1_555 1_555
H18_3 C18_4 1_555 1_555
C20_4 C16_4 1_555 1_555
H20_4 C20_4 1_555 1_555
H2_4 C3_4 1_555 1_555
H3_4 C3_4 1_555 1_555
C4_4 C3_4 1_555 1_555
H4_4 C4_4 1_555 1_555

#END
