
###############################################################################
#
# This file contains modified crystal structure data generated from the
# MOF subset of the Cambridge Structural Database (CSD) v543 
# hosted by the Cambridge Crystallographic Data Centre (CCDC).
#
# This work is licensed under the Creative Commons
# Attribution-NonCommercial-ShareAlike 4.0 International License.
# To view a copy of this license, visit
# http://creativecommons.org/licenses/by-nc-sa/4.0/
# or send a letter to
# Creative Commons, PO Box 1866, Mountain View, CA 94042, USA.
#
# CIF created using the CSD Python API on 29 September 2022
# The structure has been converted into the P1 space group
# The structure has a 3D framework
# The original CSD entry DOTWAL is in the hexagonal crystal system
# The framework has been calculated to contain at least 10.0% void space
# The void calculation uses a probe of radius 1.32A, grid spacing 0.4
#
###############################################################################

data_DOTWAL
_chemical_formula_moiety         '(C24 H36 La6 O43)n'
_symmetry_cell_setting           triclinic
_symmetry_space_group_name_H-M   'P 1'
_symmetry_Int_Tables_number      1
_space_group_name_Hall           'P 1'
loop_
_symmetry_equiv_pos_site_id
_symmetry_equiv_pos_as_xyz
1 x,y,z
_cell_length_a                   9.5228(9)
_cell_length_b                   9.5228(9)
_cell_length_c                   17.470(2)
_cell_angle_alpha                90
_cell_angle_beta                 90
_cell_angle_gamma                120
_cell_volume                     1372
loop_
_atom_site_label
_atom_site_type_symbol
_atom_site_fract_x
_atom_site_fract_y
_atom_site_fract_z
La6 La 0.0000 0.0000 0.5000
La6_2 La 0.0000 1.0000 0.5000
La7 La 0.0000 0.0000 0.0000
O23 O 0.0000 0.2728(6) 0.0000
H6 H 0.0770 0.5243 0.2500
La5 La 0.3333 0.6667 0.7500
La7_2 La 0.0000 0.0000 1.0000
O9 O 0.2735(6) 0.4509(6) 0.8451(3)
O17 O 0.1725(6) 0.2135(6) 0.9043(3)
O23_2 O -0.0000 0.2728(6) 1.0000
C7 C 0.1830(12) 0.3497(6) 0.8947(3)
C12 C 0.0916(9) 0.4002(8) 0.9479(4)
H13 H 0.1673 0.4970 0.9757
H18 H 0.0200 0.4247 0.9186
La7_3 La 0.0000 1.0000 0.0000
La7_4 La -0.0000 1.0000 1.0000
La6_3 La 1.0000 0.0000 0.5000
La1 La 0.6667 0.3333 0.2500
O1 O 0.4509(6) 0.2735(6) 0.1549(3)
O2 O 0.2135(6) 0.1725(6) 0.0957(3)
O3 O 0.2728(6) 0.0000 0.0000
O4 O 0.4518(9) 0.0141(10) 0.2500
H2 H 0.3633 0.0150 0.2500
C1 C 0.3497(6) 0.1830(12) 0.1053(3)
C2 C 0.4002(8) 0.0916(9) 0.0521(4)
H3 H 0.4970 0.1673 0.0243
H4 H 0.4247 0.0200 0.0814
La6_4 La 1.0000 1.0000 0.5000
La7_5 La 1.0000 0.0000 0.0000
O6 O 0.8226(8) 0.5491(6) 0.3451(3)
O7 O 0.5491(6) 0.8226(8) 0.6549(3)
O8 O 0.7265(6) 0.1774(8) 0.1549(3)
O10 O 0.4509(6) 0.2735(6) 0.3451(3)
O11 O 0.8226(8) 0.5491(6) 0.1549(3)
O12 O 0.7265(6) 0.1774(8) 0.3451(3)
O14 O 0.9590(8) 0.7865(6) 0.4043(3)
O15 O 0.7865(6) 0.9590(8) 0.5957(3)
O16 O 0.8275(6) 0.0410(8) 0.0957(3)
O22 O 0.7272(6) 0.7272(6) 0.5000
O23_3 O 1.0000 0.2728(6) 0.0000
O26 O 0.5623(13) 0.5482(9) 0.2500
O27 O 0.9859(10) 0.4377(13) 0.2500
H5 H 0.4757 0.5527 0.2500
H7 H 0.6517 0.6367 0.2500
H8 H 0.9850 0.3483 0.2500
C4 C 0.8333(13) 0.6503(6) 0.3947(3)
C5 C 0.6503(6) 0.8333(13) 0.6053(3)
C6 C 0.8170(12) 0.1667(13) 0.1053(3)
C9 C 0.6914(12) 0.5998(8) 0.4479(4)
C10 C 0.5998(8) 0.6914(12) 0.5521(4)
C11 C 0.9084(9) 0.3086(12) 0.0521(4)
H10 H 0.6703 0.5030 0.4757
H11 H 0.5030 0.6703 0.5243
H12 H 0.8327 0.3297 0.0243
H15 H 0.5953 0.5753 0.4186
H16 H 0.5753 0.5953 0.5814
H17 H 0.9800 0.4047 0.0814
O3_2 O 0.2728(6) 0.0000 1.0000
La7_6 La 1.0000 0.0000 1.0000
O23_4 O 1.0000 0.2728(6) 1.0000
O3_3 O 0.2728(6) 1.0000 0.0000
H1 H 0.4473 0.9230 0.2500
La7_7 La 1.0000 1.0000 0.0000
O3_4 O 0.2728(6) 1.0000 1.0000
La7_8 La 1.0000 1.0000 1.0000
O5 O 0.1774(8) 0.7265(6) 0.8451(3)
O13 O 0.0410(8) 0.8275(6) 0.9043(3)
C3 C 0.1667(13) 0.8170(12) 0.8947(3)
C8 C 0.3086(12) 0.9084(9) 0.9479(4)
H9 H 0.3297 0.8327 0.9757
H14 H 0.4047 0.9800 0.9186
O19 O 0.9590(8) 0.7865(6) 0.0957(3)
O25 O 0.7272(6) 0.7272(6) 0.0000
O21 O 0.7865(6) 0.9590(8) 0.9043(3)
O25_2 O 0.7272(6) 0.7272(6) 1.0000
O18 O 0.2135(10) 0.1725(6) 0.4043(3)
O21_2 O 0.1725(10) 0.2135(6) 0.5957(3)
O24 O 0.2728(6) 0.0000 0.5000
O25_3 O 0.0000(8) 0.2728(6) 0.5000
O20 O 0.0410(8) 0.8275(6) 0.5957(3)
O24_2 O 0.2728(6) 1.0000 0.5000
O19_2 O 0.8275(10) 0.0410(8) 0.4043(3)
O25_4 O 1.0000(8) 0.2728(6) 0.5000
C6_2 C 0.3497(18) 0.1830(12) 0.3947(3)
C11_2 C 0.4002(15) 0.0916(9) 0.4479(4)
H12_2 H 0.4970 0.1673 0.4757
H17_2 H 0.4247 0.0200 0.4186
O9_2 O 0.1774(8) 0.7265(6) 0.6549(3)
C7_2 C 0.1667(13) 0.8170(12) 0.6053(3)
C12_2 C 0.3086(12) 0.9084(9) 0.5521(4)
H13_2 H 0.3297 0.8327 0.5243
H18_2 H 0.4047 0.9800 0.5814
C6_3 C 0.8333(13) 0.6503(18) 0.1053(3)
C11_3 C 0.6914(12) 0.5998(15) 0.0521(4)
H12_3 H 0.6703 0.5030 0.0243
H17_3 H 0.5953 0.5753 0.0814
O9_3 O 0.5491(6) 0.8226(8) 0.8451(3)
C7_3 C 0.6503(6) 0.8333(13) 0.8947(3)
C12_3 C 0.5998(8) 0.6914(12) 0.9479(4)
H13_3 H 0.5030 0.6703 0.9757
H18_3 H 0.5753 0.5953 0.9186
O9_4 O 0.2735(6) 0.4509(6) 0.6549(3)
C7_4 C 0.1830(12) 0.3497(6) 0.6053(3)
C12_4 C 0.0916(9) 0.4002(8) 0.5521(4)
H13_4 H 0.1673 0.4970 0.5243
H18_4 H 0.0200 0.4247 0.5814
C6_4 C 0.8170(12) 0.1667(13) 0.3947(3)
C11_4 C 0.9084(9) 0.3086(12) 0.4479(4)
H12_4 H 0.8327 0.3297 0.4757
H17_4 H 0.9800 0.4047 0.4186
H6_2 H 0.5243 0.0770 0.7500
O4_2 O 0.0141(10) 0.4518(9) 0.7500
H2_2 H 0.0150 0.3633 0.7500
O26_2 O 0.5482(9) 0.5623(13) 0.7500
O27_2 O 0.4377(13) 0.9859(10) 0.7500
H5_2 H 0.5527 0.4757 0.7500
H7_2 H 0.6367 0.6517 0.7500
H8_2 H 0.3483 0.9850 0.7500
H1_2 H 0.9230 0.4473 0.7500
loop_
_geom_bond_atom_site_label_1
_geom_bond_atom_site_label_2
_geom_bond_site_symmetry_1
_geom_bond_site_symmetry_2
O23 La7 1_555 1_555
La5 O9 1_555 1_555
O9 C7 1_555 1_555
O17 La7_2 1_555 1_555
O23_2 La7_2 1_555 1_555
C7 O17 1_555 1_555
C12 O23_2 1_555 1_555
H13 C12 1_555 1_555
H18 C12 1_555 1_555
C7 C12 1_555 1_555
La1 O1 1_555 1_555
La7 O2 1_555 1_555
O1 C1 1_555 1_555
O2 C1 1_555 1_555
O3 La7 1_555 1_555
O4 La1 1_555 1_555
H2 O4 1_555 1_555
C1 C2 1_555 1_555
C2 O3 1_555 1_555
H3 C2 1_555 1_555
H4 C2 1_555 1_555
La5 O7 1_555 1_555
La6_4 O14 1_555 1_555
La7_5 O16 1_555 1_555
O6 La1 1_555 1_555
O7 C5 1_555 1_555
O8 La1 1_555 1_555
O10 La1 1_555 1_555
O11 La1 1_555 1_555
O12 La1 1_555 1_555
O14 C4 1_555 1_555
O15 La6_4 1_555 1_555
O16 C6 1_555 1_555
O22 La6_4 1_555 1_555
O23_3 La7_5 1_555 1_555
O26 La1 1_555 1_555
O27 La1 1_555 1_555
H5 O26 1_555 1_555
H7 O26 1_555 1_555
H8 O27 1_555 1_555
C4 O6 1_555 1_555
C5 O15 1_555 1_555
C6 O8 1_555 1_555
C9 O22 1_555 1_555
C10 O22 1_555 1_555
C11 O23_3 1_555 1_555
H10 C9 1_555 1_555
H11 C10 1_555 1_555
H12 C11 1_555 1_555
H15 C9 1_555 1_555
H16 C10 1_555 1_555
H17 C11 1_555 1_555
C4 C9 1_555 1_555
C5 C10 1_555 1_555
C6 C11 1_555 1_555
O3_2 La7_2 1_555 1_555
O23_4 La7_6 1_555 1_555
O3_3 La7_3 1_555 1_555
O3_4 La7_4 1_555 1_555
La5 O5 1_555 1_555
O5 C3 1_555 1_555
O13 La7_4 1_555 1_555
C3 O13 1_555 1_555
C8 O3_4 1_555 1_555
H9 C8 1_555 1_555
H14 C8 1_555 1_555
C3 C8 1_555 1_555
O19 La7_7 1_555 1_555
O25 La7_7 1_555 1_555
O21 La7_8 1_555 1_555
O25_2 La7_8 1_555 1_555
O18 La6 1_555 1_555
O21_2 La6 1_555 1_555
O24 La6 1_555 1_555
O25_3 La6 1_555 1_555
O20 La6_2 1_555 1_555
O24_2 La6_2 1_555 1_555
O19_2 La6_3 1_555 1_555
O25_4 La6_3 1_555 1_555
O18 C6_2 1_555 1_555
C6_2 O10 1_555 1_555
C11_2 O24 1_555 1_555
H12_2 C11_2 1_555 1_555
H17_2 C11_2 1_555 1_555
C6_2 C11_2 1_555 1_555
La5 O9_2 1_555 1_555
O9_2 C7_2 1_555 1_555
C7_2 O20 1_555 1_555
C12_2 O24_2 1_555 1_555
H13_2 C12_2 1_555 1_555
H18_2 C12_2 1_555 1_555
C7_2 C12_2 1_555 1_555
O19 C6_3 1_555 1_555
C6_3 O11 1_555 1_555
C11_3 O25 1_555 1_555
H12_3 C11_3 1_555 1_555
H17_3 C11_3 1_555 1_555
C6_3 C11_3 1_555 1_555
La5 O9_3 1_555 1_555
O9_3 C7_3 1_555 1_555
C7_3 O21 1_555 1_555
C12_3 O25_2 1_555 1_555
H13_3 C12_3 1_555 1_555
H18_3 C12_3 1_555 1_555
C7_3 C12_3 1_555 1_555
La5 O9_4 1_555 1_555
O9_4 C7_4 1_555 1_555
C7_4 O21_2 1_555 1_555
C12_4 O25_3 1_555 1_555
H13_4 C12_4 1_555 1_555
H18_4 C12_4 1_555 1_555
C7_4 C12_4 1_555 1_555
O19_2 C6_4 1_555 1_555
C6_4 O12 1_555 1_555
C11_4 O25_4 1_555 1_555
H12_4 C11_4 1_555 1_555
H17_4 C11_4 1_555 1_555
C6_4 C11_4 1_555 1_555
O4_2 La5 1_555 1_555
H2_2 O4_2 1_555 1_555
O26_2 La5 1_555 1_555
O27_2 La5 1_555 1_555
H5_2 O26_2 1_555 1_555
H7_2 O26_2 1_555 1_555
H8_2 O27_2 1_555 1_555

#END
