
###############################################################################
#
# This file contains modified crystal structure data generated from the
# MOF subset of the Cambridge Structural Database (CSD) v543 
# hosted by the Cambridge Crystallographic Data Centre (CCDC).
#
# This work is licensed under the Creative Commons
# Attribution-NonCommercial-ShareAlike 4.0 International License.
# To view a copy of this license, visit
# http://creativecommons.org/licenses/by-nc-sa/4.0/
# or send a letter to
# Creative Commons, PO Box 1866, Mountain View, CA 94042, USA.
#
# CIF created using the CSD Python API on 29 September 2022
# The structure has been converted into the P1 space group
# The structure has a 3D framework
# The original CSD entry DOYMAI is in the monoclinic crystal system
# The framework has been calculated to contain at least 10.0% void space
# The void calculation uses a probe of radius 1.32A, grid spacing 0.4
#
###############################################################################

data_DOYMAI
_chemical_formula_moiety         '(C112 H80 Cu4 N8 O15)n'
_symmetry_cell_setting           triclinic
_symmetry_space_group_name_H-M   'P 1'
_symmetry_Int_Tables_number      1
_space_group_name_Hall           'P 1'
loop_
_symmetry_equiv_pos_site_id
_symmetry_equiv_pos_as_xyz
1 x,y,z
_cell_length_a                   13.0185(6)
_cell_length_b                   23.5490(10)
_cell_length_c                   8.8355(5)
_cell_angle_alpha                90
_cell_angle_beta                 99.686(2)
_cell_angle_gamma                90
_cell_volume                     2670.11
loop_
_atom_site_label
_atom_site_type_symbol
_atom_site_fract_x
_atom_site_fract_y
_atom_site_fract_z
Cu3 Cu 0.06308(2) 0.89637(2) 0.03750(3)
O4 O 0.16676(12) 0.97957(7) 0.0398(2)
N1 N 0.10598(15) 0.86829(9) 0.2524(2)
C1 C 0.1261(2) 0.81211(11) 0.2715(3)
H1 H 0.1159 0.7882 0.1836
C2 C 0.1606(2) 0.78823(11) 0.4133(3)
H2 H 0.1736 0.7486 0.4217
C3 C 0.17644(18) 0.82237(10) 0.5448(3)
C4 C 0.15326(18) 0.88001(10) 0.5238(3)
H3 H 0.1606 0.9048 0.6097
C5 C 0.11962(18) 0.90083(10) 0.3778(3)
H4 H 0.1055 0.9403 0.3660
C6 C 0.21734(19) 0.80158(11) 0.6992(3)
H5 H 0.2106 0.8256 0.7833
C7 C 0.2635(2) 0.75125(12) 0.7305(3)
H6 H 0.2646 0.7262 0.6464
C8 C 0.3125(2) 0.73106(11) 0.8824(3)
C9 C 0.3533(2) 0.67608(12) 0.8968(3)
H7 H 0.3466 0.6524 0.8087
O1 O 0.00220(13) 0.88387(8) 0.8182(2)
O3 O 0.20651(12) 0.89106(7) 0.9913(2)
C15 C 0.22736(18) 0.94409(10) 0.9977(3)
C16 C 0.32594(17) 0.96316(11) 0.9452(3)
C17 C 0.38960(18) 0.92454(11) 0.8856(3)
H11 H 0.3740 0.8851 0.8855
C18 C 0.47582(18) 0.94332(11) 0.8261(3)
H12 H 0.5186 0.9166 0.7853
C23 C 0.66439(19) 0.99210(11) 0.7170(3)
H16 H 0.6598 0.9519 0.7225
C25 C 0.84976(18) 0.98959(11) 0.6849(3)
H18 H 0.8559 0.9530 0.7307
N2 N 0.43200(14) 0.43276(9) 0.0782(3)
H12_2 H 0.0186 0.5834 0.2853
C19 C 0.00025(19) 0.49902(11) 0.3257(3)
C22 C 0.08909(19) 0.47653(12) 0.2612(3)
H15 H 0.0933 0.4365 0.2501
C23_2 C 0.16439(19) 0.50790(11) 0.2170(3)
H16_2 H 0.1598 0.5481 0.2225
C24 C 0.43629(18) 0.48440(10) 0.1425(3)
H17 H 0.5010 0.5040 0.1597
C25_2 C 0.34976(18) 0.51041(11) 0.1849(3)
H18_2 H 0.3559 0.5470 0.2307
C26 C 0.25408(18) 0.48272(10) 0.1602(3)
C27 C 0.24890(18) 0.43030(10) 0.0847(3)
H19 H 0.1842 0.4110 0.0597
C28 C 0.33882(18) 0.40681(10) 0.0466(3)
Cu2 Cu 0.56308(2) 0.39637(2) 0.03750(3)
O4_2 O 0.66676(12) 0.47957(7) 0.0398(2)
N1_2 N 0.60598(15) 0.36829(9) 0.2524(2)
C1_2 C 0.6261(2) 0.31211(11) 0.2715(3)
H1_2 H 0.6159 0.2882 0.1836
C2_2 C 0.6606(2) 0.28823(11) 0.4133(3)
H2_2 H 0.6736 0.2486 0.4217
C3_2 C 0.67644(18) 0.32237(10) 0.5448(3)
C4_2 C 0.65326(18) 0.38001(10) 0.5238(3)
H3_2 H 0.6606 0.4048 0.6097
C5_2 C 0.61962(18) 0.40083(10) 0.3778(3)
H4_2 H 0.6055 0.4403 0.3660
C6_2 C 0.71734(19) 0.30158(11) 0.6992(3)
H5_2 H 0.7106 0.3256 0.7833
C7_2 C 0.7635(2) 0.25125(12) 0.7305(3)
H6_2 H 0.7646 0.2262 0.6464
C8_2 C 0.8125(2) 0.23106(11) 0.8824(3)
C9_2 C 0.8533(2) 0.17608(12) 0.8968(3)
H7_2 H 0.8466 0.1524 0.8087
H20 H 0.3345 0.3710 0.9963
O2 O 0.98288(13) 0.80205(7) 0.9341(2)
C3_3 C 0.67644(18) 0.67763(10) 0.0448(3)
C4_3 C 0.65326(18) 0.61999(10) 0.0238(3)
H3_3 H 0.6606 0.5952 0.1097
C6_3 C 0.71734(19) 0.69842(11) 0.1992(3)
H5_3 H 0.7106 0.6744 0.2833
C7_3 C 0.7635(2) 0.74875(12) 0.2305(3)
H6_3 H 0.7646 0.7738 0.1464
C8_3 C 0.8125(2) 0.76894(11) 0.3824(3)
C9_3 C 0.8533(2) 0.82392(12) 0.3968(3)
H7_3 H 0.8466 0.8476 0.3087
C10 C 0.9032(2) 0.84447(11) 0.5360(3)
H8 H 0.9290 0.8823 0.5430
C11 C 0.91595(18) 0.81037(10) 0.6663(3)
C12 C 0.8750(2) 0.75489(11) 0.6535(3)
H9 H 0.8827 0.7311 0.7414
C13 C 0.8241(2) 0.73497(11) 0.5152(3)
H10 H 0.7961 0.6976 0.5089
C14 C 0.97106(18) 0.83236(10) 0.8166(3)
Cu1 Cu 0.56308(2) 0.60363(2) 0.53750(3)
O3_2 O 0.70651(12) 0.60894(7) 0.4913(2)
O4_3 O 0.66676(12) 0.52043(7) 0.5398(2)
N1_3 N 0.60598(15) 0.63171(9) 0.7524(2)
C1_3 C 0.6261(2) 0.68789(11) 0.7715(3)
H1_3 H 0.6159 0.7118 0.6836
C2_3 C 0.6606(2) 0.71177(11) 0.9133(3)
H2_3 H 0.6736 0.7514 0.9217
C5_3 C 0.61962(18) 0.59917(10) 0.8778(3)
H4_3 H 0.6055 0.5597 0.8660
C15_2 C 0.72736(18) 0.55591(10) 0.4977(3)
C16_2 C 0.82594(17) 0.53684(11) 0.4452(3)
C17_2 C 0.88960(18) 0.57546(11) 0.3856(3)
H11_2 H 0.8740 0.6149 0.3855
C18_2 C 0.97582(18) 0.55668(11) 0.3261(3)
C20 C 0.93754(19) 0.46068(11) 0.3891(3)
H13 H 0.9535 0.4213 0.3908
C21 C 0.85175(18) 0.47974(11) 0.4497(3)
H14 H 0.8105 0.4534 0.4945
O5 O 0.50220(13) 0.61613(8) 0.3182(2)
O6 O 0.48288(13) 0.69795(7) 0.4341(2)
N3 N 0.43200(14) 0.56724(9) 0.5782(3)
H12_3 H 0.0186 0.4166 0.7853
C19_2 C 0.00025(19) 0.50098(11) 0.8257(3)
C22_2 C 0.08909(19) 0.52347(12) 0.7612(3)
H15_2 H 0.0933 0.5635 0.7501
C23_3 C 0.16439(19) 0.49210(11) 0.7170(3)
H16_3 H 0.1598 0.4519 0.7225
C24_2 C 0.43629(18) 0.51560(10) 0.6425(3)
H17_2 H 0.5010 0.4960 0.6597
C25_3 C 0.34976(18) 0.48959(11) 0.6849(3)
H18_3 H 0.3559 0.4530 0.7307
C26_2 C 0.25408(18) 0.51728(10) 0.6602(3)
C27_2 C 0.24890(18) 0.56970(10) 0.5847(3)
H19_2 H 0.1842 0.5890 0.5597
C28_2 C 0.33882(18) 0.59319(10) 0.5466(3)
H20_2 H 0.3345 0.6290 0.4963
C10_2 C 0.4032(2) 0.65553(11) 0.0360(3)
H8_2 H 0.4290 0.6177 0.0430
C11_2 C 0.41595(18) 0.68963(10) 0.1663(3)
C12_2 C 0.3750(2) 0.74511(11) 0.1535(3)
H9_2 H 0.3827 0.7689 0.2414
C13_2 C 0.3241(2) 0.76503(11) 0.0152(3)
H10_2 H 0.2961 0.8024 0.0089
C14_2 C 0.47106(18) 0.66764(10) 0.3166(3)
O1_2 O 0.00220(13) 0.11613(8) 0.3182(2)
Cu3_2 Cu 0.06308(2) 0.10363(2) 0.53750(3)
O3_3 O 0.20651(12) 0.10894(7) 0.4913(2)
O4_4 O 0.16676(12) 0.02043(7) 0.5398(2)
N1_4 N 0.10598(15) 0.13171(9) 0.7524(2)
C1_4 C 0.1261(2) 0.18789(11) 0.7715(3)
H1_4 H 0.1159 0.2118 0.6836
C2_4 C 0.1606(2) 0.21177(11) 0.9133(3)
H2_4 H 0.1736 0.2514 0.9217
C5_4 C 0.11962(18) 0.09917(10) 0.8778(3)
H4_4 H 0.1055 0.0597 0.8660
C15_3 C 0.22736(18) 0.05591(10) 0.4977(3)
C16_3 C 0.32594(17) 0.03684(11) 0.4452(3)
C17_3 C 0.38960(18) 0.07546(11) 0.3856(3)
H11_3 H 0.3740 0.1149 0.3855
C18_3 C 0.47582(18) 0.05668(11) 0.3261(3)
H12_4 H 0.5186 0.0834 0.2853
C23_4 C 0.66439(19) 0.00790(11) 0.2170(3)
H16_4 H 0.6598 0.0481 0.2225
C25_4 C 0.84976(18) 0.01041(11) 0.1849(3)
H18_4 H 0.8559 0.0470 0.2307
O2_2 O 0.98288(13) 0.19795(7) 0.4341(2)
C10_3 C 0.9032(2) 0.15553(11) 0.0360(3)
H8_3 H 0.9290 0.1177 0.0430
C11_3 C 0.91595(18) 0.18963(10) 0.1663(3)
C12_3 C 0.8750(2) 0.24511(11) 0.1535(3)
H9_3 H 0.8827 0.2689 0.2414
C13_3 C 0.8241(2) 0.26503(11) 0.0152(3)
H10_3 H 0.7961 0.3024 0.0089
C14_3 C 0.97106(18) 0.16764(10) 0.3166(3)
N3_2 N 0.93200(14) 0.06724(9) 0.5782(3)
C19_3 C 0.50025(19) 0.00098(11) 0.8257(3)
C20_2 C 0.43754(19) 0.03932(11) 0.8891(3)
H13_2 H 0.4535 0.0787 0.8908
C21_2 C 0.35175(18) 0.02026(11) 0.9497(3)
H14_2 H 0.3105 0.0466 0.9945
C22_3 C 0.58909(19) 0.02347(12) 0.7612(3)
H15_3 H 0.5933 0.0635 0.7501
C24_3 C 0.93629(18) 0.01560(10) 0.6425(3)
C26_3 C 0.75408(18) 0.01728(10) 0.6602(3)
C27_3 C 0.74890(18) 0.06970(10) 0.5847(3)
H19_3 H 0.6842 0.0890 0.5597
C28_3 C 0.83882(18) 0.09319(10) 0.5466(3)
H20_3 H 0.8345 0.1290 0.4963
O3_4 O 0.70651(12) 0.39106(7) 0.9913(2)
C15_4 C 0.72736(18) 0.44409(10) 0.9977(3)
C16_4 C 0.82594(17) 0.46316(11) 0.9452(3)
C17_4 C 0.88960(18) 0.42454(11) 0.8856(3)
H11_4 H 0.8740 0.3851 0.8855
C18_4 C 0.97582(18) 0.44332(11) 0.8261(3)
C20_3 C 0.93754(19) 0.53932(11) 0.8891(3)
H13_3 H 0.9535 0.5787 0.8908
C21_3 C 0.85175(18) 0.52026(11) 0.9497(3)
H14_3 H 0.8105 0.5466 0.9945
O5_2 O 0.50220(13) 0.38387(8) 0.8182(2)
O6_2 O 0.48288(13) 0.30205(7) 0.9341(2)
C3_4 C 0.17644(18) 0.17763(10) 0.0448(3)
C4_4 C 0.15326(18) 0.11999(10) 0.0238(3)
H3_4 H 0.1606 0.0952 0.1097
C6_4 C 0.21734(19) 0.19842(11) 0.1992(3)
H5_4 H 0.2106 0.1744 0.2833
C7_4 C 0.2635(2) 0.24875(12) 0.2305(3)
H6_4 H 0.2646 0.2738 0.1464
C8_4 C 0.3125(2) 0.26894(11) 0.3824(3)
C9_4 C 0.3533(2) 0.32392(12) 0.3968(3)
H7_4 H 0.3466 0.3476 0.3087
C10_4 C 0.4032(2) 0.34447(11) 0.5360(3)
H8_4 H 0.4290 0.3823 0.5430
C11_4 C 0.41595(18) 0.31037(10) 0.6663(3)
C12_4 C 0.3750(2) 0.25489(11) 0.6535(3)
H9_4 H 0.3827 0.2311 0.7414
C13_4 C 0.3241(2) 0.23497(11) 0.5152(3)
H10_4 H 0.2961 0.1976 0.5089
C14_4 C 0.47106(18) 0.33236(10) 0.8166(3)
H17_3 H 0.0010 0.0040 0.1597
N2_2 N 0.93200(14) 0.93276(9) 0.0782(3)
C19_4 C 0.50025(19) 0.99902(11) 0.3257(3)
C20_4 C 0.43754(19) 0.96068(11) 0.3891(3)
H13_4 H 0.4535 0.9213 0.3908
C21_4 C 0.35175(18) 0.97974(11) 0.4497(3)
H14_4 H 0.3105 0.9534 0.4945
C22_4 C 0.58909(19) 0.97653(12) 0.2612(3)
H15_4 H 0.5933 0.9365 0.2501
C24_4 C 0.93629(18) 0.98440(10) 0.1425(3)
C26_4 C 0.75408(18) 0.98272(10) 0.1602(3)
C27_4 C 0.74890(18) 0.93030(10) 0.0847(3)
H19_4 H 0.6842 0.9110 0.0597
C28_4 C 0.83882(18) 0.90681(10) 0.0466(3)
H20_4 H 0.8345 0.8710 0.9963
H17_4 H 0.0010 0.9960 0.6597
loop_
_geom_bond_atom_site_label_1
_geom_bond_atom_site_label_2
_geom_bond_site_symmetry_1
_geom_bond_site_symmetry_2
O4 Cu3 1_555 1_555
N1 Cu3 1_555 1_555
C1 N1 1_555 1_555
H1 C1 1_555 1_555
C2 C1 1_555 1_555
H2 C2 1_555 1_555
C3 C2 1_555 1_555
C4 C3 1_555 1_555
H3 C4 1_555 1_555
C5 N1 1_555 1_555
H4 C5 1_555 1_555
C6 C3 1_555 1_555
H5 C6 1_555 1_555
C7 C6 1_555 1_555
H6 C7 1_555 1_555
C8 C7 1_555 1_555
C9 C8 1_555 1_555
H7 C9 1_555 1_555
C4 C5 1_555 1_555
O3 C15 1_555 1_555
C16 C15 1_555 1_555
C17 C16 1_555 1_555
H11 C17 1_555 1_555
C18 C17 1_555 1_555
H12 C18 1_555 1_555
H16 C23 1_555 1_555
H18 C25 1_555 1_555
N2 C24 1_555 1_555
C22 C19 1_555 1_555
H15 C22 1_555 1_555
C23_2 C22 1_555 1_555
H16_2 C23_2 1_555 1_555
C24 H17 1_555 1_555
C25_2 C24 1_555 1_555
H18_2 C25_2 1_555 1_555
C26 C23_2 1_555 1_555
C27 C26 1_555 1_555
H19 C27 1_555 1_555
C28 N2 1_555 1_555
Cu2 N2 1_555 1_555
C25_2 C26 1_555 1_555
C27 C28 1_555 1_555
O4_2 Cu2 1_555 1_555
N1_2 Cu2 1_555 1_555
C1_2 N1_2 1_555 1_555
H1_2 C1_2 1_555 1_555
C2_2 C1_2 1_555 1_555
H2_2 C2_2 1_555 1_555
C3_2 C2_2 1_555 1_555
C4_2 C3_2 1_555 1_555
H3_2 C4_2 1_555 1_555
C5_2 N1_2 1_555 1_555
H4_2 C5_2 1_555 1_555
C6_2 C3_2 1_555 1_555
H5_2 C6_2 1_555 1_555
C7_2 C6_2 1_555 1_555
H6_2 C7_2 1_555 1_555
C8_2 C7_2 1_555 1_555
C9_2 C8_2 1_555 1_555
H7_2 C9_2 1_555 1_555
C4_2 C5_2 1_555 1_555
O2 C14 1_555 1_555
C4_3 C3_3 1_555 1_555
H3_3 C4_3 1_555 1_555
C6_3 C3_3 1_555 1_555
H5_3 C6_3 1_555 1_555
C7_3 C6_3 1_555 1_555
H6_3 C7_3 1_555 1_555
C8_3 C7_3 1_555 1_555
C9_3 C8_3 1_555 1_555
H7_3 C9_3 1_555 1_555
C10 C9_3 1_555 1_555
H8 C10 1_555 1_555
C11 C10 1_555 1_555
C12 C11 1_555 1_555
H9 C12 1_555 1_555
C13 C8_3 1_555 1_555
H10 C13 1_555 1_555
C14 C11 1_555 1_555
C12 C13 1_555 1_555
Cu1 O3_2 1_555 1_555
O3_2 C15_2 1_555 1_555
O4_3 Cu1 1_555 1_555
N1_3 Cu1 1_555 1_555
C1_3 N1_3 1_555 1_555
H1_3 C1_3 1_555 1_555
C2_3 C1_3 1_555 1_555
H2_3 C2_3 1_555 1_555
C5_3 N1_3 1_555 1_555
H4_3 C5_3 1_555 1_555
C15_2 O4_3 1_555 1_555
C16_2 C15_2 1_555 1_555
C17_2 C16_2 1_555 1_555
H11_2 C17_2 1_555 1_555
C18_2 C17_2 1_555 1_555
H13 C20 1_555 1_555
C21 C16_2 1_555 1_555
H14 C21 1_555 1_555
O5 Cu1 1_555 1_555
O6 Cu1 1_555 1_555
N3 Cu1 1_555 1_555
C20 C21 1_555 1_555
N3 C24_2 1_555 1_555
C22_2 C19_2 1_555 1_555
H15_2 C22_2 1_555 1_555
C23_3 C22_2 1_555 1_555
H16_3 C23_3 1_555 1_555
C24_2 H17_2 1_555 1_555
C25_3 C24_2 1_555 1_555
H18_3 C25_3 1_555 1_555
C26_2 C23_3 1_555 1_555
C27_2 C26_2 1_555 1_555
H19_2 C27_2 1_555 1_555
C28_2 N3 1_555 1_555
H20_2 C28_2 1_555 1_555
C25_3 C26_2 1_555 1_555
C27_2 C28_2 1_555 1_555
O5 C14_2 1_555 1_555
O6 C14_2 1_555 1_555
H8_2 C10_2 1_555 1_555
C11_2 C10_2 1_555 1_555
C12_2 C11_2 1_555 1_555
H9_2 C12_2 1_555 1_555
H10_2 C13_2 1_555 1_555
C14_2 C11_2 1_555 1_555
C12_2 C13_2 1_555 1_555
Cu3_2 O1_2 1_555 1_555
Cu3_2 O3_3 1_555 1_555
O3_3 C15_3 1_555 1_555
O4_4 Cu3_2 1_555 1_555
N1_4 Cu3_2 1_555 1_555
C1_4 N1_4 1_555 1_555
H1_4 C1_4 1_555 1_555
C2_4 C1_4 1_555 1_555
H2_4 C2_4 1_555 1_555
C5_4 N1_4 1_555 1_555
H4_4 C5_4 1_555 1_555
C15_3 O4_4 1_555 1_555
C16_3 C15_3 1_555 1_555
C17_3 C16_3 1_555 1_555
H11_3 C17_3 1_555 1_555
C18_3 C17_3 1_555 1_555
H12_4 C18_3 1_555 1_555
H16_4 C23_4 1_555 1_555
H18_4 C25_4 1_555 1_555
O2_2 C14_3 1_555 1_555
H8_3 C10_3 1_555 1_555
C11_3 C10_3 1_555 1_555
C12_3 C11_3 1_555 1_555
H9_3 C12_3 1_555 1_555
H10_3 C13_3 1_555 1_555
C14_3 C11_3 1_555 1_555
C12_3 C13_3 1_555 1_555
N3_2 C24_3 1_555 1_555
C20_2 C19_3 1_555 1_555
H13_2 C20_2 1_555 1_555
H14_2 C21_2 1_555 1_555
C22_3 C19_3 1_555 1_555
H15_3 C22_3 1_555 1_555
C27_3 C26_3 1_555 1_555
H19_3 C27_3 1_555 1_555
C28_3 N3_2 1_555 1_555
H20_3 C28_3 1_555 1_555
C20_2 C21_2 1_555 1_555
C27_3 C28_3 1_555 1_555
O3_4 C15_4 1_555 1_555
C16_4 C15_4 1_555 1_555
C17_4 C16_4 1_555 1_555
H11_4 C17_4 1_555 1_555
C18_4 C17_4 1_555 1_555
H13_3 C20_3 1_555 1_555
C21_3 C16_4 1_555 1_555
H14_3 C21_3 1_555 1_555
C20_3 C21_3 1_555 1_555
O5_2 C14_4 1_555 1_555
O6_2 C14_4 1_555 1_555
C4_4 C3_4 1_555 1_555
H3_4 C4_4 1_555 1_555
C6_4 C3_4 1_555 1_555
H5_4 C6_4 1_555 1_555
C7_4 C6_4 1_555 1_555
H6_4 C7_4 1_555 1_555
C8_4 C7_4 1_555 1_555
C9_4 C8_4 1_555 1_555
H7_4 C9_4 1_555 1_555
C10_4 C9_4 1_555 1_555
H8_4 C10_4 1_555 1_555
C11_4 C10_4 1_555 1_555
C12_4 C11_4 1_555 1_555
H9_4 C12_4 1_555 1_555
C13_4 C8_4 1_555 1_555
H10_4 C13_4 1_555 1_555
C14_4 C11_4 1_555 1_555
C12_4 C13_4 1_555 1_555
N2_2 C24_4 1_555 1_555
C20_4 C19_4 1_555 1_555
H13_4 C20_4 1_555 1_555
H14_4 C21_4 1_555 1_555
C22_4 C19_4 1_555 1_555
H15_4 C22_4 1_555 1_555
C27_4 C26_4 1_555 1_555
H19_4 C27_4 1_555 1_555
C28_4 N2_2 1_555 1_555
C20_4 C21_4 1_555 1_555
C27_4 C28_4 1_555 1_555

#END
