
###############################################################################
#
# This file contains modified crystal structure data generated from the
# MOF subset of the Cambridge Structural Database (CSD) v543 
# hosted by the Cambridge Crystallographic Data Centre (CCDC).
#
# This work is licensed under the Creative Commons
# Attribution-NonCommercial-ShareAlike 4.0 International License.
# To view a copy of this license, visit
# http://creativecommons.org/licenses/by-nc-sa/4.0/
# or send a letter to
# Creative Commons, PO Box 1866, Mountain View, CA 94042, USA.
#
# CIF created using the CSD Python API on 29 September 2022
# The structure has been converted into the P1 space group
# The structure has a 3D framework
# The original CSD entry DUBKAO is in the monoclinic crystal system
# The framework has been calculated to contain at least 10.0% void space
# The void calculation uses a probe of radius 1.32A, grid spacing 0.4
#
###############################################################################

data_DUBKAO
_chemical_formula_moiety         '(C140 H80 N24 Ni8 O32)n'
_symmetry_cell_setting           triclinic
_symmetry_space_group_name_H-M   'P 1'
_symmetry_Int_Tables_number      1
_space_group_name_Hall           'P 1'
loop_
_symmetry_equiv_pos_site_id
_symmetry_equiv_pos_as_xyz
1 x,y,z
_cell_length_a                   19.6700(18)
_cell_length_b                   22.239(2)
_cell_length_c                   11.6392(11)
_cell_angle_alpha                90
_cell_angle_beta                 116.7460(10)
_cell_angle_gamma                90
_cell_volume                     4546.73
loop_
_atom_site_label
_atom_site_type_symbol
_atom_site_fract_x
_atom_site_fract_y
_atom_site_fract_z
N2 N 0.3596(3) 0.2094(2) 0.0303(4)
N3 N 0.5981(2) 0.3212(2) 0.3153(4)
O1 O 0.2680(2) 0.17687(17) 0.3636(3)
O2 O 0.1904(2) 0.11990(16) 0.2036(4)
C7 C 0.2563(3) 0.1601(3) 0.0452(5)
H5 H 0.2112 0.1384 0.0050
C8 C 0.2858(3) 0.1742(2) 0.1739(5)
C9 C 0.3547(3) 0.2046(3) 0.2323(5)
H6 H 0.3768 0.2135 0.3197
C10 C 0.3900(3) 0.2213(3) 0.1565(5)
C11 C 0.5878(3) 0.2752(3) 0.3808(5)
H7 H 0.6269 0.2651 0.4608
C12 C 0.5206(3) 0.2423(3) 0.3326(5)
H8 H 0.5146 0.2118 0.3819
C13 C 0.4629(3) 0.2546(3) 0.2124(5)
C14 C 0.4748(3) 0.3016(3) 0.1427(6)
H9 H 0.4380 0.3111 0.0602
C15 C 0.5421(3) 0.3335(3) 0.1989(5)
H10 H 0.5489 0.3653 0.1531
C16 C 0.2451(3) 0.1558(2) 0.2512(5)
Ni3 Ni 0.18936(3) 0.12040(3) 0.38787(6)
Ni6 Ni 0.68936(3) 0.37960(3) 0.38787(6)
N1 N 0.2188(2) 0.1383(2) 0.5756(4)
O3 O 0.26734(19) 0.05006(17) 0.4407(4)
O4 O 0.11638(19) 0.05010(16) 0.3645(4)
C1 C 0.1740(3) 0.1282(3) 0.6326(5)
H1 H 0.1260 0.1119 0.5834
C2 C 0.1954(3) 0.1406(3) 0.7599(5)
H2 H 0.1619 0.1329 0.7945
C3 C 0.2674(3) 0.1646(2) 0.8375(5)
C4 C 0.3133(3) 0.1756(3) 0.7784(5)
H3 H 0.3615 0.1922 0.8250
C5 C 0.2874(3) 0.1619(3) 0.6497(5)
H4 H 0.3196 0.1694 0.6123
C6 C 0.2949(3) 0.1788(2) 0.9755(5)
C17 C 0.2359(4) 0.0000 0.4249(6)
C18 C 0.1484(4) 0.0000 0.3810(7)
N8 N 0.0981(2) 0.1788(2) 0.3153(4)
N5 N 0.3596(3) 0.7906(2) 0.0303(4)
N6 N 0.5981(2) 0.6788(2) 0.3153(4)
O7 O 0.2680(2) 0.82313(17) 0.3636(3)
O8 O 0.1904(2) 0.88010(16) 0.2036(4)
C25 C 0.2563(3) 0.8399(3) 0.0452(5)
H15 H 0.2112 0.8616 0.0050
C26 C 0.2858(3) 0.8258(2) 0.1739(5)
C27 C 0.3547(3) 0.7954(3) 0.2323(5)
H16 H 0.3768 0.7865 0.3197
C28 C 0.3900(3) 0.7787(3) 0.1565(5)
C29 C 0.5878(3) 0.7248(3) 0.3808(5)
H17 H 0.6269 0.7349 0.4608
C30 C 0.5206(3) 0.7577(3) 0.3326(5)
H18 H 0.5146 0.7882 0.3819
C31 C 0.4629(3) 0.7454(3) 0.2124(5)
C32 C 0.4748(3) 0.6984(3) 0.1427(6)
H19 H 0.4380 0.6889 0.0602
C33 C 0.5421(3) 0.6665(3) 0.1989(5)
H20 H 0.5489 0.6347 0.1531
C34 C 0.2451(3) 0.8442(2) 0.2512(5)
Ni4 Ni 0.68936(3) 0.62040(3) 0.38787(6)
Ni5 Ni 0.18936(3) 0.87960(3) 0.38787(6)
C17_2 C 0.2359(4) 1.0000 0.4249(6)
C18_2 C 0.1484(4) 1.0000 0.3810(7)
O5 O 0.26734(19) 0.94994(17) 0.4407(4)
O6 O 0.11638(19) 0.94990(16) 0.3645(4)
N4 N 0.2188(2) 0.8617(2) 0.5756(4)
C19 C 0.1740(3) 0.8718(3) 0.6326(5)
H11 H 0.1260 0.8881 0.5834
C20 C 0.1954(3) 0.8594(3) 0.7599(5)
H12 H 0.1619 0.8671 0.7945
C21 C 0.2674(3) 0.8354(2) 0.8375(5)
C22 C 0.3133(3) 0.8244(3) 0.7784(5)
H13 H 0.3615 0.8078 0.8250
C23 C 0.2874(3) 0.8381(3) 0.6497(5)
H14 H 0.3196 0.8306 0.6123
C24 C 0.2949(3) 0.8212(2) 0.9755(5)
N7 N 0.0981(2) 0.8212(2) 0.3153(4)
C11_2 C 0.0878(3) 0.7752(3) 0.3808(5)
H7_2 H 0.1269 0.7651 0.4608
C12_2 C 0.0206(3) 0.7423(3) 0.3326(5)
H8_2 H 0.0146 0.7118 0.3819
C15_2 C 0.0421(3) 0.8335(3) 0.1989(5)
H10_2 H 0.0489 0.8653 0.1531
C29_2 C 0.0878(3) 0.2248(3) 0.3808(5)
H17_2 H 0.1269 0.2349 0.4608
C30_2 C 0.0206(3) 0.2577(3) 0.3326(5)
H18_2 H 0.0146 0.2882 0.3819
C33_2 C 0.0421(3) 0.1665(3) 0.1989(5)
H20_2 H 0.0489 0.1347 0.1531
N2_2 N 0.8596(3) 0.7094(2) 0.0303(4)
O1_2 O 0.7680(2) 0.67687(17) 0.3636(3)
O2_2 O 0.6904(2) 0.61990(16) 0.2036(4)
C7_2 C 0.7563(3) 0.6601(3) 0.0452(5)
H5_2 H 0.7112 0.6384 0.0050
C8_2 C 0.7858(3) 0.6742(2) 0.1739(5)
C9_2 C 0.8547(3) 0.7046(3) 0.2323(5)
H6_2 H 0.8768 0.7135 0.3197
C10_2 C 0.8900(3) 0.7213(3) 0.1565(5)
C13_2 C 0.9629(3) 0.7546(3) 0.2124(5)
C14_2 C 0.9748(3) 0.8016(3) 0.1427(6)
H9_2 H 0.9380 0.8111 0.0602
C16_2 C 0.7451(3) 0.6558(2) 0.2512(5)
N5_2 N 0.8596(3) 0.2906(2) 0.0303(4)
O7_2 O 0.7680(2) 0.32313(17) 0.3636(3)
O8_2 O 0.6904(2) 0.38010(16) 0.2036(4)
C25_2 C 0.7563(3) 0.3399(3) 0.0452(5)
H15_2 H 0.7112 0.3616 0.0050
C26_2 C 0.7858(3) 0.3258(2) 0.1739(5)
C27_2 C 0.8547(3) 0.2954(3) 0.2323(5)
H16_2 H 0.8768 0.2865 0.3197
C28_2 C 0.8900(3) 0.2787(3) 0.1565(5)
C31_2 C 0.9629(3) 0.2454(3) 0.2124(5)
C32_2 C 0.9748(3) 0.1984(3) 0.1427(6)
H19_2 H 0.9380 0.1889 0.0602
C34_2 C 0.7451(3) 0.3442(2) 0.2512(5)
N1_2 N 0.7188(2) 0.6383(2) 0.5756(4)
O3_2 O 0.76734(19) 0.55006(17) 0.4407(4)
O4_2 O 0.61638(19) 0.55010(16) 0.3645(4)
C1_2 C 0.6740(3) 0.6282(3) 0.6326(5)
H1_2 H 0.6260 0.6119 0.5834
C2_2 C 0.6954(3) 0.6406(3) 0.7599(5)
H2_2 H 0.6619 0.6329 0.7945
C3_2 C 0.7674(3) 0.6646(2) 0.8375(5)
C4_2 C 0.8133(3) 0.6756(3) 0.7784(5)
H3_2 H 0.8615 0.6922 0.8250
C5_2 C 0.7874(3) 0.6619(3) 0.6497(5)
H4_2 H 0.8196 0.6694 0.6123
C6_2 C 0.7949(3) 0.6788(2) 0.9755(5)
C17_3 C 0.7359(4) 0.5000 0.4249(6)
C18_3 C 0.6484(4) 0.5000 0.3810(7)
O5_2 O 0.76734(19) 0.44994(17) 0.4407(4)
O6_2 O 0.61638(19) 0.44990(16) 0.3645(4)
N4_2 N 0.7188(2) 0.3617(2) 0.5756(4)
C19_2 C 0.6740(3) 0.3718(3) 0.6326(5)
H11_2 H 0.6260 0.3881 0.5834
C20_2 C 0.6954(3) 0.3594(3) 0.7599(5)
H12_2 H 0.6619 0.3671 0.7945
C21_2 C 0.7674(3) 0.3354(2) 0.8375(5)
C22_2 C 0.8133(3) 0.3244(3) 0.7784(5)
H13_2 H 0.8615 0.3078 0.8250
C23_2 C 0.7874(3) 0.3381(3) 0.6497(5)
H14_2 H 0.8196 0.3306 0.6123
C24_2 C 0.7949(3) 0.3212(2) 0.9755(5)
Ni1 Ni 0.81064(3) 0.12040(3) 0.61213(6)
N1_3 N 0.7812(2) 0.1383(2) 0.4244(4)
O3_3 O 0.73266(19) 0.05006(17) 0.5593(4)
O4_3 O 0.88362(19) 0.05010(16) 0.6355(4)
C1_3 C 0.8260(3) 0.1282(3) 0.3674(5)
H1_3 H 0.8740 0.1119 0.4166
C2_3 C 0.8046(3) 0.1406(3) 0.2401(5)
H2_3 H 0.8381 0.1329 0.2055
C3_3 C 0.7326(3) 0.1646(2) 0.1625(5)
C4_3 C 0.6867(3) 0.1756(3) 0.2216(5)
H3_3 H 0.6385 0.1922 0.1750
C5_3 C 0.7126(3) 0.1619(3) 0.3503(5)
H4_3 H 0.6804 0.1694 0.3877
C6_3 C 0.7051(3) 0.1788(2) 0.0245(5)
C17_4 C 0.7641(4) -0.0000 0.5751(6)
C18_4 C 0.8516(4) -0.0000 0.6190(7)
N8_2 N 0.9019(2) 0.1788(2) 0.6847(4)
O9 O 0.7320(2) 0.17687(17) 0.6364(3)
O11 O 0.8096(2) 0.11990(16) 0.7964(4)
N2_3 N 0.6404(3) 0.2094(2) 0.9697(4)
N3_2 N 0.4019(2) 0.3212(2) 0.6847(4)
C7_3 C 0.7437(3) 0.1601(3) 0.9548(5)
H5_3 H 0.7888 0.1384 0.9950
C8_3 C 0.7142(3) 0.1742(2) 0.8261(5)
C9_3 C 0.6453(3) 0.2046(3) 0.7677(5)
H6_3 H 0.6232 0.2135 0.6803
C10_3 C 0.6100(3) 0.2213(3) 0.8435(5)
C11_3 C 0.4122(3) 0.2752(3) 0.6192(5)
H7_3 H 0.3731 0.2651 0.5392
C12_3 C 0.4794(3) 0.2423(3) 0.6674(5)
H8_3 H 0.4854 0.2118 0.6181
C13_3 C 0.5371(3) 0.2546(3) 0.7876(5)
C14_3 C 0.5252(3) 0.3016(3) 0.8573(6)
H9_3 H 0.5620 0.3111 0.9398
C15_3 C 0.4579(3) 0.3335(3) 0.8011(5)
H10_3 H 0.4511 0.3653 0.8469
C16_3 C 0.7549(3) 0.1558(2) 0.7488(5)
Ni6_2 Ni 0.31064(3) 0.37960(3) 0.61213(6)
C17_5 C 0.7641(4) 1.0000 0.5751(6)
C18_5 C 0.8516(4) 1.0000 0.6190(7)
O5_3 O 0.73266(19) 0.94994(17) 0.5593(4)
O6_3 O 0.88362(19) 0.94990(16) 0.6355(4)
Ni2 Ni 0.81064(3) 0.87960(3) 0.61213(6)
N4_3 N 0.7812(2) 0.8617(2) 0.4244(4)
C19_3 C 0.8260(3) 0.8718(3) 0.3674(5)
H11_3 H 0.8740 0.8881 0.4166
C20_3 C 0.8046(3) 0.8594(3) 0.2401(5)
H12_3 H 0.8381 0.8671 0.2055
C21_3 C 0.7326(3) 0.8354(2) 0.1625(5)
C22_3 C 0.6867(3) 0.8244(3) 0.2216(5)
H13_3 H 0.6385 0.8078 0.1750
C23_3 C 0.7126(3) 0.8381(3) 0.3503(5)
H14_3 H 0.6804 0.8306 0.3877
C24_3 C 0.7051(3) 0.8212(2) 0.0245(5)
N7_2 N 0.9019(2) 0.8212(2) 0.6847(4)
O10 O 0.7320(2) 0.82313(17) 0.6364(3)
O12 O 0.8096(2) 0.88010(16) 0.7964(4)
N5_3 N 0.6404(3) 0.7906(2) 0.9697(4)
N6_2 N 0.4019(2) 0.6788(2) 0.6847(4)
C25_3 C 0.7437(3) 0.8399(3) 0.9548(5)
H15_3 H 0.7888 0.8616 0.9950
C26_3 C 0.7142(3) 0.8258(2) 0.8261(5)
C27_3 C 0.6453(3) 0.7954(3) 0.7677(5)
H16_3 H 0.6232 0.7865 0.6803
C28_3 C 0.6100(3) 0.7787(3) 0.8435(5)
C29_3 C 0.4122(3) 0.7248(3) 0.6192(5)
H17_3 H 0.3731 0.7349 0.5392
C30_3 C 0.4794(3) 0.7577(3) 0.6674(5)
H18_3 H 0.4854 0.7882 0.6181
C31_3 C 0.5371(3) 0.7454(3) 0.7876(5)
C32_3 C 0.5252(3) 0.6984(3) 0.8573(6)
H19_3 H 0.5620 0.6889 0.9398
C33_3 C 0.4579(3) 0.6665(3) 0.8011(5)
H20_3 H 0.4511 0.6347 0.8469
C34_3 C 0.7549(3) 0.8442(2) 0.7488(5)
Ni4_2 Ni 0.31064(3) 0.62040(3) 0.61213(6)
N1_4 N 0.2812(2) 0.6383(2) 0.4244(4)
O3_4 O 0.23266(19) 0.55006(17) 0.5593(4)
O4_4 O 0.38362(19) 0.55010(16) 0.6355(4)
C1_4 C 0.3260(3) 0.6282(3) 0.3674(5)
H1_4 H 0.3740 0.6119 0.4166
C2_4 C 0.3046(3) 0.6406(3) 0.2401(5)
H2_4 H 0.3381 0.6329 0.2055
C3_4 C 0.2326(3) 0.6646(2) 0.1625(5)
C4_4 C 0.1867(3) 0.6756(3) 0.2216(5)
H3_4 H 0.1385 0.6922 0.1750
C5_4 C 0.2126(3) 0.6619(3) 0.3503(5)
H4_4 H 0.1804 0.6694 0.3877
C6_4 C 0.2051(3) 0.6788(2) 0.0245(5)
C17_6 C 0.2641(4) 0.5000 0.5751(6)
C18_6 C 0.3516(4) 0.5000 0.6190(7)
O5_4 O 0.23266(19) 0.44994(17) 0.5593(4)
O6_4 O 0.38362(19) 0.44990(16) 0.6355(4)
N4_4 N 0.2812(2) 0.3617(2) 0.4244(4)
C19_4 C 0.3260(3) 0.3718(3) 0.3674(5)
H11_4 H 0.3740 0.3881 0.4166
C20_4 C 0.3046(3) 0.3594(3) 0.2401(5)
H12_4 H 0.3381 0.3671 0.2055
C21_4 C 0.2326(3) 0.3354(2) 0.1625(5)
C22_4 C 0.1867(3) 0.3244(3) 0.2216(5)
H13_4 H 0.1385 0.3078 0.1750
C23_4 C 0.2126(3) 0.3381(3) 0.3503(5)
H14_4 H 0.1804 0.3306 0.3877
C24_4 C 0.2051(3) 0.3212(2) 0.0245(5)
O9_2 O 0.2320(2) 0.67687(17) 0.6364(3)
O10_2 O 0.2320(2) 0.32313(17) 0.6364(3)
O11_2 O 0.3096(2) 0.61990(16) 0.7964(4)
O12_2 O 0.3096(2) 0.38010(16) 0.7964(4)
N2_4 N 0.1404(3) 0.7094(2) 0.9697(4)
C7_4 C 0.2437(3) 0.6601(3) 0.9548(5)
H5_4 H 0.2888 0.6384 0.9950
C8_4 C 0.2142(3) 0.6742(2) 0.8261(5)
C9_4 C 0.1453(3) 0.7046(3) 0.7677(5)
H6_4 H 0.1232 0.7135 0.6803
C10_4 C 0.1100(3) 0.7213(3) 0.8435(5)
C13_4 C 0.0371(3) 0.7546(3) 0.7876(5)
C14_4 C 0.0252(3) 0.8016(3) 0.8573(6)
H9_4 H 0.0620 0.8111 0.9398
C16_4 C 0.2549(3) 0.6558(2) 0.7488(5)
N5_4 N 0.1404(3) 0.2906(2) 0.9697(4)
C25_4 C 0.2437(3) 0.3399(3) 0.9548(5)
H15_4 H 0.2888 0.3616 0.9950
C26_4 C 0.2142(3) 0.3258(2) 0.8261(5)
C27_4 C 0.1453(3) 0.2954(3) 0.7677(5)
H16_4 H 0.1232 0.2865 0.6803
C28_4 C 0.1100(3) 0.2787(3) 0.8435(5)
C31_4 C 0.0371(3) 0.2454(3) 0.7876(5)
C32_4 C 0.0252(3) 0.1984(3) 0.8573(6)
H19_4 H 0.0620 0.1889 0.9398
C34_4 C 0.2549(3) 0.3442(2) 0.7488(5)
C11_4 C 0.9122(3) 0.7752(3) 0.6192(5)
H7_4 H 0.8731 0.7651 0.5392
C12_4 C 0.9794(3) 0.7423(3) 0.6674(5)
H8_4 H 0.9854 0.7118 0.6181
C15_4 C 0.9579(3) 0.8335(3) 0.8011(5)
H10_4 H 0.9511 0.8653 0.8469
C29_4 C 0.9122(3) 0.2248(3) 0.6192(5)
H17_4 H 0.8731 0.2349 0.5392
C30_4 C 0.9794(3) 0.2577(3) 0.6674(5)
H18_4 H 0.9854 0.2882 0.6181
C33_4 C 0.9579(3) 0.1665(3) 0.8011(5)
H20_4 H 0.9511 0.1347 0.8469
loop_
_geom_bond_atom_site_label_1
_geom_bond_atom_site_label_2
_geom_bond_site_symmetry_1
_geom_bond_site_symmetry_2
N3 C11 1_555 1_555
O1 C16 1_555 1_555
O2 C16 1_555 1_555
H5 C7 1_555 1_555
C8 C7 1_555 1_555
C9 C8 1_555 1_555
H6 C9 1_555 1_555
C10 N2 1_555 1_555
C11 H7 1_555 1_555
C12 C11 1_555 1_555
H8 C12 1_555 1_555
C13 C10 1_555 1_555
C14 C13 1_555 1_555
H9 C14 1_555 1_555
C15 N3 1_555 1_555
H10 C15 1_555 1_555
C16 C8 1_555 1_555
Ni3 O1 1_555 1_555
Ni6 N3 1_555 1_555
O2 Ni3 1_555 1_555
C9 C10 1_555 1_555
C12 C13 1_555 1_555
C14 C15 1_555 1_555
Ni3 N1 1_555 1_555
N1 C1 1_555 1_555
O3 Ni3 1_555 1_555
O4 Ni3 1_555 1_555
C1 H1 1_555 1_555
C2 C1 1_555 1_555
H2 C2 1_555 1_555
C3 C2 1_555 1_555
C4 C3 1_555 1_555
H3 C4 1_555 1_555
C5 N1 1_555 1_555
H4 C5 1_555 1_555
C6 C3 1_555 1_555
C17 O3 1_555 1_555
C18 O4 1_555 1_555
N8 Ni3 1_555 1_555
C4 C5 1_555 1_555
C17 C18 1_555 1_555
N6 C29 1_555 1_555
O7 C34 1_555 1_555
O8 C34 1_555 1_555
H15 C25 1_555 1_555
C26 C25 1_555 1_555
C27 C26 1_555 1_555
H16 C27 1_555 1_555
C28 N5 1_555 1_555
C29 H17 1_555 1_555
C30 C29 1_555 1_555
H18 C30 1_555 1_555
C31 C28 1_555 1_555
C32 C31 1_555 1_555
H19 C32 1_555 1_555
C33 N6 1_555 1_555
H20 C33 1_555 1_555
C34 C26 1_555 1_555
Ni4 N6 1_555 1_555
Ni5 O7 1_555 1_555
O8 Ni5 1_555 1_555
C27 C28 1_555 1_555
C30 C31 1_555 1_555
C32 C33 1_555 1_555
O5 C17_2 1_555 1_555
O6 C18_2 1_555 1_555
Ni5 O5 1_555 1_555
N4 Ni5 1_555 1_555
C19 N4 1_555 1_555
H11 C19 1_555 1_555
C20 C19 1_555 1_555
H12 C20 1_555 1_555
C21 C20 1_555 1_555
C22 C21 1_555 1_555
H13 C22 1_555 1_555
C23 N4 1_555 1_555
H14 C23 1_555 1_555
C24 C21 1_555 1_555
N7 Ni5 1_555 1_555
C17_2 C18_2 1_555 1_555
O6 Ni5 1_555 1_555
C22 C23 1_555 1_555
N7 C11_2 1_555 1_555
C11_2 H7_2 1_555 1_555
C12_2 C11_2 1_555 1_555
H8_2 C12_2 1_555 1_555
C15_2 N7 1_555 1_555
H10_2 C15_2 1_555 1_555
N8 C29_2 1_555 1_555
C29_2 H17_2 1_555 1_555
C30_2 C29_2 1_555 1_555
H18_2 C30_2 1_555 1_555
C33_2 N8 1_555 1_555
H20_2 C33_2 1_555 1_555
O1_2 C16_2 1_555 1_555
O2_2 C16_2 1_555 1_555
H5_2 C7_2 1_555 1_555
C8_2 C7_2 1_555 1_555
C9_2 C8_2 1_555 1_555
H6_2 C9_2 1_555 1_555
C10_2 N2_2 1_555 1_555
C13_2 C10_2 1_555 1_555
C14_2 C13_2 1_555 1_555
H9_2 C14_2 1_555 1_555
C16_2 C8_2 1_555 1_555
O7_2 C34_2 1_555 1_555
O8_2 C34_2 1_555 1_555
H15_2 C25_2 1_555 1_555
C26_2 C25_2 1_555 1_555
C27_2 C26_2 1_555 1_555
H16_2 C27_2 1_555 1_555
C28_2 N5_2 1_555 1_555
C31_2 C28_2 1_555 1_555
C32_2 C31_2 1_555 1_555
H19_2 C32_2 1_555 1_555
C34_2 C26_2 1_555 1_555
Ni4 O1_2 1_555 1_555
Ni6 O7_2 1_555 1_555
O2_2 Ni4 1_555 1_555
C9_2 C10_2 1_555 1_555
O8_2 Ni6 1_555 1_555
C27_2 C28_2 1_555 1_555
Ni4 N1_2 1_555 1_555
N1_2 C1_2 1_555 1_555
O3_2 Ni4 1_555 1_555
O4_2 Ni4 1_555 1_555
C1_2 H1_2 1_555 1_555
C2_2 C1_2 1_555 1_555
H2_2 C2_2 1_555 1_555
C3_2 C2_2 1_555 1_555
C4_2 C3_2 1_555 1_555
H3_2 C4_2 1_555 1_555
C5_2 N1_2 1_555 1_555
H4_2 C5_2 1_555 1_555
C6_2 C3_2 1_555 1_555
C17_3 O3_2 1_555 1_555
C18_3 O4_2 1_555 1_555
O5_2 C17_3 1_555 1_555
O6_2 C18_3 1_555 1_555
Ni6 O5_2 1_555 1_555
N4_2 Ni6 1_555 1_555
C19_2 N4_2 1_555 1_555
H11_2 C19_2 1_555 1_555
C20_2 C19_2 1_555 1_555
H12_2 C20_2 1_555 1_555
C21_2 C20_2 1_555 1_555
C22_2 C21_2 1_555 1_555
H13_2 C22_2 1_555 1_555
C23_2 N4_2 1_555 1_555
H14_2 C23_2 1_555 1_555
C24_2 C21_2 1_555 1_555
C4_2 C5_2 1_555 1_555
C17_3 C18_3 1_555 1_555
O6_2 Ni6 1_555 1_555
C22_2 C23_2 1_555 1_555
Ni1 N1_3 1_555 1_555
N1_3 C1_3 1_555 1_555
O3_3 Ni1 1_555 1_555
O4_3 Ni1 1_555 1_555
C1_3 H1_3 1_555 1_555
C2_3 C1_3 1_555 1_555
H2_3 C2_3 1_555 1_555
C3_3 C2_3 1_555 1_555
C4_3 C3_3 1_555 1_555
H3_3 C4_3 1_555 1_555
C5_3 N1_3 1_555 1_555
H4_3 C5_3 1_555 1_555
C6_3 C3_3 1_555 1_555
C17_4 O3_3 1_555 1_555
C18_4 O4_3 1_555 1_555
N8_2 Ni1 1_555 1_555
O9 Ni1 1_555 1_555
O11 Ni1 1_555 1_555
C4_3 C5_3 1_555 1_555
C17_4 C18_4 1_555 1_555
N3_2 C11_3 1_555 1_555
O9 C16_3 1_555 1_555
O11 C16_3 1_555 1_555
H5_3 C7_3 1_555 1_555
C8_3 C7_3 1_555 1_555
C9_3 C8_3 1_555 1_555
H6_3 C9_3 1_555 1_555
C10_3 N2_3 1_555 1_555
C11_3 H7_3 1_555 1_555
C12_3 C11_3 1_555 1_555
H8_3 C12_3 1_555 1_555
C13_3 C10_3 1_555 1_555
C14_3 C13_3 1_555 1_555
H9_3 C14_3 1_555 1_555
C15_3 N3_2 1_555 1_555
H10_3 C15_3 1_555 1_555
C16_3 C8_3 1_555 1_555
Ni6_2 N3_2 1_555 1_555
C9_3 C10_3 1_555 1_555
C12_3 C13_3 1_555 1_555
C14_3 C15_3 1_555 1_555
O5_3 C17_5 1_555 1_555
O6_3 C18_5 1_555 1_555
Ni2 O5_3 1_555 1_555
N4_3 Ni2 1_555 1_555
C19_3 N4_3 1_555 1_555
H11_3 C19_3 1_555 1_555
C20_3 C19_3 1_555 1_555
H12_3 C20_3 1_555 1_555
C21_3 C20_3 1_555 1_555
C22_3 C21_3 1_555 1_555
H13_3 C22_3 1_555 1_555
C23_3 N4_3 1_555 1_555
H14_3 C23_3 1_555 1_555
C24_3 C21_3 1_555 1_555
N7_2 Ni2 1_555 1_555
O10 Ni2 1_555 1_555
O12 Ni2 1_555 1_555
C17_5 C18_5 1_555 1_555
O6_3 Ni2 1_555 1_555
C22_3 C23_3 1_555 1_555
N6_2 C29_3 1_555 1_555
O10 C34_3 1_555 1_555
O12 C34_3 1_555 1_555
H15_3 C25_3 1_555 1_555
C26_3 C25_3 1_555 1_555
C27_3 C26_3 1_555 1_555
H16_3 C27_3 1_555 1_555
C28_3 N5_3 1_555 1_555
C29_3 H17_3 1_555 1_555
C30_3 C29_3 1_555 1_555
H18_3 C30_3 1_555 1_555
C31_3 C28_3 1_555 1_555
C32_3 C31_3 1_555 1_555
H19_3 C32_3 1_555 1_555
C33_3 N6_2 1_555 1_555
H20_3 C33_3 1_555 1_555
C34_3 C26_3 1_555 1_555
Ni4_2 N6_2 1_555 1_555
C27_3 C28_3 1_555 1_555
C30_3 C31_3 1_555 1_555
C32_3 C33_3 1_555 1_555
Ni4_2 N1_4 1_555 1_555
N1_4 C1_4 1_555 1_555
O3_4 Ni4_2 1_555 1_555
O4_4 Ni4_2 1_555 1_555
C1_4 H1_4 1_555 1_555
C2_4 C1_4 1_555 1_555
H2_4 C2_4 1_555 1_555
C3_4 C2_4 1_555 1_555
C4_4 C3_4 1_555 1_555
H3_4 C4_4 1_555 1_555
C5_4 N1_4 1_555 1_555
H4_4 C5_4 1_555 1_555
C6_4 C3_4 1_555 1_555
C17_6 O3_4 1_555 1_555
C18_6 O4_4 1_555 1_555
O5_4 C17_6 1_555 1_555
O6_4 C18_6 1_555 1_555
Ni6_2 O5_4 1_555 1_555
N4_4 Ni6_2 1_555 1_555
C19_4 N4_4 1_555 1_555
H11_4 C19_4 1_555 1_555
C20_4 C19_4 1_555 1_555
H12_4 C20_4 1_555 1_555
C21_4 C20_4 1_555 1_555
C22_4 C21_4 1_555 1_555
H13_4 C22_4 1_555 1_555
C23_4 N4_4 1_555 1_555
H14_4 C23_4 1_555 1_555
C24_4 C21_4 1_555 1_555
O9_2 Ni4_2 1_555 1_555
O10_2 Ni6_2 1_555 1_555
O11_2 Ni4_2 1_555 1_555
O12_2 Ni6_2 1_555 1_555
C4_4 C5_4 1_555 1_555
C17_6 C18_6 1_555 1_555
O6_4 Ni6_2 1_555 1_555
C22_4 C23_4 1_555 1_555
O9_2 C16_4 1_555 1_555
O11_2 C16_4 1_555 1_555
H5_4 C7_4 1_555 1_555
C8_4 C7_4 1_555 1_555
C9_4 C8_4 1_555 1_555
H6_4 C9_4 1_555 1_555
C10_4 N2_4 1_555 1_555
C13_4 C10_4 1_555 1_555
C14_4 C13_4 1_555 1_555
H9_4 C14_4 1_555 1_555
C16_4 C8_4 1_555 1_555
O10_2 C34_4 1_555 1_555
O12_2 C34_4 1_555 1_555
H15_4 C25_4 1_555 1_555
C26_4 C25_4 1_555 1_555
C27_4 C26_4 1_555 1_555
H16_4 C27_4 1_555 1_555
C28_4 N5_4 1_555 1_555
C31_4 C28_4 1_555 1_555
C32_4 C31_4 1_555 1_555
H19_4 C32_4 1_555 1_555
C34_4 C26_4 1_555 1_555
C9_4 C10_4 1_555 1_555
C27_4 C28_4 1_555 1_555
N7_2 C11_4 1_555 1_555
C11_4 H7_4 1_555 1_555
C12_4 C11_4 1_555 1_555
H8_4 C12_4 1_555 1_555
C15_4 N7_2 1_555 1_555
H10_4 C15_4 1_555 1_555
N8_2 C29_4 1_555 1_555
C29_4 H17_4 1_555 1_555
C30_4 C29_4 1_555 1_555
H18_4 C30_4 1_555 1_555
C33_4 N8_2 1_555 1_555
H20_4 C33_4 1_555 1_555

#END
