
###############################################################################
#
# This file contains modified crystal structure data generated from the
# MOF subset of the Cambridge Structural Database (CSD) v543 
# hosted by the Cambridge Crystallographic Data Centre (CCDC).
#
# This work is licensed under the Creative Commons
# Attribution-NonCommercial-ShareAlike 4.0 International License.
# To view a copy of this license, visit
# http://creativecommons.org/licenses/by-nc-sa/4.0/
# or send a letter to
# Creative Commons, PO Box 1866, Mountain View, CA 94042, USA.
#
# CIF created using the CSD Python API on 29 September 2022
# The structure has been converted into the P1 space group
# The structure has a 3D framework
# The original CSD entry DULCAQ is in the triclinic crystal system
# The framework has been calculated to contain at least 10.0% void space
# The void calculation uses a probe of radius 1.32A, grid spacing 0.4
# The framework is charged, counterions have been retained in the structure
#
###############################################################################

data_DULCAQ
_chemical_formula_moiety         '(C128 H128 N36 O28 Zn6 2+)n'
_symmetry_cell_setting           triclinic
_symmetry_space_group_name_H-M   'P 1'
_symmetry_Int_Tables_number      1
_space_group_name_Hall           'P 1'
loop_
_symmetry_equiv_pos_site_id
_symmetry_equiv_pos_as_xyz
1 x,y,z
_cell_length_a                   12.8860(6)
_cell_length_b                   16.4783(5)
_cell_length_c                   18.2541(7)
_cell_angle_alpha                80.202(4)
_cell_angle_beta                 86.039(7)
_cell_angle_gamma                81.673(6)
_cell_volume                     3775.33
loop_
_atom_site_label
_atom_site_type_symbol
_atom_site_fract_x
_atom_site_fract_y
_atom_site_fract_z
H68 H 0.0698 0.0099 0.0497
Zn11 Zn 0.24334(4) 0.76305(3) 0.01226(3)
C26 C 0.2691(5) 0.6799(4) 0.8741(4)
H26 H 0.3353 0.6526 0.8870
C27 C 0.2242(6) 0.6751(4) 0.8121(4)
H27 H 0.2507 0.6442 0.7751
C28 C 0.1220(6) 0.7573(4) 0.8784(4)
H28 H 0.0649 0.7932 0.8932
H33 H 0.0347 0.6359 0.6715
C36 C 0.0504(8) 0.7443(5) 0.7580(5)
H35 H 0.0858 0.7498 0.7091
H36 H 0.0090 0.7974 0.7626
N7 N 0.2065(4) 0.7301(3) 0.9173(3)
N8 N 0.1297(5) 0.7259(3) 0.8143(3)
H67 H 0.0913 0.0199 0.9635
C67 C 0.0985(6) 0.8975(4) 0.0126(4)
C68 C 0.0543(6) 0.9899(4) 0.0052(6)
O11 O 0.1959(4) 0.8813(3) 0.0131(4)
O12 O 0.0390(4) 0.8434(3) 0.0175(3)
Zn3 Zn 0.48660(5) 0.27513(4) 0.26392(3)
C5 C 0.5346(4) 0.2859(4) 0.0001(3)
C6 C 0.4261(5) 0.2615(5) 0.0160(4)
H6 H 0.3793 0.3085 0.0299
C7 C 0.4185(6) 0.1867(5) 0.0770(4)
H7 H 0.4665 0.1397 0.0640
H8 H 0.3479 0.1720 0.0797
C8 C 0.4441(5) 0.2024(6) 0.1536(4)
C10 C 0.0391(6) 0.8758(4) 0.2381(4)
H10 H 0.0615 0.9194 0.2043
C11 C 0.0329(5) 0.7752(4) 0.3292(4)
H11 H 0.0514 0.7361 0.3709
C12 C 0.5066(6) 0.4435(4) 0.1755(5)
H12 H 0.4914 0.4218 0.1342
C13 C 0.5229(6) 0.5197(5) 0.1723(4)
H13 H 0.5212 0.5616 0.1310
C14 C 0.5321(7) 0.4483(6) 0.2855(5)
H14 H 0.5378 0.4367 0.3368
C15 C 0.2005(6) 0.8386(5) 0.3176(6)
H15 H 0.2170 0.8933 0.2953
H16 H 0.1989 0.8355 0.3712
C16 C 0.2851(5) 0.7755(4) 0.2958(5)
C17 C 0.3544(7) 0.7930(5) 0.2352(6)
H17 H 0.3442 0.8446 0.2048
C18 C 0.4376(7) 0.7356(6) 0.2194(7)
H18 H 0.4798 0.7448 0.1761
C19 C 0.4566(6) 0.6609(4) 0.2725(7)
C20 C 0.3848(8) 0.6431(7) 0.3242(8)
H19 H 0.3915 0.5902 0.3525
C21 C 0.3003(7) 0.6990(7) 0.3386(7)
H20 H 0.2528 0.6848 0.3777
C22 C 0.5583(7) 0.6020(6) 0.2685(9)
H21 H 0.6083 0.6295 0.2344
H22 H 0.5877 0.5890 0.3173
C37 C 0.3322(5) 0.3129(4) 0.3914(3)
H37 H 0.3693 0.3524 0.4042
C38 C 0.2430(5) 0.2903(4) 0.4253(3)
H38 H 0.2082 0.3103 0.4663
C39 C 0.2851(4) 0.2207(3) 0.3344(3)
H39 H 0.2832 0.1842 0.3010
C43 C 0.1198(4) 0.1881(4) 0.4086(3)
H43 H 0.1096 0.1580 0.3690
H44 H 0.0578 0.2284 0.4132
C44 C 0.1323(4) 0.1277(3) 0.4809(4)
C45 C 0.2286(6) 0.1006(5) 0.5136(5)
H45 H 0.2886 0.1199 0.4899
C46 C 0.2379(6) 0.0455(6) 0.5808(5)
H46 H 0.3029 0.0300 0.6019
C47 C 0.1509(5) 0.0143(4) 0.6156(4)
C48 C 0.0562(5) 0.0459(4) 0.5874(4)
C49 C 0.0464(5) 0.1046(4) 0.5237(3)
C56 C 0.0148(5) 0.5762(4) 0.0169(3)
H56 H 0.0251 0.6271 0.0285
N2 N 0.0932(4) 0.8297(3) 0.2953(4)
N3 N 0.5139(4) 0.3965(3) 0.2473(4)
N4 N 0.5429(4) 0.5242(3) 0.2437(3)
N9 N 0.3598(4) 0.2676(3) 0.3341(2)
N10 N 0.2124(3) 0.2323(3) 0.3888(2)
O2 O 0.0010(3) 0.5910(2) 0.37611(19)
O5 O 0.6071(3) 0.2244(3) 0.0006(3)
O7 O 0.4590(4) 0.2739(4) 0.1598(2)
O8 O 0.4476(6) 0.1469(5) 0.2071(4)
C65 C 0.0658(4) 0.4117(3) 0.5734(3)
C66 C 0.0476(5) 0.4697(4) 0.5003(3)
H65 H 0.0442 0.4365 0.4617
H66 H 0.1077 0.4996 0.4878
O9 O 0.1559(3) 0.3647(2) 0.57815(19)
Zn8 Zn 0.16774(4) 0.29143(3) 0.67405(3)
N34 N 0.7935(4) 0.2699(3) 0.0827(3)
N36 N 0.6155(4) 0.2076(3) 0.3060(3)
Zn2 Zn 0.75666(4) 0.23695(3) 0.98774(3)
C3 C 0.9015(6) 0.1025(4) 0.9874(4)
C4 C 0.9457(6) 0.0101(4) 0.9948(6)
H5 H 0.4014 0.2493 0.9705
C23 C 0.8868(4) 0.3032(3) 0.8519(3)
H23 H 0.9389 0.2575 0.8578
C24 C 0.8859(5) 0.3693(4) 0.7969(3)
H24 H 0.9362 0.3777 0.7583
C25 C 0.7472(4) 0.3861(3) 0.8697(3)
H25 H 0.6839 0.4097 0.8897
C29 C 0.7621(5) 0.5026(5) 0.7643(4)
H29 H 0.6938 0.5247 0.7838
H30 H 0.7545 0.4954 0.7134
C30 C 0.8376(4) 0.5638(3) 0.7649(3)
C31 C 0.8325(7) 0.6132(5) 0.8215(4)
H31 H 0.7819 0.6075 0.8602
C32 C 0.9013(8) 0.6691(5) 0.8197(4)
H32 H 0.8969 0.7010 0.8575
C33 C 0.9771(6) 0.6796(3) 0.7631(3)
C34 C 0.9829(4) 0.6310(3) 0.7095(3)
C35 C 0.9138(4) 0.5746(3) 0.7102(3)
H34 H 0.9193 0.5429 0.6722
N5 N 0.7987(3) 0.3140(2) 0.8979(2)
N6 N 0.7972(3) 0.4207(3) 0.8092(3)
O3 O 0.8041(4) 0.1187(3) 0.9869(4)
O4 O 0.9610(4) 0.1566(3) 0.9825(3)
O6 O 0.5520(4) 0.3587(3) 0.9866(3)
C69 C 0.1632(5) 0.4431(3) 0.7459(3)
H69 H 0.1570 0.4785 0.7005
C70 C 0.1627(5) 0.4673(3) 0.8136(3)
H70 H 0.1560 0.5216 0.8231
C71 C 0.1803(4) 0.3331(3) 0.8280(3)
H71 H 0.1882 0.2777 0.8505
C72 C 0.1766(5) 0.3928(4) 0.9462(3)
H72 H 0.1748 0.3359 0.9708
H73 H 0.2416 0.4100 0.9578
C73 C 0.0857(4) 0.4476(3) 0.9750(3)
N17 N 0.1742(3) 0.3582(2) 0.7555(2)
N18 N 0.1739(3) 0.3965(2) 0.8646(2)
C75 C 0.0977(5) 0.5251(4) 0.9921(3)
H75 H 0.1639 0.5422 0.9865
H3 H 0.9087 0.9801 0.0365
C40 C 0.3309(6) 0.7751(5) 0.6363(4)
H40 H 0.3509 0.7321 0.6090
C41 C 0.2447(7) 0.8318(5) 0.6270(5)
H41 H 0.1957 0.8353 0.5912
C42 C 0.3302(6) 0.8551(4) 0.7169(4)
H42 H 0.3485 0.8795 0.7557
C50 C 0.1617(7) 0.9515(5) 0.6871(4)
H49 H 0.1809 0.9781 0.7267
H50 H 0.0948 0.9316 0.7017
N11 N 0.3845(4) 0.7924(3) 0.6940(3)
N12 N 0.2403(4) 0.8822(3) 0.6770(3)
Zn13 Zn 0.51340(5) 0.72487(4) 0.73608(3)
H4 H 0.9302 0.9901 0.9503
C63 C 0.4768(5) 0.0213(6) 0.4273(5)
H63 H 0.4606 0.0363 0.3775
C76 C 0.3430(7) 0.1562(5) 0.7239(4)
H76 H 0.3098 0.1436 0.7704
C77 C 0.4327(7) 0.1177(6) 0.7017(5)
H77 H 0.4739 0.0738 0.7295
C78 C 0.3752(5) 0.2133(5) 0.6144(4)
H78 H 0.3699 0.2485 0.5688
C79 C 0.5449(6) 0.1248(6) 0.5841(6)
H79 H 0.5674 0.1718 0.5504
H80 H 0.6024 0.1006 0.6159
N19 N 0.3054(4) 0.2180(3) 0.6679(3)
N20 N 0.4552(4) 0.1540(4) 0.6297(3)
C80 C 0.5213(5) 0.0609(5) 0.5393(6)
C82 C 0.4984(6) 0.0819(5) 0.4662(6)
H82 H 0.4972 0.1366 0.4424
C87 C 0.0523(6) 0.1531(4) 0.7607(4)
H87 H 0.1049 0.1327 0.7942
H125 H 0.0040 0.9725 0.3883
H126 H 0.0203 0.8708 0.4907
N21 N 0.0573(4) 0.2168(3) 0.7034(3)
Zn1 Zn 0.83226(4) 0.70857(3) 0.32595(3)
C1 C 0.9342(4) 0.5883(3) 0.4266(3)
C2 C 0.9524(5) 0.5303(4) 0.4997(3)
H1 H 0.9558 0.5635 0.5383
H2 H 0.8923 0.5004 0.5122
C9 C 0.9477(6) 0.8469(4) 0.2393(4)
H9 H 0.8951 0.8673 0.2058
H47 H 0.9960 0.0275 0.6117
H48 H 0.9797 0.1292 0.5093
C51 C 0.8368(5) 0.5569(3) 0.2541(3)
H51 H 0.8430 0.5215 0.2995
C52 C 0.8373(5) 0.5327(3) 0.1864(3)
H52 H 0.8440 0.4784 0.1769
C53 C 0.8197(4) 0.6669(3) 0.1720(3)
H53 H 0.8118 0.7223 0.1495
C54 C 0.8234(5) 0.6072(4) 0.0538(3)
H54 H 0.8252 0.6641 0.0292
H55 H 0.7584 0.5900 0.0422
C55 C 0.9143(4) 0.5524(3) 0.0250(3)
C57 C 0.6570(7) 0.8438(5) 0.2761(4)
H57 H 0.6902 0.8564 0.2296
C58 C 0.5673(7) 0.8823(6) 0.2983(5)
H58 H 0.5261 0.9262 0.2705
C59 C 0.6248(5) 0.7867(5) 0.3856(4)
H59 H 0.6301 0.7515 0.4312
C60 C 0.4551(6) 0.8752(6) 0.4159(6)
H60 H 0.4326 0.8282 0.4496
H61 H 0.3976 0.8994 0.3841
N1 N 0.9427(4) 0.7832(3) 0.2966(3)
N13 N 0.8258(3) 0.6418(2) 0.2445(2)
N14 N 0.8261(3) 0.6035(2) 0.1354(2)
N15 N 0.6946(4) 0.7820(3) 0.3321(3)
N16 N 0.5448(4) 0.8460(4) 0.3703(3)
O1 O 0.8441(3) 0.6353(2) 0.42185(19)
C61 C 0.9023(5) 0.4749(4) 0.0079(3)
H62 H 0.8361 0.4578 0.0135
C62 C 0.4787(5) 0.9391(5) 0.4607(6)
C64 C 0.5016(6) 0.9181(5) 0.5338(6)
H64 H 0.5028 0.8634 0.5576
O10 O 0.9990(3) 0.4090(2) 0.62389(19)
C81 C 0.5232(5) 0.9787(6) 0.5727(5)
H81 H 0.5394 0.9637 0.6225
C74 C 0.9852(5) 0.4238(4) 0.9831(3)
H74 H 0.9749 0.3729 0.9715
C118 C 0.6691(6) 0.2249(5) 0.3637(4)
H118 H 0.6491 0.2679 0.3910
C119 C 0.7553(7) 0.1682(5) 0.3730(5)
H119 H 0.8043 0.1647 0.4088
C120 C 0.6698(6) 0.1449(4) 0.2831(4)
H120 H 0.6515 0.1205 0.2443
C128 C 0.8383(7) 0.0485(5) 0.3129(4)
H127 H 0.8191 0.0219 0.2733
H128 H 0.9052 0.0684 0.2983
N32 N 0.7597(4) 0.1178(3) 0.3230(3)
H83 H 0.5986 0.7507 0.0295
C101 C 0.1132(4) 0.6968(3) 0.1481(3)
H101 H 0.0611 0.7425 0.1422
C102 C 0.1141(5) 0.6307(4) 0.2031(3)
H102 H 0.0638 0.6223 0.2417
C103 C 0.2528(4) 0.6139(3) 0.1303(3)
H103 H 0.3161 0.5903 0.1103
C107 C 0.2379(5) 0.4974(5) 0.2357(4)
H107 H 0.3062 0.4753 0.2162
H108 H 0.2455 0.5046 0.2866
C108 C 0.1624(4) 0.4362(3) 0.2351(3)
C109 C 0.1675(7) 0.3868(5) 0.1785(4)
H109 H 0.2181 0.3925 0.1398
C110 C 0.0987(8) 0.3309(5) 0.1803(4)
H110 H 0.1031 0.2990 0.1425
C111 C 0.0229(6) 0.3204(3) 0.2369(3)
C112 C 0.0171(4) 0.3690(3) 0.2905(3)
C113 C 0.0862(4) 0.4254(3) 0.2898(3)
H112 H 0.0807 0.4571 0.3278
N25 N 0.2013(3) 0.6860(2) 0.1021(2)
N26 N 0.2028(3) 0.5793(3) 0.1908(3)
O14 O 0.4480(4) 0.6413(3) 0.0134(3)
C83 C 0.4654(4) 0.7141(4) 0.9999(3)
C84 C 0.5739(5) 0.7385(5) 0.9840(4)
H84 H 0.6207 0.6915 0.9701
C85 C 0.5815(6) 0.8133(5) 0.9230(4)
H85 H 0.5335 0.8603 0.9360
H86 H 0.6521 0.8280 0.9203
C86 C 0.5559(5) 0.7976(6) 0.8464(4)
C88 C 0.9609(6) 0.1242(4) 0.7619(4)
H88 H 0.9385 0.0806 0.7957
C89 C 0.9671(5) 0.2248(4) 0.6708(4)
H89 H 0.9486 0.2639 0.6291
C90 C 0.4934(6) 0.5565(4) 0.8245(5)
H90 H 0.5086 0.5782 0.8658
C91 C 0.4771(6) 0.4803(5) 0.8277(4)
H91 H 0.4788 0.4384 0.8690
C92 C 0.4679(7) 0.5517(6) 0.7145(5)
H92 H 0.4622 0.5633 0.6632
C93 C 0.7995(6) 0.1614(5) 0.6824(6)
H93 H 0.7830 0.1067 0.7047
H94 H 0.8011 0.1645 0.6288
C94 C 0.7149(5) 0.2245(4) 0.7042(5)
C95 C 0.6456(7) 0.2070(5) 0.7648(6)
H95 H 0.6558 0.1554 0.7952
C96 C 0.5624(7) 0.2644(6) 0.7806(7)
H96 H 0.5202 0.2552 0.8239
C97 C 0.5434(6) 0.3391(4) 0.7275(7)
C98 C 0.6152(8) 0.3569(7) 0.6758(8)
H97 H 0.6085 0.4098 0.6475
C99 C 0.6997(7) 0.3010(7) 0.6614(7)
H98 H 0.7472 0.3152 0.6223
C100 C 0.4417(7) 0.3980(6) 0.7315(9)
H99 H 0.3917 0.3705 0.7656
H100 H 0.4123 0.4110 0.6827
C115 C 0.6678(5) 0.6871(4) 0.6086(3)
H115 H 0.6307 0.6476 0.5958
C116 C 0.7570(5) 0.7097(4) 0.5747(3)
H116 H 0.7918 0.6897 0.5337
C117 C 0.7149(4) 0.7793(3) 0.6656(3)
H117 H 0.7168 0.8158 0.6990
C121 C 0.8802(4) 0.8119(4) 0.5914(3)
H121 H 0.8904 0.8420 0.6310
H122 H 0.9422 0.7716 0.5868
C122 C 0.8677(4) 0.8723(3) 0.5191(4)
C123 C 0.7714(6) 0.8994(5) 0.4864(5)
H123 H 0.7114 0.8801 0.5101
C124 C 0.7621(6) 0.9545(6) 0.4192(5)
H124 H 0.6971 0.9700 0.3981
C125 C 0.8491(5) 0.9857(4) 0.3844(4)
C126 C 0.9438(5) 0.9541(4) 0.4126(4)
C127 C 0.9536(5) 0.8954(4) 0.4763(3)
N22 N 0.9068(4) 0.1703(3) 0.7047(4)
N23 N 0.4861(4) 0.6035(3) 0.7527(4)
N24 N 0.4571(4) 0.4758(3) 0.7563(3)
N29 N 0.6402(4) 0.7324(3) 0.6659(2)
N30 N 0.7876(3) 0.7677(3) 0.6112(2)
O13 O 0.3929(3) 0.7756(3) 0.9994(3)
O15 O 0.5410(4) 0.7261(4) 0.8402(2)
O16 O 0.5524(6) 0.8531(5) 0.7929(4)
C104 C 0.7309(5) 0.3201(4) 0.1259(4)
H104 H 0.6647 0.3474 0.1130
C105 C 0.7758(6) 0.3249(4) 0.1879(4)
H105 H 0.7493 0.3558 0.2249
C106 C 0.8780(6) 0.2427(4) 0.1216(4)
H106 H 0.9351 0.2068 0.1068
H111 H 0.9653 0.3641 0.3285
C114 C 0.9496(8) 0.2557(5) 0.2420(5)
H113 H 0.9142 0.2502 0.2909
H114 H 0.9910 0.2026 0.2374
N28 N 0.8703(5) 0.2741(3) 0.1857(3)
N38 N 0.1252(8) 0.0753(5) 0.2078(6)
O19 O 0.1264(9) 0.0607(6) 0.2755(5)
O20 O 0.0408(9) 0.0809(7) 0.1778(7)
O21 O 0.2015(10) 0.0841(17) 0.1706(7)
N38_2 N 0.8748(8) 0.9247(5) 0.7922(6)
O19_2 O 0.8736(9) 0.9393(6) 0.7245(5)
O20_2 O 0.9592(9) 0.9191(7) 0.8222(7)
O21_2 O 0.7985(10) 0.9159(17) 0.8294(7)
N39 N 0.1950(7) 0.6502(7) 0.5463(5)
O22 O 0.1205(10) 0.7013(8) 0.5269(6)
O23 O 0.2773(8) 0.6520(13) 0.5110(7)
O24 O 0.1881(13) 0.5971(8) 0.6007(8)
N39_2 N 0.8050(7) 0.3498(7) 0.4537(5)
O22_2 O 0.8795(10) 0.2987(8) 0.4731(6)
O23_2 O 0.7227(8) 0.3480(13) 0.4890(7)
O24_2 O 0.8119(13) 0.4029(8) 0.3993(8)
loop_
_geom_bond_atom_site_label_1
_geom_bond_atom_site_label_2
_geom_bond_site_symmetry_1
_geom_bond_site_symmetry_2
C26 H26 1_555 1_555
C27 C26 1_555 1_555
H27 C27 1_555 1_555
C28 H28 1_555 1_555
H35 C36 1_555 1_555
H36 C36 1_555 1_555
N7 C26 1_555 1_555
N8 C27 1_555 1_555
C28 N7 1_555 1_555
C28 N8 1_555 1_555
C36 N8 1_555 1_555
C67 C68 1_555 1_555
O11 C67 1_555 1_555
O12 C67 1_555 1_555
Zn11 O11 1_555 1_555
Zn3 N3 1_555 1_555
C5 C6 1_555 1_555
H6 C6 1_555 1_555
C7 C6 1_555 1_555
H7 C7 1_555 1_555
H8 C7 1_555 1_555
C8 C7 1_555 1_555
H10 C10 1_555 1_555
C11 H11 1_555 1_555
C12 H12 1_555 1_555
C13 C12 1_555 1_555
H13 C13 1_555 1_555
C14 H14 1_555 1_555
C15 H15 1_555 1_555
H16 C15 1_555 1_555
C16 C15 1_555 1_555
C17 C16 1_555 1_555
H17 C17 1_555 1_555
C18 C17 1_555 1_555
H18 C18 1_555 1_555
C19 C18 1_555 1_555
C20 C19 1_555 1_555
H19 C20 1_555 1_555
C21 C16 1_555 1_555
H20 C21 1_555 1_555
C22 C19 1_555 1_555
H21 C22 1_555 1_555
H22 C22 1_555 1_555
C37 H37 1_555 1_555
C38 C37 1_555 1_555
H38 C38 1_555 1_555
C39 H39 1_555 1_555
C43 H43 1_555 1_555
H44 C43 1_555 1_555
C44 C43 1_555 1_555
C45 C44 1_555 1_555
H45 C45 1_555 1_555
C46 C45 1_555 1_555
H46 C46 1_555 1_555
C47 C46 1_555 1_555
C48 C47 1_555 1_555
C49 C44 1_555 1_555
H56 C56 1_555 1_555
N2 C10 1_555 1_555
N3 C12 1_555 1_555
N4 C13 1_555 1_555
N9 Zn3 1_555 1_555
N10 C38 1_555 1_555
O7 Zn3 1_555 1_555
O8 C8 1_555 1_555
C65 C66 1_555 1_555
H65 C66 1_555 1_555
H66 C66 1_555 1_555
O9 C65 1_555 1_555
Zn8 O9 1_555 1_555
N36 Zn3 1_555 1_555
C5 O5 1_555 1_555
C8 O7 1_555 1_555
C11 N2 1_555 1_555
C14 N3 1_555 1_555
C14 N4 1_555 1_555
C15 N2 1_555 1_555
C20 C21 1_555 1_555
C22 N4 1_555 1_555
C37 N9 1_555 1_555
C39 N9 1_555 1_555
C39 N10 1_555 1_555
C43 N10 1_555 1_555
C48 C49 1_555 1_555
Zn2 N5 1_555 1_555
C3 C4 1_555 1_555
C23 H23 1_555 1_555
C24 C23 1_555 1_555
H24 C24 1_555 1_555
C25 H25 1_555 1_555
C29 H29 1_555 1_555
H30 C29 1_555 1_555
C30 C29 1_555 1_555
C31 C30 1_555 1_555
H31 C31 1_555 1_555
C32 C31 1_555 1_555
H32 C32 1_555 1_555
C33 C32 1_555 1_555
C34 C33 1_555 1_555
C35 C30 1_555 1_555
H34 C35 1_555 1_555
N5 C23 1_555 1_555
N6 C24 1_555 1_555
O3 Zn2 1_555 1_555
O4 C3 1_555 1_555
C69 H69 1_555 1_555
C70 C69 1_555 1_555
H70 C70 1_555 1_555
C71 H71 1_555 1_555
C72 H72 1_555 1_555
H73 C72 1_555 1_555
C73 C72 1_555 1_555
N17 C69 1_555 1_555
N18 C70 1_555 1_555
H75 C75 1_555 1_555
Zn8 N17 1_555 1_555
C3 O3 1_555 1_555
C25 N5 1_555 1_555
C25 N6 1_555 1_555
C29 N6 1_555 1_555
C34 C35 1_555 1_555
C71 N17 1_555 1_555
C71 N18 1_555 1_555
C72 N18 1_555 1_555
C73 C75 1_555 1_555
C40 H40 1_555 1_555
C41 C40 1_555 1_555
H41 C41 1_555 1_555
C42 H42 1_555 1_555
H49 C50 1_555 1_555
H50 C50 1_555 1_555
N11 C40 1_555 1_555
N12 C41 1_555 1_555
Zn13 N11 1_555 1_555
C42 N11 1_555 1_555
C42 N12 1_555 1_555
C50 N12 1_555 1_555
H63 C63 1_555 1_555
C76 H76 1_555 1_555
C77 C76 1_555 1_555
H77 C77 1_555 1_555
C78 H78 1_555 1_555
C79 H79 1_555 1_555
H80 C79 1_555 1_555
N19 C76 1_555 1_555
N20 C77 1_555 1_555
C80 C79 1_555 1_555
C82 C63 1_555 1_555
H82 C82 1_555 1_555
Zn8 N19 1_555 1_555
C87 H87 1_555 1_555
N21 Zn8 1_555 1_555
C78 N19 1_555 1_555
C78 N20 1_555 1_555
C79 N20 1_555 1_555
C80 C82 1_555 1_555
C87 N21 1_555 1_555
Zn1 N1 1_555 1_555
C1 C2 1_555 1_555
C2 H1 1_555 1_555
H2 C2 1_555 1_555
C9 H9 1_555 1_555
C51 H51 1_555 1_555
C52 C51 1_555 1_555
H52 C52 1_555 1_555
C53 H53 1_555 1_555
C54 H54 1_555 1_555
H55 C54 1_555 1_555
C55 C54 1_555 1_555
C57 H57 1_555 1_555
C58 C57 1_555 1_555
H58 C58 1_555 1_555
C59 H59 1_555 1_555
C60 H60 1_555 1_555
H61 C60 1_555 1_555
N1 C9 1_555 1_555
N13 Zn1 1_555 1_555
N14 C52 1_555 1_555
N15 Zn1 1_555 1_555
N16 C58 1_555 1_555
O1 Zn1 1_555 1_555
C61 C55 1_555 1_555
H62 C61 1_555 1_555
C62 C60 1_555 1_555
C64 C62 1_555 1_555
H64 C64 1_555 1_555
C81 C64 1_555 1_555
H81 C81 1_555 1_555
C1 O1 1_555 1_555
C51 N13 1_555 1_555
C53 N13 1_555 1_555
C53 N14 1_555 1_555
C54 N14 1_555 1_555
C57 N15 1_555 1_555
C59 N15 1_555 1_555
C59 N16 1_555 1_555
C60 N16 1_555 1_555
H74 C74 1_555 1_555
C118 H118 1_555 1_555
C119 C118 1_555 1_555
H119 C119 1_555 1_555
C120 H120 1_555 1_555
H127 C128 1_555 1_555
H128 C128 1_555 1_555
N36 C118 1_555 1_555
N32 C119 1_555 1_555
C120 N36 1_555 1_555
C120 N32 1_555 1_555
C128 N32 1_555 1_555
Zn11 N25 1_555 1_555
C101 H101 1_555 1_555
C102 C101 1_555 1_555
H102 C102 1_555 1_555
C103 H103 1_555 1_555
C107 H107 1_555 1_555
H108 C107 1_555 1_555
C108 C107 1_555 1_555
C109 C108 1_555 1_555
H109 C109 1_555 1_555
C110 C109 1_555 1_555
H110 C110 1_555 1_555
C111 C110 1_555 1_555
C112 C111 1_555 1_555
C113 C108 1_555 1_555
H112 C113 1_555 1_555
N25 C101 1_555 1_555
N26 C102 1_555 1_555
C103 N25 1_555 1_555
C103 N26 1_555 1_555
C107 N26 1_555 1_555
C112 C113 1_555 1_555
Zn13 N23 1_555 1_555
C83 C84 1_555 1_555
H84 C84 1_555 1_555
C85 C84 1_555 1_555
H85 C85 1_555 1_555
H86 C85 1_555 1_555
C86 C85 1_555 1_555
H88 C88 1_555 1_555
C89 H89 1_555 1_555
C90 H90 1_555 1_555
C91 C90 1_555 1_555
H91 C91 1_555 1_555
C92 H92 1_555 1_555
C93 H93 1_555 1_555
H94 C93 1_555 1_555
C94 C93 1_555 1_555
C95 C94 1_555 1_555
H95 C95 1_555 1_555
C96 C95 1_555 1_555
H96 C96 1_555 1_555
C97 C96 1_555 1_555
C98 C97 1_555 1_555
H97 C98 1_555 1_555
C99 C94 1_555 1_555
H98 C99 1_555 1_555
C100 C97 1_555 1_555
H99 C100 1_555 1_555
H100 C100 1_555 1_555
C115 H115 1_555 1_555
C116 C115 1_555 1_555
H116 C116 1_555 1_555
C117 H117 1_555 1_555
C121 H121 1_555 1_555
H122 C121 1_555 1_555
C122 C121 1_555 1_555
C123 C122 1_555 1_555
H123 C123 1_555 1_555
C124 C123 1_555 1_555
H124 C124 1_555 1_555
C125 C124 1_555 1_555
C126 C125 1_555 1_555
C127 C122 1_555 1_555
N22 C88 1_555 1_555
N23 C90 1_555 1_555
N24 C91 1_555 1_555
N29 Zn13 1_555 1_555
N30 C116 1_555 1_555
O15 Zn13 1_555 1_555
O16 C86 1_555 1_555
C83 O13 1_555 1_555
C86 O15 1_555 1_555
C89 N22 1_555 1_555
C92 N23 1_555 1_555
C92 N24 1_555 1_555
C93 N22 1_555 1_555
C98 C99 1_555 1_555
C100 N24 1_555 1_555
C115 N29 1_555 1_555
C117 N29 1_555 1_555
C117 N30 1_555 1_555
C121 N30 1_555 1_555
C126 C127 1_555 1_555
C104 H104 1_555 1_555
C105 C104 1_555 1_555
H105 C105 1_555 1_555
C106 H106 1_555 1_555
H113 C114 1_555 1_555
H114 C114 1_555 1_555
N34 C104 1_555 1_555
N28 C105 1_555 1_555
C106 N34 1_555 1_555
C106 N28 1_555 1_555
C114 N28 1_555 1_555
N38 O19 1_555 1_555
O20 N38 1_555 1_555
O21 N38 1_555 1_555
N38_2 O19_2 1_555 1_555
O20_2 N38_2 1_555 1_555
O21_2 N38_2 1_555 1_555
N39 O22 1_555 1_555
O23 N39 1_555 1_555
O24 N39 1_555 1_555
N39_2 O22_2 1_555 1_555
O23_2 N39_2 1_555 1_555
O24_2 N39_2 1_555 1_555

#END
