
###############################################################################
#
# This file contains modified crystal structure data generated from the
# MOF subset of the Cambridge Structural Database (CSD) v543 
# hosted by the Cambridge Crystallographic Data Centre (CCDC).
#
# This work is licensed under the Creative Commons
# Attribution-NonCommercial-ShareAlike 4.0 International License.
# To view a copy of this license, visit
# http://creativecommons.org/licenses/by-nc-sa/4.0/
# or send a letter to
# Creative Commons, PO Box 1866, Mountain View, CA 94042, USA.
#
# CIF created using the CSD Python API on 29 September 2022
# The structure has been converted into the P1 space group
# The structure has a 3D framework
# The original CSD entry DULGUP is in the orthorhombic crystal system
# The framework has been calculated to contain at least 10.0% void space
# The void calculation uses a probe of radius 1.32A, grid spacing 0.4
#
###############################################################################

data_DULGUP
_chemical_formula_moiety         '(C96 H72 N16 Ni6 O16)n'
_symmetry_cell_setting           triclinic
_symmetry_space_group_name_H-M   'P 1'
_symmetry_Int_Tables_number      1
_space_group_name_Hall           'P 1'
loop_
_symmetry_equiv_pos_site_id
_symmetry_equiv_pos_as_xyz
1 x,y,z
_cell_length_a                   17.8645(18)
_cell_length_b                   12.7162(13)
_cell_length_c                   14.0327(15)
_cell_angle_alpha                90
_cell_angle_beta                 90
_cell_angle_gamma                90
_cell_volume                     3187.79
loop_
_atom_site_label
_atom_site_type_symbol
_atom_site_fract_x
_atom_site_fract_y
_atom_site_fract_z
H3 H 0.6029 0.0388 0.8270
Ni3 Ni 0.7500 -0.0000 0.72390(3)
Ni1 Ni 0.2500 0.5000 0.22390(3)
O1 O 0.31546(9) 0.62935(13) 0.19832(13)
O2 O 0.33138(10) 0.48830(12) 0.10945(14)
C7 C 0.34741(14) 0.58273(18) 0.12954(18)
C8 C 0.40474(15) 0.64145(19) 0.07319(19)
C10 C 0.43105(18) 0.7377(2) 0.1075(2)
H6 H 0.4118 0.7661 0.1634
C12 C 0.48640(19) 0.7904(2) 0.0568(2)
H9 H 0.5049 0.8537 0.0801
O3 O 0.18454(9) 0.37065(13) 0.19832(13)
O4 O 0.16862(10) 0.51170(12) 0.10945(14)
C19 C 0.15259(14) 0.41727(18) 0.12954(18)
C20 C 0.09526(15) 0.35855(19) 0.07319(19)
C22 C 0.06895(18) 0.2623(2) 0.1075(2)
H15 H 0.0882 0.2339 0.1634
C24 C 0.01360(19) 0.2096(2) 0.0568(2)
N5 N 0.17927(12) 0.57270(15) 0.31845(16)
N6 N 0.32073(12) 0.42730(15) 0.31845(16)
C13 C 0.98543(17) 0.2498(2) 0.9718(2)
C14 C 0.94064(16) 0.0859(2) 0.8928(2)
H10 H 0.9858 0.0539 0.9087
C15 C 0.92748(15) 0.18931(19) 0.91879(19)
C16 C 0.80729(15) 0.17159(19) 0.84580(19)
H11 H 0.7612 0.2012 0.8307
C17 C 0.88717(16) 0.0306(2) 0.8437(2)
C18 C 0.85851(14) 0.23227(19) 0.89540(19)
H13 H 0.8468 0.3009 0.9128
N3 N 0.82073(12) 0.07270(15) 0.81845(16)
N4 N 0.99442(15) 0.3838(2) 0.84613(19)
H17 H 0.9612 0.3514 0.8129
C1 C 0.01457(17) 0.7498(2) 0.4718(2)
C2 C 0.05936(16) 0.5859(2) 0.3928(2)
H1 H 0.0142 0.5539 0.4087
C3 C 0.07252(15) 0.68931(19) 0.41879(19)
C4 C 0.19271(15) 0.67159(19) 0.34580(19)
H2 H 0.2388 0.7012 0.3307
C5 C 0.11283(16) 0.5306(2) 0.3437(2)
H3_2 H 0.1029 0.4612 0.3270
C6 C 0.14149(14) 0.73227(19) 0.39540(19)
H4 H 0.1532 0.8009 0.4128
N2 N 0.00558(15) 0.8838(2) 0.34613(19)
H8 H 0.0388 0.8514 0.3129
H9_2 H 0.0049 0.6463 0.5801
O2_2 O 0.83138(10) 0.01170(12) 0.60945(14)
C13_2 C 0.48543(17) 0.2502(2) 0.4718(2)
C14_2 C 0.44064(16) 0.4141(2) 0.3928(2)
H10_2 H 0.4858 0.4461 0.4087
C15_2 C 0.42748(15) 0.31069(19) 0.41879(19)
C16_2 C 0.30729(15) 0.32841(19) 0.34580(19)
H11_2 H 0.2612 0.2988 0.3307
C17_2 C 0.38717(16) 0.4694(2) 0.3437(2)
H12 H 0.3971 0.5388 0.3270
C18_2 C 0.35851(14) 0.26773(19) 0.39540(19)
H13_2 H 0.3468 0.1991 0.4128
O3_2 O 0.68454(9) 0.12935(13) 0.69832(13)
C19_2 C 0.65259(14) 0.08273(18) 0.62954(18)
C20_2 C 0.59526(15) 0.14145(19) 0.57319(19)
C21 C 0.56808(15) 0.09997(19) 0.4888(2)
H14 H 0.5861 0.0357 0.4671
C22_2 C 0.56895(18) 0.2377(2) 0.6075(2)
H15_2 H 0.5882 0.2661 0.6634
N4_2 N 0.49442(15) 0.1162(2) 0.34613(19)
H16 H 0.5156 0.0607 0.3238
H17_2 H 0.4612 0.1486 0.3129
C23 C 0.51388(16) 0.1535(2) 0.4356(2)
C24_2 C 0.51360(19) 0.2904(2) 0.5568(2)
H18 H 0.4951 0.3537 0.5801
C1_2 C 0.51457(17) 0.7502(2) 0.9718(2)
C2_2 C 0.55936(16) 0.9141(2) 0.8928(2)
H1_2 H 0.5142 0.9461 0.9087
C3_2 C 0.57252(15) 0.81069(19) 0.91879(19)
C4_2 C 0.69271(15) 0.82841(19) 0.84580(19)
H2_2 H 0.7388 0.7988 0.8307
C5_2 C 0.61283(16) 0.9694(2) 0.8437(2)
C6_2 C 0.64149(14) 0.76773(19) 0.89540(19)
H4_2 H 0.6532 0.6991 0.9128
N1 N 0.67927(12) 0.92730(15) 0.81845(16)
C9 C 0.43192(15) 0.59997(19) 0.9888(2)
H5 H 0.4139 0.5357 0.9671
N2_2 N 0.50558(15) 0.6162(2) 0.84613(19)
H7 H 0.4844 0.5607 0.8238
H8_2 H 0.5388 0.6486 0.8129
C11 C 0.48612(16) 0.6535(2) 0.9356(2)
C21_2 C 0.06808(15) 0.40003(19) 0.9888(2)
H14_2 H 0.0861 0.4643 0.9671
H16_2 H 0.0156 0.4393 0.8238
C23_2 C 0.01388(16) 0.3465(2) 0.9356(2)
Ni3_2 Ni 0.7500 1.0000 0.72390(3)
H12_2 H 0.8971 0.9612 0.8270
O1_2 O 0.81546(9) 0.87065(13) 0.69832(13)
C7_2 C 0.84741(14) 0.91727(18) 0.62954(18)
C8_2 C 0.90474(15) 0.85855(19) 0.57319(19)
C9_2 C 0.93192(15) 0.90003(19) 0.4888(2)
H5_2 H 0.9139 0.9643 0.4671
C10_2 C 0.93105(18) 0.7623(2) 0.6075(2)
H6_2 H 0.9118 0.7339 0.6634
H7_2 H 0.9844 0.9393 0.3238
C11_2 C 0.98612(16) 0.8465(2) 0.4356(2)
C12_2 C 0.98640(19) 0.7096(2) 0.5568(2)
O4_2 O 0.66862(10) 0.98830(12) 0.60945(14)
H18_2 H 0.9951 0.1463 0.0801
Ni1_2 Ni 0.2500 -0.0000 0.27610(3)
O1_3 O 0.18454(9) 0.12935(13) 0.30168(13)
C7_3 C 0.15259(14) 0.08273(18) 0.37046(18)
C8_3 C 0.09526(15) 0.14145(19) 0.42681(19)
C9_3 C 0.06808(15) 0.09997(19) 0.5112(2)
H5_3 H 0.0861 0.0357 0.5329
C10_3 C 0.06895(18) 0.2377(2) 0.3925(2)
H6_3 H 0.0882 0.2661 0.3366
H7_3 H 0.0156 0.0607 0.6762
C11_3 C 0.01388(16) 0.1535(2) 0.5644(2)
C12_3 C 0.01360(19) 0.2904(2) 0.4432(2)
O4_3 O 0.33138(10) 0.01170(12) 0.39055(14)
N5_2 N 0.32073(12) 0.07270(15) 0.18155(16)
H12_3 H 0.1029 0.0388 0.1730
C1_3 C 0.48543(17) 0.2498(2) 0.0282(2)
C2_3 C 0.44064(16) 0.0859(2) 0.1072(2)
H1_3 H 0.4858 0.0539 0.0913
C3_3 C 0.42748(15) 0.18931(19) 0.08121(19)
C4_3 C 0.30729(15) 0.17159(19) 0.15420(19)
H2_3 H 0.2612 0.2012 0.1693
C5_3 C 0.38717(16) 0.0306(2) 0.1563(2)
C6_3 C 0.35851(14) 0.23227(19) 0.10460(19)
H4_3 H 0.3468 0.3009 0.0872
C9_4 C 0.56808(15) 0.40003(19) 0.0112(2)
H5_4 H 0.5861 0.4643 0.0329
N2_3 N 0.49442(15) 0.3838(2) 0.15387(19)
H7_4 H 0.5156 0.4393 0.1762
H8_3 H 0.4612 0.3514 0.1871
C11_4 C 0.51388(16) 0.3465(2) 0.0644(2)
C21_3 C 0.93192(15) 0.59997(19) 0.0112(2)
H14_3 H 0.9139 0.5357 0.0329
H16_3 H 0.9844 0.5607 0.1762
C23_3 C 0.98612(16) 0.6535(2) 0.0644(2)
Ni1_3 Ni 0.2500 1.0000 0.27610(3)
O2_3 O 0.16862(10) 0.98830(12) 0.39055(14)
C13_3 C 0.51457(17) 0.7498(2) 0.5282(2)
C14_3 C 0.55936(16) 0.5859(2) 0.6072(2)
H10_3 H 0.5142 0.5539 0.5913
C15_3 C 0.57252(15) 0.68931(19) 0.58121(19)
C16_3 C 0.69271(15) 0.67159(19) 0.65420(19)
H11_3 H 0.7388 0.7012 0.6693
C17_3 C 0.61283(16) 0.5306(2) 0.6563(2)
H12_4 H 0.6029 0.4612 0.6730
C18_3 C 0.64149(14) 0.73227(19) 0.60460(19)
H13_3 H 0.6532 0.8009 0.5872
N3_2 N 0.67927(12) 0.57270(15) 0.68155(16)
O3_3 O 0.31546(9) 0.87065(13) 0.30168(13)
C19_3 C 0.34741(14) 0.91727(18) 0.37046(18)
C20_3 C 0.40474(15) 0.85855(19) 0.42681(19)
C21_4 C 0.43192(15) 0.90003(19) 0.5112(2)
H14_4 H 0.4139 0.9643 0.5329
C22_3 C 0.43105(18) 0.7623(2) 0.3925(2)
H15_3 H 0.4118 0.7339 0.3366
N4_3 N 0.50558(15) 0.8838(2) 0.65387(19)
H16_4 H 0.4844 0.9393 0.6762
H17_3 H 0.5388 0.8514 0.6871
C23_4 C 0.48612(16) 0.8465(2) 0.5644(2)
C24_3 C 0.48640(19) 0.7096(2) 0.4432(2)
H18_3 H 0.5049 0.6463 0.4199
N6_2 N 0.17927(12) 0.92730(15) 0.18155(16)
Ni2 Ni 0.7500 0.5000 0.77610(3)
C1_4 C 0.98543(17) 0.2502(2) 0.5282(2)
C2_4 C 0.94064(16) 0.4141(2) 0.6072(2)
H1_4 H 0.9858 0.4461 0.5913
C3_4 C 0.92748(15) 0.31069(19) 0.58121(19)
C4_4 C 0.80729(15) 0.32841(19) 0.65420(19)
H2_4 H 0.7612 0.2988 0.6693
C5_4 C 0.88717(16) 0.4694(2) 0.6563(2)
H3_3 H 0.8971 0.5388 0.6730
C6_4 C 0.85851(14) 0.26773(19) 0.60460(19)
H4_4 H 0.8468 0.1991 0.5872
N1_2 N 0.82073(12) 0.42730(15) 0.68155(16)
N2_4 N 0.99442(15) 0.1162(2) 0.65387(19)
H8_4 H 0.9612 0.1486 0.6871
H9_3 H 0.9951 0.3537 0.4199
C13_4 C 0.01457(17) 0.7502(2) 0.0282(2)
C14_4 C 0.05936(16) 0.9141(2) 0.1072(2)
H10_4 H 0.0142 0.9461 0.0913
C15_4 C 0.07252(15) 0.81069(19) 0.08121(19)
C16_4 C 0.19271(15) 0.82841(19) 0.15420(19)
H11_4 H 0.2388 0.7988 0.1693
C17_4 C 0.11283(16) 0.9694(2) 0.1563(2)
C18_4 C 0.14149(14) 0.76773(19) 0.10460(19)
H13_4 H 0.1532 0.6991 0.0872
N4_4 N 0.00558(15) 0.6162(2) 0.15387(19)
H17_4 H 0.0388 0.6486 0.1871
O1_4 O 0.68454(9) 0.37065(13) 0.80168(13)
O2_4 O 0.66862(10) 0.51170(12) 0.89055(14)
C7_4 C 0.65259(14) 0.41727(18) 0.87046(18)
C8_4 C 0.59526(15) 0.35855(19) 0.92681(19)
C10_4 C 0.56895(18) 0.2623(2) 0.8925(2)
H6_4 H 0.5882 0.2339 0.8366
C12_4 C 0.51360(19) 0.2096(2) 0.9432(2)
H9_4 H 0.4951 0.1463 0.9199
O3_4 O 0.81546(9) 0.62935(13) 0.80168(13)
O4_4 O 0.83138(10) 0.48830(12) 0.89055(14)
C19_4 C 0.84741(14) 0.58273(18) 0.87046(18)
C20_4 C 0.90474(15) 0.64145(19) 0.92681(19)
C22_4 C 0.93105(18) 0.7377(2) 0.8925(2)
H15_4 H 0.9118 0.7661 0.8366
C24_4 C 0.98640(19) 0.7904(2) 0.9432(2)
H3_4 H 0.3971 0.9612 0.1730
H18_4 H 0.0049 0.8537 0.9199
loop_
_geom_bond_atom_site_label_1
_geom_bond_atom_site_label_2
_geom_bond_site_symmetry_1
_geom_bond_site_symmetry_2
Ni1 O1 1_555 1_555
O1 C7 1_555 1_555
O2 Ni1 1_555 1_555
C7 O2 1_555 1_555
C8 C7 1_555 1_555
C10 C8 1_555 1_555
H6 C10 1_555 1_555
H9 C12 1_555 1_555
O3 Ni1 1_555 1_555
O4 Ni1 1_555 1_555
C19 O3 1_555 1_555
C20 C19 1_555 1_555
C22 C20 1_555 1_555
H15 C22 1_555 1_555
N5 Ni1 1_555 1_555
N6 Ni1 1_555 1_555
C10 C12 1_555 1_555
O4 C19 1_555 1_555
C22 C24 1_555 1_555
C13 C15 1_555 1_555
C14 H10 1_555 1_555
C15 C14 1_555 1_555
C16 H11 1_555 1_555
C17 C14 1_555 1_555
C18 C15 1_555 1_555
H13 C18 1_555 1_555
N3 C16 1_555 1_555
H17 N4 1_555 1_555
Ni3 N3 1_555 1_555
C16 C18 1_555 1_555
C17 N3 1_555 1_555
C1 C3 1_555 1_555
C2 H1 1_555 1_555
C3 C2 1_555 1_555
C4 H2 1_555 1_555
C5 C2 1_555 1_555
H3_2 C5 1_555 1_555
C6 C3 1_555 1_555
H4 C6 1_555 1_555
N5 C4 1_555 1_555
H8 N2 1_555 1_555
C4 C6 1_555 1_555
C5 N5 1_555 1_555
O2_2 Ni3 1_555 1_555
C13_2 C15_2 1_555 1_555
C14_2 H10_2 1_555 1_555
C15_2 C14_2 1_555 1_555
C16_2 H11_2 1_555 1_555
C17_2 C14_2 1_555 1_555
H12 C17_2 1_555 1_555
C18_2 C15_2 1_555 1_555
H13_2 C18_2 1_555 1_555
N6 C16_2 1_555 1_555
O3_2 Ni3 1_555 1_555
C19_2 O3_2 1_555 1_555
C20_2 C19_2 1_555 1_555
C21 C20_2 1_555 1_555
H14 C21 1_555 1_555
C22_2 C20_2 1_555 1_555
H15_2 C22_2 1_555 1_555
N4_2 H16 1_555 1_555
H17_2 N4_2 1_555 1_555
C23 C13_2 1_555 1_555
C24_2 C13_2 1_555 1_555
H18 C24_2 1_555 1_555
C16_2 C18_2 1_555 1_555
C17_2 N6 1_555 1_555
C21 C23 1_555 1_555
C22_2 C24_2 1_555 1_555
N4_2 C23 1_555 1_555
C1_2 C3_2 1_555 1_555
C2_2 H1_2 1_555 1_555
C3_2 C2_2 1_555 1_555
C4_2 H2_2 1_555 1_555
C5_2 C2_2 1_555 1_555
C6_2 C3_2 1_555 1_555
H4_2 C6_2 1_555 1_555
N1 C4_2 1_555 1_555
H5 C9 1_555 1_555
N2_2 H7 1_555 1_555
H8_2 N2_2 1_555 1_555
C11 C1_2 1_555 1_555
H14_2 C21_2 1_555 1_555
Ni3_2 N1 1_555 1_555
C4_2 C6_2 1_555 1_555
C5_2 N1 1_555 1_555
C9 C11 1_555 1_555
N2_2 C11 1_555 1_555
C21_2 C23_2 1_555 1_555
Ni3_2 O1_2 1_555 1_555
O1_2 C7_2 1_555 1_555
C8_2 C7_2 1_555 1_555
C9_2 C8_2 1_555 1_555
H5_2 C9_2 1_555 1_555
C10_2 C8_2 1_555 1_555
H6_2 C10_2 1_555 1_555
O4_2 Ni3_2 1_555 1_555
C9_2 C11_2 1_555 1_555
C10_2 C12_2 1_555 1_555
Ni1_2 O1_3 1_555 1_555
O1_3 C7_3 1_555 1_555
C8_3 C7_3 1_555 1_555
C9_3 C8_3 1_555 1_555
H5_3 C9_3 1_555 1_555
C10_3 C8_3 1_555 1_555
H6_3 C10_3 1_555 1_555
O4_3 Ni1_2 1_555 1_555
N5_2 Ni1_2 1_555 1_555
C9_3 C11_3 1_555 1_555
C10_3 C12_3 1_555 1_555
C1_3 C3_3 1_555 1_555
C2_3 H1_3 1_555 1_555
C3_3 C2_3 1_555 1_555
C4_3 H2_3 1_555 1_555
C5_3 C2_3 1_555 1_555
C6_3 C3_3 1_555 1_555
H4_3 C6_3 1_555 1_555
N5_2 C4_3 1_555 1_555
H5_4 C9_4 1_555 1_555
N2_3 H7_4 1_555 1_555
H8_3 N2_3 1_555 1_555
C11_4 C1_3 1_555 1_555
H14_3 C21_3 1_555 1_555
C4_3 C6_3 1_555 1_555
C5_3 N5_2 1_555 1_555
C9_4 C11_4 1_555 1_555
N2_3 C11_4 1_555 1_555
C21_3 C23_3 1_555 1_555
O2_3 Ni1_3 1_555 1_555
C13_3 C15_3 1_555 1_555
C14_3 H10_3 1_555 1_555
C15_3 C14_3 1_555 1_555
C16_3 H11_3 1_555 1_555
C17_3 C14_3 1_555 1_555
H12_4 C17_3 1_555 1_555
C18_3 C15_3 1_555 1_555
H13_3 C18_3 1_555 1_555
N3_2 C16_3 1_555 1_555
O3_3 Ni1_3 1_555 1_555
C19_3 O3_3 1_555 1_555
C20_3 C19_3 1_555 1_555
C21_4 C20_3 1_555 1_555
H14_4 C21_4 1_555 1_555
C22_3 C20_3 1_555 1_555
H15_3 C22_3 1_555 1_555
N4_3 H16_4 1_555 1_555
H17_3 N4_3 1_555 1_555
C23_4 C13_3 1_555 1_555
C24_3 C13_3 1_555 1_555
H18_3 C24_3 1_555 1_555
N6_2 Ni1_3 1_555 1_555
Ni2 N3_2 1_555 1_555
C16_3 C18_3 1_555 1_555
C17_3 N3_2 1_555 1_555
C21_4 C23_4 1_555 1_555
C22_3 C24_3 1_555 1_555
N4_3 C23_4 1_555 1_555
C1_4 C3_4 1_555 1_555
C2_4 H1_4 1_555 1_555
C3_4 C2_4 1_555 1_555
C4_4 H2_4 1_555 1_555
C5_4 C2_4 1_555 1_555
H3_3 C5_4 1_555 1_555
C6_4 C3_4 1_555 1_555
H4_4 C6_4 1_555 1_555
N1_2 C4_4 1_555 1_555
H8_4 N2_4 1_555 1_555
Ni2 N1_2 1_555 1_555
C4_4 C6_4 1_555 1_555
C5_4 N1_2 1_555 1_555
C13_4 C15_4 1_555 1_555
C14_4 H10_4 1_555 1_555
C15_4 C14_4 1_555 1_555
C16_4 H11_4 1_555 1_555
C17_4 C14_4 1_555 1_555
C18_4 C15_4 1_555 1_555
H13_4 C18_4 1_555 1_555
N6_2 C16_4 1_555 1_555
H17_4 N4_4 1_555 1_555
C16_4 C18_4 1_555 1_555
C17_4 N6_2 1_555 1_555
Ni2 O1_4 1_555 1_555
O1_4 C7_4 1_555 1_555
O2_4 Ni2 1_555 1_555
C7_4 O2_4 1_555 1_555
C8_4 C7_4 1_555 1_555
C10_4 C8_4 1_555 1_555
H6_4 C10_4 1_555 1_555
H9_4 C12_4 1_555 1_555
O3_4 Ni2 1_555 1_555
O4_4 Ni2 1_555 1_555
C19_4 O3_4 1_555 1_555
C20_4 C19_4 1_555 1_555
C22_4 C20_4 1_555 1_555
H15_4 C22_4 1_555 1_555
C10_4 C12_4 1_555 1_555
O4_4 C19_4 1_555 1_555
C22_4 C24_4 1_555 1_555

#END
