
###############################################################################
#
# This file contains modified crystal structure data generated from the
# MOF subset of the Cambridge Structural Database (CSD) v543 
# hosted by the Cambridge Crystallographic Data Centre (CCDC).
#
# This work is licensed under the Creative Commons
# Attribution-NonCommercial-ShareAlike 4.0 International License.
# To view a copy of this license, visit
# http://creativecommons.org/licenses/by-nc-sa/4.0/
# or send a letter to
# Creative Commons, PO Box 1866, Mountain View, CA 94042, USA.
#
# CIF created using the CSD Python API on 29 September 2022
# The structure has been converted into the P1 space group
# The structure has a 3D framework
# The original CSD entry DUMXUG is in the monoclinic crystal system
# The framework has been calculated to contain at least 10.0% void space
# The void calculation uses a probe of radius 1.32A, grid spacing 0.4
#
###############################################################################

data_DUMXUG
_chemical_formula_moiety         '(C48 H32 Dy4 N12 O36)n'
_symmetry_cell_setting           triclinic
_symmetry_space_group_name_H-M   'P 1'
_symmetry_Int_Tables_number      1
_space_group_name_Hall           'P 1'
loop_
_symmetry_equiv_pos_site_id
_symmetry_equiv_pos_as_xyz
1 x,y,z
_cell_length_a                   10.1104(6)
_cell_length_b                   17.3557(7)
_cell_length_c                   11.3156(7)
_cell_angle_alpha                90
_cell_angle_beta                 108.961(7)
_cell_angle_gamma                90
_cell_volume                     1877.85
loop_
_atom_site_label
_atom_site_type_symbol
_atom_site_fract_x
_atom_site_fract_y
_atom_site_fract_z
Dy2 Dy 0.49222(2) 0.006605(13) 0.81855(2)
O3 O 0.5586(4) 0.8609(2) 0.1574(3)
C4 C 0.5313(5) 0.8559(3) 0.0421(5)
C5 C 0.5479(6) 0.7114(3) 0.0496(5)
H3 H 0.5984 0.7146 0.1343
H4 H 0.5505 0.5962 0.0396
Dy5 Dy 0.50778(2) 0.993395(13) 0.18145(2)
Dy1 Dy 0.50778(2) 0.506605(13) 0.68145(2)
O1 O 0.4101(4) 0.5664(2) 0.8195(3)
O2 O 0.5215(3) 0.9147(2) 0.9738(3)
O5 O 0.2880(3) 0.5464(2) 0.5430(3)
O6 O 0.2738(4) 0.5117(2) 0.3478(4)
O7 O 0.7037(4) 0.5330(3) 0.8823(4)
O8 O 0.6420(4) 0.4154(2) 0.8375(4)
O9 O 0.8291(5) 0.4419(3) 0.9935(5)
N1 N 0.4416(4) 0.6355(2) 0.8706(4)
N3 N 0.7271(5) 0.4629(4) 0.9069(4)
C1 C 0.3927(6) 0.6992(3) 0.8028(5)
H1 H 0.3368 0.6946 0.7198
C2 C 0.4248(6) 0.7711(3) 0.8553(5)
H2 H 0.3942 0.8149 0.8068
C3 C 0.5032(5) 0.7781(3) 0.9812(5)
C6 C 0.5182(5) 0.6407(3) 0.9935(5)
C8 C 0.0078(5) 0.5928(3) 0.4604(5)
H6 H 0.0624 0.6107 0.5385
C9 C 0.0704(5) 0.5557(3) 0.3837(5)
C10 C 0.2239(5) 0.5373(3) 0.4284(5)
H7 H 0.0241 0.5091 0.2110
Dy4 Dy 0.49222(2) 0.493395(13) 0.31855(2)
O10 O 0.4785(3) 0.4147(2) 0.5262(3)
O11 O 0.5215(3) 0.5853(2) 0.4738(3)
O12 O 0.5586(4) 0.6391(2) 0.6574(3)
O13 O 0.3527(3) 0.4161(2) 0.7241(3)
O14 O 0.7262(4) 0.4883(2) 0.6522(4)
O4 O 0.6473(3) 0.5839(2) 0.2759(3)
N2 N 0.7850(4) 0.5761(2) 0.3094(4)
C7 C 0.8653(5) 0.6031(3) 0.4212(5)
H5 H 0.8241 0.6290 0.4723
C11 C 0.9849(5) 0.5319(4) 0.2662(5)
C12 C 0.8433(5) 0.5420(4) 0.2318(5)
H8 H 0.7867 0.5251 0.1538
O4_2 O 0.3527(3) 0.0839(2) 0.2241(3)
N2_2 N 0.2150(4) 0.0761(2) 0.1906(4)
C7_2 C 0.1347(5) 0.1031(3) 0.0788(5)
H5_2 H 0.1759 0.1290 0.0277
C11_2 C 0.0151(5) 0.0319(4) 0.2338(5)
C12_2 C 0.1567(5) 0.0420(4) 0.2682(5)
H8_2 H 0.2133 0.0251 0.3462
O6_2 O 0.7262(4) 0.0117(2) 0.1522(4)
C8_2 C 0.9922(5) 0.0928(3) 0.0396(5)
C9_2 C 0.9296(5) 0.0557(3) 0.1163(5)
C10_2 C 0.7761(5) 0.0373(3) 0.0716(5)
H7_2 H 0.9759 0.0091 0.2890
O11_2 O 0.4785(3) 0.0853(2) 0.0262(3)
O1_2 O 0.5899(4) 0.0664(2) 0.6805(3)
O3_2 O 0.4414(4) 0.3609(2) 0.3426(3)
O5_2 O 0.7120(3) 0.0464(2) 0.9570(3)
O7_2 O 0.2963(4) 0.0330(3) 0.6177(4)
N1_2 N 0.5584(4) 0.1355(2) 0.6294(4)
C1_2 C 0.6073(6) 0.1992(3) 0.6972(5)
H1_2 H 0.6632 0.1946 0.7802
C2_2 C 0.5752(6) 0.2711(3) 0.6447(5)
H2_2 H 0.6058 0.3149 0.6932
C3_2 C 0.4968(5) 0.2781(3) 0.5188(5)
C4_2 C 0.4687(5) 0.3559(3) 0.4579(5)
C5_2 C 0.4521(6) 0.2114(3) 0.4504(5)
H3_2 H 0.4016 0.2146 0.3657
C6_2 C 0.4818(5) 0.1407(3) 0.5065(5)
H4_2 H 0.4495 0.0962 0.4604
H6_2 H 0.9376 0.1107 0.9615
O12_2 O 0.4414(4) 0.1391(2) 0.8426(3)
O8_2 O 0.3580(4) 0.9154(2) 0.6625(4)
O9_2 O 0.1709(5) 0.9419(3) 0.5065(5)
N3_2 N 0.2729(5) 0.9629(4) 0.5931(4)
O13_2 O 0.6473(3) 0.9161(2) 0.7759(3)
O14_2 O 0.2738(4) 0.9883(2) 0.8478(4)
N2_3 N 0.2150(4) 0.4239(2) 0.6906(4)
C7_3 C 0.1347(5) 0.3969(3) 0.5788(5)
H5_3 H 0.1759 0.3710 0.5277
C11_3 C 0.0151(5) 0.4681(4) 0.7338(5)
C12_3 C 0.1567(5) 0.4580(4) 0.7682(5)
H8_3 H 0.2133 0.4749 0.8462
O1_3 O 0.5899(4) 0.4336(2) 0.1805(3)
O5_3 O 0.7120(3) 0.4536(2) 0.4570(3)
O7_3 O 0.2963(4) 0.4670(3) 0.1177(4)
O8_3 O 0.3580(4) 0.5846(2) 0.1625(4)
O9_3 O 0.1709(5) 0.5581(3) 0.0065(5)
N1_3 N 0.5584(4) 0.3645(2) 0.1294(4)
N3_3 N 0.2729(5) 0.5371(4) 0.0931(4)
C1_3 C 0.6073(6) 0.3008(3) 0.1972(5)
H1_3 H 0.6632 0.3054 0.2802
C2_3 C 0.5752(6) 0.2289(3) 0.1447(5)
H2_3 H 0.6058 0.1851 0.1932
C3_3 C 0.4968(5) 0.2219(3) 0.0188(5)
C6_3 C 0.4818(5) 0.3593(3) 0.0065(5)
C8_3 C 0.9922(5) 0.4072(3) 0.5396(5)
H6_3 H 0.9376 0.3893 0.4615
C9_3 C 0.9296(5) 0.4443(3) 0.6163(5)
C10_3 C 0.7761(5) 0.4627(3) 0.5716(5)
H7_3 H 0.9759 0.4909 0.7890
C4_3 C 0.4687(5) 0.1441(3) 0.9579(5)
C5_3 C 0.4521(6) 0.2886(3) 0.9504(5)
H3_3 H 0.4016 0.2854 0.8657
H4_3 H 0.4495 0.4038 0.9604
O8_4 O 0.6420(4) 0.0846(2) 0.3375(4)
O9_4 O 0.8291(5) 0.0581(3) 0.4935(5)
N3_4 N 0.7271(5) 0.0371(4) 0.4069(4)
O1_4 O 0.4101(4) 0.9336(2) 0.3195(3)
O5_4 O 0.2880(3) 0.9536(2) 0.0430(3)
O7_4 O 0.7037(4) 0.9670(3) 0.3823(4)
N1_4 N 0.4416(4) 0.8645(2) 0.3706(4)
C1_4 C 0.3927(6) 0.8008(3) 0.3028(5)
H1_4 H 0.3368 0.8054 0.2198
C2_4 C 0.4248(6) 0.7289(3) 0.3553(5)
H2_4 H 0.3942 0.6851 0.3068
C3_4 C 0.5032(5) 0.7219(3) 0.4812(5)
C4_4 C 0.5313(5) 0.6441(3) 0.5421(5)
C5_4 C 0.5479(6) 0.7886(3) 0.5496(5)
H3_4 H 0.5984 0.7854 0.6343
C6_4 C 0.5182(5) 0.8593(3) 0.4935(5)
H4_4 H 0.5505 0.9038 0.5396
H6_4 H 0.0624 0.8893 0.0385
C8_4 C 0.0078(5) 0.9072(3) 0.9604(5)
C9_4 C 0.0704(5) 0.9443(3) 0.8837(5)
C10_4 C 0.2239(5) 0.9627(3) 0.9284(5)
H7_4 H 0.0241 0.9909 0.7110
N2_4 N 0.7850(4) 0.9239(2) 0.8094(4)
C7_4 C 0.8653(5) 0.8969(3) 0.9212(5)
H5_4 H 0.8241 0.8710 0.9723
C11_4 C 0.9849(5) 0.9681(4) 0.7662(5)
C12_4 C 0.8433(5) 0.9580(4) 0.7318(5)
H8_4 H 0.7867 0.9749 0.6538
loop_
_geom_bond_atom_site_label_1
_geom_bond_atom_site_label_2
_geom_bond_site_symmetry_1
_geom_bond_site_symmetry_2
O3 C4 1_555 1_555
H3 C5 1_555 1_555
O3 Dy5 1_555 1_555
Dy1 O1 1_555 1_555
O1 N1 1_555 1_555
O5 Dy1 1_555 1_555
O6 C10 1_555 1_555
O7 Dy1 1_555 1_555
O8 Dy1 1_555 1_555
O9 N3 1_555 1_555
N1 C1 1_555 1_555
N3 O7 1_555 1_555
C1 H1 1_555 1_555
C2 C1 1_555 1_555
H2 C2 1_555 1_555
C3 C2 1_555 1_555
C6 N1 1_555 1_555
H6 C8 1_555 1_555
C9 C8 1_555 1_555
C10 O5 1_555 1_555
Dy4 O6 1_555 1_555
O10 Dy1 1_555 1_555
O11 Dy1 1_555 1_555
O12 Dy1 1_555 1_555
O13 Dy1 1_555 1_555
O14 Dy1 1_555 1_555
O8 N3 1_555 1_555
C9 C10 1_555 1_555
Dy4 O10 1_555 1_555
Dy4 O11 1_555 1_555
O4 N2 1_555 1_555
N2 C7 1_555 1_555
C7 H5 1_555 1_555
C12 N2 1_555 1_555
H8 C12 1_555 1_555
Dy4 O4 1_555 1_555
C11 C12 1_555 1_555
O4_2 N2_2 1_555 1_555
N2_2 C7_2 1_555 1_555
C7_2 H5_2 1_555 1_555
C12_2 N2_2 1_555 1_555
H8_2 C12_2 1_555 1_555
C11_2 C12_2 1_555 1_555
O6_2 C10_2 1_555 1_555
C9_2 C8_2 1_555 1_555
C9_2 C10_2 1_555 1_555
Dy2 O1_2 1_555 1_555
O1_2 N1_2 1_555 1_555
O10 C4_2 1_555 1_555
O3_2 C4_2 1_555 1_555
O5_2 Dy2 1_555 1_555
O7_2 Dy2 1_555 1_555
N1_2 C1_2 1_555 1_555
C1_2 H1_2 1_555 1_555
C2_2 C1_2 1_555 1_555
H2_2 C2_2 1_555 1_555
C3_2 C2_2 1_555 1_555
C4_2 C3_2 1_555 1_555
C5_2 C3_2 1_555 1_555
H3_2 C5_2 1_555 1_555
C6_2 N1_2 1_555 1_555
H4_2 C6_2 1_555 1_555
O12_2 Dy2 1_555 1_555
O3_2 Dy4 1_555 1_555
C5_2 C6_2 1_555 1_555
O9_2 N3_2 1_555 1_555
O8_2 N3_2 1_555 1_555
O13 N2_3 1_555 1_555
N2_3 C7_3 1_555 1_555
C7_3 H5_3 1_555 1_555
C12_3 N2_3 1_555 1_555
H8_3 C12_3 1_555 1_555
C11_3 C12_3 1_555 1_555
Dy4 O1_3 1_555 1_555
O1_3 N1_3 1_555 1_555
O5_3 Dy4 1_555 1_555
O14 C10_3 1_555 1_555
O7_3 Dy4 1_555 1_555
O8_3 Dy4 1_555 1_555
O9_3 N3_3 1_555 1_555
N1_3 C1_3 1_555 1_555
N3_3 O7_3 1_555 1_555
C1_3 H1_3 1_555 1_555
C2_3 C1_3 1_555 1_555
H2_3 C2_3 1_555 1_555
C3_3 C2_3 1_555 1_555
C6_3 N1_3 1_555 1_555
H6_3 C8_3 1_555 1_555
C9_3 C8_3 1_555 1_555
C10_3 O5_3 1_555 1_555
O8_3 N3_3 1_555 1_555
C9_3 C10_3 1_555 1_555
O12_2 C4_3 1_555 1_555
H3_3 C5_3 1_555 1_555
O9_4 N3_4 1_555 1_555
O8_4 N3_4 1_555 1_555
Dy5 O1_4 1_555 1_555
O1_4 N1_4 1_555 1_555
O11 C4_4 1_555 1_555
O12 C4_4 1_555 1_555
O5_4 Dy5 1_555 1_555
O7_4 Dy5 1_555 1_555
N1_4 C1_4 1_555 1_555
C1_4 H1_4 1_555 1_555
C2_4 C1_4 1_555 1_555
H2_4 C2_4 1_555 1_555
C3_4 C2_4 1_555 1_555
C4_4 C3_4 1_555 1_555
C5_4 C3_4 1_555 1_555
H3_4 C5_4 1_555 1_555
C6_4 N1_4 1_555 1_555
H4_4 C6_4 1_555 1_555
C5_4 C6_4 1_555 1_555
O14_2 C10_4 1_555 1_555
C9_4 C8_4 1_555 1_555
C9_4 C10_4 1_555 1_555
O13_2 N2_4 1_555 1_555
N2_4 C7_4 1_555 1_555
C7_4 H5_4 1_555 1_555
C12_4 N2_4 1_555 1_555
H8_4 C12_4 1_555 1_555
C11_4 C12_4 1_555 1_555

#END
