
###############################################################################
#
# This file contains modified crystal structure data generated from the
# MOF subset of the Cambridge Structural Database (CSD) v543 
# hosted by the Cambridge Crystallographic Data Centre (CCDC).
#
# This work is licensed under the Creative Commons
# Attribution-NonCommercial-ShareAlike 4.0 International License.
# To view a copy of this license, visit
# http://creativecommons.org/licenses/by-nc-sa/4.0/
# or send a letter to
# Creative Commons, PO Box 1866, Mountain View, CA 94042, USA.
#
# CIF created using the CSD Python API on 29 September 2022
# The structure has been converted into the P1 space group
# The structure has a 3D framework
# The original CSD entry DUPNIO is in the trigonal crystal system
# The framework has been calculated to contain at least 10.0% void space
# The void calculation uses a probe of radius 1.32A, grid spacing 0.4
#
###############################################################################

data_DUPNIO
_chemical_formula_moiety         '(C66 H72 B2 Eu3 O12)n'
_symmetry_cell_setting           triclinic
_symmetry_space_group_name_H-M   'P 1'
_symmetry_Int_Tables_number      1
_space_group_name_Hall           'P 1'
loop_
_symmetry_equiv_pos_site_id
_symmetry_equiv_pos_as_xyz
1 x,y,z
_cell_length_a                   14.5046(9)
_cell_length_b                   14.5046(9)
_cell_length_c                   9.2626(6)
_cell_angle_alpha                90
_cell_angle_beta                 90
_cell_angle_gamma                120
_cell_volume                     1687.62
loop_
_atom_site_label
_atom_site_type_symbol
_atom_site_fract_x
_atom_site_fract_y
_atom_site_fract_z
Eu1 Eu 0.0000 0.0000 0.5000
Eu6 Eu 0.0000 0.0000 0.0000
O7 O 0.1509(3) 0.0937(4) 0.3661(4)
O9 O 0.0572(3) 0.1509(3) 0.6339(4)
Eu6_2 Eu 0.0000 0.0000 1.0000
Eu1_2 Eu 0.0000 1.0000 0.5000
H14 H 0.0156 0.3658 0.4244
H15 H 0.0183 0.2589 0.3916
H26 H 0.0156 0.6498 0.0756
H27 H 0.0183 0.7594 0.1084
Eu6_3 Eu 0.0000 1.0000 0.0000
O11 O 0.0937(4) 0.9428(3) 0.6339(4)
Eu6_4 Eu 0.0000 1.0000 1.0000
Eu1_3 Eu 1.0000 0.0000 0.5000
Eu6_5 Eu 1.0000 0.0000 0.0000
O8 O 0.9063(4) 0.0572(3) 0.3661(4)
Eu6_6 Eu 1.0000 0.0000 1.0000
B1 B 0.6667 0.3333 0.2500
C1 C 0.9011(3) 0.8021(6) 0.2500
C2 C 0.8407(3) 0.6815(6) 0.2500
C3 C 0.7534(3) 0.6280(4) 0.3427(5)
C4 C 0.6982(3) 0.5163(4) 0.3417(4)
C5 C 0.7298(3) 0.4596(6) 0.2500
C6 C 0.7121(5) 0.6872(5) 0.4300(8)
H1 H 0.7340 0.6909 0.5310
H2 H 0.6342 0.6498 0.4244
H3 H 0.7411 0.7594 0.3916
C7 C 0.6133(5) 0.4605(5) 0.4550(7)
H4 H 0.5457 0.4518 0.4198
H5 H 0.6342 0.5032 0.5437
H6 H 0.6050 0.3905 0.4753
Eu1_4 Eu 1.0000 1.0000 0.5000
O1 O 0.9428(3) 0.8491(3) 0.3661(4)
C8 C 0.1979(6) 0.0990(7) 0.2500
C9 C 0.3185(6) 0.1592(7) 0.2500
C10 C 0.3720(4) 0.1254(5) 0.3427(5)
C11 C 0.4837(4) 0.1819(5) 0.3417(4)
C12 C 0.5404(6) 0.2702(7) 0.2500
C13 C 0.3128(5) 0.0249(7) 0.4300(8)
H7 H 0.3091 0.0431 0.5310
C14 C 0.5395(5) 0.1528(7) 0.4550(7)
H10 H 0.5482 0.0939 0.4198
H11 H 0.4968 0.1310 0.5437
H12 H 0.6095 0.2145 0.4753
C15 C 0.9010(7) 0.0989(3) 0.2500
C16 C 0.8408(7) 0.1593(3) 0.2500
C17 C 0.8746(5) 0.2466(3) 0.3427(5)
C18 C 0.8181(5) 0.3018(3) 0.3417(4)
C19 C 0.7298(7) 0.2702(3) 0.2500
C20 C 0.9751(7) 0.2879(5) 0.4300(8)
H13 H 0.9569 0.2660 0.5310
C21 C 0.8472(7) 0.3867(5) 0.4550(7)
H16 H 0.9061 0.4543 0.4198
H17 H 0.8690 0.3658 0.5437
H18 H 0.7855 0.3950 0.4753
C22 C 0.3720(4) 0.2466(3) 0.1573(5)
C23 C 0.4837(4) 0.3018(3) 0.1583(4)
C24 C 0.3128(5) 0.2879(5) 0.0700(8)
H20 H 0.3502 0.3658 0.0756
H21 H 0.2406 0.2589 0.1084
C25 C 0.5395(5) 0.3867(5) 0.0450(7)
H22 H 0.5482 0.4543 0.0802
H24 H 0.6095 0.3950 0.0247
O4 O 0.1509(3) 0.0572(3) 0.1339(4)
C26 C 0.8746(5) 0.6280(4) 0.1573(5)
C27 C 0.8181(5) 0.5163(4) 0.1583(4)
C28 C 0.9751(7) 0.6872(5) 0.0700(8)
C29 C 0.8472(7) 0.4605(5) 0.0450(7)
H28 H 0.9061 0.4518 0.0802
H30 H 0.7855 0.3905 0.0247
O5 O 0.9063(4) 0.8491(3) 0.1339(4)
C30 C 0.7534(3) 0.1254(5) 0.1573(5)
C31 C 0.6982(3) 0.1819(5) 0.1583(4)
C32 C 0.7121(5) 0.0249(7) 0.0700(8)
C33 C 0.6133(5) 0.1528(7) 0.0450(7)
H34 H 0.5457 0.0939 0.0802
H36 H 0.6050 0.2145 0.0247
O6 O 0.9428(3) 0.0937(4) 0.1339(4)
Eu6_7 Eu 1.0000 1.0000 0.0000
O10 O 0.8491(3) 0.9063(4) 0.6339(4)
H19 H 0.3091 0.2660 0.9690
H23 H 0.4968 0.3658 0.9563
H25 H 0.9569 0.6909 0.9690
H29 H 0.8690 0.5032 0.9563
H31 H 0.7340 0.0431 0.9690
H35 H 0.6342 0.1310 0.9563
Eu6_8 Eu 1.0000 1.0000 1.0000
H8 H 0.3502 0.9844 0.4244
H9 H 0.2406 0.9817 0.3916
H32 H 0.6342 0.9844 0.0756
H33 H 0.7411 0.9817 0.1084
O10_2 O 0.0937(4) 0.1509(3) 0.8661(4)
O11_2 O 0.0572(3) 0.9063(4) 0.8661(4)
O9_2 O 0.8491(3) 0.9428(3) 0.8661(4)
H8_2 H 0.6498 0.0156 0.5756
H9_2 H 0.7594 0.0183 0.6084
H32_2 H 0.3658 0.0156 0.9244
H33_2 H 0.2589 0.0183 0.8916
H19_2 H 0.6909 0.7340 0.0310
H23_2 H 0.5032 0.6342 0.0437
H25_2 H 0.0431 0.3091 0.0310
H29_2 H 0.1310 0.4968 0.0437
H31_2 H 0.2660 0.9569 0.0310
H35_2 H 0.3658 0.8690 0.0437
B1_2 B 0.3333 0.6667 0.7500
C1_2 C 0.0989(3) 0.1979(6) 0.7500
C2_2 C 0.1593(3) 0.3185(6) 0.7500
C3_2 C 0.2466(3) 0.3720(4) 0.6573(5)
C4_2 C 0.3018(3) 0.4837(4) 0.6583(4)
C5_2 C 0.2702(3) 0.5404(6) 0.7500
C6_2 C 0.2879(5) 0.3128(5) 0.5700(8)
H1_2 H 0.2660 0.3091 0.4690
H2_2 H 0.3658 0.3502 0.5756
H3_2 H 0.2589 0.2406 0.6084
C7_2 C 0.3867(5) 0.5395(5) 0.5450(7)
H4_2 H 0.4543 0.5482 0.5802
H5_2 H 0.3658 0.4968 0.4563
H6_2 H 0.3950 0.6095 0.5247
C8_2 C 0.8021(6) 0.9010(7) 0.7500
C9_2 C 0.6815(6) 0.8408(7) 0.7500
C10_2 C 0.6280(4) 0.8746(5) 0.6573(5)
C11_2 C 0.5163(4) 0.8181(5) 0.6583(4)
C12_2 C 0.4596(6) 0.7298(7) 0.7500
C13_2 C 0.6872(5) 0.9751(7) 0.5700(8)
H7_2 H 0.6909 0.9569 0.4690
C14_2 C 0.4605(5) 0.8472(7) 0.5450(7)
H10_2 H 0.4518 0.9061 0.5802
H11_2 H 0.5032 0.8690 0.4563
H12_2 H 0.3905 0.7855 0.5247
C15_2 C 0.0990(7) 0.9011(3) 0.7500
C16_2 C 0.1592(7) 0.8407(3) 0.7500
C17_2 C 0.1254(5) 0.7534(3) 0.6573(5)
C18_2 C 0.1819(5) 0.6982(3) 0.6583(4)
C19_2 C 0.2702(7) 0.7298(3) 0.7500
C20_2 C 0.0249(7) 0.7121(5) 0.5700(8)
H13_2 H 0.0431 0.7340 0.4690
C21_2 C 0.1528(7) 0.6133(5) 0.5450(7)
H16_2 H 0.0939 0.5457 0.5802
H17_2 H 0.1310 0.6342 0.4563
H18_2 H 0.2145 0.6050 0.5247
C22_2 C 0.6280(4) 0.7534(3) 0.8427(5)
C23_2 C 0.5163(4) 0.6982(3) 0.8417(4)
C24_2 C 0.6872(5) 0.7121(5) 0.9300(8)
H20_2 H 0.6498 0.6342 0.9244
H21_2 H 0.7594 0.7411 0.8916
C25_2 C 0.4605(5) 0.6133(5) 0.9550(7)
H22_2 H 0.4518 0.5457 0.9198
H24_2 H 0.3905 0.6050 0.9753
C26_2 C 0.1254(5) 0.3720(4) 0.8427(5)
C27_2 C 0.1819(5) 0.4837(4) 0.8417(4)
C28_2 C 0.0249(7) 0.3128(5) 0.9300(8)
C29_2 C 0.1528(7) 0.5395(5) 0.9550(7)
H28_2 H 0.0939 0.5482 0.9198
H30_2 H 0.2145 0.6095 0.9753
C30_2 C 0.2466(3) 0.8746(5) 0.8427(5)
C31_2 C 0.3018(3) 0.8181(5) 0.8417(4)
C32_2 C 0.2879(5) 0.9751(7) 0.9300(8)
C33_2 C 0.3867(5) 0.8472(7) 0.9550(7)
H34_2 H 0.4543 0.9061 0.9198
H36_2 H 0.3950 0.7855 0.9753
H14_2 H 0.9844 0.6342 0.5756
H15_2 H 0.9817 0.7411 0.6084
H26_2 H 0.9844 0.3502 0.9244
H27_2 H 0.9817 0.2406 0.8916
loop_
_geom_bond_atom_site_label_1
_geom_bond_atom_site_label_2
_geom_bond_site_symmetry_1
_geom_bond_site_symmetry_2
O7 Eu1 1_555 1_555
O9 Eu1 1_555 1_555
O11 Eu1_2 1_555 1_555
O8 Eu1_3 1_555 1_555
B1 C5 1_555 1_555
C1 C2 1_555 1_555
C2 C3 1_555 1_555
C3 C4 1_555 1_555
C4 C5 1_555 1_555
C5 C27 1_555 1_555
C6 C3 1_555 1_555
H1 C6 1_555 1_555
H2 C6 1_555 1_555
H3 C6 1_555 1_555
C7 C4 1_555 1_555
H4 C7 1_555 1_555
H5 C7 1_555 1_555
H6 C7 1_555 1_555
Eu1_4 O1 1_555 1_555
O1 C1 1_555 1_555
C8 C9 1_555 1_555
C9 C10 1_555 1_555
C10 C11 1_555 1_555
C11 C12 1_555 1_555
C12 B1 1_555 1_555
C13 C10 1_555 1_555
H7 C13 1_555 1_555
C14 C11 1_555 1_555
H10 C14 1_555 1_555
H11 C14 1_555 1_555
H12 C14 1_555 1_555
O7 C8 1_555 1_555
C15 C16 1_555 1_555
C16 C17 1_555 1_555
C17 C18 1_555 1_555
C18 C19 1_555 1_555
C19 B1 1_555 1_555
C20 C17 1_555 1_555
H13 C20 1_555 1_555
C21 C18 1_555 1_555
H16 C21 1_555 1_555
H17 C21 1_555 1_555
H18 C21 1_555 1_555
O8 C15 1_555 1_555
C22 C9 1_555 1_555
C23 C12 1_555 1_555
C24 C22 1_555 1_555
H20 C24 1_555 1_555
H21 C24 1_555 1_555
C25 C23 1_555 1_555
H22 C25 1_555 1_555
H24 C25 1_555 1_555
O4 C8 1_555 1_555
C26 C2 1_555 1_555
C27 C26 1_555 1_555
C28 C26 1_555 1_555
C29 C27 1_555 1_555
H28 C29 1_555 1_555
H30 C29 1_555 1_555
O5 C1 1_555 1_555
C30 C16 1_555 1_555
C31 C19 1_555 1_555
C32 C30 1_555 1_555
C33 C31 1_555 1_555
H34 C33 1_555 1_555
H36 C33 1_555 1_555
O6 C15 1_555 1_555
Eu6 O4 1_555 1_555
Eu6_5 O6 1_555 1_555
Eu6_7 O5 1_555 1_555
O10 Eu1_4 1_555 1_555
C22 C23 1_555 1_555
C30 C31 1_555 1_555
O10_2 Eu6_2 1_555 1_555
O11_2 Eu6_4 1_555 1_555
O9_2 Eu6_8 1_555 1_555
B1_2 C5_2 1_555 1_555
C1_2 C2_2 1_555 1_555
C2_2 C3_2 1_555 1_555
C3_2 C4_2 1_555 1_555
C4_2 C5_2 1_555 1_555
C5_2 C27_2 1_555 1_555
C6_2 C3_2 1_555 1_555
H1_2 C6_2 1_555 1_555
H2_2 C6_2 1_555 1_555
H3_2 C6_2 1_555 1_555
C7_2 C4_2 1_555 1_555
H4_2 C7_2 1_555 1_555
H5_2 C7_2 1_555 1_555
H6_2 C7_2 1_555 1_555
O9 C1_2 1_555 1_555
C8_2 C9_2 1_555 1_555
C9_2 C10_2 1_555 1_555
C10_2 C11_2 1_555 1_555
C11_2 C12_2 1_555 1_555
C12_2 B1_2 1_555 1_555
C13_2 C10_2 1_555 1_555
H7_2 C13_2 1_555 1_555
C14_2 C11_2 1_555 1_555
H10_2 C14_2 1_555 1_555
H11_2 C14_2 1_555 1_555
H12_2 C14_2 1_555 1_555
O10 C8_2 1_555 1_555
C15_2 C16_2 1_555 1_555
C16_2 C17_2 1_555 1_555
C17_2 C18_2 1_555 1_555
C18_2 C19_2 1_555 1_555
C19_2 B1_2 1_555 1_555
C20_2 C17_2 1_555 1_555
H13_2 C20_2 1_555 1_555
C21_2 C18_2 1_555 1_555
H16_2 C21_2 1_555 1_555
H17_2 C21_2 1_555 1_555
H18_2 C21_2 1_555 1_555
O11 C15_2 1_555 1_555
C22_2 C9_2 1_555 1_555
C23_2 C12_2 1_555 1_555
C24_2 C22_2 1_555 1_555
H20_2 C24_2 1_555 1_555
H21_2 C24_2 1_555 1_555
C25_2 C23_2 1_555 1_555
H22_2 C25_2 1_555 1_555
H24_2 C25_2 1_555 1_555
O9_2 C8_2 1_555 1_555
C26_2 C2_2 1_555 1_555
C27_2 C26_2 1_555 1_555
C28_2 C26_2 1_555 1_555
C29_2 C27_2 1_555 1_555
H28_2 C29_2 1_555 1_555
H30_2 C29_2 1_555 1_555
O10_2 C1_2 1_555 1_555
C30_2 C16_2 1_555 1_555
C31_2 C19_2 1_555 1_555
C32_2 C30_2 1_555 1_555
C33_2 C31_2 1_555 1_555
H34_2 C33_2 1_555 1_555
H36_2 C33_2 1_555 1_555
O11_2 C15_2 1_555 1_555
C22_2 C23_2 1_555 1_555
C30_2 C31_2 1_555 1_555

#END
