
###############################################################################
#
# This file contains modified crystal structure data generated from the
# MOF subset of the Cambridge Structural Database (CSD) v543 
# hosted by the Cambridge Crystallographic Data Centre (CCDC).
#
# This work is licensed under the Creative Commons
# Attribution-NonCommercial-ShareAlike 4.0 International License.
# To view a copy of this license, visit
# http://creativecommons.org/licenses/by-nc-sa/4.0/
# or send a letter to
# Creative Commons, PO Box 1866, Mountain View, CA 94042, USA.
#
# CIF created using the CSD Python API on 29 September 2022
# The structure has been converted into the P1 space group
# The structure has a 3D framework
# The original CSD entry DUQHIJ is in the monoclinic crystal system
# The framework has been calculated to contain at least 10.0% void space
# The void calculation uses a probe of radius 1.32A, grid spacing 0.4
#
###############################################################################

data_DUQHIJ
_chemical_formula_moiety         '(C104 H76 Cd4 N12 O24)n'
_symmetry_cell_setting           triclinic
_symmetry_space_group_name_H-M   'P 1'
_symmetry_Int_Tables_number      1
_space_group_name_Hall           'P 1'
loop_
_symmetry_equiv_pos_site_id
_symmetry_equiv_pos_as_xyz
1 x,y,z
_cell_length_a                   11.8718(9)
_cell_length_b                   17.9778(15)
_cell_length_c                   15.3222(13)
_cell_angle_alpha                90
_cell_angle_beta                 96.405(2)
_cell_angle_gamma                90
_cell_volume                     3249.79
loop_
_atom_site_label
_atom_site_type_symbol
_atom_site_fract_x
_atom_site_fract_y
_atom_site_fract_z
C25 C 0.1001(11) 0.0168(9) 0.8418(11)
H18 H 0.0582 0.0555 0.8141
C26 C 0.2145(10) 0.0199(9) 0.8352(11)
H19 H 0.2470 0.0560 0.8024
N3 N 0.2764(10) 0.9657(7) 0.8804(8)
C22 C 0.2245(10) 0.9059(9) 0.9128(11)
H16 H 0.2636 0.8619 0.9268
C23 C 0.1115(10) 0.9133(10) 0.9240(11)
H17 H 0.0824 0.8803 0.9625
C24 C 0.0371(12) 0.9655(9) 0.8832(11)
Cd2 Cd 0.47986(9) 0.96599(6) 0.87650(7)
H7 H 0.2653 0.0026 0.4341
C20 C 0.8535(10) 0.0197(9) 0.8426(11)
H14 H 0.8848 0.0581 0.8126
C21 C 0.7388(10) 0.0193(9) 0.8518(11)
H15 H 0.7009 0.0634 0.8364
O7 O 0.4761(11) 0.0931(6) 0.8310(7)
O8 O 0.4964(11) 0.0823(6) 0.9768(7)
O9 O 0.5036(11) 0.9177(6) 0.0232(7)
N1 N 0.4923(13) 0.8460(9) 0.4091(8)
H1 H 0.5295 0.8229 0.3724
N2 N 0.6724(10) 0.9638(7) 0.8801(8)
O1 O 0.4578(11) 0.9448(7) 0.7199(7)
O2 O 0.4776(11) 0.8427(7) 0.8029(7)
O3 O 0.5239(11) 0.5931(6) 0.6690(7)
O4 O 0.5036(11) 0.5823(6) 0.5232(7)
C1 C 0.4737(12) 0.8746(10) 0.7279(9)
C2 C 0.5067(13) 0.6240(7) 0.5863(11)
C3 C 0.4825(7) 0.8266(7) 0.6486(7)
C4 C 0.4906(8) 0.7503(7) 0.6556(8)
H3 H 0.4910 0.7276 0.7101
C5 C 0.4983(9) 0.7073(6) 0.5815(8)
C6 C 0.4984(9) 0.7411(7) 0.5010(8)
H4 H 0.5036 0.7120 0.4515
C7 C 0.4909(9) 0.8179(7) 0.4921(7)
C8 C 0.4827(9) 0.8602(7) 0.5676(8)
H5 H 0.4773 0.9117 0.5632
C10 C 0.0709(13) 0.8813(8) 0.3753(7)
C11 C 0.1202(13) 0.9457(8) 0.4094(9)
H6 H 0.0750 0.9818 0.4316
C12 C 0.2342(13) 0.9582(8) 0.4115(10)
C13 C 0.3027(13) 0.9050(8) 0.3801(8)
C14 C 0.2543(13) 0.8407(8) 0.3449(10)
H8 H 0.2999 0.8050 0.3224
C15 C 0.1394(13) 0.8281(9) 0.3422(10)
H9 H 0.1080 0.7843 0.3183
C16 C 0.4275(13) 0.9191(11) 0.3802(11)
H10 H 0.4514 0.9591 0.4206
H11 H 0.4439 0.9335 0.3219
C17 C 0.7431(10) 0.9101(9) 0.9198(11)
H12 H 0.7107 0.8726 0.9505
C18 C 0.8591(11) 0.9082(9) 0.9173(11)
H13 H 0.8981 0.8677 0.9435
C19 C 0.9220(13) 0.9613(9) 0.8791(11)
Cd3 Cd 0.52014(9) 0.46599(6) 0.62350(7)
Cd4 Cd 0.47986(9) 0.53401(6) 0.37650(7)
N1_2 N 0.5077(13) 0.3460(9) 0.0909(8)
H1_2 H 0.4705 0.3229 0.1276
H4_2 H 0.4964 0.2120 0.0485
C7_2 C 0.5091(9) 0.3179(7) 0.0079(7)
C10_2 C 0.9291(13) 0.3813(8) 0.1247(7)
C11_2 C 0.8798(13) 0.4457(8) 0.0906(9)
H6_2 H 0.9250 0.4818 0.0684
C12_2 C 0.7658(13) 0.4582(8) 0.0885(10)
H7_2 H 0.7347 0.5026 0.0659
C13_2 C 0.6973(13) 0.4050(8) 0.1199(8)
C14_2 C 0.7457(13) 0.3407(8) 0.1551(10)
H8_2 H 0.7001 0.3050 0.1776
C15_2 C 0.8606(13) 0.3281(9) 0.1578(10)
H9_2 H 0.8920 0.2843 0.1817
C16_2 C 0.5725(13) 0.4191(11) 0.1198(11)
H10_2 H 0.5486 0.4591 0.0794
H11_2 H 0.5561 0.4335 0.1781
Cd4_2 Cd 0.52014(9) 0.03401(6) 0.12350(7)
N2_2 N 0.3276(10) 0.4638(7) 0.6199(8)
O1_2 O 0.5422(11) 0.4448(7) 0.7801(7)
O2_2 O 0.5224(11) 0.3427(7) 0.6971(7)
C1_2 C 0.5263(12) 0.3746(10) 0.7721(9)
C2_2 C 0.4933(13) 0.1240(7) 0.9137(11)
C3_2 C 0.5175(7) 0.3266(7) 0.8514(7)
C4_2 C 0.5094(8) 0.2503(7) 0.8444(8)
H3_2 H 0.5090 0.2276 0.7899
C5_2 C 0.5017(9) 0.2073(6) 0.9185(8)
C6_2 C 0.5016(9) 0.2411(7) 0.9990(8)
C8_2 C 0.5173(9) 0.3602(7) 0.9324(8)
H5_2 H 0.5227 0.4117 0.9368
C17_2 C 0.2569(10) 0.4101(9) 0.5802(11)
H12_2 H 0.2893 0.3726 0.5495
C18_2 C 0.1409(11) 0.4082(9) 0.5827(11)
H13_2 H 0.1019 0.3677 0.5565
C19_2 C 0.0780(13) 0.4613(9) 0.6209(11)
C20_2 C 0.1465(10) 0.5197(9) 0.6574(11)
H14_2 H 0.1152 0.5581 0.6874
C21_2 C 0.2612(10) 0.5193(9) 0.6482(11)
H15_2 H 0.2991 0.5634 0.6636
N4 N 0.7236(10) 0.4657(7) 0.6196(8)
O9_2 O 0.4964(11) 0.4177(6) 0.4768(7)
C22_2 C 0.7755(10) 0.4059(9) 0.5872(11)
H16_2 H 0.7364 0.3619 0.5732
C23_2 C 0.8885(10) 0.4133(10) 0.5760(11)
H17_2 H 0.9176 0.3803 0.5375
C24_2 C 0.9629(12) 0.4655(9) 0.6168(11)
C25_2 C 0.8999(11) 0.5168(9) 0.6582(11)
H18_2 H 0.9418 0.5555 0.6859
C26_2 C 0.7855(10) 0.5199(9) 0.6648(11)
H19_2 H 0.7530 0.5560 0.6976
N1_3 N 0.5077(13) 0.1540(9) 0.5909(8)
H1_3 H 0.4705 0.1771 0.6276
N2_3 N 0.3276(10) 0.0362(7) 0.1199(8)
O1_3 O 0.5422(11) 0.0552(7) 0.2801(7)
O2_3 O 0.5224(11) 0.1573(7) 0.1971(7)
O3_2 O 0.4761(11) 0.4069(6) 0.3310(7)
C1_3 C 0.5263(12) 0.1254(10) 0.2721(9)
C2_3 C 0.4933(13) 0.3760(7) 0.4137(11)
C3_3 C 0.5175(7) 0.1734(7) 0.3514(7)
C4_3 C 0.5094(8) 0.2497(7) 0.3444(8)
H3_3 H 0.5090 0.2724 0.2899
C5_3 C 0.5017(9) 0.2927(6) 0.4185(8)
C6_3 C 0.5016(9) 0.2589(7) 0.4990(8)
H4_3 H 0.4964 0.2880 0.5485
C7_3 C 0.5091(9) 0.1821(7) 0.5079(7)
C8_3 C 0.5173(9) 0.1398(7) 0.4324(8)
H5_3 H 0.5227 0.0883 0.4368
C10_3 C 0.9291(13) 0.1187(8) 0.6247(7)
C11_3 C 0.8798(13) 0.0543(8) 0.5906(9)
H6_3 H 0.9250 0.0182 0.5684
C12_3 C 0.7658(13) 0.0418(8) 0.5885(10)
C13_3 C 0.6973(13) 0.0950(8) 0.6199(8)
C14_3 C 0.7457(13) 0.1593(8) 0.6551(10)
H8_3 H 0.7001 0.1950 0.6776
C15_3 C 0.8606(13) 0.1719(9) 0.6578(10)
H9_3 H 0.8920 0.2157 0.6817
C16_3 C 0.5725(13) 0.0809(11) 0.6198(11)
H10_3 H 0.5486 0.0409 0.5794
H11_3 H 0.5561 0.0665 0.6781
C17_3 C 0.2569(10) 0.0899(9) 0.0802(11)
H12_3 H 0.2893 0.1274 0.0495
C18_3 C 0.1409(11) 0.0918(9) 0.0827(11)
H13_3 H 0.1019 0.1323 0.0565
C19_3 C 0.0780(13) 0.0387(9) 0.1209(11)
N4_2 N 0.7236(10) 0.0343(7) 0.1196(8)
H7_3 H 0.7347 0.9974 0.5659
C20_3 C 0.1465(10) 0.9803(9) 0.1574(11)
H14_3 H 0.1152 0.9419 0.1874
C21_3 C 0.2612(10) 0.9807(9) 0.1482(11)
H15_3 H 0.2991 0.9366 0.1636
O7_2 O 0.5239(11) 0.9069(6) 0.1690(7)
C22_3 C 0.7755(10) 0.0941(9) 0.0872(11)
H16_3 H 0.7364 0.1381 0.0732
C23_3 C 0.8885(10) 0.0867(10) 0.0760(11)
H17_3 H 0.9176 0.1197 0.0375
C24_3 C 0.9629(12) 0.0345(9) 0.1168(11)
N3_2 N 0.2764(10) 0.5343(7) 0.3804(8)
C22_4 C 0.2245(10) 0.5941(9) 0.4128(11)
H16_4 H 0.2636 0.6381 0.4268
C23_4 C 0.1115(10) 0.5867(10) 0.4240(11)
H17_4 H 0.0824 0.6197 0.4625
C24_4 C 0.0371(12) 0.5345(9) 0.3832(11)
C25_3 C 0.1001(11) 0.4832(9) 0.3418(11)
H18_3 H 0.0582 0.4445 0.3141
C26_3 C 0.2145(10) 0.4801(9) 0.3352(11)
H19_3 H 0.2470 0.4440 0.3024
N2_4 N 0.6724(10) 0.5362(7) 0.3801(8)
O1_4 O 0.4578(11) 0.5552(7) 0.2199(7)
O2_4 O 0.4776(11) 0.6573(7) 0.3029(7)
C1_4 C 0.4737(12) 0.6254(10) 0.2279(9)
C2_4 C 0.5067(13) 0.8760(7) 0.0863(11)
C3_4 C 0.4825(7) 0.6734(7) 0.1486(7)
C4_4 C 0.4906(8) 0.7497(7) 0.1556(8)
H3_4 H 0.4910 0.7724 0.2101
C5_4 C 0.4983(9) 0.7927(6) 0.0815(8)
C6_4 C 0.4984(9) 0.7589(7) 0.0010(8)
C8_4 C 0.4827(9) 0.6398(7) 0.0676(8)
H5_4 H 0.4773 0.5883 0.0632
C17_4 C 0.7431(10) 0.5899(9) 0.4198(11)
H12_4 H 0.7107 0.6274 0.4505
C18_4 C 0.8591(11) 0.5918(9) 0.4173(11)
H13_4 H 0.8981 0.6323 0.4435
C19_4 C 0.9220(13) 0.5387(9) 0.3791(11)
C20_4 C 0.8535(10) 0.4803(9) 0.3426(11)
H14_4 H 0.8848 0.4419 0.3126
C21_4 C 0.7388(10) 0.4807(9) 0.3518(11)
H15_4 H 0.7009 0.4366 0.3364
N1_4 N 0.4923(13) 0.6540(9) 0.9091(8)
H1_4 H 0.5295 0.6771 0.8724
H4_4 H 0.5036 0.7880 0.9515
C7_4 C 0.4909(9) 0.6821(7) 0.9921(7)
C10_4 C 0.0709(13) 0.6187(8) 0.8753(7)
C11_4 C 0.1202(13) 0.5543(8) 0.9094(9)
H6_4 H 0.0750 0.5182 0.9316
C12_4 C 0.2342(13) 0.5418(8) 0.9115(10)
H7_4 H 0.2653 0.4974 0.9341
C13_4 C 0.3027(13) 0.5950(8) 0.8801(8)
C14_4 C 0.2543(13) 0.6593(8) 0.8449(10)
H8_4 H 0.2999 0.6950 0.8224
C15_4 C 0.1394(13) 0.6719(9) 0.8422(10)
H9_4 H 0.1080 0.7157 0.8183
C16_4 C 0.4275(13) 0.5809(11) 0.8802(11)
H10_4 H 0.4514 0.5409 0.9206
H11_4 H 0.4439 0.5665 0.8219
O5 O 0.8866(18) 0.9293(11) 0.4000(11)
H2 H 0.8189 0.9190 0.3968
O6 O 0.8913(19) 0.8201(11) 0.3359(12)
C9 C 0.9463(14) 0.8682(12) 0.3734(11)
O5_2 O 0.1134(18) 0.4293(11) 0.1000(11)
H2_2 H 0.1811 0.4190 0.1032
O6_2 O 0.1087(19) 0.3201(11) 0.1641(12)
C9_2 C 0.0537(14) 0.3682(12) 0.1266(11)
O5_3 O 0.1134(18) 0.0707(11) 0.6000(11)
H2_3 H 0.1811 0.0810 0.6032
O6_3 O 0.1087(19) 0.1799(11) 0.6641(12)
C9_3 C 0.0537(14) 0.1318(12) 0.6266(11)
C25_4 C 0.8999(11) 0.9832(9) 0.1582(11)
H18_4 H 0.9418 0.9445 0.1859
C26_4 C 0.7855(10) 0.9801(9) 0.1648(11)
H19_4 H 0.7530 0.9440 0.1976
O5_4 O 0.8866(18) 0.5707(11) 0.9000(11)
H2_4 H 0.8189 0.5810 0.8968
O6_4 O 0.8913(19) 0.6799(11) 0.8359(12)
C9_4 C 0.9463(14) 0.6318(12) 0.8734(11)
loop_
_geom_bond_atom_site_label_1
_geom_bond_atom_site_label_2
_geom_bond_site_symmetry_1
_geom_bond_site_symmetry_2
H18 C25 1_555 1_555
H19 C26 1_555 1_555
C25 C26 1_555 1_555
N3 C22 1_555 1_555
C22 H16 1_555 1_555
C23 C22 1_555 1_555
H17 C23 1_555 1_555
Cd2 N3 1_555 1_555
C23 C24 1_555 1_555
H14 C20 1_555 1_555
H15 C21 1_555 1_555
C20 C21 1_555 1_555
Cd2 N2 1_555 1_555
N1 H1 1_555 1_555
N2 C17 1_555 1_555
O1 Cd2 1_555 1_555
O2 Cd2 1_555 1_555
O3 C2 1_555 1_555
O4 C2 1_555 1_555
C1 O1 1_555 1_555
C2 C5 1_555 1_555
C3 C1 1_555 1_555
C4 C3 1_555 1_555
H3 C4 1_555 1_555
C5 C4 1_555 1_555
C6 C5 1_555 1_555
H4 C6 1_555 1_555
C7 N1 1_555 1_555
C8 C3 1_555 1_555
H5 C8 1_555 1_555
C11 C10 1_555 1_555
H6 C11 1_555 1_555
C12 C11 1_555 1_555
C13 C12 1_555 1_555
C14 C13 1_555 1_555
H8 C14 1_555 1_555
C15 C10 1_555 1_555
H9 C15 1_555 1_555
C16 N1 1_555 1_555
H10 C16 1_555 1_555
H11 C16 1_555 1_555
C17 H12 1_555 1_555
C18 C17 1_555 1_555
H13 C18 1_555 1_555
C19 C18 1_555 1_555
Cd3 O3 1_555 1_555
Cd4 O4 1_555 1_555
O2 C1 1_555 1_555
O4 Cd3 1_555 1_555
C6 C7 1_555 1_555
C7 C8 1_555 1_555
C13 C16 1_555 1_555
C14 C15 1_555 1_555
N1_2 H1_2 1_555 1_555
C7_2 N1_2 1_555 1_555
C11_2 C10_2 1_555 1_555
H6_2 C11_2 1_555 1_555
C12_2 C11_2 1_555 1_555
H7_2 C12_2 1_555 1_555
C13_2 C12_2 1_555 1_555
C14_2 C13_2 1_555 1_555
H8_2 C14_2 1_555 1_555
C15_2 C10_2 1_555 1_555
H9_2 C15_2 1_555 1_555
C16_2 N1_2 1_555 1_555
H10_2 C16_2 1_555 1_555
H11_2 C16_2 1_555 1_555
C13_2 C16_2 1_555 1_555
C14_2 C15_2 1_555 1_555
Cd3 N2_2 1_555 1_555
N2_2 C17_2 1_555 1_555
O1_2 Cd3 1_555 1_555
O2_2 Cd3 1_555 1_555
O7 C2_2 1_555 1_555
O8 C2_2 1_555 1_555
C1_2 O1_2 1_555 1_555
C2_2 C5_2 1_555 1_555
C3_2 C1_2 1_555 1_555
C4_2 C3_2 1_555 1_555
H3_2 C4_2 1_555 1_555
C5_2 C4_2 1_555 1_555
C6_2 C5_2 1_555 1_555
C8_2 C3_2 1_555 1_555
H5_2 C8_2 1_555 1_555
C17_2 H12_2 1_555 1_555
C18_2 C17_2 1_555 1_555
H13_2 C18_2 1_555 1_555
C19_2 C18_2 1_555 1_555
C20_2 C19_2 1_555 1_555
H14_2 C20_2 1_555 1_555
C21_2 N2_2 1_555 1_555
H15_2 C21_2 1_555 1_555
N4 Cd3 1_555 1_555
O9_2 Cd3 1_555 1_555
O2_2 C1_2 1_555 1_555
C20_2 C21_2 1_555 1_555
N4 C22_2 1_555 1_555
C22_2 H16_2 1_555 1_555
C23_2 C22_2 1_555 1_555
H17_2 C23_2 1_555 1_555
C25_2 C24_2 1_555 1_555
H18_2 C25_2 1_555 1_555
C26_2 N4 1_555 1_555
H19_2 C26_2 1_555 1_555
C23_2 C24_2 1_555 1_555
C25_2 C26_2 1_555 1_555
Cd4_2 N2_3 1_555 1_555
N1_3 H1_3 1_555 1_555
N2_3 C17_3 1_555 1_555
O1_3 Cd4_2 1_555 1_555
O2_3 Cd4_2 1_555 1_555
O3_2 C2_3 1_555 1_555
O9_2 C2_3 1_555 1_555
C1_3 O1_3 1_555 1_555
C2_3 C5_3 1_555 1_555
C3_3 C1_3 1_555 1_555
C4_3 C3_3 1_555 1_555
H3_3 C4_3 1_555 1_555
C5_3 C4_3 1_555 1_555
C6_3 C5_3 1_555 1_555
H4_3 C6_3 1_555 1_555
C7_3 N1_3 1_555 1_555
C8_3 C3_3 1_555 1_555
H5_3 C8_3 1_555 1_555
C11_3 C10_3 1_555 1_555
H6_3 C11_3 1_555 1_555
C12_3 C11_3 1_555 1_555
C13_3 C12_3 1_555 1_555
C14_3 C13_3 1_555 1_555
H8_3 C14_3 1_555 1_555
C15_3 C10_3 1_555 1_555
H9_3 C15_3 1_555 1_555
C16_3 N1_3 1_555 1_555
H10_3 C16_3 1_555 1_555
H11_3 C16_3 1_555 1_555
C17_3 H12_3 1_555 1_555
C18_3 C17_3 1_555 1_555
H13_3 C18_3 1_555 1_555
C19_3 C18_3 1_555 1_555
Cd4 O3_2 1_555 1_555
N4_2 Cd4_2 1_555 1_555
O2_3 C1_3 1_555 1_555
O9_2 Cd4 1_555 1_555
C6_3 C7_3 1_555 1_555
C7_3 C8_3 1_555 1_555
C13_3 C16_3 1_555 1_555
C14_3 C15_3 1_555 1_555
H14_3 C20_3 1_555 1_555
H15_3 C21_3 1_555 1_555
C20_3 C21_3 1_555 1_555
N4_2 C22_3 1_555 1_555
C22_3 H16_3 1_555 1_555
C23_3 C22_3 1_555 1_555
H17_3 C23_3 1_555 1_555
C23_3 C24_3 1_555 1_555
N3_2 C22_4 1_555 1_555
C22_4 H16_4 1_555 1_555
C23_4 C22_4 1_555 1_555
H17_4 C23_4 1_555 1_555
C25_3 C24_4 1_555 1_555
H18_3 C25_3 1_555 1_555
C26_3 N3_2 1_555 1_555
H19_3 C26_3 1_555 1_555
Cd4 N3_2 1_555 1_555
C23_4 C24_4 1_555 1_555
C25_3 C26_3 1_555 1_555
Cd4 N2_4 1_555 1_555
N2_4 C17_4 1_555 1_555
O1_4 Cd4 1_555 1_555
O2_4 Cd4 1_555 1_555
O7_2 C2_4 1_555 1_555
O9 C2_4 1_555 1_555
C1_4 O1_4 1_555 1_555
C2_4 C5_4 1_555 1_555
C3_4 C1_4 1_555 1_555
C4_4 C3_4 1_555 1_555
H3_4 C4_4 1_555 1_555
C5_4 C4_4 1_555 1_555
C6_4 C5_4 1_555 1_555
C8_4 C3_4 1_555 1_555
H5_4 C8_4 1_555 1_555
C17_4 H12_4 1_555 1_555
C18_4 C17_4 1_555 1_555
H13_4 C18_4 1_555 1_555
C19_4 C18_4 1_555 1_555
C20_4 C19_4 1_555 1_555
H14_4 C20_4 1_555 1_555
C21_4 N2_4 1_555 1_555
H15_4 C21_4 1_555 1_555
O2_4 C1_4 1_555 1_555
C20_4 C21_4 1_555 1_555
N1_4 H1_4 1_555 1_555
C7_4 N1_4 1_555 1_555
C11_4 C10_4 1_555 1_555
H6_4 C11_4 1_555 1_555
C12_4 C11_4 1_555 1_555
H7_4 C12_4 1_555 1_555
C13_4 C12_4 1_555 1_555
C14_4 C13_4 1_555 1_555
H8_4 C14_4 1_555 1_555
C15_4 C10_4 1_555 1_555
H9_4 C15_4 1_555 1_555
C16_4 N1_4 1_555 1_555
H10_4 C16_4 1_555 1_555
H11_4 C16_4 1_555 1_555
C13_4 C16_4 1_555 1_555
C14_4 C15_4 1_555 1_555
O5 H2 1_555 1_555
O6 C9 1_555 1_555
C9 O5 1_555 1_555
O5_2 H2_2 1_555 1_555
O6_2 C9_2 1_555 1_555
C9_2 O5_2 1_555 1_555
O5_3 H2_3 1_555 1_555
O6_3 C9_3 1_555 1_555
C9_3 O5_3 1_555 1_555
H18_4 C25_4 1_555 1_555
H19_4 C26_4 1_555 1_555
C25_4 C26_4 1_555 1_555
O5_4 H2_4 1_555 1_555
O6_4 C9_4 1_555 1_555
C9_4 O5_4 1_555 1_555

#END
