
###############################################################################
#
# This file contains modified crystal structure data generated from the
# MOF subset of the Cambridge Structural Database (CSD) v543 
# hosted by the Cambridge Crystallographic Data Centre (CCDC).
#
# This work is licensed under the Creative Commons
# Attribution-NonCommercial-ShareAlike 4.0 International License.
# To view a copy of this license, visit
# http://creativecommons.org/licenses/by-nc-sa/4.0/
# or send a letter to
# Creative Commons, PO Box 1866, Mountain View, CA 94042, USA.
#
# CIF created using the CSD Python API on 29 September 2022
# The structure has been converted into the P1 space group
# The structure has a 3D framework
# The original CSD entry DUQNIP is in the triclinic crystal system
# The framework has been calculated to contain at least 10.0% void space
# The void calculation uses a probe of radius 1.32A, grid spacing 0.4
# H atom positions have been added when not included in the experimental data
# Generated hydrogen atom positions removed from atoms on special positions
#
###############################################################################

data_DUQNIP
_chemical_formula_moiety         '(C88 H52 O33 Tb3)n'
_symmetry_cell_setting           triclinic
_symmetry_space_group_name_H-M   'P 1'
_symmetry_Int_Tables_number      1
_space_group_name_Hall           'P 1'
loop_
_symmetry_equiv_pos_site_id
_symmetry_equiv_pos_as_xyz
1 x,y,z
_cell_length_a                   10.9618(6)
_cell_length_b                   16.0608(9)
_cell_length_c                   19.6289(13)
_cell_angle_alpha                74.135(4)
_cell_angle_beta                 74.305(3)
_cell_angle_gamma                72.110(3)
_cell_volume                     3097.03
loop_
_atom_site_label
_atom_site_type_symbol
_atom_site_fract_x
_atom_site_fract_y
_atom_site_fract_z
_atom_site_U_iso_or_equiv
_atom_site_thermal_displace_type
Tb6 Tb 0.10326(3) 0.09731(2) 0.26126(2) 0.0219 Uani
O6 O 0.1831(6) 0.1253(4) 0.1286(3) 0.0350 Uani
O8 O 0.0760(6) 0.2009(4) 0.3386(3) 0.0393 Uani
O14 O 0.1700(5) 0.2335(3) 0.1804(3) 0.0289 Uani
C1 C 0.4919(14) 0.4297(8) 0.0550(6) 0.0715 Uani
H1 H 0.4856 0.3820 0.0942 0.0850 Uiso
C17 C 0.2025(7) 0.2003(5) 0.1255(4) 0.0289 Uani
C32 C 0.2717(7) 0.2469(5) 0.0553(4) 0.0300 Uani
C37 C 0.3213(9) 0.3172(6) 0.0562(4) 0.0401 Uani
H16 H 0.3092 0.3345 0.0996 0.0480 Uiso
H17 H 0.0217 0.3237 0.4047 0.0500 Uiso
O19 O 0.6377(5) 0.8374(4) 0.1422(3) 0.0319 Uani
O21 O 0.5902(5) 0.7096(3) 0.2013(3) 0.0306 Uani
C47 C 0.6229(7) 0.7618(5) 0.1432(4) 0.0263 Uani
C48 C 0.5947(9) 0.6647(6) 0.0716(4) 0.0390 Uani
H22 H 0.5500 0.6356 0.1142 0.0460 Uiso
C49 C 0.7080(8) 0.7802(5) 0.0085(4) 0.0318 Uani
H23 H 0.7366 0.8289 0.0088 0.0380 Uiso
C50 C 0.6446(7) 0.7344(5) 0.0729(4) 0.0308 Uani
C52 C 0.5520(10) 0.5679(6) 0.0035(4) 0.0450 Uani
C54 C 0.6113(9) 0.6385(6) 0.0073(4) 0.0395 Uani
C55 C 0.5460(14) 0.4950(8) 0.0597(6) 0.0726 Uani
H25 H 0.5780 0.4895 0.1004 0.0870 Uiso
O24 O 0.3575(5) 0.8505(4) 0.3728(3) 0.0360 Uani
O25 O 0.4458(6) 0.7100(4) 0.3603(3) 0.0387 Uani
O26 O 0.0820(5) 0.8693(4) 0.6279(3) 0.0369 Uani
C56 C 0.3576(7) 0.7678(5) 0.3912(4) 0.0323 Uani
C57 C 0.2506(7) 0.7402(5) 0.4511(4) 0.0323 Uani
C58 C 0.0294(8) 0.8140(5) 0.6200(4) 0.0330 Uani
C59 C 0.0920(8) 0.7633(5) 0.5606(4) 0.0365 Uani
C60 C 0.2061(8) 0.6675(6) 0.4507(4) 0.0401 Uani
H26 H 0.2455 0.6354 0.4141 0.0480 Uiso
C61 C 0.1930(8) 0.7876(5) 0.5058(4) 0.0342 Uani
H27 H 0.2222 0.8362 0.5058 0.0410 Uiso
C62 C 0.0472(9) 0.6918(6) 0.5591(5) 0.0414 Uani
C63 C 0.0487(10) 0.5696(6) 0.5017(5) 0.0487 Uani
C64 C 0.1037(9) 0.6426(6) 0.5043(5) 0.0431 Uani
C65 C 0.0101(12) 0.5116(7) 0.5656(5) 0.0574 Uani
H29 H 0.0176 0.5185 0.6098 0.0690 Uiso
C66 C 0.0396(12) 0.5567(7) 0.4375(6) 0.0581 Uani
H30 H 0.0675 0.5946 0.3947 0.0700 Uiso
O31 O 0.2263(5) 0.1369(3) 0.7517(3) 0.0380 Uani
O33 O 0.2193(5) 0.2808(3) 0.7244(4) 0.0413 Uani
C71 C 0.1618(6) 0.2180(5) 0.7411(4) 0.0277 Uani
H33 H 0.0032 0.1134 0.7604 0.0310 Uiso
C75 C 0.0155(6) 0.2397(5) 0.7491(4) 0.0252 Uani
Tb12 Tb 0.55773(3) 0.82299(2) 0.27401(2) 0.0221 Uani
Tb15 Tb 0.44227(3) 0.17701(2) 0.72599(2) 0.0221 Uani
O57 O 0.3211(5) 0.0728(4) 0.2626(4) 0.0456 Uani
H42 H 0.112872 0.0159469 0.414794 . .
O3 O 0.3623(5) 0.1626(4) 0.8578(3) 0.0319 Uani
O7 O 0.4098(5) 0.2904(3) 0.7987(3) 0.0306 Uani
C19 C 0.3771(7) 0.2382(5) 0.8568(4) 0.0263 Uani
C24 C 0.4053(9) 0.3353(6) 0.9284(4) 0.0390 Uani
H10 H 0.4500 0.3644 0.8858 0.0460 Uiso
C29 C 0.2920(8) 0.2198(5) 0.9915(4) 0.0318 Uani
H13 H 0.2634 0.1711 0.9912 0.0380 Uiso
C30 C 0.3554(7) 0.2656(5) 0.9271(4) 0.0308 Uani
C35 C 0.4480(10) 0.4321(6) 0.9965(4) 0.0450 Uani
C40 C 0.3887(9) 0.3615(6) 0.9927(4) 0.0395 Uani
C44 C 0.4540(14) 0.5050(8) 0.9403(6) 0.0726 Uani
H20 H 0.4220 0.5105 0.8996 0.0870 Uiso
O20 O 0.8169(6) 0.8747(4) 0.8714(3) 0.0350 Uani
O22 O 0.8300(5) 0.7665(3) 0.8196(3) 0.0289 Uani
C45 C 0.5081(14) 0.5703(8) 0.9450(6) 0.0715 Uani
H21 H 0.5144 0.6180 0.9058 0.0850 Uiso
C46 C 0.7975(7) 0.7997(5) 0.8745(4) 0.0289 Uani
C51 C 0.7283(7) 0.7531(5) 0.9447(4) 0.0300 Uani
C53 C 0.6787(9) 0.6828(6) 0.9438(4) 0.0401 Uani
H24 H 0.6908 0.6655 0.9004 0.0480 Uiso
Tb9 Tb 0.89674(3) 0.90269(2) 0.73874(2) 0.0219 Uani
O1 O 0.1768(5) 0.9558(3) 0.2285(3) 0.0332 Uani
O2 O 0.3685(5) 0.8580(3) 0.2231(3) 0.0325 Uani
O4 O 0.1353(7) 0.9851(5) 0.3739(4) 0.0625 Uani
O5 O 0.6166(7) 0.8060(7) 0.3926(4) 0.0767 Uani
O13 O 0.9075(5) 0.2060(4) 0.2193(3) 0.0375 Uani
O16 O 0.9062(5) 0.0636(4) 0.2498(3) 0.0381 Uani
C2 C 0.1935(7) 0.6493(5) 0.2476(4) 0.0300 Uani
C3 C 0.4424(7) 0.0523(4) 0.2573(4) 0.0252 Uani
C4 C 0.2534(6) 0.7180(4) 0.2384(4) 0.0244 Uani
H2 H 0.3437 0.7046 0.2335 0.0290 Uiso
C5 C 0.8468(7) 0.1466(5) 0.2344(4) 0.0266 Uani
C7 C 0.0575(6) 0.6723(5) 0.2542(4) 0.0248 Uani
H3 H 0.0151 0.6277 0.2609 0.0300 Uiso
C8 C 0.0455(6) 0.8275(4) 0.2420(4) 0.0255 Uani
C9 C 0.4929(6) 0.2803(5) 0.2482(4) 0.0253 Uani
C11 C 0.5061(6) 0.1251(4) 0.2517(4) 0.0238 Uani
C12 C 0.2696(7) 0.5553(5) 0.2488(4) 0.0270 Uani
C13 C 0.4162(6) 0.3733(4) 0.2504(4) 0.0250 Uani
C14 C 0.6412(7) 0.1039(4) 0.2443(4) 0.0278 Uani
H5 H 0.6902 0.0455 0.2428 0.0330 Uiso
C15 C 0.2464(6) 0.8796(4) 0.2292(4) 0.0208 Uani
C16 C 0.6293(6) 0.2575(4) 0.2398(4) 0.0262 Uani
H6 H 0.6714 0.3018 0.2345 0.0320 Uiso
C18 C 0.7036(7) 0.1696(5) 0.2391(4) 0.0263 Uani
C20 C 0.2178(7) 0.4909(5) 0.2384(5) 0.0332 Uani
H7 H 0.1325 0.5078 0.2310 0.0400 Uiso
C21 C 0.4668(8) 0.4360(5) 0.2633(5) 0.0376 Uani
H8 H 0.5506 0.4180 0.2730 0.0450 Uiso
C22 C 0.1806(6) 0.8058(4) 0.2365(4) 0.0224 Uani
C23 C 0.4328(6) 0.2122(4) 0.2538(4) 0.0256 Uani
H9 H 0.3424 0.2258 0.2591 0.0310 Uiso
C26 C 0.2890(7) 0.4037(5) 0.2387(5) 0.0330 Uani
H11 H 0.2507 0.3638 0.2308 0.0400 Uiso
C28 C 0.3960(8) 0.5251(5) 0.2622(5) 0.0375 Uani
H12 H 0.4340 0.5648 0.2705 0.0450 Uiso
O43 O 0.7737(5) 0.8631(3) 0.2483(3) 0.0380 Uani
O49 O 0.0925(5) 0.7940(4) 0.7807(3) 0.0375 Uani
O51 O 0.7807(5) 0.7192(3) 0.2756(4) 0.0413 Uani
O54 O 0.0938(5) 0.9364(4) 0.7502(3) 0.0381 Uani
O55 O 0.5131(5) 0.9761(4) 0.2564(4) 0.0465 Uani
H41 H 0.228159 0.950087 0.368356 . .
O35 O 0.4869(5) 0.0239(4) 0.7436(4) 0.0465 Uani
O10 O 0.6425(5) 0.1495(4) 0.6272(3) 0.0360 Uani
O11 O 0.5542(6) 0.2900(4) 0.6397(3) 0.0387 Uani
O12 O 0.9180(5) 0.1307(4) 0.3721(3) 0.0369 Uani
C25 C 0.6424(7) 0.2322(5) 0.6088(4) 0.0323 Uani
C27 C 0.7494(7) 0.2598(5) 0.5489(4) 0.0323 Uani
C31 C 0.9706(8) 0.1860(5) 0.3800(4) 0.0330 Uani
C33 C 0.9080(8) 0.2367(5) 0.4394(4) 0.0365 Uani
C34 C 0.7939(8) 0.3325(6) 0.5493(4) 0.0401 Uani
H14 H 0.7545 0.3646 0.5859 0.0480 Uiso
C36 C 0.8070(8) 0.2124(5) 0.4942(4) 0.0342 Uani
H15 H 0.7778 0.1638 0.4942 0.0410 Uiso
C38 C 0.9528(9) 0.3082(6) 0.4409(5) 0.0414 Uani
C39 C 0.9513(10) 0.4304(6) 0.4983(5) 0.0487 Uani
C41 C 0.8963(9) 0.3574(6) 0.4957(5) 0.0431 Uani
C42 C 0.9899(12) 0.4884(7) 0.4344(5) 0.0574 Uani
H18 H 0.9824 0.4815 0.3902 0.0690 Uiso
C43 C 0.9604(12) 0.4433(7) 0.5625(6) 0.0581 Uani
H19 H 0.9325 0.4054 0.6053 0.0700 Uiso
O23 O 0.9240(6) 0.7991(4) 0.6614(3) 0.0393 Uani
H28 H 0.9783 0.6763 0.5953 0.0500 Uiso
O27 O 0.8232(5) 0.0442(3) 0.7715(3) 0.0332 Uani
O28 O 0.6315(5) 0.1420(3) 0.7769(3) 0.0325 Uani
O29 O 0.8647(7) 0.0149(5) 0.6261(4) 0.0625 Uani
O30 O 0.3834(7) 0.1940(7) 0.6074(4) 0.0767 Uani
O36 O 0.6789(5) 0.9272(4) 0.7374(4) 0.0456 Uani
C67 C 0.8065(7) 0.3507(5) 0.7524(4) 0.0300 Uani
C68 C 0.5576(7) 0.9477(4) 0.7427(4) 0.0252 Uani
C69 C 0.7466(6) 0.2820(4) 0.7616(4) 0.0244 Uani
H31 H 0.6563 0.2954 0.7665 0.0290 Uiso
C70 C 0.1532(7) 0.8534(5) 0.7656(4) 0.0266 Uani
C72 C 0.9425(6) 0.3277(5) 0.7458(4) 0.0248 Uani
H32 H 0.9849 0.3723 0.7391 0.0300 Uiso
C73 C 0.9545(6) 0.1725(4) 0.7580(4) 0.0255 Uani
C74 C 0.5071(6) 0.7197(5) 0.7518(4) 0.0253 Uani
C76 C 0.4939(6) 0.8749(4) 0.7483(4) 0.0238 Uani
C77 C 0.7304(7) 0.4447(5) 0.7512(4) 0.0270 Uani
C78 C 0.5838(6) 0.6267(4) 0.7496(4) 0.0250 Uani
C79 C 0.3588(7) 0.8961(4) 0.7557(4) 0.0278 Uani
H34 H 0.3098 0.9545 0.7572 0.0330 Uiso
C80 C 0.7536(6) 0.1204(4) 0.7708(4) 0.0208 Uani
C81 C 0.3707(6) 0.7425(4) 0.7602(4) 0.0262 Uani
H35 H 0.3286 0.6982 0.7655 0.0320 Uiso
C82 C 0.2964(7) 0.8304(5) 0.7609(4) 0.0263 Uani
C83 C 0.7822(7) 0.5091(5) 0.7616(5) 0.0332 Uani
H36 H 0.8675 0.4922 0.7690 0.0400 Uiso
C84 C 0.5332(8) 0.5640(5) 0.7367(5) 0.0376 Uani
H37 H 0.4494 0.5820 0.7270 0.0450 Uiso
C85 C 0.8194(6) 0.1942(4) 0.7635(4) 0.0224 Uani
C86 C 0.5672(6) 0.7878(4) 0.7462(4) 0.0256 Uani
H38 H 0.6576 0.7742 0.7409 0.0310 Uiso
C87 C 0.7110(7) 0.5963(5) 0.7613(5) 0.0330 Uani
H39 H 0.7493 0.6362 0.7692 0.0400 Uiso
C88 C 0.6040(8) 0.4749(5) 0.7378(5) 0.0375 Uani
H40 H 0.5660 0.4352 0.7295 0.0450 Uiso
H45 H 0.922263 0.0558025 0.616209 . .
C6 C 0.8382(6) 0.7820(5) 0.2589(4) 0.0277 Uani
H4 H 0.9968 0.8866 0.2396 0.0310 Uiso
C10 C 0.9845(6) 0.7603(5) 0.2509(4) 0.0252 Uani
H46 H 0.887128 0.984053 0.585206 . .
H45_2 H 0.0777374 0.944198 0.383791 . .
H41_2 H 0.771841 0.0499131 0.631644 . .
loop_
_atom_site_aniso_label
_atom_site_aniso_U_11
_atom_site_aniso_U_22
_atom_site_aniso_U_33
_atom_site_aniso_U_23
_atom_site_aniso_U_13
_atom_site_aniso_U_12
Tb6 0.00999 0.01909 0.0371 -0.00886 -0.00041 -0.00563
O6 0.033 0.032 0.043 -0.011 0.002 -0.018
O8 0.033 0.042 0.046 -0.023 0.012 -0.019
O14 0.026 0.029 0.035 -0.008 0 -0.016
C1 0.116 0.079 0.043 -0.008 0.001 -0.077
C17 0.023 0.028 0.038 -0.01 0.001 -0.013
C32 0.029 0.032 0.036 -0.01 -0.002 -0.019
C37 0.052 0.044 0.034 -0.014 0.002 -0.03
O19 0.034 0.03 0.038 -0.013 0.001 -0.019
O21 0.032 0.027 0.033 -0.01 0 -0.01
C47 0.018 0.033 0.032 -0.013 0.001 -0.012
C48 0.048 0.045 0.034 -0.009 0.002 -0.034
C49 0.035 0.03 0.035 -0.01 0.001 -0.019
C50 0.03 0.033 0.035 -0.014 0.003 -0.018
C52 0.071 0.048 0.032 -0.014 0.006 -0.047
C54 0.05 0.04 0.04 -0.013 0.003 -0.034
C55 0.114 0.09 0.045 -0.013 -0.003 -0.082
O24 0.025 0.024 0.05 -0.009 0.009 -0.007
O25 0.039 0.024 0.043 -0.009 0.01 -0.008
O26 0.029 0.035 0.048 -0.02 0.007 -0.013
C56 0.028 0.031 0.035 -0.007 0.005 -0.013
C57 0.029 0.025 0.039 -0.01 0.004 -0.008
C58 0.031 0.032 0.035 -0.013 0.002 -0.009
C59 0.039 0.034 0.037 -0.015 0.008 -0.017
C60 0.04 0.047 0.036 -0.02 0.013 -0.023
C61 0.034 0.029 0.039 -0.011 0.007 -0.016
C62 0.04 0.044 0.043 -0.02 0.017 -0.027
C63 0.066 0.045 0.041 -0.023 0.02 -0.037
C64 0.051 0.046 0.039 -0.017 0.012 -0.033
C65 0.082 0.066 0.039 -0.018 0.009 -0.052
C66 0.081 0.049 0.051 -0.014 0.01 -0.043
O31 0.016 0.018 0.076 -0.01 -0.004 -0.003
O33 0.013 0.021 0.091 -0.012 -0.011 -0.005
C71 0.009 0.027 0.049 -0.012 -0.003 -0.006
C75 0.01 0.02 0.048 -0.01 -0.002 -0.008
Tb12 0.01085 0.02041 0.0362 -0.01091 -0.0002 -0.00533
Tb15 0.01085 0.02041 0.0362 -0.01091 -0.0002 -0.00533
O57 0.016 0.026 0.102 -0.018 -0.017 -0.007
O3 0.034 0.03 0.038 -0.013 0.001 -0.019
O7 0.032 0.027 0.033 -0.01 0 -0.01
C19 0.018 0.033 0.032 -0.013 0.001 -0.012
C24 0.048 0.045 0.034 -0.009 0.002 -0.034
C29 0.035 0.03 0.035 -0.01 0.001 -0.019
C30 0.03 0.033 0.035 -0.014 0.003 -0.018
C35 0.071 0.048 0.032 -0.014 0.006 -0.047
C40 0.05 0.04 0.04 -0.013 0.003 -0.034
C44 0.114 0.09 0.045 -0.013 -0.003 -0.082
O20 0.033 0.032 0.043 -0.011 0.002 -0.018
O22 0.026 0.029 0.035 -0.008 0 -0.016
C45 0.116 0.079 0.043 -0.008 0.001 -0.077
C46 0.023 0.028 0.038 -0.01 0.001 -0.013
C51 0.029 0.032 0.036 -0.01 -0.002 -0.019
C53 0.052 0.044 0.034 -0.014 0.002 -0.03
Tb9 0.00999 0.01909 0.0371 -0.00886 -0.00041 -0.00563
O1 0.014 0.023 0.067 -0.011 -0.008 -0.0096
O2 0.015 0.025 0.064 -0.011 -0.011 -0.01
O4 0.054 0.05 0.054 0.003 0 0.007
O5 0.047 0.138 0.059 -0.043 -0.004 -0.029
O13 0.012 0.029 0.07 -0.004 -0.008 -0.009
O16 0.02 0.028 0.073 -0.019 -0.012 -0.006
C2 0.018 0.028 0.046 -0.011 -0.004 -0.008
C3 0.018 0.019 0.041 -0.009 -0.002 -0.009
C4 0.009 0.019 0.05 -0.014 -0.003 -0.007
C5 0.014 0.017 0.051 -0.012 -0.005 -0.004
C7 0.013 0.019 0.046 -0.011 -0.004 -0.007
C8 0.012 0.016 0.048 -0.013 -0.002 -0.001
C9 0.015 0.024 0.041 -0.012 -0.006 -0.006
C11 0.012 0.018 0.044 -0.012 -0.005 -0.003
C12 0.019 0.027 0.039 -0.012 0 -0.012
C13 0.015 0.014 0.044 -0.008 -0.006 0.001
C14 0.014 0.014 0.059 -0.013 -0.006 -0.005
C15 0.016 0.012 0.036 -0.009 0 -0.007
C16 0.008 0.016 0.06 -0.015 -0.006 -0.005
C18 0.015 0.018 0.051 -0.013 -0.007 -0.006
C20 0.016 0.026 0.06 -0.013 -0.008 -0.005
C21 0.024 0.022 0.07 -0.015 -0.015 -0.001
C22 0.012 0.019 0.038 -0.011 -0.003 -0.004
C23 0.01 0.018 0.053 -0.011 -0.009 -0.004
C26 0.024 0.021 0.06 -0.015 -0.011 -0.006
C28 0.027 0.023 0.071 -0.018 -0.017 -0.005
O43 0.016 0.018 0.076 -0.01 -0.004 -0.003
O49 0.012 0.029 0.07 -0.004 -0.008 -0.009
O51 0.013 0.021 0.091 -0.012 -0.011 -0.005
O54 0.02 0.028 0.073 -0.019 -0.012 -0.006
O55 0.014 0.022 0.102 -0.02 -0.004 -0.003
O35 0.014 0.022 0.102 -0.02 -0.004 -0.003
O10 0.025 0.024 0.05 -0.009 0.009 -0.007
O11 0.039 0.024 0.043 -0.009 0.01 -0.008
O12 0.029 0.035 0.048 -0.02 0.007 -0.013
C25 0.028 0.031 0.035 -0.007 0.005 -0.013
C27 0.029 0.025 0.039 -0.01 0.004 -0.008
C31 0.031 0.032 0.035 -0.013 0.002 -0.009
C33 0.039 0.034 0.037 -0.015 0.008 -0.017
C34 0.04 0.047 0.036 -0.02 0.013 -0.023
C36 0.034 0.029 0.039 -0.011 0.007 -0.016
C38 0.04 0.044 0.043 -0.02 0.017 -0.027
C39 0.066 0.045 0.041 -0.023 0.02 -0.037
C41 0.051 0.046 0.039 -0.017 0.012 -0.033
C42 0.082 0.066 0.039 -0.018 0.009 -0.052
C43 0.081 0.049 0.051 -0.014 0.01 -0.043
O23 0.033 0.042 0.046 -0.023 0.012 -0.019
O27 0.014 0.023 0.067 -0.011 -0.008 -0.0096
O28 0.015 0.025 0.064 -0.011 -0.011 -0.01
O29 0.054 0.05 0.054 0.003 0 0.007
O30 0.047 0.138 0.059 -0.043 -0.004 -0.029
O36 0.016 0.026 0.102 -0.018 -0.017 -0.007
C67 0.018 0.028 0.046 -0.011 -0.004 -0.008
C68 0.018 0.019 0.041 -0.009 -0.002 -0.009
C69 0.009 0.019 0.05 -0.014 -0.003 -0.007
C70 0.014 0.017 0.051 -0.012 -0.005 -0.004
C72 0.013 0.019 0.046 -0.011 -0.004 -0.007
C73 0.012 0.016 0.048 -0.013 -0.002 -0.001
C74 0.015 0.024 0.041 -0.012 -0.006 -0.006
C76 0.012 0.018 0.044 -0.012 -0.005 -0.003
C77 0.019 0.027 0.039 -0.012 0 -0.012
C78 0.015 0.014 0.044 -0.008 -0.006 0.001
C79 0.014 0.014 0.059 -0.013 -0.006 -0.005
C80 0.016 0.012 0.036 -0.009 0 -0.007
C81 0.008 0.016 0.06 -0.015 -0.006 -0.005
C82 0.015 0.018 0.051 -0.013 -0.007 -0.006
C83 0.016 0.026 0.06 -0.013 -0.008 -0.005
C84 0.024 0.022 0.07 -0.015 -0.015 -0.001
C85 0.012 0.019 0.038 -0.011 -0.003 -0.004
C86 0.01 0.018 0.053 -0.011 -0.009 -0.004
C87 0.024 0.021 0.06 -0.015 -0.011 -0.006
C88 0.027 0.023 0.071 -0.018 -0.017 -0.005
C6 0.009 0.027 0.049 -0.012 -0.003 -0.006
C10 0.01 0.02 0.048 -0.01 -0.002 -0.008
loop_
_geom_bond_atom_site_label_1
_geom_bond_atom_site_label_2
_geom_bond_site_symmetry_1
_geom_bond_site_symmetry_2
O6 Tb6 1_555 1_555
O8 Tb6 1_555 1_555
O14 Tb6 1_555 1_555
C1 H1 1_555 1_555
C17 O6 1_555 1_555
C32 C17 1_555 1_555
C37 C32 1_555 1_555
H16 C37 1_555 1_555
O19 C47 1_555 1_555
O21 C47 1_555 1_555
C47 C50 1_555 1_555
C48 H22 1_555 1_555
C49 H23 1_555 1_555
C50 C48 1_555 1_555
C54 C48 1_555 1_555
C55 C1 1_555 1_555
H25 C55 1_555 1_555
O24 C56 1_555 1_555
O25 C56 1_555 1_555
O26 C58 1_555 1_555
C56 C57 1_555 1_555
C57 C60 1_555 1_555
C58 C59 1_555 1_555
C59 C61 1_555 1_555
C60 H26 1_555 1_555
C61 C57 1_555 1_555
H27 C61 1_555 1_555
C62 C59 1_555 1_555
C63 C64 1_555 1_555
C64 C60 1_555 1_555
H29 C65 1_555 1_555
H30 C66 1_555 1_555
O31 C71 1_555 1_555
O33 C71 1_555 1_555
C71 C75 1_555 1_555
Tb12 O19 1_555 1_555
Tb15 O31 1_555 1_555
O57 Tb6 1_555 1_555
O14 C17 1_555 1_555
O21 Tb12 1_555 1_555
C49 C50 1_555 1_555
C52 C54 1_555 1_555
C52 C55 1_555 1_555
O24 Tb12 1_555 1_555
O25 Tb12 1_555 1_555
C62 C64 1_555 1_555
C63 C65 1_555 1_555
C63 C66 1_555 1_555
O33 Tb15 1_555 1_555
O3 C19 1_555 1_555
O7 C19 1_555 1_555
C19 C30 1_555 1_555
C24 H10 1_555 1_555
C29 H13 1_555 1_555
C30 C24 1_555 1_555
C40 C24 1_555 1_555
C44 C35 1_555 1_555
H20 C44 1_555 1_555
O20 C46 1_555 1_555
O22 C46 1_555 1_555
C45 C44 1_555 1_555
H21 C45 1_555 1_555
C46 C51 1_555 1_555
C53 C51 1_555 1_555
H24 C53 1_555 1_555
Tb9 O20 1_555 1_555
Tb15 O3 1_555 1_555
O7 Tb15 1_555 1_555
C29 C30 1_555 1_555
C35 C40 1_555 1_555
O22 Tb9 1_555 1_555
Tb12 O2 1_555 1_555
O1 C15 1_555 1_555
O2 C15 1_555 1_555
O5 Tb12 1_555 1_555
O13 C5 1_555 1_555
O16 C5 1_555 1_555
O57 C3 1_555 1_555
C2 C4 1_555 1_555
C3 C11 1_555 1_555
C4 H2 1_555 1_555
C5 C18 1_555 1_555
C7 C2 1_555 1_555
H3 C7 1_555 1_555
C9 C13 1_555 1_555
C11 C14 1_555 1_555
C12 C2 1_555 1_555
C13 C21 1_555 1_555
C14 H5 1_555 1_555
C15 C22 1_555 1_555
C16 C9 1_555 1_555
H6 C16 1_555 1_555
C18 C14 1_555 1_555
C20 C12 1_555 1_555
H7 C20 1_555 1_555
C21 H8 1_555 1_555
C22 C4 1_555 1_555
C23 C9 1_555 1_555
H9 C23 1_555 1_555
C26 C13 1_555 1_555
H11 C26 1_555 1_555
C28 C12 1_555 1_555
H12 C28 1_555 1_555
O43 Tb12 1_555 1_555
O51 Tb12 1_555 1_555
O55 Tb12 1_555 1_555
C8 C22 1_555 1_555
C11 C23 1_555 1_555
C16 C18 1_555 1_555
C20 C26 1_555 1_555
C21 C28 1_555 1_555
O4 H41 1_555 1_555
Tb15 O35 1_555 1_555
O10 C25 1_555 1_555
O11 C25 1_555 1_555
C25 C27 1_555 1_555
C27 C34 1_555 1_555
C33 C31 1_555 1_555
C34 H14 1_555 1_555
C36 C27 1_555 1_555
H15 C36 1_555 1_555
C38 C33 1_555 1_555
C39 C41 1_555 1_555
C41 C34 1_555 1_555
C42 C39 1_555 1_555
H18 C42 1_555 1_555
C43 C39 1_555 1_555
H19 C43 1_555 1_555
Tb15 O10 1_555 1_555
O27 C80 1_555 1_555
O28 Tb15 1_555 1_555
O30 Tb15 1_555 1_555
O49 C70 1_555 1_555
O54 C70 1_555 1_555
O36 C68 1_555 1_555
C67 C69 1_555 1_555
C68 C76 1_555 1_555
C69 H31 1_555 1_555
C70 C82 1_555 1_555
C72 C67 1_555 1_555
H32 C72 1_555 1_555
C74 C78 1_555 1_555
C76 C79 1_555 1_555
C77 C67 1_555 1_555
C78 C84 1_555 1_555
C79 H34 1_555 1_555
C80 O28 1_555 1_555
C81 C74 1_555 1_555
H35 C81 1_555 1_555
C82 C79 1_555 1_555
C83 C77 1_555 1_555
H36 C83 1_555 1_555
C84 H37 1_555 1_555
C85 C69 1_555 1_555
C86 C74 1_555 1_555
H38 C86 1_555 1_555
C87 C78 1_555 1_555
H39 C87 1_555 1_555
C88 C77 1_555 1_555
H40 C88 1_555 1_555
Tb9 O23 1_555 1_555
O11 Tb15 1_555 1_555
O12 C31 1_555 1_555
C33 C36 1_555 1_555
C38 C41 1_555 1_555
O36 Tb9 1_555 1_555
C73 C85 1_555 1_555
C76 C86 1_555 1_555
C80 C85 1_555 1_555
C81 C82 1_555 1_555
C83 C87 1_555 1_555
C84 C88 1_555 1_555
O29 H45 1_555 1_555
O43 C6 1_555 1_555
O51 C6 1_555 1_555
C6 C10 1_555 1_555
O4 H45_2 1_555 1_555
O29 H41_2 1_555 1_555

#END
