
###############################################################################
#
# This file contains modified crystal structure data generated from the
# MOF subset of the Cambridge Structural Database (CSD) v543 
# hosted by the Cambridge Crystallographic Data Centre (CCDC).
#
# This work is licensed under the Creative Commons
# Attribution-NonCommercial-ShareAlike 4.0 International License.
# To view a copy of this license, visit
# http://creativecommons.org/licenses/by-nc-sa/4.0/
# or send a letter to
# Creative Commons, PO Box 1866, Mountain View, CA 94042, USA.
#
# CIF created using the CSD Python API on 29 September 2022
# The structure has been converted into the P1 space group
# The structure has a 3D framework
# The original CSD entry DURFEE is in the hexagonal crystal system
# The original CSD entry DURFEE is in a Sohncke space group
# The framework has been calculated to contain at least 10.0% void space
# The void calculation uses a probe of radius 1.32A, grid spacing 0.4
#
###############################################################################

data_DURFEE
_chemical_formula_moiety         '(C108 H60 N36 O24 Zn6)n'
_symmetry_cell_setting           triclinic
_symmetry_space_group_name_H-M   'P 1'
_symmetry_Int_Tables_number      1
_space_group_name_Hall           'P 1'
loop_
_symmetry_equiv_pos_site_id
_symmetry_equiv_pos_as_xyz
1 x,y,z
_cell_length_a                   22.795(5)
_cell_length_b                   22.795(5)
_cell_length_c                   12.477(4)
_cell_angle_alpha                90
_cell_angle_beta                 90
_cell_angle_gamma                120
_cell_volume                     5614.62
loop_
_atom_site_label
_atom_site_type_symbol
_atom_site_fract_x
_atom_site_fract_y
_atom_site_fract_z
N5 N 0.19917(19) 0.55806(26) 0.0529(3)
C18 C 0.1751(4) 0.4890(6) 0.0678(6)
H10 H 0.179055 0.467397 0.128317
Zn3 Zn 0.25369(3) 0.62685(4) 0.166667
O3 O 0.28134(15) 0.59550(22) 0.7817(3)
N4 N 0.15550(18) 0.50985(26) 0.9061(3)
O4 O 0.28660(18) 0.52030(27) 0.6817(3)
C10 C 0.1786(2) 0.5090(3) 0.7081(3)
C11 C 0.1519(2) 0.4870(3) 0.6110(4)
H6 H 0.180973 0.496784 0.553057
C12 C 0.1863(2) 0.5671(3) 0.9490(3)
H7 H 0.198266 0.608232 0.916277
C13 C 0.2539(2) 0.5431(3) 0.7266(3)
C14 C 0.0369(2) 0.4404(3) 0.6728(4)
C15 C 0.1356(2) 0.4956(3) 0.7908(3)
C16 C 0.0627(2) 0.4606(3) 0.7779(4)
H8 H 0.034086 0.451792 0.836215
C17 C 0.0846(2) 0.4513(3) 0.5937(4)
H9 H 0.069195 0.432990 0.525954
N6 N 0.1437(2) 0.4599(3) 0.9699(3)
Zn4 Zn 0.37315(4) 0.62684(2) 0.833333
Zn1 Zn 0.62684(2) 0.25369(3) 0.500000
O1 O 0.71866(15) 0.31416(16) 0.5516(3)
N1 N 0.84450(18) 0.35435(19) 0.4272(3)
N2 N 0.80083(19) 0.35889(18) 0.2804(3)
O2 O 0.71340(18) 0.2337(2) 0.6516(3)
C1 C 0.8214(2) 0.3304(2) 0.6252(3)
C2 C 0.8481(2) 0.3351(2) 0.7223(4)
H1 H 0.819027 0.315811 0.780276
C3 C 0.8137(2) 0.3808(2) 0.3843(3)
H2 H 0.801734 0.409966 0.417056
C4 C 0.7461(2) 0.2892(2) 0.6067(3)
C5 C 0.9631(2) 0.4035(2) 0.6605(4)
C6 C 0.8644(2) 0.3600(2) 0.5425(3)
C7 C 0.9373(2) 0.3979(2) 0.5554(4)
H3 H 0.965914 0.417706 0.497118
C8 C 0.9154(2) 0.3667(2) 0.7396(4)
H4 H 0.930805 0.363795 0.807379
N3 N 0.8563(2) 0.3162(2) 0.3634(3)
C9 C 0.8249(4) 0.3139(4) 0.2655(6)
H5 H 0.820945 0.288342 0.205016
Zn2 Zn 0.74631(3) 0.37315(4) 0.166667
O5 O 0.59550(22) 0.31416(16) 0.4484(3)
N7 N 0.55806(26) 0.19917(19) 0.6137(3)
N8 N 0.64111(18) 0.19917(19) 0.3863(3)
O1_2 O 0.68584(16) 0.40450(22) 0.2183(3)
N1_2 N 0.64565(19) 0.49015(26) 0.0939(3)
O2_2 O 0.7663(2) 0.47970(27) 0.3183(3)
C1_2 C 0.6696(2) 0.4910(3) 0.2919(3)
C2_2 C 0.6649(2) 0.5130(3) 0.3890(4)
H1_2 H 0.684189 0.503216 0.446943
C3_2 C 0.6192(2) 0.4329(3) 0.0510(3)
H2_2 H 0.590034 0.391768 0.083723
C4_2 C 0.7108(2) 0.4569(3) 0.2734(3)
C5_2 C 0.5965(2) 0.5596(3) 0.3272(4)
C6_2 C 0.6400(2) 0.5044(3) 0.2092(3)
C7_2 C 0.6021(2) 0.5394(3) 0.2221(4)
H3_2 H 0.582294 0.548208 0.163785
C8_2 C 0.6333(2) 0.5487(3) 0.4063(4)
H4_2 H 0.636205 0.567010 0.474046
N3_2 N 0.6838(2) 0.5401(3) 0.0301(3)
O3_2 O 0.40450(22) 0.68584(27) 0.4484(3)
N4_2 N 0.49015(26) 0.64565(32) 0.5728(3)
N5_2 N 0.44194(26) 0.64111(32) 0.7196(3)
O4_2 O 0.47970(27) 0.76630(32) 0.3484(3)
C10_2 C 0.4910(3) 0.6696(4) 0.3748(3)
C11_2 C 0.5130(3) 0.6649(4) 0.2777(4)
H6_2 H 0.503216 0.684189 0.219724
C12_2 C 0.4329(3) 0.6192(4) 0.6157(3)
H7_2 H 0.391768 0.590034 0.582944
C13_2 C 0.4569(3) 0.7108(4) 0.3933(3)
C14_2 C 0.5596(3) 0.5965(4) 0.3395(4)
C15_2 C 0.5044(3) 0.6400(4) 0.4575(3)
C16_2 C 0.5394(3) 0.6021(4) 0.4446(4)
H8_2 H 0.548208 0.582294 0.502882
C17_2 C 0.5487(3) 0.6333(4) 0.2604(4)
H9_2 H 0.567010 0.636205 0.192621
N6_2 N 0.5401(3) 0.6838(4) 0.6366(3)
C18_2 C 0.5110(6) 0.6861(7) 0.7345(6)
H10_2 H 0.532603 0.711658 0.794984
Zn4_2 Zn 0.37316(2) 0.74631(4) 0.500000
O5_2 O 0.68584(16) 0.28134(27) 0.1151(3)
N8_2 N 0.80083(19) 0.44194(26) 0.0529(3)
N2_2 N 0.64111(18) 0.44194(26) 0.9471(3)
C9_2 C 0.6861(4) 0.5110(6) 0.9322(6)
H5_2 H 0.711658 0.532603 0.871683
Zn2_2 Zn 0.62685(4) 0.37316(5) 0.833333
O1_3 O 0.59550(22) 0.28134(15) 0.8849(3)
N1_3 N 0.50985(26) 0.15550(18) 0.7605(3)
O2_3 O 0.52030(27) 0.28660(18) 0.9849(3)
C1_3 C 0.5090(3) 0.1786(2) 0.9585(3)
C3_3 C 0.5671(3) 0.1863(2) 0.7176(3)
H2_3 H 0.608232 0.198266 0.750389
C4_3 C 0.5431(3) 0.2539(2) 0.9400(3)
C5_3 C 0.4404(3) 0.0369(2) 0.9938(4)
C6_3 C 0.4956(3) 0.1356(2) 0.8758(3)
C7_3 C 0.4606(3) 0.0627(2) 0.8887(4)
H3_3 H 0.451792 0.034086 0.830451
N3_3 N 0.4599(3) 0.1437(2) 0.6967(3)
C9_3 C 0.4890(6) 0.1751(4) 0.5988(6)
H5_3 H 0.467397 0.179055 0.538349
O5_3 O 0.71866(27) 0.40450(22) 0.7817(3)
N8_3 N 0.55806(26) 0.35889(18) 0.7196(3)
O3_3 O 0.31416(27) 0.71866(15) 0.1151(3)
N4_3 N 0.35435(32) 0.84450(18) 0.2395(3)
N5_3 N 0.35889(32) 0.80083(19) 0.3863(3)
O4_3 O 0.23370(32) 0.71340(18) 0.0151(3)
C10_3 C 0.3304(4) 0.8214(2) 0.0415(3)
C12_3 C 0.3808(4) 0.8137(2) 0.2824(3)
H7_3 H 0.409966 0.801734 0.249611
C13_3 C 0.2892(4) 0.7461(2) 0.0600(3)
C14_3 C 0.4035(4) 0.9631(2) 0.0062(4)
C15_3 C 0.3600(4) 0.8644(2) 0.1242(3)
C16_3 C 0.3979(4) 0.9373(2) 0.1113(4)
H8_3 H 0.417706 0.965914 0.169549
N6_3 N 0.3162(4) 0.8563(2) 0.3033(3)
C18_3 C 0.3139(7) 0.8249(4) 0.4012(6)
H10_3 H 0.288342 0.820945 0.461651
O1_4 O 0.28134(15) 0.68584(16) 0.5516(3)
N1_4 N 0.15550(18) 0.64565(19) 0.4272(3)
N2_3 N 0.19917(19) 0.64111(18) 0.2804(3)
O2_4 O 0.28660(18) 0.7663(2) 0.6516(3)
C1_4 C 0.1786(2) 0.6696(2) 0.6252(3)
C2_3 C 0.1519(2) 0.6649(2) 0.7223(4)
H1_3 H 0.180973 0.684189 0.780276
C3_4 C 0.1863(2) 0.6192(2) 0.3843(3)
H2_4 H 0.198266 0.590034 0.417056
C4_4 C 0.2539(2) 0.7108(2) 0.6067(3)
C5_4 C 0.0369(2) 0.5965(2) 0.6605(4)
C6_4 C 0.1356(2) 0.6400(2) 0.5425(3)
C7_4 C 0.0627(2) 0.6021(2) 0.5554(4)
H3_4 H 0.034086 0.582294 0.497118
C8_3 C 0.0846(2) 0.6333(2) 0.7396(4)
H4_3 H 0.069195 0.636205 0.807379
N3_4 N 0.1437(2) 0.6838(2) 0.3634(3)
C9_4 C 0.1751(4) 0.6861(4) 0.2655(6)
H5_4 H 0.179055 0.711658 0.205016
N7_2 N 0.44194(26) 0.80083(19) 0.6137(3)
C18_4 C 0.8249(4) 0.5110(6) 0.0678(6)
H10_4 H 0.820945 0.532603 0.128317
N4_4 N 0.84450(18) 0.49015(26) 0.9061(3)
O4_4 O 0.71340(18) 0.47970(27) 0.6817(3)
C10_4 C 0.8214(2) 0.4910(3) 0.7081(3)
C11_3 C 0.8481(2) 0.5130(3) 0.6110(4)
H6_3 H 0.819027 0.503216 0.553057
C12_4 C 0.8137(2) 0.4329(3) 0.9490(3)
H7_4 H 0.801734 0.391768 0.916277
C13_4 C 0.7461(2) 0.4569(3) 0.7266(3)
C14_4 C 0.9631(2) 0.5596(3) 0.6728(4)
C15_4 C 0.8644(2) 0.5044(3) 0.7908(3)
C16_4 C 0.9373(2) 0.5394(3) 0.7779(4)
H8_4 H 0.965914 0.548208 0.836215
C17_3 C 0.9154(2) 0.5487(3) 0.5937(4)
H9_3 H 0.930805 0.567010 0.525954
N6_4 N 0.8563(2) 0.5401(3) 0.9699(3)
O1_5 O 0.31416(16) 0.59550(22) 0.2183(3)
N1_5 N 0.35435(19) 0.50985(26) 0.0939(3)
O2_5 O 0.2337(2) 0.52030(27) 0.3183(3)
C1_5 C 0.3304(2) 0.5090(3) 0.2919(3)
C2_4 C 0.3351(2) 0.4870(3) 0.3890(4)
H1_4 H 0.315811 0.496784 0.446943
C3_5 C 0.3808(2) 0.5671(3) 0.0510(3)
H2_5 H 0.409966 0.608232 0.083723
C4_5 C 0.2892(2) 0.5431(3) 0.2734(3)
C5_5 C 0.4035(2) 0.4404(3) 0.3272(4)
C6_5 C 0.3600(2) 0.4956(3) 0.2092(3)
C7_5 C 0.3979(2) 0.4606(3) 0.2221(4)
H3_5 H 0.417706 0.451792 0.163785
C8_4 C 0.3667(2) 0.4513(3) 0.4063(4)
H4_4 H 0.363795 0.432990 0.474046
N3_5 N 0.3162(2) 0.4599(3) 0.0301(3)
N4_5 N 0.50985(26) 0.35435(32) 0.5728(3)
O4_5 O 0.52030(27) 0.23370(32) 0.3484(3)
C10_5 C 0.5090(3) 0.3304(4) 0.3748(3)
C11_4 C 0.4870(3) 0.3351(4) 0.2777(4)
H6_4 H 0.496784 0.315811 0.219724
C12_5 C 0.5671(3) 0.3808(4) 0.6157(3)
H7_5 H 0.608232 0.409966 0.582944
C13_5 C 0.5431(3) 0.2892(4) 0.3933(3)
C14_5 C 0.4404(3) 0.4035(4) 0.3395(4)
C15_5 C 0.4956(3) 0.3600(4) 0.4575(3)
C16_5 C 0.4606(3) 0.3979(4) 0.4446(4)
H8_5 H 0.451792 0.417706 0.502882
C17_4 C 0.4513(3) 0.3667(4) 0.2604(4)
H9_4 H 0.432990 0.363795 0.192621
N6_5 N 0.4599(3) 0.3162(4) 0.6366(3)
C18_5 C 0.4890(6) 0.3139(7) 0.7345(6)
H10_5 H 0.467397 0.288342 0.794984
N2_4 N 0.35889(18) 0.55806(26) 0.9471(3)
C9_5 C 0.3139(4) 0.4890(6) 0.9322(6)
H5_5 H 0.288342 0.467397 0.871683
N4_6 N 0.64565(32) 0.15550(18) 0.2395(3)
O4_6 O 0.76630(32) 0.28660(18) 0.0151(3)
C10_6 C 0.6696(4) 0.1786(2) 0.0415(3)
C12_6 C 0.6192(4) 0.1863(2) 0.2824(3)
H7_6 H 0.590034 0.198266 0.249611
C13_6 C 0.7108(4) 0.2539(2) 0.0600(3)
C14_6 C 0.5965(4) 0.0369(2) 0.0062(4)
C15_6 C 0.6400(4) 0.1356(2) 0.1242(3)
C16_6 C 0.6021(4) 0.0627(2) 0.1113(4)
H8_6 H 0.582294 0.034086 0.169549
N6_6 N 0.6838(4) 0.1437(2) 0.3033(3)
C18_6 C 0.6861(7) 0.1751(4) 0.4012(6)
H10_6 H 0.711658 0.179055 0.461651
O1_6 O 0.40450(22) 0.71866(15) 0.8849(3)
N1_6 N 0.49015(26) 0.84450(18) 0.7605(3)
O2_6 O 0.47970(27) 0.71340(18) 0.9849(3)
C1_6 C 0.4910(3) 0.8214(2) 0.9585(3)
C3_6 C 0.4329(3) 0.8137(2) 0.7176(3)
H2_6 H 0.391768 0.801734 0.750389
C4_6 C 0.4569(3) 0.7461(2) 0.9400(3)
C5_6 C 0.5596(3) 0.9631(2) 0.9938(4)
C6_6 C 0.5044(3) 0.8644(2) 0.8758(3)
C7_6 C 0.5394(3) 0.9373(2) 0.8887(4)
H3_6 H 0.548208 0.965914 0.830451
N3_6 N 0.5401(3) 0.8563(2) 0.6967(3)
C9_6 C 0.5110(6) 0.8249(4) 0.5988(6)
H5_6 H 0.532603 0.820945 0.538349
C2_5 C 0.4870(3) 0.1519(2) 0.0556(4)
H1_5 H 0.496784 0.180973 0.113609
C8_5 C 0.4513(3) 0.0846(2) 0.0729(4)
H4_5 H 0.432990 0.069195 0.140712
C11_5 C 0.3351(4) 0.8481(2) 0.9444(4)
H6_5 H 0.315811 0.819027 0.886391
C17_5 C 0.3667(4) 0.9154(2) 0.9271(4)
H9_5 H 0.363795 0.930805 0.859288
C11_6 C 0.6649(4) 0.1519(2) 0.9444(4)
H6_6 H 0.684189 0.180973 0.886391
C17_6 C 0.6333(4) 0.0846(2) 0.9271(4)
H9_6 H 0.636205 0.069195 0.859288
C2_6 C 0.5130(3) 0.8481(2) 0.0556(4)
H1_6 H 0.503216 0.819027 0.113609
C8_6 C 0.5487(3) 0.9154(2) 0.0729(4)
H4_6 H 0.567010 0.930805 0.140712
loop_
_geom_bond_atom_site_label_1
_geom_bond_atom_site_label_2
_geom_bond_site_symmetry_1
_geom_bond_site_symmetry_2
C18 N5 1_555 1_555
H10 C18 1_555 1_555
Zn3 N5 1_555 1_555
O3 C13 1_555 1_555
N4 C12 1_555 1_555
O4 C13 1_555 1_555
C10 C11 1_555 1_555
C11 H6 1_555 1_555
C12 H7 1_555 1_555
C13 C10 1_555 1_555
C15 N4 1_555 1_555
C16 C14 1_555 1_555
H8 C16 1_555 1_555
C17 C11 1_555 1_555
H9 C17 1_555 1_555
N6 N4 1_555 1_555
Zn4 O3 1_555 1_555
C10 C15 1_555 1_555
C14 C17 1_555 1_555
C15 C16 1_555 1_555
Zn1 O1 1_555 1_555
O1 C4 1_555 1_555
N1 C3 1_555 1_555
N2 C3 1_555 1_555
O2 C4 1_555 1_555
C1 C2 1_555 1_555
C2 H1 1_555 1_555
C3 H2 1_555 1_555
C4 C1 1_555 1_555
C5 C7 1_555 1_555
C6 N1 1_555 1_555
C7 C6 1_555 1_555
H3 C7 1_555 1_555
C8 C2 1_555 1_555
H4 C8 1_555 1_555
N3 N1 1_555 1_555
C9 N2 1_555 1_555
H5 C9 1_555 1_555
Zn2 N2 1_555 1_555
O5 Zn1 1_555 1_555
N7 Zn1 1_555 1_555
N8 Zn1 1_555 1_555
C1 C6 1_555 1_555
C5 C8 1_555 1_555
N3 C9 1_555 1_555
Zn2 O1_2 1_555 1_555
O1_2 C4_2 1_555 1_555
N1_2 C3_2 1_555 1_555
O2_2 C4_2 1_555 1_555
C1_2 C2_2 1_555 1_555
C2_2 H1_2 1_555 1_555
C3_2 H2_2 1_555 1_555
C4_2 C1_2 1_555 1_555
C5_2 C7_2 1_555 1_555
C6_2 N1_2 1_555 1_555
C7_2 C6_2 1_555 1_555
H3_2 C7_2 1_555 1_555
C8_2 C2_2 1_555 1_555
H4_2 C8_2 1_555 1_555
N3_2 N1_2 1_555 1_555
O3_2 C13_2 1_555 1_555
N4_2 C12_2 1_555 1_555
N5_2 C12_2 1_555 1_555
O4_2 C13_2 1_555 1_555
C10_2 C11_2 1_555 1_555
C11_2 H6_2 1_555 1_555
C12_2 H7_2 1_555 1_555
C13_2 C10_2 1_555 1_555
C14_2 C5_2 1_555 1_555
C15_2 N4_2 1_555 1_555
C16_2 C14_2 1_555 1_555
H8_2 C16_2 1_555 1_555
C17_2 C11_2 1_555 1_555
H9_2 C17_2 1_555 1_555
N6_2 N4_2 1_555 1_555
C18_2 N5_2 1_555 1_555
H10_2 C18_2 1_555 1_555
Zn4 N5_2 1_555 1_555
Zn4_2 O3_2 1_555 1_555
O5_2 Zn2 1_555 1_555
N8_2 Zn2 1_555 1_555
C1_2 C6_2 1_555 1_555
C5_2 C8_2 1_555 1_555
C10_2 C15_2 1_555 1_555
C14_2 C17_2 1_555 1_555
C15_2 C16_2 1_555 1_555
N6_2 C18_2 1_555 1_555
C9_2 N2_2 1_555 1_555
H5_2 C9_2 1_555 1_555
Zn2_2 N2_2 1_555 1_555
Zn2_2 O1_3 1_555 1_555
O1_3 C4_3 1_555 1_555
N1_3 C3_3 1_555 1_555
N7 C3_3 1_555 1_555
O2_3 C4_3 1_555 1_555
C3_3 H2_3 1_555 1_555
C4_3 C1_3 1_555 1_555
C5_3 C7_3 1_555 1_555
C6_3 N1_3 1_555 1_555
C7_3 C6_3 1_555 1_555
H3_3 C7_3 1_555 1_555
N3_3 N1_3 1_555 1_555
C9_3 N7 1_555 1_555
H5_3 C9_3 1_555 1_555
O5_3 Zn2_2 1_555 1_555
N8_3 Zn2_2 1_555 1_555
C1_3 C6_3 1_555 1_555
N3_3 C9_3 1_555 1_555
O3_3 C13_3 1_555 1_555
N4_3 C12_3 1_555 1_555
N5_3 C12_3 1_555 1_555
O4_3 C13_3 1_555 1_555
C12_3 H7_3 1_555 1_555
C13_3 C10_3 1_555 1_555
C15_3 N4_3 1_555 1_555
C16_3 C14_3 1_555 1_555
H8_3 C16_3 1_555 1_555
N6_3 N4_3 1_555 1_555
C18_3 N5_3 1_555 1_555
H10_3 C18_3 1_555 1_555
Zn4_2 N5_3 1_555 1_555
Zn3 O3_3 1_555 1_555
C10_3 C15_3 1_555 1_555
C15_3 C16_3 1_555 1_555
N6_3 C18_3 1_555 1_555
Zn4_2 O1_4 1_555 1_555
O1_4 C4_4 1_555 1_555
N1_4 C3_4 1_555 1_555
N2_3 C3_4 1_555 1_555
O2_4 C4_4 1_555 1_555
C1_4 C2_3 1_555 1_555
C2_3 H1_3 1_555 1_555
C3_4 H2_4 1_555 1_555
C4_4 C1_4 1_555 1_555
C5_4 C7_4 1_555 1_555
C6_4 N1_4 1_555 1_555
C7_4 C6_4 1_555 1_555
H3_4 C7_4 1_555 1_555
C8_3 C2_3 1_555 1_555
H4_3 C8_3 1_555 1_555
N3_4 N1_4 1_555 1_555
C9_4 N2_3 1_555 1_555
H5_4 C9_4 1_555 1_555
Zn3 N2_3 1_555 1_555
N7_2 Zn4_2 1_555 1_555
C1_4 C6_4 1_555 1_555
C5_4 C8_3 1_555 1_555
N3_4 C9_4 1_555 1_555
C18_4 N8_2 1_555 1_555
H10_4 C18_4 1_555 1_555
O5_3 C13_4 1_555 1_555
N4_4 C12_4 1_555 1_555
O4_4 C13_4 1_555 1_555
C10_4 C11_3 1_555 1_555
C11_3 H6_3 1_555 1_555
C12_4 H7_4 1_555 1_555
C13_4 C10_4 1_555 1_555
C15_4 N4_4 1_555 1_555
C16_4 C14_4 1_555 1_555
H8_4 C16_4 1_555 1_555
C17_3 C11_3 1_555 1_555
H9_3 C17_3 1_555 1_555
N6_4 N4_4 1_555 1_555
C10_4 C15_4 1_555 1_555
C14_4 C17_3 1_555 1_555
C15_4 C16_4 1_555 1_555
Zn3 O1_5 1_555 1_555
O1_5 C4_5 1_555 1_555
N1_5 C3_5 1_555 1_555
O2_5 C4_5 1_555 1_555
C1_5 C2_4 1_555 1_555
C2_4 H1_4 1_555 1_555
C3_5 H2_5 1_555 1_555
C4_5 C1_5 1_555 1_555
C5_5 C7_5 1_555 1_555
C6_5 N1_5 1_555 1_555
C7_5 C6_5 1_555 1_555
H3_5 C7_5 1_555 1_555
C8_4 C2_4 1_555 1_555
H4_4 C8_4 1_555 1_555
N3_5 N1_5 1_555 1_555
O5 C13_5 1_555 1_555
N4_5 C12_5 1_555 1_555
N8_3 C12_5 1_555 1_555
O4_5 C13_5 1_555 1_555
C10_5 C11_4 1_555 1_555
C11_4 H6_4 1_555 1_555
C12_5 H7_5 1_555 1_555
C13_5 C10_5 1_555 1_555
C14_5 C5_5 1_555 1_555
C15_5 N4_5 1_555 1_555
C16_5 C14_5 1_555 1_555
H8_5 C16_5 1_555 1_555
C17_4 C11_4 1_555 1_555
H9_4 C17_4 1_555 1_555
N6_5 N4_5 1_555 1_555
C18_5 N8_3 1_555 1_555
H10_5 C18_5 1_555 1_555
C1_5 C6_5 1_555 1_555
C5_5 C8_4 1_555 1_555
C10_5 C15_5 1_555 1_555
C14_5 C17_4 1_555 1_555
C15_5 C16_5 1_555 1_555
N6_5 C18_5 1_555 1_555
C9_5 N2_4 1_555 1_555
H5_5 C9_5 1_555 1_555
Zn4 N2_4 1_555 1_555
O5_2 C13_6 1_555 1_555
N4_6 C12_6 1_555 1_555
N8 C12_6 1_555 1_555
O4_6 C13_6 1_555 1_555
C12_6 H7_6 1_555 1_555
C13_6 C10_6 1_555 1_555
C15_6 N4_6 1_555 1_555
C16_6 C14_6 1_555 1_555
H8_6 C16_6 1_555 1_555
N6_6 N4_6 1_555 1_555
C18_6 N8 1_555 1_555
H10_6 C18_6 1_555 1_555
C10_6 C15_6 1_555 1_555
C15_6 C16_6 1_555 1_555
N6_6 C18_6 1_555 1_555
Zn4 O1_6 1_555 1_555
O1_6 C4_6 1_555 1_555
N1_6 C3_6 1_555 1_555
N7_2 C3_6 1_555 1_555
O2_6 C4_6 1_555 1_555
C3_6 H2_6 1_555 1_555
C4_6 C1_6 1_555 1_555
C5_6 C7_6 1_555 1_555
C6_6 N1_6 1_555 1_555
C7_6 C6_6 1_555 1_555
H3_6 C7_6 1_555 1_555
N3_6 N1_6 1_555 1_555
C9_6 N7_2 1_555 1_555
H5_6 C9_6 1_555 1_555
C1_6 C6_6 1_555 1_555
N3_6 C9_6 1_555 1_555
C2_5 H1_5 1_555 1_555
C8_5 C2_5 1_555 1_555
H4_5 C8_5 1_555 1_555
C11_5 H6_5 1_555 1_555
C17_5 C11_5 1_555 1_555
H9_5 C17_5 1_555 1_555
C11_6 H6_6 1_555 1_555
C17_6 C11_6 1_555 1_555
H9_6 C17_6 1_555 1_555
C2_6 H1_6 1_555 1_555
C8_6 C2_6 1_555 1_555
H4_6 C8_6 1_555 1_555

#END
