
###############################################################################
#
# This file contains modified crystal structure data generated from the
# MOF subset of the Cambridge Structural Database (CSD) v543 
# hosted by the Cambridge Crystallographic Data Centre (CCDC).
#
# This work is licensed under the Creative Commons
# Attribution-NonCommercial-ShareAlike 4.0 International License.
# To view a copy of this license, visit
# http://creativecommons.org/licenses/by-nc-sa/4.0/
# or send a letter to
# Creative Commons, PO Box 1866, Mountain View, CA 94042, USA.
#
# CIF created using the CSD Python API on 29 September 2022
# The structure has been converted into the P1 space group
# The structure has a 3D framework
# The original CSD entry DUSTOD is in the monoclinic crystal system
# The framework has been calculated to contain at least 10.0% void space
# The void calculation uses a probe of radius 1.32A, grid spacing 0.4
#
###############################################################################

data_DUSTOD
_chemical_formula_moiety         '(C104 H56 Co6 N8 O30)n'
_symmetry_cell_setting           triclinic
_symmetry_space_group_name_H-M   'P 1'
_symmetry_Int_Tables_number      1
_space_group_name_Hall           'P 1'
loop_
_symmetry_equiv_pos_site_id
_symmetry_equiv_pos_as_xyz
1 x,y,z
_cell_length_a                   14.3091(15)
_cell_length_b                   14.5181(15)
_cell_length_c                   17.5565(18)
_cell_angle_alpha                90
_cell_angle_beta                 104.706(9)
_cell_angle_gamma                90
_cell_volume                     3527.73
loop_
_atom_site_label
_atom_site_type_symbol
_atom_site_fract_x
_atom_site_fract_y
_atom_site_fract_z
H8 H 0.0186 0.0093 0.5661
H5 H 0.0129 0.3823 0.1762
C14 C 0.0524(8) 0.9531(6) 0.5731(6)
C15 C 0.1171(9) 0.9378(7) 0.6425(7)
H9 H 0.1237 0.9802 0.6840
C16 C 0.1734(8) 0.8601(6) 0.6523(6)
H10 H 0.2201 0.8502 0.6999
C17 C 0.1613(7) 0.7965(5) 0.5922(5)
C18 C 0.0898(7) 0.8157(5) 0.5249(6)
H11 H 0.0794 0.7721 0.4841
C19 C 0.2194(6) 0.7127(6) 0.5926(5)
C20 C 0.2489(7) 0.6583(6) 0.6595(5)
H12 H 0.2348 0.6764 0.7068
C21 C 0.2999(6) 0.5761(5) 0.6563(5)
C22 C 0.3211(6) 0.5507(5) 0.5870(5)
H13 H 0.3511 0.4938 0.5836
C23 C 0.2980(6) 0.6096(5) 0.5215(5)
C24 C 0.2469(6) 0.6891(5) 0.5248(5)
H14 H 0.2304 0.7279 0.4805
C25 C 0.3331(6) 0.5203(6) 0.7293(5)
C26 C 0.3338(7) 0.5887(6) 0.4510(5)
N2 N 0.0334(5) 0.8916(4) 0.5127(4)
O5 O 0.3842(5) 0.5181(4) 0.4533(3)
O6 O 0.3179(4) 0.6469(4) 0.3949(3)
O7 O 0.3575(5) 0.4364(4) 0.7207(3)
O8 O 0.3365(4) 0.5552(4) 0.7944(3)
Co4 Co 0.43342(8) 0.41118(6) 0.40058(7)
Co5 Co 0.43342(8) 0.58882(6) 0.90058(7)
Co6 Co 0.39508(8) 0.63071(7) 0.31901(7)
Co7 Co 0.39508(8) 0.36929(7) 0.81901(7)
O9 O 0.0517(4) 0.9638(3) 0.3656(3)
O10 O 0.8842(5) 0.0181(4) 0.4533(3)
Co1 Co 0.93342(8) 0.91118(6) 0.40058(7)
C1 C 0.8659(7) 0.7530(5) 0.3847(6)
C2 C 0.8217(6) 0.6596(5) 0.3708(5)
C3 C 0.8702(6) 0.5890(5) 0.3433(5)
H1 H 0.9315 0.6003 0.3349
C4 C 0.8290(7) 0.5012(5) 0.3279(5)
C5 C 0.7363(7) 0.4876(5) 0.3382(5)
H2 H 0.7080 0.4289 0.3288
C6 C 0.6851(6) 0.5582(5) 0.3620(5)
C7 C 0.7280(6) 0.6445(5) 0.3778(5)
H3 H 0.6935 0.6931 0.3934
C8 C 0.5831(7) 0.5436(5) 0.3655(5)
C9 C 0.8772(7) 0.4271(5) 0.2953(6)
C10 C 0.9335(10) 0.4438(7) 0.2426(9)
H4 H 0.9436 0.5046 0.2280
C11 C 0.9745(12) 0.3714(7) 0.2115(10)
C12 C 0.9581(10) 0.2831(7) 0.2332(8)
H6 H 0.9851 0.2340 0.2112
C13 C 0.8652(6) 0.3342(5) 0.3131(5)
H7 H 0.8265 0.3205 0.3476
N1 N 0.9060(5) 0.2638(4) 0.2835(4)
O1 O 0.9459(4) 0.7701(3) 0.3671(4)
O2 O 0.8263(4) 0.8148(4) 0.4165(4)
O3 O 0.5517(4) 0.4638(3) 0.3656(3)
O4 O 0.5327(4) 0.6157(4) 0.3639(4)
Co8 Co 0.89508(8) 0.13071(7) 0.31901(7)
N3 N 0.4060(5) 0.7638(4) 0.2835(4)
O12 O 0.3575(5) 0.5636(4) 0.2207(3)
O13 O 0.8365(4) 0.9448(4) 0.2944(3)
C14_2 C 0.0524(8) 0.0469(6) 0.0731(6)
C15_2 C 0.1171(9) 0.0622(7) 0.1425(7)
H9_2 H 0.1237 0.0198 0.1840
C16_2 C 0.1734(8) 0.1399(6) 0.1523(6)
H10_2 H 0.2201 0.1498 0.1999
C17_2 C 0.1613(7) 0.2035(5) 0.0922(5)
C18_2 C 0.0898(7) 0.1843(5) 0.0249(6)
C19_2 C 0.2194(6) 0.2873(6) 0.0926(5)
C20_2 C 0.2489(7) 0.3417(6) 0.1595(5)
H12_2 H 0.2348 0.3236 0.2068
C21_2 C 0.2999(6) 0.4239(5) 0.1563(5)
C22_2 C 0.3211(6) 0.4493(5) 0.0870(5)
H13_2 H 0.3511 0.5062 0.0836
C23_2 C 0.2980(6) 0.3904(5) 0.0215(5)
C24_2 C 0.2469(6) 0.3109(5) 0.0248(5)
C25_2 C 0.3331(6) 0.4797(6) 0.2293(5)
N2_2 N 0.0334(5) 0.1084(4) 0.0127(4)
O8_2 O 0.3365(4) 0.4448(4) 0.2944(3)
H5_2 H 0.0129 0.6177 0.6762
H11_2 H 0.0794 0.2279 0.9841
H14_2 H 0.2304 0.2721 0.9805
C26_2 C 0.3338(7) 0.4113(6) 0.9510(5)
O5_2 O 0.3842(5) 0.4819(4) 0.9533(3)
O6_2 O 0.3179(4) 0.3531(4) 0.8949(3)
O9_2 O 0.0517(4) 0.0362(3) 0.8656(3)
Co1_2 Co 0.93342(8) 0.08882(6) 0.90058(7)
C1_2 C 0.8659(7) 0.2470(5) 0.8847(6)
C2_2 C 0.8217(6) 0.3404(5) 0.8708(5)
C3_2 C 0.8702(6) 0.4110(5) 0.8433(5)
H1_2 H 0.9315 0.3997 0.8349
C4_2 C 0.8290(7) 0.4988(5) 0.8279(5)
C5_2 C 0.7363(7) 0.5124(5) 0.8382(5)
H2_2 H 0.7080 0.5711 0.8288
C6_2 C 0.6851(6) 0.4418(5) 0.8620(5)
C7_2 C 0.7280(6) 0.3555(5) 0.8778(5)
H3_2 H 0.6935 0.3069 0.8934
C8_2 C 0.5831(7) 0.4564(5) 0.8655(5)
C9_2 C 0.8772(7) 0.5729(5) 0.7953(6)
C10_2 C 0.9335(10) 0.5562(7) 0.7426(9)
H4_2 H 0.9436 0.4954 0.7280
C11_2 C 0.9745(12) 0.6286(7) 0.7115(10)
C12_2 C 0.9581(10) 0.7169(7) 0.7332(8)
H6_2 H 0.9851 0.7660 0.7112
C13_2 C 0.8652(6) 0.6658(5) 0.8131(5)
H7_2 H 0.8265 0.6795 0.8476
N1_2 N 0.9060(5) 0.7362(4) 0.7835(4)
O1_2 O 0.9459(4) 0.2299(3) 0.8671(4)
O2_2 O 0.8263(4) 0.1852(4) 0.9165(4)
O3_2 O 0.5517(4) 0.5362(3) 0.8656(3)
O4_2 O 0.5327(4) 0.3843(4) 0.8639(4)
Co8_2 Co 0.89508(8) 0.86929(7) 0.81901(7)
N3_2 N 0.4060(5) 0.2362(4) 0.7835(4)
O13_2 O 0.8365(4) 0.0552(4) 0.7944(3)
O10_2 O 0.8842(5) 0.9819(4) 0.9533(3)
C1_3 C 0.3659(7) 0.2530(5) 0.3847(6)
C2_3 C 0.3217(6) 0.1596(5) 0.3708(5)
C3_3 C 0.3702(6) 0.0890(5) 0.3433(5)
H1_3 H 0.4315 0.1003 0.3349
C4_3 C 0.3290(7) 0.0012(5) 0.3279(5)
C6_3 C 0.1851(6) 0.0582(5) 0.3620(5)
C7_3 C 0.2280(6) 0.1445(5) 0.3778(5)
H3_3 H 0.1935 0.1931 0.3934
C8_3 C 0.0831(7) 0.0436(5) 0.3655(5)
H4_3 H 0.4436 0.0046 0.2280
C14_3 C 0.5524(8) 0.4531(6) 0.5731(6)
H8_2 H 0.5186 0.5093 0.5661
C15_3 C 0.6171(9) 0.4378(7) 0.6425(7)
H9_3 H 0.6237 0.4802 0.6840
C16_3 C 0.6734(8) 0.3601(6) 0.6523(6)
H10_3 H 0.7201 0.3502 0.6999
C17_3 C 0.6613(7) 0.2965(5) 0.5922(5)
C18_3 C 0.5898(7) 0.3157(5) 0.5249(6)
H11_3 H 0.5794 0.2721 0.4841
C19_3 C 0.7194(6) 0.2127(6) 0.5926(5)
C20_3 C 0.7489(7) 0.1583(6) 0.6595(5)
H12_3 H 0.7348 0.1764 0.7068
C21_3 C 0.7999(6) 0.0761(5) 0.6563(5)
C22_3 C 0.8211(6) 0.0507(5) 0.5870(5)
C23_3 C 0.7980(6) 0.1096(5) 0.5215(5)
C24_3 C 0.7469(6) 0.1891(5) 0.5248(5)
H14_3 H 0.7304 0.2279 0.4805
C25_3 C 0.8331(6) 0.0203(6) 0.7293(5)
C26_3 C 0.8338(7) 0.0887(6) 0.4510(5)
N2_3 N 0.5334(5) 0.3916(4) 0.5127(4)
O1_3 O 0.4459(4) 0.2701(3) 0.3671(4)
O2_3 O 0.3263(4) 0.3148(4) 0.4165(4)
O4_3 O 0.0327(4) 0.1157(4) 0.3639(4)
O6_3 O 0.8179(4) 0.1469(4) 0.3949(3)
C5_3 C 0.2363(7) 0.9876(5) 0.3382(5)
H2_3 H 0.2080 0.9289 0.3288
C9_3 C 0.3772(7) 0.9271(5) 0.2953(6)
C10_3 C 0.4335(10) 0.9438(7) 0.2426(9)
C11_3 C 0.4745(12) 0.8714(7) 0.2115(10)
H5_3 H 0.5129 0.8823 0.1762
C12_3 C 0.4581(10) 0.7831(7) 0.2332(8)
H6_3 H 0.4851 0.7340 0.2112
C13_3 C 0.3652(6) 0.8342(5) 0.3131(5)
H7_3 H 0.3265 0.8205 0.3476
H13_3 H 0.8511 0.9938 0.5836
O7_2 O 0.8575(5) 0.9364(4) 0.7207(3)
O12_2 O 0.8575(5) 0.0636(4) 0.2207(3)
H13_4 H 0.8511 0.0062 0.0836
C5_4 C 0.2363(7) 0.0124(5) 0.8382(5)
H2_4 H 0.2080 0.0711 0.8288
C9_4 C 0.3772(7) 0.0729(5) 0.7953(6)
C10_4 C 0.4335(10) 0.0562(7) 0.7426(9)
C11_4 C 0.4745(12) 0.1286(7) 0.7115(10)
H5_4 H 0.5129 0.1177 0.6762
C12_4 C 0.4581(10) 0.2169(7) 0.7332(8)
H6_4 H 0.4851 0.2660 0.7112
C13_4 C 0.3652(6) 0.1658(5) 0.8131(5)
H7_4 H 0.3265 0.1795 0.8476
C14_4 C 0.5524(8) 0.5469(6) 0.0731(6)
H8_3 H 0.5186 0.4907 0.0661
C15_4 C 0.6171(9) 0.5622(7) 0.1425(7)
H9_4 H 0.6237 0.5198 0.1840
C16_4 C 0.6734(8) 0.6399(6) 0.1523(6)
H10_4 H 0.7201 0.6498 0.1999
C17_4 C 0.6613(7) 0.7035(5) 0.0922(5)
C18_4 C 0.5898(7) 0.6843(5) 0.0249(6)
C19_4 C 0.7194(6) 0.7873(6) 0.0926(5)
C20_4 C 0.7489(7) 0.8417(6) 0.1595(5)
H12_4 H 0.7348 0.8236 0.2068
C21_4 C 0.7999(6) 0.9239(5) 0.1563(5)
C22_4 C 0.8211(6) 0.9493(5) 0.0870(5)
C23_4 C 0.7980(6) 0.8904(5) 0.0215(5)
C24_4 C 0.7469(6) 0.8109(5) 0.0248(5)
C25_4 C 0.8331(6) 0.9797(6) 0.2293(5)
N2_4 N 0.5334(5) 0.6084(4) 0.0127(4)
C1_4 C 0.3659(7) 0.7470(5) 0.8847(6)
C2_4 C 0.3217(6) 0.8404(5) 0.8708(5)
C3_4 C 0.3702(6) 0.9110(5) 0.8433(5)
H1_4 H 0.4315 0.8997 0.8349
C4_4 C 0.3290(7) 0.9988(5) 0.8279(5)
C6_4 C 0.1851(6) 0.9418(5) 0.8620(5)
C7_4 C 0.2280(6) 0.8555(5) 0.8778(5)
H3_4 H 0.1935 0.8069 0.8934
C8_4 C 0.0831(7) 0.9564(5) 0.8655(5)
H4_4 H 0.4436 0.9954 0.7280
H11_4 H 0.5794 0.7279 0.9841
H14_4 H 0.7304 0.7721 0.9805
C26_4 C 0.8338(7) 0.9113(6) 0.9510(5)
O1_4 O 0.4459(4) 0.7299(3) 0.8671(4)
O2_4 O 0.3263(4) 0.6852(4) 0.9165(4)
O4_4 O 0.0327(4) 0.8843(4) 0.8639(4)
O6_4 O 0.8179(4) 0.8531(4) 0.8949(3)
H8_4 H 0.0186 0.9907 0.0661
loop_
_geom_bond_atom_site_label_1
_geom_bond_atom_site_label_2
_geom_bond_site_symmetry_1
_geom_bond_site_symmetry_2
C15 C14 1_555 1_555
H9 C15 1_555 1_555
C16 C15 1_555 1_555
H10 C16 1_555 1_555
C17 C16 1_555 1_555
C18 C17 1_555 1_555
H11 C18 1_555 1_555
C19 C17 1_555 1_555
C20 C19 1_555 1_555
H12 C20 1_555 1_555
C21 C20 1_555 1_555
C22 C21 1_555 1_555
H13 C22 1_555 1_555
C23 C22 1_555 1_555
C24 C19 1_555 1_555
H14 C24 1_555 1_555
C25 C21 1_555 1_555
C26 C23 1_555 1_555
N2 C14 1_555 1_555
O5 C26 1_555 1_555
O6 C26 1_555 1_555
O7 C25 1_555 1_555
O8 C25 1_555 1_555
Co4 O5 1_555 1_555
Co5 O8 1_555 1_555
Co6 O6 1_555 1_555
Co7 O7 1_555 1_555
C18 N2 1_555 1_555
C23 C24 1_555 1_555
Co6 O4 1_555 1_555
C1 C2 1_555 1_555
C2 C3 1_555 1_555
C3 H1 1_555 1_555
C4 C3 1_555 1_555
C5 C4 1_555 1_555
H2 C5 1_555 1_555
C6 C5 1_555 1_555
C7 C2 1_555 1_555
H3 C7 1_555 1_555
C8 C6 1_555 1_555
C9 C4 1_555 1_555
C10 C9 1_555 1_555
H4 C10 1_555 1_555
C11 C10 1_555 1_555
C12 C11 1_555 1_555
H6 C12 1_555 1_555
C13 C9 1_555 1_555
H7 C13 1_555 1_555
N1 C12 1_555 1_555
O1 Co1 1_555 1_555
O2 Co1 1_555 1_555
O3 C8 1_555 1_555
O4 C8 1_555 1_555
Co4 O3 1_555 1_555
Co8 N1 1_555 1_555
N3 Co6 1_555 1_555
O12 Co6 1_555 1_555
O13 Co1 1_555 1_555
C1 O1 1_555 1_555
C1 O2 1_555 1_555
C6 C7 1_555 1_555
C13 N1 1_555 1_555
C15_2 C14_2 1_555 1_555
H9_2 C15_2 1_555 1_555
C16_2 C15_2 1_555 1_555
H10_2 C16_2 1_555 1_555
C17_2 C16_2 1_555 1_555
C18_2 C17_2 1_555 1_555
C19_2 C17_2 1_555 1_555
C20_2 C19_2 1_555 1_555
H12_2 C20_2 1_555 1_555
C21_2 C20_2 1_555 1_555
C22_2 C21_2 1_555 1_555
H13_2 C22_2 1_555 1_555
C23_2 C22_2 1_555 1_555
C24_2 C19_2 1_555 1_555
C25_2 C21_2 1_555 1_555
N2_2 C14_2 1_555 1_555
O12 C25_2 1_555 1_555
O8_2 C25_2 1_555 1_555
Co4 O8_2 1_555 1_555
C18_2 N2_2 1_555 1_555
C23_2 C24_2 1_555 1_555
O5_2 C26_2 1_555 1_555
O6_2 C26_2 1_555 1_555
Co5 O5_2 1_555 1_555
Co7 O6_2 1_555 1_555
Co7 O4_2 1_555 1_555
C1_2 C2_2 1_555 1_555
C2_2 C3_2 1_555 1_555
C3_2 H1_2 1_555 1_555
C4_2 C3_2 1_555 1_555
C5_2 C4_2 1_555 1_555
H2_2 C5_2 1_555 1_555
C6_2 C5_2 1_555 1_555
C7_2 C2_2 1_555 1_555
H3_2 C7_2 1_555 1_555
C8_2 C6_2 1_555 1_555
C9_2 C4_2 1_555 1_555
C10_2 C9_2 1_555 1_555
H4_2 C10_2 1_555 1_555
C11_2 C10_2 1_555 1_555
C12_2 C11_2 1_555 1_555
H6_2 C12_2 1_555 1_555
C13_2 C9_2 1_555 1_555
H7_2 C13_2 1_555 1_555
N1_2 C12_2 1_555 1_555
O1_2 Co1_2 1_555 1_555
O2_2 Co1_2 1_555 1_555
O3_2 C8_2 1_555 1_555
O4_2 C8_2 1_555 1_555
Co5 O3_2 1_555 1_555
Co8_2 N1_2 1_555 1_555
N3_2 Co7 1_555 1_555
O13_2 Co1_2 1_555 1_555
C1_2 O1_2 1_555 1_555
C1_2 O2_2 1_555 1_555
C6_2 C7_2 1_555 1_555
C13_2 N1_2 1_555 1_555
Co4 N2_3 1_555 1_555
C1_3 C2_3 1_555 1_555
C2_3 C3_3 1_555 1_555
C3_3 H1_3 1_555 1_555
C4_3 C3_3 1_555 1_555
C7_3 C2_3 1_555 1_555
H3_3 C7_3 1_555 1_555
C8_3 C6_3 1_555 1_555
C14_3 H8_2 1_555 1_555
C15_3 C14_3 1_555 1_555
H9_3 C15_3 1_555 1_555
C16_3 C15_3 1_555 1_555
H10_3 C16_3 1_555 1_555
C17_3 C16_3 1_555 1_555
C18_3 C17_3 1_555 1_555
H11_3 C18_3 1_555 1_555
C19_3 C17_3 1_555 1_555
C20_3 C19_3 1_555 1_555
H12_3 C20_3 1_555 1_555
C21_3 C20_3 1_555 1_555
C22_3 C21_3 1_555 1_555
C23_3 C22_3 1_555 1_555
C24_3 C19_3 1_555 1_555
H14_3 C24_3 1_555 1_555
C25_3 C21_3 1_555 1_555
C26_3 C23_3 1_555 1_555
N2_3 C14_3 1_555 1_555
O1_3 Co4 1_555 1_555
O2_3 Co4 1_555 1_555
O4_3 C8_3 1_555 1_555
O10 C26_3 1_555 1_555
O6_3 C26_3 1_555 1_555
O13_2 C25_3 1_555 1_555
Co8 O6_3 1_555 1_555
C1_3 O1_3 1_555 1_555
C1_3 O2_3 1_555 1_555
C6_3 C7_3 1_555 1_555
C18_3 N2_3 1_555 1_555
C23_3 C24_3 1_555 1_555
H2_3 C5_3 1_555 1_555
C10_3 C9_3 1_555 1_555
C11_3 C10_3 1_555 1_555
H5_3 C11_3 1_555 1_555
C12_3 C11_3 1_555 1_555
H6_3 C12_3 1_555 1_555
C13_3 C9_3 1_555 1_555
H7_3 C13_3 1_555 1_555
N3 C12_3 1_555 1_555
Co8_2 O7_2 1_555 1_555
C13_3 N3 1_555 1_555
O12_2 Co8 1_555 1_555
H2_4 C5_4 1_555 1_555
C10_4 C9_4 1_555 1_555
C11_4 C10_4 1_555 1_555
H5_4 C11_4 1_555 1_555
C12_4 C11_4 1_555 1_555
H6_4 C12_4 1_555 1_555
C13_4 C9_4 1_555 1_555
H7_4 C13_4 1_555 1_555
N3_2 C12_4 1_555 1_555
C13_4 N3_2 1_555 1_555
C14_4 H8_3 1_555 1_555
C15_4 C14_4 1_555 1_555
H9_4 C15_4 1_555 1_555
C16_4 C15_4 1_555 1_555
H10_4 C16_4 1_555 1_555
C17_4 C16_4 1_555 1_555
C18_4 C17_4 1_555 1_555
C19_4 C17_4 1_555 1_555
C20_4 C19_4 1_555 1_555
H12_4 C20_4 1_555 1_555
C21_4 C20_4 1_555 1_555
C22_4 C21_4 1_555 1_555
C23_4 C22_4 1_555 1_555
C24_4 C19_4 1_555 1_555
C25_4 C21_4 1_555 1_555
N2_4 C14_4 1_555 1_555
O13 C25_4 1_555 1_555
C18_4 N2_4 1_555 1_555
C23_4 C24_4 1_555 1_555
C1_4 C2_4 1_555 1_555
C2_4 C3_4 1_555 1_555
C3_4 H1_4 1_555 1_555
C4_4 C3_4 1_555 1_555
C7_4 C2_4 1_555 1_555
H3_4 C7_4 1_555 1_555
C8_4 C6_4 1_555 1_555
O1_4 Co5 1_555 1_555
O2_4 Co5 1_555 1_555
O4_4 C8_4 1_555 1_555
O10_2 C26_4 1_555 1_555
O6_4 C26_4 1_555 1_555
Co8_2 O6_4 1_555 1_555
C1_4 O1_4 1_555 1_555
C1_4 O2_4 1_555 1_555
C6_4 C7_4 1_555 1_555

#END
