
###############################################################################
#
# This file contains modified crystal structure data generated from the
# MOF subset of the Cambridge Structural Database (CSD) v543 
# hosted by the Cambridge Crystallographic Data Centre (CCDC).
#
# This work is licensed under the Creative Commons
# Attribution-NonCommercial-ShareAlike 4.0 International License.
# To view a copy of this license, visit
# http://creativecommons.org/licenses/by-nc-sa/4.0/
# or send a letter to
# Creative Commons, PO Box 1866, Mountain View, CA 94042, USA.
#
# CIF created using the CSD Python API on 29 September 2022
# The structure has been converted into the P1 space group
# The structure has a 3D framework
# The original CSD entry DUSVUL is in the monoclinic crystal system
# The framework has been calculated to contain at least 10.0% void space
# The void calculation uses a probe of radius 1.32A, grid spacing 0.4
#
###############################################################################

data_DUSVUL
_chemical_formula_moiety         '(C52 H28 N4 O14)n'
_symmetry_cell_setting           triclinic
_symmetry_space_group_name_H-M   'P 1'
_symmetry_Int_Tables_number      1
_space_group_name_Hall           'P 1'
loop_
_symmetry_equiv_pos_site_id
_symmetry_equiv_pos_as_xyz
1 x,y,z
_cell_length_a                   10.696(2)
_cell_length_b                   13.078(3)
_cell_length_c                   12.460(2)
_cell_angle_alpha                90
_cell_angle_beta                 108.79(3)
_cell_angle_gamma                90
_cell_volume                     1650.04
loop_
_atom_site_label
_atom_site_type_symbol
_atom_site_fract_x
_atom_site_fract_y
_atom_site_fract_z
N1 N 0.7800(2) 0.30770(16) 0.48347(19)
O2 O 0.04616(18) 0.08947(15) 0.12680(16)
O3 O 0.01374(17) 0.35721(15) 0.40032(17)
O4 O 0.18717(17) 0.46428(14) 0.45807(16)
C1 C 0.8387(3) 0.2317(2) 0.5537(3)
H1 H 0.9321 0.2326 0.5866
C2 C 0.7694(3) 0.1525(3) 0.5803(3)
H2 H 0.8139 0.1006 0.6318
C3 C 0.6344(3) 0.1498(2) 0.5305(3)
H3 H 0.5845 0.0957 0.5474
C4 C 0.5718(3) 0.2262(2) 0.4562(2)
C5 C 0.6489(2) 0.3041(2) 0.4355(2)
H4 H 0.6067 0.3573 0.3849
C6 C 0.4255(2) 0.2272(2) 0.4023(2)
C7 C 0.3624(3) 0.1474(2) 0.3311(2)
H5 H 0.4124 0.0920 0.3171
C8 C 0.2259(3) 0.1493(2) 0.2805(2)
C9 C 0.1523(3) 0.2258(2) 0.3073(2)
H6 H 0.0587 0.2248 0.2758
C10 C 0.2144(3) 0.3043(2) 0.3800(2)
C11 C 0.3503(3) 0.3066(2) 0.4245(2)
H7 H 0.3928 0.3625 0.4704
C12 C 0.1609(3) 0.0705(2) 0.1936(2)
C13 C 0.1323(3) 0.3818(2) 0.4151(2)
Co2 Co 0.88851(3) 0.43121(3) 0.46025(3)
Co4 Co 0.11149(3) 0.56879(3) 0.53975(3)
O6 O 0.04616(18) 0.41053(15) 0.62680(16)
O1 O 0.22440(19) 0.99037(14) 0.18884(16)
Co3 Co 0.11149(3) 0.93121(3) 0.03975(3)
O5 O 0.77560(19) 0.49037(14) 0.31116(16)
O7 O 0.81283(17) 0.53572(14) 0.54193(16)
Co5 Co 0.88851(3) 0.06879(3) 0.96025(3)
O7_2 O 0.18717(17) 0.03572(14) 0.95807(16)
N2 N 0.2200(2) 0.80770(16) 0.01653(19)
O2_2 O 0.95384(18) 0.58947(15) 0.37320(16)
O3_2 O 0.98626(17) 0.85721(15) 0.09968(17)
O4_2 O 0.81283(17) 0.96428(14) 0.04193(16)
C4_2 C 0.4282(3) 0.7262(2) 0.0438(2)
C5_2 C 0.3511(2) 0.8041(2) 0.0645(2)
H4_2 H 0.3933 0.8573 0.1151
C6_2 C 0.5745(2) 0.7272(2) 0.0977(2)
C7_2 C 0.6376(3) 0.6474(2) 0.1689(2)
H5_2 H 0.5876 0.5920 0.1829
C8_2 C 0.7741(3) 0.6493(2) 0.2195(2)
C9_2 C 0.8477(3) 0.7258(2) 0.1927(2)
H6_2 H 0.9413 0.7248 0.2242
C10_2 C 0.7856(3) 0.8043(2) 0.1200(2)
C11_2 C 0.6497(3) 0.8066(2) 0.0755(2)
H7_2 H 0.6072 0.8625 0.0296
C12_2 C 0.8391(3) 0.5705(2) 0.3064(2)
C13_2 C 0.8677(3) 0.8818(2) 0.0849(2)
C1_2 C 0.1613(3) 0.7317(2) 0.9463(3)
H1_2 H 0.0679 0.7326 0.9134
C2_2 C 0.2306(3) 0.6525(3) 0.9197(3)
H2_2 H 0.1861 0.6006 0.8682
C3_2 C 0.3656(3) 0.6498(2) 0.9695(3)
H3_2 H 0.4155 0.5957 0.9526
O6_2 O 0.95384(18) 0.91053(15) 0.87320(16)
N2_2 N 0.2200(2) 0.69230(16) 0.51653(19)
O5_2 O 0.22440(19) 0.50963(14) 0.68884(16)
O1_2 O 0.77560(19) 0.00963(14) 0.81116(16)
O3_3 O 0.98626(17) 0.64279(15) 0.59968(17)
C1_3 C 0.1613(3) 0.7683(2) 0.4463(3)
H1_3 H 0.0679 0.7674 0.4134
C2_3 C 0.2306(3) 0.8475(3) 0.4197(3)
H2_3 H 0.1861 0.8994 0.3682
C3_3 C 0.3656(3) 0.8502(2) 0.4695(3)
H3_3 H 0.4155 0.9043 0.4526
C4_3 C 0.4282(3) 0.7738(2) 0.5438(2)
C5_3 C 0.3511(2) 0.6959(2) 0.5645(2)
H4_3 H 0.3933 0.6427 0.6151
C6_3 C 0.5745(2) 0.7728(2) 0.5977(2)
C7_3 C 0.6376(3) 0.8526(2) 0.6689(2)
H5_3 H 0.5876 0.9080 0.6829
C8_3 C 0.7741(3) 0.8507(2) 0.7195(2)
C9_3 C 0.8477(3) 0.7742(2) 0.6927(2)
H6_3 H 0.9413 0.7752 0.7242
C10_3 C 0.7856(3) 0.6957(2) 0.6200(2)
C11_3 C 0.6497(3) 0.6934(2) 0.5755(2)
H7_3 H 0.6072 0.6375 0.5296
C12_3 C 0.8391(3) 0.9295(2) 0.8064(2)
C13_3 C 0.8677(3) 0.6182(2) 0.5849(2)
C1_4 C 0.8387(3) 0.2683(2) 0.0537(3)
H1_4 H 0.9321 0.2674 0.0866
C2_4 C 0.7694(3) 0.3475(3) 0.0803(3)
H2_4 H 0.8139 0.3994 0.1318
C3_4 C 0.6344(3) 0.3502(2) 0.0305(3)
H3_4 H 0.5845 0.4043 0.0474
N1_2 N 0.7800(2) 0.19230(16) 0.98347(19)
O3_4 O 0.01374(17) 0.14279(15) 0.90032(17)
C4_4 C 0.5718(3) 0.2738(2) 0.9562(2)
C5_4 C 0.6489(2) 0.1959(2) 0.9355(2)
H4_4 H 0.6067 0.1427 0.8849
C6_4 C 0.4255(2) 0.2728(2) 0.9023(2)
C7_4 C 0.3624(3) 0.3526(2) 0.8311(2)
H5_4 H 0.4124 0.4080 0.8171
C8_4 C 0.2259(3) 0.3507(2) 0.7805(2)
C9_4 C 0.1523(3) 0.2742(2) 0.8073(2)
H6_4 H 0.0587 0.2752 0.7758
C10_4 C 0.2144(3) 0.1957(2) 0.8800(2)
C11_4 C 0.3503(3) 0.1934(2) 0.9245(2)
H7_4 H 0.3928 0.1375 0.9704
C12_4 C 0.1609(3) 0.4295(2) 0.6936(2)
C13_4 C 0.1323(3) 0.1182(2) 0.9151(2)
loop_
_geom_bond_atom_site_label_1
_geom_bond_atom_site_label_2
_geom_bond_site_symmetry_1
_geom_bond_site_symmetry_2
N1 C1 1_555 1_555
O2 C12 1_555 1_555
O3 C13 1_555 1_555
O4 C13 1_555 1_555
C1 H1 1_555 1_555
C2 C1 1_555 1_555
H2 C2 1_555 1_555
C3 C2 1_555 1_555
H3 C3 1_555 1_555
C4 C3 1_555 1_555
C5 N1 1_555 1_555
H4 C5 1_555 1_555
C6 C4 1_555 1_555
C7 C6 1_555 1_555
H5 C7 1_555 1_555
C8 C7 1_555 1_555
C9 C8 1_555 1_555
H6 C9 1_555 1_555
C10 C9 1_555 1_555
C11 C6 1_555 1_555
H7 C11 1_555 1_555
C12 C8 1_555 1_555
C13 C10 1_555 1_555
Co2 N1 1_555 1_555
O4 Co4 1_555 1_555
C4 C5 1_555 1_555
C10 C11 1_555 1_555
Co3 O1 1_555 1_555
O5 Co2 1_555 1_555
O7 Co2 1_555 1_555
N2 Co3 1_555 1_555
O5 C12_2 1_555 1_555
O2_2 C12_2 1_555 1_555
O3_2 C13_2 1_555 1_555
O4_2 C13_2 1_555 1_555
C5_2 N2 1_555 1_555
H4_2 C5_2 1_555 1_555
C6_2 C4_2 1_555 1_555
C7_2 C6_2 1_555 1_555
H5_2 C7_2 1_555 1_555
C8_2 C7_2 1_555 1_555
C9_2 C8_2 1_555 1_555
H6_2 C9_2 1_555 1_555
C10_2 C9_2 1_555 1_555
C11_2 C6_2 1_555 1_555
H7_2 C11_2 1_555 1_555
C12_2 C8_2 1_555 1_555
C13_2 C10_2 1_555 1_555
C4_2 C5_2 1_555 1_555
C10_2 C11_2 1_555 1_555
C1_2 H1_2 1_555 1_555
C2_2 C1_2 1_555 1_555
H2_2 C2_2 1_555 1_555
C3_2 C2_2 1_555 1_555
H3_2 C3_2 1_555 1_555
N2_2 Co4 1_555 1_555
O5_2 Co4 1_555 1_555
Co5 O1_2 1_555 1_555
N2_2 C1_3 1_555 1_555
O6_2 C12_3 1_555 1_555
O3_3 C13_3 1_555 1_555
O7 C13_3 1_555 1_555
C1_3 H1_3 1_555 1_555
C2_3 C1_3 1_555 1_555
H2_3 C2_3 1_555 1_555
C3_3 C2_3 1_555 1_555
H3_3 C3_3 1_555 1_555
C4_3 C3_3 1_555 1_555
C5_3 N2_2 1_555 1_555
H4_3 C5_3 1_555 1_555
C6_3 C4_3 1_555 1_555
C7_3 C6_3 1_555 1_555
H5_3 C7_3 1_555 1_555
C8_3 C7_3 1_555 1_555
C9_3 C8_3 1_555 1_555
H6_3 C9_3 1_555 1_555
C10_3 C9_3 1_555 1_555
C11_3 C6_3 1_555 1_555
H7_3 C11_3 1_555 1_555
C12_3 C8_3 1_555 1_555
C13_3 C10_3 1_555 1_555
C4_3 C5_3 1_555 1_555
C10_3 C11_3 1_555 1_555
C1_4 H1_4 1_555 1_555
C2_4 C1_4 1_555 1_555
H2_4 C2_4 1_555 1_555
C3_4 C2_4 1_555 1_555
H3_4 C3_4 1_555 1_555
O5_2 C12_4 1_555 1_555
O6 C12_4 1_555 1_555
O3_4 C13_4 1_555 1_555
O7_2 C13_4 1_555 1_555
C5_4 N1_2 1_555 1_555
H4_4 C5_4 1_555 1_555
C6_4 C4_4 1_555 1_555
C7_4 C6_4 1_555 1_555
H5_4 C7_4 1_555 1_555
C8_4 C7_4 1_555 1_555
C9_4 C8_4 1_555 1_555
H6_4 C9_4 1_555 1_555
C10_4 C9_4 1_555 1_555
C11_4 C6_4 1_555 1_555
H7_4 C11_4 1_555 1_555
C12_4 C8_4 1_555 1_555
C13_4 C10_4 1_555 1_555
Co5 N1_2 1_555 1_555
C4_4 C5_4 1_555 1_555
C10_4 C11_4 1_555 1_555

#END
