
###############################################################################
#
# This file contains modified crystal structure data generated from the
# MOF subset of the Cambridge Structural Database (CSD) v543 
# hosted by the Cambridge Crystallographic Data Centre (CCDC).
#
# This work is licensed under the Creative Commons
# Attribution-NonCommercial-ShareAlike 4.0 International License.
# To view a copy of this license, visit
# http://creativecommons.org/licenses/by-nc-sa/4.0/
# or send a letter to
# Creative Commons, PO Box 1866, Mountain View, CA 94042, USA.
#
# CIF created using the CSD Python API on 29 September 2022
# The structure has been converted into the P1 space group
# The structure has a 3D framework
# The original CSD entry DUSVOF is in the triclinic crystal system
# The original CSD entry DUSVOF is in a Sohncke space group
# The framework has been calculated to contain at least 10.0% void space
# The void calculation uses a probe of radius 1.32A, grid spacing 0.4
#
###############################################################################

data_DUSVOF
_chemical_formula_moiety         '(C58 H42 Co4 N6 O17)n'
_symmetry_cell_setting           triclinic
_symmetry_space_group_name_H-M   'P 1'
_symmetry_Int_Tables_number      1
_space_group_name_Hall           'P 1'
loop_
_symmetry_equiv_pos_site_id
_symmetry_equiv_pos_as_xyz
1 x,y,z
_cell_length_a                   10.298(10)
_cell_length_b                   10.352(10)
_cell_length_c                   17.615(17)
_cell_angle_alpha                105.643(16)
_cell_angle_beta                 103.514(15)
_cell_angle_gamma                90.658(14)
_cell_volume                     1752.65
loop_
_atom_site_label
_atom_site_type_symbol
_atom_site_fract_x
_atom_site_fract_y
_atom_site_fract_z
_atom_site_U_iso_or_equiv
_atom_site_thermal_displace_type
C27 C 0.2219(16) 0.3948(16) 0.8021(12) 0.0528 Uani
H15 H 0.2016 0.4741 0.7883 0.0630 Uiso
C28 C 0.3164(16) 0.3164(16) 0.7676(12) 0.0553 Uani
H16 H 0.3634 0.3462 0.7356 0.0670 Uiso
C29 C 0.1784(12) 0.2370(12) 0.8634(9) 0.0337 Uani
H17 H 0.1320 0.2083 0.8960 0.0410 Uiso
C30 C 0.3359(15) 0.1922(15) 0.7838(11) 0.0505 Uani
H18 H 0.4003 0.1401 0.7641 0.0610 Uiso
C31 C 0.2627(13) 0.1447(13) 0.8279(10) 0.0420 Uani
C32 C 0.2739(13) 0.0148(13) 0.8466(10) 0.0412 Uani
H20 H 0.4661 0.0008 0.8519 0.0480 Uiso
N3 N 0.1579(10) 0.3588(10) 0.8557(9) 0.0431 Uani
Co12 Co 0.00180(13) 0.47397(13) 0.89717(10) 0.0278 Uani
C57 C 0.041(2) 0.132(3) 0.023(2) 0.1203 Uani
H38 H 0.0429 0.0715 0.0565 0.1810 Uiso
H39 H 0.1078 0.2053 0.0509 0.1810 Uiso
O20 O 0.0651(8) 0.6353(10) 0.0099(7) 0.0439 Uani
C33 C 0.1584(12) 0.9396(12) 0.8494(10) 0.0383 Uani
H19 H 0.0783 0.9809 0.8459 0.0460 Uiso
C34 C 0.3896(13) 0.9548(13) 0.8541(10) 0.0400 Uani
C35 C 0.1571(12) 0.8132(12) 0.8565(9) 0.0372 Uani
C36 C 0.3996(13) 0.8268(12) 0.8651(10) 0.0384 Uani
C37 C 0.2903(13) 0.7602(13) 0.8680(10) 0.0404 Uani
H21 H 0.2984 0.6764 0.8777 0.0490 Uiso
C38 C 0.5348(15) 0.7636(14) 0.8699(11) 0.0487 Uani
C39 C 0.0426(12) 0.7356(12) 0.8539(9) 0.0353 Uani
C41 C 0.1836(17) 0.5553(17) 0.4306(12) 0.0601 Uani
H23 H 0.2766 0.5564 0.4430 0.0720 Uiso
C42 C 0.1314(17) 0.6671(17) 0.4337(11) 0.0619 Uani
H24 H 0.1856 0.7465 0.4472 0.0740 Uiso
H37 H 0.0600 0.0841 0.9725 0.1810 Uiso
N4 N 0.1117(11) 0.4339(12) 0.4103(10) 0.0522 Uani
O14 O 0.0426(11) 0.6060(8) 0.8355(7) 0.0473 Uani
O15 O 0.5339(13) 0.6413(11) 0.8633(11) 0.0845 Uani
O16 O 0.6339(10) 0.8286(12) 0.8724(8) 0.0546 Uani
O18 O 0.0025(11) 0.3565(11) 0.9749(7) 0.0498 Uani
Co5 Co 0.21107(14) 0.25783(14) 0.41176(11) 0.0303 Uani
Co10 Co 0.75860(13) 0.67485(13) 0.84215(10) 0.0267 Uani
Co7 Co 0.41092(13) 0.01614(13) 0.33833(10) 0.0274 Uani
C6 C 0.6290(13) 0.0142(11) 0.6447(9) 0.0348 Uani
C7 C 0.6954(13) 0.1162(11) 0.7042(8) 0.0327 Uani
H5 H 0.7604 0.0993 0.7461 0.0390 Uiso
C8 C 0.6702(12) 0.2517(10) 0.7058(8) 0.0301 Uani
C9 C 0.5712(11) 0.2739(11) 0.6465(8) 0.0310 Uani
H6 H 0.5503 0.3616 0.6481 0.0370 Uiso
C10 C 0.5260(13) 0.0352(11) 0.5832(9) 0.0345 Uani
C11 C 0.4994(12) 0.1671(11) 0.5824(8) 0.0316 Uani
C12 C 0.4004(12) 0.1962(12) 0.5125(9) 0.0330 Uani
C25 C 0.1051(11) 0.0274(12) 0.2704(8) 0.0304 Uani
C26 C 0.7569(12) 0.3675(11) 0.7713(8) 0.0305 Uani
C40 C 0.9867(17) 0.6693(17) 0.4160(12) 0.0620 Uani
H22 H 0.9464 0.7497 0.4181 0.0740 Uiso
C43 C 0.9790(13) 0.4331(14) 0.3906(11) 0.0452 Uani
H25 H 0.9296 0.3501 0.3721 0.0540 Uiso
C44 C 0.9093(14) 0.5473(14) 0.3958(11) 0.0473 Uani
C45 C 0.7606(13) 0.5416(13) 0.3745(10) 0.0411 Uani
C46 C 0.6934(12) 0.6595(13) 0.3693(10) 0.0402 Uani
H26 H 0.7438 0.7372 0.3733 0.0480 Uiso
C47 C 0.6832(11) 0.4249(12) 0.3678(10) 0.0359 Uani
H27 H 0.7248 0.3466 0.3708 0.0430 Uiso
C48 C 0.5424(11) 0.4246(12) 0.3564(9) 0.0351 Uani
C49 C 0.5606(12) 0.6630(12) 0.3589(10) 0.0366 Uani
C50 C 0.4806(12) 0.5419(13) 0.3486(10) 0.0378 Uani
H28 H 0.3877 0.5414 0.3368 0.0450 Uiso
C51 C 0.4944(14) 0.7922(15) 0.3548(11) 0.0472 Uani
C52 C 0.4634(12) 0.3014(12) 0.3565(9) 0.0339 Uani
C53 C 0.0668(18) 0.153(2) 0.5182(11) 0.0960 Uani
H29 H 0.1334 0.0945 0.5250 0.1150 Uiso
H35 H 0.0293 0.0766 0.6429 0.1440 Uiso
C56 C 0.904(2) 0.297(2) 0.9752(12) 0.1203 Uani
H36 H 0.8209 0.3242 0.9538 0.1440 Uiso
C58 C 0.792(2) 0.103(3) 0.994(2) 0.1203 Uani
H42 H 0.7642 0.0532 0.9382 0.1810 Uiso
O1 O 0.3473(8) 0.0982(8) 0.4496(6) 0.0347 Uani
O2 O 0.3646(10) 0.3140(10) 0.5203(7) 0.0478 Uani
O4 O 0.0747(9) 0.1375(9) 0.3177(6) 0.0402 Uani
O5 O 0.5245(8) 0.1983(8) 0.3643(7) 0.0387 Uani
O6 O 0.3376(8) 0.3114(10) 0.3498(8) 0.0463 Uani
O9 O 0.3664(10) 0.7886(11) 0.3376(10) 0.0683 Uani
O10 O 0.5635(10) 0.8930(9) 0.3706(7) 0.0456 Uani
O11 O 0.7127(11) 0.4809(8) 0.7788(6) 0.0454 Uani
O12 O 0.8640(8) 0.3385(8) 0.8127(7) 0.0416 Uani
O13 O 0.9319(8) 0.7949(8) 0.8629(6) 0.0370 Uani
O17 O 0.0796(12) 0.2336(13) 0.4832(8) 0.0618 Uani
N7 N 0.7154(11) 0.7127(9) 0.7237(7) 0.0376 Uani
O19 O 0.8549(8) 0.6095(8) 0.9442(5) 0.0307 Uani
C1 C 0.7256(16) 0.6170(13) 0.6543(10) 0.0465 Uani
H1 H 0.7524 0.5328 0.6577 0.0560 Uiso
C2 C 0.6962(16) 0.6443(14) 0.5780(10) 0.0501 Uani
H2 H 0.7000 0.5783 0.5309 0.0600 Uiso
C3 C 0.6613(15) 0.7738(13) 0.5754(10) 0.0449 Uani
H3 H 0.6394 0.7927 0.5254 0.0540 Uiso
C4 C 0.6845(13) 0.8378(11) 0.7170(9) 0.0362 Uani
H4 H 0.6804 0.9041 0.7639 0.0440 Uiso
C5 C 0.6585(14) 0.8717(12) 0.6433(9) 0.0376 Uani
H7 H 0.4756 0.9626 0.5432 0.0410 Uiso
C23 C 0.0237(11) 0.8483(11) 0.1380(8) 0.0291 Uani
H14 H 0.1113 0.8253 0.1402 0.0350 Uiso
O3 O 0.2196(8) 0.9898(9) 0.2736(6) 0.0372 Uani
N8 N 0.4554(10) 0.9824(12) 0.2173(8) 0.0385 Uani
H8 H 0.2810 0.0128 0.1596 0.0510 Uiso
H9 H 0.3397 0.0067 0.0351 0.0530 Uiso
H13 H 0.8462 0.0390 0.2454 0.0400 Uiso
C54 C 0.865(2) 0.248(2) 0.5429(17) 0.0960 Uani
H30 H 0.8487 0.2564 0.4887 0.1440 Uiso
H31 H 0.9055 0.3310 0.5811 0.1440 Uiso
H32 H 0.7811 0.2258 0.5537 0.1440 Uiso
C55 C 0.950(2) 0.057(2) 0.5990(15) 0.0960 Uani
H34 H 0.8724 0.0689 0.6207 0.1440 Uiso
N5 N 0.9522(17) 0.1426(18) 0.5508(11) 0.0865 Uani
C13 C 0.3678(13) 0.9964(15) 0.1550(9) 0.0422 Uani
C14 C 0.4001(13) 0.9872(15) 0.0780(10) 0.0441 Uani
C15 C 0.5250(13) 0.9481(15) 0.0724(9) 0.0426 Uani
H10 H 0.5456 0.9270 0.0220 0.0510 Uiso
C16 C 0.5747(12) 0.9521(13) 0.2124(9) 0.0370 Uani
H11 H 0.6345 0.9379 0.2573 0.0440 Uiso
C17 C 0.6177(12) 0.9395(14) 0.1377(9) 0.0380 Uani
C18 C 0.7566(12) 0.9066(13) 0.1355(8) 0.0340 Uani
C19 C 0.7828(11) 0.8034(12) 0.0708(8) 0.0325 Uani
H12 H 0.7136 0.7530 0.0288 0.0390 Uiso
C20 C 0.8645(11) 0.9760(12) 0.2011(8) 0.0326 Uani
C21 C 0.9185(11) 0.7800(12) 0.0725(8) 0.0300 Uani
C22 C 0.9947(11) 0.9522(12) 0.2006(8) 0.0309 Uani
C24 C 0.9483(11) 0.6695(12) 0.0061(8) 0.0297 Uani
H33 H 0.9471 0.9652 0.5668 0.1440 Uiso
H40 H 0.7230 0.1596 0.0087 0.1810 Uiso
H41 H 0.8081 0.0423 0.0275 0.1810 Uiso
N6 N 0.9088(17) 0.1830(18) 0.0075(13) 0.0919 Uani
loop_
_atom_site_aniso_label
_atom_site_aniso_U_11
_atom_site_aniso_U_22
_atom_site_aniso_U_33
_atom_site_aniso_U_23
_atom_site_aniso_U_13
_atom_site_aniso_U_12
C27 0.049 0.041 0.074 0.017 0.025 0.007
C28 0.049 0.041 0.08 0.015 0.026 0.006
C29 0.027 0.026 0.059 0.02 0.022 0.007
C30 0.041 0.038 0.074 0.012 0.021 0.009
C31 0.032 0.029 0.069 0.014 0.02 0.004
C32 0.031 0.027 0.067 0.013 0.015 0.005
N3 0.026 0.017 0.094 0.016 0.029 0.001
Co12 0.0201 0.0147 0.0433 0.0032 0.0032 0.0038
C57 0.121 0.12 0.12 0.0339 0.0294 0.0097
O20 0.023 0.043 0.054 -0.004 0.007 0.006
C33 0.031 0.024 0.064 0.016 0.015 0.015
C34 0.031 0.028 0.064 0.013 0.017 0.011
C35 0.028 0.026 0.062 0.016 0.015 0.007
C36 0.034 0.026 0.058 0.013 0.015 0.008
C37 0.031 0.026 0.064 0.013 0.01 0.016
C38 0.04 0.032 0.067 0.007 0.007 0.012
C39 0.033 0.02 0.056 0.014 0.013 0.008
C41 0.042 0.043 0.087 0.012 0.007 0.004
C42 0.045 0.045 0.089 0.014 0.009 0.002
N4 0.021 0.035 0.086 -0.008 0.014 0.002
O14 0.061 0.014 0.072 0.009 0.03 0.001
O15 0.064 0.027 0.142 0.02 -0.011 0.021
O16 0.029 0.07 0.081 0.04 0.022 0.018
O18 0.05 0.05 0.05 0.0144 0.0128 0.004
Co5 0.0187 0.025 0.0401 0.0022 0.0012 0.0038
Co10 0.0209 0.0124 0.0425 0.0047 0.0029 0.0039
Co7 0.0144 0.0217 0.0429 0.006 0.0041 0.0061
C6 0.041 0.018 0.042 0.008 0.004 0.007
C7 0.039 0.019 0.039 0.012 0.003 0.006
C8 0.035 0.014 0.04 0.01 0.004 0.003
C9 0.028 0.02 0.043 0.006 0.008 0.005
C10 0.038 0.018 0.044 0.008 0.004 0.004
C11 0.031 0.018 0.044 0.01 0.004 0.01
C12 0.028 0.027 0.046 0.012 0.011 0.005
C25 0.017 0.032 0.032 -0.001 -0.002 0
C26 0.033 0.018 0.04 0.014 0.001 0.006
C40 0.046 0.044 0.087 0.015 0.003 0.005
C43 0.031 0.03 0.074 0.017 0.009 0.005
C44 0.033 0.034 0.075 0.017 0.011 0.007
C45 0.028 0.029 0.071 0.021 0.013 0.007
C46 0.026 0.029 0.068 0.017 0.012 0.011
C47 0.02 0.026 0.067 0.018 0.015 0.009
C48 0.021 0.025 0.064 0.017 0.014 0.009
C49 0.025 0.028 0.063 0.02 0.014 0.011
C50 0.028 0.029 0.063 0.022 0.013 0.008
C51 0.035 0.035 0.071 0.015 0.011 0.02
C52 0.026 0.027 0.054 0.018 0.012 0.005
C53 0.096 0.096 0.096 0.0266 0.0237 0.0076
C56 0.121 0.12 0.12 0.0339 0.0294 0.0097
C58 0.121 0.12 0.12 0.0339 0.0294 0.0097
O1 0.019 0.022 0.054 0.002 0.002 -0.008
O2 0.048 0.031 0.053 0.005 -0.003 0.023
O4 0.026 0.033 0.041 -0.012 -0.006 0.007
O5 0.022 0.022 0.074 0.012 0.017 0.006
O6 0.015 0.04 0.097 0.04 0.015 0.002
O9 0.028 0.04 0.131 0.021 0.011 0.015
O10 0.045 0.022 0.065 0.011 0.005 0.02
O11 0.062 0.012 0.041 0.001 -0.021 0.003
O12 0.023 0.015 0.07 -0.001 -0.006 0.002
O13 0.019 0.027 0.064 0.011 0.01 0.007
O17 0.062 0.062 0.062 0.0178 0.0157 0.0051
N7 0.05 0.008 0.045 0.003 -0.002 -0.005
O19 0.027 0.018 0.03 -0.008 -0.009 -0.001
C1 0.062 0.025 0.047 0.005 0.009 0.002
C2 0.063 0.031 0.049 0.003 0.009 0.008
C3 0.055 0.026 0.046 0.006 0.002 0.005
C4 0.045 0.015 0.044 0.005 0.006 0.005
C5 0.046 0.019 0.043 0.01 0 0.004
C23 0.019 0.029 0.031 -0.001 0.001 -0.001
O3 0.014 0.047 0.042 -0.001 0.006 0.004
N8 0.025 0.04 0.054 0.013 0.016 0.012
C54 0.096 0.096 0.096 0.0266 0.0237 0.0076
C55 0.096 0.096 0.096 0.0266 0.0237 0.0076
N5 0.086 0.087 0.087 0.0244 0.0221 0.006
C13 0.027 0.049 0.041 0.006 -0.003 0.014
C14 0.029 0.052 0.042 0.006 -0.001 0.009
C15 0.033 0.047 0.037 0.003 -0.002 0.007
C16 0.022 0.04 0.04 0.002 0.001 0.006
C17 0.023 0.043 0.035 -0.004 -0.001 0.006
C18 0.024 0.036 0.033 -0.002 0.003 0.005
C19 0.019 0.035 0.034 -0.002 0.002 0.002
C20 0.023 0.033 0.033 0.001 -0.001 0.008
C21 0.02 0.028 0.032 -0.003 0 0.005
C22 0.016 0.035 0.032 -0.004 0.003 0.002
C24 0.016 0.028 0.034 -0.004 -0.001 0.008
N6 0.092 0.092 0.092 0.026 0.0228 0.0067
loop_
_geom_bond_atom_site_label_1
_geom_bond_atom_site_label_2
_geom_bond_site_symmetry_1
_geom_bond_site_symmetry_2
C27 H15 1_555 1_555
C28 C27 1_555 1_555
H16 C28 1_555 1_555
C29 H17 1_555 1_555
C30 C28 1_555 1_555
H18 C30 1_555 1_555
C31 C29 1_555 1_555
C32 C31 1_555 1_555
N3 C27 1_555 1_555
Co12 N3 1_555 1_555
C29 N3 1_555 1_555
C30 C31 1_555 1_555
H38 C57 1_555 1_555
H39 C57 1_555 1_555
H19 C33 1_555 1_555
C35 C33 1_555 1_555
C36 C34 1_555 1_555
C37 C35 1_555 1_555
H21 C37 1_555 1_555
C38 C36 1_555 1_555
C39 C35 1_555 1_555
C41 H23 1_555 1_555
H24 C42 1_555 1_555
N4 C41 1_555 1_555
O14 Co12 1_555 1_555
O15 C38 1_555 1_555
O16 C38 1_555 1_555
O18 Co12 1_555 1_555
Co5 N4 1_555 1_555
Co10 O16 1_555 1_555
C36 C37 1_555 1_555
C39 O14 1_555 1_555
C41 C42 1_555 1_555
Co5 O1 1_555 1_555
Co7 O1 1_555 1_555
Co10 O11 1_555 1_555
C7 C6 1_555 1_555
H5 C7 1_555 1_555
C8 C7 1_555 1_555
C9 C8 1_555 1_555
H6 C9 1_555 1_555
C10 C6 1_555 1_555
C11 C9 1_555 1_555
C12 C11 1_555 1_555
C26 C8 1_555 1_555
C40 H22 1_555 1_555
C43 H25 1_555 1_555
C44 C40 1_555 1_555
C45 C44 1_555 1_555
C46 C45 1_555 1_555
H26 C46 1_555 1_555
C47 C45 1_555 1_555
H27 C47 1_555 1_555
C48 C47 1_555 1_555
C49 C46 1_555 1_555
C50 C48 1_555 1_555
H28 C50 1_555 1_555
C51 C49 1_555 1_555
C52 C48 1_555 1_555
C53 H29 1_555 1_555
C56 H36 1_555 1_555
H42 C58 1_555 1_555
O1 C12 1_555 1_555
O2 Co5 1_555 1_555
O4 Co5 1_555 1_555
O5 Co7 1_555 1_555
O6 Co5 1_555 1_555
O9 C51 1_555 1_555
O10 C51 1_555 1_555
O11 C26 1_555 1_555
O12 C26 1_555 1_555
O13 Co10 1_555 1_555
O17 Co5 1_555 1_555
N7 Co10 1_555 1_555
O19 Co10 1_555 1_555
C10 C11 1_555 1_555
C12 O2 1_555 1_555
C25 O4 1_555 1_555
C43 C44 1_555 1_555
C49 C50 1_555 1_555
C52 O5 1_555 1_555
C52 O6 1_555 1_555
C53 O17 1_555 1_555
C1 H1 1_555 1_555
C2 C1 1_555 1_555
H2 C2 1_555 1_555
C3 C2 1_555 1_555
H3 C3 1_555 1_555
C4 H4 1_555 1_555
C5 C3 1_555 1_555
H14 C23 1_555 1_555
N7 C1 1_555 1_555
C4 C5 1_555 1_555
C4 N7 1_555 1_555
C54 H30 1_555 1_555
H31 C54 1_555 1_555
H32 C54 1_555 1_555
H34 C55 1_555 1_555
C54 N5 1_555 1_555
C55 N5 1_555 1_555
C14 C13 1_555 1_555
C15 C14 1_555 1_555
H10 C15 1_555 1_555
C16 H11 1_555 1_555
C17 C15 1_555 1_555
C18 C17 1_555 1_555
C19 C18 1_555 1_555
H12 C19 1_555 1_555
C20 C18 1_555 1_555
C21 C19 1_555 1_555
C22 C20 1_555 1_555
C24 C21 1_555 1_555
N8 C13 1_555 1_555
C16 C17 1_555 1_555
C16 N8 1_555 1_555

#END
