
###############################################################################
#
# This file contains modified crystal structure data generated from the
# MOF subset of the Cambridge Structural Database (CSD) v543 
# hosted by the Cambridge Crystallographic Data Centre (CCDC).
#
# This work is licensed under the Creative Commons
# Attribution-NonCommercial-ShareAlike 4.0 International License.
# To view a copy of this license, visit
# http://creativecommons.org/licenses/by-nc-sa/4.0/
# or send a letter to
# Creative Commons, PO Box 1866, Mountain View, CA 94042, USA.
#
# CIF created using the CSD Python API on 29 September 2022
# The structure has been converted into the P1 space group
# The structure has a 3D framework
# The original CSD entry DUVNOA is in the tetragonal crystal system
# The framework has been calculated to contain at least 10.0% void space
# The void calculation uses a probe of radius 1.32A, grid spacing 0.4
# H atom positions have been added when not included in the experimental data
# Generated hydrogen atom positions removed from atoms on special positions
#
###############################################################################

data_DUVNOA
_chemical_formula_moiety         '(C56 H40 Bi5 O38)n'
_symmetry_cell_setting           triclinic
_symmetry_space_group_name_H-M   'P 1'
_symmetry_Int_Tables_number      1
_space_group_name_Hall           'P 1'
loop_
_symmetry_equiv_pos_site_id
_symmetry_equiv_pos_as_xyz
1 x,y,z
_cell_length_a                   18.6217(3)
_cell_length_b                   18.6217(3)
_cell_length_c                   5.54658(13)
_cell_angle_alpha                90
_cell_angle_beta                 90
_cell_angle_gamma                90
_cell_volume                     1923.37
loop_
_atom_site_label
_atom_site_type_symbol
_atom_site_fract_x
_atom_site_fract_y
_atom_site_fract_z
_atom_site_U_iso_or_equiv
_atom_site_thermal_displace_type
O3 O 0.3844(6) 0.4435(8) 0.016(3) 0.0271 Uiso
Bi1 Bi 0.34545(5) 0.78490(3) 0.44455(15) 0.0138 Uiso
O1 O 0.3412(7) 0.6689(7) 0.5717(16) 0.0271 Uiso
O2 O 0.4113(7) 0.7342(8) 0.1784(16) 0.0271 Uiso
O4 O 0.3912(4) 0.5367(5) 0.7532(15) 0.0271 Uiso
O5 O 0.25000 0.75000 0.726(4) 0.0100 Uiso
O6 O 0.4656(8) 0.7733(6) 0.6969(18) 0.0100 Uiso
C1 C 0.4253(3) 0.5684(4) 0.5622(9) 0.0271 Uiso
C2 C 0.3996(5) 0.6364(6) 0.4688(11) 0.0271 Uiso
C3 C 0.4356(5) 0.6700(7) 0.2666(13) 0.0271 Uiso
C4 C 0.4975(4) 0.6356(6) 0.1577(14) 0.0271 Uiso
C5 C 0.5232(3) 0.5676(4) 0.2511(10) 0.0271 Uiso
C6 C 0.48712(18) 0.5340(4) 0.4533(6) 0.0271 Uiso
C7 C 0.4156(4) 0.4724(7) 0.8414(16) 0.0271 Uiso
O7 O 0.6588(7) 0.3311(7) 0.4283(16) 0.0271 Uiso
O8 O 0.5887(7) 0.2658(8) 0.8216(16) 0.0271 Uiso
O10 O 0.6088(4) 0.4633(5) 0.2468(15) 0.0271 Uiso
C8 C 0.5747(3) 0.4316(4) 0.4378(9) 0.0271 Uiso
C9 C 0.6004(5) 0.3636(6) 0.5312(11) 0.0271 Uiso
C10 C 0.5644(5) 0.3300(7) 0.7334(13) 0.0271 Uiso
C11 C 0.5025(4) 0.3644(6) 0.8423(14) 0.0271 Uiso
C12 C 0.4768(3) 0.4324(4) 0.7489(10) 0.0271 Uiso
C13 C 0.51288(18) 0.4660(4) 0.5467(6) 0.0271 Uiso
C14 C 0.5844(4) 0.5276(7) 0.1586(16) 0.0271 Uiso
Bi2 Bi 0.15455(5) 0.71510(3) 0.44455(15) 0.0138 Uiso
O11 O 0.0344(8) 0.7267(6) 0.6969(18) 0.0100 Uiso
Bi3 Bi 0.21510(3) 0.84545(5) 0.94455(15) 0.0138 Uiso
Bi4 Bi 0.28490(3) 0.65455(5) 0.94455(15) 0.0138 Uiso
Bi5 Bi 0.65455(5) 0.21510(3) 0.55545(15) 0.0138 Uiso
Bi6 Bi 0.71510(3) 0.34545(5) 0.05545(15) 0.0138 Uiso
O12 O 0.3311(7) 0.8412(7) 0.0717(16) 0.0271 Uiso
O13 O 0.1588(7) 0.8311(7) 0.5717(16) 0.0271 Uiso
O14 O 0.1689(7) 0.6588(7) 0.0717(16) 0.0271 Uiso
O15 O 0.0887(7) 0.7658(8) 0.1784(16) 0.0271 Uiso
O16 O 0.25000 0.75000 0.226(4) 0.0100 Uiso
H1 H 0.475352 0.339152 0.994142 . .
H6 H 0.524648 0.660848 0.0058584 . .
O8_2 O 0.7342(8) 0.0887(7) 0.3216(16) 0.0271 Uiso
C9_2 C 0.6364(6) 0.1004(5) 0.0312(11) 0.0271 Uiso
C10_2 C 0.6700(7) 0.0644(5) 0.2334(13) 0.0271 Uiso
C11_2 C 0.6356(6) 0.0025(4) 0.3423(14) 0.0271 Uiso
C13_2 C 0.5340(4) 0.01288(18) 0.0467(6) 0.0271 Uiso
Bi5_2 Bi 0.78490(3) 0.15455(5) 0.05545(15) 0.0138 Uiso
C5_2 C 0.4324(4) 0.0232(3) 0.7511(10) 0.0271 Uiso
O7_2 O 0.6689(7) 0.1588(7) 0.9283(16) 0.0271 Uiso
O9 O 0.4435(8) 0.1156(6) 0.484(3) 0.0271 Uiso
O10_2 O 0.5367(5) 0.1088(4) 0.7468(15) 0.0271 Uiso
C8_2 C 0.5684(4) 0.0747(3) 0.9378(9) 0.0271 Uiso
C14_2 C 0.4724(7) 0.0844(4) 0.6586(16) 0.0271 Uiso
H6_2 H 0.339152 0.0246481 0.505858 . .
O3_2 O 0.5565(8) 0.8844(6) 0.516(3) 0.0271 Uiso
O4_2 O 0.4633(5) 0.8912(4) 0.2532(15) 0.0271 Uiso
O6_2 O 0.2267(6) 0.9656(8) 0.1969(18) 0.0100 Uiso
C1_2 C 0.4316(4) 0.9253(3) 0.0622(9) 0.0271 Uiso
C7_2 C 0.5276(7) 0.9156(4) 0.3414(16) 0.0271 Uiso
C12_2 C 0.5676(4) 0.9768(3) 0.2489(10) 0.0271 Uiso
O11_2 O 0.2733(6) 0.5344(8) 0.1969(18) 0.0100 Uiso
H1_2 H 0.660848 0.975352 0.494142 . .
O2_2 O 0.2658(8) 0.9113(7) 0.6784(16) 0.0271 Uiso
C2_2 C 0.3636(6) 0.8996(5) 0.9688(11) 0.0271 Uiso
C3_2 C 0.3300(7) 0.9356(5) 0.7666(13) 0.0271 Uiso
C4_2 C 0.3644(6) 0.9975(4) 0.6577(14) 0.0271 Uiso
C6_2 C 0.4660(4) 0.98712(18) 0.9533(6) 0.0271 Uiso
O15_2 O 0.2342(8) 0.5887(7) 0.6784(16) 0.0271 Uiso
O4_3 O 0.1088(4) 0.9633(5) 0.7532(15) 0.0271 Uiso
C1_3 C 0.0747(3) 0.9316(4) 0.5622(9) 0.0271 Uiso
C2_3 C 0.1004(5) 0.8636(6) 0.4688(11) 0.0271 Uiso
C3_3 C 0.0644(5) 0.8300(7) 0.2666(13) 0.0271 Uiso
C4_3 C 0.0025(4) 0.8644(6) 0.1577(14) 0.0271 Uiso
C6_3 C 0.01288(18) 0.9660(4) 0.4533(6) 0.0271 Uiso
O7_3 O 0.8412(7) 0.1689(7) 0.4283(16) 0.0271 Uiso
O8_3 O 0.9113(7) 0.2342(8) 0.8216(16) 0.0271 Uiso
O10_3 O 0.8912(4) 0.0367(5) 0.2468(15) 0.0271 Uiso
C8_3 C 0.9253(3) 0.0684(4) 0.4378(9) 0.0271 Uiso
C9_3 C 0.8996(5) 0.1364(6) 0.5312(11) 0.0271 Uiso
C10_3 C 0.9356(5) 0.1700(7) 0.7334(13) 0.0271 Uiso
C11_3 C 0.9975(4) 0.1356(6) 0.8423(14) 0.0271 Uiso
C13_3 C 0.98712(18) 0.0340(4) 0.5467(6) 0.0271 Uiso
Bi5_3 Bi 0.84545(5) 0.28490(3) 0.55545(15) 0.0138 Uiso
O4_4 O 0.0367(5) 0.6088(4) 0.2532(15) 0.0271 Uiso
C1_4 C 0.0684(4) 0.5747(3) 0.0622(9) 0.0271 Uiso
C2_4 C 0.1364(6) 0.6004(5) 0.9688(11) 0.0271 Uiso
C3_4 C 0.1700(7) 0.5644(5) 0.7666(13) 0.0271 Uiso
C4_4 C 0.1356(6) 0.5025(4) 0.6577(14) 0.0271 Uiso
C5_3 C 0.0676(4) 0.4768(3) 0.7511(10) 0.0271 Uiso
C6_4 C 0.0340(4) 0.51288(18) 0.9533(6) 0.0271 Uiso
O9_2 O 0.0565(8) 0.3844(6) 0.484(3) 0.0271 Uiso
C14_3 C 0.0276(7) 0.4156(4) 0.6586(16) 0.0271 Uiso
H6_3 H 0.160848 0.475352 0.505858 . .
O3_3 O 0.9435(8) 0.6156(6) 0.516(3) 0.0271 Uiso
C7_3 C 0.9724(7) 0.5844(4) 0.3414(16) 0.0271 Uiso
O8_4 O 0.7658(8) 0.4113(7) 0.3216(16) 0.0271 Uiso
C9_4 C 0.8636(6) 0.3996(5) 0.0312(11) 0.0271 Uiso
C10_4 C 0.8300(7) 0.4356(5) 0.2334(13) 0.0271 Uiso
C11_4 C 0.8644(6) 0.4975(4) 0.3423(14) 0.0271 Uiso
C12_3 C 0.9324(4) 0.5232(3) 0.2489(10) 0.0271 Uiso
C13_4 C 0.9660(4) 0.48712(18) 0.0467(6) 0.0271 Uiso
H1_3 H 0.839152 0.524648 0.494142 . .
O7_4 O 0.8311(7) 0.3412(7) 0.9283(16) 0.0271 Uiso
O10_4 O 0.9633(5) 0.3912(4) 0.7468(15) 0.0271 Uiso
C8_4 C 0.9316(4) 0.4253(3) 0.9378(9) 0.0271 Uiso
O5_2 O 0.75000 0.25000 0.274(4) 0.0100 Uiso
O6_3 O 0.5344(8) 0.2267(6) 0.3031(18) 0.0100 Uiso
O11_3 O 0.9656(8) 0.2733(6) 0.3031(18) 0.0100 Uiso
O16_2 O 0.75000 0.25000 0.774(4) 0.0100 Uiso
O6_4 O 0.7733(6) 0.0344(8) 0.8031(18) 0.0100 Uiso
O11_4 O 0.7267(6) 0.4656(8) 0.8031(18) 0.0100 Uiso
O9_3 O 0.6156(6) 0.5565(8) 0.984(3) 0.0271 Uiso
H3 H 0.992885 0.713301 0.593939 . .
O3_4 O 0.1156(6) 0.0565(8) 0.016(3) 0.0271 Uiso
C7_4 C 0.0844(4) 0.0276(7) 0.8414(16) 0.0271 Uiso
C12_4 C 0.0232(3) 0.0676(4) 0.7489(10) 0.0271 Uiso
H1_4 H 0.0246481 0.160848 0.994142 . .
C5_4 C 0.9768(3) 0.9324(4) 0.2511(10) 0.0271 Uiso
C14_4 C 0.9156(4) 0.9724(7) 0.1586(16) 0.0271 Uiso
H6_4 H 0.975352 0.839152 0.0058584 . .
O9_4 O 0.8844(6) 0.9435(8) 0.984(3) 0.0271 Uiso
H3_2 H 0.213301 0.00711536 0.0939392 . .
H3_3 H 0.00711536 0.286699 0.406061 . .
H3_4 H 0.786699 0.992885 0.906061 . .
loop_
_geom_bond_atom_site_label_1
_geom_bond_atom_site_label_2
_geom_bond_site_symmetry_1
_geom_bond_site_symmetry_2
Bi1 O1 1_555 1_555
O1 C2 1_555 1_555
O2 Bi1 1_555 1_555
O4 C1 1_555 1_555
O5 Bi1 1_555 1_555
O6 Bi1 1_555 1_555
C1 C2 1_555 1_555
C2 C3 1_555 1_555
C3 O2 1_555 1_555
C4 C3 1_555 1_555
C5 C4 1_555 1_555
C6 C1 1_555 1_555
C7 O4 1_555 1_555
O7 C9 1_555 1_555
O8 C10 1_555 1_555
O10 C8 1_555 1_555
C8 C9 1_555 1_555
C9 C10 1_555 1_555
C10 C11 1_555 1_555
C11 C12 1_555 1_555
C12 C7 1_555 1_555
C13 C6 1_555 1_555
C14 C5 1_555 1_555
Bi2 O5 1_555 1_555
O11 Bi2 1_555 1_555
Bi3 O5 1_555 1_555
Bi4 O1 1_555 1_555
Bi5 O7 1_555 1_555
Bi6 O7 1_555 1_555
O12 Bi1 1_555 1_555
O13 Bi2 1_555 1_555
O14 Bi2 1_555 1_555
O15 Bi2 1_555 1_555
O16 Bi1 1_555 1_555
O5 Bi4 1_555 1_555
C5 C6 1_555 1_555
O8 Bi5 1_555 1_555
O10 C14 1_555 1_555
C8 C13 1_555 1_555
C12 C13 1_555 1_555
Bi2 O16 1_555 1_555
Bi3 O13 1_555 1_555
C11 H1 1_555 1_555
C4 H6 1_555 1_555
O8_2 C10_2 1_555 1_555
C9_2 C10_2 1_555 1_555
C10_2 C11_2 1_555 1_555
O8_2 Bi5_2 1_555 1_555
O9 C14_2 1_555 1_555
O10_2 C8_2 1_555 1_555
C14_2 C5_2 1_555 1_555
Bi5 O7_2 1_555 1_555
O10_2 C14_2 1_555 1_555
O3_2 C7_2 1_555 1_555
O4_2 C1_2 1_555 1_555
C7_2 O4_2 1_555 1_555
C12_2 C7_2 1_555 1_555
O2_2 Bi3 1_555 1_555
C2_2 C3_2 1_555 1_555
C3_2 O2_2 1_555 1_555
C4_2 C3_2 1_555 1_555
O15_2 Bi4 1_555 1_555
O13 C2_3 1_555 1_555
O4_3 C1_3 1_555 1_555
C1_3 C2_3 1_555 1_555
C2_3 C3_3 1_555 1_555
C3_3 O15 1_555 1_555
C4_3 C3_3 1_555 1_555
C6_3 C1_3 1_555 1_555
O7_3 C9_3 1_555 1_555
O8_3 C10_3 1_555 1_555
O10_3 C8_3 1_555 1_555
C8_3 C9_3 1_555 1_555
C9_3 C10_3 1_555 1_555
C10_3 C11_3 1_555 1_555
Bi5_3 O7_3 1_555 1_555
Bi5_2 O7_3 1_555 1_555
O8_3 Bi5_3 1_555 1_555
C8_3 C13_3 1_555 1_555
O4_4 C1_4 1_555 1_555
C2_4 C3_4 1_555 1_555
C3_4 O15_2 1_555 1_555
C4_4 C3_4 1_555 1_555
C5_3 C4_4 1_555 1_555
O9_2 C14_3 1_555 1_555
C14_3 C5_3 1_555 1_555
C5_3 C6_4 1_555 1_555
C4_4 H6_3 1_555 1_555
O3_3 C7_3 1_555 1_555
O8_4 C10_4 1_555 1_555
C9_4 C10_4 1_555 1_555
C10_4 C11_4 1_555 1_555
C11_4 C12_3 1_555 1_555
C12_3 C7_3 1_555 1_555
O8_4 Bi6 1_555 1_555
C12_3 C13_4 1_555 1_555
C11_4 H1_3 1_555 1_555
O10_4 C8_4 1_555 1_555
Bi5_3 O7_4 1_555 1_555
O5_2 Bi5 1_555 1_555
O6_3 Bi5 1_555 1_555
Bi5_3 O5_2 1_555 1_555
O11_3 Bi5_3 1_555 1_555
Bi5_2 O5_2 1_555 1_555
O16_2 Bi5 1_555 1_555
O5_2 Bi6 1_555 1_555
Bi5_3 O16_2 1_555 1_555
C12_4 C7_4 1_555 1_555
C14_4 C5_4 1_555 1_555

#END
