
###############################################################################
#
# This file contains modified crystal structure data generated from the
# MOF subset of the Cambridge Structural Database (CSD) v543 
# hosted by the Cambridge Crystallographic Data Centre (CCDC).
#
# This work is licensed under the Creative Commons
# Attribution-NonCommercial-ShareAlike 4.0 International License.
# To view a copy of this license, visit
# http://creativecommons.org/licenses/by-nc-sa/4.0/
# or send a letter to
# Creative Commons, PO Box 1866, Mountain View, CA 94042, USA.
#
# CIF created using the CSD Python API on 29 September 2022
# The structure has been converted into the P1 space group
# The structure has a 3D framework
# The original CSD entry DUWROF is in the orthorhombic crystal system
# The original CSD entry DUWROF is in a Sohncke space group
# The framework has been calculated to contain at least 10.0% void space
# The void calculation uses a probe of radius 1.32A, grid spacing 0.4
#
###############################################################################

data_DUWROF
_chemical_formula_moiety         '(C56 H40 Eu2 N4 O28)n'
_symmetry_cell_setting           triclinic
_symmetry_space_group_name_H-M   'P 1'
_symmetry_Int_Tables_number      1
_space_group_name_Hall           'P 1'
loop_
_symmetry_equiv_pos_site_id
_symmetry_equiv_pos_as_xyz
1 x,y,z
_cell_length_a                   9.3873(3)
_cell_length_b                   12.7231(4)
_cell_length_c                   14.5216(5)
_cell_angle_alpha                90
_cell_angle_beta                 90
_cell_angle_gamma                90
_cell_volume                     1734.4
loop_
_atom_site_label
_atom_site_type_symbol
_atom_site_fract_x
_atom_site_fract_y
_atom_site_fract_z
Eu3 Eu 0.00915(2) 0.72258(2) 0.04713(2)
Eu1 Eu 0.49085(2) 0.27742(2) 0.54713(2)
O1 O 0.6432(4) 0.2915(4) 0.4177(3)
O2 O 0.8490(4) 0.3273(4) 0.3497(3)
O3 O 0.8242(5) 0.6173(5) 0.1066(5)
O4 O 0.6104(4) 0.6626(4) 0.0565(3)
O5 O 0.3493(5) 0.4031(4) 0.4730(3)
O6 O 0.1444(5) 0.3548(4) 0.4104(4)
O7 O 0.0915(6) 0.6082(4) 0.1637(3)
N1 N 0.1920(5) 0.5074(4) 0.2743(4)
C1 C 0.7158(5) 0.3319(4) 0.3548(4)
C2 C 0.6378(6) 0.3900(5) 0.2804(4)
C3 C 0.7041(6) 0.4641(5) 0.2246(4)
H1 H 0.802208 0.473678 0.228135
C4 C 0.6235(6) 0.5241(5) 0.1634(4)
C5 C 0.6914(7) 0.6085(5) 0.1048(5)
C6 C 0.4765(6) 0.5104(4) 0.1584(4)
H2 H 0.422528 0.552631 0.119410
C7 C 0.4107(6) 0.4344(5) 0.2111(4)
C8 C 0.4909(6) 0.3739(4) 0.2709(3)
H3 H 0.446529 0.321722 0.305452
C9 C 0.2488(6) 0.4273(5) 0.2128(4)
H4 H 0.211432 0.437654 0.151212
H5 H 0.219842 0.358244 0.233946
C10 C 0.2388(6) 0.5200(5) 0.3693(4)
H6 H 0.333407 0.552465 0.370399
C11 C 0.2428(6) 0.4164(4) 0.4210(4)
C12 C 0.1291(9) 0.5969(6) 0.4077(5)
H7 H 0.046308 0.560318 0.431619
H8 H 0.169726 0.640121 0.456126
C13 C 0.0912(9) 0.6624(6) 0.3239(5)
H10 H 0.148949 0.725506 0.321210
C14 C 0.1216(7) 0.5931(5) 0.2452(4)
Eu5 Eu 0.99085(2) 0.22258(2) 0.45287(2)
O8 O 0.3490(4) 0.1727(4) 0.6503(3)
O9 O 0.6758(5) 0.3827(5) 0.6066(5)
O10 O 0.3896(4) 0.1626(4) 0.4435(3)
O11 O 0.6444(5) 0.1452(4) 0.5896(4)
O12 O 0.4085(6) 0.3918(4) 0.6637(3)
Eu6 Eu 0.50915(2) 0.77742(2) 0.95287(2)
H9 H 0.991470 0.682234 0.325010
O8_2 O 0.1510(4) 0.8273(4) 0.1503(3)
O5_2 O 0.1507(5) 0.5969(4) 0.9730(3)
O6_2 O 0.3556(5) 0.6452(4) 0.9104(4)
N1_2 N 0.3080(5) 0.4926(4) 0.7743(4)
C6_2 C 0.0235(6) 0.4896(4) 0.6584(4)
H2_2 H 0.077472 0.447369 0.619410
C7_2 C 0.0893(6) 0.5656(5) 0.7111(4)
C8_2 C 0.0091(6) 0.6261(4) 0.7709(3)
H3_2 H 0.053471 0.678278 0.805452
C9_2 C 0.2512(6) 0.5727(5) 0.7128(4)
H4_2 H 0.288568 0.562346 0.651212
H5_2 H 0.280158 0.641756 0.733946
C10_2 C 0.2612(6) 0.4800(5) 0.8693(4)
H6_2 H 0.166593 0.447535 0.870399
C11_2 C 0.2572(6) 0.5836(4) 0.9210(4)
C12_2 C 0.3709(9) 0.4031(6) 0.9077(5)
H7_2 H 0.453692 0.439682 0.931619
H8_2 H 0.330274 0.359879 0.956126
C13_2 C 0.4088(9) 0.3376(6) 0.8239(5)
H9_2 H 0.508530 0.317766 0.825010
H10_2 H 0.351051 0.274494 0.821210
C14_2 C 0.3784(7) 0.4069(5) 0.7452(4)
O10_2 O 0.1104(4) 0.8374(4) 0.9435(3)
O11_2 O 0.8556(5) 0.8548(4) 0.0896(4)
O1_2 O 0.8568(4) 0.7085(4) 0.9177(3)
O2_2 O 0.6510(4) 0.6727(4) 0.8497(3)
O4_2 O 0.8896(4) 0.3374(4) 0.5565(3)
C1_2 C 0.7842(5) 0.6681(4) 0.8548(4)
C2_2 C 0.8622(6) 0.6100(5) 0.7804(4)
C3_2 C 0.7959(6) 0.5359(5) 0.7246(4)
H1_2 H 0.697792 0.526322 0.728135
C4_2 C 0.8765(6) 0.4759(5) 0.6634(4)
C5_2 C 0.8086(7) 0.3915(5) 0.6048(5)
O1_3 O 0.1432(4) 0.2085(4) 0.5823(3)
C1_3 C 0.2158(5) 0.1681(4) 0.6452(4)
C2_3 C 0.1378(6) 0.1100(5) 0.7196(4)
C3_3 C 0.2041(6) 0.0359(5) 0.7754(4)
H1_3 H 0.302208 0.026322 0.771865
O9_2 O 0.1758(5) 0.1173(5) 0.3934(5)
O3_2 O 0.3242(5) 0.8827(5) 0.8934(5)
C4_3 C 0.1235(6) 0.9759(5) 0.8366(4)
C5_3 C 0.1914(7) 0.8915(5) 0.8952(5)
O5_3 O 0.8493(5) 0.0969(4) 0.5270(3)
C7_3 C 0.9107(6) 0.0656(5) 0.7889(4)
C8_3 C 0.9909(6) 0.1261(4) 0.7291(3)
H3_3 H 0.946529 0.178278 0.694548
C9_3 C 0.7488(6) 0.0727(5) 0.7872(4)
H4_3 H 0.711432 0.062346 0.848788
H5_3 H 0.719842 0.141756 0.766054
C11_3 C 0.7428(6) 0.0836(4) 0.5790(4)
O12_2 O 0.9085(6) 0.1082(4) 0.3363(3)
O7_2 O 0.5915(6) 0.8918(4) 0.8363(3)
N1_3 N 0.6920(5) 0.9926(4) 0.7257(4)
C6_3 C 0.9765(6) 0.9896(4) 0.8416(4)
H2_3 H 0.922528 0.947369 0.880590
C10_3 C 0.7388(6) 0.9800(5) 0.6307(4)
H6_3 H 0.833407 0.947535 0.629601
C12_3 C 0.6291(9) 0.9031(6) 0.5923(5)
H7_3 H 0.546308 0.939682 0.568381
H8_3 H 0.669726 0.859879 0.543874
C13_3 C 0.5912(9) 0.8376(6) 0.6761(5)
H9_3 H 0.491470 0.817766 0.674990
H10_3 H 0.648949 0.774494 0.678790
C14_3 C 0.6216(7) 0.9069(5) 0.7548(4)
N1_4 N 0.8080(5) 0.0074(4) 0.2257(4)
C4_4 C 0.3765(6) 0.0241(5) 0.3366(4)
C5_4 C 0.3086(7) 0.1085(5) 0.3952(5)
C6_4 C 0.5235(6) 0.0104(4) 0.3416(4)
H2_4 H 0.577472 0.052631 0.380590
C10_4 C 0.7612(6) 0.0200(5) 0.1307(4)
H6_4 H 0.666593 0.052465 0.129601
C12_4 C 0.8709(9) 0.0969(6) 0.0923(5)
H7_4 H 0.953692 0.060318 0.068381
H8_4 H 0.830274 0.140121 0.043874
C13_4 C 0.9088(9) 0.1624(6) 0.1761(5)
H10_4 H 0.851051 0.225506 0.178790
C14_4 C 0.8784(7) 0.0931(5) 0.2548(4)
O1_4 O 0.3568(4) 0.7915(4) 0.0823(3)
O5_4 O 0.6507(5) 0.9031(4) 0.0270(3)
C1_4 C 0.2842(5) 0.8319(4) 0.1452(4)
C2_4 C 0.3622(6) 0.8900(5) 0.2196(4)
C3_4 C 0.2959(6) 0.9641(5) 0.2754(4)
H1_4 H 0.197792 0.973678 0.271865
C7_4 C 0.5893(6) 0.9344(5) 0.2889(4)
C8_4 C 0.5091(6) 0.8739(4) 0.2291(3)
H3_4 H 0.553471 0.821722 0.194548
C9_4 C 0.7512(6) 0.9273(5) 0.2872(4)
H4_4 H 0.788568 0.937654 0.348788
H5_4 H 0.780158 0.858244 0.266054
C11_4 C 0.7572(6) 0.9164(4) 0.0790(4)
H9_4 H 0.008530 0.182234 0.174990
loop_
_geom_bond_atom_site_label_1
_geom_bond_atom_site_label_2
_geom_bond_site_symmetry_1
_geom_bond_site_symmetry_2
Eu1 O1 1_555 1_555
O1 C1 1_555 1_555
O2 C1 1_555 1_555
O3 C5 1_555 1_555
O4 C5 1_555 1_555
O5 Eu1 1_555 1_555
O6 C11 1_555 1_555
O7 C14 1_555 1_555
N1 C9 1_555 1_555
C1 C2 1_555 1_555
C2 C3 1_555 1_555
C3 H1 1_555 1_555
C4 C3 1_555 1_555
C5 C4 1_555 1_555
C6 C4 1_555 1_555
H2 C6 1_555 1_555
C7 C6 1_555 1_555
C8 C2 1_555 1_555
H3 C8 1_555 1_555
C9 C7 1_555 1_555
H4 C9 1_555 1_555
H5 C9 1_555 1_555
C10 N1 1_555 1_555
H6 C10 1_555 1_555
C11 O5 1_555 1_555
C12 C10 1_555 1_555
H7 C12 1_555 1_555
H8 C12 1_555 1_555
C13 C12 1_555 1_555
H10 C13 1_555 1_555
C14 N1 1_555 1_555
Eu3 O7 1_555 1_555
Eu5 O2 1_555 1_555
O8 Eu1 1_555 1_555
O9 Eu1 1_555 1_555
O10 Eu1 1_555 1_555
O11 Eu1 1_555 1_555
O12 Eu1 1_555 1_555
C7 C8 1_555 1_555
C10 C11 1_555 1_555
C13 C14 1_555 1_555
O8_2 Eu3 1_555 1_555
O6_2 C11_2 1_555 1_555
O12 C14_2 1_555 1_555
N1_2 C9_2 1_555 1_555
H2_2 C6_2 1_555 1_555
C7_2 C6_2 1_555 1_555
H3_2 C8_2 1_555 1_555
C9_2 C7_2 1_555 1_555
H4_2 C9_2 1_555 1_555
H5_2 C9_2 1_555 1_555
C10_2 N1_2 1_555 1_555
H6_2 C10_2 1_555 1_555
C11_2 O5_2 1_555 1_555
C12_2 C10_2 1_555 1_555
H7_2 C12_2 1_555 1_555
H8_2 C12_2 1_555 1_555
C13_2 C12_2 1_555 1_555
H9_2 C13_2 1_555 1_555
H10_2 C13_2 1_555 1_555
C14_2 N1_2 1_555 1_555
Eu6 O6_2 1_555 1_555
C7_2 C8_2 1_555 1_555
C10_2 C11_2 1_555 1_555
C13_2 C14_2 1_555 1_555
O1_2 C1_2 1_555 1_555
O2_2 C1_2 1_555 1_555
O9 C5_2 1_555 1_555
O4_2 C5_2 1_555 1_555
C1_2 C2_2 1_555 1_555
C2_2 C3_2 1_555 1_555
C3_2 H1_2 1_555 1_555
C4_2 C3_2 1_555 1_555
C5_2 C4_2 1_555 1_555
Eu6 O2_2 1_555 1_555
Eu5 O4_2 1_555 1_555
O1_3 C1_3 1_555 1_555
O8 C1_3 1_555 1_555
C1_3 C2_3 1_555 1_555
C2_3 C3_3 1_555 1_555
C3_3 H1_3 1_555 1_555
O3_2 C5_3 1_555 1_555
O10_2 C5_3 1_555 1_555
C5_3 C4_3 1_555 1_555
Eu6 O3_2 1_555 1_555
O5_3 Eu5 1_555 1_555
O11 C11_3 1_555 1_555
H3_3 C8_3 1_555 1_555
C9_3 C7_3 1_555 1_555
H4_3 C9_3 1_555 1_555
H5_3 C9_3 1_555 1_555
C11_3 O5_3 1_555 1_555
O12_2 Eu5 1_555 1_555
C7_3 C8_3 1_555 1_555
O7_2 C14_3 1_555 1_555
H2_3 C6_3 1_555 1_555
C10_3 N1_3 1_555 1_555
H6_3 C10_3 1_555 1_555
C12_3 C10_3 1_555 1_555
H7_3 C12_3 1_555 1_555
H8_3 C12_3 1_555 1_555
C13_3 C12_3 1_555 1_555
H9_3 C13_3 1_555 1_555
H10_3 C13_3 1_555 1_555
C14_3 N1_3 1_555 1_555
Eu6 O7_2 1_555 1_555
C13_3 C14_3 1_555 1_555
O9_2 C5_4 1_555 1_555
O10 C5_4 1_555 1_555
O12_2 C14_4 1_555 1_555
C5_4 C4_4 1_555 1_555
C6_4 C4_4 1_555 1_555
H2_4 C6_4 1_555 1_555
C10_4 N1_4 1_555 1_555
H6_4 C10_4 1_555 1_555
C12_4 C10_4 1_555 1_555
H7_4 C12_4 1_555 1_555
H8_4 C12_4 1_555 1_555
C13_4 C12_4 1_555 1_555
H10_4 C13_4 1_555 1_555
C14_4 N1_4 1_555 1_555
C13_4 C14_4 1_555 1_555
O1_4 C1_4 1_555 1_555
O8_2 C1_4 1_555 1_555
O11_2 C11_4 1_555 1_555
C1_4 C2_4 1_555 1_555
C2_4 C3_4 1_555 1_555
C3_4 H1_4 1_555 1_555
C8_4 C2_4 1_555 1_555
H3_4 C8_4 1_555 1_555
C9_4 C7_4 1_555 1_555
H4_4 C9_4 1_555 1_555
H5_4 C9_4 1_555 1_555
C11_4 O5_4 1_555 1_555
C7_4 C8_4 1_555 1_555

#END
