
###############################################################################
#
# This file contains modified crystal structure data generated from the
# MOF subset of the Cambridge Structural Database (CSD) v543 
# hosted by the Cambridge Crystallographic Data Centre (CCDC).
#
# This work is licensed under the Creative Commons
# Attribution-NonCommercial-ShareAlike 4.0 International License.
# To view a copy of this license, visit
# http://creativecommons.org/licenses/by-nc-sa/4.0/
# or send a letter to
# Creative Commons, PO Box 1866, Mountain View, CA 94042, USA.
#
# CIF created using the CSD Python API on 29 September 2022
# The structure has been converted into the P1 space group
# The structure has a 3D framework
# The original CSD entry DUXSIA is in the triclinic crystal system
# The framework has been calculated to contain at least 10.0% void space
# The void calculation uses a probe of radius 1.32A, grid spacing 0.4
# H atom positions have been added when not included in the experimental data
# Generated hydrogen atom positions removed from atoms on special positions
#
###############################################################################

data_DUXSIA
_chemical_formula_moiety         '(C74 H52 Co4 N12 O18)n'
_symmetry_cell_setting           triclinic
_symmetry_space_group_name_H-M   'P 1'
_symmetry_Int_Tables_number      1
_space_group_name_Hall           'P 1'
loop_
_symmetry_equiv_pos_site_id
_symmetry_equiv_pos_as_xyz
1 x,y,z
_cell_length_a                   11.573(3)
_cell_length_b                   13.892(4)
_cell_length_c                   14.655(4)
_cell_angle_alpha                62.631(4)
_cell_angle_beta                 68.977(4)
_cell_angle_gamma                68.800(4)
_cell_volume                     1897.32
loop_
_atom_site_label
_atom_site_type_symbol
_atom_site_fract_x
_atom_site_fract_y
_atom_site_fract_z
_atom_site_U_iso_or_equiv
_atom_site_thermal_displace_type
C4 C 0.0966(4) 0.2362(3) 0.2152(3) 0.0349 Uani
C5 C 0.1502(4) 0.2899(4) 0.2436(3) 0.0391 Uani
H3 H 0.2371 0.2866 0.2206 0.0470 Uiso
C6 C 0.0708(4) 0.3486(3) 0.3074(3) 0.0361 Uani
C7 C 0.0862(7) 0.5144(5) 0.3212(7) 0.1199 Uani
H4 H 0.0170 0.5658 0.2938 0.1440 Uiso
C8 C 0.2889(4) 0.2006(4) 0.0759(4) 0.0450 Uani
H5 H 0.3276 0.2550 0.0636 0.0540 Uiso
C9 C 0.1555(4) 0.0926(4) 0.1405(4) 0.0424 Uani
H6 H 0.0858 0.0613 0.1803 0.0510 Uiso
C13 C 0.2256(4) 0.3664(4) 0.3764(4) 0.0513 Uani
H10 H 0.2719 0.2925 0.3946 0.0610 Uiso
C14 C 0.1651(6) 0.5353(5) 0.3534(6) 0.1025 Uani
H11 H 0.1604 0.6042 0.3520 0.1230 Uiso
C37 C 0.3317(4) 0.1281(4) 0.0289(4) 0.0479 Uani
N3 N 0.1756(3) 0.1794(3) 0.1465(3) 0.0359 Uani
N4 N 0.1237(3) 0.4064(3) 0.3351(3) 0.0429 Uani
N5 N 0.2522(3) 0.4415(3) 0.3880(3) 0.0415 Uani
N6 N 0.2497(4) 0.0591(3) 0.0700(3) 0.0473 Uani
Co5 Co 0.38401(4) 0.43284(4) 0.45397(4) 0.0222 Uani
Co2 Co 0.72718(6) 0.05665(5) 0.98441(5) 0.0428 Uani
O8 O 0.6031(4) 0.2039(4) 0.9316(3) 0.0899 Uani
O21 O 0.8544(4) 0.1084(3) 0.9974(3) 0.0705 Uani
C1 C 0.9420(4) 0.3519(3) 0.3440(3) 0.0371 Uani
H1 H 0.8898 0.3900 0.3881 0.0440 Uiso
C2 C 0.8928(4) 0.2971(3) 0.3136(3) 0.0338 Uani
C3 C 0.9690(4) 0.2397(3) 0.2484(3) 0.0367 Uani
H2 H 0.9343 0.2043 0.2276 0.0440 Uiso
C10 C 0.6637(4) 0.3766(3) 0.3774(3) 0.0360 Uani
H7 H 0.6723 0.4430 0.3721 0.0430 Uiso
C11 C 0.7103(4) 0.2131(4) 0.3701(4) 0.0467 Uani
H8 H 0.7545 0.1470 0.3593 0.0560 Uiso
C12 C 0.5840(4) 0.2454(4) 0.4065(4) 0.0479 Uani
H9 H 0.5250 0.2043 0.4260 0.0570 Uiso
C16 C 0.4460(4) 0.9432(3) 0.2591(3) 0.0357 Uani
C17 C 0.4724(4) 0.8388(3) 0.2574(3) 0.0358 Uani
H12 H 0.5472 0.8134 0.2143 0.0430 Uiso
C18 C 0.3870(4) 0.7725(3) 0.3199(3) 0.0351 Uani
C19 C 0.2725(4) 0.8138(3) 0.3792(3) 0.0396 Uani
H13 H 0.2146 0.7692 0.4210 0.0480 Uiso
C20 C 0.2437(4) 0.9192(3) 0.3772(3) 0.0388 Uani
C21 C 0.3320(4) 0.9830(4) 0.3189(3) 0.0401 Uani
C22 C 0.1174(4) 0.9621(4) 0.4400(3) 0.0404 Uani
C23 C 0.0097(4) 0.9326(4) 0.4515(4) 0.0447 Uani
H15 H 0.0157 0.8874 0.4181 0.0540 Uiso
C25 C 0.4171(4) 0.6556(4) 0.3261(4) 0.0381 Uani
C26 C 0.2736(4) 0.3114(4) 0.6460(3) 0.0391 Uani
C27 C 0.1843(4) 0.2886(3) 0.7514(3) 0.0345 Uani
C28 C 0.1103(4) 0.2143(4) 0.7867(3) 0.0412 Uani
H17 H 0.1244 0.1716 0.7484 0.0490 Uiso
C29 C 0.0150(4) 0.2025(4) 0.8787(3) 0.0410 Uani
C31 C 0.0669(4) 0.3430(4) 0.9005(3) 0.0372 Uani
C32 C 0.1623(4) 0.3519(4) 0.8090(3) 0.0366 Uani
H19 H 0.2128 0.4015 0.7856 0.0440 Uiso
C33 C 0.0330(4) 0.4232(4) 0.9530(3) 0.0393 Uani
C35 C 0.1235(4) 0.4674(4) 0.9499(3) 0.0433 Uani
H21 H 0.2078 0.4460 0.9160 0.0520 Uiso
N1 N 0.5563(3) 0.3472(3) 0.4103(3) 0.0378 Uani
N2 N 0.7600(3) 0.2964(3) 0.3523(3) 0.0351 Uani
O2 O 0.6228(3) 0.9858(3) 0.1219(3) 0.0635 Uani
O3 O 0.4765(4) 0.6341(3) 0.2474(3) 0.0662 Uani
O4 O 0.3759(3) 0.5880(2) 0.4153(2) 0.0472 Uani
O5 O 0.3063(3) 0.4036(3) 0.6045(2) 0.0441 Uani
O6 O 0.3076(3) 0.2485(3) 0.5990(3) 0.0541 Uani
C57 C 0.0907(4) 0.5440(4) 0.9966(3) 0.0442 Uani
H31 H 0.1533 0.5732 0.9937 0.0530 Uiso
C30 C 0.9938(4) 0.2678(4) 0.9346(3) 0.0426 Uani
H18 H 0.9293 0.2608 0.9959 0.0510 Uiso
C36 C 0.9277(5) 0.1324(4) 0.9078(4) 0.0544 Uani
O7 O 0.9223(5) 0.1027(5) 0.8425(4) 0.1066 Uani
C38 C 0.4607(4) 0.9835(4) 0.8085(4) 0.0466 Uani
H25 H 0.6853 0.9465 0.6802 0.0480 Uiso
C47 C 0.8935(4) 0.9687(4) 0.5113(4) 0.0457 Uani
H27 H 0.8225 0.9467 0.5190 0.0540 Uiso
O10 O 0.4744(4) 0.9013(4) 0.7925(4) 0.0923 Uani
H22 H 0.4058 0.1244 0.9761 0.0570 Uiso
Co11 Co 0.27282(6) 0.94335(5) 0.01559(5) 0.0428 Uani
C15 C 0.5393(4) 0.0165(4) 0.1915(4) 0.0466 Uani
H14 H 0.3147 0.0535 0.3198 0.0480 Uiso
C24 C 0.1065(4) 0.0313(4) 0.4887(4) 0.0457 Uani
H16 H 0.1775 0.0533 0.4810 0.0540 Uiso
O1 O 0.5256(4) 0.0987(4) 0.2075(4) 0.0923 Uani
C53 C 0.0062(4) 0.7322(4) 0.0654(3) 0.0426 Uani
H29 H 0.0707 0.7392 0.0041 0.0510 Uiso
C59 C 0.0723(5) 0.8676(4) 0.0922(4) 0.0544 Uani
O16 O 0.0777(5) 0.8973(5) 0.1575(4) 0.1066 Uani
O17 O 0.1456(4) 0.8916(3) 0.0026(3) 0.0705 Uani
N16 N 0.7503(4) 0.9409(3) 0.9300(3) 0.0473 Uani
C39 C 0.5540(4) 0.0568(3) 0.7409(3) 0.0357 Uani
C40 C 0.5276(4) 0.1612(3) 0.7426(3) 0.0358 Uani
H23 H 0.4528 0.1866 0.7857 0.0430 Uiso
C41 C 0.6130(4) 0.2275(3) 0.6801(3) 0.0351 Uani
C42 C 0.7275(4) 0.1862(3) 0.6208(3) 0.0396 Uani
H24 H 0.7854 0.2308 0.5790 0.0480 Uiso
C43 C 0.7563(4) 0.0808(3) 0.6228(3) 0.0388 Uani
C44 C 0.6680(4) 0.0170(4) 0.6811(3) 0.0401 Uani
C45 C 0.8826(4) 0.0379(4) 0.5600(3) 0.0404 Uani
C46 C 0.9903(4) 0.0674(4) 0.5485(4) 0.0447 Uani
H26 H 0.9843 0.1126 0.5819 0.0540 Uiso
C48 C 0.5829(4) 0.3444(4) 0.6739(4) 0.0381 Uani
O11 O 0.3772(3) 0.0142(3) 0.8781(3) 0.0635 Uani
O12 O 0.5235(4) 0.3659(3) 0.7526(3) 0.0662 Uani
O13 O 0.6241(3) 0.4120(2) 0.5847(2) 0.0472 Uani
Co7 Co 0.61599(4) 0.56716(4) 0.54603(4) 0.0222 Uani
C34 C 0.9093(4) 0.4560(4) 0.0034(3) 0.0442 Uani
H20 H 0.8467 0.4268 0.0063 0.0530 Uiso
C49 C 0.7264(4) 0.6886(4) 0.3540(3) 0.0391 Uani
C50 C 0.8157(4) 0.7114(3) 0.2486(3) 0.0345 Uani
C51 C 0.8897(4) 0.7857(4) 0.2133(3) 0.0412 Uani
H28 H 0.8756 0.8284 0.2516 0.0490 Uiso
C52 C 0.9850(4) 0.7975(4) 0.1213(3) 0.0410 Uani
C54 C 0.9331(4) 0.6570(4) 0.0995(3) 0.0372 Uani
C55 C 0.8377(4) 0.6481(4) 0.1910(3) 0.0366 Uani
H30 H 0.7872 0.5985 0.2144 0.0440 Uiso
C56 C 0.9670(4) 0.5768(4) 0.0470(3) 0.0393 Uani
C58 C 0.8765(4) 0.5326(4) 0.0501(3) 0.0433 Uani
H32 H 0.7922 0.5540 0.0840 0.0520 Uiso
O14 O 0.6937(3) 0.5964(3) 0.3955(2) 0.0441 Uani
O15 O 0.6924(3) 0.7515(3) 0.4010(3) 0.0541 Uani
C60 C 0.0580(4) 0.6481(3) 0.6560(3) 0.0371 Uani
H33 H 0.1102 0.6100 0.6119 0.0440 Uiso
C61 C 0.1072(4) 0.7029(3) 0.6864(3) 0.0338 Uani
C62 C 0.0310(4) 0.7603(3) 0.7516(3) 0.0367 Uani
H34 H 0.0657 0.7957 0.7724 0.0440 Uiso
C69 C 0.3363(4) 0.6234(3) 0.6226(3) 0.0360 Uani
H39 H 0.3277 0.5570 0.6279 0.0430 Uiso
C70 C 0.2897(4) 0.7869(4) 0.6299(4) 0.0467 Uani
H40 H 0.2455 0.8530 0.6407 0.0560 Uiso
C71 C 0.4160(4) 0.7546(4) 0.5935(4) 0.0479 Uani
H41 H 0.4750 0.7957 0.5740 0.0570 Uiso
N7 N 0.4437(3) 0.6528(3) 0.5897(3) 0.0378 Uani
N8 N 0.2400(3) 0.7036(3) 0.6477(3) 0.0351 Uani
N14 N 0.7478(3) 0.5585(3) 0.6120(3) 0.0415 Uani
C63 C 0.9034(4) 0.7638(3) 0.7848(3) 0.0349 Uani
C64 C 0.8498(4) 0.7101(4) 0.7564(3) 0.0391 Uani
H35 H 0.7629 0.7134 0.7794 0.0470 Uiso
C65 C 0.9292(4) 0.6514(3) 0.6926(3) 0.0361 Uani
C66 C 0.9138(7) 0.4856(5) 0.6788(7) 0.1199 Uani
H36 H 0.9830 0.4342 0.7062 0.1440 Uiso
C67 C 0.7111(4) 0.7994(4) 0.9241(4) 0.0450 Uani
H37 H 0.6724 0.7450 0.9364 0.0540 Uiso
C68 C 0.8445(4) 0.9074(4) 0.8595(4) 0.0424 Uani
H38 H 0.9142 0.9387 0.8197 0.0510 Uiso
C72 C 0.7744(4) 0.6336(4) 0.6236(4) 0.0513 Uani
H42 H 0.7281 0.7075 0.6054 0.0610 Uiso
C73 C 0.8349(6) 0.4647(5) 0.6466(6) 0.1025 Uani
H43 H 0.8396 0.3958 0.6480 0.1230 Uiso
C74 C 0.6683(4) 0.8719(4) 0.9711(4) 0.0479 Uani
N9 N 0.8244(3) 0.8206(3) 0.8535(3) 0.0359 Uani
N10 N 0.8763(3) 0.5936(3) 0.6649(3) 0.0429 Uani
O18 O 0.3969(4) 0.7961(4) 0.0684(3) 0.0899 Uani
H44 H 0.5942 0.8756 0.0239 0.0570 Uiso
loop_
_atom_site_aniso_label
_atom_site_aniso_U_11
_atom_site_aniso_U_22
_atom_site_aniso_U_33
_atom_site_aniso_U_23
_atom_site_aniso_U_13
_atom_site_aniso_U_12
C4 0.034 0.03 0.041 -0.0151 -0.0065 -0.0078
C5 0.031 0.041 0.049 -0.019 -0.011 -0.0084
C6 0.037 0.035 0.042 -0.0161 -0.0158 -0.006
C7 0.118 0.056 0.243 -0.072 -0.135 0.03
C8 0.036 0.043 0.056 -0.021 0 -0.017
C9 0.032 0.055 0.048 -0.027 -0.003 -0.015
C13 0.046 0.04 0.085 -0.032 -0.029 -0.004
C14 0.107 0.054 0.202 -0.064 -0.113 0.018
C37 0.042 0.055 0.052 -0.03 0.002 -0.017
N3 0.0314 0.038 0.043 -0.021 -0.0027 -0.0116
N4 0.042 0.036 0.064 -0.0247 -0.0225 -0.0058
N5 0.038 0.043 0.052 -0.0218 -0.0131 -0.0112
N6 0.043 0.049 0.055 -0.029 -0.0032 -0.0122
Co5 0.0201 0.0233 0.0266 -0.0139 -0.0008 -0.0075
Co2 0.0423 0.0468 0.0451 -0.0241 0.0055 -0.0235
O8 0.092 0.083 0.074 -0.019 -0.022 -0.01
O21 0.069 0.08 0.075 -0.033 0.001 -0.044
C1 0.035 0.036 0.045 -0.021 -0.0066 -0.0088
C2 0.028 0.037 0.037 -0.0148 -0.0074 -0.0075
C3 0.04 0.041 0.035 -0.0172 -0.0083 -0.0126
C10 0.037 0.036 0.04 -0.0192 -0.0049 -0.0117
C11 0.033 0.039 0.077 -0.034 -0.007 -0.008
C12 0.041 0.043 0.068 -0.029 -0.008 -0.013
C16 0.034 0.03 0.038 -0.0097 -0.0024 -0.0122
C17 0.033 0.033 0.033 -0.0115 -0.0023 -0.0055
C18 0.036 0.029 0.038 -0.0126 -0.0079 -0.0061
C19 0.038 0.034 0.039 -0.009 -0.0025 -0.0131
C20 0.037 0.033 0.038 -0.0136 -0.0033 -0.0044
C21 0.04 0.033 0.036 -0.0099 -0.001 -0.0084
C22 0.035 0.032 0.037 -0.009 0.0019 -0.0049
C23 0.042 0.037 0.05 -0.019 -0.001 -0.01
C25 0.035 0.037 0.047 -0.021 -0.007 -0.0093
C26 0.035 0.043 0.038 -0.015 -0.0059 -0.011
C27 0.029 0.029 0.038 -0.0081 -0.0046 -0.0081
C28 0.044 0.037 0.044 -0.017 -0.004 -0.015
C29 0.042 0.036 0.046 -0.016 -0.004 -0.016
C31 0.039 0.038 0.039 -0.0144 -0.0101 -0.013
C32 0.042 0.039 0.035 -0.015 -0.0049 -0.019
C33 0.045 0.039 0.033 -0.0119 -0.0035 -0.017
C35 0.043 0.043 0.047 -0.023 -0.001 -0.015
N1 0.035 0.037 0.045 -0.0195 -0.0049 -0.0114
N2 0.0276 0.039 0.044 -0.0226 -0.0059 -0.0068
O2 0.053 0.061 0.063 -0.0267 0.0158 -0.0238
O3 0.091 0.047 0.052 -0.0289 0.0068 -0.0167
O4 0.062 0.0338 0.042 -0.0129 -0.0007 -0.0206
O5 0.0525 0.0477 0.0344 -0.0162 0.004 -0.0276
O6 0.062 0.047 0.053 -0.0293 0.0038 -0.0159
C57 0.047 0.047 0.047 -0.018 -0.009 -0.022
C30 0.046 0.041 0.04 -0.015 0 -0.02
C36 0.058 0.051 0.057 -0.022 0.002 -0.029
O7 0.135 0.138 0.098 -0.066 0.017 -0.103
C38 0.047 0.038 0.048 -0.016 0.005 -0.019
C47 0.036 0.039 0.057 -0.016 -0.004 -0.013
O10 0.099 0.085 0.106 -0.059 0.03 -0.059
Co11 0.0423 0.0468 0.0451 -0.0241 0.0055 -0.0235
C15 0.047 0.038 0.048 -0.016 0.005 -0.019
C24 0.036 0.039 0.057 -0.016 -0.004 -0.013
O1 0.099 0.085 0.106 -0.059 0.03 -0.059
C53 0.046 0.041 0.04 -0.015 0 -0.02
C59 0.058 0.051 0.057 -0.022 0.002 -0.029
O16 0.135 0.138 0.098 -0.066 0.017 -0.103
O17 0.069 0.08 0.075 -0.033 0.001 -0.044
N16 0.043 0.049 0.055 -0.029 -0.0032 -0.0122
C39 0.034 0.03 0.038 -0.0097 -0.0024 -0.0122
C40 0.033 0.033 0.033 -0.0115 -0.0023 -0.0055
C41 0.036 0.029 0.038 -0.0126 -0.0079 -0.0061
C42 0.038 0.034 0.039 -0.009 -0.0025 -0.0131
C43 0.037 0.033 0.038 -0.0136 -0.0033 -0.0044
C44 0.04 0.033 0.036 -0.0099 -0.001 -0.0084
C45 0.035 0.032 0.037 -0.009 0.0019 -0.0049
C46 0.042 0.037 0.05 -0.019 -0.001 -0.01
C48 0.035 0.037 0.047 -0.021 -0.007 -0.0093
O11 0.053 0.061 0.063 -0.0267 0.0158 -0.0238
O12 0.091 0.047 0.052 -0.0289 0.0068 -0.0167
O13 0.062 0.0338 0.042 -0.0129 -0.0007 -0.0206
Co7 0.0201 0.0233 0.0266 -0.0139 -0.0008 -0.0075
C34 0.047 0.047 0.047 -0.018 -0.009 -0.022
C49 0.035 0.043 0.038 -0.015 -0.0059 -0.011
C50 0.029 0.029 0.038 -0.0081 -0.0046 -0.0081
C51 0.044 0.037 0.044 -0.017 -0.004 -0.015
C52 0.042 0.036 0.046 -0.016 -0.004 -0.016
C54 0.039 0.038 0.039 -0.0144 -0.0101 -0.013
C55 0.042 0.039 0.035 -0.015 -0.0049 -0.019
C56 0.045 0.039 0.033 -0.0119 -0.0035 -0.017
C58 0.043 0.043 0.047 -0.023 -0.001 -0.015
O14 0.0525 0.0477 0.0344 -0.0162 0.004 -0.0276
O15 0.062 0.047 0.053 -0.0293 0.0038 -0.0159
C60 0.035 0.036 0.045 -0.021 -0.0066 -0.0088
C61 0.028 0.037 0.037 -0.0148 -0.0074 -0.0075
C62 0.04 0.041 0.035 -0.0172 -0.0083 -0.0126
C69 0.037 0.036 0.04 -0.0192 -0.0049 -0.0117
C70 0.033 0.039 0.077 -0.034 -0.007 -0.008
C71 0.041 0.043 0.068 -0.029 -0.008 -0.013
N7 0.035 0.037 0.045 -0.0195 -0.0049 -0.0114
N8 0.0276 0.039 0.044 -0.0226 -0.0059 -0.0068
N14 0.038 0.043 0.052 -0.0218 -0.0131 -0.0112
C63 0.034 0.03 0.041 -0.0151 -0.0065 -0.0078
C64 0.031 0.041 0.049 -0.019 -0.011 -0.0084
C65 0.037 0.035 0.042 -0.0161 -0.0158 -0.006
C66 0.118 0.056 0.243 -0.072 -0.135 0.03
C67 0.036 0.043 0.056 -0.021 0 -0.017
C68 0.032 0.055 0.048 -0.027 -0.003 -0.015
C72 0.046 0.04 0.085 -0.032 -0.029 -0.004
C73 0.107 0.054 0.202 -0.064 -0.113 0.018
C74 0.042 0.055 0.052 -0.03 0.002 -0.017
N9 0.0314 0.038 0.043 -0.021 -0.0027 -0.0116
N10 0.042 0.036 0.064 -0.0247 -0.0225 -0.0058
O18 0.092 0.083 0.074 -0.019 -0.022 -0.01
loop_
_geom_bond_atom_site_label_1
_geom_bond_atom_site_label_2
_geom_bond_site_symmetry_1
_geom_bond_site_symmetry_2
C5 C4 1_555 1_555
H3 C5 1_555 1_555
C7 H4 1_555 1_555
C8 H5 1_555 1_555
C9 H6 1_555 1_555
C13 H10 1_555 1_555
C14 C7 1_555 1_555
H11 C14 1_555 1_555
C37 C8 1_555 1_555
N3 C4 1_555 1_555
N4 C6 1_555 1_555
N5 C13 1_555 1_555
N6 C9 1_555 1_555
Co5 N5 1_555 1_555
C5 C6 1_555 1_555
C7 N4 1_555 1_555
C8 N3 1_555 1_555
C9 N3 1_555 1_555
C13 N4 1_555 1_555
C14 N5 1_555 1_555
C37 N6 1_555 1_555
O8 Co2 1_555 1_555
O21 Co2 1_555 1_555
C1 H1 1_555 1_555
C2 C1 1_555 1_555
C3 C2 1_555 1_555
H2 C3 1_555 1_555
C10 H7 1_555 1_555
C11 H8 1_555 1_555
C12 C11 1_555 1_555
H9 C12 1_555 1_555
C16 C17 1_555 1_555
C17 H12 1_555 1_555
C18 C17 1_555 1_555
C19 C18 1_555 1_555
H13 C19 1_555 1_555
C20 C19 1_555 1_555
C21 C16 1_555 1_555
C22 C20 1_555 1_555
C23 C22 1_555 1_555
H15 C23 1_555 1_555
C25 C18 1_555 1_555
C26 C27 1_555 1_555
C27 C28 1_555 1_555
C28 H17 1_555 1_555
C29 C28 1_555 1_555
C32 C27 1_555 1_555
H19 C32 1_555 1_555
C33 C31 1_555 1_555
C35 C33 1_555 1_555
H21 C35 1_555 1_555
Co5 N1 1_555 1_555
N1 C10 1_555 1_555
N2 C2 1_555 1_555
O3 C25 1_555 1_555
O4 C25 1_555 1_555
O5 C26 1_555 1_555
O6 C26 1_555 1_555
C57 C35 1_555 1_555
H31 C57 1_555 1_555
C10 N2 1_555 1_555
C11 N2 1_555 1_555
C12 N1 1_555 1_555
C20 C21 1_555 1_555
C31 C32 1_555 1_555
Co5 O4 1_555 1_555
Co5 O5 1_555 1_555
H18 C30 1_555 1_555
O7 C36 1_555 1_555
O21 C36 1_555 1_555
H27 C47 1_555 1_555
O10 C38 1_555 1_555
H16 C24 1_555 1_555
O1 C15 1_555 1_555
H29 C53 1_555 1_555
O16 C59 1_555 1_555
O17 C59 1_555 1_555
Co11 O17 1_555 1_555
C39 C40 1_555 1_555
C40 H23 1_555 1_555
C41 C40 1_555 1_555
C42 C41 1_555 1_555
H24 C42 1_555 1_555
C43 C42 1_555 1_555
C44 C39 1_555 1_555
C45 C43 1_555 1_555
H26 C46 1_555 1_555
C48 C41 1_555 1_555
O12 C48 1_555 1_555
O13 C48 1_555 1_555
Co7 O13 1_555 1_555
C43 C44 1_555 1_555
C45 C46 1_555 1_555
H20 C34 1_555 1_555
C49 C50 1_555 1_555
C50 C51 1_555 1_555
C51 H28 1_555 1_555
C52 C51 1_555 1_555
C55 C50 1_555 1_555
H30 C55 1_555 1_555
C56 C54 1_555 1_555
C58 C34 1_555 1_555
H32 C58 1_555 1_555
O14 C49 1_555 1_555
O15 C49 1_555 1_555
C60 H33 1_555 1_555
C61 C60 1_555 1_555
C62 C61 1_555 1_555
H34 C62 1_555 1_555
C69 H39 1_555 1_555
C70 H40 1_555 1_555
C71 C70 1_555 1_555
H41 C71 1_555 1_555
Co7 O14 1_555 1_555
N7 C69 1_555 1_555
N8 C61 1_555 1_555
N14 Co7 1_555 1_555
C54 C55 1_555 1_555
C56 C58 1_555 1_555
C69 N8 1_555 1_555
C70 N8 1_555 1_555
C71 N7 1_555 1_555
Co7 N7 1_555 1_555
C64 C63 1_555 1_555
H35 C64 1_555 1_555
C66 H36 1_555 1_555
C67 H37 1_555 1_555
C68 H38 1_555 1_555
C72 H42 1_555 1_555
C73 C66 1_555 1_555
H43 C73 1_555 1_555
C74 C67 1_555 1_555
N9 C63 1_555 1_555
N10 C65 1_555 1_555
N14 C72 1_555 1_555
N16 C68 1_555 1_555
C64 C65 1_555 1_555
C66 N10 1_555 1_555
C67 N9 1_555 1_555
C68 N9 1_555 1_555
C72 N10 1_555 1_555
C73 N14 1_555 1_555
C74 N16 1_555 1_555
O18 Co11 1_555 1_555

#END
