
###############################################################################
#
# This file contains modified crystal structure data generated from the
# MOF subset of the Cambridge Structural Database (CSD) v543 
# hosted by the Cambridge Crystallographic Data Centre (CCDC).
#
# This work is licensed under the Creative Commons
# Attribution-NonCommercial-ShareAlike 4.0 International License.
# To view a copy of this license, visit
# http://creativecommons.org/licenses/by-nc-sa/4.0/
# or send a letter to
# Creative Commons, PO Box 1866, Mountain View, CA 94042, USA.
#
# CIF created using the CSD Python API on 29 September 2022
# The structure has been converted into the P1 space group
# The structure has a 3D framework
# The original CSD entry DUZPUL is in the monoclinic crystal system
# The framework has been calculated to contain at least 10.0% void space
# The void calculation uses a probe of radius 1.32A, grid spacing 0.4
#
###############################################################################

data_DUZPUL
_chemical_formula_moiety         '(C88 H88 N8 O44 Zn8)n'
_symmetry_cell_setting           triclinic
_symmetry_space_group_name_H-M   'P 1'
_symmetry_Int_Tables_number      1
_space_group_name_Hall           'P 1'
loop_
_symmetry_equiv_pos_site_id
_symmetry_equiv_pos_as_xyz
1 x,y,z
_cell_length_a                   14.2786(5)
_cell_length_b                   13.0268(4)
_cell_length_c                   17.8255(6)
_cell_angle_alpha                90
_cell_angle_beta                 95.847(3)
_cell_angle_gamma                90
_cell_volume                     3298.37
loop_
_atom_site_label
_atom_site_type_symbol
_atom_site_fract_x
_atom_site_fract_y
_atom_site_fract_z
C8 C 0.3401(3) 0.0085(4) 0.6563(2)
O5 O 0.3542(2) 0.0845(3) 0.61558(17)
Zn3 Zn 0.49224(3) 0.05605(4) 0.77347(3)
Zn6 Zn 0.42669(4) 0.21941(4) 0.63536(3)
Zn1 Zn 0.00776(3) 0.55605(4) 0.72653(3)
Zn2 Zn 0.07331(4) 0.71941(4) 0.86464(3)
C1 C 0.1696(3) 0.7866(3) 0.6401(2)
C2 C 0.2241(3) 0.8686(3) 0.6696(2)
H1 H 0.2253 0.8855 0.7203
C3 C 0.2757(3) 0.9241(3) 0.6236(2)
C4 C 0.2749(3) 0.8995(4) 0.5472(2)
H2 H 0.3079 0.9398 0.5158
C5 C 0.2245(3) 0.8144(4) 0.5182(2)
C6 C 0.1726(3) 0.7601(4) 0.5649(2)
H3 H 0.1383 0.7036 0.5457
C7 C 0.1126(3) 0.7242(3) 0.6906(2)
C9 C 0.2302(3) 0.7821(3) 0.4376(2)
C10 C 0.3008(3) 0.8186(4) 0.3969(2)
H4 H 0.3472 0.8610 0.4204
C11 C 0.3033(3) 0.7929(3) 0.3220(2)
C12 C 0.2367(3) 0.7285(3) 0.2872(2)
H5 H 0.2369 0.7138 0.2361
C13 C 0.1691(3) 0.6852(3) 0.3277(2)
C14 C 0.1649(3) 0.7141(3) 0.4018(2)
H6 H 0.1175 0.6877 0.4283
C15 C 0.3765(3) 0.8376(3) 0.2769(2)
C16 C 0.1014(3) 0.6072(4) 0.2897(3)
C17 C 0.2460(6) 0.8024(7) 0.9495(5)
H7 H 0.2281 0.7599 0.9852
C18 C 0.3599(9) 0.9216(11) 0.9179(7)
H8 H 0.3199 0.9232 0.8712
H9 H 0.4217 0.8990 0.9086
H10 H 0.3639 0.9892 0.9395
O1 O 0.0676(2) 0.6496(2) 0.65944(16)
O2 O 0.0353(3) 0.6964(3) 0.9740(2)
H22 H 0.0008 0.6412 0.9841
O3 O 0.1153(3) 0.7496(3) 0.75719(18)
O4 O 0.3750(2) 0.9935(3) 0.72266(17)
O6 O 0.4547(2) 0.8690(2) 0.31319(17)
O7 O 0.3612(2) 0.8467(3) 0.20917(18)
O8 O 0.0963(3) 0.5943(3) 0.22258(19)
O9 O 0.0524(2) 0.5563(3) 0.33385(19)
O10 O 0.1921(3) 0.8074(4) 0.9014(3)
N1 N 0.3247(4) 0.8578(5) 0.9650(3)
Zn5 Zn 0.50776(3) 0.94395(4) 0.22653(3)
Zn7 Zn 0.57331(4) 0.78059(4) 0.36464(3)
O12 O 0.1250(2) 0.4935(3) 0.77734(17)
O13 O 0.1458(2) 0.5845(3) 0.88442(17)
C20 C 0.9506(10) 0.8978(12) 0.8788(9)
H14 H 0.9556 0.8788 0.9276
H15 H 0.8758 0.9870 0.9670
H18 H 0.9085 0.9739 0.7539
O11 O 0.9908(3) 0.8494(4) 0.8512(3)
N2 N 0.8919(5) 0.9816(6) 0.8586(5)
Zn4 Zn 0.99224(3) 0.44395(4) 0.27347(3)
O14 O 0.9547(2) 0.6310(2) 0.81319(17)
O15 O 0.8612(2) 0.6533(3) 0.70917(18)
O16 O 0.9476(2) 0.4437(3) 0.66615(19)
C9_2 C 0.2698(3) 0.2821(3) 0.0624(2)
C10_2 C 0.1992(3) 0.3186(4) 0.1031(2)
H4_2 H 0.1528 0.3610 0.0796
C11_2 C 0.1967(3) 0.2929(3) 0.1780(2)
C12_2 C 0.2633(3) 0.2285(3) 0.2128(2)
H5_2 H 0.2631 0.2138 0.2639
C13_2 C 0.3309(3) 0.1852(3) 0.1723(2)
C14_2 C 0.3351(3) 0.2141(3) 0.0982(2)
H6_2 H 0.3825 0.1877 0.0717
C15_2 C 0.1235(3) 0.3376(3) 0.2231(2)
C16_2 C 0.3986(3) 0.1072(4) 0.2103(3)
O6_2 O 0.0453(2) 0.3690(2) 0.18681(17)
O7_2 O 0.1388(2) 0.3467(3) 0.29083(18)
O8_2 O 0.4037(3) 0.0943(3) 0.27742(19)
O9_2 O 0.4476(2) 0.0563(3) 0.16615(19)
C1_2 C 0.3304(3) 0.2866(3) 0.8599(2)
C2_2 C 0.2759(3) 0.3686(3) 0.8304(2)
H1_2 H 0.2747 0.3855 0.7797
C3_2 C 0.2243(3) 0.4241(3) 0.8764(2)
C4_2 C 0.2251(3) 0.3995(4) 0.9528(2)
H2_2 H 0.1921 0.4398 0.9842
C5_2 C 0.2755(3) 0.3144(4) 0.9818(2)
C6_2 C 0.3274(3) 0.2601(4) 0.9351(2)
H3_2 H 0.3617 0.2036 0.9543
C7_2 C 0.3874(3) 0.2242(3) 0.8094(2)
C8_2 C 0.1599(3) 0.5085(4) 0.8437(2)
C17_2 C 0.2540(6) 0.3024(7) 0.5505(5)
H7_2 H 0.2719 0.2599 0.5148
C18_2 C 0.1401(9) 0.4216(11) 0.5821(7)
H8_2 H 0.1801 0.4232 0.6288
H9_2 H 0.0783 0.3990 0.5914
H10_2 H 0.1361 0.4892 0.5605
C19 C 0.1170(11) 0.3510(17) 0.4638(7)
H11 H 0.0643 0.3967 0.4643
H12 H 0.0947 0.2819 0.4562
H13 H 0.1534 0.3700 0.4235
C20_2 C 0.5494(10) 0.3978(12) 0.6212(9)
H14_2 H 0.5444 0.3788 0.5724
C21 C 0.6505(12) 0.5210(14) 0.5781(9)
H15_2 H 0.6242 0.4870 0.5330
H16 H 0.7172 0.5093 0.5852
H17 H 0.6386 0.5934 0.5736
C22 C 0.6284(9) 0.5126(10) 0.7140(7)
H18_2 H 0.5915 0.4739 0.7461
H19 H 0.6141 0.5843 0.7180
H20 H 0.6941 0.5017 0.7293
O1_2 O 0.4324(2) 0.1496(2) 0.84056(16)
O2_2 O 0.4647(3) 0.1964(3) 0.5260(2)
H21 H 0.4464 0.2415 0.4891
H22_2 H 0.4992 0.1412 0.5159
O3_2 O 0.3847(3) 0.2496(3) 0.74281(18)
O10_2 O 0.3079(3) 0.3074(4) 0.5986(3)
O11_2 O 0.5092(3) 0.3494(4) 0.6488(3)
N1_2 N 0.1753(4) 0.3578(5) 0.5350(3)
N2_2 N 0.6081(5) 0.4816(6) 0.6414(5)
O14_2 O 0.5453(2) 0.1310(2) 0.68681(17)
O15_2 O 0.6388(2) 0.1533(3) 0.79083(18)
O16_2 O 0.5524(2) 0.9437(3) 0.83385(19)
Zn7_2 Zn 0.92669(4) 0.28059(4) 0.13536(3)
C20_3 C 0.0494(10) 0.1022(12) 0.1212(9)
H14_3 H 0.0444 0.1212 0.0724
H15_3 H 0.1242 0.0130 0.0330
H18_3 H 0.0915 0.0261 0.2461
O11_3 O 0.0092(3) 0.1506(4) 0.1488(3)
N2_3 N 0.1081(5) 0.0184(6) 0.1414(5)
C1_3 C 0.8304(3) 0.2134(3) 0.3599(2)
C2_3 C 0.7759(3) 0.1314(3) 0.3304(2)
H1_3 H 0.7747 0.1145 0.2797
C3_3 C 0.7243(3) 0.0759(3) 0.3764(2)
C4_3 C 0.7251(3) 0.1005(4) 0.4528(2)
H2_3 H 0.6921 0.0602 0.4842
C5_3 C 0.7755(3) 0.1856(4) 0.4818(2)
C6_3 C 0.8274(3) 0.2399(4) 0.4351(2)
H3_3 H 0.8617 0.2964 0.4543
C7_3 C 0.8874(3) 0.2758(3) 0.3094(2)
C9_3 C 0.7698(3) 0.2179(3) 0.5624(2)
C10_3 C 0.6992(3) 0.1814(4) 0.6031(2)
H4_3 H 0.6528 0.1390 0.5796
C11_3 C 0.6967(3) 0.2071(3) 0.6780(2)
C12_3 C 0.7633(3) 0.2715(3) 0.7128(2)
H5_3 H 0.7631 0.2862 0.7639
C13_3 C 0.8309(3) 0.3148(3) 0.6723(2)
C14_3 C 0.8351(3) 0.2859(3) 0.5982(2)
H6_3 H 0.8825 0.3123 0.5717
C15_3 C 0.6235(3) 0.1624(3) 0.7231(2)
C16_3 C 0.8986(3) 0.3928(4) 0.7103(3)
C17_3 C 0.7540(6) 0.1976(7) 0.0505(5)
H7_3 H 0.7719 0.2401 0.0148
C18_3 C 0.6401(9) 0.0784(11) 0.0821(7)
H8_3 H 0.6801 0.0768 0.1288
H9_3 H 0.5783 0.1010 0.0914
H10_3 H 0.6361 0.0108 0.0605
O1_3 O 0.9324(2) 0.3504(2) 0.34056(16)
O2_3 O 0.9647(3) 0.3036(3) 0.0260(2)
H22_3 H 0.9992 0.3588 0.0159
O3_3 O 0.8847(3) 0.2504(3) 0.24281(18)
O4_2 O 0.6250(2) 0.0065(3) 0.27734(17)
O8_3 O 0.9037(3) 0.4057(3) 0.77742(19)
O10_3 O 0.8079(3) 0.1926(4) 0.0986(3)
N1_3 N 0.6753(4) 0.1422(5) 0.0350(3)
O12_2 O 0.8750(2) 0.5065(3) 0.22266(17)
O13_2 O 0.8542(2) 0.4155(3) 0.11558(17)
C8_3 C 0.6599(3) 0.9915(4) 0.3437(2)
O5_2 O 0.6458(2) 0.9155(3) 0.38442(17)
C1_4 C 0.6696(3) 0.7134(3) 0.1401(2)
C2_4 C 0.7241(3) 0.6314(3) 0.1696(2)
H1_4 H 0.7253 0.6145 0.2203
C3_4 C 0.7757(3) 0.5759(3) 0.1236(2)
C4_4 C 0.7749(3) 0.6005(4) 0.0472(2)
H2_4 H 0.8079 0.5602 0.0158
C5_4 C 0.7245(3) 0.6856(4) 0.0182(2)
C6_4 C 0.6726(3) 0.7399(4) 0.0649(2)
H3_4 H 0.6383 0.7964 0.0457
C7_4 C 0.6126(3) 0.7758(3) 0.1906(2)
C8_4 C 0.8401(3) 0.4915(4) 0.1563(2)
C17_4 C 0.7460(6) 0.6976(7) 0.4495(5)
H7_4 H 0.7281 0.7401 0.4852
C18_4 C 0.8599(9) 0.5784(11) 0.4179(7)
H8_4 H 0.8199 0.5768 0.3712
H9_4 H 0.9217 0.6010 0.4086
H10_4 H 0.8639 0.5108 0.4395
C19_2 C 0.8830(11) 0.6490(17) 0.5362(7)
H11_2 H 0.9357 0.6033 0.5357
H12_2 H 0.9053 0.7181 0.5438
H13_2 H 0.8466 0.6300 0.5765
C20_4 C 0.4506(10) 0.6022(12) 0.3788(9)
H14_4 H 0.4556 0.6212 0.4276
C21_2 C 0.3495(12) 0.4790(14) 0.4219(9)
H15_4 H 0.3758 0.5130 0.4670
H16_2 H 0.2828 0.4907 0.4148
H17_2 H 0.3614 0.4066 0.4264
C22_2 C 0.3716(9) 0.4874(10) 0.2860(7)
H18_4 H 0.4085 0.5261 0.2539
H19_2 H 0.3859 0.4157 0.2820
H20_2 H 0.3059 0.4983 0.2707
O1_4 O 0.5676(2) 0.8504(2) 0.15944(16)
O2_4 O 0.5353(3) 0.8036(3) 0.4740(2)
H21_2 H 0.5536 0.7585 0.5109
H22_4 H 0.5008 0.8588 0.4841
O3_4 O 0.6153(3) 0.7504(3) 0.25719(18)
O10_4 O 0.6921(3) 0.6926(4) 0.4014(3)
O11_4 O 0.4908(3) 0.6506(4) 0.3512(3)
N1_4 N 0.8247(4) 0.6422(5) 0.4650(3)
N2_4 N 0.3919(5) 0.5184(6) 0.3586(5)
C9_4 C 0.7302(3) 0.7179(3) 0.9376(2)
C10_4 C 0.8008(3) 0.6814(4) 0.8969(2)
H4_4 H 0.8472 0.6390 0.9204
C11_4 C 0.8033(3) 0.7071(3) 0.8220(2)
C12_4 C 0.7367(3) 0.7715(3) 0.7872(2)
H5_4 H 0.7369 0.7862 0.7361
C13_4 C 0.6691(3) 0.8148(3) 0.8277(2)
C14_4 C 0.6649(3) 0.7859(3) 0.9018(2)
H6_4 H 0.6175 0.8123 0.9283
C15_4 C 0.8765(3) 0.6624(3) 0.7769(2)
C16_4 C 0.6014(3) 0.8928(4) 0.7897(3)
O8_4 O 0.5963(3) 0.9057(3) 0.72258(19)
C19_3 C 0.3830(11) 0.8510(17) 0.0362(7)
H11_3 H 0.4357 0.8967 0.0357
H12_3 H 0.4053 0.7819 0.0438
H13_3 H 0.3466 0.8700 0.0765
H21_3 H 0.0536 0.7415 0.0109
C21_3 C 0.8495(12) 0.0210(14) 0.9219(9)
H16_3 H 0.7828 0.0093 0.9148
H17_3 H 0.8614 0.0934 0.9264
C22_3 C 0.8716(9) 0.0126(10) 0.7860(7)
H19_3 H 0.8859 0.0843 0.7820
H20_3 H 0.8059 0.0017 0.7707
C21_4 C 0.1505(12) 0.9790(14) 0.0781(9)
H16_4 H 0.2172 0.9907 0.0852
H17_4 H 0.1386 0.9066 0.0736
C22_4 C 0.1284(9) 0.9874(10) 0.2140(7)
H19_4 H 0.1141 0.9157 0.2180
H20_4 H 0.1941 0.9983 0.2293
C19_4 C 0.6170(11) 0.1490(17) 0.9638(7)
H11_4 H 0.5643 0.1033 0.9643
H12_4 H 0.5947 0.2181 0.9562
H13_4 H 0.6534 0.1300 0.9235
H21_4 H 0.9464 0.2585 0.9891
loop_
_geom_bond_atom_site_label_1
_geom_bond_atom_site_label_2
_geom_bond_site_symmetry_1
_geom_bond_site_symmetry_2
O5 C8 1_555 1_555
Zn6 O5 1_555 1_555
Zn1 O1 1_555 1_555
Zn2 O2 1_555 1_555
C1 C2 1_555 1_555
C2 H1 1_555 1_555
C3 C2 1_555 1_555
C4 C3 1_555 1_555
H2 C4 1_555 1_555
C5 C4 1_555 1_555
C6 C1 1_555 1_555
H3 C6 1_555 1_555
C7 C1 1_555 1_555
C9 C5 1_555 1_555
C10 C9 1_555 1_555
H4 C10 1_555 1_555
C11 C10 1_555 1_555
C12 C11 1_555 1_555
H5 C12 1_555 1_555
C13 C12 1_555 1_555
C14 C9 1_555 1_555
H6 C14 1_555 1_555
C15 C11 1_555 1_555
C16 C13 1_555 1_555
C17 H7 1_555 1_555
C18 H8 1_555 1_555
H9 C18 1_555 1_555
H10 C18 1_555 1_555
O1 C7 1_555 1_555
H22 O2 1_555 1_555
O3 Zn2 1_555 1_555
O6 C15 1_555 1_555
O7 C15 1_555 1_555
O8 C16 1_555 1_555
O9 C16 1_555 1_555
O10 Zn2 1_555 1_555
N1 C17 1_555 1_555
Zn5 O6 1_555 1_555
Zn7 O6 1_555 1_555
O12 Zn1 1_555 1_555
O13 Zn2 1_555 1_555
C5 C6 1_555 1_555
C7 O3 1_555 1_555
C13 C14 1_555 1_555
C17 O10 1_555 1_555
C18 N1 1_555 1_555
O7 Zn5 1_555 1_555
C20 H14 1_555 1_555
N2 C20 1_555 1_555
C20 O11 1_555 1_555
C10_2 C9_2 1_555 1_555
H4_2 C10_2 1_555 1_555
C11_2 C10_2 1_555 1_555
C12_2 C11_2 1_555 1_555
H5_2 C12_2 1_555 1_555
C13_2 C12_2 1_555 1_555
C14_2 C9_2 1_555 1_555
H6_2 C14_2 1_555 1_555
C15_2 C11_2 1_555 1_555
C16_2 C13_2 1_555 1_555
O6_2 C15_2 1_555 1_555
O7_2 C15_2 1_555 1_555
O8_2 C16_2 1_555 1_555
O9_2 C16_2 1_555 1_555
C13_2 C14_2 1_555 1_555
Zn3 O1_2 1_555 1_555
Zn6 O2_2 1_555 1_555
C1_2 C2_2 1_555 1_555
C2_2 H1_2 1_555 1_555
C3_2 C2_2 1_555 1_555
C4_2 C3_2 1_555 1_555
H2_2 C4_2 1_555 1_555
C5_2 C4_2 1_555 1_555
C6_2 C1_2 1_555 1_555
H3_2 C6_2 1_555 1_555
C7_2 C1_2 1_555 1_555
C8_2 C3_2 1_555 1_555
C17_2 H7_2 1_555 1_555
C18_2 H8_2 1_555 1_555
H9_2 C18_2 1_555 1_555
H10_2 C18_2 1_555 1_555
C19 H11 1_555 1_555
H12 C19 1_555 1_555
H13 C19 1_555 1_555
C20_2 H14_2 1_555 1_555
C21 H15_2 1_555 1_555
H16 C21 1_555 1_555
H17 C21 1_555 1_555
C22 H18_2 1_555 1_555
H19 C22 1_555 1_555
H20 C22 1_555 1_555
O1_2 C7_2 1_555 1_555
O2_2 H21 1_555 1_555
H22_2 O2_2 1_555 1_555
O3_2 Zn6 1_555 1_555
O12 C8_2 1_555 1_555
O13 C8_2 1_555 1_555
O10_2 Zn6 1_555 1_555
O11_2 Zn6 1_555 1_555
N1_2 C17_2 1_555 1_555
N2_2 C20_2 1_555 1_555
O14_2 Zn3 1_555 1_555
O15_2 Zn3 1_555 1_555
Zn6 O14_2 1_555 1_555
C5_2 C6_2 1_555 1_555
C7_2 O3_2 1_555 1_555
C17_2 O10_2 1_555 1_555
C18_2 N1_2 1_555 1_555
C19 N1_2 1_555 1_555
C20_2 O11_2 1_555 1_555
C21 N2_2 1_555 1_555
C22 N2_2 1_555 1_555
C20_3 H14_3 1_555 1_555
N2_3 C20_3 1_555 1_555
C20_3 O11_3 1_555 1_555
Zn4 O1_3 1_555 1_555
Zn7_2 O2_3 1_555 1_555
C1_3 C2_3 1_555 1_555
C2_3 H1_3 1_555 1_555
C3_3 C2_3 1_555 1_555
C4_3 C3_3 1_555 1_555
H2_3 C4_3 1_555 1_555
C5_3 C4_3 1_555 1_555
C6_3 C1_3 1_555 1_555
H3_3 C6_3 1_555 1_555
C7_3 C1_3 1_555 1_555
C9_3 C5_3 1_555 1_555
C10_3 C9_3 1_555 1_555
H4_3 C10_3 1_555 1_555
C11_3 C10_3 1_555 1_555
C12_3 C11_3 1_555 1_555
H5_3 C12_3 1_555 1_555
C13_3 C12_3 1_555 1_555
C14_3 C9_3 1_555 1_555
H6_3 C14_3 1_555 1_555
C15_3 C11_3 1_555 1_555
C16_3 C13_3 1_555 1_555
C17_3 H7_3 1_555 1_555
C18_3 H8_3 1_555 1_555
H9_3 C18_3 1_555 1_555
H10_3 C18_3 1_555 1_555
O1_3 C7_3 1_555 1_555
H22_3 O2_3 1_555 1_555
O3_3 Zn7_2 1_555 1_555
O14_2 C15_3 1_555 1_555
O15_2 C15_3 1_555 1_555
O8_3 C16_3 1_555 1_555
O16 C16_3 1_555 1_555
O10_3 Zn7_2 1_555 1_555
N1_3 C17_3 1_555 1_555
O12_2 Zn4 1_555 1_555
O13_2 Zn7_2 1_555 1_555
C5_3 C6_3 1_555 1_555
C7_3 O3_3 1_555 1_555
C13_3 C14_3 1_555 1_555
C17_3 O10_3 1_555 1_555
C18_3 N1_3 1_555 1_555
O5_2 C8_3 1_555 1_555
Zn7 O5_2 1_555 1_555
Zn5 O1_4 1_555 1_555
Zn7 O2_4 1_555 1_555
C1_4 C2_4 1_555 1_555
C2_4 H1_4 1_555 1_555
C3_4 C2_4 1_555 1_555
C4_4 C3_4 1_555 1_555
H2_4 C4_4 1_555 1_555
C5_4 C4_4 1_555 1_555
C6_4 C1_4 1_555 1_555
H3_4 C6_4 1_555 1_555
C7_4 C1_4 1_555 1_555
C8_4 C3_4 1_555 1_555
C17_4 H7_4 1_555 1_555
C18_4 H8_4 1_555 1_555
H9_4 C18_4 1_555 1_555
H10_4 C18_4 1_555 1_555
C19_2 H11_2 1_555 1_555
H12_2 C19_2 1_555 1_555
H13_2 C19_2 1_555 1_555
C20_4 H14_4 1_555 1_555
C21_2 H15_4 1_555 1_555
H16_2 C21_2 1_555 1_555
H17_2 C21_2 1_555 1_555
C22_2 H18_4 1_555 1_555
H19_2 C22_2 1_555 1_555
H20_2 C22_2 1_555 1_555
O1_4 C7_4 1_555 1_555
O2_4 H21_2 1_555 1_555
H22_4 O2_4 1_555 1_555
O3_4 Zn7 1_555 1_555
O12_2 C8_4 1_555 1_555
O13_2 C8_4 1_555 1_555
O10_4 Zn7 1_555 1_555
O11_4 Zn7 1_555 1_555
N1_4 C17_4 1_555 1_555
N2_4 C20_4 1_555 1_555
C5_4 C6_4 1_555 1_555
C7_4 O3_4 1_555 1_555
C17_4 O10_4 1_555 1_555
C18_4 N1_4 1_555 1_555
C19_2 N1_4 1_555 1_555
C20_4 O11_4 1_555 1_555
C21_2 N2_4 1_555 1_555
C22_2 N2_4 1_555 1_555
C10_4 C9_4 1_555 1_555
H4_4 C10_4 1_555 1_555
C11_4 C10_4 1_555 1_555
C12_4 C11_4 1_555 1_555
H5_4 C12_4 1_555 1_555
C13_4 C12_4 1_555 1_555
C14_4 C9_4 1_555 1_555
H6_4 C14_4 1_555 1_555
C15_4 C11_4 1_555 1_555
C16_4 C13_4 1_555 1_555
O14 C15_4 1_555 1_555
O15 C15_4 1_555 1_555
O8_4 C16_4 1_555 1_555
O16_2 C16_4 1_555 1_555
C13_4 C14_4 1_555 1_555
C19_3 H11_3 1_555 1_555
H12_3 C19_3 1_555 1_555
H13_3 C19_3 1_555 1_555
H16_3 C21_3 1_555 1_555
H17_3 C21_3 1_555 1_555
H19_3 C22_3 1_555 1_555
H20_3 C22_3 1_555 1_555
H16_4 C21_4 1_555 1_555
H17_4 C21_4 1_555 1_555
H19_4 C22_4 1_555 1_555
H20_4 C22_4 1_555 1_555
C19_4 H11_4 1_555 1_555
H12_4 C19_4 1_555 1_555
H13_4 C19_4 1_555 1_555

#END
