
###############################################################################
#
# This file contains modified crystal structure data generated from the
# MOF subset of the Cambridge Structural Database (CSD) v543 
# hosted by the Cambridge Crystallographic Data Centre (CCDC).
#
# This work is licensed under the Creative Commons
# Attribution-NonCommercial-ShareAlike 4.0 International License.
# To view a copy of this license, visit
# http://creativecommons.org/licenses/by-nc-sa/4.0/
# or send a letter to
# Creative Commons, PO Box 1866, Mountain View, CA 94042, USA.
#
# CIF created using the CSD Python API on 29 September 2022
# The structure has been converted into the P1 space group
# The structure has a 3D framework
# The original CSD entry DUZWOM is in the monoclinic crystal system
# The framework has been calculated to contain at least 10.0% void space
# The void calculation uses a probe of radius 1.32A, grid spacing 0.4
#
###############################################################################

data_DUZWOM
_chemical_formula_moiety         '(C32 H40 Mn22 O47)n'
_symmetry_cell_setting           triclinic
_symmetry_space_group_name_H-M   'P 1'
_symmetry_Int_Tables_number      1
_space_group_name_Hall           'P 1'
loop_
_symmetry_equiv_pos_site_id
_symmetry_equiv_pos_as_xyz
1 x,y,z
_cell_length_a                   11.7463(2)
_cell_length_b                   10.9570(2)
_cell_length_c                   15.8217(2)
_cell_angle_alpha                90
_cell_angle_beta                 91.7600(10)
_cell_angle_gamma                90
_cell_volume                     2035.36
loop_
_atom_site_label
_atom_site_type_symbol
_atom_site_fract_x
_atom_site_fract_y
_atom_site_fract_z
Mn1 Mn 0.0000 0.0000 0.0000
Mn2 Mn 0.25927(4) 0.04236(4) 0.13514(3)
Mn4 Mn 0.5000 0.0000 0.0000
O3 O 0.0213(2) 0.1889(2) 0.02853(17)
O4 O 0.15740(18) 0.21211(19) 0.12804(14)
C2 C 0.0753(3) 0.2484(3) 0.0809(2)
H2 H 0.0534 0.3313 0.0870
O5 O 0.29994(18) 0.14129(19) 0.25711(13)
C3 C 0.3179(3) 0.0942(3) 0.3303(2)
C4 C 0.3548(7) 0.1722(4) 0.4013(3)
H3 H 0.3337 0.1339 0.4546
H4 H 0.3178 0.2520 0.3959
H5 H 0.4377 0.1826 0.4009
O9 O 0.40348(18) 0.12947(19) 0.07790(13)
O10 O 0.3963(2) 0.3190(2) 0.12803(17)
C6 C 0.4372(3) 0.2383(3) 0.0843(2)
H7 H 0.5008 0.2603 0.0520
Mn7 Mn 0.26018(4) 0.32833(4) 0.21413(3)
O29 O 0.6548(2) 0.0832(3) 0.04602(17)
Mn1_2 Mn -0.0000 0.0000 1.0000
Mn4_2 Mn 0.5000 0.0000 1.0000
O13 O 0.0338(2) 0.0330(3) 0.86777(15)
H11 H 0.0188 0.0867 0.7572
O33 O 0.4957(2) 0.1277(3) 0.89849(17)
Mn1_3 Mn 0.0000 1.0000 0.0000
Mn3 Mn 0.23982(4) 0.82833(4) 0.28587(3)
Mn4_3 Mn 0.5000 1.0000 0.0000
O2 O 0.12985(17) 0.93916(19) 0.20287(13)
C1 C 0.0222(3) 0.9385(3) 0.1950(2)
O6 O 0.3088(2) 0.9850(2) 0.34640(15)
O7 O 0.18748(17) 0.9718(2) 0.01742(13)
O11 O 0.34983(18) 0.8752(2) 0.17851(14)
O12 O 0.5043(2) 0.8723(3) 0.10151(17)
C7 C 0.4425(3) 0.8280(3) 0.1549(2)
C8 C 0.4800(6) 0.7079(6) 0.1909(5)
H8 H 0.5423 0.7209 0.2326
H9 H 0.5065 0.6554 0.1453
H10 H 0.4159 0.6686 0.2183
O25 O 0.34260(18) 0.71211(19) 0.37196(14)
O27 O 0.20006(18) 0.64129(19) 0.24289(13)
O31 O 0.1037(2) 0.8190(2) 0.37197(17)
Mn1_4 Mn 0.0000 1.0000 1.0000
Mn4_4 Mn 0.5000 1.0000 1.0000
O8 O 0.3452(2) 0.9168(3) 0.95398(17)
C5 C 0.2419(3) 0.9192(3) 0.9603(2)
H6 H 0.1981 0.8773 0.9180
O30 O 0.59652(18) 0.87053(19) 0.92210(13)
Mn1_5 Mn 1.0000 0.0000 0.0000
C13 C 0.7581(3) 0.0808(3) 0.0397(2)
H16 H 0.8019 0.1227 0.0820
Mn1_6 Mn 1.0000 0.0000 1.0000
Mn6 Mn 0.76018(4) 0.17167(4) 0.71413(3)
O14 O 0.87015(17) 0.06084(19) 0.79713(13)
C9 C 0.9778(3) 0.0615(3) 0.8050(2)
O18 O 0.6912(2) 0.0150(2) 0.65360(15)
O19 O 0.81252(17) 0.0282(2) 0.98258(13)
O23 O 0.65017(18) 0.1248(2) 0.82149(14)
C15 C 0.5575(3) 0.1720(3) 0.8451(2)
C16 C 0.5200(6) 0.2921(6) 0.8091(5)
H18 H 0.4577 0.2791 0.7674
H19 H 0.4935 0.3446 0.8547
H20 H 0.5841 0.3314 0.7817
O26 O 0.65740(18) 0.28789(19) 0.62804(14)
O28 O 0.79994(18) 0.35871(19) 0.75711(13)
O32 O 0.8963(2) 0.1810(2) 0.62803(17)
Mn1_7 Mn 1.0000 1.0000 0.0000
O1 O 0.9662(2) 0.9670(3) 0.13223(15)
H1 H 0.9812 0.9133 0.2428
Mn1_8 Mn 1.0000 1.0000 1.0000
Mn5 Mn 0.74073(4) 0.95764(4) 0.86486(3)
O15 O 0.9787(2) 0.8111(2) 0.97147(17)
O16 O 0.84260(18) 0.78789(19) 0.87196(14)
C10 C 0.9247(3) 0.7516(3) 0.9191(2)
H12 H 0.9466 0.6687 0.9130
O17 O 0.70006(18) 0.85871(19) 0.74289(13)
C11 C 0.6821(3) 0.9058(3) 0.6697(2)
C12 C 0.6452(7) 0.8278(4) 0.5987(3)
H13 H 0.6663 0.8661 0.5454
H14 H 0.6822 0.7480 0.6041
H15 H 0.5623 0.8174 0.5991
O22 O 0.6037(2) 0.6810(2) 0.87197(17)
C14 C 0.5628(3) 0.7617(3) 0.9157(2)
H17 H 0.4992 0.7397 0.9480
Mn8 Mn 0.73982(4) 0.67167(4) 0.78587(3)
H17_2 H 0.0008 0.2397 0.5520
O24 O 0.0043(2) 0.6277(3) 0.60151(17)
H18_2 H 0.0423 0.7791 0.7326
H19_2 H 0.0065 0.8446 0.6453
Mn9 Mn 0.0000 0.5000 0.5000
Mn1_9 Mn 0.5000 0.5000 0.5000
Mn2_2 Mn 0.24073(4) 0.54236(4) 0.36486(3)
O1_2 O 0.5338(2) 0.4670(3) 0.36777(15)
O2_2 O 0.37015(17) 0.43916(19) 0.29713(13)
C1_2 C 0.4778(3) 0.4385(3) 0.3050(2)
H1_2 H 0.5188 0.4133 0.2572
O3_2 O 0.4787(2) 0.6889(2) 0.47147(17)
C2_2 C 0.4247(3) 0.7484(3) 0.4191(2)
H2_2 H 0.4466 0.8313 0.4130
O6_2 O 0.1912(2) 0.4850(2) 0.15360(15)
C3_2 C 0.1821(3) 0.5942(3) 0.1697(2)
C4_2 C 0.1452(7) 0.6722(4) 0.0987(3)
H3_2 H 0.1663 0.6339 0.0454
H4_2 H 0.1822 0.7520 0.1041
H5_2 H 0.0623 0.6826 0.0991
O7_2 O 0.31252(17) 0.4718(2) 0.48258(13)
O8_2 O 0.1548(2) 0.4168(3) 0.54602(17)
C5_2 C 0.2581(3) 0.4192(3) 0.5397(2)
H6_2 H 0.3019 0.3773 0.5820
O9_2 O 0.09652(18) 0.62947(19) 0.42210(13)
C6_2 C 0.0628(3) 0.7383(3) 0.4157(2)
O11_2 O 0.15017(18) 0.3752(2) 0.32149(14)
C7_2 C 0.0575(3) 0.3280(3) 0.3451(2)
C8_2 C 0.0200(6) 0.2079(6) 0.3091(5)
H10_2 H 0.0841 0.1686 0.2817
Mn5_2 Mn 0.75927(4) 0.45764(4) 0.63514(3)
O13_2 O 0.4662(2) 0.5330(3) 0.63223(15)
O14_2 O 0.62985(17) 0.56084(19) 0.70287(13)
C9_2 C 0.5222(3) 0.5615(3) 0.6950(2)
H11_2 H 0.4812 0.5867 0.7428
O15_2 O 0.5213(2) 0.3111(2) 0.52853(17)
C10_2 C 0.5753(3) 0.2516(3) 0.5809(2)
H12_2 H 0.5534 0.1687 0.5870
O18_2 O 0.8088(2) 0.5150(2) 0.84640(15)
C11_2 C 0.8179(3) 0.4058(3) 0.8303(2)
C12_2 C 0.8548(7) 0.3278(4) 0.9013(3)
H13_2 H 0.8337 0.3661 0.9546
H14_2 H 0.8178 0.2480 0.8959
H15_2 H 0.9377 0.3174 0.9009
O19_2 O 0.68748(17) 0.5282(2) 0.51742(13)
O20 O 0.8452(2) 0.5832(3) 0.45398(17)
C13_2 C 0.7419(3) 0.5808(3) 0.4603(2)
H16_2 H 0.6981 0.6227 0.4180
O21 O 0.90348(18) 0.37053(19) 0.57790(13)
C14_2 C 0.9372(3) 0.2617(3) 0.5843(2)
O23_2 O 0.84983(18) 0.6248(2) 0.67851(14)
C15_2 C 0.9425(3) 0.6720(3) 0.6549(2)
C16_2 C 0.9800(6) 0.7921(6) 0.6909(5)
H20_2 H 0.9159 0.8314 0.7183
Mn9_2 Mn 1.0000 0.5000 0.5000
H7_2 H 0.9992 0.7603 0.4480
O12_2 O 0.9957(2) 0.3723(3) 0.39849(17)
H8_2 H 0.9577 0.2209 0.2674
H9_2 H 0.9935 0.1554 0.3547
loop_
_geom_bond_atom_site_label_1
_geom_bond_atom_site_label_2
_geom_bond_site_symmetry_1
_geom_bond_site_symmetry_2
O3 Mn1 1_555 1_555
O4 Mn2 1_555 1_555
C2 O3 1_555 1_555
H2 C2 1_555 1_555
O5 Mn2 1_555 1_555
C3 O5 1_555 1_555
C4 C3 1_555 1_555
H3 C4 1_555 1_555
H4 C4 1_555 1_555
H5 C4 1_555 1_555
O9 Mn2 1_555 1_555
O10 C6 1_555 1_555
C6 O9 1_555 1_555
H7 C6 1_555 1_555
Mn7 O4 1_555 1_555
O29 Mn4 1_555 1_555
Mn4 O9 1_555 1_555
O4 C2 1_555 1_555
O5 Mn7 1_555 1_555
O10 Mn7 1_555 1_555
O13 Mn1_2 1_555 1_555
O33 Mn4_2 1_555 1_555
Mn3 O2 1_555 1_555
O2 C1 1_555 1_555
O6 Mn3 1_555 1_555
O7 Mn1_3 1_555 1_555
O12 Mn4_3 1_555 1_555
C7 O11 1_555 1_555
C8 C7 1_555 1_555
H8 C8 1_555 1_555
H9 C8 1_555 1_555
H10 C8 1_555 1_555
O25 Mn3 1_555 1_555
O27 Mn3 1_555 1_555
O31 Mn3 1_555 1_555
Mn3 O11 1_555 1_555
O12 C7 1_555 1_555
Mn4_4 O8 1_555 1_555
O8 C5 1_555 1_555
H6 C5 1_555 1_555
O30 Mn4_4 1_555 1_555
O29 C13 1_555 1_555
H16 C13 1_555 1_555
Mn6 O14 1_555 1_555
O14 C9 1_555 1_555
O18 Mn6 1_555 1_555
O19 Mn1_6 1_555 1_555
O33 C15 1_555 1_555
C15 O23 1_555 1_555
C16 C15 1_555 1_555
H18 C16 1_555 1_555
H19 C16 1_555 1_555
H20 C16 1_555 1_555
O26 Mn6 1_555 1_555
O28 Mn6 1_555 1_555
O32 Mn6 1_555 1_555
Mn6 O23 1_555 1_555
Mn1_7 O1 1_555 1_555
O15 Mn1_8 1_555 1_555
O16 Mn5 1_555 1_555
C10 O15 1_555 1_555
H12 C10 1_555 1_555
O17 Mn5 1_555 1_555
C11 O17 1_555 1_555
C12 C11 1_555 1_555
H13 C12 1_555 1_555
H14 C12 1_555 1_555
H15 C12 1_555 1_555
O30 Mn5 1_555 1_555
O22 C14 1_555 1_555
C14 O30 1_555 1_555
H17 C14 1_555 1_555
Mn8 O16 1_555 1_555
O16 C10 1_555 1_555
O17 Mn8 1_555 1_555
O22 Mn8 1_555 1_555
O24 Mn9 1_555 1_555
Mn1_9 O1_2 1_555 1_555
Mn2_2 O2_2 1_555 1_555
Mn7 O2_2 1_555 1_555
Mn9 O8_2 1_555 1_555
O1_2 C1_2 1_555 1_555
O2_2 C1_2 1_555 1_555
C1_2 H1_2 1_555 1_555
O3_2 Mn1_9 1_555 1_555
O25 Mn2_2 1_555 1_555
C2_2 O3_2 1_555 1_555
H2_2 C2_2 1_555 1_555
O27 Mn2_2 1_555 1_555
O6_2 Mn7 1_555 1_555
C3_2 O27 1_555 1_555
C4_2 C3_2 1_555 1_555
H3_2 C4_2 1_555 1_555
H4_2 C4_2 1_555 1_555
H5_2 C4_2 1_555 1_555
O7_2 Mn1_9 1_555 1_555
O8_2 C5_2 1_555 1_555
C5_2 O7_2 1_555 1_555
H6_2 C5_2 1_555 1_555
O9_2 Mn2_2 1_555 1_555
O31 C6_2 1_555 1_555
C6_2 O9_2 1_555 1_555
O11_2 Mn2_2 1_555 1_555
C7_2 O11_2 1_555 1_555
C8_2 C7_2 1_555 1_555
H10_2 C8_2 1_555 1_555
Mn5_2 O14_2 1_555 1_555
Mn8 O14_2 1_555 1_555
O13_2 Mn1_9 1_555 1_555
O14_2 C9_2 1_555 1_555
C9_2 O13_2 1_555 1_555
H11_2 C9_2 1_555 1_555
O15_2 Mn1_9 1_555 1_555
O26 Mn5_2 1_555 1_555
C10_2 O15_2 1_555 1_555
H12_2 C10_2 1_555 1_555
O28 Mn5_2 1_555 1_555
O18_2 Mn8 1_555 1_555
C11_2 O28 1_555 1_555
C12_2 C11_2 1_555 1_555
H13_2 C12_2 1_555 1_555
H14_2 C12_2 1_555 1_555
H15_2 C12_2 1_555 1_555
O19_2 Mn1_9 1_555 1_555
O20 C13_2 1_555 1_555
C13_2 O19_2 1_555 1_555
H16_2 C13_2 1_555 1_555
O21 Mn5_2 1_555 1_555
O32 C14_2 1_555 1_555
C14_2 O21 1_555 1_555
O23_2 Mn5_2 1_555 1_555
C15_2 O23_2 1_555 1_555
C16_2 C15_2 1_555 1_555
H20_2 C16_2 1_555 1_555
Mn9_2 O20 1_555 1_555
Mn2_2 O7_2 1_555 1_555
Mn7 O11_2 1_555 1_555
Mn9 O9_2 1_555 1_555
O25 C2_2 1_555 1_555
O6_2 C3_2 1_555 1_555
Mn5_2 O19_2 1_555 1_555
Mn8 O23_2 1_555 1_555
O26 C10_2 1_555 1_555
O18_2 C11_2 1_555 1_555
O21 Mn9_2 1_555 1_555
O12_2 Mn9_2 1_555 1_555

#END
