
###############################################################################
#
# This file contains modified crystal structure data generated from the
# MOF subset of the Cambridge Structural Database (CSD) v543 
# hosted by the Cambridge Crystallographic Data Centre (CCDC).
#
# This work is licensed under the Creative Commons
# Attribution-NonCommercial-ShareAlike 4.0 International License.
# To view a copy of this license, visit
# http://creativecommons.org/licenses/by-nc-sa/4.0/
# or send a letter to
# Creative Commons, PO Box 1866, Mountain View, CA 94042, USA.
#
# CIF created using the CSD Python API on 29 September 2022
# The structure has been converted into the P1 space group
# The structure has a 3D framework
# The original CSD entry EBAQOR is in the tetragonal crystal system
# The framework has been calculated to contain at least 10.0% void space
# The void calculation uses a probe of radius 1.32A, grid spacing 0.4
# H atom positions have been added when not included in the experimental data
#
###############################################################################

data_EBAQOR
_chemical_formula_moiety         '(C56 H32 Bi8 O42)n'
_symmetry_cell_setting           triclinic
_symmetry_space_group_name_H-M   'P 1'
_symmetry_Int_Tables_number      1
_space_group_name_Hall           'P 1'
loop_
_symmetry_equiv_pos_site_id
_symmetry_equiv_pos_as_xyz
1 x,y,z
_cell_length_a                   18.45(3)
_cell_length_b                   18.45(3)
_cell_length_c                   5.82(3)
_cell_angle_alpha                90
_cell_angle_beta                 90
_cell_angle_gamma                90
_cell_volume                     1981.14
loop_
_atom_site_label
_atom_site_type_symbol
_atom_site_fract_x
_atom_site_fract_y
_atom_site_fract_z
_atom_site_U_iso_or_equiv
_atom_site_thermal_displace_type
O7 O 0.0514(15) 0.5952(14) 0.282(4) 0.0310 Uiso
O9 O 0.175(2) 0.635(2) 0.110(6) 0.0640 Uiso
C9 C 0.1428(18) 0.5912(16) 0.018(4) 0.0300 Uiso
C14 C 0.0753(13) 0.5641(12) 0.081(3) 0.0020 Uiso
Bi7 Bi 0.1573(3) 0.7055(3) 0.4803(6) 0.0292 Uiso
O2 O 0.041(3) 0.404(2) 0.471(7) 0.0800 Uiso
C6 C 0.0169(17) 0.4314(16) 0.655(4) 0.0180 Uiso
O10 O 0.2375(15) 0.5848(14) 0.725(4) 0.0250 Uiso
C8 C 0.0321(19) 0.5077(17) 0.980(5) 0.0370 Uiso
C10 C 0.168(2) 0.5605(18) 0.828(6) 0.0530 Uiso
C11 C 0.1381(18) 0.5029(16) 0.679(4) 0.0250 Uiso
C12 C 0.066(2) 0.469(2) 0.747(6) 0.0580 Uiso
Bi6 Bi 0.2945(3) 0.6573(3) 0.9803(6) 0.0292 Uiso
H7 H 0.178002 0.459457 0.672398 . .
H8 H 0.131309 0.525978 0.508132 . .
Bi1 Bi 0.7055(3) 0.3427(3) 0.0197(6) 0.0292 Uiso
O3 O 0.750000 0.250000 0.183(5) 0.0190 Uiso
O6 O 0.7625(15) 0.4152(14) 0.275(4) 0.0250 Uiso
C1 C 0.9679(19) 0.4923(17) 0.020(5) 0.0370 Uiso
C3 C 0.832(2) 0.4395(18) 0.172(6) 0.0530 Uiso
C4 C 0.8619(18) 0.4971(16) 0.321(4) 0.0250 Uiso
C5 C 0.934(2) 0.531(2) 0.253(6) 0.0580 Uiso
O8 O 0.959(3) 0.596(2) 0.529(7) 0.0800 Uiso
C13 C 0.9831(17) 0.5686(16) 0.345(4) 0.0180 Uiso
Bi2 Bi 0.7945(3) 0.1573(3) 0.0197(6) 0.0292 Uiso
Bi3 Bi 0.6573(3) 0.2055(3) 0.5197(6) 0.0292 Uiso
Bi5 Bi 0.8427(3) 0.2945(3) 0.5197(6) 0.0292 Uiso
O14 O 0.635(2) 0.325(2) 0.390(6) 0.0640 Uiso
O15 O 0.865(2) 0.175(2) 0.390(6) 0.0640 Uiso
O16 O 0.7375(15) 0.0848(14) 0.275(4) 0.0250 Uiso
H3 H 0.868691 0.474022 0.491868 . .
H4 H 0.821998 0.540543 0.327602 . .
O1 O 0.9486(15) 0.4048(14) 0.718(4) 0.0310 Uiso
O4 O 0.825(2) 0.365(2) 0.890(6) 0.0640 Uiso
O5 O 0.704(3) 0.384(3) 0.637(9) 0.0910 Uiso
C2 C 0.8572(18) 0.4088(16) 0.982(4) 0.0300 Uiso
C7 C 0.9247(13) 0.4359(12) 0.919(3) 0.0020 Uiso
O11 O 0.796(3) 0.116(3) 0.637(9) 0.0910 Uiso
O12 O 0.750000 0.250000 0.683(5) 0.0190 Uiso
O13 O 0.675(2) 0.135(2) 0.890(6) 0.0640 Uiso
H1 H 0.679597 0.347512 0.538276 . .
H2 H 0.67726 0.430632 0.628513 . .
H5 H 0.820403 0.152488 0.538276 . .
H6 H 0.82274 0.0693684 0.628513 . .
C1_2 C 0.5321(19) 0.0077(17) 0.020(5) 0.0370 Uiso
C3_2 C 0.668(2) 0.0605(18) 0.172(6) 0.0530 Uiso
C4_2 C 0.6381(18) 0.0029(16) 0.321(4) 0.0250 Uiso
H3_2 H 0.631309 0.0259777 0.491868 . .
O1_2 O 0.5514(15) 0.0952(14) 0.718(4) 0.0310 Uiso
O2_2 O 0.459(3) 0.096(2) 0.471(7) 0.0800 Uiso
C2_2 C 0.6428(18) 0.0912(16) 0.982(4) 0.0300 Uiso
C6_2 C 0.4831(17) 0.0686(16) 0.655(4) 0.0180 Uiso
C7_2 C 0.5753(13) 0.0641(12) 0.919(3) 0.0020 Uiso
C12_2 C 0.434(2) 0.031(2) 0.747(6) 0.0580 Uiso
H7_2 H 0.321998 0.0405435 0.672398 . .
C5_2 C 0.566(2) 0.969(2) 0.253(6) 0.0580 Uiso
O7_2 O 0.4486(15) 0.9048(14) 0.282(4) 0.0310 Uiso
O8_2 O 0.541(3) 0.904(2) 0.529(7) 0.0800 Uiso
O9_2 O 0.325(2) 0.865(2) 0.110(6) 0.0640 Uiso
C9_2 C 0.3572(18) 0.9088(16) 0.018(4) 0.0300 Uiso
C13_2 C 0.5169(17) 0.9314(16) 0.345(4) 0.0180 Uiso
C14_2 C 0.4247(13) 0.9359(12) 0.081(3) 0.0020 Uiso
Bi7_2 Bi 0.3427(3) 0.7945(3) 0.4803(6) 0.0292 Uiso
H4_2 H 0.678002 0.959457 0.327602 . .
O10_2 O 0.2625(15) 0.9152(14) 0.725(4) 0.0250 Uiso
C8_2 C 0.4679(19) 0.9923(17) 0.980(5) 0.0370 Uiso
C10_2 C 0.332(2) 0.9395(18) 0.828(6) 0.0530 Uiso
C11_2 C 0.3619(18) 0.9971(16) 0.679(4) 0.0250 Uiso
Bi6_2 Bi 0.2055(3) 0.8427(3) 0.9803(6) 0.0292 Uiso
H8_2 H 0.368691 0.974022 0.508132 . .
O8_3 O 0.404(2) 0.459(3) 0.029(7) 0.0800 Uiso
O1_3 O 0.5952(14) 0.4486(15) 0.218(4) 0.0310 Uiso
O5_2 O 0.616(3) 0.204(3) 0.137(9) 0.0910 Uiso
O6_2 O 0.5848(14) 0.2625(15) 0.775(4) 0.0250 Uiso
C1_3 C 0.5077(17) 0.4679(19) 0.520(5) 0.0370 Uiso
C2_3 C 0.5912(16) 0.3572(18) 0.482(4) 0.0300 Uiso
C3_3 C 0.5605(18) 0.332(2) 0.672(6) 0.0530 Uiso
C4_3 C 0.5029(16) 0.3619(18) 0.821(4) 0.0250 Uiso
C5_3 C 0.469(2) 0.434(2) 0.753(6) 0.0580 Uiso
C6_3 C 0.5686(16) 0.5169(17) 0.155(4) 0.0180 Uiso
C7_3 C 0.5641(12) 0.4247(13) 0.419(3) 0.0020 Uiso
O7_3 O 0.4048(14) 0.5514(15) 0.782(4) 0.0310 Uiso
O9_3 O 0.365(2) 0.675(2) 0.610(6) 0.0640 Uiso
O10_3 O 0.4152(14) 0.7375(15) 0.225(4) 0.0250 Uiso
C8_3 C 0.4923(17) 0.5321(19) 0.480(5) 0.0370 Uiso
C9_3 C 0.4088(16) 0.6428(18) 0.518(4) 0.0300 Uiso
C10_3 C 0.4395(18) 0.668(2) 0.328(6) 0.0530 Uiso
C11_3 C 0.4971(16) 0.6381(18) 0.179(4) 0.0250 Uiso
C12_3 C 0.531(2) 0.566(2) 0.247(6) 0.0580 Uiso
C13_3 C 0.4314(16) 0.4831(17) 0.845(4) 0.0180 Uiso
C14_3 C 0.4359(12) 0.5753(13) 0.581(3) 0.0020 Uiso
O11_2 O 0.884(3) 0.296(3) 0.137(9) 0.0910 Uiso
O16_2 O 0.9152(14) 0.2375(15) 0.775(4) 0.0250 Uiso
H1_2 H 0.652488 0.179597 0.0382761 . .
H2_2 H 0.569368 0.17726 0.128513 . .
H3_3 H 0.525978 0.368691 0.991868 . .
H4_3 H 0.459457 0.321998 0.827602 . .
H5_2 H 0.847512 0.320403 0.0382761 . .
H6_2 H 0.930632 0.32274 0.128513 . .
H7_3 H 0.540543 0.678002 0.172398 . .
H8_3 H 0.474022 0.631309 0.00813217 . .
O2_3 O 0.596(2) 0.541(3) 0.971(7) 0.0800 Uiso
O7_4 O 0.0952(14) 0.9486(15) 0.782(4) 0.0310 Uiso
O9_4 O 0.135(2) 0.825(2) 0.610(6) 0.0640 Uiso
O10_4 O 0.0848(14) 0.7625(15) 0.225(4) 0.0250 Uiso
C8_4 C 0.0077(17) 0.9679(19) 0.480(5) 0.0370 Uiso
C9_4 C 0.0912(16) 0.8572(18) 0.518(4) 0.0300 Uiso
C10_4 C 0.0605(18) 0.832(2) 0.328(6) 0.0530 Uiso
C11_4 C 0.0029(16) 0.8619(18) 0.179(4) 0.0250 Uiso
C14_4 C 0.0641(12) 0.9247(13) 0.581(3) 0.0020 Uiso
H8_4 H 0.0259777 0.868691 0.00813217 . .
O1_4 O 0.9048(14) 0.0514(15) 0.218(4) 0.0310 Uiso
C1_4 C 0.9923(17) 0.0321(19) 0.520(5) 0.0370 Uiso
C2_4 C 0.9088(16) 0.1428(18) 0.482(4) 0.0300 Uiso
C3_4 C 0.9395(18) 0.168(2) 0.672(6) 0.0530 Uiso
C4_4 C 0.9971(16) 0.1381(18) 0.821(4) 0.0250 Uiso
C7_4 C 0.9359(12) 0.0753(13) 0.419(3) 0.0020 Uiso
H3_4 H 0.974022 0.131309 0.991868 . .
O5_3 O 0.296(3) 0.616(3) 0.363(9) 0.0910 Uiso
O11_3 O 0.204(3) 0.884(3) 0.363(9) 0.0910 Uiso
O12_2 O 0.250000 0.750000 0.317(5) 0.0190 Uiso
H1_3 H 0.320403 0.652488 0.461724 . .
H2_3 H 0.32274 0.569368 0.371487 . .
H5_3 H 0.179597 0.847512 0.461724 . .
H6_3 H 0.17726 0.930632 0.371487 . .
O3_2 O 0.250000 0.750000 0.817(5) 0.0190 Uiso
O5_4 O 0.384(3) 0.796(3) 0.863(9) 0.0910 Uiso
O11_4 O 0.116(3) 0.704(3) 0.863(9) 0.0910 Uiso
H1_4 H 0.347512 0.820403 0.961724 . .
H2_4 H 0.430632 0.82274 0.871487 . .
H5_4 H 0.152488 0.679597 0.961724 . .
H6_4 H 0.0693684 0.67726 0.871487 . .
O8_4 O 0.096(2) 0.041(3) 0.029(7) 0.0800 Uiso
C5_4 C 0.031(2) 0.066(2) 0.753(6) 0.0580 Uiso
C13_4 C 0.0686(16) 0.0169(17) 0.845(4) 0.0180 Uiso
H4_4 H 0.0405435 0.178002 0.827602 . .
C6_4 C 0.9314(16) 0.9831(17) 0.155(4) 0.0180 Uiso
C12_4 C 0.969(2) 0.934(2) 0.247(6) 0.0580 Uiso
H7_4 H 0.959457 0.821998 0.172398 . .
O2_4 O 0.904(2) 0.959(3) 0.971(7) 0.0800 Uiso
loop_
_geom_bond_atom_site_label_1
_geom_bond_atom_site_label_2
_geom_bond_site_symmetry_1
_geom_bond_site_symmetry_2
O9 C9 1_555 1_555
C14 O7 1_555 1_555
Bi7 O9 1_555 1_555
C9 C14 1_555 1_555
O2 C6 1_555 1_555
C6 C12 1_555 1_555
O10 C10 1_555 1_555
C10 C11 1_555 1_555
C11 C12 1_555 1_555
C12 C8 1_555 1_555
O10 Bi6 1_555 1_555
C11 H7 1_555 1_555
C11 H8 1_555 1_555
Bi1 O3 1_555 1_555
O3 Bi2 1_555 1_555
O6 Bi1 1_555 1_555
C1 C5 1_555 1_555
C3 O6 1_555 1_555
C4 C3 1_555 1_555
C5 C4 1_555 1_555
O8 C13 1_555 1_555
C13 C5 1_555 1_555
Bi3 O3 1_555 1_555
Bi5 O3 1_555 1_555
O14 Bi1 1_555 1_555
O15 Bi2 1_555 1_555
O16 Bi2 1_555 1_555
Bi3 O14 1_555 1_555
Bi5 O15 1_555 1_555
C4 H3 1_555 1_555
C4 H4 1_555 1_555
C2 O4 1_555 1_555
C7 O1 1_555 1_555
Bi5 O4 1_555 1_555
C2 C7 1_555 1_555
Bi5 O12 1_555 1_555
O5 H1 1_555 1_555
O5 H2 1_555 1_555
O11 H5 1_555 1_555
O11 H6 1_555 1_555
C3_2 O16 1_555 1_555
C4_2 C3_2 1_555 1_555
C4_2 H3_2 1_555 1_555
O1_2 C6_2 1_555 1_555
O2_2 C6_2 1_555 1_555
C2_2 O13 1_555 1_555
C6_2 C12_2 1_555 1_555
C7_2 O1_2 1_555 1_555
Bi3 O13 1_555 1_555
C2_2 C7_2 1_555 1_555
Bi3 O12 1_555 1_555
O7_2 C13_2 1_555 1_555
O8_2 C13_2 1_555 1_555
O9_2 C9_2 1_555 1_555
C13_2 C5_2 1_555 1_555
C14_2 O7_2 1_555 1_555
Bi7_2 O9_2 1_555 1_555
C9_2 C14_2 1_555 1_555
O10_2 C10_2 1_555 1_555
C10_2 C11_2 1_555 1_555
O10_2 Bi6_2 1_555 1_555
C11_2 H8_2 1_555 1_555
O1_3 C6_3 1_555 1_555
O5_2 Bi3 1_555 1_555
O6_2 Bi3 1_555 1_555
C1_3 C5_3 1_555 1_555
C2_3 O14 1_555 1_555
C3_3 O6_2 1_555 1_555
C4_3 C3_3 1_555 1_555
C5_3 C4_3 1_555 1_555
C6_3 C12_3 1_555 1_555
C7_3 O1_3 1_555 1_555
O7_3 C13_3 1_555 1_555
O9_3 C9_3 1_555 1_555
O10_3 C10_3 1_555 1_555
C8_3 C1_3 1_555 1_555
C9_3 C10_3 1_555 1_555
C10_3 C11_3 1_555 1_555
C11_3 C12_3 1_555 1_555
C12_3 C8_3 1_555 1_555
C13_3 C5_3 1_555 1_555
C14_3 O7_3 1_555 1_555
Bi5 O11_2 1_555 1_555
Bi7_2 O9_3 1_555 1_555
Bi6 O9_3 1_555 1_555
O16_2 Bi5 1_555 1_555
C1_3 C7_3 1_555 1_555
C2_3 C3_3 1_555 1_555
C2_3 C7_3 1_555 1_555
O10_3 Bi7_2 1_555 1_555
C8_3 C14_3 1_555 1_555
C9_3 C14_3 1_555 1_555
O5_2 H1_2 1_555 1_555
O5_2 H2_2 1_555 1_555
C4_3 H3_3 1_555 1_555
C4_3 H4_3 1_555 1_555
O11_2 H5_2 1_555 1_555
O11_2 H6_2 1_555 1_555
C11_3 H7_3 1_555 1_555
C11_3 H8_3 1_555 1_555
O9_4 C9_4 1_555 1_555
O10_4 C10_4 1_555 1_555
C9_4 C10_4 1_555 1_555
C10_4 C11_4 1_555 1_555
C14_4 O7_4 1_555 1_555
Bi7 O9_4 1_555 1_555
Bi6_2 O9_4 1_555 1_555
O10_4 Bi7 1_555 1_555
C8_4 C14_4 1_555 1_555
C9_4 C14_4 1_555 1_555
C11_4 H8_4 1_555 1_555
C2_4 O15 1_555 1_555
C3_4 O16_2 1_555 1_555
C4_4 C3_4 1_555 1_555
C7_4 O1_4 1_555 1_555
C1_4 C7_4 1_555 1_555
C2_4 C3_4 1_555 1_555
C2_4 C7_4 1_555 1_555
C4_4 H3_4 1_555 1_555
Bi7 O12_2 1_555 1_555
O5_3 H1_3 1_555 1_555
O5_3 H2_3 1_555 1_555
O11_3 H5_3 1_555 1_555
O11_3 H6_3 1_555 1_555
Bi6 O3_2 1_555 1_555
O3_2 Bi6_2 1_555 1_555
Bi7_2 O3_2 1_555 1_555
Bi7 O3_2 1_555 1_555
Bi7_2 O12_2 1_555 1_555
O5_4 Bi7_2 1_555 1_555
Bi7 O11_4 1_555 1_555
O5_4 H1_4 1_555 1_555
O5_4 H2_4 1_555 1_555
O11_4 H5_4 1_555 1_555
O11_4 H6_4 1_555 1_555
C13_4 C5_4 1_555 1_555
C6_4 C12_4 1_555 1_555

#END
