
###############################################################################
#
# This file contains modified crystal structure data generated from the
# MOF subset of the Cambridge Structural Database (CSD) v543 
# hosted by the Cambridge Crystallographic Data Centre (CCDC).
#
# This work is licensed under the Creative Commons
# Attribution-NonCommercial-ShareAlike 4.0 International License.
# To view a copy of this license, visit
# http://creativecommons.org/licenses/by-nc-sa/4.0/
# or send a letter to
# Creative Commons, PO Box 1866, Mountain View, CA 94042, USA.
#
# CIF created using the CSD Python API on 29 September 2022
# The structure has been converted into the P1 space group
# The structure has a 3D framework
# The original CSD entry EBARIM is in the triclinic crystal system
# The framework has been calculated to contain at least 10.0% void space
# The void calculation uses a probe of radius 1.32A, grid spacing 0.4
#
###############################################################################

data_EBARIM
_chemical_formula_moiety         '(C100 H60 Co6 N14 O28)n'
_symmetry_cell_setting           triclinic
_symmetry_space_group_name_H-M   'P 1'
_symmetry_Int_Tables_number      1
_space_group_name_Hall           'P 1'
loop_
_symmetry_equiv_pos_site_id
_symmetry_equiv_pos_as_xyz
1 x,y,z
_cell_length_a                   10.0359(6)
_cell_length_b                   14.6155(10)
_cell_length_c                   19.1561(14)
_cell_angle_alpha                76.537(2)
_cell_angle_beta                 89.864(3)
_cell_angle_gamma                89.195(2)
_cell_volume                     2732.33
loop_
_atom_site_label
_atom_site_type_symbol
_atom_site_fract_x
_atom_site_fract_y
_atom_site_fract_z
N2 N 0.1613(4) 0.6582(3) 0.1870(3)
C9 C 0.0627(5) 0.7104(4) 0.0714(3)
C10 C 0.0682(5) 0.6508(4) 0.1391(3)
H4 H 0.003480 0.602906 0.151808
C11 C 0.2519(5) 0.7256(4) 0.1686(3)
H5 H 0.318918 0.731204 0.202251
C12 C 0.2510(5) 0.7873(4) 0.1020(3)
H6 H 0.316134 0.835038 0.090857
C13 C 0.1544(5) 0.7803(4) 0.0503(4)
H7 H 0.152861 0.821223 0.003875
Co6 Co 0.17024(6) 0.54566(5) 0.28177(4)
O5 O 0.2698(3) 0.5411(2) 0.81093(19)
O6 O 0.3619(3) 0.6058(2) 0.89057(19)
C3 C 0.0137(4) 0.5804(3) 0.8525(3)
H1 H 0.024099 0.557248 0.810323
C4 C 0.1233(4) 0.6026(3) 0.8874(3)
C5 C 0.2598(4) 0.5829(3) 0.8612(3)
C6 C 0.1097(4) 0.6412(4) 0.9465(3)
H2 H 0.186137 0.657276 0.970047
Co7 Co 0.48210(6) 0.53014(5) 0.82710(4)
O19 O 0.0412(3) 0.4587(2) 0.7234(2)
Co1 Co 0.82976(6) 0.45434(5) 0.71823(4)
O1 O 0.7860(3) 0.5432(3) 0.7826(2)
O2 O 0.6544(3) 0.5613(2) 0.87183(19)
O3 O 0.6594(3) 0.4164(2) 0.6751(2)
O4 O 0.5246(3) 0.4486(3) 0.7586(2)
O8 O 0.3521(3) 0.2901(3) 0.5146(2)
O11 O 0.4949(3) 0.1190(2) 0.6331(2)
O12 O 0.6065(3) 0.1665(2) 0.7172(2)
O13 O 0.2527(3) 0.1897(3) 0.9040(2)
O14 O 0.0025(3) 0.1396(3) 0.6327(2)
N1 N 0.4485(4) 0.3995(3) 0.9034(2)
N3 N 0.1605(4) 0.4159(3) 0.3630(2)
C1 C 0.7670(4) 0.5621(3) 0.8416(3)
C2 C 0.8862(4) 0.5919(3) 0.8793(3)
C7 C 0.9830(4) 0.6561(4) 0.9710(3)
C8 C 0.8715(4) 0.6299(4) 0.9380(3)
H3 H 0.785022 0.638234 0.956100
C14 C 0.5453(4) 0.4237(3) 0.7019(3)
C15 C 0.4267(4) 0.4002(3) 0.6617(3)
C16 C 0.4428(4) 0.3596(3) 0.6040(3)
H8 H 0.529459 0.348024 0.587611
C17 C 0.3314(4) 0.3361(3) 0.5704(3)
C18 C 0.2034(4) 0.3535(3) 0.5921(3)
H9 H 0.127842 0.337033 0.568157
C19 C 0.1886(4) 0.3952(3) 0.6491(3)
C20 C 0.2986(4) 0.4187(3) 0.6844(3)
H10 H 0.287247 0.447302 0.723780
C21 C 0.0512(4) 0.4137(3) 0.6755(3)
C22 C 0.2534(5) 0.3070(4) 0.4630(3)
C23 C 0.1611(5) 0.2398(4) 0.4590(3)
H11 H 0.161786 0.179934 0.491688
C24 C 0.0675(5) 0.2637(4) 0.4050(3)
H12 H 0.000968 0.219904 0.400404
C25 C 0.0694(5) 0.3508(4) 0.3576(3)
H13 H 0.004994 0.365309 0.320290
C26 C 0.2499(4) 0.3934(4) 0.4152(3)
H14 H 0.314225 0.438715 0.419781
C38 C 0.4982(4) 0.1461(3) 0.6903(3)
C39 C 0.3719(4) 0.1543(3) 0.7302(3)
C40 C 0.2516(4) 0.1458(3) 0.6984(3)
H24 H 0.249515 0.132610 0.652163
C41 C 0.1332(4) 0.1563(3) 0.7333(3)
C42 C 0.1350(5) 0.1748(3) 0.8004(3)
H25 H 0.053843 0.182973 0.823987
C43 C 0.2558(5) 0.1815(3) 0.8332(3)
C44 C 0.3748(4) 0.1719(3) 0.7983(3)
H26 H 0.457560 0.177346 0.820836
C45 C 0.0036(5) 0.1515(3) 0.6946(3)
C46 C 0.3416(5) 0.2509(4) 0.9248(3)
C47 C 0.3966(5) 0.2249(4) 0.9919(3)
C49 C 0.5012(5) 0.3750(4) 0.9683(3)
H29 H 0.557519 0.418086 0.983828
C50 C 0.3680(5) 0.3379(4) 0.8819(3)
H30 H 0.328443 0.355355 0.835574
Co9 Co 0.75935(6) 0.14731(5) 0.65610(4)
O18 O 0.9511(3) 0.3856(2) 0.6478(2)
N9 N 0.8387(4) 0.3418(3) 0.8130(3)
N10 N 0.8395(4) 0.5841(3) 0.6370(2)
N11 N 0.4907(4) 0.6515(3) 0.7356(2)
O15 O 0.8961(3) 0.1616(3) 0.7279(2)
N4 N 0.7383(4) 0.2277(3) 0.5534(2)
N5 N 0.6520(4) 0.2753(3) 0.4461(2)
N6 N 0.5093(4) 0.3485(3) 0.2644(2)
N7 N 0.3104(4) 0.1374(3) 0.3242(2)
C27 C 0.7760(5) 0.3187(4) 0.5263(3)
H15 H 0.830454 0.354276 0.550317
C28 C 0.7236(5) 0.3497(4) 0.4602(3)
H16 H 0.733532 0.410382 0.429335
C29 C 0.6650(5) 0.2038(4) 0.5049(3)
H17 H 0.625631 0.143806 0.510057
C30 C 0.5719(4) 0.2749(4) 0.3847(3)
C31 C 0.5846(5) 0.3442(3) 0.3223(3)
H18 H 0.650131 0.390880 0.320533
C32 C 0.4774(4) 0.2062(3) 0.3872(3)
H19 H 0.463772 0.158396 0.429490
C33 C 0.4036(4) 0.2098(3) 0.3257(3)
C34 C 0.4207(4) 0.2800(3) 0.2656(3)
H20 H 0.369325 0.280458 0.223907
C35 C 0.3318(5) 0.0457(4) 0.3530(3)
H21 H 0.407313 0.020731 0.381249
C36 C 0.1925(5) 0.1460(4) 0.2859(3)
H22 H 0.152623 0.202419 0.258682
C37 C 0.1463(5) 0.0588(4) 0.2950(3)
H23 H 0.065209 0.042760 0.275549
Co8 Co 0.51790(6) 0.46986(5) 0.17290(4)
N12 N 0.7653(4) 0.0052(3) 0.6628(3)
N8 N 0.2347(4) 0.9948(3) 0.3372(3)
Co10 Co 0.24065(6) 0.85269(5) 0.34390(4)
O9 O 0.0489(3) 0.6144(2) 0.3522(2)
O15_2 O 0.1039(3) 0.8384(3) 0.2721(2)
N4_2 N 0.2617(4) 0.7723(3) 0.4466(2)
N5_2 N 0.3480(4) 0.7247(3) 0.5539(2)
N7_2 N 0.6896(4) 0.8626(3) 0.6758(2)
C27_2 C 0.2240(5) 0.6813(4) 0.4737(3)
H15_2 H 0.169546 0.645724 0.449683
C28_2 C 0.2764(5) 0.6503(4) 0.5398(3)
H16_2 H 0.266468 0.589618 0.570665
C29_2 C 0.3350(5) 0.7962(4) 0.4951(3)
H17_2 H 0.374369 0.856194 0.489943
C30_2 C 0.4281(4) 0.7251(4) 0.6153(3)
C31_2 C 0.4154(5) 0.6558(3) 0.6777(3)
H18_2 H 0.349869 0.609120 0.679467
C32_2 C 0.5226(4) 0.7938(3) 0.6128(3)
H19_2 H 0.536228 0.841604 0.570510
C33_2 C 0.5964(4) 0.7902(3) 0.6743(3)
C34_2 C 0.5793(4) 0.7200(3) 0.7344(3)
H20_2 H 0.630675 0.719542 0.776093
C35_2 C 0.6682(5) 0.9543(4) 0.6470(3)
H21_2 H 0.592687 0.979269 0.618751
C36_2 C 0.8075(5) 0.8540(4) 0.7141(3)
H22_2 H 0.847377 0.797581 0.741318
C37_2 C 0.8537(5) 0.9412(4) 0.7050(3)
H23_2 H 0.934791 0.957240 0.724451
O20 O 0.3935(3) 0.8335(2) 0.2828(2)
O1_2 O 0.2140(3) 0.4568(3) 0.2174(2)
O2_2 O 0.3456(3) 0.4387(2) 0.12817(19)
O3_2 O 0.3406(3) 0.5836(2) 0.3249(2)
O4_2 O 0.4754(3) 0.5514(3) 0.2414(2)
O8_2 O 0.6479(3) 0.7099(3) 0.4854(2)
O10 O 0.9588(3) 0.5413(2) 0.2766(2)
O11_2 O 0.5051(3) 0.8810(2) 0.3669(2)
O13_2 O 0.7473(3) 0.8103(3) 0.0960(2)
O14_2 O 0.9975(3) 0.8604(3) 0.3673(2)
N1_2 N 0.5515(4) 0.6005(3) 0.0966(2)
C1_2 C 0.2330(4) 0.4379(3) 0.1584(3)
C2_2 C 0.1138(4) 0.4081(3) 0.1207(3)
C7_2 C 0.0170(4) 0.3439(4) 0.0290(3)
C8_2 C 0.1285(4) 0.3701(4) 0.0620(3)
H3_2 H 0.214978 0.361766 0.043900
C14_2 C 0.4547(4) 0.5763(3) 0.2981(3)
C15_2 C 0.5733(4) 0.5998(3) 0.3383(3)
C16_2 C 0.5572(4) 0.6404(3) 0.3960(3)
H8_2 H 0.470541 0.651976 0.412389
C17_2 C 0.6686(4) 0.6639(3) 0.4296(3)
C18_2 C 0.7966(4) 0.6465(3) 0.4079(3)
H9_2 H 0.872158 0.662967 0.431843
C19_2 C 0.8114(4) 0.6048(3) 0.3509(3)
C20_2 C 0.7014(4) 0.5813(3) 0.3156(3)
H10_2 H 0.712753 0.552698 0.276220
C21_2 C 0.9488(4) 0.5863(3) 0.3245(3)
C22_2 C 0.7466(5) 0.6930(4) 0.5370(3)
C23_2 C 0.8389(5) 0.7602(4) 0.5410(3)
H11_2 H 0.838214 0.820066 0.508312
C24_2 C 0.9325(5) 0.7363(4) 0.5950(3)
H12_2 H 0.999032 0.780096 0.599596
C25_2 C 0.9306(5) 0.6492(4) 0.6424(3)
H13_2 H 0.995006 0.634691 0.679710
C26_2 C 0.7501(4) 0.6066(4) 0.5848(3)
H14_2 H 0.685775 0.561285 0.580219
C38_2 C 0.5018(4) 0.8539(3) 0.3097(3)
C39_2 C 0.6281(4) 0.8457(3) 0.2698(3)
C40_2 C 0.7484(4) 0.8542(3) 0.3016(3)
H24_2 H 0.750485 0.867390 0.347837
C41_2 C 0.8668(4) 0.8437(3) 0.2667(3)
C42_2 C 0.8650(5) 0.8252(3) 0.1996(3)
H25_2 H 0.946157 0.817027 0.176013
C43_2 C 0.7442(5) 0.8185(3) 0.1668(3)
C44_2 C 0.6252(4) 0.8281(3) 0.2017(3)
H26_2 H 0.542440 0.822654 0.179164
C45_2 C 0.9964(5) 0.8485(3) 0.3054(3)
C46_2 C 0.6584(5) 0.7491(4) 0.0752(3)
C47_2 C 0.6034(5) 0.7751(4) 0.0081(3)
C49_2 C 0.4988(5) 0.6250(4) 0.0317(3)
H29_2 H 0.442481 0.581914 0.016172
C50_2 C 0.6320(5) 0.6621(4) 0.1181(3)
H30_2 H 0.671557 0.644645 0.164426
O16 O 0.7302(3) 0.4589(2) 0.18907(19)
O17 O 0.6381(3) 0.3942(2) 0.10943(19)
C3_2 C 0.9863(4) 0.4196(3) 0.1475(3)
H1_2 H 0.975901 0.442752 0.189677
C4_2 C 0.8767(4) 0.3974(3) 0.1126(3)
C5_2 C 0.7402(4) 0.4171(3) 0.1388(3)
C6_2 C 0.8903(4) 0.3588(4) 0.0535(3)
H2_2 H 0.813863 0.342724 0.029953
C9_2 C 0.9373(5) 0.2896(4) 0.9286(3)
C10_2 C 0.9318(5) 0.3492(4) 0.8609(3)
H4_2 H 0.996520 0.397094 0.848192
C11_2 C 0.7481(5) 0.2744(4) 0.8314(3)
H5_2 H 0.681082 0.268796 0.797749
C12_2 C 0.7490(5) 0.2127(4) 0.8980(3)
H6_2 H 0.683866 0.164962 0.909143
C13_2 C 0.8456(5) 0.2197(4) 0.9497(4)
H7_2 H 0.847139 0.178777 0.996125
O7 O 0.9575(3) 0.6986(3) 0.0274(2)
H27 H 0.380025 0.164732 0.022071
C48 C 0.4773(5) 0.2887(4) 0.0147(3)
H28 H 0.515529 0.273393 0.061399
O7_2 O 0.0425(3) 0.3014(3) 0.9726(2)
H27_2 H 0.619975 0.835268 0.977929
C48_2 C 0.5227(5) 0.7113(4) 0.9853(3)
H28_2 H 0.484471 0.726607 0.938601
loop_
_geom_bond_atom_site_label_1
_geom_bond_atom_site_label_2
_geom_bond_site_symmetry_1
_geom_bond_site_symmetry_2
N2 C10 1_555 1_555
C10 C9 1_555 1_555
H4 C10 1_555 1_555
C11 N2 1_555 1_555
H5 C11 1_555 1_555
C12 C11 1_555 1_555
H6 C12 1_555 1_555
C13 C9 1_555 1_555
H7 C13 1_555 1_555
Co6 N2 1_555 1_555
C12 C13 1_555 1_555
O5 C5 1_555 1_555
O6 C5 1_555 1_555
C3 H1 1_555 1_555
C4 C3 1_555 1_555
C5 C4 1_555 1_555
C6 C4 1_555 1_555
H2 C6 1_555 1_555
Co7 O5 1_555 1_555
O6 Co7 1_555 1_555
Co1 O1 1_555 1_555
Co7 O2 1_555 1_555
O1 C1 1_555 1_555
O2 C1 1_555 1_555
O3 Co1 1_555 1_555
O4 Co7 1_555 1_555
O8 C17 1_555 1_555
O19 C21 1_555 1_555
O11 C38 1_555 1_555
O12 C38 1_555 1_555
O13 C43 1_555 1_555
O14 C45 1_555 1_555
N1 Co7 1_555 1_555
N3 C25 1_555 1_555
C1 C2 1_555 1_555
C8 C2 1_555 1_555
H3 C8 1_555 1_555
C14 O3 1_555 1_555
C15 C14 1_555 1_555
C16 C15 1_555 1_555
H8 C16 1_555 1_555
C17 C16 1_555 1_555
C18 C17 1_555 1_555
H9 C18 1_555 1_555
C19 C18 1_555 1_555
C20 C15 1_555 1_555
H10 C20 1_555 1_555
C21 C19 1_555 1_555
C22 O8 1_555 1_555
C23 C22 1_555 1_555
H11 C23 1_555 1_555
C24 C23 1_555 1_555
H12 C24 1_555 1_555
C25 C24 1_555 1_555
H13 C25 1_555 1_555
C26 N3 1_555 1_555
H14 C26 1_555 1_555
C38 C39 1_555 1_555
C39 C40 1_555 1_555
C40 H24 1_555 1_555
C41 C40 1_555 1_555
C42 C41 1_555 1_555
H25 C42 1_555 1_555
C43 C42 1_555 1_555
C44 C39 1_555 1_555
H26 C44 1_555 1_555
C45 C41 1_555 1_555
C46 O13 1_555 1_555
C47 C46 1_555 1_555
C49 N1 1_555 1_555
H29 C49 1_555 1_555
C50 N1 1_555 1_555
H30 C50 1_555 1_555
Co6 N3 1_555 1_555
Co9 O12 1_555 1_555
O18 Co1 1_555 1_555
N9 Co1 1_555 1_555
N10 Co1 1_555 1_555
N11 Co7 1_555 1_555
O4 C14 1_555 1_555
C7 C8 1_555 1_555
C19 C20 1_555 1_555
C22 C26 1_555 1_555
C43 C44 1_555 1_555
C46 C50 1_555 1_555
Co9 O15 1_555 1_555
N4 Co9 1_555 1_555
N5 C28 1_555 1_555
N6 C31 1_555 1_555
N7 C33 1_555 1_555
C27 N4 1_555 1_555
H15 C27 1_555 1_555
C28 C27 1_555 1_555
H16 C28 1_555 1_555
C29 N4 1_555 1_555
H17 C29 1_555 1_555
C30 N5 1_555 1_555
C31 C30 1_555 1_555
H18 C31 1_555 1_555
C32 C30 1_555 1_555
H19 C32 1_555 1_555
C33 C32 1_555 1_555
C34 N6 1_555 1_555
H20 C34 1_555 1_555
C35 N7 1_555 1_555
H21 C35 1_555 1_555
C36 N7 1_555 1_555
H22 C36 1_555 1_555
H23 C37 1_555 1_555
Co8 N6 1_555 1_555
N12 Co9 1_555 1_555
N5 C29 1_555 1_555
C33 C34 1_555 1_555
C36 C37 1_555 1_555
Co10 N8 1_555 1_555
Co10 O15_2 1_555 1_555
N4_2 Co10 1_555 1_555
N5_2 C28_2 1_555 1_555
N11 C31_2 1_555 1_555
N7_2 C33_2 1_555 1_555
C27_2 N4_2 1_555 1_555
H15_2 C27_2 1_555 1_555
C28_2 C27_2 1_555 1_555
H16_2 C28_2 1_555 1_555
C29_2 N4_2 1_555 1_555
H17_2 C29_2 1_555 1_555
C30_2 N5_2 1_555 1_555
C31_2 C30_2 1_555 1_555
H18_2 C31_2 1_555 1_555
C32_2 C30_2 1_555 1_555
H19_2 C32_2 1_555 1_555
C33_2 C32_2 1_555 1_555
C34_2 N11 1_555 1_555
H20_2 C34_2 1_555 1_555
C35_2 N7_2 1_555 1_555
H21_2 C35_2 1_555 1_555
C36_2 N7_2 1_555 1_555
H22_2 C36_2 1_555 1_555
H23_2 C37_2 1_555 1_555
Co6 O9 1_555 1_555
O20 Co10 1_555 1_555
N5_2 C29_2 1_555 1_555
C33_2 C34_2 1_555 1_555
C36_2 C37_2 1_555 1_555
Co6 O1_2 1_555 1_555
Co8 O2_2 1_555 1_555
O1_2 C1_2 1_555 1_555
O2_2 C1_2 1_555 1_555
O3_2 Co6 1_555 1_555
O4_2 Co8 1_555 1_555
O8_2 C17_2 1_555 1_555
O10 C21_2 1_555 1_555
O11_2 C38_2 1_555 1_555
O20 C38_2 1_555 1_555
O13_2 C43_2 1_555 1_555
O14_2 C45_2 1_555 1_555
N1_2 Co8 1_555 1_555
N10 C25_2 1_555 1_555
C1_2 C2_2 1_555 1_555
C8_2 C2_2 1_555 1_555
H3_2 C8_2 1_555 1_555
C14_2 O3_2 1_555 1_555
C15_2 C14_2 1_555 1_555
C16_2 C15_2 1_555 1_555
H8_2 C16_2 1_555 1_555
C17_2 C16_2 1_555 1_555
C18_2 C17_2 1_555 1_555
H9_2 C18_2 1_555 1_555
C19_2 C18_2 1_555 1_555
C20_2 C15_2 1_555 1_555
H10_2 C20_2 1_555 1_555
C21_2 C19_2 1_555 1_555
C22_2 O8_2 1_555 1_555
C23_2 C22_2 1_555 1_555
H11_2 C23_2 1_555 1_555
C24_2 C23_2 1_555 1_555
H12_2 C24_2 1_555 1_555
C25_2 C24_2 1_555 1_555
H13_2 C25_2 1_555 1_555
C26_2 N10 1_555 1_555
H14_2 C26_2 1_555 1_555
C38_2 C39_2 1_555 1_555
C39_2 C40_2 1_555 1_555
C40_2 H24_2 1_555 1_555
C41_2 C40_2 1_555 1_555
C42_2 C41_2 1_555 1_555
H25_2 C42_2 1_555 1_555
C43_2 C42_2 1_555 1_555
C44_2 C39_2 1_555 1_555
H26_2 C44_2 1_555 1_555
C45_2 C41_2 1_555 1_555
C46_2 O13_2 1_555 1_555
C47_2 C46_2 1_555 1_555
C49_2 N1_2 1_555 1_555
H29_2 C49_2 1_555 1_555
C50_2 N1_2 1_555 1_555
H30_2 C50_2 1_555 1_555
O16 Co8 1_555 1_555
O17 Co8 1_555 1_555
O4_2 C14_2 1_555 1_555
C7_2 C8_2 1_555 1_555
C19_2 C20_2 1_555 1_555
C22_2 C26_2 1_555 1_555
C43_2 C44_2 1_555 1_555
C46_2 C50_2 1_555 1_555
O16 C5_2 1_555 1_555
O17 C5_2 1_555 1_555
C3_2 H1_2 1_555 1_555
C4_2 C3_2 1_555 1_555
C5_2 C4_2 1_555 1_555
C6_2 C4_2 1_555 1_555
H2_2 C6_2 1_555 1_555
N9 C10_2 1_555 1_555
C10_2 C9_2 1_555 1_555
H4_2 C10_2 1_555 1_555
C11_2 N9 1_555 1_555
H5_2 C11_2 1_555 1_555
C12_2 C11_2 1_555 1_555
H6_2 C12_2 1_555 1_555
C13_2 C9_2 1_555 1_555
H7_2 C13_2 1_555 1_555
C12_2 C13_2 1_555 1_555
H28 C48 1_555 1_555
H28_2 C48_2 1_555 1_555

#END
