
###############################################################################
#
# This file contains modified crystal structure data generated from the
# MOF subset of the Cambridge Structural Database (CSD) v543 
# hosted by the Cambridge Crystallographic Data Centre (CCDC).
#
# This work is licensed under the Creative Commons
# Attribution-NonCommercial-ShareAlike 4.0 International License.
# To view a copy of this license, visit
# http://creativecommons.org/licenses/by-nc-sa/4.0/
# or send a letter to
# Creative Commons, PO Box 1866, Mountain View, CA 94042, USA.
#
# CIF created using the CSD Python API on 29 September 2022
# The structure has been converted into the P1 space group
# The structure has a 3D framework
# The original CSD entry EBEMEE is in the monoclinic crystal system
# The framework has been calculated to contain at least 10.0% void space
# The void calculation uses a probe of radius 1.32A, grid spacing 0.4
#
###############################################################################

data_EBEMEE
_chemical_formula_moiety         '(C128 H80 Cd8 N48 O32)n'
_symmetry_cell_setting           triclinic
_symmetry_space_group_name_H-M   'P 1'
_symmetry_Int_Tables_number      1
_space_group_name_Hall           'P 1'
loop_
_symmetry_equiv_pos_site_id
_symmetry_equiv_pos_as_xyz
1 x,y,z
_cell_length_a                   25.02(7)
_cell_length_b                   11.44(2)
_cell_length_c                   13.78(2)
_cell_angle_alpha                90
_cell_angle_beta                 104.58(4)
_cell_angle_gamma                90
_cell_volume                     3817.22
loop_
_atom_site_label
_atom_site_type_symbol
_atom_site_fract_x
_atom_site_fract_y
_atom_site_fract_z
N4 N 0.1874(3) 0.6048(6) 0.6232(5)
N5 N 0.0200(3) 0.3879(7) 0.6195(6)
N6 N 0.0281(3) 0.4935(7) 0.6292(5)
C12 C 0.0831(3) 0.5263(7) 0.6280(6)
C13 C 0.1246(3) 0.4480(7) 0.6239(7)
C14 C 0.1759(3) 0.4914(7) 0.6217(6)
C15 C 0.1467(3) 0.6803(7) 0.6277(6)
C16 C 0.0950(3) 0.6456(8) 0.6306(7)
H7 H 0.1181 0.3661 0.6227
H8 H 0.2043 0.4374 0.6189
H9 H 0.1545 0.7617 0.6288
H10 H 0.0676 0.7016 0.6344
Cd4 Cd 0.27729(2) 0.67978(5) 0.63140(4)
N4_2 N 0.1874(3) 0.3952(6) 0.1232(5)
N5_2 N 0.0200(3) 0.6121(7) 0.1195(6)
N6_2 N 0.0281(3) 0.5065(7) 0.1292(5)
C12_2 C 0.0831(3) 0.4737(7) 0.1280(6)
C13_2 C 0.1246(3) 0.5520(7) 0.1239(7)
C14_2 C 0.1759(3) 0.5086(7) 0.1217(6)
C15_2 C 0.1467(3) 0.3197(7) 0.1277(6)
C16_2 C 0.0950(3) 0.3544(8) 0.1306(7)
H7_2 H 0.1181 0.6339 0.1227
H8_2 H 0.2043 0.5626 0.1189
H9_2 H 0.1545 0.2383 0.1288
H10_2 H 0.0676 0.2984 0.1344
Cd4_2 Cd 0.27729(2) 0.32022(5) 0.13140(4)
N1 N 0.3300(4) 0.7306(7) 0.0134(5)
N2 N 0.3020(3) 0.5171(5) 0.0854(4)
C3 C 0.3209(4) 0.6075(8) 0.1458(6)
C4 C 0.3327(5) 0.7121(9) 0.1103(7)
H1 H 0.3262 0.5980 0.2161
H2 H 0.3433 0.7750 0.1561
O1 O 0.2740(3) 0.7233(6) 0.7923(4)
O2 O 0.3459(4) 0.6075(7) 0.8095(6)
O3 O 0.2528(4) 0.4628(6) 0.8284(5)
O4 O 0.2654(2) 0.3406(4) 0.9547(4)
N3 N 0.3639(3) 0.7622(7) 0.6323(5)
N5_3 N 0.5200(3) 0.8879(7) 0.6195(6)
N6_3 N 0.5281(3) 0.9935(7) 0.6292(5)
C1 C 0.3121(4) 0.6402(7) 0.9519(6)
C2 C 0.2970(3) 0.5362(7) 0.9868(5)
C5 C 0.3102(5) 0.6591(8) 0.8417(7)
C6 C 0.2701(4) 0.4396(7) 0.9157(6)
C7 C 0.4062(4) 0.6920(8) 0.6293(8)
C8 C 0.4574(4) 0.7331(9) 0.6260(7)
C9 C 0.4658(3) 0.8523(8) 0.6249(6)
C10 C 0.4227(4) 0.9265(8) 0.6279(6)
C11 C 0.3732(4) 0.8773(8) 0.6313(6)
C13_3 C 0.6246(3) 0.9480(7) 0.6239(7)
C14_3 C 0.6759(3) 0.9914(7) 0.6217(6)
H3 H 0.4006 0.6098 0.6294
H4 H 0.4866 0.6804 0.6245
H6 H 0.3436 0.9284 0.6331
H7_3 H 0.6181 0.8661 0.6227
H8_3 H 0.7043 0.9374 0.6189
O5 O 0.2654(2) 0.6594(4) 0.4547(4)
O6 O 0.2346(2) 0.8406(4) 0.5453(4)
N7 N 0.3020(3) 0.4829(5) 0.5854(4)
Cd3 Cd 0.22271(2) 0.17978(5) 0.86860(4)
O1_2 O 0.2740(3) 0.2767(6) 0.2923(4)
O2_2 O 0.3459(4) 0.3925(7) 0.3095(6)
O3_2 O 0.2528(4) 0.5372(6) 0.3284(5)
N1_2 N 0.3300(4) 0.2694(7) 0.5134(5)
N3_2 N 0.3639(3) 0.2378(7) 0.1323(5)
N5_4 N 0.5200(3) 0.1121(7) 0.1195(6)
N6_4 N 0.5281(3) 0.0065(7) 0.1292(5)
C1_2 C 0.3121(4) 0.3598(7) 0.4519(6)
C2_2 C 0.2970(3) 0.4638(7) 0.4868(5)
C3_2 C 0.3209(4) 0.3925(8) 0.6458(6)
C4_2 C 0.3327(5) 0.2879(9) 0.6103(7)
C5_2 C 0.3102(5) 0.3409(8) 0.3417(7)
C6_2 C 0.2701(4) 0.5604(7) 0.4157(6)
C7_2 C 0.4062(4) 0.3080(8) 0.1293(8)
C8_2 C 0.4574(4) 0.2669(9) 0.1260(7)
C9_2 C 0.4658(3) 0.1477(8) 0.1249(6)
C10_2 C 0.4227(4) 0.0735(8) 0.1279(6)
C11_2 C 0.3732(4) 0.1227(8) 0.1313(6)
C13_4 C 0.6246(3) 0.0520(7) 0.1239(7)
C14_4 C 0.6759(3) 0.0086(7) 0.1217(6)
H1_2 H 0.3262 0.4020 0.7161
H2_2 H 0.3433 0.2250 0.6561
H3_2 H 0.4006 0.3902 0.1294
H4_2 H 0.4866 0.3196 0.1245
H6_2 H 0.3436 0.0716 0.1331
H7_4 H 0.6181 0.1339 0.1227
H8_4 H 0.7043 0.0626 0.1189
O6_2 O 0.2346(2) 0.1594(4) 0.0453(4)
Cd3_2 Cd 0.22271(2) 0.82022(5) 0.36860(4)
O3_3 O 0.2472(4) 0.0372(6) 0.1716(5)
C6_3 C 0.2299(4) 0.0604(7) 0.0843(6)
N7_2 N 0.1980(3) 0.0171(5) 0.4146(4)
O1_3 O 0.2260(3) 0.7767(6) 0.2077(4)
O2_3 O 0.1541(4) 0.8925(7) 0.1905(6)
N3_3 N 0.1361(3) 0.7378(7) 0.3677(5)
C1_3 C 0.1879(4) 0.8598(7) 0.0481(6)
C2_3 C 0.2030(3) 0.9638(7) 0.0132(5)
C5_3 C 0.1898(5) 0.8409(8) 0.1583(7)
C7_3 C 0.0938(4) 0.8080(8) 0.3707(8)
C8_3 C 0.0426(4) 0.7669(9) 0.3740(7)
C9_3 C 0.0342(3) 0.6477(8) 0.3751(6)
C10_3 C 0.0773(4) 0.5735(8) 0.3721(6)
C11_3 C 0.1268(4) 0.6227(8) 0.3687(6)
H3_3 H 0.0994 0.8902 0.3706
H4_3 H 0.0134 0.8196 0.3755
H5 H 0.0727 0.4911 0.3725
H6_3 H 0.1564 0.5716 0.3669
N8 N 0.3126(3) 0.8952(6) 0.3768(5)
N1_3 N 0.1700(4) 0.7694(7) 0.9866(5)
N2_2 N 0.1980(3) 0.9829(5) 0.9146(4)
C3_3 C 0.1791(4) 0.8925(8) 0.8542(6)
C4_3 C 0.1673(5) 0.7879(9) 0.8897(7)
H1_3 H 0.1738 0.9020 0.7839
H2_3 H 0.1567 0.7250 0.8439
O1_4 O 0.2260(3) 0.2233(6) 0.7077(4)
O2_4 O 0.1541(4) 0.1075(7) 0.6905(6)
N1_4 N 0.1700(4) 0.2306(7) 0.4866(5)
N3_4 N 0.1361(3) 0.2622(7) 0.8677(5)
C1_4 C 0.1879(4) 0.1402(7) 0.5481(6)
C2_4 C 0.2030(3) 0.0362(7) 0.5132(5)
C3_4 C 0.1791(4) 0.1075(8) 0.3542(6)
C4_4 C 0.1673(5) 0.2121(9) 0.3897(7)
C5_4 C 0.1898(5) 0.1591(8) 0.6583(7)
C7_4 C 0.0938(4) 0.1920(8) 0.8707(8)
C8_4 C 0.0426(4) 0.2331(9) 0.8740(7)
C9_4 C 0.0342(3) 0.3523(8) 0.8751(6)
C10_4 C 0.0773(4) 0.4265(8) 0.8721(6)
C11_4 C 0.1268(4) 0.3773(8) 0.8687(6)
H1_4 H 0.1738 0.0980 0.2839
H2_4 H 0.1567 0.2750 0.3439
H3_4 H 0.0994 0.1098 0.8706
H4_4 H 0.0134 0.1804 0.8755
H5_2 H 0.0727 0.5089 0.8725
H6_4 H 0.1564 0.4284 0.8669
N8_2 N 0.3126(3) 0.1048(6) 0.8768(5)
O3_4 O 0.2472(4) 0.9628(6) 0.6716(5)
C6_4 C 0.2299(4) 0.9396(7) 0.5843(6)
C12_3 C 0.4169(3) 0.9737(7) 0.3720(6)
C15_3 C 0.3533(3) 0.8197(7) 0.3723(6)
C16_3 C 0.4050(3) 0.8544(8) 0.3694(7)
H5_3 H 0.5727 0.9911 0.3725
H9_3 H 0.3455 0.7383 0.3712
H10_3 H 0.4324 0.7984 0.3656
C12_4 C 0.4169(3) 0.0263(7) 0.8720(6)
C15_4 C 0.3533(3) 0.1803(7) 0.8723(6)
C16_4 C 0.4050(3) 0.1456(8) 0.8694(7)
H5_4 H 0.5727 0.0089 0.8725
H9_4 H 0.3455 0.2617 0.8712
H10_4 H 0.4324 0.2016 0.8656
N1_5 N 0.8300(4) 0.2306(7) 0.0134(5)
N2_3 N 0.8020(3) 0.0171(5) 0.0854(4)
C3_5 C 0.8209(4) 0.1075(8) 0.1458(6)
C4_5 C 0.8327(5) 0.2121(9) 0.1103(7)
H1_5 H 0.8262 0.0980 0.2161
H2_5 H 0.8433 0.2750 0.1561
Cd1 Cd 0.77729(2) 0.17978(5) 0.63140(4)
O1_5 O 0.7740(3) 0.2233(6) 0.7923(4)
O2_5 O 0.8459(4) 0.1075(7) 0.8095(6)
N3_5 N 0.8639(3) 0.2622(7) 0.6323(5)
C1_5 C 0.8121(4) 0.1402(7) 0.9519(6)
C2_5 C 0.7970(3) 0.0362(7) 0.9868(5)
C5_5 C 0.8102(5) 0.1591(8) 0.8417(7)
C7_5 C 0.9062(4) 0.1920(8) 0.6293(8)
C8_5 C 0.9574(4) 0.2331(9) 0.6260(7)
C9_5 C 0.9658(3) 0.3523(8) 0.6249(6)
C10_5 C 0.9227(4) 0.4265(8) 0.6279(6)
C11_5 C 0.8732(4) 0.3773(8) 0.6313(6)
H3_5 H 0.9006 0.1098 0.6294
H4_5 H 0.9866 0.1804 0.6245
H5_5 H 0.9273 0.5089 0.6275
H6_5 H 0.8436 0.4284 0.6331
O5_2 O 0.7654(2) 0.1594(4) 0.4547(4)
O6_3 O 0.7346(2) 0.3406(4) 0.5453(4)
N8_3 N 0.6874(3) 0.1048(6) 0.6232(5)
Cd2 Cd 0.77729(2) 0.82022(5) 0.13140(4)
O3_5 O 0.7528(4) 0.9628(6) 0.8284(5)
O4_2 O 0.7654(2) 0.8406(4) 0.9547(4)
C6_5 C 0.7701(4) 0.9396(7) 0.9157(6)
N7_3 N 0.8020(3) 0.9829(5) 0.5854(4)
Cd3_3 Cd 0.72271(2) 0.67978(5) 0.86860(4)
O3_6 O 0.7528(4) 0.0372(6) 0.3284(5)
C6_6 C 0.7701(4) 0.0604(7) 0.4157(6)
Cd3_4 Cd 0.72271(2) 0.32022(5) 0.36860(4)
O1_6 O 0.7740(3) 0.7767(6) 0.2923(4)
O2_6 O 0.8459(4) 0.8925(7) 0.3095(6)
N1_6 N 0.8300(4) 0.7694(7) 0.5134(5)
N3_6 N 0.8639(3) 0.7378(7) 0.1323(5)
C1_6 C 0.8121(4) 0.8598(7) 0.4519(6)
C2_6 C 0.7970(3) 0.9638(7) 0.4868(5)
C3_6 C 0.8209(4) 0.8925(8) 0.6458(6)
C4_6 C 0.8327(5) 0.7879(9) 0.6103(7)
C5_6 C 0.8102(5) 0.8409(8) 0.3417(7)
C7_6 C 0.9062(4) 0.8080(8) 0.1293(8)
C8_6 C 0.9574(4) 0.7669(9) 0.1260(7)
C9_6 C 0.9658(3) 0.6477(8) 0.1249(6)
C10_6 C 0.9227(4) 0.5735(8) 0.1279(6)
C11_6 C 0.8732(4) 0.6227(8) 0.1313(6)
H1_6 H 0.8262 0.9020 0.7161
H2_6 H 0.8433 0.7250 0.6561
H3_6 H 0.9006 0.8902 0.1294
H4_6 H 0.9866 0.8196 0.1245
H5_6 H 0.9273 0.4911 0.1275
H6_6 H 0.8436 0.5716 0.1331
O6_4 O 0.7346(2) 0.6594(4) 0.0453(4)
N8_4 N 0.6874(3) 0.8952(6) 0.1232(5)
C12_5 C 0.5831(3) 0.0263(7) 0.6280(6)
C15_5 C 0.6467(3) 0.1803(7) 0.6277(6)
C16_5 C 0.5950(3) 0.1456(8) 0.6306(7)
H5_7 H 0.4273 0.0089 0.6275
H9_5 H 0.6545 0.2617 0.6288
H10_5 H 0.5676 0.2016 0.6344
C12_6 C 0.5831(3) 0.9737(7) 0.1280(6)
C15_6 C 0.6467(3) 0.8197(7) 0.1277(6)
C16_6 C 0.5950(3) 0.8544(8) 0.1306(7)
H5_8 H 0.4273 0.9911 0.1275
H9_6 H 0.6545 0.7383 0.1288
H10_6 H 0.5676 0.7984 0.1344
N4_3 N 0.8126(3) 0.3952(6) 0.3768(5)
N5_5 N 0.9800(3) 0.6121(7) 0.3805(6)
N6_5 N 0.9719(3) 0.5065(7) 0.3708(5)
C12_7 C 0.9169(3) 0.4737(7) 0.3720(6)
C13_5 C 0.8754(3) 0.5520(7) 0.3761(7)
C14_5 C 0.8241(3) 0.5086(7) 0.3783(6)
C15_7 C 0.8533(3) 0.3197(7) 0.3723(6)
C16_7 C 0.9050(3) 0.3544(8) 0.3694(7)
H7_5 H 0.8819 0.6339 0.3773
H8_5 H 0.7957 0.5626 0.3811
H9_7 H 0.8455 0.2383 0.3712
H10_7 H 0.9324 0.2984 0.3656
N4_4 N 0.8126(3) 0.6048(6) 0.8768(5)
N5_6 N 0.9800(3) 0.3879(7) 0.8805(6)
N6_6 N 0.9719(3) 0.4935(7) 0.8708(5)
C12_8 C 0.9169(3) 0.5263(7) 0.8720(6)
C13_6 C 0.8754(3) 0.4480(7) 0.8761(7)
C14_6 C 0.8241(3) 0.4914(7) 0.8783(6)
C15_8 C 0.8533(3) 0.6803(7) 0.8723(6)
C16_8 C 0.9050(3) 0.6456(8) 0.8694(7)
H7_6 H 0.8819 0.3661 0.8773
H8_6 H 0.7957 0.4374 0.8811
H9_8 H 0.8455 0.7617 0.8712
H10_8 H 0.9324 0.7016 0.8656
O1_7 O 0.7260(3) 0.2767(6) 0.2077(4)
O2_7 O 0.6541(4) 0.3925(7) 0.1905(6)
O3_7 O 0.7472(4) 0.5372(6) 0.1716(5)
N3_7 N 0.6361(3) 0.2378(7) 0.3677(5)
N5_7 N 0.4800(3) 0.1121(7) 0.3805(6)
N6_7 N 0.4719(3) 0.0065(7) 0.3708(5)
C1_7 C 0.6879(4) 0.3598(7) 0.0481(6)
C2_7 C 0.7030(3) 0.4638(7) 0.0132(5)
C5_7 C 0.6898(5) 0.3409(8) 0.1583(7)
C6_7 C 0.7299(4) 0.5604(7) 0.0843(6)
C7_7 C 0.5938(4) 0.3080(8) 0.3707(8)
C8_7 C 0.5426(4) 0.2669(9) 0.3740(7)
C9_7 C 0.5342(3) 0.1477(8) 0.3751(6)
C10_7 C 0.5773(4) 0.0735(8) 0.3721(6)
C11_7 C 0.6268(4) 0.1227(8) 0.3687(6)
C13_7 C 0.3754(3) 0.0520(7) 0.3761(7)
C14_7 C 0.3241(3) 0.0086(7) 0.3783(6)
H3_7 H 0.5994 0.3902 0.3706
H4_7 H 0.5134 0.3196 0.3755
H6_7 H 0.6564 0.0716 0.3669
H7_7 H 0.3819 0.1339 0.3773
H8_7 H 0.2957 0.0626 0.3811
N7_4 N 0.6980(3) 0.5171(5) 0.4146(4)
N1_7 N 0.6700(4) 0.2694(7) 0.9866(5)
N2_4 N 0.6980(3) 0.4829(5) 0.9146(4)
C3_7 C 0.6791(4) 0.3925(8) 0.8542(6)
C4_7 C 0.6673(5) 0.2879(9) 0.8897(7)
H1_7 H 0.6738 0.4020 0.7839
H2_7 H 0.6567 0.2250 0.8439
O1_8 O 0.7260(3) 0.7233(6) 0.7077(4)
O2_8 O 0.6541(4) 0.6075(7) 0.6905(6)
O3_8 O 0.7472(4) 0.4628(6) 0.6716(5)
N1_8 N 0.6700(4) 0.7306(7) 0.4866(5)
N3_8 N 0.6361(3) 0.7622(7) 0.8677(5)
N5_8 N 0.4800(3) 0.8879(7) 0.8805(6)
N6_8 N 0.4719(3) 0.9935(7) 0.8708(5)
C1_8 C 0.6879(4) 0.6402(7) 0.5481(6)
C2_8 C 0.7030(3) 0.5362(7) 0.5132(5)
C3_8 C 0.6791(4) 0.6075(8) 0.3542(6)
C4_8 C 0.6673(5) 0.7121(9) 0.3897(7)
C5_8 C 0.6898(5) 0.6591(8) 0.6583(7)
C6_8 C 0.7299(4) 0.4396(7) 0.5843(6)
C7_8 C 0.5938(4) 0.6920(8) 0.8707(8)
C8_8 C 0.5426(4) 0.7331(9) 0.8740(7)
C9_8 C 0.5342(3) 0.8523(8) 0.8751(6)
C10_8 C 0.5773(4) 0.9265(8) 0.8721(6)
C11_8 C 0.6268(4) 0.8773(8) 0.8687(6)
C13_8 C 0.3754(3) 0.9480(7) 0.8761(7)
C14_8 C 0.3241(3) 0.9914(7) 0.8783(6)
H1_8 H 0.6738 0.5980 0.2839
H2_8 H 0.6567 0.7750 0.3439
H3_8 H 0.5994 0.6098 0.8706
H4_8 H 0.5134 0.6804 0.8755
H6_8 H 0.6564 0.9284 0.8669
H7_8 H 0.3819 0.8661 0.8773
H8_8 H 0.2957 0.9374 0.8811
loop_
_geom_bond_atom_site_label_1
_geom_bond_atom_site_label_2
_geom_bond_site_symmetry_1
_geom_bond_site_symmetry_2
N4 C14 1_555 1_555
N5 N6 1_555 1_555
N6 C12 1_555 1_555
C12 C13 1_555 1_555
C13 C14 1_555 1_555
C14 H8 1_555 1_555
C15 N4 1_555 1_555
C16 C12 1_555 1_555
H7 C13 1_555 1_555
H9 C15 1_555 1_555
H10 C16 1_555 1_555
Cd4 N4 1_555 1_555
C15 C16 1_555 1_555
N4_2 C14_2 1_555 1_555
N5_2 N6_2 1_555 1_555
N6_2 C12_2 1_555 1_555
C12_2 C13_2 1_555 1_555
C13_2 C14_2 1_555 1_555
C14_2 H8_2 1_555 1_555
C15_2 N4_2 1_555 1_555
C16_2 C12_2 1_555 1_555
H7_2 C13_2 1_555 1_555
H9_2 C15_2 1_555 1_555
H10_2 C16_2 1_555 1_555
Cd4_2 N4_2 1_555 1_555
C15_2 C16_2 1_555 1_555
C3 N2 1_555 1_555
C4 N1 1_555 1_555
H1 C3 1_555 1_555
H2 C4 1_555 1_555
N2 Cd4_2 1_555 1_555
C3 C4 1_555 1_555
Cd4 O1 1_555 1_555
O1 C5 1_555 1_555
O2 C5 1_555 1_555
O3 C6 1_555 1_555
O4 C6 1_555 1_555
N3 Cd4 1_555 1_555
N5_3 N6_3 1_555 1_555
C1 C2 1_555 1_555
C2 C6 1_555 1_555
C5 C1 1_555 1_555
C7 N3 1_555 1_555
C8 C7 1_555 1_555
C9 N5_3 1_555 1_555
C10 C9 1_555 1_555
C11 N3 1_555 1_555
C13_3 C14_3 1_555 1_555
C14_3 H8_3 1_555 1_555
H3 C7 1_555 1_555
H4 C8 1_555 1_555
H6 C11 1_555 1_555
H7_3 C13_3 1_555 1_555
O5 Cd4 1_555 1_555
O6 Cd4 1_555 1_555
N7 Cd4 1_555 1_555
Cd3 O4 1_555 1_555
C8 C9 1_555 1_555
C10 C11 1_555 1_555
Cd4_2 O1_2 1_555 1_555
O1_2 C5_2 1_555 1_555
O2_2 C5_2 1_555 1_555
O3_2 C6_2 1_555 1_555
O5 C6_2 1_555 1_555
N1_2 C1_2 1_555 1_555
N7 C2_2 1_555 1_555
N3_2 Cd4_2 1_555 1_555
N5_4 N6_4 1_555 1_555
C1_2 C2_2 1_555 1_555
C2_2 C6_2 1_555 1_555
C3_2 N7 1_555 1_555
C4_2 N1_2 1_555 1_555
C5_2 C1_2 1_555 1_555
C7_2 N3_2 1_555 1_555
C8_2 C7_2 1_555 1_555
C9_2 N5_4 1_555 1_555
C10_2 C9_2 1_555 1_555
C11_2 N3_2 1_555 1_555
C13_4 C14_4 1_555 1_555
C14_4 H8_4 1_555 1_555
H1_2 C3_2 1_555 1_555
H2_2 C4_2 1_555 1_555
H3_2 C7_2 1_555 1_555
H4_2 C8_2 1_555 1_555
H6_2 C11_2 1_555 1_555
H7_4 C13_4 1_555 1_555
O6_2 Cd4_2 1_555 1_555
Cd3_2 O5 1_555 1_555
C3_2 C4_2 1_555 1_555
C8_2 C9_2 1_555 1_555
C10_2 C11_2 1_555 1_555
O3_3 C6_3 1_555 1_555
O6_2 C6_3 1_555 1_555
Cd3_2 O1_3 1_555 1_555
O1_3 C5_3 1_555 1_555
O2_3 C5_3 1_555 1_555
N3_3 Cd3_2 1_555 1_555
C1_3 C2_3 1_555 1_555
C5_3 C1_3 1_555 1_555
C7_3 N3_3 1_555 1_555
C8_3 C7_3 1_555 1_555
C10_3 C9_3 1_555 1_555
C11_3 N3_3 1_555 1_555
H3_3 C7_3 1_555 1_555
H4_3 C8_3 1_555 1_555
H5 C10_3 1_555 1_555
H6_3 C11_3 1_555 1_555
O6 Cd3_2 1_555 1_555
N8 Cd3_2 1_555 1_555
C8_3 C9_3 1_555 1_555
C10_3 C11_3 1_555 1_555
C3_3 N2_2 1_555 1_555
C4_3 N1_3 1_555 1_555
H1_3 C3_3 1_555 1_555
H2_3 C4_3 1_555 1_555
C3_3 C4_3 1_555 1_555
Cd3 O1_4 1_555 1_555
O1_4 C5_4 1_555 1_555
O2_4 C5_4 1_555 1_555
N1_4 C1_4 1_555 1_555
N7_2 C2_4 1_555 1_555
N3_4 Cd3 1_555 1_555
C1_4 C2_4 1_555 1_555
C3_4 N7_2 1_555 1_555
C4_4 N1_4 1_555 1_555
C5_4 C1_4 1_555 1_555
C7_4 N3_4 1_555 1_555
C8_4 C7_4 1_555 1_555
C10_4 C9_4 1_555 1_555
C11_4 N3_4 1_555 1_555
H1_4 C3_4 1_555 1_555
H2_4 C4_4 1_555 1_555
H3_4 C7_4 1_555 1_555
H4_4 C8_4 1_555 1_555
H5_2 C10_4 1_555 1_555
H6_4 C11_4 1_555 1_555
N8_2 Cd3 1_555 1_555
C3_4 C4_4 1_555 1_555
C8_4 C9_4 1_555 1_555
C10_4 C11_4 1_555 1_555
O3_4 C6_4 1_555 1_555
O6 C6_4 1_555 1_555
C15_3 N8 1_555 1_555
C16_3 C12_3 1_555 1_555
H9_3 C15_3 1_555 1_555
H10_3 C16_3 1_555 1_555
C15_3 C16_3 1_555 1_555
C15_4 N8_2 1_555 1_555
C16_4 C12_4 1_555 1_555
H9_4 C15_4 1_555 1_555
H10_4 C16_4 1_555 1_555
C15_4 C16_4 1_555 1_555
C3_5 N2_3 1_555 1_555
C4_5 N1_5 1_555 1_555
H1_5 C3_5 1_555 1_555
H2_5 C4_5 1_555 1_555
C3_5 C4_5 1_555 1_555
Cd1 O1_5 1_555 1_555
O1_5 C5_5 1_555 1_555
O2_5 C5_5 1_555 1_555
N3_5 Cd1 1_555 1_555
C1_5 C2_5 1_555 1_555
C5_5 C1_5 1_555 1_555
C7_5 N3_5 1_555 1_555
C8_5 C7_5 1_555 1_555
C10_5 C9_5 1_555 1_555
C11_5 N3_5 1_555 1_555
H3_5 C7_5 1_555 1_555
H4_5 C8_5 1_555 1_555
H5_5 C10_5 1_555 1_555
H6_5 C11_5 1_555 1_555
O5_2 Cd1 1_555 1_555
O6_3 Cd1 1_555 1_555
N8_3 Cd1 1_555 1_555
C8_5 C9_5 1_555 1_555
C10_5 C11_5 1_555 1_555
O3_5 C6_5 1_555 1_555
O4_2 C6_5 1_555 1_555
Cd3_3 O4_2 1_555 1_555
O3_6 C6_6 1_555 1_555
O5_2 C6_6 1_555 1_555
Cd3_4 O5_2 1_555 1_555
Cd2 O1_6 1_555 1_555
O1_6 C5_6 1_555 1_555
O2_6 C5_6 1_555 1_555
N1_6 C1_6 1_555 1_555
N7_3 C2_6 1_555 1_555
N3_6 Cd2 1_555 1_555
C1_6 C2_6 1_555 1_555
C3_6 N7_3 1_555 1_555
C4_6 N1_6 1_555 1_555
C5_6 C1_6 1_555 1_555
C7_6 N3_6 1_555 1_555
C8_6 C7_6 1_555 1_555
C10_6 C9_6 1_555 1_555
C11_6 N3_6 1_555 1_555
H1_6 C3_6 1_555 1_555
H2_6 C4_6 1_555 1_555
H3_6 C7_6 1_555 1_555
H4_6 C8_6 1_555 1_555
H5_6 C10_6 1_555 1_555
H6_6 C11_6 1_555 1_555
O6_4 Cd2 1_555 1_555
N8_4 Cd2 1_555 1_555
C3_6 C4_6 1_555 1_555
C8_6 C9_6 1_555 1_555
C10_6 C11_6 1_555 1_555
C15_5 N8_3 1_555 1_555
C16_5 C12_5 1_555 1_555
H9_5 C15_5 1_555 1_555
H10_5 C16_5 1_555 1_555
C15_5 C16_5 1_555 1_555
C15_6 N8_4 1_555 1_555
C16_6 C12_6 1_555 1_555
H9_6 C15_6 1_555 1_555
H10_6 C16_6 1_555 1_555
C15_6 C16_6 1_555 1_555
N4_3 C14_5 1_555 1_555
N5_5 N6_5 1_555 1_555
N6_5 C12_7 1_555 1_555
C12_7 C13_5 1_555 1_555
C13_5 C14_5 1_555 1_555
C14_5 H8_5 1_555 1_555
C15_7 N4_3 1_555 1_555
C16_7 C12_7 1_555 1_555
H7_5 C13_5 1_555 1_555
H9_7 C15_7 1_555 1_555
H10_7 C16_7 1_555 1_555
Cd3_4 N4_3 1_555 1_555
C15_7 C16_7 1_555 1_555
N4_4 C14_6 1_555 1_555
N5_6 N6_6 1_555 1_555
N6_6 C12_8 1_555 1_555
C12_8 C13_6 1_555 1_555
C13_6 C14_6 1_555 1_555
C14_6 H8_6 1_555 1_555
C15_8 N4_4 1_555 1_555
C16_8 C12_8 1_555 1_555
H7_6 C13_6 1_555 1_555
H9_8 C15_8 1_555 1_555
H10_8 C16_8 1_555 1_555
Cd3_3 N4_4 1_555 1_555
C15_8 C16_8 1_555 1_555
Cd3_4 O1_7 1_555 1_555
O1_7 C5_7 1_555 1_555
O2_7 C5_7 1_555 1_555
O3_7 C6_7 1_555 1_555
O6_4 C6_7 1_555 1_555
N3_7 Cd3_4 1_555 1_555
N5_7 N6_7 1_555 1_555
C1_7 C2_7 1_555 1_555
C2_7 C6_7 1_555 1_555
C5_7 C1_7 1_555 1_555
C7_7 N3_7 1_555 1_555
C8_7 C7_7 1_555 1_555
C9_7 N5_7 1_555 1_555
C10_7 C9_7 1_555 1_555
C11_7 N3_7 1_555 1_555
C13_7 C14_7 1_555 1_555
C14_7 H8_7 1_555 1_555
H3_7 C7_7 1_555 1_555
H4_7 C8_7 1_555 1_555
H6_7 C11_7 1_555 1_555
H7_7 C13_7 1_555 1_555
O6_3 Cd3_4 1_555 1_555
N7_4 Cd3_4 1_555 1_555
C8_7 C9_7 1_555 1_555
C10_7 C11_7 1_555 1_555
C3_7 N2_4 1_555 1_555
C4_7 N1_7 1_555 1_555
H1_7 C3_7 1_555 1_555
H2_7 C4_7 1_555 1_555
N2_4 Cd3_3 1_555 1_555
C3_7 C4_7 1_555 1_555
Cd3_3 O1_8 1_555 1_555
O1_8 C5_8 1_555 1_555
O2_8 C5_8 1_555 1_555
O3_8 C6_8 1_555 1_555
O6_3 C6_8 1_555 1_555
N1_8 C1_8 1_555 1_555
N7_4 C2_8 1_555 1_555
N3_8 Cd3_3 1_555 1_555
N5_8 N6_8 1_555 1_555
C1_8 C2_8 1_555 1_555
C2_8 C6_8 1_555 1_555
C3_8 N7_4 1_555 1_555
C4_8 N1_8 1_555 1_555
C5_8 C1_8 1_555 1_555
C7_8 N3_8 1_555 1_555
C8_8 C7_8 1_555 1_555
C9_8 N5_8 1_555 1_555
C10_8 C9_8 1_555 1_555
C11_8 N3_8 1_555 1_555
C13_8 C14_8 1_555 1_555
C14_8 H8_8 1_555 1_555
H1_8 C3_8 1_555 1_555
H2_8 C4_8 1_555 1_555
H3_8 C7_8 1_555 1_555
H4_8 C8_8 1_555 1_555
H6_8 C11_8 1_555 1_555
H7_8 C13_8 1_555 1_555
C3_8 C4_8 1_555 1_555
C8_8 C9_8 1_555 1_555
C10_8 C11_8 1_555 1_555

#END
