
###############################################################################
#
# This file contains modified crystal structure data generated from the
# MOF subset of the Cambridge Structural Database (CSD) v543 
# hosted by the Cambridge Crystallographic Data Centre (CCDC).
#
# This work is licensed under the Creative Commons
# Attribution-NonCommercial-ShareAlike 4.0 International License.
# To view a copy of this license, visit
# http://creativecommons.org/licenses/by-nc-sa/4.0/
# or send a letter to
# Creative Commons, PO Box 1866, Mountain View, CA 94042, USA.
#
# CIF created using the CSD Python API on 29 September 2022
# The structure has been converted into the P1 space group
# The structure has a 3D framework
# The original CSD entry EBEXAM is in the tetragonal crystal system
# The original CSD entry EBEXAM is in a Sohncke space group
# The framework has been calculated to contain at least 10.0% void space
# The void calculation uses a probe of radius 1.32A, grid spacing 0.4
# H atom positions have been added when not included in the experimental data
# Generated hydrogen atom positions removed from atoms on special positions
#
###############################################################################

data_EBEXAM
_chemical_formula_moiety         '(C54 H34 Gd4 O28)n'
_symmetry_cell_setting           triclinic
_symmetry_space_group_name_H-M   'P 1'
_symmetry_Int_Tables_number      1
_space_group_name_Hall           'P 1'
loop_
_symmetry_equiv_pos_site_id
_symmetry_equiv_pos_as_xyz
1 x,y,z
_cell_length_a                   10.4710(15)
_cell_length_b                   10.4710(15)
_cell_length_c                   14.645(4)
_cell_angle_alpha                90
_cell_angle_beta                 90
_cell_angle_gamma                90
_cell_volume                     1605.7
loop_
_atom_site_label
_atom_site_type_symbol
_atom_site_fract_x
_atom_site_fract_y
_atom_site_fract_z
Gd6 Gd 0.14273(3) 0.14273(3) 0.8750
C1 C 0.0000 0.3873(10) 0.0000
C3 C 0.0000 0.5331(9) 0.0000
C6 C 0.0000 0.8017(10) 0.0000
H2 H -0.0000 0.8905 0.0000
O12 O 0.0762(5) 0.1028(6) 0.0930(4)
C1_2 C -0.0000 0.3873(10) 1.0000
C3_2 C 0.0000 0.5331(9) 1.0000
C6_2 C -0.0000 0.8017(10) 1.0000
H2_2 H -0.0000 0.8905 1.0000
Gd3 Gd 0.14273(3) 0.85727(3) 0.6250
O5 O 0.0686(6) 0.3318(4) 0.9408(4)
O7 O 0.0757(6) 0.7525(6) 0.7607(4)
O10 O 0.1028(6) 0.9238(5) 0.8430(4)
C7 C 0.0755(7) 0.8103(7) 0.8367(5)
C8 C 0.0384(7) 0.6005(6) 0.9209(4)
H3 H 0.0643 0.5560 0.8692
C9 C 0.0376(7) 0.7351(7) 0.9206(4)
Gd2 Gd 0.85727(3) 0.14273(3) 0.1250
O1 O 0.9314(6) 0.3318(4) 0.0592(4)
O2 O 0.9243(6) 0.7525(6) 0.2393(4)
O3 O 0.8972(6) 0.9238(5) 0.1570(4)
O4 O 0.6884(6) 0.3116(6) 0.1250
C1_3 C 1.0000 0.3873(10) 0.0000
C2 C 0.9245(7) 0.8103(7) 0.1633(5)
C3_3 C 1.0000 0.5331(9) 0.0000
C4 C 0.9616(7) 0.6005(6) 0.0791(4)
H1 H 0.9357 0.5560 0.1308
C5 C 0.9624(7) 0.7351(7) 0.0794(4)
C6_3 C 1.0000 0.8017(10) 0.0000
H2_3 H 1.0000 0.8905 0.0000
Gd4 Gd 0.85727(3) 0.85727(3) 0.3750
O6 O 0.6682(4) 0.0686(6) 0.1908(4)
O9 O 0.9243(6) 0.2475(6) 0.2607(4)
C1_4 C 1.0000 0.3873(10) 1.0000
C3_4 C 1.0000 0.5331(9) 1.0000
C6_4 C 1.0000 0.8017(10) 1.0000
H2_4 H 1.0000 0.8905 1.0000
O8 O 0.7525(6) 0.0757(6) 0.9893(4)
O11 O 0.1028(6) 0.0762(5) 0.6570(4)
O1_2 O 0.0686(6) 0.6682(4) 0.5592(4)
O2_2 O 0.0757(6) 0.2475(6) 0.7393(4)
O4_2 O 0.3116(6) 0.6884(6) 0.6250
C1_5 C 0.0000 0.6127(10) 0.5000
C2_2 C 0.0755(7) 0.1897(7) 0.6633(5)
C3_5 C -0.0000 0.4669(9) 0.5000
C4_2 C 0.0384(7) 0.3995(6) 0.5791(4)
H1_2 H 0.0643 0.4440 0.6308
C5_2 C 0.0376(7) 0.2649(7) 0.5794(4)
C6_5 C 0.0000 0.1983(10) 0.5000
H2_5 H 0.0000 0.1095 0.5000
O6_2 O 0.3318(4) 0.9314(6) 0.6908(4)
O8_2 O 0.2475(6) 0.9243(6) 0.4893(4)
C1_6 C 1.0000 0.6127(10) 0.5000
C3_6 C 1.0000 0.4669(9) 0.5000
C6_6 C 1.0000 0.1983(10) 0.5000
H2_6 H 1.0000 0.1095 0.5000
O5_2 O 0.9314(6) 0.6682(4) 0.4408(4)
O10_2 O 0.8972(6) 0.0762(5) 0.3430(4)
O12_2 O 0.9238(5) 0.8972(6) 0.5930(4)
C7_2 C 0.9245(7) 0.1897(7) 0.3367(5)
C8_2 C 0.9616(7) 0.3995(6) 0.4209(4)
H3_2 H 0.9357 0.4440 0.3692
C9_2 C 0.9624(7) 0.2649(7) 0.4206(4)
O11_2 O 0.0762(5) 0.8972(6) 0.4070(4)
C1_7 C 0.6127(10) 0.0000 0.2500
C3_7 C 0.4669(9) 0.0000 0.2500
C6_7 C 0.1983(10) 0.0000 0.2500
H2_7 H 0.1095 0.0000 0.2500
O7_2 O 0.2475(6) 0.0757(6) 0.0107(4)
C7_3 C 0.1897(7) 0.0755(7) 0.0867(5)
C8_3 C 0.3995(6) 0.0384(7) 0.1709(4)
H3_3 H 0.4440 0.0643 0.1192
C9_3 C 0.2649(7) 0.0376(7) 0.1706(4)
O1_3 O 0.6682(4) 0.9314(6) 0.3092(4)
O4_3 O 0.6884(6) 0.6884(6) 0.3750
C1_8 C 0.6127(10) 1.0000 0.2500
C2_3 C 0.1897(7) 0.9245(7) 0.4133(5)
C3_8 C 0.4669(9) 1.0000 0.2500
C4_3 C 0.3995(6) 0.9616(7) 0.3291(4)
H1_3 H 0.4440 0.9357 0.3808
C5_3 C 0.2649(7) 0.9624(7) 0.3294(4)
C6_8 C 0.1983(10) 1.0000 0.2500
H2_8 H 0.1095 1.0000 0.2500
O9_2 O 0.7525(6) 0.9243(6) 0.5107(4)
O1_4 O 0.3318(4) 0.0686(6) 0.8092(4)
O3_2 O 0.9238(5) 0.1028(6) 0.9070(4)
O4_4 O 0.3116(6) 0.3116(6) 0.8750
C1_9 C 0.3873(10) 0.0000 0.7500
C2_4 C 0.8103(7) 0.0755(7) 0.9133(5)
C3_9 C 0.5331(9) 0.0000 0.7500
C4_4 C 0.6005(6) 0.0384(7) 0.8291(4)
H1_4 H 0.5560 0.0643 0.8808
C5_4 C 0.7351(7) 0.0376(7) 0.8294(4)
C6_9 C 0.8017(10) 0.0000 0.7500
H2_9 H 0.8905 0.0000 0.7500
C1_10 C 0.3873(10) 1.0000 0.7500
C3_10 C 0.5331(9) 1.0000 0.7500
C6_10 C 0.8017(10) 1.0000 0.7500
H2_10 H 0.8905 1.0000 0.7500
C7_4 C 0.8103(7) 0.9245(7) 0.5867(5)
C8_4 C 0.6005(6) 0.9616(7) 0.6709(4)
H3_4 H 0.5560 0.9357 0.6192
C9_4 C 0.7351(7) 0.9624(7) 0.6706(4)
loop_
_geom_bond_atom_site_label_1
_geom_bond_atom_site_label_2
_geom_bond_site_symmetry_1
_geom_bond_site_symmetry_2
C1 C3 1_555 1_555
H2 C6 1_555 1_555
C1_2 C3_2 1_555 1_555
H2_2 C6_2 1_555 1_555
Gd3 O7 1_555 1_555
Gd6 O5 1_555 1_555
O5 C1_2 1_555 1_555
O7 C7 1_555 1_555
O10 C7 1_555 1_555
C7 C9 1_555 1_555
C8 C3_2 1_555 1_555
H3 C8 1_555 1_555
C9 C6_2 1_555 1_555
C8 C9 1_555 1_555
Gd2 O1 1_555 1_555
O1 C1_3 1_555 1_555
O2 C2 1_555 1_555
O3 C2 1_555 1_555
O4 Gd2 1_555 1_555
C1_3 C3_3 1_555 1_555
C2 C5 1_555 1_555
C3_3 C4 1_555 1_555
C4 H1 1_555 1_555
C5 C4 1_555 1_555
C6_3 C5 1_555 1_555
H2_3 C6_3 1_555 1_555
Gd4 O2 1_555 1_555
O6 Gd2 1_555 1_555
O9 Gd2 1_555 1_555
C1_4 C3_4 1_555 1_555
H2_4 C6_4 1_555 1_555
Gd3 O1_2 1_555 1_555
O1_2 C1_5 1_555 1_555
O2_2 C2_2 1_555 1_555
O11 C2_2 1_555 1_555
O4_2 Gd3 1_555 1_555
C1_5 C3_5 1_555 1_555
C2_2 C5_2 1_555 1_555
C3_5 C4_2 1_555 1_555
C4_2 H1_2 1_555 1_555
C5_2 C4_2 1_555 1_555
C6_5 C5_2 1_555 1_555
H2_5 C6_5 1_555 1_555
Gd6 O2_2 1_555 1_555
O6_2 Gd3 1_555 1_555
O8_2 Gd3 1_555 1_555
C1_6 C3_6 1_555 1_555
H2_6 C6_6 1_555 1_555
Gd4 O5_2 1_555 1_555
O5_2 C1_6 1_555 1_555
O9 C7_2 1_555 1_555
O10_2 C7_2 1_555 1_555
C7_2 C9_2 1_555 1_555
C8_2 C3_6 1_555 1_555
H3_2 C8_2 1_555 1_555
C9_2 C6_6 1_555 1_555
C8_2 C9_2 1_555 1_555
C1_7 C3_7 1_555 1_555
H2_7 C6_7 1_555 1_555
O6 C1_7 1_555 1_555
O7_2 C7_3 1_555 1_555
O12 C7_3 1_555 1_555
C7_3 C9_3 1_555 1_555
C8_3 C3_7 1_555 1_555
H3_3 C8_3 1_555 1_555
C9_3 C6_7 1_555 1_555
C8_3 C9_3 1_555 1_555
Gd4 O1_3 1_555 1_555
O1_3 C1_8 1_555 1_555
O8_2 C2_3 1_555 1_555
O11_2 C2_3 1_555 1_555
O4_3 Gd4 1_555 1_555
C1_8 C3_8 1_555 1_555
C2_3 C5_3 1_555 1_555
C3_8 C4_3 1_555 1_555
C4_3 H1_3 1_555 1_555
C5_3 C4_3 1_555 1_555
C6_8 C5_3 1_555 1_555
H2_8 C6_8 1_555 1_555
O9_2 Gd4 1_555 1_555
Gd6 O1_4 1_555 1_555
O1_4 C1_9 1_555 1_555
O8 C2_4 1_555 1_555
O3_2 C2_4 1_555 1_555
O4_4 Gd6 1_555 1_555
C1_9 C3_9 1_555 1_555
C2_4 C5_4 1_555 1_555
C3_9 C4_4 1_555 1_555
C4_4 H1_4 1_555 1_555
C5_4 C4_4 1_555 1_555
C6_9 C5_4 1_555 1_555
H2_9 C6_9 1_555 1_555
C1_10 C3_10 1_555 1_555
H2_10 C6_10 1_555 1_555
O6_2 C1_10 1_555 1_555
O9_2 C7_4 1_555 1_555
O12_2 C7_4 1_555 1_555
C7_4 C9_4 1_555 1_555
C8_4 C3_10 1_555 1_555
H3_4 C8_4 1_555 1_555
C9_4 C6_10 1_555 1_555
C8_4 C9_4 1_555 1_555

#END
