
###############################################################################
#
# This file contains modified crystal structure data generated from the
# MOF subset of the Cambridge Structural Database (CSD) v543 
# hosted by the Cambridge Crystallographic Data Centre (CCDC).
#
# This work is licensed under the Creative Commons
# Attribution-NonCommercial-ShareAlike 4.0 International License.
# To view a copy of this license, visit
# http://creativecommons.org/licenses/by-nc-sa/4.0/
# or send a letter to
# Creative Commons, PO Box 1866, Mountain View, CA 94042, USA.
#
# CIF created using the CSD Python API on 29 September 2022
# The structure has been converted into the P1 space group
# The structure has a 3D framework
# The original CSD entry EBIBEY is in the monoclinic crystal system
# The framework has been calculated to contain at least 10.0% void space
# The void calculation uses a probe of radius 1.32A, grid spacing 0.4
# The framework is charged, counterions have been retained in the structure
#
###############################################################################

data_EBIBEY
_chemical_formula_moiety         '(C100 H96 Ag7 N32 O16 1-)n'
_symmetry_cell_setting           triclinic
_symmetry_space_group_name_H-M   'P 1'
_symmetry_Int_Tables_number      1
_space_group_name_Hall           'P 1'
loop_
_symmetry_equiv_pos_site_id
_symmetry_equiv_pos_as_xyz
1 x,y,z
_cell_length_a                   11.406(5)
_cell_length_b                   17.637(5)
_cell_length_c                   16.979(5)
_cell_angle_alpha                90
_cell_angle_beta                 106.836(5)
_cell_angle_gamma                90
_cell_volume                     3269.22
loop_
_atom_site_label
_atom_site_type_symbol
_atom_site_fract_x
_atom_site_fract_y
_atom_site_fract_z
Ag6 Ag 0.11012(3) 0.451070(18) 0.454660(18)
C23 C 0.0246(3) 0.2783(2) 0.4205(2)
H24 H 0.0967 0.2582 0.4549
N9 N 0.0016(3) 0.35400(17) 0.40572(17)
N17 N 0.1975(3) 0.55670(17) 0.49393(17)
C20 C 0.0296(3) 0.0521(2) 0.06278(19)
H21 H 0.0495 0.0877 0.1050
O2 O 0.1921(4) 0.00624(17) 0.21456(15)
Ag5 Ag 0.19955(3) 0.466870(16) 0.127741(17)
Ag8 Ag 0.88988(3) 0.548930(18) 0.545340(18)
C22 C 0.9275(3) 0.2375(2) 0.3779(2)
H23 H 0.9198 0.1850 0.3774
C24 C 0.8914(3) 0.35802(19) 0.3534(2)
H25 H 0.8526 0.4029 0.3316
C25 C 0.7185(3) 0.2737(2) 0.28258(18)
H26 H 0.7235 0.2339 0.2443
H27 H 0.6891 0.3190 0.2505
C26 C 0.6223(3) 0.25006(17) 0.32590(17)
C27 C 0.5047(3) 0.22624(17) 0.25864(18)
H28 H 0.5234 0.1823 0.2301
H29 H 0.4438 0.2109 0.2852
C28 C 0.4777(3) 0.29990(19) 0.12512(18)
H30 H 0.5360 0.2758 0.1054
C29 C 0.4021(3) 0.35661(19) 0.08864(19)
H31 H 0.3998 0.3785 0.0384
C30 C 0.3610(3) 0.3322(2) 0.20130(19)
H32 H 0.3254 0.3330 0.2441
C31 C 0.5854(3) 0.31436(18) 0.37596(18)
H33 H 0.5433 0.3530 0.3375
H34 H 0.5268 0.2938 0.4018
C32 C 0.7501(4) 0.3226(2) 0.5144(2)
H35 H 0.7459 0.2737 0.5340
C33 C 0.8239(4) 0.3795(2) 0.5535(2)
H36 H 0.8808 0.3757 0.6052
C34 C 0.7171(3) 0.42412(19) 0.4388(2)
H37 H 0.6841 0.4571 0.3953
C35 C 0.6671(3) 0.17716(18) 0.37679(19)
H38 H 0.6981 0.1423 0.3434
H39 H 0.7349 0.1905 0.4242
C36 C 0.5016(3) 0.08185(19) 0.3665(2)
H40 H 0.5029 0.0623 0.3159
C37 C 0.5445(3) 0.1502(2) 0.47813(19)
H41 H 0.5789 0.1856 0.5188
C38 C 0.4557(3) 0.1005(2) 0.47759(19)
H42 H 0.4180 0.0957 0.5191
N10 N 0.8421(2) 0.28875(15) 0.33542(16)
N11 N 0.4509(2) 0.28500(15) 0.19746(14)
N12 N 0.3292(3) 0.37712(16) 0.13685(16)
N14 N 0.6830(3) 0.35159(15) 0.44013(15)
N15 N 0.8025(3) 0.44330(17) 0.50607(17)
N18 N 0.5747(2) 0.13802(15) 0.40551(15)
N19 N 0.4283(3) 0.05778(15) 0.40763(16)
Ag1 Ag 0.30045(3) 0.966870(16) 0.372259(17)
H7 H 0.0562 0.7109 0.2148
C7 C 0.0223(3) 0.79990(19) 0.37488(18)
C8 C 0.0979(3) 0.85661(19) 0.41136(19)
H9 H 0.1002 0.8785 0.4616
C9 C 0.1390(3) 0.8322(2) 0.29870(19)
H10 H 0.1746 0.8330 0.2559
C17 C 0.0443(3) 0.6005(2) 0.02241(19)
C18 C 0.1860(4) 0.9644(2) 0.1541(2)
C19 C 0.0891(3) 0.9828(2) 0.07395(18)
C21 C 0.0589(3) 0.9305(2) 0.00983(19)
H22 H 0.0983 0.8838 0.0158
O1 O 0.2531(2) 0.90791(15) 0.15558(14)
N3 N 0.0491(2) 0.78500(15) 0.30254(14)
N4 N 0.1708(3) 0.87712(16) 0.36315(16)
N8 N 0.0717(3) 0.55778(15) 0.09237(16)
N16 N 0.3025(3) 0.05670(17) 0.00607(17)
Ag3 Ag 0.69955(3) 0.033130(16) 0.627741(17)
Ag7 Ag 0.61012(3) 0.048930(18) 0.954660(18)
C39 C 0.8140(4) 0.0356(2) 0.8459(2)
C40 C 0.9109(3) 0.0172(2) 0.92605(18)
C42 C 0.9411(3) 0.0695(2) 0.99017(19)
H44 H 0.9017 0.1162 0.9842
O3 O 0.7469(2) 0.09209(15) 0.84442(14)
N13 N 0.8292(3) 0.12288(16) 0.63685(16)
Ag2 Ag 0.38988(3) 0.951070(18) 0.045340(18)
C1 C 0.5725(3) 0.7375(2) 0.1221(2)
H1 H 0.5802 0.6850 0.1226
C2 C 0.4754(3) 0.7783(2) 0.0795(2)
H2 H 0.4033 0.7582 0.0451
C3 C 0.6086(3) 0.85802(19) 0.1466(2)
H3 H 0.6474 0.9029 0.1684
C4 C 0.7815(3) 0.7737(2) 0.21742(18)
H4 H 0.7765 0.7339 0.2557
H5 H 0.8109 0.8190 0.2495
C5 C 0.8777(3) 0.75006(17) 0.17410(17)
C6 C 0.9953(3) 0.72624(17) 0.24136(18)
H6 H 0.9766 0.6823 0.2699
H8 H 0.9640 0.7758 0.3946
C10 C 0.9146(3) 0.81436(18) 0.12404(18)
H11 H 0.9567 0.8530 0.1625
H12 H 0.9732 0.7938 0.0982
C13 C 0.7829(3) 0.92412(19) 0.0612(2)
H15 H 0.8159 0.9571 0.1047
C14 C 0.8329(3) 0.67716(18) 0.12321(19)
H16 H 0.8019 0.6423 0.1566
H17 H 0.7651 0.6905 0.0758
C15 C 0.9984(3) 0.58185(19) 0.1335(2)
H18 H 0.9971 0.5623 0.1841
C16 C 0.9555(3) 0.6502(2) 0.02187(19)
N1 N 0.4984(3) 0.85400(17) 0.09428(17)
N2 N 0.6579(2) 0.78875(15) 0.16458(16)
N5 N 0.8170(3) 0.85159(15) 0.05987(15)
N7 N 0.9253(2) 0.63802(15) 0.09449(15)
C11 C 0.7499(4) 0.8226(2) 0.9856(2)
H13 H 0.7541 0.7737 0.9660
C12 C 0.6761(4) 0.8795(2) 0.9465(2)
H14 H 0.6192 0.8757 0.8948
H19 H 0.9211 0.6856 0.9812
N6 N 0.6975(3) 0.94330(17) 0.99393(17)
C41 C 0.9704(3) 0.9479(2) 0.93722(19)
H43 H 0.9505 0.9123 0.8950
O4 O 0.8079(4) 0.99376(17) 0.78544(15)
N20 N 0.5717(3) 0.94222(15) 0.59237(16)
C18_2 C 0.3140(4) 0.4644(2) 0.3459(2)
C19_2 C 0.4109(3) 0.4828(2) 0.42605(18)
C20_2 C 0.4704(3) 0.5521(2) 0.43722(19)
H21_2 H 0.4505 0.5877 0.3950
C21_2 C 0.4411(3) 0.4305(2) 0.49017(19)
H22_2 H 0.4017 0.3838 0.4842
O1_2 O 0.2469(2) 0.40791(15) 0.34442(14)
O2_2 O 0.3079(4) 0.50624(17) 0.28544(15)
Ag3_2 Ag 0.80045(3) 0.533130(16) 0.872259(17)
C39_2 C 0.6860(4) 0.5356(2) 0.6541(2)
C40_2 C 0.5891(3) 0.5172(2) 0.57395(18)
C41_2 C 0.5296(3) 0.4479(2) 0.56278(19)
H43_2 H 0.5495 0.4123 0.6050
C42_2 C 0.5589(3) 0.5695(2) 0.50983(19)
H44_2 H 0.5983 0.6162 0.5158
O3_2 O 0.7531(2) 0.59209(15) 0.65558(14)
O4_2 O 0.6921(4) 0.49376(17) 0.71456(15)
N13_2 N 0.6708(3) 0.62288(16) 0.86315(16)
N20_2 N 0.9283(3) 0.44222(15) 0.90763(16)
C11_2 C 0.2501(4) 0.1774(2) 0.0144(2)
H13_2 H 0.2459 0.2263 0.0340
C12_2 C 0.3239(4) 0.1205(2) 0.0535(2)
H14_2 H 0.3808 0.1243 0.1052
H19_2 H 0.0789 0.3144 0.0188
C1_2 C 0.4275(3) 0.2625(2) 0.8779(2)
H1_2 H 0.4198 0.3150 0.8774
C2_2 C 0.5246(3) 0.2217(2) 0.9205(2)
H2_2 H 0.5967 0.2418 0.9549
C3_2 C 0.3914(3) 0.14198(19) 0.8534(2)
H3_2 H 0.3526 0.0971 0.8316
C4_2 C 0.2185(3) 0.2263(2) 0.78258(18)
H4_2 H 0.2235 0.2661 0.7443
H5_2 H 0.1891 0.1810 0.7505
C5_2 C 0.1223(3) 0.24994(17) 0.82590(17)
C6_2 C 0.0047(3) 0.27376(17) 0.75864(18)
H6_2 H 0.0234 0.3177 0.7301
H8_2 H 0.0360 0.2242 0.6054
C10_2 C 0.0854(3) 0.18564(18) 0.87596(18)
H11_2 H 0.0433 0.1470 0.8375
H12_2 H 0.0268 0.2062 0.9018
C13_2 C 0.2171(3) 0.07588(19) 0.9388(2)
H15_2 H 0.1841 0.0429 0.8953
C14_2 C 0.1671(3) 0.32284(18) 0.87679(19)
H16_2 H 0.1981 0.3577 0.8434
H17_2 H 0.2349 0.3095 0.9242
C15_2 C 0.0016(3) 0.41815(19) 0.8665(2)
H18_2 H 0.0029 0.4377 0.8159
C16_2 C 0.0445(3) 0.3498(2) 0.97813(19)
N1_2 N 0.5016(3) 0.14600(17) 0.90572(17)
N2_2 N 0.3421(2) 0.21125(15) 0.83542(16)
N5_2 N 0.1830(3) 0.14841(15) 0.94013(15)
N7_2 N 0.0747(2) 0.36198(15) 0.90551(15)
H7_2 H 0.9438 0.2891 0.7852
C7_2 C 0.9777(3) 0.20010(19) 0.62512(18)
C8_2 C 0.9021(3) 0.14339(19) 0.58864(19)
H9_2 H 0.8998 0.1215 0.5384
C9_2 C 0.8610(3) 0.1678(2) 0.70130(19)
H10_2 H 0.8254 0.1670 0.7441
C17_2 C 0.9557(3) 0.3995(2) 0.97759(19)
N3_2 N 0.9509(2) 0.21500(15) 0.69746(14)
C22_2 C 0.0725(3) 0.7625(2) 0.6221(2)
H23_2 H 0.0802 0.8150 0.6226
C24_2 C 0.1086(3) 0.64198(19) 0.6466(2)
H25_2 H 0.1474 0.5971 0.6684
C25_2 C 0.2815(3) 0.7263(2) 0.71742(18)
H26_2 H 0.2765 0.7661 0.7557
H27_2 H 0.3109 0.6810 0.7495
C26_2 C 0.3777(3) 0.74994(17) 0.67410(17)
C27_2 C 0.4953(3) 0.77376(17) 0.74136(18)
H28_2 H 0.4766 0.8177 0.7699
H29_2 H 0.5562 0.7891 0.7148
C28_2 C 0.5223(3) 0.70010(19) 0.87488(18)
H30_2 H 0.4640 0.7242 0.8946
C29_2 C 0.5979(3) 0.64339(19) 0.91136(19)
H31_2 H 0.6002 0.6215 0.9616
C30_2 C 0.6390(3) 0.6678(2) 0.79870(19)
H32_2 H 0.6746 0.6670 0.7559
C31_2 C 0.4146(3) 0.68564(18) 0.62404(18)
H33_2 H 0.4567 0.6470 0.6625
H34_2 H 0.4732 0.7062 0.5982
C32_2 C 0.2499(4) 0.6774(2) 0.4856(2)
H35_2 H 0.2541 0.7263 0.4660
C33_2 C 0.1761(4) 0.6205(2) 0.4465(2)
H36_2 H 0.1192 0.6243 0.3948
C34_2 C 0.2829(3) 0.57588(19) 0.5612(2)
H37_2 H 0.3159 0.5429 0.6047
C35_2 C 0.3329(3) 0.82284(18) 0.62321(19)
H38_2 H 0.3019 0.8577 0.6566
H39_2 H 0.2651 0.8095 0.5758
C36_2 C 0.4984(3) 0.91815(19) 0.6335(2)
H40_2 H 0.4971 0.9377 0.6841
C37_2 C 0.4555(3) 0.8498(2) 0.52187(19)
H41_2 H 0.4211 0.8144 0.4812
C38_2 C 0.5443(3) 0.8995(2) 0.52241(19)
H42_2 H 0.5820 0.9043 0.4809
N10_2 N 0.1579(2) 0.71125(15) 0.66458(16)
N11_2 N 0.5491(2) 0.71500(15) 0.80254(14)
N14_2 N 0.3170(3) 0.64841(15) 0.55987(15)
N18_2 N 0.4253(2) 0.86198(15) 0.59449(15)
C23_2 C 0.9754(3) 0.7217(2) 0.5795(2)
H24_2 H 0.9033 0.7418 0.5451
N9_2 N 0.9984(3) 0.64600(17) 0.59428(17)
H20 H 0.0820 0.5957 0.9809
H20_2 H 0.9180 0.4043 0.0191
C47 C 0.2151(4) 0.0382(2) 0.6359(2)
C48 C 0.1041(3) 0.01720(19) 0.5654(2)
C49 C 0.0903(3) 0.04665(19) 0.4868(2)
H47 H 0.1505 0.0780 0.4774
O7 O 0.2888(3) 0.08532(18) 0.62488(16)
O8 O 0.2260(3) 0.0051(2) 0.70288(18)
C50 C 0.0125(4) 0.9707(2) 0.5769(2)
H48 H 0.0206 0.9507 0.6289
C46 C 0.9875(4) 0.0293(2) 0.4231(2)
H46 H 0.9794 0.0493 0.3711
C43 C 0.7849(4) 0.9618(2) 0.3641(2)
C44 C 0.8959(3) 0.98280(19) 0.4346(2)
C45 C 0.9097(3) 0.95335(19) 0.5132(2)
H45 H 0.8495 0.9220 0.5226
O5 O 0.7112(3) 0.91468(18) 0.37512(16)
O6 O 0.7740(3) 0.9949(2) 0.29712(18)
C43_2 C 0.7151(4) 0.4618(2) 0.1359(2)
C44_2 C 0.6041(3) 0.48280(19) 0.0654(2)
C46_2 C 0.5125(4) 0.5293(2) 0.0769(2)
H46_2 H 0.5206 0.5493 0.1289
O5_2 O 0.7888(3) 0.41468(18) 0.12488(16)
O6_2 O 0.7260(3) 0.4949(2) 0.20288(18)
C49_2 C 0.4097(3) 0.54665(19) 0.0132(2)
H47_2 H 0.3495 0.5780 0.0226
C45_2 C 0.5903(3) 0.45335(19) 0.9868(2)
H45_2 H 0.6505 0.4220 0.9774
C47_2 C 0.2849(4) 0.5382(2) 0.8641(2)
C48_2 C 0.3959(3) 0.51720(19) 0.9346(2)
C50_2 C 0.4875(4) 0.4707(2) 0.9231(2)
H48_2 H 0.4794 0.4507 0.8711
O7_2 O 0.2112(3) 0.58532(18) 0.87512(16)
O8_2 O 0.2740(3) 0.5051(2) 0.79712(18)
loop_
_geom_bond_atom_site_label_1
_geom_bond_atom_site_label_2
_geom_bond_site_symmetry_1
_geom_bond_site_symmetry_2
Ag6 N9 1_555 1_555
H24 C23 1_555 1_555
N9 C23 1_555 1_555
N17 Ag6 1_555 1_555
C20 H21 1_555 1_555
Ag5 N12 1_555 1_555
Ag8 N15 1_555 1_555
C22 H23 1_555 1_555
C24 H25 1_555 1_555
C25 H26 1_555 1_555
H27 C25 1_555 1_555
C26 C25 1_555 1_555
C27 C26 1_555 1_555
H28 C27 1_555 1_555
H29 C27 1_555 1_555
C28 H30 1_555 1_555
C29 C28 1_555 1_555
H31 C29 1_555 1_555
C30 H32 1_555 1_555
C31 C26 1_555 1_555
H33 C31 1_555 1_555
H34 C31 1_555 1_555
C32 H35 1_555 1_555
C33 C32 1_555 1_555
H36 C33 1_555 1_555
C34 H37 1_555 1_555
C35 C26 1_555 1_555
H38 C35 1_555 1_555
H39 C35 1_555 1_555
C36 H40 1_555 1_555
C37 H41 1_555 1_555
C38 C37 1_555 1_555
H42 C38 1_555 1_555
N10 C22 1_555 1_555
N11 C27 1_555 1_555
N12 C29 1_555 1_555
N14 C31 1_555 1_555
N15 C33 1_555 1_555
N18 C35 1_555 1_555
C24 N10 1_555 1_555
C25 N10 1_555 1_555
C28 N11 1_555 1_555
C30 N11 1_555 1_555
C30 N12 1_555 1_555
C32 N14 1_555 1_555
C34 N14 1_555 1_555
C34 N15 1_555 1_555
C36 N18 1_555 1_555
C36 N19 1_555 1_555
C37 N18 1_555 1_555
C38 N19 1_555 1_555
C8 C7 1_555 1_555
H9 C8 1_555 1_555
C9 H10 1_555 1_555
C18 C19 1_555 1_555
C21 C19 1_555 1_555
H22 C21 1_555 1_555
O1 C18 1_555 1_555
N4 Ag1 1_555 1_555
Ag5 N8 1_555 1_555
C7 N3 1_555 1_555
C8 N4 1_555 1_555
C9 N3 1_555 1_555
C9 N4 1_555 1_555
C17 N8 1_555 1_555
C39 C40 1_555 1_555
H44 C42 1_555 1_555
O3 C39 1_555 1_555
N13 Ag3 1_555 1_555
C40 C42 1_555 1_555
Ag2 N1 1_555 1_555
C1 H1 1_555 1_555
C2 C1 1_555 1_555
H2 C2 1_555 1_555
C3 H3 1_555 1_555
C4 H4 1_555 1_555
H5 C4 1_555 1_555
C5 C4 1_555 1_555
C6 C5 1_555 1_555
H6 C6 1_555 1_555
C10 C5 1_555 1_555
H11 C10 1_555 1_555
H12 C10 1_555 1_555
C13 H15 1_555 1_555
C14 C5 1_555 1_555
H16 C14 1_555 1_555
H17 C14 1_555 1_555
C15 H18 1_555 1_555
N1 C2 1_555 1_555
N2 C1 1_555 1_555
N5 C10 1_555 1_555
N7 C14 1_555 1_555
C3 N1 1_555 1_555
C3 N2 1_555 1_555
C4 N2 1_555 1_555
C13 N5 1_555 1_555
C15 N7 1_555 1_555
C16 N7 1_555 1_555
C11 H13 1_555 1_555
C12 C11 1_555 1_555
H14 C12 1_555 1_555
N6 C12 1_555 1_555
H43 C41 1_555 1_555
Ag5 O2_2 1_555 1_555
C18_2 C19_2 1_555 1_555
C19_2 C20_2 1_555 1_555
C20_2 H21_2 1_555 1_555
C21_2 C19_2 1_555 1_555
H22_2 C21_2 1_555 1_555
O1_2 C18_2 1_555 1_555
O2_2 C18_2 1_555 1_555
Ag3_2 O4_2 1_555 1_555
C39_2 C40_2 1_555 1_555
C40_2 C41_2 1_555 1_555
C41_2 C21_2 1_555 1_555
H43_2 C41_2 1_555 1_555
C42_2 C20_2 1_555 1_555
H44_2 C42_2 1_555 1_555
O3_2 C39_2 1_555 1_555
O4_2 C39_2 1_555 1_555
N13_2 Ag3_2 1_555 1_555
N20_2 Ag3_2 1_555 1_555
C40_2 C42_2 1_555 1_555
C11_2 H13_2 1_555 1_555
C12_2 C11_2 1_555 1_555
H14_2 C12_2 1_555 1_555
N16 C12_2 1_555 1_555
Ag7 N1_2 1_555 1_555
C1_2 H1_2 1_555 1_555
C2_2 C1_2 1_555 1_555
H2_2 C2_2 1_555 1_555
C3_2 H3_2 1_555 1_555
C4_2 H4_2 1_555 1_555
H5_2 C4_2 1_555 1_555
C5_2 C4_2 1_555 1_555
C6_2 C5_2 1_555 1_555
H6_2 C6_2 1_555 1_555
C10_2 C5_2 1_555 1_555
H11_2 C10_2 1_555 1_555
H12_2 C10_2 1_555 1_555
C13_2 H15_2 1_555 1_555
C14_2 C5_2 1_555 1_555
H16_2 C14_2 1_555 1_555
H17_2 C14_2 1_555 1_555
C15_2 H18_2 1_555 1_555
N1_2 C2_2 1_555 1_555
N2_2 C1_2 1_555 1_555
N5_2 C10_2 1_555 1_555
N7_2 C14_2 1_555 1_555
C3_2 N1_2 1_555 1_555
C3_2 N2_2 1_555 1_555
C4_2 N2_2 1_555 1_555
C13_2 N5_2 1_555 1_555
C15_2 N7_2 1_555 1_555
C16_2 N7_2 1_555 1_555
C8_2 C7_2 1_555 1_555
H9_2 C8_2 1_555 1_555
C9_2 H10_2 1_555 1_555
C7_2 N3_2 1_555 1_555
C8_2 N13 1_555 1_555
C9_2 N3_2 1_555 1_555
C9_2 N13 1_555 1_555
C17_2 N20_2 1_555 1_555
C22_2 H23_2 1_555 1_555
C24_2 H25_2 1_555 1_555
C25_2 H26_2 1_555 1_555
H27_2 C25_2 1_555 1_555
C26_2 C25_2 1_555 1_555
C27_2 C26_2 1_555 1_555
H28_2 C27_2 1_555 1_555
H29_2 C27_2 1_555 1_555
C28_2 H30_2 1_555 1_555
C29_2 C28_2 1_555 1_555
H31_2 C29_2 1_555 1_555
C30_2 H32_2 1_555 1_555
C31_2 C26_2 1_555 1_555
H33_2 C31_2 1_555 1_555
H34_2 C31_2 1_555 1_555
C32_2 H35_2 1_555 1_555
C33_2 C32_2 1_555 1_555
H36_2 C33_2 1_555 1_555
C34_2 H37_2 1_555 1_555
C35_2 C26_2 1_555 1_555
H38_2 C35_2 1_555 1_555
H39_2 C35_2 1_555 1_555
C36_2 H40_2 1_555 1_555
C37_2 H41_2 1_555 1_555
C38_2 C37_2 1_555 1_555
H42_2 C38_2 1_555 1_555
N10_2 C22_2 1_555 1_555
N11_2 C27_2 1_555 1_555
N13_2 C29_2 1_555 1_555
N14_2 C31_2 1_555 1_555
N17 C33_2 1_555 1_555
N18_2 C35_2 1_555 1_555
C24_2 N10_2 1_555 1_555
C25_2 N10_2 1_555 1_555
C28_2 N11_2 1_555 1_555
C30_2 N11_2 1_555 1_555
C30_2 N13_2 1_555 1_555
C32_2 N14_2 1_555 1_555
C34_2 N14_2 1_555 1_555
C34_2 N17 1_555 1_555
C36_2 N18_2 1_555 1_555
C36_2 N20 1_555 1_555
C37_2 N18_2 1_555 1_555
C38_2 N20 1_555 1_555
Ag8 N9_2 1_555 1_555
H24_2 C23_2 1_555 1_555
N9_2 C23_2 1_555 1_555
C47 C48 1_555 1_555
C48 C49 1_555 1_555
H47 C49 1_555 1_555
O7 C47 1_555 1_555
O8 C47 1_555 1_555
H48 C50 1_555 1_555
H46 C46 1_555 1_555
C43 C44 1_555 1_555
C44 C45 1_555 1_555
C45 H45 1_555 1_555
O5 C43 1_555 1_555
O6 C43 1_555 1_555
C43_2 C44_2 1_555 1_555
C46_2 C44_2 1_555 1_555
H46_2 C46_2 1_555 1_555
O5_2 C43_2 1_555 1_555
O6_2 C43_2 1_555 1_555
C49_2 C46_2 1_555 1_555
H47_2 C49_2 1_555 1_555
C45_2 H45_2 1_555 1_555
C47_2 C48_2 1_555 1_555
C50_2 C45_2 1_555 1_555
H48_2 C50_2 1_555 1_555
O7_2 C47_2 1_555 1_555
O8_2 C47_2 1_555 1_555
C48_2 C50_2 1_555 1_555

#END
