
###############################################################################
#
# This file contains modified crystal structure data generated from the
# MOF subset of the Cambridge Structural Database (CSD) v543 
# hosted by the Cambridge Crystallographic Data Centre (CCDC).
#
# This work is licensed under the Creative Commons
# Attribution-NonCommercial-ShareAlike 4.0 International License.
# To view a copy of this license, visit
# http://creativecommons.org/licenses/by-nc-sa/4.0/
# or send a letter to
# Creative Commons, PO Box 1866, Mountain View, CA 94042, USA.
#
# CIF created using the CSD Python API on 29 September 2022
# The structure has been converted into the P1 space group
# The structure has a 3D framework
# The original CSD entry EBISOA is in the triclinic crystal system
# The framework has been calculated to contain at least 10.0% void space
# The void calculation uses a probe of radius 1.32A, grid spacing 0.4
#
###############################################################################

data_EBISOA
_chemical_formula_moiety         '(C40 H44 Cd1 N8 O8)n'
_symmetry_cell_setting           triclinic
_symmetry_space_group_name_H-M   'P 1'
_symmetry_Int_Tables_number      1
_space_group_name_Hall           'P 1'
loop_
_symmetry_equiv_pos_site_id
_symmetry_equiv_pos_as_xyz
1 x,y,z
_cell_length_a                   9.2444(10)
_cell_length_b                   10.0116(8)
_cell_length_c                   14.4659(13)
_cell_angle_alpha                107.371(8)
_cell_angle_beta                 91.269(8)
_cell_angle_gamma                116.622(10)
_cell_volume                     1123.07
loop_
_atom_site_label
_atom_site_type_symbol
_atom_site_fract_x
_atom_site_fract_y
_atom_site_fract_z
_atom_site_U_iso_or_equiv
_atom_site_thermal_displace_type
C4 C 0.0623(5) 0.6362(5) 0.4739(3) 0.0218 Uani
H2 H 0.1048 0.7292 0.4564 0.0260 Uiso
O3 O 0.0434(4) 0.4021(3) 0.0619(2) 0.0233 Uani
O5 O 0.1786(3) 0.6649(3) 0.76386(19) 0.0229 Uani
O6 O 0.0112(4) 0.4083(3) 0.7286(2) 0.0270 Uani
C21 C 0.0780(5) 0.5289(4) 0.7036(3) 0.0202 Uani
C22 C 0.0382(4) 0.5135(4) 0.5976(3) 0.0179 Uani
C23 C 0.0995(5) 0.6482(5) 0.5705(3) 0.0214 Uani
H23 H 0.1679 0.7499 0.6188 0.0260 Uiso
Cd7 Cd 0.17658(3) 0.56249(2) 0.89434(2) 0.0170 Uani
O4 O 0.1088(3) 0.3317(3) 0.9138(2) 0.0249 Uani
C5 C 0.0625(5) 0.3070(4) 0.9918(3) 0.0201 Uani
C6 C 0.0299(4) 0.1469(4) 0.9954(3) 0.0189 Uani
C8 C 0.0643(5) 0.0447(5) 0.9218(3) 0.0242 Uani
H4 H 0.1088 0.0756 0.8685 0.0290 Uiso
C27 C 0.0338(5) 0.8978(5) 0.9260(3) 0.0237 Uani
H25 H 0.0564 0.8279 0.8752 0.0280 Uiso
Cd1 Cd 0.82342(3) 0.43751(2) 0.10566(2) 0.0170 Uani
O1 O 0.8214(3) 0.3351(3) 0.23614(19) 0.0229 Uani
O2 O 0.9888(4) 0.5917(3) 0.2714(2) 0.0270 Uani
C1 C 0.9220(5) 0.4711(4) 0.2964(3) 0.0202 Uani
C2 C 0.9618(4) 0.4865(4) 0.4024(3) 0.0179 Uani
C3 C 0.9005(5) 0.3518(5) 0.4295(3) 0.0214 Uani
H1 H 0.8321 0.2501 0.3812 0.0260 Uiso
C7 C 0.9662(5) 0.1022(5) 0.0740(3) 0.0237 Uani
H3 H 0.9436 0.1721 0.1248 0.0280 Uiso
N1 N 0.5935(5) 0.4520(4) 0.1583(3) 0.0259 Uani
N2 N 0.3760(4) 0.4047(5) 0.2291(3) 0.0330 Uani
C9 C 0.4993(5) 0.3716(5) 0.2099(3) 0.0281 Uani
H5 H 0.5169 0.2982 0.2313 0.0340 Uiso
C10 C 0.5257(6) 0.5435(6) 0.1427(3) 0.0372 Uani
H6 H 0.5662 0.6146 0.1070 0.0440 Uiso
C11 C 0.3918(6) 0.5154(6) 0.1867(4) 0.0385 Uani
H7 H 0.3228 0.5630 0.1880 0.0460 Uiso
C12 C 0.2581(6) 0.3482(7) 0.2919(4) 0.0436 Uani
H8 H 0.2330 0.2384 0.2853 0.0530 Uiso
H9 H 0.1544 0.3455 0.2697 0.0530 Uiso
C13 C 0.3243(7) 0.4547(8) 0.3996(4) 0.0474 Uani
H10 H 0.2352 0.4215 0.4378 0.0570 Uiso
H11 H 0.3571 0.5658 0.4050 0.0570 Uiso
C14 C 0.4717(6) 0.4495(7) 0.4450(4) 0.0431 Uani
H12 H 0.5639 0.4893 0.4098 0.0510 Uiso
H13 H 0.4415 0.3379 0.4367 0.0510 Uiso
H15 H 0.4281 0.1439 0.0028 0.0340 Uiso
C24 C 0.9377(5) 0.3638(5) 0.5261(3) 0.0218 Uani
H24 H 0.8952 0.2708 0.5436 0.0260 Uiso
N5 N 0.4065(5) 0.5480(4) 0.8417(3) 0.0259 Uani
N6 N 0.6240(4) 0.5953(5) 0.7709(3) 0.0330 Uani
C29 C 0.5007(5) 0.6284(5) 0.7901(3) 0.0281 Uani
H27 H 0.4831 0.7018 0.7687 0.0340 Uiso
C30 C 0.4743(6) 0.4565(6) 0.8573(3) 0.0372 Uani
H28 H 0.4338 0.3854 0.8930 0.0440 Uiso
C31 C 0.6082(6) 0.4846(6) 0.8133(4) 0.0385 Uani
H29 H 0.6772 0.4370 0.8120 0.0460 Uiso
C32 C 0.7419(6) 0.6518(7) 0.7081(4) 0.0436 Uani
H30 H 0.7670 0.7616 0.7147 0.0530 Uiso
H31 H 0.8456 0.6545 0.7303 0.0530 Uiso
C33 C 0.6757(7) 0.5453(8) 0.6004(4) 0.0474 Uani
H32 H 0.7648 0.5785 0.5622 0.0570 Uiso
H33 H 0.6429 0.4342 0.5950 0.0570 Uiso
C34 C 0.5283(6) 0.5505(7) 0.5550(4) 0.0431 Uani
H34 H 0.4361 0.5107 0.5902 0.0510 Uiso
H35 H 0.5585 0.6621 0.5633 0.0510 Uiso
O13 O 0.8912(3) 0.6683(3) 0.0862(2) 0.0249 Uani
C15 C 0.7009(5) 0.1901(5) 0.8798(3) 0.0257 Uani
H14 H 0.8091 0.2375 0.8664 0.0310 Uiso
N3 N 0.6596(4) 0.2383(4) 0.9661(2) 0.0227 Uani
N4 N 0.5713(4) 0.0666(4) 0.8143(2) 0.0249 Uani
C16 C 0.4935(5) 0.1390(5) 0.9535(3) 0.0287 Uani
C17 C 0.4368(5) 0.0326(5) 0.8596(3) 0.0299 Uani
C19 C 0.5354(6) 0.0623(5) 0.6434(3) 0.0298 Uani
H19 H 0.6255 0.1727 0.6602 0.0360 Uiso
H20 H 0.4315 0.0667 0.6525 0.0360 Uiso
H38 H 0.6732 0.0483 0.1686 0.0360 Uiso
C38 C 0.4307(6) 0.0137(5) 0.2886(3) 0.0298 Uani
H39 H 0.5163 0.1266 0.3093 0.0360 Uiso
H40 H 0.3230 0.0110 0.2947 0.0360 Uiso
C40 C 0.4784(6) 0.0330(5) 0.4642(3) 0.0310 Uani
H43 H 0.3723 0.0324 0.4735 0.0370 Uiso
H44 H 0.5638 0.1449 0.4792 0.0370 Uiso
C25 C 0.9375(5) 0.6930(4) 0.0082(3) 0.0201 Uani
C26 C 0.9701(4) 0.8531(4) 0.0046(3) 0.0189 Uani
C28 C 0.9357(5) 0.9553(5) 0.0782(3) 0.0242 Uani
H26 H 0.8912 0.9244 0.1315 0.0290 Uiso
H16 H 0.3268 0.9517 0.8314 0.0360 Uiso
C18 C 0.5693(6) 0.9863(5) 0.7114(3) 0.0298 Uani
H17 H 0.4837 0.8734 0.6907 0.0360 Uiso
H18 H 0.6770 0.9890 0.7053 0.0360 Uiso
C20 C 0.5216(6) 0.9670(5) 0.5358(3) 0.0310 Uani
H21 H 0.6277 0.9676 0.5265 0.0370 Uiso
H22 H 0.4362 0.8551 0.5208 0.0370 Uiso
O7 O 0.9566(4) 0.5979(3) 0.9381(2) 0.0233 Uani
C35 C 0.2991(5) 0.8099(5) 0.1202(3) 0.0257 Uani
H36 H 0.1909 0.7625 0.1336 0.0310 Uiso
N7 N 0.3404(4) 0.7617(4) 0.0339(2) 0.0227 Uani
N8 N 0.4287(4) 0.9334(4) 0.1857(2) 0.0249 Uani
C36 C 0.5065(5) 0.8610(5) 0.0465(3) 0.0287 Uani
C37 C 0.5632(5) 0.9674(5) 0.1404(3) 0.0299 Uani
C39 C 0.4646(6) 0.9377(5) 0.3566(3) 0.0298 Uani
H41 H 0.3745 0.8273 0.3398 0.0360 Uiso
H42 H 0.5685 0.9333 0.3475 0.0360 Uiso
H37 H 0.5719 0.8561 0.9972 0.0340 Uiso
loop_
_atom_site_aniso_label
_atom_site_aniso_U_11
_atom_site_aniso_U_22
_atom_site_aniso_U_33
_atom_site_aniso_U_23
_atom_site_aniso_U_13
_atom_site_aniso_U_12
C4 0.02 0.0252 0.019 0.007 0.0031 0.0102
O3 0.0214 0.0199 0.0298 0.0054 0.0008 0.0129
O5 0.0272 0.0245 0.0158 0.0038 -0.0015 0.0135
O6 0.036 0.0268 0.018 0.01 0.0027 0.0136
C21 0.0207 0.027 0.0147 0.0049 -0.0006 0.0144
C22 0.0167 0.0216 0.014 0.0049 0.0012 0.0089
C23 0.0171 0.0227 0.0174 0.0028 -0.0037 0.0067
Cd7 0.01917 0.01786 0.01387 0.00569 -1e-05 0.00873
O4 0.0301 0.0193 0.027 0.0109 0.0047 0.0115
C5 0.0192 0.0191 0.0234 0.0107 -0.001 0.0084
C6 0.0163 0.0199 0.0231 0.009 0.0031 0.0099
C8 0.03 0.0257 0.0222 0.0125 0.0096 0.0147
C27 0.031 0.0261 0.0213 0.0109 0.0092 0.0177
Cd1 0.01917 0.01786 0.01387 0.00569 -1e-05 0.00873
O1 0.0272 0.0245 0.0158 0.0038 -0.0015 0.0135
O2 0.036 0.0268 0.018 0.01 0.0027 0.0136
C1 0.0207 0.027 0.0147 0.0049 -0.0006 0.0144
C2 0.0167 0.0216 0.014 0.0049 0.0012 0.0089
C3 0.0171 0.0227 0.0174 0.0028 -0.0037 0.0067
C7 0.031 0.0261 0.0213 0.0109 0.0092 0.0177
N1 0.029 0.0337 0.0243 0.0095 0.0079 0.0227
N2 0.0232 0.047 0.026 0.0028 0.0018 0.0207
C9 0.03 0.037 0.028 0.0131 0.0071 0.0234
C10 0.041 0.042 0.032 0.0066 -0.0059 0.027
C11 0.038 0.048 0.034 0.004 -0.005 0.031
C12 0.022 0.07 0.029 0.004 0.0027 0.022
C13 0.035 0.08 0.029 0.007 0.011 0.036
C14 0.031 0.065 0.031 0.002 0.0062 0.03
C24 0.02 0.0252 0.019 0.007 0.0031 0.0102
N5 0.029 0.0337 0.0243 0.0095 0.0079 0.0227
N6 0.0232 0.047 0.026 0.0028 0.0018 0.0207
C29 0.03 0.037 0.028 0.0131 0.0071 0.0234
C30 0.041 0.042 0.032 0.0066 -0.0059 0.027
C31 0.038 0.048 0.034 0.004 -0.005 0.031
C32 0.022 0.07 0.029 0.004 0.0027 0.022
C33 0.035 0.08 0.029 0.007 0.011 0.036
C34 0.031 0.065 0.031 0.002 0.0062 0.03
O13 0.0301 0.0193 0.027 0.0109 0.0047 0.0115
C15 0.02 0.0299 0.0185 0.0036 -0.0034 0.008
N3 0.022 0.024 0.0158 0.0032 -0.0037 0.0084
N4 0.0287 0.0273 0.0173 0.0051 -0.0007 0.0141
C16 0.024 0.033 0.0228 0.0078 0.003 0.0096
C17 0.024 0.027 0.027 0.0069 0.002 0.0041
C19 0.035 0.03 0.0196 0.006 0.0001 0.0134
C38 0.035 0.032 0.018 0.0038 0.002 0.0156
C40 0.034 0.031 0.0209 0.0046 0.0015 0.0125
C25 0.0192 0.0191 0.0234 0.0107 -0.001 0.0084
C26 0.0163 0.0199 0.0231 0.009 0.0031 0.0099
C28 0.03 0.0257 0.0222 0.0125 0.0096 0.0147
C18 0.035 0.032 0.018 0.0038 0.002 0.0156
C20 0.034 0.031 0.0209 0.0046 0.0015 0.0125
O7 0.0214 0.0199 0.0298 0.0054 0.0008 0.0129
C35 0.02 0.0299 0.0185 0.0036 -0.0034 0.008
N7 0.022 0.024 0.0158 0.0032 -0.0037 0.0084
N8 0.0287 0.0273 0.0173 0.0051 -0.0007 0.0141
C36 0.024 0.033 0.0228 0.0078 0.003 0.0096
C37 0.024 0.027 0.027 0.0069 0.002 0.0041
C39 0.035 0.03 0.0196 0.006 0.0001 0.0134
loop_
_geom_bond_atom_site_label_1
_geom_bond_atom_site_label_2
_geom_bond_site_symmetry_1
_geom_bond_site_symmetry_2
H2 C4 1_555 1_555
O5 C21 1_555 1_555
O6 C21 1_555 1_555
C21 C22 1_555 1_555
C22 C23 1_555 1_555
C23 C4 1_555 1_555
H23 C23 1_555 1_555
Cd7 O5 1_555 1_555
O6 Cd7 1_555 1_555
O4 C5 1_555 1_555
C6 C5 1_555 1_555
C8 C6 1_555 1_555
H4 C8 1_555 1_555
Cd7 O4 1_555 1_555
H25 C27 1_555 1_555
Cd1 O1 1_555 1_555
O1 C1 1_555 1_555
O2 Cd1 1_555 1_555
C1 O2 1_555 1_555
C2 C1 1_555 1_555
C3 C2 1_555 1_555
H1 C3 1_555 1_555
H3 C7 1_555 1_555
N1 Cd1 1_555 1_555
N2 C9 1_555 1_555
C9 N1 1_555 1_555
H5 C9 1_555 1_555
C10 N1 1_555 1_555
H6 C10 1_555 1_555
C11 N2 1_555 1_555
H7 C11 1_555 1_555
C12 N2 1_555 1_555
H8 C12 1_555 1_555
H9 C12 1_555 1_555
C13 C12 1_555 1_555
H10 C13 1_555 1_555
H11 C13 1_555 1_555
C14 C13 1_555 1_555
H12 C14 1_555 1_555
H13 C14 1_555 1_555
C24 C3 1_555 1_555
H24 C24 1_555 1_555
N5 C29 1_555 1_555
N6 C29 1_555 1_555
C29 H27 1_555 1_555
C30 N5 1_555 1_555
H28 C30 1_555 1_555
C31 N6 1_555 1_555
H29 C31 1_555 1_555
C32 N6 1_555 1_555
H30 C32 1_555 1_555
H31 C32 1_555 1_555
C33 C32 1_555 1_555
H32 C33 1_555 1_555
H33 C33 1_555 1_555
C34 C14 1_555 1_555
H34 C34 1_555 1_555
H35 C34 1_555 1_555
Cd7 N5 1_555 1_555
O13 Cd1 1_555 1_555
C10 C11 1_555 1_555
C30 C31 1_555 1_555
C33 C34 1_555 1_555
C15 H14 1_555 1_555
N4 C15 1_555 1_555
C16 N3 1_555 1_555
C17 N4 1_555 1_555
H19 C19 1_555 1_555
H20 C19 1_555 1_555
H39 C38 1_555 1_555
H40 C38 1_555 1_555
H43 C40 1_555 1_555
H44 C40 1_555 1_555
C15 N3 1_555 1_555
C16 C17 1_555 1_555
O13 C25 1_555 1_555
C25 C26 1_555 1_555
H26 C28 1_555 1_555
C26 C28 1_555 1_555
H17 C18 1_555 1_555
H18 C18 1_555 1_555
H21 C20 1_555 1_555
H22 C20 1_555 1_555
C35 H36 1_555 1_555
N7 C35 1_555 1_555
N8 C35 1_555 1_555
C36 N7 1_555 1_555
C37 N8 1_555 1_555
H41 C39 1_555 1_555
H42 C39 1_555 1_555
C36 C37 1_555 1_555

#END
