
###############################################################################
#
# This file contains modified crystal structure data generated from the
# MOF subset of the Cambridge Structural Database (CSD) v543 
# hosted by the Cambridge Crystallographic Data Centre (CCDC).
#
# This work is licensed under the Creative Commons
# Attribution-NonCommercial-ShareAlike 4.0 International License.
# To view a copy of this license, visit
# http://creativecommons.org/licenses/by-nc-sa/4.0/
# or send a letter to
# Creative Commons, PO Box 1866, Mountain View, CA 94042, USA.
#
# CIF created using the CSD Python API on 29 September 2022
# The structure has been converted into the P1 space group
# The structure has a 3D framework
# The original CSD entry EBOTOF is in the orthorhombic crystal system
# The framework has been calculated to contain at least 10.0% void space
# The void calculation uses a probe of radius 1.32A, grid spacing 0.4
# H atom positions have been added when not included in the experimental data
# Generated hydrogen atom positions removed from atoms on special positions
#
###############################################################################

data_EBOTOF
_chemical_formula_moiety         '(C12 H56 Al15 F8 O28 P8)n'
_symmetry_cell_setting           triclinic
_symmetry_space_group_name_H-M   'P 1'
_symmetry_Int_Tables_number      1
_space_group_name_Hall           'P 1'
loop_
_symmetry_equiv_pos_site_id
_symmetry_equiv_pos_as_xyz
1 x,y,z
_cell_length_a                   12.05910(16)
_cell_length_b                   19.1647(4)
_cell_length_c                   4.91142(7)
_cell_angle_alpha                90
_cell_angle_beta                 90
_cell_angle_gamma                90
_cell_volume                     1135.07
loop_
_atom_site_label
_atom_site_type_symbol
_atom_site_fract_x
_atom_site_fract_y
_atom_site_fract_z
_atom_site_U_iso_or_equiv
_atom_site_thermal_displace_type
Al4 Al -0.00000 -0.00000 0.0000 0.0073 Uiso
Al7 Al 0.00000 0.50000 0.0000 0.0073 Uiso
P1 P 0.01543(26) 0.10471(17) 0.5024(8) 0.0073 Uiso
O1 O 0.0030(6) 0.08533(29) 0.2003(10) 0.0148 Uiso
O2 O 0.1424(4) 0.1102(4) 0.5344(15) 0.0148 Uiso
O5 O 0.25000 0.1319(5) 0.0434(20) 0.0148 Uiso
C2 C 0.0124(12) 0.25000 0.4514(32) 0.0148 Uiso
P2 P 0.01543(26) 0.39529(17) 0.5024(8) 0.0073 Uiso
O6 O 0.0030(6) 0.41467(29) 0.2003(10) 0.0148 Uiso
O7 O 0.1424(4) 0.3898(4) 0.5344(15) 0.0148 Uiso
Al3 Al 0.25000 0.06234(32) 0.7337(11) 0.0073 Uiso
Al4_2 Al -0.00000 -0.00000 1.0000 0.0073 Uiso
Al6 Al 0.25000 0.43766(32) 0.7337(11) 0.0073 Uiso
Al7_2 Al 0.00000 0.50000 1.0000 0.0073 Uiso
H1 H 0.0136827 0.25 0.229694 . .
H2 H 0.0971045 0.25 0.528271 . .
F1 F 0.1461(4) 0.01350(31) 0.9263(11) 0.0148 Uiso
F3 F 0.3539(4) 0.01350(31) 0.9263(11) 0.0148 Uiso
O13 O 0.3576(4) 0.1102(4) 0.5344(15) 0.0148 Uiso
Al4_3 Al 0.00000 1.00000 0.0000 0.0073 Uiso
Al4_4 Al -0.00000 1.00000 1.0000 0.0073 Uiso
O11 O 0.0413(5) 0.9508(4) 0.3172(11) 0.0148 Uiso
O4 O 0.25000 0.9872(5) 0.4677(21) 0.0148 Uiso
Al4_5 Al 1.00000 -0.00000 0.0000 0.0073 Uiso
Al7_3 Al 1.00000 0.50000 0.0000 0.0073 Uiso
O3 O 0.9587(5) 0.0492(4) 0.6828(11) 0.0148 Uiso
C1 C 0.9484(7) 0.18758(25) 0.5592(22) 0.0148 Uiso
C3 C 0.9484(7) 0.31242(25) 0.5592(22) 0.0148 Uiso
O8 O 0.9587(5) 0.4508(4) 0.6828(11) 0.0148 Uiso
Al4_6 Al 1.00000 -0.00000 1.0000 0.0073 Uiso
Al7_4 Al 1.00000 0.50000 1.0000 0.0073 Uiso
H5 H 0.937121 0.194342 0.777604 . .
H6 H 0.86774 0.186438 0.459593 . .
H9 H 0.937121 0.305658 0.777604 . .
H10 H 0.86774 0.313562 0.459593 . .
Al4_7 Al 1.00000 1.00000 0.0000 0.0073 Uiso
F2 F 0.8539(4) 0.98650(31) 0.0737(11) 0.0148 Uiso
Al4_8 Al 1.00000 1.00000 1.0000 0.0073 Uiso
Al8 Al 0.75000 0.93766(32) 0.2663(11) 0.0073 Uiso
O9 O 0.9970(6) 0.91467(29) 0.7997(10) 0.0148 Uiso
Al4_9 Al 0.50000 -0.00000 0.0000 0.0073 Uiso
Al7_5 Al 0.50000 0.50000 0.0000 0.0073 Uiso
P1_2 P 0.48457(26) 0.10471(17) 0.5024(8) 0.0073 Uiso
O1_2 O 0.4970(6) 0.08533(29) 0.2003(10) 0.0148 Uiso
O3_2 O 0.5413(5) 0.0492(4) 0.6828(11) 0.0148 Uiso
C1_2 C 0.5516(7) 0.18758(25) 0.5592(22) 0.0148 Uiso
C2_2 C 0.4876(12) 0.25000 0.4514(32) 0.0148 Uiso
C3_2 C 0.5516(7) 0.31242(25) 0.5592(22) 0.0148 Uiso
P2_2 P 0.48457(26) 0.39529(17) 0.5024(8) 0.0073 Uiso
O6_2 O 0.4970(6) 0.41467(29) 0.2003(10) 0.0148 Uiso
O7_2 O 0.3576(4) 0.3898(4) 0.5344(15) 0.0148 Uiso
O8_2 O 0.5413(5) 0.4508(4) 0.6828(11) 0.0148 Uiso
Al4_10 Al 0.50000 -0.00000 1.0000 0.0073 Uiso
Al7_6 Al 0.50000 0.50000 1.0000 0.0073 Uiso
H1_2 H 0.486317 0.25 0.229694 . .
H2_2 H 0.402896 0.25 0.528271 . .
H5_2 H 0.562879 0.194342 0.777604 . .
H6_2 H 0.63226 0.186438 0.459593 . .
H9_2 H 0.562879 0.305658 0.777604 . .
H10_2 H 0.63226 0.313562 0.459593 . .
Al4_11 Al 0.50000 1.00000 0.0000 0.0073 Uiso
F2_2 F 0.6461(4) 0.98650(31) 0.0737(11) 0.0148 Uiso
Al4_12 Al 0.50000 1.00000 1.0000 0.0073 Uiso
O11_2 O 0.4587(5) 0.9508(4) 0.3172(11) 0.0148 Uiso
O9_2 O 0.5030(6) 0.91467(29) 0.7997(10) 0.0148 Uiso
O5_2 O 0.25000 0.3681(5) 0.0434(20) 0.0148 Uiso
O11_3 O 0.0413(5) 0.5492(4) 0.3172(11) 0.0148 Uiso
F1_2 F 0.1461(4) 0.48650(31) 0.9263(11) 0.0148 Uiso
O4_2 O 0.25000 0.5128(5) 0.4677(21) 0.0148 Uiso
F3_2 F 0.3539(4) 0.48650(31) 0.9263(11) 0.0148 Uiso
F2_3 F 0.8539(4) 0.51350(31) 0.0737(11) 0.0148 Uiso
Al8_2 Al 0.75000 0.56234(32) 0.2663(11) 0.0073 Uiso
O9_3 O 0.9970(6) 0.58533(29) 0.7997(10) 0.0148 Uiso
F1_3 F 0.6461(4) 0.51350(31) 0.0737(11) 0.0148 Uiso
O4_3 O 0.75000 0.4872(5) 0.5323(21) 0.0148 Uiso
O10 O 0.4587(5) 0.5492(4) 0.3172(11) 0.0148 Uiso
O12 O 0.6424(4) 0.6102(4) 0.4656(15) 0.0148 Uiso
O13_2 O 0.8576(4) 0.6102(4) 0.4656(15) 0.0148 Uiso
P1_3 P 0.51543(26) 0.60471(17) 0.4976(8) 0.0073 Uiso
O1_3 O 0.5030(6) 0.58533(29) 0.7997(10) 0.0148 Uiso
O5_3 O 0.75000 0.6319(5) 0.9566(20) 0.0148 Uiso
C1_3 C 0.4484(7) 0.68758(25) 0.4408(22) 0.0148 Uiso
C2_3 C 0.5124(12) 0.75000 0.5486(32) 0.0148 Uiso
C3_3 C 0.4484(7) 0.81242(25) 0.4408(22) 0.0148 Uiso
P2_3 P 0.51543(26) 0.89529(17) 0.4976(8) 0.0073 Uiso
O7_3 O 0.6424(4) 0.8898(4) 0.4656(15) 0.0148 Uiso
H1_3 H 0.513683 0.75 0.770306 . .
H2_3 H 0.597104 0.75 0.471729 . .
H5_3 H 0.437121 0.694342 0.222396 . .
H6_3 H 0.36774 0.686438 0.540407 . .
H9_3 H 0.437121 0.805658 0.222396 . .
H10_3 H 0.36774 0.813562 0.540407 . .
C1_4 C 0.0516(7) 0.81242(25) 0.4408(22) 0.0148 Uiso
C3_4 C 0.0516(7) 0.68758(25) 0.4408(22) 0.0148 Uiso
H5_4 H 0.0628787 0.805658 0.222396 . .
H6_4 H 0.13226 0.813562 0.540407 . .
H9_4 H 0.0628787 0.694342 0.222396 . .
H10_4 H 0.13226 0.686438 0.540407 . .
O4_4 O 0.75000 0.0128(5) 0.5323(21) 0.0148 Uiso
O12_2 O 0.8576(4) 0.8898(4) 0.4656(15) 0.0148 Uiso
P1_4 P 0.98457(26) 0.89529(17) 0.4976(8) 0.0073 Uiso
O5_4 O 0.75000 0.8681(5) 0.9566(20) 0.0148 Uiso
C2_4 C 0.9876(12) 0.75000 0.5486(32) 0.0148 Uiso
P2_4 P 0.98457(26) 0.60471(17) 0.4976(8) 0.0073 Uiso
H1_4 H 0.986317 0.75 0.770306 . .
H2_4 H 0.902896 0.75 0.471729 . .
loop_
_geom_bond_atom_site_label_1
_geom_bond_atom_site_label_2
_geom_bond_site_symmetry_1
_geom_bond_site_symmetry_2
P1 O1 1_555 1_555
O1 Al4 1_555 1_555
O2 P1 1_555 1_555
O6 P2 1_555 1_555
O7 P2 1_555 1_555
Al3 O2 1_555 1_555
Al7 O6 1_555 1_555
Al6 O7 1_555 1_555
C2 H1 1_555 1_555
C2 H2 1_555 1_555
F1 Al4_2 1_555 1_555
Al3 F1 1_555 1_555
F3 Al3 1_555 1_555
O13 Al3 1_555 1_555
O11 Al4_3 1_555 1_555
Al4_6 O3 1_555 1_555
Al7_4 O8 1_555 1_555
C1 H5 1_555 1_555
C1 H6 1_555 1_555
C3 H9 1_555 1_555
C3 H10 1_555 1_555
Al4_7 F2 1_555 1_555
F2 Al8 1_555 1_555
O9 Al4_8 1_555 1_555
P1_2 O1_2 1_555 1_555
O1_2 Al4_9 1_555 1_555
O13 P1_2 1_555 1_555
O3_2 P1_2 1_555 1_555
C1_2 P1_2 1_555 1_555
C2_2 C1_2 1_555 1_555
C3_2 C2_2 1_555 1_555
P2_2 C3_2 1_555 1_555
O6_2 P2_2 1_555 1_555
O7_2 P2_2 1_555 1_555
O8_2 P2_2 1_555 1_555
Al4_10 O3_2 1_555 1_555
Al7_5 O6_2 1_555 1_555
Al6 O7_2 1_555 1_555
Al7_6 O8_2 1_555 1_555
C2_2 H1_2 1_555 1_555
C2_2 H2_2 1_555 1_555
C1_2 H5_2 1_555 1_555
C1_2 H6_2 1_555 1_555
C3_2 H9_2 1_555 1_555
C3_2 H10_2 1_555 1_555
F3 Al4_10 1_555 1_555
Al4_11 F2_2 1_555 1_555
F2_2 Al8 1_555 1_555
O11_2 Al4_11 1_555 1_555
O9_2 Al4_12 1_555 1_555
O11_3 Al7 1_555 1_555
F1_2 Al7_2 1_555 1_555
O4_2 Al6 1_555 1_555
Al6 F1_2 1_555 1_555
F3_2 Al6 1_555 1_555
Al7_3 F2_3 1_555 1_555
F2_3 Al8_2 1_555 1_555
O9_3 Al7_4 1_555 1_555
F1_3 Al7_5 1_555 1_555
O4_3 Al8_2 1_555 1_555
Al8_2 F1_3 1_555 1_555
O10 Al7_5 1_555 1_555
O12 Al8_2 1_555 1_555
O13_2 Al8_2 1_555 1_555
P1_3 O1_3 1_555 1_555
O1_3 Al7_6 1_555 1_555
O12 P1_3 1_555 1_555
O10 P1_3 1_555 1_555
C1_3 P1_3 1_555 1_555
C2_3 C1_3 1_555 1_555
Al7_6 F3_2 1_555 1_555
C3_3 C2_3 1_555 1_555
P2_3 C3_3 1_555 1_555
O9_2 P2_3 1_555 1_555
O7_3 P2_3 1_555 1_555
O11_2 P2_3 1_555 1_555
Al8 O7_3 1_555 1_555
C2_3 H1_3 1_555 1_555
C2_3 H2_3 1_555 1_555
C1_3 H5_3 1_555 1_555
C1_3 H6_3 1_555 1_555
C3_3 H9_3 1_555 1_555
C3_3 H10_3 1_555 1_555
C1_4 H5_4 1_555 1_555
C1_4 H6_4 1_555 1_555
C3_4 H9_4 1_555 1_555
C3_4 H10_4 1_555 1_555
O12_2 Al8 1_555 1_555
P1_4 O9 1_555 1_555
O12_2 P1_4 1_555 1_555
O9_3 P2_4 1_555 1_555
O13_2 P2_4 1_555 1_555
C2_4 H1_4 1_555 1_555
C2_4 H2_4 1_555 1_555

#END
