
###############################################################################
#
# This file contains modified crystal structure data generated from the
# MOF subset of the Cambridge Structural Database (CSD) v543 
# hosted by the Cambridge Crystallographic Data Centre (CCDC).
#
# This work is licensed under the Creative Commons
# Attribution-NonCommercial-ShareAlike 4.0 International License.
# To view a copy of this license, visit
# http://creativecommons.org/licenses/by-nc-sa/4.0/
# or send a letter to
# Creative Commons, PO Box 1866, Mountain View, CA 94042, USA.
#
# CIF created using the CSD Python API on 29 September 2022
# The structure has been converted into the P1 space group
# The structure has a 3D framework
# The original CSD entry EBUREA is in the monoclinic crystal system
# The framework has been calculated to contain at least 10.0% void space
# The void calculation uses a probe of radius 1.32A, grid spacing 0.4
# H atom positions have been added when not included in the experimental data
#
###############################################################################

data_EBUREA
_chemical_formula_moiety         '(C120 H88 Mn12 N16 O65)n'
_symmetry_cell_setting           triclinic
_symmetry_space_group_name_H-M   'P 1'
_symmetry_Int_Tables_number      1
_space_group_name_Hall           'P 1'
loop_
_symmetry_equiv_pos_site_id
_symmetry_equiv_pos_as_xyz
1 x,y,z
_cell_length_a                   30.3206(18)
_cell_length_b                   7.2470(3)
_cell_length_c                   19.3370(9)
_cell_angle_alpha                90
_cell_angle_beta                 106.844(2)
_cell_angle_gamma                90
_cell_volume                     4066.69
loop_
_atom_site_label
_atom_site_type_symbol
_atom_site_fract_x
_atom_site_fract_y
_atom_site_fract_z
O15 O 0.16862(19) 0.0508(8) 0.0276(3)
O19 O 0.24939(18) 0.2963(7) 0.0138(3)
H16 H 0.178225 0.147804 0.0652454
Mn2 Mn 0.20797(4) 0.07859(14) 0.95095(5)
Mn3 Mn 0.21546(4) 0.61527(14) 0.76928(5)
C9 C 0.0096(2) 0.0306(9) 0.7847(4)
C10 C 0.0363(3) 0.0008(12) 0.8539(4)
H4 H 0.0244 0.0200 0.8925
C15 C 0.0270(3) 0.0059(11) 0.7244(4)
H7 H 0.0087 0.0279 0.6775
C16 C 0.1513(2) 0.3508(9) 0.8315(4)
C17 C 0.1034(2) 0.4195(9) 0.7978(4)
C18 C 0.0865(3) 0.4497(10) 0.7226(4)
H8 H 0.1059 0.4328 0.6938
C19 C 0.0418(3) 0.5035(10) 0.6916(4)
H9 H 0.0311 0.5215 0.6419
C20 C 0.0121(3) 0.5314(9) 0.7342(4)
C21 C 0.0281(2) 0.5017(10) 0.8093(4)
H10 H 0.0085 0.5196 0.8379
C22 C 0.0735(3) 0.4451(11) 0.8407(4)
H11 H 0.0841 0.4242 0.8902
O7 O 0.15936(18) 0.2772(7) 0.8928(3)
O8 O 0.18054(17) 0.3618(7) 0.7960(3)
O16 O 0.2510(2) 0.6234(7) 0.8840(3)
O17 O 0.1780(2) 0.6102(8) 0.6533(3)
O18 O 0.26083(18) 0.8628(6) 0.7680(3)
O21 O 0.16234(19) 0.8079(8) 0.7692(3)
O24 O 0.25803(19) 0.4246(7) 0.7369(3)
O25 O 0.24517(18) 0.1193(6) 0.8626(3)
H19 H 0.268862 0.507746 0.898421
H20 H 0.272297 0.730619 0.89461
H21 H 0.144399 0.620664 0.646915
H22 H 0.188233 0.715264 0.62878
O23 O 0.25682(19) 0.8771(7) 0.0086(3)
H15 H 0.174294 0.927227 0.0506662
C11 C 0.0814(3) 0.9416(11) 0.8660(5)
H5 H 0.0993 0.9164 0.9129
C12 C 0.1001(3) 0.9195(10) 0.8091(4)
C13 C 0.1494(3) 0.8525(9) 0.8242(4)
C14 C 0.0725(3) 0.9477(10) 0.7383(4)
H6 H 0.0847 0.9274 0.6999
O6 O 0.17380(18) 0.8460(7) 0.8873(2)
Mn9 Mn 0.71546(4) 0.11527(14) 0.76928(5)
Mn1 Mn 0.82317(4) 0.66192(13) 0.91008(5)
C1 C 0.8040(3) 0.3641(9) 0.7839(4)
C2 C 0.8265(3) 0.2792(9) 0.7303(4)
C3 C 0.8734(2) 0.2390(9) 0.7507(4)
H1 H 0.8917 0.2602 0.7977
C4 C 0.8926(3) 0.1651(10) 0.6980(4)
C5 C 0.8670(2) 0.1447(10) 0.6286(4)
H2 H 0.8807 0.1042 0.5942
C6 C 0.8196(3) 0.1841(9) 0.6081(4)
C7 C 0.7918(3) 0.1634(9) 0.5308(4)
C8 C 0.7993(2) 0.2478(8) 0.6590(3)
H3 H 0.7678 0.2698 0.6460
C23 C 0.8958(3) 0.6644(9) 0.7053(4)
C24 C 0.8724(2) 0.6235(9) 0.6320(4)
H12 H 0.8883 0.5705 0.6026
C25 C 0.8248(2) 0.6635(9) 0.6038(4)
C26 C 0.8000(3) 0.5995(9) 0.5306(4)
C27 C 0.8016(2) 0.7447(10) 0.6478(4)
H13 H 0.7705 0.7723 0.6291
C28 C 0.8242(2) 0.7854(9) 0.7196(4)
C29 C 0.7986(3) 0.8704(8) 0.7678(3)
C30 C 0.8709(2) 0.7433(9) 0.7487(3)
H14 H 0.8856 0.7677 0.7972
N1 N 0.9403(2) 0.1202(8) 0.7114(3)
N2 N 0.9619(2) 0.0835(8) 0.7749(3)
N3 N 0.9661(2) 0.5863(8) 0.6983(4)
N4 N 0.9422(2) 0.6222(8) 0.7389(3)
O1 O 0.83087(18) 0.4336(7) 0.8408(3)
O2 O 0.76083(18) 0.3628(6) 0.7680(3)
O3 O 0.74939(18) 0.2037(7) 0.5138(3)
O4 O 0.81157(18) 0.1127(6) 0.4836(2)
O9 O 0.82291(19) 0.5217(7) 0.4936(3)
O10 O 0.75682(19) 0.6229(7) 0.5086(3)
O11 O 0.75803(19) 0.9246(7) 0.7369(3)
O12 O 0.81799(19) 0.8780(6) 0.8351(3)
O13 O 0.74517(18) 0.6193(6) 0.8626(3)
O14 O 0.8974(2) 0.6845(8) 0.9531(3)
Mn4 Mn 0.82317(4) 0.33808(13) 0.41008(5)
Mn5 Mn 0.70797(4) 0.42141(14) 0.45095(5)
Mn6 Mn 0.70797(4) 0.57859(14) 0.95095(5)
O20 O 0.81157(18) 0.8873(6) 0.9836(2)
O22 O 0.82291(19) 0.4783(7) 0.9936(3)
H17 H 0.910924 0.711646 0.913183
H18 H 0.905146 0.785754 0.989207
C11_2 C 0.0814(3) 0.0584(11) 0.3660(5)
H5_2 H 0.0993 0.0836 0.4129
C12_2 C 0.1001(3) 0.0805(10) 0.3091(4)
C13_2 C 0.1494(3) 0.1475(9) 0.3242(4)
C14_2 C 0.0725(3) 0.0523(10) 0.2383(4)
H6_2 H 0.0847 0.0726 0.1999
O5 O 0.16234(19) 0.1921(8) 0.2692(3)
O6_2 O 0.17380(18) 0.1540(7) 0.3873(2)
Mn8 Mn 0.21546(4) 0.38473(14) 0.26928(5)
O23_2 O 0.25682(19) 0.1229(7) 0.5086(3)
H15_2 H 0.174294 0.0727728 0.550666
Mn2_2 Mn 0.20797(4) 0.92141(14) 0.45095(5)
C9_2 C 0.0096(2) 0.9694(9) 0.2847(4)
C10_2 C 0.0363(3) 0.9992(12) 0.3539(4)
H4_2 H 0.0244 0.9800 0.3925
C15_2 C 0.0270(3) 0.9941(11) 0.2244(4)
H7_2 H 0.0087 0.9721 0.1775
C16_2 C 0.1513(2) 0.6492(9) 0.3315(4)
C17_2 C 0.1034(2) 0.5805(9) 0.2978(4)
C18_2 C 0.0865(3) 0.5503(10) 0.2226(4)
H8_2 H 0.1059 0.5672 0.1938
C19_2 C 0.0418(3) 0.4965(10) 0.1916(4)
H9_2 H 0.0311 0.4785 0.1419
C20_2 C 0.0121(3) 0.4686(9) 0.2342(4)
C21_2 C 0.0281(2) 0.4983(10) 0.3093(4)
H10_2 H 0.0085 0.4804 0.3379
C22_2 C 0.0735(3) 0.5549(11) 0.3407(4)
H11_2 H 0.0841 0.5758 0.3902
O7_2 O 0.15936(18) 0.7228(7) 0.3928(3)
O8_2 O 0.18054(17) 0.6382(7) 0.2960(3)
O15_2 O 0.16862(19) 0.9492(8) 0.5276(3)
O16_2 O 0.2510(2) 0.3766(7) 0.3840(3)
O17_2 O 0.1780(2) 0.3898(8) 0.1533(3)
O18_2 O 0.26083(18) 0.1372(6) 0.2680(3)
O19_2 O 0.24939(18) 0.7037(7) 0.5138(3)
O24_2 O 0.25803(19) 0.5754(7) 0.2369(3)
O25_2 O 0.24517(18) 0.8807(6) 0.3626(3)
H16_2 H 0.178225 0.852196 0.565245
H19_2 H 0.268862 0.492254 0.398421
H20_2 H 0.272297 0.269381 0.39461
H21_2 H 0.144399 0.379336 0.146915
H22_2 H 0.188233 0.284736 0.12878
C1_2 C 0.8040(3) 0.6359(9) 0.2839(4)
C2_2 C 0.8265(3) 0.7208(9) 0.2303(4)
C3_2 C 0.8734(2) 0.7610(9) 0.2507(4)
H1_2 H 0.8917 0.7398 0.2977
C4_2 C 0.8926(3) 0.8349(10) 0.1980(4)
C5_2 C 0.8670(2) 0.8553(10) 0.1286(4)
H2_2 H 0.8807 0.8958 0.0942
C6_2 C 0.8196(3) 0.8159(9) 0.1081(4)
C7_2 C 0.7918(3) 0.8366(9) 0.0308(4)
C8_2 C 0.7993(2) 0.7522(8) 0.1590(3)
H3_2 H 0.7678 0.7302 0.1460
C23_2 C 0.8958(3) 0.3356(9) 0.2053(4)
C24_2 C 0.8724(2) 0.3765(9) 0.1320(4)
H12_2 H 0.8883 0.4295 0.1026
C25_2 C 0.8248(2) 0.3365(9) 0.1038(4)
C26_2 C 0.8000(3) 0.4005(9) 0.0306(4)
C27_2 C 0.8016(2) 0.2553(10) 0.1478(4)
H13_2 H 0.7705 0.2277 0.1291
C28_2 C 0.8242(2) 0.2146(9) 0.2196(4)
C29_2 C 0.7986(3) 0.1296(8) 0.2678(3)
C30_2 C 0.8709(2) 0.2567(9) 0.2487(3)
H14_2 H 0.8856 0.2323 0.2972
N1_2 N 0.9403(2) 0.8798(8) 0.2114(3)
N2_2 N 0.9619(2) 0.9165(8) 0.2749(3)
N3_2 N 0.9661(2) 0.4137(8) 0.1983(4)
N4_2 N 0.9422(2) 0.3778(8) 0.2389(3)
O1_2 O 0.83087(18) 0.5664(7) 0.3408(3)
O2_2 O 0.76083(18) 0.6372(6) 0.2680(3)
O3_2 O 0.74939(18) 0.7963(7) 0.0138(3)
O10_2 O 0.75682(19) 0.3771(7) 0.0086(3)
O11_2 O 0.75803(19) 0.0754(7) 0.2369(3)
O12_2 O 0.81799(19) 0.1220(6) 0.3351(3)
O13_2 O 0.74517(18) 0.3807(6) 0.3626(3)
O14_2 O 0.8974(2) 0.3155(8) 0.4531(3)
Mn7 Mn 0.71546(4) 0.88473(14) 0.26928(5)
H17_2 H 0.910924 0.288354 0.413183
H18_2 H 0.905146 0.214246 0.489207
Mn1_2 Mn 0.32317(4) 0.16192(13) 0.91008(5)
C19_3 C 0.5418(3) 0.0035(10) 0.6916(4)
H9_3 H 0.5311 0.0215 0.6419
C20_3 C 0.5121(3) 0.0314(9) 0.7342(4)
C21_3 C 0.5281(2) 0.0017(10) 0.8093(4)
H10_3 H 0.5085 0.0196 0.8379
C23_3 C 0.3958(3) 0.1644(9) 0.7053(4)
C24_3 C 0.3724(2) 0.1235(9) 0.6320(4)
H12_3 H 0.3883 0.0705 0.6026
C25_3 C 0.3248(2) 0.1635(9) 0.6038(4)
C26_3 C 0.3000(3) 0.0995(9) 0.5306(4)
C27_3 C 0.3016(2) 0.2447(10) 0.6478(4)
H13_3 H 0.2705 0.2723 0.6291
C28_3 C 0.3242(2) 0.2854(9) 0.7196(4)
C29_3 C 0.2986(3) 0.3704(8) 0.7678(3)
C30_3 C 0.3709(2) 0.2433(9) 0.7487(3)
H14_3 H 0.3856 0.2677 0.7972
N3_3 N 0.4661(2) 0.0863(8) 0.6983(4)
N4_3 N 0.4422(2) 0.1222(8) 0.7389(3)
O9_2 O 0.32291(19) 0.0217(7) 0.4936(3)
O12_3 O 0.31799(19) 0.3780(6) 0.8351(3)
O14_3 O 0.3974(2) 0.1845(8) 0.9531(3)
O16_3 O 0.7510(2) 0.1234(7) 0.8840(3)
O17_3 O 0.6780(2) 0.1102(8) 0.6533(3)
O20_2 O 0.31157(18) 0.3873(6) 0.9836(2)
O21_2 O 0.66234(19) 0.3079(8) 0.7692(3)
H17_3 H 0.410924 0.211646 0.913183
H18_3 H 0.405146 0.285754 0.989207
H19_3 H 0.768862 0.00774585 0.898421
H20_3 H 0.772297 0.230619 0.89461
H21_3 H 0.644399 0.120664 0.646915
H22_3 H 0.688233 0.215264 0.62878
O15_3 O 0.66862(19) 0.5508(8) 0.0276(3)
H15_3 H 0.674294 0.427227 0.0506662
H16_3 H 0.678225 0.647804 0.0652454
C1_3 C 0.3040(3) 0.8641(9) 0.7839(4)
C2_3 C 0.3265(3) 0.7792(9) 0.7303(4)
C3_3 C 0.3734(2) 0.7390(9) 0.7507(4)
H1_3 H 0.3917 0.7602 0.7977
C4_3 C 0.3926(3) 0.6651(10) 0.6980(4)
C5_3 C 0.3670(2) 0.6447(10) 0.6286(4)
H2_3 H 0.3807 0.6042 0.5942
C6_3 C 0.3196(3) 0.6841(9) 0.6081(4)
C7_3 C 0.2918(3) 0.6634(9) 0.5308(4)
C8_3 C 0.2993(2) 0.7478(8) 0.6590(3)
H3_3 H 0.2678 0.7698 0.6460
C9_3 C 0.5096(2) 0.5306(9) 0.7847(4)
C10_3 C 0.5363(3) 0.5008(12) 0.8539(4)
H4_3 H 0.5244 0.5200 0.8925
C11_3 C 0.5814(3) 0.4416(11) 0.8660(5)
H5_3 H 0.5993 0.4164 0.9129
C12_3 C 0.6001(3) 0.4195(10) 0.8091(4)
C13_3 C 0.6494(3) 0.3525(9) 0.8242(4)
C14_3 C 0.5725(3) 0.4477(10) 0.7383(4)
H6_3 H 0.5847 0.4274 0.6999
C15_3 C 0.5270(3) 0.5059(11) 0.7244(4)
H7_3 H 0.5087 0.5279 0.6775
C16_3 C 0.6513(2) 0.8508(9) 0.8315(4)
C17_3 C 0.6034(2) 0.9195(9) 0.7978(4)
C18_3 C 0.5865(3) 0.9497(10) 0.7226(4)
H8_3 H 0.6059 0.9328 0.6938
C22_3 C 0.5735(3) 0.9451(11) 0.8407(4)
H11_3 H 0.5841 0.9242 0.8902
N1_3 N 0.4403(2) 0.6202(8) 0.7114(3)
N2_3 N 0.4619(2) 0.5835(8) 0.7749(3)
O1_3 O 0.33087(18) 0.9336(7) 0.8408(3)
O4_2 O 0.31157(18) 0.6127(6) 0.4836(2)
O6_3 O 0.67380(18) 0.3460(7) 0.8873(2)
O7_3 O 0.65936(18) 0.7772(7) 0.8928(3)
O8_3 O 0.68054(17) 0.8618(7) 0.7960(3)
Mn4_2 Mn 0.32317(4) 0.83808(13) 0.41008(5)
O22_2 O 0.32291(19) 0.9783(7) 0.9936(3)
C1_4 C 0.3040(3) 0.1359(9) 0.2839(4)
C2_4 C 0.3265(3) 0.2208(9) 0.2303(4)
C3_4 C 0.3734(2) 0.2610(9) 0.2507(4)
H1_4 H 0.3917 0.2398 0.2977
C4_4 C 0.3926(3) 0.3349(10) 0.1980(4)
C5_4 C 0.3670(2) 0.3553(10) 0.1286(4)
H2_4 H 0.3807 0.3958 0.0942
C6_4 C 0.3196(3) 0.3159(9) 0.1081(4)
C7_4 C 0.2918(3) 0.3366(9) 0.0308(4)
C8_4 C 0.2993(2) 0.2522(8) 0.1590(3)
H3_4 H 0.2678 0.2302 0.1460
C9_4 C 0.5096(2) 0.4694(9) 0.2847(4)
C10_4 C 0.5363(3) 0.4992(12) 0.3539(4)
H4_4 H 0.5244 0.4800 0.3925
C11_4 C 0.5814(3) 0.5584(11) 0.3660(5)
H5_4 H 0.5993 0.5836 0.4129
C12_4 C 0.6001(3) 0.5805(10) 0.3091(4)
C13_4 C 0.6494(3) 0.6475(9) 0.3242(4)
C14_4 C 0.5725(3) 0.5523(10) 0.2383(4)
H6_4 H 0.5847 0.5726 0.1999
C15_4 C 0.5270(3) 0.4941(11) 0.2244(4)
H7_4 H 0.5087 0.4721 0.1775
C16_4 C 0.6513(2) 0.1492(9) 0.3315(4)
C17_4 C 0.6034(2) 0.0805(9) 0.2978(4)
C18_4 C 0.5865(3) 0.0503(10) 0.2226(4)
H8_4 H 0.6059 0.0672 0.1938
C22_4 C 0.5735(3) 0.0549(11) 0.3407(4)
H11_4 H 0.5841 0.0758 0.3902
N1_4 N 0.4403(2) 0.3798(8) 0.2114(3)
N2_4 N 0.4619(2) 0.4165(8) 0.2749(3)
O1_4 O 0.33087(18) 0.0664(7) 0.3408(3)
O5_2 O 0.66234(19) 0.6921(8) 0.2692(3)
O6_4 O 0.67380(18) 0.6540(7) 0.3873(2)
O7_4 O 0.65936(18) 0.2228(7) 0.3928(3)
O8_4 O 0.68054(17) 0.1382(7) 0.2960(3)
O15_4 O 0.66862(19) 0.4492(8) 0.5276(3)
H15_4 H 0.674294 0.572773 0.550666
H16_4 H 0.678225 0.352196 0.565245
C19_4 C 0.5418(3) 0.9965(10) 0.1916(4)
H9_4 H 0.5311 0.9785 0.1419
C20_4 C 0.5121(3) 0.9686(9) 0.2342(4)
C21_4 C 0.5281(2) 0.9983(10) 0.3093(4)
H10_4 H 0.5085 0.9804 0.3379
C23_4 C 0.3958(3) 0.8356(9) 0.2053(4)
C24_4 C 0.3724(2) 0.8765(9) 0.1320(4)
H12_4 H 0.3883 0.9295 0.1026
C25_4 C 0.3248(2) 0.8365(9) 0.1038(4)
C26_4 C 0.3000(3) 0.9005(9) 0.0306(4)
C27_4 C 0.3016(2) 0.7553(10) 0.1478(4)
H13_4 H 0.2705 0.7277 0.1291
C28_4 C 0.3242(2) 0.7146(9) 0.2196(4)
C29_4 C 0.2986(3) 0.6296(8) 0.2678(3)
C30_4 C 0.3709(2) 0.7567(9) 0.2487(3)
H14_4 H 0.3856 0.7323 0.2972
N3_4 N 0.4661(2) 0.9137(8) 0.1983(4)
N4_4 N 0.4422(2) 0.8778(8) 0.2389(3)
O12_4 O 0.31799(19) 0.6220(6) 0.3351(3)
O14_4 O 0.3974(2) 0.8155(8) 0.4531(3)
O16_4 O 0.7510(2) 0.8766(7) 0.3840(3)
O17_4 O 0.6780(2) 0.8898(8) 0.1533(3)
H17_4 H 0.410924 0.788354 0.413183
H18_4 H 0.405146 0.714246 0.489207
H19_4 H 0.768862 0.992254 0.398421
H20_4 H 0.772297 0.769381 0.39461
H21_4 H 0.644399 0.879336 0.146915
H22_4 H 0.688233 0.784736 0.12878
loop_
_geom_bond_atom_site_label_1
_geom_bond_atom_site_label_2
_geom_bond_site_symmetry_1
_geom_bond_site_symmetry_2
O15 H16 1_555 1_555
Mn3 O8 1_555 1_555
C9 C10 1_555 1_555
C10 H4 1_555 1_555
C15 C9 1_555 1_555
H7 C15 1_555 1_555
C16 C17 1_555 1_555
C17 C18 1_555 1_555
C18 H8 1_555 1_555
C19 C18 1_555 1_555
H9 C19 1_555 1_555
C20 C19 1_555 1_555
C21 C20 1_555 1_555
H10 C21 1_555 1_555
C22 C17 1_555 1_555
H11 C22 1_555 1_555
O7 Mn2 1_555 1_555
O8 C16 1_555 1_555
O16 Mn3 1_555 1_555
O17 Mn3 1_555 1_555
O18 Mn3 1_555 1_555
O21 Mn3 1_555 1_555
O24 Mn3 1_555 1_555
O25 Mn2 1_555 1_555
C16 O7 1_555 1_555
C21 C22 1_555 1_555
O16 H19 1_555 1_555
O16 H20 1_555 1_555
O17 H21 1_555 1_555
O17 H22 1_555 1_555
H5 C11 1_555 1_555
C12 C11 1_555 1_555
C13 C12 1_555 1_555
C14 C12 1_555 1_555
H6 C14 1_555 1_555
O21 C13 1_555 1_555
O6 C13 1_555 1_555
Mn1 O1 1_555 1_555
C1 C2 1_555 1_555
C2 C3 1_555 1_555
C3 H1 1_555 1_555
C4 C3 1_555 1_555
C5 C4 1_555 1_555
H2 C5 1_555 1_555
C6 C5 1_555 1_555
C7 C6 1_555 1_555
C8 C2 1_555 1_555
H3 C8 1_555 1_555
C23 C24 1_555 1_555
C24 H12 1_555 1_555
C25 C24 1_555 1_555
C26 C25 1_555 1_555
C27 C25 1_555 1_555
H13 C27 1_555 1_555
C28 C27 1_555 1_555
C29 C28 1_555 1_555
C30 C23 1_555 1_555
H14 C30 1_555 1_555
N1 C4 1_555 1_555
N4 C23 1_555 1_555
O1 C1 1_555 1_555
O2 C1 1_555 1_555
O3 C7 1_555 1_555
O4 C7 1_555 1_555
O9 C26 1_555 1_555
O10 C26 1_555 1_555
O11 C29 1_555 1_555
O12 Mn1 1_555 1_555
O13 Mn1 1_555 1_555
O14 Mn1 1_555 1_555
Mn4 O4 1_555 1_555
Mn5 O3 1_555 1_555
Mn6 O13 1_555 1_555
Mn9 O2 1_555 1_555
O20 Mn1 1_555 1_555
O22 Mn1 1_555 1_555
C6 C8 1_555 1_555
C28 C30 1_555 1_555
C29 O12 1_555 1_555
N1 N2 1_555 1_555
N3 N4 1_555 1_555
O9 Mn4 1_555 1_555
O10 Mn5 1_555 1_555
O14 H17 1_555 1_555
O14 H18 1_555 1_555
H5_2 C11_2 1_555 1_555
C12_2 C11_2 1_555 1_555
C13_2 C12_2 1_555 1_555
C14_2 C12_2 1_555 1_555
H6_2 C14_2 1_555 1_555
O5 C13_2 1_555 1_555
O6_2 C13_2 1_555 1_555
Mn8 O5 1_555 1_555
Mn8 O8_2 1_555 1_555
C9_2 C10_2 1_555 1_555
C10_2 H4_2 1_555 1_555
C15_2 C9_2 1_555 1_555
H7_2 C15_2 1_555 1_555
C16_2 C17_2 1_555 1_555
C17_2 C18_2 1_555 1_555
C18_2 H8_2 1_555 1_555
C19_2 C18_2 1_555 1_555
H9_2 C19_2 1_555 1_555
C20_2 C19_2 1_555 1_555
C21_2 C20_2 1_555 1_555
H10_2 C21_2 1_555 1_555
C22_2 C17_2 1_555 1_555
H11_2 C22_2 1_555 1_555
O7_2 Mn2_2 1_555 1_555
O8_2 C16_2 1_555 1_555
O15_2 Mn2_2 1_555 1_555
O16_2 Mn8 1_555 1_555
O17_2 Mn8 1_555 1_555
O18_2 Mn8 1_555 1_555
O19_2 Mn2_2 1_555 1_555
O24_2 Mn8 1_555 1_555
O25_2 Mn2_2 1_555 1_555
C16_2 O7_2 1_555 1_555
C21_2 C22_2 1_555 1_555
O15_2 H16_2 1_555 1_555
O16_2 H19_2 1_555 1_555
O16_2 H20_2 1_555 1_555
O17_2 H21_2 1_555 1_555
O17_2 H22_2 1_555 1_555
Mn4 O1_2 1_555 1_555
C1_2 C2_2 1_555 1_555
C2_2 C3_2 1_555 1_555
C3_2 H1_2 1_555 1_555
C4_2 C3_2 1_555 1_555
C5_2 C4_2 1_555 1_555
H2_2 C5_2 1_555 1_555
C6_2 C5_2 1_555 1_555
C7_2 C6_2 1_555 1_555
C8_2 C2_2 1_555 1_555
H3_2 C8_2 1_555 1_555
C23_2 C24_2 1_555 1_555
C24_2 H12_2 1_555 1_555
C25_2 C24_2 1_555 1_555
C26_2 C25_2 1_555 1_555
C27_2 C25_2 1_555 1_555
H13_2 C27_2 1_555 1_555
C28_2 C27_2 1_555 1_555
C29_2 C28_2 1_555 1_555
C30_2 C23_2 1_555 1_555
H14_2 C30_2 1_555 1_555
N1_2 C4_2 1_555 1_555
N4_2 C23_2 1_555 1_555
O1_2 C1_2 1_555 1_555
O2_2 C1_2 1_555 1_555
O3_2 C7_2 1_555 1_555
O10_2 C26_2 1_555 1_555
O11_2 C29_2 1_555 1_555
O12_2 Mn4 1_555 1_555
O13_2 Mn4 1_555 1_555
O14_2 Mn4 1_555 1_555
Mn5 O13_2 1_555 1_555
Mn7 O2_2 1_555 1_555
C6_2 C8_2 1_555 1_555
C28_2 C30_2 1_555 1_555
C29_2 O12_2 1_555 1_555
N1_2 N2_2 1_555 1_555
N3_2 N4_2 1_555 1_555
O14_2 H17_2 1_555 1_555
O14_2 H18_2 1_555 1_555
H9_3 C19_3 1_555 1_555
C20_3 C19_3 1_555 1_555
C21_3 C20_3 1_555 1_555
H10_3 C21_3 1_555 1_555
C23_3 C24_3 1_555 1_555
C24_3 H12_3 1_555 1_555
C25_3 C24_3 1_555 1_555
C26_3 C25_3 1_555 1_555
C27_3 C25_3 1_555 1_555
H13_3 C27_3 1_555 1_555
C28_3 C27_3 1_555 1_555
C29_3 C28_3 1_555 1_555
C30_3 C23_3 1_555 1_555
H14_3 C30_3 1_555 1_555
N3_3 C20_3 1_555 1_555
N4_3 C23_3 1_555 1_555
O9_2 C26_3 1_555 1_555
O23_2 C26_3 1_555 1_555
O24 C29_3 1_555 1_555
O12_3 Mn1_2 1_555 1_555
O25 Mn1_2 1_555 1_555
O14_3 Mn1_2 1_555 1_555
O16_3 Mn9 1_555 1_555
O17_3 Mn9 1_555 1_555
O20_2 Mn1_2 1_555 1_555
O21_2 Mn9 1_555 1_555
C28_3 C30_3 1_555 1_555
C29_3 O12_3 1_555 1_555
N3_3 N4_3 1_555 1_555
O14_3 H17_3 1_555 1_555
O14_3 H18_3 1_555 1_555
O16_3 H19_3 1_555 1_555
O16_3 H20_3 1_555 1_555
O17_3 H21_3 1_555 1_555
O17_3 H22_3 1_555 1_555
O15_3 H15_3 1_555 1_555
O15_3 H16_3 1_555 1_555
Mn6 O6_3 1_555 1_555
C1_3 C2_3 1_555 1_555
C2_3 C3_3 1_555 1_555
C3_3 H1_3 1_555 1_555
C4_3 C3_3 1_555 1_555
C5_3 C4_3 1_555 1_555
H2_3 C5_3 1_555 1_555
C6_3 C5_3 1_555 1_555
C7_3 C6_3 1_555 1_555
C8_3 C2_3 1_555 1_555
H3_3 C8_3 1_555 1_555
C9_3 C10_3 1_555 1_555
C10_3 H4_3 1_555 1_555
C11_3 C10_3 1_555 1_555
H5_3 C11_3 1_555 1_555
C12_3 C11_3 1_555 1_555
C13_3 C12_3 1_555 1_555
C14_3 C12_3 1_555 1_555
H6_3 C14_3 1_555 1_555
C15_3 C9_3 1_555 1_555
H7_3 C15_3 1_555 1_555
C16_3 C17_3 1_555 1_555
C17_3 C18_3 1_555 1_555
C18_3 H8_3 1_555 1_555
C22_3 C17_3 1_555 1_555
H11_3 C22_3 1_555 1_555
N1_3 C4_3 1_555 1_555
N2_3 C9_3 1_555 1_555
O1_3 C1_3 1_555 1_555
O18 C1_3 1_555 1_555
O19_2 C7_3 1_555 1_555
O4_2 C7_3 1_555 1_555
O21_2 C13_3 1_555 1_555
O6_3 C13_3 1_555 1_555
O7_3 Mn6 1_555 1_555
O8_3 C16_3 1_555 1_555
Mn4_2 O4_2 1_555 1_555
C6_3 C8_3 1_555 1_555
C14_3 C15_3 1_555 1_555
C16_3 O7_3 1_555 1_555
N1_3 N2_3 1_555 1_555
Mn5 O6_4 1_555 1_555
C1_4 C2_4 1_555 1_555
C2_4 C3_4 1_555 1_555
C3_4 H1_4 1_555 1_555
C4_4 C3_4 1_555 1_555
C5_4 C4_4 1_555 1_555
H2_4 C5_4 1_555 1_555
C6_4 C5_4 1_555 1_555
C7_4 C6_4 1_555 1_555
C8_4 C2_4 1_555 1_555
H3_4 C8_4 1_555 1_555
C9_4 C10_4 1_555 1_555
C10_4 H4_4 1_555 1_555
C11_4 C10_4 1_555 1_555
H5_4 C11_4 1_555 1_555
C12_4 C11_4 1_555 1_555
C13_4 C12_4 1_555 1_555
C14_4 C12_4 1_555 1_555
H6_4 C14_4 1_555 1_555
C15_4 C9_4 1_555 1_555
H7_4 C15_4 1_555 1_555
C16_4 C17_4 1_555 1_555
C17_4 C18_4 1_555 1_555
C18_4 H8_4 1_555 1_555
C22_4 C17_4 1_555 1_555
H11_4 C22_4 1_555 1_555
N1_4 C4_4 1_555 1_555
N2_4 C9_4 1_555 1_555
O1_4 C1_4 1_555 1_555
O18_2 C1_4 1_555 1_555
O19 C7_4 1_555 1_555
O5_2 C13_4 1_555 1_555
O6_4 C13_4 1_555 1_555
O7_4 Mn5 1_555 1_555
O8_4 C16_4 1_555 1_555
O15_4 Mn5 1_555 1_555
Mn7 O5_2 1_555 1_555
C6_4 C8_4 1_555 1_555
C14_4 C15_4 1_555 1_555
C16_4 O7_4 1_555 1_555
N1_4 N2_4 1_555 1_555
O15_4 H15_4 1_555 1_555
O15_4 H16_4 1_555 1_555
H9_4 C19_4 1_555 1_555
C20_4 C19_4 1_555 1_555
C21_4 C20_4 1_555 1_555
H10_4 C21_4 1_555 1_555
C23_4 C24_4 1_555 1_555
C24_4 H12_4 1_555 1_555
C25_4 C24_4 1_555 1_555
C26_4 C25_4 1_555 1_555
C27_4 C25_4 1_555 1_555
H13_4 C27_4 1_555 1_555
C28_4 C27_4 1_555 1_555
C29_4 C28_4 1_555 1_555
C30_4 C23_4 1_555 1_555
H14_4 C30_4 1_555 1_555
N3_4 C20_4 1_555 1_555
N4_4 C23_4 1_555 1_555
O23 C26_4 1_555 1_555
O24_2 C29_4 1_555 1_555
O12_4 Mn4_2 1_555 1_555
O25_2 Mn4_2 1_555 1_555
O14_4 Mn4_2 1_555 1_555
O16_4 Mn7 1_555 1_555
O17_4 Mn7 1_555 1_555
C28_4 C30_4 1_555 1_555
C29_4 O12_4 1_555 1_555
N3_4 N4_4 1_555 1_555
O14_4 H17_4 1_555 1_555
O14_4 H18_4 1_555 1_555
O16_4 H19_4 1_555 1_555
O16_4 H20_4 1_555 1_555
O17_4 H21_4 1_555 1_555
O17_4 H22_4 1_555 1_555

#END
