
###############################################################################
#
# This file contains modified crystal structure data generated from the
# MOF subset of the Cambridge Structural Database (CSD) v543 
# hosted by the Cambridge Crystallographic Data Centre (CCDC).
#
# This work is licensed under the Creative Commons
# Attribution-NonCommercial-ShareAlike 4.0 International License.
# To view a copy of this license, visit
# http://creativecommons.org/licenses/by-nc-sa/4.0/
# or send a letter to
# Creative Commons, PO Box 1866, Mountain View, CA 94042, USA.
#
# CIF created using the CSD Python API on 29 September 2022
# The structure has been converted into the P1 space group
# The structure has a 3D framework
# The original CSD entry EBUVAA is in the monoclinic crystal system
# The framework has been calculated to contain at least 10.0% void space
# The void calculation uses a probe of radius 1.32A, grid spacing 0.4
# H atom positions have been added when not included in the experimental data
# Generated hydrogen atom positions removed from atoms on special positions
#
###############################################################################

data_EBUVAA
_chemical_formula_moiety         '(C116 H96 N20 Ni8 O38)n'
_symmetry_cell_setting           triclinic
_symmetry_space_group_name_H-M   'P 1'
_symmetry_Int_Tables_number      1
_space_group_name_Hall           'P 1'
loop_
_symmetry_equiv_pos_site_id
_symmetry_equiv_pos_as_xyz
1 x,y,z
_cell_length_a                   14.6280(16)
_cell_length_b                   11.6031(11)
_cell_length_c                   22.004(3)
_cell_angle_alpha                90
_cell_angle_beta                 116.141(9)
_cell_angle_gamma                90
_cell_volume                     3352.72
loop_
_atom_site_label
_atom_site_type_symbol
_atom_site_fract_x
_atom_site_fract_y
_atom_site_fract_z
C30 C 0.1899(6) 0.3588(6) 0.0706(4)
H19 H 0.1273 0.3708 0.073
C31 C 0.1894(6) 0.3514(6) 0.0079(4)
C32 C 0.2794(5) 0.3297(6) 0.0028(4)
C33 C 0.3695(5) 0.3261(6) 0.0624(3)
H21 H 0.4327 0.3162 0.0605
C34 C 0.3674(6) 0.3369(6) 0.1240(4)
H22 H 0.4299 0.3356 0.164
C40 C 0.2556(5) 0.0722(6) 0.1762(3)
C43 C 0.4512(5) 0.0077(6) 0.2127(3)
C44 C 0.4263(6) 0.1149(6) 0.2292(4)
H29 H 0.4794 0.1669 0.255
C46 C 0.1494(6) 0.1174(6) 0.1540(4)
N6 N 0.2779(4) 0.3495(5) 0.1296(3)
N8 N 0.2821(5) 0.2533(5) 0.3130(3)
N10 N 0.3307(4) 0.1465(5) 0.2100(3)
O11 O 0.1408(3) 0.2207(4) 0.1704(2)
O12 O 0.0779(3) 0.0513(4) 0.1197(2)
O13 O 0.6241(3) 0.0624(4) 0.2499(2)
O16 O 0.4177(3) 0.3761(4) 0.2730(2)
O18 O 0.2038(3) 0.4593(4) 0.2253(2)
O21 O 0.0284(3) 0.4620(4) 0.3119(2)
Ni3 Ni 0.27580(7) 0.30598(8) 0.22185(5)
Ni10 Ni 0.07255(7) 0.53851(8) 0.40506(5)
H20 H 0.1275 0.3611 0.9681
C35 C 0.1962(6) 0.2460(6) 0.8204(4)
H23 H 0.1348 0.2236 0.7829
C36 C 0.1924(6) 0.2767(6) 0.8807(3)
H24 H 0.1293 0.276 0.8833
C37 C 0.2810(5) 0.3084(6) 0.9367(3)
C38 C 0.3702(5) 0.3107(6) 0.9289(4)
H25 H 0.4329 0.3323 0.9656
C39 C 0.3663(5) 0.2810(6) 0.8666(3)
H26 H 0.4276 0.2854 0.8618
N7 N 0.2821(5) 0.2467(5) 0.8130(3)
Ni5 Ni 0.27580(7) 0.19402(8) 0.72185(5)
C41 C 0.2746(5) 0.9627(6) 0.1598(3)
H27 H 0.2203 0.911 0.1355
C42 C 0.3749(5) 0.9304(6) 0.1798(3)
H28 H 0.3905 0.8548 0.1706
C45 C 0.5625(5) 0.9792(7) 0.2323(3)
O14 O 0.5823(3) 0.8761(4) 0.2270(2)
Ni7 Ni 0.72420(7) 0.80598(8) 0.27815(5)
H42 H 0.0177146 0.878808 0.0570002
O5 O 0.0544(3) 0.1139(4) 0.9511(2)
O20 O 0.8695(3) 0.3148(4) 0.9725(2)
O22 O 0.0284(3) 0.0380(4) 0.8119(2)
H39 H 0.0733547 0.181484 0.931383
O8 O 0.1305(3) 0.6852(4) 0.0275(2)
O17 O 0.9456(3) 0.8861(4) 0.0489(2)
O23 O 0.9716(3) 0.9620(4) 0.1881(2)
C12 C 0.7254(5) 0.0373(6) 0.8402(3)
H9 H 0.7797 0.089 0.8645
C13 C 0.6251(5) 0.0696(6) 0.8202(3)
H10 H 0.6095 0.1452 0.8294
C16 C 0.4375(5) 0.0208(7) 0.7677(3)
O4 O 0.4177(3) 0.1239(4) 0.7730(2)
H40 H 0.982285 0.121192 0.943
H2 H 0.8725 0.6389 0.0319
C6 C 0.8038(6) 0.7540(6) 0.1796(4)
H5 H 0.8652 0.7764 0.2171
C7 C 0.8076(6) 0.7233(6) 0.1193(3)
H6 H 0.8707 0.724 0.1167
C8 C 0.7190(5) 0.6916(6) 0.0633(3)
C9 C 0.6298(5) 0.6893(6) 0.0711(4)
H7 H 0.5671 0.6677 0.0344
C10 C 0.6337(5) 0.7190(6) 0.1334(3)
H8 H 0.5724 0.7146 0.1382
N2 N 0.7179(5) 0.7533(5) 0.1870(3)
C1 C 0.8101(6) 0.6412(6) 0.9294(4)
H1 H 0.8727 0.6292 0.927
C2 C 0.8106(6) 0.6486(6) 0.9921(4)
C3 C 0.7206(5) 0.6703(6) 0.9972(4)
C4 C 0.6305(5) 0.6739(6) 0.9376(3)
H3 H 0.5673 0.6838 0.9395
C5 C 0.6326(6) 0.6631(6) 0.8760(4)
H4 H 0.5701 0.6644 0.836
C11 C 0.7444(5) 0.9278(6) 0.8238(3)
C14 C 0.5488(5) 0.9923(6) 0.7873(3)
C15 C 0.5737(6) 0.8851(6) 0.7708(4)
H11 H 0.5206 0.8331 0.745
C17 C 0.8506(6) 0.8826(6) 0.8460(4)
N1 N 0.7221(4) 0.6505(5) 0.8704(3)
N3 N 0.6693(4) 0.8535(5) 0.7900(3)
O1 O 0.8592(3) 0.7793(4) 0.8296(2)
O2 O 0.9221(3) 0.9487(4) 0.8803(2)
O3 O 0.3759(3) 0.9376(4) 0.7501(2)
O6 O 0.7962(3) 0.5407(4) 0.7747(2)
O9 O 0.9716(3) 0.5380(4) 0.6881(2)
Ni1 Ni 0.72420(7) 0.69402(8) 0.77815(5)
N9 N 0.7179(5) 0.7467(5) 0.6870(3)
O15 O 0.5823(3) 0.6239(4) 0.7270(2)
Ni9 Ni 0.92745(7) 0.46149(8) 0.59494(5)
C1_2 C 0.1899(6) 0.1412(6) 0.5706(4)
H1_2 H 0.1273 0.1292 0.573
C2_2 C 0.1894(6) 0.1486(6) 0.5079(4)
H2_2 H 0.1275 0.1389 0.4681
C3_2 C 0.2794(5) 0.1703(6) 0.5028(4)
C4_2 C 0.3695(5) 0.1739(6) 0.5624(3)
H3_2 H 0.4327 0.1838 0.5605
C5_2 C 0.3674(6) 0.1631(6) 0.6240(4)
H4_2 H 0.4299 0.1644 0.664
C6_2 C 0.1962(6) 0.2540(6) 0.3204(4)
H5_2 H 0.1348 0.2764 0.2829
C7_2 C 0.1924(6) 0.2233(6) 0.3807(3)
H6_2 H 0.1293 0.224 0.3833
C8_2 C 0.2810(5) 0.1916(6) 0.4367(3)
C9_2 C 0.3702(5) 0.1893(6) 0.4289(4)
H7_2 H 0.4329 0.1677 0.4656
C10_2 C 0.3663(5) 0.2190(6) 0.3666(3)
H8_2 H 0.4276 0.2146 0.3618
C11_2 C 0.2556(5) 0.4278(6) 0.6762(3)
C12_2 C 0.2746(5) 0.5373(6) 0.6598(3)
H9_2 H 0.2203 0.589 0.6355
C13_2 C 0.3749(5) 0.5696(6) 0.6798(3)
H10_2 H 0.3905 0.6452 0.6706
C14_2 C 0.4512(5) 0.4923(6) 0.7127(3)
C15_2 C 0.4263(6) 0.3851(6) 0.7292(4)
H11_2 H 0.4794 0.3331 0.755
C16_2 C 0.5625(5) 0.5208(7) 0.7323(3)
C17_2 C 0.1494(6) 0.3826(6) 0.6540(4)
N1_2 N 0.2779(4) 0.1505(5) 0.6296(3)
N3_2 N 0.3307(4) 0.3535(5) 0.7100(3)
O1_2 O 0.1408(3) 0.2793(4) 0.6704(2)
O2_2 O 0.0779(3) 0.4487(4) 0.6197(2)
O3_2 O 0.6241(3) 0.4376(4) 0.7499(2)
O6_2 O 0.2038(3) 0.0407(4) 0.7253(2)
H38 H 0.193142 0.0393774 0.76685
H40_2 H 0.0177146 0.621192 0.557
C18 C 0.7248(5) 0.4817(6) 0.6029(4)
H12 H 0.7661 0.4721 0.6501
C19 C 0.6205(5) 0.4842(6) 0.5801(4)
H13 H 0.5926 0.4763 0.6116
C20 C 0.5572(5) 0.4977(6) 0.5135(4)
C21 C 0.6043(5) 0.5112(6) 0.4720(4)
H14 H 0.5642 0.5221 0.4248
C22 C 0.7087(5) 0.5091(6) 0.4980(3)
H15 H 0.7378 0.5205 0.4674
C23 C 0.9738(6) 0.1285(7) 0.7883(4)
C24 C 0.9322(5) 0.2715(7) 0.6943(4)
H16 H 0.9354 0.3298 0.7255
C25 C 0.9433(5) 0.1551(7) 0.7156(4)
C26 C 0.9058(5) 0.2186(7) 0.5868(4)
C27 C 0.9343(5) 0.0726(7) 0.6689(3)
C28 C 0.9117(5) 0.1021(7) 0.6034(4)
H18 H 0.9005 0.0445 0.5702
C29 C 0.8871(6) 0.2596(7) 0.5177(4)
N4 N 0.7714(4) 0.4921(5) 0.5626(3)
N5 N 0.9174(4) 0.3030(5) 0.6327(3)
O5_2 O 0.9456(3) 0.6139(4) 0.5489(2)
O7 O 0.8965(4) 0.3664(4) 0.5098(2)
O8_2 O 0.8695(3) 0.1852(4) 0.4725(2)
O10 O 0.9516(3) 0.1954(4) 0.8240(2)
C47 C 0.2752(5) 0.5183(6) 0.3971(4)
H30 H 0.2339 0.5279 0.3499
C48 C 0.3795(5) 0.5158(6) 0.4199(4)
H31 H 0.4074 0.5237 0.3884
C49 C 0.4428(5) 0.5023(6) 0.4865(4)
C50 C 0.3957(5) 0.4888(6) 0.5280(4)
H32 H 0.4358 0.4779 0.5752
C51 C 0.2913(5) 0.4909(6) 0.5020(3)
H33 H 0.2622 0.4795 0.5326
C52 C 0.0262(6) 0.8715(7) 0.2117(4)
C53 C 0.0678(5) 0.7285(7) 0.3057(4)
H34 H 0.0646 0.6702 0.2745
C54 C 0.0567(5) 0.8449(7) 0.2844(4)
C55 C 0.0942(5) 0.7814(7) 0.4132(4)
C56 C 0.0657(5) 0.9274(7) 0.3311(3)
C57 C 0.0883(5) 0.8979(7) 0.3966(4)
H36 H 0.0995 0.9555 0.4298
C58 C 0.1129(6) 0.7404(7) 0.4823(4)
N11 N 0.2286(4) 0.5079(5) 0.4374(3)
N12 N 0.0826(4) 0.6970(5) 0.3673(3)
O17_2 O 0.0544(3) 0.3861(4) 0.4511(2)
O19 O 0.1035(4) 0.6336(4) 0.4902(2)
O20_2 O 0.1305(3) 0.8148(4) 0.5275(2)
O24 O 0.0484(3) 0.8046(4) 0.1760(2)
H39_2 H 0.926645 0.681484 0.568617
H41 H 0.0990269 0.389321 0.500563
C30_2 C 0.8101(6) 0.8588(6) 0.4294(4)
H19_2 H 0.8727 0.8708 0.427
C31_2 C 0.8106(6) 0.8514(6) 0.4921(4)
H20_2 H 0.8725 0.8611 0.5319
C32_2 C 0.7206(5) 0.8297(6) 0.4972(4)
C33_2 C 0.6305(5) 0.8261(6) 0.4376(3)
H21_2 H 0.5673 0.8162 0.4395
C34_2 C 0.6326(6) 0.8369(6) 0.3760(4)
H22_2 H 0.5701 0.8356 0.336
C35_2 C 0.8038(6) 0.7460(6) 0.6796(4)
H23_2 H 0.8652 0.7236 0.7171
C36_2 C 0.8076(6) 0.7767(6) 0.6193(3)
H24_2 H 0.8707 0.776 0.6167
C37_2 C 0.7190(5) 0.8084(6) 0.5633(3)
C38_2 C 0.6298(5) 0.8107(6) 0.5711(4)
H25_2 H 0.5671 0.8323 0.5344
C39_2 C 0.6337(5) 0.7810(6) 0.6334(3)
H26_2 H 0.5724 0.7854 0.6382
C40_2 C 0.7444(5) 0.5722(6) 0.3238(3)
C41_2 C 0.7254(5) 0.4627(6) 0.3402(3)
H27_2 H 0.7797 0.411 0.3645
C42_2 C 0.6251(5) 0.4304(6) 0.3202(3)
H28_2 H 0.6095 0.3548 0.3294
C43_2 C 0.5488(5) 0.5077(6) 0.2873(3)
C44_2 C 0.5737(6) 0.6149(6) 0.2708(4)
H29_2 H 0.5206 0.6669 0.245
C45_2 C 0.4375(5) 0.4792(7) 0.2677(3)
C46_2 C 0.8506(6) 0.6174(6) 0.3460(4)
N6_2 N 0.7221(4) 0.8495(5) 0.3704(3)
N10_2 N 0.6693(4) 0.6465(5) 0.2900(3)
O11_2 O 0.8592(3) 0.7207(4) 0.3296(2)
O12_2 O 0.9221(3) 0.5513(4) 0.3803(2)
O13_2 O 0.3759(3) 0.5624(4) 0.2501(2)
O18_2 O 0.7962(3) 0.9593(4) 0.2747(2)
H42_2 H 0.982285 0.378808 0.443
H43 H 0.86304 0.964583 0.315197
H44 H 0.806858 0.960623 0.23315
H39_3 H 0.926645 0.818516 0.0686173
H43_2 H 0.13696 0.0354174 0.684803
H39_4 H 0.0733547 0.318516 0.431383
H41_2 H 0.900973 0.610679 0.499437
C21_2 C 0.3957(5) 0.0112(6) 0.0280(4)
H14_2 H 0.4358 0.0221 0.0752
C22_2 C 0.2913(5) 0.0091(6) 0.0020(3)
H15_2 H 0.2622 0.0205 0.0326
C47_2 C 0.7248(5) 0.0183(6) 0.1029(4)
H30_2 H 0.7661 0.0279 0.1501
C48_2 C 0.6205(5) 0.0158(6) 0.0801(4)
H31_2 H 0.5926 0.0237 0.1116
C49_2 C 0.5572(5) 0.0023(6) 0.0135(4)
C52_2 C 0.9738(6) 0.3715(7) 0.2883(4)
C53_2 C 0.9322(5) 0.2285(7) 0.1943(4)
H34_2 H 0.9354 0.1702 0.2255
C54_2 C 0.9433(5) 0.3449(7) 0.2156(4)
C55_2 C 0.9058(5) 0.2814(7) 0.0868(4)
C56_2 C 0.9343(5) 0.4274(7) 0.1689(3)
H35 H 0.9438 0.5062 0.1819
C57_2 C 0.9117(5) 0.3979(7) 0.1034(4)
H36_2 H 0.9005 0.4555 0.0702
C58_2 C 0.8871(6) 0.2404(7) 0.0177(4)
N11_2 N 0.7714(4) 0.0079(5) 0.0626(3)
N12_2 N 0.9174(4) 0.1970(5) 0.1327(3)
O19_2 O 0.8965(4) 0.1336(4) 0.0098(2)
O24_2 O 0.9516(3) 0.3046(4) 0.3240(2)
Ni8 Ni 0.92745(7) 0.03851(8) 0.09494(5)
H41_3 H 0.0990269 0.110679 0.00056265
H37 H 0.75298 0.0256893 0.274111
C18_2 C 0.2752(5) 0.9817(6) 0.8971(4)
H12_2 H 0.2339 0.9721 0.8499
C19_2 C 0.3795(5) 0.9842(6) 0.9199(4)
H13_2 H 0.4074 0.9763 0.8884
C20_2 C 0.4428(5) 0.9977(6) 0.9865(4)
C23_2 C 0.0262(6) 0.6285(7) 0.7117(4)
C24_2 C 0.0678(5) 0.7715(7) 0.8057(4)
H16_2 H 0.0646 0.8298 0.7745
C25_2 C 0.0567(5) 0.6551(7) 0.7844(4)
C26_2 C 0.0942(5) 0.7186(7) 0.9132(4)
C27_2 C 0.0657(5) 0.5726(7) 0.8311(3)
H17 H 0.0562 0.4938 0.8181
C28_2 C 0.0883(5) 0.6021(7) 0.8966(4)
H18_2 H 0.0995 0.5445 0.9298
C29_2 C 0.1129(6) 0.7596(7) 0.9823(4)
N4_2 N 0.2286(4) 0.9921(5) 0.9374(3)
N5_2 N 0.0826(4) 0.8030(5) 0.8673(3)
O7_2 O 0.1035(4) 0.8664(4) 0.9902(2)
O10_2 O 0.0484(3) 0.6954(4) 0.6760(2)
Ni2 Ni 0.07255(7) 0.96149(8) 0.90506(5)
C50_2 C 0.6043(5) 0.9888(6) 0.9720(4)
H32_2 H 0.5642 0.9779 0.9248
C51_2 C 0.7087(5) 0.9909(6) 0.9980(3)
H33_2 H 0.7378 0.9795 0.9674
H41_4 H 0.900973 0.889321 0.999437
H37_2 H 0.24702 0.974311 0.725889
H35_2 H 0.0562 0.0062 0.3181
H17_2 H 0.9438 0.9938 0.6819
loop_
_geom_bond_atom_site_label_1
_geom_bond_atom_site_label_2
_geom_bond_site_symmetry_1
_geom_bond_site_symmetry_2
C30 H19 1_555 1_555
C31 C30 1_555 1_555
C32 C31 1_555 1_555
C33 C32 1_555 1_555
H21 C33 1_555 1_555
C34 C33 1_555 1_555
H22 C34 1_555 1_555
C44 C43 1_555 1_555
H29 C44 1_555 1_555
C46 C40 1_555 1_555
N6 C30 1_555 1_555
N8 Ni3 1_555 1_555
N10 C40 1_555 1_555
O11 C46 1_555 1_555
O12 C46 1_555 1_555
O16 Ni3 1_555 1_555
O18 Ni3 1_555 1_555
Ni3 N6 1_555 1_555
Ni10 O21 1_555 1_555
C34 N6 1_555 1_555
C44 N10 1_555 1_555
N10 Ni3 1_555 1_555
O11 Ni3 1_555 1_555
C35 H23 1_555 1_555
C36 C35 1_555 1_555
H24 C36 1_555 1_555
C38 C37 1_555 1_555
H25 C38 1_555 1_555
C39 C38 1_555 1_555
H26 C39 1_555 1_555
N7 C35 1_555 1_555
Ni5 N7 1_555 1_555
C36 C37 1_555 1_555
C39 N7 1_555 1_555
C41 H27 1_555 1_555
C42 C41 1_555 1_555
H28 C42 1_555 1_555
O14 C45 1_555 1_555
Ni7 O14 1_555 1_555
O5 H39 1_555 1_555
C12 H9 1_555 1_555
C13 C12 1_555 1_555
H10 C13 1_555 1_555
O4 C16 1_555 1_555
Ni5 O4 1_555 1_555
C6 H5 1_555 1_555
C7 C6 1_555 1_555
H6 C7 1_555 1_555
C9 C8 1_555 1_555
H7 C9 1_555 1_555
C10 C9 1_555 1_555
H8 C10 1_555 1_555
N2 C6 1_555 1_555
Ni7 N2 1_555 1_555
C7 C8 1_555 1_555
C10 N2 1_555 1_555
C1 H1 1_555 1_555
C2 C1 1_555 1_555
C3 C2 1_555 1_555
C4 C3 1_555 1_555
H3 C4 1_555 1_555
C5 C4 1_555 1_555
H4 C5 1_555 1_555
C15 C14 1_555 1_555
H11 C15 1_555 1_555
C17 C11 1_555 1_555
N1 C1 1_555 1_555
N3 C11 1_555 1_555
O1 C17 1_555 1_555
O2 C17 1_555 1_555
O6 Ni1 1_555 1_555
Ni1 N1 1_555 1_555
N9 Ni1 1_555 1_555
O15 Ni1 1_555 1_555
Ni9 O9 1_555 1_555
C5 N1 1_555 1_555
C15 N3 1_555 1_555
N3 Ni1 1_555 1_555
O1 Ni1 1_555 1_555
C1_2 H1_2 1_555 1_555
C2_2 C1_2 1_555 1_555
H2_2 C2_2 1_555 1_555
C3_2 C2_2 1_555 1_555
C4_2 C3_2 1_555 1_555
H3_2 C4_2 1_555 1_555
C5_2 C4_2 1_555 1_555
H4_2 C5_2 1_555 1_555
C6_2 H5_2 1_555 1_555
C7_2 C6_2 1_555 1_555
H6_2 C7_2 1_555 1_555
C8_2 C3_2 1_555 1_555
C9_2 C8_2 1_555 1_555
H7_2 C9_2 1_555 1_555
C10_2 C9_2 1_555 1_555
H8_2 C10_2 1_555 1_555
C11_2 C12_2 1_555 1_555
C12_2 H9_2 1_555 1_555
C13_2 C12_2 1_555 1_555
H10_2 C13_2 1_555 1_555
C14_2 C13_2 1_555 1_555
C15_2 C14_2 1_555 1_555
H11_2 C15_2 1_555 1_555
C16_2 C14_2 1_555 1_555
C17_2 C11_2 1_555 1_555
N1_2 C1_2 1_555 1_555
N8 C6_2 1_555 1_555
N3_2 C11_2 1_555 1_555
O1_2 C17_2 1_555 1_555
O2_2 C17_2 1_555 1_555
O3_2 C16_2 1_555 1_555
O15 C16_2 1_555 1_555
O6_2 Ni5 1_555 1_555
Ni5 N1_2 1_555 1_555
C5_2 N1_2 1_555 1_555
C7_2 C8_2 1_555 1_555
C10_2 N8 1_555 1_555
C15_2 N3_2 1_555 1_555
N3_2 Ni5 1_555 1_555
O1_2 Ni5 1_555 1_555
O6_2 H38 1_555 1_555
C18 H12 1_555 1_555
C19 C18 1_555 1_555
H13 C19 1_555 1_555
C20 C19 1_555 1_555
C21 C20 1_555 1_555
H14 C21 1_555 1_555
C22 C21 1_555 1_555
H15 C22 1_555 1_555
C23 C25 1_555 1_555
C24 H16 1_555 1_555
C25 C24 1_555 1_555
C26 C28 1_555 1_555
C27 C25 1_555 1_555
C28 C27 1_555 1_555
H18 C28 1_555 1_555
C29 C26 1_555 1_555
N4 C18 1_555 1_555
N5 C24 1_555 1_555
O5_2 Ni9 1_555 1_555
O7 C29 1_555 1_555
O8_2 C29 1_555 1_555
O10 C23 1_555 1_555
Ni9 N4 1_555 1_555
C47 H30 1_555 1_555
C48 C47 1_555 1_555
H31 C48 1_555 1_555
C49 C20 1_555 1_555
C50 C49 1_555 1_555
H32 C50 1_555 1_555
C51 C50 1_555 1_555
H33 C51 1_555 1_555
C52 C54 1_555 1_555
C53 H34 1_555 1_555
C54 C53 1_555 1_555
C55 C57 1_555 1_555
C56 C54 1_555 1_555
C57 C56 1_555 1_555
H36 C57 1_555 1_555
C58 C55 1_555 1_555
N11 C47 1_555 1_555
N12 C53 1_555 1_555
O17_2 Ni10 1_555 1_555
O19 C58 1_555 1_555
O20_2 C58 1_555 1_555
O24 C52 1_555 1_555
Ni10 N11 1_555 1_555
C22 N4 1_555 1_555
C26 N5 1_555 1_555
N5 Ni9 1_555 1_555
O7 Ni9 1_555 1_555
C48 C49 1_555 1_555
C51 N11 1_555 1_555
C55 N12 1_555 1_555
N12 Ni10 1_555 1_555
O19 Ni10 1_555 1_555
O5_2 H39_2 1_555 1_555
O17_2 H41 1_555 1_555
C30_2 H19_2 1_555 1_555
C31_2 C30_2 1_555 1_555
H20_2 C31_2 1_555 1_555
C32_2 C31_2 1_555 1_555
C33_2 C32_2 1_555 1_555
H21_2 C33_2 1_555 1_555
C34_2 C33_2 1_555 1_555
H22_2 C34_2 1_555 1_555
C35_2 H23_2 1_555 1_555
C36_2 C35_2 1_555 1_555
H24_2 C36_2 1_555 1_555
C37_2 C32_2 1_555 1_555
C38_2 C37_2 1_555 1_555
H25_2 C38_2 1_555 1_555
C39_2 C38_2 1_555 1_555
H26_2 C39_2 1_555 1_555
C40_2 C41_2 1_555 1_555
C41_2 H27_2 1_555 1_555
C42_2 C41_2 1_555 1_555
H28_2 C42_2 1_555 1_555
C43_2 C42_2 1_555 1_555
C44_2 C43_2 1_555 1_555
H29_2 C44_2 1_555 1_555
C45_2 C43_2 1_555 1_555
C46_2 C40_2 1_555 1_555
N6_2 C30_2 1_555 1_555
N9 C35_2 1_555 1_555
N10_2 C40_2 1_555 1_555
O11_2 C46_2 1_555 1_555
O12_2 C46_2 1_555 1_555
O13_2 C45_2 1_555 1_555
O16 C45_2 1_555 1_555
O18_2 Ni7 1_555 1_555
Ni7 N6_2 1_555 1_555
C34_2 N6_2 1_555 1_555
C36_2 C37_2 1_555 1_555
C39_2 N9 1_555 1_555
C44_2 N10_2 1_555 1_555
N10_2 Ni7 1_555 1_555
O11_2 Ni7 1_555 1_555
O18_2 H43 1_555 1_555
O18_2 H44 1_555 1_555
O17 H39_3 1_555 1_555
O6_2 H43_2 1_555 1_555
O17_2 H39_4 1_555 1_555
O5_2 H41_2 1_555 1_555
H14_2 C21_2 1_555 1_555
C22_2 C21_2 1_555 1_555
H15_2 C22_2 1_555 1_555
C47_2 H30_2 1_555 1_555
C48_2 C47_2 1_555 1_555
H31_2 C48_2 1_555 1_555
C52_2 C54_2 1_555 1_555
C53_2 H34_2 1_555 1_555
C54_2 C53_2 1_555 1_555
C55_2 C57_2 1_555 1_555
C56_2 C54_2 1_555 1_555
H35 C56_2 1_555 1_555
C57_2 C56_2 1_555 1_555
H36_2 C57_2 1_555 1_555
C58_2 C55_2 1_555 1_555
N11_2 C47_2 1_555 1_555
N12_2 C53_2 1_555 1_555
O19_2 C58_2 1_555 1_555
O24_2 C52_2 1_555 1_555
Ni8 N11_2 1_555 1_555
C48_2 C49_2 1_555 1_555
C55_2 N12_2 1_555 1_555
N12_2 Ni8 1_555 1_555
O19_2 Ni8 1_555 1_555
C18_2 H12_2 1_555 1_555
C19_2 C18_2 1_555 1_555
H13_2 C19_2 1_555 1_555
C20_2 C19_2 1_555 1_555
C23_2 C25_2 1_555 1_555
C24_2 H16_2 1_555 1_555
C25_2 C24_2 1_555 1_555
C26_2 C28_2 1_555 1_555
C27_2 C25_2 1_555 1_555
H17 C27_2 1_555 1_555
C28_2 C27_2 1_555 1_555
H18_2 C28_2 1_555 1_555
C29_2 C26_2 1_555 1_555
N4_2 C18_2 1_555 1_555
N5_2 C24_2 1_555 1_555
O7_2 C29_2 1_555 1_555
O10_2 C23_2 1_555 1_555
Ni2 N4_2 1_555 1_555
H32_2 C50_2 1_555 1_555
C51_2 C50_2 1_555 1_555
H33_2 C51_2 1_555 1_555
C26_2 N5_2 1_555 1_555
N5_2 Ni2 1_555 1_555
O7_2 Ni2 1_555 1_555

#END
