
###############################################################################
#
# This file contains modified crystal structure data generated from the
# MOF subset of the Cambridge Structural Database (CSD) v543 
# hosted by the Cambridge Crystallographic Data Centre (CCDC).
#
# This work is licensed under the Creative Commons
# Attribution-NonCommercial-ShareAlike 4.0 International License.
# To view a copy of this license, visit
# http://creativecommons.org/licenses/by-nc-sa/4.0/
# or send a letter to
# Creative Commons, PO Box 1866, Mountain View, CA 94042, USA.
#
# CIF created using the CSD Python API on 29 September 2022
# The structure has been converted into the P1 space group
# The structure has a 3D framework
# The original CSD entry ECAFEX is in the tetragonal crystal system
# The framework has been calculated to contain at least 10.0% void space
# The void calculation uses a probe of radius 1.32A, grid spacing 0.4
#
###############################################################################

data_ECAFEX
_chemical_formula_moiety         '(C88 H72 N16 O16 Zn8)n'
_symmetry_cell_setting           triclinic
_symmetry_space_group_name_H-M   'P 1'
_symmetry_Int_Tables_number      1
_space_group_name_Hall           'P 1'
loop_
_symmetry_equiv_pos_site_id
_symmetry_equiv_pos_as_xyz
1 x,y,z
_cell_length_a                   14.3221(11)
_cell_length_b                   14.3221(11)
_cell_length_c                   13.2257(11)
_cell_angle_alpha                90
_cell_angle_beta                 90
_cell_angle_gamma                90
_cell_volume                     2712.89
loop_
_atom_site_label
_atom_site_type_symbol
_atom_site_fract_x
_atom_site_fract_y
_atom_site_fract_z
Zn3 Zn 0.000000 0.500000 0.9834(2)
Zn1 Zn 0.500000 -0.000000 0.4834(2)
H4 H 0.287370 0.012893 0.519976
N3 N 0.6184(2) 0.0396(3) 0.4166(2)
N4 N 0.7279(2) 0.1073(2) 0.3289(2)
O4 O 0.9567(2) 0.4051(2) 0.0799(2)
C12 C 0.5625(3) 0.1289(4) 0.2676(3)
H10 H 0.545901 0.082183 0.218799
H11 H 0.586469 0.182956 0.233335
H12 H 0.508316 0.146027 0.306054
C13 C 0.6351(3) 0.0912(3) 0.3366(3)
C14 C 0.7037(3) 0.0222(4) 0.4616(3)
C15 C 0.7711(4) 0.0634(4) 0.4087(4)
H14 H 0.834668 0.062545 0.422739
C16 C 0.7740(3) 0.1636(3) 0.2546(3)
C17 C 0.7716(5) 0.1412(4) 0.1541(3)
H15 H 0.738635 0.089127 0.132040
C18 C 0.8182(4) 0.1964(4) 0.0863(4)
H16 H 0.815925 0.181740 0.017890
C19 C 0.8680(3) 0.2727(3) 0.1173(3)
C20 C 0.8684(3) 0.2948(3) 0.2190(3)
H17 H 0.901070 0.347046 0.241036
C21 C 0.8217(3) 0.2413(3) 0.2874(3)
H18 H 0.822053 0.257028 0.355624
C22 C 0.9179(3) 0.3327(3) 0.0422(3)
O5 O 0.4567(2) 0.0949(2) 0.5799(2)
O1 O 0.0816(3) 0.6877(3) 0.9523(2)
N1 N 0.1184(2) 0.4604(3) 0.9166(2)
N2 N 0.2279(2) 0.3927(2) 0.8289(2)
O1_2 O 0.4184(3) 0.1877(3) 0.4523(2)
C1 C 0.0625(3) 0.3711(4) 0.7676(3)
H1 H 0.045901 0.417817 0.718799
H2 H 0.086469 0.317044 0.733335
H3 H 0.008316 0.353973 0.806054
C2 C 0.1351(3) 0.4088(3) 0.8366(3)
C3 C 0.2037(3) 0.4778(4) 0.9616(3)
C4 C 0.2711(4) 0.4366(4) 0.9087(4)
H5 H 0.334668 0.437455 0.922739
C5 C 0.2740(3) 0.3364(3) 0.7546(3)
C6 C 0.2716(5) 0.3588(4) 0.6541(3)
H6 H 0.238635 0.410873 0.632040
C7 C 0.3182(4) 0.3036(4) 0.5863(4)
H7 H 0.315925 0.318260 0.517890
C8 C 0.3680(3) 0.2273(3) 0.6173(3)
C9 C 0.3684(3) 0.2052(3) 0.7190(3)
H8 H 0.401070 0.152954 0.741036
C10 C 0.3217(3) 0.2587(3) 0.7874(3)
H9 H 0.322053 0.242972 0.855624
C11 C 0.4179(3) 0.1673(3) 0.5422(3)
H13 H 0.787370 0.487107 0.019976
O3 O 0.9184(3) 0.3123(3) 0.9523(2)
Zn3_2 Zn 1.000000 0.500000 0.9834(2)
Zn1_2 Zn 0.500000 1.000000 0.4834(2)
N1_2 N 0.3816(2) 0.9604(3) 0.4166(2)
N2_2 N 0.2721(2) 0.8927(2) 0.3289(2)
O2 O 0.0433(2) 0.5949(2) 0.0799(2)
C1_2 C 0.4375(3) 0.8711(4) 0.2676(3)
H1_2 H 0.454099 0.917817 0.218799
H2_2 H 0.413531 0.817044 0.233335
H3_2 H 0.491684 0.853973 0.306054
C2_2 C 0.3649(3) 0.9088(3) 0.3366(3)
C3_2 C 0.2963(3) 0.9778(4) 0.4616(3)
C4_2 C 0.2289(4) 0.9366(4) 0.4087(4)
H5_2 H 0.165332 0.937455 0.422739
C5_2 C 0.2260(3) 0.8364(3) 0.2546(3)
C6_2 C 0.2284(5) 0.8588(4) 0.1541(3)
H6_2 H 0.261365 0.910873 0.132040
C7_2 C 0.1818(4) 0.8036(4) 0.0863(4)
H7_2 H 0.184075 0.818260 0.017890
C8_2 C 0.1320(3) 0.7273(3) 0.1173(3)
C9_2 C 0.1316(3) 0.7052(3) 0.2190(3)
H8_2 H 0.098930 0.652954 0.241036
C10_2 C 0.1783(3) 0.7587(3) 0.2874(3)
H9_2 H 0.177947 0.742972 0.355624
C11_2 C 0.0821(3) 0.6673(3) 0.0422(3)
H13_2 H 0.712630 0.987107 0.519976
O6 O 0.5433(2) 0.9051(2) 0.5799(2)
H4_2 H 0.212630 0.512893 0.019976
N3_2 N 0.8816(2) 0.5396(3) 0.9166(2)
N4_2 N 0.7721(2) 0.6073(2) 0.8289(2)
O3_2 O 0.5816(3) 0.8123(3) 0.4523(2)
C12_2 C 0.9375(3) 0.6289(4) 0.7676(3)
H10_2 H 0.954099 0.582183 0.718799
H11_2 H 0.913531 0.682956 0.733335
H12_2 H 0.991684 0.646027 0.806054
C13_2 C 0.8649(3) 0.5912(3) 0.8366(3)
C14_2 C 0.7963(3) 0.5222(4) 0.9616(3)
C15_2 C 0.7289(4) 0.5634(4) 0.9087(4)
H14_2 H 0.665332 0.562545 0.922739
C16_2 C 0.7260(3) 0.6636(3) 0.7546(3)
C17_2 C 0.7284(5) 0.6412(4) 0.6541(3)
H15_2 H 0.761365 0.589127 0.632040
C18_2 C 0.6818(4) 0.6964(4) 0.5863(4)
H16_2 H 0.684075 0.681740 0.517890
C19_2 C 0.6320(3) 0.7727(3) 0.6173(3)
C20_2 C 0.6316(3) 0.7948(3) 0.7190(3)
H17_2 H 0.598930 0.847046 0.741036
C21_2 C 0.6783(3) 0.7413(3) 0.7874(3)
H18_2 H 0.677947 0.757028 0.855624
C22_2 C 0.5821(3) 0.8327(3) 0.5422(3)
Zn1_3 Zn 0.000000 0.500000 0.4834(2)
N1_3 N 0.0396(3) 0.3816(2) 0.4166(2)
N2_3 N 0.1073(2) 0.2721(2) 0.3289(2)
O2_2 O 0.4051(2) 0.0433(2) 0.0799(2)
C1_3 C 0.1289(4) 0.4375(3) 0.2676(3)
H1_3 H 0.082183 0.454099 0.218799
H2_3 H 0.182956 0.413531 0.233335
H3_3 H 0.146027 0.491684 0.306054
C2_3 C 0.0912(3) 0.3649(3) 0.3366(3)
C3_3 C 0.0222(4) 0.2963(3) 0.4616(3)
C4_3 C 0.0634(4) 0.2289(4) 0.4087(4)
H5_3 H 0.062545 0.165332 0.422739
C5_3 C 0.1636(3) 0.2260(3) 0.2546(3)
C6_3 C 0.1412(4) 0.2284(5) 0.1541(3)
H6_3 H 0.089127 0.261365 0.132040
C7_3 C 0.1964(4) 0.1818(4) 0.0863(4)
H7_3 H 0.181740 0.184075 0.017890
C8_3 C 0.2727(3) 0.1320(3) 0.1173(3)
C9_3 C 0.2948(3) 0.1316(3) 0.2190(3)
H8_3 H 0.347046 0.098930 0.241036
C10_3 C 0.2413(3) 0.1783(3) 0.2874(3)
H9_3 H 0.257028 0.177947 0.355624
C11_3 C 0.3327(3) 0.0821(3) 0.0422(3)
H13_3 H 0.012893 0.712630 0.519976
O6_2 O 0.0949(2) 0.5433(2) 0.5799(2)
Zn2 Zn 0.500000 1.000000 0.9834(2)
O3_3 O 0.6877(3) 0.9184(3) 0.9523(2)
H4_3 H 0.487107 0.212630 0.019976
N3_3 N 0.4604(3) 0.8816(2) 0.9166(2)
N4_3 N 0.3927(2) 0.7721(2) 0.8289(2)
O3_4 O 0.1877(3) 0.5816(3) 0.4523(2)
C12_3 C 0.3711(4) 0.9375(3) 0.7676(3)
H10_3 H 0.417817 0.954099 0.718799
H11_3 H 0.317044 0.913531 0.733335
H12_3 H 0.353973 0.991684 0.806054
C13_3 C 0.4088(3) 0.8649(3) 0.8366(3)
C14_3 C 0.4778(4) 0.7963(3) 0.9616(3)
C15_3 C 0.4366(4) 0.7289(4) 0.9087(4)
H14_3 H 0.437455 0.665332 0.922739
C16_3 C 0.3364(3) 0.7260(3) 0.7546(3)
C17_3 C 0.3588(4) 0.7284(5) 0.6541(3)
H15_3 H 0.410873 0.761365 0.632040
C18_3 C 0.3036(4) 0.6818(4) 0.5863(4)
H16_3 H 0.318260 0.684075 0.517890
C19_3 C 0.2273(3) 0.6320(3) 0.6173(3)
C20_3 C 0.2052(3) 0.6316(3) 0.7190(3)
H17_3 H 0.152954 0.598930 0.741036
C21_3 C 0.2587(3) 0.6783(3) 0.7874(3)
H18_3 H 0.242972 0.677947 0.855624
C22_3 C 0.1673(3) 0.5821(3) 0.5422(3)
O1_3 O 0.3123(3) 0.0816(3) 0.9523(2)
Zn2_2 Zn 0.500000 0.000000 0.9834(2)
Zn1_4 Zn 1.000000 0.500000 0.4834(2)
H4_4 H 0.987107 0.287370 0.519976
N3_4 N 0.9604(3) 0.6184(2) 0.4166(2)
N4_4 N 0.8927(2) 0.7279(2) 0.3289(2)
O4_2 O 0.5949(2) 0.9567(2) 0.0799(2)
C12_4 C 0.8711(4) 0.5625(3) 0.2676(3)
H10_4 H 0.917817 0.545901 0.218799
H11_4 H 0.817044 0.586469 0.233335
H12_4 H 0.853973 0.508316 0.306054
C13_4 C 0.9088(3) 0.6351(3) 0.3366(3)
C14_4 C 0.9778(4) 0.7037(3) 0.4616(3)
C15_4 C 0.9366(4) 0.7711(4) 0.4087(4)
H14_4 H 0.937455 0.834668 0.422739
C16_4 C 0.8364(3) 0.7740(3) 0.2546(3)
C17_4 C 0.8588(4) 0.7716(5) 0.1541(3)
H15_4 H 0.910873 0.738635 0.132040
C18_4 C 0.8036(4) 0.8182(4) 0.0863(4)
H16_4 H 0.818260 0.815925 0.017890
C19_4 C 0.7273(3) 0.8680(3) 0.1173(3)
C20_4 C 0.7052(3) 0.8684(3) 0.2190(3)
H17_4 H 0.652954 0.901070 0.241036
C21_4 C 0.7587(3) 0.8217(3) 0.2874(3)
H18_4 H 0.742972 0.822053 0.355624
C22_4 C 0.6673(3) 0.9179(3) 0.0422(3)
O5_2 O 0.9051(2) 0.4567(2) 0.5799(2)
N1_4 N 0.5396(3) 0.1184(2) 0.9166(2)
N2_4 N 0.6073(2) 0.2279(2) 0.8289(2)
O1_4 O 0.8123(3) 0.4184(3) 0.4523(2)
C1_4 C 0.6289(4) 0.0625(3) 0.7676(3)
H1_4 H 0.582183 0.045901 0.718799
H2_4 H 0.682956 0.086469 0.733335
H3_4 H 0.646027 0.008316 0.806054
C2_4 C 0.5912(3) 0.1351(3) 0.8366(3)
C3_4 C 0.5222(4) 0.2037(3) 0.9616(3)
C4_4 C 0.5634(4) 0.2711(4) 0.9087(4)
H5_4 H 0.562545 0.334668 0.922739
C5_4 C 0.6636(3) 0.2740(3) 0.7546(3)
C6_4 C 0.6412(4) 0.2716(5) 0.6541(3)
H6_4 H 0.589127 0.238635 0.632040
C7_4 C 0.6964(4) 0.3182(4) 0.5863(4)
H7_4 H 0.681740 0.315925 0.517890
C8_4 C 0.7727(3) 0.3680(3) 0.6173(3)
C9_4 C 0.7948(3) 0.3684(3) 0.7190(3)
H8_4 H 0.847046 0.401070 0.741036
C10_4 C 0.7413(3) 0.3217(3) 0.7874(3)
H9_4 H 0.757028 0.322053 0.855624
C11_4 C 0.8327(3) 0.4179(3) 0.5422(3)
H13_4 H 0.512893 0.787370 0.019976
loop_
_geom_bond_atom_site_label_1
_geom_bond_atom_site_label_2
_geom_bond_site_symmetry_1
_geom_bond_site_symmetry_2
N3 Zn1 1_555 1_555
N4 C13 1_555 1_555
O4 C22 1_555 1_555
C12 H10 1_555 1_555
H11 C12 1_555 1_555
H12 C12 1_555 1_555
C13 N3 1_555 1_555
C14 N3 1_555 1_555
C15 N4 1_555 1_555
H14 C15 1_555 1_555
C16 N4 1_555 1_555
C17 C16 1_555 1_555
H15 C17 1_555 1_555
C18 C17 1_555 1_555
H16 C18 1_555 1_555
C19 C18 1_555 1_555
C20 C19 1_555 1_555
H17 C20 1_555 1_555
C21 C16 1_555 1_555
H18 C21 1_555 1_555
C22 C19 1_555 1_555
O5 Zn1 1_555 1_555
C12 C13 1_555 1_555
C14 C15 1_555 1_555
C20 C21 1_555 1_555
Zn3 N1 1_555 1_555
N1 C2 1_555 1_555
N2 C2 1_555 1_555
O1_2 C11 1_555 1_555
O5 C11 1_555 1_555
C1 H1 1_555 1_555
H2 C1 1_555 1_555
H3 C1 1_555 1_555
C2 C1 1_555 1_555
C3 N1 1_555 1_555
C4 N2 1_555 1_555
H5 C4 1_555 1_555
C5 N2 1_555 1_555
C6 C5 1_555 1_555
H6 C6 1_555 1_555
C7 C6 1_555 1_555
H7 C7 1_555 1_555
C8 C7 1_555 1_555
C9 C8 1_555 1_555
H8 C9 1_555 1_555
C10 C5 1_555 1_555
H9 C10 1_555 1_555
C11 C8 1_555 1_555
C3 C4 1_555 1_555
C9 C10 1_555 1_555
Zn1_2 N1_2 1_555 1_555
N1_2 C2_2 1_555 1_555
N2_2 C2_2 1_555 1_555
O2 C11_2 1_555 1_555
C1_2 H1_2 1_555 1_555
H2_2 C1_2 1_555 1_555
H3_2 C1_2 1_555 1_555
C2_2 C1_2 1_555 1_555
C3_2 N1_2 1_555 1_555
C4_2 N2_2 1_555 1_555
H5_2 C4_2 1_555 1_555
C5_2 N2_2 1_555 1_555
C6_2 C5_2 1_555 1_555
H6_2 C6_2 1_555 1_555
C7_2 C6_2 1_555 1_555
H7_2 C7_2 1_555 1_555
C8_2 C7_2 1_555 1_555
C9_2 C8_2 1_555 1_555
H8_2 C9_2 1_555 1_555
C10_2 C5_2 1_555 1_555
H9_2 C10_2 1_555 1_555
C11_2 C8_2 1_555 1_555
O6 Zn1_2 1_555 1_555
C3_2 C4_2 1_555 1_555
C9_2 C10_2 1_555 1_555
N3_2 Zn3_2 1_555 1_555
N4_2 C13_2 1_555 1_555
O3_2 C22_2 1_555 1_555
O6 C22_2 1_555 1_555
C12_2 H10_2 1_555 1_555
H11_2 C12_2 1_555 1_555
H12_2 C12_2 1_555 1_555
C13_2 N3_2 1_555 1_555
C14_2 N3_2 1_555 1_555
C15_2 N4_2 1_555 1_555
H14_2 C15_2 1_555 1_555
C16_2 N4_2 1_555 1_555
C17_2 C16_2 1_555 1_555
H15_2 C17_2 1_555 1_555
C18_2 C17_2 1_555 1_555
H16_2 C18_2 1_555 1_555
C19_2 C18_2 1_555 1_555
C20_2 C19_2 1_555 1_555
H17_2 C20_2 1_555 1_555
C21_2 C16_2 1_555 1_555
H18_2 C21_2 1_555 1_555
C22_2 C19_2 1_555 1_555
C12_2 C13_2 1_555 1_555
C14_2 C15_2 1_555 1_555
C20_2 C21_2 1_555 1_555
Zn1_3 N1_3 1_555 1_555
N1_3 C2_3 1_555 1_555
N2_3 C2_3 1_555 1_555
O2_2 C11_3 1_555 1_555
C1_3 H1_3 1_555 1_555
H2_3 C1_3 1_555 1_555
H3_3 C1_3 1_555 1_555
C2_3 C1_3 1_555 1_555
C3_3 N1_3 1_555 1_555
C4_3 N2_3 1_555 1_555
H5_3 C4_3 1_555 1_555
C5_3 N2_3 1_555 1_555
C6_3 C5_3 1_555 1_555
H6_3 C6_3 1_555 1_555
C7_3 C6_3 1_555 1_555
H7_3 C7_3 1_555 1_555
C8_3 C7_3 1_555 1_555
C9_3 C8_3 1_555 1_555
H8_3 C9_3 1_555 1_555
C10_3 C5_3 1_555 1_555
H9_3 C10_3 1_555 1_555
C11_3 C8_3 1_555 1_555
O6_2 Zn1_3 1_555 1_555
C3_3 C4_3 1_555 1_555
C9_3 C10_3 1_555 1_555
N3_3 Zn2 1_555 1_555
N4_3 C13_3 1_555 1_555
O3_4 C22_3 1_555 1_555
O6_2 C22_3 1_555 1_555
C12_3 H10_3 1_555 1_555
H11_3 C12_3 1_555 1_555
H12_3 C12_3 1_555 1_555
C13_3 N3_3 1_555 1_555
C14_3 N3_3 1_555 1_555
C15_3 N4_3 1_555 1_555
H14_3 C15_3 1_555 1_555
C16_3 N4_3 1_555 1_555
C17_3 C16_3 1_555 1_555
H15_3 C17_3 1_555 1_555
C18_3 C17_3 1_555 1_555
H16_3 C18_3 1_555 1_555
C19_3 C18_3 1_555 1_555
C20_3 C19_3 1_555 1_555
H17_3 C20_3 1_555 1_555
C21_3 C16_3 1_555 1_555
H18_3 C21_3 1_555 1_555
C22_3 C19_3 1_555 1_555
C12_3 C13_3 1_555 1_555
C14_3 C15_3 1_555 1_555
C20_3 C21_3 1_555 1_555
N3_4 Zn1_4 1_555 1_555
N4_4 C13_4 1_555 1_555
O4_2 C22_4 1_555 1_555
C12_4 H10_4 1_555 1_555
H11_4 C12_4 1_555 1_555
H12_4 C12_4 1_555 1_555
C13_4 N3_4 1_555 1_555
C14_4 N3_4 1_555 1_555
C15_4 N4_4 1_555 1_555
H14_4 C15_4 1_555 1_555
C16_4 N4_4 1_555 1_555
C17_4 C16_4 1_555 1_555
H15_4 C17_4 1_555 1_555
C18_4 C17_4 1_555 1_555
H16_4 C18_4 1_555 1_555
C19_4 C18_4 1_555 1_555
C20_4 C19_4 1_555 1_555
H17_4 C20_4 1_555 1_555
C21_4 C16_4 1_555 1_555
H18_4 C21_4 1_555 1_555
C22_4 C19_4 1_555 1_555
O5_2 Zn1_4 1_555 1_555
C12_4 C13_4 1_555 1_555
C14_4 C15_4 1_555 1_555
C20_4 C21_4 1_555 1_555
Zn2_2 N1_4 1_555 1_555
N1_4 C2_4 1_555 1_555
N2_4 C2_4 1_555 1_555
O1_4 C11_4 1_555 1_555
O5_2 C11_4 1_555 1_555
C1_4 H1_4 1_555 1_555
H2_4 C1_4 1_555 1_555
H3_4 C1_4 1_555 1_555
C2_4 C1_4 1_555 1_555
C3_4 N1_4 1_555 1_555
C4_4 N2_4 1_555 1_555
H5_4 C4_4 1_555 1_555
C5_4 N2_4 1_555 1_555
C6_4 C5_4 1_555 1_555
H6_4 C6_4 1_555 1_555
C7_4 C6_4 1_555 1_555
H7_4 C7_4 1_555 1_555
C8_4 C7_4 1_555 1_555
C9_4 C8_4 1_555 1_555
H8_4 C9_4 1_555 1_555
C10_4 C5_4 1_555 1_555
H9_4 C10_4 1_555 1_555
C11_4 C8_4 1_555 1_555
C3_4 C4_4 1_555 1_555
C9_4 C10_4 1_555 1_555

#END
