
###############################################################################
#
# This file contains modified crystal structure data generated from the
# MOF subset of the Cambridge Structural Database (CSD) v543 
# hosted by the Cambridge Crystallographic Data Centre (CCDC).
#
# This work is licensed under the Creative Commons
# Attribution-NonCommercial-ShareAlike 4.0 International License.
# To view a copy of this license, visit
# http://creativecommons.org/licenses/by-nc-sa/4.0/
# or send a letter to
# Creative Commons, PO Box 1866, Mountain View, CA 94042, USA.
#
# CIF created using the CSD Python API on 29 September 2022
# The structure has been converted into the P1 space group
# The structure has a 3D framework
# The original CSD entry ECOBUW is in the hexagonal crystal system
# The framework has been calculated to contain at least 10.0% void space
# The void calculation uses a probe of radius 1.32A, grid spacing 0.4
#
###############################################################################

data_ECOBUW
_chemical_formula_moiety         '(C48 H72 Cu15 Lu4 O78)n'
_symmetry_cell_setting           triclinic
_symmetry_space_group_name_H-M   'P 1'
_symmetry_Int_Tables_number      1
_space_group_name_Hall           'P 1'
loop_
_symmetry_equiv_pos_site_id
_symmetry_equiv_pos_as_xyz
1 x,y,z
_cell_length_a                   14.021(2)
_cell_length_b                   14.021(2)
_cell_length_c                   15.713(2)
_cell_angle_alpha                90
_cell_angle_beta                 90
_cell_angle_gamma                120
_cell_volume                     2675.15
loop_
_atom_site_label
_atom_site_type_symbol
_atom_site_fract_x
_atom_site_fract_y
_atom_site_fract_z
Cu8 Cu 0.000 0.500 0.000
Cu3 Cu -0.000 0.500 0.500
O36 O 0.1683(5) 0.4868(4) 0.500
H35 H 0.209(9) 0.524(8) 0.461(6)
H36 H 0.209(9) 0.524(8) 0.539(6)
Cu8_2 Cu 0.000 0.500 1.000
O38 O 0.0534(3) 0.6158(2) 0.58621(17)
O41 O 0.0534(3) 0.6158(2) 0.41379(17)
Cu10 Cu 0.500 0.000 0.000
Cu4 Cu 0.500 -0.000 0.500
Cu10_2 Cu 0.500 0.000 1.000
Cu6 Cu 0.500 0.500 0.000
Cu8_3 Cu 1.000 0.500 0.000
Cu10_3 Cu 0.500 1.000 0.000
Lu1 Lu 0.6667 0.3333 0.750
Cu1 Cu 0.500 0.500 0.500
O1 O 0.76613(12) 0.5323(2) 0.750
O2 O 0.4868(4) 0.3185(3) 0.500
H1 H 0.524(8) 0.315(3) 0.461(6)
O3 O 0.6095(2) 0.4149(2) 0.64760(14)
O4 O 0.6158(2) 0.5624(2) 0.58621(17)
C1 C 0.7441(4) 0.5940(3) 0.6915(3)
H2 H 0.808 0.6366 0.6557
H3 H 0.7278 0.6446 0.7215
C2 C 0.6481(3) 0.5176(3) 0.6381(2)
O5 O 0.8054(3) 0.4149(2) 0.85240(14)
O6 O 0.9466(3) 0.5624(2) 0.91379(17)
C3 C 0.8499(5) 0.5940(3) 0.8085(3)
H4 H 0.8286 0.6366 0.8443
H5 H 0.9168 0.6446 0.7785
C4 C 0.8695(4) 0.5176(3) 0.8619(2)
H6 H 0.524(8) 0.315(3) 0.539(6)
O7 O 0.4677(2) 0.23383(23) 0.750
O8 O 0.6815(3) 0.1683(5) 0.500
H7 H 0.685(3) 0.209(9) 0.461(6)
O9 O 0.5851(2) 0.1946(3) 0.64760(14)
O10 O 0.4376(2) 0.0534(3) 0.58621(17)
C5 C 0.4060(3) 0.1501(5) 0.6915(3)
H8 H 0.3634 0.1714 0.6557
H9 H 0.3554 0.0832 0.7215
C6 C 0.4824(3) 0.1305(4) 0.6381(2)
O11 O 0.5851(2) 0.3905(2) 0.85240(14)
O12 O 0.4376(2) 0.3842(2) 0.91379(17)
C7 C 0.4060(3) 0.2559(4) 0.8085(3)
H10 H 0.3634 0.192 0.8443
H11 H 0.3554 0.2722 0.7785
C8 C 0.4824(3) 0.3519(3) 0.8619(2)
H12 H 0.685(3) 0.209(9) 0.539(6)
Cu3_2 Cu 1.000 0.500 0.500
O13 O 0.76617(23) 0.23387(12) 0.750
O14 O 0.8317(5) 0.5132(4) 0.500
H13 H 0.791(9) 0.476(8) 0.461(6)
O15 O 0.8054(3) 0.3905(2) 0.64760(14)
O16 O 0.9466(3) 0.3842(2) 0.58621(17)
C9 C 0.8499(5) 0.2559(4) 0.6915(3)
H14 H 0.8286 0.192 0.6557
H15 H 0.9168 0.2722 0.7215
C10 C 0.8695(4) 0.3519(3) 0.6381(2)
O17 O 0.6095(2) 0.1946(3) 0.85240(14)
O18 O 0.6158(2) 0.0534(3) 0.91379(17)
C11 C 0.7441(4) 0.1501(5) 0.8085(3)
H16 H 0.808 0.1714 0.8443
H17 H 0.7278 0.0832 0.7785
C12 C 0.6481(3) 0.1305(4) 0.8619(2)
H18 H 0.791(9) 0.476(8) 0.539(6)
Lu2 Lu 0.3333 0.6667 0.750
O19 O 0.23387(12) 0.4677(2) 0.750
O20 O 0.5132(4) 0.6815(3) 0.500
H19 H 0.476(8) 0.685(3) 0.461(6)
O21 O 0.3905(2) 0.5851(2) 0.64760(14)
O22 O 0.3842(2) 0.4376(2) 0.58621(17)
C13 C 0.2559(4) 0.4060(3) 0.6915(3)
H20 H 0.192 0.3634 0.6557
H21 H 0.2722 0.3554 0.7215
C14 C 0.3519(3) 0.4824(3) 0.6381(2)
O23 O 0.1946(3) 0.5851(2) 0.85240(14)
O24 O 0.0534(3) 0.4376(2) 0.91379(17)
C15 C 0.1501(5) 0.4060(3) 0.8085(3)
H22 H 0.1714 0.3634 0.8443
H23 H 0.0832 0.3554 0.7785
C16 C 0.1305(4) 0.4824(3) 0.8619(2)
H24 H 0.476(8) 0.685(3) 0.539(6)
O25 O 0.5323(2) 0.76617(23) 0.750
O26 O 0.4149(2) 0.8054(3) 0.64760(14)
O27 O 0.5624(2) 0.9466(3) 0.58621(17)
C17 C 0.5940(3) 0.8499(5) 0.6915(3)
H25 H 0.6366 0.8286 0.6557
H26 H 0.6446 0.9168 0.7215
C18 C 0.5176(3) 0.8695(4) 0.6381(2)
O28 O 0.4149(2) 0.6095(2) 0.85240(14)
O29 O 0.5624(2) 0.6158(2) 0.91379(17)
C19 C 0.5940(3) 0.7441(4) 0.8085(3)
H27 H 0.6366 0.808 0.8443
H28 H 0.6446 0.7278 0.7785
C20 C 0.5176(3) 0.6481(3) 0.8619(2)
O30 O 0.23383(23) 0.76613(12) 0.750
O31 O 0.1946(3) 0.6095(2) 0.64760(14)
C21 C 0.1501(5) 0.7441(4) 0.6915(3)
H29 H 0.1714 0.808 0.6557
H30 H 0.0832 0.7278 0.7215
C22 C 0.1305(4) 0.6481(3) 0.6381(2)
O33 O 0.3905(2) 0.8054(3) 0.85240(14)
O34 O 0.3842(2) 0.9466(3) 0.91379(17)
C23 C 0.2559(4) 0.8499(5) 0.8085(3)
H31 H 0.192 0.8286 0.8443
H32 H 0.2722 0.9168 0.7785
C24 C 0.3519(3) 0.8695(4) 0.8619(2)
Cu4_2 Cu 0.500 1.000 0.500
Cu6_2 Cu 0.500 0.500 1.000
Cu8_4 Cu 1.000 0.500 1.000
Cu10_4 Cu 0.500 1.000 1.000
O39 O 0.3842(2) 0.4376(2) 0.41379(17)
O42 O 0.6158(2) 0.5624(2) 0.41379(17)
O43 O 0.4376(2) 0.0534(3) 0.41379(17)
O44 O 0.9466(3) 0.3842(2) 0.41379(17)
O35 O 0.3185(3) 0.8317(5) 0.500
H33 H 0.315(3) 0.791(9) 0.461(6)
H34 H 0.315(3) 0.791(9) 0.539(6)
O40 O 0.5624(2) 0.9466(3) 0.41379(17)
O36_2 O 0.4868(4) 0.1683(5) 0.000
H35_2 H 0.524(8) 0.209(9) 0.039(6)
O41_2 O 0.6158(2) 0.0534(3) 0.08621(17)
O36_3 O 0.4868(4) 0.1683(5) 1.000
H36_2 H 0.524(8) 0.209(9) 0.961(6)
O2_2 O 0.3185(3) 0.4868(4) 0.000
H1_2 H 0.315(3) 0.524(8) 0.039(6)
O8_2 O 0.1683(5) 0.6815(3) 0.000
H7_2 H 0.209(9) 0.685(3) 0.039(6)
O14_2 O 0.5132(4) 0.8317(5) 0.000
H13_2 H 0.476(8) 0.791(9) 0.039(6)
O20_2 O 0.6815(3) 0.5132(4) 0.000
H19_2 H 0.685(3) 0.476(8) 0.039(6)
O39_2 O 0.4376(2) 0.3842(2) 0.08621(17)
O42_2 O 0.5624(2) 0.6158(2) 0.08621(17)
O43_2 O 0.0534(3) 0.4376(2) 0.08621(17)
O44_2 O 0.3842(2) 0.9466(3) 0.08621(17)
O2_3 O 0.3185(3) 0.4868(4) 1.000
H6_2 H 0.315(3) 0.524(8) 0.961(6)
O8_3 O 0.1683(5) 0.6815(3) 1.000
H12_2 H 0.209(9) 0.685(3) 0.961(6)
O14_3 O 0.5132(4) 0.8317(5) 1.000
H18_2 H 0.476(8) 0.791(9) 0.961(6)
O20_3 O 0.6815(3) 0.5132(4) 1.000
H24_2 H 0.685(3) 0.476(8) 0.961(6)
O35_2 O 0.8317(5) 0.3185(3) 0.000
H33_2 H 0.791(9) 0.315(3) 0.039(6)
O40_2 O 0.9466(3) 0.5624(2) 0.08621(17)
O35_3 O 0.8317(5) 0.3185(3) 1.000
H34_2 H 0.791(9) 0.315(3) 0.961(6)
Lu1_2 Lu 0.3333 0.6667 0.250
O1_2 O 0.23387(12) 0.4677(2) 0.250
O3_2 O 0.3905(2) 0.5851(2) 0.35240(14)
C1_2 C 0.2559(4) 0.4060(3) 0.3085(3)
H2_2 H 0.192 0.3634 0.3443
H3_2 H 0.2722 0.3554 0.2785
C2_2 C 0.3519(3) 0.4824(3) 0.3619(2)
O5_2 O 0.1946(3) 0.5851(2) 0.14760(14)
C3_2 C 0.1501(5) 0.4060(3) 0.1915(3)
H4_2 H 0.1714 0.3634 0.1557
H5_2 H 0.0832 0.3554 0.2215
C4_2 C 0.1305(4) 0.4824(3) 0.1381(2)
O7_2 O 0.5323(2) 0.76617(23) 0.250
O9_2 O 0.4149(2) 0.8054(3) 0.35240(14)
C5_2 C 0.5940(3) 0.8499(5) 0.3085(3)
H8_2 H 0.6366 0.8286 0.3443
H9_2 H 0.6446 0.9168 0.2785
C6_2 C 0.5176(3) 0.8695(4) 0.3619(2)
O11_2 O 0.4149(2) 0.6095(2) 0.14760(14)
C7_2 C 0.5940(3) 0.7441(4) 0.1915(3)
H10_2 H 0.6366 0.808 0.1557
H11_2 H 0.6446 0.7278 0.2215
C8_2 C 0.5176(3) 0.6481(3) 0.1381(2)
O13_2 O 0.23383(23) 0.76613(12) 0.250
O15_2 O 0.1946(3) 0.6095(2) 0.35240(14)
C9_2 C 0.1501(5) 0.7441(4) 0.3085(3)
H14_2 H 0.1714 0.808 0.3443
H15_2 H 0.0832 0.7278 0.2785
C10_2 C 0.1305(4) 0.6481(3) 0.3619(2)
O17_2 O 0.3905(2) 0.8054(3) 0.14760(14)
C11_2 C 0.2559(4) 0.8499(5) 0.1915(3)
H16_2 H 0.192 0.8286 0.1557
H17_2 H 0.2722 0.9168 0.2215
C12_2 C 0.3519(3) 0.8695(4) 0.1381(2)
Lu2_2 Lu 0.6667 0.3333 0.250
O19_2 O 0.76613(12) 0.5323(2) 0.250
O21_2 O 0.6095(2) 0.4149(2) 0.35240(14)
C13_2 C 0.7441(4) 0.5940(3) 0.3085(3)
H20_2 H 0.808 0.6366 0.3443
H21_2 H 0.7278 0.6446 0.2785
C14_2 C 0.6481(3) 0.5176(3) 0.3619(2)
O23_2 O 0.8054(3) 0.4149(2) 0.14760(14)
C15_2 C 0.8499(5) 0.5940(3) 0.1915(3)
H22_2 H 0.8286 0.6366 0.1557
H23_2 H 0.9168 0.6446 0.2215
C16_2 C 0.8695(4) 0.5176(3) 0.1381(2)
O25_2 O 0.4677(2) 0.23383(23) 0.250
O26_2 O 0.5851(2) 0.1946(3) 0.35240(14)
C17_2 C 0.4060(3) 0.1501(5) 0.3085(3)
H25_2 H 0.3634 0.1714 0.3443
H26_2 H 0.3554 0.0832 0.2785
C18_2 C 0.4824(3) 0.1305(4) 0.3619(2)
O28_2 O 0.5851(2) 0.3905(2) 0.14760(14)
C19_2 C 0.4060(3) 0.2559(4) 0.1915(3)
H27_2 H 0.3634 0.192 0.1557
H28_2 H 0.3554 0.2722 0.2215
C20_2 C 0.4824(3) 0.3519(3) 0.1381(2)
O30_2 O 0.76617(23) 0.23387(12) 0.250
O31_2 O 0.8054(3) 0.3905(2) 0.35240(14)
C21_2 C 0.8499(5) 0.2559(4) 0.3085(3)
H29_2 H 0.8286 0.192 0.3443
H30_2 H 0.9168 0.2722 0.2785
C22_2 C 0.8695(4) 0.3519(3) 0.3619(2)
O33_2 O 0.6095(2) 0.1946(3) 0.14760(14)
C23_2 C 0.7441(4) 0.1501(5) 0.1915(3)
H31_2 H 0.808 0.1714 0.1557
H32_2 H 0.7278 0.0832 0.2215
C24_2 C 0.6481(3) 0.1305(4) 0.1381(2)
loop_
_geom_bond_atom_site_label_1
_geom_bond_atom_site_label_2
_geom_bond_site_symmetry_1
_geom_bond_site_symmetry_2
O36 Cu3 1_555 1_555
H35 O36 1_555 1_555
H36 O36 1_555 1_555
O38 Cu3 1_555 1_555
O41 Cu3 1_555 1_555
Lu1 O1 1_555 1_555
Cu1 O2 1_555 1_555
O1 C1 1_555 1_555
O2 H1 1_555 1_555
O3 Lu1 1_555 1_555
O4 Cu1 1_555 1_555
C1 H2 1_555 1_555
H3 C1 1_555 1_555
C2 O3 1_555 1_555
O5 Lu1 1_555 1_555
O6 C4 1_555 1_555
C3 O1 1_555 1_555
H4 C3 1_555 1_555
H5 C3 1_555 1_555
C4 O5 1_555 1_555
H6 O2 1_555 1_555
Cu4 O8 1_555 1_555
O7 Lu1 1_555 1_555
O8 H7 1_555 1_555
O9 Lu1 1_555 1_555
O10 Cu4 1_555 1_555
C5 O7 1_555 1_555
H8 C5 1_555 1_555
H9 C5 1_555 1_555
C6 O9 1_555 1_555
O11 Lu1 1_555 1_555
O12 C8 1_555 1_555
C7 O7 1_555 1_555
H10 C7 1_555 1_555
H11 C7 1_555 1_555
C8 O11 1_555 1_555
H12 O8 1_555 1_555
Cu3_2 O14 1_555 1_555
O13 Lu1 1_555 1_555
O14 H13 1_555 1_555
O15 Lu1 1_555 1_555
O16 Cu3_2 1_555 1_555
C9 O13 1_555 1_555
H14 C9 1_555 1_555
H15 C9 1_555 1_555
C10 O15 1_555 1_555
O17 Lu1 1_555 1_555
O18 C12 1_555 1_555
C11 O13 1_555 1_555
H16 C11 1_555 1_555
H17 C11 1_555 1_555
C12 O17 1_555 1_555
H18 O14 1_555 1_555
Lu2 O19 1_555 1_555
O19 C13 1_555 1_555
O20 Cu1 1_555 1_555
H19 O20 1_555 1_555
O21 Lu2 1_555 1_555
O22 Cu1 1_555 1_555
C13 H20 1_555 1_555
H21 C13 1_555 1_555
C14 O21 1_555 1_555
O23 Lu2 1_555 1_555
O24 C16 1_555 1_555
C15 O19 1_555 1_555
H22 C15 1_555 1_555
H23 C15 1_555 1_555
C16 O23 1_555 1_555
H24 O20 1_555 1_555
O25 Lu2 1_555 1_555
O26 Lu2 1_555 1_555
O27 C18 1_555 1_555
C17 O25 1_555 1_555
H25 C17 1_555 1_555
H26 C17 1_555 1_555
C18 O26 1_555 1_555
O28 Lu2 1_555 1_555
O29 C20 1_555 1_555
C19 O25 1_555 1_555
H27 C19 1_555 1_555
H28 C19 1_555 1_555
C20 O28 1_555 1_555
O30 Lu2 1_555 1_555
O31 Lu2 1_555 1_555
O38 C22 1_555 1_555
C21 O30 1_555 1_555
H29 C21 1_555 1_555
H30 C21 1_555 1_555
C22 O31 1_555 1_555
O33 Lu2 1_555 1_555
O34 C24 1_555 1_555
C23 O30 1_555 1_555
H31 C23 1_555 1_555
H32 C23 1_555 1_555
C24 O33 1_555 1_555
Cu4_2 O27 1_555 1_555
Cu6_2 O12 1_555 1_555
Cu8_2 O24 1_555 1_555
Cu8_4 O6 1_555 1_555
Cu10_2 O18 1_555 1_555
Cu10_4 O34 1_555 1_555
O39 Cu1 1_555 1_555
O42 Cu1 1_555 1_555
O43 Cu4 1_555 1_555
O44 Cu3_2 1_555 1_555
O4 C2 1_555 1_555
C1 C2 1_555 1_555
C3 C4 1_555 1_555
O10 C6 1_555 1_555
C5 C6 1_555 1_555
C7 C8 1_555 1_555
O16 C10 1_555 1_555
C9 C10 1_555 1_555
C11 C12 1_555 1_555
O22 C14 1_555 1_555
C13 C14 1_555 1_555
C15 C16 1_555 1_555
C17 C18 1_555 1_555
O29 Cu6_2 1_555 1_555
C19 C20 1_555 1_555
C21 C22 1_555 1_555
C23 C24 1_555 1_555
O35 Cu4_2 1_555 1_555
H33 O35 1_555 1_555
H34 O35 1_555 1_555
O40 Cu4_2 1_555 1_555
O36_2 Cu10 1_555 1_555
H35_2 O36_2 1_555 1_555
O41_2 Cu10 1_555 1_555
O36_3 Cu10_2 1_555 1_555
H36_2 O36_3 1_555 1_555
Cu6 O2_2 1_555 1_555
O2_2 H1_2 1_555 1_555
Cu8 O8_2 1_555 1_555
O8_2 H7_2 1_555 1_555
Cu10_3 O14_2 1_555 1_555
O14_2 H13_2 1_555 1_555
O20_2 Cu6 1_555 1_555
H19_2 O20_2 1_555 1_555
O39_2 Cu6 1_555 1_555
O42_2 Cu6 1_555 1_555
O43_2 Cu8 1_555 1_555
O44_2 Cu10_3 1_555 1_555
Cu6_2 O2_3 1_555 1_555
H6_2 O2_3 1_555 1_555
Cu8_2 O8_3 1_555 1_555
H12_2 O8_3 1_555 1_555
Cu10_4 O14_3 1_555 1_555
H18_2 O14_3 1_555 1_555
O20_3 Cu6_2 1_555 1_555
H24_2 O20_3 1_555 1_555
O35_2 Cu8_3 1_555 1_555
H33_2 O35_2 1_555 1_555
O40_2 Cu8_3 1_555 1_555
O35_3 Cu8_4 1_555 1_555
H34_2 O35_3 1_555 1_555
Lu1_2 O1_2 1_555 1_555
O1_2 C1_2 1_555 1_555
O3_2 Lu1_2 1_555 1_555
C1_2 H2_2 1_555 1_555
H3_2 C1_2 1_555 1_555
C2_2 O3_2 1_555 1_555
O5_2 Lu1_2 1_555 1_555
O43_2 C4_2 1_555 1_555
C3_2 O1_2 1_555 1_555
H4_2 C3_2 1_555 1_555
H5_2 C3_2 1_555 1_555
C4_2 O5_2 1_555 1_555
O7_2 Lu1_2 1_555 1_555
O9_2 Lu1_2 1_555 1_555
C5_2 O7_2 1_555 1_555
H8_2 C5_2 1_555 1_555
H9_2 C5_2 1_555 1_555
C6_2 O9_2 1_555 1_555
O11_2 Lu1_2 1_555 1_555
O42_2 C8_2 1_555 1_555
C7_2 O7_2 1_555 1_555
H10_2 C7_2 1_555 1_555
H11_2 C7_2 1_555 1_555
C8_2 O11_2 1_555 1_555
O13_2 Lu1_2 1_555 1_555
O15_2 Lu1_2 1_555 1_555
C9_2 O13_2 1_555 1_555
H14_2 C9_2 1_555 1_555
H15_2 C9_2 1_555 1_555
C10_2 O15_2 1_555 1_555
O17_2 Lu1_2 1_555 1_555
O44_2 C12_2 1_555 1_555
C11_2 O13_2 1_555 1_555
H16_2 C11_2 1_555 1_555
H17_2 C11_2 1_555 1_555
C12_2 O17_2 1_555 1_555
Lu2_2 O19_2 1_555 1_555
O19_2 C13_2 1_555 1_555
O21_2 Lu2_2 1_555 1_555
C13_2 H20_2 1_555 1_555
H21_2 C13_2 1_555 1_555
C14_2 O21_2 1_555 1_555
O23_2 Lu2_2 1_555 1_555
O40_2 C16_2 1_555 1_555
C15_2 O19_2 1_555 1_555
H22_2 C15_2 1_555 1_555
H23_2 C15_2 1_555 1_555
C16_2 O23_2 1_555 1_555
O25_2 Lu2_2 1_555 1_555
O26_2 Lu2_2 1_555 1_555
O43 C18_2 1_555 1_555
C17_2 O25_2 1_555 1_555
H25_2 C17_2 1_555 1_555
H26_2 C17_2 1_555 1_555
C18_2 O26_2 1_555 1_555
O28_2 Lu2_2 1_555 1_555
O39_2 C20_2 1_555 1_555
C19_2 O25_2 1_555 1_555
H27_2 C19_2 1_555 1_555
H28_2 C19_2 1_555 1_555
C20_2 O28_2 1_555 1_555
O30_2 Lu2_2 1_555 1_555
O31_2 Lu2_2 1_555 1_555
O44 C22_2 1_555 1_555
C21_2 O30_2 1_555 1_555
H29_2 C21_2 1_555 1_555
H30_2 C21_2 1_555 1_555
C22_2 O31_2 1_555 1_555
O33_2 Lu2_2 1_555 1_555
O41_2 C24_2 1_555 1_555
C23_2 O30_2 1_555 1_555
H31_2 C23_2 1_555 1_555
H32_2 C23_2 1_555 1_555
C24_2 O33_2 1_555 1_555
O39 C2_2 1_555 1_555
C1_2 C2_2 1_555 1_555
C3_2 C4_2 1_555 1_555
O40 C6_2 1_555 1_555
C5_2 C6_2 1_555 1_555
C7_2 C8_2 1_555 1_555
O41 C10_2 1_555 1_555
C9_2 C10_2 1_555 1_555
C11_2 C12_2 1_555 1_555
O42 C14_2 1_555 1_555
C13_2 C14_2 1_555 1_555
C15_2 C16_2 1_555 1_555
C17_2 C18_2 1_555 1_555
C19_2 C20_2 1_555 1_555
C21_2 C22_2 1_555 1_555
C23_2 C24_2 1_555 1_555

#END
