
###############################################################################
#
# This file contains modified crystal structure data generated from the
# MOF subset of the Cambridge Structural Database (CSD) v543 
# hosted by the Cambridge Crystallographic Data Centre (CCDC).
#
# This work is licensed under the Creative Commons
# Attribution-NonCommercial-ShareAlike 4.0 International License.
# To view a copy of this license, visit
# http://creativecommons.org/licenses/by-nc-sa/4.0/
# or send a letter to
# Creative Commons, PO Box 1866, Mountain View, CA 94042, USA.
#
# CIF created using the CSD Python API on 29 September 2022
# The structure has been converted into the P1 space group
# The structure has a 3D framework
# The original CSD entry EDAFUM is in the monoclinic crystal system
# The framework has been calculated to contain at least 10.0% void space
# The void calculation uses a probe of radius 1.32A, grid spacing 0.4
#
###############################################################################

data_EDAFUM
_chemical_formula_moiety         '(C24 H24 Co21 O47)n'
_symmetry_cell_setting           triclinic
_symmetry_space_group_name_H-M   'P 1'
_symmetry_Int_Tables_number      1
_space_group_name_Hall           'P 1'
loop_
_symmetry_equiv_pos_site_id
_symmetry_equiv_pos_as_xyz
1 x,y,z
_cell_length_a                   11.3612(7)
_cell_length_b                   9.9603(2)
_cell_length_c                   14.8001(9)
_cell_angle_alpha                90
_cell_angle_beta                 91.527(8)
_cell_angle_gamma                90
_cell_volume                     1674.2
loop_
_atom_site_label
_atom_site_type_symbol
_atom_site_fract_x
_atom_site_fract_y
_atom_site_fract_z
Co1 Co 0.25620(4) 0.07285(5) 0.13366(3)
Co3 Co 0.5000 0.0000 0.0000
Co4 Co 0.0000 0.0000 0.0000
O1 O 0.3054(2) 0.1896(3) 0.24791(16)
O2 O 0.3074(3) 0.0481(3) 0.36570(18)
O7 O 0.1554(2) 0.2506(3) 0.11206(17)
O8 O 0.0171(3) 0.2064(3) 0.0055(2)
C1 C 0.3232(4) 0.1594(4) 0.3307(3)
H1 H 0.3507 0.2276 0.3687
C4 C 0.0748(4) 0.2841(4) 0.0552(3)
H4 H 0.0574 0.3751 0.0504
Co9 Co 0.25943(4) 0.37871(5) 0.19485(3)
O28 O 0.3998(2) 0.1485(3) 0.06593(18)
O33 O 0.6509(3) 0.1057(3) 0.0390(2)
Co3_2 Co 0.5000 0.0000 1.0000
Co4_2 Co -0.0000 0.0000 1.0000
Co13 Co -0.0000 0.5000 0.5000
O19 O 0.4846(3) 0.1181(3) 0.8842(2)
O21 O 0.0414(3) 0.0076(4) 0.8625(2)
H9 H 0.0200 0.0563 0.7433
Co2 Co 0.24057(4) 0.87871(5) 0.30515(3)
Co3_3 Co 0.5000 1.0000 0.0000
Co4_3 Co 0.0000 1.0000 0.0000
O3 O 0.3507(2) 0.9106(3) 0.19241(18)
O4 O 0.5154(3) 0.8819(3) 0.1158(2)
O5 O 0.1303(2) 0.9830(3) 0.21382(18)
O9 O 0.1069(3) 0.8666(3) 0.39653(19)
O10 O 0.1002(2) 0.6485(3) 0.43407(18)
O11 O 0.1855(2) 0.9733(3) 0.02295(18)
C2 C 0.4503(4) 0.8584(5) 0.1790(3)
H2 H 0.4770 0.7956 0.2213
C3 C 0.0193(4) 0.9713(5) 0.2056(3)
C5 C 0.0659(4) 0.7707(4) 0.4372(3)
H5 H 0.0032 0.7889 0.4744
Co6 Co 0.24380(4) 0.57285(5) 0.36634(3)
O14 O 0.1946(2) 0.6896(3) 0.25209(16)
O23 O 0.3446(2) 0.7506(3) 0.38794(17)
Co3_4 Co 0.5000 1.0000 1.0000
Co4_4 Co -0.0000 1.0000 1.0000
O12 O 0.3491(3) 0.8943(3) 0.9610(2)
C6 C 0.2420(4) 0.8996(4) 0.9675(3)
H6 H 0.1973 0.8452 0.9288
O30 O 0.6002(2) 0.8515(3) 0.93407(18)
Co4_5 Co 1.0000 0.0000 0.0000
C12 C 0.7580(4) 0.1004(4) 0.0325(3)
H12 H 0.8027 0.1548 0.0712
Co4_6 Co 1.0000 0.0000 1.0000
Co7 Co 0.75620(4) 0.42715(5) 0.63366(3)
Co8 Co 0.75943(4) 0.12129(5) 0.69485(3)
Co13_2 Co 1.0000 0.5000 0.5000
O15 O 0.8054(2) 0.3104(3) 0.74791(16)
O17 O 0.6493(2) 0.0894(3) 0.80759(18)
O20 O 0.8697(2) 0.0170(3) 0.78618(18)
O24 O 0.6554(2) 0.2494(3) 0.61206(17)
O26 O 0.8931(3) 0.1334(3) 0.60347(19)
O27 O 0.8998(2) 0.3515(3) 0.56593(18)
O31 O 0.8145(2) 0.0267(3) 0.97705(18)
C8 C 0.5497(4) 0.1416(5) 0.8210(3)
H8 H 0.5230 0.2044 0.7787
C9 C 0.9807(4) 0.0287(5) 0.7944(3)
C11 C 0.9341(4) 0.2293(4) 0.5628(3)
H11 H 0.9968 0.2111 0.5256
Co4_7 Co 1.0000 1.0000 0.0000
O6 O 0.9586(3) 0.9924(4) 0.1375(2)
H3 H 0.9800 0.9437 0.2567
Co4_8 Co 1.0000 1.0000 1.0000
Co5 Co 0.74380(4) 0.92715(5) 0.86634(3)
Co10 Co 0.74057(4) 0.62129(5) 0.80515(3)
O13 O 0.6946(2) 0.8104(3) 0.75209(16)
O16 O 0.6926(3) 0.9519(3) 0.63430(18)
O22 O 0.8446(2) 0.7494(3) 0.88794(17)
O25 O 0.9829(3) 0.7936(3) 0.9945(2)
C7 C 0.6768(4) 0.8406(4) 0.6693(3)
H7 H 0.6493 0.7724 0.6313
C10 C 0.9252(4) 0.7159(4) 0.9448(3)
H10 H 0.9426 0.6249 0.9496
O18 O 0.0154(3) 0.6181(3) 0.6158(2)
Co4_9 Co 0.5000 0.5000 0.5000
O2_2 O 0.1926(3) 0.5481(3) 0.13430(18)
O3_2 O 0.1493(2) 0.4106(3) 0.30759(18)
O5_2 O 0.3697(2) 0.4830(3) 0.28618(18)
O6_2 O 0.5414(3) 0.4924(4) 0.3625(2)
O8_2 O 0.4829(3) 0.7064(3) 0.4945(2)
O9_2 O 0.3931(3) 0.3666(3) 0.10347(19)
O11_2 O 0.3145(2) 0.4733(3) 0.47705(18)
O12_2 O 0.1509(3) 0.3943(3) 0.5390(2)
C1_2 C 0.1768(4) 0.6594(4) 0.1693(3)
H1_2 H 0.1493 0.7276 0.1313
C2_2 C 0.0497(4) 0.3584(5) 0.3210(3)
H2_2 H 0.0230 0.2956 0.2787
C3_2 C 0.4807(4) 0.4713(5) 0.2944(3)
H3_2 H 0.5200 0.4437 0.2433
C4_2 C 0.4252(4) 0.7841(4) 0.4448(3)
H4_2 H 0.4426 0.8751 0.4496
C5_2 C 0.4341(4) 0.2707(4) 0.0628(3)
H5_2 H 0.4968 0.2889 0.0256
C6_2 C 0.2580(4) 0.3996(4) 0.5325(3)
H6_2 H 0.3027 0.3452 0.5712
O16_2 O 0.8074(3) 0.4519(3) 0.86570(18)
O17_2 O 0.8507(2) 0.5894(3) 0.69241(18)
O20_2 O 0.6303(2) 0.5170(3) 0.71382(18)
O21_2 O 0.4586(3) 0.5076(4) 0.6375(2)
O25_2 O 0.5171(3) 0.2936(3) 0.5055(2)
O26_2 O 0.6069(3) 0.6334(3) 0.89653(19)
O31_2 O 0.6855(2) 0.5267(3) 0.52295(18)
O32 O 0.8491(3) 0.6057(3) 0.4610(2)
C7_2 C 0.8232(4) 0.3406(4) 0.8307(3)
H7_2 H 0.8507 0.2724 0.8687
C8_2 C 0.9503(4) 0.6416(5) 0.6790(3)
H8_2 H 0.9770 0.7044 0.7213
C9_2 C 0.5193(4) 0.5287(5) 0.7056(3)
H9_2 H 0.4800 0.5563 0.7567
C10_2 C 0.5748(4) 0.2159(4) 0.5552(3)
H10_2 H 0.5574 0.1249 0.5504
C11_2 C 0.5659(4) 0.7293(4) 0.9372(3)
H11_2 H 0.5032 0.7111 0.9744
C12_2 C 0.7420(4) 0.6004(4) 0.4675(3)
H12_2 H 0.6973 0.6548 0.4288
O4_2 O 0.9846(3) 0.3819(3) 0.3842(2)
loop_
_geom_bond_atom_site_label_1
_geom_bond_atom_site_label_2
_geom_bond_site_symmetry_1
_geom_bond_site_symmetry_2
Co1 O1 1_555 1_555
O1 C1 1_555 1_555
O2 C1 1_555 1_555
O7 Co1 1_555 1_555
O8 Co4 1_555 1_555
C1 H1 1_555 1_555
C4 O7 1_555 1_555
H4 C4 1_555 1_555
Co9 O1 1_555 1_555
O28 Co1 1_555 1_555
O33 Co3 1_555 1_555
Co3 O28 1_555 1_555
O7 Co9 1_555 1_555
O8 C4 1_555 1_555
O19 Co3_2 1_555 1_555
O21 Co4_2 1_555 1_555
Co3_3 O4 1_555 1_555
O4 C2 1_555 1_555
O9 Co2 1_555 1_555
O10 C5 1_555 1_555
C2 O3 1_555 1_555
H2 C2 1_555 1_555
C3 O5 1_555 1_555
C5 O9 1_555 1_555
H5 C5 1_555 1_555
Co6 O10 1_555 1_555
Co13 O10 1_555 1_555
O14 Co2 1_555 1_555
O23 Co2 1_555 1_555
Co2 O3 1_555 1_555
Co2 O5 1_555 1_555
Co4_3 O11 1_555 1_555
Co6 O14 1_555 1_555
Co6 O23 1_555 1_555
O12 Co3_4 1_555 1_555
H6 C6 1_555 1_555
O30 Co3_4 1_555 1_555
O12 C6 1_555 1_555
H12 C12 1_555 1_555
O33 C12 1_555 1_555
Co7 O15 1_555 1_555
Co8 O15 1_555 1_555
Co13_2 O27 1_555 1_555
O19 C8 1_555 1_555
O24 Co7 1_555 1_555
O26 Co8 1_555 1_555
O27 Co7 1_555 1_555
O31 Co4_6 1_555 1_555
C8 O17 1_555 1_555
H8 C8 1_555 1_555
C9 O20 1_555 1_555
C11 O26 1_555 1_555
H11 C11 1_555 1_555
Co8 O17 1_555 1_555
Co8 O20 1_555 1_555
Co8 O24 1_555 1_555
O27 C11 1_555 1_555
Co4_7 O6 1_555 1_555
Co5 O13 1_555 1_555
Co10 O13 1_555 1_555
O13 C7 1_555 1_555
O22 Co5 1_555 1_555
O25 Co4_8 1_555 1_555
O30 Co5 1_555 1_555
C7 O16 1_555 1_555
H7 C7 1_555 1_555
C10 O22 1_555 1_555
H10 C10 1_555 1_555
Co10 O22 1_555 1_555
O25 C10 1_555 1_555
Co13 O18 1_555 1_555
Co9 O2_2 1_555 1_555
Co4_9 O6_2 1_555 1_555
O14 C1_2 1_555 1_555
O2_2 C1_2 1_555 1_555
O3_2 Co6 1_555 1_555
O5_2 Co6 1_555 1_555
O6_2 C3_2 1_555 1_555
O8_2 Co4_9 1_555 1_555
O9_2 Co9 1_555 1_555
O28 C5_2 1_555 1_555
O11_2 Co6 1_555 1_555
O12_2 Co13 1_555 1_555
C1_2 H1_2 1_555 1_555
C2_2 O3_2 1_555 1_555
H2_2 C2_2 1_555 1_555
C3_2 O5_2 1_555 1_555
H3_2 C3_2 1_555 1_555
C4_2 O23 1_555 1_555
H4_2 C4_2 1_555 1_555
C5_2 O9_2 1_555 1_555
H5_2 C5_2 1_555 1_555
C6_2 O11_2 1_555 1_555
H6_2 C6_2 1_555 1_555
O15 C7_2 1_555 1_555
O16_2 Co10 1_555 1_555
O17_2 Co7 1_555 1_555
O20_2 Co7 1_555 1_555
O21_2 Co4_9 1_555 1_555
O25_2 Co4_9 1_555 1_555
O26_2 Co10 1_555 1_555
O31_2 Co4_9 1_555 1_555
O32 Co13_2 1_555 1_555
C7_2 O16_2 1_555 1_555
H7_2 C7_2 1_555 1_555
C8_2 O17_2 1_555 1_555
H8_2 C8_2 1_555 1_555
C9_2 O20_2 1_555 1_555
H9_2 C9_2 1_555 1_555
C10_2 O24 1_555 1_555
H10_2 C10_2 1_555 1_555
C11_2 O26_2 1_555 1_555
H11_2 C11_2 1_555 1_555
C12_2 O31_2 1_555 1_555
H12_2 C12_2 1_555 1_555
Co9 O3_2 1_555 1_555
Co9 O5_2 1_555 1_555
Co4_9 O11_2 1_555 1_555
O8_2 C4_2 1_555 1_555
O12_2 C6_2 1_555 1_555
Co7 O31_2 1_555 1_555
Co10 O17_2 1_555 1_555
Co10 O20_2 1_555 1_555
O21_2 C9_2 1_555 1_555
O25_2 C10_2 1_555 1_555
O30 C11_2 1_555 1_555
O32 C12_2 1_555 1_555
Co13_2 O4_2 1_555 1_555

#END
