
###############################################################################
#
# This file contains modified crystal structure data generated from the
# MOF subset of the Cambridge Structural Database (CSD) v543 
# hosted by the Cambridge Crystallographic Data Centre (CCDC).
#
# This work is licensed under the Creative Commons
# Attribution-NonCommercial-ShareAlike 4.0 International License.
# To view a copy of this license, visit
# http://creativecommons.org/licenses/by-nc-sa/4.0/
# or send a letter to
# Creative Commons, PO Box 1866, Mountain View, CA 94042, USA.
#
# CIF created using the CSD Python API on 29 September 2022
# The structure has been converted into the P1 space group
# The structure has a 3D framework
# The original CSD entry EDAPIK is in the tetragonal crystal system
# The original CSD entry EDAPIK is in a Sohncke space group
# The framework has been calculated to contain at least 10.0% void space
# The void calculation uses a probe of radius 1.32A, grid spacing 0.4
# H atom positions have been added when not included in the experimental data
#
###############################################################################

data_EDAPIK
_chemical_formula_moiety         '(C102 H96 Cl8 Cu6 N16 O16)n'
_symmetry_cell_setting           triclinic
_symmetry_space_group_name_H-M   'P 1'
_symmetry_Int_Tables_number      1
_space_group_name_Hall           'P 1'
loop_
_symmetry_equiv_pos_site_id
_symmetry_equiv_pos_as_xyz
1 x,y,z
_cell_length_a                   23.485(5)
_cell_length_b                   23.485(5)
_cell_length_c                   8.995(5)
_cell_angle_alpha                90
_cell_angle_beta                 90
_cell_angle_gamma                90
_cell_volume                     4961.15
loop_
_atom_site_label
_atom_site_type_symbol
_atom_site_fract_x
_atom_site_fract_y
_atom_site_fract_z
Cu2 Cu 0.176638(18) 0.176638(18) 0.5000
Cl2 Cl 0.23207(13) 0.12086(15) 0.2800(4)
Cl4 Cl 0.12086(15) 0.23207(13) 0.7200(4)
N3 N 0.10624(13) 0.16157(13) 0.3789(3)
N4 N 0.16157(13) 0.10624(13) 0.6211(3)
N9 N 0.18770(14) 0.25196(13) 0.3939(4)
N12 N 0.25196(13) 0.18770(14) 0.6061(4)
C14 C 0.10659(18) 0.1641(2) 0.2328(4)
C15 C 0.1641(2) 0.10659(18) 0.7672(4)
C17 C 0.06011(19) 0.1542(2) 0.1434(5)
C18 C 0.1542(2) 0.06011(19) 0.8566(5)
C20 C 0.00708(17) 0.14690(18) 0.2138(4)
C21 C 0.14690(18) 0.00708(17) 0.7862(4)
C23 C 0.00526(15) 0.14745(15) 0.3733(3)
C24 C 0.14745(15) 0.00526(15) 0.6267(3)
C26 C 0.05599(16) 0.15351(15) 0.4468(4)
C27 C 0.15351(15) 0.05599(16) 0.5532(4)
H13 H 0.146645 0.174827 0.178616
H16 H 0.152093 0.064179 0.977075
H17 H 0.174827 0.146645 0.821384
H18 H 0.064179 0.152093 0.0229252
H21 H 0.055517 0.151675 0.567766
H24 H 0.151675 0.055517 0.432234
Cu6 Cu 0.323362(18) 0.676638(18) -0.0000
Cu6_2 Cu 0.323362(18) 0.676638(18) 1.0000
O4 O 0.14083(11) 0.95870(11) 0.5440(2)
O5 O 0.04130(11) 0.85917(11) 0.4560(2)
O7 O 0.18273(9) 0.79356(9) 0.6711(2)
O8 O 0.20644(9) 0.81727(9) 0.3289(2)
N7 N 0.24804(13) 0.68770(14) 0.8939(4)
N8 N 0.31230(14) 0.75196(13) 0.1061(4)
C30 C 0.13598(16) 0.90768(14) 0.6158(4)
C31 C 0.09232(14) 0.86402(16) 0.3842(4)
C32 C 0.14119(14) 0.85881(14) 0.5000
C34 C 0.20920(18) 0.6439(2) 0.8939(5)
C35 C 0.3561(2) 0.79080(18) 0.1061(5)
C37 C 0.16070(16) 0.6492(2) 0.8100(6)
C38 C 0.3508(2) 0.83930(16) 0.1900(6)
C40 C 0.14945(15) 0.69983(17) 0.7311(5)
C41 C 0.30017(17) 0.85055(15) 0.2689(5)
C43 C 0.18609(14) 0.74158(15) 0.7399(4)
C44 C 0.25842(15) 0.81391(14) 0.2601(4)
C46 C 0.23770(16) 0.73397(15) 0.8231(4)
C47 C 0.26603(15) 0.76230(16) 0.1769(4)
C49 C 0.13298(18) 0.80209(16) 0.5730(4)
C50 C 0.19791(16) 0.86702(18) 0.4270(4)
H23 H 0.268829 0.768318 0.826177
H26 H 0.19803 0.906145 0.362022
H27 H 0.231443 0.868934 0.510468
H28 H 0.0947564 0.905226 0.670863
H29 H 0.169738 0.903732 0.698156
H30 H 0.0947742 0.905244 0.329137
H31 H 0.0962676 0.830262 0.301844
H32 H 0.394353 0.783198 0.0406149
H35 H 0.0938548 0.80197 0.637978
H36 H 0.131066 0.768557 0.489532
H37 H 0.140982 0.968394 0.851135
H38 H 0.231682 0.731171 0.173823
H41 H 0.111032 0.704065 0.664215
H42 H 0.295935 0.888968 0.335785
H43 H 0.031606 0.859018 0.148865
H44 H 0.130622 0.613976 0.804304
H47 H 0.216802 0.605647 0.959385
H48 H 0.386024 0.869378 0.195696
Cu4 Cu 0.676638(18) 0.323362(18) -0.0000
O1 O 0.85917(11) 0.04130(11) 0.5440(2)
O2 O 0.81727(9) 0.20644(9) 0.6711(2)
N2 N 0.75196(13) 0.31230(14) 0.8939(4)
C6 C 0.86402(16) 0.09232(14) 0.6158(4)
C7 C 0.85881(14) 0.14119(14) 0.5000
C8 C 0.79080(18) 0.3561(2) 0.8939(5)
C9 C 0.83930(16) 0.3508(2) 0.8100(6)
C10 C 0.85055(15) 0.30017(17) 0.7311(5)
C11 C 0.81391(14) 0.25842(15) 0.7399(4)
C12 C 0.76230(16) 0.26603(15) 0.8231(4)
C13 C 0.86702(18) 0.19791(16) 0.5730(4)
Cu4_2 Cu 0.676638(18) 0.323362(18) 1.0000
O3 O 0.95870(11) 0.14083(11) 0.4560(2)
O6 O 0.79356(9) 0.18273(9) 0.3289(2)
N6 N 0.68770(14) 0.24804(13) 0.1061(4)
C29 C 0.90768(14) 0.13598(16) 0.3842(4)
C33 C 0.6439(2) 0.20920(18) 0.1061(5)
C36 C 0.6492(2) 0.16070(16) 0.1900(6)
C39 C 0.69983(17) 0.14945(15) 0.2689(5)
C42 C 0.74158(15) 0.18609(14) 0.2601(4)
C45 C 0.73397(15) 0.23770(16) 0.1769(4)
C48 C 0.80209(16) 0.13298(18) 0.4270(4)
H2 H 0.888968 0.295935 0.664215
H3 H 0.905244 0.0947742 0.670863
H4 H 0.830262 0.0962676 0.698156
H6 H 0.731171 0.231682 0.826177
H8 H 0.906145 0.19803 0.637978
H9 H 0.868934 0.231443 0.489532
H10 H 0.783198 0.394353 0.959385
H11 H 0.869378 0.386024 0.804304
H12 H 0.859018 0.031606 0.851135
H19 H 0.968394 0.140982 0.148865
H22 H 0.613976 0.130622 0.195696
H25 H 0.704065 0.111032 0.335785
H33 H 0.768557 0.131066 0.510468
H34 H 0.80197 0.0938548 0.362022
H39 H 0.903732 0.169738 0.301844
H40 H 0.905226 0.0947564 0.329137
H45 H 0.768318 0.268829 0.173823
H46 H 0.605647 0.216802 0.0406149
Cu1 Cu 0.823362(18) 0.823362(18) 0.5000
Cl1 Cl 0.76793(13) 0.87914(15) 0.2800(4)
N1 N 0.83843(13) 0.89376(13) 0.6211(3)
C1 C 0.8359(2) 0.89341(18) 0.7672(4)
C2 C 0.8458(2) 0.93989(19) 0.8566(5)
C3 C 0.85310(18) 0.99292(17) 0.7862(4)
C4 C 0.85255(15) 0.99474(15) 0.6267(3)
C5 C 0.84649(15) 0.94401(16) 0.5532(4)
Cl3 Cl 0.87914(15) 0.76793(13) 0.7200(4)
N5 N 0.89376(13) 0.83843(13) 0.3789(3)
N10 N 0.81230(14) 0.74804(13) 0.3939(4)
N11 N 0.74804(13) 0.81230(14) 0.6061(4)
C16 C 0.89341(18) 0.8359(2) 0.2328(4)
C19 C 0.93989(19) 0.8458(2) 0.1434(5)
C22 C 0.99292(17) 0.85310(18) 0.2138(4)
C25 C 0.99474(15) 0.85255(15) 0.3733(3)
C28 C 0.94401(16) 0.84649(15) 0.4468(4)
H1 H 0.825173 0.853355 0.821384
H5 H 0.847907 0.935821 0.977075
H7 H 0.848325 0.944483 0.432234
H14 H 0.853355 0.825173 0.178616
H15 H 0.935821 0.847907 0.0229252
H20 H 0.944483 0.848325 0.567766
O1_2 O 0.45870(11) 0.35917(11) 0.0440(2)
O2_2 O 0.29356(9) 0.31727(9) 0.1711(2)
N1_2 N 0.60624(13) 0.33843(13) 0.1211(3)
C1_2 C 0.60659(18) 0.3359(2) 0.2672(4)
C2_2 C 0.56011(19) 0.3458(2) 0.3566(5)
C3_2 C 0.50708(17) 0.35310(18) 0.2862(4)
C4_2 C 0.50526(15) 0.35255(15) 0.1267(3)
C5_2 C 0.55599(16) 0.34649(15) 0.0532(4)
C6_2 C 0.40768(14) 0.36402(16) 0.1158(4)
C7_2 C 0.35881(14) 0.35881(14) -0.0000
C8_2 C 0.1439(2) 0.29080(18) 0.3939(5)
C9_2 C 0.1492(2) 0.33930(16) 0.3100(6)
C10_2 C 0.19983(17) 0.35055(15) 0.2311(5)
C11_2 C 0.24158(15) 0.31391(14) 0.2399(4)
C12_2 C 0.23397(15) 0.26230(16) 0.3231(4)
C13_2 C 0.30209(16) 0.36702(18) 0.0730(4)
Cl3_2 Cl 0.73207(13) 0.37914(15) 0.2200(4)
Cl4_2 Cl 0.26793(13) 0.62086(15) 0.2200(4)
O4_2 O 0.54130(11) 0.64083(11) 0.0440(2)
O7_2 O 0.70644(9) 0.68273(9) 0.1711(2)
N4_2 N 0.39376(13) 0.66157(13) 0.1211(3)
C15_2 C 0.39341(18) 0.6641(2) 0.2672(4)
C18_2 C 0.43989(19) 0.6542(2) 0.3566(5)
C21_2 C 0.49292(17) 0.64690(18) 0.2862(4)
C24_2 C 0.49474(15) 0.64745(15) 0.1267(3)
C27_2 C 0.44401(16) 0.65351(15) 0.0532(4)
C30_2 C 0.59232(14) 0.63598(16) 0.1158(4)
C32_2 C 0.64119(14) 0.64119(14) -0.0000
C34_2 C 0.8561(2) 0.70920(18) 0.3939(5)
C37_2 C 0.8508(2) 0.66070(16) 0.3100(6)
C40_2 C 0.80017(17) 0.64945(15) 0.2311(5)
C43_2 C 0.75842(15) 0.68609(14) 0.2399(4)
C46_2 C 0.76603(15) 0.73770(16) 0.3231(4)
C49_2 C 0.69791(16) 0.63298(18) 0.0730(4)
H1_2 H 0.646645 0.325173 0.321384
H2_2 H 0.204065 0.388968 0.164215
H3_2 H 0.405226 0.405244 0.170863
H4_2 H 0.403732 0.330262 0.198156
H5_2 H 0.564179 0.347907 0.477075
H6_2 H 0.268318 0.231171 0.326177
H8_2 H 0.30197 0.406145 0.137978
H10_2 H 0.105647 0.283198 0.459385
H11_2 H 0.113976 0.369378 0.304304
H12_2 H 0.468394 0.359018 0.351135
H16_2 H 0.435821 0.652093 0.477075
H17_2 H 0.353355 0.674827 0.321384
H20_2 H 0.651675 0.444483 0.0677661
H21_2 H 0.348325 0.555517 0.0677661
H23_2 H 0.731682 0.768829 0.326177
H27_2 H 0.631066 0.731443 0.010468
H28_2 H 0.594774 0.594756 0.170863
H29_2 H 0.596268 0.669738 0.198156
H33_2 H 0.368934 0.268557 0.010468
H35_2 H 0.69803 0.593855 0.137978
H37_2 H 0.531606 0.640982 0.351135
H41_2 H 0.795935 0.611032 0.164215
H44_2 H 0.886024 0.630622 0.304304
H47_2 H 0.894353 0.716802 0.459385
Cl1_2 Cl 0.62086(15) 0.26793(13) 0.7800(4)
C7_3 C 0.35881(14) 0.35881(14) 1.0000
Cl2_2 Cl 0.37914(15) 0.73207(13) 0.7800(4)
O3_2 O 0.35917(11) 0.45870(11) 0.9560(2)
O5_2 O 0.64083(11) 0.54130(11) 0.9560(2)
O6_2 O 0.31727(9) 0.29356(9) 0.8289(2)
O8_2 O 0.68273(9) 0.70644(9) 0.8289(2)
N3_2 N 0.33843(13) 0.60624(13) 0.8789(3)
N5_2 N 0.66157(13) 0.39376(13) 0.8789(3)
C14_2 C 0.3359(2) 0.60659(18) 0.7328(4)
C16_2 C 0.6641(2) 0.39341(18) 0.7328(4)
C17_2 C 0.3458(2) 0.56011(19) 0.6434(5)
C19_2 C 0.6542(2) 0.43989(19) 0.6434(5)
C20_2 C 0.35310(18) 0.50708(17) 0.7138(4)
C22_2 C 0.64690(18) 0.49292(17) 0.7138(4)
C23_2 C 0.35255(15) 0.50526(15) 0.8733(3)
C25_2 C 0.64745(15) 0.49474(15) 0.8733(3)
C26_2 C 0.34649(15) 0.55599(16) 0.9468(4)
C28_2 C 0.65351(15) 0.44401(16) 0.9468(4)
C29_2 C 0.36402(16) 0.40768(14) 0.8842(4)
C31_2 C 0.63598(16) 0.59232(14) 0.8842(4)
C32_3 C 0.64119(14) 0.64119(14) 1.0000
C33_2 C 0.29080(18) 0.1439(2) 0.6061(5)
C35_2 C 0.70920(18) 0.8561(2) 0.6061(5)
C36_2 C 0.33930(16) 0.1492(2) 0.6900(6)
C38_2 C 0.66070(16) 0.8508(2) 0.6900(6)
C39_2 C 0.35055(15) 0.19983(17) 0.7689(5)
C41_2 C 0.64945(15) 0.80017(17) 0.7689(5)
C42_2 C 0.31391(14) 0.24158(15) 0.7601(4)
C44_2 C 0.68609(14) 0.75842(15) 0.7601(4)
C45_2 C 0.26230(16) 0.23397(15) 0.6769(4)
C47_2 C 0.73770(16) 0.76603(15) 0.6769(4)
C48_2 C 0.36702(18) 0.30209(16) 0.9270(4)
C50_2 C 0.63298(18) 0.69791(16) 0.9270(4)
H7_2 H 0.555517 0.348325 0.932234
H9_2 H 0.268557 0.368934 0.989532
H13_2 H 0.325173 0.646645 0.678616
H14_2 H 0.674827 0.353355 0.678616
H15_2 H 0.652093 0.435821 0.522925
H18_2 H 0.347907 0.564179 0.522925
H19_2 H 0.359018 0.468394 0.648865
H22_2 H 0.369378 0.113976 0.695696
H24_2 H 0.444483 0.651675 0.932234
H25_2 H 0.388968 0.204065 0.835785
H26_2 H 0.593855 0.69803 0.862022
H30_2 H 0.594756 0.594774 0.829137
H31_2 H 0.669738 0.596268 0.801844
H32_2 H 0.716802 0.894353 0.540615
H34_2 H 0.406145 0.30197 0.862022
H36_2 H 0.731443 0.631066 0.989532
H38_2 H 0.768829 0.731682 0.673823
H39_2 H 0.330262 0.403732 0.801844
H40_2 H 0.405244 0.405226 0.829137
H42_2 H 0.611032 0.795935 0.835785
H43_2 H 0.640982 0.531606 0.648865
H45_2 H 0.231171 0.268318 0.673823
H46_2 H 0.283198 0.105647 0.540615
H48_2 H 0.630622 0.886024 0.695696
loop_
_geom_bond_atom_site_label_1
_geom_bond_atom_site_label_2
_geom_bond_site_symmetry_1
_geom_bond_site_symmetry_2
Cu2 Cl2 1_555 1_555
Cl4 Cu2 1_555 1_555
N3 Cu2 1_555 1_555
N4 Cu2 1_555 1_555
N9 Cu2 1_555 1_555
N12 Cu2 1_555 1_555
C14 N3 1_555 1_555
C15 N4 1_555 1_555
C17 C14 1_555 1_555
C18 C15 1_555 1_555
C20 C17 1_555 1_555
C21 C18 1_555 1_555
C23 C20 1_555 1_555
C24 C21 1_555 1_555
C26 N3 1_555 1_555
C27 N4 1_555 1_555
C23 C26 1_555 1_555
C24 C27 1_555 1_555
C14 H13 1_555 1_555
C18 H16 1_555 1_555
C15 H17 1_555 1_555
C17 H18 1_555 1_555
C26 H21 1_555 1_555
C27 H24 1_555 1_555
Cu6 N8 1_555 1_555
Cu6_2 N7 1_555 1_555
O7 C43 1_555 1_555
O8 C44 1_555 1_555
N7 C34 1_555 1_555
N8 C35 1_555 1_555
C30 O4 1_555 1_555
C31 O5 1_555 1_555
C32 C30 1_555 1_555
C34 C37 1_555 1_555
C35 C38 1_555 1_555
C37 C40 1_555 1_555
C38 C41 1_555 1_555
C40 C43 1_555 1_555
C41 C44 1_555 1_555
C43 C46 1_555 1_555
C44 C47 1_555 1_555
C46 N7 1_555 1_555
C47 N8 1_555 1_555
C49 O7 1_555 1_555
C50 O8 1_555 1_555
C31 C32 1_555 1_555
C32 C49 1_555 1_555
C32 C50 1_555 1_555
C46 H23 1_555 1_555
C50 H26 1_555 1_555
C50 H27 1_555 1_555
C30 H28 1_555 1_555
C30 H29 1_555 1_555
C31 H30 1_555 1_555
C31 H31 1_555 1_555
C35 H32 1_555 1_555
C49 H35 1_555 1_555
C49 H36 1_555 1_555
C47 H38 1_555 1_555
C40 H41 1_555 1_555
C41 H42 1_555 1_555
C37 H44 1_555 1_555
C34 H47 1_555 1_555
C38 H48 1_555 1_555
O2 C11 1_555 1_555
N2 C8 1_555 1_555
C6 O1 1_555 1_555
C7 C6 1_555 1_555
C8 C9 1_555 1_555
C9 C10 1_555 1_555
C10 C11 1_555 1_555
C11 C12 1_555 1_555
C12 N2 1_555 1_555
C13 O2 1_555 1_555
Cu4 N6 1_555 1_555
Cu4_2 N2 1_555 1_555
O6 C42 1_555 1_555
N6 C33 1_555 1_555
C29 C7 1_555 1_555
C33 C36 1_555 1_555
C36 C39 1_555 1_555
C39 C42 1_555 1_555
C42 C45 1_555 1_555
C45 N6 1_555 1_555
C48 C7 1_555 1_555
C7 C13 1_555 1_555
O3 C29 1_555 1_555
O6 C48 1_555 1_555
C10 H2 1_555 1_555
C6 H3 1_555 1_555
C6 H4 1_555 1_555
C12 H6 1_555 1_555
C13 H8 1_555 1_555
C13 H9 1_555 1_555
C8 H10 1_555 1_555
C9 H11 1_555 1_555
C36 H22 1_555 1_555
C39 H25 1_555 1_555
C48 H33 1_555 1_555
C48 H34 1_555 1_555
C29 H39 1_555 1_555
C29 H40 1_555 1_555
C45 H45 1_555 1_555
C33 H46 1_555 1_555
Cu1 Cl1 1_555 1_555
N1 Cu1 1_555 1_555
C1 N1 1_555 1_555
C2 C1 1_555 1_555
C3 C2 1_555 1_555
C4 C3 1_555 1_555
C5 N1 1_555 1_555
Cl3 Cu1 1_555 1_555
N5 Cu1 1_555 1_555
N10 Cu1 1_555 1_555
N11 Cu1 1_555 1_555
C16 N5 1_555 1_555
C19 C16 1_555 1_555
C22 C19 1_555 1_555
C25 C22 1_555 1_555
C28 N5 1_555 1_555
C4 C5 1_555 1_555
C25 C28 1_555 1_555
C1 H1 1_555 1_555
C2 H5 1_555 1_555
C5 H7 1_555 1_555
C16 H14 1_555 1_555
C19 H15 1_555 1_555
C28 H20 1_555 1_555
O1_2 C4_2 1_555 1_555
O2_2 C11_2 1_555 1_555
N1_2 Cu4 1_555 1_555
N9 C8_2 1_555 1_555
C1_2 N1_2 1_555 1_555
C2_2 C1_2 1_555 1_555
C3_2 C2_2 1_555 1_555
C4_2 C3_2 1_555 1_555
C5_2 N1_2 1_555 1_555
C6_2 O1_2 1_555 1_555
C7_2 C6_2 1_555 1_555
C8_2 C9_2 1_555 1_555
C9_2 C10_2 1_555 1_555
C10_2 C11_2 1_555 1_555
C11_2 C12_2 1_555 1_555
C12_2 N9 1_555 1_555
C13_2 O2_2 1_555 1_555
Cl3_2 Cu4 1_555 1_555
Cl4_2 Cu6 1_555 1_555
O4_2 C24_2 1_555 1_555
O7_2 C43_2 1_555 1_555
N4_2 Cu6 1_555 1_555
N10 C34_2 1_555 1_555
C15_2 N4_2 1_555 1_555
C18_2 C15_2 1_555 1_555
C21_2 C18_2 1_555 1_555
C24_2 C21_2 1_555 1_555
C27_2 N4_2 1_555 1_555
C30_2 O4_2 1_555 1_555
C32_2 C30_2 1_555 1_555
C34_2 C37_2 1_555 1_555
C37_2 C40_2 1_555 1_555
C40_2 C43_2 1_555 1_555
C43_2 C46_2 1_555 1_555
C46_2 N10 1_555 1_555
C49_2 O7_2 1_555 1_555
C4_2 C5_2 1_555 1_555
C7_2 C13_2 1_555 1_555
C24_2 C27_2 1_555 1_555
C32_2 C49_2 1_555 1_555
C1_2 H1_2 1_555 1_555
C10_2 H2_2 1_555 1_555
C6_2 H3_2 1_555 1_555
C6_2 H4_2 1_555 1_555
C2_2 H5_2 1_555 1_555
C12_2 H6_2 1_555 1_555
C13_2 H8_2 1_555 1_555
C8_2 H10_2 1_555 1_555
C9_2 H11_2 1_555 1_555
C3_2 H12_2 1_555 1_555
C18_2 H16_2 1_555 1_555
C15_2 H17_2 1_555 1_555
C46_2 H23_2 1_555 1_555
C30_2 H28_2 1_555 1_555
C30_2 H29_2 1_555 1_555
C49_2 H35_2 1_555 1_555
C21_2 H37_2 1_555 1_555
C40_2 H41_2 1_555 1_555
C37_2 H44_2 1_555 1_555
C34_2 H47_2 1_555 1_555
Cu4_2 Cl1_2 1_555 1_555
Cu6_2 Cl2_2 1_555 1_555
O3_2 C23_2 1_555 1_555
O5_2 C25_2 1_555 1_555
O6_2 C42_2 1_555 1_555
O8_2 C44_2 1_555 1_555
N3_2 Cu6_2 1_555 1_555
N5_2 Cu4_2 1_555 1_555
N12 C33_2 1_555 1_555
N11 C35_2 1_555 1_555
C14_2 N3_2 1_555 1_555
C16_2 N5_2 1_555 1_555
C17_2 C14_2 1_555 1_555
C19_2 C16_2 1_555 1_555
C20_2 C17_2 1_555 1_555
C22_2 C19_2 1_555 1_555
C23_2 C20_2 1_555 1_555
C25_2 C22_2 1_555 1_555
C26_2 N3_2 1_555 1_555
C28_2 N5_2 1_555 1_555
C29_2 C7_3 1_555 1_555
C31_2 O5_2 1_555 1_555
C33_2 C36_2 1_555 1_555
C35_2 C38_2 1_555 1_555
C36_2 C39_2 1_555 1_555
C38_2 C41_2 1_555 1_555
C39_2 C42_2 1_555 1_555
C41_2 C44_2 1_555 1_555
C42_2 C45_2 1_555 1_555
C44_2 C47_2 1_555 1_555
C45_2 N12 1_555 1_555
C47_2 N11 1_555 1_555
C48_2 C7_3 1_555 1_555
C50_2 O8_2 1_555 1_555
O3_2 C29_2 1_555 1_555
O6_2 C48_2 1_555 1_555
C23_2 C26_2 1_555 1_555
C25_2 C28_2 1_555 1_555
C31_2 C32_3 1_555 1_555
C32_3 C50_2 1_555 1_555
C14_2 H13_2 1_555 1_555
C16_2 H14_2 1_555 1_555
C19_2 H15_2 1_555 1_555
C17_2 H18_2 1_555 1_555
C20_2 H19_2 1_555 1_555
C36_2 H22_2 1_555 1_555
C39_2 H25_2 1_555 1_555
C50_2 H26_2 1_555 1_555
C31_2 H30_2 1_555 1_555
C31_2 H31_2 1_555 1_555
C35_2 H32_2 1_555 1_555
C48_2 H34_2 1_555 1_555
C47_2 H38_2 1_555 1_555
C29_2 H39_2 1_555 1_555
C29_2 H40_2 1_555 1_555
C41_2 H42_2 1_555 1_555
C22_2 H43_2 1_555 1_555
C45_2 H45_2 1_555 1_555
C33_2 H46_2 1_555 1_555
C38_2 H48_2 1_555 1_555

#END
