
###############################################################################
#
# This file contains modified crystal structure data generated from the
# MOF subset of the Cambridge Structural Database (CSD) v543 
# hosted by the Cambridge Crystallographic Data Centre (CCDC).
#
# This work is licensed under the Creative Commons
# Attribution-NonCommercial-ShareAlike 4.0 International License.
# To view a copy of this license, visit
# http://creativecommons.org/licenses/by-nc-sa/4.0/
# or send a letter to
# Creative Commons, PO Box 1866, Mountain View, CA 94042, USA.
#
# CIF created using the CSD Python API on 29 September 2022
# The structure has been converted into the P1 space group
# The structure has a 3D framework
# The original CSD entry EDOREU is in the triclinic crystal system
# The framework has been calculated to contain at least 10.0% void space
# The void calculation uses a probe of radius 1.32A, grid spacing 0.4
#
###############################################################################

data_EDOREU
_chemical_formula_moiety         '(C20 H16 Cu4 Mo4 N4 O14)n'
_symmetry_cell_setting           triclinic
_symmetry_space_group_name_H-M   'P 1'
_symmetry_Int_Tables_number      1
_space_group_name_Hall           'P 1'
loop_
_symmetry_equiv_pos_site_id
_symmetry_equiv_pos_as_xyz
1 x,y,z
_cell_length_a                   7.4488(2)
_cell_length_b                   9.2576(1)
_cell_length_c                   13.9332(4)
_cell_angle_alpha                71.992(2)
_cell_angle_beta                 89.745(2)
_cell_angle_gamma                73.640(2)
_cell_volume                     873.141
loop_
_atom_site_label
_atom_site_type_symbol
_atom_site_fract_x
_atom_site_fract_y
_atom_site_fract_z
Cu1 Cu 0.10258(17) 0.06988(13) 0.39908(9)
O8 O 0.4023(9) 0.1194(7) 0.4050(5)
N1 N 0.0265(12) 0.1652(9) 0.2514(6)
C6 C 0.1010(15) 0.0931(12) 0.1842(8)
C9 C 0.0492(17) 0.1596(12) 0.0810(8)
H8 H 0.1063 0.1065 0.0370
O12 O 0.0025(9) 0.2756(7) 0.4258(5)
Cu6 Cu 0.30357(17) 0.33574(13) 0.42531(9)
Mo1 Mo 0.19658(12) 0.68816(10) 0.50206(6)
Mo2 Mo 0.37006(12) 0.00472(10) 0.60852(6)
O2 O 0.1835(10) 0.8529(7) 0.3924(5)
O3 O 0.3509(9) 0.2090(7) 0.5710(5)
O5 O 0.1948(9) 0.5298(7) 0.4598(5)
O6 O 0.4040(9) 0.6332(8) 0.5796(5)
H5 H 0.1912 0.9944 0.2080
O11 O 0.1833(9) 0.9673(7) 0.5484(5)
O13 O 0.5960(9) 0.3668(8) 0.4204(5)
N3 N 0.2426(11) 0.4570(9) 0.2764(6)
Cu4 Cu 0.69643(17) 0.66426(13) 0.57469(9)
Mo4 Mo 0.62994(12) 0.99528(10) 0.39148(6)
O1 O 0.3453(10) 0.9462(8) 0.7350(5)
O10 O 0.5977(9) 0.8806(7) 0.5950(5)
O4 O 0.8167(9) 0.0327(7) 0.4516(5)
C7 C 0.8966(15) 0.3044(13) 0.2156(8)
H6 H 0.8438 0.3564 0.2610
C8 C 0.8354(17) 0.3767(13) 0.1132(8)
H7 H 0.7419 0.4737 0.0920
C10 C 0.9120(14) 0.3057(11) 0.0430(7)
N2 N 0.7574(11) 0.5430(9) 0.7236(6)
C1 C 0.8564(14) 0.3835(11) 0.9330(7)
C2 C 0.9387(18) 0.3217(14) 0.8596(8)
C3 C 0.8911(17) 0.4033(13) 0.7586(8)
H2 H 0.9547 0.3594 0.7119
C4 C 0.6670(16) 0.6014(12) 0.7943(8)
H3 H 0.5692 0.6957 0.7728
C5 C 0.7140(15) 0.5271(13) 0.8961(8)
H4 H 0.6496 0.5733 0.9417
O7 O 0.9975(9) 0.7244(7) 0.5742(5)
Cu3 Cu 0.89742(17) 0.93012(13) 0.60092(9)
C1_2 C 0.1436(14) 0.6165(11) 0.0670(7)
C2_2 C 0.0613(18) 0.6783(14) 0.1404(8)
C3_2 C 0.1089(17) 0.5967(13) 0.2414(8)
H2_2 H 0.0453 0.6406 0.2881
C4_2 C 0.3330(16) 0.3986(12) 0.2057(8)
H3_2 H 0.4308 0.3043 0.2272
C5_2 C 0.2860(15) 0.4729(13) 0.1039(8)
H4_2 H 0.3504 0.4267 0.0583
C7_2 C 0.1034(15) 0.6956(13) 0.7844(8)
H6_2 H 0.1562 0.6436 0.7390
C8_2 C 0.1646(17) 0.6233(13) 0.8868(8)
H7_2 H 0.2581 0.5263 0.9080
C10_2 C 0.0880(14) 0.6943(11) 0.9570(7)
O1_2 O 0.6547(10) 0.0538(8) 0.2650(5)
Mo1_2 Mo 0.80342(12) 0.31184(10) 0.49794(6)
O2_2 O 0.8165(10) 0.1471(7) 0.6076(5)
O3_2 O 0.6491(9) 0.7910(7) 0.4290(5)
O5_2 O 0.8052(9) 0.4702(7) 0.5402(5)
H5_2 H 0.8088 0.0056 0.7920
N1_2 N 0.9735(12) 0.8348(9) 0.7486(6)
C6_2 C 0.8990(15) 0.9069(12) 0.8158(8)
C9_2 C 0.9508(17) 0.8404(12) 0.9190(8)
H8_2 H 0.8937 0.8935 0.9630
H1 H 0.0284 0.2225 0.8793
H1_2 H 0.9716 0.7775 0.1207
loop_
_geom_bond_atom_site_label_1
_geom_bond_atom_site_label_2
_geom_bond_site_symmetry_1
_geom_bond_site_symmetry_2
O8 Cu1 1_555 1_555
N1 Cu1 1_555 1_555
C6 N1 1_555 1_555
C9 C6 1_555 1_555
H8 C9 1_555 1_555
O12 Cu1 1_555 1_555
Cu6 O8 1_555 1_555
O12 Cu6 1_555 1_555
Mo1 O2 1_555 1_555
Cu6 O3 1_555 1_555
O3 Mo2 1_555 1_555
O5 Mo1 1_555 1_555
O6 Mo1 1_555 1_555
O13 Cu6 1_555 1_555
N3 Cu6 1_555 1_555
Cu4 O6 1_555 1_555
Cu6 O5 1_555 1_555
H6 C7 1_555 1_555
C8 C7 1_555 1_555
H7 C8 1_555 1_555
C8 C10 1_555 1_555
N2 C3 1_555 1_555
C1 C2 1_555 1_555
C3 C2 1_555 1_555
H2 C3 1_555 1_555
C4 N2 1_555 1_555
H3 C4 1_555 1_555
C5 C1 1_555 1_555
H4 C5 1_555 1_555
Cu4 N2 1_555 1_555
C4 C5 1_555 1_555
Cu4 O7 1_555 1_555
O7 Cu3 1_555 1_555
N3 C3_2 1_555 1_555
C1_2 C2_2 1_555 1_555
C3_2 C2_2 1_555 1_555
H2_2 C3_2 1_555 1_555
C4_2 N3 1_555 1_555
H3_2 C4_2 1_555 1_555
C5_2 C1_2 1_555 1_555
H4_2 C5_2 1_555 1_555
C4_2 C5_2 1_555 1_555
H6_2 C7_2 1_555 1_555
C8_2 C7_2 1_555 1_555
H7_2 C8_2 1_555 1_555
C8_2 C10_2 1_555 1_555
Mo1_2 O2_2 1_555 1_555
Cu4 O3_2 1_555 1_555
O3_2 Mo4 1_555 1_555
O5_2 Mo1_2 1_555 1_555
O13 Mo1_2 1_555 1_555
O10 Cu4 1_555 1_555
Cu4 O5_2 1_555 1_555
O10 Cu3 1_555 1_555
N1_2 Cu3 1_555 1_555
C6_2 N1_2 1_555 1_555
C9_2 C6_2 1_555 1_555
H8_2 C9_2 1_555 1_555

#END
