
###############################################################################
#
# This file contains modified crystal structure data generated from the
# MOF subset of the Cambridge Structural Database (CSD) v543 
# hosted by the Cambridge Crystallographic Data Centre (CCDC).
#
# This work is licensed under the Creative Commons
# Attribution-NonCommercial-ShareAlike 4.0 International License.
# To view a copy of this license, visit
# http://creativecommons.org/licenses/by-nc-sa/4.0/
# or send a letter to
# Creative Commons, PO Box 1866, Mountain View, CA 94042, USA.
#
# CIF created using the CSD Python API on 29 September 2022
# The structure has been converted into the P1 space group
# The structure has a 3D framework
# The original CSD entry EDOYAA is in the monoclinic crystal system
# The framework has been calculated to contain at least 10.0% void space
# The void calculation uses a probe of radius 1.32A, grid spacing 0.4
#
###############################################################################

data_EDOYAA
_chemical_formula_moiety         '(C120 H96 N16 O48 Zn4)n'
_symmetry_cell_setting           triclinic
_symmetry_space_group_name_H-M   'P 1'
_symmetry_Int_Tables_number      1
_space_group_name_Hall           'P 1'
loop_
_symmetry_equiv_pos_site_id
_symmetry_equiv_pos_as_xyz
1 x,y,z
_cell_length_a                   19.1594(9)
_cell_length_b                   12.3790(6)
_cell_length_c                   25.4170(12)
_cell_angle_alpha                90
_cell_angle_beta                 94.241(2)
_cell_angle_gamma                90
_cell_volume                     6011.75
loop_
_atom_site_label
_atom_site_type_symbol
_atom_site_fract_x
_atom_site_fract_y
_atom_site_fract_z
O2 O 0.4683(3) 0.0033(6) 0.2021(2)
O3 O 0.0464(3) 0.2276(5) 0.2204(2)
O4 O 0.0205(3) 0.3938(5) 0.1891(2)
C5 C 0.3041(4) 0.0945(8) 0.0490(3)
C6 C 0.3355(6) 0.1544(10) 0.0893(4)
H5 H 0.3290 0.2305 0.0898
C7 C 0.3770(6) 0.1044(10) 0.1295(4)
H6 H 0.4001 0.1468 0.1567
C8 C 0.2637(4) 0.1503(8) 0.0060(3)
C9 C 0.2079(4) 0.2174(8) 0.0081(3)
C10 C 0.1642(4) 0.2404(7) 0.0527(3)
C11 C 0.1495(4) 0.1566(8) 0.0865(3)
H7 H 0.1651 0.0854 0.0799
C12 C 0.1119(5) 0.1774(8) 0.1299(3)
H8 H 0.1025 0.1205 0.1534
C13 C 0.0884(4) 0.2796(7) 0.1391(3)
C14 C 0.1010(5) 0.3618(8) 0.1047(3)
H9 H 0.0830 0.4320 0.1105
C15 C 0.1399(5) 0.3428(8) 0.0616(3)
H10 H 0.1496 0.4003 0.0385
C16 C 0.0483(4) 0.3024(7) 0.1870(3)
Zn6 Zn 0.00829(6) 0.22202(9) 0.29223(4)
O16 O 0.5936(3) 0.0575(5) 0.2938(2)
O5 O 0.4219(3) 0.1732(5) 0.78478(19)
O6 O 0.3525(3) 0.1913(6) 0.7111(2)
O7 O 0.1539(4) 0.4561(7) 0.7224(2)
O8 O 0.0936(3) 0.4425(5) 0.7938(2)
N1 N 0.2834(3) 0.1562(6) 0.9552(2)
H1 H 0.3179 0.1193 0.9429
N2 N 0.1960(3) 0.2629(6) 0.9586(2)
H2 H 0.1625 0.3092 0.9493
C17 C 0.2431(4) 0.2255(7) 0.9274(3)
C18 C 0.2485(4) 0.2550(7) 0.8715(3)
C19 C 0.1969(4) 0.3198(7) 0.8464(3)
H11 H 0.1587 0.3437 0.8652
C20 C 0.2009(4) 0.3498(7) 0.7940(3)
C21 C 0.2562(4) 0.3126(7) 0.7664(3)
H12 H 0.2588 0.3323 0.7305
C22 C 0.3075(4) 0.2472(7) 0.7910(3)
C23 C 0.3048(4) 0.2199(7) 0.8437(3)
H13 H 0.3410 0.1776 0.8609
C24 C 0.1465(4) 0.4231(7) 0.7674(3)
C25 C 0.3632(4) 0.2034(7) 0.7587(3)
Zn4 Zn 0.46231(4) 0.05335(8) 0.74401(3)
Zn5 Zn 0.03769(4) 0.55335(8) 0.75599(3)
Zn7 Zn 0.50829(6) 0.27798(9) 0.79223(4)
Zn1 Zn 0.53769(4) 0.94665(8) 0.25599(3)
Zn2 Zn 0.49171(6) 0.72202(9) 0.20777(4)
O1 O 0.4314(4) 0.8408(6) 0.1740(3)
C1 C 0.4322(4) 0.9417(8) 0.1714(3)
C2 C 0.3846(4) 0.9946(8) 0.1302(3)
C3 C 0.3514(5) 0.9344(9) 0.0903(3)
H3 H 0.3558 0.8580 0.0909
C4 C 0.3120(5) 0.9831(8) 0.0498(3)
H4 H 0.2900 0.9405 0.0223
O9 O 0.5581(4) 0.5982(7) 0.2319(4)
N3 N 0.5740(6) 0.4252(8) 0.2547(6)
C26 C 0.5368(6) 0.5126(11) 0.2504(5)
H14 H 0.4908 0.5110 0.2620
C27 C 0.6490(6) 0.4274(11) 0.2468(7)
H15 H 0.6721 0.3680 0.2675
H16 H 0.6688 0.4963 0.2609
C28 C 0.6662(10) 0.416(2) 0.1907(8)
H17 H 0.7171 0.4183 0.1889
H18 H 0.6448 0.4759 0.1699
H19 H 0.6479 0.3474 0.1765
C29 C 0.5411(10) 0.3217(15) 0.2675(10)
H20 H 0.5764 0.2766 0.2876
H21 H 0.5030 0.3366 0.2908
C30 C 0.5144(17) 0.2646(18) 0.2257(14)
H22 H 0.4936 0.1977 0.2379
H23 H 0.5518 0.2471 0.2028
H24 H 0.4784 0.3076 0.2059
O10 O 0.4068(11) 0.6095(12) 0.1833(5)
O11 O 0.5049(12) 0.6596(13) 0.1293(5)
O12 O 0.4340(17) 0.527(2) 0.1031(8)
N4 N 0.4456(16) 0.6004(16) 0.1386(9)
O13 O 0.4536(3) 0.7276(5) 0.2796(2)
O14 O 0.4795(3) 0.8938(5) 0.3109(2)
O15 O 0.5781(3) 0.8268(5) 0.21522(19)
Zn3 Zn 0.96231(4) 0.44665(8) 0.24401(3)
O1_2 O 0.0686(4) 0.3408(6) 0.3260(3)
O2_2 O 0.0317(3) 0.5033(6) 0.2979(2)
O5_2 O 0.0781(3) 0.6732(5) 0.71522(19)
O6_2 O 0.1475(3) 0.6913(6) 0.7889(2)
O7_2 O 0.3461(4) 0.9561(7) 0.7776(2)
O8_2 O 0.4064(3) 0.9425(5) 0.7062(2)
N1_2 N 0.2166(3) 0.6562(6) 0.5448(2)
H1_2 H 0.1821 0.6193 0.5571
N2_2 N 0.3040(3) 0.7629(6) 0.5414(2)
H2_2 H 0.3375 0.8092 0.5507
C1_2 C 0.0678(4) 0.4417(8) 0.3286(3)
C2_2 C 0.1154(4) 0.4946(8) 0.3698(3)
C3_2 C 0.1486(5) 0.4344(9) 0.4097(3)
H3_2 H 0.1442 0.3580 0.4091
C4_2 C 0.1880(5) 0.4831(8) 0.4502(3)
H4_2 H 0.2100 0.4405 0.4777
C5_2 C 0.1959(4) 0.5945(8) 0.4510(3)
C6_2 C 0.1645(6) 0.6544(10) 0.4107(4)
H5_2 H 0.1710 0.7305 0.4102
C7_2 C 0.1230(6) 0.6044(10) 0.3705(4)
H6_2 H 0.0999 0.6468 0.3433
C8_2 C 0.2363(4) 0.6503(8) 0.4940(3)
C9_2 C 0.2921(4) 0.7174(8) 0.4919(3)
C10_2 C 0.3358(4) 0.7404(7) 0.4473(3)
C11_2 C 0.3505(4) 0.6566(8) 0.4135(3)
H7_2 H 0.3349 0.5854 0.4201
C12_2 C 0.3881(5) 0.6774(8) 0.3701(3)
H8_2 H 0.3975 0.6205 0.3466
C13_2 C 0.4116(4) 0.7796(7) 0.3609(3)
C14_2 C 0.3990(5) 0.8618(8) 0.3953(3)
H9_2 H 0.4170 0.9320 0.3895
C15_2 C 0.3601(5) 0.8428(8) 0.4384(3)
H10_2 H 0.3504 0.9003 0.4615
C16_2 C 0.4517(4) 0.8024(7) 0.3130(3)
C17_2 C 0.2569(4) 0.7255(7) 0.5726(3)
C18_2 C 0.2515(4) 0.7550(7) 0.6285(3)
C19_2 C 0.3031(4) 0.8198(7) 0.6536(3)
H11_2 H 0.3413 0.8437 0.6348
C20_2 C 0.2991(4) 0.8498(7) 0.7060(3)
C21_2 C 0.2438(4) 0.8126(7) 0.7336(3)
H12_2 H 0.2412 0.8323 0.7695
C22_2 C 0.1925(4) 0.7472(7) 0.7090(3)
C23_2 C 0.1952(4) 0.7199(7) 0.6563(3)
H13_2 H 0.1590 0.6776 0.6391
C24_2 C 0.3535(4) 0.9231(7) 0.7326(3)
C25_2 C 0.1368(4) 0.7034(7) 0.7413(3)
H14_2 H 0.0092 0.0110 0.2380
O10_2 O 0.0932(11) 0.1095(12) 0.3167(5)
O12_2 O 0.0660(17) 0.027(2) 0.3969(8)
N4_2 N 0.0544(16) 0.1004(16) 0.3614(9)
O9_2 O 0.9419(4) 0.0982(7) 0.2681(4)
C26_2 C 0.9632(6) 0.0126(11) 0.2496(5)
O11_2 O 0.9951(12) 0.1596(13) 0.3707(5)
Zn7_2 Zn 0.99171(6) 0.77798(9) 0.70777(4)
O15_2 O 0.9219(3) 0.3268(5) 0.28478(19)
O16_2 O 0.9064(3) 0.5575(5) 0.2062(2)
O1_3 O 0.5686(4) 0.1592(6) 0.8260(3)
C1_3 C 0.5678(4) 0.0583(8) 0.8286(3)
C2_3 C 0.6154(4) 0.0054(8) 0.8698(3)
C3_3 C 0.6486(5) 0.0656(9) 0.9097(3)
H3_3 H 0.6442 0.1420 0.9091
C4_3 C 0.6880(5) 0.0169(8) 0.9502(3)
H4_3 H 0.7100 0.0595 0.9777
O9_3 O 0.4419(4) 0.4018(7) 0.7681(4)
N3_2 N 0.4260(6) 0.5748(8) 0.7453(6)
C26_3 C 0.4632(6) 0.4874(11) 0.7496(5)
H14_3 H 0.5092 0.4890 0.7380
C27_2 C 0.3510(6) 0.5726(11) 0.7532(7)
H15_2 H 0.3279 0.6320 0.7325
H16_2 H 0.3312 0.5037 0.7391
C28_2 C 0.3338(10) 0.584(2) 0.8093(8)
H17_2 H 0.2829 0.5817 0.8111
H18_2 H 0.3552 0.5241 0.8301
H19_2 H 0.3521 0.6526 0.8235
C29_2 C 0.4589(10) 0.6783(15) 0.7325(10)
H20_2 H 0.4236 0.7234 0.7124
H21_2 H 0.4970 0.6634 0.7092
C30_2 C 0.4856(17) 0.7354(18) 0.7743(14)
H22_2 H 0.5064 0.8023 0.7621
H23_2 H 0.4482 0.7529 0.7972
H24_2 H 0.5216 0.6924 0.7941
O10_3 O 0.5932(11) 0.3905(12) 0.8167(5)
O11_3 O 0.4951(12) 0.3404(13) 0.8707(5)
O12_3 O 0.5660(17) 0.473(2) 0.8969(8)
N4_3 N 0.5544(16) 0.3996(16) 0.8614(9)
O13_2 O 0.5464(3) 0.2724(5) 0.7204(2)
O14_2 O 0.5205(3) 0.1062(5) 0.6891(2)
O6_3 O 0.6475(3) 0.8087(6) 0.2889(2)
O7_3 O 0.8461(4) 0.5439(7) 0.2776(2)
N1_3 N 0.7166(3) 0.8438(6) 0.0448(2)
H1_3 H 0.6821 0.8807 0.0571
N2_3 N 0.8040(3) 0.7371(6) 0.0414(2)
H2_3 H 0.8375 0.6908 0.0507
C17_3 C 0.7569(4) 0.7745(7) 0.0726(3)
C18_3 C 0.7515(4) 0.7450(7) 0.1285(3)
C19_3 C 0.8031(4) 0.6802(7) 0.1536(3)
H11_3 H 0.8413 0.6563 0.1348
C20_3 C 0.7991(4) 0.6502(7) 0.2060(3)
C21_3 C 0.7438(4) 0.6874(7) 0.2336(3)
H12_3 H 0.7412 0.6677 0.2695
C22_3 C 0.6925(4) 0.7528(7) 0.2090(3)
C23_3 C 0.6952(4) 0.7801(7) 0.1563(3)
H13_3 H 0.6590 0.8224 0.1391
C24_3 C 0.8535(4) 0.5769(7) 0.2326(3)
C25_3 C 0.6368(4) 0.7966(7) 0.2413(3)
O2_3 O 0.5317(3) 0.9967(6) 0.7979(2)
O3_2 O 0.9536(3) 0.7724(5) 0.7796(2)
O4_2 O 0.9795(3) 0.6062(5) 0.8109(2)
C5_3 C 0.6959(4) 0.9055(8) 0.9510(3)
C6_3 C 0.6645(6) 0.8456(10) 0.9107(4)
H5_3 H 0.6710 0.7695 0.9102
C7_3 C 0.6230(6) 0.8956(10) 0.8705(4)
H6_3 H 0.5999 0.8532 0.8433
C8_3 C 0.7363(4) 0.8497(8) 0.9940(3)
C9_3 C 0.7921(4) 0.7826(8) 0.9919(3)
C10_3 C 0.8358(4) 0.7596(7) 0.9473(3)
C11_3 C 0.8505(4) 0.8434(8) 0.9135(3)
H7_3 H 0.8349 0.9146 0.9201
C12_3 C 0.8881(5) 0.8226(8) 0.8701(3)
H8_3 H 0.8975 0.8795 0.8466
C13_3 C 0.9116(4) 0.7204(7) 0.8609(3)
C14_3 C 0.8990(5) 0.6382(8) 0.8953(3)
H9_3 H 0.9170 0.5680 0.8895
C15_3 C 0.8601(5) 0.6572(8) 0.9384(3)
H10_3 H 0.8504 0.5997 0.9615
C16_3 C 0.9517(4) 0.6976(7) 0.8130(3)
O9_4 O 0.0581(4) 0.9018(7) 0.7319(4)
C26_4 C 0.0368(6) 0.9874(11) 0.7504(5)
O11_4 O 0.0049(12) 0.8404(13) 0.6293(5)
O1_4 O 0.9314(4) 0.6592(6) 0.6740(3)
O2_4 O 0.9683(3) 0.4967(6) 0.7021(2)
O6_4 O 0.8525(3) 0.3087(6) 0.2111(2)
O7_4 O 0.6539(4) 0.0439(7) 0.2224(2)
N1_4 N 0.7834(3) 0.3438(6) 0.4552(2)
H1_4 H 0.8179 0.3807 0.4429
N2_4 N 0.6960(3) 0.2371(6) 0.4586(2)
H2_4 H 0.6625 0.1908 0.4493
C1_4 C 0.9322(4) 0.5583(8) 0.6714(3)
C2_4 C 0.8846(4) 0.5054(8) 0.6302(3)
C3_4 C 0.8514(5) 0.5656(9) 0.5903(3)
H3_4 H 0.8558 0.6420 0.5909
C4_4 C 0.8120(5) 0.5169(8) 0.5498(3)
H4_4 H 0.7900 0.5595 0.5223
C5_4 C 0.8041(4) 0.4055(8) 0.5490(3)
C6_4 C 0.8355(6) 0.3456(10) 0.5893(4)
H5_4 H 0.8290 0.2695 0.5898
C7_4 C 0.8770(6) 0.3956(10) 0.6295(4)
H6_4 H 0.9001 0.3532 0.6567
C8_4 C 0.7637(4) 0.3497(8) 0.5060(3)
C9_4 C 0.7079(4) 0.2826(8) 0.5081(3)
C10_4 C 0.6642(4) 0.2596(7) 0.5527(3)
C11_4 C 0.6495(4) 0.3434(8) 0.5865(3)
H7_4 H 0.6651 0.4146 0.5799
C12_4 C 0.6119(5) 0.3226(8) 0.6299(3)
H8_4 H 0.6025 0.3795 0.6534
C13_4 C 0.5884(4) 0.2204(7) 0.6391(3)
C14_4 C 0.6010(5) 0.1382(8) 0.6047(3)
H9_4 H 0.5830 0.0680 0.6105
C15_4 C 0.6399(5) 0.1572(8) 0.5616(3)
H10_4 H 0.6496 0.0997 0.5385
C16_4 C 0.5483(4) 0.1976(7) 0.6870(3)
C17_4 C 0.7431(4) 0.2745(7) 0.4274(3)
C18_4 C 0.7485(4) 0.2450(7) 0.3715(3)
C19_4 C 0.6969(4) 0.1802(7) 0.3464(3)
H11_4 H 0.6587 0.1563 0.3652
C20_4 C 0.7009(4) 0.1502(7) 0.2940(3)
C21_4 C 0.7562(4) 0.1874(7) 0.2664(3)
H12_4 H 0.7588 0.1677 0.2305
C22_4 C 0.8075(4) 0.2528(7) 0.2910(3)
C23_4 C 0.8048(4) 0.2801(7) 0.3437(3)
H13_4 H 0.8410 0.3224 0.3609
C24_4 C 0.6465(4) 0.0769(7) 0.2674(3)
C25_4 C 0.8632(4) 0.2966(7) 0.2587(3)
H14_4 H 0.9908 0.9890 0.7620
O10_4 O 0.9068(11) 0.8905(12) 0.6833(5)
O12_4 O 0.9340(17) 0.973(2) 0.6031(8)
N4_4 N 0.9456(16) 0.8996(16) 0.6386(9)
H22_3 H 0.0064 0.6977 0.2621
H24_3 H 0.0216 0.8076 0.2941
N3_3 N 0.9260(6) 0.9252(8) 0.2453(6)
C27_3 C 0.8510(6) 0.9274(11) 0.2532(7)
H15_3 H 0.8279 0.8680 0.2325
H16_3 H 0.8312 0.9963 0.2391
C28_3 C 0.8338(10) 0.916(2) 0.3093(8)
H17_3 H 0.7829 0.9183 0.3111
H18_3 H 0.8552 0.9759 0.3301
H19_3 H 0.8521 0.8474 0.3235
C29_3 C 0.9589(10) 0.8217(15) 0.2325(10)
H20_3 H 0.9236 0.7766 0.2124
H21_3 H 0.9970 0.8366 0.2092
C30_3 C 0.9856(17) 0.7646(18) 0.2743(14)
H23_3 H 0.9482 0.7471 0.2972
N3_4 N 0.0740(6) 0.0748(8) 0.7547(6)
C27_4 C 0.1490(6) 0.0726(11) 0.7468(7)
H15_4 H 0.1721 0.1320 0.7675
H16_4 H 0.1688 0.0037 0.7609
C28_4 C 0.1662(10) 0.084(2) 0.6907(8)
H17_4 H 0.2171 0.0817 0.6889
H18_4 H 0.1448 0.0241 0.6699
H19_4 H 0.1479 0.1526 0.6765
C29_4 C 0.0411(10) 0.1783(15) 0.7675(10)
H20_4 H 0.0764 0.2234 0.7876
H21_4 H 0.0030 0.1634 0.7908
C30_4 C 0.0144(17) 0.2354(18) 0.7257(14)
H23_4 H 0.0518 0.2529 0.7028
H22_4 H 0.9936 0.3023 0.7379
H24_4 H 0.9784 0.1924 0.7059
loop_
_geom_bond_atom_site_label_1
_geom_bond_atom_site_label_2
_geom_bond_site_symmetry_1
_geom_bond_site_symmetry_2
O3 C16 1_555 1_555
O4 C16 1_555 1_555
C6 C5 1_555 1_555
H5 C6 1_555 1_555
H6 C7 1_555 1_555
C10 C9 1_555 1_555
C11 C10 1_555 1_555
H7 C11 1_555 1_555
C12 C11 1_555 1_555
H8 C12 1_555 1_555
C13 C12 1_555 1_555
C14 C13 1_555 1_555
H9 C14 1_555 1_555
C15 C10 1_555 1_555
H10 C15 1_555 1_555
C16 C13 1_555 1_555
Zn6 O3 1_555 1_555
C5 C8 1_555 1_555
C6 C7 1_555 1_555
C8 C9 1_555 1_555
C14 C15 1_555 1_555
O5 C25 1_555 1_555
O6 C25 1_555 1_555
O7 C24 1_555 1_555
O8 C24 1_555 1_555
N1 H1 1_555 1_555
N2 H2 1_555 1_555
C17 N1 1_555 1_555
C18 C17 1_555 1_555
C19 C18 1_555 1_555
H11 C19 1_555 1_555
C20 C19 1_555 1_555
C21 C20 1_555 1_555
H12 C21 1_555 1_555
C22 C21 1_555 1_555
C23 C18 1_555 1_555
H13 C23 1_555 1_555
C24 C20 1_555 1_555
C25 C22 1_555 1_555
Zn4 O5 1_555 1_555
Zn5 O8 1_555 1_555
Zn7 O5 1_555 1_555
N2 C17 1_555 1_555
C22 C23 1_555 1_555
Zn2 O1 1_555 1_555
O1 C1 1_555 1_555
C1 C2 1_555 1_555
C2 C3 1_555 1_555
C3 H3 1_555 1_555
C4 C3 1_555 1_555
H4 C4 1_555 1_555
O9 Zn2 1_555 1_555
N3 C26 1_555 1_555
C26 O9 1_555 1_555
H14 C26 1_555 1_555
C27 N3 1_555 1_555
H15 C27 1_555 1_555
H16 C27 1_555 1_555
C28 C27 1_555 1_555
H17 C28 1_555 1_555
H18 C28 1_555 1_555
H19 C28 1_555 1_555
C29 N3 1_555 1_555
H20 C29 1_555 1_555
H21 C29 1_555 1_555
C30 C29 1_555 1_555
H22 C30 1_555 1_555
H23 C30 1_555 1_555
H24 C30 1_555 1_555
O10 Zn2 1_555 1_555
O11 Zn2 1_555 1_555
O12 N4 1_555 1_555
N4 O10 1_555 1_555
O13 Zn2 1_555 1_555
O14 Zn1 1_555 1_555
O15 Zn1 1_555 1_555
Zn2 O15 1_555 1_555
O11 N4 1_555 1_555
Zn6 O1_2 1_555 1_555
O1_2 C1_2 1_555 1_555
O2_2 C1_2 1_555 1_555
O13 C16_2 1_555 1_555
O14 C16_2 1_555 1_555
O5_2 C25_2 1_555 1_555
O6_2 C25_2 1_555 1_555
O7_2 C24_2 1_555 1_555
O8_2 C24_2 1_555 1_555
N1_2 H1_2 1_555 1_555
N2_2 H2_2 1_555 1_555
C1_2 C2_2 1_555 1_555
C2_2 C3_2 1_555 1_555
C3_2 H3_2 1_555 1_555
C4_2 C3_2 1_555 1_555
H4_2 C4_2 1_555 1_555
C5_2 C4_2 1_555 1_555
C6_2 C5_2 1_555 1_555
H5_2 C6_2 1_555 1_555
C7_2 C2_2 1_555 1_555
H6_2 C7_2 1_555 1_555
C8_2 N1_2 1_555 1_555
C9_2 N2_2 1_555 1_555
C10_2 C9_2 1_555 1_555
C11_2 C10_2 1_555 1_555
H7_2 C11_2 1_555 1_555
C12_2 C11_2 1_555 1_555
H8_2 C12_2 1_555 1_555
C13_2 C12_2 1_555 1_555
C14_2 C13_2 1_555 1_555
H9_2 C14_2 1_555 1_555
C15_2 C10_2 1_555 1_555
H10_2 C15_2 1_555 1_555
C16_2 C13_2 1_555 1_555
C17_2 N1_2 1_555 1_555
C18_2 C17_2 1_555 1_555
C19_2 C18_2 1_555 1_555
H11_2 C19_2 1_555 1_555
C20_2 C19_2 1_555 1_555
C21_2 C20_2 1_555 1_555
H12_2 C21_2 1_555 1_555
C22_2 C21_2 1_555 1_555
C23_2 C18_2 1_555 1_555
H13_2 C23_2 1_555 1_555
C24_2 C20_2 1_555 1_555
C25_2 C22_2 1_555 1_555
O10_2 Zn6 1_555 1_555
O12_2 N4_2 1_555 1_555
N4_2 O10_2 1_555 1_555
Zn5 O5_2 1_555 1_555
N2_2 C17_2 1_555 1_555
C5_2 C8_2 1_555 1_555
C6_2 C7_2 1_555 1_555
C8_2 C9_2 1_555 1_555
C14_2 C15_2 1_555 1_555
C22_2 C23_2 1_555 1_555
C26_2 O9_2 1_555 1_555
O15_2 Zn3 1_555 1_555
O16_2 Zn3 1_555 1_555
Zn7 O1_3 1_555 1_555
O1_3 C1_3 1_555 1_555
C1_3 C2_3 1_555 1_555
C2_3 C3_3 1_555 1_555
C3_3 H3_3 1_555 1_555
C4_3 C3_3 1_555 1_555
H4_3 C4_3 1_555 1_555
O9_3 Zn7 1_555 1_555
N3_2 C26_3 1_555 1_555
C26_3 O9_3 1_555 1_555
H14_3 C26_3 1_555 1_555
C27_2 N3_2 1_555 1_555
H15_2 C27_2 1_555 1_555
H16_2 C27_2 1_555 1_555
C28_2 C27_2 1_555 1_555
H17_2 C28_2 1_555 1_555
H18_2 C28_2 1_555 1_555
H19_2 C28_2 1_555 1_555
C29_2 N3_2 1_555 1_555
H20_2 C29_2 1_555 1_555
H21_2 C29_2 1_555 1_555
C30_2 C29_2 1_555 1_555
H22_2 C30_2 1_555 1_555
H23_2 C30_2 1_555 1_555
H24_2 C30_2 1_555 1_555
O10_3 Zn7 1_555 1_555
O11_3 Zn7 1_555 1_555
O12_3 N4_3 1_555 1_555
N4_3 O10_3 1_555 1_555
O13_2 Zn7 1_555 1_555
O14_2 Zn4 1_555 1_555
O11_3 N4_3 1_555 1_555
O15 C25_3 1_555 1_555
O6_3 C25_3 1_555 1_555
O7_3 C24_3 1_555 1_555
O16_2 C24_3 1_555 1_555
N1_3 H1_3 1_555 1_555
N2_3 H2_3 1_555 1_555
C17_3 N1_3 1_555 1_555
C18_3 C17_3 1_555 1_555
C19_3 C18_3 1_555 1_555
H11_3 C19_3 1_555 1_555
C20_3 C19_3 1_555 1_555
C21_3 C20_3 1_555 1_555
H12_3 C21_3 1_555 1_555
C22_3 C21_3 1_555 1_555
C23_3 C18_3 1_555 1_555
H13_3 C23_3 1_555 1_555
C24_3 C20_3 1_555 1_555
C25_3 C22_3 1_555 1_555
N2_3 C17_3 1_555 1_555
C22_3 C23_3 1_555 1_555
O3_2 C16_3 1_555 1_555
O4_2 C16_3 1_555 1_555
C6_3 C5_3 1_555 1_555
H5_3 C6_3 1_555 1_555
H6_3 C7_3 1_555 1_555
C10_3 C9_3 1_555 1_555
C11_3 C10_3 1_555 1_555
H7_3 C11_3 1_555 1_555
C12_3 C11_3 1_555 1_555
H8_3 C12_3 1_555 1_555
C13_3 C12_3 1_555 1_555
C14_3 C13_3 1_555 1_555
H9_3 C14_3 1_555 1_555
C15_3 C10_3 1_555 1_555
H10_3 C15_3 1_555 1_555
C16_3 C13_3 1_555 1_555
Zn7_2 O3_2 1_555 1_555
C5_3 C8_3 1_555 1_555
C6_3 C7_3 1_555 1_555
C8_3 C9_3 1_555 1_555
C14_3 C15_3 1_555 1_555
C26_4 O9_4 1_555 1_555
Zn7_2 O1_4 1_555 1_555
O1_4 C1_4 1_555 1_555
O2_4 C1_4 1_555 1_555
O13_2 C16_4 1_555 1_555
O14_2 C16_4 1_555 1_555
O15_2 C25_4 1_555 1_555
O6_4 C25_4 1_555 1_555
O7_4 C24_4 1_555 1_555
O16 C24_4 1_555 1_555
N1_4 H1_4 1_555 1_555
N2_4 H2_4 1_555 1_555
C1_4 C2_4 1_555 1_555
C2_4 C3_4 1_555 1_555
C3_4 H3_4 1_555 1_555
C4_4 C3_4 1_555 1_555
H4_4 C4_4 1_555 1_555
C5_4 C4_4 1_555 1_555
C6_4 C5_4 1_555 1_555
H5_4 C6_4 1_555 1_555
C7_4 C2_4 1_555 1_555
H6_4 C7_4 1_555 1_555
C8_4 N1_4 1_555 1_555
C9_4 N2_4 1_555 1_555
C10_4 C9_4 1_555 1_555
C11_4 C10_4 1_555 1_555
H7_4 C11_4 1_555 1_555
C12_4 C11_4 1_555 1_555
H8_4 C12_4 1_555 1_555
C13_4 C12_4 1_555 1_555
C14_4 C13_4 1_555 1_555
H9_4 C14_4 1_555 1_555
C15_4 C10_4 1_555 1_555
H10_4 C15_4 1_555 1_555
C16_4 C13_4 1_555 1_555
C17_4 N1_4 1_555 1_555
C18_4 C17_4 1_555 1_555
C19_4 C18_4 1_555 1_555
H11_4 C19_4 1_555 1_555
C20_4 C19_4 1_555 1_555
C21_4 C20_4 1_555 1_555
H12_4 C21_4 1_555 1_555
C22_4 C21_4 1_555 1_555
C23_4 C18_4 1_555 1_555
H13_4 C23_4 1_555 1_555
C24_4 C20_4 1_555 1_555
C25_4 C22_4 1_555 1_555
O10_4 Zn7_2 1_555 1_555
O12_4 N4_4 1_555 1_555
N4_4 O10_4 1_555 1_555
N2_4 C17_4 1_555 1_555
C5_4 C8_4 1_555 1_555
C6_4 C7_4 1_555 1_555
C8_4 C9_4 1_555 1_555
C14_4 C15_4 1_555 1_555
C22_4 C23_4 1_555 1_555
C27_3 N3_3 1_555 1_555
H15_3 C27_3 1_555 1_555
H16_3 C27_3 1_555 1_555
C28_3 C27_3 1_555 1_555
H17_3 C28_3 1_555 1_555
H18_3 C28_3 1_555 1_555
H19_3 C28_3 1_555 1_555
C29_3 N3_3 1_555 1_555
H20_3 C29_3 1_555 1_555
H21_3 C29_3 1_555 1_555
C30_3 C29_3 1_555 1_555
H23_3 C30_3 1_555 1_555
C27_4 N3_4 1_555 1_555
H15_4 C27_4 1_555 1_555
H16_4 C27_4 1_555 1_555
C28_4 C27_4 1_555 1_555
H17_4 C28_4 1_555 1_555
H18_4 C28_4 1_555 1_555
H19_4 C28_4 1_555 1_555
C29_4 N3_4 1_555 1_555
H20_4 C29_4 1_555 1_555
H21_4 C29_4 1_555 1_555
C30_4 C29_4 1_555 1_555
H23_4 C30_4 1_555 1_555

#END
