
###############################################################################
#
# This file contains modified crystal structure data generated from the
# MOF subset of the Cambridge Structural Database (CSD) v543 
# hosted by the Cambridge Crystallographic Data Centre (CCDC).
#
# This work is licensed under the Creative Commons
# Attribution-NonCommercial-ShareAlike 4.0 International License.
# To view a copy of this license, visit
# http://creativecommons.org/licenses/by-nc-sa/4.0/
# or send a letter to
# Creative Commons, PO Box 1866, Mountain View, CA 94042, USA.
#
# CIF created using the CSD Python API on 29 September 2022
# The structure has been converted into the P1 space group
# The structure has a 3D framework
# The original CSD entry EFAPUA is in the orthorhombic crystal system
# The framework has been calculated to contain at least 10.0% void space
# The void calculation uses a probe of radius 1.32A, grid spacing 0.4
# H atom positions have been added when not included in the experimental data
#
###############################################################################

data_EFAPUA
_chemical_formula_moiety         '(C33 H24 Al4 O20)n'
_symmetry_cell_setting           triclinic
_symmetry_space_group_name_H-M   'P 1'
_symmetry_Int_Tables_number      1
_space_group_name_Hall           'P 1'
loop_
_symmetry_equiv_pos_site_id
_symmetry_equiv_pos_as_xyz
1 x,y,z
_cell_length_a                   16.2287(5)
_cell_length_b                   10.1939(3)
_cell_length_c                   6.63301(19)
_cell_angle_alpha                90
_cell_angle_beta                 90
_cell_angle_gamma                90
_cell_volume                     1097.32
loop_
_atom_site_label
_atom_site_type_symbol
_atom_site_fract_x
_atom_site_fract_y
_atom_site_fract_z
Al1 Al 0.250 0.2551(11) 0.493(2)
O1 O 0.250 0.3360(8) 0.244(4)
O2 O 0.1663(9) 0.1373(11) 0.4084(11)
O3 O 0.1633(9) 0.1288(12) 0.0687(10)
C1 C 0.1334(5) 0.1046(11) 0.242(5)
C2 C 0.0527(7) 0.0368(13) 0.240(4)
C4 C -0.000 0.000 0.423(3)
O6 O 0.250 0.1640(8) 0.744(4)
O7 O 0.3337(9) 0.1373(11) 0.4084(11)
O8 O 0.3367(9) 0.3712(12) 0.5687(10)
O9 O 0.1633(9) 0.3712(12) 0.5687(10)
Al4 Al 0.250 0.2449(11) 0.993(2)
C4_2 C 1.000 1.000 0.423(3)
O4 O 0.8337(9) 0.8627(11) 0.4084(11)
O5 O 0.8367(9) 0.8712(12) 0.0687(10)
C5 C 0.8666(5) 0.8954(11) 0.242(5)
C6 C 0.9473(7) 0.9632(13) 0.240(4)
Al2 Al 0.750 0.7449(11) 0.493(2)
Al3 Al 0.750 0.7551(11) 0.993(2)
O3_2 O 0.3367(9) 0.1288(12) 0.0687(10)
C1_2 C 0.3666(5) 0.1046(11) 0.242(5)
C2_2 C 0.4473(7) 0.0368(13) 0.240(4)
C4_3 C 0.500 0.000 0.423(3)
C7 C 0.5282(7) 0.0971(15) 0.160(2)
H1 H 0.522008 0.0798789 0.517789
H4 H 0.552218 0.182565 0.239055
H3 H 0.532956 0.112652 0.997987
C3 C 0.4718(7) 0.9029(15) 0.160(2)
C4_4 C 0.500 1.000 0.423(3)
O4_2 O 0.6663(9) 0.8627(11) 0.4084(11)
O5_2 O 0.6633(9) 0.8712(12) 0.0687(10)
C5_2 C 0.6334(5) 0.8954(11) 0.242(5)
C6_2 C 0.5527(7) 0.9632(13) 0.240(4)
H2 H 0.477992 0.920121 0.517789
H5 H 0.447782 0.817435 0.239055
H6 H 0.467044 0.887348 0.997987
O1_2 O 0.750 0.6640(8) 0.244(4)
O6_2 O 0.750 0.8360(8) 0.744(4)
O8_2 O 0.6633(9) 0.6288(12) 0.5687(10)
O9_2 O 0.8367(9) 0.6288(12) 0.5687(10)
H1_2 H 0.477992 0.579879 0.0177887
H2_2 H 0.522008 0.420121 0.0177887
O2_2 O 0.6663(9) 0.6373(11) 0.9084(11)
C1_3 C 0.6334(5) 0.6046(11) 0.742(5)
C2_3 C 0.5527(7) 0.5368(13) 0.740(4)
C3_2 C 0.5282(7) 0.4029(15) 0.660(2)
C4_5 C 0.500 0.500 0.923(3)
O4_3 O 0.3337(9) 0.3627(11) 0.9084(11)
C5_3 C 0.3666(5) 0.3954(11) 0.742(5)
C6_3 C 0.4473(7) 0.4632(13) 0.740(4)
C7_2 C 0.4718(7) 0.5971(15) 0.660(2)
O7_2 O 0.8337(9) 0.6373(11) 0.9084(11)
H3_2 H 0.467044 0.612652 0.497987
H4_2 H 0.447782 0.682565 0.739055
H5_2 H 0.552218 0.317435 0.739055
H6_2 H 0.532956 0.387348 0.497987
H1_3 H 0.0220081 0.579879 0.0177887
C4_6 C 0.000 0.500 0.923(3)
O4_4 O 0.1663(9) 0.3627(11) 0.9084(11)
C5_4 C 0.1334(5) 0.3954(11) 0.742(5)
C6_4 C 0.0527(7) 0.4632(13) 0.740(4)
C7_3 C 0.0282(7) 0.5971(15) 0.660(2)
H3_3 H 0.0329558 0.612652 0.497987
H4_3 H 0.0522181 0.682565 0.739055
H2_3 H 0.977992 0.420121 0.0177887
C1_4 C 0.8666(5) 0.6046(11) 0.742(5)
C2_4 C 0.9473(7) 0.5368(13) 0.740(4)
C3_3 C 0.9718(7) 0.4029(15) 0.660(2)
C4_7 C 1.000 0.500 0.923(3)
H5_3 H 0.947782 0.317435 0.739055
H6_3 H 0.967044 0.387348 0.497987
C3_4 C 0.0282(7) 0.9029(15) 0.160(2)
C4_8 C -0.000 1.000 0.423(3)
H2_4 H 0.0220081 0.920121 0.517789
H5_4 H 0.0522181 0.817435 0.239055
H6_4 H 0.0329558 0.887348 0.997987
C4_9 C 1.000 0.000 0.423(3)
C7_4 C 0.9718(7) 0.0971(15) 0.160(2)
H1_4 H 0.977992 0.0798789 0.517789
H4_4 H 0.947782 0.182565 0.239055
H3_4 H 0.967044 0.112652 0.997987
loop_
_geom_bond_atom_site_label_1
_geom_bond_atom_site_label_2
_geom_bond_site_symmetry_1
_geom_bond_site_symmetry_2
Al1 O1 1_555 1_555
O2 Al1 1_555 1_555
O3 C1 1_555 1_555
C1 O2 1_555 1_555
C2 C1 1_555 1_555
C4 C2 1_555 1_555
O6 Al1 1_555 1_555
O7 Al1 1_555 1_555
O8 Al1 1_555 1_555
O9 Al1 1_555 1_555
O4 C5 1_555 1_555
O5 C5 1_555 1_555
C5 C6 1_555 1_555
Al2 O4 1_555 1_555
C4_2 C6 1_555 1_555
O3_2 C1_2 1_555 1_555
C1_2 O7 1_555 1_555
C2_2 C1_2 1_555 1_555
C4_3 C2_2 1_555 1_555
C7 C2_2 1_555 1_555
C4_3 H1 1_555 1_555
C7 H4 1_555 1_555
O4_2 C5_2 1_555 1_555
O5_2 C5_2 1_555 1_555
C5_2 C6_2 1_555 1_555
C6_2 C3 1_555 1_555
Al2 O4_2 1_555 1_555
C4_4 C6_2 1_555 1_555
C4_4 H2 1_555 1_555
C3 H5 1_555 1_555
Al2 O1_2 1_555 1_555
O6_2 Al2 1_555 1_555
O8_2 Al2 1_555 1_555
O9_2 Al2 1_555 1_555
Al3 O6_2 1_555 1_555
O2_2 Al3 1_555 1_555
O8_2 C1_3 1_555 1_555
C1_3 O2_2 1_555 1_555
C2_3 C1_3 1_555 1_555
C3_2 C2_3 1_555 1_555
C4_5 C2_3 1_555 1_555
O4_3 C5_3 1_555 1_555
O8 C5_3 1_555 1_555
C5_3 C6_3 1_555 1_555
C6_3 C3_2 1_555 1_555
C7_2 C2_3 1_555 1_555
Al4 O4_3 1_555 1_555
O7_2 Al3 1_555 1_555
C4_5 C6_3 1_555 1_555
C6_3 C7_2 1_555 1_555
C7_2 H3_2 1_555 1_555
C7_2 H4_2 1_555 1_555
C3_2 H5_2 1_555 1_555
C3_2 H6_2 1_555 1_555
O4_4 C5_4 1_555 1_555
O9 C5_4 1_555 1_555
C5_4 C6_4 1_555 1_555
Al4 O4_4 1_555 1_555
C4_6 C6_4 1_555 1_555
C6_4 C7_3 1_555 1_555
C7_3 H3_3 1_555 1_555
C7_3 H4_3 1_555 1_555
O9_2 C1_4 1_555 1_555
C1_4 O7_2 1_555 1_555
C2_4 C1_4 1_555 1_555
C3_3 C2_4 1_555 1_555
C4_7 C2_4 1_555 1_555
C3_3 H5_3 1_555 1_555
C3_3 H6_3 1_555 1_555
Al4 O6 1_555 1_555
C4_8 H2_4 1_555 1_555
C3_4 H5_4 1_555 1_555
C4_9 H1_4 1_555 1_555
C7_4 H4_4 1_555 1_555

#END
