
###############################################################################
#
# This file contains modified crystal structure data generated from the
# MOF subset of the Cambridge Structural Database (CSD) v543 
# hosted by the Cambridge Crystallographic Data Centre (CCDC).
#
# This work is licensed under the Creative Commons
# Attribution-NonCommercial-ShareAlike 4.0 International License.
# To view a copy of this license, visit
# http://creativecommons.org/licenses/by-nc-sa/4.0/
# or send a letter to
# Creative Commons, PO Box 1866, Mountain View, CA 94042, USA.
#
# CIF created using the CSD Python API on 29 September 2022
# The structure has been converted into the P1 space group
# The structure has a 3D framework
# The original CSD entry EFAQEL is in the orthorhombic crystal system
# The framework has been calculated to contain at least 10.0% void space
# The void calculation uses a probe of radius 1.32A, grid spacing 0.4
# H atom positions have been added when not included in the experimental data
#
###############################################################################

data_EFAQEL
_chemical_formula_moiety         '(C40 H24 Al4 O19)n'
_symmetry_cell_setting           triclinic
_symmetry_space_group_name_H-M   'P 1'
_symmetry_Int_Tables_number      1
_space_group_name_Hall           'P 1'
loop_
_symmetry_equiv_pos_site_id
_symmetry_equiv_pos_as_xyz
1 x,y,z
_cell_length_a                   17.9956(19)
_cell_length_b                   6.6328(4)
_cell_length_c                   10.3396(13)
_cell_angle_alpha                90
_cell_angle_beta                 90
_cell_angle_gamma                90
_cell_volume                     1234.15
loop_
_atom_site_label
_atom_site_type_symbol
_atom_site_fract_x
_atom_site_fract_y
_atom_site_fract_z
_atom_site_U_iso_or_equiv
_atom_site_thermal_displace_type
Al1 Al 0.500 -0.000 0.500 0.0127 Uiso
O1 O 0.500 0.250 0.5720(12) 0.0127 Uiso
O2 O 0.0729(4) 0.4215(8) 0.1154(7) 0.0177 Uiso
C1 C 0.2140(7) 0.0828(13) 0.2895(15) 0.0177 Uiso
C2 C 0.1787(11) 0.250 0.2064(18) 0.0177 Uiso
C3 C 0.2524(9) 0.250 0.1272(19) 0.0177 Uiso
C4 C 0.1008(11) 0.250 0.1394(15) 0.0177 Uiso
C5 C 0.2140(7) 0.4172(13) 0.2895(15) 0.0177 Uiso
O3 O 0.0729(4) 0.0785(8) 0.1154(7) 0.0177 Uiso
C6 C 0.2860(7) 0.0828(13) 0.2105(15) 0.0177 Uiso
C7 C 0.3213(11) 0.250 0.2936(18) 0.0177 Uiso
C8 C 0.2476(9) 0.250 0.3728(19) 0.0177 Uiso
O4 O 0.4271(4) 0.4215(8) 0.3846(7) 0.0177 Uiso
C9 C 0.3992(11) 0.250 0.3606(15) 0.0177 Uiso
C10 C 0.2860(7) 0.4172(13) 0.2105(15) 0.0177 Uiso
O5 O 0.4271(4) 0.0785(8) 0.3846(7) 0.0177 Uiso
Al2 Al 0.500 0.500 0.500 0.0127 Uiso
Al3 Al 0.000 0.500 0.000 0.0127 Uiso
Al4 Al 0.000 0.000 0.000 0.0127 Uiso
O9 O 0.5729(4) 0.0785(8) 0.3846(7) 0.0177 Uiso
H2 H 0.254244 0.25 0.0219257 . .
H3 H 0.185468 0.550548 0.325686 . .
H4 H 0.314532 0.550548 0.174314 . .
H6 H 0.245756 0.25 0.478074 . .
Al3_2 Al 0.000 0.500 1.000 0.0127 Uiso
Al4_2 Al -0.000 -0.000 1.000 0.0127 Uiso
Al1_2 Al 0.500 1.000 0.500 0.0127 Uiso
Al4_3 Al 0.000 1.000 0.000 0.0127 Uiso
O6 O 0.500 0.750 0.4280(12) 0.0127 Uiso
O7 O 0.5729(4) 0.9215(8) 0.6154(7) 0.0177 Uiso
O8 O 0.4271(4) 0.9215(8) 0.6154(7) 0.0177 Uiso
H1 H 0.185468 0.949452 0.325686 . .
H5 H 0.314532 0.949452 0.174314 . .
Al4_4 Al -0.000 1.000 1.000 0.0127 Uiso
Al3_3 Al 1.000 0.500 0.000 0.0127 Uiso
Al4_5 Al 1.000 0.000 0.000 0.0127 Uiso
Al3_4 Al 1.000 0.500 1.000 0.0127 Uiso
Al4_6 Al 1.000 -0.000 1.000 0.0127 Uiso
Al4_7 Al 1.000 1.000 0.000 0.0127 Uiso
Al4_8 Al 1.000 1.000 1.000 0.0127 Uiso
O2_2 O 0.9271(4) 0.0785(8) 0.1154(7) 0.0177 Uiso
C1_2 C 0.7860(7) 0.4172(13) 0.2895(15) 0.0177 Uiso
C2_2 C 0.8213(11) 0.250 0.2064(18) 0.0177 Uiso
C3_2 C 0.7476(9) 0.250 0.1272(19) 0.0177 Uiso
C4_2 C 0.8992(11) 0.250 0.1394(15) 0.0177 Uiso
C5_2 C 0.7860(7) 0.0828(13) 0.2895(15) 0.0177 Uiso
O3_2 O 0.9271(4) 0.4215(8) 0.1154(7) 0.0177 Uiso
C6_2 C 0.7140(7) 0.4172(13) 0.2105(15) 0.0177 Uiso
C7_2 C 0.6787(11) 0.250 0.2936(18) 0.0177 Uiso
C8_2 C 0.7524(9) 0.250 0.3728(19) 0.0177 Uiso
C9_2 C 0.6008(11) 0.250 0.3606(15) 0.0177 Uiso
C10_2 C 0.7140(7) 0.0828(13) 0.2105(15) 0.0177 Uiso
O5_2 O 0.5729(4) 0.4215(8) 0.3846(7) 0.0177 Uiso
O7_2 O 0.4271(4) 0.5785(8) 0.6154(7) 0.0177 Uiso
O8_2 O 0.5729(4) 0.5785(8) 0.6154(7) 0.0177 Uiso
H1_2 H 0.814532 0.550548 0.325686 . .
H2_2 H 0.745756 0.25 0.0219257 . .
H5_2 H 0.685468 0.550548 0.174314 . .
H6_2 H 0.754244 0.25 0.478074 . .
H3_2 H 0.814532 0.949452 0.325686 . .
H4_2 H 0.685468 0.949452 0.174314 . .
H3_3 H 0.814532 0.0505485 0.674314 . .
H4_3 H 0.685468 0.0505485 0.825686 . .
O2_3 O 0.9271(4) 0.9215(8) 0.8846(7) 0.0177 Uiso
C1_3 C 0.7860(7) 0.5828(13) 0.7105(15) 0.0177 Uiso
C2_3 C 0.8213(11) 0.750 0.7936(18) 0.0177 Uiso
C3_3 C 0.7476(9) 0.750 0.8728(19) 0.0177 Uiso
C4_3 C 0.8992(11) 0.750 0.8606(15) 0.0177 Uiso
C5_3 C 0.7860(7) 0.9172(13) 0.7105(15) 0.0177 Uiso
O3_3 O 0.9271(4) 0.5785(8) 0.8846(7) 0.0177 Uiso
C6_3 C 0.7140(7) 0.5828(13) 0.7895(15) 0.0177 Uiso
C7_3 C 0.6787(11) 0.750 0.7064(18) 0.0177 Uiso
C8_3 C 0.7524(9) 0.750 0.6272(19) 0.0177 Uiso
C9_3 C 0.6008(11) 0.750 0.6394(15) 0.0177 Uiso
C10_3 C 0.7140(7) 0.9172(13) 0.7895(15) 0.0177 Uiso
H1_3 H 0.814532 0.449452 0.674314 . .
H2_3 H 0.745756 0.75 0.978074 . .
H5_3 H 0.685468 0.449452 0.825686 . .
H6_3 H 0.754244 0.75 0.521926 . .
H1_4 H 0.185468 0.0505485 0.674314 . .
H5_4 H 0.314532 0.0505485 0.825686 . .
O2_4 O 0.0729(4) 0.5785(8) 0.8846(7) 0.0177 Uiso
C1_4 C 0.2140(7) 0.9172(13) 0.7105(15) 0.0177 Uiso
C2_4 C 0.1787(11) 0.750 0.7936(18) 0.0177 Uiso
C3_4 C 0.2524(9) 0.750 0.8728(19) 0.0177 Uiso
C4_4 C 0.1008(11) 0.750 0.8606(15) 0.0177 Uiso
C5_4 C 0.2140(7) 0.5828(13) 0.7105(15) 0.0177 Uiso
O3_4 O 0.0729(4) 0.9215(8) 0.8846(7) 0.0177 Uiso
C6_4 C 0.2860(7) 0.9172(13) 0.7895(15) 0.0177 Uiso
C7_4 C 0.3213(11) 0.750 0.7064(18) 0.0177 Uiso
C8_4 C 0.2476(9) 0.750 0.6272(19) 0.0177 Uiso
C9_4 C 0.3992(11) 0.750 0.6394(15) 0.0177 Uiso
C10_4 C 0.2860(7) 0.5828(13) 0.7895(15) 0.0177 Uiso
H2_4 H 0.254244 0.75 0.978074 . .
H3_4 H 0.185468 0.449452 0.674314 . .
H4_4 H 0.314532 0.449452 0.825686 . .
H6_4 H 0.245756 0.75 0.521926 . .
O1_2 O -0.000 0.750 0.0720(12) 0.0127 Uiso
O6_2 O -0.000 0.250 0.9280(12) 0.0127 Uiso
O1_3 O 1.000 0.750 0.0720(12) 0.0127 Uiso
O6_3 O 1.000 0.250 0.9280(12) 0.0127 Uiso
loop_
_geom_bond_atom_site_label_1
_geom_bond_atom_site_label_2
_geom_bond_site_symmetry_1
_geom_bond_site_symmetry_2
Al1 O1 1_555 1_555
O1 Al2 1_555 1_555
O2 C4 1_555 1_555
C1 C2 1_555 1_555
C2 C3 1_555 1_555
C3 C6 1_555 1_555
C4 C2 1_555 1_555
C5 C2 1_555 1_555
O3 C4 1_555 1_555
C6 C1 1_555 1_555
C7 C6 1_555 1_555
C8 C1 1_555 1_555
O4 C9 1_555 1_555
C9 C7 1_555 1_555
C10 C3 1_555 1_555
O5 Al1 1_555 1_555
Al2 O4 1_555 1_555
Al3 O2 1_555 1_555
Al4 O3 1_555 1_555
O9 Al1 1_555 1_555
C5 C8 1_555 1_555
C5 C10 1_555 1_555
C7 C8 1_555 1_555
C7 C10 1_555 1_555
C9 O5 1_555 1_555
C3 H2 1_555 1_555
C5 H3 1_555 1_555
C10 H4 1_555 1_555
C8 H6 1_555 1_555
O6 Al1_2 1_555 1_555
O7 Al1_2 1_555 1_555
O8 Al1_2 1_555 1_555
O2_2 C4_2 1_555 1_555
C1_2 C2_2 1_555 1_555
C2_2 C3_2 1_555 1_555
C3_2 C6_2 1_555 1_555
C4_2 C2_2 1_555 1_555
C5_2 C2_2 1_555 1_555
O3_2 C4_2 1_555 1_555
C6_2 C1_2 1_555 1_555
C7_2 C6_2 1_555 1_555
C8_2 C1_2 1_555 1_555
O9 C9_2 1_555 1_555
C9_2 C7_2 1_555 1_555
C10_2 C3_2 1_555 1_555
O5_2 Al2 1_555 1_555
Al4_5 O2_2 1_555 1_555
Al3_3 O3_2 1_555 1_555
O6 Al2 1_555 1_555
O7_2 Al2 1_555 1_555
O8_2 Al2 1_555 1_555
C5_2 C8_2 1_555 1_555
C5_2 C10_2 1_555 1_555
C7_2 C8_2 1_555 1_555
C7_2 C10_2 1_555 1_555
C9_2 O5_2 1_555 1_555
C1_2 H1_2 1_555 1_555
C3_2 H2_2 1_555 1_555
C6_2 H5_2 1_555 1_555
C8_2 H6_2 1_555 1_555
O2_3 C4_3 1_555 1_555
C1_3 C2_3 1_555 1_555
C2_3 C3_3 1_555 1_555
C3_3 C6_3 1_555 1_555
C4_3 C2_3 1_555 1_555
C5_3 C2_3 1_555 1_555
O3_3 C4_3 1_555 1_555
C6_3 C1_3 1_555 1_555
C7_3 C6_3 1_555 1_555
C8_3 C1_3 1_555 1_555
O7 C9_3 1_555 1_555
C9_3 C7_3 1_555 1_555
C10_3 C3_3 1_555 1_555
Al4_8 O2_3 1_555 1_555
Al3_4 O3_3 1_555 1_555
C5_3 C8_3 1_555 1_555
C5_3 C10_3 1_555 1_555
C7_3 C8_3 1_555 1_555
C7_3 C10_3 1_555 1_555
C9_3 O8_2 1_555 1_555
C1_3 H1_3 1_555 1_555
C3_3 H2_3 1_555 1_555
C6_3 H5_3 1_555 1_555
C8_3 H6_3 1_555 1_555
O2_4 C4_4 1_555 1_555
C1_4 C2_4 1_555 1_555
C2_4 C3_4 1_555 1_555
C3_4 C6_4 1_555 1_555
C4_4 C2_4 1_555 1_555
C5_4 C2_4 1_555 1_555
O3_4 C4_4 1_555 1_555
C6_4 C1_4 1_555 1_555
C7_4 C6_4 1_555 1_555
C8_4 C1_4 1_555 1_555
O7_2 C9_4 1_555 1_555
C9_4 C7_4 1_555 1_555
C10_4 C3_4 1_555 1_555
Al3_2 O2_4 1_555 1_555
Al4_4 O3_4 1_555 1_555
C5_4 C8_4 1_555 1_555
C5_4 C10_4 1_555 1_555
C7_4 C8_4 1_555 1_555
C7_4 C10_4 1_555 1_555
C9_4 O8 1_555 1_555
C3_4 H2_4 1_555 1_555
C5_4 H3_4 1_555 1_555
C10_4 H4_4 1_555 1_555
C8_4 H6_4 1_555 1_555
Al3 O1_2 1_555 1_555
O1_2 Al4_3 1_555 1_555
O6_2 Al3_2 1_555 1_555
Al3_3 O1_3 1_555 1_555
O1_3 Al4_7 1_555 1_555
O6_3 Al3_4 1_555 1_555
O6_2 Al4_2 1_555 1_555
O6_3 Al4_6 1_555 1_555

#END
