
###############################################################################
#
# This file contains modified crystal structure data generated from the
# MOF subset of the Cambridge Structural Database (CSD) v543 
# hosted by the Cambridge Crystallographic Data Centre (CCDC).
#
# This work is licensed under the Creative Commons
# Attribution-NonCommercial-ShareAlike 4.0 International License.
# To view a copy of this license, visit
# http://creativecommons.org/licenses/by-nc-sa/4.0/
# or send a letter to
# Creative Commons, PO Box 1866, Mountain View, CA 94042, USA.
#
# CIF created using the CSD Python API on 29 September 2022
# The structure has been converted into the P1 space group
# The structure has a 3D framework
# The original CSD entry EFAQAH is in the orthorhombic crystal system
# The framework has been calculated to contain at least 10.0% void space
# The void calculation uses a probe of radius 1.32A, grid spacing 0.4
# H atom positions have been added when not included in the experimental data
#
###############################################################################

data_EFAQAH
_chemical_formula_moiety         '(C33 H24 Al4 O20)n'
_symmetry_cell_setting           triclinic
_symmetry_space_group_name_H-M   'P 1'
_symmetry_Int_Tables_number      1
_space_group_name_Hall           'P 1'
loop_
_symmetry_equiv_pos_site_id
_symmetry_equiv_pos_as_xyz
1 x,y,z
_cell_length_a                   15.9488(12)
_cell_length_b                   10.6365(10)
_cell_length_c                   6.6281(3)
_cell_angle_alpha                90
_cell_angle_beta                 90
_cell_angle_gamma                90
_cell_volume                     1124.39
loop_
_atom_site_label
_atom_site_type_symbol
_atom_site_fract_x
_atom_site_fract_y
_atom_site_fract_z
_atom_site_U_iso_or_equiv
_atom_site_thermal_displace_type
Al1 Al 0.250 0.2556(19) 0.486(4) 0.0025 Uiso
O1 O 0.250 0.3312(12) 0.234(7) 0.0025 Uiso
O2 O 0.1635(14) 0.1449(16) 0.3970(15) 0.0025 Uiso
O3 O 0.1647(14) 0.1267(16) 0.0583(12) 0.0025 Uiso
C1 C 0.1327(9) 0.1077(17) 0.230(8) 0.0025 Uiso
C2 C 0.0534(11) 0.0365(19) 0.243(6) 0.0025 Uiso
C4 C -0.000 0.000 0.426(4) 0.0025 Uiso
O6 O 0.250 0.1688(12) 0.734(7) 0.0025 Uiso
O7 O 0.3365(14) 0.1449(16) 0.3970(15) 0.0025 Uiso
O8 O 0.3353(14) 0.3733(16) 0.5583(12) 0.0025 Uiso
O9 O 0.1647(14) 0.3733(16) 0.5583(12) 0.0025 Uiso
Al4 Al 0.250 0.2444(19) 0.986(4) 0.0025 Uiso
C4_2 C 1.000 1.000 0.426(4) 0.0025 Uiso
O4 O 0.8365(14) 0.8551(16) 0.3970(15) 0.0025 Uiso
O5 O 0.8353(14) 0.8733(16) 0.0583(12) 0.0025 Uiso
C5 C 0.8673(9) 0.8923(17) 0.230(8) 0.0025 Uiso
C6 C 0.9466(11) 0.9635(19) 0.243(6) 0.0025 Uiso
Al2 Al 0.750 0.7444(19) 0.486(4) 0.0025 Uiso
Al3 Al 0.750 0.7556(19) 0.986(4) 0.0025 Uiso
O3_2 O 0.3353(14) 0.1267(16) 0.0583(12) 0.0025 Uiso
C1_2 C 0.3673(9) 0.1077(17) 0.230(8) 0.0025 Uiso
C2_2 C 0.4466(11) 0.0365(19) 0.243(6) 0.0025 Uiso
C4_3 C 0.500 0.000 0.426(4) 0.0025 Uiso
C7 C 0.5303(12) 0.0923(17) 0.163(3) 0.0025 Uiso
H3 H 0.523125 0.0760652 0.520859 . .
H5 H 0.535526 0.107098 0.00091179 . .
H6 H 0.555702 0.173463 0.242338 . .
C3 C 0.4697(12) 0.9077(17) 0.163(3) 0.0025 Uiso
C4_4 C 0.500 1.000 0.426(4) 0.0025 Uiso
O4_2 O 0.6635(14) 0.8551(16) 0.3970(15) 0.0025 Uiso
O5_2 O 0.6647(14) 0.8733(16) 0.0583(12) 0.0025 Uiso
C5_2 C 0.6327(9) 0.8923(17) 0.230(8) 0.0025 Uiso
C6_2 C 0.5534(11) 0.9635(19) 0.243(6) 0.0025 Uiso
H1 H 0.444298 0.826537 0.242338 . .
H2 H 0.464474 0.892902 0.00091179 . .
H4 H 0.476875 0.923935 0.520859 . .
O1_2 O 0.750 0.6688(12) 0.234(7) 0.0025 Uiso
O6_2 O 0.750 0.8312(12) 0.734(7) 0.0025 Uiso
O8_2 O 0.6647(14) 0.6267(16) 0.5583(12) 0.0025 Uiso
O9_2 O 0.8353(14) 0.6267(16) 0.5583(12) 0.0025 Uiso
H3_2 H 0.476875 0.576065 0.0208589 . .
H4_2 H 0.523125 0.423935 0.0208589 . .
O2_2 O 0.6635(14) 0.6449(16) 0.8970(15) 0.0025 Uiso
C1_3 C 0.6327(9) 0.6077(17) 0.730(8) 0.0025 Uiso
C2_3 C 0.5534(11) 0.5365(19) 0.743(6) 0.0025 Uiso
C3_2 C 0.5303(12) 0.4077(17) 0.663(3) 0.0025 Uiso
C4_5 C 0.500 0.500 0.926(4) 0.0025 Uiso
O4_3 O 0.3365(14) 0.3551(16) 0.8970(15) 0.0025 Uiso
C5_3 C 0.3673(9) 0.3923(17) 0.730(8) 0.0025 Uiso
C6_3 C 0.4466(11) 0.4635(19) 0.743(6) 0.0025 Uiso
C7_2 C 0.4697(12) 0.5923(17) 0.663(3) 0.0025 Uiso
O7_2 O 0.8365(14) 0.6449(16) 0.8970(15) 0.0025 Uiso
H1_2 H 0.555702 0.326537 0.742338 . .
H2_2 H 0.535526 0.392902 0.500912 . .
H5_2 H 0.464474 0.607098 0.500912 . .
H6_2 H 0.444298 0.673463 0.742338 . .
H3_3 H 0.0231249 0.576065 0.0208589 . .
C4_6 C 0.000 0.500 0.926(4) 0.0025 Uiso
O4_4 O 0.1635(14) 0.3551(16) 0.8970(15) 0.0025 Uiso
C5_4 C 0.1327(9) 0.3923(17) 0.730(8) 0.0025 Uiso
C6_4 C 0.0534(11) 0.4635(19) 0.743(6) 0.0025 Uiso
C7_3 C 0.0303(12) 0.5923(17) 0.663(3) 0.0025 Uiso
H5_3 H 0.035526 0.607098 0.500912 . .
H6_3 H 0.0557018 0.673463 0.742338 . .
H4_3 H 0.976875 0.423935 0.0208589 . .
C1_4 C 0.8673(9) 0.6077(17) 0.730(8) 0.0025 Uiso
C2_4 C 0.9466(11) 0.5365(19) 0.743(6) 0.0025 Uiso
C3_3 C 0.9697(12) 0.4077(17) 0.663(3) 0.0025 Uiso
C4_7 C 1.000 0.500 0.926(4) 0.0025 Uiso
H1_3 H 0.944298 0.326537 0.742338 . .
H2_3 H 0.964474 0.392902 0.500912 . .
C3_4 C 0.0303(12) 0.9077(17) 0.163(3) 0.0025 Uiso
C4_8 C -0.000 1.000 0.426(4) 0.0025 Uiso
H1_4 H 0.0557018 0.826537 0.242338 . .
H2_4 H 0.035526 0.892902 0.00091179 . .
H4_4 H 0.0231249 0.923935 0.520859 . .
C4_9 C 1.000 0.000 0.426(4) 0.0025 Uiso
C7_4 C 0.9697(12) 0.0923(17) 0.163(3) 0.0025 Uiso
H3_4 H 0.976875 0.0760652 0.520859 . .
H5_4 H 0.964474 0.107098 0.00091179 . .
H6_4 H 0.944298 0.173463 0.242338 . .
loop_
_geom_bond_atom_site_label_1
_geom_bond_atom_site_label_2
_geom_bond_site_symmetry_1
_geom_bond_site_symmetry_2
Al1 O1 1_555 1_555
O2 Al1 1_555 1_555
O3 C1 1_555 1_555
C1 O2 1_555 1_555
C2 C1 1_555 1_555
C4 C2 1_555 1_555
O6 Al1 1_555 1_555
O7 Al1 1_555 1_555
O8 Al1 1_555 1_555
O9 Al1 1_555 1_555
O4 C5 1_555 1_555
O5 C5 1_555 1_555
C5 C6 1_555 1_555
Al2 O4 1_555 1_555
C4_2 C6 1_555 1_555
O3_2 C1_2 1_555 1_555
C1_2 O7 1_555 1_555
C2_2 C1_2 1_555 1_555
C4_3 C2_2 1_555 1_555
C7 C2_2 1_555 1_555
C4_3 H3 1_555 1_555
C7 H5 1_555 1_555
C7 H6 1_555 1_555
O4_2 C5_2 1_555 1_555
O5_2 C5_2 1_555 1_555
C5_2 C6_2 1_555 1_555
C6_2 C3 1_555 1_555
Al2 O4_2 1_555 1_555
C4_4 C6_2 1_555 1_555
C3 H1 1_555 1_555
C3 H2 1_555 1_555
C4_4 H4 1_555 1_555
Al2 O1_2 1_555 1_555
O6_2 Al2 1_555 1_555
O8_2 Al2 1_555 1_555
O9_2 Al2 1_555 1_555
Al3 O6_2 1_555 1_555
O2_2 Al3 1_555 1_555
O8_2 C1_3 1_555 1_555
C1_3 O2_2 1_555 1_555
C2_3 C1_3 1_555 1_555
C3_2 C2_3 1_555 1_555
C4_5 C2_3 1_555 1_555
O4_3 C5_3 1_555 1_555
O8 C5_3 1_555 1_555
C5_3 C6_3 1_555 1_555
C6_3 C3_2 1_555 1_555
C7_2 C2_3 1_555 1_555
Al4 O4_3 1_555 1_555
O7_2 Al3 1_555 1_555
C4_5 C6_3 1_555 1_555
C6_3 C7_2 1_555 1_555
C3_2 H1_2 1_555 1_555
C3_2 H2_2 1_555 1_555
C7_2 H5_2 1_555 1_555
C7_2 H6_2 1_555 1_555
O4_4 C5_4 1_555 1_555
O9 C5_4 1_555 1_555
C5_4 C6_4 1_555 1_555
Al4 O4_4 1_555 1_555
C4_6 C6_4 1_555 1_555
C6_4 C7_3 1_555 1_555
C7_3 H5_3 1_555 1_555
C7_3 H6_3 1_555 1_555
O9_2 C1_4 1_555 1_555
C1_4 O7_2 1_555 1_555
C2_4 C1_4 1_555 1_555
C3_3 C2_4 1_555 1_555
C4_7 C2_4 1_555 1_555
C3_3 H1_3 1_555 1_555
C3_3 H2_3 1_555 1_555
Al4 O6 1_555 1_555
C3_4 H1_4 1_555 1_555
C3_4 H2_4 1_555 1_555
C4_8 H4_4 1_555 1_555
C4_9 H3_4 1_555 1_555
C7_4 H5_4 1_555 1_555
C7_4 H6_4 1_555 1_555

#END
