
###############################################################################
#
# This file contains modified crystal structure data generated from the
# MOF subset of the Cambridge Structural Database (CSD) v543 
# hosted by the Cambridge Crystallographic Data Centre (CCDC).
#
# This work is licensed under the Creative Commons
# Attribution-NonCommercial-ShareAlike 4.0 International License.
# To view a copy of this license, visit
# http://creativecommons.org/licenses/by-nc-sa/4.0/
# or send a letter to
# Creative Commons, PO Box 1866, Mountain View, CA 94042, USA.
#
# CIF created using the CSD Python API on 29 September 2022
# The structure has been converted into the P1 space group
# The structure has a 3D framework
# The original CSD entry EFIHUZ is in the triclinic crystal system
# The framework has been calculated to contain at least 10.0% void space
# The void calculation uses a probe of radius 1.32A, grid spacing 0.4
#
###############################################################################

data_EFIHUZ
_chemical_formula_moiety         '(C84 H52 Mn8 N4 O40)n'
_symmetry_cell_setting           triclinic
_symmetry_space_group_name_H-M   'P 1'
_symmetry_Int_Tables_number      1
_space_group_name_Hall           'P 1'
loop_
_symmetry_equiv_pos_site_id
_symmetry_equiv_pos_as_xyz
1 x,y,z
_cell_length_a                   11.5081(18)
_cell_length_b                   12.8515(19)
_cell_length_c                   23.570(3)
_cell_angle_alpha                95.044(3)
_cell_angle_beta                 98.639(3)
_cell_angle_gamma                104.313(3)
_cell_volume                     3310.81
loop_
_atom_site_label
_atom_site_type_symbol
_atom_site_fract_x
_atom_site_fract_y
_atom_site_fract_z
Mn2 Mn 0.13850(7) 0.24721(6) 0.27533(3)
Mn3 Mn 0.22222(8) 0.31262(7) 0.13557(3)
O1 O 0.0745(4) 0.0592(3) 0.22376(15)
O4 O 0.0862(4) 0.1976(3) 0.17533(15)
O5 O 0.1378(4) 0.4309(3) 0.16327(17)
O6 O 0.1475(4) 0.4072(3) 0.25610(17)
O11 O 0.3637(5) 0.4364(5) 0.1067(2)
H1 H 0.422009 0.484959 0.127615
H2 H 0.371969 0.446219 0.072145
C2 C 0.1089(5) 0.4471(4) 0.2118(2)
C3 C 0.0312(6) 0.5219(4) 0.2189(2)
C21 C 0.0276(6) 0.6025(5) 0.1828(3)
H17 H 0.070656 0.606502 0.152295
C22 C 0.0503(5) 0.0984(4) 0.1770(2)
Mn5 Mn 0.00843(7) 0.98093(6) 0.29384(3)
O21 O 0.1256(4) 0.1264(3) 0.34576(15)
O22 O 0.1737(4) 0.3016(3) 0.37259(16)
O27 O 0.3237(4) 0.2402(4) 0.28100(18)
O28 O 0.3632(4) 0.3039(4) 0.19898(18)
O29 O 0.2403(4) 0.1651(3) 0.07385(17)
O30 O 0.1269(4) 0.2705(4) 0.04490(16)
O20 O 0.1523(5) 0.9025(4) 0.3036(2)
H7 H 0.193621 0.893121 0.334929
H8 H 0.181211 0.873681 0.277049
C42 C 0.0189(5) 0.9289(4) 0.1120(2)
H26 H 0.075985 0.910907 0.138996
H10 H 0.860616 0.007199 0.472660
Mn6 Mn 0.99157(7) 0.01907(6) 0.70616(3)
O2 O 0.8744(4) 0.8736(3) 0.65424(15)
O3 O 0.8263(4) 0.6984(3) 0.62741(16)
O7 O 0.9360(4) 0.9155(3) 0.36433(16)
O8 O 0.7349(4) 0.8758(3) 0.34668(16)
O9 O 0.8693(4) 0.8471(3) 0.23975(16)
O10 O 0.7060(4) 0.7182(3) 0.24047(17)
O12 O 0.8487(3) 0.0524(3) 0.27818(15)
O15 O 0.9429(3) 0.2240(3) 0.27231(15)
N1 N 0.8406(4) 0.6596(3) 0.35961(18)
N2 N 0.7968(4) 0.1417(3) 0.14547(17)
C1 C 0.8446(5) 0.7925(5) 0.6152(2)
C4 C 0.9593(5) 0.5139(4) 0.2617(2)
H9 H 0.958018 0.458682 0.284816
C5 C 0.8888(5) 0.5863(4) 0.2710(2)
C6 C 0.8198(5) 0.5749(4) 0.3197(2)
C7 C 0.7830(5) 0.6500(4) 0.4054(2)
C8 C 0.8100(5) 0.7438(4) 0.4511(2)
C9 C 0.8336(5) 0.8517(4) 0.4380(2)
C10 C 0.8358(6) 0.8802(4) 0.3775(2)
C11 C 0.8506(6) 0.9370(5) 0.4818(2)
C12 C 0.8529(6) 0.9183(5) 0.5391(2)
H11 H 0.865501 0.975761 0.568235
C13 C 0.8361(5) 0.8127(4) 0.5526(2)
C14 C 0.8157(5) 0.7274(5) 0.5089(2)
H12 H 0.805570 0.657403 0.518456
C15 C 0.7011(7) 0.5528(5) 0.4104(3)
H13 H 0.662312 0.546585 0.442322
C16 C 0.6779(9) 0.4664(6) 0.3681(3)
H14 H 0.620518 0.402172 0.370018
C17 C 0.7402(7) 0.4760(5) 0.3234(3)
H15 H 0.729550 0.416966 0.295548
C18 C 0.8889(5) 0.6670(4) 0.2349(2)
C19 C 0.8170(5) 0.7480(4) 0.2394(2)
C20 C 0.9619(7) 0.6747(5) 0.1919(3)
H16 H 0.965333 0.730628 0.169237
C23 C 0.9868(5) 0.0222(4) 0.1239(2)
C24 C 0.8959(5) 0.0476(4) 0.0839(2)
C25 C 0.8506(5) 0.1433(4) 0.0988(2)
C26 C 0.7543(5) 0.2260(4) 0.1623(2)
C27 C 0.6866(5) 0.2161(4) 0.2111(2)
C28 C 0.7299(5) 0.1747(4) 0.2619(2)
C29 C 0.8512(5) 0.1501(4) 0.2711(2)
C30 C 0.6576(5) 0.1598(4) 0.3050(2)
H18 H 0.683613 0.129821 0.337464
C31 C 0.5488(5) 0.1886(5) 0.3004(2)
H19 H 0.503363 0.179889 0.329955
C32 C 0.5080(4) 0.2308(4) 0.2508(2)
C33 C 0.3879(5) 0.2616(4) 0.2440(2)
C34 C 0.5758(5) 0.2446(4) 0.2072(2)
H20 H 0.547732 0.273421 0.174668
C35 C 0.7633(6) 0.3156(5) 0.1312(3)
H21 H 0.735288 0.374191 0.143488
C36 C 0.8153(6) 0.3140(5) 0.0815(3)
H22 H 0.821753 0.371718 0.059969
C37 C 0.8570(6) 0.2269(5) 0.0644(3)
H23 H 0.888993 0.223731 0.030552
Mn8 Mn 0.86150(7) 0.75279(6) 0.72467(3)
Mn11 Mn 0.70160(8) 0.89943(7) 0.25714(3)
O13 O 0.6671(4) 0.9388(4) 0.17087(19)
H3 H 0.616121 0.897302 0.145352
H4 H 0.706531 0.995422 0.162082
O14 O 0.5160(5) 0.8763(6) 0.2627(3)
H5 H 0.484685 0.878058 0.293128
H6 H 0.455655 0.862918 0.235048
C38 C 0.8455(5) 0.9777(5) 0.0321(2)
H24 H 0.785309 0.992780 0.005666
C39 C 0.8862(5) 0.8849(4) 0.0203(2)
C41 C 0.9686(6) 0.8587(5) 0.0603(2)
H25 H 0.991382 0.794768 0.053540
O18 O 0.7597(4) 0.8349(3) 0.92615(17)
O19 O 0.8731(4) 0.7295(4) 0.95510(16)
C40 C 0.8341(6) 0.8139(5) 0.9643(2)
Mn10 Mn 0.77778(8) 0.68738(7) 0.86443(3)
C40_2 C 0.1659(6) 0.1861(5) 0.0357(2)
Mn4 Mn 0.29840(8) 0.10057(7) 0.74286(3)
O13_2 O 0.3329(4) 0.0612(4) 0.82913(19)
H3_2 H 0.383879 0.102698 0.854648
H4_2 H 0.293469 0.004578 0.837918
O14_2 O 0.4840(5) 0.1237(6) 0.7373(3)
H5_2 H 0.515315 0.121942 0.706872
H6_2 H 0.544345 0.137082 0.764952
C38_2 C 0.1545(5) 0.0223(5) 0.9679(2)
H24_2 H 0.214691 0.007220 0.994334
C39_2 C 0.1138(5) 0.1151(4) 0.9797(2)
C41_2 C 0.0314(6) 0.1413(5) 0.9397(2)
H25_2 H 0.008618 0.205232 0.946460
O23 O 0.0640(4) 0.0845(3) 0.63567(16)
O24 O 0.2651(4) 0.1242(3) 0.65332(16)
O25 O 0.1307(4) 0.1529(3) 0.76025(16)
O26 O 0.2940(4) 0.2818(3) 0.75953(17)
O12_2 O 0.1513(3) 0.9476(3) 0.72182(15)
O15_2 O 0.0571(3) 0.7760(3) 0.72769(15)
O16 O 0.6763(4) 0.7598(4) 0.71900(18)
O17 O 0.6368(4) 0.6961(4) 0.80102(18)
N1_2 N 0.1594(4) 0.3404(3) 0.64039(18)
N2_2 N 0.2032(4) 0.8583(3) 0.85453(17)
C1_2 C 0.1554(5) 0.2075(5) 0.3848(2)
C4_2 C 0.0407(5) 0.4861(4) 0.7383(2)
H9_2 H 0.041982 0.541318 0.715184
C5_2 C 0.1112(5) 0.4137(4) 0.7290(2)
C6_2 C 0.1802(5) 0.4251(4) 0.6803(2)
C7_2 C 0.2170(5) 0.3500(4) 0.5946(2)
C8_2 C 0.1900(5) 0.2562(4) 0.5489(2)
C9_2 C 0.1664(5) 0.1483(4) 0.5620(2)
C10_2 C 0.1642(6) 0.1198(4) 0.6225(2)
C11_2 C 0.1494(6) 0.0630(5) 0.5182(2)
C12_2 C 0.1471(6) 0.0817(5) 0.4609(2)
H11_2 H 0.134499 0.024239 0.431765
C13_2 C 0.1639(5) 0.1873(4) 0.4474(2)
C14_2 C 0.1843(5) 0.2726(5) 0.4911(2)
H12_2 H 0.194430 0.342597 0.481544
C15_2 C 0.2989(7) 0.4472(5) 0.5896(3)
H13_2 H 0.337688 0.453415 0.557678
C16_2 C 0.3221(9) 0.5336(6) 0.6319(3)
H14_2 H 0.379482 0.597828 0.629982
C17_2 C 0.2598(7) 0.5240(5) 0.6766(3)
H15_2 H 0.270450 0.583034 0.704452
C18_2 C 0.1111(5) 0.3330(4) 0.7651(2)
C19_2 C 0.1830(5) 0.2520(4) 0.7606(2)
C20_2 C 0.0381(7) 0.3253(5) 0.8081(3)
H16_2 H 0.034667 0.269372 0.830763
C23_2 C 0.0132(5) 0.9778(4) 0.8761(2)
C24_2 C 0.1041(5) 0.9524(4) 0.9161(2)
C25_2 C 0.1494(5) 0.8567(4) 0.9012(2)
C26_2 C 0.2457(5) 0.7740(4) 0.8377(2)
C27_2 C 0.3134(5) 0.7839(4) 0.7889(2)
C28_2 C 0.2701(5) 0.8253(4) 0.7381(2)
C29_2 C 0.1488(5) 0.8499(4) 0.7289(2)
C30_2 C 0.3424(5) 0.8402(4) 0.6950(2)
H18_2 H 0.316387 0.870179 0.662536
C31_2 C 0.4512(5) 0.8114(5) 0.6996(2)
H19_2 H 0.496637 0.820111 0.670045
C32_2 C 0.4920(4) 0.7692(4) 0.7492(2)
C33_2 C 0.6121(5) 0.7384(4) 0.7560(2)
C34_2 C 0.4242(5) 0.7554(4) 0.7928(2)
H20_2 H 0.452268 0.726579 0.825332
C35_2 C 0.2367(6) 0.6844(5) 0.8688(3)
H21_2 H 0.264712 0.625809 0.856512
C36_2 C 0.1847(6) 0.6860(5) 0.9185(3)
H22_2 H 0.178247 0.628282 0.940031
C37_2 C 0.1430(6) 0.7731(5) 0.9356(3)
H23_2 H 0.111007 0.776269 0.969448
H10_2 H 0.139384 0.992801 0.527340
O20_2 O 0.8477(5) 0.0975(4) 0.6964(2)
H7_2 H 0.806379 0.106879 0.665071
H8_2 H 0.818789 0.126319 0.722951
C42_2 C 0.9811(5) 0.0711(4) 0.8880(2)
H26_2 H 0.924015 0.089093 0.861004
O1_2 O 0.9255(4) 0.9408(3) 0.77624(15)
O4_2 O 0.9138(4) 0.8024(3) 0.82467(15)
O5_2 O 0.8622(4) 0.5691(3) 0.83673(17)
O6_2 O 0.8525(4) 0.5928(3) 0.74390(17)
O11_2 O 0.6363(5) 0.5636(5) 0.8933(2)
H1_2 H 0.577991 0.515041 0.872385
H2_2 H 0.628031 0.553781 0.927855
C2_2 C 0.8911(5) 0.5529(4) 0.7882(2)
C3_2 C 0.9688(6) 0.4781(4) 0.7811(2)
C21_2 C 0.9724(6) 0.3975(5) 0.8172(3)
H17_2 H 0.929344 0.393498 0.847705
C22_2 C 0.9497(5) 0.9016(4) 0.8230(2)
loop_
_geom_bond_atom_site_label_1
_geom_bond_atom_site_label_2
_geom_bond_site_symmetry_1
_geom_bond_site_symmetry_2
Mn2 O4 1_555 1_555
Mn3 O4 1_555 1_555
O1 C22 1_555 1_555
O4 C22 1_555 1_555
O5 Mn3 1_555 1_555
O6 Mn2 1_555 1_555
O11 Mn3 1_555 1_555
H1 O11 1_555 1_555
H2 O11 1_555 1_555
C2 O5 1_555 1_555
C3 C2 1_555 1_555
C21 C3 1_555 1_555
H17 C21 1_555 1_555
O22 Mn2 1_555 1_555
O27 Mn2 1_555 1_555
O28 Mn3 1_555 1_555
O29 Mn3 1_555 1_555
O30 Mn3 1_555 1_555
Mn2 O21 1_555 1_555
O6 C2 1_555 1_555
O20 Mn5 1_555 1_555
H7 O20 1_555 1_555
H8 O20 1_555 1_555
H26 C42 1_555 1_555
O2 C1 1_555 1_555
O3 C1 1_555 1_555
O7 C10 1_555 1_555
O8 C10 1_555 1_555
O9 C19 1_555 1_555
O10 C19 1_555 1_555
O27 C33 1_555 1_555
O28 C33 1_555 1_555
N1 C6 1_555 1_555
N2 C25 1_555 1_555
C1 C13 1_555 1_555
H9 C4 1_555 1_555
C5 C4 1_555 1_555
C6 C5 1_555 1_555
C7 N1 1_555 1_555
C8 C7 1_555 1_555
C9 C8 1_555 1_555
C10 C9 1_555 1_555
C11 C9 1_555 1_555
C12 C11 1_555 1_555
H11 C12 1_555 1_555
C13 C12 1_555 1_555
C14 C8 1_555 1_555
H12 C14 1_555 1_555
C15 C7 1_555 1_555
H13 C15 1_555 1_555
C16 C15 1_555 1_555
H14 C16 1_555 1_555
C17 C6 1_555 1_555
H15 C17 1_555 1_555
C18 C5 1_555 1_555
C19 C18 1_555 1_555
C20 C18 1_555 1_555
H16 C20 1_555 1_555
C23 C24 1_555 1_555
C24 C25 1_555 1_555
C25 C37 1_555 1_555
C26 N2 1_555 1_555
C27 C26 1_555 1_555
C28 C27 1_555 1_555
C29 O12 1_555 1_555
C30 C28 1_555 1_555
H18 C30 1_555 1_555
C31 C30 1_555 1_555
H19 C31 1_555 1_555
C32 C31 1_555 1_555
C33 C32 1_555 1_555
C34 C27 1_555 1_555
H20 C34 1_555 1_555
C35 C26 1_555 1_555
H21 C35 1_555 1_555
C36 C35 1_555 1_555
H22 C36 1_555 1_555
C37 C36 1_555 1_555
H23 C37 1_555 1_555
Mn8 O2 1_555 1_555
Mn11 O8 1_555 1_555
O3 Mn8 1_555 1_555
O9 Mn11 1_555 1_555
O10 Mn11 1_555 1_555
O15 C29 1_555 1_555
C13 C14 1_555 1_555
C16 C17 1_555 1_555
C28 C29 1_555 1_555
C32 C34 1_555 1_555
O13 Mn11 1_555 1_555
H3 O13 1_555 1_555
H4 O13 1_555 1_555
O14 Mn11 1_555 1_555
H5 O14 1_555 1_555
H6 O14 1_555 1_555
H24 C38 1_555 1_555
C39 C38 1_555 1_555
C41 C39 1_555 1_555
H25 C41 1_555 1_555
O18 C40 1_555 1_555
O19 C40 1_555 1_555
Mn10 O18 1_555 1_555
O19 Mn10 1_555 1_555
O29 C40_2 1_555 1_555
O30 C40_2 1_555 1_555
O13_2 Mn4 1_555 1_555
H3_2 O13_2 1_555 1_555
H4_2 O13_2 1_555 1_555
O14_2 Mn4 1_555 1_555
H5_2 O14_2 1_555 1_555
H6_2 O14_2 1_555 1_555
H24_2 C38_2 1_555 1_555
C39_2 C38_2 1_555 1_555
C41_2 C39_2 1_555 1_555
H25_2 C41_2 1_555 1_555
O24 Mn4 1_555 1_555
O26 Mn4 1_555 1_555
Mn4 O25 1_555 1_555
O21 C1_2 1_555 1_555
O22 C1_2 1_555 1_555
O23 C10_2 1_555 1_555
O24 C10_2 1_555 1_555
O25 C19_2 1_555 1_555
O26 C19_2 1_555 1_555
O16 C33_2 1_555 1_555
O17 C33_2 1_555 1_555
N1_2 C6_2 1_555 1_555
N2_2 C25_2 1_555 1_555
C1_2 C13_2 1_555 1_555
H9_2 C4_2 1_555 1_555
C5_2 C4_2 1_555 1_555
C6_2 C5_2 1_555 1_555
C7_2 N1_2 1_555 1_555
C8_2 C7_2 1_555 1_555
C9_2 C8_2 1_555 1_555
C10_2 C9_2 1_555 1_555
C11_2 C9_2 1_555 1_555
C12_2 C11_2 1_555 1_555
H11_2 C12_2 1_555 1_555
C13_2 C12_2 1_555 1_555
C14_2 C8_2 1_555 1_555
H12_2 C14_2 1_555 1_555
C15_2 C7_2 1_555 1_555
H13_2 C15_2 1_555 1_555
C16_2 C15_2 1_555 1_555
H14_2 C16_2 1_555 1_555
C17_2 C6_2 1_555 1_555
H15_2 C17_2 1_555 1_555
C18_2 C5_2 1_555 1_555
C19_2 C18_2 1_555 1_555
C20_2 C18_2 1_555 1_555
H16_2 C20_2 1_555 1_555
C23_2 C24_2 1_555 1_555
C24_2 C25_2 1_555 1_555
C25_2 C37_2 1_555 1_555
C26_2 N2_2 1_555 1_555
C27_2 C26_2 1_555 1_555
C28_2 C27_2 1_555 1_555
C29_2 O12_2 1_555 1_555
C30_2 C28_2 1_555 1_555
H18_2 C30_2 1_555 1_555
C31_2 C30_2 1_555 1_555
H19_2 C31_2 1_555 1_555
C32_2 C31_2 1_555 1_555
C33_2 C32_2 1_555 1_555
C34_2 C27_2 1_555 1_555
H20_2 C34_2 1_555 1_555
C35_2 C26_2 1_555 1_555
H21_2 C35_2 1_555 1_555
C36_2 C35_2 1_555 1_555
H22_2 C36_2 1_555 1_555
C37_2 C36_2 1_555 1_555
H23_2 C37_2 1_555 1_555
Mn8 O16 1_555 1_555
Mn10 O17 1_555 1_555
O15_2 C29_2 1_555 1_555
C13_2 C14_2 1_555 1_555
C16_2 C17_2 1_555 1_555
C28_2 C29_2 1_555 1_555
C32_2 C34_2 1_555 1_555
O20_2 Mn6 1_555 1_555
H7_2 O20_2 1_555 1_555
H8_2 O20_2 1_555 1_555
H26_2 C42_2 1_555 1_555
Mn8 O4_2 1_555 1_555
Mn10 O4_2 1_555 1_555
O1_2 C22_2 1_555 1_555
O4_2 C22_2 1_555 1_555
O5_2 Mn10 1_555 1_555
O6_2 Mn8 1_555 1_555
O11_2 Mn10 1_555 1_555
H1_2 O11_2 1_555 1_555
H2_2 O11_2 1_555 1_555
C2_2 O5_2 1_555 1_555
C3_2 C2_2 1_555 1_555
C21_2 C3_2 1_555 1_555
H17_2 C21_2 1_555 1_555
O6_2 C2_2 1_555 1_555

#END
