
###############################################################################
#
# This file contains modified crystal structure data generated from the
# MOF subset of the Cambridge Structural Database (CSD) v543 
# hosted by the Cambridge Crystallographic Data Centre (CCDC).
#
# This work is licensed under the Creative Commons
# Attribution-NonCommercial-ShareAlike 4.0 International License.
# To view a copy of this license, visit
# http://creativecommons.org/licenses/by-nc-sa/4.0/
# or send a letter to
# Creative Commons, PO Box 1866, Mountain View, CA 94042, USA.
#
# CIF created using the CSD Python API on 29 September 2022
# The structure has been converted into the P1 space group
# The structure has a 3D framework
# The original CSD entry EFOZIK is in the rhombohedral crystal system
# The framework has been calculated to contain at least 10.0% void space
# The void calculation uses a probe of radius 1.32A, grid spacing 0.4
#
###############################################################################

data_EFOZIK
_chemical_formula_moiety         '(C108 H72 N18 Na12 O54 Zn6)n'
_symmetry_cell_setting           triclinic
_symmetry_space_group_name_H-M   'P 1'
_symmetry_Int_Tables_number      1
_space_group_name_Hall           'P 1'
loop_
_symmetry_equiv_pos_site_id
_symmetry_equiv_pos_as_xyz
1 x,y,z
_cell_length_a                   10.0160(14)
_cell_length_b                   10.0160(14)
_cell_length_c                   37.472(8)
_cell_angle_alpha                90
_cell_angle_beta                 90
_cell_angle_gamma                120
_cell_volume                     3255.56
loop_
_atom_site_label
_atom_site_type_symbol
_atom_site_fract_x
_atom_site_fract_y
_atom_site_fract_z
Zn1 Zn -0.0000 0.0000 0.05120(2)
O11 O 0.0944(5) 0.1973(4) 0.08096(8)
O12 O 0.1767(3) 0.0529(4) 0.01430(6)
Na4 Na -0.0000 0.0000 0.96343(6)
Zn1_2 Zn -0.0000 1.0000 0.05120(2)
O10 O 0.1029(3) 0.9056(5) 0.08096(8)
Na4_2 Na -0.0000 1.0000 0.96343(6)
Zn1_3 Zn 1.0000 0.0000 0.05120(2)
C8 C 0.2856(3) 0.0250(4) 0.01620(8)
O13 O 0.9471(4) 0.1238(3) 0.01430(6)
N2 N 0.3849(3) 0.0720(4) 0.98771(7)
H5 H 0.3642 0.1126 0.9699
C10 C 0.5128(5) 0.0595(7) 0.98557(13)
H6 H 0.5760 0.0966 0.9656
Na4_3 Na 1.0000 0.0000 0.96343(6)
O1 O 0.8027(4) 0.8971(3) 0.08096(8)
O2 O 0.5681(3) 0.7413(3) 0.10059(6)
C1 C 0.6710(3) 0.7792(3) 0.07762(8)
Zn1_4 Zn 1.0000 1.0000 0.05120(2)
Na1 Na 0.3333 0.6667 0.13010(6)
O3 O 0.8762(3) 0.8233(3) 0.01430(6)
C2 C 0.7394(3) 0.7144(3) 0.01620(8)
C3 C 0.6319(3) 0.6790(3) 0.04487(8)
C5 C 0.4887(5) 0.5507(5) 0.04209(12)
H3 H 0.4182 0.5282 0.0605
C6 C 0.4445(4) 0.4511(5) 0.01219(13)
H4 H 0.3475 0.3633 0.0110
O5 O 0.2587(3) 0.8268(4) 0.10059(6)
C7 C 0.2208(3) 0.8918(4) 0.07762(8)
C9 C 0.3210(3) 0.9529(4) 0.04487(8)
C11 C 0.4493(5) 0.9380(7) 0.04209(12)
H7 H 0.4718 0.8900 0.0605
C12 C 0.5489(5) 0.9934(6) 0.01219(13)
H8 H 0.6367 0.9842 0.0110
O8 O 0.1732(4) 0.4319(3) 0.10059(6)
C13 C 0.1082(4) 0.3290(3) 0.07762(8)
C15 C 0.0471(4) 0.3681(3) 0.04487(8)
C17 C 0.0620(7) 0.5113(5) 0.04209(12)
H11 H 0.1100 0.5818 0.0605
C18 C 0.0066(6) 0.5555(4) 0.01219(13)
H12 H 0.0158 0.6525 0.0110
O14 O 0.5100(3) 0.7905(3) 0.18097(6)
O15 O 0.2804(4) 0.4900(3) 0.18097(6)
O16 O 0.2095(3) 0.7196(4) 0.18097(6)
N1 N 0.6871(3) 0.6151(3) 0.98771(7)
H1 H 0.7484 0.6358 0.9699
C4 C 0.5467(5) 0.4872(5) 0.98557(13)
H2 H 0.5206 0.4240 0.9656
Na4_4 Na 1.0000 1.0000 0.96343(6)
C14 C 0.9750(4) 0.2606(3) 0.01620(8)
N3 N 0.9280(4) 0.3129(3) 0.98771(7)
H9 H 0.8874 0.2516 0.9699
C16 C 0.9405(7) 0.4533(5) 0.98557(13)
H10 H 0.9034 0.4794 0.9656
Zn2 Zn -0.0000 0.0000 0.55120(2)
Na2 Na -0.0000 0.0000 0.46343(6)
Zn2_2 Zn -0.0000 1.0000 0.55120(2)
Na2_2 Na -0.0000 1.0000 0.46343(6)
O9 O 0.8762(3) 0.0529(4) 0.51430(6)
C14_2 C 0.7394(3) 0.0250(4) 0.51620(8)
N3_2 N 0.6871(3) 0.0720(4) 0.48771(7)
H9_2 H 0.7484 0.1126 0.4699
C16_2 C 0.5467(5) 0.0595(7) 0.48557(13)
H10_2 H 0.5206 0.0966 0.4656
Zn2_3 Zn 1.0000 0.0000 0.55120(2)
Na2_3 Na 1.0000 0.0000 0.46343(6)
O1_2 O 0.1029(3) 0.1973(4) 0.58096(8)
O2_2 O 0.2587(3) 0.4319(3) 0.60059(6)
C1_2 C 0.2208(3) 0.3290(3) 0.57762(8)
Na1_2 Na 0.3333 0.6667 0.63010(6)
O3_2 O 0.1767(3) 0.1238(3) 0.51430(6)
C2_2 C 0.2856(3) 0.2606(3) 0.51620(8)
N1_2 N 0.3849(3) 0.3129(3) 0.48771(7)
H1_2 H 0.3642 0.2516 0.4699
C3_2 C 0.3210(3) 0.3681(3) 0.54487(8)
C4_2 C 0.5128(5) 0.4533(5) 0.48557(13)
H2_2 H 0.5760 0.4794 0.4656
C5_2 C 0.4493(5) 0.5113(5) 0.54209(12)
H3_2 H 0.4718 0.5818 0.5605
C6_2 C 0.5489(5) 0.5555(4) 0.51219(13)
H4_2 H 0.6367 0.6525 0.5110
O4 O 0.0944(5) 0.8971(3) 0.58096(8)
O5_2 O 0.1732(4) 0.7413(3) 0.60059(6)
C7_2 C 0.1082(4) 0.7792(3) 0.57762(8)
C9_2 C 0.0471(4) 0.6790(3) 0.54487(8)
C11_2 C 0.0620(7) 0.5507(5) 0.54209(12)
H7_2 H 0.1100 0.5282 0.5605
C12_2 C 0.0066(6) 0.4511(5) 0.51219(13)
H8_2 H 0.0158 0.3633 0.5110
O7 O 0.8027(4) 0.9056(5) 0.58096(8)
O8_2 O 0.5681(3) 0.8268(4) 0.60059(6)
C13_2 C 0.6710(3) 0.8918(4) 0.57762(8)
C15_2 C 0.6319(3) 0.9529(4) 0.54487(8)
C17_2 C 0.4887(5) 0.9380(7) 0.54209(12)
H11_2 H 0.4182 0.8900 0.5605
C18_2 C 0.4445(4) 0.9934(6) 0.51219(13)
H12_2 H 0.3475 0.9842 0.5110
Zn2_4 Zn 1.0000 1.0000 0.55120(2)
Na2_4 Na 1.0000 1.0000 0.46343(6)
O14_2 O 0.2095(3) 0.4900(3) 0.68097(6)
O15_2 O 0.5100(3) 0.7196(4) 0.68097(6)
O16_2 O 0.2804(4) 0.7905(3) 0.68097(6)
O6 O 0.9471(4) 0.8233(3) 0.51430(6)
C8_2 C 0.9750(4) 0.7144(3) 0.51620(8)
N2_2 N 0.9280(4) 0.6151(3) 0.48771(7)
H5_2 H 0.8874 0.6358 0.4699
C10_2 C 0.9405(7) 0.4872(5) 0.48557(13)
H6_2 H 0.9034 0.4240 0.4656
O1_3 O 0.4694(4) 0.2304(3) 0.41429(8)
O2_3 O 0.2348(3) 0.0746(3) 0.43392(6)
C1_3 C 0.3377(3) 0.1125(3) 0.41095(8)
Zn1_5 Zn 0.6667 0.3333 0.38453(2)
O3_3 O 0.5429(3) 0.1566(3) 0.34763(6)
C2_3 C 0.4061(3) 0.0477(3) 0.34953(8)
C3_3 C 0.2986(3) 0.0123(3) 0.37820(8)
N2_3 N 0.0516(3) 0.4053(4) 0.32104(7)
H5_3 H 0.0309 0.4459 0.3032
C10_3 C 0.1795(5) 0.3928(7) 0.31890(13)
H6_3 H 0.2427 0.4299 0.2989
C11_3 C 0.1160(5) 0.2713(7) 0.37542(12)
H7_3 H 0.1385 0.2233 0.3938
C12_3 C 0.2156(5) 0.3267(6) 0.34552(13)
H8_3 H 0.3034 0.3175 0.3443
O10_2 O 0.7696(3) 0.2389(5) 0.41429(8)
O11_2 O 0.7611(5) 0.5306(4) 0.41429(8)
Na4_5 Na 0.6666 0.3334 0.29677(6)
O12_2 O 0.8434(3) 0.3862(4) 0.34763(6)
O13_2 O 0.6138(4) 0.4571(3) 0.34763(6)
N1_3 N 0.3538(3) 0.9484(3) 0.32104(7)
H1_3 H 0.4151 0.9691 0.3032
C4_3 C 0.2134(5) 0.8205(5) 0.31890(13)
H2_3 H 0.1873 0.7573 0.2989
C5_3 C 0.1554(5) 0.8840(5) 0.37542(12)
H3_3 H 0.0849 0.8615 0.3938
C6_3 C 0.1112(4) 0.7844(5) 0.34552(13)
H4_3 H 0.0142 0.6966 0.3443
O5_3 O 0.9254(3) 0.1601(4) 0.43392(6)
C7_3 C 0.8875(3) 0.2251(4) 0.41095(8)
C8_3 C 0.9523(3) 0.3583(4) 0.34953(8)
C9_3 C 0.9877(3) 0.2862(4) 0.37820(8)
O8_3 O 0.8399(4) 0.7652(3) 0.43392(6)
C13_3 C 0.7749(4) 0.6623(3) 0.41095(8)
C14_3 C 0.6417(4) 0.5939(3) 0.34953(8)
N3_3 N 0.5947(4) 0.6462(3) 0.32104(7)
H9_3 H 0.5541 0.5849 0.3032
C15_3 C 0.7138(4) 0.7014(3) 0.37820(8)
C16_3 C 0.6072(7) 0.7866(5) 0.31890(13)
H10_3 H 0.5701 0.8127 0.2989
C17_3 C 0.7287(7) 0.8446(5) 0.37542(12)
H11_3 H 0.7767 0.9151 0.3938
C18_3 C 0.6733(6) 0.8888(4) 0.34552(13)
H12_3 H 0.6825 0.9858 0.3443
O7_2 O 0.4694(4) 0.2389(5) 0.91429(8)
O8_4 O 0.2348(3) 0.1601(4) 0.93392(6)
C13_4 C 0.3377(3) 0.2251(4) 0.91095(8)
O9_2 O 0.5429(3) 0.3862(4) 0.84763(6)
C14_4 C 0.4061(3) 0.3583(4) 0.84953(8)
N3_4 N 0.3538(3) 0.4053(4) 0.82104(7)
H9_4 H 0.4151 0.4459 0.8032
C15_4 C 0.2986(3) 0.2862(4) 0.87820(8)
C16_4 C 0.2134(5) 0.3928(7) 0.81890(13)
H10_4 H 0.1873 0.4299 0.7989
C17_4 C 0.1554(5) 0.2713(7) 0.87542(12)
H11_4 H 0.0849 0.2233 0.8938
C18_4 C 0.1112(4) 0.3267(6) 0.84552(13)
H12_4 H 0.0142 0.3175 0.8443
Zn2_5 Zn 0.6667 0.3333 0.88453(2)
Na2_5 Na 0.6666 0.3334 0.79677(6)
N1_4 N 0.0516(3) 0.6462(3) 0.82104(7)
H1_4 H 0.0309 0.5849 0.8032
C4_4 C 0.1795(5) 0.7866(5) 0.81890(13)
H2_4 H 0.2427 0.8127 0.7989
C5_4 C 0.1160(5) 0.8446(5) 0.87542(12)
H3_4 H 0.1385 0.9151 0.8938
C6_4 C 0.2156(5) 0.8888(4) 0.84552(13)
H4_4 H 0.3034 0.9858 0.8443
O4_2 O 0.7611(5) 0.2304(3) 0.91429(8)
O5_4 O 0.8399(4) 0.0746(3) 0.93392(6)
C7_4 C 0.7749(4) 0.1125(3) 0.91095(8)
O6_2 O 0.6138(4) 0.1566(3) 0.84763(6)
C8_4 C 0.6417(4) 0.0477(3) 0.84953(8)
C9_4 C 0.7138(4) 0.0123(3) 0.87820(8)
O1_4 O 0.7696(3) 0.5306(4) 0.91429(8)
O2_4 O 0.9254(3) 0.7652(3) 0.93392(6)
C1_4 C 0.8875(3) 0.6623(3) 0.91095(8)
O3_4 O 0.8434(3) 0.4571(3) 0.84763(6)
C2_4 C 0.9523(3) 0.5939(3) 0.84953(8)
C3_4 C 0.9877(3) 0.7014(3) 0.87820(8)
N2_4 N 0.5947(4) 0.9484(3) 0.82104(7)
H5_4 H 0.5541 0.9691 0.8032
C10_4 C 0.6072(7) 0.8205(5) 0.81890(13)
H6_4 H 0.5701 0.7573 0.7989
C11_4 C 0.7287(7) 0.8840(5) 0.87542(12)
H7_4 H 0.7767 0.8615 0.8938
C12_4 C 0.6733(6) 0.7844(5) 0.84552(13)
H8_4 H 0.6825 0.6966 0.8443
O1_5 O 0.1360(4) 0.5638(3) 0.74763(8)
C1_5 C 0.0043(3) 0.4459(3) 0.74429(8)
Zn1_6 Zn 0.3333 0.6667 0.71787(2)
C2_5 C 0.0727(3) 0.3811(3) 0.68287(8)
N1_5 N 0.0204(3) 0.2818(3) 0.65438(7)
H1_5 H 0.0817 0.3025 0.6366
O10_3 O 0.4362(3) 0.5723(5) 0.74763(8)
O11_3 O 0.4277(5) 0.8640(4) 0.74763(8)
O2_5 O 0.9014(3) 0.4080(3) 0.76726(6)
C3_5 C 0.9652(3) 0.3457(3) 0.71154(8)
C4_5 C 0.8800(5) 0.1539(5) 0.65224(13)
H2_5 H 0.8539 0.0907 0.6323
C5_5 C 0.8220(5) 0.2174(5) 0.70876(12)
H3_5 H 0.7515 0.1949 0.7272
C6_5 C 0.7778(4) 0.1178(5) 0.67886(13)
H4_5 H 0.6808 0.0300 0.6777
O5_5 O 0.5920(3) 0.4935(4) 0.76726(6)
C7_5 C 0.5541(3) 0.5585(4) 0.74429(8)
C8_5 C 0.6189(3) 0.6917(4) 0.68287(8)
N2_5 N 0.7182(3) 0.7387(4) 0.65438(7)
H5_5 H 0.6975 0.7793 0.6366
C9_5 C 0.6543(3) 0.6196(4) 0.71154(8)
C10_5 C 0.8461(5) 0.7262(7) 0.65224(13)
H6_5 H 0.9093 0.7633 0.6323
C11_5 C 0.7826(5) 0.6047(7) 0.70876(12)
H7_5 H 0.8051 0.5567 0.7272
C12_5 C 0.8822(5) 0.6601(6) 0.67886(13)
H8_5 H 0.9700 0.6509 0.6777
O8_5 O 0.5065(4) 0.0986(3) 0.76726(6)
C15_5 C 0.3804(4) 0.0348(3) 0.71154(8)
C16_5 C 0.2738(7) 0.1200(5) 0.65224(13)
H10_5 H 0.2367 0.1461 0.6323
C17_5 C 0.3953(7) 0.1780(5) 0.70876(12)
H11_5 H 0.4433 0.2485 0.7272
C18_5 C 0.3399(6) 0.2222(4) 0.67886(13)
H12_5 H 0.3491 0.3192 0.6777
C13_5 C 0.4415(4) 0.9957(3) 0.74429(8)
C14_5 C 0.3083(4) 0.9273(3) 0.68287(8)
N3_5 N 0.2613(4) 0.9796(3) 0.65438(7)
H9_5 H 0.2207 0.9183 0.6366
O7_3 O 0.1360(4) 0.5723(5) 0.24763(8)
C13_6 C 0.0043(3) 0.5585(4) 0.24429(8)
C14_6 C 0.0727(3) 0.6917(4) 0.18287(8)
N3_6 N 0.0204(3) 0.7387(4) 0.15438(7)
H9_6 H 0.0817 0.7793 0.1366
Zn2_6 Zn 0.3333 0.6667 0.21787(2)
O2_6 O 0.5920(3) 0.0986(3) 0.26726(6)
C3_6 C 0.6543(3) 0.0348(3) 0.21154(8)
C4_6 C 0.8461(5) 0.1200(5) 0.15224(13)
H2_6 H 0.9093 0.1461 0.1323
C5_6 C 0.7826(5) 0.1780(5) 0.20876(12)
H3_6 H 0.8051 0.2485 0.2272
C6_6 C 0.8822(5) 0.2222(4) 0.17886(13)
H4_6 H 0.9700 0.3192 0.1777
O4_3 O 0.4277(5) 0.5638(3) 0.24763(8)
O5_6 O 0.5065(4) 0.4080(3) 0.26726(6)
C7_6 C 0.4415(4) 0.4459(3) 0.24429(8)
C8_6 C 0.3083(4) 0.3811(3) 0.18287(8)
N2_6 N 0.2613(4) 0.2818(3) 0.15438(7)
H5_6 H 0.2207 0.3025 0.1366
C9_6 C 0.3804(4) 0.3457(3) 0.21154(8)
C10_6 C 0.2738(7) 0.1539(5) 0.15224(13)
H6_6 H 0.2367 0.0907 0.1323
C11_6 C 0.3953(7) 0.2174(5) 0.20876(12)
H7_6 H 0.4433 0.1949 0.2272
C12_6 C 0.3399(6) 0.1178(5) 0.17886(13)
H8_6 H 0.3491 0.0300 0.1777
O8_6 O 0.9014(3) 0.4935(4) 0.26726(6)
C15_6 C 0.9652(3) 0.6196(4) 0.21154(8)
C16_6 C 0.8800(5) 0.7262(7) 0.15224(13)
H10_6 H 0.8539 0.7633 0.1323
C17_6 C 0.8220(5) 0.6047(7) 0.20876(12)
H11_6 H 0.7515 0.5567 0.2272
C18_6 C 0.7778(4) 0.6601(6) 0.17886(13)
H12_6 H 0.6808 0.6509 0.1777
O1_6 O 0.4362(3) 0.8640(4) 0.24763(8)
C1_6 C 0.5541(3) 0.9957(3) 0.24429(8)
C2_6 C 0.6189(3) 0.9273(3) 0.18287(8)
N1_6 N 0.7182(3) 0.9796(3) 0.15438(7)
H1_6 H 0.6975 0.9183 0.1366
loop_
_geom_bond_atom_site_label_1
_geom_bond_atom_site_label_2
_geom_bond_site_symmetry_1
_geom_bond_site_symmetry_2
O11 Zn1 1_555 1_555
O12 Zn1 1_555 1_555
O10 Zn1_2 1_555 1_555
O12 C8 1_555 1_555
O13 Zn1_3 1_555 1_555
N2 H5 1_555 1_555
C10 N2 1_555 1_555
H6 C10 1_555 1_555
O1 C1 1_555 1_555
O2 C1 1_555 1_555
C1 C3 1_555 1_555
Zn1_4 O1 1_555 1_555
Na1 O2 1_555 1_555
O3 Zn1_4 1_555 1_555
C2 O3 1_555 1_555
C3 C2 1_555 1_555
C5 C3 1_555 1_555
H3 C5 1_555 1_555
H4 C6 1_555 1_555
O10 C7 1_555 1_555
O5 Na1 1_555 1_555
C7 O5 1_555 1_555
C9 C7 1_555 1_555
C11 C9 1_555 1_555
H7 C11 1_555 1_555
H8 C12 1_555 1_555
O11 C13 1_555 1_555
O8 Na1 1_555 1_555
C13 O8 1_555 1_555
C15 C13 1_555 1_555
C17 C15 1_555 1_555
H11 C17 1_555 1_555
H12 C18 1_555 1_555
O14 Na1 1_555 1_555
O15 Na1 1_555 1_555
O16 Na1 1_555 1_555
C5 C6 1_555 1_555
C11 C12 1_555 1_555
C17 C18 1_555 1_555
H1 N1 1_555 1_555
C4 N1 1_555 1_555
H2 C4 1_555 1_555
O13 C14 1_555 1_555
N3 H9 1_555 1_555
C16 N3 1_555 1_555
H10 C16 1_555 1_555
O9 C14_2 1_555 1_555
C14_2 N3_2 1_555 1_555
N3_2 H9_2 1_555 1_555
C16_2 N3_2 1_555 1_555
H10_2 C16_2 1_555 1_555
Na2_3 O9 1_555 1_555
O9 Zn2_3 1_555 1_555
O1_2 C1_2 1_555 1_555
O2_2 C1_2 1_555 1_555
C1_2 C3_2 1_555 1_555
Zn2 O1_2 1_555 1_555
Na1_2 O2_2 1_555 1_555
O3_2 Zn2 1_555 1_555
C2_2 O3_2 1_555 1_555
N1_2 C2_2 1_555 1_555
H1_2 N1_2 1_555 1_555
C3_2 C2_2 1_555 1_555
C4_2 N1_2 1_555 1_555
H2_2 C4_2 1_555 1_555
C5_2 C3_2 1_555 1_555
H3_2 C5_2 1_555 1_555
C6_2 C4_2 1_555 1_555
H4_2 C6_2 1_555 1_555
O4 C7_2 1_555 1_555
O5_2 Na1_2 1_555 1_555
C7_2 O5_2 1_555 1_555
C9_2 C7_2 1_555 1_555
C11_2 C9_2 1_555 1_555
H7_2 C11_2 1_555 1_555
H8_2 C12_2 1_555 1_555
O7 C13_2 1_555 1_555
O8_2 Na1_2 1_555 1_555
C13_2 O8_2 1_555 1_555
C15_2 C13_2 1_555 1_555
C17_2 C15_2 1_555 1_555
H11_2 C17_2 1_555 1_555
H12_2 C18_2 1_555 1_555
Zn2_4 O7 1_555 1_555
Zn2_2 O4 1_555 1_555
Na2 O3_2 1_555 1_555
O14_2 Na1_2 1_555 1_555
O15_2 Na1_2 1_555 1_555
O16_2 Na1_2 1_555 1_555
C5_2 C6_2 1_555 1_555
C11_2 C12_2 1_555 1_555
C17_2 C18_2 1_555 1_555
O6 C8_2 1_555 1_555
C8_2 N2_2 1_555 1_555
N2_2 H5_2 1_555 1_555
C10_2 N2_2 1_555 1_555
H6_2 C10_2 1_555 1_555
Na2_4 O6 1_555 1_555
O6 Zn2_4 1_555 1_555
O1_3 C1_3 1_555 1_555
O2_3 C1_3 1_555 1_555
C1_3 C3_3 1_555 1_555
Zn1_5 O1_3 1_555 1_555
Na2 O2_3 1_555 1_555
O3_3 Zn1_5 1_555 1_555
C2_3 O3_3 1_555 1_555
C3_3 C2_3 1_555 1_555
N2_3 H5_3 1_555 1_555
C10_3 N2_3 1_555 1_555
H6_3 C10_3 1_555 1_555
H7_3 C11_3 1_555 1_555
C12_3 C10_3 1_555 1_555
H8_3 C12_3 1_555 1_555
O10_2 Zn1_5 1_555 1_555
O11_2 Zn1_5 1_555 1_555
Na4_5 O3_3 1_555 1_555
O12_2 Zn1_5 1_555 1_555
O13_2 Zn1_5 1_555 1_555
C11_3 C12_3 1_555 1_555
Na4_5 O12_2 1_555 1_555
Na4_5 O13_2 1_555 1_555
H1_3 N1_3 1_555 1_555
C4_3 N1_3 1_555 1_555
H2_3 C4_3 1_555 1_555
H3_3 C5_3 1_555 1_555
C6_3 C4_3 1_555 1_555
H4_3 C6_3 1_555 1_555
C5_3 C6_3 1_555 1_555
O10_2 C7_3 1_555 1_555
O5_3 Na2_3 1_555 1_555
C7_3 O5_3 1_555 1_555
O12_2 C8_3 1_555 1_555
C9_3 C7_3 1_555 1_555
C8_3 C9_3 1_555 1_555
O11_2 C13_3 1_555 1_555
O8_3 Na2_4 1_555 1_555
C13_3 O8_3 1_555 1_555
O13_2 C14_3 1_555 1_555
C14_3 N3_3 1_555 1_555
N3_3 H9_3 1_555 1_555
C15_3 C13_3 1_555 1_555
C16_3 N3_3 1_555 1_555
H10_3 C16_3 1_555 1_555
C17_3 C15_3 1_555 1_555
H11_3 C17_3 1_555 1_555
C18_3 C16_3 1_555 1_555
H12_3 C18_3 1_555 1_555
C14_3 C15_3 1_555 1_555
C17_3 C18_3 1_555 1_555
O7_2 C13_4 1_555 1_555
O8_4 Na4 1_555 1_555
C13_4 O8_4 1_555 1_555
O9_2 C14_4 1_555 1_555
C14_4 N3_4 1_555 1_555
N3_4 H9_4 1_555 1_555
C15_4 C13_4 1_555 1_555
C16_4 N3_4 1_555 1_555
H10_4 C16_4 1_555 1_555
C17_4 C15_4 1_555 1_555
H11_4 C17_4 1_555 1_555
C18_4 C16_4 1_555 1_555
H12_4 C18_4 1_555 1_555
Zn2_5 O7_2 1_555 1_555
Na2_5 O9_2 1_555 1_555
O9_2 Zn2_5 1_555 1_555
C14_4 C15_4 1_555 1_555
C17_4 C18_4 1_555 1_555
H1_4 N1_4 1_555 1_555
C4_4 N1_4 1_555 1_555
H2_4 C4_4 1_555 1_555
H3_4 C5_4 1_555 1_555
C6_4 C4_4 1_555 1_555
H4_4 C6_4 1_555 1_555
C5_4 C6_4 1_555 1_555
O4_2 C7_4 1_555 1_555
O5_4 Na4_3 1_555 1_555
C7_4 O5_4 1_555 1_555
O6_2 C8_4 1_555 1_555
C9_4 C7_4 1_555 1_555
Zn2_5 O4_2 1_555 1_555
Na2_5 O6_2 1_555 1_555
O6_2 Zn2_5 1_555 1_555
C8_4 C9_4 1_555 1_555
O1_4 C1_4 1_555 1_555
O2_4 C1_4 1_555 1_555
C1_4 C3_4 1_555 1_555
Zn2_5 O1_4 1_555 1_555
Na4_4 O2_4 1_555 1_555
O3_4 Zn2_5 1_555 1_555
C2_4 O3_4 1_555 1_555
C3_4 C2_4 1_555 1_555
N2_4 H5_4 1_555 1_555
C10_4 N2_4 1_555 1_555
H6_4 C10_4 1_555 1_555
H7_4 C11_4 1_555 1_555
C12_4 C10_4 1_555 1_555
H8_4 C12_4 1_555 1_555
Na2_5 O3_4 1_555 1_555
C11_4 C12_4 1_555 1_555
O1_5 C1_5 1_555 1_555
Zn1_6 O1_5 1_555 1_555
O14_2 Zn1_6 1_555 1_555
C2_5 O14_2 1_555 1_555
N1_5 C2_5 1_555 1_555
H1_5 N1_5 1_555 1_555
O10_3 Zn1_6 1_555 1_555
O11_3 Zn1_6 1_555 1_555
O15_2 Zn1_6 1_555 1_555
O16_2 Zn1_6 1_555 1_555
Na2_5 O2_5 1_555 1_555
H2_5 C4_5 1_555 1_555
C5_5 C3_5 1_555 1_555
H3_5 C5_5 1_555 1_555
C6_5 C4_5 1_555 1_555
H4_5 C6_5 1_555 1_555
O10_3 C7_5 1_555 1_555
O5_5 Na2_5 1_555 1_555
C7_5 O5_5 1_555 1_555
O15_2 C8_5 1_555 1_555
C8_5 N2_5 1_555 1_555
N2_5 H5_5 1_555 1_555
C9_5 C7_5 1_555 1_555
C10_5 N2_5 1_555 1_555
H6_5 C10_5 1_555 1_555
C11_5 C9_5 1_555 1_555
H7_5 C11_5 1_555 1_555
C12_5 C10_5 1_555 1_555
H8_5 C12_5 1_555 1_555
O8_5 Na2_5 1_555 1_555
H10_5 C16_5 1_555 1_555
C17_5 C15_5 1_555 1_555
H11_5 C17_5 1_555 1_555
C18_5 C16_5 1_555 1_555
H12_5 C18_5 1_555 1_555
C5_5 C6_5 1_555 1_555
C8_5 C9_5 1_555 1_555
C11_5 C12_5 1_555 1_555
C17_5 C18_5 1_555 1_555
O11_3 C13_5 1_555 1_555
O16_2 C14_5 1_555 1_555
C14_5 N3_5 1_555 1_555
N3_5 H9_5 1_555 1_555
O7_3 C13_6 1_555 1_555
O16 C14_6 1_555 1_555
C14_6 N3_6 1_555 1_555
N3_6 H9_6 1_555 1_555
Zn2_6 O7_3 1_555 1_555
O16 Zn2_6 1_555 1_555
Na4_5 O2_6 1_555 1_555
H2_6 C4_6 1_555 1_555
C5_6 C3_6 1_555 1_555
H3_6 C5_6 1_555 1_555
C6_6 C4_6 1_555 1_555
H4_6 C6_6 1_555 1_555
O4_3 C7_6 1_555 1_555
O5_6 Na4_5 1_555 1_555
C7_6 O5_6 1_555 1_555
O15 C8_6 1_555 1_555
C8_6 N2_6 1_555 1_555
N2_6 H5_6 1_555 1_555
C9_6 C7_6 1_555 1_555
C10_6 N2_6 1_555 1_555
H6_6 C10_6 1_555 1_555
C11_6 C9_6 1_555 1_555
H7_6 C11_6 1_555 1_555
C12_6 C10_6 1_555 1_555
H8_6 C12_6 1_555 1_555
O8_6 Na4_5 1_555 1_555
H10_6 C16_6 1_555 1_555
C17_6 C15_6 1_555 1_555
H11_6 C17_6 1_555 1_555
C18_6 C16_6 1_555 1_555
H12_6 C18_6 1_555 1_555
Zn2_6 O4_3 1_555 1_555
C5_6 C6_6 1_555 1_555
O15 Zn2_6 1_555 1_555
C8_6 C9_6 1_555 1_555
C11_6 C12_6 1_555 1_555
C17_6 C18_6 1_555 1_555
O1_6 C1_6 1_555 1_555
Zn2_6 O1_6 1_555 1_555
O14 Zn2_6 1_555 1_555
C2_6 O14 1_555 1_555
N1_6 C2_6 1_555 1_555
H1_6 N1_6 1_555 1_555

#END
