
###############################################################################
#
# This file contains modified crystal structure data generated from the
# MOF subset of the Cambridge Structural Database (CSD) v543 
# hosted by the Cambridge Crystallographic Data Centre (CCDC).
#
# This work is licensed under the Creative Commons
# Attribution-NonCommercial-ShareAlike 4.0 International License.
# To view a copy of this license, visit
# http://creativecommons.org/licenses/by-nc-sa/4.0/
# or send a letter to
# Creative Commons, PO Box 1866, Mountain View, CA 94042, USA.
#
# CIF created using the CSD Python API on 29 September 2022
# The structure has been converted into the P1 space group
# The structure has a 3D framework
# The original CSD entry EGILUE is in the monoclinic crystal system
# The framework has been calculated to contain at least 10.0% void space
# The void calculation uses a probe of radius 1.32A, grid spacing 0.4
#
###############################################################################

data_EGILUE
_chemical_formula_moiety         '(C43 H41 Co7 N3 O26)n'
_symmetry_cell_setting           triclinic
_symmetry_space_group_name_H-M   'P 1'
_symmetry_Int_Tables_number      1
_space_group_name_Hall           'P 1'
loop_
_symmetry_equiv_pos_site_id
_symmetry_equiv_pos_as_xyz
1 x,y,z
_cell_length_a                   18.30(2)
_cell_length_b                   14.350(19)
_cell_length_c                   6.661(9)
_cell_angle_alpha                90
_cell_angle_beta                 99.09(2)
_cell_angle_gamma                90
_cell_volume                     1727.24
loop_
_atom_site_label
_atom_site_type_symbol
_atom_site_fract_x
_atom_site_fract_y
_atom_site_fract_z
Co6 Co 0.50188(11) -0.000000 0.2547(3)
H4 H 0.477182 0.208508 0.055514
Co1 Co 0.00188(11) 0.500000 0.2547(3)
Co2 Co 0.50152(8) 0.10628(4) 0.75229(15)
O1 O 0.0863(3) 0.3940(4) 0.2546(10)
O3 O 0.3973(3) 0.1174(5) 0.5770(9)
O4 O 0.5341(4) -0.000000 0.5667(11)
H1 H 0.577018 0.000000 0.539676
O5 O 0.4670(4) -0.000000 0.9315(11)
H2 H 0.422447 0.000000 0.949592
O6 O 0.4557(5) 0.2133(6) 0.9339(11)
H3 H 0.410352 0.189218 0.941944
O7 O 0.5403(5) 0.2122(5) 0.5632(13)
H5 H 0.527699 0.203745 0.434856
H6 H 0.585239 0.196915 0.541376
O8 O 0.4193(4) 0.1041(4) 0.2532(10)
N1 N 0.2341(4) 0.500000 0.3809(12)
C1 C 0.1227(4) 0.3678(6) 0.1167(13)
C2 C 0.1888(5) 0.3084(7) 0.1931(12)
C3 C 0.2411(5) 0.3293(7) 0.3834(11)
C4 C 0.2365(4) 0.4186(5) 0.4898(10)
C5 C 0.2389(4) 0.4140(6) 0.7020(11)
H7 H 0.239975 0.356158 0.771936
C6 C 0.2398(6) 0.500000 0.8048(16)
H8 H 0.240951 0.500000 0.947895
C7 C 0.2963(7) 0.2616(8) 0.4315(17)
H9 H 0.326874 0.267705 0.560039
C8 C 0.3108(5) 0.1901(7) 0.3185(14)
C9 C 0.3817(5) 0.1354(7) 0.3839(12)
C10 C 0.2702(6) 0.1779(7) 0.1372(15)
H10 H 0.285048 0.131059 0.051179
C11 C 0.2053(5) 0.2312(6) 0.0636(12)
O9 O 0.0863(3) 0.6060(4) 0.2546(10)
O11 O 0.3973(3) 0.8826(5) 0.5770(9)
O12 O 0.4193(4) 0.8959(4) 0.2532(10)
C12 C 0.1227(4) 0.6322(6) 0.1167(13)
C13 C 0.1888(5) 0.6916(7) 0.1931(12)
C14 C 0.2411(5) 0.6707(7) 0.3834(11)
C15 C 0.2365(4) 0.5814(5) 0.4898(10)
C16 C 0.2389(4) 0.5860(6) 0.7020(11)
H12 H 0.239975 0.643842 0.771936
C17 C 0.2963(7) 0.7384(8) 0.4315(17)
H13 H 0.326874 0.732295 0.560039
C18 C 0.3108(5) 0.8099(7) 0.3185(14)
C19 C 0.3817(5) 0.8646(7) 0.3839(12)
C20 C 0.2702(6) 0.8221(7) 0.1372(15)
H14 H 0.285048 0.868941 0.051179
C21 C 0.2053(5) 0.7688(6) 0.0636(12)
Co6_2 Co 0.50188(11) 1.000000 0.2547(3)
Co7 Co 0.50152(8) 0.89372(4) 0.75229(15)
O16 O 0.6055(4) 0.1230(6) 0.9335(11)
O18 O 0.0341(4) 0.500000 0.5667(11)
O2 O 0.1055(4) 0.3770(6) 0.9335(11)
H11 H 0.174722 0.217203 0.938248
O10 O 0.1055(4) 0.6230(6) 0.9335(11)
H15 H 0.174722 0.782797 0.938248
Co8 Co 0.00152(8) 0.60628(4) 0.75229(15)
Co9 Co 0.00152(8) 0.39372(4) 0.75229(15)
H17 H 0.477182 0.791492 0.055514
O4_2 O 0.5341(4) 1.000000 0.5667(11)
H1_2 H 0.577018 1.000000 0.539676
O5_2 O 0.4670(4) 1.000000 0.9315(11)
H2_2 H 0.422447 1.000000 0.949592
O13 O 0.4557(5) 0.7867(6) 0.9339(11)
H16 H 0.410352 0.810782 0.941944
O14 O 0.5403(5) 0.7878(5) 0.5632(13)
H18 H 0.527699 0.796255 0.434856
H19 H 0.585239 0.803085 0.541376
O15 O 0.6055(4) 0.8770(6) 0.9335(11)
O20 O 0.9193(4) 0.6041(4) 0.2532(10)
O21 O 0.9193(4) 0.3959(4) 0.2532(10)
O19 O 0.9670(4) 0.500000 0.9315(11)
H1_3 H 0.077018 0.500000 0.539676
O7_2 O 0.0403(5) 0.7122(5) 0.5632(13)
H5_2 H 0.027699 0.703745 0.434856
H6_2 H 0.085239 0.696915 0.541376
O14_2 O 0.0403(5) 0.2878(5) 0.5632(13)
H18_2 H 0.027699 0.296255 0.434856
H19_2 H 0.085239 0.303085 0.541376
N1_2 N 0.7341(4) -0.000000 0.3809(12)
C6_2 C 0.7398(6) -0.000000 0.8048(16)
H8_2 H 0.740951 -0.000000 0.947895
O9_2 O 0.5863(3) 0.1060(4) 0.2546(10)
O11_2 O 0.8973(3) 0.3826(5) 0.5770(9)
C12_2 C 0.6227(4) 0.1322(6) 0.1167(13)
C13_2 C 0.6888(5) 0.1916(7) 0.1931(12)
C14_2 C 0.7411(5) 0.1707(7) 0.3834(11)
C15_2 C 0.7365(4) 0.0814(5) 0.4898(10)
C16_2 C 0.7389(4) 0.0860(6) 0.7020(11)
H12_2 H 0.739975 0.143842 0.771936
C17_2 C 0.7963(7) 0.2384(8) 0.4315(17)
H13_2 H 0.826874 0.232295 0.560039
C18_2 C 0.8108(5) 0.3099(7) 0.3185(14)
C19_2 C 0.8817(5) 0.3646(7) 0.3839(12)
C20_2 C 0.7702(6) 0.3221(7) 0.1372(15)
H14_2 H 0.785048 0.368941 0.051179
C21_2 C 0.7053(5) 0.2688(6) 0.0636(12)
H15_2 H 0.674722 0.282797 0.938248
O1_2 O 0.5863(3) 0.8940(4) 0.2546(10)
O3_2 O 0.8973(3) 0.6174(5) 0.5770(9)
H2_3 H 0.922447 0.500000 0.949592
O6_2 O 0.9557(5) 0.7133(6) 0.9339(11)
H3_2 H 0.910352 0.689218 0.941944
N1_3 N 0.7341(4) 1.000000 0.3809(12)
C1_2 C 0.6227(4) 0.8678(6) 0.1167(13)
C2_2 C 0.6888(5) 0.8084(7) 0.1931(12)
C3_2 C 0.7411(5) 0.8293(7) 0.3834(11)
C4_2 C 0.7365(4) 0.9186(5) 0.4898(10)
C5_2 C 0.7389(4) 0.9140(6) 0.7020(11)
H7_2 H 0.739975 0.856158 0.771936
C6_3 C 0.7398(6) 1.000000 0.8048(16)
H8_3 H 0.740951 1.000000 0.947895
C7_2 C 0.7963(7) 0.7616(8) 0.4315(17)
H9_2 H 0.826874 0.767705 0.560039
C8_2 C 0.8108(5) 0.6901(7) 0.3185(14)
C9_2 C 0.8817(5) 0.6354(7) 0.3839(12)
C10_2 C 0.7702(6) 0.6779(7) 0.1372(15)
H10_2 H 0.785048 0.631059 0.051179
C11_2 C 0.7053(5) 0.7312(6) 0.0636(12)
O13_2 O 0.9557(5) 0.2867(6) 0.9339(11)
H16_2 H 0.910352 0.310782 0.941944
H11_2 H 0.674722 0.717203 0.938248
H4_2 H 0.977182 0.708508 0.055514
H17_2 H 0.977182 0.291492 0.055514
loop_
_geom_bond_atom_site_label_1
_geom_bond_atom_site_label_2
_geom_bond_site_symmetry_1
_geom_bond_site_symmetry_2
Co1 O1 1_555 1_555
Co2 O3 1_555 1_555
O1 C1 1_555 1_555
O3 C9 1_555 1_555
O4 Co2 1_555 1_555
H1 O4 1_555 1_555
O5 Co2 1_555 1_555
H2 O5 1_555 1_555
O6 Co2 1_555 1_555
H3 O6 1_555 1_555
O7 Co2 1_555 1_555
H5 O7 1_555 1_555
H6 O7 1_555 1_555
O8 C9 1_555 1_555
N1 C4 1_555 1_555
C1 C2 1_555 1_555
C2 C3 1_555 1_555
C3 C4 1_555 1_555
C4 C5 1_555 1_555
C5 H7 1_555 1_555
C6 C5 1_555 1_555
H8 C6 1_555 1_555
C7 C3 1_555 1_555
H9 C7 1_555 1_555
C8 C7 1_555 1_555
C9 C8 1_555 1_555
C10 C8 1_555 1_555
H10 C10 1_555 1_555
C11 C2 1_555 1_555
O9 Co1 1_555 1_555
O11 C19 1_555 1_555
O12 C19 1_555 1_555
C12 O9 1_555 1_555
C13 C12 1_555 1_555
C14 C13 1_555 1_555
C15 N1 1_555 1_555
C16 C6 1_555 1_555
H12 C16 1_555 1_555
C17 C14 1_555 1_555
H13 C17 1_555 1_555
C18 C17 1_555 1_555
C19 C18 1_555 1_555
C20 C18 1_555 1_555
H14 C20 1_555 1_555
C21 C13 1_555 1_555
Co6 O4 1_555 1_555
Co6_2 O12 1_555 1_555
Co7 O11 1_555 1_555
O16 Co2 1_555 1_555
O18 Co1 1_555 1_555
O8 Co6 1_555 1_555
C10 C11 1_555 1_555
C14 C15 1_555 1_555
C15 C16 1_555 1_555
C20 C21 1_555 1_555
Co8 O10 1_555 1_555
Co9 O2 1_555 1_555
H1_2 O4_2 1_555 1_555
H2_2 O5_2 1_555 1_555
Co7 O4_2 1_555 1_555
O13 Co7 1_555 1_555
H16 O13 1_555 1_555
O14 Co7 1_555 1_555
H18 O14 1_555 1_555
H19 O14 1_555 1_555
Co6_2 O4_2 1_555 1_555
O15 Co7 1_555 1_555
O5_2 Co7 1_555 1_555
O18 Co8 1_555 1_555
H1_3 O18 1_555 1_555
O7_2 Co8 1_555 1_555
H5_2 O7_2 1_555 1_555
H6_2 O7_2 1_555 1_555
Co9 O18 1_555 1_555
O14_2 Co9 1_555 1_555
H18_2 O14_2 1_555 1_555
H19_2 O14_2 1_555 1_555
H8_2 C6_2 1_555 1_555
O9_2 Co6 1_555 1_555
O11_2 C19_2 1_555 1_555
O21 C19_2 1_555 1_555
C12_2 O9_2 1_555 1_555
C13_2 C12_2 1_555 1_555
C14_2 C13_2 1_555 1_555
C15_2 N1_2 1_555 1_555
C16_2 C6_2 1_555 1_555
H12_2 C16_2 1_555 1_555
C17_2 C14_2 1_555 1_555
H13_2 C17_2 1_555 1_555
C18_2 C17_2 1_555 1_555
C19_2 C18_2 1_555 1_555
C20_2 C18_2 1_555 1_555
H14_2 C20_2 1_555 1_555
C21_2 C13_2 1_555 1_555
C14_2 C15_2 1_555 1_555
C15_2 C16_2 1_555 1_555
C20_2 C21_2 1_555 1_555
Co6_2 O1_2 1_555 1_555
O1_2 C1_2 1_555 1_555
O3_2 C9_2 1_555 1_555
H2_3 O19 1_555 1_555
H3_2 O6_2 1_555 1_555
O20 C9_2 1_555 1_555
N1_3 C4_2 1_555 1_555
C1_2 C2_2 1_555 1_555
C2_2 C3_2 1_555 1_555
C3_2 C4_2 1_555 1_555
C4_2 C5_2 1_555 1_555
C5_2 H7_2 1_555 1_555
C6_3 C5_2 1_555 1_555
H8_3 C6_3 1_555 1_555
C7_2 C3_2 1_555 1_555
H9_2 C7_2 1_555 1_555
C8_2 C7_2 1_555 1_555
C9_2 C8_2 1_555 1_555
C10_2 C8_2 1_555 1_555
H10_2 C10_2 1_555 1_555
C11_2 C2_2 1_555 1_555
H16_2 O13_2 1_555 1_555
C10_2 C11_2 1_555 1_555

#END
