
###############################################################################
#
# This file contains modified crystal structure data generated from the
# MOF subset of the Cambridge Structural Database (CSD) v543 
# hosted by the Cambridge Crystallographic Data Centre (CCDC).
#
# This work is licensed under the Creative Commons
# Attribution-NonCommercial-ShareAlike 4.0 International License.
# To view a copy of this license, visit
# http://creativecommons.org/licenses/by-nc-sa/4.0/
# or send a letter to
# Creative Commons, PO Box 1866, Mountain View, CA 94042, USA.
#
# CIF created using the CSD Python API on 29 September 2022
# The structure has been converted into the P1 space group
# The structure has a 3D framework
# The original CSD entry EGOZUY is in the monoclinic crystal system
# The framework has been calculated to contain at least 10.0% void space
# The void calculation uses a probe of radius 1.32A, grid spacing 0.4
#
###############################################################################

data_EGOZUY
_chemical_formula_moiety         '(C80 H64 N28 O16 Zn8)n'
_symmetry_cell_setting           triclinic
_symmetry_space_group_name_H-M   'P 1'
_symmetry_Int_Tables_number      1
_space_group_name_Hall           'P 1'
loop_
_symmetry_equiv_pos_site_id
_symmetry_equiv_pos_as_xyz
1 x,y,z
_cell_length_a                   10.115(3)
_cell_length_b                   9.483(3)
_cell_length_c                   36.368(11)
_cell_angle_alpha                90
_cell_angle_beta                 92.929(4)
_cell_angle_gamma                90
_cell_volume                     3483.88
loop_
_atom_site_label
_atom_site_type_symbol
_atom_site_fract_x
_atom_site_fract_y
_atom_site_fract_z
Zn1 Zn 0.35111(5) 0.32979(6) 0.21413(2)
O1 O 0.4016(4) 0.2971(4) 0.16443(10)
O2 O 0.2545(7) 0.1283(6) 0.16271(14)
N1 N 0.5285(7) 0.0479(7) 0.00781(15)
N2 N 0.4035(4) 0.1620(4) 0.24652(11)
N3 N 0.3310(4) 0.1089(4) 0.27487(10)
C1 C 0.3413(7) 0.1937(7) 0.14905(16)
C2 C 0.3898(7) 0.1530(7) 0.11132(16)
C3 C 0.3209(8) 0.0548(9) 0.09086(18)
H1 H 0.2463 0.0132 0.1002
C4 C 0.3601(9) 0.0164(10) 0.0567(2)
C5 C 0.4719(8) 0.0782(8) 0.04361(18)
C6 C 0.5420(9) 0.1737(8) 0.0643(2)
H3 H 0.6185 0.2131 0.0556
C7 C 0.5002(7) 0.2119(8) 0.09800(18)
H4 H 0.5476 0.2787 0.1119
C8 C 0.4009(5) 0.0062(5) 0.28925(13)
C9 C 0.5126(5) 0.0860(5) 0.24561(13)
C10 C 0.6189(6) 0.1071(6) 0.21979(16)
H6 H 0.5906 0.1749 0.2014
H7 H 0.6380 0.0192 0.2081
H8 H 0.6970 0.1410 0.2330
Zn5 Zn 0.14889(5) 0.17021(6) 0.28587(2)
N10 N 0.1690(4) 0.3911(4) 0.22513(10)
N11 N 0.4841(4) 0.4855(4) 0.22774(10)
H10 H 0.6878 0.0499 0.9573
N8 N 0.4841(4) 0.0145(4) 0.72774(10)
H13 H 0.6250 0.0473 0.6909
Zn6 Zn 0.35111(5) 0.17021(6) 0.71413(2)
N4 N 0.5159(4) 0.9855(4) 0.27226(10)
H2 H 0.3122 0.9501 0.0427
H5 H 0.3750 0.9527 0.3091
Zn4 Zn 0.64889(5) 0.82979(6) 0.28587(2)
O3 O 0.5984(4) 0.7029(4) 0.83557(10)
O4 O 0.7455(7) 0.8717(6) 0.83729(14)
N5 N 0.4715(7) 0.9521(7) 0.99219(15)
C11 C 0.6587(7) 0.8063(7) 0.85095(16)
C12 C 0.6102(7) 0.8470(7) 0.88868(16)
C13 C 0.6791(8) 0.9452(9) 0.90914(18)
H9 H 0.7537 0.9868 0.8998
C14 C 0.6399(9) 0.9836(10) 0.9433(2)
C15 C 0.5281(8) 0.9218(8) 0.95639(18)
C16 C 0.4580(9) 0.8263(8) 0.9357(2)
H11 H 0.3815 0.7869 0.9444
C17 C 0.4998(7) 0.7881(8) 0.90200(18)
H12 H 0.4524 0.7213 0.8881
Zn2 Zn 0.64889(5) 0.67021(6) 0.78587(2)
N6 N 0.5965(4) 0.8380(4) 0.75348(11)
N7 N 0.6690(4) 0.8911(4) 0.72513(10)
C18 C 0.5991(5) 0.9938(5) 0.71075(13)
C19 C 0.4874(5) 0.9140(5) 0.75439(13)
C20 C 0.3811(6) 0.8929(6) 0.78021(16)
H14 H 0.4094 0.8251 0.7986
H15 H 0.3620 0.9808 0.7919
H16 H 0.3030 0.8590 0.7670
Zn3 Zn 0.85111(5) 0.82979(6) 0.71413(2)
N9 N 0.8310(4) 0.6089(4) 0.77487(10)
N12 N 0.5159(4) 0.5145(4) 0.77226(10)
N8_2 N 0.0159(4) 0.0145(4) 0.27226(10)
Zn1_2 Zn 0.14889(5) 0.32979(6) 0.78587(2)
O1_2 O 0.0984(4) 0.2971(4) 0.83557(10)
O2_2 O 0.2455(7) 0.1283(6) 0.83729(14)
N2_2 N 0.0965(4) 0.1620(4) 0.75348(11)
N3_2 N 0.1690(4) 0.1089(4) 0.72513(10)
C1_2 C 0.1587(7) 0.1937(7) 0.85095(16)
C2_2 C 0.1102(7) 0.1530(7) 0.88868(16)
C3_2 C 0.1791(8) 0.0548(9) 0.90914(18)
H1_2 H 0.2537 0.0132 0.8998
C4_2 C 0.1399(9) 0.0164(10) 0.9433(2)
C5_2 C 0.0281(8) 0.0782(8) 0.95639(18)
C8_2 C 0.0991(5) 0.0062(5) 0.71075(13)
N10_2 N 0.3310(4) 0.3911(4) 0.77487(10)
N11_2 N 0.0159(4) 0.4855(4) 0.77226(10)
O3_2 O 0.9016(4) 0.7029(4) 0.16443(10)
O4_2 O 0.7545(7) 0.8717(6) 0.16271(14)
C11_2 C 0.8413(7) 0.8063(7) 0.14905(16)
C12_2 C 0.8898(7) 0.8470(7) 0.11132(16)
C13_2 C 0.8209(8) 0.9452(9) 0.09086(18)
H9_2 H 0.7463 0.9868 0.1002
C14_2 C 0.8601(9) 0.9836(10) 0.0567(2)
C15_2 C 0.9719(8) 0.9218(8) 0.04361(18)
Zn2_2 Zn 0.85111(5) 0.67021(6) 0.21413(2)
N6_2 N 0.9035(4) 0.8380(4) 0.24652(11)
N7_2 N 0.8310(4) 0.8911(4) 0.27487(10)
C18_2 C 0.9009(5) 0.9938(5) 0.28925(13)
N9_2 N 0.6690(4) 0.6089(4) 0.22513(10)
N12_2 N 0.9841(4) 0.5145(4) 0.22774(10)
N4_2 N 0.9841(4) 0.9855(4) 0.72774(10)
N1_2 N 0.0285(7) 0.5479(7) 0.50781(15)
C6_2 C 0.0420(9) 0.6737(8) 0.5643(2)
H3_2 H 0.1185 0.7131 0.5556
C7_2 C 0.0002(7) 0.7119(8) 0.59800(18)
H4_2 H 0.0476 0.7787 0.6119
C9_2 C 0.0126(5) 0.5860(5) 0.74561(13)
C10_2 C 0.1189(6) 0.6071(6) 0.71979(16)
H6_2 H 0.0906 0.6749 0.7014
H7_2 H 0.1380 0.5192 0.7081
H8_2 H 0.1970 0.6410 0.7330
O3_3 O 0.0984(4) 0.2029(4) 0.33557(10)
O4_3 O 0.2455(7) 0.3717(6) 0.33729(14)
C11_3 C 0.1587(7) 0.3063(7) 0.35095(16)
C12_3 C 0.1102(7) 0.3470(7) 0.38868(16)
C13_3 C 0.1791(8) 0.4452(9) 0.40914(18)
H9_3 H 0.2537 0.4868 0.3998
C14_3 C 0.1399(9) 0.4836(10) 0.4433(2)
H10_2 H 0.1878 0.5499 0.4573
C15_3 C 0.0281(8) 0.4218(8) 0.45639(18)
N6_3 N 0.0965(4) 0.3380(4) 0.25348(11)
C18_3 C 0.0991(5) 0.4938(5) 0.21075(13)
H13_2 H 0.1250 0.5473 0.1909
O1_3 O 0.9016(4) 0.7971(4) 0.66443(10)
O2_3 O 0.7545(7) 0.6283(6) 0.66271(14)
N2_3 N 0.9035(4) 0.6620(4) 0.74652(11)
C1_3 C 0.8413(7) 0.6937(7) 0.64905(16)
C2_3 C 0.8898(7) 0.6530(7) 0.61132(16)
C3_3 C 0.8209(8) 0.5548(9) 0.59086(18)
H1_3 H 0.7463 0.5132 0.6002
C4_3 C 0.8601(9) 0.5164(10) 0.5567(2)
H2_2 H 0.8122 0.4501 0.5427
C5_3 C 0.9719(8) 0.5782(8) 0.54361(18)
C8_3 C 0.9009(5) 0.5062(5) 0.78925(13)
H5_2 H 0.8750 0.4527 0.8091
N5_2 N 0.9715(7) 0.4521(7) 0.49219(15)
C16_2 C 0.9580(9) 0.3263(8) 0.4357(2)
H11_2 H 0.8815 0.2869 0.4444
C17_2 C 0.9998(7) 0.2881(8) 0.40200(18)
H12_2 H 0.9524 0.2213 0.3881
C19_2 C 0.9874(5) 0.4140(5) 0.25439(13)
C20_2 C 0.8811(6) 0.3929(6) 0.28021(16)
H14_2 H 0.9094 0.3251 0.2986
H15_2 H 0.8620 0.4808 0.2919
H16_2 H 0.8030 0.3590 0.2670
O1_4 O 0.5984(4) 0.7971(4) 0.33557(10)
O2_4 O 0.7455(7) 0.6283(6) 0.33729(14)
N1_3 N 0.4715(7) 0.5479(7) 0.49219(15)
N2_4 N 0.5965(4) 0.6620(4) 0.25348(11)
C1_4 C 0.6587(7) 0.6937(7) 0.35095(16)
C2_4 C 0.6102(7) 0.6530(7) 0.38868(16)
C3_4 C 0.6791(8) 0.5548(9) 0.40914(18)
H1_4 H 0.7537 0.5132 0.3998
C4_4 C 0.6399(9) 0.5164(10) 0.4433(2)
H2_3 H 0.6878 0.4501 0.4573
C5_4 C 0.5281(8) 0.5782(8) 0.45639(18)
C6_3 C 0.4580(9) 0.6737(8) 0.4357(2)
H3_3 H 0.3815 0.7131 0.4444
C7_3 C 0.4998(7) 0.7119(8) 0.40200(18)
H4_3 H 0.4524 0.7787 0.3881
C8_4 C 0.5991(5) 0.5062(5) 0.21075(13)
H5_3 H 0.6250 0.4527 0.1909
C9_3 C 0.4874(5) 0.5860(5) 0.25439(13)
C10_3 C 0.3811(6) 0.6071(6) 0.28021(16)
H6_3 H 0.4094 0.6749 0.2986
H7_3 H 0.3620 0.5192 0.2919
H8_3 H 0.3030 0.6410 0.2670
O3_4 O 0.4016(4) 0.2029(4) 0.66443(10)
O4_4 O 0.2545(7) 0.3717(6) 0.66271(14)
N5_3 N 0.5285(7) 0.4521(7) 0.50781(15)
C11_4 C 0.3413(7) 0.3063(7) 0.64905(16)
C12_4 C 0.3898(7) 0.3470(7) 0.61132(16)
C13_4 C 0.3209(8) 0.4452(9) 0.59086(18)
H9_4 H 0.2463 0.4868 0.6002
C14_4 C 0.3601(9) 0.4836(10) 0.5567(2)
H10_3 H 0.3122 0.5499 0.5427
C15_4 C 0.4719(8) 0.4218(8) 0.54361(18)
C16_3 C 0.5420(9) 0.3263(8) 0.5643(2)
H11_3 H 0.6185 0.2869 0.5556
C17_3 C 0.5002(7) 0.2881(8) 0.59800(18)
H12_3 H 0.5476 0.2213 0.6119
N6_4 N 0.4035(4) 0.3380(4) 0.74652(11)
C18_4 C 0.4009(5) 0.4938(5) 0.78925(13)
H13_3 H 0.3750 0.5473 0.8091
C19_3 C 0.5126(5) 0.4140(5) 0.74561(13)
C20_3 C 0.6189(6) 0.3929(6) 0.71979(16)
H14_3 H 0.5906 0.3251 0.7014
H15_3 H 0.6380 0.4808 0.7081
H16_3 H 0.6970 0.3590 0.7330
N5_4 N 0.0285(7) 0.9521(7) 0.00781(15)
C16_4 C 0.0420(9) 0.8263(8) 0.0643(2)
H11_4 H 0.1185 0.7869 0.0556
C17_4 C 0.0002(7) 0.7881(8) 0.09800(18)
H12_4 H 0.0476 0.7213 0.1119
C19_4 C 0.0126(5) 0.9140(5) 0.24561(13)
C20_4 C 0.1189(6) 0.8929(6) 0.21979(16)
H14_4 H 0.0906 0.8251 0.2014
H15_4 H 0.1380 0.9808 0.2081
H16_4 H 0.1970 0.8590 0.2330
H2_4 H 0.1878 0.9501 0.9573
H5_4 H 0.1250 0.9527 0.6909
H10_4 H 0.8122 0.0499 0.0427
H13_4 H 0.8750 0.0473 0.3091
N1_4 N 0.9715(7) 0.0479(7) 0.99219(15)
C6_4 C 0.9580(9) 0.1737(8) 0.9357(2)
H3_4 H 0.8815 0.2131 0.9444
C7_4 C 0.9998(7) 0.2119(8) 0.90200(18)
H4_4 H 0.9524 0.2787 0.8881
C9_4 C 0.9874(5) 0.0860(5) 0.75439(13)
C10_4 C 0.8811(6) 0.1071(6) 0.78021(16)
H6_4 H 0.9094 0.1749 0.7986
H7_4 H 0.8620 0.0192 0.7919
H8_4 H 0.8030 0.1410 0.7670
loop_
_geom_bond_atom_site_label_1
_geom_bond_atom_site_label_2
_geom_bond_site_symmetry_1
_geom_bond_site_symmetry_2
Zn1 O1 1_555 1_555
O1 C1 1_555 1_555
O2 C1 1_555 1_555
N1 C5 1_555 1_555
N2 Zn1 1_555 1_555
N3 N2 1_555 1_555
C1 C2 1_555 1_555
C2 C3 1_555 1_555
C3 H1 1_555 1_555
C4 C3 1_555 1_555
C5 C4 1_555 1_555
C6 C5 1_555 1_555
H3 C6 1_555 1_555
C7 C2 1_555 1_555
H4 C7 1_555 1_555
C8 N3 1_555 1_555
C9 N2 1_555 1_555
C10 C9 1_555 1_555
H6 C10 1_555 1_555
H7 C10 1_555 1_555
H8 C10 1_555 1_555
Zn5 N3 1_555 1_555
N10 Zn1 1_555 1_555
N11 Zn1 1_555 1_555
C6 C7 1_555 1_555
Zn6 N8 1_555 1_555
Zn4 N4 1_555 1_555
O3 C11 1_555 1_555
O4 C11 1_555 1_555
C11 C12 1_555 1_555
C12 C13 1_555 1_555
C13 H9 1_555 1_555
C14 C13 1_555 1_555
C15 N5 1_555 1_555
C16 C15 1_555 1_555
H11 C16 1_555 1_555
C17 C12 1_555 1_555
H12 C17 1_555 1_555
Zn2 O3 1_555 1_555
N6 Zn2 1_555 1_555
N7 N6 1_555 1_555
C18 N7 1_555 1_555
C19 N6 1_555 1_555
C20 C19 1_555 1_555
H14 C20 1_555 1_555
H15 C20 1_555 1_555
H16 C20 1_555 1_555
Zn3 N7 1_555 1_555
N9 Zn2 1_555 1_555
N12 Zn2 1_555 1_555
C14 C15 1_555 1_555
C16 C17 1_555 1_555
Zn5 N8_2 1_555 1_555
Zn1_2 O1_2 1_555 1_555
O1_2 C1_2 1_555 1_555
O2_2 C1_2 1_555 1_555
N2_2 Zn1_2 1_555 1_555
N3_2 N2_2 1_555 1_555
C1_2 C2_2 1_555 1_555
C2_2 C3_2 1_555 1_555
C3_2 H1_2 1_555 1_555
C4_2 C3_2 1_555 1_555
C5_2 C4_2 1_555 1_555
C8_2 N3_2 1_555 1_555
Zn6 N3_2 1_555 1_555
N10_2 Zn1_2 1_555 1_555
N11_2 Zn1_2 1_555 1_555
O3_2 C11_2 1_555 1_555
O4_2 C11_2 1_555 1_555
C11_2 C12_2 1_555 1_555
C12_2 C13_2 1_555 1_555
C13_2 H9_2 1_555 1_555
C14_2 C13_2 1_555 1_555
Zn2_2 O3_2 1_555 1_555
N6_2 Zn2_2 1_555 1_555
N7_2 N6_2 1_555 1_555
C18_2 N7_2 1_555 1_555
Zn4 N7_2 1_555 1_555
N9_2 Zn2_2 1_555 1_555
N12_2 Zn2_2 1_555 1_555
C14_2 C15_2 1_555 1_555
Zn3 N4_2 1_555 1_555
H3_2 C6_2 1_555 1_555
H4_2 C7_2 1_555 1_555
C10_2 C9_2 1_555 1_555
H6_2 C10_2 1_555 1_555
H7_2 C10_2 1_555 1_555
H8_2 C10_2 1_555 1_555
O3_3 C11_3 1_555 1_555
O4_3 C11_3 1_555 1_555
C11_3 C12_3 1_555 1_555
C12_3 C13_3 1_555 1_555
C13_3 H9_3 1_555 1_555
C14_3 C13_3 1_555 1_555
H10_2 C14_3 1_555 1_555
Zn5 O3_3 1_555 1_555
N6_3 Zn5 1_555 1_555
N10 N6_3 1_555 1_555
C18_3 N10 1_555 1_555
H13_2 C18_3 1_555 1_555
N11_2 C9_2 1_555 1_555
C6_2 C7_2 1_555 1_555
C14_3 C15_3 1_555 1_555
Zn3 O1_3 1_555 1_555
O1_3 C1_3 1_555 1_555
O2_3 C1_3 1_555 1_555
N2_3 Zn3 1_555 1_555
N9 N2_3 1_555 1_555
C1_3 C2_3 1_555 1_555
C2_3 C3_3 1_555 1_555
C3_3 H1_3 1_555 1_555
C4_3 C3_3 1_555 1_555
H2_2 C4_3 1_555 1_555
C5_3 C4_3 1_555 1_555
C8_3 N9 1_555 1_555
H5_2 C8_3 1_555 1_555
H11_2 C16_2 1_555 1_555
H12_2 C17_2 1_555 1_555
C20_2 C19_2 1_555 1_555
H14_2 C20_2 1_555 1_555
H15_2 C20_2 1_555 1_555
H16_2 C20_2 1_555 1_555
C16_2 C17_2 1_555 1_555
N12_2 C19_2 1_555 1_555
Zn4 O1_4 1_555 1_555
O1_4 C1_4 1_555 1_555
O2_4 C1_4 1_555 1_555
N1_3 C5_4 1_555 1_555
N2_4 Zn4 1_555 1_555
N9_2 N2_4 1_555 1_555
N11 C8_4 1_555 1_555
C1_4 C2_4 1_555 1_555
C2_4 C3_4 1_555 1_555
C3_4 H1_4 1_555 1_555
C4_4 C3_4 1_555 1_555
H2_3 C4_4 1_555 1_555
C5_4 C4_4 1_555 1_555
C6_3 C5_4 1_555 1_555
H3_3 C6_3 1_555 1_555
C7_3 C2_4 1_555 1_555
H4_3 C7_3 1_555 1_555
C8_4 N9_2 1_555 1_555
H5_3 C8_4 1_555 1_555
C9_3 N2_4 1_555 1_555
C10_3 C9_3 1_555 1_555
H6_3 C10_3 1_555 1_555
H7_3 C10_3 1_555 1_555
H8_3 C10_3 1_555 1_555
O3_4 C11_4 1_555 1_555
O4_4 C11_4 1_555 1_555
N5_3 N1_3 1_555 1_555
C11_4 C12_4 1_555 1_555
C12_4 C13_4 1_555 1_555
C13_4 H9_4 1_555 1_555
C14_4 C13_4 1_555 1_555
H10_3 C14_4 1_555 1_555
C15_4 N5_3 1_555 1_555
C16_3 C15_4 1_555 1_555
H11_3 C16_3 1_555 1_555
C17_3 C12_4 1_555 1_555
H12_3 C17_3 1_555 1_555
Zn6 O3_4 1_555 1_555
N6_4 Zn6 1_555 1_555
N10_2 N6_4 1_555 1_555
N12 C18_4 1_555 1_555
C18_4 N10_2 1_555 1_555
H13_3 C18_4 1_555 1_555
C19_3 N6_4 1_555 1_555
C20_3 C19_3 1_555 1_555
H14_3 C20_3 1_555 1_555
H15_3 C20_3 1_555 1_555
H16_3 C20_3 1_555 1_555
N11 C9_3 1_555 1_555
C6_3 C7_3 1_555 1_555
C14_4 C15_4 1_555 1_555
C16_3 C17_3 1_555 1_555
N12 C19_3 1_555 1_555
H11_4 C16_4 1_555 1_555
H12_4 C17_4 1_555 1_555
C20_4 C19_4 1_555 1_555
H14_4 C20_4 1_555 1_555
H15_4 C20_4 1_555 1_555
H16_4 C20_4 1_555 1_555
C16_4 C17_4 1_555 1_555
H3_4 C6_4 1_555 1_555
H4_4 C7_4 1_555 1_555
C10_4 C9_4 1_555 1_555
H6_4 C10_4 1_555 1_555
H7_4 C10_4 1_555 1_555
H8_4 C10_4 1_555 1_555
C6_4 C7_4 1_555 1_555

#END
