
###############################################################################
#
# This file contains modified crystal structure data generated from the
# MOF subset of the Cambridge Structural Database (CSD) v543 
# hosted by the Cambridge Crystallographic Data Centre (CCDC).
#
# This work is licensed under the Creative Commons
# Attribution-NonCommercial-ShareAlike 4.0 International License.
# To view a copy of this license, visit
# http://creativecommons.org/licenses/by-nc-sa/4.0/
# or send a letter to
# Creative Commons, PO Box 1866, Mountain View, CA 94042, USA.
#
# CIF created using the CSD Python API on 29 September 2022
# The structure has been converted into the P1 space group
# The structure has a 3D framework
# The original CSD entry EGOZOS is in the tetragonal crystal system
# The framework has been calculated to contain at least 10.0% void space
# The void calculation uses a probe of radius 1.32A, grid spacing 0.4
#
###############################################################################

data_EGOZOS
_chemical_formula_moiety         '(C96 H80 N64 O32 Zn12)n'
_symmetry_cell_setting           triclinic
_symmetry_space_group_name_H-M   'P 1'
_symmetry_Int_Tables_number      1
_space_group_name_Hall           'P 1'
loop_
_symmetry_equiv_pos_site_id
_symmetry_equiv_pos_as_xyz
1 x,y,z
_cell_length_a                   12.713(3)
_cell_length_b                   12.713(3)
_cell_length_c                   25.309(6)
_cell_angle_alpha                90
_cell_angle_beta                 90
_cell_angle_gamma                90
_cell_volume                     4090.45
loop_
_atom_site_label
_atom_site_type_symbol
_atom_site_fract_x
_atom_site_fract_y
_atom_site_fract_z
Zn1 Zn 0.53842(3) 0.06888(3) 0.43759(2)
N1 N 0.39926(18) 0.00259(18) 0.44910(9)
O1 O 0.5110(2) 0.0908(2) 0.33131(12)
O2 O 0.6454(3) 0.0565(3) 0.38336(10)
N4 N 0.3042(2) 0.0360(3) 0.37060(11)
H2 H 0.3604 0.0540 0.3540
H3 H 0.2445 0.0369 0.3546
C2 C 0.3095(2) 0.0063(2) 0.42134(11)
C3 C 0.6064(3) 0.0748(3) 0.33829(14)
C4 C 0.6814(3) 0.0776(3) 0.29258(12)
C5 C 0.6430(3) 0.0781(4) 0.24172(15)
H4 H 0.5708 0.0786 0.2358
C6 C 0.7876(3) 0.0780(4) 0.30076(13)
H5 H 0.8138 0.0781 0.3351
O3 O 0.9890(2) 0.0908(2) 0.16869(12)
O4 O 0.8546(3) 0.0565(3) 0.11664(10)
C7 C 0.8936(3) 0.0748(3) 0.16171(14)
C8 C 0.8186(3) 0.0776(3) 0.20742(12)
C9 C 0.8570(3) 0.0781(4) 0.25828(15)
H6 H 0.9292 0.0786 0.2642
C10 C 0.7124(3) 0.0780(4) 0.19924(13)
H7 H 0.6862 0.0781 0.1649
Zn2 Zn 0.43112(3) 0.53842(3) 0.43759(2)
N5 N 0.49741(18) 0.39926(18) 0.44910(9)
N6 N 0.52261(19) 0.22640(18) 0.45114(9)
N7 N 0.52867(18) 0.37094(18) 0.49984(9)
C11 C 0.5423(2) 0.2696(2) 0.49851(10)
H8 H 0.5638 0.2307 0.5277
N8 N 0.4640(3) 0.3042(2) 0.37060(11)
H9 H 0.4460 0.3604 0.3540
H10 H 0.4631 0.2445 0.3546
C12 C 0.4937(2) 0.3095(2) 0.42134(11)
Zn4 Zn 0.96158(3) 0.06888(3) 0.06241(2)
Zn6 Zn 0.56888(3) 0.46158(3) 0.56241(2)
N9 N 0.27360(18) 0.52261(19) 0.45114(9)
O5 O 0.4435(3) 0.6454(3) 0.38336(10)
N10 N 0.62906(18) 0.02867(18) 0.50016(9)
N11 N 0.47133(18) 0.62906(18) 0.50016(9)
N2 N 0.22640(18) 0.97739(19) 0.45114(9)
N3 N 0.37094(18) 0.97133(18) 0.49984(9)
C1 C 0.2696(2) 0.9577(2) 0.49851(10)
H1 H 0.2307 0.9362 0.5277
Zn3 Zn 0.06888(3) 0.96158(3) 0.43759(2)
Zn5 Zn 0.46158(3) 0.93112(3) 0.56241(2)
N1_2 N 0.10074(18) 0.49741(18) 0.44910(9)
N3_2 N 0.12906(18) 0.52867(18) 0.49984(9)
C1_2 C 0.2304(2) 0.5423(2) 0.49851(10)
H1_2 H 0.2693 0.5638 0.5277
N4_2 N 0.1958(2) 0.4640(3) 0.37060(11)
H2_2 H 0.1396 0.4460 0.3540
H3_2 H 0.2555 0.4631 0.3546
C2_2 C 0.1905(2) 0.4937(2) 0.42134(11)
N5_2 N 0.00259(18) 0.10074(18) 0.44910(9)
N8_2 N 0.0360(3) 0.1958(2) 0.37060(11)
H9_2 H 0.0540 0.1396 0.3540
H10_2 H 0.0369 0.2555 0.3546
C12_2 C 0.0063(2) 0.1905(2) 0.42134(11)
Zn5_2 Zn 0.03842(3) 0.56888(3) 0.56241(2)
O5_2 O 0.0565(3) 0.8546(3) 0.38336(10)
N11_2 N 0.02867(18) 0.87094(18) 0.50016(9)
Zn1_2 Zn 0.96158(3) 0.43112(3) 0.43759(2)
O1_2 O 0.9890(2) 0.4092(2) 0.33131(12)
O2_2 O 0.8546(3) 0.4435(3) 0.38336(10)
C3_2 C 0.8936(3) 0.4252(3) 0.33829(14)
C4_2 C 0.8186(3) 0.4224(3) 0.29258(12)
C5_2 C 0.8570(3) 0.4219(4) 0.24172(15)
H4_2 H 0.9292 0.4214 0.2358
C6_2 C 0.7124(3) 0.4220(4) 0.30076(13)
H5_2 H 0.6862 0.4219 0.3351
O3_2 O 0.5110(2) 0.4092(2) 0.16869(12)
O4_2 O 0.6454(3) 0.4435(3) 0.11664(10)
C7_2 C 0.6064(3) 0.4252(3) 0.16171(14)
C8_2 C 0.6814(3) 0.4224(3) 0.20742(12)
C9_2 C 0.6430(3) 0.4219(4) 0.25828(15)
H6_2 H 0.5708 0.4214 0.2642
C10_2 C 0.7876(3) 0.4220(4) 0.19924(13)
H7_2 H 0.8138 0.4219 0.1649
N6_2 N 0.97739(19) 0.27360(18) 0.45114(9)
N7_2 N 0.97133(18) 0.12906(18) 0.49984(9)
C11_2 C 0.9577(2) 0.2304(2) 0.49851(10)
H8_2 H 0.9362 0.2693 0.5277
Zn4_2 Zn 0.53842(3) 0.43112(3) 0.06241(2)
Zn6_2 Zn 0.93112(3) 0.03842(3) 0.56241(2)
N10_2 N 0.87094(18) 0.47133(18) 0.50016(9)
O1_3 O 0.4092(2) 0.5110(2) 0.33131(12)
C3_3 C 0.4252(3) 0.6064(3) 0.33829(14)
C4_3 C 0.4224(3) 0.6814(3) 0.29258(12)
C5_3 C 0.4219(4) 0.6430(3) 0.24172(15)
H4_3 H 0.4214 0.5708 0.2358
C6_3 C 0.4220(4) 0.7876(3) 0.30076(13)
H5_3 H 0.4219 0.8138 0.3351
O3_3 O 0.4092(2) 0.9890(2) 0.16869(12)
O4_3 O 0.4435(3) 0.8546(3) 0.11664(10)
C7_3 C 0.4252(3) 0.8936(3) 0.16171(14)
C8_3 C 0.4224(3) 0.8186(3) 0.20742(12)
C9_3 C 0.4219(4) 0.8570(3) 0.25828(15)
H6_3 H 0.4214 0.9292 0.2642
C10_3 C 0.4220(4) 0.7124(3) 0.19924(13)
H7_3 H 0.4219 0.6862 0.1649
Zn4_3 Zn 0.43112(3) 0.96158(3) 0.06241(2)
O1_4 O 0.0908(2) 0.9890(2) 0.33131(12)
C3_4 C 0.0748(3) 0.8936(3) 0.33829(14)
C4_4 C 0.0776(3) 0.8186(3) 0.29258(12)
C5_4 C 0.0781(4) 0.8570(3) 0.24172(15)
H4_4 H 0.0786 0.9292 0.2358
C6_4 C 0.0780(4) 0.7124(3) 0.30076(13)
H5_4 H 0.0781 0.6862 0.3351
O3_4 O 0.0908(2) 0.5110(2) 0.16869(12)
O4_4 O 0.0565(3) 0.6454(3) 0.11664(10)
C7_4 C 0.0748(3) 0.6064(3) 0.16171(14)
C8_4 C 0.0776(3) 0.6814(3) 0.20742(12)
C9_4 C 0.0781(4) 0.6430(3) 0.25828(15)
H6_4 H 0.0786 0.5708 0.2642
C10_4 C 0.0780(4) 0.7876(3) 0.19924(13)
H7_4 H 0.0781 0.8138 0.1649
Zn4_4 Zn 0.06888(3) 0.53842(3) 0.06241(2)
N1_3 N 0.10074(18) 0.00259(18) 0.05090(9)
N4_3 N 0.1958(2) 0.0360(3) 0.12940(11)
H2_3 H 0.1396 0.0540 0.1460
H3_3 H 0.2555 0.0369 0.1454
C2_3 C 0.1905(2) 0.0063(2) 0.07866(11)
N5_3 N 0.00259(18) 0.39926(18) 0.05090(9)
N8_3 N 0.0360(3) 0.3042(2) 0.12940(11)
H9_3 H 0.0540 0.3604 0.1460
H10_3 H 0.0369 0.2445 0.1454
C12_3 C 0.0063(2) 0.3095(2) 0.07866(11)
N9_2 N 0.22640(18) 0.52261(19) 0.04886(9)
N11_3 N 0.02867(18) 0.62906(18) 0.99984(9)
N2_2 N 0.27360(18) 0.97739(19) 0.04886(9)
N3_3 N 0.12906(18) 0.97133(18) 0.00016(9)
C1_3 C 0.2304(2) 0.9577(2) 0.00149(10)
H1_3 H 0.2693 0.9362 0.9723
Zn5_3 Zn 0.03842(3) 0.93112(3) 0.93759(2)
N6_3 N 0.97739(19) 0.22640(18) 0.04886(9)
N7_3 N 0.97133(18) 0.37094(18) 0.00016(9)
C11_3 C 0.9577(2) 0.2696(2) 0.00149(10)
H8_3 H 0.9362 0.2307 0.9723
Zn6_3 Zn 0.93112(3) 0.46158(3) 0.93759(2)
N10_3 N 0.87094(18) 0.02867(18) 0.99984(9)
N1_4 N 0.39926(18) 0.49741(18) 0.05090(9)
N3_4 N 0.37094(18) 0.52867(18) 0.00016(9)
C1_4 C 0.2696(2) 0.5423(2) 0.00149(10)
N4_4 N 0.3042(2) 0.4640(3) 0.12940(11)
H2_4 H 0.3604 0.4460 0.1460
H3_4 H 0.2445 0.4631 0.1454
C2_4 C 0.3095(2) 0.4937(2) 0.07866(11)
N5_4 N 0.49741(18) 0.10074(18) 0.05090(9)
N6_4 N 0.52261(19) 0.27360(18) 0.04886(9)
N7_4 N 0.52867(18) 0.12906(18) 0.00016(9)
C11_4 C 0.5423(2) 0.2304(2) 0.00149(10)
N8_4 N 0.4640(3) 0.1958(2) 0.12940(11)
H9_4 H 0.4460 0.1396 0.1460
H10_4 H 0.4631 0.2555 0.1454
C12_4 C 0.4937(2) 0.1905(2) 0.07866(11)
H1_4 H 0.2307 0.5638 0.9723
H8_4 H 0.5638 0.2693 0.9723
Zn5_4 Zn 0.46158(3) 0.56888(3) 0.93759(2)
Zn6_4 Zn 0.56888(3) 0.03842(3) 0.93759(2)
N10_4 N 0.62906(18) 0.47133(18) 0.99984(9)
N11_4 N 0.47133(18) 0.87094(18) 0.99984(9)
N2_3 N 0.77360(18) 0.02261(19) 0.54886(9)
C1_5 C 0.7304(2) 0.0423(2) 0.50149(10)
H1_5 H 0.7693 0.0638 0.4723
N1_5 N 0.60074(18) 0.99741(18) 0.55090(9)
O1_5 O 0.4890(2) 0.9092(2) 0.66869(12)
O2_3 O 0.3546(3) 0.9435(3) 0.61664(10)
N4_5 N 0.6958(2) 0.9640(3) 0.62940(11)
H2_5 H 0.6396 0.9460 0.6460
H3_5 H 0.7555 0.9631 0.6454
C2_5 C 0.6905(2) 0.9937(2) 0.57866(11)
C3_5 C 0.3936(3) 0.9252(3) 0.66171(14)
C4_5 C 0.3186(3) 0.9224(3) 0.70742(12)
C5_5 C 0.3570(3) 0.9219(4) 0.75828(15)
H4_5 H 0.4292 0.9214 0.7642
C6_5 C 0.2124(3) 0.9220(4) 0.69924(13)
H5_5 H 0.1862 0.9219 0.6649
O3_5 O 0.0110(2) 0.9092(2) 0.83131(12)
O4_5 O 0.1454(3) 0.9435(3) 0.88336(10)
C7_5 C 0.1064(3) 0.9252(3) 0.83829(14)
C8_5 C 0.1814(3) 0.9224(3) 0.79258(12)
C9_5 C 0.1430(3) 0.9219(4) 0.74172(15)
H6_5 H 0.0708 0.9214 0.7358
C10_5 C 0.2876(3) 0.9220(4) 0.80076(13)
H7_5 H 0.3138 0.9219 0.8351
N5_5 N 0.50259(18) 0.60074(18) 0.55090(9)
N6_5 N 0.47739(19) 0.77360(18) 0.54886(9)
C11_5 C 0.4577(2) 0.7304(2) 0.50149(10)
H8_5 H 0.4362 0.7693 0.4723
N8_5 N 0.5360(3) 0.6958(2) 0.62940(11)
H9_5 H 0.5540 0.6396 0.6460
H10_5 H 0.5369 0.7555 0.6454
C12_5 C 0.5063(2) 0.6905(2) 0.57866(11)
N9_3 N 0.72640(18) 0.47739(19) 0.54886(9)
O5_3 O 0.5565(3) 0.3546(3) 0.61664(10)
O1_6 O 0.0110(2) 0.5908(2) 0.66869(12)
O2_4 O 0.1454(3) 0.5565(3) 0.61664(10)
C3_6 C 0.1064(3) 0.5748(3) 0.66171(14)
C4_6 C 0.1814(3) 0.5776(3) 0.70742(12)
C5_6 C 0.1430(3) 0.5781(4) 0.75828(15)
H4_6 H 0.0708 0.5786 0.7642
C6_6 C 0.2876(3) 0.5780(4) 0.69924(13)
H5_6 H 0.3138 0.5781 0.6649
O3_6 O 0.4890(2) 0.5908(2) 0.83131(12)
O4_6 O 0.3546(3) 0.5565(3) 0.88336(10)
C7_6 C 0.3936(3) 0.5748(3) 0.83829(14)
C8_6 C 0.3186(3) 0.5776(3) 0.79258(12)
C9_6 C 0.3570(3) 0.5781(4) 0.74172(15)
H6_6 H 0.4292 0.5786 0.7358
C10_6 C 0.2124(3) 0.5780(4) 0.80076(13)
H7_6 H 0.1862 0.5781 0.8351
N6_6 N 0.02261(19) 0.72640(18) 0.54886(9)
C11_6 C 0.0423(2) 0.7696(2) 0.50149(10)
H8_6 H 0.0638 0.7307 0.4723
O5_4 O 0.9435(3) 0.1454(3) 0.61664(10)
N1_6 N 0.89926(18) 0.50259(18) 0.55090(9)
C1_6 C 0.7696(2) 0.4577(2) 0.50149(10)
H1_6 H 0.7307 0.4362 0.4723
N4_6 N 0.8042(2) 0.5360(3) 0.62940(11)
H2_6 H 0.8604 0.5540 0.6460
H3_6 H 0.7445 0.5369 0.6454
C2_6 C 0.8095(2) 0.5063(2) 0.57866(11)
N5_6 N 0.99741(18) 0.89926(18) 0.55090(9)
N8_6 N 0.9640(3) 0.8042(2) 0.62940(11)
H9_6 H 0.9460 0.8604 0.6460
H10_6 H 0.9631 0.7445 0.6454
C12_6 C 0.9937(2) 0.8095(2) 0.57866(11)
O1_7 O 0.5908(2) 0.4890(2) 0.66869(12)
C3_7 C 0.5748(3) 0.3936(3) 0.66171(14)
C4_7 C 0.5776(3) 0.3186(3) 0.70742(12)
C5_7 C 0.5781(4) 0.3570(3) 0.75828(15)
H4_7 H 0.5786 0.4292 0.7642
C6_7 C 0.5780(4) 0.2124(3) 0.69924(13)
H5_7 H 0.5781 0.1862 0.6649
O3_7 O 0.5908(2) 0.0110(2) 0.83131(12)
O4_7 O 0.5565(3) 0.1454(3) 0.88336(10)
C7_7 C 0.5748(3) 0.1064(3) 0.83829(14)
C8_7 C 0.5776(3) 0.1814(3) 0.79258(12)
C9_7 C 0.5781(4) 0.1430(3) 0.74172(15)
H6_7 H 0.5786 0.0708 0.7358
C10_7 C 0.5780(4) 0.2876(3) 0.80076(13)
H7_7 H 0.5781 0.3138 0.8351
O1_8 O 0.9092(2) 0.0110(2) 0.66869(12)
C3_8 C 0.9252(3) 0.1064(3) 0.66171(14)
C4_8 C 0.9224(3) 0.1814(3) 0.70742(12)
C5_8 C 0.9219(4) 0.1430(3) 0.75828(15)
H4_8 H 0.9214 0.0708 0.7642
C6_8 C 0.9220(4) 0.2876(3) 0.69924(13)
H5_8 H 0.9219 0.3138 0.6649
O3_8 O 0.9092(2) 0.4890(2) 0.83131(12)
O4_8 O 0.9435(3) 0.3546(3) 0.88336(10)
C7_8 C 0.9252(3) 0.3936(3) 0.83829(14)
C8_8 C 0.9224(3) 0.3186(3) 0.79258(12)
C9_8 C 0.9219(4) 0.3570(3) 0.74172(15)
H6_8 H 0.9214 0.4292 0.7358
C10_8 C 0.9220(4) 0.2124(3) 0.80076(13)
H7_8 H 0.9219 0.1862 0.8351
H8_7 H 0.0638 0.7693 0.0277
N6_7 N 0.02261(19) 0.77360(18) 0.95114(9)
C11_7 C 0.0423(2) 0.7304(2) 0.99851(10)
H1_7 H 0.7307 0.0638 0.0277
N2_4 N 0.72640(18) 0.02261(19) 0.95114(9)
C1_7 C 0.7696(2) 0.0423(2) 0.99851(10)
N1_7 N 0.89926(18) 0.99741(18) 0.94910(9)
N4_7 N 0.8042(2) 0.9640(3) 0.87060(11)
H2_7 H 0.8604 0.9460 0.8540
H3_7 H 0.7445 0.9631 0.8546
C2_7 C 0.8095(2) 0.9937(2) 0.92134(11)
N5_7 N 0.99741(18) 0.60074(18) 0.94910(9)
N8_7 N 0.9640(3) 0.6958(2) 0.87060(11)
H9_7 H 0.9460 0.6396 0.8540
H10_7 H 0.9631 0.7555 0.8546
C12_7 C 0.9937(2) 0.6905(2) 0.92134(11)
N9_4 N 0.77360(18) 0.47739(19) 0.95114(9)
H1_8 H 0.7693 0.4362 0.0277
H8_8 H 0.4362 0.7307 0.0277
N1_8 N 0.60074(18) 0.50259(18) 0.94910(9)
C1_8 C 0.7304(2) 0.4577(2) 0.99851(10)
N4_8 N 0.6958(2) 0.5360(3) 0.87060(11)
H2_8 H 0.6396 0.5540 0.8540
H3_8 H 0.7555 0.5369 0.8546
C2_8 C 0.6905(2) 0.5063(2) 0.92134(11)
N5_8 N 0.50259(18) 0.89926(18) 0.94910(9)
N6_8 N 0.47739(19) 0.72640(18) 0.95114(9)
C11_8 C 0.4577(2) 0.7696(2) 0.99851(10)
N8_8 N 0.5360(3) 0.8042(2) 0.87060(11)
H9_8 H 0.5540 0.8604 0.8540
H10_8 H 0.5369 0.7445 0.8546
C12_8 C 0.5063(2) 0.8095(2) 0.92134(11)
loop_
_geom_bond_atom_site_label_1
_geom_bond_atom_site_label_2
_geom_bond_site_symmetry_1
_geom_bond_site_symmetry_2
Zn1 N1 1_555 1_555
O1 C3 1_555 1_555
O2 Zn1 1_555 1_555
N4 H2 1_555 1_555
H3 N4 1_555 1_555
C2 N1 1_555 1_555
C3 O2 1_555 1_555
C4 C3 1_555 1_555
C5 C4 1_555 1_555
H4 C5 1_555 1_555
C6 C4 1_555 1_555
H5 C6 1_555 1_555
O3 C7 1_555 1_555
O4 C7 1_555 1_555
C7 C8 1_555 1_555
C8 C9 1_555 1_555
C9 C6 1_555 1_555
H6 C9 1_555 1_555
C10 C5 1_555 1_555
H7 C10 1_555 1_555
Zn2 N5 1_555 1_555
N5 N7 1_555 1_555
N6 Zn1 1_555 1_555
N7 C11 1_555 1_555
C11 N6 1_555 1_555
H8 C11 1_555 1_555
N8 H9 1_555 1_555
H10 N8 1_555 1_555
C12 N5 1_555 1_555
Zn4 O4 1_555 1_555
Zn6 N7 1_555 1_555
N9 Zn2 1_555 1_555
O5 Zn2 1_555 1_555
N10 Zn1 1_555 1_555
N11 Zn2 1_555 1_555
N4 C2 1_555 1_555
C8 C10 1_555 1_555
N6 C12 1_555 1_555
N8 C12 1_555 1_555
N2 C1 1_555 1_555
N3 C1 1_555 1_555
C1 H1 1_555 1_555
Zn3 N2 1_555 1_555
Zn5 N3 1_555 1_555
N1_2 N3_2 1_555 1_555
N9 C1_2 1_555 1_555
N3_2 C1_2 1_555 1_555
C1_2 H1_2 1_555 1_555
N4_2 H2_2 1_555 1_555
H3_2 N4_2 1_555 1_555
C2_2 N1_2 1_555 1_555
N8_2 H9_2 1_555 1_555
H10_2 N8_2 1_555 1_555
C12_2 N5_2 1_555 1_555
Zn5_2 N3_2 1_555 1_555
N9 C2_2 1_555 1_555
N4_2 C2_2 1_555 1_555
N8_2 C12_2 1_555 1_555
O5_2 Zn3 1_555 1_555
N11_2 Zn3 1_555 1_555
O1_2 C3_2 1_555 1_555
O2_2 Zn1_2 1_555 1_555
C3_2 O2_2 1_555 1_555
C4_2 C3_2 1_555 1_555
C5_2 C4_2 1_555 1_555
H4_2 C5_2 1_555 1_555
C6_2 C4_2 1_555 1_555
H5_2 C6_2 1_555 1_555
O3_2 C7_2 1_555 1_555
O4_2 C7_2 1_555 1_555
C7_2 C8_2 1_555 1_555
C8_2 C9_2 1_555 1_555
C9_2 C6_2 1_555 1_555
H6_2 C9_2 1_555 1_555
C10_2 C5_2 1_555 1_555
H7_2 C10_2 1_555 1_555
N6_2 Zn1_2 1_555 1_555
N7_2 C11_2 1_555 1_555
C11_2 N6_2 1_555 1_555
H8_2 C11_2 1_555 1_555
Zn4_2 O4_2 1_555 1_555
Zn6_2 N7_2 1_555 1_555
N10_2 Zn1_2 1_555 1_555
C8_2 C10_2 1_555 1_555
O1_3 C3_3 1_555 1_555
C3_3 O5 1_555 1_555
C4_3 C3_3 1_555 1_555
C5_3 C4_3 1_555 1_555
H4_3 C5_3 1_555 1_555
C6_3 C4_3 1_555 1_555
H5_3 C6_3 1_555 1_555
O3_3 C7_3 1_555 1_555
O4_3 C7_3 1_555 1_555
C7_3 C8_3 1_555 1_555
C8_3 C9_3 1_555 1_555
C9_3 C6_3 1_555 1_555
H6_3 C9_3 1_555 1_555
C10_3 C5_3 1_555 1_555
H7_3 C10_3 1_555 1_555
Zn4_3 O4_3 1_555 1_555
C8_3 C10_3 1_555 1_555
O1_4 C3_4 1_555 1_555
C3_4 O5_2 1_555 1_555
C4_4 C3_4 1_555 1_555
C5_4 C4_4 1_555 1_555
H4_4 C5_4 1_555 1_555
C6_4 C4_4 1_555 1_555
H5_4 C6_4 1_555 1_555
O3_4 C7_4 1_555 1_555
O4_4 C7_4 1_555 1_555
C7_4 C8_4 1_555 1_555
C8_4 C9_4 1_555 1_555
C9_4 C6_4 1_555 1_555
H6_4 C9_4 1_555 1_555
C10_4 C5_4 1_555 1_555
H7_4 C10_4 1_555 1_555
Zn4_4 O4_4 1_555 1_555
C8_4 C10_4 1_555 1_555
N4_3 H2_3 1_555 1_555
H3_3 N4_3 1_555 1_555
C2_3 N1_3 1_555 1_555
Zn4_4 N5_3 1_555 1_555
N8_3 H9_3 1_555 1_555
H10_3 N8_3 1_555 1_555
C12_3 N5_3 1_555 1_555
N9_2 Zn4_4 1_555 1_555
N4_3 C2_3 1_555 1_555
N8_3 C12_3 1_555 1_555
N2_2 C1_3 1_555 1_555
N3_3 C1_3 1_555 1_555
Zn4_3 N2_2 1_555 1_555
N6_3 Zn4 1_555 1_555
N7_3 C11_3 1_555 1_555
C11_3 N6_3 1_555 1_555
Zn4_2 N1_4 1_555 1_555
N1_4 N3_4 1_555 1_555
N9_2 C1_4 1_555 1_555
N3_4 C1_4 1_555 1_555
N4_4 H2_4 1_555 1_555
H3_4 N4_4 1_555 1_555
C2_4 N1_4 1_555 1_555
N5_4 N7_4 1_555 1_555
N6_4 Zn4_2 1_555 1_555
N7_4 C11_4 1_555 1_555
C11_4 N6_4 1_555 1_555
N8_4 H9_4 1_555 1_555
H10_4 N8_4 1_555 1_555
C12_4 N5_4 1_555 1_555
N9_2 C2_4 1_555 1_555
N4_4 C2_4 1_555 1_555
N6_4 C12_4 1_555 1_555
N8_4 C12_4 1_555 1_555
N2_3 C1_5 1_555 1_555
N10 C1_5 1_555 1_555
C1_5 H1_5 1_555 1_555
Zn6_2 N2_3 1_555 1_555
Zn5 N1_5 1_555 1_555
O1_5 C3_5 1_555 1_555
O2_3 Zn5 1_555 1_555
N4_5 H2_5 1_555 1_555
H3_5 N4_5 1_555 1_555
C2_5 N1_5 1_555 1_555
C3_5 O2_3 1_555 1_555
C4_5 C3_5 1_555 1_555
C5_5 C4_5 1_555 1_555
H4_5 C5_5 1_555 1_555
C6_5 C4_5 1_555 1_555
H5_5 C6_5 1_555 1_555
O3_5 C7_5 1_555 1_555
O4_5 C7_5 1_555 1_555
C7_5 C8_5 1_555 1_555
C8_5 C9_5 1_555 1_555
C9_5 C6_5 1_555 1_555
H6_5 C9_5 1_555 1_555
C10_5 C5_5 1_555 1_555
H7_5 C10_5 1_555 1_555
Zn6 N5_5 1_555 1_555
N5_5 N11 1_555 1_555
N6_5 Zn5 1_555 1_555
N11 C11_5 1_555 1_555
C11_5 N6_5 1_555 1_555
H8_5 C11_5 1_555 1_555
N8_5 H9_5 1_555 1_555
H10_5 N8_5 1_555 1_555
C12_5 N5_5 1_555 1_555
Zn5_3 O4_5 1_555 1_555
N9_3 Zn6 1_555 1_555
O5_3 Zn6 1_555 1_555
N4_5 C2_5 1_555 1_555
C8_5 C10_5 1_555 1_555
N6_5 C12_5 1_555 1_555
N8_5 C12_5 1_555 1_555
O1_6 C3_6 1_555 1_555
O2_4 Zn5_2 1_555 1_555
C3_6 O2_4 1_555 1_555
C4_6 C3_6 1_555 1_555
C5_6 C4_6 1_555 1_555
H4_6 C5_6 1_555 1_555
C6_6 C4_6 1_555 1_555
H5_6 C6_6 1_555 1_555
O3_6 C7_6 1_555 1_555
O4_6 C7_6 1_555 1_555
C7_6 C8_6 1_555 1_555
C8_6 C9_6 1_555 1_555
C9_6 C6_6 1_555 1_555
H6_6 C9_6 1_555 1_555
C10_6 C5_6 1_555 1_555
H7_6 C10_6 1_555 1_555
N6_6 Zn5_2 1_555 1_555
N11_2 C11_6 1_555 1_555
C11_6 N6_6 1_555 1_555
H8_6 C11_6 1_555 1_555
Zn5_4 O4_6 1_555 1_555
C8_6 C10_6 1_555 1_555
O5_4 Zn6_2 1_555 1_555
N1_6 N10_2 1_555 1_555
N9_3 C1_6 1_555 1_555
N10_2 C1_6 1_555 1_555
C1_6 H1_6 1_555 1_555
N4_6 H2_6 1_555 1_555
H3_6 N4_6 1_555 1_555
C2_6 N1_6 1_555 1_555
N8_6 H9_6 1_555 1_555
H10_6 N8_6 1_555 1_555
C12_6 N5_6 1_555 1_555
N9_3 C2_6 1_555 1_555
N4_6 C2_6 1_555 1_555
N8_6 C12_6 1_555 1_555
O1_7 C3_7 1_555 1_555
C3_7 O5_3 1_555 1_555
C4_7 C3_7 1_555 1_555
C5_7 C4_7 1_555 1_555
H4_7 C5_7 1_555 1_555
C6_7 C4_7 1_555 1_555
H5_7 C6_7 1_555 1_555
O3_7 C7_7 1_555 1_555
O4_7 C7_7 1_555 1_555
C7_7 C8_7 1_555 1_555
C8_7 C9_7 1_555 1_555
C9_7 C6_7 1_555 1_555
H6_7 C9_7 1_555 1_555
C10_7 C5_7 1_555 1_555
H7_7 C10_7 1_555 1_555
Zn6_4 O4_7 1_555 1_555
C8_7 C10_7 1_555 1_555
O1_8 C3_8 1_555 1_555
C3_8 O5_4 1_555 1_555
C4_8 C3_8 1_555 1_555
C5_8 C4_8 1_555 1_555
H4_8 C5_8 1_555 1_555
C6_8 C4_8 1_555 1_555
H5_8 C6_8 1_555 1_555
O3_8 C7_8 1_555 1_555
O4_8 C7_8 1_555 1_555
C7_8 C8_8 1_555 1_555
C8_8 C9_8 1_555 1_555
C9_8 C6_8 1_555 1_555
H6_8 C9_8 1_555 1_555
C10_8 C5_8 1_555 1_555
H7_8 C10_8 1_555 1_555
Zn6_3 O4_8 1_555 1_555
C8_8 C10_8 1_555 1_555
N6_7 Zn5_3 1_555 1_555
N11_3 C11_7 1_555 1_555
C11_7 N6_7 1_555 1_555
N2_4 C1_7 1_555 1_555
N10_3 C1_7 1_555 1_555
Zn6_4 N2_4 1_555 1_555
N4_7 H2_7 1_555 1_555
H3_7 N4_7 1_555 1_555
C2_7 N1_7 1_555 1_555
Zn6_3 N5_7 1_555 1_555
N8_7 H9_7 1_555 1_555
H10_7 N8_7 1_555 1_555
C12_7 N5_7 1_555 1_555
N9_4 Zn6_3 1_555 1_555
N4_7 C2_7 1_555 1_555
N8_7 C12_7 1_555 1_555
Zn5_4 N1_8 1_555 1_555
N1_8 N10_4 1_555 1_555
N9_4 C1_8 1_555 1_555
N10_4 C1_8 1_555 1_555
N4_8 H2_8 1_555 1_555
H3_8 N4_8 1_555 1_555
C2_8 N1_8 1_555 1_555
N5_8 N11_4 1_555 1_555
N6_8 Zn5_4 1_555 1_555
N11_4 C11_8 1_555 1_555
C11_8 N6_8 1_555 1_555
N8_8 H9_8 1_555 1_555
H10_8 N8_8 1_555 1_555
C12_8 N5_8 1_555 1_555
N9_4 C2_8 1_555 1_555
N4_8 C2_8 1_555 1_555
N6_8 C12_8 1_555 1_555
N8_8 C12_8 1_555 1_555

#END
