
###############################################################################
#
# This file contains modified crystal structure data generated from the
# MOF subset of the Cambridge Structural Database (CSD) v543 
# hosted by the Cambridge Crystallographic Data Centre (CCDC).
#
# This work is licensed under the Creative Commons
# Attribution-NonCommercial-ShareAlike 4.0 International License.
# To view a copy of this license, visit
# http://creativecommons.org/licenses/by-nc-sa/4.0/
# or send a letter to
# Creative Commons, PO Box 1866, Mountain View, CA 94042, USA.
#
# CIF created using the CSD Python API on 29 September 2022
# The structure has been converted into the P1 space group
# The structure has a 3D framework
# The original CSD entry EGUKAV is in the cubic crystal system
# The original CSD entry EGUKAV is in a Sohncke space group
# The framework has been calculated to contain at least 10.0% void space
# The void calculation uses a probe of radius 1.32A, grid spacing 0.4
#
###############################################################################

data_EGUKAV
_chemical_formula_moiety         '(C96 H60 N12 O44 Sc8)n'
_symmetry_cell_setting           triclinic
_symmetry_space_group_name_H-M   'P 1'
_symmetry_Int_Tables_number      1
_space_group_name_Hall           'P 1'
loop_
_symmetry_equiv_pos_site_id
_symmetry_equiv_pos_as_xyz
1 x,y,z
_cell_length_a                   13.9899(4)
_cell_length_b                   13.9899(4)
_cell_length_c                   13.9899(4)
_cell_angle_alpha                90
_cell_angle_beta                 90
_cell_angle_gamma                90
_cell_volume                     2738.07
loop_
_atom_site_label
_atom_site_type_symbol
_atom_site_fract_x
_atom_site_fract_y
_atom_site_fract_z
C9 C 0.1355(3) 0.1060(3) 0.6780(3)
C11 C 0.0996(3) 0.0358(3) 0.7404(3)
H6 H 0.0362 0.0377 0.7604
C14 C 0.2292(3) 0.1030(3) 0.6481(3)
H8 H 0.2519 0.1492 0.6060
C15 C 0.2899(3) 0.0318(3) 0.6803(4)
C16 C 0.0697(3) 0.1831(3) 0.6427(3)
N2 N 0.3846(3) 0.0294(3) 0.6481(4)
H9 H 0.4048 0.0719 0.6086
O5 O 0.10667(19) 0.25300(19) 0.5996(2)
Sc4 Sc 0.09746(6) 0.40254(6) 0.59746(6)
C1 C 0.1060(3) 0.6780(3) 0.1355(3)
C3 C 0.0358(3) 0.7404(3) 0.0996(3)
H1 H 0.0377 0.7604 0.0362
C6 C 0.1030(3) 0.6481(3) 0.2292(3)
H3 H 0.1492 0.6060 0.2519
C7 C 0.0318(3) 0.6803(4) 0.2899(3)
C8 C 0.1831(3) 0.6427(3) 0.0697(3)
N1 N 0.0294(3) 0.6481(4) 0.3846(3)
H4 H 0.0719 0.6086 0.4048
O1 O 0.25300(19) 0.5996(2) 0.10667(19)
Sc1 Sc 0.40254(6) 0.59746(6) 0.09746(6)
C17 C 0.3220(3) 0.6355(3) 0.3940(3)
C18 C 0.2285(3) 0.6596(3) 0.5357(3)
C19 C 0.2596(3) 0.5996(3) 0.4642(3)
H11 H 0.2396 0.5362 0.4623
C20 C 0.1615(3) 0.6240(3) 0.6111(3)
C21 C 0.2596(3) 0.7542(3) 0.5385(3)
H12 H 0.2397 0.7938 0.5881
C22 C 0.3519(3) 0.7292(3) 0.3970(3)
H13 H 0.3940 0.7519 0.3508
C23 C 0.3197(4) 0.7899(3) 0.4682(3)
C24 C 0.3573(3) 0.5697(3) 0.3169(3)
N3 N 0.3519(4) 0.8846(3) 0.4706(3)
H14 H 0.3914 0.9048 0.4281
H15 H 0.3322 0.9227 0.5147
O9 O 0.4004(2) 0.60667(19) 0.24700(19)
O10 O 0.11143(19) 0.55071(19) 0.5942(2)
O11 O 0.3426(2) 0.48250(18) 0.3259(2)
O12 O 0.1571(2) 0.6707(2) 0.68804(18)
O13 O 0.39333(19) 0.74700(19) 0.0996(2)
O15 O 0.55071(19) 0.5942(2) 0.11143(19)
O16 O 0.38857(19) 0.44929(19) 0.0942(2)
Sc6 Sc 0.16355(6) 0.66355(6) 0.83645(6)
Sc7 Sc 0.33645(6) 0.33645(6) 0.33645(6)
O3 O 0.1741(2) 0.6574(2) 0.98250(18)
C10 C 0.1596(3) 0.9643(3) 0.7715(3)
C12 C 0.1240(3) 0.8889(3) 0.8385(3)
C13 C 0.2542(3) 0.9615(3) 0.7404(3)
H7 H 0.2938 0.9119 0.7603
H10 H 0.4227 0.9853 0.6678
O6 O 0.05071(19) 0.9058(2) 0.88857(19)
O8 O 0.1707(2) 0.81196(18) 0.8429(2)
O14 O 0.4058(2) 0.61143(19) 0.94929(19)
O17 O 0.01750(18) 0.6741(2) 0.8426(2)
O18 O 0.1574(2) 0.51750(18) 0.8259(2)
O19 O 0.31196(18) 0.6571(2) 0.8293(2)
O7 O 0.98250(18) 0.1741(2) 0.6574(2)
Sc9 Sc 0.83645(6) 0.16355(6) 0.66355(6)
C2 C 0.9643(3) 0.7715(3) 0.1596(3)
C4 C 0.8889(3) 0.8385(3) 0.1240(3)
C5 C 0.9615(3) 0.7404(3) 0.2542(3)
H2 H 0.9119 0.7603 0.2938
H5 H 0.9853 0.6678 0.4227
O2 O 0.9058(2) 0.88857(19) 0.05071(19)
O4 O 0.81196(18) 0.8429(2) 0.1707(2)
Sc8 Sc 0.66355(6) 0.83645(6) 0.16355(6)
Sc5 Sc 0.90254(6) 0.90254(6) 0.90254(6)
C18_2 C 0.2715(3) 0.3404(3) 0.0357(3)
C20_2 C 0.3385(3) 0.3760(3) 0.1111(3)
C21_2 C 0.2404(3) 0.2458(3) 0.0385(3)
H12_2 H 0.2603 0.2062 0.0881
H15_2 H 0.1678 0.0773 0.0147
O12_2 O 0.3429(2) 0.3293(2) 0.18804(18)
C1_2 C 0.3940(3) 0.3220(3) 0.6355(3)
C2_2 C 0.5357(3) 0.2285(3) 0.6596(3)
C3_2 C 0.4642(3) 0.2596(3) 0.5996(3)
H1_2 H 0.4623 0.2396 0.5362
C4_2 C 0.6111(3) 0.1615(3) 0.6240(3)
C5_2 C 0.5385(3) 0.2596(3) 0.7542(3)
H2_2 H 0.5881 0.2397 0.7938
C6_2 C 0.3970(3) 0.3519(3) 0.7292(3)
H3_2 H 0.3508 0.3940 0.7519
C7_2 C 0.4682(3) 0.3197(4) 0.7899(3)
C8_2 C 0.3169(3) 0.3573(3) 0.5697(3)
N1_2 N 0.4706(3) 0.3519(4) 0.8846(3)
H4_2 H 0.4281 0.3914 0.9048
H5_2 H 0.5147 0.3322 0.9227
O1_2 O 0.24700(19) 0.4004(2) 0.60667(19)
O2_2 O 0.5942(2) 0.11143(19) 0.55071(19)
O3_2 O 0.3259(2) 0.3426(2) 0.48250(18)
O4_2 O 0.68804(18) 0.1571(2) 0.6707(2)
C10_2 C 0.3404(3) 0.0357(3) 0.2715(3)
C12_2 C 0.3760(3) 0.1111(3) 0.3385(3)
C13_2 C 0.2458(3) 0.0385(3) 0.2404(3)
H7_2 H 0.2062 0.0881 0.2603
H10_2 H 0.0773 0.0147 0.1678
O6_2 O 0.44929(19) 0.0942(2) 0.38857(19)
O8_2 O 0.3293(2) 0.18804(18) 0.3429(2)
C17_2 C 0.1780(3) 0.3645(3) 0.8940(3)
C19_2 C 0.2404(3) 0.4004(3) 0.9642(3)
H11_2 H 0.2604 0.4638 0.9623
C22_2 C 0.1481(3) 0.2708(3) 0.8970(3)
H13_2 H 0.1060 0.2481 0.8508
C23_2 C 0.1803(4) 0.2101(3) 0.9682(3)
C24_2 C 0.1427(3) 0.4303(3) 0.8169(3)
N3_2 N 0.1481(4) 0.1154(3) 0.9706(3)
H14_2 H 0.1086 0.0952 0.9281
O9_2 O 0.0996(2) 0.39333(19) 0.74700(19)
O14_2 O 0.0942(2) 0.38857(19) 0.44929(19)
O17_2 O 0.48250(18) 0.3259(2) 0.3426(2)
O19_2 O 0.18804(18) 0.3429(2) 0.3293(2)
Sc5_2 Sc 0.59746(6) 0.09746(6) 0.40254(6)
C9_2 C 0.3645(3) 0.8940(3) 0.1780(3)
C11_2 C 0.4004(3) 0.9642(3) 0.2404(3)
H6_2 H 0.4638 0.9623 0.2604
C14_2 C 0.2708(3) 0.8970(3) 0.1481(3)
H8_2 H 0.2481 0.8508 0.1060
C15_2 C 0.2101(3) 0.9682(3) 0.1803(4)
C16_2 C 0.4303(3) 0.8169(3) 0.1427(3)
N2_2 N 0.1154(3) 0.9706(3) 0.1481(4)
H9_2 H 0.0952 0.9281 0.1086
O7_2 O 0.51750(18) 0.8259(2) 0.1574(2)
O15_2 O 0.94929(19) 0.4058(2) 0.61143(19)
O11_2 O 0.8426(2) 0.01750(18) 0.6741(2)
O16_2 O 0.88857(19) 0.05071(19) 0.9058(2)
O3_3 O 0.6741(2) 0.8426(2) 0.01750(18)
C9_3 C 0.6355(3) 0.3940(3) 0.3220(3)
C10_3 C 0.6596(3) 0.5357(3) 0.2285(3)
C11_3 C 0.5996(3) 0.4642(3) 0.2596(3)
H6_3 H 0.5362 0.4623 0.2396
C12_3 C 0.6240(3) 0.6111(3) 0.1615(3)
C13_3 C 0.7542(3) 0.5385(3) 0.2596(3)
H7_3 H 0.7938 0.5881 0.2397
C14_3 C 0.7292(3) 0.3970(3) 0.3519(3)
H8_3 H 0.7519 0.3508 0.3940
C15_3 C 0.7899(3) 0.4682(3) 0.3197(4)
C16_3 C 0.5697(3) 0.3169(3) 0.3573(3)
N2_3 N 0.8846(3) 0.4706(3) 0.3519(4)
H9_3 H 0.9048 0.4281 0.3914
H10_3 H 0.9227 0.5147 0.3322
O5_2 O 0.60667(19) 0.24700(19) 0.4004(2)
O8_3 O 0.6707(2) 0.68804(18) 0.1571(2)
O18_2 O 0.6574(2) 0.98250(18) 0.1741(2)
O20 O 0.6571(2) 0.8293(2) 0.31196(18)
C1_3 C 0.6060(3) 0.8220(3) 0.8645(3)
C2_3 C 0.4643(3) 0.7285(3) 0.8404(3)
C3_3 C 0.5358(3) 0.7596(3) 0.9004(3)
H1_3 H 0.5377 0.7396 0.9638
C4_3 C 0.3889(3) 0.6615(3) 0.8760(3)
C5_3 C 0.4615(3) 0.7596(3) 0.7458(3)
H2_3 H 0.4119 0.7397 0.7062
C6_3 C 0.6030(3) 0.8519(3) 0.7708(3)
H3_3 H 0.6492 0.8940 0.7481
C7_3 C 0.5318(3) 0.8197(4) 0.7101(3)
C8_3 C 0.6831(3) 0.8573(3) 0.9303(3)
N1_3 N 0.5294(3) 0.8519(4) 0.6154(3)
H4_3 H 0.5719 0.8914 0.5952
H5_3 H 0.4853 0.8322 0.5773
O1_3 O 0.75300(19) 0.9004(2) 0.89333(19)
C17_3 C 0.8220(3) 0.8645(3) 0.6060(3)
C18_3 C 0.7285(3) 0.8404(3) 0.4643(3)
C19_3 C 0.7596(3) 0.9004(3) 0.5358(3)
H11_3 H 0.7396 0.9638 0.5377
C20_3 C 0.6615(3) 0.8760(3) 0.3889(3)
C21_3 C 0.7596(3) 0.7458(3) 0.4615(3)
H12_3 H 0.7397 0.7062 0.4119
C22_3 C 0.8519(3) 0.7708(3) 0.6030(3)
H13_3 H 0.8940 0.7481 0.6492
C23_3 C 0.8197(4) 0.7101(3) 0.5318(3)
C24_3 C 0.8573(3) 0.9303(3) 0.6831(3)
N3_3 N 0.8519(4) 0.6154(3) 0.5294(3)
H14_3 H 0.8914 0.5952 0.5719
H15_3 H 0.8322 0.5773 0.4853
O9_3 O 0.9004(2) 0.89333(19) 0.75300(19)
O10_2 O 0.61143(19) 0.94929(19) 0.4058(2)
O13_2 O 0.89333(19) 0.75300(19) 0.9004(2)
C2_4 C 0.0357(3) 0.2715(3) 0.3404(3)
C4_4 C 0.1111(3) 0.3385(3) 0.3760(3)
C5_4 C 0.0385(3) 0.2404(3) 0.2458(3)
H2_4 H 0.0881 0.2603 0.2062
H5_4 H 0.0147 0.1678 0.0773
C1_4 C 0.8940(3) 0.1780(3) 0.3645(3)
C3_4 C 0.9642(3) 0.2404(3) 0.4004(3)
H1_4 H 0.9623 0.2604 0.4638
C6_4 C 0.8970(3) 0.1481(3) 0.2708(3)
H3_4 H 0.8508 0.1060 0.2481
C7_4 C 0.9682(3) 0.1803(4) 0.2101(3)
C8_4 C 0.8169(3) 0.1427(3) 0.4303(3)
N1_4 N 0.9706(3) 0.1481(4) 0.1154(3)
H4_4 H 0.9281 0.1086 0.0952
O1_4 O 0.74700(19) 0.0996(2) 0.39333(19)
O3_4 O 0.8259(2) 0.1574(2) 0.51750(18)
C9_4 C 0.8645(3) 0.6060(3) 0.8220(3)
C10_4 C 0.8404(3) 0.4643(3) 0.7285(3)
C11_4 C 0.9004(3) 0.5358(3) 0.7596(3)
H6_4 H 0.9638 0.5377 0.7396
C12_4 C 0.8760(3) 0.3889(3) 0.6615(3)
C13_4 C 0.7458(3) 0.4615(3) 0.7596(3)
H7_4 H 0.7062 0.4119 0.7397
C14_4 C 0.7708(3) 0.6030(3) 0.8519(3)
H8_4 H 0.7481 0.6492 0.8940
C15_4 C 0.7101(3) 0.5318(3) 0.8197(4)
C16_4 C 0.9303(3) 0.6831(3) 0.8573(3)
N2_4 N 0.6154(3) 0.5294(3) 0.8519(4)
H9_4 H 0.5952 0.5719 0.8914
H10_4 H 0.5773 0.4853 0.8322
O8_4 O 0.8293(2) 0.31196(18) 0.6571(2)
C17_4 C 0.6780(3) 0.1355(3) 0.1060(3)
C19_4 C 0.7404(3) 0.0996(3) 0.0358(3)
H11_4 H 0.7604 0.0362 0.0377
C22_4 C 0.6481(3) 0.2292(3) 0.1030(3)
H13_4 H 0.6060 0.2519 0.1492
C23_4 C 0.6803(4) 0.2899(3) 0.0318(3)
C24_4 C 0.6427(3) 0.0697(3) 0.1831(3)
N3_4 N 0.6481(4) 0.3846(3) 0.0294(3)
H14_4 H 0.6086 0.4048 0.0719
O9_4 O 0.5996(2) 0.10667(19) 0.25300(19)
O20_2 O 0.8429(2) 0.1707(2) 0.81196(18)
C18_4 C 0.7715(3) 0.1596(3) 0.9643(3)
C20_4 C 0.8385(3) 0.1240(3) 0.8889(3)
C21_4 C 0.7404(3) 0.2542(3) 0.9615(3)
H12_4 H 0.7603 0.2938 0.9119
H15_4 H 0.6678 0.4227 0.9853
loop_
_geom_bond_atom_site_label_1
_geom_bond_atom_site_label_2
_geom_bond_site_symmetry_1
_geom_bond_site_symmetry_2
C9 C11 1_555 1_555
C11 H6 1_555 1_555
C14 C9 1_555 1_555
H8 C14 1_555 1_555
C16 C9 1_555 1_555
N2 C15 1_555 1_555
H9 N2 1_555 1_555
O5 C16 1_555 1_555
Sc4 O5 1_555 1_555
C14 C15 1_555 1_555
C1 C3 1_555 1_555
C3 H1 1_555 1_555
C6 C1 1_555 1_555
H3 C6 1_555 1_555
C8 C1 1_555 1_555
N1 C7 1_555 1_555
H4 N1 1_555 1_555
O1 C8 1_555 1_555
Sc1 O1 1_555 1_555
C17 C19 1_555 1_555
C18 C19 1_555 1_555
C19 H11 1_555 1_555
C20 C18 1_555 1_555
C21 C18 1_555 1_555
H12 C21 1_555 1_555
C22 C17 1_555 1_555
H13 C22 1_555 1_555
C23 C21 1_555 1_555
C24 C17 1_555 1_555
N3 C23 1_555 1_555
H14 N3 1_555 1_555
H15 N3 1_555 1_555
O9 Sc1 1_555 1_555
O10 C20 1_555 1_555
O11 C24 1_555 1_555
O12 C20 1_555 1_555
O13 Sc1 1_555 1_555
O15 Sc1 1_555 1_555
O16 Sc1 1_555 1_555
Sc4 O10 1_555 1_555
Sc6 O12 1_555 1_555
Sc7 O11 1_555 1_555
C6 C7 1_555 1_555
C22 C23 1_555 1_555
C24 O9 1_555 1_555
Sc6 O3 1_555 1_555
C12 C10 1_555 1_555
C13 C10 1_555 1_555
H7 C13 1_555 1_555
O6 C12 1_555 1_555
O8 Sc6 1_555 1_555
O17 Sc6 1_555 1_555
O18 Sc6 1_555 1_555
O19 Sc6 1_555 1_555
C12 O8 1_555 1_555
Sc9 O7 1_555 1_555
C4 C2 1_555 1_555
C5 C2 1_555 1_555
H2 C5 1_555 1_555
O2 C4 1_555 1_555
O4 C4 1_555 1_555
Sc8 O4 1_555 1_555
C20_2 C18_2 1_555 1_555
C21_2 C18_2 1_555 1_555
H12_2 C21_2 1_555 1_555
O16 C20_2 1_555 1_555
O12_2 C20_2 1_555 1_555
Sc7 O12_2 1_555 1_555
C1_2 C3_2 1_555 1_555
C2_2 C3_2 1_555 1_555
C3_2 H1_2 1_555 1_555
C4_2 C2_2 1_555 1_555
C5_2 C2_2 1_555 1_555
H2_2 C5_2 1_555 1_555
C6_2 C1_2 1_555 1_555
H3_2 C6_2 1_555 1_555
C7_2 C5_2 1_555 1_555
C8_2 C1_2 1_555 1_555
N1_2 C7_2 1_555 1_555
H4_2 N1_2 1_555 1_555
H5_2 N1_2 1_555 1_555
O1_2 C8_2 1_555 1_555
O2_2 C4_2 1_555 1_555
O3_2 C8_2 1_555 1_555
O4_2 C4_2 1_555 1_555
Sc4 O1_2 1_555 1_555
Sc7 O3_2 1_555 1_555
C12_2 C10_2 1_555 1_555
C13_2 C10_2 1_555 1_555
H7_2 C13_2 1_555 1_555
O6_2 C12_2 1_555 1_555
O8_2 Sc7 1_555 1_555
C17_2 C19_2 1_555 1_555
C19_2 H11_2 1_555 1_555
C22_2 C17_2 1_555 1_555
H13_2 C22_2 1_555 1_555
C24_2 C17_2 1_555 1_555
N3_2 C23_2 1_555 1_555
H14_2 N3_2 1_555 1_555
O9_2 Sc4 1_555 1_555
O18 C24_2 1_555 1_555
O14_2 Sc4 1_555 1_555
O17_2 Sc7 1_555 1_555
O19_2 Sc7 1_555 1_555
Sc5_2 O2_2 1_555 1_555
Sc9 O4_2 1_555 1_555
C6_2 C7_2 1_555 1_555
C12_2 O8_2 1_555 1_555
O6_2 Sc5_2 1_555 1_555
C22_2 C23_2 1_555 1_555
C24_2 O9_2 1_555 1_555
C9_2 C11_2 1_555 1_555
C11_2 H6_2 1_555 1_555
C14_2 C9_2 1_555 1_555
H8_2 C14_2 1_555 1_555
C16_2 C9_2 1_555 1_555
N2_2 C15_2 1_555 1_555
H9_2 N2_2 1_555 1_555
O13 C16_2 1_555 1_555
O7_2 C16_2 1_555 1_555
Sc8 O7_2 1_555 1_555
C14_2 C15_2 1_555 1_555
Sc9 O11_2 1_555 1_555
Sc8 O3_3 1_555 1_555
C9_3 C11_3 1_555 1_555
C10_3 C11_3 1_555 1_555
C11_3 H6_3 1_555 1_555
C12_3 C10_3 1_555 1_555
C13_3 C10_3 1_555 1_555
H7_3 C13_3 1_555 1_555
C14_3 C9_3 1_555 1_555
H8_3 C14_3 1_555 1_555
C15_3 C13_3 1_555 1_555
C16_3 C9_3 1_555 1_555
N2_3 C15_3 1_555 1_555
H9_3 N2_3 1_555 1_555
H10_3 N2_3 1_555 1_555
O5_2 C16_3 1_555 1_555
O15 C12_3 1_555 1_555
O17_2 C16_3 1_555 1_555
O8_3 Sc8 1_555 1_555
O18_2 Sc8 1_555 1_555
O20 Sc8 1_555 1_555
Sc5_2 O5_2 1_555 1_555
C12_3 O8_3 1_555 1_555
C14_3 C15_3 1_555 1_555
C1_3 C3_3 1_555 1_555
C2_3 C3_3 1_555 1_555
C3_3 H1_3 1_555 1_555
C4_3 C2_3 1_555 1_555
C5_3 C2_3 1_555 1_555
H2_3 C5_3 1_555 1_555
C6_3 C1_3 1_555 1_555
H3_3 C6_3 1_555 1_555
C7_3 C5_3 1_555 1_555
C8_3 C1_3 1_555 1_555
N1_3 C7_3 1_555 1_555
H4_3 N1_3 1_555 1_555
H5_3 N1_3 1_555 1_555
O1_3 C8_3 1_555 1_555
O14 C4_3 1_555 1_555
O19 C4_3 1_555 1_555
Sc5 O1_3 1_555 1_555
C17_3 C19_3 1_555 1_555
C18_3 C19_3 1_555 1_555
C19_3 H11_3 1_555 1_555
C20_3 C18_3 1_555 1_555
C21_3 C18_3 1_555 1_555
H12_3 C21_3 1_555 1_555
C22_3 C17_3 1_555 1_555
H13_3 C22_3 1_555 1_555
C23_3 C21_3 1_555 1_555
C24_3 C17_3 1_555 1_555
N3_3 C23_3 1_555 1_555
H14_3 N3_3 1_555 1_555
H15_3 N3_3 1_555 1_555
O9_3 Sc5 1_555 1_555
O10_2 C20_3 1_555 1_555
O20 C20_3 1_555 1_555
O13_2 Sc5 1_555 1_555
C6_3 C7_3 1_555 1_555
C22_3 C23_3 1_555 1_555
C24_3 O9_3 1_555 1_555
C4_4 C2_4 1_555 1_555
C5_4 C2_4 1_555 1_555
H2_4 C5_4 1_555 1_555
O14_2 C4_4 1_555 1_555
O19_2 C4_4 1_555 1_555
C1_4 C3_4 1_555 1_555
C3_4 H1_4 1_555 1_555
C6_4 C1_4 1_555 1_555
H3_4 C6_4 1_555 1_555
C8_4 C1_4 1_555 1_555
N1_4 C7_4 1_555 1_555
H4_4 N1_4 1_555 1_555
O1_4 C8_4 1_555 1_555
O3_4 C8_4 1_555 1_555
Sc5_2 O1_4 1_555 1_555
Sc9 O3_4 1_555 1_555
C9_4 C11_4 1_555 1_555
C10_4 C11_4 1_555 1_555
C11_4 H6_4 1_555 1_555
C12_4 C10_4 1_555 1_555
C13_4 C10_4 1_555 1_555
H7_4 C13_4 1_555 1_555
C14_4 C9_4 1_555 1_555
H8_4 C14_4 1_555 1_555
C15_4 C13_4 1_555 1_555
C16_4 C9_4 1_555 1_555
N2_4 C15_4 1_555 1_555
H9_4 N2_4 1_555 1_555
H10_4 N2_4 1_555 1_555
O13_2 C16_4 1_555 1_555
O15_2 C12_4 1_555 1_555
O8_4 Sc9 1_555 1_555
C17_4 C19_4 1_555 1_555
C19_4 H11_4 1_555 1_555
C22_4 C17_4 1_555 1_555
H13_4 C22_4 1_555 1_555
C24_4 C17_4 1_555 1_555
N3_4 C23_4 1_555 1_555
H14_4 N3_4 1_555 1_555
O9_4 Sc5_2 1_555 1_555
O20_2 Sc9 1_555 1_555
C6_4 C7_4 1_555 1_555
C12_4 O8_4 1_555 1_555
C14_4 C15_4 1_555 1_555
C22_4 C23_4 1_555 1_555
C24_4 O9_4 1_555 1_555
C20_4 C18_4 1_555 1_555
C21_4 C18_4 1_555 1_555
H12_4 C21_4 1_555 1_555
O16_2 C20_4 1_555 1_555
O20_2 C20_4 1_555 1_555

#END
