
###############################################################################
#
# This file contains modified crystal structure data generated from the
# MOF subset of the Cambridge Structural Database (CSD) v543 
# hosted by the Cambridge Crystallographic Data Centre (CCDC).
#
# This work is licensed under the Creative Commons
# Attribution-NonCommercial-ShareAlike 4.0 International License.
# To view a copy of this license, visit
# http://creativecommons.org/licenses/by-nc-sa/4.0/
# or send a letter to
# Creative Commons, PO Box 1866, Mountain View, CA 94042, USA.
#
# CIF created using the CSD Python API on 29 September 2022
# The structure has been converted into the P1 space group
# The structure has a 3D framework
# The original CSD entry EGULIE is in the monoclinic crystal system
# The framework has been calculated to contain at least 10.0% void space
# The void calculation uses a probe of radius 1.32A, grid spacing 0.4
#
###############################################################################

data_EGULIE
_chemical_formula_moiety         '(C136 H108 N12 Ni4 O32)n'
_symmetry_cell_setting           triclinic
_symmetry_space_group_name_H-M   'P 1'
_symmetry_Int_Tables_number      1
_space_group_name_Hall           'P 1'
loop_
_symmetry_equiv_pos_site_id
_symmetry_equiv_pos_as_xyz
1 x,y,z
_cell_length_a                   11.5030(9)
_cell_length_b                   16.4391(14)
_cell_length_c                   20.5549(18)
_cell_angle_alpha                90
_cell_angle_beta                 101.816(2)
_cell_angle_gamma                90
_cell_volume                     3804.55
loop_
_atom_site_label
_atom_site_type_symbol
_atom_site_fract_x
_atom_site_fract_y
_atom_site_fract_z
C54 C 0.0639(3) 0.13173(19) 0.76782(16)
C55 C 0.1741(3) 0.1696(2) 0.78534(18)
H46 H 0.1776 0.2261 0.7860
C56 C 0.2781(3) 0.1256(2) 0.8017(2)
H47 H 0.3509 0.1520 0.8133
C57 C 0.2724(3) 0.0423(2) 0.8006(2)
H48 H 0.3418 0.0120 0.8123
C58 C 0.1645(3) 0.0031(2) 0.78230(19)
C59 C 0.0598(3) 0.04705(19) 0.76494(16)
H27 H 0.0426 0.0658 0.5343
N6 N 0.2068(2) 0.80775(16) 0.64980(13)
C47 C 0.2289(3) 0.8873(2) 0.65336(19)
H38 H 0.2878 0.9068 0.6877
C48 C 0.1669(4) 0.9426(3) 0.6075(2)
H39 H 0.1827 0.9980 0.6121
C49 C 0.0801(4) 0.9134(3) 0.5541(2)
C50 C 0.0613(4) 0.8321(3) 0.5507(2)
H40 H 0.0061 0.8096 0.5159
C51 C 0.1235(3) 0.7848(2) 0.59831(18)
H41 H 0.1065 0.7295 0.5950
C52 C 0.0037(5) 0.9626(2) 0.5008(3)
Ni5 Ni 0.29055(3) 0.72621(2) 0.72505(2)
O13 O 0.95045(19) 0.01246(13) 0.74290(12)
O14 O 0.87161(18) 0.16751(12) 0.78284(10)
O15 O 0.9534(2) 0.24188(15) 0.71421(14)
C53 C 0.9547(3) 0.18417(19) 0.75345(16)
Ni6 Ni 0.70945(3) 0.22621(2) 0.77495(2)
Ni1 Ni 0.70945(3) 0.27379(2) 0.27495(2)
O1 O 0.55099(19) 0.21412(13) 0.27881(10)
O2 O 0.4249(2) 0.18155(17) 0.18476(11)
O3 O 0.2549(2) 0.1491(2) 0.49681(12)
H1 H 0.2752 0.1619 0.5361
O4 O 0.4279(3) 0.20547(17) 0.49048(12)
O8 O 0.7450(2) 0.19093(12) 0.20530(10)
H2 H 0.7188 0.2094 0.1664
H3 H 0.8197 0.1838 0.2110
N1 N 0.6684(2) 0.35426(15) 0.34603(12)
N2 N 0.6361(2) 0.35375(15) 0.19691(12)
N3 N 0.7932(2) 0.19225(16) 0.35020(13)
C8 C 0.0532(3) 0.07412(19) 0.26154(18)
H9 H 0.0318 0.0975 0.2174
C9 C 0.1756(3) 0.10167(18) 0.29437(16)
C10 C 0.2022(3) 0.11466(19) 0.36217(16)
H10 H 0.1467 0.1010 0.3875
C11 C 0.3104(3) 0.14782(19) 0.39299(16)
C12 C 0.3379(3) 0.1702(2) 0.46498(17)
C13 C 0.3929(3) 0.16655(19) 0.35518(15)
H11 H 0.4663 0.1874 0.3759
C14 C 0.3685(3) 0.15491(18) 0.28712(15)
C15 C 0.2594(3) 0.12174(18) 0.25701(16)
H12 H 0.2423 0.1129 0.2113
C16 C 0.4558(3) 0.18543(19) 0.24661(16)
C17 C 0.7711(3) 0.1127(2) 0.34664(19)
H13 H 0.7122 0.0932 0.3123
C18 C 0.8331(4) 0.0574(3) 0.3925(2)
H14 H 0.8173 0.0020 0.3879
C19 C 0.9199(4) 0.0866(3) 0.4459(2)
C20 C 0.9387(4) 0.1679(3) 0.4493(2)
H15 H 0.9939 0.1904 0.4841
C21 C 0.8765(3) 0.2152(2) 0.40169(18)
H16 H 0.8935 0.2705 0.4050
C22 C 0.6684(3) 0.43501(19) 0.33922(15)
H17 H 0.7029 0.4572 0.3061
C23 C 0.6195(3) 0.4872(2) 0.37911(16)
H18 H 0.6201 0.5431 0.3719
C24 C 0.5696(3) 0.4561(2) 0.42986(15)
C25 C 0.5175(3) 0.5112(2) 0.47238(16)
H19 H 0.5084 0.5655 0.4598
C26 C 0.5726(3) 0.3724(2) 0.43773(16)
H20 H 0.5411 0.3487 0.4714
C27 C 0.6219(3) 0.32474(19) 0.39611(15)
H21 H 0.6234 0.2688 0.4028
C28 C 0.6981(3) 0.3743(2) 0.15084(16)
H22 H 0.7758 0.3557 0.1560
C29 C 0.6530(3) 0.4213(2) 0.09656(17)
H23 H 0.7002 0.4340 0.0662
C30 C 0.5378(3) 0.4498(2) 0.08663(16)
C31 C 0.4813(3) 0.4972(2) 0.02776(17)
H24 H 0.4127 0.5258 0.0305
C32 C 0.4748(3) 0.4300(2) 0.13521(17)
H25 H 0.3978 0.4492 0.1319
C33 C 0.5261(3) 0.3822(2) 0.18814(16)
H26 H 0.4812 0.3690 0.2195
C34 C 0.9963(5) 0.0374(2) 0.4992(3)
N4 N 0.3316(2) 0.64574(15) 0.65397(12)
C35 C 0.3316(3) 0.56499(19) 0.66078(15)
H28 H 0.2971 0.5428 0.6939
C36 C 0.3805(3) 0.5128(2) 0.62089(16)
H29 H 0.3799 0.4569 0.6281
C37 C 0.4304(3) 0.5439(2) 0.57014(15)
C38 C 0.4825(3) 0.4888(2) 0.52762(16)
H30 H 0.4916 0.4345 0.5402
C39 C 0.4274(3) 0.6276(2) 0.56227(16)
H31 H 0.4589 0.6513 0.5286
C40 C 0.3781(3) 0.67526(19) 0.60389(15)
H32 H 0.3766 0.7312 0.5972
O17 O 0.87161(18) 0.33249(12) 0.28284(10)
N5 N 0.3639(2) 0.64625(15) 0.80309(12)
C41 C 0.3019(3) 0.6257(2) 0.84916(16)
H33 H 0.2242 0.6443 0.8440
C42 C 0.3470(3) 0.5787(2) 0.90344(17)
H34 H 0.2998 0.5660 0.9338
C43 C 0.4622(3) 0.5502(2) 0.91337(16)
C44 C 0.5187(3) 0.5028(2) 0.97224(17)
H35 H 0.5873 0.4742 0.9695
C45 C 0.5252(3) 0.5700(2) 0.86479(17)
H36 H 0.6022 0.5508 0.8681
C46 C 0.4739(3) 0.6178(2) 0.81186(16)
H37 H 0.5188 0.6310 0.7805
O9 O 0.44901(19) 0.78588(13) 0.72119(10)
O10 O 0.5751(2) 0.81845(17) 0.81524(11)
O11 O 0.7451(2) 0.8509(2) 0.50319(12)
H43 H 0.7248 0.8381 0.4639
O12 O 0.5721(3) 0.79453(17) 0.50952(12)
O16 O 0.2550(2) 0.80907(12) 0.79470(10)
H44 H 0.2812 0.7906 0.8336
H45 H 0.1803 0.8162 0.7890
C60 C 0.9468(3) 0.92588(19) 0.73846(18)
H51 H 0.9682 0.9025 0.7826
C61 C 0.8244(3) 0.89833(18) 0.70563(16)
C62 C 0.7978(3) 0.88534(19) 0.63783(16)
H52 H 0.8533 0.8990 0.6125
C63 C 0.6896(3) 0.85218(19) 0.60701(16)
C64 C 0.6621(3) 0.8298(2) 0.53502(17)
C65 C 0.6071(3) 0.83345(19) 0.64482(15)
H53 H 0.5337 0.8126 0.6241
C66 C 0.6315(3) 0.84509(18) 0.71288(15)
C67 C 0.7406(3) 0.87826(18) 0.74299(16)
H54 H 0.7577 0.8871 0.7887
C68 C 0.5442(3) 0.81457(19) 0.75339(16)
O18 O 0.12839(18) 0.66751(12) 0.71716(10)
O5 O 0.04955(19) 0.98754(13) 0.25710(12)
O6 O 0.12839(18) 0.83249(12) 0.21716(10)
O7 O 0.0466(2) 0.75812(15) 0.28579(14)
C1 C 0.0453(3) 0.81583(19) 0.24655(16)
H42 H 0.9574 0.9342 0.4657
Ni3 Ni 0.29055(3) 0.77379(2) 0.22505(2)
H43_2 H 0.2752 0.3381 0.0361
H18_2 H 0.3799 0.0431 0.1281
C25_2 C 0.4825(3) 0.0112(2) 0.02762(16)
H19_2 H 0.4916 0.0655 0.0402
H24_2 H 0.5873 0.0258 0.4695
N5_2 N 0.6361(2) 0.14625(15) 0.69691(12)
C41_2 C 0.6981(3) 0.1257(2) 0.65084(16)
H33_2 H 0.7758 0.1443 0.6560
C42_2 C 0.6530(3) 0.0787(2) 0.59656(17)
H34_2 H 0.7002 0.0660 0.5662
C43_2 C 0.5378(3) 0.0502(2) 0.58663(16)
C44_2 C 0.4813(3) 0.0028(2) 0.52776(17)
C45_2 C 0.4748(3) 0.0700(2) 0.63521(17)
H36_2 H 0.3978 0.0508 0.6319
C46_2 C 0.5261(3) 0.1178(2) 0.68814(16)
H37_2 H 0.4812 0.1310 0.7195
O9_2 O 0.55099(19) 0.28588(13) 0.77881(10)
O10_2 O 0.4249(2) 0.31845(17) 0.68476(11)
O11_2 O 0.2549(2) 0.3509(2) 0.99681(12)
O12_2 O 0.4279(3) 0.29453(17) 0.99048(12)
O13_2 O 0.04955(19) 0.51246(13) 0.75710(12)
O15_2 O 0.0466(2) 0.74188(15) 0.78579(14)
O16_2 O 0.7450(2) 0.30907(12) 0.70530(10)
H44_2 H 0.7188 0.2906 0.6664
H45_2 H 0.8197 0.3162 0.7110
C53_2 C 0.0453(3) 0.68417(19) 0.74655(16)
C60_2 C 0.0532(3) 0.42588(19) 0.76154(18)
H51_2 H 0.0318 0.4025 0.7174
C61_2 C 0.1756(3) 0.39833(18) 0.79437(16)
C62_2 C 0.2022(3) 0.38534(19) 0.86217(16)
H52_2 H 0.1467 0.3990 0.8875
C63_2 C 0.3104(3) 0.35218(19) 0.89299(16)
C64_2 C 0.3379(3) 0.3298(2) 0.96498(17)
C65_2 C 0.3929(3) 0.33345(19) 0.85518(15)
H53_2 H 0.4663 0.3126 0.8759
C66_2 C 0.3685(3) 0.34509(18) 0.78712(15)
C67_2 C 0.2594(3) 0.37826(18) 0.75701(16)
H54_2 H 0.2423 0.3871 0.7113
C68_2 C 0.4558(3) 0.31457(19) 0.74661(16)
N7 N 0.6684(2) 0.14574(15) 0.84603(12)
N8 N 0.7932(2) 0.30775(16) 0.85020(13)
C35_2 C 0.6684(3) 0.06499(19) 0.83922(15)
H28_2 H 0.7029 0.0428 0.8061
C36_2 C 0.6195(3) 0.0128(2) 0.87911(16)
C37_2 C 0.5696(3) 0.0439(2) 0.92986(15)
C39_2 C 0.5726(3) 0.1276(2) 0.93773(16)
H31_2 H 0.5411 0.1513 0.9714
C40_2 C 0.6219(3) 0.17526(19) 0.89611(15)
H32_2 H 0.6234 0.2312 0.9028
O1_2 O 0.44901(19) 0.71412(13) 0.22119(10)
O2_2 O 0.5751(2) 0.68155(17) 0.31524(11)
O3_2 O 0.7451(2) 0.6491(2) 0.00319(12)
O4_2 O 0.5721(3) 0.70547(17) 0.00952(12)
O5_2 O 0.95045(19) 0.48754(13) 0.24290(12)
O7_2 O 0.9534(2) 0.25812(15) 0.21421(14)
O8_2 O 0.2550(2) 0.69093(12) 0.29470(10)
H2_2 H 0.2812 0.7094 0.3336
H3_2 H 0.1803 0.6838 0.2890
N1_2 N 0.3316(2) 0.85426(15) 0.15397(12)
N2_2 N 0.3639(2) 0.85375(15) 0.30309(12)
N3_2 N 0.2068(2) 0.69225(16) 0.14980(13)
C1_2 C 0.9547(3) 0.31583(19) 0.25345(16)
C8_2 C 0.9468(3) 0.57412(19) 0.23846(18)
H9_2 H 0.9682 0.5975 0.2826
C9_2 C 0.8244(3) 0.60167(18) 0.20563(16)
C10_2 C 0.7978(3) 0.61466(19) 0.13783(16)
H10_2 H 0.8533 0.6010 0.1125
C11_2 C 0.6896(3) 0.64782(19) 0.10701(16)
C12_2 C 0.6621(3) 0.6702(2) 0.03502(17)
C13_2 C 0.6071(3) 0.66655(19) 0.14482(15)
H11_2 H 0.5337 0.6874 0.1241
C14_2 C 0.6315(3) 0.65491(18) 0.21288(15)
C15_2 C 0.7406(3) 0.62174(18) 0.24299(16)
H12_2 H 0.7577 0.6129 0.2887
C16_2 C 0.5442(3) 0.68543(19) 0.25339(16)
C17_2 C 0.2289(3) 0.6127(2) 0.15336(19)
H13_2 H 0.2878 0.5932 0.1877
C18_2 C 0.1669(4) 0.5574(3) 0.1075(2)
H14_2 H 0.1827 0.5020 0.1121
C19_2 C 0.0801(4) 0.5866(3) 0.0541(2)
C20_2 C 0.0613(4) 0.6679(3) 0.0507(2)
H15_2 H 0.0061 0.6904 0.0159
C21_2 C 0.1235(3) 0.7152(2) 0.09831(18)
H16_2 H 0.1065 0.7705 0.0950
C22_2 C 0.3316(3) 0.93501(19) 0.16078(15)
H17_2 H 0.2971 0.9572 0.1939
C23_2 C 0.3805(3) 0.9872(2) 0.12089(16)
C24_2 C 0.4304(3) 0.9561(2) 0.07014(15)
C26_2 C 0.4274(3) 0.8724(2) 0.06227(16)
H20_2 H 0.4589 0.8487 0.0286
C27_2 C 0.3781(3) 0.82474(19) 0.10389(15)
H21_2 H 0.3766 0.7688 0.0972
C28_2 C 0.3019(3) 0.8743(2) 0.34916(16)
H22_2 H 0.2242 0.8557 0.3440
C29_2 C 0.3470(3) 0.9213(2) 0.40344(17)
H23_2 H 0.2998 0.9340 0.4338
C30_2 C 0.4622(3) 0.9498(2) 0.41337(16)
C31_2 C 0.5187(3) 0.9972(2) 0.47224(17)
C32_2 C 0.5252(3) 0.9300(2) 0.36479(17)
H25_2 H 0.6022 0.9492 0.3681
C33_2 C 0.4739(3) 0.8822(2) 0.31186(16)
H26_2 H 0.5188 0.8690 0.2805
C34_2 C 0.0037(5) 0.5374(2) 0.0008(3)
H35_2 H 0.4127 0.9742 0.5305
H42_2 H 0.0426 0.4342 0.0343
H1_2 H 0.7248 0.6619 0.9639
H29_2 H 0.6201 0.9569 0.8719
C38_2 C 0.5175(3) 0.9888(2) 0.97238(16)
H30_2 H 0.5084 0.9345 0.9598
H27_2 H 0.9574 0.5658 0.9657
C47_2 C 0.7711(3) 0.3873(2) 0.84664(19)
H38_2 H 0.7122 0.4068 0.8123
C48_2 C 0.8331(4) 0.4426(3) 0.8925(2)
H39_2 H 0.8173 0.4980 0.8879
C49_2 C 0.9199(4) 0.4134(3) 0.9459(2)
C50_2 C 0.9387(4) 0.3321(3) 0.9493(2)
H40_2 H 0.9939 0.3096 0.9841
C51_2 C 0.8765(3) 0.2848(2) 0.90169(18)
H41_2 H 0.8935 0.2295 0.9050
C52_2 C 0.9963(5) 0.4626(2) 0.9992(3)
H49 H 0.1621 0.9466 0.7816
H50 H 0.0038 0.9072 0.7129
H7 H 0.8379 0.0534 0.2184
H8 H 0.9962 0.0928 0.2871
C2 C 0.9361(3) 0.86827(19) 0.23218(16)
C3 C 0.8259(3) 0.8304(2) 0.21466(18)
H4 H 0.8224 0.7739 0.2140
C4 C 0.7219(3) 0.8744(2) 0.1983(2)
H5 H 0.6491 0.8480 0.1867
C5 C 0.7276(3) 0.9577(2) 0.1994(2)
H6 H 0.6582 0.9880 0.1877
C6 C 0.8355(3) 0.9969(2) 0.21770(19)
C7 C 0.9402(3) 0.95295(19) 0.23506(16)
C2_2 C 0.0639(3) 0.36827(19) 0.26782(16)
C3_2 C 0.1741(3) 0.3304(2) 0.28534(18)
H4_2 H 0.1776 0.2739 0.2860
C4_2 C 0.2781(3) 0.3744(2) 0.3017(2)
H5_2 H 0.3509 0.3480 0.3133
C5_2 C 0.2724(3) 0.4577(2) 0.3006(2)
H6_2 H 0.3418 0.4880 0.3123
C6_2 C 0.1645(3) 0.4969(2) 0.28230(19)
H7_2 H 0.1621 0.5534 0.2816
C7_2 C 0.0598(3) 0.45295(19) 0.26494(16)
H8_2 H 0.0038 0.5928 0.2129
C54_2 C 0.9361(3) 0.63173(19) 0.73218(16)
C55_2 C 0.8259(3) 0.6696(2) 0.71466(18)
H46_2 H 0.8224 0.7261 0.7140
C56_2 C 0.7219(3) 0.6256(2) 0.6983(2)
H47_2 H 0.6491 0.6520 0.6867
C57_2 C 0.7276(3) 0.5423(2) 0.6994(2)
H48_2 H 0.6582 0.5120 0.6877
C58_2 C 0.8355(3) 0.5031(2) 0.71770(19)
H49_2 H 0.8379 0.4466 0.7184
C59_2 C 0.9402(3) 0.54705(19) 0.73506(16)
H50_2 H 0.9962 0.4072 0.7871
loop_
_geom_bond_atom_site_label_1
_geom_bond_atom_site_label_2
_geom_bond_site_symmetry_1
_geom_bond_site_symmetry_2
C54 C55 1_555 1_555
C55 H46 1_555 1_555
C56 C55 1_555 1_555
H47 C56 1_555 1_555
C57 C56 1_555 1_555
H48 C57 1_555 1_555
C58 C57 1_555 1_555
C59 C54 1_555 1_555
C58 C59 1_555 1_555
N6 C47 1_555 1_555
C47 H38 1_555 1_555
C48 C47 1_555 1_555
H39 C48 1_555 1_555
C49 C48 1_555 1_555
C50 C49 1_555 1_555
H40 C50 1_555 1_555
C51 N6 1_555 1_555
H41 C51 1_555 1_555
Ni5 N6 1_555 1_555
C49 C52 1_555 1_555
C50 C51 1_555 1_555
O14 C53 1_555 1_555
O15 C53 1_555 1_555
Ni6 O14 1_555 1_555
Ni1 O1 1_555 1_555
O1 C16 1_555 1_555
O2 C16 1_555 1_555
O3 H1 1_555 1_555
O4 C12 1_555 1_555
O8 Ni1 1_555 1_555
H2 O8 1_555 1_555
H3 O8 1_555 1_555
N1 Ni1 1_555 1_555
N2 Ni1 1_555 1_555
N3 Ni1 1_555 1_555
H9 C8 1_555 1_555
C9 C8 1_555 1_555
C10 C9 1_555 1_555
H10 C10 1_555 1_555
C11 C10 1_555 1_555
C12 O3 1_555 1_555
C13 C11 1_555 1_555
H11 C13 1_555 1_555
C14 C13 1_555 1_555
C15 C9 1_555 1_555
H12 C15 1_555 1_555
C16 C14 1_555 1_555
C17 N3 1_555 1_555
H13 C17 1_555 1_555
C18 C17 1_555 1_555
H14 C18 1_555 1_555
C19 C18 1_555 1_555
C20 C19 1_555 1_555
H15 C20 1_555 1_555
C21 N3 1_555 1_555
H16 C21 1_555 1_555
C22 N1 1_555 1_555
H17 C22 1_555 1_555
C23 C22 1_555 1_555
H18 C23 1_555 1_555
C24 C23 1_555 1_555
C25 C24 1_555 1_555
H19 C25 1_555 1_555
C26 C24 1_555 1_555
H20 C26 1_555 1_555
C27 N1 1_555 1_555
H21 C27 1_555 1_555
C28 N2 1_555 1_555
H22 C28 1_555 1_555
C29 C28 1_555 1_555
H23 C29 1_555 1_555
C30 C29 1_555 1_555
C31 C30 1_555 1_555
H24 C31 1_555 1_555
C32 C30 1_555 1_555
H25 C32 1_555 1_555
C33 N2 1_555 1_555
H26 C33 1_555 1_555
C34 C19 1_555 1_555
N4 C35 1_555 1_555
C35 H28 1_555 1_555
C36 C35 1_555 1_555
H29 C36 1_555 1_555
C37 C36 1_555 1_555
C38 C25 1_555 1_555
H30 C38 1_555 1_555
C39 C37 1_555 1_555
H31 C39 1_555 1_555
C40 N4 1_555 1_555
H32 C40 1_555 1_555
Ni5 N4 1_555 1_555
O17 Ni1 1_555 1_555
C11 C12 1_555 1_555
C14 C15 1_555 1_555
C20 C21 1_555 1_555
C26 C27 1_555 1_555
C32 C33 1_555 1_555
C37 C38 1_555 1_555
C39 C40 1_555 1_555
N5 C41 1_555 1_555
C41 H33 1_555 1_555
C42 C41 1_555 1_555
H34 C42 1_555 1_555
C43 C42 1_555 1_555
H35 C44 1_555 1_555
C45 C43 1_555 1_555
H36 C45 1_555 1_555
C46 N5 1_555 1_555
H37 C46 1_555 1_555
Ni5 N5 1_555 1_555
O9 Ni5 1_555 1_555
O10 C68 1_555 1_555
O11 H43 1_555 1_555
O12 C64 1_555 1_555
O16 Ni5 1_555 1_555
H44 O16 1_555 1_555
H45 O16 1_555 1_555
H51 C60 1_555 1_555
C61 C60 1_555 1_555
C62 C61 1_555 1_555
H52 C62 1_555 1_555
C63 C62 1_555 1_555
C64 O11 1_555 1_555
C65 C63 1_555 1_555
H53 C65 1_555 1_555
C66 C65 1_555 1_555
C67 C61 1_555 1_555
H54 C67 1_555 1_555
C68 O9 1_555 1_555
O18 Ni5 1_555 1_555
C43 C44 1_555 1_555
C45 C46 1_555 1_555
C63 C64 1_555 1_555
C66 C67 1_555 1_555
C66 C68 1_555 1_555
O6 C1 1_555 1_555
O7 C1 1_555 1_555
Ni3 O6 1_555 1_555
H19_2 C25_2 1_555 1_555
N5_2 C41_2 1_555 1_555
C41_2 H33_2 1_555 1_555
C42_2 C41_2 1_555 1_555
H34_2 C42_2 1_555 1_555
C43_2 C42_2 1_555 1_555
C45_2 C43_2 1_555 1_555
H36_2 C45_2 1_555 1_555
C46_2 N5_2 1_555 1_555
H37_2 C46_2 1_555 1_555
Ni6 N5_2 1_555 1_555
O9_2 Ni6 1_555 1_555
O10_2 C68_2 1_555 1_555
O12_2 C64_2 1_555 1_555
O18 C53_2 1_555 1_555
O15_2 C53_2 1_555 1_555
O16_2 Ni6 1_555 1_555
H44_2 O16_2 1_555 1_555
H45_2 O16_2 1_555 1_555
C60_2 O13_2 1_555 1_555
H51_2 C60_2 1_555 1_555
C61_2 C60_2 1_555 1_555
C62_2 C61_2 1_555 1_555
H52_2 C62_2 1_555 1_555
C63_2 C62_2 1_555 1_555
C64_2 O11_2 1_555 1_555
C65_2 C63_2 1_555 1_555
H53_2 C65_2 1_555 1_555
C66_2 C65_2 1_555 1_555
C67_2 C61_2 1_555 1_555
H54_2 C67_2 1_555 1_555
C68_2 O9_2 1_555 1_555
N7 Ni6 1_555 1_555
N8 Ni6 1_555 1_555
C43_2 C44_2 1_555 1_555
C45_2 C46_2 1_555 1_555
C63_2 C64_2 1_555 1_555
C66_2 C67_2 1_555 1_555
C66_2 C68_2 1_555 1_555
N7 C35_2 1_555 1_555
C35_2 H28_2 1_555 1_555
C36_2 C35_2 1_555 1_555
C37_2 C36_2 1_555 1_555
C39_2 C37_2 1_555 1_555
H31_2 C39_2 1_555 1_555
C40_2 N7 1_555 1_555
H32_2 C40_2 1_555 1_555
C39_2 C40_2 1_555 1_555
Ni3 O1_2 1_555 1_555
O1_2 C16_2 1_555 1_555
O2_2 C16_2 1_555 1_555
O4_2 C12_2 1_555 1_555
O17 C1_2 1_555 1_555
O7_2 C1_2 1_555 1_555
O8_2 Ni3 1_555 1_555
H2_2 O8_2 1_555 1_555
H3_2 O8_2 1_555 1_555
N1_2 Ni3 1_555 1_555
N2_2 Ni3 1_555 1_555
N3_2 Ni3 1_555 1_555
C8_2 O5_2 1_555 1_555
H9_2 C8_2 1_555 1_555
C9_2 C8_2 1_555 1_555
C10_2 C9_2 1_555 1_555
H10_2 C10_2 1_555 1_555
C11_2 C10_2 1_555 1_555
C12_2 O3_2 1_555 1_555
C13_2 C11_2 1_555 1_555
H11_2 C13_2 1_555 1_555
C14_2 C13_2 1_555 1_555
C15_2 C9_2 1_555 1_555
H12_2 C15_2 1_555 1_555
C16_2 C14_2 1_555 1_555
C17_2 N3_2 1_555 1_555
H13_2 C17_2 1_555 1_555
C18_2 C17_2 1_555 1_555
H14_2 C18_2 1_555 1_555
C19_2 C18_2 1_555 1_555
C20_2 C19_2 1_555 1_555
H15_2 C20_2 1_555 1_555
C21_2 N3_2 1_555 1_555
H16_2 C21_2 1_555 1_555
C22_2 N1_2 1_555 1_555
H17_2 C22_2 1_555 1_555
C23_2 C22_2 1_555 1_555
C24_2 C23_2 1_555 1_555
C26_2 C24_2 1_555 1_555
H20_2 C26_2 1_555 1_555
C27_2 N1_2 1_555 1_555
H21_2 C27_2 1_555 1_555
C28_2 N2_2 1_555 1_555
H22_2 C28_2 1_555 1_555
C29_2 C28_2 1_555 1_555
H23_2 C29_2 1_555 1_555
C30_2 C29_2 1_555 1_555
C31_2 C30_2 1_555 1_555
C32_2 C30_2 1_555 1_555
H25_2 C32_2 1_555 1_555
C33_2 N2_2 1_555 1_555
H26_2 C33_2 1_555 1_555
C34_2 C19_2 1_555 1_555
C11_2 C12_2 1_555 1_555
C14_2 C15_2 1_555 1_555
C20_2 C21_2 1_555 1_555
C26_2 C27_2 1_555 1_555
C32_2 C33_2 1_555 1_555
H30_2 C38_2 1_555 1_555
N8 C47_2 1_555 1_555
C47_2 H38_2 1_555 1_555
C48_2 C47_2 1_555 1_555
H39_2 C48_2 1_555 1_555
C49_2 C48_2 1_555 1_555
C50_2 C49_2 1_555 1_555
H40_2 C50_2 1_555 1_555
C51_2 N8 1_555 1_555
H41_2 C51_2 1_555 1_555
C49_2 C52_2 1_555 1_555
C50_2 C51_2 1_555 1_555
C2 C3 1_555 1_555
C3 H4 1_555 1_555
C4 C3 1_555 1_555
H5 C4 1_555 1_555
C5 C4 1_555 1_555
H6 C5 1_555 1_555
C6 C5 1_555 1_555
C7 C2 1_555 1_555
C6 C7 1_555 1_555
C2_2 C3_2 1_555 1_555
C3_2 H4_2 1_555 1_555
C4_2 C3_2 1_555 1_555
H5_2 C4_2 1_555 1_555
C5_2 C4_2 1_555 1_555
H6_2 C5_2 1_555 1_555
C6_2 C5_2 1_555 1_555
H7_2 C6_2 1_555 1_555
C7_2 C2_2 1_555 1_555
C6_2 C7_2 1_555 1_555
C54_2 C55_2 1_555 1_555
C55_2 H46_2 1_555 1_555
C56_2 C55_2 1_555 1_555
H47_2 C56_2 1_555 1_555
C57_2 C56_2 1_555 1_555
H48_2 C57_2 1_555 1_555
C58_2 C57_2 1_555 1_555
H49_2 C58_2 1_555 1_555
C59_2 C54_2 1_555 1_555
C58_2 C59_2 1_555 1_555

#END
