
###############################################################################
#
# This file contains modified crystal structure data generated from the
# MOF subset of the Cambridge Structural Database (CSD) v543 
# hosted by the Cambridge Crystallographic Data Centre (CCDC).
#
# This work is licensed under the Creative Commons
# Attribution-NonCommercial-ShareAlike 4.0 International License.
# To view a copy of this license, visit
# http://creativecommons.org/licenses/by-nc-sa/4.0/
# or send a letter to
# Creative Commons, PO Box 1866, Mountain View, CA 94042, USA.
#
# CIF created using the CSD Python API on 29 September 2022
# The structure has been converted into the P1 space group
# The structure has a 3D framework
# The original CSD entry EHAFIE is in the triclinic crystal system
# The framework has been calculated to contain at least 10.0% void space
# The void calculation uses a probe of radius 1.32A, grid spacing 0.4
#
###############################################################################

data_EHAFIE
_chemical_formula_moiety         '(C30 H30 Ce2 O38 U4)n'
_symmetry_cell_setting           triclinic
_symmetry_space_group_name_H-M   'P 1'
_symmetry_Int_Tables_number      1
_space_group_name_Hall           'P 1'
loop_
_symmetry_equiv_pos_site_id
_symmetry_equiv_pos_as_xyz
1 x,y,z
_cell_length_a                   10.9453(5)
_cell_length_b                   11.4851(5)
_cell_length_c                   13.4530(7)
_cell_angle_alpha                69.539(4)
_cell_angle_beta                 80.095(4)
_cell_angle_gamma                62.420(5)
_cell_volume                     1404.3
loop_
_atom_site_label
_atom_site_type_symbol
_atom_site_fract_x
_atom_site_fract_y
_atom_site_fract_z
O11 O 0.3118(6) 0.2146(7) 0.0538(5)
U7 U 0.36734(3) 0.29822(4) 0.16648(3)
U2 U -0.0000 0.5000 0.5000
O3 O 0.0657(7) 0.5023(7) 0.6112(5)
O9 O 0.5155(7) 0.0605(7) 0.7749(6)
O10 O 0.4751(7) 0.1741(8) 0.9315(6)
C1 C 0.0083(9) 0.3359(10) 0.8458(8)
C2 C 0.1180(9) 0.3112(10) 0.9049(8)
H13 H 0.0997 0.3611 0.9515
C3 C 0.2510(9) 0.2151(10) 0.8952(7)
C4 C 0.2780(9) 0.1367(10) 0.8267(8)
C5 C 0.1671(10) 0.1553(10) 0.7737(8)
H14 H 0.1833 0.0987 0.7329
C6 C 0.0326(9) 0.2568(9) 0.7806(7)
C11 C 0.3559(10) 0.1985(9) 0.9622(7)
C12 C 0.4191(9) 0.0278(10) 0.8090(7)
Ce3 Ce 0.62199(5) 0.21398(6) 0.77513(5)
O43 O 0.0991(6) 0.6447(7) 0.3774(5)
O52 O 0.2609(7) 0.3703(7) 0.4661(6)
O53 O 0.1437(7) 0.2487(7) 0.5214(6)
O8 O 0.4283(6) 0.9081(7) 0.8275(5)
U5 U 0.63266(3) 0.70178(4) 0.83352(3)
C7 C 0.6201(9) 0.0011(10) 0.4515(7)
H15 H 0.7016 0.0026 0.4186
O22 O 0.4914(6) 0.3086(7) 0.2872(5)
O23 O 0.5712(8) 0.3018(8) 0.4296(6)
C17 C 0.3819(9) 0.1257(10) 0.4964(7)
C18 C 0.5054(9) 0.1264(10) 0.4466(7)
C19 C 0.5204(9) 0.2553(10) 0.3836(8)
C20 C 0.2578(9) 0.2553(10) 0.4922(8)
Ce2 Ce 0.37801(5) 0.78602(6) 0.22487(5)
O26 O 0.4474(7) 0.3825(7) 0.0602(5)
O27 O 0.2866(7) 0.2150(8) 0.2710(6)
O28 O 0.1413(7) 0.4713(8) 0.0949(6)
O29 O 0.2247(6) 0.5158(7) 0.2056(6)
O30 O 0.1436(6) 0.7941(7) 0.2388(5)
O36 O 0.3726(7) 0.5864(7) 0.3817(6)
H17 H 0.4478 0.5285 0.4220
H18 H 0.2955 0.5735 0.3972
O37 O 0.6110(8) 0.6358(10) 0.3272(8)
H19 H 0.6853 0.5808 0.2974
H20 H 0.6171 0.6394 0.3919
O38 O 0.5049(9) 0.5664(9) 0.1725(7)
H21 H 0.5879 0.5027 0.2003
H22 H 0.4669 0.5521 0.1263
O39 O 0.2844(9) 0.8283(12) 0.0443(7)
H24 H 0.1959 0.8875 0.0274
O41 O 0.2920(8) 0.8625(8) 0.3847(6)
H27 H 0.3492 0.8292 0.4389
H28 H 0.2037 0.9237 0.3886
C27 C 0.1273(10) 0.5453(10) 0.1513(8)
C30 C 0.0789(9) 0.7251(10) 0.2829(8)
O45 O 0.5717(6) 0.0919(7) 0.1725(5)
O47 O 0.4845(7) 0.9395(7) 0.2251(6)
O49 O 0.5249(7) 0.8259(8) 0.0685(6)
U2_2 U 1.0000 0.5000 0.5000
O1 O 0.5526(7) 0.6175(7) 0.9398(5)
O2 O 0.7134(7) 0.7850(8) 0.7290(6)
O4 O 0.8587(7) 0.5287(8) 0.9051(6)
O5 O 0.7753(6) 0.4842(7) 0.7944(6)
O6 O 0.8564(6) 0.2059(7) 0.7612(5)
O7 O 0.9009(6) 0.3553(7) 0.6226(5)
O12 O 0.5086(6) 0.6914(7) 0.7128(5)
O13 O 0.4288(8) 0.6982(8) 0.5704(6)
O14 O 0.7391(7) 0.6297(7) 0.5339(6)
O15 O 0.8563(7) 0.7513(7) 0.4786(6)
O16 O 0.6274(7) 0.4136(7) 0.6183(6)
H1 H 0.5522 0.4715 0.5780
H2 H 0.7045 0.4265 0.6028
O17 O 0.3890(8) 0.3642(10) 0.6728(8)
H3 H 0.3147 0.4192 0.7026
H4 H 0.3829 0.3606 0.6081
O18 O 0.4951(9) 0.4336(9) 0.8275(7)
H5 H 0.4121 0.4973 0.7997
H6 H 0.5331 0.4479 0.8737
O19 O 0.7156(9) 0.1717(12) 0.9557(7)
H8 H 0.8041 0.1125 0.9726
O21 O 0.7080(8) 0.1375(8) 0.6153(6)
H11 H 0.6508 0.1708 0.5611
H12 H 0.7963 0.0763 0.6114
C8 C 0.6181(9) 0.8743(10) 0.5036(7)
C9 C 0.4946(9) 0.8736(10) 0.5534(7)
C10 C 0.8727(10) 0.4547(10) 0.8487(8)
C13 C 0.9211(9) 0.2749(10) 0.7171(8)
C14 C 0.4796(9) 0.7447(10) 0.6164(8)
C15 C 0.7422(9) 0.7447(10) 0.5078(8)
C16 C 0.3799(9) 0.9989(10) 0.5485(7)
H16 H 0.2984 0.9974 0.5814
O42 O 0.9343(7) 0.4977(7) 0.3888(5)
O51 O 0.6882(6) 0.7854(7) 0.9462(5)
C21 C 0.9917(9) 0.6641(10) 0.1542(8)
C22 C 0.8820(9) 0.6888(10) 0.0951(8)
H29 H 0.9003 0.6389 0.0485
C23 C 0.7490(9) 0.7849(10) 0.1048(7)
C24 C 0.7220(9) 0.8633(10) 0.1733(8)
C25 C 0.8329(10) 0.8447(10) 0.2263(8)
H30 H 0.8167 0.9013 0.2671
C26 C 0.9674(9) 0.7432(9) 0.2194(7)
C28 C 0.6441(10) 0.8015(9) 0.0378(7)
C29 C 0.5809(9) 0.9722(10) 0.1910(7)
O40 O 0.2012(8) 0.0312(8) 0.1658(7)
H25 H 0.2117 0.0969 0.1802
H26 H 0.1268 0.0539 0.1302
H23 H 0.3404 0.7841 0.9987
H7 H 0.6596 0.2159 0.0013
O20 O 0.7988(8) 0.9688(8) 0.8342(7)
H9 H 0.7883 0.9031 0.8198
H10 H 0.8732 0.9461 0.8698
loop_
_geom_bond_atom_site_label_1
_geom_bond_atom_site_label_2
_geom_bond_site_symmetry_1
_geom_bond_site_symmetry_2
U7 O11 1_555 1_555
U2 O3 1_555 1_555
O9 C12 1_555 1_555
O10 C11 1_555 1_555
C1 C2 1_555 1_555
C2 H13 1_555 1_555
C3 C2 1_555 1_555
C4 C3 1_555 1_555
C5 C4 1_555 1_555
H14 C5 1_555 1_555
C6 C1 1_555 1_555
C11 C3 1_555 1_555
C12 C4 1_555 1_555
Ce3 O9 1_555 1_555
O43 U2 1_555 1_555
O52 U2 1_555 1_555
O53 U2 1_555 1_555
O10 Ce3 1_555 1_555
C5 C6 1_555 1_555
U5 O8 1_555 1_555
C7 H15 1_555 1_555
O22 C19 1_555 1_555
O23 C19 1_555 1_555
O52 C20 1_555 1_555
O53 C20 1_555 1_555
C18 C7 1_555 1_555
C19 C18 1_555 1_555
C20 C17 1_555 1_555
U7 O22 1_555 1_555
Ce2 O30 1_555 1_555
O26 U7 1_555 1_555
O27 U7 1_555 1_555
O28 U7 1_555 1_555
O29 U7 1_555 1_555
O30 C30 1_555 1_555
O43 C30 1_555 1_555
O36 Ce2 1_555 1_555
H17 O36 1_555 1_555
H18 O36 1_555 1_555
O37 Ce2 1_555 1_555
H19 O37 1_555 1_555
H20 O37 1_555 1_555
O38 Ce2 1_555 1_555
H21 O38 1_555 1_555
H22 O38 1_555 1_555
O39 Ce2 1_555 1_555
H24 O39 1_555 1_555
O41 Ce2 1_555 1_555
H27 O41 1_555 1_555
H28 O41 1_555 1_555
C27 O28 1_555 1_555
O45 U7 1_555 1_555
O47 Ce2 1_555 1_555
O49 Ce2 1_555 1_555
C17 C18 1_555 1_555
O29 C27 1_555 1_555
U5 O1 1_555 1_555
Ce3 O6 1_555 1_555
O2 U5 1_555 1_555
O4 U5 1_555 1_555
O5 U5 1_555 1_555
O6 C13 1_555 1_555
O7 U2_2 1_555 1_555
O12 U5 1_555 1_555
O13 C14 1_555 1_555
O14 U2_2 1_555 1_555
O15 U2_2 1_555 1_555
O16 Ce3 1_555 1_555
H1 O16 1_555 1_555
H2 O16 1_555 1_555
O17 Ce3 1_555 1_555
H3 O17 1_555 1_555
H4 O17 1_555 1_555
O18 Ce3 1_555 1_555
H5 O18 1_555 1_555
H6 O18 1_555 1_555
O19 Ce3 1_555 1_555
H8 O19 1_555 1_555
O21 Ce3 1_555 1_555
H11 O21 1_555 1_555
H12 O21 1_555 1_555
C9 C8 1_555 1_555
C10 O4 1_555 1_555
C13 O7 1_555 1_555
C14 O12 1_555 1_555
C15 O14 1_555 1_555
C16 C9 1_555 1_555
H16 C16 1_555 1_555
O42 U2_2 1_555 1_555
O51 U5 1_555 1_555
O5 C10 1_555 1_555
O15 C15 1_555 1_555
C8 C15 1_555 1_555
C9 C14 1_555 1_555
O47 C29 1_555 1_555
O49 C28 1_555 1_555
C21 C22 1_555 1_555
C22 H29 1_555 1_555
C23 C22 1_555 1_555
C24 C23 1_555 1_555
C25 C24 1_555 1_555
H30 C25 1_555 1_555
C26 C21 1_555 1_555
C28 C23 1_555 1_555
C29 C24 1_555 1_555
C25 C26 1_555 1_555
H25 O40 1_555 1_555
H26 O40 1_555 1_555
H9 O20 1_555 1_555
H10 O20 1_555 1_555

#END
