
###############################################################################
#
# This file contains modified crystal structure data generated from the
# MOF subset of the Cambridge Structural Database (CSD) v543 
# hosted by the Cambridge Crystallographic Data Centre (CCDC).
#
# This work is licensed under the Creative Commons
# Attribution-NonCommercial-ShareAlike 4.0 International License.
# To view a copy of this license, visit
# http://creativecommons.org/licenses/by-nc-sa/4.0/
# or send a letter to
# Creative Commons, PO Box 1866, Mountain View, CA 94042, USA.
#
# CIF created using the CSD Python API on 29 September 2022
# The structure has been converted into the P1 space group
# The structure has a 3D framework
# The original CSD entry EHAFUQ is in the triclinic crystal system
# The framework has been calculated to contain at least 10.0% void space
# The void calculation uses a probe of radius 1.32A, grid spacing 0.4
#
###############################################################################

data_EHAFUQ
_chemical_formula_moiety         '(C30 H30 Nd2 O38 U4)n'
_symmetry_cell_setting           triclinic
_symmetry_space_group_name_H-M   'P 1'
_symmetry_Int_Tables_number      1
_space_group_name_Hall           'P 1'
loop_
_symmetry_equiv_pos_site_id
_symmetry_equiv_pos_as_xyz
1 x,y,z
_cell_length_a                   10.8761(5)
_cell_length_b                   11.4866(6)
_cell_length_c                   13.4225(7)
_cell_angle_alpha                69.4990(10)
_cell_angle_beta                 79.9920(10)
_cell_angle_gamma                62.5060(10)
_cell_volume                     1393.12
loop_
_atom_site_label
_atom_site_type_symbol
_atom_site_fract_x
_atom_site_fract_y
_atom_site_fract_z
O11 O 0.3121(6) 0.2135(6) 0.0544(4)
U7 U 0.36844(3) 0.29714(3) 0.16694(2)
U2 U -0.0000 0.5000 0.5000
O3 O 0.0620(6) 0.5021(6) 0.6122(5)
O9 O 0.5170(6) 0.0594(6) 0.7760(6)
O10 O 0.4763(6) 0.1760(7) 0.9315(5)
C1 C 0.0083(8) 0.3371(8) 0.8459(6)
C2 C 0.1172(8) 0.3124(8) 0.9048(6)
H13 H 0.0992 0.3629 0.9510
C3 C 0.2507(8) 0.2146(8) 0.8957(6)
C4 C 0.2773(8) 0.1345(8) 0.8281(6)
C5 C 0.1660(8) 0.1551(8) 0.7748(7)
H14 H 0.1815 0.0984 0.7342
C6 C 0.0327(8) 0.2576(8) 0.7801(6)
C11 C 0.3569(8) 0.1986(8) 0.9622(6)
C12 C 0.4188(8) 0.0297(8) 0.8087(6)
Nd3 Nd 0.62063(4) 0.21519(5) 0.77498(4)
O43 O 0.1017(5) 0.6433(6) 0.3773(4)
O52 O 0.2638(7) 0.3686(6) 0.4682(6)
O53 O 0.1425(6) 0.2488(6) 0.5227(5)
O8 O 0.4270(6) 0.9095(6) 0.8271(5)
U5 U 0.63156(3) 0.70286(3) 0.83306(2)
C7 C 0.6208(8) 0.0020(8) 0.4518(6)
H15 H 0.7036 0.0025 0.4198
O22 O 0.4932(6) 0.3085(6) 0.2876(4)
O23 O 0.5748(8) 0.2999(7) 0.4302(5)
C17 C 0.3848(9) 0.1245(8) 0.4967(6)
C18 C 0.5077(8) 0.1252(8) 0.4472(6)
C19 C 0.5255(8) 0.2542(8) 0.3846(6)
C20 C 0.2574(8) 0.2556(9) 0.4944(6)
Nd2 Nd 0.37937(4) 0.78481(5) 0.22502(4)
O26 O 0.4492(6) 0.3811(6) 0.0610(4)
O27 O 0.2858(6) 0.2148(7) 0.2717(5)
O28 O 0.1429(6) 0.4717(7) 0.0930(5)
O29 O 0.2258(6) 0.5147(6) 0.2057(5)
O30 O 0.1465(6) 0.7926(6) 0.2388(5)
O36 O 0.2931(7) 0.8616(7) 0.3834(5)
H17 H 0.2039 0.9220 0.3871
H18 H 0.3503 0.8297 0.4376
O37 O 0.3747(7) 0.5886(6) 0.3801(5)
H19 H 0.3405 0.5338 0.3733
H20 H 0.4071 0.5727 0.4432
O38 O 0.6100(8) 0.6398(8) 0.3220(7)
H21 H 0.6843 0.5852 0.2915
H22 H 0.6171 0.6432 0.3866
O39 O 0.5014(8) 0.5689(7) 0.1726(6)
H23 H 0.4796 0.5672 0.1115
H24 H 0.5668 0.4928 0.2148
O40 O 0.2852(8) 0.8277(11) 0.0449(6)
H26 H 0.1961 0.8864 0.0282
C27 C 0.1279(8) 0.5445(9) 0.1500(7)
C30 C 0.0809(8) 0.7225(8) 0.2830(6)
O45 O 0.5730(6) 0.0905(6) 0.1729(5)
O47 O 0.4830(6) 0.9406(6) 0.2240(6)
O49 O 0.5237(6) 0.8240(7) 0.0685(5)
U2_2 U 1.0000 0.5000 0.5000
O1 O 0.5508(6) 0.6189(6) 0.9390(4)
O2 O 0.7142(6) 0.7852(7) 0.7283(5)
O4 O 0.8571(6) 0.5283(7) 0.9070(5)
O5 O 0.7742(6) 0.4853(6) 0.7943(5)
O6 O 0.8535(6) 0.2074(6) 0.7612(5)
O7 O 0.8983(5) 0.3567(6) 0.6227(4)
O12 O 0.5068(6) 0.6915(6) 0.7124(4)
O13 O 0.4252(8) 0.7001(7) 0.5698(5)
O14 O 0.7362(7) 0.6314(6) 0.5318(6)
O15 O 0.8575(6) 0.7512(6) 0.4773(5)
O16 O 0.7069(7) 0.1384(7) 0.6166(5)
H1 H 0.7961 0.0780 0.6129
H2 H 0.6497 0.1703 0.5624
O17 O 0.6253(7) 0.4114(6) 0.6199(5)
H3 H 0.6595 0.4662 0.6267
H4 H 0.5929 0.4273 0.5568
O18 O 0.3900(8) 0.3602(8) 0.6780(7)
H5 H 0.3157 0.4148 0.7085
H6 H 0.3829 0.3568 0.6134
O19 O 0.4986(8) 0.4311(7) 0.8274(6)
H7 H 0.5204 0.4328 0.8885
H8 H 0.4332 0.5072 0.7852
O20 O 0.7148(8) 0.1723(11) 0.9551(6)
H10 H 0.8039 0.1136 0.9718
C8 C 0.6152(9) 0.8755(8) 0.5033(6)
C9 C 0.4923(8) 0.8748(8) 0.5528(6)
C10 C 0.8721(8) 0.4555(9) 0.8500(7)
C13 C 0.9191(8) 0.2775(8) 0.7170(6)
C14 C 0.4745(8) 0.7458(8) 0.6154(6)
C15 C 0.7426(8) 0.7444(9) 0.5056(6)
C16 C 0.3792(8) 0.9980(8) 0.5482(6)
H16 H 0.2964 0.9975 0.5802
O42 O 0.9380(6) 0.4979(6) 0.3878(5)
O51 O 0.6879(6) 0.7865(6) 0.9456(4)
C21 C 0.9917(8) 0.6629(8) 0.1541(6)
C22 C 0.8828(8) 0.6876(8) 0.0952(6)
H29 H 0.9008 0.6371 0.0490
C23 C 0.7493(8) 0.7854(8) 0.1043(6)
C24 C 0.7227(8) 0.8655(8) 0.1719(6)
C25 C 0.8340(8) 0.8449(8) 0.2252(7)
H30 H 0.8185 0.9016 0.2658
C26 C 0.9673(8) 0.7424(8) 0.2199(6)
C28 C 0.6431(8) 0.8014(8) 0.0378(6)
C29 C 0.5812(8) 0.9703(8) 0.1913(6)
O41 O 0.2037(7) 0.0255(7) 0.1650(6)
H27 H 0.1596 0.0581 0.1034
H28 H 0.1832 0.0811 0.2049
H25 H 0.3414 0.7835 0.9992
H9 H 0.6586 0.2165 0.0008
O21 O 0.7963(7) 0.9745(7) 0.8350(6)
H11 H 0.8404 0.9419 0.8966
H12 H 0.8168 0.9189 0.7951
loop_
_geom_bond_atom_site_label_1
_geom_bond_atom_site_label_2
_geom_bond_site_symmetry_1
_geom_bond_site_symmetry_2
U7 O11 1_555 1_555
U2 O3 1_555 1_555
O9 C12 1_555 1_555
O10 C11 1_555 1_555
C1 C2 1_555 1_555
C2 H13 1_555 1_555
C3 C2 1_555 1_555
C4 C3 1_555 1_555
C5 C4 1_555 1_555
H14 C5 1_555 1_555
C6 C1 1_555 1_555
C11 C3 1_555 1_555
C12 C4 1_555 1_555
Nd3 O9 1_555 1_555
O43 U2 1_555 1_555
O52 U2 1_555 1_555
O53 U2 1_555 1_555
O10 Nd3 1_555 1_555
C5 C6 1_555 1_555
U5 O8 1_555 1_555
C7 H15 1_555 1_555
O22 C19 1_555 1_555
O23 C19 1_555 1_555
O52 C20 1_555 1_555
O53 C20 1_555 1_555
C18 C7 1_555 1_555
C19 C18 1_555 1_555
C20 C17 1_555 1_555
U7 O22 1_555 1_555
Nd2 O30 1_555 1_555
O26 U7 1_555 1_555
O27 U7 1_555 1_555
O28 U7 1_555 1_555
O29 U7 1_555 1_555
O30 C30 1_555 1_555
O43 C30 1_555 1_555
O36 Nd2 1_555 1_555
H17 O36 1_555 1_555
H18 O36 1_555 1_555
O37 Nd2 1_555 1_555
H19 O37 1_555 1_555
H20 O37 1_555 1_555
O38 Nd2 1_555 1_555
H21 O38 1_555 1_555
H22 O38 1_555 1_555
O39 Nd2 1_555 1_555
H23 O39 1_555 1_555
H24 O39 1_555 1_555
O40 Nd2 1_555 1_555
H26 O40 1_555 1_555
C27 O28 1_555 1_555
O45 U7 1_555 1_555
O47 Nd2 1_555 1_555
O49 Nd2 1_555 1_555
C17 C18 1_555 1_555
O29 C27 1_555 1_555
U5 O1 1_555 1_555
Nd3 O6 1_555 1_555
O2 U5 1_555 1_555
O4 U5 1_555 1_555
O5 U5 1_555 1_555
O6 C13 1_555 1_555
O7 U2_2 1_555 1_555
O12 U5 1_555 1_555
O13 C14 1_555 1_555
O14 U2_2 1_555 1_555
O15 U2_2 1_555 1_555
O16 Nd3 1_555 1_555
H1 O16 1_555 1_555
H2 O16 1_555 1_555
O17 Nd3 1_555 1_555
H3 O17 1_555 1_555
H4 O17 1_555 1_555
O18 Nd3 1_555 1_555
H5 O18 1_555 1_555
H6 O18 1_555 1_555
O19 Nd3 1_555 1_555
H7 O19 1_555 1_555
H8 O19 1_555 1_555
O20 Nd3 1_555 1_555
H10 O20 1_555 1_555
C9 C8 1_555 1_555
C10 O4 1_555 1_555
C13 O7 1_555 1_555
C14 O12 1_555 1_555
C15 O14 1_555 1_555
C16 C9 1_555 1_555
H16 C16 1_555 1_555
O42 U2_2 1_555 1_555
O51 U5 1_555 1_555
O5 C10 1_555 1_555
O15 C15 1_555 1_555
C8 C15 1_555 1_555
C9 C14 1_555 1_555
O47 C29 1_555 1_555
O49 C28 1_555 1_555
C21 C22 1_555 1_555
C22 H29 1_555 1_555
C23 C22 1_555 1_555
C24 C23 1_555 1_555
C25 C24 1_555 1_555
H30 C25 1_555 1_555
C26 C21 1_555 1_555
C28 C23 1_555 1_555
C29 C24 1_555 1_555
C25 C26 1_555 1_555
H27 O41 1_555 1_555
H28 O41 1_555 1_555
H11 O21 1_555 1_555
H12 O21 1_555 1_555

#END
