
###############################################################################
#
# This file contains modified crystal structure data generated from the
# MOF subset of the Cambridge Structural Database (CSD) v543 
# hosted by the Cambridge Crystallographic Data Centre (CCDC).
#
# This work is licensed under the Creative Commons
# Attribution-NonCommercial-ShareAlike 4.0 International License.
# To view a copy of this license, visit
# http://creativecommons.org/licenses/by-nc-sa/4.0/
# or send a letter to
# Creative Commons, PO Box 1866, Mountain View, CA 94042, USA.
#
# CIF created using the CSD Python API on 29 September 2022
# The structure has been converted into the P1 space group
# The structure has a 3D framework
# The original CSD entry EHAGEB is in the triclinic crystal system
# The framework has been calculated to contain at least 10.0% void space
# The void calculation uses a probe of radius 1.32A, grid spacing 0.4
#
###############################################################################

data_EHAGEB
_chemical_formula_moiety         '(C30 H26 Eu2 O36 U4)n'
_symmetry_cell_setting           triclinic
_symmetry_space_group_name_H-M   'P 1'
_symmetry_Int_Tables_number      1
_space_group_name_Hall           'P 1'
loop_
_symmetry_equiv_pos_site_id
_symmetry_equiv_pos_as_xyz
1 x,y,z
_cell_length_a                   10.6427(6)
_cell_length_b                   11.5008(6)
_cell_length_c                   13.4731(8)
_cell_angle_alpha                69.142(5)
_cell_angle_beta                 78.865(5)
_cell_angle_gamma                63.208(6)
_cell_volume                     1374.54
loop_
_atom_site_label
_atom_site_type_symbol
_atom_site_fract_x
_atom_site_fract_y
_atom_site_fract_z
O11 O 0.3246(7) 0.1980(7) 0.0539(6)
U7 U 0.37421(4) 0.28872(4) 0.16350(3)
U2 U 0.0000 0.5000 0.5000
O3 O 0.0698(8) 0.4994(7) 0.6100(6)
O9 O 0.5026(8) 0.0764(8) 0.7536(7)
O10 O 0.4827(9) 0.1763(8) 0.9185(6)
C1 C 0.0017(11) 0.3423(9) 0.8512(9)
C2 C 0.1137(11) 0.3132(9) 0.9079(9)
H11 H 0.0988 0.3601 0.9558
C3 C 0.2477(10) 0.2152(9) 0.8945(9)
C4 C 0.2675(11) 0.1431(9) 0.8242(8)
C5 C 0.1514(11) 0.1637(9) 0.7752(9)
H12 H 0.1631 0.1082 0.7350
C6 C 0.0194(12) 0.2653(9) 0.7857(9)
C11 C 0.3624(12) 0.1937(10) 0.9581(9)
C12 C 0.4101(11) 0.0377(10) 0.7977(9)
Eu3 Eu 0.60329(6) 0.22800(5) 0.75140(5)
O41 O 0.1095(7) 0.6378(6) 0.3741(6)
O50 O 0.2638(8) 0.3660(7) 0.4646(7)
O51 O 0.1364(8) 0.2505(7) 0.5218(6)
O8 O 0.4186(8) 0.9173(6) 0.8205(6)
U5 U 0.62579(4) 0.71128(4) 0.83650(3)
C7 C 0.6260(11) 0.0012(9) 0.4496(8)
H13 H 0.7112 0.0013 0.4166
O21 O 0.4968(8) 0.3066(7) 0.2815(6)
O22 O 0.5851(9) 0.2991(7) 0.4216(6)
C17 C 0.3847(11) 0.1237(10) 0.4944(8)
C18 C 0.5084(12) 0.1243(9) 0.4438(8)
C19 C 0.5292(12) 0.2555(10) 0.3783(9)
C20 C 0.2538(11) 0.2538(10) 0.4923(9)
Eu2 Eu 0.39671(6) 0.77200(5) 0.24860(5)
O25 O 0.4627(8) 0.3692(7) 0.0576(6)
O26 O 0.2831(9) 0.2101(8) 0.2687(7)
O27 O 0.1490(9) 0.4637(7) 0.0868(7)
O28 O 0.2349(8) 0.5063(7) 0.1977(7)
O29 O 0.1789(8) 0.7686(7) 0.2301(6)
O35 O 0.6303(10) 0.6211(9) 0.3227(9)
H15 H 0.6422 0.5447 0.3777
H16 H 0.7039 0.6426 0.2950
O36 O 0.3882(8) 0.5767(7) 0.3944(6)
H17 H 0.4670 0.5133 0.4290
H18 H 0.3065 0.5677 0.4141
O37 O 0.2834(9) 0.8511(7) 0.3951(7)
H19 H 0.3314 0.8221 0.4537
H20 H 0.1922 0.9108 0.3923
O38 O 0.2269(9) 0.9957(8) 0.1617(7)
O39 O 0.4761(11) 0.5876(8) 0.1736(7)
H23 H 0.5613 0.5175 0.1891
H24 H 0.4209 0.5890 0.1299
C27 C 0.1332(11) 0.5371(10) 0.1434(10)
C30 C 0.0994(11) 0.7096(9) 0.2769(10)
O43 O 0.5814(8) 0.0827(6) 0.1795(6)
O45 O 0.4974(8) 0.9236(8) 0.2464(7)
O47 O 0.5173(9) 0.8237(8) 0.0815(6)
U2_2 U 1.0000 0.5000 0.5000
O1 O 0.5373(8) 0.6308(7) 0.9424(6)
O2 O 0.7169(9) 0.7899(8) 0.7313(7)
O4 O 0.8510(9) 0.5363(7) 0.9132(7)
O5 O 0.7651(8) 0.4937(7) 0.8023(7)
O6 O 0.8211(8) 0.2314(7) 0.7699(6)
O7 O 0.8905(7) 0.3622(6) 0.6259(6)
O12 O 0.5032(8) 0.6934(7) 0.7185(6)
O13 O 0.4149(9) 0.7009(7) 0.5784(6)
O14 O 0.7362(8) 0.6340(7) 0.5354(7)
O15 O 0.8636(8) 0.7495(7) 0.4782(6)
O16 O 0.3697(10) 0.3789(9) 0.6773(9)
H1 H 0.3578 0.4553 0.6223
H2 H 0.2961 0.3574 0.7050
O17 O 0.6118(8) 0.4233(7) 0.6056(6)
H3 H 0.5330 0.4867 0.5710
H4 H 0.6935 0.4323 0.5859
O18 O 0.7166(9) 0.1489(7) 0.6049(7)
H5 H 0.6686 0.1779 0.5463
H6 H 0.8078 0.0892 0.6077
O19 O 0.7731(9) 0.0043(8) 0.8383(7)
O20 O 0.5239(11) 0.4124(8) 0.8264(7)
H9 H 0.4387 0.4825 0.8109
H10 H 0.5791 0.4110 0.8701
C8 C 0.6153(11) 0.8763(10) 0.5056(8)
C9 C 0.4916(12) 0.8757(9) 0.5562(8)
C10 C 0.8668(11) 0.4629(10) 0.8566(10)
C13 C 0.9006(11) 0.2904(9) 0.7231(10)
C14 C 0.4708(12) 0.7445(10) 0.6217(9)
C15 C 0.7462(11) 0.7462(10) 0.5077(9)
C16 C 0.3740(11) 0.9988(9) 0.5504(8)
H14 H 0.2888 0.9987 0.5834
O40 O 0.9302(8) 0.5006(7) 0.3900(6)
O49 O 0.6754(7) 0.8020(7) 0.9461(6)
C21 C 0.9983(11) 0.6577(9) 0.1488(9)
C22 C 0.8863(11) 0.6868(9) 0.0921(9)
H25 H 0.9012 0.6399 0.0442
C23 C 0.7523(10) 0.7848(9) 0.1055(9)
C24 C 0.7325(11) 0.8569(9) 0.1758(8)
C25 C 0.8486(11) 0.8363(9) 0.2248(9)
H26 H 0.8369 0.8918 0.2650
C26 C 0.9806(12) 0.7347(9) 0.2143(9)
C28 C 0.6376(12) 0.8063(10) 0.0419(9)
C29 C 0.5899(11) 0.9623(10) 0.2023(9)
H21 H 0.2477 0.0684 0.1435
H22 H 0.1423 0.0069 0.1472
H7 H 0.7523 0.9316 0.8565
H8 H 0.8577 0.9931 0.8528
loop_
_geom_bond_atom_site_label_1
_geom_bond_atom_site_label_2
_geom_bond_site_symmetry_1
_geom_bond_site_symmetry_2
U7 O11 1_555 1_555
U2 O3 1_555 1_555
O9 C12 1_555 1_555
O10 C11 1_555 1_555
C1 C2 1_555 1_555
C2 H11 1_555 1_555
C3 C2 1_555 1_555
C4 C3 1_555 1_555
C5 C4 1_555 1_555
H12 C5 1_555 1_555
C6 C1 1_555 1_555
C11 C3 1_555 1_555
C12 C4 1_555 1_555
Eu3 O9 1_555 1_555
O41 U2 1_555 1_555
O50 U2 1_555 1_555
O51 U2 1_555 1_555
O10 Eu3 1_555 1_555
C5 C6 1_555 1_555
U5 O8 1_555 1_555
C7 H13 1_555 1_555
O21 C19 1_555 1_555
O22 C19 1_555 1_555
O50 C20 1_555 1_555
O51 C20 1_555 1_555
C18 C7 1_555 1_555
C19 C18 1_555 1_555
C20 C17 1_555 1_555
U7 O21 1_555 1_555
Eu2 O29 1_555 1_555
O25 U7 1_555 1_555
O26 U7 1_555 1_555
O27 U7 1_555 1_555
O28 U7 1_555 1_555
O29 C30 1_555 1_555
O41 C30 1_555 1_555
O35 Eu2 1_555 1_555
H15 O35 1_555 1_555
H16 O35 1_555 1_555
O36 Eu2 1_555 1_555
H17 O36 1_555 1_555
H18 O36 1_555 1_555
O37 Eu2 1_555 1_555
H19 O37 1_555 1_555
H20 O37 1_555 1_555
O38 Eu2 1_555 1_555
O39 Eu2 1_555 1_555
H23 O39 1_555 1_555
H24 O39 1_555 1_555
C27 O27 1_555 1_555
O43 U7 1_555 1_555
O45 Eu2 1_555 1_555
O47 Eu2 1_555 1_555
C17 C18 1_555 1_555
O28 C27 1_555 1_555
U5 O1 1_555 1_555
Eu3 O6 1_555 1_555
O2 U5 1_555 1_555
O4 U5 1_555 1_555
O5 U5 1_555 1_555
O6 C13 1_555 1_555
O7 U2_2 1_555 1_555
O12 U5 1_555 1_555
O13 C14 1_555 1_555
O14 U2_2 1_555 1_555
O15 U2_2 1_555 1_555
O16 Eu3 1_555 1_555
H1 O16 1_555 1_555
H2 O16 1_555 1_555
O17 Eu3 1_555 1_555
H3 O17 1_555 1_555
H4 O17 1_555 1_555
O18 Eu3 1_555 1_555
H5 O18 1_555 1_555
H6 O18 1_555 1_555
O19 Eu3 1_555 1_555
O20 Eu3 1_555 1_555
H9 O20 1_555 1_555
H10 O20 1_555 1_555
C9 C8 1_555 1_555
C10 O4 1_555 1_555
C13 O7 1_555 1_555
C14 O12 1_555 1_555
C15 O14 1_555 1_555
C16 C9 1_555 1_555
H14 C16 1_555 1_555
O40 U2_2 1_555 1_555
O49 U5 1_555 1_555
O5 C10 1_555 1_555
O15 C15 1_555 1_555
C8 C15 1_555 1_555
C9 C14 1_555 1_555
O45 C29 1_555 1_555
O47 C28 1_555 1_555
C21 C22 1_555 1_555
C22 H25 1_555 1_555
C23 C22 1_555 1_555
C24 C23 1_555 1_555
C25 C24 1_555 1_555
H26 C25 1_555 1_555
C26 C21 1_555 1_555
C28 C23 1_555 1_555
C29 C24 1_555 1_555
C25 C26 1_555 1_555

#END
