
###############################################################################
#
# This file contains modified crystal structure data generated from the
# MOF subset of the Cambridge Structural Database (CSD) v543 
# hosted by the Cambridge Crystallographic Data Centre (CCDC).
#
# This work is licensed under the Creative Commons
# Attribution-NonCommercial-ShareAlike 4.0 International License.
# To view a copy of this license, visit
# http://creativecommons.org/licenses/by-nc-sa/4.0/
# or send a letter to
# Creative Commons, PO Box 1866, Mountain View, CA 94042, USA.
#
# CIF created using the CSD Python API on 29 September 2022
# The structure has been converted into the P1 space group
# The structure has a 3D framework
# The original CSD entry EHAGIF is in the triclinic crystal system
# The framework has been calculated to contain at least 10.0% void space
# The void calculation uses a probe of radius 1.32A, grid spacing 0.4
#
###############################################################################

data_EHAGIF
_chemical_formula_moiety         '(C30 H26 Gd2 O36 U4)n'
_symmetry_cell_setting           triclinic
_symmetry_space_group_name_H-M   'P 1'
_symmetry_Int_Tables_number      1
_space_group_name_Hall           'P 1'
loop_
_symmetry_equiv_pos_site_id
_symmetry_equiv_pos_as_xyz
1 x,y,z
_cell_length_a                   10.587(13)
_cell_length_b                   11.487(13)
_cell_length_c                   13.372(16)
_cell_angle_alpha                69.301(17)
_cell_angle_beta                 79.25(2)
_cell_angle_gamma                63.140(18)
_cell_volume                     1356.41
loop_
_atom_site_label
_atom_site_type_symbol
_atom_site_fract_x
_atom_site_fract_y
_atom_site_fract_z
O11 O 0.3224(8) 0.2004(7) 0.0537(6)
U8 U 0.37467(4) 0.28721(4) 0.16534(3)
U1 U 0.0000 0.5000 0.5000
C1 C 0.0018(11) 0.3422(10) 0.8499(8)
C2 C 0.1134(11) 0.3132(10) 0.9064(8)
H1 H 0.0974 0.3610 0.9543
C3 C 0.2475(11) 0.2169(10) 0.8955(7)
C4 C 0.2693(10) 0.1413(10) 0.8263(8)
C5 C 0.1525(12) 0.1636(11) 0.7768(9)
H2 H 0.1645 0.1074 0.7367
C6 C 0.0194(10) 0.2657(9) 0.7845(7)
C11 C 0.3603(12) 0.1969(10) 0.9571(8)
C12 C 0.4100(11) 0.0373(10) 0.8031(8)
O3 O 0.0650(9) 0.5021(8) 0.6105(6)
O9 O 0.5076(8) 0.0712(8) 0.7621(7)
O10 O 0.4794(9) 0.1797(9) 0.9201(6)
Gd3 Gd 0.60381(6) 0.22774(6) 0.75457(5)
O41 O 0.1107(7) 0.6360(7) 0.3746(6)
O50 O 0.2671(9) 0.3654(8) 0.4677(8)
O51 O 0.1390(9) 0.2518(8) 0.5230(7)
O8 O 0.4192(8) 0.9179(7) 0.8233(6)
U6 U 0.62533(4) 0.71279(4) 0.83466(3)
C16 C 0.3762(12) 0.0002(10) 0.5502(8)
H14 H 0.2907 0.0011 0.5838
C17 C 0.3847(12) 0.1242(11) 0.4963(9)
C18 C 0.5098(12) 0.1248(11) 0.4442(8)
C19 C 0.5314(11) 0.2503(10) 0.3806(9)
C20 C 0.2569(12) 0.2543(11) 0.4966(9)
O21 O 0.4962(8) 0.3034(7) 0.2837(6)
O22 O 0.5858(9) 0.2955(8) 0.4223(6)
Gd2 Gd 0.39619(6) 0.77226(6) 0.24543(5)
C27 C 0.1358(11) 0.5355(11) 0.1466(9)
C30 C 0.0999(11) 0.7086(10) 0.2759(9)
O25 O 0.4621(9) 0.3680(8) 0.0591(6)
O26 O 0.2840(9) 0.2099(8) 0.2707(6)
O27 O 0.1475(9) 0.4643(8) 0.0904(7)
O28 O 0.2361(8) 0.5043(8) 0.2011(6)
O29 O 0.1752(8) 0.7705(7) 0.2325(6)
O35 O 0.2285(10) 0.9948(9) 0.1572(7)
O36 O 0.4706(13) 0.5878(10) 0.1754(8)
H19 H 0.4751 0.5057 0.2186
H20 H 0.4952 0.5998 0.1056
O37 O 0.6264(11) 0.6307(11) 0.3210(9)
H21 H 0.6407 0.5540 0.3765
H22 H 0.6985 0.6549 0.2933
O38 O 0.3882(9) 0.5782(8) 0.3903(7)
H23 H 0.4672 0.5159 0.4264
H24 H 0.3068 0.5680 0.4087
O39 O 0.2857(11) 0.8518(9) 0.3925(7)
H25 H 0.2734 0.7933 0.4550
H26 H 0.2552 0.9410 0.3862
O43 O 0.5808(8) 0.0821(7) 0.1767(6)
O45 O 0.4924(8) 0.9288(8) 0.2379(7)
O47 O 0.5206(9) 0.8203(9) 0.0799(6)
U1_2 U 1.0000 0.5000 0.5000
C7 C 0.6238(12) 0.9998(10) 0.4498(8)
H3 H 0.7093 0.9989 0.4162
C8 C 0.6153(12) 0.8758(11) 0.5037(9)
C9 C 0.4902(12) 0.8752(11) 0.5558(8)
C10 C 0.8642(11) 0.4645(11) 0.8534(9)
C13 C 0.9001(11) 0.2914(10) 0.7241(9)
C14 C 0.4686(11) 0.7497(10) 0.6194(9)
C15 C 0.7431(12) 0.7457(11) 0.5034(9)
O1 O 0.5379(9) 0.6320(8) 0.9409(6)
O2 O 0.7160(9) 0.7901(8) 0.7293(6)
O4 O 0.8525(9) 0.5357(8) 0.9096(7)
O5 O 0.7639(8) 0.4957(8) 0.7989(6)
O6 O 0.8248(8) 0.2295(7) 0.7675(6)
O7 O 0.8893(7) 0.3640(7) 0.6254(6)
O12 O 0.5038(8) 0.6966(7) 0.7163(6)
O13 O 0.4142(9) 0.7045(8) 0.5777(6)
O14 O 0.7329(9) 0.6346(8) 0.5323(8)
O15 O 0.8610(9) 0.7482(8) 0.4770(7)
O16 O 0.7715(10) 0.0052(9) 0.8428(7)
O17 O 0.5294(13) 0.4122(10) 0.8246(8)
H6 H 0.5249 0.4943 0.7814
H7 H 0.5048 0.4002 0.8944
O18 O 0.3736(11) 0.3693(11) 0.6790(9)
H8 H 0.3593 0.4460 0.6235
H9 H 0.3015 0.3451 0.7067
O19 O 0.6118(9) 0.4218(8) 0.6097(7)
H10 H 0.5328 0.4841 0.5736
H11 H 0.6932 0.4320 0.5913
O20 O 0.7143(11) 0.1482(9) 0.6075(7)
H12 H 0.7266 0.2067 0.5450
H13 H 0.7448 0.0590 0.6138
O40 O 0.9350(9) 0.4979(8) 0.3895(6)
O49 O 0.6776(8) 0.7996(7) 0.9463(6)
C21 C 0.9982(11) 0.6578(10) 0.1501(8)
C22 C 0.8866(11) 0.6868(10) 0.0936(8)
H15 H 0.9026 0.6390 0.0457
C23 C 0.7525(11) 0.7831(10) 0.1045(7)
C24 C 0.7307(10) 0.8587(10) 0.1737(8)
C25 C 0.8475(12) 0.8364(11) 0.2232(9)
H16 H 0.8355 0.8926 0.2633
C26 C 0.9806(10) 0.7343(9) 0.2155(7)
C28 C 0.6397(12) 0.8031(10) 0.0429(8)
C29 C 0.5900(11) 0.9627(10) 0.1969(8)
H17 H 0.1367 0.0221 0.1788
H18 H 0.2564 0.0520 0.1023
H4 H 0.8633 0.9779 0.8212
H5 H 0.7436 0.9480 0.8977
loop_
_geom_bond_atom_site_label_1
_geom_bond_atom_site_label_2
_geom_bond_site_symmetry_1
_geom_bond_site_symmetry_2
U8 O11 1_555 1_555
U1 O3 1_555 1_555
C1 C2 1_555 1_555
C2 H1 1_555 1_555
C3 C2 1_555 1_555
C4 C3 1_555 1_555
C5 C4 1_555 1_555
H2 C5 1_555 1_555
C6 C1 1_555 1_555
C11 C3 1_555 1_555
C12 C4 1_555 1_555
O9 C12 1_555 1_555
O10 C11 1_555 1_555
Gd3 O9 1_555 1_555
O41 U1 1_555 1_555
O50 U1 1_555 1_555
O51 U1 1_555 1_555
C5 C6 1_555 1_555
O10 Gd3 1_555 1_555
U6 O8 1_555 1_555
H14 C16 1_555 1_555
C17 C16 1_555 1_555
C19 C18 1_555 1_555
C20 C17 1_555 1_555
O21 C19 1_555 1_555
O22 C19 1_555 1_555
O50 C20 1_555 1_555
O51 C20 1_555 1_555
U8 O21 1_555 1_555
Gd2 O29 1_555 1_555
O25 U8 1_555 1_555
O26 U8 1_555 1_555
O27 U8 1_555 1_555
O28 U8 1_555 1_555
O29 C30 1_555 1_555
O41 C30 1_555 1_555
O35 Gd2 1_555 1_555
O36 Gd2 1_555 1_555
H19 O36 1_555 1_555
H20 O36 1_555 1_555
O37 Gd2 1_555 1_555
H21 O37 1_555 1_555
H22 O37 1_555 1_555
O38 Gd2 1_555 1_555
H23 O38 1_555 1_555
H24 O38 1_555 1_555
O39 Gd2 1_555 1_555
H25 O39 1_555 1_555
H26 O39 1_555 1_555
O43 U8 1_555 1_555
O45 Gd2 1_555 1_555
O47 Gd2 1_555 1_555
C17 C18 1_555 1_555
C27 O27 1_555 1_555
C27 O28 1_555 1_555
U6 O1 1_555 1_555
Gd3 O6 1_555 1_555
C7 H3 1_555 1_555
C8 C7 1_555 1_555
C9 C8 1_555 1_555
C14 C9 1_555 1_555
C15 C8 1_555 1_555
O2 U6 1_555 1_555
O4 U6 1_555 1_555
O5 U6 1_555 1_555
O6 C13 1_555 1_555
O7 U1_2 1_555 1_555
O12 U6 1_555 1_555
O13 C14 1_555 1_555
O14 U1_2 1_555 1_555
O15 U1_2 1_555 1_555
O16 Gd3 1_555 1_555
O17 Gd3 1_555 1_555
H6 O17 1_555 1_555
H7 O17 1_555 1_555
O18 Gd3 1_555 1_555
H8 O18 1_555 1_555
H9 O18 1_555 1_555
O19 Gd3 1_555 1_555
H10 O19 1_555 1_555
H11 O19 1_555 1_555
O20 Gd3 1_555 1_555
H12 O20 1_555 1_555
H13 O20 1_555 1_555
O40 U1_2 1_555 1_555
O49 U6 1_555 1_555
C10 O4 1_555 1_555
C10 O5 1_555 1_555
C13 O7 1_555 1_555
C14 O12 1_555 1_555
C15 O14 1_555 1_555
C15 O15 1_555 1_555
C21 C22 1_555 1_555
C22 H15 1_555 1_555
C23 C22 1_555 1_555
C24 C23 1_555 1_555
C25 C24 1_555 1_555
H16 C25 1_555 1_555
C26 C21 1_555 1_555
C28 C23 1_555 1_555
C29 C24 1_555 1_555
O45 C29 1_555 1_555
O47 C28 1_555 1_555
C25 C26 1_555 1_555

#END
