
###############################################################################
#
# This file contains modified crystal structure data generated from the
# MOF subset of the Cambridge Structural Database (CSD) v543 
# hosted by the Cambridge Crystallographic Data Centre (CCDC).
#
# This work is licensed under the Creative Commons
# Attribution-NonCommercial-ShareAlike 4.0 International License.
# To view a copy of this license, visit
# http://creativecommons.org/licenses/by-nc-sa/4.0/
# or send a letter to
# Creative Commons, PO Box 1866, Mountain View, CA 94042, USA.
#
# CIF created using the CSD Python API on 29 September 2022
# The structure has been converted into the P1 space group
# The structure has a 3D framework
# The original CSD entry EHAGOL is in the triclinic crystal system
# The framework has been calculated to contain at least 10.0% void space
# The void calculation uses a probe of radius 1.32A, grid spacing 0.4
#
###############################################################################

data_EHAGOL
_chemical_formula_moiety         '(C30 H26 O36 Tb2 U4)n'
_symmetry_cell_setting           triclinic
_symmetry_space_group_name_H-M   'P 1'
_symmetry_Int_Tables_number      1
_space_group_name_Hall           'P 1'
loop_
_symmetry_equiv_pos_site_id
_symmetry_equiv_pos_as_xyz
1 x,y,z
_cell_length_a                   10.5675(11)
_cell_length_b                   11.5148(12)
_cell_length_c                   13.4306(14)
_cell_angle_alpha                69.151(2)
_cell_angle_beta                 78.569(2)
_cell_angle_gamma                63.2280(10)
_cell_volume                     1362.14
loop_
_atom_site_label
_atom_site_type_symbol
_atom_site_fract_x
_atom_site_fract_y
_atom_site_fract_z
O11 O 0.3245(4) 0.1978(5) 0.0528(3)
U7 U 0.37572(2) 0.28697(2) 0.163827(18)
U2 U 0.0000 0.5000 0.5000
O3 O 0.0666(5) 0.5003(5) 0.6107(4)
O9 O 0.5038(5) 0.0768(5) 0.7543(4)
O10 O 0.4823(5) 0.1766(5) 0.9178(4)
C2 C 0.1116(7) 0.3126(7) 0.9088(5)
H11 H 0.0965 0.3585 0.9577
C3 C 0.2461(6) 0.2155(6) 0.8949(5)
C4 C 0.2664(6) 0.1424(6) 0.8240(5)
C5 C 0.1488(6) 0.1659(7) 0.7748(5)
H12 H 0.1601 0.1118 0.7334
C6 C 0.0158(6) 0.2671(6) 0.7856(5)
C11 C 0.3614(6) 0.1948(6) 0.9566(5)
C12 C 0.4082(6) 0.0392(6) 0.7983(5)
Tb3 Tb 0.60045(3) 0.22954(3) 0.75007(2)
O41 O 0.1127(4) 0.6367(4) 0.3735(3)
O50 O 0.2662(5) 0.3660(5) 0.4660(5)
O51 O 0.1362(5) 0.2514(5) 0.5220(4)
O8 O 0.4179(5) 0.9200(4) 0.8209(4)
U5 U 0.62428(2) 0.71303(2) 0.836173(18)
O21 O 0.4986(5) 0.3031(5) 0.2824(3)
O22 O 0.5895(6) 0.2969(5) 0.4191(4)
C16 C 0.3728(7) 0.0011(7) 0.5501(5)
H14 H 0.2866 0.0019 0.5836
C17 C 0.3828(7) 0.1245(6) 0.4950(5)
C18 C 0.5119(7) 0.1230(6) 0.4436(5)
C19 C 0.5330(7) 0.2511(7) 0.3780(5)
C20 C 0.2558(7) 0.2535(7) 0.4934(5)
Tb2 Tb 0.39955(3) 0.77046(3) 0.24993(2)
O25 O 0.4671(5) 0.3655(5) 0.0563(4)
O26 O 0.2810(5) 0.2117(5) 0.2693(4)
O27 O 0.1485(5) 0.4639(5) 0.0869(4)
O28 O 0.2370(5) 0.5046(5) 0.1984(4)
O29 O 0.1823(5) 0.7670(5) 0.2294(4)
O35 O 0.2815(6) 0.8502(5) 0.3941(4)
H15 H 0.3281 0.8225 0.4533
H16 H 0.1894 0.9091 0.3905
O36 O 0.3920(5) 0.5773(5) 0.3938(4)
H17 H 0.4717 0.5134 0.4275
H18 H 0.3094 0.5687 0.4146
O37 O 0.6322(6) 0.6232(7) 0.3184(6)
H19 H 0.6455 0.5463 0.3732
H20 H 0.7059 0.6452 0.2892
O38 O 0.4758(7) 0.5887(6) 0.1741(5)
H21 H 0.5618 0.5188 0.1878
H22 H 0.4182 0.5904 0.1318
O39 O 0.2328(5) 0.9902(5) 0.1614(4)
C21 C 0.0017(6) 0.6567(6) 0.1487(5)
C27 C 0.1357(7) 0.5373(7) 0.1433(5)
C30 C 0.1034(6) 0.7089(6) 0.2759(5)
O43 O 0.5821(5) 0.0800(4) 0.1791(4)
O45 O 0.4962(5) 0.9232(5) 0.2457(4)
O47 O 0.5177(5) 0.8234(5) 0.0822(4)
U2_2 U 1.0000 0.5000 0.5000
O1 O 0.5329(5) 0.6345(5) 0.9437(4)
O2 O 0.7190(5) 0.7883(5) 0.7307(4)
O4 O 0.8515(5) 0.5361(5) 0.9131(4)
O5 O 0.7630(5) 0.4954(5) 0.8016(4)
O6 O 0.8177(5) 0.2330(5) 0.7706(4)
O7 O 0.8873(4) 0.3633(4) 0.6265(3)
O12 O 0.5014(5) 0.6969(5) 0.7176(3)
O13 O 0.4105(6) 0.7031(5) 0.5809(4)
O14 O 0.7338(5) 0.6340(5) 0.5340(5)
O15 O 0.8638(5) 0.7486(5) 0.4780(4)
O16 O 0.7185(6) 0.1498(5) 0.6059(4)
H1 H 0.6719 0.1775 0.5467
H2 H 0.8106 0.0909 0.6095
O17 O 0.6080(5) 0.4227(5) 0.6062(4)
H3 H 0.5283 0.4866 0.5725
H4 H 0.6906 0.4313 0.5854
O18 O 0.3678(6) 0.3768(7) 0.6816(6)
H5 H 0.3545 0.4537 0.6268
H6 H 0.2941 0.3548 0.7108
O19 O 0.5242(7) 0.4113(6) 0.8259(5)
H7 H 0.4382 0.4812 0.8122
H8 H 0.5818 0.4096 0.8682
O20 O 0.7672(5) 0.0098(5) 0.8386(4)
C1 C 0.9983(6) 0.3433(6) 0.8513(5)
C7 C 0.6272(7) 0.9989(7) 0.4499(5)
H13 H 0.7134 0.9981 0.4164
C8 C 0.6172(7) 0.8755(6) 0.5050(5)
C9 C 0.4881(7) 0.8770(6) 0.5564(5)
C10 C 0.8643(7) 0.4627(7) 0.8567(5)
C13 C 0.8966(6) 0.2911(6) 0.7241(5)
C14 C 0.4670(7) 0.7489(7) 0.6220(5)
C15 C 0.7442(7) 0.7465(7) 0.5066(5)
O40 O 0.9334(5) 0.4997(5) 0.3893(4)
O49 O 0.6755(4) 0.8022(5) 0.9472(3)
C22 C 0.8884(7) 0.6874(7) 0.0912(5)
H25 H 0.9035 0.6415 0.0423
C23 C 0.7539(6) 0.7845(6) 0.1051(5)
C24 C 0.7336(6) 0.8576(6) 0.1760(5)
C25 C 0.8512(6) 0.8341(7) 0.2252(5)
H26 H 0.8399 0.8882 0.2666
C26 C 0.9842(6) 0.7329(6) 0.2144(5)
C28 C 0.6386(6) 0.8052(6) 0.0434(5)
C29 C 0.5918(6) 0.9608(6) 0.2017(5)
H23 H 0.2566 0.0617 0.1386
H24 H 0.1457 0.0025 0.1506
H9 H 0.7434 0.9383 0.8614
H10 H 0.8543 0.9975 0.8494
loop_
_geom_bond_atom_site_label_1
_geom_bond_atom_site_label_2
_geom_bond_site_symmetry_1
_geom_bond_site_symmetry_2
U7 O11 1_555 1_555
U2 O3 1_555 1_555
O9 C12 1_555 1_555
O10 C11 1_555 1_555
C2 H11 1_555 1_555
C3 C2 1_555 1_555
C4 C3 1_555 1_555
C5 C4 1_555 1_555
H12 C5 1_555 1_555
C11 C3 1_555 1_555
C12 C4 1_555 1_555
Tb3 O9 1_555 1_555
O41 U2 1_555 1_555
O50 U2 1_555 1_555
O51 U2 1_555 1_555
O10 Tb3 1_555 1_555
C5 C6 1_555 1_555
U5 O8 1_555 1_555
O21 C19 1_555 1_555
O22 C19 1_555 1_555
O50 C20 1_555 1_555
O51 C20 1_555 1_555
H14 C16 1_555 1_555
C17 C16 1_555 1_555
C19 C18 1_555 1_555
C20 C17 1_555 1_555
U7 O21 1_555 1_555
Tb2 O29 1_555 1_555
O25 U7 1_555 1_555
O26 U7 1_555 1_555
O27 U7 1_555 1_555
O28 U7 1_555 1_555
O29 C30 1_555 1_555
O41 C30 1_555 1_555
O35 Tb2 1_555 1_555
H15 O35 1_555 1_555
H16 O35 1_555 1_555
O36 Tb2 1_555 1_555
H17 O36 1_555 1_555
H18 O36 1_555 1_555
O37 Tb2 1_555 1_555
H19 O37 1_555 1_555
H20 O37 1_555 1_555
O38 Tb2 1_555 1_555
H21 O38 1_555 1_555
H22 O38 1_555 1_555
O39 Tb2 1_555 1_555
C27 O27 1_555 1_555
O43 U7 1_555 1_555
O45 Tb2 1_555 1_555
O47 Tb2 1_555 1_555
C17 C18 1_555 1_555
O28 C27 1_555 1_555
C21 C27 1_555 1_555
U5 O1 1_555 1_555
Tb3 O6 1_555 1_555
O2 U5 1_555 1_555
O4 U5 1_555 1_555
O5 U5 1_555 1_555
O6 C13 1_555 1_555
O7 U2_2 1_555 1_555
O12 U5 1_555 1_555
O13 C14 1_555 1_555
O14 U2_2 1_555 1_555
O15 U2_2 1_555 1_555
O16 Tb3 1_555 1_555
H1 O16 1_555 1_555
H2 O16 1_555 1_555
O17 Tb3 1_555 1_555
H3 O17 1_555 1_555
H4 O17 1_555 1_555
O18 Tb3 1_555 1_555
H5 O18 1_555 1_555
H6 O18 1_555 1_555
O19 Tb3 1_555 1_555
H7 O19 1_555 1_555
H8 O19 1_555 1_555
O20 Tb3 1_555 1_555
C7 H13 1_555 1_555
C8 C7 1_555 1_555
C9 C8 1_555 1_555
C10 O4 1_555 1_555
C13 O7 1_555 1_555
C14 O12 1_555 1_555
C15 O14 1_555 1_555
O40 U2_2 1_555 1_555
O49 U5 1_555 1_555
O5 C10 1_555 1_555
O15 C15 1_555 1_555
C1 C10 1_555 1_555
C8 C15 1_555 1_555
C9 C14 1_555 1_555
O45 C29 1_555 1_555
O47 C28 1_555 1_555
C22 H25 1_555 1_555
C23 C22 1_555 1_555
C24 C23 1_555 1_555
C25 C24 1_555 1_555
H26 C25 1_555 1_555
C28 C23 1_555 1_555
C29 C24 1_555 1_555
C25 C26 1_555 1_555

#END
