
###############################################################################
#
# This file contains modified crystal structure data generated from the
# MOF subset of the Cambridge Structural Database (CSD) v543 
# hosted by the Cambridge Crystallographic Data Centre (CCDC).
#
# This work is licensed under the Creative Commons
# Attribution-NonCommercial-ShareAlike 4.0 International License.
# To view a copy of this license, visit
# http://creativecommons.org/licenses/by-nc-sa/4.0/
# or send a letter to
# Creative Commons, PO Box 1866, Mountain View, CA 94042, USA.
#
# CIF created using the CSD Python API on 29 September 2022
# The structure has been converted into the P1 space group
# The structure has a 3D framework
# The original CSD entry EHAGAX is in the triclinic crystal system
# The framework has been calculated to contain at least 10.0% void space
# The void calculation uses a probe of radius 1.32A, grid spacing 0.4
#
###############################################################################

data_EHAGAX
_chemical_formula_moiety         '(C32 H26 O36 Sm2 U4)n'
_symmetry_cell_setting           triclinic
_symmetry_space_group_name_H-M   'P 1'
_symmetry_Int_Tables_number      1
_space_group_name_Hall           'P 1'
loop_
_symmetry_equiv_pos_site_id
_symmetry_equiv_pos_as_xyz
1 x,y,z
_cell_length_a                   10.6700(7)
_cell_length_b                   11.4911(8)
_cell_length_c                   13.4448(11)
_cell_angle_alpha                69.159(7)
_cell_angle_beta                 78.913(6)
_cell_angle_gamma                63.132(7)
_cell_volume                     1373.32
loop_
_atom_site_label
_atom_site_type_symbol
_atom_site_fract_x
_atom_site_fract_y
_atom_site_fract_z
O11 O 0.3240(8) 0.2011(8) 0.0520(6)
U7 U 0.37325(4) 0.28976(4) 0.16387(3)
U2 U -0.0000 0.5000 0.5000
C1 C 0.0024(11) 0.3407(11) 0.8508(8)
C2 C 0.1143(10) 0.3137(11) 0.9083(8)
H1 H 0.0990 0.3603 0.9567
C3 C 0.2492(11) 0.2165(11) 0.8925(8)
C4 C 0.2695(11) 0.1405(10) 0.8249(8)
C5 C 0.1533(10) 0.1615(11) 0.7751(8)
H2 H 0.1653 0.1058 0.7349
C6 C 0.0209(11) 0.2639(10) 0.7847(8)
C11 C 0.3612(10) 0.1949(10) 0.9579(8)
C12 C 0.4104(10) 0.0381(11) 0.7997(8)
O3 O 0.0703(8) 0.5019(8) 0.6090(6)
O9 O 0.5040(8) 0.0719(9) 0.7569(7)
O10 O 0.4818(8) 0.1746(9) 0.9189(6)
Sm3 Sm 0.60537(6) 0.22611(6) 0.75293(5)
O41 O 0.1086(7) 0.6387(8) 0.3740(6)
O50 O 0.2639(8) 0.3672(8) 0.4644(8)
O51 O 0.1374(8) 0.2501(8) 0.5214(7)
O8 O 0.4197(7) 0.9171(8) 0.8220(6)
U5 U 0.62675(4) 0.71024(4) 0.83613(3)
C7 C 0.6255(12) 0.0000(11) 0.4501(8)
C16 C 0.3745(12) 0.0000(11) 0.5499(8)
H14 H 0.2902 0.0001 0.5846
C17 C 0.3814(11) 0.1253(11) 0.4929(8)
C18 C 0.5100(10) 0.1250(10) 0.4436(8)
C19 C 0.5287(10) 0.2551(10) 0.3788(8)
C20 C 0.2537(12) 0.2537(12) 0.4901(9)
O21 O 0.4941(7) 0.3056(7) 0.2831(6)
O22 O 0.5844(9) 0.2987(8) 0.4213(7)
Sm2 Sm 0.39463(6) 0.77389(6) 0.24707(5)
C27 C 0.1332(12) 0.5374(12) 0.1428(9)
C30 C 0.0972(10) 0.7132(10) 0.2758(8)
O25 O 0.4600(8) 0.3687(8) 0.0574(6)
O26 O 0.2816(8) 0.2126(8) 0.2692(6)
O27 O 0.1464(9) 0.4656(9) 0.0872(7)
O28 O 0.2326(8) 0.5074(8) 0.1992(7)
O29 O 0.1753(8) 0.7715(8) 0.2309(6)
O36 O 0.4775(13) 0.5849(11) 0.1730(8)
H19 H 0.5626 0.5149 0.1893
H20 H 0.4231 0.5851 0.1293
O37 O 0.6302(10) 0.6194(11) 0.3229(10)
H21 H 0.6823 0.5411 0.3064
H22 H 0.6636 0.6418 0.3667
O38 O 0.3884(9) 0.5774(8) 0.3935(7)
H23 H 0.4674 0.5136 0.4277
H24 H 0.3068 0.5686 0.4137
O39 O 0.2817(10) 0.8545(9) 0.3948(7)
H25 H 0.3297 0.8246 0.4536
H26 H 0.1908 0.9147 0.3920
O43 O 0.5803(7) 0.0829(8) 0.1780(6)
O45 O 0.4960(8) 0.9281(9) 0.2431(7)
O47 O 0.5182(8) 0.8254(9) 0.0811(6)
U2_2 U 1.0000 0.5000 0.5000
C7_2 C 0.6255(12) 1.0000(11) 0.4501(8)
H3 H 0.7098 0.9999 0.4154
C8 C 0.6186(11) 0.8747(11) 0.5071(8)
C9 C 0.4900(10) 0.8750(10) 0.5564(8)
C10 C 0.8668(12) 0.4626(12) 0.8572(9)
C13 C 0.9028(10) 0.2868(10) 0.7242(8)
C14 C 0.4713(10) 0.7449(10) 0.6212(8)
C15 C 0.7463(12) 0.7463(12) 0.5099(9)
O1 O 0.5400(8) 0.6313(8) 0.9426(6)
O2 O 0.7184(8) 0.7874(8) 0.7308(6)
O4 O 0.8536(9) 0.5344(9) 0.9128(7)
O5 O 0.7674(8) 0.4926(8) 0.8008(7)
O6 O 0.8247(8) 0.2285(8) 0.7691(6)
O7 O 0.8914(7) 0.3613(8) 0.6260(6)
O12 O 0.5059(7) 0.6944(7) 0.7169(6)
O13 O 0.4156(9) 0.7013(8) 0.5787(7)
O14 O 0.7361(8) 0.6328(8) 0.5356(8)
O15 O 0.8626(8) 0.7499(8) 0.4786(7)
O17 O 0.5225(13) 0.4151(11) 0.8270(8)
H6 H 0.4374 0.4851 0.8107
H7 H 0.5769 0.4149 0.8707
O18 O 0.3698(10) 0.3806(11) 0.6771(10)
H8 H 0.3177 0.4589 0.6936
H9 H 0.3364 0.3582 0.6333
O19 O 0.6116(9) 0.4226(8) 0.6065(7)
H10 H 0.5326 0.4864 0.5723
H11 H 0.6932 0.4314 0.5863
O20 O 0.7183(10) 0.1455(9) 0.6052(7)
H12 H 0.6703 0.1754 0.5464
H13 H 0.8092 0.0853 0.6080
C16_2 C 0.3745(12) 1.0000(11) 0.5499(8)
O40 O 0.9297(8) 0.4981(8) 0.3910(6)
O49 O 0.6760(8) 0.7989(8) 0.9480(6)
C21 C 0.9976(11) 0.6593(11) 0.1492(8)
C22 C 0.8857(10) 0.6863(11) 0.0917(8)
H15 H 0.9010 0.6397 0.0433
C23 C 0.7508(11) 0.7835(11) 0.1075(8)
C24 C 0.7305(11) 0.8595(10) 0.1751(8)
C25 C 0.8467(10) 0.8385(11) 0.2249(8)
H16 H 0.8347 0.8942 0.2651
C26 C 0.9791(11) 0.7361(10) 0.2153(8)
C28 C 0.6388(10) 0.8051(10) 0.0421(8)
C29 C 0.5896(10) 0.9619(11) 0.2003(8)
O35 O 0.2236(9) 0.0009(9) 0.1626(8)
H17 H 0.2446 0.0734 0.1462
H18 H 0.1392 0.0134 0.1471
O16 O 0.7764(9) 0.9991(9) 0.8374(8)
H4 H 0.7554 0.9266 0.8538
H5 H 0.8608 0.9866 0.8529
loop_
_geom_bond_atom_site_label_1
_geom_bond_atom_site_label_2
_geom_bond_site_symmetry_1
_geom_bond_site_symmetry_2
U7 O11 1_555 1_555
U2 O3 1_555 1_555
C1 C2 1_555 1_555
C2 H1 1_555 1_555
C3 C2 1_555 1_555
C4 C3 1_555 1_555
C5 C4 1_555 1_555
H2 C5 1_555 1_555
C6 C1 1_555 1_555
C11 C3 1_555 1_555
C12 C4 1_555 1_555
O9 C12 1_555 1_555
O10 C11 1_555 1_555
Sm3 O9 1_555 1_555
O41 U2 1_555 1_555
O50 U2 1_555 1_555
O51 U2 1_555 1_555
C5 C6 1_555 1_555
O10 Sm3 1_555 1_555
U5 O8 1_555 1_555
H14 C16 1_555 1_555
C17 C16 1_555 1_555
C18 C7 1_555 1_555
C19 C18 1_555 1_555
C20 C17 1_555 1_555
O21 C19 1_555 1_555
O22 C19 1_555 1_555
O50 C20 1_555 1_555
O51 C20 1_555 1_555
U7 O21 1_555 1_555
Sm2 O29 1_555 1_555
O25 U7 1_555 1_555
O26 U7 1_555 1_555
O27 U7 1_555 1_555
O28 U7 1_555 1_555
O29 C30 1_555 1_555
O41 C30 1_555 1_555
O36 Sm2 1_555 1_555
H19 O36 1_555 1_555
H20 O36 1_555 1_555
O37 Sm2 1_555 1_555
H21 O37 1_555 1_555
H22 O37 1_555 1_555
O38 Sm2 1_555 1_555
H23 O38 1_555 1_555
H24 O38 1_555 1_555
O39 Sm2 1_555 1_555
H25 O39 1_555 1_555
H26 O39 1_555 1_555
O43 U7 1_555 1_555
O45 Sm2 1_555 1_555
O47 Sm2 1_555 1_555
C17 C18 1_555 1_555
C27 O27 1_555 1_555
C27 O28 1_555 1_555
U5 O1 1_555 1_555
Sm3 O6 1_555 1_555
C7_2 H3 1_555 1_555
C8 C7_2 1_555 1_555
C9 C8 1_555 1_555
C14 C9 1_555 1_555
C15 C8 1_555 1_555
O2 U5 1_555 1_555
O4 U5 1_555 1_555
O5 U5 1_555 1_555
O6 C13 1_555 1_555
O7 U2_2 1_555 1_555
O12 U5 1_555 1_555
O13 C14 1_555 1_555
O14 U2_2 1_555 1_555
O15 U2_2 1_555 1_555
O17 Sm3 1_555 1_555
H6 O17 1_555 1_555
H7 O17 1_555 1_555
O18 Sm3 1_555 1_555
H8 O18 1_555 1_555
H9 O18 1_555 1_555
O19 Sm3 1_555 1_555
H10 O19 1_555 1_555
H11 O19 1_555 1_555
O20 Sm3 1_555 1_555
H12 O20 1_555 1_555
H13 O20 1_555 1_555
C16_2 C9 1_555 1_555
O40 U2_2 1_555 1_555
O49 U5 1_555 1_555
C10 O4 1_555 1_555
C10 O5 1_555 1_555
C13 O7 1_555 1_555
C14 O12 1_555 1_555
C15 O14 1_555 1_555
C15 O15 1_555 1_555
C21 C22 1_555 1_555
C22 H15 1_555 1_555
C23 C22 1_555 1_555
C24 C23 1_555 1_555
C25 C24 1_555 1_555
H16 C25 1_555 1_555
C26 C21 1_555 1_555
C28 C23 1_555 1_555
C29 C24 1_555 1_555
O45 C29 1_555 1_555
O47 C28 1_555 1_555
C25 C26 1_555 1_555
H17 O35 1_555 1_555
H18 O35 1_555 1_555
H4 O16 1_555 1_555
H5 O16 1_555 1_555

#END
