
###############################################################################
#
# This file contains modified crystal structure data generated from the
# MOF subset of the Cambridge Structural Database (CSD) v543 
# hosted by the Cambridge Crystallographic Data Centre (CCDC).
#
# This work is licensed under the Creative Commons
# Attribution-NonCommercial-ShareAlike 4.0 International License.
# To view a copy of this license, visit
# http://creativecommons.org/licenses/by-nc-sa/4.0/
# or send a letter to
# Creative Commons, PO Box 1866, Mountain View, CA 94042, USA.
#
# CIF created using the CSD Python API on 29 September 2022
# The structure has been converted into the P1 space group
# The structure has a 3D framework
# The original CSD entry EHELOV is in the monoclinic crystal system
# The framework has been calculated to contain at least 10.0% void space
# The void calculation uses a probe of radius 1.32A, grid spacing 0.4
#
###############################################################################

data_EHELOV
_chemical_formula_moiety         '(C108 H84 N24 Ni13 O36 14+)n'
_symmetry_cell_setting           triclinic
_symmetry_space_group_name_H-M   'P 1'
_symmetry_Int_Tables_number      1
_space_group_name_Hall           'P 1'
loop_
_symmetry_equiv_pos_site_id
_symmetry_equiv_pos_as_xyz
1 x,y,z
_cell_length_a                   10.144(2)
_cell_length_b                   26.077(5)
_cell_length_c                   15.602(3)
_cell_angle_alpha                90
_cell_angle_beta                 101.362(7)
_cell_angle_gamma                90
_cell_volume                     4046.24
loop_
_atom_site_label
_atom_site_type_symbol
_atom_site_fract_x
_atom_site_fract_y
_atom_site_fract_z
Ni1 Ni 0.20616(3) 0.19089(2) 0.79684(2)
Ni2 Ni 0.0000 0.0000 0.0000
O1 O 0.0074(2) 0.18620(8) 0.81493(14)
O2 O 0.0526(2) 0.22797(8) 0.70267(13)
O3 O 0.3027(2) 0.15047(9) 0.90355(15)
N1 N 0.1904(3) 0.12499(9) 0.71927(17)
N2 N 0.1588(3) 0.00603(10) 0.46276(17)
O7 O 0.1679(3) 0.04526(10) 0.0051(2)
C9 C 0.1865(3) 0.04125(11) 0.6077(2)
C12 C 0.2182(4) 0.03527(12) 0.6978(2)
H4 H 0.2386 0.0030 0.7223
C17 C 0.1570(4) 0.09024(12) 0.5746(2)
H7 H 0.1362 0.0958 0.5146
C18 C 0.1591(4) 0.13042(12) 0.6317(2)
H8 H 0.1379 0.1630 0.6089
C19 C 0.1092(4) 0.02189(13) 0.2815(2)
H9 H 0.1212 0.0504 0.3180
C22 C 0.2193(4) 0.07788(12) 0.7510(2)
H11 H 0.2410 0.0735 0.8113
C23 C 0.0740(5) 0.02746(13) 0.1922(2)
H12 H 0.0638 0.0605 0.1694
H17 H 0.381(2) 0.1565(16) 0.915(3)
H19 H 0.263(4) 0.1507(17) 0.945(2)
H21 H 0.152(7) 0.0739(11) 0.013(5)
N13 N 0.2308(3) 0.26211(9) 0.86113(16)
O19 O 0.3731(2) 0.20888(9) 0.75101(15)
Ni2_2 Ni 0.0000 1.0000 0.0000
C2 C 0.1593(3) 0.96454(11) 0.41224(19)
N3 N 0.1825(3) 0.91687(10) 0.44163(17)
N4 N 0.2067(3) 0.95059(10) 0.58462(17)
N5 N 0.0535(3) 0.98798(10) 0.13614(17)
C6 C 0.1265(3) 0.97259(11) 0.3162(2)
C7 C 0.2048(3) 0.91200(11) 0.5281(2)
C13 C 0.1846(3) 0.99660(11) 0.5484(2)
C14 C 0.1070(4) 0.93185(12) 0.2587(2)
H5 H 0.1195 0.8984 0.2794
C15 C 0.0690(4) 0.94095(12) 0.1707(2)
H6 H 0.0532 0.9130 0.1331
C20 C 0.2353(5) 0.85177(13) 0.6546(2)
H10 H 0.2274 0.8792 0.6914
C21 C 0.2271(4) 0.85982(11) 0.5660(2)
C24 C 0.2401(5) 0.81740(13) 0.5153(2)
H13 H 0.2352 0.8210 0.4554
C25 C 0.2604(5) 0.77005(12) 0.5537(2)
H14 H 0.2684 0.7420 0.5184
C26 C 0.2553(5) 0.80299(13) 0.6877(2)
H15 H 0.2594 0.7982 0.7473
N6 N 0.2692(3) 0.76211(9) 0.63887(16)
H39 H 0.191(2) 0.940(2) 0.002(4)
Ni5 Ni 0.29384(3) 0.69089(2) 0.70316(2)
Ni2_3 Ni 1.0000 0.0000 0.0000
C1 C 0.8272(3) 0.23138(11) 0.7263(2)
O4 O 0.7097(3) 0.35649(9) 0.55732(17)
O5 O 0.8876(3) 0.06271(9) 0.01923(18)
C3 C 0.9694(3) 0.21377(11) 0.74939(19)
C4 C 0.7915(3) 0.27240(11) 0.6684(2)
H1 H 0.8563 0.2879 0.6425
O6 O 0.5036(3) 0.35181(11) 0.5822(2)
C5 C 0.5627(3) 0.26560(12) 0.6867(2)
H2 H 0.4739 0.2766 0.6731
C8 C 0.6596(3) 0.28994(11) 0.64953(19)
C10 C 0.7302(3) 0.20824(12) 0.7645(2)
H3 H 0.7541 0.1815 0.8040
C11 C 0.5978(3) 0.22466(12) 0.7445(2)
C16 C 0.6206(3) 0.33606(12) 0.5911(2)
C27 C 0.4918(3) 0.19983(13) 0.7867(2)
O8 O 0.5292(3) 0.17372(17) 0.8533(3)
H16 H 0.919(6) 0.0897(13) 0.037(4)
H2_2 H 0.0261 0.7766 0.8269
C27_2 C 0.0082(3) 0.69983(13) 0.7133(2)
O9 O 0.1269(2) 0.70888(9) 0.74899(15)
O1_2 O 0.4926(2) 0.68620(8) 0.68507(14)
O2_2 O 0.4474(2) 0.72797(8) 0.79733(13)
O3_2 O 0.1973(2) 0.65047(9) 0.59645(15)
N1_2 N 0.3096(3) 0.62499(9) 0.78073(17)
C1_2 C 0.6728(3) 0.73138(11) 0.7737(2)
O4_2 O 0.7903(3) 0.85649(9) 0.94268(17)
N4_2 N 0.2933(3) 0.45059(10) 0.91538(17)
C3_2 C 0.5306(3) 0.71377(11) 0.75061(19)
C4_2 C 0.7085(3) 0.77240(11) 0.8316(2)
H1_2 H 0.6437 0.7879 0.8575
O6_2 O 0.9964(3) 0.85181(11) 0.9178(2)
C5_2 C 0.9373(3) 0.76560(12) 0.8133(2)
C7_2 C 0.2952(3) 0.41200(11) 0.9719(2)
C8_2 C 0.8404(3) 0.78994(11) 0.85047(19)
C9_2 C 0.3135(3) 0.54125(11) 0.8923(2)
C10_2 C 0.7698(3) 0.70824(12) 0.7355(2)
H3_2 H 0.7459 0.6815 0.6960
C11_2 C 0.9022(3) 0.72466(12) 0.7555(2)
C12_2 C 0.2818(4) 0.53527(12) 0.8022(2)
H4_2 H 0.2614 0.5030 0.7777
C13_2 C 0.3154(3) 0.49660(11) 0.9516(2)
C16_2 C 0.8794(3) 0.83606(12) 0.9089(2)
C17_2 C 0.3430(4) 0.59024(12) 0.9254(2)
H7_2 H 0.3638 0.5958 0.9854
C18_2 C 0.3409(4) 0.63042(12) 0.8683(2)
H8_2 H 0.3621 0.6630 0.8911
C20_2 C 0.2647(5) 0.35177(13) 0.8454(2)
H10_2 H 0.2726 0.3792 0.8086
C21_2 C 0.2729(4) 0.35982(11) 0.9340(2)
C22_2 C 0.2807(4) 0.57788(12) 0.7490(2)
H11_2 H 0.2590 0.5735 0.6887
C24_2 C 0.2599(5) 0.31740(13) 0.9847(2)
C25_2 C 0.2396(5) 0.27005(12) 0.9463(2)
H14_2 H 0.2316 0.2420 0.9816
C26_2 C 0.2447(5) 0.30299(13) 0.8123(2)
H15_2 H 0.2406 0.2982 0.7527
O8_2 O 0.9708(3) 0.67372(17) 0.6467(3)
H17_2 H 0.119(2) 0.6565(16) 0.585(3)
H19_2 H 0.237(4) 0.6507(17) 0.555(2)
Ni2_4 Ni 0.0000 -0.0000 1.0000
H20 H 0.234(5) 0.037(3) 0.991(6)
Ni2_5 Ni 0.0000 1.0000 1.0000
C28 C 0.1728(3) 0.76862(11) 0.2737(2)
O13 O 0.2903(3) 0.64351(9) 0.44268(17)
O14 O 0.1124(3) 0.93729(9) 0.98077(18)
C30 C 0.0306(3) 0.78623(11) 0.25061(19)
C31 C 0.2085(3) 0.72760(11) 0.3316(2)
H22 H 0.1437 0.7121 0.3575
O15 O 0.4964(3) 0.64819(11) 0.4178(2)
C32 C 0.4373(3) 0.73440(12) 0.3133(2)
H23 H 0.5261 0.7234 0.3269
C35 C 0.3404(3) 0.71006(11) 0.35047(19)
C37 C 0.2698(3) 0.79176(12) 0.2355(2)
H24 H 0.2459 0.8185 0.1960
C38 C 0.4022(3) 0.77534(12) 0.2555(2)
C43 C 0.3794(3) 0.66394(12) 0.4089(2)
C54 C 0.5082(3) 0.80017(13) 0.2133(2)
O17 O 0.4708(3) 0.82628(17) 0.1467(3)
O18 O 0.6269(2) 0.79112(9) 0.24899(15)
H37 H 0.081(6) 0.9103(13) 0.963(4)
Ni6 Ni 0.79384(3) 0.80911(2) 0.20316(2)
Ni2_6 Ni 1.0000 -0.0000 1.0000
H18 H 0.809(2) 0.060(2) 0.998(4)
C29 C 0.8407(3) 0.03546(11) 0.58776(19)
N9 N 0.8175(3) 0.08313(10) 0.55837(17)
N10 N 0.7933(3) 0.04941(10) 0.41538(17)
N11 N 0.9465(3) 0.01202(10) 0.86386(17)
C33 C 0.8735(3) 0.02741(11) 0.6838(2)
C34 C 0.7952(3) 0.08800(11) 0.4719(2)
C40 C 0.8154(3) 0.00340(11) 0.4516(2)
C41 C 0.8930(4) 0.06815(12) 0.7413(2)
H26 H 0.8805 0.1016 0.7206
C42 C 0.9310(4) 0.05905(12) 0.8293(2)
H27 H 0.9468 0.0870 0.8669
C47 C 0.7647(5) 0.14823(13) 0.3454(2)
H31 H 0.7726 0.1208 0.3086
C48 C 0.7729(4) 0.14018(11) 0.4340(2)
C51 C 0.7599(5) 0.18260(13) 0.4847(2)
H34 H 0.7648 0.1790 0.5446
C52 C 0.7396(5) 0.22995(12) 0.4463(2)
H35 H 0.7316 0.2580 0.4816
C53 C 0.7447(5) 0.19701(13) 0.3123(2)
H36 H 0.7406 0.2018 0.2527
N12 N 0.7308(3) 0.23789(9) 0.36113(16)
Ni7 Ni 0.70616(3) 0.30911(2) 0.29684(2)
Ni2_7 Ni 1.0000 1.0000 1.0000
O10 O 0.9926(2) 0.81380(8) 0.18507(14)
O11 O 0.9474(2) 0.77203(8) 0.29733(13)
O12 O 0.6973(2) 0.84953(9) 0.09645(15)
N7 N 0.8096(3) 0.87501(9) 0.28073(17)
N8 N 0.8412(3) 0.99397(10) 0.53724(17)
O16 O 0.8321(3) 0.95474(10) 0.9949(2)
C36 C 0.8135(3) 0.95875(11) 0.3923(2)
C39 C 0.7818(4) 0.96473(12) 0.3022(2)
H25 H 0.7614 0.9970 0.2777
C44 C 0.8430(4) 0.90976(12) 0.4254(2)
H28 H 0.8638 0.9042 0.4854
C45 C 0.8409(4) 0.86958(12) 0.3683(2)
H29 H 0.8621 0.8370 0.3911
C46 C 0.8908(4) 0.97811(13) 0.7185(2)
H30 H 0.8788 0.9496 0.6820
C49 C 0.7807(4) 0.92212(12) 0.2490(2)
H32 H 0.7590 0.9265 0.1887
C50 C 0.9260(5) 0.97254(13) 0.8078(2)
H33 H 0.9362 0.9395 0.8306
H38 H 0.619(2) 0.8435(16) 0.085(3)
H40 H 0.737(4) 0.8493(17) 0.055(2)
H42 H 0.848(7) 0.9261(11) 0.987(5)
N14 N 0.7692(3) 0.73789(9) 0.13887(16)
O10_2 O 0.5074(2) 0.31380(8) 0.31493(14)
O11_2 O 0.5526(2) 0.27203(8) 0.20267(13)
O12_2 O 0.8027(2) 0.34953(9) 0.40355(15)
N7_2 N 0.6904(3) 0.37501(9) 0.21927(17)
C28_2 C 0.3272(3) 0.26862(11) 0.2263(2)
O13_2 O 0.2097(3) 0.14351(9) 0.05732(17)
N10_2 N 0.7067(3) 0.54941(10) 0.08462(17)
C30_2 C 0.4694(3) 0.28623(11) 0.24939(19)
C31_2 C 0.2915(3) 0.22760(11) 0.1684(2)
H22_2 H 0.3563 0.2121 0.1425
O15_2 O 0.0036(3) 0.14819(11) 0.0822(2)
C32_2 C 0.0627(3) 0.23440(12) 0.1867(2)
C34_2 C 0.7048(3) 0.58800(11) 0.0281(2)
C35_2 C 0.1596(3) 0.21006(11) 0.14953(19)
C36_2 C 0.6865(3) 0.45875(11) 0.1077(2)
C37_2 C 0.2302(3) 0.29176(12) 0.2645(2)
H24_2 H 0.2541 0.3185 0.3040
C38_2 C 0.0978(3) 0.27534(12) 0.2445(2)
C39_2 C 0.7182(4) 0.46473(12) 0.1978(2)
H25_2 H 0.7386 0.4970 0.2223
C40_2 C 0.6846(3) 0.50340(11) 0.0484(2)
C43_2 C 0.1206(3) 0.16394(12) 0.0911(2)
C44_2 C 0.6570(4) 0.40976(12) 0.0746(2)
H28_2 H 0.6362 0.4042 0.0146
C45_2 C 0.6591(4) 0.36958(12) 0.1317(2)
H29_2 H 0.6379 0.3370 0.1089
C47_2 C 0.7353(5) 0.64823(13) 0.1546(2)
H31_2 H 0.7274 0.6208 0.1914
C48_2 C 0.7271(4) 0.64018(11) 0.0660(2)
C49_2 C 0.7193(4) 0.42212(12) 0.2510(2)
H32_2 H 0.7410 0.4265 0.3113
C51_2 C 0.7401(5) 0.68260(13) 0.0153(2)
C52_2 C 0.7604(5) 0.72995(12) 0.0537(2)
H35_2 H 0.7684 0.7580 0.0184
C53_2 C 0.7553(5) 0.69701(13) 0.1877(2)
H36_2 H 0.7594 0.7018 0.2473
O17_2 O 0.0292(3) 0.32628(17) 0.3533(3)
H38_2 H 0.881(2) 0.3435(16) 0.415(3)
H40_2 H 0.763(4) 0.3493(17) 0.445(2)
O20 O 0.8731(2) 0.29112(9) 0.25101(15)
H23_2 H 0.9739 0.2234 0.1731
C54_2 C 0.9918(3) 0.30017(13) 0.2867(2)
Ni2_8 Ni 1.0000 1.0000 0.0000
H41 H 0.766(5) 0.963(3) 0.009(6)
Ni2_9 Ni 0.5000 0.5000 0.5000
N2_2 N 0.3412(3) 0.50603(10) 0.03724(17)
C2_2 C 0.3407(3) 0.46454(11) 0.08776(19)
N3_2 N 0.3175(3) 0.41687(10) 0.05837(17)
O5_2 O 0.6124(3) 0.56271(9) 0.48077(18)
N5_2 N 0.4465(3) 0.48798(10) 0.36386(17)
C6_2 C 0.3735(3) 0.47259(11) 0.1838(2)
O7_2 O 0.3321(3) 0.54526(10) 0.4949(2)
C14_2 C 0.3930(4) 0.43185(12) 0.2413(2)
H5_2 H 0.3805 0.3984 0.2206
C15_2 C 0.4310(4) 0.44095(12) 0.3293(2)
H6_2 H 0.4468 0.4130 0.3669
C19_2 C 0.3908(4) 0.52189(13) 0.2185(2)
H9_2 H 0.3788 0.5504 0.1820
C23_2 C 0.4260(5) 0.52746(13) 0.3078(2)
H12_2 H 0.4362 0.5605 0.3306
H13_2 H 0.2648 0.3210 0.0446
H16_2 H 0.581(6) 0.5897(13) 0.463(4)
H18_2 H 0.691(2) 0.560(2) 0.502(4)
H20_2 H 0.266(5) 0.537(3) 0.509(6)
H21_2 H 0.348(7) 0.5739(11) 0.487(5)
N8_2 N 0.6588(3) 0.49397(10) 0.96276(17)
C29_2 C 0.6593(3) 0.53546(11) 0.91224(19)
N9_2 N 0.6825(3) 0.58313(10) 0.94163(17)
O14_2 O 0.3876(3) 0.43729(9) 0.51923(18)
N11_2 N 0.5535(3) 0.51202(10) 0.63614(17)
C33_2 C 0.6265(3) 0.52741(11) 0.8162(2)
O16_2 O 0.6679(3) 0.45474(10) 0.5051(2)
C41_2 C 0.6070(4) 0.56815(12) 0.7587(2)
H26_2 H 0.6195 0.6016 0.7794
C42_2 C 0.5690(4) 0.55905(12) 0.6707(2)
H27_2 H 0.5532 0.5870 0.6331
C46_2 C 0.6092(4) 0.47811(13) 0.7815(2)
H30_2 H 0.6212 0.4496 0.8180
C50_2 C 0.5740(5) 0.47254(13) 0.6922(2)
H33_2 H 0.5638 0.4395 0.6694
H34_2 H 0.7352 0.6790 0.9554
H37_2 H 0.419(6) 0.4103(13) 0.537(4)
H39_2 H 0.309(2) 0.440(2) 0.498(4)
H41_2 H 0.734(5) 0.463(3) 0.491(6)
H42_2 H 0.652(7) 0.4261(11) 0.513(5)
loop_
_geom_bond_atom_site_label_1
_geom_bond_atom_site_label_2
_geom_bond_site_symmetry_1
_geom_bond_site_symmetry_2
Ni1 O1 1_555 1_555
O2 Ni1 1_555 1_555
O3 Ni1 1_555 1_555
N1 Ni1 1_555 1_555
O7 Ni2 1_555 1_555
C9 C12 1_555 1_555
C12 H4 1_555 1_555
C17 C9 1_555 1_555
H7 C17 1_555 1_555
C18 N1 1_555 1_555
H8 C18 1_555 1_555
H9 C19 1_555 1_555
C22 N1 1_555 1_555
H11 C22 1_555 1_555
H12 C23 1_555 1_555
H17 O3 1_555 1_555
H19 O3 1_555 1_555
H21 O7 1_555 1_555
N13 Ni1 1_555 1_555
O19 Ni1 1_555 1_555
C12 C22 1_555 1_555
C17 C18 1_555 1_555
C19 C23 1_555 1_555
C2 N3 1_555 1_555
N3 C7 1_555 1_555
N4 C7 1_555 1_555
N5 Ni2_2 1_555 1_555
C6 C2 1_555 1_555
C7 C21 1_555 1_555
C14 C6 1_555 1_555
H5 C14 1_555 1_555
C15 N5 1_555 1_555
H6 C15 1_555 1_555
C20 H10 1_555 1_555
C21 C20 1_555 1_555
C24 C21 1_555 1_555
H13 C24 1_555 1_555
C25 C24 1_555 1_555
H14 C25 1_555 1_555
C26 C20 1_555 1_555
H15 C26 1_555 1_555
N6 C25 1_555 1_555
Ni5 N6 1_555 1_555
N4 C13 1_555 1_555
C14 C15 1_555 1_555
C26 N6 1_555 1_555
Ni2_3 O5 1_555 1_555
C1 C3 1_555 1_555
O4 C16 1_555 1_555
O5 H16 1_555 1_555
C4 C1 1_555 1_555
H1 C4 1_555 1_555
O6 C16 1_555 1_555
C5 H2 1_555 1_555
C8 C4 1_555 1_555
C10 C1 1_555 1_555
H3 C10 1_555 1_555
C11 C5 1_555 1_555
C16 C8 1_555 1_555
C27 C11 1_555 1_555
O8 C27 1_555 1_555
O19 C27 1_555 1_555
C5 C8 1_555 1_555
C10 C11 1_555 1_555
O9 C27_2 1_555 1_555
Ni5 O9 1_555 1_555
Ni5 O1_2 1_555 1_555
O1_2 C3_2 1_555 1_555
O2_2 Ni5 1_555 1_555
O3_2 Ni5 1_555 1_555
N1_2 Ni5 1_555 1_555
C1_2 C3_2 1_555 1_555
O4_2 C16_2 1_555 1_555
N4_2 C7_2 1_555 1_555
C3_2 O2_2 1_555 1_555
C4_2 C1_2 1_555 1_555
H1_2 C4_2 1_555 1_555
O6_2 C16_2 1_555 1_555
C7_2 C21_2 1_555 1_555
C8_2 C4_2 1_555 1_555
C9_2 C12_2 1_555 1_555
C10_2 C1_2 1_555 1_555
H3_2 C10_2 1_555 1_555
C11_2 C5_2 1_555 1_555
C12_2 H4_2 1_555 1_555
C16_2 C8_2 1_555 1_555
C17_2 C9_2 1_555 1_555
H7_2 C17_2 1_555 1_555
C18_2 N1_2 1_555 1_555
H8_2 C18_2 1_555 1_555
C20_2 H10_2 1_555 1_555
C21_2 C20_2 1_555 1_555
C22_2 N1_2 1_555 1_555
H11_2 C22_2 1_555 1_555
C24_2 C21_2 1_555 1_555
C25_2 C24_2 1_555 1_555
H14_2 C25_2 1_555 1_555
C26_2 C20_2 1_555 1_555
H15_2 C26_2 1_555 1_555
N13 C25_2 1_555 1_555
H17_2 O3_2 1_555 1_555
H19_2 O3_2 1_555 1_555
N4_2 C13_2 1_555 1_555
C5_2 C8_2 1_555 1_555
C9_2 C13_2 1_555 1_555
C10_2 C11_2 1_555 1_555
C12_2 C22_2 1_555 1_555
C17_2 C18_2 1_555 1_555
C26_2 N13 1_555 1_555
C28 C30 1_555 1_555
O13 C43 1_555 1_555
O14 Ni2_5 1_555 1_555
C31 C28 1_555 1_555
H22 C31 1_555 1_555
O15 C43 1_555 1_555
C32 H23 1_555 1_555
C35 C31 1_555 1_555
C37 C28 1_555 1_555
H24 C37 1_555 1_555
C38 C32 1_555 1_555
C43 C35 1_555 1_555
C54 C38 1_555 1_555
O17 C54 1_555 1_555
O18 C54 1_555 1_555
H37 O14 1_555 1_555
Ni6 O18 1_555 1_555
C32 C35 1_555 1_555
C37 C38 1_555 1_555
C29 N9 1_555 1_555
N9 C34 1_555 1_555
N10 C34 1_555 1_555
N11 Ni2_6 1_555 1_555
C33 C29 1_555 1_555
C34 C48 1_555 1_555
C41 C33 1_555 1_555
H26 C41 1_555 1_555
C42 N11 1_555 1_555
H27 C42 1_555 1_555
C47 H31 1_555 1_555
C48 C47 1_555 1_555
C51 C48 1_555 1_555
H34 C51 1_555 1_555
C52 C51 1_555 1_555
H35 C52 1_555 1_555
C53 C47 1_555 1_555
H36 C53 1_555 1_555
N12 C52 1_555 1_555
Ni7 N12 1_555 1_555
N10 C40 1_555 1_555
C41 C42 1_555 1_555
C53 N12 1_555 1_555
Ni6 O10 1_555 1_555
O11 Ni6 1_555 1_555
O12 Ni6 1_555 1_555
N7 Ni6 1_555 1_555
O16 Ni2_7 1_555 1_555
C36 C39 1_555 1_555
C39 H25 1_555 1_555
C44 C36 1_555 1_555
H28 C44 1_555 1_555
C45 N7 1_555 1_555
H29 C45 1_555 1_555
H30 C46 1_555 1_555
C49 N7 1_555 1_555
H32 C49 1_555 1_555
H33 C50 1_555 1_555
H38 O12 1_555 1_555
H40 O12 1_555 1_555
H42 O16 1_555 1_555
N14 Ni6 1_555 1_555
C39 C49 1_555 1_555
C44 C45 1_555 1_555
C46 C50 1_555 1_555
Ni7 O10_2 1_555 1_555
O10_2 C30_2 1_555 1_555
O11_2 Ni7 1_555 1_555
O12_2 Ni7 1_555 1_555
N7_2 Ni7 1_555 1_555
C28_2 C30_2 1_555 1_555
O13_2 C43_2 1_555 1_555
N10_2 C34_2 1_555 1_555
C30_2 O11_2 1_555 1_555
C31_2 C28_2 1_555 1_555
H22_2 C31_2 1_555 1_555
O15_2 C43_2 1_555 1_555
C34_2 C48_2 1_555 1_555
C35_2 C31_2 1_555 1_555
C36_2 C39_2 1_555 1_555
C37_2 C28_2 1_555 1_555
H24_2 C37_2 1_555 1_555
C38_2 C32_2 1_555 1_555
C39_2 H25_2 1_555 1_555
C43_2 C35_2 1_555 1_555
C44_2 C36_2 1_555 1_555
H28_2 C44_2 1_555 1_555
C45_2 N7_2 1_555 1_555
H29_2 C45_2 1_555 1_555
C47_2 H31_2 1_555 1_555
C48_2 C47_2 1_555 1_555
C49_2 N7_2 1_555 1_555
H32_2 C49_2 1_555 1_555
C51_2 C48_2 1_555 1_555
C52_2 C51_2 1_555 1_555
H35_2 C52_2 1_555 1_555
C53_2 C47_2 1_555 1_555
H36_2 C53_2 1_555 1_555
N14 C52_2 1_555 1_555
H38_2 O12_2 1_555 1_555
H40_2 O12_2 1_555 1_555
O20 Ni7 1_555 1_555
N10_2 C40_2 1_555 1_555
C32_2 C35_2 1_555 1_555
C36_2 C40_2 1_555 1_555
C37_2 C38_2 1_555 1_555
C39_2 C49_2 1_555 1_555
C44_2 C45_2 1_555 1_555
C53_2 N14 1_555 1_555
O20 C54_2 1_555 1_555
Ni2_9 O5_2 1_555 1_555
N2_2 C2_2 1_555 1_555
C2_2 N3_2 1_555 1_555
O5_2 H16_2 1_555 1_555
N5_2 Ni2_9 1_555 1_555
C6_2 C2_2 1_555 1_555
O7_2 Ni2_9 1_555 1_555
C14_2 C6_2 1_555 1_555
H5_2 C14_2 1_555 1_555
C15_2 N5_2 1_555 1_555
H6_2 C15_2 1_555 1_555
C19_2 C6_2 1_555 1_555
H9_2 C19_2 1_555 1_555
C23_2 N5_2 1_555 1_555
H12_2 C23_2 1_555 1_555
H18_2 O5_2 1_555 1_555
H20_2 O7_2 1_555 1_555
H21_2 O7_2 1_555 1_555
N8_2 C29_2 1_555 1_555
C29_2 N9_2 1_555 1_555
O14_2 Ni2_9 1_555 1_555
N11_2 Ni2_9 1_555 1_555
C33_2 C29_2 1_555 1_555
O16_2 Ni2_9 1_555 1_555
C41_2 C33_2 1_555 1_555
H26_2 C41_2 1_555 1_555
C42_2 N11_2 1_555 1_555
H27_2 C42_2 1_555 1_555
C46_2 C33_2 1_555 1_555
H30_2 C46_2 1_555 1_555
C50_2 N11_2 1_555 1_555
H33_2 C50_2 1_555 1_555
H37_2 O14_2 1_555 1_555
H39_2 O14_2 1_555 1_555
H41_2 O16_2 1_555 1_555
H42_2 O16_2 1_555 1_555
C14_2 C15_2 1_555 1_555
C19_2 C23_2 1_555 1_555
C41_2 C42_2 1_555 1_555
C46_2 C50_2 1_555 1_555

#END
