
###############################################################################
#
# This file contains modified crystal structure data generated from the
# MOF subset of the Cambridge Structural Database (CSD) v543 
# hosted by the Cambridge Crystallographic Data Centre (CCDC).
#
# This work is licensed under the Creative Commons
# Attribution-NonCommercial-ShareAlike 4.0 International License.
# To view a copy of this license, visit
# http://creativecommons.org/licenses/by-nc-sa/4.0/
# or send a letter to
# Creative Commons, PO Box 1866, Mountain View, CA 94042, USA.
#
# CIF created using the CSD Python API on 29 September 2022
# The structure has been converted into the P1 space group
# The structure has a 3D framework
# The original CSD entry EJANIO is in the triclinic crystal system
# The framework has been calculated to contain at least 10.0% void space
# The void calculation uses a probe of radius 1.32A, grid spacing 0.4
#
###############################################################################

data_EJANIO
_chemical_formula_moiety         '(C40 H28 Mn1 N4 O8)n'
_symmetry_cell_setting           triclinic
_symmetry_space_group_name_H-M   'P 1'
_symmetry_Int_Tables_number      1
_space_group_name_Hall           'P 1'
loop_
_symmetry_equiv_pos_site_id
_symmetry_equiv_pos_as_xyz
1 x,y,z
_cell_length_a                   9.296(6)
_cell_length_b                   10.188(7)
_cell_length_c                   12.034(8)
_cell_angle_alpha                95.769(9)
_cell_angle_beta                 99.637(3)
_cell_angle_gamma                115.673(8)
_cell_volume                     993.316
loop_
_atom_site_label
_atom_site_type_symbol
_atom_site_fract_x
_atom_site_fract_y
_atom_site_fract_z
_atom_site_U_iso_or_equiv
_atom_site_thermal_displace_type
H28 H 0.0445 0.1064 0.6905 0.0570 Uiso
Mn7 Mn 0.03592(5) 0.88358(4) 0.86789(3) 0.0299 Uani
O2 O 0.0794(3) 0.3548(2) 0.23683(19) 0.0439 Uani
O3 O 0.1610(3) 0.1745(2) 0.0526(2) 0.0421 Uani
C15 C 0.1375(4) 0.5139(4) 0.4620(3) 0.0512 Uani
H11 H 0.2302 0.5231 0.4370 0.0610 Uiso
C20 C 0.3987(4) 0.4681(3) 0.0776(3) 0.0404 Uani
H14 H 0.3316 0.4471 0.1294 0.0490 Uiso
O5 O 0.1577(3) 0.8147(2) 0.74113(19) 0.0440 Uani
C21 C 0.0341(4) 0.6889(3) 0.7098(2) 0.0371 Uani
C22 C 0.0171(4) 0.5896(3) 0.6019(3) 0.0393 Uani
C24 C 0.1550(4) 0.6043(4) 0.5635(3) 0.0537 Uani
H16 H 0.2590 0.6744 0.6054 0.0640 Uiso
C25 C 0.7646(3) 0.7971(3) 0.0257(2) 0.0323 Uani
C26 C 0.6282(4) 0.6424(3) 0.0129(2) 0.0334 Uani
C27 C 0.5270(4) 0.6107(3) 0.0903(3) 0.0396 Uani
H17 H 0.5452 0.6849 0.1506 0.0480 Uiso
O8 O 0.7908(3) 0.8909(2) 0.11363(18) 0.0405 Uani
H20 H 0.5377 0.0297 0.2016 0.0490 Uiso
H21 H 0.3874 0.0320 0.0314 0.0480 Uiso
H22 H 0.6624 0.0046 0.3593 0.0540 Uiso
C38 C 0.8532(4) 0.0358(4) 0.5567(3) 0.0514 Uani
H26 H 0.9019 0.1144 0.5201 0.0620 Uiso
C40 C 0.9388(4) 0.0302(4) 0.6597(3) 0.0477 Uani
N5 N 0.1224(3) 0.0795(3) 0.2821(2) 0.0396 Uani
N1 N 0.8154(3) 0.1492(3) 0.9774(2) 0.0372 Uani
C1 C 0.5484(4) 0.1661(4) 0.6576(3) 0.0451 Uani
H1 H 0.6054 0.2427 0.6216 0.0540 Uiso
C2 C 0.6361(4) 0.1601(4) 0.7687(3) 0.0410 Uani
C3 C 0.5688(4) 0.0458(4) 0.8279(3) 0.0407 Uani
C4 C 0.6605(4) 0.0449(4) 0.9302(3) 0.0403 Uani
C5 C 0.3942(4) 0.0713(4) 0.6040(3) 0.0449 Uani
C6 C 0.7963(4) 0.2703(4) 0.8191(3) 0.0502 Uani
H5 H 0.8462 0.3498 0.7836 0.0600 Uiso
C7 C 0.3696(4) 0.1879(4) 0.4312(3) 0.0512 Uani
H6 H 0.4752 0.2651 0.4599 0.0610 Uiso
C8 C 0.3051(4) 0.0749(4) 0.4929(3) 0.0415 Uani
C9 C 0.8798(4) 0.2606(4) 0.9214(3) 0.0480 Uani
H7 H 0.9862 0.3350 0.9532 0.0580 Uiso
C11 C 0.2766(4) 0.1848(4) 0.3281(3) 0.0495 Uani
H9 H 0.3236 0.2601 0.2881 0.0590 Uiso
Mn4 Mn 0.96408(5) 0.11642(4) 0.13211(3) 0.0299 Uani
C17 C 0.2354(3) 0.2029(3) 0.9743(2) 0.0323 Uani
C18 C 0.3718(4) 0.3576(3) 0.9871(2) 0.0334 Uani
C19 C 0.4730(4) 0.3893(3) 0.9097(3) 0.0396 Uani
H13 H 0.4548 0.3151 0.8494 0.0480 Uiso
O4 O 0.2092(3) 0.1091(2) 0.88637(18) 0.0405 Uani
O7 O 0.8390(3) 0.8255(2) 0.9474(2) 0.0421 Uani
C28 C 0.6013(4) 0.5319(3) 0.9224(3) 0.0404 Uani
H18 H 0.6684 0.5529 0.8706 0.0490 Uiso
N3 N 0.1846(3) 0.8508(3) 0.0226(2) 0.0372 Uani
C29 C 0.4516(4) 0.8339(4) 0.3424(3) 0.0451 Uani
H19 H 0.3946 0.7573 0.3784 0.0540 Uiso
C30 C 0.3639(4) 0.8399(4) 0.2313(3) 0.0410 Uani
C31 C 0.4312(4) 0.9542(4) 0.1721(3) 0.0407 Uani
C32 C 0.3395(4) 0.9551(4) 0.0698(3) 0.0403 Uani
C33 C 0.6058(4) 0.9287(4) 0.3960(3) 0.0449 Uani
C34 C 0.2037(4) 0.7297(4) 0.1809(3) 0.0502 Uani
H23 H 0.1538 0.6502 0.2164 0.0600 Uiso
C35 C 0.6304(4) 0.8121(4) 0.5688(3) 0.0512 Uani
H24 H 0.5248 0.7349 0.5401 0.0610 Uiso
C36 C 0.6949(4) 0.9251(4) 0.5071(3) 0.0415 Uani
C37 C 0.1202(4) 0.7394(4) 0.0786(3) 0.0480 Uani
H25 H 0.0138 0.6650 0.0468 0.0580 Uiso
N4 N 0.8776(3) 0.9205(3) 0.7179(2) 0.0396 Uani
C39 C 0.7234(4) 0.8152(4) 0.6719(3) 0.0495 Uani
H27 H 0.6764 0.7399 0.7119 0.0590 Uiso
O1 O 0.8423(3) 0.1853(2) 0.25887(19) 0.0440 Uani
C13 C 0.9659(4) 0.3111(3) 0.2902(2) 0.0371 Uani
C14 C 0.9829(4) 0.4104(3) 0.3981(3) 0.0393 Uani
C16 C 0.8450(4) 0.3957(4) 0.4365(3) 0.0537 Uani
H12 H 0.7410 0.3256 0.3946 0.0640 Uiso
O6 O 0.9206(3) 0.6452(2) 0.76317(19) 0.0439 Uani
C23 C 0.8625(4) 0.4861(4) 0.5380(3) 0.0512 Uani
H15 H 0.7698 0.4769 0.5630 0.0610 Uiso
H2 H 0.4623 0.9703 0.7984 0.0490 Uiso
H3 H 0.6126 0.9680 0.9686 0.0480 Uiso
H4 H 0.3376 0.9954 0.6407 0.0540 Uiso
C10 C 0.1468(4) 0.9642(4) 0.4433(3) 0.0514 Uani
H8 H 0.0981 0.8856 0.4799 0.0620 Uiso
C12 C 0.0612(4) 0.9698(4) 0.3403(3) 0.0477 Uani
H10 H 0.9555 0.8936 0.3095 0.0570 Uiso
loop_
_atom_site_aniso_label
_atom_site_aniso_U_11
_atom_site_aniso_U_22
_atom_site_aniso_U_33
_atom_site_aniso_U_23
_atom_site_aniso_U_13
_atom_site_aniso_U_12
Mn7 0.0311 0.0283 0.0226 0.0022 0.00349 0.0083
O2 0.0498 0.0386 0.0365 0.0021 0.0181 0.0126
O3 0.0382 0.0355 0.0482 0.0117 0.0184 0.0094
C15 0.0416 0.056 0.0447 -0.011 0.0134 0.0154
C20 0.0418 0.0332 0.0379 0.0022 0.0197 0.0071
O5 0.0415 0.0367 0.039 -0.0063 0.0111 0.0069
C21 0.0415 0.0372 0.0287 0.0003 0.008 0.0159
C22 0.0458 0.0304 0.0356 -0.0013 0.0115 0.0131
C24 0.0389 0.053 0.048 -0.0147 0.0084 0.0079
C25 0.0306 0.03 0.0308 0.0069 0.0043 0.0099
C26 0.037 0.0286 0.0303 0.0052 0.0101 0.0105
C27 0.0407 0.029 0.0383 -0.0025 0.0164 0.0057
O8 0.0449 0.0282 0.0318 0.0016 0.004 0.0047
C38 0.05 0.0484 0.0402 0.0196 0.0021 0.0092
C40 0.0423 0.0453 0.04 0.0147 -0.0022 0.009
N5 0.0354 0.045 0.0328 0.0117 0.003 0.0143
N1 0.0378 0.0394 0.0289 0.0069 0.002 0.0148
C1 0.0408 0.0523 0.038 0.0177 0.0068 0.0167
C2 0.0396 0.0479 0.0321 0.0096 0.0043 0.018
C3 0.0319 0.0483 0.0341 0.0097 0.0018 0.0131
C4 0.0368 0.0496 0.0348 0.0149 0.0095 0.0183
C5 0.0422 0.0535 0.0339 0.0161 0.0044 0.0173
C6 0.0441 0.0464 0.048 0.0207 0.0017 0.0108
C7 0.0338 0.055 0.0424 0.0155 -0.0021 0.0031
C8 0.0444 0.0514 0.0291 0.0102 0.0055 0.023
C9 0.044 0.0401 0.0444 0.01 -0.0049 0.0104
C11 0.04 0.056 0.043 0.0224 0.0044 0.0127
Mn4 0.0311 0.0283 0.0226 0.0022 0.00349 0.0083
C17 0.0306 0.03 0.0308 0.0069 0.0043 0.0099
C18 0.037 0.0286 0.0303 0.0052 0.0101 0.0105
C19 0.0407 0.029 0.0383 -0.0025 0.0164 0.0057
O4 0.0449 0.0282 0.0318 0.0016 0.004 0.0047
O7 0.0382 0.0355 0.0482 0.0117 0.0184 0.0094
C28 0.0418 0.0332 0.0379 0.0022 0.0197 0.0071
N3 0.0378 0.0394 0.0289 0.0069 0.002 0.0148
C29 0.0408 0.0523 0.038 0.0177 0.0068 0.0167
C30 0.0396 0.0479 0.0321 0.0096 0.0043 0.018
C31 0.0319 0.0483 0.0341 0.0097 0.0018 0.0131
C32 0.0368 0.0496 0.0348 0.0149 0.0095 0.0183
C33 0.0422 0.0535 0.0339 0.0161 0.0044 0.0173
C34 0.0441 0.0464 0.048 0.0207 0.0017 0.0108
C35 0.0338 0.055 0.0424 0.0155 -0.0021 0.0031
C36 0.0444 0.0514 0.0291 0.0102 0.0055 0.023
C37 0.044 0.0401 0.0444 0.01 -0.0049 0.0104
N4 0.0354 0.045 0.0328 0.0117 0.003 0.0143
C39 0.04 0.056 0.043 0.0224 0.0044 0.0127
O1 0.0415 0.0367 0.039 -0.0063 0.0111 0.0069
C13 0.0415 0.0372 0.0287 0.0003 0.008 0.0159
C14 0.0458 0.0304 0.0356 -0.0013 0.0115 0.0131
C16 0.0389 0.053 0.048 -0.0147 0.0084 0.0079
O6 0.0498 0.0386 0.0365 0.0021 0.0181 0.0126
C23 0.0416 0.056 0.0447 -0.011 0.0134 0.0154
C10 0.05 0.0484 0.0402 0.0196 0.0021 0.0092
C12 0.0423 0.0453 0.04 0.0147 -0.0022 0.009
loop_
_geom_bond_atom_site_label_1
_geom_bond_atom_site_label_2
_geom_bond_site_symmetry_1
_geom_bond_site_symmetry_2
H11 C15 1_555 1_555
H14 C20 1_555 1_555
O5 C21 1_555 1_555
C21 C22 1_555 1_555
C24 C15 1_555 1_555
H16 C24 1_555 1_555
C25 C26 1_555 1_555
C26 C27 1_555 1_555
C27 C20 1_555 1_555
H17 C27 1_555 1_555
O8 C25 1_555 1_555
H26 C38 1_555 1_555
Mn7 O5 1_555 1_555
C22 C24 1_555 1_555
C38 C40 1_555 1_555
N1 C4 1_555 1_555
C1 H1 1_555 1_555
C2 C1 1_555 1_555
C3 C2 1_555 1_555
C4 C3 1_555 1_555
C5 C1 1_555 1_555
C6 C2 1_555 1_555
H5 C6 1_555 1_555
C7 H6 1_555 1_555
C8 C5 1_555 1_555
C9 N1 1_555 1_555
H7 C9 1_555 1_555
N5 C11 1_555 1_555
C11 C7 1_555 1_555
H9 C11 1_555 1_555
C6 C9 1_555 1_555
C7 C8 1_555 1_555
C18 C17 1_555 1_555
C19 C18 1_555 1_555
H13 C19 1_555 1_555
O4 C17 1_555 1_555
C28 C19 1_555 1_555
H18 C28 1_555 1_555
C29 H19 1_555 1_555
C30 C29 1_555 1_555
C31 C30 1_555 1_555
C32 N3 1_555 1_555
C33 C29 1_555 1_555
C34 C30 1_555 1_555
H23 C34 1_555 1_555
C35 H24 1_555 1_555
C36 C33 1_555 1_555
C37 N3 1_555 1_555
H25 C37 1_555 1_555
N4 C39 1_555 1_555
C39 C35 1_555 1_555
H27 C39 1_555 1_555
C31 C32 1_555 1_555
C34 C37 1_555 1_555
C35 C36 1_555 1_555
O1 Mn4 1_555 1_555
C13 O1 1_555 1_555
C14 C13 1_555 1_555
C16 C14 1_555 1_555
H12 C16 1_555 1_555
C23 C16 1_555 1_555
H15 C23 1_555 1_555
H8 C10 1_555 1_555
C10 C12 1_555 1_555

#END
