
###############################################################################
#
# This file contains modified crystal structure data generated from the
# MOF subset of the Cambridge Structural Database (CSD) v543 
# hosted by the Cambridge Crystallographic Data Centre (CCDC).
#
# This work is licensed under the Creative Commons
# Attribution-NonCommercial-ShareAlike 4.0 International License.
# To view a copy of this license, visit
# http://creativecommons.org/licenses/by-nc-sa/4.0/
# or send a letter to
# Creative Commons, PO Box 1866, Mountain View, CA 94042, USA.
#
# CIF created using the CSD Python API on 29 September 2022
# The structure has been converted into the P1 space group
# The structure has a 3D framework
# The original CSD entry EJANOU is in the triclinic crystal system
# The framework has been calculated to contain at least 10.0% void space
# The void calculation uses a probe of radius 1.32A, grid spacing 0.4
#
###############################################################################

data_EJANOU
_chemical_formula_moiety         '(C40 H28 Mn1 N4 O8)n'
_symmetry_cell_setting           triclinic
_symmetry_space_group_name_H-M   'P 1'
_symmetry_Int_Tables_number      1
_space_group_name_Hall           'P 1'
loop_
_symmetry_equiv_pos_site_id
_symmetry_equiv_pos_as_xyz
1 x,y,z
_cell_length_a                   10.0354(7)
_cell_length_b                   10.8657(8)
_cell_length_c                   10.8045(9)
_cell_angle_alpha                92.238(7)
_cell_angle_beta                 98.521(5)
_cell_angle_gamma                121.811(5)
_cell_volume                     980.455
loop_
_atom_site_label
_atom_site_type_symbol
_atom_site_fract_x
_atom_site_fract_y
_atom_site_fract_z
_atom_site_U_iso_or_equiv
_atom_site_thermal_displace_type
Mn7 Mn 0.050(2) 0.869(1) 0.886(1) 0.0266 Uiso
O4 O 0.039(4) 0.347(3) 0.208(3) 0.0684 Uiso
C3 C 0.120(3) 0.480(5) 0.475(4) 0.0684 Uiso
H1 H 0.19776 0.45923 0.46222 0.0684 Uiso
C8 C 0.374(4) 0.452(2) 0.065(5) 0.0684 Uiso
H4 H 0.28(1) 0.42(2) 0.09(4) 0.0684 Uiso
O5 O 0.750(3) 0.899(1) 0.106(3) 0.0684 Uiso
O6 O 0.888(3) 0.842(2) 0.004(4) 0.0684 Uiso
C21 C 0.762(3) 0.804(1) 0.047(5) 0.0684 Uiso
C22 C 0.625(3) 0.647(1) 0.021(4) 0.0684 Uiso
C23 C 0.494(5) 0.602(2) 0.078(6) 0.0684 Uiso
H15 H 0.49(3) 0.67(1) 0.13(4) 0.0684 Uiso
O7 O 0.185(3) 0.826(3) 0.743(3) 0.0684 Uiso
C25 C 0.061(6) 0.697(3) 0.720(4) 0.0684 Uiso
C26 C 0.030(4) 0.598(4) 0.604(3) 0.0684 Uiso
C28 C 0.154(2) 0.588(4) 0.573(3) 0.0684 Uiso
H18 H 0.25205 0.64917 0.61389 0.0684 Uiso
N5 N 0.066(2) 0.074(2) 0.280(1) 0.0709 Uiso
N1 N 0.772(1) 0.130(1) 0.958(1) 0.0709 Uiso
C9 C 0.655(1) 0.008(1) 0.892(1) 0.0709 Uiso
C11 C 0.634(1) 0.117(1) 0.697(1) 0.0709 Uiso
C12 C 0.749(1) 0.243(1) 0.770(1) 0.0709 Uiso
H7 H 0.787(1) 0.338(1) 0.726(1) 0.0709 Uiso
C13 C 0.816(1) 0.247(1) 0.897(1) 0.0709 Uiso
H8 H 0.889(1) 0.326(1) 0.941(1) 0.0709 Uiso
C14 C 0.567(1) 0.110(1) 0.560(1) 0.0709 Uiso
H9 H 0.563(1) 0.203(1) 0.555(1) 0.0709 Uiso
C16 C 0.275(2) 0.033(2) 0.447(1) 0.0709 Uiso
C17 C 0.323(2) 0.162(2) 0.398(1) 0.0709 Uiso
H11 H 0.425(2) 0.235(2) 0.419(1) 0.0709 Uiso
C18 C 0.218(2) 0.180(2) 0.315(1) 0.0709 Uiso
H12 H 0.255(2) 0.278(2) 0.279(1) 0.0709 Uiso
H19 H 0.384(1) 0.084(1) 0.057(1) 0.0709 Uiso
C30 C 0.414(1) 0.002(1) 0.237(1) 0.0709 Uiso
H20 H 0.488(1) 0.083(1) 0.276(1) 0.0709 Uiso
C35 C 0.610(2) 0.005(2) 0.483(1) 0.0709 Uiso
H24 H 0.671(2) 0.087(2) 0.421(1) 0.0709 Uiso
C39 C 0.988(2) 0.057(2) 0.668(1) 0.0709 Uiso
C40 C 0.884(2) 0.076(2) 0.585(1) 0.0709 Uiso
H28 H 0.926(2) 0.173(2) 0.547(1) 0.0709 Uiso
H13 H 0.910(2) 0.869(2) 0.312(1) 0.0709 Uiso
Mn4 Mn 0.950(2) 0.131(1) 0.114(1) 0.0266 Uiso
O1 O 0.250(3) 0.101(1) 0.894(3) 0.0684 Uiso
O2 O 0.112(3) 0.158(2) 0.996(4) 0.0684 Uiso
C5 C 0.238(3) 0.196(1) 0.953(5) 0.0684 Uiso
C6 C 0.375(3) 0.353(1) 0.979(4) 0.0684 Uiso
C7 C 0.506(5) 0.398(2) 0.922(6) 0.0684 Uiso
H3 H 0.51(3) 0.33(1) 0.87(4) 0.0684 Uiso
C24 C 0.626(4) 0.548(2) 0.935(5) 0.0684 Uiso
H16 H 0.72(1) 0.58(2) 0.91(4) 0.0684 Uiso
H27 H 0.090(2) 0.131(2) 0.688(1) 0.0709 Uiso
O3 O 0.815(3) 0.174(3) 0.257(3) 0.0684 Uiso
C1 C 0.939(6) 0.303(3) 0.280(4) 0.0684 Uiso
C2 C 0.970(4) 0.402(4) 0.396(3) 0.0684 Uiso
C4 C 0.846(2) 0.412(4) 0.427(3) 0.0684 Uiso
H2 H 0.74795 0.35083 0.38611 0.0684 Uiso
O8 O 0.961(4) 0.653(3) 0.792(3) 0.0684 Uiso
C27 C 0.880(3) 0.520(5) 0.525(4) 0.0684 Uiso
H17 H 0.80224 0.54077 0.53778 0.0684 Uiso
H5 H 0.616(1) 0.916(1) 0.943(1) 0.0709 Uiso
C10 C 0.586(1) 0.998(1) 0.763(1) 0.0709 Uiso
H6 H 0.512(1) 0.917(1) 0.724(1) 0.0709 Uiso
C15 C 0.390(2) 0.995(2) 0.517(1) 0.0709 Uiso
H10 H 0.329(2) 0.913(2) 0.579(1) 0.0709 Uiso
C19 C 0.012(2) 0.943(2) 0.332(1) 0.0709 Uiso
C20 C 0.116(2) 0.924(2) 0.415(1) 0.0709 Uiso
H14 H 0.074(2) 0.827(2) 0.453(1) 0.0709 Uiso
N3 N 0.228(1) 0.870(1) 0.042(1) 0.0709 Uiso
C29 C 0.345(1) 0.992(1) 0.108(1) 0.0709 Uiso
C31 C 0.366(1) 0.883(1) 0.303(1) 0.0709 Uiso
C32 C 0.251(1) 0.757(1) 0.230(1) 0.0709 Uiso
H21 H 0.213(1) 0.662(1) 0.274(1) 0.0709 Uiso
C33 C 0.184(1) 0.753(1) 0.103(1) 0.0709 Uiso
H22 H 0.111(1) 0.674(1) 0.059(1) 0.0709 Uiso
C34 C 0.433(1) 0.890(1) 0.440(1) 0.0709 Uiso
H23 H 0.437(1) 0.797(1) 0.445(1) 0.0709 Uiso
C36 C 0.725(2) 0.967(2) 0.553(1) 0.0709 Uiso
C37 C 0.677(2) 0.838(2) 0.602(1) 0.0709 Uiso
H25 H 0.575(2) 0.765(2) 0.581(1) 0.0709 Uiso
C38 C 0.782(2) 0.820(2) 0.685(1) 0.0709 Uiso
H26 H 0.745(2) 0.722(2) 0.721(1) 0.0709 Uiso
N4 N 0.934(2) 0.926(2) 0.720(1) 0.0709 Uiso
loop_
_geom_bond_atom_site_label_1
_geom_bond_atom_site_label_2
_geom_bond_site_symmetry_1
_geom_bond_site_symmetry_2
H1 C3 1_555 1_555
H4 C8 1_555 1_555
O5 C21 1_555 1_555
O6 C21 1_555 1_555
C21 C22 1_555 1_555
C22 C23 1_555 1_555
C23 C8 1_555 1_555
H15 C23 1_555 1_555
O7 C25 1_555 1_555
C25 C26 1_555 1_555
C28 C3 1_555 1_555
H18 C28 1_555 1_555
Mn7 O7 1_555 1_555
C26 C28 1_555 1_555
C9 N1 1_555 1_555
C12 C11 1_555 1_555
H7 C12 1_555 1_555
C13 N1 1_555 1_555
H8 C13 1_555 1_555
C14 C11 1_555 1_555
H9 C14 1_555 1_555
C17 C16 1_555 1_555
H11 C17 1_555 1_555
C18 C17 1_555 1_555
H12 C18 1_555 1_555
N5 C18 1_555 1_555
H20 C30 1_555 1_555
C35 C14 1_555 1_555
H24 C35 1_555 1_555
H28 C40 1_555 1_555
C12 C13 1_555 1_555
C39 C40 1_555 1_555
O1 C5 1_555 1_555
O2 C5 1_555 1_555
C5 C6 1_555 1_555
C6 C7 1_555 1_555
C7 H3 1_555 1_555
C24 C7 1_555 1_555
H16 C24 1_555 1_555
O3 Mn4 1_555 1_555
C1 O3 1_555 1_555
C2 C1 1_555 1_555
C4 C2 1_555 1_555
H2 C4 1_555 1_555
C27 C4 1_555 1_555
H17 C27 1_555 1_555
H6 C10 1_555 1_555
H10 C15 1_555 1_555
H14 C20 1_555 1_555
N3 C29 1_555 1_555
C32 C31 1_555 1_555
H21 C32 1_555 1_555
C33 N3 1_555 1_555
H22 C33 1_555 1_555
C34 C15 1_555 1_555
H23 C34 1_555 1_555
C37 C36 1_555 1_555
H25 C37 1_555 1_555
C38 C37 1_555 1_555
H26 C38 1_555 1_555
N4 C38 1_555 1_555
C19 C20 1_555 1_555
C31 C34 1_555 1_555
C32 C33 1_555 1_555

#END
