
###############################################################################
#
# This file contains modified crystal structure data generated from the
# MOF subset of the Cambridge Structural Database (CSD) v543 
# hosted by the Cambridge Crystallographic Data Centre (CCDC).
#
# This work is licensed under the Creative Commons
# Attribution-NonCommercial-ShareAlike 4.0 International License.
# To view a copy of this license, visit
# http://creativecommons.org/licenses/by-nc-sa/4.0/
# or send a letter to
# Creative Commons, PO Box 1866, Mountain View, CA 94042, USA.
#
# CIF created using the CSD Python API on 29 September 2022
# The structure has been converted into the P1 space group
# The structure has a 3D framework
# The original CSD entry EJELUD is in the triclinic crystal system
# The framework has been calculated to contain at least 10.0% void space
# The void calculation uses a probe of radius 1.32A, grid spacing 0.4
#
###############################################################################

data_EJELUD
_chemical_formula_moiety         '(C54 H48 N14 O16 P6 Zn4)n'
_symmetry_cell_setting           triclinic
_symmetry_space_group_name_H-M   'P 1'
_symmetry_Int_Tables_number      1
_space_group_name_Hall           'P 1'
loop_
_symmetry_equiv_pos_site_id
_symmetry_equiv_pos_as_xyz
1 x,y,z
_cell_length_a                   9.6667(9)
_cell_length_b                   13.7471(13)
_cell_length_c                   14.6647(12)
_cell_angle_alpha                88.694(7)
_cell_angle_beta                 81.087(8)
_cell_angle_gamma                88.700(8)
_cell_volume                     1924.38
loop_
_atom_site_label
_atom_site_type_symbol
_atom_site_fract_x
_atom_site_fract_y
_atom_site_fract_z
Zn8 Zn 0.00900(7) 0.07781(5) 0.76684(5)
H5 H 0.052324 0.547970 0.423133
C10 C 0.2011(6) 0.4799(4) 0.2789(4)
C11 C 0.2980(6) 0.5486(4) 0.2933(5)
H8 H 0.278015 0.614526 0.286058
C12 C 0.4248(7) 0.5183(4) 0.3187(4)
H9 H 0.490957 0.564013 0.327138
C13 C 0.4530(6) 0.4198(4) 0.3314(4)
C14 C 0.3569(6) 0.3523(4) 0.3184(4)
H10 H 0.376128 0.286436 0.327226
C15 C 0.2308(6) 0.3820(4) 0.2920(4)
H11 H 0.165564 0.335838 0.282924
C16 C 0.6541(7) 0.4286(5) 0.4186(5)
H12 H 0.633116 0.488151 0.446972
C17 C 0.7625(8) 0.3660(5) 0.4304(5)
H13 H 0.828107 0.375423 0.469388
C18 C 0.6491(6) 0.3025(4) 0.3327(5)
H14 H 0.621657 0.259936 0.290780
C19 C 0.0321(6) 0.4569(4) 0.1766(4)
C20 C 0.1310(6) 0.4348(4) 0.1004(4)
H15 H 0.222332 0.455955 0.097344
C21 C 0.0949(6) 0.3814(4) 0.0289(4)
N3 N 0.0727(5) 0.5085(3) 0.2492(3)
N4 N 0.5834(5) 0.3866(3) 0.3574(4)
N5 N 0.7584(5) 0.2878(4) 0.3760(4)
Zn1 Zn 0.13036(7) 0.83887(5) 0.62548(5)
N8 N 0.2416(5) 0.7122(4) 0.6240(4)
O12 O 0.1012(7) 0.8491(4) 0.5017(3)
O13 O 0.2544(5) 0.9176(4) 0.6792(4)
Zn6 Zn 0.86964(7) 0.16113(5) 0.37452(5)
H16 H 0.161505 0.367301 0.977836
C25 C 0.0024(7) 0.2218(4) 0.9170(4)
H19 H 0.090736 0.202404 0.928884
O4 O 0.9778(5) 0.1038(4) 0.6443(3)
O5 O 0.8988(7) 0.1509(4) 0.4983(3)
O6 O 0.7252(5) 0.0904(3) 0.6344(4)
O7 O 0.4491(4) 0.0060(4) 0.7265(3)
O9 O 0.2087(4) 0.0674(3) 0.7709(3)
P2 P 0.8547(4) 0.1427(3) 0.6014(3)
H23 H 0.839393 0.209887 0.622201
P3 P 0.3042(3) 0.0080(2) 0.7007(2)
H24 H 0.316802 0.064888 0.623750
C1 C 0.7459(6) 0.8300(4) 0.5242(4)
H1 H 0.835679 0.834597 0.538968
C2 C 0.5253(6) 0.8549(5) 0.5195(5)
H2 H 0.434531 0.880467 0.531600
C3 C 0.5695(7) 0.7861(5) 0.4581(5)
H3 H 0.516240 0.755115 0.420252
C4 C 0.8007(6) 0.7020(4) 0.4075(4)
C5 C 0.8962(6) 0.6482(4) 0.4490(4)
H4 H 0.900248 0.654562 0.511496
C6 C 0.9866(6) 0.5840(4) 0.3958(4)
C7 C 0.9804(6) 0.5730(4) 0.3031(4)
C8 C 0.8806(6) 0.6278(4) 0.2635(4)
H6 H 0.873995 0.620720 0.201360
C9 C 0.7920(6) 0.6919(4) 0.3157(4)
H7 H 0.726337 0.728472 0.288877
C22 C 0.9616(7) 0.3496(4) 0.0337(4)
C23 C 0.8618(7) 0.3713(5) 0.1084(4)
H17 H 0.770721 0.349814 0.111092
C24 C 0.8976(7) 0.4252(4) 0.1796(4)
H18 H 0.830060 0.440195 0.229936
N1 N 0.6352(5) 0.8818(4) 0.5617(4)
N2 N 0.7093(5) 0.7703(3) 0.4621(3)
O1 O 0.9462(4) 0.8331(3) 0.6926(3)
O2 O 0.9244(6) 0.9587(3) 0.8168(3)
O3 O 0.7110(4) 0.8939(3) 0.7631(3)
P1 P 0.85932(16) 0.87387(11) 0.77724(12)
H22 H 0.854725 0.821891 0.824401
Zn2 Zn 0.63288(6) 0.97094(5) 0.66870(5)
C26 C 0.8009(7) 0.2989(5) 0.9261(5)
H20 H 0.725137 0.340771 0.944284
C27 C 0.8125(7) 0.2306(5) 0.8585(5)
H21 H 0.744783 0.219010 0.821658
N6 N 0.9240(5) 0.2927(3) 0.9613(3)
N7 N 0.9368(5) 0.1828(4) 0.8535(4)
O10 O 0.0756(6) 0.0413(3) 0.1832(3)
N9 N 0.0632(5) 0.8172(4) 0.1465(4)
O11 O 0.0222(5) 0.8962(4) 0.3557(3)
C26_2 C 0.1991(7) 0.7011(5) 0.0739(5)
H20_2 H 0.274863 0.659229 0.055716
C27_2 C 0.1875(7) 0.7694(5) 0.1415(5)
H21_2 H 0.255217 0.780990 0.178342
N6_2 N 0.0760(5) 0.7073(3) 0.0387(3)
C1_2 C 0.2541(6) 0.1700(4) 0.4758(4)
H1_2 H 0.164321 0.165403 0.461032
C2_2 C 0.4747(6) 0.1451(5) 0.4805(5)
H2_2 H 0.565469 0.119533 0.468400
C3_2 C 0.4305(7) 0.2139(5) 0.5419(5)
H3_2 H 0.483760 0.244885 0.579748
C4_2 C 0.1993(6) 0.2980(4) 0.5925(4)
C5_2 C 0.1038(6) 0.3518(4) 0.5510(4)
H4_2 H 0.099752 0.345438 0.488504
C6_2 C 0.0134(6) 0.4160(4) 0.6042(4)
C7_2 C 0.0196(6) 0.4270(4) 0.6969(4)
C8_2 C 0.1194(6) 0.3722(4) 0.7365(4)
H6_2 H 0.126005 0.379280 0.798640
C9_2 C 0.2080(6) 0.3081(4) 0.6843(4)
H7_2 H 0.273663 0.271528 0.711123
C22_2 C 0.0384(7) 0.6504(4) 0.9663(4)
C23_2 C 0.1382(7) 0.6287(5) 0.8916(4)
H17_2 H 0.229279 0.650186 0.888908
C24_2 C 0.1024(7) 0.5748(4) 0.8204(4)
H18_2 H 0.169940 0.559805 0.770064
N1_2 N 0.3648(5) 0.1182(4) 0.4383(4)
N2_2 N 0.2907(5) 0.2297(3) 0.5379(3)
O1_2 O 0.0538(4) 0.1669(3) 0.3074(3)
O3_2 O 0.2890(4) 0.1061(3) 0.2369(3)
O8 O 0.7456(5) 0.0824(4) 0.3208(4)
P1_2 P 0.14068(16) 0.12613(11) 0.22276(12)
H22_2 H 0.145275 0.178109 0.175599
Zn2_2 Zn 0.36712(6) 0.02906(5) 0.33130(5)
O6_2 O 0.2748(5) 0.9096(3) 0.3656(4)
O7_2 O 0.5509(4) 0.9940(4) 0.2735(3)
O9_2 O 0.7913(4) 0.9326(3) 0.2291(3)
P2_2 P 0.1453(4) 0.8573(3) 0.3986(3)
H23_2 H 0.160607 0.790113 0.377799
P3_2 P 0.6958(3) 0.9920(2) 0.2993(2)
H24_2 H 0.683198 0.935112 0.376250
Zn3 Zn 0.99100(7) 0.92219(5) 0.23316(5)
H16_2 H 0.838495 0.632699 0.022164
C25_2 C 0.9976(7) 0.7782(4) 0.0830(4)
H19_2 H 0.909264 0.797596 0.071116
H5_2 H 0.947676 0.452030 0.576867
C10_2 C 0.7989(6) 0.5201(4) 0.7211(4)
C11_2 C 0.7020(6) 0.4514(4) 0.7067(5)
H8_2 H 0.721985 0.385474 0.713942
C12_2 C 0.5752(7) 0.4817(4) 0.6813(4)
H9_2 H 0.509043 0.435987 0.672862
C13_2 C 0.5470(6) 0.5802(4) 0.6686(4)
C14_2 C 0.6431(6) 0.6477(4) 0.6816(4)
H10_2 H 0.623872 0.713564 0.672774
C15_2 C 0.7692(6) 0.6180(4) 0.7080(4)
H11_2 H 0.834436 0.664162 0.717076
C16_2 C 0.3459(7) 0.5714(5) 0.5814(5)
H12_2 H 0.366884 0.511849 0.553028
C17_2 C 0.2375(8) 0.6340(5) 0.5696(5)
H13_2 H 0.171893 0.624577 0.530612
C18_2 C 0.3509(6) 0.6975(4) 0.6673(5)
H14_2 H 0.378343 0.740064 0.709220
C19_2 C 0.9679(6) 0.5431(4) 0.8234(4)
C20_2 C 0.8690(6) 0.5652(4) 0.8996(4)
H15_2 H 0.777668 0.544045 0.902656
C21_2 C 0.9051(6) 0.6186(4) 0.9711(4)
N3_2 N 0.9273(5) 0.4915(3) 0.7508(3)
N4_2 N 0.4166(5) 0.6134(3) 0.6426(4)
loop_
_geom_bond_atom_site_label_1
_geom_bond_atom_site_label_2
_geom_bond_site_symmetry_1
_geom_bond_site_symmetry_2
C10 C11 1_555 1_555
C11 H8 1_555 1_555
C12 C11 1_555 1_555
H9 C12 1_555 1_555
C13 C12 1_555 1_555
C14 C13 1_555 1_555
H10 C14 1_555 1_555
C15 C10 1_555 1_555
H11 C15 1_555 1_555
C16 H12 1_555 1_555
C17 C16 1_555 1_555
H13 C17 1_555 1_555
C18 H14 1_555 1_555
C19 C20 1_555 1_555
C20 H15 1_555 1_555
C21 C20 1_555 1_555
N4 C13 1_555 1_555
N5 C17 1_555 1_555
N8 Zn1 1_555 1_555
O12 Zn1 1_555 1_555
O13 Zn1 1_555 1_555
Zn6 N5 1_555 1_555
C10 N3 1_555 1_555
C14 C15 1_555 1_555
C16 N4 1_555 1_555
C18 N4 1_555 1_555
C18 N5 1_555 1_555
C19 N3 1_555 1_555
C25 H19 1_555 1_555
O4 P2 1_555 1_555
O5 P2 1_555 1_555
O6 P2 1_555 1_555
O7 P3 1_555 1_555
O9 P3 1_555 1_555
P2 H23 1_555 1_555
P3 H24 1_555 1_555
Zn8 O9 1_555 1_555
Zn6 O5 1_555 1_555
C1 H1 1_555 1_555
C2 H2 1_555 1_555
C3 C2 1_555 1_555
H3 C3 1_555 1_555
C4 C5 1_555 1_555
C5 H4 1_555 1_555
C6 C5 1_555 1_555
C7 C6 1_555 1_555
C8 C7 1_555 1_555
H6 C8 1_555 1_555
C9 C4 1_555 1_555
H7 C9 1_555 1_555
C23 C22 1_555 1_555
H17 C23 1_555 1_555
H18 C24 1_555 1_555
N1 C1 1_555 1_555
N2 C1 1_555 1_555
O1 P1 1_555 1_555
O2 P1 1_555 1_555
O3 P1 1_555 1_555
P1 H22 1_555 1_555
Zn2 N1 1_555 1_555
C2 N1 1_555 1_555
C3 N2 1_555 1_555
C4 N2 1_555 1_555
C8 C9 1_555 1_555
C23 C24 1_555 1_555
O3 Zn2 1_555 1_555
C26 H20 1_555 1_555
C27 C26 1_555 1_555
H21 C27 1_555 1_555
C26 N6 1_555 1_555
C27 N7 1_555 1_555
C26_2 H20_2 1_555 1_555
C27_2 C26_2 1_555 1_555
H21_2 C27_2 1_555 1_555
C26_2 N6_2 1_555 1_555
C27_2 N9 1_555 1_555
C1_2 H1_2 1_555 1_555
C2_2 H2_2 1_555 1_555
C3_2 C2_2 1_555 1_555
H3_2 C3_2 1_555 1_555
C4_2 C5_2 1_555 1_555
C5_2 H4_2 1_555 1_555
C6_2 C5_2 1_555 1_555
C7_2 C6_2 1_555 1_555
C8_2 C7_2 1_555 1_555
H6_2 C8_2 1_555 1_555
C9_2 C4_2 1_555 1_555
H7_2 C9_2 1_555 1_555
C23_2 C22_2 1_555 1_555
H17_2 C23_2 1_555 1_555
H18_2 C24_2 1_555 1_555
N1_2 C1_2 1_555 1_555
N2_2 C1_2 1_555 1_555
O1_2 P1_2 1_555 1_555
O10 P1_2 1_555 1_555
O3_2 P1_2 1_555 1_555
P1_2 H22_2 1_555 1_555
Zn2_2 N1_2 1_555 1_555
Zn6 O8 1_555 1_555
C2_2 N1_2 1_555 1_555
C3_2 N2_2 1_555 1_555
C4_2 N2_2 1_555 1_555
C8_2 C9_2 1_555 1_555
C23_2 C24_2 1_555 1_555
O3_2 Zn2_2 1_555 1_555
O11 P2_2 1_555 1_555
O12 P2_2 1_555 1_555
O6_2 P2_2 1_555 1_555
O7_2 P3_2 1_555 1_555
O9_2 P3_2 1_555 1_555
P2_2 H23_2 1_555 1_555
P3_2 H24_2 1_555 1_555
Zn3 O9_2 1_555 1_555
C25_2 H19_2 1_555 1_555
C10_2 C11_2 1_555 1_555
C11_2 H8_2 1_555 1_555
C12_2 C11_2 1_555 1_555
H9_2 C12_2 1_555 1_555
C13_2 C12_2 1_555 1_555
C14_2 C13_2 1_555 1_555
H10_2 C14_2 1_555 1_555
C15_2 C10_2 1_555 1_555
H11_2 C15_2 1_555 1_555
C16_2 H12_2 1_555 1_555
C17_2 C16_2 1_555 1_555
H13_2 C17_2 1_555 1_555
C18_2 H14_2 1_555 1_555
C19_2 C20_2 1_555 1_555
C20_2 H15_2 1_555 1_555
C21_2 C20_2 1_555 1_555
N4_2 C13_2 1_555 1_555
N8 C17_2 1_555 1_555
C10_2 N3_2 1_555 1_555
C14_2 C15_2 1_555 1_555
C16_2 N4_2 1_555 1_555
C18_2 N4_2 1_555 1_555
C18_2 N8 1_555 1_555
C19_2 N3_2 1_555 1_555

#END
