
###############################################################################
#
# This file contains modified crystal structure data generated from the
# MOF subset of the Cambridge Structural Database (CSD) v543 
# hosted by the Cambridge Crystallographic Data Centre (CCDC).
#
# This work is licensed under the Creative Commons
# Attribution-NonCommercial-ShareAlike 4.0 International License.
# To view a copy of this license, visit
# http://creativecommons.org/licenses/by-nc-sa/4.0/
# or send a letter to
# Creative Commons, PO Box 1866, Mountain View, CA 94042, USA.
#
# CIF created using the CSD Python API on 29 September 2022
# The structure has been converted into the P1 space group
# The structure has a 3D framework
# The original CSD entry EKAQIR is in the monoclinic crystal system
# The framework has been calculated to contain at least 10.0% void space
# The void calculation uses a probe of radius 1.32A, grid spacing 0.4
# H atom positions have been added when not included in the experimental data
#
###############################################################################

data_EKAQIR
_chemical_formula_moiety         '(C72 H32 N24 Nd8 O50)n'
_symmetry_cell_setting           triclinic
_symmetry_space_group_name_H-M   'P 1'
_symmetry_Int_Tables_number      1
_space_group_name_Hall           'P 1'
loop_
_symmetry_equiv_pos_site_id
_symmetry_equiv_pos_as_xyz
1 x,y,z
_cell_length_a                   8.8893(14)
_cell_length_b                   16.853(3)
_cell_length_c                   15.393(2)
_cell_angle_alpha                90
_cell_angle_beta                 101.108(3)
_cell_angle_gamma                90
_cell_volume                     2262.84
loop_
_atom_site_label
_atom_site_type_symbol
_atom_site_fract_x
_atom_site_fract_y
_atom_site_fract_z
Nd8 Nd 0.64983(3) 0.152320(15) 0.128020(17)
N5 N 0.1237(4) 0.1698(2) 0.9194(3)
N6 N 0.3924(5) 0.2390(3) 0.8890(3)
O9 O 0.1129(4) 0.01469(19) 0.9511(2)
O11 O 0.5767(4) 0.10118(19) 0.8291(2)
O12 O 0.6140(3) 0.10510(19) 0.9749(2)
C13 C 0.2185(5) 0.0376(3) 0.9104(3)
C14 C 0.2432(5) 0.1254(3) 0.9085(3)
C15 C 0.1382(6) 0.2479(3) 0.9159(4)
H5 H 0.0579 0.2802 0.9252
C16 C 0.2704(6) 0.2821(3) 0.8988(4)
H6 H 0.2749 0.3370 0.8939
C17 C 0.3795(5) 0.1603(3) 0.8967(3)
C18 C 0.5313(5) 0.1169(3) 0.8979(3)
Nd4 Nd 0.86350(3) 0.088121(15) 0.922497(17)
H7 H 0.00147642 0.070522 0.764596
Nd3 Nd 0.13650(3) 0.911879(15) 0.077503(17)
O7 O 0.0870(4) 0.84550(19) 0.9312(2)
O8 O 0.0727(4) 0.8566(2) 0.7874(2)
O10 O 0.2982(4) 0.99391(19) 0.8727(2)
C7 C 0.0164(5) 0.8361(3) 0.8522(3)
Nd7 Nd 0.35017(3) 0.847680(15) 0.871980(17)
O3 O 0.8620(5) 0.3392(3) 0.0598(3)
O4 O 0.6446(4) 0.2720(2) 0.0511(2)
C1 C 0.7318(7) 0.3213(3) 0.0234(3)
O16 O 0.9130(4) 0.15450(19) 0.0688(2)
Nd2 Nd 0.64983(3) 0.347680(15) 0.628020(17)
N1 N 0.5975(6) 0.4350(3) 0.9585(3)
N2 N 0.6166(5) 0.3939(2) 0.7868(3)
O1 O 0.7129(4) 0.25142(19) 0.7488(2)
O2 O 0.7970(4) 0.22405(19) 0.8921(2)
O13 O 0.9025(4) 0.0960(2) 0.7690(2)
C2 C 0.6633(6) 0.3668(3) 0.9405(3)
C3 C 0.6706(5) 0.3453(3) 0.8551(3)
C4 C 0.7309(5) 0.2675(3) 0.8291(3)
C5 C 0.5523(6) 0.4625(3) 0.8037(3)
H1 H 0.5149 0.4973 0.7577
C6 C 0.5416(8) 0.4814(3) 0.8890(4)
H2 H 0.4933 0.5285 0.8990
N7 N 0.3922(4) 0.2750(2) 0.6494(3)
O14 O 0.6446(4) 0.2280(2) 0.5511(2)
O15 O 0.4108(4) 0.4246(2) 0.6005(2)
O17 O 0.9130(4) 0.34550(19) 0.5688(2)
O18 O 0.9273(4) 0.3566(2) 0.7126(2)
O20 O 0.7018(4) 0.49391(19) 0.6273(2)
O23 O 0.6140(3) 0.39490(19) 0.4749(2)
H8 H 0.817463 0.0681476 0.72938
O19 O 0.8871(4) 0.98531(19) 0.0489(2)
N3 N 0.6078(4) 0.7750(2) 0.8506(3)
N4 N 0.8792(5) 0.7144(2) 0.8127(3)
O5 O 0.5892(4) 0.9246(2) 0.8995(2)
O6 O 0.8124(4) 0.95507(19) 0.8629(2)
C8 C 0.8683(5) 0.7903(3) 0.8376(3)
C9 C 0.7565(6) 0.6697(3) 0.8105(3)
H3 H 0.7606 0.6166 0.7947
C10 C 0.6211(6) 0.6992(3) 0.8311(3)
H4 H 0.5388 0.6651 0.8312
C11 C 0.7326(5) 0.8211(3) 0.8538(3)
C12 C 0.7094(5) 0.9073(3) 0.8738(3)
O23_2 O 0.3860(3) 0.89490(19) 0.0251(2)
Nd1 Nd 0.13650(3) 0.588121(15) 0.577503(17)
N1_2 N 0.4025(6) 0.9350(3) 0.5415(3)
N2_2 N 0.3834(5) 0.8939(2) 0.7132(3)
N4_2 N 0.1208(5) 0.2144(2) 0.6873(3)
O1_2 O 0.2871(4) 0.75142(19) 0.7512(2)
O2_2 O 0.2030(4) 0.72405(19) 0.6079(2)
O3_2 O 0.1380(5) 0.8392(3) 0.4402(3)
O4_2 O 0.3554(4) 0.7720(2) 0.4489(2)
O6_2 O 0.1876(4) 0.45507(19) 0.6371(2)
O13_2 O 0.0975(4) 0.5960(2) 0.7310(2)
C1_2 C 0.2682(7) 0.8213(3) 0.4766(3)
C2_2 C 0.3367(6) 0.8668(3) 0.5595(3)
C3_2 C 0.3294(5) 0.8453(3) 0.6449(3)
C4_2 C 0.2691(5) 0.7675(3) 0.6709(3)
C5_2 C 0.4477(6) 0.9625(3) 0.6963(3)
H1_2 H 0.4851 0.9973 0.7423
C6_2 C 0.4584(8) 0.9814(3) 0.6110(4)
C8_2 C 0.1317(5) 0.2903(3) 0.6624(3)
C9_2 C 0.2435(6) 0.1697(3) 0.6895(3)
H3_2 H 0.2394 0.1166 0.7053
C10_2 C 0.3789(6) 0.1992(3) 0.6689(3)
H4_2 H 0.4612 0.1651 0.6688
C11_2 C 0.2674(5) 0.3211(3) 0.6462(3)
C12_2 C 0.2906(5) 0.4073(3) 0.6262(3)
Nd6 Nd 0.35017(3) 0.652320(15) 0.371980(17)
O14_2 O 0.3554(4) 0.7280(2) 0.9489(2)
O16_2 O 0.0870(4) 0.65450(19) 0.4312(2)
O19_2 O 0.1129(4) 0.48531(19) 0.4511(2)
O21 O 0.4233(4) 0.60118(19) 0.6709(2)
O22 O 0.3860(3) 0.60510(19) 0.5251(2)
H8_2 H 0.182537 0.568148 0.77062
N5_2 N 0.8763(4) 0.6698(2) 0.5806(3)
N6_2 N 0.6076(5) 0.7390(3) 0.6110(3)
O9_2 O 0.8871(4) 0.51469(19) 0.5489(2)
C7_2 C 0.9836(5) 0.3361(3) 0.6478(3)
C13_2 C 0.7815(5) 0.5376(3) 0.5896(3)
C14_2 C 0.7568(5) 0.6254(3) 0.5915(3)
C15_2 C 0.8618(6) 0.7479(3) 0.5841(4)
H5_2 H 0.9421 0.7802 0.5748
C16_2 C 0.7296(6) 0.7821(3) 0.6012(4)
H6_2 H 0.7251 0.8370 0.6061
C17_2 C 0.6205(5) 0.6603(3) 0.6033(3)
C18_2 C 0.4687(5) 0.6169(3) 0.6021(3)
Nd3_2 Nd 0.86350(3) 0.411879(15) 0.422497(17)
H7_2 H 0.998524 0.570522 0.735404
N3_2 N 0.3922(4) 0.2250(2) 0.1494(3)
N4_3 N 0.1208(5) 0.2856(2) 0.1873(3)
O5_2 O 0.4108(4) 0.0754(2) 0.1005(2)
O6_3 O 0.1876(4) 0.04493(19) 0.1371(2)
C8_3 C 0.1317(5) 0.2097(3) 0.1624(3)
C9_3 C 0.2435(6) 0.3303(3) 0.1895(3)
H3_3 H 0.2394 0.3834 0.2053
C10_3 C 0.3789(6) 0.3008(3) 0.1689(3)
H4_3 H 0.4612 0.3349 0.1688
C11_3 C 0.2674(5) 0.1789(3) 0.1462(3)
C12_3 C 0.2906(5) 0.0927(3) 0.1262(3)
N1_3 N 0.4025(6) 0.5650(3) 0.0415(3)
N2_3 N 0.3834(5) 0.6061(2) 0.2132(3)
O1_3 O 0.2871(4) 0.74858(19) 0.2512(2)
O2_3 O 0.2030(4) 0.77595(19) 0.1079(2)
O13_3 O 0.0975(4) 0.9040(2) 0.2310(2)
C2_3 C 0.3367(6) 0.6332(3) 0.0595(3)
C3_3 C 0.3294(5) 0.6547(3) 0.1449(3)
C4_3 C 0.2691(5) 0.7325(3) 0.1709(3)
C5_3 C 0.4477(6) 0.5375(3) 0.1963(3)
H1_3 H 0.4851 0.5027 0.2423
C6_3 C 0.4584(8) 0.5186(3) 0.1110(4)
H2_2 H 0.5067 0.4715 0.1010
N7_2 N 0.6078(4) 0.7250(2) 0.3506(3)
O15_2 O 0.5892(4) 0.5754(2) 0.3995(2)
O18_2 O 0.0727(4) 0.6434(2) 0.2874(2)
O20_2 O 0.2982(4) 0.50609(19) 0.3727(2)
O21_2 O 0.4233(4) 0.89882(19) 0.1709(2)
H8_3 H 0.182537 0.931852 0.27062
O3_3 O 0.1380(5) 0.6608(3) 0.9402(3)
C1_3 C 0.2682(7) 0.6787(3) 0.9766(3)
O8_2 O 0.9273(4) 0.1434(2) 0.2126(2)
O10_2 O 0.7018(4) 0.00609(19) 0.1273(2)
C7_3 C 0.9836(5) 0.1639(3) 0.1478(3)
N5_3 N 0.8763(4) 0.8302(2) 0.0806(3)
N6_3 N 0.6076(5) 0.7610(3) 0.1110(3)
C13_3 C 0.7815(5) 0.9624(3) 0.0896(3)
C14_3 C 0.7568(5) 0.8746(3) 0.0915(3)
C15_3 C 0.8618(6) 0.7521(3) 0.0841(4)
H5_3 H 0.9421 0.7198 0.0748
C16_3 C 0.7296(6) 0.7179(3) 0.1012(4)
H6_3 H 0.7251 0.6630 0.1061
C17_3 C 0.6205(5) 0.8397(3) 0.1033(3)
C18_3 C 0.4687(5) 0.8831(3) 0.1021(3)
H7_3 H 0.998524 0.929478 0.235404
N5_4 N 0.1237(4) 0.3302(2) 0.4194(3)
N6_4 N 0.3924(5) 0.2610(3) 0.3890(3)
O11_2 O 0.5767(4) 0.39882(19) 0.3291(2)
C7_4 C 0.0164(5) 0.6639(3) 0.3522(3)
C13_4 C 0.2185(5) 0.4624(3) 0.4104(3)
C14_4 C 0.2432(5) 0.3746(3) 0.4085(3)
C15_4 C 0.1382(6) 0.2521(3) 0.4159(4)
H5_4 H 0.0579 0.2198 0.4252
C16_4 C 0.2704(6) 0.2179(3) 0.3988(4)
H6_4 H 0.2749 0.1630 0.3939
C17_4 C 0.3795(5) 0.3397(3) 0.3967(3)
C18_4 C 0.5313(5) 0.3831(3) 0.3979(3)
H7_4 H 0.00147642 0.429478 0.264596
N1_4 N 0.5975(6) 0.0650(3) 0.4585(3)
N2_4 N 0.6166(5) 0.1061(2) 0.2868(3)
N4_4 N 0.8792(5) 0.7856(2) 0.3127(3)
O1_4 O 0.7129(4) 0.24858(19) 0.2488(2)
O2_4 O 0.7970(4) 0.27595(19) 0.3921(2)
O3_4 O 0.8620(5) 0.1608(3) 0.5598(3)
O6_4 O 0.8124(4) 0.54493(19) 0.3629(2)
O13_4 O 0.9025(4) 0.4040(2) 0.2690(2)
C1_4 C 0.7318(7) 0.1787(3) 0.5234(3)
C2_4 C 0.6633(6) 0.1332(3) 0.4405(3)
C3_4 C 0.6706(5) 0.1547(3) 0.3551(3)
C4_4 C 0.7309(5) 0.2325(3) 0.3291(3)
C5_4 C 0.5523(6) 0.0375(3) 0.3037(3)
H1_4 H 0.5149 0.0027 0.2577
C6_4 C 0.5416(8) 0.0186(3) 0.3890(4)
C8_4 C 0.8683(5) 0.7097(3) 0.3376(3)
C9_4 C 0.7565(6) 0.8303(3) 0.3105(3)
H3_4 H 0.7606 0.8834 0.2947
C10_4 C 0.6211(6) 0.8008(3) 0.3311(3)
H4_4 H 0.5388 0.8349 0.3312
C11_4 C 0.7326(5) 0.6789(3) 0.3538(3)
C12_4 C 0.7094(5) 0.5927(3) 0.3738(3)
H8_4 H 0.817463 0.431852 0.22938
H2_3 H 0.5067 0.0285 0.6010
H2_4 H 0.4933 0.9715 0.3990
loop_
_geom_bond_atom_site_label_1
_geom_bond_atom_site_label_2
_geom_bond_site_symmetry_1
_geom_bond_site_symmetry_2
N5 C14 1_555 1_555
N6 C16 1_555 1_555
O11 C18 1_555 1_555
O12 C18 1_555 1_555
C13 O9 1_555 1_555
C14 C13 1_555 1_555
C15 N5 1_555 1_555
H5 C15 1_555 1_555
C16 C15 1_555 1_555
H6 C16 1_555 1_555
C17 N6 1_555 1_555
C18 C17 1_555 1_555
Nd4 O11 1_555 1_555
O12 Nd4 1_555 1_555
C14 C17 1_555 1_555
O7 C7 1_555 1_555
O8 C7 1_555 1_555
Nd7 O7 1_555 1_555
O8 Nd7 1_555 1_555
O10 Nd7 1_555 1_555
O3 C1 1_555 1_555
O4 C1 1_555 1_555
Nd8 O4 1_555 1_555
Nd8 O16 1_555 1_555
Nd2 N2 1_555 1_555
N1 C2 1_555 1_555
N2 C3 1_555 1_555
O1 Nd2 1_555 1_555
O2 Nd4 1_555 1_555
O13 Nd4 1_555 1_555
C2 C3 1_555 1_555
C3 C4 1_555 1_555
C4 O1 1_555 1_555
C5 N2 1_555 1_555
H1 C5 1_555 1_555
C6 N1 1_555 1_555
H2 C6 1_555 1_555
N7 Nd2 1_555 1_555
O14 Nd2 1_555 1_555
O15 Nd2 1_555 1_555
O17 Nd2 1_555 1_555
O18 Nd2 1_555 1_555
O20 Nd2 1_555 1_555
O23 Nd2 1_555 1_555
O2 C4 1_555 1_555
C5 C6 1_555 1_555
O13 H8 1_555 1_555
N3 C10 1_555 1_555
N4 C8 1_555 1_555
O5 C12 1_555 1_555
C8 C11 1_555 1_555
C9 N4 1_555 1_555
H3 C9 1_555 1_555
C10 C9 1_555 1_555
H4 C10 1_555 1_555
C11 N3 1_555 1_555
C12 O6 1_555 1_555
Nd7 N3 1_555 1_555
O5 Nd7 1_555 1_555
C11 C12 1_555 1_555
Nd7 N2_2 1_555 1_555
N1_2 C2_2 1_555 1_555
N2_2 C3_2 1_555 1_555
N7 C10_2 1_555 1_555
N4_2 C8_2 1_555 1_555
O1_2 Nd7 1_555 1_555
O2_2 Nd1 1_555 1_555
O3_2 C1_2 1_555 1_555
O4_2 C1_2 1_555 1_555
O15 C12_2 1_555 1_555
O6_2 Nd1 1_555 1_555
O13_2 Nd1 1_555 1_555
C1_2 C2_2 1_555 1_555
C2_2 C3_2 1_555 1_555
C3_2 C4_2 1_555 1_555
C4_2 O1_2 1_555 1_555
C5_2 N2_2 1_555 1_555
H1_2 C5_2 1_555 1_555
C6_2 N1_2 1_555 1_555
C8_2 C11_2 1_555 1_555
C9_2 N4_2 1_555 1_555
H3_2 C9_2 1_555 1_555
C10_2 C9_2 1_555 1_555
H4_2 C10_2 1_555 1_555
C11_2 N7 1_555 1_555
C12_2 O6_2 1_555 1_555
Nd6 O4_2 1_555 1_555
O14_2 Nd7 1_555 1_555
O16_2 Nd1 1_555 1_555
O19_2 Nd1 1_555 1_555
O21 Nd1 1_555 1_555
O22 Nd1 1_555 1_555
O2_2 C4_2 1_555 1_555
C5_2 C6_2 1_555 1_555
C11_2 C12_2 1_555 1_555
Nd6 O16_2 1_555 1_555
Nd6 O22 1_555 1_555
O13_2 H8_2 1_555 1_555
N5_2 C14_2 1_555 1_555
N6_2 C16_2 1_555 1_555
O17 C7_2 1_555 1_555
O18 C7_2 1_555 1_555
O20 C13_2 1_555 1_555
O21 C18_2 1_555 1_555
O22 C18_2 1_555 1_555
C13_2 O9_2 1_555 1_555
C14_2 C13_2 1_555 1_555
C15_2 N5_2 1_555 1_555
H5_2 C15_2 1_555 1_555
C16_2 C15_2 1_555 1_555
H6_2 C16_2 1_555 1_555
C17_2 N6_2 1_555 1_555
C18_2 C17_2 1_555 1_555
Nd3_2 O17 1_555 1_555
O9_2 Nd3_2 1_555 1_555
C14_2 C17_2 1_555 1_555
N3_2 C10_3 1_555 1_555
N4_3 C8_3 1_555 1_555
O5_2 C12_3 1_555 1_555
C8_3 C11_3 1_555 1_555
C9_3 N4_3 1_555 1_555
H3_3 C9_3 1_555 1_555
C10_3 C9_3 1_555 1_555
H4_3 C10_3 1_555 1_555
C11_3 N3_2 1_555 1_555
C12_3 O6_3 1_555 1_555
Nd8 N3_2 1_555 1_555
O5_2 Nd8 1_555 1_555
C11_3 C12_3 1_555 1_555
Nd6 N2_3 1_555 1_555
N1_3 C2_3 1_555 1_555
N2_3 C3_3 1_555 1_555
O1_3 Nd6 1_555 1_555
O2_3 Nd3 1_555 1_555
O13_3 Nd3 1_555 1_555
C2_3 C3_3 1_555 1_555
C3_3 C4_3 1_555 1_555
C4_3 O1_3 1_555 1_555
C5_3 N2_3 1_555 1_555
H1_3 C5_3 1_555 1_555
C6_3 N1_3 1_555 1_555
H2_2 C6_3 1_555 1_555
N7_2 Nd6 1_555 1_555
O15_2 Nd6 1_555 1_555
O18_2 Nd6 1_555 1_555
O20_2 Nd6 1_555 1_555
O21_2 Nd3 1_555 1_555
O23_2 Nd3 1_555 1_555
O2_3 C4_3 1_555 1_555
C5_3 C6_3 1_555 1_555
O13_3 H8_3 1_555 1_555
O3_3 C1_3 1_555 1_555
O14_2 C1_3 1_555 1_555
O16 C7_3 1_555 1_555
O8_2 C7_3 1_555 1_555
O8_2 Nd8 1_555 1_555
O10_2 Nd8 1_555 1_555
N5_3 C14_3 1_555 1_555
N6_3 C16_3 1_555 1_555
O21_2 C18_3 1_555 1_555
O23_2 C18_3 1_555 1_555
C13_3 O19 1_555 1_555
C14_3 C13_3 1_555 1_555
C15_3 N5_3 1_555 1_555
H5_3 C15_3 1_555 1_555
C16_3 C15_3 1_555 1_555
H6_3 C16_3 1_555 1_555
C17_3 N6_3 1_555 1_555
C18_3 C17_3 1_555 1_555
C14_3 C17_3 1_555 1_555
N5_4 C14_4 1_555 1_555
N6_4 C16_4 1_555 1_555
O16_2 C7_4 1_555 1_555
O18_2 C7_4 1_555 1_555
O20_2 C13_4 1_555 1_555
O11_2 C18_4 1_555 1_555
O23 C18_4 1_555 1_555
C13_4 O19_2 1_555 1_555
C14_4 C13_4 1_555 1_555
C15_4 N5_4 1_555 1_555
H5_4 C15_4 1_555 1_555
C16_4 C15_4 1_555 1_555
H6_4 C16_4 1_555 1_555
C17_4 N6_4 1_555 1_555
C18_4 C17_4 1_555 1_555
Nd3_2 O11_2 1_555 1_555
O23 Nd3_2 1_555 1_555
C14_4 C17_4 1_555 1_555
Nd8 N2_4 1_555 1_555
N1_4 C2_4 1_555 1_555
N2_4 C3_4 1_555 1_555
N7_2 C10_4 1_555 1_555
N4_4 C8_4 1_555 1_555
O1_4 Nd8 1_555 1_555
O2_4 Nd3_2 1_555 1_555
O3_4 C1_4 1_555 1_555
O14 C1_4 1_555 1_555
O15_2 C12_4 1_555 1_555
O6_4 Nd3_2 1_555 1_555
O13_4 Nd3_2 1_555 1_555
C1_4 C2_4 1_555 1_555
C2_4 C3_4 1_555 1_555
C3_4 C4_4 1_555 1_555
C4_4 O1_4 1_555 1_555
C5_4 N2_4 1_555 1_555
H1_4 C5_4 1_555 1_555
C6_4 N1_4 1_555 1_555
C8_4 C11_4 1_555 1_555
C9_4 N4_4 1_555 1_555
H3_4 C9_4 1_555 1_555
C10_4 C9_4 1_555 1_555
H4_4 C10_4 1_555 1_555
C11_4 N7_2 1_555 1_555
C12_4 O6_4 1_555 1_555
O2_4 C4_4 1_555 1_555
C5_4 C6_4 1_555 1_555
C11_4 C12_4 1_555 1_555
O13_4 H8_4 1_555 1_555

#END
