
###############################################################################
#
# This file contains modified crystal structure data generated from the
# MOF subset of the Cambridge Structural Database (CSD) v543 
# hosted by the Cambridge Crystallographic Data Centre (CCDC).
#
# This work is licensed under the Creative Commons
# Attribution-NonCommercial-ShareAlike 4.0 International License.
# To view a copy of this license, visit
# http://creativecommons.org/licenses/by-nc-sa/4.0/
# or send a letter to
# Creative Commons, PO Box 1866, Mountain View, CA 94042, USA.
#
# CIF created using the CSD Python API on 29 September 2022
# The structure has been converted into the P1 space group
# The structure has a 3D framework
# The original CSD entry EKETUL is in the monoclinic crystal system
# The framework has been calculated to contain at least 10.0% void space
# The void calculation uses a probe of radius 1.32A, grid spacing 0.4
#
###############################################################################

data_EKETUL
_chemical_formula_moiety         '(C80 H56 N22 O24 Tb6)n'
_symmetry_cell_setting           triclinic
_symmetry_space_group_name_H-M   'P 1'
_symmetry_Int_Tables_number      1
_space_group_name_Hall           'P 1'
loop_
_symmetry_equiv_pos_site_id
_symmetry_equiv_pos_as_xyz
1 x,y,z
_cell_length_a                   20.010(4)
_cell_length_b                   13.193(3)
_cell_length_c                   9.8950(19)
_cell_angle_alpha                90
_cell_angle_beta                 113.142(3)
_cell_angle_gamma                90
_cell_volume                     2402.01
loop_
_atom_site_label
_atom_site_type_symbol
_atom_site_fract_x
_atom_site_fract_y
_atom_site_fract_z
Tb5 Tb 0.0000 0.05871(2) 0.7500
Tb1 Tb 0.5000 0.44129(2) 0.2500
O1 O 0.41754(18) 0.4159(3) 0.3529(4)
O2 O 0.41092(17) 0.5067(3) 0.5357(3)
O3 O 0.54069(18) 0.6157(3) 0.2042(4)
O4 O 0.5000 0.7582(5) 0.2500
C1 C 0.3852(2) 0.4471(4) 0.4304(5)
C2 C 0.3082(2) 0.4099(4) 0.3915(5)
C3 C 0.2683(2) 0.3726(4) 0.2527(5)
H1 H 0.2888 0.3695 0.1831
C4 C 0.1964(2) 0.3392(4) 0.2168(5)
C5 C 0.1677(3) 0.3413(5) 0.3223(6)
H2 H 0.1204 0.3190 0.2993
C6 C 0.2086(3) 0.3761(5) 0.4619(6)
H3 H 0.1891 0.3753 0.5332
C7 C 0.2790(3) 0.4125(4) 0.4972(6)
H4 H 0.3060 0.4381 0.5905
C8 C 0.1538(2) 0.3053(4) 0.0647(5)
N2 N 0.1019(2) 0.2334(3) 0.0302(4)
H7 H 0.0909 0.2014 0.0943
N3 N 0.5000 0.6670(5) 0.2500
O5 O 0.45931(18) 0.6157(3) 0.2958(4)
O6 O 0.58246(18) 0.4159(3) 0.1471(4)
C11 C 0.6148(2) 0.4471(4) 0.0696(5)
C12 C 0.6918(2) 0.4099(4) 0.1085(5)
C13 C 0.7317(2) 0.3726(4) 0.2473(5)
H8 H 0.7112 0.3695 0.3169
C14 C 0.8036(2) 0.3392(4) 0.2832(5)
C15 C 0.8323(3) 0.3413(5) 0.1777(6)
H9 H 0.8796 0.3190 0.2007
C16 C 0.7914(3) 0.3761(5) 0.0381(6)
C17 C 0.7210(3) 0.4125(4) 0.0028(6)
C18 C 0.8462(2) 0.3053(4) 0.4353(5)
C19 C 0.8451(3) 0.3372(5) 0.5663(6)
H12 H 0.8148 0.3861 0.5798
C20 C 0.8981(3) 0.2820(4) 0.6741(6)
H13 H 0.9096 0.2892 0.7743
N4 N 0.9309(2) 0.2169(3) 0.6162(4)
N5 N 0.8981(2) 0.2334(3) 0.4698(4)
H14 H 0.9091 0.2014 0.4057
Tb3 Tb 0.5000 0.55871(2) 0.7500
Tb5_2 Tb 1.0000 0.05871(2) 0.7500
O8 O 0.58908(17) 0.4933(3) 0.4643(3)
O9 O 0.41092(17) 0.4933(3) 0.0357(3)
N6 N 0.4309(2) 0.2831(3) 0.1162(4)
N7 N 0.5691(2) 0.2831(3) 0.3838(4)
C9 C 0.1549(3) 0.3372(5) 0.9337(6)
H5 H 0.1852 0.3861 0.9202
C10 C 0.1019(3) 0.2820(4) 0.8259(6)
H6 H 0.0904 0.2892 0.7257
N1 N 0.0691(2) 0.2169(3) 0.8838(4)
O7 O 0.58908(17) 0.5067(3) 0.9643(3)
H10 H 0.8109 0.3753 0.9668
H11 H 0.6940 0.4381 0.9095
O3_2 O 0.04069(18) 0.1157(3) 0.2042(4)
O4_2 O -0.0000 0.2582(5) 0.2500
N3_2 N 0.0000 0.1670(5) 0.2500
O7_2 O 0.08908(17) 0.0067(3) 0.9643(3)
Tb1_2 Tb 0.0000 0.94129(2) 0.2500
O6_2 O 0.08246(18) 0.9159(3) 0.1471(4)
C11_2 C 0.1148(2) 0.9471(4) 0.0696(5)
C12_2 C 0.1918(2) 0.9099(4) 0.1085(5)
C13_2 C 0.2317(2) 0.8726(4) 0.2473(5)
H8_2 H 0.2112 0.8695 0.3169
C14_2 C 0.3036(2) 0.8392(4) 0.2832(5)
C15_2 C 0.3323(3) 0.8413(5) 0.1777(6)
H9_2 H 0.3796 0.8190 0.2007
C16_2 C 0.2914(3) 0.8761(5) 0.0381(6)
C17_2 C 0.2210(3) 0.9125(4) 0.0028(6)
C18_2 C 0.3462(2) 0.8053(4) 0.4353(5)
C19_2 C 0.3451(3) 0.8372(5) 0.5663(6)
H12_2 H 0.3148 0.8861 0.5798
C20_2 C 0.3981(3) 0.7820(4) 0.6741(6)
H13_2 H 0.4096 0.7892 0.7743
N4_2 N 0.4309(2) 0.7169(3) 0.6162(4)
N5_2 N 0.3981(2) 0.7334(3) 0.4698(4)
H14_2 H 0.4091 0.7014 0.4057
O8_2 O 0.08908(17) 0.9933(3) 0.4643(3)
N7_2 N 0.0691(2) 0.7831(3) 0.3838(4)
O2_2 O 0.91092(17) 0.0067(3) 0.5357(3)
O4_3 O 1.0000 0.2582(5) 0.2500
N3_3 N 1.0000 0.1670(5) 0.2500
O5_2 O 0.95931(18) 0.1157(3) 0.2958(4)
Tb1_3 Tb 1.0000 0.94129(2) 0.2500
O1_2 O 0.91754(18) 0.9159(3) 0.3529(4)
C1_2 C 0.8852(2) 0.9471(4) 0.4304(5)
C2_2 C 0.8082(2) 0.9099(4) 0.3915(5)
C3_2 C 0.7683(2) 0.8726(4) 0.2527(5)
H1_2 H 0.7888 0.8695 0.1831
C4_2 C 0.6964(2) 0.8392(4) 0.2168(5)
C5_2 C 0.6677(3) 0.8413(5) 0.3223(6)
H2_2 H 0.6204 0.8190 0.2993
C6_2 C 0.7086(3) 0.8761(5) 0.4619(6)
H3_2 H 0.6891 0.8753 0.5332
C7_2 C 0.7790(3) 0.9125(4) 0.4972(6)
H4_2 H 0.8060 0.9381 0.5905
C8_2 C 0.6538(2) 0.8053(4) 0.0647(5)
N2_2 N 0.6019(2) 0.7334(3) 0.0302(4)
H7_2 H 0.5909 0.7014 0.0943
O9_2 O 0.91092(17) 0.9933(3) 0.0357(3)
N6_2 N 0.9309(2) 0.7831(3) 0.1162(4)
C9_2 C 0.6549(3) 0.8372(5) 0.9337(6)
H5_2 H 0.6852 0.8861 0.9202
C10_2 C 0.6019(3) 0.7820(4) 0.8259(6)
H6_2 H 0.5904 0.7892 0.7257
N1_2 N 0.5691(2) 0.7169(3) 0.8838(4)
C9_3 C 0.8451(3) 0.6628(5) 0.0663(6)
H5_3 H 0.8148 0.6139 0.0798
C10_3 C 0.8981(3) 0.7180(4) 0.1741(6)
H6_3 H 0.9096 0.7108 0.2743
H10_2 H 0.1891 0.6247 0.0332
H11_2 H 0.3060 0.5619 0.0905
O1_3 O 0.58246(18) 0.5841(3) 0.6471(4)
O3_3 O 0.45931(18) 0.3843(3) 0.7958(4)
O4_4 O 0.5000 0.2418(5) 0.7500
C1_3 C 0.6148(2) 0.5529(4) 0.5696(5)
C2_3 C 0.6918(2) 0.5901(4) 0.6085(5)
C3_3 C 0.7317(2) 0.6274(4) 0.7473(5)
H1_3 H 0.7112 0.6305 0.8169
C4_3 C 0.8036(2) 0.6608(4) 0.7832(5)
C5_3 C 0.8323(3) 0.6587(5) 0.6777(6)
H2_3 H 0.8796 0.6810 0.7007
C6_3 C 0.7914(3) 0.6239(5) 0.5381(6)
H3_3 H 0.8109 0.6247 0.4668
C7_3 C 0.7210(3) 0.5875(4) 0.5028(6)
H4_3 H 0.6940 0.5619 0.4095
C8_3 C 0.8462(2) 0.6947(4) 0.9353(5)
N2_3 N 0.8981(2) 0.7666(3) 0.9698(4)
H7_3 H 0.9091 0.7986 0.9057
N3_4 N 0.5000 0.3330(5) 0.7500
O5_3 O 0.54069(18) 0.3843(3) 0.7042(4)
O6_3 O 0.41754(18) 0.5841(3) 0.8529(4)
C11_3 C 0.3852(2) 0.5529(4) 0.9304(5)
C12_3 C 0.3082(2) 0.5901(4) 0.8915(5)
C13_3 C 0.2683(2) 0.6274(4) 0.7527(5)
H8_3 H 0.2888 0.6305 0.6831
C14_3 C 0.1964(2) 0.6608(4) 0.7168(5)
C15_3 C 0.1677(3) 0.6587(5) 0.8223(6)
H9_3 H 0.1204 0.6810 0.7993
C16_3 C 0.2086(3) 0.6239(5) 0.9619(6)
C17_3 C 0.2790(3) 0.5875(4) 0.9972(6)
C18_3 C 0.1538(2) 0.6947(4) 0.5647(5)
C19_3 C 0.1549(3) 0.6628(5) 0.4337(6)
H12_3 H 0.1852 0.6139 0.4202
C20_3 C 0.1019(3) 0.7180(4) 0.3259(6)
H13_3 H 0.0904 0.7108 0.2257
N5_3 N 0.1019(2) 0.7666(3) 0.5302(4)
H14_3 H 0.0909 0.7986 0.5943
C9_4 C 0.3451(3) 0.1628(5) 0.0663(6)
H5_4 H 0.3148 0.1139 0.0798
C10_4 C 0.3981(3) 0.2180(4) 0.1741(6)
H6_4 H 0.4096 0.2108 0.2743
O1_4 O 0.08246(18) 0.0841(3) 0.6471(4)
C1_4 C 0.1148(2) 0.0529(4) 0.5696(5)
C2_4 C 0.1918(2) 0.0901(4) 0.6085(5)
C3_4 C 0.2317(2) 0.1274(4) 0.7473(5)
H1_4 H 0.2112 0.1305 0.8169
C4_4 C 0.3036(2) 0.1608(4) 0.7832(5)
C5_4 C 0.3323(3) 0.1587(5) 0.6777(6)
H2_4 H 0.3796 0.1810 0.7007
C6_4 C 0.2914(3) 0.1239(5) 0.5381(6)
H3_4 H 0.3109 0.1247 0.4668
C7_4 C 0.2210(3) 0.0875(4) 0.5028(6)
H4_4 H 0.1940 0.0619 0.4095
C8_4 C 0.3462(2) 0.1947(4) 0.9353(5)
N2_4 N 0.3981(2) 0.2666(3) 0.9698(4)
H7_4 H 0.4091 0.2986 0.9057
O4_5 O 0.0000 0.7418(5) 0.7500
N3_5 N 0.0000 0.8330(5) 0.7500
O5_4 O 0.04069(18) 0.8843(3) 0.7042(4)
O6_4 O 0.91754(18) 0.0841(3) 0.8529(4)
C11_4 C 0.8852(2) 0.0529(4) 0.9304(5)
C12_4 C 0.8082(2) 0.0901(4) 0.8915(5)
C13_4 C 0.7683(2) 0.1274(4) 0.7527(5)
H8_4 H 0.7888 0.1305 0.6831
C14_4 C 0.6964(2) 0.1608(4) 0.7168(5)
C15_4 C 0.6677(3) 0.1587(5) 0.8223(6)
H9_4 H 0.6204 0.1810 0.7993
C16_4 C 0.7086(3) 0.1239(5) 0.9619(6)
C17_4 C 0.7790(3) 0.0875(4) 0.9972(6)
C18_4 C 0.6538(2) 0.1947(4) 0.5647(5)
C19_4 C 0.6549(3) 0.1628(5) 0.4337(6)
H12_4 H 0.6852 0.1139 0.4202
C20_4 C 0.6019(3) 0.2180(4) 0.3259(6)
H13_4 H 0.5904 0.2108 0.2257
N5_4 N 0.6019(2) 0.2666(3) 0.5302(4)
H14_4 H 0.5909 0.2986 0.5943
O3_4 O 0.95931(18) 0.8843(3) 0.7958(4)
O4_6 O 1.0000 0.7418(5) 0.7500
N3_6 N 1.0000 0.8330(5) 0.7500
H10_3 H 0.3109 0.8753 0.9668
H11_3 H 0.1940 0.9381 0.9095
H10_4 H 0.6891 0.1247 0.0332
H11_4 H 0.8060 0.0619 0.0905
loop_
_geom_bond_atom_site_label_1
_geom_bond_atom_site_label_2
_geom_bond_site_symmetry_1
_geom_bond_site_symmetry_2
Tb1 O1 1_555 1_555
O1 C1 1_555 1_555
O2 C1 1_555 1_555
O3 Tb1 1_555 1_555
O4 N3 1_555 1_555
C1 C2 1_555 1_555
C2 C3 1_555 1_555
C3 H1 1_555 1_555
C4 C3 1_555 1_555
C5 C4 1_555 1_555
H2 C5 1_555 1_555
C6 C5 1_555 1_555
H3 C6 1_555 1_555
C7 C2 1_555 1_555
H4 C7 1_555 1_555
C8 C4 1_555 1_555
N2 C8 1_555 1_555
H7 N2 1_555 1_555
N3 O3 1_555 1_555
O5 Tb1 1_555 1_555
O6 Tb1 1_555 1_555
C11 O6 1_555 1_555
C12 C11 1_555 1_555
C13 C12 1_555 1_555
H8 C13 1_555 1_555
C14 C13 1_555 1_555
C15 C14 1_555 1_555
H9 C15 1_555 1_555
C16 C15 1_555 1_555
C17 C12 1_555 1_555
C18 C14 1_555 1_555
C19 C18 1_555 1_555
H12 C19 1_555 1_555
C20 C19 1_555 1_555
H13 C20 1_555 1_555
N4 C20 1_555 1_555
N5 C18 1_555 1_555
H14 N5 1_555 1_555
Tb3 O2 1_555 1_555
Tb5_2 N4 1_555 1_555
O8 Tb1 1_555 1_555
O9 Tb1 1_555 1_555
N6 Tb1 1_555 1_555
N7 Tb1 1_555 1_555
C6 C7 1_555 1_555
N3 O5 1_555 1_555
C16 C17 1_555 1_555
N4 N5 1_555 1_555
H5 C9 1_555 1_555
C10 C9 1_555 1_555
H6 C10 1_555 1_555
N1 C10 1_555 1_555
Tb3 O7 1_555 1_555
Tb5 N1 1_555 1_555
O4_2 N3_2 1_555 1_555
N3_2 O3_2 1_555 1_555
Tb5 O7_2 1_555 1_555
O6_2 Tb1_2 1_555 1_555
C11_2 O6_2 1_555 1_555
C12_2 C11_2 1_555 1_555
C13_2 C12_2 1_555 1_555
H8_2 C13_2 1_555 1_555
C14_2 C13_2 1_555 1_555
C15_2 C14_2 1_555 1_555
H9_2 C15_2 1_555 1_555
C16_2 C15_2 1_555 1_555
C17_2 C12_2 1_555 1_555
C18_2 C14_2 1_555 1_555
C19_2 C18_2 1_555 1_555
H12_2 C19_2 1_555 1_555
C20_2 C19_2 1_555 1_555
H13_2 C20_2 1_555 1_555
N4_2 C20_2 1_555 1_555
N5_2 C18_2 1_555 1_555
H14_2 N5_2 1_555 1_555
Tb3 N4_2 1_555 1_555
O8_2 Tb1_2 1_555 1_555
N7_2 Tb1_2 1_555 1_555
C16_2 C17_2 1_555 1_555
N4_2 N5_2 1_555 1_555
O4_3 N3_3 1_555 1_555
Tb5_2 O2_2 1_555 1_555
N3_3 O5_2 1_555 1_555
Tb1_3 O1_2 1_555 1_555
O1_2 C1_2 1_555 1_555
C1_2 C2_2 1_555 1_555
C2_2 C3_2 1_555 1_555
C3_2 H1_2 1_555 1_555
C4_2 C3_2 1_555 1_555
C5_2 C4_2 1_555 1_555
H2_2 C5_2 1_555 1_555
C6_2 C5_2 1_555 1_555
H3_2 C6_2 1_555 1_555
C7_2 C2_2 1_555 1_555
H4_2 C7_2 1_555 1_555
C8_2 C4_2 1_555 1_555
N2_2 C8_2 1_555 1_555
H7_2 N2_2 1_555 1_555
O9_2 Tb1_3 1_555 1_555
N6_2 Tb1_3 1_555 1_555
C6_2 C7_2 1_555 1_555
H5_2 C9_2 1_555 1_555
C10_2 C9_2 1_555 1_555
H6_2 C10_2 1_555 1_555
N1_2 C10_2 1_555 1_555
Tb3 N1_2 1_555 1_555
H5_3 C9_3 1_555 1_555
C10_3 C9_3 1_555 1_555
H6_3 C10_3 1_555 1_555
N6_2 C10_3 1_555 1_555
Tb3 O1_3 1_555 1_555
O1_3 C1_3 1_555 1_555
O8 C1_3 1_555 1_555
O3_3 Tb3 1_555 1_555
O4_4 N3_4 1_555 1_555
C1_3 C2_3 1_555 1_555
C2_3 C3_3 1_555 1_555
C3_3 H1_3 1_555 1_555
C4_3 C3_3 1_555 1_555
C5_3 C4_3 1_555 1_555
H2_3 C5_3 1_555 1_555
C6_3 C5_3 1_555 1_555
H3_3 C6_3 1_555 1_555
C7_3 C2_3 1_555 1_555
H4_3 C7_3 1_555 1_555
C8_3 C4_3 1_555 1_555
N2_3 C8_3 1_555 1_555
H7_3 N2_3 1_555 1_555
N3_4 O3_3 1_555 1_555
O5_3 Tb3 1_555 1_555
O6_3 Tb3 1_555 1_555
C11_3 O6_3 1_555 1_555
C12_3 C11_3 1_555 1_555
C13_3 C12_3 1_555 1_555
H8_3 C13_3 1_555 1_555
C14_3 C13_3 1_555 1_555
C15_3 C14_3 1_555 1_555
H9_3 C15_3 1_555 1_555
C16_3 C15_3 1_555 1_555
C17_3 C12_3 1_555 1_555
C18_3 C14_3 1_555 1_555
C19_3 C18_3 1_555 1_555
H12_3 C19_3 1_555 1_555
C20_3 C19_3 1_555 1_555
H13_3 C20_3 1_555 1_555
N7_2 C20_3 1_555 1_555
N5_3 C18_3 1_555 1_555
H14_3 N5_3 1_555 1_555
C6_3 C7_3 1_555 1_555
N3_4 O5_3 1_555 1_555
C16_3 C17_3 1_555 1_555
N7_2 N5_3 1_555 1_555
H5_4 C9_4 1_555 1_555
C10_4 C9_4 1_555 1_555
H6_4 C10_4 1_555 1_555
N6 C10_4 1_555 1_555
Tb5 O1_4 1_555 1_555
O1_4 C1_4 1_555 1_555
C1_4 C2_4 1_555 1_555
C2_4 C3_4 1_555 1_555
C3_4 H1_4 1_555 1_555
C4_4 C3_4 1_555 1_555
C5_4 C4_4 1_555 1_555
H2_4 C5_4 1_555 1_555
C6_4 C5_4 1_555 1_555
H3_4 C6_4 1_555 1_555
C7_4 C2_4 1_555 1_555
H4_4 C7_4 1_555 1_555
C8_4 C4_4 1_555 1_555
N2_4 C8_4 1_555 1_555
H7_4 N2_4 1_555 1_555
C6_4 C7_4 1_555 1_555
O4_5 N3_5 1_555 1_555
N3_5 O5_4 1_555 1_555
O6_4 Tb5_2 1_555 1_555
C11_4 O6_4 1_555 1_555
C12_4 C11_4 1_555 1_555
C13_4 C12_4 1_555 1_555
H8_4 C13_4 1_555 1_555
C14_4 C13_4 1_555 1_555
C15_4 C14_4 1_555 1_555
H9_4 C15_4 1_555 1_555
C16_4 C15_4 1_555 1_555
C17_4 C12_4 1_555 1_555
C18_4 C14_4 1_555 1_555
C19_4 C18_4 1_555 1_555
H12_4 C19_4 1_555 1_555
C20_4 C19_4 1_555 1_555
H13_4 C20_4 1_555 1_555
N7 C20_4 1_555 1_555
N5_4 C18_4 1_555 1_555
H14_4 N5_4 1_555 1_555
C16_4 C17_4 1_555 1_555
N7 N5_4 1_555 1_555
O4_6 N3_6 1_555 1_555
N3_6 O3_4 1_555 1_555

#END
