
###############################################################################
#
# This file contains modified crystal structure data generated from the
# MOF subset of the Cambridge Structural Database (CSD) v543 
# hosted by the Cambridge Crystallographic Data Centre (CCDC).
#
# This work is licensed under the Creative Commons
# Attribution-NonCommercial-ShareAlike 4.0 International License.
# To view a copy of this license, visit
# http://creativecommons.org/licenses/by-nc-sa/4.0/
# or send a letter to
# Creative Commons, PO Box 1866, Mountain View, CA 94042, USA.
#
# CIF created using the CSD Python API on 29 September 2022
# The structure has been converted into the P1 space group
# The structure has a 3D framework
# The original CSD entry EKOBUE is in the monoclinic crystal system
# The framework has been calculated to contain at least 10.0% void space
# The void calculation uses a probe of radius 1.32A, grid spacing 0.4
#
###############################################################################

data_EKOBUE
_chemical_formula_moiety         '(C120 H82 Ca8 O39)n'
_symmetry_cell_setting           triclinic
_symmetry_space_group_name_H-M   'P 1'
_symmetry_Int_Tables_number      1
_space_group_name_Hall           'P 1'
loop_
_symmetry_equiv_pos_site_id
_symmetry_equiv_pos_as_xyz
1 x,y,z
_cell_length_a                   16.2796(5)
_cell_length_b                   11.8977(3)
_cell_length_c                   18.9918(6)
_cell_angle_alpha                90
_cell_angle_beta                 100.6480(10)
_cell_angle_gamma                90
_cell_volume                     3615.18
loop_
_atom_site_label
_atom_site_type_symbol
_atom_site_fract_x
_atom_site_fract_y
_atom_site_fract_z
O4 O 0.03899(14) 0.06977(18) 0.43700(11)
H21 H 0.086(2) 0.062(3) 0.412(2)
H22 H 0.019(2) 0.123(3) 0.414(2)
Ca8 Ca 0.04225(3) 0.09649(4) 0.56930(3)
Ca5 Ca 0.06205(3) 0.63722(4) 0.52131(3)
O12 O 0.09229(11) 0.83169(14) 0.49373(9)
O14 O 0.08421(10) 0.44527(15) 0.50444(10)
O15 O 0.07798(11) 0.27235(15) 0.54212(10)
O19 O 0.02659(12) 0.82680(16) 0.33981(10)
O17 O 0.84775(11) 0.02422(15) 0.44052(10)
Ca1 Ca 0.93795(3) 0.36278(4) 0.47869(3)
Ca2 Ca 0.95775(3) 0.90351(4) 0.43070(3)
O2 O 0.91579(10) 0.55473(15) 0.49556(10)
O3 O 0.92202(11) 0.72765(15) 0.45788(10)
O5 O 0.15225(11) 0.97578(15) 0.55948(10)
O6 O 0.92835(11) 0.38156(15) 0.60385(10)
H1 H 0.8767 0.4013 0.6085
H2 H 0.9595 0.4392 0.6235
O7 O 0.53282(11) 0.93828(16) 0.13929(10)
O8 O 0.52659(12) 0.67320(16) 0.83981(10)
O9 O 0.79782(11) 0.36618(16) 0.41288(10)
H3 H 0.7537 0.3256 0.4213
H4 H 0.7771 0.4083 0.3741
O10 O 0.53195(12) 0.75589(16) 0.12148(10)
O11 O 0.40912(12) 0.58400(17) 0.79874(10)
C1 C 0.79073(16) 0.6639(2) 0.48007(14)
C2 C 0.23849(16) 0.8597(2) 0.50301(14)
C3 C 0.48635(16) 0.7842(2) 0.37617(14)
C4 C 0.51961(16) 0.6988(2) 0.57604(15)
C5 C 0.53642(16) 0.7241(2) 0.50312(15)
C6 C 0.39351(16) 0.8021(2) 0.46904(14)
C7 C 0.50997(16) 0.8196(2) 0.23552(15)
C8 C 0.48763(17) 0.6578(2) 0.71374(15)
C9 C 0.47612(17) 0.7673(2) 0.45224(15)
C10 C 0.15511(17) 0.8913(2) 0.52065(15)
C11 C 0.24349(17) 0.7839(2) 0.44835(15)
H5 H 0.1939 0.7504 0.4227
C12 C 0.88101(16) 0.6467(2) 0.47681(14)
C13 C 0.62380(16) 0.7015(2) 0.49273(15)
C14 C 0.31154(17) 0.9079(2) 0.53932(15)
H6 H 0.3091 0.9615 0.5759
C15 C 0.31974(17) 0.7564(2) 0.43077(15)
H7 H 0.3219 0.7061 0.3923
C16 C 0.43840(17) 0.6082(2) 0.65461(15)
H8 H 0.3935 0.5604 0.6607
C17 C 0.51964(18) 0.7137(2) 0.26600(15)
H9 H 0.5339 0.6522 0.2387
C18 C 0.66650(17) 0.6060(2) 0.52159(15)
H10 H 0.6389 0.5532 0.5467
C19 C 0.38796(17) 0.8790(2) 0.52290(15)
H11 H 0.4375 0.9123 0.5489
C20 C 0.74831(17) 0.5862(2) 0.51442(15)
H12 H 0.7755 0.5191 0.5331
C21 C 0.45444(17) 0.6282(2) 0.58654(15)
H13 H 0.4205 0.5934 0.5464
C22 C 0.74920(17) 0.7605(2) 0.45201(16)
H14 H 0.7774 0.8145 0.4283
C23 C 0.50880(17) 0.6962(2) 0.33563(15)
H15 H 0.5168 0.6231 0.3560
C24 C 0.47231(18) 0.6370(2) 0.78807(16)
C25 C 0.47266(17) 0.8895(2) 0.34412(15)
H16 H 0.4537 0.9496 0.3699
C26 C 0.48633(18) 0.9076(2) 0.27544(15)
H17 H 0.4795 0.9808 0.2553
C27 C 0.56918(18) 0.7460(2) 0.63587(15)
H18 H 0.6150 0.7923 0.6301
C28 C 0.55323(18) 0.7268(2) 0.70388(16)
H19 H 0.5874 0.7612 0.7441
C29 C 0.52532(16) 0.8396(3) 0.16099(15)
C30 C 0.66710(17) 0.7784(2) 0.45837(16)
H20 H 0.6396 0.8448 0.4388
Ca3 Ca 0.56205(3) 0.86278(4) 0.02131(3)
Ca9 Ca 0.45775(3) 0.59649(4) 0.93070(3)
O13 O 0.90771(11) 0.16831(14) 0.50627(9)
O16 O 0.96101(14) 0.93023(18) 0.56300(11)
O18 O 0.96718(11) 0.43828(16) 0.36071(10)
O20 O 0.96805(12) 0.25589(16) 0.37852(10)
O21 O 0.90912(12) 0.91600(17) 0.29874(10)
O1 O 0.40771(11) 0.33169(14) 0.00627(9)
C3_2 C 0.01365(16) 0.2842(2) 0.12383(14)
C6_2 C 0.10649(16) 0.3021(2) 0.03096(14)
C9_2 C 0.02388(17) 0.2673(2) 0.04776(15)
C11_2 C 0.25651(17) 0.2839(2) 0.05165(15)
H5_2 H 0.3061 0.2504 0.0773
C15_2 C 0.18026(17) 0.2564(2) 0.06923(15)
H7_2 H 0.1781 0.2061 0.1077
C25_2 C 0.02734(17) 0.3895(2) 0.15588(15)
H16_2 H 0.0463 0.4496 0.1301
C26_2 C 0.01367(18) 0.4076(2) 0.22456(15)
H17_2 H 0.0205 0.4808 0.2447
Ca6 Ca 0.54225(3) 0.40351(4) 0.06930(3)
O5_2 O 0.34775(11) 0.47578(15) 0.94052(10)
O11_2 O 0.09088(12) 0.08400(17) 0.70126(10)
C2_2 C 0.26151(16) 0.3597(2) 0.99699(14)
C8_2 C 0.01237(17) 0.1578(2) 0.78626(15)
C10_2 C 0.34489(17) 0.3913(2) 0.97935(15)
C14_2 C 0.18846(17) 0.4079(2) 0.96068(15)
H6_2 H 0.1909 0.4615 0.9241
C16_2 C 0.06160(17) 0.1082(2) 0.84539(15)
H8_2 H 0.1065 0.0604 0.8393
C19_2 C 0.11204(17) 0.3790(2) 0.97710(15)
H11_2 H 0.0625 0.4123 0.9511
C21_2 C 0.04556(17) 0.1282(2) 0.91346(15)
H13_2 H 0.0795 0.0934 0.9536
C24_2 C 0.02769(18) 0.1370(2) 0.71193(16)
Ca4 Ca 0.43795(3) 0.13722(4) 0.97869(3)
O2_2 O 0.58421(10) 0.05473(15) 0.00444(10)
O3_2 O 0.57798(11) 0.22765(15) 0.04212(10)
O4_2 O 0.46101(14) 0.56977(18) 0.06300(11)
C1_2 C 0.70927(16) 0.1639(2) 0.01993(14)
C7_2 C 0.99003(16) 0.3196(2) 0.26448(15)
C12_2 C 0.61899(16) 0.1467(2) 0.02319(14)
C13_2 C 0.87620(16) 0.2015(2) 0.00727(15)
C17_2 C 0.98036(18) 0.2137(2) 0.23400(15)
H9_2 H 0.9661 0.1522 0.2613
C22_2 C 0.75080(17) 0.2605(2) 0.04799(16)
H14_2 H 0.7226 0.3145 0.0717
C23_2 C 0.99120(17) 0.1962(2) 0.16437(15)
H15_2 H 0.9832 0.1231 0.1440
C29_2 C 0.97468(16) 0.3396(3) 0.33901(15)
C30_2 C 0.83290(17) 0.2784(2) 0.04163(16)
H20_2 H 0.8604 0.3448 0.0612
H21_2 H 0.414(2) 0.562(3) 0.088(2)
H22_2 H 0.481(2) 0.623(3) 0.086(2)
O17_2 O 0.65225(11) 0.52422(15) 0.05948(10)
O19_2 O 0.47341(12) 0.32680(16) 0.16019(10)
O21_2 O 0.59088(12) 0.41600(17) 0.20126(10)
O8_2 O 0.97341(12) 0.17320(16) 0.66019(10)
C4_2 C 0.98039(16) 0.1988(2) 0.92396(15)
C5_2 C 0.96358(16) 0.2241(2) 0.99688(15)
C18_2 C 0.83350(17) 0.1060(2) 0.97841(15)
H10_2 H 0.8611 0.0532 0.9533
C20_2 C 0.75169(17) 0.0862(2) 0.98558(15)
H12_2 H 0.7245 0.0191 0.9669
C27_2 C 0.93082(18) 0.2460(2) 0.86413(15)
H18_2 H 0.8850 0.2923 0.8699
C28_2 C 0.94677(18) 0.2268(2) 0.79612(16)
H19_2 H 0.9126 0.2612 0.7559
O16_2 O 0.53899(14) 0.43023(18) 0.93700(11)
O9_2 O 0.70218(11) 0.86618(16) 0.08712(10)
H3_2 H 0.7463 0.8256 0.0787
H4_2 H 0.7229 0.9083 0.1259
O6_2 O 0.57165(11) 0.88156(15) 0.89615(10)
H1_2 H 0.6233 0.9013 0.8915
H2_2 H 0.5405 0.9392 0.8765
O13_2 O 0.59229(11) 0.66831(14) 0.99373(9)
O14_2 O 0.41579(10) 0.94527(15) 0.99556(10)
O15_2 O 0.42202(11) 0.77235(15) 0.95788(10)
O6_3 O 0.07165(11) 0.61844(15) 0.39615(10)
H1_3 H 0.1233 0.5987 0.3915
H2_3 H 0.0405 0.5608 0.3765
O7_2 O 0.46718(11) 0.06172(16) 0.86071(10)
O9_3 O 0.20218(11) 0.63382(16) 0.58712(10)
H3_3 H 0.2463 0.6744 0.5787
H4_3 H 0.2229 0.5917 0.6259
O10_2 O 0.46805(12) 0.24411(16) 0.87852(10)
C1_3 C 0.20927(16) 0.3361(2) 0.51993(14)
C2_3 C 0.76151(16) 0.1403(2) 0.49699(14)
C3_3 C 0.51365(16) 0.2158(2) 0.62383(14)
C4_3 C 0.48039(16) 0.3012(2) 0.42396(15)
C5_3 C 0.46358(16) 0.2759(2) 0.49688(15)
C6_3 C 0.60649(16) 0.1979(2) 0.53096(14)
C7_3 C 0.49003(16) 0.1804(2) 0.76448(15)
C8_3 C 0.51237(17) 0.3422(2) 0.28626(15)
C9_3 C 0.52388(17) 0.2327(2) 0.54776(15)
C10_3 C 0.84489(17) 0.1087(2) 0.47935(15)
C11_3 C 0.75651(17) 0.2161(2) 0.55165(15)
H5_3 H 0.8061 0.2496 0.5773
C12_3 C 0.11899(16) 0.3533(2) 0.52319(14)
C13_3 C 0.37620(16) 0.2985(2) 0.50727(15)
C14_3 C 0.68846(17) 0.0921(2) 0.46068(15)
H6_3 H 0.6909 0.0385 0.4241
C15_3 C 0.68026(17) 0.2436(2) 0.56923(15)
H7_3 H 0.6781 0.2939 0.6077
C16_3 C 0.56160(17) 0.3918(2) 0.34539(15)
H8_3 H 0.6065 0.4396 0.3393
C17_3 C 0.48036(18) 0.2863(2) 0.73400(15)
H9_3 H 0.4661 0.3478 0.7613
C18_3 C 0.33350(17) 0.3940(2) 0.47841(15)
H10_3 H 0.3611 0.4468 0.4533
C19_3 C 0.61204(17) 0.1210(2) 0.47710(15)
H11_3 H 0.5625 0.0877 0.4511
C20_3 C 0.25169(17) 0.4138(2) 0.48558(15)
H12_3 H 0.2245 0.4809 0.4669
C21_3 C 0.54556(17) 0.3718(2) 0.41346(15)
H13_3 H 0.5795 0.4066 0.4536
C22_3 C 0.25080(17) 0.2395(2) 0.54799(16)
H14_3 H 0.2226 0.1855 0.5717
C23_3 C 0.49120(17) 0.3038(2) 0.66437(15)
H15_3 H 0.4832 0.3769 0.6440
C24_3 C 0.52769(18) 0.3630(2) 0.21193(16)
C25_3 C 0.52734(17) 0.1105(2) 0.65588(15)
H16_3 H 0.5463 0.0504 0.6301
C26_3 C 0.51367(18) 0.0924(2) 0.72456(15)
H17_3 H 0.5205 0.0192 0.7447
C27_3 C 0.43082(18) 0.2540(2) 0.36413(15)
H18_3 H 0.3850 0.2077 0.3699
C28_3 C 0.44677(18) 0.2732(2) 0.29612(16)
H19_3 H 0.4126 0.2388 0.2559
C29_3 C 0.47468(16) 0.1604(3) 0.83901(15)
C30_3 C 0.33290(17) 0.2216(2) 0.54163(16)
H20_3 H 0.3604 0.1552 0.5612
O18_2 O 0.03282(11) 0.56172(16) 0.63929(10)
O20_2 O 0.03195(12) 0.74411(16) 0.62148(10)
H21_3 H 0.914(2) 0.938(3) 0.588(2)
H22_3 H 0.981(2) 0.877(3) 0.586(2)
O6_4 O 0.42835(11) 0.11844(15) 0.10385(10)
H1_4 H 0.3767 0.0987 0.1085
H2_4 H 0.4595 0.0608 0.1235
O9_4 O 0.29782(11) 0.13382(16) 0.91288(10)
H3_4 H 0.2537 0.1744 0.9213
H4_4 H 0.2771 0.0917 0.8741
C4_4 C 0.01961(16) 0.8012(2) 0.07604(15)
C5_4 C 0.03642(16) 0.7759(2) 0.00312(15)
C18_4 C 0.16650(17) 0.8940(2) 0.02159(15)
H10_4 H 0.1389 0.9468 0.0467
C20_4 C 0.24831(17) 0.9138(2) 0.01442(15)
H12_4 H 0.2755 0.9809 0.0331
C27_4 C 0.06918(18) 0.7540(2) 0.13587(15)
H18_4 H 0.1150 0.7077 0.1301
C28_4 C 0.05323(18) 0.7732(2) 0.20388(16)
H19_4 H 0.0874 0.7388 0.2441
C1_4 C 0.29073(16) 0.8361(2) 0.98007(14)
C7_4 C 0.00997(16) 0.6804(2) 0.73552(15)
C12_4 C 0.38101(16) 0.8533(2) 0.97681(14)
C13_4 C 0.12380(16) 0.7985(2) 0.99273(15)
C17_4 C 0.01964(18) 0.7863(2) 0.76600(15)
H9_4 H 0.0339 0.8478 0.7387
C22_4 C 0.24920(17) 0.7395(2) 0.95201(16)
H14_4 H 0.2774 0.6855 0.9283
C23_4 C 0.00880(17) 0.8038(2) 0.83563(15)
H15_4 H 0.0168 0.8769 0.8560
C29_4 C 0.02532(16) 0.6604(3) 0.66099(15)
C30_4 C 0.16710(17) 0.7216(2) 0.95837(16)
H20_4 H 0.1396 0.6552 0.9388
H21_4 H 0.586(2) 0.438(3) 0.912(2)
H22_4 H 0.519(2) 0.377(3) 0.914(2)
C2_4 C 0.73849(16) 0.6403(2) 0.00301(14)
C8_4 C 0.98763(17) 0.8422(2) 0.21374(15)
C10_4 C 0.65511(17) 0.6087(2) 0.02065(15)
C14_4 C 0.81154(17) 0.5921(2) 0.03932(15)
H6_4 H 0.8091 0.5385 0.0759
C16_4 C 0.93840(17) 0.8918(2) 0.15461(15)
H8_4 H 0.8935 0.9396 0.1607
C19_4 C 0.88796(17) 0.6210(2) 0.02290(15)
H11_4 H 0.9375 0.5877 0.0489
C21_4 C 0.95444(17) 0.8718(2) 0.08654(15)
H13_4 H 0.9205 0.9066 0.0464
C24_4 C 0.97231(18) 0.8630(2) 0.28807(16)
C3_4 C 0.98635(16) 0.7158(2) 0.87617(14)
C6_4 C 0.89351(16) 0.6979(2) 0.96904(14)
C9_4 C 0.97612(17) 0.7327(2) 0.95224(15)
C11_4 C 0.74349(17) 0.7161(2) 0.94835(15)
H5_4 H 0.6939 0.7496 0.9227
C15_4 C 0.81974(17) 0.7436(2) 0.93077(15)
H7_4 H 0.8219 0.7939 0.8923
C25_4 C 0.97266(17) 0.6105(2) 0.84412(15)
H16_4 H 0.9537 0.5504 0.8699
C26_4 C 0.98633(18) 0.5924(2) 0.77544(15)
H17_4 H 0.9795 0.5192 0.7553
loop_
_geom_bond_atom_site_label_1
_geom_bond_atom_site_label_2
_geom_bond_site_symmetry_1
_geom_bond_site_symmetry_2
H21 O4 1_555 1_555
H22 O4 1_555 1_555
Ca8 O4 1_555 1_555
Ca5 O12 1_555 1_555
Ca5 O14 1_555 1_555
Ca1 O2 1_555 1_555
Ca2 O3 1_555 1_555
O12 C10 1_555 1_555
O2 C12 1_555 1_555
O3 C12 1_555 1_555
O5 C10 1_555 1_555
O6 Ca1 1_555 1_555
H1 O6 1_555 1_555
H2 O6 1_555 1_555
O7 C29 1_555 1_555
O8 C24 1_555 1_555
O9 Ca1 1_555 1_555
H3 O9 1_555 1_555
H4 O9 1_555 1_555
O10 C29 1_555 1_555
O11 C24 1_555 1_555
C1 C12 1_555 1_555
C2 C10 1_555 1_555
C3 C9 1_555 1_555
C4 C5 1_555 1_555
C5 C9 1_555 1_555
C6 C9 1_555 1_555
C7 C17 1_555 1_555
C8 C16 1_555 1_555
C11 C2 1_555 1_555
H5 C11 1_555 1_555
C13 C5 1_555 1_555
C14 C2 1_555 1_555
H6 C14 1_555 1_555
C15 C6 1_555 1_555
H7 C15 1_555 1_555
C16 H8 1_555 1_555
C17 H9 1_555 1_555
C18 C13 1_555 1_555
H10 C18 1_555 1_555
C19 C6 1_555 1_555
H11 C19 1_555 1_555
C20 C1 1_555 1_555
H12 C20 1_555 1_555
C21 C4 1_555 1_555
H13 C21 1_555 1_555
C22 C1 1_555 1_555
H14 C22 1_555 1_555
C23 C3 1_555 1_555
H15 C23 1_555 1_555
C24 C8 1_555 1_555
C25 C3 1_555 1_555
H16 C25 1_555 1_555
C26 C7 1_555 1_555
H17 C26 1_555 1_555
C27 C4 1_555 1_555
H18 C27 1_555 1_555
C28 C8 1_555 1_555
H19 C28 1_555 1_555
C29 C7 1_555 1_555
C30 C13 1_555 1_555
H20 C30 1_555 1_555
Ca3 O7 1_555 1_555
Ca9 O8 1_555 1_555
O13 Ca1 1_555 1_555
O16 Ca2 1_555 1_555
O18 Ca1 1_555 1_555
O20 Ca1 1_555 1_555
O21 Ca2 1_555 1_555
O10 Ca3 1_555 1_555
O11 Ca9 1_555 1_555
C11 C15 1_555 1_555
C14 C19 1_555 1_555
C16 C21 1_555 1_555
C17 C23 1_555 1_555
C18 C20 1_555 1_555
C22 C30 1_555 1_555
C25 C26 1_555 1_555
C27 C28 1_555 1_555
C3_2 C9_2 1_555 1_555
C6_2 C9_2 1_555 1_555
H5_2 C11_2 1_555 1_555
C15_2 C6_2 1_555 1_555
H7_2 C15_2 1_555 1_555
C25_2 C3_2 1_555 1_555
H16_2 C25_2 1_555 1_555
H17_2 C26_2 1_555 1_555
Ca6 O1 1_555 1_555
C11_2 C15_2 1_555 1_555
C25_2 C26_2 1_555 1_555
O5_2 C10_2 1_555 1_555
O11_2 C24_2 1_555 1_555
C2_2 C10_2 1_555 1_555
C8_2 C16_2 1_555 1_555
C14_2 C2_2 1_555 1_555
H6_2 C14_2 1_555 1_555
C16_2 H8_2 1_555 1_555
H11_2 C19_2 1_555 1_555
H13_2 C21_2 1_555 1_555
C24_2 C8_2 1_555 1_555
Ca9 O5_2 1_555 1_555
O11_2 Ca8 1_555 1_555
C14_2 C19_2 1_555 1_555
C16_2 C21_2 1_555 1_555
Ca6 O3_2 1_555 1_555
O2_2 C12_2 1_555 1_555
O3_2 C12_2 1_555 1_555
O4_2 Ca6 1_555 1_555
O18 C29_2 1_555 1_555
O20 C29_2 1_555 1_555
C1_2 C12_2 1_555 1_555
C7_2 C17_2 1_555 1_555
C17_2 H9_2 1_555 1_555
C22_2 C1_2 1_555 1_555
H14_2 C22_2 1_555 1_555
H15_2 C23_2 1_555 1_555
C29_2 C7_2 1_555 1_555
C30_2 C13_2 1_555 1_555
H20_2 C30_2 1_555 1_555
H21_2 O4_2 1_555 1_555
H22_2 O4_2 1_555 1_555
O17_2 Ca6 1_555 1_555
O19_2 Ca6 1_555 1_555
O21_2 Ca6 1_555 1_555
C17_2 C23_2 1_555 1_555
C22_2 C30_2 1_555 1_555
C4_2 C5_2 1_555 1_555
H10_2 C18_2 1_555 1_555
H12_2 C20_2 1_555 1_555
C27_2 C4_2 1_555 1_555
H18_2 C27_2 1_555 1_555
H19_2 C28_2 1_555 1_555
C18_2 C20_2 1_555 1_555
C27_2 C28_2 1_555 1_555
Ca9 O16_2 1_555 1_555
O9_2 Ca3 1_555 1_555
H3_2 O9_2 1_555 1_555
H4_2 O9_2 1_555 1_555
H1_2 O6_2 1_555 1_555
H2_2 O6_2 1_555 1_555
Ca8 O15 1_555 1_555
O13 C10_3 1_555 1_555
O14 C12_3 1_555 1_555
O15 C12_3 1_555 1_555
O17 C10_3 1_555 1_555
O6_3 Ca5 1_555 1_555
H1_3 O6_3 1_555 1_555
H2_3 O6_3 1_555 1_555
O7_2 C29_3 1_555 1_555
O19_2 C24_3 1_555 1_555
O9_3 Ca5 1_555 1_555
H3_3 O9_3 1_555 1_555
H4_3 O9_3 1_555 1_555
O10_2 C29_3 1_555 1_555
O21_2 C24_3 1_555 1_555
C1_3 C12_3 1_555 1_555
C2_3 C10_3 1_555 1_555
C3_3 C9_3 1_555 1_555
C4_3 C5_3 1_555 1_555
C5_3 C9_3 1_555 1_555
C6_3 C9_3 1_555 1_555
C7_3 C17_3 1_555 1_555
C8_3 C16_3 1_555 1_555
C11_3 C2_3 1_555 1_555
H5_3 C11_3 1_555 1_555
C13_3 C5_3 1_555 1_555
C14_3 C2_3 1_555 1_555
H6_3 C14_3 1_555 1_555
C15_3 C6_3 1_555 1_555
H7_3 C15_3 1_555 1_555
C16_3 H8_3 1_555 1_555
C17_3 H9_3 1_555 1_555
C18_3 C13_3 1_555 1_555
H10_3 C18_3 1_555 1_555
C19_3 C6_3 1_555 1_555
H11_3 C19_3 1_555 1_555
C20_3 C1_3 1_555 1_555
H12_3 C20_3 1_555 1_555
C21_3 C4_3 1_555 1_555
H13_3 C21_3 1_555 1_555
C22_3 C1_3 1_555 1_555
H14_3 C22_3 1_555 1_555
C23_3 C3_3 1_555 1_555
H15_3 C23_3 1_555 1_555
C24_3 C8_3 1_555 1_555
C25_3 C3_3 1_555 1_555
H16_3 C25_3 1_555 1_555
C26_3 C7_3 1_555 1_555
H17_3 C26_3 1_555 1_555
C27_3 C4_3 1_555 1_555
H18_3 C27_3 1_555 1_555
C28_3 C8_3 1_555 1_555
H19_3 C28_3 1_555 1_555
C29_3 C7_3 1_555 1_555
C30_3 C13_3 1_555 1_555
H20_3 C30_3 1_555 1_555
Ca4 O7_2 1_555 1_555
O18_2 Ca5 1_555 1_555
O20_2 Ca5 1_555 1_555
O10_2 Ca4 1_555 1_555
C11_3 C15_3 1_555 1_555
C14_3 C19_3 1_555 1_555
C16_3 C21_3 1_555 1_555
C17_3 C23_3 1_555 1_555
C18_3 C20_3 1_555 1_555
C22_3 C30_3 1_555 1_555
C25_3 C26_3 1_555 1_555
C27_3 C28_3 1_555 1_555
H21_3 O16 1_555 1_555
H22_3 O16 1_555 1_555
H1_4 O6_4 1_555 1_555
H2_4 O6_4 1_555 1_555
O9_4 Ca4 1_555 1_555
H3_4 O9_4 1_555 1_555
H4_4 O9_4 1_555 1_555
C4_4 C5_4 1_555 1_555
H10_4 C18_4 1_555 1_555
H12_4 C20_4 1_555 1_555
C27_4 C4_4 1_555 1_555
H18_4 C27_4 1_555 1_555
H19_4 C28_4 1_555 1_555
C18_4 C20_4 1_555 1_555
C27_4 C28_4 1_555 1_555
Ca9 O15_2 1_555 1_555
O14_2 C12_4 1_555 1_555
O15_2 C12_4 1_555 1_555
O18_2 C29_4 1_555 1_555
O20_2 C29_4 1_555 1_555
C1_4 C12_4 1_555 1_555
C7_4 C17_4 1_555 1_555
C17_4 H9_4 1_555 1_555
C22_4 C1_4 1_555 1_555
H14_4 C22_4 1_555 1_555
H15_4 C23_4 1_555 1_555
C29_4 C7_4 1_555 1_555
C30_4 C13_4 1_555 1_555
H20_4 C30_4 1_555 1_555
H21_4 O16_2 1_555 1_555
H22_4 O16_2 1_555 1_555
O13_2 Ca9 1_555 1_555
C17_4 C23_4 1_555 1_555
C22_4 C30_4 1_555 1_555
O17_2 C10_4 1_555 1_555
O21 C24_4 1_555 1_555
C2_4 C10_4 1_555 1_555
C8_4 C16_4 1_555 1_555
C14_4 C2_4 1_555 1_555
H6_4 C14_4 1_555 1_555
C16_4 H8_4 1_555 1_555
H11_4 C19_4 1_555 1_555
H13_4 C21_4 1_555 1_555
C24_4 C8_4 1_555 1_555
C14_4 C19_4 1_555 1_555
C16_4 C21_4 1_555 1_555
C3_4 C9_4 1_555 1_555
C6_4 C9_4 1_555 1_555
H5_4 C11_4 1_555 1_555
C15_4 C6_4 1_555 1_555
H7_4 C15_4 1_555 1_555
C25_4 C3_4 1_555 1_555
H16_4 C25_4 1_555 1_555
H17_4 C26_4 1_555 1_555
C11_4 C15_4 1_555 1_555
C25_4 C26_4 1_555 1_555

#END
