
###############################################################################
#
# This file contains modified crystal structure data generated from the
# MOF subset of the Cambridge Structural Database (CSD) v543 
# hosted by the Cambridge Crystallographic Data Centre (CCDC).
#
# This work is licensed under the Creative Commons
# Attribution-NonCommercial-ShareAlike 4.0 International License.
# To view a copy of this license, visit
# http://creativecommons.org/licenses/by-nc-sa/4.0/
# or send a letter to
# Creative Commons, PO Box 1866, Mountain View, CA 94042, USA.
#
# CIF created using the CSD Python API on 29 September 2022
# The structure has been converted into the P1 space group
# The structure has a 3D framework
# The original CSD entry EKOFOC is in the tetragonal crystal system
# The framework has been calculated to contain at least 10.0% void space
# The void calculation uses a probe of radius 1.32A, grid spacing 0.4
#
###############################################################################

data_EKOFOC
_chemical_formula_moiety         '(C88 H72 N16 O16 Zn8)n'
_symmetry_cell_setting           triclinic
_symmetry_space_group_name_H-M   'P 1'
_symmetry_Int_Tables_number      1
_space_group_name_Hall           'P 1'
loop_
_symmetry_equiv_pos_site_id
_symmetry_equiv_pos_as_xyz
1 x,y,z
_cell_length_a                   14.1883(6)
_cell_length_b                   14.1868(6)
_cell_length_c                   13.5156(8)
_cell_angle_alpha                90
_cell_angle_beta                 90
_cell_angle_gamma                90
_cell_volume                     2720.51
loop_
_atom_site_label
_atom_site_type_symbol
_atom_site_fract_x
_atom_site_fract_y
_atom_site_fract_z
Zn1 Zn 0.0000 0.5000 0.2088(2)
O3 O 0.0970(3) 0.4555(3) 0.1135(3)
O4 O 0.1920(3) 0.4188(3) 0.2366(3)
C12 C 0.1685(4) 0.4193(4) 0.1472(4)
C13 C 0.2290(3) 0.3691(3) 0.0735(3)
C14 C 0.3042(5) 0.3148(5) 0.1021(5)
H10 H 0.3177 0.3086 0.1691
C15 C 0.3604(4) 0.2692(5) 0.0337(4)
H11 H 0.4131 0.2352 0.0541
N6 N 0.0413(3) 0.6197(3) 0.2734(3)
Zn3 Zn 0.5000 1.0000 0.7088(2)
N1 N 0.6096(3) 0.7718(3) 0.8604(3)
N2 N 0.5413(3) 0.8803(3) 0.7734(3)
C5 C 0.6632(4) 0.7250(4) 0.9333(4)
C6 C 0.7395(4) 0.6736(4) 0.9053(4)
H3 H 0.7546 0.6688 0.8385
C7 C 0.7949(4) 0.6284(4) 0.9743(4)
H4 H 0.8485 0.5960 0.9541
C8 C 0.5916(3) 0.8665(3) 0.8522(4)
C9 C 0.5253(4) 0.7966(4) 0.7283(4)
H5 H 0.4909 0.7882 0.6704
C10 C 0.5669(5) 0.7276(4) 0.7805(5)
H6 H 0.5671 0.6635 0.7661
C11 C 0.6276(4) 0.9383(4) 0.9203(4)
H7 H 0.6631 0.9843 0.8839
H8 H 0.6676 0.9091 0.9687
H9 H 0.5757 0.9686 0.9530
H5_2 H 0.0091 0.2882 0.1704
N3 N 0.1096(3) 0.7282(3) 0.3604(3)
O3_2 O 0.4030(3) 0.9555(3) 0.6135(3)
O4_2 O 0.3080(3) 0.9188(3) 0.7366(3)
C12_2 C 0.3315(4) 0.9193(4) 0.6472(4)
C13_2 C 0.2710(3) 0.8691(3) 0.5735(3)
C14_2 C 0.1958(5) 0.8148(5) 0.6021(5)
H10_2 H 0.1823 0.8086 0.6691
C15_2 C 0.1396(4) 0.7692(5) 0.5337(4)
H11_2 H 0.0869 0.7352 0.5541
C16 C 0.1632(4) 0.7750(4) 0.4333(4)
C17 C 0.2395(4) 0.8264(4) 0.4053(4)
H12 H 0.2546 0.8312 0.3385
C18 C 0.2949(4) 0.8716(4) 0.4743(4)
H13 H 0.3485 0.9040 0.4541
C19 C 0.0916(3) 0.6335(3) 0.3522(4)
C20 C 0.0253(4) 0.7034(4) 0.2283(4)
C21 C 0.0669(5) 0.7724(4) 0.2805(5)
H15 H 0.0671 0.8365 0.2661
C22 C 0.1276(4) 0.5617(4) 0.4203(4)
H16 H 0.1631 0.5157 0.3839
H17 H 0.1676 0.5909 0.4687
H18 H 0.0757 0.5314 0.4530
N3_2 N 0.3904(3) 0.2282(3) 0.8604(3)
N4 N 0.4587(3) 0.1197(3) 0.7734(3)
C16_2 C 0.3368(4) 0.2750(4) 0.9333(4)
C17_2 C 0.2605(4) 0.3264(4) 0.9053(4)
H12_2 H 0.2454 0.3312 0.8385
C18_2 C 0.2051(4) 0.3716(4) 0.9743(4)
H13_2 H 0.1515 0.4040 0.9541
C19_2 C 0.4084(3) 0.1335(3) 0.8522(4)
C20_2 C 0.4747(4) 0.2034(4) 0.7283(4)
H14 H 0.5091 0.2118 0.6704
C21_2 C 0.4331(5) 0.2724(4) 0.7805(5)
H15_2 H 0.4329 0.3365 0.7661
C22_2 C 0.3724(4) 0.0617(4) 0.9203(4)
H16_2 H 0.3369 0.0157 0.8839
H17_2 H 0.3324 0.0909 0.9687
H18_2 H 0.4243 0.0314 0.9530
Zn3_2 Zn 0.5000 0.0000 0.7088(2)
Zn1_2 Zn 1.0000 0.5000 0.2088(2)
O1 O 0.9030(3) 0.5445(3) 0.1135(3)
O2 O 0.8080(3) 0.5812(3) 0.2366(3)
C1 C 0.8315(4) 0.5807(4) 0.1472(4)
C2 C 0.7710(3) 0.6309(3) 0.0735(3)
C3 C 0.6958(5) 0.6852(5) 0.1021(5)
H1 H 0.6823 0.6914 0.1691
C4 C 0.6396(4) 0.7308(5) 0.0337(4)
H2 H 0.5869 0.7648 0.0541
N5 N 0.9587(3) 0.3803(3) 0.2734(3)
N1_2 N 0.8904(3) 0.2718(3) 0.3604(3)
O1_2 O 0.5970(3) 0.0445(3) 0.6135(3)
O2_2 O 0.6920(3) 0.0812(3) 0.7366(3)
C1_2 C 0.6685(4) 0.0807(4) 0.6472(4)
C2_2 C 0.7290(3) 0.1309(3) 0.5735(3)
C3_2 C 0.8042(5) 0.1852(5) 0.6021(5)
H1_2 H 0.8177 0.1914 0.6691
C4_2 C 0.8604(4) 0.2308(5) 0.5337(4)
H2_2 H 0.9131 0.2648 0.5541
C5_2 C 0.8368(4) 0.2250(4) 0.4333(4)
C6_2 C 0.7605(4) 0.1736(4) 0.4053(4)
H3_2 H 0.7454 0.1688 0.3385
C7_2 C 0.7051(4) 0.1284(4) 0.4743(4)
H4_2 H 0.6515 0.0960 0.4541
C8_2 C 0.9084(3) 0.3665(3) 0.3522(4)
C9_2 C 0.9747(4) 0.2966(4) 0.2283(4)
C10_2 C 0.9331(5) 0.2276(4) 0.2805(5)
H6_2 H 0.9329 0.1635 0.2661
C11_2 C 0.8724(4) 0.4383(4) 0.4203(4)
H7_2 H 0.8369 0.4843 0.3839
H8_2 H 0.8324 0.4091 0.4687
H9_2 H 0.9243 0.4686 0.4530
H14_2 H 0.9909 0.7118 0.1704
Zn3_3 Zn -0.0000 0.5000 0.7088(2)
Zn1_3 Zn 0.5000 0.0000 0.2088(2)
O3_3 O 0.5445(3) 0.0970(3) 0.1135(3)
O4_3 O 0.5812(3) 0.1920(3) 0.2366(3)
C12_3 C 0.5807(4) 0.1685(4) 0.1472(4)
C13_3 C 0.6309(3) 0.2290(3) 0.0735(3)
C14_3 C 0.6852(5) 0.3042(5) 0.1021(5)
H10_3 H 0.6914 0.3177 0.1691
C15_3 C 0.7308(5) 0.3604(4) 0.0337(4)
H11_3 H 0.7648 0.4131 0.0541
N6_2 N 0.3803(3) 0.0413(3) 0.2734(3)
N1_3 N 0.2282(3) 0.6096(3) 0.8604(3)
N2_2 N 0.1197(3) 0.5413(3) 0.7734(3)
C5_3 C 0.2750(4) 0.6632(4) 0.9333(4)
C6_3 C 0.3264(4) 0.7395(4) 0.9053(4)
H3_3 H 0.3312 0.7546 0.8385
C7_3 C 0.3716(4) 0.7949(4) 0.9743(4)
H4_3 H 0.4040 0.8485 0.9541
C8_3 C 0.1335(3) 0.5916(3) 0.8522(4)
C9_3 C 0.2034(4) 0.5253(4) 0.7283(4)
H5_3 H 0.2118 0.4909 0.6704
C10_3 C 0.2724(4) 0.5669(5) 0.7805(5)
H6_3 H 0.3365 0.5671 0.7661
C11_3 C 0.0617(4) 0.6276(4) 0.9203(4)
H7_3 H 0.0157 0.6631 0.8839
H8_3 H 0.0909 0.6676 0.9687
H9_3 H 0.0314 0.5757 0.9530
N3_3 N 0.2718(3) 0.1096(3) 0.3604(3)
O3_4 O 0.0445(3) 0.4030(3) 0.6135(3)
O4_4 O 0.0812(3) 0.3080(3) 0.7366(3)
C12_4 C 0.0807(4) 0.3315(4) 0.6472(4)
C13_4 C 0.1309(3) 0.2710(3) 0.5735(3)
C14_4 C 0.1852(5) 0.1958(5) 0.6021(5)
H10_4 H 0.1914 0.1823 0.6691
C15_4 C 0.2308(5) 0.1396(4) 0.5337(4)
H11_4 H 0.2648 0.0869 0.5541
C16_3 C 0.2250(4) 0.1632(4) 0.4333(4)
C17_3 C 0.1736(4) 0.2395(4) 0.4053(4)
H12_3 H 0.1688 0.2546 0.3385
C18_3 C 0.1284(4) 0.2949(4) 0.4743(4)
H13_3 H 0.0960 0.3485 0.4541
C19_3 C 0.3665(3) 0.0916(3) 0.3522(4)
C20_3 C 0.2966(4) 0.0253(4) 0.2283(4)
C21_3 C 0.2276(4) 0.0669(5) 0.2805(5)
H15_3 H 0.1635 0.0671 0.2661
C22_3 C 0.4383(4) 0.1276(4) 0.4203(4)
H16_3 H 0.4843 0.1631 0.3839
H17_3 H 0.4091 0.1676 0.4687
H18_3 H 0.4686 0.0757 0.4530
H5_4 H 0.7118 0.0091 0.1704
N3_4 N 0.7718(3) 0.3904(3) 0.8604(3)
N4_2 N 0.8803(3) 0.4587(3) 0.7734(3)
C16_4 C 0.7250(4) 0.3368(4) 0.9333(4)
C17_4 C 0.6736(4) 0.2605(4) 0.9053(4)
H12_4 H 0.6688 0.2454 0.8385
C18_4 C 0.6284(4) 0.2051(4) 0.9743(4)
H13_4 H 0.5960 0.1515 0.9541
C19_4 C 0.8665(3) 0.4084(3) 0.8522(4)
C20_4 C 0.7966(4) 0.4747(4) 0.7283(4)
H14_3 H 0.7882 0.5091 0.6704
C21_4 C 0.7276(4) 0.4331(5) 0.7805(5)
H15_4 H 0.6635 0.4329 0.7661
C22_4 C 0.9383(4) 0.3724(4) 0.9203(4)
H16_4 H 0.9843 0.3369 0.8839
H17_4 H 0.9091 0.3324 0.9687
H18_4 H 0.9686 0.4243 0.9530
Zn3_4 Zn 1.0000 0.5000 0.7088(2)
Zn1_4 Zn 0.5000 1.0000 0.2088(2)
O1_3 O 0.4555(3) 0.9030(3) 0.1135(3)
O2_3 O 0.4188(3) 0.8080(3) 0.2366(3)
C1_3 C 0.4193(4) 0.8315(4) 0.1472(4)
C2_3 C 0.3691(3) 0.7710(3) 0.0735(3)
C3_3 C 0.3148(5) 0.6958(5) 0.1021(5)
H1_3 H 0.3086 0.6823 0.1691
C4_3 C 0.2692(5) 0.6396(4) 0.0337(4)
H2_3 H 0.2352 0.5869 0.0541
N5_2 N 0.6197(3) 0.9587(3) 0.2734(3)
H14_4 H 0.2882 0.9909 0.1704
N1_4 N 0.7282(3) 0.8904(3) 0.3604(3)
O1_4 O 0.9555(3) 0.5970(3) 0.6135(3)
O2_4 O 0.9188(3) 0.6920(3) 0.7366(3)
C1_4 C 0.9193(4) 0.6685(4) 0.6472(4)
C2_4 C 0.8691(3) 0.7290(3) 0.5735(3)
C3_4 C 0.8148(5) 0.8042(5) 0.6021(5)
H1_4 H 0.8086 0.8177 0.6691
C4_4 C 0.7692(5) 0.8604(4) 0.5337(4)
H2_4 H 0.7352 0.9131 0.5541
C5_4 C 0.7750(4) 0.8368(4) 0.4333(4)
C6_4 C 0.8264(4) 0.7605(4) 0.4053(4)
H3_4 H 0.8312 0.7454 0.3385
C7_4 C 0.8716(4) 0.7051(4) 0.4743(4)
H4_4 H 0.9040 0.6515 0.4541
C8_4 C 0.6335(3) 0.9084(3) 0.3522(4)
C9_4 C 0.7034(4) 0.9747(4) 0.2283(4)
C10_4 C 0.7724(4) 0.9331(5) 0.2805(5)
H6_4 H 0.8365 0.9329 0.2661
C11_4 C 0.5617(4) 0.8724(4) 0.4203(4)
H7_4 H 0.5157 0.8369 0.3839
H8_4 H 0.5909 0.8324 0.4687
H9_4 H 0.5314 0.9243 0.4530
loop_
_geom_bond_atom_site_label_1
_geom_bond_atom_site_label_2
_geom_bond_site_symmetry_1
_geom_bond_site_symmetry_2
O3 Zn1 1_555 1_555
O4 C12 1_555 1_555
C12 O3 1_555 1_555
C13 C12 1_555 1_555
C14 C13 1_555 1_555
H10 C14 1_555 1_555
C15 C14 1_555 1_555
H11 C15 1_555 1_555
N6 Zn1 1_555 1_555
N1 C5 1_555 1_555
N2 C8 1_555 1_555
C6 C5 1_555 1_555
H3 C6 1_555 1_555
H4 C7 1_555 1_555
C8 N1 1_555 1_555
C9 N2 1_555 1_555
H5 C9 1_555 1_555
C10 N1 1_555 1_555
H6 C10 1_555 1_555
C11 C8 1_555 1_555
H7 C11 1_555 1_555
H8 C11 1_555 1_555
H9 C11 1_555 1_555
Zn3 N2 1_555 1_555
C6 C7 1_555 1_555
C9 C10 1_555 1_555
N3 C16 1_555 1_555
N6 C19 1_555 1_555
O3_2 Zn3 1_555 1_555
O4_2 C12_2 1_555 1_555
C12_2 O3_2 1_555 1_555
C13_2 C12_2 1_555 1_555
C14_2 C13_2 1_555 1_555
H10_2 C14_2 1_555 1_555
C15_2 C14_2 1_555 1_555
H11_2 C15_2 1_555 1_555
C16 C15_2 1_555 1_555
C17 C16 1_555 1_555
H12 C17 1_555 1_555
C18 C13_2 1_555 1_555
H13 C18 1_555 1_555
C19 N3 1_555 1_555
C20 N6 1_555 1_555
C21 N3 1_555 1_555
H15 C21 1_555 1_555
C22 C19 1_555 1_555
H16 C22 1_555 1_555
H17 C22 1_555 1_555
H18 C22 1_555 1_555
C17 C18 1_555 1_555
C20 C21 1_555 1_555
N3_2 C16_2 1_555 1_555
N4 C19_2 1_555 1_555
C17_2 C16_2 1_555 1_555
H12_2 C17_2 1_555 1_555
H13_2 C18_2 1_555 1_555
C19_2 N3_2 1_555 1_555
C20_2 N4 1_555 1_555
H14 C20_2 1_555 1_555
C21_2 N3_2 1_555 1_555
H15_2 C21_2 1_555 1_555
C22_2 C19_2 1_555 1_555
H16_2 C22_2 1_555 1_555
H17_2 C22_2 1_555 1_555
H18_2 C22_2 1_555 1_555
Zn3_2 N4 1_555 1_555
C17_2 C18_2 1_555 1_555
C20_2 C21_2 1_555 1_555
Zn1_2 O1 1_555 1_555
O1 C1 1_555 1_555
O2 C1 1_555 1_555
C1 C2 1_555 1_555
C2 C3 1_555 1_555
C3 H1 1_555 1_555
C4 C3 1_555 1_555
H2 C4 1_555 1_555
N5 Zn1_2 1_555 1_555
Zn3_2 O1_2 1_555 1_555
N1_2 C5_2 1_555 1_555
N5 C8_2 1_555 1_555
O1_2 C1_2 1_555 1_555
O2_2 C1_2 1_555 1_555
C1_2 C2_2 1_555 1_555
C2_2 C3_2 1_555 1_555
C3_2 H1_2 1_555 1_555
C4_2 C3_2 1_555 1_555
H2_2 C4_2 1_555 1_555
C5_2 C4_2 1_555 1_555
C6_2 C5_2 1_555 1_555
H3_2 C6_2 1_555 1_555
C7_2 C2_2 1_555 1_555
H4_2 C7_2 1_555 1_555
C8_2 N1_2 1_555 1_555
C9_2 N5 1_555 1_555
C10_2 N1_2 1_555 1_555
H6_2 C10_2 1_555 1_555
C11_2 C8_2 1_555 1_555
H7_2 C11_2 1_555 1_555
H8_2 C11_2 1_555 1_555
H9_2 C11_2 1_555 1_555
C6_2 C7_2 1_555 1_555
C9_2 C10_2 1_555 1_555
O3_3 Zn1_3 1_555 1_555
O4_3 C12_3 1_555 1_555
C12_3 O3_3 1_555 1_555
C13_3 C12_3 1_555 1_555
C14_3 C13_3 1_555 1_555
H10_3 C14_3 1_555 1_555
C15_3 C14_3 1_555 1_555
H11_3 C15_3 1_555 1_555
N6_2 Zn1_3 1_555 1_555
N1_3 C5_3 1_555 1_555
N2_2 C8_3 1_555 1_555
C6_3 C5_3 1_555 1_555
H3_3 C6_3 1_555 1_555
H4_3 C7_3 1_555 1_555
C8_3 N1_3 1_555 1_555
C9_3 N2_2 1_555 1_555
H5_3 C9_3 1_555 1_555
C10_3 N1_3 1_555 1_555
H6_3 C10_3 1_555 1_555
C11_3 C8_3 1_555 1_555
H7_3 C11_3 1_555 1_555
H8_3 C11_3 1_555 1_555
H9_3 C11_3 1_555 1_555
Zn3_3 N2_2 1_555 1_555
C6_3 C7_3 1_555 1_555
C9_3 C10_3 1_555 1_555
N3_3 C16_3 1_555 1_555
N6_2 C19_3 1_555 1_555
O3_4 Zn3_3 1_555 1_555
O4_4 C12_4 1_555 1_555
C12_4 O3_4 1_555 1_555
C13_4 C12_4 1_555 1_555
C14_4 C13_4 1_555 1_555
H10_4 C14_4 1_555 1_555
C15_4 C14_4 1_555 1_555
H11_4 C15_4 1_555 1_555
C16_3 C15_4 1_555 1_555
C17_3 C16_3 1_555 1_555
H12_3 C17_3 1_555 1_555
C18_3 C13_4 1_555 1_555
H13_3 C18_3 1_555 1_555
C19_3 N3_3 1_555 1_555
C20_3 N6_2 1_555 1_555
C21_3 N3_3 1_555 1_555
H15_3 C21_3 1_555 1_555
C22_3 C19_3 1_555 1_555
H16_3 C22_3 1_555 1_555
H17_3 C22_3 1_555 1_555
H18_3 C22_3 1_555 1_555
C17_3 C18_3 1_555 1_555
C20_3 C21_3 1_555 1_555
N3_4 C16_4 1_555 1_555
N4_2 C19_4 1_555 1_555
C17_4 C16_4 1_555 1_555
H12_4 C17_4 1_555 1_555
H13_4 C18_4 1_555 1_555
C19_4 N3_4 1_555 1_555
C20_4 N4_2 1_555 1_555
H14_3 C20_4 1_555 1_555
C21_4 N3_4 1_555 1_555
H15_4 C21_4 1_555 1_555
C22_4 C19_4 1_555 1_555
H16_4 C22_4 1_555 1_555
H17_4 C22_4 1_555 1_555
H18_4 C22_4 1_555 1_555
Zn3_4 N4_2 1_555 1_555
C17_4 C18_4 1_555 1_555
C20_4 C21_4 1_555 1_555
Zn1_4 O1_3 1_555 1_555
O1_3 C1_3 1_555 1_555
O2_3 C1_3 1_555 1_555
C1_3 C2_3 1_555 1_555
C2_3 C3_3 1_555 1_555
C3_3 H1_3 1_555 1_555
C4_3 C3_3 1_555 1_555
H2_3 C4_3 1_555 1_555
N5_2 Zn1_4 1_555 1_555
Zn3_4 O1_4 1_555 1_555
N1_4 C5_4 1_555 1_555
N5_2 C8_4 1_555 1_555
O1_4 C1_4 1_555 1_555
O2_4 C1_4 1_555 1_555
C1_4 C2_4 1_555 1_555
C2_4 C3_4 1_555 1_555
C3_4 H1_4 1_555 1_555
C4_4 C3_4 1_555 1_555
H2_4 C4_4 1_555 1_555
C5_4 C4_4 1_555 1_555
C6_4 C5_4 1_555 1_555
H3_4 C6_4 1_555 1_555
C7_4 C2_4 1_555 1_555
H4_4 C7_4 1_555 1_555
C8_4 N1_4 1_555 1_555
C9_4 N5_2 1_555 1_555
C10_4 N1_4 1_555 1_555
H6_4 C10_4 1_555 1_555
C11_4 C8_4 1_555 1_555
H7_4 C11_4 1_555 1_555
H8_4 C11_4 1_555 1_555
H9_4 C11_4 1_555 1_555
C6_4 C7_4 1_555 1_555
C9_4 C10_4 1_555 1_555

#END
