
###############################################################################
#
# This file contains modified crystal structure data generated from the
# MOF subset of the Cambridge Structural Database (CSD) v543 
# hosted by the Cambridge Crystallographic Data Centre (CCDC).
#
# This work is licensed under the Creative Commons
# Attribution-NonCommercial-ShareAlike 4.0 International License.
# To view a copy of this license, visit
# http://creativecommons.org/licenses/by-nc-sa/4.0/
# or send a letter to
# Creative Commons, PO Box 1866, Mountain View, CA 94042, USA.
#
# CIF created using the CSD Python API on 29 September 2022
# The structure has been converted into the P1 space group
# The structure has a 3D framework
# The original CSD entry EKOKIA is in the monoclinic crystal system
# The framework has been calculated to contain at least 10.0% void space
# The void calculation uses a probe of radius 1.32A, grid spacing 0.4
#
###############################################################################

data_EKOKIA
_chemical_formula_moiety         '(C64 H68 Cd8 N38 O28)n'
_symmetry_cell_setting           triclinic
_symmetry_space_group_name_H-M   'P 1'
_symmetry_Int_Tables_number      1
_space_group_name_Hall           'P 1'
loop_
_symmetry_equiv_pos_site_id
_symmetry_equiv_pos_as_xyz
1 x,y,z
_cell_length_a                   15.3162(11)
_cell_length_b                   12.6184(9)
_cell_length_c                   15.5659(11)
_cell_angle_alpha                90
_cell_angle_beta                 96.1650(10)
_cell_angle_gamma                90
_cell_volume                     2990.96
loop_
_atom_site_label
_atom_site_type_symbol
_atom_site_fract_x
_atom_site_fract_y
_atom_site_fract_z
C2 C 0.0558(2) 0.7778(3) 0.7362(3)
C3 C 0.0867(3) 0.8730(4) 0.7111(3)
H1 H 0.0482 0.9287 0.6966
C4 C 0.1755(3) 0.8861(4) 0.7072(3)
H2 H 0.1951 0.9520 0.6907
C5 C 0.2034(3) 0.7177(4) 0.7452(4)
H3 H 0.2430 0.6619 0.7548
C6 C 0.1164(3) 0.6977(4) 0.7525(4)
H4 H 0.0986 0.6307 0.7683
N5 N 0.2345(2) 0.8110(2) 0.7254(2)
Cd6 Cd 0.390639(16) 0.830105(19) 0.730819(15)
C14 C 0.5193(2) 0.0199(3) 0.54545(19)
H9 H 0.5835 0.0163 0.5497
C15 C 0.4915(2) 0.1351(3) 0.5595(2)
H10 H 0.5013 0.1758 0.5086
H11 H 0.4289 0.1361 0.5645
C16 C 0.5383(2) 0.1898(3) 0.6379(2)
O3 O 0.60672(17) 0.1531(2) 0.67688(16)
O4 O 0.50779(17) 0.2777(2) 0.66004(16)
H14 H 0.7550 0.0141 0.6293
H17 H 0.6856 0.0404 0.6722
C17 C 0.5134(2) 0.0522(3) 0.3855(2)
O8 O 0.46254(16) 0.1134(2) 0.34136(16)
O9 O 0.59433(16) 0.04935(19) 0.37702(15)
Cd5 Cd 0.318002(17) 0.17354(2) 0.316070(17)
Cd8 Cd 0.609361(16) 0.330105(19) 0.769181(15)
Cd10 Cd 0.609361(16) 0.169895(19) 0.269181(15)
Cd1 Cd 0.681998(17) 0.82646(2) 0.683930(17)
C1 C 0.9623(3) 0.7603(3) 0.7454(3)
C7 C 0.6309(2) 0.5062(3) 0.5969(2)
C8 C 0.6281(2) 0.4315(3) 0.5240(2)
C9 C 0.5890(2) 0.4625(3) 0.4434(2)
H5 H 0.5643 0.5296 0.4357
C10 C 0.5871(2) 0.3933(3) 0.3752(2)
H6 H 0.5605 0.4152 0.3217
C11 C 0.6612(2) 0.2667(3) 0.4597(2)
H7 H 0.6865 0.1997 0.4653
C12 C 0.6659(3) 0.3316(3) 0.5312(2)
H8 H 0.6942 0.3087 0.5838
C13 C 0.4866(2) 0.9478(3) 0.6145(2)
N1 N 0.8249(2) 0.7765(3) 0.7339(2)
N2 N 0.8453(2) 0.6941(3) 0.7833(3)
N3 N 0.9321(2) 0.6819(3) 0.7911(3)
N4 N 0.8976(2) 0.8210(3) 0.7093(2)
N6 N 0.6387(2) 0.6509(2) 0.6653(2)
N7 N 0.6347(2) 0.5754(2) 0.72243(19)
N8 N 0.6299(2) 0.4820(2) 0.68084(18)
N9 N 0.6358(2) 0.6099(2) 0.58529(19)
N10 N 0.6217(2) 0.2960(2) 0.38211(19)
O1 O 0.53746(16) 0.8866(2) 0.65864(16)
O2 O 0.40567(16) 0.95065(19) 0.62298(15)
O5 O 0.6584(2) 0.8377(3) 0.82355(19)
O6 O 0.7154(2) 0.7991(2) 0.54493(19)
O7 O 0.72593(18) 0.9953(2) 0.6708(2)
H12 H 0.6997 0.8381 0.8655
H13 H 0.7241 0.8310 0.4983
H15 H 0.6076 0.8198 0.8332
H16 H 0.7111 0.7321 0.5432
C18 C 0.4807(2) 0.9801(3) 0.45455(19)
H18 H 0.4165 0.9837 0.4503
C19 C 0.5085(2) 0.8649(3) 0.4405(2)
H19 H 0.4987 0.8242 0.4914
H20 H 0.5711 0.8639 0.4355
C20 C 0.4617(2) 0.8102(3) 0.3621(2)
O10 O 0.39328(17) 0.8469(2) 0.32312(16)
O11 O 0.49221(17) 0.7223(2) 0.33996(16)
C21 C 0.0377(3) 0.2397(3) 0.2546(3)
C27 C 0.3691(2) 0.4938(3) 0.4031(2)
C28 C 0.3719(2) 0.5685(3) 0.4760(2)
C29 C 0.4110(2) 0.5375(3) 0.5566(2)
H25 H 0.4357 0.4704 0.5643
C30 C 0.4129(2) 0.6067(3) 0.6248(2)
H26 H 0.4395 0.5848 0.6783
C31 C 0.3388(2) 0.7333(3) 0.5403(2)
H27 H 0.3135 0.8003 0.5347
C32 C 0.3341(3) 0.6684(3) 0.4688(2)
H28 H 0.3058 0.6913 0.4162
N11 N 0.1751(2) 0.2235(3) 0.2661(2)
N12 N 0.1547(2) 0.3059(3) 0.2167(3)
N13 N 0.0679(2) 0.3181(3) 0.2089(3)
N14 N 0.1024(2) 0.1790(3) 0.2907(2)
N16 N 0.3613(2) 0.3491(2) 0.3347(2)
N17 N 0.3653(2) 0.4246(2) 0.27757(19)
N18 N 0.3701(2) 0.5180(2) 0.31916(18)
N19 N 0.3642(2) 0.3901(2) 0.41471(19)
N20 N 0.3783(2) 0.7040(2) 0.61789(19)
O12 O 0.3416(2) 0.1623(3) 0.17645(19)
O13 O 0.2846(2) 0.2009(2) 0.45507(19)
O14 O 0.27407(18) 0.0047(2) 0.3292(2)
H29 H 0.3003 0.1619 0.1345
H30 H 0.2759 0.1690 0.5017
H32 H 0.3924 0.1802 0.1668
H33 H 0.2889 0.2679 0.4568
Cd11 Cd 0.390639(16) 0.669895(19) 0.230819(15)
N22 N 0.7655(2) 0.1890(2) 0.2746(2)
N23 N 0.3701(2) 0.9820(2) 0.81916(18)
N24 N 0.6299(2) 0.0180(2) 0.18084(18)
O17 O 0.39328(17) 0.6531(2) 0.82312(16)
O18 O 0.60672(17) 0.3469(2) 0.17688(16)
O19 O 0.49221(17) 0.7777(2) 0.83996(16)
O20 O 0.50779(17) 0.2223(2) 0.16004(16)
H31 H 0.2450 0.9859 0.3707
H34 H 0.3144 0.9596 0.3278
C22 C 0.9442(2) 0.2222(3) 0.2638(3)
C23 C 0.9133(3) 0.1270(4) 0.2889(3)
H21 H 0.9518 0.0713 0.3034
C24 C 0.8245(3) 0.1139(4) 0.2928(3)
H22 H 0.8049 0.0480 0.3093
C25 C 0.7966(3) 0.2823(4) 0.2548(4)
H23 H 0.7570 0.3381 0.2452
C26 C 0.8836(3) 0.3023(4) 0.2475(4)
H24 H 0.9014 0.3693 0.2317
C22_2 C 0.0558(2) 0.7222(3) 0.2362(3)
C23_2 C 0.0867(3) 0.6270(4) 0.2111(3)
H21_2 H 0.0482 0.5713 0.1966
C24_2 C 0.1755(3) 0.6139(4) 0.2072(3)
H22_2 H 0.1951 0.5480 0.1907
C25_2 C 0.2034(3) 0.7823(4) 0.2452(4)
H23_2 H 0.2430 0.8381 0.2548
C26_2 C 0.1164(3) 0.8023(4) 0.2525(4)
H24_2 H 0.0986 0.8693 0.2683
N15 N 0.2345(2) 0.6890(2) 0.2254(2)
H5_2 H 0.4357 0.0296 0.0643
H13_2 H 0.2759 0.3310 0.0017
C17_2 C 0.4866(2) 0.5522(3) 0.1145(2)
C18_2 C 0.5193(2) 0.4801(3) 0.04545(19)
H18_2 H 0.5835 0.4837 0.0497
C19_2 C 0.4915(2) 0.3649(3) 0.0595(2)
H19_2 H 0.5013 0.3242 0.0086
H20_2 H 0.4289 0.3639 0.0645
C20_2 C 0.5383(2) 0.3102(3) 0.1379(2)
O8_2 O 0.53746(16) 0.6134(2) 0.15864(16)
O9_2 O 0.40567(16) 0.54935(19) 0.12298(15)
C28_2 C 0.6281(2) 0.0685(3) 0.0240(2)
C32_2 C 0.6659(3) 0.1684(3) 0.0312(2)
H28_2 H 0.6942 0.1913 0.0838
Cd5_2 Cd 0.681998(17) 0.67354(2) 0.183930(17)
Cd1_2 Cd 0.318002(17) 0.32646(2) 0.816070(17)
C1_2 C 0.0377(3) 0.2603(3) 0.7546(3)
C7_2 C 0.3691(2) 0.0062(3) 0.9031(2)
C13_2 C 0.5134(2) 0.4478(3) 0.8855(2)
C14_2 C 0.4807(2) 0.5199(3) 0.95455(19)
H9_2 H 0.4165 0.5163 0.9503
C15_2 C 0.5085(2) 0.6351(3) 0.9405(2)
H10_2 H 0.4987 0.6758 0.9914
H11_2 H 0.5711 0.6361 0.9355
C16_2 C 0.4617(2) 0.6898(3) 0.8621(2)
N1_2 N 0.1751(2) 0.2765(3) 0.7661(2)
N2_2 N 0.1547(2) 0.1941(3) 0.7167(3)
N3_2 N 0.0679(2) 0.1819(3) 0.7089(3)
N4_2 N 0.1024(2) 0.3210(3) 0.7907(2)
N6_2 N 0.3613(2) 0.1509(2) 0.8347(2)
N7_2 N 0.3653(2) 0.0754(2) 0.77757(19)
N9_2 N 0.3642(2) 0.1099(2) 0.91471(19)
O1_2 O 0.46254(16) 0.3866(2) 0.84136(16)
O2_2 O 0.59433(16) 0.45065(19) 0.87702(15)
O5_2 O 0.3416(2) 0.3377(3) 0.67645(19)
O6_2 O 0.2846(2) 0.2991(2) 0.95507(19)
O7_2 O 0.27407(18) 0.4953(2) 0.8292(2)
H12_2 H 0.3003 0.3381 0.6345
H14_2 H 0.2450 0.5141 0.8707
H15_2 H 0.3924 0.3198 0.6668
H16_2 H 0.2889 0.2321 0.9568
H17_2 H 0.3144 0.5404 0.8278
C29_2 C 0.5890(2) 0.0375(3) 0.9434(2)
C30_2 C 0.5871(2) 0.1067(3) 0.8752(2)
H26_2 H 0.5605 0.0848 0.8217
C31_2 C 0.6612(2) 0.2333(3) 0.9597(2)
H27_2 H 0.6865 0.3003 0.9653
N20_2 N 0.6217(2) 0.2040(2) 0.88211(19)
N21 N 0.7655(2) 0.3110(2) 0.7746(2)
C9_2 C 0.4110(2) 0.9625(3) 0.0566(2)
C10_2 C 0.4129(2) 0.8933(3) 0.1248(2)
H6_2 H 0.4395 0.9152 0.1783
C11_2 C 0.3388(2) 0.7667(3) 0.0403(2)
H7_2 H 0.3135 0.6997 0.0347
N10_2 N 0.3783(2) 0.7960(2) 0.11789(19)
C21_2 C 0.9623(3) 0.7397(3) 0.2454(3)
C27_2 C 0.6309(2) 0.9938(3) 0.0969(2)
N11_2 N 0.8249(2) 0.7235(3) 0.2339(2)
N12_2 N 0.8453(2) 0.8059(3) 0.2833(3)
N13_2 N 0.9321(2) 0.8181(3) 0.2911(3)
N14_2 N 0.8976(2) 0.6790(3) 0.2093(2)
N16_2 N 0.6387(2) 0.8491(2) 0.1653(2)
N17_2 N 0.6347(2) 0.9246(2) 0.22243(19)
N19_2 N 0.6358(2) 0.8901(2) 0.08529(19)
O12_2 O 0.6584(2) 0.6623(3) 0.32355(19)
O13_2 O 0.7154(2) 0.7009(2) 0.04493(19)
O14_2 O 0.72593(18) 0.5047(2) 0.1708(2)
H29_2 H 0.6997 0.6619 0.3655
H31_2 H 0.7550 0.4859 0.1293
H32_2 H 0.6076 0.6802 0.3332
H33_2 H 0.7111 0.7679 0.0432
H34_2 H 0.6856 0.4596 0.1722
C8_2 C 0.3719(2) 0.9315(3) 0.9760(2)
C12_2 C 0.3341(3) 0.8316(3) 0.9688(2)
H8_2 H 0.3058 0.8087 0.9162
H25_2 H 0.5643 0.9704 0.9357
H30_2 H 0.7241 0.6690 0.9983
C2_2 C 0.9442(2) 0.2778(3) 0.7638(3)
C3_2 C 0.9133(3) 0.3730(4) 0.7889(3)
H1_2 H 0.9518 0.4287 0.8034
C4_2 C 0.8245(3) 0.3861(4) 0.7928(3)
H2_2 H 0.8049 0.4520 0.8093
C5_2 C 0.7966(3) 0.2177(4) 0.7548(4)
H3_2 H 0.7570 0.1619 0.7452
C6_2 C 0.8836(3) 0.1977(4) 0.7475(4)
H4_2 H 0.9014 0.1307 0.7317
loop_
_geom_bond_atom_site_label_1
_geom_bond_atom_site_label_2
_geom_bond_site_symmetry_1
_geom_bond_site_symmetry_2
C2 C3 1_555 1_555
C3 H1 1_555 1_555
C4 C3 1_555 1_555
H2 C4 1_555 1_555
C5 H3 1_555 1_555
C6 C2 1_555 1_555
H4 C6 1_555 1_555
N5 C4 1_555 1_555
Cd6 N5 1_555 1_555
C5 C6 1_555 1_555
C5 N5 1_555 1_555
C14 H9 1_555 1_555
C15 C14 1_555 1_555
H10 C15 1_555 1_555
H11 C15 1_555 1_555
C16 C15 1_555 1_555
O3 C16 1_555 1_555
O4 C16 1_555 1_555
O8 C17 1_555 1_555
O9 C17 1_555 1_555
Cd5 O8 1_555 1_555
Cd8 O3 1_555 1_555
Cd10 O8 1_555 1_555
O4 Cd8 1_555 1_555
O9 Cd10 1_555 1_555
Cd1 N1 1_555 1_555
Cd6 O1 1_555 1_555
C7 C8 1_555 1_555
C8 C9 1_555 1_555
C9 H5 1_555 1_555
C10 C9 1_555 1_555
H6 C10 1_555 1_555
C11 H7 1_555 1_555
C12 C8 1_555 1_555
H8 C12 1_555 1_555
N1 N2 1_555 1_555
N2 N3 1_555 1_555
N3 C1 1_555 1_555
N4 C1 1_555 1_555
N6 Cd1 1_555 1_555
N7 N6 1_555 1_555
N8 C7 1_555 1_555
N9 C7 1_555 1_555
N10 C10 1_555 1_555
O1 Cd1 1_555 1_555
O2 Cd6 1_555 1_555
O5 Cd1 1_555 1_555
O6 Cd1 1_555 1_555
O7 Cd1 1_555 1_555
H12 O5 1_555 1_555
H13 O6 1_555 1_555
H15 O5 1_555 1_555
H16 O6 1_555 1_555
H18 C18 1_555 1_555
C19 C18 1_555 1_555
H19 C19 1_555 1_555
H20 C19 1_555 1_555
C20 C19 1_555 1_555
O10 C20 1_555 1_555
O11 C20 1_555 1_555
Cd5 N11 1_555 1_555
Cd10 N10 1_555 1_555
C27 C28 1_555 1_555
C28 C29 1_555 1_555
C29 H25 1_555 1_555
C30 C29 1_555 1_555
H26 C30 1_555 1_555
C31 H27 1_555 1_555
C32 C28 1_555 1_555
H28 C32 1_555 1_555
N11 N12 1_555 1_555
N12 N13 1_555 1_555
N13 C21 1_555 1_555
N14 C21 1_555 1_555
N16 Cd5 1_555 1_555
N17 N16 1_555 1_555
N18 C27 1_555 1_555
N19 C27 1_555 1_555
N20 Cd6 1_555 1_555
O12 Cd5 1_555 1_555
O13 Cd5 1_555 1_555
O14 Cd5 1_555 1_555
H29 O12 1_555 1_555
H30 O13 1_555 1_555
H32 O12 1_555 1_555
H33 O13 1_555 1_555
Cd8 N8 1_555 1_555
Cd11 O10 1_555 1_555
N22 Cd10 1_555 1_555
N23 Cd6 1_555 1_555
N24 Cd10 1_555 1_555
O17 Cd6 1_555 1_555
O18 Cd10 1_555 1_555
O19 Cd6 1_555 1_555
O20 Cd10 1_555 1_555
C11 C12 1_555 1_555
C11 N10 1_555 1_555
C13 O1 1_555 1_555
C13 O2 1_555 1_555
N1 N4 1_555 1_555
N6 N9 1_555 1_555
N7 N8 1_555 1_555
O11 Cd11 1_555 1_555
C30 N20 1_555 1_555
C31 C32 1_555 1_555
C31 N20 1_555 1_555
N11 N14 1_555 1_555
N16 N19 1_555 1_555
N17 N18 1_555 1_555
N18 Cd11 1_555 1_555
C22 C23 1_555 1_555
C23 H21 1_555 1_555
C24 C23 1_555 1_555
H22 C24 1_555 1_555
C25 H23 1_555 1_555
C26 C22 1_555 1_555
H24 C26 1_555 1_555
N22 C24 1_555 1_555
C25 C26 1_555 1_555
C25 N22 1_555 1_555
C22_2 C23_2 1_555 1_555
C23_2 H21_2 1_555 1_555
C24_2 C23_2 1_555 1_555
H22_2 C24_2 1_555 1_555
C25_2 H23_2 1_555 1_555
C26_2 C22_2 1_555 1_555
H24_2 C26_2 1_555 1_555
N15 C24_2 1_555 1_555
Cd11 N15 1_555 1_555
C25_2 C26_2 1_555 1_555
C25_2 N15 1_555 1_555
C17_2 C18_2 1_555 1_555
H18_2 C18_2 1_555 1_555
C19_2 C18_2 1_555 1_555
H19_2 C19_2 1_555 1_555
H20_2 C19_2 1_555 1_555
C20_2 C19_2 1_555 1_555
O8_2 C17_2 1_555 1_555
O9_2 C17_2 1_555 1_555
O18 C20_2 1_555 1_555
O20 C20_2 1_555 1_555
C32_2 C28_2 1_555 1_555
H28_2 C32_2 1_555 1_555
Cd5_2 O8_2 1_555 1_555
Cd11 O8_2 1_555 1_555
O9_2 Cd11 1_555 1_555
Cd1_2 N1_2 1_555 1_555
Cd8 O1_2 1_555 1_555
C13_2 C14_2 1_555 1_555
C14_2 H9_2 1_555 1_555
C15_2 C14_2 1_555 1_555
H10_2 C15_2 1_555 1_555
H11_2 C15_2 1_555 1_555
C16_2 C15_2 1_555 1_555
N1_2 N2_2 1_555 1_555
N2_2 N3_2 1_555 1_555
N3_2 C1_2 1_555 1_555
N4_2 C1_2 1_555 1_555
N6_2 Cd1_2 1_555 1_555
N7_2 N6_2 1_555 1_555
N9_2 C7_2 1_555 1_555
O1_2 Cd1_2 1_555 1_555
O2_2 Cd8 1_555 1_555
O17 C16_2 1_555 1_555
O19 C16_2 1_555 1_555
O5_2 Cd1_2 1_555 1_555
O6_2 Cd1_2 1_555 1_555
O7_2 Cd1_2 1_555 1_555
H12_2 O5_2 1_555 1_555
H14_2 O7_2 1_555 1_555
H15_2 O5_2 1_555 1_555
H16_2 O6_2 1_555 1_555
H17_2 O7_2 1_555 1_555
C30_2 C29_2 1_555 1_555
H26_2 C30_2 1_555 1_555
C31_2 H27_2 1_555 1_555
N20_2 Cd8 1_555 1_555
N21 Cd8 1_555 1_555
C13_2 O1_2 1_555 1_555
C13_2 O2_2 1_555 1_555
N1_2 N4_2 1_555 1_555
N6_2 N9_2 1_555 1_555
C30_2 N20_2 1_555 1_555
C31_2 N20_2 1_555 1_555
C10_2 C9_2 1_555 1_555
H6_2 C10_2 1_555 1_555
C11_2 H7_2 1_555 1_555
N10_2 C10_2 1_555 1_555
Cd5_2 N11_2 1_555 1_555
Cd11 N10_2 1_555 1_555
N11_2 N12_2 1_555 1_555
N12_2 N13_2 1_555 1_555
N13_2 C21_2 1_555 1_555
N14_2 C21_2 1_555 1_555
N16_2 Cd5_2 1_555 1_555
N17_2 N16_2 1_555 1_555
N19_2 C27_2 1_555 1_555
O12_2 Cd5_2 1_555 1_555
O13_2 Cd5_2 1_555 1_555
O14_2 Cd5_2 1_555 1_555
H29_2 O12_2 1_555 1_555
H31_2 O14_2 1_555 1_555
H32_2 O12_2 1_555 1_555
H33_2 O13_2 1_555 1_555
H34_2 O14_2 1_555 1_555
C11_2 N10_2 1_555 1_555
N11_2 N14_2 1_555 1_555
N16_2 N19_2 1_555 1_555
C12_2 C8_2 1_555 1_555
H8_2 C12_2 1_555 1_555
C2_2 C3_2 1_555 1_555
C3_2 H1_2 1_555 1_555
C4_2 C3_2 1_555 1_555
H2_2 C4_2 1_555 1_555
C5_2 H3_2 1_555 1_555
C6_2 C2_2 1_555 1_555
H4_2 C6_2 1_555 1_555
N21 C4_2 1_555 1_555
C5_2 C6_2 1_555 1_555
C5_2 N21 1_555 1_555

#END
