
###############################################################################
#
# This file contains modified crystal structure data generated from the
# MOF subset of the Cambridge Structural Database (CSD) v543 
# hosted by the Cambridge Crystallographic Data Centre (CCDC).
#
# This work is licensed under the Creative Commons
# Attribution-NonCommercial-ShareAlike 4.0 International License.
# To view a copy of this license, visit
# http://creativecommons.org/licenses/by-nc-sa/4.0/
# or send a letter to
# Creative Commons, PO Box 1866, Mountain View, CA 94042, USA.
#
# CIF created using the CSD Python API on 29 September 2022
# The structure has been converted into the P1 space group
# The structure has a 3D framework
# The original CSD entry EKOKUN is in the trigonal crystal system
# The original CSD entry EKOKUN is in a Sohncke space group
# The framework has been calculated to contain at least 10.0% void space
# The void calculation uses a probe of radius 1.32A, grid spacing 0.4
# H atom positions have been added when not included in the experimental data
#
###############################################################################

data_EKOKUN
_chemical_formula_moiety         '(C162 H102 Cd6 O40 Zn6)n'
_symmetry_cell_setting           triclinic
_symmetry_space_group_name_H-M   'P 1'
_symmetry_Int_Tables_number      1
_space_group_name_Hall           'P 1'
loop_
_symmetry_equiv_pos_site_id
_symmetry_equiv_pos_as_xyz
1 x,y,z
_cell_length_a                   25.5715(18)
_cell_length_b                   25.5715(18)
_cell_length_c                   12.8720(13)
_cell_angle_alpha                90
_cell_angle_beta                 90
_cell_angle_gamma                120
_cell_volume                     7289.35
loop_
_atom_site_label
_atom_site_type_symbol
_atom_site_fract_x
_atom_site_fract_y
_atom_site_fract_z
Zn1 Zn 0.10978(5) 0.72196(5) 0.13930(9)
O2 O 0.1111(3) 0.6529(3) 0.1990(6)
O3 O 0.3301(3) 0.3155(3) 0.1740(5)
O5 O 0.0688(3) 0.6554(3) 0.3468(5)
C1 C 0.1230(4) 0.3984(4) 0.3769(7)
H1 H 0.157566 0.428117 0.340787
C2 C 0.0806(4) 0.4674(4) 0.3801(7)
C3 C 0.0868(3) 0.5757(4) 0.3211(6)
C4 C 0.0593(4) 0.4949(5) 0.4438(7)
H2 H 0.041806 0.477063 0.508786
O6 O 0.3234(5) 0.2667(5) 0.3112(6)
C5 C 0.0629(4) 0.5491(4) 0.4142(7)
H3 H 0.048350 0.567935 0.460248
C6 C 0.0778(4) 0.4097(4) 0.4069(7)
C7 C 0.1171(5) 0.3423(5) 0.4006(7)
C9 C 0.2584(5) 0.3084(5) 0.2984(7)
C11 C 0.0273(4) 0.3639(4) 0.4617(7)
C12 C 0.0219(4) 0.3088(4) 0.4829(7)
C13 C 0.2463(4) 0.3475(4) 0.2431(7)
H6 H 0.268291 0.365932 0.181517
C14 C 0.1057(4) 0.4950(5) 0.2836(8)
H7 H 0.120953 0.476535 0.237851
C16 C 0.0893(4) 0.6321(4) 0.2884(8)
C17 C 0.1664(5) 0.3308(5) 0.3659(8)
C19 C 0.0673(5) 0.2982(4) 0.4491(7)
H9 H 0.063466 0.259670 0.459875
O7 O 0.1885(5) 0.7588(8) 0.0451(8)
C20 C 0.1801(7) 0.2907(8) 0.4178(9)
H10 H 0.156683 0.269453 0.476653
C21 C 0.1084(4) 0.5471(4) 0.2555(8)
H11 H 0.125159 0.564701 0.190092
C23 C 0.2023(5) 0.3598(5) 0.2771(8)
H12 H 0.195919 0.388365 0.240319
C24 C 0.2255(7) 0.2814(7) 0.3871(8)
H13 H 0.234866 0.255888 0.427058
C25 C 0.3057(5) 0.2968(5) 0.2611(8)
Cd3 Cd -0.000000 0.686870(30) 0.333334
Cd5 Cd 0.313130(30) 0.31313(3) 0.000000
Zn5 Zn 0.38782(7) 0.27804(5) 0.19403(9)
O17 O 0.0146(4) 0.6845(3) 0.1593(5)
O20 O 0.1440(3) 0.7918(3) 0.2292(6)
O24 O 0.0567(7) 0.7333(5) 0.0221(6)
H32 H 0.193562 0.79536 0.00897244
Cd5_2 Cd 0.313130(30) 0.31313(3) 1.000000
H31 H 0.184392 0.728386 0.992879
C52 C 0.0089(7) 0.7032(5) 0.0722(8)
Cd1 Cd 0.68687(3) -0.000000 0.666667
O1 O 0.7836(3) 0.0723(3) 0.6592(6)
O4 O 0.7918(3) 0.1440(3) 0.7708(6)
C8 C 0.9386(5) 0.2764(4) 0.6124(9)
H4 H 0.953713 0.317727 0.628602
C10 C 0.8089(4) 0.1253(5) 0.6926(9)
H5 H 0.996368 0.371600 0.484176
C15 C 0.9676(4) 0.2607(4) 0.5362(8)
C18 C 0.8889(5) 0.2330(4) 0.6635(9)
H8 H 0.870743 0.244854 0.716007
C22 C 0.8643(5) 0.1723(4) 0.6408(8)
C26 C 0.9444(4) 0.2007(5) 0.5149(8)
H14 H 0.963634 0.188517 0.465019
C27 C 0.8917(5) 0.1563(5) 0.5672(9)
H15 H 0.875424 0.114825 0.550330
Cd3_2 Cd 1.000000 0.686870(30) 0.333334
Zn6 Zn 0.72196(5) 0.10978(5) 0.86070(9)
O16 O 0.6845(3) 0.0146(4) 0.8407(5)
O22 O 0.6554(3) 0.0688(3) 0.6532(5)
O9 O 0.4582(4) 0.3471(3) 0.1343(6)
C30 C 0.5111(5) 0.4243(4) 0.0122(6)
C36 C 0.9500(7) 0.6916(5) 0.0349(7)
C40 C 0.8988(6) 0.6525(4) 0.0902(7)
H21 H 0.902359 0.634068 0.151816
C41 C 0.6107(6) 0.5050(5) 0.0497(8)
H22 H 0.644418 0.523465 0.095482
C43 C 0.4572(6) 0.3679(4) 0.0449(8)
O14 O 0.4297(9) 0.2412(8) 0.2882(8)
C48 C 0.5613(6) 0.4529(4) 0.0778(8)
H26 H 0.560458 0.435299 0.143241
C50 C 0.8425(7) 0.6402(5) 0.0562(8)
H27 H 0.807554 0.611635 0.093014
O19 O 0.3522(4) 0.2082(3) 0.1041(6)
H33 H 0.456007 0.271614 0.340454
H34 H 0.398201 0.20464 0.324361
Cd1_2 Cd 0.68687(3) 1.000000 0.666667
O8 O 0.7113(4) 0.9277(3) 0.6741(6)
O11 O 0.6478(4) 0.8560(3) 0.5625(6)
O12 O 0.4134(4) 0.3446(3) 0.9865(5)
C28 C 0.7246(6) 0.6016(4) 0.9564(7)
H16 H 0.729449 0.571883 0.992546
C29 C 0.6132(6) 0.5326(4) 0.9532(7)
C31 C 0.5644(6) 0.5051(5) 0.8895(7)
H17 H 0.564743 0.522937 0.824547
C32 C 0.5138(6) 0.4509(4) 0.9191(7)
H18 H 0.480415 0.432065 0.873085
C33 C 0.6681(6) 0.5903(4) 0.9264(7)
C34 C 0.7748(7) 0.6577(5) 0.9327(7)
C35 C 0.6622(6) 0.7236(4) 0.7209(9)
H19 H 0.635986 0.682273 0.704731
C37 C 0.6836(6) 0.8747(5) 0.6407(9)
C38 C 0.6634(6) 0.6361(4) 0.8716(7)
H20 H 0.624768 0.628400 0.849157
C39 C 0.7131(6) 0.6912(4) 0.8504(7)
C42 C 0.7069(6) 0.7393(4) 0.7971(8)
C44 C 0.8356(7) 0.6692(5) 0.9674(8)
C45 C 0.6559(6) 0.7670(4) 0.6698(9)
H23 H 0.625889 0.755146 0.617326
C46 C 0.7691(6) 0.7018(4) 0.8842(7)
H24 H 0.803796 0.740330 0.873458
C47 C 0.8894(11) 0.7093(8) 0.9155(9)
H25 H 0.887230 0.730547 0.856680
C49 C 0.6920(6) 0.8277(4) 0.6925(8)
C51 C 0.9441(10) 0.7186(7) 0.9462(8)
H28 H 0.978978 0.744112 0.906275
C53 C 0.7437(6) 0.7993(5) 0.8184(8)
H29 H 0.775117 0.811483 0.868314
C54 C 0.7354(7) 0.8437(5) 0.7661(9)
H30 H 0.760599 0.885175 0.783003
Zn4 Zn 0.61218(7) 0.89022(5) 0.47263(9)
O18 O 0.6699(3) 0.9854(4) 0.4927(5)
O21 O 0.5866(4) 0.9312(3) 0.6801(5)
H33_2 H 0.728386 0.184392 0.00712078
O9_2 O 0.6529(3) 0.1111(5) 0.8010(6)
O10 O 0.3155(3) 0.3301(5) 0.8260(5)
C28_2 C 0.3984(4) 0.1230(7) 0.6231(7)
H16_2 H 0.428117 0.157566 0.659213
C29_2 C 0.4674(4) 0.0806(7) 0.6199(7)
C30_2 C 0.5757(4) 0.0868(6) 0.6789(6)
C31_2 C 0.4949(5) 0.0593(8) 0.5562(7)
H17_2 H 0.477063 0.041806 0.491214
O13 O 0.2667(5) 0.3234(9) 0.6888(6)
C32_2 C 0.5491(4) 0.0629(7) 0.5858(7)
H18_2 H 0.567935 0.048350 0.539752
C33_2 C 0.4097(4) 0.0778(7) 0.5931(7)
C34_2 C 0.3423(5) 0.1171(9) 0.5994(7)
C36_2 C 0.3084(5) 0.2584(9) 0.7016(7)
C38_2 C 0.3639(4) 0.0273(7) 0.5383(7)
C39_2 C 0.3088(4) 0.0219(7) 0.5171(7)
C40_2 C 0.3475(4) 0.2463(7) 0.7569(7)
H21_2 H 0.365932 0.268291 0.818483
C41_2 C 0.4950(5) 0.1057(8) 0.7164(8)
H22_2 H 0.476535 0.120953 0.762149
C43_2 C 0.6321(4) 0.0893(7) 0.7116(8)
C44_2 C 0.3308(5) 0.1664(9) 0.6341(8)
C46_2 C 0.2982(4) 0.0673(7) 0.5509(7)
H24_2 H 0.259670 0.063466 0.540125
O14_2 O 0.7588(8) 0.1885(12) 0.9549(8)
C47_2 C 0.2907(8) 0.1801(14) 0.5822(9)
H25_2 H 0.269453 0.156683 0.523347
C48_2 C 0.5471(4) 0.1084(7) 0.7445(8)
H26_2 H 0.564701 0.125159 0.809908
C50_2 C 0.3598(5) 0.2023(9) 0.7229(8)
H27_2 H 0.388365 0.195919 0.759681
C51_2 C 0.2814(7) 0.2255(12) 0.6129(8)
H28_2 H 0.255888 0.234866 0.572942
C52_2 C 0.2968(5) 0.3057(9) 0.7389(8)
Zn3 Zn 0.27804(5) 0.38782(7) 0.80597(9)
O23 O 0.7333(5) 0.0567(7) 0.9779(6)
H34_2 H 0.79536 0.193562 0.991028
O8_2 O 0.0723(3) 0.7836(5) 0.3408(6)
C35_2 C 0.2764(4) 0.9386(7) 0.3876(9)
H19_2 H 0.317727 0.953713 0.371398
C37_2 C 0.1253(5) 0.8089(8) 0.3074(9)
H20_2 H 0.371600 0.996368 0.515824
C42_2 C 0.2607(4) 0.9676(7) 0.4638(8)
C45_2 C 0.2330(4) 0.8889(7) 0.3365(9)
H23_2 H 0.244854 0.870743 0.283993
C49_2 C 0.1723(4) 0.8643(7) 0.3592(8)
C53_2 C 0.2007(5) 0.9444(8) 0.4851(8)
H29_2 H 0.188517 0.963634 0.534981
C54_2 C 0.1563(5) 0.8917(9) 0.4328(9)
H30_2 H 0.114825 0.875424 0.449670
C25_2 C 0.7032(5) 0.0089(7) 0.9278(8)
O1_2 O 0.9277(3) 0.7113(4) 0.3259(6)
O4_2 O 0.8560(3) 0.6478(4) 0.4375(6)
O5_2 O 0.3446(3) 0.4134(4) 0.0135(5)
C1_2 C 0.6016(4) 0.7246(6) 0.0436(7)
H1_2 H 0.571883 0.729449 0.007454
C2_2 C 0.5326(4) 0.6132(6) 0.0468(7)
C4_2 C 0.5051(5) 0.5644(6) 0.1105(7)
H2_2 H 0.522937 0.564743 0.175453
C5_2 C 0.4509(4) 0.5138(6) 0.0809(7)
H3_2 H 0.432065 0.480415 0.126915
C6_2 C 0.5903(4) 0.6681(6) 0.0736(7)
C7_2 C 0.6577(5) 0.7748(7) 0.0673(7)
C8_2 C 0.7236(4) 0.6622(6) 0.2791(9)
H4_2 H 0.682273 0.635986 0.295269
C10_2 C 0.8747(5) 0.6836(6) 0.3593(9)
C11_2 C 0.6361(4) 0.6634(6) 0.1284(7)
H5_2 H 0.628400 0.624768 0.150843
C12_2 C 0.6912(4) 0.7131(6) 0.1496(7)
C15_2 C 0.7393(4) 0.7069(6) 0.2029(8)
C17_2 C 0.6692(5) 0.8356(7) 0.0326(8)
C18_2 C 0.7670(4) 0.6559(6) 0.3302(9)
H8_2 H 0.755146 0.625889 0.382674
C19_2 C 0.7018(4) 0.7691(6) 0.1158(7)
H9_2 H 0.740330 0.803796 0.126542
C20_2 C 0.7093(8) 0.8894(11) 0.0845(9)
H10_2 H 0.730547 0.887230 0.143320
C22_2 C 0.8277(4) 0.6920(6) 0.3075(8)
C24_2 C 0.7186(7) 0.9441(10) 0.0538(8)
H13_2 H 0.744112 0.978978 0.093725
C26_2 C 0.7993(5) 0.7437(6) 0.1816(8)
H14_2 H 0.811483 0.775117 0.131686
C27_2 C 0.8437(5) 0.7354(7) 0.2339(9)
H15_2 H 0.885175 0.760599 0.216997
Zn6_2 Zn 0.89022(5) 0.61218(7) 0.52737(9)
O16_2 O 0.9854(4) 0.6699(5) 0.5073(5)
O22_2 O 0.9312(3) 0.5866(4) 0.3199(5)
O2_2 O 0.3471(3) 0.4582(4) 0.8657(6)
C3_2 C 0.4243(4) 0.5111(5) 0.9878(6)
C9_2 C 0.6916(5) 0.9500(7) 0.9651(7)
C13_2 C 0.6525(4) 0.8988(6) 0.9098(7)
H6_2 H 0.634068 0.902359 0.848184
C14_2 C 0.5050(5) 0.6107(6) 0.9503(8)
H7_2 H 0.523465 0.644418 0.904518
C16_2 C 0.3679(4) 0.4572(6) 0.9551(8)
O7_2 O 0.2412(8) 0.4297(9) 0.7118(8)
C21_2 C 0.4529(4) 0.5613(6) 0.9222(8)
H11_2 H 0.435299 0.560458 0.856759
C23_2 C 0.6402(5) 0.8425(7) 0.9438(8)
H12_2 H 0.611635 0.807554 0.906986
O20_2 O 0.2082(3) 0.3522(4) 0.8959(6)
H31_2 H 0.271614 0.456007 0.659546
H32_2 H 0.20464 0.398201 0.675639
C10_3 C 0.3164(6) 0.1911(4) 0.0259(9)
H8_3 H 0.374111 0.129257 0.049340
O8_3 O 0.2164(5) 0.2887(4) 0.0075(6)
C35_3 C 0.0614(7) 0.3378(6) 0.0543(9)
H19_3 H 0.046287 0.364014 0.038065
H20_3 H 0.003632 0.375232 0.182491
C42_3 C 0.0324(7) 0.2931(6) 0.1305(8)
C45_3 C 0.1111(7) 0.3441(6) 0.0032(9)
C49_3 C 0.1357(7) 0.3080(6) 0.0259(8)
C53_3 C 0.0556(8) 0.2563(6) 0.1518(8)
H29_3 H 0.036366 0.224883 0.201648
C54_3 C 0.1083(9) 0.2646(7) 0.0995(9)
H30_3 H 0.124576 0.239401 0.116337
O1_3 O 0.2887(4) 0.2164(3) 0.9925(6)
C8_3 C 0.3378(6) 0.0614(5) 0.9457(9)
H4_3 H 0.364014 0.046287 0.961935
H5_3 H 0.375232 0.003632 0.817509
C15_3 C 0.2931(6) 0.0324(4) 0.8695(8)
C18_3 C 0.3441(6) 0.1111(5) 0.9968(9)
C22_3 C 0.3080(6) 0.1357(5) 0.9741(8)
C26_3 C 0.2563(6) 0.0556(4) 0.8482(8)
H14_3 H 0.224883 0.036366 0.798352
C27_3 C 0.2646(7) 0.1083(5) 0.9005(9)
H15_3 H 0.239401 0.124576 0.883663
C37_3 C 0.1911(8) 0.3164(6) 0.9741(9)
H23_3 H 0.129257 0.374111 0.950660
O2_3 O 0.5418(4) 0.8889(3) 0.5323(6)
C1_3 C 0.2754(6) 0.8770(4) 0.7102(7)
H1_3 H 0.270551 0.842434 0.674120
C2_3 C 0.3868(6) 0.9194(4) 0.7134(7)
C3_3 C 0.4889(5) 0.9132(3) 0.6544(6)
C4_3 C 0.4356(6) 0.9407(4) 0.7771(7)
H2_3 H 0.435257 0.958194 0.842119
C5_3 C 0.4862(6) 0.9371(4) 0.7475(7)
H3_3 H 0.519585 0.951650 0.793581
C6_3 C 0.3319(6) 0.9222(4) 0.7402(7)
C7_3 C 0.2252(7) 0.8829(5) 0.7339(7)
C9_3 C 0.0500(7) 0.7416(5) 0.6317(7)
C11_3 C 0.3366(6) 0.9727(4) 0.7950(7)
C12_3 C 0.2869(6) 0.9781(4) 0.8162(7)
C13_3 C 0.1012(6) 0.7537(4) 0.5764(7)
H6_3 H 0.097641 0.731709 0.514850
C14_3 C 0.3893(6) 0.8943(4) 0.6169(8)
H7_3 H 0.355582 0.879047 0.571184
C16_3 C 0.5428(6) 0.9107(4) 0.6217(8)
C17_3 C 0.1644(7) 0.8336(5) 0.6992(8)
C19_3 C 0.2309(6) 0.9327(5) 0.7824(7)
H9_3 H 0.196204 0.936534 0.793208
O7_3 O 0.5703(9) 0.8115(5) 0.3784(8)
C20_3 C 0.1106(11) 0.8199(7) 0.7511(9)
H10_3 H 0.112770 0.843317 0.809986
C21_3 C 0.4387(6) 0.8916(4) 0.5888(8)
H11_3 H 0.439542 0.874841 0.523425
C23_3 C 0.1575(7) 0.7977(5) 0.6104(8)
H12_3 H 0.192446 0.804081 0.573652
C24_3 C 0.0559(10) 0.7745(7) 0.7204(8)
H13_3 H 0.021022 0.765134 0.760391
O24_2 O 0.6766(9) 0.9433(7) 0.3555(6)
H31_3 H 0.543993 0.815608 0.326213
H32_3 H 0.601799 0.806438 0.342306
O9_3 O 0.8889(5) 0.5418(4) 0.4677(6)
C28_3 C 0.8770(7) 0.2754(6) 0.2898(7)
H16_3 H 0.842434 0.270551 0.325880
C29_3 C 0.9194(7) 0.3868(6) 0.2866(7)
C30_3 C 0.9132(6) 0.4889(5) 0.3456(6)
C31_3 C 0.9407(8) 0.4356(6) 0.2229(7)
H17_3 H 0.958194 0.435257 0.157881
C32_3 C 0.9371(7) 0.4862(6) 0.2525(7)
H18_3 H 0.951650 0.519585 0.206419
C33_3 C 0.9222(7) 0.3319(6) 0.2598(7)
C34_3 C 0.8829(9) 0.2252(7) 0.2661(7)
C36_3 C 0.7416(9) 0.0500(7) 0.3683(7)
C38_3 C 0.9727(7) 0.3366(6) 0.2050(7)
C39_3 C 0.9781(7) 0.2869(6) 0.1838(7)
C40_3 C 0.7537(7) 0.1012(6) 0.4236(7)
H21_3 H 0.731709 0.097641 0.485150
C41_3 C 0.8943(8) 0.3893(6) 0.3831(8)
H22_3 H 0.879047 0.355582 0.428816
C43_3 C 0.9107(7) 0.5428(6) 0.3783(8)
C44_3 C 0.8336(9) 0.1644(7) 0.3008(8)
C46_3 C 0.9327(7) 0.2309(6) 0.2176(7)
H24_3 H 0.936534 0.196204 0.206792
O14_3 O 0.8115(12) 0.5703(9) 0.6216(8)
C47_3 C 0.8199(14) 0.1106(11) 0.2489(9)
H25_3 H 0.843317 0.112770 0.190014
C48_3 C 0.8916(7) 0.4387(6) 0.4112(8)
H26_3 H 0.874841 0.439542 0.476575
C50_3 C 0.7977(9) 0.1575(7) 0.3896(8)
H27_3 H 0.804081 0.192446 0.426348
C51_3 C 0.7745(12) 0.0559(10) 0.2796(8)
H28_3 H 0.765134 0.021022 0.239609
O23_2 O 0.9433(7) 0.6766(5) 0.6445(6)
H33_3 H 0.815608 0.543993 0.673787
H34_3 H 0.806438 0.601799 0.657694
C52_3 C 0.6943(9) 0.9911(7) 0.4056(8)
C25_3 C 0.9911(7) 0.6943(5) 0.5944(8)
loop_
_geom_bond_atom_site_label_1
_geom_bond_atom_site_label_2
_geom_bond_site_symmetry_1
_geom_bond_site_symmetry_2
Zn1 O2 1_555 1_555
O2 C16 1_555 1_555
O3 C25 1_555 1_555
O5 C16 1_555 1_555
C1 H1 1_555 1_555
C2 C4 1_555 1_555
C3 C5 1_555 1_555
C4 H2 1_555 1_555
O6 C25 1_555 1_555
C5 C4 1_555 1_555
H3 C5 1_555 1_555
C6 C1 1_555 1_555
C7 C1 1_555 1_555
C9 C13 1_555 1_555
C11 C6 1_555 1_555
C12 C11 1_555 1_555
C13 H6 1_555 1_555
C14 C2 1_555 1_555
H7 C14 1_555 1_555
C16 C3 1_555 1_555
C17 C7 1_555 1_555
C19 C7 1_555 1_555
H9 C19 1_555 1_555
O7 Zn1 1_555 1_555
C20 C17 1_555 1_555
H10 C20 1_555 1_555
C21 C3 1_555 1_555
H11 C21 1_555 1_555
C23 C13 1_555 1_555
H12 C23 1_555 1_555
C24 C9 1_555 1_555
H13 C24 1_555 1_555
C25 C9 1_555 1_555
Cd3 O5 1_555 1_555
Cd5 O3 1_555 1_555
Zn5 O3 1_555 1_555
O17 Zn1 1_555 1_555
O20 Zn1 1_555 1_555
O24 Zn1 1_555 1_555
C2 C6 1_555 1_555
O6 Zn5 1_555 1_555
C12 C19 1_555 1_555
C14 C21 1_555 1_555
C17 C23 1_555 1_555
C20 C24 1_555 1_555
Cd3 O17 1_555 1_555
O7 H32 1_555 1_555
O17 C52 1_555 1_555
O24 C52 1_555 1_555
Cd1 O1 1_555 1_555
O1 C10 1_555 1_555
O4 C10 1_555 1_555
C8 H4 1_555 1_555
C10 C22 1_555 1_555
C15 C8 1_555 1_555
C18 C8 1_555 1_555
H8 C18 1_555 1_555
C22 C18 1_555 1_555
C26 C15 1_555 1_555
H14 C26 1_555 1_555
C27 C22 1_555 1_555
H15 C27 1_555 1_555
Zn6 O4 1_555 1_555
O16 Cd1 1_555 1_555
O22 Cd1 1_555 1_555
C26 C27 1_555 1_555
Zn6 O16 1_555 1_555
Zn5 O9 1_555 1_555
O9 C43 1_555 1_555
C36 C40 1_555 1_555
C40 H21 1_555 1_555
H22 C41 1_555 1_555
C43 C30 1_555 1_555
O14 Zn5 1_555 1_555
C48 C30 1_555 1_555
H26 C48 1_555 1_555
C50 C40 1_555 1_555
H27 C50 1_555 1_555
O19 Zn5 1_555 1_555
C41 C48 1_555 1_555
O14 H33 1_555 1_555
O14 H34 1_555 1_555
O8 Cd1_2 1_555 1_555
O11 C37 1_555 1_555
C28 H16 1_555 1_555
C29 C31 1_555 1_555
C31 H17 1_555 1_555
C32 C31 1_555 1_555
H18 C32 1_555 1_555
C33 C28 1_555 1_555
C34 C28 1_555 1_555
C35 H19 1_555 1_555
C37 O8 1_555 1_555
C38 C33 1_555 1_555
H20 C38 1_555 1_555
C39 C38 1_555 1_555
C42 C35 1_555 1_555
C44 C34 1_555 1_555
C45 C35 1_555 1_555
H23 C45 1_555 1_555
C46 C34 1_555 1_555
H24 C46 1_555 1_555
C47 C44 1_555 1_555
H25 C47 1_555 1_555
C49 C37 1_555 1_555
H28 C51 1_555 1_555
C53 C42 1_555 1_555
H29 C53 1_555 1_555
C54 C49 1_555 1_555
H30 C54 1_555 1_555
Cd5_2 O12 1_555 1_555
Zn4 O11 1_555 1_555
O18 Cd1_2 1_555 1_555
O21 Cd1_2 1_555 1_555
C29 C33 1_555 1_555
C39 C42 1_555 1_555
C39 C46 1_555 1_555
C45 C49 1_555 1_555
C47 C51 1_555 1_555
C53 C54 1_555 1_555
Zn4 O18 1_555 1_555
Zn6 O9_2 1_555 1_555
O9_2 C43_2 1_555 1_555
O10 C52_2 1_555 1_555
O22 C43_2 1_555 1_555
C28_2 H16_2 1_555 1_555
C29_2 C31_2 1_555 1_555
C30_2 C32_2 1_555 1_555
C31_2 H17_2 1_555 1_555
O13 C52_2 1_555 1_555
C32_2 C31_2 1_555 1_555
H18_2 C32_2 1_555 1_555
C33_2 C28_2 1_555 1_555
C34_2 C28_2 1_555 1_555
C36_2 C40_2 1_555 1_555
C38_2 C33_2 1_555 1_555
C39_2 C38_2 1_555 1_555
C40_2 H21_2 1_555 1_555
C41_2 C29_2 1_555 1_555
H22_2 C41_2 1_555 1_555
C43_2 C30_2 1_555 1_555
C44_2 C34_2 1_555 1_555
C46_2 C34_2 1_555 1_555
H24_2 C46_2 1_555 1_555
O14_2 Zn6 1_555 1_555
C47_2 C44_2 1_555 1_555
H25_2 C47_2 1_555 1_555
C48_2 C30_2 1_555 1_555
H26_2 C48_2 1_555 1_555
C50_2 C40_2 1_555 1_555
H27_2 C50_2 1_555 1_555
C51_2 C36_2 1_555 1_555
H28_2 C51_2 1_555 1_555
C52_2 C36_2 1_555 1_555
Cd5_2 O10 1_555 1_555
Zn3 O10 1_555 1_555
O23 Zn6 1_555 1_555
C29_2 C33_2 1_555 1_555
O13 Zn3 1_555 1_555
C39_2 C46_2 1_555 1_555
C41_2 C48_2 1_555 1_555
C44_2 C50_2 1_555 1_555
C47_2 C51_2 1_555 1_555
O14_2 H34_2 1_555 1_555
O8_2 Cd3 1_555 1_555
O20 C37_2 1_555 1_555
C35_2 H19_2 1_555 1_555
C37_2 O8_2 1_555 1_555
C42_2 C35_2 1_555 1_555
C45_2 C35_2 1_555 1_555
H23_2 C45_2 1_555 1_555
C49_2 C37_2 1_555 1_555
C53_2 C42_2 1_555 1_555
H29_2 C53_2 1_555 1_555
C54_2 C49_2 1_555 1_555
H30_2 C54_2 1_555 1_555
C45_2 C49_2 1_555 1_555
C53_2 C54_2 1_555 1_555
O16 C25_2 1_555 1_555
O23 C25_2 1_555 1_555
Cd3_2 O1_2 1_555 1_555
O1_2 C10_2 1_555 1_555
O4_2 C10_2 1_555 1_555
C1_2 H1_2 1_555 1_555
C2_2 C4_2 1_555 1_555
C4_2 H2_2 1_555 1_555
C5_2 C4_2 1_555 1_555
H3_2 C5_2 1_555 1_555
C6_2 C1_2 1_555 1_555
C7_2 C1_2 1_555 1_555
C8_2 H4_2 1_555 1_555
C10_2 C22_2 1_555 1_555
C11_2 C6_2 1_555 1_555
H5_2 C11_2 1_555 1_555
C12_2 C11_2 1_555 1_555
C15_2 C8_2 1_555 1_555
C17_2 C7_2 1_555 1_555
C18_2 C8_2 1_555 1_555
H8_2 C18_2 1_555 1_555
C19_2 C7_2 1_555 1_555
H9_2 C19_2 1_555 1_555
C20_2 C17_2 1_555 1_555
H10_2 C20_2 1_555 1_555
C22_2 C18_2 1_555 1_555
H13_2 C24_2 1_555 1_555
C26_2 C15_2 1_555 1_555
H14_2 C26_2 1_555 1_555
C27_2 C22_2 1_555 1_555
H15_2 C27_2 1_555 1_555
Cd5 O5_2 1_555 1_555
Zn6_2 O4_2 1_555 1_555
O16_2 Cd3_2 1_555 1_555
O22_2 Cd3_2 1_555 1_555
C2_2 C6_2 1_555 1_555
C12_2 C15_2 1_555 1_555
C12_2 C19_2 1_555 1_555
C20_2 C24_2 1_555 1_555
C26_2 C27_2 1_555 1_555
Zn6_2 O16_2 1_555 1_555
Zn3 O2_2 1_555 1_555
O2_2 C16_2 1_555 1_555
C9_2 C13_2 1_555 1_555
C13_2 H6_2 1_555 1_555
H7_2 C14_2 1_555 1_555
C16_2 C3_2 1_555 1_555
O7_2 Zn3 1_555 1_555
C21_2 C3_2 1_555 1_555
H11_2 C21_2 1_555 1_555
C23_2 C13_2 1_555 1_555
H12_2 C23_2 1_555 1_555
O20_2 Zn3 1_555 1_555
C14_2 C21_2 1_555 1_555
O7_2 H31_2 1_555 1_555
O7_2 H32_2 1_555 1_555
O19 C10_3 1_555 1_555
O8_3 Cd5 1_555 1_555
C35_3 H19_3 1_555 1_555
C42_3 C35_3 1_555 1_555
C45_3 C35_3 1_555 1_555
C53_3 C42_3 1_555 1_555
H29_3 C53_3 1_555 1_555
C54_3 C49_3 1_555 1_555
H30_3 C54_3 1_555 1_555
C45_3 C49_3 1_555 1_555
C53_3 C54_3 1_555 1_555
Cd5_2 O1_3 1_555 1_555
C8_3 H4_3 1_555 1_555
C15_3 C8_3 1_555 1_555
C18_3 C8_3 1_555 1_555
C22_3 C18_3 1_555 1_555
C26_3 C15_3 1_555 1_555
H14_3 C26_3 1_555 1_555
C27_3 C22_3 1_555 1_555
H15_3 C27_3 1_555 1_555
O20_2 C37_3 1_555 1_555
C26_3 C27_3 1_555 1_555
Zn4 O2_3 1_555 1_555
O2_3 C16_3 1_555 1_555
O21 C16_3 1_555 1_555
C1_3 H1_3 1_555 1_555
C2_3 C4_3 1_555 1_555
C3_3 C5_3 1_555 1_555
C4_3 H2_3 1_555 1_555
C5_3 C4_3 1_555 1_555
H3_3 C5_3 1_555 1_555
C6_3 C1_3 1_555 1_555
C7_3 C1_3 1_555 1_555
C9_3 C13_3 1_555 1_555
C11_3 C6_3 1_555 1_555
C12_3 C11_3 1_555 1_555
C13_3 H6_3 1_555 1_555
C14_3 C2_3 1_555 1_555
H7_3 C14_3 1_555 1_555
C16_3 C3_3 1_555 1_555
C17_3 C7_3 1_555 1_555
C19_3 C7_3 1_555 1_555
H9_3 C19_3 1_555 1_555
O7_3 Zn4 1_555 1_555
C20_3 C17_3 1_555 1_555
H10_3 C20_3 1_555 1_555
C21_3 C3_3 1_555 1_555
H11_3 C21_3 1_555 1_555
C23_3 C13_3 1_555 1_555
H12_3 C23_3 1_555 1_555
C24_3 C9_3 1_555 1_555
H13_3 C24_3 1_555 1_555
O24_2 Zn4 1_555 1_555
C2_3 C6_3 1_555 1_555
C12_3 C19_3 1_555 1_555
C14_3 C21_3 1_555 1_555
C17_3 C23_3 1_555 1_555
C20_3 C24_3 1_555 1_555
O7_3 H31_3 1_555 1_555
O7_3 H32_3 1_555 1_555
Zn6_2 O9_3 1_555 1_555
O9_3 C43_3 1_555 1_555
O22_2 C43_3 1_555 1_555
C28_3 H16_3 1_555 1_555
C29_3 C31_3 1_555 1_555
C30_3 C32_3 1_555 1_555
C31_3 H17_3 1_555 1_555
C32_3 C31_3 1_555 1_555
H18_3 C32_3 1_555 1_555
C33_3 C28_3 1_555 1_555
C34_3 C28_3 1_555 1_555
C36_3 C40_3 1_555 1_555
C38_3 C33_3 1_555 1_555
C39_3 C38_3 1_555 1_555
C40_3 H21_3 1_555 1_555
C41_3 C29_3 1_555 1_555
H22_3 C41_3 1_555 1_555
C43_3 C30_3 1_555 1_555
C44_3 C34_3 1_555 1_555
C46_3 C34_3 1_555 1_555
H24_3 C46_3 1_555 1_555
O14_3 Zn6_2 1_555 1_555
C47_3 C44_3 1_555 1_555
H25_3 C47_3 1_555 1_555
C48_3 C30_3 1_555 1_555
H26_3 C48_3 1_555 1_555
C50_3 C40_3 1_555 1_555
H27_3 C50_3 1_555 1_555
C51_3 C36_3 1_555 1_555
H28_3 C51_3 1_555 1_555
O23_2 Zn6_2 1_555 1_555
C29_3 C33_3 1_555 1_555
C39_3 C46_3 1_555 1_555
C41_3 C48_3 1_555 1_555
C44_3 C50_3 1_555 1_555
C47_3 C51_3 1_555 1_555
O14_3 H33_3 1_555 1_555
O14_3 H34_3 1_555 1_555
O18 C52_3 1_555 1_555
O24_2 C52_3 1_555 1_555
O16_2 C25_3 1_555 1_555
O23_2 C25_3 1_555 1_555

#END
