
###############################################################################
#
# This file contains modified crystal structure data generated from the
# MOF subset of the Cambridge Structural Database (CSD) v543 
# hosted by the Cambridge Crystallographic Data Centre (CCDC).
#
# This work is licensed under the Creative Commons
# Attribution-NonCommercial-ShareAlike 4.0 International License.
# To view a copy of this license, visit
# http://creativecommons.org/licenses/by-nc-sa/4.0/
# or send a letter to
# Creative Commons, PO Box 1866, Mountain View, CA 94042, USA.
#
# CIF created using the CSD Python API on 29 September 2022
# The structure has been converted into the P1 space group
# The structure has a 3D framework
# The original CSD entry EKOLAU is in the trigonal crystal system
# The original CSD entry EKOLAU is in a Sohncke space group
# The framework has been calculated to contain at least 10.0% void space
# The void calculation uses a probe of radius 1.32A, grid spacing 0.4
# H atom positions have been added when not included in the experimental data
# Generated hydrogen atom positions removed from atoms on special positions
#
###############################################################################

data_EKOLAU
_chemical_formula_moiety         '(C164 H114 Cd3 O39 Zn6)n'
_symmetry_cell_setting           triclinic
_symmetry_space_group_name_H-M   'P 1'
_symmetry_Int_Tables_number      1
_space_group_name_Hall           'P 1'
loop_
_symmetry_equiv_pos_site_id
_symmetry_equiv_pos_as_xyz
1 x,y,z
_cell_length_a                   25.6049(16)
_cell_length_b                   25.6049(16)
_cell_length_c                   12.7296(15)
_cell_angle_alpha                90
_cell_angle_beta                 90
_cell_angle_gamma                120
_cell_volume                     7227.56
loop_
_atom_site_label
_atom_site_type_symbol
_atom_site_fract_x
_atom_site_fract_y
_atom_site_fract_z
C54 C 0.3057(6) 0.0090(8) 0.5956(9)
O16 O 0.3247(5) 0.0575(8) 0.6460(6)
O17 O 0.3309(4) 0.0140(6) 0.5114(6)
Zn6 Zn 0.38843(8) 0.10960(6) 0.52944(11)
Cd5 Cd 0.313670(40) -0.000000 0.333334
Cd1 Cd 0.000000 0.31367(4) 0.666667
O2 O 0.0140(6) 0.3309(4) 0.4886(6)
O3 O 0.0682(4) 0.4134(6) 0.6807(6)
Zn1 Zn 0.10960(6) 0.38843(8) 0.47056(11)
C2 C 0.0887(5) 0.4556(5) 0.6208(9)
O5 O 0.1114(4) 0.4591(4) 0.5310(7)
C4 C 0.0878(5) 0.5122(4) 0.6558(8)
C7 C 0.0635(5) 0.5151(5) 0.7486(9)
C8 C 0.1087(5) 0.5620(5) 0.5885(9)
H3 H 0.048672 0.481405 0.794573
C11 C 0.0591(6) 0.5649(5) 0.7802(9)
H4 H 0.124879 0.561229 0.521708
C12 C 0.1059(5) 0.6111(5) 0.6184(9)
C14 C 0.0800(5) 0.6128(5) 0.7125(8)
H7 H 0.042151 0.565584 0.846295
H8 H 0.122248 0.645392 0.573694
C16 C 0.0776(5) 0.6678(5) 0.7412(8)
C19 C 0.1230(5) 0.7250(5) 0.7105(8)
H11 H 0.157146 0.729892 0.672692
O8 O 0.0732(3) 0.2906(4) 0.6741(6)
C28 C 0.0258(5) 0.6624(7) 0.7971(8)
C30 C 0.0210(5) 0.7131(7) 0.8168(8)
C31 C 0.1172(6) 0.7760(8) 0.7370(8)
C34 C 0.0666(6) 0.7705(8) 0.7824(9)
C36 C 0.1674(6) 0.8370(8) 0.7002(9)
H18 H 0.062005 0.804846 0.791043
C41 C 0.2025(5) 0.8427(7) 0.6109(9)
C42 C 0.1790(9) 0.8885(13) 0.7523(11)
C47 C 0.2461(5) 0.8981(7) 0.5769(8)
H23 H 0.195664 0.807505 0.574062
C48 C 0.2246(8) 0.9430(11) 0.7195(10)
H24 H 0.155276 0.886236 0.811358
H29 H 0.267935 0.901831 0.514368
C51 C 0.2581(6) 0.9485(8) 0.6342(8)
H30 H 0.233055 0.978147 0.757954
Cd5_2 Cd 0.313670(40) 1.000000 0.333334
C45 C 0.8887(6) 0.6557(8) 0.0000(10)
H27 H 0.870267 0.625790 0.053031
C53 C 0.8079(5) 0.6825(8) 0.0264(9)
O14 O 0.7916(4) 0.6480(6) 0.1064(7)
Zn5 Zn 0.72117(10) 0.61157(8) 0.19611(11)
Cd4 Cd 0.68633(4) 0.686330(40) 0.000000
O21 O 0.7586(6) 0.5700(11) 0.2889(8)
O22 O 0.6831(7) 0.6691(4) 0.1781(6)
O23 O 0.6523(6) 0.5409(4) 0.1357(7)
O24 O 0.7328(6) 0.6753(5) 0.3127(6)
Cd1_2 Cd 1.000000 0.31367(4) 0.666667
O1 O 0.9268(3) 0.2174(3) 0.6592(6)
C1 C 0.8746(6) 0.1921(5) 0.6931(9)
O4 O 0.8564(4) 0.2084(4) 0.7731(7)
C3 C 0.8286(5) 0.1357(5) 0.6409(9)
C5 C 0.7670(5) 0.1113(6) 0.6667(10)
C6 C 0.8438(5) 0.1083(5) 0.5673(10)
C9 C 0.7240(5) 0.0613(6) 0.6155(10)
H1 H 0.755523 0.129733 0.719698
C10 C 0.7995(5) 0.0558(5) 0.5139(10)
H2 H 0.885197 0.124323 0.550312
C13 C 0.7400(5) 0.0330(5) 0.5397(9)
H5 H 0.682645 0.045817 0.631921
H6 H 0.810997 0.037059 0.461484
H9 H 0.628899 0.005042 0.487032
O9 O 0.9860(6) 0.3169(7) 0.8447(6)
O10 O 0.9318(4) 0.3452(7) 0.6526(6)
Zn2 Zn 0.89040(6) 0.27883(10) 0.86277(11)
H16 H 0.994958 0.623857 0.820365
C35 C 0.9670(5) 0.7070(7) 0.8730(9)
C39 C 0.9387(6) 0.6627(8) 0.9488(10)
C40 C 0.9442(5) 0.7437(7) 0.8472(10)
H21 H 0.954183 0.636828 0.965254
C45_2 C 0.8887(6) 0.6557(8) 1.0000(10)
C46 C 0.8917(5) 0.7355(7) 0.9006(10)
H22 H 0.962941 0.773938 0.794817
C50 C 0.8643(5) 0.6929(7) 0.9742(9)
H28 H 0.875677 0.760874 0.883645
O15 O 0.7826(3) 0.7094(4) 0.9925(6)
Cd4_2 Cd 0.68633(4) 0.686330(40) 1.000000
C15 C 0.6921(5) 0.9790(5) 0.4835(8)
C17 C 0.6366(5) 0.9742(5) 0.4638(8)
C18 C 0.7039(6) 0.9334(6) 0.4491(9)
C20 C 0.6588(6) 0.8828(6) 0.4037(8)
H10 H 0.742841 0.937995 0.457710
C21 C 0.6696(6) 0.8326(6) 0.3669(9)
C22 C 0.7095(10) 0.8210(9) 0.4190(11)
C23 C 0.6402(5) 0.7975(5) 0.2776(9)
H12 H 0.730960 0.844724 0.478025
C24 C 0.7184(8) 0.7754(8) 0.3862(10)
C25 C 0.6520(5) 0.7539(5) 0.2436(8)
H13 H 0.611841 0.804336 0.240729
C26 C 0.6904(6) 0.7419(6) 0.3009(8)
H14 H 0.745092 0.766945 0.424621
H15 H 0.633896 0.732065 0.181035
C27 C 0.7033(6) 0.6943(6) 0.2623(9)
O7 O 0.2414(6) 0.8114(9) 0.0444(8)
C29 C 0.5902(7) 0.9224(5) 0.4079(8)
C32 C 0.6020(7) 0.8770(5) 0.3772(8)
C33 C 0.5328(7) 0.9200(5) 0.3792(8)
H17 H 0.572746 0.842854 0.339359
C37 C 0.5058(8) 0.9409(6) 0.4469(9)
C38 C 0.5052(7) 0.8941(5) 0.2851(9)
H19 H 0.523433 0.957849 0.512962
C43 C 0.4516(7) 0.9365(5) 0.4153(9)
H20 H 0.523144 0.877752 0.240361
C44 C 0.4533(7) 0.8913(5) 0.2552(9)
C49 C 0.4244(6) 0.9122(5) 0.3225(8)
H25 H 0.432733 0.951328 0.461240
H26 H 0.436350 0.875121 0.188375
C52 C 0.3669(7) 0.9113(5) 0.2875(9)
O11 O 0.3477(6) 0.8886(4) 0.1977(7)
O12 O 0.3452(7) 0.9318(4) 0.3474(6)
Zn3 Zn 0.27883(10) 0.89040(6) 0.13723(11)
O18 O 0.3169(7) 0.9860(6) 0.1553(6)
O19 O 0.2672(6) 0.9425(8) 0.0206(6)
O20 O 0.2084(4) 0.8564(4) 0.2269(7)
O7_2 O 0.1886(9) 0.4300(11) 0.3777(8)
O19_2 O 0.0575(8) 0.3247(10) 0.3540(6)
O20_2 O 0.1436(4) 0.3520(6) 0.5602(7)
O3_2 O 0.5866(6) 0.6548(7) 0.0140(6)
C7_2 C 0.4849(5) 0.5484(7) 0.0819(9)
H3_2 H 0.518595 0.567267 0.127906
C11_2 C 0.4351(5) 0.4942(8) 0.1135(9)
C14_2 C 0.3872(5) 0.4672(7) 0.0458(8)
H7_2 H 0.434416 0.476567 0.179628
C16_2 C 0.3322(5) 0.4098(7) 0.0745(8)
C19_2 C 0.2750(5) 0.3980(7) 0.0438(8)
H11_2 H 0.270108 0.427254 0.006025
O8_2 O 0.7094(4) 0.7826(5) 0.0075(6)
C28_2 C 0.3376(7) 0.3634(9) 0.1305(8)
C30_2 C 0.2869(7) 0.3079(9) 0.1502(8)
H16_2 H 0.376143 0.371101 0.153699
C31_2 C 0.2240(8) 0.3412(10) 0.0704(8)
C34_2 C 0.2295(8) 0.2961(10) 0.1158(9)
C35_2 C 0.2930(7) 0.2600(9) 0.2064(9)
C36_2 C 0.1630(8) 0.3304(10) 0.0336(9)
H18_2 H 0.195154 0.257159 0.124377
C39_2 C 0.3373(8) 0.2760(10) 0.2822(10)
C40_2 C 0.2563(7) 0.2005(9) 0.1806(10)
C42_2 C 0.1115(13) 0.2905(16) 0.0857(11)
H21_2 H 0.363172 0.317355 0.298588
C45_3 C 0.3443(8) 0.2330(10) 0.3334(10)
C46_2 C 0.2645(7) 0.1562(9) 0.2340(10)
H22_2 H 0.226062 0.189003 0.128151
C48_2 C 0.0570(11) 0.2816(14) 0.0529(10)
H24_2 H 0.113764 0.269040 0.144692
C50_2 C 0.3071(7) 0.1714(9) 0.3076(9)
H27_2 H 0.374210 0.244477 0.386365
H28_2 H 0.239126 0.114803 0.216979
H30_2 H 0.021853 0.254908 0.091288
C53_2 C 0.3175(8) 0.1254(9) 0.3598(9)
O14_2 O 0.3520(6) 0.1436(7) 0.4398(7)
O15_2 O 0.2906(4) 0.0732(5) 0.3259(6)
O21_2 O 0.4300(11) 0.1886(13) 0.6223(8)
O23_2 O 0.4591(4) 0.1114(7) 0.4690(7)
O2_2 O 0.6691(4) 0.6831(7) 0.8219(6)
Zn1_2 Zn 0.61157(8) 0.72117(10) 0.80389(11)
C2_2 C 0.5444(5) 0.6331(7) 0.9541(9)
O5_2 O 0.5409(4) 0.6523(6) 0.8643(7)
C4_2 C 0.4878(4) 0.5756(6) 0.9891(8)
C8_2 C 0.4380(5) 0.5467(7) 0.9218(9)
H4_2 H 0.438771 0.563650 0.855041
C12_2 C 0.3889(5) 0.4948(7) 0.9517(9)
H8_2 H 0.354608 0.476856 0.907027
O10_2 O 0.6548(7) 0.5866(8) 0.9860(6)
C41_2 C 0.1573(7) 0.3598(9) 0.9443(9)
C47_2 C 0.1019(7) 0.3480(9) 0.9103(8)
H23_2 H 0.192495 0.388159 0.907396
H29_2 H 0.098169 0.366104 0.847702
C51_2 C 0.0515(8) 0.3096(10) 0.9676(8)
C54_2 C 0.9910(8) 0.2967(10) 0.9290(9)
O16_2 O 0.9425(8) 0.2672(9) 0.9794(6)
O10_3 O 0.4134(8) 0.0682(4) 0.3193(6)
O21_3 O 0.8114(13) 0.2414(6) 0.9556(8)
O23_3 O 0.8886(7) 0.3477(6) 0.8023(7)
O7_3 O 0.5700(11) 0.7586(6) 0.7111(8)
O19_3 O 0.6753(10) 0.7328(6) 0.6873(6)
O20_3 O 0.6480(6) 0.7916(4) 0.8936(7)
O8_3 O 0.2174(5) 0.9268(3) 0.3408(6)
C27_2 C 0.0090(8) 0.3057(6) 0.4044(9)
C15_2 C 0.7131(7) 0.0210(5) 0.1832(8)
C17_2 C 0.6624(7) 0.0258(5) 0.2029(8)
C18_2 C 0.7705(8) 0.0666(6) 0.2176(9)
C20_2 C 0.7760(8) 0.1172(6) 0.2630(8)
H10_2 H 0.804846 0.062005 0.208957
C21_2 C 0.8370(8) 0.1674(6) 0.2998(9)
C22_2 C 0.8885(13) 0.1790(9) 0.2477(11)
C23_2 C 0.8427(7) 0.2025(5) 0.3891(9)
H12_2 H 0.886236 0.155276 0.188642
C24_2 C 0.9430(11) 0.2246(8) 0.2805(10)
C25_2 C 0.8981(7) 0.2461(5) 0.4231(8)
H13_2 H 0.807505 0.195664 0.425938
C26_2 C 0.9485(8) 0.2581(6) 0.3658(8)
H14_2 H 0.978147 0.233055 0.242046
H15_2 H 0.901831 0.267935 0.485632
C29_2 C 0.6678(9) 0.0776(5) 0.2588(8)
C32_2 C 0.7250(9) 0.1230(5) 0.2895(8)
C33_2 C 0.6128(9) 0.0800(5) 0.2875(8)
H17_2 H 0.729892 0.157146 0.327308
C37_2 C 0.5649(10) 0.0591(6) 0.2198(9)
C38_2 C 0.6111(9) 0.1059(5) 0.3816(9)
H19_2 H 0.565584 0.042151 0.153705
C43_2 C 0.5151(9) 0.0635(5) 0.2514(9)
H20_2 H 0.645392 0.122248 0.426306
C44_2 C 0.5620(9) 0.1087(5) 0.4115(9)
C49_2 C 0.5122(8) 0.0878(5) 0.3442(8)
H25_2 H 0.481405 0.048672 0.205427
H26_2 H 0.561229 0.124879 0.478292
C52_2 C 0.4556(9) 0.0887(5) 0.3792(9)
C2_3 C 0.6331(7) 0.5444(5) 0.0459(9)
C3_2 C 0.6929(7) 0.8643(5) 0.0258(9)
C4_3 C 0.5756(6) 0.4878(4) 0.0109(8)
C5_2 C 0.6557(8) 0.8887(6) -0.0000(10)
C6_2 C 0.7355(7) 0.8917(5) 0.0994(10)
C8_3 C 0.5467(7) 0.4380(5) 0.0782(9)
C9_2 C 0.6627(8) 0.9387(6) 0.0512(10)
C10_2 C 0.7437(7) 0.9442(5) 0.1528(10)
H2_2 H 0.760874 0.875677 0.116355
H4_3 H 0.563650 0.438771 0.144959
C12_3 C 0.4948(7) 0.3889(5) 0.0483(9)
C13_2 C 0.7070(7) 0.9670(5) 0.1270(9)
H5_2 H 0.636828 0.954183 0.034746
H6_2 H 0.773938 0.962941 0.205183
H8_3 H 0.476856 0.354608 0.092973
H9_2 H 0.623857 0.994958 0.179635
C41_3 C 0.3598(9) 0.1573(7) 0.0557(9)
C47_3 C 0.3480(9) 0.1019(7) 0.0897(8)
H23_3 H 0.388159 0.192495 0.092604
H29_3 H 0.366104 0.098169 0.152298
C51_3 C 0.3096(10) 0.0515(8) 0.0324(8)
C1_2 C 0.6825(8) 0.8079(5) 0.9736(9)
C5_3 C 0.6557(8) 0.8887(6) 1.0000(10)
C7_3 C 0.5484(7) 0.4849(5) 0.9181(9)
H1_2 H 0.625790 0.870267 0.946969
H3_3 H 0.567267 0.518595 0.872094
C11_3 C 0.4942(8) 0.4351(5) 0.8865(9)
C14_3 C 0.4672(7) 0.3872(5) 0.9542(8)
H7_3 H 0.476567 0.434416 0.820372
C16_3 C 0.4098(7) 0.3322(5) 0.9255(8)
C19_3 C 0.3980(7) 0.2750(5) 0.9562(8)
H11_3 H 0.427254 0.270108 0.993975
C28_3 C 0.3634(9) 0.3376(7) 0.8695(8)
C30_3 C 0.3079(9) 0.2869(7) 0.8498(8)
H16_3 H 0.371101 0.376143 0.846301
C31_3 C 0.3412(10) 0.2240(8) 0.9296(8)
C34_3 C 0.2961(10) 0.2295(8) 0.8842(9)
C35_3 C 0.2600(9) 0.2930(7) 0.7936(9)
C36_3 C 0.3304(10) 0.1630(8) 0.9664(9)
H18_3 H 0.257159 0.195154 0.875623
C39_3 C 0.2760(10) 0.3373(8) 0.7178(10)
C40_3 C 0.2005(9) 0.2563(7) 0.8194(10)
C42_3 C 0.2905(16) 0.1115(13) 0.9143(11)
H21_3 H 0.317355 0.363172 0.701412
C45_4 C 0.2330(10) 0.3443(8) 0.6666(10)
C46_3 C 0.1562(9) 0.2645(7) 0.7660(10)
H22_3 H 0.189003 0.226062 0.871849
C48_3 C 0.2816(14) 0.0570(11) 0.9471(10)
H24_3 H 0.269040 0.113764 0.855308
C50_3 C 0.1714(9) 0.3071(7) 0.6924(9)
H27_3 H 0.244477 0.374210 0.613635
H28_3 H 0.114803 0.239126 0.783021
H30_3 H 0.254908 0.021853 0.908712
C53_3 C 0.1254(9) 0.3175(8) 0.6402(9)
C54_3 C 0.2967(10) 0.9910(8) 0.0710(9)
H16_4 H 0.005042 0.628899 0.512968
C35_4 C 0.0330(5) 0.7400(9) 0.4603(9)
C39_4 C 0.0613(6) 0.7240(10) 0.3845(10)
C40_4 C 0.0558(5) 0.7995(9) 0.4861(10)
H21_4 H 0.045817 0.682645 0.368079
C45_5 C 0.1113(6) 0.7670(10) 0.3333(10)
C46_4 C 0.1083(5) 0.8438(9) 0.4327(10)
H22_4 H 0.037059 0.810997 0.538516
C50_4 C 0.1357(5) 0.8286(9) 0.3591(9)
H27_4 H 0.129733 0.755523 0.280302
H28_4 H 0.124323 0.885197 0.449688
C53_4 C 0.1921(5) 0.8746(9) 0.3069(9)
C2_4 C 0.9113(5) 0.3669(7) 0.7125(9)
C4_4 C 0.9122(5) 0.4244(6) 0.6775(8)
C7_4 C 0.9365(5) 0.4516(7) 0.5847(9)
C8_4 C 0.8913(5) 0.4533(7) 0.7448(9)
H3_4 H 0.951328 0.432733 0.538760
C11_4 C 0.9409(6) 0.5058(8) 0.5531(9)
H4_4 H 0.875121 0.436350 0.811625
C12_4 C 0.8941(5) 0.5052(7) 0.7149(9)
C14_4 C 0.9200(5) 0.5328(7) 0.6208(8)
H7_4 H 0.957849 0.523433 0.487038
H8_4 H 0.877752 0.523144 0.759639
C16_4 C 0.9224(5) 0.5902(7) 0.5921(8)
C19_4 C 0.8770(5) 0.6020(7) 0.6228(8)
H11_4 H 0.842854 0.572746 0.660641
C28_4 C 0.9742(5) 0.6366(9) 0.5362(8)
C30_4 C 0.9790(5) 0.6921(9) 0.5165(8)
C31_4 C 0.8828(6) 0.6588(10) 0.5963(8)
C34_4 C 0.9334(6) 0.7039(10) 0.5509(9)
C36_4 C 0.8326(6) 0.6696(10) 0.6331(9)
H18_4 H 0.937995 0.742841 0.542290
C41_4 C 0.7975(5) 0.6402(9) 0.7224(9)
C42_4 C 0.8210(9) 0.7095(16) 0.5810(11)
C47_4 C 0.7539(5) 0.6520(9) 0.7564(8)
H23_4 H 0.804336 0.611841 0.759271
C48_4 C 0.7754(8) 0.7184(14) 0.6138(10)
H24_4 H 0.844724 0.730960 0.521975
H29_4 H 0.732065 0.633896 0.818965
C51_4 C 0.7419(6) 0.6904(10) 0.6991(8)
H30_4 H 0.766945 0.745092 0.575379
C54_4 C 0.6943(6) 0.7033(10) 0.7377(9)
H34 H 0.816348 0.270038 0.0125305
H34_2 H 0.270038 0.816348 0.987469
loop_
_geom_bond_atom_site_label_1
_geom_bond_atom_site_label_2
_geom_bond_site_symmetry_1
_geom_bond_site_symmetry_2
O16 C54 1_555 1_555
O17 C54 1_555 1_555
Zn6 O16 1_555 1_555
Cd5 O17 1_555 1_555
O17 Zn6 1_555 1_555
O2 Cd1 1_555 1_555
O3 Cd1 1_555 1_555
Zn1 O2 1_555 1_555
C2 O3 1_555 1_555
O5 Zn1 1_555 1_555
C4 C2 1_555 1_555
C7 C4 1_555 1_555
C8 C4 1_555 1_555
H3 C7 1_555 1_555
C11 C7 1_555 1_555
H4 C8 1_555 1_555
C12 C8 1_555 1_555
C14 C11 1_555 1_555
H7 C11 1_555 1_555
H8 C12 1_555 1_555
C16 C14 1_555 1_555
C19 C16 1_555 1_555
H11 C19 1_555 1_555
O8 Cd1 1_555 1_555
C28 C16 1_555 1_555
C30 C28 1_555 1_555
C31 C19 1_555 1_555
C34 C30 1_555 1_555
C36 C31 1_555 1_555
H18 C34 1_555 1_555
C41 C36 1_555 1_555
C42 C36 1_555 1_555
C47 C41 1_555 1_555
H23 C41 1_555 1_555
C48 C42 1_555 1_555
H24 C42 1_555 1_555
H29 C47 1_555 1_555
C51 C47 1_555 1_555
H30 C48 1_555 1_555
C2 O5 1_555 1_555
C12 C14 1_555 1_555
C31 C34 1_555 1_555
C48 C51 1_555 1_555
H27 C45 1_555 1_555
O14 C53 1_555 1_555
Zn5 O14 1_555 1_555
O21 Zn5 1_555 1_555
O22 Zn5 1_555 1_555
O23 Zn5 1_555 1_555
O24 Zn5 1_555 1_555
Cd4 O22 1_555 1_555
Cd1_2 O1 1_555 1_555
O1 C1 1_555 1_555
C1 O4 1_555 1_555
O4 Zn2 1_555 1_555
C3 C1 1_555 1_555
C5 C3 1_555 1_555
C6 C3 1_555 1_555
C9 C5 1_555 1_555
H1 C5 1_555 1_555
C10 C6 1_555 1_555
H2 C6 1_555 1_555
C13 C9 1_555 1_555
H5 C9 1_555 1_555
H6 C10 1_555 1_555
O9 Cd1_2 1_555 1_555
O10 Cd1_2 1_555 1_555
Zn2 O9 1_555 1_555
C39 C35 1_555 1_555
C40 C35 1_555 1_555
H21 C39 1_555 1_555
C45_2 C39 1_555 1_555
C46 C40 1_555 1_555
H22 C40 1_555 1_555
C50 C45_2 1_555 1_555
H28 C46 1_555 1_555
Cd4_2 O15 1_555 1_555
C10 C13 1_555 1_555
C46 C50 1_555 1_555
C17 C15 1_555 1_555
C18 C15 1_555 1_555
C20 C18 1_555 1_555
H10 C18 1_555 1_555
C21 C20 1_555 1_555
C22 C21 1_555 1_555
C23 C21 1_555 1_555
H12 C22 1_555 1_555
C24 C22 1_555 1_555
C25 C23 1_555 1_555
H13 C23 1_555 1_555
C26 C24 1_555 1_555
H14 C24 1_555 1_555
H15 C25 1_555 1_555
C27 C26 1_555 1_555
O24 C27 1_555 1_555
O7 Zn3 1_555 1_555
C29 C17 1_555 1_555
C32 C20 1_555 1_555
C33 C29 1_555 1_555
H17 C32 1_555 1_555
C37 C33 1_555 1_555
C38 C33 1_555 1_555
H19 C37 1_555 1_555
C43 C37 1_555 1_555
H20 C38 1_555 1_555
C44 C38 1_555 1_555
C49 C43 1_555 1_555
H25 C43 1_555 1_555
H26 C44 1_555 1_555
C52 C49 1_555 1_555
O11 C52 1_555 1_555
O12 C52 1_555 1_555
O22 C27 1_555 1_555
Zn3 O11 1_555 1_555
Cd5_2 O12 1_555 1_555
O18 Zn3 1_555 1_555
O19 Zn3 1_555 1_555
O20 Zn3 1_555 1_555
C25 C26 1_555 1_555
C29 C32 1_555 1_555
C44 C49 1_555 1_555
Cd5_2 O18 1_555 1_555
O7_2 Zn1 1_555 1_555
O19_2 Zn1 1_555 1_555
O20_2 Zn1 1_555 1_555
O3_2 Cd4 1_555 1_555
H3_2 C7_2 1_555 1_555
C11_2 C7_2 1_555 1_555
C14_2 C11_2 1_555 1_555
H7_2 C11_2 1_555 1_555
C16_2 C14_2 1_555 1_555
C19_2 C16_2 1_555 1_555
H11_2 C19_2 1_555 1_555
O8_2 Cd4 1_555 1_555
C28_2 C16_2 1_555 1_555
C30_2 C28_2 1_555 1_555
H16_2 C28_2 1_555 1_555
C31_2 C19_2 1_555 1_555
C34_2 C30_2 1_555 1_555
C35_2 C30_2 1_555 1_555
C36_2 C31_2 1_555 1_555
H18_2 C34_2 1_555 1_555
C39_2 C35_2 1_555 1_555
C40_2 C35_2 1_555 1_555
C42_2 C36_2 1_555 1_555
H21_2 C39_2 1_555 1_555
C45_3 C39_2 1_555 1_555
C46_2 C40_2 1_555 1_555
H22_2 C40_2 1_555 1_555
C48_2 C42_2 1_555 1_555
H24_2 C42_2 1_555 1_555
C50_2 C45_3 1_555 1_555
H27_2 C45_3 1_555 1_555
H28_2 C46_2 1_555 1_555
H30_2 C48_2 1_555 1_555
C53_2 C50_2 1_555 1_555
O14_2 C53_2 1_555 1_555
O15_2 C53_2 1_555 1_555
Zn6 O14_2 1_555 1_555
Cd5 O15_2 1_555 1_555
O21_2 Zn6 1_555 1_555
O23_2 Zn6 1_555 1_555
C31_2 C34_2 1_555 1_555
C46_2 C50_2 1_555 1_555
O2_2 Cd4_2 1_555 1_555
Zn1_2 O2_2 1_555 1_555
O5_2 Zn1_2 1_555 1_555
C4_2 C2_2 1_555 1_555
C8_2 C4_2 1_555 1_555
H4_2 C8_2 1_555 1_555
C12_2 C8_2 1_555 1_555
H8_2 C12_2 1_555 1_555
O10_2 Cd4_2 1_555 1_555
C47_2 C41_2 1_555 1_555
H23_2 C41_2 1_555 1_555
H29_2 C47_2 1_555 1_555
C51_2 C47_2 1_555 1_555
C2_2 O5_2 1_555 1_555
O16_2 C54_2 1_555 1_555
O9 C54_2 1_555 1_555
Zn2 O16_2 1_555 1_555
O10_3 Cd5 1_555 1_555
O21_3 Zn2 1_555 1_555
O23_3 Zn2 1_555 1_555
O7_3 Zn1_2 1_555 1_555
O19_3 Zn1_2 1_555 1_555
O20_3 Zn1_2 1_555 1_555
O8_3 Cd5_2 1_555 1_555
O19_2 C27_2 1_555 1_555
O2 C27_2 1_555 1_555
C17_2 C15_2 1_555 1_555
C18_2 C15_2 1_555 1_555
C20_2 C18_2 1_555 1_555
H10_2 C18_2 1_555 1_555
C21_2 C20_2 1_555 1_555
C22_2 C21_2 1_555 1_555
C23_2 C21_2 1_555 1_555
H12_2 C22_2 1_555 1_555
C24_2 C22_2 1_555 1_555
C25_2 C23_2 1_555 1_555
H13_2 C23_2 1_555 1_555
C26_2 C24_2 1_555 1_555
H14_2 C24_2 1_555 1_555
H15_2 C25_2 1_555 1_555
C29_2 C17_2 1_555 1_555
C32_2 C20_2 1_555 1_555
C33_2 C29_2 1_555 1_555
H17_2 C32_2 1_555 1_555
C37_2 C33_2 1_555 1_555
C38_2 C33_2 1_555 1_555
H19_2 C37_2 1_555 1_555
C43_2 C37_2 1_555 1_555
H20_2 C38_2 1_555 1_555
C44_2 C38_2 1_555 1_555
C49_2 C43_2 1_555 1_555
H25_2 C43_2 1_555 1_555
H26_2 C44_2 1_555 1_555
C52_2 C49_2 1_555 1_555
O23_2 C52_2 1_555 1_555
O10_3 C52_2 1_555 1_555
C25_2 C26_2 1_555 1_555
C29_2 C32_2 1_555 1_555
C44_2 C49_2 1_555 1_555
C4_3 C2_3 1_555 1_555
C5_2 C3_2 1_555 1_555
C6_2 C3_2 1_555 1_555
C8_3 C4_3 1_555 1_555
C9_2 C5_2 1_555 1_555
C10_2 C6_2 1_555 1_555
H2_2 C6_2 1_555 1_555
H4_3 C8_3 1_555 1_555
C12_3 C8_3 1_555 1_555
C13_2 C9_2 1_555 1_555
H5_2 C9_2 1_555 1_555
H6_2 C10_2 1_555 1_555
H8_3 C12_3 1_555 1_555
C47_3 C41_3 1_555 1_555
H23_3 C41_3 1_555 1_555
H29_3 C47_3 1_555 1_555
C51_3 C47_3 1_555 1_555
C2_3 O23 1_555 1_555
C10_2 C13_2 1_555 1_555
C1_2 O20_3 1_555 1_555
H1_2 C5_3 1_555 1_555
H3_3 C7_3 1_555 1_555
C11_3 C7_3 1_555 1_555
C14_3 C11_3 1_555 1_555
H7_3 C11_3 1_555 1_555
C16_3 C14_3 1_555 1_555
C19_3 C16_3 1_555 1_555
H11_3 C19_3 1_555 1_555
C28_3 C16_3 1_555 1_555
C30_3 C28_3 1_555 1_555
H16_3 C28_3 1_555 1_555
C31_3 C19_3 1_555 1_555
C34_3 C30_3 1_555 1_555
C35_3 C30_3 1_555 1_555
C36_3 C31_3 1_555 1_555
H18_3 C34_3 1_555 1_555
C39_3 C35_3 1_555 1_555
C40_3 C35_3 1_555 1_555
C42_3 C36_3 1_555 1_555
H21_3 C39_3 1_555 1_555
C45_4 C39_3 1_555 1_555
C46_3 C40_3 1_555 1_555
H22_3 C40_3 1_555 1_555
C48_3 C42_3 1_555 1_555
H24_3 C42_3 1_555 1_555
C50_3 C45_4 1_555 1_555
H27_3 C45_4 1_555 1_555
H28_3 C46_3 1_555 1_555
H30_3 C48_3 1_555 1_555
C53_3 C50_3 1_555 1_555
O20_2 C53_3 1_555 1_555
O8 C53_3 1_555 1_555
C31_3 C34_3 1_555 1_555
C46_3 C50_3 1_555 1_555
O19 C54_3 1_555 1_555
O18 C54_3 1_555 1_555
C39_4 C35_4 1_555 1_555
C40_4 C35_4 1_555 1_555
H21_4 C39_4 1_555 1_555
C45_5 C39_4 1_555 1_555
C46_4 C40_4 1_555 1_555
H22_4 C40_4 1_555 1_555
C50_4 C45_5 1_555 1_555
H27_4 C45_5 1_555 1_555
H28_4 C46_4 1_555 1_555
C53_4 C50_4 1_555 1_555
O20 C53_4 1_555 1_555
O8_3 C53_4 1_555 1_555
C46_4 C50_4 1_555 1_555
C2_4 O10 1_555 1_555
C4_4 C2_4 1_555 1_555
C7_4 C4_4 1_555 1_555
C8_4 C4_4 1_555 1_555
H3_4 C7_4 1_555 1_555
C11_4 C7_4 1_555 1_555
H4_4 C8_4 1_555 1_555
C12_4 C8_4 1_555 1_555
C14_4 C11_4 1_555 1_555
H7_4 C11_4 1_555 1_555
H8_4 C12_4 1_555 1_555
C16_4 C14_4 1_555 1_555
C19_4 C16_4 1_555 1_555
H11_4 C19_4 1_555 1_555
C28_4 C16_4 1_555 1_555
C30_4 C28_4 1_555 1_555
C31_4 C19_4 1_555 1_555
C34_4 C30_4 1_555 1_555
C36_4 C31_4 1_555 1_555
H18_4 C34_4 1_555 1_555
C41_4 C36_4 1_555 1_555
C42_4 C36_4 1_555 1_555
C47_4 C41_4 1_555 1_555
H23_4 C41_4 1_555 1_555
C48_4 C42_4 1_555 1_555
H24_4 C42_4 1_555 1_555
H29_4 C47_4 1_555 1_555
C51_4 C47_4 1_555 1_555
H30_4 C48_4 1_555 1_555
C54_4 C51_4 1_555 1_555
O19_3 C54_4 1_555 1_555
O2_2 C54_4 1_555 1_555
C2_4 O23_3 1_555 1_555
C12_4 C14_4 1_555 1_555
C31_4 C34_4 1_555 1_555
C48_4 C51_4 1_555 1_555

#END
