
###############################################################################
#
# This file contains modified crystal structure data generated from the
# MOF subset of the Cambridge Structural Database (CSD) v543 
# hosted by the Cambridge Crystallographic Data Centre (CCDC).
#
# This work is licensed under the Creative Commons
# Attribution-NonCommercial-ShareAlike 4.0 International License.
# To view a copy of this license, visit
# http://creativecommons.org/licenses/by-nc-sa/4.0/
# or send a letter to
# Creative Commons, PO Box 1866, Mountain View, CA 94042, USA.
#
# CIF created using the CSD Python API on 29 September 2022
# The structure has been converted into the P1 space group
# The structure has a 3D framework
# The original CSD entry EKULAA is in the triclinic crystal system
# The framework has been calculated to contain at least 10.0% void space
# The void calculation uses a probe of radius 1.32A, grid spacing 0.4
#
###############################################################################

data_EKULAA
_chemical_formula_moiety         '(C52 H34 Cu3 N4 O12 S2)n'
_symmetry_cell_setting           triclinic
_symmetry_space_group_name_H-M   'P 1'
_symmetry_Int_Tables_number      1
_space_group_name_Hall           'P 1'
loop_
_symmetry_equiv_pos_site_id
_symmetry_equiv_pos_as_xyz
1 x,y,z
_cell_length_a                   10.7683(13)
_cell_length_b                   12.9615(15)
_cell_length_c                   13.7053(16)
_cell_angle_alpha                75.796(3)
_cell_angle_beta                 69.498(4)
_cell_angle_gamma                67.431(3)
_cell_volume                     1640.85
loop_
_atom_site_label
_atom_site_type_symbol
_atom_site_fract_x
_atom_site_fract_y
_atom_site_fract_z
_atom_site_U_iso_or_equiv
_atom_site_thermal_displace_type
Cu1 Cu 0.05435(3) 0.85640(3) 0.18852(3) 0.0167 Uani
N2 N 0.0356(3) 0.7308(2) 0.3048(2) 0.0251 Uani
C14 C 0.0075(3) 0.5487(3) 0.4588(3) 0.0310 Uani
C25 C 0.1283(6) 0.6307(3) 0.2965(4) 0.0734 Uani
H17 H 0.207497 0.620647 0.236093 0.0880 Uiso
C26 C 0.1182(6) 0.5383(4) 0.3704(4) 0.0840 Uani
H18 H 0.188756 0.467015 0.359623 0.1010 Uiso
C33 C 0.0702(5) 0.2569(3) 0.6085(4) 0.0641 Uani
H23 H 0.137331 0.183981 0.599067 0.0770 Uiso
C34 C 0.0876(5) 0.3451(4) 0.5308(4) 0.0727 Uani
H24 H 0.165827 0.332201 0.469944 0.0870 Uiso
O16 O 0.07799(19) 0.96487(15) 0.06318(14) 0.0156 Uani
O19 O 0.2447(2) 0.81757(17) 0.19623(16) 0.0248 Uani
Cu15 Cu 0.10295(3) 0.91416(3) 0.93089(3) 0.0161 Uani
O13 O 0.0683(2) 0.01700(17) 0.70123(16) 0.0273 Uani
S2 S 0.31703(14) 0.50535(7) 0.61075(7) 0.0544 Uani
O8 O 0.2554(2) 0.00852(16) 0.85132(16) 0.0212 Uani
O10 O 0.0809(2) 0.17400(16) 0.85702(17) 0.0247 Uani
O11 O 0.1005(2) 0.85796(16) 0.81477(16) 0.0242 Uani
O12 O 0.7553(2) 0.18243(17) 0.80377(16) 0.0248 Uani
O14 O 0.6962(2) 0.03240(19) 0.8996(2) 0.0362 Uani
C37 C 0.3067(3) 0.1769(2) 0.8313(2) 0.0191 Uani
C38 C 0.2090(3) 0.1127(2) 0.8480(2) 0.0192 Uani
C39 C 0.2026(4) 0.7236(3) 0.6626(2) 0.0299 Uani
H28 H 0.201250 0.691653 0.733065 0.0360 Uiso
C40 C 0.4381(3) 0.1223(2) 0.8468(2) 0.0212 Uani
H29 H 0.466911 0.043751 0.870123 0.0250 Uiso
C41 C 0.2628(3) 0.2926(2) 0.8005(2) 0.0220 Uani
H30 H 0.171273 0.329765 0.792383 0.0260 Uiso
C42 C 0.6704(3) 0.1263(3) 0.8462(2) 0.0237 Uani
C43 C 0.5277(3) 0.1832(2) 0.8282(2) 0.0229 Uani
C44 C 0.3016(3) 0.4798(2) 0.7496(2) 0.0252 Uani
H31 H 0.202656 0.513204 0.790123 0.0300 Uiso
H32 H 0.359450 0.514756 0.764019 0.0300 Uiso
C45 C 0.4840(3) 0.2990(2) 0.7946(2) 0.0240 Uani
H33 H 0.546147 0.340225 0.780489 0.0290 Uiso
C46 C 0.3511(3) 0.3544(2) 0.7816(2) 0.0216 Uani
C47 C 0.1033(3) 0.9128(2) 0.7230(2) 0.0225 Uani
C48 C 0.1536(4) 0.8405(3) 0.6378(2) 0.0283 Uani
C49 C 0.2529(4) 0.6541(3) 0.5858(3) 0.0398 Uani
C50 C 0.1549(5) 0.8873(3) 0.5352(3) 0.0466 Uani
H34 H 0.122536 0.966752 0.517582 0.0560 Uiso
C51 C 0.2034(6) 0.8178(3) 0.4587(3) 0.0645 Uani
H35 H 0.202942 0.849924 0.388576 0.0770 Uiso
C52 C 0.2528(6) 0.7017(3) 0.4829(3) 0.0595 Uani
H36 H 0.286474 0.654723 0.429493 0.0710 Uiso
Cu11 Cu 0.94565(3) 0.14360(3) 0.81148(3) 0.0167 Uani
Cu2 Cu 0.89705(3) 0.08584(3) 0.06911(3) 0.0161 Uani
N1 N 0.7516(3) 0.2339(2) 0.04190(19) 0.0229 Uani
C8 C 0.5531(3) 0.4440(2) 0.0087(2) 0.0240 Uani
C15 C 0.5210(4) 0.3451(3) 0.0334(3) 0.0420 Uani
H8 H 0.429425 0.347734 0.039115 0.0500 Uiso
C16 C 0.6214(4) 0.2434(3) 0.0498(3) 0.0379 Uani
H9 H 0.596441 0.176898 0.067418 0.0460 Uiso
C17 C 0.6886(4) 0.4332(3) 0.0011(3) 0.0368 Uani
C18 C 0.7843(4) 0.3283(3) 0.0179(3) 0.0360 Uani
H11 H 0.876972 0.323089 0.012135 0.0430 Uiso
H21 H 0.283936 0.501673 0.015766 0.0440 Uiso
H27 H 0.148927 0.982379 0.064224 0.0230 Uiso
O17 O 0.8995(2) 0.14204(16) 0.18523(16) 0.0242 Uani
O2 O 0.92201(19) 0.03513(15) 0.93682(14) 0.0156 Uani
H1 H 0.851073 0.017621 0.935776 0.0230 Uiso
H10 H 0.716064 0.498327 0.984234 0.0440 Uiso
N3 N 0.2484(3) 0.7661(2) 0.95810(19) 0.0229 Uani
C27 C 0.4469(3) 0.5560(2) 0.9913(2) 0.0240 Uani
C28 C 0.4790(4) 0.6549(3) 0.9666(3) 0.0420 Uani
H19 H 0.570575 0.652266 0.960885 0.0500 Uiso
C29 C 0.3786(4) 0.7566(3) 0.9502(3) 0.0379 Uani
H20 H 0.403559 0.823102 0.932582 0.0460 Uiso
C30 C 0.3114(4) 0.5668(3) 0.9989(3) 0.0368 Uani
C31 C 0.2157(4) 0.6717(3) 0.9821(3) 0.0360 Uani
H22 H 0.123028 0.676911 0.987865 0.0430 Uiso
S1 S 0.68297(14) 0.49465(7) 0.38925(7) 0.0544 Uani
O1 O 0.7446(2) 0.99148(16) 0.14868(16) 0.0212 Uani
O3 O 0.9191(2) 0.82600(16) 0.14298(17) 0.0247 Uani
O7 O 0.3038(2) 0.96760(19) 0.1004(2) 0.0362 Uani
C1 C 0.6933(3) 0.8231(2) 0.1687(2) 0.0191 Uani
C2 C 0.7910(3) 0.8873(2) 0.1520(2) 0.0192 Uani
C3 C 0.7974(4) 0.2764(3) 0.3374(2) 0.0299 Uani
H2 H 0.798750 0.308347 0.266935 0.0360 Uiso
C4 C 0.5619(3) 0.8777(2) 0.1532(2) 0.0212 Uani
H3 H 0.533089 0.956249 0.129877 0.0250 Uiso
C5 C 0.7372(3) 0.7074(2) 0.1995(2) 0.0220 Uani
H4 H 0.828727 0.670235 0.207617 0.0260 Uiso
C6 C 0.3296(3) 0.8737(3) 0.1538(2) 0.0237 Uani
C7 C 0.4723(3) 0.8168(2) 0.1718(2) 0.0229 Uani
C9 C 0.6984(3) 0.5202(2) 0.2504(2) 0.0252 Uani
H5 H 0.797344 0.486796 0.209877 0.0300 Uiso
H6 H 0.640550 0.485244 0.235981 0.0300 Uiso
C10 C 0.5160(3) 0.7010(2) 0.2054(2) 0.0240 Uani
H7 H 0.453853 0.659775 0.219511 0.0290 Uiso
C11 C 0.6489(3) 0.6456(2) 0.2184(2) 0.0216 Uani
C12 C 0.8967(3) 0.0872(2) 0.2770(2) 0.0225 Uani
C13 C 0.8464(4) 0.1595(3) 0.3622(2) 0.0283 Uani
C19 C 0.7471(4) 0.3459(3) 0.4142(3) 0.0398 Uani
C20 C 0.8451(5) 0.1127(3) 0.4648(3) 0.0466 Uani
H12 H 0.877464 0.033248 0.482418 0.0560 Uiso
C21 C 0.9298(5) 0.7431(3) 0.3915(4) 0.0641 Uani
H13 H 0.862669 0.816019 0.400933 0.0770 Uiso
C22 C 0.7966(6) 0.1822(3) 0.5413(3) 0.0645 Uani
H14 H 0.797058 0.150076 0.611424 0.0770 Uiso
C23 C 0.7472(6) 0.2983(3) 0.5171(3) 0.0595 Uani
H15 H 0.713526 0.345277 0.570507 0.0710 Uiso
C24 C 0.9124(5) 0.6549(4) 0.4692(4) 0.0727 Uani
H16 H 0.834173 0.667799 0.530056 0.0870 Uiso
N4 N 0.9644(3) 0.2692(2) 0.6952(2) 0.0251 Uani
C32 C 0.9925(3) 0.4513(3) 0.5412(3) 0.0310 Uani
C35 C 0.8717(6) 0.3693(3) 0.7035(4) 0.0734 Uani
H25 H 0.792503 0.379353 0.763907 0.0880 Uiso
C36 C 0.8818(6) 0.4617(4) 0.6296(4) 0.0840 Uani
H26 H 0.811244 0.532985 0.640377 0.1010 Uiso
O21 O 0.9317(2) 0.98300(17) 0.29877(16) 0.0273 Uani
loop_
_atom_site_aniso_label
_atom_site_aniso_U_11
_atom_site_aniso_U_22
_atom_site_aniso_U_33
_atom_site_aniso_U_23
_atom_site_aniso_U_13
_atom_site_aniso_U_12
Cu1 0.01447 0.01391 0.0215 0.00739 -0.00898 -0.00685
N2 0.022 0.021 0.0302 0.0096 -0.0102 -0.0102
C14 0.0314 0.0229 0.0336 0.0123 -0.0108 -0.012
C25 0.088 0.029 0.047 0.0094 0.02 -0.004
C26 0.107 0.022 0.056 0.0111 0.022 -0.001
C33 0.06 0.028 0.057 0.0131 0.013 -0.0024
C34 0.07 0.036 0.055 0.018 0.018 -0.004
O16 0.0138 0.014 0.0203 0.0043 -0.0089 -0.0064
O19 0.022 0.0267 0.0293 0.0116 -0.0154 -0.0138
Cu15 0.01587 0.01085 0.02006 0.00232 -0.00905 -0.00203
O13 0.0384 0.0151 0.0235 0.0027 -0.0099 -0.0057
S2 0.1043 0.0181 0.0313 -0.0018 -0.0179 -0.0121
O8 0.0173 0.0151 0.03 0.0035 -0.0082 -0.0065
O10 0.0155 0.0181 0.0411 0.002 -0.0132 -0.0051
O11 0.0353 0.0148 0.0219 0.0024 -0.0127 -0.0063
O12 0.022 0.0267 0.0293 0.0116 -0.0154 -0.0138
O14 0.0292 0.0295 0.0559 0.0206 -0.0283 -0.0172
C37 0.0175 0.018 0.0235 0.0029 -0.0084 -0.0086
C38 0.0169 0.0205 0.0213 0.0034 -0.0083 -0.0086
C39 0.044 0.0213 0.0225 0.0016 -0.0125 -0.0088
C40 0.02 0.0184 0.0268 0.0041 -0.01 -0.0093
C41 0.0172 0.0208 0.0281 0.0031 -0.0108 -0.0064
C42 0.0196 0.0264 0.0287 0.0062 -0.0125 -0.0121
C43 0.0199 0.0244 0.0266 0.0054 -0.012 -0.0101
C44 0.0281 0.0184 0.0323 0.0002 -0.0133 -0.0088
C45 0.0238 0.0227 0.0299 0.0037 -0.0117 -0.0131
C46 0.0209 0.0185 0.0267 0.0013 -0.0097 -0.0078
C47 0.0216 0.0208 0.0246 -0.0002 -0.0101 -0.0049
C48 0.0367 0.0207 0.0263 -0.0003 -0.013 -0.0063
C49 0.067 0.0206 0.0281 0.002 -0.016 -0.0113
C50 0.079 0.0215 0.0303 0.0039 -0.0244 -0.0035
C51 0.124 0.033 0.027 0.004 -0.031 -0.012
C52 0.115 0.0297 0.0267 -0.0052 -0.024 -0.012
Cu11 0.01447 0.01391 0.0215 0.00739 -0.00898 -0.00685
Cu2 0.01587 0.01085 0.02006 0.00232 -0.00905 -0.00203
N1 0.0256 0.0143 0.0261 0.0008 -0.0127 -0.001
C8 0.0272 0.0158 0.025 -0.001 -0.0135 0.0015
C15 0.0295 0.0201 0.081 0.0003 -0.0329 -0.0018
C16 0.0301 0.0173 0.069 0.0028 -0.0274 -0.0038
C17 0.03 0.0147 0.061 0.0051 -0.017 -0.0048
C18 0.0227 0.0212 0.06 0.0013 -0.015 -0.004
O17 0.0353 0.0148 0.0219 0.0024 -0.0127 -0.0063
O2 0.0138 0.014 0.0203 0.0043 -0.0089 -0.0064
N3 0.0256 0.0143 0.0261 0.0008 -0.0127 -0.001
C27 0.0272 0.0158 0.025 -0.001 -0.0135 0.0015
C28 0.0295 0.0201 0.081 0.0003 -0.0329 -0.0018
C29 0.0301 0.0173 0.069 0.0028 -0.0274 -0.0038
C30 0.03 0.0147 0.061 0.0051 -0.017 -0.0048
C31 0.0227 0.0212 0.06 0.0013 -0.015 -0.004
S1 0.1043 0.0181 0.0313 -0.0018 -0.0179 -0.0121
O1 0.0173 0.0151 0.03 0.0035 -0.0082 -0.0065
O3 0.0155 0.0181 0.0411 0.002 -0.0132 -0.0051
O7 0.0292 0.0295 0.0559 0.0206 -0.0283 -0.0172
C1 0.0175 0.018 0.0235 0.0029 -0.0084 -0.0086
C2 0.0169 0.0205 0.0213 0.0034 -0.0083 -0.0086
C3 0.044 0.0213 0.0225 0.0016 -0.0125 -0.0088
C4 0.02 0.0184 0.0268 0.0041 -0.01 -0.0093
C5 0.0172 0.0208 0.0281 0.0031 -0.0108 -0.0064
C6 0.0196 0.0264 0.0287 0.0062 -0.0125 -0.0121
C7 0.0199 0.0244 0.0266 0.0054 -0.012 -0.0101
C9 0.0281 0.0184 0.0323 0.0002 -0.0133 -0.0088
C10 0.0238 0.0227 0.0299 0.0037 -0.0117 -0.0131
C11 0.0209 0.0185 0.0267 0.0013 -0.0097 -0.0078
C12 0.0216 0.0208 0.0246 -0.0002 -0.0101 -0.0049
C13 0.0367 0.0207 0.0263 -0.0003 -0.013 -0.0063
C19 0.067 0.0206 0.0281 0.002 -0.016 -0.0113
C20 0.079 0.0215 0.0303 0.0039 -0.0244 -0.0035
C21 0.06 0.028 0.057 0.0131 0.013 -0.0024
C22 0.124 0.033 0.027 0.004 -0.031 -0.012
C23 0.115 0.0297 0.0267 -0.0052 -0.024 -0.012
C24 0.07 0.036 0.055 0.018 0.018 -0.004
N4 0.022 0.021 0.0302 0.0096 -0.0102 -0.0102
C32 0.0314 0.0229 0.0336 0.0123 -0.0108 -0.012
C35 0.088 0.029 0.047 0.0094 0.02 -0.004
C36 0.107 0.022 0.056 0.0111 0.022 -0.001
O21 0.0384 0.0151 0.0235 0.0027 -0.0099 -0.0057
loop_
_geom_bond_atom_site_label_1
_geom_bond_atom_site_label_2
_geom_bond_site_symmetry_1
_geom_bond_site_symmetry_2
N2 Cu1 1_555 1_555
C25 N2 1_555 1_555
H17 C25 1_555 1_555
C26 C14 1_555 1_555
H18 C26 1_555 1_555
C33 H23 1_555 1_555
H24 C34 1_555 1_555
O16 Cu1 1_555 1_555
O19 Cu1 1_555 1_555
C25 C26 1_555 1_555
C33 C34 1_555 1_555
S2 C44 1_555 1_555
O10 C38 1_555 1_555
O11 C47 1_555 1_555
O12 C42 1_555 1_555
O14 C42 1_555 1_555
C37 C38 1_555 1_555
C38 O8 1_555 1_555
C39 H28 1_555 1_555
C40 C37 1_555 1_555
H29 C40 1_555 1_555
C41 C37 1_555 1_555
H30 C41 1_555 1_555
C42 C43 1_555 1_555
C43 C40 1_555 1_555
C44 H31 1_555 1_555
H32 C44 1_555 1_555
C45 C43 1_555 1_555
H33 C45 1_555 1_555
C46 C41 1_555 1_555
C47 C48 1_555 1_555
C48 C39 1_555 1_555
C49 S2 1_555 1_555
C50 C48 1_555 1_555
H34 C50 1_555 1_555
C51 C50 1_555 1_555
H35 C51 1_555 1_555
C52 C49 1_555 1_555
H36 C52 1_555 1_555
Cu11 O12 1_555 1_555
Cu15 O11 1_555 1_555
C39 C49 1_555 1_555
C44 C46 1_555 1_555
C45 C46 1_555 1_555
C51 C52 1_555 1_555
N1 Cu2 1_555 1_555
C8 C15 1_555 1_555
C15 H8 1_555 1_555
C16 N1 1_555 1_555
H9 C16 1_555 1_555
C17 C8 1_555 1_555
C18 N1 1_555 1_555
H11 C18 1_555 1_555
H27 O16 1_555 1_555
O17 Cu2 1_555 1_555
C15 C16 1_555 1_555
C17 C18 1_555 1_555
H1 O2 1_555 1_555
N3 C29 1_555 1_555
C28 C27 1_555 1_555
H19 C28 1_555 1_555
C29 C28 1_555 1_555
H20 C29 1_555 1_555
C30 C27 1_555 1_555
C31 N3 1_555 1_555
H22 C31 1_555 1_555
Cu15 N3 1_555 1_555
Cu11 O2 1_555 1_555
C30 C31 1_555 1_555
S1 C9 1_555 1_555
O1 C2 1_555 1_555
O3 C2 1_555 1_555
O17 C12 1_555 1_555
O19 C6 1_555 1_555
O7 C6 1_555 1_555
C1 C2 1_555 1_555
C3 H2 1_555 1_555
C4 C1 1_555 1_555
H3 C4 1_555 1_555
C5 C1 1_555 1_555
H4 C5 1_555 1_555
C6 C7 1_555 1_555
C7 C4 1_555 1_555
C9 H5 1_555 1_555
H6 C9 1_555 1_555
C10 C7 1_555 1_555
H7 C10 1_555 1_555
C11 C5 1_555 1_555
C12 C13 1_555 1_555
C13 C3 1_555 1_555
C19 S1 1_555 1_555
C20 C13 1_555 1_555
H12 C20 1_555 1_555
H13 C21 1_555 1_555
C22 C20 1_555 1_555
H14 C22 1_555 1_555
C23 C19 1_555 1_555
H15 C23 1_555 1_555
C24 C21 1_555 1_555
H16 C24 1_555 1_555
C35 N4 1_555 1_555
H25 C35 1_555 1_555
C36 C32 1_555 1_555
H26 C36 1_555 1_555
Cu11 N4 1_555 1_555
C3 C19 1_555 1_555
C9 C11 1_555 1_555
C10 C11 1_555 1_555
C22 C23 1_555 1_555
C35 C36 1_555 1_555

#END
