
###############################################################################
#
# This file contains modified crystal structure data generated from the
# MOF subset of the Cambridge Structural Database (CSD) v543 
# hosted by the Cambridge Crystallographic Data Centre (CCDC).
#
# This work is licensed under the Creative Commons
# Attribution-NonCommercial-ShareAlike 4.0 International License.
# To view a copy of this license, visit
# http://creativecommons.org/licenses/by-nc-sa/4.0/
# or send a letter to
# Creative Commons, PO Box 1866, Mountain View, CA 94042, USA.
#
# CIF created using the CSD Python API on 29 September 2022
# The structure has been converted into the P1 space group
# The structure has a 3D framework
# The original CSD entry ELENOB is in the orthorhombic crystal system
# The framework has been calculated to contain at least 10.0% void space
# The void calculation uses a probe of radius 1.32A, grid spacing 0.4
#
###############################################################################

data_ELENOB
_chemical_formula_moiety         '(C128 H64 Co20 N32 O32)n'
_symmetry_cell_setting           triclinic
_symmetry_space_group_name_H-M   'P 1'
_symmetry_Int_Tables_number      1
_space_group_name_Hall           'P 1'
loop_
_symmetry_equiv_pos_site_id
_symmetry_equiv_pos_as_xyz
1 x,y,z
_cell_length_a                   17.278(4)
_cell_length_b                   23.157(5)
_cell_length_c                   13.984(3)
_cell_angle_alpha                90
_cell_angle_beta                 90
_cell_angle_gamma                90
_cell_volume                     5595.09
loop_
_atom_site_label
_atom_site_type_symbol
_atom_site_fract_x
_atom_site_fract_y
_atom_site_fract_z
Co1 Co 0.02565(2) 0.59783(2) 0.31209(3)
Co2 Co 0.000000 0.500000 0.500000
N1 N 0.01676(16) 0.58939(11) 0.52151(18)
N2 N 0.09376(15) 0.49776(10) 0.40084(18)
O1 O 0.41914(14) 0.48253(10) 0.11400(16)
O2 O 0.05127(15) 0.83161(9) 0.74008(16)
N3 N 0.10033(15) 0.53312(11) 0.32205(17)
N4 N 0.02234(16) 0.62770(10) 0.44672(18)
O3 O 0.42338(13) 0.42298(11) 0.23819(17)
C1 C 0.38964(19) 0.46080(14) 0.1869(2)
C2 C 0.16798(18) 0.51972(13) 0.2777(2)
C3 C 0.0494(2) 0.83576(13) 0.6488(2)
O4 O 0.05082(18) 0.88234(10) 0.60619(18)
C4 C 0.27825(19) 0.45496(15) 0.2984(2)
H1 H 0.303679 0.425924 0.331866
C5 C 0.20559(18) 0.47492(14) 0.3284(2)
C6 C 0.0224(2) 0.61840(14) 0.6037(2)
H2 H 0.020916 0.601820 0.664265
C7 C 0.31121(19) 0.47925(14) 0.2182(2)
C8 C 0.2021(2) 0.54387(16) 0.1952(2)
H3 H 0.177267 0.572849 0.160959
C9 C 0.0455(3) 0.78282(15) 0.4921(2)
H4 H 0.050256 0.818452 0.461944
C10 C 0.0392(3) 0.73415(15) 0.4375(2)
H5 H 0.040457 0.736240 0.371094
C11 C 0.0307(2) 0.68089(13) 0.4842(2)
C12 C 0.2725(2) 0.52359(16) 0.1673(2)
H6 H 0.295856 0.539283 0.113307
C13 C 0.0310(2) 0.67772(13) 0.5852(2)
C14 C 0.15486(19) 0.46345(14) 0.4053(2)
H7 H 0.163211 0.435738 0.452313
C15 C 0.0387(2) 0.72846(14) 0.6399(2)
H8 H 0.039405 0.726739 0.706386
C16 C 0.0450(2) 0.78053(13) 0.5935(2)
Co5 Co 0.52565(2) 0.40217(2) 0.18791(3)
Co6 Co 0.02565(2) 0.90217(2) 0.81209(3)
Co9 Co 0.500000 0.500000 0.000000
O10 O 0.08086(14) 0.48253(10) 0.61400(16)
O12 O 0.05127(15) 0.66839(9) 0.24008(16)
O14 O 0.07662(13) 0.42298(11) 0.73819(17)
Co9_2 Co 0.500000 0.500000 1.000000
Co2_2 Co 1.000000 0.500000 0.500000
Co3 Co 0.97435(2) 0.40217(2) 0.68791(3)
N5 N 0.98324(16) 0.41061(11) 0.47849(18)
N6 N 0.90624(15) 0.50224(10) 0.59916(18)
O5 O 0.58086(14) 0.51747(10) 0.88600(16)
O6 O 0.94873(15) 0.16839(9) 0.25992(16)
N7 N 0.89967(15) 0.46688(11) 0.67795(17)
N8 N 0.97766(16) 0.37230(10) 0.55328(18)
O7 O 0.57662(13) 0.57702(11) 0.76181(17)
C17 C 0.61036(19) 0.53920(14) 0.8131(2)
C18 C 0.83202(18) 0.48028(13) 0.7223(2)
C19 C 0.9506(2) 0.16424(13) 0.3512(2)
O8 O 0.94918(18) 0.11766(10) 0.39381(18)
C20 C 0.72175(19) 0.54504(15) 0.7016(2)
H9 H 0.696321 0.574076 0.668134
C21 C 0.79441(18) 0.52508(14) 0.6716(2)
C22 C 0.9776(2) 0.38160(14) 0.3963(2)
H10 H 0.979084 0.398180 0.335735
C23 C 0.68879(19) 0.52075(14) 0.7818(2)
C24 C 0.7979(2) 0.45613(16) 0.8048(2)
H11 H 0.822733 0.427151 0.839041
C25 C 0.9545(3) 0.21718(15) 0.5079(2)
H12 H 0.949744 0.181548 0.538056
C26 C 0.9608(3) 0.26585(15) 0.5625(2)
H13 H 0.959543 0.263760 0.628906
C27 C 0.9693(2) 0.31911(13) 0.5158(2)
C28 C 0.7275(2) 0.47641(16) 0.8327(2)
H14 H 0.704144 0.460717 0.886693
C29 C 0.9690(2) 0.32228(13) 0.4148(2)
C30 C 0.84514(19) 0.53655(14) 0.5947(2)
H15 H 0.836789 0.564262 0.547687
C31 C 0.9613(2) 0.27154(14) 0.3601(2)
H16 H 0.960595 0.273261 0.293614
C32 C 0.9550(2) 0.21947(13) 0.4065(2)
Co4 Co 0.97435(2) 0.09783(2) 0.18791(3)
Co7 Co 0.47435(2) 0.59783(2) 0.81209(3)
O9 O 0.91914(14) 0.51747(10) 0.38600(16)
O11 O 0.94873(15) 0.33161(9) 0.75992(16)
O13 O 0.92338(13) 0.57702(11) 0.26181(17)
Co8 Co 0.000000 0.000000 -0.000000
Co8_2 Co 0.000000 0.000000 1.000000
Co8_3 Co 0.000000 1.000000 -0.000000
Co8_4 Co 0.000000 1.000000 1.000000
Co8_5 Co 1.000000 0.000000 -0.000000
Co2_3 Co 0.500000 0.000000 0.500000
N2_2 N 0.40624(15) 0.00224(10) 0.40084(18)
O1_2 O 0.08086(14) 0.01747(10) 0.11400(16)
O3_2 O 0.07662(13) 0.07702(11) 0.23819(17)
C1_2 C 0.11036(19) 0.03920(14) 0.1869(2)
C4_2 C 0.22175(19) 0.04504(15) 0.2984(2)
H1_2 H 0.196321 0.074076 0.331866
C5_2 C 0.29441(18) 0.02508(14) 0.3284(2)
C7_2 C 0.18879(19) 0.02075(14) 0.2182(2)
C14_2 C 0.34514(19) 0.03655(14) 0.4053(2)
H7_2 H 0.336789 0.064262 0.452313
Co3_2 Co 0.52565(2) 0.09783(2) 0.68791(3)
N5_2 N 0.51676(16) 0.08939(11) 0.47849(18)
O6_2 O 0.55127(15) 0.33161(9) 0.25992(16)
N7_2 N 0.60033(15) 0.03312(11) 0.67795(17)
N8_2 N 0.52234(16) 0.12770(10) 0.55328(18)
C18_2 C 0.66798(18) 0.01972(13) 0.7223(2)
C19_2 C 0.5494(2) 0.33576(13) 0.3512(2)
O8_2 O 0.55082(18) 0.38234(10) 0.39381(18)
C22_2 C 0.5224(2) 0.11840(14) 0.3963(2)
H10_2 H 0.520916 0.101820 0.335735
C24_2 C 0.7021(2) 0.04387(16) 0.8048(2)
H11_2 H 0.677267 0.072849 0.839041
C25_2 C 0.5455(3) 0.28282(15) 0.5079(2)
H12_2 H 0.550256 0.318452 0.538056
C26_2 C 0.5392(3) 0.23415(15) 0.5625(2)
H13_2 H 0.540457 0.236240 0.628906
C27_2 C 0.5307(2) 0.18089(13) 0.5158(2)
C28_2 C 0.7725(2) 0.02359(16) 0.8327(2)
H14_2 H 0.795856 0.039283 0.886693
C29_2 C 0.5310(2) 0.17772(13) 0.4148(2)
C31_2 C 0.5387(2) 0.22846(14) 0.3601(2)
H16_2 H 0.539405 0.226739 0.293614
C32_2 C 0.5450(2) 0.28053(13) 0.4065(2)
Co8_6 Co 1.000000 0.000000 1.000000
O10_2 O 0.41914(14) 0.01747(10) 0.61400(16)
O11_2 O 0.55127(15) 0.16839(9) 0.75992(16)
O14_2 O 0.42338(13) 0.07702(11) 0.73819(17)
Co8_7 Co 1.000000 1.000000 -0.000000
Co1_2 Co 0.47435(2) 0.90217(2) 0.31209(3)
Co2_4 Co 0.500000 1.000000 0.500000
N1_2 N 0.48324(16) 0.91061(11) 0.52151(18)
O2_2 O 0.44873(15) 0.66839(9) 0.74008(16)
N3_2 N 0.39967(15) 0.96688(11) 0.32205(17)
N4_2 N 0.47766(16) 0.87230(10) 0.44672(18)
C2_2 C 0.33202(18) 0.98028(13) 0.2777(2)
C3_2 C 0.4506(2) 0.66424(13) 0.6488(2)
O4_2 O 0.44918(18) 0.61766(10) 0.60619(18)
C6_2 C 0.4776(2) 0.88160(14) 0.6037(2)
H2_2 H 0.479084 0.898180 0.664265
C8_2 C 0.2979(2) 0.95613(16) 0.1952(2)
H3_2 H 0.322733 0.927151 0.160959
C9_2 C 0.4545(3) 0.71718(15) 0.4921(2)
H4_2 H 0.449744 0.681548 0.461944
C10_2 C 0.4608(3) 0.76585(15) 0.4375(2)
H5_2 H 0.459543 0.763760 0.371094
C11_2 C 0.4693(2) 0.81911(13) 0.4842(2)
C12_2 C 0.2275(2) 0.97641(16) 0.1673(2)
H6_2 H 0.204144 0.960717 0.113307
C13_2 C 0.4690(2) 0.82228(13) 0.5852(2)
C15_2 C 0.4613(2) 0.77154(14) 0.6399(2)
H8_2 H 0.460595 0.773261 0.706386
C16_2 C 0.4550(2) 0.71947(13) 0.5935(2)
N6_2 N 0.59376(15) 0.99776(10) 0.59916(18)
O5_2 O 0.91914(14) 0.98253(10) 0.88600(16)
O7_2 O 0.92338(13) 0.92298(11) 0.76181(17)
C17_2 C 0.88964(19) 0.96080(14) 0.8131(2)
C20_2 C 0.77825(19) 0.95496(15) 0.7016(2)
H9_2 H 0.803679 0.925924 0.668134
C21_2 C 0.70559(18) 0.97492(14) 0.6716(2)
C23_2 C 0.81121(19) 0.97925(14) 0.7818(2)
C30_2 C 0.65486(19) 0.96345(14) 0.5947(2)
H15_2 H 0.663211 0.935738 0.547687
Co8_8 Co 1.000000 1.000000 1.000000
O9_2 O 0.58086(14) 0.98253(10) 0.38600(16)
O12_2 O 0.44873(15) 0.83161(9) 0.24008(16)
O13_2 O 0.57662(13) 0.92298(11) 0.26181(17)
N6_3 N 0.09376(15) 0.00224(10) 0.90084(18)
C17_3 C 0.38964(19) 0.03920(14) 0.6869(2)
C20_3 C 0.27825(19) 0.04504(15) 0.7984(2)
H9_3 H 0.303679 0.074076 0.831866
C21_3 C 0.20559(18) 0.02508(14) 0.8284(2)
C23_3 C 0.31121(19) 0.02075(14) 0.7182(2)
C30_3 C 0.15486(19) 0.03655(14) 0.9053(2)
H15_3 H 0.163211 0.064262 0.952313
N5_3 N 0.01676(16) 0.91061(11) 0.02151(18)
C19_3 C 0.0494(2) 0.66424(13) 0.1488(2)
O8_3 O 0.05082(18) 0.61766(10) 0.10619(18)
C22_3 C 0.0224(2) 0.88160(14) 0.1037(2)
H10_3 H 0.020916 0.898180 0.164265
C29_3 C 0.0310(2) 0.82228(13) 0.0852(2)
C31_3 C 0.0387(2) 0.77154(14) 0.1399(2)
H16_3 H 0.039405 0.773261 0.206386
C32_3 C 0.0450(2) 0.71947(13) 0.0935(2)
N7_3 N 0.10033(15) 0.96688(11) 0.82205(17)
N8_3 N 0.02234(16) 0.87230(10) 0.94672(18)
C18_3 C 0.16798(18) 0.98028(13) 0.7777(2)
C24_3 C 0.2021(2) 0.95613(16) 0.6952(2)
H11_3 H 0.177267 0.927151 0.660959
C25_3 C 0.0455(3) 0.71718(15) 0.9921(2)
H12_3 H 0.050256 0.681548 0.961944
C26_3 C 0.0392(3) 0.76585(15) 0.9375(2)
H13_3 H 0.040457 0.763760 0.871094
C27_3 C 0.0307(2) 0.81911(13) 0.9842(2)
C28_3 C 0.2725(2) 0.97641(16) 0.6673(2)
H14_3 H 0.295856 0.960717 0.613307
N3_3 N 0.89967(15) 0.03312(11) 0.17795(17)
N4_3 N 0.97766(16) 0.12770(10) 0.05328(18)
C2_3 C 0.83202(18) 0.01972(13) 0.2223(2)
C8_3 C 0.7979(2) 0.04387(16) 0.3048(2)
H3_3 H 0.822733 0.072849 0.339041
C9_3 C 0.9545(3) 0.28282(15) 0.0079(2)
H4_3 H 0.949744 0.318452 0.038056
C10_3 C 0.9608(3) 0.23415(15) 0.0625(2)
H5_3 H 0.959543 0.236240 0.128906
C11_3 C 0.9693(2) 0.18089(13) 0.0158(2)
C12_3 C 0.7275(2) 0.02359(16) 0.3327(2)
H6_3 H 0.704144 0.039283 0.386693
N1_3 N 0.98324(16) 0.08939(11) 0.97849(18)
C3_3 C 0.9506(2) 0.33576(13) 0.8512(2)
O4_3 O 0.94918(18) 0.38234(10) 0.89381(18)
C6_3 C 0.9776(2) 0.11840(14) 0.8963(2)
H2_3 H 0.979084 0.101820 0.835735
C13_3 C 0.9690(2) 0.17772(13) 0.9148(2)
C15_3 C 0.9613(2) 0.22846(14) 0.8601(2)
H8_3 H 0.960595 0.226739 0.793614
C16_3 C 0.9550(2) 0.28053(13) 0.9065(2)
N2_3 N 0.90624(15) 0.99776(10) 0.09916(18)
C1_3 C 0.61036(19) 0.96080(14) 0.3131(2)
C4_3 C 0.72175(19) 0.95496(15) 0.2016(2)
H1_3 H 0.696321 0.925924 0.168134
C5_3 C 0.79441(18) 0.97492(14) 0.1716(2)
C7_3 C 0.68879(19) 0.97925(14) 0.2818(2)
C14_3 C 0.84514(19) 0.96345(14) 0.0947(2)
H7_3 H 0.836789 0.935738 0.047687
N2_4 N 0.59376(15) 0.50224(10) 0.09916(18)
N3_4 N 0.60033(15) 0.46688(11) 0.17795(17)
N4_4 N 0.52234(16) 0.37230(10) 0.05328(18)
C1_4 C 0.88964(19) 0.53920(14) 0.3131(2)
C2_4 C 0.66798(18) 0.48028(13) 0.2223(2)
C4_4 C 0.77825(19) 0.54504(15) 0.2016(2)
H1_4 H 0.803679 0.574076 0.168134
C5_4 C 0.70559(18) 0.52508(14) 0.1716(2)
C7_4 C 0.81121(19) 0.52075(14) 0.2818(2)
C8_4 C 0.7021(2) 0.45613(16) 0.3048(2)
H3_4 H 0.677267 0.427151 0.339041
C9_4 C 0.5455(3) 0.21718(15) 0.0079(2)
H4_4 H 0.550256 0.181548 0.038056
C10_4 C 0.5392(3) 0.26585(15) 0.0625(2)
H5_4 H 0.540457 0.263760 0.128906
C11_4 C 0.5307(2) 0.31911(13) 0.0158(2)
C12_4 C 0.7725(2) 0.47641(16) 0.3327(2)
H6_4 H 0.795856 0.460717 0.386693
C14_4 C 0.65486(19) 0.53655(14) 0.0947(2)
H7_4 H 0.663211 0.564262 0.047687
N5_4 N 0.48324(16) 0.58939(11) 0.02151(18)
C19_4 C 0.4506(2) 0.83576(13) 0.1488(2)
O8_4 O 0.44918(18) 0.88234(10) 0.10619(18)
C22_4 C 0.4776(2) 0.61840(14) 0.1037(2)
H10_4 H 0.479084 0.601820 0.164265
C29_4 C 0.4690(2) 0.67772(13) 0.0852(2)
C31_4 C 0.4613(2) 0.72846(14) 0.1399(2)
H16_4 H 0.460595 0.726739 0.206386
C32_4 C 0.4550(2) 0.78053(13) 0.0935(2)
N1_4 N 0.51676(16) 0.41061(11) 0.97849(18)
C3_4 C 0.5494(2) 0.16424(13) 0.8512(2)
O4_4 O 0.55082(18) 0.11766(10) 0.89381(18)
C6_4 C 0.5224(2) 0.38160(14) 0.8963(2)
H2_4 H 0.520916 0.398180 0.835735
C13_4 C 0.5310(2) 0.32228(13) 0.9148(2)
C15_4 C 0.5387(2) 0.27154(14) 0.8601(2)
H8_4 H 0.539405 0.273261 0.793614
C16_4 C 0.5450(2) 0.21947(13) 0.9065(2)
N6_4 N 0.40624(15) 0.49776(10) 0.90084(18)
N7_4 N 0.39967(15) 0.53312(11) 0.82205(17)
N8_4 N 0.47766(16) 0.62770(10) 0.94672(18)
C17_4 C 0.11036(19) 0.46080(14) 0.6869(2)
C18_4 C 0.33202(18) 0.51972(13) 0.7777(2)
C20_4 C 0.22175(19) 0.45496(15) 0.7984(2)
H9_4 H 0.196321 0.425924 0.831866
C21_4 C 0.29441(18) 0.47492(14) 0.8284(2)
C23_4 C 0.18879(19) 0.47925(14) 0.7182(2)
C24_4 C 0.2979(2) 0.54387(16) 0.6952(2)
H11_4 H 0.322733 0.572849 0.660959
C25_4 C 0.4545(3) 0.78282(15) 0.9921(2)
H12_4 H 0.449744 0.818452 0.961944
C26_4 C 0.4608(3) 0.73415(15) 0.9375(2)
H13_4 H 0.459543 0.736240 0.871094
C27_4 C 0.4693(2) 0.68089(13) 0.9842(2)
C28_4 C 0.2275(2) 0.52359(16) 0.6673(2)
H14_4 H 0.204144 0.539283 0.613307
C30_4 C 0.34514(19) 0.46345(14) 0.9053(2)
H15_4 H 0.336789 0.435738 0.952313
loop_
_geom_bond_atom_site_label_1
_geom_bond_atom_site_label_2
_geom_bond_site_symmetry_1
_geom_bond_site_symmetry_2
Co1 N3 1_555 1_555
Co2 N1 1_555 1_555
N1 N4 1_555 1_555
N2 Co2 1_555 1_555
O1 C1 1_555 1_555
O2 C3 1_555 1_555
N3 N2 1_555 1_555
N4 Co1 1_555 1_555
O3 C1 1_555 1_555
C1 C7 1_555 1_555
C2 N3 1_555 1_555
C3 O4 1_555 1_555
C4 H1 1_555 1_555
C5 C2 1_555 1_555
C6 N1 1_555 1_555
H2 C6 1_555 1_555
C7 C4 1_555 1_555
C8 C2 1_555 1_555
H3 C8 1_555 1_555
C9 H4 1_555 1_555
C10 C9 1_555 1_555
H5 C10 1_555 1_555
C11 N4 1_555 1_555
C12 C7 1_555 1_555
H6 C12 1_555 1_555
C13 C6 1_555 1_555
C14 N2 1_555 1_555
H7 C14 1_555 1_555
C15 C13 1_555 1_555
H8 C15 1_555 1_555
C16 C3 1_555 1_555
Co5 O3 1_555 1_555
Co6 O2 1_555 1_555
Co9 O1 1_555 1_555
O10 Co2 1_555 1_555
O12 Co1 1_555 1_555
C4 C5 1_555 1_555
C5 C14 1_555 1_555
C8 C12 1_555 1_555
C9 C16 1_555 1_555
C10 C11 1_555 1_555
C11 C13 1_555 1_555
C15 C16 1_555 1_555
Co3 N7 1_555 1_555
N5 Co2_2 1_555 1_555
N6 Co2_2 1_555 1_555
O5 C17 1_555 1_555
O6 C19 1_555 1_555
N7 N6 1_555 1_555
N8 Co3 1_555 1_555
O7 C17 1_555 1_555
C17 C23 1_555 1_555
C18 N7 1_555 1_555
C19 O8 1_555 1_555
C20 H9 1_555 1_555
C21 C18 1_555 1_555
C22 N5 1_555 1_555
H10 C22 1_555 1_555
C23 C20 1_555 1_555
C24 C18 1_555 1_555
H11 C24 1_555 1_555
C25 H12 1_555 1_555
C26 C25 1_555 1_555
H13 C26 1_555 1_555
C27 N8 1_555 1_555
C28 C23 1_555 1_555
H14 C28 1_555 1_555
C29 C22 1_555 1_555
C30 N6 1_555 1_555
H15 C30 1_555 1_555
C31 C29 1_555 1_555
H16 C31 1_555 1_555
C32 C19 1_555 1_555
Co4 O6 1_555 1_555
Co7 O7 1_555 1_555
Co9_2 O5 1_555 1_555
O9 Co2_2 1_555 1_555
O11 Co3 1_555 1_555
N5 N8 1_555 1_555
C20 C21 1_555 1_555
C21 C30 1_555 1_555
C24 C28 1_555 1_555
C25 C32 1_555 1_555
C26 C27 1_555 1_555
C27 C29 1_555 1_555
C31 C32 1_555 1_555
N2_2 Co2_3 1_555 1_555
O1_2 C1_2 1_555 1_555
O3_2 C1_2 1_555 1_555
C1_2 C7_2 1_555 1_555
C4_2 H1_2 1_555 1_555
C7_2 C4_2 1_555 1_555
C14_2 N2_2 1_555 1_555
H7_2 C14_2 1_555 1_555
Co3_2 N7_2 1_555 1_555
N5_2 Co2_3 1_555 1_555
O6_2 C19_2 1_555 1_555
N8_2 Co3_2 1_555 1_555
C18_2 N7_2 1_555 1_555
C19_2 O8_2 1_555 1_555
C22_2 N5_2 1_555 1_555
H10_2 C22_2 1_555 1_555
C24_2 C18_2 1_555 1_555
H11_2 C24_2 1_555 1_555
C25_2 H12_2 1_555 1_555
C26_2 C25_2 1_555 1_555
H13_2 C26_2 1_555 1_555
C27_2 N8_2 1_555 1_555
H14_2 C28_2 1_555 1_555
C29_2 C22_2 1_555 1_555
C31_2 C29_2 1_555 1_555
H16_2 C31_2 1_555 1_555
C32_2 C19_2 1_555 1_555
Co5 O6_2 1_555 1_555
Co8 O1_2 1_555 1_555
O10_2 Co2_3 1_555 1_555
O11_2 Co3_2 1_555 1_555
O14_2 Co3_2 1_555 1_555
C4_2 C5_2 1_555 1_555
C5_2 C14_2 1_555 1_555
N5_2 N8_2 1_555 1_555
C24_2 C28_2 1_555 1_555
C25_2 C32_2 1_555 1_555
C26_2 C27_2 1_555 1_555
C27_2 C29_2 1_555 1_555
C31_2 C32_2 1_555 1_555
Co1_2 N3_2 1_555 1_555
Co2_4 N1_2 1_555 1_555
N1_2 N4_2 1_555 1_555
O2_2 C3_2 1_555 1_555
N4_2 Co1_2 1_555 1_555
C2_2 N3_2 1_555 1_555
C3_2 O4_2 1_555 1_555
C6_2 N1_2 1_555 1_555
H2_2 C6_2 1_555 1_555
C8_2 C2_2 1_555 1_555
H3_2 C8_2 1_555 1_555
C9_2 H4_2 1_555 1_555
C10_2 C9_2 1_555 1_555
H5_2 C10_2 1_555 1_555
C11_2 N4_2 1_555 1_555
H6_2 C12_2 1_555 1_555
C13_2 C6_2 1_555 1_555
C15_2 C13_2 1_555 1_555
H8_2 C15_2 1_555 1_555
C16_2 C3_2 1_555 1_555
N6_2 Co2_4 1_555 1_555
O5_2 C17_2 1_555 1_555
O7_2 C17_2 1_555 1_555
C17_2 C23_2 1_555 1_555
C20_2 H9_2 1_555 1_555
C23_2 C20_2 1_555 1_555
C30_2 N6_2 1_555 1_555
H15_2 C30_2 1_555 1_555
Co7 O2_2 1_555 1_555
Co8_8 O5_2 1_555 1_555
O9_2 Co2_4 1_555 1_555
O12_2 Co1_2 1_555 1_555
O13_2 Co1_2 1_555 1_555
C8_2 C12_2 1_555 1_555
C9_2 C16_2 1_555 1_555
C10_2 C11_2 1_555 1_555
C11_2 C13_2 1_555 1_555
C15_2 C16_2 1_555 1_555
C20_2 C21_2 1_555 1_555
C21_2 C30_2 1_555 1_555
N6_3 Co8_2 1_555 1_555
O10_2 C17_3 1_555 1_555
O14_2 C17_3 1_555 1_555
C17_3 C23_3 1_555 1_555
C20_3 H9_3 1_555 1_555
C23_3 C20_3 1_555 1_555
C30_3 N6_3 1_555 1_555
H15_3 C30_3 1_555 1_555
C20_3 C21_3 1_555 1_555
C21_3 C30_3 1_555 1_555
N5_3 Co8_3 1_555 1_555
O12 C19_3 1_555 1_555
C19_3 O8_3 1_555 1_555
C22_3 N5_3 1_555 1_555
H10_3 C22_3 1_555 1_555
C29_3 C22_3 1_555 1_555
C31_3 C29_3 1_555 1_555
H16_3 C31_3 1_555 1_555
C32_3 C19_3 1_555 1_555
C31_3 C32_3 1_555 1_555
Co6 N7_3 1_555 1_555
N8_3 Co6 1_555 1_555
C18_3 N7_3 1_555 1_555
C24_3 C18_3 1_555 1_555
H11_3 C24_3 1_555 1_555
C25_3 H12_3 1_555 1_555
C26_3 C25_3 1_555 1_555
H13_3 C26_3 1_555 1_555
C27_3 N8_3 1_555 1_555
H14_3 C28_3 1_555 1_555
C24_3 C28_3 1_555 1_555
C26_3 C27_3 1_555 1_555
Co4 N3_3 1_555 1_555
N4_3 Co4 1_555 1_555
C2_3 N3_3 1_555 1_555
C8_3 C2_3 1_555 1_555
H3_3 C8_3 1_555 1_555
C9_3 H4_3 1_555 1_555
C10_3 C9_3 1_555 1_555
H5_3 C10_3 1_555 1_555
C11_3 N4_3 1_555 1_555
H6_3 C12_3 1_555 1_555
C8_3 C12_3 1_555 1_555
C10_3 C11_3 1_555 1_555
Co8_6 N1_3 1_555 1_555
O11 C3_3 1_555 1_555
C3_3 O4_3 1_555 1_555
C6_3 N1_3 1_555 1_555
H2_3 C6_3 1_555 1_555
C13_3 C6_3 1_555 1_555
C15_3 C13_3 1_555 1_555
H8_3 C15_3 1_555 1_555
C16_3 C3_3 1_555 1_555
C15_3 C16_3 1_555 1_555
N2_3 Co8_7 1_555 1_555
O9_2 C1_3 1_555 1_555
O13_2 C1_3 1_555 1_555
C1_3 C7_3 1_555 1_555
C4_3 H1_3 1_555 1_555
C7_3 C4_3 1_555 1_555
C14_3 N2_3 1_555 1_555
H7_3 C14_3 1_555 1_555
C4_3 C5_3 1_555 1_555
C5_3 C14_3 1_555 1_555
Co5 N3_4 1_555 1_555
N2_4 Co9 1_555 1_555
O9 C1_4 1_555 1_555
N3_4 N2_4 1_555 1_555
N4_4 Co5 1_555 1_555
O13 C1_4 1_555 1_555
C1_4 C7_4 1_555 1_555
C2_4 N3_4 1_555 1_555
C4_4 H1_4 1_555 1_555
C5_4 C2_4 1_555 1_555
C7_4 C4_4 1_555 1_555
C8_4 C2_4 1_555 1_555
H3_4 C8_4 1_555 1_555
C9_4 H4_4 1_555 1_555
C10_4 C9_4 1_555 1_555
H5_4 C10_4 1_555 1_555
C11_4 N4_4 1_555 1_555
C12_4 C7_4 1_555 1_555
H6_4 C12_4 1_555 1_555
C14_4 N2_4 1_555 1_555
H7_4 C14_4 1_555 1_555
N5_4 Co9 1_555 1_555
O12_2 C19_4 1_555 1_555
C19_4 O8_4 1_555 1_555
C22_4 N5_4 1_555 1_555
H10_4 C22_4 1_555 1_555
C29_4 C22_4 1_555 1_555
C31_4 C29_4 1_555 1_555
H16_4 C31_4 1_555 1_555
C32_4 C19_4 1_555 1_555
C4_4 C5_4 1_555 1_555
C5_4 C14_4 1_555 1_555
C8_4 C12_4 1_555 1_555
C10_4 C11_4 1_555 1_555
C31_4 C32_4 1_555 1_555
Co9_2 N1_4 1_555 1_555
O11_2 C3_4 1_555 1_555
C3_4 O4_4 1_555 1_555
C6_4 N1_4 1_555 1_555
H2_4 C6_4 1_555 1_555
C13_4 C6_4 1_555 1_555
C15_4 C13_4 1_555 1_555
H8_4 C15_4 1_555 1_555
C16_4 C3_4 1_555 1_555
Co7 N7_4 1_555 1_555
N6_4 Co9_2 1_555 1_555
O10 C17_4 1_555 1_555
N7_4 N6_4 1_555 1_555
N8_4 Co7 1_555 1_555
O14 C17_4 1_555 1_555
C17_4 C23_4 1_555 1_555
C18_4 N7_4 1_555 1_555
C20_4 H9_4 1_555 1_555
C21_4 C18_4 1_555 1_555
C23_4 C20_4 1_555 1_555
C24_4 C18_4 1_555 1_555
H11_4 C24_4 1_555 1_555
C25_4 H12_4 1_555 1_555
C26_4 C25_4 1_555 1_555
H13_4 C26_4 1_555 1_555
C27_4 N8_4 1_555 1_555
C28_4 C23_4 1_555 1_555
H14_4 C28_4 1_555 1_555
C30_4 N6_4 1_555 1_555
H15_4 C30_4 1_555 1_555
C15_4 C16_4 1_555 1_555
C20_4 C21_4 1_555 1_555
C21_4 C30_4 1_555 1_555
C24_4 C28_4 1_555 1_555
C26_4 C27_4 1_555 1_555

#END
