
###############################################################################
#
# This file contains modified crystal structure data generated from the
# MOF subset of the Cambridge Structural Database (CSD) v543 
# hosted by the Cambridge Crystallographic Data Centre (CCDC).
#
# This work is licensed under the Creative Commons
# Attribution-NonCommercial-ShareAlike 4.0 International License.
# To view a copy of this license, visit
# http://creativecommons.org/licenses/by-nc-sa/4.0/
# or send a letter to
# Creative Commons, PO Box 1866, Mountain View, CA 94042, USA.
#
# CIF created using the CSD Python API on 29 September 2022
# The structure has been converted into the P1 space group
# The structure has a 3D framework
# The original CSD entry ELOBEP is in the triclinic crystal system
# The framework has been calculated to contain at least 10.0% void space
# The void calculation uses a probe of radius 1.32A, grid spacing 0.4
#
###############################################################################

data_ELOBEP
_chemical_formula_moiety         '(C80 H60 Mn4 N20 O16)n'
_symmetry_cell_setting           triclinic
_symmetry_space_group_name_H-M   'P 1'
_symmetry_Int_Tables_number      1
_space_group_name_Hall           'P 1'
loop_
_symmetry_equiv_pos_site_id
_symmetry_equiv_pos_as_xyz
1 x,y,z
_cell_length_a                   13.2734(2)
_cell_length_b                   14.1627(2)
_cell_length_c                   15.5025(2)
_cell_angle_alpha                72.056(2)
_cell_angle_beta                 87.8690(10)
_cell_angle_gamma                62.602(2)
_cell_volume                     2442.58
loop_
_atom_site_label
_atom_site_type_symbol
_atom_site_fract_x
_atom_site_fract_y
_atom_site_fract_z
Mn5 Mn 0.01697(3) 0.43822(4) 0.14504(2)
C14 C 0.4069(2) 0.0263(3) 0.13216(19)
C15 C 0.4938(3) 0.0555(3) 0.1195(3)
H11 H 0.4782 0.1288 0.1122
C21 C 0.2522(2) 0.2134(3) 0.1368(2)
H15 H 0.2976 0.2476 0.1364
C22 C 0.1146(3) 0.1847(4) 0.1369(3)
H16 H 0.0399 0.1955 0.1356
C27 C 0.0345(2) 0.3515(2) 0.48756(17)
H19 H 0.1046 0.3498 0.4769
C29 C 0.0026(2) 0.3703(2) 0.32259(17)
C30 C 0.0707(3) 0.3405(3) 0.6505(2)
H20 H 0.0231 0.3656 0.6954
H21 H 0.1055 0.3879 0.6265
H22 H 0.1291 0.2643 0.6782
N6 N 0.13995(19) 0.2635(2) 0.13967(16)
N7 N 0.2029(3) 0.0885(3) 0.1360(3)
N8 N 0.2922(2) 0.1105(2) 0.13470(17)
O8 O 0.09589(17) 0.3705(2) 0.30665(13)
O9 O 0.14969(15) 0.48057(18) 0.10342(12)
C35 C 0.2906(2) 0.4683(2) 0.00377(16)
C36 C 0.3775(2) 0.4019(2) 0.07687(16)
H25 H 0.3584 0.3894 0.1362
C37 C 0.4916(2) 0.3540(2) 0.06313(17)
C38 C 0.5837(3) 0.2796(3) 0.1428(2)
H26 H 0.5532 0.2463 0.1931
H27 H 0.6455 0.2213 0.1256
H28 H 0.6114 0.3235 0.1605
C39 C 0.1680(2) 0.5061(2) 0.02099(17)
C12 C 0.5402(3) 0.8391(3) 0.1387(2)
H9 H 0.5552 0.7662 0.1450
C13 C 0.4298(3) 0.9185(3) 0.1416(2)
H10 H 0.3714 0.8987 0.1499
C16 C 0.6045(3) 0.9752(3) 0.1176(3)
H12 H 0.6629 0.9949 0.1102
C17 C 0.6287(2) 0.8666(3) 0.1266(2)
C18 C 0.7446(2) 0.7796(3) 0.12539(18)
C19 C 0.7876(2) 0.6686(3) 0.1421(2)
H13 H 0.7459 0.6294 0.1593
C20 C 0.9238(3) 0.7052(3) 0.1078(2)
H14 H 0.9955 0.6978 0.0949
N9 N 0.9006(2) 0.6209(2) 0.13051(16)
N10 N 0.8339(2) 0.8031(2) 0.10493(19)
H30 H 0.8324 0.8673 0.0928
Mn1 Mn 0.49895(3) 0.50664(3) 0.36599(2)
C2 C 0.3786(3) 0.0814(3) 0.3757(3)
H2 H 0.3025 0.1315 0.3761
C3 C 0.4611(2) 0.1150(2) 0.37458(18)
C4 C 0.5727(3) 0.0383(3) 0.3739(3)
H3 H 0.6296 0.0595 0.3729
C9 C 0.4333(2) 0.2275(2) 0.37419(17)
C10 C 0.5023(2) 0.2719(2) 0.38434(19)
H7 H 0.5818 0.2326 0.3934
C11 C 0.3318(2) 0.4039(2) 0.3663(2)
H8 H 0.2692 0.4734 0.3604
C23 C 0.8610(2) 0.3631(2) 0.43180(16)
H17 H 0.8156 0.3678 0.3848
C24 C 0.82303(19) 0.36043(19) 0.51733(15)
C25 C 0.8933(2) 0.3504(2) 0.58802(16)
H18 H 0.8689 0.3461 0.6455
C26 C 0.9990(2) 0.3466(2) 0.57418(17)
C28 C 0.9667(2) 0.3587(2) 0.41711(16)
C31 C 0.7030(2) 0.37910(19) 0.53126(16)
C32 C 0.4816(2) 0.6252(2) 0.02641(18)
H23 H 0.4056 0.6582 0.0370
C33 C 0.5670(2) 0.5560(2) 0.09999(16)
C34 C 0.6810(2) 0.5096(2) 0.08493(16)
H24 H 0.7383 0.4637 0.1341
C40 C 0.5375(2) 0.5359(2) 0.19626(17)
N1 N 0.43884(19) 0.38171(19) 0.37938(15)
N2 N 0.32409(19) 0.3145(2) 0.36251(17)
H29 H 0.2619 0.3118 0.3542
O1 O 0.61650(17) 0.46960(19) 0.26080(12)
O2 O 0.43516(16) 0.58626(19) 0.21066(13)
O3 O 0.90867(16) 0.44144(19) 0.04555(13)
O5 O 0.64268(15) 0.38454(16) 0.46755(12)
O6 O 0.66949(15) 0.38957(16) 0.60648(12)
O7 O 0.93565(17) 0.38355(19) 0.26009(12)
Mn4 Mn 0.50105(3) 0.49336(3) 0.63401(2)
N11 N 0.54611(19) 0.63855(19) 0.36974(16)
O10 O 0.33051(15) 0.61043(16) 0.39352(12)
C1 C 0.4078(3) 0.9738(3) 0.3762(3)
H1 H 0.3513 0.9522 0.3766
C5 C 0.6024(3) 0.9310(3) 0.3745(3)
H4 H 0.6783 0.8807 0.3738
C6 C 0.5185(2) 0.8997(2) 0.37611(18)
C7 C 0.4848(2) 0.7385(2) 0.3792(2)
H5 H 0.4080 0.7689 0.3878
C8 C 0.6492(3) 0.6336(2) 0.3582(3)
H6 H 0.7111 0.5719 0.3491
N4 N 0.6559(2) 0.7220(2) 0.3605(2)
N5 N 0.54849(18) 0.78971(18) 0.37464(16)
C1_2 C 0.5922(3) 0.0262(3) 0.6238(3)
H1_2 H 0.6487 0.0478 0.6234
C5_2 C 0.3976(3) 0.0690(3) 0.6255(3)
H4_2 H 0.3217 0.1193 0.6262
C6_2 C 0.4815(2) 0.1003(2) 0.62389(18)
C7_2 C 0.5152(2) 0.2615(2) 0.6208(2)
H5_2 H 0.5920 0.2311 0.6122
C8_2 C 0.3508(3) 0.3664(2) 0.6418(3)
H6_2 H 0.2889 0.4281 0.6509
N3 N 0.45389(19) 0.36145(19) 0.63026(16)
N4_2 N 0.3441(2) 0.2780(2) 0.6395(2)
N5_2 N 0.45151(18) 0.21029(18) 0.62536(16)
C2_2 C 0.6214(3) 0.9186(3) 0.6243(3)
H2_2 H 0.6975 0.8685 0.6239
C3_2 C 0.5389(2) 0.8850(2) 0.62542(18)
C4_2 C 0.4273(3) 0.9617(3) 0.6261(3)
H3_2 H 0.3704 0.9405 0.6271
C9_2 C 0.5667(2) 0.7725(2) 0.62581(17)
C10_2 C 0.4977(2) 0.7281(2) 0.61566(19)
H7_2 H 0.4182 0.7674 0.6066
C11_2 C 0.6682(2) 0.5961(2) 0.6337(2)
H8_2 H 0.7308 0.5266 0.6396
C23_2 C 0.1390(2) 0.6369(2) 0.56820(16)
H17_2 H 0.1844 0.6322 0.6152
C24_2 C 0.17697(19) 0.63957(19) 0.48267(15)
C25_2 C 0.1067(2) 0.6496(2) 0.41198(16)
H18_2 H 0.1311 0.6539 0.3545
C26_2 C 0.0010(2) 0.6534(2) 0.42582(17)
C28_2 C 0.0333(2) 0.6413(2) 0.58289(16)
C31_2 C 0.2970(2) 0.62090(19) 0.46874(16)
C32_2 C 0.5184(2) 0.3748(2) 0.97359(18)
H23_2 H 0.5944 0.3418 0.9630
C33_2 C 0.4330(2) 0.4440(2) 0.90001(16)
C34_2 C 0.3190(2) 0.4904(2) 0.91507(16)
H24_2 H 0.2617 0.5363 0.8659
C40_2 C 0.4625(2) 0.4641(2) 0.80374(17)
N1_2 N 0.56116(19) 0.61829(19) 0.62062(15)
N2_2 N 0.67591(19) 0.6855(2) 0.63749(17)
H29_2 H 0.7381 0.6882 0.6458
O1_2 O 0.38350(17) 0.53040(19) 0.73920(12)
O2_2 O 0.56484(16) 0.41374(19) 0.78934(13)
O3_2 O 0.09133(16) 0.55856(19) 0.95445(13)
O5_2 O 0.35732(15) 0.61546(16) 0.53245(12)
O7_2 O 0.06435(17) 0.61645(19) 0.73991(12)
N12 N 0.0994(2) 0.3791(2) 0.86949(16)
C12_2 C 0.4598(3) 0.1609(3) 0.8613(2)
H9_2 H 0.4448 0.2338 0.8550
C13_2 C 0.5702(3) 0.0815(3) 0.8584(2)
H10_2 H 0.6286 0.1013 0.8501
C16_2 C 0.3955(3) 0.0248(3) 0.8824(3)
H12_2 H 0.3371 0.0051 0.8898
C17_2 C 0.3713(2) 0.1334(3) 0.8734(2)
C18_2 C 0.2554(2) 0.2204(3) 0.87461(18)
C19_2 C 0.2124(2) 0.3314(3) 0.8579(2)
H13_2 H 0.2541 0.3706 0.8407
C20_2 C 0.0762(3) 0.2948(3) 0.8922(2)
H14_2 H 0.0045 0.3022 0.9051
N10_2 N 0.1661(2) 0.1969(2) 0.89507(19)
H30_2 H 0.1676 0.1327 0.9072
C35_2 C 0.7094(2) 0.5317(2) 0.99623(16)
C36_2 C 0.6225(2) 0.5981(2) 0.92313(16)
H25_2 H 0.6416 0.6106 0.8638
C37_2 C 0.5084(2) 0.6460(2) 0.93687(17)
C38_2 C 0.4163(3) 0.7204(3) 0.8572(2)
H26_2 H 0.4468 0.7537 0.8069
H27_2 H 0.3545 0.7787 0.8744
H28_2 H 0.3886 0.6765 0.8395
C39_2 C 0.8320(2) 0.4939(2) 0.97901(17)
O4 O 0.85031(15) 0.51943(18) 0.89658(12)
Mn6 Mn 0.98303(3) 0.56178(4) 0.85496(2)
C14_2 C 0.5931(2) 0.9737(3) 0.86784(19)
C15_2 C 0.5062(3) 0.9445(3) 0.8805(3)
H11_2 H 0.5218 0.8712 0.8878
C21_2 C 0.7478(2) 0.7866(3) 0.8632(2)
H15_2 H 0.7024 0.7524 0.8636
C22_2 C 0.8854(3) 0.8153(4) 0.8631(3)
H16_2 H 0.9601 0.8045 0.8644
C27_2 C 0.9655(2) 0.6485(2) 0.51244(17)
H19_2 H 0.8954 0.6502 0.5231
C29_2 C 0.9974(2) 0.6297(2) 0.67741(17)
C30_2 C 0.9293(3) 0.6595(3) 0.3495(2)
H20_2 H 0.9769 0.6344 0.3046
H21_2 H 0.8945 0.6121 0.3735
H22_2 H 0.8709 0.7357 0.3218
N6_2 N 0.86005(19) 0.7365(2) 0.86033(16)
N7_2 N 0.7971(3) 0.9115(3) 0.8640(3)
N8_2 N 0.7078(2) 0.8895(2) 0.86530(17)
O8_2 O 0.90411(17) 0.6295(2) 0.69335(13)
loop_
_geom_bond_atom_site_label_1
_geom_bond_atom_site_label_2
_geom_bond_site_symmetry_1
_geom_bond_site_symmetry_2
Mn5 N6 1_555 1_555
C15 C14 1_555 1_555
H11 C15 1_555 1_555
C21 H15 1_555 1_555
C22 H16 1_555 1_555
H19 C27 1_555 1_555
H20 C30 1_555 1_555
H21 C30 1_555 1_555
H22 C30 1_555 1_555
N6 C21 1_555 1_555
N7 C22 1_555 1_555
N8 C14 1_555 1_555
O8 Mn5 1_555 1_555
O9 Mn5 1_555 1_555
C21 N8 1_555 1_555
C22 N6 1_555 1_555
C29 O8 1_555 1_555
N7 N8 1_555 1_555
C36 C35 1_555 1_555
H25 C36 1_555 1_555
C38 C37 1_555 1_555
H26 C38 1_555 1_555
H27 C38 1_555 1_555
H28 C38 1_555 1_555
C39 C35 1_555 1_555
O9 C39 1_555 1_555
C36 C37 1_555 1_555
C12 H9 1_555 1_555
C13 C12 1_555 1_555
H10 C13 1_555 1_555
H12 C16 1_555 1_555
C17 C12 1_555 1_555
C18 C17 1_555 1_555
C19 C18 1_555 1_555
H13 C19 1_555 1_555
C20 H14 1_555 1_555
N9 C19 1_555 1_555
N10 C18 1_555 1_555
H30 N10 1_555 1_555
C16 C17 1_555 1_555
C20 N9 1_555 1_555
C20 N10 1_555 1_555
Mn1 N1 1_555 1_555
H2 C2 1_555 1_555
C3 C2 1_555 1_555
C4 C3 1_555 1_555
H3 C4 1_555 1_555
C9 C3 1_555 1_555
C10 C9 1_555 1_555
H7 C10 1_555 1_555
C11 H8 1_555 1_555
C23 H17 1_555 1_555
C24 C23 1_555 1_555
C25 C24 1_555 1_555
H18 C25 1_555 1_555
C26 C25 1_555 1_555
C28 C23 1_555 1_555
C31 C24 1_555 1_555
C32 H23 1_555 1_555
C33 C32 1_555 1_555
C34 C33 1_555 1_555
H24 C34 1_555 1_555
C40 C33 1_555 1_555
N1 C10 1_555 1_555
N2 C9 1_555 1_555
H29 N2 1_555 1_555
O1 Mn1 1_555 1_555
O2 Mn1 1_555 1_555
O5 Mn1 1_555 1_555
O6 C31 1_555 1_555
Mn4 O6 1_555 1_555
N11 Mn1 1_555 1_555
O10 Mn1 1_555 1_555
C11 N1 1_555 1_555
C11 N2 1_555 1_555
C31 O5 1_555 1_555
C40 O1 1_555 1_555
C40 O2 1_555 1_555
C1 H1 1_555 1_555
H4 C5 1_555 1_555
C6 C1 1_555 1_555
C7 H5 1_555 1_555
C8 H6 1_555 1_555
N11 C7 1_555 1_555
N4 C8 1_555 1_555
N5 C6 1_555 1_555
C5 C6 1_555 1_555
C7 N5 1_555 1_555
C8 N11 1_555 1_555
N4 N5 1_555 1_555
C1_2 H1_2 1_555 1_555
H4_2 C5_2 1_555 1_555
C6_2 C1_2 1_555 1_555
C7_2 H5_2 1_555 1_555
C8_2 H6_2 1_555 1_555
N3 C7_2 1_555 1_555
N4_2 C8_2 1_555 1_555
N5_2 C6_2 1_555 1_555
Mn4 N3 1_555 1_555
C5_2 C6_2 1_555 1_555
C7_2 N5_2 1_555 1_555
C8_2 N3 1_555 1_555
N4_2 N5_2 1_555 1_555
Mn4 N1_2 1_555 1_555
H2_2 C2_2 1_555 1_555
C3_2 C2_2 1_555 1_555
C4_2 C3_2 1_555 1_555
H3_2 C4_2 1_555 1_555
C9_2 C3_2 1_555 1_555
C10_2 C9_2 1_555 1_555
H7_2 C10_2 1_555 1_555
C11_2 H8_2 1_555 1_555
C23_2 H17_2 1_555 1_555
C24_2 C23_2 1_555 1_555
C25_2 C24_2 1_555 1_555
H18_2 C25_2 1_555 1_555
C26_2 C25_2 1_555 1_555
C28_2 C23_2 1_555 1_555
C31_2 C24_2 1_555 1_555
C32_2 H23_2 1_555 1_555
C33_2 C32_2 1_555 1_555
C34_2 C33_2 1_555 1_555
H24_2 C34_2 1_555 1_555
C40_2 C33_2 1_555 1_555
N1_2 C10_2 1_555 1_555
N2_2 C9_2 1_555 1_555
H29_2 N2_2 1_555 1_555
O1_2 Mn4 1_555 1_555
O2_2 Mn4 1_555 1_555
O5_2 Mn4 1_555 1_555
O10 C31_2 1_555 1_555
C11_2 N1_2 1_555 1_555
C11_2 N2_2 1_555 1_555
C31_2 O5_2 1_555 1_555
C40_2 O1_2 1_555 1_555
C40_2 O2_2 1_555 1_555
C12_2 H9_2 1_555 1_555
C13_2 C12_2 1_555 1_555
H10_2 C13_2 1_555 1_555
H12_2 C16_2 1_555 1_555
C17_2 C12_2 1_555 1_555
C18_2 C17_2 1_555 1_555
C19_2 C18_2 1_555 1_555
H13_2 C19_2 1_555 1_555
C20_2 H14_2 1_555 1_555
N12 C19_2 1_555 1_555
N10_2 C18_2 1_555 1_555
H30_2 N10_2 1_555 1_555
C16_2 C17_2 1_555 1_555
C20_2 N12 1_555 1_555
C20_2 N10_2 1_555 1_555
C36_2 C35_2 1_555 1_555
H25_2 C36_2 1_555 1_555
C38_2 C37_2 1_555 1_555
H26_2 C38_2 1_555 1_555
H27_2 C38_2 1_555 1_555
H28_2 C38_2 1_555 1_555
C39_2 C35_2 1_555 1_555
O4 C39_2 1_555 1_555
Mn6 O4 1_555 1_555
C36_2 C37_2 1_555 1_555
Mn6 N6_2 1_555 1_555
C15_2 C14_2 1_555 1_555
H11_2 C15_2 1_555 1_555
C21_2 H15_2 1_555 1_555
C22_2 H16_2 1_555 1_555
H19_2 C27_2 1_555 1_555
H20_2 C30_2 1_555 1_555
H21_2 C30_2 1_555 1_555
H22_2 C30_2 1_555 1_555
N6_2 C21_2 1_555 1_555
N7_2 C22_2 1_555 1_555
N8_2 C14_2 1_555 1_555
O8_2 Mn6 1_555 1_555
C21_2 N8_2 1_555 1_555
C22_2 N6_2 1_555 1_555
C29_2 O8_2 1_555 1_555
N7_2 N8_2 1_555 1_555

#END
