
###############################################################################
#
# This file contains modified crystal structure data generated from the
# MOF subset of the Cambridge Structural Database (CSD) v543 
# hosted by the Cambridge Crystallographic Data Centre (CCDC).
#
# This work is licensed under the Creative Commons
# Attribution-NonCommercial-ShareAlike 4.0 International License.
# To view a copy of this license, visit
# http://creativecommons.org/licenses/by-nc-sa/4.0/
# or send a letter to
# Creative Commons, PO Box 1866, Mountain View, CA 94042, USA.
#
# CIF created using the CSD Python API on 29 September 2022
# The structure has been converted into the P1 space group
# The structure has a 3D framework
# The original CSD entry ELODUH is in the triclinic crystal system
# The framework has been calculated to contain at least 10.0% void space
# The void calculation uses a probe of radius 1.32A, grid spacing 0.4
#
###############################################################################

data_ELODUH
_chemical_formula_moiety         '(C80 H60 Cd4 N20 O14)n'
_symmetry_cell_setting           triclinic
_symmetry_space_group_name_H-M   'P 1'
_symmetry_Int_Tables_number      1
_space_group_name_Hall           'P 1'
loop_
_symmetry_equiv_pos_site_id
_symmetry_equiv_pos_as_xyz
1 x,y,z
_cell_length_a                   13.3547(2)
_cell_length_b                   14.18390(10)
_cell_length_c                   15.63440(10)
_cell_angle_alpha                112.5660(10)
_cell_angle_beta                 90.8310(10)
_cell_angle_gamma                117.6050(10)
_cell_volume                     2355.56
loop_
_atom_site_label
_atom_site_type_symbol
_atom_site_fract_x
_atom_site_fract_y
_atom_site_fract_z
N3 N 0.65922(18) 0.1918(2) 0.87882(16)
N4 N 0.6208(2) 0.2640(2) 0.8745(2)
N5 N 0.80861(18) 0.3406(2) 0.87190(17)
C15 C 0.4652(2) 0.0527(3) 0.8786(2)
H12 H 0.441167 0.104588 0.878417
C16 C 0.5800(2) 0.0823(2) 0.87985(18)
C17 C 0.6162(2) 0.0052(3) 0.8800(2)
H13 H 0.693334 0.025403 0.881490
C19 C 0.7719(2) 0.2399(2) 0.8776(2)
H15 H 0.817556 0.207184 0.880351
C20 C 0.7131(3) 0.3501(3) 0.8695(3)
H16 H 0.712928 0.413390 0.864654
Cd3 Cd 0.98526(2) 0.47233(2) 0.86185(2)
Cd2 Cd 0.46563(2) 0.44336(2) 0.35486(2)
O6 O 0.03176(19) 0.3809(2) 0.01989(15)
O7 O 0.46849(19) 0.3804(2) 0.18453(15)
O8 O 0.31534(19) 0.3820(2) 0.23037(14)
N6 N 0.4009(2) 0.2587(2) 0.34554(19)
N7 N 0.2849(3) 0.0736(3) 0.3253(3)
N8 N 0.3970(2) 0.1048(2) 0.35181(18)
C22 C 0.2222(2) 0.3548(2) 0.05486(18)
H17 H 0.184638 0.368135 0.103956
C23 C 0.3225(2) 0.3496(3) 0.06986(19)
H18 H 0.446708 0.328993 0.007146
C28 C 0.3712(2) 0.3709(3) 0.1671(2)
C30 C 0.2931(3) 0.1699(4) 0.3233(3)
H23 H 0.228487 0.174305 0.307553
C31 C 0.4654(3) 0.2155(3) 0.3630(2)
H24 H 0.546171 0.256825 0.380386
C32 C 0.4293(3) 0.0247(2) 0.36172(19)
C37 C 0.5446(3) 0.0533(3) 0.3702(2)
H28 H 0.600097 0.123112 0.368966
Cd4 Cd 0.01474(2) 0.52767(2) 0.13815(2)
O9 O 0.3550(3) 0.4609(3) 0.46698(18)
O10 O 0.6490(2) 0.4744(2) 0.38204(15)
N12 N 0.5267(2) 0.6329(2) 0.38438(18)
N9 N 0.6364(3) 0.8240(2) 0.42642(19)
H2 H 0.696570 0.893942 0.448449
C33 C 0.3467(3) 0.9208(3) 0.3629(2)
H25 H 0.269416 0.901474 0.356769
C34 C 0.3791(3) 0.8449(3) 0.3734(2)
H26 H 0.323734 0.775491 0.375290
C35 C 0.4949(3) 0.8730(2) 0.38108(19)
C36 C 0.5769(3) 0.9776(3) 0.3805(2)
H27 H 0.654405 0.997510 0.387079
C38 C 0.5268(3) 0.7911(2) 0.38963(19)
C39 C 0.4603(3) 0.6742(3) 0.3643(2)
H29 H 0.380828 0.628724 0.337198
C40 C 0.6328(3) 0.7268(3) 0.4218(2)
H30 H 0.697262 0.725080 0.442548
O1 O 0.9587(2) 0.3880(2) 0.69384(15)
O2 O 0.8926(2) 0.5077(3) 0.75520(15)
O3 O 0.6450(3) 0.5391(3) 0.53302(18)
C1 C 0.8680(2) 0.4237(2) 0.58694(19)
C2 C 0.8927(3) 0.3563(3) 0.5089(2)
H3 H 0.935051 0.322767 0.517798
C3 C 0.8551(3) 0.3379(3) 0.4173(2)
C4 C 0.7897(3) 0.3866(3) 0.40569(19)
H4 H 0.763213 0.374412 0.344928
C5 C 0.7628(2) 0.4531(2) 0.48300(19)
C6 C 0.8032(2) 0.4729(2) 0.57409(18)
H5 H 0.787082 0.518854 0.626318
C7 C 0.9094(2) 0.4418(3) 0.68508(19)
C8 C 0.6810(2) 0.4937(3) 0.4663(2)
C9 C 0.8824(4) 0.2639(4) 0.3331(3)
H6 H 0.851430 0.261669 0.276037
H7 H 0.847950 0.184827 0.327317
H8 H 0.965098 0.298168 0.342204
Cd7 Cd 0.53437(2) 0.55664(2) 0.64514(2)
O11 O 0.96824(19) 0.6191(2) 0.98011(15)
O1_2 O 0.0413(2) 0.6120(2) 0.30616(15)
O2_2 O 0.1074(2) 0.4923(3) 0.24480(15)
O4 O 0.3510(2) 0.5256(2) 0.61796(15)
C1_2 C 0.1320(2) 0.5763(2) 0.41306(19)
C2_2 C 0.1073(3) 0.6437(3) 0.4911(2)
H3_2 H 0.064949 0.677233 0.482202
C3_2 C 0.1449(3) 0.6621(3) 0.5827(2)
C4_2 C 0.2103(3) 0.6134(3) 0.59431(19)
H4_2 H 0.236787 0.625588 0.655072
C5_2 C 0.2372(2) 0.5469(2) 0.51700(19)
C6_2 C 0.1968(2) 0.5271(2) 0.42591(18)
H5_2 H 0.212918 0.481146 0.373682
C7_2 C 0.0906(2) 0.5582(3) 0.31492(19)
C8_2 C 0.3190(2) 0.5063(3) 0.5337(2)
C9_2 C 0.1176(4) 0.7361(4) 0.6669(3)
H6_2 H 0.148570 0.738331 0.723963
H7_2 H 0.152050 0.815173 0.672683
H8_2 H 0.034902 0.701832 0.657796
N11 N 0.19139(18) 0.6594(2) 0.12810(17)
N9_2 N 0.3636(3) 0.1760(2) 0.57358(19)
H2_2 H 0.303430 0.106058 0.551551
N10 N 0.4733(2) 0.3671(2) 0.61562(18)
C33_2 C 0.6533(3) 0.0792(3) 0.6371(2)
H25_2 H 0.730584 0.098526 0.643231
C34_2 C 0.6209(3) 0.1551(3) 0.6266(2)
H26_2 H 0.676266 0.224509 0.624710
C35_2 C 0.5051(3) 0.1270(2) 0.61892(19)
C36_2 C 0.4231(3) 0.0224(3) 0.6195(2)
H27_2 H 0.345595 0.002490 0.612921
C38_2 C 0.4732(3) 0.2089(2) 0.61037(19)
C39_2 C 0.5397(3) 0.3258(3) 0.6357(2)
H29_2 H 0.619172 0.371276 0.662802
C40_2 C 0.3672(3) 0.2732(3) 0.5782(2)
H30_2 H 0.302738 0.274920 0.557452
O7_2 O 0.53151(19) 0.6196(2) 0.81547(15)
O8_2 O 0.68466(19) 0.6180(2) 0.76963(14)
N6_2 N 0.5991(2) 0.7413(2) 0.65446(19)
N7_2 N 0.7151(3) 0.9264(3) 0.6747(3)
N8_2 N 0.6030(2) 0.8952(2) 0.64819(18)
C22_2 C 0.7778(2) 0.6452(2) 0.94514(18)
H17_2 H 0.815362 0.631865 0.896044
C23_2 C 0.6775(2) 0.6504(3) 0.93014(19)
H18_2 H 0.553292 0.671007 0.992854
C28_2 C 0.6288(2) 0.6291(3) 0.8329(2)
C30_2 C 0.7069(3) 0.8301(4) 0.6767(3)
H23_2 H 0.771513 0.825695 0.692447
C31_2 C 0.5346(3) 0.7845(3) 0.6370(2)
H24_2 H 0.453829 0.743175 0.619614
C32_2 C 0.5707(3) 0.9753(2) 0.63828(19)
C37_2 C 0.4554(3) 0.9467(3) 0.6298(2)
H28_2 H 0.399903 0.876888 0.631034
N3_2 N 0.34078(18) 0.8082(2) 0.12118(16)
N4_2 N 0.3792(2) 0.7360(2) 0.1255(2)
C15_2 C 0.5348(2) 0.9473(3) 0.1214(2)
H12_2 H 0.558833 0.895412 0.121583
C16_2 C 0.4200(2) 0.9177(2) 0.12015(18)
C17_2 C 0.3838(2) 0.9948(3) 0.1200(2)
H13_2 H 0.306666 0.974597 0.118510
C19_2 C 0.2281(2) 0.7601(2) 0.1224(2)
H15_2 H 0.182444 0.792816 0.119649
C20_2 C 0.2869(3) 0.6499(3) 0.1305(3)
H16_2 H 0.287072 0.586610 0.135346
O5 O 0.04913(18) 0.3513(2) 0.87195(15)
N1 N 0.17444(18) 0.6027(2) 0.88008(16)
N2 N 0.3532(2) 0.6629(2) 0.86227(19)
H1 H 0.416447 0.662465 0.853557
C10 C 0.2562(2) 0.5747(3) 0.8652(2)
H9 H 0.247470 0.502810 0.857736
C11 C 0.2224(2) 0.7148(2) 0.88646(19)
H10 H 0.184640 0.757778 0.896654
C12 C 0.3341(2) 0.7540(2) 0.87560(18)
C13 C 0.4198(2) 0.8659(2) 0.87611(18)
C14 C 0.3874(2) 0.9464(3) 0.8776(2)
H11 H 0.310910 0.927749 0.877984
C18 C 0.5360(2) 0.8977(3) 0.8779(2)
H14 H 0.560072 0.845721 0.877705
C21 C 0.1787(2) 0.3400(2) 0.96663(18)
C24 C 0.3790(3) 0.3307(4) 0.9965(2)
C25 C 0.3353(3) 0.3141(4) 0.9069(2)
C26 C 0.2347(3) 0.3183(3) 0.8933(2)
H19 H 0.204071 0.306461 0.833840
C27 C 0.0788(2) 0.3587(2) 0.95214(19)
C29 C 0.3974(5) 0.2977(6) 0.8274(3)
H20 H 0.371762 0.215086 0.791984
H21 H 0.479673 0.341383 0.853720
H22 H 0.380159 0.326163 0.785801
O5_2 O 0.95087(18) 0.6487(2) 0.12805(15)
N1_2 N 0.82556(18) 0.3973(2) 0.11992(16)
N2_2 N 0.6468(2) 0.3371(2) 0.13773(19)
H1_2 H 0.583553 0.337535 0.146443
C10_2 C 0.7438(2) 0.4253(3) 0.1348(2)
H9_2 H 0.752530 0.497190 0.142264
C11_2 C 0.7776(2) 0.2852(2) 0.11354(19)
H10_2 H 0.815360 0.242222 0.103346
C12_2 C 0.6659(2) 0.2460(2) 0.12440(18)
C13_2 C 0.5802(2) 0.1341(2) 0.12389(18)
C14_2 C 0.6126(2) 0.0536(3) 0.1224(2)
H11_2 H 0.689090 0.072251 0.122016
C18_2 C 0.4640(2) 0.1023(3) 0.1221(2)
H14_2 H 0.439928 0.154279 0.122295
C21_2 C 0.8213(2) 0.6600(2) 0.03337(18)
C24_2 C 0.6210(3) 0.6693(4) 0.0035(2)
C25_2 C 0.6647(3) 0.6859(4) 0.0931(2)
C26_2 C 0.7653(3) 0.6817(3) 0.1067(2)
H19_2 H 0.795929 0.693539 0.166160
C27_2 C 0.9212(2) 0.6413(2) 0.04786(19)
C29_2 C 0.6026(5) 0.7023(6) 0.1726(3)
H20_2 H 0.628238 0.784914 0.208016
H21_2 H 0.520327 0.658617 0.146280
H22_2 H 0.619841 0.673837 0.214199
loop_
_geom_bond_atom_site_label_1
_geom_bond_atom_site_label_2
_geom_bond_site_symmetry_1
_geom_bond_site_symmetry_2
N3 N4 1_555 1_555
N4 C20 1_555 1_555
N5 C19 1_555 1_555
H12 C15 1_555 1_555
C16 N3 1_555 1_555
C17 C16 1_555 1_555
H13 C17 1_555 1_555
C19 N3 1_555 1_555
H15 C19 1_555 1_555
C20 N5 1_555 1_555
H16 C20 1_555 1_555
Cd3 N5 1_555 1_555
C15 C16 1_555 1_555
Cd2 O7 1_555 1_555
O7 C28 1_555 1_555
O8 Cd2 1_555 1_555
N6 Cd2 1_555 1_555
N7 N8 1_555 1_555
N8 C31 1_555 1_555
C22 H17 1_555 1_555
C23 C22 1_555 1_555
C28 O8 1_555 1_555
C30 N6 1_555 1_555
H23 C30 1_555 1_555
C31 N6 1_555 1_555
H24 C31 1_555 1_555
C32 N8 1_555 1_555
C37 C32 1_555 1_555
H28 C37 1_555 1_555
Cd4 O6 1_555 1_555
O9 Cd2 1_555 1_555
O10 Cd2 1_555 1_555
N12 Cd2 1_555 1_555
N7 C30 1_555 1_555
C23 C28 1_555 1_555
N9 H2 1_555 1_555
N12 C39 1_555 1_555
H25 C33 1_555 1_555
C34 C33 1_555 1_555
H26 C34 1_555 1_555
C35 C34 1_555 1_555
C36 C35 1_555 1_555
H27 C36 1_555 1_555
C38 N9 1_555 1_555
C39 C38 1_555 1_555
H29 C39 1_555 1_555
C40 N9 1_555 1_555
H30 C40 1_555 1_555
N12 C40 1_555 1_555
C35 C38 1_555 1_555
Cd3 O1 1_555 1_555
O1 C7 1_555 1_555
O2 Cd3 1_555 1_555
O3 C8 1_555 1_555
O10 C8 1_555 1_555
C1 C2 1_555 1_555
C2 H3 1_555 1_555
C3 C2 1_555 1_555
C4 C3 1_555 1_555
H4 C4 1_555 1_555
C5 C4 1_555 1_555
C6 C1 1_555 1_555
H5 C6 1_555 1_555
C7 O2 1_555 1_555
C8 C5 1_555 1_555
C9 C3 1_555 1_555
H6 C9 1_555 1_555
H7 C9 1_555 1_555
H8 C9 1_555 1_555
Cd7 O3 1_555 1_555
O11 Cd3 1_555 1_555
C1 C7 1_555 1_555
C5 C6 1_555 1_555
Cd4 O1_2 1_555 1_555
O1_2 C7_2 1_555 1_555
O2_2 Cd4 1_555 1_555
O9 C8_2 1_555 1_555
O4 C8_2 1_555 1_555
C1_2 C2_2 1_555 1_555
C2_2 H3_2 1_555 1_555
C3_2 C2_2 1_555 1_555
C4_2 C3_2 1_555 1_555
H4_2 C4_2 1_555 1_555
C5_2 C4_2 1_555 1_555
C6_2 C1_2 1_555 1_555
H5_2 C6_2 1_555 1_555
C7_2 O2_2 1_555 1_555
C8_2 C5_2 1_555 1_555
C9_2 C3_2 1_555 1_555
H6_2 C9_2 1_555 1_555
H7_2 C9_2 1_555 1_555
H8_2 C9_2 1_555 1_555
Cd7 O4 1_555 1_555
N11 Cd4 1_555 1_555
C1_2 C7_2 1_555 1_555
C5_2 C6_2 1_555 1_555
N9_2 H2_2 1_555 1_555
N10 C39_2 1_555 1_555
H25_2 C33_2 1_555 1_555
C34_2 C33_2 1_555 1_555
H26_2 C34_2 1_555 1_555
C35_2 C34_2 1_555 1_555
C36_2 C35_2 1_555 1_555
H27_2 C36_2 1_555 1_555
C38_2 N9_2 1_555 1_555
C39_2 C38_2 1_555 1_555
H29_2 C39_2 1_555 1_555
C40_2 N9_2 1_555 1_555
H30_2 C40_2 1_555 1_555
Cd7 N10 1_555 1_555
N10 C40_2 1_555 1_555
C35_2 C38_2 1_555 1_555
Cd7 O7_2 1_555 1_555
O7_2 C28_2 1_555 1_555
O8_2 Cd7 1_555 1_555
N6_2 Cd7 1_555 1_555
N7_2 N8_2 1_555 1_555
N8_2 C31_2 1_555 1_555
C22_2 H17_2 1_555 1_555
C23_2 C22_2 1_555 1_555
C28_2 O8_2 1_555 1_555
C30_2 N6_2 1_555 1_555
H23_2 C30_2 1_555 1_555
C31_2 N6_2 1_555 1_555
H24_2 C31_2 1_555 1_555
C32_2 N8_2 1_555 1_555
C37_2 C32_2 1_555 1_555
H28_2 C37_2 1_555 1_555
N7_2 C30_2 1_555 1_555
C23_2 C28_2 1_555 1_555
N3_2 N4_2 1_555 1_555
N4_2 C20_2 1_555 1_555
N11 C19_2 1_555 1_555
H12_2 C15_2 1_555 1_555
C16_2 N3_2 1_555 1_555
C17_2 C16_2 1_555 1_555
H13_2 C17_2 1_555 1_555
C19_2 N3_2 1_555 1_555
H15_2 C19_2 1_555 1_555
C20_2 N11 1_555 1_555
H16_2 C20_2 1_555 1_555
C15_2 C16_2 1_555 1_555
N2 H1 1_555 1_555
C10 N1 1_555 1_555
H9 C10 1_555 1_555
C11 N1 1_555 1_555
H10 C11 1_555 1_555
C12 N2 1_555 1_555
C13 C12 1_555 1_555
C14 C13 1_555 1_555
H11 C14 1_555 1_555
C18 C13 1_555 1_555
H14 C18 1_555 1_555
C25 C24 1_555 1_555
C26 C21 1_555 1_555
H19 C26 1_555 1_555
C27 O5 1_555 1_555
C29 C25 1_555 1_555
H20 C29 1_555 1_555
H21 C29 1_555 1_555
H22 C29 1_555 1_555
N2 C10 1_555 1_555
C11 C12 1_555 1_555
C21 C27 1_555 1_555
C25 C26 1_555 1_555
N2_2 H1_2 1_555 1_555
C10_2 N1_2 1_555 1_555
H9_2 C10_2 1_555 1_555
C11_2 N1_2 1_555 1_555
H10_2 C11_2 1_555 1_555
C12_2 N2_2 1_555 1_555
C13_2 C12_2 1_555 1_555
C14_2 C13_2 1_555 1_555
H11_2 C14_2 1_555 1_555
C18_2 C13_2 1_555 1_555
H14_2 C18_2 1_555 1_555
C25_2 C24_2 1_555 1_555
C26_2 C21_2 1_555 1_555
H19_2 C26_2 1_555 1_555
C27_2 O5_2 1_555 1_555
C29_2 C25_2 1_555 1_555
H20_2 C29_2 1_555 1_555
H21_2 C29_2 1_555 1_555
H22_2 C29_2 1_555 1_555
N2_2 C10_2 1_555 1_555
C11_2 C12_2 1_555 1_555
C21_2 C27_2 1_555 1_555
C25_2 C26_2 1_555 1_555

#END
