
###############################################################################
#
# This file contains modified crystal structure data generated from the
# MOF subset of the Cambridge Structural Database (CSD) v543 
# hosted by the Cambridge Crystallographic Data Centre (CCDC).
#
# This work is licensed under the Creative Commons
# Attribution-NonCommercial-ShareAlike 4.0 International License.
# To view a copy of this license, visit
# http://creativecommons.org/licenses/by-nc-sa/4.0/
# or send a letter to
# Creative Commons, PO Box 1866, Mountain View, CA 94042, USA.
#
# CIF created using the CSD Python API on 29 September 2022
# The structure has been converted into the P1 space group
# The structure has a 3D framework
# The original CSD entry EMAFUU is in the tetragonal crystal system
# The framework has been calculated to contain at least 10.0% void space
# The void calculation uses a probe of radius 1.32A, grid spacing 0.4
#
###############################################################################

data_EMAFUU
_chemical_formula_moiety         '(C96 H80 Mo22 N32 Ni10 O59)n'
_symmetry_cell_setting           triclinic
_symmetry_space_group_name_H-M   'P 1'
_symmetry_Int_Tables_number      1
_space_group_name_Hall           'P 1'
loop_
_symmetry_equiv_pos_site_id
_symmetry_equiv_pos_as_xyz
1 x,y,z
_cell_length_a                   12.159(4)
_cell_length_b                   12.159(4)
_cell_length_c                   20.852(6)
_cell_angle_alpha                90
_cell_angle_beta                 90
_cell_angle_gamma                90
_cell_volume                     3082.79
loop_
_atom_site_label
_atom_site_type_symbol
_atom_site_fract_x
_atom_site_fract_y
_atom_site_fract_z
Ni2 Ni -0.0000 0.5000 0.5000
C14 C 0.0450(15) 0.2983(17) 0.4109(9)
H13 H 0.1095 0.2795 0.4322
C21 C 0.0063(15) 0.2454(17) 0.3601(10)
H20 H 0.0375 0.1860 0.3387
Ni1 Ni 0.5000 0.0000 0.0000
Mo1 Mo 0.18885(14) 0.03615(17) 0.0000
C1 C 0.6023(11) 0.1234(12) 0.1104(6)
H1 H 0.6627 0.0768 0.1069
C2 C 0.4550(15) 0.2017(17) 0.0891(9)
H2 H 0.3905 0.2205 0.0678
C3 C 0.4937(15) 0.2546(17) 0.1399(10)
H3 H 0.4625 0.3140 0.1613
C4 C 0.6726(10) 0.2247(11) 0.2037(6)
C5 C 0.7817(10) 0.2018(14) 0.1944(7)
H4 H 0.8029 0.1683 0.1563
C6 C 0.6400(11) 0.2742(14) 0.2617(7)
H5 H 0.5664 0.2900 0.2696
N1 N 0.5203(8) 0.1178(9) 0.0724(5)
N2 N 0.5954(8) 0.1988(10) 0.1542(5)
O1 O 0.3313(10) 0.0316(10) 0.0000
O2 O 0.1559(14) 0.1778(11) 0.0000
O3 O 0.0000 0.0000 0.0000
Ni2_2 Ni 1.0000 0.5000 0.5000
Ni7 Ni 0.0000 0.5000 0.0000
Mo6 Mo 0.0000 0.0000 0.10967(10)
C7 C 0.8977(11) 0.3766(12) 0.3896(6)
H6 H 0.8373 0.4232 0.3931
C28 C 0.8274(10) 0.2753(11) 0.2963(6)
C35 C 0.7183(10) 0.2982(14) 0.3056(7)
H27 H 0.6971 0.3317 0.3437
C42 C 0.8600(11) 0.2258(14) 0.2383(7)
H34 H 0.9336 0.2100 0.2304
N3 N 0.9797(8) 0.3822(9) 0.4276(5)
N14 N 0.9046(8) 0.3012(10) 0.3458(5)
O14 O 0.1566(7) 0.0118(7) 0.0917(5)
O21 O 0.0000 0.0000 0.1892(7)
Ni1_2 Ni 0.5000 0.0000 1.0000
Mo1_2 Mo 0.18885(14) 0.03615(17) 1.0000
Mo2 Mo 0.0000 0.0000 0.89033(10)
O1_2 O 0.3313(10) 0.0316(10) 1.0000
O2_2 O 0.1559(14) 0.1778(11) 1.0000
O3_2 O 0.0000 0.0000 1.0000
O4 O 0.1566(7) 0.0118(7) 0.9083(5)
O5 O 0.0000 0.0000 0.8108(7)
Ni7_2 Ni 0.0000 0.5000 1.0000
N7 N 0.5203(8) 0.1178(9) 0.9276(5)
Ni1_3 Ni 0.5000 1.0000 0.0000
O3_3 O 0.0000 1.0000 0.0000
Ni5 Ni 0.5000 0.0000 0.5000
Mo3 Mo 0.03615(17) 0.81115(14) 0.0000
Mo6_2 Mo 0.0000 1.0000 0.10967(10)
C8 C 0.3977(11) 0.8766(12) 0.1104(6)
C9 C 0.1023(11) 0.6234(12) 0.3896(6)
C10 C 0.1234(12) 0.3977(11) 0.1104(6)
C11 C 0.3766(12) 0.1023(11) 0.3896(6)
H7 H 0.3373 0.9232 0.1069
H8 H 0.1627 0.5768 0.3931
H9 H 0.0768 0.3373 0.1069
H10 H 0.4232 0.1627 0.3931
C15 C 0.5450(15) 0.7983(17) 0.0891(9)
C17 C 0.2017(17) 0.5450(15) 0.0891(9)
H14 H 0.6095 0.7795 0.0678
H16 H 0.2205 0.6095 0.0678
C22 C 0.5063(15) 0.7454(17) 0.1399(10)
C24 C 0.2546(17) 0.5063(15) 0.1399(10)
H21 H 0.5375 0.6860 0.1613
H23 H 0.3140 0.5375 0.1613
C29 C 0.3274(10) 0.7753(11) 0.2037(6)
C30 C 0.1726(10) 0.7247(11) 0.2963(6)
C31 C 0.2247(11) 0.3274(10) 0.2037(6)
C32 C 0.2753(11) 0.1726(10) 0.2963(6)
C36 C 0.2183(10) 0.7982(14) 0.1944(7)
C37 C 0.2817(10) 0.7018(14) 0.3056(7)
C38 C 0.2018(14) 0.2183(10) 0.1944(7)
C39 C 0.2982(14) 0.2817(10) 0.3056(7)
H28 H 0.1971 0.8317 0.1563
H29 H 0.3029 0.6683 0.3437
H30 H 0.1683 0.1971 0.1563
H31 H 0.3317 0.3029 0.3437
C43 C 0.3600(11) 0.7258(14) 0.2617(7)
C44 C 0.1400(11) 0.7742(14) 0.2383(7)
C45 C 0.2742(14) 0.3600(11) 0.2617(7)
C46 C 0.2258(14) 0.1400(11) 0.2383(7)
H35 H 0.4336 0.7100 0.2696
H36 H 0.0664 0.7900 0.2304
H37 H 0.2900 0.4336 0.2696
H38 H 0.2100 0.0664 0.2304
N4 N 0.4797(8) 0.8822(9) 0.0724(5)
N5 N 0.0203(8) 0.6178(9) 0.4276(5)
N8 N 0.1178(9) 0.4797(8) 0.0724(5)
N9 N 0.3822(9) 0.0203(8) 0.4276(5)
N15 N 0.4046(8) 0.8012(10) 0.1542(5)
N16 N 0.0954(8) 0.6988(10) 0.3458(5)
N17 N 0.1988(10) 0.4046(8) 0.1542(5)
N18 N 0.3012(10) 0.0954(8) 0.3458(5)
O6 O 0.6687(10) 0.9684(10) 0.0000
O7 O 0.0316(10) 0.6687(10) 0.0000
O11 O 0.1778(11) 0.8441(14) 0.0000
O18 O 0.0118(7) 0.8434(7) 0.0917(5)
O21_2 O 0.0000 1.0000 0.1892(7)
Ni1_4 Ni 0.5000 1.0000 1.0000
Mo2_2 Mo -0.0000 1.0000 0.89033(10)
O3_4 O 0.0000 1.0000 1.0000
O5_2 O 0.0000 1.0000 0.8108(7)
Mo3_2 Mo 0.03615(17) 0.81115(14) 1.0000
N6 N 0.4797(8) 0.8822(9) 0.9276(5)
N13 N 0.1178(9) 0.4797(8) 0.9276(5)
O6_2 O 0.6687(10) 0.9684(10) 1.0000
O7_2 O 0.0316(10) 0.6687(10) 1.0000
O11_2 O 0.1778(11) 0.8441(14) 1.0000
O17 O 0.0118(7) 0.8434(7) 0.9083(5)
Ni5_2 Ni 0.5000 1.0000 0.5000
C18 C 0.2983(17) 0.9550(15) 0.4109(9)
H17 H 0.2795 0.8905 0.4322
C25 C 0.2454(17) 0.9937(15) 0.3601(10)
H24 H 0.1860 0.9625 0.3387
O3_5 O 1.0000 0.0000 0.0000
Ni7_3 Ni 1.0000 0.5000 0.0000
Mo4 Mo 0.96385(17) 0.18885(14) 0.0000
Mo6_3 Mo 1.0000 0.0000 0.10967(10)
C20 C 0.7017(17) 0.0450(15) 0.4109(9)
H19 H 0.7205 0.1095 0.4322
C27 C 0.7546(17) 0.0063(15) 0.3601(10)
H26 H 0.8140 0.0375 0.3387
O9 O 0.9684(10) 0.3313(10) 0.0000
O13 O 0.8222(11) 0.1559(14) 0.0000
O19 O 0.9882(7) 0.1566(7) 0.0917(5)
O21_3 O 1.0000 0.0000 0.1892(7)
Mo2_3 Mo 1.0000 0.0000 0.89033(10)
O3_6 O 1.0000 0.0000 1.0000
O5_3 O 1.0000 0.0000 0.8108(7)
Ni7_4 Ni 1.0000 0.5000 1.0000
Mo4_2 Mo 0.96385(17) 0.18885(14) 1.0000
O9_2 O 0.9684(10) 0.3313(10) 1.0000
O13_2 O 0.8222(11) 0.1559(14) 1.0000
O16 O 0.9882(7) 0.1566(7) 0.9083(5)
O3_7 O 1.0000 1.0000 0.0000
Mo5 Mo 0.81115(14) 0.96385(17) 0.0000
Mo6_4 Mo 1.0000 1.0000 0.10967(10)
C12 C 0.8766(12) 0.6023(11) 0.1104(6)
C13 C 0.6234(12) 0.8977(11) 0.3896(6)
H11 H 0.9232 0.6627 0.1069
H12 H 0.5768 0.8373 0.3931
C16 C 0.9550(15) 0.7017(17) 0.4109(9)
C19 C 0.7983(17) 0.4550(15) 0.0891(9)
H15 H 0.8905 0.7205 0.4322
H18 H 0.7795 0.3905 0.0678
C23 C 0.9937(15) 0.7546(17) 0.3601(10)
C26 C 0.7454(17) 0.4937(15) 0.1399(10)
H22 H 0.9625 0.8140 0.3387
H25 H 0.6860 0.4625 0.1613
C33 C 0.7753(11) 0.6726(10) 0.2037(6)
C34 C 0.7247(11) 0.8274(10) 0.2963(6)
C40 C 0.7982(14) 0.7817(10) 0.1944(7)
C41 C 0.7018(14) 0.7183(10) 0.3056(7)
H32 H 0.8317 0.8029 0.1563
H33 H 0.6683 0.6971 0.3437
C47 C 0.7258(14) 0.6400(11) 0.2617(7)
C48 C 0.7742(14) 0.8600(11) 0.2383(7)
H39 H 0.7100 0.5664 0.2696
H40 H 0.7900 0.9336 0.2304
N10 N 0.8822(9) 0.5203(8) 0.0724(5)
N11 N 0.6178(9) 0.9797(8) 0.4276(5)
N19 N 0.8012(10) 0.5954(8) 0.1542(5)
N20 N 0.6988(10) 0.9046(8) 0.3458(5)
O12 O 0.8441(14) 0.8222(11) 0.0000
O20 O 0.8434(7) 0.9882(7) 0.0917(5)
O21_4 O 1.0000 1.0000 0.1892(7)
Mo2_4 Mo 1.0000 1.0000 0.89033(10)
O3_8 O 1.0000 1.0000 1.0000
O5_4 O 1.0000 1.0000 0.8108(7)
Mo5_2 Mo 0.81115(14) 0.96385(17) 1.0000
N12 N 0.8822(9) 0.5203(8) 0.9276(5)
O12_2 O 0.8441(14) 0.8222(11) 1.0000
O15 O 0.8434(7) 0.9882(7) 0.9083(5)
C1_2 C 0.1023(11) 0.6234(12) 0.6104(6)
H1_2 H 0.1627 0.5768 0.6069
C4_2 C 0.1726(10) 0.7247(11) 0.7037(6)
C5_2 C 0.2817(10) 0.7018(14) 0.6944(7)
H4_2 H 0.3029 0.6683 0.6563
C6_2 C 0.1400(11) 0.7742(14) 0.7617(7)
H5_2 H 0.0664 0.7900 0.7696
N1_2 N 0.0203(8) 0.6178(9) 0.5724(5)
N2_2 N 0.0954(8) 0.6988(10) 0.6542(5)
C7_2 C 0.3977(11) 0.8766(12) 0.8896(6)
H6_2 H 0.3373 0.9232 0.8931
C14_2 C 0.5450(15) 0.7983(17) 0.9109(9)
C15_2 C 0.0450(15) 0.2983(17) 0.5891(9)
H13_2 H 0.6095 0.7795 0.9322
H14_2 H 0.1095 0.2795 0.5678
C21_2 C 0.5063(15) 0.7454(17) 0.8601(10)
C22_2 C 0.0063(15) 0.2454(17) 0.6399(10)
H20_2 H 0.5375 0.6860 0.8387
H21_2 H 0.0375 0.1860 0.6613
C28_2 C 0.3274(10) 0.7753(11) 0.7963(6)
C35_2 C 0.2183(10) 0.7982(14) 0.8056(7)
H27_2 H 0.1971 0.8317 0.8437
C42_2 C 0.3600(11) 0.7258(14) 0.7383(7)
H34_2 H 0.4336 0.7100 0.7304
N14_2 N 0.4046(8) 0.8012(10) 0.8458(5)
O6_3 O 0.1687(10) 0.4684(10) 0.5000
Mo1_3 Mo 0.68885(14) 0.53615(17) 0.5000
Mo2_5 Mo 0.5000 0.5000 0.39033(10)
C2_2 C 0.9550(15) 0.7017(17) 0.5891(9)
H2_2 H 0.8905 0.7205 0.5678
C3_2 C 0.9937(15) 0.7546(17) 0.6399(10)
H3_2 H 0.9625 0.8140 0.6613
O1_3 O 0.8313(10) 0.5316(10) 0.5000
O2_3 O 0.6559(14) 0.6778(11) 0.5000
O3_9 O 0.5000 0.5000 0.5000
O4_2 O 0.6566(7) 0.5118(7) 0.4083(5)
O5_5 O 0.5000 0.5000 0.3108(7)
Mo3_3 Mo 0.53615(17) 0.31115(14) 0.5000
Mo4_3 Mo 0.46385(17) 0.68885(14) 0.5000
Mo5_3 Mo 0.31115(14) 0.46385(17) 0.5000
Mo6_5 Mo 0.5000 0.5000 0.60967(10)
C8_2 C 0.8977(11) 0.3766(12) 0.6104(6)
C9_2 C 0.6023(11) 0.1234(12) 0.8896(6)
C12_2 C 0.3766(12) 0.1023(11) 0.6104(6)
C13_2 C 0.1234(12) 0.3977(11) 0.8896(6)
H7_2 H 0.8373 0.4232 0.6069
H8_2 H 0.6627 0.0768 0.8931
H11_2 H 0.4232 0.1627 0.6069
H12_2 H 0.0768 0.3373 0.8931
C16_2 C 0.4550(15) 0.2017(17) 0.9109(9)
C17_2 C 0.7017(17) 0.0450(15) 0.5891(9)
C20_2 C 0.2017(17) 0.5450(15) 0.9109(9)
H15_2 H 0.3905 0.2205 0.9322
H16_2 H 0.7205 0.1095 0.5678
H19_2 H 0.2205 0.6095 0.9322
C23_2 C 0.4937(15) 0.2546(17) 0.8601(10)
C24_2 C 0.7546(17) 0.0063(15) 0.6399(10)
C27_2 C 0.2546(17) 0.5063(15) 0.8601(10)
H22_2 H 0.4625 0.3140 0.8387
H23_2 H 0.8140 0.0375 0.6613
H26_2 H 0.3140 0.5375 0.8387
C29_2 C 0.8274(10) 0.2753(11) 0.7037(6)
C30_2 C 0.6726(10) 0.2247(11) 0.7963(6)
C33_2 C 0.2753(11) 0.1726(10) 0.7037(6)
C34_2 C 0.2247(11) 0.3274(10) 0.7963(6)
C36_2 C 0.7183(10) 0.2982(14) 0.6944(7)
C37_2 C 0.7817(10) 0.2018(14) 0.8056(7)
C40_2 C 0.2982(14) 0.2817(10) 0.6944(7)
C41_2 C 0.2018(14) 0.2183(10) 0.8056(7)
H28_2 H 0.6971 0.3317 0.6563
H29_2 H 0.8029 0.1683 0.8437
H32_2 H 0.3317 0.3029 0.6563
H33_2 H 0.1683 0.1971 0.8437
C43_2 C 0.8600(11) 0.2258(14) 0.7617(7)
C44_2 C 0.6400(11) 0.2742(14) 0.7383(7)
C47_2 C 0.2258(14) 0.1400(11) 0.7617(7)
C48_2 C 0.2742(14) 0.3600(11) 0.7383(7)
H35_2 H 0.9336 0.2100 0.7696
H36_2 H 0.5664 0.2900 0.7304
H39_2 H 0.2100 0.0664 0.7696
H40_2 H 0.2900 0.4336 0.7304
N4_2 N 0.9797(8) 0.3822(9) 0.5724(5)
N10_2 N 0.3822(9) 0.0203(8) 0.5724(5)
N15_2 N 0.9046(8) 0.3012(10) 0.6542(5)
N16_2 N 0.5954(8) 0.1988(10) 0.8458(5)
N19_2 N 0.3012(10) 0.0954(8) 0.6542(5)
N20_2 N 0.1988(10) 0.4046(8) 0.8458(5)
O7_3 O 0.5316(10) 0.1687(10) 0.5000
O9_3 O 0.4684(10) 0.8313(10) 0.5000
O11_3 O 0.6778(11) 0.3441(14) 0.5000
O12_3 O 0.3441(14) 0.3222(11) 0.5000
O13_3 O 0.3222(11) 0.6559(14) 0.5000
O14_2 O 0.6566(7) 0.5118(7) 0.5917(5)
O15_2 O 0.3434(7) 0.4882(7) 0.4083(5)
O16_2 O 0.4882(7) 0.6566(7) 0.4083(5)
O17_2 O 0.5118(7) 0.3434(7) 0.4083(5)
O18_2 O 0.5118(7) 0.3434(7) 0.5917(5)
O19_2 O 0.4882(7) 0.6566(7) 0.5917(5)
O20_2 O 0.3434(7) 0.4882(7) 0.5917(5)
O21_5 O 0.5000 0.5000 0.6892(7)
C10_2 C 0.6234(12) 0.8977(11) 0.6104(6)
C11_2 C 0.8766(12) 0.6023(11) 0.8896(6)
H9_2 H 0.5768 0.8373 0.6069
H10_2 H 0.9232 0.6627 0.8931
C18_2 C 0.7983(17) 0.4550(15) 0.9109(9)
C19_2 C 0.2983(17) 0.9550(15) 0.5891(9)
H17_2 H 0.7795 0.3905 0.9322
H18_2 H 0.2795 0.8905 0.5678
C25_2 C 0.7454(17) 0.4937(15) 0.8601(10)
C26_2 C 0.2454(17) 0.9937(15) 0.6399(10)
H24_2 H 0.6860 0.4625 0.8387
H25_2 H 0.1860 0.9625 0.6613
C31_2 C 0.7247(11) 0.8274(10) 0.7037(6)
C32_2 C 0.7753(11) 0.6726(10) 0.7963(6)
C38_2 C 0.7018(14) 0.7183(10) 0.6944(7)
C39_2 C 0.7982(14) 0.7817(10) 0.8056(7)
H30_2 H 0.6683 0.6971 0.6563
H31_2 H 0.8317 0.8029 0.8437
C45_2 C 0.7742(14) 0.8600(11) 0.7617(7)
C46_2 C 0.7258(14) 0.6400(11) 0.7383(7)
H37_2 H 0.7900 0.9336 0.7696
H38_2 H 0.7100 0.5664 0.7304
N8_2 N 0.6178(9) 0.9797(8) 0.5724(5)
N17_2 N 0.6988(10) 0.9046(8) 0.6542(5)
N18_2 N 0.8012(10) 0.5954(8) 0.8458(5)
loop_
_geom_bond_atom_site_label_1
_geom_bond_atom_site_label_2
_geom_bond_site_symmetry_1
_geom_bond_site_symmetry_2
C14 H13 1_555 1_555
C21 C14 1_555 1_555
H20 C21 1_555 1_555
Ni1 N1 1_555 1_555
Mo1 O1 1_555 1_555
C1 H1 1_555 1_555
C2 H2 1_555 1_555
C3 C2 1_555 1_555
H3 C3 1_555 1_555
C4 C5 1_555 1_555
C5 H4 1_555 1_555
C6 C4 1_555 1_555
H5 C6 1_555 1_555
N1 C1 1_555 1_555
N2 C1 1_555 1_555
O1 Ni1 1_555 1_555
O2 Mo1 1_555 1_555
O3 Mo1 1_555 1_555
Ni2_2 N3 1_555 1_555
Mo6 O3 1_555 1_555
C7 H6 1_555 1_555
C28 C35 1_555 1_555
C35 C6 1_555 1_555
H27 C35 1_555 1_555
C42 C5 1_555 1_555
H34 C42 1_555 1_555
N3 C7 1_555 1_555
N14 C7 1_555 1_555
O14 Mo1 1_555 1_555
O21 Mo6 1_555 1_555
C2 N1 1_555 1_555
C3 N2 1_555 1_555
C4 N2 1_555 1_555
Mo6 O14 1_555 1_555
C28 C42 1_555 1_555
C28 N14 1_555 1_555
Mo1_2 O1_2 1_555 1_555
Mo2 O3_2 1_555 1_555
O1_2 Ni1_2 1_555 1_555
O2_2 Mo1_2 1_555 1_555
O3_2 Mo1_2 1_555 1_555
O4 Mo1_2 1_555 1_555
O5 Mo2 1_555 1_555
N7 Ni1_2 1_555 1_555
Mo2 O4 1_555 1_555
Ni2 N5 1_555 1_555
Ni7 N8 1_555 1_555
Ni5 N9 1_555 1_555
Mo3 O3_3 1_555 1_555
Mo6_2 O3_3 1_555 1_555
C8 H7 1_555 1_555
C9 H8 1_555 1_555
C10 H9 1_555 1_555
C11 H10 1_555 1_555
C15 H14 1_555 1_555
C17 H16 1_555 1_555
C22 C15 1_555 1_555
C24 C17 1_555 1_555
H21 C22 1_555 1_555
H23 C24 1_555 1_555
C29 C36 1_555 1_555
C30 C37 1_555 1_555
C31 C38 1_555 1_555
C32 C39 1_555 1_555
C36 H28 1_555 1_555
C37 H29 1_555 1_555
C38 H30 1_555 1_555
C39 H31 1_555 1_555
C43 C29 1_555 1_555
C44 C30 1_555 1_555
C45 C31 1_555 1_555
C46 C32 1_555 1_555
H35 C43 1_555 1_555
H36 C44 1_555 1_555
H37 C45 1_555 1_555
H38 C46 1_555 1_555
N4 Ni1_3 1_555 1_555
N5 C9 1_555 1_555
N8 C10 1_555 1_555
N9 C11 1_555 1_555
N15 C8 1_555 1_555
N16 C9 1_555 1_555
N17 C10 1_555 1_555
N18 C11 1_555 1_555
O6 Ni1_3 1_555 1_555
O7 Ni7 1_555 1_555
O18 Mo3 1_555 1_555
O21_2 Mo6_2 1_555 1_555
Mo3 O7 1_555 1_555
Mo3 O11 1_555 1_555
Mo6_2 O18 1_555 1_555
C8 N4 1_555 1_555
C15 N4 1_555 1_555
C17 N8 1_555 1_555
C22 N15 1_555 1_555
C24 N17 1_555 1_555
C29 N15 1_555 1_555
C30 N16 1_555 1_555
C31 N17 1_555 1_555
C32 N18 1_555 1_555
C36 C44 1_555 1_555
C37 C43 1_555 1_555
C38 C46 1_555 1_555
C39 C45 1_555 1_555
Mo2_2 O3_4 1_555 1_555
O5_2 Mo2_2 1_555 1_555
Mo3_2 O3_4 1_555 1_555
N6 Ni1_4 1_555 1_555
N13 Ni7_2 1_555 1_555
O6_2 Ni1_4 1_555 1_555
O7_2 Ni7_2 1_555 1_555
O17 Mo2_2 1_555 1_555
Mo3_2 O7_2 1_555 1_555
Mo3_2 O11_2 1_555 1_555
Mo3_2 O17 1_555 1_555
C18 H17 1_555 1_555
C25 C18 1_555 1_555
H24 C25 1_555 1_555
Ni7_3 O9 1_555 1_555
Mo6_3 O3_5 1_555 1_555
C20 H19 1_555 1_555
C27 C20 1_555 1_555
H26 C27 1_555 1_555
O9 Mo4 1_555 1_555
O13 Mo4 1_555 1_555
O19 Mo4 1_555 1_555
O21_3 Mo6_3 1_555 1_555
O3_5 Mo4 1_555 1_555
Mo6_3 O19 1_555 1_555
Mo2_3 O3_6 1_555 1_555
O5_3 Mo2_3 1_555 1_555
Ni7_4 O9_2 1_555 1_555
O9_2 Mo4_2 1_555 1_555
O13_2 Mo4_2 1_555 1_555
O16 Mo2_3 1_555 1_555
O3_6 Mo4_2 1_555 1_555
Mo4_2 O16 1_555 1_555
Ni5_2 N11 1_555 1_555
Mo5 O3_7 1_555 1_555
Mo6_4 O3_7 1_555 1_555
C12 H11 1_555 1_555
C13 H12 1_555 1_555
C16 H15 1_555 1_555
C19 H18 1_555 1_555
C23 C16 1_555 1_555
C26 C19 1_555 1_555
H22 C23 1_555 1_555
H25 C26 1_555 1_555
C33 C40 1_555 1_555
C34 C41 1_555 1_555
C40 H32 1_555 1_555
C41 H33 1_555 1_555
C47 C33 1_555 1_555
C48 C34 1_555 1_555
H39 C47 1_555 1_555
H40 C48 1_555 1_555
N10 Ni7_3 1_555 1_555
N11 C13 1_555 1_555
N19 C12 1_555 1_555
N20 C13 1_555 1_555
O6 Mo5 1_555 1_555
O20 Mo5 1_555 1_555
O21_4 Mo6_4 1_555 1_555
Mo5 O12 1_555 1_555
Mo6_4 O20 1_555 1_555
C12 N10 1_555 1_555
C19 N10 1_555 1_555
C26 N19 1_555 1_555
C33 N19 1_555 1_555
C34 N20 1_555 1_555
C40 C48 1_555 1_555
C41 C47 1_555 1_555
Mo2_4 O3_8 1_555 1_555
O5_4 Mo2_4 1_555 1_555
Mo5_2 O3_8 1_555 1_555
N12 Ni7_4 1_555 1_555
O6_2 Mo5_2 1_555 1_555
O15 Mo2_4 1_555 1_555
Mo5_2 O12_2 1_555 1_555
Mo5_2 O15 1_555 1_555
Ni2 N1_2 1_555 1_555
C1_2 H1_2 1_555 1_555
C4_2 C5_2 1_555 1_555
C5_2 H4_2 1_555 1_555
C6_2 C4_2 1_555 1_555
H5_2 C6_2 1_555 1_555
N1_2 C1_2 1_555 1_555
N2_2 C1_2 1_555 1_555
C7_2 H6_2 1_555 1_555
C14_2 H13_2 1_555 1_555
C15_2 H14_2 1_555 1_555
C21_2 C14_2 1_555 1_555
C22_2 C15_2 1_555 1_555
H20_2 C21_2 1_555 1_555
H21_2 C22_2 1_555 1_555
C28_2 C35_2 1_555 1_555
C35_2 C6_2 1_555 1_555
H27_2 C35_2 1_555 1_555
C42_2 C5_2 1_555 1_555
H34_2 C42_2 1_555 1_555
N6 C7_2 1_555 1_555
N14_2 C7_2 1_555 1_555
O6_3 Ni2 1_555 1_555
C4_2 N2_2 1_555 1_555
C14_2 N6 1_555 1_555
C21_2 N14_2 1_555 1_555
C28_2 C42_2 1_555 1_555
C28_2 N14_2 1_555 1_555
Mo1_3 O1_3 1_555 1_555
Mo2_5 O3_9 1_555 1_555
C2_2 H2_2 1_555 1_555
C3_2 C2_2 1_555 1_555
H3_2 C3_2 1_555 1_555
O1_3 Ni2_2 1_555 1_555
O2_3 Mo1_3 1_555 1_555
O3_9 Mo1_3 1_555 1_555
O4_2 Mo1_3 1_555 1_555
O5_5 Mo2_5 1_555 1_555
Ni5_2 O9_3 1_555 1_555
Mo3_3 O3_9 1_555 1_555
Mo4_3 O2_3 1_555 1_555
Mo5_3 O3_9 1_555 1_555
Mo6_5 O3_9 1_555 1_555
C8_2 H7_2 1_555 1_555
C9_2 H8_2 1_555 1_555
C12_2 H11_2 1_555 1_555
C13_2 H12_2 1_555 1_555
C16_2 H15_2 1_555 1_555
C17_2 H16_2 1_555 1_555
C20_2 H19_2 1_555 1_555
C23_2 C16_2 1_555 1_555
C24_2 C17_2 1_555 1_555
C27_2 C20_2 1_555 1_555
H22_2 C23_2 1_555 1_555
H23_2 C24_2 1_555 1_555
H26_2 C27_2 1_555 1_555
C29_2 C36_2 1_555 1_555
C30_2 C37_2 1_555 1_555
C33_2 C40_2 1_555 1_555
C34_2 C41_2 1_555 1_555
C36_2 H28_2 1_555 1_555
C37_2 H29_2 1_555 1_555
C40_2 H32_2 1_555 1_555
C41_2 H33_2 1_555 1_555
C43_2 C29_2 1_555 1_555
C44_2 C30_2 1_555 1_555
C47_2 C33_2 1_555 1_555
C48_2 C34_2 1_555 1_555
H35_2 C43_2 1_555 1_555
H36_2 C44_2 1_555 1_555
H39_2 C47_2 1_555 1_555
H40_2 C48_2 1_555 1_555
N4_2 Ni2_2 1_555 1_555
N7 C9_2 1_555 1_555
N10_2 Ni5 1_555 1_555
N13 C13_2 1_555 1_555
N15_2 C8_2 1_555 1_555
N16_2 C9_2 1_555 1_555
N19_2 C12_2 1_555 1_555
N20_2 C13_2 1_555 1_555
O7_3 Ni5 1_555 1_555
O9_3 Mo4_3 1_555 1_555
O6_3 Mo5_3 1_555 1_555
O11_3 Mo1_3 1_555 1_555
O12_3 Mo3_3 1_555 1_555
O13_3 Mo4_3 1_555 1_555
O14_2 Mo1_3 1_555 1_555
O15_2 Mo2_5 1_555 1_555
O16_2 Mo2_5 1_555 1_555
O17_2 Mo2_5 1_555 1_555
O18_2 Mo3_3 1_555 1_555
O19_2 Mo4_3 1_555 1_555
O20_2 Mo5_3 1_555 1_555
O21_5 Mo6_5 1_555 1_555
Mo2_5 O4_2 1_555 1_555
O3_9 Mo4_3 1_555 1_555
Mo3_3 O7_3 1_555 1_555
Mo3_3 O11_3 1_555 1_555
Mo3_3 O17_2 1_555 1_555
Mo4_3 O16_2 1_555 1_555
Mo5_3 O12_3 1_555 1_555
Mo5_3 O13_3 1_555 1_555
Mo5_3 O15_2 1_555 1_555
Mo6_5 O14_2 1_555 1_555
Mo6_5 O18_2 1_555 1_555
Mo6_5 O19_2 1_555 1_555
Mo6_5 O20_2 1_555 1_555
C8_2 N4_2 1_555 1_555
C12_2 N10_2 1_555 1_555
C16_2 N7 1_555 1_555
C20_2 N13 1_555 1_555
C23_2 N16_2 1_555 1_555
C27_2 N20_2 1_555 1_555
C29_2 N15_2 1_555 1_555
C30_2 N16_2 1_555 1_555
C33_2 N19_2 1_555 1_555
C34_2 N20_2 1_555 1_555
C36_2 C44_2 1_555 1_555
C37_2 C43_2 1_555 1_555
C40_2 C48_2 1_555 1_555
C41_2 C47_2 1_555 1_555
Ni5_2 N8_2 1_555 1_555
C10_2 H9_2 1_555 1_555
C11_2 H10_2 1_555 1_555
C18_2 H17_2 1_555 1_555
C19_2 H18_2 1_555 1_555
C25_2 C18_2 1_555 1_555
C26_2 C19_2 1_555 1_555
H24_2 C25_2 1_555 1_555
H25_2 C26_2 1_555 1_555
C31_2 C38_2 1_555 1_555
C32_2 C39_2 1_555 1_555
C38_2 H30_2 1_555 1_555
C39_2 H31_2 1_555 1_555
C45_2 C31_2 1_555 1_555
C46_2 C32_2 1_555 1_555
H37_2 C45_2 1_555 1_555
H38_2 C46_2 1_555 1_555
N8_2 C10_2 1_555 1_555
N12 C11_2 1_555 1_555
N17_2 C10_2 1_555 1_555
N18_2 C11_2 1_555 1_555
C18_2 N12 1_555 1_555
C25_2 N18_2 1_555 1_555
C31_2 N17_2 1_555 1_555
C32_2 N18_2 1_555 1_555
C38_2 C46_2 1_555 1_555
C39_2 C45_2 1_555 1_555

#END
