
###############################################################################
#
# This file contains modified crystal structure data generated from the
# MOF subset of the Cambridge Structural Database (CSD) v543 
# hosted by the Cambridge Crystallographic Data Centre (CCDC).
#
# This work is licensed under the Creative Commons
# Attribution-NonCommercial-ShareAlike 4.0 International License.
# To view a copy of this license, visit
# http://creativecommons.org/licenses/by-nc-sa/4.0/
# or send a letter to
# Creative Commons, PO Box 1866, Mountain View, CA 94042, USA.
#
# CIF created using the CSD Python API on 29 September 2022
# The structure has been converted into the P1 space group
# The structure has a 3D framework
# The original CSD entry EMEJAJ is in the tetragonal crystal system
# The framework has been calculated to contain at least 10.0% void space
# The void calculation uses a probe of radius 1.32A, grid spacing 0.4
#
###############################################################################

data_EMEJAJ
_chemical_formula_moiety         '(C48 H32 Cu7 F28 N16 Si12)n'
_symmetry_cell_setting           triclinic
_symmetry_space_group_name_H-M   'P 1'
_symmetry_Int_Tables_number      1
_space_group_name_Hall           'P 1'
loop_
_symmetry_equiv_pos_site_id
_symmetry_equiv_pos_as_xyz
1 x,y,z
_cell_length_a                   11.10371(33)
_cell_length_b                   11.10371
_cell_length_c                   15.9395(6)
_cell_angle_alpha                90
_cell_angle_beta                 90
_cell_angle_gamma                90
_cell_volume                     1965.22
loop_
_atom_site_label
_atom_site_type_symbol
_atom_site_fract_x
_atom_site_fract_y
_atom_site_fract_z
_atom_site_U_iso_or_equiv
_atom_site_thermal_displace_type
Cu3 Cu -0.000 -0.000 0.250 0.0175 Uiso
F1 F 0.1091(9) 0.1060(8) 0.500 0.0328 Uiso
C3 C 0.000 0.4339(5) 0.250 0.0192 Uiso
N1 N -0.000 0.1821(4) 0.250 0.0072 Uiso
Si1 Si -0.000 -0.000 0.500 0.0147 Uiso
F2 F -0.000 -0.000 0.3917(5) 0.0076 Uiso
C4 C 0.0364(4) 0.75370(28) 0.31708(23) 0.0232 Uiso
C5 C 0.0355(4) 0.62870(28) 0.32101(24) 0.0232 Uiso
H3 H 0.0632(9) 0.8085(9) 0.3699(5) 0.0435 Uiso
H4 H 0.0688(10) 0.5857(8) 0.3771(4) 0.0435 Uiso
C6 C -0.000 0.5661(5) 0.250 0.0192 Uiso
N2 N 0.000 0.8179(4) 0.250 0.0072 Uiso
C9 C 0.0364(4) 0.24630(28) 0.18292(23) 0.0232 Uiso
C10 C 0.0355(4) 0.37130(28) 0.17899(24) 0.0232 Uiso
H7 H 0.0632(9) 0.1915(9) 0.1301(5) 0.0435 Uiso
H8 H 0.0688(10) 0.4143(8) 0.1229(4) 0.0435 Uiso
F6 F -0.000 -0.000 0.6083(5) 0.0076 Uiso
N6 N 0.1821(4) -0.000 0.250 0.0072 Uiso
Cu3_2 Cu 0.000 1.000 0.250 0.0175 Uiso
Cu4 Cu -0.000 -0.000 0.750 0.0175 Uiso
F7 F -0.000 -0.000 0.1083(5) 0.0076 Uiso
Si1_2 Si -0.000 1.000 0.500 0.0147 Uiso
F2_2 F 0.000 1.000 0.3917(5) 0.0076 Uiso
F5 F 0.1060(8) 0.8909(9) 0.500 0.0328 Uiso
F6_2 F -0.000 1.000 0.6083(5) 0.0076 Uiso
N6_2 N 0.1821(4) 1.000 0.250 0.0072 Uiso
Cu4_2 Cu -0.000 1.000 0.750 0.0175 Uiso
F7_2 F 0.000 1.000 0.1083(5) 0.0076 Uiso
Cu3_3 Cu 1.000 -0.000 0.250 0.0175 Uiso
C1 C 0.9636(4) 0.24630(28) 0.31708(23) 0.0232 Uiso
C2 C 0.9645(4) 0.37130(28) 0.32101(24) 0.0232 Uiso
H1 H 0.9368(9) 0.1915(9) 0.3699(5) 0.0435 Uiso
H2 H 0.9312(10) 0.4143(8) 0.3771(4) 0.0435 Uiso
C3_2 C 1.000 0.4339(5) 0.250 0.0192 Uiso
N1_2 N 1.000 0.1821(4) 0.250 0.0072 Uiso
Si1_3 Si 1.000 -0.000 0.500 0.0147 Uiso
F2_3 F 1.000 -0.000 0.3917(5) 0.0076 Uiso
C6_2 C 1.000 0.5661(5) 0.250 0.0192 Uiso
N2_2 N 1.000 0.8179(4) 0.250 0.0072 Uiso
C7 C 0.9636(4) 0.75370(28) 0.18292(23) 0.0232 Uiso
C8 C 0.9645(4) 0.62870(28) 0.17899(24) 0.0232 Uiso
H5 H 0.9368(9) 0.8085(9) 0.1301(5) 0.0435 Uiso
H6 H 0.9312(10) 0.5857(8) 0.1229(4) 0.0435 Uiso
F3 F 0.8940(8) 0.1091(9) 0.500 0.0328 Uiso
F6_3 F 1.000 -0.000 0.6083(5) 0.0076 Uiso
C13 C 0.5661(5) -0.000 0.250 0.0192 Uiso
N3 N 0.8179(4) -0.000 0.250 0.0072 Uiso
C14 C 0.24630(28) 0.0364(4) 0.31708(23) 0.0232 Uiso
C15 C 0.37130(28) 0.0355(4) 0.32101(24) 0.0232 Uiso
H11 H 0.1915(9) 0.0632(9) 0.3699(5) 0.0435 Uiso
H12 H 0.4143(8) 0.0688(10) 0.3771(4) 0.0435 Uiso
C16 C 0.4339(5) -0.000 0.250 0.0192 Uiso
C19 C 0.75370(28) 0.0364(4) 0.18292(23) 0.0232 Uiso
C20 C 0.62870(28) 0.0355(4) 0.17899(24) 0.0232 Uiso
H15 H 0.8085(9) 0.0632(9) 0.1301(5) 0.0435 Uiso
H16 H 0.5857(8) 0.0688(10) 0.1229(4) 0.0435 Uiso
Cu3_4 Cu 1.000 1.000 0.250 0.0175 Uiso
Cu4_3 Cu 1.000 -0.000 0.750 0.0175 Uiso
F7_3 F 1.000 -0.000 0.1083(5) 0.0076 Uiso
Si1_4 Si 1.000 1.000 0.500 0.0147 Uiso
F2_4 F 1.000 1.000 0.3917(5) 0.0076 Uiso
F4 F 0.8909(9) 0.8940(8) 0.500 0.0328 Uiso
F6_4 F 1.000 1.000 0.6083(5) 0.0076 Uiso
C11 C 0.75370(28) 0.9636(4) 0.31708(23) 0.0232 Uiso
C12 C 0.62870(28) 0.9645(4) 0.32101(24) 0.0232 Uiso
H9 H 0.8085(9) 0.9368(9) 0.3699(5) 0.0435 Uiso
H10 H 0.5857(8) 0.9312(10) 0.3771(4) 0.0435 Uiso
C13_2 C 0.5661(5) 1.000 0.250 0.0192 Uiso
N3_2 N 0.8179(4) 1.000 0.250 0.0072 Uiso
C16_2 C 0.4339(5) 1.000 0.250 0.0192 Uiso
C17 C 0.24630(28) 0.9636(4) 0.18292(23) 0.0232 Uiso
C18 C 0.37130(28) 0.9645(4) 0.17899(24) 0.0232 Uiso
H13 H 0.1915(9) 0.9368(9) 0.1301(5) 0.0435 Uiso
H14 H 0.4143(8) 0.9312(10) 0.1229(4) 0.0435 Uiso
Cu4_4 Cu 1.000 1.000 0.750 0.0175 Uiso
F7_4 F 1.000 1.000 0.1083(5) 0.0076 Uiso
Si1_5 Si -0.000 0.000 0.000 0.0147 Uiso
F5_2 F 0.1060(8) 0.1091(9) 0.000 0.0328 Uiso
Si1_6 Si -0.000 -0.000 1.000 0.0147 Uiso
F5_3 F 0.1060(8) 0.1091(9) 1.000 0.0328 Uiso
F6_5 F -0.000 0.000 0.8917(5) 0.0076 Uiso
F1_2 F 0.1091(9) 0.8940(8) 0.000 0.0328 Uiso
Si1_7 Si -0.000 1.000 0.000 0.0147 Uiso
F1_3 F 0.1091(9) 0.8940(8) 1.000 0.0328 Uiso
Si1_8 Si -0.000 1.000 1.000 0.0147 Uiso
F6_6 F -0.000 1.000 0.8917(5) 0.0076 Uiso
Si1_9 Si 1.000 0.000 0.000 0.0147 Uiso
F4_2 F 0.8909(9) 0.1060(8) 0.000 0.0328 Uiso
Si1_10 Si 1.000 -0.000 1.000 0.0147 Uiso
F4_3 F 0.8909(9) 0.1060(8) 1.000 0.0328 Uiso
F6_7 F 1.000 0.000 0.8917(5) 0.0076 Uiso
Si1_11 Si 1.000 1.000 0.000 0.0147 Uiso
F3_2 F 0.8940(8) 0.8909(9) 0.000 0.0328 Uiso
Si1_12 Si 1.000 1.000 1.000 0.0147 Uiso
F3_3 F 0.8940(8) 0.8909(9) 1.000 0.0328 Uiso
F6_8 F 1.000 1.000 0.8917(5) 0.0076 Uiso
C11_2 C 0.24630(28) 0.0364(4) 0.68292(23) 0.0232 Uiso
C12_2 C 0.37130(28) 0.0355(4) 0.67899(24) 0.0232 Uiso
H9_2 H 0.1915(9) 0.0632(9) 0.6301(5) 0.0435 Uiso
H10_2 H 0.4143(8) 0.0688(10) 0.6229(4) 0.0435 Uiso
C13_3 C 0.4339(5) -0.000 0.750 0.0192 Uiso
N3_3 N 0.1821(4) -0.000 0.750 0.0072 Uiso
C16_3 C 0.5661(5) -0.000 0.750 0.0192 Uiso
N4 N 0.8179(4) -0.000 0.750 0.0072 Uiso
C17_2 C 0.75370(28) 0.0364(4) 0.81708(23) 0.0232 Uiso
C18_2 C 0.62870(28) 0.0355(4) 0.82101(24) 0.0232 Uiso
H13_2 H 0.8085(9) 0.0632(9) 0.8699(5) 0.0435 Uiso
H14_2 H 0.5857(8) 0.0688(10) 0.8771(4) 0.0435 Uiso
N5 N -0.000 0.1821(4) 0.750 0.0072 Uiso
C1_2 C 0.0364(4) 0.75370(28) 0.68292(23) 0.0232 Uiso
C2_2 C 0.0355(4) 0.62870(28) 0.67899(24) 0.0232 Uiso
H1_2 H 0.0632(9) 0.8085(9) 0.6301(5) 0.0435 Uiso
H2_2 H 0.0688(10) 0.5857(8) 0.6229(4) 0.0435 Uiso
C3_3 C -0.000 0.5661(5) 0.750 0.0192 Uiso
N1_3 N -0.000 0.8179(4) 0.750 0.0072 Uiso
C6_3 C -0.000 0.4339(5) 0.750 0.0192 Uiso
C7_2 C 0.0364(4) 0.24630(28) 0.81708(23) 0.0232 Uiso
C8_2 C 0.0355(4) 0.37130(28) 0.82101(24) 0.0232 Uiso
H5_2 H 0.0632(9) 0.1915(9) 0.8699(5) 0.0435 Uiso
H6_2 H 0.0688(10) 0.4143(8) 0.8771(4) 0.0435 Uiso
C13_4 C 0.4339(5) 1.000 0.750 0.0192 Uiso
N3_4 N 0.1821(4) 1.000 0.750 0.0072 Uiso
C14_2 C 0.75370(28) 0.9636(4) 0.68292(23) 0.0232 Uiso
C15_2 C 0.62870(28) 0.9645(4) 0.67899(24) 0.0232 Uiso
H11_2 H 0.8085(9) 0.9368(9) 0.6301(5) 0.0435 Uiso
H12_2 H 0.5857(8) 0.9312(10) 0.6229(4) 0.0435 Uiso
C16_4 C 0.5661(5) 1.000 0.750 0.0192 Uiso
N4_2 N 0.8179(4) 1.000 0.750 0.0072 Uiso
C19_2 C 0.24630(28) 0.9636(4) 0.81708(23) 0.0232 Uiso
C20_2 C 0.37130(28) 0.9645(4) 0.82101(24) 0.0232 Uiso
H15_2 H 0.1915(9) 0.9368(9) 0.8699(5) 0.0435 Uiso
H16_2 H 0.4143(8) 0.9312(10) 0.8771(4) 0.0435 Uiso
N5_2 N 1.000 0.1821(4) 0.750 0.0072 Uiso
C3_4 C 1.000 0.5661(5) 0.750 0.0192 Uiso
N1_4 N 1.000 0.8179(4) 0.750 0.0072 Uiso
C4_2 C 0.9636(4) 0.24630(28) 0.68292(23) 0.0232 Uiso
C5_2 C 0.9645(4) 0.37130(28) 0.67899(24) 0.0232 Uiso
H3_2 H 0.9368(9) 0.1915(9) 0.6301(5) 0.0435 Uiso
H4_2 H 0.9312(10) 0.4143(8) 0.6229(4) 0.0435 Uiso
C6_4 C 1.000 0.4339(5) 0.750 0.0192 Uiso
C9_2 C 0.9636(4) 0.75370(28) 0.81708(23) 0.0232 Uiso
C10_2 C 0.9645(4) 0.62870(28) 0.82101(24) 0.0232 Uiso
H7_2 H 0.9368(9) 0.8085(9) 0.8699(5) 0.0435 Uiso
H8_2 H 0.9312(10) 0.5857(8) 0.8771(4) 0.0435 Uiso
loop_
_geom_bond_atom_site_label_1
_geom_bond_atom_site_label_2
_geom_bond_site_symmetry_1
_geom_bond_site_symmetry_2
F1 Si1 1_555 1_555
Cu3 N1 1_555 1_555
Si1 F2 1_555 1_555
F2 Cu3 1_555 1_555
C4 C5 1_555 1_555
C5 H4 1_555 1_555
H3 C4 1_555 1_555
C6 C3 1_555 1_555
N2 C4 1_555 1_555
C9 N1 1_555 1_555
C10 C3 1_555 1_555
H7 C9 1_555 1_555
H8 C10 1_555 1_555
F6 Si1 1_555 1_555
N6 Cu3 1_555 1_555
Cu3_2 N2 1_555 1_555
Cu4 F6 1_555 1_555
F7 Cu3 1_555 1_555
C5 C6 1_555 1_555
C9 C10 1_555 1_555
Si1_2 F2_2 1_555 1_555
F2_2 Cu3_2 1_555 1_555
F5 Si1_2 1_555 1_555
F6_2 Si1_2 1_555 1_555
N6_2 Cu3_2 1_555 1_555
Cu4_2 F6_2 1_555 1_555
F7_2 Cu3_2 1_555 1_555
C1 C2 1_555 1_555
C2 H2 1_555 1_555
H1 C1 1_555 1_555
C3_2 C2 1_555 1_555
N1_2 C1 1_555 1_555
Cu3_3 N1_2 1_555 1_555
Si1_3 F2_3 1_555 1_555
F2_3 Cu3_3 1_555 1_555
C6_2 C3_2 1_555 1_555
C7 N2_2 1_555 1_555
C8 C6_2 1_555 1_555
H5 C7 1_555 1_555
H6 C8 1_555 1_555
F3 Si1_3 1_555 1_555
F6_3 Si1_3 1_555 1_555
N3 Cu3_3 1_555 1_555
C14 C15 1_555 1_555
C15 H12 1_555 1_555
H11 C14 1_555 1_555
C16 C13 1_555 1_555
N6 C14 1_555 1_555
C19 N3 1_555 1_555
C20 C13 1_555 1_555
H15 C19 1_555 1_555
H16 C20 1_555 1_555
Cu3_4 N2_2 1_555 1_555
Cu4_3 F6_3 1_555 1_555
F7_3 Cu3_3 1_555 1_555
C7 C8 1_555 1_555
C15 C16 1_555 1_555
C19 C20 1_555 1_555
Si1_4 F2_4 1_555 1_555
F2_4 Cu3_4 1_555 1_555
F4 Si1_4 1_555 1_555
F6_4 Si1_4 1_555 1_555
C11 C12 1_555 1_555
C12 H10 1_555 1_555
H9 C11 1_555 1_555
C13_2 C12 1_555 1_555
N3_2 Cu3_4 1_555 1_555
C16_2 C13_2 1_555 1_555
C17 N6_2 1_555 1_555
C18 C16_2 1_555 1_555
H13 C17 1_555 1_555
H14 C18 1_555 1_555
Cu4_4 F6_4 1_555 1_555
F7_4 Cu3_4 1_555 1_555
C11 N3_2 1_555 1_555
C17 C18 1_555 1_555
Si1_5 F7 1_555 1_555
F5_2 Si1_5 1_555 1_555
F5_3 Si1_6 1_555 1_555
F6_5 Si1_6 1_555 1_555
Cu4 F6_5 1_555 1_555
F1_2 Si1_7 1_555 1_555
Si1_7 F7_2 1_555 1_555
F1_3 Si1_8 1_555 1_555
F6_6 Si1_8 1_555 1_555
Cu4_2 F6_6 1_555 1_555
Si1_9 F7_3 1_555 1_555
F4_2 Si1_9 1_555 1_555
F4_3 Si1_10 1_555 1_555
F6_7 Si1_10 1_555 1_555
Cu4_3 F6_7 1_555 1_555
Si1_11 F7_4 1_555 1_555
F3_2 Si1_11 1_555 1_555
F3_3 Si1_12 1_555 1_555
F6_8 Si1_12 1_555 1_555
Cu4_4 F6_8 1_555 1_555
C11_2 C12_2 1_555 1_555
C12_2 H10_2 1_555 1_555
H9_2 C11_2 1_555 1_555
C13_3 C12_2 1_555 1_555
N3_3 Cu4 1_555 1_555
C16_3 C13_3 1_555 1_555
C17_2 N4 1_555 1_555
C18_2 C16_3 1_555 1_555
H13_2 C17_2 1_555 1_555
H14_2 C18_2 1_555 1_555
N5 Cu4 1_555 1_555
Cu4_3 N4 1_555 1_555
C11_2 N3_3 1_555 1_555
C17_2 C18_2 1_555 1_555
C1_2 C2_2 1_555 1_555
C2_2 H2_2 1_555 1_555
H1_2 C1_2 1_555 1_555
C3_3 C2_2 1_555 1_555
N1_3 C1_2 1_555 1_555
Cu4_2 N1_3 1_555 1_555
C6_3 C3_3 1_555 1_555
C7_2 N5 1_555 1_555
C8_2 C6_3 1_555 1_555
H5_2 C7_2 1_555 1_555
H6_2 C8_2 1_555 1_555
N3_4 Cu4_2 1_555 1_555
C14_2 C15_2 1_555 1_555
C15_2 H12_2 1_555 1_555
H11_2 C14_2 1_555 1_555
C16_4 C13_4 1_555 1_555
N4_2 C14_2 1_555 1_555
C19_2 N3_4 1_555 1_555
C20_2 C13_4 1_555 1_555
H15_2 C19_2 1_555 1_555
H16_2 C20_2 1_555 1_555
Cu4_4 N4_2 1_555 1_555
C7_2 C8_2 1_555 1_555
C15_2 C16_4 1_555 1_555
C19_2 C20_2 1_555 1_555
N5_2 Cu4_3 1_555 1_555
Cu4_4 N1_4 1_555 1_555
C4_2 C5_2 1_555 1_555
C5_2 H4_2 1_555 1_555
H3_2 C4_2 1_555 1_555
C6_4 C3_4 1_555 1_555
N5_2 C4_2 1_555 1_555
C9_2 N1_4 1_555 1_555
C10_2 C3_4 1_555 1_555
H7_2 C9_2 1_555 1_555
H8_2 C10_2 1_555 1_555
C5_2 C6_4 1_555 1_555
C9_2 C10_2 1_555 1_555

#END
