
###############################################################################
#
# This file contains modified crystal structure data generated from the
# MOF subset of the Cambridge Structural Database (CSD) v543 
# hosted by the Cambridge Crystallographic Data Centre (CCDC).
#
# This work is licensed under the Creative Commons
# Attribution-NonCommercial-ShareAlike 4.0 International License.
# To view a copy of this license, visit
# http://creativecommons.org/licenses/by-nc-sa/4.0/
# or send a letter to
# Creative Commons, PO Box 1866, Mountain View, CA 94042, USA.
#
# CIF created using the CSD Python API on 29 September 2022
# The structure has been converted into the P1 space group
# The structure has a 3D framework
# The original CSD entry EMITUQ01 is in the monoclinic crystal system
# The framework has been calculated to contain at least 10.0% void space
# The void calculation uses a probe of radius 1.32A, grid spacing 0.4
#
###############################################################################

data_EMITUQ01
_chemical_formula_moiety         '(C152 H80 N8 O48 S8 Zn8)n'
_symmetry_cell_setting           triclinic
_symmetry_space_group_name_H-M   'P 1'
_symmetry_Int_Tables_number      1
_space_group_name_Hall           'P 1'
loop_
_symmetry_equiv_pos_site_id
_symmetry_equiv_pos_as_xyz
1 x,y,z
_cell_length_a                   13.8963(17)
_cell_length_b                   23.221(3)
_cell_length_c                   18.872(2)
_cell_angle_alpha                90
_cell_angle_beta                 103.1020(10)
_cell_angle_gamma                90
_cell_volume                     5931.2
loop_
_atom_site_label
_atom_site_type_symbol
_atom_site_fract_x
_atom_site_fract_y
_atom_site_fract_z
Zn7 Zn 0.121899(11) 0.990922(7) 0.640476(8)
O7 O 0.12286(8) 0.45626(4) 0.05529(5)
O8 O 0.28711(8) 0.44157(5) 0.08429(6)
H11 H 0.3399 0.3731 0.0006
C28 C 0.20116(11) 0.43221(6) 0.04735(8)
Zn4 Zn 0.338661(11) 0.489935(7) 0.174966(8)
Zn6 Zn 0.121899(11) 0.509078(7) 0.140476(8)
Zn1 Zn 0.338661(11) 0.010065(7) 0.674966(8)
S2 S 0.35800(3) 0.272030(18) 0.90795(2)
O5 O 0.32491(8) 0.08023(4) 0.73580(6)
O6 O 0.16220(8) 0.06299(5) 0.70555(6)
O11 O 0.40821(9) 0.24113(6) 0.97170(8)
O12 O 0.41830(9) 0.30384(6) 0.86940(8)
C15 C 0.23627(11) 0.09209(6) 0.73546(8)
C16 C 0.21675(11) 0.14612(6) 0.77426(8)
C17 C 0.29578(11) 0.17797(7) 0.81458(8)
H7 H 0.3623 0.1668 0.8175
C18 C 0.11978(11) 0.16426(7) 0.76896(8)
H8 H 0.0671 0.1427 0.7401
C19 C 0.27309(11) 0.22626(7) 0.84998(8)
C20 C 0.09846(11) 0.21300(7) 0.80472(9)
H9 H 0.0320 0.2249 0.8006
C21 C 0.17612(11) 0.24414(6) 0.84679(8)
C22 C 0.17004(11) 0.29552(6) 0.89177(8)
C23 C 0.26276(11) 0.31546(7) 0.92783(8)
C24 C 0.08595(11) 0.32252(6) 0.90355(8)
H10 H 0.0220 0.3102 0.8787
C25 C 0.27575(11) 0.36043(6) 0.97662(8)
C26 C 0.09758(10) 0.36816(6) 0.95281(8)
H12 H 0.0407 0.3870 0.9615
C27 C 0.19078(10) 0.38670(6) 0.98953(7)
N1 N 0.48262(9) 0.00680(5) 0.67321(7)
C30 C 0.52957(11) 0.05272(7) 0.65475(9)
H14 H 0.4956 0.0885 0.6472
C32 C 0.62549(11) 0.05013(7) 0.64632(10)
H16 H 0.6563 0.0835 0.6324
C36 C 0.81460(11) 0.02760(7) 0.60064(9)
H18 H 0.7706 0.0521 0.5683
C38 C 0.91265(11) 0.02420(7) 0.59767(8)
H20 H 0.9351 0.0466 0.5625
O15 O 0.12286(8) 0.04374(4) 0.55529(5)
O16 O 0.28711(8) 0.05843(5) 0.58429(6)
S1 S 0.10645(3) 0.729455(19) 0.40878(3)
O1 O 0.30348(8) 0.93763(5) 0.61092(6)
O2 O 0.14081(8) 0.92196(4) 0.57778(6)
O3 O 0.17149(8) 0.55912(5) 0.22975(6)
O4 O 0.33481(8) 0.54367(5) 0.25873(6)
O9 O 0.04010(10) 0.75755(7) 0.35062(9)
O10 O 0.06437(12) 0.69439(7) 0.45618(11)
C1 C 0.22919(11) 0.91046(6) 0.57731(8)
C2 C 0.24836(11) 0.85997(6) 0.53318(8)
C3 C 0.17013(11) 0.82514(6) 0.49836(8)
H1 H 0.1043 0.8328 0.5021
C4 C 0.34376(11) 0.84840(7) 0.52594(9)
H2 H 0.3963 0.8725 0.5502
C5 C 0.19184(11) 0.77932(6) 0.45843(8)
C6 C 0.36479(12) 0.80264(7) 0.48428(10)
H3 H 0.4301 0.7961 0.4785
C7 C 0.28752(11) 0.76684(7) 0.45138(9)
C8 C 0.29215(12) 0.71525(7) 0.40696(10)
C9 C 0.19949(11) 0.69143(7) 0.37829(10)
C10 C 0.37522(13) 0.68910(9) 0.39219(12)
H4 H 0.4392 0.7041 0.4121
C11 C 0.18597(11) 0.64433(7) 0.33278(9)
H5 H 0.1218 0.6297 0.3126
C12 C 0.36356(12) 0.64061(8) 0.34783(11)
H6 H 0.4202 0.6221 0.3383
C13 C 0.26980(11) 0.61879(7) 0.31718(9)
C14 C 0.25775(11) 0.56970(6) 0.26445(8)
N2 N 0.97734(8) 0.99056(5) 0.64232(6)
C29 C 0.53148(11) 0.95660(7) 0.68436(9)
H13 H 0.4983 0.9238 0.6972
C31 C 0.62808(11) 0.95068(7) 0.67793(9)
H15 H 0.6608 0.9146 0.6868
C33 C 0.67661(11) 0.99822(7) 0.65838(8)
C34 C 0.78072(10) 0.99448(6) 0.65194(8)
C35 C 0.84711(11) 0.95823(7) 0.69650(9)
H17 H 0.8261 0.9339 0.7306
C37 C 0.94441(11) 0.95793(7) 0.69060(9)
H19 H 0.9900 0.9336 0.7221
O13 O 0.17149(8) 0.94088(5) 0.72975(6)
O14 O 0.33481(8) 0.95633(5) 0.75873(6)
S2_2 S 0.35800(3) 0.227970(18) 0.40795(2)
O1_2 O 0.30348(8) 0.56237(5) 0.11092(6)
O2_2 O 0.14081(8) 0.57804(4) 0.07778(6)
O5_2 O 0.32491(8) 0.41977(4) 0.23580(6)
O6_2 O 0.16220(8) 0.43701(5) 0.20555(6)
O11_2 O 0.40821(9) 0.25887(6) 0.47170(8)
O12_2 O 0.41830(9) 0.19616(6) 0.36940(8)
C1_2 C 0.22919(11) 0.58954(6) 0.07731(8)
C2_2 C 0.24836(11) 0.64003(6) 0.03318(8)
H1_2 H 0.1043 0.6672 0.0021
C4_2 C 0.34376(11) 0.65160(7) 0.02594(9)
H2_2 H 0.3963 0.6275 0.0502
C15_2 C 0.23627(11) 0.40791(6) 0.23546(8)
C16_2 C 0.21675(11) 0.35388(6) 0.27426(8)
C17_2 C 0.29578(11) 0.32203(7) 0.31458(8)
H7_2 H 0.3623 0.3332 0.3175
C18_2 C 0.11978(11) 0.33574(7) 0.26896(8)
H8_2 H 0.0671 0.3573 0.2401
C19_2 C 0.27309(11) 0.27374(7) 0.34998(8)
C20_2 C 0.09846(11) 0.28700(7) 0.30472(9)
H9_2 H 0.0320 0.2751 0.3006
C21_2 C 0.17612(11) 0.25586(6) 0.34679(8)
C22_2 C 0.17004(11) 0.20448(6) 0.39177(8)
C23_2 C 0.26276(11) 0.18454(7) 0.42783(8)
C24_2 C 0.08595(11) 0.17748(6) 0.40355(8)
H10_2 H 0.0220 0.1898 0.3787
C25_2 C 0.27575(11) 0.13957(6) 0.47662(8)
H11_2 H 0.3399 0.1269 0.5006
C26_2 C 0.09758(10) 0.13184(6) 0.45281(8)
H12_2 H 0.0407 0.1130 0.4615
C27_2 C 0.19078(10) 0.11330(6) 0.48953(7)
C28_2 C 0.20116(11) 0.06779(6) 0.54735(8)
N1_2 N 0.48262(9) 0.49320(5) 0.17321(7)
N2_2 N 0.97734(8) 0.50944(5) 0.14232(6)
C29_2 C 0.53148(11) 0.54340(7) 0.18436(9)
H13_2 H 0.4983 0.5762 0.1972
C30_2 C 0.52957(11) 0.44728(7) 0.15475(9)
H14_2 H 0.4956 0.4115 0.1472
C31_2 C 0.62808(11) 0.54932(7) 0.17793(9)
H15_2 H 0.6608 0.5854 0.1868
C32_2 C 0.62549(11) 0.44987(7) 0.14632(10)
H16_2 H 0.6563 0.4165 0.1324
C33_2 C 0.67661(11) 0.50178(7) 0.15838(8)
C34_2 C 0.78072(10) 0.50552(6) 0.15194(8)
C35_2 C 0.84711(11) 0.54177(7) 0.19650(9)
H17_2 H 0.8261 0.5661 0.2306
C36_2 C 0.81460(11) 0.47240(7) 0.10064(9)
H18_2 H 0.7706 0.4479 0.0683
C37_2 C 0.94441(11) 0.54207(7) 0.19060(9)
H19_2 H 0.9900 0.5664 0.2221
C38_2 C 0.91265(11) 0.47580(7) 0.09767(8)
H20_2 H 0.9351 0.4534 0.0625
S1_2 S 0.10645(3) 0.770545(19) 0.90878(3)
O9_2 O 0.04010(10) 0.74245(7) 0.85062(9)
O10_2 O 0.06437(12) 0.80561(7) 0.95618(11)
C3_2 C 0.17013(11) 0.67486(6) 0.99836(8)
C5_2 C 0.19184(11) 0.72068(6) 0.95843(8)
C6_2 C 0.36479(12) 0.69736(7) 0.98428(10)
H3_2 H 0.4301 0.7039 0.9785
C7_2 C 0.28752(11) 0.73316(7) 0.95138(9)
C8_2 C 0.29215(12) 0.78475(7) 0.90696(10)
C9_2 C 0.19949(11) 0.80857(7) 0.87829(10)
C10_2 C 0.37522(13) 0.81090(9) 0.89219(12)
H4_2 H 0.4392 0.7959 0.9121
C11_2 C 0.18597(11) 0.85567(7) 0.83278(9)
H5_2 H 0.1218 0.8703 0.8126
C12_2 C 0.36356(12) 0.85939(8) 0.84783(11)
H6_2 H 0.4202 0.8779 0.8383
C13_2 C 0.26980(11) 0.88121(7) 0.81718(9)
C14_2 C 0.25775(11) 0.93030(6) 0.76445(8)
N3 N 0.02266(8) 0.49056(5) 0.85768(6)
Zn6_2 Zn 0.878101(11) 0.009078(7) 0.359524(8)
S1_3 S 0.89355(3) 0.229455(19) 0.09122(3)
O3_2 O 0.82851(8) 0.05912(5) 0.27025(6)
O4_2 O 0.66519(8) 0.04367(5) 0.24127(6)
O9_3 O 0.95990(10) 0.25755(7) 0.14938(9)
O10_3 O 0.93563(12) 0.19439(7) 0.04382(11)
C3_3 C 0.82987(11) 0.32514(6) 0.00164(8)
C5_3 C 0.80816(11) 0.27932(6) 0.04157(8)
C6_3 C 0.63521(12) 0.30264(7) 0.01572(10)
H3_3 H 0.5699 0.2961 0.0215
C7_3 C 0.71248(11) 0.26684(7) 0.04862(9)
C8_3 C 0.70785(12) 0.21525(7) 0.09304(10)
C9_3 C 0.80051(11) 0.19143(7) 0.12171(10)
C10_3 C 0.62478(13) 0.18910(9) 0.10781(12)
H4_3 H 0.5608 0.2041 0.0879
C11_3 C 0.81403(11) 0.14433(7) 0.16722(9)
H5_3 H 0.8782 0.1297 0.1874
C12_3 C 0.63644(12) 0.14061(8) 0.15217(11)
H6_3 H 0.5798 0.1221 0.1617
C13_3 C 0.73020(11) 0.11879(7) 0.18282(9)
C14_3 C 0.74225(11) 0.06970(6) 0.23555(8)
Zn1_2 Zn 0.661339(11) 0.510065(7) 0.825034(8)
Zn2 Zn 0.878101(11) 0.490922(7) 0.859524(8)
S2_3 S 0.64200(3) 0.772030(18) 0.59205(2)
O1_3 O 0.69652(8) 0.43763(5) 0.88908(6)
O2_3 O 0.85919(8) 0.42196(4) 0.92222(6)
O5_3 O 0.67509(8) 0.58023(4) 0.76420(6)
O6_3 O 0.83780(8) 0.56299(5) 0.79445(6)
O7_2 O 0.87714(8) 0.95626(4) 0.44471(5)
O8_2 O 0.71289(8) 0.94157(5) 0.41571(6)
O11_3 O 0.59179(9) 0.74113(6) 0.52830(8)
O12_3 O 0.58170(9) 0.80384(6) 0.63060(8)
C1_3 C 0.77081(11) 0.41046(6) 0.92269(8)
C2_3 C 0.75164(11) 0.35997(6) 0.96682(8)
H1_3 H 0.8957 0.3328 0.9979
C4_3 C 0.65624(11) 0.34840(7) 0.97406(9)
H2_3 H 0.6037 0.3725 0.9498
C15_3 C 0.76373(11) 0.59209(6) 0.76454(8)
C16_3 C 0.78325(11) 0.64612(6) 0.72574(8)
C17_3 C 0.70422(11) 0.67797(7) 0.68542(8)
H7_3 H 0.6377 0.6668 0.6825
C18_3 C 0.88022(11) 0.66426(7) 0.73104(8)
H8_3 H 0.9329 0.6427 0.7599
C19_3 C 0.72691(11) 0.72626(7) 0.65002(8)
C20_3 C 0.90154(11) 0.71300(7) 0.69528(9)
H9_3 H 0.9680 0.7249 0.6994
C21_3 C 0.82388(11) 0.74414(6) 0.65321(8)
C22_3 C 0.82996(11) 0.79552(6) 0.60823(8)
C23_3 C 0.73724(11) 0.81546(7) 0.57217(8)
C24_3 C 0.91405(11) 0.82252(6) 0.59645(8)
H10_3 H 0.9780 0.8102 0.6213
C25_3 C 0.72425(11) 0.86043(6) 0.52338(8)
H11_3 H 0.6601 0.8731 0.4994
C26_3 C 0.90242(10) 0.86816(6) 0.54719(8)
H12_3 H 0.9593 0.8870 0.5385
C27_3 C 0.80922(10) 0.88670(6) 0.51047(7)
C28_3 C 0.79884(11) 0.93221(6) 0.45265(8)
N1_3 N 0.51738(9) 0.50680(5) 0.82679(7)
C29_3 C 0.46852(11) 0.45660(7) 0.81564(9)
H13_3 H 0.5017 0.4238 0.8028
C30_3 C 0.47043(11) 0.55272(7) 0.84525(9)
H14_3 H 0.5044 0.5885 0.8528
C31_3 C 0.37192(11) 0.45068(7) 0.82207(9)
H15_3 H 0.3392 0.4146 0.8132
C32_3 C 0.37451(11) 0.55013(7) 0.85368(10)
H16_3 H 0.3437 0.5835 0.8676
C33_3 C 0.32339(11) 0.49822(7) 0.84162(8)
C34_3 C 0.21928(10) 0.49448(6) 0.84806(8)
C35_3 C 0.15289(11) 0.45823(7) 0.80350(9)
H17_3 H 0.1739 0.4339 0.7694
C36_3 C 0.18540(11) 0.52760(7) 0.89936(9)
H18_3 H 0.2294 0.5521 0.9317
C37_3 C 0.05559(11) 0.45793(7) 0.80940(9)
H19_3 H 0.0100 0.4336 0.7779
C38_3 C 0.08735(11) 0.52420(7) 0.90233(8)
H20_3 H 0.0649 0.5466 0.9375
Zn4_2 Zn 0.661339(11) 0.989935(7) 0.325034(8)
O13_2 O 0.82851(8) 0.44088(5) 0.77025(6)
O14_2 O 0.66519(8) 0.45633(5) 0.74127(6)
O15_2 O 0.87714(8) 0.54374(4) 0.94471(5)
O16_2 O 0.71289(8) 0.55843(5) 0.91571(6)
N3_2 N 0.02266(8) 0.00944(5) 0.35768(6)
S1_4 S 0.89355(3) 0.270545(19) 0.59122(3)
O1_4 O 0.69652(8) 0.06237(5) 0.38908(6)
O2_4 O 0.85919(8) 0.07804(4) 0.42222(6)
O9_4 O 0.95990(10) 0.24245(7) 0.64938(9)
O10_4 O 0.93563(12) 0.30561(7) 0.54382(11)
C1_4 C 0.77081(11) 0.08954(6) 0.42269(8)
C2_4 C 0.75164(11) 0.14003(6) 0.46682(8)
C3_4 C 0.82987(11) 0.17486(6) 0.50164(8)
H1_4 H 0.8957 0.1672 0.4979
C4_4 C 0.65624(11) 0.15160(7) 0.47406(9)
H2_4 H 0.6037 0.1275 0.4498
C5_4 C 0.80816(11) 0.22068(6) 0.54157(8)
C6_4 C 0.63521(12) 0.19736(7) 0.51572(10)
H3_4 H 0.5699 0.2039 0.5215
C7_4 C 0.71248(11) 0.23316(7) 0.54862(9)
C8_4 C 0.70785(12) 0.28475(7) 0.59304(10)
C9_4 C 0.80051(11) 0.30857(7) 0.62171(10)
C10_4 C 0.62478(13) 0.31090(9) 0.60781(12)
H4_4 H 0.5608 0.2959 0.5879
C11_4 C 0.81403(11) 0.35567(7) 0.66722(9)
H5_4 H 0.8782 0.3703 0.6874
C12_4 C 0.63644(12) 0.35939(8) 0.65217(11)
H6_4 H 0.5798 0.3779 0.6617
C13_4 C 0.73020(11) 0.38121(7) 0.68282(9)
C14_4 C 0.74225(11) 0.43030(6) 0.73555(8)
C29_4 C 0.46852(11) 0.04340(7) 0.31564(9)
H13_4 H 0.5017 0.0762 0.3028
C31_4 C 0.37192(11) 0.04932(7) 0.32207(9)
H15_4 H 0.3392 0.0854 0.3132
C33_4 C 0.32339(11) 0.00178(7) 0.34162(8)
C34_4 C 0.21928(10) 0.00552(6) 0.34806(8)
C35_4 C 0.15289(11) 0.04177(7) 0.30350(9)
H17_4 H 0.1739 0.0661 0.2694
C37_4 C 0.05559(11) 0.04207(7) 0.30940(9)
H19_4 H 0.0100 0.0664 0.2779
S2_4 S 0.64200(3) 0.727970(18) 0.09205(2)
O5_4 O 0.67509(8) 0.91977(4) 0.26420(6)
O6_4 O 0.83780(8) 0.93701(5) 0.29445(6)
O11_4 O 0.59179(9) 0.75887(6) 0.02830(8)
O12_4 O 0.58170(9) 0.69616(6) 0.13060(8)
C15_4 C 0.76373(11) 0.90791(6) 0.26454(8)
C16_4 C 0.78325(11) 0.85388(6) 0.22574(8)
C17_4 C 0.70422(11) 0.82203(7) 0.18542(8)
H7_4 H 0.6377 0.8332 0.1825
C18_4 C 0.88022(11) 0.83574(7) 0.23104(8)
H8_4 H 0.9329 0.8573 0.2599
C19_4 C 0.72691(11) 0.77374(7) 0.15002(8)
C20_4 C 0.90154(11) 0.78700(7) 0.19528(9)
H9_4 H 0.9680 0.7751 0.1994
C21_4 C 0.82388(11) 0.75586(6) 0.15321(8)
C22_4 C 0.82996(11) 0.70448(6) 0.10823(8)
C23_4 C 0.73724(11) 0.68454(7) 0.07217(8)
C24_4 C 0.91405(11) 0.67748(6) 0.09645(8)
H10_4 H 0.9780 0.6898 0.1213
C25_4 C 0.72425(11) 0.63957(6) 0.02338(8)
C26_4 C 0.90242(10) 0.63184(6) 0.04719(8)
H12_4 H 0.9593 0.6130 0.0385
C27_4 C 0.80922(10) 0.61330(6) 0.01047(7)
N1_4 N 0.51738(9) 0.99320(5) 0.32679(7)
C30_4 C 0.47043(11) 0.94728(7) 0.34525(9)
H14_4 H 0.5044 0.9115 0.3528
C32_4 C 0.37451(11) 0.94987(7) 0.35368(10)
H16_4 H 0.3437 0.9165 0.3676
C36_4 C 0.18540(11) 0.97240(7) 0.39936(9)
H18_4 H 0.2294 0.9479 0.4317
C38_4 C 0.08735(11) 0.97580(7) 0.40233(8)
H20_4 H 0.0649 0.9534 0.4375
H11_4 H 0.6601 0.6269 0.9994
C28_4 C 0.79884(11) 0.56779(6) 0.95265(8)
loop_
_geom_bond_atom_site_label_1
_geom_bond_atom_site_label_2
_geom_bond_site_symmetry_1
_geom_bond_site_symmetry_2
O7 C28 1_555 1_555
O8 C28 1_555 1_555
Zn4 O8 1_555 1_555
Zn6 O7 1_555 1_555
S2 O11 1_555 1_555
O5 Zn1 1_555 1_555
O12 S2 1_555 1_555
C15 O5 1_555 1_555
C16 C15 1_555 1_555
C17 C16 1_555 1_555
H7 C17 1_555 1_555
C18 C16 1_555 1_555
H8 C18 1_555 1_555
C19 S2 1_555 1_555
C20 C18 1_555 1_555
H9 C20 1_555 1_555
C21 C19 1_555 1_555
C22 C21 1_555 1_555
C23 S2 1_555 1_555
C24 C22 1_555 1_555
H10 C24 1_555 1_555
C25 C23 1_555 1_555
C26 C24 1_555 1_555
H12 C26 1_555 1_555
C27 C25 1_555 1_555
N1 Zn1 1_555 1_555
C30 N1 1_555 1_555
H14 C30 1_555 1_555
C32 C30 1_555 1_555
H16 C32 1_555 1_555
H18 C36 1_555 1_555
H20 C38 1_555 1_555
O16 Zn1 1_555 1_555
O6 C15 1_555 1_555
C17 C19 1_555 1_555
C20 C21 1_555 1_555
C22 C23 1_555 1_555
C26 C27 1_555 1_555
C36 C38 1_555 1_555
Zn7 O2 1_555 1_555
S1 O9 1_555 1_555
O1 C1 1_555 1_555
O2 C1 1_555 1_555
O3 C14 1_555 1_555
O4 C14 1_555 1_555
O10 S1 1_555 1_555
C1 C2 1_555 1_555
C2 C3 1_555 1_555
C3 H1 1_555 1_555
C4 C2 1_555 1_555
H2 C4 1_555 1_555
C5 S1 1_555 1_555
C6 C4 1_555 1_555
H3 C6 1_555 1_555
C7 C5 1_555 1_555
C8 C7 1_555 1_555
C9 S1 1_555 1_555
C10 C8 1_555 1_555
H4 C10 1_555 1_555
C11 C9 1_555 1_555
H5 C11 1_555 1_555
C12 C10 1_555 1_555
H6 C12 1_555 1_555
C13 C11 1_555 1_555
C14 C13 1_555 1_555
N2 C37 1_555 1_555
H13 C29 1_555 1_555
C31 C29 1_555 1_555
H15 C31 1_555 1_555
C33 C31 1_555 1_555
C34 C33 1_555 1_555
C35 C34 1_555 1_555
H17 C35 1_555 1_555
C37 C35 1_555 1_555
H19 C37 1_555 1_555
Zn4 O4 1_555 1_555
Zn6 O3 1_555 1_555
O13 Zn7 1_555 1_555
C3 C5 1_555 1_555
C6 C7 1_555 1_555
C8 C9 1_555 1_555
C12 C13 1_555 1_555
Zn4 O1_2 1_555 1_555
Zn6 O2_2 1_555 1_555
S2_2 O11_2 1_555 1_555
O1_2 C1_2 1_555 1_555
O2_2 C1_2 1_555 1_555
O5_2 Zn4 1_555 1_555
O6_2 Zn6 1_555 1_555
O15 C28_2 1_555 1_555
O16 C28_2 1_555 1_555
O12_2 S2_2 1_555 1_555
C1_2 C2_2 1_555 1_555
C4_2 C2_2 1_555 1_555
H2_2 C4_2 1_555 1_555
C15_2 O5_2 1_555 1_555
C16_2 C15_2 1_555 1_555
C17_2 C16_2 1_555 1_555
H7_2 C17_2 1_555 1_555
C18_2 C16_2 1_555 1_555
H8_2 C18_2 1_555 1_555
C19_2 S2_2 1_555 1_555
C20_2 C18_2 1_555 1_555
H9_2 C20_2 1_555 1_555
C21_2 C19_2 1_555 1_555
C22_2 C21_2 1_555 1_555
C23_2 S2_2 1_555 1_555
C24_2 C22_2 1_555 1_555
H10_2 C24_2 1_555 1_555
C25_2 C23_2 1_555 1_555
H11_2 C25_2 1_555 1_555
C26_2 C24_2 1_555 1_555
H12_2 C26_2 1_555 1_555
C27_2 C25_2 1_555 1_555
C28_2 C27_2 1_555 1_555
N1_2 Zn4 1_555 1_555
N2_2 C37_2 1_555 1_555
C29_2 N1_2 1_555 1_555
H13_2 C29_2 1_555 1_555
C30_2 N1_2 1_555 1_555
H14_2 C30_2 1_555 1_555
C31_2 C29_2 1_555 1_555
H15_2 C31_2 1_555 1_555
C32_2 C30_2 1_555 1_555
H16_2 C32_2 1_555 1_555
C33_2 C31_2 1_555 1_555
C34_2 C33_2 1_555 1_555
C35_2 C34_2 1_555 1_555
H17_2 C35_2 1_555 1_555
C36_2 C34_2 1_555 1_555
H18_2 C36_2 1_555 1_555
C37_2 C35_2 1_555 1_555
H19_2 C37_2 1_555 1_555
C38_2 N2_2 1_555 1_555
H20_2 C38_2 1_555 1_555
O6_2 C15_2 1_555 1_555
C17_2 C19_2 1_555 1_555
C20_2 C21_2 1_555 1_555
C22_2 C23_2 1_555 1_555
C26_2 C27_2 1_555 1_555
C32_2 C33_2 1_555 1_555
C36_2 C38_2 1_555 1_555
S1_2 O9_2 1_555 1_555
O13 C14_2 1_555 1_555
O14 C14_2 1_555 1_555
O10_2 S1_2 1_555 1_555
C5_2 S1_2 1_555 1_555
H3_2 C6_2 1_555 1_555
C7_2 C5_2 1_555 1_555
C8_2 C7_2 1_555 1_555
C9_2 S1_2 1_555 1_555
C10_2 C8_2 1_555 1_555
H4_2 C10_2 1_555 1_555
C11_2 C9_2 1_555 1_555
H5_2 C11_2 1_555 1_555
C12_2 C10_2 1_555 1_555
H6_2 C12_2 1_555 1_555
C13_2 C11_2 1_555 1_555
C14_2 C13_2 1_555 1_555
C3_2 C5_2 1_555 1_555
C6_2 C7_2 1_555 1_555
C8_2 C9_2 1_555 1_555
C12_2 C13_2 1_555 1_555
S1_3 O9_3 1_555 1_555
O3_2 C14_3 1_555 1_555
O4_2 C14_3 1_555 1_555
O10_3 S1_3 1_555 1_555
C5_3 S1_3 1_555 1_555
H3_3 C6_3 1_555 1_555
C7_3 C5_3 1_555 1_555
C8_3 C7_3 1_555 1_555
C9_3 S1_3 1_555 1_555
C10_3 C8_3 1_555 1_555
H4_3 C10_3 1_555 1_555
C11_3 C9_3 1_555 1_555
H5_3 C11_3 1_555 1_555
C12_3 C10_3 1_555 1_555
H6_3 C12_3 1_555 1_555
C13_3 C11_3 1_555 1_555
C14_3 C13_3 1_555 1_555
Zn6_2 O3_2 1_555 1_555
C3_3 C5_3 1_555 1_555
C6_3 C7_3 1_555 1_555
C8_3 C9_3 1_555 1_555
C12_3 C13_3 1_555 1_555
Zn1_2 O1_3 1_555 1_555
Zn2 O2_3 1_555 1_555
S2_3 O11_3 1_555 1_555
O1_3 C1_3 1_555 1_555
O2_3 C1_3 1_555 1_555
O5_3 Zn1_2 1_555 1_555
O6_3 Zn2 1_555 1_555
O7_2 C28_3 1_555 1_555
O8_2 C28_3 1_555 1_555
O12_3 S2_3 1_555 1_555
C1_3 C2_3 1_555 1_555
C4_3 C2_3 1_555 1_555
H2_3 C4_3 1_555 1_555
C15_3 O5_3 1_555 1_555
C16_3 C15_3 1_555 1_555
C17_3 C16_3 1_555 1_555
H7_3 C17_3 1_555 1_555
C18_3 C16_3 1_555 1_555
H8_3 C18_3 1_555 1_555
C19_3 S2_3 1_555 1_555
C20_3 C18_3 1_555 1_555
H9_3 C20_3 1_555 1_555
C21_3 C19_3 1_555 1_555
C22_3 C21_3 1_555 1_555
C23_3 S2_3 1_555 1_555
C24_3 C22_3 1_555 1_555
H10_3 C24_3 1_555 1_555
C25_3 C23_3 1_555 1_555
H11_3 C25_3 1_555 1_555
C26_3 C24_3 1_555 1_555
H12_3 C26_3 1_555 1_555
C27_3 C25_3 1_555 1_555
C28_3 C27_3 1_555 1_555
N1_3 Zn1_2 1_555 1_555
N3 C37_3 1_555 1_555
C29_3 N1_3 1_555 1_555
H13_3 C29_3 1_555 1_555
C30_3 N1_3 1_555 1_555
H14_3 C30_3 1_555 1_555
C31_3 C29_3 1_555 1_555
H15_3 C31_3 1_555 1_555
C32_3 C30_3 1_555 1_555
H16_3 C32_3 1_555 1_555
C33_3 C31_3 1_555 1_555
C34_3 C33_3 1_555 1_555
C35_3 C34_3 1_555 1_555
H17_3 C35_3 1_555 1_555
C36_3 C34_3 1_555 1_555
H18_3 C36_3 1_555 1_555
C37_3 C35_3 1_555 1_555
H19_3 C37_3 1_555 1_555
C38_3 N3 1_555 1_555
H20_3 C38_3 1_555 1_555
Zn4_2 O8_2 1_555 1_555
O13_2 Zn2 1_555 1_555
O14_2 Zn1_2 1_555 1_555
O15_2 Zn2 1_555 1_555
O16_2 Zn1_2 1_555 1_555
O6_3 C15_3 1_555 1_555
C17_3 C19_3 1_555 1_555
C20_3 C21_3 1_555 1_555
C22_3 C23_3 1_555 1_555
C26_3 C27_3 1_555 1_555
C32_3 C33_3 1_555 1_555
C36_3 C38_3 1_555 1_555
Zn6_2 O2_4 1_555 1_555
S1_4 O9_4 1_555 1_555
O1_4 C1_4 1_555 1_555
O2_4 C1_4 1_555 1_555
O13_2 C14_4 1_555 1_555
O14_2 C14_4 1_555 1_555
O10_4 S1_4 1_555 1_555
C1_4 C2_4 1_555 1_555
C2_4 C3_4 1_555 1_555
C3_4 H1_4 1_555 1_555
C4_4 C2_4 1_555 1_555
H2_4 C4_4 1_555 1_555
C5_4 S1_4 1_555 1_555
C6_4 C4_4 1_555 1_555
H3_4 C6_4 1_555 1_555
C7_4 C5_4 1_555 1_555
C8_4 C7_4 1_555 1_555
C9_4 S1_4 1_555 1_555
C10_4 C8_4 1_555 1_555
H4_4 C10_4 1_555 1_555
C11_4 C9_4 1_555 1_555
H5_4 C11_4 1_555 1_555
C12_4 C10_4 1_555 1_555
H6_4 C12_4 1_555 1_555
C13_4 C11_4 1_555 1_555
C14_4 C13_4 1_555 1_555
N3_2 C37_4 1_555 1_555
H13_4 C29_4 1_555 1_555
C31_4 C29_4 1_555 1_555
H15_4 C31_4 1_555 1_555
C33_4 C31_4 1_555 1_555
C34_4 C33_4 1_555 1_555
C35_4 C34_4 1_555 1_555
H17_4 C35_4 1_555 1_555
C37_4 C35_4 1_555 1_555
H19_4 C37_4 1_555 1_555
C3_4 C5_4 1_555 1_555
C6_4 C7_4 1_555 1_555
C8_4 C9_4 1_555 1_555
C12_4 C13_4 1_555 1_555
S2_4 O11_4 1_555 1_555
O5_4 Zn4_2 1_555 1_555
O12_4 S2_4 1_555 1_555
C15_4 O5_4 1_555 1_555
C16_4 C15_4 1_555 1_555
C17_4 C16_4 1_555 1_555
H7_4 C17_4 1_555 1_555
C18_4 C16_4 1_555 1_555
H8_4 C18_4 1_555 1_555
C19_4 S2_4 1_555 1_555
C20_4 C18_4 1_555 1_555
H9_4 C20_4 1_555 1_555
C21_4 C19_4 1_555 1_555
C22_4 C21_4 1_555 1_555
C23_4 S2_4 1_555 1_555
C24_4 C22_4 1_555 1_555
H10_4 C24_4 1_555 1_555
C25_4 C23_4 1_555 1_555
C26_4 C24_4 1_555 1_555
H12_4 C26_4 1_555 1_555
C27_4 C25_4 1_555 1_555
N1_4 Zn4_2 1_555 1_555
C30_4 N1_4 1_555 1_555
H14_4 C30_4 1_555 1_555
C32_4 C30_4 1_555 1_555
H16_4 C32_4 1_555 1_555
H18_4 C36_4 1_555 1_555
H20_4 C38_4 1_555 1_555
O6_4 C15_4 1_555 1_555
C17_4 C19_4 1_555 1_555
C20_4 C21_4 1_555 1_555
C22_4 C23_4 1_555 1_555
C26_4 C27_4 1_555 1_555
C36_4 C38_4 1_555 1_555
O15_2 C28_4 1_555 1_555
O16_2 C28_4 1_555 1_555

#END
