
###############################################################################
#
# This file contains modified crystal structure data generated from the
# MOF subset of the Cambridge Structural Database (CSD) v543 
# hosted by the Cambridge Crystallographic Data Centre (CCDC).
#
# This work is licensed under the Creative Commons
# Attribution-NonCommercial-ShareAlike 4.0 International License.
# To view a copy of this license, visit
# http://creativecommons.org/licenses/by-nc-sa/4.0/
# or send a letter to
# Creative Commons, PO Box 1866, Mountain View, CA 94042, USA.
#
# CIF created using the CSD Python API on 29 September 2022
# The structure has been converted into the P1 space group
# The structure has a 3D framework
# The original CSD entry EMOHEV is in the monoclinic crystal system
# The framework has been calculated to contain at least 10.0% void space
# The void calculation uses a probe of radius 1.32A, grid spacing 0.4
#
###############################################################################

data_EMOHEV
_chemical_formula_moiety         '(C80 H60 N8 O20 Zn4)n'
_symmetry_cell_setting           triclinic
_symmetry_space_group_name_H-M   'P 1'
_symmetry_Int_Tables_number      1
_space_group_name_Hall           'P 1'
loop_
_symmetry_equiv_pos_site_id
_symmetry_equiv_pos_as_xyz
1 x,y,z
_cell_length_a                   7.4085(10)
_cell_length_b                   15.002(2)
_cell_length_c                   17.9311(19)
_cell_angle_alpha                90
_cell_angle_beta                 107.583(5)
_cell_angle_gamma                90
_cell_volume                     1899.8
loop_
_atom_site_label
_atom_site_type_symbol
_atom_site_fract_x
_atom_site_fract_y
_atom_site_fract_z
N3 N 0.3221(5) 0.2674(3) 0.7868(2)
C36 C 0.0369(7) 0.2117(4) 0.8058(3)
C37 C 0.1241(8) 0.1653(3) 0.6956(3)
H28 H 0.1028 0.1324 0.6497
C39 C 0.1985(7) 0.2636(4) 0.8273(3)
H29 H 0.2223 0.2977 0.8726
C40 C 0.2803(7) 0.2187(3) 0.7202(3)
H30 H 0.3618 0.2217 0.6897
Zn6 Zn 0.56563(7) 0.34514(4) 0.82022(3)
Zn1 Zn 0.56563(7) 0.15486(4) 0.32022(3)
O1 O 0.8451(6) 0.0686(3) 0.2670(3)
O2 O 0.6323(5) 0.1736(2) 0.2240(2)
N2 N 0.4503(5) 0.0310(3) 0.3203(2)
C1 C 0.3561(8) 0.0090(4) 0.3703(3)
H1 H 0.3836 0.0398 0.4175
C11 C 0.7684(6) 0.1255(3) 0.2186(3)
C12 C 0.8358(6) 0.1425(3) 0.1487(2)
C13 C 0.9915(6) 0.0957(3) 0.1424(3)
C15 C 0.9672(7) 0.1690(3) 0.0210(3)
C16 C 0.8090(6) 0.2153(3) 0.0277(2)
C17 C 0.7441(6) 0.2022(3) 0.0910(2)
H11 H 0.6389 0.2333 0.0951
O12 O 0.7483(6) 0.2238(3) 0.4012(2)
N5 N 0.3221(5) 0.2326(3) 0.2868(2)
O3 O 0.5687(6) 0.3214(3) 0.9695(2)
O4 O 0.7483(6) 0.2762(3) 0.9012(2)
C18 C 0.6990(7) 0.2767(3) 0.9621(3)
C6 C 0.0369(7) 0.2883(4) 0.3058(3)
C7 C 0.1241(8) 0.3347(3) 0.1956(3)
H6 H 0.1028 0.3676 0.1497
C9 C 0.1985(7) 0.2364(4) 0.3273(3)
H7 H 0.2223 0.2023 0.3726
C10 C 0.2803(7) 0.2813(3) 0.2202(3)
H8 H 0.3618 0.2783 0.1897
O6 O 0.8451(6) 0.4314(3) 0.7670(3)
O7 O 0.6323(5) 0.3264(2) 0.7240(2)
O8 O 0.5687(6) 0.1786(3) 0.4695(2)
C21 C 0.7684(6) 0.3745(3) 0.7186(3)
C22 C 0.8358(6) 0.3575(3) 0.6487(2)
C23 C 0.9915(6) 0.4043(3) 0.6424(3)
C25 C 0.9672(7) 0.3310(3) 0.5210(3)
C26 C 0.8090(6) 0.2847(3) 0.5277(2)
C27 C 0.7441(6) 0.2978(3) 0.5910(2)
H18 H 0.6389 0.2667 0.5951
C28 C 0.6990(7) 0.2233(3) 0.4621(3)
N4 N 0.4503(5) 0.4690(3) 0.8203(2)
C31 C 0.3561(8) 0.4910(4) 0.8703(3)
H23 H 0.3836 0.4602 0.9175
C32 C 0.4175(7) 0.5192(3) 0.7561(3)
H24 H 0.4900 0.5092 0.7227
C33 C 0.2819(7) 0.5847(3) 0.7369(3)
H25 H 0.2651 0.6182 0.6916
C34 C 0.1701(6) 0.6010(3) 0.7851(3)
C35 C 0.2220(8) 0.5559(4) 0.8562(3)
H26 H 0.1648 0.5702 0.8942
H27 H 0.0452 0.7114 0.6639
C38 C 0.0018(6) 0.6598(3) 0.7618(3)
C32_2 C 0.5825(7) 0.0192(3) 0.7439(3)
H24_2 H 0.5100 0.0092 0.7773
C33_2 C 0.7181(7) 0.0847(3) 0.7631(3)
H25_2 H 0.7349 0.1182 0.8084
C34_2 C 0.8299(6) 0.1010(3) 0.7149(3)
C35_2 C 0.7780(8) 0.0559(4) 0.6438(3)
H26_2 H 0.8352 0.0702 0.6058
H27_2 H 0.9548 0.2114 0.8361
C38_2 C 0.9982(6) 0.1598(3) 0.7382(3)
O8_2 O 0.4313(6) 0.6786(3) 0.0305(2)
O9 O 0.2517(6) 0.7238(3) 0.0988(2)
C28_2 C 0.3010(7) 0.7233(3) 0.0379(3)
Zn4 Zn 0.43437(7) 0.65486(4) 0.17978(3)
O6_2 O 0.1549(6) 0.9314(3) 0.7330(3)
O7_2 O 0.3677(5) 0.8264(2) 0.7760(2)
C21_2 C 0.2316(6) 0.8745(3) 0.7814(3)
C22_2 C 0.1642(6) 0.8575(3) 0.8513(2)
C23_2 C 0.0085(6) 0.9043(3) 0.8576(3)
C25_2 C 0.0328(7) 0.8310(3) 0.9790(3)
C26_2 C 0.1910(6) 0.7847(3) 0.9723(2)
C27_2 C 0.2559(6) 0.7978(3) 0.9090(2)
H18_2 H 0.3611 0.7667 0.9049
Zn2 Zn 0.43437(7) 0.84514(4) 0.67978(3)
N4_2 N 0.5497(5) 0.9690(3) 0.6797(2)
C31_2 C 0.6439(8) 0.9910(4) 0.6297(3)
H23_2 H 0.6164 0.9602 0.5825
O11 O 0.2517(6) 0.7762(3) 0.5988(2)
N6 N 0.6779(5) 0.7674(3) 0.7132(2)
N1 N 0.6779(5) 0.7326(3) 0.2132(2)
C6_2 C 0.9631(7) 0.7883(4) 0.1942(3)
C7_2 C 0.8759(8) 0.8347(3) 0.3044(3)
H6_2 H 0.8972 0.8676 0.3503
C9_2 C 0.8015(7) 0.7364(4) 0.1727(3)
H7_2 H 0.7777 0.7023 0.1274
C10_2 C 0.7197(7) 0.7813(3) 0.2798(3)
H8_2 H 0.6382 0.7783 0.3103
O1_2 O 0.1549(6) 0.5686(3) 0.2330(3)
O2_2 O 0.3677(5) 0.6736(2) 0.2760(2)
O3_2 O 0.4313(6) 0.8214(3) 0.5305(2)
N2_2 N 0.5497(5) 0.5310(3) 0.1797(2)
C1_2 C 0.6439(8) 0.5090(4) 0.1297(3)
H1_2 H 0.6164 0.5398 0.0825
C2 C 0.5825(7) 0.4808(3) 0.2439(3)
H2 H 0.5100 0.4908 0.2773
C3 C 0.7181(7) 0.4153(3) 0.2631(3)
H3 H 0.7349 0.3818 0.3084
C4 C 0.8299(6) 0.3990(3) 0.2149(3)
C5 C 0.7780(8) 0.4441(4) 0.1438(3)
H4 H 0.8352 0.4298 0.1058
H5 H 0.9548 0.2886 0.3361
C8 C 0.9982(6) 0.3402(3) 0.2382(3)
C11_2 C 0.2316(6) 0.6255(3) 0.2814(3)
C12_2 C 0.1642(6) 0.6425(3) 0.3513(2)
C13_2 C 0.0085(6) 0.5957(3) 0.3576(3)
C15_2 C 0.0328(7) 0.6690(3) 0.4790(3)
C16_2 C 0.1910(6) 0.7153(3) 0.4723(2)
C17_2 C 0.2559(6) 0.7022(3) 0.4090(2)
H11_2 H 0.3611 0.7333 0.4049
C18_2 C 0.3010(7) 0.7767(3) 0.5379(3)
C36_2 C 0.9631(7) 0.7117(4) 0.6942(3)
C37_2 C 0.8759(8) 0.6653(3) 0.8044(3)
H28_2 H 0.8972 0.6324 0.8503
C39_2 C 0.8015(7) 0.7636(4) 0.6727(3)
H29_2 H 0.7777 0.7977 0.6274
C40_2 C 0.7197(7) 0.7187(3) 0.7798(3)
H30_2 H 0.6382 0.7217 0.8103
O5 O 0.2110(5) 0.0586(3) 0.0784(2)
H9 H 0.0512 0.0549 0.1809
C14 C 0.0590(6) 0.1091(3) 0.0794(3)
C19 C 0.2915(7) 0.0668(4) 0.0159(3)
H12 H 0.3396 0.1266 0.0142
H15 H 0.5426 0.0129 0.0816
H10 H 0.0105 0.1781 0.9780
H13 H 0.1971 0.0543 0.9662
C30 C 0.5493(6) 0.0002(3) 0.9685(3)
H21 H 0.5996 0.0593 0.9654
C20 C 0.4507(6) 0.9998(3) 0.0315(3)
H14 H 0.4004 0.9407 0.0346
H17 H 0.9895 0.8219 0.0220
H20 H 0.8029 0.9457 0.0338
O10 O 0.7890(5) 0.9414(3) 0.9216(2)
H16 H 0.9488 0.9451 0.8191
C24 C 0.9410(6) 0.8909(3) 0.9206(3)
C29 C 0.7085(7) 0.9332(4) 0.9841(3)
H19 H 0.6604 0.8734 0.9858
H22 H 0.4574 0.9871 0.9184
C2_2 C 0.4175(7) 0.9808(3) 0.2561(3)
H2_2 H 0.4900 0.9908 0.2227
C3_2 C 0.2819(7) 0.9153(3) 0.2369(3)
H3_2 H 0.2651 0.8818 0.1916
C4_2 C 0.1701(6) 0.8990(3) 0.2851(3)
C5_2 C 0.2220(8) 0.9441(4) 0.3562(3)
H4_2 H 0.1648 0.9298 0.3942
H5_2 H 0.0452 0.7886 0.1639
C8_2 C 0.0018(6) 0.8402(3) 0.2618(3)
O5_2 O 0.7890(5) 0.5586(3) 0.4216(2)
H9_2 H 0.9488 0.5549 0.3191
C14_2 C 0.9410(6) 0.6091(3) 0.4206(3)
H10_2 H 0.9895 0.6781 0.5220
C19_2 C 0.7085(7) 0.5668(4) 0.4841(3)
H12_2 H 0.6604 0.6266 0.4858
H13_2 H 0.8029 0.5543 0.5338
C20_2 C 0.5493(6) 0.4998(3) 0.4685(3)
H14_2 H 0.5996 0.4407 0.4654
H15_2 H 0.4574 0.5129 0.4184
O10_2 O 0.2110(5) 0.4414(3) 0.5784(2)
H16_2 H 0.0512 0.4451 0.6809
C24_2 C 0.0590(6) 0.3909(3) 0.5794(3)
H17_2 H 0.0105 0.3219 0.4780
C29_2 C 0.2915(7) 0.4332(4) 0.5159(3)
H19_2 H 0.3396 0.3734 0.5142
H20_2 H 0.1971 0.4457 0.4662
C30_2 C 0.4507(6) 0.5002(3) 0.5315(3)
H21_2 H 0.4004 0.5593 0.5346
H22_2 H 0.5426 0.4871 0.5816
loop_
_geom_bond_atom_site_label_1
_geom_bond_atom_site_label_2
_geom_bond_site_symmetry_1
_geom_bond_site_symmetry_2
N3 C39 1_555 1_555
C37 H28 1_555 1_555
C39 C36 1_555 1_555
H29 C39 1_555 1_555
C40 N3 1_555 1_555
H30 C40 1_555 1_555
Zn6 N3 1_555 1_555
C37 C40 1_555 1_555
Zn1 O2 1_555 1_555
O1 C11 1_555 1_555
O2 C11 1_555 1_555
N2 Zn1 1_555 1_555
C1 N2 1_555 1_555
H1 C1 1_555 1_555
C11 C12 1_555 1_555
C12 C13 1_555 1_555
C16 C15 1_555 1_555
C17 C12 1_555 1_555
H11 C17 1_555 1_555
O12 Zn1 1_555 1_555
N5 Zn1 1_555 1_555
C16 C17 1_555 1_555
O3 C18 1_555 1_555
O4 C18 1_555 1_555
Zn6 O4 1_555 1_555
N5 C9 1_555 1_555
C7 H6 1_555 1_555
C9 C6 1_555 1_555
H7 C9 1_555 1_555
C10 N5 1_555 1_555
H8 C10 1_555 1_555
C7 C10 1_555 1_555
O6 C21 1_555 1_555
O7 C21 1_555 1_555
O8 C28 1_555 1_555
O12 C28 1_555 1_555
C21 C22 1_555 1_555
C22 C23 1_555 1_555
C26 C25 1_555 1_555
C27 C22 1_555 1_555
H18 C27 1_555 1_555
C28 C26 1_555 1_555
Zn6 O7 1_555 1_555
N4 Zn6 1_555 1_555
C31 N4 1_555 1_555
H23 C31 1_555 1_555
C32 N4 1_555 1_555
H24 C32 1_555 1_555
C33 C32 1_555 1_555
H25 C33 1_555 1_555
C34 C33 1_555 1_555
C35 C31 1_555 1_555
H26 C35 1_555 1_555
C38 C34 1_555 1_555
C26 C27 1_555 1_555
C34 C35 1_555 1_555
H24_2 C32_2 1_555 1_555
C33_2 C32_2 1_555 1_555
H25_2 C33_2 1_555 1_555
C34_2 C33_2 1_555 1_555
H26_2 C35_2 1_555 1_555
C38_2 C34_2 1_555 1_555
C34_2 C35_2 1_555 1_555
O8_2 C28_2 1_555 1_555
O9 C28_2 1_555 1_555
Zn4 O9 1_555 1_555
O6_2 C21_2 1_555 1_555
O7_2 C21_2 1_555 1_555
C21_2 C22_2 1_555 1_555
C22_2 C23_2 1_555 1_555
C26_2 C25_2 1_555 1_555
C27_2 C22_2 1_555 1_555
H18_2 C27_2 1_555 1_555
Zn2 O7_2 1_555 1_555
N4_2 Zn2 1_555 1_555
C31_2 N4_2 1_555 1_555
H23_2 C31_2 1_555 1_555
O11 Zn2 1_555 1_555
N6 Zn2 1_555 1_555
C26_2 C27_2 1_555 1_555
N1 C9_2 1_555 1_555
C7_2 H6_2 1_555 1_555
C9_2 C6_2 1_555 1_555
H7_2 C9_2 1_555 1_555
C10_2 N1 1_555 1_555
H8_2 C10_2 1_555 1_555
Zn4 N1 1_555 1_555
C7_2 C10_2 1_555 1_555
Zn4 O2_2 1_555 1_555
O1_2 C11_2 1_555 1_555
O2_2 C11_2 1_555 1_555
O3_2 C18_2 1_555 1_555
O11 C18_2 1_555 1_555
N2_2 Zn4 1_555 1_555
C1_2 N2_2 1_555 1_555
H1_2 C1_2 1_555 1_555
C2 N2_2 1_555 1_555
H2 C2 1_555 1_555
C3 C2 1_555 1_555
H3 C3 1_555 1_555
C4 C3 1_555 1_555
C5 C1_2 1_555 1_555
H4 C5 1_555 1_555
C8 C4 1_555 1_555
C11_2 C12_2 1_555 1_555
C12_2 C13_2 1_555 1_555
C16_2 C15_2 1_555 1_555
C17_2 C12_2 1_555 1_555
H11_2 C17_2 1_555 1_555
C18_2 C16_2 1_555 1_555
C4 C5 1_555 1_555
C16_2 C17_2 1_555 1_555
N6 C39_2 1_555 1_555
C37_2 H28_2 1_555 1_555
C39_2 C36_2 1_555 1_555
H29_2 C39_2 1_555 1_555
C40_2 N6 1_555 1_555
H30_2 C40_2 1_555 1_555
C37_2 C40_2 1_555 1_555
O5 C14 1_555 1_555
C19 O5 1_555 1_555
H12 C19 1_555 1_555
H21 C30 1_555 1_555
H14 C20 1_555 1_555
O10 C24 1_555 1_555
C29 O10 1_555 1_555
H19 C29 1_555 1_555
H2_2 C2_2 1_555 1_555
C3_2 C2_2 1_555 1_555
H3_2 C3_2 1_555 1_555
C4_2 C3_2 1_555 1_555
H4_2 C5_2 1_555 1_555
C8_2 C4_2 1_555 1_555
C4_2 C5_2 1_555 1_555
O5_2 C14_2 1_555 1_555
C19_2 O5_2 1_555 1_555
H12_2 C19_2 1_555 1_555
H13_2 C19_2 1_555 1_555
C20_2 C19_2 1_555 1_555
H14_2 C20_2 1_555 1_555
H15_2 C20_2 1_555 1_555
O10_2 C24_2 1_555 1_555
C29_2 O10_2 1_555 1_555
H19_2 C29_2 1_555 1_555
H20_2 C29_2 1_555 1_555
C30_2 C20_2 1_555 1_555
H21_2 C30_2 1_555 1_555
H22_2 C30_2 1_555 1_555
C29_2 C30_2 1_555 1_555

#END
