
###############################################################################
#
# This file contains modified crystal structure data generated from the
# MOF subset of the Cambridge Structural Database (CSD) v543 
# hosted by the Cambridge Crystallographic Data Centre (CCDC).
#
# This work is licensed under the Creative Commons
# Attribution-NonCommercial-ShareAlike 4.0 International License.
# To view a copy of this license, visit
# http://creativecommons.org/licenses/by-nc-sa/4.0/
# or send a letter to
# Creative Commons, PO Box 1866, Mountain View, CA 94042, USA.
#
# CIF created using the CSD Python API on 29 September 2022
# The structure has been converted into the P1 space group
# The structure has a 3D framework
# The original CSD entry EMOHIZ is in the monoclinic crystal system
# The framework has been calculated to contain at least 10.0% void space
# The void calculation uses a probe of radius 1.32A, grid spacing 0.4
#
###############################################################################

data_EMOHIZ
_chemical_formula_moiety         '(C80 H84 Co4 N16 O20)n'
_symmetry_cell_setting           triclinic
_symmetry_space_group_name_H-M   'P 1'
_symmetry_Int_Tables_number      1
_space_group_name_Hall           'P 1'
loop_
_symmetry_equiv_pos_site_id
_symmetry_equiv_pos_as_xyz
1 x,y,z
_cell_length_a                   8.0319(8)
_cell_length_b                   17.9407(19)
_cell_length_c                   17.9318(17)
_cell_angle_alpha                90
_cell_angle_beta                 108.644(4)
_cell_angle_gamma                90
_cell_volume                     2448.34
loop_
_atom_site_label
_atom_site_type_symbol
_atom_site_fract_x
_atom_site_fract_y
_atom_site_fract_z
Co6 Co 0.12685(7) 0.69002(3) 0.73644(3)
Co1 Co 0.12685(7) 0.80998(3) 0.23644(3)
O1 O 0.3052(5) 0.7494(2) 0.31503(18)
O2 O 0.1037(5) 0.7712(3) 0.3700(2)
O3 O 0.7317(6) 0.5799(3) 0.4906(3)
O4 O 0.2065(4) 0.68454(17) 0.64387(17)
O5 O 0.4411(5) 0.6171(3) 0.7053(2)
N1 N 0.0541(5) 0.9134(2) 0.2573(2)
C1 C 0.3496(6) 0.6973(2) 0.4416(2)
C2 C 0.3005(5) 0.6943(2) 0.5092(2)
H1 H 0.2019 0.7203 0.5114
C3 C 0.3976(5) 0.6530(2) 0.5731(2)
C4 C 0.5452(5) 0.6132(3) 0.5700(3)
H2 H 0.6108 0.5850 0.6129
C5 C 0.5922(6) 0.6166(3) 0.5014(3)
C6 C 0.4976(6) 0.6587(3) 0.4388(3)
H3 H 0.5323 0.6615 0.3941
C7 C 0.8400(13) 0.5351(7) 0.5504(5)
H4 H 0.8687 0.5562 0.6028
H5 H 0.7834 0.4870 0.5484
C10 C 0.1215(8) 0.9792(3) 0.2429(5)
H8 H 0.2173 0.9843 0.2248
C18 C 0.3479(5) 0.6504(2) 0.6467(2)
C19 C 0.2444(6) 0.7415(3) 0.3718(2)
C30 C 0.9799(10) 0.4692(6) 0.4703(7)
H27 H 0.8657 0.4731 0.4302
H28 H 0.9814 0.4331 0.5108
O12 O 0.2065(4) 0.81546(17) 0.14387(17)
O10 O 0.4411(5) 0.8829(3) 0.2053(2)
C22 C 0.3005(5) 0.8057(2) 0.0092(2)
H22 H 0.2019 0.7797 0.0114
C23 C 0.3976(5) 0.8470(2) 0.0731(2)
C24 C 0.5452(5) 0.8868(3) 0.0700(3)
H23 H 0.6108 0.9150 0.1129
C25 C 0.5922(6) 0.8834(3) 0.0014(3)
C27 C 0.8400(13) 0.9649(7) 0.0504(5)
H25 H 0.8687 0.9438 0.1028
C28 C 0.3479(5) 0.8496(2) 0.1467(2)
O6 O 0.3052(5) 0.7506(2) 0.81503(18)
O7 O 0.1037(5) 0.7288(3) 0.8700(2)
O8 O 0.7317(6) 0.9201(3) 0.9906(3)
C21 C 0.3496(6) 0.8027(2) 0.9416(2)
C26 C 0.4976(6) 0.8413(3) 0.9388(3)
H24 H 0.5323 0.8385 0.8941
C29 C 0.2444(6) 0.7585(3) 0.8718(2)
N5 N 0.0541(5) 0.5866(2) 0.7573(2)
C32 C 0.0284(12) 0.4639(4) 0.7588(7)
H30 H 0.0449 0.4132 0.7528
C33 C 0.1215(8) 0.5208(3) 0.7429(5)
H31 H 0.2173 0.5157 0.7248
C31 C 0.0787(11) 0.0696(4) 0.7207(5)
H29 H 0.1545 0.1042 0.7103
N10 N 0.0965(5) 0.2484(2) 0.8138(2)
N6 N 0.0938(11) 0.9961(4) 0.7146(6)
N7 N 0.9035(5) 0.7484(2) 0.6862(2)
N8 N 0.6472(6) 0.8023(3) 0.6653(4)
C34 C 0.2191(16) 0.9568(7) 0.6780(7)
H32 H 0.2558 0.9901 0.6437
H33 H 0.1645 0.9130 0.6484
C35 C 0.3590(12) 0.9374(6) 0.7433(6)
H34 H 0.4014 0.9813 0.7753
H35 H 0.3201 0.9017 0.7748
C36 C 0.7763(7) 0.7648(3) 0.7158(4)
H36 H 0.7777 0.7515 0.7662
C37 C 0.8508(8) 0.7781(3) 0.6120(3)
H37 H 0.9130 0.7762 0.5764
C38 C 0.6918(9) 0.8109(3) 0.5995(4)
H38 H 0.6256 0.8350 0.5537
C39 C 0.4878(9) 0.8303(4) 0.6808(6)
H39 H 0.4538 0.7952 0.7145
H40 H 0.3922 0.8335 0.6315
C40 C 0.5156(11) 0.9020(5) 0.7176(7)
H41 H 0.6182 0.8986 0.7642
H42 H 0.5439 0.9366 0.6819
N6_2 N 0.9062(11) 0.4961(4) 0.7854(6)
N8_2 N 0.3528(6) 0.3023(3) 0.8347(4)
C31_2 C 0.9213(11) 0.5696(4) 0.7793(5)
H29_2 H 0.8455 0.6042 0.7897
C34_2 C 0.7809(16) 0.4568(7) 0.8220(7)
H32_2 H 0.7442 0.4901 0.8563
H33_2 H 0.8355 0.4130 0.8516
C35_2 C 0.6410(12) 0.4374(6) 0.7567(6)
H34_2 H 0.5986 0.4813 0.7247
H35_2 H 0.6799 0.4017 0.7252
C36_2 C 0.2237(7) 0.2648(3) 0.7842(4)
H36_2 H 0.2223 0.2515 0.7338
C37_2 C 0.1492(8) 0.2781(3) 0.8880(3)
H37_2 H 0.0870 0.2762 0.9236
C38_2 C 0.3082(9) 0.3109(3) 0.9005(4)
H38_2 H 0.3744 0.3350 0.9463
C39_2 C 0.5122(9) 0.3303(4) 0.8192(6)
H39_2 H 0.5462 0.2952 0.7855
H40_2 H 0.6078 0.3335 0.8685
C40_2 C 0.4844(11) 0.4020(5) 0.7824(7)
H41_2 H 0.3818 0.3986 0.7358
H42_2 H 0.4561 0.4366 0.8181
C20 C 0.0201(10) 0.5308(6) 0.5297(7)
H20 H 0.1343 0.5269 0.5698
H21 H 0.0186 0.5669 0.4892
O6_2 O 0.6948(5) 0.2506(2) 0.68497(18)
O7_2 O 0.8963(5) 0.2288(3) 0.6300(2)
O8_2 O 0.2683(6) 0.4201(3) 0.5094(3)
O9 O 0.7935(4) 0.31546(17) 0.35613(17)
O10_2 O 0.5589(5) 0.3829(3) 0.2947(2)
C21_2 C 0.6504(6) 0.3027(2) 0.5584(2)
C22_2 C 0.6995(5) 0.3057(2) 0.4908(2)
H22_2 H 0.7981 0.2797 0.4886
C23_2 C 0.6024(5) 0.3470(2) 0.4269(2)
C24_2 C 0.4548(5) 0.3868(3) 0.4300(3)
H23_2 H 0.3892 0.4150 0.3871
C25_2 C 0.4078(6) 0.3834(3) 0.4986(3)
C26_2 C 0.5024(6) 0.3413(3) 0.5612(3)
H24_2 H 0.4677 0.3385 0.6059
C27_2 C 0.1600(13) 0.4649(7) 0.4496(5)
H25_2 H 0.1313 0.4438 0.3972
H26 H 0.2166 0.5130 0.4516
C28_2 C 0.6521(5) 0.3496(2) 0.3533(2)
C29_2 C 0.7556(6) 0.2585(3) 0.6282(2)
Co2 Co 0.87315(7) 0.19002(3) 0.76356(3)
N5_2 N 0.9459(5) 0.0866(2) 0.7427(2)
C33_2 C 0.8785(8) 0.0208(3) 0.7571(5)
H31_2 H 0.7827 0.0157 0.7752
Co4 Co 0.87315(7) 0.30998(3) 0.26356(3)
O11 O 0.7935(4) 0.18454(17) 0.85613(17)
O1_2 O 0.6948(5) 0.2494(2) 0.18497(18)
O2_2 O 0.8963(5) 0.2712(3) 0.1300(2)
O3_2 O 0.2683(6) 0.0799(3) 0.0094(3)
N1_2 N 0.9459(5) 0.4134(2) 0.2427(2)
C1_2 C 0.6504(6) 0.1973(2) 0.0584(2)
C6_2 C 0.5024(6) 0.1587(3) 0.0612(3)
H3_2 H 0.4677 0.1615 0.1059
C9 C 0.9716(12) 0.5361(4) 0.2412(7)
H7 H 0.9551 0.5868 0.2472
C10_2 C 0.8785(8) 0.4792(3) 0.2571(5)
H8_2 H 0.7827 0.4843 0.2752
C19_2 C 0.7556(6) 0.2415(3) 0.1282(2)
O5_2 O 0.5589(5) 0.1171(3) 0.7947(2)
C2_2 C 0.6995(5) 0.1943(2) 0.9908(2)
H1_2 H 0.7981 0.2203 0.9886
C3_2 C 0.6024(5) 0.1530(2) 0.9269(2)
C4_2 C 0.4548(5) 0.1132(3) 0.9300(3)
H2_2 H 0.3892 0.0850 0.8871
C5_2 C 0.4078(6) 0.1166(3) 0.9986(3)
C7_2 C 0.1600(13) 0.0351(7) 0.9496(5)
H4_2 H 0.1313 0.0562 0.8972
C18_2 C 0.6521(5) 0.1504(2) 0.8533(2)
C32_2 C 0.9716(12) 0.9639(4) 0.7412(7)
H30_2 H 0.9551 0.9132 0.7472
C9_2 C 0.0284(12) 0.0361(4) 0.2588(7)
H7_2 H 0.0449 0.0868 0.2528
N2 N 0.9062(11) 0.0039(4) 0.2854(6)
N3 N 0.0965(5) 0.2516(2) 0.3138(2)
N4 N 0.3528(6) 0.1977(3) 0.3347(4)
C11 C 0.7809(16) 0.0432(7) 0.3220(7)
H9 H 0.7442 0.0099 0.3563
H10 H 0.8355 0.0870 0.3516
C12 C 0.6410(12) 0.0626(6) 0.2567(6)
H11 H 0.5986 0.0187 0.2247
H12 H 0.6799 0.0983 0.2252
C13 C 0.2237(7) 0.2352(3) 0.2842(4)
H13 H 0.2223 0.2485 0.2338
C14 C 0.1492(8) 0.2219(3) 0.3880(3)
H14 H 0.0870 0.2238 0.4236
C15 C 0.3082(9) 0.1891(3) 0.4005(4)
H15 H 0.3744 0.1650 0.4463
C16 C 0.5122(9) 0.1697(4) 0.3192(6)
H16 H 0.5462 0.2048 0.2855
H17 H 0.6078 0.1665 0.3685
C17 C 0.4844(11) 0.0980(5) 0.2824(7)
H18 H 0.3818 0.1014 0.2358
H19 H 0.4561 0.0634 0.3181
C8 C 0.9213(11) 0.9304(4) 0.2793(5)
H6 H 0.8455 0.8958 0.2897
N9 N 0.9035(5) 0.7516(2) 0.1862(2)
N2_2 N 0.0938(11) 0.5039(4) 0.2146(6)
N4_2 N 0.6472(6) 0.6977(3) 0.1653(4)
C8_2 C 0.0787(11) 0.4304(4) 0.2207(5)
H6_2 H 0.1545 0.3958 0.2103
C11_2 C 0.2191(16) 0.5432(7) 0.1780(7)
H9_2 H 0.2558 0.5099 0.1437
H10_2 H 0.1645 0.5870 0.1484
C12_2 C 0.3590(12) 0.5626(6) 0.2433(6)
H11_2 H 0.4014 0.5187 0.2753
H12_2 H 0.3201 0.5983 0.2748
C13_2 C 0.7763(7) 0.7352(3) 0.2158(4)
H13_2 H 0.7777 0.7485 0.2662
C14_2 C 0.8508(8) 0.7219(3) 0.1120(3)
H14_2 H 0.9130 0.7238 0.0764
C15_2 C 0.6918(9) 0.6891(3) 0.0995(4)
H15_2 H 0.6256 0.6650 0.0537
C16_2 C 0.4878(9) 0.6697(4) 0.1808(6)
H16_2 H 0.4538 0.7048 0.2145
H17_2 H 0.3922 0.6665 0.1315
C17_2 C 0.5156(11) 0.5980(5) 0.2176(7)
H18_2 H 0.6182 0.6014 0.2642
H19_2 H 0.5439 0.5634 0.1819
C30_2 C 0.0201(10) 0.9692(6) 0.0297(7)
H27_2 H 0.1343 0.9731 0.0698
H5_2 H 0.2166 0.9870 0.9516
H28_2 H 0.0186 0.9331 0.9892
H21_2 H 0.9814 0.0669 0.0108
H26_2 H 0.7834 0.0130 0.0484
C20_2 C 0.9799(10) 0.0308(6) 0.9703(7)
H20_2 H 0.8657 0.0269 0.9302
loop_
_geom_bond_atom_site_label_1
_geom_bond_atom_site_label_2
_geom_bond_site_symmetry_1
_geom_bond_site_symmetry_2
Co1 O1 1_555 1_555
O1 C19 1_555 1_555
O2 C19 1_555 1_555
O3 C5 1_555 1_555
O4 C18 1_555 1_555
O5 C18 1_555 1_555
N1 Co1 1_555 1_555
C1 C2 1_555 1_555
C2 H1 1_555 1_555
C3 C2 1_555 1_555
C4 C3 1_555 1_555
H2 C4 1_555 1_555
C5 C4 1_555 1_555
C6 C1 1_555 1_555
H3 C6 1_555 1_555
C7 O3 1_555 1_555
H4 C7 1_555 1_555
H5 C7 1_555 1_555
C10 N1 1_555 1_555
H8 C10 1_555 1_555
C18 C3 1_555 1_555
C19 C1 1_555 1_555
H27 C30 1_555 1_555
H28 C30 1_555 1_555
Co6 O4 1_555 1_555
O12 Co1 1_555 1_555
C5 C6 1_555 1_555
O12 C28 1_555 1_555
O10 C28 1_555 1_555
C22 H22 1_555 1_555
C23 C22 1_555 1_555
C24 C23 1_555 1_555
H23 C24 1_555 1_555
C25 C24 1_555 1_555
H25 C27 1_555 1_555
C28 C23 1_555 1_555
O6 C29 1_555 1_555
O7 C29 1_555 1_555
C26 C21 1_555 1_555
H24 C26 1_555 1_555
C29 C21 1_555 1_555
Co6 O6 1_555 1_555
N5 Co6 1_555 1_555
H30 C32 1_555 1_555
C33 N5 1_555 1_555
H31 C33 1_555 1_555
C32 C33 1_555 1_555
H29 C31 1_555 1_555
N7 C36 1_555 1_555
N8 C36 1_555 1_555
C34 N6 1_555 1_555
H32 C34 1_555 1_555
H33 C34 1_555 1_555
C35 C34 1_555 1_555
H34 C35 1_555 1_555
H35 C35 1_555 1_555
C36 H36 1_555 1_555
C37 N7 1_555 1_555
H37 C37 1_555 1_555
C38 N8 1_555 1_555
H38 C38 1_555 1_555
C39 N8 1_555 1_555
H39 C39 1_555 1_555
H40 C39 1_555 1_555
C40 C35 1_555 1_555
H41 C40 1_555 1_555
H42 C40 1_555 1_555
C37 C38 1_555 1_555
C39 C40 1_555 1_555
N6_2 C31_2 1_555 1_555
N10 C36_2 1_555 1_555
N8_2 C36_2 1_555 1_555
H29_2 C31_2 1_555 1_555
C34_2 N6_2 1_555 1_555
H32_2 C34_2 1_555 1_555
H33_2 C34_2 1_555 1_555
C35_2 C34_2 1_555 1_555
H34_2 C35_2 1_555 1_555
H35_2 C35_2 1_555 1_555
C36_2 H36_2 1_555 1_555
C37_2 N10 1_555 1_555
H37_2 C37_2 1_555 1_555
C38_2 N8_2 1_555 1_555
H38_2 C38_2 1_555 1_555
C39_2 N8_2 1_555 1_555
H39_2 C39_2 1_555 1_555
H40_2 C39_2 1_555 1_555
C40_2 C35_2 1_555 1_555
H41_2 C40_2 1_555 1_555
H42_2 C40_2 1_555 1_555
C37_2 C38_2 1_555 1_555
C39_2 C40_2 1_555 1_555
H20 C20 1_555 1_555
H21 C20 1_555 1_555
O6_2 C29_2 1_555 1_555
O7_2 C29_2 1_555 1_555
O8_2 C25_2 1_555 1_555
O9 C28_2 1_555 1_555
O10_2 C28_2 1_555 1_555
C21_2 C22_2 1_555 1_555
C22_2 H22_2 1_555 1_555
C23_2 C22_2 1_555 1_555
C24_2 C23_2 1_555 1_555
H23_2 C24_2 1_555 1_555
C25_2 C24_2 1_555 1_555
C26_2 C21_2 1_555 1_555
H24_2 C26_2 1_555 1_555
C27_2 O8_2 1_555 1_555
H25_2 C27_2 1_555 1_555
H26 C27_2 1_555 1_555
C28_2 C23_2 1_555 1_555
C29_2 C21_2 1_555 1_555
Co2 O6_2 1_555 1_555
N5_2 Co2 1_555 1_555
C33_2 N5_2 1_555 1_555
H31_2 C33_2 1_555 1_555
Co4 O9 1_555 1_555
O11 Co2 1_555 1_555
C25_2 C26_2 1_555 1_555
Co4 O1_2 1_555 1_555
O1_2 C19_2 1_555 1_555
O2_2 C19_2 1_555 1_555
N1_2 Co4 1_555 1_555
C6_2 C1_2 1_555 1_555
H3_2 C6_2 1_555 1_555
H7 C9 1_555 1_555
C10_2 N1_2 1_555 1_555
H8_2 C10_2 1_555 1_555
C19_2 C1_2 1_555 1_555
C9 C10_2 1_555 1_555
O11 C18_2 1_555 1_555
O5_2 C18_2 1_555 1_555
C2_2 H1_2 1_555 1_555
C3_2 C2_2 1_555 1_555
C4_2 C3_2 1_555 1_555
H2_2 C4_2 1_555 1_555
C5_2 C4_2 1_555 1_555
H4_2 C7_2 1_555 1_555
C18_2 C3_2 1_555 1_555
H30_2 C32_2 1_555 1_555
H7_2 C9_2 1_555 1_555
N3 C13 1_555 1_555
N4 C13 1_555 1_555
C11 N2 1_555 1_555
H9 C11 1_555 1_555
H10 C11 1_555 1_555
C12 C11 1_555 1_555
H11 C12 1_555 1_555
H12 C12 1_555 1_555
C13 H13 1_555 1_555
C14 N3 1_555 1_555
H14 C14 1_555 1_555
C15 N4 1_555 1_555
H15 C15 1_555 1_555
C16 N4 1_555 1_555
H16 C16 1_555 1_555
H17 C16 1_555 1_555
C17 C12 1_555 1_555
H18 C17 1_555 1_555
H19 C17 1_555 1_555
C14 C15 1_555 1_555
C16 C17 1_555 1_555
H6 C8 1_555 1_555
N2_2 C8_2 1_555 1_555
N9 C13_2 1_555 1_555
N4_2 C13_2 1_555 1_555
H6_2 C8_2 1_555 1_555
C11_2 N2_2 1_555 1_555
H9_2 C11_2 1_555 1_555
H10_2 C11_2 1_555 1_555
C12_2 C11_2 1_555 1_555
H11_2 C12_2 1_555 1_555
H12_2 C12_2 1_555 1_555
C13_2 H13_2 1_555 1_555
C14_2 N9 1_555 1_555
H14_2 C14_2 1_555 1_555
C15_2 N4_2 1_555 1_555
H15_2 C15_2 1_555 1_555
C16_2 N4_2 1_555 1_555
H16_2 C16_2 1_555 1_555
H17_2 C16_2 1_555 1_555
C17_2 C12_2 1_555 1_555
H18_2 C17_2 1_555 1_555
H19_2 C17_2 1_555 1_555
C14_2 C15_2 1_555 1_555
C16_2 C17_2 1_555 1_555
H27_2 C30_2 1_555 1_555
H20_2 C20_2 1_555 1_555

#END
