
###############################################################################
#
# This file contains modified crystal structure data generated from the
# MOF subset of the Cambridge Structural Database (CSD) v543 
# hosted by the Cambridge Crystallographic Data Centre (CCDC).
#
# This work is licensed under the Creative Commons
# Attribution-NonCommercial-ShareAlike 4.0 International License.
# To view a copy of this license, visit
# http://creativecommons.org/licenses/by-nc-sa/4.0/
# or send a letter to
# Creative Commons, PO Box 1866, Mountain View, CA 94042, USA.
#
# CIF created using the CSD Python API on 29 September 2022
# The structure has been converted into the P1 space group
# The structure has a 3D framework
# The original CSD entry EMUDAT is in the tetragonal crystal system
# The framework has been calculated to contain at least 10.0% void space
# The void calculation uses a probe of radius 1.32A, grid spacing 0.4
#
###############################################################################

data_EMUDAT
_chemical_formula_moiety         '(C112 H80 La8 N16 O80 Sr6)n'
_symmetry_cell_setting           triclinic
_symmetry_space_group_name_H-M   'P 1'
_symmetry_Int_Tables_number      1
_space_group_name_Hall           'P 1'
loop_
_symmetry_equiv_pos_site_id
_symmetry_equiv_pos_as_xyz
1 x,y,z
_cell_length_a                   14.514(2)
_cell_length_b                   14.514(2)
_cell_length_c                   17.585(3)
_cell_angle_alpha                90
_cell_angle_beta                 90
_cell_angle_gamma                90
_cell_volume                     3704.39
loop_
_atom_site_label
_atom_site_type_symbol
_atom_site_fract_x
_atom_site_fract_y
_atom_site_fract_z
La1 La 0.483485(16) 0.2500 0.1250
Sr1 Sr 0.5000 0.5000 0.0000
O1 O 0.39356(18) 0.37376(17) 0.04912(15)
O2 O 0.26593(18) 0.44420(16) 0.00666(15)
O3 O 0.57256(15) 0.09218(16) 0.12738(18)
O4 O 0.6926(2) 0.01681(19) 0.07756(16)
O5 O 0.4161(2) 0.3717(2) 0.2196(2)
H1 H 0.3702 0.4072 0.2127
H2 H 0.4486 0.3975 0.2537
N1 N 0.2960(2) 0.2500 0.1250
N2 N 0.6681(2) 0.2500 0.1250
C1 C 0.3056(2) 0.3835(2) 0.0440(2)
C2 C 0.2493(3) 0.3143(2) 0.08673(18)
C3 C 0.1540(3) 0.3162(3) 0.0859(3)
H3 H 0.1226 0.3618 0.0591
C4 C 0.1069(4) 0.2500 0.1250
H4 H 0.0428 0.2500 0.1250
C5 C 0.6559(3) 0.0859(2) 0.1059(2)
C6 C 0.7140(2) 0.1713(3) 0.1158(3)
C7 C 0.8068(3) 0.1684(4) 0.1148(8)
H5 H 0.8382 0.1133 0.1075
C8 C 0.8533(5) 0.2500 0.1250
H6 H 0.9173 0.2500 0.1250
O6 O 0.39356(18) 0.12624(17) 0.20088(15)
O7 O 0.26593(18) 0.05580(16) 0.24334(15)
C9 C 0.3056(2) 0.1165(2) 0.2060(2)
C10 C 0.2493(3) 0.1857(2) 0.16327(18)
C11 C 0.1540(3) 0.1838(3) 0.1641(3)
H7 H 0.1226 0.1382 0.1909
O8 O 0.57256(15) 0.40782(16) 0.12262(18)
O9 O 0.6926(2) 0.48319(19) 0.17244(16)
C12 C 0.6559(3) 0.4141(2) 0.1441(2)
C13 C 0.7140(2) 0.3287(3) 0.1342(3)
C14 C 0.8068(3) 0.3316(4) 0.1352(8)
H8 H 0.8382 0.3867 0.1425
O19 O 0.4161(2) 0.1283(2) 0.0304(2)
H17 H 0.3702 0.0928 0.0373
H20 H 0.1025 0.5514 0.0037
La3 La 0.516515(16) 0.7500 0.1250
Sr2 Sr 0.5000 0.0000 0.2500
O21 O 0.60644(18) 0.62624(17) 0.04912(15)
O24 O 0.55580(16) 0.23407(18) 0.25666(15)
O26 O 0.42744(15) 0.59218(16) 0.12262(18)
Sr1_2 Sr 0.5000 0.5000 1.0000
La2 La 0.2500 0.516515(16) 0.8750
O10 O 0.37376(17) 0.60644(18) 0.95088(15)
O11 O 0.44420(16) 0.73407(18) 0.99334(15)
O12 O 0.09218(16) 0.42744(15) 0.87262(18)
O13 O 0.01681(19) 0.3074(2) 0.92244(16)
O14 O 0.3717(2) 0.5839(2) 0.7804(2)
H9 H 0.4072 0.6298 0.7873
H10 H 0.3975 0.5514 0.7463
N3 N 0.2500 0.7040(2) 0.8750
N4 N 0.2500 0.3319(2) 0.8750
C15 C 0.3835(2) 0.6944(2) 0.9560(2)
C16 C 0.3143(2) 0.7507(3) 0.91327(18)
C17 C 0.3162(3) 0.8460(3) 0.9141(3)
H11 H 0.3618 0.8774 0.9409
C18 C 0.2500 0.8931(4) 0.8750
H12 H 0.2500 0.9572 0.8750
C19 C 0.0859(2) 0.3441(3) 0.8941(2)
C20 C 0.1713(3) 0.2860(2) 0.8842(3)
C21 C 0.1684(4) 0.1932(3) 0.8852(8)
H13 H 0.1133 0.1618 0.8925
C22 C 0.2500 0.1467(5) 0.8750
H14 H 0.2500 0.0827 0.8750
O15 O 0.12624(17) 0.60644(18) 0.79912(15)
O16 O 0.05580(16) 0.73407(18) 0.75666(15)
C23 C 0.1165(2) 0.6944(2) 0.7940(2)
C24 C 0.1857(2) 0.7507(3) 0.83673(18)
C25 C 0.1838(3) 0.8460(3) 0.8359(3)
H15 H 0.1382 0.8774 0.8091
O17 O 0.40782(16) 0.42744(15) 0.87738(18)
O18 O 0.48319(19) 0.3074(2) 0.82756(16)
C26 C 0.4141(2) 0.3441(3) 0.8559(2)
C27 C 0.3287(3) 0.2860(2) 0.8658(3)
C28 C 0.3316(4) 0.1932(3) 0.8648(8)
H16 H 0.3867 0.1618 0.8575
H18 H 0.4486 0.1025 0.9963
O20 O 0.1283(2) 0.5839(2) 0.9696(2)
H19 H 0.0928 0.6298 0.9627
Sr3 Sr -0.0000 0.5000 0.7500
O22 O 0.62624(17) 0.39356(18) 0.95088(15)
O23 O 0.55580(16) 0.26593(18) 0.99334(15)
O25 O 0.23407(18) 0.44420(16) 0.74334(15)
O27 O 0.59218(16) 0.57256(15) 0.87738(18)
La5 La 0.2500 0.983485(16) 0.3750
Sr2_2 Sr 0.5000 1.0000 0.2500
La4 La 0.983485(16) 0.7500 0.6250
Sr3_2 Sr 1.0000 0.5000 0.7500
La4_2 La 0.7500 0.016515(16) 0.3750
O11_2 O 0.73407(18) 0.55580(16) 0.00666(15)
O12_2 O 0.42744(15) 0.90782(16) 0.12738(18)
O13_2 O 0.3074(2) 0.98319(19) 0.07756(16)
O14_2 O 0.5839(2) 0.6283(2) 0.2196(2)
H9_2 H 0.6298 0.5928 0.2127
H10_2 H 0.5514 0.6025 0.2537
N3_2 N 0.7040(2) 0.7500 0.1250
N4_2 N 0.3319(2) 0.7500 0.1250
C15_2 C 0.6944(2) 0.6165(2) 0.0440(2)
C16_2 C 0.7507(3) 0.6857(2) 0.08673(18)
C17_2 C 0.8460(3) 0.6838(3) 0.0859(3)
H11_2 H 0.8774 0.6382 0.0591
C18_2 C 0.8931(4) 0.7500 0.1250
H12_2 H 0.9572 0.7500 0.1250
C19_2 C 0.3441(3) 0.9141(2) 0.1059(2)
C20_2 C 0.2860(2) 0.8287(3) 0.1158(3)
C21_2 C 0.1932(3) 0.8316(4) 0.1148(8)
H13_2 H 0.1618 0.8867 0.1075
C22_2 C 0.1467(5) 0.7500 0.1250
H14_2 H 0.0827 0.7500 0.1250
O15_2 O 0.60644(18) 0.87376(17) 0.20088(15)
O16_2 O 0.73407(18) 0.94420(16) 0.24334(15)
C23_2 C 0.6944(2) 0.8835(2) 0.2060(2)
C24_2 C 0.7507(3) 0.8143(2) 0.16327(18)
C25_2 C 0.8460(3) 0.8162(3) 0.1641(3)
H15_2 H 0.8774 0.8618 0.1909
O18_2 O 0.3074(2) 0.51681(19) 0.17244(16)
C26_2 C 0.3441(3) 0.5859(2) 0.1441(2)
C27_2 C 0.2860(2) 0.6713(3) 0.1342(3)
C28_2 C 0.1932(3) 0.6684(4) 0.1352(8)
H16_2 H 0.1618 0.6133 0.1425
O20_2 O 0.5839(2) 0.8717(2) 0.0304(2)
H19_2 H 0.6298 0.9072 0.0373
O25_2 O 0.44420(16) 0.76593(18) 0.25666(15)
H20_2 H 0.5514 0.8975 0.9963
La3_2 La 0.7500 0.483485(16) 0.8750
La4_3 La 0.016515(16) 0.2500 0.6250
H20_3 H 0.8975 0.4486 0.0037
O12_3 O 0.90782(16) 0.57256(15) 0.87262(18)
O13_3 O 0.98319(19) 0.6926(2) 0.92244(16)
O14_3 O 0.6283(2) 0.4161(2) 0.7804(2)
H9_3 H 0.5928 0.3702 0.7873
H10_3 H 0.6025 0.4486 0.7463
N3_3 N 0.7500 0.2960(2) 0.8750
N4_3 N 0.7500 0.6681(2) 0.8750
C15_3 C 0.6165(2) 0.3056(2) 0.9560(2)
C16_3 C 0.6857(2) 0.2493(3) 0.91327(18)
C17_3 C 0.6838(3) 0.1540(3) 0.9141(3)
H11_3 H 0.6382 0.1226 0.9409
C18_3 C 0.7500 0.1069(4) 0.8750
H12_3 H 0.7500 0.0428 0.8750
C19_3 C 0.9141(2) 0.6559(3) 0.8941(2)
C20_3 C 0.8287(3) 0.7140(2) 0.8842(3)
C21_3 C 0.8316(4) 0.8068(3) 0.8852(8)
H13_3 H 0.8867 0.8382 0.8925
C22_3 C 0.7500 0.8533(5) 0.8750
H14_3 H 0.7500 0.9173 0.8750
O15_3 O 0.87376(17) 0.39356(18) 0.79912(15)
O16_3 O 0.94420(16) 0.26593(18) 0.75666(15)
C23_3 C 0.8835(2) 0.3056(2) 0.7940(2)
C24_3 C 0.8143(2) 0.2493(3) 0.83673(18)
C25_3 C 0.8162(3) 0.1540(3) 0.8359(3)
H15_3 H 0.8618 0.1226 0.8091
O18_3 O 0.51681(19) 0.6926(2) 0.82756(16)
C26_3 C 0.5859(2) 0.6559(3) 0.8559(2)
C27_3 C 0.6713(3) 0.7140(2) 0.8658(3)
C28_3 C 0.6684(4) 0.8068(3) 0.8648(8)
H16_3 H 0.6133 0.8382 0.8575
O20_3 O 0.8717(2) 0.4161(2) 0.9696(2)
H19_3 H 0.9072 0.3702 0.9627
O25_3 O 0.76593(18) 0.55580(16) 0.74334(15)
O12_4 O 0.09218(16) 0.07256(15) 0.37738(18)
O13_4 O 0.01681(19) 0.1926(2) 0.32756(16)
N4_4 N 0.2500 0.1681(2) 0.3750
C19_4 C 0.0859(2) 0.1559(3) 0.3559(2)
C20_4 C 0.1713(3) 0.2140(2) 0.3658(3)
C21_4 C 0.1684(4) 0.3068(3) 0.3648(8)
H13_4 H 0.1133 0.3382 0.3575
C22_4 C 0.2500 0.3533(5) 0.3750
H14_4 H 0.2500 0.4173 0.3750
O17_2 O 0.40782(16) 0.07256(15) 0.37262(18)
O18_4 O 0.48319(19) 0.1926(2) 0.42244(16)
C26_4 C 0.4141(2) 0.1559(3) 0.3941(2)
C27_4 C 0.3287(3) 0.2140(2) 0.3842(3)
C28_4 C 0.3316(4) 0.3068(3) 0.3852(8)
H16_4 H 0.3867 0.3382 0.3925
Sr3_3 Sr 0.0000 -0.0000 0.5000
O22_2 O 0.62624(17) 0.10644(18) 0.29912(15)
O25_4 O 0.23407(18) 0.05580(16) 0.50666(15)
O10_2 O 0.37376(17) 0.89356(18) 0.29912(15)
O14_4 O 0.3717(2) 0.9161(2) 0.4696(2)
H9_4 H 0.4072 0.8702 0.4627
H10_4 H 0.3975 0.9486 0.5037
N3_4 N 0.2500 0.7960(2) 0.3750
C15_4 C 0.3835(2) 0.8056(2) 0.2940(2)
C16_4 C 0.3143(2) 0.7493(3) 0.33673(18)
C17_4 C 0.3162(3) 0.6540(3) 0.3359(3)
H11_4 H 0.3618 0.6226 0.3091
C18_4 C 0.2500 0.6069(4) 0.3750
H12_4 H 0.2500 0.5428 0.3750
O15_4 O 0.12624(17) 0.89356(18) 0.45088(15)
O16_4 O 0.05580(16) 0.76593(18) 0.49334(15)
C23_4 C 0.1165(2) 0.8056(2) 0.4560(2)
C24_4 C 0.1857(2) 0.7493(3) 0.41327(18)
C25_4 C 0.1838(3) 0.6540(3) 0.4141(3)
H15_4 H 0.1382 0.6226 0.4409
O20_4 O 0.1283(2) 0.9161(2) 0.2804(2)
H19_4 H 0.0928 0.8702 0.2873
H20_4 H 0.1025 0.9486 0.2463
Sr3_4 Sr 0.0000 1.0000 0.5000
O27_2 O 0.59218(16) 0.92744(15) 0.37262(18)
Sr3_5 Sr 1.0000 -0.0000 0.5000
Sr3_6 Sr 1.0000 1.0000 0.5000
O12_5 O 0.07256(15) 0.90782(16) 0.62262(18)
O13_5 O 0.1926(2) 0.98319(19) 0.67244(16)
N4_5 N 0.1681(2) 0.7500 0.6250
C19_5 C 0.1559(3) 0.9141(2) 0.6441(2)
C20_5 C 0.2140(2) 0.8287(3) 0.6342(3)
C21_5 C 0.3068(3) 0.8316(4) 0.6352(8)
H13_5 H 0.3382 0.8867 0.6425
C22_5 C 0.3533(5) 0.7500 0.6250
H14_5 H 0.4173 0.7500 0.6250
O17_3 O 0.07256(15) 0.59218(16) 0.62738(18)
O18_5 O 0.1926(2) 0.51681(19) 0.57756(16)
C26_5 C 0.1559(3) 0.5859(2) 0.6059(2)
C27_5 C 0.2140(2) 0.6713(3) 0.6158(3)
C28_5 C 0.3068(3) 0.6684(4) 0.6148(8)
H16_5 H 0.3382 0.6133 0.6075
O22_3 O 0.10644(18) 0.37376(17) 0.70088(15)
O10_3 O 0.89356(18) 0.62624(17) 0.70088(15)
O14_5 O 0.9161(2) 0.6283(2) 0.5304(2)
H9_5 H 0.8702 0.5928 0.5373
H10_5 H 0.9486 0.6025 0.4963
N3_5 N 0.7960(2) 0.7500 0.6250
C15_5 C 0.8056(2) 0.6165(2) 0.7060(2)
C16_5 C 0.7493(3) 0.6857(2) 0.66327(18)
C17_5 C 0.6540(3) 0.6838(3) 0.6641(3)
H11_5 H 0.6226 0.6382 0.6909
C18_5 C 0.6069(4) 0.7500 0.6250
H12_5 H 0.5428 0.7500 0.6250
O15_5 O 0.89356(18) 0.87376(17) 0.54912(15)
O16_5 O 0.76593(18) 0.94420(16) 0.50666(15)
C23_5 C 0.8056(2) 0.8835(2) 0.5440(2)
C24_5 C 0.7493(3) 0.8143(2) 0.58673(18)
C25_5 C 0.6540(3) 0.8162(3) 0.5859(3)
H15_5 H 0.6226 0.8618 0.5591
O20_5 O 0.9161(2) 0.8717(2) 0.7196(2)
H19_5 H 0.8702 0.9072 0.7127
H20_5 H 0.9486 0.8975 0.7537
O27_3 O 0.92744(15) 0.40782(16) 0.62738(18)
O14_6 O 0.6283(2) 0.0839(2) 0.4696(2)
H9_6 H 0.5928 0.1298 0.4627
H10_6 H 0.6025 0.0514 0.5037
N3_6 N 0.7500 0.2040(2) 0.3750
C15_6 C 0.6165(2) 0.1944(2) 0.2940(2)
C16_6 C 0.6857(2) 0.2507(3) 0.33673(18)
C17_6 C 0.6838(3) 0.3460(3) 0.3359(3)
H11_6 H 0.6382 0.3774 0.3091
C18_6 C 0.7500 0.3931(4) 0.3750
H12_6 H 0.7500 0.4572 0.3750
O15_6 O 0.87376(17) 0.10644(18) 0.45088(15)
O16_6 O 0.94420(16) 0.23407(18) 0.49334(15)
C23_6 C 0.8835(2) 0.1944(2) 0.4560(2)
C24_6 C 0.8143(2) 0.2507(3) 0.41327(18)
C25_6 C 0.8162(3) 0.3460(3) 0.4141(3)
H15_6 H 0.8618 0.3774 0.4409
O20_6 O 0.8717(2) 0.0839(2) 0.2804(2)
H19_6 H 0.9072 0.1298 0.2873
H20_6 H 0.8975 0.0514 0.2463
O12_6 O 0.90782(16) 0.92744(15) 0.37738(18)
O13_6 O 0.98319(19) 0.8074(2) 0.32756(16)
N4_6 N 0.7500 0.8319(2) 0.3750
C19_6 C 0.9141(2) 0.8441(3) 0.3559(2)
C20_6 C 0.8287(3) 0.7860(2) 0.3658(3)
C21_6 C 0.8316(4) 0.6932(3) 0.3648(8)
H13_6 H 0.8867 0.6618 0.3575
C22_6 C 0.7500 0.6467(5) 0.3750
H14_6 H 0.7500 0.5827 0.3750
O18_6 O 0.51681(19) 0.8074(2) 0.42244(16)
C26_6 C 0.5859(2) 0.8441(3) 0.3941(2)
C27_6 C 0.6713(3) 0.7860(2) 0.3842(3)
C28_6 C 0.6684(4) 0.6932(3) 0.3852(8)
H16_6 H 0.6133 0.6618 0.3925
O14_7 O 0.0839(2) 0.3717(2) 0.5304(2)
H9_7 H 0.1298 0.4072 0.5373
H10_7 H 0.0514 0.3975 0.4963
N3_7 N 0.2040(2) 0.2500 0.6250
C15_7 C 0.1944(2) 0.3835(2) 0.7060(2)
C16_7 C 0.2507(3) 0.3143(2) 0.66327(18)
C17_7 C 0.3460(3) 0.3162(3) 0.6641(3)
H11_7 H 0.3774 0.3618 0.6909
C18_7 C 0.3931(4) 0.2500 0.6250
H12_7 H 0.4572 0.2500 0.6250
O15_7 O 0.10644(18) 0.12624(17) 0.54912(15)
C23_7 C 0.1944(2) 0.1165(2) 0.5440(2)
C24_7 C 0.2507(3) 0.1857(2) 0.58673(18)
C25_7 C 0.3460(3) 0.1838(3) 0.5859(3)
H15_7 H 0.3774 0.1382 0.5591
O20_7 O 0.0839(2) 0.1283(2) 0.7196(2)
H19_7 H 0.1298 0.0928 0.7127
H20_7 H 0.0514 0.1025 0.7537
O12_7 O 0.92744(15) 0.09218(16) 0.62262(18)
O13_7 O 0.8074(2) 0.01681(19) 0.67244(16)
N4_7 N 0.8319(2) 0.2500 0.6250
C19_7 C 0.8441(3) 0.0859(2) 0.6441(2)
C20_7 C 0.7860(2) 0.1713(3) 0.6342(3)
C21_7 C 0.6932(3) 0.1684(4) 0.6352(8)
H13_7 H 0.6618 0.1133 0.6425
C22_7 C 0.6467(5) 0.2500 0.6250
H14_7 H 0.5827 0.2500 0.6250
O18_7 O 0.8074(2) 0.48319(19) 0.57756(16)
C26_7 C 0.8441(3) 0.4141(2) 0.6059(2)
C27_7 C 0.7860(2) 0.3287(3) 0.6158(3)
C28_7 C 0.6932(3) 0.3316(4) 0.6148(8)
H16_7 H 0.6618 0.3867 0.6075
loop_
_geom_bond_atom_site_label_1
_geom_bond_atom_site_label_2
_geom_bond_site_symmetry_1
_geom_bond_site_symmetry_2
La1 O1 1_555 1_555
Sr1 O1 1_555 1_555
O1 C1 1_555 1_555
O2 C1 1_555 1_555
O3 La1 1_555 1_555
O4 C5 1_555 1_555
O5 La1 1_555 1_555
H1 O5 1_555 1_555
H2 O5 1_555 1_555
N1 La1 1_555 1_555
N2 La1 1_555 1_555
C1 C2 1_555 1_555
C2 N1 1_555 1_555
C3 C2 1_555 1_555
H3 C3 1_555 1_555
C4 C3 1_555 1_555
H4 C4 1_555 1_555
C5 O3 1_555 1_555
C6 N2 1_555 1_555
C7 C6 1_555 1_555
H5 C7 1_555 1_555
C8 C7 1_555 1_555
H6 C8 1_555 1_555
O6 La1 1_555 1_555
O7 C9 1_555 1_555
C9 O6 1_555 1_555
C10 N1 1_555 1_555
C11 C4 1_555 1_555
H7 C11 1_555 1_555
O8 La1 1_555 1_555
O9 C12 1_555 1_555
C12 O8 1_555 1_555
C13 N2 1_555 1_555
C14 C8 1_555 1_555
H8 C14 1_555 1_555
O19 La1 1_555 1_555
H17 O19 1_555 1_555
Sr2 O3 1_555 1_555
O21 Sr1 1_555 1_555
O24 La1 1_555 1_555
O26 Sr1 1_555 1_555
Sr1 O8 1_555 1_555
C5 C6 1_555 1_555
O6 Sr2 1_555 1_555
C9 C10 1_555 1_555
C10 C11 1_555 1_555
C12 C13 1_555 1_555
C13 C14 1_555 1_555
La3 O21 1_555 1_555
La3 O26 1_555 1_555
O10 Sr1_2 1_555 1_555
O11 C15 1_555 1_555
O12 La2 1_555 1_555
O13 C19 1_555 1_555
O14 La2 1_555 1_555
H9 O14 1_555 1_555
H10 O14 1_555 1_555
N3 La2 1_555 1_555
N4 La2 1_555 1_555
C15 O10 1_555 1_555
C16 N3 1_555 1_555
C17 C16 1_555 1_555
H11 C17 1_555 1_555
C18 C17 1_555 1_555
H12 C18 1_555 1_555
C19 O12 1_555 1_555
C20 N4 1_555 1_555
C21 C20 1_555 1_555
H13 C21 1_555 1_555
C22 C21 1_555 1_555
H14 C22 1_555 1_555
O15 La2 1_555 1_555
O16 C23 1_555 1_555
C23 O15 1_555 1_555
C24 N3 1_555 1_555
C25 C18 1_555 1_555
H15 C25 1_555 1_555
O17 Sr1_2 1_555 1_555
O18 C26 1_555 1_555
C26 O17 1_555 1_555
C27 N4 1_555 1_555
C28 C22 1_555 1_555
H16 C28 1_555 1_555
O20 La2 1_555 1_555
H19 O20 1_555 1_555
Sr3 O12 1_555 1_555
O22 Sr1_2 1_555 1_555
O25 La2 1_555 1_555
O27 Sr1_2 1_555 1_555
La2 O10 1_555 1_555
La2 O17 1_555 1_555
C15 C16 1_555 1_555
C19 C20 1_555 1_555
O15 Sr3 1_555 1_555
C23 C24 1_555 1_555
C24 C25 1_555 1_555
C26 C27 1_555 1_555
C27 C28 1_555 1_555
O11_2 C15_2 1_555 1_555
O12_2 La3 1_555 1_555
O13_2 C19_2 1_555 1_555
O14_2 La3 1_555 1_555
H9_2 O14_2 1_555 1_555
H10_2 O14_2 1_555 1_555
N3_2 La3 1_555 1_555
N4_2 La3 1_555 1_555
C15_2 O21 1_555 1_555
C16_2 N3_2 1_555 1_555
C17_2 C16_2 1_555 1_555
H11_2 C17_2 1_555 1_555
C18_2 C17_2 1_555 1_555
H12_2 C18_2 1_555 1_555
C19_2 O12_2 1_555 1_555
C20_2 N4_2 1_555 1_555
C21_2 C20_2 1_555 1_555
H13_2 C21_2 1_555 1_555
C22_2 C21_2 1_555 1_555
H14_2 C22_2 1_555 1_555
O15_2 La3 1_555 1_555
O16_2 C23_2 1_555 1_555
C23_2 O15_2 1_555 1_555
C24_2 N3_2 1_555 1_555
C25_2 C18_2 1_555 1_555
H15_2 C25_2 1_555 1_555
O18_2 C26_2 1_555 1_555
C26_2 O26 1_555 1_555
C27_2 N4_2 1_555 1_555
C28_2 C22_2 1_555 1_555
H16_2 C28_2 1_555 1_555
O20_2 La3 1_555 1_555
H19_2 O20_2 1_555 1_555
Sr2_2 O12_2 1_555 1_555
O25_2 La3 1_555 1_555
C15_2 C16_2 1_555 1_555
C19_2 C20_2 1_555 1_555
O15_2 Sr2_2 1_555 1_555
C23_2 C24_2 1_555 1_555
C24_2 C25_2 1_555 1_555
C26_2 C27_2 1_555 1_555
C27_2 C28_2 1_555 1_555
La3_2 O22 1_555 1_555
La3_2 O27 1_555 1_555
O23 C15_3 1_555 1_555
O12_3 La3_2 1_555 1_555
O13_3 C19_3 1_555 1_555
O14_3 La3_2 1_555 1_555
H9_3 O14_3 1_555 1_555
H10_3 O14_3 1_555 1_555
N3_3 La3_2 1_555 1_555
N4_3 La3_2 1_555 1_555
C15_3 O22 1_555 1_555
C16_3 N3_3 1_555 1_555
C17_3 C16_3 1_555 1_555
H11_3 C17_3 1_555 1_555
C18_3 C17_3 1_555 1_555
H12_3 C18_3 1_555 1_555
C19_3 O12_3 1_555 1_555
C20_3 N4_3 1_555 1_555
C21_3 C20_3 1_555 1_555
H13_3 C21_3 1_555 1_555
C22_3 C21_3 1_555 1_555
H14_3 C22_3 1_555 1_555
O15_3 La3_2 1_555 1_555
O16_3 C23_3 1_555 1_555
C23_3 O15_3 1_555 1_555
C24_3 N3_3 1_555 1_555
C25_3 C18_3 1_555 1_555
H15_3 C25_3 1_555 1_555
O18_3 C26_3 1_555 1_555
C26_3 O27 1_555 1_555
C27_3 N4_3 1_555 1_555
C28_3 C22_3 1_555 1_555
H16_3 C28_3 1_555 1_555
O20_3 La3_2 1_555 1_555
H19_3 O20_3 1_555 1_555
Sr3_2 O12_3 1_555 1_555
O25_3 La3_2 1_555 1_555
C15_3 C16_3 1_555 1_555
C19_3 C20_3 1_555 1_555
O15_3 Sr3_2 1_555 1_555
C23_3 C24_3 1_555 1_555
C24_3 C25_3 1_555 1_555
C26_3 C27_3 1_555 1_555
C27_3 C28_3 1_555 1_555
O13_4 C19_4 1_555 1_555
C19_4 O12_4 1_555 1_555
C20_4 N4_4 1_555 1_555
C21_4 C20_4 1_555 1_555
H13_4 C21_4 1_555 1_555
C22_4 C21_4 1_555 1_555
H14_4 C22_4 1_555 1_555
O17_2 Sr2 1_555 1_555
O18_4 C26_4 1_555 1_555
C26_4 O17_2 1_555 1_555
C27_4 N4_4 1_555 1_555
C28_4 C22_4 1_555 1_555
H16_4 C28_4 1_555 1_555
Sr3_3 O12_4 1_555 1_555
O22_2 Sr2 1_555 1_555
C19_4 C20_4 1_555 1_555
C26_4 C27_4 1_555 1_555
C27_4 C28_4 1_555 1_555
O10_2 Sr2_2 1_555 1_555
O25_2 C15_4 1_555 1_555
O14_4 La5 1_555 1_555
H9_4 O14_4 1_555 1_555
H10_4 O14_4 1_555 1_555
N3_4 La5 1_555 1_555
C15_4 O10_2 1_555 1_555
C16_4 N3_4 1_555 1_555
C17_4 C16_4 1_555 1_555
H11_4 C17_4 1_555 1_555
C18_4 C17_4 1_555 1_555
H12_4 C18_4 1_555 1_555
O15_4 La5 1_555 1_555
O16_4 C23_4 1_555 1_555
C23_4 O15_4 1_555 1_555
C24_4 N3_4 1_555 1_555
C25_4 C18_4 1_555 1_555
H15_4 C25_4 1_555 1_555
O20_4 La5 1_555 1_555
H19_4 O20_4 1_555 1_555
H20_4 O20_4 1_555 1_555
O27_2 Sr2_2 1_555 1_555
La5 O10_2 1_555 1_555
C15_4 C16_4 1_555 1_555
O15_4 Sr3_4 1_555 1_555
C23_4 C24_4 1_555 1_555
C24_4 C25_4 1_555 1_555
O13_5 C19_5 1_555 1_555
C19_5 O12_5 1_555 1_555
C20_5 N4_5 1_555 1_555
C21_5 C20_5 1_555 1_555
H13_5 C21_5 1_555 1_555
C22_5 C21_5 1_555 1_555
H14_5 C22_5 1_555 1_555
O17_3 Sr3 1_555 1_555
O18_5 C26_5 1_555 1_555
C26_5 O17_3 1_555 1_555
C27_5 N4_5 1_555 1_555
C28_5 C22_5 1_555 1_555
H16_5 C28_5 1_555 1_555
Sr3_4 O12_5 1_555 1_555
O22_3 Sr3 1_555 1_555
C19_5 C20_5 1_555 1_555
C26_5 C27_5 1_555 1_555
C27_5 C28_5 1_555 1_555
O10_3 Sr3_2 1_555 1_555
O25_3 C15_5 1_555 1_555
O14_5 La4 1_555 1_555
H9_5 O14_5 1_555 1_555
H10_5 O14_5 1_555 1_555
N3_5 La4 1_555 1_555
C15_5 O10_3 1_555 1_555
C16_5 N3_5 1_555 1_555
C17_5 C16_5 1_555 1_555
H11_5 C17_5 1_555 1_555
C18_5 C17_5 1_555 1_555
H12_5 C18_5 1_555 1_555
O15_5 La4 1_555 1_555
O16_5 C23_5 1_555 1_555
C23_5 O15_5 1_555 1_555
C24_5 N3_5 1_555 1_555
C25_5 C18_5 1_555 1_555
H15_5 C25_5 1_555 1_555
O20_5 La4 1_555 1_555
H19_5 O20_5 1_555 1_555
H20_5 O20_5 1_555 1_555
O27_3 Sr3_2 1_555 1_555
La4 O10_3 1_555 1_555
C15_5 C16_5 1_555 1_555
O15_5 Sr3_6 1_555 1_555
C23_5 C24_5 1_555 1_555
C24_5 C25_5 1_555 1_555
O24 C15_6 1_555 1_555
O14_6 La4_2 1_555 1_555
H9_6 O14_6 1_555 1_555
H10_6 O14_6 1_555 1_555
N3_6 La4_2 1_555 1_555
C15_6 O22_2 1_555 1_555
C16_6 N3_6 1_555 1_555
C17_6 C16_6 1_555 1_555
H11_6 C17_6 1_555 1_555
C18_6 C17_6 1_555 1_555
H12_6 C18_6 1_555 1_555
O15_6 La4_2 1_555 1_555
O16_6 C23_6 1_555 1_555
C23_6 O15_6 1_555 1_555
C24_6 N3_6 1_555 1_555
C25_6 C18_6 1_555 1_555
H15_6 C25_6 1_555 1_555
O20_6 La4_2 1_555 1_555
H19_6 O20_6 1_555 1_555
H20_6 O20_6 1_555 1_555
La4_2 O22_2 1_555 1_555
C15_6 C16_6 1_555 1_555
O15_6 Sr3_5 1_555 1_555
C23_6 C24_6 1_555 1_555
C24_6 C25_6 1_555 1_555
O13_6 C19_6 1_555 1_555
C19_6 O12_6 1_555 1_555
C20_6 N4_6 1_555 1_555
C21_6 C20_6 1_555 1_555
H13_6 C21_6 1_555 1_555
C22_6 C21_6 1_555 1_555
H14_6 C22_6 1_555 1_555
O18_6 C26_6 1_555 1_555
C26_6 O27_2 1_555 1_555
C27_6 N4_6 1_555 1_555
C28_6 C22_6 1_555 1_555
H16_6 C28_6 1_555 1_555
Sr3_6 O12_6 1_555 1_555
C19_6 C20_6 1_555 1_555
C26_6 C27_6 1_555 1_555
C27_6 C28_6 1_555 1_555
O25 C15_7 1_555 1_555
O14_7 La4_3 1_555 1_555
H9_7 O14_7 1_555 1_555
H10_7 O14_7 1_555 1_555
N3_7 La4_3 1_555 1_555
C15_7 O22_3 1_555 1_555
C16_7 N3_7 1_555 1_555
C17_7 C16_7 1_555 1_555
H11_7 C17_7 1_555 1_555
C18_7 C17_7 1_555 1_555
H12_7 C18_7 1_555 1_555
O15_7 La4_3 1_555 1_555
O25_4 C23_7 1_555 1_555
C23_7 O15_7 1_555 1_555
C24_7 N3_7 1_555 1_555
C25_7 C18_7 1_555 1_555
H15_7 C25_7 1_555 1_555
O20_7 La4_3 1_555 1_555
H19_7 O20_7 1_555 1_555
H20_7 O20_7 1_555 1_555
La4_3 O22_3 1_555 1_555
C15_7 C16_7 1_555 1_555
O15_7 Sr3_3 1_555 1_555
C23_7 C24_7 1_555 1_555
C24_7 C25_7 1_555 1_555
O13_7 C19_7 1_555 1_555
C19_7 O12_7 1_555 1_555
C20_7 N4_7 1_555 1_555
C21_7 C20_7 1_555 1_555
H13_7 C21_7 1_555 1_555
C22_7 C21_7 1_555 1_555
H14_7 C22_7 1_555 1_555
O18_7 C26_7 1_555 1_555
C26_7 O27_3 1_555 1_555
C27_7 N4_7 1_555 1_555
C28_7 C22_7 1_555 1_555
H16_7 C28_7 1_555 1_555
Sr3_5 O12_7 1_555 1_555
C19_7 C20_7 1_555 1_555
C26_7 C27_7 1_555 1_555
C27_7 C28_7 1_555 1_555

#END
