
###############################################################################
#
# This file contains modified crystal structure data generated from the
# MOF subset of the Cambridge Structural Database (CSD) v543 
# hosted by the Cambridge Crystallographic Data Centre (CCDC).
#
# This work is licensed under the Creative Commons
# Attribution-NonCommercial-ShareAlike 4.0 International License.
# To view a copy of this license, visit
# http://creativecommons.org/licenses/by-nc-sa/4.0/
# or send a letter to
# Creative Commons, PO Box 1866, Mountain View, CA 94042, USA.
#
# CIF created using the CSD Python API on 29 September 2022
# The structure has been converted into the P1 space group
# The structure has a 3D framework
# The original CSD entry ENEPUL is in the monoclinic crystal system
# The framework has been calculated to contain at least 10.0% void space
# The void calculation uses a probe of radius 1.32A, grid spacing 0.4
#
###############################################################################

data_ENEPUL
_chemical_formula_moiety         '(C92 H64 Co2 N16 O16)n'
_symmetry_cell_setting           triclinic
_symmetry_space_group_name_H-M   'P 1'
_symmetry_Int_Tables_number      1
_space_group_name_Hall           'P 1'
loop_
_symmetry_equiv_pos_site_id
_symmetry_equiv_pos_as_xyz
1 x,y,z
_cell_length_a                   13.133(3)
_cell_length_b                   17.129(3)
_cell_length_c                   12.387(2)
_cell_angle_alpha                90
_cell_angle_beta                 97.606(2)
_cell_angle_gamma                90
_cell_volume                     2762
loop_
_atom_site_label
_atom_site_type_symbol
_atom_site_fract_x
_atom_site_fract_y
_atom_site_fract_z
O5 O 0.71852(18) 0.33681(14) 0.33037(19)
O6 O 0.68822(16) 0.33558(13) 0.50033(17)
C30 C 0.2968(2) 0.12716(17) 0.3117(2)
H22 H 0.3087 0.0837 0.3632
N6 N 0.27051(18) 0.09136(13) 0.20302(19)
N7 N 0.2437(2) 0.13287(16) 0.1105(2)
N8 N 0.22293(19) 0.00394(15) 0.0808(2)
C31 C 0.2569(2) 0.01575(19) 0.1836(3)
C32 C 0.2160(3) 0.0775(2) 0.0395(3)
C33 C 0.3952(2) 0.17553(17) 0.3262(2)
C34 C 0.4438(3) 0.1823(2) 0.4309(3)
H25 H 0.4179 0.1558 0.4868
C35 C 0.5299(3) 0.2275(2) 0.4544(3)
H26 H 0.5604 0.2325 0.5262
C36 C 0.5722(2) 0.26575(18) 0.3728(2)
C37 C 0.5256(3) 0.2583(2) 0.2676(3)
H27 H 0.5538 0.2827 0.2114
C38 C 0.4351(3) 0.2139(2) 0.2441(3)
H28 H 0.4024 0.2105 0.1729
C39 C 0.6659(2) 0.31544(18) 0.4016(3)
C40 C 0.2065(2) 0.17326(16) 0.3458(2)
C41 C 0.1687(2) 0.15366(19) 0.4395(3)
H29 H 0.1955 0.1108 0.4797
C42 C 0.0913(2) 0.19683(18) 0.4749(3)
H30 H 0.0663 0.1828 0.5390
C43 C 0.0503(2) 0.26063(17) 0.4166(2)
C44 C 0.0874(3) 0.2813(2) 0.3228(3)
H31 H 0.0605 0.3245 0.2833
C45 C 0.1662(3) 0.2371(2) 0.2861(3)
H32 H 0.1914 0.2508 0.2219
Co6 Co 0.81750(3) 0.39485(2) 0.48563(3)
Co2 Co 0.18250(3) 0.89485(2) 0.01437(3)
H23 H 0.2696 0.9766 0.2357
O10 O 0.28148(18) 0.83681(14) 0.16963(19)
O16 O 0.05273(16) 0.87447(12) 0.08165(18)
O7 O 0.91059(18) 0.27648(13) 0.51909(19)
O8 O 0.94727(16) 0.37447(12) 0.41835(18)
C46 C 0.9646(2) 0.30598(18) 0.4550(2)
H16 H 0.0677 0.5534 0.9698
H18 H 0.0246 0.5338 0.7972
C46_2 C 0.0354(2) 0.80598(18) 0.0450(2)
N5 N 0.86711(19) 0.42321(14) 0.64564(19)
C24 C 0.9397(2) 0.47727(18) 0.6746(2)
H17 H 0.9677 0.5036 0.6198
C25 C 0.9746(3) 0.49561(19) 0.7811(2)
C26 C 0.9350(2) 0.45685(18) 0.8642(2)
C27 C 0.8626(3) 0.39949(19) 0.8342(3)
H19 H 0.8351 0.3710 0.8873
C28 C 0.8314(3) 0.38471(19) 0.7263(3)
H20 H 0.7828 0.3458 0.7083
C29 C 0.9653(3) 0.47433(19) 0.9804(2)
C30_2 C 0.7032(2) 0.62716(17) 0.1883(2)
H22_2 H 0.6913 0.5837 0.1368
N6_2 N 0.72949(18) 0.59136(13) 0.29698(19)
N7_2 N 0.7563(2) 0.63287(16) 0.3895(2)
N8_2 N 0.77707(19) 0.50394(15) 0.4192(2)
C31_2 C 0.7431(2) 0.51575(19) 0.3164(3)
H23_2 H 0.7304 0.4766 0.2643
C32_2 C 0.7840(3) 0.5775(2) 0.4605(3)
H24 H 0.8066 0.5879 0.5334
C33_2 C 0.6048(2) 0.67553(17) 0.1738(2)
C34_2 C 0.5562(3) 0.6823(2) 0.0691(3)
H25_2 H 0.5821 0.6558 0.0132
C35_2 C 0.4701(3) 0.7275(2) 0.0456(3)
C36_2 C 0.4278(2) 0.76575(18) 0.1272(2)
C37_2 C 0.4744(3) 0.7583(2) 0.2324(3)
H27_2 H 0.4462 0.7827 0.2886
C38_2 C 0.5649(3) 0.7139(2) 0.2559(3)
H28_2 H 0.5976 0.7105 0.3271
C39_2 C 0.3341(2) 0.81544(18) 0.0984(3)
C40_2 C 0.7935(2) 0.67326(16) 0.1542(2)
C41_2 C 0.8313(2) 0.65366(19) 0.0605(3)
H29_2 H 0.8045 0.6108 0.0203
C42_2 C 0.9087(2) 0.69683(18) 0.0251(3)
C43_2 C 0.9497(2) 0.76063(17) 0.0834(2)
C44_2 C 0.9126(3) 0.7813(2) 0.1772(3)
H31_2 H 0.9395 0.8245 0.2167
C45_2 C 0.8338(3) 0.7371(2) 0.2139(3)
H32_2 H 0.8086 0.7508 0.2781
H17_2 H 0.0323 0.0036 0.8802
H24_2 H 0.1934 0.0879 0.9666
H13 H 0.0246 0.9662 0.2972
N5_2 N 0.13289(19) 0.92321(14) 0.85436(19)
C24_2 C 0.0603(2) 0.97727(18) 0.8254(2)
C25_2 C 0.0254(3) 0.99561(19) 0.7189(2)
C26_2 C 0.0650(2) 0.95685(18) 0.6358(2)
C27_2 C 0.1374(3) 0.89949(19) 0.6658(3)
H19_2 H 0.1649 0.8710 0.6127
C28_2 C 0.1686(3) 0.88471(19) 0.7737(3)
H20_2 H 0.2172 0.8458 0.7917
C29_2 C 0.0347(3) 0.97433(19) 0.5196(2)
H21 H 0.0677 0.9466 0.4698
O12 O 0.31178(16) 0.83558(13) 0.99967(17)
O14 O 0.08941(18) 0.77648(13) 0.98091(19)
H26_2 H 0.4396 0.7325 0.9738
H30_2 H 0.9337 0.6828 0.9610
O3 O 0.08941(18) 0.72352(13) 0.48091(19)
O4 O 0.05273(16) 0.62553(12) 0.58165(18)
C17 C 0.0354(2) 0.69402(18) 0.5450(2)
Co4 Co 0.18250(3) 0.60515(2) 0.51437(3)
Co1 Co 0.81750(3) 0.10515(2) 0.98563(3)
H2 H 0.7304 0.0234 0.7643
O9 O 0.71852(18) 0.16319(14) 0.83037(19)
O15 O 0.94727(16) 0.12553(12) 0.91835(18)
O1 O 0.28148(18) 0.66319(14) 0.66963(19)
O2 O 0.31178(16) 0.66442(13) 0.49967(17)
C1 C 0.7032(2) 0.87284(17) 0.6883(2)
H1 H 0.6913 0.9163 0.6368
N1 N 0.72949(18) 0.90864(13) 0.79698(19)
N2 N 0.7563(2) 0.86713(16) 0.8895(2)
N3 N 0.77707(19) 0.99606(15) 0.9192(2)
C2 C 0.7431(2) 0.98425(19) 0.8164(3)
C3 C 0.7840(3) 0.9225(2) 0.9605(3)
C4 C 0.6048(2) 0.82447(17) 0.6738(2)
C5 C 0.5562(3) 0.8177(2) 0.5691(3)
H4 H 0.5821 0.8442 0.5132
C6 C 0.4701(3) 0.7725(2) 0.5456(3)
H5 H 0.4396 0.7675 0.4738
C7 C 0.4278(2) 0.73425(18) 0.6272(2)
C8 C 0.4744(3) 0.7417(2) 0.7324(3)
H6 H 0.4462 0.7173 0.7886
C9 C 0.5649(3) 0.7861(2) 0.7559(3)
H7 H 0.5976 0.7895 0.8271
C10 C 0.3341(2) 0.68456(18) 0.5984(3)
C11 C 0.7935(2) 0.82674(16) 0.6542(2)
C12 C 0.8313(2) 0.84634(19) 0.5605(3)
H8 H 0.8045 0.8892 0.5203
C13 C 0.9087(2) 0.80317(18) 0.5251(3)
H9 H 0.9337 0.8172 0.4610
C14 C 0.9497(2) 0.73937(17) 0.5834(2)
C15 C 0.9126(3) 0.7187(2) 0.6772(3)
H10 H 0.9395 0.6755 0.7167
C16 C 0.8338(3) 0.7629(2) 0.7139(3)
H11 H 0.8086 0.7492 0.7781
C1_2 C 0.2968(2) 0.37284(17) 0.8117(2)
H1_2 H 0.3087 0.4163 0.8632
N1_2 N 0.27051(18) 0.40864(13) 0.70302(19)
N2_2 N 0.2437(2) 0.36713(16) 0.6105(2)
N3_2 N 0.22293(19) 0.49606(15) 0.5808(2)
N4 N 0.13289(19) 0.57679(14) 0.35436(19)
C2_2 C 0.2569(2) 0.48425(19) 0.6836(3)
H2_2 H 0.2696 0.5234 0.7357
C3_2 C 0.2160(3) 0.4225(2) 0.5395(3)
H3 H 0.1934 0.4121 0.4666
C4_2 C 0.3952(2) 0.32447(17) 0.8262(2)
C5_2 C 0.4438(3) 0.3177(2) 0.9309(3)
H4_2 H 0.4179 0.3442 0.9868
C6_2 C 0.5299(3) 0.2725(2) 0.9544(3)
C7_2 C 0.5722(2) 0.23425(18) 0.8728(2)
C8_2 C 0.5256(3) 0.2417(2) 0.7676(3)
H6_2 H 0.5538 0.2173 0.7114
C9_2 C 0.4351(3) 0.2861(2) 0.7441(3)
H7_2 H 0.4024 0.2895 0.6729
C10_2 C 0.6659(2) 0.18456(18) 0.9016(3)
C11_2 C 0.2065(2) 0.32674(16) 0.8458(2)
C12_2 C 0.1687(2) 0.34634(19) 0.9395(3)
H8_2 H 0.1955 0.3892 0.9797
C13_2 C 0.0913(2) 0.30317(18) 0.9749(3)
C14_2 C 0.0503(2) 0.23937(17) 0.9166(2)
C15_2 C 0.0874(3) 0.2187(2) 0.8228(3)
H10_2 H 0.0605 0.1755 0.7833
C16_2 C 0.1662(3) 0.2629(2) 0.7861(3)
H11_2 H 0.1914 0.2492 0.7219
C18 C 0.0603(2) 0.52273(18) 0.3254(2)
H12 H 0.0323 0.4964 0.3802
C19 C 0.0254(3) 0.50439(19) 0.2189(2)
C20 C 0.0650(2) 0.54315(18) 0.1358(2)
C21 C 0.1374(3) 0.60051(19) 0.1658(3)
H14 H 0.1649 0.6290 0.1127
C22 C 0.1686(3) 0.61529(19) 0.2737(3)
H15 H 0.2172 0.6542 0.2917
C23 C 0.0347(3) 0.52567(19) 0.0196(2)
C17_2 C 0.9646(2) 0.19402(18) 0.9550(2)
H13_2 H 0.9754 0.4662 0.2028
H21_2 H 0.9323 0.4466 0.0302
N4_2 N 0.86711(19) 0.07679(14) 0.14564(19)
C18_2 C 0.9397(2) 0.02273(18) 0.1746(2)
C19_2 C 0.9746(3) 0.00439(19) 0.2811(2)
C20_2 C 0.9350(2) 0.04315(18) 0.3642(2)
C21_2 C 0.8626(3) 0.10051(19) 0.3342(3)
H14_2 H 0.8351 0.1290 0.3873
C22_2 C 0.8314(3) 0.11529(19) 0.2263(3)
H15_2 H 0.7828 0.1542 0.2083
C23_2 C 0.9653(3) 0.02567(19) 0.4804(2)
H16_2 H 0.9323 0.0534 0.5302
H18_2 H 0.9754 0.0338 0.7028
O11 O 0.68822(16) 0.16442(13) 0.00033(17)
O13 O 0.91059(18) 0.22352(13) 0.01909(19)
H5_2 H 0.5604 0.2675 0.0262
H9_2 H 0.0663 0.3172 0.0390
H3_2 H 0.8066 0.9121 0.0334
H12_2 H 0.9677 0.9964 0.1198
loop_
_geom_bond_atom_site_label_1
_geom_bond_atom_site_label_2
_geom_bond_site_symmetry_1
_geom_bond_site_symmetry_2
O5 C39 1_555 1_555
O6 C39 1_555 1_555
C30 H22 1_555 1_555
N6 C30 1_555 1_555
N7 N6 1_555 1_555
C31 N6 1_555 1_555
C32 N7 1_555 1_555
C33 C30 1_555 1_555
C34 C33 1_555 1_555
H25 C34 1_555 1_555
C35 C34 1_555 1_555
H26 C35 1_555 1_555
C36 C35 1_555 1_555
C37 C36 1_555 1_555
H27 C37 1_555 1_555
C38 C33 1_555 1_555
H28 C38 1_555 1_555
C39 C36 1_555 1_555
C40 C30 1_555 1_555
C41 C40 1_555 1_555
H29 C41 1_555 1_555
C42 C41 1_555 1_555
H30 C42 1_555 1_555
C43 C42 1_555 1_555
C44 C43 1_555 1_555
H31 C44 1_555 1_555
C45 C40 1_555 1_555
H32 C45 1_555 1_555
Co6 O5 1_555 1_555
O6 Co6 1_555 1_555
N8 C31 1_555 1_555
N8 C32 1_555 1_555
C37 C38 1_555 1_555
C44 C45 1_555 1_555
O10 Co2 1_555 1_555
O16 Co2 1_555 1_555
O7 C46 1_555 1_555
O8 C46 1_555 1_555
Co6 O7 1_555 1_555
O8 Co6 1_555 1_555
O16 C46_2 1_555 1_555
N5 C24 1_555 1_555
C24 H17 1_555 1_555
C25 C24 1_555 1_555
C26 C25 1_555 1_555
C27 C26 1_555 1_555
H19 C27 1_555 1_555
C28 N5 1_555 1_555
H20 C28 1_555 1_555
Co6 N5 1_555 1_555
O10 C39_2 1_555 1_555
C30_2 H22_2 1_555 1_555
N6_2 C30_2 1_555 1_555
N7_2 N6_2 1_555 1_555
N8_2 Co6 1_555 1_555
C31_2 N6_2 1_555 1_555
H23_2 C31_2 1_555 1_555
C32_2 N7_2 1_555 1_555
H24 C32_2 1_555 1_555
C33_2 C30_2 1_555 1_555
C34_2 C33_2 1_555 1_555
H25_2 C34_2 1_555 1_555
C35_2 C34_2 1_555 1_555
C36_2 C35_2 1_555 1_555
C37_2 C36_2 1_555 1_555
H27_2 C37_2 1_555 1_555
C38_2 C33_2 1_555 1_555
H28_2 C38_2 1_555 1_555
C39_2 C36_2 1_555 1_555
C40_2 C30_2 1_555 1_555
C41_2 C40_2 1_555 1_555
H29_2 C41_2 1_555 1_555
C42_2 C41_2 1_555 1_555
C43_2 C42_2 1_555 1_555
C44_2 C43_2 1_555 1_555
H31_2 C44_2 1_555 1_555
C45_2 C40_2 1_555 1_555
H32_2 C45_2 1_555 1_555
C26 C29 1_555 1_555
C27 C28 1_555 1_555
N8_2 C31_2 1_555 1_555
N8_2 C32_2 1_555 1_555
C37_2 C38_2 1_555 1_555
C44_2 C45_2 1_555 1_555
N5_2 C24_2 1_555 1_555
C25_2 C24_2 1_555 1_555
C26_2 C25_2 1_555 1_555
C27_2 C26_2 1_555 1_555
H19_2 C27_2 1_555 1_555
C28_2 N5_2 1_555 1_555
H20_2 C28_2 1_555 1_555
H21 C29_2 1_555 1_555
C26_2 C29_2 1_555 1_555
C27_2 C28_2 1_555 1_555
O3 C17 1_555 1_555
O4 C17 1_555 1_555
Co4 O3 1_555 1_555
O4 Co4 1_555 1_555
O9 Co1 1_555 1_555
O15 Co1 1_555 1_555
O1 C10 1_555 1_555
O2 C10 1_555 1_555
C1 H1 1_555 1_555
N1 C1 1_555 1_555
N2 N1 1_555 1_555
N3 C2 1_555 1_555
C2 N1 1_555 1_555
C3 N2 1_555 1_555
C4 C1 1_555 1_555
C5 C4 1_555 1_555
H4 C5 1_555 1_555
C6 C5 1_555 1_555
H5 C6 1_555 1_555
C7 C6 1_555 1_555
C8 C7 1_555 1_555
H6 C8 1_555 1_555
C9 C4 1_555 1_555
H7 C9 1_555 1_555
C10 C7 1_555 1_555
C11 C1 1_555 1_555
C12 C11 1_555 1_555
H8 C12 1_555 1_555
C13 C12 1_555 1_555
H9 C13 1_555 1_555
C14 C13 1_555 1_555
C15 C14 1_555 1_555
H10 C15 1_555 1_555
C16 C11 1_555 1_555
H11 C16 1_555 1_555
Co4 O1 1_555 1_555
O2 Co4 1_555 1_555
N3 C3 1_555 1_555
C8 C9 1_555 1_555
C15 C16 1_555 1_555
Co4 N3_2 1_555 1_555
O9 C10_2 1_555 1_555
C1_2 H1_2 1_555 1_555
N1_2 C1_2 1_555 1_555
N2_2 N1_2 1_555 1_555
N3_2 C2_2 1_555 1_555
N4 Co4 1_555 1_555
C2_2 N1_2 1_555 1_555
H2_2 C2_2 1_555 1_555
C3_2 N2_2 1_555 1_555
H3 C3_2 1_555 1_555
C4_2 C1_2 1_555 1_555
C5_2 C4_2 1_555 1_555
H4_2 C5_2 1_555 1_555
C6_2 C5_2 1_555 1_555
C7_2 C6_2 1_555 1_555
C8_2 C7_2 1_555 1_555
H6_2 C8_2 1_555 1_555
C9_2 C4_2 1_555 1_555
H7_2 C9_2 1_555 1_555
C10_2 C7_2 1_555 1_555
C11_2 C1_2 1_555 1_555
C12_2 C11_2 1_555 1_555
H8_2 C12_2 1_555 1_555
C13_2 C12_2 1_555 1_555
C14_2 C13_2 1_555 1_555
C15_2 C14_2 1_555 1_555
H10_2 C15_2 1_555 1_555
C16_2 C11_2 1_555 1_555
H11_2 C16_2 1_555 1_555
C18 N4 1_555 1_555
H12 C18 1_555 1_555
C19 C18 1_555 1_555
C20 C19 1_555 1_555
C21 C20 1_555 1_555
H14 C21 1_555 1_555
C22 N4 1_555 1_555
H15 C22 1_555 1_555
C23 C20 1_555 1_555
N3_2 C3_2 1_555 1_555
C8_2 C9_2 1_555 1_555
C15_2 C16_2 1_555 1_555
C21 C22 1_555 1_555
O15 C17_2 1_555 1_555
C18_2 N4_2 1_555 1_555
C19_2 C18_2 1_555 1_555
C20_2 C19_2 1_555 1_555
C21_2 C20_2 1_555 1_555
H14_2 C21_2 1_555 1_555
C22_2 N4_2 1_555 1_555
H15_2 C22_2 1_555 1_555
C23_2 C20_2 1_555 1_555
H16_2 C23_2 1_555 1_555
C21_2 C22_2 1_555 1_555

#END
