
###############################################################################
#
# This file contains modified crystal structure data generated from the
# MOF subset of the Cambridge Structural Database (CSD) v543 
# hosted by the Cambridge Crystallographic Data Centre (CCDC).
#
# This work is licensed under the Creative Commons
# Attribution-NonCommercial-ShareAlike 4.0 International License.
# To view a copy of this license, visit
# http://creativecommons.org/licenses/by-nc-sa/4.0/
# or send a letter to
# Creative Commons, PO Box 1866, Mountain View, CA 94042, USA.
#
# CIF created using the CSD Python API on 29 September 2022
# The structure has been converted into the P1 space group
# The structure has a 3D framework
# The original CSD entry ENIBOU is in the monoclinic crystal system
# The framework has been calculated to contain at least 10.0% void space
# The void calculation uses a probe of radius 1.32A, grid spacing 0.4
#
###############################################################################

data_ENIBOU
_chemical_formula_moiety         '(C40 H48 Cd9 Cl4 N16 O20)n'
_symmetry_cell_setting           triclinic
_symmetry_space_group_name_H-M   'P 1'
_symmetry_Int_Tables_number      1
_space_group_name_Hall           'P 1'
loop_
_symmetry_equiv_pos_site_id
_symmetry_equiv_pos_as_xyz
1 x,y,z
_cell_length_a                   9.587(2)
_cell_length_b                   14.232(3)
_cell_length_c                   12.454(3)
_cell_angle_alpha                90
_cell_angle_beta                 104.760(5)
_cell_angle_gamma                90
_cell_volume                     1643.18
loop_
_atom_site_label
_atom_site_type_symbol
_atom_site_fract_x
_atom_site_fract_y
_atom_site_fract_z
Cd9 Cd -0.0000 -0.0000 0.0000
Cd9_2 Cd -0.0000 -0.0000 1.0000
C10 C 0.0069(8) 0.2756(6) 0.6565(7)
H11 H 0.0861 0.2359 0.6923
H12 H 0.0381 0.3399 0.6619
Cd9_3 Cd -0.0000 1.0000 0.0000
H15 H 0.0268 0.7880 0.9677
H18 H 0.0200 0.6039 0.9834
Cd9_4 Cd -0.0000 1.0000 1.0000
Cd5 Cd 0.02415(5) 0.08948(3) 0.30513(4)
Cd9_5 Cd 1.0000 -0.0000 0.0000
Cd9_6 Cd 1.0000 -0.0000 1.0000
H1 H 0.6060 0.4722 0.0283
H2 H 0.7348 0.4394 0.0040
N2 N 0.0496(6) 0.2246(4) 0.0093(5)
H8 H 0.1431 0.4236 0.0587
Cd1 Cd 0.52415(5) 0.41052(3) 0.80513(4)
Cd2 Cd 0.5000 0.5000 0.5000
Cl1 Cl 0.33900(19) 0.41286(12) 0.60640(16)
O1 O 0.4117(5) 0.2738(4) 0.8469(5)
O2 O 0.3167(6) 0.4072(3) 0.8821(4)
O3 O 0.8362(6) 0.0301(3) 0.8168(5)
O4 O 0.9514(7) 0.0658(4) 0.6886(5)
O5 O 0.6428(8) 0.4261(4) 0.9962(6)
N1 N 0.1024(6) 0.1415(4) 0.9809(5)
N3 N 0.7056(6) 0.3156(4) 0.7801(5)
N4 N 0.8084(6) 0.3393(4) 0.7290(5)
H4 H 0.8435 0.3849 0.6973
C1 C 0.3195(7) 0.3175(5) 0.8832(6)
C2 C 0.2167(7) 0.2648(4) 0.9276(5)
C3 C 0.2041(7) 0.1660(5) 0.9325(6)
H5 H 0.2604 0.1237 0.9050
C4 C 0.1131(7) 0.2997(4) 0.9774(6)
C5 C 0.0713(9) 0.3969(5) 0.9982(8)
H7 H 0.0637 0.4342 0.9327
C6 C 0.8769(8) 0.0873(5) 0.7549(6)
C7 C 0.8315(7) 0.1882(5) 0.7565(6)
C8 C 0.7224(8) 0.2234(5) 0.7986(6)
H9 H 0.6677 0.1875 0.8352
C9 C 0.8877(7) 0.2644(5) 0.7114(6)
H10 H 0.9737 0.2582 0.5797
Cd3 Cd 0.47585(5) 0.58948(3) 0.19487(4)
Cl2 Cl 0.66100(19) 0.58714(12) 0.39360(16)
O6 O 0.5883(5) 0.7262(4) 0.1531(5)
O7 O 0.6833(6) 0.5928(3) 0.1179(4)
O8 O 0.1638(6) 0.9699(3) 0.1832(5)
O9 O 0.0486(7) 0.9342(4) 0.3114(5)
O10 O 0.3572(8) 0.5739(4) 0.0038(6)
N5 N 0.8976(6) 0.8585(4) 0.0191(5)
N7 N 0.2944(6) 0.6844(4) 0.2199(5)
N8 N 0.1916(6) 0.6607(4) 0.2710(5)
H16 H 0.1565 0.6151 0.3027
C11 C 0.6805(7) 0.6825(5) 0.1168(6)
C12 C 0.7833(7) 0.7352(4) 0.0724(5)
C13 C 0.7959(7) 0.8340(5) 0.0675(6)
H17 H 0.7396 0.8763 0.0950
C14 C 0.8869(7) 0.7003(4) 0.0226(6)
C15 C 0.9287(9) 0.6031(5) 0.0018(8)
H19 H 0.9363 0.5658 0.0673
C16 C 0.1231(8) 0.9127(5) 0.2451(6)
C17 C 0.1685(7) 0.8118(5) 0.2435(6)
C18 C 0.2776(8) 0.7766(5) 0.2014(6)
H21 H 0.3323 0.8125 0.1648
C19 C 0.1123(7) 0.7356(5) 0.2886(6)
H22 H 0.0263 0.7418 0.4203
Cd9_7 Cd 1.0000 1.0000 0.0000
O11 O 0.6638(6) 0.5301(3) 0.6832(5)
O12 O 0.3362(6) 0.4699(3) 0.3168(5)
O13 O 0.5486(7) 0.5658(4) 0.8114(5)
O14 O 0.4514(7) 0.4342(4) 0.1886(5)
N9 N 0.3976(6) 0.6415(4) 0.5191(5)
N10 N 0.6024(6) 0.3585(4) 0.4809(5)
H13 H 0.3940 0.5278 0.9717
H14 H 0.2652 0.5606 0.9960
N6 N 0.9504(6) 0.7754(4) 0.9907(5)
H20 H 0.8569 0.5764 0.9413
Cd9_8 Cd 1.0000 1.0000 1.0000
Cd4 Cd 0.97585(5) 0.91052(3) 0.69487(4)
H3 H 0.9732 0.2120 0.0323
H6 H 0.9800 0.3961 0.0166
C20 C 0.9931(8) 0.7244(6) 0.3435(7)
H23 H 0.9139 0.7641 0.3077
H24 H 0.9619 0.6601 0.3381
O10_2 O 0.1428(8) 0.0739(4) 0.4962(6)
H13_2 H 0.1060 0.0278 0.5283
H14_2 H 0.2348 0.0606 0.5040
N7_2 N 0.2056(6) 0.1844(4) 0.2801(5)
N8_2 N 0.3084(6) 0.1607(4) 0.2290(5)
H16_2 H 0.3435 0.1151 0.1973
C16_2 C 0.3769(8) 0.4127(5) 0.2549(6)
C17_2 C 0.3315(7) 0.3118(5) 0.2565(6)
C18_2 C 0.2224(8) 0.2766(5) 0.2986(6)
H21_2 H 0.1677 0.3125 0.3352
C19_2 C 0.3877(7) 0.2356(5) 0.2114(6)
C20_2 C 0.5069(8) 0.2244(6) 0.1565(7)
H22_2 H 0.4737 0.2418 0.0797
H23_2 H 0.5861 0.2641 0.1923
H24_2 H 0.5381 0.1601 0.1619
Cl1_2 Cl 0.16100(19) 0.91286(12) 0.89360(16)
O1_2 O 0.0883(5) 0.7738(4) 0.6531(5)
O2_2 O 0.1833(6) 0.9072(3) 0.6179(4)
N2_2 N 0.4504(6) 0.7246(4) 0.4907(5)
H3_2 H 0.5268 0.7120 0.4677
C1_2 C 0.1805(7) 0.8175(5) 0.6168(6)
C2_2 C 0.2833(7) 0.7648(4) 0.5724(5)
C3_2 C 0.2959(7) 0.6660(5) 0.5675(6)
H5_2 H 0.2396 0.6237 0.5950
C4_2 C 0.3869(7) 0.7997(4) 0.5226(6)
C5_2 C 0.4287(9) 0.8969(5) 0.5018(8)
H6_2 H 0.5200 0.8961 0.4834
H7_2 H 0.4363 0.9342 0.5673
H8_2 H 0.3569 0.9236 0.4413
Cl2_2 Cl 0.83900(19) 0.08714(12) 0.10640(16)
O6_2 O 0.9117(5) 0.2262(4) 0.3469(5)
O7_2 O 0.8167(6) 0.0928(3) 0.3821(4)
N6_2 N 0.5496(6) 0.2754(4) 0.5093(5)
H15_2 H 0.4732 0.2880 0.5323
C11_2 C 0.8195(7) 0.1825(5) 0.3832(6)
C12_2 C 0.7167(7) 0.2352(4) 0.4276(5)
C13_2 C 0.7041(7) 0.3340(5) 0.4325(6)
H17_2 H 0.7604 0.3763 0.4050
C14_2 C 0.6131(7) 0.2003(4) 0.4774(6)
C15_2 C 0.5713(9) 0.1031(5) 0.4982(8)
H18_2 H 0.4800 0.1039 0.5166
H19_2 H 0.5637 0.0658 0.4327
H20_2 H 0.6431 0.0764 0.5587
O5_2 O 0.8572(8) 0.9261(4) 0.5038(6)
H1_2 H 0.8940 0.9722 0.4717
H2_2 H 0.7652 0.9394 0.4960
N3_2 N 0.7944(6) 0.8156(4) 0.7199(5)
N4_2 N 0.6916(6) 0.8393(4) 0.7710(5)
H4_2 H 0.6565 0.8849 0.8027
C6_2 C 0.6231(8) 0.5873(5) 0.7451(6)
C7_2 C 0.6685(7) 0.6882(5) 0.7435(6)
C8_2 C 0.7776(8) 0.7234(5) 0.7014(6)
H9_2 H 0.8323 0.6875 0.6648
C9_2 C 0.6123(7) 0.7644(5) 0.7886(6)
C10_2 C 0.4931(8) 0.7756(6) 0.8435(7)
H10_2 H 0.5263 0.7582 0.9203
H11_2 H 0.4139 0.7359 0.8077
H12_2 H 0.4619 0.8399 0.8381
loop_
_geom_bond_atom_site_label_1
_geom_bond_atom_site_label_2
_geom_bond_site_symmetry_1
_geom_bond_site_symmetry_2
H11 C10 1_555 1_555
H12 C10 1_555 1_555
Cd1 Cl1 1_555 1_555
Cd2 Cl1 1_555 1_555
O1 Cd1 1_555 1_555
O2 Cd1 1_555 1_555
O3 C6 1_555 1_555
O4 C6 1_555 1_555
O5 Cd1 1_555 1_555
N3 Cd1 1_555 1_555
N4 N3 1_555 1_555
H4 N4 1_555 1_555
C1 O1 1_555 1_555
C2 C1 1_555 1_555
C3 N1 1_555 1_555
H5 C3 1_555 1_555
C5 C4 1_555 1_555
H7 C5 1_555 1_555
C6 C7 1_555 1_555
C7 C8 1_555 1_555
C8 N3 1_555 1_555
H9 C8 1_555 1_555
C9 N4 1_555 1_555
Cd3 Cl2 1_555 1_555
Cl2 Cd2 1_555 1_555
O6 Cd3 1_555 1_555
O7 Cd3 1_555 1_555
O8 C16 1_555 1_555
O9 C16 1_555 1_555
O10 Cd3 1_555 1_555
N7 Cd3 1_555 1_555
N8 N7 1_555 1_555
H16 N8 1_555 1_555
C11 O6 1_555 1_555
C12 C11 1_555 1_555
C13 N5 1_555 1_555
H17 C13 1_555 1_555
C15 C14 1_555 1_555
H19 C15 1_555 1_555
C16 C17 1_555 1_555
C17 C18 1_555 1_555
C18 N7 1_555 1_555
H21 C18 1_555 1_555
C19 N8 1_555 1_555
Cd9_2 N1 1_555 1_555
Cd9_3 O8 1_555 1_555
Cd9_6 O3 1_555 1_555
Cd9_7 N5 1_555 1_555
O11 Cd2 1_555 1_555
O12 Cd2 1_555 1_555
O13 Cd1 1_555 1_555
O14 Cd3 1_555 1_555
N9 Cd2 1_555 1_555
N10 Cd2 1_555 1_555
O2 C1 1_555 1_555
C2 C3 1_555 1_555
C2 C4 1_555 1_555
C7 C9 1_555 1_555
O7 C11 1_555 1_555
C12 C13 1_555 1_555
C12 C14 1_555 1_555
C17 C19 1_555 1_555
H23 C20 1_555 1_555
H24 C20 1_555 1_555
O12 C16_2 1_555 1_555
O14 C16_2 1_555 1_555
O10_2 Cd5 1_555 1_555
H13_2 O10_2 1_555 1_555
H14_2 O10_2 1_555 1_555
N7_2 Cd5 1_555 1_555
N8_2 N7_2 1_555 1_555
H16_2 N8_2 1_555 1_555
C16_2 C17_2 1_555 1_555
C17_2 C18_2 1_555 1_555
C18_2 N7_2 1_555 1_555
H21_2 C18_2 1_555 1_555
C19_2 N8_2 1_555 1_555
C20_2 C19_2 1_555 1_555
H22_2 C20_2 1_555 1_555
H23_2 C20_2 1_555 1_555
H24_2 C20_2 1_555 1_555
C17_2 C19_2 1_555 1_555
Cd9_4 Cl1_2 1_555 1_555
N9 N2_2 1_555 1_555
N2_2 H3_2 1_555 1_555
C1_2 O1_2 1_555 1_555
C2_2 C1_2 1_555 1_555
C3_2 N9 1_555 1_555
H5_2 C3_2 1_555 1_555
C4_2 N2_2 1_555 1_555
C5_2 C4_2 1_555 1_555
H6_2 C5_2 1_555 1_555
H7_2 C5_2 1_555 1_555
H8_2 C5_2 1_555 1_555
O2_2 C1_2 1_555 1_555
C2_2 C3_2 1_555 1_555
C2_2 C4_2 1_555 1_555
Cl2_2 Cd9_5 1_555 1_555
N10 N6_2 1_555 1_555
N6_2 H15_2 1_555 1_555
C11_2 O6_2 1_555 1_555
C12_2 C11_2 1_555 1_555
C13_2 N10 1_555 1_555
H17_2 C13_2 1_555 1_555
C14_2 N6_2 1_555 1_555
C15_2 C14_2 1_555 1_555
H18_2 C15_2 1_555 1_555
H19_2 C15_2 1_555 1_555
H20_2 C15_2 1_555 1_555
O7_2 C11_2 1_555 1_555
C12_2 C13_2 1_555 1_555
C12_2 C14_2 1_555 1_555
O11 C6_2 1_555 1_555
O13 C6_2 1_555 1_555
O5_2 Cd4 1_555 1_555
H1_2 O5_2 1_555 1_555
H2_2 O5_2 1_555 1_555
N3_2 Cd4 1_555 1_555
N4_2 N3_2 1_555 1_555
H4_2 N4_2 1_555 1_555
C6_2 C7_2 1_555 1_555
C7_2 C8_2 1_555 1_555
C8_2 N3_2 1_555 1_555
H9_2 C8_2 1_555 1_555
C9_2 N4_2 1_555 1_555
C10_2 C9_2 1_555 1_555
H10_2 C10_2 1_555 1_555
H11_2 C10_2 1_555 1_555
H12_2 C10_2 1_555 1_555
C7_2 C9_2 1_555 1_555

#END
