
###############################################################################
#
# This file contains modified crystal structure data generated from the
# MOF subset of the Cambridge Structural Database (CSD) v543 
# hosted by the Cambridge Crystallographic Data Centre (CCDC).
#
# This work is licensed under the Creative Commons
# Attribution-NonCommercial-ShareAlike 4.0 International License.
# To view a copy of this license, visit
# http://creativecommons.org/licenses/by-nc-sa/4.0/
# or send a letter to
# Creative Commons, PO Box 1866, Mountain View, CA 94042, USA.
#
# CIF created using the CSD Python API on 29 September 2022
# The structure has been converted into the P1 space group
# The structure has a 3D framework
# The original CSD entry EPEWAY01 is in the tetragonal crystal system
# The original CSD entry EPEWAY01 is in a Sohncke space group
# The framework has been calculated to contain at least 10.0% void space
# The void calculation uses a probe of radius 1.32A, grid spacing 0.4
#
###############################################################################

data_EPEWAY01
_chemical_formula_moiety         '(C88 H80 Co8 N16 O40)n'
_symmetry_cell_setting           triclinic
_symmetry_space_group_name_H-M   'P 1'
_symmetry_Int_Tables_number      1
_space_group_name_Hall           'P 1'
loop_
_symmetry_equiv_pos_site_id
_symmetry_equiv_pos_as_xyz
1 x,y,z
_cell_length_a                   11.3358(2)
_cell_length_b                   11.3358(2)
_cell_length_c                   24.9541(9)
_cell_angle_alpha                90
_cell_angle_beta                 90
_cell_angle_gamma                90
_cell_volume                     3206.61
loop_
_atom_site_label
_atom_site_type_symbol
_atom_site_fract_x
_atom_site_fract_y
_atom_site_fract_z
Co4 Co 0.40050(14) 0.59950(14) 0.1250
Co7 Co 0.29241(19) 0.5000 0.2500
O9 O 0.2179(5) 0.6012(7) 0.1255(2)
O12 O 0.1667(7) 0.5963(8) 0.2116(2)
C15 C 0.0199(11) 0.6218(11) 0.1465(3)
H15 H 0.0444 0.6782 0.0692
C19 C 0.1444(10) 0.6043(10) 0.1615(4)
O1 O 0.2904(7) 0.3690(7) 0.1924(2)
O2 O 0.4057(6) 0.4188(7) 0.1231(2)
O5 O 0.4006(7) 0.5719(7) 0.0380(2)
N2 N 0.2238(9) 0.4714(10) 0.0286(4)
H2 H 0.1863 0.5064 0.0541
C1 C 0.3556(11) 0.2215(11) 0.1359(4)
C2 C 0.3968(13) 0.1907(11) 0.0829(3)
H3 H 0.4177 0.2490 0.0585
C3 C 0.4048(13) 0.0701(11) 0.0691(4)
H4 H 0.4295 0.0508 0.0346
C5 C 0.3397(14) 0.0142(12) 0.1560(4)
C6 C 0.3287(12) 0.1263(9) 0.1706(4)
H6 H 0.3023 0.1431 0.2051
C7 C 0.3515(12) 0.3448(11) 0.1506(3)
C9 C 0.3327(12) 0.4937(10) 0.0153(3)
H10 H 0.1589 0.3078 0.0151
Co6 Co 0.5000 0.70759(19) 0.0000
O6 O 0.6310(7) 0.7096(7) 0.0576(2)
O7 O 0.2904(7) 0.6310(7) 0.3076(2)
O8 O 0.5812(7) 0.5943(6) 0.1269(2)
O10 O 0.3988(7) 0.7821(5) 0.1245(2)
O13 O 0.1667(7) 0.4037(8) 0.2884(2)
O15 O 0.4281(7) 0.5994(7) 0.2120(2)
O16 O 0.4281(7) 0.4006(7) 0.2880(2)
N3 N 0.5701(9) 0.6278(11) 0.2765(4)
H11 H 0.5702 0.5570 0.2889
N4 N 0.5286(10) 0.7762(9) 0.2214(4)
H12 H 0.4936 0.8137 0.1959
C12 C 0.7785(11) 0.6444(11) 0.1141(4)
C13 C 0.8093(11) 0.6032(13) 0.1671(3)
H13 H 0.7510 0.5823 0.1915
C14 C 0.9299(11) 0.5952(13) 0.1809(4)
H14 H 0.9492 0.5705 0.2154
C16 C 0.9858(12) 0.6603(14) 0.0940(4)
C17 C 0.8737(9) 0.6713(12) 0.0794(4)
H16 H 0.8569 0.6977 0.0449
C18 C 0.6552(11) 0.6485(12) 0.0994(3)
C20 C 0.5063(10) 0.6673(12) 0.2347(3)
C21 C 0.6416(14) 0.7303(12) 0.2979(5)
H17 H 0.7246 0.7101 0.3006
H18 H 0.6132 0.7553 0.3327
C22 C 0.6210(14) 0.8262(12) 0.2553(5)
H19 H 0.5950 0.8993 0.2717
H20 H 0.6922 0.8411 0.2349
N1 N 0.3722(11) 0.4299(9) 0.9735(4)
H1 H 0.4430 0.4298 0.9611
C10 C 0.2697(12) 0.3584(14) 0.9521(5)
H7 H 0.2899 0.2754 0.9494
H8 H 0.2447 0.3868 0.9173
C11 C 0.1738(12) 0.3790(14) 0.9947(5)
H9 H 0.1007 0.4050 0.9783
Co6_2 Co 0.5000 0.70759(19) 1.0000
O4 O 0.4037(8) 0.8333(7) 0.0384(2)
C4 C 0.3782(11) 0.9801(11) 0.1035(3)
H5 H 0.3218 0.9556 0.1808
C8 C 0.3957(10) 0.8556(10) 0.0885(4)
O3 O 0.2179(5) 0.3988(7) 0.3745(2)
C4_2 C 0.0199(11) 0.3782(11) 0.3535(3)
H5_2 H 0.0444 0.3218 0.4308
C8_2 C 0.1444(10) 0.3957(10) 0.3385(4)
Co3 Co 0.40050(14) 0.40050(14) 0.3750
Co7_2 Co 0.5000 0.29241(19) 0.5000
O9_2 O 0.3988(7) 0.2179(5) 0.3755(2)
O12_2 O 0.4037(8) 0.1667(7) 0.4616(2)
C15_2 C 0.3782(11) 0.0199(11) 0.3965(3)
H15_2 H 0.3218 0.0444 0.3192
C19_2 C 0.3957(10) 0.1444(10) 0.4115(4)
O1_2 O 0.6310(7) 0.2904(7) 0.4424(2)
O2_2 O 0.5812(7) 0.4057(6) 0.3731(2)
N1_2 N 0.5701(9) 0.3722(11) 0.2235(4)
H1_2 H 0.5702 0.4430 0.2111
N2_2 N 0.5286(10) 0.2238(9) 0.2786(4)
H2_2 H 0.4936 0.1863 0.3041
C1_2 C 0.7785(11) 0.3556(11) 0.3859(4)
C2_2 C 0.8093(11) 0.3968(13) 0.3329(3)
H3_2 H 0.7510 0.4177 0.3085
C3_2 C 0.9299(11) 0.4048(13) 0.3191(4)
H4_2 H 0.9492 0.4295 0.2846
C5_2 C 0.9858(12) 0.3397(14) 0.4060(4)
C6_2 C 0.8737(9) 0.3287(12) 0.4206(4)
H6_2 H 0.8569 0.3023 0.4551
C7_2 C 0.6552(11) 0.3515(12) 0.4006(3)
C9_2 C 0.5063(10) 0.3327(12) 0.2653(3)
C10_2 C 0.6416(14) 0.2697(12) 0.2021(5)
H7_2 H 0.7246 0.2899 0.1994
H8_2 H 0.6132 0.2447 0.1673
C11_2 C 0.6210(14) 0.1738(12) 0.2447(5)
H9_2 H 0.5950 0.1007 0.2283
H10_2 H 0.6922 0.1589 0.2651
O7_2 O 0.3690(7) 0.2904(7) 0.5576(2)
O8_2 O 0.4057(6) 0.5812(7) 0.3769(2)
O13_2 O 0.5963(8) 0.1667(7) 0.5384(2)
O15_2 O 0.4006(7) 0.4281(7) 0.4620(2)
O16_2 O 0.5994(7) 0.4281(7) 0.5380(2)
N3_2 N 0.3722(11) 0.5701(9) 0.5265(4)
H11_2 H 0.4430 0.5702 0.5389
N4_2 N 0.2238(9) 0.5286(10) 0.4714(4)
H12_2 H 0.1863 0.4936 0.4459
C12_2 C 0.3556(11) 0.7785(11) 0.3641(4)
C13_2 C 0.3968(13) 0.8093(11) 0.4171(3)
H13_2 H 0.4177 0.7510 0.4415
C14_2 C 0.4048(13) 0.9299(11) 0.4309(4)
H14_2 H 0.4295 0.9492 0.4654
C16_2 C 0.3397(14) 0.9858(12) 0.3440(4)
C17_2 C 0.3287(12) 0.8737(9) 0.3294(4)
H16_2 H 0.3023 0.8569 0.2949
C18_2 C 0.3515(12) 0.6552(11) 0.3494(3)
C20_2 C 0.3327(12) 0.5063(10) 0.4847(3)
C21_2 C 0.2697(12) 0.6416(14) 0.5479(5)
H17_2 H 0.2899 0.7246 0.5506
H18_2 H 0.2447 0.6132 0.5827
C22_2 C 0.1738(12) 0.6210(14) 0.5053(5)
H19_2 H 0.1007 0.5950 0.5217
H20_2 H 0.1589 0.6922 0.4849
O3_2 O 0.6012(7) 0.2179(5) 0.6245(2)
C4_3 C 0.6218(11) 0.0199(11) 0.6035(3)
H5_3 H 0.6782 0.0444 0.6808
C8_3 C 0.6043(10) 0.1444(10) 0.5885(4)
Co3_2 Co 0.59950(14) 0.40050(14) 0.6250
Co2 Co 0.70759(19) 0.5000 0.7500
O1_3 O 0.7096(7) 0.6310(7) 0.6924(2)
O2_3 O 0.5943(6) 0.5812(7) 0.6231(2)
N1_3 N 0.6278(11) 0.5701(9) 0.4735(4)
H1_3 H 0.5570 0.5702 0.4611
N2_3 N 0.7762(9) 0.5286(10) 0.5286(4)
H2_3 H 0.8137 0.4936 0.5541
C1_3 C 0.6444(11) 0.7785(11) 0.6359(4)
C2_3 C 0.6032(13) 0.8093(11) 0.5829(3)
H3_3 H 0.5823 0.7510 0.5585
C3_3 C 0.5952(13) 0.9299(11) 0.5691(4)
H4_3 H 0.5705 0.9492 0.5346
C5_3 C 0.6603(14) 0.9858(12) 0.6560(4)
C6_3 C 0.6713(12) 0.8737(9) 0.6706(4)
H6_3 H 0.6977 0.8569 0.7051
C7_3 C 0.6485(12) 0.6552(11) 0.6506(3)
C9_3 C 0.6673(12) 0.5063(10) 0.5153(3)
C10_3 C 0.7303(12) 0.6416(14) 0.4521(5)
H7_3 H 0.7101 0.7246 0.4494
H8_3 H 0.7553 0.6132 0.4173
C11_3 C 0.8262(12) 0.6210(14) 0.4947(5)
H9_3 H 0.8993 0.5950 0.4783
H10_3 H 0.8411 0.6922 0.5151
O7_3 O 0.7096(7) 0.3690(7) 0.8076(2)
O8_3 O 0.4188(7) 0.4057(6) 0.6269(2)
O11 O 0.7821(5) 0.3988(7) 0.6255(2)
O13_3 O 0.8333(7) 0.5963(8) 0.7884(2)
O14 O 0.8333(7) 0.4037(8) 0.7116(2)
O15_3 O 0.5719(7) 0.4006(7) 0.7120(2)
O16_3 O 0.5719(7) 0.5994(7) 0.7880(2)
N3_3 N 0.4299(9) 0.3722(11) 0.7765(4)
H11_3 H 0.4298 0.4430 0.7889
N4_3 N 0.4714(10) 0.2238(9) 0.7214(4)
H12_3 H 0.5064 0.1863 0.6959
C12_3 C 0.2215(11) 0.3556(11) 0.6141(4)
C13_3 C 0.1907(11) 0.3968(13) 0.6671(3)
H13_3 H 0.2490 0.4177 0.6915
C14_3 C 0.0701(11) 0.4048(13) 0.6809(4)
H14_3 H 0.0508 0.4295 0.7154
C16_3 C 0.0142(12) 0.3397(14) 0.5940(4)
C17_3 C 0.1263(9) 0.3287(12) 0.5794(4)
H16_3 H 0.1431 0.3023 0.5449
C18_3 C 0.3448(11) 0.3515(12) 0.5994(3)
C20_3 C 0.4937(10) 0.3327(12) 0.7347(3)
C21_3 C 0.3584(14) 0.2697(12) 0.7979(5)
H17_3 H 0.2754 0.2899 0.8006
H18_3 H 0.3868 0.2447 0.8327
C22_3 C 0.3790(14) 0.1738(12) 0.7553(5)
H19_3 H 0.4050 0.1007 0.7717
H20_3 H 0.3078 0.1589 0.7349
C15_3 C 0.9801(11) 0.3782(11) 0.6465(3)
H15_3 H 0.9556 0.3218 0.5692
C19_3 C 0.8556(10) 0.3957(10) 0.6615(4)
N3_4 N 0.6278(11) 0.4299(9) 0.0265(4)
H11_4 H 0.5570 0.4298 0.0389
C21_4 C 0.7303(12) 0.3584(14) 0.0479(5)
H17_4 H 0.7101 0.2754 0.0506
H18_4 H 0.7553 0.3868 0.0827
C22_4 C 0.8262(12) 0.3790(14) 0.0053(5)
H19_4 H 0.8993 0.4050 0.0217
Co1 Co 0.59950(14) 0.59950(14) 0.8750
O1_4 O 0.3690(7) 0.7096(7) 0.9424(2)
O2_4 O 0.4188(7) 0.5943(6) 0.8731(2)
N1_4 N 0.4299(9) 0.6278(11) 0.7235(4)
H1_4 H 0.4298 0.5570 0.7111
N2_4 N 0.4714(10) 0.7762(9) 0.7786(4)
H2_4 H 0.5064 0.8137 0.8041
C1_4 C 0.2215(11) 0.6444(11) 0.8859(4)
C2_4 C 0.1907(11) 0.6032(13) 0.8329(3)
H3_4 H 0.2490 0.5823 0.8085
C3_4 C 0.0701(11) 0.5952(13) 0.8191(4)
H4_4 H 0.0508 0.5705 0.7846
C5_4 C 0.0142(12) 0.6603(14) 0.9060(4)
C6_4 C 0.1263(9) 0.6713(12) 0.9206(4)
H6_4 H 0.1431 0.6977 0.9551
C7_4 C 0.3448(11) 0.6485(12) 0.9006(3)
C9_4 C 0.4937(10) 0.6673(12) 0.7653(3)
C10_4 C 0.3584(14) 0.7303(12) 0.7021(5)
H7_4 H 0.2754 0.7101 0.6994
H8_4 H 0.3868 0.7553 0.6673
C11_4 C 0.3790(14) 0.8262(12) 0.7447(5)
H9_4 H 0.4050 0.8993 0.7283
H10_4 H 0.3078 0.8411 0.7651
O8_4 O 0.5943(6) 0.4188(7) 0.8769(2)
O10_2 O 0.7821(5) 0.6012(7) 0.8745(2)
O11_2 O 0.6012(7) 0.7821(5) 0.8755(2)
O14_2 O 0.5963(8) 0.8333(7) 0.9616(2)
O15_4 O 0.5994(7) 0.5719(7) 0.9620(2)
N4_4 N 0.7762(9) 0.4714(10) 0.9714(4)
H12_4 H 0.8137 0.5064 0.9459
C12_4 C 0.6444(11) 0.2215(11) 0.8641(4)
C13_4 C 0.6032(13) 0.1907(11) 0.9171(3)
H13_4 H 0.5823 0.2490 0.9415
C14_4 C 0.5952(13) 0.0701(11) 0.9309(4)
H14_4 H 0.5705 0.0508 0.9654
C16_4 C 0.6603(14) 0.0142(12) 0.8440(4)
C17_4 C 0.6713(12) 0.1263(9) 0.8294(4)
H16_4 H 0.6977 0.1431 0.7949
C18_4 C 0.6485(12) 0.3448(11) 0.8494(3)
C20_4 C 0.6673(12) 0.4937(10) 0.9847(3)
H20_4 H 0.8411 0.3078 0.9849
C15_4 C 0.6218(11) 0.9801(11) 0.8965(3)
H15_4 H 0.6782 0.9556 0.8192
C19_4 C 0.6043(10) 0.8556(10) 0.9115(4)
C4_4 C 0.9801(11) 0.6218(11) 0.8535(3)
H5_4 H 0.9556 0.6782 0.9308
C8_4 C 0.8556(10) 0.6043(10) 0.8385(4)
loop_
_geom_bond_atom_site_label_1
_geom_bond_atom_site_label_2
_geom_bond_site_symmetry_1
_geom_bond_site_symmetry_2
Co4 O9 1_555 1_555
Co7 O12 1_555 1_555
O9 C19 1_555 1_555
O12 C19 1_555 1_555
C19 C15 1_555 1_555
Co4 O2 1_555 1_555
Co7 O1 1_555 1_555
O1 C7 1_555 1_555
O2 C7 1_555 1_555
O5 Co4 1_555 1_555
N2 H2 1_555 1_555
C1 C2 1_555 1_555
C2 H3 1_555 1_555
C3 C2 1_555 1_555
H4 C3 1_555 1_555
C6 C1 1_555 1_555
H6 C6 1_555 1_555
C7 C1 1_555 1_555
C9 O5 1_555 1_555
Co6 O5 1_555 1_555
O6 Co6 1_555 1_555
O7 Co7 1_555 1_555
O8 Co4 1_555 1_555
O10 Co4 1_555 1_555
O13 Co7 1_555 1_555
O15 Co4 1_555 1_555
O16 Co7 1_555 1_555
N3 H11 1_555 1_555
N4 H12 1_555 1_555
C12 C13 1_555 1_555
C13 H13 1_555 1_555
C14 C13 1_555 1_555
H14 C14 1_555 1_555
C17 C12 1_555 1_555
H16 C17 1_555 1_555
C18 O6 1_555 1_555
C20 O15 1_555 1_555
C21 N3 1_555 1_555
H17 C21 1_555 1_555
H18 C21 1_555 1_555
C22 N4 1_555 1_555
H19 C22 1_555 1_555
H20 C22 1_555 1_555
Co7 O15 1_555 1_555
N2 C9 1_555 1_555
C5 C6 1_555 1_555
O8 C18 1_555 1_555
N3 C20 1_555 1_555
N4 C20 1_555 1_555
C12 C18 1_555 1_555
C16 C17 1_555 1_555
C21 C22 1_555 1_555
N1 H1 1_555 1_555
C10 N1 1_555 1_555
H7 C10 1_555 1_555
H8 C10 1_555 1_555
H9 C11 1_555 1_555
C10 C11 1_555 1_555
O10 C8 1_555 1_555
O4 C8 1_555 1_555
C8 C4 1_555 1_555
Co6 O4 1_555 1_555
O3 C8_2 1_555 1_555
O13 C8_2 1_555 1_555
C8_2 C4_2 1_555 1_555
Co3 O3 1_555 1_555
Co3 O9_2 1_555 1_555
Co7_2 O12_2 1_555 1_555
O9_2 C19_2 1_555 1_555
O12_2 C19_2 1_555 1_555
C19_2 C15_2 1_555 1_555
Co3 O2_2 1_555 1_555
Co7_2 O1_2 1_555 1_555
O1_2 C7_2 1_555 1_555
O2_2 C7_2 1_555 1_555
O16 Co3 1_555 1_555
N1_2 H1_2 1_555 1_555
N2_2 H2_2 1_555 1_555
C1_2 C2_2 1_555 1_555
C2_2 H3_2 1_555 1_555
C3_2 C2_2 1_555 1_555
H4_2 C3_2 1_555 1_555
C6_2 C1_2 1_555 1_555
H6_2 C6_2 1_555 1_555
C7_2 C1_2 1_555 1_555
C9_2 O16 1_555 1_555
C10_2 N1_2 1_555 1_555
H7_2 C10_2 1_555 1_555
H8_2 C10_2 1_555 1_555
C11_2 N2_2 1_555 1_555
H9_2 C11_2 1_555 1_555
H10_2 C11_2 1_555 1_555
O7_2 Co7_2 1_555 1_555
O8_2 Co3 1_555 1_555
O13_2 Co7_2 1_555 1_555
O15_2 Co3 1_555 1_555
O16_2 Co7_2 1_555 1_555
N3_2 H11_2 1_555 1_555
N4_2 H12_2 1_555 1_555
C12_2 C13_2 1_555 1_555
C13_2 H13_2 1_555 1_555
C14_2 C13_2 1_555 1_555
H14_2 C14_2 1_555 1_555
C17_2 C12_2 1_555 1_555
H16_2 C17_2 1_555 1_555
C18_2 O7 1_555 1_555
C20_2 O15_2 1_555 1_555
C21_2 N3_2 1_555 1_555
H17_2 C21_2 1_555 1_555
H18_2 C21_2 1_555 1_555
C22_2 N4_2 1_555 1_555
H19_2 C22_2 1_555 1_555
H20_2 C22_2 1_555 1_555
Co7_2 O15_2 1_555 1_555
N1_2 C9_2 1_555 1_555
N2_2 C9_2 1_555 1_555
C5_2 C6_2 1_555 1_555
C10_2 C11_2 1_555 1_555
O8_2 C18_2 1_555 1_555
N3_2 C20_2 1_555 1_555
N4_2 C20_2 1_555 1_555
C12_2 C18_2 1_555 1_555
C16_2 C17_2 1_555 1_555
C21_2 C22_2 1_555 1_555
O3_2 C8_3 1_555 1_555
O13_2 C8_3 1_555 1_555
C8_3 C4_3 1_555 1_555
Co3_2 O3_2 1_555 1_555
Co3_2 O2_3 1_555 1_555
Co2 O1_3 1_555 1_555
O1_3 C7_3 1_555 1_555
O2_3 C7_3 1_555 1_555
O16_2 Co3_2 1_555 1_555
N1_3 H1_3 1_555 1_555
N2_3 H2_3 1_555 1_555
C1_3 C2_3 1_555 1_555
C2_3 H3_3 1_555 1_555
C3_3 C2_3 1_555 1_555
H4_3 C3_3 1_555 1_555
C6_3 C1_3 1_555 1_555
H6_3 C6_3 1_555 1_555
C7_3 C1_3 1_555 1_555
C9_3 O16_2 1_555 1_555
C10_3 N1_3 1_555 1_555
H7_3 C10_3 1_555 1_555
H8_3 C10_3 1_555 1_555
C11_3 N2_3 1_555 1_555
H9_3 C11_3 1_555 1_555
H10_3 C11_3 1_555 1_555
O7_3 Co2 1_555 1_555
O8_3 Co3_2 1_555 1_555
O11 Co3_2 1_555 1_555
O13_3 Co2 1_555 1_555
O14 Co2 1_555 1_555
O15_3 Co3_2 1_555 1_555
O16_3 Co2 1_555 1_555
N3_3 H11_3 1_555 1_555
N4_3 H12_3 1_555 1_555
C12_3 C13_3 1_555 1_555
C13_3 H13_3 1_555 1_555
C14_3 C13_3 1_555 1_555
H14_3 C14_3 1_555 1_555
C17_3 C12_3 1_555 1_555
H16_3 C17_3 1_555 1_555
C18_3 O7_2 1_555 1_555
C20_3 O15_3 1_555 1_555
C21_3 N3_3 1_555 1_555
H17_3 C21_3 1_555 1_555
H18_3 C21_3 1_555 1_555
C22_3 N4_3 1_555 1_555
H19_3 C22_3 1_555 1_555
H20_3 C22_3 1_555 1_555
Co2 O15_3 1_555 1_555
N1_3 C9_3 1_555 1_555
N2_3 C9_3 1_555 1_555
C5_3 C6_3 1_555 1_555
C10_3 C11_3 1_555 1_555
O8_3 C18_3 1_555 1_555
N3_3 C20_3 1_555 1_555
N4_3 C20_3 1_555 1_555
C12_3 C18_3 1_555 1_555
C16_3 C17_3 1_555 1_555
C21_3 C22_3 1_555 1_555
O11 C19_3 1_555 1_555
O14 C19_3 1_555 1_555
C19_3 C15_3 1_555 1_555
N3_4 H11_4 1_555 1_555
C21_4 N3_4 1_555 1_555
H17_4 C21_4 1_555 1_555
H18_4 C21_4 1_555 1_555
H19_4 C22_4 1_555 1_555
C21_4 C22_4 1_555 1_555
Co1 O2_4 1_555 1_555
Co6_2 O1_4 1_555 1_555
O1_4 C7_4 1_555 1_555
O2_4 C7_4 1_555 1_555
O16_3 Co1 1_555 1_555
N1_4 H1_4 1_555 1_555
N2_4 H2_4 1_555 1_555
C1_4 C2_4 1_555 1_555
C2_4 H3_4 1_555 1_555
C3_4 C2_4 1_555 1_555
H4_4 C3_4 1_555 1_555
C6_4 C1_4 1_555 1_555
H6_4 C6_4 1_555 1_555
C7_4 C1_4 1_555 1_555
C9_4 O16_3 1_555 1_555
C10_4 N1_4 1_555 1_555
H7_4 C10_4 1_555 1_555
H8_4 C10_4 1_555 1_555
C11_4 N2_4 1_555 1_555
H9_4 C11_4 1_555 1_555
H10_4 C11_4 1_555 1_555
O8_4 Co1 1_555 1_555
O10_2 Co1 1_555 1_555
O11_2 Co1 1_555 1_555
O14_2 Co6_2 1_555 1_555
O15_4 Co1 1_555 1_555
N4_4 H12_4 1_555 1_555
C12_4 C13_4 1_555 1_555
C13_4 H13_4 1_555 1_555
C14_4 C13_4 1_555 1_555
H14_4 C14_4 1_555 1_555
C17_4 C12_4 1_555 1_555
H16_4 C17_4 1_555 1_555
C18_4 O7_3 1_555 1_555
C20_4 O15_4 1_555 1_555
Co6_2 O15_4 1_555 1_555
N1_4 C9_4 1_555 1_555
N2_4 C9_4 1_555 1_555
C5_4 C6_4 1_555 1_555
C10_4 C11_4 1_555 1_555
O8_4 C18_4 1_555 1_555
N4_4 C20_4 1_555 1_555
C12_4 C18_4 1_555 1_555
C16_4 C17_4 1_555 1_555
O11_2 C19_4 1_555 1_555
O14_2 C19_4 1_555 1_555
C19_4 C15_4 1_555 1_555
O10_2 C8_4 1_555 1_555
O13_3 C8_4 1_555 1_555
C8_4 C4_4 1_555 1_555

#END
