
###############################################################################
#
# This file contains modified crystal structure data generated from the
# MOF subset of the Cambridge Structural Database (CSD) v543 
# hosted by the Cambridge Crystallographic Data Centre (CCDC).
#
# This work is licensed under the Creative Commons
# Attribution-NonCommercial-ShareAlike 4.0 International License.
# To view a copy of this license, visit
# http://creativecommons.org/licenses/by-nc-sa/4.0/
# or send a letter to
# Creative Commons, PO Box 1866, Mountain View, CA 94042, USA.
#
# CIF created using the CSD Python API on 29 September 2022
# The structure has been converted into the P1 space group
# The structure has a 3D framework
# The original CSD entry EPEXII is in the monoclinic crystal system
# The framework has been calculated to contain at least 10.0% void space
# The void calculation uses a probe of radius 1.32A, grid spacing 0.4
#
###############################################################################

data_EPEXII
_chemical_formula_moiety         '(C128 H96 Cd8 N8 O50)n'
_symmetry_cell_setting           triclinic
_symmetry_space_group_name_H-M   'P 1'
_symmetry_Int_Tables_number      1
_space_group_name_Hall           'P 1'
loop_
_symmetry_equiv_pos_site_id
_symmetry_equiv_pos_as_xyz
1 x,y,z
_cell_length_a                   15.3115(4)
_cell_length_b                   13.4202(4)
_cell_length_c                   19.1497(5)
_cell_angle_alpha                90
_cell_angle_beta                 99.467(2)
_cell_angle_gamma                90
_cell_volume                     3881.35
loop_
_atom_site_label
_atom_site_type_symbol
_atom_site_fract_x
_atom_site_fract_y
_atom_site_fract_z
Cd1 Cd 0.21922(5) 0.32000(6) 0.41147(4)
Cd2 Cd 0.25151(4) 0.19502(4) 0.24893(3)
O1 O 0.3406(4) 0.2804(5) 0.3376(3)
O2 O 0.3350(6) 0.2055(6) 0.4787(4)
O3 O 0.3815(4) 0.3143(5) 0.2355(3)
O4 O 0.1894(6) 0.3103(7) 0.5413(4)
H1 H 0.1716 0.2511 0.5500
H2 H 0.2374 0.3234 0.5705
O5 O 0.6396(4) 0.5594(5) 0.2388(3)
O6 O 0.0623(6) 0.3787(7) 0.4190(6)
O7 O 0.7050(4) 0.6098(5) 0.3430(3)
O8 O 0.6916(4) 0.5241(5) 0.5579(3)
O9 O 0.1650(4) 0.1638(5) 0.3512(3)
O10 O 0.1241(4) 0.0986(5) 0.2459(3)
O13 O 0.0107(5) 0.2243(6) 0.5198(4)
N1 N 0.5843(4) 0.4031(5) 0.5250(4)
C1 C 0.3924(5) 0.3204(6) 0.3008(5)
C2 C 0.6494(5) 0.5566(6) 0.3046(4)
C3 C 0.5229(5) 0.4363(6) 0.3040(4)
H3 H 0.5096 0.4422 0.2550
C4 C 0.4710(5) 0.3746(6) 0.3403(4)
C5 C 0.4927(5) 0.3650(6) 0.4129(4)
H4 H 0.4591 0.3234 0.4369
C6 C 0.5636(5) 0.4162(6) 0.4506(4)
C7 C 0.6145(5) 0.4788(6) 0.4146(4)
H5 H 0.6621 0.5140 0.4393
C8 C 0.5926(5) 0.4875(6) 0.3409(4)
C9 C 0.6449(5) 0.4546(6) 0.5720(4)
C10 C 0.5385(6) 0.3267(7) 0.5609(4)
H6 H 0.5484 0.2605 0.5434
H7 H 0.4754 0.3393 0.5548
C11 C 0.5813(6) 0.3385(7) 0.6371(5)
C12 C 0.6432(6) 0.4107(6) 0.6422(4)
C13 C 0.6920(7) 0.4388(7) 0.7069(5)
H8 H 0.7345 0.4888 0.7100
C14 C 0.6748(7) 0.3895(8) 0.7664(5)
H9 H 0.7069 0.4052 0.8105
C15 C 0.6098(8) 0.3168(8) 0.7607(6)
H10 H 0.5974 0.2859 0.8014
C16 C 0.5638(7) 0.2896(8) 0.6965(5)
H11 H 0.5216 0.2393 0.6929
C17 C 0.1115(6) 0.1154(6) 0.3072(5)
C21 C 0.0288(5) 0.0740(6) 0.3312(4)
C22 C 0.0073(5) 0.1062(7) 0.3946(4)
H13 H 0.0408 0.1561 0.4198
H21 H 0.3689 0.1769 0.4489
H22 H 0.3382 0.1919 0.5240
H23 H 0.0257 0.4382 0.4079
H24 H 0.0448 0.3349 0.4448
Cd4 Cd 0.78078(5) 0.68000(6) 0.58853(4)
Cd6 Cd 0.74849(4) 0.69502(4) 0.25107(3)
O14 O 0.3604(4) 0.0594(5) 0.2612(3)
O15 O 0.2950(4) 0.1098(5) 0.1570(3)
O16 O 0.3084(4) 0.4759(5) 0.4421(3)
O17 O 0.1531(4) 0.3716(5) 0.2862(3)
O18 O 0.1715(4) 0.3089(5) 0.1822(4)
O11 O 0.8469(4) 0.8716(5) 0.2138(3)
O12 O 0.8285(4) 0.8089(5) 0.3178(4)
C18 C 0.8583(5) 0.8723(7) 0.2801(5)
C19 C 0.9094(5) 0.9583(7) 0.3187(5)
H12 H 0.9920 0.9821 0.2478
C24 C 0.8886(5) 0.9884(7) 0.3826(4)
H14 H 0.8425 0.9575 0.4004
H15 H 0.8504 0.9763 0.5219
Cd3 Cd 0.78078(5) 0.82000(6) 0.08853(4)
N2 N 0.0873(5) 0.5948(5) 0.0142(4)
C18_2 C 0.1417(5) 0.3723(7) 0.2199(5)
C19_2 C 0.0906(5) 0.4583(7) 0.1813(5)
C20 C 0.0209(6) 0.5015(7) 0.2084(5)
H12_2 H 0.0080 0.4821 0.2522
C23 C 0.0638(5) 0.5651(6) 0.0787(4)
C24_2 C 0.1114(5) 0.4884(7) 0.1174(4)
H14_2 H 0.1575 0.4575 0.0996
H16 H 0.2162 0.5546 0.0191
C2_2 C 0.3506(5) 0.0566(6) 0.1954(4)
H5_2 H 0.3379 0.0140 0.0607
O8_2 O 0.3084(4) 0.0241(5) 0.9421(3)
Cd4_2 Cd 0.21922(5) 0.18000(6) 0.91147(4)
O1_2 O 0.6594(4) 0.7804(5) 0.1624(3)
O2_2 O 0.6650(6) 0.7055(6) 0.0213(4)
O3_2 O 0.6185(4) 0.8143(5) 0.2645(3)
O6_2 O 0.9377(6) 0.8787(7) 0.0810(6)
O9_2 O 0.8350(4) 0.6638(5) 0.1488(3)
O10_2 O 0.8759(4) 0.5986(5) 0.2541(3)
C1_2 C 0.6076(5) 0.8204(6) 0.1992(5)
C3_2 C 0.4771(5) 0.9363(6) 0.1960(4)
H3_2 H 0.4904 0.9422 0.2450
C4_2 C 0.5290(5) 0.8746(6) 0.1597(4)
C5_2 C 0.5073(5) 0.8650(6) 0.0871(4)
H4_2 H 0.5409 0.8234 0.0631
C6_2 C 0.4364(5) 0.9162(6) 0.0494(4)
C7_2 C 0.3855(5) 0.9788(6) 0.0854(4)
C8_2 C 0.4074(5) 0.9875(6) 0.1591(4)
C17_2 C 0.8885(6) 0.6154(6) 0.1928(5)
C21_2 C 0.9712(5) 0.5740(6) 0.1688(4)
C22_2 C 0.9927(5) 0.6062(7) 0.1054(4)
H13_2 H 0.9592 0.6561 0.0802
H21_2 H 0.6311 0.6769 0.0511
H23_2 H 0.9743 0.9382 0.0921
H24_2 H 0.9552 0.8349 0.0552
O16_2 O 0.6916(4) 0.9759(5) 0.0579(3)
O11_2 O 0.1531(4) 0.1284(5) 0.7862(3)
O12_2 O 0.1715(4) 0.1911(5) 0.6822(4)
C18_3 C 0.1417(5) 0.1277(7) 0.7199(5)
C19_3 C 0.0906(5) 0.0417(7) 0.6813(5)
H12_3 H 0.0080 0.0179 0.7522
C24_3 C 0.1114(5) 0.0116(7) 0.6174(4)
H14_3 H 0.1575 0.0425 0.5996
H15_2 H 0.1496 0.0237 0.4781
Cd5 Cd 0.25151(4) 0.30498(4) 0.74893(3)
Cd2_2 Cd 0.74849(4) 0.80498(4) 0.75107(3)
O1_3 O 0.6594(4) 0.7196(5) 0.6624(3)
O2_3 O 0.6650(6) 0.7945(6) 0.5213(4)
O3_3 O 0.6185(4) 0.6857(5) 0.7645(3)
O4_2 O 0.8106(6) 0.6897(7) 0.4587(4)
H1_2 H 0.8284 0.7489 0.4500
H2_2 H 0.7626 0.6766 0.4295
O5_2 O 0.3604(4) 0.4406(5) 0.7612(3)
O6_3 O 0.9377(6) 0.6213(7) 0.5810(6)
O7_2 O 0.2950(4) 0.3902(5) 0.6570(3)
O9_3 O 0.8350(4) 0.8362(5) 0.6488(3)
O10_3 O 0.8759(4) 0.9014(5) 0.7541(3)
O13_2 O 0.9893(5) 0.7757(6) 0.4802(4)
N1_2 N 0.4157(4) 0.5969(5) 0.4750(4)
C1_3 C 0.6076(5) 0.6796(6) 0.6992(5)
C2_3 C 0.3506(5) 0.4434(6) 0.6954(4)
C3_3 C 0.4771(5) 0.5637(6) 0.6960(4)
H3_3 H 0.4904 0.5578 0.7450
C4_3 C 0.5290(5) 0.6254(6) 0.6597(4)
C5_3 C 0.5073(5) 0.6350(6) 0.5871(4)
H4_3 H 0.5409 0.6766 0.5631
C6_3 C 0.4364(5) 0.5838(6) 0.5494(4)
C7_3 C 0.3855(5) 0.5212(6) 0.5854(4)
H5_3 H 0.3379 0.4860 0.5607
C8_3 C 0.4074(5) 0.5125(6) 0.6591(4)
C9_2 C 0.3551(5) 0.5454(6) 0.4280(4)
C10_2 C 0.4615(6) 0.6733(7) 0.4391(4)
H6_2 H 0.4516 0.7395 0.4566
H7_2 H 0.5246 0.6607 0.4452
C11_2 C 0.4187(6) 0.6615(7) 0.3629(5)
C12_2 C 0.3568(6) 0.5893(6) 0.3578(4)
C13_2 C 0.3080(7) 0.5612(7) 0.2931(5)
H8_2 H 0.2655 0.5112 0.2900
C14_2 C 0.3252(7) 0.6105(8) 0.2336(5)
H9_2 H 0.2931 0.5948 0.1895
C15_2 C 0.3902(8) 0.6832(8) 0.2393(6)
H10_2 H 0.4026 0.7141 0.1986
C16_2 C 0.4362(7) 0.7104(8) 0.3035(5)
H11_2 H 0.4784 0.7607 0.3071
C17_3 C 0.8885(6) 0.8846(6) 0.6928(5)
C21_3 C 0.9712(5) 0.9260(6) 0.6688(4)
C22_3 C 0.9927(5) 0.8938(7) 0.6054(4)
H13_3 H 0.9592 0.8439 0.5802
H21_3 H 0.6311 0.8231 0.5511
H22_2 H 0.6618 0.8081 0.4760
H23_3 H 0.9743 0.5618 0.5921
H24_3 H 0.9552 0.6651 0.5552
O14_2 O 0.6396(4) 0.9406(5) 0.7388(3)
O15_2 O 0.7050(4) 0.8902(5) 0.8430(3)
O17_2 O 0.8469(4) 0.6284(5) 0.7138(3)
O18_2 O 0.8285(4) 0.6911(5) 0.8178(4)
O1_4 O 0.3406(4) 0.2196(5) 0.8376(3)
O2_4 O 0.3350(6) 0.2945(6) 0.9787(4)
O3_4 O 0.3815(4) 0.1857(5) 0.7355(3)
O6_4 O 0.0623(6) 0.1213(7) 0.9190(6)
O9_4 O 0.1650(4) 0.3362(5) 0.8512(3)
O10_4 O 0.1241(4) 0.4014(5) 0.7459(3)
C1_4 C 0.3924(5) 0.1796(6) 0.8008(5)
C3_4 C 0.5229(5) 0.0637(6) 0.8040(4)
H3_4 H 0.5096 0.0578 0.7550
C4_4 C 0.4710(5) 0.1254(6) 0.8403(4)
C5_4 C 0.4927(5) 0.1350(6) 0.9129(4)
H4_4 H 0.4591 0.1766 0.9369
C6_4 C 0.5636(5) 0.0838(6) 0.9506(4)
C7_4 C 0.6145(5) 0.0212(6) 0.9146(4)
C8_4 C 0.5926(5) 0.0125(6) 0.8409(4)
C17_4 C 0.1115(6) 0.3846(6) 0.8072(5)
C21_4 C 0.0288(5) 0.4260(6) 0.8312(4)
C22_4 C 0.0073(5) 0.3938(7) 0.8946(4)
H13_4 H 0.0408 0.3439 0.9198
H21_4 H 0.3689 0.3231 0.9489
H23_4 H 0.0257 0.0618 0.9079
H24_4 H 0.0448 0.1651 0.9448
C2_4 C 0.6494(5) 0.9434(6) 0.8046(4)
H5_4 H 0.6621 0.9860 0.9393
N2_2 N 0.9127(5) 0.4052(5) 0.9858(4)
C18_4 C 0.8583(5) 0.6277(7) 0.7801(5)
C19_4 C 0.9094(5) 0.5417(7) 0.8187(5)
C20_2 C 0.9791(6) 0.4985(7) 0.7916(5)
H12_4 H 0.9920 0.5179 0.7478
C23_2 C 0.9362(5) 0.4349(6) 0.9213(4)
C24_4 C 0.8886(5) 0.5116(7) 0.8826(4)
H14_4 H 0.8425 0.5425 0.9004
H16_2 H 0.7838 0.4454 0.9809
N2_3 N 0.9127(5) 0.0948(5) 0.4858(4)
C20_3 C 0.9791(6) 0.0015(7) 0.2916(5)
C23_3 C 0.9362(5) 0.0651(6) 0.4213(4)
C25 C 0.8391(6) 0.0467(7) 0.5133(5)
H16_3 H 0.7838 0.0546 0.4809
C26 C 0.8372(6) 0.1018(7) 0.5811(5)
C27 C 0.9510(6) 0.1691(7) 0.5302(5)
C28 C 0.9025(6) 0.1727(7) 0.5907(5)
C29 C 0.9163(8) 0.2351(9) 0.6492(6)
H17 H 0.9618 0.2818 0.6561
C30 C 0.8574(10) 0.2235(10) 0.6971(6)
H18 H 0.8630 0.2645 0.7367
C31 C 0.7929(8) 0.1543(11) 0.6873(6)
H19 H 0.7554 0.1493 0.7208
C32 C 0.7797(7) 0.0908(9) 0.6304(5)
H20 H 0.7350 0.0432 0.6248
C25_2 C 0.1609(6) 0.5467(7) 0.9867(5)
H15_3 H 0.1496 0.4763 0.9781
C26_2 C 0.1628(6) 0.6018(7) 0.9189(5)
C27_2 C 0.0490(6) 0.6691(7) 0.9698(5)
C28_2 C 0.0975(6) 0.6727(7) 0.9093(5)
C29_2 C 0.0837(8) 0.7351(9) 0.8508(6)
H17_2 H 0.0382 0.7818 0.8439
C30_2 C 0.1426(10) 0.7235(10) 0.8029(6)
H18_2 H 0.1370 0.7645 0.7633
C31_2 C 0.2071(8) 0.6543(11) 0.8127(6)
H19_2 H 0.2446 0.6493 0.7792
C32_2 C 0.2203(7) 0.5908(9) 0.8696(5)
H20_2 H 0.2650 0.5432 0.8752
O4_3 O 0.8106(6) 0.8103(7) 0.9587(4)
H1_3 H 0.8284 0.7511 0.9500
H2_3 H 0.7626 0.8234 0.9295
O13_3 O 0.9893(5) 0.7243(6) 0.9802(4)
N1_3 N 0.4157(4) 0.9031(5) 0.9750(4)
C9_3 C 0.3551(5) 0.9546(6) 0.9280(4)
C10_3 C 0.4615(6) 0.8267(7) 0.9391(4)
H6_3 H 0.4516 0.7605 0.9566
H7_3 H 0.5246 0.8393 0.9452
C11_3 C 0.4187(6) 0.8385(7) 0.8629(5)
C12_3 C 0.3568(6) 0.9107(6) 0.8578(4)
C13_3 C 0.3080(7) 0.9388(7) 0.7931(5)
H8_3 H 0.2655 0.9888 0.7900
C14_3 C 0.3252(7) 0.8895(8) 0.7336(5)
H9_3 H 0.2931 0.9052 0.6895
C15_3 C 0.3902(8) 0.8168(8) 0.7393(6)
H10_3 H 0.4026 0.7859 0.6986
C16_3 C 0.4362(7) 0.7896(8) 0.8035(5)
H11_3 H 0.4784 0.7393 0.8071
H22_3 H 0.6618 0.6919 0.9760
N2_4 N 0.0873(5) 0.9052(5) 0.5142(4)
C20_4 C 0.0209(6) 0.9985(7) 0.7084(5)
C23_4 C 0.0638(5) 0.9349(6) 0.5787(4)
C25_3 C 0.1609(6) 0.9533(7) 0.4867(5)
H16_4 H 0.2162 0.9454 0.5191
C26_3 C 0.1628(6) 0.8982(7) 0.4189(5)
C27_3 C 0.0490(6) 0.8309(7) 0.4698(5)
C28_3 C 0.0975(6) 0.8273(7) 0.4093(5)
C29_3 C 0.0837(8) 0.7649(9) 0.3508(6)
H17_3 H 0.0382 0.7182 0.3439
C30_3 C 0.1426(10) 0.7765(10) 0.3029(6)
H18_3 H 0.1370 0.7355 0.2633
C31_3 C 0.2071(8) 0.8457(11) 0.3127(6)
H19_3 H 0.2446 0.8507 0.2792
C32_3 C 0.2203(7) 0.9092(9) 0.3696(5)
H20_3 H 0.2650 0.9568 0.3752
O4_4 O 0.1894(6) 0.1897(7) 0.0413(4)
H1_4 H 0.1716 0.2489 0.0500
H2_4 H 0.2374 0.1766 0.0705
O13_4 O 0.0107(5) 0.2757(6) 0.0198(4)
N1_4 N 0.5843(4) 0.0969(5) 0.0250(4)
C9_4 C 0.6449(5) 0.0454(6) 0.0720(4)
C10_4 C 0.5385(6) 0.1733(7) 0.0609(4)
H6_4 H 0.5484 0.2395 0.0434
H7_4 H 0.4754 0.1607 0.0548
C11_4 C 0.5813(6) 0.1615(7) 0.1371(5)
C12_4 C 0.6432(6) 0.0893(6) 0.1422(4)
C13_4 C 0.6920(7) 0.0612(7) 0.2069(5)
H8_4 H 0.7345 0.0112 0.2100
C14_4 C 0.6748(7) 0.1105(8) 0.2664(5)
H9_4 H 0.7069 0.0948 0.3105
C15_4 C 0.6098(8) 0.1832(8) 0.2607(6)
H10_4 H 0.5974 0.2141 0.3014
C16_4 C 0.5638(7) 0.2104(8) 0.1965(5)
H11_4 H 0.5216 0.2607 0.1929
H22_4 H 0.3382 0.3081 0.0240
C25_4 C 0.8391(6) 0.4533(7) 0.0133(5)
H15_4 H 0.8504 0.5237 0.0219
C26_4 C 0.8372(6) 0.3982(7) 0.0811(5)
C27_4 C 0.9510(6) 0.3309(7) 0.0302(5)
C28_4 C 0.9025(6) 0.3273(7) 0.0907(5)
C29_4 C 0.9163(8) 0.2649(9) 0.1492(6)
H17_4 H 0.9618 0.2182 0.1561
C30_4 C 0.8574(10) 0.2765(10) 0.1971(6)
H18_4 H 0.8630 0.2355 0.2367
C31_4 C 0.7929(8) 0.3457(11) 0.1873(6)
H19_4 H 0.7554 0.3507 0.2208
C32_4 C 0.7797(7) 0.4092(9) 0.1304(5)
H20_4 H 0.7350 0.4568 0.1248
loop_
_geom_bond_atom_site_label_1
_geom_bond_atom_site_label_2
_geom_bond_site_symmetry_1
_geom_bond_site_symmetry_2
Cd1 O1 1_555 1_555
Cd2 O1 1_555 1_555
O1 C1 1_555 1_555
O2 Cd1 1_555 1_555
O3 Cd2 1_555 1_555
O4 Cd1 1_555 1_555
H1 O4 1_555 1_555
H2 O4 1_555 1_555
O5 C2 1_555 1_555
O6 Cd1 1_555 1_555
O7 C2 1_555 1_555
O8 C9 1_555 1_555
O9 Cd1 1_555 1_555
O10 Cd2 1_555 1_555
N1 C6 1_555 1_555
C1 O3 1_555 1_555
C2 C8 1_555 1_555
C3 H3 1_555 1_555
C4 C1 1_555 1_555
C5 C4 1_555 1_555
H4 C5 1_555 1_555
C6 C5 1_555 1_555
C7 C6 1_555 1_555
H5 C7 1_555 1_555
C8 C3 1_555 1_555
C9 N1 1_555 1_555
C10 N1 1_555 1_555
H6 C10 1_555 1_555
H7 C10 1_555 1_555
C11 C10 1_555 1_555
C12 C9 1_555 1_555
C13 C12 1_555 1_555
H8 C13 1_555 1_555
C14 C13 1_555 1_555
H9 C14 1_555 1_555
C15 C14 1_555 1_555
H10 C15 1_555 1_555
C16 C11 1_555 1_555
H11 C16 1_555 1_555
C17 O9 1_555 1_555
C21 C17 1_555 1_555
C22 C21 1_555 1_555
H13 C22 1_555 1_555
H21 O2 1_555 1_555
H22 O2 1_555 1_555
H23 O6 1_555 1_555
H24 O6 1_555 1_555
Cd4 O8 1_555 1_555
Cd6 O5 1_555 1_555
O14 Cd2 1_555 1_555
O15 Cd2 1_555 1_555
O16 Cd1 1_555 1_555
O17 Cd1 1_555 1_555
O18 Cd2 1_555 1_555
Cd2 O9 1_555 1_555
O7 Cd6 1_555 1_555
O10 C17 1_555 1_555
C3 C4 1_555 1_555
C7 C8 1_555 1_555
C11 C12 1_555 1_555
C15 C16 1_555 1_555
O11 C18 1_555 1_555
O12 C18 1_555 1_555
C18 C19 1_555 1_555
C24 C19 1_555 1_555
H14 C24 1_555 1_555
Cd3 O11 1_555 1_555
Cd6 O12 1_555 1_555
O17 C18_2 1_555 1_555
O18 C18_2 1_555 1_555
N2 C23 1_555 1_555
C18_2 C19_2 1_555 1_555
C19_2 C20 1_555 1_555
C20 H12_2 1_555 1_555
C24_2 C19_2 1_555 1_555
H14_2 C24_2 1_555 1_555
C23 C24_2 1_555 1_555
O14 C2_2 1_555 1_555
O15 C2_2 1_555 1_555
Cd4_2 O8_2 1_555 1_555
Cd3 O1_2 1_555 1_555
Cd6 O1_2 1_555 1_555
O1_2 C1_2 1_555 1_555
O2_2 Cd3 1_555 1_555
O3_2 Cd6 1_555 1_555
O6_2 Cd3 1_555 1_555
O9_2 Cd3 1_555 1_555
O10_2 Cd6 1_555 1_555
C1_2 O3_2 1_555 1_555
C3_2 H3_2 1_555 1_555
C4_2 C1_2 1_555 1_555
C5_2 C4_2 1_555 1_555
H4_2 C5_2 1_555 1_555
C6_2 C5_2 1_555 1_555
C7_2 C6_2 1_555 1_555
C8_2 C3_2 1_555 1_555
C17_2 O9_2 1_555 1_555
C21_2 C17_2 1_555 1_555
C22_2 C21_2 1_555 1_555
H13_2 C22_2 1_555 1_555
H21_2 O2_2 1_555 1_555
H23_2 O6_2 1_555 1_555
H24_2 O6_2 1_555 1_555
O16_2 Cd3 1_555 1_555
Cd6 O9_2 1_555 1_555
O10_2 C17_2 1_555 1_555
C3_2 C4_2 1_555 1_555
C7_2 C8_2 1_555 1_555
O11_2 C18_3 1_555 1_555
O12_2 C18_3 1_555 1_555
C18_3 C19_3 1_555 1_555
C24_3 C19_3 1_555 1_555
H14_3 C24_3 1_555 1_555
Cd4_2 O11_2 1_555 1_555
Cd5 O12_2 1_555 1_555
Cd4 O1_3 1_555 1_555
Cd2_2 O1_3 1_555 1_555
O1_3 C1_3 1_555 1_555
O2_3 Cd4 1_555 1_555
O3_3 Cd2_2 1_555 1_555
O4_2 Cd4 1_555 1_555
H1_2 O4_2 1_555 1_555
H2_2 O4_2 1_555 1_555
O5_2 C2_3 1_555 1_555
O6_3 Cd4 1_555 1_555
O7_2 C2_3 1_555 1_555
O16 C9_2 1_555 1_555
O9_3 Cd4 1_555 1_555
O10_3 Cd2_2 1_555 1_555
N1_2 C6_3 1_555 1_555
C1_3 O3_3 1_555 1_555
C2_3 C8_3 1_555 1_555
C3_3 H3_3 1_555 1_555
C4_3 C1_3 1_555 1_555
C5_3 C4_3 1_555 1_555
H4_3 C5_3 1_555 1_555
C6_3 C5_3 1_555 1_555
C7_3 C6_3 1_555 1_555
H5_3 C7_3 1_555 1_555
C8_3 C3_3 1_555 1_555
C9_2 N1_2 1_555 1_555
C10_2 N1_2 1_555 1_555
H6_2 C10_2 1_555 1_555
H7_2 C10_2 1_555 1_555
C11_2 C10_2 1_555 1_555
C12_2 C9_2 1_555 1_555
C13_2 C12_2 1_555 1_555
H8_2 C13_2 1_555 1_555
C14_2 C13_2 1_555 1_555
H9_2 C14_2 1_555 1_555
C15_2 C14_2 1_555 1_555
H10_2 C15_2 1_555 1_555
C16_2 C11_2 1_555 1_555
H11_2 C16_2 1_555 1_555
C17_3 O9_3 1_555 1_555
C21_3 C17_3 1_555 1_555
C22_3 C21_3 1_555 1_555
H13_3 C22_3 1_555 1_555
H21_3 O2_3 1_555 1_555
H22_2 O2_3 1_555 1_555
H23_3 O6_3 1_555 1_555
H24_3 O6_3 1_555 1_555
Cd5 O5_2 1_555 1_555
O14_2 Cd2_2 1_555 1_555
O15_2 Cd2_2 1_555 1_555
O17_2 Cd4 1_555 1_555
O18_2 Cd2_2 1_555 1_555
Cd2_2 O9_3 1_555 1_555
O7_2 Cd5 1_555 1_555
O10_3 C17_3 1_555 1_555
C3_3 C4_3 1_555 1_555
C7_3 C8_3 1_555 1_555
C11_2 C12_2 1_555 1_555
C15_2 C16_2 1_555 1_555
Cd4_2 O1_4 1_555 1_555
Cd5 O1_4 1_555 1_555
O1_4 C1_4 1_555 1_555
O2_4 Cd4_2 1_555 1_555
O3_4 Cd5 1_555 1_555
O6_4 Cd4_2 1_555 1_555
O9_4 Cd4_2 1_555 1_555
O10_4 Cd5 1_555 1_555
C1_4 O3_4 1_555 1_555
C3_4 H3_4 1_555 1_555
C4_4 C1_4 1_555 1_555
C5_4 C4_4 1_555 1_555
H4_4 C5_4 1_555 1_555
C6_4 C5_4 1_555 1_555
C7_4 C6_4 1_555 1_555
C8_4 C3_4 1_555 1_555
C17_4 O9_4 1_555 1_555
C21_4 C17_4 1_555 1_555
C22_4 C21_4 1_555 1_555
H13_4 C22_4 1_555 1_555
H21_4 O2_4 1_555 1_555
H23_4 O6_4 1_555 1_555
H24_4 O6_4 1_555 1_555
Cd5 O9_4 1_555 1_555
O10_4 C17_4 1_555 1_555
C3_4 C4_4 1_555 1_555
C7_4 C8_4 1_555 1_555
O14_2 C2_4 1_555 1_555
O15_2 C2_4 1_555 1_555
O17_2 C18_4 1_555 1_555
O18_2 C18_4 1_555 1_555
N2_2 C23_2 1_555 1_555
C18_4 C19_4 1_555 1_555
C19_4 C20_2 1_555 1_555
C20_2 H12_4 1_555 1_555
C24_4 C19_4 1_555 1_555
H14_4 C24_4 1_555 1_555
C23_2 C24_4 1_555 1_555
N2_3 C23_3 1_555 1_555
C25 N2_3 1_555 1_555
H16_3 C25 1_555 1_555
C26 C25 1_555 1_555
C27 N2_3 1_555 1_555
C28 C26 1_555 1_555
C29 C28 1_555 1_555
H17 C29 1_555 1_555
C30 C29 1_555 1_555
H18 C30 1_555 1_555
C31 C30 1_555 1_555
H19 C31 1_555 1_555
C32 C26 1_555 1_555
H20 C32 1_555 1_555
C27 C28 1_555 1_555
C31 C32 1_555 1_555
H15_3 C25_2 1_555 1_555
C26_2 C25_2 1_555 1_555
C28_2 C26_2 1_555 1_555
C29_2 C28_2 1_555 1_555
H17_2 C29_2 1_555 1_555
C30_2 C29_2 1_555 1_555
H18_2 C30_2 1_555 1_555
C31_2 C30_2 1_555 1_555
H19_2 C31_2 1_555 1_555
C32_2 C26_2 1_555 1_555
H20_2 C32_2 1_555 1_555
C27_2 C28_2 1_555 1_555
C31_2 C32_2 1_555 1_555
H1_3 O4_3 1_555 1_555
H2_3 O4_3 1_555 1_555
C9_3 N1_3 1_555 1_555
C10_3 N1_3 1_555 1_555
H6_3 C10_3 1_555 1_555
H7_3 C10_3 1_555 1_555
C11_3 C10_3 1_555 1_555
C12_3 C9_3 1_555 1_555
C13_3 C12_3 1_555 1_555
H8_3 C13_3 1_555 1_555
C14_3 C13_3 1_555 1_555
H9_3 C14_3 1_555 1_555
C15_3 C14_3 1_555 1_555
H10_3 C15_3 1_555 1_555
C16_3 C11_3 1_555 1_555
H11_3 C16_3 1_555 1_555
C11_3 C12_3 1_555 1_555
C15_3 C16_3 1_555 1_555
N2_4 C23_4 1_555 1_555
C25_3 N2_4 1_555 1_555
H16_4 C25_3 1_555 1_555
C26_3 C25_3 1_555 1_555
C27_3 N2_4 1_555 1_555
C28_3 C26_3 1_555 1_555
C29_3 C28_3 1_555 1_555
H17_3 C29_3 1_555 1_555
C30_3 C29_3 1_555 1_555
H18_3 C30_3 1_555 1_555
C31_3 C30_3 1_555 1_555
H19_3 C31_3 1_555 1_555
C32_3 C26_3 1_555 1_555
H20_3 C32_3 1_555 1_555
C27_3 C28_3 1_555 1_555
C31_3 C32_3 1_555 1_555
H1_4 O4_4 1_555 1_555
H2_4 O4_4 1_555 1_555
C9_4 N1_4 1_555 1_555
C10_4 N1_4 1_555 1_555
H6_4 C10_4 1_555 1_555
H7_4 C10_4 1_555 1_555
C11_4 C10_4 1_555 1_555
C12_4 C9_4 1_555 1_555
C13_4 C12_4 1_555 1_555
H8_4 C13_4 1_555 1_555
C14_4 C13_4 1_555 1_555
H9_4 C14_4 1_555 1_555
C15_4 C14_4 1_555 1_555
H10_4 C15_4 1_555 1_555
C16_4 C11_4 1_555 1_555
H11_4 C16_4 1_555 1_555
C11_4 C12_4 1_555 1_555
C15_4 C16_4 1_555 1_555
H15_4 C25_4 1_555 1_555
C26_4 C25_4 1_555 1_555
C28_4 C26_4 1_555 1_555
C29_4 C28_4 1_555 1_555
H17_4 C29_4 1_555 1_555
C30_4 C29_4 1_555 1_555
H18_4 C30_4 1_555 1_555
C31_4 C30_4 1_555 1_555
H19_4 C31_4 1_555 1_555
C32_4 C26_4 1_555 1_555
H20_4 C32_4 1_555 1_555
C27_4 C28_4 1_555 1_555
C31_4 C32_4 1_555 1_555

#END
