
###############################################################################
#
# This file contains modified crystal structure data generated from the
# MOF subset of the Cambridge Structural Database (CSD) v543 
# hosted by the Cambridge Crystallographic Data Centre (CCDC).
#
# This work is licensed under the Creative Commons
# Attribution-NonCommercial-ShareAlike 4.0 International License.
# To view a copy of this license, visit
# http://creativecommons.org/licenses/by-nc-sa/4.0/
# or send a letter to
# Creative Commons, PO Box 1866, Mountain View, CA 94042, USA.
#
# CIF created using the CSD Python API on 29 September 2022
# The structure has been converted into the P1 space group
# The structure has a 3D framework
# The original CSD entry EPOCUK is in the hexagonal crystal system
# The framework has been calculated to contain at least 10.0% void space
# The void calculation uses a probe of radius 1.32A, grid spacing 0.4
#
###############################################################################

data_EPOCUK
_chemical_formula_moiety         '(C84 H48 F2 N12 O24 Zn6)n'
_symmetry_cell_setting           triclinic
_symmetry_space_group_name_H-M   'P 1'
_symmetry_Int_Tables_number      1
_space_group_name_Hall           'P 1'
loop_
_symmetry_equiv_pos_site_id
_symmetry_equiv_pos_as_xyz
1 x,y,z
_cell_length_a                   16.9028(2)
_cell_length_b                   16.9028(2)
_cell_length_c                   14.5193(2)
_cell_angle_alpha                90
_cell_angle_beta                 90
_cell_angle_gamma                120
_cell_volume                     3592.47
loop_
_atom_site_label
_atom_site_type_symbol
_atom_site_fract_x
_atom_site_fract_y
_atom_site_fract_z
H8 H 0.2234 0.0143 0.2500
N5 N 0.19057(34) 0.3811(3) 0.2500
N6 N 0.09426(25) 0.04713(18) 0.2500
C17 C 0.0994(4) 0.3338(3) 0.2500
H9 H 0.0681 0.3660 0.2500
C18 C 0.0492(4) 0.2395(3) 0.2500
C19 C 0.0956(4) 0.1912(4) 0.2500
C20 C 0.0449(4) 0.0898(4) 0.2500
C21 C 0.2344(3) 0.3338(3) 0.2500
H11 H 0.2979 0.3660 0.2500
C22 C 0.1903(3) 0.2395(3) 0.2500
H12 H 0.2234 0.2091 0.2500
Zn5 Zn 0.26417(6) 0.52834(5) 0.2500
N3 N 0.19053(17) 0.80943(34) 0.2500
C13 C 0.2344(3) 0.9006(4) 0.2500
H7 H 0.2979 0.9319 0.2500
C14 C 0.1903(3) 0.9508(4) 0.2500
C15 C 0.0956(2) 0.9044(4) 0.2500
C16 C 0.0449(2) 0.9551(4) 0.2500
C23 C 0.0994(4) 0.7656(3) 0.2500
H13 H 0.0681 0.7021 0.2500
C24 C 0.0492(4) 0.8097(3) 0.2500
Zn4 Zn 0.26417(3) 0.73583(6) 0.2500
N2 N 0.95287(18) 0.04713(18) 0.2500
H10 H 0.9857 0.2091 0.2500
H16 H 0.7909 0.0143 0.2500
O6 O 0.5228(2) 0.1769(3) 0.6519(3)
C30 C 0.5754(2) 0.1508(3) 0.6273(5)
C31 C 0.5365(2) 0.0730(3) 0.5604(5)
C32 C 0.5878(4) 0.0377(6) 0.5294(5)
H18 H 0.6486 0.0639 0.5473
O7 O 0.6541(2) 0.1769(3) 0.6519(3)
C33 C 0.4499(4) 0.0377(6) 0.5294(5)
H19 H 0.4153 0.0639 0.5473
Zn7 Zn 0.52834(5) 0.26417(3) 0.7500
Zn9 Zn 0.73583(3) 0.26417(6) 0.7500
Zn1 Zn 0.47166(5) 0.73583(3) 0.2500
F1 F 0.3333 0.6667 0.2500
O1 O 0.4772(2) 0.6541(2) 0.3481(3)
N1 N 0.6189(3) 0.80947(17) 0.2500
C1 C 0.4246(2) 0.5754(2) 0.3727(5)
C2 C 0.4635(2) 0.5365(2) 0.4396(5)
C3 C 0.4122(4) 0.4499(4) 0.4706(5)
H1 H 0.3514 0.4153 0.4527
C4 C 0.6662(3) 0.7656(3) 0.2500
H2 H 0.6340 0.7021 0.2500
C5 C 0.7605(3) 0.8097(3) 0.2500
H3 H 0.7909 0.7766 0.2500
C6 C 0.8088(4) 0.9044(2) 0.2500
C7 C 0.9102(4) 0.9551(2) 0.2500
O2 O 0.6541(2) 0.4772(2) 0.6519(3)
C8 C 0.5754(2) 0.4246(2) 0.6273(5)
C9 C 0.5365(2) 0.4635(2) 0.5604(5)
C10 C 0.4499(4) 0.4122(4) 0.5294(5)
H4 H 0.4153 0.3514 0.5473
O3 O 0.5228(2) 0.3459(2) 0.6519(3)
C11 C 0.5878(4) 0.5501(4) 0.5294(5)
H5 H 0.6486 0.5847 0.5473
O4 O 0.3459(2) 0.5228(2) 0.3481(3)
C12 C 0.5501(4) 0.5878(4) 0.4706(5)
H6 H 0.5847 0.6486 0.4527
N4 N 0.95287(18) 0.90574(25) 0.2500
H14 H 0.9857 0.7766 0.2500
C25 C 0.6662(3) 0.9006(4) 0.2500
H15 H 0.6340 0.9319 0.2500
C26 C 0.7605(3) 0.9508(4) 0.2500
O5 O 0.3459(2) 0.8231(3) 0.3481(3)
C27 C 0.4246(2) 0.8492(3) 0.3727(5)
C28 C 0.4635(2) 0.9270(3) 0.4396(5)
C29 C 0.5501(4) 0.9623(6) 0.4706(5)
H17 H 0.5847 0.9361 0.4527
O8 O 0.4772(2) 0.8231(3) 0.3481(3)
C34 C 0.4122(4) 0.9623(6) 0.4706(5)
H20 H 0.3514 0.9361 0.4527
O9 O 0.1769(3) 0.5228(2) 0.3481(3)
C35 C 0.1508(3) 0.5754(2) 0.3727(5)
C36 C 0.0730(3) 0.5365(2) 0.4396(5)
C37 C 0.0377(6) 0.5878(4) 0.4706(5)
H21 H 0.0639 0.6486 0.4527
O12 O 0.1769(3) 0.6541(2) 0.3481(3)
C42 C 0.0377(6) 0.4499(4) 0.4706(5)
H24 H 0.0639 0.4153 0.4527
Zn11 Zn 0.73583(6) 0.47166(5) 0.7500
O13 O 0.3459(2) 0.5228(2) 0.1519(3)
O14 O 0.1769(3) 0.6541(2) 0.1519(3)
O15 O 0.4772(2) 0.8231(3) 0.1519(3)
O16 O 0.4772(2) 0.6541(2) 0.1519(3)
O17 O 0.3459(2) 0.8231(3) 0.1519(3)
O18 O 0.1769(3) 0.5228(2) 0.1519(3)
O10 O 0.8231(3) 0.3459(2) 0.6519(3)
C38 C 0.8492(3) 0.4246(2) 0.6273(5)
C39 C 0.9270(3) 0.4635(2) 0.5604(5)
C40 C 0.9623(6) 0.5501(4) 0.5294(5)
H22 H 0.9361 0.5847 0.5473
O11 O 0.8231(3) 0.4772(2) 0.6519(3)
C41 C 0.9623(6) 0.4122(4) 0.5294(5)
H23 H 0.9361 0.3514 0.5473
C38_2 C 0.1508(3) 0.5754(2) 0.1273(5)
C39_2 C 0.0730(3) 0.5365(2) 0.0604(5)
C40_2 C 0.0377(6) 0.4499(4) 0.0294(5)
H22_2 H 0.0639 0.4153 0.0473
C41_2 C 0.0377(6) 0.5878(4) 0.0294(5)
H23_2 H 0.0639 0.6486 0.0473
C8_2 C 0.4246(2) 0.5754(2) 0.1273(5)
C9_2 C 0.4635(2) 0.5365(2) 0.0604(5)
C10_2 C 0.5501(4) 0.5878(4) 0.0294(5)
H4_2 H 0.5847 0.6486 0.0473
C11_2 C 0.4122(4) 0.4499(4) 0.0294(5)
H5_2 H 0.3514 0.4153 0.0473
F1_2 F 0.6667 0.3333 0.7500
O1_2 O 0.5228(2) 0.3459(2) 0.8481(3)
N1_2 N 0.3811(3) 0.19053(17) 0.7500
C1_2 C 0.5754(2) 0.4246(2) 0.8727(5)
C2_2 C 0.5365(2) 0.4635(2) 0.9396(5)
C3_2 C 0.5878(4) 0.5501(4) 0.9706(5)
H1_2 H 0.6486 0.5847 0.9527
C4_2 C 0.3338(3) 0.2344(3) 0.7500
H2_2 H 0.3660 0.2979 0.7500
C5_2 C 0.2395(3) 0.1903(3) 0.7500
H3_2 H 0.2091 0.2234 0.7500
C6_2 C 0.1912(4) 0.0956(2) 0.7500
C7_2 C 0.0898(4) 0.0449(2) 0.7500
O4_2 O 0.6541(2) 0.4772(2) 0.8481(3)
C12_2 C 0.4499(4) 0.4122(4) 0.9706(5)
H6_2 H 0.4153 0.3514 0.9527
N4_2 N 0.04713(18) 0.09426(25) 0.7500
H14_2 H 0.0143 0.2234 0.7500
C25_2 C 0.3338(3) 0.0994(4) 0.7500
H15_2 H 0.3660 0.0681 0.7500
C26_2 C 0.2395(3) 0.0492(4) 0.7500
O5_2 O 0.6541(2) 0.1769(3) 0.8481(3)
C27_2 C 0.5754(2) 0.1508(3) 0.8727(5)
C28_2 C 0.5365(2) 0.0730(3) 0.9396(5)
C29_2 C 0.4499(4) 0.0377(6) 0.9706(5)
H17_2 H 0.4153 0.0639 0.9527
O8_2 O 0.5228(2) 0.1769(3) 0.8481(3)
C34_2 C 0.5878(4) 0.0377(6) 0.9706(5)
H20_2 H 0.6486 0.0639 0.9527
O9_2 O 0.8231(3) 0.4772(2) 0.8481(3)
C35_2 C 0.8492(3) 0.4246(2) 0.8727(5)
C36_2 C 0.9270(3) 0.4635(2) 0.9396(5)
C37_2 C 0.9623(6) 0.4122(4) 0.9706(5)
H21_2 H 0.9361 0.3514 0.9527
O12_2 O 0.8231(3) 0.3459(2) 0.8481(3)
C42_2 C 0.9623(6) 0.5501(4) 0.9706(5)
H24_2 H 0.9361 0.5847 0.9527
N7 N 0.80947(17) 0.19057(34) 0.7500
N8 N 0.80943(34) 0.6189(3) 0.7500
C30_2 C 0.4246(2) 0.8492(3) 0.1273(5)
C31_2 C 0.4635(2) 0.9270(3) 0.0604(5)
C32_2 C 0.4122(4) 0.9623(6) 0.0294(5)
H18_2 H 0.3514 0.9361 0.0473
C33_2 C 0.5501(4) 0.9623(6) 0.0294(5)
H19_2 H 0.5847 0.9361 0.0473
N2_2 N 0.04713(18) 0.95287(18) 0.7500
H10_2 H 0.0143 0.7909 0.7500
H16_2 H 0.2091 0.9857 0.7500
C13_2 C 0.7656(3) 0.0994(4) 0.7500
H7_2 H 0.7021 0.0681 0.7500
C14_2 C 0.8097(3) 0.0492(4) 0.7500
C15_2 C 0.9044(2) 0.0956(4) 0.7500
C16_2 C 0.9551(2) 0.0449(4) 0.7500
C23_2 C 0.9006(4) 0.2344(3) 0.7500
H13_2 H 0.9319 0.2979 0.7500
C24_2 C 0.9508(4) 0.1903(3) 0.7500
H8_2 H 0.7766 0.9857 0.7500
N6_2 N 0.90574(25) 0.95287(18) 0.7500
C17_2 C 0.9006(4) 0.6662(3) 0.7500
H9_2 H 0.9319 0.6340 0.7500
C18_2 C 0.9508(4) 0.7605(3) 0.7500
C19_2 C 0.9044(4) 0.8088(4) 0.7500
C20_2 C 0.9551(4) 0.9102(4) 0.7500
C21_2 C 0.7656(3) 0.6662(3) 0.7500
H11_2 H 0.7021 0.6340 0.7500
C22_2 C 0.8097(3) 0.7605(3) 0.7500
H12_2 H 0.7766 0.7909 0.7500
loop_
_geom_bond_atom_site_label_1
_geom_bond_atom_site_label_2
_geom_bond_site_symmetry_1
_geom_bond_site_symmetry_2
N5 C17 1_555 1_555
C17 H9 1_555 1_555
C18 C17 1_555 1_555
C19 C18 1_555 1_555
C21 N5 1_555 1_555
H11 C21 1_555 1_555
C22 C19 1_555 1_555
H12 C22 1_555 1_555
Zn5 N5 1_555 1_555
N6 C20 1_555 1_555
C19 C20 1_555 1_555
C21 C22 1_555 1_555
N3 C13 1_555 1_555
C13 H7 1_555 1_555
C14 C13 1_555 1_555
C15 C14 1_555 1_555
C23 N3 1_555 1_555
H13 C23 1_555 1_555
C24 C15 1_555 1_555
Zn4 N3 1_555 1_555
C15 C16 1_555 1_555
C23 C24 1_555 1_555
O6 C30 1_555 1_555
C30 C31 1_555 1_555
C31 C32 1_555 1_555
H18 C32 1_555 1_555
O7 C30 1_555 1_555
C33 C31 1_555 1_555
H19 C33 1_555 1_555
Zn7 O6 1_555 1_555
Zn9 O7 1_555 1_555
Zn1 F1 1_555 1_555
F1 Zn4 1_555 1_555
O1 Zn1 1_555 1_555
N1 Zn1 1_555 1_555
C1 O1 1_555 1_555
C2 C1 1_555 1_555
C3 C2 1_555 1_555
H1 C3 1_555 1_555
C4 N1 1_555 1_555
H2 C4 1_555 1_555
C5 C4 1_555 1_555
H3 C5 1_555 1_555
C6 C5 1_555 1_555
C7 C6 1_555 1_555
O2 C8 1_555 1_555
C8 C9 1_555 1_555
C9 C10 1_555 1_555
C10 C3 1_555 1_555
H4 C10 1_555 1_555
O3 C8 1_555 1_555
C11 C9 1_555 1_555
H5 C11 1_555 1_555
O4 C1 1_555 1_555
C12 C2 1_555 1_555
H6 C12 1_555 1_555
N4 C7 1_555 1_555
C25 N1 1_555 1_555
H15 C25 1_555 1_555
C26 C6 1_555 1_555
Zn4 O5 1_555 1_555
O5 C27 1_555 1_555
C27 C28 1_555 1_555
C28 C29 1_555 1_555
C29 H17 1_555 1_555
O8 Zn1 1_555 1_555
C34 C28 1_555 1_555
H20 C34 1_555 1_555
Zn5 F1 1_555 1_555
O9 Zn5 1_555 1_555
C35 O9 1_555 1_555
C36 C35 1_555 1_555
C37 C36 1_555 1_555
H21 C37 1_555 1_555
O12 Zn4 1_555 1_555
C42 C36 1_555 1_555
H24 C42 1_555 1_555
Zn7 O3 1_555 1_555
Zn11 O2 1_555 1_555
O13 Zn5 1_555 1_555
O14 Zn4 1_555 1_555
O15 Zn1 1_555 1_555
O16 Zn1 1_555 1_555
O17 Zn4 1_555 1_555
O18 Zn5 1_555 1_555
C11 C12 1_555 1_555
O4 Zn5 1_555 1_555
C25 C26 1_555 1_555
C27 O8 1_555 1_555
C35 O12 1_555 1_555
O10 C38 1_555 1_555
C38 C39 1_555 1_555
C39 C40 1_555 1_555
H22 C40 1_555 1_555
O11 C38 1_555 1_555
C41 C39 1_555 1_555
H23 C41 1_555 1_555
Zn9 O10 1_555 1_555
Zn11 O11 1_555 1_555
O14 C38_2 1_555 1_555
C38_2 C39_2 1_555 1_555
C39_2 C40_2 1_555 1_555
H22_2 C40_2 1_555 1_555
O18 C38_2 1_555 1_555
C41_2 C39_2 1_555 1_555
H23_2 C41_2 1_555 1_555
O13 C8_2 1_555 1_555
C8_2 C9_2 1_555 1_555
C9_2 C10_2 1_555 1_555
H4_2 C10_2 1_555 1_555
O16 C8_2 1_555 1_555
C11_2 C9_2 1_555 1_555
H5_2 C11_2 1_555 1_555
Zn7 F1_2 1_555 1_555
F1_2 Zn9 1_555 1_555
O1_2 Zn7 1_555 1_555
N1_2 Zn7 1_555 1_555
C1_2 O1_2 1_555 1_555
C2_2 C1_2 1_555 1_555
C3_2 C2_2 1_555 1_555
H1_2 C3_2 1_555 1_555
C4_2 N1_2 1_555 1_555
H2_2 C4_2 1_555 1_555
C5_2 C4_2 1_555 1_555
H3_2 C5_2 1_555 1_555
C6_2 C5_2 1_555 1_555
C7_2 C6_2 1_555 1_555
O4_2 C1_2 1_555 1_555
C12_2 C2_2 1_555 1_555
H6_2 C12_2 1_555 1_555
N4_2 C7_2 1_555 1_555
C25_2 N1_2 1_555 1_555
H15_2 C25_2 1_555 1_555
C26_2 C6_2 1_555 1_555
Zn9 O5_2 1_555 1_555
O5_2 C27_2 1_555 1_555
C27_2 C28_2 1_555 1_555
C28_2 C29_2 1_555 1_555
C29_2 H17_2 1_555 1_555
O8_2 Zn7 1_555 1_555
C34_2 C28_2 1_555 1_555
H20_2 C34_2 1_555 1_555
Zn11 F1_2 1_555 1_555
O9_2 Zn11 1_555 1_555
C35_2 O9_2 1_555 1_555
C36_2 C35_2 1_555 1_555
C37_2 C36_2 1_555 1_555
H21_2 C37_2 1_555 1_555
O12_2 Zn9 1_555 1_555
C42_2 C36_2 1_555 1_555
H24_2 C42_2 1_555 1_555
N7 Zn9 1_555 1_555
N8 Zn11 1_555 1_555
O4_2 Zn11 1_555 1_555
C25_2 C26_2 1_555 1_555
C27_2 O8_2 1_555 1_555
C35_2 O12_2 1_555 1_555
O15 C30_2 1_555 1_555
C30_2 C31_2 1_555 1_555
C31_2 C32_2 1_555 1_555
H18_2 C32_2 1_555 1_555
O17 C30_2 1_555 1_555
C33_2 C31_2 1_555 1_555
H19_2 C33_2 1_555 1_555
N7 C13_2 1_555 1_555
C13_2 H7_2 1_555 1_555
C14_2 C13_2 1_555 1_555
C15_2 C14_2 1_555 1_555
C23_2 N7 1_555 1_555
H13_2 C23_2 1_555 1_555
C24_2 C15_2 1_555 1_555
C15_2 C16_2 1_555 1_555
C23_2 C24_2 1_555 1_555
N8 C17_2 1_555 1_555
C17_2 H9_2 1_555 1_555
C18_2 C17_2 1_555 1_555
C19_2 C18_2 1_555 1_555
C21_2 N8 1_555 1_555
H11_2 C21_2 1_555 1_555
C22_2 C19_2 1_555 1_555
H12_2 C22_2 1_555 1_555
N6_2 C20_2 1_555 1_555
C19_2 C20_2 1_555 1_555
C21_2 C22_2 1_555 1_555

#END
