
###############################################################################
#
# This file contains modified crystal structure data generated from the
# MOF subset of the Cambridge Structural Database (CSD) v543 
# hosted by the Cambridge Crystallographic Data Centre (CCDC).
#
# This work is licensed under the Creative Commons
# Attribution-NonCommercial-ShareAlike 4.0 International License.
# To view a copy of this license, visit
# http://creativecommons.org/licenses/by-nc-sa/4.0/
# or send a letter to
# Creative Commons, PO Box 1866, Mountain View, CA 94042, USA.
#
# CIF created using the CSD Python API on 29 September 2022
# The structure has been converted into the P1 space group
# The structure has a 3D framework
# The original CSD entry EPODAR is in the hexagonal crystal system
# The framework has been calculated to contain at least 10.0% void space
# The void calculation uses a probe of radius 1.32A, grid spacing 0.4
#
###############################################################################

data_EPODAR
_chemical_formula_moiety         '(C84 H48 F2 N12 Ni6 O24)n'
_symmetry_cell_setting           triclinic
_symmetry_space_group_name_H-M   'P 1'
_symmetry_Int_Tables_number      1
_space_group_name_Hall           'P 1'
loop_
_symmetry_equiv_pos_site_id
_symmetry_equiv_pos_as_xyz
1 x,y,z
_cell_length_a                   16.77740(10)
_cell_length_b                   16.77740(10)
_cell_length_c                   15.0904(2)
_cell_angle_alpha                90
_cell_angle_beta                 90
_cell_angle_gamma                120
_cell_volume                     3678.58
loop_
_atom_site_label
_atom_site_type_symbol
_atom_site_fract_x
_atom_site_fract_y
_atom_site_fract_z
Ni1 Ni 0.26438(2) 0.52875(3) 0.2500
F1 F 0.3333 0.6667 0.2500
O1 O 0.17510(10) 0.52127(9) 0.15465(10)
N1 N 0.19167(9) 0.38334(18) 0.2500
C1 C 0.14709(17) 0.57355(8) 0.13036(15)
C2 C 0.0702(2) 0.53511(10) 0.06291(19)
C3 C 0.0349(2) 0.44729(17) 0.0310(2)
H1 H 0.0583 0.4108 0.0515
C4 C 0.04475(13) 0.0895(3) 0.2500
C5 C 0.09582(12) 0.1916(2) 0.2500
C6 C 0.04982(18) 0.24037(19) 0.2500
C7 C 0.10006(18) 0.33545(19) 0.2500
H3 H 0.0682 0.3676 0.2500
O4 O 0.17510(10) 0.65383(13) 0.15465(10)
C12 C 0.0349(2) 0.58761(26) 0.0310(2)
H6 H 0.0583 0.6475 0.0515
N6 N 0.09404(16) 0.04702(11) 0.2500
H9 H 0.2239 0.0142 0.2500
C25 C 0.19055(26) 0.24037(19) 0.2500
H15 H 0.2239 0.2097 0.2500
C26 C 0.23539(26) 0.33545(19) 0.2500
H16 H 0.2994 0.3676 0.2500
Ni6 Ni 0.47125(3) 0.73563(4) 0.2500
Ni10 Ni 0.26437(4) 0.73562(2) 0.2500
O15 O 0.34617(13) 0.52127(9) 0.34535(10)
O17 O 0.17510(10) 0.52127(9) 0.34535(10)
O19 O 0.34617(13) 0.52127(9) 0.15465(10)
N5 N 0.19167(20) 0.80833(9) 0.2500
C17 C 0.04475(33) 0.95525(13) 0.2500
C18 C 0.09578(23) 0.90418(12) 0.2500
C19 C 0.19055(26) 0.95018(18) 0.2500
C20 C 0.23539(26) 0.89994(18) 0.2500
H10 H 0.2994 0.9318 0.2500
C23 C 0.04982(18) 0.80945(26) 0.2500
C24 C 0.10006(18) 0.76461(26) 0.2500
H14 H 0.0682 0.7006 0.2500
N2 N 0.95298(11) 0.04702(11) 0.2500
H2 H 0.9858 0.2097 0.2500
H11 H 0.7903 0.0142 0.2500
O2 O 0.82490(10) 0.34617(13) 0.84535(10)
C8 C 0.85291(17) 0.42646(19) 0.86964(15)
C9 C 0.9298(2) 0.46491(22) 0.93709(19)
C10 C 0.9651(2) 0.41239(26) 0.9690(2)
H4 H 0.9417 0.3525 0.9485
O3 O 0.82490(10) 0.47873(9) 0.84535(10)
C11 C 0.9651(2) 0.55271(17) 0.9690(2)
H5 H 0.9417 0.5892 0.9485
O10 O 0.52127(9) 0.17510(10) 0.84535(10)
C38 C 0.57355(8) 0.14709(17) 0.86964(15)
C39 C 0.53511(10) 0.0702(2) 0.93709(19)
C40 C 0.44729(17) 0.0349(2) 0.9690(2)
H22 H 0.4108 0.0583 0.9485
O11 O 0.65383(13) 0.17510(10) 0.84535(10)
C41 C 0.58761(26) 0.0349(2) 0.9690(2)
H23 H 0.6475 0.0583 0.9485
Ni5 Ni 0.73563(4) 0.26438(2) 0.7500
Ni8 Ni 0.73562(2) 0.47125(3) 0.7500
Ni12 Ni 0.52875(3) 0.26437(4) 0.7500
N3 N 0.61666(18) 0.80833(20) 0.2500
N4 N 0.95298(11) 0.90596(16) 0.2500
C13 C 0.9105(3) 0.95525(33) 0.2500
C14 C 0.8084(2) 0.90422(23) 0.2500
C15 C 0.75963(19) 0.80945(26) 0.2500
H7 H 0.7903 0.7761 0.2500
C16 C 0.66455(19) 0.76461(26) 0.2500
H8 H 0.6324 0.7006 0.2500
C21 C 0.75963(19) 0.95018(18) 0.2500
C22 C 0.66455(19) 0.89994(18) 0.2500
H12 H 0.6324 0.9318 0.2500
H13 H 0.9858 0.7761 0.2500
O5 O 0.47873(9) 0.65383(13) 0.15465(10)
C27 C 0.42645(8) 0.57354(19) 0.13036(15)
C28 C 0.46489(10) 0.53509(22) 0.06291(19)
C29 C 0.55271(17) 0.58761(26) 0.0310(2)
H17 H 0.5892 0.6475 0.0515
C34 C 0.41239(26) 0.44729(17) 0.0310(2)
H20 H 0.3525 0.4108 0.0515
O9 O 0.34617(13) 0.82490(10) 0.15465(10)
C35 C 0.42646(19) 0.85291(17) 0.13036(15)
C36 C 0.46491(22) 0.9298(2) 0.06291(19)
C37 C 0.41239(26) 0.9651(2) 0.0310(2)
H21 H 0.3525 0.9417 0.0515
O12 O 0.47873(9) 0.82490(10) 0.15465(10)
C42 C 0.55271(17) 0.9651(2) 0.0310(2)
H24 H 0.5892 0.9417 0.0515
O13 O 0.47873(9) 0.82490(10) 0.34535(10)
O14 O 0.17510(10) 0.65383(13) 0.34535(10)
O16 O 0.34617(13) 0.82490(10) 0.34535(10)
O18 O 0.47873(9) 0.65383(13) 0.34535(10)
O6 O 0.65383(13) 0.47873(9) 0.84535(10)
C30 C 0.57354(19) 0.42645(8) 0.86964(15)
C31 C 0.53509(22) 0.46489(10) 0.93709(19)
C32 C 0.58761(26) 0.55271(17) 0.9690(2)
H18 H 0.6475 0.5892 0.9485
O7 O 0.52127(9) 0.34617(13) 0.84535(10)
C33 C 0.44729(17) 0.41239(26) 0.9690(2)
H19 H 0.4108 0.3525 0.9485
N5_2 N 0.38334(22) 0.19167(20) 0.7500
N6_2 N 0.04702(19) 0.09404(16) 0.7500
C17_2 C 0.08950(35) 0.04475(33) 0.7500
C18_2 C 0.19160(26) 0.09578(23) 0.7500
C19_2 C 0.24037(32) 0.19055(26) 0.7500
H9_2 H 0.2097 0.2239 0.7500
C20_2 C 0.33545(32) 0.23539(26) 0.7500
H10_2 H 0.3676 0.2994 0.7500
C23_2 C 0.24037(32) 0.04982(18) 0.7500
C24_2 C 0.33545(32) 0.10006(18) 0.7500
H14_2 H 0.3676 0.0682 0.7500
H15_2 H 0.0142 0.2239 0.7500
N4_2 N 0.04702(19) 0.95298(11) 0.7500
H7_2 H 0.0142 0.7903 0.7500
H13_2 H 0.2097 0.9858 0.7500
C30_2 C 0.14709(21) 0.57354(19) 0.36964(15)
C31_2 C 0.07020(24) 0.53509(22) 0.43709(19)
C32_2 C 0.03490(31) 0.58761(26) 0.4690(2)
H18_2 H 0.0583 0.6475 0.4485
C33_2 C 0.03490(31) 0.44729(17) 0.4690(2)
H19_2 H 0.0583 0.4108 0.4485
F1_2 F 0.6666 0.3333 0.7500
O1_2 O 0.65383(13) 0.17510(10) 0.65465(10)
N1_2 N 0.80833(20) 0.19167(9) 0.7500
C1_2 C 0.57354(19) 0.14709(17) 0.63036(15)
C2_2 C 0.53509(22) 0.0702(2) 0.56291(19)
C3_2 C 0.58761(26) 0.0349(2) 0.5310(2)
H1_2 H 0.6475 0.0583 0.5515
C4_2 C 0.95525(33) 0.04475(13) 0.7500
C5_2 C 0.90422(23) 0.09582(12) 0.7500
C6_2 C 0.80945(26) 0.04982(18) 0.7500
C7_2 C 0.76461(26) 0.10006(18) 0.7500
H3_2 H 0.7006 0.0682 0.7500
O4_2 O 0.52127(16) 0.17510(10) 0.65465(10)
C12_2 C 0.44729(33) 0.0349(2) 0.5310(2)
H6_2 H 0.4108 0.0583 0.5515
C25_2 C 0.95018(32) 0.19055(26) 0.7500
C26_2 C 0.89994(32) 0.23539(26) 0.7500
H16_2 H 0.9318 0.2994 0.7500
O19_2 O 0.82490(16) 0.34617(13) 0.65465(10)
N2_2 N 0.90596(16) 0.95298(11) 0.7500
H2_2 H 0.7761 0.9858 0.7500
C8_2 C 0.42645(25) 0.85291(17) 0.36964(15)
C9_2 C 0.46489(30) 0.9298(2) 0.43709(19)
C10_2 C 0.55271(33) 0.9651(2) 0.4690(2)
H4_2 H 0.5892 0.9417 0.4485
C11_2 C 0.41239(26) 0.9651(2) 0.4690(2)
H5_2 H 0.3525 0.9417 0.4485
N3_2 N 0.80833(27) 0.61666(18) 0.7500
C13_2 C 0.95525(45) 0.9105(3) 0.7500
C14_2 C 0.90418(30) 0.8084(2) 0.7500
C15_2 C 0.95018(32) 0.75963(19) 0.7500
C16_2 C 0.89994(32) 0.66455(19) 0.7500
H8_2 H 0.9318 0.6324 0.7500
C21_2 C 0.80945(26) 0.75963(19) 0.7500
H11_2 H 0.7761 0.7903 0.7500
C22_2 C 0.76461(26) 0.66455(19) 0.7500
H12_2 H 0.7006 0.6324 0.7500
O5_2 O 0.82490(16) 0.47873(9) 0.65465(10)
C27_2 C 0.85291(21) 0.42645(8) 0.63036(15)
C28_2 C 0.92980(24) 0.46489(10) 0.56291(19)
C29_2 C 0.96510(31) 0.55271(17) 0.5310(2)
H17_2 H 0.9417 0.5892 0.5515
C34_2 C 0.96510(31) 0.41239(26) 0.5310(2)
H20_2 H 0.9417 0.3525 0.5515
O9_2 O 0.52127(16) 0.34617(13) 0.65465(10)
C35_2 C 0.57355(25) 0.42646(19) 0.63036(15)
C36_2 C 0.53511(30) 0.46491(22) 0.56291(19)
C37_2 C 0.44729(33) 0.41239(26) 0.5310(2)
H21_2 H 0.4108 0.3525 0.5515
C38_2 C 0.42646(19) 0.57355(8) 0.36964(15)
C39_2 C 0.46491(22) 0.53511(10) 0.43709(19)
C40_2 C 0.41239(26) 0.44729(17) 0.4690(2)
H22_2 H 0.3525 0.4108 0.4485
C41_2 C 0.55271(33) 0.58761(26) 0.4690(2)
H23_2 H 0.5892 0.6475 0.4485
O12_2 O 0.65383(13) 0.47873(9) 0.65465(10)
C42_2 C 0.58761(26) 0.55271(17) 0.5310(2)
H24_2 H 0.6475 0.5892 0.5515
loop_
_geom_bond_atom_site_label_1
_geom_bond_atom_site_label_2
_geom_bond_site_symmetry_1
_geom_bond_site_symmetry_2
Ni1 F1 1_555 1_555
F1 Ni6 1_555 1_555
O1 Ni1 1_555 1_555
N1 Ni1 1_555 1_555
C1 O1 1_555 1_555
C2 C1 1_555 1_555
C3 C2 1_555 1_555
H1 C3 1_555 1_555
C4 C5 1_555 1_555
C5 C6 1_555 1_555
C7 N1 1_555 1_555
H3 C7 1_555 1_555
O4 C1 1_555 1_555
C12 C2 1_555 1_555
H6 C12 1_555 1_555
N6 C4 1_555 1_555
C25 C5 1_555 1_555
H15 C25 1_555 1_555
C26 N1 1_555 1_555
H16 C26 1_555 1_555
Ni10 F1 1_555 1_555
O15 Ni1 1_555 1_555
O17 Ni1 1_555 1_555
O19 Ni1 1_555 1_555
C6 C7 1_555 1_555
O4 Ni10 1_555 1_555
C25 C26 1_555 1_555
N5 C20 1_555 1_555
C18 C17 1_555 1_555
C19 C18 1_555 1_555
C20 C19 1_555 1_555
H10 C20 1_555 1_555
C23 C18 1_555 1_555
C24 N5 1_555 1_555
H14 C24 1_555 1_555
Ni10 N5 1_555 1_555
C23 C24 1_555 1_555
O2 C8 1_555 1_555
C8 C9 1_555 1_555
C9 C10 1_555 1_555
H4 C10 1_555 1_555
O3 C8 1_555 1_555
C11 C9 1_555 1_555
H5 C11 1_555 1_555
O10 C38 1_555 1_555
C38 C39 1_555 1_555
C39 C40 1_555 1_555
H22 C40 1_555 1_555
O11 C38 1_555 1_555
C41 C39 1_555 1_555
H23 C41 1_555 1_555
Ni5 O2 1_555 1_555
Ni8 O3 1_555 1_555
Ni12 O10 1_555 1_555
O11 Ni5 1_555 1_555
N3 C16 1_555 1_555
N4 C13 1_555 1_555
C14 C13 1_555 1_555
C15 C14 1_555 1_555
H7 C15 1_555 1_555
C16 C15 1_555 1_555
H8 C16 1_555 1_555
C21 C14 1_555 1_555
C22 N3 1_555 1_555
H12 C22 1_555 1_555
Ni6 N3 1_555 1_555
O5 Ni6 1_555 1_555
C27 O5 1_555 1_555
C28 C27 1_555 1_555
C29 C28 1_555 1_555
H17 C29 1_555 1_555
O19 C27 1_555 1_555
C34 C28 1_555 1_555
H20 C34 1_555 1_555
Ni10 O9 1_555 1_555
O9 C35 1_555 1_555
C35 C36 1_555 1_555
C36 C37 1_555 1_555
C37 H21 1_555 1_555
O12 Ni6 1_555 1_555
C42 C36 1_555 1_555
H24 C42 1_555 1_555
O13 Ni6 1_555 1_555
O14 Ni10 1_555 1_555
O16 Ni10 1_555 1_555
O18 Ni6 1_555 1_555
C21 C22 1_555 1_555
C35 O12 1_555 1_555
O6 C30 1_555 1_555
C30 C31 1_555 1_555
C31 C32 1_555 1_555
H18 C32 1_555 1_555
O7 C30 1_555 1_555
C33 C31 1_555 1_555
H19 C33 1_555 1_555
Ni8 O6 1_555 1_555
Ni12 O7 1_555 1_555
N5_2 C20_2 1_555 1_555
C18_2 C17_2 1_555 1_555
C19_2 C18_2 1_555 1_555
H9_2 C19_2 1_555 1_555
C20_2 C19_2 1_555 1_555
H10_2 C20_2 1_555 1_555
C23_2 C18_2 1_555 1_555
C24_2 N5_2 1_555 1_555
H14_2 C24_2 1_555 1_555
Ni12 N5_2 1_555 1_555
N6_2 C17_2 1_555 1_555
C23_2 C24_2 1_555 1_555
O14 C30_2 1_555 1_555
C30_2 C31_2 1_555 1_555
C31_2 C32_2 1_555 1_555
H18_2 C32_2 1_555 1_555
O17 C30_2 1_555 1_555
C33_2 C31_2 1_555 1_555
H19_2 C33_2 1_555 1_555
Ni5 F1_2 1_555 1_555
F1_2 Ni8 1_555 1_555
O1_2 Ni5 1_555 1_555
N1_2 Ni5 1_555 1_555
C1_2 O1_2 1_555 1_555
C2_2 C1_2 1_555 1_555
C3_2 C2_2 1_555 1_555
H1_2 C3_2 1_555 1_555
C4_2 C5_2 1_555 1_555
C5_2 C6_2 1_555 1_555
C7_2 N1_2 1_555 1_555
H3_2 C7_2 1_555 1_555
O4_2 C1_2 1_555 1_555
C12_2 C2_2 1_555 1_555
H6_2 C12_2 1_555 1_555
C25_2 C5_2 1_555 1_555
C26_2 N1_2 1_555 1_555
H16_2 C26_2 1_555 1_555
Ni12 F1_2 1_555 1_555
O19_2 Ni5 1_555 1_555
C6_2 C7_2 1_555 1_555
O4_2 Ni12 1_555 1_555
C25_2 C26_2 1_555 1_555
O13 C8_2 1_555 1_555
C8_2 C9_2 1_555 1_555
C9_2 C10_2 1_555 1_555
H4_2 C10_2 1_555 1_555
O16 C8_2 1_555 1_555
C11_2 C9_2 1_555 1_555
H5_2 C11_2 1_555 1_555
N3_2 C16_2 1_555 1_555
C13_2 N2_2 1_555 1_555
C14_2 C13_2 1_555 1_555
C15_2 C14_2 1_555 1_555
C16_2 C15_2 1_555 1_555
H8_2 C16_2 1_555 1_555
C21_2 C14_2 1_555 1_555
H11_2 C21_2 1_555 1_555
C22_2 N3_2 1_555 1_555
H12_2 C22_2 1_555 1_555
Ni8 N3_2 1_555 1_555
O5_2 Ni8 1_555 1_555
C27_2 O5_2 1_555 1_555
C28_2 C27_2 1_555 1_555
C29_2 C28_2 1_555 1_555
H17_2 C29_2 1_555 1_555
O19_2 C27_2 1_555 1_555
C34_2 C28_2 1_555 1_555
H20_2 C34_2 1_555 1_555
Ni12 O9_2 1_555 1_555
O9_2 C35_2 1_555 1_555
C35_2 C36_2 1_555 1_555
C36_2 C37_2 1_555 1_555
C37_2 H21_2 1_555 1_555
O15 C38_2 1_555 1_555
C38_2 C39_2 1_555 1_555
C39_2 C40_2 1_555 1_555
C40_2 C37_2 1_555 1_555
H22_2 C40_2 1_555 1_555
O18 C38_2 1_555 1_555
C41_2 C39_2 1_555 1_555
H23_2 C41_2 1_555 1_555
O12_2 Ni8 1_555 1_555
C42_2 C36_2 1_555 1_555
H24_2 C42_2 1_555 1_555
C21_2 C22_2 1_555 1_555
C35_2 O12_2 1_555 1_555
C41_2 C42_2 1_555 1_555

#END
