
###############################################################################
#
# This file contains modified crystal structure data generated from the
# MOF subset of the Cambridge Structural Database (CSD) v543 
# hosted by the Cambridge Crystallographic Data Centre (CCDC).
#
# This work is licensed under the Creative Commons
# Attribution-NonCommercial-ShareAlike 4.0 International License.
# To view a copy of this license, visit
# http://creativecommons.org/licenses/by-nc-sa/4.0/
# or send a letter to
# Creative Commons, PO Box 1866, Mountain View, CA 94042, USA.
#
# CIF created using the CSD Python API on 29 September 2022
# The structure has been converted into the P1 space group
# The structure has a 3D framework
# The original CSD entry EPUVAP is in the monoclinic crystal system
# The framework has been calculated to contain at least 10.0% void space
# The void calculation uses a probe of radius 1.32A, grid spacing 0.4
#
###############################################################################

data_EPUVAP
_chemical_formula_moiety         '(C108 H84 N24 Ni10 O34 8+)n'
_symmetry_cell_setting           triclinic
_symmetry_space_group_name_H-M   'P 1'
_symmetry_Int_Tables_number      1
_space_group_name_Hall           'P 1'
loop_
_symmetry_equiv_pos_site_id
_symmetry_equiv_pos_as_xyz
1 x,y,z
_cell_length_a                   10.13653(10)
_cell_length_b                   25.9159(2)
_cell_length_c                   15.63851(15)
_cell_angle_alpha                90
_cell_angle_beta                 101.0451(9)
_cell_angle_gamma                90
_cell_volume                     4032.1
loop_
_atom_site_label
_atom_site_type_symbol
_atom_site_fract_x
_atom_site_fract_y
_atom_site_fract_z
O17 O 0.04324(13) 0.27197(5) 0.70484(8)
Ni6 Ni 0.19449(3) 0.30970(2) 0.79764(2)
Ni2 Ni -0.000000 0.500000 0.000000
H5 H 0.1946(15) 0.5703(10) 0.0106(18)
O10 O 0.51711(17) 0.32659(8) 0.85569(13)
O11 O 0.28986(14) 0.35102(5) 0.90203(9)
H22 H 0.271(2) 0.3483(10) 0.9520(9)
H23 H 0.3708(12) 0.3437(10) 0.9051(15)
O12 O 0.36175(13) 0.29091(5) 0.75244(9)
O13 O 0.16827(17) 0.45441(6) 0.00795(11)
H25 H 0.169(3) 0.4224(4) 0.016(2)
O14 O 0.49363(15) 0.14894(6) 0.58212(11)
O16 O 0.70147(15) 0.14532(6) 0.55508(10)
O18 O 0.99608(13) 0.31517(5) 0.81665(9)
N7 N 0.04908(19) 0.51161(7) 0.13575(12)
N8 N 0.28166(17) 0.73839(6) 0.63677(11)
N9 N 0.18157(16) 0.37527(6) 0.71828(11)
N10 N 0.18755(17) 0.58310(6) 0.43908(11)
N11 N 0.15634(17) 0.49357(6) 0.46094(11)
N12 N 0.21237(17) 0.54943(6) 0.58262(11)
C28 C 0.4806(2) 0.29990(8) 0.78854(15)
C29 C 0.5869(2) 0.27544(8) 0.74636(14)
C30 C 0.55278(19) 0.23491(8) 0.68775(14)
H28 H 0.464009 0.223795 0.673876
C31 C 0.65000(19) 0.21088(7) 0.64975(13)
C32 C 0.78228(19) 0.22857(7) 0.66949(12)
H29 H 0.847540 0.213231 0.643431
C33 C 0.81713(18) 0.26894(7) 0.72782(12)
C34 C 0.72004(19) 0.29188(8) 0.76769(13)
H30 H 0.744089 0.318050 0.808379
C35 C 0.6109(2) 0.16514(7) 0.59078(13)
C36 C 0.95986(18) 0.28669(7) 0.75070(12)
C37 C 0.0681(3) 0.47183(8) 0.19125(14)
H31 H 0.056597 0.438625 0.168503
C38 C 0.1037(2) 0.47743(8) 0.28045(14)
H32 H 0.113631 0.448694 0.316738
C39 C 0.1246(2) 0.52665(8) 0.31492(13)
C40 C 0.1077(2) 0.56837(8) 0.25782(13)
H33 H 0.123129 0.601866 0.278697
C41 C 0.0677(2) 0.55922(8) 0.16957(14)
H34 H 0.052951 0.587326 0.131969
C42 C 0.15965(19) 0.53498(7) 0.41032(13)
C43 C 0.2119(2) 0.58797(7) 0.52556(13)
C44 C 0.18505(19) 0.50297(7) 0.54654(13)
C45 C 0.2379(2) 0.64051(7) 0.56310(14)
C46 C 0.2516(3) 0.68288(8) 0.51211(15)
H35 H 0.245966 0.679353 0.452337
C47 C 0.2738(2) 0.73070(8) 0.55152(14)
H36 H 0.283755 0.759015 0.516774
C48 C 0.2657(3) 0.69741(9) 0.68543(15)
H37 H 0.268934 0.702117 0.744759
C49 C 0.2444(3) 0.64828(9) 0.65130(15)
H38 H 0.234586 0.620600 0.687405
C50 C 0.2167(2) 0.42257(8) 0.74969(14)
H39 H 0.240681 0.426994 0.809673
C51 C 0.2185(2) 0.46508(8) 0.69604(14)
H40 H 0.242406 0.497437 0.719768
C52 C 0.18413(19) 0.45860(7) 0.60628(13)
C53 C 0.1488(2) 0.40946(8) 0.57377(14)
H41 H 0.125798 0.403770 0.514049
C54 C 0.1484(2) 0.36950(8) 0.63162(14)
H42 H 0.124023 0.336828 0.609495
Ni7 Ni 0.30551(3) 0.80970(2) 0.70236(2)
N14 N 0.21834(17) 0.23839(6) 0.86323(11)
Ni2_2 Ni 1.000000 0.500000 0.000000
H3 H 0.762(2) 0.5366(11) 0.010(2)
O15 O 0.88288(17) 0.43778(6) 0.01748(11)
H27 H 0.923(2) 0.4096(7) 0.0320(19)
N12_2 N 0.28763(17) 0.04943(6) 0.91738(11)
C43_2 C 0.2881(2) 0.08797(7) 0.97444(13)
C44_2 C 0.31495(19) 0.00297(7) 0.95346(13)
C45_2 C 0.2621(2) 0.14051(7) 0.93690(14)
C46_2 C 0.2484(3) 0.18288(8) 0.98789(15)
C47_2 C 0.2262(2) 0.23070(8) 0.94848(14)
H36_2 H 0.216245 0.259015 0.983226
C48_2 C 0.2343(3) 0.19741(9) 0.81457(15)
H37_2 H 0.231066 0.202117 0.755241
C49_2 C 0.2556(3) 0.14828(9) 0.84870(15)
H38_2 H 0.265414 0.120600 0.812595
O11_2 O 0.21014(14) 0.85102(5) 0.59797(9)
H22_2 H 0.229(2) 0.8483(10) 0.5480(9)
H23_2 H 0.1292(12) 0.8437(10) 0.5949(15)
O12_2 O 0.13825(13) 0.79091(5) 0.74756(9)
O14_2 O 0.00637(15) 0.64894(6) 0.91788(11)
N9_2 N 0.31843(16) 0.87527(6) 0.78172(11)
C28_2 C 0.0194(2) 0.79990(8) 0.71146(15)
H28_2 H 0.035991 0.723795 0.826124
C50_2 C 0.2833(2) 0.92257(8) 0.75031(14)
H39_2 H 0.259319 0.926994 0.690327
C51_2 C 0.2815(2) 0.96508(8) 0.80396(14)
H40_2 H 0.257594 0.997437 0.780232
C52_2 C 0.31587(19) 0.95860(7) 0.89372(13)
C53_2 C 0.3512(2) 0.90946(8) 0.92623(14)
H41_2 H 0.374202 0.903770 0.985951
C54_2 C 0.3516(2) 0.86950(8) 0.86838(14)
H42_2 H 0.375977 0.836828 0.890505
O20 O 0.45676(13) 0.77197(5) 0.79516(8)
O22 O 0.50392(13) 0.81517(5) 0.68335(9)
O10_2 O 0.98289(17) 0.82659(8) 0.64431(13)
O16_2 O 0.79853(15) 0.64532(6) 0.94492(10)
C29_2 C 0.9131(2) 0.77544(8) 0.75364(14)
C30_2 C 0.94722(19) 0.73491(8) 0.81225(14)
C31_2 C 0.85000(19) 0.71088(7) 0.85025(13)
C32_2 C 0.71772(19) 0.72857(7) 0.83051(12)
H29_2 H 0.652460 0.713231 0.856569
C33_2 C 0.68287(18) 0.76894(7) 0.77218(12)
C34_2 C 0.77996(19) 0.79188(8) 0.73231(13)
H30_2 H 0.755911 0.818050 0.691621
C35_2 C 0.8891(2) 0.66514(7) 0.90922(13)
C36_2 C 0.54014(18) 0.78669(7) 0.74930(12)
Ni2_3 Ni -0.000000 0.500000 1.000000
O6 O 0.11712(17) 0.56222(6) 0.98252(11)
H6 H 0.077(2) 0.5904(7) 0.9680(19)
H24 H 0.238(2) 0.4634(11) 0.990(2)
O21 O 0.00392(13) 0.68483(5) 0.18335(9)
Ni1 Ni 0.80551(3) 0.69030(2) 0.20236(2)
Ni2_4 Ni 1.000000 0.500000 1.000000
O1 O 0.48289(17) 0.67341(8) 0.14431(13)
O2 O 0.71014(14) 0.64898(5) 0.09797(9)
H1 H 0.729(2) 0.6517(10) 0.0480(9)
H2 H 0.6292(12) 0.6563(10) 0.0949(15)
O3 O 0.63825(13) 0.70909(5) 0.24756(9)
O4 O 0.83173(17) 0.54559(6) 0.99205(11)
H4 H 0.831(3) 0.5776(4) 0.984(2)
O5 O 0.50637(15) 0.85106(6) 0.41788(11)
O7 O 0.29853(15) 0.85468(6) 0.44492(10)
N1 N 0.95092(19) 0.48839(7) 0.86425(12)
N2 N 0.71834(17) 0.26161(6) 0.36323(11)
N3 N 0.81843(16) 0.62473(6) 0.28172(11)
N4 N 0.81245(17) 0.41690(6) 0.56092(11)
N5 N 0.84366(17) 0.50643(6) 0.53906(11)
N6 N 0.78763(17) 0.45057(6) 0.41738(11)
C1 C 0.5194(2) 0.70010(8) 0.21146(15)
C2 C 0.4131(2) 0.72456(8) 0.25364(14)
C3 C 0.44722(19) 0.76509(8) 0.31225(14)
H7 H 0.535991 0.776205 0.326124
C4 C 0.35000(19) 0.78912(7) 0.35025(13)
C5 C 0.21772(19) 0.77143(7) 0.33051(12)
H8 H 0.152460 0.786769 0.356569
C6 C 0.18287(18) 0.73106(7) 0.27218(12)
C7 C 0.27996(19) 0.70812(8) 0.23231(13)
H9 H 0.255911 0.681950 0.191621
C8 C 0.3891(2) 0.83486(7) 0.40922(13)
C9 C 0.04014(18) 0.71331(7) 0.24930(12)
C10 C 0.9319(3) 0.52817(8) 0.80875(14)
H10 H 0.943403 0.561375 0.831497
C11 C 0.8963(2) 0.52257(8) 0.71955(14)
H11 H 0.886369 0.551306 0.683262
C12 C 0.8754(2) 0.47335(8) 0.68508(13)
C13 C 0.8923(2) 0.43163(8) 0.74218(13)
H12 H 0.876871 0.398134 0.721303
C14 C 0.9323(2) 0.44078(8) 0.83043(14)
H13 H 0.947049 0.412674 0.868031
C15 C 0.84035(19) 0.46502(7) 0.58968(13)
C16 C 0.7881(2) 0.41203(7) 0.47444(13)
C17 C 0.81495(19) 0.49703(7) 0.45346(13)
C18 C 0.7621(2) 0.35949(7) 0.43690(14)
C19 C 0.7484(3) 0.31712(8) 0.48789(15)
H14 H 0.754034 0.320647 0.547663
C20 C 0.7262(2) 0.26930(8) 0.44848(14)
H15 H 0.716245 0.240985 0.483226
C21 C 0.7343(3) 0.30259(9) 0.31457(15)
H16 H 0.731066 0.297883 0.255241
C22 C 0.7556(3) 0.35172(9) 0.34870(15)
H17 H 0.765414 0.379400 0.312595
C23 C 0.7833(2) 0.57743(8) 0.25031(14)
H18 H 0.759319 0.573006 0.190327
C24 C 0.7815(2) 0.53492(8) 0.30396(14)
H19 H 0.757594 0.502563 0.280232
C25 C 0.81587(19) 0.54140(7) 0.39372(13)
C26 C 0.8512(2) 0.59054(8) 0.42623(14)
H20 H 0.874202 0.596230 0.485951
C27 C 0.8516(2) 0.63050(8) 0.36838(14)
H21 H 0.875977 0.663172 0.390505
H26 H 0.8054(15) 0.4297(10) 0.9894(18)
Ni5 Ni 0.69449(3) 0.19030(2) 0.29764(2)
O19 O 0.95676(13) 0.72803(5) 0.29516(8)
N13 N 0.78166(17) 0.76161(6) 0.13677(11)
O1_2 O 0.01711(17) 0.17341(8) 0.35569(13)
O7_2 O 0.20147(15) 0.35468(6) 0.05508(10)
O8 O 0.54324(13) 0.22803(5) 0.20484(8)
O9 O 0.49608(13) 0.18483(5) 0.31665(9)
C2_2 C 0.0869(2) 0.22456(8) 0.24636(14)
C3_2 C 0.05278(19) 0.26509(8) 0.18775(14)
C4_2 C 0.15000(19) 0.28912(7) 0.14975(13)
C5_2 C 0.28228(19) 0.27143(7) 0.16949(12)
H8_2 H 0.347540 0.286769 0.143431
C6_2 C 0.31713(18) 0.23106(7) 0.22782(12)
C7_2 C 0.22004(19) 0.20812(8) 0.26769(13)
H9_2 H 0.244089 0.181950 0.308379
C8_2 C 0.1109(2) 0.33486(7) 0.09078(13)
C9_2 C 0.45986(18) 0.21331(7) 0.25070(12)
O2_2 O 0.78986(14) 0.14898(5) 0.40203(9)
H1_2 H 0.771(2) 0.1517(10) 0.4520(9)
H2_2 H 0.8708(12) 0.1563(10) 0.4051(15)
O3_2 O 0.86175(13) 0.20909(5) 0.25244(9)
O5_2 O 0.99363(15) 0.35106(6) 0.08212(11)
N3_2 N 0.68157(16) 0.12473(6) 0.21828(11)
C1_2 C 0.9806(2) 0.20010(8) 0.28854(15)
H7_2 H 0.964009 0.276205 0.173876
C23_2 C 0.7167(2) 0.07743(8) 0.24969(14)
H18_2 H 0.740681 0.073006 0.309673
C24_2 C 0.7185(2) 0.03492(8) 0.19604(14)
H19_2 H 0.742406 0.002563 0.219768
C25_2 C 0.68413(19) 0.04140(7) 0.10628(13)
C26_2 C 0.6488(2) 0.09054(8) 0.07377(14)
H20_2 H 0.625798 0.096230 0.014049
C27_2 C 0.6484(2) 0.13050(8) 0.13162(14)
H21_2 H 0.624023 0.163172 0.109495
N6_2 N 0.71237(17) 0.95057(6) 0.08262(11)
C16_2 C 0.7119(2) 0.91203(7) 0.02556(13)
C17_2 C 0.68505(19) 0.99703(7) 0.04654(13)
C18_2 C 0.7379(2) 0.85949(7) 0.06310(14)
C19_2 C 0.7516(3) 0.81712(8) 0.01211(15)
C20_2 C 0.7738(2) 0.76930(8) 0.05152(14)
H15_2 H 0.783755 0.740985 0.016774
C21_2 C 0.7657(3) 0.80259(9) 0.18543(15)
H16_2 H 0.768934 0.797883 0.244759
C22_2 C 0.7444(3) 0.85172(9) 0.15130(15)
H17_2 H 0.734586 0.879400 0.187405
Ni2_5 Ni 0.500000 0.000000 0.500000
O4_2 O 0.66827(17) 0.04559(6) 0.50795(11)
H3_2 H 0.738(2) 0.0366(11) 0.490(2)
H4_2 H 0.669(3) 0.0776(4) 0.516(2)
O6_2 O 0.38288(17) 0.06222(6) 0.51748(11)
H5_2 H 0.3054(15) 0.0703(10) 0.4894(18)
H6_2 H 0.423(2) 0.0904(7) 0.5320(19)
N5_2 N 0.65634(17) 0.00643(6) 0.96094(11)
C10_2 C 0.5681(3) 0.02817(8) 0.69125(14)
H10_2 H 0.556597 0.061375 0.668503
C11_2 C 0.6037(2) 0.02257(8) 0.78045(14)
H11_2 H 0.613631 0.051306 0.816738
N7_2 N 0.45092(19) 0.01161(7) 0.36425(12)
N10_2 N 0.31245(17) 0.08310(6) 0.06092(11)
C39_2 C 0.3754(2) 0.02665(8) 0.18508(13)
C40_2 C 0.3923(2) 0.06837(8) 0.24218(13)
H33_2 H 0.376871 0.101866 0.221303
C41_2 C 0.4323(2) 0.05922(8) 0.33043(14)
H34_2 H 0.447049 0.087326 0.368031
C42_2 C 0.34035(19) 0.03498(7) 0.08968(13)
H35_2 H 0.254034 0.179353 0.047663
Ni2_6 Ni 0.500000 1.000000 0.500000
N1_2 N 0.54908(19) 0.98839(7) 0.63575(12)
N4_2 N 0.68755(17) 0.91690(6) 0.93908(11)
C12_2 C 0.6246(2) 0.97335(8) 0.81492(13)
C13_2 C 0.6077(2) 0.93163(8) 0.75782(13)
H12_2 H 0.623129 0.898134 0.778697
C14_2 C 0.5677(2) 0.94078(8) 0.66957(14)
H13_2 H 0.552951 0.912674 0.631969
C15_2 C 0.65965(19) 0.96502(7) 0.91032(13)
H14_2 H 0.745966 0.820647 0.952337
O13_2 O 0.33173(17) 0.95441(6) 0.49205(11)
H24_2 H 0.262(2) 0.9634(11) 0.510(2)
H25_2 H 0.331(3) 0.9224(4) 0.484(2)
O15_2 O 0.61712(17) 0.93778(6) 0.48252(11)
H26_2 H 0.6946(15) 0.9297(10) 0.5106(18)
H27_2 H 0.577(2) 0.9096(7) 0.4680(19)
N11_2 N 0.34366(17) 0.99357(6) 0.03906(11)
C37_2 C 0.4319(3) 0.97183(8) 0.30875(14)
H31_2 H 0.443403 0.938625 0.331497
C38_2 C 0.3963(2) 0.97743(8) 0.21955(14)
H32_2 H 0.386369 0.948694 0.183262
loop_
_geom_bond_atom_site_label_1
_geom_bond_atom_site_label_2
_geom_bond_site_symmetry_1
_geom_bond_site_symmetry_2
Ni6 O17 1_555 1_555
Ni6 O11 1_555 1_555
O10 C28 1_555 1_555
O11 H22 1_555 1_555
H23 O11 1_555 1_555
O12 Ni6 1_555 1_555
O13 Ni2 1_555 1_555
H25 O13 1_555 1_555
O14 C35 1_555 1_555
O16 C35 1_555 1_555
O18 C36 1_555 1_555
N7 Ni2 1_555 1_555
N8 C47 1_555 1_555
N9 Ni6 1_555 1_555
N10 C42 1_555 1_555
N11 C42 1_555 1_555
N12 C43 1_555 1_555
C28 O12 1_555 1_555
C29 C28 1_555 1_555
C30 C29 1_555 1_555
H28 C30 1_555 1_555
C31 C30 1_555 1_555
C32 C31 1_555 1_555
H29 C32 1_555 1_555
C33 C32 1_555 1_555
C34 C29 1_555 1_555
H30 C34 1_555 1_555
C35 C31 1_555 1_555
C36 C33 1_555 1_555
C37 N7 1_555 1_555
H31 C37 1_555 1_555
C38 C37 1_555 1_555
H32 C38 1_555 1_555
C39 C38 1_555 1_555
C40 C39 1_555 1_555
H33 C40 1_555 1_555
C41 N7 1_555 1_555
H34 C41 1_555 1_555
C42 C39 1_555 1_555
C43 N10 1_555 1_555
C44 N11 1_555 1_555
C45 C43 1_555 1_555
C46 C45 1_555 1_555
H35 C46 1_555 1_555
C47 C46 1_555 1_555
H36 C47 1_555 1_555
C48 N8 1_555 1_555
H37 C48 1_555 1_555
C49 C45 1_555 1_555
H38 C49 1_555 1_555
C50 N9 1_555 1_555
H39 C50 1_555 1_555
C51 C50 1_555 1_555
H40 C51 1_555 1_555
C52 C44 1_555 1_555
C53 C52 1_555 1_555
H41 C53 1_555 1_555
C54 N9 1_555 1_555
H42 C54 1_555 1_555
Ni7 N8 1_555 1_555
N14 Ni6 1_555 1_555
N12 C44 1_555 1_555
C33 C34 1_555 1_555
C40 C41 1_555 1_555
C48 C49 1_555 1_555
C51 C52 1_555 1_555
C53 C54 1_555 1_555
O15 Ni2_2 1_555 1_555
H27 O15 1_555 1_555
N14 C47_2 1_555 1_555
N12_2 C43_2 1_555 1_555
C45_2 C43_2 1_555 1_555
C46_2 C45_2 1_555 1_555
C47_2 C46_2 1_555 1_555
H36_2 C47_2 1_555 1_555
C48_2 N14 1_555 1_555
H37_2 C48_2 1_555 1_555
C49_2 C45_2 1_555 1_555
H38_2 C49_2 1_555 1_555
N12_2 C44_2 1_555 1_555
C48_2 C49_2 1_555 1_555
Ni7 O11_2 1_555 1_555
O11_2 H22_2 1_555 1_555
H23_2 O11_2 1_555 1_555
O12_2 Ni7 1_555 1_555
N9_2 Ni7 1_555 1_555
C28_2 O12_2 1_555 1_555
C50_2 N9_2 1_555 1_555
H39_2 C50_2 1_555 1_555
C51_2 C50_2 1_555 1_555
H40_2 C51_2 1_555 1_555
C53_2 C52_2 1_555 1_555
H41_2 C53_2 1_555 1_555
C54_2 N9_2 1_555 1_555
H42_2 C54_2 1_555 1_555
O20 Ni7 1_555 1_555
O22 Ni7 1_555 1_555
C51_2 C52_2 1_555 1_555
C53_2 C54_2 1_555 1_555
O16_2 C35_2 1_555 1_555
O20 C36_2 1_555 1_555
O22 C36_2 1_555 1_555
C30_2 C29_2 1_555 1_555
C31_2 C30_2 1_555 1_555
C32_2 C31_2 1_555 1_555
H29_2 C32_2 1_555 1_555
C33_2 C32_2 1_555 1_555
C34_2 C29_2 1_555 1_555
H30_2 C34_2 1_555 1_555
C35_2 C31_2 1_555 1_555
C36_2 C33_2 1_555 1_555
C33_2 C34_2 1_555 1_555
O6 Ni2_3 1_555 1_555
H6 O6 1_555 1_555
Ni1 O2 1_555 1_555
Ni2_4 O4 1_555 1_555
O1 C1 1_555 1_555
O2 H1 1_555 1_555
H2 O2 1_555 1_555
O3 Ni1 1_555 1_555
H4 O4 1_555 1_555
O5 C8 1_555 1_555
O7 C8 1_555 1_555
O21 C9 1_555 1_555
N1 Ni2_4 1_555 1_555
N2 C20 1_555 1_555
N3 Ni1 1_555 1_555
N4 C15 1_555 1_555
N5 C15 1_555 1_555
N6 C16 1_555 1_555
C1 O3 1_555 1_555
C2 C1 1_555 1_555
C3 C2 1_555 1_555
H7 C3 1_555 1_555
C4 C3 1_555 1_555
C5 C4 1_555 1_555
H8 C5 1_555 1_555
C6 C5 1_555 1_555
C7 C2 1_555 1_555
H9 C7 1_555 1_555
C8 C4 1_555 1_555
C9 C6 1_555 1_555
C10 N1 1_555 1_555
H10 C10 1_555 1_555
C11 C10 1_555 1_555
H11 C11 1_555 1_555
C12 C11 1_555 1_555
C13 C12 1_555 1_555
H12 C13 1_555 1_555
C14 N1 1_555 1_555
H13 C14 1_555 1_555
C15 C12 1_555 1_555
C16 N4 1_555 1_555
C17 N5 1_555 1_555
C18 C16 1_555 1_555
C19 C18 1_555 1_555
H14 C19 1_555 1_555
C20 C19 1_555 1_555
H15 C20 1_555 1_555
C21 N2 1_555 1_555
H16 C21 1_555 1_555
C22 C18 1_555 1_555
H17 C22 1_555 1_555
C23 N3 1_555 1_555
H18 C23 1_555 1_555
C24 C23 1_555 1_555
H19 C24 1_555 1_555
C25 C17 1_555 1_555
C26 C25 1_555 1_555
H20 C26 1_555 1_555
C27 N3 1_555 1_555
H21 C27 1_555 1_555
Ni5 N2 1_555 1_555
O19 Ni1 1_555 1_555
N13 Ni1 1_555 1_555
N6 C17 1_555 1_555
C6 C7 1_555 1_555
C13 C14 1_555 1_555
C21 C22 1_555 1_555
C24 C25 1_555 1_555
C26 C27 1_555 1_555
O7_2 C8_2 1_555 1_555
O8 C9_2 1_555 1_555
O9 C9_2 1_555 1_555
C3_2 C2_2 1_555 1_555
C4_2 C3_2 1_555 1_555
C5_2 C4_2 1_555 1_555
H8_2 C5_2 1_555 1_555
C6_2 C5_2 1_555 1_555
C7_2 C2_2 1_555 1_555
H9_2 C7_2 1_555 1_555
C8_2 C4_2 1_555 1_555
C9_2 C6_2 1_555 1_555
Ni5 O8 1_555 1_555
O9 Ni5 1_555 1_555
C6_2 C7_2 1_555 1_555
Ni5 O2_2 1_555 1_555
O2_2 H1_2 1_555 1_555
H2_2 O2_2 1_555 1_555
O3_2 Ni5 1_555 1_555
N3_2 Ni5 1_555 1_555
C1_2 O3_2 1_555 1_555
C23_2 N3_2 1_555 1_555
H18_2 C23_2 1_555 1_555
C24_2 C23_2 1_555 1_555
H19_2 C24_2 1_555 1_555
C26_2 C25_2 1_555 1_555
H20_2 C26_2 1_555 1_555
C27_2 N3_2 1_555 1_555
H21_2 C27_2 1_555 1_555
C24_2 C25_2 1_555 1_555
C26_2 C27_2 1_555 1_555
N13 C20_2 1_555 1_555
N6_2 C16_2 1_555 1_555
C18_2 C16_2 1_555 1_555
C19_2 C18_2 1_555 1_555
C20_2 C19_2 1_555 1_555
H15_2 C20_2 1_555 1_555
C21_2 N13 1_555 1_555
H16_2 C21_2 1_555 1_555
C22_2 C18_2 1_555 1_555
H17_2 C22_2 1_555 1_555
N6_2 C17_2 1_555 1_555
C21_2 C22_2 1_555 1_555
Ni2_5 O4_2 1_555 1_555
O4_2 H3_2 1_555 1_555
H4_2 O4_2 1_555 1_555
O6_2 Ni2_5 1_555 1_555
H5_2 O6_2 1_555 1_555
H6_2 O6_2 1_555 1_555
H10_2 C10_2 1_555 1_555
C11_2 C10_2 1_555 1_555
H11_2 C11_2 1_555 1_555
N7_2 Ni2_5 1_555 1_555
N10_2 C42_2 1_555 1_555
C40_2 C39_2 1_555 1_555
H33_2 C40_2 1_555 1_555
C41_2 N7_2 1_555 1_555
H34_2 C41_2 1_555 1_555
C42_2 C39_2 1_555 1_555
C40_2 C41_2 1_555 1_555
N1_2 Ni2_6 1_555 1_555
N4_2 C15_2 1_555 1_555
C13_2 C12_2 1_555 1_555
H12_2 C13_2 1_555 1_555
C14_2 N1_2 1_555 1_555
H13_2 C14_2 1_555 1_555
C15_2 C12_2 1_555 1_555
O13_2 Ni2_6 1_555 1_555
H24_2 O13_2 1_555 1_555
H25_2 O13_2 1_555 1_555
O15_2 Ni2_6 1_555 1_555
H26_2 O15_2 1_555 1_555
H27_2 O15_2 1_555 1_555
H31_2 C37_2 1_555 1_555
C38_2 C37_2 1_555 1_555
H32_2 C38_2 1_555 1_555
C13_2 C14_2 1_555 1_555

#END
