
###############################################################################
#
# This file contains modified crystal structure data generated from the
# MOF subset of the Cambridge Structural Database (CSD) v543 
# hosted by the Cambridge Crystallographic Data Centre (CCDC).
#
# This work is licensed under the Creative Commons
# Attribution-NonCommercial-ShareAlike 4.0 International License.
# To view a copy of this license, visit
# http://creativecommons.org/licenses/by-nc-sa/4.0/
# or send a letter to
# Creative Commons, PO Box 1866, Mountain View, CA 94042, USA.
#
# CIF created using the CSD Python API on 29 September 2022
# The structure has been converted into the P1 space group
# The structure has a 3D framework
# The original CSD entry EPUVAN is in the triclinic crystal system
# The framework has been calculated to contain at least 10.0% void space
# The void calculation uses a probe of radius 1.32A, grid spacing 0.4
# The framework is charged, counterions have been retained in the structure
#
###############################################################################

data_EPUVAN
_chemical_formula_moiety         '(C116 H108 F18 Gd2 N12 O30 S6)n'
_symmetry_cell_setting           triclinic
_symmetry_space_group_name_H-M   'P 1'
_symmetry_Int_Tables_number      1
_space_group_name_Hall           'P 1'
loop_
_symmetry_equiv_pos_site_id
_symmetry_equiv_pos_as_xyz
1 x,y,z
_cell_length_a                   14.9365(8)
_cell_length_b                   17.1361(10)
_cell_length_c                   17.3016(8)
_cell_angle_alpha                118.509(5)
_cell_angle_beta                 103.354(4)
_cell_angle_gamma                96.640(5)
_cell_volume                     3651.69
loop_
_atom_site_label
_atom_site_type_symbol
_atom_site_fract_x
_atom_site_fract_y
_atom_site_fract_z
Gd1 Gd 0.11921(2) 0.541610(19) 0.60796(2)
O1 O 0.7302(3) 0.4407(3) 0.2964(4)
O3 O 0.0449(3) 0.5505(2) 0.4746(3)
O4 O 0.7909(3) 0.3234(3) 0.3649(3)
O5 O 0.1679(4) 0.4326(3) 0.4999(3)
N1 N 0.5552(4) 0.5755(4) 0.2199(4)
N3 N 0.1838(4) 0.6535(3) 0.3508(4)
N4 N 0.5608(4) 0.0988(3) 0.2194(4)
N6 N 0.2020(4) 0.1763(3) 0.3513(4)
C1 C 0.0960(5) 0.0626(4) 0.1325(5)
H1 H 0.0958 0.1147 0.1890
H2 H 0.0718 0.0710 0.0813
H3 H 0.0563 0.0078 0.1218
H6 H 0.4248 0.0238 0.0119
C3 C 0.4144(5) 0.0785(5) 0.3247(5)
H7 H 0.4138 0.0212 0.3221
H8 H 0.4781 0.1086 0.3351
H9 H 0.3930 0.1174 0.3748
C4 C 0.2318(4) 0.0317(3) 0.0663(4)
C5 C 0.3251(5) 0.0207(4) 0.0745(4)
C6 C 0.3826(4) 0.0344(4) 0.1585(4)
C7 C 0.3493(4) 0.0605(4) 0.2346(4)
C8 C 0.2556(5) 0.0668(4) 0.2241(4)
C9 C 0.1971(5) 0.0536(4) 0.1411(5)
C16 C 0.4795(4) 0.0145(4) 0.1659(5)
C17 C 0.5586(5) 0.1718(5) 0.2103(6)
H18 H 0.5037 0.1714 0.1714
C18 C 0.6355(5) 0.2470(5) 0.2571(6)
H19 H 0.6318 0.2963 0.2484
C19 C 0.7194(5) 0.2522(4) 0.3174(5)
C20 C 0.7190(5) 0.1729(4) 0.3229(5)
H20 H 0.7731 0.1708 0.3607
C21 C 0.6413(5) 0.0992(4) 0.2742(5)
H21 H 0.6438 0.0476 0.2789
C22 C 0.2162(5) 0.0824(4) 0.3010(5)
H22 H 0.2594 0.0729 0.3451
H23 H 0.1555 0.0372 0.2751
C23 C 0.2520(5) 0.2473(4) 0.3537(5)
H24 H 0.2953 0.2377 0.3212
C24 C 0.2413(5) 0.3336(4) 0.4025(5)
H25 H 0.2770 0.3816 0.4023
C25 C 0.1783(5) 0.3512(4) 0.4526(5)
C26 C 0.1259(5) 0.2753(5) 0.4478(5)
H26 H 0.0812 0.2827 0.4785
C27 C 0.1396(5) 0.1910(5) 0.3988(5)
H27 H 0.1050 0.1416 0.3978
C28 C 0.4307(6) 0.7189(6) 0.3372(5)
H28 H 0.4866 0.6984 0.3491
H29 H 0.4025 0.7305 0.3849
H30 H 0.4480 0.7745 0.3370
C29 C 0.0906(5) 0.5399(5) 0.1266(5)
H31 H 0.0597 0.5432 0.0735
H32 H 0.0791 0.5857 0.1805
H33 H 0.0657 0.4799 0.1155
C30 C 0.3616(5) 0.4718(5) 0.0000(5)
H34 H 0.4295 0.4938 0.0180
C31 C 0.3595(5) 0.6452(4) 0.2432(5)
C32 C 0.2612(5) 0.6283(4) 0.2286(4)
C33 C 0.1973(4) 0.5571(4) 0.1431(4)
C34 C 0.2318(4) 0.5040(4) 0.0715(4)
C35 C 0.3289(5) 0.5248(4) 0.0821(5)
C36 C 0.3923(4) 0.5958(4) 0.1688(5)
C37 C 0.4973(5) 0.6221(5) 0.1818(5)
H37 H 0.5043 0.6069 0.1222
H38 H 0.5222 0.6882 0.2236
C38 C 0.5272(5) 0.4829(5) 0.1823(7)
H39 H 0.4673 0.4494 0.1376
C39 C 0.5852(6) 0.4388(6) 0.2091(7)
H40 H 0.5637 0.3755 0.1827
C40 C 0.6765(5) 0.4852(4) 0.2751(5)
C41 C 0.7032(5) 0.5801(4) 0.3137(5)
H41 H 0.7623 0.6149 0.3593
C42 C 0.6425(5) 0.6229(5) 0.2846(5)
H42 H 0.6623 0.6861 0.3102
C49 C 0.2241(5) 0.6932(4) 0.3024(5)
H49 H 0.2758 0.7476 0.3485
H50 H 0.1751 0.7126 0.2736
C50 C 0.1430(5) 0.7074(4) 0.4130(4)
H51 H 0.1450 0.7669 0.4257
C51 C 0.0997(4) 0.6749(4) 0.4565(4)
H52 H 0.0740 0.7133 0.4999
C52 C 0.0926(4) 0.5848(4) 0.4377(4)
C53 C 0.1379(5) 0.5330(4) 0.3755(4)
H53 H 0.1375 0.4734 0.3620
C54 C 0.1828(5) 0.5689(4) 0.3346(5)
H54 H 0.2134 0.5336 0.2945
Gd4 Gd 0.88079(2) 0.458390(19) 0.39204(2)
O7 O 0.2698(3) 0.5593(3) 0.7036(4)
O8 O 0.0910(3) 0.4508(3) 0.6690(3)
O10 O 0.2091(3) 0.6766(3) 0.6351(3)
O11 O 0.0550(3) 0.6422(3) 0.7105(3)
N2 N 0.1449(4) 0.4317(3) 0.9000(3)
H5 H 0.3209 0.0028 0.9481
C10 C 0.1696(5) 0.0165(4) 0.9760(4)
H10 H 0.2063 0.0472 0.9540
H11 H 0.1168 0.0437 0.9863
C30_2 C 0.3616(5) 0.4718(5) 1.0000(5)
H35 H 0.3310 0.4803 0.9503
H36 H 0.3451 0.4075 0.9792
C43 C 0.1640(5) 0.4208(4) 0.9821(5)
H43 H 0.1902 0.3683 0.9686
H44 H 0.1039 0.4074 0.9915
C44 C 0.1206(5) 0.3554(4) 0.8141(5)
H45 H 0.1175 0.2983 0.8084
C45 C 0.1006(5) 0.3600(4) 0.7360(5)
H46 H 0.0828 0.3061 0.6780
C46 C 0.1063(4) 0.4456(4) 0.7413(4)
C47 C 0.1296(5) 0.5234(4) 0.8320(4)
H47 H 0.1325 0.5814 0.8400
C48 C 0.1477(5) 0.5144(4) 0.9079(5)
H48 H 0.1625 0.5665 0.9666
N5 N 0.1315(4) 0.9169(3) 0.9036(3)
C2 C 0.3595(5) 0.9905(5) 0.9915(5)
H4 H 0.3547 0.9257 0.9619
C11 C 0.1090(4) 0.8541(4) 0.9272(4)
H12 H 0.1139 0.8744 0.9888
C12 C 0.0795(5) 0.7625(4) 0.8634(4)
H13 H 0.0633 0.7212 0.8815
C13 C 0.0731(4) 0.7291(4) 0.7690(4)
C14 C 0.0898(5) 0.7970(4) 0.7453(5)
H14 H 0.0805 0.7792 0.6835
C15 C 0.1192(5) 0.8876(4) 0.8124(5)
H15 H 0.1313 0.9311 0.7959
O9 O 0.9551(3) 0.4495(2) 0.5254(3)
O6 O 0.9450(3) 0.3578(3) 0.2895(3)
N5_2 N 0.8685(4) 0.0831(3) 0.0964(3)
C2_2 C 0.6405(5) 0.0095(5) 0.0085(5)
H4_2 H 0.6453 0.0743 0.0381
C11_2 C 0.8910(4) 0.1459(4) 0.0728(4)
H12_2 H 0.8861 0.1256 0.0112
C12_2 C 0.9205(5) 0.2375(4) 0.1366(4)
H13_2 H 0.9367 0.2788 0.1185
C13_2 C 0.9269(4) 0.2709(4) 0.2310(4)
C14_2 C 0.9102(5) 0.2030(4) 0.2547(5)
H14_2 H 0.9195 0.2208 0.3165
C15_2 C 0.8808(5) 0.1124(4) 0.1876(5)
H15_2 H 0.8687 0.0689 0.2041
O2 O 0.9090(3) 0.5492(3) 0.3310(3)
N2_2 N 0.8551(4) 0.5683(3) 0.1000(3)
H5_2 H 0.6791 0.9972 0.0519
C10_2 C 0.8304(5) 0.9835(4) 0.0240(4)
H10_2 H 0.7937 0.9528 0.0460
H11_2 H 0.8832 0.9563 0.0137
C30_3 C 0.6384(5) 0.5282(5) 0.0000(5)
H35_2 H 0.6690 0.5197 0.0497
H36_2 H 0.6549 0.5925 0.0208
C43_2 C 0.8360(5) 0.5792(4) 0.0179(5)
H43_2 H 0.8098 0.6317 0.0314
H44_2 H 0.8961 0.5926 0.0085
C44_2 C 0.8794(5) 0.6446(4) 0.1859(5)
H45_2 H 0.8825 0.7017 0.1916
C45_2 C 0.8994(5) 0.6400(4) 0.2640(5)
H46_2 H 0.9172 0.6939 0.3220
C46_2 C 0.8937(4) 0.5544(4) 0.2587(4)
C47_2 C 0.8704(5) 0.4766(4) 0.1680(4)
H47_2 H 0.8675 0.4186 0.1600
C48_2 C 0.8523(5) 0.4856(4) 0.0921(5)
H48_2 H 0.8375 0.4335 0.0334
O5_2 O 0.8321(4) 0.5674(3) 0.5001(3)
N1_2 N 0.4448(4) 0.4245(4) 0.7801(4)
N3_2 N 0.8162(4) 0.3465(3) 0.6492(4)
N4_2 N 0.4392(4) 0.9012(3) 0.7806(4)
N6_2 N 0.7980(4) 0.8237(3) 0.6487(4)
C1_2 C 0.9040(5) 0.9374(4) 0.8675(5)
H1_2 H 0.9042 0.8853 0.8110
H2_2 H 0.9282 0.9290 0.9187
H3_2 H 0.9437 0.9922 0.8782
H6_2 H 0.5752 0.9762 0.9881
C3_2 C 0.5856(5) 0.9215(5) 0.6753(5)
H7_2 H 0.5862 0.9788 0.6779
H8_2 H 0.5219 0.8914 0.6649
H9_2 H 0.6070 0.8826 0.6252
C4_2 C 0.7682(4) 0.9683(3) 0.9337(4)
C5_2 C 0.6749(5) 0.9793(4) 0.9255(4)
C6_2 C 0.6174(4) 0.9656(4) 0.8415(4)
C7_2 C 0.6507(4) 0.9395(4) 0.7654(4)
C8_2 C 0.7444(5) 0.9332(4) 0.7759(4)
C9_2 C 0.8029(5) 0.9464(4) 0.8589(5)
C16_2 C 0.5205(4) 0.9855(4) 0.8341(5)
C17_2 C 0.4414(5) 0.8282(5) 0.7897(6)
H18_2 H 0.4963 0.8286 0.8286
C18_2 C 0.3645(5) 0.7530(5) 0.7429(6)
H19_2 H 0.3682 0.7037 0.7516
C19_2 C 0.2806(5) 0.7478(4) 0.6826(5)
C20_2 C 0.2810(5) 0.8271(4) 0.6771(5)
H20_2 H 0.2269 0.8292 0.6393
C21_2 C 0.3587(5) 0.9008(4) 0.7258(5)
H21_2 H 0.3562 0.9524 0.7211
C22_2 C 0.7838(5) 0.9176(4) 0.6990(5)
H22_2 H 0.7406 0.9271 0.6549
H23_2 H 0.8445 0.9628 0.7249
C23_2 C 0.7480(5) 0.7527(4) 0.6463(5)
H24_2 H 0.7047 0.7623 0.6788
C24_2 C 0.7587(5) 0.6664(4) 0.5975(5)
H25_2 H 0.7230 0.6184 0.5977
C25_2 C 0.8217(5) 0.6488(4) 0.5474(5)
C26_2 C 0.8741(5) 0.7247(5) 0.5522(5)
H26_2 H 0.9188 0.7173 0.5215
C27_2 C 0.8604(5) 0.8090(5) 0.6012(5)
H27_2 H 0.8950 0.8584 0.6022
C28_2 C 0.5693(6) 0.2811(6) 0.6628(5)
H28_2 H 0.5134 0.3016 0.6509
H29_2 H 0.5975 0.2695 0.6151
H30_2 H 0.5520 0.2255 0.6630
C29_2 C 0.9094(5) 0.4601(5) 0.8734(5)
H31_2 H 0.9403 0.4568 0.9265
H32_2 H 0.9209 0.4143 0.8195
H33_2 H 0.9343 0.5201 0.8845
C30_4 C 0.6384(5) 0.5282(5) 1.0000(5)
H34_2 H 0.5705 0.5062 0.9820
C31_2 C 0.6405(5) 0.3548(4) 0.7568(5)
C32_2 C 0.7388(5) 0.3717(4) 0.7714(4)
C33_2 C 0.8027(4) 0.4429(4) 0.8569(4)
C34_2 C 0.7682(4) 0.4960(4) 0.9285(4)
C35_2 C 0.6711(5) 0.4752(4) 0.9179(5)
C36_2 C 0.6077(4) 0.4042(4) 0.8312(5)
C37_2 C 0.5027(5) 0.3779(5) 0.8182(5)
H37_2 H 0.4957 0.3931 0.8778
H38_2 H 0.4778 0.3118 0.7764
C38_2 C 0.4728(5) 0.5171(5) 0.8177(7)
H39_2 H 0.5327 0.5506 0.8624
C39_2 C 0.4148(6) 0.5612(6) 0.7909(7)
H40_2 H 0.4363 0.6245 0.8173
C40_2 C 0.3235(5) 0.5148(4) 0.7249(5)
C41_2 C 0.2968(5) 0.4199(4) 0.6863(5)
H41_2 H 0.2377 0.3851 0.6407
C42_2 C 0.3575(5) 0.3771(5) 0.7154(5)
H42_2 H 0.3377 0.3139 0.6898
C49_2 C 0.7759(5) 0.3068(4) 0.6976(5)
H49_2 H 0.7242 0.2524 0.6515
H50_2 H 0.8249 0.2874 0.7264
C50_2 C 0.8570(5) 0.2926(4) 0.5870(4)
H51_2 H 0.8550 0.2331 0.5743
C51_2 C 0.9003(4) 0.3251(4) 0.5435(4)
H52_2 H 0.9260 0.2867 0.5001
C52_2 C 0.9074(4) 0.4152(4) 0.5623(4)
C53_2 C 0.8621(5) 0.4670(4) 0.6245(4)
H53_2 H 0.8625 0.5266 0.6380
C54_2 C 0.8172(5) 0.4311(4) 0.6654(5)
H54_2 H 0.7866 0.4664 0.7055
H16 H 0.4825 0.9772 0.1036
H17 H 0.4863 0.9787 0.1956
H16_2 H 0.5175 0.0228 0.8964
H17_2 H 0.5137 0.0213 0.8044
S1 S 0.07891(17) 0.77234(13) 0.10497(15)
O12 O 0.0557(5) 0.7538(4) 0.1717(4)
O13 O 0.0565(5) 0.6926(4) 0.0144(4)
O14 O 0.0529(5) 0.8508(4) 0.1058(5)
F1 F 0.2395(5) 0.8768(4) 0.2352(4)
F2 F 0.2441(4) 0.7406(4) 0.1377(5)
F3 F 0.2374(4) 0.8408(3) 0.0979(4)
C55 C 0.2062(7) 0.8095(5) 0.1455(6)
S1_2 S 0.92109(17) 0.22766(13) 0.89503(15)
O12_2 O 0.9443(5) 0.2462(4) 0.8283(4)
O13_2 O 0.9435(5) 0.3074(4) 0.9856(4)
O14_2 O 0.9471(5) 0.1492(4) 0.8942(5)
F1_2 F 0.7605(5) 0.1232(4) 0.7648(4)
F2_2 F 0.7559(4) 0.2594(4) 0.8623(5)
F3_2 F 0.7626(4) 0.1592(3) 0.9021(4)
C55_2 C 0.7938(7) 0.1905(5) 0.8545(6)
S2 S 0.2894(2) 0.10119(17) 0.54885(19)
O15 O 0.3437(6) 0.1506(5) 0.5215(5)
O16 O 0.2974(9) 0.1522(6) 0.6450(6)
O17 O 0.1941(6) 0.0520(5) 0.4869(7)
F4 F 0.4340(8) 0.0438(8) 0.5948(11)
C56 C 0.3437(15) 0.0088(9) 0.5379(10)
F5 F 0.2995(8) 0.9535(5) 0.5541(7)
F6 F 0.3433(7) 0.9598(6) 0.4528(8)
F5_2 F 0.7005(8) 0.0465(5) 0.4459(7)
F6_2 F 0.6567(7) 0.0402(6) 0.5472(8)
S2_2 S 0.7106(2) 0.89881(17) 0.45115(19)
O15_2 O 0.6563(6) 0.8494(5) 0.4785(5)
O16_2 O 0.7026(9) 0.8478(6) 0.3550(6)
O17_2 O 0.8059(6) 0.9480(5) 0.5131(7)
F4_2 F 0.5660(8) 0.9562(8) 0.4052(11)
C56_2 C 0.6563(15) 0.9912(9) 0.4621(10)
O20 O 0.4814(7) 0.2058(6) 0.0439(6)
S3 S 0.4386(3) 0.2075(2) 0.9625(2)
C57 C 0.5419(14) 0.2374(12) 0.9368(14)
F7 F 0.5290(11) 0.2116(8) 0.8488(9)
F8 F 0.5873(8) 0.3224(5) 0.9887(7)
F9 F 0.6060(8) 0.1907(6) 0.9542(9)
O18 O 0.3983(10) 0.2789(8) 0.9695(9)
O19 O 0.3854(7) 0.1150(5) 0.8826(6)
S3_2 S 0.5614(3) 0.7925(2) 0.0375(2)
C57_2 C 0.4581(14) 0.7626(12) 0.0632(14)
F7_2 F 0.4710(11) 0.7884(8) 0.1512(9)
F8_2 F 0.4127(8) 0.6776(5) 0.0113(7)
F9_2 F 0.3940(8) 0.8093(6) 0.0458(9)
O18_2 O 0.6017(10) 0.7211(8) 0.0305(9)
O19_2 O 0.6146(7) 0.8850(5) 0.1174(6)
O20_2 O 0.5186(7) 0.7942(6) 0.9561(6)
loop_
_geom_bond_atom_site_label_1
_geom_bond_atom_site_label_2
_geom_bond_site_symmetry_1
_geom_bond_site_symmetry_2
Gd1 O3 1_555 1_555
O1 C40 1_555 1_555
O3 C52 1_555 1_555
O4 C19 1_555 1_555
O5 Gd1 1_555 1_555
N1 C37 1_555 1_555
N3 C49 1_555 1_555
N4 C16 1_555 1_555
N6 C22 1_555 1_555
C1 H1 1_555 1_555
H2 C1 1_555 1_555
H3 C1 1_555 1_555
C3 H7 1_555 1_555
H8 C3 1_555 1_555
H9 C3 1_555 1_555
C4 C5 1_555 1_555
C6 C5 1_555 1_555
C7 C3 1_555 1_555
C8 C7 1_555 1_555
C9 C1 1_555 1_555
C16 C6 1_555 1_555
C17 N4 1_555 1_555
H18 C17 1_555 1_555
C18 C17 1_555 1_555
H19 C18 1_555 1_555
C19 C18 1_555 1_555
C20 C19 1_555 1_555
H20 C20 1_555 1_555
C21 N4 1_555 1_555
H21 C21 1_555 1_555
C22 C8 1_555 1_555
H22 C22 1_555 1_555
H23 C22 1_555 1_555
C23 N6 1_555 1_555
H24 C23 1_555 1_555
C24 C23 1_555 1_555
H25 C24 1_555 1_555
C25 O5 1_555 1_555
C26 C25 1_555 1_555
H26 C26 1_555 1_555
C27 N6 1_555 1_555
H27 C27 1_555 1_555
C28 H28 1_555 1_555
H29 C28 1_555 1_555
H30 C28 1_555 1_555
C29 H31 1_555 1_555
H32 C29 1_555 1_555
H33 C29 1_555 1_555
C30 H34 1_555 1_555
C31 C28 1_555 1_555
C32 C31 1_555 1_555
C33 C29 1_555 1_555
C34 C33 1_555 1_555
C35 C30 1_555 1_555
C36 C31 1_555 1_555
C37 C36 1_555 1_555
H37 C37 1_555 1_555
H38 C37 1_555 1_555
C38 N1 1_555 1_555
H39 C38 1_555 1_555
C39 C38 1_555 1_555
H40 C39 1_555 1_555
C40 C39 1_555 1_555
C41 C40 1_555 1_555
H41 C41 1_555 1_555
C42 N1 1_555 1_555
H42 C42 1_555 1_555
C49 C32 1_555 1_555
H49 C49 1_555 1_555
H50 C49 1_555 1_555
C50 N3 1_555 1_555
H51 C50 1_555 1_555
C51 C50 1_555 1_555
H52 C51 1_555 1_555
C52 C51 1_555 1_555
C53 C52 1_555 1_555
H53 C53 1_555 1_555
C54 N3 1_555 1_555
H54 C54 1_555 1_555
Gd4 O1 1_555 1_555
O7 Gd1 1_555 1_555
O8 Gd1 1_555 1_555
O10 Gd1 1_555 1_555
O11 Gd1 1_555 1_555
O4 Gd4 1_555 1_555
C4 C9 1_555 1_555
C6 C7 1_555 1_555
C8 C9 1_555 1_555
C20 C21 1_555 1_555
C24 C25 1_555 1_555
C26 C27 1_555 1_555
C32 C33 1_555 1_555
C34 C35 1_555 1_555
C35 C36 1_555 1_555
C41 C42 1_555 1_555
C53 C54 1_555 1_555
O8 C46 1_555 1_555
N2 C43 1_555 1_555
H10 C10 1_555 1_555
H11 C10 1_555 1_555
H35 C30_2 1_555 1_555
H36 C30_2 1_555 1_555
H43 C43 1_555 1_555
H44 C43 1_555 1_555
C44 N2 1_555 1_555
H45 C44 1_555 1_555
C45 C44 1_555 1_555
H46 C45 1_555 1_555
C46 C45 1_555 1_555
C47 C46 1_555 1_555
H47 C47 1_555 1_555
C48 N2 1_555 1_555
H48 C48 1_555 1_555
C47 C48 1_555 1_555
O11 C13 1_555 1_555
C2 H4 1_555 1_555
C11 N5 1_555 1_555
H12 C11 1_555 1_555
C12 C11 1_555 1_555
H13 C12 1_555 1_555
C13 C12 1_555 1_555
C14 C13 1_555 1_555
H14 C14 1_555 1_555
C15 N5 1_555 1_555
H15 C15 1_555 1_555
C14 C15 1_555 1_555
Gd4 O9 1_555 1_555
O6 C13_2 1_555 1_555
C2_2 H4_2 1_555 1_555
C11_2 N5_2 1_555 1_555
H12_2 C11_2 1_555 1_555
C12_2 C11_2 1_555 1_555
H13_2 C12_2 1_555 1_555
C13_2 C12_2 1_555 1_555
C14_2 C13_2 1_555 1_555
H14_2 C14_2 1_555 1_555
C15_2 N5_2 1_555 1_555
H15_2 C15_2 1_555 1_555
Gd4 O6 1_555 1_555
C14_2 C15_2 1_555 1_555
O2 C46_2 1_555 1_555
N2_2 C43_2 1_555 1_555
H10_2 C10_2 1_555 1_555
H11_2 C10_2 1_555 1_555
H35_2 C30_3 1_555 1_555
H36_2 C30_3 1_555 1_555
H43_2 C43_2 1_555 1_555
H44_2 C43_2 1_555 1_555
C44_2 N2_2 1_555 1_555
H45_2 C44_2 1_555 1_555
C45_2 C44_2 1_555 1_555
H46_2 C45_2 1_555 1_555
C46_2 C45_2 1_555 1_555
C47_2 C46_2 1_555 1_555
H47_2 C47_2 1_555 1_555
C48_2 N2_2 1_555 1_555
H48_2 C48_2 1_555 1_555
Gd4 O2 1_555 1_555
C47_2 C48_2 1_555 1_555
O7 C40_2 1_555 1_555
O9 C52_2 1_555 1_555
O10 C19_2 1_555 1_555
O5_2 Gd4 1_555 1_555
N1_2 C37_2 1_555 1_555
N3_2 C49_2 1_555 1_555
N4_2 C16_2 1_555 1_555
N6_2 C22_2 1_555 1_555
C1_2 H1_2 1_555 1_555
H2_2 C1_2 1_555 1_555
H3_2 C1_2 1_555 1_555
C3_2 H7_2 1_555 1_555
H8_2 C3_2 1_555 1_555
H9_2 C3_2 1_555 1_555
C4_2 C5_2 1_555 1_555
C6_2 C5_2 1_555 1_555
C7_2 C3_2 1_555 1_555
C8_2 C7_2 1_555 1_555
C9_2 C1_2 1_555 1_555
C16_2 C6_2 1_555 1_555
C17_2 N4_2 1_555 1_555
H18_2 C17_2 1_555 1_555
C18_2 C17_2 1_555 1_555
H19_2 C18_2 1_555 1_555
C19_2 C18_2 1_555 1_555
C20_2 C19_2 1_555 1_555
H20_2 C20_2 1_555 1_555
C21_2 N4_2 1_555 1_555
H21_2 C21_2 1_555 1_555
C22_2 C8_2 1_555 1_555
H22_2 C22_2 1_555 1_555
H23_2 C22_2 1_555 1_555
C23_2 N6_2 1_555 1_555
H24_2 C23_2 1_555 1_555
C24_2 C23_2 1_555 1_555
H25_2 C24_2 1_555 1_555
C25_2 O5_2 1_555 1_555
C26_2 C25_2 1_555 1_555
H26_2 C26_2 1_555 1_555
C27_2 N6_2 1_555 1_555
H27_2 C27_2 1_555 1_555
C28_2 H28_2 1_555 1_555
H29_2 C28_2 1_555 1_555
H30_2 C28_2 1_555 1_555
C29_2 H31_2 1_555 1_555
H32_2 C29_2 1_555 1_555
H33_2 C29_2 1_555 1_555
C30_4 H34_2 1_555 1_555
C31_2 C28_2 1_555 1_555
C32_2 C31_2 1_555 1_555
C33_2 C29_2 1_555 1_555
C34_2 C33_2 1_555 1_555
C35_2 C30_4 1_555 1_555
C36_2 C31_2 1_555 1_555
C37_2 C36_2 1_555 1_555
H37_2 C37_2 1_555 1_555
H38_2 C37_2 1_555 1_555
C38_2 N1_2 1_555 1_555
H39_2 C38_2 1_555 1_555
C39_2 C38_2 1_555 1_555
H40_2 C39_2 1_555 1_555
C40_2 C39_2 1_555 1_555
C41_2 C40_2 1_555 1_555
H41_2 C41_2 1_555 1_555
C42_2 N1_2 1_555 1_555
H42_2 C42_2 1_555 1_555
C49_2 C32_2 1_555 1_555
H49_2 C49_2 1_555 1_555
H50_2 C49_2 1_555 1_555
C50_2 N3_2 1_555 1_555
H51_2 C50_2 1_555 1_555
C51_2 C50_2 1_555 1_555
H52_2 C51_2 1_555 1_555
C52_2 C51_2 1_555 1_555
C53_2 C52_2 1_555 1_555
H53_2 C53_2 1_555 1_555
C54_2 N3_2 1_555 1_555
H54_2 C54_2 1_555 1_555
C4_2 C9_2 1_555 1_555
C6_2 C7_2 1_555 1_555
C8_2 C9_2 1_555 1_555
C20_2 C21_2 1_555 1_555
C24_2 C25_2 1_555 1_555
C26_2 C27_2 1_555 1_555
C32_2 C33_2 1_555 1_555
C34_2 C35_2 1_555 1_555
C35_2 C36_2 1_555 1_555
C41_2 C42_2 1_555 1_555
C53_2 C54_2 1_555 1_555
S1 O12 1_555 1_555
O13 S1 1_555 1_555
O14 S1 1_555 1_555
F1 C55 1_555 1_555
F2 C55 1_555 1_555
F3 C55 1_555 1_555
C55 S1 1_555 1_555
S1_2 O12_2 1_555 1_555
O13_2 S1_2 1_555 1_555
O14_2 S1_2 1_555 1_555
F1_2 C55_2 1_555 1_555
F2_2 C55_2 1_555 1_555
F3_2 C55_2 1_555 1_555
C55_2 S1_2 1_555 1_555
S2 O15 1_555 1_555
O16 S2 1_555 1_555
O17 S2 1_555 1_555
F4 C56 1_555 1_555
C56 S2 1_555 1_555
S2_2 O15_2 1_555 1_555
O16_2 S2_2 1_555 1_555
O17_2 S2_2 1_555 1_555
F4_2 C56_2 1_555 1_555
C56_2 S2_2 1_555 1_555
S3 C57 1_555 1_555
C57 F7 1_555 1_555
F8 C57 1_555 1_555
F9 C57 1_555 1_555
O18 S3 1_555 1_555
O19 S3 1_555 1_555
S3_2 C57_2 1_555 1_555
C57_2 F7_2 1_555 1_555
F8_2 C57_2 1_555 1_555
F9_2 C57_2 1_555 1_555
O18_2 S3_2 1_555 1_555
O19_2 S3_2 1_555 1_555

#END
