
###############################################################################
#
# This file contains modified crystal structure data generated from the
# MOF subset of the Cambridge Structural Database (CSD) v543 
# hosted by the Cambridge Crystallographic Data Centre (CCDC).
#
# This work is licensed under the Creative Commons
# Attribution-NonCommercial-ShareAlike 4.0 International License.
# To view a copy of this license, visit
# http://creativecommons.org/licenses/by-nc-sa/4.0/
# or send a letter to
# Creative Commons, PO Box 1866, Mountain View, CA 94042, USA.
#
# CIF created using the CSD Python API on 29 September 2022
# The structure has been converted into the P1 space group
# The structure has a 3D framework
# The original CSD entry EQACOR is in the monoclinic crystal system
# The framework has been calculated to contain at least 10.0% void space
# The void calculation uses a probe of radius 1.32A, grid spacing 0.4
#
###############################################################################

data_EQACOR
_chemical_formula_moiety         '(C24 H24 O45 Zn19)n'
_symmetry_cell_setting           triclinic
_symmetry_space_group_name_H-M   'P 1'
_symmetry_Int_Tables_number      1
_space_group_name_Hall           'P 1'
loop_
_symmetry_equiv_pos_site_id
_symmetry_equiv_pos_as_xyz
1 x,y,z
_cell_length_a                   11.3261(15)
_cell_length_b                   9.8210(14)
_cell_length_c                   14.4412(19)
_cell_angle_alpha                90
_cell_angle_beta                 91.297(5)
_cell_angle_gamma                90
_cell_volume                     1605.94
loop_
_atom_site_label
_atom_site_type_symbol
_atom_site_fract_x
_atom_site_fract_y
_atom_site_fract_z
Zn1 Zn 0.24331(4) 0.07756(5) 0.36832(3)
Zn2 Zn 0.24050(4) 0.39126(5) 0.31300(3)
Zn3 Zn 0.5000 -0.0000 0.5000
Zn4 Zn -0.0000 -0.0000 0.5000
O3 O 0.1025(2) 0.1551(3) 0.43955(18)
C2 C 0.0706(4) 0.2786(4) 0.4488(3)
H2 H 0.003(4) 0.292(5) 0.491(3)
O4 O 0.1118(2) 0.3792(3) 0.40880(19)
O5 O 0.1919(2) 0.1994(3) 0.25419(18)
C3 C 0.1699(3) 0.1720(4) 0.1697(3)
H3 H 0.138(4) 0.249(4) 0.136(3)
O6 O 0.1833(2) 0.0606(3) 0.13111(19)
O7 O 0.3472(2) 0.2554(3) 0.39048(19)
C4 C 0.4222(4) 0.2883(4) 0.4533(3)
H4 H 0.438(5) 0.392(7) 0.460(4)
O8 O 0.4814(2) 0.2092(3) 0.5024(2)
O12 O 0.5411(2) 0.0035(3) 0.3596(2)
O22 O 0.0234(2) 0.1044(3) 0.6239(2)
O25 O 0.6843(2) 0.0274(3) 0.52308(18)
O26 O 0.3167(2) 0.5606(3) 0.36889(19)
O29 O 0.3506(2) 0.4168(3) 0.19512(18)
O31 O 0.1300(2) 0.4931(3) 0.21961(18)
Zn3_2 Zn 0.5000 1.0000 0.5000
Zn4_2 Zn -0.0000 1.0000 0.5000
O1 O 0.3157(2) 0.9726(3) 0.47692(18)
C1 C 0.2572(4) 0.8943(4) 0.5306(3)
H1 H 0.300(4) 0.842(4) 0.569(3)
O2 O 0.1496(2) 0.8859(3) 0.5339(2)
O9 O 0.1494(2) 0.9168(3) 0.30488(18)
C5 C 0.0458(4) 0.8706(4) 0.3133(3)
H5 H 0.017(4) 0.811(5) 0.269(3)
O11 O 0.3700(2) 0.9931(3) 0.28039(18)
C6 C 0.4814(3) 0.9851(4) 0.2878(3)
H6 H 0.525(5) 0.960(6) 0.234(4)
Zn7 Zn 0.25950(4) 0.89126(5) 0.18700(3)
O28 O 0.5186(2) 0.7908(3) 0.4976(2)
O33 O 0.4589(2) 0.9965(3) 0.6404(2)
Zn4_3 Zn 1.0000 -0.0000 0.5000
C7 C 0.7428(4) 0.1057(4) 0.4694(3)
H7 H 0.700(4) 0.158(4) 0.431(3)
O14 O 0.8504(2) 0.1141(3) 0.4661(2)
O21 O 0.8506(2) 0.0832(3) 0.69512(18)
C11 C 0.9542(4) 0.1294(4) 0.6867(3)
H11 H 0.983(4) 0.189(5) 0.731(3)
O23 O 0.6300(2) 0.0069(3) 0.71961(18)
C12 C 0.5186(3) 0.0149(4) 0.7122(3)
H12 H 0.475(5) 0.040(6) 0.766(4)
Zn8 Zn 0.74050(4) 0.10874(5) 0.81300(3)
Zn4_4 Zn 1.0000 1.0000 0.5000
O10 O 0.9766(2) 0.8956(3) 0.3761(2)
Zn5 Zn 0.75669(4) 0.92244(5) 0.63168(3)
Zn6 Zn 0.75950(4) 0.60874(5) 0.68700(3)
O15 O 0.8975(2) 0.8449(3) 0.56045(18)
C8 C 0.9294(4) 0.7214(4) 0.5512(3)
H8 H 0.997(4) 0.708(5) 0.509(3)
O16 O 0.8882(2) 0.6208(3) 0.59120(19)
O17 O 0.8081(2) 0.8006(3) 0.74581(18)
C9 C 0.8301(3) 0.8280(4) 0.8303(3)
H9 H 0.862(4) 0.751(4) 0.864(3)
O18 O 0.8167(2) 0.9394(3) 0.86889(19)
O19 O 0.6528(2) 0.7446(3) 0.60952(19)
C10 C 0.5778(4) 0.7117(4) 0.5467(3)
H10 H 0.562(5) 0.608(7) 0.540(4)
O27 O 0.6833(2) 0.4394(3) 0.63111(19)
O30 O 0.6494(2) 0.5832(3) 0.80488(18)
O32 O 0.8700(2) 0.5069(3) 0.78039(18)
Zn9 Zn 0.0000 0.5000 0.0000
H12_2 H 0.025(5) 0.540(6) 0.734(4)
O24 O 0.0411(2) 0.4965(3) 0.8596(2)
Zn9_2 Zn -0.0000 0.5000 1.0000
Zn1_2 Zn 0.25669(4) 0.57756(5) 0.13168(3)
Zn4_5 Zn 0.5000 0.5000 0.0000
O1_2 O 0.1843(2) 0.4726(3) 0.02308(18)
O3_2 O 0.3975(2) 0.6551(3) 0.06045(18)
C2_2 C 0.4294(4) 0.7786(4) 0.0512(3)
H2_2 H 0.497(4) 0.792(5) 0.009(3)
O4_2 O 0.3882(2) 0.8792(3) 0.09120(19)
O5_2 O 0.3081(2) 0.6994(3) 0.24581(18)
C3_2 C 0.3301(3) 0.6720(4) 0.3303(3)
H3_2 H 0.362(4) 0.749(4) 0.364(3)
O7_2 O 0.1528(2) 0.7554(3) 0.10952(19)
C4_2 C 0.0778(4) 0.7883(4) 0.0467(3)
H4_2 H 0.062(5) 0.892(7) 0.040(4)
C5_2 C 0.4542(4) 0.3706(4) 0.1867(3)
H5_2 H 0.483(4) 0.311(5) 0.231(3)
O10_2 O 0.5234(2) 0.3956(3) 0.1239(2)
C6_2 C 0.0186(3) 0.4851(4) 0.2122(3)
C7_2 C 0.7572(4) 0.6057(4) 0.0306(3)
H7_2 H 0.800(4) 0.658(4) 0.069(3)
O14_2 O 0.6496(2) 0.6141(3) 0.0339(2)
O20 O 0.9814(2) 0.2908(3) 0.0024(2)
Zn9_3 Zn 1.0000 0.5000 0.0000
Zn4_6 Zn 0.5000 0.5000 1.0000
C1_2 C 0.2428(4) 0.3943(4) 0.9694(3)
H1_2 H 0.200(4) 0.342(4) 0.931(3)
O2_2 O 0.3504(2) 0.3859(3) 0.9661(2)
O8_2 O 0.0186(2) 0.7092(3) 0.9976(2)
Zn5_2 Zn 0.74331(4) 0.42244(5) 0.86832(3)
O13 O 0.8157(2) 0.5274(3) 0.97692(18)
O15_2 O 0.6025(2) 0.3449(3) 0.93955(18)
C8_2 C 0.5706(4) 0.2214(4) 0.9488(3)
H8_2 H 0.503(4) 0.208(5) 0.991(3)
O16_2 O 0.6118(2) 0.1208(3) 0.90880(19)
O17_2 O 0.6919(2) 0.3006(3) 0.75419(18)
C9_2 C 0.6699(3) 0.3280(4) 0.6697(3)
H9_2 H 0.638(4) 0.251(4) 0.636(3)
O19_2 O 0.8472(2) 0.2446(3) 0.89048(19)
C10_2 C 0.9222(4) 0.2117(4) 0.9533(3)
H10_2 H 0.938(5) 0.108(7) 0.960(4)
C11_2 C 0.5458(4) 0.6294(4) 0.8133(3)
H11_2 H 0.517(4) 0.689(5) 0.769(3)
O22_2 O 0.4766(2) 0.6044(3) 0.8761(2)
C12_2 C 0.9814(3) 0.5149(4) 0.7878(3)
Zn9_4 Zn 1.0000 0.5000 1.0000
H6_2 H 0.975(5) 0.460(6) 0.266(4)
O12_2 O 0.9589(2) 0.5035(3) 0.1404(2)
loop_
_geom_bond_atom_site_label_1
_geom_bond_atom_site_label_2
_geom_bond_site_symmetry_1
_geom_bond_site_symmetry_2
Zn2 O4 1_555 1_555
O3 Zn1 1_555 1_555
C2 O3 1_555 1_555
H2 C2 1_555 1_555
O4 C2 1_555 1_555
O5 Zn1 1_555 1_555
C3 O5 1_555 1_555
H3 C3 1_555 1_555
O6 C3 1_555 1_555
O7 Zn1 1_555 1_555
C4 O7 1_555 1_555
H4 C4 1_555 1_555
O8 Zn3 1_555 1_555
O12 Zn3 1_555 1_555
O22 Zn4 1_555 1_555
O25 Zn3 1_555 1_555
O26 Zn2 1_555 1_555
O29 Zn2 1_555 1_555
O31 Zn2 1_555 1_555
Zn2 O5 1_555 1_555
Zn2 O7 1_555 1_555
Zn4 O3 1_555 1_555
C4 O8 1_555 1_555
Zn3_2 O1 1_555 1_555
Zn4_2 O2 1_555 1_555
O1 C1 1_555 1_555
C1 H1 1_555 1_555
O2 C1 1_555 1_555
C5 O9 1_555 1_555
H5 C5 1_555 1_555
C6 O11 1_555 1_555
H6 C6 1_555 1_555
O28 Zn3_2 1_555 1_555
O33 Zn3_2 1_555 1_555
O9 Zn7 1_555 1_555
O11 Zn7 1_555 1_555
O25 C7 1_555 1_555
C7 H7 1_555 1_555
O14 Zn4_3 1_555 1_555
C11 O21 1_555 1_555
H11 C11 1_555 1_555
C12 O23 1_555 1_555
H12 C12 1_555 1_555
C7 O14 1_555 1_555
O21 Zn8 1_555 1_555
O23 Zn8 1_555 1_555
O10 Zn4_4 1_555 1_555
Zn6 O16 1_555 1_555
O15 Zn4_4 1_555 1_555
C8 O15 1_555 1_555
H8 C8 1_555 1_555
O16 C8 1_555 1_555
O17 Zn5 1_555 1_555
C9 O17 1_555 1_555
H9 C9 1_555 1_555
O18 C9 1_555 1_555
O19 Zn5 1_555 1_555
C10 O19 1_555 1_555
H10 C10 1_555 1_555
O28 C10 1_555 1_555
O27 Zn6 1_555 1_555
O30 Zn6 1_555 1_555
O32 Zn6 1_555 1_555
Zn5 O15 1_555 1_555
Zn6 O17 1_555 1_555
Zn6 O19 1_555 1_555
O24 Zn9_2 1_555 1_555
Zn1_2 O1_2 1_555 1_555
Zn7 O4_2 1_555 1_555
Zn9 O1_2 1_555 1_555
O3_2 Zn1_2 1_555 1_555
C2_2 O3_2 1_555 1_555
H2_2 C2_2 1_555 1_555
O4_2 C2_2 1_555 1_555
O5_2 Zn1_2 1_555 1_555
C3_2 O5_2 1_555 1_555
H3_2 C3_2 1_555 1_555
O26 C3_2 1_555 1_555
O7_2 Zn1_2 1_555 1_555
C4_2 O7_2 1_555 1_555
H4_2 C4_2 1_555 1_555
O29 Zn1_2 1_555 1_555
C5_2 O29 1_555 1_555
H5_2 C5_2 1_555 1_555
O10_2 Zn4_5 1_555 1_555
O31 Zn1_2 1_555 1_555
C6_2 O31 1_555 1_555
C7_2 H7_2 1_555 1_555
O14_2 Zn4_5 1_555 1_555
Zn7 O5_2 1_555 1_555
Zn7 O7_2 1_555 1_555
Zn4_5 O3_2 1_555 1_555
C5_2 O10_2 1_555 1_555
C7_2 O14_2 1_555 1_555
O20 Zn9_3 1_555 1_555
Zn4_6 O2_2 1_555 1_555
C1_2 H1_2 1_555 1_555
O2_2 C1_2 1_555 1_555
O8_2 Zn9_2 1_555 1_555
Zn5_2 O13 1_555 1_555
Zn8 O16_2 1_555 1_555
O15_2 Zn4_6 1_555 1_555
C8_2 O15_2 1_555 1_555
H8_2 C8_2 1_555 1_555
O16_2 C8_2 1_555 1_555
O17_2 Zn5_2 1_555 1_555
C9_2 O17_2 1_555 1_555
H9_2 C9_2 1_555 1_555
O27 C9_2 1_555 1_555
O19_2 Zn5_2 1_555 1_555
C10_2 O19_2 1_555 1_555
H10_2 C10_2 1_555 1_555
O30 Zn5_2 1_555 1_555
C11_2 O30 1_555 1_555
H11_2 C11_2 1_555 1_555
O22_2 Zn4_6 1_555 1_555
O32 Zn5_2 1_555 1_555
C12_2 O32 1_555 1_555
Zn9_4 O13 1_555 1_555
Zn5_2 O15_2 1_555 1_555
Zn8 O17_2 1_555 1_555
Zn8 O19_2 1_555 1_555
C11_2 O22_2 1_555 1_555
O12_2 Zn9_3 1_555 1_555

#END
