
###############################################################################
#
# This file contains modified crystal structure data generated from the
# MOF subset of the Cambridge Structural Database (CSD) v543 
# hosted by the Cambridge Crystallographic Data Centre (CCDC).
#
# This work is licensed under the Creative Commons
# Attribution-NonCommercial-ShareAlike 4.0 International License.
# To view a copy of this license, visit
# http://creativecommons.org/licenses/by-nc-sa/4.0/
# or send a letter to
# Creative Commons, PO Box 1866, Mountain View, CA 94042, USA.
#
# CIF created using the CSD Python API on 29 September 2022
# The structure has been converted into the P1 space group
# The structure has a 3D framework
# The original CSD entry EQEGAL is in the monoclinic crystal system
# The framework has been calculated to contain at least 10.0% void space
# The void calculation uses a probe of radius 1.32A, grid spacing 0.4
#
###############################################################################

data_EQEGAL
_chemical_formula_moiety         '(C86 H38 Gd6 N14 Na4 O48)n'
_symmetry_cell_setting           triclinic
_symmetry_space_group_name_H-M   'P 1'
_symmetry_Int_Tables_number      1
_space_group_name_Hall           'P 1'
loop_
_symmetry_equiv_pos_site_id
_symmetry_equiv_pos_as_xyz
1 x,y,z
_cell_length_a                   17.9246(3)
_cell_length_b                   10.4778(2)
_cell_length_c                   18.3715(3)
_cell_angle_alpha                90
_cell_angle_beta                 96.1830(10)
_cell_angle_gamma                90
_cell_volume                     3430.29
loop_
_atom_site_label
_atom_site_type_symbol
_atom_site_fract_x
_atom_site_fract_y
_atom_site_fract_z
C1 C 0.1720(3) 0.2090(6) 0.2083(3)
C2 C 0.2414(4) 0.2659(7) 0.2125(4)
H1 H 0.2747 0.2475 0.1785
C3 C 0.2602(5) 0.3498(9) 0.2677(6)
H2 H 0.3080 0.3855 0.2734
C4 C 0.2092(5) 0.3827(7) 0.3154(5)
H3 H 0.2206 0.4438 0.3516
C5 C 0.1403(3) 0.3216(5) 0.3076(3)
C6 C 0.1441(4) 0.1122(5) 0.1509(3)
C7 C 0.0782(4) 0.3473(7) 0.3563(3)
N1 N 0.1228(3) 0.2359(4) 0.2551(2)
O1 O 0.0830(2) 0.0556(4) 0.1599(2)
O2 O 0.1823(3) 0.0934(5) 0.0987(3)
O3 O 0.0195(2) 0.2824(4) 0.3425(2)
O4 O 0.0885(4) 0.4284(6) 0.4053(3)
Na1 Na 0.2500 0.2500 0.0000
Gd1 Gd 0.0000 0.11699(3) 0.2500
O7 O 0.0860(2) 0.0145(4) 0.3446(2)
O16 O 0.3747(4) 0.3446(6) 0.0908(3)
Na8 Na 0.1456(7) 0.1009(7) 0.4928(6)
Na1_2 Na 0.2500 0.2500 1.0000
O13 O 0.3177(3) 0.4066(5) 0.9013(3)
O17 O 0.1253(4) 0.1554(6) 0.9092(3)
C10 C 0.0000 0.6141(10) 0.2500
H5 H 0.0000 0.5254 0.2500
N2 N 0.0000 0.8769(5) 0.2500
C12 C 0.0424(4) 0.8138(6) 0.3020(3)
C13 C 0.0427(6) 0.6801(7) 0.3043(5)
H6 H 0.0712 0.6368 0.3417
C14 C 0.0885(4) 0.8968(6) 0.3571(4)
O8 O 0.1253(4) 0.8446(6) 0.4092(3)
Na6 Na 0.2500 0.7500 0.5000
Na2 Na 0.1456(7) 0.8991(7) 0.9928(6)
O14 O 0.0860(2) 0.9855(4) 0.8446(2)
O5 O 0.9140(2) 0.0145(4) 0.1554(2)
Gd1_2 Gd 1.0000 0.11699(3) 0.2500
C15 C 0.8280(3) 0.2090(6) 0.2917(3)
C16 C 0.7586(4) 0.2659(7) 0.2875(4)
H7 H 0.7253 0.2475 0.3215
C17 C 0.7398(5) 0.3498(9) 0.2323(6)
H8 H 0.6920 0.3855 0.2266
C18 C 0.7908(5) 0.3827(7) 0.1846(5)
H9 H 0.7794 0.4438 0.1484
C19 C 0.8597(3) 0.3216(5) 0.1924(3)
C20 C 0.8559(4) 0.1122(5) 0.3491(3)
C21 C 0.9218(4) 0.3473(7) 0.1437(3)
N3 N 0.8772(3) 0.2359(4) 0.2449(2)
O9 O 0.9170(2) 0.0556(4) 0.3401(2)
O10 O 0.8177(3) 0.0934(5) 0.4013(3)
O11 O 0.9805(2) 0.2824(4) 0.1575(2)
O12 O 0.9115(4) 0.4284(6) 0.0947(3)
Na4 Na 0.7500 0.2500 0.5000
Na7 Na 0.8544(7) 0.1009(7) 0.0072(6)
C8 C 0.9576(4) 0.8138(6) 0.1980(3)
C9 C 0.9573(6) 0.6801(7) 0.1957(5)
H4 H 0.9288 0.6368 0.1583
C10_2 C 1.0000 0.6141(10) 0.2500
H5_2 H 1.0000 0.5254 0.2500
C11 C 0.9115(4) 0.8968(6) 0.1429(4)
N2_2 N 1.0000 0.8769(5) 0.2500
O6 O 0.8747(4) 0.8446(6) 0.0908(3)
Na3 Na 0.8544(7) 0.8991(7) 0.5072(6)
O15 O 0.9140(2) 0.9855(4) 0.6554(2)
Na5 Na 0.7500 0.7500 0.0000
Na5_2 Na 0.7500 0.7500 1.0000
O13_2 O 0.6823(3) 0.4066(5) 0.5987(3)
O16_2 O 0.6253(4) 0.3446(6) 0.4092(3)
O17_2 O 0.8747(4) 0.1554(6) 0.5908(3)
C1_2 C 0.6720(3) 0.7090(6) 0.2083(3)
C2_2 C 0.7414(4) 0.7659(7) 0.2125(4)
H1_2 H 0.7747 0.7475 0.1785
C3_2 C 0.7602(5) 0.8498(9) 0.2677(6)
H2_2 H 0.8080 0.8855 0.2734
C4_2 C 0.7092(5) 0.8827(7) 0.3154(5)
H3_2 H 0.7206 0.9438 0.3516
C5_2 C 0.6403(3) 0.8216(5) 0.3076(3)
C6_2 C 0.6441(4) 0.6122(5) 0.1509(3)
C7_2 C 0.5782(4) 0.8473(7) 0.3563(3)
C8_2 C 0.4576(4) 0.3138(6) 0.1980(3)
C9_2 C 0.4573(6) 0.1801(7) 0.1957(5)
H4_2 H 0.4288 0.1368 0.1583
C10_3 C 0.5000 0.1141(10) 0.2500
H5_3 H 0.5000 0.0254 0.2500
C11_2 C 0.4115(4) 0.3968(6) 0.1429(4)
N1_2 N 0.6228(3) 0.7359(4) 0.2551(2)
N2_3 N 0.5000 0.3769(5) 0.2500
O1_2 O 0.5830(2) 0.5556(4) 0.1599(2)
O2_2 O 0.6823(3) 0.5934(5) 0.0987(3)
O3_2 O 0.5195(2) 0.7824(4) 0.3425(2)
O4_2 O 0.5885(4) 0.9284(6) 0.4053(3)
O5_2 O 0.4140(2) 0.5145(4) 0.1554(2)
Gd1_3 Gd 0.5000 0.61699(3) 0.2500
C12_2 C 0.5424(4) 0.3138(6) 0.3020(3)
C13_2 C 0.5427(6) 0.1801(7) 0.3043(5)
H6_2 H 0.5712 0.1368 0.3417
C14_2 C 0.5885(4) 0.3968(6) 0.3571(4)
O7_2 O 0.5860(2) 0.5145(4) 0.3446(2)
C15_2 C 0.3280(3) 0.7090(6) 0.2917(3)
C16_2 C 0.2586(4) 0.7659(7) 0.2875(4)
H7_2 H 0.2253 0.7475 0.3215
C17_2 C 0.2398(5) 0.8498(9) 0.2323(6)
H8_2 H 0.1920 0.8855 0.2266
C18_2 C 0.2908(5) 0.8827(7) 0.1846(5)
H9_2 H 0.2794 0.9438 0.1484
C19_2 C 0.3597(3) 0.8216(5) 0.1924(3)
C20_2 C 0.3559(4) 0.6122(5) 0.3491(3)
C21_2 C 0.4218(4) 0.8473(7) 0.1437(3)
N3_2 N 0.3772(3) 0.7359(4) 0.2449(2)
O9_2 O 0.4170(2) 0.5556(4) 0.3401(2)
O10_2 O 0.3177(3) 0.5934(5) 0.4013(3)
O11_2 O 0.4805(2) 0.7824(4) 0.1575(2)
O12_2 O 0.4115(4) 0.9284(6) 0.0947(3)
Na3_2 Na 0.3544(7) 0.3991(7) 0.5072(6)
O15_2 O 0.4140(2) 0.4855(4) 0.6554(2)
Na7_2 Na 0.3544(7) 0.6009(7) 0.0072(6)
Na8_2 Na 0.6456(7) 0.6009(7) 0.4928(6)
Na2_2 Na 0.6456(7) 0.3991(7) 0.9928(6)
O13_3 O 0.8177(3) 0.9066(5) 0.9013(3)
O14_2 O 0.5860(2) 0.4855(4) 0.8446(2)
O17_3 O 0.6253(4) 0.6554(6) 0.9092(3)
O13_4 O 0.1823(3) 0.9066(5) 0.5987(3)
O17_4 O 0.3747(4) 0.6554(6) 0.5908(3)
C8_3 C 0.0424(4) 0.1862(6) 0.8020(3)
C9_3 C 0.0427(6) 0.3199(7) 0.8043(5)
H4_3 H 0.0712 0.3632 0.8417
C10_4 C -0.0000 0.3859(10) 0.7500
H5_4 H -0.0000 0.4746 0.7500
C11_3 C 0.0885(4) 0.1032(6) 0.8571(4)
N2_4 N -0.0000 0.1231(5) 0.7500
Gd1_4 Gd -0.0000 0.88301(3) 0.7500
C15_3 C 0.1720(3) 0.7910(6) 0.7083(3)
C16_3 C 0.2414(4) 0.7341(7) 0.7125(4)
H7_3 H 0.2747 0.7525 0.6785
C17_3 C 0.2602(5) 0.6502(9) 0.7677(6)
H8_3 H 0.3080 0.6145 0.7734
C18_3 C 0.2092(5) 0.6173(7) 0.8154(5)
H9_3 H 0.2206 0.5562 0.8516
C19_3 C 0.1403(3) 0.6784(5) 0.8076(3)
C20_3 C 0.1441(4) 0.8878(5) 0.6509(3)
C21_3 C 0.0782(4) 0.6527(7) 0.8563(3)
N3_3 N 0.1228(3) 0.7641(4) 0.7551(2)
O9_3 O 0.0830(2) 0.9444(4) 0.6599(2)
O11_3 O 0.0195(2) 0.7176(4) 0.8425(2)
O12_3 O 0.0885(4) 0.5716(6) 0.9053(3)
C10_5 C 1.0000 0.3859(10) 0.7500
H5_5 H 1.0000 0.4746 0.7500
N2_5 N 1.0000 0.1231(5) 0.7500
C12_3 C 0.9576(4) 0.1862(6) 0.6980(3)
C13_3 C 0.9573(6) 0.3199(7) 0.6957(5)
H6_3 H 0.9288 0.3632 0.6583
C14_3 C 0.9115(4) 0.1032(6) 0.6429(4)
C1_3 C 0.8280(3) 0.7910(6) 0.7917(3)
C2_3 C 0.7586(4) 0.7341(7) 0.7875(4)
H1_3 H 0.7253 0.7525 0.8215
C3_3 C 0.7398(5) 0.6502(9) 0.7323(6)
H2_3 H 0.6920 0.6145 0.7266
C4_3 C 0.7908(5) 0.6173(7) 0.6846(5)
H3_3 H 0.7794 0.5562 0.6484
C5_3 C 0.8597(3) 0.6784(5) 0.6924(3)
C6_3 C 0.8559(4) 0.8878(5) 0.8491(3)
C7_3 C 0.9218(4) 0.6527(7) 0.6437(3)
N1_3 N 0.8772(3) 0.7641(4) 0.7449(2)
O1_3 O 0.9170(2) 0.9444(4) 0.8401(2)
O3_3 O 0.9805(2) 0.7176(4) 0.6575(2)
O4_3 O 0.9115(4) 0.5716(6) 0.5947(3)
Gd1_5 Gd 1.0000 0.88301(3) 0.7500
C1_4 C 0.3280(3) 0.2910(6) 0.7917(3)
C2_4 C 0.2586(4) 0.2341(7) 0.7875(4)
H1_4 H 0.2253 0.2525 0.8215
C3_4 C 0.2398(5) 0.1502(9) 0.7323(6)
H2_4 H 0.1920 0.1145 0.7266
C4_4 C 0.2908(5) 0.1173(7) 0.6846(5)
H3_4 H 0.2794 0.0562 0.6484
C5_4 C 0.3597(3) 0.1784(5) 0.6924(3)
C6_4 C 0.3559(4) 0.3878(5) 0.8491(3)
C7_4 C 0.4218(4) 0.1527(7) 0.6437(3)
C8_4 C 0.5424(4) 0.6862(6) 0.8020(3)
C9_4 C 0.5427(6) 0.8199(7) 0.8043(5)
H4_4 H 0.5712 0.8632 0.8417
C10_6 C 0.5000 0.8859(10) 0.7500
H5_6 H 0.5000 0.9746 0.7500
C11_4 C 0.5885(4) 0.6032(6) 0.8571(4)
N1_4 N 0.3772(3) 0.2641(4) 0.7449(2)
N2_6 N 0.5000 0.6231(5) 0.7500
O1_4 O 0.4170(2) 0.4444(4) 0.8401(2)
O3_4 O 0.4805(2) 0.2176(4) 0.6575(2)
O4_4 O 0.4115(4) 0.0716(6) 0.5947(3)
Gd1_6 Gd 0.5000 0.38301(3) 0.7500
C12_4 C 0.4576(4) 0.6862(6) 0.6980(3)
C13_4 C 0.4573(6) 0.8199(7) 0.6957(5)
H6_4 H 0.4288 0.8632 0.6583
C14_4 C 0.4115(4) 0.6032(6) 0.6429(4)
C15_4 C 0.6720(3) 0.2910(6) 0.7083(3)
C16_4 C 0.7414(4) 0.2341(7) 0.7125(4)
H7_4 H 0.7747 0.2525 0.6785
C17_4 C 0.7602(5) 0.1502(9) 0.7677(6)
H8_4 H 0.8080 0.1145 0.7734
C18_4 C 0.7092(5) 0.1173(7) 0.8154(5)
H9_4 H 0.7206 0.0562 0.8516
C19_4 C 0.6403(3) 0.1784(5) 0.8076(3)
C20_4 C 0.6441(4) 0.3878(5) 0.6509(3)
C21_4 C 0.5782(4) 0.1527(7) 0.8563(3)
N3_4 N 0.6228(3) 0.2641(4) 0.7551(2)
O9_4 O 0.5830(2) 0.4444(4) 0.6599(2)
O11_4 O 0.5195(2) 0.2176(4) 0.8425(2)
O12_4 O 0.5885(4) 0.0716(6) 0.9053(3)
loop_
_geom_bond_atom_site_label_1
_geom_bond_atom_site_label_2
_geom_bond_site_symmetry_1
_geom_bond_site_symmetry_2
C1 C2 1_555 1_555
C2 H1 1_555 1_555
C3 C2 1_555 1_555
H2 C3 1_555 1_555
C4 C3 1_555 1_555
H3 C4 1_555 1_555
C5 C4 1_555 1_555
C6 C1 1_555 1_555
C7 C5 1_555 1_555
N1 C1 1_555 1_555
O1 C6 1_555 1_555
O2 C6 1_555 1_555
O3 C7 1_555 1_555
O4 C7 1_555 1_555
Na1 O2 1_555 1_555
Gd1 N1 1_555 1_555
O7 Gd1 1_555 1_555
O16 Na1 1_555 1_555
Na8 O7 1_555 1_555
C5 N1 1_555 1_555
O1 Gd1 1_555 1_555
O3 Gd1 1_555 1_555
O13 Na1_2 1_555 1_555
O17 Na1_2 1_555 1_555
H5 C10 1_555 1_555
C12 N2 1_555 1_555
C13 C10 1_555 1_555
H6 C13 1_555 1_555
C14 C12 1_555 1_555
O8 C14 1_555 1_555
Na6 O8 1_555 1_555
C12 C13 1_555 1_555
O14 Na2 1_555 1_555
C15 C16 1_555 1_555
C16 H7 1_555 1_555
C17 C16 1_555 1_555
H8 C17 1_555 1_555
C18 C17 1_555 1_555
H9 C18 1_555 1_555
C19 C18 1_555 1_555
C20 C15 1_555 1_555
C21 C19 1_555 1_555
N3 Gd1_2 1_555 1_555
O9 Gd1_2 1_555 1_555
O10 C20 1_555 1_555
O11 Gd1_2 1_555 1_555
O12 C21 1_555 1_555
Na4 O10 1_555 1_555
Na7 O5 1_555 1_555
O5 Gd1_2 1_555 1_555
C15 N3 1_555 1_555
C19 N3 1_555 1_555
C20 O9 1_555 1_555
C21 O11 1_555 1_555
C8 C9 1_555 1_555
C9 H4 1_555 1_555
C10_2 C9 1_555 1_555
H5_2 C10_2 1_555 1_555
C11 C8 1_555 1_555
N2_2 C8 1_555 1_555
O6 C11 1_555 1_555
O15 Na3 1_555 1_555
Na5 O6 1_555 1_555
O13_2 Na4 1_555 1_555
O16_2 Na4 1_555 1_555
O17_2 Na4 1_555 1_555
C1_2 C2_2 1_555 1_555
C2_2 H1_2 1_555 1_555
C3_2 C2_2 1_555 1_555
H2_2 C3_2 1_555 1_555
C4_2 C3_2 1_555 1_555
H3_2 C4_2 1_555 1_555
C5_2 C4_2 1_555 1_555
C6_2 C1_2 1_555 1_555
C7_2 C5_2 1_555 1_555
C8_2 C9_2 1_555 1_555
C9_2 H4_2 1_555 1_555
C10_3 C9_2 1_555 1_555
H5_3 C10_3 1_555 1_555
C11_2 C8_2 1_555 1_555
N1_2 C1_2 1_555 1_555
N2_3 C8_2 1_555 1_555
O1_2 C6_2 1_555 1_555
O2_2 C6_2 1_555 1_555
O3_2 C7_2 1_555 1_555
O4_2 C7_2 1_555 1_555
O5_2 C11_2 1_555 1_555
O16 C11_2 1_555 1_555
Na5 O2_2 1_555 1_555
Gd1_3 N1_2 1_555 1_555
C12_2 N2_3 1_555 1_555
C13_2 C10_3 1_555 1_555
H6_2 C13_2 1_555 1_555
C14_2 C12_2 1_555 1_555
O7_2 Gd1_3 1_555 1_555
O16_2 C14_2 1_555 1_555
C15_2 C16_2 1_555 1_555
C16_2 H7_2 1_555 1_555
C17_2 C16_2 1_555 1_555
H8_2 C17_2 1_555 1_555
C18_2 C17_2 1_555 1_555
H9_2 C18_2 1_555 1_555
C19_2 C18_2 1_555 1_555
C20_2 C15_2 1_555 1_555
C21_2 C19_2 1_555 1_555
N3_2 Gd1_3 1_555 1_555
O9_2 Gd1_3 1_555 1_555
O10_2 C20_2 1_555 1_555
O11_2 Gd1_3 1_555 1_555
O12_2 C21_2 1_555 1_555
Na3_2 O10_2 1_555 1_555
O15_2 Na3_2 1_555 1_555
Na6 O10_2 1_555 1_555
Na7_2 O5_2 1_555 1_555
Na8_2 O7_2 1_555 1_555
C5_2 N1_2 1_555 1_555
N2_3 Gd1_3 1_555 1_555
O1_2 Gd1_3 1_555 1_555
O3_2 Gd1_3 1_555 1_555
O5_2 Gd1_3 1_555 1_555
C12_2 C13_2 1_555 1_555
C14_2 O7_2 1_555 1_555
C15_2 N3_2 1_555 1_555
C19_2 N3_2 1_555 1_555
C20_2 O9_2 1_555 1_555
C21_2 O11_2 1_555 1_555
O13_3 Na5_2 1_555 1_555
O14_2 Na2_2 1_555 1_555
O17_3 Na5_2 1_555 1_555
O13_4 Na6 1_555 1_555
O17_4 Na6 1_555 1_555
C8_3 C9_3 1_555 1_555
C9_3 H4_3 1_555 1_555
C10_4 C9_3 1_555 1_555
H5_4 C10_4 1_555 1_555
C11_3 C8_3 1_555 1_555
N2_4 C8_3 1_555 1_555
O17 C11_3 1_555 1_555
C15_3 C16_3 1_555 1_555
C16_3 H7_3 1_555 1_555
C17_3 C16_3 1_555 1_555
H8_3 C17_3 1_555 1_555
C18_3 C17_3 1_555 1_555
H9_3 C18_3 1_555 1_555
C19_3 C18_3 1_555 1_555
C20_3 C15_3 1_555 1_555
C21_3 C19_3 1_555 1_555
N3_3 Gd1_4 1_555 1_555
O9_3 Gd1_4 1_555 1_555
O13_4 C20_3 1_555 1_555
O11_3 Gd1_4 1_555 1_555
O12_3 C21_3 1_555 1_555
O14 Gd1_4 1_555 1_555
C15_3 N3_3 1_555 1_555
C19_3 N3_3 1_555 1_555
C20_3 O9_3 1_555 1_555
C21_3 O11_3 1_555 1_555
H5_5 C10_5 1_555 1_555
C12_3 N2_5 1_555 1_555
C13_3 C10_5 1_555 1_555
H6_3 C13_3 1_555 1_555
C14_3 C12_3 1_555 1_555
O17_2 C14_3 1_555 1_555
C12_3 C13_3 1_555 1_555
C1_3 C2_3 1_555 1_555
C2_3 H1_3 1_555 1_555
C3_3 C2_3 1_555 1_555
H2_3 C3_3 1_555 1_555
C4_3 C3_3 1_555 1_555
H3_3 C4_3 1_555 1_555
C5_3 C4_3 1_555 1_555
C6_3 C1_3 1_555 1_555
C7_3 C5_3 1_555 1_555
N1_3 C1_3 1_555 1_555
O1_3 C6_3 1_555 1_555
O13_3 C6_3 1_555 1_555
O3_3 C7_3 1_555 1_555
O4_3 C7_3 1_555 1_555
Gd1_5 N1_3 1_555 1_555
O15 Gd1_5 1_555 1_555
C5_3 N1_3 1_555 1_555
O1_3 Gd1_5 1_555 1_555
O3_3 Gd1_5 1_555 1_555
C1_4 C2_4 1_555 1_555
C2_4 H1_4 1_555 1_555
C3_4 C2_4 1_555 1_555
H2_4 C3_4 1_555 1_555
C4_4 C3_4 1_555 1_555
H3_4 C4_4 1_555 1_555
C5_4 C4_4 1_555 1_555
C6_4 C1_4 1_555 1_555
C7_4 C5_4 1_555 1_555
C8_4 C9_4 1_555 1_555
C9_4 H4_4 1_555 1_555
C10_6 C9_4 1_555 1_555
H5_6 C10_6 1_555 1_555
C11_4 C8_4 1_555 1_555
N1_4 C1_4 1_555 1_555
N2_6 C8_4 1_555 1_555
O1_4 C6_4 1_555 1_555
O13 C6_4 1_555 1_555
O3_4 C7_4 1_555 1_555
O4_4 C7_4 1_555 1_555
O14_2 C11_4 1_555 1_555
O17_3 C11_4 1_555 1_555
Gd1_6 N1_4 1_555 1_555
C12_4 N2_6 1_555 1_555
C13_4 C10_6 1_555 1_555
H6_4 C13_4 1_555 1_555
C14_4 C12_4 1_555 1_555
O15_2 Gd1_6 1_555 1_555
O17_4 C14_4 1_555 1_555
C15_4 C16_4 1_555 1_555
C16_4 H7_4 1_555 1_555
C17_4 C16_4 1_555 1_555
H8_4 C17_4 1_555 1_555
C18_4 C17_4 1_555 1_555
H9_4 C18_4 1_555 1_555
C19_4 C18_4 1_555 1_555
C20_4 C15_4 1_555 1_555
C21_4 C19_4 1_555 1_555
N3_4 Gd1_6 1_555 1_555
O9_4 Gd1_6 1_555 1_555
O13_2 C20_4 1_555 1_555
O11_4 Gd1_6 1_555 1_555
O12_4 C21_4 1_555 1_555
Na8_2 O13_2 1_555 1_555
C5_4 N1_4 1_555 1_555
N2_6 Gd1_6 1_555 1_555
O1_4 Gd1_6 1_555 1_555
O3_4 Gd1_6 1_555 1_555
O14_2 Gd1_6 1_555 1_555
C12_4 C13_4 1_555 1_555
C14_4 O15_2 1_555 1_555
C15_4 N3_4 1_555 1_555
C19_4 N3_4 1_555 1_555
C20_4 O9_4 1_555 1_555
C21_4 O11_4 1_555 1_555

#END
