
###############################################################################
#
# This file contains modified crystal structure data generated from the
# MOF subset of the Cambridge Structural Database (CSD) v543 
# hosted by the Cambridge Crystallographic Data Centre (CCDC).
#
# This work is licensed under the Creative Commons
# Attribution-NonCommercial-ShareAlike 4.0 International License.
# To view a copy of this license, visit
# http://creativecommons.org/licenses/by-nc-sa/4.0/
# or send a letter to
# Creative Commons, PO Box 1866, Mountain View, CA 94042, USA.
#
# CIF created using the CSD Python API on 29 September 2022
# The structure has been converted into the P1 space group
# The structure has a 3D framework
# The original CSD entry EQERIC is in the monoclinic crystal system
# The framework has been calculated to contain at least 10.0% void space
# The void calculation uses a probe of radius 1.32A, grid spacing 0.4
# H atom positions have been added when not included in the experimental data
#
###############################################################################

data_EQERIC
_chemical_formula_moiety         '(C60 H40 Co2 N24)n'
_symmetry_cell_setting           triclinic
_symmetry_space_group_name_H-M   'P 1'
_symmetry_Int_Tables_number      1
_space_group_name_Hall           'P 1'
loop_
_symmetry_equiv_pos_site_id
_symmetry_equiv_pos_as_xyz
1 x,y,z
_cell_length_a                   11.6486(14)
_cell_length_b                   17.609(2)
_cell_length_c                   10.5835(13)
_cell_angle_alpha                90
_cell_angle_beta                 110.272(2)
_cell_angle_gamma                90
_cell_volume                     2036.42
loop_
_atom_site_label
_atom_site_type_symbol
_atom_site_fract_x
_atom_site_fract_y
_atom_site_fract_z
H5 H 0.5496 0.0965 0.0338
Co2 Co 0.78372(4) 0.17353(2) 0.01683(4)
C1 C 0.2963(3) 0.27337(19) 0.8010(4)
C2 C 0.2974(3) 0.33492(18) 0.7197(4)
H1 H 0.3680 0.3459 0.7012
C3 C 0.1949(3) 0.38037(18) 0.6657(3)
C4 C 0.0887(3) 0.36376(19) 0.6933(3)
H2 H 0.0211 0.3956 0.6613
C5 C 0.0839(3) 0.3003(2) 0.7677(3)
C6 C 0.1876(3) 0.2558(2) 0.8231(4)
H3 H 0.1849 0.2139 0.8754
C7 C 0.4078(3) 0.22947(19) 0.8667(4)
C8 C 0.5264(3) 0.24507(19) 0.8823(4)
H4 H 0.5529 0.2874 0.8475
C9 C 0.5243(3) 0.1408(2) 0.9841(4)
C10 C 0.2003(3) 0.44589(18) 0.5817(3)
C11 C 0.1662(3) 0.51970(18) 0.5851(3)
H6 H 0.1271 0.5392 0.6413
C12 C 0.2504(3) 0.51053(19) 0.4356(4)
H7 H 0.2806 0.5228 0.3676
H8 H 0.0323 0.2294 0.9806
N1 N 0.6011(2) 0.18862(16) 0.9572(3)
N2 N 0.4082(3) 0.16230(17) 0.9334(3)
N3 N 0.1987(2) 0.56078(15) 0.4923(3)
N4 N 0.2550(3) 0.44044(16) 0.4856(3)
Co3 Co 0.21628(4) 0.67353(2) 0.48317(4)
H10 H 0.334641 0.134848 0.942002
N8 N 0.8013(2) 0.06078(15) 0.0077(3)
N9 N 0.8541(2) 0.21335(15) 0.2042(3)
C13 C 0.9720(3) 0.27777(19) 0.7949(4)
C14 C 0.9656(3) 0.2421(2) 0.9049(4)
C15 C 0.7835(3) 0.25560(18) 0.7661(3)
H9 H 0.6987 0.2537 0.7277
N5 N 0.8451(3) 0.22746(17) 0.8879(3)
N6 N 0.8541(2) 0.28665(15) 0.7042(3)
Co4 Co 0.78372(4) 0.32647(2) 0.51683(4)
C13_2 C 0.0280(3) 0.77777(19) 0.7051(4)
C14_2 C 0.0344(3) 0.7421(2) 0.5951(4)
C15_2 C 0.2165(3) 0.75560(18) 0.7339(3)
H9_2 H 0.3013 0.7537 0.7723
N5_2 N 0.1549(3) 0.72746(17) 0.6121(3)
N6_2 N 0.1459(2) 0.78665(15) 0.7958(3)
Co4_2 Co 0.21628(4) 0.82647(2) 0.98317(4)
N7 N 0.3989(2) 0.68862(16) 0.5428(3)
N9_2 N 0.1459(2) 0.71335(15) 0.2958(3)
C12_2 C 0.7496(3) 0.01053(19) 0.0644(4)
H7_2 H 0.7194 0.0228 0.1324
C1_2 C 0.7037(3) 0.77337(19) 0.6990(4)
C2_2 C 0.7026(3) 0.83492(18) 0.7803(4)
H1_2 H 0.6320 0.8459 0.7988
C3_2 C 0.8051(3) 0.88037(18) 0.8343(3)
C4_2 C 0.9113(3) 0.86376(19) 0.8067(3)
H2_2 H 0.9789 0.8956 0.8387
C5_2 C 0.9161(3) 0.8003(2) 0.7323(3)
C6_2 C 0.8124(3) 0.7558(2) 0.6769(4)
H3_2 H 0.8151 0.7139 0.6246
C7_2 C 0.5922(3) 0.72947(19) 0.6333(4)
C8_2 C 0.4736(3) 0.74507(19) 0.6177(4)
H4_2 H 0.4471 0.7874 0.6525
C9_2 C 0.4757(3) 0.6408(2) 0.5159(4)
H5_2 H 0.4504 0.5965 0.4662
C10_2 C 0.7997(3) 0.94589(18) 0.9183(3)
H8_2 H 0.9677 0.7294 0.5194
N2_2 N 0.5918(3) 0.66230(17) 0.5666(3)
H10_2 H 0.665359 0.634848 0.557998
C13_3 C 0.0280(3) 0.72223(19) 0.2051(4)
C14_3 C 0.0344(3) 0.7579(2) 0.0951(4)
C15_3 C 0.2165(3) 0.74440(18) 0.2339(3)
H9_3 H 0.3013 0.7463 0.2723
N5_3 N 0.1549(3) 0.77254(17) 0.1121(3)
N7_2 N 0.3989(2) 0.81138(16) 0.0428(3)
N8_2 N 0.1987(2) 0.93922(15) 0.9923(3)
C1_3 C 0.7037(3) 0.72663(19) 0.1990(4)
C2_3 C 0.7026(3) 0.66508(18) 0.2803(4)
H1_3 H 0.6320 0.6541 0.2988
C3_3 C 0.8051(3) 0.61963(18) 0.3343(3)
C4_3 C 0.9113(3) 0.63624(19) 0.3067(3)
H2_3 H 0.9789 0.6044 0.3387
C5_3 C 0.9161(3) 0.6997(2) 0.2323(3)
C6_3 C 0.8124(3) 0.7442(2) 0.1769(4)
H3_3 H 0.8151 0.7861 0.1246
C7_3 C 0.5922(3) 0.77053(19) 0.1333(4)
C8_3 C 0.4736(3) 0.75493(19) 0.1177(4)
H4_3 H 0.4471 0.7126 0.1525
C9_3 C 0.4757(3) 0.8592(2) 0.0159(4)
C10_3 C 0.7997(3) 0.55411(18) 0.4183(3)
C11_2 C 0.8338(3) 0.48030(18) 0.4149(3)
H6_2 H 0.8729 0.4608 0.3587
C12_3 C 0.7496(3) 0.48947(19) 0.5644(4)
H7_3 H 0.7194 0.4772 0.6324
H8_3 H 0.9677 0.7706 0.0194
N2_3 N 0.5918(3) 0.83770(17) 0.0666(3)
N3_2 N 0.8013(2) 0.43922(15) 0.5077(3)
N4_2 N 0.7450(3) 0.55956(16) 0.5144(3)
H10_3 H 0.665359 0.865152 0.0579983
H5_3 H 0.4504 0.9035 0.9662
C1_4 C 0.2963(3) 0.22663(19) 0.3010(4)
C2_4 C 0.2974(3) 0.16508(18) 0.2197(4)
H1_4 H 0.3680 0.1541 0.2012
C3_4 C 0.1949(3) 0.11963(18) 0.1657(3)
C4_4 C 0.0887(3) 0.13624(19) 0.1933(3)
H2_4 H 0.0211 0.1044 0.1613
C5_4 C 0.0839(3) 0.1997(2) 0.2677(3)
C6_4 C 0.1876(3) 0.2442(2) 0.3231(4)
H3_4 H 0.1849 0.2861 0.3754
C7_4 C 0.4078(3) 0.27053(19) 0.3667(4)
C8_4 C 0.5264(3) 0.25493(19) 0.3823(4)
H4_4 H 0.5529 0.2126 0.3475
C9_4 C 0.5243(3) 0.3592(2) 0.4841(4)
H5_4 H 0.5496 0.4035 0.5338
C10_4 C 0.2003(3) 0.05411(18) 0.0817(3)
H8_4 H 0.0323 0.2706 0.4806
N1_2 N 0.6011(2) 0.31138(16) 0.4572(3)
N2_4 N 0.4082(3) 0.33770(17) 0.4334(3)
H10_4 H 0.334641 0.365152 0.442002
C12_4 C 0.2504(3) 0.98947(19) 0.9356(4)
H7_4 H 0.2806 0.9772 0.8676
C13_4 C 0.9720(3) 0.22223(19) 0.2949(4)
C14_4 C 0.9656(3) 0.2579(2) 0.4049(4)
C15_4 C 0.7835(3) 0.24440(18) 0.2661(3)
H9_4 H 0.6987 0.2463 0.2277
N5_4 N 0.8451(3) 0.27254(17) 0.3879(3)
C11_3 C 0.8338(3) 0.01970(18) 0.9149(3)
H6_3 H 0.8729 0.0392 0.8587
N4_3 N 0.7450(3) 0.94044(16) 0.0144(3)
N4_4 N 0.2550(3) 0.05956(16) 0.9856(3)
C11_4 C 0.1662(3) 0.98030(18) 0.0851(3)
H6_4 H 0.1271 0.9608 0.1413
loop_
_geom_bond_atom_site_label_1
_geom_bond_atom_site_label_2
_geom_bond_site_symmetry_1
_geom_bond_site_symmetry_2
C1 C2 1_555 1_555
C2 H1 1_555 1_555
C3 C2 1_555 1_555
C4 C3 1_555 1_555
H2 C4 1_555 1_555
C5 C4 1_555 1_555
C6 C1 1_555 1_555
H3 C6 1_555 1_555
C7 C1 1_555 1_555
C8 C7 1_555 1_555
H4 C8 1_555 1_555
C10 C3 1_555 1_555
C11 C10 1_555 1_555
H6 C11 1_555 1_555
C12 H7 1_555 1_555
N1 C8 1_555 1_555
N2 C7 1_555 1_555
N3 C11 1_555 1_555
N4 C10 1_555 1_555
Co3 N3 1_555 1_555
C5 C6 1_555 1_555
C9 N1 1_555 1_555
C9 N2 1_555 1_555
C12 N3 1_555 1_555
C12 N4 1_555 1_555
N2 H10 1_555 1_555
N8 Co2 1_555 1_555
N9 Co2 1_555 1_555
C14 C13 1_555 1_555
C15 H9 1_555 1_555
N5 C14 1_555 1_555
N6 C13 1_555 1_555
Co4 N6 1_555 1_555
C15 N5 1_555 1_555
C15 N6 1_555 1_555
Co3 N5_2 1_555 1_555
C14_2 C13_2 1_555 1_555
C15_2 H9_2 1_555 1_555
N5_2 C14_2 1_555 1_555
N6_2 C13_2 1_555 1_555
Co4_2 N6_2 1_555 1_555
N7 Co3 1_555 1_555
N9_2 Co3 1_555 1_555
C15_2 N5_2 1_555 1_555
C15_2 N6_2 1_555 1_555
C12_2 H7_2 1_555 1_555
C12_2 N8 1_555 1_555
C1_2 C2_2 1_555 1_555
C2_2 H1_2 1_555 1_555
C3_2 C2_2 1_555 1_555
C4_2 C3_2 1_555 1_555
H2_2 C4_2 1_555 1_555
C5_2 C4_2 1_555 1_555
C6_2 C1_2 1_555 1_555
H3_2 C6_2 1_555 1_555
C7_2 C1_2 1_555 1_555
C8_2 C7_2 1_555 1_555
H4_2 C8_2 1_555 1_555
C9_2 H5_2 1_555 1_555
C10_2 C3_2 1_555 1_555
N7 C8_2 1_555 1_555
N2_2 C7_2 1_555 1_555
C5_2 C6_2 1_555 1_555
C9_2 N7 1_555 1_555
C9_2 N2_2 1_555 1_555
N2_2 H10_2 1_555 1_555
C14_3 C13_3 1_555 1_555
C15_3 H9_3 1_555 1_555
N5_3 C14_3 1_555 1_555
N9_2 C13_3 1_555 1_555
C15_3 N5_3 1_555 1_555
C15_3 N9_2 1_555 1_555
N8_2 Co4_2 1_555 1_555
C1_3 C2_3 1_555 1_555
C2_3 H1_3 1_555 1_555
C3_3 C2_3 1_555 1_555
C4_3 C3_3 1_555 1_555
H2_3 C4_3 1_555 1_555
C5_3 C4_3 1_555 1_555
C6_3 C1_3 1_555 1_555
H3_3 C6_3 1_555 1_555
C7_3 C1_3 1_555 1_555
C8_3 C7_3 1_555 1_555
H4_3 C8_3 1_555 1_555
C10_3 C3_3 1_555 1_555
C11_2 C10_3 1_555 1_555
H6_2 C11_2 1_555 1_555
C12_3 H7_3 1_555 1_555
N7_2 C8_3 1_555 1_555
N2_3 C7_3 1_555 1_555
N3_2 C11_2 1_555 1_555
N4_2 C10_3 1_555 1_555
Co4 N3_2 1_555 1_555
C5_3 C6_3 1_555 1_555
C9_3 N7_2 1_555 1_555
C9_3 N2_3 1_555 1_555
C12_3 N3_2 1_555 1_555
C12_3 N4_2 1_555 1_555
N2_3 H10_3 1_555 1_555
C1_4 C2_4 1_555 1_555
C2_4 H1_4 1_555 1_555
C3_4 C2_4 1_555 1_555
C4_4 C3_4 1_555 1_555
H2_4 C4_4 1_555 1_555
C5_4 C4_4 1_555 1_555
C6_4 C1_4 1_555 1_555
H3_4 C6_4 1_555 1_555
C7_4 C1_4 1_555 1_555
C8_4 C7_4 1_555 1_555
H4_4 C8_4 1_555 1_555
C9_4 H5_4 1_555 1_555
C10_4 C3_4 1_555 1_555
N1_2 C8_4 1_555 1_555
N2_4 C7_4 1_555 1_555
Co4 N1_2 1_555 1_555
C5_4 C6_4 1_555 1_555
C9_4 N1_2 1_555 1_555
C9_4 N2_4 1_555 1_555
N2_4 H10_4 1_555 1_555
C12_4 H7_4 1_555 1_555
C12_4 N8_2 1_555 1_555
Co4 N5_4 1_555 1_555
C14_4 C13_4 1_555 1_555
C15_4 H9_4 1_555 1_555
N5_4 C14_4 1_555 1_555
N9 C13_4 1_555 1_555
C15_4 N5_4 1_555 1_555
C15_4 N9 1_555 1_555
H6_3 C11_3 1_555 1_555
H6_4 C11_4 1_555 1_555

#END
