
###############################################################################
#
# This file contains modified crystal structure data generated from the
# MOF subset of the Cambridge Structural Database (CSD) v543 
# hosted by the Cambridge Crystallographic Data Centre (CCDC).
#
# This work is licensed under the Creative Commons
# Attribution-NonCommercial-ShareAlike 4.0 International License.
# To view a copy of this license, visit
# http://creativecommons.org/licenses/by-nc-sa/4.0/
# or send a letter to
# Creative Commons, PO Box 1866, Mountain View, CA 94042, USA.
#
# CIF created using the CSD Python API on 29 September 2022
# The structure has been converted into the P1 space group
# The structure has a 3D framework
# The original CSD entry EQETAX is in the orthorhombic crystal system
# The framework has been calculated to contain at least 10.0% void space
# The void calculation uses a probe of radius 1.32A, grid spacing 0.4
#
###############################################################################

data_EQETAX
_chemical_formula_moiety         '(C136 H88 Cu8 N24 O38)n'
_symmetry_cell_setting           triclinic
_symmetry_space_group_name_H-M   'P 1'
_symmetry_Int_Tables_number      1
_space_group_name_Hall           'P 1'
loop_
_symmetry_equiv_pos_site_id
_symmetry_equiv_pos_as_xyz
1 x,y,z
_cell_length_a                   16.269(2)
_cell_length_b                   20.730(3)
_cell_length_c                   14.9828(19)
_cell_angle_alpha                90
_cell_angle_beta                 90
_cell_angle_gamma                90
_cell_volume                     5053.04
loop_
_atom_site_label
_atom_site_type_symbol
_atom_site_fract_x
_atom_site_fract_y
_atom_site_fract_z
H5 H 0.3003 0.4433 0.0549
Cu4 Cu 0.393812(19) 0.566301(15) 0.03314(2)
C1 C 0.21676(17) 0.43159(13) 0.85965(18)
C2 C 0.01301(18) 0.25237(14) 0.82923(18)
C3 C 0.00873(16) 0.43887(13) 0.61480(17)
Cu1 Cu 0.106188(19) 0.566301(15) 0.53314(2)
O1 O 0.19429(11) 0.55828(9) 0.62815(12)
C4 C 0.11238(17) 0.43109(13) 0.73708(18)
H1 H 0.1332 0.4716 0.7177
N1 N 0.33118(13) 0.50331(11) 0.95802(14)
O2 O 0.02698(11) 0.49602(9) 0.60255(12)
O3 O 0.26310(14) 0.61874(11) 0.53551(15)
C5 C 0.11790(17) 0.34013(13) 0.83717(19)
H2 H 0.1436 0.3176 0.8849
C6 C 0.04588(16) 0.40358(13) 0.69346(17)
O5 O 0.32303(14) 0.58043(14) 0.65321(18)
N3 N 0.26223(15) 0.58654(13) 0.60546(17)
C7 C 0.26342(16) 0.47995(14) 0.81973(19)
H3 H 0.2579 0.4886 0.7578
C9 C 0.28958(18) 0.45400(14) 0.99439(19)
C10 C 0.23233(18) 0.41806(14) 0.94887(19)
H6 H 0.2036 0.3842 0.9782
C11 C 0.06093(17) 0.20081(14) 0.85807(18)
H7 H 0.1191 0.2031 0.8542
C12 C 0.14918(17) 0.39956(13) 0.80973(18)
C13 C 0.31767(17) 0.51508(14) 0.87108(18)
H8 H 0.3470 0.5494 0.8436
C15 C 0.02392(18) 0.14682(14) 0.89202(19)
H10 H 0.0577 0.1119 0.9106
C16 C 0.04894(17) 0.31327(14) 0.79505(19)
C17 C 0.01383(17) 0.34546(13) 0.72235(18)
N4 N 0.16882(13) 0.50331(11) 0.45802(14)
O6 O 0.04069(10) 0.59486(9) 0.43177(12)
N5 N 0.05753(14) 0.64097(11) 0.59981(15)
O4 O 0.95931(10) 0.40514(9) 0.56823(12)
N2 N 0.94247(14) 0.14097(11) 0.90019(15)
C8 C 0.89653(19) 0.18997(16) 0.8723(2)
H4 H 0.8385 0.1865 0.8773
C14 C 0.92910(19) 0.24571(16) 0.8365(2)
H9 H 0.8938 0.2793 0.8170
H11 H 0.9677 0.3273 0.6927
Cu2 Cu 0.893812(19) 0.066301(15) 0.96686(2)
Cu3 Cu 0.893812(19) 0.433699(15) 0.46686(2)
C1_2 C 0.28324(17) 0.06841(13) 0.85965(18)
C2_2 C 0.48699(18) 0.24763(14) 0.82923(18)
C3_2 C 0.49127(16) 0.06113(13) 0.61480(17)
C4_2 C 0.38762(17) 0.06891(13) 0.73708(18)
H1_2 H 0.3668 0.0284 0.7177
O2_2 O 0.47302(11) 0.00398(9) 0.60255(12)
O4_2 O 0.54069(10) 0.09486(9) 0.56823(12)
N2_2 N 0.55753(14) 0.35903(11) 0.90019(15)
C5_2 C 0.38210(17) 0.15987(13) 0.83717(19)
H2_2 H 0.3564 0.1824 0.8849
C6_2 C 0.45412(16) 0.09642(13) 0.69346(17)
C7_2 C 0.23658(16) 0.02005(14) 0.81973(19)
H3_2 H 0.2421 0.0114 0.7578
C8_2 C 0.60347(19) 0.31003(16) 0.8723(2)
H4_2 H 0.6615 0.3135 0.8773
C9_2 C 0.21042(18) 0.04600(14) 0.99439(19)
C10_2 C 0.26767(18) 0.08194(14) 0.94887(19)
H6_2 H 0.2964 0.1158 0.9782
C11_2 C 0.43907(17) 0.29919(14) 0.85807(18)
H7_2 H 0.3809 0.2969 0.8542
C12_2 C 0.35082(17) 0.10044(13) 0.80973(18)
C14_2 C 0.57090(19) 0.25429(16) 0.8365(2)
H9_2 H 0.6062 0.2207 0.8170
C15_2 C 0.47608(18) 0.35318(14) 0.89202(19)
H10_2 H 0.4423 0.3881 0.9106
C16_2 C 0.45106(17) 0.18673(14) 0.79505(19)
C17_2 C 0.48617(17) 0.15454(13) 0.72235(18)
H11_2 H 0.5323 0.1727 0.6927
Cu2_2 Cu 0.606188(19) 0.433699(15) 0.96686(2)
Cu3_2 Cu 0.606188(19) 0.066301(15) 0.46686(2)
Cu4_2 Cu 0.106188(19) 0.933699(15) 0.03314(2)
Cu1_2 Cu 0.393812(19) 0.933699(15) 0.53314(2)
O1_2 O 0.30571(11) 0.94172(9) 0.62815(12)
N1_2 N 0.16882(13) 0.99669(11) 0.95802(14)
O3_2 O 0.23690(14) 0.88126(11) 0.53551(15)
O5_2 O 0.17697(14) 0.91957(14) 0.65321(18)
N3_2 N 0.23777(15) 0.91346(13) 0.60546(17)
C13_2 C 0.18233(17) 0.98492(14) 0.87108(18)
H8_2 H 0.1530 0.9506 0.8436
N4_2 N 0.33118(13) 0.99669(11) 0.45802(14)
O6_2 O 0.45931(10) 0.90514(9) 0.43177(12)
N5_2 N 0.44247(14) 0.85903(11) 0.59981(15)
O4_3 O 0.04069(10) 0.90514(9) 0.93177(12)
C8_3 C 0.10347(19) 0.68997(16) 0.6277(2)
H4_3 H 0.1615 0.6865 0.6227
C14_3 C 0.07090(19) 0.74571(16) 0.6635(2)
H9_3 H 0.1062 0.7793 0.6830
H11_3 H 0.0323 0.8273 0.8073
N4_3 N 0.83118(13) 0.00331(11) 0.04198(14)
O6_3 O 0.95931(10) 0.09486(9) 0.06823(12)
O1_3 O 0.80571(11) 0.05828(9) 0.87185(12)
N1_3 N 0.66882(13) 0.00331(11) 0.54198(14)
O3_3 O 0.73690(14) 0.11874(11) 0.96449(15)
O5_3 O 0.67697(14) 0.08043(14) 0.84679(18)
N3_3 N 0.73777(15) 0.08654(13) 0.89454(17)
C13_3 C 0.68233(17) 0.01508(14) 0.62892(18)
H8_3 H 0.6530 0.0494 0.6564
N4_4 N 0.66882(13) 0.49669(11) 0.04198(14)
O6_4 O 0.54069(10) 0.40514(9) 0.06823(12)
C1_3 C 0.71676(17) 0.56841(13) 0.64035(18)
C2_3 C 0.51301(18) 0.74763(14) 0.67077(18)
C3_3 C 0.50873(16) 0.56113(13) 0.88520(17)
O1_4 O 0.69429(11) 0.44172(9) 0.87185(12)
C4_3 C 0.61238(17) 0.56891(13) 0.76292(18)
H1_3 H 0.6332 0.5284 0.7823
N1_4 N 0.83118(13) 0.49669(11) 0.54198(14)
O2_3 O 0.52698(11) 0.50398(9) 0.89745(12)
O3_4 O 0.76310(14) 0.38126(11) 0.96449(15)
O4_4 O 0.45931(10) 0.59486(9) 0.93177(12)
C5_3 C 0.61790(17) 0.65987(13) 0.66283(19)
H2_3 H 0.6436 0.6824 0.6151
C6_3 C 0.54588(16) 0.59642(13) 0.80654(17)
O5_4 O 0.82303(14) 0.41957(14) 0.84679(18)
N3_4 N 0.76223(15) 0.41346(13) 0.89454(17)
C7_3 C 0.76342(16) 0.52005(14) 0.68027(19)
H3_3 H 0.7579 0.5114 0.7422
C8_4 C 0.39653(19) 0.81003(16) 0.6277(2)
H4_4 H 0.3385 0.8135 0.6227
C9_3 C 0.78958(18) 0.54600(14) 0.50561(19)
H5_2 H 0.8003 0.5567 0.4451
C10_3 C 0.73233(18) 0.58194(14) 0.55113(19)
H6_3 H 0.7036 0.6158 0.5218
C11_3 C 0.56093(17) 0.79919(14) 0.64193(18)
H7_3 H 0.6191 0.7969 0.6458
C12_3 C 0.64918(17) 0.60044(13) 0.69027(18)
C13_4 C 0.81767(17) 0.48492(14) 0.62892(18)
H8_4 H 0.8470 0.4506 0.6564
C14_4 C 0.42910(19) 0.75429(16) 0.6635(2)
H9_4 H 0.3938 0.7207 0.6830
C15_3 C 0.52392(18) 0.85318(14) 0.60798(19)
H10_3 H 0.5577 0.8881 0.5894
C16_3 C 0.54894(17) 0.68673(14) 0.70495(19)
C17_3 C 0.51383(17) 0.65454(13) 0.77765(18)
H11_4 H 0.4677 0.6727 0.8073
N2_3 N 0.05753(14) 0.85903(11) 0.09981(15)
C8_5 C 0.10347(19) 0.81003(16) 0.1277(2)
H4_5 H 0.1615 0.8135 0.1227
C14_5 C 0.07090(19) 0.75429(16) 0.1635(2)
H9_5 H 0.1062 0.7207 0.1830
H11_5 H 0.0323 0.6727 0.3073
C1_4 C 0.78324(17) 0.56841(13) 0.14035(18)
C2_4 C 0.98699(18) 0.74763(14) 0.17077(18)
C3_4 C 0.99127(16) 0.56113(13) 0.38520(17)
O1_5 O 0.80571(11) 0.44172(9) 0.37185(12)
C4_4 C 0.88762(17) 0.56891(13) 0.26292(18)
H1_4 H 0.8668 0.5284 0.2823
O2_4 O 0.97302(11) 0.50398(9) 0.39745(12)
O3_5 O 0.73690(14) 0.38126(11) 0.46449(15)
C5_4 C 0.88210(17) 0.65987(13) 0.16283(19)
H2_4 H 0.8564 0.6824 0.1151
C6_4 C 0.95412(16) 0.59642(13) 0.30654(17)
O5_5 O 0.67697(14) 0.41957(14) 0.34679(18)
N3_5 N 0.73777(15) 0.41346(13) 0.39454(17)
C7_4 C 0.73658(16) 0.52005(14) 0.18027(19)
H3_4 H 0.7421 0.5114 0.2422
C9_4 C 0.71042(18) 0.54600(14) 0.00561(19)
C10_4 C 0.76767(18) 0.58194(14) 0.05113(19)
H6_4 H 0.7964 0.6158 0.0218
C11_4 C 0.93907(17) 0.79919(14) 0.14193(18)
H7_4 H 0.8809 0.7969 0.1458
C12_4 C 0.85082(17) 0.60044(13) 0.19027(18)
C13_5 C 0.68233(17) 0.48492(14) 0.12892(18)
H8_5 H 0.6530 0.4506 0.1564
C15_4 C 0.97608(18) 0.85318(14) 0.10798(19)
H10_4 H 0.9423 0.8881 0.0894
C16_4 C 0.95106(17) 0.68673(14) 0.20495(19)
C17_4 C 0.98617(17) 0.65454(13) 0.27765(18)
N5_3 N 0.94247(14) 0.35903(11) 0.40019(15)
H5_3 H 0.6997 0.5567 0.9451
O1_6 O 0.69429(11) 0.05828(9) 0.37185(12)
O3_6 O 0.76310(14) 0.11874(11) 0.46449(15)
O5_6 O 0.82303(14) 0.08043(14) 0.34679(18)
N3_6 N 0.76223(15) 0.08654(13) 0.39454(17)
C13_6 C 0.81767(17) 0.01508(14) 0.12892(18)
H8_6 H 0.8470 0.0494 0.1564
N5_4 N 0.55753(14) 0.14097(11) 0.40019(15)
C1_5 C 0.71676(17) 0.93159(13) 0.14035(18)
C2_5 C 0.51301(18) 0.75237(14) 0.17077(18)
C3_5 C 0.50873(16) 0.93887(13) 0.38520(17)
C4_5 C 0.61238(17) 0.93109(13) 0.26292(18)
H1_5 H 0.6332 0.9716 0.2823
O2_5 O 0.52698(11) 0.99602(9) 0.39745(12)
N2_4 N 0.44247(14) 0.64097(11) 0.09981(15)
C5_5 C 0.61790(17) 0.84013(13) 0.16283(19)
H2_5 H 0.6436 0.8176 0.1151
C6_5 C 0.54588(16) 0.90358(13) 0.30654(17)
C7_5 C 0.76342(16) 0.97995(14) 0.18027(19)
H3_5 H 0.7579 0.9886 0.2422
C8_6 C 0.39653(19) 0.68997(16) 0.1277(2)
H4_6 H 0.3385 0.6865 0.1227
C9_5 C 0.78958(18) 0.95400(14) 0.00561(19)
C10_5 C 0.73233(18) 0.91806(14) 0.05113(19)
H6_5 H 0.7036 0.8842 0.0218
C11_5 C 0.56093(17) 0.70081(14) 0.14193(18)
H7_5 H 0.6191 0.7031 0.1458
C12_5 C 0.64918(17) 0.89956(13) 0.19027(18)
C14_6 C 0.42910(19) 0.74571(16) 0.1635(2)
H9_6 H 0.3938 0.7793 0.1830
C15_5 C 0.52392(18) 0.64682(14) 0.10798(19)
H10_5 H 0.5577 0.6119 0.0894
C16_5 C 0.54894(17) 0.81327(14) 0.20495(19)
C17_5 C 0.51383(17) 0.84546(13) 0.27765(18)
H11_6 H 0.4677 0.8273 0.3073
O1_7 O 0.19429(11) 0.94172(9) 0.12815(12)
O3_7 O 0.26310(14) 0.88126(11) 0.03551(15)
O5_7 O 0.32303(14) 0.91957(14) 0.15321(18)
N3_7 N 0.26223(15) 0.91346(13) 0.10546(17)
C13_7 C 0.31767(17) 0.98492(14) 0.37108(18)
H8_7 H 0.3470 0.9506 0.3436
C8_7 C 0.89653(19) 0.31003(16) 0.3723(2)
H4_7 H 0.8385 0.3135 0.3773
C14_7 C 0.92910(19) 0.25429(16) 0.3365(2)
H9_7 H 0.8938 0.2207 0.3170
H11_7 H 0.9677 0.1727 0.1927
C1_6 C 0.28324(17) 0.43159(13) 0.35965(18)
C2_6 C 0.48699(18) 0.25237(14) 0.32923(18)
C3_6 C 0.49127(16) 0.43887(13) 0.11480(17)
O1_8 O 0.30571(11) 0.55828(9) 0.12815(12)
C4_6 C 0.38762(17) 0.43109(13) 0.23708(18)
H1_6 H 0.3668 0.4716 0.2177
O2_6 O 0.47302(11) 0.49602(9) 0.10255(12)
O3_8 O 0.23690(14) 0.61874(11) 0.03551(15)
C5_6 C 0.38210(17) 0.34013(13) 0.33717(19)
H2_6 H 0.3564 0.3176 0.3849
C6_6 C 0.45412(16) 0.40358(13) 0.19346(17)
O5_8 O 0.17697(14) 0.58043(14) 0.15321(18)
N3_8 N 0.23777(15) 0.58654(13) 0.10546(17)
C7_6 C 0.23658(16) 0.47995(14) 0.31973(19)
H3_6 H 0.2421 0.4886 0.2578
C8_8 C 0.60347(19) 0.18997(16) 0.3723(2)
H4_8 H 0.6615 0.1865 0.3773
C9_6 C 0.21042(18) 0.45400(14) 0.49439(19)
H5_4 H 0.1997 0.4433 0.5549
C10_6 C 0.26767(18) 0.41806(14) 0.44887(19)
H6_6 H 0.2964 0.3842 0.4782
C11_6 C 0.43907(17) 0.20081(14) 0.35807(18)
H7_6 H 0.3809 0.2031 0.3542
C12_6 C 0.35082(17) 0.39956(13) 0.30973(18)
C13_8 C 0.18233(17) 0.51508(14) 0.37108(18)
H8_8 H 0.1530 0.5494 0.3436
C14_8 C 0.57090(19) 0.24571(16) 0.3365(2)
H9_8 H 0.6062 0.2793 0.3170
C15_6 C 0.47608(18) 0.14682(14) 0.39202(19)
H10_6 H 0.4423 0.1119 0.4106
C16_6 C 0.45106(17) 0.31327(14) 0.29505(19)
C17_6 C 0.48617(17) 0.34546(13) 0.22235(18)
H11_8 H 0.5323 0.3273 0.1927
H5_5 H 0.1997 0.0567 0.0549
C1_7 C 0.78324(17) 0.93159(13) 0.64035(18)
C2_7 C 0.98699(18) 0.75237(14) 0.67077(18)
C3_7 C 0.99127(16) 0.93887(13) 0.88520(17)
C4_7 C 0.88762(17) 0.93109(13) 0.76292(18)
H1_7 H 0.8668 0.9716 0.7823
O2_7 O 0.97302(11) 0.99602(9) 0.89745(12)
C5_7 C 0.88210(17) 0.84013(13) 0.66283(19)
H2_7 H 0.8564 0.8176 0.6151
C6_7 C 0.95412(16) 0.90358(13) 0.80654(17)
C7_7 C 0.73658(16) 0.97995(14) 0.68027(19)
H3_7 H 0.7421 0.9886 0.7422
C9_7 C 0.71042(18) 0.95400(14) 0.50561(19)
H5_6 H 0.6997 0.9433 0.4451
C10_7 C 0.76767(18) 0.91806(14) 0.55113(19)
H6_7 H 0.7964 0.8842 0.5218
C11_7 C 0.93907(17) 0.70081(14) 0.64193(18)
H7_7 H 0.8809 0.7031 0.6458
C12_7 C 0.85082(17) 0.89956(13) 0.69027(18)
C15_7 C 0.97608(18) 0.64682(14) 0.60798(19)
H10_7 H 0.9423 0.6119 0.5894
C16_7 C 0.95106(17) 0.81327(14) 0.70495(19)
C17_7 C 0.98617(17) 0.84546(13) 0.77765(18)
H5_7 H 0.8003 0.9433 0.9451
C1_8 C 0.21676(17) 0.06841(13) 0.35965(18)
C2_8 C 0.01301(18) 0.24763(14) 0.32923(18)
C3_8 C 0.00873(16) 0.06113(13) 0.11480(17)
C4_8 C 0.11238(17) 0.06891(13) 0.23708(18)
H1_8 H 0.1332 0.0284 0.2177
O2_8 O 0.02698(11) 0.00398(9) 0.10255(12)
C5_8 C 0.11790(17) 0.15987(13) 0.33717(19)
H2_8 H 0.1436 0.1824 0.3849
C6_8 C 0.04588(16) 0.09642(13) 0.19346(17)
C7_8 C 0.26342(16) 0.02005(14) 0.31973(19)
H3_8 H 0.2579 0.0114 0.2578
C9_8 C 0.28958(18) 0.04600(14) 0.49439(19)
H5_8 H 0.3003 0.0567 0.5549
C10_8 C 0.23233(18) 0.08194(14) 0.44887(19)
H6_8 H 0.2036 0.1158 0.4782
C11_8 C 0.06093(17) 0.29919(14) 0.35807(18)
H7_8 H 0.1191 0.2969 0.3542
C12_8 C 0.14918(17) 0.10044(13) 0.30973(18)
C15_8 C 0.02392(18) 0.35318(14) 0.39202(19)
H10_8 H 0.0577 0.3881 0.4106
C16_8 C 0.04894(17) 0.18673(14) 0.29505(19)
C17_8 C 0.01383(17) 0.15454(13) 0.22235(18)
loop_
_geom_bond_atom_site_label_1
_geom_bond_atom_site_label_2
_geom_bond_site_symmetry_1
_geom_bond_site_symmetry_2
C1 C7 1_555 1_555
C2 C11 1_555 1_555
C3 O2 1_555 1_555
Cu1 O1 1_555 1_555
O1 N3 1_555 1_555
C4 H1 1_555 1_555
N1 C9 1_555 1_555
O2 Cu1 1_555 1_555
O3 Cu1 1_555 1_555
C5 H2 1_555 1_555
C6 C3 1_555 1_555
O5 N3 1_555 1_555
N3 O3 1_555 1_555
C7 H3 1_555 1_555
C10 C1 1_555 1_555
H6 C10 1_555 1_555
C11 H7 1_555 1_555
C12 C1 1_555 1_555
C13 N1 1_555 1_555
H8 C13 1_555 1_555
H10 C15 1_555 1_555
C16 C2 1_555 1_555
C17 C6 1_555 1_555
N4 Cu1 1_555 1_555
O6 Cu1 1_555 1_555
N5 Cu1 1_555 1_555
C4 C6 1_555 1_555
C4 C12 1_555 1_555
C5 C12 1_555 1_555
C5 C16 1_555 1_555
C7 C13 1_555 1_555
C9 C10 1_555 1_555
C11 C15 1_555 1_555
C16 C17 1_555 1_555
N2 C8 1_555 1_555
C8 H4 1_555 1_555
H9 C14 1_555 1_555
Cu2 N2 1_555 1_555
Cu3 O4 1_555 1_555
C8 C14 1_555 1_555
C1_2 C7_2 1_555 1_555
C2_2 C11_2 1_555 1_555
C3_2 O2_2 1_555 1_555
C4_2 H1_2 1_555 1_555
O4_2 C3_2 1_555 1_555
N2_2 C8_2 1_555 1_555
C5_2 H2_2 1_555 1_555
C6_2 C3_2 1_555 1_555
C7_2 H3_2 1_555 1_555
C8_2 H4_2 1_555 1_555
C10_2 C1_2 1_555 1_555
H6_2 C10_2 1_555 1_555
C11_2 H7_2 1_555 1_555
C12_2 C1_2 1_555 1_555
C14_2 C2_2 1_555 1_555
H9_2 C14_2 1_555 1_555
C15_2 N2_2 1_555 1_555
H10_2 C15_2 1_555 1_555
C16_2 C2_2 1_555 1_555
C17_2 C6_2 1_555 1_555
H11_2 C17_2 1_555 1_555
Cu2_2 N2_2 1_555 1_555
Cu3_2 O4_2 1_555 1_555
C4_2 C6_2 1_555 1_555
C4_2 C12_2 1_555 1_555
C5_2 C12_2 1_555 1_555
C5_2 C16_2 1_555 1_555
C8_2 C14_2 1_555 1_555
C9_2 C10_2 1_555 1_555
C11_2 C15_2 1_555 1_555
C16_2 C17_2 1_555 1_555
Cu1_2 O1_2 1_555 1_555
O1_2 N3_2 1_555 1_555
O3_2 Cu1_2 1_555 1_555
O5_2 N3_2 1_555 1_555
N3_2 O3_2 1_555 1_555
C13_2 N1_2 1_555 1_555
H8_2 C13_2 1_555 1_555
N4_2 Cu1_2 1_555 1_555
O6_2 Cu1_2 1_555 1_555
N5_2 Cu1_2 1_555 1_555
N5 C8_3 1_555 1_555
C8_3 H4_3 1_555 1_555
H9_3 C14_3 1_555 1_555
C8_3 C14_3 1_555 1_555
Cu2 O1_3 1_555 1_555
O1_3 N3_3 1_555 1_555
O3_3 Cu2 1_555 1_555
O5_3 N3_3 1_555 1_555
N3_3 O3_3 1_555 1_555
C13_3 N1_3 1_555 1_555
H8_3 C13_3 1_555 1_555
Cu3_2 N1_3 1_555 1_555
C1_3 C7_3 1_555 1_555
C2_3 C11_3 1_555 1_555
C3_3 O2_3 1_555 1_555
Cu2_2 O1_4 1_555 1_555
O1_4 N3_4 1_555 1_555
C4_3 H1_3 1_555 1_555
N1_4 C9_3 1_555 1_555
O2_3 Cu2_2 1_555 1_555
O3_4 Cu2_2 1_555 1_555
O4_4 C3_3 1_555 1_555
N5_2 C8_4 1_555 1_555
C5_3 H2_3 1_555 1_555
C6_3 C3_3 1_555 1_555
O5_4 N3_4 1_555 1_555
N3_4 O3_4 1_555 1_555
C7_3 H3_3 1_555 1_555
C8_4 H4_4 1_555 1_555
C9_3 H5_2 1_555 1_555
C10_3 C1_3 1_555 1_555
H6_3 C10_3 1_555 1_555
C11_3 H7_3 1_555 1_555
C12_3 C1_3 1_555 1_555
C13_4 N1_4 1_555 1_555
H8_4 C13_4 1_555 1_555
C14_4 C2_3 1_555 1_555
H9_4 C14_4 1_555 1_555
C15_3 N5_2 1_555 1_555
H10_3 C15_3 1_555 1_555
C16_3 C2_3 1_555 1_555
C17_3 C6_3 1_555 1_555
H11_4 C17_3 1_555 1_555
Cu3 N1_4 1_555 1_555
C4_3 C6_3 1_555 1_555
C4_3 C12_3 1_555 1_555
C5_3 C12_3 1_555 1_555
C5_3 C16_3 1_555 1_555
C7_3 C13_4 1_555 1_555
C8_4 C14_4 1_555 1_555
C9_3 C10_3 1_555 1_555
C11_3 C15_3 1_555 1_555
C16_3 C17_3 1_555 1_555
N2_3 C8_5 1_555 1_555
C8_5 H4_5 1_555 1_555
H9_5 C14_5 1_555 1_555
Cu4_2 N2_3 1_555 1_555
C8_5 C14_5 1_555 1_555
C1_4 C7_4 1_555 1_555
C2_4 C11_4 1_555 1_555
C3_4 O2_4 1_555 1_555
Cu3 O1_5 1_555 1_555
O1_5 N3_5 1_555 1_555
C4_4 H1_4 1_555 1_555
N4_4 C9_4 1_555 1_555
O2_4 Cu3 1_555 1_555
O3_5 Cu3 1_555 1_555
C5_4 H2_4 1_555 1_555
C6_4 C3_4 1_555 1_555
O5_5 N3_5 1_555 1_555
N3_5 O3_5 1_555 1_555
C7_4 H3_4 1_555 1_555
C10_4 C1_4 1_555 1_555
H6_4 C10_4 1_555 1_555
C11_4 H7_4 1_555 1_555
C12_4 C1_4 1_555 1_555
C13_5 N4_4 1_555 1_555
H8_5 C13_5 1_555 1_555
H10_4 C15_4 1_555 1_555
C16_4 C2_4 1_555 1_555
C17_4 C6_4 1_555 1_555
N5_3 Cu3 1_555 1_555
C4_4 C6_4 1_555 1_555
C4_4 C12_4 1_555 1_555
C5_4 C12_4 1_555 1_555
C5_4 C16_4 1_555 1_555
C7_4 C13_5 1_555 1_555
C9_4 C10_4 1_555 1_555
C11_4 C15_4 1_555 1_555
C16_4 C17_4 1_555 1_555
Cu3_2 O1_6 1_555 1_555
O1_6 N3_6 1_555 1_555
O3_6 Cu3_2 1_555 1_555
O5_6 N3_6 1_555 1_555
N3_6 O3_6 1_555 1_555
C13_6 N4_3 1_555 1_555
H8_6 C13_6 1_555 1_555
N5_4 Cu3_2 1_555 1_555
C1_5 C7_5 1_555 1_555
C2_5 C11_5 1_555 1_555
C3_5 O2_5 1_555 1_555
C4_5 H1_5 1_555 1_555
O6_2 C3_5 1_555 1_555
N2_4 C8_6 1_555 1_555
C5_5 H2_5 1_555 1_555
C6_5 C3_5 1_555 1_555
C7_5 H3_5 1_555 1_555
C8_6 H4_6 1_555 1_555
C10_5 C1_5 1_555 1_555
H6_5 C10_5 1_555 1_555
C11_5 H7_5 1_555 1_555
C12_5 C1_5 1_555 1_555
C14_6 C2_5 1_555 1_555
H9_6 C14_6 1_555 1_555
C15_5 N2_4 1_555 1_555
H10_5 C15_5 1_555 1_555
C16_5 C2_5 1_555 1_555
C17_5 C6_5 1_555 1_555
H11_6 C17_5 1_555 1_555
Cu4 N2_4 1_555 1_555
C4_5 C6_5 1_555 1_555
C4_5 C12_5 1_555 1_555
C5_5 C12_5 1_555 1_555
C5_5 C16_5 1_555 1_555
C8_6 C14_6 1_555 1_555
C9_5 C10_5 1_555 1_555
C11_5 C15_5 1_555 1_555
C16_5 C17_5 1_555 1_555
Cu4_2 O1_7 1_555 1_555
O1_7 N3_7 1_555 1_555
O3_7 Cu4_2 1_555 1_555
O5_7 N3_7 1_555 1_555
N3_7 O3_7 1_555 1_555
C13_7 N4_2 1_555 1_555
H8_7 C13_7 1_555 1_555
N5_3 C8_7 1_555 1_555
C8_7 H4_7 1_555 1_555
H9_7 C14_7 1_555 1_555
C8_7 C14_7 1_555 1_555
C1_6 C7_6 1_555 1_555
C2_6 C11_6 1_555 1_555
C3_6 O2_6 1_555 1_555
Cu4 O1_8 1_555 1_555
O1_8 N3_8 1_555 1_555
C4_6 H1_6 1_555 1_555
N4 C9_6 1_555 1_555
O2_6 Cu4 1_555 1_555
O3_8 Cu4 1_555 1_555
O6_4 C3_6 1_555 1_555
N5_4 C8_8 1_555 1_555
C5_6 H2_6 1_555 1_555
C6_6 C3_6 1_555 1_555
O5_8 N3_8 1_555 1_555
N3_8 O3_8 1_555 1_555
C7_6 H3_6 1_555 1_555
C8_8 H4_8 1_555 1_555
C9_6 H5_4 1_555 1_555
C10_6 C1_6 1_555 1_555
H6_6 C10_6 1_555 1_555
C11_6 H7_6 1_555 1_555
C12_6 C1_6 1_555 1_555
C13_8 N4 1_555 1_555
H8_8 C13_8 1_555 1_555
C14_8 C2_6 1_555 1_555
H9_8 C14_8 1_555 1_555
C15_6 N5_4 1_555 1_555
H10_6 C15_6 1_555 1_555
C16_6 C2_6 1_555 1_555
C17_6 C6_6 1_555 1_555
H11_8 C17_6 1_555 1_555
C4_6 C6_6 1_555 1_555
C4_6 C12_6 1_555 1_555
C5_6 C12_6 1_555 1_555
C5_6 C16_6 1_555 1_555
C7_6 C13_8 1_555 1_555
C8_8 C14_8 1_555 1_555
C9_6 C10_6 1_555 1_555
C11_6 C15_6 1_555 1_555
C16_6 C17_6 1_555 1_555
C1_7 C7_7 1_555 1_555
C2_7 C11_7 1_555 1_555
C3_7 O2_7 1_555 1_555
C4_7 H1_7 1_555 1_555
C5_7 H2_7 1_555 1_555
C6_7 C3_7 1_555 1_555
C7_7 H3_7 1_555 1_555
C9_7 H5_6 1_555 1_555
C10_7 C1_7 1_555 1_555
H6_7 C10_7 1_555 1_555
C11_7 H7_7 1_555 1_555
C12_7 C1_7 1_555 1_555
H10_7 C15_7 1_555 1_555
C16_7 C2_7 1_555 1_555
C17_7 C6_7 1_555 1_555
C4_7 C6_7 1_555 1_555
C4_7 C12_7 1_555 1_555
C5_7 C12_7 1_555 1_555
C5_7 C16_7 1_555 1_555
C9_7 C10_7 1_555 1_555
C11_7 C15_7 1_555 1_555
C16_7 C17_7 1_555 1_555
C1_8 C7_8 1_555 1_555
C2_8 C11_8 1_555 1_555
C3_8 O2_8 1_555 1_555
C4_8 H1_8 1_555 1_555
C5_8 H2_8 1_555 1_555
C6_8 C3_8 1_555 1_555
C7_8 H3_8 1_555 1_555
C9_8 H5_8 1_555 1_555
C10_8 C1_8 1_555 1_555
H6_8 C10_8 1_555 1_555
C11_8 H7_8 1_555 1_555
C12_8 C1_8 1_555 1_555
H10_8 C15_8 1_555 1_555
C16_8 C2_8 1_555 1_555
C17_8 C6_8 1_555 1_555
C4_8 C6_8 1_555 1_555
C4_8 C12_8 1_555 1_555
C5_8 C12_8 1_555 1_555
C5_8 C16_8 1_555 1_555
C9_8 C10_8 1_555 1_555
C11_8 C15_8 1_555 1_555
C16_8 C17_8 1_555 1_555

#END
