
###############################################################################
#
# This file contains modified crystal structure data generated from the
# MOF subset of the Cambridge Structural Database (CSD) v543 
# hosted by the Cambridge Crystallographic Data Centre (CCDC).
#
# This work is licensed under the Creative Commons
# Attribution-NonCommercial-ShareAlike 4.0 International License.
# To view a copy of this license, visit
# http://creativecommons.org/licenses/by-nc-sa/4.0/
# or send a letter to
# Creative Commons, PO Box 1866, Mountain View, CA 94042, USA.
#
# CIF created using the CSD Python API on 29 September 2022
# The structure has been converted into the P1 space group
# The structure has a 3D framework
# The original CSD entry EQOBUH is in the orthorhombic crystal system
# The framework has been calculated to contain at least 10.0% void space
# The void calculation uses a probe of radius 1.32A, grid spacing 0.4
#
###############################################################################

data_EQOBUH
_chemical_formula_moiety         '(C96 H96 Co12 N62)n'
_symmetry_cell_setting           triclinic
_symmetry_space_group_name_H-M   'P 1'
_symmetry_Int_Tables_number      1
_space_group_name_Hall           'P 1'
loop_
_symmetry_equiv_pos_site_id
_symmetry_equiv_pos_as_xyz
1 x,y,z
_cell_length_a                   18.513(4)
_cell_length_b                   24.368(5)
_cell_length_c                   9.2940(19)
_cell_angle_alpha                90
_cell_angle_beta                 90
_cell_angle_gamma                90
_cell_volume                     4192.75
loop_
_atom_site_label
_atom_site_type_symbol
_atom_site_fract_x
_atom_site_fract_y
_atom_site_fract_z
Co2 Co 0.29379(3) 0.06508(3) 0.27331(11)
N9 N 0.3953(2) 0.08687(19) 0.3100(5)
N10 N 0.2394(2) 0.1201(2) 0.1583(6)
N11 N 0.2460(3) 0.0521(2) 0.4616(6)
N1 N 0.2136(3) 0.0034(2) 0.6550(6)
C4 C 0.2026(5) 0.0578(3) 0.6832(11)
H4 H 0.1843 0.0721 0.7685
C5 C 0.2224(4) 0.0872(3) 0.5672(10)
H5 H 0.2205 0.1252 0.5597
C6 C 0.2390(3) 0.0025(3) 0.5210(8)
H12 H 0.2492 0.0297 0.9731
N7 N 0.2864(3) 0.9966(2) 0.1550(6)
C10 C 0.2974(5) 0.9422(3) 0.1832(11)
H10 H 0.3157 0.9279 0.2685
C11 C 0.2776(4) 0.9128(3) 0.0672(10)
H11 H 0.2795 0.8748 0.0597
C12 C 0.2610(3) 0.9975(3) 0.0210(8)
Co1 Co 0.20621(3) 0.93492(3) 0.77331(11)
N2 N 0.1047(2) 0.91313(19) 0.8100(5)
N3 N 0.0106(2) 0.8701(2) 0.9083(6)
C1 C 0.0450(3) 0.9245(3) 0.7291(8)
H1 H 0.0436 0.9463 0.6469
C3 C 0.0818(3) 0.8804(2) 0.9154(8)
H3 H 0.1119 0.8663 0.9864
H6 H 0.2508 0.9703 0.4731
N5 N 0.3547(2) 0.83687(19) 0.5600(5)
N6 N 0.2606(2) 0.8799(2) 0.6583(6)
C7 C 0.2950(3) 0.8255(3) 0.4791(8)
H7 H 0.2936 0.8037 0.3969
C8 C 0.2382(3) 0.8516(3) 0.5400(10)
H8 H 0.1910 0.8504 0.5061
C9 C 0.3318(3) 0.8696(2) 0.6654(8)
H9 H 0.3619 0.8837 0.7364
N8 N 0.2540(3) 0.9479(2) 0.9616(6)
Co5 Co 0.45621(3) 0.81508(3) 0.52331(11)
Co3 Co 0.95621(3) 0.81508(3) 0.02331(11)
C2 C 0.9882(3) 0.8984(3) 0.7900(10)
H2 H 0.9410 0.8996 0.7561
Co3_2 Co 0.04379(3) 0.18492(3) 0.02331(11)
C2_2 C 0.0118(3) 0.1016(3) 0.7900(10)
H2_2 H 0.0590 0.1004 0.7561
N7_2 N 0.7136(3) 0.0034(2) 0.1550(6)
C10_2 C 0.7026(5) 0.0578(3) 0.1832(11)
H10_2 H 0.6843 0.0721 0.2685
C11_2 C 0.7224(4) 0.0872(3) 0.0672(10)
H11_2 H 0.7205 0.1252 0.0597
C12_2 C 0.7390(3) 0.0025(3) 0.0210(8)
Co1_2 Co 0.79379(3) 0.06508(3) 0.77331(11)
N2_2 N 0.8953(2) 0.08687(19) 0.8100(5)
N3_2 N 0.9894(2) 0.1299(2) 0.9083(6)
C1_2 C 0.9550(3) 0.0755(3) 0.7291(8)
H1_2 H 0.9564 0.0537 0.6469
C3_2 C 0.9182(3) 0.1196(2) 0.9154(8)
H3_2 H 0.8881 0.1337 0.9864
H6_2 H 0.7492 0.0297 0.4731
N5_2 N 0.6453(2) 0.16313(19) 0.5600(5)
N6_2 N 0.7394(2) 0.1201(2) 0.6583(6)
C7_2 C 0.7050(3) 0.1745(3) 0.4791(8)
H7_2 H 0.7064 0.1963 0.3969
C8_2 C 0.7618(3) 0.1484(3) 0.5400(10)
H8_2 H 0.8090 0.1496 0.5061
C9_2 C 0.6682(3) 0.1304(2) 0.6654(8)
H9_2 H 0.6381 0.1163 0.7364
N8_2 N 0.7460(3) 0.0521(2) 0.9616(6)
Co5_2 Co 0.54379(3) 0.18492(3) 0.52331(11)
Co2_2 Co 0.70621(3) 0.93492(3) 0.27331(11)
N9_2 N 0.6047(2) 0.91313(19) 0.3100(5)
N10_2 N 0.7606(2) 0.8799(2) 0.1583(6)
N11_2 N 0.7540(3) 0.9479(2) 0.4616(6)
N1_2 N 0.7864(3) 0.9966(2) 0.6550(6)
C4_2 C 0.7974(5) 0.9422(3) 0.6832(11)
H4_2 H 0.8157 0.9279 0.7685
C5_2 C 0.7776(4) 0.9128(3) 0.5672(10)
H5_2 H 0.7795 0.8748 0.5597
C6_2 C 0.7610(3) 0.9975(3) 0.5210(8)
H12_2 H 0.7508 0.9703 0.9731
Co1_3 Co 0.45621(3) 0.31508(3) 0.02331(11)
N2_3 N 0.3547(2) 0.33687(19) 0.0600(5)
N3_3 N 0.2606(2) 0.3799(2) 0.1583(6)
C2_3 C 0.2382(3) 0.3516(3) 0.0400(10)
H2_3 H 0.1910 0.3504 0.0061
C3_3 C 0.3318(3) 0.3696(2) 0.1654(8)
H3_3 H 0.3619 0.3837 0.2364
H4_3 H 0.4343 0.1779 0.0185
N7_3 N 0.5364(3) 0.2534(2) 0.4050(6)
N8_3 N 0.5040(3) 0.3021(2) 0.2116(6)
C10_3 C 0.5474(5) 0.3078(3) 0.4332(11)
H10_3 H 0.5657 0.3221 0.5185
C11_3 C 0.5276(4) 0.3372(3) 0.3172(10)
H11_3 H 0.5295 0.3752 0.3097
C12_3 C 0.5110(3) 0.2525(3) 0.2710(8)
H12_3 H 0.4992 0.2203 0.2231
Co3_3 Co 0.20621(3) 0.43492(3) 0.27331(11)
N10_3 N 0.4894(2) 0.1299(2) 0.4083(6)
N11_3 N 0.4960(3) 0.1979(2) 0.7116(6)
N1_3 N 0.4636(3) 0.2466(2) 0.9050(6)
C1_3 C 0.2950(3) 0.3255(3) 0.9791(8)
H1_3 H 0.2936 0.3037 0.8969
C4_3 C 0.4526(5) 0.1922(3) 0.9332(11)
C5_3 C 0.4724(4) 0.1628(3) 0.8172(10)
H5_3 H 0.4705 0.1248 0.8097
C6_3 C 0.4890(3) 0.2475(3) 0.7710(8)
H6_3 H 0.5008 0.2797 0.7231
N5_3 N 0.6047(2) 0.41313(19) 0.8100(5)
N6_3 N 0.5106(2) 0.3701(2) 0.9083(6)
C7_3 C 0.5450(3) 0.4245(3) 0.7291(8)
H7_3 H 0.5436 0.4463 0.6469
C8_3 C 0.4882(3) 0.3984(3) 0.7900(10)
H8_3 H 0.4410 0.3996 0.7561
C9_3 C 0.5818(3) 0.3804(2) 0.9154(8)
H9_3 H 0.6119 0.3663 0.9864
Co5_3 Co 0.70621(3) 0.43492(3) 0.77331(11)
N2_4 N 0.1453(2) 0.16313(19) 0.0600(5)
C2_4 C 0.2618(3) 0.1484(3) 0.0400(10)
H2_4 H 0.3090 0.1496 0.0061
C3_4 C 0.1682(3) 0.1304(2) 0.1654(8)
H3_4 H 0.1381 0.1163 0.2364
H4_4 H 0.0657 0.3221 0.0185
H12_4 H 0.0008 0.2797 0.2231
N10_4 N 0.0106(2) 0.3701(2) 0.4083(6)
N11_4 N 0.0040(3) 0.3021(2) 0.7116(6)
N1_4 N 0.0364(3) 0.2534(2) 0.9050(6)
C1_4 C 0.2050(3) 0.1745(3) 0.9791(8)
H1_4 H 0.2064 0.1963 0.8969
C4_4 C 0.0474(5) 0.3078(3) 0.9332(11)
C5_4 C 0.0276(4) 0.3372(3) 0.8172(10)
H5_4 H 0.0295 0.3752 0.8097
C6_4 C 0.0110(3) 0.2525(3) 0.7710(8)
N7_4 N 0.9636(3) 0.2466(2) 0.4050(6)
N8_4 N 0.9960(3) 0.1979(2) 0.2116(6)
C10_4 C 0.9526(5) 0.1922(3) 0.4332(11)
H10_4 H 0.9343 0.1779 0.5185
C11_4 C 0.9724(4) 0.1628(3) 0.3172(10)
H11_4 H 0.9705 0.1248 0.3097
C12_4 C 0.9890(3) 0.2475(3) 0.2710(8)
Co2_3 Co 0.95621(3) 0.31508(3) 0.52331(11)
N9_3 N 0.8547(2) 0.33687(19) 0.5600(5)
H6_4 H 0.9992 0.2203 0.7231
N1_5 N 0.2136(3) 0.5034(2) 0.1550(6)
N2_5 N 0.1047(2) 0.41313(19) 0.3100(5)
C1_5 C 0.0450(3) 0.4245(3) 0.2291(8)
H1_5 H 0.0436 0.4463 0.1469
C3_5 C 0.0818(3) 0.3804(2) 0.4154(8)
H3_5 H 0.1119 0.3663 0.4864
C4_5 C 0.2026(5) 0.5578(3) 0.1832(11)
H4_5 H 0.1843 0.5721 0.2685
C5_5 C 0.2224(4) 0.5872(3) 0.0672(10)
H5_5 H 0.2205 0.6252 0.0597
C6_5 C 0.2390(3) 0.5025(3) 0.0210(8)
N7_5 N 0.2864(3) 0.4966(2) 0.6550(6)
N8_5 N 0.2540(3) 0.4479(2) 0.4616(6)
C10_5 C 0.2974(5) 0.4422(3) 0.6832(11)
H10_5 H 0.3157 0.4279 0.7685
C11_5 C 0.2776(4) 0.4128(3) 0.5672(10)
H11_5 H 0.2795 0.3748 0.5597
C12_5 C 0.2610(3) 0.4975(3) 0.5210(8)
H12_5 H 0.2492 0.5297 0.4731
Co2_4 Co 0.29379(3) 0.56508(3) 0.77331(11)
N9_4 N 0.3953(2) 0.58687(19) 0.8100(5)
N10_5 N 0.2394(2) 0.6201(2) 0.6583(6)
N11_5 N 0.2460(3) 0.5521(2) 0.9616(6)
H6_5 H 0.2508 0.4703 0.9731
C2_5 C 0.9882(3) 0.3984(3) 0.2900(10)
H2_5 H 0.9410 0.3996 0.2561
C2_6 C 0.0118(3) 0.6016(3) 0.2900(10)
H2_6 H 0.0590 0.6004 0.2561
Co3_4 Co 0.04379(3) 0.68492(3) 0.52331(11)
Co1_4 Co 0.79379(3) 0.56508(3) 0.27331(11)
N1_6 N 0.7864(3) 0.4966(2) 0.1550(6)
N2_6 N 0.8953(2) 0.58687(19) 0.3100(5)
N3_4 N 0.9894(2) 0.6299(2) 0.4083(6)
C1_6 C 0.9550(3) 0.5755(3) 0.2291(8)
H1_6 H 0.9564 0.5537 0.1469
C3_6 C 0.9182(3) 0.6196(2) 0.4154(8)
H3_6 H 0.8881 0.6337 0.4864
C4_6 C 0.7974(5) 0.4422(3) 0.1832(11)
H4_6 H 0.8157 0.4279 0.2685
C5_6 C 0.7776(4) 0.4128(3) 0.0672(10)
H5_6 H 0.7795 0.3748 0.0597
C6_6 C 0.7610(3) 0.4975(3) 0.0210(8)
N5_4 N 0.6453(2) 0.66313(19) 0.0600(5)
N6_4 N 0.7394(2) 0.6201(2) 0.1583(6)
C8_4 C 0.7618(3) 0.6484(3) 0.0400(10)
H8_4 H 0.8090 0.6496 0.0061
C9_4 C 0.6682(3) 0.6304(2) 0.1654(8)
H9_4 H 0.6381 0.6163 0.2364
N7_6 N 0.7136(3) 0.5034(2) 0.6550(6)
N8_6 N 0.7460(3) 0.5521(2) 0.4616(6)
C10_6 C 0.7026(5) 0.5578(3) 0.6832(11)
H10_6 H 0.6843 0.5721 0.7685
C11_6 C 0.7224(4) 0.5872(3) 0.5672(10)
H11_6 H 0.7205 0.6252 0.5597
C12_6 C 0.7390(3) 0.5025(3) 0.5210(8)
H12_6 H 0.7508 0.4703 0.4731
Co5_4 Co 0.54379(3) 0.68492(3) 0.02331(11)
N10_6 N 0.7606(2) 0.3799(2) 0.6583(6)
N11_6 N 0.7540(3) 0.4479(2) 0.9616(6)
H6_6 H 0.7492 0.5297 0.9731
C7_4 C 0.7050(3) 0.6745(3) 0.9791(8)
H7_4 H 0.7064 0.6963 0.8969
H10_7 H 0.5657 0.8221 0.0185
N11_7 N 0.4960(3) 0.6979(2) 0.2116(6)
N1_7 N 0.4636(3) 0.7466(2) 0.4050(6)
C4_7 C 0.4526(5) 0.6922(3) 0.4332(11)
H4_7 H 0.4343 0.6779 0.5185
C5_7 C 0.4724(4) 0.6628(3) 0.3172(10)
H5_7 H 0.4705 0.6248 0.3097
C6_7 C 0.4890(3) 0.7475(3) 0.2710(8)
H6_7 H 0.5008 0.7797 0.2231
N6_5 N 0.5106(2) 0.8701(2) 0.4083(6)
C7_5 C 0.5450(3) 0.9245(3) 0.2291(8)
H7_5 H 0.5436 0.9463 0.1469
C8_5 C 0.4882(3) 0.8984(3) 0.2900(10)
H8_5 H 0.4410 0.8996 0.2561
C9_5 C 0.5818(3) 0.8804(2) 0.4154(8)
H9_5 H 0.6119 0.8663 0.4864
N7_7 N 0.5364(3) 0.7534(2) 0.9050(6)
N8_7 N 0.5040(3) 0.8021(2) 0.7116(6)
C10_7 C 0.5474(5) 0.8078(3) 0.9332(11)
C11_7 C 0.5276(4) 0.8372(3) 0.8172(10)
H11_7 H 0.5295 0.8752 0.8097
C12_7 C 0.5110(3) 0.7525(3) 0.7710(8)
H12_7 H 0.4992 0.7203 0.7231
N10_7 N 0.4894(2) 0.6299(2) 0.9083(6)
N11_8 N 0.0040(3) 0.8021(2) 0.2116(6)
N1_8 N 0.0364(3) 0.7534(2) 0.4050(6)
N2_7 N 0.1453(2) 0.66313(19) 0.5600(5)
C1_7 C 0.2050(3) 0.6745(3) 0.4791(8)
H1_7 H 0.2064 0.6963 0.3969
C2_7 C 0.2618(3) 0.6484(3) 0.5400(10)
H2_7 H 0.3090 0.6496 0.5061
C3_7 C 0.1682(3) 0.6304(2) 0.6654(8)
H3_7 H 0.1381 0.6163 0.7364
C4_8 C 0.0474(5) 0.8078(3) 0.4332(11)
H4_8 H 0.0657 0.8221 0.5185
C5_8 C 0.0276(4) 0.8372(3) 0.3172(10)
H5_8 H 0.0295 0.8752 0.3097
C6_8 C 0.0110(3) 0.7525(3) 0.2710(8)
H12_8 H 0.0008 0.7797 0.7231
H10_8 H 0.9343 0.6779 0.0185
N9_5 N 0.8547(2) 0.83687(19) 0.0600(5)
H6_8 H 0.9992 0.7203 0.2231
N7_8 N 0.9636(3) 0.7466(2) 0.9050(6)
N8_8 N 0.9960(3) 0.6979(2) 0.7116(6)
C10_8 C 0.9526(5) 0.6922(3) 0.9332(11)
C11_8 C 0.9724(4) 0.6628(3) 0.8172(10)
H11_8 H 0.9705 0.6248 0.8097
C12_8 C 0.9890(3) 0.7475(3) 0.7710(8)
C8_6 C 0.7382(3) 0.8516(3) 0.0400(10)
H8_6 H 0.6910 0.8504 0.0061
C9_6 C 0.8318(3) 0.8696(2) 0.1654(8)
H9_6 H 0.8619 0.8837 0.2364
C7_6 C 0.7950(3) 0.8255(3) 0.9791(8)
H7_6 H 0.7936 0.8037 0.8969
C1_8 C 0.4550(3) 0.0755(3) 0.2291(8)
H1_8 H 0.4564 0.0537 0.1469
C2_8 C 0.5118(3) 0.1016(3) 0.2900(10)
H2_8 H 0.5590 0.1004 0.2561
C3_8 C 0.4182(3) 0.1196(2) 0.4154(8)
H3_8 H 0.3881 0.1337 0.4864
C1_9 C 0.7950(3) 0.3255(3) 0.4791(8)
H1_9 H 0.7936 0.3037 0.3969
C2_9 C 0.7382(3) 0.3516(3) 0.5400(10)
H2_9 H 0.6910 0.3504 0.5061
C3_9 C 0.8318(3) 0.3696(2) 0.6654(8)
H3_9 H 0.8619 0.3837 0.7364
C1_10 C 0.4550(3) 0.5755(3) 0.7291(8)
H1_10 H 0.4564 0.5537 0.6469
C2_10 C 0.5118(3) 0.6016(3) 0.7900(10)
H2_10 H 0.5590 0.6004 0.7561
C3_10 C 0.4182(3) 0.6196(2) 0.9154(8)
H3_10 H 0.3881 0.6337 0.9864
loop_
_geom_bond_atom_site_label_1
_geom_bond_atom_site_label_2
_geom_bond_site_symmetry_1
_geom_bond_site_symmetry_2
N9 Co2 1_555 1_555
N10 Co2 1_555 1_555
N11 Co2 1_555 1_555
N1 C4 1_555 1_555
N11 C5 1_555 1_555
C4 H4 1_555 1_555
C5 C4 1_555 1_555
H5 C5 1_555 1_555
C6 N1 1_555 1_555
N11 C6 1_555 1_555
N7 C10 1_555 1_555
C10 H10 1_555 1_555
H11 C11 1_555 1_555
C12 N7 1_555 1_555
C10 C11 1_555 1_555
N2 Co1 1_555 1_555
C1 N2 1_555 1_555
H1 C1 1_555 1_555
C3 N2 1_555 1_555
H3 C3 1_555 1_555
N5 C7 1_555 1_555
N6 Co1 1_555 1_555
C7 H7 1_555 1_555
C8 N6 1_555 1_555
H8 C8 1_555 1_555
C9 N5 1_555 1_555
H9 C9 1_555 1_555
N8 Co1 1_555 1_555
Co5 N5 1_555 1_555
N3 C3 1_555 1_555
N6 C9 1_555 1_555
C7 C8 1_555 1_555
H2 C2 1_555 1_555
H2_2 C2_2 1_555 1_555
N7_2 C10_2 1_555 1_555
C10_2 H10_2 1_555 1_555
H11_2 C11_2 1_555 1_555
C12_2 N7_2 1_555 1_555
C10_2 C11_2 1_555 1_555
N2_2 Co1_2 1_555 1_555
C1_2 N2_2 1_555 1_555
H1_2 C1_2 1_555 1_555
C3_2 N2_2 1_555 1_555
H3_2 C3_2 1_555 1_555
N5_2 C7_2 1_555 1_555
N6_2 Co1_2 1_555 1_555
C7_2 H7_2 1_555 1_555
C8_2 N6_2 1_555 1_555
H8_2 C8_2 1_555 1_555
C9_2 N5_2 1_555 1_555
H9_2 C9_2 1_555 1_555
N8_2 Co1_2 1_555 1_555
Co5_2 N5_2 1_555 1_555
N3_2 C3_2 1_555 1_555
N6_2 C9_2 1_555 1_555
C7_2 C8_2 1_555 1_555
N9_2 Co2_2 1_555 1_555
N10_2 Co2_2 1_555 1_555
N11_2 Co2_2 1_555 1_555
N1_2 C4_2 1_555 1_555
N11_2 C5_2 1_555 1_555
C4_2 H4_2 1_555 1_555
C5_2 C4_2 1_555 1_555
H5_2 C5_2 1_555 1_555
C6_2 N1_2 1_555 1_555
N11_2 C6_2 1_555 1_555
N2_3 Co1_3 1_555 1_555
N3_3 C2_3 1_555 1_555
H2_3 C2_3 1_555 1_555
C3_3 N2_3 1_555 1_555
H3_3 C3_3 1_555 1_555
N7_3 C10_3 1_555 1_555
N8_3 Co1_3 1_555 1_555
C10_3 H10_3 1_555 1_555
C11_3 N8_3 1_555 1_555
H11_3 C11_3 1_555 1_555
C12_3 N7_3 1_555 1_555
H12_3 C12_3 1_555 1_555
Co5_2 N7_3 1_555 1_555
Co3_3 N3_3 1_555 1_555
N10_3 Co5_2 1_555 1_555
N11_3 Co5_2 1_555 1_555
N3_3 C3_3 1_555 1_555
N8_3 C12_3 1_555 1_555
C10_3 C11_3 1_555 1_555
N1_3 C4_3 1_555 1_555
N11_3 C5_3 1_555 1_555
H1_3 C1_3 1_555 1_555
C5_3 C4_3 1_555 1_555
H5_3 C5_3 1_555 1_555
C6_3 N1_3 1_555 1_555
H6_3 C6_3 1_555 1_555
N5_3 C7_3 1_555 1_555
C7_3 H7_3 1_555 1_555
C8_3 N6_3 1_555 1_555
H8_3 C8_3 1_555 1_555
C9_3 N5_3 1_555 1_555
H9_3 C9_3 1_555 1_555
Co5_3 N5_3 1_555 1_555
N11_3 C6_3 1_555 1_555
N6_3 C9_3 1_555 1_555
C7_3 C8_3 1_555 1_555
N2_4 Co3_2 1_555 1_555
N10 C2_4 1_555 1_555
H2_4 C2_4 1_555 1_555
C3_4 N2_4 1_555 1_555
H3_4 C3_4 1_555 1_555
N10 C3_4 1_555 1_555
N1_4 C4_4 1_555 1_555
N11_4 C5_4 1_555 1_555
H1_4 C1_4 1_555 1_555
C5_4 C4_4 1_555 1_555
H5_4 C5_4 1_555 1_555
C6_4 N1_4 1_555 1_555
N11_4 C6_4 1_555 1_555
N7_4 C10_4 1_555 1_555
C10_4 H10_4 1_555 1_555
C11_4 N8_4 1_555 1_555
H11_4 C11_4 1_555 1_555
C12_4 N7_4 1_555 1_555
Co2_3 N7_4 1_555 1_555
N9_3 Co2_3 1_555 1_555
N8_4 C12_4 1_555 1_555
C10_4 C11_4 1_555 1_555
Co3_3 N1_5 1_555 1_555
N1_5 C4_5 1_555 1_555
N2_5 Co3_3 1_555 1_555
C1_5 N2_5 1_555 1_555
H1_5 C1_5 1_555 1_555
C3_5 N2_5 1_555 1_555
H3_5 C3_5 1_555 1_555
C4_5 H4_5 1_555 1_555
C5_5 C4_5 1_555 1_555
H5_5 C5_5 1_555 1_555
C6_5 N1_5 1_555 1_555
N7_5 C10_5 1_555 1_555
N8_5 Co3_3 1_555 1_555
C10_5 H10_5 1_555 1_555
C11_5 N8_5 1_555 1_555
H11_5 C11_5 1_555 1_555
C12_5 N7_5 1_555 1_555
H12_5 C12_5 1_555 1_555
Co2_4 N7_5 1_555 1_555
N9_4 Co2_4 1_555 1_555
N10_5 Co2_4 1_555 1_555
N11_5 Co2_4 1_555 1_555
N10_4 C3_5 1_555 1_555
N8_5 C12_5 1_555 1_555
C10_5 C11_5 1_555 1_555
H2_5 C2_5 1_555 1_555
H2_6 C2_6 1_555 1_555
Co1_4 N1_6 1_555 1_555
N1_6 C4_6 1_555 1_555
N2_6 Co1_4 1_555 1_555
C1_6 N2_6 1_555 1_555
H1_6 C1_6 1_555 1_555
C3_6 N2_6 1_555 1_555
H3_6 C3_6 1_555 1_555
C4_6 H4_6 1_555 1_555
C5_6 C4_6 1_555 1_555
H5_6 C5_6 1_555 1_555
C6_6 N1_6 1_555 1_555
N6_4 Co1_4 1_555 1_555
C8_4 N6_4 1_555 1_555
H8_4 C8_4 1_555 1_555
C9_4 N5_4 1_555 1_555
H9_4 C9_4 1_555 1_555
N7_6 C10_6 1_555 1_555
N8_6 Co1_4 1_555 1_555
C10_6 H10_6 1_555 1_555
C11_6 N8_6 1_555 1_555
H11_6 C11_6 1_555 1_555
C12_6 N7_6 1_555 1_555
H12_6 C12_6 1_555 1_555
Co5_3 N7_6 1_555 1_555
Co5_4 N5_4 1_555 1_555
N10_6 Co5_3 1_555 1_555
N11_6 Co5_3 1_555 1_555
N3_4 C3_6 1_555 1_555
N6_4 C9_4 1_555 1_555
N8_6 C12_6 1_555 1_555
C10_6 C11_6 1_555 1_555
C7_4 H7_4 1_555 1_555
N11_7 Co5_4 1_555 1_555
Co5 N1_7 1_555 1_555
N1_7 C4_7 1_555 1_555
N11_7 C5_7 1_555 1_555
C4_7 H4_7 1_555 1_555
C5_7 C4_7 1_555 1_555
H5_7 C5_7 1_555 1_555
C6_7 N1_7 1_555 1_555
H6_7 C6_7 1_555 1_555
N9_2 C7_5 1_555 1_555
N6_5 Co5 1_555 1_555
C7_5 H7_5 1_555 1_555
C8_5 N6_5 1_555 1_555
H8_5 C8_5 1_555 1_555
C9_5 N9_2 1_555 1_555
H9_5 C9_5 1_555 1_555
N7_7 C10_7 1_555 1_555
N8_7 Co5 1_555 1_555
C11_7 N8_7 1_555 1_555
H11_7 C11_7 1_555 1_555
C12_7 N7_7 1_555 1_555
H12_7 C12_7 1_555 1_555
N11_7 C6_7 1_555 1_555
N6_5 C9_5 1_555 1_555
C7_5 C8_5 1_555 1_555
N8_7 C12_7 1_555 1_555
C10_7 C11_7 1_555 1_555
Co3_4 N1_8 1_555 1_555
N1_8 C4_8 1_555 1_555
N2_7 Co3_4 1_555 1_555
N10_5 C2_7 1_555 1_555
N11_8 C5_8 1_555 1_555
C1_7 N2_7 1_555 1_555
H1_7 C1_7 1_555 1_555
C2_7 C1_7 1_555 1_555
H2_7 C2_7 1_555 1_555
C3_7 N2_7 1_555 1_555
H3_7 C3_7 1_555 1_555
C4_8 H4_8 1_555 1_555
C5_8 C4_8 1_555 1_555
H5_8 C5_8 1_555 1_555
C6_8 N1_8 1_555 1_555
N10_5 C3_7 1_555 1_555
N11_8 C6_8 1_555 1_555
N9_5 Co3 1_555 1_555
N7_8 C10_8 1_555 1_555
C11_8 N8_8 1_555 1_555
H11_8 C11_8 1_555 1_555
C12_8 N7_8 1_555 1_555
N8_8 C12_8 1_555 1_555
C10_8 C11_8 1_555 1_555
C8_6 N10_2 1_555 1_555
H8_6 C8_6 1_555 1_555
C9_6 N9_5 1_555 1_555
H9_6 C9_6 1_555 1_555
N10_2 C9_6 1_555 1_555
C7_6 H7_6 1_555 1_555
N10_3 C2_8 1_555 1_555
C1_8 N9 1_555 1_555
H1_8 C1_8 1_555 1_555
C2_8 C1_8 1_555 1_555
H2_8 C2_8 1_555 1_555
C3_8 N9 1_555 1_555
H3_8 C3_8 1_555 1_555
N10_3 C3_8 1_555 1_555
N10_6 C2_9 1_555 1_555
C1_9 N9_3 1_555 1_555
H1_9 C1_9 1_555 1_555
C2_9 C1_9 1_555 1_555
H2_9 C2_9 1_555 1_555
C3_9 N9_3 1_555 1_555
H3_9 C3_9 1_555 1_555
N10_6 C3_9 1_555 1_555
N10_7 C2_10 1_555 1_555
C1_10 N9_4 1_555 1_555
H1_10 C1_10 1_555 1_555
C2_10 C1_10 1_555 1_555
H2_10 C2_10 1_555 1_555
C3_10 N9_4 1_555 1_555
H3_10 C3_10 1_555 1_555
N10_7 C3_10 1_555 1_555

#END
