
###############################################################################
#
# This file contains modified crystal structure data generated from the
# MOF subset of the Cambridge Structural Database (CSD) v543 
# hosted by the Cambridge Crystallographic Data Centre (CCDC).
#
# This work is licensed under the Creative Commons
# Attribution-NonCommercial-ShareAlike 4.0 International License.
# To view a copy of this license, visit
# http://creativecommons.org/licenses/by-nc-sa/4.0/
# or send a letter to
# Creative Commons, PO Box 1866, Mountain View, CA 94042, USA.
#
# CIF created using the CSD Python API on 29 September 2022
# The structure has been converted into the P1 space group
# The structure has a 3D framework
# The original CSD entry EQOCES is in the orthorhombic crystal system
# The framework has been calculated to contain at least 10.0% void space
# The void calculation uses a probe of radius 1.32A, grid spacing 0.4
#
###############################################################################

data_EQOCES
_chemical_formula_moiety         '(C96 H96 Co12 N62)n'
_symmetry_cell_setting           triclinic
_symmetry_space_group_name_H-M   'P 1'
_symmetry_Int_Tables_number      1
_space_group_name_Hall           'P 1'
loop_
_symmetry_equiv_pos_site_id
_symmetry_equiv_pos_as_xyz
1 x,y,z
_cell_length_a                   17.635(4)
_cell_length_b                   27.706(6)
_cell_length_c                   9.0810(18)
_cell_angle_alpha                90
_cell_angle_beta                 90
_cell_angle_gamma                90
_cell_volume                     4436.93
loop_
_atom_site_label
_atom_site_type_symbol
_atom_site_fract_x
_atom_site_fract_y
_atom_site_fract_z
C9 C 0.0034(3) 0.1173(2) 0.6926(9)
H9 H 0.0520 0.1209 0.6543
Co2 Co 0.03504(3) 0.18698(2) 0.93559(12)
N9 N 0.1357(2) 0.15662(15) 0.9713(5)
N10 N 0.0445(2) 0.24644(16) 0.8107(6)
C12 C 0.6738(4) 0.0406(2) 0.0865(8)
H12 H 0.6457 0.0493 0.1690
N11 N 0.9834(3) 0.20534(16) 0.1237(5)
Co1 Co 0.78504(3) 0.06302(2) 0.68559(12)
N1 N 0.7258(2) 0.10966(16) 0.5656(6)
C1 C 0.6547(3) 0.12523(18) 0.5746(7)
H1 H 0.6212 0.1149 0.6473
N2 N 0.6357(2) 0.15662(15) 0.4713(5)
C2 C 0.6995(4) 0.1610(3) 0.3875(9)
H2 H 0.7046 0.1806 0.3050
C3 C 0.7534(3) 0.1327(2) 0.4426(9)
H3 H 0.8020 0.1291 0.4043
N3 N 0.7945(2) 0.00356(16) 0.5607(6)
H4 H 0.7316 0.0235 0.3933
N5 N 0.9758(2) 0.14034(16) 0.8156(6)
C7 C 0.9047(3) 0.12477(18) 0.8246(7)
H7 H 0.8712 0.1351 0.8973
N6 N 0.8857(2) 0.09338(15) 0.7213(5)
C8 C 0.9495(4) 0.0890(3) 0.6375(9)
H8 H 0.9546 0.0694 0.5550
C10 C 0.7405(3) 0.0013(2) 0.9360(8)
N8 N 0.7334(3) 0.04466(16) 0.8737(5)
C11 C 0.6904(6) 0.0692(2) 0.9705(9)
H11 H 0.6746 0.1010 0.9593
Co3 Co 0.53504(3) 0.18698(2) 0.43559(12)
N7 N 0.7055(2) 0.99644(16) 0.0607(6)
Co5 Co 0.71496(3) 0.93698(2) 0.18559(12)
C4 C 0.7595(3) 0.9987(2) 0.4360(8)
N4 N 0.7666(3) 0.95534(16) 0.3737(5)
C5 C 0.8096(6) 0.9308(2) 0.4705(9)
H5 H 0.8254 0.8990 0.4593
C6 C 0.8262(4) 0.9594(2) 0.5865(8)
H6 H 0.8543 0.9507 0.6690
H10 H 0.7684 0.9765 0.8933
N7_2 N 0.2945(2) 0.00356(16) 0.0607(6)
Co5_2 Co 0.28504(3) 0.06302(2) 0.18559(12)
C4_2 C 0.2405(3) 0.0013(2) 0.4360(8)
N4_2 N 0.2334(3) 0.04466(16) 0.3737(5)
C5_2 C 0.1904(6) 0.0692(2) 0.4705(9)
H5_2 H 0.1746 0.1010 0.4593
C6_2 C 0.1738(4) 0.0406(2) 0.5865(8)
H6_2 H 0.1457 0.0493 0.6690
H10_2 H 0.2316 0.0235 0.8933
C12_2 C 0.3262(4) 0.9594(2) 0.0865(8)
H12_2 H 0.3543 0.9507 0.1690
N11_2 N 0.0166(3) 0.79466(16) 0.1237(5)
Co1_2 Co 0.21496(3) 0.93698(2) 0.68559(12)
N1_2 N 0.2742(2) 0.89034(16) 0.5656(6)
C1_2 C 0.3453(3) 0.87477(18) 0.5746(7)
H1_2 H 0.3788 0.8851 0.6473
N2_2 N 0.3643(2) 0.84338(15) 0.4713(5)
C2_2 C 0.3005(4) 0.8390(3) 0.3875(9)
H2_2 H 0.2954 0.8194 0.3050
C3_2 C 0.2466(3) 0.8673(2) 0.4426(9)
H3_2 H 0.1980 0.8709 0.4043
N3_2 N 0.2055(2) 0.99644(16) 0.5607(6)
H4_2 H 0.2684 0.9765 0.3933
N5_2 N 0.0242(2) 0.85966(16) 0.8156(6)
C7_2 C 0.0953(3) 0.87523(18) 0.8246(7)
H7_2 H 0.1288 0.8649 0.8973
N6_2 N 0.1143(2) 0.90662(15) 0.7213(5)
C8_2 C 0.0505(4) 0.9110(3) 0.6375(9)
H8_2 H 0.0454 0.9306 0.5550
C10_2 C 0.2595(3) 0.9987(2) 0.9360(8)
N8_2 N 0.2666(3) 0.95534(16) 0.8737(5)
C11_2 C 0.3096(6) 0.9308(2) 0.9705(9)
H11_2 H 0.3254 0.8990 0.9593
Co3_2 Co 0.46496(3) 0.81302(2) 0.43559(12)
C9_2 C 0.9966(3) 0.8827(2) 0.6926(9)
H9_2 H 0.9480 0.8791 0.6543
Co2_2 Co 0.96496(3) 0.81302(2) 0.93559(12)
N9_2 N 0.8643(2) 0.84338(15) 0.9713(5)
N10_2 N 0.9555(2) 0.75356(16) 0.8107(6)
N5_3 N 0.2258(2) 0.10966(16) 0.0656(6)
C7_3 C 0.1547(3) 0.12523(18) 0.0746(7)
H7_3 H 0.1212 0.1149 0.1473
H10_3 H 0.0184 0.2735 0.1433
N9_3 N 0.3857(2) 0.09338(15) 0.2213(5)
C4_3 C 0.0095(3) 0.2513(2) 0.6860(8)
N4_3 N 0.0166(3) 0.29466(16) 0.6237(5)
C5_3 C 0.0596(6) 0.3192(2) 0.7205(9)
H5_3 H 0.0754 0.3510 0.7093
C6_3 C 0.0762(4) 0.2906(2) 0.8365(8)
H6_3 H 0.1043 0.2993 0.9190
C8_3 C 0.1995(4) 0.1610(3) 0.8875(9)
H8_3 H 0.2046 0.1806 0.8050
C9_3 C 0.2534(3) 0.1327(2) 0.9426(9)
H9_3 H 0.3020 0.1291 0.9043
N7_3 N 0.9555(2) 0.25356(16) 0.3107(6)
C10_3 C 0.9905(3) 0.2487(2) 0.1860(8)
C11_3 C 0.9404(6) 0.1808(2) 0.2205(9)
H11_3 H 0.9246 0.1490 0.2093
C12_3 C 0.9238(4) 0.2094(2) 0.3365(8)
H12_3 H 0.8957 0.2007 0.4190
Co5_3 Co 0.96496(3) 0.31302(2) 0.43559(12)
H4_3 H 0.9816 0.2265 0.6433
N5_4 N 0.2742(2) 0.39034(16) 0.0656(6)
C7_4 C 0.3453(3) 0.37477(18) 0.0746(7)
H7_4 H 0.3788 0.3851 0.1473
N7_4 N 0.5445(2) 0.24644(16) 0.3107(6)
C10_4 C 0.5095(3) 0.2513(2) 0.1860(8)
H10_4 H 0.4816 0.2265 0.1433
N8_3 N 0.5166(3) 0.29466(16) 0.1237(5)
C11_4 C 0.5596(6) 0.3192(2) 0.2205(9)
H11_4 H 0.5754 0.3510 0.2093
C12_4 C 0.5762(4) 0.2906(2) 0.3365(8)
H12_4 H 0.6043 0.2993 0.4190
Co2_3 Co 0.21496(3) 0.43698(2) 0.18559(12)
N9_4 N 0.1143(2) 0.40662(15) 0.2213(5)
N10_3 N 0.2055(2) 0.49644(16) 0.0607(6)
N11_3 N 0.2666(3) 0.45534(16) 0.3737(5)
Co1_3 Co 0.46496(3) 0.31302(2) 0.93559(12)
N1_3 N 0.5242(2) 0.35966(16) 0.8156(6)
C1_3 C 0.5953(3) 0.37523(18) 0.8246(7)
H1_3 H 0.6288 0.3649 0.8973
N2_3 N 0.6143(2) 0.40662(15) 0.7213(5)
C2_3 C 0.5505(4) 0.4110(3) 0.6375(9)
H2_3 H 0.5454 0.4306 0.5550
C3_3 C 0.4966(3) 0.3827(2) 0.6926(9)
H3_3 H 0.4480 0.3791 0.6543
N3_3 N 0.4555(2) 0.25356(16) 0.8107(6)
C4_4 C 0.4905(3) 0.2487(2) 0.6860(8)
H4_4 H 0.5184 0.2735 0.6433
N4_4 N 0.4834(3) 0.20534(16) 0.6237(5)
C5_4 C 0.4404(6) 0.1808(2) 0.7205(9)
H5_4 H 0.4246 0.1490 0.7093
C6_4 C 0.4238(4) 0.2094(2) 0.8365(8)
H6_4 H 0.3957 0.2007 0.9190
N6_3 N 0.3643(2) 0.34338(15) 0.9713(5)
C8_4 C 0.3005(4) 0.3390(3) 0.8875(9)
H8_4 H 0.2954 0.3194 0.8050
C9_4 C 0.2466(3) 0.3673(2) 0.9426(9)
H9_4 H 0.1980 0.3709 0.9043
Co3_3 Co 0.71496(3) 0.43698(2) 0.68559(12)
C9_5 C 0.0034(3) 0.6173(2) 0.1926(9)
H9_5 H 0.0520 0.6209 0.1543
Co2_4 Co 0.03504(3) 0.68698(2) 0.43559(12)
N9_5 N 0.1357(2) 0.65662(15) 0.4713(5)
N10_4 N 0.0445(2) 0.74644(16) 0.3107(6)
Co1_4 Co 0.78504(3) 0.56302(2) 0.18559(12)
N1_4 N 0.7258(2) 0.60966(16) 0.0656(6)
C1_4 C 0.6547(3) 0.62523(18) 0.0746(7)
H1_4 H 0.6212 0.6149 0.1473
N3_4 N 0.7945(2) 0.50356(16) 0.0607(6)
C6_5 C 0.8262(4) 0.4594(2) 0.0865(8)
H6_5 H 0.8543 0.4507 0.1690
N5_5 N 0.9758(2) 0.64034(16) 0.3156(6)
C7_5 C 0.9047(3) 0.62477(18) 0.3246(7)
H7_5 H 0.8712 0.6351 0.3973
N6_4 N 0.8857(2) 0.59338(15) 0.2213(5)
C8_5 C 0.9495(4) 0.5890(3) 0.1375(9)
H8_5 H 0.9546 0.5694 0.0550
N7_5 N 0.7055(2) 0.49644(16) 0.5607(6)
C10_5 C 0.7405(3) 0.5013(2) 0.4360(8)
H10_5 H 0.7684 0.4765 0.3933
N8_4 N 0.7334(3) 0.54466(16) 0.3737(5)
C11_5 C 0.6904(6) 0.5692(2) 0.4705(9)
H11_5 H 0.6746 0.6010 0.4593
C12_5 C 0.6738(4) 0.5406(2) 0.5865(8)
H12_5 H 0.6457 0.5493 0.6690
N11_4 N 0.9834(3) 0.70534(16) 0.6237(5)
N2_4 N 0.6357(2) 0.65662(15) 0.9713(5)
C2_4 C 0.6995(4) 0.6610(3) 0.8875(9)
H2_4 H 0.7046 0.6806 0.8050
C3_4 C 0.7534(3) 0.6327(2) 0.9426(9)
H3_4 H 0.8020 0.6291 0.9043
C4_5 C 0.7595(3) 0.4987(2) 0.9360(8)
H4_5 H 0.7316 0.5235 0.8933
N4_5 N 0.7666(3) 0.45534(16) 0.8737(5)
C5_5 C 0.8096(6) 0.4308(2) 0.9705(9)
H5_5 H 0.8254 0.3990 0.9593
Co3_4 Co 0.53504(3) 0.68698(2) 0.93559(12)
C6_6 C 0.1738(4) 0.5406(2) 0.0865(8)
H6_6 H 0.1457 0.5493 0.1690
N5_6 N 0.0242(2) 0.35966(16) 0.3156(6)
C7_6 C 0.0953(3) 0.37523(18) 0.3246(7)
H7_6 H 0.1288 0.3649 0.3973
C8_6 C 0.0505(4) 0.4110(3) 0.1375(9)
H8_6 H 0.0454 0.4306 0.0550
N7_6 N 0.2945(2) 0.50356(16) 0.5607(6)
C10_6 C 0.2595(3) 0.4987(2) 0.4360(8)
H10_6 H 0.2316 0.5235 0.3933
C11_6 C 0.3096(6) 0.4308(2) 0.4705(9)
H11_6 H 0.3254 0.3990 0.4593
C12_6 C 0.3262(4) 0.4594(2) 0.5865(8)
H12_6 H 0.3543 0.4507 0.6690
Co5_4 Co 0.28504(3) 0.56302(2) 0.68559(12)
C4_6 C 0.2405(3) 0.5013(2) 0.9360(8)
H4_6 H 0.2684 0.4765 0.8933
N4_6 N 0.2334(3) 0.54466(16) 0.8737(5)
C5_6 C 0.1904(6) 0.5692(2) 0.9705(9)
H5_6 H 0.1746 0.6010 0.9593
C9_6 C 0.9966(3) 0.3827(2) 0.1926(9)
H9_6 H 0.9480 0.3791 0.1543
N9_6 N 0.8643(2) 0.34338(15) 0.4713(5)
C4_7 C 0.0095(3) 0.7513(2) 0.1860(8)
C5_7 C 0.0596(6) 0.8192(2) 0.2205(9)
H5_7 H 0.0754 0.8510 0.2093
C6_7 C 0.0762(4) 0.7906(2) 0.3365(8)
H6_7 H 0.1043 0.7993 0.4190
N5_7 N 0.2258(2) 0.60966(16) 0.5656(6)
C7_7 C 0.1547(3) 0.62523(18) 0.5746(7)
H7_7 H 0.1212 0.6149 0.6473
C8_7 C 0.1995(4) 0.6610(3) 0.3875(9)
H8_7 H 0.2046 0.6806 0.3050
C9_7 C 0.2534(3) 0.6327(2) 0.4426(9)
H9_7 H 0.3020 0.6291 0.4043
H10_7 H 0.0184 0.7735 0.6433
N9_7 N 0.3857(2) 0.59338(15) 0.7213(5)
H4_7 H 0.9816 0.7265 0.1433
C10_7 C 0.9905(3) 0.7487(2) 0.6860(8)
C11_7 C 0.9404(6) 0.6808(2) 0.7205(9)
H11_7 H 0.9246 0.6490 0.7093
C12_7 C 0.9238(4) 0.7094(2) 0.8365(8)
H12_7 H 0.8957 0.7007 0.9190
N1_5 N 0.5242(2) 0.85966(16) 0.3156(6)
C1_5 C 0.5953(3) 0.87523(18) 0.3246(7)
H1_5 H 0.6288 0.8649 0.3973
N2_5 N 0.6143(2) 0.90662(15) 0.2213(5)
C2_5 C 0.5505(4) 0.9110(3) 0.1375(9)
H2_5 H 0.5454 0.9306 0.0550
C3_5 C 0.4966(3) 0.8827(2) 0.1926(9)
H3_5 H 0.4480 0.8791 0.1543
N3_5 N 0.4555(2) 0.75356(16) 0.3107(6)
C4_8 C 0.4905(3) 0.7487(2) 0.1860(8)
H4_8 H 0.5184 0.7735 0.1433
N4_7 N 0.4834(3) 0.70534(16) 0.1237(5)
C5_8 C 0.4404(6) 0.6808(2) 0.2205(9)
H5_8 H 0.4246 0.6490 0.2093
C6_8 C 0.4238(4) 0.7094(2) 0.3365(8)
H6_8 H 0.3957 0.7007 0.4190
N7_7 N 0.5445(2) 0.74644(16) 0.8107(6)
C10_8 C 0.5095(3) 0.7513(2) 0.6860(8)
H10_8 H 0.4816 0.7265 0.6433
N8_5 N 0.5166(3) 0.79466(16) 0.6237(5)
C11_8 C 0.5596(6) 0.8192(2) 0.7205(9)
H11_8 H 0.5754 0.8510 0.7093
C12_8 C 0.5762(4) 0.7906(2) 0.8365(8)
H12_8 H 0.6043 0.7993 0.9190
N5_8 N 0.4758(2) 0.14034(16) 0.3156(6)
C7_8 C 0.4047(3) 0.12477(18) 0.3246(7)
H7_8 H 0.3712 0.1351 0.3973
C8_8 C 0.4495(4) 0.0890(3) 0.1375(9)
H8_8 H 0.4546 0.0694 0.0550
C9_8 C 0.5034(3) 0.1173(2) 0.1926(9)
H9_8 H 0.5520 0.1209 0.1543
N1_6 N 0.7742(2) 0.89034(16) 0.0656(6)
C1_6 C 0.8453(3) 0.87477(18) 0.0746(7)
H1_6 H 0.8788 0.8851 0.1473
C2_6 C 0.8005(4) 0.8390(3) 0.8875(9)
H2_6 H 0.7954 0.8194 0.8050
C3_6 C 0.7466(3) 0.8673(2) 0.9426(9)
H3_6 H 0.6980 0.8709 0.9043
N5_9 N 0.7742(2) 0.39034(16) 0.5656(6)
C7_9 C 0.8453(3) 0.37477(18) 0.5746(7)
H7_9 H 0.8788 0.3851 0.6473
C8_9 C 0.8005(4) 0.3390(3) 0.3875(9)
H8_9 H 0.7954 0.3194 0.3050
C9_9 C 0.7466(3) 0.3673(2) 0.4426(9)
H9_9 H 0.6980 0.3709 0.4043
N5_10 N 0.4758(2) 0.64034(16) 0.8156(6)
C7_10 C 0.4047(3) 0.62477(18) 0.8246(7)
H7_10 H 0.3712 0.6351 0.8973
C8_10 C 0.4495(4) 0.5890(3) 0.6375(9)
H8_10 H 0.4546 0.5694 0.5550
C9_10 C 0.5034(3) 0.6173(2) 0.6926(9)
H9_10 H 0.5520 0.6209 0.6543
loop_
_geom_bond_atom_site_label_1
_geom_bond_atom_site_label_2
_geom_bond_site_symmetry_1
_geom_bond_site_symmetry_2
H9 C9 1_555 1_555
N9 Co2 1_555 1_555
N10 Co2 1_555 1_555
H12 C12 1_555 1_555
Co1 N1 1_555 1_555
N1 C1 1_555 1_555
C1 H1 1_555 1_555
N2 C1 1_555 1_555
C2 N2 1_555 1_555
H2 C2 1_555 1_555
C3 N1 1_555 1_555
H3 C3 1_555 1_555
N3 Co1 1_555 1_555
N5 C7 1_555 1_555
C7 H7 1_555 1_555
N6 Co1 1_555 1_555
C8 N6 1_555 1_555
H8 C8 1_555 1_555
N8 Co1 1_555 1_555
C11 N8 1_555 1_555
H11 C11 1_555 1_555
Co3 N2 1_555 1_555
C2 C3 1_555 1_555
C7 N6 1_555 1_555
C10 N8 1_555 1_555
Co5 N7 1_555 1_555
N4 C4 1_555 1_555
C5 N4 1_555 1_555
H5 C5 1_555 1_555
H6 C6 1_555 1_555
Co5 N4 1_555 1_555
C5 C6 1_555 1_555
Co5_2 N7_2 1_555 1_555
N4_2 C4_2 1_555 1_555
C5_2 N4_2 1_555 1_555
H5_2 C5_2 1_555 1_555
H6_2 C6_2 1_555 1_555
Co5_2 N4_2 1_555 1_555
C5_2 C6_2 1_555 1_555
H12_2 C12_2 1_555 1_555
Co1_2 N1_2 1_555 1_555
N1_2 C1_2 1_555 1_555
C1_2 H1_2 1_555 1_555
N2_2 C1_2 1_555 1_555
C2_2 N2_2 1_555 1_555
H2_2 C2_2 1_555 1_555
C3_2 N1_2 1_555 1_555
H3_2 C3_2 1_555 1_555
N3_2 Co1_2 1_555 1_555
N5_2 C7_2 1_555 1_555
C7_2 H7_2 1_555 1_555
N6_2 Co1_2 1_555 1_555
C8_2 N6_2 1_555 1_555
H8_2 C8_2 1_555 1_555
N8_2 Co1_2 1_555 1_555
C11_2 N8_2 1_555 1_555
H11_2 C11_2 1_555 1_555
Co3_2 N2_2 1_555 1_555
C2_2 C3_2 1_555 1_555
C7_2 N6_2 1_555 1_555
C10_2 N8_2 1_555 1_555
H9_2 C9_2 1_555 1_555
N9_2 Co2_2 1_555 1_555
N10_2 Co2_2 1_555 1_555
N5_3 C7_3 1_555 1_555
C7_3 H7_3 1_555 1_555
Co5_2 N5_3 1_555 1_555
N9_3 Co5_2 1_555 1_555
C4_3 N10 1_555 1_555
N4_3 C4_3 1_555 1_555
C5_3 N4_3 1_555 1_555
H5_3 C5_3 1_555 1_555
C6_3 N10 1_555 1_555
H6_3 C6_3 1_555 1_555
C8_3 N9 1_555 1_555
H8_3 C8_3 1_555 1_555
H9_3 C9_3 1_555 1_555
C5_3 C6_3 1_555 1_555
C8_3 C9_3 1_555 1_555
N7_3 C10_3 1_555 1_555
C11_3 N11 1_555 1_555
H11_3 C11_3 1_555 1_555
C12_3 N7_3 1_555 1_555
H12_3 C12_3 1_555 1_555
Co5_3 N7_3 1_555 1_555
C10_3 N11 1_555 1_555
C11_3 C12_3 1_555 1_555
N5_4 C7_4 1_555 1_555
C7_4 H7_4 1_555 1_555
N7_4 C10_4 1_555 1_555
C10_4 H10_4 1_555 1_555
C11_4 N8_3 1_555 1_555
H11_4 C11_4 1_555 1_555
C12_4 N7_4 1_555 1_555
H12_4 C12_4 1_555 1_555
Co2_3 N5_4 1_555 1_555
Co3 N7_4 1_555 1_555
N9_4 Co2_3 1_555 1_555
N10_3 Co2_3 1_555 1_555
N11_3 Co2_3 1_555 1_555
C10_4 N8_3 1_555 1_555
C11_4 C12_4 1_555 1_555
Co1_3 N1_3 1_555 1_555
N1_3 C1_3 1_555 1_555
C1_3 H1_3 1_555 1_555
N2_3 C1_3 1_555 1_555
C2_3 N2_3 1_555 1_555
H2_3 C2_3 1_555 1_555
C3_3 N1_3 1_555 1_555
H3_3 C3_3 1_555 1_555
N3_3 Co1_3 1_555 1_555
C4_4 N3_3 1_555 1_555
H4_4 C4_4 1_555 1_555
N4_4 C4_4 1_555 1_555
C5_4 N4_4 1_555 1_555
H5_4 C5_4 1_555 1_555
C6_4 N3_3 1_555 1_555
H6_4 C6_4 1_555 1_555
N6_3 Co1_3 1_555 1_555
C8_4 N6_3 1_555 1_555
H8_4 C8_4 1_555 1_555
H9_4 C9_4 1_555 1_555
Co3_3 N2_3 1_555 1_555
Co3 N4_4 1_555 1_555
C2_3 C3_3 1_555 1_555
C5_4 C6_4 1_555 1_555
C8_4 C9_4 1_555 1_555
H9_5 C9_5 1_555 1_555
N9_5 Co2_4 1_555 1_555
N10_4 Co2_4 1_555 1_555
Co1_4 N1_4 1_555 1_555
N1_4 C1_4 1_555 1_555
C1_4 H1_4 1_555 1_555
N3_4 Co1_4 1_555 1_555
C6_5 N3_4 1_555 1_555
H6_5 C6_5 1_555 1_555
N5_5 C7_5 1_555 1_555
C7_5 H7_5 1_555 1_555
N6_4 Co1_4 1_555 1_555
C8_5 N6_4 1_555 1_555
H8_5 C8_5 1_555 1_555
N7_5 C10_5 1_555 1_555
C10_5 H10_5 1_555 1_555
N8_4 Co1_4 1_555 1_555
C11_5 N8_4 1_555 1_555
H11_5 C11_5 1_555 1_555
C12_5 N7_5 1_555 1_555
H12_5 C12_5 1_555 1_555
Co3_3 N7_5 1_555 1_555
C7_5 N6_4 1_555 1_555
C10_5 N8_4 1_555 1_555
C11_5 C12_5 1_555 1_555
C2_4 N2_4 1_555 1_555
H2_4 C2_4 1_555 1_555
H3_4 C3_4 1_555 1_555
H4_5 C4_5 1_555 1_555
N4_5 C4_5 1_555 1_555
C5_5 N4_5 1_555 1_555
H5_5 C5_5 1_555 1_555
Co3_4 N2_4 1_555 1_555
Co3_3 N4_5 1_555 1_555
C2_4 C3_4 1_555 1_555
C6_6 N10_3 1_555 1_555
H6_6 C6_6 1_555 1_555
N5_6 C7_6 1_555 1_555
C7_6 H7_6 1_555 1_555
C8_6 N9_4 1_555 1_555
H8_6 C8_6 1_555 1_555
N7_6 C10_6 1_555 1_555
C10_6 H10_6 1_555 1_555
C11_6 N11_3 1_555 1_555
H11_6 C11_6 1_555 1_555
C12_6 N7_6 1_555 1_555
H12_6 C12_6 1_555 1_555
Co5_4 N7_6 1_555 1_555
C7_6 N9_4 1_555 1_555
C10_6 N11_3 1_555 1_555
C11_6 C12_6 1_555 1_555
H4_6 C4_6 1_555 1_555
N4_6 C4_6 1_555 1_555
C5_6 N4_6 1_555 1_555
H5_6 C5_6 1_555 1_555
Co5_4 N4_6 1_555 1_555
H9_6 C9_6 1_555 1_555
N9_6 Co5_3 1_555 1_555
C4_7 N10_4 1_555 1_555
N11_2 C4_7 1_555 1_555
C5_7 N11_2 1_555 1_555
H5_7 C5_7 1_555 1_555
C6_7 N10_4 1_555 1_555
H6_7 C6_7 1_555 1_555
N5_7 C7_7 1_555 1_555
C7_7 H7_7 1_555 1_555
C8_7 N9_5 1_555 1_555
H8_7 C8_7 1_555 1_555
C9_7 N5_7 1_555 1_555
H9_7 C9_7 1_555 1_555
Co5_4 N5_7 1_555 1_555
N9_7 Co5_4 1_555 1_555
C5_7 C6_7 1_555 1_555
C7_7 N9_5 1_555 1_555
C8_7 C9_7 1_555 1_555
N10_2 C10_7 1_555 1_555
C11_7 N11_4 1_555 1_555
H11_7 C11_7 1_555 1_555
C12_7 N10_2 1_555 1_555
H12_7 C12_7 1_555 1_555
C10_7 N11_4 1_555 1_555
C11_7 C12_7 1_555 1_555
Co3_2 N1_5 1_555 1_555
N1_5 C1_5 1_555 1_555
C1_5 H1_5 1_555 1_555
N2_5 C1_5 1_555 1_555
C2_5 N2_5 1_555 1_555
H2_5 C2_5 1_555 1_555
C3_5 N1_5 1_555 1_555
H3_5 C3_5 1_555 1_555
N3_5 Co3_2 1_555 1_555
C4_8 N3_5 1_555 1_555
H4_8 C4_8 1_555 1_555
N4_7 C4_8 1_555 1_555
C5_8 N4_7 1_555 1_555
H5_8 C5_8 1_555 1_555
C6_8 N3_5 1_555 1_555
H6_8 C6_8 1_555 1_555
N7_7 C10_8 1_555 1_555
C10_8 H10_8 1_555 1_555
N8_5 Co3_2 1_555 1_555
C11_8 N8_5 1_555 1_555
H11_8 C11_8 1_555 1_555
C12_8 N7_7 1_555 1_555
H12_8 C12_8 1_555 1_555
Co5 N2_5 1_555 1_555
Co3_4 N7_7 1_555 1_555
C2_5 C3_5 1_555 1_555
C5_8 C6_8 1_555 1_555
C10_8 N8_5 1_555 1_555
C11_8 C12_8 1_555 1_555
N5_8 C7_8 1_555 1_555
C7_8 H7_8 1_555 1_555
C8_8 N9_3 1_555 1_555
H8_8 C8_8 1_555 1_555
C9_8 N5_8 1_555 1_555
H9_8 C9_8 1_555 1_555
Co3 N5_8 1_555 1_555
C7_8 N9_3 1_555 1_555
C8_8 C9_8 1_555 1_555
Co5 N1_6 1_555 1_555
N1_6 C1_6 1_555 1_555
C1_6 H1_6 1_555 1_555
C2_6 N9_2 1_555 1_555
H2_6 C2_6 1_555 1_555
H3_6 C3_6 1_555 1_555
C2_6 C3_6 1_555 1_555
N5_9 C7_9 1_555 1_555
C7_9 H7_9 1_555 1_555
C8_9 N9_6 1_555 1_555
H8_9 C8_9 1_555 1_555
C9_9 N5_9 1_555 1_555
H9_9 C9_9 1_555 1_555
Co3_3 N5_9 1_555 1_555
C7_9 N9_6 1_555 1_555
C8_9 C9_9 1_555 1_555
N5_10 C7_10 1_555 1_555
C7_10 H7_10 1_555 1_555
C8_10 N9_7 1_555 1_555
H8_10 C8_10 1_555 1_555
C9_10 N5_10 1_555 1_555
H9_10 C9_10 1_555 1_555
Co3_4 N5_10 1_555 1_555
C7_10 N9_7 1_555 1_555
C8_10 C9_10 1_555 1_555

#END
