
###############################################################################
#
# This file contains modified crystal structure data generated from the
# MOF subset of the Cambridge Structural Database (CSD) v543 
# hosted by the Cambridge Crystallographic Data Centre (CCDC).
#
# This work is licensed under the Creative Commons
# Attribution-NonCommercial-ShareAlike 4.0 International License.
# To view a copy of this license, visit
# http://creativecommons.org/licenses/by-nc-sa/4.0/
# or send a letter to
# Creative Commons, PO Box 1866, Mountain View, CA 94042, USA.
#
# CIF created using the CSD Python API on 29 September 2022
# The structure has been converted into the P1 space group
# The structure has a 3D framework
# The original CSD entry EQUBUO is in the tetragonal crystal system
# The framework has been calculated to contain at least 10.0% void space
# The void calculation uses a probe of radius 1.32A, grid spacing 0.4
# H atom positions have been added when not included in the experimental data
#
###############################################################################

data_EQUBUO
_chemical_formula_moiety         '(C56 H60 Gd8 O48 S8)n'
_symmetry_cell_setting           triclinic
_symmetry_space_group_name_H-M   'P 1'
_symmetry_Int_Tables_number      1
_space_group_name_Hall           'P 1'
loop_
_symmetry_equiv_pos_site_id
_symmetry_equiv_pos_as_xyz
1 x,y,z
_cell_length_a                   17.1743(3)
_cell_length_b                   17.1743(3)
_cell_length_c                   8.5106(2)
_cell_angle_alpha                90
_cell_angle_beta                 90
_cell_angle_gamma                90
_cell_volume                     2510.26
loop_
_atom_site_label
_atom_site_type_symbol
_atom_site_fract_x
_atom_site_fract_y
_atom_site_fract_z
C1 C 0.1286(2) 0.2389(2) 0.5417(5)
C2 C 0.1989(2) 0.2742(2) 0.5038(5)
H1 H 0.2362 0.2474 0.4458
C3 C 0.2129(2) 0.3499(2) 0.5535(6)
C4 C 0.2872(2) 0.3899(3) 0.5106(5)
C5 C 0.1573(2) 0.3886(2) 0.6416(7)
H2 H 0.1667 0.4392 0.6755
C6 C 0.0878(3) 0.3525(3) 0.6795(7)
H3 H 0.0512 0.3785 0.7405
C7 C 0.0726(2) 0.2773(3) 0.6266(7)
H4 H 0.0252 0.2534 0.6485
O1 O 0.05046(16) 0.15102(16) 0.3530(4)
O2 O 0.07553(16) 0.10363(16) 0.6135(3)
O3 O 0.17972(17) 0.10829(17) 0.4183(4)
O4 O 0.34215(17) 0.35081(18) 0.4571(4)
O5 O 0.28987(16) 0.46397(18) 0.5308(4)
O6 O 0.07367(14) 0.02599(15) 0.1219(3)
S1 S 0.10823(6) 0.14314(5) 0.47634(12)
H5 H 0.109(3) 0.039(4) 0.203(6)
Gd3 Gd 0.110290(10) 0.036870(10) 0.84969(3)
Gd4 Gd 0.463130(10) 0.389710(10) 0.34969(3)
Gd5 Gd 0.389710(10) 0.536870(10) 0.65031(3)
O16 O 0.03603(18) 0.21013(16) 0.0308(4)
Gd6 Gd 0.036870(10) 0.889710(10) 0.15031(3)
O21 O 0.02599(15) 0.92633(14) 0.8781(3)
H15 H 0.039(4) 0.891(3) 0.797(6)
Gd1 Gd 0.963130(10) 0.110290(10) 0.15031(3)
O7 O 0.9212(2) 0.23667(19) 0.2669(4)
H6 H 0.883(3) 0.271(3) 0.235(7)
H7 H 0.922(4) 0.234(4) 0.378(2)
C8 C 0.7611(2) 0.1286(2) 0.4583(5)
C9 C 0.7258(2) 0.1989(2) 0.4962(5)
H8 H 0.7526 0.2362 0.5542
C10 C 0.6501(2) 0.2129(2) 0.4465(6)
C11 C 0.6101(3) 0.2872(2) 0.4894(5)
C12 C 0.6114(2) 0.1573(2) 0.3584(7)
H9 H 0.5608 0.1667 0.3245
C13 C 0.6475(3) 0.0878(3) 0.3205(7)
H10 H 0.6215 0.0512 0.2595
C14 C 0.7227(3) 0.0726(2) 0.3734(7)
H11 H 0.7466 0.0252 0.3515
Gd8 Gd 0.610290(10) 0.463130(10) 0.65031(3)
O8 O 0.84898(16) 0.05046(16) 0.6470(4)
O9 O 0.89637(16) 0.07553(16) 0.3865(3)
O11 O 0.89171(17) 0.17972(17) 0.5817(4)
O12 O 0.64919(18) 0.34215(17) 0.5429(4)
O13 O 0.84215(17) 0.14919(18) 0.0429(4)
O15 O 0.53603(18) 0.28987(16) 0.4692(4)
O17 O 0.78987(16) 0.03603(18) 0.9692(4)
O20 O 0.97401(15) 0.07367(14) 0.8781(3)
S2 S 0.85686(5) 0.10823(6) 0.52366(12)
H14 H 0.961(4) 0.109(3) 0.797(6)
O22 O 0.92633(14) 0.97401(15) 0.1219(3)
H16 H 0.891(3) 0.961(4) 0.203(6)
Gd2 Gd 0.889710(10) 0.963130(10) 0.84969(3)
O10 O 0.92447(16) 0.89637(16) 0.6135(3)
O14 O 0.85081(18) 0.84215(17) 0.9571(4)
O23 O 0.76333(19) 0.9212(2) 0.7331(4)
H17 H 0.729(3) 0.883(3) 0.765(7)
H18 H 0.766(4) 0.922(4) 0.622(2)
O14_2 O 0.14919(18) 0.15785(17) 0.9571(4)
O23_2 O 0.23667(19) 0.0788(2) 0.7331(4)
H17_2 H 0.271(3) 0.117(3) 0.765(7)
H18_2 H 0.234(4) 0.078(4) 0.622(2)
O7_2 O 0.0788(2) 0.76333(19) 0.2669(4)
H6_2 H 0.117(3) 0.729(3) 0.235(7)
H7_2 H 0.078(4) 0.766(4) 0.378(2)
C8_2 C 0.2389(2) 0.8714(2) 0.4583(5)
C9_2 C 0.2742(2) 0.8011(2) 0.4962(5)
H8_2 H 0.2474 0.7638 0.5542
C10_2 C 0.3499(2) 0.7871(2) 0.4465(6)
C11_2 C 0.3899(3) 0.7128(2) 0.4894(5)
C12_2 C 0.3886(2) 0.8427(2) 0.3584(7)
H9_2 H 0.4392 0.8333 0.3245
C13_2 C 0.3525(3) 0.9122(3) 0.3205(7)
H10_2 H 0.3785 0.9488 0.2595
C14_2 C 0.2773(3) 0.9274(2) 0.3734(7)
H11_2 H 0.2534 0.9748 0.3515
Gd9 Gd 0.536870(10) 0.610290(10) 0.34969(3)
O8_2 O 0.15102(16) 0.94954(16) 0.6470(4)
O9_2 O 0.10363(16) 0.92447(16) 0.3865(3)
O11_2 O 0.10829(17) 0.82028(17) 0.5817(4)
O12_2 O 0.35081(18) 0.65785(17) 0.5429(4)
O13_2 O 0.15785(17) 0.85081(18) 0.0429(4)
O15_2 O 0.46397(18) 0.71013(16) 0.4692(4)
O17_2 O 0.21013(16) 0.96397(18) 0.9692(4)
S2_2 S 0.14314(5) 0.89177(6) 0.52366(12)
C1_2 C 0.8714(2) 0.7611(2) 0.5417(5)
C2_2 C 0.8011(2) 0.7258(2) 0.5038(5)
H1_2 H 0.7638 0.7526 0.4458
C3_2 C 0.7871(2) 0.6501(2) 0.5535(6)
C4_2 C 0.7128(2) 0.6101(3) 0.5106(5)
C5_2 C 0.8427(2) 0.6114(2) 0.6416(7)
H2_2 H 0.8333 0.5608 0.6755
C6_2 C 0.9122(3) 0.6475(3) 0.6795(7)
H3_2 H 0.9488 0.6215 0.7405
C7_2 C 0.9274(2) 0.7227(3) 0.6266(7)
H4_2 H 0.9748 0.7466 0.6485
O1_2 O 0.94954(16) 0.84898(16) 0.3530(4)
O3_2 O 0.82028(17) 0.89171(17) 0.4183(4)
O4_2 O 0.65785(17) 0.64919(18) 0.4571(4)
O5_2 O 0.71013(16) 0.53603(18) 0.5308(4)
S1_2 S 0.89177(6) 0.85686(5) 0.47634(12)
O16_2 O 0.96397(18) 0.78987(16) 0.0308(4)
H1_3 H 0.2638 0.7474 0.0542
O1_3 O 0.44954(16) 0.65102(16) 0.1470(4)
O3_3 O 0.32028(17) 0.60829(17) 0.0817(4)
O6_2 O 0.42633(14) 0.52599(15) 0.3781(3)
O7_3 O 0.5788(2) 0.73667(19) 0.2331(4)
S1_3 S 0.39177(6) 0.64314(5) 0.02366(12)
H5_2 H 0.391(3) 0.539(4) 0.297(6)
H6_3 H 0.617(3) 0.771(3) 0.265(7)
H7_3 H 0.578(4) 0.734(4) 0.122(2)
C8_3 C 0.7389(2) 0.6286(2) 0.0417(5)
C9_3 C 0.7742(2) 0.6989(2) 0.0038(5)
C10_3 C 0.8499(2) 0.7129(2) 0.0535(6)
C11_3 C 0.8899(3) 0.7872(2) 0.0106(5)
C12_3 C 0.8886(2) 0.6573(2) 0.1416(7)
H9_3 H 0.9392 0.6667 0.1755
C13_3 C 0.8525(3) 0.5878(3) 0.1795(7)
H10_3 H 0.8785 0.5512 0.2405
C14_3 C 0.7773(3) 0.5726(2) 0.1266(7)
H11_3 H 0.7534 0.5252 0.1485
O9_3 O 0.60363(16) 0.57553(16) 0.1135(3)
O18 O 0.57367(14) 0.47401(15) 0.3781(3)
O19 O 0.52599(15) 0.57367(14) 0.6219(3)
H12 H 0.609(3) 0.461(4) 0.297(6)
H13 H 0.539(4) 0.609(3) 0.703(6)
C1_3 C 0.3714(2) 0.7389(2) 0.9583(5)
C2_3 C 0.3011(2) 0.7742(2) 0.9962(5)
C3_3 C 0.2871(2) 0.8499(2) 0.9465(6)
C4_3 C 0.2128(2) 0.8899(3) 0.9894(5)
C5_3 C 0.3427(2) 0.8886(2) 0.8584(7)
H2_3 H 0.3333 0.9392 0.8245
C6_3 C 0.4122(3) 0.8525(3) 0.8205(7)
H3_3 H 0.4488 0.8785 0.7595
C7_3 C 0.4274(2) 0.7773(3) 0.8734(7)
H4_3 H 0.4748 0.7534 0.8515
O2_2 O 0.42447(16) 0.60363(16) 0.8865(3)
H8_3 H 0.7474 0.7362 0.9458
O8_3 O 0.65102(16) 0.55046(16) 0.8530(4)
O10_2 O 0.57553(16) 0.39637(16) 0.8865(3)
O11_3 O 0.60829(17) 0.67972(17) 0.9183(4)
O21_2 O 0.47401(15) 0.42633(14) 0.6219(3)
O23_3 O 0.73667(19) 0.4212(2) 0.7669(4)
S2_3 S 0.64314(5) 0.60823(6) 0.97634(12)
H15_2 H 0.461(4) 0.391(3) 0.703(6)
H17_3 H 0.771(3) 0.383(3) 0.735(7)
H18_3 H 0.734(4) 0.422(4) 0.878(2)
H19 H 0.558684 0.529196 0.360859
H1_4 H 0.7362 0.2526 0.0542
O1_4 O 0.55046(16) 0.34898(16) 0.1470(4)
O3_4 O 0.67972(17) 0.39171(17) 0.0817(4)
O7_4 O 0.4212(2) 0.26333(19) 0.2331(4)
S1_4 S 0.60823(6) 0.35686(5) 0.02366(12)
H6_4 H 0.383(3) 0.229(3) 0.265(7)
H7_4 H 0.422(4) 0.266(4) 0.122(2)
C8_4 C 0.2611(2) 0.3714(2) 0.0417(5)
C9_4 C 0.2258(2) 0.3011(2) 0.0038(5)
C10_4 C 0.1501(2) 0.2871(2) 0.0535(6)
C11_4 C 0.1101(3) 0.2128(2) 0.0106(5)
C12_4 C 0.1114(2) 0.3427(2) 0.1416(7)
H9_4 H 0.0608 0.3333 0.1755
C13_4 C 0.1475(3) 0.4122(3) 0.1795(7)
H10_4 H 0.1215 0.4488 0.2405
C14_4 C 0.2227(3) 0.4274(2) 0.1266(7)
H11_4 H 0.2466 0.4748 0.1485
O9_4 O 0.39637(16) 0.42447(16) 0.1135(3)
C1_4 C 0.6286(2) 0.2611(2) 0.9583(5)
C2_4 C 0.6989(2) 0.2258(2) 0.9962(5)
C3_4 C 0.7129(2) 0.1501(2) 0.9465(6)
C4_4 C 0.7872(2) 0.1101(3) 0.9894(5)
C5_4 C 0.6573(2) 0.1114(2) 0.8584(7)
H2_4 H 0.6667 0.0608 0.8245
C6_4 C 0.5878(3) 0.1475(3) 0.8205(7)
H3_4 H 0.5512 0.1215 0.7595
C7_4 C 0.5726(2) 0.2227(3) 0.8734(7)
H4_4 H 0.5252 0.2466 0.8515
H8_4 H 0.2526 0.2638 0.9458
O8_4 O 0.34898(16) 0.44954(16) 0.8530(4)
O11_4 O 0.39171(17) 0.32028(17) 0.9183(4)
O23_4 O 0.26333(19) 0.5788(2) 0.7669(4)
S2_4 S 0.35686(5) 0.39177(6) 0.97634(12)
H17_4 H 0.229(3) 0.617(3) 0.735(7)
H18_4 H 0.266(4) 0.578(4) 0.878(2)
H19_2 H 0.441316 0.470804 0.360859
H19_3 H 0.470804 0.558684 0.639141
H19_4 H 0.529196 0.441316 0.639141
H19_5 H 0.941316 0.0291956 0.139141
H19_6 H 0.0586837 0.970804 0.139141
H19_7 H 0.0291956 0.0586837 0.860859
H19_8 H 0.970804 0.941316 0.860859
loop_
_geom_bond_atom_site_label_1
_geom_bond_atom_site_label_2
_geom_bond_site_symmetry_1
_geom_bond_site_symmetry_2
C1 C2 1_555 1_555
C2 H1 1_555 1_555
C3 C2 1_555 1_555
C4 C3 1_555 1_555
C5 C3 1_555 1_555
H2 C5 1_555 1_555
C6 C5 1_555 1_555
H3 C6 1_555 1_555
C7 C1 1_555 1_555
H4 C7 1_555 1_555
O1 S1 1_555 1_555
O2 S1 1_555 1_555
O3 S1 1_555 1_555
O4 C4 1_555 1_555
O5 C4 1_555 1_555
S1 C1 1_555 1_555
H5 O6 1_555 1_555
Gd3 O2 1_555 1_555
Gd4 O4 1_555 1_555
Gd5 O5 1_555 1_555
C6 C7 1_555 1_555
H15 O21 1_555 1_555
O7 Gd1 1_555 1_555
H6 O7 1_555 1_555
H7 O7 1_555 1_555
C8 C9 1_555 1_555
C9 H8 1_555 1_555
C10 C9 1_555 1_555
C11 C10 1_555 1_555
C12 C10 1_555 1_555
H9 C12 1_555 1_555
C13 C12 1_555 1_555
H10 C13 1_555 1_555
C14 C8 1_555 1_555
H11 C14 1_555 1_555
Gd8 O12 1_555 1_555
Gd4 O15 1_555 1_555
O8 S2 1_555 1_555
O9 Gd1 1_555 1_555
O11 S2 1_555 1_555
O12 C11 1_555 1_555
O13 Gd1 1_555 1_555
O15 C11 1_555 1_555
S2 C8 1_555 1_555
H14 O20 1_555 1_555
C13 C14 1_555 1_555
O9 S2 1_555 1_555
H16 O22 1_555 1_555
O10 Gd2 1_555 1_555
O14 Gd2 1_555 1_555
O23 Gd2 1_555 1_555
H17 O23 1_555 1_555
H18 O23 1_555 1_555
O14_2 Gd3 1_555 1_555
O23_2 Gd3 1_555 1_555
H17_2 O23_2 1_555 1_555
H18_2 O23_2 1_555 1_555
O7_2 Gd6 1_555 1_555
H6_2 O7_2 1_555 1_555
H7_2 O7_2 1_555 1_555
C8_2 C9_2 1_555 1_555
C9_2 H8_2 1_555 1_555
C10_2 C9_2 1_555 1_555
C11_2 C10_2 1_555 1_555
C12_2 C10_2 1_555 1_555
H9_2 C12_2 1_555 1_555
C13_2 C12_2 1_555 1_555
H10_2 C13_2 1_555 1_555
C14_2 C8_2 1_555 1_555
H11_2 C14_2 1_555 1_555
Gd5 O12_2 1_555 1_555
Gd9 O15_2 1_555 1_555
O8_2 S2_2 1_555 1_555
O9_2 Gd6 1_555 1_555
O11_2 S2_2 1_555 1_555
O12_2 C11_2 1_555 1_555
O13_2 Gd6 1_555 1_555
O15_2 C11_2 1_555 1_555
S2_2 C8_2 1_555 1_555
C13_2 C14_2 1_555 1_555
O9_2 S2_2 1_555 1_555
C1_2 C2_2 1_555 1_555
C2_2 H1_2 1_555 1_555
C3_2 C2_2 1_555 1_555
C4_2 C3_2 1_555 1_555
C5_2 C3_2 1_555 1_555
H2_2 C5_2 1_555 1_555
C6_2 C5_2 1_555 1_555
H3_2 C6_2 1_555 1_555
C7_2 C1_2 1_555 1_555
H4_2 C7_2 1_555 1_555
O1_2 S1_2 1_555 1_555
O10 S1_2 1_555 1_555
O3_2 S1_2 1_555 1_555
O4_2 C4_2 1_555 1_555
O5_2 C4_2 1_555 1_555
S1_2 C1_2 1_555 1_555
Gd9 O4_2 1_555 1_555
Gd8 O5_2 1_555 1_555
C6_2 C7_2 1_555 1_555
Gd9 O1_3 1_555 1_555
O1_3 S1_3 1_555 1_555
O3_3 S1_3 1_555 1_555
O6_2 Gd9 1_555 1_555
O7_3 Gd9 1_555 1_555
H5_2 O6_2 1_555 1_555
H6_3 O7_3 1_555 1_555
H7_3 O7_3 1_555 1_555
C8_3 C9_3 1_555 1_555
C10_3 C9_3 1_555 1_555
C11_3 C10_3 1_555 1_555
C12_3 C10_3 1_555 1_555
H9_3 C12_3 1_555 1_555
C13_3 C12_3 1_555 1_555
H10_3 C13_3 1_555 1_555
C14_3 C8_3 1_555 1_555
H11_3 C14_3 1_555 1_555
Gd4 O6_2 1_555 1_555
Gd5 O6_2 1_555 1_555
Gd8 O18 1_555 1_555
O9_3 Gd9 1_555 1_555
O16_2 C11_3 1_555 1_555
O18 Gd9 1_555 1_555
O19 Gd9 1_555 1_555
H12 O18 1_555 1_555
H13 O19 1_555 1_555
C13_3 C14_3 1_555 1_555
Gd4 O18 1_555 1_555
Gd5 O19 1_555 1_555
Gd8 O19 1_555 1_555
C1_3 C2_3 1_555 1_555
C3_3 C2_3 1_555 1_555
C4_3 C3_3 1_555 1_555
C5_3 C3_3 1_555 1_555
H2_3 C5_3 1_555 1_555
C6_3 C5_3 1_555 1_555
H3_3 C6_3 1_555 1_555
C7_3 C1_3 1_555 1_555
H4_3 C7_3 1_555 1_555
O17_2 C4_3 1_555 1_555
Gd8 O8_3 1_555 1_555
Gd5 O2_2 1_555 1_555
O8_3 S2_3 1_555 1_555
O10_2 Gd8 1_555 1_555
O11_3 S2_3 1_555 1_555
O21_2 Gd8 1_555 1_555
O23_3 Gd8 1_555 1_555
H15_2 O21_2 1_555 1_555
H17_3 O23_3 1_555 1_555
H18_3 O23_3 1_555 1_555
C6_3 C7_3 1_555 1_555
Gd5 O21_2 1_555 1_555
O18 H19 1_555 1_555
Gd4 O1_4 1_555 1_555
O1_4 S1_4 1_555 1_555
O3_4 S1_4 1_555 1_555
O7_4 Gd4 1_555 1_555
H6_4 O7_4 1_555 1_555
H7_4 O7_4 1_555 1_555
C8_4 C9_4 1_555 1_555
C10_4 C9_4 1_555 1_555
C11_4 C10_4 1_555 1_555
C12_4 C10_4 1_555 1_555
H9_4 C12_4 1_555 1_555
C13_4 C12_4 1_555 1_555
H10_4 C13_4 1_555 1_555
C14_4 C8_4 1_555 1_555
H11_4 C14_4 1_555 1_555
O9_4 Gd4 1_555 1_555
O16 C11_4 1_555 1_555
O21_2 Gd4 1_555 1_555
C13_4 C14_4 1_555 1_555
C1_4 C2_4 1_555 1_555
C3_4 C2_4 1_555 1_555
C4_4 C3_4 1_555 1_555
C5_4 C3_4 1_555 1_555
H2_4 C5_4 1_555 1_555
C6_4 C5_4 1_555 1_555
H3_4 C6_4 1_555 1_555
C7_4 C1_4 1_555 1_555
H4_4 C7_4 1_555 1_555
O17 C4_4 1_555 1_555
Gd5 O8_4 1_555 1_555
O8_4 S2_4 1_555 1_555
O11_4 S2_4 1_555 1_555
O23_4 Gd5 1_555 1_555
H17_4 O23_4 1_555 1_555
H18_4 O23_4 1_555 1_555
C6_4 C7_4 1_555 1_555
O6_2 H19_2 1_555 1_555
O19 H19_3 1_555 1_555
O21_2 H19_4 1_555 1_555

#END
