
###############################################################################
#
# This file contains modified crystal structure data generated from the
# MOF subset of the Cambridge Structural Database (CSD) v543 
# hosted by the Cambridge Crystallographic Data Centre (CCDC).
#
# This work is licensed under the Creative Commons
# Attribution-NonCommercial-ShareAlike 4.0 International License.
# To view a copy of this license, visit
# http://creativecommons.org/licenses/by-nc-sa/4.0/
# or send a letter to
# Creative Commons, PO Box 1866, Mountain View, CA 94042, USA.
#
# CIF created using the CSD Python API on 29 September 2022
# The structure has been converted into the P1 space group
# The structure has a 3D framework
# The original CSD entry ERAJEO01 is in the rhombohedral crystal system
# The framework has been calculated to contain at least 10.0% void space
# The void calculation uses a probe of radius 1.32A, grid spacing 0.4
#
###############################################################################

data_ERAJEO01
_chemical_formula_moiety         '(C54 H18 Cl12 Co32 N68)n'
_symmetry_cell_setting           triclinic
_symmetry_space_group_name_H-M   'P 1'
_symmetry_Int_Tables_number      1
_space_group_name_Hall           'P 1'
loop_
_symmetry_equiv_pos_site_id
_symmetry_equiv_pos_as_xyz
1 x,y,z
_cell_length_a                   24.92010(64)
_cell_length_b                   24.92010(64)
_cell_length_c                   8.15463(18)
_cell_angle_alpha                90
_cell_angle_beta                 90
_cell_angle_gamma                120
_cell_volume                     4385.65
loop_
_atom_site_label
_atom_site_type_symbol
_atom_site_fract_x
_atom_site_fract_y
_atom_site_fract_z
_atom_site_U_iso_or_equiv
_atom_site_thermal_displace_type
N1 N 0.05691(36) 0.31268(19) 0.20952(70) 0.0189 Uiso
N2 N 0.03729(41) 0.333333 0.333333 0.0189 Uiso
C1 C 0.11217(38) 0.31867(20) 0.25638(42) 0.0189 Uiso
C2 C 0.15248(79) 0.30496(44) 0.17471(83) 0.0189 Uiso
H1 H 0.142236 0.284473 0.052669 0.0189 Uiso
N3 N 0.25577(41) 0.31268(19) 0.20952(70) 0.0189 Uiso
N4 N 0.29604(41) 0.333333 0.333333 0.0189 Uiso
C3 C 0.20650(43) 0.31867(20) 0.25638(42) 0.0189 Uiso
N5 N 0.27642(36) 0.35399(19) 0.45715(70) 0.0189 Uiso
C4 C 0.22116(38) 0.34800(20) 0.41029(42) 0.0189 Uiso
C5 C 0.18085(79) 0.36171(44) 0.49196(83) 0.0189 Uiso
H2 H 0.191097 0.382194 0.613998 0.0189 Uiso
N6 N 0.07756(41) 0.35399(19) 0.45715(70) 0.0189 Uiso
C6 C 0.12683(43) 0.34800(20) 0.41029(42) 0.0189 Uiso
Co2 Co 0.378850(82) 0.333333 0.333333 0.0317 Uiso
Cl2 Cl 0.33333(32) 0.24298(16) 0.166667 0.0512 Uiso
Co3 Co 0.045517(82) 0.378850(82) 0.666667 0.0317 Uiso
Co4 Co 0.333333 0.378850(82) 0.666667 0.0317 Uiso
Co5 Co -0.000000 0.287816(82) 0.000000 0.0317 Uiso
Co6 Co 0.287817(82) 0.287816(82) 0.000000 0.0317 Uiso
Cl3 Cl -0.00000(32) 0.42368(28) 0.500000 0.0512 Uiso
Cl4 Cl 0.42369(16) 0.42368(28) 0.500000 0.0512 Uiso
N8 N 0.35399(19) 0.27642(36) 0.54285(70) 0.0189 Uiso
N10 N 0.41090(41) 0.39024(36) 0.12381(70) 0.0189 Uiso
Co5_2 Co -0.000000 0.287816(82) 1.000000 0.0317 Uiso
Co6_2 Co 0.287817(82) 0.287816(82) 1.000000 0.0317 Uiso
Co1 Co 0.954483(82) 0.333333 0.333333 0.0317 Uiso
Cl1 Cl 0.90965(28) 0.24298(16) 0.166667 0.0512 Uiso
Co5_3 Co 1.000000 0.287816(82) 0.000000 0.0317 Uiso
Cl3_2 Cl 1.00000(32) 0.42368(28) 0.500000 0.0512 Uiso
N7 N 0.92244(41) 0.27642(36) 0.54285(70) 0.0189 Uiso
N9 N 0.97935(19) 0.39024(36) 0.12381(70) 0.0189 Uiso
Co5_4 Co 1.000000 0.287816(82) 1.000000 0.0317 Uiso
Cl1_2 Cl 0.09035(28) 0.33333(32) 0.833333 0.0512 Uiso
N9_2 N 0.02065(19) 0.41090(41) 0.87619(70) 0.0189 Uiso
Co6_3 Co 0.712183(82) -0.00000(12) -0.000000 0.0317 Uiso
N1_2 N 0.94309(36) 0.25577(41) 0.79048(70) 0.0189 Uiso
N2_2 N 0.96271(41) 0.29604(41) 0.666667 0.0189 Uiso
C1_2 C 0.88783(38) 0.20650(43) 0.74362(42) 0.0189 Uiso
C2_2 C 0.84752(79) 0.15248(90) 0.82529(83) 0.0189 Uiso
H1_2 H 0.857764 0.142237 0.947331 0.0189 Uiso
N3_2 N 0.74423(41) 0.05691(45) 0.79048(70) 0.0189 Uiso
N4_2 N 0.70396(41) 0.03729(41) 0.666667 0.0189 Uiso
C3_2 C 0.79350(43) 0.11217(47) 0.74362(42) 0.0189 Uiso
N5_2 N 0.72358(36) 0.07756(41) 0.54285(70) 0.0189 Uiso
C4_2 C 0.77884(38) 0.12683(43) 0.58971(42) 0.0189 Uiso
C5_2 C 0.81915(79) 0.18085(90) 0.50804(83) 0.0189 Uiso
H2_2 H 0.808903 0.191096 0.386002 0.0189 Uiso
C6_2 C 0.87317(43) 0.22116(47) 0.58971(42) 0.0189 Uiso
Co4_2 Co 0.666667 0.045517(82) 0.333333 0.0317 Uiso
Co6_4 Co 0.712183(82) -0.00000(12) 1.000000 0.0317 Uiso
Cl4_2 Cl 0.57631(16) -0.00000(32) 0.500000 0.0512 Uiso
Co6_5 Co 0.712183(82) 1.00000(12) -0.000000 0.0317 Uiso
Co2_2 Co 0.621150(82) 0.954483(82) 0.666667 0.0317 Uiso
Cl2_2 Cl 0.66667(32) 0.90965(36) 0.833333 0.0512 Uiso
Co6_6 Co 0.712183(82) 1.00000(12) 1.000000 0.0317 Uiso
Cl4_3 Cl 0.57631(16) 1.00000(32) 0.500000 0.0512 Uiso
N8_2 N 0.64601(19) 0.92244(41) 0.45715(70) 0.0189 Uiso
N10_2 N 0.58910(41) 0.97935(55) 0.87619(70) 0.0189 Uiso
Co1_2 Co 0.378850(82) 0.045517(82) 0.333333 0.0317 Uiso
Cl1_3 Cl 0.33333(32) 0.09035(28) 0.166667 0.0512 Uiso
Co5_5 Co 0.287817(82) 0.000000 0.000000 0.0317 Uiso
Cl3_3 Cl 0.42369(43) 0.00000(32) 0.500000 0.0512 Uiso
N7_2 N 0.35399(55) 0.07756(41) 0.54285(70) 0.0189 Uiso
N9_3 N 0.41090(41) 0.02065(19) 0.12381(70) 0.0189 Uiso
Co5_6 Co 0.287817(82) 0.000000 1.000000 0.0317 Uiso
N1_3 N 0.25577(41) 0.94309(36) 0.20952(70) 0.0189 Uiso
N2_3 N 0.29604(41) 0.96271(41) 0.333333 0.0189 Uiso
C1_3 C 0.20650(43) 0.88783(38) 0.25638(42) 0.0189 Uiso
C2_3 C 0.15248(90) 0.84752(79) 0.17471(83) 0.0189 Uiso
H1_3 H 0.142237 0.857764 0.052669 0.0189 Uiso
N3_3 N 0.05691(45) 0.74423(41) 0.20952(70) 0.0189 Uiso
N4_3 N 0.03729(41) 0.70396(41) 0.333333 0.0189 Uiso
C3_3 C 0.11217(47) 0.79350(43) 0.25638(42) 0.0189 Uiso
N5_3 N 0.07756(41) 0.72358(36) 0.45715(70) 0.0189 Uiso
C4_3 C 0.12683(43) 0.77884(38) 0.41029(42) 0.0189 Uiso
C5_3 C 0.18085(90) 0.81915(79) 0.49196(83) 0.0189 Uiso
H2_3 H 0.191096 0.808903 0.613998 0.0189 Uiso
N6_2 N 0.27642(45) 0.92244(41) 0.45715(70) 0.0189 Uiso
C6_3 C 0.22116(47) 0.87317(43) 0.41029(42) 0.0189 Uiso
Co3_2 Co 0.33333(12) 0.954483(82) 0.666667 0.0317 Uiso
Co4_3 Co 0.045517(82) 0.666667 0.666667 0.0317 Uiso
Co5_7 Co 0.287817(82) 1.000000 0.000000 0.0317 Uiso
Co6_7 Co -0.00000(12) 0.712183(82) 0.000000 0.0317 Uiso
Cl3_4 Cl 0.42369(43) 1.00000(32) 0.500000 0.0512 Uiso
Cl4_4 Cl -0.00000(32) 0.57631(16) 0.500000 0.0512 Uiso
Co5_8 Co 0.287817(82) 1.000000 1.000000 0.0317 Uiso
Co6_8 Co -0.00000(12) 0.712183(82) 1.000000 0.0317 Uiso
Co2_3 Co 0.954483(82) 0.621150(82) 0.333333 0.0317 Uiso
Cl2_3 Cl 0.90965(36) 0.66667(32) 0.166667 0.0512 Uiso
Co6_9 Co 1.00000(12) 0.712183(82) 0.000000 0.0317 Uiso
Cl4_5 Cl 1.00000(32) 0.57631(16) 0.500000 0.0512 Uiso
N8_3 N 0.92244(41) 0.64601(19) 0.54285(70) 0.0189 Uiso
N10_3 N 0.97935(55) 0.58910(41) 0.12381(70) 0.0189 Uiso
Co6_10 Co 1.00000(12) 0.712183(82) 1.000000 0.0317 Uiso
Cl2_4 Cl 0.75702(16) 0.09035(36) 0.166667 0.0512 Uiso
N10_4 N 0.60976(36) 0.02065(55) 0.12381(70) 0.0189 Uiso
Co1_3 Co 0.666667 0.621150(82) 0.333333 0.0317 Uiso
Cl1_4 Cl 0.75702(16) 0.66667(32) 0.166667 0.0512 Uiso
N1_4 N 0.68732(19) 0.74423(41) 0.20952(70) 0.0189 Uiso
N2_4 N 0.666667 0.70396(41) 0.333333 0.0189 Uiso
C1_4 C 0.68133(20) 0.79350(43) 0.25638(42) 0.0189 Uiso
C2_4 C 0.69504(44) 0.84752(90) 0.17471(83) 0.0189 Uiso
H1_4 H 0.715527 0.857763 0.052669 0.0189 Uiso
N3_4 N 0.68732(19) 0.94309(45) 0.20952(70) 0.0189 Uiso
N4_4 N 0.666667 0.96271(41) 0.333333 0.0189 Uiso
C3_4 C 0.68133(20) 0.88783(47) 0.25638(42) 0.0189 Uiso
C4_4 C 0.65200(20) 0.87317(43) 0.41029(42) 0.0189 Uiso
C5_4 C 0.63829(44) 0.81915(90) 0.49196(83) 0.0189 Uiso
H2_4 H 0.617806 0.808904 0.613998 0.0189 Uiso
N6_3 N 0.64601(19) 0.72358(45) 0.45715(70) 0.0189 Uiso
C6_4 C 0.65200(20) 0.77884(47) 0.41029(42) 0.0189 Uiso
Co3_3 Co 0.621150(82) 0.66667(12) 0.666667 0.0317 Uiso
Co5_9 Co 0.712184(82) 0.712183(82) 0.000000 0.0317 Uiso
Cl3_5 Cl 0.57632(28) 0.57631(43) 0.500000 0.0512 Uiso
N7_3 N 0.72358(36) 0.64601(55) 0.54285(70) 0.0189 Uiso
N9_4 N 0.60976(36) 0.58910(41) 0.12381(70) 0.0189 Uiso
Co5_10 Co 0.712184(82) 0.712183(82) 1.000000 0.0317 Uiso
N1_5 N 0.31268(19) 0.05691(36) 0.79048(70) 0.0189 Uiso
N2_5 N 0.333333 0.03729(41) 0.666667 0.0189 Uiso
C1_5 C 0.31867(20) 0.11217(38) 0.74362(42) 0.0189 Uiso
C2_5 C 0.30496(44) 0.15248(79) 0.82529(83) 0.0189 Uiso
H1_5 H 0.284473 0.142236 0.947331 0.0189 Uiso
N3_5 N 0.31268(19) 0.25577(41) 0.79048(70) 0.0189 Uiso
N4_5 N 0.333333 0.29604(41) 0.666667 0.0189 Uiso
C3_5 C 0.31867(20) 0.20650(43) 0.74362(42) 0.0189 Uiso
C4_5 C 0.34800(20) 0.22116(38) 0.58971(42) 0.0189 Uiso
C5_5 C 0.36171(44) 0.18085(79) 0.50804(83) 0.0189 Uiso
H2_5 H 0.382194 0.191097 0.386002 0.0189 Uiso
C6_5 C 0.34800(20) 0.12683(43) 0.58971(42) 0.0189 Uiso
Cl2_5 Cl 0.24298(16) 0.33333(32) 0.833333 0.0512 Uiso
N10_5 N 0.39024(36) 0.41090(41) 0.87619(70) 0.0189 Uiso
Cl1_5 Cl 0.24298(16) 0.90965(28) 0.833333 0.0512 Uiso
N9_5 N 0.39024(36) 0.97935(19) 0.87619(70) 0.0189 Uiso
Cl2_6 Cl 0.09035(36) 0.75702(16) 0.833333 0.0512 Uiso
N10_6 N 0.02065(55) 0.60976(36) 0.87619(70) 0.0189 Uiso
Cl1_6 Cl 0.66667(32) 0.75702(16) 0.833333 0.0512 Uiso
N1_6 N 0.74423(41) 0.68732(19) 0.79048(70) 0.0189 Uiso
N2_6 N 0.70396(41) 0.666667 0.666667 0.0189 Uiso
C1_6 C 0.79350(43) 0.68133(20) 0.74362(42) 0.0189 Uiso
C2_6 C 0.84752(90) 0.69504(44) 0.82529(83) 0.0189 Uiso
H1_6 H 0.857763 0.715527 0.947331 0.0189 Uiso
N3_6 N 0.94309(45) 0.68732(19) 0.79048(70) 0.0189 Uiso
N4_6 N 0.96271(41) 0.666667 0.666667 0.0189 Uiso
C3_6 C 0.88783(47) 0.68133(20) 0.74362(42) 0.0189 Uiso
C4_6 C 0.87317(43) 0.65200(20) 0.58971(42) 0.0189 Uiso
C5_6 C 0.81915(90) 0.63829(44) 0.50804(83) 0.0189 Uiso
H2_6 H 0.808904 0.617806 0.386002 0.0189 Uiso
C6_6 C 0.77884(47) 0.65200(20) 0.58971(42) 0.0189 Uiso
N9_6 N 0.58910(41) 0.60976(36) 0.87619(70) 0.0189 Uiso
N2_7 N 0.62938(41) 0.62938(41) 0.000000 0.0189 Uiso
C1_7 C 0.55450(38) 0.53983(43) 0.07695(42) 0.0189 Uiso
C2_7 C 0.51419(79) 0.48581(90) 0.15862(83) 0.0189 Uiso
H1_7 H 0.524431 0.475570 0.280664 0.0189 Uiso
N4_7 N 0.37062(41) 0.37062(41) 0.000000 0.0189 Uiso
C3_7 C 0.46017(43) 0.44550(47) 0.07695(42) 0.0189 Uiso
N2_8 N 0.62938(41) 0.62938(41) 1.000000 0.0189 Uiso
N4_8 N 0.37062(41) 0.37062(41) 1.000000 0.0189 Uiso
C4_7 C 0.44550(38) 0.46017(43) 0.92305(42) 0.0189 Uiso
C5_7 C 0.48581(79) 0.51419(90) 0.84138(83) 0.0189 Uiso
H2_7 H 0.475569 0.524430 0.719336 0.0189 Uiso
C6_7 C 0.53983(43) 0.55450(47) 0.92305(42) 0.0189 Uiso
N2_9 N -0.000000 0.37062(41) 0.000000 0.0189 Uiso
N4_9 N -0.000000 0.62938(41) 0.000000 0.0189 Uiso
N2_10 N -0.000000 0.37062(41) 1.000000 0.0189 Uiso
N4_10 N -0.000000 0.62938(41) 1.000000 0.0189 Uiso
C4_8 C 0.01466(20) 0.55450(38) 0.92305(42) 0.0189 Uiso
C5_8 C 0.02837(44) 0.51419(79) 0.84138(83) 0.0189 Uiso
H2_8 H 0.048860 0.524431 0.719336 0.0189 Uiso
C6_8 C 0.01466(20) 0.46017(43) 0.92305(42) 0.0189 Uiso
N2_11 N 1.000000 0.37062(41) 0.000000 0.0189 Uiso
C1_8 C 0.98534(20) 0.44550(38) 0.07695(42) 0.0189 Uiso
C2_8 C 0.97163(44) 0.48581(79) 0.15862(83) 0.0189 Uiso
H1_8 H 0.951140 0.475569 0.280664 0.0189 Uiso
N4_11 N 1.000000 0.62938(41) 0.000000 0.0189 Uiso
C3_8 C 0.98534(20) 0.53983(43) 0.07695(42) 0.0189 Uiso
N2_12 N 1.000000 0.37062(41) 1.000000 0.0189 Uiso
N4_12 N 1.000000 0.62938(41) 1.000000 0.0189 Uiso
N2_13 N 0.37062(41) 0.000000 0.000000 0.0189 Uiso
C1_9 C 0.46017(43) 0.01466(20) 0.07695(42) 0.0189 Uiso
C2_9 C 0.51419(90) 0.02837(44) 0.15862(83) 0.0189 Uiso
H1_9 H 0.524430 0.048860 0.280664 0.0189 Uiso
N4_13 N 0.62938(41) 0.000000 0.000000 0.0189 Uiso
C3_9 C 0.55450(47) 0.01466(20) 0.07695(42) 0.0189 Uiso
N2_14 N 0.37062(41) 0.000000 1.000000 0.0189 Uiso
N4_14 N 0.62938(41) 0.000000 1.000000 0.0189 Uiso
N2_15 N 0.37062(41) 1.000000 0.000000 0.0189 Uiso
N4_15 N 0.62938(41) 1.000000 0.000000 0.0189 Uiso
N2_16 N 0.37062(41) 1.000000 1.000000 0.0189 Uiso
N4_16 N 0.62938(41) 1.000000 1.000000 0.0189 Uiso
C4_9 C 0.53983(43) 0.98534(20) 0.92305(42) 0.0189 Uiso
C5_9 C 0.48581(90) 0.97163(44) 0.84138(83) 0.0189 Uiso
H2_9 H 0.475570 0.951140 0.719336 0.0189 Uiso
C6_9 C 0.44550(47) 0.98534(20) 0.92305(42) 0.0189 Uiso
loop_
_geom_bond_atom_site_label_1
_geom_bond_atom_site_label_2
_geom_bond_site_symmetry_1
_geom_bond_site_symmetry_2
N1 N2 1_555 1_555
C1 N1 1_555 1_555
C2 C1 1_555 1_555
H1 C2 1_555 1_555
N3 N4 1_555 1_555
N4 N5 1_555 1_555
C3 C2 1_555 1_555
N5 C4 1_555 1_555
C4 C3 1_555 1_555
C5 C4 1_555 1_555
H2 C5 1_555 1_555
N6 N2 1_555 1_555
C6 C1 1_555 1_555
Co2 N4 1_555 1_555
Cl2 Co2 1_555 1_555
Co3 N6 1_555 1_555
Co4 N5 1_555 1_555
Co5 N1 1_555 1_555
Co6 N3 1_555 1_555
Cl4 Co2 1_555 1_555
N8 Co2 1_555 1_555
N10 Co2 1_555 1_555
N3 C3 1_555 1_555
C5 C6 1_555 1_555
N6 C6 1_555 1_555
Cl2 Co6 1_555 1_555
Co3 Cl3 1_555 1_555
Co4 Cl4 1_555 1_555
Co1 Cl1 1_555 1_555
Cl1 Co5_3 1_555 1_555
Cl3_2 Co1 1_555 1_555
N7 Co1 1_555 1_555
N9 Co1 1_555 1_555
Co3 Cl1_2 1_555 1_555
Cl1_2 Co5_2 1_555 1_555
N9_2 Co3 1_555 1_555
N1_2 N2_2 1_555 1_555
C1_2 N1_2 1_555 1_555
C2_2 C1_2 1_555 1_555
H1_2 C2_2 1_555 1_555
N3_2 N4_2 1_555 1_555
N4_2 N5_2 1_555 1_555
C3_2 C2_2 1_555 1_555
N5_2 C4_2 1_555 1_555
C4_2 C3_2 1_555 1_555
C5_2 C4_2 1_555 1_555
H2_2 C5_2 1_555 1_555
N7 N2_2 1_555 1_555
C6_2 C1_2 1_555 1_555
Co4_2 N5_2 1_555 1_555
Co5_4 N1_2 1_555 1_555
Co6_4 N3_2 1_555 1_555
N3_2 C3_2 1_555 1_555
C5_2 C6_2 1_555 1_555
N7 C6_2 1_555 1_555
Co4_2 Cl4_2 1_555 1_555
Cl2_2 Co2_2 1_555 1_555
Cl4_3 Co2_2 1_555 1_555
N8_2 Co2_2 1_555 1_555
N10_2 Co2_2 1_555 1_555
Cl2_2 Co6_6 1_555 1_555
Co1_2 Cl1_3 1_555 1_555
Cl1_3 Co5_5 1_555 1_555
Cl3_3 Co1_2 1_555 1_555
N7_2 Co1_2 1_555 1_555
N9_3 Co1_2 1_555 1_555
N1_3 N2_3 1_555 1_555
C1_3 N1_3 1_555 1_555
C2_3 C1_3 1_555 1_555
H1_3 C2_3 1_555 1_555
N3_3 N4_3 1_555 1_555
N4_3 N5_3 1_555 1_555
C3_3 C2_3 1_555 1_555
N5_3 C4_3 1_555 1_555
C4_3 C3_3 1_555 1_555
C5_3 C4_3 1_555 1_555
H2_3 C5_3 1_555 1_555
N6_2 N2_3 1_555 1_555
C6_3 C1_3 1_555 1_555
Co3_2 N6_2 1_555 1_555
Co4_3 N5_3 1_555 1_555
Co5_7 N1_3 1_555 1_555
Co6_7 N3_3 1_555 1_555
N3_3 C3_3 1_555 1_555
C5_3 C6_3 1_555 1_555
N6_2 C6_3 1_555 1_555
Co3_2 Cl3_4 1_555 1_555
Co4_3 Cl4_4 1_555 1_555
Cl2_3 Co2_3 1_555 1_555
Cl4_5 Co2_3 1_555 1_555
N8_3 Co2_3 1_555 1_555
N10_3 Co2_3 1_555 1_555
Cl2_3 Co6_9 1_555 1_555
Cl2_4 Co4_2 1_555 1_555
N10_4 Co4_2 1_555 1_555
Cl2_4 Co6_3 1_555 1_555
Co1_3 Cl1_4 1_555 1_555
Cl1_4 Co5_9 1_555 1_555
N1_4 N2_4 1_555 1_555
N2_4 Co1_3 1_555 1_555
C1_4 N1_4 1_555 1_555
C2_4 C1_4 1_555 1_555
H1_4 C2_4 1_555 1_555
N3_4 N4_4 1_555 1_555
N4_4 N8_2 1_555 1_555
C3_4 C2_4 1_555 1_555
N8_2 C4_4 1_555 1_555
C4_4 C3_4 1_555 1_555
C5_4 C4_4 1_555 1_555
H2_4 C5_4 1_555 1_555
N6_3 N2_4 1_555 1_555
C6_4 C1_4 1_555 1_555
Co3_3 N6_3 1_555 1_555
Co5_9 N1_4 1_555 1_555
Co6_5 N3_4 1_555 1_555
Cl3_5 Co1_3 1_555 1_555
N7_3 Co1_3 1_555 1_555
N9_4 Co1_3 1_555 1_555
N3_4 C3_4 1_555 1_555
C5_4 C6_4 1_555 1_555
N6_3 C6_4 1_555 1_555
Co3_3 Cl3_5 1_555 1_555
N1_5 N2_5 1_555 1_555
C1_5 N1_5 1_555 1_555
C2_5 C1_5 1_555 1_555
H1_5 C2_5 1_555 1_555
N3_5 N4_5 1_555 1_555
N4_5 N8 1_555 1_555
C3_5 C2_5 1_555 1_555
N8 C4_5 1_555 1_555
C4_5 C3_5 1_555 1_555
C5_5 C4_5 1_555 1_555
H2_5 C5_5 1_555 1_555
N7_2 N2_5 1_555 1_555
C6_5 C1_5 1_555 1_555
Co4 N4_5 1_555 1_555
Cl2_5 Co4 1_555 1_555
Co5_6 N1_5 1_555 1_555
Co6_2 N3_5 1_555 1_555
N10_5 Co4 1_555 1_555
N3_5 C3_5 1_555 1_555
C5_5 C6_5 1_555 1_555
N7_2 C6_5 1_555 1_555
Cl2_5 Co6_2 1_555 1_555
Co3_2 Cl1_5 1_555 1_555
Cl1_5 Co5_8 1_555 1_555
N9_5 Co3_2 1_555 1_555
Cl2_6 Co4_3 1_555 1_555
N10_6 Co4_3 1_555 1_555
Cl2_6 Co6_8 1_555 1_555
Co3_3 Cl1_6 1_555 1_555
Cl1_6 Co5_10 1_555 1_555
N1_6 N2_6 1_555 1_555
N2_6 Co3_3 1_555 1_555
C1_6 N1_6 1_555 1_555
C2_6 C1_6 1_555 1_555
H1_6 C2_6 1_555 1_555
N3_6 N4_6 1_555 1_555
N4_6 N8_3 1_555 1_555
C3_6 C2_6 1_555 1_555
N8_3 C4_6 1_555 1_555
C4_6 C3_6 1_555 1_555
C5_6 C4_6 1_555 1_555
H2_6 C5_6 1_555 1_555
N7_3 N2_6 1_555 1_555
C6_6 C1_6 1_555 1_555
Co5_10 N1_6 1_555 1_555
Co6_10 N3_6 1_555 1_555
N9_6 Co3_3 1_555 1_555
N3_6 C3_6 1_555 1_555
C5_6 C6_6 1_555 1_555
N7_3 C6_6 1_555 1_555
N9_4 N2_7 1_555 1_555
N2_7 Co5_9 1_555 1_555
C1_7 N9_4 1_555 1_555
C2_7 C1_7 1_555 1_555
H1_7 C2_7 1_555 1_555
N10 N4_7 1_555 1_555
C3_7 C2_7 1_555 1_555
Co6 N4_7 1_555 1_555
N10 C3_7 1_555 1_555
N2_8 Co5_10 1_555 1_555
N4_8 N10_5 1_555 1_555
N10_5 C4_7 1_555 1_555
C5_7 C4_7 1_555 1_555
H2_7 C5_7 1_555 1_555
N9_6 N2_8 1_555 1_555
Co6_2 N4_8 1_555 1_555
C5_7 C6_7 1_555 1_555
N9_6 C6_7 1_555 1_555
N2_9 Co5 1_555 1_555
Co6_7 N4_9 1_555 1_555
N2_10 Co5_2 1_555 1_555
N4_10 N10_6 1_555 1_555
N10_6 C4_8 1_555 1_555
C5_8 C4_8 1_555 1_555
H2_8 C5_8 1_555 1_555
N9_2 N2_10 1_555 1_555
Co6_8 N4_10 1_555 1_555
C5_8 C6_8 1_555 1_555
N9_2 C6_8 1_555 1_555
N9 N2_11 1_555 1_555
N2_11 Co5_3 1_555 1_555
C1_8 N9 1_555 1_555
C2_8 C1_8 1_555 1_555
H1_8 C2_8 1_555 1_555
N10_3 N4_11 1_555 1_555
C3_8 C2_8 1_555 1_555
Co6_9 N4_11 1_555 1_555
N10_3 C3_8 1_555 1_555
N2_12 Co5_4 1_555 1_555
Co6_10 N4_12 1_555 1_555
N9_3 N2_13 1_555 1_555
N2_13 Co5_5 1_555 1_555
C1_9 N9_3 1_555 1_555
C2_9 C1_9 1_555 1_555
H1_9 C2_9 1_555 1_555
N10_4 N4_13 1_555 1_555
C3_9 C2_9 1_555 1_555
Co6_3 N4_13 1_555 1_555
N10_4 C3_9 1_555 1_555
N2_14 Co5_6 1_555 1_555
Co6_4 N4_14 1_555 1_555
N2_15 Co5_7 1_555 1_555
Co6_5 N4_15 1_555 1_555
N2_16 Co5_8 1_555 1_555
N4_16 N10_2 1_555 1_555
N10_2 C4_9 1_555 1_555
C5_9 C4_9 1_555 1_555
H2_9 C5_9 1_555 1_555
N9_5 N2_16 1_555 1_555
Co6_6 N4_16 1_555 1_555
C5_9 C6_9 1_555 1_555
N9_5 C6_9 1_555 1_555

#END
