
###############################################################################
#
# This file contains modified crystal structure data generated from the
# MOF subset of the Cambridge Structural Database (CSD) v543 
# hosted by the Cambridge Crystallographic Data Centre (CCDC).
#
# This work is licensed under the Creative Commons
# Attribution-NonCommercial-ShareAlike 4.0 International License.
# To view a copy of this license, visit
# http://creativecommons.org/licenses/by-nc-sa/4.0/
# or send a letter to
# Creative Commons, PO Box 1866, Mountain View, CA 94042, USA.
#
# CIF created using the CSD Python API on 29 September 2022
# The structure has been converted into the P1 space group
# The structure has a 3D framework
# The original CSD entry ERAJEO is in the rhombohedral crystal system
# The framework has been calculated to contain at least 10.0% void space
# The void calculation uses a probe of radius 1.32A, grid spacing 0.4
#
###############################################################################

data_ERAJEO
_chemical_formula_moiety         '(C54 H18 Cl9 Co12 N60)n'
_symmetry_cell_setting           triclinic
_symmetry_space_group_name_H-M   'P 1'
_symmetry_Int_Tables_number      1
_space_group_name_Hall           'P 1'
loop_
_symmetry_equiv_pos_site_id
_symmetry_equiv_pos_as_xyz
1 x,y,z
_cell_length_a                   24.9710
_cell_length_b                   24.9710
_cell_length_c                   8.1938
_cell_angle_alpha                90
_cell_angle_beta                 90
_cell_angle_gamma                120
_cell_volume                     4424.74
loop_
_atom_site_label
_atom_site_type_symbol
_atom_site_fract_x
_atom_site_fract_y
_atom_site_fract_z
_atom_site_U_iso_or_equiv
_atom_site_thermal_displace_type
Co6 Co -0.00000 0.28735 0.00000 0.0643 Uiso
Cl1 Cl -0.00000 0.42491 0.50000 0.0434 Uiso
Co3 Co 0.04598 0.37931 0.66667 0.0643 Uiso
Co6_2 Co -0.00000 0.28735 1.00000 0.0643 Uiso
N9 N 0.03648 0.33334 0.33333 0.0526 Uiso
Co6_3 Co 1.00000 0.28735 0.00000 0.0643 Uiso
Co7 Co 0.71265 0.00000 0.00000 0.0643 Uiso
N1 N 0.93004 0.27432 0.52845 0.0505 Uiso
C1 C 0.87812 0.21959 0.57695 0.0435 Uiso
Co1 Co 0.95402 0.33333 0.33333 0.0643 Uiso
Cl1_2 Cl 1.00000 0.42491 0.50000 0.0434 Uiso
N2 N 0.96352 0.29686 0.66667 0.0526 Uiso
C2 C 0.82432 0.17568 0.48750 0.0435 Uiso
H1 H 0.81737 0.18263 0.35989 0.0500 Uiso
N3 N 0.72568 0.06996 0.52845 0.0505 Uiso
C3 C 0.78041 0.12188 0.57695 0.0435 Uiso
N4 N 0.70314 0.03648 0.66667 0.0526 Uiso
N5 N 0.94099 0.26337 0.80488 0.0505 Uiso
C4 C 0.88626 0.21145 0.75638 0.0435 Uiso
C5 C 0.84235 0.15765 0.84583 0.0435 Uiso
H2 H 0.84930 0.15070 0.97344 0.0500 Uiso
N6 N 0.73663 0.05901 0.80488 0.0505 Uiso
C6 C 0.78855 0.11374 0.75638 0.0435 Uiso
Co2 Co 0.66667 0.04598 0.33333 0.0643 Uiso
Cl2 Cl 0.90842 0.24176 0.16667 0.0434 Uiso
N7 N 0.98905 0.39235 0.13822 0.0505 Uiso
N8 N 0.60765 0.01095 0.13822 0.0505 Uiso
Co6_4 Co 1.00000 0.28735 1.00000 0.0643 Uiso
Co7_2 Co 0.71265 0.00000 1.00000 0.0643 Uiso
Cl3 Cl 0.57509 0.00000 0.50000 0.0434 Uiso
Cl4 Cl 0.75824 0.09158 0.16667 0.0434 Uiso
Co7_3 Co 0.71265 1.00000 0.00000 0.0643 Uiso
Co4 Co 0.62069 0.95402 0.66667 0.0643 Uiso
Co7_4 Co 0.71265 1.00000 1.00000 0.0643 Uiso
Cl3_2 Cl 0.57509 1.00000 0.50000 0.0434 Uiso
N10 N 0.66666 0.96352 0.33333 0.0526 Uiso
Co7_5 Co -0.00000 0.71264 0.00000 0.0643 Uiso
Co4_2 Co 0.04598 0.66667 0.66667 0.0643 Uiso
Co7_6 Co -0.00000 0.71264 1.00000 0.0643 Uiso
Cl3_3 Cl -0.00000 0.57509 0.50000 0.0434 Uiso
N10_2 N 0.03648 0.70314 0.33333 0.0526 Uiso
Co6_5 Co 0.71265 0.71264 0.00000 0.0643 Uiso
Co7_7 Co 1.00000 0.71264 0.00000 0.0643 Uiso
N1_2 N 0.72568 0.65572 0.52845 0.0505 Uiso
C1_2 C 0.78041 0.65853 0.57695 0.0435 Uiso
Co1_2 Co 0.66667 0.62069 0.33333 0.0643 Uiso
Cl1_3 Cl 0.57509 0.57509 0.50000 0.0434 Uiso
N2_2 N 0.70314 0.66666 0.66667 0.0526 Uiso
C2_2 C 0.82432 0.64864 0.48750 0.0435 Uiso
H1_2 H 0.81737 0.63474 0.35989 0.0500 Uiso
N3_2 N 0.93004 0.65572 0.52845 0.0505 Uiso
C3_2 C 0.87812 0.65853 0.57695 0.0435 Uiso
N4_2 N 0.96352 0.66666 0.66667 0.0526 Uiso
N5_2 N 0.73663 0.67761 0.80488 0.0505 Uiso
C4_2 C 0.78855 0.67480 0.75638 0.0435 Uiso
C5_2 C 0.84235 0.68469 0.84583 0.0435 Uiso
H2_2 H 0.84930 0.69859 0.97344 0.0500 Uiso
N6_2 N 0.94099 0.67761 0.80488 0.0505 Uiso
C6_2 C 0.88626 0.67480 0.75638 0.0435 Uiso
Co2_2 Co 0.95402 0.62069 0.33333 0.0643 Uiso
Cl2_2 Cl 0.75824 0.66667 0.16667 0.0434 Uiso
N7_2 N 0.60765 0.59671 0.13822 0.0505 Uiso
N8_2 N 0.98905 0.59671 0.13822 0.0505 Uiso
Co3_2 Co 0.62069 0.66667 0.66667 0.0643 Uiso
Co6_6 Co 0.71265 0.71264 1.00000 0.0643 Uiso
Co7_8 Co 1.00000 0.71264 1.00000 0.0643 Uiso
Cl3_4 Cl 1.00000 0.57509 0.50000 0.0434 Uiso
Cl4_2 Cl 0.90842 0.66667 0.16667 0.0434 Uiso
N9_2 N 0.66666 0.70314 0.33333 0.0526 Uiso
Co6_7 Co 0.28736 0.00000 0.00000 0.0643 Uiso
Co7_9 Co 0.28736 0.28735 0.00000 0.0643 Uiso
N1_3 N 0.34428 0.06996 0.52845 0.0505 Uiso
C1_3 C 0.34147 0.12188 0.57695 0.0435 Uiso
Co1_3 Co 0.37931 0.04598 0.33333 0.0643 Uiso
Cl1_4 Cl 0.42491 0.00000 0.50000 0.0434 Uiso
N2_3 N 0.33334 0.03648 0.66667 0.0526 Uiso
C2_3 C 0.35136 0.17568 0.48750 0.0435 Uiso
H1_3 H 0.36526 0.18263 0.35989 0.0500 Uiso
N3_3 N 0.34428 0.27432 0.52845 0.0505 Uiso
C3_3 C 0.34147 0.21959 0.57695 0.0435 Uiso
N4_3 N 0.33334 0.29686 0.66667 0.0526 Uiso
N5_3 N 0.32239 0.05901 0.80488 0.0505 Uiso
C4_3 C 0.32520 0.11374 0.75638 0.0435 Uiso
C5_3 C 0.31531 0.15765 0.84583 0.0435 Uiso
H2_3 H 0.30141 0.15070 0.97344 0.0500 Uiso
N6_3 N 0.32239 0.26337 0.80488 0.0505 Uiso
C6_3 C 0.32520 0.21145 0.75638 0.0435 Uiso
Co2_3 Co 0.37931 0.33333 0.33333 0.0643 Uiso
Cl2_3 Cl 0.33333 0.09158 0.16667 0.0434 Uiso
N7_3 N 0.40329 0.01095 0.13822 0.0505 Uiso
N8_3 N 0.40329 0.39235 0.13822 0.0505 Uiso
Co4_3 Co 0.33333 0.37931 0.66667 0.0643 Uiso
Co6_8 Co 0.28736 0.00000 1.00000 0.0643 Uiso
Co7_10 Co 0.28736 0.28735 1.00000 0.0643 Uiso
Cl3_5 Cl 0.42491 0.42491 0.50000 0.0434 Uiso
Cl4_3 Cl 0.33333 0.24176 0.16667 0.0434 Uiso
N10_3 N 0.29686 0.33334 0.33333 0.0526 Uiso
Co6_9 Co 0.28736 1.00000 0.00000 0.0643 Uiso
Cl1_5 Cl 0.42491 1.00000 0.50000 0.0434 Uiso
Co3_3 Co 0.33333 0.95402 0.66667 0.0643 Uiso
Co6_10 Co 0.28736 1.00000 1.00000 0.0643 Uiso
N9_3 N 0.29686 0.96352 0.33333 0.0526 Uiso
N1_4 N 0.27432 0.93004 0.47155 0.0505 Uiso
C1_4 C 0.21959 0.87812 0.42305 0.0435 Uiso
C2_4 C 0.17568 0.82432 0.51250 0.0435 Uiso
H1_4 H 0.18263 0.81737 0.64011 0.0500 Uiso
N3_4 N 0.06996 0.72568 0.47155 0.0505 Uiso
C3_4 C 0.12188 0.78041 0.42305 0.0435 Uiso
N5_4 N 0.26337 0.94099 0.19512 0.0505 Uiso
C4_4 C 0.21145 0.88626 0.24362 0.0435 Uiso
C5_4 C 0.15765 0.84235 0.15417 0.0435 Uiso
H2_4 H 0.15070 0.84930 0.02656 0.0500 Uiso
N6_4 N 0.05901 0.73663 0.19512 0.0505 Uiso
C6_4 C 0.11374 0.78855 0.24362 0.0435 Uiso
Cl2_4 Cl 0.24176 0.90842 0.83333 0.0434 Uiso
N7_4 N 0.39235 0.98905 0.86178 0.0505 Uiso
N8_4 N 0.01095 0.60765 0.86178 0.0505 Uiso
Cl4_4 Cl 0.09158 0.75824 0.83333 0.0434 Uiso
N1_5 N 0.65572 0.72568 0.47155 0.0505 Uiso
C1_5 C 0.65853 0.78041 0.42305 0.0435 Uiso
C2_5 C 0.64864 0.82432 0.51250 0.0435 Uiso
H1_5 H 0.63474 0.81737 0.64011 0.0500 Uiso
N3_5 N 0.65572 0.93004 0.47155 0.0505 Uiso
C3_5 C 0.65853 0.87812 0.42305 0.0435 Uiso
N5_5 N 0.67761 0.73663 0.19512 0.0505 Uiso
C4_5 C 0.67480 0.78855 0.24362 0.0435 Uiso
C5_5 C 0.68469 0.84235 0.15417 0.0435 Uiso
H2_5 H 0.69859 0.84930 0.02656 0.0500 Uiso
N6_5 N 0.67761 0.94099 0.19512 0.0505 Uiso
C6_5 C 0.67480 0.88626 0.24362 0.0435 Uiso
Cl2_5 Cl 0.66667 0.75824 0.83333 0.0434 Uiso
N7_5 N 0.59671 0.60765 0.86178 0.0505 Uiso
N8_5 N 0.59671 0.98905 0.86178 0.0505 Uiso
Cl4_5 Cl 0.66667 0.90842 0.83333 0.0434 Uiso
N1_6 N 0.06996 0.34428 0.47155 0.0505 Uiso
C1_6 C 0.12188 0.34147 0.42305 0.0435 Uiso
C2_6 C 0.17568 0.35136 0.51250 0.0435 Uiso
H1_6 H 0.18263 0.36526 0.64011 0.0500 Uiso
N3_6 N 0.27432 0.34428 0.47155 0.0505 Uiso
C3_6 C 0.21959 0.34147 0.42305 0.0435 Uiso
N5_6 N 0.05901 0.32239 0.19512 0.0505 Uiso
C4_6 C 0.11374 0.32520 0.24362 0.0435 Uiso
C5_6 C 0.15765 0.31531 0.15417 0.0435 Uiso
H2_6 H 0.15070 0.30141 0.02656 0.0500 Uiso
N6_6 N 0.26337 0.32239 0.19512 0.0505 Uiso
C6_6 C 0.21145 0.32520 0.24362 0.0435 Uiso
Cl2_6 Cl 0.09158 0.33333 0.83333 0.0434 Uiso
N7_6 N 0.01095 0.40329 0.86178 0.0505 Uiso
N8_6 N 0.39235 0.40329 0.86178 0.0505 Uiso
Cl4_6 Cl 0.24176 0.33333 0.83333 0.0434 Uiso
N2_4 N 0.63019 0.63019 0.00000 0.0526 Uiso
N4_4 N 0.36981 0.36981 0.00000 0.0526 Uiso
C4_7 C 0.55292 0.54479 0.08972 0.0435 Uiso
C5_7 C 0.50901 0.49099 0.17917 0.0435 Uiso
H2_7 H 0.51596 0.48404 0.30678 0.0500 Uiso
C6_7 C 0.45521 0.44708 0.08972 0.0435 Uiso
C1_7 C 0.54479 0.55292 0.91028 0.0435 Uiso
N2_5 N 0.63019 0.63019 1.00000 0.0526 Uiso
C2_7 C 0.49099 0.50901 0.82083 0.0435 Uiso
H1_7 H 0.48404 0.51596 0.69322 0.0500 Uiso
C3_7 C 0.44708 0.45521 0.91028 0.0435 Uiso
N4_5 N 0.36981 0.36981 1.00000 0.0526 Uiso
N2_6 N 0.36981 -0.00001 0.00000 0.0526 Uiso
N4_6 N 0.63019 -0.00001 0.00000 0.0526 Uiso
C4_8 C 0.45521 0.00814 0.08972 0.0435 Uiso
C5_8 C 0.50901 0.01803 0.17917 0.0435 Uiso
H2_8 H 0.51596 0.03193 0.30678 0.0500 Uiso
C6_8 C 0.55292 0.00814 0.08972 0.0435 Uiso
N2_7 N 0.36981 -0.00001 1.00000 0.0526 Uiso
N4_7 N 0.63019 -0.00001 1.00000 0.0526 Uiso
N2_8 N 0.36981 0.99999 0.00000 0.0526 Uiso
N4_8 N 0.63019 0.99999 0.00000 0.0526 Uiso
C1_8 C 0.44708 0.99186 0.91028 0.0435 Uiso
N2_9 N 0.36981 0.99999 1.00000 0.0526 Uiso
C2_8 C 0.49099 0.98197 0.82083 0.0435 Uiso
H1_8 H 0.48404 0.96807 0.69322 0.0500 Uiso
C3_8 C 0.54479 0.99186 0.91028 0.0435 Uiso
N4_9 N 0.63019 0.99999 1.00000 0.0526 Uiso
N2_10 N 0.00001 0.36981 0.00000 0.0526 Uiso
N4_10 N 0.00001 0.63019 0.00000 0.0526 Uiso
C1_9 C 0.00814 0.45521 0.91028 0.0435 Uiso
N2_11 N 0.00001 0.36981 1.00000 0.0526 Uiso
C2_9 C 0.01803 0.50901 0.82083 0.0435 Uiso
H1_9 H 0.03193 0.51596 0.69322 0.0500 Uiso
C3_9 C 0.00814 0.55292 0.91028 0.0435 Uiso
N4_11 N 0.00001 0.63019 1.00000 0.0526 Uiso
N2_12 N 1.00001 0.36981 0.00000 0.0526 Uiso
N4_12 N 1.00001 0.63019 0.00000 0.0526 Uiso
C4_9 C 0.99186 0.44708 0.08972 0.0435 Uiso
C5_9 C 0.98197 0.49099 0.17917 0.0435 Uiso
H2_9 H 0.96807 0.48404 0.30678 0.0500 Uiso
C6_9 C 0.99186 0.54479 0.08972 0.0435 Uiso
N2_13 N 1.00001 0.36981 1.00000 0.0526 Uiso
N4_13 N 1.00001 0.63019 1.00000 0.0526 Uiso
loop_
_geom_bond_atom_site_label_1
_geom_bond_atom_site_label_2
_geom_bond_site_symmetry_1
_geom_bond_site_symmetry_2
Co3 Cl1 1_555 1_555
N1 C1 1_555 1_555
C1 C2 1_555 1_555
Co1 N1 1_555 1_555
Cl1_2 Co1 1_555 1_555
N2 N1 1_555 1_555
C2 H1 1_555 1_555
N3 C3 1_555 1_555
C3 C2 1_555 1_555
N4 N3 1_555 1_555
N5 N2 1_555 1_555
C4 C1 1_555 1_555
C5 C4 1_555 1_555
H2 C5 1_555 1_555
N6 N4 1_555 1_555
C6 C3 1_555 1_555
Co2 N3 1_555 1_555
Cl2 Co1 1_555 1_555
N7 Co1 1_555 1_555
N8 Co2 1_555 1_555
Co6_3 Cl2 1_555 1_555
Co6_4 N5 1_555 1_555
Co7_2 N6 1_555 1_555
Cl3 Co2 1_555 1_555
Cl4 Co2 1_555 1_555
N5 C4 1_555 1_555
C5 C6 1_555 1_555
N6 C6 1_555 1_555
Co4 Cl3_2 1_555 1_555
Co4_2 Cl3_3 1_555 1_555
N1_2 C1_2 1_555 1_555
C1_2 C2_2 1_555 1_555
Co1_2 N1_2 1_555 1_555
Cl1_3 Co1_2 1_555 1_555
N2_2 N1_2 1_555 1_555
C2_2 H1_2 1_555 1_555
N3_2 C3_2 1_555 1_555
C3_2 C2_2 1_555 1_555
N4_2 N3_2 1_555 1_555
N5_2 N2_2 1_555 1_555
C4_2 C1_2 1_555 1_555
C5_2 C4_2 1_555 1_555
H2_2 C5_2 1_555 1_555
N6_2 N4_2 1_555 1_555
C6_2 C3_2 1_555 1_555
Co2_2 N3_2 1_555 1_555
Cl2_2 Co1_2 1_555 1_555
N7_2 Co1_2 1_555 1_555
N8_2 Co2_2 1_555 1_555
Co3_2 Cl1_3 1_555 1_555
Co6_5 Cl2_2 1_555 1_555
Co6_6 N5_2 1_555 1_555
Co7_8 N6_2 1_555 1_555
Cl3_4 Co2_2 1_555 1_555
Cl4_2 Co2_2 1_555 1_555
N9_2 Co1_2 1_555 1_555
N2_2 Co3_2 1_555 1_555
N5_2 C4_2 1_555 1_555
C5_2 C6_2 1_555 1_555
N6_2 C6_2 1_555 1_555
N1_3 C1_3 1_555 1_555
C1_3 C2_3 1_555 1_555
Co1_3 N1_3 1_555 1_555
Cl1_4 Co1_3 1_555 1_555
N2_3 N1_3 1_555 1_555
C2_3 H1_3 1_555 1_555
N3_3 C3_3 1_555 1_555
C3_3 C2_3 1_555 1_555
N4_3 N3_3 1_555 1_555
N5_3 N2_3 1_555 1_555
C4_3 C1_3 1_555 1_555
C5_3 C4_3 1_555 1_555
H2_3 C5_3 1_555 1_555
N6_3 N4_3 1_555 1_555
C6_3 C3_3 1_555 1_555
Co2_3 N3_3 1_555 1_555
Cl2_3 Co1_3 1_555 1_555
N7_3 Co1_3 1_555 1_555
N8_3 Co2_3 1_555 1_555
Co4_3 N4_3 1_555 1_555
Co6_7 Cl2_3 1_555 1_555
Co6_8 N5_3 1_555 1_555
Co7_10 N6_3 1_555 1_555
Cl3_5 Co2_3 1_555 1_555
Cl4_3 Co2_3 1_555 1_555
N10_3 Co2_3 1_555 1_555
N5_3 C4_3 1_555 1_555
C5_3 C6_3 1_555 1_555
N6_3 C6_3 1_555 1_555
Co4_3 Cl3_5 1_555 1_555
Co3_3 Cl1_5 1_555 1_555
N1_4 C1_4 1_555 1_555
C1_4 C2_4 1_555 1_555
Co3_3 N1_4 1_555 1_555
N9_3 N1_4 1_555 1_555
C2_4 H1_4 1_555 1_555
N3_4 C3_4 1_555 1_555
C3_4 C2_4 1_555 1_555
N10_2 N3_4 1_555 1_555
N5_4 N9_3 1_555 1_555
C4_4 C1_4 1_555 1_555
C5_4 C4_4 1_555 1_555
H2_4 C5_4 1_555 1_555
N6_4 N10_2 1_555 1_555
C6_4 C3_4 1_555 1_555
Co4_2 N3_4 1_555 1_555
Cl2_4 Co3_3 1_555 1_555
N7_4 Co3_3 1_555 1_555
N8_4 Co4_2 1_555 1_555
Co6_10 Cl2_4 1_555 1_555
Co6_9 N5_4 1_555 1_555
Co7_5 N6_4 1_555 1_555
Cl4_4 Co4_2 1_555 1_555
N5_4 C4_4 1_555 1_555
C5_4 C6_4 1_555 1_555
N6_4 C6_4 1_555 1_555
N1_5 C1_5 1_555 1_555
C1_5 C2_5 1_555 1_555
Co3_2 N1_5 1_555 1_555
N9_2 N1_5 1_555 1_555
C2_5 H1_5 1_555 1_555
N3_5 C3_5 1_555 1_555
C3_5 C2_5 1_555 1_555
N10 N3_5 1_555 1_555
N5_5 N9_2 1_555 1_555
C4_5 C1_5 1_555 1_555
C5_5 C4_5 1_555 1_555
H2_5 C5_5 1_555 1_555
N6_5 N10 1_555 1_555
C6_5 C3_5 1_555 1_555
Co4 N3_5 1_555 1_555
Cl2_5 Co3_2 1_555 1_555
N7_5 Co3_2 1_555 1_555
N8_5 Co4 1_555 1_555
Co6_6 Cl2_5 1_555 1_555
Co6_5 N5_5 1_555 1_555
Co7_3 N6_5 1_555 1_555
Cl4_5 Co4 1_555 1_555
N5_5 C4_5 1_555 1_555
C5_5 C6_5 1_555 1_555
N6_5 C6_5 1_555 1_555
N1_6 C1_6 1_555 1_555
C1_6 C2_6 1_555 1_555
Co3 N1_6 1_555 1_555
N9 N1_6 1_555 1_555
C2_6 H1_6 1_555 1_555
N3_6 C3_6 1_555 1_555
C3_6 C2_6 1_555 1_555
N10_3 N3_6 1_555 1_555
N5_6 N9 1_555 1_555
C4_6 C1_6 1_555 1_555
C5_6 C4_6 1_555 1_555
H2_6 C5_6 1_555 1_555
N6_6 N10_3 1_555 1_555
C6_6 C3_6 1_555 1_555
Co4_3 N3_6 1_555 1_555
Cl2_6 Co3 1_555 1_555
N7_6 Co3 1_555 1_555
N8_6 Co4_3 1_555 1_555
Co6_2 Cl2_6 1_555 1_555
Co6 N5_6 1_555 1_555
Co7_9 N6_6 1_555 1_555
Cl4_6 Co4_3 1_555 1_555
N5_6 C4_6 1_555 1_555
C5_6 C6_6 1_555 1_555
N6_6 C6_6 1_555 1_555
N7_2 N2_4 1_555 1_555
C5_7 C4_7 1_555 1_555
H2_7 C5_7 1_555 1_555
N8_3 N4_4 1_555 1_555
Co7_9 N4_4 1_555 1_555
N2_4 Co6_5 1_555 1_555
N7_2 C4_7 1_555 1_555
C5_7 C6_7 1_555 1_555
N8_3 C6_7 1_555 1_555
N7_5 C1_7 1_555 1_555
C1_7 C2_7 1_555 1_555
N2_5 N7_5 1_555 1_555
C2_7 H1_7 1_555 1_555
N8_6 C3_7 1_555 1_555
C3_7 C2_7 1_555 1_555
N4_5 N8_6 1_555 1_555
Co7_10 N4_5 1_555 1_555
N2_5 Co6_6 1_555 1_555
Co7_10 Cl4_6 1_555 1_555
N7_3 N2_6 1_555 1_555
C5_8 C4_8 1_555 1_555
H2_8 C5_8 1_555 1_555
N8 N4_6 1_555 1_555
Co7 N4_6 1_555 1_555
N2_6 Co6_7 1_555 1_555
N7_3 C4_8 1_555 1_555
C5_8 C6_8 1_555 1_555
N8 C6_8 1_555 1_555
Co7_2 N4_7 1_555 1_555
N2_7 Co6_8 1_555 1_555
Co7_3 N4_8 1_555 1_555
N2_8 Co6_9 1_555 1_555
N7_4 C1_8 1_555 1_555
C1_8 C2_8 1_555 1_555
N2_9 N7_4 1_555 1_555
C2_8 H1_8 1_555 1_555
N8_5 C3_8 1_555 1_555
C3_8 C2_8 1_555 1_555
N4_9 N8_5 1_555 1_555
Co7_4 N4_9 1_555 1_555
N2_9 Co6_10 1_555 1_555
Co7_4 Cl4_5 1_555 1_555
Co7_5 N4_10 1_555 1_555
N2_10 Co6 1_555 1_555
N7_6 C1_9 1_555 1_555
C1_9 C2_9 1_555 1_555
N2_11 N7_6 1_555 1_555
C2_9 H1_9 1_555 1_555
N8_4 C3_9 1_555 1_555
C3_9 C2_9 1_555 1_555
N4_11 N8_4 1_555 1_555
Co7_6 N4_11 1_555 1_555
N2_11 Co6_2 1_555 1_555
Co7_6 Cl4_4 1_555 1_555
N7 N2_12 1_555 1_555
C5_9 C4_9 1_555 1_555
H2_9 C5_9 1_555 1_555
N8_2 N4_12 1_555 1_555
Co7_7 N4_12 1_555 1_555
N2_12 Co6_3 1_555 1_555
N7 C4_9 1_555 1_555
C5_9 C6_9 1_555 1_555
N8_2 C6_9 1_555 1_555
Co7_8 N4_13 1_555 1_555
N2_13 Co6_4 1_555 1_555
Cl4 Co7 1_555 1_555
Cl4_3 Co7_9 1_555 1_555
Cl4_2 Co7_7 1_555 1_555

#END
