
###############################################################################
#
# This file contains modified crystal structure data generated from the
# MOF subset of the Cambridge Structural Database (CSD) v543 
# hosted by the Cambridge Crystallographic Data Centre (CCDC).
#
# This work is licensed under the Creative Commons
# Attribution-NonCommercial-ShareAlike 4.0 International License.
# To view a copy of this license, visit
# http://creativecommons.org/licenses/by-nc-sa/4.0/
# or send a letter to
# Creative Commons, PO Box 1866, Mountain View, CA 94042, USA.
#
# CIF created using the CSD Python API on 29 September 2022
# The structure has been converted into the P1 space group
# The structure has a 3D framework
# The original CSD entry ERAJAK01 is in the rhombohedral crystal system
# The framework has been calculated to contain at least 10.0% void space
# The void calculation uses a probe of radius 1.32A, grid spacing 0.4
#
###############################################################################

data_ERAJAK01
_chemical_formula_moiety         '(C54 H18 Co16 N60 O9)n'
_symmetry_cell_setting           triclinic
_symmetry_space_group_name_H-M   'P 1'
_symmetry_Int_Tables_number      1
_space_group_name_Hall           'P 1'
loop_
_symmetry_equiv_pos_site_id
_symmetry_equiv_pos_as_xyz
1 x,y,z
_cell_length_a                   25.31862(75)
_cell_length_b                   25.31862(75)
_cell_length_c                   7.97566(38)
_cell_angle_alpha                90
_cell_angle_beta                 90
_cell_angle_gamma                120
_cell_volume                     4427.69
loop_
_atom_site_label
_atom_site_type_symbol
_atom_site_fract_x
_atom_site_fract_y
_atom_site_fract_z
_atom_site_U_iso_or_equiv
_atom_site_thermal_displace_type
Co1 Co -0.000000 0.29121(13) 0.000000 0.0469 Uiso
N1 N 0.06029(23) 0.31921(31) 0.2069(14) 0.0470 Uiso
N2 N 0.03723(59) 0.333333 0.333333 0.0470 Uiso
C1 C 0.11397(24) 0.32154(39) 0.2513(14) 0.0470 Uiso
C2 C 0.15524(36) 0.31049(72) 0.1682(22) 0.0470 Uiso
H1 H 0.1467 0.2934 0.0399 0.0470 Uiso
N3 N 0.25892(39) 0.31921(31) 0.2069(14) 0.0470 Uiso
N4 N 0.29610(59) 0.333333 0.333333 0.0470 Uiso
C3 C 0.20757(46) 0.32154(39) 0.2513(14) 0.0470 Uiso
N5 N 0.27304(23) 0.34746(31) 0.4598(14) 0.0470 Uiso
C4 C 0.21936(24) 0.34513(39) 0.4154(14) 0.0470 Uiso
C5 C 0.17809(36) 0.35618(72) 0.4985(22) 0.0470 Uiso
H2 H 0.1866 0.3733 0.6268 0.0470 Uiso
N6 N 0.07441(39) 0.34746(31) 0.4598(14) 0.0470 Uiso
C6 C 0.12576(46) 0.34513(39) 0.4154(14) 0.0470 Uiso
Co2 Co 0.29121(13) 0.29121(13) 0.000000 0.0469 Uiso
O2 O 0.33334(54) 0.25891(38) 0.166667 0.0480 Uiso
Co4 Co 0.37546(13) 0.333333 0.333333 0.0469 Uiso
Co5 Co 0.333333 0.37546(13) 0.666667 0.0469 Uiso
Co6 Co 0.04212(13) 0.37546(13) 0.666667 0.0469 Uiso
N9 N -0.000000 0.37056(59) 0.000000 0.0470 Uiso
N10 N 0.37056(59) 0.37056(59) 0.000000 0.0470 Uiso
Co1_2 Co -0.000000 0.29121(13) 1.000000 0.0469 Uiso
Co2_2 Co 0.29121(13) 0.29121(13) 1.000000 0.0469 Uiso
O3 O 0.07443(38) 0.33334(54) 0.833333 0.0480 Uiso
O4 O 0.25891(38) 0.33334(54) 0.833333 0.0480 Uiso
N8 N 0.31921(31) 0.25892(39) 0.7931(14) 0.0470 Uiso
N9_2 N -0.000000 0.37056(59) 1.000000 0.0470 Uiso
N10_2 N 0.37056(59) 0.37056(59) 1.000000 0.0470 Uiso
Co1_3 Co 1.000000 0.29121(13) 0.000000 0.0469 Uiso
O1 O 0.92557(38) 0.25891(38) 0.166667 0.0480 Uiso
Co3 Co 0.95788(13) 0.333333 0.333333 0.0469 Uiso
N9_3 N 1.000000 0.37056(59) 0.000000 0.0470 Uiso
Co1_4 Co 1.000000 0.29121(13) 1.000000 0.0469 Uiso
N7 N 0.93971(23) 0.25892(39) 0.7931(14) 0.0470 Uiso
N9_4 N 1.000000 0.37056(59) 1.000000 0.0470 Uiso
Co2_3 Co 0.70879(13) 0.00000(18) 0.000000 0.0469 Uiso
O4_2 O 0.74109(38) 0.07443(66) 0.166667 0.0480 Uiso
N10_3 N 0.62944(59) -0.00000(83) -0.000000 0.0470 Uiso
N2_2 N 0.96277(59) 0.29610(59) 0.666667 0.0470 Uiso
C1_2 C 0.88603(24) 0.20757(46) 0.7487(14) 0.0470 Uiso
C2_2 C 0.84476(36) 0.15525(80) 0.8318(22) 0.0470 Uiso
H1_2 H 0.8533 0.1467 0.9601 0.0470 Uiso
N3_2 N 0.74108(39) 0.06029(50) 0.7931(14) 0.0470 Uiso
N4_2 N 0.70390(59) 0.03723(59) 0.666667 0.0470 Uiso
C3_2 C 0.79243(46) 0.11397(60) 0.7487(14) 0.0470 Uiso
N5_2 N 0.72696(23) 0.07441(39) 0.5402(14) 0.0470 Uiso
C4_2 C 0.78064(24) 0.12576(46) 0.5846(14) 0.0470 Uiso
C5_2 C 0.82191(36) 0.17808(80) 0.5015(22) 0.0470 Uiso
H2_2 H 0.8134 0.1866 0.3732 0.0470 Uiso
N6_2 N 0.92559(39) 0.27304(50) 0.5402(14) 0.0470 Uiso
C6_2 C 0.87424(46) 0.21936(60) 0.5846(14) 0.0470 Uiso
Co2_4 Co 0.70879(13) 0.00000(18) 1.000000 0.0469 Uiso
Co5_2 Co 0.666667 0.04212(13) 0.333333 0.0469 Uiso
N10_4 N 0.62944(59) -0.00000(83) 1.000000 0.0470 Uiso
Co2_5 Co 0.70879(13) 1.00000(18) 0.000000 0.0469 Uiso
N8_2 N 0.68079(31) 0.93971(50) 0.2069(14) 0.0470 Uiso
N10_5 N 0.62944(59) 1.00000(83) -0.000000 0.0470 Uiso
Co2_6 Co 0.70879(13) 1.00000(18) 1.000000 0.0469 Uiso
O2_2 O 0.66666(54) 0.92557(66) 0.833333 0.0480 Uiso
Co4_2 Co 0.62454(13) 0.95788(13) 0.666667 0.0469 Uiso
N10_6 N 0.62944(59) 1.00000(83) 1.000000 0.0470 Uiso
Co1_5 Co 0.29121(13) 0.000000 0.000000 0.0469 Uiso
O1_2 O 0.33334(54) 0.07443(38) 0.166667 0.0480 Uiso
Co3_2 Co 0.37546(13) 0.04212(13) 0.333333 0.0469 Uiso
N9_5 N 0.37056(59) 0.000000 0.000000 0.0470 Uiso
Co1_6 Co 0.29121(13) 0.000000 1.000000 0.0469 Uiso
N7_2 N 0.31921(45) 0.06029(23) 0.7931(14) 0.0470 Uiso
N9_6 N 0.37056(59) 0.000000 1.000000 0.0470 Uiso
Co1_7 Co 0.29121(13) 1.000000 0.000000 0.0469 Uiso
N1_2 N 0.25892(39) 0.93971(23) 0.2069(14) 0.0470 Uiso
N2_3 N 0.29610(59) 0.96277(59) 0.333333 0.0470 Uiso
C1_3 C 0.20757(46) 0.88603(24) 0.2513(14) 0.0470 Uiso
C2_3 C 0.15525(80) 0.84476(36) 0.1682(22) 0.0470 Uiso
H1_3 H 0.1467 0.8533 0.0399 0.0470 Uiso
N3_3 N 0.06029(50) 0.74108(39) 0.2069(14) 0.0470 Uiso
N4_3 N 0.03723(59) 0.70390(59) 0.333333 0.0470 Uiso
C3_3 C 0.11397(60) 0.79243(46) 0.2513(14) 0.0470 Uiso
N5_3 N 0.07441(39) 0.72696(23) 0.4598(14) 0.0470 Uiso
C4_3 C 0.12576(46) 0.78064(24) 0.4154(14) 0.0470 Uiso
C5_3 C 0.17808(80) 0.82191(36) 0.4985(22) 0.0470 Uiso
H2_3 H 0.1866 0.8134 0.6268 0.0470 Uiso
N6_3 N 0.27304(50) 0.92559(39) 0.4598(14) 0.0470 Uiso
C6_3 C 0.21936(60) 0.87424(46) 0.4154(14) 0.0470 Uiso
Co2_7 Co -0.00000(18) 0.70879(13) 0.000000 0.0469 Uiso
Co5_3 Co 0.04212(13) 0.666667 0.666667 0.0469 Uiso
Co6_2 Co 0.33333(18) 0.95788(13) 0.666667 0.0469 Uiso
N9_7 N 0.37056(59) 1.000000 0.000000 0.0470 Uiso
N10_7 N -0.00000(83) 0.62944(59) 0.000000 0.0470 Uiso
Co1_8 Co 0.29121(13) 1.000000 1.000000 0.0469 Uiso
Co2_8 Co -0.00000(18) 0.70879(13) 1.000000 0.0469 Uiso
O3_2 O 0.25891(66) 0.92557(38) 0.833333 0.0480 Uiso
O4_3 O 0.07443(66) 0.74109(38) 0.833333 0.0480 Uiso
N9_8 N 0.37056(59) 1.000000 1.000000 0.0470 Uiso
N10_8 N -0.00000(83) 0.62944(59) 1.000000 0.0470 Uiso
Co2_9 Co 1.00000(18) 0.70879(13) 0.000000 0.0469 Uiso
O2_3 O 0.92557(66) 0.66666(54) 0.166667 0.0480 Uiso
Co4_3 Co 0.95788(13) 0.62454(13) 0.333333 0.0469 Uiso
N10_9 N 1.00000(83) 0.62944(59) 0.000000 0.0470 Uiso
Co2_10 Co 1.00000(18) 0.70879(13) 1.000000 0.0469 Uiso
N8_3 N 0.93971(50) 0.68079(31) 0.7931(14) 0.0470 Uiso
N10_10 N 1.00000(83) 0.62944(59) 1.000000 0.0470 Uiso
Co1_9 Co 0.70879(13) 0.70879(13) 0.000000 0.0469 Uiso
O1_3 O 0.74109(38) 0.66666(54) 0.166667 0.0480 Uiso
N1_3 N 0.68079(31) 0.74108(39) 0.2069(14) 0.0470 Uiso
N2_4 N 0.666667 0.70390(59) 0.333333 0.0470 Uiso
C1_4 C 0.67846(39) 0.79243(46) 0.2513(14) 0.0470 Uiso
C2_4 C 0.68951(72) 0.84475(80) 0.1682(22) 0.0470 Uiso
H1_4 H 0.7066 0.8533 0.0399 0.0470 Uiso
N4_4 N 0.666667 0.96277(59) 0.333333 0.0470 Uiso
C3_4 C 0.67846(39) 0.88603(60) 0.2513(14) 0.0470 Uiso
N5_4 N 0.65254(31) 0.92559(39) 0.4598(14) 0.0470 Uiso
C4_4 C 0.65487(39) 0.87424(46) 0.4154(14) 0.0470 Uiso
C5_4 C 0.64382(72) 0.82192(80) 0.4985(22) 0.0470 Uiso
H2_4 H 0.6267 0.8134 0.6268 0.0470 Uiso
N6_4 N 0.65254(31) 0.72696(50) 0.4598(14) 0.0470 Uiso
C6_4 C 0.65487(39) 0.78064(60) 0.4154(14) 0.0470 Uiso
Co3_3 Co 0.666667 0.62454(13) 0.333333 0.0469 Uiso
Co6_3 Co 0.62454(13) 0.66667(18) 0.666667 0.0469 Uiso
N9_9 N 0.62944(59) 0.62944(59) 0.000000 0.0470 Uiso
Co1_10 Co 0.70879(13) 0.70879(13) 1.000000 0.0469 Uiso
O3_3 O 0.66666(54) 0.74109(66) 0.833333 0.0480 Uiso
N7_3 N 0.74108(39) 0.68079(45) 0.7931(14) 0.0470 Uiso
N9_10 N 0.62944(59) 0.62944(59) 1.000000 0.0470 Uiso
N2_5 N 0.333333 0.03723(59) 0.666667 0.0470 Uiso
C1_5 C 0.32154(39) 0.11397(24) 0.7487(14) 0.0470 Uiso
C2_5 C 0.31049(72) 0.15524(36) 0.8318(22) 0.0470 Uiso
H1_5 H 0.2934 0.1467 0.9601 0.0470 Uiso
N4_5 N 0.333333 0.29610(59) 0.666667 0.0470 Uiso
C3_5 C 0.32154(39) 0.20757(46) 0.7487(14) 0.0470 Uiso
N5_5 N 0.34746(31) 0.27304(23) 0.5402(14) 0.0470 Uiso
C4_5 C 0.34513(39) 0.21936(24) 0.5846(14) 0.0470 Uiso
C5_5 C 0.35618(72) 0.17809(36) 0.5015(22) 0.0470 Uiso
H2_5 H 0.3733 0.1866 0.3732 0.0470 Uiso
N6_5 N 0.34746(31) 0.07441(39) 0.5402(14) 0.0470 Uiso
C6_5 C 0.34513(39) 0.12576(46) 0.5846(14) 0.0470 Uiso
N2_6 N 0.70390(59) 0.666667 0.666667 0.0470 Uiso
C1_6 C 0.79243(46) 0.67846(39) 0.7487(14) 0.0470 Uiso
C2_6 C 0.84475(80) 0.68951(72) 0.8318(22) 0.0470 Uiso
H1_6 H 0.8533 0.7066 0.9601 0.0470 Uiso
N4_6 N 0.96277(59) 0.666667 0.666667 0.0470 Uiso
C3_6 C 0.88603(60) 0.67846(39) 0.7487(14) 0.0470 Uiso
N5_6 N 0.92559(39) 0.65254(31) 0.5402(14) 0.0470 Uiso
C4_6 C 0.87424(46) 0.65487(39) 0.5846(14) 0.0470 Uiso
C5_6 C 0.82192(80) 0.64382(72) 0.5015(22) 0.0470 Uiso
H2_6 H 0.8134 0.6267 0.3732 0.0470 Uiso
N6_6 N 0.72696(50) 0.65254(31) 0.5402(14) 0.0470 Uiso
C6_6 C 0.78064(60) 0.65487(39) 0.5846(14) 0.0470 Uiso
N1_4 N 0.60638(23) 0.59225(39) 0.1264(14) 0.0470 Uiso
C1_7 C 0.55270(24) 0.54090(46) 0.0820(14) 0.0470 Uiso
C2_7 C 0.51143(36) 0.48858(80) 0.1651(22) 0.0470 Uiso
H1_7 H 0.5200 0.4800 0.2934 0.0470 Uiso
N3_4 N 0.40775(39) 0.39362(50) 0.1264(14) 0.0470 Uiso
C3_7 C 0.45910(46) 0.44730(60) 0.0820(14) 0.0470 Uiso
O3_4 O 0.59224(38) 0.59224(66) 0.500000 0.0480 Uiso
O4_4 O 0.40776(38) 0.40776(66) 0.500000 0.0480 Uiso
N5_7 N 0.39362(23) 0.40775(39) 0.8736(14) 0.0470 Uiso
C4_7 C 0.44730(24) 0.45910(46) 0.9180(14) 0.0470 Uiso
C5_7 C 0.48857(36) 0.51142(80) 0.8349(22) 0.0470 Uiso
H2_7 H 0.4800 0.5200 0.7066 0.0470 Uiso
N6_7 N 0.59225(39) 0.60638(50) 0.8736(14) 0.0470 Uiso
C6_7 C 0.54090(46) 0.55270(60) 0.9180(14) 0.0470 Uiso
O1_4 O 0.00001(54) 0.40776(38) 0.500000 0.0480 Uiso
O1_5 O 1.00001(54) 0.40776(38) 0.500000 0.0480 Uiso
O2_4 O 0.59224(66) -0.00001(54) 0.500000 0.0480 Uiso
N7_4 N 0.98588(45) 0.39362(23) 0.1264(14) 0.0470 Uiso
N8_4 N 0.60638(50) 0.01412(31) 0.1264(14) 0.0470 Uiso
O2_5 O 0.59224(66) 0.99999(54) 0.500000 0.0480 Uiso
O1_6 O 0.40776(38) -0.00001(54) 0.500000 0.0480 Uiso
N7_5 N 0.40775(39) 0.01412(45) 0.1264(14) 0.0470 Uiso
O1_7 O 0.40776(38) 0.99999(54) 0.500000 0.0480 Uiso
O4_5 O 0.00001(54) 0.59224(38) 0.500000 0.0480 Uiso
N5_8 N 0.01412(31) 0.60638(23) 0.8736(14) 0.0470 Uiso
C4_8 C 0.01179(39) 0.55270(24) 0.9180(14) 0.0470 Uiso
C5_8 C 0.02284(72) 0.51143(36) 0.8349(22) 0.0470 Uiso
H2_8 H 0.0399 0.5200 0.7066 0.0470 Uiso
N6_8 N 0.01412(31) 0.40775(39) 0.8736(14) 0.0470 Uiso
C6_8 C 0.01179(39) 0.45910(46) 0.9180(14) 0.0470 Uiso
C1_8 C 0.98821(39) 0.44730(24) 0.0820(14) 0.0470 Uiso
C2_8 C 0.97716(72) 0.48857(36) 0.1651(22) 0.0470 Uiso
H1_8 H 0.9601 0.4800 0.2934 0.0470 Uiso
N3_5 N 0.98588(31) 0.59225(39) 0.1264(14) 0.0470 Uiso
C3_8 C 0.98821(39) 0.54090(46) 0.0820(14) 0.0470 Uiso
O4_6 O 1.00001(54) 0.59224(38) 0.500000 0.0480 Uiso
C1_9 C 0.45910(46) 0.01179(39) 0.0820(14) 0.0470 Uiso
C2_9 C 0.51142(80) 0.02284(72) 0.1651(22) 0.0470 Uiso
H1_9 H 0.5200 0.0399 0.2934 0.0470 Uiso
C3_9 C 0.55270(60) 0.01179(39) 0.0820(14) 0.0470 Uiso
N5_9 N 0.59225(39) 0.98588(31) 0.8736(14) 0.0470 Uiso
C4_9 C 0.54090(46) 0.98821(39) 0.9180(14) 0.0470 Uiso
C5_9 C 0.48858(80) 0.97716(72) 0.8349(22) 0.0470 Uiso
H2_9 H 0.4800 0.9601 0.7066 0.0470 Uiso
N6_9 N 0.39362(50) 0.98588(31) 0.8736(14) 0.0470 Uiso
C6_9 C 0.44730(60) 0.98821(39) 0.9180(14) 0.0470 Uiso
loop_
_geom_bond_atom_site_label_1
_geom_bond_atom_site_label_2
_geom_bond_site_symmetry_1
_geom_bond_site_symmetry_2
N1 Co1 1_555 1_555
N2 N1 1_555 1_555
C1 N1 1_555 1_555
C2 C1 1_555 1_555
H1 C2 1_555 1_555
N3 N4 1_555 1_555
N4 N5 1_555 1_555
C3 C2 1_555 1_555
N5 C4 1_555 1_555
C4 C3 1_555 1_555
C5 C4 1_555 1_555
H2 C5 1_555 1_555
N6 N2 1_555 1_555
C6 C1 1_555 1_555
Co2 N3 1_555 1_555
O2 Co2 1_555 1_555
Co4 N4 1_555 1_555
Co5 N5 1_555 1_555
Co6 N6 1_555 1_555
N9 Co1 1_555 1_555
N10 Co2 1_555 1_555
N3 C3 1_555 1_555
C5 C6 1_555 1_555
N6 C6 1_555 1_555
O2 Co4 1_555 1_555
O3 Co1_2 1_555 1_555
O4 Co2_2 1_555 1_555
N8 Co2_2 1_555 1_555
N9_2 Co1_2 1_555 1_555
N10_2 Co2_2 1_555 1_555
Co1_3 O1 1_555 1_555
O1 Co3 1_555 1_555
N9_3 Co1_3 1_555 1_555
N7 Co1_4 1_555 1_555
N9_4 Co1_4 1_555 1_555
O3 Co6 1_555 1_555
O4_2 Co2_3 1_555 1_555
N10_3 Co2_3 1_555 1_555
N2_2 N7 1_555 1_555
C1_2 N7 1_555 1_555
C2_2 C1_2 1_555 1_555
H1_2 C2_2 1_555 1_555
N3_2 N4_2 1_555 1_555
N4_2 N5_2 1_555 1_555
C3_2 C2_2 1_555 1_555
N5_2 C4_2 1_555 1_555
C4_2 C3_2 1_555 1_555
C5_2 C4_2 1_555 1_555
H2_2 C5_2 1_555 1_555
N6_2 N2_2 1_555 1_555
C6_2 C1_2 1_555 1_555
Co2_4 N3_2 1_555 1_555
Co5_2 N5_2 1_555 1_555
Co3 N6_2 1_555 1_555
N10_4 Co2_4 1_555 1_555
N3_2 C3_2 1_555 1_555
C5_2 C6_2 1_555 1_555
N6_2 C6_2 1_555 1_555
N8_2 Co2_5 1_555 1_555
N10_5 Co2_5 1_555 1_555
O2_2 Co2_6 1_555 1_555
N10_6 Co2_6 1_555 1_555
O2_2 Co4_2 1_555 1_555
Co1_5 O1_2 1_555 1_555
O1_2 Co3_2 1_555 1_555
N9_5 Co1_5 1_555 1_555
N7_2 Co1_6 1_555 1_555
N9_6 Co1_6 1_555 1_555
N1_2 Co1_7 1_555 1_555
N2_3 N1_2 1_555 1_555
C1_3 N1_2 1_555 1_555
C2_3 C1_3 1_555 1_555
H1_3 C2_3 1_555 1_555
N3_3 N4_3 1_555 1_555
N4_3 N5_3 1_555 1_555
C3_3 C2_3 1_555 1_555
N5_3 C4_3 1_555 1_555
C4_3 C3_3 1_555 1_555
C5_3 C4_3 1_555 1_555
H2_3 C5_3 1_555 1_555
N6_3 N2_3 1_555 1_555
C6_3 C1_3 1_555 1_555
Co2_7 N3_3 1_555 1_555
Co5_3 N5_3 1_555 1_555
Co6_2 N6_3 1_555 1_555
N9_7 Co1_7 1_555 1_555
N10_7 Co2_7 1_555 1_555
N3_3 C3_3 1_555 1_555
C5_3 C6_3 1_555 1_555
N6_3 C6_3 1_555 1_555
O3_2 Co1_8 1_555 1_555
O4_3 Co2_8 1_555 1_555
N9_8 Co1_8 1_555 1_555
N10_8 Co2_8 1_555 1_555
O2_3 Co2_9 1_555 1_555
N10_9 Co2_9 1_555 1_555
O2_3 Co4_3 1_555 1_555
N8_3 Co2_10 1_555 1_555
N10_10 Co2_10 1_555 1_555
O4_2 Co5_2 1_555 1_555
Co1_9 O1_3 1_555 1_555
O1_3 Co3_3 1_555 1_555
N1_3 Co1_9 1_555 1_555
N2_4 N1_3 1_555 1_555
C1_4 N1_3 1_555 1_555
C2_4 C1_4 1_555 1_555
H1_4 C2_4 1_555 1_555
N8_2 N4_4 1_555 1_555
N4_4 N5_4 1_555 1_555
C3_4 C2_4 1_555 1_555
N5_4 C4_4 1_555 1_555
C4_4 C3_4 1_555 1_555
C5_4 C4_4 1_555 1_555
H2_4 C5_4 1_555 1_555
N6_4 N2_4 1_555 1_555
C6_4 C1_4 1_555 1_555
Co3_3 N2_4 1_555 1_555
Co4_2 N5_4 1_555 1_555
Co6_3 N6_4 1_555 1_555
N9_9 Co1_9 1_555 1_555
N8_2 C3_4 1_555 1_555
C5_4 C6_4 1_555 1_555
N6_4 C6_4 1_555 1_555
O3_3 Co1_10 1_555 1_555
N7_3 Co1_10 1_555 1_555
N9_10 Co1_10 1_555 1_555
N2_5 N7_2 1_555 1_555
C1_5 N7_2 1_555 1_555
C2_5 C1_5 1_555 1_555
H1_5 C2_5 1_555 1_555
N8 N4_5 1_555 1_555
N4_5 N5_5 1_555 1_555
C3_5 C2_5 1_555 1_555
N5_5 C4_5 1_555 1_555
C4_5 C3_5 1_555 1_555
C5_5 C4_5 1_555 1_555
H2_5 C5_5 1_555 1_555
N6_5 N2_5 1_555 1_555
C6_5 C1_5 1_555 1_555
Co5 N4_5 1_555 1_555
Co4 N5_5 1_555 1_555
Co3_2 N6_5 1_555 1_555
N8 C3_5 1_555 1_555
C5_5 C6_5 1_555 1_555
N6_5 C6_5 1_555 1_555
O4 Co5 1_555 1_555
O3_2 Co6_2 1_555 1_555
O4_3 Co5_3 1_555 1_555
O3_3 Co6_3 1_555 1_555
N2_6 N7_3 1_555 1_555
C1_6 N7_3 1_555 1_555
C2_6 C1_6 1_555 1_555
H1_6 C2_6 1_555 1_555
N8_3 N4_6 1_555 1_555
N4_6 N5_6 1_555 1_555
C3_6 C2_6 1_555 1_555
N5_6 C4_6 1_555 1_555
C4_6 C3_6 1_555 1_555
C5_6 C4_6 1_555 1_555
H2_6 C5_6 1_555 1_555
N6_6 N2_6 1_555 1_555
C6_6 C1_6 1_555 1_555
Co6_3 N2_6 1_555 1_555
Co4_3 N5_6 1_555 1_555
Co3_3 N6_6 1_555 1_555
N8_3 C3_6 1_555 1_555
C5_6 C6_6 1_555 1_555
N6_6 C6_6 1_555 1_555
N1_4 Co3_3 1_555 1_555
N9_9 N1_4 1_555 1_555
C1_7 N1_4 1_555 1_555
C2_7 C1_7 1_555 1_555
H1_7 C2_7 1_555 1_555
N3_4 N10 1_555 1_555
C3_7 C2_7 1_555 1_555
Co4 N3_4 1_555 1_555
O3_4 Co3_3 1_555 1_555
O4_4 Co4 1_555 1_555
N3_4 C3_7 1_555 1_555
N10_2 N5_7 1_555 1_555
N5_7 C4_7 1_555 1_555
C5_7 C4_7 1_555 1_555
H2_7 C5_7 1_555 1_555
N6_7 N9_10 1_555 1_555
Co5 N5_7 1_555 1_555
Co6_3 N6_7 1_555 1_555
C5_7 C6_7 1_555 1_555
N6_7 C6_7 1_555 1_555
O1_4 Co6 1_555 1_555
Co3 O1_5 1_555 1_555
O2_4 Co5_2 1_555 1_555
N7_4 Co3 1_555 1_555
N8_4 Co5_2 1_555 1_555
O2_5 Co4_2 1_555 1_555
Co3_2 O1_6 1_555 1_555
N7_5 Co3_2 1_555 1_555
O4_4 Co5 1_555 1_555
O1_7 Co6_2 1_555 1_555
N10_8 N5_8 1_555 1_555
N5_8 C4_8 1_555 1_555
C5_8 C4_8 1_555 1_555
H2_8 C5_8 1_555 1_555
N6_8 N9_2 1_555 1_555
Co5_3 N5_8 1_555 1_555
Co6 N6_8 1_555 1_555
C5_8 C6_8 1_555 1_555
N6_8 C6_8 1_555 1_555
N9_3 N7_4 1_555 1_555
C1_8 N7_4 1_555 1_555
C2_8 C1_8 1_555 1_555
H1_8 C2_8 1_555 1_555
N3_5 N10_9 1_555 1_555
C3_8 C2_8 1_555 1_555
Co4_3 N3_5 1_555 1_555
O4_6 Co4_3 1_555 1_555
N3_5 C3_8 1_555 1_555
N9_5 N7_5 1_555 1_555
C1_9 N7_5 1_555 1_555
C2_9 C1_9 1_555 1_555
H1_9 C2_9 1_555 1_555
N8_4 N10_3 1_555 1_555
C3_9 C2_9 1_555 1_555
N8_4 C3_9 1_555 1_555
N10_6 N5_9 1_555 1_555
N5_9 C4_9 1_555 1_555
C5_9 C4_9 1_555 1_555
H2_9 C5_9 1_555 1_555
N6_9 N9_8 1_555 1_555
Co4_2 N5_9 1_555 1_555
Co6_2 N6_9 1_555 1_555
C5_9 C6_9 1_555 1_555
N6_9 C6_9 1_555 1_555
O4_5 Co5_3 1_555 1_555
O3_4 Co6_3 1_555 1_555

#END
