
###############################################################################
#
# This file contains modified crystal structure data generated from the
# MOF subset of the Cambridge Structural Database (CSD) v543 
# hosted by the Cambridge Crystallographic Data Centre (CCDC).
#
# This work is licensed under the Creative Commons
# Attribution-NonCommercial-ShareAlike 4.0 International License.
# To view a copy of this license, visit
# http://creativecommons.org/licenses/by-nc-sa/4.0/
# or send a letter to
# Creative Commons, PO Box 1866, Mountain View, CA 94042, USA.
#
# CIF created using the CSD Python API on 29 September 2022
# The structure has been converted into the P1 space group
# The structure has a 3D framework
# The original CSD entry ERALUH is in the orthorhombic crystal system
# The framework has been calculated to contain at least 10.0% void space
# The void calculation uses a probe of radius 1.32A, grid spacing 0.4
#
###############################################################################

data_ERALUH
_chemical_formula_moiety         '(C128 H56 Cu5 In4 N16 O20)n'
_symmetry_cell_setting           triclinic
_symmetry_space_group_name_H-M   'P 1'
_symmetry_Int_Tables_number      1
_space_group_name_Hall           'P 1'
loop_
_symmetry_equiv_pos_site_id
_symmetry_equiv_pos_as_xyz
1 x,y,z
_cell_length_a                   7.1029(2)
_cell_length_b                   33.3656(7)
_cell_length_c                   16.6748(4)
_cell_angle_alpha                90
_cell_angle_beta                 90
_cell_angle_gamma                90
_cell_volume                     3951.8
loop_
_atom_site_label
_atom_site_type_symbol
_atom_site_fract_x
_atom_site_fract_y
_atom_site_fract_z
O11 O 0.0000 0.71896(13) 0.0000
O11_2 O 0.0000 0.71896(13) 1.0000
In1 In 0.2500 0.2500 0.0000
O1 O 0.5000 0.21896(13) 0.0000
In2 In 0.7500 0.7500 0.0000
O10 O 0.5000 0.78104(13) 0.0000
In6 In 0.7500 0.2500 0.0000
In8 In 0.2500 0.7500 0.0000
O11_3 O 1.0000 0.71896(13) 0.0000
O12 O 0.0000 0.28104(13) 0.0000
O15 O 0.6545(4) 0.70862(9) 0.0902(2)
O16 O 0.3455(4) 0.29138(9) 0.0902(2)
O17 O 0.1545(4) 0.20862(9) 0.0902(2)
O18 O 0.8455(4) 0.79138(9) 0.0902(2)
In1_2 In 0.2500 0.2500 1.0000
Cu1 Cu 0.5000 0.5000 0.5000
O1_2 O 0.5000 0.21896(13) 1.0000
O2 O 0.3455(4) 0.29138(9) 0.9098(2)
N1 N 0.5000 0.5000 0.6196(3)
N2 N 0.5000 0.44025(14) 0.5000
C1 C 0.5000 0.30365(13) 0.8867(3)
C2 C 0.5000 0.33618(13) 0.8243(3)
C3 C 0.3353(6) 0.35112(18) 0.7953(4)
H1 H 0.2214 0.3414 0.8149
C4 C 0.3359(7) 0.38036(19) 0.7374(4)
H2 H 0.2219 0.3898 0.7175
C5 C 0.5000 0.39578(13) 0.7084(3)
C6 C 0.5000 0.37410(13) 0.5408(3)
H3 H 0.5000 0.3517 0.5742
C7 C 0.5000 0.41546(12) 0.5655(3)
C8 C 0.5000 0.42752(13) 0.6454(3)
C9 C 0.5000 0.46727(14) 0.6693(3)
C10 C 0.5000 0.47966(16) 0.7518(3)
H4 H 0.5000 0.4630 0.7965
O3 O 0.6545(4) 0.70862(9) 0.9098(2)
N3 N 0.5000 0.55975(14) 0.5000
C11 C 0.5000 0.69635(13) 0.8867(3)
C12 C 0.5000 0.66382(13) 0.8243(3)
C13 C 0.6647(6) 0.64888(18) 0.7953(4)
H5 H 0.7786 0.6586 0.8149
C14 C 0.6641(7) 0.61964(19) 0.7374(4)
H6 H 0.7781 0.6102 0.7175
C15 C 0.5000 0.60422(13) 0.7084(3)
C16 C 0.5000 0.62590(13) 0.5408(3)
H7 H 0.5000 0.6483 0.5742
C17 C 0.5000 0.58454(12) 0.5655(3)
C18 C 0.5000 0.57248(13) 0.6454(3)
C19 C 0.5000 0.53273(14) 0.6693(3)
C20 C 0.5000 0.52034(16) 0.7518(3)
H8 H 0.5000 0.5370 0.7965
O4 O 0.6545(4) 0.29138(9) 0.0902(2)
N4 N 0.5000 0.5000 0.3804(3)
C21 C 0.5000 0.30365(13) 0.1133(3)
C22 C 0.5000 0.33618(13) 0.1757(3)
C23 C 0.6647(6) 0.35112(18) 0.2047(4)
H9 H 0.7786 0.3414 0.1851
C24 C 0.6641(7) 0.38036(19) 0.2626(4)
H10 H 0.7781 0.3898 0.2825
C25 C 0.5000 0.39578(13) 0.2916(3)
C26 C 0.5000 0.37410(13) 0.4592(3)
H11 H 0.5000 0.3517 0.4258
C27 C 0.5000 0.41546(12) 0.4345(3)
C28 C 0.5000 0.42752(13) 0.3546(3)
C29 C 0.5000 0.46727(14) 0.3307(3)
C30 C 0.5000 0.47966(16) 0.2482(3)
H12 H 0.5000 0.4630 0.2035
C31 C 0.3353(6) 0.35112(18) 0.2047(4)
H13 H 0.2214 0.3414 0.1851
C32 C 0.3359(7) 0.38036(19) 0.2626(4)
H14 H 0.2219 0.3898 0.2825
O6 O 0.3455(4) 0.70862(9) 0.9098(2)
C33 C 0.3353(6) 0.64888(18) 0.7953(4)
H15 H 0.2214 0.6586 0.8149
C34 C 0.3359(7) 0.61964(19) 0.7374(4)
H16 H 0.2219 0.6102 0.7175
O7 O 0.6545(4) 0.29138(9) 0.9098(2)
C35 C 0.6647(6) 0.35112(18) 0.7953(4)
H17 H 0.7786 0.3414 0.8149
C36 C 0.6641(7) 0.38036(19) 0.7374(4)
H18 H 0.7781 0.3898 0.7175
O8 O 0.3455(4) 0.70862(9) 0.0902(2)
C37 C 0.5000 0.69635(13) 0.1133(3)
C38 C 0.5000 0.66382(13) 0.1757(3)
C39 C 0.3353(6) 0.64888(18) 0.2047(4)
H19 H 0.2214 0.6586 0.1851
C40 C 0.3359(7) 0.61964(19) 0.2626(4)
H20 H 0.2219 0.6102 0.2825
C41 C 0.5000 0.60422(13) 0.2916(3)
C42 C 0.5000 0.62590(13) 0.4592(3)
H21 H 0.5000 0.6483 0.4258
C43 C 0.5000 0.58454(12) 0.4345(3)
C44 C 0.5000 0.57248(13) 0.3546(3)
C45 C 0.5000 0.53273(14) 0.3307(3)
C46 C 0.5000 0.52034(16) 0.2482(3)
H22 H 0.5000 0.5370 0.2035
C47 C 0.6647(6) 0.64888(18) 0.2047(4)
H23 H 0.7786 0.6586 0.1851
C48 C 0.6641(7) 0.61964(19) 0.2626(4)
H24 H 0.7781 0.6102 0.2825
In2_2 In 0.7500 0.7500 1.0000
O10_2 O 0.5000 0.78104(13) 1.0000
In6_2 In 0.7500 0.2500 1.0000
In8_2 In 0.2500 0.7500 1.0000
O11_4 O 1.0000 0.71896(13) 1.0000
O12_2 O 0.0000 0.28104(13) 1.0000
O13 O 0.8455(4) 0.79138(9) 0.9098(2)
O14 O 0.1545(4) 0.20862(9) 0.9098(2)
O12_3 O 1.0000 0.28104(13) 0.0000
O12_4 O 1.0000 0.28104(13) 1.0000
O13_2 O 0.1545(4) 0.79138(9) 0.0902(2)
O14_2 O 0.8455(4) 0.20862(9) 0.0902(2)
O17_2 O 0.8455(4) 0.20862(9) 0.9098(2)
O18_2 O 0.1545(4) 0.79138(9) 0.9098(2)
Cu1_2 Cu 0.0000 -0.0000 0.5000
N1_2 N 0.0000 -0.0000 0.6196(3)
N3_2 N 0.0000 0.05975(14) 0.5000
C11_2 C 0.0000 0.19635(13) 0.8867(3)
C12_2 C 0.0000 0.16382(13) 0.8243(3)
C13_2 C 0.1647(6) 0.14888(18) 0.7953(4)
H5_2 H 0.2786 0.1586 0.8149
C14_2 C 0.1641(7) 0.11964(19) 0.7374(4)
H6_2 H 0.2781 0.1102 0.7175
C15_2 C 0.0000 0.10422(13) 0.7084(3)
C16_2 C 0.0000 0.12590(13) 0.5408(3)
H7_2 H -0.0000 0.1483 0.5742
C17_2 C 0.0000 0.08454(12) 0.5655(3)
C18_2 C 0.0000 0.07248(13) 0.6454(3)
C19_2 C 0.0000 0.03273(14) 0.6693(3)
C20_2 C 0.0000 0.02034(16) 0.7518(3)
H8_2 H 0.0000 0.0370 0.7965
N4_2 N 0.0000 -0.0000 0.3804(3)
C37_2 C 0.0000 0.19635(13) 0.1133(3)
C38_2 C 0.0000 0.16382(13) 0.1757(3)
C41_2 C 0.0000 0.10422(13) 0.2916(3)
C42_2 C 0.0000 0.12590(13) 0.4592(3)
H21_2 H 0.0000 0.1483 0.4258
C43_2 C 0.0000 0.08454(12) 0.4345(3)
C44_2 C 0.0000 0.07248(13) 0.3546(3)
C45_2 C 0.0000 0.03273(14) 0.3307(3)
C46_2 C 0.0000 0.02034(16) 0.2482(3)
H22_2 H -0.0000 0.0370 0.2035
C47_2 C 0.1647(6) 0.14888(18) 0.2047(4)
H23_2 H 0.2786 0.1586 0.1851
C48_2 C 0.1641(7) 0.11964(19) 0.2626(4)
H24_2 H 0.2781 0.1102 0.2825
Cu1_3 Cu 0.0000 1.0000 0.5000
N1_3 N 0.0000 1.0000 0.6196(3)
N2_2 N 0.0000 0.94025(14) 0.5000
C1_2 C 0.0000 0.80365(13) 0.8867(3)
C2_2 C 0.0000 0.83618(13) 0.8243(3)
C5_2 C 0.0000 0.89578(13) 0.7084(3)
C6_2 C 0.0000 0.87410(13) 0.5408(3)
H3_2 H 0.0000 0.8517 0.5742
C7_2 C 0.0000 0.91546(12) 0.5655(3)
C8_2 C -0.0000 0.92752(13) 0.6454(3)
C9_2 C 0.0000 0.96727(14) 0.6693(3)
C10_2 C 0.0000 0.97966(16) 0.7518(3)
H4_2 H 0.0000 0.9630 0.7965
N4_3 N 0.0000 1.0000 0.3804(3)
C21_2 C -0.0000 0.80365(13) 0.1133(3)
C22_2 C 0.0000 0.83618(13) 0.1757(3)
C23_2 C 0.1647(6) 0.85112(18) 0.2047(4)
H9_2 H 0.2786 0.8414 0.1851
C24_2 C 0.1641(7) 0.88036(19) 0.2626(4)
H10_2 H 0.2781 0.8898 0.2825
C25_2 C 0.0000 0.89578(13) 0.2916(3)
C26_2 C 0.0000 0.87410(13) 0.4592(3)
H11_2 H 0.0000 0.8517 0.4258
C27_2 C -0.0000 0.91546(12) 0.4345(3)
C28_2 C 0.0000 0.92752(13) 0.3546(3)
C29_2 C 0.0000 0.96727(14) 0.3307(3)
C30_2 C 0.0000 0.97966(16) 0.2482(3)
H12_2 H -0.0000 0.9630 0.2035
C35_2 C 0.1647(6) 0.85112(18) 0.7953(4)
H17_2 H 0.2786 0.8414 0.8149
C36_2 C 0.1641(7) 0.88036(19) 0.7374(4)
H18_2 H 0.2781 0.8898 0.7175
Cu1_4 Cu 1.0000 -0.0000 0.5000
N1_4 N 1.0000 -0.0000 0.6196(3)
N3_3 N 1.0000 0.05975(14) 0.5000
C11_3 C 1.0000 0.19635(13) 0.8867(3)
C12_3 C 1.0000 0.16382(13) 0.8243(3)
C15_3 C 1.0000 0.10422(13) 0.7084(3)
C16_3 C 1.0000 0.12590(13) 0.5408(3)
H7_3 H 1.0000 0.1483 0.5742
C17_3 C 1.0000 0.08454(12) 0.5655(3)
C18_3 C 1.0000 0.07248(13) 0.6454(3)
C19_3 C 1.0000 0.03273(14) 0.6693(3)
C20_3 C 1.0000 0.02034(16) 0.7518(3)
H8_3 H 1.0000 0.0370 0.7965
N4_4 N 1.0000 -0.0000 0.3804(3)
C33_2 C 0.8353(6) 0.14888(18) 0.7953(4)
H15_2 H 0.7214 0.1586 0.8149
C34_2 C 0.8359(7) 0.11964(19) 0.7374(4)
H16_2 H 0.7219 0.1102 0.7175
C37_3 C 1.0000 0.19635(13) 0.1133(3)
C38_3 C 1.0000 0.16382(13) 0.1757(3)
C39_2 C 0.8353(6) 0.14888(18) 0.2047(4)
H19_2 H 0.7214 0.1586 0.1851
C40_2 C 0.8359(7) 0.11964(19) 0.2626(4)
H20_2 H 0.7219 0.1102 0.2825
C41_3 C 1.0000 0.10422(13) 0.2916(3)
C42_3 C 1.0000 0.12590(13) 0.4592(3)
H21_3 H 1.0000 0.1483 0.4258
C43_3 C 1.0000 0.08454(12) 0.4345(3)
C44_3 C 1.0000 0.07248(13) 0.3546(3)
C45_3 C 1.0000 0.03273(14) 0.3307(3)
C46_3 C 1.0000 0.02034(16) 0.2482(3)
H22_3 H 1.0000 0.0370 0.2035
Cu1_5 Cu 1.0000 1.0000 0.5000
N1_5 N 1.0000 1.0000 0.6196(3)
N2_3 N 1.0000 0.94025(14) 0.5000
C1_3 C 1.0000 0.80365(13) 0.8867(3)
C2_3 C 1.0000 0.83618(13) 0.8243(3)
C3_2 C 0.8353(6) 0.85112(18) 0.7953(4)
H1_2 H 0.7214 0.8414 0.8149
C4_2 C 0.8359(7) 0.88036(19) 0.7374(4)
H2_2 H 0.7219 0.8898 0.7175
C5_3 C 1.0000 0.89578(13) 0.7084(3)
C6_3 C 1.0000 0.87410(13) 0.5408(3)
H3_3 H 1.0000 0.8517 0.5742
C7_3 C 1.0000 0.91546(12) 0.5655(3)
C8_3 C 1.0000 0.92752(13) 0.6454(3)
C9_3 C 1.0000 0.96727(14) 0.6693(3)
C10_3 C 1.0000 0.97966(16) 0.7518(3)
H4_3 H 1.0000 0.9630 0.7965
N4_5 N 1.0000 1.0000 0.3804(3)
C21_3 C 1.0000 0.80365(13) 0.1133(3)
C22_3 C 1.0000 0.83618(13) 0.1757(3)
C25_3 C 1.0000 0.89578(13) 0.2916(3)
C26_3 C 1.0000 0.87410(13) 0.4592(3)
H11_3 H 1.0000 0.8517 0.4258
C27_3 C 1.0000 0.91546(12) 0.4345(3)
C28_3 C 1.0000 0.92752(13) 0.3546(3)
C29_3 C 1.0000 0.96727(14) 0.3307(3)
C30_3 C 1.0000 0.97966(16) 0.2482(3)
H12_3 H 1.0000 0.9630 0.2035
C31_2 C 0.8353(6) 0.85112(18) 0.2047(4)
H13_2 H 0.7214 0.8414 0.1851
C32_2 C 0.8359(7) 0.88036(19) 0.2626(4)
H14_2 H 0.7219 0.8898 0.2825
loop_
_geom_bond_atom_site_label_1
_geom_bond_atom_site_label_2
_geom_bond_site_symmetry_1
_geom_bond_site_symmetry_2
In1 O1 1_555 1_555
O1 In6 1_555 1_555
O10 In2 1_555 1_555
O11_3 In2 1_555 1_555
O12 In1 1_555 1_555
O15 In2 1_555 1_555
O16 In1 1_555 1_555
O17 In1 1_555 1_555
O18 In2 1_555 1_555
O10 In8 1_555 1_555
In1_2 O1_2 1_555 1_555
Cu1 N1 1_555 1_555
O1_2 In6_2 1_555 1_555
O2 In1_2 1_555 1_555
N1 C9 1_555 1_555
N2 Cu1 1_555 1_555
C1 O2 1_555 1_555
C2 C1 1_555 1_555
C3 C2 1_555 1_555
H1 C3 1_555 1_555
C4 C3 1_555 1_555
H2 C4 1_555 1_555
C5 C4 1_555 1_555
C6 H3 1_555 1_555
C7 N2 1_555 1_555
C8 C5 1_555 1_555
C9 C8 1_555 1_555
C10 C9 1_555 1_555
H4 C10 1_555 1_555
O3 C11 1_555 1_555
N3 Cu1 1_555 1_555
C11 C12 1_555 1_555
C12 C13 1_555 1_555
C13 H5 1_555 1_555
C14 C13 1_555 1_555
H6 C14 1_555 1_555
C15 C14 1_555 1_555
C16 H7 1_555 1_555
C17 N3 1_555 1_555
C18 C15 1_555 1_555
C19 N1 1_555 1_555
C20 C10 1_555 1_555
H8 C20 1_555 1_555
O4 C21 1_555 1_555
N4 Cu1 1_555 1_555
C21 C22 1_555 1_555
C22 C23 1_555 1_555
C23 H9 1_555 1_555
C24 C23 1_555 1_555
H10 C24 1_555 1_555
C25 C24 1_555 1_555
C26 C6 1_555 1_555
H11 C26 1_555 1_555
C27 N2 1_555 1_555
C28 C25 1_555 1_555
C29 N4 1_555 1_555
C30 C29 1_555 1_555
H12 C30 1_555 1_555
O16 C21 1_555 1_555
C31 C22 1_555 1_555
H13 C31 1_555 1_555
C32 C25 1_555 1_555
H14 C32 1_555 1_555
O6 C11 1_555 1_555
C33 C12 1_555 1_555
H15 C33 1_555 1_555
C34 C15 1_555 1_555
H16 C34 1_555 1_555
O7 C1 1_555 1_555
C35 C2 1_555 1_555
H17 C35 1_555 1_555
C36 C5 1_555 1_555
H18 C36 1_555 1_555
O8 C37 1_555 1_555
C37 C38 1_555 1_555
C38 C39 1_555 1_555
C39 H19 1_555 1_555
C40 C39 1_555 1_555
H20 C40 1_555 1_555
C41 C40 1_555 1_555
C42 C16 1_555 1_555
H21 C42 1_555 1_555
C43 N3 1_555 1_555
C44 C41 1_555 1_555
C45 N4 1_555 1_555
C46 C30 1_555 1_555
H22 C46 1_555 1_555
O15 C37 1_555 1_555
C47 C38 1_555 1_555
H23 C47 1_555 1_555
C48 C41 1_555 1_555
H24 C48 1_555 1_555
In2_2 O3 1_555 1_555
O10_2 In2_2 1_555 1_555
In6 O4 1_555 1_555
In6_2 O7 1_555 1_555
In8 O8 1_555 1_555
In8_2 O6 1_555 1_555
O11_4 In2_2 1_555 1_555
O12_2 In1_2 1_555 1_555
O13 In2_2 1_555 1_555
O14 In1_2 1_555 1_555
C6 C7 1_555 1_555
C7 C8 1_555 1_555
C16 C17 1_555 1_555
C17 C18 1_555 1_555
C18 C19 1_555 1_555
C19 C20 1_555 1_555
C26 C27 1_555 1_555
C27 C28 1_555 1_555
C28 C29 1_555 1_555
C31 C32 1_555 1_555
C33 C34 1_555 1_555
C35 C36 1_555 1_555
C42 C43 1_555 1_555
C43 C44 1_555 1_555
C44 C45 1_555 1_555
C45 C46 1_555 1_555
C47 C48 1_555 1_555
O10_2 In8_2 1_555 1_555
O11 In8 1_555 1_555
O12_3 In6 1_555 1_555
O13_2 In8 1_555 1_555
O14_2 In6 1_555 1_555
O11_2 In8_2 1_555 1_555
O12_4 In6_2 1_555 1_555
O17_2 In6_2 1_555 1_555
O18_2 In8_2 1_555 1_555
Cu1_2 N1_2 1_555 1_555
O14 C11_2 1_555 1_555
N3_2 Cu1_2 1_555 1_555
C11_2 C12_2 1_555 1_555
C12_2 C13_2 1_555 1_555
C13_2 H5_2 1_555 1_555
C14_2 C13_2 1_555 1_555
H6_2 C14_2 1_555 1_555
C15_2 C14_2 1_555 1_555
C16_2 H7_2 1_555 1_555
C17_2 N3_2 1_555 1_555
C18_2 C15_2 1_555 1_555
C19_2 N1_2 1_555 1_555
H8_2 C20_2 1_555 1_555
N4_2 Cu1_2 1_555 1_555
C37_2 C38_2 1_555 1_555
C42_2 C16_2 1_555 1_555
H21_2 C42_2 1_555 1_555
C43_2 N3_2 1_555 1_555
C44_2 C41_2 1_555 1_555
C45_2 N4_2 1_555 1_555
H22_2 C46_2 1_555 1_555
O17 C37_2 1_555 1_555
C47_2 C38_2 1_555 1_555
H23_2 C47_2 1_555 1_555
C48_2 C41_2 1_555 1_555
H24_2 C48_2 1_555 1_555
C16_2 C17_2 1_555 1_555
C17_2 C18_2 1_555 1_555
C18_2 C19_2 1_555 1_555
C19_2 C20_2 1_555 1_555
C42_2 C43_2 1_555 1_555
C43_2 C44_2 1_555 1_555
C44_2 C45_2 1_555 1_555
C45_2 C46_2 1_555 1_555
C47_2 C48_2 1_555 1_555
Cu1_3 N1_3 1_555 1_555
N1_3 C9_2 1_555 1_555
N2_2 Cu1_3 1_555 1_555
C2_2 C1_2 1_555 1_555
C6_2 H3_2 1_555 1_555
C7_2 N2_2 1_555 1_555
C8_2 C5_2 1_555 1_555
C9_2 C8_2 1_555 1_555
C10_2 C9_2 1_555 1_555
H4_2 C10_2 1_555 1_555
O13_2 C21_2 1_555 1_555
N4_3 Cu1_3 1_555 1_555
C21_2 C22_2 1_555 1_555
C22_2 C23_2 1_555 1_555
C23_2 H9_2 1_555 1_555
C24_2 C23_2 1_555 1_555
H10_2 C24_2 1_555 1_555
C25_2 C24_2 1_555 1_555
C26_2 C6_2 1_555 1_555
H11_2 C26_2 1_555 1_555
C27_2 N2_2 1_555 1_555
C28_2 C25_2 1_555 1_555
C29_2 N4_3 1_555 1_555
C30_2 C29_2 1_555 1_555
H12_2 C30_2 1_555 1_555
O18_2 C1_2 1_555 1_555
C35_2 C2_2 1_555 1_555
H17_2 C35_2 1_555 1_555
C36_2 C5_2 1_555 1_555
H18_2 C36_2 1_555 1_555
C6_2 C7_2 1_555 1_555
C7_2 C8_2 1_555 1_555
C26_2 C27_2 1_555 1_555
C27_2 C28_2 1_555 1_555
C28_2 C29_2 1_555 1_555
C35_2 C36_2 1_555 1_555
Cu1_4 N1_4 1_555 1_555
N3_3 Cu1_4 1_555 1_555
C11_3 C12_3 1_555 1_555
C16_3 H7_3 1_555 1_555
C17_3 N3_3 1_555 1_555
C18_3 C15_3 1_555 1_555
C19_3 N1_4 1_555 1_555
H8_3 C20_3 1_555 1_555
N4_4 Cu1_4 1_555 1_555
O17_2 C11_3 1_555 1_555
C33_2 C12_3 1_555 1_555
H15_2 C33_2 1_555 1_555
C34_2 C15_3 1_555 1_555
H16_2 C34_2 1_555 1_555
O14_2 C37_3 1_555 1_555
C37_3 C38_3 1_555 1_555
C38_3 C39_2 1_555 1_555
C39_2 H19_2 1_555 1_555
C40_2 C39_2 1_555 1_555
H20_2 C40_2 1_555 1_555
C41_3 C40_2 1_555 1_555
C42_3 C16_3 1_555 1_555
H21_3 C42_3 1_555 1_555
C43_3 N3_3 1_555 1_555
C44_3 C41_3 1_555 1_555
C45_3 N4_4 1_555 1_555
H22_3 C46_3 1_555 1_555
C16_3 C17_3 1_555 1_555
C17_3 C18_3 1_555 1_555
C18_3 C19_3 1_555 1_555
C19_3 C20_3 1_555 1_555
C33_2 C34_2 1_555 1_555
C42_3 C43_3 1_555 1_555
C43_3 C44_3 1_555 1_555
C44_3 C45_3 1_555 1_555
C45_3 C46_3 1_555 1_555
Cu1_5 N1_5 1_555 1_555
N1_5 C9_3 1_555 1_555
N2_3 Cu1_5 1_555 1_555
C1_3 O13 1_555 1_555
C2_3 C1_3 1_555 1_555
C3_2 C2_3 1_555 1_555
H1_2 C3_2 1_555 1_555
C4_2 C3_2 1_555 1_555
H2_2 C4_2 1_555 1_555
C5_3 C4_2 1_555 1_555
C6_3 H3_3 1_555 1_555
C7_3 N2_3 1_555 1_555
C8_3 C5_3 1_555 1_555
C9_3 C8_3 1_555 1_555
C10_3 C9_3 1_555 1_555
H4_3 C10_3 1_555 1_555
N4_5 Cu1_5 1_555 1_555
C21_3 C22_3 1_555 1_555
C26_3 C6_3 1_555 1_555
H11_3 C26_3 1_555 1_555
C27_3 N2_3 1_555 1_555
C28_3 C25_3 1_555 1_555
C29_3 N4_5 1_555 1_555
C30_3 C29_3 1_555 1_555
H12_3 C30_3 1_555 1_555
O18 C21_3 1_555 1_555
C31_2 C22_3 1_555 1_555
H13_2 C31_2 1_555 1_555
C32_2 C25_3 1_555 1_555
H14_2 C32_2 1_555 1_555
C6_3 C7_3 1_555 1_555
C7_3 C8_3 1_555 1_555
C26_3 C27_3 1_555 1_555
C27_3 C28_3 1_555 1_555
C28_3 C29_3 1_555 1_555
C31_2 C32_2 1_555 1_555

#END
