
###############################################################################
#
# This file contains modified crystal structure data generated from the
# MOF subset of the Cambridge Structural Database (CSD) v543 
# hosted by the Cambridge Crystallographic Data Centre (CCDC).
#
# This work is licensed under the Creative Commons
# Attribution-NonCommercial-ShareAlike 4.0 International License.
# To view a copy of this license, visit
# http://creativecommons.org/licenses/by-nc-sa/4.0/
# or send a letter to
# Creative Commons, PO Box 1866, Mountain View, CA 94042, USA.
#
# CIF created using the CSD Python API on 29 September 2022
# The structure has been converted into the P1 space group
# The structure has a 3D framework
# The original CSD entry ERALER is in the orthorhombic crystal system
# The framework has been calculated to contain at least 10.0% void space
# The void calculation uses a probe of radius 1.32A, grid spacing 0.4
#
###############################################################################

data_ERALER
_chemical_formula_moiety         '(C128 H56 In4 N16 Ni5 O20)n'
_symmetry_cell_setting           triclinic
_symmetry_space_group_name_H-M   'P 1'
_symmetry_Int_Tables_number      1
_space_group_name_Hall           'P 1'
loop_
_symmetry_equiv_pos_site_id
_symmetry_equiv_pos_as_xyz
1 x,y,z
_cell_length_a                   7.07250(10)
_cell_length_b                   33.2883(6)
_cell_length_c                   16.6660(3)
_cell_angle_alpha                90
_cell_angle_beta                 90
_cell_angle_gamma                90
_cell_volume                     3923.7
loop_
_atom_site_label
_atom_site_type_symbol
_atom_site_fract_x
_atom_site_fract_y
_atom_site_fract_z
O11 O 0.0000 0.71895(18) 0.0000
O11_2 O 0.0000 0.71895(18) 1.0000
In3 In 0.2500 0.2500 0.0000
In4 In 0.7500 0.7500 0.0000
In6 In 0.7500 0.2500 0.0000
In8 In 0.2500 0.7500 0.0000
Ni1 Ni 0.5000 0.5000 0.5000
O1 O 0.5000 0.21895(18) 0.0000
O2 O 0.3458(5) 0.29157(11) 0.0897(2)
N1 N 0.5000 0.5000 0.3805(3)
N2 N 0.5000 0.44037(17) 0.5000
C1 C 0.5000 0.47943(18) 0.2484(3)
H1 H 0.5000 0.4628 0.2036
C2 C 0.5000 0.46700(15) 0.3309(3)
C3 C 0.5000 0.42732(15) 0.3546(3)
C4 C 0.5000 0.41518(15) 0.4342(3)
C5 C 0.5000 0.37420(17) 0.4590(4)
H2 H 0.5000 0.3518 0.4258
C6 C 0.5000 0.39583(15) 0.2912(3)
C7 C 0.6638(9) 0.3804(2) 0.2629(4)
H3 H 0.7781 0.3896 0.2834
C8 C 0.6640(8) 0.3513(2) 0.2041(4)
H4 H 0.7784 0.3419 0.1840
C9 C 0.5000 0.33627(15) 0.1754(3)
C10 C 0.5000 0.30415(15) 0.1128(3)
O3 O 0.6542(5) 0.70843(11) 0.0897(2)
N3 N 0.5000 0.55963(17) 0.5000
C11 C 0.5000 0.52057(18) 0.2484(3)
H5 H 0.5000 0.5372 0.2036
C12 C 0.5000 0.53300(15) 0.3309(3)
C13 C 0.5000 0.57268(15) 0.3546(3)
C14 C 0.5000 0.58482(15) 0.4342(3)
C15 C 0.5000 0.62580(17) 0.4590(4)
H6 H 0.5000 0.6482 0.4258
C16 C 0.5000 0.60417(15) 0.2912(3)
C17 C 0.3362(9) 0.6196(2) 0.2629(4)
H7 H 0.2219 0.6104 0.2834
C18 C 0.3360(8) 0.6487(2) 0.2041(4)
H8 H 0.2216 0.6581 0.1840
C19 C 0.5000 0.66373(15) 0.1754(3)
C20 C 0.5000 0.69585(15) 0.1128(3)
O4 O 0.6542(5) 0.29157(11) 0.9103(2)
N4 N 0.5000 0.5000 0.6195(3)
C21 C 0.5000 0.47943(18) 0.7516(3)
H9 H 0.5000 0.4628 0.7964
C22 C 0.5000 0.46700(15) 0.6691(3)
C23 C 0.5000 0.42732(15) 0.6454(3)
C24 C 0.5000 0.41518(15) 0.5658(3)
C25 C 0.5000 0.37420(17) 0.5410(4)
H10 H 0.5000 0.3518 0.5742
C26 C 0.5000 0.39583(15) 0.7088(3)
C27 C 0.3362(9) 0.3804(2) 0.7371(4)
H11 H 0.2219 0.3896 0.7166
C28 C 0.3360(8) 0.3513(2) 0.7959(4)
H12 H 0.2216 0.3419 0.8160
C29 C 0.5000 0.33627(15) 0.8246(3)
C30 C 0.5000 0.30415(15) 0.8872(3)
O5 O 0.3458(5) 0.29157(11) 0.9103(2)
C31 C 0.6638(9) 0.3804(2) 0.7371(4)
H13 H 0.7781 0.3896 0.7166
C32 C 0.6640(8) 0.3513(2) 0.7959(4)
H14 H 0.7784 0.3419 0.8160
O6 O 0.3458(5) 0.70843(11) 0.0897(2)
C33 C 0.6638(9) 0.6196(2) 0.2629(4)
H15 H 0.7781 0.6104 0.2834
C34 C 0.6640(8) 0.6487(2) 0.2041(4)
H16 H 0.7784 0.6581 0.1840
O7 O 0.6542(5) 0.29157(11) 0.0897(2)
C35 C 0.3362(9) 0.3804(2) 0.2629(4)
H17 H 0.2219 0.3896 0.2834
C36 C 0.3360(8) 0.3513(2) 0.2041(4)
H18 H 0.2216 0.3419 0.1840
O8 O 0.3458(5) 0.70843(11) 0.9103(2)
C37 C 0.5000 0.52057(18) 0.7516(3)
H19 H 0.5000 0.5372 0.7964
C38 C 0.5000 0.53300(15) 0.6691(3)
C39 C 0.5000 0.57268(15) 0.6454(3)
C40 C 0.5000 0.58482(15) 0.5658(3)
C41 C 0.5000 0.62580(17) 0.5410(4)
H20 H 0.5000 0.6482 0.5742
C42 C 0.5000 0.60417(15) 0.7088(3)
C43 C 0.6638(9) 0.6196(2) 0.7371(4)
H21 H 0.7781 0.6104 0.7166
C44 C 0.6640(8) 0.6487(2) 0.7959(4)
H22 H 0.7784 0.6581 0.8160
C45 C 0.5000 0.66373(15) 0.8246(3)
C46 C 0.5000 0.69585(15) 0.8872(3)
O9 O 0.6542(5) 0.70843(11) 0.9103(2)
C47 C 0.3362(9) 0.6196(2) 0.7371(4)
H23 H 0.2219 0.6104 0.7166
C48 C 0.3360(8) 0.6487(2) 0.7959(4)
H24 H 0.2216 0.6581 0.8160
O10 O 0.5000 0.78105(18) 0.0000
In3_2 In 0.2500 0.2500 1.0000
In4_2 In 0.7500 0.7500 1.0000
In6_2 In 0.7500 0.2500 1.0000
In8_2 In 0.2500 0.7500 1.0000
O11_3 O 1.0000 0.71895(18) 0.0000
O12 O -0.0000 0.28105(18) 0.0000
O13 O 0.8458(5) 0.79157(11) 0.0897(2)
O14 O 0.1542(5) 0.20843(11) 0.0897(2)
O1_2 O 0.5000 0.21895(18) 1.0000
O10_2 O 0.5000 0.78105(18) 1.0000
O11_4 O 1.0000 0.71895(18) 1.0000
O12_2 O -0.0000 0.28105(18) 1.0000
O17 O 0.1542(5) 0.20843(11) 0.9103(2)
O18 O 0.8458(5) 0.79157(11) 0.9103(2)
O12_3 O 1.0000 0.28105(18) 0.0000
O12_4 O 1.0000 0.28105(18) 1.0000
O17_2 O 0.8458(5) 0.20843(11) 0.0897(2)
O18_2 O 0.1542(5) 0.79157(11) 0.0897(2)
O13_2 O 0.1542(5) 0.79157(11) 0.9103(2)
O14_2 O 0.8458(5) 0.20843(11) 0.9103(2)
Ni1_2 Ni 0.0000 -0.0000 0.5000
N1_2 N 0.0000 0.0000 0.3805(3)
N3_2 N 0.0000 0.05963(17) 0.5000
C11_2 C 0.0000 0.02057(18) 0.2484(3)
H5_2 H -0.0000 0.0372 0.2036
C12_2 C 0.0000 0.03300(15) 0.3309(3)
C13_2 C 0.0000 0.07268(15) 0.3546(3)
C14_2 C -0.0000 0.08482(15) 0.4342(3)
C15_2 C -0.0000 0.12580(17) 0.4590(4)
H6_2 H -0.0000 0.1482 0.4258
C16_2 C -0.0000 0.10417(15) 0.2912(3)
C19_2 C -0.0000 0.16373(15) 0.1754(3)
C20_2 C 0.0000 0.19585(15) 0.1128(3)
N4_2 N 0.0000 0.0000 0.6195(3)
C33_2 C 0.1638(9) 0.1196(2) 0.2629(4)
H15_2 H 0.2781 0.1104 0.2834
C34_2 C 0.1640(8) 0.1487(2) 0.2041(4)
H16_2 H 0.2784 0.1581 0.1840
C37_2 C 0.0000 0.02057(18) 0.7516(3)
H19_2 H 0.0000 0.0372 0.7964
C38_2 C -0.0000 0.03300(15) 0.6691(3)
C39_2 C 0.0000 0.07268(15) 0.6454(3)
C40_2 C -0.0000 0.08482(15) 0.5658(3)
C41_2 C -0.0000 0.12580(17) 0.5410(4)
H20_2 H -0.0000 0.1482 0.5742
C42_2 C -0.0000 0.10417(15) 0.7088(3)
C43_2 C 0.1638(9) 0.1196(2) 0.7371(4)
H21_2 H 0.2781 0.1104 0.7166
C44_2 C 0.1640(8) 0.1487(2) 0.7959(4)
H22_2 H 0.2784 0.1581 0.8160
C45_2 C 0.0000 0.16373(15) 0.8246(3)
C46_2 C -0.0000 0.19585(15) 0.8872(3)
Ni1_3 Ni 0.0000 1.0000 0.5000
N1_3 N 0.0000 1.0000 0.3805(3)
N2_2 N 0.0000 0.94037(17) 0.5000
C1_2 C 0.0000 0.97943(18) 0.2484(3)
H1_2 H -0.0000 0.9628 0.2036
C2_2 C 0.0000 0.96700(15) 0.3309(3)
C3_2 C 0.0000 0.92732(15) 0.3546(3)
C4_2 C 0.0000 0.91518(15) 0.4342(3)
C5_2 C 0.0000 0.87420(17) 0.4590(4)
H2_2 H 0.0000 0.8518 0.4258
C6_2 C 0.0000 0.89583(15) 0.2912(3)
C7_2 C 0.1638(9) 0.8804(2) 0.2629(4)
H3_2 H 0.2781 0.8896 0.2834
C8_2 C 0.1640(8) 0.8513(2) 0.2041(4)
H4_2 H 0.2784 0.8419 0.1840
C9_2 C -0.0000 0.83627(15) 0.1754(3)
C10_2 C 0.0000 0.80415(15) 0.1128(3)
N4_3 N -0.0000 1.0000 0.6195(3)
C21_2 C 0.0000 0.97943(18) 0.7516(3)
H9_2 H -0.0000 0.9628 0.7964
C22_2 C -0.0000 0.96700(15) 0.6691(3)
C23_2 C -0.0000 0.92732(15) 0.6454(3)
C24_2 C 0.0000 0.91518(15) 0.5658(3)
C25_2 C -0.0000 0.87420(17) 0.5410(4)
H10_2 H -0.0000 0.8518 0.5742
C26_2 C -0.0000 0.89583(15) 0.7088(3)
C29_2 C 0.0000 0.83627(15) 0.8246(3)
C30_2 C 0.0000 0.80415(15) 0.8872(3)
C31_2 C 0.1638(9) 0.8804(2) 0.7371(4)
H13_2 H 0.2781 0.8896 0.7166
C32_2 C 0.1640(8) 0.8513(2) 0.7959(4)
H14_2 H 0.2784 0.8419 0.8160
Ni1_4 Ni 1.0000 -0.0000 0.5000
N1_4 N 1.0000 0.0000 0.3805(3)
N3_3 N 1.0000 0.05963(17) 0.5000
C11_3 C 1.0000 0.02057(18) 0.2484(3)
H5_3 H 1.0000 0.0372 0.2036
C12_3 C 1.0000 0.03300(15) 0.3309(3)
C13_3 C 1.0000 0.07268(15) 0.3546(3)
C14_3 C 1.0000 0.08482(15) 0.4342(3)
C15_3 C 1.0000 0.12580(17) 0.4590(4)
H6_3 H 1.0000 0.1482 0.4258
C16_3 C 1.0000 0.10417(15) 0.2912(3)
C17_2 C 0.8362(9) 0.1196(2) 0.2629(4)
H7_2 H 0.7219 0.1104 0.2834
C18_2 C 0.8360(8) 0.1487(2) 0.2041(4)
H8_2 H 0.7216 0.1581 0.1840
C19_3 C 1.0000 0.16373(15) 0.1754(3)
C20_3 C 1.0000 0.19585(15) 0.1128(3)
N4_4 N 1.0000 0.0000 0.6195(3)
C37_3 C 1.0000 0.02057(18) 0.7516(3)
H19_3 H 1.0000 0.0372 0.7964
C38_3 C 1.0000 0.03300(15) 0.6691(3)
C39_3 C 1.0000 0.07268(15) 0.6454(3)
C40_3 C 1.0000 0.08482(15) 0.5658(3)
C41_3 C 1.0000 0.12580(17) 0.5410(4)
H20_3 H 1.0000 0.1482 0.5742
C42_3 C 1.0000 0.10417(15) 0.7088(3)
C45_3 C 1.0000 0.16373(15) 0.8246(3)
C46_3 C 1.0000 0.19585(15) 0.8872(3)
C47_2 C 0.8362(9) 0.1196(2) 0.7371(4)
H23_2 H 0.7219 0.1104 0.7166
C48_2 C 0.8360(8) 0.1487(2) 0.7959(4)
H24_2 H 0.7216 0.1581 0.8160
Ni1_5 Ni 1.0000 1.0000 0.5000
N1_5 N 1.0000 1.0000 0.3805(3)
N2_3 N 1.0000 0.94037(17) 0.5000
C1_3 C 1.0000 0.97943(18) 0.2484(3)
H1_3 H 1.0000 0.9628 0.2036
C2_3 C 1.0000 0.96700(15) 0.3309(3)
C3_3 C 1.0000 0.92732(15) 0.3546(3)
C4_3 C 1.0000 0.91518(15) 0.4342(3)
C5_3 C 1.0000 0.87420(17) 0.4590(4)
H2_3 H 1.0000 0.8518 0.4258
C6_3 C 1.0000 0.89583(15) 0.2912(3)
C9_3 C 1.0000 0.83627(15) 0.1754(3)
C10_3 C 1.0000 0.80415(15) 0.1128(3)
N4_5 N 1.0000 1.0000 0.6195(3)
C21_3 C 1.0000 0.97943(18) 0.7516(3)
H9_3 H 1.0000 0.9628 0.7964
C22_3 C 1.0000 0.96700(15) 0.6691(3)
C23_3 C 1.0000 0.92732(15) 0.6454(3)
C24_3 C 1.0000 0.91518(15) 0.5658(3)
C25_3 C 1.0000 0.87420(17) 0.5410(4)
H10_3 H 1.0000 0.8518 0.5742
C26_3 C 1.0000 0.89583(15) 0.7088(3)
C27_2 C 0.8362(9) 0.8804(2) 0.7371(4)
H11_2 H 0.7219 0.8896 0.7166
C28_2 C 0.8360(8) 0.8513(2) 0.7959(4)
H12_2 H 0.7216 0.8419 0.8160
C29_3 C 1.0000 0.83627(15) 0.8246(3)
C30_3 C 1.0000 0.80415(15) 0.8872(3)
C35_2 C 0.8362(9) 0.8804(2) 0.2629(4)
H17_2 H 0.7219 0.8896 0.2834
C36_2 C 0.8360(8) 0.8513(2) 0.2041(4)
H18_2 H 0.7216 0.8419 0.1840
loop_
_geom_bond_atom_site_label_1
_geom_bond_atom_site_label_2
_geom_bond_site_symmetry_1
_geom_bond_site_symmetry_2
In3 O1 1_555 1_555
Ni1 N1 1_555 1_555
O1 In6 1_555 1_555
O2 In3 1_555 1_555
N1 C2 1_555 1_555
N2 Ni1 1_555 1_555
C1 H1 1_555 1_555
C2 C1 1_555 1_555
C3 C2 1_555 1_555
C4 N2 1_555 1_555
C5 C4 1_555 1_555
H2 C5 1_555 1_555
C6 C3 1_555 1_555
C7 C6 1_555 1_555
H3 C7 1_555 1_555
C8 C7 1_555 1_555
H4 C8 1_555 1_555
C9 C8 1_555 1_555
C10 O2 1_555 1_555
O3 C20 1_555 1_555
N3 Ni1 1_555 1_555
C11 C1 1_555 1_555
H5 C11 1_555 1_555
C12 N1 1_555 1_555
C13 C12 1_555 1_555
C14 N3 1_555 1_555
C15 C14 1_555 1_555
H6 C15 1_555 1_555
C16 C13 1_555 1_555
C17 C16 1_555 1_555
H7 C17 1_555 1_555
C18 C17 1_555 1_555
H8 C18 1_555 1_555
C19 C18 1_555 1_555
C20 C19 1_555 1_555
O4 C30 1_555 1_555
N4 Ni1 1_555 1_555
C21 H9 1_555 1_555
C22 N4 1_555 1_555
C23 C22 1_555 1_555
C24 N2 1_555 1_555
C25 C5 1_555 1_555
H10 C25 1_555 1_555
C26 C23 1_555 1_555
C27 C26 1_555 1_555
H11 C27 1_555 1_555
C28 C27 1_555 1_555
H12 C28 1_555 1_555
C29 C28 1_555 1_555
C30 C29 1_555 1_555
O5 C30 1_555 1_555
C31 C26 1_555 1_555
H13 C31 1_555 1_555
C32 C29 1_555 1_555
H14 C32 1_555 1_555
O6 C20 1_555 1_555
C33 C16 1_555 1_555
H15 C33 1_555 1_555
C34 C19 1_555 1_555
H16 C34 1_555 1_555
O7 C10 1_555 1_555
C35 C6 1_555 1_555
H17 C35 1_555 1_555
C36 C9 1_555 1_555
H18 C36 1_555 1_555
O8 C46 1_555 1_555
C37 C21 1_555 1_555
H19 C37 1_555 1_555
C38 N4 1_555 1_555
C39 C38 1_555 1_555
C40 N3 1_555 1_555
C41 C15 1_555 1_555
H20 C41 1_555 1_555
C42 C39 1_555 1_555
C43 C42 1_555 1_555
H21 C43 1_555 1_555
C44 C43 1_555 1_555
H22 C44 1_555 1_555
C45 C44 1_555 1_555
C46 C45 1_555 1_555
O9 C46 1_555 1_555
C47 C42 1_555 1_555
H23 C47 1_555 1_555
C48 C45 1_555 1_555
H24 C48 1_555 1_555
In4 O3 1_555 1_555
O10 In4 1_555 1_555
In3_2 O5 1_555 1_555
In4_2 O9 1_555 1_555
In6 O7 1_555 1_555
In6_2 O4 1_555 1_555
In8 O6 1_555 1_555
In8_2 O8 1_555 1_555
O11_3 In4 1_555 1_555
O12 In3 1_555 1_555
O13 In4 1_555 1_555
O14 In3 1_555 1_555
C3 C4 1_555 1_555
C9 C10 1_555 1_555
C11 C12 1_555 1_555
C13 C14 1_555 1_555
C21 C22 1_555 1_555
C23 C24 1_555 1_555
C24 C25 1_555 1_555
C31 C32 1_555 1_555
C33 C34 1_555 1_555
C35 C36 1_555 1_555
C37 C38 1_555 1_555
C39 C40 1_555 1_555
C40 C41 1_555 1_555
C47 C48 1_555 1_555
O10 In8 1_555 1_555
In3_2 O1_2 1_555 1_555
O1_2 In6_2 1_555 1_555
O10_2 In4_2 1_555 1_555
O11_4 In4_2 1_555 1_555
O12_2 In3_2 1_555 1_555
O17 In3_2 1_555 1_555
O18 In4_2 1_555 1_555
O10_2 In8_2 1_555 1_555
O11 In8 1_555 1_555
O12_3 In6 1_555 1_555
O17_2 In6 1_555 1_555
O18_2 In8 1_555 1_555
O11_2 In8_2 1_555 1_555
O12_4 In6_2 1_555 1_555
O13_2 In8_2 1_555 1_555
O14_2 In6_2 1_555 1_555
Ni1_2 N1_2 1_555 1_555
O14 C20_2 1_555 1_555
N3_2 Ni1_2 1_555 1_555
H5_2 C11_2 1_555 1_555
C12_2 N1_2 1_555 1_555
C13_2 C12_2 1_555 1_555
C14_2 N3_2 1_555 1_555
C15_2 C14_2 1_555 1_555
H6_2 C15_2 1_555 1_555
C16_2 C13_2 1_555 1_555
C20_2 C19_2 1_555 1_555
N4_2 Ni1_2 1_555 1_555
C33_2 C16_2 1_555 1_555
H15_2 C33_2 1_555 1_555
C34_2 C19_2 1_555 1_555
H16_2 C34_2 1_555 1_555
H19_2 C37_2 1_555 1_555
C38_2 N4_2 1_555 1_555
C39_2 C38_2 1_555 1_555
C40_2 N3_2 1_555 1_555
C41_2 C15_2 1_555 1_555
H20_2 C41_2 1_555 1_555
C42_2 C39_2 1_555 1_555
C43_2 C42_2 1_555 1_555
H21_2 C43_2 1_555 1_555
C44_2 C43_2 1_555 1_555
H22_2 C44_2 1_555 1_555
C45_2 C44_2 1_555 1_555
C46_2 C45_2 1_555 1_555
O17 C46_2 1_555 1_555
C11_2 C12_2 1_555 1_555
C13_2 C14_2 1_555 1_555
C33_2 C34_2 1_555 1_555
C37_2 C38_2 1_555 1_555
C39_2 C40_2 1_555 1_555
C40_2 C41_2 1_555 1_555
Ni1_3 N1_3 1_555 1_555
N1_3 C2_2 1_555 1_555
N2_2 Ni1_3 1_555 1_555
C1_2 H1_2 1_555 1_555
C2_2 C1_2 1_555 1_555
C3_2 C2_2 1_555 1_555
C4_2 N2_2 1_555 1_555
C5_2 C4_2 1_555 1_555
H2_2 C5_2 1_555 1_555
C6_2 C3_2 1_555 1_555
C7_2 C6_2 1_555 1_555
H3_2 C7_2 1_555 1_555
C8_2 C7_2 1_555 1_555
H4_2 C8_2 1_555 1_555
C9_2 C8_2 1_555 1_555
O13_2 C30_2 1_555 1_555
N4_3 Ni1_3 1_555 1_555
C21_2 H9_2 1_555 1_555
C22_2 N4_3 1_555 1_555
C23_2 C22_2 1_555 1_555
C24_2 N2_2 1_555 1_555
C25_2 C5_2 1_555 1_555
H10_2 C25_2 1_555 1_555
C26_2 C23_2 1_555 1_555
C30_2 C29_2 1_555 1_555
C31_2 C26_2 1_555 1_555
H13_2 C31_2 1_555 1_555
C32_2 C29_2 1_555 1_555
H14_2 C32_2 1_555 1_555
O18_2 C10_2 1_555 1_555
C3_2 C4_2 1_555 1_555
C9_2 C10_2 1_555 1_555
C21_2 C22_2 1_555 1_555
C23_2 C24_2 1_555 1_555
C24_2 C25_2 1_555 1_555
C31_2 C32_2 1_555 1_555
Ni1_4 N1_4 1_555 1_555
N3_3 Ni1_4 1_555 1_555
H5_3 C11_3 1_555 1_555
C12_3 N1_4 1_555 1_555
C13_3 C12_3 1_555 1_555
C14_3 N3_3 1_555 1_555
C15_3 C14_3 1_555 1_555
H6_3 C15_3 1_555 1_555
C16_3 C13_3 1_555 1_555
C17_2 C16_3 1_555 1_555
H7_2 C17_2 1_555 1_555
C18_2 C17_2 1_555 1_555
H8_2 C18_2 1_555 1_555
C19_3 C18_2 1_555 1_555
C20_3 C19_3 1_555 1_555
N4_4 Ni1_4 1_555 1_555
O17_2 C20_3 1_555 1_555
O14_2 C46_3 1_555 1_555
H19_3 C37_3 1_555 1_555
C38_3 N4_4 1_555 1_555
C39_3 C38_3 1_555 1_555
C40_3 N3_3 1_555 1_555
C41_3 C15_3 1_555 1_555
H20_3 C41_3 1_555 1_555
C42_3 C39_3 1_555 1_555
C46_3 C45_3 1_555 1_555
C47_2 C42_3 1_555 1_555
H23_2 C47_2 1_555 1_555
C48_2 C45_3 1_555 1_555
H24_2 C48_2 1_555 1_555
C11_3 C12_3 1_555 1_555
C13_3 C14_3 1_555 1_555
C37_3 C38_3 1_555 1_555
C39_3 C40_3 1_555 1_555
C40_3 C41_3 1_555 1_555
C47_2 C48_2 1_555 1_555
Ni1_5 N1_5 1_555 1_555
N1_5 C2_3 1_555 1_555
N2_3 Ni1_5 1_555 1_555
C1_3 H1_3 1_555 1_555
C2_3 C1_3 1_555 1_555
C3_3 C2_3 1_555 1_555
C4_3 N2_3 1_555 1_555
C5_3 C4_3 1_555 1_555
H2_3 C5_3 1_555 1_555
C6_3 C3_3 1_555 1_555
C10_3 O13 1_555 1_555
N4_5 Ni1_5 1_555 1_555
C21_3 H9_3 1_555 1_555
C22_3 N4_5 1_555 1_555
C23_3 C22_3 1_555 1_555
C24_3 N2_3 1_555 1_555
C25_3 C5_3 1_555 1_555
H10_3 C25_3 1_555 1_555
C26_3 C23_3 1_555 1_555
C27_2 C26_3 1_555 1_555
H11_2 C27_2 1_555 1_555
C28_2 C27_2 1_555 1_555
H12_2 C28_2 1_555 1_555
C29_3 C28_2 1_555 1_555
C30_3 C29_3 1_555 1_555
O18 C30_3 1_555 1_555
C35_2 C6_3 1_555 1_555
H17_2 C35_2 1_555 1_555
C36_2 C9_3 1_555 1_555
H18_2 C36_2 1_555 1_555
C3_3 C4_3 1_555 1_555
C9_3 C10_3 1_555 1_555
C21_3 C22_3 1_555 1_555
C23_3 C24_3 1_555 1_555
C24_3 C25_3 1_555 1_555
C35_2 C36_2 1_555 1_555

#END
