
###############################################################################
#
# This file contains modified crystal structure data generated from the
# MOF subset of the Cambridge Structural Database (CSD) v543 
# hosted by the Cambridge Crystallographic Data Centre (CCDC).
#
# This work is licensed under the Creative Commons
# Attribution-NonCommercial-ShareAlike 4.0 International License.
# To view a copy of this license, visit
# http://creativecommons.org/licenses/by-nc-sa/4.0/
# or send a letter to
# Creative Commons, PO Box 1866, Mountain View, CA 94042, USA.
#
# CIF created using the CSD Python API on 29 September 2022
# The structure has been converted into the P1 space group
# The structure has a 3D framework
# The original CSD entry ERANOB is in the monoclinic crystal system
# The framework has been calculated to contain at least 10.0% void space
# The void calculation uses a probe of radius 1.32A, grid spacing 0.4
#
###############################################################################

data_ERANOB
_chemical_formula_moiety         '(C128 H96 N38 Ni8 O34)n'
_symmetry_cell_setting           triclinic
_symmetry_space_group_name_H-M   'P 1'
_symmetry_Int_Tables_number      1
_space_group_name_Hall           'P 1'
loop_
_symmetry_equiv_pos_site_id
_symmetry_equiv_pos_as_xyz
1 x,y,z
_cell_length_a                   8.2800(17)
_cell_length_b                   28.059(6)
_cell_length_c                   16.424(3)
_cell_angle_alpha                90
_cell_angle_beta                 94.02(3)
_cell_angle_gamma                90
_cell_volume                     3806.38
loop_
_atom_site_label
_atom_site_type_symbol
_atom_site_fract_x
_atom_site_fract_y
_atom_site_fract_z
Ni1 Ni 0.22742(9) 0.42707(2) 0.84747(4)
C1 C 0.2202(7) 0.40192(19) 0.6598(4)
C2 C 0.3417(8) 0.3986(2) 0.5981(4)
H1 H 0.3063 0.3926 0.5441
C3 C 0.4967(7) 0.4037(2) 0.6165(4)
H2 H 0.5327 0.4081 0.6708
C4 C 0.6171(7) 0.4028(2) 0.5544(4)
C9 C 0.0743(8) 0.3461(2) 0.9347(4)
H5 H 0.0239 0.3707 0.9612
C10 C 0.0363(9) 0.3002(2) 0.9540(4)
C11 C 0.1115(8) 0.2628(2) 0.9175(4)
C12 C 0.2225(9) 0.2743(2) 0.8633(5)
H7 H 0.2774 0.2504 0.8375
C13 C 0.2534(9) 0.3211(2) 0.8470(4)
H8 H 0.3307 0.3281 0.8103
C14 C 0.0697(8) 0.2133(2) 0.9339(4)
C15 C 0.0543(8) 0.1389(2) 0.9228(4)
C16 C 0.0700(8) 0.0890(2) 0.8983(4)
C17 C 0.1891(10) 0.0755(2) 0.8514(5)
H9 H 0.2640 0.0977 0.8352
C18 C 0.1988(10) 0.0285(3) 0.8278(5)
H10 H 0.2807 0.0200 0.7947
C21 C 0.2051(9) 0.5330(2) 0.8439(4)
H13 H 0.1473 0.5272 0.8894
C22 C 0.2147(10) 0.5786(2) 0.8169(5)
H14 H 0.1661 0.6031 0.8445
C23 C 0.2959(8) 0.5885(2) 0.7491(4)
C24 C 0.3707(8) 0.5513(2) 0.7127(4)
H15 H 0.4294 0.5564 0.6672
C25 C 0.3569(8) 0.5061(2) 0.7448(4)
H16 H 0.4088 0.4811 0.7202
C26 C 0.3024(9) 0.6376(2) 0.7201(4)
C27 C 0.2786(9) 0.7112(2) 0.7113(4)
C28 C 0.2394(8) 0.7599(2) 0.7320(4)
C29 C 0.2922(10) 0.7980(2) 0.6887(5)
H17 H 0.3541 0.7931 0.6443
C30 C 0.2536(10) 0.8427(2) 0.7108(5)
H18 H 0.2939 0.8679 0.6816
C31 C 0.1439(11) 0.7698(2) 0.7937(5)
H19 H 0.1026 0.7452 0.8239
C32 C 0.1084(10) 0.8165(2) 0.8115(5)
H20 H 0.0428 0.8225 0.8541
H21 H 0.539(6) 0.429(2) 0.850(3)
H22 H 0.483(8) 0.416(3) 0.9218(12)
H24 H 0.394(9) 0.634(2) 0.613(3)
N1 N 0.1778(6) 0.35743(16) 0.8810(3)
N2 N 0.1239(7) 0.17591(17) 0.8914(3)
N6 N 0.2740(6) 0.49647(16) 0.8088(3)
N7 N 0.2486(8) 0.67440(18) 0.7601(3)
N8 N 0.3447(9) 0.69946(19) 0.6437(4)
N9 N 0.3584(9) 0.65180(19) 0.6510(4)
N10 N 0.1623(6) 0.85297(17) 0.7714(3)
O1 O 0.2702(5) 0.40361(14) 0.7329(2)
O2 O 0.0759(5) 0.40429(14) 0.6328(2)
O3 O 0.7638(5) 0.40629(14) 0.5792(2)
O4 O 0.5710(6) 0.39930(19) 0.4808(3)
O9 O 0.4676(5) 0.41231(15) 0.8708(3)
Ni5 Ni 0.11911(9) 0.92179(2) 0.81038(5)
Ni6 Ni 0.88089(9) 0.42179(2) 0.68962(5)
O11 O 0.2014(5) 0.45304(13) 0.9622(2)
N5 N 0.0993(6) 0.99477(17) 0.8493(3)
C5 C 0.8476(8) 0.45608(18) 0.8281(4)
C6 C 0.8334(8) 0.4831(2) 0.9033(4)
H3 H 0.9096 0.4785 0.9469
C7 C 0.7159(8) 0.5136(2) 0.9106(4)
H4 H 0.6418 0.5169 0.8658
C8 C 0.6878(9) 0.5436(2) 0.9829(4)
H6 H 0.9600 0.2943 0.9917
C19 C 0.9669(9) 0.0548(2) 0.9211(5)
H11 H 0.8837 0.0624 0.9539
C20 C 0.9862(9) 0.0089(2) 0.8955(4)
N3 N 0.9740(8) 0.20094(18) 0.9910(4)
N4 N 0.9637(8) 0.15332(18) 0.9817(4)
O5 O 0.9831(5) 0.44011(13) 0.8088(2)
O6 O 0.7272(5) 0.44986(13) 0.7791(2)
O8 O 0.5534(7) 0.5625(2) 0.9811(3)
N11 N 0.9007(6) 0.49477(17) 0.6507(3)
N12 N 0.8377(6) 0.35297(17) 0.7286(3)
C5_2 C 0.1524(8) 0.95608(18) 0.6719(4)
C6_2 C 0.1666(8) 0.9831(2) 0.5967(4)
H3_2 H 0.0904 0.9785 0.5531
H6_2 H 0.0400 0.7943 0.5083
C19_2 C 0.0331(9) 0.5548(2) 0.5789(5)
H11_2 H 0.1163 0.5624 0.5461
C20_2 C 0.0138(9) 0.5089(2) 0.6045(4)
H12 H 0.0864 0.4862 0.5880
H23 H 0.089(6) 0.6352(17) 0.487(3)
N3_2 N 0.0260(8) 0.70094(18) 0.5090(4)
N4_2 N 0.0363(8) 0.65332(18) 0.5183(4)
O5_2 O 0.0169(5) 0.94011(13) 0.6912(2)
O6_2 O 0.2728(5) 0.94986(13) 0.7209(2)
O10 O 0.2362(5) 0.90629(14) 0.9208(2)
C21_2 C 0.7949(9) 0.0330(2) 0.6561(4)
H13_2 H 0.8527 0.0272 0.6106
C22_2 C 0.7853(10) 0.0786(2) 0.6831(5)
H14_2 H 0.8339 0.1031 0.6555
C23_2 C 0.7041(8) 0.0885(2) 0.7509(4)
C24_2 C 0.6293(8) 0.0513(2) 0.7873(4)
H15_2 H 0.5706 0.0564 0.8328
C25_2 C 0.6431(8) 0.0061(2) 0.7552(4)
C26_2 C 0.6976(9) 0.1376(2) 0.7799(4)
C27_2 C 0.7214(9) 0.2112(2) 0.7887(4)
C28_2 C 0.7606(8) 0.2599(2) 0.7680(4)
C29_2 C 0.7078(10) 0.2980(2) 0.8113(5)
H17_2 H 0.6459 0.2931 0.8557
C30_2 C 0.7464(10) 0.3427(2) 0.7892(5)
H18_2 H 0.7061 0.3679 0.8184
C31_2 C 0.8561(11) 0.2698(2) 0.7063(5)
H19_2 H 0.8974 0.2452 0.6761
C32_2 C 0.8916(10) 0.3165(2) 0.6885(5)
H20_2 H 0.9572 0.3225 0.6459
H24_2 H 0.606(9) 0.134(2) 0.887(3)
N7_2 N 0.7514(8) 0.17440(18) 0.7399(3)
N8_2 N 0.6553(9) 0.19946(19) 0.8563(4)
N9_2 N 0.6416(9) 0.15180(19) 0.8490(4)
Ni1_2 Ni 0.77258(9) 0.92707(2) 0.65253(4)
C1_2 C 0.7798(7) 0.90192(19) 0.8402(4)
C2_2 C 0.6583(8) 0.8986(2) 0.9019(4)
H1_2 H 0.6937 0.8926 0.9559
C3_2 C 0.5033(7) 0.9037(2) 0.8835(4)
H2_2 H 0.4673 0.9081 0.8292
C4_2 C 0.3829(7) 0.9028(2) 0.9456(4)
C9_2 C 0.9257(8) 0.8461(2) 0.5653(4)
H5_2 H 0.9761 0.8707 0.5388
C10_2 C 0.9637(9) 0.8002(2) 0.5460(4)
C11_2 C 0.8885(8) 0.7628(2) 0.5825(4)
C12_2 C 0.7775(9) 0.7743(2) 0.6367(5)
H7_2 H 0.7226 0.7504 0.6625
C13_2 C 0.7466(9) 0.8211(2) 0.6530(4)
H8_2 H 0.6693 0.8281 0.6897
C14_2 C 0.9303(8) 0.7133(2) 0.5661(4)
C15_2 C 0.9457(8) 0.6389(2) 0.5772(4)
C16_2 C 0.9300(8) 0.5890(2) 0.6017(4)
C17_2 C 0.8109(10) 0.5755(2) 0.6486(5)
H9_2 H 0.7360 0.5977 0.6648
C18_2 C 0.8012(10) 0.5285(3) 0.6722(5)
H10_2 H 0.7193 0.5200 0.7053
H16_2 H 0.5912 0.9811 0.7798
H21_2 H 0.461(6) 0.929(2) 0.650(3)
H22_2 H 0.517(8) 0.916(3) 0.5782(12)
N1_2 N 0.8222(6) 0.85743(16) 0.6190(3)
N2_2 N 0.8761(7) 0.67591(17) 0.6086(3)
N6_2 N 0.7260(6) 0.99647(16) 0.6912(3)
O1_2 O 0.7298(5) 0.90361(14) 0.7671(2)
O2_2 O 0.9241(5) 0.90429(14) 0.8672(2)
O9_2 O 0.5324(5) 0.91231(15) 0.6292(3)
O11_2 O 0.7986(5) 0.95304(13) 0.5378(2)
H23_2 H 0.089(6) 0.8648(17) 0.987(3)
C7_2 C 0.7159(8) 0.9864(2) 0.4106(4)
H4_2 H 0.6418 0.9831 0.3658
C8_2 C 0.6878(9) 0.9564(2) 0.4829(4)
O8_2 O 0.5534(7) 0.9375(2) 0.4811(3)
H23_3 H 0.911(6) 0.1352(17) 0.013(3)
O7 O 0.7986(5) 0.54696(13) 0.0378(2)
Ni3 Ni 0.77258(9) 0.57293(2) 0.15253(4)
C7_3 C 0.2841(8) 0.0136(2) 0.5894(4)
H4_3 H 0.3582 0.0169 0.6342
C8_3 C 0.3122(9) 0.0436(2) 0.5171(4)
O7_2 O 0.2014(5) 0.04696(13) 0.4622(2)
O8_3 O 0.4466(7) 0.0625(2) 0.5189(3)
Ni3_2 Ni 0.22742(9) 0.07293(2) 0.34747(4)
Ni2 Ni 0.11911(9) 0.57821(2) 0.31038(5)
C5_3 C 0.1524(8) 0.54392(18) 0.1719(4)
C6_3 C 0.1666(8) 0.5169(2) 0.0967(4)
H3_3 H 0.0904 0.5215 0.0531
C7_4 C 0.2841(8) 0.4864(2) 0.0894(4)
H4_4 H 0.3582 0.4831 0.1342
C8_4 C 0.3122(9) 0.4564(2) 0.0171(4)
H6_3 H 0.0400 0.7057 0.0083
C19_3 C 0.0331(9) 0.9452(2) 0.0789(5)
H11_3 H 0.1163 0.9376 0.0461
C20_3 C 0.0138(9) 0.9911(2) 0.1045(4)
N3_3 N 0.0260(8) 0.79906(18) 0.0090(4)
N4_3 N 0.0363(8) 0.84668(18) 0.0183(4)
O5_3 O 0.0169(5) 0.55989(13) 0.1912(2)
O6_3 O 0.2728(5) 0.55014(13) 0.2209(2)
O8_4 O 0.4466(7) 0.4375(2) 0.0189(3)
N11_2 N 0.0993(6) 0.50523(17) 0.3493(3)
N12_2 N 0.1623(6) 0.64703(17) 0.2714(3)
O10_2 O 0.2362(5) 0.59371(14) 0.4208(2)
N5_2 N 0.9007(6) 0.00523(17) 0.1507(3)
Ni4 Ni 0.88089(9) 0.07821(2) 0.18962(5)
C1_3 C 0.7798(7) 0.59808(19) 0.3402(4)
C2_3 C 0.6583(8) 0.6014(2) 0.4019(4)
H1_3 H 0.6937 0.6074 0.4559
C3_3 C 0.5033(7) 0.5963(2) 0.3835(4)
H2_3 H 0.4673 0.5919 0.3292
C4_3 C 0.3829(7) 0.5972(2) 0.4456(4)
C9_3 C 0.9257(8) 0.6539(2) 0.0653(4)
H5_3 H 0.9761 0.6293 0.0388
C10_3 C 0.9637(9) 0.6998(2) 0.0460(4)
C11_3 C 0.8885(8) 0.7372(2) 0.0825(4)
C12_3 C 0.7775(9) 0.7257(2) 0.1367(5)
H7_3 H 0.7226 0.7496 0.1625
C13_3 C 0.7466(9) 0.6789(2) 0.1530(4)
H8_3 H 0.6693 0.6719 0.1897
C14_3 C 0.9303(8) 0.7867(2) 0.0661(4)
C15_3 C 0.9457(8) 0.8611(2) 0.0772(4)
C16_3 C 0.9300(8) 0.9110(2) 0.1017(4)
C17_3 C 0.8109(10) 0.9245(2) 0.1486(5)
H9_3 H 0.7360 0.9023 0.1648
C18_3 C 0.8012(10) 0.9715(3) 0.1722(5)
H10_3 H 0.7193 0.9800 0.2053
C21_3 C 0.7949(9) 0.4670(2) 0.1561(4)
H13_3 H 0.8527 0.4728 0.1106
C22_3 C 0.7853(10) 0.4214(2) 0.1831(5)
H14_3 H 0.8339 0.3969 0.1555
C23_3 C 0.7041(8) 0.4115(2) 0.2509(4)
C24_3 C 0.6293(8) 0.4487(2) 0.2873(4)
H15_3 H 0.5706 0.4436 0.3328
C25_3 C 0.6431(8) 0.4939(2) 0.2552(4)
H16_3 H 0.5912 0.5189 0.2798
C26_3 C 0.6976(9) 0.3624(2) 0.2799(4)
C27_3 C 0.7214(9) 0.2888(2) 0.2887(4)
C28_3 C 0.7606(8) 0.2401(2) 0.2680(4)
C29_3 C 0.7078(10) 0.2020(2) 0.3113(5)
H17_3 H 0.6459 0.2069 0.3557
C30_3 C 0.7464(10) 0.1573(2) 0.2892(5)
H18_3 H 0.7061 0.1321 0.3184
C31_3 C 0.8561(11) 0.2302(2) 0.2063(5)
H19_3 H 0.8974 0.2548 0.1761
C32_3 C 0.8916(10) 0.1835(2) 0.1885(5)
H20_3 H 0.9572 0.1775 0.1459
H21_3 H 0.461(6) 0.571(2) 0.150(3)
H22_3 H 0.517(8) 0.584(3) 0.0782(12)
H24_3 H 0.606(9) 0.366(2) 0.387(3)
N1_3 N 0.8222(6) 0.64257(16) 0.1190(3)
N2_3 N 0.8761(7) 0.82409(17) 0.1086(3)
N6_3 N 0.7260(6) 0.50353(16) 0.1912(3)
N7_3 N 0.7514(8) 0.32560(18) 0.2399(3)
N8_3 N 0.6553(9) 0.30054(19) 0.3563(4)
N9_3 N 0.6416(9) 0.34820(19) 0.3490(4)
N10_2 N 0.8377(6) 0.14703(17) 0.2286(3)
O1_3 O 0.7298(5) 0.59639(14) 0.2671(2)
O2_3 O 0.9241(5) 0.59571(14) 0.3672(2)
O4_2 O 0.4290(6) 0.60070(19) 0.5192(3)
O9_3 O 0.5324(5) 0.58769(15) 0.1292(3)
C1_4 C 0.2202(7) 0.09808(19) 0.1598(4)
C2_4 C 0.3417(8) 0.1014(2) 0.0981(4)
H1_4 H 0.3063 0.1074 0.0441
C3_4 C 0.4967(7) 0.0963(2) 0.1165(4)
H2_4 H 0.5327 0.0919 0.1708
C4_4 C 0.6171(7) 0.0972(2) 0.0544(4)
C9_4 C 0.0743(8) 0.1539(2) 0.4347(4)
H5_4 H 0.0239 0.1293 0.4612
C10_4 C 0.0363(9) 0.1998(2) 0.4540(4)
C11_4 C 0.1115(8) 0.2372(2) 0.4175(4)
C12_4 C 0.2225(9) 0.2257(2) 0.3633(5)
H7_4 H 0.2774 0.2496 0.3375
C13_4 C 0.2534(9) 0.1789(2) 0.3470(4)
H8_4 H 0.3307 0.1719 0.3103
C14_4 C 0.0697(8) 0.2867(2) 0.4339(4)
C15_4 C 0.0543(8) 0.3611(2) 0.4228(4)
C16_4 C 0.0700(8) 0.4110(2) 0.3983(4)
C17_4 C 0.1891(10) 0.4245(2) 0.3514(5)
H9_4 H 0.2640 0.4023 0.3352
C18_4 C 0.1988(10) 0.4715(3) 0.3278(5)
H10_4 H 0.2807 0.4800 0.2947
H16_4 H 0.4088 0.0189 0.2202
H21_4 H 0.539(6) 0.071(2) 0.350(3)
H22_4 H 0.483(8) 0.084(3) 0.4218(12)
N1_4 N 0.1778(6) 0.14257(16) 0.3810(3)
N2_4 N 0.1239(7) 0.32409(17) 0.3914(3)
N6_4 N 0.2740(6) 0.00353(16) 0.3088(3)
O1_4 O 0.2702(5) 0.09639(14) 0.2329(2)
O2_4 O 0.0759(5) 0.09571(14) 0.1328(2)
O3_2 O 0.7638(5) 0.09371(14) 0.0792(2)
O9_4 O 0.4676(5) 0.08769(15) 0.3708(3)
C21_4 C 0.2051(9) 0.9670(2) 0.3439(4)
H13_4 H 0.1473 0.9728 0.3894
C22_4 C 0.2147(10) 0.9214(2) 0.3169(5)
H14_4 H 0.1661 0.8969 0.3445
C23_4 C 0.2959(8) 0.9115(2) 0.2491(4)
C24_4 C 0.3707(8) 0.9487(2) 0.2127(4)
H15_4 H 0.4294 0.9436 0.1672
C25_4 C 0.3569(8) 0.9939(2) 0.2448(4)
C26_4 C 0.3024(9) 0.8624(2) 0.2201(4)
C27_4 C 0.2786(9) 0.7888(2) 0.2113(4)
C28_4 C 0.2394(8) 0.7401(2) 0.2320(4)
C29_4 C 0.2922(10) 0.7020(2) 0.1887(5)
H17_4 H 0.3541 0.7069 0.1443
C30_4 C 0.2536(10) 0.6573(2) 0.2108(5)
H18_4 H 0.2939 0.6321 0.1816
C31_4 C 0.1439(11) 0.7302(2) 0.2937(5)
H19_4 H 0.1026 0.7548 0.3239
C32_4 C 0.1084(10) 0.6835(2) 0.3115(5)
H20_4 H 0.0428 0.6775 0.3541
H24_4 H 0.394(9) 0.866(2) 0.113(3)
N7_4 N 0.2486(8) 0.82560(18) 0.2601(3)
N8_4 N 0.3447(9) 0.80054(19) 0.1437(4)
N9_4 N 0.3584(9) 0.84820(19) 0.1510(4)
C5_4 C 0.8476(8) 0.04392(18) 0.3281(4)
C6_4 C 0.8334(8) 0.0169(2) 0.4033(4)
H3_4 H 0.9096 0.0215 0.4469
H6_4 H 0.9600 0.2057 0.4917
C19_4 C 0.9669(9) 0.4452(2) 0.4211(5)
H11_4 H 0.8837 0.4376 0.4539
C20_4 C 0.9862(9) 0.4911(2) 0.3955(4)
H12_2 H 0.9136 0.5138 0.4120
H23_4 H 0.911(6) 0.3648(17) 0.513(3)
N3_4 N 0.9740(8) 0.29906(18) 0.4910(4)
N4_4 N 0.9637(8) 0.34668(18) 0.4817(4)
O5_4 O 0.9831(5) 0.05989(13) 0.3088(2)
O6_4 O 0.7272(5) 0.05014(13) 0.2791(2)
H12_3 H 0.9136 0.9862 0.9120
O4_3 O 0.4290(6) 0.89930(19) 0.0192(3)
H12_4 H 0.0864 0.0138 0.0880
O4_4 O 0.5710(6) 0.10070(19) 0.9808(3)
loop_
_geom_bond_atom_site_label_1
_geom_bond_atom_site_label_2
_geom_bond_site_symmetry_1
_geom_bond_site_symmetry_2
Ni1 N1 1_555 1_555
C1 C2 1_555 1_555
C2 H1 1_555 1_555
C3 C2 1_555 1_555
H2 C3 1_555 1_555
C4 C3 1_555 1_555
C9 H5 1_555 1_555
C10 C9 1_555 1_555
C11 C10 1_555 1_555
C12 C11 1_555 1_555
H7 C12 1_555 1_555
C13 C12 1_555 1_555
H8 C13 1_555 1_555
C14 C11 1_555 1_555
C15 C16 1_555 1_555
C16 C17 1_555 1_555
C17 H9 1_555 1_555
C18 C17 1_555 1_555
H10 C18 1_555 1_555
C21 H13 1_555 1_555
C22 C21 1_555 1_555
H14 C22 1_555 1_555
C23 C22 1_555 1_555
C24 C23 1_555 1_555
H15 C24 1_555 1_555
C25 C24 1_555 1_555
H16 C25 1_555 1_555
C26 C23 1_555 1_555
C27 C28 1_555 1_555
C28 C29 1_555 1_555
C29 H17 1_555 1_555
C30 C29 1_555 1_555
H18 C30 1_555 1_555
C31 C28 1_555 1_555
H19 C31 1_555 1_555
C32 C31 1_555 1_555
H20 C32 1_555 1_555
H21 O9 1_555 1_555
H22 O9 1_555 1_555
H24 N9 1_555 1_555
N1 C9 1_555 1_555
N2 C14 1_555 1_555
N6 Ni1 1_555 1_555
N7 C26 1_555 1_555
N8 C27 1_555 1_555
N9 C26 1_555 1_555
N10 C30 1_555 1_555
O1 Ni1 1_555 1_555
O2 C1 1_555 1_555
O3 C4 1_555 1_555
O4 C4 1_555 1_555
O9 Ni1 1_555 1_555
Ni5 N10 1_555 1_555
Ni6 O3 1_555 1_555
O11 Ni1 1_555 1_555
C1 O1 1_555 1_555
C13 N1 1_555 1_555
C15 N2 1_555 1_555
C21 N6 1_555 1_555
C25 N6 1_555 1_555
C27 N7 1_555 1_555
C32 N10 1_555 1_555
N8 N9 1_555 1_555
Ni5 N5 1_555 1_555
C5 C6 1_555 1_555
C6 H3 1_555 1_555
C7 C6 1_555 1_555
H4 C7 1_555 1_555
C8 C7 1_555 1_555
H11 C19 1_555 1_555
C20 C19 1_555 1_555
O6 Ni6 1_555 1_555
O8 C8 1_555 1_555
N11 Ni6 1_555 1_555
N12 Ni6 1_555 1_555
Ni6 O5 1_555 1_555
C5 O5 1_555 1_555
C5 O6 1_555 1_555
N3 N4 1_555 1_555
C5_2 C6_2 1_555 1_555
C6_2 H3_2 1_555 1_555
H11_2 C19_2 1_555 1_555
C20_2 C19_2 1_555 1_555
H12 C20_2 1_555 1_555
H23 N4_2 1_555 1_555
O6_2 Ni5 1_555 1_555
O10 Ni5 1_555 1_555
Ni5 O5_2 1_555 1_555
C5_2 O5_2 1_555 1_555
C5_2 O6_2 1_555 1_555
N3_2 N4_2 1_555 1_555
C21_2 H13_2 1_555 1_555
C22_2 C21_2 1_555 1_555
H14_2 C22_2 1_555 1_555
C23_2 C22_2 1_555 1_555
C24_2 C23_2 1_555 1_555
H15_2 C24_2 1_555 1_555
C25_2 C24_2 1_555 1_555
C26_2 C23_2 1_555 1_555
C27_2 C28_2 1_555 1_555
C28_2 C29_2 1_555 1_555
C29_2 H17_2 1_555 1_555
C30_2 C29_2 1_555 1_555
H18_2 C30_2 1_555 1_555
C31_2 C28_2 1_555 1_555
H19_2 C31_2 1_555 1_555
C32_2 C31_2 1_555 1_555
H20_2 C32_2 1_555 1_555
H24_2 N9_2 1_555 1_555
N7_2 C26_2 1_555 1_555
N8_2 C27_2 1_555 1_555
N9_2 C26_2 1_555 1_555
N12 C30_2 1_555 1_555
C27_2 N7_2 1_555 1_555
C32_2 N12 1_555 1_555
N8_2 N9_2 1_555 1_555
Ni1_2 N1_2 1_555 1_555
C1_2 C2_2 1_555 1_555
C2_2 H1_2 1_555 1_555
C3_2 C2_2 1_555 1_555
H2_2 C3_2 1_555 1_555
C4_2 C3_2 1_555 1_555
C9_2 H5_2 1_555 1_555
C10_2 C9_2 1_555 1_555
C11_2 C10_2 1_555 1_555
C12_2 C11_2 1_555 1_555
H7_2 C12_2 1_555 1_555
C13_2 C12_2 1_555 1_555
H8_2 C13_2 1_555 1_555
C14_2 C11_2 1_555 1_555
C15_2 C16_2 1_555 1_555
C16_2 C17_2 1_555 1_555
C17_2 H9_2 1_555 1_555
C18_2 C17_2 1_555 1_555
H10_2 C18_2 1_555 1_555
H21_2 O9_2 1_555 1_555
H22_2 O9_2 1_555 1_555
N1_2 C9_2 1_555 1_555
N2_2 C14_2 1_555 1_555
N11 C18_2 1_555 1_555
N6_2 Ni1_2 1_555 1_555
O1_2 Ni1_2 1_555 1_555
O2_2 C1_2 1_555 1_555
O10 C4_2 1_555 1_555
O9_2 Ni1_2 1_555 1_555
O11_2 Ni1_2 1_555 1_555
C1_2 O1_2 1_555 1_555
C13_2 N1_2 1_555 1_555
C15_2 N2_2 1_555 1_555
H4_2 C7_2 1_555 1_555
C8_2 C7_2 1_555 1_555
O11_2 C8_2 1_555 1_555
O8_2 C8_2 1_555 1_555
Ni3 O7 1_555 1_555
H4_3 C7_3 1_555 1_555
C8_3 C7_3 1_555 1_555
O7_2 C8_3 1_555 1_555
O8_3 C8_3 1_555 1_555
Ni3_2 O7_2 1_555 1_555
C5_3 C6_3 1_555 1_555
C6_3 H3_3 1_555 1_555
C7_4 C6_3 1_555 1_555
H4_4 C7_4 1_555 1_555
C8_4 C7_4 1_555 1_555
H11_3 C19_3 1_555 1_555
C20_3 C19_3 1_555 1_555
O6_3 Ni2 1_555 1_555
O8_4 C8_4 1_555 1_555
N11_2 Ni2 1_555 1_555
N12_2 Ni2 1_555 1_555
O10_2 Ni2 1_555 1_555
Ni2 O5_3 1_555 1_555
C5_3 O5_3 1_555 1_555
C5_3 O6_3 1_555 1_555
N3_3 N4_3 1_555 1_555
Ni4 N5_2 1_555 1_555
Ni3 N1_3 1_555 1_555
C1_3 C2_3 1_555 1_555
C2_3 H1_3 1_555 1_555
C3_3 C2_3 1_555 1_555
H2_3 C3_3 1_555 1_555
C4_3 C3_3 1_555 1_555
C9_3 H5_3 1_555 1_555
C10_3 C9_3 1_555 1_555
C11_3 C10_3 1_555 1_555
C12_3 C11_3 1_555 1_555
H7_3 C12_3 1_555 1_555
C13_3 C12_3 1_555 1_555
H8_3 C13_3 1_555 1_555
C14_3 C11_3 1_555 1_555
C15_3 C16_3 1_555 1_555
C16_3 C17_3 1_555 1_555
C17_3 H9_3 1_555 1_555
C18_3 C17_3 1_555 1_555
H10_3 C18_3 1_555 1_555
C21_3 H13_3 1_555 1_555
C22_3 C21_3 1_555 1_555
H14_3 C22_3 1_555 1_555
C23_3 C22_3 1_555 1_555
C24_3 C23_3 1_555 1_555
H15_3 C24_3 1_555 1_555
C25_3 C24_3 1_555 1_555
H16_3 C25_3 1_555 1_555
C26_3 C23_3 1_555 1_555
C27_3 C28_3 1_555 1_555
C28_3 C29_3 1_555 1_555
C29_3 H17_3 1_555 1_555
C30_3 C29_3 1_555 1_555
H18_3 C30_3 1_555 1_555
C31_3 C28_3 1_555 1_555
H19_3 C31_3 1_555 1_555
C32_3 C31_3 1_555 1_555
H20_3 C32_3 1_555 1_555
H21_3 O9_3 1_555 1_555
H22_3 O9_3 1_555 1_555
H24_3 N9_3 1_555 1_555
N1_3 C9_3 1_555 1_555
N2_3 C14_3 1_555 1_555
N6_3 Ni3 1_555 1_555
N7_3 C26_3 1_555 1_555
N8_3 C27_3 1_555 1_555
N9_3 C26_3 1_555 1_555
N10_2 C30_3 1_555 1_555
O1_3 Ni3 1_555 1_555
O2_3 C1_3 1_555 1_555
O10_2 C4_3 1_555 1_555
O4_2 C4_3 1_555 1_555
O9_3 Ni3 1_555 1_555
Ni4 N10_2 1_555 1_555
C1_3 O1_3 1_555 1_555
C13_3 N1_3 1_555 1_555
C15_3 N2_3 1_555 1_555
C21_3 N6_3 1_555 1_555
C25_3 N6_3 1_555 1_555
C27_3 N7_3 1_555 1_555
C32_3 N10_2 1_555 1_555
N8_3 N9_3 1_555 1_555
Ni3_2 N1_4 1_555 1_555
C1_4 C2_4 1_555 1_555
C2_4 H1_4 1_555 1_555
C3_4 C2_4 1_555 1_555
H2_4 C3_4 1_555 1_555
C4_4 C3_4 1_555 1_555
C9_4 H5_4 1_555 1_555
C10_4 C9_4 1_555 1_555
C11_4 C10_4 1_555 1_555
C12_4 C11_4 1_555 1_555
H7_4 C12_4 1_555 1_555
C13_4 C12_4 1_555 1_555
H8_4 C13_4 1_555 1_555
C14_4 C11_4 1_555 1_555
C15_4 C16_4 1_555 1_555
C16_4 C17_4 1_555 1_555
C17_4 H9_4 1_555 1_555
C18_4 C17_4 1_555 1_555
H10_4 C18_4 1_555 1_555
H21_4 O9_4 1_555 1_555
H22_4 O9_4 1_555 1_555
N1_4 C9_4 1_555 1_555
N2_4 C14_4 1_555 1_555
N11_2 C18_4 1_555 1_555
N6_4 Ni3_2 1_555 1_555
O1_4 Ni3_2 1_555 1_555
O2_4 C1_4 1_555 1_555
O3_2 C4_4 1_555 1_555
O9_4 Ni3_2 1_555 1_555
Ni4 O3_2 1_555 1_555
C1_4 O1_4 1_555 1_555
C13_4 N1_4 1_555 1_555
C15_4 N2_4 1_555 1_555
C21_4 H13_4 1_555 1_555
C22_4 C21_4 1_555 1_555
H14_4 C22_4 1_555 1_555
C23_4 C22_4 1_555 1_555
C24_4 C23_4 1_555 1_555
H15_4 C24_4 1_555 1_555
C25_4 C24_4 1_555 1_555
C26_4 C23_4 1_555 1_555
C27_4 C28_4 1_555 1_555
C28_4 C29_4 1_555 1_555
C29_4 H17_4 1_555 1_555
C30_4 C29_4 1_555 1_555
H18_4 C30_4 1_555 1_555
C31_4 C28_4 1_555 1_555
H19_4 C31_4 1_555 1_555
C32_4 C31_4 1_555 1_555
H20_4 C32_4 1_555 1_555
H24_4 N9_4 1_555 1_555
N7_4 C26_4 1_555 1_555
N8_4 C27_4 1_555 1_555
N9_4 C26_4 1_555 1_555
N12_2 C30_4 1_555 1_555
C27_4 N7_4 1_555 1_555
C32_4 N12_2 1_555 1_555
N8_4 N9_4 1_555 1_555
C5_4 C6_4 1_555 1_555
C6_4 H3_4 1_555 1_555
H11_4 C19_4 1_555 1_555
C20_4 C19_4 1_555 1_555
H12_2 C20_4 1_555 1_555
H23_4 N4_4 1_555 1_555
O6_4 Ni4 1_555 1_555
Ni4 O5_4 1_555 1_555
C5_4 O5_4 1_555 1_555
C5_4 O6_4 1_555 1_555
N3_4 N4_4 1_555 1_555

#END
