
###############################################################################
#
# This file contains modified crystal structure data generated from the
# MOF subset of the Cambridge Structural Database (CSD) v543 
# hosted by the Cambridge Crystallographic Data Centre (CCDC).
#
# This work is licensed under the Creative Commons
# Attribution-NonCommercial-ShareAlike 4.0 International License.
# To view a copy of this license, visit
# http://creativecommons.org/licenses/by-nc-sa/4.0/
# or send a letter to
# Creative Commons, PO Box 1866, Mountain View, CA 94042, USA.
#
# CIF created using the CSD Python API on 29 September 2022
# The structure has been converted into the P1 space group
# The structure has a 3D framework
# The original CSD entry EROCIZ is in the triclinic crystal system
# The framework has been calculated to contain at least 10.0% void space
# The void calculation uses a probe of radius 1.32A, grid spacing 0.4
# The framework is charged, counterions have been retained in the structure
#
###############################################################################

data_EROCIZ
_chemical_formula_moiety         '(C60 H76 N6 O24 U4)n'
_symmetry_cell_setting           triclinic
_symmetry_space_group_name_H-M   'P 1'
_symmetry_Int_Tables_number      1
_space_group_name_Hall           'P 1'
loop_
_symmetry_equiv_pos_site_id
_symmetry_equiv_pos_as_xyz
1 x,y,z
_cell_length_a                   17.5238(6)
_cell_length_b                   21.4858(5)
_cell_length_c                   22.2555(7)
_cell_angle_alpha                106.510(2)
_cell_angle_beta                 105.257(3)
_cell_angle_gamma                105.879(2)
_cell_volume                     7180.05
loop_
_atom_site_label
_atom_site_type_symbol
_atom_site_fract_x
_atom_site_fract_y
_atom_site_fract_z
_atom_site_U_iso_or_equiv
_atom_site_thermal_displace_type
O15 O 0.1307(3) 0.4937(2) 0.1748(2) 0.0447 Uani
O16 O 0.0092(3) 0.4023(2) 0.1186(2) 0.0400 Uani
C41 C 0.0868(4) 0.4306(3) 0.1569(3) 0.0338 Uani
C42 C 0.0827(4) 0.3153(3) 0.1640(3) 0.0318 Uani
H51 H 0.0260 0.2955 0.1347 0.0380 Uiso
N5 N 0.0669(3) 0.1558(2) 0.1014(2) 0.0365 Uani
H52 H 0.0417 0.1701 0.0705 0.0440 Uiso
H53 H 0.1204 0.1646 0.1036 0.0440 Uiso
C43 C 0.2516(4) 0.3736(3) 0.2475(3) 0.0444 Uani
H54 H 0.3087 0.3933 0.2762 0.0530 Uiso
C44 C 0.0685(5) 0.1970(3) 0.1665(3) 0.0439 Uani
H55 H 0.0106 0.1907 0.1639 0.0530 Uiso
H56 H 0.0935 0.1806 0.2003 0.0530 Uiso
C45 C 0.1283(4) 0.3859(3) 0.1834(2) 0.0260 Uani
C46 C 0.2130(4) 0.4147(3) 0.2255(3) 0.0333 Uani
H57 H 0.2441 0.4622 0.2390 0.0400 Uiso
C47 C 0.1198(4) 0.2737(3) 0.1873(3) 0.0329 Uani
C48 C 0.2062(5) 0.3036(3) 0.2275(3) 0.0467 Uani
H58 H 0.2335 0.2756 0.2409 0.0560 Uiso
C49 C 0.0222(4) 0.0792(3) 0.0786(3) 0.0347 Uani
H59 H 0.0497 0.0632 0.1118 0.0410 Uiso
C50 C 0.0220(5) 0.0392(3) 0.0110(3) 0.0438 Uani
H62 H 0.0804 0.0499 0.0134 0.0530 Uiso
U9 U 0.11069(2) 0.60166(2) 0.17560(2) 0.0237 Uani
H31 H 0.0068 0.9457 0.0224 0.0530 Uiso
O12 O 0.0591(2) 0.4001(2) 0.0035(2) 0.0352 Uani
O29 O 0.0503(3) 0.53502(17) 0.06602(17) 0.0312 Uani
H7 H 0.0294 0.3753 0.5538 0.0520 Uiso
H8 H 0.0068 0.4139 0.6063 0.0520 Uiso
C23 C 0.0026(5) 0.2477(4) 0.5835(4) 0.0632 Uani
H25 H 0.0202 0.2464 0.5474 0.0750 Uiso
H29 H 0.0363 0.9307 0.9240 0.0410 Uiso
C28 C 0.0298(5) 0.2140(4) 0.6252(4) 0.0593 Uani
H33 H 0.0640 0.1891 0.6159 0.0710 Uiso
C29 C 0.0066(4) 0.2177(3) 0.6795(3) 0.0459 Uani
H34 H 0.0260 0.1962 0.7078 0.0550 Uiso
C30 C 0.0188(5) 0.4832(4) 0.5230(4) 0.0515 Uani
H35 H 0.0626 0.4700 0.5102 0.0620 Uiso
H36 H 0.0455 0.5171 0.5692 0.0620 Uiso
O17 O 0.0567(7) 0.7809(5) 0.2187(4) 0.1492 Uani
N6 N 0.0134(3) 0.6149(3) 0.4368(3) 0.0426 Uani
C51 C 0.0734(4) 0.7129(3) 0.3486(3) 0.0324 Uani
H65 H 0.1070 0.6876 0.3387 0.0390 Uiso
C52 C 0.0512(4) 0.7167(3) 0.4042(3) 0.0390 Uani
C53 C 0.0818(5) 0.6805(3) 0.4482(3) 0.0488 Uani
H66 H 0.1028 0.7118 0.4951 0.0580 Uiso
H67 H 0.1289 0.6696 0.4393 0.0580 Uiso
C54 C 0.0463(4) 0.7464(3) 0.3072(3) 0.0340 Uani
C55 C 0.0744(6) 0.7458(4) 0.2496(3) 0.0577 Uani
C56 C 0.0476(5) 0.5802(3) 0.4806(3) 0.0466 Uani
H68 H 0.0911 0.5666 0.4677 0.0560 Uiso
H69 H 0.0745 0.6137 0.5270 0.0560 Uiso
O18 O 0.1210(3) 0.7107(2) 0.23768(19) 0.0405 Uani
U7 U 0.02974(2) 0.58112(2) 0.98460(2) 0.0219 Uani
H26 H 0.5026 0.9693 0.5485 0.0660 Uiso
O13 O 0.1211(3) 0.70821(18) 0.01732(18) 0.0345 Uani
O14 O 0.1166(2) 0.67397(18) 0.10012(17) 0.0314 Uani
N4 N 0.4100(4) 0.9096(3) 0.3446(2) 0.0502 Uani
H39 H 0.4346 0.9428 0.3316 0.0600 Uiso
H40 H 0.3585 0.9098 0.3420 0.0600 Uiso
C31 C 0.4009(5) 0.8403(3) 0.2988(3) 0.0514 Uani
H41 H 0.4569 0.8375 0.3076 0.0620 Uiso
H42 H 0.3659 0.8038 0.3085 0.0620 Uiso
C32 C 0.2931(4) 0.7991(3) 0.0886(3) 0.0322 Uani
H43 H 0.2708 0.7888 0.0426 0.0390 Uiso
C33 C 0.3618(4) 0.8274(3) 0.2261(3) 0.0350 Uani
C34 C 0.2419(4) 0.7693(3) 0.1202(3) 0.0266 Uani
C35 C 0.1547(4) 0.7151(3) 0.0777(3) 0.0275 Uani
C36 C 0.2770(4) 0.7846(3) 0.1884(3) 0.0324 Uani
H44 H 0.2430 0.7658 0.2096 0.0390 Uiso
C37 C 0.3761(4) 0.8433(3) 0.1264(3) 0.0467 Uani
H45 H 0.4095 0.8642 0.1059 0.0560 Uiso
C38 C 0.4624(5) 0.9256(3) 0.4158(3) 0.0494 Uani
H46 H 0.5186 0.9261 0.4181 0.0590 Uiso
H47 H 0.4363 0.8882 0.4289 0.0590 Uiso
C39 C 0.4722(5) 0.9930(3) 0.4647(3) 0.0551 Uani
H49 H 0.4164 0.9924 0.4639 0.0660 Uiso
C40 C 0.4108(4) 0.8574(3) 0.1943(3) 0.0480 Uani
H50 H 0.4676 0.8872 0.2190 0.0580 Uiso
O20 O 0.2187(2) 0.62774(19) 0.18204(18) 0.0318 Uani
O22 O 0.0067(3) 0.5738(2) 0.1768(2) 0.0462 Uani
O23 O 0.1698(3) 0.6081(3) 0.2912(2) 0.0443 Uani
H75 H 0.217(2) 0.606(3) 0.310(3) 0.0400 Uiso
H76 H 0.147(5) 0.579(3) 0.306(4) 0.0800 Uiso
O19 O 0.1203(2) 0.56919(19) 0.97057(18) 0.0306 Uani
H60 H 0.9637 0.0693 0.0760 0.0410 Uiso
U6 U 0.97026(2) 0.41888(2) 0.01540(2) 0.0219 Uani
H61 H 0.9932 0.0543 0.9776 0.0530 Uiso
O6 O 0.8797(2) 0.43081(19) 0.02943(18) 0.0306 Uani
U2 U 0.88931(2) 0.39834(2) 0.82440(2) 0.0237 Uani
O1 O 0.8789(3) 0.29179(18) 0.98268(18) 0.0345 Uani
O2 O 0.8834(2) 0.32603(18) 0.89988(17) 0.0314 Uani
O3 O 0.8693(3) 0.5063(2) 0.8252(2) 0.0447 Uani
O4 O 0.9908(3) 0.5977(2) 0.8814(2) 0.0400 Uani
N1 N 0.5900(4) 0.0904(3) 0.6554(2) 0.0502 Uani
H1 H 0.5654 0.0572 0.6684 0.0600 Uiso
H2 H 0.6415 0.0902 0.6580 0.0600 Uiso
C1 C 0.9132(4) 0.5694(3) 0.8431(3) 0.0338 Uani
C2 C 0.5991(5) 0.1597(3) 0.7012(3) 0.0514 Uani
H3 H 0.5431 0.1625 0.6924 0.0620 Uiso
H4 H 0.6341 0.1962 0.6915 0.0620 Uiso
O5 O 0.9433(7) 0.2191(5) 0.7813(4) 0.1492 Uani
C3 C 0.9173(4) 0.6847(3) 0.8360(3) 0.0318 Uani
H5 H 0.9740 0.7045 0.8653 0.0380 Uiso
C4 C 0.7069(4) 0.2009(3) 0.9114(3) 0.0322 Uani
H6 H 0.7292 0.2112 0.9574 0.0390 Uiso
N2 N 0.9866(3) 0.3851(3) 0.5632(3) 0.0426 Uani
C5 C 0.6382(4) 0.1726(3) 0.7739(3) 0.0350 Uani
N3 N 0.9331(3) 0.8442(2) 0.8986(2) 0.0365 Uani
H9 H 0.9583 0.8299 0.9295 0.0440 Uiso
H10 H 0.8796 0.8354 0.8964 0.0440 Uiso
C6 C 0.7581(4) 0.2307(3) 0.8798(3) 0.0266 Uani
C7 C 0.7484(4) 0.6264(3) 0.7525(3) 0.0444 Uani
H11 H 0.6913 0.6067 0.7238 0.0530 Uiso
C8 C 0.8453(4) 0.2849(3) 0.9223(3) 0.0275 Uani
C9 C 0.9266(4) 0.2871(3) 0.6514(3) 0.0324 Uani
H12 H 0.8930 0.3124 0.6613 0.0390 Uiso
C10 C 0.9488(4) 0.2833(3) 0.5958(3) 0.0390 Uani
C11 C 0.7230(4) 0.2154(3) 0.8116(3) 0.0324 Uani
H13 H 0.7570 0.2342 0.7904 0.0390 Uiso
C12 C 0.9315(5) 0.8030(3) 0.8335(3) 0.0439 Uani
H14 H 0.9894 0.8093 0.8361 0.0530 Uiso
H15 H 0.9065 0.8194 0.7997 0.0530 Uiso
C13 C 0.8717(4) 0.6141(3) 0.8166(2) 0.0260 Uani
C14 C 0.6239(4) 0.1567(3) 0.8736(3) 0.0467 Uani
H16 H 0.5905 0.1358 0.8941 0.0560 Uiso
C15 C 0.7870(4) 0.5853(3) 0.7745(3) 0.0333 Uani
H17 H 0.7559 0.5378 0.7610 0.0400 Uiso
C16 C 0.8802(4) 0.7263(3) 0.8127(3) 0.0329 Uani
C17 C 0.7938(5) 0.6964(3) 0.7725(3) 0.0467 Uani
H18 H 0.7665 0.7244 0.7591 0.0560 Uiso
C18 C 0.9182(5) 0.3195(3) 0.5518(3) 0.0488 Uani
H19 H 0.8972 0.2882 0.5049 0.0580 Uiso
H20 H 0.8711 0.3304 0.5607 0.0580 Uiso
C19 C 0.9537(4) 0.2536(3) 0.6928(3) 0.0340 Uani
C20 C 0.9256(6) 0.2542(4) 0.7504(3) 0.0577 Uani
C21 C 0.5376(5) 0.0744(3) 0.5842(3) 0.0494 Uani
H21 H 0.4814 0.0739 0.5819 0.0590 Uiso
H22 H 0.5637 0.1118 0.5711 0.0590 Uiso
C22 C 0.9524(5) 0.4198(3) 0.5194(3) 0.0466 Uani
H23 H 0.9089 0.4334 0.5323 0.0560 Uiso
H24 H 0.9255 0.3863 0.4730 0.0560 Uiso
C24 C 0.5278(5) 0.0070(3) 0.5353(3) 0.0551 Uani
H27 H 0.5836 0.0076 0.5361 0.0660 Uiso
C25 C 0.9778(4) 0.9208(3) 0.9214(3) 0.0347 Uani
H28 H 0.9503 0.9368 0.8882 0.0410 Uiso
C26 C 0.5892(4) 0.1426(3) 0.8057(3) 0.0480 Uani
H30 H 0.5324 0.1128 0.7810 0.0580 Uiso
C27 C 0.9780(5) 0.9608(3) 0.9890(3) 0.0438 Uani
H32 H 0.9196 0.9501 0.9866 0.0530 Uiso
O7 O 0.7813(2) 0.37226(19) 0.81796(18) 0.0318 Uani
O8 O 0.9497(3) 0.46498(17) 0.93398(17) 0.0312 Uani
O9 O 0.8790(3) 0.2893(2) 0.76232(19) 0.0405 Uani
O10 O 0.9933(3) 0.4262(2) 0.8232(2) 0.0462 Uani
O11 O 0.8302(3) 0.3919(3) 0.7088(2) 0.0443 Uani
H37 H 0.783(2) 0.394(3) 0.690(3) 0.0400 Uiso
H38 H 0.853(5) 0.421(3) 0.694(4) 0.0800 Uiso
H48 H 0.4974 0.0307 0.4515 0.0660 Uiso
H63 H 0.9706 0.6247 0.4462 0.0520 Uiso
H64 H 0.9932 0.5861 0.3937 0.0520 Uiso
C57 C 0.9974(5) 0.7523(4) 0.4165(4) 0.0632 Uani
H70 H 0.9798 0.7536 0.4526 0.0750 Uiso
C58 C 0.9702(5) 0.7860(4) 0.3748(4) 0.0593 Uani
H71 H 0.9360 0.8109 0.3841 0.0710 Uiso
C59 C 0.9934(4) 0.7823(3) 0.3205(3) 0.0459 Uani
H72 H 0.9740 0.8038 0.2922 0.0550 Uiso
C60 C 0.9812(5) 0.5168(4) 0.4770(4) 0.0515 Uani
H73 H 0.9374 0.5300 0.4898 0.0620 Uiso
H74 H 0.9545 0.4829 0.4308 0.0620 Uiso
O24 O 0.9409(2) 0.5999(2) 0.9965(2) 0.0352 Uani
loop_
_atom_site_aniso_label
_atom_site_aniso_U_11
_atom_site_aniso_U_22
_atom_site_aniso_U_33
_atom_site_aniso_U_23
_atom_site_aniso_U_13
_atom_site_aniso_U_12
O15 0.052 0.036 0.058 0.029 0.022 0.021
O16 0.042 0.048 0.038 0.029 0.009 0.021
C41 0.044 0.038 0.031 0.024 0.017 0.018
C42 0.038 0.028 0.024 0.005 0.01 0.011
N5 0.042 0.027 0.037 0.009 0.017 0.009
C43 0.038 0.049 0.037 0.013 0.004 0.016
C44 0.076 0.026 0.037 0.016 0.029 0.018
C45 0.033 0.026 0.021 0.011 0.01 0.012
C46 0.041 0.028 0.029 0.014 0.011 0.009
C47 0.046 0.025 0.032 0.011 0.015 0.019
C48 0.068 0.042 0.048 0.022 0.021 0.042
C49 0.044 0.024 0.036 0.01 0.016 0.013
C50 0.05 0.027 0.042 0.003 0.015 0.009
U9 0.02382 0.02268 0.02263 0.00875 0.00678 0.00771
O12 0.031 0.033 0.042 0.0153 0.0129 0.0121
O29 0.04 0.0182 0.025 0.0077 0.0035 0.0047
C23 0.088 0.052 0.082 0.031 0.07 0.031
C28 0.069 0.05 0.102 0.048 0.059 0.039
C29 0.052 0.034 0.058 0.022 0.018 0.023
C30 0.062 0.057 0.057 0.037 0.027 0.033
O17 0.284 0.227 0.12 0.139 0.14 0.224
N6 0.048 0.045 0.043 0.027 0.02 0.016
C51 0.041 0.025 0.034 0.011 0.018 0.013
C52 0.046 0.032 0.039 0.015 0.021 0.008
C53 0.055 0.048 0.039 0.023 0.018 0.006
C54 0.039 0.029 0.035 0.014 0.012 0.014
C55 0.1 0.075 0.044 0.043 0.045 0.061
C56 0.059 0.051 0.043 0.032 0.02 0.024
O18 0.064 0.032 0.036 0.0141 0.026 0.025
U7 0.02154 0.01863 0.02257 0.00873 0.00436 0.00626
O13 0.037 0.027 0.03 0.0147 -0.001 0.007
O14 0.038 0.0208 0.027 0.0088 0.0044 0.0065
N4 0.058 0.043 0.027 0.003 -0.005 0.017
C31 0.071 0.028 0.032 0.004 -0.003 0.014
C32 0.043 0.029 0.026 0.011 0.013 0.015
C33 0.038 0.022 0.029 0.004 0 0.006
C34 0.036 0.017 0.024 0.006 0.008 0.011
C35 0.031 0.021 0.031 0.01 0.01 0.012
C36 0.036 0.023 0.034 0.008 0.013 0.008
C37 0.039 0.046 0.047 0.017 0.019 0.002
C38 0.052 0.043 0.027 0.009 -0.008 0.006
C39 0.083 0.043 0.028 0.01 0.004 0.027
C40 0.035 0.046 0.044 0.015 0.003 0.001
O20 0.029 0.032 0.033 0.0128 0.0104 0.0103
O22 0.035 0.05 0.044 0.009 0.012 0.014
O23 0.058 0.055 0.035 0.028 0.017 0.032
O19 0.029 0.033 0.033 0.0158 0.0111 0.0135
U6 0.02154 0.01863 0.02257 0.00873 0.00436 0.00626
O6 0.029 0.033 0.033 0.0158 0.0111 0.0135
U2 0.02382 0.02268 0.02263 0.00875 0.00678 0.00771
O1 0.037 0.027 0.03 0.0147 -0.001 0.007
O2 0.038 0.0208 0.027 0.0088 0.0044 0.0065
O3 0.052 0.036 0.058 0.029 0.022 0.021
O4 0.042 0.048 0.038 0.029 0.009 0.021
N1 0.058 0.043 0.027 0.003 -0.005 0.017
C1 0.044 0.038 0.031 0.024 0.017 0.018
C2 0.071 0.028 0.032 0.004 -0.003 0.014
O5 0.284 0.227 0.12 0.139 0.14 0.224
C3 0.038 0.028 0.024 0.005 0.01 0.011
C4 0.043 0.029 0.026 0.011 0.013 0.015
N2 0.048 0.045 0.043 0.027 0.02 0.016
C5 0.038 0.022 0.029 0.004 0 0.006
N3 0.042 0.027 0.037 0.009 0.017 0.009
C6 0.036 0.017 0.024 0.006 0.008 0.011
C7 0.038 0.049 0.037 0.013 0.004 0.016
C8 0.031 0.021 0.031 0.01 0.01 0.012
C9 0.041 0.025 0.034 0.011 0.018 0.013
C10 0.046 0.032 0.039 0.015 0.021 0.008
C11 0.036 0.023 0.034 0.008 0.013 0.008
C12 0.076 0.026 0.037 0.016 0.029 0.018
C13 0.033 0.026 0.021 0.011 0.01 0.012
C14 0.039 0.046 0.047 0.017 0.019 0.002
C15 0.041 0.028 0.029 0.014 0.011 0.009
C16 0.046 0.025 0.032 0.011 0.015 0.019
C17 0.068 0.042 0.048 0.022 0.021 0.042
C18 0.055 0.048 0.039 0.023 0.018 0.006
C19 0.039 0.029 0.035 0.014 0.012 0.014
C20 0.1 0.075 0.044 0.043 0.045 0.061
C21 0.052 0.043 0.027 0.009 -0.008 0.006
C22 0.059 0.051 0.043 0.032 0.02 0.024
C24 0.083 0.043 0.028 0.01 0.004 0.027
C25 0.044 0.024 0.036 0.01 0.016 0.013
C26 0.035 0.046 0.044 0.015 0.003 0.001
C27 0.05 0.027 0.042 0.003 0.015 0.009
O7 0.029 0.032 0.033 0.0128 0.0104 0.0103
O8 0.04 0.0182 0.025 0.0077 0.0035 0.0047
O9 0.064 0.032 0.036 0.0141 0.026 0.025
O10 0.035 0.05 0.044 0.009 0.012 0.014
O11 0.058 0.055 0.035 0.028 0.017 0.032
C57 0.088 0.052 0.082 0.031 0.07 0.031
C58 0.069 0.05 0.102 0.048 0.059 0.039
C59 0.052 0.034 0.058 0.022 0.018 0.023
C60 0.062 0.057 0.057 0.037 0.027 0.033
O24 0.031 0.033 0.042 0.0153 0.0129 0.0121
loop_
_geom_bond_atom_site_label_1
_geom_bond_atom_site_label_2
_geom_bond_site_symmetry_1
_geom_bond_site_symmetry_2
O15 C41 1_555 1_555
O16 C41 1_555 1_555
C41 C45 1_555 1_555
C42 H51 1_555 1_555
N5 H52 1_555 1_555
H53 N5 1_555 1_555
C43 H54 1_555 1_555
C44 N5 1_555 1_555
H55 C44 1_555 1_555
H56 C44 1_555 1_555
C45 C42 1_555 1_555
C46 C43 1_555 1_555
H57 C46 1_555 1_555
C47 C42 1_555 1_555
C48 C43 1_555 1_555
H58 C48 1_555 1_555
C49 N5 1_555 1_555
H59 C49 1_555 1_555
H62 C50 1_555 1_555
U9 O15 1_555 1_555
C44 C47 1_555 1_555
C45 C46 1_555 1_555
C47 C48 1_555 1_555
C49 C50 1_555 1_555
H25 C23 1_555 1_555
C28 C23 1_555 1_555
H33 C28 1_555 1_555
H34 C29 1_555 1_555
H35 C30 1_555 1_555
H36 C30 1_555 1_555
O17 C55 1_555 1_555
C51 H65 1_555 1_555
C52 C51 1_555 1_555
C53 N6 1_555 1_555
H66 C53 1_555 1_555
H67 C53 1_555 1_555
C54 C51 1_555 1_555
C55 C54 1_555 1_555
C56 N6 1_555 1_555
H68 C56 1_555 1_555
H69 C56 1_555 1_555
O18 C55 1_555 1_555
U9 O18 1_555 1_555
C28 C29 1_555 1_555
C52 C53 1_555 1_555
O13 C35 1_555 1_555
O14 C35 1_555 1_555
N4 H39 1_555 1_555
H40 N4 1_555 1_555
C31 N4 1_555 1_555
H41 C31 1_555 1_555
H42 C31 1_555 1_555
C32 H43 1_555 1_555
C33 C31 1_555 1_555
C34 C32 1_555 1_555
C35 C34 1_555 1_555
C36 C33 1_555 1_555
H44 C36 1_555 1_555
C37 C32 1_555 1_555
H45 C37 1_555 1_555
C38 N4 1_555 1_555
H46 C38 1_555 1_555
H47 C38 1_555 1_555
H49 C39 1_555 1_555
C40 C33 1_555 1_555
H50 C40 1_555 1_555
U9 O14 1_555 1_555
O20 U9 1_555 1_555
O22 U9 1_555 1_555
O23 U9 1_555 1_555
H75 O23 1_555 1_555
H76 O23 1_555 1_555
C34 C36 1_555 1_555
C37 C40 1_555 1_555
C38 C39 1_555 1_555
U9 O29 1_555 1_555
O19 U7 1_555 1_555
O6 U6 1_555 1_555
U2 O2 1_555 1_555
O1 C8 1_555 1_555
O3 U2 1_555 1_555
O4 C1 1_555 1_555
N1 H1 1_555 1_555
H2 N1 1_555 1_555
C1 O3 1_555 1_555
C2 N1 1_555 1_555
H3 C2 1_555 1_555
H4 C2 1_555 1_555
O5 C20 1_555 1_555
C3 H5 1_555 1_555
C4 H6 1_555 1_555
C5 C2 1_555 1_555
N3 H9 1_555 1_555
H10 N3 1_555 1_555
C6 C4 1_555 1_555
C7 H11 1_555 1_555
C8 O2 1_555 1_555
C9 H12 1_555 1_555
C10 C9 1_555 1_555
C11 C5 1_555 1_555
H13 C11 1_555 1_555
C12 N3 1_555 1_555
H14 C12 1_555 1_555
H15 C12 1_555 1_555
C13 C1 1_555 1_555
C14 C4 1_555 1_555
H16 C14 1_555 1_555
C15 C7 1_555 1_555
H17 C15 1_555 1_555
C16 C3 1_555 1_555
C17 C7 1_555 1_555
H18 C17 1_555 1_555
C18 N2 1_555 1_555
H19 C18 1_555 1_555
H20 C18 1_555 1_555
C19 C9 1_555 1_555
C20 C19 1_555 1_555
C21 N1 1_555 1_555
H21 C21 1_555 1_555
H22 C21 1_555 1_555
C22 N2 1_555 1_555
H23 C22 1_555 1_555
H24 C22 1_555 1_555
C24 C21 1_555 1_555
H27 C24 1_555 1_555
C25 N3 1_555 1_555
H28 C25 1_555 1_555
C26 C5 1_555 1_555
H30 C26 1_555 1_555
C27 C25 1_555 1_555
H32 C27 1_555 1_555
O7 U2 1_555 1_555
O9 U2 1_555 1_555
O10 U2 1_555 1_555
O11 U2 1_555 1_555
H37 O11 1_555 1_555
H38 O11 1_555 1_555
H70 C57 1_555 1_555
C58 C57 1_555 1_555
H71 C58 1_555 1_555
H72 C59 1_555 1_555
H73 C60 1_555 1_555
H74 C60 1_555 1_555
U2 O8 1_555 1_555
C3 C13 1_555 1_555
C6 C8 1_555 1_555
C6 C11 1_555 1_555
C10 C18 1_555 1_555
C12 C16 1_555 1_555
C13 C15 1_555 1_555
C14 C26 1_555 1_555
C16 C17 1_555 1_555
C20 O9 1_555 1_555
C58 C59 1_555 1_555

#END
