
###############################################################################
#
# This file contains modified crystal structure data generated from the
# MOF subset of the Cambridge Structural Database (CSD) v543 
# hosted by the Cambridge Crystallographic Data Centre (CCDC).
#
# This work is licensed under the Creative Commons
# Attribution-NonCommercial-ShareAlike 4.0 International License.
# To view a copy of this license, visit
# http://creativecommons.org/licenses/by-nc-sa/4.0/
# or send a letter to
# Creative Commons, PO Box 1866, Mountain View, CA 94042, USA.
#
# CIF created using the CSD Python API on 29 September 2022
# The structure has been converted into the P1 space group
# The structure has a 3D framework
# The original CSD entry ERUNIQ is in the tetragonal crystal system
# The framework has been calculated to contain at least 10.0% void space
# The void calculation uses a probe of radius 1.32A, grid spacing 0.4
# The framework is charged, counterions have been retained in the structure
#
###############################################################################

data_ERUNIQ
_chemical_formula_moiety         '(C96 H88 Co16 N24 O68 2-)n'
_symmetry_cell_setting           triclinic
_symmetry_space_group_name_H-M   'P 1'
_symmetry_Int_Tables_number      1
_space_group_name_Hall           'P 1'
loop_
_symmetry_equiv_pos_site_id
_symmetry_equiv_pos_as_xyz
1 x,y,z
_cell_length_a                   13.8147(6)
_cell_length_b                   13.8147(6)
_cell_length_c                   19.4911(16)
_cell_angle_alpha                90
_cell_angle_beta                 90
_cell_angle_gamma                90
_cell_volume                     3719.8
loop_
_atom_site_label
_atom_site_type_symbol
_atom_site_fract_x
_atom_site_fract_y
_atom_site_fract_z
O5 O -0.0000 -0.0000 0.0000
Co5 Co 0.04313(4) 0.15017(4) 0.01164(3)
O5_2 O -0.0000 -0.0000 1.0000
O8 O 0.18031(18) 0.10049(19) 0.99187(13)
Co1 Co 0.17966(4) 0.78445(4) 0.09570(3)
N1 N 0.2752(3) 0.7635(3) 0.18289(19)
O1 O 0.10049(19) 0.81969(18) 0.00813(13)
O2 O 0.3072(2) 0.7943(2) 0.03914(16)
O3 O 0.1754(2) 0.9440(2) 0.10118(15)
N2 N 0.1791(3) 0.6320(2) 0.07313(19)
O4 O 0.0611(2) 0.7700(2) 0.16038(14)
C1 C 0.2505(4) 0.7138(5) 0.2368(3)
C2 C 0.3675(4) 0.7975(5) 0.1824(3)
H2 H 0.2373 0.9730 0.1163
H3 H 0.1209 0.9690 0.1291
C4 C 0.2236(5) 0.5969(4) 0.0181(3)
C5 C 0.1310(5) 0.5671(4) 0.1088(3)
H4 H 0.1850 0.6937 0.2405
C6 C 0.3131(4) 0.6884(5) 0.2889(3)
C7 C 0.4351(4) 0.7764(5) 0.2323(3)
H5 H 0.3867 0.8381 0.1455
O5_3 O -0.0000 1.0000 0.0000
C10 C 0.1235(5) 0.4715(4) 0.0897(3)
H7 H 0.0998 0.5873 0.1498
H8 H 0.2903 0.6517 0.3268
C11 C 0.4094(3) 0.7165(4) 0.2860(2)
H9 H 0.4985 0.8028 0.2298
H11 H 0.0881 0.4279 0.1178
C12 C 0.4811(3) 0.6881(3) 0.3405(2)
C14 C 0.5031(4) 0.7816(5) 0.0048(3)
C16 C 0.1652(3) 0.4394(3) 0.0326(2)
H15 H 0.4833 0.7490 0.0453
C20 C 0.1493(3) 0.3364(3) 0.0076(2)
O19 O 0.5611(2) 0.7300(2) 0.33962(14)
O20 O 0.4540(2) 0.6235(2) 0.38210(15)
H20 H 0.6406 0.7378 0.0078
O21 O 0.0834(2) 0.2892(2) 0.03524(18)
Co8 Co 0.67966(4) 0.71555(4) 0.40430(3)
Co9 Co 0.45687(4) 0.65017(4) 0.48836(3)
O29 O 0.0460(2) 0.1235(2) 0.11790(15)
H34 H 0.2185 0.1135 0.0248
Co2 Co 0.15017(4) 0.95687(4) 0.98836(3)
H1 H 0.1135 0.7815 0.9752
C3 C 0.3364(3) 0.8507(3) 0.9924(2)
O5_4 O -0.0000 1.0000 1.0000
O6 O 0.2892(2) 0.9166(2) 0.96476(18)
O7 O 0.1235(2) 0.9540(2) 0.88210(15)
C8 C 0.4394(3) 0.8348(3) 0.9674(2)
H6 H 0.2622 0.6406 0.9922
C9 C 0.2184(5) 0.5031(4) 0.9952(3)
H10 H 0.2510 0.4833 0.9547
C15 C 0.4715(4) 0.8765(5) 0.9103(3)
C18 C 0.5969(4) 0.7764(5) 0.9819(3)
H16 H 0.4279 0.9119 0.8822
C19 C 0.5671(4) 0.8690(5) 0.8912(3)
N5 N 0.6320(2) 0.8209(3) 0.92687(19)
H21 H 0.5873 0.9002 0.8502
O22 O 0.2057(2) 0.3072(2) 0.96086(16)
Co10 Co 0.78445(4) 0.82034(4) 0.90430(3)
Co12 Co 0.21555(4) 0.17966(4) 0.90430(3)
O26 O 0.0560(2) 0.1754(2) 0.89882(15)
N9 N 0.2365(3) 0.2752(3) 0.81711(19)
N10 N 0.3680(2) 0.1791(3) 0.92687(19)
O30 O 0.2300(2) 0.0611(2) 0.83962(14)
Co13 Co 0.28445(4) 0.67966(4) 0.59570(3)
H35 H 0.0270 0.2373 0.8837
H36 H 0.0310 0.1209 0.8709
C41 C 0.2862(5) 0.2505(4) 0.7632(3)
C42 C 0.2025(5) 0.3675(4) 0.8176(3)
O31 O 0.2700(2) 0.5611(2) 0.66038(14)
H41 H 0.3063 0.1850 0.7595
C44 C 0.3116(5) 0.3131(4) 0.7111(3)
C45 C 0.2236(5) 0.4351(4) 0.7677(3)
H42 H 0.1619 0.3867 0.8545
C47 C 0.3119(3) 0.4811(3) 0.6595(2)
Co17 Co 0.34983(4) 0.45687(4) 0.51164(3)
H43 H 0.3483 0.2903 0.6732
C48 C 0.2835(4) 0.4094(3) 0.7140(2)
H44 H 0.1972 0.4985 0.7702
O36 O 0.3765(2) 0.4540(2) 0.61790(15)
O5_5 O 1.0000 -0.0000 0.0000
O13 O 0.89951(19) 0.18031(18) 0.00813(13)
O15 O 0.8246(2) 0.0560(2) 0.10118(15)
Co7 Co 0.82034(4) 0.21555(4) 0.09570(3)
H18 H 0.7627 0.0270 0.1163
H19 H 0.8791 0.0310 0.1291
N6 N 0.7248(3) 0.2365(3) 0.18289(19)
O23 O 0.6928(2) 0.2057(2) 0.03914(16)
N7 N 0.8209(3) 0.3680(2) 0.07313(19)
O24 O 0.9389(2) 0.2300(2) 0.16038(14)
C31 C 0.7495(4) 0.2862(5) 0.2368(3)
C32 C 0.6325(4) 0.2025(5) 0.1824(3)
C33 C 0.4969(4) 0.2184(5) 0.0048(3)
H30 H 0.8150 0.3063 0.2405
C36 C 0.6869(4) 0.3116(5) 0.2889(3)
C37 C 0.5649(4) 0.2236(5) 0.2323(3)
H31 H 0.6133 0.1619 0.1455
H32 H 0.5167 0.2510 0.0453
H37 H 0.7097 0.3483 0.3268
C43 C 0.5906(3) 0.2835(4) 0.2860(2)
H38 H 0.5015 0.1972 0.2298
H39 H 0.3594 0.2622 0.0078
C46 C 0.5189(3) 0.3119(3) 0.3405(2)
O34 O 0.4389(2) 0.2700(2) 0.33962(14)
O35 O 0.5460(2) 0.3765(2) 0.38210(15)
Co20 Co 0.32034(4) 0.28445(4) 0.40430(3)
Co21 Co 0.54313(4) 0.34983(4) 0.48836(3)
O5_6 O 1.0000 -0.0000 1.0000
Co4 Co 0.84983(4) 0.04313(4) 0.98836(3)
O14 O 0.7108(2) 0.0834(2) 0.96476(18)
O16 O 0.8765(2) 0.0460(2) 0.88210(15)
H17 H 0.8865 0.2185 0.9752
C21 C 0.6636(3) 0.1493(3) 0.9924(2)
C26 C 0.5606(3) 0.1652(3) 0.9674(2)
C34 C 0.5285(4) 0.1235(5) 0.9103(3)
C38 C 0.4031(4) 0.2236(5) 0.9819(3)
H33 H 0.5721 0.0881 0.8822
C39 C 0.4329(4) 0.1310(5) 0.8912(3)
H40 H 0.4127 0.0998 0.8502
O5_7 O 1.0000 1.0000 0.0000
Co3 Co 0.95687(4) 0.84983(4) 0.01164(3)
O10 O 0.9166(2) 0.7108(2) 0.03524(18)
O12 O 0.9540(2) 0.8765(2) 0.11790(15)
H12 H 0.7815 0.8865 0.0248
C13 C 0.8507(3) 0.6636(3) 0.0076(2)
C17 C 0.8348(3) 0.5606(3) 0.0326(2)
C25 C 0.8765(5) 0.5285(4) 0.0897(3)
C29 C 0.7764(5) 0.4031(4) 0.0181(3)
H25 H 0.9119 0.5721 0.1178
C30 C 0.8690(5) 0.4329(4) 0.1088(3)
H29 H 0.9002 0.4127 0.1498
O5_8 O 1.0000 1.0000 1.0000
O9 O 0.81969(18) 0.89951(19) 0.99187(13)
O11 O 0.9440(2) 0.8246(2) 0.89882(15)
H13 H 0.9730 0.7627 0.8837
H14 H 0.9690 0.8791 0.8709
N3 N 0.7635(3) 0.7248(3) 0.81711(19)
O17 O 0.7943(2) 0.6928(2) 0.96086(16)
O18 O 0.7700(2) 0.9389(2) 0.83962(14)
C22 C 0.7138(5) 0.7495(4) 0.7632(3)
C23 C 0.7975(5) 0.6325(4) 0.8176(3)
C24 C 0.7816(5) 0.4969(4) 0.9952(3)
H22 H 0.6937 0.8150 0.7595
C27 C 0.6884(5) 0.6869(4) 0.7111(3)
C28 C 0.7764(5) 0.5649(4) 0.7677(3)
H23 H 0.8381 0.6133 0.8545
H24 H 0.7490 0.5167 0.9547
H26 H 0.6517 0.7097 0.6732
C35 C 0.7165(4) 0.5906(3) 0.7140(2)
H27 H 0.8028 0.5015 0.7702
H28 H 0.7378 0.3594 0.9922
C40 C 0.6881(3) 0.5189(3) 0.6595(2)
O32 O 0.7300(2) 0.4389(2) 0.66038(14)
O33 O 0.6235(2) 0.5460(2) 0.61790(15)
Co18 Co 0.71555(4) 0.32034(4) 0.59570(3)
Co19 Co 0.65017(4) 0.54313(4) 0.51164(3)
C33_2 C 0.0031(4) 0.7184(5) 0.4952(3)
C38_2 C 0.0969(4) 0.7236(5) 0.5181(3)
C39_2 C 0.0671(4) 0.6310(5) 0.6088(3)
N11 N 0.1320(2) 0.6791(3) 0.57313(19)
H39_2 H 0.1406 0.7622 0.4922
H40_2 H 0.0873 0.5998 0.6498
N1_2 N 0.2248(3) 0.2635(3) 0.31711(19)
O1_2 O 0.39951(19) 0.31969(18) 0.49187(13)
O2_2 O 0.1928(2) 0.2943(2) 0.46086(16)
O3_2 O 0.3246(2) 0.4440(2) 0.39882(15)
N2_2 N 0.3209(3) 0.1320(2) 0.42687(19)
C1_2 C 0.2495(4) 0.2138(5) 0.2632(3)
C2_2 C 0.1325(4) 0.2975(5) 0.3176(3)
H1_2 H 0.3865 0.2815 0.5248
C3_2 C 0.1636(3) 0.3507(3) 0.5076(2)
H2_2 H 0.2627 0.4730 0.3837
H3_2 H 0.3791 0.4690 0.3709
C4_2 C 0.2764(5) 0.0969(4) 0.4819(3)
C5_2 C 0.3690(5) 0.0671(4) 0.3912(3)
H4_2 H 0.3150 0.1937 0.2595
C6_2 C 0.1869(4) 0.1884(5) 0.2111(3)
C7_2 C 0.0649(4) 0.2764(5) 0.2677(3)
H5_2 H 0.1133 0.3381 0.3545
O5_9 O 0.5000 0.5000 0.5000
O6_2 O 0.2108(2) 0.4166(2) 0.53524(18)
C8_2 C 0.0606(3) 0.3348(3) 0.5326(2)
H6_2 H 0.2378 0.1406 0.5078
C9_2 C 0.2816(5) 0.0031(4) 0.5048(3)
H7_2 H 0.4002 0.0873 0.3502
H8_2 H 0.2097 0.1517 0.1732
C11_2 C 0.0906(3) 0.2165(4) 0.2140(2)
H9_2 H 0.0015 0.3028 0.2702
C12_2 C 0.0189(3) 0.1881(3) 0.1595(2)
O8_2 O 0.31969(18) 0.60049(19) 0.50813(13)
O9_2 O 0.68031(18) 0.39951(19) 0.50813(13)
O10_2 O 0.5834(2) 0.2108(2) 0.46476(18)
O11_2 O 0.5560(2) 0.3246(2) 0.60118(15)
H12_2 H 0.7185 0.3865 0.4752
C13_2 C 0.6493(3) 0.1636(3) 0.4924(2)
H13_2 H 0.5270 0.2627 0.6163
H14_2 H 0.5310 0.3791 0.6291
C15_2 C 0.0285(4) 0.3765(5) 0.5897(3)
O13_2 O 0.60049(19) 0.68031(18) 0.49187(13)
O14_2 O 0.7892(2) 0.5834(2) 0.53524(18)
O15_2 O 0.6754(2) 0.5560(2) 0.39882(15)
N3_2 N 0.7365(3) 0.2248(3) 0.68289(19)
O17_2 O 0.7057(2) 0.1928(2) 0.53914(16)
N4 N 0.8680(2) 0.3209(3) 0.57313(19)
C17_2 C 0.6652(3) 0.0606(3) 0.4674(2)
H15_2 H 0.0167 0.2490 0.4547
H16_2 H 0.0721 0.4119 0.6178
H17_2 H 0.6135 0.7185 0.5248
C21_2 C 0.8364(3) 0.6493(3) 0.5076(2)
H18_2 H 0.7373 0.5270 0.3837
H19_2 H 0.6209 0.5310 0.3709
C22_2 C 0.7862(5) 0.2495(4) 0.7368(3)
C23_2 C 0.7025(5) 0.1325(4) 0.6824(3)
C25_2 C 0.6235(5) 0.0285(4) 0.4103(3)
N6_2 N 0.7752(3) 0.7365(3) 0.31711(19)
O23_2 O 0.8072(2) 0.7057(2) 0.46086(16)
N7_2 N 0.6791(3) 0.8680(2) 0.42687(19)
C26_2 C 0.9394(3) 0.6652(3) 0.5326(2)
H22_2 H 0.8063 0.3150 0.7405
C27_2 C 0.8116(5) 0.1869(4) 0.7889(3)
C28_2 C 0.7236(5) 0.0649(4) 0.7323(3)
H23_2 H 0.6619 0.1133 0.6455
H24_2 H 0.7510 0.0167 0.5453
H25_2 H 0.5881 0.0721 0.3822
C31_2 C 0.7505(4) 0.7862(5) 0.2632(3)
C32_2 C 0.8675(4) 0.7025(5) 0.3176(3)
C34_2 C 0.9715(4) 0.6235(5) 0.5897(3)
H26_2 H 0.8483 0.2097 0.8268
C35_2 C 0.7835(4) 0.0906(3) 0.7860(2)
H27_2 H 0.6972 0.0015 0.7298
H30_2 H 0.6850 0.8063 0.2595
C36_2 C 0.8131(4) 0.8116(5) 0.2111(3)
C37_2 C 0.9351(4) 0.7236(5) 0.2677(3)
H31_2 H 0.8867 0.6619 0.3545
H32_2 H 0.9833 0.7510 0.4547
H33_2 H 0.9279 0.5881 0.6178
C40_2 C 0.8119(3) 0.0189(3) 0.8405(2)
H37_2 H 0.7903 0.8483 0.1732
C43_2 C 0.9094(3) 0.7835(4) 0.2140(2)
H38_2 H 0.9985 0.6972 0.2702
C46_2 C 0.9811(3) 0.8119(3) 0.1595(2)
C10_2 C 0.3765(5) 0.9715(4) 0.4103(3)
H10_2 H 0.2490 0.9833 0.5453
H11_2 H 0.4119 0.9279 0.3822
C16_2 C 0.3348(3) 0.9394(3) 0.4674(2)
C20_2 C 0.3507(3) 0.8364(3) 0.4924(2)
C24_2 C 0.7184(5) 0.9969(4) 0.5048(3)
O21_2 O 0.4166(2) 0.7892(2) 0.46476(18)
O22_2 O 0.2943(2) 0.8072(2) 0.53914(16)
C29_2 C 0.7236(5) 0.9031(4) 0.4819(3)
C30_2 C 0.6310(5) 0.9329(4) 0.3912(3)
H28_2 H 0.7622 0.8594 0.5078
H29_2 H 0.5998 0.9127 0.3502
O26_2 O 0.4440(2) 0.6754(2) 0.60118(15)
N9_2 N 0.2635(3) 0.7752(3) 0.68289(19)
H34_2 H 0.2815 0.6135 0.4752
H35_2 H 0.4730 0.7373 0.6163
H36_2 H 0.4690 0.6209 0.6291
C41_2 C 0.2138(5) 0.7505(4) 0.7368(3)
C42_2 C 0.2975(5) 0.8675(4) 0.6824(3)
H41_2 H 0.1937 0.6850 0.7405
C44_2 C 0.1884(5) 0.8131(4) 0.7889(3)
C45_2 C 0.2764(5) 0.9351(4) 0.7323(3)
H42_2 H 0.3381 0.8867 0.6455
C47_2 C 0.1881(3) 0.9811(3) 0.8405(2)
H43_2 H 0.1517 0.7903 0.8268
C48_2 C 0.2165(4) 0.9094(3) 0.7860(2)
H44_2 H 0.3028 0.9985 0.7298
C14_2 C 0.9969(4) 0.2816(5) 0.4952(3)
C18_2 C 0.9031(4) 0.2764(5) 0.5181(3)
C19_2 C 0.9329(4) 0.3690(5) 0.6088(3)
H20_2 H 0.8594 0.2378 0.4922
H21_2 H 0.9127 0.4002 0.6498
N12 N 0.5000 -0.0000 0.1854(5)
O37 O 0.5000 -0.0000 0.1047(6)
O39 O 0.4010(9) 0.0299(15) 0.2202(7)
N12_2 N 0.5000 1.0000 0.1854(5)
O37_2 O 0.5000 1.0000 0.1047(6)
O38 O 0.5990(9) 0.9701(15) 0.2202(7)
N12_3 N -0.0000 0.5000 0.8146(5)
O37_3 O -0.0000 0.5000 0.8953(6)
O39_2 O 0.0299(15) 0.5990(9) 0.7798(7)
N12_4 N 1.0000 0.5000 0.8146(5)
O37_4 O 1.0000 0.5000 0.8953(6)
O38_2 O 0.9701(15) 0.4010(9) 0.7798(7)
N12_5 N 0.0000 0.5000 0.3146(5)
O37_5 O 0.0000 0.5000 0.3953(6)
O39_3 O 0.0990(9) 0.5299(15) 0.2798(7)
N12_6 N 1.0000 0.5000 0.3146(5)
O37_6 O 1.0000 0.5000 0.3953(6)
O38_3 O 0.9010(9) 0.4701(15) 0.2798(7)
N12_7 N 0.5000 0.0000 0.6854(5)
O37_7 O 0.5000 0.0000 0.6047(6)
O39_4 O 0.4701(15) 0.0990(9) 0.7202(7)
N12_8 N 0.5000 1.0000 0.6854(5)
O37_8 O 0.5000 1.0000 0.6047(6)
O38_4 O 0.5299(15) 0.9010(9) 0.7202(7)
loop_
_geom_bond_atom_site_label_1
_geom_bond_atom_site_label_2
_geom_bond_site_symmetry_1
_geom_bond_site_symmetry_2
Co5 O5 1_555 1_555
Co1 N1 1_555 1_555
N1 C1 1_555 1_555
O1 Co1 1_555 1_555
O2 Co1 1_555 1_555
O3 Co1 1_555 1_555
N2 Co1 1_555 1_555
O4 Co1 1_555 1_555
C1 H4 1_555 1_555
C2 N1 1_555 1_555
H2 O3 1_555 1_555
H3 O3 1_555 1_555
C4 N2 1_555 1_555
C5 N2 1_555 1_555
C6 C1 1_555 1_555
C7 C2 1_555 1_555
H5 C2 1_555 1_555
C10 C5 1_555 1_555
H7 C5 1_555 1_555
H8 C6 1_555 1_555
C11 C6 1_555 1_555
H9 C7 1_555 1_555
H11 C10 1_555 1_555
C12 C11 1_555 1_555
H15 C14 1_555 1_555
C20 C16 1_555 1_555
O19 C12 1_555 1_555
O20 C12 1_555 1_555
O21 C20 1_555 1_555
Co8 O19 1_555 1_555
Co9 O20 1_555 1_555
Co5 O21 1_555 1_555
O29 Co5 1_555 1_555
C7 C11 1_555 1_555
C10 C16 1_555 1_555
O5_4 Co2 1_555 1_555
O6 Co2 1_555 1_555
O7 Co2 1_555 1_555
C8 C3 1_555 1_555
H10 C9 1_555 1_555
C15 C8 1_555 1_555
H16 C15 1_555 1_555
C19 C15 1_555 1_555
N5 C18 1_555 1_555
H21 C19 1_555 1_555
Co10 N5 1_555 1_555
Co12 O22 1_555 1_555
N9 Co12 1_555 1_555
N10 Co12 1_555 1_555
O30 Co12 1_555 1_555
Co13 O31 1_555 1_555
H35 O26 1_555 1_555
H36 O26 1_555 1_555
C41 N9 1_555 1_555
C42 N9 1_555 1_555
O31 C47 1_555 1_555
H41 C41 1_555 1_555
C44 C41 1_555 1_555
C45 C42 1_555 1_555
H42 C42 1_555 1_555
C47 C48 1_555 1_555
Co17 O36 1_555 1_555
H43 C44 1_555 1_555
C48 C44 1_555 1_555
H44 C45 1_555 1_555
O36 C47 1_555 1_555
C3 O6 1_555 1_555
C19 N5 1_555 1_555
Co12 O8 1_555 1_555
Co12 O26 1_555 1_555
C45 C48 1_555 1_555
Co7 O13 1_555 1_555
H18 O15 1_555 1_555
H19 O15 1_555 1_555
N6 Co7 1_555 1_555
O23 Co7 1_555 1_555
N7 Co7 1_555 1_555
O24 Co7 1_555 1_555
C31 N6 1_555 1_555
C32 N6 1_555 1_555
H30 C31 1_555 1_555
C36 C31 1_555 1_555
C37 C32 1_555 1_555
H31 C32 1_555 1_555
H32 C33 1_555 1_555
H37 C36 1_555 1_555
C43 C36 1_555 1_555
H38 C37 1_555 1_555
C46 C43 1_555 1_555
O34 C46 1_555 1_555
O35 C46 1_555 1_555
Co20 O34 1_555 1_555
Co21 O35 1_555 1_555
O15 Co7 1_555 1_555
C37 C43 1_555 1_555
Co4 O5_6 1_555 1_555
O14 Co4 1_555 1_555
O16 Co4 1_555 1_555
C21 O14 1_555 1_555
C26 C21 1_555 1_555
C34 C26 1_555 1_555
H33 C34 1_555 1_555
C39 C34 1_555 1_555
N10 C38 1_555 1_555
H40 C39 1_555 1_555
C39 N10 1_555 1_555
O10 Co3 1_555 1_555
O12 Co3 1_555 1_555
C13 O10 1_555 1_555
C17 C13 1_555 1_555
C25 C17 1_555 1_555
H25 C25 1_555 1_555
C30 C25 1_555 1_555
N7 C29 1_555 1_555
H29 C30 1_555 1_555
O5_7 Co3 1_555 1_555
C30 N7 1_555 1_555
Co10 O9 1_555 1_555
H13 O11 1_555 1_555
H14 O11 1_555 1_555
N3 Co10 1_555 1_555
O17 Co10 1_555 1_555
O18 Co10 1_555 1_555
C22 N3 1_555 1_555
C23 N3 1_555 1_555
H22 C22 1_555 1_555
C27 C22 1_555 1_555
C28 C23 1_555 1_555
H23 C23 1_555 1_555
H24 C24 1_555 1_555
H26 C27 1_555 1_555
C35 C27 1_555 1_555
H27 C28 1_555 1_555
C40 C35 1_555 1_555
O32 C40 1_555 1_555
O33 C40 1_555 1_555
Co18 O32 1_555 1_555
Co19 O33 1_555 1_555
O11 Co10 1_555 1_555
C28 C35 1_555 1_555
C38_2 C33_2 1_555 1_555
N11 C38_2 1_555 1_555
H39_2 C38_2 1_555 1_555
H40_2 C39_2 1_555 1_555
Co13 N11 1_555 1_555
C39_2 N11 1_555 1_555
Co20 N1_2 1_555 1_555
N1_2 C1_2 1_555 1_555
O1_2 Co20 1_555 1_555
O2_2 Co20 1_555 1_555
O3_2 Co20 1_555 1_555
N2_2 Co20 1_555 1_555
C1_2 H4_2 1_555 1_555
C2_2 N1_2 1_555 1_555
Co17 O1_2 1_555 1_555
H1_2 O1_2 1_555 1_555
C3_2 O2_2 1_555 1_555
H2_2 O3_2 1_555 1_555
H3_2 O3_2 1_555 1_555
C4_2 N2_2 1_555 1_555
C5_2 N2_2 1_555 1_555
C6_2 C1_2 1_555 1_555
C7_2 C2_2 1_555 1_555
H5_2 C2_2 1_555 1_555
O5_9 Co17 1_555 1_555
O6_2 Co17 1_555 1_555
C8_2 C3_2 1_555 1_555
H6_2 C4_2 1_555 1_555
C9_2 C4_2 1_555 1_555
H7_2 C5_2 1_555 1_555
H8_2 C6_2 1_555 1_555
C11_2 C6_2 1_555 1_555
H9_2 C7_2 1_555 1_555
C12_2 C11_2 1_555 1_555
Co21 O1_2 1_555 1_555
O8_2 Co17 1_555 1_555
O9_2 Co21 1_555 1_555
O10_2 Co21 1_555 1_555
O11_2 Co21 1_555 1_555
Co19 O5_9 1_555 1_555
Co9 O5_9 1_555 1_555
Co18 O9_2 1_555 1_555
H12_2 O9_2 1_555 1_555
C13_2 O10_2 1_555 1_555
H13_2 O11_2 1_555 1_555
H14_2 O11_2 1_555 1_555
C15_2 C8_2 1_555 1_555
O13_2 Co19 1_555 1_555
O14_2 Co19 1_555 1_555
O15_2 Co19 1_555 1_555
N3_2 Co18 1_555 1_555
O17_2 Co18 1_555 1_555
N4 Co18 1_555 1_555
C17_2 C13_2 1_555 1_555
H16_2 C15_2 1_555 1_555
O29 C12_2 1_555 1_555
Co8 O13_2 1_555 1_555
H17_2 O13_2 1_555 1_555
C21_2 O14_2 1_555 1_555
H18_2 O15_2 1_555 1_555
H19_2 O15_2 1_555 1_555
C22_2 N3_2 1_555 1_555
C23_2 N3_2 1_555 1_555
C25_2 C17_2 1_555 1_555
N6_2 Co8 1_555 1_555
O23_2 Co8 1_555 1_555
N7_2 Co8 1_555 1_555
C26_2 C21_2 1_555 1_555
H22_2 C22_2 1_555 1_555
C27_2 C22_2 1_555 1_555
C28_2 C23_2 1_555 1_555
H23_2 C23_2 1_555 1_555
H25_2 C25_2 1_555 1_555
C31_2 N6_2 1_555 1_555
C32_2 N6_2 1_555 1_555
C34_2 C26_2 1_555 1_555
H26_2 C27_2 1_555 1_555
C35_2 C27_2 1_555 1_555
H27_2 C28_2 1_555 1_555
H30_2 C31_2 1_555 1_555
C36_2 C31_2 1_555 1_555
C37_2 C32_2 1_555 1_555
H31_2 C32_2 1_555 1_555
H33_2 C34_2 1_555 1_555
C40_2 C35_2 1_555 1_555
H37_2 C36_2 1_555 1_555
C43_2 C36_2 1_555 1_555
H38_2 C37_2 1_555 1_555
O16 C40_2 1_555 1_555
C46_2 C43_2 1_555 1_555
O12 C46_2 1_555 1_555
O3_2 Co17 1_555 1_555
C3_2 O6_2 1_555 1_555
C7_2 C11_2 1_555 1_555
O5_9 Co21 1_555 1_555
O8_2 Co9 1_555 1_555
O9_2 Co19 1_555 1_555
O11_2 Co18 1_555 1_555
Co9 O13_2 1_555 1_555
C13_2 O17_2 1_555 1_555
O15_2 Co8 1_555 1_555
C21_2 O23_2 1_555 1_555
C28_2 C35_2 1_555 1_555
C37_2 C43_2 1_555 1_555
H11_2 C10_2 1_555 1_555
C20_2 C16_2 1_555 1_555
O21_2 C20_2 1_555 1_555
O22_2 C20_2 1_555 1_555
C29_2 C24_2 1_555 1_555
Co9 O21_2 1_555 1_555
Co13 O22_2 1_555 1_555
N7_2 C29_2 1_555 1_555
H28_2 C29_2 1_555 1_555
H29_2 C30_2 1_555 1_555
O26_2 Co9 1_555 1_555
N9_2 Co13 1_555 1_555
H34_2 O8_2 1_555 1_555
H35_2 O26_2 1_555 1_555
H36_2 O26_2 1_555 1_555
C41_2 N9_2 1_555 1_555
C42_2 N9_2 1_555 1_555
H41_2 C41_2 1_555 1_555
C44_2 C41_2 1_555 1_555
C45_2 C42_2 1_555 1_555
H42_2 C42_2 1_555 1_555
C47_2 C48_2 1_555 1_555
H43_2 C44_2 1_555 1_555
C48_2 C44_2 1_555 1_555
H44_2 C45_2 1_555 1_555
O7 C47_2 1_555 1_555
C10_2 C16_2 1_555 1_555
C30_2 N7_2 1_555 1_555
Co13 O8_2 1_555 1_555
Co13 O26_2 1_555 1_555
C45_2 C48_2 1_555 1_555
C18_2 C14_2 1_555 1_555
N4 C18_2 1_555 1_555
H20_2 C18_2 1_555 1_555
H21_2 C19_2 1_555 1_555
C19_2 N4 1_555 1_555
N12 O37 1_555 1_555
O39 N12 1_555 1_555
N12_2 O37_2 1_555 1_555
O38 N12_2 1_555 1_555
N12_3 O37_3 1_555 1_555
O39_2 N12_3 1_555 1_555
N12_4 O37_4 1_555 1_555
O38_2 N12_4 1_555 1_555
N12_5 O37_5 1_555 1_555
O39_3 N12_5 1_555 1_555
N12_6 O37_6 1_555 1_555
O38_3 N12_6 1_555 1_555
N12_7 O37_7 1_555 1_555
O39_4 N12_7 1_555 1_555
N12_8 O37_8 1_555 1_555
O38_4 N12_8 1_555 1_555

#END
