
###############################################################################
#
# This file contains modified crystal structure data generated from the
# MOF subset of the Cambridge Structural Database (CSD) v543 
# hosted by the Cambridge Crystallographic Data Centre (CCDC).
#
# This work is licensed under the Creative Commons
# Attribution-NonCommercial-ShareAlike 4.0 International License.
# To view a copy of this license, visit
# http://creativecommons.org/licenses/by-nc-sa/4.0/
# or send a letter to
# Creative Commons, PO Box 1866, Mountain View, CA 94042, USA.
#
# CIF created using the CSD Python API on 29 September 2022
# The structure has been converted into the P1 space group
# The structure has a 3D framework
# The original CSD entry ESAROH is in the orthorhombic crystal system
# The original CSD entry ESAROH is in a Sohncke space group
# The framework has been calculated to contain at least 10.0% void space
# The void calculation uses a probe of radius 1.32A, grid spacing 0.4
#
###############################################################################

data_ESAROH
_chemical_formula_moiety         '(C124 H120 N24 O40 Zn5)n'
_symmetry_cell_setting           triclinic
_symmetry_space_group_name_H-M   'P 1'
_symmetry_Int_Tables_number      1
_space_group_name_Hall           'P 1'
loop_
_symmetry_equiv_pos_site_id
_symmetry_equiv_pos_as_xyz
1 x,y,z
_cell_length_a                   10.373(5)
_cell_length_b                   15.088(5)
_cell_length_c                   24.126(5)
_cell_angle_alpha                90
_cell_angle_beta                 90
_cell_angle_gamma                90
_cell_volume                     3775.91
loop_
_atom_site_label
_atom_site_type_symbol
_atom_site_fract_x
_atom_site_fract_y
_atom_site_fract_z
N1 N 0.1717(6) 0.5272(5) 0.1242(3)
C15 C 0.1108(11) 0.6053(7) 0.1390(4)
H7 H 0.1466 0.6513 0.1596
C16 C 0.3048(7) 0.5077(11) 0.1373(3)
H8 H 0.3525 0.5630 0.1364
H9 H 0.3390 0.4705 0.1080
C17 C 0.0839(7) 0.4783(5) 0.0955(3)
C18 C 0.3170(7) 0.5085(8) 0.2445(3)
H10 H 0.2267 0.5221 0.2504
H11 H 0.3641 0.5640 0.2441
C19 C 0.3318(12) 0.4644(11) 0.1900(4)
H12 H 0.4204 0.4440 0.1881
H13 H 0.2782 0.4117 0.1912
C20 C 0.1837(10) 0.3924(10) 0.0161(4)
H15 H 0.1890 0.3341 0.0003
H16 H 0.2690 0.4149 0.0223
C22 C 0.3648(10) 0.4528(9) 0.2920(4)
H17 H 0.3093 0.4012 0.2941
H18 H 0.4499 0.4316 0.2819
C23 C 0.1110(9) 0.3880(9) 0.0714(4)
H19 H 0.0299 0.3572 0.0658
H20 H 0.1615 0.3540 0.0977
C25 C 0.3747(7) 0.4902(8) 0.3493(3)
H22 H 0.4092 0.4448 0.3736
H23 H 0.4359 0.5388 0.3488
N5 N 0.2533(5) 0.5225(4) 0.3729(2)
C26 C 0.2096(7) 0.6086(5) 0.3714(3)
H24 H 0.2510 0.6567 0.3551
C27 C 0.1641(6) 0.4738(5) 0.4020(3)
C28 C 0.1828(9) 0.3782(5) 0.4172(4)
H25 H 0.2265 0.3482 0.3870
H26 H 0.0990 0.3506 0.4219
N6 N 0.0684(5) 0.5251(3) 0.4172(2)
C29 C 0.0969(7) 0.6098(4) 0.3976(3)
H27 H 0.0451 0.6596 0.4023
C30 C 0.2605(10) 0.3659(8) 0.4700(5)
H28 H 0.3351 0.4035 0.4690
H29 H 0.2872 0.3052 0.4730
H30 H 0.2082 0.3812 0.5014
Zn2 Zn 0.81513(5) 0.50009(5) 0.04574(2)
O1 O 0.3593(6) 0.0954(4) 0.0112(2)
C1 C 0.5477(7) 0.2966(4) 0.1509(3)
H1 H 0.6046 0.3313 0.1713
C2 C 0.5367(7) 0.3051(4) 0.0935(3)
O2 O 0.2077(6) 0.0923(4) 0.0773(2)
C3 C 0.4728(7) 0.1908(4) 0.4088(3)
C4 C 0.3895(7) 0.1849(4) 0.0893(3)
C5 C 0.4693(7) 0.2334(5) 0.1761(3)
C6 C 0.6271(7) 0.3134(4) 0.4079(3)
O3 O 0.7136(6) 0.4042(4) 0.0869(2)
C7 C 0.5459(7) 0.2524(4) 0.3219(3)
O4 O 0.5615(6) 0.4069(4) 0.0206(2)
C8 C 0.4615(6) 0.2481(4) 0.0624(3)
H2 H 0.4598 0.2524 0.0240
C9 C 0.3139(7) 0.1182(4) 0.0558(3)
C10 C 0.3885(7) 0.1788(5) 0.1461(3)
H3 H 0.3345 0.1387 0.1639
C11 C 0.5509(6) 0.2520(4) 0.4372(3)
H4 H 0.5522 0.2519 0.4757
N2 N 0.4625(7) 0.2252(5) 0.2382(2)
N3 N 0.5489(7) 0.2580(4) 0.2651(3)
C12 C 0.6278(8) 0.3113(4) 0.3501(3)
H5 H 0.6822 0.3487 0.3303
C13 C 0.6108(7) 0.3784(4) 0.0650(3)
C14 C 0.4669(7) 0.1926(4) 0.3513(3)
H6 H 0.4115 0.1547 0.3324
N4 N 0.9751(6) 0.5222(4) 0.0909(2)
O5 O 0.6797(6) 0.2625(4) 0.2447(2)
C21 C 0.7030(7) 0.3810(4) 0.4396(3)
O6 O 0.8027(6) 0.4095(4) 0.4169(2)
O7 O 0.6544(6) 0.4059(4) 0.4852(2)
C24 C 0.9933(9) 0.6027(6) 0.1189(4)
H21 H 0.9319 0.6472 0.1226
O8 O 0.3681 0.1678 0.2513
C31 C 0.4022(8) 0.1211(4) 0.4407(3)
O9 O 0.4498(6) 0.0983(4) 0.4851(2)
O10 O 0.3028(6) 0.0903(4) 0.4173(2)
Zn3 Zn 0.90702(5) 0.49976(5) 0.45972(2)
Zn5 Zn 0.40702(5) 0.00024(5) 0.54028(2)
Zn6 Zn 0.68487(5) 0.49991(5) 0.54574(2)
Zn8 Zn 0.18487(5) 0.00009(5) 0.45426(2)
O15 O 0.5502(6) 0.5983(4) 0.0149(2)
O16 O 0.6972(6) 0.5903(4) 0.0827(2)
Zn1 Zn 0.59298(5) 0.50024(5) 0.95972(2)
O11 O 0.8593(6) 0.4046(4) 0.9888(2)
O12 O 0.7077(6) 0.4077(4) 0.9227(2)
O13 O 0.6973(6) 0.5905(4) 0.9169(2)
O14 O 0.8456(6) 0.5941(4) 0.9852(2)
N7 N 0.4316(5) 0.4749(3) 0.9172(2)
Zn4 Zn 0.09298(5) 0.99976(5) 0.04028(2)
Zn7 Zn 0.31513(5) 0.99991(5) 0.95426(2)
O1_2 O 0.1407(6) 0.9046(4) 0.5112(2)
O2_2 O 0.2923(6) 0.9077(4) 0.5773(2)
C3_2 C 0.0272(7) 0.8092(4) 0.9088(3)
C4_2 C 0.1105(7) 0.8151(4) 0.5893(3)
C5_2 C 0.0307(7) 0.7666(5) 0.6761(3)
C8_2 C 0.0385(6) 0.7519(4) 0.5624(3)
H2_2 H 0.0402 0.7476 0.5240
C9_2 C 0.1861(7) 0.8818(4) 0.5558(3)
C10_2 C 0.1115(7) 0.8212(5) 0.6461(3)
H3_2 H 0.1655 0.8613 0.6639
N2_2 N 0.0375(7) 0.7748(5) 0.7382(2)
C14_2 C 0.0331(7) 0.8074(4) 0.8513(3)
H6_2 H 0.0885 0.8453 0.8324
O8_2 O 0.1319 0.8322 0.7513
C31_2 C 0.0978(8) 0.8789(4) 0.9407(3)
O9_2 O 0.0502(6) 0.9017(4) 0.9851(2)
O10_2 O 0.1972(6) 0.9097(4) 0.9173(2)
H30_2 H 0.2918 0.6188 0.0014
C1_2 C 0.9523(7) 0.7034(4) 0.6509(3)
H1_2 H 0.8954 0.6687 0.6713
C2_2 C 0.9633(7) 0.6949(4) 0.5935(3)
C6_2 C 0.8729(7) 0.6866(4) 0.9079(3)
O3_2 O 0.7864(6) 0.5958(4) 0.5869(2)
C7_2 C 0.9541(7) 0.7476(4) 0.8219(3)
O4_2 O 0.9385(6) 0.5931(4) 0.5206(2)
N1_2 N 0.3283(6) 0.4728(5) 0.6242(3)
C11_2 C 0.9491(6) 0.7480(4) 0.9372(3)
H4_2 H 0.9478 0.7481 0.9757
N3_2 N 0.9511(7) 0.7420(4) 0.7651(3)
C12_2 C 0.8722(8) 0.6887(4) 0.8501(3)
H5_2 H 0.8178 0.6513 0.8303
C13_2 C 0.8892(7) 0.6216(4) 0.5650(3)
C15_2 C 0.3892(11) 0.3947(7) 0.6390(4)
H7_2 H 0.3534 0.3487 0.6596
N4_2 N 0.5249(6) 0.4778(4) 0.5909(2)
C16_2 C 0.1952(7) 0.4923(11) 0.6373(3)
H8_2 H 0.1475 0.4370 0.6364
H9_2 H 0.1610 0.5295 0.6080
C17_2 C 0.4161(7) 0.5217(5) 0.5955(3)
C18_2 C 0.1830(7) 0.4915(8) 0.7445(3)
H10_2 H 0.2733 0.4779 0.7504
H11_2 H 0.1359 0.4360 0.7441
C19_2 C 0.1682(12) 0.5356(11) 0.6900(4)
H12_2 H 0.0796 0.5560 0.6881
H13_2 H 0.2218 0.5883 0.6912
O5_2 O 0.8203(6) 0.7375(4) 0.7447(2)
C20_2 C 0.3163(10) 0.6076(10) 0.5161(4)
H14 H 0.3614 0.5691 0.4911
H15_2 H 0.3110 0.6659 0.5003
H16_2 H 0.2310 0.5851 0.5223
C21_2 C 0.7970(7) 0.6190(4) 0.9396(3)
C22_2 C 0.1352(10) 0.5472(9) 0.7920(4)
H17_2 H 0.1907 0.5988 0.7941
H18_2 H 0.0501 0.5684 0.7819
C23_2 C 0.3890(9) 0.6120(9) 0.5714(4)
H19_2 H 0.4701 0.6428 0.5658
H20_2 H 0.3385 0.6460 0.5977
C24_2 C 0.5067(9) 0.3973(6) 0.6189(4)
H21_2 H 0.5681 0.3528 0.6226
C25_2 C 0.1253(7) 0.5098(8) 0.8493(3)
H22_2 H 0.0908 0.5552 0.8736
H23_2 H 0.0641 0.4612 0.8488
N5_2 N 0.2467(5) 0.4775(4) 0.8729(2)
C26_2 C 0.2904(7) 0.3914(5) 0.8714(3)
H24_2 H 0.2490 0.3433 0.8551
C27_2 C 0.3359(6) 0.5262(5) 0.9020(3)
C28_2 C 0.3172(9) 0.6218(5) 0.9172(4)
H25_2 H 0.2735 0.6518 0.8870
H26_2 H 0.4010 0.6494 0.9219
C29_2 C 0.4031(7) 0.3902(4) 0.8976(3)
H27_2 H 0.4549 0.3404 0.9023
C30_2 C 0.2395(10) 0.6341(8) 0.9700(5)
H28_2 H 0.1649 0.5965 0.9690
H29_2 H 0.2128 0.6948 0.9730
O11_2 O 0.6407(6) 0.5954(4) 0.4888(2)
O12_2 O 0.7923(6) 0.5923(4) 0.4227(2)
O15_2 O 0.9498(6) 0.4017(4) 0.5149(2)
O16_2 O 0.8028(6) 0.4097(4) 0.5827(2)
H14_2 H 0.6386 0.0691 0.0089
C1_3 C 0.0477(7) 0.2034(4) 0.8491(3)
H1_3 H 0.1046 0.1687 0.8287
C2_3 C 0.0367(7) 0.1949(4) 0.9065(3)
C6_3 C 0.1271(7) 0.1866(4) 0.5921(3)
O3_3 O 0.2136(6) 0.0958(4) 0.9131(2)
C7_3 C 0.0459(7) 0.2476(4) 0.6781(3)
O4_3 O 0.0615(6) 0.0931(4) 0.9794(2)
C11_3 C 0.0509(6) 0.2480(4) 0.5628(3)
H4_3 H 0.0522 0.2481 0.5243
N3_3 N 0.0489(7) 0.2420(4) 0.7349(3)
C12_3 C 0.1278(8) 0.1887(4) 0.6499(3)
H5_3 H 0.1822 0.1513 0.6697
C13_3 C 0.1108(7) 0.1216(4) 0.9350(3)
H9_3 H 0.8390 0.0295 0.8920
C17_3 C 0.5839(7) 0.0217(5) 0.9045(3)
C19_3 C 0.8318(12) 0.0356(11) 0.8100(4)
H12_3 H 0.9204 0.0560 0.8119
H13_3 H 0.7782 0.0883 0.8088
O5_3 O 0.1797(6) 0.2375(4) 0.7553(2)
C20_3 C 0.6837(10) 0.1076(10) 0.9839(4)
H15_3 H 0.6890 0.1659 0.9997
H16_3 H 0.7690 0.0851 0.9777
C21_3 C 0.2030(7) 0.1190(4) 0.5604(3)
O6_2 O 0.3027(6) 0.0905(4) 0.5831(2)
O7_2 O 0.1544(6) 0.0941(4) 0.5148(2)
C22_3 C 0.8648(10) 0.0472(9) 0.7080(4)
H17_3 H 0.8093 0.0988 0.7059
H18_3 H 0.9499 0.0684 0.7181
C23_3 C 0.6110(9) 0.1120(9) 0.9286(4)
H19_3 H 0.5299 0.1428 0.9342
H20_3 H 0.6615 0.1460 0.9023
C25_3 C 0.8747(7) 0.0098(8) 0.6507(3)
H22_3 H 0.9092 0.0552 0.6264
C27_3 C 0.6641(6) 0.0262(5) 0.5980(3)
C28_3 C 0.6828(9) 0.1218(5) 0.5828(4)
H25_3 H 0.7265 0.1518 0.6130
H26_3 H 0.5990 0.1494 0.5781
C30_3 C 0.7605(10) 0.1341(8) 0.5300(5)
H28_3 H 0.8351 0.0965 0.5310
H29_3 H 0.7872 0.1948 0.5270
H30_3 H 0.7082 0.1188 0.4986
O13_2 O 0.1973(6) 0.9095(4) 0.0831(2)
O14_2 O 0.3456(6) 0.9059(4) 0.0148(2)
N1_3 N 0.6717(6) 0.9728(5) 0.8758(3)
C15_3 C 0.6108(11) 0.8947(7) 0.8610(4)
H7_3 H 0.6466 0.8487 0.8404
N4_3 N 0.4751(6) 0.9778(4) 0.9091(2)
C16_3 C 0.8048(7) 0.9923(11) 0.8627(3)
H8_3 H 0.8525 0.9370 0.8636
C18_3 C 0.8170(7) 0.9915(8) 0.7555(3)
H10_3 H 0.7267 0.9779 0.7496
H11_3 H 0.8641 0.9360 0.7559
C24_3 C 0.4933(9) 0.8973(6) 0.8811(4)
H21_3 H 0.4319 0.8528 0.8774
H23_3 H 0.9359 0.9612 0.6512
N5_3 N 0.7533(5) 0.9775(4) 0.6271(2)
C26_3 C 0.7096(7) 0.8914(5) 0.6286(3)
H24_3 H 0.7510 0.8433 0.6449
N6_2 N 0.5684(5) 0.9749(3) 0.5828(2)
C29_3 C 0.5969(7) 0.8902(4) 0.6024(3)
H27_3 H 0.5451 0.8404 0.5977
N7_2 N 0.9316(5) 0.0251(3) 0.0828(2)
C3_3 C 0.9728(7) 0.3092(4) 0.5912(3)
C4_3 C 0.8895(7) 0.3151(4) 0.9107(3)
C5_3 C 0.9693(7) 0.2666(5) 0.8239(3)
C8_3 C 0.9615(6) 0.2519(4) 0.9376(3)
H2_3 H 0.9598 0.2476 0.9760
C9_3 C 0.8139(7) 0.3818(4) 0.9442(3)
C10_3 C 0.8885(7) 0.3212(5) 0.8539(3)
H3_3 H 0.8345 0.3613 0.8361
N2_3 N 0.9625(7) 0.2748(5) 0.7618(2)
C14_3 C 0.9669(7) 0.3074(4) 0.6487(3)
H6_3 H 0.9115 0.3453 0.6676
O8_3 O 0.8681 0.3322 0.7487
C31_3 C 0.9022(8) 0.3789(4) 0.5593(3)
N4_4 N 0.0249(6) 0.0222(4) 0.4091(2)
C24_4 C 0.0067(9) 0.1027(6) 0.3811(4)
H21_4 H 0.0681 0.1472 0.3774
C1_4 C 0.4523(7) 0.7966(4) 0.3491(3)
H1_4 H 0.3954 0.8313 0.3287
C2_4 C 0.4633(7) 0.8051(4) 0.4065(3)
C3_4 C 0.5272(7) 0.6908(4) 0.0912(3)
C4_4 C 0.6105(7) 0.6849(4) 0.4107(3)
C5_4 C 0.5307(7) 0.7334(5) 0.3239(3)
C6_4 C 0.3729(7) 0.8134(4) 0.0921(3)
O3_4 O 0.2864(6) 0.9042(4) 0.4131(2)
C7_4 C 0.4541(7) 0.7524(4) 0.1781(3)
O4_4 O 0.4385(6) 0.9069(4) 0.4794(2)
C8_4 C 0.5385(6) 0.7481(4) 0.4376(3)
H2_4 H 0.5402 0.7524 0.4760
C9_4 C 0.6861(7) 0.6182(4) 0.4442(3)
C10_4 C 0.6115(7) 0.6788(5) 0.3539(3)
H3_4 H 0.6655 0.6387 0.3361
C11_4 C 0.4491(6) 0.7520(4) 0.0628(3)
H4_4 H 0.4478 0.7519 0.0243
N2_4 N 0.5375(7) 0.7252(5) 0.2618(2)
N3_4 N 0.4511(7) 0.7580(4) 0.2349(3)
C12_4 C 0.3722(8) 0.8113(4) 0.1499(3)
H5_4 H 0.3178 0.8487 0.1697
C13_4 C 0.3892(7) 0.8784(4) 0.4350(3)
C14_4 C 0.5331(7) 0.6926(4) 0.1487(3)
H6_4 H 0.5885 0.6547 0.1676
O5_4 O 0.3203(6) 0.7625(4) 0.2553(2)
C21_4 C 0.2970(7) 0.8810(4) 0.0604(3)
O8_4 O 0.6319 0.6678 0.2487
C31_4 C 0.5978(8) 0.6211(4) 0.0593(3)
N1_4 N 0.8283(6) 0.0272(5) 0.3758(3)
C15_4 C 0.8892(11) 0.1053(7) 0.3610(4)
H7_4 H 0.8534 0.1513 0.3404
C16_4 C 0.6952(7) 0.0077(11) 0.3627(3)
H8_4 H 0.6475 0.0630 0.3636
C18_4 C 0.6830(7) 0.0085(8) 0.2555(3)
H10_4 H 0.7733 0.0221 0.2496
H11_4 H 0.6359 0.0640 0.2559
H23_4 H 0.5641 0.0388 0.1512
N5_4 N 0.7467(5) 0.0225(4) 0.1271(2)
C26_4 C 0.7904(7) 0.1086(5) 0.1286(3)
H24_4 H 0.7490 0.1567 0.1449
C29_4 C 0.9031(7) 0.1098(4) 0.1024(3)
H27_4 H 0.9549 0.1596 0.0977
H14_3 H 0.1386 0.4309 0.9911
H9_4 H 0.6610 0.9705 0.3920
C17_4 C 0.9161(7) 0.9783(5) 0.4045(3)
C19_4 C 0.6682(12) 0.9644(11) 0.3100(4)
H12_4 H 0.5796 0.9440 0.3119
H13_4 H 0.7218 0.9117 0.3088
C20_4 C 0.8163(10) 0.8924(10) 0.4839(4)
H14_4 H 0.8614 0.9309 0.5089
H15_4 H 0.8110 0.8341 0.4997
H16_4 H 0.7310 0.9149 0.4777
C22_4 C 0.6352(10) 0.9528(9) 0.2080(4)
H17_4 H 0.6907 0.9012 0.2059
H18_4 H 0.5501 0.9316 0.2181
C23_4 C 0.8890(9) 0.8880(9) 0.4286(4)
H19_4 H 0.9701 0.8572 0.4342
H20_4 H 0.8385 0.8540 0.4023
C25_4 C 0.6253(7) 0.9902(8) 0.1507(3)
H22_4 H 0.5908 0.9448 0.1264
C27_4 C 0.8359(6) 0.9738(5) 0.0980(3)
C28_4 C 0.8172(9) 0.8782(5) 0.0828(4)
H25_4 H 0.7735 0.8482 0.1130
H26_4 H 0.9010 0.8506 0.0781
C30_4 C 0.7395(10) 0.8659(8) 0.0300(5)
H28_4 H 0.6649 0.9035 0.0310
H29_4 H 0.7128 0.8052 0.0270
H30_4 H 0.7918 0.8812 0.9986
loop_
_geom_bond_atom_site_label_1
_geom_bond_atom_site_label_2
_geom_bond_site_symmetry_1
_geom_bond_site_symmetry_2
N1 C15 1_555 1_555
C15 H7 1_555 1_555
C16 N1 1_555 1_555
H8 C16 1_555 1_555
H9 C16 1_555 1_555
C17 N1 1_555 1_555
C18 H10 1_555 1_555
H11 C18 1_555 1_555
C19 C16 1_555 1_555
H12 C19 1_555 1_555
H13 C19 1_555 1_555
H15 C20 1_555 1_555
H16 C20 1_555 1_555
C22 C18 1_555 1_555
H17 C22 1_555 1_555
H18 C22 1_555 1_555
C23 C17 1_555 1_555
H19 C23 1_555 1_555
H20 C23 1_555 1_555
C25 C22 1_555 1_555
H22 C25 1_555 1_555
H23 C25 1_555 1_555
N5 C25 1_555 1_555
C26 N5 1_555 1_555
H24 C26 1_555 1_555
C27 N5 1_555 1_555
C28 C27 1_555 1_555
H25 C28 1_555 1_555
H26 C28 1_555 1_555
N6 C27 1_555 1_555
C29 C26 1_555 1_555
H27 C29 1_555 1_555
C30 C28 1_555 1_555
H28 C30 1_555 1_555
H29 C30 1_555 1_555
H30 C30 1_555 1_555
C18 C19 1_555 1_555
C20 C23 1_555 1_555
N6 C29 1_555 1_555
Zn2 O3 1_555 1_555
O1 C9 1_555 1_555
C1 H1 1_555 1_555
C2 C1 1_555 1_555
O2 C9 1_555 1_555
C3 C11 1_555 1_555
C4 C8 1_555 1_555
C5 C1 1_555 1_555
C6 C11 1_555 1_555
O3 C13 1_555 1_555
C7 N3 1_555 1_555
O4 C13 1_555 1_555
C8 C2 1_555 1_555
H2 C8 1_555 1_555
C9 C4 1_555 1_555
C10 C4 1_555 1_555
H3 C10 1_555 1_555
C11 H4 1_555 1_555
N2 C5 1_555 1_555
N3 N2 1_555 1_555
C12 C6 1_555 1_555
H5 C12 1_555 1_555
C13 C2 1_555 1_555
C14 C3 1_555 1_555
H6 C14 1_555 1_555
N4 Zn2 1_555 1_555
O5 N3 1_555 1_555
C21 C6 1_555 1_555
O6 C21 1_555 1_555
O7 C21 1_555 1_555
H21 C24 1_555 1_555
O8 N2 1_555 1_555
C31 C3 1_555 1_555
O9 C31 1_555 1_555
O10 C31 1_555 1_555
Zn3 O6 1_555 1_555
Zn5 O9 1_555 1_555
Zn6 O7 1_555 1_555
Zn8 O10 1_555 1_555
O16 Zn2 1_555 1_555
C5 C10 1_555 1_555
C7 C12 1_555 1_555
C7 C14 1_555 1_555
N4 C24 1_555 1_555
O12 Zn1 1_555 1_555
O13 Zn1 1_555 1_555
N7 Zn1 1_555 1_555
O1_2 C9_2 1_555 1_555
O2_2 C9_2 1_555 1_555
C4_2 C8_2 1_555 1_555
H2_2 C8_2 1_555 1_555
C9_2 C4_2 1_555 1_555
C10_2 C4_2 1_555 1_555
H3_2 C10_2 1_555 1_555
N2_2 C5_2 1_555 1_555
C14_2 C3_2 1_555 1_555
H6_2 C14_2 1_555 1_555
O8_2 N2_2 1_555 1_555
C31_2 C3_2 1_555 1_555
O9_2 C31_2 1_555 1_555
O10_2 C31_2 1_555 1_555
Zn7 O10_2 1_555 1_555
C5_2 C10_2 1_555 1_555
Zn3 O4_2 1_555 1_555
Zn6 O3_2 1_555 1_555
C1_2 H1_2 1_555 1_555
C2_2 C1_2 1_555 1_555
C6_2 C11_2 1_555 1_555
O3_2 C13_2 1_555 1_555
C7_2 N3_2 1_555 1_555
O4_2 C13_2 1_555 1_555
N1_2 C15_2 1_555 1_555
C11_2 H4_2 1_555 1_555
C12_2 C6_2 1_555 1_555
H5_2 C12_2 1_555 1_555
C13_2 C2_2 1_555 1_555
C15_2 H7_2 1_555 1_555
N4_2 Zn6 1_555 1_555
C16_2 N1_2 1_555 1_555
H8_2 C16_2 1_555 1_555
H9_2 C16_2 1_555 1_555
C17_2 N1_2 1_555 1_555
C18_2 H10_2 1_555 1_555
H11_2 C18_2 1_555 1_555
C19_2 C16_2 1_555 1_555
H12_2 C19_2 1_555 1_555
H13_2 C19_2 1_555 1_555
O5_2 N3_2 1_555 1_555
C20_2 H14 1_555 1_555
H15_2 C20_2 1_555 1_555
H16_2 C20_2 1_555 1_555
C21_2 C6_2 1_555 1_555
O13 C21_2 1_555 1_555
O14 C21_2 1_555 1_555
C22_2 C18_2 1_555 1_555
H17_2 C22_2 1_555 1_555
H18_2 C22_2 1_555 1_555
C23_2 C17_2 1_555 1_555
H19_2 C23_2 1_555 1_555
H20_2 C23_2 1_555 1_555
C24_2 C15_2 1_555 1_555
H21_2 C24_2 1_555 1_555
C25_2 C22_2 1_555 1_555
H22_2 C25_2 1_555 1_555
H23_2 C25_2 1_555 1_555
N5_2 C25_2 1_555 1_555
C26_2 N5_2 1_555 1_555
H24_2 C26_2 1_555 1_555
C27_2 N5_2 1_555 1_555
C28_2 C27_2 1_555 1_555
H25_2 C28_2 1_555 1_555
H26_2 C28_2 1_555 1_555
N7 C27_2 1_555 1_555
C29_2 C26_2 1_555 1_555
H27_2 C29_2 1_555 1_555
C30_2 C28_2 1_555 1_555
H28_2 C30_2 1_555 1_555
H29_2 C30_2 1_555 1_555
O11_2 Zn6 1_555 1_555
O12_2 Zn3 1_555 1_555
O15_2 Zn3 1_555 1_555
O16_2 Zn6 1_555 1_555
C7_2 C12_2 1_555 1_555
N4_2 C17_2 1_555 1_555
N4_2 C24_2 1_555 1_555
C18_2 C19_2 1_555 1_555
C20_2 C23_2 1_555 1_555
N7 C29_2 1_555 1_555
C1_3 H1_3 1_555 1_555
C2_3 C1_3 1_555 1_555
C6_3 C11_3 1_555 1_555
O3_3 C13_3 1_555 1_555
C7_3 N3_3 1_555 1_555
O4_3 C13_3 1_555 1_555
C11_3 H4_3 1_555 1_555
C12_3 C6_3 1_555 1_555
H5_3 C12_3 1_555 1_555
C13_3 C2_3 1_555 1_555
H12_3 C19_3 1_555 1_555
H13_3 C19_3 1_555 1_555
O5_3 N3_3 1_555 1_555
H15_3 C20_3 1_555 1_555
H16_3 C20_3 1_555 1_555
C21_3 C6_3 1_555 1_555
O6_2 C21_3 1_555 1_555
O7_2 C21_3 1_555 1_555
H17_3 C22_3 1_555 1_555
H18_3 C22_3 1_555 1_555
C23_3 C17_3 1_555 1_555
H19_3 C23_3 1_555 1_555
H20_3 C23_3 1_555 1_555
C25_3 C22_3 1_555 1_555
H22_3 C25_3 1_555 1_555
C28_3 C27_3 1_555 1_555
H25_3 C28_3 1_555 1_555
H26_3 C28_3 1_555 1_555
C30_3 C28_3 1_555 1_555
H28_3 C30_3 1_555 1_555
H29_3 C30_3 1_555 1_555
H30_3 C30_3 1_555 1_555
Zn5 O6_2 1_555 1_555
Zn8 O7_2 1_555 1_555
C7_3 C12_3 1_555 1_555
C20_3 C23_3 1_555 1_555
O13_2 Zn4 1_555 1_555
N1_3 C15_3 1_555 1_555
C15_3 H7_3 1_555 1_555
N4_3 Zn7 1_555 1_555
C16_3 N1_3 1_555 1_555
H8_3 C16_3 1_555 1_555
C18_3 H10_3 1_555 1_555
H11_3 C18_3 1_555 1_555
C24_3 C15_3 1_555 1_555
H21_3 C24_3 1_555 1_555
C26_3 N5_3 1_555 1_555
H24_3 C26_3 1_555 1_555
C29_3 C26_3 1_555 1_555
H27_3 C29_3 1_555 1_555
N4_3 C24_3 1_555 1_555
N6_2 C29_3 1_555 1_555
O11 C9_3 1_555 1_555
O12 C9_3 1_555 1_555
C4_3 C8_3 1_555 1_555
H2_3 C8_3 1_555 1_555
C9_3 C4_3 1_555 1_555
C10_3 C4_3 1_555 1_555
H3_3 C10_3 1_555 1_555
N2_3 C5_3 1_555 1_555
C14_3 C3_3 1_555 1_555
H6_3 C14_3 1_555 1_555
O8_3 N2_3 1_555 1_555
C31_3 C3_3 1_555 1_555
O15_2 C31_3 1_555 1_555
O16_2 C31_3 1_555 1_555
C5_3 C10_3 1_555 1_555
N4_4 Zn8 1_555 1_555
H21_4 C24_4 1_555 1_555
N4_4 C24_4 1_555 1_555
O11_2 C9_4 1_555 1_555
C1_4 H1_4 1_555 1_555
C2_4 C1_4 1_555 1_555
O12_2 C9_4 1_555 1_555
C3_4 C11_4 1_555 1_555
C4_4 C8_4 1_555 1_555
C5_4 C1_4 1_555 1_555
C6_4 C11_4 1_555 1_555
O3_4 C13_4 1_555 1_555
C7_4 N3_4 1_555 1_555
O4_4 C13_4 1_555 1_555
C8_4 C2_4 1_555 1_555
H2_4 C8_4 1_555 1_555
C9_4 C4_4 1_555 1_555
C10_4 C4_4 1_555 1_555
H3_4 C10_4 1_555 1_555
C11_4 H4_4 1_555 1_555
N2_4 C5_4 1_555 1_555
N3_4 N2_4 1_555 1_555
C12_4 C6_4 1_555 1_555
H5_4 C12_4 1_555 1_555
C13_4 C2_4 1_555 1_555
C14_4 C3_4 1_555 1_555
H6_4 C14_4 1_555 1_555
O5_4 N3_4 1_555 1_555
C21_4 C6_4 1_555 1_555
O13_2 C21_4 1_555 1_555
O14_2 C21_4 1_555 1_555
O8_4 N2_4 1_555 1_555
C31_4 C3_4 1_555 1_555
O15 C31_4 1_555 1_555
O16 C31_4 1_555 1_555
C5_4 C10_4 1_555 1_555
C7_4 C12_4 1_555 1_555
C7_4 C14_4 1_555 1_555
N1_4 C15_4 1_555 1_555
C15_4 H7_4 1_555 1_555
C16_4 N1_4 1_555 1_555
H8_4 C16_4 1_555 1_555
C18_4 H10_4 1_555 1_555
H11_4 C18_4 1_555 1_555
C26_4 N5_4 1_555 1_555
H24_4 C26_4 1_555 1_555
C29_4 C26_4 1_555 1_555
H27_4 C29_4 1_555 1_555
N7_2 C29_4 1_555 1_555
H12_4 C19_4 1_555 1_555
H13_4 C19_4 1_555 1_555
C20_4 H14_4 1_555 1_555
H15_4 C20_4 1_555 1_555
H16_4 C20_4 1_555 1_555
H17_4 C22_4 1_555 1_555
H18_4 C22_4 1_555 1_555
C23_4 C17_4 1_555 1_555
H19_4 C23_4 1_555 1_555
H20_4 C23_4 1_555 1_555
C25_4 C22_4 1_555 1_555
H22_4 C25_4 1_555 1_555
C28_4 C27_4 1_555 1_555
H25_4 C28_4 1_555 1_555
H26_4 C28_4 1_555 1_555
C30_4 C28_4 1_555 1_555
H28_4 C30_4 1_555 1_555
H29_4 C30_4 1_555 1_555
C20_4 C23_4 1_555 1_555

#END
