
###############################################################################
#
# This file contains modified crystal structure data generated from the
# MOF subset of the Cambridge Structural Database (CSD) v543 
# hosted by the Cambridge Crystallographic Data Centre (CCDC).
#
# This work is licensed under the Creative Commons
# Attribution-NonCommercial-ShareAlike 4.0 International License.
# To view a copy of this license, visit
# http://creativecommons.org/licenses/by-nc-sa/4.0/
# or send a letter to
# Creative Commons, PO Box 1866, Mountain View, CA 94042, USA.
#
# CIF created using the CSD Python API on 29 September 2022
# The structure has been converted into the P1 space group
# The structure has a 3D framework
# The original CSD entry ESEHIV is in the triclinic crystal system
# The original CSD entry ESEHIV is in a Sohncke space group
# The framework has been calculated to contain at least 10.0% void space
# The void calculation uses a probe of radius 1.32A, grid spacing 0.4
#
###############################################################################

data_ESEHIV
_chemical_formula_moiety         '(C48 H34 Cu2 N12 O13)n'
_symmetry_cell_setting           triclinic
_symmetry_space_group_name_H-M   'P 1'
_symmetry_Int_Tables_number      1
_space_group_name_Hall           'P 1'
loop_
_symmetry_equiv_pos_site_id
_symmetry_equiv_pos_as_xyz
1 x,y,z
_cell_length_a                   11.8074(11)
_cell_length_b                   12.0287(13)
_cell_length_c                   12.5815(14)
_cell_angle_alpha                77.5080(10)
_cell_angle_beta                 88.505(2)
_cell_angle_gamma                62.8230(10)
_cell_volume                     1546.56
loop_
_atom_site_label
_atom_site_type_symbol
_atom_site_fract_x
_atom_site_fract_y
_atom_site_fract_z
_atom_site_U_iso_or_equiv
_atom_site_thermal_displace_type
H27 H 0.0085 0.5916 0.0727 0.0620 Uiso
C10 C 0.6211(4) 0.1001(4) 0.1759(3) 0.0447 Uani
C11 C 0.6507(4) 0.1818(4) 0.2242(4) 0.0445 Uani
H4 H 0.6052 0.2153 0.2808 0.0540 Uiso
C12 C 0.7469(4) 0.2108(4) 0.1867(3) 0.0437 Uani
C13 C 0.8059(4) 0.1696(4) 0.0937(3) 0.0395 Uani
H5 H 0.8642 0.1972 0.0640 0.0470 Uiso
C14 C 0.7811(4) 0.0914(3) 0.0458(3) 0.0401 Uani
C15 C 0.6849(4) 0.0571(4) 0.0896(3) 0.0396 Uani
H6 H 0.6655 0.0040 0.0581 0.0480 Uiso
C16 C 0.5173(4) 0.0640(4) 0.2174(3) 0.0416 Uani
C17 C 0.7814(4) 0.2903(4) 0.2414(3) 0.0430 Uani
O8 O 0.4292(3) 0.1378(3) 0.2622(2) 0.0470 Uani
O9 O 0.7072(3) 0.3592(3) 0.2960(2) 0.0486 Uani
O10 O 0.8904(3) 0.2845(3) 0.2198(2) 0.0404 Uani
Cu5 Cu 0.96266(4) 0.39111(4) 0.25823(4) 0.0418 Uani
C29 C 0.1409(4) 0.1012(4) 0.0030(3) 0.0419 Uani
C30 C 0.1698(4) 0.0513(4) 0.1107(3) 0.0446 Uani
H15 H 0.1102 0.0598 0.1622 0.0540 Uiso
H19 H 0.5257 0.6748 0.0024 0.0460 Uiso
H23 H 0.0853 0.8134 0.0395 0.0580 Uiso
H24 H 0.3159 0.7537 0.0576 0.0500 Uiso
C43 C 0.7816(4) 0.5403(4) 0.0630(3) 0.0396 Uani
H25 H 0.7282 0.5044 0.0884 0.0480 Uiso
C45 C 0.9344(4) 0.5894(4) 0.0528(4) 0.0518 Uani
N10 N 0.8838(3) 0.5150(3) 0.1149(3) 0.0459 Uani
O12 O 0.8504(3) 0.9478(3) 0.9330(2) 0.0416 Uani
Cu7 Cu 0.92878(4) 0.91965(4) 0.79521(4) 0.0401 Uani
H16 H 0.6563 0.9747 0.8314 0.0520 Uiso
C2 C 0.9721(4) 0.6984(4) 0.4862(3) 0.0422 Uani
H1 H 0.9098 0.6815 0.5221 0.0510 Uiso
C7 C 0.9629(4) 0.5817(4) 0.3474(3) 0.0421 Uani
C8 C 0.9771(4) 0.8052(4) 0.6307(3) 0.0406 Uani
C26 C 0.9835(5) 0.1863(4) 0.4593(3) 0.0496 Uani
H11 H 0.9233 0.1678 0.4318 0.0600 Uiso
O2 O 0.8490(3) 0.6049(3) 0.3627(2) 0.0456 Uani
O3 O 0.9204(3) 0.7557(3) 0.6916(2) 0.0449 Uani
C18 C 0.8468(4) 0.0515(4) 0.9495(3) 0.0414 Uani
O11 O 0.8928(3) 0.1096(3) 0.8903(2) 0.0431 Uani
C1 C 0.0165(4) 0.6559(4) 0.3898(3) 0.0391 Uani
C3 C 0.0228(4) 0.7646(4) 0.5250(3) 0.0387 Uani
C4 C 0.1108(4) 0.7963(4) 0.4723(3) 0.0426 Uani
H2 H 0.1382 0.8472 0.4985 0.0510 Uiso
C5 C 0.1593(4) 0.7514(4) 0.3785(3) 0.0414 Uani
C6 C 0.1129(4) 0.6814(3) 0.3356(3) 0.0417 Uani
H3 H 0.1439 0.6519 0.2731 0.0500 Uiso
C9 C 0.2607(4) 0.7764(4) 0.3214(3) 0.0391 Uani
C19 C 0.2232(4) 0.1432(4) 0.6550(3) 0.0388 Uani
C20 C 0.1909(4) 0.1194(4) 0.7618(3) 0.0403 Uani
H7 H 0.1123 0.1220 0.7766 0.0490 Uiso
C21 C 0.2796(4) 0.0922(4) 0.8440(3) 0.0413 Uani
C22 C 0.3992(4) 0.0887(4) 0.8246(3) 0.0457 Uani
H8 H 0.4561 0.0747 0.8817 0.0550 Uiso
C23 C 0.4286(4) 0.1071(4) 0.7158(3) 0.0429 Uani
C24 C 0.3410(4) 0.1364(4) 0.6285(3) 0.0433 Uani
H9 H 0.3606 0.1507 0.5563 0.0520 Uiso
C25 C 0.1155(4) 0.2634(4) 0.4722(3) 0.0452 Uani
H10 H 0.1638 0.3070 0.4551 0.0550 Uiso
C27 C 0.0509(4) 0.1299(4) 0.5574(4) 0.0498 Uani
H12 H 0.0427 0.0675 0.6104 0.0600 Uiso
H14 H 0.0603 0.1509 0.9659 0.0500 Uiso
C31 C 0.6548(4) 0.0232(4) 0.7625(3) 0.0431 Uani
C32 C 0.7123(4) 0.1120(4) 0.6184(3) 0.0418 Uani
H17 H 0.7618 0.1351 0.5685 0.0500 Uiso
C33 C 0.5884(4) 0.1525(4) 0.6057(4) 0.0498 Uani
H18 H 0.5354 0.2111 0.5448 0.0590 Uiso
C34 C 0.4272(4) 0.7480(4) 0.8533(3) 0.0421 Uani
C35 C 0.5334(4) 0.6969(4) 0.9281(3) 0.0381 Uani
C36 C 0.6526(4) 0.6790(4) 0.8903(3) 0.0448 Uani
C37 C 0.6632(4) 0.7134(4) 0.7765(3) 0.0392 Uani
H20 H 0.7423 0.6978 0.7505 0.0470 Uiso
C38 C 0.5541(4) 0.7707(4) 0.7044(3) 0.0393 Uani
C39 C 0.4352(4) 0.7904(4) 0.7434(3) 0.0402 Uani
H21 H 0.3620 0.8320 0.6953 0.0480 Uiso
C40 C 0.2036(4) 0.8000(4) 0.8223(3) 0.0441 Uani
H22 H 0.2059 0.8051 0.7475 0.0530 Uiso
C41 C 0.1387(4) 0.8046(4) 0.9830(4) 0.0479 Uani
C42 C 0.2664(4) 0.7706(4) 0.9942(3) 0.0416 Uani
C44 C 0.8591(4) 0.6579(4) 0.9591(4) 0.0499 Uani
H26 H 0.8714 0.7142 0.9023 0.0600 Uiso
C46 C 0.4837(4) 0.8186(4) 0.5107(3) 0.0403 Uani
H28 H 0.4130 0.8038 0.5211 0.0480 Uiso
C47 C 0.6538(4) 0.8336(4) 0.5453(3) 0.0453 Uani
H29 H 0.7224 0.8334 0.5802 0.0540 Uiso
C48 C 0.6243(4) 0.8625(4) 0.4333(3) 0.0426 Uani
H30 H 0.6703 0.8845 0.3790 0.0510 Uiso
Cu3 Cu 0.41290(4) 0.90296(4) 0.27391(4) 0.0396 Uani
N1 N 0.0206(3) 0.2771(3) 0.4067(3) 0.0427 Uani
N2 N 0.1314(3) 0.1779(3) 0.5665(3) 0.0437 Uani
N3 N 0.2584(3) 0.0622(3) 0.9596(3) 0.0439 Uani
N5 N 0.5496(3) 0.0977(3) 0.6922(3) 0.0456 Uani
N6 N 0.7545(3) 0.0294(3) 0.7191(3) 0.0436 Uani
N7 N 0.3048(3) 0.7672(3) 0.8893(3) 0.0440 Uani
N8 N 0.1018(3) 0.8239(3) 0.8734(3) 0.0386 Uani
N9 N 0.7586(3) 0.6259(3) 0.9659(3) 0.0440 Uani
N11 N 0.5620(3) 0.8054(3) 0.5945(3) 0.0410 Uani
N12 N 0.5148(3) 0.8527(3) 0.4172(3) 0.0429 Uani
O1 O 0.0306(3) 0.5006(3) 0.2949(2) 0.0441 Uani
O4 O 0.0033(2) 0.8877(2) 0.6576(2) 0.0374 Uani
O5 O 0.2896(3) 0.8538(3) 0.3516(2) 0.0421 Uani
O6 O 0.3135(2) 0.7191(3) 0.2494(2) 0.0404 Uani
O7 O 0.5314(3) 0.9610(3) 0.2005(2) 0.0446 Uani
O13 O 0.1642(3) 0.2940(3) 0.1876(2) 0.0523 Uani
H31 H 0.1731 0.3568 0.1313 0.0630 Uiso
H32 H 0.2096 0.2051 0.2245 0.0630 Uiso
O14 O 0.5519(3) 0.7112(3) 0.2169(2) 0.0473 Uani
H33 H 0.5223 0.6483 0.2406 0.0570 Uiso
H34 H 0.6371 0.6786 0.2491 0.0570 Uiso
N13 N 0.3024(3) 0.9844(3) 0.1344(3) 0.0455 Uani
C28 C 0.3502(4) 0.9914(4) 0.0408(4) 0.0458 Uani
H13 H 0.4370 0.9522 0.0314 0.0550 Uiso
loop_
_atom_site_aniso_label
_atom_site_aniso_U_11
_atom_site_aniso_U_22
_atom_site_aniso_U_33
_atom_site_aniso_U_23
_atom_site_aniso_U_13
_atom_site_aniso_U_12
C10 0.033 0.041 0.042 -0.0027 -0.0017 -0.0045
C11 0.035 0.04 0.044 0.0024 -0.0026 -0.0101
C12 0.045 0.044 0.033 0.0018 -0.011 -0.0167
C13 0.039 0.036 0.035 0.0016 -0.0114 -0.0137
C14 0.039 0.0297 0.041 -0.0012 0.0044 -0.0099
C15 0.035 0.04 0.04 -0.0094 0.0086 -0.0144
C16 0.041 0.042 0.036 -0.0082 0.0052 -0.0148
C17 0.043 0.041 0.04 -0.0036 -0.0017 -0.0174
O8 0.0349 0.0426 0.0463 0.0047 -0.0015 -0.0097
O9 0.0475 0.0414 0.0541 -0.014 0.0121 -0.0173
O10 0.0409 0.0411 0.0333 0.0027 -0.0061 -0.0184
Cu5 0.0386 0.0382 0.036 0.0058 -0.0087 -0.0128
C29 0.035 0.045 0.041 -0.0073 0.0036 -0.0157
C30 0.054 0.04 0.039 -0.0147 0.0098 -0.019
C43 0.044 0.038 0.027 0.0012 0.0012 -0.0143
C45 0.045 0.052 0.046 0.012 -0.019 -0.021
N10 0.045 0.0342 0.041 0.0092 -0.0058 -0.0107
O12 0.0384 0.0435 0.0335 -0.0089 0.0082 -0.0112
Cu7 0.036 0.0409 0.0369 -0.0107 0.0082 -0.0119
C2 0.035 0.039 0.037 -0.006 -0.0059 -0.0047
C7 0.037 0.047 0.033 -0.0028 0.0072 -0.0146
C8 0.039 0.046 0.035 -0.013 0.0096 -0.0169
C26 0.069 0.037 0.04 -0.0071 -0.011 -0.022
O2 0.0409 0.0465 0.0406 -0.0029 -0.0075 -0.0153
O3 0.0499 0.0425 0.0396 -0.0141 0.0125 -0.0175
C18 0.037 0.045 0.035 -0.0026 -0.008 -0.0153
O11 0.0456 0.0378 0.0401 -0.0034 0.0093 -0.0172
C1 0.035 0.038 0.033 0.0007 -0.0026 -0.0108
C3 0.037 0.042 0.023 -0.0007 -0.0079 -0.0088
C4 0.041 0.029 0.047 -0.0128 0.0124 -0.0058
C5 0.042 0.038 0.041 -0.0091 0.0069 -0.016
C6 0.053 0.0289 0.033 0.0041 0.0022 -0.0152
C9 0.034 0.043 0.035 -0.0057 -0.0005 -0.0147
C19 0.033 0.042 0.034 -0.0046 0.0031 -0.0129
C20 0.042 0.038 0.038 0.0015 0.0043 -0.0204
C21 0.036 0.041 0.04 -0.0119 -0.0005 -0.0108
C22 0.038 0.042 0.04 -0.0054 0.0087 -0.0062
C23 0.042 0.035 0.039 0.0071 -0.005 -0.0134
C24 0.033 0.047 0.036 -0.0103 -0.0005 -0.0063
C25 0.05 0.04 0.034 0.0074 -0.0139 -0.017
C27 0.044 0.047 0.049 0 0.006 -0.018
C31 0.033 0.046 0.037 -0.008 0.0097 -0.0082
C32 0.035 0.043 0.041 -0.0118 0.0146 -0.0123
C33 0.037 0.033 0.055 0.009 0.0141 -0.0044
C34 0.037 0.047 0.033 -0.0006 -0.0016 -0.0151
C35 0.034 0.039 0.037 -0.0103 0.0052 -0.0127
C36 0.039 0.053 0.036 0.0089 0.0016 -0.024
C37 0.033 0.044 0.039 -0.0094 -0.0016 -0.0162
C38 0.035 0.037 0.035 0.001 -0.0044 -0.0112
C39 0.034 0.043 0.042 -0.0103 0.0046 -0.0164
C40 0.036 0.047 0.041 -0.0156 0.0058 -0.01
C41 0.034 0.053 0.043 -0.004 -0.0011 -0.0113
C42 0.037 0.043 0.037 -0.0118 0.0012 -0.0106
C44 0.043 0.042 0.042 0.0153 -0.0079 -0.0107
C46 0.041 0.035 0.039 -0.0092 -0.006 -0.0118
C47 0.043 0.048 0.037 -0.0023 -0.0089 -0.0171
C48 0.036 0.045 0.039 -0.0071 -0.0035 -0.013
Cu3 0.0389 0.0414 0.0347 -0.0092 -0.0059 -0.0147
N1 0.045 0.0376 0.0344 0.0046 -0.0069 -0.0148
N2 0.041 0.0393 0.0402 0.0095 -0.0043 -0.0173
N3 0.0303 0.048 0.0397 0.0066 0.0033 -0.0138
N5 0.042 0.0439 0.0403 0.0085 -0.0022 -0.0184
N6 0.0347 0.0441 0.04 -0.0168 0.0045 -0.005
N7 0.04 0.0438 0.0393 -0.0113 0.0066 -0.0112
N8 0.039 0.0441 0.0349 -0.0086 0.0018 -0.0213
N9 0.0355 0.0311 0.048 0.0121 -0.006 -0.0094
N11 0.0391 0.0406 0.0367 -0.0108 0.0011 -0.0119
N12 0.0317 0.0437 0.0366 -0.0056 -0.0008 -0.0048
O1 0.0415 0.0389 0.0412 -0.0029 -0.0069 -0.0118
O4 0.0313 0.0418 0.0337 -0.0059 -0.004 -0.0131
O5 0.0388 0.051 0.033 -0.0163 0.0072 -0.0151
O6 0.0308 0.0422 0.0363 -0.0004 -0.0039 -0.0102
O7 0.0448 0.0494 0.0309 -0.0072 0.0086 -0.0156
O13 0.0472 0.0452 0.0518 -0.008 0.0073 -0.0122
O14 0.0495 0.0372 0.0477 -0.0095 0.0098 -0.0142
N13 0.049 0.0357 0.0354 -0.0095 -0.0009 -0.0049
C28 0.039 0.039 0.047 -0.0108 0.0037 -0.0072
loop_
_geom_bond_atom_site_label_1
_geom_bond_atom_site_label_2
_geom_bond_site_symmetry_1
_geom_bond_site_symmetry_2
C10 C11 1_555 1_555
C11 H4 1_555 1_555
C12 C11 1_555 1_555
C13 C12 1_555 1_555
H5 C13 1_555 1_555
C14 C13 1_555 1_555
C15 C10 1_555 1_555
H6 C15 1_555 1_555
C16 C10 1_555 1_555
C17 C12 1_555 1_555
O8 C16 1_555 1_555
O9 C17 1_555 1_555
O10 C17 1_555 1_555
Cu5 O10 1_555 1_555
C14 C15 1_555 1_555
C30 C29 1_555 1_555
H15 C30 1_555 1_555
C43 H25 1_555 1_555
N10 C43 1_555 1_555
Cu5 N10 1_555 1_555
C45 N10 1_555 1_555
O12 Cu7 1_555 1_555
C2 H1 1_555 1_555
C26 H11 1_555 1_555
O2 C7 1_555 1_555
O3 C8 1_555 1_555
Cu7 O3 1_555 1_555
O11 C18 1_555 1_555
C4 C3 1_555 1_555
H2 C4 1_555 1_555
C5 C4 1_555 1_555
C6 C1 1_555 1_555
H3 C6 1_555 1_555
C9 C5 1_555 1_555
C19 C20 1_555 1_555
C20 H7 1_555 1_555
C21 C20 1_555 1_555
C22 C21 1_555 1_555
H8 C22 1_555 1_555
C23 C22 1_555 1_555
C24 C19 1_555 1_555
H9 C24 1_555 1_555
C25 H10 1_555 1_555
H12 C27 1_555 1_555
C32 H17 1_555 1_555
C33 C32 1_555 1_555
H18 C33 1_555 1_555
C34 C35 1_555 1_555
C36 C35 1_555 1_555
C37 C36 1_555 1_555
H20 C37 1_555 1_555
C38 C37 1_555 1_555
C39 C34 1_555 1_555
H21 C39 1_555 1_555
C40 H22 1_555 1_555
C42 C41 1_555 1_555
C44 H26 1_555 1_555
C46 H28 1_555 1_555
C47 H29 1_555 1_555
C48 C47 1_555 1_555
H30 C48 1_555 1_555
Cu3 N12 1_555 1_555
N1 C25 1_555 1_555
N2 C19 1_555 1_555
N3 C21 1_555 1_555
N5 C23 1_555 1_555
N6 C31 1_555 1_555
N7 C34 1_555 1_555
N8 C40 1_555 1_555
N9 C36 1_555 1_555
N11 C38 1_555 1_555
N12 C46 1_555 1_555
O5 C9 1_555 1_555
O6 C9 1_555 1_555
H31 O13 1_555 1_555
H32 O13 1_555 1_555
O14 Cu3 1_555 1_555
H33 O14 1_555 1_555
H34 O14 1_555 1_555
N13 Cu3 1_555 1_555
C5 C6 1_555 1_555
C23 C24 1_555 1_555
C25 N2 1_555 1_555
C27 N2 1_555 1_555
C31 N5 1_555 1_555
C32 N6 1_555 1_555
C33 N5 1_555 1_555
C38 C39 1_555 1_555
C40 N7 1_555 1_555
C41 N8 1_555 1_555
C42 N7 1_555 1_555
C44 N9 1_555 1_555
C46 N11 1_555 1_555
C47 N11 1_555 1_555
C48 N12 1_555 1_555
Cu3 O5 1_555 1_555
Cu3 O7 1_555 1_555
C28 H13 1_555 1_555
N13 C28 1_555 1_555

#END
