
###############################################################################
#
# This file contains modified crystal structure data generated from the
# MOF subset of the Cambridge Structural Database (CSD) v543 
# hosted by the Cambridge Crystallographic Data Centre (CCDC).
#
# This work is licensed under the Creative Commons
# Attribution-NonCommercial-ShareAlike 4.0 International License.
# To view a copy of this license, visit
# http://creativecommons.org/licenses/by-nc-sa/4.0/
# or send a letter to
# Creative Commons, PO Box 1866, Mountain View, CA 94042, USA.
#
# CIF created using the CSD Python API on 29 September 2022
# The structure has been converted into the P1 space group
# The structure has a 3D framework
# The original CSD entry ESEXIM is in the monoclinic crystal system
# The original CSD entry ESEXIM is in a Sohncke space group
# The framework has been calculated to contain at least 10.0% void space
# The void calculation uses a probe of radius 1.32A, grid spacing 0.4
#
###############################################################################

data_ESEXIM
_chemical_formula_moiety         '(C104 H80 O37)n'
_symmetry_cell_setting           triclinic
_symmetry_space_group_name_H-M   'P 1'
_symmetry_Int_Tables_number      1
_space_group_name_Hall           'P 1'
loop_
_symmetry_equiv_pos_site_id
_symmetry_equiv_pos_as_xyz
1 x,y,z
_cell_length_a                   32.935(3)
_cell_length_b                   7.3706(6)
_cell_length_c                   14.5046(12)
_cell_angle_alpha                90
_cell_angle_beta                 104.386(5)
_cell_angle_gamma                90
_cell_volume                     3410.6
loop_
_atom_site_label
_atom_site_type_symbol
_atom_site_fract_x
_atom_site_fract_y
_atom_site_fract_z
O1 O 0.71995(13) 0.0454(6) 0.1699(3)
O18 O 0.28005(13) 0.0454(6) 0.8301(3)
Ce3 Ce 0.25087(2) 0.13852(6) 0.96474(2)
Ce4 Ce 0.74913(2) 0.13852(6) 0.03526(2)
Ce10 Ce 0.24913(2) 0.63852(6) 0.03526(2)
O23 O 0.76660(10) 0.4566(5) 0.1141(2)
O31 O 0.80413(11) 0.2251(5) 0.1821(3)
C1 C 0.33428(14) 0.3002(7) 0.0549(3)
C2 C 0.37666(14) 0.3574(7) 0.1108(3)
C3 C 0.40760(16) 0.2266(8) 0.1385(4)
H1 H 0.401747 0.106913 0.119518
C4 C 0.6635(2) 0.8680(10) 0.2528(4)
H2 H 0.669154 0.990019 0.266718
C5 C 0.6376(2) 0.7749(10) 0.2979(5)
H3 H 0.626305 0.833778 0.342461
C6 C 0.38643(15) 0.5363(7) 0.1386(4)
H4 H 0.366241 0.626147 0.119887
O3 O 0.60782(11) 0.3608(5) 0.5444(2)
O4 O 0.32892(9) 0.1436(10) 0.0239(3)
C7 C 0.45581(14) 0.4492(8) 0.2206(4)
O5 O 0.30338(10) 0.4093(4) 0.0416(2)
C8 C 0.67910(18) 0.0135(8) 0.7455(4)
C9 C 0.44672(15) 0.2706(8) 0.1933(4)
H5 H 0.466980 0.180982 0.212024
C10 C 0.42540(16) 0.5820(7) 0.1933(4)
H6 H 0.431392 0.701761 0.211884
O6 O 0.60250(12) 0.4920(6) 0.3161(3)
O7 O 0.49353(10) 0.5053(5) 0.2782(3)
C11 C 0.67257(19) 0.5994(9) 0.1682(4)
H7 H 0.684395 0.539144 0.124928
O8 O 0.71939(11) 0.8221(4) 0.0684(2)
C12 C 0.6469(2) 0.5084(9) 0.2128(5)
H8 H 0.641564 0.385834 0.199999
C14 C 0.62843(18) 0.5950(9) 0.2770(4)
C15 C 0.70835(16) 0.8888(7) 0.1401(3)
C16 C 0.55260(13) 0.4516(7) 0.4109(3)
C17 C 0.58219(14) 0.5834(7) 0.3794(3)
H10 H 0.566528 0.686605 0.347456
H11 H 0.602969 0.627529 0.434537
C18 C 0.52992(15) 0.5649(7) 0.4709(4)
H12 H 0.550052 0.611833 0.526302
H13 H 0.516169 0.667172 0.433787
C19 C 0.6303(2) 0.2392(12) 0.6084(5)
C20 C 0.66349(19) 0.3100(9) 0.6759(5)
H14 H 0.669605 0.433143 0.675699
C21 C 0.6212(2) 0.0538(12) 0.6075(6)
H15 H 0.599349 0.004520 0.560887
C22 C 0.57541(15) 0.2931(8) 0.4672(3)
H16 H 0.555906 0.220171 0.491703
H17 H 0.587492 0.217073 0.426317
C23 C 0.68118(17) 0.7830(8) 0.1875(4)
C25 C 0.52082(15) 0.3657(7) 0.3277(3)
H18 H 0.535235 0.307587 0.284875
H19 H 0.504633 0.274327 0.350940
C26 C 0.6877(2) 0.1969(8) 0.7439(5)
H20 H 0.710179 0.245093 0.789382
O10 O 0.500000 0.4582(8) 0.500000
C27 C 0.66572(14) 0.3002(7) 0.9451(3)
C28 C 0.62334(14) 0.3574(7) 0.8892(3)
C29 C 0.59240(16) 0.2266(8) 0.8615(4)
H21 H 0.598253 0.106913 0.880482
C30 C 0.3365(2) 0.8680(10) 0.7472(4)
H22 H 0.330846 0.990019 0.733282
C31 C 0.3624(2) 0.7749(10) 0.7021(5)
H23 H 0.373695 0.833778 0.657539
C32 C 0.61357(15) 0.5363(7) 0.8614(4)
H24 H 0.633759 0.626147 0.880113
O12 O 0.39218(11) 0.3608(5) 0.4556(2)
O13 O 0.67108(9) 0.1436(10) 0.9761(3)
C33 C 0.54419(14) 0.4492(8) 0.7794(4)
O14 O 0.69662(10) 0.4093(4) 0.9584(2)
C34 C 0.32090(18) 0.0135(8) 0.2545(4)
C35 C 0.55328(15) 0.2706(8) 0.8067(4)
H25 H 0.533020 0.180982 0.787976
C36 C 0.57460(16) 0.5820(7) 0.8067(4)
H26 H 0.568608 0.701761 0.788116
O15 O 0.39750(12) 0.4920(6) 0.6839(3)
O16 O 0.50647(10) 0.5053(5) 0.7218(3)
C37 C 0.32743(19) 0.5994(9) 0.8318(4)
H27 H 0.315605 0.539144 0.875072
C38 C 0.3531(2) 0.5084(9) 0.7872(5)
H28 H 0.358436 0.385834 0.800001
C40 C 0.37157(18) 0.5950(9) 0.7230(4)
C41 C 0.44740(13) 0.4516(7) 0.5891(3)
C42 C 0.41781(14) 0.5834(7) 0.6206(3)
H30 H 0.433472 0.686605 0.652544
H31 H 0.397031 0.627529 0.565463
C43 C 0.47008(15) 0.5649(7) 0.5291(4)
H32 H 0.449948 0.611833 0.473698
H33 H 0.483831 0.667172 0.566213
C44 C 0.3697(2) 0.2392(12) 0.3916(5)
C45 C 0.33651(19) 0.3100(9) 0.3241(5)
H34 H 0.330395 0.433143 0.324301
C46 C 0.3788(2) 0.0538(12) 0.3925(6)
H35 H 0.400651 0.004520 0.439113
C47 C 0.42459(15) 0.2931(8) 0.5328(3)
H36 H 0.444094 0.220171 0.508297
H37 H 0.412508 0.217073 0.573683
C48 C 0.31882(17) 0.7830(8) 0.8125(4)
C50 C 0.47918(15) 0.3657(7) 0.6723(3)
H38 H 0.464765 0.307587 0.715125
H39 H 0.495367 0.274327 0.649060
C51 C 0.3123(2) 0.1969(8) 0.2561(5)
H40 H 0.289821 0.245093 0.210618
O19 O 0.28061(11) 0.8221(4) 0.9316(2)
C52 C 0.29165(16) 0.8888(7) 0.8599(3)
Ce7 Ce 0.75087(2) 0.63852(6) 0.96474(2)
O28 O 0.21939(11) 0.3221(4) 0.0684(2)
O29 O 0.78061(11) 0.3221(4) 0.9316(2)
O22 O 0.23340(10) 0.4566(5) 0.8859(2)
O30 O 0.19587(11) 0.2251(5) 0.8179(3)
O24 O 0.80338(10) 0.9093(4) 0.0416(2)
O2 O 0.73340(10) 0.9566(5) 0.8859(2)
C13 C 0.6456(2) 0.9457(9) 0.6778(5)
H9 H 0.639231 0.823000 0.679291
O9 O 0.69587(11) 0.7251(5) 0.8179(3)
C24 C 0.70368(15) 0.8915(7) 0.8202(3)
O11 O 0.26660(10) 0.9566(5) 0.1141(2)
C39 C 0.3544(2) 0.9457(9) 0.3222(5)
H29 H 0.360769 0.823000 0.320709
O17 O 0.30413(11) 0.7251(5) 0.1821(3)
C49 C 0.29632(15) 0.8915(7) 0.1798(3)
O25 O 0.19662(10) 0.9093(4) 0.9584(2)
O1_2 O 0.21995(13) 0.5454(6) 0.1699(3)
C4_2 C 0.1635(2) 0.3680(10) 0.2528(4)
H2_2 H 0.169154 0.490019 0.266718
C5_2 C 0.1376(2) 0.2749(10) 0.2979(5)
H3_2 H 0.126305 0.333778 0.342461
C11_2 C 0.17257(19) 0.0994(9) 0.1682(4)
H7_2 H 0.184395 0.039144 0.124928
C12_2 C 0.1469(2) 0.0084(9) 0.2128(5)
C14_2 C 0.12843(18) 0.0950(9) 0.2770(4)
C15_2 C 0.20835(16) 0.3888(7) 0.1401(3)
C17_2 C 0.08219(14) 0.0834(7) 0.3794(3)
H10_2 H 0.066528 0.186605 0.347456
H11_2 H 0.102969 0.127529 0.434537
C18_2 C 0.02992(15) 0.0649(7) 0.4709(4)
H12_2 H 0.050052 0.111833 0.526302
H13_2 H 0.016169 0.167172 0.433787
C23_2 C 0.18118(17) 0.2830(8) 0.1875(4)
C32_2 C 0.11357(15) 0.0363(7) 0.8614(4)
H24_2 H 0.133759 0.126147 0.880113
C36_2 C 0.07460(16) 0.0820(7) 0.8067(4)
H26_2 H 0.068608 0.201761 0.788116
O16_2 O 0.00647(10) 0.0053(5) 0.7218(3)
O3_2 O 0.10782(11) 0.8608(5) 0.5444(2)
C8_2 C 0.17910(18) 0.5135(8) 0.7455(4)
O6_2 O 0.10250(12) 0.9920(6) 0.3161(3)
H8_2 H 0.141564 0.885834 0.199999
C13_2 C 0.1456(2) 0.4457(9) 0.6778(5)
H9_2 H 0.139231 0.323000 0.679291
C16_2 C 0.05260(13) 0.9516(7) 0.4109(3)
C19_2 C 0.1303(2) 0.7392(12) 0.6084(5)
C20_2 C 0.16349(19) 0.8100(9) 0.6759(5)
H14_2 H 0.169605 0.933143 0.675699
C21_2 C 0.1212(2) 0.5538(12) 0.6075(6)
H15_2 H 0.099349 0.504520 0.560887
C22_2 C 0.07541(15) 0.7931(8) 0.4672(3)
H16_2 H 0.055906 0.720171 0.491703
H17_2 H 0.087492 0.717073 0.426317
C24_2 C 0.20368(15) 0.3915(7) 0.8202(3)
C25_2 C 0.02082(15) 0.8657(7) 0.3277(3)
H18_2 H 0.035235 0.807587 0.284875
H19_2 H 0.004633 0.774327 0.350940
C26_2 C 0.1877(2) 0.6969(8) 0.7439(5)
H20_2 H 0.210179 0.745093 0.789382
O10_2 O 0.000000 0.9582(8) 0.500000
C27_2 C 0.16572(14) 0.8002(7) 0.9451(3)
C28_2 C 0.12334(14) 0.8574(7) 0.8892(3)
C29_2 C 0.09240(16) 0.7266(8) 0.8615(4)
H21_2 H 0.098253 0.606913 0.880482
O13_2 O 0.17108(9) 0.6436(10) 0.9761(3)
C33_2 C 0.04419(14) 0.9492(8) 0.7794(4)
C35_2 C 0.05328(15) 0.7706(8) 0.8067(4)
H25_2 H 0.033020 0.680982 0.787976
C6_2 C 0.88643(15) 0.0363(7) 0.1386(4)
H4_2 H 0.866241 0.126147 0.119887
C10_2 C 0.92540(16) 0.0820(7) 0.1933(4)
H6_2 H 0.931392 0.201761 0.211884
O7_2 O 0.99353(10) 0.0053(5) 0.2782(3)
C30_2 C 0.8365(2) 0.3680(10) 0.7472(4)
H22_2 H 0.830846 0.490019 0.733282
C31_2 C 0.8624(2) 0.2749(10) 0.7021(5)
H23_2 H 0.873695 0.333778 0.657539
C37_2 C 0.82743(19) 0.0994(9) 0.8318(4)
H27_2 H 0.815605 0.039144 0.875072
C38_2 C 0.8531(2) 0.0084(9) 0.7872(5)
C40_2 C 0.87157(18) 0.0950(9) 0.7230(4)
C42_2 C 0.91781(14) 0.0834(7) 0.6206(3)
H30_2 H 0.933472 0.186605 0.652544
H31_2 H 0.897031 0.127529 0.565463
C43_2 C 0.97008(15) 0.0649(7) 0.5291(4)
H32_2 H 0.949948 0.111833 0.473698
H33_2 H 0.983831 0.167172 0.566213
C48_2 C 0.81882(17) 0.2830(8) 0.8125(4)
O18_2 O 0.78005(13) 0.5454(6) 0.8301(3)
C52_2 C 0.79165(16) 0.3888(7) 0.8599(3)
C1_2 C 0.83428(14) 0.8002(7) 0.0549(3)
C2_2 C 0.87666(14) 0.8574(7) 0.1108(3)
C3_2 C 0.90760(16) 0.7266(8) 0.1385(4)
H1_2 H 0.901747 0.606913 0.119518
O4_2 O 0.82892(9) 0.6436(10) 0.0239(3)
C7_2 C 0.95581(14) 0.9492(8) 0.2206(4)
C9_2 C 0.94672(15) 0.7706(8) 0.1933(4)
H5_2 H 0.966980 0.680982 0.212024
O10_3 O 1.000000 0.9582(8) 0.500000
O12_2 O 0.89218(11) 0.8608(5) 0.4556(2)
C34_2 C 0.82090(18) 0.5135(8) 0.2545(4)
O15_2 O 0.89750(12) 0.9920(6) 0.6839(3)
H28_2 H 0.858436 0.885834 0.800001
C39_2 C 0.8544(2) 0.4457(9) 0.3222(5)
H29_2 H 0.860769 0.323000 0.320709
C41_2 C 0.94740(13) 0.9516(7) 0.5891(3)
C44_2 C 0.8697(2) 0.7392(12) 0.3916(5)
C45_2 C 0.83651(19) 0.8100(9) 0.3241(5)
H34_2 H 0.830395 0.933143 0.324301
C46_2 C 0.8788(2) 0.5538(12) 0.3925(6)
H35_2 H 0.900651 0.504520 0.439113
C47_2 C 0.92459(15) 0.7931(8) 0.5328(3)
H36_2 H 0.944094 0.720171 0.508297
H37_2 H 0.912508 0.717073 0.573683
C49_2 C 0.79632(15) 0.3915(7) 0.1798(3)
C50_2 C 0.97918(15) 0.8657(7) 0.6723(3)
H38_2 H 0.964765 0.807587 0.715125
H39_2 H 0.995367 0.774327 0.649060
C51_2 C 0.8123(2) 0.6969(8) 0.2561(5)
H40_2 H 0.789821 0.745093 0.210618
loop_
_geom_bond_atom_site_label_1
_geom_bond_atom_site_label_2
_geom_bond_site_symmetry_1
_geom_bond_site_symmetry_2
Ce3 O18 1_555 1_555
Ce4 O1 1_555 1_555
O23 Ce4 1_555 1_555
O31 Ce4 1_555 1_555
C1 C2 1_555 1_555
C2 C3 1_555 1_555
C3 H1 1_555 1_555
C4 H2 1_555 1_555
C5 C4 1_555 1_555
H3 C5 1_555 1_555
C6 C2 1_555 1_555
H4 C6 1_555 1_555
O3 C19 1_555 1_555
O4 C1 1_555 1_555
C7 C9 1_555 1_555
C9 C3 1_555 1_555
H5 C9 1_555 1_555
C10 C6 1_555 1_555
H6 C10 1_555 1_555
O6 C14 1_555 1_555
O7 C7 1_555 1_555
C11 H7 1_555 1_555
O8 C15 1_555 1_555
C12 C11 1_555 1_555
H8 C12 1_555 1_555
C14 C5 1_555 1_555
C15 C23 1_555 1_555
C16 C17 1_555 1_555
C17 O6 1_555 1_555
H10 C17 1_555 1_555
H11 C17 1_555 1_555
C18 C16 1_555 1_555
H12 C18 1_555 1_555
H13 C18 1_555 1_555
C19 C20 1_555 1_555
C20 H14 1_555 1_555
H15 C21 1_555 1_555
C22 O3 1_555 1_555
H16 C22 1_555 1_555
H17 C22 1_555 1_555
C23 C4 1_555 1_555
C25 O7 1_555 1_555
H18 C25 1_555 1_555
H19 C25 1_555 1_555
C26 C8 1_555 1_555
H20 C26 1_555 1_555
O10 C18 1_555 1_555
C27 C28 1_555 1_555
C28 C29 1_555 1_555
C29 H21 1_555 1_555
C30 H22 1_555 1_555
C31 C30 1_555 1_555
H23 C31 1_555 1_555
C32 C28 1_555 1_555
H24 C32 1_555 1_555
O12 C44 1_555 1_555
O13 C27 1_555 1_555
C33 C35 1_555 1_555
O14 C27 1_555 1_555
C35 C29 1_555 1_555
H25 C35 1_555 1_555
C36 C32 1_555 1_555
H26 C36 1_555 1_555
O15 C40 1_555 1_555
O16 C33 1_555 1_555
C37 H27 1_555 1_555
C38 C37 1_555 1_555
H28 C38 1_555 1_555
C40 C31 1_555 1_555
C41 C42 1_555 1_555
C42 O15 1_555 1_555
H30 C42 1_555 1_555
H31 C42 1_555 1_555
C43 O10 1_555 1_555
H32 C43 1_555 1_555
H33 C43 1_555 1_555
C44 C45 1_555 1_555
C45 H34 1_555 1_555
H35 C46 1_555 1_555
C47 O12 1_555 1_555
H36 C47 1_555 1_555
H37 C47 1_555 1_555
C48 C30 1_555 1_555
C50 O16 1_555 1_555
H38 C50 1_555 1_555
H39 C50 1_555 1_555
C51 C34 1_555 1_555
H40 C51 1_555 1_555
O19 C52 1_555 1_555
C52 C48 1_555 1_555
Ce7 O14 1_555 1_555
Ce10 O5 1_555 1_555
C1 O5 1_555 1_555
C7 C10 1_555 1_555
C11 C23 1_555 1_555
C12 C14 1_555 1_555
C16 C22 1_555 1_555
C16 C25 1_555 1_555
C19 C21 1_555 1_555
C20 C26 1_555 1_555
C33 C36 1_555 1_555
C37 C48 1_555 1_555
C38 C40 1_555 1_555
C41 C43 1_555 1_555
C41 C47 1_555 1_555
C41 C50 1_555 1_555
C44 C46 1_555 1_555
C45 C51 1_555 1_555
Ce7 O29 1_555 1_555
Ce10 O28 1_555 1_555
O22 Ce3 1_555 1_555
O30 Ce3 1_555 1_555
O2 C24 1_555 1_555
C13 H9 1_555 1_555
O9 C24 1_555 1_555
C39 H29 1_555 1_555
O17 C49 1_555 1_555
C49 O11 1_555 1_555
Ce7 O2 1_555 1_555
Ce10 O11 1_555 1_555
O9 Ce7 1_555 1_555
O17 Ce10 1_555 1_555
O1_2 C15_2 1_555 1_555
C4_2 H2_2 1_555 1_555
C5_2 C4_2 1_555 1_555
H3_2 C5_2 1_555 1_555
C11_2 H7_2 1_555 1_555
O28 C15_2 1_555 1_555
C12_2 C11_2 1_555 1_555
C14_2 C5_2 1_555 1_555
C15_2 C23_2 1_555 1_555
H10_2 C17_2 1_555 1_555
H11_2 C17_2 1_555 1_555
H12_2 C18_2 1_555 1_555
H13_2 C18_2 1_555 1_555
C23_2 C4_2 1_555 1_555
H24_2 C32_2 1_555 1_555
C36_2 C32_2 1_555 1_555
H26_2 C36_2 1_555 1_555
Ce10 O1_2 1_555 1_555
C11_2 C23_2 1_555 1_555
C12_2 C14_2 1_555 1_555
O22 C24_2 1_555 1_555
O3_2 C19_2 1_555 1_555
C8_2 C13_2 1_555 1_555
C13_2 H9_2 1_555 1_555
C19_2 C20_2 1_555 1_555
C20_2 H14_2 1_555 1_555
C21_2 C13_2 1_555 1_555
H15_2 C21_2 1_555 1_555
C22_2 O3_2 1_555 1_555
H16_2 C22_2 1_555 1_555
H17_2 C22_2 1_555 1_555
O30 C24_2 1_555 1_555
C24_2 C8_2 1_555 1_555
H18_2 C25_2 1_555 1_555
H19_2 C25_2 1_555 1_555
C26_2 C8_2 1_555 1_555
H20_2 C26_2 1_555 1_555
C27_2 C28_2 1_555 1_555
C28_2 C29_2 1_555 1_555
C29_2 H21_2 1_555 1_555
O13_2 C27_2 1_555 1_555
C33_2 C35_2 1_555 1_555
O25 C27_2 1_555 1_555
C35_2 C29_2 1_555 1_555
H25_2 C35_2 1_555 1_555
C16_2 C22_2 1_555 1_555
C16_2 C25_2 1_555 1_555
C19_2 C21_2 1_555 1_555
C20_2 C26_2 1_555 1_555
H4_2 C6_2 1_555 1_555
C10_2 C6_2 1_555 1_555
H6_2 C10_2 1_555 1_555
C30_2 H22_2 1_555 1_555
C31_2 C30_2 1_555 1_555
H23_2 C31_2 1_555 1_555
C37_2 H27_2 1_555 1_555
C38_2 C37_2 1_555 1_555
C40_2 C31_2 1_555 1_555
H30_2 C42_2 1_555 1_555
H31_2 C42_2 1_555 1_555
H32_2 C43_2 1_555 1_555
H33_2 C43_2 1_555 1_555
C48_2 C30_2 1_555 1_555
O18_2 C52_2 1_555 1_555
O29 C52_2 1_555 1_555
C52_2 C48_2 1_555 1_555
Ce7 O18_2 1_555 1_555
C37_2 C48_2 1_555 1_555
C38_2 C40_2 1_555 1_555
C1_2 C2_2 1_555 1_555
C2_2 C3_2 1_555 1_555
C3_2 H1_2 1_555 1_555
O4_2 C1_2 1_555 1_555
C7_2 C9_2 1_555 1_555
C9_2 C3_2 1_555 1_555
H5_2 C9_2 1_555 1_555
O12_2 C44_2 1_555 1_555
C34_2 C39_2 1_555 1_555
C39_2 H29_2 1_555 1_555
C44_2 C45_2 1_555 1_555
C45_2 H34_2 1_555 1_555
C46_2 C39_2 1_555 1_555
H35_2 C46_2 1_555 1_555
C47_2 O12_2 1_555 1_555
H36_2 C47_2 1_555 1_555
H37_2 C47_2 1_555 1_555
O31 C49_2 1_555 1_555
C49_2 O23 1_555 1_555
H38_2 C50_2 1_555 1_555
H39_2 C50_2 1_555 1_555
C51_2 C34_2 1_555 1_555
H40_2 C51_2 1_555 1_555
C1_2 O24 1_555 1_555
C34_2 C49_2 1_555 1_555
C41_2 C47_2 1_555 1_555
C41_2 C50_2 1_555 1_555
C44_2 C46_2 1_555 1_555
C45_2 C51_2 1_555 1_555

#END
