
###############################################################################
#
# This file contains modified crystal structure data generated from the
# MOF subset of the Cambridge Structural Database (CSD) v543 
# hosted by the Cambridge Crystallographic Data Centre (CCDC).
#
# This work is licensed under the Creative Commons
# Attribution-NonCommercial-ShareAlike 4.0 International License.
# To view a copy of this license, visit
# http://creativecommons.org/licenses/by-nc-sa/4.0/
# or send a letter to
# Creative Commons, PO Box 1866, Mountain View, CA 94042, USA.
#
# CIF created using the CSD Python API on 29 September 2022
# The structure has been converted into the P1 space group
# The structure has a 3D framework
# The original CSD entry ESEXOS is in the monoclinic crystal system
# The original CSD entry ESEXOS is in a Sohncke space group
# The framework has been calculated to contain at least 10.0% void space
# The void calculation uses a probe of radius 1.32A, grid spacing 0.4
#
###############################################################################

data_ESEXOS
_chemical_formula_moiety         '(C104 H80 O37 Pr1)n'
_symmetry_cell_setting           triclinic
_symmetry_space_group_name_H-M   'P 1'
_symmetry_Int_Tables_number      1
_space_group_name_Hall           'P 1'
loop_
_symmetry_equiv_pos_site_id
_symmetry_equiv_pos_as_xyz
1 x,y,z
_cell_length_a                   33.463(10)
_cell_length_b                   7.317(2)
_cell_length_c                   14.139(4)
_cell_angle_alpha                90
_cell_angle_beta                 104.66(2)
_cell_angle_gamma                90
_cell_volume                     3349.21
loop_
_atom_site_label
_atom_site_type_symbol
_atom_site_fract_x
_atom_site_fract_y
_atom_site_fract_z
O10 O 0.6975(3) 0.2271(16) 0.8145(7)
C24 C 0.7047(5) 0.061(3) 0.8162(10)
C26 C 0.6461(5) 0.006(3) 0.6732(12)
H20 H 0.640197 0.129812 0.673505
O19 O 0.3025(3) 0.2271(16) 0.1855(7)
C50 C 0.2953(5) 0.061(3) 0.1838(10)
C52 C 0.3539(5) 0.006(3) 0.3268(12)
H40 H 0.359803 0.129812 0.326495
Pr4 Pr 0.24903(2) 0.31019(19) 0.03500(5)
Pr6 Pr 0.75097(2) 0.31019(19) 0.96500(5)
Pr8 Pr 0.74903(2) 0.81019(19) 0.03500(5)
C1 C 0.3327(4) 0.651(3) 0.0572(12)
O1 O 0.3024(3) 0.5399(16) 0.0435(7)
O2 O 0.3271(2) 0.805(3) 0.0264(7)
C2 C 0.3751(4) 0.589(3) 0.1100(12)
C3 C 0.3841(5) 0.408(3) 0.1396(12)
H1 H 0.363628 0.319296 0.123109
O3 O 0.4909(3) 0.4345(18) 0.2762(8)
C4 C 0.4230(4) 0.360(3) 0.1929(11)
H2 H 0.429000 0.239055 0.211418
O4 O 0.6001(4) 0.4454(19) 0.3120(9)
C5 C 0.4538(5) 0.496(3) 0.2192(12)
O5 O 0.7206(3) 0.1253(16) 0.0702(8)
C6 C 0.4450(5) 0.672(3) 0.1919(12)
H3 H 0.465168 0.762001 0.209960
C7 C 0.4050(4) 0.719(3) 0.1359(12)
H4 H 0.399021 0.839188 0.116558
O7 O 0.500000 0.484(3) 0.500000
C8 C 0.5189(5) 0.578(3) 0.3231(12)
H5 H 0.503680 0.672951 0.346966
H6 H 0.532215 0.632534 0.276458
O8 O 0.6071(3) 0.5814(18) 0.5398(8)
C9 C 0.5514(5) 0.494(3) 0.4084(11)
O9 O 0.7349(3) 0.9926(16) 0.8822(7)
C10 C 0.5797(5) 0.357(2) 0.3752(11)
H7 H 0.599853 0.309072 0.431601
H8 H 0.563513 0.255533 0.341482
C11 C 0.6454(6) 0.435(3) 0.2093(13)
H9 H 0.639798 0.558454 0.196047
C12 C 0.6267(5) 0.345(3) 0.2738(12)
C13 C 0.6805(5) 0.163(3) 0.1868(13)
C14 C 0.6713(5) 0.348(3) 0.1661(12)
H10 H 0.683089 0.410168 0.122579
C15 C 0.6626(5) 0.073(3) 0.2520(12)
C16 C 0.6339(5) 0.166(3) 0.2919(13)
H12 H 0.619961 0.103802 0.331099
C17 C 0.7088(5) 0.056(3) 0.1407(12)
C18 C 0.5302(5) 0.377(2) 0.4698(12)
H13 H 0.517077 0.272881 0.431806
H14 H 0.550465 0.331358 0.526650
C19 C 0.5741(5) 0.650(3) 0.4640(11)
H15 H 0.584970 0.728079 0.420766
H16 H 0.555655 0.722750 0.491866
C20 C 0.6301(5) 0.709(3) 0.5999(15)
C21 C 0.6644(5) 0.634(3) 0.6718(12)
H17 H 0.670712 0.510341 0.672249
C22 C 0.6878(5) 0.752(2) 0.7403(12)
H18 H 0.709619 0.705132 0.788416
C23 C 0.6797(5) 0.937(3) 0.7397(12)
C25 C 0.6212(6) 0.894(3) 0.6067(14)
H19 H 0.597592 0.942842 0.564622
C27 C 0.6673(4) 0.651(3) 0.9428(12)
O11 O 0.6976(3) 0.5399(16) 0.9565(7)
O12 O 0.6729(2) 0.805(3) 0.9736(7)
C28 C 0.6249(4) 0.589(3) 0.8900(12)
C29 C 0.6159(5) 0.408(3) 0.8604(12)
H21 H 0.636372 0.319296 0.876891
O13 O 0.5091(3) 0.4345(18) 0.7238(8)
C30 C 0.5770(4) 0.360(3) 0.8071(11)
H22 H 0.571000 0.239055 0.788582
O14 O 0.3999(4) 0.4454(19) 0.6880(9)
C31 C 0.5462(5) 0.496(3) 0.7808(12)
O15 O 0.2794(3) 0.1253(16) 0.9298(8)
C32 C 0.5550(5) 0.672(3) 0.8081(12)
H23 H 0.534832 0.762001 0.790040
C33 C 0.5950(4) 0.719(3) 0.8641(12)
H24 H 0.600979 0.839188 0.883442
C34 C 0.4811(5) 0.578(3) 0.6769(12)
H25 H 0.496320 0.672951 0.653034
H26 H 0.467785 0.632534 0.723542
O17 O 0.3929(3) 0.5814(18) 0.4602(8)
C35 C 0.4486(5) 0.494(3) 0.5916(11)
O18 O 0.2651(3) 0.9926(16) 0.1178(7)
C36 C 0.4203(5) 0.357(2) 0.6248(11)
H27 H 0.400147 0.309072 0.568399
H28 H 0.436487 0.255533 0.658518
C37 C 0.3546(6) 0.435(3) 0.7907(13)
H29 H 0.360202 0.558454 0.803953
C38 C 0.3733(5) 0.345(3) 0.7262(12)
C39 C 0.3195(5) 0.163(3) 0.8132(13)
C40 C 0.3287(5) 0.348(3) 0.8339(12)
H30 H 0.316911 0.410168 0.877421
C41 C 0.3374(5) 0.073(3) 0.7480(12)
C42 C 0.3661(5) 0.166(3) 0.7081(13)
H32 H 0.380039 0.103802 0.668901
C43 C 0.2912(5) 0.056(3) 0.8593(12)
C44 C 0.4698(5) 0.377(2) 0.5302(12)
H33 H 0.482923 0.272881 0.568194
H34 H 0.449535 0.331358 0.473350
C45 C 0.4259(5) 0.650(3) 0.5360(11)
H35 H 0.415030 0.728079 0.579234
H36 H 0.444345 0.722750 0.508134
C46 C 0.3699(5) 0.709(3) 0.4001(15)
C47 C 0.3356(5) 0.634(3) 0.3282(12)
H37 H 0.329288 0.510341 0.327751
C48 C 0.3122(5) 0.752(2) 0.2597(12)
H38 H 0.290381 0.705132 0.211584
C49 C 0.3203(5) 0.937(3) 0.2603(12)
C51 C 0.3788(6) 0.894(3) 0.3933(14)
H39 H 0.402408 0.942842 0.435378
O21 O 0.8024(3) 0.0399(16) 0.0435(7)
O23 O 0.8271(2) 0.305(3) 0.0264(7)
O26 O 0.2206(3) 0.6253(16) 0.0702(8)
O28 O 0.2201(4) 0.3997(17) 0.1714(8)
O33 O 0.7651(3) 0.4926(16) 0.1178(7)
Pr10 Pr 0.25097(2) 0.81019(19) 0.96500(5)
O22 O 0.1976(3) 0.0399(16) 0.9565(7)
O24 O 0.1729(2) 0.305(3) 0.9736(7)
O27 O 0.7794(3) 0.6253(16) 0.9298(8)
O29 O 0.7799(4) 0.3997(17) 0.8286(8)
O32 O 0.2349(3) 0.4926(16) 0.8822(7)
O6 O 0.7201(4) 0.8997(17) 0.1714(8)
H11 H 0.669392 0.952039 0.269138
O16 O 0.2799(4) 0.8997(17) 0.8286(8)
H31 H 0.330608 0.952039 0.730862
C8_2 C 0.0189(5) 0.078(3) 0.3231(12)
H5_2 H 0.003680 0.172951 0.346966
H6_2 H 0.032215 0.132534 0.276458
O8_2 O 0.1071(3) 0.0814(18) 0.5398(8)
O10_2 O 0.1975(3) 0.7271(16) 0.8145(7)
H9_2 H 0.139798 0.058454 0.196047
C19_2 C 0.0741(5) 0.150(3) 0.4640(11)
H15_2 H 0.084970 0.228079 0.420766
H16_2 H 0.055655 0.222750 0.491866
C20_2 C 0.1301(5) 0.209(3) 0.5999(15)
C21_2 C 0.1644(5) 0.134(3) 0.6718(12)
H17_2 H 0.170712 0.010341 0.672249
C22_2 C 0.1878(5) 0.252(2) 0.7403(12)
H18_2 H 0.209619 0.205132 0.788416
C23_2 C 0.1797(5) 0.437(3) 0.7397(12)
C24_2 C 0.2047(5) 0.561(3) 0.8162(10)
C25_2 C 0.1212(6) 0.394(3) 0.6067(14)
H19_2 H 0.097592 0.442842 0.564622
C26_2 C 0.1461(5) 0.506(3) 0.6732(12)
H20_2 H 0.140197 0.629812 0.673505
C27_2 C 0.1673(4) 0.151(3) 0.9428(12)
C28_2 C 0.1249(4) 0.089(3) 0.8900(12)
C32_2 C 0.0550(5) 0.172(3) 0.8081(12)
H23_2 H 0.034832 0.262001 0.790040
C33_2 C 0.0950(4) 0.219(3) 0.8641(12)
H24_2 H 0.100979 0.339188 0.883442
O4_2 O 0.1001(4) 0.9454(19) 0.3120(9)
O7_2 O -0.000000 0.984(3) 0.500000
C9_2 C 0.0514(5) 0.994(3) 0.4084(11)
C10_2 C 0.0797(5) 0.857(2) 0.3752(11)
H7_2 H 0.099853 0.809072 0.431601
H8_2 H 0.063513 0.755533 0.341482
C11_2 C 0.1454(6) 0.935(3) 0.2093(13)
C12_2 C 0.1267(5) 0.845(3) 0.2738(12)
C13_2 C 0.1805(5) 0.663(3) 0.1868(13)
C14_2 C 0.1713(5) 0.848(3) 0.1661(12)
H10_2 H 0.183089 0.910168 0.122579
C15_2 C 0.1626(5) 0.573(3) 0.2520(12)
H11_2 H 0.169392 0.452039 0.269138
C16_2 C 0.1339(5) 0.666(3) 0.2919(13)
H12_2 H 0.119961 0.603802 0.331099
C17_2 C 0.2088(5) 0.556(3) 0.1407(12)
C18_2 C 0.0302(5) 0.877(2) 0.4698(12)
H13_2 H 0.017077 0.772881 0.431806
H14_2 H 0.050465 0.831358 0.526650
C29_2 C 0.1159(5) 0.908(3) 0.8604(12)
H21_2 H 0.136372 0.819296 0.876891
O13_2 O 0.0091(3) 0.9345(18) 0.7238(8)
C30_2 C 0.0770(4) 0.860(3) 0.8071(11)
H22_2 H 0.071000 0.739055 0.788582
C31_2 C 0.0462(5) 0.996(3) 0.7808(12)
C1_2 C 0.8327(4) 0.151(3) 0.0572(12)
C2_2 C 0.8751(4) 0.089(3) 0.1100(12)
C6_2 C 0.9450(5) 0.172(3) 0.1919(12)
H3_2 H 0.965168 0.262001 0.209960
C7_2 C 0.9050(4) 0.219(3) 0.1359(12)
H4_2 H 0.899021 0.339188 0.116558
C34_2 C 0.9811(5) 0.078(3) 0.6769(12)
H25_2 H 0.996320 0.172951 0.653034
H26_2 H 0.967785 0.132534 0.723542
O17_2 O 0.8929(3) 0.0814(18) 0.4602(8)
O19_2 O 0.8025(3) 0.7271(16) 0.1855(7)
H29_2 H 0.860202 0.058454 0.803953
C45_2 C 0.9259(5) 0.150(3) 0.5360(11)
H35_2 H 0.915030 0.228079 0.579234
H36_2 H 0.944345 0.222750 0.508134
C46_2 C 0.8699(5) 0.209(3) 0.4001(15)
C47_2 C 0.8356(5) 0.134(3) 0.3282(12)
H37_2 H 0.829288 0.010341 0.327751
C48_2 C 0.8122(5) 0.252(2) 0.2597(12)
H38_2 H 0.790381 0.205132 0.211584
C49_2 C 0.8203(5) 0.437(3) 0.2603(12)
C50_2 C 0.7953(5) 0.561(3) 0.1838(10)
C51_2 C 0.8788(6) 0.394(3) 0.3933(14)
H39_2 H 0.902408 0.442842 0.435378
C52_2 C 0.8539(5) 0.506(3) 0.3268(12)
H40_2 H 0.859803 0.629812 0.326495
C3_2 C 0.8841(5) 0.908(3) 0.1396(12)
H1_2 H 0.863628 0.819296 0.123109
O3_2 O 0.9909(3) 0.9345(18) 0.2762(8)
C4_2 C 0.9230(4) 0.860(3) 0.1929(11)
H2_2 H 0.929000 0.739055 0.211418
C5_2 C 0.9538(5) 0.996(3) 0.2192(12)
O7_3 O 1.000000 0.984(3) 0.500000
O14_2 O 0.8999(4) 0.9454(19) 0.6880(9)
C35_2 C 0.9486(5) 0.994(3) 0.5916(11)
C36_2 C 0.9203(5) 0.857(2) 0.6248(11)
H27_2 H 0.900147 0.809072 0.568399
H28_2 H 0.936487 0.755533 0.658518
C37_2 C 0.8546(6) 0.935(3) 0.7907(13)
C38_2 C 0.8733(5) 0.845(3) 0.7262(12)
C39_2 C 0.8195(5) 0.663(3) 0.8132(13)
C40_2 C 0.8287(5) 0.848(3) 0.8339(12)
H30_2 H 0.816911 0.910168 0.877421
C41_2 C 0.8374(5) 0.573(3) 0.7480(12)
H31_2 H 0.830608 0.452039 0.730862
C42_2 C 0.8661(5) 0.666(3) 0.7081(13)
H32_2 H 0.880039 0.603802 0.668901
C43_2 C 0.7912(5) 0.556(3) 0.8593(12)
C44_2 C 0.9698(5) 0.877(2) 0.5302(12)
H33_2 H 0.982923 0.772881 0.568194
H34_2 H 0.949535 0.831358 0.473350
loop_
_geom_bond_atom_site_label_1
_geom_bond_atom_site_label_2
_geom_bond_site_symmetry_1
_geom_bond_site_symmetry_2
O10 C24 1_555 1_555
H20 C26 1_555 1_555
O19 C50 1_555 1_555
H40 C52 1_555 1_555
O10 Pr6 1_555 1_555
O19 Pr4 1_555 1_555
C1 O1 1_555 1_555
Pr4 O1 1_555 1_555
O2 C1 1_555 1_555
C2 C1 1_555 1_555
C3 C2 1_555 1_555
H1 C3 1_555 1_555
O3 C5 1_555 1_555
C4 C3 1_555 1_555
H2 C4 1_555 1_555
O4 C10 1_555 1_555
C5 C4 1_555 1_555
O5 C17 1_555 1_555
C6 C5 1_555 1_555
H3 C6 1_555 1_555
C7 C2 1_555 1_555
H4 C7 1_555 1_555
O7 C18 1_555 1_555
C8 O3 1_555 1_555
H5 C8 1_555 1_555
H6 C8 1_555 1_555
O8 C19 1_555 1_555
C9 C8 1_555 1_555
C10 C9 1_555 1_555
H7 C10 1_555 1_555
H8 C10 1_555 1_555
C11 H9 1_555 1_555
C12 O4 1_555 1_555
C13 C14 1_555 1_555
C14 C11 1_555 1_555
H10 C14 1_555 1_555
C15 C13 1_555 1_555
C16 C12 1_555 1_555
H12 C16 1_555 1_555
C17 C13 1_555 1_555
C18 C9 1_555 1_555
H13 C18 1_555 1_555
H14 C18 1_555 1_555
C19 C9 1_555 1_555
H15 C19 1_555 1_555
H16 C19 1_555 1_555
C20 O8 1_555 1_555
C21 C20 1_555 1_555
H17 C21 1_555 1_555
C22 C21 1_555 1_555
H18 C22 1_555 1_555
C23 C22 1_555 1_555
C25 C20 1_555 1_555
H19 C25 1_555 1_555
C27 O11 1_555 1_555
O11 Pr6 1_555 1_555
O12 C27 1_555 1_555
C28 C27 1_555 1_555
C29 C28 1_555 1_555
H21 C29 1_555 1_555
O13 C31 1_555 1_555
C30 C29 1_555 1_555
H22 C30 1_555 1_555
O14 C36 1_555 1_555
C31 C30 1_555 1_555
O15 C43 1_555 1_555
C32 C31 1_555 1_555
H23 C32 1_555 1_555
C33 C28 1_555 1_555
H24 C33 1_555 1_555
C34 O13 1_555 1_555
H25 C34 1_555 1_555
H26 C34 1_555 1_555
O17 C45 1_555 1_555
C35 C34 1_555 1_555
C36 C35 1_555 1_555
H27 C36 1_555 1_555
H28 C36 1_555 1_555
C37 H29 1_555 1_555
C38 O14 1_555 1_555
C39 C40 1_555 1_555
C40 C37 1_555 1_555
H30 C40 1_555 1_555
C41 C39 1_555 1_555
C42 C38 1_555 1_555
H32 C42 1_555 1_555
C43 C39 1_555 1_555
C44 O7 1_555 1_555
H33 C44 1_555 1_555
H34 C44 1_555 1_555
C45 C35 1_555 1_555
H35 C45 1_555 1_555
H36 C45 1_555 1_555
C46 O17 1_555 1_555
C47 C46 1_555 1_555
H37 C47 1_555 1_555
C48 C47 1_555 1_555
H38 C48 1_555 1_555
C49 C48 1_555 1_555
C51 C46 1_555 1_555
H39 C51 1_555 1_555
O26 Pr4 1_555 1_555
O28 Pr4 1_555 1_555
C6 C7 1_555 1_555
C11 C12 1_555 1_555
C15 C16 1_555 1_555
C32 C33 1_555 1_555
C35 C44 1_555 1_555
C37 C38 1_555 1_555
C41 C42 1_555 1_555
O27 Pr6 1_555 1_555
O29 Pr6 1_555 1_555
Pr10 O32 1_555 1_555
O6 Pr8 1_555 1_555
O16 Pr10 1_555 1_555
Pr8 O33 1_555 1_555
H5_2 C8_2 1_555 1_555
H6_2 C8_2 1_555 1_555
O8_2 C19_2 1_555 1_555
O32 C24_2 1_555 1_555
O10_2 C24_2 1_555 1_555
H15_2 C19_2 1_555 1_555
H16_2 C19_2 1_555 1_555
C20_2 O8_2 1_555 1_555
C21_2 C20_2 1_555 1_555
H17_2 C21_2 1_555 1_555
C22_2 C21_2 1_555 1_555
H18_2 C22_2 1_555 1_555
C23_2 C22_2 1_555 1_555
C24_2 C23_2 1_555 1_555
C25_2 C20_2 1_555 1_555
H19_2 C25_2 1_555 1_555
C26_2 C23_2 1_555 1_555
H20_2 C26_2 1_555 1_555
C27_2 O22 1_555 1_555
O24 C27_2 1_555 1_555
C28_2 C27_2 1_555 1_555
H23_2 C32_2 1_555 1_555
C33_2 C28_2 1_555 1_555
H24_2 C33_2 1_555 1_555
O10_2 Pr10 1_555 1_555
C25_2 C26_2 1_555 1_555
C32_2 C33_2 1_555 1_555
O4_2 C10_2 1_555 1_555
O26 C17_2 1_555 1_555
O28 C17_2 1_555 1_555
O7_2 C18_2 1_555 1_555
C10_2 C9_2 1_555 1_555
H7_2 C10_2 1_555 1_555
H8_2 C10_2 1_555 1_555
C12_2 O4_2 1_555 1_555
C13_2 C14_2 1_555 1_555
C14_2 C11_2 1_555 1_555
H10_2 C14_2 1_555 1_555
C15_2 C13_2 1_555 1_555
H11_2 C15_2 1_555 1_555
C16_2 C12_2 1_555 1_555
H12_2 C16_2 1_555 1_555
C17_2 C13_2 1_555 1_555
C18_2 C9_2 1_555 1_555
H13_2 C18_2 1_555 1_555
H14_2 C18_2 1_555 1_555
H21_2 C29_2 1_555 1_555
O13_2 C31_2 1_555 1_555
C30_2 C29_2 1_555 1_555
H22_2 C30_2 1_555 1_555
C31_2 C30_2 1_555 1_555
C11_2 C12_2 1_555 1_555
C15_2 C16_2 1_555 1_555
C1_2 O21 1_555 1_555
O23 C1_2 1_555 1_555
C2_2 C1_2 1_555 1_555
H3_2 C6_2 1_555 1_555
C7_2 C2_2 1_555 1_555
H4_2 C7_2 1_555 1_555
H25_2 C34_2 1_555 1_555
H26_2 C34_2 1_555 1_555
O17_2 C45_2 1_555 1_555
O33 C50_2 1_555 1_555
O19_2 C50_2 1_555 1_555
H35_2 C45_2 1_555 1_555
H36_2 C45_2 1_555 1_555
C46_2 O17_2 1_555 1_555
C47_2 C46_2 1_555 1_555
H37_2 C47_2 1_555 1_555
C48_2 C47_2 1_555 1_555
H38_2 C48_2 1_555 1_555
C49_2 C48_2 1_555 1_555
C50_2 C49_2 1_555 1_555
C51_2 C46_2 1_555 1_555
H39_2 C51_2 1_555 1_555
C52_2 C49_2 1_555 1_555
H40_2 C52_2 1_555 1_555
C6_2 C7_2 1_555 1_555
O19_2 Pr8 1_555 1_555
C51_2 C52_2 1_555 1_555
H1_2 C3_2 1_555 1_555
O3_2 C5_2 1_555 1_555
C4_2 C3_2 1_555 1_555
H2_2 C4_2 1_555 1_555
C5_2 C4_2 1_555 1_555
O14_2 C36_2 1_555 1_555
O27 C43_2 1_555 1_555
O29 C43_2 1_555 1_555
C36_2 C35_2 1_555 1_555
H27_2 C36_2 1_555 1_555
H28_2 C36_2 1_555 1_555
C38_2 O14_2 1_555 1_555
C39_2 C40_2 1_555 1_555
C40_2 C37_2 1_555 1_555
H30_2 C40_2 1_555 1_555
C41_2 C39_2 1_555 1_555
H31_2 C41_2 1_555 1_555
C42_2 C38_2 1_555 1_555
H32_2 C42_2 1_555 1_555
C43_2 C39_2 1_555 1_555
C44_2 O7_3 1_555 1_555
H33_2 C44_2 1_555 1_555
H34_2 C44_2 1_555 1_555
C35_2 C44_2 1_555 1_555
C37_2 C38_2 1_555 1_555
C41_2 C42_2 1_555 1_555

#END
