
###############################################################################
#
# This file contains modified crystal structure data generated from the
# MOF subset of the Cambridge Structural Database (CSD) v543 
# hosted by the Cambridge Crystallographic Data Centre (CCDC).
#
# This work is licensed under the Creative Commons
# Attribution-NonCommercial-ShareAlike 4.0 International License.
# To view a copy of this license, visit
# http://creativecommons.org/licenses/by-nc-sa/4.0/
# or send a letter to
# Creative Commons, PO Box 1866, Mountain View, CA 94042, USA.
#
# CIF created using the CSD Python API on 29 September 2022
# The structure has been converted into the P1 space group
# The structure has a 3D framework
# The original CSD entry ESEXUY is in the monoclinic crystal system
# The original CSD entry ESEXUY is in a Sohncke space group
# The framework has been calculated to contain at least 10.0% void space
# The void calculation uses a probe of radius 1.32A, grid spacing 0.4
#
###############################################################################

data_ESEXUY
_chemical_formula_moiety         '(C104 H80 O39)n'
_symmetry_cell_setting           triclinic
_symmetry_space_group_name_H-M   'P 1'
_symmetry_Int_Tables_number      1
_space_group_name_Hall           'P 1'
loop_
_symmetry_equiv_pos_site_id
_symmetry_equiv_pos_as_xyz
1 x,y,z
_cell_length_a                   32.963(3)
_cell_length_b                   7.1899(7)
_cell_length_c                   14.3856(12)
_cell_angle_alpha                90
_cell_angle_beta                 104.488(10)
_cell_angle_gamma                90
_cell_volume                     3300.98
loop_
_atom_site_label
_atom_site_type_symbol
_atom_site_fract_x
_atom_site_fract_y
_atom_site_fract_z
Sm3 Sm 0.24883(2) 0.04029(18) 0.03224(5)
O24 O 0.3020(4) 0.1195(19) 0.1786(8)
O28 O 0.2644(4) 0.3521(17) 0.1135(7)
C1 C 0.1675(6) 0.194(3) 0.9433(12)
C2 C 0.1137(6) 0.439(3) 0.8626(15)
H1 H 0.133364 0.531690 0.884547
C3 C 0.0739(6) 0.488(3) 0.8054(13)
H2 H 0.067335 0.610975 0.787490
O5 O 0.0071(4) 0.415(2) 0.7207(9)
C7 C 0.0945(6) 0.125(3) 0.8593(14)
H4 H 0.101002 0.002460 0.876928
O7 O 0.000000 0.370(3) 0.500000
C11 C 0.0540(6) 0.171(3) 0.8044(15)
H7 H 0.033290 0.080860 0.787028
C12 C 0.0460(6) 0.351(3) 0.7778(14)
C26 C 0.1241(6) 0.260(3) 0.8865(13)
O9 O 0.1969(4) 0.3136(19) 0.9582(8)
O10 O 0.1725(3) 0.034(4) 0.9708(9)
O12 O 0.1027(5) 0.396(2) 0.3166(9)
C33 C 0.0530(6) 0.360(2) 0.4118(11)
C34 C 0.0753(5) 0.198(3) 0.4684(12)
H25 H 0.055885 0.128394 0.495710
H26 H 0.085930 0.116089 0.426575
C35 C 0.0822(6) 0.489(3) 0.3796(12)
H27 H 0.066565 0.594429 0.346833
H28 H 0.102869 0.535124 0.435105
C36 C 0.0293(6) 0.471(3) 0.4683(13)
H29 H 0.049077 0.524494 0.523438
H30 H 0.015328 0.572933 0.428839
C37 C 0.1279(8) 0.496(3) 0.2784(15)
C38 C 0.1465(8) 0.414(4) 0.2140(18)
H31 H 0.140423 0.289071 0.199092
C39 C 0.1732(9) 0.501(3) 0.1703(18)
H32 H 0.186159 0.435924 0.129873
C40 C 0.1377(8) 0.677(4) 0.2963(18)
H33 H 0.126671 0.739902 0.341010
C41 C 0.1638(7) 0.774(3) 0.2506(16)
H34 H 0.169595 0.899119 0.263807
C42 C 0.1807(7) 0.683(4) 0.1863(16)
C43 C 0.0208(7) 0.274(3) 0.3287(14)
H35 H 0.034824 0.214720 0.284688
H36 H 0.004980 0.179205 0.352655
O15 O 0.1090(4) 0.265(2) 0.5431(8)
C46 C 0.1888(10) 0.095(3) 0.742(2)
H37 H 0.211036 0.144348 0.788969
C48 C 0.1301(10) 0.140(6) 0.604(2)
C51 C 0.1650(7) 0.217(3) 0.6753(16)
H40 H 0.171329 0.343551 0.676132
O18 O 0.2180(5) 0.964(2) 0.1624(9)
C52 C 0.2078(6) 0.803(3) 0.1353(13)
O19 O 0.2204(4) 0.7260(19) 0.0657(8)
Sm10 Sm 0.25117(2) 0.54029(18) 0.96776(5)
O22 O 0.2796(4) 0.2260(19) 0.9343(8)
O31 O 0.3031(4) 0.8136(19) 0.0418(8)
O16 O 0.1980(4) 0.6195(19) 0.8214(8)
C45 C 0.1820(8) 0.911(3) 0.7450(16)
C47 C 0.2050(6) 0.788(3) 0.8211(12)
C49 C 0.1227(10) 0.957(5) 0.610(2)
H38 H 0.100235 0.906551 0.564667
C50 C 0.1454(7) 0.844(4) 0.676(2)
H39 H 0.137633 0.719510 0.677135
O17 O 0.2356(4) 0.8521(17) 0.8865(7)
Sm4 Sm 0.75117(2) 0.04029(18) 0.96776(5)
Sm7 Sm 0.74883(2) 0.54029(18) 0.03224(5)
O1 O 0.8910(4) 0.265(2) 0.4569(8)
O2 O 0.7796(4) 0.7260(19) 0.9343(8)
O4 O 0.7820(5) 0.964(2) 0.8376(9)
C5 C 0.8112(10) 0.095(3) 0.258(2)
H3 H 0.788964 0.144348 0.211031
C8 C 0.8699(10) 0.140(6) 0.396(2)
O6 O 0.8973(5) 0.396(2) 0.6834(9)
O7_2 O 1.000000 0.370(3) 0.500000
C13 C 0.9470(6) 0.360(2) 0.5882(11)
C14 C 0.9247(5) 0.198(3) 0.5316(12)
H8 H 0.944115 0.128394 0.504290
H9 H 0.914070 0.116089 0.573425
C15 C 0.9178(6) 0.489(3) 0.6204(12)
H10 H 0.933435 0.594429 0.653167
H11 H 0.897131 0.535124 0.564895
C16 C 0.9707(6) 0.471(3) 0.5317(13)
H12 H 0.950923 0.524494 0.476562
H13 H 0.984672 0.572933 0.571161
C17 C 0.8721(8) 0.496(3) 0.7216(15)
C18 C 0.8535(8) 0.414(4) 0.7860(18)
H14 H 0.859577 0.289071 0.800908
C19 C 0.8268(9) 0.501(3) 0.8297(18)
H15 H 0.813841 0.435924 0.870127
C20 C 0.8623(8) 0.677(4) 0.7037(18)
H16 H 0.873329 0.739902 0.658990
C21 C 0.8362(7) 0.774(3) 0.7494(16)
H17 H 0.830405 0.899119 0.736193
C22 C 0.8193(7) 0.683(4) 0.8137(16)
C23 C 0.7922(6) 0.803(3) 0.8647(13)
C24 C 0.9792(7) 0.274(3) 0.6713(14)
H18 H 0.965176 0.214720 0.715312
H19 H 0.995020 0.179205 0.647345
C25 C 0.8350(7) 0.217(3) 0.3247(16)
H20 H 0.828671 0.343551 0.323868
C27 C 0.8325(6) 0.194(3) 0.0567(12)
C28 C 0.8863(6) 0.439(3) 0.1374(15)
H21 H 0.866636 0.531690 0.115453
C29 C 0.9261(6) 0.488(3) 0.1946(13)
H22 H 0.932665 0.610975 0.212510
O11 O 0.9929(4) 0.415(2) 0.2793(9)
C30 C 0.9055(6) 0.125(3) 0.1407(14)
H23 H 0.898998 0.002460 0.123072
C31 C 0.9460(6) 0.171(3) 0.1956(15)
H24 H 0.966710 0.080860 0.212972
C32 C 0.9540(6) 0.351(3) 0.2222(14)
C44 C 0.8759(6) 0.260(3) 0.1135(13)
O13 O 0.8031(4) 0.3136(19) 0.0418(8)
O14 O 0.8275(3) 0.034(4) 0.0292(9)
O23 O 0.7204(4) 0.2260(19) 0.0657(8)
O25 O 0.6980(4) 0.1195(19) 0.8214(8)
O29 O 0.7356(4) 0.3521(17) 0.8865(7)
O3 O 0.8020(4) 0.6195(19) 0.1786(8)
C4 C 0.8180(8) 0.911(3) 0.2550(16)
C6 C 0.7950(6) 0.788(3) 0.1789(12)
C9 C 0.8773(10) 0.957(5) 0.390(2)
H5 H 0.899765 0.906551 0.435333
C10 C 0.8546(7) 0.844(4) 0.324(2)
H6 H 0.862367 0.719510 0.322865
O8 O 0.7644(4) 0.8521(17) 0.1135(7)
O30 O 0.6969(4) 0.8136(19) 0.9582(8)
H1_2 H 0.633364 0.031690 0.884547
H2_2 H 0.567335 0.110975 0.787490
O4_2 O 0.2820(5) 0.464(2) 0.8376(9)
H10_2 H 0.433435 0.094429 0.653167
H11_2 H 0.397131 0.035124 0.564895
H12_2 H 0.450923 0.024494 0.476562
H13_2 H 0.484672 0.072933 0.571161
C19_2 C 0.3268(9) 0.001(3) 0.8297(18)
C20_2 C 0.3623(8) 0.177(4) 0.7037(18)
H16_2 H 0.373329 0.239902 0.658990
C21_2 C 0.3362(7) 0.274(3) 0.7494(16)
H17_2 H 0.330405 0.399119 0.736193
C22_2 C 0.3193(7) 0.183(4) 0.8137(16)
C23_2 C 0.2922(6) 0.303(3) 0.8647(13)
H21_2 H 0.366636 0.031690 0.115453
H22_2 H 0.432665 0.110975 0.212510
H27_2 H 0.566565 0.094429 0.346833
H28_2 H 0.602869 0.035124 0.435105
H29_2 H 0.549077 0.024494 0.523438
H30_2 H 0.515328 0.072933 0.428839
C39_2 C 0.6732(9) 0.001(3) 0.1703(18)
C40_2 C 0.6377(8) 0.177(4) 0.2963(18)
H33_2 H 0.626671 0.239902 0.341010
C41_2 C 0.6638(7) 0.274(3) 0.2506(16)
H34_2 H 0.669595 0.399119 0.263807
C42_2 C 0.6807(7) 0.183(4) 0.1863(16)
O18_2 O 0.7180(5) 0.464(2) 0.1624(9)
C52_2 C 0.7078(6) 0.303(3) 0.1353(13)
C1_2 C 0.6675(6) 0.694(3) 0.9433(12)
C2_2 C 0.6137(6) 0.939(3) 0.8626(15)
O1_2 O 0.3910(4) 0.765(2) 0.4569(8)
C3_2 C 0.5739(6) 0.988(3) 0.8054(13)
C4_2 C 0.3180(8) 0.411(3) 0.2550(16)
C5_2 C 0.3112(10) 0.595(3) 0.258(2)
H3_2 H 0.288964 0.644348 0.211031
C6_2 C 0.2950(6) 0.288(3) 0.1789(12)
O5_2 O 0.5071(4) 0.915(2) 0.7207(9)
C7_2 C 0.5945(6) 0.625(3) 0.8593(14)
H4_2 H 0.601002 0.502460 0.876928
C8_2 C 0.3699(10) 0.640(6) 0.396(2)
C9_2 C 0.3773(10) 0.457(5) 0.390(2)
H5_2 H 0.399765 0.406551 0.435333
O6_2 O 0.3973(5) 0.896(2) 0.6834(9)
C10_2 C 0.3546(7) 0.344(4) 0.324(2)
H6_2 H 0.362367 0.219510 0.322865
O7_3 O 0.500000 0.870(3) 0.500000
C11_2 C 0.5540(6) 0.671(3) 0.8044(15)
H7_2 H 0.533290 0.580860 0.787028
C12_2 C 0.5460(6) 0.851(3) 0.7778(14)
C13_2 C 0.4470(6) 0.860(2) 0.5882(11)
C14_2 C 0.4247(5) 0.698(3) 0.5316(12)
H8_2 H 0.444115 0.628394 0.504290
H9_2 H 0.414070 0.616089 0.573425
C15_2 C 0.4178(6) 0.989(3) 0.6204(12)
C16_2 C 0.4707(6) 0.971(3) 0.5317(13)
C17_2 C 0.3721(8) 0.996(3) 0.7216(15)
C18_2 C 0.3535(8) 0.914(4) 0.7860(18)
H14_2 H 0.359577 0.789071 0.800908
H15_2 H 0.313841 0.935924 0.870127
C24_2 C 0.4792(7) 0.774(3) 0.6713(14)
H18_2 H 0.465176 0.714720 0.715312
H19_2 H 0.495020 0.679205 0.647345
C25_2 C 0.3350(7) 0.717(3) 0.3247(16)
H20_2 H 0.328671 0.843551 0.323868
C26_2 C 0.6241(6) 0.760(3) 0.8865(13)
O10_2 O 0.6725(3) 0.534(4) 0.9708(9)
C27_2 C 0.3325(6) 0.694(3) 0.0567(12)
C28_2 C 0.3863(6) 0.939(3) 0.1374(15)
C29_2 C 0.4261(6) 0.988(3) 0.1946(13)
O11_2 O 0.4929(4) 0.915(2) 0.2793(9)
C30_2 C 0.4055(6) 0.625(3) 0.1407(14)
H23_2 H 0.398998 0.502460 0.123072
O12_2 O 0.6027(5) 0.896(2) 0.3166(9)
C31_2 C 0.4460(6) 0.671(3) 0.1956(15)
H24_2 H 0.466710 0.580860 0.212972
C32_2 C 0.4540(6) 0.851(3) 0.2222(14)
C33_2 C 0.5530(6) 0.860(2) 0.4118(11)
C34_2 C 0.5753(5) 0.698(3) 0.4684(12)
H25_2 H 0.555885 0.628394 0.495710
H26_2 H 0.585930 0.616089 0.426575
C35_2 C 0.5822(6) 0.989(3) 0.3796(12)
C36_2 C 0.5293(6) 0.971(3) 0.4683(13)
C37_2 C 0.6279(8) 0.996(3) 0.2784(15)
C38_2 C 0.6465(8) 0.914(4) 0.2140(18)
H31_2 H 0.640423 0.789071 0.199092
H32_2 H 0.686159 0.935924 0.129873
C43_2 C 0.5208(7) 0.774(3) 0.3287(14)
H35_2 H 0.534824 0.714720 0.284688
H36_2 H 0.504980 0.679205 0.352655
C44_2 C 0.3759(6) 0.760(3) 0.1135(13)
O14_2 O 0.3275(3) 0.534(4) 0.0292(9)
O15_2 O 0.6090(4) 0.765(2) 0.5431(8)
C45_2 C 0.6820(8) 0.411(3) 0.7450(16)
C46_2 C 0.6888(10) 0.595(3) 0.742(2)
H37_2 H 0.711036 0.644348 0.788969
C47_2 C 0.7050(6) 0.288(3) 0.8211(12)
C48_2 C 0.6301(10) 0.640(6) 0.604(2)
C49_2 C 0.6227(10) 0.457(5) 0.610(2)
H38_2 H 0.600235 0.406551 0.564667
C50_2 C 0.6454(7) 0.344(4) 0.676(2)
H39_2 H 0.637633 0.219510 0.677135
C51_2 C 0.6650(7) 0.717(3) 0.6753(16)
H40_2 H 0.671329 0.843551 0.676132
loop_
_geom_bond_atom_site_label_1
_geom_bond_atom_site_label_2
_geom_bond_site_symmetry_1
_geom_bond_site_symmetry_2
O24 Sm3 1_555 1_555
O28 Sm3 1_555 1_555
C1 C26 1_555 1_555
C2 H1 1_555 1_555
C3 C2 1_555 1_555
H2 C3 1_555 1_555
O5 C12 1_555 1_555
C7 H4 1_555 1_555
C11 C7 1_555 1_555
H7 C11 1_555 1_555
C12 C3 1_555 1_555
C26 C2 1_555 1_555
O9 C1 1_555 1_555
O12 C35 1_555 1_555
C33 C34 1_555 1_555
C34 H25 1_555 1_555
H26 C34 1_555 1_555
C35 C33 1_555 1_555
H27 C35 1_555 1_555
H28 C35 1_555 1_555
C36 O7 1_555 1_555
H29 C36 1_555 1_555
H30 C36 1_555 1_555
C37 O12 1_555 1_555
C38 C37 1_555 1_555
H31 C38 1_555 1_555
C39 C38 1_555 1_555
H32 C39 1_555 1_555
C40 C37 1_555 1_555
H33 C40 1_555 1_555
C41 C40 1_555 1_555
H34 C41 1_555 1_555
C42 C39 1_555 1_555
H35 C43 1_555 1_555
H36 C43 1_555 1_555
O15 C34 1_555 1_555
C46 H37 1_555 1_555
C48 O15 1_555 1_555
C51 C46 1_555 1_555
H40 C51 1_555 1_555
O18 C52 1_555 1_555
C52 C42 1_555 1_555
O19 C52 1_555 1_555
Sm10 O9 1_555 1_555
C1 O10 1_555 1_555
C7 C26 1_555 1_555
C11 C12 1_555 1_555
C33 C36 1_555 1_555
C33 C43 1_555 1_555
C41 C42 1_555 1_555
C48 C51 1_555 1_555
Sm10 O22 1_555 1_555
O16 C47 1_555 1_555
C47 C45 1_555 1_555
H38 C49 1_555 1_555
C50 C45 1_555 1_555
H39 C50 1_555 1_555
Sm10 O16 1_555 1_555
C47 O17 1_555 1_555
C49 C50 1_555 1_555
O17 Sm10 1_555 1_555
O1 C8 1_555 1_555
O2 C23 1_555 1_555
O4 C23 1_555 1_555
C5 H3 1_555 1_555
O6 C15 1_555 1_555
O7_2 C16 1_555 1_555
C13 C14 1_555 1_555
C14 O1 1_555 1_555
H8 C14 1_555 1_555
H9 C14 1_555 1_555
C15 C13 1_555 1_555
H10 C15 1_555 1_555
H11 C15 1_555 1_555
C16 C13 1_555 1_555
H12 C16 1_555 1_555
H13 C16 1_555 1_555
C17 O6 1_555 1_555
C18 C17 1_555 1_555
H14 C18 1_555 1_555
C19 C18 1_555 1_555
H15 C19 1_555 1_555
C20 C17 1_555 1_555
H16 C20 1_555 1_555
C21 C20 1_555 1_555
H17 C21 1_555 1_555
C22 C19 1_555 1_555
C23 C22 1_555 1_555
H18 C24 1_555 1_555
H19 C24 1_555 1_555
C25 C5 1_555 1_555
H20 C25 1_555 1_555
C27 C44 1_555 1_555
C28 H21 1_555 1_555
C29 C28 1_555 1_555
H22 C29 1_555 1_555
O11 C32 1_555 1_555
C30 H23 1_555 1_555
C31 C30 1_555 1_555
H24 C31 1_555 1_555
C32 C29 1_555 1_555
C44 C28 1_555 1_555
O13 C27 1_555 1_555
O14 C27 1_555 1_555
Sm7 O13 1_555 1_555
C8 C25 1_555 1_555
C13 C24 1_555 1_555
C21 C22 1_555 1_555
C30 C44 1_555 1_555
C31 C32 1_555 1_555
Sm7 O23 1_555 1_555
O25 Sm4 1_555 1_555
O29 Sm4 1_555 1_555
O3 C6 1_555 1_555
C6 C4 1_555 1_555
C9 H5 1_555 1_555
C10 C4 1_555 1_555
H6 C10 1_555 1_555
O8 C6 1_555 1_555
Sm7 O3 1_555 1_555
C9 C10 1_555 1_555
O8 Sm7 1_555 1_555
O22 C23_2 1_555 1_555
O4_2 C23_2 1_555 1_555
H16_2 C20_2 1_555 1_555
C21_2 C20_2 1_555 1_555
H17_2 C21_2 1_555 1_555
C22_2 C19_2 1_555 1_555
C23_2 C22_2 1_555 1_555
H33_2 C40_2 1_555 1_555
C41_2 C40_2 1_555 1_555
H34_2 C41_2 1_555 1_555
C42_2 C39_2 1_555 1_555
O18_2 C52_2 1_555 1_555
C52_2 C42_2 1_555 1_555
O23 C52_2 1_555 1_555
Sm7 O18_2 1_555 1_555
O4_2 Sm10 1_555 1_555
C21_2 C22_2 1_555 1_555
C41_2 C42_2 1_555 1_555
C1_2 C26_2 1_555 1_555
O1_2 C8_2 1_555 1_555
C3_2 C2_2 1_555 1_555
O24 C6_2 1_555 1_555
C4_2 C5_2 1_555 1_555
C5_2 H3_2 1_555 1_555
C6_2 C4_2 1_555 1_555
O5_2 C12_2 1_555 1_555
C7_2 H4_2 1_555 1_555
C8_2 C9_2 1_555 1_555
C9_2 H5_2 1_555 1_555
O6_2 C15_2 1_555 1_555
C10_2 C4_2 1_555 1_555
H6_2 C10_2 1_555 1_555
O7_3 C16_2 1_555 1_555
C11_2 C7_2 1_555 1_555
H7_2 C11_2 1_555 1_555
C12_2 C3_2 1_555 1_555
C13_2 C14_2 1_555 1_555
C14_2 O1_2 1_555 1_555
H8_2 C14_2 1_555 1_555
H9_2 C14_2 1_555 1_555
C15_2 C13_2 1_555 1_555
C16_2 C13_2 1_555 1_555
C17_2 O6_2 1_555 1_555
C18_2 C17_2 1_555 1_555
H14_2 C18_2 1_555 1_555
C24_2 O5_2 1_555 1_555
H18_2 C24_2 1_555 1_555
H19_2 C24_2 1_555 1_555
O28 C6_2 1_555 1_555
C25_2 C5_2 1_555 1_555
H20_2 C25_2 1_555 1_555
C26_2 C2_2 1_555 1_555
O30 C1_2 1_555 1_555
C27_2 C44_2 1_555 1_555
C29_2 C28_2 1_555 1_555
O11_2 C32_2 1_555 1_555
C30_2 H23_2 1_555 1_555
O12_2 C35_2 1_555 1_555
C31_2 C30_2 1_555 1_555
H24_2 C31_2 1_555 1_555
C32_2 C29_2 1_555 1_555
C33_2 C34_2 1_555 1_555
C34_2 H25_2 1_555 1_555
H26_2 C34_2 1_555 1_555
C35_2 C33_2 1_555 1_555
C36_2 O7_3 1_555 1_555
C37_2 O12_2 1_555 1_555
C38_2 C37_2 1_555 1_555
H31_2 C38_2 1_555 1_555
C43_2 O11_2 1_555 1_555
H35_2 C43_2 1_555 1_555
H36_2 C43_2 1_555 1_555
C44_2 C28_2 1_555 1_555
O31 C27_2 1_555 1_555
O14_2 C27_2 1_555 1_555
O15_2 C34_2 1_555 1_555
O25 C47_2 1_555 1_555
C45_2 C46_2 1_555 1_555
C46_2 H37_2 1_555 1_555
C47_2 C45_2 1_555 1_555
C48_2 O15_2 1_555 1_555
C49_2 C48_2 1_555 1_555
H38_2 C49_2 1_555 1_555
C50_2 C45_2 1_555 1_555
H39_2 C50_2 1_555 1_555
C51_2 C46_2 1_555 1_555
H40_2 C51_2 1_555 1_555
C1_2 O10_2 1_555 1_555
C7_2 C26_2 1_555 1_555
C8_2 C25_2 1_555 1_555
C9_2 C10_2 1_555 1_555
C11_2 C12_2 1_555 1_555
C13_2 C24_2 1_555 1_555
C30_2 C44_2 1_555 1_555
C31_2 C32_2 1_555 1_555
C33_2 C36_2 1_555 1_555
C33_2 C43_2 1_555 1_555
C47_2 O29 1_555 1_555
C48_2 C51_2 1_555 1_555
C49_2 C50_2 1_555 1_555

#END
