
###############################################################################
#
# This file contains modified crystal structure data generated from the
# MOF subset of the Cambridge Structural Database (CSD) v543 
# hosted by the Cambridge Crystallographic Data Centre (CCDC).
#
# This work is licensed under the Creative Commons
# Attribution-NonCommercial-ShareAlike 4.0 International License.
# To view a copy of this license, visit
# http://creativecommons.org/licenses/by-nc-sa/4.0/
# or send a letter to
# Creative Commons, PO Box 1866, Mountain View, CA 94042, USA.
#
# CIF created using the CSD Python API on 29 September 2022
# The structure has been converted into the P1 space group
# The structure has a 3D framework
# The original CSD entry ESEYAF is in the monoclinic crystal system
# The original CSD entry ESEYAF is in a Sohncke space group
# The framework has been calculated to contain at least 10.0% void space
# The void calculation uses a probe of radius 1.32A, grid spacing 0.4
#
###############################################################################

data_ESEYAF
_chemical_formula_moiety         '(C104 H80 Eu1 O37)n'
_symmetry_cell_setting           triclinic
_symmetry_space_group_name_H-M   'P 1'
_symmetry_Int_Tables_number      1
_space_group_name_Hall           'P 1'
loop_
_symmetry_equiv_pos_site_id
_symmetry_equiv_pos_as_xyz
1 x,y,z
_cell_length_a                   32.822(3)
_cell_length_b                   7.1561(8)
_cell_length_c                   14.4827(16)
_cell_angle_alpha                90
_cell_angle_beta                 104.450(11)
_cell_angle_gamma                90
_cell_volume                     3294.05
loop_
_atom_site_label
_atom_site_type_symbol
_atom_site_fract_x
_atom_site_fract_y
_atom_site_fract_z
O10 O 0.6980(3) 0.2368(13) 0.8236(6)
C24 C 0.7059(4) 0.067(2) 0.8231(9)
C26 C 0.6462(5) 0.016(2) 0.6797(11)
H20 H 0.638795 0.140934 0.681866
O19 O 0.3020(3) 0.2368(13) 0.1764(6)
C50 C 0.2941(4) 0.067(2) 0.1769(9)
C52 C 0.3538(5) 0.016(2) 0.3203(11)
H40 H 0.361205 0.140934 0.318134
Eu4 Eu 0.24875(2) 0.31314(11) 0.03158(3)
Eu6 Eu 0.75125(2) 0.31314(11) 0.96842(3)
Eu8 Eu 0.74875(2) 0.81314(11) 0.03158(3)
C1 C 0.3332(4) 0.654(2) 0.0594(10)
O1 O 0.3027(3) 0.5382(14) 0.0412(7)
O2 O 0.3272(2) 0.816(3) 0.0327(6)
C2 C 0.3760(4) 0.596(2) 0.1131(10)
C3 C 0.3860(4) 0.410(2) 0.1364(10)
H1 H 0.366284 0.317110 0.113295
O3 O 0.4926(3) 0.4429(15) 0.2797(7)
C4 C 0.4259(4) 0.361(2) 0.1948(9)
H2 H 0.432111 0.237453 0.213643
O4 O 0.6032(3) 0.4569(15) 0.3177(7)
C5 C 0.4553(4) 0.501(2) 0.2229(10)
O5 O 0.7207(3) 0.1246(15) 0.0675(6)
C6 C 0.4461(4) 0.683(2) 0.1977(10)
H3 H 0.466482 0.775328 0.216234
C7 C 0.4057(4) 0.730(2) 0.1438(10)
H4 H 0.399105 0.854373 0.128782
O7 O 0.500000 0.489(2) 0.500000
C8 C 0.5202(4) 0.587(2) 0.3283(10)
H5 H 0.504142 0.681535 0.351417
H6 H 0.534481 0.645125 0.284711
O8 O 0.6086(3) 0.5889(14) 0.5439(6)
C9 C 0.5528(4) 0.498(2) 0.4128(9)
O9 O 0.7353(3) 0.9996(14) 0.8877(6)
C10 C 0.5830(4) 0.364(2) 0.3787(9)
H7 H 0.603846 0.316021 0.433347
H8 H 0.567252 0.258647 0.345504
C11 C 0.6480(5) 0.446(3) 0.2164(10)
H9 H 0.643994 0.574068 0.206699
C12 C 0.6287(4) 0.355(2) 0.2785(10)
C13 C 0.6816(5) 0.163(2) 0.1874(11)
C14 C 0.6729(4) 0.351(2) 0.1689(10)
H10 H 0.683929 0.413280 0.124205
C15 C 0.6647(5) 0.072(3) 0.2529(10)
C16 C 0.6371(5) 0.163(2) 0.2980(11)
H12 H 0.624670 0.099458 0.339771
C17 C 0.7084(5) 0.054(2) 0.1372(11)
C18 C 0.5297(4) 0.383(2) 0.4702(10)
H13 H 0.515820 0.279661 0.431754
H14 H 0.549630 0.332419 0.525406
C19 C 0.5761(4) 0.660(2) 0.4687(9)
H15 H 0.587982 0.738644 0.427464
H16 H 0.556926 0.735396 0.494443
C20 C 0.6310(5) 0.711(3) 0.6070(14)
C21 C 0.6651(5) 0.640(2) 0.6738(10)
H17 H 0.671640 0.513270 0.672851
C22 C 0.6892(5) 0.7551(19) 0.7414(10)
H18 H 0.711798 0.703319 0.785904
C23 C 0.6816(5) 0.946(2) 0.7469(11)
C25 C 0.6226(6) 0.900(3) 0.6105(14)
H19 H 0.600265 0.950322 0.564808
C27 C 0.6668(4) 0.654(2) 0.9406(10)
O11 O 0.6973(3) 0.5382(14) 0.9588(7)
O12 O 0.6728(2) 0.816(3) 0.9673(6)
C28 C 0.6240(4) 0.596(2) 0.8869(10)
C29 C 0.6140(4) 0.410(2) 0.8636(10)
H21 H 0.633716 0.317110 0.886705
O13 O 0.5074(3) 0.4429(15) 0.7203(7)
C30 C 0.5741(4) 0.361(2) 0.8052(9)
H22 H 0.567889 0.237453 0.786357
O14 O 0.3968(3) 0.4569(15) 0.6823(7)
C31 C 0.5447(4) 0.501(2) 0.7771(10)
O15 O 0.2793(3) 0.1246(15) 0.9325(6)
C32 C 0.5539(4) 0.683(2) 0.8023(10)
H23 H 0.533518 0.775328 0.783766
C33 C 0.5943(4) 0.730(2) 0.8562(10)
H24 H 0.600895 0.854373 0.871218
C34 C 0.4798(4) 0.587(2) 0.6717(10)
H25 H 0.495858 0.681535 0.648583
H26 H 0.465519 0.645125 0.715289
O17 O 0.3914(3) 0.5889(14) 0.4561(6)
C35 C 0.4472(4) 0.498(2) 0.5872(9)
O18 O 0.2647(3) 0.9996(14) 0.1123(6)
C36 C 0.4170(4) 0.364(2) 0.6213(9)
H27 H 0.396154 0.316021 0.566653
H28 H 0.432748 0.258647 0.654496
C37 C 0.3520(5) 0.446(3) 0.7836(10)
H29 H 0.356006 0.574068 0.793301
C38 C 0.3713(4) 0.355(2) 0.7215(10)
C39 C 0.3184(5) 0.163(2) 0.8126(11)
C40 C 0.3271(4) 0.351(2) 0.8311(10)
H30 H 0.316071 0.413280 0.875795
C41 C 0.3353(5) 0.072(3) 0.7471(10)
C42 C 0.3629(5) 0.163(2) 0.7020(11)
H32 H 0.375330 0.099458 0.660229
C43 C 0.2916(5) 0.054(2) 0.8628(11)
C44 C 0.4703(4) 0.383(2) 0.5298(10)
H33 H 0.484180 0.279661 0.568246
H34 H 0.450370 0.332419 0.474594
C45 C 0.4239(4) 0.660(2) 0.5313(9)
H35 H 0.412018 0.738644 0.572536
H36 H 0.443074 0.735396 0.505557
C46 C 0.3690(5) 0.711(3) 0.3930(14)
C47 C 0.3349(5) 0.640(2) 0.3262(10)
H37 H 0.328360 0.513270 0.327149
C48 C 0.3108(5) 0.7551(19) 0.2586(10)
H38 H 0.288202 0.703319 0.214096
C49 C 0.3184(5) 0.946(2) 0.2531(11)
C51 C 0.3774(6) 0.900(3) 0.3895(14)
H39 H 0.399735 0.950322 0.435192
O21 O 0.8027(3) 0.0382(14) 0.0412(7)
O23 O 0.8272(2) 0.316(3) 0.0327(6)
O26 O 0.2207(3) 0.6246(15) 0.0675(6)
O28 O 0.2176(3) 0.3899(15) 0.1617(7)
O33 O 0.7647(3) 0.4996(14) 0.1123(6)
Eu10 Eu 0.25125(2) 0.81314(11) 0.96842(3)
O22 O 0.1973(3) 0.0382(14) 0.9588(7)
O24 O 0.1728(2) 0.316(3) 0.9673(6)
O27 O 0.7793(3) 0.6246(15) 0.9325(6)
O29 O 0.7824(3) 0.3899(15) 0.8383(7)
O32 O 0.2353(3) 0.4996(14) 0.8877(6)
O6 O 0.7176(3) 0.8899(15) 0.1617(7)
H11 H 0.671656 0.947409 0.267398
O16 O 0.2824(3) 0.8899(15) 0.8383(7)
H31 H 0.328344 0.947409 0.732602
C8_2 C 0.0202(4) 0.087(2) 0.3283(10)
H5_2 H 0.004142 0.181535 0.351417
H6_2 H 0.034481 0.145125 0.284711
O8_2 O 0.1086(3) 0.0889(14) 0.5439(6)
O10_2 O 0.1980(3) 0.7368(13) 0.8236(6)
H9_2 H 0.143994 0.074068 0.206699
C19_2 C 0.0761(4) 0.160(2) 0.4687(9)
H15_2 H 0.087982 0.238644 0.427464
H16_2 H 0.056926 0.235396 0.494443
C20_2 C 0.1310(5) 0.211(3) 0.6070(14)
C21_2 C 0.1651(5) 0.140(2) 0.6738(10)
H17_2 H 0.171640 0.013270 0.672851
C22_2 C 0.1892(5) 0.2551(19) 0.7414(10)
H18_2 H 0.211798 0.203319 0.785904
C23_2 C 0.1816(5) 0.446(2) 0.7469(11)
C24_2 C 0.2059(4) 0.567(2) 0.8231(9)
C25_2 C 0.1226(6) 0.400(3) 0.6105(14)
H19_2 H 0.100265 0.450322 0.564808
C26_2 C 0.1462(5) 0.516(2) 0.6797(11)
H20_2 H 0.138795 0.640934 0.681866
C27_2 C 0.1668(4) 0.154(2) 0.9406(10)
C28_2 C 0.1240(4) 0.096(2) 0.8869(10)
C31_2 C 0.0447(4) 0.001(2) 0.7771(10)
C32_2 C 0.0539(4) 0.183(2) 0.8023(10)
H23_2 H 0.033518 0.275328 0.783766
C33_2 C 0.0943(4) 0.230(2) 0.8562(10)
H24_2 H 0.100895 0.354373 0.871218
O4_2 O 0.1032(3) 0.9569(15) 0.3177(7)
O7_2 O -0.000000 0.989(2) 0.500000
C9_2 C 0.0528(4) 0.998(2) 0.4128(9)
C10_2 C 0.0830(4) 0.864(2) 0.3787(9)
H7_2 H 0.103846 0.816021 0.433347
H8_2 H 0.067252 0.758647 0.345504
C11_2 C 0.1480(5) 0.946(3) 0.2164(10)
C12_2 C 0.1287(4) 0.855(2) 0.2785(10)
C13_2 C 0.1816(5) 0.663(2) 0.1874(11)
C14_2 C 0.1729(4) 0.851(2) 0.1689(10)
H10_2 H 0.183929 0.913280 0.124205
C15_2 C 0.1647(5) 0.572(3) 0.2529(10)
H11_2 H 0.171656 0.447409 0.267398
C16_2 C 0.1371(5) 0.663(2) 0.2980(11)
H12_2 H 0.124670 0.599458 0.339771
C17_2 C 0.2084(5) 0.554(2) 0.1372(11)
C18_2 C 0.0297(4) 0.883(2) 0.4702(10)
H13_2 H 0.015820 0.779661 0.431754
H14_2 H 0.049630 0.832419 0.525406
C29_2 C 0.1140(4) 0.910(2) 0.8636(10)
H21_2 H 0.133716 0.817110 0.886705
O13_2 O 0.0074(3) 0.9429(15) 0.7203(7)
C30_2 C 0.0741(4) 0.861(2) 0.8052(9)
H22_2 H 0.067889 0.737453 0.786357
C1_2 C 0.8332(4) 0.154(2) 0.0594(10)
C2_2 C 0.8760(4) 0.096(2) 0.1131(10)
C5_2 C 0.9553(4) 0.001(2) 0.2229(10)
C6_2 C 0.9461(4) 0.183(2) 0.1977(10)
H3_2 H 0.966482 0.275328 0.216234
C7_2 C 0.9057(4) 0.230(2) 0.1438(10)
H4_2 H 0.899105 0.354373 0.128782
C34_2 C 0.9798(4) 0.087(2) 0.6717(10)
H25_2 H 0.995858 0.181535 0.648583
H26_2 H 0.965519 0.145125 0.715289
O17_2 O 0.8914(3) 0.0889(14) 0.4561(6)
O19_2 O 0.8020(3) 0.7368(13) 0.1764(6)
H29_2 H 0.856006 0.074068 0.793301
C45_2 C 0.9239(4) 0.160(2) 0.5313(9)
H35_2 H 0.912018 0.238644 0.572536
H36_2 H 0.943074 0.235396 0.505557
C46_2 C 0.8690(5) 0.211(3) 0.3930(14)
C47_2 C 0.8349(5) 0.140(2) 0.3262(10)
H37_2 H 0.828360 0.013270 0.327149
C48_2 C 0.8108(5) 0.2551(19) 0.2586(10)
H38_2 H 0.788202 0.203319 0.214096
C49_2 C 0.8184(5) 0.446(2) 0.2531(11)
C50_2 C 0.7941(4) 0.567(2) 0.1769(9)
C51_2 C 0.8774(6) 0.400(3) 0.3895(14)
H39_2 H 0.899735 0.450322 0.435192
C52_2 C 0.8538(5) 0.516(2) 0.3203(11)
H40_2 H 0.861205 0.640934 0.318134
C3_2 C 0.8860(4) 0.910(2) 0.1364(10)
H1_2 H 0.866284 0.817110 0.113295
O3_2 O 0.9926(3) 0.9429(15) 0.2797(7)
C4_2 C 0.9259(4) 0.861(2) 0.1948(9)
H2_2 H 0.932111 0.737453 0.213643
O7_3 O 1.000000 0.989(2) 0.500000
O14_2 O 0.8968(3) 0.9569(15) 0.6823(7)
C35_2 C 0.9472(4) 0.998(2) 0.5872(9)
C36_2 C 0.9170(4) 0.864(2) 0.6213(9)
H27_2 H 0.896154 0.816021 0.566653
H28_2 H 0.932748 0.758647 0.654496
C37_2 C 0.8520(5) 0.946(3) 0.7836(10)
C38_2 C 0.8713(4) 0.855(2) 0.7215(10)
C39_2 C 0.8184(5) 0.663(2) 0.8126(11)
C40_2 C 0.8271(4) 0.851(2) 0.8311(10)
H30_2 H 0.816071 0.913280 0.875795
C41_2 C 0.8353(5) 0.572(3) 0.7471(10)
H31_2 H 0.828344 0.447409 0.732602
C42_2 C 0.8629(5) 0.663(2) 0.7020(11)
H32_2 H 0.875330 0.599458 0.660229
C43_2 C 0.7916(5) 0.554(2) 0.8628(11)
C44_2 C 0.9703(4) 0.883(2) 0.5298(10)
H33_2 H 0.984180 0.779661 0.568246
H34_2 H 0.950370 0.832419 0.474594
loop_
_geom_bond_atom_site_label_1
_geom_bond_atom_site_label_2
_geom_bond_site_symmetry_1
_geom_bond_site_symmetry_2
O10 C24 1_555 1_555
H20 C26 1_555 1_555
O19 C50 1_555 1_555
H40 C52 1_555 1_555
O10 Eu6 1_555 1_555
O19 Eu4 1_555 1_555
C1 O1 1_555 1_555
Eu4 O1 1_555 1_555
O2 C1 1_555 1_555
C2 C1 1_555 1_555
C3 C2 1_555 1_555
H1 C3 1_555 1_555
O3 C5 1_555 1_555
C4 C3 1_555 1_555
H2 C4 1_555 1_555
O4 C10 1_555 1_555
C5 C4 1_555 1_555
O5 C17 1_555 1_555
C6 C5 1_555 1_555
H3 C6 1_555 1_555
C7 C2 1_555 1_555
H4 C7 1_555 1_555
O7 C18 1_555 1_555
C8 O3 1_555 1_555
H5 C8 1_555 1_555
H6 C8 1_555 1_555
O8 C19 1_555 1_555
C9 C8 1_555 1_555
C10 C9 1_555 1_555
H7 C10 1_555 1_555
H8 C10 1_555 1_555
C11 H9 1_555 1_555
C12 O4 1_555 1_555
C13 C14 1_555 1_555
C14 C11 1_555 1_555
H10 C14 1_555 1_555
C15 C13 1_555 1_555
C16 C12 1_555 1_555
H12 C16 1_555 1_555
C17 C13 1_555 1_555
C18 C9 1_555 1_555
H13 C18 1_555 1_555
H14 C18 1_555 1_555
C19 C9 1_555 1_555
H15 C19 1_555 1_555
H16 C19 1_555 1_555
C20 O8 1_555 1_555
C21 C20 1_555 1_555
H17 C21 1_555 1_555
C22 C21 1_555 1_555
H18 C22 1_555 1_555
C23 C22 1_555 1_555
C25 C20 1_555 1_555
H19 C25 1_555 1_555
C27 O11 1_555 1_555
O11 Eu6 1_555 1_555
O12 C27 1_555 1_555
C28 C27 1_555 1_555
C29 C28 1_555 1_555
H21 C29 1_555 1_555
O13 C31 1_555 1_555
C30 C29 1_555 1_555
H22 C30 1_555 1_555
O14 C36 1_555 1_555
C31 C30 1_555 1_555
O15 C43 1_555 1_555
C32 C31 1_555 1_555
H23 C32 1_555 1_555
C33 C28 1_555 1_555
H24 C33 1_555 1_555
C34 O13 1_555 1_555
H25 C34 1_555 1_555
H26 C34 1_555 1_555
O17 C45 1_555 1_555
C35 C34 1_555 1_555
C36 C35 1_555 1_555
H27 C36 1_555 1_555
H28 C36 1_555 1_555
C37 H29 1_555 1_555
C38 O14 1_555 1_555
C39 C40 1_555 1_555
C40 C37 1_555 1_555
H30 C40 1_555 1_555
C41 C39 1_555 1_555
C42 C38 1_555 1_555
H32 C42 1_555 1_555
C43 C39 1_555 1_555
C44 O7 1_555 1_555
H33 C44 1_555 1_555
H34 C44 1_555 1_555
C45 C35 1_555 1_555
H35 C45 1_555 1_555
H36 C45 1_555 1_555
C46 O17 1_555 1_555
C47 C46 1_555 1_555
H37 C47 1_555 1_555
C48 C47 1_555 1_555
H38 C48 1_555 1_555
C49 C48 1_555 1_555
C51 C46 1_555 1_555
H39 C51 1_555 1_555
O26 Eu4 1_555 1_555
O28 Eu4 1_555 1_555
C6 C7 1_555 1_555
C11 C12 1_555 1_555
C15 C16 1_555 1_555
C32 C33 1_555 1_555
C35 C44 1_555 1_555
C37 C38 1_555 1_555
C41 C42 1_555 1_555
O27 Eu6 1_555 1_555
O29 Eu6 1_555 1_555
Eu10 O32 1_555 1_555
O6 Eu8 1_555 1_555
O16 Eu10 1_555 1_555
Eu8 O33 1_555 1_555
H5_2 C8_2 1_555 1_555
H6_2 C8_2 1_555 1_555
O8_2 C19_2 1_555 1_555
O32 C24_2 1_555 1_555
O10_2 C24_2 1_555 1_555
H15_2 C19_2 1_555 1_555
H16_2 C19_2 1_555 1_555
C20_2 O8_2 1_555 1_555
C21_2 C20_2 1_555 1_555
H17_2 C21_2 1_555 1_555
C22_2 C21_2 1_555 1_555
H18_2 C22_2 1_555 1_555
C23_2 C22_2 1_555 1_555
C24_2 C23_2 1_555 1_555
C25_2 C20_2 1_555 1_555
H19_2 C25_2 1_555 1_555
C26_2 C23_2 1_555 1_555
H20_2 C26_2 1_555 1_555
C27_2 O22 1_555 1_555
O24 C27_2 1_555 1_555
C28_2 C27_2 1_555 1_555
C32_2 C31_2 1_555 1_555
H23_2 C32_2 1_555 1_555
C33_2 C28_2 1_555 1_555
H24_2 C33_2 1_555 1_555
O10_2 Eu10 1_555 1_555
C25_2 C26_2 1_555 1_555
C32_2 C33_2 1_555 1_555
O4_2 C10_2 1_555 1_555
O26 C17_2 1_555 1_555
O28 C17_2 1_555 1_555
O7_2 C18_2 1_555 1_555
C10_2 C9_2 1_555 1_555
H7_2 C10_2 1_555 1_555
H8_2 C10_2 1_555 1_555
C12_2 O4_2 1_555 1_555
C13_2 C14_2 1_555 1_555
C14_2 C11_2 1_555 1_555
H10_2 C14_2 1_555 1_555
C15_2 C13_2 1_555 1_555
H11_2 C15_2 1_555 1_555
C16_2 C12_2 1_555 1_555
H12_2 C16_2 1_555 1_555
C17_2 C13_2 1_555 1_555
C18_2 C9_2 1_555 1_555
H13_2 C18_2 1_555 1_555
H14_2 C18_2 1_555 1_555
H21_2 C29_2 1_555 1_555
C30_2 C29_2 1_555 1_555
H22_2 C30_2 1_555 1_555
C11_2 C12_2 1_555 1_555
C15_2 C16_2 1_555 1_555
C1_2 O21 1_555 1_555
O23 C1_2 1_555 1_555
C2_2 C1_2 1_555 1_555
C6_2 C5_2 1_555 1_555
H3_2 C6_2 1_555 1_555
C7_2 C2_2 1_555 1_555
H4_2 C7_2 1_555 1_555
H25_2 C34_2 1_555 1_555
H26_2 C34_2 1_555 1_555
O17_2 C45_2 1_555 1_555
O33 C50_2 1_555 1_555
O19_2 C50_2 1_555 1_555
H35_2 C45_2 1_555 1_555
H36_2 C45_2 1_555 1_555
C46_2 O17_2 1_555 1_555
C47_2 C46_2 1_555 1_555
H37_2 C47_2 1_555 1_555
C48_2 C47_2 1_555 1_555
H38_2 C48_2 1_555 1_555
C49_2 C48_2 1_555 1_555
C50_2 C49_2 1_555 1_555
C51_2 C46_2 1_555 1_555
H39_2 C51_2 1_555 1_555
C52_2 C49_2 1_555 1_555
H40_2 C52_2 1_555 1_555
C6_2 C7_2 1_555 1_555
O19_2 Eu8 1_555 1_555
C51_2 C52_2 1_555 1_555
H1_2 C3_2 1_555 1_555
C4_2 C3_2 1_555 1_555
H2_2 C4_2 1_555 1_555
O14_2 C36_2 1_555 1_555
O27 C43_2 1_555 1_555
O29 C43_2 1_555 1_555
C36_2 C35_2 1_555 1_555
H27_2 C36_2 1_555 1_555
H28_2 C36_2 1_555 1_555
C38_2 O14_2 1_555 1_555
C39_2 C40_2 1_555 1_555
C40_2 C37_2 1_555 1_555
H30_2 C40_2 1_555 1_555
C41_2 C39_2 1_555 1_555
H31_2 C41_2 1_555 1_555
C42_2 C38_2 1_555 1_555
H32_2 C42_2 1_555 1_555
C43_2 C39_2 1_555 1_555
C44_2 O7_3 1_555 1_555
H33_2 C44_2 1_555 1_555
H34_2 C44_2 1_555 1_555
C35_2 C44_2 1_555 1_555
C37_2 C38_2 1_555 1_555
C41_2 C42_2 1_555 1_555

#END
