
###############################################################################
#
# This file contains modified crystal structure data generated from the
# MOF subset of the Cambridge Structural Database (CSD) v543 
# hosted by the Cambridge Crystallographic Data Centre (CCDC).
#
# This work is licensed under the Creative Commons
# Attribution-NonCommercial-ShareAlike 4.0 International License.
# To view a copy of this license, visit
# http://creativecommons.org/licenses/by-nc-sa/4.0/
# or send a letter to
# Creative Commons, PO Box 1866, Mountain View, CA 94042, USA.
#
# CIF created using the CSD Python API on 29 September 2022
# The structure has been converted into the P1 space group
# The structure has a 3D framework
# The original CSD entry ESIBIU is in the monoclinic crystal system
# The original CSD entry ESIBIU is in a Sohncke space group
# The framework has been calculated to contain at least 10.0% void space
# The void calculation uses a probe of radius 1.32A, grid spacing 0.4
#
###############################################################################

data_ESIBIU
_chemical_formula_moiety         '(C104 H80 Nd2 O37)n'
_symmetry_cell_setting           triclinic
_symmetry_space_group_name_H-M   'P 1'
_symmetry_Int_Tables_number      1
_space_group_name_Hall           'P 1'
loop_
_symmetry_equiv_pos_site_id
_symmetry_equiv_pos_as_xyz
1 x,y,z
_cell_length_a                   32.839(3)
_cell_length_b                   7.2732(6)
_cell_length_c                   14.4753(16)
_cell_angle_alpha                90
_cell_angle_beta                 104.598(5)
_cell_angle_gamma                90
_cell_volume                     3345.74
loop_
_atom_site_label
_atom_site_type_symbol
_atom_site_fract_x
_atom_site_fract_y
_atom_site_fract_z
O6 O 0.28091(13) 0.1093(6) 0.8333(3)
H11 H 0.331119 0.052069 0.736844
O16 O 0.71909(13) 0.1093(6) 0.1667(3)
H31 H 0.668881 0.052069 0.263156
Nd8 Nd 0.25110(2) 0.19048(7) 0.96629(2)
Nd10 Nd 0.74890(2) 0.19048(7) 0.03371(2)
O30 O 0.26564(10) 0.0061(5) 0.1131(3)
O31 O 0.73436(10) 0.0061(5) 0.8869(3)
Nd6 Nd 0.24890(2) 0.69048(7) 0.03371(2)
O21 O 0.80321(10) 0.9631(5) 0.0414(3)
O23 O 0.82841(9) 0.6917(12) 0.0270(3)
O25 O 0.72001(11) 0.8759(5) 0.0682(3)
O32 O 0.76564(10) 0.5061(5) 0.1131(3)
C1 C 0.66592(15) 0.3512(8) 0.9431(4)
Nd1 Nd 0.75110(2) 0.69048(7) 0.96629(2)
O1 O 0.69679(10) 0.4631(5) 0.9586(3)
O2 O 0.67159(9) 0.1917(12) 0.9730(3)
C2 C 0.62352(16) 0.4098(8) 0.8887(4)
C3 C 0.61403(17) 0.5915(8) 0.8629(5)
H1 H 0.63419 0.682675 0.882751
O3 O 0.50675(11) 0.5579(6) 0.7213(3)
C4 C 0.57408(16) 0.6368(8) 0.8069(4)
H2 H 0.567535 0.75836 0.789252
O4 O 0.39713(12) 0.5440(6) 0.6835(3)
C5 C 0.54460(16) 0.5018(9) 0.7782(4)
O5 O 0.27999(11) 0.8759(5) 0.9318(3)
C6 C 0.55356(16) 0.3222(9) 0.8048(5)
H3 H 0.533155 0.231623 0.786108
C7 C 0.59328(16) 0.2771(8) 0.8599(4)
H4 H 0.599526 0.155371 0.877548
O7 O 0.500 0.5133(8) 0.500
C8 C 0.47943(16) 0.4184(9) 0.6725(4)
H5 H 0.465057 0.360297 0.715687
H6 H 0.495536 0.325217 0.64937
O8 O 0.39184(12) 0.4137(6) 0.4558(3)
C9 C 0.44729(15) 0.5048(8) 0.5886(4)
C10 C 0.41777(15) 0.6376(8) 0.6211(4)
H7 H 0.433664 0.740976 0.654225
H8 H 0.397018 0.684421 0.566098
C11 C 0.37134(19) 0.6476(10) 0.7224(5)
C12 C 0.3528(2) 0.5574(10) 0.7855(6)
H9 H 0.358042 0.432811 0.797541
C13 C 0.3267(2) 0.6506(12) 0.8311(5)
H10 H 0.314615 0.589205 0.87394
C14 C 0.31825(19) 0.8408(10) 0.8120(5)
C15 C 0.3363(2) 0.9275(10) 0.7489(5)
C16 C 0.3624(2) 0.8335(11) 0.7017(6)
H12 H 0.373582 0.893952 0.65712
C17 C 0.29177(17) 0.9470(10) 0.8612(5)
C18 C 0.46990(16) 0.6210(8) 0.5287(4)
H13 H 0.449631 0.668027 0.472873
H14 H 0.483563 0.7249 0.565894
C19 C 0.42426(16) 0.3450(8) 0.5315(4)
H15 H 0.44371 0.272106 0.506273
H16 H 0.412381 0.266872 0.572393
C20 C 0.3703(3) 0.2890(15) 0.3927(7)
C21 C 0.3361(2) 0.3612(10) 0.3236(6)
H17 H 0.330173 0.486201 0.32345
C22 C 0.3117(2) 0.2495(9) 0.2572(6)
H18 H 0.288704 0.298614 0.213005
C23 C 0.3205(2) 0.0631(10) 0.2537(6)
C25 C 0.3773(3) 0.1021(14) 0.3908(8)
H20 H 0.398888 0.050075 0.43788
C27 C 0.33408(15) 0.3512(8) 0.0569(4)
O11 O 0.30321(10) 0.4631(5) 0.0414(3)
O12 O 0.32841(9) 0.1917(12) 0.0270(3)
C28 C 0.37648(16) 0.4098(8) 0.1113(4)
C29 C 0.38597(17) 0.5915(8) 0.1371(5)
H21 H 0.36581 0.682675 0.117249
O13 O 0.49325(11) 0.5579(6) 0.2787(3)
C30 C 0.42592(16) 0.6368(8) 0.1931(4)
H22 H 0.432465 0.75836 0.210748
O14 O 0.60287(12) 0.5440(6) 0.3165(3)
C31 C 0.45540(16) 0.5018(9) 0.2218(4)
C32 C 0.44644(16) 0.3222(9) 0.1952(5)
H23 H 0.466845 0.231623 0.213892
C33 C 0.40672(16) 0.2771(8) 0.1401(4)
H24 H 0.400474 0.155371 0.122452
C34 C 0.52057(16) 0.4184(9) 0.3275(4)
H25 H 0.534943 0.360297 0.284313
H26 H 0.504464 0.325217 0.35063
O17 O 0.60816(12) 0.4137(6) 0.5442(3)
C35 C 0.55271(15) 0.5048(8) 0.4114(4)
C36 C 0.58223(15) 0.6376(8) 0.3789(4)
H27 H 0.566336 0.740976 0.345775
H28 H 0.602982 0.684421 0.433902
C37 C 0.62866(19) 0.6476(10) 0.2776(5)
C38 C 0.6472(2) 0.5574(10) 0.2145(6)
H29 H 0.641958 0.432811 0.202459
C39 C 0.6733(2) 0.6506(12) 0.1689(5)
H30 H 0.685385 0.589205 0.12606
C40 C 0.68175(19) 0.8408(10) 0.1880(5)
C41 C 0.6637(2) 0.9275(10) 0.2511(5)
C42 C 0.6376(2) 0.8335(11) 0.2983(6)
H32 H 0.626418 0.893952 0.34288
C43 C 0.70823(17) 0.9470(10) 0.1388(5)
C44 C 0.53010(16) 0.6210(8) 0.4713(4)
H33 H 0.550369 0.668027 0.527127
H34 H 0.516437 0.7249 0.434106
C45 C 0.57574(16) 0.3450(8) 0.4685(4)
H35 H 0.55629 0.272106 0.493727
H36 H 0.587619 0.266872 0.427607
C46 C 0.6297(3) 0.2890(15) 0.6073(7)
C47 C 0.6639(2) 0.3612(10) 0.6764(6)
H37 H 0.669827 0.486201 0.67655
C48 C 0.6883(2) 0.2495(9) 0.7428(6)
H38 H 0.711296 0.298614 0.786995
C49 C 0.6795(2) 0.0631(10) 0.7463(6)
C51 C 0.6227(3) 0.1021(14) 0.6092(8)
H40 H 0.601112 0.050075 0.56212
O26 O 0.77999(11) 0.3759(5) 0.9318(3)
O27 O 0.22001(11) 0.3759(5) 0.0682(3)
O28 O 0.78091(13) 0.6093(6) 0.8333(3)
O29 O 0.21909(13) 0.6093(6) 0.1667(3)
O34 O 0.30353(11) 0.7719(5) 0.1804(3)
O35 O 0.69647(11) 0.7719(5) 0.8196(3)
O20 O 0.19679(10) 0.9631(5) 0.9586(3)
O22 O 0.17159(9) 0.6917(12) 0.9730(3)
O33 O 0.23436(10) 0.5061(5) 0.8869(3)
C24 C 0.3535(2) 0.9915(11) 0.3217(6)
H19 H 0.35972 0.866843 0.320732
C26 C 0.29581(17) 0.9398(8) 0.1794(4)
C50 C 0.6465(2) 0.9915(11) 0.6783(6)
H39 H 0.64028 0.866843 0.679268
C52 C 0.70419(17) 0.9398(8) 0.8206(4)
C3_2 C 0.11403(17) 0.0915(8) 0.8629(5)
H1_2 H 0.13419 0.182675 0.882751
O3_2 O 0.00675(11) 0.0579(6) 0.7213(3)
C4_2 C 0.07408(16) 0.1368(8) 0.8069(4)
H2_2 H 0.067535 0.25836 0.789252
C5_2 C 0.04460(16) 0.0018(9) 0.7782(4)
O7_2 O 0.000 0.0133(8) 0.500
O14_2 O 0.10287(12) 0.0440(6) 0.3165(3)
C35_2 C 0.05271(15) 0.0048(8) 0.4114(4)
C36_2 C 0.08223(15) 0.1376(8) 0.3789(4)
H27_2 H 0.066336 0.240976 0.345775
H28_2 H 0.102982 0.184421 0.433902
C37_2 C 0.12866(19) 0.1476(10) 0.2776(5)
C38_2 C 0.1472(2) 0.0574(10) 0.2145(6)
C39_2 C 0.1733(2) 0.1506(12) 0.1689(5)
H30_2 H 0.185385 0.089205 0.12606
C40_2 C 0.18175(19) 0.3408(10) 0.1880(5)
C41_2 C 0.1637(2) 0.4275(10) 0.2511(5)
H31_2 H 0.168881 0.552069 0.263156
C42_2 C 0.1376(2) 0.3335(11) 0.2983(6)
H32_2 H 0.126418 0.393952 0.34288
C43_2 C 0.20823(17) 0.4470(10) 0.1388(5)
C44_2 C 0.03010(16) 0.1210(8) 0.4713(4)
H33_2 H 0.050369 0.168027 0.527127
H34_2 H 0.016437 0.2249 0.434106
O35_2 O 0.19647(11) 0.2719(5) 0.8196(3)
C1_2 C 0.16592(15) 0.8512(8) 0.9431(4)
C2_2 C 0.12352(16) 0.9098(8) 0.8887(4)
C6_2 C 0.05356(16) 0.8222(9) 0.8048(5)
H3_2 H 0.033155 0.731623 0.786108
C7_2 C 0.09328(16) 0.7771(8) 0.8599(4)
H4_2 H 0.099526 0.655371 0.877548
C34_2 C 0.02057(16) 0.9184(9) 0.3275(4)
H25_2 H 0.034943 0.860297 0.284313
H26_2 H 0.004464 0.825217 0.35063
O17_2 O 0.10816(12) 0.9137(6) 0.5442(3)
H29_2 H 0.141958 0.932811 0.202459
C45_2 C 0.07574(16) 0.8450(8) 0.4685(4)
H35_2 H 0.05629 0.772106 0.493727
H36_2 H 0.087619 0.766872 0.427607
C46_2 C 0.1297(3) 0.7890(15) 0.6073(7)
C47_2 C 0.1639(2) 0.8612(10) 0.6764(6)
H37_2 H 0.169827 0.986201 0.67655
C48_2 C 0.1883(2) 0.7495(9) 0.7428(6)
H38_2 H 0.211296 0.798614 0.786995
C49_2 C 0.1795(2) 0.5631(10) 0.7463(6)
C50_2 C 0.1465(2) 0.4915(11) 0.6783(6)
H39_2 H 0.14028 0.366843 0.679268
C51_2 C 0.1227(3) 0.6021(14) 0.6092(8)
H40_2 H 0.101112 0.550075 0.56212
C52_2 C 0.20419(17) 0.4398(8) 0.8206(4)
O4_2 O 0.89713(12) 0.0440(6) 0.6835(3)
O7_3 O 1.000 0.0133(8) 0.500
C9_2 C 0.94729(15) 0.0048(8) 0.5886(4)
C10_2 C 0.91777(15) 0.1376(8) 0.6211(4)
H7_2 H 0.933664 0.240976 0.654225
H8_2 H 0.897018 0.184421 0.566098
C11_2 C 0.87134(19) 0.1476(10) 0.7224(5)
C12_2 C 0.8528(2) 0.0574(10) 0.7855(6)
C13_2 C 0.8267(2) 0.1506(12) 0.8311(5)
H10_2 H 0.814615 0.089205 0.87394
C14_2 C 0.81825(19) 0.3408(10) 0.8120(5)
C15_2 C 0.8363(2) 0.4275(10) 0.7489(5)
H11_2 H 0.831119 0.552069 0.736844
C16_2 C 0.8624(2) 0.3335(11) 0.7017(6)
H12_2 H 0.873582 0.393952 0.65712
C17_2 C 0.79177(17) 0.4470(10) 0.8612(5)
C18_2 C 0.96990(16) 0.1210(8) 0.5287(4)
H13_2 H 0.949631 0.168027 0.472873
H14_2 H 0.983563 0.2249 0.565894
C29_2 C 0.88597(17) 0.0915(8) 0.1371(5)
H21_2 H 0.86581 0.182675 0.117249
O13_2 O 0.99325(11) 0.0579(6) 0.2787(3)
C30_2 C 0.92592(16) 0.1368(8) 0.1931(4)
H22_2 H 0.932465 0.25836 0.210748
C31_2 C 0.95540(16) 0.0018(9) 0.2218(4)
O34_2 O 0.80353(11) 0.2719(5) 0.1804(3)
C8_2 C 0.97943(16) 0.9184(9) 0.6725(4)
H5_2 H 0.965057 0.860297 0.715687
H6_2 H 0.995536 0.825217 0.64937
O8_2 O 0.89184(12) 0.9137(6) 0.4558(3)
H9_2 H 0.858042 0.932811 0.797541
C19_2 C 0.92426(16) 0.8450(8) 0.5315(4)
H15_2 H 0.94371 0.772106 0.506273
H16_2 H 0.912381 0.766872 0.572393
C20_2 C 0.8703(3) 0.7890(15) 0.3927(7)
C21_2 C 0.8361(2) 0.8612(10) 0.3236(6)
H17_2 H 0.830173 0.986201 0.32345
C22_2 C 0.8117(2) 0.7495(9) 0.2572(6)
H18_2 H 0.788704 0.798614 0.213005
C23_2 C 0.8205(2) 0.5631(10) 0.2537(6)
C24_2 C 0.8535(2) 0.4915(11) 0.3217(6)
H19_2 H 0.85972 0.366843 0.320732
C25_2 C 0.8773(3) 0.6021(14) 0.3908(8)
H20_2 H 0.898888 0.550075 0.43788
C26_2 C 0.79581(17) 0.4398(8) 0.1794(4)
C27_2 C 0.83408(15) 0.8512(8) 0.0569(4)
C28_2 C 0.87648(16) 0.9098(8) 0.1113(4)
C32_2 C 0.94644(16) 0.8222(9) 0.1952(5)
H23_2 H 0.966845 0.731623 0.213892
C33_2 C 0.90672(16) 0.7771(8) 0.1401(4)
H24_2 H 0.900474 0.655371 0.122452
loop_
_geom_bond_atom_site_label_1
_geom_bond_atom_site_label_2
_geom_bond_site_symmetry_1
_geom_bond_site_symmetry_2
O6 Nd8 1_555 1_555
O16 Nd10 1_555 1_555
Nd10 O32 1_555 1_555
C1 O1 1_555 1_555
Nd1 O1 1_555 1_555
O2 C1 1_555 1_555
C2 C1 1_555 1_555
C3 C2 1_555 1_555
H1 C3 1_555 1_555
O3 C5 1_555 1_555
C4 C3 1_555 1_555
H2 C4 1_555 1_555
O4 C10 1_555 1_555
C5 C4 1_555 1_555
O5 C17 1_555 1_555
C6 C5 1_555 1_555
H3 C6 1_555 1_555
C7 C2 1_555 1_555
H4 C7 1_555 1_555
O7 C18 1_555 1_555
C8 O3 1_555 1_555
H5 C8 1_555 1_555
H6 C8 1_555 1_555
O8 C19 1_555 1_555
C9 C8 1_555 1_555
C10 C9 1_555 1_555
H7 C10 1_555 1_555
H8 C10 1_555 1_555
C11 O4 1_555 1_555
C12 C11 1_555 1_555
H9 C12 1_555 1_555
C13 C12 1_555 1_555
H10 C13 1_555 1_555
C14 C13 1_555 1_555
C15 C14 1_555 1_555
C16 C11 1_555 1_555
H12 C16 1_555 1_555
C17 C14 1_555 1_555
C18 C9 1_555 1_555
H13 C18 1_555 1_555
H14 C18 1_555 1_555
C19 C9 1_555 1_555
H15 C19 1_555 1_555
H16 C19 1_555 1_555
C20 O8 1_555 1_555
C21 C20 1_555 1_555
H17 C21 1_555 1_555
C22 C21 1_555 1_555
H18 C22 1_555 1_555
C23 C22 1_555 1_555
C25 C20 1_555 1_555
H20 C25 1_555 1_555
C27 O11 1_555 1_555
O11 Nd6 1_555 1_555
O12 C27 1_555 1_555
C28 C27 1_555 1_555
C29 C28 1_555 1_555
H21 C29 1_555 1_555
O13 C31 1_555 1_555
C30 C29 1_555 1_555
H22 C30 1_555 1_555
O14 C36 1_555 1_555
C31 C30 1_555 1_555
O25 C43 1_555 1_555
C32 C31 1_555 1_555
H23 C32 1_555 1_555
C33 C28 1_555 1_555
H24 C33 1_555 1_555
C34 O13 1_555 1_555
H25 C34 1_555 1_555
H26 C34 1_555 1_555
O17 C45 1_555 1_555
C35 C34 1_555 1_555
C36 C35 1_555 1_555
H27 C36 1_555 1_555
H28 C36 1_555 1_555
C37 O14 1_555 1_555
C38 C37 1_555 1_555
H29 C38 1_555 1_555
C39 C38 1_555 1_555
H30 C39 1_555 1_555
C40 C39 1_555 1_555
C41 C40 1_555 1_555
C42 C37 1_555 1_555
H32 C42 1_555 1_555
C43 C40 1_555 1_555
C44 O7 1_555 1_555
H33 C44 1_555 1_555
H34 C44 1_555 1_555
C45 C35 1_555 1_555
H35 C45 1_555 1_555
H36 C45 1_555 1_555
C46 O17 1_555 1_555
C47 C46 1_555 1_555
H37 C47 1_555 1_555
C48 C47 1_555 1_555
H38 C48 1_555 1_555
C49 C48 1_555 1_555
C51 C46 1_555 1_555
H40 C51 1_555 1_555
O26 Nd1 1_555 1_555
O27 Nd6 1_555 1_555
O28 Nd1 1_555 1_555
O29 Nd6 1_555 1_555
O34 Nd6 1_555 1_555
O35 Nd1 1_555 1_555
C6 C7 1_555 1_555
C15 C16 1_555 1_555
C32 C33 1_555 1_555
C35 C44 1_555 1_555
C41 C42 1_555 1_555
Nd8 O33 1_555 1_555
O34 C26 1_555 1_555
H19 C24 1_555 1_555
O35 C52 1_555 1_555
H39 C50 1_555 1_555
H1_2 C3_2 1_555 1_555
O3_2 C5_2 1_555 1_555
C4_2 C3_2 1_555 1_555
H2_2 C4_2 1_555 1_555
C5_2 C4_2 1_555 1_555
O14_2 C36_2 1_555 1_555
O27 C43_2 1_555 1_555
O29 C43_2 1_555 1_555
C36_2 C35_2 1_555 1_555
H27_2 C36_2 1_555 1_555
H28_2 C36_2 1_555 1_555
C37_2 O14_2 1_555 1_555
C38_2 C37_2 1_555 1_555
C39_2 C38_2 1_555 1_555
H30_2 C39_2 1_555 1_555
C40_2 C39_2 1_555 1_555
C41_2 C40_2 1_555 1_555
H31_2 C41_2 1_555 1_555
C42_2 C37_2 1_555 1_555
H32_2 C42_2 1_555 1_555
C43_2 C40_2 1_555 1_555
C44_2 O7_2 1_555 1_555
H33_2 C44_2 1_555 1_555
H34_2 C44_2 1_555 1_555
O35_2 Nd8 1_555 1_555
C35_2 C44_2 1_555 1_555
C41_2 C42_2 1_555 1_555
C1_2 O20 1_555 1_555
O22 C1_2 1_555 1_555
C2_2 C1_2 1_555 1_555
H3_2 C6_2 1_555 1_555
C7_2 C2_2 1_555 1_555
H4_2 C7_2 1_555 1_555
H25_2 C34_2 1_555 1_555
H26_2 C34_2 1_555 1_555
O17_2 C45_2 1_555 1_555
O33 C52_2 1_555 1_555
O35_2 C52_2 1_555 1_555
H35_2 C45_2 1_555 1_555
H36_2 C45_2 1_555 1_555
C46_2 O17_2 1_555 1_555
C47_2 C46_2 1_555 1_555
H37_2 C47_2 1_555 1_555
C48_2 C47_2 1_555 1_555
H38_2 C48_2 1_555 1_555
C49_2 C48_2 1_555 1_555
C50_2 C49_2 1_555 1_555
H39_2 C50_2 1_555 1_555
C51_2 C46_2 1_555 1_555
H40_2 C51_2 1_555 1_555
C52_2 C49_2 1_555 1_555
C6_2 C7_2 1_555 1_555
C50_2 C51_2 1_555 1_555
O4_2 C10_2 1_555 1_555
O26 C17_2 1_555 1_555
O28 C17_2 1_555 1_555
O7_3 C18_2 1_555 1_555
C10_2 C9_2 1_555 1_555
H7_2 C10_2 1_555 1_555
H8_2 C10_2 1_555 1_555
C11_2 O4_2 1_555 1_555
C12_2 C11_2 1_555 1_555
C13_2 C12_2 1_555 1_555
H10_2 C13_2 1_555 1_555
C14_2 C13_2 1_555 1_555
C15_2 C14_2 1_555 1_555
H11_2 C15_2 1_555 1_555
C16_2 C11_2 1_555 1_555
H12_2 C16_2 1_555 1_555
C17_2 C14_2 1_555 1_555
C18_2 C9_2 1_555 1_555
H13_2 C18_2 1_555 1_555
H14_2 C18_2 1_555 1_555
H21_2 C29_2 1_555 1_555
O13_2 C31_2 1_555 1_555
C30_2 C29_2 1_555 1_555
H22_2 C30_2 1_555 1_555
C31_2 C30_2 1_555 1_555
O34_2 Nd10 1_555 1_555
C15_2 C16_2 1_555 1_555
H5_2 C8_2 1_555 1_555
H6_2 C8_2 1_555 1_555
O8_2 C19_2 1_555 1_555
O32 C26_2 1_555 1_555
O34_2 C26_2 1_555 1_555
H15_2 C19_2 1_555 1_555
H16_2 C19_2 1_555 1_555
C20_2 O8_2 1_555 1_555
C21_2 C20_2 1_555 1_555
H17_2 C21_2 1_555 1_555
C22_2 C21_2 1_555 1_555
H18_2 C22_2 1_555 1_555
C23_2 C22_2 1_555 1_555
C24_2 C23_2 1_555 1_555
H19_2 C24_2 1_555 1_555
C25_2 C20_2 1_555 1_555
H20_2 C25_2 1_555 1_555
C26_2 C23_2 1_555 1_555
C27_2 O21 1_555 1_555
O23 C27_2 1_555 1_555
C28_2 C27_2 1_555 1_555
H23_2 C32_2 1_555 1_555
C33_2 C28_2 1_555 1_555
H24_2 C33_2 1_555 1_555
C24_2 C25_2 1_555 1_555
C32_2 C33_2 1_555 1_555

#END
