
###############################################################################
#
# This file contains modified crystal structure data generated from the
# MOF subset of the Cambridge Structural Database (CSD) v543 
# hosted by the Cambridge Crystallographic Data Centre (CCDC).
#
# This work is licensed under the Creative Commons
# Attribution-NonCommercial-ShareAlike 4.0 International License.
# To view a copy of this license, visit
# http://creativecommons.org/licenses/by-nc-sa/4.0/
# or send a letter to
# Creative Commons, PO Box 1866, Mountain View, CA 94042, USA.
#
# CIF created using the CSD Python API on 29 September 2022
# The structure has been converted into the P1 space group
# The structure has a 3D framework
# The original CSD entry ESIBEQ is in the monoclinic crystal system
# The original CSD entry ESIBEQ is in a Sohncke space group
# The framework has been calculated to contain at least 10.0% void space
# The void calculation uses a probe of radius 1.32A, grid spacing 0.4
#
###############################################################################

data_ESIBEQ
_chemical_formula_moiety         '(C104 H80 Gd2 O37)n'
_symmetry_cell_setting           triclinic
_symmetry_space_group_name_H-M   'P 1'
_symmetry_Int_Tables_number      1
_space_group_name_Hall           'P 1'
loop_
_symmetry_equiv_pos_site_id
_symmetry_equiv_pos_as_xyz
1 x,y,z
_cell_length_a                   32.5962(15)
_cell_length_b                   7.1384(3)
_cell_length_c                   14.6229(7)
_cell_angle_alpha                90
_cell_angle_beta                 104.348(3)
_cell_angle_gamma                90
_cell_volume                     3296.4
loop_
_atom_site_label
_atom_site_type_symbol
_atom_site_fract_x
_atom_site_fract_y
_atom_site_fract_z
O6 O 0.2832(2) 0.1193(8) 0.8422(5)
H11 H 0.331478 0.057847 0.739270
O16 O 0.7168(2) 0.1193(8) 0.1578(5)
H31 H 0.668522 0.057847 0.260730
Gd8 Gd 0.25124(2) 0.19049(9) 0.96918(2)
Gd10 Gd 0.74876(2) 0.19049(9) 0.03082(2)
O30 O 0.26412(17) 0.0050(8) 0.1102(4)
O31 O 0.73588(17) 0.0050(8) 0.8898(4)
Gd6 Gd 0.24876(2) 0.69049(9) 0.03082(2)
O21 O 0.80316(17) 0.9686(8) 0.0404(4)
O23 O 0.82741(14) 0.6868(18) 0.0333(4)
O25 O 0.72053(18) 0.8784(8) 0.0663(4)
O32 O 0.76412(17) 0.5050(8) 0.1102(4)
C1 C 0.6661(2) 0.3520(13) 0.9413(6)
Gd1 Gd 0.75124(2) 0.69049(9) 0.96918(2)
O1 O 0.69684(17) 0.4686(8) 0.9596(4)
O2 O 0.67259(14) 0.1868(18) 0.9667(4)
C2 C 0.6233(2) 0.4114(12) 0.8870(6)
C3 C 0.6128(3) 0.5965(13) 0.8625(7)
H1 H 0.632629 0.690787 0.883021
O3 O 0.50565(18) 0.5574(9) 0.7201(4)
C4 C 0.5729(3) 0.6411(12) 0.8074(6)
H2 H 0.565913 0.765305 0.791661
O4 O 0.3958(2) 0.5435(9) 0.6816(5)
C5 C 0.5435(2) 0.5019(13) 0.7758(6)
O5 O 0.27947(18) 0.8784(8) 0.9337(4)
C6 C 0.5534(3) 0.3186(14) 0.8006(7)
H3 H 0.533470 0.224669 0.780106
C7 C 0.5933(3) 0.2743(14) 0.8563(7)
H4 H 0.599861 0.150231 0.873128
O7 O 0.500000 0.5132(12) 0.500000
C8 C 0.4782(3) 0.4164(13) 0.6697(6)
H5 H 0.463429 0.355472 0.711490
H6 H 0.494719 0.322422 0.646779
O8 O 0.39114(19) 0.4127(9) 0.4536(4)
C9 C 0.4464(2) 0.5043(12) 0.5870(5)
C10 C 0.4166(2) 0.6381(12) 0.6194(6)
H7 H 0.432461 0.743864 0.651768
H8 H 0.395654 0.685214 0.565054
C11 C 0.3704(3) 0.6472(12) 0.7214(7)
C12 C 0.3522(3) 0.5564(15) 0.7857(8)
H9 H 0.357452 0.429458 0.797248
C13 C 0.3268(3) 0.6498(14) 0.8325(7)
H10 H 0.315065 0.586566 0.875432
C14 C 0.3186(3) 0.8425(14) 0.8151(7)
C15 C 0.3368(3) 0.9310(15) 0.7513(7)
C16 C 0.3625(3) 0.8374(16) 0.7048(8)
H12 H 0.374525 0.901027 0.662389
C17 C 0.2925(3) 0.9530(13) 0.8655(6)
C18 C 0.4699(2) 0.6203(12) 0.5290(6)
H13 H 0.449864 0.670324 0.474039
H14 H 0.483791 0.724919 0.566550
C19 C 0.4232(2) 0.3410(12) 0.5299(6)
H15 H 0.442922 0.265333 0.505949
H16 H 0.410539 0.262521 0.569757
C20 C 0.3689(4) 0.290(2) 0.3907(10)
C21 C 0.3352(3) 0.3626(15) 0.3216(8)
H17 H 0.329244 0.490076 0.320925
C22 C 0.3107(3) 0.2475(12) 0.2546(7)
H18 H 0.287689 0.297445 0.210513
C23 C 0.3196(3) 0.0582(14) 0.2516(7)
C25 C 0.3769(5) 0.100(2) 0.3877(11)
H20 H 0.398947 0.048832 0.433632
C27 C 0.3339(2) 0.3520(13) 0.0587(6)
O11 O 0.30316(17) 0.4686(8) 0.0404(4)
O12 O 0.32741(14) 0.1868(18) 0.0333(4)
C28 C 0.3767(2) 0.4114(12) 0.1130(6)
C29 C 0.3872(3) 0.5965(13) 0.1375(7)
H21 H 0.367371 0.690787 0.116979
O13 O 0.49435(18) 0.5574(9) 0.2799(4)
C30 C 0.4271(3) 0.6411(12) 0.1926(6)
H22 H 0.434087 0.765305 0.208339
O14 O 0.6042(2) 0.5435(9) 0.3184(5)
C31 C 0.4565(2) 0.5019(13) 0.2242(6)
C32 C 0.4466(3) 0.3186(14) 0.1994(7)
H23 H 0.466530 0.224669 0.219894
C33 C 0.4067(3) 0.2743(14) 0.1437(7)
H24 H 0.400139 0.150231 0.126872
C34 C 0.5218(3) 0.4164(13) 0.3303(6)
H25 H 0.536571 0.355472 0.288510
H26 H 0.505281 0.322422 0.353221
O17 O 0.60886(19) 0.4127(9) 0.5464(4)
C35 C 0.5536(2) 0.5043(12) 0.4130(5)
C36 C 0.5834(2) 0.6381(12) 0.3806(6)
H27 H 0.567539 0.743864 0.348232
H28 H 0.604346 0.685214 0.434946
C37 C 0.6296(3) 0.6472(12) 0.2786(7)
C38 C 0.6478(3) 0.5564(15) 0.2143(8)
H29 H 0.642548 0.429458 0.202752
C39 C 0.6732(3) 0.6498(14) 0.1675(7)
H30 H 0.684935 0.586566 0.124568
C40 C 0.6814(3) 0.8425(14) 0.1849(7)
C41 C 0.6632(3) 0.9310(15) 0.2487(7)
C42 C 0.6375(3) 0.8374(16) 0.2952(8)
H32 H 0.625475 0.901027 0.337611
C43 C 0.7075(3) 0.9530(13) 0.1345(6)
C44 C 0.5301(2) 0.6203(12) 0.4710(6)
H33 H 0.550136 0.670324 0.525961
H34 H 0.516209 0.724919 0.433450
C45 C 0.5768(2) 0.3410(12) 0.4701(6)
H35 H 0.557078 0.265333 0.494051
H36 H 0.589461 0.262521 0.430243
C46 C 0.6311(4) 0.290(2) 0.6093(10)
C47 C 0.6648(3) 0.3626(15) 0.6784(8)
H37 H 0.670756 0.490076 0.679075
C48 C 0.6893(3) 0.2475(12) 0.7454(7)
H38 H 0.712311 0.297445 0.789487
C49 C 0.6804(3) 0.0582(14) 0.7484(7)
C51 C 0.6231(5) 0.100(2) 0.6123(11)
H40 H 0.601053 0.048832 0.566368
O26 O 0.77947(18) 0.3784(8) 0.9337(4)
O27 O 0.22053(18) 0.3784(8) 0.0663(4)
O28 O 0.7832(2) 0.6193(8) 0.8422(5)
O29 O 0.2168(2) 0.6193(8) 0.1578(5)
O34 O 0.30211(19) 0.7649(8) 0.1753(4)
O35 O 0.69789(19) 0.7649(8) 0.8247(4)
O20 O 0.19684(17) 0.9686(8) 0.9596(4)
O22 O 0.17259(14) 0.6868(18) 0.9667(4)
O33 O 0.23588(17) 0.5050(8) 0.8898(4)
C24 C 0.3534(3) 0.9864(16) 0.3195(8)
H19 H 0.360213 0.860005 0.318616
C26 C 0.2948(3) 0.9355(12) 0.1763(5)
C50 C 0.6466(3) 0.9864(16) 0.6805(8)
H39 H 0.639787 0.860005 0.681384
C52 C 0.7052(3) 0.9355(12) 0.8237(5)
C3_2 C 0.1128(3) 0.0965(13) 0.8625(7)
H1_2 H 0.132629 0.190787 0.883021
O3_2 O 0.00565(18) 0.0574(9) 0.7201(4)
C4_2 C 0.0729(3) 0.1411(12) 0.8074(6)
H2_2 H 0.065913 0.265305 0.791661
C5_2 C 0.0435(2) 0.0019(13) 0.7758(6)
O7_2 O 0.000000 0.0132(12) 0.500000
O14_2 O 0.1042(2) 0.0435(9) 0.3184(5)
C35_2 C 0.0536(2) 0.0043(12) 0.4130(5)
C36_2 C 0.0834(2) 0.1381(12) 0.3806(6)
H27_2 H 0.067539 0.243864 0.348232
H28_2 H 0.104346 0.185214 0.434946
C37_2 C 0.1296(3) 0.1472(12) 0.2786(7)
C38_2 C 0.1478(3) 0.0564(15) 0.2143(8)
C39_2 C 0.1732(3) 0.1498(14) 0.1675(7)
H30_2 H 0.184935 0.086566 0.124568
C40_2 C 0.1814(3) 0.3425(14) 0.1849(7)
C41_2 C 0.1632(3) 0.4310(15) 0.2487(7)
H31_2 H 0.168522 0.557847 0.260730
C42_2 C 0.1375(3) 0.3374(16) 0.2952(8)
H32_2 H 0.125475 0.401027 0.337611
C43_2 C 0.2075(3) 0.4530(13) 0.1345(6)
C44_2 C 0.0301(2) 0.1203(12) 0.4710(6)
H33_2 H 0.050136 0.170324 0.525961
H34_2 H 0.016209 0.224919 0.433450
O35_2 O 0.19789(19) 0.2649(8) 0.8247(4)
C1_2 C 0.1661(2) 0.8520(13) 0.9413(6)
C2_2 C 0.1233(2) 0.9114(12) 0.8870(6)
C6_2 C 0.0534(3) 0.8186(14) 0.8006(7)
H3_2 H 0.033470 0.724669 0.780106
C7_2 C 0.0933(3) 0.7743(14) 0.8563(7)
H4_2 H 0.099861 0.650231 0.873128
C34_2 C 0.0218(3) 0.9164(13) 0.3303(6)
H25_2 H 0.036571 0.855472 0.288510
H26_2 H 0.005281 0.822422 0.353221
O17_2 O 0.10886(19) 0.9127(9) 0.5464(4)
H29_2 H 0.142548 0.929458 0.202752
C45_2 C 0.0768(2) 0.8410(12) 0.4701(6)
H35_2 H 0.057078 0.765333 0.494051
H36_2 H 0.089461 0.762521 0.430243
C46_2 C 0.1311(4) 0.790(2) 0.6093(10)
C47_2 C 0.1648(3) 0.8626(15) 0.6784(8)
H37_2 H 0.170756 0.990076 0.679075
C48_2 C 0.1893(3) 0.7475(12) 0.7454(7)
H38_2 H 0.212311 0.797445 0.789487
C49_2 C 0.1804(3) 0.5582(14) 0.7484(7)
C50_2 C 0.1466(3) 0.4864(16) 0.6805(8)
H39_2 H 0.139787 0.360005 0.681384
C51_2 C 0.1231(5) 0.600(2) 0.6123(11)
H40_2 H 0.101053 0.548832 0.566368
C52_2 C 0.2052(3) 0.4355(12) 0.8237(5)
O4_2 O 0.8958(2) 0.0435(9) 0.6816(5)
O7_3 O 1.000000 0.0132(12) 0.500000
C9_2 C 0.9464(2) 0.0043(12) 0.5870(5)
C10_2 C 0.9166(2) 0.1381(12) 0.6194(6)
H7_2 H 0.932461 0.243864 0.651768
H8_2 H 0.895654 0.185214 0.565054
C11_2 C 0.8704(3) 0.1472(12) 0.7214(7)
C12_2 C 0.8522(3) 0.0564(15) 0.7857(8)
C13_2 C 0.8268(3) 0.1498(14) 0.8325(7)
H10_2 H 0.815065 0.086566 0.875432
C14_2 C 0.8186(3) 0.3425(14) 0.8151(7)
C15_2 C 0.8368(3) 0.4310(15) 0.7513(7)
H11_2 H 0.831478 0.557847 0.739270
C16_2 C 0.8625(3) 0.3374(16) 0.7048(8)
H12_2 H 0.874525 0.401027 0.662389
C17_2 C 0.7925(3) 0.4530(13) 0.8655(6)
C18_2 C 0.9699(2) 0.1203(12) 0.5290(6)
H13_2 H 0.949864 0.170324 0.474039
H14_2 H 0.983791 0.224919 0.566550
C29_2 C 0.8872(3) 0.0965(13) 0.1375(7)
H21_2 H 0.867371 0.190787 0.116979
O13_2 O 0.99435(18) 0.0574(9) 0.2799(4)
C30_2 C 0.9271(3) 0.1411(12) 0.1926(6)
H22_2 H 0.934087 0.265305 0.208339
C31_2 C 0.9565(2) 0.0019(13) 0.2242(6)
O34_2 O 0.80211(19) 0.2649(8) 0.1753(4)
C8_2 C 0.9782(3) 0.9164(13) 0.6697(6)
H5_2 H 0.963429 0.855472 0.711490
H6_2 H 0.994719 0.822422 0.646779
O8_2 O 0.89114(19) 0.9127(9) 0.4536(4)
H9_2 H 0.857452 0.929458 0.797248
C19_2 C 0.9232(2) 0.8410(12) 0.5299(6)
H15_2 H 0.942922 0.765333 0.505949
H16_2 H 0.910539 0.762521 0.569757
C20_2 C 0.8689(4) 0.790(2) 0.3907(10)
C21_2 C 0.8352(3) 0.8626(15) 0.3216(8)
H17_2 H 0.829244 0.990076 0.320925
C22_2 C 0.8107(3) 0.7475(12) 0.2546(7)
H18_2 H 0.787689 0.797445 0.210513
C23_2 C 0.8196(3) 0.5582(14) 0.2516(7)
C24_2 C 0.8534(3) 0.4864(16) 0.3195(8)
H19_2 H 0.860213 0.360005 0.318616
C25_2 C 0.8769(5) 0.600(2) 0.3877(11)
H20_2 H 0.898947 0.548832 0.433632
C26_2 C 0.7948(3) 0.4355(12) 0.1763(5)
C27_2 C 0.8339(2) 0.8520(13) 0.0587(6)
C28_2 C 0.8767(2) 0.9114(12) 0.1130(6)
C32_2 C 0.9466(3) 0.8186(14) 0.1994(7)
H23_2 H 0.966530 0.724669 0.219894
C33_2 C 0.9067(3) 0.7743(14) 0.1437(7)
H24_2 H 0.900139 0.650231 0.126872
loop_
_geom_bond_atom_site_label_1
_geom_bond_atom_site_label_2
_geom_bond_site_symmetry_1
_geom_bond_site_symmetry_2
O6 Gd8 1_555 1_555
O16 Gd10 1_555 1_555
Gd10 O32 1_555 1_555
C1 O1 1_555 1_555
Gd1 O1 1_555 1_555
O2 C1 1_555 1_555
C2 C1 1_555 1_555
C3 C2 1_555 1_555
H1 C3 1_555 1_555
O3 C5 1_555 1_555
C4 C3 1_555 1_555
H2 C4 1_555 1_555
O4 C10 1_555 1_555
C5 C4 1_555 1_555
O5 C17 1_555 1_555
C6 C5 1_555 1_555
H3 C6 1_555 1_555
C7 C2 1_555 1_555
H4 C7 1_555 1_555
O7 C18 1_555 1_555
C8 O3 1_555 1_555
H5 C8 1_555 1_555
H6 C8 1_555 1_555
O8 C19 1_555 1_555
C9 C8 1_555 1_555
C10 C9 1_555 1_555
H7 C10 1_555 1_555
H8 C10 1_555 1_555
C11 O4 1_555 1_555
C12 C11 1_555 1_555
H9 C12 1_555 1_555
C13 C12 1_555 1_555
H10 C13 1_555 1_555
C14 C13 1_555 1_555
C15 C14 1_555 1_555
C16 C11 1_555 1_555
H12 C16 1_555 1_555
C17 C14 1_555 1_555
C18 C9 1_555 1_555
H13 C18 1_555 1_555
H14 C18 1_555 1_555
C19 C9 1_555 1_555
H15 C19 1_555 1_555
H16 C19 1_555 1_555
C20 O8 1_555 1_555
C21 C20 1_555 1_555
H17 C21 1_555 1_555
C22 C21 1_555 1_555
H18 C22 1_555 1_555
C23 C22 1_555 1_555
C25 C20 1_555 1_555
H20 C25 1_555 1_555
C27 O11 1_555 1_555
O11 Gd6 1_555 1_555
O12 C27 1_555 1_555
C28 C27 1_555 1_555
C29 C28 1_555 1_555
H21 C29 1_555 1_555
O13 C31 1_555 1_555
C30 C29 1_555 1_555
H22 C30 1_555 1_555
O14 C36 1_555 1_555
C31 C30 1_555 1_555
O25 C43 1_555 1_555
C32 C31 1_555 1_555
H23 C32 1_555 1_555
C33 C28 1_555 1_555
H24 C33 1_555 1_555
C34 O13 1_555 1_555
H25 C34 1_555 1_555
H26 C34 1_555 1_555
O17 C45 1_555 1_555
C35 C34 1_555 1_555
C36 C35 1_555 1_555
H27 C36 1_555 1_555
H28 C36 1_555 1_555
C37 O14 1_555 1_555
C38 C37 1_555 1_555
H29 C38 1_555 1_555
C39 C38 1_555 1_555
H30 C39 1_555 1_555
C40 C39 1_555 1_555
C41 C40 1_555 1_555
C42 C37 1_555 1_555
H32 C42 1_555 1_555
C43 C40 1_555 1_555
C44 O7 1_555 1_555
H33 C44 1_555 1_555
H34 C44 1_555 1_555
C45 C35 1_555 1_555
H35 C45 1_555 1_555
H36 C45 1_555 1_555
C46 O17 1_555 1_555
C47 C46 1_555 1_555
H37 C47 1_555 1_555
C48 C47 1_555 1_555
H38 C48 1_555 1_555
C49 C48 1_555 1_555
C51 C46 1_555 1_555
H40 C51 1_555 1_555
O26 Gd1 1_555 1_555
O27 Gd6 1_555 1_555
O28 Gd1 1_555 1_555
O29 Gd6 1_555 1_555
O34 Gd6 1_555 1_555
O35 Gd1 1_555 1_555
C6 C7 1_555 1_555
C15 C16 1_555 1_555
C32 C33 1_555 1_555
C35 C44 1_555 1_555
C41 C42 1_555 1_555
Gd8 O33 1_555 1_555
O34 C26 1_555 1_555
H19 C24 1_555 1_555
O35 C52 1_555 1_555
H39 C50 1_555 1_555
H1_2 C3_2 1_555 1_555
O3_2 C5_2 1_555 1_555
C4_2 C3_2 1_555 1_555
H2_2 C4_2 1_555 1_555
C5_2 C4_2 1_555 1_555
O14_2 C36_2 1_555 1_555
O27 C43_2 1_555 1_555
O29 C43_2 1_555 1_555
C36_2 C35_2 1_555 1_555
H27_2 C36_2 1_555 1_555
H28_2 C36_2 1_555 1_555
C37_2 O14_2 1_555 1_555
C38_2 C37_2 1_555 1_555
C39_2 C38_2 1_555 1_555
H30_2 C39_2 1_555 1_555
C40_2 C39_2 1_555 1_555
C41_2 C40_2 1_555 1_555
H31_2 C41_2 1_555 1_555
C42_2 C37_2 1_555 1_555
H32_2 C42_2 1_555 1_555
C43_2 C40_2 1_555 1_555
C44_2 O7_2 1_555 1_555
H33_2 C44_2 1_555 1_555
H34_2 C44_2 1_555 1_555
O35_2 Gd8 1_555 1_555
C35_2 C44_2 1_555 1_555
C41_2 C42_2 1_555 1_555
C1_2 O20 1_555 1_555
O22 C1_2 1_555 1_555
C2_2 C1_2 1_555 1_555
H3_2 C6_2 1_555 1_555
C7_2 C2_2 1_555 1_555
H4_2 C7_2 1_555 1_555
H25_2 C34_2 1_555 1_555
H26_2 C34_2 1_555 1_555
O17_2 C45_2 1_555 1_555
O33 C52_2 1_555 1_555
O35_2 C52_2 1_555 1_555
H35_2 C45_2 1_555 1_555
H36_2 C45_2 1_555 1_555
C46_2 O17_2 1_555 1_555
C47_2 C46_2 1_555 1_555
H37_2 C47_2 1_555 1_555
C48_2 C47_2 1_555 1_555
H38_2 C48_2 1_555 1_555
C49_2 C48_2 1_555 1_555
C50_2 C49_2 1_555 1_555
H39_2 C50_2 1_555 1_555
C51_2 C46_2 1_555 1_555
H40_2 C51_2 1_555 1_555
C52_2 C49_2 1_555 1_555
C6_2 C7_2 1_555 1_555
C50_2 C51_2 1_555 1_555
O4_2 C10_2 1_555 1_555
O26 C17_2 1_555 1_555
O28 C17_2 1_555 1_555
O7_3 C18_2 1_555 1_555
C10_2 C9_2 1_555 1_555
H7_2 C10_2 1_555 1_555
H8_2 C10_2 1_555 1_555
C11_2 O4_2 1_555 1_555
C12_2 C11_2 1_555 1_555
C13_2 C12_2 1_555 1_555
H10_2 C13_2 1_555 1_555
C14_2 C13_2 1_555 1_555
C15_2 C14_2 1_555 1_555
H11_2 C15_2 1_555 1_555
C16_2 C11_2 1_555 1_555
H12_2 C16_2 1_555 1_555
C17_2 C14_2 1_555 1_555
C18_2 C9_2 1_555 1_555
H13_2 C18_2 1_555 1_555
H14_2 C18_2 1_555 1_555
H21_2 C29_2 1_555 1_555
O13_2 C31_2 1_555 1_555
C30_2 C29_2 1_555 1_555
H22_2 C30_2 1_555 1_555
C31_2 C30_2 1_555 1_555
O34_2 Gd10 1_555 1_555
C15_2 C16_2 1_555 1_555
H5_2 C8_2 1_555 1_555
H6_2 C8_2 1_555 1_555
O8_2 C19_2 1_555 1_555
O32 C26_2 1_555 1_555
O34_2 C26_2 1_555 1_555
H15_2 C19_2 1_555 1_555
H16_2 C19_2 1_555 1_555
C20_2 O8_2 1_555 1_555
C21_2 C20_2 1_555 1_555
H17_2 C21_2 1_555 1_555
C22_2 C21_2 1_555 1_555
H18_2 C22_2 1_555 1_555
C23_2 C22_2 1_555 1_555
C24_2 C23_2 1_555 1_555
H19_2 C24_2 1_555 1_555
C25_2 C20_2 1_555 1_555
H20_2 C25_2 1_555 1_555
C26_2 C23_2 1_555 1_555
C27_2 O21 1_555 1_555
O23 C27_2 1_555 1_555
C28_2 C27_2 1_555 1_555
H23_2 C32_2 1_555 1_555
C33_2 C28_2 1_555 1_555
H24_2 C33_2 1_555 1_555
C24_2 C25_2 1_555 1_555
C32_2 C33_2 1_555 1_555

#END
