
###############################################################################
#
# This file contains modified crystal structure data generated from the
# MOF subset of the Cambridge Structural Database (CSD) v543 
# hosted by the Cambridge Crystallographic Data Centre (CCDC).
#
# This work is licensed under the Creative Commons
# Attribution-NonCommercial-ShareAlike 4.0 International License.
# To view a copy of this license, visit
# http://creativecommons.org/licenses/by-nc-sa/4.0/
# or send a letter to
# Creative Commons, PO Box 1866, Mountain View, CA 94042, USA.
#
# CIF created using the CSD Python API on 29 September 2022
# The structure has been converted into the P1 space group
# The structure has a 3D framework
# The original CSD entry ESOQAH is in the rhombohedral crystal system
# The original CSD entry ESOQAH is in a Sohncke space group
# The framework has been calculated to contain at least 10.0% void space
# The void calculation uses a probe of radius 1.32A, grid spacing 0.4
#
###############################################################################

data_ESOQAH
_chemical_formula_moiety         '(C36 H36 Eu10 Na12 O52)n'
_symmetry_cell_setting           triclinic
_symmetry_space_group_name_H-M   'P 1'
_symmetry_Int_Tables_number      1
_space_group_name_Hall           'P 1'
loop_
_symmetry_equiv_pos_site_id
_symmetry_equiv_pos_as_xyz
1 x,y,z
_cell_length_a                   9.6178(7)
_cell_length_b                   9.6178(7)
_cell_length_c                   20.781(2)
_cell_angle_alpha                90
_cell_angle_beta                 90
_cell_angle_gamma                120
_cell_volume                     1664.75
loop_
_atom_site_label
_atom_site_type_symbol
_atom_site_fract_x
_atom_site_fract_y
_atom_site_fract_z
Na8 Na 0.000000 -0.000000 0.16699(19)
C9 C 0.0031(13) 0.5313(9) 0.4150(4)
C11 C 0.0525(16) 0.6132(10) 0.3738(5)
O20 O 0.1103(9) 0.4699(7) 0.4488(3)
H9 H 0.110277 0.723631 0.388608
H10 H 0.126576 0.591649 0.350055
H12 H 0.056964 0.776944 0.278059
Na7 Na 0.333333 0.666667 0.49968(19)
Na8_2 Na 0.000000 1.000000 0.16699(19)
Na8_3 Na 1.000000 -0.000000 0.16699(19)
Eu1 Eu 0.666667 0.333333 0.333333
O1 O 0.6414(7) 0.4972(7) 0.4127(3)
O2 O 0.4117(9) 0.333333 0.333333
C1 C 0.4687(9) 0.4718(9) 0.4150(4)
Na1 Na 0.666667 0.333333 0.50032(19)
C2 C 0.3868(10) 0.4393(12) 0.3738(5)
O3 O 0.5301(7) 0.6404(6) 0.4488(3)
H1 H 0.408351 0.534927 0.350055
H2 H 0.276369 0.386646 0.388608
O4 O 0.4775(10) 0.1695(7) 0.2540(3)
O5 O 0.5028(7) 0.1442(10) 0.4127(3)
O6 O 0.666667 0.07837(90) 0.333333
O7 O 0.8305(7) 0.3081(7) 0.2540(3)
O8 O 0.8558(10) 0.3586(7) 0.4127(3)
O9 O 0.6919(7) 0.5225(10) 0.2540(3)
O10 O 0.92163(90) 0.5883(9) 0.333333
C3 C 0.2808(16) 0.2274(12) 0.2929(5)
C4 C 0.3302(13) 0.1949(9) 0.2517(4)
Na2 Na 0.666666 0.333334 0.16635(19)
C7 C 0.7726(12) 0.0535(10) 0.2929(5)
C8 C 0.8051(9) 0.1354(9) 0.2517(4)
C10 C 0.8646(9) 0.6698(13) 0.2517(4)
C12 C 0.9465(10) 0.7192(16) 0.2929(5)
O11 O 0.6404(6) 0.5301(7) 0.5512(3)
O12 O 0.8897(9) 0.3596(6) 0.5512(3)
O13 O 0.4699(7) 0.1103(9) 0.5512(3)
H3 H 0.206757 0.131740 0.316612
H4 H 0.223056 0.280021 0.278059
O14 O 0.2230(9) 0.0263(6) 0.2179(3)
O15 O 0.8634(7) 0.3071(6) 0.1155(3)
O16 O 0.6929(6) 0.5564(9) 0.1155(3)
O17 O 0.4436(9) 0.1366(7) 0.1155(3)
H7 H 0.868260 0.075018 0.316612
O19 O 0.9737(6) 0.1968(7) 0.2179(3)
O21 O 0.8032(7) 0.7770(9) 0.2179(3)
H11 H 0.924982 0.793243 0.316612
Na8_4 Na 1.000000 1.000000 0.16699(19)
C5 C 0.5282(9) 0.9969(13) 0.4150(4)
C6 C 0.5607(12) 0.9475(16) 0.3738(5)
O18 O 0.3596(6) 0.8897(9) 0.4488(3)
H5 H 0.465073 0.873424 0.350055
H6 H 0.613354 0.889723 0.388608
H8 H 0.719979 0.943036 0.278059
Na8_5 Na -0.000000 0.000000 0.83301(19)
Na8_6 Na -0.000000 1.000000 0.83301(19)
C9_2 C 0.5313(9) 0.0031(13) 0.5850(4)
C11_2 C 0.6132(10) 0.0525(16) 0.6262(5)
H9_2 H 0.723631 0.110277 0.611392
H10_2 H 0.591649 0.126576 0.649945
H12_2 H 0.776944 0.056964 0.721941
Na8_7 Na 1.000000 0.000000 0.83301(19)
Eu1_2 Eu 0.333333 0.666667 0.666667
O1_2 O 0.4972(7) 0.6414(7) 0.5873(3)
O2_2 O 0.333333 0.4117(9) 0.666667
C1_2 C 0.4718(9) 0.4687(9) 0.5850(4)
C2_2 C 0.4393(12) 0.3868(10) 0.6262(5)
H1_2 H 0.534927 0.408351 0.649945
H2_2 H 0.386646 0.276369 0.611392
O4_2 O 0.1695(7) 0.4775(10) 0.7460(3)
O5_2 O 0.1442(10) 0.5028(7) 0.5873(3)
O6_2 O 0.07837(90) 0.666667 0.666667
O7_2 O 0.3081(7) 0.8305(7) 0.7460(3)
O8_2 O 0.3586(7) 0.8558(10) 0.5873(3)
O9_2 O 0.5225(10) 0.6919(7) 0.7460(3)
O10_2 O 0.5883(9) 0.92163(90) 0.666667
C3_2 C 0.2274(12) 0.2808(16) 0.7071(5)
C4_2 C 0.1949(9) 0.3302(13) 0.7483(4)
Na2_2 Na 0.333334 0.666666 0.83365(19)
C7_2 C 0.0535(10) 0.7726(12) 0.7071(5)
C8_2 C 0.1354(9) 0.8051(9) 0.7483(4)
C10_2 C 0.6698(13) 0.8646(9) 0.7483(4)
C12_2 C 0.7192(16) 0.9465(10) 0.7071(5)
H3_2 H 0.131740 0.206757 0.683388
H4_2 H 0.280021 0.223056 0.721941
O14_2 O 0.0263(6) 0.2230(9) 0.7821(3)
O15_2 O 0.3071(6) 0.8634(7) 0.8845(3)
O16_2 O 0.5564(9) 0.6929(6) 0.8845(3)
O17_2 O 0.1366(7) 0.4436(9) 0.8845(3)
H7_2 H 0.075018 0.868260 0.683388
O19_2 O 0.1968(7) 0.9737(6) 0.7821(3)
O21_2 O 0.7770(9) 0.8032(7) 0.7821(3)
H11_2 H 0.793243 0.924982 0.683388
Na8_8 Na 1.000000 1.000000 0.83301(19)
C5_2 C 0.9969(13) 0.5282(9) 0.5850(4)
C6_2 C 0.9475(16) 0.5607(12) 0.6262(5)
H5_2 H 0.873424 0.465073 0.649945
H6_2 H 0.889723 0.613354 0.611392
H8_2 H 0.943036 0.719979 0.721941
Eu1_3 Eu -0.000000 0.000000 0.000000
O9_3 O 0.1891(10) 0.0253(7) 0.0794(3)
O10_3 O 0.2550(9) 0.25497(90) 0.000000
C10_3 C 0.3364(13) 0.1980(9) 0.0817(4)
C12_3 C 0.3858(16) 0.2799(10) 0.0405(5)
H11_3 H 0.459909 0.258316 0.016722
H12_3 H 0.443610 0.390298 0.055275
Eu1_4 Eu -0.000000 0.000000 1.000000
O8_3 O 0.0253(7) 0.1891(10) 0.9206(3)
O10_4 O 0.2550(9) 0.25497(90) 1.000000
C9_3 C 0.1980(9) 0.3364(13) 0.9183(4)
C11_3 C 0.2799(10) 0.3858(16) 0.9595(5)
H9_3 H 0.390298 0.443610 0.944725
H10_3 H 0.258316 0.459909 0.983278
Eu1_5 Eu -0.000000 1.000000 0.000000
O2_3 O -0.000000 0.7450(9) 0.000000
Eu1_6 Eu -0.000000 1.000000 1.000000
O1_3 O 0.1639(7) 0.9747(7) 0.9206(3)
O2_4 O -0.000000 0.7450(9) 1.000000
C1_3 C 0.1385(9) 0.8020(9) 0.9183(4)
C2_3 C 0.1060(12) 0.7201(10) 0.9595(5)
H1_3 H 0.201594 0.741684 0.983278
H2_3 H 0.053313 0.609702 0.944725
Eu1_7 Eu 1.000000 0.000000 0.000000
O6_3 O 0.74503(90) 0.000000 0.000000
O7_3 O 0.9747(7) 0.1639(7) 0.0794(3)
C7_3 C 0.7201(10) 0.1060(12) 0.0405(5)
C8_3 C 0.8020(9) 0.1385(9) 0.0817(4)
H7_3 H 0.741684 0.201594 0.016722
H8_3 H 0.609702 0.053313 0.055275
Eu1_8 Eu 1.000000 0.000000 1.000000
O6_4 O 0.74503(90) 0.000000 1.000000
Eu1_9 Eu 1.000000 1.000000 0.000000
O2_5 O 1.000000 0.7450(9) 0.000000
O4_3 O 0.8361(7) 0.8109(10) 0.0794(3)
O6_5 O 0.74503(90) 1.000000 0.000000
C3_3 C 0.8940(12) 0.6142(16) 0.0405(5)
C4_3 C 0.8615(9) 0.6636(13) 0.0817(4)
H3_3 H 0.798406 0.540091 0.016722
H4_3 H 0.946687 0.556390 0.055275
Eu1_10 Eu 1.000000 1.000000 1.000000
O2_6 O 1.000000 0.7450(9) 1.000000
O5_3 O 0.8109(10) 0.8361(7) 0.9206(3)
O6_6 O 0.74503(90) 1.000000 1.000000
C5_3 C 0.6636(13) 0.8615(9) 0.9183(4)
C6_3 C 0.6142(16) 0.8940(12) 0.9595(5)
H5_3 H 0.540091 0.798406 0.983278
H6_3 H 0.556390 0.946687 0.944725
loop_
_geom_bond_atom_site_label_1
_geom_bond_atom_site_label_2
_geom_bond_site_symmetry_1
_geom_bond_site_symmetry_2
O20 C9 1_555 1_555
H9 C11 1_555 1_555
H10 C11 1_555 1_555
Na7 O20 1_555 1_555
C9 C11 1_555 1_555
Eu1 O1 1_555 1_555
O1 C1 1_555 1_555
O2 Eu1 1_555 1_555
C1 C2 1_555 1_555
Na1 O1 1_555 1_555
C2 O2 1_555 1_555
O3 C1 1_555 1_555
H1 C2 1_555 1_555
H2 C2 1_555 1_555
O4 Eu1 1_555 1_555
O5 Eu1 1_555 1_555
O6 Eu1 1_555 1_555
O7 Eu1 1_555 1_555
O8 Eu1 1_555 1_555
O9 Eu1 1_555 1_555
O10 Eu1 1_555 1_555
C3 O2 1_555 1_555
C4 O4 1_555 1_555
Na2 O4 1_555 1_555
C7 O6 1_555 1_555
C8 O7 1_555 1_555
C10 O9 1_555 1_555
C12 O10 1_555 1_555
O11 Na1 1_555 1_555
O12 Na1 1_555 1_555
O13 Na1 1_555 1_555
H3 C3 1_555 1_555
H4 C3 1_555 1_555
O14 C4 1_555 1_555
O15 Na2 1_555 1_555
O16 Na2 1_555 1_555
O17 Na2 1_555 1_555
H7 C7 1_555 1_555
O19 C8 1_555 1_555
O21 C10 1_555 1_555
H11 C12 1_555 1_555
Na7 O3 1_555 1_555
Na8 O14 1_555 1_555
Na8_3 O19 1_555 1_555
Na8_4 O21 1_555 1_555
Na1 O5 1_555 1_555
Na1 O8 1_555 1_555
O7 Na2 1_555 1_555
O9 Na2 1_555 1_555
C3 C4 1_555 1_555
C7 C8 1_555 1_555
C10 C12 1_555 1_555
O18 C5 1_555 1_555
H5 C6 1_555 1_555
H6 C6 1_555 1_555
Na7 O18 1_555 1_555
C5 C6 1_555 1_555
O13 C9_2 1_555 1_555
H9_2 C11_2 1_555 1_555
H10_2 C11_2 1_555 1_555
C9_2 C11_2 1_555 1_555
Eu1_2 O1_2 1_555 1_555
O1_2 C1_2 1_555 1_555
O2_2 Eu1_2 1_555 1_555
C1_2 C2_2 1_555 1_555
Na7 O1_2 1_555 1_555
C2_2 O2_2 1_555 1_555
O11 C1_2 1_555 1_555
H1_2 C2_2 1_555 1_555
H2_2 C2_2 1_555 1_555
O4_2 Eu1_2 1_555 1_555
O5_2 Eu1_2 1_555 1_555
O6_2 Eu1_2 1_555 1_555
O7_2 Eu1_2 1_555 1_555
O8_2 Eu1_2 1_555 1_555
O9_2 Eu1_2 1_555 1_555
O10_2 Eu1_2 1_555 1_555
C3_2 O2_2 1_555 1_555
C4_2 O4_2 1_555 1_555
Na2_2 O4_2 1_555 1_555
C7_2 O6_2 1_555 1_555
C8_2 O7_2 1_555 1_555
C10_2 O9_2 1_555 1_555
C12_2 O10_2 1_555 1_555
H3_2 C3_2 1_555 1_555
H4_2 C3_2 1_555 1_555
O14_2 C4_2 1_555 1_555
O15_2 Na2_2 1_555 1_555
O16_2 Na2_2 1_555 1_555
O17_2 Na2_2 1_555 1_555
H7_2 C7_2 1_555 1_555
O19_2 C8_2 1_555 1_555
O21_2 C10_2 1_555 1_555
H11_2 C12_2 1_555 1_555
Na8_5 O14_2 1_555 1_555
Na8_6 O19_2 1_555 1_555
Na8_8 O21_2 1_555 1_555
Na7 O5_2 1_555 1_555
Na7 O8_2 1_555 1_555
O7_2 Na2_2 1_555 1_555
O9_2 Na2_2 1_555 1_555
C3_2 C4_2 1_555 1_555
C7_2 C8_2 1_555 1_555
C10_2 C12_2 1_555 1_555
O12 C5_2 1_555 1_555
H5_2 C6_2 1_555 1_555
H6_2 C6_2 1_555 1_555
C5_2 C6_2 1_555 1_555
O9_3 Eu1_3 1_555 1_555
O10_3 Eu1_3 1_555 1_555
C10_3 O9_3 1_555 1_555
C12_3 O10_3 1_555 1_555
O17 C10_3 1_555 1_555
H11_3 C12_3 1_555 1_555
H12_3 C12_3 1_555 1_555
O9_3 Na8 1_555 1_555
C10_3 C12_3 1_555 1_555
O8_3 Eu1_4 1_555 1_555
O10_4 Eu1_4 1_555 1_555
C9_3 O8_3 1_555 1_555
C11_3 O10_4 1_555 1_555
O17_2 C9_3 1_555 1_555
H9_3 C11_3 1_555 1_555
H10_3 C11_3 1_555 1_555
Na8_5 O8_3 1_555 1_555
C9_3 C11_3 1_555 1_555
O2_3 Eu1_5 1_555 1_555
Eu1_6 O1_3 1_555 1_555
O1_3 C1_3 1_555 1_555
O2_4 Eu1_6 1_555 1_555
C1_3 C2_3 1_555 1_555
Na8_6 O1_3 1_555 1_555
C2_3 O2_4 1_555 1_555
O15_2 C1_3 1_555 1_555
H1_3 C2_3 1_555 1_555
H2_3 C2_3 1_555 1_555
O6_3 Eu1_7 1_555 1_555
O7_3 Eu1_7 1_555 1_555
C7_3 O6_3 1_555 1_555
C8_3 O7_3 1_555 1_555
H7_3 C7_3 1_555 1_555
H8_3 C7_3 1_555 1_555
O15 C8_3 1_555 1_555
O7_3 Na8_3 1_555 1_555
C7_3 C8_3 1_555 1_555
O6_4 Eu1_8 1_555 1_555
O2_5 Eu1_9 1_555 1_555
O4_3 Eu1_9 1_555 1_555
O6_5 Eu1_9 1_555 1_555
C3_3 O2_5 1_555 1_555
C4_3 O4_3 1_555 1_555
Na8_4 O4_3 1_555 1_555
H3_3 C3_3 1_555 1_555
H4_3 C3_3 1_555 1_555
O16 C4_3 1_555 1_555
C3_3 C4_3 1_555 1_555
O2_6 Eu1_10 1_555 1_555
O5_3 Eu1_10 1_555 1_555
O6_6 Eu1_10 1_555 1_555
C5_3 O5_3 1_555 1_555
C6_3 O6_6 1_555 1_555
O16_2 C5_3 1_555 1_555
H5_3 C6_3 1_555 1_555
H6_3 C6_3 1_555 1_555
Na8_8 O5_3 1_555 1_555
C5_3 C6_3 1_555 1_555

#END
