
###############################################################################
#
# This file contains modified crystal structure data generated from the
# MOF subset of the Cambridge Structural Database (CSD) v543 
# hosted by the Cambridge Crystallographic Data Centre (CCDC).
#
# This work is licensed under the Creative Commons
# Attribution-NonCommercial-ShareAlike 4.0 International License.
# To view a copy of this license, visit
# http://creativecommons.org/licenses/by-nc-sa/4.0/
# or send a letter to
# Creative Commons, PO Box 1866, Mountain View, CA 94042, USA.
#
# CIF created using the CSD Python API on 29 September 2022
# The structure has been converted into the P1 space group
# The structure has a 3D framework
# The original CSD entry ESOQEL is in the rhombohedral crystal system
# The framework has been calculated to contain at least 10.0% void space
# The void calculation uses a probe of radius 1.32A, grid spacing 0.4
#
###############################################################################

data_ESOQEL
_chemical_formula_moiety         '(C72 H72 Gd12 Na24 O94)n'
_symmetry_cell_setting           triclinic
_symmetry_space_group_name_H-M   'P 1'
_symmetry_Int_Tables_number      1
_space_group_name_Hall           'P 1'
loop_
_symmetry_equiv_pos_site_id
_symmetry_equiv_pos_as_xyz
1 x,y,z
_cell_length_a                   9.6346(5)
_cell_length_b                   9.6346(5)
_cell_length_c                   41.725(3)
_cell_angle_alpha                90
_cell_angle_beta                 90
_cell_angle_gamma                120
_cell_volume                     3354.24
loop_
_atom_site_label
_atom_site_type_symbol
_atom_site_fract_x
_atom_site_fract_y
_atom_site_fract_z
Na5 Na 0.000000 -0.000000 0.33336(10)
Na5_2 Na 0.000000 1.000000 0.33336(10)
H4 H 0.748885 0.038626 0.383594
C9 C 0.4685(13) 0.0024(9) 0.45757(18)
C10 C 0.6112(13) 0.0494(9) 0.43650(19)
O13 O 0.4677(7) 0.1068(5) 0.47446(11)
H9 H 0.629564 0.139993 0.423320
H10 H 0.705293 0.082218 0.449739
Na5_3 Na 1.000000 -0.000000 0.33336(10)
Na8 Na 0.666666 0.333334 0.49998(10)
Gd1 Gd 0.333333 0.666667 0.416667
O1 O 0.1678(5) 0.4765(5) 0.37709(10)
O2 O 0.333333 0.4118(6) 0.416667
C1 C 0.1327(10) 0.3309(9) 0.37576(18)
Na1 Na 0.333333 0.666667 0.33331(10)
C2 C 0.2284(10) 0.2839(9) 0.39683(19)
O3 O 0.0275(5) 0.2265(5) 0.35887(11)
H1 H 0.156237 0.193340 0.410013
H2 H 0.289741 0.251115 0.383594
O4 O 0.5235(5) 0.6913(7) 0.37709(10)
O5 O 0.5882(6) 0.92153(60) 0.416667
C3 C 0.6691(9) 0.8018(13) 0.37576(18)
C4 C 0.7161(9) 0.9445(13) 0.39683(19)
O6 O 0.7735(5) 0.8010(7) 0.35887(11)
H3 H 0.806660 0.962897 0.410013
O7 O 0.3087(7) 0.8322(5) 0.37709(10)
O8 O 0.07847(60) 0.666667 0.416667
C5 C 0.1982(13) 0.8673(10) 0.37576(18)
C6 C 0.0555(13) 0.7716(10) 0.39683(19)
O9 O 0.1990(7) 0.9725(5) 0.35887(11)
H5 H 0.037103 0.843763 0.410013
O10 O 0.1432(5) 0.5011(5) 0.45624(10)
Na2 Na 0.333334 0.666666 0.50002(10)
O12 O 0.3580(7) 0.8568(5) 0.45624(10)
O14 O 0.4989(5) 0.6420(7) 0.45624(10)
C11 C 0.5340(10) 0.5315(13) 0.45757(18)
C12 C 0.4383(10) 0.3888(13) 0.43650(19)
O15 O 0.6392(5) 0.5323(7) 0.47446(11)
H11 H 0.510430 0.370436 0.423320
H12 H 0.376926 0.294707 0.449739
Na5_4 Na 1.000000 1.000000 0.33336(10)
O16 O 0.3058(5) 0.4402(5) 0.30780(11)
O17 O 0.5598(5) 0.8657(7) 0.30780(11)
O18 O 0.1343(7) 0.6942(5) 0.30780(11)
O19 O 0.1068(5) 0.6392(5) 0.52554(11)
O20 O 0.5323(7) 0.8932(5) 0.52554(11)
O21 O 0.3608(5) 0.4677(7) 0.52554(11)
H6 H 0.961374 0.710259 0.383594
C7 C 0.9976(9) 0.4660(10) 0.45757(18)
C8 C 0.9506(9) 0.5617(10) 0.43650(19)
O11 O 0.8932(5) 0.3608(5) 0.47446(11)
H7 H 0.860007 0.489570 0.423320
H8 H 0.917782 0.623074 0.449739
Na5_5 Na -0.000000 0.000000 0.16664(10)
H4_2 H 0.038626 0.748885 0.116406
C9_2 C 0.0024(9) 0.4685(13) 0.04243(18)
C10_2 C 0.0494(9) 0.6112(13) 0.06350(19)
O13_2 O 0.1068(5) 0.4677(7) 0.02554(11)
H9_2 H 0.139993 0.629564 0.076680
H10_2 H 0.082218 0.705293 0.050261
Na5_6 Na -0.000000 1.000000 0.16664(10)
Na8_2 Na 0.333334 0.666666 0.00002(10)
Na8_3 Na 0.333334 0.666666 1.00002(10)
Na5_7 Na 1.000000 0.000000 0.16664(10)
Gd1_2 Gd 0.666667 0.333333 0.083333
O1_2 O 0.4765(5) 0.1678(5) 0.12291(10)
O2_2 O 0.4118(6) 0.333333 0.083333
C1_2 C 0.3309(9) 0.1327(10) 0.12424(18)
Na1_2 Na 0.666667 0.333333 0.16669(10)
C2_2 C 0.2839(9) 0.2284(10) 0.10317(19)
O3_2 O 0.2265(5) 0.0275(5) 0.14113(11)
H1_2 H 0.193340 0.156237 0.089987
H2_2 H 0.251115 0.289741 0.116406
O4_2 O 0.6913(7) 0.5235(5) 0.12291(10)
O5_2 O 0.92153(60) 0.5882(6) 0.083333
C3_2 C 0.8018(13) 0.6691(9) 0.12424(18)
C4_2 C 0.9445(13) 0.7161(9) 0.10317(19)
O6_2 O 0.8010(7) 0.7735(5) 0.14113(11)
H3_2 H 0.962897 0.806660 0.089987
O7_2 O 0.8322(5) 0.3087(7) 0.12291(10)
O8_2 O 0.666667 0.07847(60) 0.083333
C5_2 C 0.8673(10) 0.1982(13) 0.12424(18)
C6_2 C 0.7716(10) 0.0555(13) 0.10317(19)
O9_2 O 0.9725(5) 0.1990(7) 0.14113(11)
H5_2 H 0.843763 0.037103 0.089987
O10_2 O 0.5011(5) 0.1432(5) 0.04376(10)
Na2_2 Na 0.666666 0.333334 -0.00002(10)
O12_2 O 0.8568(5) 0.3580(7) 0.04376(10)
O14_2 O 0.6420(7) 0.4989(5) 0.04376(10)
C11_2 C 0.5315(13) 0.5340(10) 0.04243(18)
C12_2 C 0.3888(13) 0.4383(10) 0.06350(19)
O15_2 O 0.5323(7) 0.6392(5) 0.02554(11)
H11_2 H 0.370436 0.510430 0.076680
H12_2 H 0.294707 0.376926 0.050261
Na5_8 Na 1.000000 1.000000 0.16664(10)
O16_2 O 0.4402(5) 0.3058(5) 0.19220(11)
O17_2 O 0.8657(7) 0.5598(5) 0.19220(11)
O18_2 O 0.6942(5) 0.1343(7) 0.19220(11)
Na2_3 Na 0.666666 0.333334 0.99998(10)
O19_2 O 0.6392(5) 0.1068(5) 0.97446(11)
O20_2 O 0.8932(5) 0.5323(7) 0.97446(11)
O21_2 O 0.4677(7) 0.3608(5) 0.97446(11)
H6_2 H 0.710259 0.961374 0.116406
C7_2 C 0.4660(10) 0.9976(9) 0.04243(18)
C8_2 C 0.5617(10) 0.9506(9) 0.06350(19)
O11_2 O 0.3608(5) 0.8932(5) 0.02554(11)
H7_2 H 0.489570 0.860007 0.076680
H8_2 H 0.623074 0.917782 0.050261
Gd1_3 Gd -0.000000 0.000000 0.750000
Na1_3 Na -0.000000 0.000000 0.66664(10)
O4_3 O 0.1902(5) 0.0246(7) 0.71042(10)
O5_3 O 0.2549(6) 0.25487(60) 0.750000
C3_3 C 0.3358(9) 0.1351(13) 0.70909(18)
C4_3 C 0.3828(9) 0.2778(13) 0.73016(19)
O6_3 O 0.4402(5) 0.1343(7) 0.69220(11)
H3_3 H 0.473327 0.296230 0.743346
H4_3 H 0.415552 0.371959 0.716927
Na2_4 Na 0.000000 -0.000000 0.83336(10)
O12_3 O 0.0246(7) 0.1902(5) 0.78958(10)
C9_3 C 0.1351(13) 0.3358(9) 0.79091(18)
C10_3 C 0.2778(13) 0.3828(9) 0.76984(19)
O13_3 O 0.1343(7) 0.4402(5) 0.80780(11)
H9_3 H 0.296230 0.473327 0.756654
H10_3 H 0.371959 0.415552 0.783073
Na5_9 Na 0.666667 0.333333 0.66669(10)
Na8_4 Na 0.333333 0.666667 0.83331(10)
O17_3 O 0.2265(5) 0.1990(7) 0.64113(11)
O20_3 O 0.1990(7) 0.2265(5) 0.85887(11)
Gd1_4 Gd -0.000000 1.000000 0.750000
O2_3 O -0.000000 0.7451(6) 0.750000
Na1_4 Na -0.000000 1.000000 0.66664(10)
Na2_5 Na 0.000000 1.000000 0.83336(10)
O14_3 O 0.1655(5) 0.9754(7) 0.78958(10)
C11_3 C 0.2006(10) 0.8649(13) 0.79091(18)
C12_3 C 0.1049(10) 0.7222(13) 0.76984(19)
O15_3 O 0.3058(5) 0.8657(7) 0.80780(11)
H11_3 H 0.177096 0.703770 0.756654
H12_3 H 0.043592 0.628041 0.783073
O21_3 O 0.0275(5) 0.8010(7) 0.85887(11)
Gd1_5 Gd 1.000000 0.000000 0.750000
Na1_5 Na 1.000000 0.000000 0.66664(10)
O7_3 O 0.9754(7) 0.1655(5) 0.71042(10)
O8_3 O 0.74513(60) 0.000000 0.750000
C5_3 C 0.8649(13) 0.2006(10) 0.70909(18)
C6_3 C 0.7222(13) 0.1049(10) 0.73016(19)
O9_3 O 0.8657(7) 0.3058(5) 0.69220(11)
H5_3 H 0.703770 0.177096 0.743346
H6_3 H 0.628041 0.043592 0.716927
Na2_6 Na 1.000000 -0.000000 0.83336(10)
O18_3 O 0.8010(7) 0.0275(5) 0.64113(11)
Gd1_6 Gd 1.000000 1.000000 0.750000
O1_3 O 0.8345(5) 0.8098(5) 0.71042(10)
O2_4 O 1.000000 0.7451(6) 0.750000
C1_3 C 0.7994(10) 0.6642(9) 0.70909(18)
Na1_6 Na 1.000000 1.000000 0.66664(10)
C2_3 C 0.8951(10) 0.6172(9) 0.73016(19)
O3_3 O 0.6942(5) 0.5598(5) 0.69220(11)
H1_3 H 0.822904 0.526673 0.743346
H2_3 H 0.956408 0.584448 0.716927
O8_4 O 0.74513(60) 1.000000 0.750000
O10_3 O 0.8098(5) 0.8345(5) 0.78958(10)
C7_3 C 0.6642(9) 0.7994(10) 0.79091(18)
Na2_7 Na 1.000000 1.000000 0.83336(10)
C8_3 C 0.6172(9) 0.8951(10) 0.76984(19)
O11_3 O 0.5598(5) 0.6942(5) 0.80780(11)
H7_3 H 0.526673 0.822904 0.756654
H8_3 H 0.584448 0.956408 0.783073
O16_3 O 0.9725(5) 0.7735(5) 0.64113(11)
O19_3 O 0.7735(5) 0.9725(5) 0.85887(11)
H6_4 H 0.038626 0.289741 0.616406
C7_4 C 0.0024(9) 0.5340(10) 0.54243(18)
C8_4 C 0.0494(9) 0.4383(10) 0.56350(19)
H7_4 H 0.139993 0.510430 0.576680
H8_4 H 0.082218 0.376926 0.550261
Gd1_7 Gd 0.666667 0.333333 0.583333
O1_4 O 0.8322(5) 0.5235(5) 0.62291(10)
O2_5 O 0.666667 0.5882(6) 0.583333
C1_4 C 0.8673(10) 0.6691(9) 0.62424(18)
C2_4 C 0.7716(10) 0.7161(9) 0.60317(19)
H1_4 H 0.843763 0.806660 0.589987
H2_4 H 0.710259 0.748885 0.616406
O4_4 O 0.4765(5) 0.3087(7) 0.62291(10)
O5_4 O 0.4118(6) 0.07847(60) 0.583333
C3_4 C 0.3309(9) 0.1982(13) 0.62424(18)
C4_4 C 0.2839(9) 0.0555(13) 0.60317(19)
H3_4 H 0.193340 0.037103 0.589987
O7_4 O 0.6913(7) 0.1678(5) 0.62291(10)
O8_5 O 0.92153(60) 0.333333 0.583333
C5_4 C 0.8018(13) 0.1327(10) 0.62424(18)
C6_4 C 0.9445(13) 0.2284(10) 0.60317(19)
H5_4 H 0.962897 0.156237 0.589987
O10_4 O 0.8568(5) 0.4989(5) 0.54376(10)
O12_4 O 0.6420(7) 0.1432(5) 0.54376(10)
O14_4 O 0.5011(5) 0.3580(7) 0.54376(10)
C11_4 C 0.4660(10) 0.4685(13) 0.54243(18)
C12_4 C 0.5617(10) 0.6112(13) 0.56350(19)
H11_4 H 0.489570 0.629564 0.576680
H12_4 H 0.623074 0.705293 0.550261
H4_4 H 0.251115 0.961374 0.616406
C9_4 C 0.5315(13) 0.9976(9) 0.54243(18)
C10_4 C 0.3888(13) 0.9506(9) 0.56350(19)
H9_4 H 0.370436 0.860007 0.576680
H10_4 H 0.294707 0.917782 0.550261
H6_5 H 0.289741 0.038626 0.883594
C7_5 C 0.5340(10) 0.0024(9) 0.95757(18)
C8_5 C 0.4383(10) 0.0494(9) 0.93650(19)
H7_5 H 0.510430 0.139993 0.923320
H8_5 H 0.376926 0.082218 0.949739
Gd1_8 Gd 0.333333 0.666667 0.916667
O1_5 O 0.5235(5) 0.8322(5) 0.87709(10)
O2_6 O 0.5882(6) 0.666667 0.916667
C1_5 C 0.6691(9) 0.8673(10) 0.87576(18)
C2_5 C 0.7161(9) 0.7716(10) 0.89683(19)
H1_5 H 0.806660 0.843763 0.910013
H2_5 H 0.748885 0.710259 0.883594
O4_5 O 0.3087(7) 0.4765(5) 0.87709(10)
O5_5 O 0.07847(60) 0.4118(6) 0.916667
C3_5 C 0.1982(13) 0.3309(9) 0.87576(18)
C4_5 C 0.0555(13) 0.2839(9) 0.89683(19)
H3_5 H 0.037103 0.193340 0.910013
O7_5 O 0.1678(5) 0.6913(7) 0.87709(10)
O8_6 O 0.333333 0.92153(60) 0.916667
C5_5 C 0.1327(10) 0.8018(13) 0.87576(18)
C6_5 C 0.2284(10) 0.9445(13) 0.89683(19)
H5_5 H 0.156237 0.962897 0.910013
O10_5 O 0.4989(5) 0.8568(5) 0.95624(10)
O12_5 O 0.1432(5) 0.6420(7) 0.95624(10)
O14_5 O 0.3580(7) 0.5011(5) 0.95624(10)
C11_5 C 0.4685(13) 0.4660(10) 0.95757(18)
C12_5 C 0.6112(13) 0.5617(10) 0.93650(19)
H11_5 H 0.629564 0.489570 0.923320
H12_5 H 0.705293 0.623074 0.949739
H4_5 H 0.961374 0.251115 0.883594
C9_5 C 0.9976(9) 0.5315(13) 0.95757(18)
C10_5 C 0.9506(9) 0.3888(13) 0.93650(19)
H9_5 H 0.860007 0.370436 0.923320
H10_5 H 0.917782 0.294707 0.949739
Gd1_9 Gd 0.000000 -0.000000 0.250000
O1_6 O 0.1655(5) 0.1902(5) 0.28958(10)
O2_7 O 0.000000 0.2549(6) 0.250000
C1_6 C 0.2006(10) 0.3358(9) 0.29091(18)
C2_6 C 0.1049(10) 0.3828(9) 0.26984(19)
H1_6 H 0.177096 0.473327 0.256654
H2_6 H 0.043592 0.415552 0.283073
O8_7 O 0.25487(60) -0.000000 0.250000
O10_6 O 0.1902(5) 0.1655(5) 0.21042(10)
C7_6 C 0.3358(9) 0.2006(10) 0.20909(18)
C8_6 C 0.3828(9) 0.1049(10) 0.23016(19)
H7_6 H 0.473327 0.177096 0.243346
H8_6 H 0.415552 0.043592 0.216927
Gd1_10 Gd 0.000000 1.000000 0.250000
O7_6 O 0.0246(7) 0.8345(5) 0.28958(10)
O8_8 O 0.25487(60) 1.000000 0.250000
C5_6 C 0.1351(13) 0.7994(10) 0.29091(18)
C6_6 C 0.2778(13) 0.8951(10) 0.26984(19)
H5_6 H 0.296230 0.822904 0.256654
H6_6 H 0.371959 0.956408 0.283073
Gd1_11 Gd 1.000000 -0.000000 0.250000
O2_8 O 1.000000 0.2549(6) 0.250000
O14_6 O 0.8345(5) 0.0246(7) 0.21042(10)
C11_6 C 0.7994(10) 0.1351(13) 0.20909(18)
C12_6 C 0.8951(10) 0.2778(13) 0.23016(19)
H11_6 H 0.822904 0.296230 0.243346
H12_6 H 0.956408 0.371959 0.216927
Gd1_12 Gd 1.000000 1.000000 0.250000
O4_6 O 0.8098(5) 0.9754(7) 0.28958(10)
O5_6 O 0.7451(6) 0.74513(60) 0.250000
C3_6 C 0.6642(9) 0.8649(13) 0.29091(18)
C4_6 C 0.6172(9) 0.7222(13) 0.26984(19)
H3_6 H 0.526673 0.703770 0.256654
H4_6 H 0.584448 0.628041 0.283073
O12_6 O 0.9754(7) 0.8098(5) 0.21042(10)
C9_6 C 0.8649(13) 0.6642(9) 0.20909(18)
C10_6 C 0.7222(13) 0.6172(9) 0.23016(19)
H9_6 H 0.703770 0.526673 0.243346
H10_6 H 0.628041 0.584448 0.216927
loop_
_geom_bond_atom_site_label_1
_geom_bond_atom_site_label_2
_geom_bond_site_symmetry_1
_geom_bond_site_symmetry_2
O13 C9 1_555 1_555
H9 C10 1_555 1_555
H10 C10 1_555 1_555
Na8 O13 1_555 1_555
C9 C10 1_555 1_555
Gd1 O1 1_555 1_555
O1 C1 1_555 1_555
O2 Gd1 1_555 1_555
C1 C2 1_555 1_555
Na1 O1 1_555 1_555
C2 O2 1_555 1_555
O3 C1 1_555 1_555
H1 C2 1_555 1_555
H2 C2 1_555 1_555
O4 Gd1 1_555 1_555
O5 Gd1 1_555 1_555
C3 O4 1_555 1_555
C4 O5 1_555 1_555
O6 C3 1_555 1_555
H3 C4 1_555 1_555
O7 Gd1 1_555 1_555
O8 Gd1 1_555 1_555
C5 O7 1_555 1_555
C6 O8 1_555 1_555
O9 C5 1_555 1_555
H5 C6 1_555 1_555
O10 Gd1 1_555 1_555
Na2 O10 1_555 1_555
O12 Gd1 1_555 1_555
O14 Gd1 1_555 1_555
C11 O14 1_555 1_555
C12 O2 1_555 1_555
O15 C11 1_555 1_555
H11 C12 1_555 1_555
H12 C12 1_555 1_555
Na5 O3 1_555 1_555
Na5_2 O9 1_555 1_555
Na5_4 O6 1_555 1_555
Na8 O15 1_555 1_555
O16 Na1 1_555 1_555
O17 Na1 1_555 1_555
O18 Na1 1_555 1_555
O19 Na2 1_555 1_555
O20 Na2 1_555 1_555
O21 Na2 1_555 1_555
Na1 O4 1_555 1_555
Na1 O7 1_555 1_555
C3 C4 1_555 1_555
C5 C6 1_555 1_555
Na2 O12 1_555 1_555
Na2 O14 1_555 1_555
C11 C12 1_555 1_555
O11 C7 1_555 1_555
H7 C8 1_555 1_555
H8 C8 1_555 1_555
Na8 O11 1_555 1_555
C7 C8 1_555 1_555
O13_2 C9_2 1_555 1_555
H9_2 C10_2 1_555 1_555
H10_2 C10_2 1_555 1_555
Na8_2 O13_2 1_555 1_555
C9_2 C10_2 1_555 1_555
Gd1_2 O1_2 1_555 1_555
O1_2 C1_2 1_555 1_555
O2_2 Gd1_2 1_555 1_555
C1_2 C2_2 1_555 1_555
Na1_2 O1_2 1_555 1_555
C2_2 O2_2 1_555 1_555
O3_2 C1_2 1_555 1_555
H1_2 C2_2 1_555 1_555
H2_2 C2_2 1_555 1_555
O4_2 Gd1_2 1_555 1_555
O5_2 Gd1_2 1_555 1_555
C3_2 O4_2 1_555 1_555
C4_2 O5_2 1_555 1_555
O6_2 C3_2 1_555 1_555
H3_2 C4_2 1_555 1_555
O7_2 Gd1_2 1_555 1_555
O8_2 Gd1_2 1_555 1_555
C5_2 O7_2 1_555 1_555
C6_2 O8_2 1_555 1_555
O9_2 C5_2 1_555 1_555
H5_2 C6_2 1_555 1_555
O10_2 Gd1_2 1_555 1_555
Na2_2 O10_2 1_555 1_555
O12_2 Gd1_2 1_555 1_555
O14_2 Gd1_2 1_555 1_555
C11_2 O14_2 1_555 1_555
C12_2 O2_2 1_555 1_555
O15_2 C11_2 1_555 1_555
H11_2 C12_2 1_555 1_555
H12_2 C12_2 1_555 1_555
Na5_5 O3_2 1_555 1_555
Na5_7 O9_2 1_555 1_555
Na5_8 O6_2 1_555 1_555
Na8_2 O15_2 1_555 1_555
O16_2 Na1_2 1_555 1_555
O17_2 Na1_2 1_555 1_555
O18_2 Na1_2 1_555 1_555
Na1_2 O4_2 1_555 1_555
Na1_2 O7_2 1_555 1_555
C3_2 C4_2 1_555 1_555
C5_2 C6_2 1_555 1_555
Na2_2 O12_2 1_555 1_555
Na2_2 O14_2 1_555 1_555
C11_2 C12_2 1_555 1_555
O19_2 Na2_3 1_555 1_555
O20_2 Na2_3 1_555 1_555
O21_2 Na2_3 1_555 1_555
O11_2 C7_2 1_555 1_555
H7_2 C8_2 1_555 1_555
H8_2 C8_2 1_555 1_555
Na8_2 O11_2 1_555 1_555
C7_2 C8_2 1_555 1_555
O4_3 Gd1_3 1_555 1_555
O5_3 Gd1_3 1_555 1_555
C3_3 O4_3 1_555 1_555
C4_3 O5_3 1_555 1_555
O6_3 C3_3 1_555 1_555
H3_3 C4_3 1_555 1_555
H4_3 C4_3 1_555 1_555
O12_3 Gd1_3 1_555 1_555
C9_3 O12_3 1_555 1_555
C10_3 O5_3 1_555 1_555
O13_3 C9_3 1_555 1_555
H9_3 C10_3 1_555 1_555
H10_3 C10_3 1_555 1_555
Na5_9 O6_3 1_555 1_555
Na8_4 O13_3 1_555 1_555
O17_3 Na1_3 1_555 1_555
O20_3 Na2_4 1_555 1_555
Na1_3 O4_3 1_555 1_555
C3_3 C4_3 1_555 1_555
Na2_4 O12_3 1_555 1_555
C9_3 C10_3 1_555 1_555
O2_3 Gd1_4 1_555 1_555
O14_3 Gd1_4 1_555 1_555
C11_3 O14_3 1_555 1_555
C12_3 O2_3 1_555 1_555
O15_3 C11_3 1_555 1_555
H11_3 C12_3 1_555 1_555
H12_3 C12_3 1_555 1_555
Na8_4 O15_3 1_555 1_555
O21_3 Na2_5 1_555 1_555
Na2_5 O14_3 1_555 1_555
C11_3 C12_3 1_555 1_555
O7_3 Gd1_5 1_555 1_555
O8_3 Gd1_5 1_555 1_555
C5_3 O7_3 1_555 1_555
C6_3 O8_3 1_555 1_555
O9_3 C5_3 1_555 1_555
H5_3 C6_3 1_555 1_555
H6_3 C6_3 1_555 1_555
Na5_9 O9_3 1_555 1_555
O18_3 Na1_5 1_555 1_555
Na1_5 O7_3 1_555 1_555
C5_3 C6_3 1_555 1_555
Gd1_6 O1_3 1_555 1_555
O1_3 C1_3 1_555 1_555
O2_4 Gd1_6 1_555 1_555
C1_3 C2_3 1_555 1_555
Na1_6 O1_3 1_555 1_555
C2_3 O2_4 1_555 1_555
O3_3 C1_3 1_555 1_555
H1_3 C2_3 1_555 1_555
H2_3 C2_3 1_555 1_555
O8_4 Gd1_6 1_555 1_555
O10_3 Gd1_6 1_555 1_555
C7_3 O10_3 1_555 1_555
Na2_7 O10_3 1_555 1_555
C8_3 O8_4 1_555 1_555
O11_3 C7_3 1_555 1_555
H7_3 C8_3 1_555 1_555
H8_3 C8_3 1_555 1_555
Na5_9 O3_3 1_555 1_555
Na8_4 O11_3 1_555 1_555
O16_3 Na1_6 1_555 1_555
O19_3 Na2_7 1_555 1_555
C7_3 C8_3 1_555 1_555
O19 C7_4 1_555 1_555
H7_4 C8_4 1_555 1_555
H8_4 C8_4 1_555 1_555
C7_4 C8_4 1_555 1_555
Gd1_7 O1_4 1_555 1_555
O1_4 C1_4 1_555 1_555
O2_5 Gd1_7 1_555 1_555
C1_4 C2_4 1_555 1_555
Na5_9 O1_4 1_555 1_555
C2_4 O2_5 1_555 1_555
O16_3 C1_4 1_555 1_555
H1_4 C2_4 1_555 1_555
H2_4 C2_4 1_555 1_555
O4_4 Gd1_7 1_555 1_555
O5_4 Gd1_7 1_555 1_555
C3_4 O4_4 1_555 1_555
C4_4 O5_4 1_555 1_555
O17_3 C3_4 1_555 1_555
H3_4 C4_4 1_555 1_555
O7_4 Gd1_7 1_555 1_555
O8_5 Gd1_7 1_555 1_555
C5_4 O7_4 1_555 1_555
C6_4 O8_5 1_555 1_555
O18_3 C5_4 1_555 1_555
H5_4 C6_4 1_555 1_555
O10_4 Gd1_7 1_555 1_555
Na8 O10_4 1_555 1_555
O12_4 Gd1_7 1_555 1_555
O14_4 Gd1_7 1_555 1_555
C11_4 O14_4 1_555 1_555
C12_4 O2_5 1_555 1_555
O21 C11_4 1_555 1_555
H11_4 C12_4 1_555 1_555
H12_4 C12_4 1_555 1_555
Na5_9 O4_4 1_555 1_555
Na5_9 O7_4 1_555 1_555
C3_4 C4_4 1_555 1_555
C5_4 C6_4 1_555 1_555
Na8 O12_4 1_555 1_555
Na8 O14_4 1_555 1_555
C11_4 C12_4 1_555 1_555
O20 C9_4 1_555 1_555
H9_4 C10_4 1_555 1_555
H10_4 C10_4 1_555 1_555
C9_4 C10_4 1_555 1_555
O19_2 C7_5 1_555 1_555
H7_5 C8_5 1_555 1_555
H8_5 C8_5 1_555 1_555
C7_5 C8_5 1_555 1_555
Gd1_8 O1_5 1_555 1_555
O1_5 C1_5 1_555 1_555
O2_6 Gd1_8 1_555 1_555
C1_5 C2_5 1_555 1_555
Na8_4 O1_5 1_555 1_555
C2_5 O2_6 1_555 1_555
O19_3 C1_5 1_555 1_555
H1_5 C2_5 1_555 1_555
H2_5 C2_5 1_555 1_555
O4_5 Gd1_8 1_555 1_555
O5_5 Gd1_8 1_555 1_555
C3_5 O4_5 1_555 1_555
C4_5 O5_5 1_555 1_555
O20_3 C3_5 1_555 1_555
H3_5 C4_5 1_555 1_555
O7_5 Gd1_8 1_555 1_555
O8_6 Gd1_8 1_555 1_555
C5_5 O7_5 1_555 1_555
C6_5 O8_6 1_555 1_555
O21_3 C5_5 1_555 1_555
H5_5 C6_5 1_555 1_555
O10_5 Gd1_8 1_555 1_555
Na8_3 O10_5 1_555 1_555
O12_5 Gd1_8 1_555 1_555
O14_5 Gd1_8 1_555 1_555
C11_5 O14_5 1_555 1_555
C12_5 O2_6 1_555 1_555
O21_2 C11_5 1_555 1_555
H11_5 C12_5 1_555 1_555
H12_5 C12_5 1_555 1_555
Na8_4 O4_5 1_555 1_555
Na8_4 O7_5 1_555 1_555
C3_5 C4_5 1_555 1_555
C5_5 C6_5 1_555 1_555
Na8_3 O12_5 1_555 1_555
Na8_3 O14_5 1_555 1_555
C11_5 C12_5 1_555 1_555
O20_2 C9_5 1_555 1_555
H9_5 C10_5 1_555 1_555
H10_5 C10_5 1_555 1_555
C9_5 C10_5 1_555 1_555
Gd1_9 O1_6 1_555 1_555
O1_6 C1_6 1_555 1_555
O2_7 Gd1_9 1_555 1_555
C1_6 C2_6 1_555 1_555
Na5 O1_6 1_555 1_555
C2_6 O2_7 1_555 1_555
O16 C1_6 1_555 1_555
H1_6 C2_6 1_555 1_555
H2_6 C2_6 1_555 1_555
O8_7 Gd1_9 1_555 1_555
O10_6 Gd1_9 1_555 1_555
C7_6 O10_6 1_555 1_555
Na5_5 O10_6 1_555 1_555
C8_6 O8_7 1_555 1_555
O16_2 C7_6 1_555 1_555
H7_6 C8_6 1_555 1_555
H8_6 C8_6 1_555 1_555
C7_6 C8_6 1_555 1_555
O7_6 Gd1_10 1_555 1_555
O8_8 Gd1_10 1_555 1_555
C5_6 O7_6 1_555 1_555
C6_6 O8_8 1_555 1_555
O18 C5_6 1_555 1_555
H5_6 C6_6 1_555 1_555
H6_6 C6_6 1_555 1_555
Na5_2 O7_6 1_555 1_555
C5_6 C6_6 1_555 1_555
O2_8 Gd1_11 1_555 1_555
O14_6 Gd1_11 1_555 1_555
C11_6 O14_6 1_555 1_555
C12_6 O2_8 1_555 1_555
O18_2 C11_6 1_555 1_555
H11_6 C12_6 1_555 1_555
H12_6 C12_6 1_555 1_555
Na5_7 O14_6 1_555 1_555
C11_6 C12_6 1_555 1_555
O4_6 Gd1_12 1_555 1_555
O5_6 Gd1_12 1_555 1_555
C3_6 O4_6 1_555 1_555
C4_6 O5_6 1_555 1_555
O17 C3_6 1_555 1_555
H3_6 C4_6 1_555 1_555
H4_6 C4_6 1_555 1_555
O12_6 Gd1_12 1_555 1_555
C9_6 O12_6 1_555 1_555
C10_6 O5_6 1_555 1_555
O17_2 C9_6 1_555 1_555
H9_6 C10_6 1_555 1_555
H10_6 C10_6 1_555 1_555
Na5_4 O4_6 1_555 1_555
C3_6 C4_6 1_555 1_555
Na5_8 O12_6 1_555 1_555
C9_6 C10_6 1_555 1_555

#END
