
###############################################################################
#
# This file contains modified crystal structure data generated from the
# MOF subset of the Cambridge Structural Database (CSD) v543 
# hosted by the Cambridge Crystallographic Data Centre (CCDC).
#
# This work is licensed under the Creative Commons
# Attribution-NonCommercial-ShareAlike 4.0 International License.
# To view a copy of this license, visit
# http://creativecommons.org/licenses/by-nc-sa/4.0/
# or send a letter to
# Creative Commons, PO Box 1866, Mountain View, CA 94042, USA.
#
# CIF created using the CSD Python API on 29 September 2022
# The structure has been converted into the P1 space group
# The structure has a 3D framework
# The original CSD entry ESOZUK is in the triclinic crystal system
# The framework has been calculated to contain at least 10.0% void space
# The void calculation uses a probe of radius 1.32A, grid spacing 0.4
# H atom positions have been added when not included in the experimental data
#
###############################################################################

data_ESOZUK
_chemical_formula_moiety         '(C88 H62 In4 N2 O24)n'
_symmetry_cell_setting           triclinic
_symmetry_space_group_name_H-M   'P 1'
_symmetry_Int_Tables_number      1
_space_group_name_Hall           'P 1'
loop_
_symmetry_equiv_pos_site_id
_symmetry_equiv_pos_as_xyz
1 x,y,z
_cell_length_a                   11.2410(6)
_cell_length_b                   13.2790(7)
_cell_length_c                   18.0020(10)
_cell_angle_alpha                86.469(2)
_cell_angle_beta                 75.801(2)
_cell_angle_gamma                81.052(2)
_cell_volume                     2572.58
loop_
_atom_site_label
_atom_site_type_symbol
_atom_site_fract_x
_atom_site_fract_y
_atom_site_fract_z
In2 In 0.12771(3) 0.02664(2) 0.09788(2)
O10 O 0.0220(5) 0.0209(4) 0.2188(2)
O16 O 0.1366(4) 0.1832(3) 0.1207(2)
H31 H 0.010825 0.0891137 0.241357
O15 O 0.2359(3) 0.0534(3) 0.98176(18)
In1 In 0.06138(3) 0.79214(2) 0.00398(2)
O2 O 0.6944(3) 0.0111(3) 0.87708(19)
O3 O 0.1259(4) 0.8748(2) 0.0784(2)
O6 O 0.0823(3) 0.6528(2) 0.06616(19)
O7 O 0.1256(3) 0.1792(3) 0.9279(2)
O8 O 0.0049(4) 0.2953(3) 0.0715(2)
C1 C 0.3328(4) 0.1274(4) 0.8645(3)
C2 C 0.3161(5) 0.1771(4) 0.7952(3)
H1 H 0.234652 0.202456 0.790038
C3 C 0.2233(5) 0.1182(4) 0.9293(3)
O11 O 0.2060(5) 0.6955(3) 0.1360(3)
C4 C 0.4506(5) 0.0880(4) 0.8714(2)
H2 H 0.462209 0.052160 0.917003
C5 C 0.0830(5) 0.2703(4) 0.1111(2)
C6 C 0.4151(5) 0.1890(4) 0.7358(3)
C7 C 0.5510(5) 0.1005(4) 0.8125(3)
C8 C 0.3034(5) 0.2549(4) 0.5551(3)
C9 C 0.2158(5) 0.3189(3) 0.3695(3)
H3 H 0.148858 0.286433 0.364232
C10 C 0.1211(5) 0.3542(3) 0.1478(2)
C11 C 0.2696(5) 0.3838(3) 0.3112(3)
C12 C 0.3093(5) 0.2134(4) 0.6278(3)
H4 H 0.251716 0.170449 0.654393
C13 C 0.2185(5) 0.4065(4) 0.2422(3)
C14 C 0.2141(5) 0.2372(4) 0.5065(2)
C15 C 0.0799(5) 0.2752(4) 0.5483(3)
C16 C 0.2605(5) 0.3018(4) 0.4352(3)
C17 C 0.1751(5) 0.3312(3) 0.2103(2)
H5 H 0.182038 0.263634 0.231050
C18 C 0.3876(5) 0.3188(4) 0.5175(3)
C19 C 0.1557(5) 0.5283(4) 0.1478(3)
C20 C 0.6817(5) 0.0600(5) 0.8172(3)
C21 C 0.1087(5) 0.4531(4) 0.1181(3)
H6 H 0.068080 0.469342 0.077512
C22 C 0.3604(5) 0.3487(4) 0.4420(3)
C23 C 0.4030(5) 0.2371(4) 0.6604(3)
C24 C 0.3706(5) 0.4287(4) 0.3186(3)
H7 H 0.408754 0.471198 0.278171
C25 C 0.5350(5) 0.1495(5) 0.7446(3)
H8 H 0.605213 0.156538 0.703770
C26 C 0.2294(5) 0.1248(4) 0.4850(3)
C27 C 0.2105(5) 0.5040(4) 0.2100(3)
H9 H 0.242676 0.555350 0.230411
C28 C 0.4160(5) 0.4121(4) 0.3843(3)
H10 H 0.483717 0.443623 0.389407
C29 C 0.4755(5) 0.3449(4) 0.5510(3)
H11 H 0.530093 0.390847 0.525646
O12 O 0.7686(5) 0.0765(6) 0.7632(4)
C30 C 0.1476(5) 0.6344(4) 0.1152(3)
C31 C 0.0205(6) 0.2170(5) 0.6120(4)
H12 H 0.063901 0.154796 0.626725
C34 C 0.0121(6) 0.3630(5) 0.5295(4)
H15 H 0.048303 0.405263 0.488266
C35 C 0.1369(6) 0.0917(5) 0.4560(4)
H16 H 0.065802 0.138256 0.451140
C39 C 0.3274(7) 0.0557(6) 0.4888(6)
H20 H 0.391590 0.075204 0.508231
C41 C 0.4831(5) 0.3031(4) 0.6220(3)
H22 H 0.544659 0.319900 0.645113
O14 O 0.3056(3) 0.9889(3) 0.12292(19)
H30 H 0.06819 0.970012 0.248114
C37 C 0.1490(7) 0.9922(6) 0.4345(5)
H18 H 0.086605 0.970601 0.414498
C38 C 0.2538(8) 0.9220(6) 0.4421(4)
H19 H 0.260325 0.852227 0.430457
C40 C 0.3395(10) 0.9545(7) 0.4651(7)
H21 H 0.413369 0.909280 0.466195
In8 In 0.87229(3) 0.97336(2) 0.90212(2)
C32 C 0.9005(6) 0.2498(6) 0.6528(4)
H13 H 0.863529 0.211500 0.696315
C33 C 0.8352(6) 0.3373(6) 0.6303(4)
H14 H 0.752209 0.358508 0.657668
C36 C 0.8862(7) 0.3921(5) 0.5716(5)
H17 H 0.839098 0.452199 0.556550
In4 In 0.93862(3) 0.20786(2) 0.99602(2)
O17 O 0.8744(3) 0.8208(3) 0.0721(2)
O18 O 0.9951(4) 0.7047(3) 0.9285(2)
C32_2 C 0.0995(6) 0.7502(6) 0.3472(4)
H13_2 H 0.136471 0.788500 0.303685
C33_2 C 0.1648(6) 0.6627(6) 0.3697(4)
H14_2 H 0.247791 0.641492 0.342332
C36_2 C 0.1138(7) 0.6079(5) 0.4284(5)
H17_2 H 0.160902 0.547801 0.443450
C37_2 C 0.8510(7) 0.0078(6) 0.5655(5)
H18_2 H 0.913395 0.029399 0.585502
C38_2 C 0.7462(8) 0.0780(6) 0.5579(4)
H19_2 H 0.739675 0.147773 0.569543
C40_2 C 0.6605(10) 0.0455(7) 0.5349(7)
H21_2 H 0.586631 0.090720 0.533805
O3_2 O 0.8741(4) 0.1252(2) 0.9216(2)
O4 O 0.7641(3) 0.9466(3) 0.01824(18)
O5 O 0.8634(4) 0.8168(3) 0.8793(2)
O6_2 O 0.9177(3) 0.3472(2) 0.93384(19)
C1_2 C 0.6672(4) 0.8726(4) 0.1355(3)
C2_2 C 0.6839(5) 0.8229(4) 0.2048(3)
H1_2 H 0.765348 0.797544 0.209962
C3_2 C 0.7767(5) 0.8818(4) 0.0707(3)
O11_2 O 0.7940(5) 0.3045(3) 0.8640(3)
C4_2 C 0.5494(5) 0.9120(4) 0.1286(2)
H2_2 H 0.537791 0.947840 0.082997
C5_2 C 0.9170(5) 0.7297(4) 0.8889(2)
C6_2 C 0.5849(5) 0.8110(4) 0.2642(3)
C7_2 C 0.4490(5) 0.8995(4) 0.1875(3)
C8_2 C 0.6966(5) 0.7451(4) 0.4449(3)
C9_2 C 0.7842(5) 0.6811(3) 0.6305(3)
H3_2 H 0.851142 0.713567 0.635768
C10_2 C 0.8789(5) 0.6458(3) 0.8522(2)
C11_2 C 0.7304(5) 0.6162(3) 0.6888(3)
C12_2 C 0.6907(5) 0.7866(4) 0.3722(3)
H4_2 H 0.748284 0.829551 0.345607
C13_2 C 0.7815(5) 0.5935(4) 0.7578(3)
C14_2 C 0.7859(5) 0.7628(4) 0.4935(2)
C15_2 C 0.9201(5) 0.7248(4) 0.4517(3)
C16_2 C 0.7395(5) 0.6982(4) 0.5648(3)
C17_2 C 0.8249(5) 0.6688(3) 0.7897(2)
H5_2 H 0.817962 0.736366 0.768950
C18_2 C 0.6124(5) 0.6812(4) 0.4825(3)
C19_2 C 0.8443(5) 0.4717(4) 0.8522(3)
C20_2 C 0.3183(5) 0.9400(5) 0.1828(3)
C21_2 C 0.8913(5) 0.5469(4) 0.8819(3)
H6_2 H 0.931920 0.530658 0.922488
C22_2 C 0.6396(5) 0.6513(4) 0.5580(3)
C23_2 C 0.5970(5) 0.7629(4) 0.3396(3)
C24_2 C 0.6294(5) 0.5713(4) 0.6814(3)
H7_2 H 0.591246 0.528802 0.721829
C25_2 C 0.4650(5) 0.8505(5) 0.2554(3)
H8_2 H 0.394787 0.843462 0.296230
C26_2 C 0.7706(5) 0.8752(4) 0.5150(3)
C27_2 C 0.7895(5) 0.4960(4) 0.7900(3)
H9_2 H 0.757324 0.444650 0.769589
C28_2 C 0.5840(5) 0.5879(4) 0.6157(3)
H10_2 H 0.516283 0.556377 0.610593
C29_2 C 0.5245(5) 0.6551(4) 0.4490(3)
H11_2 H 0.469907 0.609153 0.474354
O12_2 O 0.2314(5) 0.9235(6) 0.2368(4)
C30_2 C 0.8524(5) 0.3656(4) 0.8848(3)
C31_2 C 0.9795(6) 0.7830(5) 0.3880(4)
H12_2 H 0.936099 0.845204 0.373275
C34_2 C 0.9879(6) 0.6370(5) 0.4705(4)
H15_2 H 0.951697 0.594737 0.511734
C35_2 C 0.8631(6) 0.9083(5) 0.5440(4)
H16_2 H 0.934198 0.861744 0.548860
C39_2 C 0.6726(7) 0.9443(6) 0.5112(6)
H20_2 H 0.608410 0.924796 0.491769
C41_2 C 0.5169(5) 0.6969(4) 0.3780(3)
H22_2 H 0.455341 0.680100 0.354887
H30_2 H 0.93181 0.0299883 0.751886
O10_2 O 0.9780(5) 0.9791(4) 0.7812(2)
H31_2 H 0.989175 0.910886 0.758643
O1 O 0.0389(3) 0.9243(2) 0.93554(18)
O9 O 0.2500(4) 0.7465(4) 0.9359(3)
C42 C 0.3370(11) 0.7890(12) 0.9442(11)
H23 H 0.317027 0.852216 0.969617
N1 N 0.4565(9) 0.7514(10) 0.9195(9)
C43 C 0.5566(11) 0.7924(12) 0.9368(11)
H24 H 0.524251 0.855626 0.965005
H25 H 0.616035 0.806924 0.889064
H26 H 0.598241 0.742926 0.968312
C44 C 0.4844(11) 0.6362(11) 0.8903(10)
H27 H 0.424407 0.596039 0.922760
H28 H 0.568520 0.606099 0.893185
H29 H 0.477252 0.636165 0.837130
O13 O 0.9611(3) 0.0757(2) 0.06446(18)
O9_2 O 0.7500(4) 0.2535(4) 0.0641(3)
C42_2 C 0.6630(11) 0.2110(12) 0.0558(11)
H23_2 H 0.682973 0.147784 0.030383
N1_2 N 0.5435(9) 0.2486(10) 0.0805(9)
C43_2 C 0.4434(11) 0.2076(12) 0.0632(11)
H24_2 H 0.475749 0.144374 0.034995
H25_2 H 0.383965 0.193076 0.110936
H26_2 H 0.401759 0.257074 0.031688
C44_2 C 0.5156(11) 0.3638(11) 0.1097(10)
H27_2 H 0.575593 0.403961 0.077240
H28_2 H 0.431480 0.393901 0.106815
H29_2 H 0.522748 0.363835 0.162870
loop_
_geom_bond_atom_site_label_1
_geom_bond_atom_site_label_2
_geom_bond_site_symmetry_1
_geom_bond_site_symmetry_2
O10 In2 1_555 1_555
O16 In2 1_555 1_555
O10 H31 1_555 1_555
O2 C20 1_555 1_555
O3 In1 1_555 1_555
O15 C3 1_555 1_555
O16 C5 1_555 1_555
O6 In1 1_555 1_555
O7 C3 1_555 1_555
O8 C5 1_555 1_555
C1 C2 1_555 1_555
C2 H1 1_555 1_555
C3 C1 1_555 1_555
O11 C30 1_555 1_555
C4 C1 1_555 1_555
H2 C4 1_555 1_555
C5 C10 1_555 1_555
C6 C2 1_555 1_555
C7 C4 1_555 1_555
C8 C12 1_555 1_555
C9 H3 1_555 1_555
C10 C17 1_555 1_555
C11 C9 1_555 1_555
C12 H4 1_555 1_555
C13 C11 1_555 1_555
C14 C8 1_555 1_555
C15 C14 1_555 1_555
C16 C9 1_555 1_555
C17 C13 1_555 1_555
H5 C17 1_555 1_555
C18 C8 1_555 1_555
C19 C21 1_555 1_555
C20 C7 1_555 1_555
C21 C10 1_555 1_555
H6 C21 1_555 1_555
C22 C16 1_555 1_555
C23 C6 1_555 1_555
C24 C11 1_555 1_555
H7 C24 1_555 1_555
C25 C6 1_555 1_555
H8 C25 1_555 1_555
C26 C14 1_555 1_555
C27 C13 1_555 1_555
H9 C27 1_555 1_555
C28 C22 1_555 1_555
H10 C28 1_555 1_555
C29 C18 1_555 1_555
H11 C29 1_555 1_555
O12 C20 1_555 1_555
C30 O6 1_555 1_555
C31 C15 1_555 1_555
H12 C31 1_555 1_555
C34 C15 1_555 1_555
H15 C34 1_555 1_555
C35 C26 1_555 1_555
H16 C35 1_555 1_555
C39 C26 1_555 1_555
H20 C39 1_555 1_555
C41 C23 1_555 1_555
H22 C41 1_555 1_555
C7 C25 1_555 1_555
C12 C23 1_555 1_555
C14 C16 1_555 1_555
C18 C22 1_555 1_555
C19 C27 1_555 1_555
C19 C30 1_555 1_555
C24 C28 1_555 1_555
C29 C41 1_555 1_555
H18 C37 1_555 1_555
C38 C37 1_555 1_555
H19 C38 1_555 1_555
C40 C38 1_555 1_555
H21 C40 1_555 1_555
H13 C32 1_555 1_555
C33 C32 1_555 1_555
H14 C33 1_555 1_555
C36 C33 1_555 1_555
H17 C36 1_555 1_555
H13_2 C32_2 1_555 1_555
C33_2 C32_2 1_555 1_555
H14_2 C33_2 1_555 1_555
C36_2 C33_2 1_555 1_555
H17_2 C36_2 1_555 1_555
H18_2 C37_2 1_555 1_555
C38_2 C37_2 1_555 1_555
H19_2 C38_2 1_555 1_555
C40_2 C38_2 1_555 1_555
H21_2 C40_2 1_555 1_555
O14 C20_2 1_555 1_555
O3_2 In4 1_555 1_555
O4 C3_2 1_555 1_555
O5 C5_2 1_555 1_555
O6_2 In4 1_555 1_555
O17 C3_2 1_555 1_555
O18 C5_2 1_555 1_555
C1_2 C2_2 1_555 1_555
C2_2 H1_2 1_555 1_555
C3_2 C1_2 1_555 1_555
O11_2 C30_2 1_555 1_555
C4_2 C1_2 1_555 1_555
H2_2 C4_2 1_555 1_555
C5_2 C10_2 1_555 1_555
C6_2 C2_2 1_555 1_555
C7_2 C4_2 1_555 1_555
C8_2 C12_2 1_555 1_555
C9_2 H3_2 1_555 1_555
C10_2 C17_2 1_555 1_555
C11_2 C9_2 1_555 1_555
C12_2 H4_2 1_555 1_555
C13_2 C11_2 1_555 1_555
C14_2 C8_2 1_555 1_555
C15_2 C14_2 1_555 1_555
C16_2 C9_2 1_555 1_555
C17_2 C13_2 1_555 1_555
H5_2 C17_2 1_555 1_555
C18_2 C8_2 1_555 1_555
C19_2 C21_2 1_555 1_555
C20_2 C7_2 1_555 1_555
C21_2 C10_2 1_555 1_555
H6_2 C21_2 1_555 1_555
C22_2 C16_2 1_555 1_555
C23_2 C6_2 1_555 1_555
C24_2 C11_2 1_555 1_555
H7_2 C24_2 1_555 1_555
C25_2 C6_2 1_555 1_555
H8_2 C25_2 1_555 1_555
C26_2 C14_2 1_555 1_555
C27_2 C13_2 1_555 1_555
H9_2 C27_2 1_555 1_555
C28_2 C22_2 1_555 1_555
H10_2 C28_2 1_555 1_555
C29_2 C18_2 1_555 1_555
H11_2 C29_2 1_555 1_555
O12_2 C20_2 1_555 1_555
C30_2 O6_2 1_555 1_555
C31_2 C15_2 1_555 1_555
H12_2 C31_2 1_555 1_555
C34_2 C15_2 1_555 1_555
H15_2 C34_2 1_555 1_555
C35_2 C26_2 1_555 1_555
H16_2 C35_2 1_555 1_555
C39_2 C26_2 1_555 1_555
H20_2 C39_2 1_555 1_555
C41_2 C23_2 1_555 1_555
H22_2 C41_2 1_555 1_555
In8 O5 1_555 1_555
C7_2 C25_2 1_555 1_555
C12_2 C23_2 1_555 1_555
C14_2 C16_2 1_555 1_555
C18_2 C22_2 1_555 1_555
C19_2 C27_2 1_555 1_555
C19_2 C30_2 1_555 1_555
C24_2 C28_2 1_555 1_555
C29_2 C41_2 1_555 1_555
O10_2 In8 1_555 1_555
O10_2 H31_2 1_555 1_555
C42 O9 1_555 1_555
H23 C42 1_555 1_555
N1 C42 1_555 1_555
C43 N1 1_555 1_555
H24 C43 1_555 1_555
H25 C43 1_555 1_555
H26 C43 1_555 1_555
C44 N1 1_555 1_555
H27 C44 1_555 1_555
H28 C44 1_555 1_555
H29 C44 1_555 1_555
C42_2 O9_2 1_555 1_555
H23_2 C42_2 1_555 1_555
N1_2 C42_2 1_555 1_555
C43_2 N1_2 1_555 1_555
H24_2 C43_2 1_555 1_555
H25_2 C43_2 1_555 1_555
H26_2 C43_2 1_555 1_555
C44_2 N1_2 1_555 1_555
H27_2 C44_2 1_555 1_555
H28_2 C44_2 1_555 1_555
H29_2 C44_2 1_555 1_555

#END
