
###############################################################################
#
# This file contains modified crystal structure data generated from the
# MOF subset of the Cambridge Structural Database (CSD) v543 
# hosted by the Cambridge Crystallographic Data Centre (CCDC).
#
# This work is licensed under the Creative Commons
# Attribution-NonCommercial-ShareAlike 4.0 International License.
# To view a copy of this license, visit
# http://creativecommons.org/licenses/by-nc-sa/4.0/
# or send a letter to
# Creative Commons, PO Box 1866, Mountain View, CA 94042, USA.
#
# CIF created using the CSD Python API on 29 September 2022
# The structure has been converted into the P1 space group
# The structure has a 3D framework
# The original CSD entry ESURER02 is in the monoclinic crystal system
# The framework has been calculated to contain at least 10.0% void space
# The void calculation uses a probe of radius 1.32A, grid spacing 0.4
#
###############################################################################

data_ESURER02
_chemical_formula_moiety         '(C56 H32 Co10 N24 O24)n'
_symmetry_cell_setting           triclinic
_symmetry_space_group_name_H-M   'P 1'
_symmetry_Int_Tables_number      1
_space_group_name_Hall           'P 1'
loop_
_symmetry_equiv_pos_site_id
_symmetry_equiv_pos_as_xyz
1 x,y,z
_cell_length_a                   17.8531(2)
_cell_length_b                   12.62254(15)
_cell_length_c                   11.19092(11)
_cell_angle_alpha                90
_cell_angle_beta                 94.8394(10)
_cell_angle_gamma                90
_cell_volume                     2512.9
loop_
_atom_site_label
_atom_site_type_symbol
_atom_site_fract_x
_atom_site_fract_y
_atom_site_fract_z
Co5 Co 0.0000 0.09580(5) 0.2500
Co5_2 Co 1.0000 0.09580(5) 0.2500
Co6 Co 0.92133(3) 0.05929(4) 0.50051(4)
Co7 Co 0.07867(3) 0.05929(4) 0.99949(4)
Co1 Co 0.5000 0.59580(5) 0.2500
Co2 Co 0.42133(3) 0.55929(4) 0.50051(4)
N1 N 0.87397(16) 0.9348(2) 0.1623(2)
N2 N 0.91086(16) 0.9829(2) 0.2561(2)
N3 N 0.87731(16) 0.9705(2) 0.3562(2)
C1 C 0.81189(19) 0.8874(3) 0.2054(3)
C2 C 0.81485(19) 0.9109(3) 0.3281(3)
C3 C 0.7598(2) 0.8736(3) 0.4006(3)
H1 H 0.7622 0.8885 0.4831
C4 C 0.7028(2) 0.8147(3) 0.3452(3)
H2 H 0.6652 0.7884 0.3911
C5 C 0.69862(19) 0.7919(3) 0.2204(3)
C6 C 0.7528(2) 0.8274(3) 0.1491(3)
H3 H 0.7503 0.8121 0.0666
C7 C 0.6332(2) 0.7264(3) 0.1685(3)
O1 O 0.52018(13) 0.58038(19) 0.4321(2)
H4 H 0.543(2) 0.641(2) 0.467(3)
O2 O 0.63586(14) 0.6902(2) 0.0632(2)
O3 O 0.58102(14) 0.7124(2) 0.2350(2)
N4 N 0.12603(16) 0.9348(2) 0.3377(2)
N5 N 0.08914(16) 0.9829(2) 0.2439(2)
N6 N 0.12269(16) 0.9705(2) 0.1438(2)
C8 C 0.18811(19) 0.8874(3) 0.2946(3)
C9 C 0.18515(19) 0.9109(3) 0.1719(3)
C10 C 0.2402(2) 0.8736(3) 0.0994(3)
H5 H 0.2378 0.8885 0.0169
C11 C 0.2972(2) 0.8147(3) 0.1548(3)
H6 H 0.3348 0.7884 0.1089
C12 C 0.30138(19) 0.7919(3) 0.2796(3)
C13 C 0.2472(2) 0.8274(3) 0.3509(3)
H7 H 0.2497 0.8121 0.4334
C14 C 0.3668(2) 0.7264(3) 0.3315(3)
O4 O 0.47982(13) 0.58038(19) 0.0679(2)
H8 H 0.457(2) 0.641(2) 0.033(3)
O5 O 0.36414(14) 0.6902(2) 0.4368(2)
O6 O 0.41898(14) 0.7124(2) 0.2650(2)
Co8 Co 0.57867(3) 0.44071(4) 0.49949(4)
Co9 Co 0.42133(3) 0.44071(4) 0.00051(4)
Co10 Co 0.07867(3) 0.94071(4) 0.49949(4)
Co11 Co 0.92133(3) 0.94071(4) 0.00051(4)
N8 N 0.37397(16) 0.5652(2) 0.6623(2)
N9 N 0.41086(16) 0.4829(2) 0.2561(2)
N10 N 0.58914(16) 0.4829(2) 0.2439(2)
N11 N 0.37731(16) 0.4705(2) 0.3562(2)
N12 N 0.62269(16) 0.4705(2) 0.1438(2)
O7 O 0.47982(13) 0.41962(19) 0.5679(2)
Co3 Co 0.57867(3) 0.55929(4) 0.99949(4)
N7 N 0.62603(16) 0.5652(2) 0.8377(2)
O8 O 0.52018(13) 0.41962(19) 0.9321(2)
N1_2 N 0.37397(16) 0.4348(2) 0.1623(2)
C1_2 C 0.31189(19) 0.3874(3) 0.2054(3)
C2_2 C 0.31485(19) 0.4109(3) 0.3281(3)
C3_2 C 0.2598(2) 0.3736(3) 0.4006(3)
H1_2 H 0.2622 0.3885 0.4831
C4_2 C 0.2028(2) 0.3147(3) 0.3452(3)
H2_2 H 0.1652 0.2884 0.3911
C5_2 C 0.19862(19) 0.2919(3) 0.2204(3)
C6_2 C 0.2528(2) 0.3274(3) 0.1491(3)
H3_2 H 0.2503 0.3121 0.0666
C7_2 C 0.1332(2) 0.2264(3) 0.1685(3)
O1_2 O 0.02018(13) 0.08038(19) 0.4321(2)
H4_2 H 0.043(2) 0.141(2) 0.467(3)
O2_2 O 0.13586(14) 0.1902(2) 0.0632(2)
O3_2 O 0.08102(14) 0.2124(2) 0.2350(2)
N7_2 N 0.12603(16) 0.0652(2) 0.8377(2)
O8_2 O 0.02018(13) 0.91962(19) 0.9321(2)
N4_2 N 0.62603(16) 0.4348(2) 0.3377(2)
C8_2 C 0.68811(19) 0.3874(3) 0.2946(3)
C9_2 C 0.68515(19) 0.4109(3) 0.1719(3)
C10_2 C 0.7402(2) 0.3736(3) 0.0994(3)
H5_2 H 0.7378 0.3885 0.0169
C11_2 C 0.7972(2) 0.3147(3) 0.1548(3)
H6_2 H 0.8348 0.2884 0.1089
C12_2 C 0.80138(19) 0.2919(3) 0.2796(3)
C13_2 C 0.7472(2) 0.3274(3) 0.3509(3)
H7_2 H 0.7497 0.3121 0.4334
C14_2 C 0.8668(2) 0.2264(3) 0.3315(3)
O4_2 O 0.97982(13) 0.08038(19) 0.0679(2)
H8_2 H 0.957(2) 0.141(2) 0.033(3)
O5_2 O 0.86414(14) 0.1902(2) 0.4368(2)
O6_2 O 0.91898(14) 0.2124(2) 0.2650(2)
N8_2 N 0.87397(16) 0.0652(2) 0.6623(2)
O7_2 O 0.97982(13) 0.91962(19) 0.5679(2)
Co4 Co -0.0000 0.90420(5) 0.7500
Co1_2 Co 0.5000 0.40420(5) 0.7500
N2_2 N 0.08914(16) 0.0171(2) 0.7439(2)
N3_2 N 0.12269(16) 0.0295(2) 0.6438(2)
C1_3 C 0.18811(19) 0.1126(3) 0.7946(3)
C2_3 C 0.18515(19) 0.0891(3) 0.6719(3)
C3_3 C 0.2402(2) 0.1264(3) 0.5994(3)
H1_3 H 0.2378 0.1115 0.5169
C4_3 C 0.2972(2) 0.1853(3) 0.6548(3)
H2_3 H 0.3348 0.2116 0.6089
C5_3 C 0.30138(19) 0.2081(3) 0.7796(3)
C6_3 C 0.2472(2) 0.1726(3) 0.8509(3)
H3_3 H 0.2497 0.1879 0.9334
C7_3 C 0.3668(2) 0.2736(3) 0.8315(3)
H4_3 H 0.457(2) 0.359(2) 0.533(3)
O2_3 O 0.36414(14) 0.3098(2) 0.9368(2)
O3_3 O 0.41898(14) 0.2876(2) 0.7650(2)
N5_2 N 0.91086(16) 0.0171(2) 0.7561(2)
N6_2 N 0.87731(16) 0.0295(2) 0.8562(2)
C8_3 C 0.81189(19) 0.1126(3) 0.7054(3)
C9_3 C 0.81485(19) 0.0891(3) 0.8281(3)
C10_3 C 0.7598(2) 0.1264(3) 0.9006(3)
H5_3 H 0.7622 0.1115 0.9831
C11_3 C 0.7028(2) 0.1853(3) 0.8452(3)
H6_3 H 0.6652 0.2116 0.8911
C12_3 C 0.69862(19) 0.2081(3) 0.7204(3)
C13_3 C 0.7528(2) 0.1726(3) 0.6491(3)
H7_3 H 0.7503 0.1879 0.5666
C14_3 C 0.6332(2) 0.2736(3) 0.6685(3)
H8_3 H 0.543(2) 0.359(2) 0.967(3)
O5_3 O 0.63586(14) 0.3098(2) 0.5632(2)
O6_3 O 0.58102(14) 0.2876(2) 0.7350(2)
N9_2 N 0.58914(16) 0.5171(2) 0.7439(2)
N10_2 N 0.41086(16) 0.5171(2) 0.7561(2)
N11_2 N 0.62269(16) 0.5295(2) 0.6438(2)
N12_2 N 0.37731(16) 0.5295(2) 0.8562(2)
Co4_2 Co 1.0000 0.90420(5) 0.7500
C8_4 C 0.31189(19) 0.6126(3) 0.7054(3)
C9_4 C 0.31485(19) 0.5891(3) 0.8281(3)
C10_4 C 0.2598(2) 0.6264(3) 0.9006(3)
H5_4 H 0.2622 0.6115 0.9831
C11_4 C 0.2028(2) 0.6853(3) 0.8452(3)
H6_4 H 0.1652 0.7116 0.8911
C12_4 C 0.19862(19) 0.7081(3) 0.7204(3)
C13_4 C 0.2528(2) 0.6726(3) 0.6491(3)
H7_4 H 0.2503 0.6879 0.5666
C14_4 C 0.1332(2) 0.7736(3) 0.6685(3)
H8_4 H 0.043(2) 0.859(2) 0.967(3)
O5_4 O 0.13586(14) 0.8098(2) 0.5632(2)
O6_4 O 0.08102(14) 0.7876(2) 0.7350(2)
C1_4 C 0.68811(19) 0.6126(3) 0.7946(3)
C2_4 C 0.68515(19) 0.5891(3) 0.6719(3)
C3_4 C 0.7402(2) 0.6264(3) 0.5994(3)
H1_4 H 0.7378 0.6115 0.5169
C4_4 C 0.7972(2) 0.6853(3) 0.6548(3)
H2_4 H 0.8348 0.7116 0.6089
C5_4 C 0.80138(19) 0.7081(3) 0.7796(3)
C6_4 C 0.7472(2) 0.6726(3) 0.8509(3)
H3_4 H 0.7497 0.6879 0.9334
C7_4 C 0.8668(2) 0.7736(3) 0.8315(3)
H4_4 H 0.957(2) 0.859(2) 0.533(3)
O2_4 O 0.86414(14) 0.8098(2) 0.9368(2)
O3_4 O 0.91898(14) 0.7876(2) 0.7650(2)
loop_
_geom_bond_atom_site_label_1
_geom_bond_atom_site_label_2
_geom_bond_site_symmetry_1
_geom_bond_site_symmetry_2
Co1 O1 1_555 1_555
Co2 O1 1_555 1_555
N1 N2 1_555 1_555
N2 N3 1_555 1_555
N3 C2 1_555 1_555
C1 N1 1_555 1_555
C2 C1 1_555 1_555
C3 C2 1_555 1_555
H1 C3 1_555 1_555
C4 C3 1_555 1_555
H2 C4 1_555 1_555
C5 C4 1_555 1_555
C6 C1 1_555 1_555
H3 C6 1_555 1_555
C7 C5 1_555 1_555
O1 H4 1_555 1_555
O2 C7 1_555 1_555
O3 Co1 1_555 1_555
N4 N5 1_555 1_555
N5 N6 1_555 1_555
N6 C9 1_555 1_555
C8 N4 1_555 1_555
C9 C8 1_555 1_555
C10 C9 1_555 1_555
H5 C10 1_555 1_555
C11 C10 1_555 1_555
H6 C11 1_555 1_555
C12 C11 1_555 1_555
C13 C8 1_555 1_555
H7 C13 1_555 1_555
C14 C12 1_555 1_555
O4 Co1 1_555 1_555
H8 O4 1_555 1_555
O5 Co2 1_555 1_555
O6 Co1 1_555 1_555
Co8 O1 1_555 1_555
Co9 O4 1_555 1_555
Co10 N4 1_555 1_555
Co11 N1 1_555 1_555
N8 Co2 1_555 1_555
N9 Co1 1_555 1_555
N10 Co1 1_555 1_555
N11 Co2 1_555 1_555
O7 Co2 1_555 1_555
C5 C6 1_555 1_555
C7 O3 1_555 1_555
C12 C13 1_555 1_555
C14 O5 1_555 1_555
C14 O6 1_555 1_555
Co8 O7 1_555 1_555
N9 N11 1_555 1_555
N10 N12 1_555 1_555
N7 Co3 1_555 1_555
O8 Co3 1_555 1_555
Co5 O1_2 1_555 1_555
N1_2 N9 1_555 1_555
N11 C2_2 1_555 1_555
C1_2 N1_2 1_555 1_555
C2_2 C1_2 1_555 1_555
C3_2 C2_2 1_555 1_555
H1_2 C3_2 1_555 1_555
C4_2 C3_2 1_555 1_555
H2_2 C4_2 1_555 1_555
C5_2 C4_2 1_555 1_555
C6_2 C1_2 1_555 1_555
H3_2 C6_2 1_555 1_555
C7_2 C5_2 1_555 1_555
O1_2 H4_2 1_555 1_555
O2_2 C7_2 1_555 1_555
O3_2 Co5 1_555 1_555
Co9 N1_2 1_555 1_555
C5_2 C6_2 1_555 1_555
C7_2 O3_2 1_555 1_555
N7_2 Co7 1_555 1_555
N4_2 N10 1_555 1_555
N12 C9_2 1_555 1_555
C8_2 N4_2 1_555 1_555
C9_2 C8_2 1_555 1_555
C10_2 C9_2 1_555 1_555
H5_2 C10_2 1_555 1_555
C11_2 C10_2 1_555 1_555
H6_2 C11_2 1_555 1_555
C12_2 C11_2 1_555 1_555
C13_2 C8_2 1_555 1_555
H7_2 C13_2 1_555 1_555
C14_2 C12_2 1_555 1_555
O4_2 Co5_2 1_555 1_555
H8_2 O4_2 1_555 1_555
O5_2 Co6 1_555 1_555
O6_2 Co5_2 1_555 1_555
Co8 N4_2 1_555 1_555
N8_2 Co6 1_555 1_555
C12_2 C13_2 1_555 1_555
C14_2 O5_2 1_555 1_555
C14_2 O6_2 1_555 1_555
Co1_2 O7 1_555 1_555
N7_2 N2_2 1_555 1_555
N2_2 N3_2 1_555 1_555
N3_2 C2_3 1_555 1_555
C1_3 N7_2 1_555 1_555
C2_3 C1_3 1_555 1_555
C3_3 C2_3 1_555 1_555
H1_3 C3_3 1_555 1_555
C4_3 C3_3 1_555 1_555
H2_3 C4_3 1_555 1_555
C5_3 C4_3 1_555 1_555
C6_3 C1_3 1_555 1_555
H3_3 C6_3 1_555 1_555
C7_3 C5_3 1_555 1_555
O7 H4_3 1_555 1_555
O2_3 C7_3 1_555 1_555
O3_3 Co1_2 1_555 1_555
N8_2 N5_2 1_555 1_555
N5_2 N6_2 1_555 1_555
N6_2 C9_3 1_555 1_555
C8_3 N8_2 1_555 1_555
C9_3 C8_3 1_555 1_555
C10_3 C9_3 1_555 1_555
H5_3 C10_3 1_555 1_555
C11_3 C10_3 1_555 1_555
H6_3 C11_3 1_555 1_555
C12_3 C11_3 1_555 1_555
C13_3 C8_3 1_555 1_555
H7_3 C13_3 1_555 1_555
C14_3 C12_3 1_555 1_555
O8 Co1_2 1_555 1_555
H8_3 O8 1_555 1_555
O5_3 Co8 1_555 1_555
O6_3 Co1_2 1_555 1_555
N9_2 Co1_2 1_555 1_555
N10_2 Co1_2 1_555 1_555
N11_2 Co8 1_555 1_555
C5_3 C6_3 1_555 1_555
C7_3 O3_3 1_555 1_555
C12_3 C13_3 1_555 1_555
C14_3 O5_3 1_555 1_555
C14_3 O6_3 1_555 1_555
N9_2 N11_2 1_555 1_555
N10_2 N12_2 1_555 1_555
N8 N10_2 1_555 1_555
N12_2 C9_4 1_555 1_555
C8_4 N8 1_555 1_555
C9_4 C8_4 1_555 1_555
C10_4 C9_4 1_555 1_555
H5_4 C10_4 1_555 1_555
C11_4 C10_4 1_555 1_555
H6_4 C11_4 1_555 1_555
C12_4 C11_4 1_555 1_555
C13_4 C8_4 1_555 1_555
H7_4 C13_4 1_555 1_555
C14_4 C12_4 1_555 1_555
O8_2 Co4 1_555 1_555
H8_4 O8_2 1_555 1_555
O5_4 Co10 1_555 1_555
O6_4 Co4 1_555 1_555
C12_4 C13_4 1_555 1_555
C14_4 O5_4 1_555 1_555
C14_4 O6_4 1_555 1_555
Co4_2 O7_2 1_555 1_555
N7 N9_2 1_555 1_555
N11_2 C2_4 1_555 1_555
C1_4 N7 1_555 1_555
C2_4 C1_4 1_555 1_555
C3_4 C2_4 1_555 1_555
H1_4 C3_4 1_555 1_555
C4_4 C3_4 1_555 1_555
H2_4 C4_4 1_555 1_555
C5_4 C4_4 1_555 1_555
C6_4 C1_4 1_555 1_555
H3_4 C6_4 1_555 1_555
C7_4 C5_4 1_555 1_555
O7_2 H4_4 1_555 1_555
O2_4 C7_4 1_555 1_555
O3_4 Co4_2 1_555 1_555
C5_4 C6_4 1_555 1_555
C7_4 O3_4 1_555 1_555

#END
