
###############################################################################
#
# This file contains modified crystal structure data generated from the
# MOF subset of the Cambridge Structural Database (CSD) v543 
# hosted by the Cambridge Crystallographic Data Centre (CCDC).
#
# This work is licensed under the Creative Commons
# Attribution-NonCommercial-ShareAlike 4.0 International License.
# To view a copy of this license, visit
# http://creativecommons.org/licenses/by-nc-sa/4.0/
# or send a letter to
# Creative Commons, PO Box 1866, Mountain View, CA 94042, USA.
#
# CIF created using the CSD Python API on 29 September 2022
# The structure has been converted into the P1 space group
# The structure has a 3D framework
# The original CSD entry ESURER04 is in the monoclinic crystal system
# The framework has been calculated to contain at least 10.0% void space
# The void calculation uses a probe of radius 1.32A, grid spacing 0.4
#
###############################################################################

data_ESURER04
_chemical_formula_moiety         '(C56 H32 Co10 N24 O24)n'
_symmetry_cell_setting           triclinic
_symmetry_space_group_name_H-M   'P 1'
_symmetry_Int_Tables_number      1
_space_group_name_Hall           'P 1'
loop_
_symmetry_equiv_pos_site_id
_symmetry_equiv_pos_as_xyz
1 x,y,z
_cell_length_a                   17.518(9)
_cell_length_b                   13.309(9)
_cell_length_c                   11.181(6)
_cell_angle_alpha                90
_cell_angle_beta                 95.873(15)
_cell_angle_gamma                90
_cell_volume                     2593.13
loop_
_atom_site_label
_atom_site_type_symbol
_atom_site_fract_x
_atom_site_fract_y
_atom_site_fract_z
Co1 Co -0.0000 0.09134(12) 0.2500
O6 O 0.0219(3) 0.0764(4) 0.4355(5)
H8 H 0.049(2) 0.130(2) 0.439(6)
Co6 Co 0.08071(6) 0.05812(9) 0.00149(10)
N7 N 0.1270(4) 0.0259(5) 0.6469(6)
O7 O 0.0823(3) 0.2019(5) 0.2361(5)
Co3 Co 0.08071(6) 0.94188(9) 0.50149(10)
C8 C 0.3661(5) 0.7188(7) 0.3298(8)
C9 C 0.3028(5) 0.7908(7) 0.2807(7)
C10 C 0.2502(5) 0.8283(7) 0.3527(7)
H5 H 0.2535 0.8124 0.4341
C11 C 0.1916(5) 0.8912(6) 0.3004(7)
C12 C 0.1890(5) 0.9135(7) 0.1748(8)
C13 C 0.2424(5) 0.8770(7) 0.1015(8)
H6 H 0.2404 0.8934 0.0204
C14 C 0.2983(5) 0.8151(7) 0.1568(8)
H7 H 0.3346 0.7881 0.1109
N4 N 0.1270(4) 0.9741(5) 0.1469(6)
N5 N 0.0927(4) 0.9860(5) 0.2490(6)
N6 N 0.1300(4) 0.9388(5) 0.3398(6)
O4 O 0.4177(3) 0.7019(5) 0.2639(5)
O5 O 0.3631(3) 0.6830(5) 0.4366(5)
Co5 Co 0.5000 0.59134(12) 0.2500
Co9 Co 0.41929(6) 0.55812(9) 0.49851(10)
O10 O 0.1369(3) 0.8170(5) 0.5634(5)
O11 O 0.0219(3) 0.9236(4) 0.9355(5)
Co1_2 Co 1.0000 0.09134(12) 0.2500
O3 O 0.9781(3) 0.0764(4) 0.0645(5)
H4 H 0.951(2) 0.130(2) 0.061(6)
Co7 Co 0.91929(6) 0.05812(9) 0.49851(10)
O8 O 0.9177(3) 0.2019(5) 0.2639(5)
N8 N 0.8730(4) 0.0259(5) 0.8531(6)
C1 C 0.6339(5) 0.7188(7) 0.1702(8)
C2 C 0.6972(5) 0.7908(7) 0.2193(7)
C3 C 0.7498(5) 0.8283(7) 0.1473(7)
H1 H 0.7465 0.8124 0.0659
C4 C 0.8084(5) 0.8912(6) 0.1996(7)
C5 C 0.8110(5) 0.9135(7) 0.3252(8)
C6 C 0.7576(5) 0.8770(7) 0.3985(8)
H2 H 0.7596 0.8934 0.4796
C7 C 0.7017(5) 0.8151(7) 0.3432(8)
H3 H 0.6654 0.7881 0.3891
N1 N 0.8730(4) 0.9741(5) 0.3531(6)
N2 N 0.9073(4) 0.9860(5) 0.2510(6)
N3 N 0.8700(4) 0.9388(5) 0.1602(6)
O1 O 0.5823(3) 0.7019(5) 0.2361(5)
O2 O 0.6369(3) 0.6830(5) 0.0634(5)
Co8 Co 0.58071(6) 0.55812(9) 0.00149(10)
O12 O 0.9781(3) 0.9236(4) 0.5645(5)
Co2 Co 0.91929(6) 0.94188(9) 0.99851(10)
O9 O 0.8631(3) 0.8170(5) 0.9366(5)
C1_2 C 0.1339(5) 0.2188(7) 0.1702(8)
C2_2 C 0.1972(5) 0.2908(7) 0.2193(7)
C3_2 C 0.2498(5) 0.3283(7) 0.1473(7)
H1_2 H 0.2465 0.3124 0.0659
C4_2 C 0.3084(5) 0.3912(6) 0.1996(7)
C5_2 C 0.3110(5) 0.4135(7) 0.3252(8)
C6_2 C 0.2576(5) 0.3770(7) 0.3985(8)
H2_2 H 0.2596 0.3934 0.4796
C7_2 C 0.2017(5) 0.3151(7) 0.3432(8)
H3_2 H 0.1654 0.2881 0.3891
N1_2 N 0.3730(4) 0.4741(5) 0.3531(6)
N2_2 N 0.4073(4) 0.4860(5) 0.2510(6)
N3_2 N 0.3700(4) 0.4388(5) 0.1602(6)
O2_2 O 0.1369(3) 0.1830(5) 0.0634(5)
O3_2 O 0.4781(3) 0.5764(4) 0.0645(5)
H4_2 H 0.451(2) 0.630(2) 0.061(6)
Co3_2 Co 0.58071(6) 0.44188(9) 0.50149(10)
C8_2 C 0.8661(5) 0.2188(7) 0.3298(8)
C9_2 C 0.8028(5) 0.2908(7) 0.2807(7)
C10_2 C 0.7502(5) 0.3283(7) 0.3527(7)
H5_2 H 0.7535 0.3124 0.4341
C11_2 C 0.6916(5) 0.3912(6) 0.3004(7)
C12_2 C 0.6890(5) 0.4135(7) 0.1748(8)
C13_2 C 0.7424(5) 0.3770(7) 0.1015(8)
H6_2 H 0.7404 0.3934 0.0204
C14_2 C 0.7983(5) 0.3151(7) 0.1568(8)
H7_2 H 0.8346 0.2881 0.1109
N4_2 N 0.6270(4) 0.4741(5) 0.1469(6)
N5_2 N 0.5927(4) 0.4860(5) 0.2490(6)
N6_2 N 0.6300(4) 0.4388(5) 0.3398(6)
O5_2 O 0.8631(3) 0.1830(5) 0.4366(5)
O6_2 O 0.5219(3) 0.5764(4) 0.4355(5)
H8_2 H 0.549(2) 0.630(2) 0.439(6)
N7_2 N 0.6270(4) 0.5259(5) 0.6469(6)
O10_2 O 0.6369(3) 0.3170(5) 0.5634(5)
O12_2 O 0.4781(3) 0.4236(4) 0.5645(5)
Co2_2 Co 0.41929(6) 0.44188(9) 0.99851(10)
N8_2 N 0.3730(4) 0.5259(5) 0.8531(6)
O9_2 O 0.3631(3) 0.3170(5) 0.9366(5)
O11_2 O 0.5219(3) 0.4236(4) 0.9355(5)
C1_3 C 0.3661(5) 0.2812(7) 0.8298(8)
C2_3 C 0.3028(5) 0.2092(7) 0.7807(7)
C3_3 C 0.2502(5) 0.1717(7) 0.8527(7)
H1_3 H 0.2535 0.1876 0.9341
C4_3 C 0.1916(5) 0.1088(6) 0.8004(7)
C5_3 C 0.1890(5) 0.0865(7) 0.6748(8)
C6_3 C 0.2424(5) 0.1230(7) 0.6015(8)
H2_3 H 0.2404 0.1066 0.5204
C7_3 C 0.2983(5) 0.1849(7) 0.6568(8)
H3_3 H 0.3346 0.2119 0.6109
N2_3 N 0.0927(4) 0.0140(5) 0.7490(6)
N3_3 N 0.1300(4) 0.0612(5) 0.8398(6)
O1_2 O 0.4177(3) 0.2981(5) 0.7639(5)
Co4 Co 0.5000 0.40866(12) 0.7500
Co1_3 Co 0.0000 0.90866(12) 0.7500
H4_3 H 0.049(2) 0.870(2) 0.939(6)
O8_2 O 0.0823(3) 0.7981(5) 0.7361(5)
C8_3 C 0.6339(5) 0.2812(7) 0.6702(8)
C9_3 C 0.6972(5) 0.2092(7) 0.7193(7)
C10_3 C 0.7498(5) 0.1717(7) 0.6473(7)
H5_3 H 0.7465 0.1876 0.5659
C11_3 C 0.8084(5) 0.1088(6) 0.6996(7)
C12_3 C 0.8110(5) 0.0865(7) 0.8252(8)
C13_3 C 0.7576(5) 0.1230(7) 0.8985(8)
H6_3 H 0.7596 0.1066 0.9796
C14_3 C 0.7017(5) 0.1849(7) 0.8432(8)
H7_3 H 0.6654 0.2119 0.8891
N5_3 N 0.9073(4) 0.0140(5) 0.7510(6)
N6_3 N 0.8700(4) 0.0612(5) 0.6602(6)
O4_2 O 0.5823(3) 0.2981(5) 0.7361(5)
Co1_4 Co 1.0000 0.90866(12) 0.7500
H8_3 H 0.951(2) 0.870(2) 0.561(6)
O7_2 O 0.9177(3) 0.7981(5) 0.7639(5)
C1_4 C 0.8661(5) 0.7812(7) 0.8298(8)
C2_4 C 0.8028(5) 0.7092(7) 0.7807(7)
C3_4 C 0.7502(5) 0.6717(7) 0.8527(7)
H1_4 H 0.7535 0.6876 0.9341
C4_4 C 0.6916(5) 0.6088(6) 0.8004(7)
C5_4 C 0.6890(5) 0.5865(7) 0.6748(8)
C6_4 C 0.7424(5) 0.6230(7) 0.6015(8)
H2_4 H 0.7404 0.6066 0.5204
C7_4 C 0.7983(5) 0.6849(7) 0.6568(8)
H3_4 H 0.8346 0.7119 0.6109
N2_4 N 0.5927(4) 0.5140(5) 0.7490(6)
N3_4 N 0.6300(4) 0.5612(5) 0.8398(6)
H4_4 H 0.549(2) 0.370(2) 0.939(6)
C8_4 C 0.1339(5) 0.7812(7) 0.6702(8)
C9_4 C 0.1972(5) 0.7092(7) 0.7193(7)
C10_4 C 0.2498(5) 0.6717(7) 0.6473(7)
H5_4 H 0.2465 0.6876 0.5659
C11_4 C 0.3084(5) 0.6088(6) 0.6996(7)
C12_4 C 0.3110(5) 0.5865(7) 0.8252(8)
C13_4 C 0.2576(5) 0.6230(7) 0.8985(8)
H6_4 H 0.2596 0.6066 0.9796
C14_4 C 0.2017(5) 0.6849(7) 0.8432(8)
H7_4 H 0.1654 0.7119 0.8891
N5_4 N 0.4073(4) 0.5140(5) 0.7510(6)
N6_4 N 0.3700(4) 0.5612(5) 0.6602(6)
H8_4 H 0.451(2) 0.370(2) 0.561(6)
loop_
_geom_bond_atom_site_label_1
_geom_bond_atom_site_label_2
_geom_bond_site_symmetry_1
_geom_bond_site_symmetry_2
O6 Co1 1_555 1_555
H8 O6 1_555 1_555
O7 Co1 1_555 1_555
Co3 N6 1_555 1_555
C8 C9 1_555 1_555
C9 C10 1_555 1_555
C10 H5 1_555 1_555
C11 C10 1_555 1_555
C12 C11 1_555 1_555
C13 C12 1_555 1_555
H6 C13 1_555 1_555
C14 C9 1_555 1_555
H7 C14 1_555 1_555
N4 C12 1_555 1_555
N6 C11 1_555 1_555
O4 C8 1_555 1_555
O5 C8 1_555 1_555
Co5 O4 1_555 1_555
Co9 O5 1_555 1_555
O10 Co3 1_555 1_555
C13 C14 1_555 1_555
N4 N5 1_555 1_555
N5 N6 1_555 1_555
O3 Co1_2 1_555 1_555
H4 O3 1_555 1_555
O8 Co1_2 1_555 1_555
C1 C2 1_555 1_555
C2 C3 1_555 1_555
C3 H1 1_555 1_555
C4 C3 1_555 1_555
C5 C4 1_555 1_555
C6 C5 1_555 1_555
H2 C6 1_555 1_555
C7 C2 1_555 1_555
H3 C7 1_555 1_555
N1 C5 1_555 1_555
N2 N1 1_555 1_555
N3 C4 1_555 1_555
O1 C1 1_555 1_555
O2 C1 1_555 1_555
Co5 O1 1_555 1_555
Co8 O2 1_555 1_555
C6 C7 1_555 1_555
N2 N3 1_555 1_555
O9 Co2 1_555 1_555
Co5 N2_2 1_555 1_555
C1_2 C2_2 1_555 1_555
C2_2 C3_2 1_555 1_555
C3_2 H1_2 1_555 1_555
C4_2 C3_2 1_555 1_555
C5_2 C4_2 1_555 1_555
C6_2 C5_2 1_555 1_555
H2_2 C6_2 1_555 1_555
C7_2 C2_2 1_555 1_555
H3_2 C7_2 1_555 1_555
N1_2 C5_2 1_555 1_555
N2_2 N1_2 1_555 1_555
N3_2 C4_2 1_555 1_555
O7 C1_2 1_555 1_555
O2_2 C1_2 1_555 1_555
O3_2 Co5 1_555 1_555
H4_2 O3_2 1_555 1_555
Co3_2 N6_2 1_555 1_555
C8_2 C9_2 1_555 1_555
C9_2 C10_2 1_555 1_555
C10_2 H5_2 1_555 1_555
C11_2 C10_2 1_555 1_555
C12_2 C11_2 1_555 1_555
C13_2 C12_2 1_555 1_555
H6_2 C13_2 1_555 1_555
C14_2 C9_2 1_555 1_555
H7_2 C14_2 1_555 1_555
N4_2 C12_2 1_555 1_555
N5_2 Co5 1_555 1_555
N6_2 C11_2 1_555 1_555
O8 C8_2 1_555 1_555
O5_2 C8_2 1_555 1_555
O6_2 Co5 1_555 1_555
H8_2 O6_2 1_555 1_555
Co8 O3_2 1_555 1_555
Co9 N1_2 1_555 1_555
Co6 O2_2 1_555 1_555
Co7 O5_2 1_555 1_555
N7_2 Co3_2 1_555 1_555
O10_2 Co3_2 1_555 1_555
O12_2 Co3_2 1_555 1_555
C6_2 C7_2 1_555 1_555
N2_2 N3_2 1_555 1_555
Co3_2 O6_2 1_555 1_555
C13_2 C14_2 1_555 1_555
N4_2 N5_2 1_555 1_555
N4_2 Co8 1_555 1_555
N5_2 N6_2 1_555 1_555
O6_2 Co9 1_555 1_555
Co9 O12_2 1_555 1_555
N8_2 Co2_2 1_555 1_555
O9_2 Co2_2 1_555 1_555
O11_2 Co2_2 1_555 1_555
C1_3 C2_3 1_555 1_555
C2_3 C3_3 1_555 1_555
C3_3 H1_3 1_555 1_555
C4_3 C3_3 1_555 1_555
C5_3 C4_3 1_555 1_555
C6_3 C5_3 1_555 1_555
H2_3 C6_3 1_555 1_555
C7_3 C2_3 1_555 1_555
H3_3 C7_3 1_555 1_555
N7 C5_3 1_555 1_555
N2_3 N7 1_555 1_555
N3_3 C4_3 1_555 1_555
O1_2 C1_3 1_555 1_555
O9_2 C1_3 1_555 1_555
Co4 O1_2 1_555 1_555
C6_3 C7_3 1_555 1_555
N2_3 N3_3 1_555 1_555
O11 Co1_3 1_555 1_555
H4_3 O11 1_555 1_555
O8_2 Co1_3 1_555 1_555
Co7 N6_3 1_555 1_555
C8_3 C9_3 1_555 1_555
C9_3 C10_3 1_555 1_555
C10_3 H5_3 1_555 1_555
C11_3 C10_3 1_555 1_555
C12_3 C11_3 1_555 1_555
C13_3 C12_3 1_555 1_555
H6_3 C13_3 1_555 1_555
C14_3 C9_3 1_555 1_555
H7_3 C14_3 1_555 1_555
N8 C12_3 1_555 1_555
N6_3 C11_3 1_555 1_555
O4_2 C8_3 1_555 1_555
O10_2 C8_3 1_555 1_555
Co4 O4_2 1_555 1_555
C13_3 C14_3 1_555 1_555
N8 N5_3 1_555 1_555
N5_3 N6_3 1_555 1_555
O12 Co1_4 1_555 1_555
H8_3 O12 1_555 1_555
O7_2 Co1_4 1_555 1_555
Co4 N2_4 1_555 1_555
C1_4 C2_4 1_555 1_555
C2_4 C3_4 1_555 1_555
C3_4 H1_4 1_555 1_555
C4_4 C3_4 1_555 1_555
C5_4 C4_4 1_555 1_555
C6_4 C5_4 1_555 1_555
H2_4 C6_4 1_555 1_555
C7_4 C2_4 1_555 1_555
H3_4 C7_4 1_555 1_555
N7_2 C5_4 1_555 1_555
N2_4 N7_2 1_555 1_555
N3_4 C4_4 1_555 1_555
O7_2 C1_4 1_555 1_555
O9 C1_4 1_555 1_555
O11_2 Co4 1_555 1_555
H4_4 O11_2 1_555 1_555
Co9 N6_4 1_555 1_555
C8_4 C9_4 1_555 1_555
C9_4 C10_4 1_555 1_555
C10_4 H5_4 1_555 1_555
C11_4 C10_4 1_555 1_555
C12_4 C11_4 1_555 1_555
C13_4 C12_4 1_555 1_555
H6_4 C13_4 1_555 1_555
C14_4 C9_4 1_555 1_555
H7_4 C14_4 1_555 1_555
N8_2 C12_4 1_555 1_555
N5_4 Co4 1_555 1_555
N6_4 C11_4 1_555 1_555
O8_2 C8_4 1_555 1_555
O10 C8_4 1_555 1_555
O12_2 Co4 1_555 1_555
H8_4 O12_2 1_555 1_555
C6_4 C7_4 1_555 1_555
N2_4 N3_4 1_555 1_555
C13_4 C14_4 1_555 1_555
N8_2 N5_4 1_555 1_555
N5_4 N6_4 1_555 1_555

#END
