
###############################################################################
#
# This file contains modified crystal structure data generated from the
# MOF subset of the Cambridge Structural Database (CSD) v543 
# hosted by the Cambridge Crystallographic Data Centre (CCDC).
#
# This work is licensed under the Creative Commons
# Attribution-NonCommercial-ShareAlike 4.0 International License.
# To view a copy of this license, visit
# http://creativecommons.org/licenses/by-nc-sa/4.0/
# or send a letter to
# Creative Commons, PO Box 1866, Mountain View, CA 94042, USA.
#
# CIF created using the CSD Python API on 29 September 2022
# The structure has been converted into the P1 space group
# The structure has a 3D framework
# The original CSD entry ESURER03 is in the monoclinic crystal system
# The framework has been calculated to contain at least 10.0% void space
# The void calculation uses a probe of radius 1.32A, grid spacing 0.4
#
###############################################################################

data_ESURER03
_chemical_formula_moiety         '(C56 H32 Co10 N24 O24)n'
_symmetry_cell_setting           triclinic
_symmetry_space_group_name_H-M   'P 1'
_symmetry_Int_Tables_number      1
_space_group_name_Hall           'P 1'
loop_
_symmetry_equiv_pos_site_id
_symmetry_equiv_pos_as_xyz
1 x,y,z
_cell_length_a                   17.85237(19)
_cell_length_b                   12.61772(15)
_cell_length_c                   11.18808(13)
_cell_angle_alpha                90
_cell_angle_beta                 94.8199(11)
_cell_angle_gamma                90
_cell_volume                     2511.27
loop_
_atom_site_label
_atom_site_type_symbol
_atom_site_fract_x
_atom_site_fract_y
_atom_site_fract_z
Co5 Co 0.0000 0.09577(5) 0.2500
Co5_2 Co 1.0000 0.09577(5) 0.2500
Co6 Co 0.92134(3) 0.05927(4) 0.50055(4)
Co7 Co 0.07866(3) 0.05927(4) 0.99945(4)
Co1 Co 0.5000 0.59577(5) 0.2500
Co2 Co 0.42134(3) 0.55927(4) 0.50055(4)
N1 N 0.87396(17) 0.9347(3) 0.1624(3)
N2 N 0.91092(16) 0.9831(3) 0.2560(3)
N3 N 0.87723(17) 0.9703(2) 0.3563(3)
C1 C 0.8118(2) 0.8876(3) 0.2053(3)
C2 C 0.8148(2) 0.9109(3) 0.3281(3)
C3 C 0.7598(2) 0.8735(3) 0.4007(3)
H1 H 0.7622 0.8883 0.4833
C4 C 0.7027(2) 0.8148(3) 0.3452(4)
H2 H 0.6651 0.7885 0.3911
C5 C 0.6984(2) 0.7920(3) 0.2203(3)
C6 C 0.7530(2) 0.8274(3) 0.1491(3)
H3 H 0.7508 0.8118 0.0667
C7 C 0.6330(2) 0.7266(3) 0.1683(3)
O1 O 0.52029(13) 0.5806(2) 0.4319(2)
H4 H 0.545(2) 0.640(2) 0.467(4)
O2 O 0.63584(15) 0.6903(2) 0.0629(2)
O3 O 0.58098(15) 0.7124(2) 0.2350(2)
N4 N 0.12604(17) 0.9347(3) 0.3376(3)
N5 N 0.08908(16) 0.9831(3) 0.2440(3)
N6 N 0.12277(17) 0.9703(2) 0.1437(3)
C8 C 0.1882(2) 0.8876(3) 0.2947(3)
C9 C 0.1852(2) 0.9109(3) 0.1719(3)
C10 C 0.2402(2) 0.8735(3) 0.0993(3)
H5 H 0.2378 0.8883 0.0167
C11 C 0.2973(2) 0.8148(3) 0.1548(4)
H6 H 0.3349 0.7885 0.1089
C12 C 0.3016(2) 0.7920(3) 0.2797(3)
C13 C 0.2470(2) 0.8274(3) 0.3509(3)
H7 H 0.2492 0.8118 0.4333
C14 C 0.3670(2) 0.7266(3) 0.3317(3)
O4 O 0.47971(13) 0.5806(2) 0.0681(2)
H8 H 0.455(2) 0.640(2) 0.033(4)
O5 O 0.36416(15) 0.6903(2) 0.4371(2)
O6 O 0.41902(15) 0.7124(2) 0.2650(2)
Co8 Co 0.57866(3) 0.44073(4) 0.49945(4)
Co9 Co 0.42134(3) 0.44073(4) 0.00055(4)
Co10 Co 0.07866(3) 0.94073(4) 0.49945(4)
Co11 Co 0.92134(3) 0.94073(4) 0.00055(4)
N8 N 0.37396(17) 0.5653(3) 0.6624(3)
N9 N 0.41092(16) 0.4831(3) 0.2560(3)
N10 N 0.58908(16) 0.4831(3) 0.2440(3)
N11 N 0.37723(17) 0.4703(2) 0.3563(3)
N12 N 0.62277(17) 0.4703(2) 0.1437(3)
O7 O 0.47971(13) 0.4194(2) 0.5681(2)
Co3 Co 0.57866(3) 0.55927(4) 0.99945(4)
N7 N 0.62604(17) 0.5653(3) 0.8376(3)
O8 O 0.52029(13) 0.4194(2) 0.9319(2)
N1_2 N 0.37396(17) 0.4347(3) 0.1624(3)
C1_2 C 0.3118(2) 0.3876(3) 0.2053(3)
C2_2 C 0.3148(2) 0.4109(3) 0.3281(3)
C3_2 C 0.2598(2) 0.3735(3) 0.4007(3)
H1_2 H 0.2622 0.3883 0.4833
C4_2 C 0.2027(2) 0.3148(3) 0.3452(4)
H2_2 H 0.1651 0.2885 0.3911
C5_2 C 0.1984(2) 0.2920(3) 0.2203(3)
C6_2 C 0.2530(2) 0.3274(3) 0.1491(3)
H3_2 H 0.2508 0.3118 0.0667
C7_2 C 0.1330(2) 0.2266(3) 0.1683(3)
O1_2 O 0.02029(13) 0.0806(2) 0.4319(2)
H4_2 H 0.045(2) 0.140(2) 0.467(4)
O2_2 O 0.13584(15) 0.1903(2) 0.0629(2)
O3_2 O 0.08098(15) 0.2124(2) 0.2350(2)
N7_2 N 0.12604(17) 0.0653(3) 0.8376(3)
O8_2 O 0.02029(13) 0.9194(2) 0.9319(2)
N4_2 N 0.62604(17) 0.4347(3) 0.3376(3)
C8_2 C 0.6882(2) 0.3876(3) 0.2947(3)
C9_2 C 0.6852(2) 0.4109(3) 0.1719(3)
C10_2 C 0.7402(2) 0.3735(3) 0.0993(3)
H5_2 H 0.7378 0.3883 0.0167
C11_2 C 0.7973(2) 0.3148(3) 0.1548(4)
H6_2 H 0.8349 0.2885 0.1089
C12_2 C 0.8016(2) 0.2920(3) 0.2797(3)
C13_2 C 0.7470(2) 0.3274(3) 0.3509(3)
H7_2 H 0.7492 0.3118 0.4333
C14_2 C 0.8670(2) 0.2266(3) 0.3317(3)
O4_2 O 0.97971(13) 0.0806(2) 0.0681(2)
H8_2 H 0.955(2) 0.140(2) 0.033(4)
O5_2 O 0.86416(15) 0.1903(2) 0.4371(2)
O6_2 O 0.91902(15) 0.2124(2) 0.2650(2)
N8_2 N 0.87396(17) 0.0653(3) 0.6624(3)
O7_2 O 0.97971(13) 0.9194(2) 0.5681(2)
Co4 Co -0.0000 0.90423(5) 0.7500
Co1_2 Co 0.5000 0.40423(5) 0.7500
N2_2 N 0.08908(16) 0.0169(3) 0.7440(3)
N3_2 N 0.12277(17) 0.0297(2) 0.6437(3)
C1_3 C 0.1882(2) 0.1124(3) 0.7947(3)
C2_3 C 0.1852(2) 0.0891(3) 0.6719(3)
C3_3 C 0.2402(2) 0.1265(3) 0.5993(3)
H1_3 H 0.2378 0.1117 0.5167
C4_3 C 0.2973(2) 0.1852(3) 0.6548(4)
H2_3 H 0.3349 0.2115 0.6089
C5_3 C 0.3016(2) 0.2080(3) 0.7797(3)
C6_3 C 0.2470(2) 0.1726(3) 0.8509(3)
H3_3 H 0.2492 0.1882 0.9333
C7_3 C 0.3670(2) 0.2734(3) 0.8317(3)
H4_3 H 0.455(2) 0.360(2) 0.533(4)
O2_3 O 0.36416(15) 0.3097(2) 0.9371(2)
O3_3 O 0.41902(15) 0.2876(2) 0.7650(2)
N5_2 N 0.91092(16) 0.0169(3) 0.7560(3)
N6_2 N 0.87723(17) 0.0297(2) 0.8563(3)
C8_3 C 0.8118(2) 0.1124(3) 0.7053(3)
C9_3 C 0.8148(2) 0.0891(3) 0.8281(3)
C10_3 C 0.7598(2) 0.1265(3) 0.9007(3)
H5_3 H 0.7622 0.1117 0.9833
C11_3 C 0.7027(2) 0.1852(3) 0.8452(4)
H6_3 H 0.6651 0.2115 0.8911
C12_3 C 0.6984(2) 0.2080(3) 0.7203(3)
C13_3 C 0.7530(2) 0.1726(3) 0.6491(3)
H7_3 H 0.7508 0.1882 0.5667
C14_3 C 0.6330(2) 0.2734(3) 0.6683(3)
H8_3 H 0.545(2) 0.360(2) 0.967(4)
O5_3 O 0.63584(15) 0.3097(2) 0.5629(2)
O6_3 O 0.58098(15) 0.2876(2) 0.7350(2)
N9_2 N 0.58908(16) 0.5169(3) 0.7440(3)
N10_2 N 0.41092(16) 0.5169(3) 0.7560(3)
N11_2 N 0.62277(17) 0.5297(2) 0.6437(3)
N12_2 N 0.37723(17) 0.5297(2) 0.8563(3)
Co4_2 Co 1.0000 0.90423(5) 0.7500
C8_4 C 0.3118(2) 0.6124(3) 0.7053(3)
C9_4 C 0.3148(2) 0.5891(3) 0.8281(3)
C10_4 C 0.2598(2) 0.6265(3) 0.9007(3)
H5_4 H 0.2622 0.6117 0.9833
C11_4 C 0.2027(2) 0.6852(3) 0.8452(4)
H6_4 H 0.1651 0.7115 0.8911
C12_4 C 0.1984(2) 0.7080(3) 0.7203(3)
C13_4 C 0.2530(2) 0.6726(3) 0.6491(3)
H7_4 H 0.2508 0.6882 0.5667
C14_4 C 0.1330(2) 0.7734(3) 0.6683(3)
H8_4 H 0.045(2) 0.860(2) 0.967(4)
O5_4 O 0.13584(15) 0.8097(2) 0.5629(2)
O6_4 O 0.08098(15) 0.7876(2) 0.7350(2)
C1_4 C 0.6882(2) 0.6124(3) 0.7947(3)
C2_4 C 0.6852(2) 0.5891(3) 0.6719(3)
C3_4 C 0.7402(2) 0.6265(3) 0.5993(3)
H1_4 H 0.7378 0.6117 0.5167
C4_4 C 0.7973(2) 0.6852(3) 0.6548(4)
H2_4 H 0.8349 0.7115 0.6089
C5_4 C 0.8016(2) 0.7080(3) 0.7797(3)
C6_4 C 0.7470(2) 0.6726(3) 0.8509(3)
H3_4 H 0.7492 0.6882 0.9333
C7_4 C 0.8670(2) 0.7734(3) 0.8317(3)
H4_4 H 0.955(2) 0.860(2) 0.533(4)
O2_4 O 0.86416(15) 0.8097(2) 0.9371(2)
O3_4 O 0.91902(15) 0.7876(2) 0.7650(2)
loop_
_geom_bond_atom_site_label_1
_geom_bond_atom_site_label_2
_geom_bond_site_symmetry_1
_geom_bond_site_symmetry_2
Co1 O1 1_555 1_555
Co2 O1 1_555 1_555
N1 N2 1_555 1_555
N2 N3 1_555 1_555
N3 C2 1_555 1_555
C1 N1 1_555 1_555
C2 C1 1_555 1_555
C3 C2 1_555 1_555
H1 C3 1_555 1_555
C4 C3 1_555 1_555
H2 C4 1_555 1_555
C5 C4 1_555 1_555
C6 C1 1_555 1_555
H3 C6 1_555 1_555
C7 C5 1_555 1_555
O1 H4 1_555 1_555
O2 C7 1_555 1_555
O3 Co1 1_555 1_555
N4 N5 1_555 1_555
N5 N6 1_555 1_555
N6 C9 1_555 1_555
C8 N4 1_555 1_555
C9 C8 1_555 1_555
C10 C9 1_555 1_555
H5 C10 1_555 1_555
C11 C10 1_555 1_555
H6 C11 1_555 1_555
C12 C11 1_555 1_555
C13 C8 1_555 1_555
H7 C13 1_555 1_555
C14 C12 1_555 1_555
O4 Co1 1_555 1_555
H8 O4 1_555 1_555
O5 Co2 1_555 1_555
O6 Co1 1_555 1_555
Co8 O1 1_555 1_555
Co9 O4 1_555 1_555
Co10 N4 1_555 1_555
Co11 N1 1_555 1_555
N8 Co2 1_555 1_555
N9 Co1 1_555 1_555
N10 Co1 1_555 1_555
N11 Co2 1_555 1_555
O7 Co2 1_555 1_555
C5 C6 1_555 1_555
C7 O3 1_555 1_555
C12 C13 1_555 1_555
C14 O5 1_555 1_555
C14 O6 1_555 1_555
Co8 O7 1_555 1_555
N9 N11 1_555 1_555
N10 N12 1_555 1_555
N7 Co3 1_555 1_555
O8 Co3 1_555 1_555
Co5 O1_2 1_555 1_555
N1_2 N9 1_555 1_555
N11 C2_2 1_555 1_555
C1_2 N1_2 1_555 1_555
C2_2 C1_2 1_555 1_555
C3_2 C2_2 1_555 1_555
H1_2 C3_2 1_555 1_555
C4_2 C3_2 1_555 1_555
H2_2 C4_2 1_555 1_555
C5_2 C4_2 1_555 1_555
C6_2 C1_2 1_555 1_555
H3_2 C6_2 1_555 1_555
C7_2 C5_2 1_555 1_555
O1_2 H4_2 1_555 1_555
O2_2 C7_2 1_555 1_555
O3_2 Co5 1_555 1_555
Co9 N1_2 1_555 1_555
C5_2 C6_2 1_555 1_555
C7_2 O3_2 1_555 1_555
N7_2 Co7 1_555 1_555
N4_2 N10 1_555 1_555
N12 C9_2 1_555 1_555
C8_2 N4_2 1_555 1_555
C9_2 C8_2 1_555 1_555
C10_2 C9_2 1_555 1_555
H5_2 C10_2 1_555 1_555
C11_2 C10_2 1_555 1_555
H6_2 C11_2 1_555 1_555
C12_2 C11_2 1_555 1_555
C13_2 C8_2 1_555 1_555
H7_2 C13_2 1_555 1_555
C14_2 C12_2 1_555 1_555
O4_2 Co5_2 1_555 1_555
H8_2 O4_2 1_555 1_555
O5_2 Co6 1_555 1_555
O6_2 Co5_2 1_555 1_555
Co8 N4_2 1_555 1_555
N8_2 Co6 1_555 1_555
C12_2 C13_2 1_555 1_555
C14_2 O5_2 1_555 1_555
C14_2 O6_2 1_555 1_555
Co1_2 O7 1_555 1_555
N7_2 N2_2 1_555 1_555
N2_2 N3_2 1_555 1_555
N3_2 C2_3 1_555 1_555
C1_3 N7_2 1_555 1_555
C2_3 C1_3 1_555 1_555
C3_3 C2_3 1_555 1_555
H1_3 C3_3 1_555 1_555
C4_3 C3_3 1_555 1_555
H2_3 C4_3 1_555 1_555
C5_3 C4_3 1_555 1_555
C6_3 C1_3 1_555 1_555
H3_3 C6_3 1_555 1_555
C7_3 C5_3 1_555 1_555
O7 H4_3 1_555 1_555
O2_3 C7_3 1_555 1_555
O3_3 Co1_2 1_555 1_555
N8_2 N5_2 1_555 1_555
N5_2 N6_2 1_555 1_555
N6_2 C9_3 1_555 1_555
C8_3 N8_2 1_555 1_555
C9_3 C8_3 1_555 1_555
C10_3 C9_3 1_555 1_555
H5_3 C10_3 1_555 1_555
C11_3 C10_3 1_555 1_555
H6_3 C11_3 1_555 1_555
C12_3 C11_3 1_555 1_555
C13_3 C8_3 1_555 1_555
H7_3 C13_3 1_555 1_555
C14_3 C12_3 1_555 1_555
O8 Co1_2 1_555 1_555
H8_3 O8 1_555 1_555
O5_3 Co8 1_555 1_555
O6_3 Co1_2 1_555 1_555
N9_2 Co1_2 1_555 1_555
N10_2 Co1_2 1_555 1_555
N11_2 Co8 1_555 1_555
C5_3 C6_3 1_555 1_555
C7_3 O3_3 1_555 1_555
C12_3 C13_3 1_555 1_555
C14_3 O5_3 1_555 1_555
C14_3 O6_3 1_555 1_555
N9_2 N11_2 1_555 1_555
N10_2 N12_2 1_555 1_555
N8 N10_2 1_555 1_555
N12_2 C9_4 1_555 1_555
C8_4 N8 1_555 1_555
C9_4 C8_4 1_555 1_555
C10_4 C9_4 1_555 1_555
H5_4 C10_4 1_555 1_555
C11_4 C10_4 1_555 1_555
H6_4 C11_4 1_555 1_555
C12_4 C11_4 1_555 1_555
C13_4 C8_4 1_555 1_555
H7_4 C13_4 1_555 1_555
C14_4 C12_4 1_555 1_555
O8_2 Co4 1_555 1_555
H8_4 O8_2 1_555 1_555
O5_4 Co10 1_555 1_555
O6_4 Co4 1_555 1_555
C12_4 C13_4 1_555 1_555
C14_4 O5_4 1_555 1_555
C14_4 O6_4 1_555 1_555
Co4_2 O7_2 1_555 1_555
N7 N9_2 1_555 1_555
N11_2 C2_4 1_555 1_555
C1_4 N7 1_555 1_555
C2_4 C1_4 1_555 1_555
C3_4 C2_4 1_555 1_555
H1_4 C3_4 1_555 1_555
C4_4 C3_4 1_555 1_555
H2_4 C4_4 1_555 1_555
C5_4 C4_4 1_555 1_555
C6_4 C1_4 1_555 1_555
H3_4 C6_4 1_555 1_555
C7_4 C5_4 1_555 1_555
O7_2 H4_4 1_555 1_555
O2_4 C7_4 1_555 1_555
O3_4 Co4_2 1_555 1_555
C5_4 C6_4 1_555 1_555
C7_4 O3_4 1_555 1_555

#END
