
###############################################################################
#
# This file contains modified crystal structure data generated from the
# MOF subset of the Cambridge Structural Database (CSD) v543 
# hosted by the Cambridge Crystallographic Data Centre (CCDC).
#
# This work is licensed under the Creative Commons
# Attribution-NonCommercial-ShareAlike 4.0 International License.
# To view a copy of this license, visit
# http://creativecommons.org/licenses/by-nc-sa/4.0/
# or send a letter to
# Creative Commons, PO Box 1866, Mountain View, CA 94042, USA.
#
# CIF created using the CSD Python API on 29 September 2022
# The structure has been converted into the P1 space group
# The structure has a 3D framework
# The original CSD entry ESUSAO is in the triclinic crystal system
# The framework has been calculated to contain at least 10.0% void space
# The void calculation uses a probe of radius 1.32A, grid spacing 0.4
#
###############################################################################

data_ESUSAO
_chemical_formula_moiety         '(C34 H28 Co6 N14 O12)n'
_symmetry_cell_setting           triclinic
_symmetry_space_group_name_H-M   'P 1'
_symmetry_Int_Tables_number      1
_space_group_name_Hall           'P 1'
loop_
_symmetry_equiv_pos_site_id
_symmetry_equiv_pos_as_xyz
1 x,y,z
_cell_length_a                   10.9204(7)
_cell_length_b                   10.9603(7)
_cell_length_c                   11.0587(5)
_cell_angle_alpha                83.328(4)
_cell_angle_beta                 87.023(4)
_cell_angle_gamma                70.330(6)
_cell_volume                     1237.83
loop_
_atom_site_label
_atom_site_type_symbol
_atom_site_fract_x
_atom_site_fract_y
_atom_site_fract_z
Co5 Co 0.09325(7) 0.89520(7) 0.25067(6)
O8 O 0.1009(3) 0.9299(3) 0.0660(3)
O10 O 0.0457(3) 0.9001(3) 0.4296(3)
O13 O 0.0471(4) 0.6711(4) 0.0698(3)
Co2 Co 0.85082(7) 0.01647(7) 0.48239(6)
O7 O 0.8059(4) 0.2031(3) 0.3535(3)
C15 C 0.7493(5) 0.3054(3) 0.3954(3)
H9 H 0.7260 0.3006 0.4793
N7 N 0.7163(5) 0.4264(3) 0.3329(3)
C16 C 0.7461(7) 0.4423(4) 0.2037(4)
H10 H 0.7156 0.5352 0.1739
H11 H 0.8403 0.4059 0.1904
H12 H 0.7024 0.3966 0.1594
C17 C 0.6493(11) 0.5430(3) 0.3916(6)
H13 H 0.6344 0.6198 0.3318
H14 H 0.5657 0.5389 0.4249
H15 H 0.7027 0.5492 0.4577
N10 N 0.0940(4) 0.0852(4) 0.2571(3)
O11 O 0.9543(3) 0.0999(3) 0.5704(3)
O12 O 0.6624(4) 0.0903(4) 0.5462(3)
Co11 Co 0.02915(7) 0.13647(7) 0.99824(6)
O9 O 0.8991(3) 0.0701(3) 0.9340(3)
Co3 Co 0.97085(7) 0.86353(7) 0.00176(6)
N1 N 0.8003(4) 0.9371(4) 0.3348(3)
N2 N 0.8815(4) 0.9313(4) 0.2392(3)
N3 N 0.8347(4) 0.9031(4) 0.1412(3)
N4 N 0.0757(4) 0.1780(4) 0.1632(3)
N6 N 0.1142(4) 0.1256(4) 0.3609(4)
C1 C 0.6962(5) 0.9106(5) 0.2968(4)
C2 C 0.7183(5) 0.8887(5) 0.1734(4)
C3 C 0.6259(5) 0.8612(6) 0.1068(5)
H1 H 0.6399 0.8472 0.0233
C4 C 0.5157(5) 0.8555(6) 0.1670(5)
H2 H 0.4524 0.8360 0.1244
C5 C 0.4925(5) 0.8777(5) 0.2911(4)
C6 C 0.5810(5) 0.9043(5) 0.3579(4)
H3 H 0.5658 0.9178 0.4415
C7 C 0.3645(5) 0.8746(5) 0.3471(5)
C8 C 0.0863(5) 0.2855(5) 0.2099(4)
C9 C 0.1081(5) 0.2517(5) 0.3354(4)
C10 C 0.1211(6) 0.3406(5) 0.4114(4)
H4 H 0.1368 0.3171 0.4960
C11 C 0.1100(5) 0.4628(5) 0.3577(5)
H5 H 0.1161 0.5259 0.4070
C12 C 0.0896(5) 0.4986(5) 0.2305(4)
C13 C 0.0777(5) 0.4102(5) 0.1561(4)
H6 H 0.0642 0.4333 0.0711
C14 C 0.0819(5) 0.6340(5) 0.1800(4)
H7 H 0.187(2) 0.883(5) 0.047(4)
H8 H 0.046(5) 0.819(3) 0.467(4)
O3 O 0.3376(4) 0.9097(4) 0.4538(3)
O4 O 0.2944(4) 0.8357(4) 0.2855(3)
O6 O 0.1079(4) 0.7020(3) 0.2525(3)
Co8 Co 0.14918(7) 0.98353(7) 0.51761(6)
N11 N 0.8858(4) 0.8744(4) 0.6391(4)
N9 N 0.9243(4) 0.8220(4) 0.8368(3)
N8 N 0.1185(4) 0.0687(4) 0.7608(3)
Co4 Co 0.90675(7) 0.10480(7) 0.74933(6)
N1_2 N 0.1997(4) 0.0629(4) 0.6652(3)
N3_2 N 0.1653(4) 0.0969(4) 0.8588(3)
N5 N 0.9060(4) 0.9148(4) 0.7429(3)
C1_2 C 0.3038(5) 0.0894(5) 0.7032(4)
C2_2 C 0.2817(5) 0.1113(5) 0.8266(4)
C3_2 C 0.3741(5) 0.1388(6) 0.8932(5)
H1_2 H 0.3601 0.1528 0.9767
C4_2 C 0.4843(5) 0.1445(6) 0.8330(5)
H2_2 H 0.5476 0.1640 0.8756
C5_2 C 0.5075(5) 0.1223(5) 0.7089(4)
C6_2 C 0.4190(5) 0.0957(5) 0.6421(4)
H3_2 H 0.4342 0.0822 0.5585
C7_2 C 0.6355(5) 0.1254(5) 0.6529(5)
C8_2 C 0.9137(5) 0.7145(5) 0.7901(4)
C9_2 C 0.8919(5) 0.7483(5) 0.6646(4)
C10_2 C 0.8789(6) 0.6594(5) 0.5886(4)
H4_2 H 0.8632 0.6829 0.5040
C11_2 C 0.8900(5) 0.5372(5) 0.6423(5)
H5_2 H 0.8839 0.4741 0.5930
C12_2 C 0.9104(5) 0.5014(5) 0.7695(4)
C13_2 C 0.9223(5) 0.5898(5) 0.8439(4)
H6_2 H 0.9358 0.5667 0.9289
C14_2 C 0.9181(5) 0.3660(5) 0.8200(4)
H7_2 H 0.813(2) 0.117(5) 0.953(4)
H8_2 H 0.954(5) 0.181(3) 0.533(4)
O4_2 O 0.7056(4) 0.1643(4) 0.7145(3)
O5 O 0.9529(4) 0.3289(4) 0.9302(3)
O6_2 O 0.8921(4) 0.2980(3) 0.7475(3)
O7_2 O 0.1941(4) 0.7969(3) 0.6465(3)
C15_2 C 0.2507(5) 0.6946(3) 0.6046(3)
H9_2 H 0.2740 0.6994 0.5207
N7_2 N 0.2837(5) 0.5736(3) 0.6671(3)
C16_2 C 0.2539(7) 0.5577(4) 0.7963(4)
H10_2 H 0.2844 0.4648 0.8261
H11_2 H 0.1597 0.5941 0.8096
H12_2 H 0.2976 0.6034 0.8406
C17_2 C 0.3507(11) 0.4570(3) 0.6084(6)
H13_2 H 0.3656 0.3802 0.6682
H14_2 H 0.4343 0.4611 0.5751
H15_2 H 0.2973 0.4508 0.5423
loop_
_geom_bond_atom_site_label_1
_geom_bond_atom_site_label_2
_geom_bond_site_symmetry_1
_geom_bond_site_symmetry_2
Co5 O8 1_555 1_555
Co5 O10 1_555 1_555
O7 Co2 1_555 1_555
C15 O7 1_555 1_555
H9 C15 1_555 1_555
N7 C15 1_555 1_555
C16 N7 1_555 1_555
H10 C16 1_555 1_555
H11 C16 1_555 1_555
H12 C16 1_555 1_555
C17 N7 1_555 1_555
H13 C17 1_555 1_555
H14 C17 1_555 1_555
H15 C17 1_555 1_555
O11 Co2 1_555 1_555
O12 Co2 1_555 1_555
Co3 N3 1_555 1_555
N1 N2 1_555 1_555
N2 N3 1_555 1_555
N3 C2 1_555 1_555
N4 N10 1_555 1_555
N10 N6 1_555 1_555
N6 C9 1_555 1_555
C1 N1 1_555 1_555
C2 C1 1_555 1_555
C3 C2 1_555 1_555
H1 C3 1_555 1_555
C4 C3 1_555 1_555
H2 C4 1_555 1_555
C5 C4 1_555 1_555
C6 C1 1_555 1_555
H3 C6 1_555 1_555
C7 C5 1_555 1_555
C8 N4 1_555 1_555
C9 C8 1_555 1_555
C10 C9 1_555 1_555
H4 C10 1_555 1_555
C11 C10 1_555 1_555
H5 C11 1_555 1_555
C12 C11 1_555 1_555
C13 C8 1_555 1_555
H6 C13 1_555 1_555
C14 C12 1_555 1_555
O8 H7 1_555 1_555
H8 O10 1_555 1_555
O3 C7 1_555 1_555
O4 Co5 1_555 1_555
O13 C14 1_555 1_555
O6 Co5 1_555 1_555
Co8 O10 1_555 1_555
C5 C6 1_555 1_555
C7 O4 1_555 1_555
C12 C13 1_555 1_555
C14 O6 1_555 1_555
O3 Co8 1_555 1_555
Co4 O9 1_555 1_555
Co11 N3_2 1_555 1_555
N1_2 N8 1_555 1_555
N8 N3_2 1_555 1_555
N3_2 C2_2 1_555 1_555
N9 N5 1_555 1_555
N5 N11 1_555 1_555
N11 C9_2 1_555 1_555
C1_2 N1_2 1_555 1_555
C2_2 C1_2 1_555 1_555
C3_2 C2_2 1_555 1_555
H1_2 C3_2 1_555 1_555
C4_2 C3_2 1_555 1_555
H2_2 C4_2 1_555 1_555
C5_2 C4_2 1_555 1_555
C6_2 C1_2 1_555 1_555
H3_2 C6_2 1_555 1_555
C7_2 C5_2 1_555 1_555
C8_2 N9 1_555 1_555
C9_2 C8_2 1_555 1_555
C10_2 C9_2 1_555 1_555
H4_2 C10_2 1_555 1_555
C11_2 C10_2 1_555 1_555
H5_2 C11_2 1_555 1_555
C12_2 C11_2 1_555 1_555
C13_2 C8_2 1_555 1_555
H6_2 C13_2 1_555 1_555
C14_2 C12_2 1_555 1_555
O9 H7_2 1_555 1_555
O11 Co4 1_555 1_555
H8_2 O11 1_555 1_555
O12 C7_2 1_555 1_555
O4_2 Co4 1_555 1_555
O5 C14_2 1_555 1_555
O6_2 Co4 1_555 1_555
C5_2 C6_2 1_555 1_555
C7_2 O4_2 1_555 1_555
C12_2 C13_2 1_555 1_555
C14_2 O6_2 1_555 1_555
O7_2 Co8 1_555 1_555
C15_2 O7_2 1_555 1_555
H9_2 C15_2 1_555 1_555
N7_2 C15_2 1_555 1_555
C16_2 N7_2 1_555 1_555
H10_2 C16_2 1_555 1_555
H11_2 C16_2 1_555 1_555
H12_2 C16_2 1_555 1_555
C17_2 N7_2 1_555 1_555
H13_2 C17_2 1_555 1_555
H14_2 C17_2 1_555 1_555
H15_2 C17_2 1_555 1_555

#END
