
###############################################################################
#
# This file contains modified crystal structure data generated from the
# MOF subset of the Cambridge Structural Database (CSD) v543 
# hosted by the Cambridge Crystallographic Data Centre (CCDC).
#
# This work is licensed under the Creative Commons
# Attribution-NonCommercial-ShareAlike 4.0 International License.
# To view a copy of this license, visit
# http://creativecommons.org/licenses/by-nc-sa/4.0/
# or send a letter to
# Creative Commons, PO Box 1866, Mountain View, CA 94042, USA.
#
# CIF created using the CSD Python API on 29 September 2022
# The structure has been converted into the P1 space group
# The structure has a 3D framework
# The original CSD entry ESUSIW is in the monoclinic crystal system
# The framework has been calculated to contain at least 10.0% void space
# The void calculation uses a probe of radius 1.32A, grid spacing 0.4
#
###############################################################################

data_ESUSIW
_chemical_formula_moiety         '(C56 H32 Co10 N24 O24)n'
_symmetry_cell_setting           triclinic
_symmetry_space_group_name_H-M   'P 1'
_symmetry_Int_Tables_number      1
_space_group_name_Hall           'P 1'
loop_
_symmetry_equiv_pos_site_id
_symmetry_equiv_pos_as_xyz
1 x,y,z
_cell_length_a                   17.6286(10)
_cell_length_b                   13.0929(12)
_cell_length_c                   11.0727(6)
_cell_angle_alpha                90
_cell_angle_beta                 95.599(5)
_cell_angle_gamma                90
_cell_volume                     2543.49
loop_
_atom_site_label
_atom_site_type_symbol
_atom_site_fract_x
_atom_site_fract_y
_atom_site_fract_z
Co11 Co -0.0000 0.09353(14) 0.2500
Co5 Co 0.92130(6) 0.06424(11) 0.50268(11)
Co11_2 Co 1.0000 0.09353(14) 0.2500
Co4 Co 0.07870(6) 0.06424(11) 0.99732(11)
Co2 Co 0.5000 0.59353(14) 0.2500
N1 N 0.8695(4) 0.9398(6) 0.1633(7)
N2 N 0.9068(4) 0.9864(6) 0.2560(6)
N3 N 0.8732(4) 0.9768(7) 0.3571(6)
C1 C 0.8086(5) 0.8923(8) 0.2085(8)
C2 C 0.8119(5) 0.9159(8) 0.3304(8)
C3 C 0.7581(5) 0.8780(9) 0.4024(9)
H1 H 0.7617 0.8907 0.4854
C4 C 0.6999(5) 0.8217(9) 0.3469(9)
H2 H 0.6615 0.7989 0.3923
C5 C 0.6961(5) 0.7966(8) 0.2214(8)
C6 C 0.7492(5) 0.8322(8) 0.1497(8)
H3 H 0.7464 0.8179 0.0671
C7 C 0.6331(5) 0.7267(8) 0.1711(9)
O1 O 0.4790(3) 0.5772(5) 0.0674(5)
H4 H 0.465(4) 0.635(4) 0.016(7)
O2 O 0.6363(3) 0.6924(5) 0.0647(6)
O3 O 0.5815(3) 0.7085(5) 0.2389(5)
Co3 Co 0.42130(6) 0.56424(11) 0.50268(11)
N4 N 0.1305(4) 0.9398(6) 0.3367(7)
N5 N 0.0932(4) 0.9864(6) 0.2440(6)
N6 N 0.1268(4) 0.9768(7) 0.1429(6)
C8 C 0.1914(5) 0.8923(8) 0.2915(8)
C9 C 0.1881(5) 0.9159(8) 0.1696(8)
C10 C 0.2419(5) 0.8780(9) 0.0976(9)
H5 H 0.2383 0.8907 0.0146
C11 C 0.3001(5) 0.8217(9) 0.1531(9)
H6 H 0.3385 0.7989 0.1077
C12 C 0.3039(5) 0.7966(8) 0.2786(8)
C13 C 0.2508(5) 0.8322(8) 0.3503(8)
H7 H 0.2536 0.8179 0.4329
C14 C 0.3669(5) 0.7267(8) 0.3289(9)
O4 O 0.5210(3) 0.5772(5) 0.4326(5)
H8 H 0.535(4) 0.635(4) 0.484(7)
O5 O 0.3637(3) 0.6924(5) 0.4353(6)
O6 O 0.4185(3) 0.7085(5) 0.2611(5)
Co6 Co 0.42130(6) 0.43576(11) 0.00268(11)
Co7 Co 0.57870(6) 0.43576(11) 0.49732(11)
Co8 Co 0.92130(6) 0.93576(11) 0.00268(11)
Co9 Co 0.07870(6) 0.93576(11) 0.49732(11)
N8 N 0.3695(4) 0.5602(6) 0.6633(7)
N9 N 0.4068(4) 0.4864(6) 0.2560(6)
N10 N 0.5932(4) 0.4864(6) 0.2440(6)
N11 N 0.3732(4) 0.4768(7) 0.3571(6)
N12 N 0.6268(4) 0.4768(7) 0.1429(6)
O8 O 0.4790(3) 0.4228(5) 0.5674(5)
Co1 Co 0.57870(6) 0.56424(11) 0.99732(11)
N7 N 0.6305(4) 0.5602(6) 0.8367(7)
O7 O 0.5210(3) 0.4228(5) 0.9326(5)
N1_2 N 0.3695(4) 0.4398(6) 0.1633(7)
C1_2 C 0.3086(5) 0.3923(8) 0.2085(8)
C2_2 C 0.3119(5) 0.4159(8) 0.3304(8)
C3_2 C 0.2581(5) 0.3780(9) 0.4024(9)
H1_2 H 0.2617 0.3907 0.4854
C4_2 C 0.1999(5) 0.3217(9) 0.3469(9)
H2_2 H 0.1615 0.2989 0.3923
C5_2 C 0.1961(5) 0.2966(8) 0.2214(8)
C6_2 C 0.2492(5) 0.3322(8) 0.1497(8)
H3_2 H 0.2464 0.3179 0.0671
C7_2 C 0.1331(5) 0.2267(8) 0.1711(9)
O2_2 O 0.1363(3) 0.1924(5) 0.0647(6)
O3_2 O 0.0815(3) 0.2085(5) 0.2389(5)
O4_2 O 0.0210(3) 0.0772(5) 0.4326(5)
H8_2 H 0.035(4) 0.135(4) 0.484(7)
N7_2 N 0.1305(4) 0.0602(6) 0.8367(7)
O7_2 O 0.0210(3) 0.9228(5) 0.9326(5)
O1_2 O 0.9790(3) 0.0772(5) 0.0674(5)
H4_2 H 0.965(4) 0.135(4) 0.016(7)
N4_2 N 0.6305(4) 0.4398(6) 0.3367(7)
C8_2 C 0.6914(5) 0.3923(8) 0.2915(8)
C9_2 C 0.6881(5) 0.4159(8) 0.1696(8)
C10_2 C 0.7419(5) 0.3780(9) 0.0976(9)
H5_2 H 0.7383 0.3907 0.0146
C11_2 C 0.8001(5) 0.3217(9) 0.1531(9)
H6_2 H 0.8385 0.2989 0.1077
C12_2 C 0.8039(5) 0.2966(8) 0.2786(8)
C13_2 C 0.7508(5) 0.3322(8) 0.3503(8)
H7_2 H 0.7536 0.3179 0.4329
C14_2 C 0.8669(5) 0.2267(8) 0.3289(9)
O5_2 O 0.8637(3) 0.1924(5) 0.4353(6)
O6_2 O 0.9185(3) 0.2085(5) 0.2611(5)
N8_2 N 0.8695(4) 0.0602(6) 0.6633(7)
O8_2 O 0.9790(3) 0.9228(5) 0.5674(5)
Co10 Co 0.0000 0.90647(14) 0.7500
Co2_2 Co 0.5000 0.40647(14) 0.7500
N2_2 N 0.0932(4) 0.0136(6) 0.7440(6)
N3_2 N 0.1268(4) 0.0232(7) 0.6429(6)
C1_3 C 0.1914(5) 0.1077(8) 0.7915(8)
C2_3 C 0.1881(5) 0.0841(8) 0.6696(8)
C3_3 C 0.2419(5) 0.1220(9) 0.5976(9)
H1_3 H 0.2383 0.1093 0.5146
C4_3 C 0.3001(5) 0.1783(9) 0.6531(9)
H2_3 H 0.3385 0.2011 0.6077
C5_3 C 0.3039(5) 0.2034(8) 0.7786(8)
C6_3 C 0.2508(5) 0.1678(8) 0.8503(8)
H3_3 H 0.2536 0.1821 0.9329
C7_3 C 0.3669(5) 0.2733(8) 0.8289(9)
H4_3 H 0.535(4) 0.365(4) 0.984(7)
O2_3 O 0.3637(3) 0.3076(5) 0.9353(6)
O3_3 O 0.4185(3) 0.2915(5) 0.7611(5)
N5_2 N 0.9068(4) 0.0136(6) 0.7560(6)
N6_2 N 0.8732(4) 0.0232(7) 0.8571(6)
C8_3 C 0.8086(5) 0.1077(8) 0.7085(8)
C9_3 C 0.8119(5) 0.0841(8) 0.8304(8)
C10_3 C 0.7581(5) 0.1220(9) 0.9024(9)
H5_3 H 0.7617 0.1093 0.9854
C11_3 C 0.6999(5) 0.1783(9) 0.8469(9)
H6_3 H 0.6615 0.2011 0.8923
C12_3 C 0.6961(5) 0.2034(8) 0.7214(8)
C13_3 C 0.7492(5) 0.1678(8) 0.6497(8)
H7_3 H 0.7464 0.1821 0.5671
C14_3 C 0.6331(5) 0.2733(8) 0.6711(9)
H8_3 H 0.465(4) 0.365(4) 0.516(7)
O5_3 O 0.6363(3) 0.3076(5) 0.5647(6)
O6_3 O 0.5815(3) 0.2915(5) 0.7389(5)
N9_2 N 0.5932(4) 0.5136(6) 0.7440(6)
N10_2 N 0.4068(4) 0.5136(6) 0.7560(6)
N11_2 N 0.6268(4) 0.5232(7) 0.6429(6)
N12_2 N 0.3732(4) 0.5232(7) 0.8571(6)
Co10_2 Co 1.0000 0.90647(14) 0.7500
H4_4 H 0.035(4) 0.865(4) 0.984(7)
C8_4 C 0.3086(5) 0.6077(8) 0.7085(8)
C9_4 C 0.3119(5) 0.5841(8) 0.8304(8)
C10_4 C 0.2581(5) 0.6220(9) 0.9024(9)
H5_4 H 0.2617 0.6093 0.9854
C11_4 C 0.1999(5) 0.6783(9) 0.8469(9)
H6_4 H 0.1615 0.7011 0.8923
C12_4 C 0.1961(5) 0.7034(8) 0.7214(8)
C13_4 C 0.2492(5) 0.6678(8) 0.6497(8)
H7_4 H 0.2464 0.6821 0.5671
C14_4 C 0.1331(5) 0.7733(8) 0.6711(9)
O5_4 O 0.1363(3) 0.8076(5) 0.5647(6)
O6_4 O 0.0815(3) 0.7915(5) 0.7389(5)
C1_4 C 0.6914(5) 0.6077(8) 0.7915(8)
C2_4 C 0.6881(5) 0.5841(8) 0.6696(8)
C3_4 C 0.7419(5) 0.6220(9) 0.5976(9)
H1_4 H 0.7383 0.6093 0.5146
C4_4 C 0.8001(5) 0.6783(9) 0.6531(9)
H2_4 H 0.8385 0.7011 0.6077
C5_4 C 0.8039(5) 0.7034(8) 0.7786(8)
C6_4 C 0.7508(5) 0.6678(8) 0.8503(8)
H3_4 H 0.7536 0.6821 0.9329
C7_4 C 0.8669(5) 0.7733(8) 0.8289(9)
O2_4 O 0.8637(3) 0.8076(5) 0.9353(6)
O3_4 O 0.9185(3) 0.7915(5) 0.7611(5)
H8_4 H 0.965(4) 0.865(4) 0.516(7)
loop_
_geom_bond_atom_site_label_1
_geom_bond_atom_site_label_2
_geom_bond_site_symmetry_1
_geom_bond_site_symmetry_2
Co2 O1 1_555 1_555
N1 N2 1_555 1_555
N2 N3 1_555 1_555
N3 C2 1_555 1_555
C1 N1 1_555 1_555
C2 C1 1_555 1_555
C3 C2 1_555 1_555
H1 C3 1_555 1_555
C4 C3 1_555 1_555
H2 C4 1_555 1_555
C5 C4 1_555 1_555
C6 C1 1_555 1_555
H3 C6 1_555 1_555
C7 C5 1_555 1_555
O1 H4 1_555 1_555
O3 Co2 1_555 1_555
Co3 O4 1_555 1_555
N4 N5 1_555 1_555
N5 N6 1_555 1_555
N6 C9 1_555 1_555
C8 N4 1_555 1_555
C9 C8 1_555 1_555
C10 C9 1_555 1_555
H5 C10 1_555 1_555
C11 C10 1_555 1_555
H6 C11 1_555 1_555
C12 C11 1_555 1_555
C13 C8 1_555 1_555
H7 C13 1_555 1_555
C14 C12 1_555 1_555
O4 Co2 1_555 1_555
H8 O4 1_555 1_555
O5 Co3 1_555 1_555
O6 Co2 1_555 1_555
Co6 O1 1_555 1_555
Co7 O4 1_555 1_555
Co8 N1 1_555 1_555
Co9 N4 1_555 1_555
N8 Co3 1_555 1_555
N9 Co2 1_555 1_555
N10 Co2 1_555 1_555
N11 Co3 1_555 1_555
O8 Co3 1_555 1_555
C5 C6 1_555 1_555
C7 O2 1_555 1_555
C7 O3 1_555 1_555
C12 C13 1_555 1_555
C14 O5 1_555 1_555
C14 O6 1_555 1_555
Co7 O8 1_555 1_555
N9 N11 1_555 1_555
N10 N12 1_555 1_555
N7 Co1 1_555 1_555
O7 Co1 1_555 1_555
N1_2 N9 1_555 1_555
N11 C2_2 1_555 1_555
C1_2 N1_2 1_555 1_555
C2_2 C1_2 1_555 1_555
C3_2 C2_2 1_555 1_555
H1_2 C3_2 1_555 1_555
C4_2 C3_2 1_555 1_555
H2_2 C4_2 1_555 1_555
C5_2 C4_2 1_555 1_555
C6_2 C1_2 1_555 1_555
H3_2 C6_2 1_555 1_555
C7_2 C5_2 1_555 1_555
O3_2 Co11 1_555 1_555
O4_2 Co11 1_555 1_555
H8_2 O4_2 1_555 1_555
Co6 N1_2 1_555 1_555
C5_2 C6_2 1_555 1_555
C7_2 O2_2 1_555 1_555
C7_2 O3_2 1_555 1_555
N7_2 Co4 1_555 1_555
Co11_2 O1_2 1_555 1_555
O1_2 H4_2 1_555 1_555
N4_2 N10 1_555 1_555
N12 C9_2 1_555 1_555
C8_2 N4_2 1_555 1_555
C9_2 C8_2 1_555 1_555
C10_2 C9_2 1_555 1_555
H5_2 C10_2 1_555 1_555
C11_2 C10_2 1_555 1_555
H6_2 C11_2 1_555 1_555
C12_2 C11_2 1_555 1_555
C13_2 C8_2 1_555 1_555
H7_2 C13_2 1_555 1_555
C14_2 C12_2 1_555 1_555
O5_2 Co5 1_555 1_555
O6_2 Co11_2 1_555 1_555
Co7 N4_2 1_555 1_555
N8_2 Co5 1_555 1_555
C12_2 C13_2 1_555 1_555
C14_2 O5_2 1_555 1_555
C14_2 O6_2 1_555 1_555
Co2_2 O7 1_555 1_555
N7_2 N2_2 1_555 1_555
N2_2 N3_2 1_555 1_555
N3_2 C2_3 1_555 1_555
C1_3 N7_2 1_555 1_555
C2_3 C1_3 1_555 1_555
C3_3 C2_3 1_555 1_555
H1_3 C3_3 1_555 1_555
C4_3 C3_3 1_555 1_555
H2_3 C4_3 1_555 1_555
C5_3 C4_3 1_555 1_555
C6_3 C1_3 1_555 1_555
H3_3 C6_3 1_555 1_555
C7_3 C5_3 1_555 1_555
O7 H4_3 1_555 1_555
O3_3 Co2_2 1_555 1_555
N8_2 N5_2 1_555 1_555
N5_2 N6_2 1_555 1_555
N6_2 C9_3 1_555 1_555
C8_3 N8_2 1_555 1_555
C9_3 C8_3 1_555 1_555
C10_3 C9_3 1_555 1_555
H5_3 C10_3 1_555 1_555
C11_3 C10_3 1_555 1_555
H6_3 C11_3 1_555 1_555
C12_3 C11_3 1_555 1_555
C13_3 C8_3 1_555 1_555
H7_3 C13_3 1_555 1_555
C14_3 C12_3 1_555 1_555
O8 Co2_2 1_555 1_555
H8_3 O8 1_555 1_555
O5_3 Co7 1_555 1_555
O6_3 Co2_2 1_555 1_555
N9_2 Co2_2 1_555 1_555
N10_2 Co2_2 1_555 1_555
N11_2 Co7 1_555 1_555
C5_3 C6_3 1_555 1_555
C7_3 O2_3 1_555 1_555
C7_3 O3_3 1_555 1_555
C12_3 C13_3 1_555 1_555
C14_3 O5_3 1_555 1_555
C14_3 O6_3 1_555 1_555
N9_2 N11_2 1_555 1_555
N10_2 N12_2 1_555 1_555
Co10 O7_2 1_555 1_555
O7_2 H4_4 1_555 1_555
N8 N10_2 1_555 1_555
N12_2 C9_4 1_555 1_555
C8_4 N8 1_555 1_555
C9_4 C8_4 1_555 1_555
C10_4 C9_4 1_555 1_555
H5_4 C10_4 1_555 1_555
C11_4 C10_4 1_555 1_555
H6_4 C11_4 1_555 1_555
C12_4 C11_4 1_555 1_555
C13_4 C8_4 1_555 1_555
H7_4 C13_4 1_555 1_555
C14_4 C12_4 1_555 1_555
O5_4 Co9 1_555 1_555
O6_4 Co10 1_555 1_555
C12_4 C13_4 1_555 1_555
C14_4 O5_4 1_555 1_555
C14_4 O6_4 1_555 1_555
N7 N9_2 1_555 1_555
N11_2 C2_4 1_555 1_555
C1_4 N7 1_555 1_555
C2_4 C1_4 1_555 1_555
C3_4 C2_4 1_555 1_555
H1_4 C3_4 1_555 1_555
C4_4 C3_4 1_555 1_555
H2_4 C4_4 1_555 1_555
C5_4 C4_4 1_555 1_555
C6_4 C1_4 1_555 1_555
H3_4 C6_4 1_555 1_555
C7_4 C5_4 1_555 1_555
O3_4 Co10_2 1_555 1_555
O8_2 Co10_2 1_555 1_555
H8_4 O8_2 1_555 1_555
C5_4 C6_4 1_555 1_555
C7_4 O2_4 1_555 1_555
C7_4 O3_4 1_555 1_555

#END
