
###############################################################################
#
# This file contains modified crystal structure data generated from the
# MOF subset of the Cambridge Structural Database (CSD) v543 
# hosted by the Cambridge Crystallographic Data Centre (CCDC).
#
# This work is licensed under the Creative Commons
# Attribution-NonCommercial-ShareAlike 4.0 International License.
# To view a copy of this license, visit
# http://creativecommons.org/licenses/by-nc-sa/4.0/
# or send a letter to
# Creative Commons, PO Box 1866, Mountain View, CA 94042, USA.
#
# CIF created using the CSD Python API on 29 September 2022
# The structure has been converted into the P1 space group
# The structure has a 3D framework
# The original CSD entry ESUTET01 is in the monoclinic crystal system
# The framework has been calculated to contain at least 10.0% void space
# The void calculation uses a probe of radius 1.32A, grid spacing 0.4
#
###############################################################################

data_ESUTET01
_chemical_formula_moiety         '(C56 H32 Co14 N24 O24)n'
_symmetry_cell_setting           triclinic
_symmetry_space_group_name_H-M   'P 1'
_symmetry_Int_Tables_number      1
_space_group_name_Hall           'P 1'
loop_
_symmetry_equiv_pos_site_id
_symmetry_equiv_pos_as_xyz
1 x,y,z
_cell_length_a                   18.721(4)
_cell_length_b                   10.977(4)
_cell_length_c                   11.081(3)
_cell_angle_alpha                90
_cell_angle_beta                 93.08(2)
_cell_angle_gamma                90
_cell_volume                     2273.86
loop_
_atom_site_label
_atom_site_type_symbol
_atom_site_fract_x
_atom_site_fract_y
_atom_site_fract_z
Co5 Co -0.0000 0.39331(18) 0.2500
C1 C 0.3115(5) 0.1039(9) 0.2108(9)
C2 C 0.3140(5) 0.0794(8) 0.3342(10)
C3 C 0.2564(5) 0.1069(10) 0.4050(10)
H1 H 0.2578 0.0918 0.4877
C4 C 0.1982(5) 0.1574(11) 0.3449(10)
H2 H 0.1587 0.1757 0.3891
C5 C 0.1942(5) 0.1829(9) 0.2241(9)
C6 C 0.2507(5) 0.1562(10) 0.1502(9)
H3 H 0.2483 0.1717 0.0675
C7 C 0.1275(5) 0.2446(9) 0.1664(10)
N1 N 0.3752(4) 0.0656(8) 0.1684(8)
N2 N 0.4138(4) 0.0203(8) 0.2602(8)
N3 N 0.3794(4) 0.0273(7) 0.3632(8)
O2 O 0.1290(3) 0.2765(7) 0.0555(7)
O3 O 0.0770(3) 0.2588(6) 0.2366(7)
Co2 Co 0.42475(7) 0.07297(14) 0.00680(13)
C8 C 0.6885(5) 0.1039(9) 0.2892(9)
C9 C 0.6860(5) 0.0794(8) 0.1658(10)
C10 C 0.7436(5) 0.1069(10) 0.0950(10)
H5 H 0.7422 0.0918 0.0123
C11 C 0.8018(5) 0.1574(11) 0.1551(10)
H6 H 0.8413 0.1757 0.1109
C12 C 0.8058(5) 0.1829(9) 0.2759(9)
C13 C 0.7493(5) 0.1562(10) 0.3498(9)
H7 H 0.7517 0.1717 0.4325
C14 C 0.8725(5) 0.2446(9) 0.3336(10)
N4 N 0.6248(4) 0.0656(8) 0.3316(8)
N5 N 0.5862(4) 0.0203(8) 0.2398(8)
N6 N 0.6206(4) 0.0273(7) 0.1368(8)
O5 O 0.8710(3) 0.2765(7) 0.4445(7)
O6 O 0.9230(3) 0.2588(6) 0.2634(7)
Co3 Co 0.57525(7) 0.07297(14) 0.49320(13)
O8 O 0.4804(3) 0.0911(6) 0.5665(6)
O10 O 0.6290(3) 0.2235(7) 0.5555(7)
Co5_2 Co 1.0000 0.39331(18) 0.2500
Co9 Co 0.92475(7) 0.42703(14) 0.50680(13)
O7 O 0.5196(3) 0.0911(6) 0.9335(6)
O9 O 0.3710(3) 0.2235(7) 0.9445(7)
Co8 Co 0.07525(7) 0.42703(14) 0.99320(13)
O1 O 0.4804(3) 0.9089(6) 0.0665(6)
Co1 Co 0.5000 0.89331(18) 0.2500
O4 O 0.5196(3) 0.9089(6) 0.4335(6)
H8 H 0.516(5) 0.860(4) 0.506(3)
N7 N 0.6206(4) 0.9727(7) 0.6368(8)
O11 O 0.5770(3) 0.7588(6) 0.2366(7)
O12 O 0.4230(3) 0.7588(6) 0.2634(7)
Co7 Co 0.42475(7) 0.92703(14) 0.50680(13)
H4 H 0.484(5) 0.860(4) 0.994(3)
N8 N 0.3794(4) 0.9727(7) 0.8632(8)
Co6 Co 0.57525(7) 0.92703(14) 0.99320(13)
C8_2 C 0.1885(5) 0.6039(9) 0.2892(9)
C9_2 C 0.1860(5) 0.5794(8) 0.1658(10)
C10_2 C 0.2436(5) 0.6069(10) 0.0950(10)
H5_2 H 0.2422 0.5918 0.0123
C11_2 C 0.3018(5) 0.6574(11) 0.1551(10)
H6_2 H 0.3413 0.6757 0.1109
C12_2 C 0.3058(5) 0.6829(9) 0.2759(9)
C13_2 C 0.2493(5) 0.6562(10) 0.3498(9)
H7_2 H 0.2517 0.6717 0.4325
C14_2 C 0.3725(5) 0.7446(9) 0.3336(10)
N4_2 N 0.1248(4) 0.5656(8) 0.3316(8)
N5_2 N 0.0862(4) 0.5203(8) 0.2398(8)
N6_2 N 0.1206(4) 0.5273(7) 0.1368(8)
O4_2 O 0.0196(3) 0.4089(6) 0.4335(6)
O5_2 O 0.3710(3) 0.7765(7) 0.4445(7)
Co3_2 Co 0.07525(7) 0.57297(14) 0.49320(13)
H8_2 H 0.016(5) 0.360(4) 0.506(3)
N7_2 N 0.1206(4) 0.4727(7) 0.6368(8)
O10_2 O 0.1290(3) 0.7235(7) 0.5555(7)
O7_2 O 0.0196(3) 0.5911(6) 0.9335(6)
C1_2 C 0.8115(5) 0.6039(9) 0.2108(9)
C2_2 C 0.8140(5) 0.5794(8) 0.3342(10)
C3_2 C 0.7564(5) 0.6069(10) 0.4050(10)
H1_2 H 0.7578 0.5918 0.4877
C4_2 C 0.6982(5) 0.6574(11) 0.3449(10)
H2_2 H 0.6587 0.6757 0.3891
C5_2 C 0.6942(5) 0.6829(9) 0.2241(9)
C6_2 C 0.7507(5) 0.6562(10) 0.1502(9)
H3_2 H 0.7483 0.6717 0.0675
C7_2 C 0.6275(5) 0.7446(9) 0.1664(10)
N1_2 N 0.8752(4) 0.5656(8) 0.1684(8)
N2_2 N 0.9138(4) 0.5203(8) 0.2602(8)
N3_2 N 0.8794(4) 0.5273(7) 0.3632(8)
O1_2 O 0.9804(3) 0.4089(6) 0.0665(6)
O2_2 O 0.6290(3) 0.7765(7) 0.0555(7)
Co2_2 Co 0.92475(7) 0.57297(14) 0.00680(13)
O8_2 O 0.9804(3) 0.5911(6) 0.5665(6)
H4_2 H 0.984(5) 0.360(4) 0.994(3)
N8_2 N 0.8794(4) 0.4727(7) 0.8632(8)
O9_2 O 0.8710(3) 0.7235(7) 0.9445(7)
Co4 Co 0.0000 0.60669(18) 0.7500
H4_3 H 0.516(5) 0.140(4) 0.006(3)
Co1_2 Co 0.5000 0.10669(18) 0.7500
H8_3 H 0.484(5) 0.140(4) 0.494(3)
O11_2 O 0.4230(3) 0.2412(6) 0.7634(7)
O12_2 O 0.5770(3) 0.2412(6) 0.7366(7)
C1_3 C 0.6885(5) 0.8961(9) 0.7892(9)
C2_3 C 0.6860(5) 0.9206(8) 0.6658(10)
C3_3 C 0.7436(5) 0.8931(10) 0.5950(10)
H1_3 H 0.7422 0.9082 0.5123
C4_3 C 0.8018(5) 0.8426(11) 0.6551(10)
H2_3 H 0.8413 0.8243 0.6109
C5_3 C 0.8058(5) 0.8171(9) 0.7759(9)
C6_3 C 0.7493(5) 0.8438(10) 0.8498(9)
H3_3 H 0.7517 0.8283 0.9325
C7_3 C 0.8725(5) 0.7554(9) 0.8336(10)
N1_3 N 0.6248(4) 0.9344(8) 0.8316(8)
N2_3 N 0.5862(4) 0.9797(8) 0.7398(8)
O3_2 O 0.9230(3) 0.7412(6) 0.7634(7)
C8_3 C 0.3115(5) 0.8961(9) 0.7108(9)
C9_3 C 0.3140(5) 0.9206(8) 0.8342(10)
C10_3 C 0.2564(5) 0.8931(10) 0.9050(10)
H5_3 H 0.2578 0.9082 0.9877
C11_3 C 0.1982(5) 0.8426(11) 0.8449(10)
H6_3 H 0.1587 0.8243 0.8891
C12_3 C 0.1942(5) 0.8171(9) 0.7241(9)
C13_3 C 0.2507(5) 0.8438(10) 0.6502(9)
H7_3 H 0.2483 0.8283 0.5675
C14_3 C 0.1275(5) 0.7554(9) 0.6664(10)
N4_3 N 0.3752(4) 0.9344(8) 0.6684(8)
N5_3 N 0.4138(4) 0.9797(8) 0.7602(8)
O6_2 O 0.0770(3) 0.7412(6) 0.7366(7)
Co4_2 Co 1.0000 0.60669(18) 0.7500
H4_4 H 0.016(5) 0.640(4) 0.006(3)
C1_4 C 0.1885(5) 0.3961(9) 0.7892(9)
C2_4 C 0.1860(5) 0.4206(8) 0.6658(10)
C3_4 C 0.2436(5) 0.3931(10) 0.5950(10)
H1_4 H 0.2422 0.4082 0.5123
C4_4 C 0.3018(5) 0.3426(11) 0.6551(10)
H2_4 H 0.3413 0.3243 0.6109
C5_4 C 0.3058(5) 0.3171(9) 0.7759(9)
C6_4 C 0.2493(5) 0.3438(10) 0.8498(9)
H3_4 H 0.2517 0.3283 0.9325
C7_4 C 0.3725(5) 0.2554(9) 0.8336(10)
N1_4 N 0.1248(4) 0.4344(8) 0.8316(8)
N2_4 N 0.0862(4) 0.4797(8) 0.7398(8)
C8_4 C 0.8115(5) 0.3961(9) 0.7108(9)
C9_4 C 0.8140(5) 0.4206(8) 0.8342(10)
C10_4 C 0.7564(5) 0.3931(10) 0.9050(10)
H5_4 H 0.7578 0.4082 0.9877
C11_4 C 0.6982(5) 0.3426(11) 0.8449(10)
H6_4 H 0.6587 0.3243 0.8891
C12_4 C 0.6942(5) 0.3171(9) 0.7241(9)
C13_4 C 0.7507(5) 0.3438(10) 0.6502(9)
H7_4 H 0.7483 0.3283 0.5675
C14_4 C 0.6275(5) 0.2554(9) 0.6664(10)
N4_4 N 0.8752(4) 0.4344(8) 0.6684(8)
N5_4 N 0.9138(4) 0.4797(8) 0.7602(8)
H8_4 H 0.984(5) 0.640(4) 0.494(3)
loop_
_geom_bond_atom_site_label_1
_geom_bond_atom_site_label_2
_geom_bond_site_symmetry_1
_geom_bond_site_symmetry_2
C1 C2 1_555 1_555
C2 C3 1_555 1_555
C3 H1 1_555 1_555
C4 C3 1_555 1_555
H2 C4 1_555 1_555
C5 C4 1_555 1_555
C6 C1 1_555 1_555
H3 C6 1_555 1_555
C7 C5 1_555 1_555
N1 C1 1_555 1_555
N2 N1 1_555 1_555
N3 C2 1_555 1_555
O2 C7 1_555 1_555
O3 C7 1_555 1_555
Co2 N1 1_555 1_555
C8 C9 1_555 1_555
C9 C10 1_555 1_555
C10 H5 1_555 1_555
C11 C10 1_555 1_555
H6 C11 1_555 1_555
C12 C11 1_555 1_555
C13 C8 1_555 1_555
H7 C13 1_555 1_555
C14 C12 1_555 1_555
N4 C8 1_555 1_555
N6 C9 1_555 1_555
O5 C14 1_555 1_555
O6 C14 1_555 1_555
Co3 N4 1_555 1_555
O8 Co3 1_555 1_555
O10 Co3 1_555 1_555
Co5 O3 1_555 1_555
Co5_2 O6 1_555 1_555
Co9 O5 1_555 1_555
C5 C6 1_555 1_555
N2 N3 1_555 1_555
C12 C13 1_555 1_555
N4 N5 1_555 1_555
N5 N6 1_555 1_555
O1 Co1 1_555 1_555
O4 Co1 1_555 1_555
H8 O4 1_555 1_555
O11 Co1 1_555 1_555
O12 Co1 1_555 1_555
O4 Co7 1_555 1_555
C8_2 C9_2 1_555 1_555
C9_2 C10_2 1_555 1_555
C10_2 H5_2 1_555 1_555
C11_2 C10_2 1_555 1_555
H6_2 C11_2 1_555 1_555
C12_2 C11_2 1_555 1_555
C13_2 C8_2 1_555 1_555
H7_2 C13_2 1_555 1_555
C14_2 C12_2 1_555 1_555
N4_2 C8_2 1_555 1_555
N5_2 Co5 1_555 1_555
N6_2 C9_2 1_555 1_555
O4_2 Co5 1_555 1_555
O5_2 C14_2 1_555 1_555
O12 C14_2 1_555 1_555
Co3_2 N4_2 1_555 1_555
H8_2 O4_2 1_555 1_555
N7_2 Co3_2 1_555 1_555
O10_2 Co3_2 1_555 1_555
Co7 O5_2 1_555 1_555
C12_2 C13_2 1_555 1_555
N4_2 N5_2 1_555 1_555
N5_2 N6_2 1_555 1_555
O4_2 Co3_2 1_555 1_555
O7_2 Co8 1_555 1_555
C1_2 C2_2 1_555 1_555
C2_2 C3_2 1_555 1_555
C3_2 H1_2 1_555 1_555
C4_2 C3_2 1_555 1_555
H2_2 C4_2 1_555 1_555
C5_2 C4_2 1_555 1_555
C6_2 C1_2 1_555 1_555
H3_2 C6_2 1_555 1_555
C7_2 C5_2 1_555 1_555
N1_2 C1_2 1_555 1_555
N2_2 N1_2 1_555 1_555
N3_2 C2_2 1_555 1_555
O1_2 Co5_2 1_555 1_555
O2_2 C7_2 1_555 1_555
O11 C7_2 1_555 1_555
Co5_2 N2_2 1_555 1_555
Co2_2 N1_2 1_555 1_555
Co9 N3_2 1_555 1_555
C5_2 C6_2 1_555 1_555
N2_2 N3_2 1_555 1_555
O1_2 Co2_2 1_555 1_555
O8_2 Co9 1_555 1_555
O7 Co1_2 1_555 1_555
O8 Co1_2 1_555 1_555
H8_3 O8 1_555 1_555
O11_2 Co1_2 1_555 1_555
O12_2 Co1_2 1_555 1_555
C1_3 C2_3 1_555 1_555
C2_3 C3_3 1_555 1_555
C3_3 H1_3 1_555 1_555
C4_3 C3_3 1_555 1_555
H2_3 C4_3 1_555 1_555
C5_3 C4_3 1_555 1_555
C6_3 C1_3 1_555 1_555
H3_3 C6_3 1_555 1_555
C7_3 C5_3 1_555 1_555
N1_3 C1_3 1_555 1_555
N2_3 N1_3 1_555 1_555
N7 C2_3 1_555 1_555
O9_2 C7_3 1_555 1_555
O3_2 C7_3 1_555 1_555
Co6 N1_3 1_555 1_555
C8_3 C9_3 1_555 1_555
C9_3 C10_3 1_555 1_555
C10_3 H5_3 1_555 1_555
C11_3 C10_3 1_555 1_555
H6_3 C11_3 1_555 1_555
C12_3 C11_3 1_555 1_555
C13_3 C8_3 1_555 1_555
H7_3 C13_3 1_555 1_555
C14_3 C12_3 1_555 1_555
N4_3 C8_3 1_555 1_555
N8 C9_3 1_555 1_555
O10_2 C14_3 1_555 1_555
O6_2 C14_3 1_555 1_555
Co7 N4_3 1_555 1_555
Co4_2 O3_2 1_555 1_555
Co4 O6_2 1_555 1_555
C5_3 C6_3 1_555 1_555
N2_3 N7 1_555 1_555
C12_3 C13_3 1_555 1_555
N4_3 N5_3 1_555 1_555
N5_3 N8 1_555 1_555
C1_4 C2_4 1_555 1_555
C2_4 C3_4 1_555 1_555
C3_4 H1_4 1_555 1_555
C4_4 C3_4 1_555 1_555
H2_4 C4_4 1_555 1_555
C5_4 C4_4 1_555 1_555
C6_4 C1_4 1_555 1_555
H3_4 C6_4 1_555 1_555
C7_4 C5_4 1_555 1_555
N1_4 C1_4 1_555 1_555
N2_4 N1_4 1_555 1_555
N7_2 C2_4 1_555 1_555
O7_2 Co4 1_555 1_555
O9 C7_4 1_555 1_555
O11_2 C7_4 1_555 1_555
Co4 N2_4 1_555 1_555
Co8 N1_4 1_555 1_555
C5_4 C6_4 1_555 1_555
N2_4 N7_2 1_555 1_555
C8_4 C9_4 1_555 1_555
C9_4 C10_4 1_555 1_555
C10_4 H5_4 1_555 1_555
C11_4 C10_4 1_555 1_555
H6_4 C11_4 1_555 1_555
C12_4 C11_4 1_555 1_555
C13_4 C8_4 1_555 1_555
H7_4 C13_4 1_555 1_555
C14_4 C12_4 1_555 1_555
N4_4 C8_4 1_555 1_555
N5_4 Co4_2 1_555 1_555
N8_2 C9_4 1_555 1_555
O8_2 Co4_2 1_555 1_555
O10 C14_4 1_555 1_555
O12_2 C14_4 1_555 1_555
Co9 N4_4 1_555 1_555
H8_4 O8_2 1_555 1_555
C12_4 C13_4 1_555 1_555
N4_4 N5_4 1_555 1_555
N5_4 N8_2 1_555 1_555

#END
