
###############################################################################
#
# This file contains modified crystal structure data generated from the
# MOF subset of the Cambridge Structural Database (CSD) v543 
# hosted by the Cambridge Crystallographic Data Centre (CCDC).
#
# This work is licensed under the Creative Commons
# Attribution-NonCommercial-ShareAlike 4.0 International License.
# To view a copy of this license, visit
# http://creativecommons.org/licenses/by-nc-sa/4.0/
# or send a letter to
# Creative Commons, PO Box 1866, Mountain View, CA 94042, USA.
#
# CIF created using the CSD Python API on 29 September 2022
# The structure has been converted into the P1 space group
# The structure has a 3D framework
# The original CSD entry ESUTET is in the monoclinic crystal system
# The framework has been calculated to contain at least 10.0% void space
# The void calculation uses a probe of radius 1.32A, grid spacing 0.4
#
###############################################################################

data_ESUTET
_chemical_formula_moiety         '(C56 H32 Co10 N24 O24)n'
_symmetry_cell_setting           triclinic
_symmetry_space_group_name_H-M   'P 1'
_symmetry_Int_Tables_number      1
_space_group_name_Hall           'P 1'
loop_
_symmetry_equiv_pos_site_id
_symmetry_equiv_pos_as_xyz
1 x,y,z
_cell_length_a                   18.418(3)
_cell_length_b                   11.576(4)
_cell_length_c                   11.0520(15)
_cell_angle_alpha                90
_cell_angle_beta                 94.124(13)
_cell_angle_gamma                90
_cell_volume                     2350.26
loop_
_atom_site_label
_atom_site_type_symbol
_atom_site_fract_x
_atom_site_fract_y
_atom_site_fract_z
Co5 Co -0.0000 0.1024(3) 0.2500
Co5_2 Co 1.0000 0.1024(3) 0.2500
Co7 Co 0.92464(9) 0.0706(2) 0.50737(15)
Co6 Co 0.07536(9) 0.0706(2) 0.99263(15)
N1 N 0.8713(5) 0.9426(11) 0.1662(9)
N2 N 0.9121(5) 0.9874(12) 0.2596(9)
N3 N 0.8768(5) 0.9761(11) 0.3613(9)
C1 C 0.8092(7) 0.8998(13) 0.2094(11)
C2 C 0.8110(7) 0.9217(14) 0.3337(12)
C3 C 0.7574(7) 0.8877(14) 0.4026(13)
H1 H 0.7605 0.9002 0.4859
C4 C 0.6976(7) 0.8335(16) 0.3443(13)
H2 H 0.6587 0.8126 0.3889
C5 C 0.6943(6) 0.8095(14) 0.2206(11)
C6 C 0.7506(6) 0.8368(14) 0.1495(11)
H3 H 0.7502 0.8156 0.0682
C7 C 0.6301(7) 0.7448(14) 0.1669(12)
O1 O 0.4800(4) 0.5878(9) 0.0673(7)
H4 H 0.461(5) 0.657(6) 0.027(9)
O2 O 0.6296(4) 0.7116(10) 0.0571(8)
O3 O 0.5762(5) 0.7320(10) 0.2321(8)
Co1 Co 0.5000 0.6024(3) 0.2500
N4 N 0.1287(5) 0.9426(11) 0.3338(9)
N5 N 0.0879(5) 0.9874(12) 0.2404(9)
N6 N 0.1232(5) 0.9761(11) 0.1387(9)
C8 C 0.1908(7) 0.8998(13) 0.2906(11)
C9 C 0.1890(7) 0.9217(14) 0.1663(12)
C10 C 0.2426(7) 0.8877(14) 0.0974(13)
H5 H 0.2395 0.9002 0.0141
C11 C 0.3024(7) 0.8335(16) 0.1557(13)
H6 H 0.3413 0.8126 0.1111
C12 C 0.3057(6) 0.8095(14) 0.2794(11)
C13 C 0.2494(6) 0.8368(14) 0.3505(11)
H7 H 0.2498 0.8156 0.4318
C14 C 0.3699(7) 0.7448(14) 0.3331(12)
O4 O 0.5200(4) 0.5878(9) 0.4327(7)
H8 H 0.539(5) 0.657(6) 0.473(9)
O5 O 0.3704(4) 0.7116(10) 0.4429(8)
O6 O 0.4238(5) 0.7320(10) 0.2679(8)
Co3 Co 0.42464(9) 0.5706(2) 0.50737(15)
N8 N 0.3713(5) 0.5574(11) 0.6662(9)
N9 N 0.4121(5) 0.4874(12) 0.2596(9)
N10 N 0.5879(5) 0.4874(12) 0.2404(9)
N11 N 0.3768(5) 0.4761(11) 0.3613(9)
N12 N 0.6232(5) 0.4761(11) 0.1387(9)
O8 O 0.4800(4) 0.4122(9) 0.5673(7)
Co8 Co 0.42464(9) 0.4294(2) 0.00737(15)
Co9 Co 0.57536(9) 0.4294(2) 0.49263(15)
Co10 Co 0.92464(9) 0.9294(2) 0.00737(15)
Co11 Co 0.07536(9) 0.9294(2) 0.49263(15)
Co2 Co 0.57536(9) 0.5706(2) 0.99263(15)
N7 N 0.6287(5) 0.5574(11) 0.8338(9)
O7 O 0.5200(4) 0.4122(9) 0.9327(7)
N1_2 N 0.3713(5) 0.4426(11) 0.1662(9)
C1_2 C 0.3092(7) 0.3998(13) 0.2094(11)
C2_2 C 0.3110(7) 0.4217(14) 0.3337(12)
C3_2 C 0.2574(7) 0.3877(14) 0.4026(13)
H1_2 H 0.2605 0.4002 0.4859
C4_2 C 0.1976(7) 0.3335(16) 0.3443(13)
H2_2 H 0.1587 0.3126 0.3889
C5_2 C 0.1943(6) 0.3095(14) 0.2206(11)
C6_2 C 0.2506(6) 0.3368(14) 0.1495(11)
H3_2 H 0.2502 0.3156 0.0682
C7_2 C 0.1301(7) 0.2448(14) 0.1669(12)
O2_2 O 0.1296(4) 0.2116(10) 0.0571(8)
O3_2 O 0.0762(5) 0.2320(10) 0.2321(8)
O4_2 O 0.0200(4) 0.0878(9) 0.4327(7)
H8_2 H 0.039(5) 0.157(6) 0.473(9)
N7_2 N 0.1287(5) 0.0574(11) 0.8338(9)
O7_2 O 0.0200(4) 0.9122(9) 0.9327(7)
O1_2 O 0.9800(4) 0.0878(9) 0.0673(7)
H4_2 H 0.961(5) 0.157(6) 0.027(9)
N4_2 N 0.6287(5) 0.4426(11) 0.3338(9)
C8_2 C 0.6908(7) 0.3998(13) 0.2906(11)
C9_2 C 0.6890(7) 0.4217(14) 0.1663(12)
C10_2 C 0.7426(7) 0.3877(14) 0.0974(13)
H5_2 H 0.7395 0.4002 0.0141
C11_2 C 0.8024(7) 0.3335(16) 0.1557(13)
H6_2 H 0.8413 0.3126 0.1111
C12_2 C 0.8057(6) 0.3095(14) 0.2794(11)
C13_2 C 0.7494(6) 0.3368(14) 0.3505(11)
H7_2 H 0.7498 0.3156 0.4318
C14_2 C 0.8699(7) 0.2448(14) 0.3331(12)
O5_2 O 0.8704(4) 0.2116(10) 0.4429(8)
O6_2 O 0.9238(5) 0.2320(10) 0.2679(8)
N8_2 N 0.8713(5) 0.0574(11) 0.6662(9)
O8_2 O 0.9800(4) 0.9122(9) 0.5673(7)
Co4 Co 0.0000 0.8976(3) 0.7500
N2_2 N 0.0879(5) 0.0126(12) 0.7404(9)
N3_2 N 0.1232(5) 0.0239(11) 0.6387(9)
C1_3 C 0.1908(7) 0.1002(13) 0.7906(11)
C2_3 C 0.1890(7) 0.0783(14) 0.6663(12)
C3_3 C 0.2426(7) 0.1123(14) 0.5974(13)
H1_3 H 0.2395 0.0998 0.5141
C4_3 C 0.3024(7) 0.1665(16) 0.6557(13)
H2_3 H 0.3413 0.1874 0.6111
C5_3 C 0.3057(6) 0.1905(14) 0.7794(11)
C6_3 C 0.2494(6) 0.1632(14) 0.8505(11)
H3_3 H 0.2498 0.1844 0.9318
C7_3 C 0.3699(7) 0.2552(14) 0.8331(12)
H4_3 H 0.539(5) 0.343(6) 0.973(9)
O2_3 O 0.3704(4) 0.2884(10) 0.9429(8)
O3_3 O 0.4238(5) 0.2680(10) 0.7679(8)
Co1_2 Co 0.5000 0.3976(3) 0.7500
N5_2 N 0.9121(5) 0.0126(12) 0.7596(9)
N6_2 N 0.8768(5) 0.0239(11) 0.8613(9)
C8_3 C 0.8092(7) 0.1002(13) 0.7094(11)
C9_3 C 0.8110(7) 0.0783(14) 0.8337(12)
C10_3 C 0.7574(7) 0.1123(14) 0.9026(13)
H5_3 H 0.7605 0.0998 0.9859
C11_3 C 0.6976(7) 0.1665(16) 0.8443(13)
H6_3 H 0.6587 0.1874 0.8889
C12_3 C 0.6943(6) 0.1905(14) 0.7206(11)
C13_3 C 0.7506(6) 0.1632(14) 0.6495(11)
H7_3 H 0.7502 0.1844 0.5682
C14_3 C 0.6301(7) 0.2552(14) 0.6669(12)
H8_3 H 0.461(5) 0.343(6) 0.527(9)
O5_3 O 0.6296(4) 0.2884(10) 0.5571(8)
O6_3 O 0.5762(5) 0.2680(10) 0.7321(8)
N9_2 N 0.5879(5) 0.5126(12) 0.7404(9)
N10_2 N 0.4121(5) 0.5126(12) 0.7596(9)
N11_2 N 0.6232(5) 0.5239(11) 0.6387(9)
N12_2 N 0.3768(5) 0.5239(11) 0.8613(9)
Co4_2 Co 1.0000 0.8976(3) 0.7500
H4_4 H 0.039(5) 0.843(6) 0.973(9)
C8_4 C 0.3092(7) 0.6002(13) 0.7094(11)
C9_4 C 0.3110(7) 0.5783(14) 0.8337(12)
C10_4 C 0.2574(7) 0.6123(14) 0.9026(13)
H5_4 H 0.2605 0.5998 0.9859
C11_4 C 0.1976(7) 0.6665(16) 0.8443(13)
H6_4 H 0.1587 0.6874 0.8889
C12_4 C 0.1943(6) 0.6905(14) 0.7206(11)
C13_4 C 0.2506(6) 0.6632(14) 0.6495(11)
H7_4 H 0.2502 0.6844 0.5682
C14_4 C 0.1301(7) 0.7552(14) 0.6669(12)
O5_4 O 0.1296(4) 0.7884(10) 0.5571(8)
O6_4 O 0.0762(5) 0.7680(10) 0.7321(8)
C1_4 C 0.6908(7) 0.6002(13) 0.7906(11)
C2_4 C 0.6890(7) 0.5783(14) 0.6663(12)
C3_4 C 0.7426(7) 0.6123(14) 0.5974(13)
H1_4 H 0.7395 0.5998 0.5141
C4_4 C 0.8024(7) 0.6665(16) 0.6557(13)
H2_4 H 0.8413 0.6874 0.6111
C5_4 C 0.8057(6) 0.6905(14) 0.7794(11)
C6_4 C 0.7494(6) 0.6632(14) 0.8505(11)
H3_4 H 0.7498 0.6844 0.9318
C7_4 C 0.8699(7) 0.7552(14) 0.8331(12)
O2_4 O 0.8704(4) 0.7884(10) 0.9429(8)
O3_4 O 0.9238(5) 0.7680(10) 0.7679(8)
H8_4 H 0.961(5) 0.843(6) 0.527(9)
loop_
_geom_bond_atom_site_label_1
_geom_bond_atom_site_label_2
_geom_bond_site_symmetry_1
_geom_bond_site_symmetry_2
N1 N2 1_555 1_555
N2 N3 1_555 1_555
N3 C2 1_555 1_555
C1 N1 1_555 1_555
C2 C1 1_555 1_555
C3 C2 1_555 1_555
H1 C3 1_555 1_555
C4 C3 1_555 1_555
H2 C4 1_555 1_555
C5 C4 1_555 1_555
C6 C1 1_555 1_555
H3 C6 1_555 1_555
C7 C5 1_555 1_555
O1 H4 1_555 1_555
O2 C7 1_555 1_555
O3 C7 1_555 1_555
Co1 O1 1_555 1_555
N4 N5 1_555 1_555
N5 N6 1_555 1_555
N6 C9 1_555 1_555
C8 N4 1_555 1_555
C9 C8 1_555 1_555
C10 C9 1_555 1_555
H5 C10 1_555 1_555
C11 C10 1_555 1_555
H6 C11 1_555 1_555
C12 C11 1_555 1_555
C13 C8 1_555 1_555
H7 C13 1_555 1_555
C14 C12 1_555 1_555
O4 Co1 1_555 1_555
H8 O4 1_555 1_555
O5 C14 1_555 1_555
O6 Co1 1_555 1_555
Co3 O4 1_555 1_555
N8 Co3 1_555 1_555
N9 Co1 1_555 1_555
N10 Co1 1_555 1_555
N11 Co3 1_555 1_555
O8 Co3 1_555 1_555
Co8 O1 1_555 1_555
Co9 O4 1_555 1_555
Co10 N1 1_555 1_555
Co11 N4 1_555 1_555
C5 C6 1_555 1_555
O3 Co1 1_555 1_555
C12 C13 1_555 1_555
C14 O6 1_555 1_555
O5 Co3 1_555 1_555
N9 N11 1_555 1_555
N10 N12 1_555 1_555
O8 Co9 1_555 1_555
N7 Co2 1_555 1_555
O7 Co2 1_555 1_555
N1_2 N9 1_555 1_555
N11 C2_2 1_555 1_555
C1_2 N1_2 1_555 1_555
C2_2 C1_2 1_555 1_555
C3_2 C2_2 1_555 1_555
H1_2 C3_2 1_555 1_555
C4_2 C3_2 1_555 1_555
H2_2 C4_2 1_555 1_555
C5_2 C4_2 1_555 1_555
C6_2 C1_2 1_555 1_555
H3_2 C6_2 1_555 1_555
C7_2 C5_2 1_555 1_555
O2_2 C7_2 1_555 1_555
O3_2 C7_2 1_555 1_555
O4_2 Co5 1_555 1_555
H8_2 O4_2 1_555 1_555
Co8 N1_2 1_555 1_555
C5_2 C6_2 1_555 1_555
O3_2 Co5 1_555 1_555
N7_2 Co6 1_555 1_555
O1_2 H4_2 1_555 1_555
Co5_2 O1_2 1_555 1_555
N4_2 N10 1_555 1_555
N12 C9_2 1_555 1_555
C8_2 N4_2 1_555 1_555
C9_2 C8_2 1_555 1_555
C10_2 C9_2 1_555 1_555
H5_2 C10_2 1_555 1_555
C11_2 C10_2 1_555 1_555
H6_2 C11_2 1_555 1_555
C12_2 C11_2 1_555 1_555
C13_2 C8_2 1_555 1_555
H7_2 C13_2 1_555 1_555
C14_2 C12_2 1_555 1_555
O5_2 C14_2 1_555 1_555
O6_2 Co5_2 1_555 1_555
N8_2 Co7 1_555 1_555
Co9 N4_2 1_555 1_555
C12_2 C13_2 1_555 1_555
C14_2 O6_2 1_555 1_555
O5_2 Co7 1_555 1_555
N7_2 N2_2 1_555 1_555
N2_2 N3_2 1_555 1_555
N3_2 C2_3 1_555 1_555
C1_3 N7_2 1_555 1_555
C2_3 C1_3 1_555 1_555
C3_3 C2_3 1_555 1_555
H1_3 C3_3 1_555 1_555
C4_3 C3_3 1_555 1_555
H2_3 C4_3 1_555 1_555
C5_3 C4_3 1_555 1_555
C6_3 C1_3 1_555 1_555
H3_3 C6_3 1_555 1_555
C7_3 C5_3 1_555 1_555
O7 H4_3 1_555 1_555
O2_3 C7_3 1_555 1_555
O3_3 C7_3 1_555 1_555
Co1_2 O7 1_555 1_555
N8_2 N5_2 1_555 1_555
N5_2 N6_2 1_555 1_555
N6_2 C9_3 1_555 1_555
C8_3 N8_2 1_555 1_555
C9_3 C8_3 1_555 1_555
C10_3 C9_3 1_555 1_555
H5_3 C10_3 1_555 1_555
C11_3 C10_3 1_555 1_555
H6_3 C11_3 1_555 1_555
C12_3 C11_3 1_555 1_555
C13_3 C8_3 1_555 1_555
H7_3 C13_3 1_555 1_555
C14_3 C12_3 1_555 1_555
O8 Co1_2 1_555 1_555
H8_3 O8 1_555 1_555
O5_3 C14_3 1_555 1_555
O6_3 Co1_2 1_555 1_555
N9_2 Co1_2 1_555 1_555
N10_2 Co1_2 1_555 1_555
N11_2 Co9 1_555 1_555
C5_3 C6_3 1_555 1_555
O3_3 Co1_2 1_555 1_555
C12_3 C13_3 1_555 1_555
C14_3 O6_3 1_555 1_555
O5_3 Co9 1_555 1_555
N9_2 N11_2 1_555 1_555
N10_2 N12_2 1_555 1_555
O7_2 H4_4 1_555 1_555
Co4 O7_2 1_555 1_555
N8 N10_2 1_555 1_555
N12_2 C9_4 1_555 1_555
C8_4 N8 1_555 1_555
C9_4 C8_4 1_555 1_555
C10_4 C9_4 1_555 1_555
H5_4 C10_4 1_555 1_555
C11_4 C10_4 1_555 1_555
H6_4 C11_4 1_555 1_555
C12_4 C11_4 1_555 1_555
C13_4 C8_4 1_555 1_555
H7_4 C13_4 1_555 1_555
C14_4 C12_4 1_555 1_555
O5_4 C14_4 1_555 1_555
O6_4 Co4 1_555 1_555
C12_4 C13_4 1_555 1_555
C14_4 O6_4 1_555 1_555
O5_4 Co11 1_555 1_555
N7 N9_2 1_555 1_555
N11_2 C2_4 1_555 1_555
C1_4 N7 1_555 1_555
C2_4 C1_4 1_555 1_555
C3_4 C2_4 1_555 1_555
H1_4 C3_4 1_555 1_555
C4_4 C3_4 1_555 1_555
H2_4 C4_4 1_555 1_555
C5_4 C4_4 1_555 1_555
C6_4 C1_4 1_555 1_555
H3_4 C6_4 1_555 1_555
C7_4 C5_4 1_555 1_555
O2_4 C7_4 1_555 1_555
O3_4 C7_4 1_555 1_555
O8_2 Co4_2 1_555 1_555
H8_4 O8_2 1_555 1_555
C5_4 C6_4 1_555 1_555
O3_4 Co4_2 1_555 1_555

#END
