
###############################################################################
#
# This file contains modified crystal structure data generated from the
# MOF subset of the Cambridge Structural Database (CSD) v543 
# hosted by the Cambridge Crystallographic Data Centre (CCDC).
#
# This work is licensed under the Creative Commons
# Attribution-NonCommercial-ShareAlike 4.0 International License.
# To view a copy of this license, visit
# http://creativecommons.org/licenses/by-nc-sa/4.0/
# or send a letter to
# Creative Commons, PO Box 1866, Mountain View, CA 94042, USA.
#
# CIF created using the CSD Python API on 29 September 2022
# The structure has been converted into the P1 space group
# The structure has a 3D framework
# The original CSD entry ESUVAR is in the triclinic crystal system
# The framework has been calculated to contain at least 10.0% void space
# The void calculation uses a probe of radius 1.32A, grid spacing 0.4
#
###############################################################################

data_ESUVAR
_chemical_formula_moiety         '(C34 H28 Co6 N14 O12)n'
_symmetry_cell_setting           triclinic
_symmetry_space_group_name_H-M   'P 1'
_symmetry_Int_Tables_number      1
_space_group_name_Hall           'P 1'
loop_
_symmetry_equiv_pos_site_id
_symmetry_equiv_pos_as_xyz
1 x,y,z
_cell_length_a                   10.852(3)
_cell_length_b                   10.9126(6)
_cell_length_c                   11.1478(6)
_cell_angle_alpha                84.499(5)
_cell_angle_beta                 88.211(9)
_cell_angle_gamma                66.360(12)
_cell_volume                     1203.77
loop_
_atom_site_label
_atom_site_type_symbol
_atom_site_fract_x
_atom_site_fract_y
_atom_site_fract_z
_atom_site_U_iso_or_equiv
_atom_site_thermal_displace_type
Co5 Co 0.0951(7) 0.8933(3) 0.2522(2) 0.0233 Uani
O8 O 0.0969(18) 0.9271(12) 0.0671(9) 0.0260 Uiso
O10 O 0.057(3) 0.8960(15) 0.4288(9) 0.0200 Uiso
O13 O 0.043(3) 0.6728(15) 0.0683(10) 0.0250 Uiso
Co3 Co 0.8498(8) 0.0141(4) 0.4849(2) 0.0233 Uani
O7 O 0.787(4) 0.228(2) 0.3731(15) 0.0720 Uiso
C15 C 0.775(5) 0.288(2) 0.273(2) 0.1120 Uiso
H9 H 0.7852 0.2410 0.2057 0.1350 Uiso
N7 N 0.746(4) 0.421(2) 0.2578(16) 0.0780 Uiso
C16 C 0.730(7) 0.506(3) 0.354(2) 0.1220 Uiso
H10 H 0.7103 0.5959 0.3203 0.1820 Uiso
H11 H 0.6575 0.5042 0.4047 0.1820 Uiso
H12 H 0.8117 0.4728 0.4004 0.1820 Uiso
C17 C 0.732(7) 0.495(4) 0.139(2) 0.1350 Uiso
H13 H 0.7122 0.5876 0.1486 0.2030 Uiso
H14 H 0.8150 0.4573 0.0960 0.2030 Uiso
H15 H 0.6609 0.4886 0.0952 0.2030 Uiso
N10 N 0.0898(14) 0.0871(12) 0.2581(8) 0.0180 Uiso
O11 O 0.943(3) 0.1040(15) 0.5712(9) 0.0200 Uiso
O12 O 0.650(3) 0.0955(17) 0.5496(11) 0.0340 Uiso
Co8 Co 0.0323(6) 0.1323(3) 0.9988(2) 0.0234 Uani
O9 O 0.9031(18) 0.0729(12) 0.9329(9) 0.0260 Uiso
Co2 Co 0.9677(6) 0.8677(3) 0.0012(2) 0.0234 Uani
N1 N 0.799(2) 0.9432(15) 0.3319(12) 0.0260 Uiso
N2 N 0.879(3) 0.9414(13) 0.2382(10) 0.0280 Uiso
N3 N 0.831(2) 0.9144(14) 0.1398(11) 0.0200 Uiso
N4 N 0.0761(18) 0.1766(13) 0.1635(11) 0.0270 Uiso
N6 N 0.1070(18) 0.1289(12) 0.3618(10) 0.0170 Uiso
C1 C 0.695(2) 0.9165(18) 0.2936(13) 0.0230 Uiso
C2 C 0.715(2) 0.8983(19) 0.1708(13) 0.0280 Uiso
C3 C 0.624(3) 0.872(2) 0.1046(16) 0.0410 Uiso
H1 H 0.6354 0.8629 0.0225 0.0500 Uiso
C4 C 0.515(3) 0.860(2) 0.1646(14) 0.0440 Uiso
H2 H 0.4541 0.8397 0.1229 0.0520 Uiso
C5 C 0.497(3) 0.878(2) 0.2863(13) 0.0300 Uiso
C6 C 0.585(3) 0.9082(18) 0.3543(14) 0.0220 Uiso
H3 H 0.5708 0.9217 0.4356 0.0270 Uiso
C7 C 0.381(5) 0.867(2) 0.3436(16) 0.0290 Uiso
C8 C 0.0850(15) 0.2844(12) 0.2093(11) 0.0210 Uiso
C9 C 0.1045(16) 0.2545(12) 0.3330(10) 0.0120 Uiso
C10 C 0.118(2) 0.3433(14) 0.4078(12) 0.0200 Uiso
H4 H 0.1307 0.3220 0.4905 0.0240 Uiso
C11 C 0.111(2) 0.4658(15) 0.3526(11) 0.0200 Uiso
H5 H 0.1191 0.5280 0.3997 0.0240 Uiso
C12 C 0.092(2) 0.4974(15) 0.2297(11) 0.0180 Uiso
C13 C 0.078(2) 0.4081(14) 0.1553(13) 0.0290 Uiso
H6 H 0.0656 0.4299 0.0727 0.0350 Uiso
C14 C 0.085(3) 0.6313(18) 0.1764(14) 0.0190 Uiso
H7 H 0.1930 0.8732 0.0728 0.0310 Uiso
H8 H 0.0558 0.8222 0.4802 0.0240 Uiso
O3 O 0.350(3) 0.9045(17) 0.4504(11) 0.0340 Uiso
O4 O 0.305(4) 0.823(2) 0.2845(13) 0.0450 Uiso
O6 O 0.114(3) 0.6985(15) 0.2484(10) 0.0260 Uiso
Co11 Co 0.1502(8) 0.9859(4) 0.5151(2) 0.0233 Uani
N11 N 0.8930(18) 0.8711(12) 0.6382(10) 0.0170 Uiso
N9 N 0.9239(18) 0.8234(13) 0.8365(11) 0.0270 Uiso
N8 N 0.121(3) 0.0586(13) 0.7618(10) 0.0280 Uiso
Co4 Co 0.9049(7) 0.1067(3) 0.7478(2) 0.0233 Uani
N1_2 N 0.201(2) 0.0568(15) 0.6681(12) 0.0260 Uiso
N3_2 N 0.169(2) 0.0856(14) 0.8602(11) 0.0200 Uiso
N5 N 0.9102(14) 0.9129(12) 0.7419(8) 0.0180 Uiso
C1_2 C 0.305(2) 0.0835(18) 0.7064(13) 0.0230 Uiso
C2_2 C 0.285(2) 0.1017(19) 0.8292(13) 0.0280 Uiso
C3_2 C 0.376(3) 0.128(2) 0.8954(16) 0.0410 Uiso
H1_2 H 0.3646 0.1371 0.9775 0.0500 Uiso
C4_2 C 0.485(3) 0.140(2) 0.8354(14) 0.0440 Uiso
H2_2 H 0.5459 0.1603 0.8771 0.0520 Uiso
C5_2 C 0.503(3) 0.122(2) 0.7137(13) 0.0300 Uiso
C6_2 C 0.415(3) 0.0918(18) 0.6457(14) 0.0220 Uiso
H3_2 H 0.4292 0.0783 0.5644 0.0270 Uiso
C7_2 C 0.619(5) 0.133(2) 0.6564(16) 0.0290 Uiso
C8_2 C 0.9150(15) 0.7156(12) 0.7907(11) 0.0210 Uiso
C9_2 C 0.8955(16) 0.7455(12) 0.6670(10) 0.0120 Uiso
C10_2 C 0.882(2) 0.6567(14) 0.5922(12) 0.0200 Uiso
H4_2 H 0.8693 0.6780 0.5095 0.0240 Uiso
C11_2 C 0.889(2) 0.5342(15) 0.6474(11) 0.0200 Uiso
H5_2 H 0.8809 0.4720 0.6003 0.0240 Uiso
C12_2 C 0.908(2) 0.5026(15) 0.7703(11) 0.0180 Uiso
C13_2 C 0.922(2) 0.5919(14) 0.8447(13) 0.0290 Uiso
H6_2 H 0.9344 0.5701 0.9273 0.0350 Uiso
C14_2 C 0.915(3) 0.3687(18) 0.8236(14) 0.0190 Uiso
H7_2 H 0.8070 0.1268 0.9272 0.0310 Uiso
H8_2 H 0.9442 0.1778 0.5198 0.0240 Uiso
O4_2 O 0.695(4) 0.177(2) 0.7155(13) 0.0450 Uiso
O5 O 0.957(3) 0.3272(15) 0.9317(10) 0.0250 Uiso
O6_2 O 0.886(3) 0.3015(15) 0.7516(10) 0.0260 Uiso
O7_2 O 0.213(4) 0.772(2) 0.6269(15) 0.0720 Uiso
C15_2 C 0.225(5) 0.712(2) 0.727(2) 0.1120 Uiso
H9_2 H 0.2148 0.7590 0.7943 0.1350 Uiso
N7_2 N 0.254(4) 0.579(2) 0.7422(16) 0.0780 Uiso
C16_2 C 0.270(7) 0.494(3) 0.646(2) 0.1220 Uiso
H10_2 H 0.2897 0.4041 0.6797 0.1820 Uiso
H11_2 H 0.3425 0.4958 0.5953 0.1820 Uiso
H12_2 H 0.1883 0.5272 0.5996 0.1820 Uiso
C17_2 C 0.268(7) 0.505(4) 0.861(2) 0.1350 Uiso
H13_2 H 0.2878 0.4124 0.8514 0.2030 Uiso
H14_2 H 0.1850 0.5427 0.9040 0.2030 Uiso
H15_2 H 0.3391 0.5114 0.9048 0.2030 Uiso
loop_
_atom_site_aniso_label
_atom_site_aniso_U_11
_atom_site_aniso_U_22
_atom_site_aniso_U_33
_atom_site_aniso_U_23
_atom_site_aniso_U_13
_atom_site_aniso_U_12
Co5 0.029 0.029 0.0204 -0.0066 0.005 -0.02
Co3 0.015 0.036 0.0255 -0.0085 0.003 -0.016
Co8 0.026 0.035 0.0204 -0.0078 0.006 -0.023
Co2 0.026 0.035 0.0204 -0.0078 0.006 -0.023
Co11 0.015 0.036 0.0255 -0.0085 0.003 -0.016
Co4 0.029 0.029 0.0204 -0.0066 0.005 -0.02
loop_
_geom_bond_atom_site_label_1
_geom_bond_atom_site_label_2
_geom_bond_site_symmetry_1
_geom_bond_site_symmetry_2
Co5 O8 1_555 1_555
Co5 O10 1_555 1_555
O7 Co3 1_555 1_555
C15 O7 1_555 1_555
H9 C15 1_555 1_555
N7 C15 1_555 1_555
C16 N7 1_555 1_555
H10 C16 1_555 1_555
H11 C16 1_555 1_555
H12 C16 1_555 1_555
C17 N7 1_555 1_555
H13 C17 1_555 1_555
H14 C17 1_555 1_555
H15 C17 1_555 1_555
O11 Co3 1_555 1_555
O12 Co3 1_555 1_555
Co2 N3 1_555 1_555
N1 N2 1_555 1_555
N2 N3 1_555 1_555
N3 C2 1_555 1_555
N4 N10 1_555 1_555
N10 N6 1_555 1_555
N6 C9 1_555 1_555
C1 N1 1_555 1_555
C2 C1 1_555 1_555
C3 C2 1_555 1_555
H1 C3 1_555 1_555
C4 C3 1_555 1_555
H2 C4 1_555 1_555
C5 C4 1_555 1_555
C6 C1 1_555 1_555
H3 C6 1_555 1_555
C7 C5 1_555 1_555
C8 N4 1_555 1_555
C9 C8 1_555 1_555
C10 C9 1_555 1_555
H4 C10 1_555 1_555
C11 C10 1_555 1_555
H5 C11 1_555 1_555
C12 C11 1_555 1_555
C13 C8 1_555 1_555
H6 C13 1_555 1_555
C14 C12 1_555 1_555
O8 H7 1_555 1_555
H8 O10 1_555 1_555
O3 C7 1_555 1_555
O4 Co5 1_555 1_555
O13 C14 1_555 1_555
O6 Co5 1_555 1_555
Co11 O10 1_555 1_555
C5 C6 1_555 1_555
C7 O4 1_555 1_555
C12 C13 1_555 1_555
C14 O6 1_555 1_555
O3 Co11 1_555 1_555
Co4 O9 1_555 1_555
Co8 N3_2 1_555 1_555
N1_2 N8 1_555 1_555
N8 N3_2 1_555 1_555
N3_2 C2_2 1_555 1_555
N9 N5 1_555 1_555
N5 N11 1_555 1_555
N11 C9_2 1_555 1_555
C1_2 N1_2 1_555 1_555
C2_2 C1_2 1_555 1_555
C3_2 C2_2 1_555 1_555
H1_2 C3_2 1_555 1_555
C4_2 C3_2 1_555 1_555
H2_2 C4_2 1_555 1_555
C5_2 C4_2 1_555 1_555
C6_2 C1_2 1_555 1_555
H3_2 C6_2 1_555 1_555
C7_2 C5_2 1_555 1_555
C8_2 N9 1_555 1_555
C9_2 C8_2 1_555 1_555
C10_2 C9_2 1_555 1_555
H4_2 C10_2 1_555 1_555
C11_2 C10_2 1_555 1_555
H5_2 C11_2 1_555 1_555
C12_2 C11_2 1_555 1_555
C13_2 C8_2 1_555 1_555
H6_2 C13_2 1_555 1_555
C14_2 C12_2 1_555 1_555
O9 H7_2 1_555 1_555
O11 Co4 1_555 1_555
H8_2 O11 1_555 1_555
O12 C7_2 1_555 1_555
O4_2 Co4 1_555 1_555
O5 C14_2 1_555 1_555
O6_2 Co4 1_555 1_555
C5_2 C6_2 1_555 1_555
C7_2 O4_2 1_555 1_555
C12_2 C13_2 1_555 1_555
C14_2 O6_2 1_555 1_555
O7_2 Co11 1_555 1_555
C15_2 O7_2 1_555 1_555
H9_2 C15_2 1_555 1_555
N7_2 C15_2 1_555 1_555
C16_2 N7_2 1_555 1_555
H10_2 C16_2 1_555 1_555
H11_2 C16_2 1_555 1_555
H12_2 C16_2 1_555 1_555
C17_2 N7_2 1_555 1_555
H13_2 C17_2 1_555 1_555
H14_2 C17_2 1_555 1_555
H15_2 C17_2 1_555 1_555

#END
