
###############################################################################
#
# This file contains modified crystal structure data generated from the
# MOF subset of the Cambridge Structural Database (CSD) v543 
# hosted by the Cambridge Crystallographic Data Centre (CCDC).
#
# This work is licensed under the Creative Commons
# Attribution-NonCommercial-ShareAlike 4.0 International License.
# To view a copy of this license, visit
# http://creativecommons.org/licenses/by-nc-sa/4.0/
# or send a letter to
# Creative Commons, PO Box 1866, Mountain View, CA 94042, USA.
#
# CIF created using the CSD Python API on 29 September 2022
# The structure has been converted into the P1 space group
# The structure has a 3D framework
# The original CSD entry ESUVAR02 is in the triclinic crystal system
# The framework has been calculated to contain at least 10.0% void space
# The void calculation uses a probe of radius 1.32A, grid spacing 0.4
#
###############################################################################

data_ESUVAR02
_chemical_formula_moiety         '(C34 H28 Co4 N14 O12)n'
_symmetry_cell_setting           triclinic
_symmetry_space_group_name_H-M   'P 1'
_symmetry_Int_Tables_number      1
_space_group_name_Hall           'P 1'
loop_
_symmetry_equiv_pos_site_id
_symmetry_equiv_pos_as_xyz
1 x,y,z
_cell_length_a                   10.2541(10)
_cell_length_b                   10.8657(7)
_cell_length_c                   10.9860(7)
_cell_angle_alpha                83.309(5)
_cell_angle_beta                 91.740(6)
_cell_angle_gamma                61.657(8)
_cell_volume                     1064.81
loop_
_atom_site_label
_atom_site_type_symbol
_atom_site_fract_x
_atom_site_fract_y
_atom_site_fract_z
_atom_site_U_iso_or_equiv
_atom_site_thermal_displace_type
Co5 Co 0.0982(7) 0.8831(3) 0.25679(18) 0.0268 Uani
O8 O 0.1112(18) 0.9080(11) 0.0748(8) 0.0210 Uiso
O10 O 0.054(2) 0.8908(11) 0.4308(7) 0.0150 Uiso
O13 O 0.037(3) 0.6696(14) 0.0738(8) 0.0230 Uiso
Co3 Co 0.8340(6) 0.0426(3) 0.46798(17) 0.0157 Uani
O7 O 0.779(3) 0.2471(15) 0.3593(9) 0.0370 Uiso
C15 C 0.777(3) 0.3060(18) 0.2574(13) 0.0310 Uiso
H9 H 0.7890 0.2577 0.1905 0.0380 Uiso
N7 N 0.758(3) 0.4391(15) 0.2378(10) 0.0320 Uiso
C16 C 0.734(4) 0.521(2) 0.3373(13) 0.0330 Uiso
H10 H 0.7226 0.6124 0.3059 0.0490 Uiso
H11 H 0.6454 0.5331 0.3736 0.0490 Uiso
H12 H 0.8177 0.4731 0.3985 0.0490 Uiso
C17 C 0.743(4) 0.516(2) 0.1165(12) 0.0420 Uiso
H13 H 0.7306 0.6081 0.1246 0.0630 Uiso
H14 H 0.8313 0.4653 0.0765 0.0630 Uiso
H15 H 0.6583 0.5260 0.0683 0.0630 Uiso
Co8 Co 0.0465(6) 0.1233(3) 0.00208(16) 0.0240 Uani
N10 N 0.1204(14) 0.0653(10) 0.2642(7) 0.0150 Uiso
O11 O 0.946(2) 0.1092(11) 0.5692(7) 0.0150 Uiso
O12 O 0.626(3) 0.1374(15) 0.5245(9) 0.0270 Uiso
O9 O 0.8888(18) 0.0920(11) 0.9252(8) 0.0210 Uiso
C1 C 0.679(2) 0.9387(17) 0.2835(11) 0.0160 Uiso
C2 C 0.689(2) 0.9171(17) 0.1602(11) 0.0190 Uiso
C3 C 0.603(3) 0.8694(17) 0.1022(12) 0.0190 Uiso
H1 H 0.6134 0.8526 0.0210 0.0220 Uiso
C4 C 0.503(3) 0.8478(18) 0.1691(11) 0.0230 Uiso
H2 H 0.4397 0.8203 0.1325 0.0270 Uiso
C5 C 0.496(3) 0.8676(19) 0.2935(11) 0.0210 Uiso
C6 C 0.581(3) 0.9137(17) 0.3518(12) 0.0170 Uiso
H3 H 0.5727 0.9277 0.4338 0.0200 Uiso
C7 C 0.395(4) 0.833(2) 0.3645(13) 0.0240 Uiso
C8 C 0.1029(14) 0.2696(11) 0.2168(9) 0.0120 Uiso
C9 C 0.1170(15) 0.2348(11) 0.3443(10) 0.0190 Uiso
C10 C 0.118(2) 0.3260(14) 0.4242(11) 0.0160 Uiso
H4 H 0.1269 0.3025 0.5093 0.0190 Uiso
C11 C 0.104(2) 0.4532(14) 0.3690(10) 0.0160 Uiso
H5 H 0.1047 0.5170 0.4186 0.0200 Uiso
C12 C 0.091(2) 0.4887(14) 0.2409(10) 0.0170 Uiso
C13 C 0.0898(19) 0.3974(12) 0.1625(11) 0.0110 Uiso
H6 H 0.0808 0.4209 0.0774 0.0140 Uiso
C14 C 0.077(3) 0.6276(16) 0.1899(12) 0.0170 Uiso
N1 N 0.780(2) 0.9784(13) 0.3158(9) 0.0160 Uiso
N2 N 0.848(2) 0.9847(12) 0.2157(8) 0.0170 Uiso
N3 N 0.796(2) 0.9468(13) 0.1219(9) 0.0180 Uiso
N4 N 0.1057(16) 0.1594(10) 0.1682(8) 0.0090 Uiso
N6 N 0.1277(17) 0.1053(11) 0.3733(8) 0.0140 Uiso
H7 H 0.2144 0.8702 0.0588 0.0260 Uiso
H8 H 0.1198 0.7963 0.4750 0.0180 Uiso
O3 O 0.374(3) 0.8626(15) 0.4755(9) 0.0270 Uiso
O4 O 0.326(3) 0.7750(17) 0.3144(10) 0.0290 Uiso
O6 O 0.086(3) 0.6988(14) 0.2654(8) 0.0200 Uiso
Co11 Co 0.1660(6) 0.9574(3) 0.53202(17) 0.0157 Uani
N11 N 0.8723(17) 0.8947(11) 0.6267(8) 0.0140 Uiso
Co2 Co 0.9535(6) 0.8767(3) 0.99792(16) 0.0240 Uani
N9 N 0.8943(16) 0.8406(10) 0.8318(8) 0.0090 Uiso
N8 N 0.152(2) 0.0153(12) 0.7843(8) 0.0170 Uiso
Co4 Co 0.9018(7) 0.1169(3) 0.74321(18) 0.0268 Uani
C1_2 C 0.321(2) 0.0613(17) 0.7165(11) 0.0160 Uiso
C2_2 C 0.311(2) 0.0829(17) 0.8398(11) 0.0190 Uiso
C3_2 C 0.397(3) 0.1306(17) 0.8978(12) 0.0190 Uiso
H1_2 H 0.3866 0.1474 0.9790 0.0220 Uiso
C4_2 C 0.497(3) 0.1522(18) 0.8309(11) 0.0230 Uiso
H2_2 H 0.5603 0.1797 0.8675 0.0270 Uiso
C5_2 C 0.504(3) 0.1324(19) 0.7065(11) 0.0210 Uiso
C6_2 C 0.419(3) 0.0863(17) 0.6482(12) 0.0170 Uiso
H3_2 H 0.4273 0.0723 0.5662 0.0200 Uiso
C7_2 C 0.605(4) 0.167(2) 0.6355(13) 0.0240 Uiso
C8_2 C 0.8971(14) 0.7304(11) 0.7832(9) 0.0120 Uiso
C9_2 C 0.8830(15) 0.7652(11) 0.6557(10) 0.0190 Uiso
C10_2 C 0.882(2) 0.6740(14) 0.5758(11) 0.0160 Uiso
H4_2 H 0.8731 0.6975 0.4907 0.0190 Uiso
C11_2 C 0.896(2) 0.5468(14) 0.6310(10) 0.0160 Uiso
H5_2 H 0.8953 0.4830 0.5814 0.0200 Uiso
C12_2 C 0.909(2) 0.5113(14) 0.7591(10) 0.0170 Uiso
C13_2 C 0.9102(19) 0.6026(12) 0.8375(11) 0.0110 Uiso
H6_2 H 0.9192 0.5791 0.9226 0.0140 Uiso
C14_2 C 0.923(3) 0.3724(16) 0.8101(12) 0.0170 Uiso
N1_2 N 0.220(2) 0.0216(13) 0.6842(9) 0.0160 Uiso
N3_2 N 0.204(2) 0.0532(13) 0.8781(9) 0.0180 Uiso
N5 N 0.8796(14) 0.9347(10) 0.7358(7) 0.0150 Uiso
H7_2 H 0.7856 0.1298 0.9412 0.0260 Uiso
H8_2 H 0.8802 0.2037 0.5250 0.0180 Uiso
O4_2 O 0.674(3) 0.2250(17) 0.6856(10) 0.0290 Uiso
O5 O 0.963(3) 0.3304(14) 0.9262(8) 0.0230 Uiso
O6_2 O 0.914(3) 0.3012(14) 0.7346(8) 0.0200 Uiso
O7_2 O 0.221(3) 0.7529(15) 0.6407(9) 0.0370 Uiso
C15_2 C 0.223(3) 0.6940(18) 0.7426(13) 0.0310 Uiso
H9_2 H 0.2110 0.7423 0.8095 0.0380 Uiso
N7_2 N 0.242(3) 0.5609(15) 0.7622(10) 0.0320 Uiso
C16_2 C 0.266(4) 0.479(2) 0.6627(13) 0.0330 Uiso
H10_2 H 0.2774 0.3876 0.6941 0.0490 Uiso
H11_2 H 0.3546 0.4669 0.6264 0.0490 Uiso
H12_2 H 0.1823 0.5269 0.6015 0.0490 Uiso
C17_2 C 0.257(4) 0.484(2) 0.8835(12) 0.0420 Uiso
H13_2 H 0.2694 0.3919 0.8754 0.0630 Uiso
H14_2 H 0.1687 0.5347 0.9235 0.0630 Uiso
H15_2 H 0.3417 0.4740 0.9317 0.0630 Uiso
loop_
_atom_site_aniso_label
_atom_site_aniso_U_11
_atom_site_aniso_U_22
_atom_site_aniso_U_33
_atom_site_aniso_U_23
_atom_site_aniso_U_13
_atom_site_aniso_U_12
Co5 0.055 0.024 0.0137 -0.0004 -0.005 -0.03
Co3 0.0152 0.0187 0.0152 -0.0022 -0.0014 -0.01
Co8 0.043 0.029 0.0132 -0.0009 -0.0053 -0.029
Co11 0.0152 0.0187 0.0152 -0.0022 -0.0014 -0.01
Co2 0.043 0.029 0.0132 -0.0009 -0.0053 -0.029
Co4 0.055 0.024 0.0137 -0.0004 -0.005 -0.03
loop_
_geom_bond_atom_site_label_1
_geom_bond_atom_site_label_2
_geom_bond_site_symmetry_1
_geom_bond_site_symmetry_2
Co5 O8 1_555 1_555
Co5 O10 1_555 1_555
O7 Co3 1_555 1_555
C15 O7 1_555 1_555
H9 C15 1_555 1_555
N7 C15 1_555 1_555
C16 N7 1_555 1_555
H10 C16 1_555 1_555
H11 C16 1_555 1_555
H12 C16 1_555 1_555
C17 N7 1_555 1_555
H13 C17 1_555 1_555
H14 C17 1_555 1_555
H15 C17 1_555 1_555
O11 Co3 1_555 1_555
O12 Co3 1_555 1_555
C1 C2 1_555 1_555
C2 C3 1_555 1_555
C3 H1 1_555 1_555
C4 C3 1_555 1_555
H2 C4 1_555 1_555
C5 C4 1_555 1_555
C6 C1 1_555 1_555
H3 C6 1_555 1_555
C7 C5 1_555 1_555
C8 C9 1_555 1_555
C9 C10 1_555 1_555
C10 H4 1_555 1_555
C11 C10 1_555 1_555
H5 C11 1_555 1_555
C12 C11 1_555 1_555
C13 C8 1_555 1_555
H6 C13 1_555 1_555
C14 C12 1_555 1_555
N1 C1 1_555 1_555
N2 N1 1_555 1_555
N3 C2 1_555 1_555
N4 C8 1_555 1_555
N10 N4 1_555 1_555
N6 C9 1_555 1_555
O8 H7 1_555 1_555
H8 O10 1_555 1_555
O3 C7 1_555 1_555
O4 Co5 1_555 1_555
O13 C14 1_555 1_555
O6 Co5 1_555 1_555
Co8 N4 1_555 1_555
Co11 O10 1_555 1_555
C5 C6 1_555 1_555
C7 O4 1_555 1_555
C12 C13 1_555 1_555
C14 O6 1_555 1_555
N2 N3 1_555 1_555
N10 N6 1_555 1_555
O3 Co11 1_555 1_555
N9 Co2 1_555 1_555
Co4 O9 1_555 1_555
C1_2 C2_2 1_555 1_555
C2_2 C3_2 1_555 1_555
C3_2 H1_2 1_555 1_555
C4_2 C3_2 1_555 1_555
H2_2 C4_2 1_555 1_555
C5_2 C4_2 1_555 1_555
C6_2 C1_2 1_555 1_555
H3_2 C6_2 1_555 1_555
C7_2 C5_2 1_555 1_555
C8_2 C9_2 1_555 1_555
C9_2 C10_2 1_555 1_555
C10_2 H4_2 1_555 1_555
C11_2 C10_2 1_555 1_555
H5_2 C11_2 1_555 1_555
C12_2 C11_2 1_555 1_555
C13_2 C8_2 1_555 1_555
H6_2 C13_2 1_555 1_555
C14_2 C12_2 1_555 1_555
N1_2 C1_2 1_555 1_555
N8 N1_2 1_555 1_555
N3_2 C2_2 1_555 1_555
N9 C8_2 1_555 1_555
N5 N9 1_555 1_555
N11 C9_2 1_555 1_555
O9 H7_2 1_555 1_555
O11 Co4 1_555 1_555
H8_2 O11 1_555 1_555
O12 C7_2 1_555 1_555
O4_2 Co4 1_555 1_555
O5 C14_2 1_555 1_555
O6_2 Co4 1_555 1_555
C5_2 C6_2 1_555 1_555
C7_2 O4_2 1_555 1_555
C12_2 C13_2 1_555 1_555
C14_2 O6_2 1_555 1_555
N8 N3_2 1_555 1_555
N5 N11 1_555 1_555
O7_2 Co11 1_555 1_555
C15_2 O7_2 1_555 1_555
H9_2 C15_2 1_555 1_555
N7_2 C15_2 1_555 1_555
C16_2 N7_2 1_555 1_555
H10_2 C16_2 1_555 1_555
H11_2 C16_2 1_555 1_555
H12_2 C16_2 1_555 1_555
C17_2 N7_2 1_555 1_555
H13_2 C17_2 1_555 1_555
H14_2 C17_2 1_555 1_555
H15_2 C17_2 1_555 1_555

#END
