
###############################################################################
#
# This file contains modified crystal structure data generated from the
# MOF subset of the Cambridge Structural Database (CSD) v543 
# hosted by the Cambridge Crystallographic Data Centre (CCDC).
#
# This work is licensed under the Creative Commons
# Attribution-NonCommercial-ShareAlike 4.0 International License.
# To view a copy of this license, visit
# http://creativecommons.org/licenses/by-nc-sa/4.0/
# or send a letter to
# Creative Commons, PO Box 1866, Mountain View, CA 94042, USA.
#
# CIF created using the CSD Python API on 29 September 2022
# The structure has been converted into the P1 space group
# The structure has a 3D framework
# The original CSD entry ETETEF is in the triclinic crystal system
# The framework has been calculated to contain at least 10.0% void space
# The void calculation uses a probe of radius 1.32A, grid spacing 0.4
# H atom positions have been added when not included in the experimental data
# Generated hydrogen atom positions removed from atoms on special positions
#
###############################################################################

data_ETETEF
_chemical_formula_moiety         '(C82 H98 Co6 N2 O43)n'
_symmetry_cell_setting           triclinic
_symmetry_space_group_name_H-M   'P 1'
_symmetry_Int_Tables_number      1
_space_group_name_Hall           'P 1'
loop_
_symmetry_equiv_pos_site_id
_symmetry_equiv_pos_as_xyz
1 x,y,z
_cell_length_a                   11.2564(6)
_cell_length_b                   15.9785(9)
_cell_length_c                   16.5583(10)
_cell_angle_alpha                62.347(6)
_cell_angle_beta                 73.527(5)
_cell_angle_gamma                70.219(5)
_cell_volume                     2453.59
loop_
_atom_site_label
_atom_site_type_symbol
_atom_site_fract_x
_atom_site_fract_y
_atom_site_fract_z
Co10 Co 0.03628(5) 0.28743(4) 0.11113(4)
O23 O 0.0257(2) 0.1532(2) 0.12079(19)
Co20 Co 0.17776(5) 0.14185(5) 0.00773(4)
H8 H 0.0195 0.4024 0.3004
H11 H 0.0685 0.5558 0.1929
C18 C 0.1039(4) 0.2228(3) 0.3788(3)
H12 H 0.1612 0.1586 0.4018
H13 H 0.1560 0.2692 0.3410
C19 C 0.0239(4) 0.2241(3) 0.3192(3)
C37 C 0.0096(5) 0.9884(4) 0.1966(3)
H26 H 0.0993 0.9720 0.1722
O6 O 0.0320(3) 0.2455(2) 0.45600(19)
O10 O 0.0846(3) 0.2209(2) 0.2427(2)
O13 O 0.0144(3) 0.6383(2) 0.01871(19)
C43 C 0.5997(4) 0.7317(4) 0.0682(3)
H27 H 0.5586 0.7990 0.0586
H28 H 0.6550 0.7050 0.1144
C44 C 0.4166(4) 0.6880(4) 0.1745(3)
C45 C 0.4193(4) 0.7394(4) 0.2205(3)
H29 H 0.4871 0.7676 0.2048
C46 C 0.3208(4) 0.7497(4) 0.2907(3)
H30 H 0.3240 0.7850 0.3212
C47 C 0.2182(3) 0.7090(3) 0.3164(3)
C48 C 0.2204(4) 0.6537(4) 0.2724(3)
H31 H 0.1548 0.6228 0.2903
C49 C 0.3184(4) 0.6426(4) 0.2015(3)
H32 H 0.3176 0.6049 0.1726
C50 C 0.1107(3) 0.7265(3) 0.3909(3)
H33 H 0.1178 0.7830 0.3965
C51 C 0.1151(3) 0.6439(3) 0.4854(3)
C52 C 0.0377(4) 0.6605(3) 0.5618(3)
C53 C 0.0333(4) 0.5854(3) 0.6498(3)
C54 C 0.1081(4) 0.4921(3) 0.6629(3)
C55 C 0.1921(3) 0.4716(3) 0.5893(3)
C56 C 0.1904(3) 0.5492(3) 0.5020(3)
H35 H 0.2427 0.5371 0.4520
C57 C 0.0162(4) 0.4309(4) 0.8203(3)
H36 H 0.0227 0.4876 0.8248
C58 C 0.0340(4) 0.3448(4) 0.9104(3)
C61 C 0.2781(3) 0.3700(3) 0.6078(3)
H40 H 0.3246 0.3529 0.6573
C62 C 0.3776(3) 0.3661(3) 0.5242(3)
C63 C 0.3521(4) 0.3529(4) 0.4548(3)
H41 H 0.2717 0.3452 0.4598
C64 C 0.4417(4) 0.3505(4) 0.3775(3)
H42 H 0.4221 0.3421 0.3313
C65 C 0.5602(4) 0.3611(3) 0.3723(3)
C66 C 0.5907(4) 0.3742(4) 0.4386(3)
H43 H 0.6718 0.3806 0.4338
C67 C 0.4976(4) 0.3779(4) 0.5142(3)
H44 H 0.5171 0.3886 0.5591
C68 C 0.6771(5) 0.4434(4) 0.2267(4)
H45 H 0.6010 0.4829 0.1982
H46 H 0.6970 0.4787 0.2535
C69 C 0.7874(4) 0.4263(4) 0.1537(3)
C70 C 0.2049(3) 0.2923(3) 0.6407(2)
C71 C 0.2573(3) 0.1954(3) 0.6939(3)
C72 C 0.1944(4) 0.1245(3) 0.7202(3)
H47 H 0.2300 0.0600 0.7564
C73 C 0.0761(4) 0.1500(3) 0.6922(3)
C74 C 0.0195(3) 0.2456(3) 0.6392(2)
C75 C 0.0873(3) 0.3143(3) 0.6145(2)
H48 H 0.0520 0.3788 0.5782
C76 C 0.4335(4) 0.0833(4) 0.7755(3)
H49 H 0.4198 0.0342 0.7626
H50 H 0.5250 0.0757 0.7663
C77 C 0.3803(5) 0.0661(4) 0.8744(4)
H51 H 0.0395 0.0149 0.8410
O26 O 0.5047(3) 0.6779(3) 0.1008(2)
O28 O 0.0912(3) 0.7753(2) 0.6512(2)
O30 O 0.1085(3) 0.4149(2) 0.74736(18)
O32 O 0.0908(3) 0.2635(3) 0.9091(2)
O33 O 0.6531(3) 0.3544(2) 0.2970(2)
O34 O 0.8445(3) 0.3380(2) 0.1659(2)
O35 O 0.8151(3) 0.4990(3) 0.0898(2)
O36 O 0.3782(2) 0.1762(2) 0.7125(2)
O37 O 0.3128(4) 0.1306(3) 0.8949(3)
O39 O 0.0131(3) 0.0795(2) 0.7120(2)
Co16 Co 0.78013(5) 0.22613(5) 0.28045(4)
Co18 Co 0.21987(5) 0.77387(5) 0.71955(4)
H70 H 0.00527955 0.915305 0.00442472
C42 C 0.6781(4) 0.7280(4) 0.9799(3)
O24 O 0.7740(3) 0.7665(2) 0.9506(2)
O25 O 0.6508(3) 0.6905(3) 0.9396(3)
Co14 Co 0.96372(5) 0.71257(4) 0.88887(4)
Co22 Co 0.82224(5) 0.85815(5) 0.99227(4)
C79 C 0.0265(4) 0.9099(3) 0.8090(3)
O38 O 0.4190(7) 0.9836(5) 0.9317(4)
O40 O 0.1067(3) 0.8928(2) 0.7461(2)
C38 C 0.9735(4) 0.0901(3) 0.1910(3)
O20 O 0.5810(7) 0.0164(5) 0.0683(4)
O22 O 0.8933(3) 0.1072(2) 0.2539(2)
C81 C 0.399(2) 0.0980(12) 0.4938(15)
H75 H 0.419207 0.097866 0.554405
H76 H 0.476378 0.116996 0.436934
H77 H 0.30978 0.151228 0.474466
C1 C 0.3219(4) 0.2720(4) 0.0201(3)
O1 O 0.2260(3) 0.2335(2) 0.0494(2)
O2 O 0.3492(3) 0.3095(3) 0.0604(3)
O3 O 0.0929(3) 0.4077(2) 0.0960(2)
O5 O 0.2956(3) 0.0227(3) 0.0945(3)
H59 H 0.264824 0.0169945 0.158867
C2 C 0.4003(4) 0.2683(4) 0.9318(3)
H1 H 0.4414 0.2010 0.9414
H2 H 0.3450 0.2950 0.8856
C3 C 0.5834(4) 0.3120(4) 0.8255(3)
C4 C 0.5807(4) 0.2606(4) 0.7795(3)
H3 H 0.5129 0.2324 0.7952
C5 C 0.6792(4) 0.2503(4) 0.7093(3)
H4 H 0.6760 0.2150 0.6788
C6 C 0.7818(3) 0.2910(3) 0.6836(3)
C7 C 0.7796(4) 0.3463(4) 0.7276(3)
H5 H 0.8452 0.3772 0.7097
C8 C 0.6816(4) 0.3574(4) 0.7985(3)
H6 H 0.6824 0.3951 0.8274
C9 C 0.8893(3) 0.2735(3) 0.6091(3)
H7 H 0.8822 0.2170 0.6035
C10 C 0.8849(3) 0.3561(3) 0.5146(3)
C11 C 0.9623(4) 0.3395(3) 0.4382(3)
C12 C 0.9667(4) 0.4146(3) 0.3502(3)
C13 C 0.8919(4) 0.5079(3) 0.3371(3)
C14 C 0.8079(3) 0.5284(3) 0.4107(3)
C15 C 0.8096(3) 0.4508(3) 0.4980(3)
H9 H 0.7573 0.4629 0.5480
C16 C 0.9838(4) 0.5691(4) 0.1797(3)
H10 H 0.9773 0.5124 0.1752
C17 C 0.9660(4) 0.6552(4) 0.0896(3)
C20 C 0.7219(3) 0.6300(3) 0.3922(3)
H14 H 0.6754 0.6471 0.3427
C21 C 0.6224(3) 0.6339(3) 0.4758(3)
C22 C 0.6479(4) 0.6471(4) 0.5452(3)
H15 H 0.7283 0.6548 0.5402
C23 C 0.5583(4) 0.6495(4) 0.6225(3)
H16 H 0.5779 0.6579 0.6687
C24 C 0.4398(4) 0.6389(3) 0.6277(3)
C25 C 0.4093(4) 0.6258(4) 0.5614(3)
H17 H 0.3282 0.6194 0.5662
C26 C 0.5024(4) 0.6221(4) 0.4858(3)
H18 H 0.4829 0.6114 0.4409
C27 C 0.3229(5) 0.5566(4) 0.7733(4)
H19 H 0.3990 0.5171 0.8018
H20 H 0.3030 0.5213 0.7465
C28 C 0.2126(4) 0.5737(4) 0.8463(3)
C29 C 0.7951(3) 0.7077(3) 0.3593(2)
C30 C 0.7427(3) 0.8046(3) 0.3061(3)
C31 C 0.8056(4) 0.8755(3) 0.2798(3)
H21 H 0.7700 0.9400 0.2436
C32 C 0.9239(4) 0.8500(3) 0.3078(3)
C33 C 0.9805(3) 0.7544(3) 0.3608(2)
C34 C 0.9127(3) 0.6857(3) 0.3855(2)
H22 H 0.9480 0.6212 0.4218
C35 C 0.5665(4) 0.9167(4) 0.2245(3)
H23 H 0.5802 0.9658 0.2374
H24 H 0.4750 0.9243 0.2337
C36 C 0.6197(5) 0.9339(4) 0.1256(4)
H25 H 0.9605 0.9851 0.1590
O4 O 0.4953(3) 0.3221(3) 0.8992(2)
O7 O 0.6984(5) 0.1358(3) 0.4022(3)
O8 O 0.9088(3) 0.2247(2) 0.3488(2)
O9 O 0.0889(4) 0.0608(3) 0.9836(3)
O11 O 0.6462(4) 0.2323(4) 0.2110(3)
O12 O 0.8915(3) 0.5851(2) 0.25264(18)
O14 O 0.9092(3) 0.7365(3) 0.0909(2)
O15 O 0.3469(3) 0.6456(2) 0.7030(2)
O16 O 0.1555(3) 0.6620(2) 0.8341(2)
O17 O 0.1849(3) 0.5010(3) 0.9102(2)
O18 O 0.6218(2) 0.8238(2) 0.2875(2)
O19 O 0.6872(4) 0.8694(3) 0.1051(3)
O21 O 0.9869(3) 0.9205(2) 0.2880(2)
C39 C 0.6975(16) 0.0575(17) 0.4175(8)
N1 N 0.6128(7) 0.0037(12) 0.4842(11)
C41 C 0.525(2) 0.066(2) 0.5535(17)
H34 H 0.9805 0.5976 0.6996
H37 H 0.9315 0.4442 0.8071
C59 C 0.8961(4) 0.7772(3) 0.6212(3)
H38 H 0.8388 0.8414 0.5982
H39 H 0.8440 0.7308 0.6590
C60 C 0.9761(4) 0.7759(3) 0.6808(3)
C78 C 0.9904(5) 0.0116(4) 0.8034(3)
H52 H 0.9007 0.0280 0.8278
O27 O 0.9680(3) 0.7545(2) 0.54400(19)
O29 O 0.9154(3) 0.7791(2) 0.7573(2)
O31 O 0.9856(3) 0.3617(2) 0.98129(19)
O43 O 0.3016(5) 0.8642(3) 0.5978(3)
O44 O 0.3538(4) 0.7677(4) 0.7890(3)
C80 C 0.3025(16) 0.9425(17) 0.5825(8)
N2 N 0.3872(7) 0.9963(12) 0.5158(11)
C82 C 0.475(2) 0.934(2) 0.4465(17)
O46 O 0.9111(4) 0.9392(3) 0.0164(3)
H55 H 0.0159557 0.105283 0.949991
H56 H 0.151468 0.0267798 0.945974
H61 H 0.472561 0.137846 0.511238
H62 H 0.457972 0.0253442 0.606286
H63 H 0.589589 0.073749 0.58629
H64 H 0.769862 0.0225172 0.375711
H74 H 0.230138 0.977483 0.624289
H78 H 0.410411 0.926251 0.41371
H79 H 0.542028 0.974656 0.393714
H80 H 0.527439 0.862154 0.488762
O45 O 0.7044(3) 0.9773(3) 0.9055(3)
O63 O 0.9743(2) 0.8468(2) 0.87921(19)
C40 C 0.601(2) 0.9020(12) 0.5062(15)
H65 H 0.69022 0.848772 0.525534
H66 H 0.523622 0.883004 0.563066
H67 H 0.580793 0.902134 0.445595
O42 O 0.9071(3) 0.5923(2) 0.9040(2)
H55_2 H 0.984044 0.894717 0.0500087
H56_2 H 0.848532 0.97322 0.0540256
H59_2 H 0.735176 0.983005 0.841133
H70_2 H 0.99472 0.0846948 0.995575
H71 H 0.885506 0.00906798 0.974656
H81 H 0.649746 0.0187833 0.938504
H82 H 0.757334 0.0156684 0.850203
H60 H 0.294346 0.962688 0.0908935
H60_2 H 0.705654 0.037312 0.909106
H71_2 H 0.114494 0.990932 0.0253437
H81_2 H 0.350254 0.981217 0.061496
H82_2 H 0.242666 0.984332 0.149797
loop_
_geom_bond_atom_site_label_1
_geom_bond_atom_site_label_2
_geom_bond_site_symmetry_1
_geom_bond_site_symmetry_2
Co10 O23 1_555 1_555
Co20 O23 1_555 1_555
C18 H12 1_555 1_555
H13 C18 1_555 1_555
C19 C18 1_555 1_555
H26 C37 1_555 1_555
O10 C19 1_555 1_555
C43 H27 1_555 1_555
H28 C43 1_555 1_555
C44 C45 1_555 1_555
C45 H29 1_555 1_555
C46 C45 1_555 1_555
H30 C46 1_555 1_555
C47 C46 1_555 1_555
C48 C47 1_555 1_555
H31 C48 1_555 1_555
C49 C44 1_555 1_555
H32 C49 1_555 1_555
H33 C50 1_555 1_555
C51 C50 1_555 1_555
C52 C51 1_555 1_555
C53 C52 1_555 1_555
C54 C53 1_555 1_555
C55 C54 1_555 1_555
C56 C51 1_555 1_555
H35 C56 1_555 1_555
C57 H36 1_555 1_555
C58 C57 1_555 1_555
C61 C55 1_555 1_555
H40 C61 1_555 1_555
C62 C61 1_555 1_555
C63 C62 1_555 1_555
H41 C63 1_555 1_555
C64 C63 1_555 1_555
H42 C64 1_555 1_555
C65 C64 1_555 1_555
C66 C65 1_555 1_555
H43 C66 1_555 1_555
C67 C62 1_555 1_555
H44 C67 1_555 1_555
C68 H45 1_555 1_555
H46 C68 1_555 1_555
C69 C68 1_555 1_555
C70 C61 1_555 1_555
C71 C70 1_555 1_555
C72 C71 1_555 1_555
H47 C72 1_555 1_555
C73 C72 1_555 1_555
C75 C70 1_555 1_555
H48 C75 1_555 1_555
C76 H49 1_555 1_555
H50 C76 1_555 1_555
C77 C76 1_555 1_555
O26 C43 1_555 1_555
O30 C54 1_555 1_555
O32 C58 1_555 1_555
O33 C65 1_555 1_555
O34 C69 1_555 1_555
O35 C69 1_555 1_555
O36 C71 1_555 1_555
O37 C77 1_555 1_555
O39 C73 1_555 1_555
Co10 O10 1_555 1_555
Co16 O33 1_555 1_555
Co18 O28 1_555 1_555
C18 O6 1_555 1_555
C44 O26 1_555 1_555
C47 C50 1_555 1_555
C48 C49 1_555 1_555
C55 C56 1_555 1_555
C57 O30 1_555 1_555
C66 C67 1_555 1_555
C68 O33 1_555 1_555
C73 C74 1_555 1_555
C74 C75 1_555 1_555
C76 O36 1_555 1_555
O34 Co16 1_555 1_555
O24 C42 1_555 1_555
O25 C42 1_555 1_555
Co14 O24 1_555 1_555
Co22 O24 1_555 1_555
O40 C79 1_555 1_555
Co18 O40 1_555 1_555
O22 C38 1_555 1_555
Co16 O22 1_555 1_555
C81 H75 1_555 1_555
C81 H76 1_555 1_555
C81 H77 1_555 1_555
Co10 O1 1_555 1_555
Co20 O1 1_555 1_555
O1 C1 1_555 1_555
O2 C1 1_555 1_555
O3 Co10 1_555 1_555
O5 Co20 1_555 1_555
O5 H59 1_555 1_555
Co16 O7 1_555 1_555
C2 H1 1_555 1_555
H2 C2 1_555 1_555
C3 C4 1_555 1_555
C4 H3 1_555 1_555
C5 C4 1_555 1_555
H4 C5 1_555 1_555
C6 C5 1_555 1_555
C7 C6 1_555 1_555
H5 C7 1_555 1_555
C8 C3 1_555 1_555
H6 C8 1_555 1_555
C9 C6 1_555 1_555
H7 C9 1_555 1_555
C10 C9 1_555 1_555
C11 C10 1_555 1_555
C12 C11 1_555 1_555
C13 C12 1_555 1_555
C14 C13 1_555 1_555
C15 C10 1_555 1_555
H9 C15 1_555 1_555
C16 H10 1_555 1_555
C17 C16 1_555 1_555
C20 C14 1_555 1_555
H14 C20 1_555 1_555
C21 C20 1_555 1_555
C22 C21 1_555 1_555
H15 C22 1_555 1_555
C23 C22 1_555 1_555
H16 C23 1_555 1_555
C24 C23 1_555 1_555
C25 C24 1_555 1_555
H17 C25 1_555 1_555
C26 C21 1_555 1_555
H18 C26 1_555 1_555
C27 H19 1_555 1_555
H20 C27 1_555 1_555
C28 C27 1_555 1_555
C29 C20 1_555 1_555
C30 C29 1_555 1_555
C31 C30 1_555 1_555
H21 C31 1_555 1_555
C32 C31 1_555 1_555
C33 C32 1_555 1_555
C34 C29 1_555 1_555
H22 C34 1_555 1_555
C35 H23 1_555 1_555
H24 C35 1_555 1_555
C36 C35 1_555 1_555
O4 C2 1_555 1_555
O7 C39 1_555 1_555
O8 Co16 1_555 1_555
O11 Co16 1_555 1_555
O12 C13 1_555 1_555
O14 C17 1_555 1_555
O15 C24 1_555 1_555
O16 C28 1_555 1_555
O17 C28 1_555 1_555
O18 C30 1_555 1_555
O19 C36 1_555 1_555
O21 C32 1_555 1_555
C39 N1 1_555 1_555
C41 N1 1_555 1_555
C59 H38 1_555 1_555
H39 C59 1_555 1_555
C60 C59 1_555 1_555
H52 C78 1_555 1_555
O29 C60 1_555 1_555
Co18 O15 1_555 1_555
O43 Co18 1_555 1_555
O44 Co18 1_555 1_555
C80 O43 1_555 1_555
N2 C80 1_555 1_555
C82 N2 1_555 1_555
Co14 O29 1_555 1_555
C3 O4 1_555 1_555
C7 C8 1_555 1_555
C14 C15 1_555 1_555
C16 O12 1_555 1_555
C25 C26 1_555 1_555
C27 O15 1_555 1_555
C33 C34 1_555 1_555
C35 O18 1_555 1_555
O16 Co18 1_555 1_555
C59 O27 1_555 1_555
O9 H55 1_555 1_555
O9 H56 1_555 1_555
C41 H61 1_555 1_555
C41 H62 1_555 1_555
C41 H63 1_555 1_555
C39 H64 1_555 1_555
C80 H74 1_555 1_555
C82 H78 1_555 1_555
C82 H79 1_555 1_555
C82 H80 1_555 1_555
O45 Co22 1_555 1_555
O63 Co22 1_555 1_555
Co14 O63 1_555 1_555
C40 H65 1_555 1_555
C40 H66 1_555 1_555
C40 H67 1_555 1_555
O42 Co14 1_555 1_555
O46 H55_2 1_555 1_555
O46 H56_2 1_555 1_555
O45 H59_2 1_555 1_555

#END
