
###############################################################################
#
# This file contains modified crystal structure data generated from the
# MOF subset of the Cambridge Structural Database (CSD) v543 
# hosted by the Cambridge Crystallographic Data Centre (CCDC).
#
# This work is licensed under the Creative Commons
# Attribution-NonCommercial-ShareAlike 4.0 International License.
# To view a copy of this license, visit
# http://creativecommons.org/licenses/by-nc-sa/4.0/
# or send a letter to
# Creative Commons, PO Box 1866, Mountain View, CA 94042, USA.
#
# CIF created using the CSD Python API on 29 September 2022
# The structure has been converted into the P1 space group
# The structure has a 3D framework
# The original CSD entry ETOVOB is in the triclinic crystal system
# The framework has been calculated to contain at least 10.0% void space
# The void calculation uses a probe of radius 1.32A, grid spacing 0.4
#
###############################################################################

data_ETOVOB
_chemical_formula_moiety         '(C58 H32 O12)n'
_symmetry_cell_setting           triclinic
_symmetry_space_group_name_H-M   'P 1'
_symmetry_Int_Tables_number      1
_space_group_name_Hall           'P 1'
loop_
_symmetry_equiv_pos_site_id
_symmetry_equiv_pos_as_xyz
1 x,y,z
_cell_length_a                   12.1829(10)
_cell_length_b                   14.9798(13)
_cell_length_c                   15.5382(13)
_cell_angle_alpha                67.680(3)
_cell_angle_beta                 69.005(3)
_cell_angle_gamma                67.206(3)
_cell_volume                     2343.06
loop_
_atom_site_label
_atom_site_type_symbol
_atom_site_fract_x
_atom_site_fract_y
_atom_site_fract_z
Ce6 Ce 0.01632(2) 0.11706(2) 0.87480(2)
O11 O 0.0834(3) 0.7164(2) 0.2371(2)
O13 O 0.1439(3) 0.9586(2) 0.09932(19)
O15 O 0.1665(3) 0.7846(2) 0.0268(2)
O9 O 0.1151(3) 0.9350(2) 0.9251(2)
O1 O 0.8849(3) 0.0650(2) 0.0749(2)
O2 O 0.1967(3) 0.1323(2) 0.72429(19)
O8 O 0.0512(3) 0.0804(2) 0.7204(2)
C1 C 0.1901(3) 0.0937(3) 0.1098(3)
C2 C 0.6753(4) 0.1698(3) 0.1082(3)
C3 C 0.1026(4) 0.5533(3) 0.2304(2)
C4 C 0.8066(4) 0.1483(3) 0.0488(3)
C5 C 0.2217(3) 0.3480(3) 0.2460(2)
C6 C 0.0431(4) 0.6658(3) 0.2125(3)
C7 C 0.1435(4) 0.1152(3) 0.6794(3)
C8 C 0.2588(3) 0.1912(3) 0.3700(3)
C9 C 0.6349(4) 0.1000(3) 0.1912(3)
H1 H 0.6914 0.0373 0.2140
C10 C 0.1855(4) 0.1392(3) 0.5715(3)
C11 C 0.1562(3) 0.0463(3) 0.0574(3)
C12 C 0.2464(3) 0.1857(3) 0.2103(3)
C13 C 0.2108(4) 0.0424(3) 0.2007(3)
C14 C 0.2153(4) 0.5102(3) 0.2508(3)
H3 H 0.2524 0.5499 0.2603
C15 C 0.3351(4) 0.1818(3) 0.4233(3)
H4 H 0.4132 0.1930 0.3910
C16 C 0.4271(4) 0.2136(3) 0.2112(3)
C17 C 0.1086(4) 0.1485(4) 0.5198(3)
H5 H 0.0306 0.1372 0.5525
C18 C 0.2897(3) 0.2334(3) 0.2597(2)
C19 C 0.1045(4) 0.3917(3) 0.2317(3)
H6 H 0.0632 0.3514 0.2281
C20 C 0.0466(4) 0.4931(3) 0.2225(3)
C21 C 0.2007(5) 0.1909(3) 0.0690(3)
H8 H 0.1888 0.2272 0.0064
C22 C 0.4701(4) 0.2830(3) 0.1271(3)
H9 H 0.4146 0.3464 0.1045
C23 C 0.2396(4) 0.0872(3) 0.2495(3)
H10 H 0.2551 0.0500 0.3110
C24 C 0.5117(4) 0.1214(3) 0.2413(3)
H11 H 0.4848 0.0721 0.2971
C25 C 0.5920(4) 0.2607(3) 0.0765(3)
H12 H 0.6187 0.3087 0.0191
C26 C 0.2762(4) 0.4078(3) 0.2577(3)
H13 H 0.3552 0.3788 0.2705
C27 C 0.1442(4) 0.1747(4) 0.4189(3)
H14 H 0.0903 0.1812 0.3839
C28 C 0.2988(4) 0.1561(4) 0.5233(3)
H15 H 0.3521 0.1502 0.5586
C29 C 0.2282(5) 0.2351(3) 0.1183(3)
H16 H 0.2352 0.3017 0.0887
O4 O 0.1427(3) 0.0972(2) 0.97362(19)
O7 O 0.8335(3) 0.2154(2) 0.9732(2)
Ce1 Ce 0.98368(2) 0.88294(2) 0.12520(2)
H2 H 0.2051 0.9755 0.2298
O10 O 0.8033(3) 0.8677(2) 0.27571(19)
O12 O 0.8573(3) 0.9028(2) 0.02638(19)
O14 O 0.9568(3) 0.7074(2) 0.1704(2)
O16 O 0.9488(3) 0.9196(2) 0.2796(2)
H7 H 0.9671 0.5220 0.2106
O6 O 0.0432(3) 0.2926(2) 0.8296(2)
H7_2 H 0.0329 0.4780 0.7894
O5 O 0.8561(3) 0.0414(2) 0.90068(19)
H2_2 H 0.7949 0.0245 0.7702
O3 O 0.9166(3) 0.2836(2) 0.7629(2)
C1_2 C 0.8099(3) 0.9063(3) 0.8902(3)
C2_2 C 0.3247(4) 0.8302(3) 0.8918(3)
C3_2 C 0.8974(4) 0.4467(3) 0.7696(2)
C4_2 C 0.1934(4) 0.8517(3) 0.9512(3)
C5_2 C 0.7783(3) 0.6520(3) 0.7540(2)
C6_2 C 0.9569(4) 0.3342(3) 0.7875(3)
C7_2 C 0.8565(4) 0.8848(3) 0.3206(3)
C8_2 C 0.7412(3) 0.8088(3) 0.6300(3)
C9_2 C 0.3651(4) 0.9000(3) 0.8088(3)
H1_2 H 0.3086 0.9627 0.7860
C10_2 C 0.8145(4) 0.8608(3) 0.4285(3)
C11_2 C 0.8438(3) 0.9537(3) 0.9426(3)
C12_2 C 0.7536(3) 0.8143(3) 0.7897(3)
C13_2 C 0.7892(4) 0.9576(3) 0.7993(3)
C14_2 C 0.7847(4) 0.4898(3) 0.7492(3)
H3_2 H 0.7476 0.4501 0.7397
C15_2 C 0.6649(4) 0.8182(3) 0.5767(3)
H4_2 H 0.5868 0.8070 0.6090
C16_2 C 0.5729(4) 0.7864(3) 0.7888(3)
C17_2 C 0.8914(4) 0.8515(4) 0.4802(3)
H5_2 H 0.9694 0.8628 0.4475
C18_2 C 0.7103(3) 0.7666(3) 0.7403(2)
C19_2 C 0.8955(4) 0.6083(3) 0.7683(3)
H6_2 H 0.9368 0.6486 0.7719
C20_2 C 0.9534(4) 0.5069(3) 0.7775(3)
C21_2 C 0.7993(5) 0.8091(3) 0.9310(3)
H8_2 H 0.8112 0.7728 0.9936
C22_2 C 0.5299(4) 0.7170(3) 0.8729(3)
H9_2 H 0.5854 0.6536 0.8955
C23_2 C 0.7604(4) 0.9128(3) 0.7505(3)
H10_2 H 0.7449 0.9500 0.6890
C24_2 C 0.4883(4) 0.8786(3) 0.7587(3)
H11_2 H 0.5152 0.9279 0.7029
C25_2 C 0.4080(4) 0.7393(3) 0.9235(3)
H12_2 H 0.3813 0.6913 0.9809
C26_2 C 0.7238(4) 0.5922(3) 0.7423(3)
H13_2 H 0.6448 0.6212 0.7295
C27_2 C 0.8558(4) 0.8253(4) 0.5811(3)
H14_2 H 0.9097 0.8188 0.6161
C28_2 C 0.7012(4) 0.8439(4) 0.4767(3)
H15_2 H 0.6479 0.8498 0.4414
C29_2 C 0.7718(5) 0.7649(3) 0.8817(3)
H16_2 H 0.7648 0.6983 0.9113
loop_
_geom_bond_atom_site_label_1
_geom_bond_atom_site_label_2
_geom_bond_site_symmetry_1
_geom_bond_site_symmetry_2
O1 C4 1_555 1_555
O2 C7 1_555 1_555
O11 C6 1_555 1_555
O8 C7 1_555 1_555
C1 C11 1_555 1_555
C2 C4 1_555 1_555
C3 C6 1_555 1_555
C5 C18 1_555 1_555
C7 C10 1_555 1_555
C8 C15 1_555 1_555
C9 C2 1_555 1_555
H1 C9 1_555 1_555
C10 C17 1_555 1_555
C12 C18 1_555 1_555
C13 C1 1_555 1_555
C14 C3 1_555 1_555
H3 C14 1_555 1_555
C15 H4 1_555 1_555
C16 C18 1_555 1_555
C17 H5 1_555 1_555
C18 C8 1_555 1_555
C19 C5 1_555 1_555
H6 C19 1_555 1_555
C20 C3 1_555 1_555
C21 C1 1_555 1_555
H8 C21 1_555 1_555
C22 C16 1_555 1_555
H9 C22 1_555 1_555
C23 C12 1_555 1_555
H10 C23 1_555 1_555
C24 C9 1_555 1_555
H11 C24 1_555 1_555
C25 C2 1_555 1_555
H12 C25 1_555 1_555
C26 C5 1_555 1_555
H13 C26 1_555 1_555
C27 C8 1_555 1_555
H14 C27 1_555 1_555
C28 C10 1_555 1_555
H15 C28 1_555 1_555
C29 C12 1_555 1_555
H16 C29 1_555 1_555
Ce6 O2 1_555 1_555
O8 Ce6 1_555 1_555
C13 C23 1_555 1_555
C14 C26 1_555 1_555
C15 C28 1_555 1_555
C16 C24 1_555 1_555
C17 C27 1_555 1_555
C19 C20 1_555 1_555
C21 C29 1_555 1_555
C22 C25 1_555 1_555
Ce6 O4 1_555 1_555
O10 Ce1 1_555 1_555
O12 Ce1 1_555 1_555
O14 Ce1 1_555 1_555
O16 Ce1 1_555 1_555
O6 Ce6 1_555 1_555
O9 C4_2 1_555 1_555
O10 C7_2 1_555 1_555
O3 C6_2 1_555 1_555
O16 C7_2 1_555 1_555
C1_2 C11_2 1_555 1_555
C2_2 C4_2 1_555 1_555
C3_2 C6_2 1_555 1_555
C5_2 C18_2 1_555 1_555
C7_2 C10_2 1_555 1_555
C8_2 C15_2 1_555 1_555
C9_2 C2_2 1_555 1_555
H1_2 C9_2 1_555 1_555
C10_2 C17_2 1_555 1_555
C12_2 C18_2 1_555 1_555
C13_2 C1_2 1_555 1_555
C14_2 C3_2 1_555 1_555
H3_2 C14_2 1_555 1_555
C15_2 H4_2 1_555 1_555
C16_2 C18_2 1_555 1_555
C17_2 H5_2 1_555 1_555
C18_2 C8_2 1_555 1_555
C19_2 C5_2 1_555 1_555
H6_2 C19_2 1_555 1_555
C20_2 C3_2 1_555 1_555
C21_2 C1_2 1_555 1_555
H8_2 C21_2 1_555 1_555
C22_2 C16_2 1_555 1_555
H9_2 C22_2 1_555 1_555
C23_2 C12_2 1_555 1_555
H10_2 C23_2 1_555 1_555
C24_2 C9_2 1_555 1_555
H11_2 C24_2 1_555 1_555
C25_2 C2_2 1_555 1_555
H12_2 C25_2 1_555 1_555
C26_2 C5_2 1_555 1_555
H13_2 C26_2 1_555 1_555
C27_2 C8_2 1_555 1_555
H14_2 C27_2 1_555 1_555
C28_2 C10_2 1_555 1_555
H15_2 C28_2 1_555 1_555
C29_2 C12_2 1_555 1_555
H16_2 C29_2 1_555 1_555
C13_2 C23_2 1_555 1_555
C14_2 C26_2 1_555 1_555
C15_2 C28_2 1_555 1_555
C16_2 C24_2 1_555 1_555
C17_2 C27_2 1_555 1_555
C19_2 C20_2 1_555 1_555
C21_2 C29_2 1_555 1_555
C22_2 C25_2 1_555 1_555

#END
