
###############################################################################
#
# This file contains modified crystal structure data generated from the
# MOF subset of the Cambridge Structural Database (CSD) v543 
# hosted by the Cambridge Crystallographic Data Centre (CCDC).
#
# This work is licensed under the Creative Commons
# Attribution-NonCommercial-ShareAlike 4.0 International License.
# To view a copy of this license, visit
# http://creativecommons.org/licenses/by-nc-sa/4.0/
# or send a letter to
# Creative Commons, PO Box 1866, Mountain View, CA 94042, USA.
#
# CIF created using the CSD Python API on 29 September 2022
# The structure has been converted into the P1 space group
# The structure has a 3D framework
# The original CSD entry ETOVIV is in the triclinic crystal system
# The framework has been calculated to contain at least 10.0% void space
# The void calculation uses a probe of radius 1.32A, grid spacing 0.4
# H atom positions have been added when not included in the experimental data
# Generated hydrogen atom positions removed from atoms on special positions
#
###############################################################################

data_ETOVIV
_chemical_formula_moiety         '(C96 H82 N12 Ni7 O16)n'
_symmetry_cell_setting           triclinic
_symmetry_space_group_name_H-M   'P 1'
_symmetry_Int_Tables_number      1
_space_group_name_Hall           'P 1'
loop_
_symmetry_equiv_pos_site_id
_symmetry_equiv_pos_as_xyz
1 x,y,z
_cell_length_a                   9.118(4)
_cell_length_b                   16.797(7)
_cell_length_c                   17.432(7)
_cell_angle_alpha                67.183(7)
_cell_angle_beta                 78.098(7)
_cell_angle_gamma                79.138(7)
_cell_volume                     2390.5
loop_
_atom_site_label
_atom_site_type_symbol
_atom_site_fract_x
_atom_site_fract_y
_atom_site_fract_z
Ni1 Ni 0.000000 -0.000000 0.000000
O17 O 0.0556(3) 0.00121(15) 0.10851(14)
Ni8 Ni 0.03056(5) 0.47468(3) 0.71199(3)
Ni1_2 Ni 1.000000 1.000000 0.000000
N14 N 0.7774(3) 0.98340(17) 0.05632(16)
C47 C 0.6197(7) 0.5501(5) 0.9832(4)
H38 H 0.701865 0.580274 0.972726
N7 N 0.2204(4) 0.4657(3) 0.7614(2)
N8 N 0.4011(5) 0.4360(4) 0.8374(3)
C49 C 0.2793(6) 0.4080(4) 0.8262(4)
H40 H 0.243141 0.355280 0.859878
C50 C 0.4967(7) 0.4478(5) 0.9540(4)
C51 C 0.4936(7) 0.3896(5) 0.9043(4)
H41 H 0.452300 0.336392 0.941943
H42 H 0.595552 0.374123 0.880159
C52 C 0.3190(6) 0.5261(5) 0.7310(4)
H43 H 0.310335 0.576364 0.683420
C53 C 0.6120(7) 0.5012(5) 0.9349(4)
H44 H 0.685580 0.504080 0.888471
C55 C 0.4286(7) 0.5050(5) 0.7772(4)
H46 H 0.510260 0.535421 0.766973
O9 O 0.0839(3) 0.36658(13) 0.68089(13)
O11 O 0.0581(3) 0.26045(15) 0.80645(14)
N10 N 0.2748(3) 0.58279(18) 0.47077(18)
N11 N 0.5560(3) 0.93565(19) 0.09422(18)
N12 N 0.1281(4) 0.54793(18) 0.59286(18)
C56 C 0.2074(4) 0.0974(2) 0.61024(19)
C57 C 0.1289(3) 0.2220(2) 0.68614(19)
C58 C 0.1603(4) 0.1351(2) 0.7337(2)
H48 H 0.154080 0.117558 0.791702
C60 C 0.2482(4) 0.0313(2) 0.56996(19)
C61 C 0.0875(3) 0.2876(2) 0.72809(19)
C62 C 0.1907(4) 0.0436(2) 0.4976(2)
H49 H 0.120745 0.091733 0.477027
C63 C 0.4266(4) 0.8055(2) 0.1835(2)
C64 C 0.1824(4) 0.0037(2) 0.3741(2)
C65 C 0.2006(4) 0.0739(2) 0.6962(2)
H50 H 0.223658 0.015755 0.729178
C68 C 0.0944(4) 0.0413(2) 0.2171(2)
C70 C 0.1745(4) 0.1850(2) 0.5627(2)
H52 H 0.177647 0.202288 0.504858
C71 C 0.1370(4) 0.2467(2) 0.5999(2)
H53 H 0.117170 0.305129 0.566825
C72 C 0.6975(4) 0.9269(2) 0.0552(2)
H54 H 0.734414 0.885725 0.030273
C73 C 0.3988(4) 0.6541(2) 0.3261(2)
C74 C 0.2128(4) 0.5191(2) 0.5369(2)
H55 H 0.228469 0.461004 0.542177
C78 C 0.0454(4) 0.0627(2) 0.1335(2)
C80 C 0.3123(4) 0.7558(2) 0.1981(2)
H58 H 0.243800 0.773006 0.160140
C86 C 0.3849(4) 0.5710(2) 0.4002(2)
H64 H 0.482798 0.548225 0.418715
H65 H 0.354300 0.528651 0.383404
C87 C 0.4377(4) 0.8840(3) 0.1032(2)
H66 H 0.341581 0.920681 0.101049
H67 H 0.456039 0.864852 0.055913
C88 C 0.2985(4) 0.6809(2) 0.2684(2)
H68 H 0.220993 0.648004 0.277244
C91 C 0.5249(4) 0.7788(3) 0.2412(2)
H71 H 0.602582 0.811507 0.232511
C92 C 0.0718(6) 0.1041(3) 0.2521(3)
H72 H 0.027184 0.159675 0.223536
C93 C 0.5102(5) 0.7044(3) 0.3114(2)
H73 H 0.577676 0.688050 0.349767
C94 C 0.1152(6) 0.0851(2) 0.3297(3)
H74 H 0.098440 0.128356 0.352443
C95 C 0.1346(6) 0.6360(3) 0.5605(3)
H75 H 0.083935 0.674777 0.586089
C96 C 0.2250(6) 0.6575(3) 0.4863(3)
H76 H 0.249188 0.712992 0.452001
Ni1_3 Ni 0.000000 -0.000000 1.000000
N13 N 0.2226(3) 0.01660(17) 0.94368(16)
Ni1_4 Ni 1.000000 1.000000 1.000000
Ni2 Ni 0.96944(5) 0.52532(3) 0.28801(3)
O1 O 0.9161(3) 0.63342(13) 0.31911(13)
O3 O 0.9444(3) 0.99879(15) 0.89149(14)
O4 O 0.9419(3) 0.73955(15) 0.19355(14)
N2 N 0.7252(3) 0.41721(18) 0.52923(18)
N3 N 0.4440(3) 0.06435(19) 0.90578(18)
N4 N 0.8719(4) 0.45207(18) 0.40714(18)
N5 N 0.7796(4) 0.5343(3) 0.2386(2)
C1 C 0.7926(4) 0.9026(2) 0.38976(19)
C2 C 0.8711(3) 0.7780(2) 0.31386(19)
C3 C 0.8397(4) 0.8649(2) 0.2663(2)
H4 H 0.845920 0.882442 0.208298
C5 C 0.7518(4) 0.9687(2) 0.43004(19)
C6 C 0.9125(3) 0.7124(2) 0.27191(19)
C7 C 0.8093(4) 0.9564(2) 0.5024(2)
H5 H 0.879255 0.908267 0.522973
C8 C 0.5734(4) 0.1945(2) 0.8165(2)
C9 C 0.8176(4) 0.9963(2) 0.6259(2)
C10 C 0.7994(4) 0.9261(2) 0.3038(2)
H6 H 0.776342 0.984245 0.270822
C13 C 0.9056(4) 0.9587(2) 0.7829(2)
C15 C 0.8255(4) 0.8150(2) 0.4373(2)
H8 H 0.822353 0.797712 0.495142
C16 C 0.8630(4) 0.7533(2) 0.4001(2)
H9 H 0.882830 0.694871 0.433175
C17 C 0.3025(4) 0.0731(2) 0.9448(2)
H10 H 0.265586 0.114275 0.969727
C18 C 0.6012(4) 0.3459(2) 0.6739(2)
C19 C 0.7872(4) 0.4809(2) 0.4631(2)
H11 H 0.771531 0.538996 0.457823
C23 C 0.9546(4) 0.9373(2) 0.8665(2)
C25 C 0.6877(4) 0.2442(2) 0.8019(2)
H14 H 0.756200 0.226994 0.839860
C31 C 0.6151(4) 0.4290(2) 0.5998(2)
H20 H 0.517202 0.451775 0.581285
H21 H 0.645700 0.471349 0.616596
C32 C 0.5623(4) 0.1160(3) 0.8968(2)
H22 H 0.658419 0.079319 0.898951
H23 H 0.543961 0.135148 0.944087
C33 C 0.7015(4) 0.3191(2) 0.7316(2)
H24 H 0.779007 0.351996 0.722756
C36 C 0.4751(4) 0.2212(3) 0.7588(2)
H27 H 0.397418 0.188493 0.767489
C37 C 0.9282(6) 0.8959(3) 0.7479(3)
H28 H 0.972816 0.840325 0.776464
C38 C 0.4898(5) 0.2956(3) 0.6886(2)
H29 H 0.422324 0.311950 0.650233
C39 C 0.8848(6) 0.9149(2) 0.6703(3)
H30 H 0.901560 0.871644 0.647557
N6 N 0.5989(5) 0.5640(4) 0.1626(3)
C40 C 0.8654(6) 0.3640(3) 0.4395(3)
H31 H 0.916065 0.325223 0.413911
C41 C 0.7750(6) 0.3425(3) 0.5137(3)
H32 H 0.750812 0.287008 0.547999
C42 C 0.7207(6) 0.5920(4) 0.1738(4)
H33 H 0.756859 0.644720 0.140122
C43 C 0.5033(7) 0.5522(5) 0.0460(4)
C44 C 0.5064(7) 0.6104(5) 0.0957(4)
H34 H 0.547700 0.663608 0.058057
H35 H 0.404448 0.625877 0.119841
C45 C 0.6810(6) 0.4739(5) 0.2690(4)
H36 H 0.689665 0.423636 0.316580
C46 C 0.3880(7) 0.4988(5) 0.0651(4)
H37 H 0.314420 0.495920 0.111529
C48 C 0.5714(7) 0.4950(5) 0.2228(4)
H39 H 0.489740 0.464579 0.233027
C54 C 0.3803(7) 0.4499(5) 0.0168(4)
H45 H 0.298135 0.419726 0.027274
Ni1_5 Ni 0.000000 1.000000 0.000000
O16 O 0.0628(3) 0.86561(14) 0.04590(14)
H77 H 0.041437 0.843681 0.013522
H78 H 0.008042 0.842649 0.092750
Ni1_6 Ni 1.000000 -0.000000 0.000000
C79 C 0.6814(4) 0.0309(2) 0.0987(2)
H57 H 0.706434 0.076345 0.109502
C89 C 0.5447(4) 0.0017(3) 0.1224(2)
H69 H 0.459820 0.022633 0.152099
O12 O 0.9145(3) 0.59134(15) 0.72524(16)
O13 O 0.8136(3) 0.52436(15) 0.66794(17)
C59 C 0.6963(4) 0.6656(2) 0.6605(2)
C66 C 0.2351(4) 0.9857(2) 0.4554(2)
C67 C 0.3870(4) 0.8953(2) 0.5647(2)
C69 C 0.3446(4) 0.9559(2) 0.6033(2)
H51 H 0.381439 0.946031 0.652550
C75 C 0.4911(4) 0.8154(2) 0.6002(2)
C76 C 0.5964(4) 0.6694(2) 0.6096(2)
H56 H 0.597771 0.622105 0.594152
C77 C 0.8132(4) 0.5887(2) 0.6870(2)
C81 C 0.4941(4) 0.7420(2) 0.5813(2)
H59 H 0.425464 0.741957 0.548568
C82 C 0.1574(4) 0.9599(2) 0.2619(2)
H60 H 0.170913 0.916016 0.240080
C83 C 0.3348(4) 0.9120(2) 0.4902(2)
H61 H 0.367161 0.873007 0.462444
C84 C 0.6919(4) 0.7365(2) 0.6826(2)
H62 H 0.757049 0.734802 0.717993
C85 C 0.2011(5) 0.9415(2) 0.3385(2)
H63 H 0.244516 0.885628 0.367026
C90 C 0.5913(4) 0.8103(2) 0.6526(2)
H70 H 0.590857 0.857585 0.667893
O14 O 0.9198(3) 0.40261(16) 0.82928(16)
O15 O 0.9996(5) 0.13985(19) 0.09329(19)
Ni1_7 Ni 0.000000 1.000000 1.000000
O7 O 0.0802(3) 0.59739(16) 0.17072(16)
O8 O 0.0004(5) 0.86015(19) 0.90671(19)
O18 O 0.0855(3) 0.40866(15) 0.27476(16)
O20 O 0.1864(3) 0.47564(15) 0.33206(17)
Ni1_8 Ni 1.000000 -0.000000 1.000000
O2 O 0.9372(3) 0.13439(14) 0.95410(14)
H1 H 0.958563 0.156319 0.986478
H2 H 0.991958 0.157351 0.907250
C4 C 0.3037(4) 0.3344(2) 0.3395(2)
C11 C 0.7649(4) 0.0143(2) 0.5446(2)
C12 C 0.6130(4) 0.1047(2) 0.4353(2)
C14 C 0.6554(4) 0.0441(2) 0.3967(2)
H7 H 0.618561 0.053969 0.347450
C20 C 0.5089(4) 0.1846(2) 0.3998(2)
C21 C 0.4036(4) 0.3306(2) 0.3904(2)
H12 H 0.402229 0.377895 0.405848
C22 C 0.1868(4) 0.4113(2) 0.3130(2)
C26 C 0.5059(4) 0.2580(2) 0.4187(2)
H15 H 0.574536 0.258043 0.451432
C27 C 0.8426(4) 0.0401(2) 0.7381(2)
H16 H 0.829087 0.083984 0.759920
C28 C 0.6652(4) 0.0880(2) 0.5098(2)
H17 H 0.632839 0.126993 0.537556
C29 C 0.3081(4) 0.2635(2) 0.3174(2)
H18 H 0.242951 0.265198 0.282007
C30 C 0.7989(5) 0.0585(2) 0.6615(2)
H19 H 0.755484 0.114372 0.632974
C35 C 0.4087(4) 0.1897(2) 0.3474(2)
H26 H 0.409143 0.142415 0.332107
C24 C 0.3186(4) 0.9691(2) 0.9013(2)
H13 H 0.293566 0.923655 0.890498
C34 C 0.4553(4) 0.9983(3) 0.8776(2)
H25 H 0.540180 0.977367 0.847901
loop_
_geom_bond_atom_site_label_1
_geom_bond_atom_site_label_2
_geom_bond_site_symmetry_1
_geom_bond_site_symmetry_2
O17 Ni1 1_555 1_555
N14 Ni1_2 1_555 1_555
H38 C47 1_555 1_555
N7 C49 1_555 1_555
N8 C49 1_555 1_555
C49 H40 1_555 1_555
C50 C51 1_555 1_555
C51 N8 1_555 1_555
H41 C51 1_555 1_555
H42 C51 1_555 1_555
C52 N7 1_555 1_555
H43 C52 1_555 1_555
C53 C47 1_555 1_555
H44 C53 1_555 1_555
C55 N8 1_555 1_555
H46 C55 1_555 1_555
Ni8 N7 1_555 1_555
O9 Ni8 1_555 1_555
O17 C78 1_555 1_555
O11 C61 1_555 1_555
N14 C72 1_555 1_555
N10 C74 1_555 1_555
N11 C72 1_555 1_555
N12 Ni8 1_555 1_555
C56 C60 1_555 1_555
C57 C58 1_555 1_555
C58 H48 1_555 1_555
C60 C62 1_555 1_555
C61 O9 1_555 1_555
C62 H49 1_555 1_555
C63 C80 1_555 1_555
C65 C56 1_555 1_555
H50 C65 1_555 1_555
C68 C78 1_555 1_555
C70 C56 1_555 1_555
H52 C70 1_555 1_555
C71 C57 1_555 1_555
H53 C71 1_555 1_555
C72 H54 1_555 1_555
C73 C86 1_555 1_555
C74 N12 1_555 1_555
H55 C74 1_555 1_555
C80 H58 1_555 1_555
C86 N10 1_555 1_555
H64 C86 1_555 1_555
H65 C86 1_555 1_555
C87 N11 1_555 1_555
H66 C87 1_555 1_555
H67 C87 1_555 1_555
C88 C73 1_555 1_555
H68 C88 1_555 1_555
C91 C63 1_555 1_555
H71 C91 1_555 1_555
C92 C68 1_555 1_555
H72 C92 1_555 1_555
C93 C73 1_555 1_555
H73 C93 1_555 1_555
C94 C64 1_555 1_555
H74 C94 1_555 1_555
C95 N12 1_555 1_555
H75 C95 1_555 1_555
C96 N10 1_555 1_555
H76 C96 1_555 1_555
C50 C53 1_555 1_555
C52 C55 1_555 1_555
C57 C61 1_555 1_555
C58 C65 1_555 1_555
C63 C87 1_555 1_555
C70 C71 1_555 1_555
C80 C88 1_555 1_555
C91 C93 1_555 1_555
C92 C94 1_555 1_555
C95 C96 1_555 1_555
N13 Ni1_3 1_555 1_555
Ni2 O1 1_555 1_555
O1 C6 1_555 1_555
O3 Ni1_4 1_555 1_555
O4 C6 1_555 1_555
N13 C17 1_555 1_555
N2 C19 1_555 1_555
N3 C17 1_555 1_555
N4 Ni2 1_555 1_555
N5 Ni2 1_555 1_555
C1 C5 1_555 1_555
C2 C3 1_555 1_555
C3 H4 1_555 1_555
C5 C7 1_555 1_555
C6 C2 1_555 1_555
C7 H5 1_555 1_555
C8 C25 1_555 1_555
C10 C1 1_555 1_555
H6 C10 1_555 1_555
C13 C23 1_555 1_555
C15 C1 1_555 1_555
H8 C15 1_555 1_555
C16 C2 1_555 1_555
H9 C16 1_555 1_555
C17 H10 1_555 1_555
C18 C31 1_555 1_555
C19 N4 1_555 1_555
H11 C19 1_555 1_555
C23 O3 1_555 1_555
C25 H14 1_555 1_555
C31 N2 1_555 1_555
H20 C31 1_555 1_555
H21 C31 1_555 1_555
C32 N3 1_555 1_555
H22 C32 1_555 1_555
H23 C32 1_555 1_555
C33 C18 1_555 1_555
H24 C33 1_555 1_555
C36 C8 1_555 1_555
H27 C36 1_555 1_555
C37 C13 1_555 1_555
H28 C37 1_555 1_555
C38 C18 1_555 1_555
H29 C38 1_555 1_555
C39 C9 1_555 1_555
H30 C39 1_555 1_555
N6 C42 1_555 1_555
C40 N4 1_555 1_555
H31 C40 1_555 1_555
C41 N2 1_555 1_555
H32 C41 1_555 1_555
C42 N5 1_555 1_555
H33 C42 1_555 1_555
C43 C44 1_555 1_555
C44 N6 1_555 1_555
H34 C44 1_555 1_555
H35 C44 1_555 1_555
C45 N5 1_555 1_555
H36 C45 1_555 1_555
C46 C43 1_555 1_555
H37 C46 1_555 1_555
C48 N6 1_555 1_555
H39 C48 1_555 1_555
C54 C46 1_555 1_555
H45 C54 1_555 1_555
C3 C10 1_555 1_555
C8 C32 1_555 1_555
C15 C16 1_555 1_555
C25 C33 1_555 1_555
C36 C38 1_555 1_555
C37 C39 1_555 1_555
C40 C41 1_555 1_555
C45 C48 1_555 1_555
O16 Ni1_5 1_555 1_555
H77 O16 1_555 1_555
H78 O16 1_555 1_555
H57 C79 1_555 1_555
H69 C89 1_555 1_555
C79 C89 1_555 1_555
O12 C77 1_555 1_555
O13 C77 1_555 1_555
C59 C76 1_555 1_555
C67 C69 1_555 1_555
H51 C69 1_555 1_555
C75 C67 1_555 1_555
C76 H56 1_555 1_555
C77 C59 1_555 1_555
C81 C75 1_555 1_555
H59 C81 1_555 1_555
H60 C82 1_555 1_555
C83 C66 1_555 1_555
H61 C83 1_555 1_555
C84 C59 1_555 1_555
H62 C84 1_555 1_555
H63 C85 1_555 1_555
C90 C75 1_555 1_555
H70 C90 1_555 1_555
C67 C83 1_555 1_555
C76 C81 1_555 1_555
C82 C85 1_555 1_555
C84 C90 1_555 1_555
Ni1_8 O2 1_555 1_555
O2 H1 1_555 1_555
H2 O2 1_555 1_555
O18 C22 1_555 1_555
O20 C22 1_555 1_555
C4 C21 1_555 1_555
C12 C14 1_555 1_555
H7 C14 1_555 1_555
C20 C12 1_555 1_555
C21 H12 1_555 1_555
C22 C4 1_555 1_555
C26 C20 1_555 1_555
H15 C26 1_555 1_555
H16 C27 1_555 1_555
C28 C11 1_555 1_555
H17 C28 1_555 1_555
C29 C4 1_555 1_555
H18 C29 1_555 1_555
H19 C30 1_555 1_555
C35 C20 1_555 1_555
H26 C35 1_555 1_555
C12 C28 1_555 1_555
C21 C26 1_555 1_555
C27 C30 1_555 1_555
C29 C35 1_555 1_555
H13 C24 1_555 1_555
H25 C34 1_555 1_555
C24 C34 1_555 1_555

#END
