
###############################################################################
#
# This file contains modified crystal structure data generated from the
# MOF subset of the Cambridge Structural Database (CSD) v543 
# hosted by the Cambridge Crystallographic Data Centre (CCDC).
#
# This work is licensed under the Creative Commons
# Attribution-NonCommercial-ShareAlike 4.0 International License.
# To view a copy of this license, visit
# http://creativecommons.org/licenses/by-nc-sa/4.0/
# or send a letter to
# Creative Commons, PO Box 1866, Mountain View, CA 94042, USA.
#
# CIF created using the CSD Python API on 29 September 2022
# The structure has been converted into the P1 space group
# The structure has a 3D framework
# The original CSD entry ETUFOQ is in the monoclinic crystal system
# The framework has been calculated to contain at least 10.0% void space
# The void calculation uses a probe of radius 1.32A, grid spacing 0.4
#
###############################################################################

data_ETUFOQ
_chemical_formula_moiety         '(C32 H48 Ag12 N24 O24 S8)n'
_symmetry_cell_setting           triclinic
_symmetry_space_group_name_H-M   'P 1'
_symmetry_Int_Tables_number      1
_space_group_name_Hall           'P 1'
loop_
_symmetry_equiv_pos_site_id
_symmetry_equiv_pos_as_xyz
1 x,y,z
_cell_length_a                   15.0569(16)
_cell_length_b                   13.6474(19)
_cell_length_c                   8.8474(10)
_cell_angle_alpha                90
_cell_angle_beta                 95.262(9)
_cell_angle_gamma                90
_cell_volume                     1810.37
loop_
_atom_site_label
_atom_site_type_symbol
_atom_site_fract_x
_atom_site_fract_y
_atom_site_fract_z
Ag5 Ag 0.0000 0.0000 0.0000
Ag5_2 Ag 0.0000 0.0000 1.0000
Ag5_3 Ag 0.0000 1.0000 0.0000
Ag5_4 Ag 0.0000 1.0000 1.0000
O6 O 0.25093(13) 0.00758(14) 0.3980(2)
Ag4 Ag -0.0000 0.0000 0.5000
O3 O 0.74907(13) 0.00758(14) 0.1020(2)
Ag5_5 Ag 1.0000 0.0000 0.0000
Ag5_6 Ag 1.0000 0.0000 1.0000
C5 C 0.40114(15) 0.67145(17) 0.1733(3)
H7 H 0.3817 0.6283 0.2462
C6 C 0.42608(17) 0.80279(19) 0.0496(3)
H8 H 0.4278 0.8688 0.0196
C7 C 0.34554(16) 0.82841(18) 0.2857(3)
H9 H 0.3795 0.8887 0.3083
H10 H 0.3445 0.7912 0.3802
C8 C 0.25046(16) 0.85417(19) 0.2245(3)
H11 H 0.2171 0.7938 0.1988
H12 H 0.2517 0.8931 0.1317
N4 N 0.44302(13) 0.64477(15) 0.0571(2)
N6 N 0.38965(13) 0.76983(14) 0.1743(2)
O4 O 0.10790(11) 0.94594(14) 0.2852(2)
O5 O 0.19057(14) 0.85756(16) 0.4911(2)
S2 S 0.19565(4) 0.92167(4) 0.36062(7)
Ag3 Ag 0.5000 0.5000 0.0000
Ag4_2 Ag -0.0000 1.0000 0.5000
Ag1 Ag 0.5000 0.5000 0.5000
Ag2 Ag 0.5000 0.71850(2) 0.7500
C1 C 0.59886(15) 0.67145(17) 0.3267(3)
H1 H 0.6183 0.6283 0.2538
C2 C 0.57392(17) 0.80279(19) 0.4504(3)
H2 H 0.5722 0.8688 0.4804
C3 C 0.65446(16) 0.82841(18) 0.2143(3)
H3 H 0.6205 0.8887 0.1917
H4 H 0.6555 0.7912 0.1198
C4 C 0.74954(16) 0.85417(19) 0.2755(3)
H5 H 0.7829 0.7938 0.3012
H6 H 0.7483 0.8931 0.3683
N1 N 0.55698(13) 0.64477(15) 0.4429(2)
N2 N 0.54139(14) 0.72932(15) 0.5232(2)
N3 N 0.61035(13) 0.76983(14) 0.3257(2)
O1 O 0.89210(11) 0.94594(14) 0.2148(2)
O2 O 0.80943(14) 0.85756(16) 0.0089(2)
S1 S 0.80435(4) 0.92167(4) 0.13938(7)
N5 N 0.45861(14) 0.72932(15) 0.9768(2)
Ag3_2 Ag 0.5000 0.5000 1.0000
Ag5_7 Ag 1.0000 1.0000 0.0000
N7 N 0.44302(13) 0.35523(15) 0.5571(2)
O7 O 0.60790(11) 0.44594(14) 0.2852(2)
O8 O 0.39210(11) 0.55406(14) 0.7148(2)
Ag5_8 Ag 1.0000 1.0000 1.0000
Ag4_3 Ag 1.0000 0.0000 0.5000
Ag4_4 Ag 1.0000 1.0000 0.5000
O7_2 O 0.39210(11) 0.44594(14) 0.2148(2)
N7_2 N 0.55698(13) 0.35523(15) 0.9429(2)
O8_2 O 0.60790(11) 0.55406(14) 0.7852(2)
Ag2_2 Ag 0.0000 0.21850(2) 0.7500
C1_2 C 0.09886(15) 0.17145(17) 0.3267(3)
H1_2 H 0.1183 0.1283 0.2538
C2_2 C 0.07392(17) 0.30279(19) 0.4504(3)
H2_2 H 0.0722 0.3688 0.4804
C3_2 C 0.15446(16) 0.32841(18) 0.2143(3)
H3_2 H 0.1205 0.3887 0.1917
H4_2 H 0.1555 0.2912 0.1198
C4_2 C 0.24954(16) 0.35417(19) 0.2755(3)
H5_2 H 0.2829 0.2938 0.3012
H6_2 H 0.2483 0.3931 0.3683
N1_2 N 0.05698(13) 0.14477(15) 0.4429(2)
N2_2 N 0.04139(14) 0.22932(15) 0.5232(2)
N3_2 N 0.11035(13) 0.26983(14) 0.3257(2)
O2_2 O 0.30943(14) 0.35756(16) 0.0089(2)
O3_2 O 0.24907(13) 0.50758(14) 0.1020(2)
S1_2 S 0.30435(4) 0.42167(4) 0.13938(7)
C5_2 C 0.90114(15) 0.17145(17) 0.1733(3)
H7_2 H 0.8817 0.1283 0.2462
C6_2 C 0.92608(17) 0.30279(19) 0.0496(3)
H8_2 H 0.9278 0.3688 0.0196
C7_2 C 0.84554(16) 0.32841(18) 0.2857(3)
H9_2 H 0.8795 0.3887 0.3083
H10_2 H 0.8445 0.2912 0.3802
C8_2 C 0.75046(16) 0.35417(19) 0.2245(3)
H11_2 H 0.7171 0.2938 0.1988
H12_2 H 0.7517 0.3931 0.1317
N4_2 N 0.94302(13) 0.14477(15) 0.0571(2)
N6_2 N 0.88965(13) 0.26983(14) 0.1743(2)
O5_2 O 0.69057(14) 0.35756(16) 0.4911(2)
O6_2 O 0.75093(13) 0.50758(14) 0.3980(2)
S2_2 S 0.69565(4) 0.42167(4) 0.36062(7)
Ag2_3 Ag 1.0000 0.21850(2) 0.7500
N5_2 N 0.95861(14) 0.22932(15) 0.9768(2)
O8_3 O 0.89210(11) 0.05406(14) 0.7148(2)
N7_3 N 0.94302(13) 0.85523(15) 0.5571(2)
O8_4 O 0.10790(11) 0.05406(14) 0.7852(2)
N7_4 N 0.05698(13) 0.85523(15) 0.9429(2)
Ag2_4 Ag 0.5000 0.28150(2) 0.2500
C1_3 C 0.40114(15) 0.32855(17) 0.6733(3)
H1_3 H 0.3817 0.3717 0.7462
C2_3 C 0.42608(17) 0.19721(19) 0.5496(3)
H2_3 H 0.4278 0.1312 0.5196
C3_3 C 0.34554(16) 0.17159(18) 0.7857(3)
H3_3 H 0.3795 0.1113 0.8083
H4_3 H 0.3445 0.2088 0.8802
C4_3 C 0.25046(16) 0.14583(19) 0.7245(3)
H5_3 H 0.2171 0.2062 0.6988
H6_3 H 0.2517 0.1069 0.6317
N2_3 N 0.45861(14) 0.27068(15) 0.4768(2)
N3_3 N 0.38965(13) 0.23017(14) 0.6743(2)
O2_3 O 0.19057(14) 0.14244(16) 0.9911(2)
S1_3 S 0.19565(4) 0.07833(4) 0.86062(7)
N5_3 N 0.54139(14) 0.27068(15) 0.0232(2)
C5_3 C 0.59886(15) 0.32855(17) 0.8267(3)
H7_3 H 0.6183 0.3717 0.7538
C6_3 C 0.57392(17) 0.19721(19) 0.9504(3)
H8_3 H 0.5722 0.1312 0.9804
C7_3 C 0.65446(16) 0.17159(18) 0.7143(3)
H9_3 H 0.6205 0.1113 0.6917
H10_3 H 0.6555 0.2088 0.6198
C8_3 C 0.74954(16) 0.14583(19) 0.7755(3)
H11_3 H 0.7829 0.2062 0.8012
H12_3 H 0.7483 0.1069 0.8683
N6_3 N 0.61035(13) 0.23017(14) 0.8257(2)
O5_3 O 0.80943(14) 0.14244(16) 0.5089(2)
S2_3 S 0.80435(4) 0.07833(4) 0.63938(7)
O3_3 O 0.25093(13) 0.99242(14) 0.8980(2)
O6_3 O 0.74907(13) 0.99242(14) 0.6020(2)
Ag2_5 Ag -0.0000 0.78150(2) 0.2500
N5_4 N 0.04139(14) 0.77068(15) 0.0232(2)
C5_4 C 0.09886(15) 0.82855(17) 0.8267(3)
H7_4 H 0.1183 0.8717 0.7538
C6_4 C 0.07392(17) 0.69721(19) 0.9504(3)
H8_4 H 0.0722 0.6312 0.9804
C7_4 C 0.15446(16) 0.67159(18) 0.7143(3)
H9_4 H 0.1205 0.6113 0.6917
H10_4 H 0.1555 0.7088 0.6198
C8_4 C 0.24954(16) 0.64583(19) 0.7755(3)
H11_4 H 0.2829 0.7062 0.8012
H12_4 H 0.2483 0.6069 0.8683
N6_4 N 0.11035(13) 0.73017(14) 0.8257(2)
O5_4 O 0.30943(14) 0.64244(16) 0.5089(2)
O6_4 O 0.24907(13) 0.49242(14) 0.6020(2)
S2_4 S 0.30435(4) 0.57833(4) 0.63938(7)
Ag2_6 Ag 1.0000 0.78150(2) 0.2500
C1_4 C 0.90114(15) 0.82855(17) 0.6733(3)
H1_4 H 0.8817 0.8717 0.7462
C2_4 C 0.92608(17) 0.69721(19) 0.5496(3)
H2_4 H 0.9278 0.6312 0.5196
C3_4 C 0.84554(16) 0.67159(18) 0.7857(3)
H3_4 H 0.8795 0.6113 0.8083
H4_4 H 0.8445 0.7088 0.8802
C4_4 C 0.75046(16) 0.64583(19) 0.7245(3)
H5_4 H 0.7171 0.7062 0.6988
H6_4 H 0.7517 0.6069 0.6317
N2_4 N 0.95861(14) 0.77068(15) 0.4768(2)
N3_4 N 0.88965(13) 0.73017(14) 0.6743(2)
O2_4 O 0.69057(14) 0.64244(16) 0.9911(2)
O3_4 O 0.75093(13) 0.49242(14) 0.8980(2)
S1_4 S 0.69565(4) 0.57833(4) 0.86062(7)
loop_
_geom_bond_atom_site_label_1
_geom_bond_atom_site_label_2
_geom_bond_site_symmetry_1
_geom_bond_site_symmetry_2
C5 H7 1_555 1_555
C6 H8 1_555 1_555
C7 H9 1_555 1_555
H10 C7 1_555 1_555
C8 C7 1_555 1_555
H11 C8 1_555 1_555
H12 C8 1_555 1_555
N4 C5 1_555 1_555
N6 C5 1_555 1_555
O4 S2 1_555 1_555
O5 S2 1_555 1_555
S2 C8 1_555 1_555
Ag3 N4 1_555 1_555
Ag4_2 O4 1_555 1_555
C6 N6 1_555 1_555
C7 N6 1_555 1_555
Ag1 N1 1_555 1_555
Ag2 N2 1_555 1_555
C1 H1 1_555 1_555
C2 H2 1_555 1_555
C3 H3 1_555 1_555
H4 C3 1_555 1_555
C4 C3 1_555 1_555
H5 C4 1_555 1_555
H6 C4 1_555 1_555
N1 C1 1_555 1_555
N2 C2 1_555 1_555
N3 C1 1_555 1_555
O1 S1 1_555 1_555
O2 S1 1_555 1_555
S1 C4 1_555 1_555
N5 Ag2 1_555 1_555
Ag5_7 O1 1_555 1_555
N7 Ag1 1_555 1_555
O7 Ag1 1_555 1_555
O8 Ag1 1_555 1_555
C2 N3 1_555 1_555
C3 N3 1_555 1_555
N1 N2 1_555 1_555
O7_2 Ag3 1_555 1_555
N7_2 Ag3_2 1_555 1_555
O8_2 Ag3_2 1_555 1_555
Ag4 N1_2 1_555 1_555
Ag2_2 N2_2 1_555 1_555
C1_2 H1_2 1_555 1_555
C2_2 H2_2 1_555 1_555
C3_2 H3_2 1_555 1_555
H4_2 C3_2 1_555 1_555
C4_2 C3_2 1_555 1_555
H5_2 C4_2 1_555 1_555
H6_2 C4_2 1_555 1_555
N1_2 C1_2 1_555 1_555
N2_2 C2_2 1_555 1_555
N3_2 C1_2 1_555 1_555
O7_2 S1_2 1_555 1_555
O2_2 S1_2 1_555 1_555
O3_2 S1_2 1_555 1_555
S1_2 C4_2 1_555 1_555
C2_2 N3_2 1_555 1_555
C3_2 N3_2 1_555 1_555
N1_2 N2_2 1_555 1_555
C5_2 H7_2 1_555 1_555
C6_2 H8_2 1_555 1_555
C7_2 H9_2 1_555 1_555
H10_2 C7_2 1_555 1_555
C8_2 C7_2 1_555 1_555
H11_2 C8_2 1_555 1_555
H12_2 C8_2 1_555 1_555
N4_2 C5_2 1_555 1_555
N6_2 C5_2 1_555 1_555
O7 S2_2 1_555 1_555
O5_2 S2_2 1_555 1_555
O6_2 S2_2 1_555 1_555
S2_2 C8_2 1_555 1_555
Ag5_5 N4_2 1_555 1_555
C6_2 N6_2 1_555 1_555
C7_2 N6_2 1_555 1_555
N5_2 Ag2_3 1_555 1_555
O8_3 Ag4_3 1_555 1_555
N7_3 Ag4_4 1_555 1_555
O8_4 Ag5_2 1_555 1_555
N7_4 Ag5_4 1_555 1_555
Ag2_4 N2_3 1_555 1_555
C1_3 H1_3 1_555 1_555
C2_3 H2_3 1_555 1_555
C3_3 H3_3 1_555 1_555
H4_3 C3_3 1_555 1_555
C4_3 C3_3 1_555 1_555
H5_3 C4_3 1_555 1_555
H6_3 C4_3 1_555 1_555
N7 C1_3 1_555 1_555
N2_3 C2_3 1_555 1_555
N3_3 C1_3 1_555 1_555
O8_4 S1_3 1_555 1_555
O2_3 S1_3 1_555 1_555
S1_3 C4_3 1_555 1_555
N5_3 Ag2_4 1_555 1_555
C2_3 N3_3 1_555 1_555
C3_3 N3_3 1_555 1_555
N7 N2_3 1_555 1_555
C5_3 H7_3 1_555 1_555
C6_3 H8_3 1_555 1_555
C7_3 H9_3 1_555 1_555
H10_3 C7_3 1_555 1_555
C8_3 C7_3 1_555 1_555
H11_3 C8_3 1_555 1_555
H12_3 C8_3 1_555 1_555
N7_2 C5_3 1_555 1_555
N6_3 C5_3 1_555 1_555
O8_3 S2_3 1_555 1_555
O5_3 S2_3 1_555 1_555
S2_3 C8_3 1_555 1_555
C6_3 N6_3 1_555 1_555
C7_3 N6_3 1_555 1_555
N5_4 Ag2_5 1_555 1_555
C5_4 H7_4 1_555 1_555
C6_4 H8_4 1_555 1_555
C7_4 H9_4 1_555 1_555
H10_4 C7_4 1_555 1_555
C8_4 C7_4 1_555 1_555
H11_4 C8_4 1_555 1_555
H12_4 C8_4 1_555 1_555
N7_4 C5_4 1_555 1_555
N6_4 C5_4 1_555 1_555
O8 S2_4 1_555 1_555
O5_4 S2_4 1_555 1_555
O6_4 S2_4 1_555 1_555
S2_4 C8_4 1_555 1_555
C6_4 N6_4 1_555 1_555
C7_4 N6_4 1_555 1_555
Ag2_6 N2_4 1_555 1_555
C1_4 H1_4 1_555 1_555
C2_4 H2_4 1_555 1_555
C3_4 H3_4 1_555 1_555
H4_4 C3_4 1_555 1_555
C4_4 C3_4 1_555 1_555
H5_4 C4_4 1_555 1_555
H6_4 C4_4 1_555 1_555
N7_3 C1_4 1_555 1_555
N2_4 C2_4 1_555 1_555
N3_4 C1_4 1_555 1_555
O8_2 S1_4 1_555 1_555
O2_4 S1_4 1_555 1_555
O3_4 S1_4 1_555 1_555
S1_4 C4_4 1_555 1_555
C2_4 N3_4 1_555 1_555
C3_4 N3_4 1_555 1_555
N7_3 N2_4 1_555 1_555

#END
