
###############################################################################
#
# This file contains modified crystal structure data generated from the
# MOF subset of the Cambridge Structural Database (CSD) v543 
# hosted by the Cambridge Crystallographic Data Centre (CCDC).
#
# This work is licensed under the Creative Commons
# Attribution-NonCommercial-ShareAlike 4.0 International License.
# To view a copy of this license, visit
# http://creativecommons.org/licenses/by-nc-sa/4.0/
# or send a letter to
# Creative Commons, PO Box 1866, Mountain View, CA 94042, USA.
#
# CIF created using the CSD Python API on 29 September 2022
# The structure has been converted into the P1 space group
# The structure has a 3D framework
# The original CSD entry ETUHUZ is in the triclinic crystal system
# The framework has been calculated to contain at least 10.0% void space
# The void calculation uses a probe of radius 1.32A, grid spacing 0.4
#
###############################################################################

data_ETUHUZ
_chemical_formula_moiety         '(C62 H52 Er2 O17 P4)n'
_symmetry_cell_setting           triclinic
_symmetry_space_group_name_H-M   'P 1'
_symmetry_Int_Tables_number      1
_space_group_name_Hall           'P 1'
loop_
_symmetry_equiv_pos_site_id
_symmetry_equiv_pos_as_xyz
1 x,y,z
_cell_length_a                   9.4986(19)
_cell_length_b                   13.736(3)
_cell_length_c                   14.760(3)
_cell_angle_alpha                63.610(5)
_cell_angle_beta                 75.449(6)
_cell_angle_gamma                88.768(6)
_cell_volume                     1660.7
loop_
_atom_site_label
_atom_site_type_symbol
_atom_site_fract_x
_atom_site_fract_y
_atom_site_fract_z
_atom_site_U_iso_or_equiv
_atom_site_thermal_displace_type
O8 O 0.0768(4) 0.0929(3) 0.5289(3) 0.0183 Uani
Er7 Er 0.29160(2) 0.00145(2) 0.55201(2) 0.0122 Uani
O16 O 0.1350(4) 0.9112(3) 0.5097(3) 0.0203 Uani
C62 C 0.0164(6) 0.9470(4) 0.4944(5) 0.0190 Uani
P1 P 0.48632(16) 0.14586(11) 0.58460(11) 0.0140 Uani
P2 P 0.49383(16) 0.17787(11) 0.29419(11) 0.0132 Uani
O1 O 0.3219(4) 0.1246(3) 0.6166(3) 0.0169 Uani
O2 O 0.5455(4) 0.0681(3) 0.5399(3) 0.0148 Uani
O3 O 0.5445(5) 0.1300(3) 0.6794(3) 0.0248 Uani
H1 H 0.477892 0.087269 0.731465 0.0370 Uiso
O4 O 0.3649(4) 0.1463(3) 0.3898(3) 0.0143 Uani
O5 O 0.6370(4) 0.1374(3) 0.3152(3) 0.0158 Uani
O6 O 0.4542(4) 0.1377(3) 0.2180(3) 0.0215 Uani
H2 H 0.364847 0.120994 0.229085 0.0320 Uiso
O7 O 0.8650(4) 0.0888(3) 0.4903(3) 0.0203 Uani
O9 O 0.8998(5) 0.0772(3) 0.2847(3) 0.0288 Uani
H3 H 0.888382 0.148729 0.261934 0.0440 Uiso
H4 H 0.986592 0.065423 0.252472 0.0440 Uiso
C1 C 0.5674(6) 0.2794(4) 0.4822(4) 0.0146 Uani
H5 H 0.673229 0.279754 0.477269 0.0170 Uiso
H6 H 0.557458 0.280957 0.416358 0.0170 Uiso
C2 C 0.5273(6) 0.3912(4) 0.4752(4) 0.0128 Uani
C3 C 0.3807(6) 0.4219(4) 0.4520(4) 0.0127 Uani
C4 C 0.2776(6) 0.3525(4) 0.4501(4) 0.0139 Uani
H7 H 0.296970 0.279687 0.464438 0.0170 Uiso
C5 C 0.1476(6) 0.3882(5) 0.4277(4) 0.0195 Uani
H8 H 0.078142 0.340094 0.426820 0.0230 Uiso
C6 C 0.1185(6) 0.4949(5) 0.4063(4) 0.0183 Uani
H9 H 0.028823 0.519459 0.391549 0.0230 Uiso
C7 C 0.2196(6) 0.5644(4) 0.4066(4) 0.0145 Uani
H10 H 0.198697 0.636678 0.393304 0.0170 Uiso
C8 C 0.3511(6) 0.5305(4) 0.4260(4) 0.0130 Uani
C9 C 0.4677(6) 0.6086(4) 0.4168(4) 0.0123 Uani
H11 H 0.446764 0.683507 0.370496 0.0150 Uiso
C10 C 0.6129(6) 0.5891(4) 0.3576(4) 0.0135 Uani
C11 C 0.7080(6) 0.6760(5) 0.2752(4) 0.0192 Uani
H12 H 0.684382 0.748788 0.256349 0.0230 Uiso
C12 C 0.8378(6) 0.6564(5) 0.2203(4) 0.0207 Uani
H13 H 0.905379 0.715753 0.165986 0.0250 Uiso
C13 C 0.8681(6) 0.5500(5) 0.2453(4) 0.0174 Uani
H14 H 0.955657 0.536318 0.206671 0.0210 Uiso
C14 C 0.7713(6) 0.4631(4) 0.3265(4) 0.0136 Uani
H15 H 0.793292 0.390336 0.343057 0.0170 Uiso
C15 C 0.6422(6) 0.4817(4) 0.3839(4) 0.0129 Uani
C16 C 0.5289(6) 0.3272(4) 0.2232(4) 0.0133 Uani
H16 H 0.468144 0.355526 0.269478 0.0160 Uiso
H17 H 0.632093 0.345549 0.217359 0.0160 Uiso
C17 C 0.5060(6) 0.3943(4) 0.1141(4) 0.0163 Uani
C18 C 0.3460(6) 0.3820(4) 0.1143(4) 0.0129 Uani
C19 C 0.2307(6) 0.3356(4) 0.2051(4) 0.0182 Uani
H18 H 0.249184 0.308458 0.271978 0.0220 Uiso
C20 C 0.0882(7) 0.3290(5) 0.1980(5) 0.0224 Uani
H19 H 0.009984 0.296494 0.260270 0.0270 Uiso
C21 C 0.0596(7) 0.3694(5) 0.1012(5) 0.0261 Uani
C22 C 0.1749(7) 0.4178(5) 0.0101(5) 0.0218 Uani
C23 C 0.3159(6) 0.4261(4) 0.0151(4) 0.0161 Uani
C29 C 0.7136(6) 0.3010(4) 0.0466(4) 0.0173 Uani
H26 H 0.739423 0.274767 0.111014 0.0200 Uiso
C30 C 0.5979(6) 0.3638(4) 0.0323(4) 0.0146 Uani
C31 C 0.9836(6) 0.0530(4) 0.5056(5) 0.0190 Uani
P3 P 0.51368(16) 0.85414(11) 0.41540(11) 0.0140 Uani
O10 O 0.6781(4) 0.8754(3) 0.3834(3) 0.0169 Uani
O11 O 0.4545(4) 0.9319(3) 0.4601(3) 0.0148 Uani
O12 O 0.4555(5) 0.8700(3) 0.3206(3) 0.0248 Uani
H27 H 0.522108 0.912731 0.268535 0.0370 Uiso
C32 C 0.4326(6) 0.7206(4) 0.5178(4) 0.0146 Uani
H28 H 0.326771 0.720246 0.522731 0.0170 Uiso
H29 H 0.442542 0.719043 0.583642 0.0170 Uiso
C33 C 0.4727(6) 0.6088(4) 0.5248(4) 0.0128 Uani
C34 C 0.6193(6) 0.5781(4) 0.5480(4) 0.0127 Uani
C35 C 0.7224(6) 0.6475(4) 0.5499(4) 0.0139 Uani
H30 H 0.703030 0.720313 0.535562 0.0170 Uiso
C36 C 0.8524(6) 0.6118(5) 0.5723(4) 0.0195 Uani
H31 H 0.921858 0.659906 0.573180 0.0230 Uiso
C37 C 0.8815(6) 0.5051(5) 0.5937(4) 0.0183 Uani
H32 H 0.971177 0.480541 0.608451 0.0230 Uiso
C38 C 0.7804(6) 0.4356(4) 0.5934(4) 0.0145 Uani
H33 H 0.801303 0.363322 0.606696 0.0170 Uiso
C39 C 0.6489(6) 0.4695(4) 0.5740(4) 0.0130 Uani
C40 C 0.5323(6) 0.3914(4) 0.5832(4) 0.0123 Uani
H34 H 0.553236 0.316493 0.629504 0.0150 Uiso
C41 C 0.3871(6) 0.4109(4) 0.6424(4) 0.0135 Uani
C42 C 0.2920(6) 0.3240(5) 0.7248(4) 0.0192 Uani
H35 H 0.315618 0.251212 0.743651 0.0230 Uiso
C43 C 0.1622(6) 0.3436(5) 0.7797(4) 0.0207 Uani
H36 H 0.094621 0.284247 0.834014 0.0250 Uiso
C44 C 0.1319(6) 0.4500(5) 0.7547(4) 0.0174 Uani
H37 H 0.044343 0.463682 0.793329 0.0210 Uiso
C45 C 0.2287(6) 0.5369(4) 0.6735(4) 0.0136 Uani
H38 H 0.206708 0.609664 0.656943 0.0170 Uiso
C46 C 0.3578(6) 0.5183(4) 0.6161(4) 0.0129 Uani
H45 H 0.844724 0.554660 0.056512 0.0260 Uiso
C55 C 0.5551(6) 0.5222(4) 0.0812(4) 0.0180 Uani
H46 H 0.586406 0.522315 0.141012 0.0220 Uiso
C56 C 0.4332(6) 0.5932(4) 0.0653(4) 0.0152 Uani
C57 C 0.3538(7) 0.6175(4) 0.1436(4) 0.0198 Uani
H47 H 0.377945 0.589649 0.208732 0.0240 Uiso
C58 C 0.2395(7) 0.6821(5) 0.1284(5) 0.0250 Uani
H48 H 0.183844 0.697269 0.182928 0.0300 Uiso
C59 C 0.2073(7) 0.7245(5) 0.0313(5) 0.0250 Uani
H49 H 0.131187 0.770706 0.018751 0.0300 Uiso
Er4 Er 0.70840(2) 0.99855(2) 0.44799(2) 0.0122 Uani
H21 H 0.155276 0.445340 0.943488 0.0260 Uiso
C24 C 0.4449(6) 0.4778(4) 0.9188(4) 0.0180 Uani
H22 H 0.413594 0.477685 0.858988 0.0220 Uiso
C25 C 0.5668(6) 0.4068(4) 0.9347(4) 0.0152 Uani
C26 C 0.6462(7) 0.3825(4) 0.8564(4) 0.0198 Uani
H23 H 0.622055 0.410351 0.791268 0.0240 Uiso
C27 C 0.7605(7) 0.3179(5) 0.8716(5) 0.0250 Uani
H24 H 0.816156 0.302731 0.817072 0.0300 Uiso
C28 C 0.7927(7) 0.2755(5) 0.9687(5) 0.0250 Uani
H25 H 0.868813 0.229294 0.981249 0.0300 Uiso
P4 P 0.50617(16) 0.82213(11) 0.70581(11) 0.0132 Uani
O13 O 0.6351(4) 0.8537(3) 0.6102(3) 0.0143 Uani
O14 O 0.3630(4) 0.8626(3) 0.6848(3) 0.0158 Uani
O15 O 0.5458(4) 0.8623(3) 0.7820(3) 0.0215 Uani
H39 H 0.635153 0.879006 0.770915 0.0320 Uiso
C47 C 0.4711(6) 0.6728(4) 0.7768(4) 0.0133 Uani
H40 H 0.531856 0.644474 0.730522 0.0160 Uiso
H41 H 0.367907 0.654451 0.782641 0.0160 Uiso
C48 C 0.4940(6) 0.6057(4) 0.8859(4) 0.0163 Uani
C49 C 0.6540(6) 0.6180(4) 0.8857(4) 0.0129 Uani
C50 C 0.7693(6) 0.6644(4) 0.7949(4) 0.0182 Uani
H42 H 0.750816 0.691542 0.728022 0.0220 Uiso
C51 C 0.9118(7) 0.6710(5) 0.8020(5) 0.0224 Uani
H43 H 0.990016 0.703506 0.739730 0.0270 Uiso
C52 C 0.9404(7) 0.6306(5) 0.8988(5) 0.0261 Uani
C53 C 0.8251(7) 0.5822(5) 0.9899(5) 0.0218 Uani
C54 C 0.6841(6) 0.5739(4) 0.9849(4) 0.0161 Uani
C60 C 0.2864(6) 0.6990(4) 0.9534(4) 0.0173 Uani
H50 H 0.260577 0.725233 0.888986 0.0200 Uiso
C61 C 0.4021(6) 0.6362(4) 0.9677(4) 0.0146 Uani
O17 O 0.9232(4) 0.9071(3) 0.4711(3) 0.0183 Uani
O18 O 0.1002(5) 0.9228(3) 0.7153(3) 0.0288 Uani
H51 H 0.111618 0.851271 0.738066 0.0440 Uiso
H52 H 0.013408 0.934577 0.747528 0.0440 Uiso
H44 H 0.037802 0.635736 0.903320 0.0310 Uiso
H20 H 0.962198 0.364264 0.096680 0.0310 Uiso
loop_
_atom_site_aniso_label
_atom_site_aniso_U_11
_atom_site_aniso_U_22
_atom_site_aniso_U_33
_atom_site_aniso_U_23
_atom_site_aniso_U_13
_atom_site_aniso_U_12
O8 0.015 0.0131 0.028 -0.0074 -0.0118 0.0037
Er7 0.01076 0.00893 0.01366 -0.00201 -0.00373 0.00089
O16 0.013 0.0134 0.037 -0.0106 -0.0126 0.0012
C62 0.018 0.018 0.021 -0.007 -0.009 0.006
P1 0.0174 0.0101 0.0146 -0.005 -0.0057 0.0024
P2 0.0154 0.0102 0.0114 -0.002 -0.0051 0.002
O1 0.023 0.0101 0.0151 -0.0061 -0.0001 -0.0023
O2 0.019 0.009 0.0167 -0.0042 -0.0085 0.0008
O3 0.04 0.015 0.023 -0.0072 -0.017 0.0002
O4 0.017 0.0091 0.0131 -0.0014 -0.0051 0.0033
O5 0.0132 0.0128 0.0149 -0.0019 -0.0017 0.0042
O6 0.022 0.022 0.023 -0.0111 -0.0084 -0.0004
O7 0.013 0.0134 0.037 -0.0106 -0.0126 0.0012
O9 0.014 0.025 0.027 0.0014 0.0034 -0.0011
C1 0.014 0.011 0.018 -0.005 -0.006 0.003
C2 0.012 0.01 0.014 -0.003 -0.004 -0.003
C3 0.014 0.014 0.004 0 0 0
C4 0.012 0.013 0.013 -0.005 0.001 0.002
C5 0.017 0.023 0.018 -0.011 0 -0.006
C6 0.013 0.025 0.016 -0.008 -0.005 0.005
C7 0.02 0.009 0.009 -0.001 -0.001 0.003
C8 0.012 0.015 0.01 -0.005 -0.001 0
C9 0.016 0.01 0.01 -0.003 -0.005 0.002
C10 0.013 0.019 0.011 -0.008 -0.005 0
C11 0.019 0.015 0.017 -0.003 -0.002 0.002
C12 0.018 0.017 0.02 -0.007 0.005 -0.009
C13 0.016 0.023 0.016 -0.011 -0.005 0.003
C14 0.015 0.013 0.016 -0.007 -0.009 0.004
C15 0.016 0.013 0.012 -0.006 -0.007 0
C16 0.019 0.011 0.015 -0.007 -0.011 0.003
C17 0.02 0.011 0.013 -0.002 -0.003 0.004
C18 0.017 0.008 0.015 -0.005 -0.007 0.004
C19 0.026 0.011 0.018 -0.005 -0.01 0.004
C20 0.02 0.018 0.028 -0.009 -0.007 -0.001
C21 0.018 0.021 0.041 -0.011 -0.017 0.005
C22 0.031 0.016 0.021 -0.005 -0.018 0.003
C23 0.016 0.011 0.018 -0.004 -0.004 0
C29 0.013 0.02 0.014 -0.005 0 -0.005
C30 0.019 0.006 0.013 -0.001 -0.001 -0.001
C31 0.018 0.018 0.021 -0.007 -0.009 0.006
P3 0.0174 0.0101 0.0146 -0.005 -0.0057 0.0024
O10 0.023 0.0101 0.0151 -0.0061 -0.0001 -0.0023
O11 0.019 0.009 0.0167 -0.0042 -0.0085 0.0008
O12 0.04 0.015 0.023 -0.0072 -0.017 0.0002
C32 0.014 0.011 0.018 -0.005 -0.006 0.003
C33 0.012 0.01 0.014 -0.003 -0.004 -0.003
C34 0.014 0.014 0.004 0 0 0
C35 0.012 0.013 0.013 -0.005 0.001 0.002
C36 0.017 0.023 0.018 -0.011 0 -0.006
C37 0.013 0.025 0.016 -0.008 -0.005 0.005
C38 0.02 0.009 0.009 -0.001 -0.001 0.003
C39 0.012 0.015 0.01 -0.005 -0.001 0
C40 0.016 0.01 0.01 -0.003 -0.005 0.002
C41 0.013 0.019 0.011 -0.008 -0.005 0
C42 0.019 0.015 0.017 -0.003 -0.002 0.002
C43 0.018 0.017 0.02 -0.007 0.005 -0.009
C44 0.016 0.023 0.016 -0.011 -0.005 0.003
C45 0.015 0.013 0.016 -0.007 -0.009 0.004
C46 0.016 0.013 0.012 -0.006 -0.007 0
C55 0.021 0.014 0.019 -0.005 -0.01 0.001
C56 0.021 0.01 0.014 -0.004 -0.006 -0.003
C57 0.026 0.015 0.015 -0.004 -0.005 -0.004
C58 0.022 0.03 0.02 -0.011 -0.001 0
C59 0.023 0.02 0.027 -0.008 -0.004 0.007
Er4 0.01076 0.00893 0.01366 -0.00201 -0.00373 0.00089
C24 0.021 0.014 0.019 -0.005 -0.01 0.001
C25 0.021 0.01 0.014 -0.004 -0.006 -0.003
C26 0.026 0.015 0.015 -0.004 -0.005 -0.004
C27 0.022 0.03 0.02 -0.011 -0.001 0
C28 0.023 0.02 0.027 -0.008 -0.004 0.007
P4 0.0154 0.0102 0.0114 -0.002 -0.0051 0.002
O13 0.017 0.0091 0.0131 -0.0014 -0.0051 0.0033
O14 0.0132 0.0128 0.0149 -0.0019 -0.0017 0.0042
O15 0.022 0.022 0.023 -0.0111 -0.0084 -0.0004
C47 0.019 0.011 0.015 -0.007 -0.011 0.003
C48 0.02 0.011 0.013 -0.002 -0.003 0.004
C49 0.017 0.008 0.015 -0.005 -0.007 0.004
C50 0.026 0.011 0.018 -0.005 -0.01 0.004
C51 0.02 0.018 0.028 -0.009 -0.007 -0.001
C52 0.018 0.021 0.041 -0.011 -0.017 0.005
C53 0.031 0.016 0.021 -0.005 -0.018 0.003
C54 0.016 0.011 0.018 -0.004 -0.004 0
C60 0.013 0.02 0.014 -0.005 0 -0.005
C61 0.019 0.006 0.013 -0.001 -0.001 -0.001
O17 0.015 0.0131 0.028 -0.0074 -0.0118 0.0037
O18 0.014 0.025 0.027 0.0014 0.0034 -0.0011
loop_
_geom_bond_atom_site_label_1
_geom_bond_atom_site_label_2
_geom_bond_site_symmetry_1
_geom_bond_site_symmetry_2
Er7 O8 1_555 1_555
O16 C62 1_555 1_555
P1 O1 1_555 1_555
P2 O4 1_555 1_555
O1 Er7 1_555 1_555
O2 P1 1_555 1_555
O3 P1 1_555 1_555
H1 O3 1_555 1_555
O4 Er7 1_555 1_555
O6 P2 1_555 1_555
H2 O6 1_555 1_555
H3 O9 1_555 1_555
H4 O9 1_555 1_555
C1 P1 1_555 1_555
H5 C1 1_555 1_555
H6 C1 1_555 1_555
C2 C1 1_555 1_555
C3 C2 1_555 1_555
C4 C3 1_555 1_555
H7 C4 1_555 1_555
C5 C4 1_555 1_555
H8 C5 1_555 1_555
C6 C5 1_555 1_555
H9 C6 1_555 1_555
C7 C6 1_555 1_555
H10 C7 1_555 1_555
C8 C3 1_555 1_555
C9 C8 1_555 1_555
H11 C9 1_555 1_555
C10 C9 1_555 1_555
C11 C10 1_555 1_555
H12 C11 1_555 1_555
C12 C11 1_555 1_555
H13 C12 1_555 1_555
C13 C12 1_555 1_555
H14 C13 1_555 1_555
C14 C13 1_555 1_555
H15 C14 1_555 1_555
C15 C2 1_555 1_555
C16 P2 1_555 1_555
H16 C16 1_555 1_555
H17 C16 1_555 1_555
C17 C16 1_555 1_555
C18 C17 1_555 1_555
C19 C18 1_555 1_555
H18 C19 1_555 1_555
C20 C19 1_555 1_555
H19 C20 1_555 1_555
C21 C20 1_555 1_555
C22 C21 1_555 1_555
C23 C18 1_555 1_555
H26 C29 1_555 1_555
C30 C17 1_555 1_555
C31 O7 1_555 1_555
P3 O10 1_555 1_555
O10 Er4 1_555 1_555
O11 P3 1_555 1_555
O12 P3 1_555 1_555
H27 O12 1_555 1_555
C32 P3 1_555 1_555
H28 C32 1_555 1_555
H29 C32 1_555 1_555
C33 C9 1_555 1_555
C34 C33 1_555 1_555
C35 C34 1_555 1_555
H30 C35 1_555 1_555
C36 C35 1_555 1_555
H31 C36 1_555 1_555
C37 C36 1_555 1_555
H32 C37 1_555 1_555
C38 C37 1_555 1_555
H33 C38 1_555 1_555
C39 C34 1_555 1_555
C40 C2 1_555 1_555
H34 C40 1_555 1_555
C41 C40 1_555 1_555
C42 C41 1_555 1_555
H35 C42 1_555 1_555
C43 C42 1_555 1_555
H36 C43 1_555 1_555
C44 C43 1_555 1_555
H37 C44 1_555 1_555
C45 C44 1_555 1_555
H38 C45 1_555 1_555
C46 C33 1_555 1_555
C55 C17 1_555 1_555
H46 C55 1_555 1_555
C56 C55 1_555 1_555
C57 C56 1_555 1_555
H47 C57 1_555 1_555
C58 C57 1_555 1_555
H48 C58 1_555 1_555
C59 C58 1_555 1_555
H49 C59 1_555 1_555
Er7 O2 1_555 1_555
Er4 O11 1_555 1_555
P2 O5 1_555 1_555
C7 C8 1_555 1_555
C10 C15 1_555 1_555
C14 C15 1_555 1_555
C22 C23 1_555 1_555
C29 C30 1_555 1_555
C32 C33 1_555 1_555
C38 C39 1_555 1_555
C39 C40 1_555 1_555
C41 C46 1_555 1_555
C45 C46 1_555 1_555
H22 C24 1_555 1_555
C25 C24 1_555 1_555
C26 C25 1_555 1_555
H23 C26 1_555 1_555
C27 C26 1_555 1_555
H24 C27 1_555 1_555
C28 C27 1_555 1_555
H25 C28 1_555 1_555
P4 O13 1_555 1_555
O13 Er4 1_555 1_555
O14 P4 1_555 1_555
O15 P4 1_555 1_555
H39 O15 1_555 1_555
C47 P4 1_555 1_555
H40 C47 1_555 1_555
H41 C47 1_555 1_555
C48 C24 1_555 1_555
C49 C48 1_555 1_555
C50 C49 1_555 1_555
H42 C50 1_555 1_555
C51 C50 1_555 1_555
H43 C51 1_555 1_555
C52 C51 1_555 1_555
C53 C52 1_555 1_555
C54 C49 1_555 1_555
H50 C60 1_555 1_555
C61 C48 1_555 1_555
C47 C48 1_555 1_555
C53 C54 1_555 1_555
C60 C61 1_555 1_555
O17 Er4 1_555 1_555
H51 O18 1_555 1_555
H52 O18 1_555 1_555

#END
