
###############################################################################
#
# This file contains modified crystal structure data generated from the
# MOF subset of the Cambridge Structural Database (CSD) v543 
# hosted by the Cambridge Crystallographic Data Centre (CCDC).
#
# This work is licensed under the Creative Commons
# Attribution-NonCommercial-ShareAlike 4.0 International License.
# To view a copy of this license, visit
# http://creativecommons.org/licenses/by-nc-sa/4.0/
# or send a letter to
# Creative Commons, PO Box 1866, Mountain View, CA 94042, USA.
#
# CIF created using the CSD Python API on 29 September 2022
# The structure has been converted into the P1 space group
# The structure has a 3D framework
# The original CSD entry ETUHOT is in the triclinic crystal system
# The framework has been calculated to contain at least 10.0% void space
# The void calculation uses a probe of radius 1.32A, grid spacing 0.4
#
###############################################################################

data_ETUHOT
_chemical_formula_moiety         '(C62 H52 Dy2 O17 P4)n'
_symmetry_cell_setting           triclinic
_symmetry_space_group_name_H-M   'P 1'
_symmetry_Int_Tables_number      1
_space_group_name_Hall           'P 1'
loop_
_symmetry_equiv_pos_site_id
_symmetry_equiv_pos_as_xyz
1 x,y,z
_cell_length_a                   9.5729(6)
_cell_length_b                   13.8260(10)
_cell_length_c                   14.8032(10)
_cell_angle_alpha                63.398(2)
_cell_angle_beta                 75.488(2)
_cell_angle_gamma                88.549(2)
_cell_volume                     1687.41
loop_
_atom_site_label
_atom_site_type_symbol
_atom_site_fract_x
_atom_site_fract_y
_atom_site_fract_z
_atom_site_U_iso_or_equiv
_atom_site_thermal_displace_type
O8 O 0.0784(3) 0.0937(2) 0.5265(2) 0.0237 Uani
Dy7 Dy 0.29245(2) 0.00171(2) 0.55161(2) 0.0158 Uani
O16 O 0.1350(3) 0.9114(3) 0.5084(3) 0.0284 Uani
C62 C 0.0158(4) 0.9473(3) 0.4956(3) 0.0215 Uani
P1 P 0.48583(12) 0.14670(9) 0.58522(9) 0.0181 Uani
P2 P 0.49455(11) 0.17893(9) 0.29267(8) 0.0174 Uani
O1 O 0.3226(3) 0.1261(2) 0.6159(2) 0.0210 Uani
O2 O 0.5462(3) 0.0694(2) 0.5410(2) 0.0182 Uani
O3 O 0.5410(4) 0.1304(3) 0.6807(2) 0.0305 Uani
H1 H 0.506417 0.069317 0.731223 0.0460 Uiso
O4 O 0.3667(3) 0.1466(2) 0.3883(2) 0.0185 Uani
O5 O 0.6360(3) 0.1366(2) 0.3151(2) 0.0211 Uani
O6 O 0.4554(3) 0.1400(3) 0.2164(2) 0.0251 Uani
H2 H 0.438861 0.071970 0.246715 0.0380 Uiso
O7 O 0.8650(3) 0.0886(3) 0.4916(3) 0.0284 Uani
O9 O 0.8995(3) 0.0774(3) 0.2838(3) 0.0394 Uani
H3 H 0.878281 0.129374 0.226395 0.0590 Uiso
H4 H 0.991467 0.060771 0.270497 0.0590 Uiso
C1 C 0.5668(4) 0.2798(3) 0.4823(3) 0.0159 Uani
H5 H 0.671862 0.279670 0.477255 0.0190 Uiso
H6 H 0.556360 0.281639 0.416648 0.0190 Uiso
C2 C 0.5270(4) 0.3914(3) 0.4756(3) 0.0148 Uani
C3 C 0.3813(4) 0.4230(3) 0.4518(3) 0.0150 Uani
C4 C 0.2795(4) 0.3538(4) 0.4502(3) 0.0199 Uani
H7 H 0.298721 0.281198 0.464929 0.0240 Uiso
C5 C 0.1501(5) 0.3904(4) 0.4271(3) 0.0236 Uani
H8 H 0.081536 0.342762 0.425975 0.0280 Uiso
C6 C 0.1206(4) 0.4950(4) 0.4059(3) 0.0208 Uani
H9 H 0.031448 0.519255 0.391116 0.0250 Uiso
C7 C 0.2210(4) 0.5647(4) 0.4061(3) 0.0193 Uani
H10 H 0.200077 0.636844 0.392007 0.0230 Uiso
C8 C 0.3524(4) 0.5305(3) 0.4267(3) 0.0142 Uani
C9 C 0.4691(4) 0.6082(3) 0.4165(3) 0.0160 Uani
H11 H 0.448297 0.682784 0.369828 0.0190 Uiso
C10 C 0.6106(4) 0.5879(3) 0.3579(3) 0.0164 Uani
C11 C 0.7074(5) 0.6736(4) 0.2759(3) 0.0251 Uani
H12 H 0.685521 0.746366 0.257445 0.0300 Uiso
C12 C 0.8354(5) 0.6536(4) 0.2211(3) 0.0291 Uani
H13 H 0.901352 0.712489 0.165793 0.0340 Uiso
C13 C 0.8667(5) 0.5480(4) 0.2470(3) 0.0231 Uani
H14 H 0.954676 0.533974 0.209946 0.0280 Uiso
C14 C 0.7690(4) 0.4619(4) 0.3276(3) 0.0189 Uani
H15 H 0.789876 0.389286 0.344085 0.0220 Uiso
C15 C 0.6420(4) 0.4807(4) 0.3840(3) 0.0169 Uani
C16 C 0.5295(4) 0.3275(3) 0.2241(3) 0.0179 Uani
H16 H 0.468313 0.355143 0.270371 0.0220 Uiso
H17 H 0.631550 0.345478 0.218918 0.0220 Uiso
C17 C 0.5067(4) 0.3948(3) 0.1135(3) 0.0176 Uani
C18 C 0.3479(4) 0.3827(3) 0.1128(3) 0.0159 Uani
C19 C 0.2340(4) 0.3360(4) 0.2029(3) 0.0214 Uani
H18 H 0.252178 0.308057 0.269825 0.0260 Uiso
C20 C 0.0925(5) 0.3299(4) 0.1951(4) 0.0272 Uani
H19 H 0.014876 0.297066 0.257135 0.0320 Uiso
C21 C 0.0644(5) 0.3705(4) 0.0997(4) 0.0301 Uani
C22 C 0.1788(5) 0.4184(4) 0.0080(4) 0.0245 Uani
C23 C 0.3192(4) 0.4262(3) 0.0154(3) 0.0180 Uani
C29 C 0.7155(4) 0.3023(4) 0.0460(3) 0.0209 Uani
H26 H 0.739500 0.274515 0.110995 0.0250 Uiso
C30 C 0.5993(4) 0.3654(3) 0.0312(3) 0.0154 Uani
C31 C 0.9842(4) 0.0527(3) 0.5044(3) 0.0215 Uani
P3 P 0.51417(12) 0.85330(9) 0.41478(9) 0.0181 Uani
O10 O 0.6774(3) 0.8739(2) 0.3841(2) 0.0210 Uani
O11 O 0.4538(3) 0.9306(2) 0.4590(2) 0.0182 Uani
O12 O 0.4590(4) 0.8696(3) 0.3193(2) 0.0305 Uani
H27 H 0.493583 0.930683 0.268777 0.0460 Uiso
C32 C 0.4332(4) 0.7202(3) 0.5177(3) 0.0159 Uani
H28 H 0.328138 0.720330 0.522745 0.0190 Uiso
H29 H 0.443640 0.718361 0.583352 0.0190 Uiso
C33 C 0.4730(4) 0.6086(3) 0.5244(3) 0.0148 Uani
C34 C 0.6187(4) 0.5770(3) 0.5482(3) 0.0150 Uani
C35 C 0.7205(4) 0.6462(4) 0.5498(3) 0.0199 Uani
H30 H 0.701279 0.718802 0.535071 0.0240 Uiso
C36 C 0.8499(5) 0.6096(4) 0.5729(3) 0.0236 Uani
H31 H 0.918464 0.657238 0.574025 0.0280 Uiso
C37 C 0.8794(4) 0.5050(4) 0.5941(3) 0.0208 Uani
H32 H 0.968552 0.480745 0.608884 0.0250 Uiso
C38 C 0.7790(4) 0.4353(4) 0.5939(3) 0.0193 Uani
H33 H 0.799923 0.363156 0.607993 0.0230 Uiso
C39 C 0.6476(4) 0.4695(3) 0.5733(3) 0.0142 Uani
C40 C 0.5309(4) 0.3918(3) 0.5835(3) 0.0160 Uani
H34 H 0.551703 0.317216 0.630172 0.0190 Uiso
C41 C 0.3894(4) 0.4121(3) 0.6421(3) 0.0164 Uani
C42 C 0.2926(5) 0.3264(4) 0.7241(3) 0.0251 Uani
H35 H 0.314479 0.253634 0.742555 0.0300 Uiso
C43 C 0.1646(5) 0.3464(4) 0.7789(3) 0.0291 Uani
H36 H 0.098648 0.287511 0.834207 0.0340 Uiso
C44 C 0.1333(5) 0.4520(4) 0.7530(3) 0.0231 Uani
H37 H 0.045324 0.466026 0.790054 0.0280 Uiso
C45 C 0.2310(4) 0.5381(4) 0.6724(3) 0.0189 Uani
H38 H 0.210124 0.610714 0.655915 0.0220 Uiso
C46 C 0.3580(4) 0.5193(4) 0.6160(3) 0.0169 Uani
H45 H 0.839886 0.554702 0.058792 0.0290 Uiso
C55 C 0.5535(4) 0.5212(4) 0.0819(3) 0.0180 Uani
H46 H 0.584788 0.521119 0.141484 0.0220 Uiso
C56 C 0.4310(5) 0.5929(3) 0.0652(3) 0.0186 Uani
C57 C 0.3508(5) 0.6153(4) 0.1442(3) 0.0248 Uani
H47 H 0.374619 0.587376 0.209330 0.0290 Uiso
C58 C 0.2361(5) 0.6782(4) 0.1286(4) 0.0322 Uani
H48 H 0.179831 0.692466 0.183289 0.0380 Uiso
C59 C 0.2040(5) 0.7203(4) 0.0326(4) 0.0286 Uani
H49 H 0.126563 0.764742 0.020818 0.0340 Uiso
Dy4 Dy 0.70755(2) 0.99829(2) 0.44839(2) 0.0158 Uani
H21 H 0.160114 0.445298 0.941208 0.0290 Uiso
C24 C 0.4465(4) 0.4788(4) 0.9181(3) 0.0180 Uani
H22 H 0.415212 0.478881 0.858516 0.0220 Uiso
C25 C 0.5690(5) 0.4071(3) 0.9348(3) 0.0186 Uani
C26 C 0.6492(5) 0.3847(4) 0.8558(3) 0.0248 Uani
H23 H 0.625381 0.412624 0.790670 0.0290 Uiso
C27 C 0.7639(5) 0.3218(4) 0.8714(4) 0.0322 Uani
H24 H 0.820169 0.307534 0.816711 0.0380 Uiso
C28 C 0.7960(5) 0.2797(4) 0.9674(4) 0.0286 Uani
H25 H 0.873437 0.235258 0.979182 0.0340 Uiso
P4 P 0.50545(11) 0.82107(9) 0.70733(8) 0.0174 Uani
O13 O 0.6333(3) 0.8534(2) 0.6117(2) 0.0185 Uani
O14 O 0.3640(3) 0.8634(2) 0.6849(2) 0.0211 Uani
O15 O 0.5446(3) 0.8600(3) 0.7836(2) 0.0251 Uani
H39 H 0.561139 0.928030 0.753285 0.0380 Uiso
C47 C 0.4705(4) 0.6725(3) 0.7759(3) 0.0179 Uani
H40 H 0.531687 0.644857 0.729629 0.0220 Uiso
H41 H 0.368450 0.654522 0.781082 0.0220 Uiso
C48 C 0.4933(4) 0.6052(3) 0.8865(3) 0.0176 Uani
C49 C 0.6521(4) 0.6173(3) 0.8872(3) 0.0159 Uani
C50 C 0.7660(4) 0.6640(4) 0.7971(3) 0.0214 Uani
H42 H 0.747822 0.691943 0.730175 0.0260 Uiso
C51 C 0.9075(5) 0.6701(4) 0.8049(4) 0.0272 Uani
H43 H 0.985124 0.702934 0.742865 0.0320 Uiso
C52 C 0.9356(5) 0.6295(4) 0.9003(4) 0.0301 Uani
C53 C 0.8212(5) 0.5816(4) 0.9920(4) 0.0245 Uani
C54 C 0.6808(4) 0.5738(3) 0.9846(3) 0.0180 Uani
C60 C 0.2845(4) 0.6977(4) 0.9540(3) 0.0209 Uani
H50 H 0.260500 0.725485 0.889005 0.0250 Uiso
C61 C 0.4007(4) 0.6346(3) 0.9688(3) 0.0154 Uani
O17 O 0.9216(3) 0.9063(2) 0.4735(2) 0.0237 Uani
O18 O 0.1005(3) 0.9226(3) 0.7162(3) 0.0394 Uani
H51 H 0.121719 0.870626 0.773605 0.0590 Uiso
H52 H 0.008533 0.939229 0.729503 0.0590 Uiso
H44 H 0.032387 0.633519 0.904675 0.0360 Uiso
H20 H 0.967613 0.366481 0.095325 0.0360 Uiso
loop_
_atom_site_aniso_label
_atom_site_aniso_U_11
_atom_site_aniso_U_22
_atom_site_aniso_U_33
_atom_site_aniso_U_23
_atom_site_aniso_U_13
_atom_site_aniso_U_12
O8 0.0119 0.0241 0.0359 -0.0119 -0.0112 0.0043
Dy7 0.0102 0.01576 0.01645 -0.00298 -0.00382 0.00202
O16 0.0184 0.0258 0.046 -0.0171 -0.0158 0.0061
C62 0.014 0.018 0.025 -0.0029 -0.0061 0.0006
P1 0.0185 0.0154 0.02 -0.0072 -0.0061 0.0023
P2 0.016 0.0157 0.0146 -0.0018 -0.0045 0.0033
O1 0.0145 0.0204 0.0226 -0.0074 -0.0004 0.0008
O2 0.0167 0.0149 0.0222 -0.0073 -0.0063 0.003
O3 0.049 0.019 0.0235 -0.0053 -0.0179 0.0001
O4 0.0137 0.017 0.0146 0.0003 -0.0015 0.003
O5 0.0153 0.0209 0.0158 -0.0002 -0.0011 0.0022
O6 0.0325 0.0183 0.0225 -0.0069 -0.0084 -0.0002
O7 0.0184 0.0258 0.046 -0.0171 -0.0158 0.0061
O9 0.0193 0.042 0.033 -0.0011 0.0018 0.0035
C1 0.017 0.018 0.013 -0.0073 -0.0043 0.0021
C2 0.014 0.014 0.018 -0.0092 -0.0034 0.0013
C3 0.013 0.019 0.013 -0.0083 -0.0018 0.0024
C4 0.02 0.021 0.019 -0.0087 -0.0066 0.001
C5 0.021 0.03 0.023 -0.014 -0.0071 -0.003
C6 0.014 0.03 0.02 -0.014 -0.0025 0.0051
C7 0.019 0.026 0.016 -0.0117 -0.0059 0.0066
C8 0.014 0.02 0.009 -0.0061 -0.0043 -0.0007
C9 0.018 0.016 0.012 -0.0047 -0.0044 0.004
C10 0.017 0.021 0.014 -0.0086 -0.0078 0.0059
C11 0.026 0.021 0.022 -0.006 -0.0027 -0.002
C12 0.025 0.029 0.02 -0.005 0.0051 -0.008
C13 0.016 0.034 0.018 -0.013 0.0003 -0.001
C14 0.017 0.021 0.019 -0.01 -0.0038 0.0038
C15 0.012 0.024 0.014 -0.008 -0.0034 -0.0024
C16 0.02 0.019 0.012 -0.0043 -0.0052 0.0043
C17 0.017 0.014 0.014 -0.0005 -0.0027 0.0023
C18 0.018 0.015 0.015 -0.0058 -0.0073 0.0038
C19 0.02 0.02 0.02 -0.0061 -0.0044 0.0024
C20 0.018 0.027 0.029 -0.009 -0.0008 0
C21 0.018 0.028 0.042 -0.011 -0.014 0.002
C22 0.024 0.024 0.025 -0.008 -0.012 0.002
C23 0.015 0.011 0.024 -0.0061 -0.0025 0.0022
C29 0.013 0.024 0.019 -0.0049 -0.0027 0.0023
C30 0.015 0.008 0.018 -0.0028 -0.0017 -0.001
C31 0.014 0.018 0.025 -0.0029 -0.0061 0.0006
P3 0.0185 0.0154 0.02 -0.0072 -0.0061 0.0023
O10 0.0145 0.0204 0.0226 -0.0074 -0.0004 0.0008
O11 0.0167 0.0149 0.0222 -0.0073 -0.0063 0.003
O12 0.049 0.019 0.0235 -0.0053 -0.0179 0.0001
C32 0.017 0.018 0.013 -0.0073 -0.0043 0.0021
C33 0.014 0.014 0.018 -0.0092 -0.0034 0.0013
C34 0.013 0.019 0.013 -0.0083 -0.0018 0.0024
C35 0.02 0.021 0.019 -0.0087 -0.0066 0.001
C36 0.021 0.03 0.023 -0.014 -0.0071 -0.003
C37 0.014 0.03 0.02 -0.014 -0.0025 0.0051
C38 0.019 0.026 0.016 -0.0117 -0.0059 0.0066
C39 0.014 0.02 0.009 -0.0061 -0.0043 -0.0007
C40 0.018 0.016 0.012 -0.0047 -0.0044 0.004
C41 0.017 0.021 0.014 -0.0086 -0.0078 0.0059
C42 0.026 0.021 0.022 -0.006 -0.0027 -0.002
C43 0.025 0.029 0.02 -0.005 0.0051 -0.008
C44 0.016 0.034 0.018 -0.013 0.0003 -0.001
C45 0.017 0.021 0.019 -0.01 -0.0038 0.0038
C46 0.012 0.024 0.014 -0.008 -0.0034 -0.0024
C55 0.021 0.021 0.011 -0.0048 -0.0074 0.0021
C56 0.024 0.014 0.015 -0.0053 -0.0031 0
C57 0.028 0.025 0.017 -0.0068 -0.0041 0
C58 0.029 0.033 0.028 -0.014 0.003 0.006
C59 0.02 0.03 0.028 -0.009 -0.0018 0.005
Dy4 0.0102 0.01576 0.01645 -0.00298 -0.00382 0.00202
C24 0.021 0.021 0.011 -0.0048 -0.0074 0.0021
C25 0.024 0.014 0.015 -0.0053 -0.0031 0
C26 0.028 0.025 0.017 -0.0068 -0.0041 0
C27 0.029 0.033 0.028 -0.014 0.003 0.006
C28 0.02 0.03 0.028 -0.009 -0.0018 0.005
P4 0.016 0.0157 0.0146 -0.0018 -0.0045 0.0033
O13 0.0137 0.017 0.0146 0.0003 -0.0015 0.003
O14 0.0153 0.0209 0.0158 -0.0002 -0.0011 0.0022
O15 0.0325 0.0183 0.0225 -0.0069 -0.0084 -0.0002
C47 0.02 0.019 0.012 -0.0043 -0.0052 0.0043
C48 0.017 0.014 0.014 -0.0005 -0.0027 0.0023
C49 0.018 0.015 0.015 -0.0058 -0.0073 0.0038
C50 0.02 0.02 0.02 -0.0061 -0.0044 0.0024
C51 0.018 0.027 0.029 -0.009 -0.0008 0
C52 0.018 0.028 0.042 -0.011 -0.014 0.002
C53 0.024 0.024 0.025 -0.008 -0.012 0.002
C54 0.015 0.011 0.024 -0.0061 -0.0025 0.0022
C60 0.013 0.024 0.019 -0.0049 -0.0027 0.0023
C61 0.015 0.008 0.018 -0.0028 -0.0017 -0.001
O17 0.0119 0.0241 0.0359 -0.0119 -0.0112 0.0043
O18 0.0193 0.042 0.033 -0.0011 0.0018 0.0035
loop_
_geom_bond_atom_site_label_1
_geom_bond_atom_site_label_2
_geom_bond_site_symmetry_1
_geom_bond_site_symmetry_2
Dy7 O8 1_555 1_555
O16 C62 1_555 1_555
P1 O1 1_555 1_555
P2 O4 1_555 1_555
O1 Dy7 1_555 1_555
O2 P1 1_555 1_555
O3 P1 1_555 1_555
H1 O3 1_555 1_555
O4 Dy7 1_555 1_555
O6 P2 1_555 1_555
H2 O6 1_555 1_555
H3 O9 1_555 1_555
H4 O9 1_555 1_555
C1 P1 1_555 1_555
H5 C1 1_555 1_555
H6 C1 1_555 1_555
C2 C1 1_555 1_555
C3 C2 1_555 1_555
C4 C3 1_555 1_555
H7 C4 1_555 1_555
C5 C4 1_555 1_555
H8 C5 1_555 1_555
C6 C5 1_555 1_555
H9 C6 1_555 1_555
C7 C6 1_555 1_555
H10 C7 1_555 1_555
C8 C3 1_555 1_555
C9 C8 1_555 1_555
H11 C9 1_555 1_555
C10 C9 1_555 1_555
C11 C10 1_555 1_555
H12 C11 1_555 1_555
C12 C11 1_555 1_555
H13 C12 1_555 1_555
C13 C12 1_555 1_555
H14 C13 1_555 1_555
C14 C13 1_555 1_555
H15 C14 1_555 1_555
C15 C2 1_555 1_555
C16 P2 1_555 1_555
H16 C16 1_555 1_555
H17 C16 1_555 1_555
C17 C16 1_555 1_555
C18 C17 1_555 1_555
C19 C18 1_555 1_555
H18 C19 1_555 1_555
C20 C19 1_555 1_555
H19 C20 1_555 1_555
C21 C20 1_555 1_555
C22 C21 1_555 1_555
C23 C18 1_555 1_555
H26 C29 1_555 1_555
C30 C17 1_555 1_555
C31 O7 1_555 1_555
P3 O10 1_555 1_555
O10 Dy4 1_555 1_555
O11 P3 1_555 1_555
O12 P3 1_555 1_555
H27 O12 1_555 1_555
C32 P3 1_555 1_555
H28 C32 1_555 1_555
H29 C32 1_555 1_555
C33 C9 1_555 1_555
C34 C33 1_555 1_555
C35 C34 1_555 1_555
H30 C35 1_555 1_555
C36 C35 1_555 1_555
H31 C36 1_555 1_555
C37 C36 1_555 1_555
H32 C37 1_555 1_555
C38 C37 1_555 1_555
H33 C38 1_555 1_555
C39 C34 1_555 1_555
C40 C2 1_555 1_555
H34 C40 1_555 1_555
C41 C40 1_555 1_555
C42 C41 1_555 1_555
H35 C42 1_555 1_555
C43 C42 1_555 1_555
H36 C43 1_555 1_555
C44 C43 1_555 1_555
H37 C44 1_555 1_555
C45 C44 1_555 1_555
H38 C45 1_555 1_555
C46 C33 1_555 1_555
C55 C17 1_555 1_555
H46 C55 1_555 1_555
C56 C55 1_555 1_555
C57 C56 1_555 1_555
H47 C57 1_555 1_555
C58 C57 1_555 1_555
H48 C58 1_555 1_555
C59 C58 1_555 1_555
H49 C59 1_555 1_555
Dy7 O2 1_555 1_555
Dy4 O11 1_555 1_555
P2 O5 1_555 1_555
C7 C8 1_555 1_555
C10 C15 1_555 1_555
C14 C15 1_555 1_555
C22 C23 1_555 1_555
C29 C30 1_555 1_555
C32 C33 1_555 1_555
C38 C39 1_555 1_555
C39 C40 1_555 1_555
C41 C46 1_555 1_555
C45 C46 1_555 1_555
H22 C24 1_555 1_555
C25 C24 1_555 1_555
C26 C25 1_555 1_555
H23 C26 1_555 1_555
C27 C26 1_555 1_555
H24 C27 1_555 1_555
C28 C27 1_555 1_555
H25 C28 1_555 1_555
P4 O13 1_555 1_555
O13 Dy4 1_555 1_555
O14 P4 1_555 1_555
O15 P4 1_555 1_555
H39 O15 1_555 1_555
C47 P4 1_555 1_555
H40 C47 1_555 1_555
H41 C47 1_555 1_555
C48 C24 1_555 1_555
C49 C48 1_555 1_555
C50 C49 1_555 1_555
H42 C50 1_555 1_555
C51 C50 1_555 1_555
H43 C51 1_555 1_555
C52 C51 1_555 1_555
C53 C52 1_555 1_555
C54 C49 1_555 1_555
H50 C60 1_555 1_555
C61 C48 1_555 1_555
C47 C48 1_555 1_555
C53 C54 1_555 1_555
C60 C61 1_555 1_555
O17 Dy4 1_555 1_555
H51 O18 1_555 1_555
H52 O18 1_555 1_555

#END
