
###############################################################################
#
# This file contains modified crystal structure data generated from the
# MOF subset of the Cambridge Structural Database (CSD) v543 
# hosted by the Cambridge Crystallographic Data Centre (CCDC).
#
# This work is licensed under the Creative Commons
# Attribution-NonCommercial-ShareAlike 4.0 International License.
# To view a copy of this license, visit
# http://creativecommons.org/licenses/by-nc-sa/4.0/
# or send a letter to
# Creative Commons, PO Box 1866, Mountain View, CA 94042, USA.
#
# CIF created using the CSD Python API on 29 September 2022
# The structure has been converted into the P1 space group
# The structure has a 3D framework
# The original CSD entry ETUJEL is in the triclinic crystal system
# The framework has been calculated to contain at least 10.0% void space
# The void calculation uses a probe of radius 1.32A, grid spacing 0.4
#
###############################################################################

data_ETUJEL
_chemical_formula_moiety         '(C62 H52 Gd2 O17 P4)n'
_symmetry_cell_setting           triclinic
_symmetry_space_group_name_H-M   'P 1'
_symmetry_Int_Tables_number      1
_space_group_name_Hall           'P 1'
loop_
_symmetry_equiv_pos_site_id
_symmetry_equiv_pos_as_xyz
1 x,y,z
_cell_length_a                   9.6423(8)
_cell_length_b                   13.8366(13)
_cell_length_c                   14.8249(13)
_cell_angle_alpha                63.687(2)
_cell_angle_beta                 75.327(2)
_cell_angle_gamma                88.631(3)
_cell_volume                     1706.2
loop_
_atom_site_label
_atom_site_type_symbol
_atom_site_fract_x
_atom_site_fract_y
_atom_site_fract_z
_atom_site_U_iso_or_equiv
_atom_site_thermal_displace_type
O8 O 0.0753(3) 0.0913(3) 0.5302(3) 0.0260 Uani
Gd7 Gd 0.29172(2) 0.00052(2) 0.55352(2) 0.0171 Uani
O16 O 0.1337(3) 0.9111(3) 0.5084(3) 0.0303 Uani
C62 C 0.0162(5) 0.9481(4) 0.4934(4) 0.0245 Uani
P1 P 0.48552(13) 0.14769(10) 0.58556(10) 0.0206 Uani
P2 P 0.49267(13) 0.17979(10) 0.29250(9) 0.0191 Uani
O1 O 0.3232(3) 0.1272(3) 0.6173(2) 0.0238 Uani
O2 O 0.5447(3) 0.0698(2) 0.5417(2) 0.0206 Uani
O3 O 0.5413(4) 0.1319(3) 0.6807(3) 0.0344 Uani
H1 H 0.505572 0.071723 0.731489 0.0510 Uiso
O4 O 0.3668(3) 0.1474(2) 0.3876(2) 0.0204 Uani
O5 O 0.6329(3) 0.1386(3) 0.3131(2) 0.0245 Uani
O6 O 0.4526(4) 0.1409(3) 0.2159(3) 0.0304 Uani
H2 H 0.442591 0.072875 0.243893 0.0460 Uiso
O7 O 0.8663(3) 0.0889(3) 0.4916(3) 0.0303 Uani
O9 O 0.8998(4) 0.0809(3) 0.2809(3) 0.0414 Uani
H3 H 0.865748 0.080324 0.229376 0.0620 Uiso
H4 H 0.996185 0.078468 0.268471 0.0620 Uiso
C1 C 0.5651(5) 0.2794(4) 0.4834(4) 0.0210 Uani
H5 H 0.669631 0.279161 0.477669 0.0250 Uiso
H6 H 0.553890 0.280764 0.418306 0.0250 Uiso
C2 C 0.5274(5) 0.3916(4) 0.4760(3) 0.0170 Uani
C3 C 0.3814(4) 0.4226(4) 0.4519(3) 0.0172 Uani
C4 C 0.2807(5) 0.3539(4) 0.4509(4) 0.0225 Uani
H7 H 0.300154 0.281624 0.465370 0.0270 Uiso
C5 C 0.1510(5) 0.3892(4) 0.4290(4) 0.0254 Uani
H8 H 0.082458 0.340938 0.429050 0.0300 Uiso
C6 C 0.1224(5) 0.4940(4) 0.4074(4) 0.0242 Uani
H9 H 0.033651 0.518132 0.393258 0.0290 Uiso
C7 C 0.2237(5) 0.5642(4) 0.4062(3) 0.0208 Uani
H10 H 0.204020 0.636557 0.391023 0.0250 Uiso
C8 C 0.3532(5) 0.5301(4) 0.4270(3) 0.0163 Uani
C9 C 0.4694(5) 0.6083(4) 0.4158(3) 0.0179 Uani
H11 H 0.448966 0.682510 0.369282 0.0210 Uiso
C10 C 0.6116(5) 0.5876(4) 0.3581(3) 0.0180 Uani
C11 C 0.7079(5) 0.6724(4) 0.2769(4) 0.0247 Uani
H12 H 0.686403 0.745116 0.258000 0.0290 Uiso
C12 C 0.8354(5) 0.6515(4) 0.2232(4) 0.0296 Uani
H13 H 0.902069 0.709843 0.168488 0.0360 Uiso
C13 C 0.8656(5) 0.5462(4) 0.2491(4) 0.0254 Uani
H14 H 0.952918 0.531947 0.212183 0.0310 Uiso
C14 C 0.7690(5) 0.4615(4) 0.3286(4) 0.0224 Uani
H15 H 0.789970 0.389049 0.345386 0.0270 Uiso
C15 C 0.6414(5) 0.4807(4) 0.3846(3) 0.0176 Uani
C16 C 0.5259(5) 0.3282(4) 0.2237(3) 0.0206 Uani
H16 H 0.463779 0.355588 0.269724 0.0250 Uiso
H17 H 0.626730 0.346794 0.219080 0.0250 Uiso
C17 C 0.5049(5) 0.3946(4) 0.1139(4) 0.0232 Uani
C18 C 0.3472(5) 0.3828(4) 0.1134(4) 0.0227 Uani
C19 C 0.2332(5) 0.3375(4) 0.2025(4) 0.0270 Uani
H18 H 0.251058 0.309999 0.269255 0.0320 Uiso
C20 C 0.0933(6) 0.3317(4) 0.1958(4) 0.0317 Uani
H19 H 0.015797 0.300364 0.257653 0.0380 Uiso
C21 C 0.0665(6) 0.3718(4) 0.0983(5) 0.0368 Uani
C22 C 0.1808(6) 0.4187(4) 0.0085(4) 0.0328 Uani
C23 C 0.3194(5) 0.4252(4) 0.0149(4) 0.0250 Uani
C29 C 0.7141(5) 0.3050(4) 0.0450(4) 0.0272 Uani
H26 H 0.738610 0.278460 0.109445 0.0330 Uiso
C30 C 0.5981(5) 0.3656(4) 0.0320(4) 0.0229 Uani
C31 C 0.9838(5) 0.0519(4) 0.5066(4) 0.0245 Uani
P3 P 0.51448(13) 0.85231(10) 0.41444(10) 0.0206 Uani
O10 O 0.6768(3) 0.8728(3) 0.3827(2) 0.0238 Uani
O11 O 0.4553(3) 0.9302(2) 0.4583(2) 0.0206 Uani
O12 O 0.4587(4) 0.8681(3) 0.3193(3) 0.0344 Uani
H27 H 0.494428 0.928277 0.268511 0.0510 Uiso
C32 C 0.4349(5) 0.7206(4) 0.5166(4) 0.0210 Uani
H28 H 0.330369 0.720839 0.522331 0.0250 Uiso
H29 H 0.446110 0.719236 0.581694 0.0250 Uiso
C33 C 0.4726(5) 0.6084(4) 0.5240(3) 0.0170 Uani
C34 C 0.6186(4) 0.5774(4) 0.5481(3) 0.0172 Uani
C35 C 0.7193(5) 0.6461(4) 0.5491(4) 0.0225 Uani
H30 H 0.699846 0.718376 0.534630 0.0270 Uiso
C36 C 0.8490(5) 0.6108(4) 0.5710(4) 0.0254 Uani
H31 H 0.917542 0.659062 0.570950 0.0300 Uiso
C37 C 0.8776(5) 0.5060(4) 0.5926(4) 0.0242 Uani
H32 H 0.966349 0.481868 0.606742 0.0290 Uiso
C38 C 0.7763(5) 0.4358(4) 0.5938(3) 0.0208 Uani
H33 H 0.795980 0.363443 0.608977 0.0250 Uiso
C39 C 0.6468(5) 0.4699(4) 0.5730(3) 0.0163 Uani
C40 C 0.5306(5) 0.3917(4) 0.5842(3) 0.0179 Uani
H34 H 0.551034 0.317490 0.630718 0.0210 Uiso
C41 C 0.3884(5) 0.4124(4) 0.6419(3) 0.0180 Uani
C42 C 0.2921(5) 0.3276(4) 0.7231(4) 0.0247 Uani
H35 H 0.313597 0.254884 0.742000 0.0290 Uiso
C43 C 0.1646(5) 0.3485(4) 0.7768(4) 0.0296 Uani
H36 H 0.097931 0.290157 0.831512 0.0360 Uiso
C44 C 0.1344(5) 0.4538(4) 0.7509(4) 0.0254 Uani
H37 H 0.047082 0.468053 0.787817 0.0310 Uiso
C45 C 0.2310(5) 0.5385(4) 0.6714(4) 0.0224 Uani
H38 H 0.210030 0.610951 0.654614 0.0270 Uiso
C46 C 0.3586(5) 0.5193(4) 0.6154(3) 0.0176 Uani
H45 H 0.837440 0.553425 0.058145 0.0390 Uiso
C55 C 0.5535(5) 0.5219(4) 0.0812(4) 0.0247 Uani
H46 H 0.583792 0.521966 0.140938 0.0290 Uiso
C56 C 0.4334(5) 0.5930(4) 0.0650(4) 0.0248 Uani
C57 C 0.3512(6) 0.6148(4) 0.1443(4) 0.0300 Uani
H47 H 0.372799 0.586235 0.209934 0.0360 Uiso
C58 C 0.2373(6) 0.6784(5) 0.1277(4) 0.0386 Uani
H48 H 0.182209 0.694541 0.181422 0.0460 Uiso
C59 C 0.2048(6) 0.7181(5) 0.0327(4) 0.0365 Uani
H49 H 0.126810 0.761116 0.021092 0.0440 Uiso
Gd4 Gd 0.70828(2) 0.99948(2) 0.44648(2) 0.0171 Uani
H21 H 0.162560 0.446575 0.941855 0.0390 Uiso
C24 C 0.4465(5) 0.4781(4) 0.9188(4) 0.0247 Uani
H22 H 0.416208 0.478034 0.859062 0.0290 Uiso
C25 C 0.5666(5) 0.4070(4) 0.9350(4) 0.0248 Uani
C26 C 0.6488(6) 0.3852(4) 0.8557(4) 0.0300 Uani
H23 H 0.627201 0.413765 0.790066 0.0360 Uiso
C27 C 0.7627(6) 0.3216(5) 0.8723(4) 0.0386 Uani
H24 H 0.817791 0.305459 0.818578 0.0460 Uiso
C28 C 0.7952(6) 0.2819(5) 0.9673(4) 0.0365 Uani
H25 H 0.873190 0.238884 0.978908 0.0440 Uiso
P4 P 0.50733(13) 0.82021(10) 0.70750(9) 0.0191 Uani
O13 O 0.6332(3) 0.8526(2) 0.6124(2) 0.0204 Uani
O14 O 0.3671(3) 0.8614(3) 0.6869(2) 0.0245 Uani
O15 O 0.5474(4) 0.8591(3) 0.7841(3) 0.0304 Uani
H39 H 0.557409 0.927125 0.756107 0.0460 Uiso
C47 C 0.4741(5) 0.6718(4) 0.7763(3) 0.0206 Uani
H40 H 0.536221 0.644412 0.730276 0.0250 Uiso
H41 H 0.373270 0.653206 0.780920 0.0250 Uiso
C48 C 0.4951(5) 0.6054(4) 0.8861(4) 0.0232 Uani
C49 C 0.6528(5) 0.6172(4) 0.8866(4) 0.0227 Uani
C50 C 0.7668(5) 0.6625(4) 0.7975(4) 0.0270 Uani
H42 H 0.748942 0.690001 0.730745 0.0320 Uiso
C51 C 0.9067(6) 0.6683(4) 0.8042(4) 0.0317 Uani
H43 H 0.984203 0.699636 0.742347 0.0380 Uiso
C52 C 0.9335(6) 0.6282(4) 0.9017(5) 0.0368 Uani
C53 C 0.8192(6) 0.5813(4) 0.9915(4) 0.0328 Uani
C54 C 0.6806(5) 0.5748(4) 0.9851(4) 0.0250 Uani
C60 C 0.2859(5) 0.6950(4) 0.9550(4) 0.0272 Uani
H50 H 0.261390 0.721540 0.890555 0.0330 Uiso
C61 C 0.4019(5) 0.6344(4) 0.9680(4) 0.0229 Uani
O17 O 0.9247(3) 0.9087(3) 0.4698(3) 0.0260 Uani
O18 O 0.1002(4) 0.9191(3) 0.7191(3) 0.0414 Uani
H51 H 0.134252 0.919676 0.770624 0.0620 Uiso
H52 H 0.003815 0.921532 0.731529 0.0620 Uiso
H44 H 0.029092 0.632818 0.906808 0.0440 Uiso
H20 H 0.970908 0.367182 0.093192 0.0440 Uiso
loop_
_atom_site_aniso_label
_atom_site_aniso_U_11
_atom_site_aniso_U_22
_atom_site_aniso_U_33
_atom_site_aniso_U_23
_atom_site_aniso_U_13
_atom_site_aniso_U_12
O8 0.0182 0.0227 0.041 -0.0145 -0.0144 0.003
Gd7 0.0127 0.01439 0.01994 -0.00341 -0.00578 0.0016
O16 0.0196 0.026 0.054 -0.0225 -0.0165 0.0092
C62 0.018 0.024 0.024 -0.005 -0.004 -0.002
P1 0.0231 0.0148 0.0241 -0.0082 -0.008 0.0022
P2 0.0201 0.0169 0.0177 -0.0043 -0.0076 0.0036
O1 0.0214 0.022 0.0227 -0.0087 0.0001 0.003
O2 0.0218 0.0161 0.0231 -0.0066 -0.0093 0.0035
O3 0.059 0.0195 0.0249 -0.0071 -0.017 0.0008
O4 0.0209 0.0148 0.0175 -0.001 -0.0041 0.0033
O5 0.0178 0.0214 0.0219 0.0004 -0.0043 0.0034
O6 0.04 0.024 0.029 -0.0117 -0.0125 0.001
O7 0.0196 0.026 0.054 -0.0225 -0.0165 0.0092
O9 0.0225 0.045 0.037 -0.0032 -0.0047 0.0034
C1 0.022 0.021 0.021 -0.01 -0.006 -0.0013
C2 0.016 0.017 0.021 -0.0104 -0.0065 0.0008
C3 0.014 0.021 0.015 -0.007 -0.0036 0.0047
C4 0.025 0.023 0.022 -0.012 -0.007 0.002
C5 0.022 0.032 0.024 -0.014 -0.006 -0.004
C6 0.017 0.037 0.019 -0.013 -0.005 0.006
C7 0.021 0.027 0.016 -0.012 -0.0033 0.004
C8 0.017 0.02 0.011 -0.0052 -0.0055 0.0014
C9 0.021 0.015 0.018 -0.0061 -0.0084 0.0027
C10 0.019 0.022 0.013 -0.0079 -0.0044 0.0017
C11 0.025 0.015 0.028 -0.007 -0.002 -0.0041
C12 0.025 0.03 0.023 -0.008 0.005 -0.009
C13 0.02 0.032 0.025 -0.015 -0.003 0
C14 0.02 0.026 0.026 -0.014 -0.01 0.005
C15 0.02 0.019 0.016 -0.0091 -0.0057 -0.0028
C16 0.024 0.021 0.016 -0.0059 -0.0091 0.0067
C17 0.026 0.028 0.021 -0.011 -0.016 0.01
C18 0.029 0.019 0.024 -0.01 -0.014 0.012
C19 0.036 0.021 0.028 -0.011 -0.016 0.011
C20 0.032 0.022 0.035 -0.008 -0.008 -0.001
C21 0.029 0.027 0.058 -0.016 -0.024 0.004
C22 0.038 0.03 0.03 -0.01 -0.015 0.001
C23 0.027 0.022 0.032 -0.014 -0.015 0.008
C29 0.021 0.034 0.019 -0.007 -0.002 -0.002
C30 0.034 0.013 0.018 -0.0048 -0.005 0
C31 0.018 0.024 0.024 -0.005 -0.004 -0.002
P3 0.0231 0.0148 0.0241 -0.0082 -0.008 0.0022
O10 0.0214 0.022 0.0227 -0.0087 0.0001 0.003
O11 0.0218 0.0161 0.0231 -0.0066 -0.0093 0.0035
O12 0.059 0.0195 0.0249 -0.0071 -0.017 0.0008
C32 0.022 0.021 0.021 -0.01 -0.006 -0.0013
C33 0.016 0.017 0.021 -0.0104 -0.0065 0.0008
C34 0.014 0.021 0.015 -0.007 -0.0036 0.0047
C35 0.025 0.023 0.022 -0.012 -0.007 0.002
C36 0.022 0.032 0.024 -0.014 -0.006 -0.004
C37 0.017 0.037 0.019 -0.013 -0.005 0.006
C38 0.021 0.027 0.016 -0.012 -0.0033 0.004
C39 0.017 0.02 0.011 -0.0052 -0.0055 0.0014
C40 0.021 0.015 0.018 -0.0061 -0.0084 0.0027
C41 0.019 0.022 0.013 -0.0079 -0.0044 0.0017
C42 0.025 0.015 0.028 -0.007 -0.002 -0.0041
C43 0.025 0.03 0.023 -0.008 0.005 -0.009
C44 0.02 0.032 0.025 -0.015 -0.003 0
C45 0.02 0.026 0.026 -0.014 -0.01 0.005
C46 0.02 0.019 0.016 -0.0091 -0.0057 -0.0028
C55 0.031 0.026 0.022 -0.011 -0.015 0.003
C56 0.034 0.019 0.022 -0.008 -0.011 0.004
C57 0.046 0.026 0.016 -0.01 -0.004 0
C58 0.036 0.045 0.034 -0.023 0.001 0.009
C59 0.025 0.041 0.033 -0.011 -0.002 0.009
Gd4 0.0127 0.01439 0.01994 -0.00341 -0.00578 0.0016
C24 0.031 0.026 0.022 -0.011 -0.015 0.003
C25 0.034 0.019 0.022 -0.008 -0.011 0.004
C26 0.046 0.026 0.016 -0.01 -0.004 0
C27 0.036 0.045 0.034 -0.023 0.001 0.009
C28 0.025 0.041 0.033 -0.011 -0.002 0.009
P4 0.0201 0.0169 0.0177 -0.0043 -0.0076 0.0036
O13 0.0209 0.0148 0.0175 -0.001 -0.0041 0.0033
O14 0.0178 0.0214 0.0219 0.0004 -0.0043 0.0034
O15 0.04 0.024 0.029 -0.0117 -0.0125 0.001
C47 0.024 0.021 0.016 -0.0059 -0.0091 0.0067
C48 0.026 0.028 0.021 -0.011 -0.016 0.01
C49 0.029 0.019 0.024 -0.01 -0.014 0.012
C50 0.036 0.021 0.028 -0.011 -0.016 0.011
C51 0.032 0.022 0.035 -0.008 -0.008 -0.001
C52 0.029 0.027 0.058 -0.016 -0.024 0.004
C53 0.038 0.03 0.03 -0.01 -0.015 0.001
C54 0.027 0.022 0.032 -0.014 -0.015 0.008
C60 0.021 0.034 0.019 -0.007 -0.002 -0.002
C61 0.034 0.013 0.018 -0.0048 -0.005 0
O17 0.0182 0.0227 0.041 -0.0145 -0.0144 0.003
O18 0.0225 0.045 0.037 -0.0032 -0.0047 0.0034
loop_
_geom_bond_atom_site_label_1
_geom_bond_atom_site_label_2
_geom_bond_site_symmetry_1
_geom_bond_site_symmetry_2
Gd7 O8 1_555 1_555
O16 C62 1_555 1_555
P1 O1 1_555 1_555
P2 O4 1_555 1_555
O1 Gd7 1_555 1_555
O2 P1 1_555 1_555
O3 P1 1_555 1_555
H1 O3 1_555 1_555
O4 Gd7 1_555 1_555
O6 P2 1_555 1_555
H2 O6 1_555 1_555
H3 O9 1_555 1_555
H4 O9 1_555 1_555
C1 P1 1_555 1_555
H5 C1 1_555 1_555
H6 C1 1_555 1_555
C2 C1 1_555 1_555
C3 C2 1_555 1_555
C4 C3 1_555 1_555
H7 C4 1_555 1_555
C5 C4 1_555 1_555
H8 C5 1_555 1_555
C6 C5 1_555 1_555
H9 C6 1_555 1_555
C7 C6 1_555 1_555
H10 C7 1_555 1_555
C8 C3 1_555 1_555
C9 C8 1_555 1_555
H11 C9 1_555 1_555
C10 C9 1_555 1_555
C11 C10 1_555 1_555
H12 C11 1_555 1_555
C12 C11 1_555 1_555
H13 C12 1_555 1_555
C13 C12 1_555 1_555
H14 C13 1_555 1_555
C14 C13 1_555 1_555
H15 C14 1_555 1_555
C15 C2 1_555 1_555
C16 P2 1_555 1_555
H16 C16 1_555 1_555
H17 C16 1_555 1_555
C17 C16 1_555 1_555
C18 C17 1_555 1_555
C19 C18 1_555 1_555
H18 C19 1_555 1_555
C20 C19 1_555 1_555
H19 C20 1_555 1_555
C21 C20 1_555 1_555
C22 C21 1_555 1_555
C23 C18 1_555 1_555
H26 C29 1_555 1_555
C30 C17 1_555 1_555
C31 O7 1_555 1_555
P3 O10 1_555 1_555
O10 Gd4 1_555 1_555
O11 P3 1_555 1_555
O12 P3 1_555 1_555
H27 O12 1_555 1_555
C32 P3 1_555 1_555
H28 C32 1_555 1_555
H29 C32 1_555 1_555
C33 C9 1_555 1_555
C34 C33 1_555 1_555
C35 C34 1_555 1_555
H30 C35 1_555 1_555
C36 C35 1_555 1_555
H31 C36 1_555 1_555
C37 C36 1_555 1_555
H32 C37 1_555 1_555
C38 C37 1_555 1_555
H33 C38 1_555 1_555
C39 C34 1_555 1_555
C40 C2 1_555 1_555
H34 C40 1_555 1_555
C41 C40 1_555 1_555
C42 C41 1_555 1_555
H35 C42 1_555 1_555
C43 C42 1_555 1_555
H36 C43 1_555 1_555
C44 C43 1_555 1_555
H37 C44 1_555 1_555
C45 C44 1_555 1_555
H38 C45 1_555 1_555
C46 C33 1_555 1_555
C55 C17 1_555 1_555
H46 C55 1_555 1_555
C56 C55 1_555 1_555
C57 C56 1_555 1_555
H47 C57 1_555 1_555
C58 C57 1_555 1_555
H48 C58 1_555 1_555
C59 C58 1_555 1_555
H49 C59 1_555 1_555
Gd7 O2 1_555 1_555
Gd4 O11 1_555 1_555
P2 O5 1_555 1_555
C7 C8 1_555 1_555
C10 C15 1_555 1_555
C14 C15 1_555 1_555
C22 C23 1_555 1_555
C29 C30 1_555 1_555
C32 C33 1_555 1_555
C38 C39 1_555 1_555
C39 C40 1_555 1_555
C41 C46 1_555 1_555
C45 C46 1_555 1_555
H22 C24 1_555 1_555
C25 C24 1_555 1_555
C26 C25 1_555 1_555
H23 C26 1_555 1_555
C27 C26 1_555 1_555
H24 C27 1_555 1_555
C28 C27 1_555 1_555
H25 C28 1_555 1_555
P4 O13 1_555 1_555
O13 Gd4 1_555 1_555
O14 P4 1_555 1_555
O15 P4 1_555 1_555
H39 O15 1_555 1_555
C47 P4 1_555 1_555
H40 C47 1_555 1_555
H41 C47 1_555 1_555
C48 C24 1_555 1_555
C49 C48 1_555 1_555
C50 C49 1_555 1_555
H42 C50 1_555 1_555
C51 C50 1_555 1_555
H43 C51 1_555 1_555
C52 C51 1_555 1_555
C53 C52 1_555 1_555
C54 C49 1_555 1_555
H50 C60 1_555 1_555
C61 C48 1_555 1_555
C47 C48 1_555 1_555
C53 C54 1_555 1_555
C60 C61 1_555 1_555
O17 Gd4 1_555 1_555
H51 O18 1_555 1_555
H52 O18 1_555 1_555

#END
