
###############################################################################
#
# This file contains modified crystal structure data generated from the
# MOF subset of the Cambridge Structural Database (CSD) v543 
# hosted by the Cambridge Crystallographic Data Centre (CCDC).
#
# This work is licensed under the Creative Commons
# Attribution-NonCommercial-ShareAlike 4.0 International License.
# To view a copy of this license, visit
# http://creativecommons.org/licenses/by-nc-sa/4.0/
# or send a letter to
# Creative Commons, PO Box 1866, Mountain View, CA 94042, USA.
#
# CIF created using the CSD Python API on 29 September 2022
# The structure has been converted into the P1 space group
# The structure has a 3D framework
# The original CSD entry ETUWIA is in the monoclinic crystal system
# The framework has been calculated to contain at least 10.0% void space
# The void calculation uses a probe of radius 1.32A, grid spacing 0.4
# The framework is charged, counterions have been retained in the structure
#
###############################################################################

data_ETUWIA
_chemical_formula_moiety         '(C24 H40 N4 O31 Y4 2+)n'
_symmetry_cell_setting           triclinic
_symmetry_space_group_name_H-M   'P 1'
_symmetry_Int_Tables_number      1
_space_group_name_Hall           'P 1'
loop_
_symmetry_equiv_pos_site_id
_symmetry_equiv_pos_as_xyz
1 x,y,z
_cell_length_a                   9.60080(10)
_cell_length_b                   11.5422(2)
_cell_length_c                   14.2886(2)
_cell_angle_alpha                90
_cell_angle_beta                 122.4600(10)
_cell_angle_gamma                90
_cell_volume                     1336
loop_
_atom_site_label
_atom_site_type_symbol
_atom_site_fract_x
_atom_site_fract_y
_atom_site_fract_z
O8 O 0.1611(3) 0.01036(18) 0.47848(19)
C4 C 0.0151(4) 0.0005(2) 0.4524(3)
Y5 Y 0.38230(3) 0.01154(2) 0.66743(2)
O20 O 0.1108(3) 0.00877(17) 0.64360(19)
H1 H 0.617(5) 0.039(2) 0.129(3)
Y2 Y 0.38230(3) 0.48846(2) 0.16743(2)
O10 O 0.2951(3) 0.28990(17) 0.15714(19)
O11 O 0.3833(3) 0.10733(18) 0.2050(2)
O12 O 0.6167(3) 0.60733(18) 0.2950(2)
O13 O 0.6946(3) 0.18334(17) 0.32987(18)
O14 O 0.3054(3) 0.68334(17) 0.17013(18)
O15 O 0.6041(3) 0.36535(17) 0.29257(19)
O16 O 0.4802(3) 0.11732(18) 0.5681(2)
O17 O 0.4802(3) 0.38268(18) 0.0681(2)
O18 O 0.5387(3) 0.11238(19) 0.4367(2)
O19 O 0.4613(3) 0.61238(19) 0.0633(2)
O21 O 0.1108(3) 0.49123(17) 0.14360(19)
O24 O 0.3956(3) 0.4808(2) 0.3422(2)
H3 H 0.383(5) 0.539(2) 0.371(3)
H4 H 0.432(4) 0.431(2) 0.378(3)
C5 C 0.4040(4) 0.2148(2) 0.2081(3)
C6 C 0.5837(4) 0.2587(2) 0.2834(3)
C7 C 0.5053(4) 0.0665(3) 0.5016(3)
O23 O 0.1611(3) 0.48964(18) 0.97848(19)
Y1 Y 0.61770(3) 0.98846(2) 0.33257(2)
O1 O 0.7049(3) 0.78990(17) 0.34286(19)
O4 O 0.3959(3) 0.86535(17) 0.20743(19)
O5 O 0.5198(3) 0.88268(18) 0.4319(2)
O6 O 0.4613(3) 0.88762(19) 0.5633(2)
O7 O 0.8892(3) 0.99123(17) 0.35640(19)
O9 O 0.6044(3) 0.9808(2) 0.1578(2)
H2 H 0.568(4) 0.931(2) 0.122(3)
C1 C 0.5960(4) 0.7148(2) 0.2919(3)
C2 C 0.4163(4) 0.7587(2) 0.2166(3)
C3 C 0.4947(4) 0.9335(3) 0.4984(3)
O22 O 0.8389(3) 0.98964(18) 0.52152(19)
C8 C 0.9849(4) 0.9995(2) 0.5476(3)
C3_2 C 0.5053(4) 0.4335(3) 0.0016(3)
O6_2 O 0.5387(3) 0.38762(19) 0.9367(2)
Y4 Y 0.61770(3) 0.51154(2) 0.83257(2)
O16_2 O 0.5198(3) 0.61732(18) 0.9319(2)
C7_2 C 0.4947(4) 0.5665(3) 0.9984(3)
C8_2 C 0.0151(4) 0.4995(2) 0.9524(3)
O8_2 O 0.8389(3) 0.51036(18) 0.02152(19)
C4_2 C 0.9849(4) 0.5005(2) 0.0476(3)
O20_2 O 0.8892(3) 0.50877(17) 0.85640(19)
O1_2 O 0.2951(3) 0.21010(17) 0.65714(19)
O2 O 0.3833(3) 0.39267(18) 0.7050(2)
O3 O 0.6946(3) 0.31666(17) 0.82987(18)
O4_2 O 0.6041(3) 0.13465(17) 0.79257(19)
O9_2 O 0.3956(3) 0.0192(2) 0.8422(2)
H2_2 H 0.432(4) 0.069(2) 0.878(3)
C1_2 C 0.4040(4) 0.2852(2) 0.7081(3)
C2_2 C 0.5837(4) 0.2413(2) 0.7834(3)
H1_2 H 0.383(5) 0.961(2) 0.871(3)
O10_2 O 0.7049(3) 0.71010(17) 0.84286(19)
O11_2 O 0.6167(3) 0.89267(18) 0.7950(2)
O13_2 O 0.3054(3) 0.81666(17) 0.67013(18)
O15_2 O 0.3959(3) 0.63465(17) 0.70743(19)
O24_2 O 0.6044(3) 0.5192(2) 0.6578(2)
H3_2 H 0.617(5) 0.461(2) 0.629(3)
H4_2 H 0.568(4) 0.569(2) 0.622(3)
C5_2 C 0.5960(4) 0.7852(2) 0.7919(3)
C6_2 C 0.4163(4) 0.7413(2) 0.7166(3)
C9 C 0.0993(6) 0.6253(6) 0.7531(5)
H7 H 0.1314 0.5459 0.7567
H8 H 0.1476 0.6553 0.8269
H9 H 0.1370 0.6699 0.7141
N1 N 0.9245(4) 0.6326(3) 0.6962(3)
H5 H 0.8928 0.6007 0.7394
H6 H 0.8808 0.5895 0.6341
C10 C 0.8547(8) 0.7488(5) 0.6652(5)
H10 H 0.7365 0.7442 0.6254
H11 H 0.8872 0.7841 0.6190
H12 H 0.8944 0.7946 0.7309
N1_2 N 0.0755(4) 0.1326(3) 0.8038(3)
H5_2 H 0.1072 0.1007 0.7606
H6_2 H 0.1192 0.0895 0.8659
C10_2 C 0.1453(8) 0.2488(5) 0.8348(5)
H10_2 H 0.2635 0.2442 0.8746
H11_2 H 0.1128 0.2841 0.8810
H12_2 H 0.1056 0.2946 0.7691
C9_2 C 0.9007(6) 0.1253(6) 0.7469(5)
H7_2 H 0.8686 0.0459 0.7433
H8_2 H 0.8524 0.1553 0.6731
H9_2 H 0.8630 0.1699 0.7859
N1_3 N 0.0755(4) 0.3674(3) 0.3038(3)
H5_3 H 0.1072 0.3993 0.2606
H6_3 H 0.1192 0.4105 0.3659
C10_3 C 0.1453(8) 0.2512(5) 0.3348(5)
H10_3 H 0.2635 0.2558 0.3746
H11_3 H 0.1128 0.2159 0.3810
H12_3 H 0.1056 0.2054 0.2691
C9_3 C 0.9007(6) 0.3747(6) 0.2469(5)
H7_3 H 0.8686 0.4541 0.2433
H8_3 H 0.8524 0.3447 0.1731
H9_3 H 0.8630 0.3301 0.2859
C9_4 C 0.0993(6) 0.8747(6) 0.2531(5)
H7_4 H 0.1314 0.9541 0.2567
H8_4 H 0.1476 0.8447 0.3269
H9_4 H 0.1370 0.8301 0.2141
N1_4 N 0.9245(4) 0.8674(3) 0.1962(3)
H5_4 H 0.8928 0.8993 0.2394
H6_4 H 0.8808 0.9105 0.1341
C10_4 C 0.8547(8) 0.7512(5) 0.1652(5)
H10_4 H 0.7365 0.7558 0.1254
H11_4 H 0.8872 0.7159 0.1190
H12_4 H 0.8944 0.7054 0.2309
loop_
_geom_bond_atom_site_label_1
_geom_bond_atom_site_label_2
_geom_bond_site_symmetry_1
_geom_bond_site_symmetry_2
O8 C4 1_555 1_555
Y5 O8 1_555 1_555
O20 Y5 1_555 1_555
Y2 O10 1_555 1_555
O10 C5 1_555 1_555
O12 Y2 1_555 1_555
O14 Y2 1_555 1_555
O15 Y2 1_555 1_555
O16 Y5 1_555 1_555
O17 Y2 1_555 1_555
O19 Y2 1_555 1_555
O21 Y2 1_555 1_555
O24 Y2 1_555 1_555
H3 O24 1_555 1_555
H4 O24 1_555 1_555
C5 O11 1_555 1_555
C6 O13 1_555 1_555
O15 C6 1_555 1_555
O16 C7 1_555 1_555
O18 C7 1_555 1_555
C5 C6 1_555 1_555
Y1 O1 1_555 1_555
O1 C1 1_555 1_555
O12 C1 1_555 1_555
O14 C2 1_555 1_555
O4 Y1 1_555 1_555
O5 Y1 1_555 1_555
O6 C3 1_555 1_555
O7 Y1 1_555 1_555
O9 Y1 1_555 1_555
H2 O9 1_555 1_555
C1 C2 1_555 1_555
C2 O4 1_555 1_555
C3 O5 1_555 1_555
O22 Y1 1_555 1_555
O22 C8 1_555 1_555
C3_2 O17 1_555 1_555
Y4 O6_2 1_555 1_555
O16_2 Y4 1_555 1_555
O16_2 C7_2 1_555 1_555
O23 C8_2 1_555 1_555
O8_2 C4_2 1_555 1_555
O20_2 Y4 1_555 1_555
Y5 O1_2 1_555 1_555
O1_2 C1_2 1_555 1_555
O2 C1_2 1_555 1_555
O3 C2_2 1_555 1_555
O4_2 Y5 1_555 1_555
O9_2 Y5 1_555 1_555
H2_2 O9_2 1_555 1_555
C1_2 C2_2 1_555 1_555
C2_2 O4_2 1_555 1_555
Y4 O2 1_555 1_555
O3 Y4 1_555 1_555
Y4 O10_2 1_555 1_555
O10_2 C5_2 1_555 1_555
O15_2 Y4 1_555 1_555
O24_2 Y4 1_555 1_555
H3_2 O24_2 1_555 1_555
H4_2 O24_2 1_555 1_555
C5_2 O11_2 1_555 1_555
C6_2 O13_2 1_555 1_555
O15_2 C6_2 1_555 1_555
C5_2 C6_2 1_555 1_555
H7 C9 1_555 1_555
H8 C9 1_555 1_555
H9 C9 1_555 1_555
N1 H5 1_555 1_555
H6 N1 1_555 1_555
C10 N1 1_555 1_555
H10 C10 1_555 1_555
H11 C10 1_555 1_555
H12 C10 1_555 1_555
N1_2 H5_2 1_555 1_555
H6_2 N1_2 1_555 1_555
C10_2 N1_2 1_555 1_555
H10_2 C10_2 1_555 1_555
H11_2 C10_2 1_555 1_555
H12_2 C10_2 1_555 1_555
H7_2 C9_2 1_555 1_555
H8_2 C9_2 1_555 1_555
H9_2 C9_2 1_555 1_555
N1_3 H5_3 1_555 1_555
H6_3 N1_3 1_555 1_555
C10_3 N1_3 1_555 1_555
H10_3 C10_3 1_555 1_555
H11_3 C10_3 1_555 1_555
H12_3 C10_3 1_555 1_555
H7_3 C9_3 1_555 1_555
H8_3 C9_3 1_555 1_555
H9_3 C9_3 1_555 1_555
H7_4 C9_4 1_555 1_555
H8_4 C9_4 1_555 1_555
H9_4 C9_4 1_555 1_555
N1_4 H5_4 1_555 1_555
H6_4 N1_4 1_555 1_555
C10_4 N1_4 1_555 1_555
H10_4 C10_4 1_555 1_555
H11_4 C10_4 1_555 1_555
H12_4 C10_4 1_555 1_555

#END
