
###############################################################################
#
# This file contains modified crystal structure data generated from the
# MOF subset of the Cambridge Structural Database (CSD) v543 
# hosted by the Cambridge Crystallographic Data Centre (CCDC).
#
# This work is licensed under the Creative Commons
# Attribution-NonCommercial-ShareAlike 4.0 International License.
# To view a copy of this license, visit
# http://creativecommons.org/licenses/by-nc-sa/4.0/
# or send a letter to
# Creative Commons, PO Box 1866, Mountain View, CA 94042, USA.
#
# CIF created using the CSD Python API on 29 September 2022
# The structure has been converted into the P1 space group
# The structure has a 3D framework
# The original CSD entry EVAKEU is in the triclinic crystal system
# The framework has been calculated to contain at least 10.0% void space
# The void calculation uses a probe of radius 1.32A, grid spacing 0.4
#
###############################################################################

data_EVAKEU
_chemical_formula_moiety         '(C86 H74 N16 O24 Zn6)n'
_symmetry_cell_setting           triclinic
_symmetry_space_group_name_H-M   'P 1'
_symmetry_Int_Tables_number      1
_space_group_name_Hall           'P 1'
loop_
_symmetry_equiv_pos_site_id
_symmetry_equiv_pos_as_xyz
1 x,y,z
_cell_length_a                   12.039(2)
_cell_length_b                   13.563(3)
_cell_length_c                   16.604(3)
_cell_angle_alpha                91.69(3)
_cell_angle_beta                 103.33(3)
_cell_angle_gamma                113.98(3)
_cell_volume                     2387.18
loop_
_atom_site_label
_atom_site_type_symbol
_atom_site_fract_x
_atom_site_fract_y
_atom_site_fract_z
O11 O 0.2750(5) 0.0939(5) 0.4451(4)
O12 O 0.2842(4) 0.1200(4) 0.5777(4)
C22 C 0.2331(6) 0.0622(6) 0.5059(6)
H27 H 0.0055 0.2822 0.2371
Zn14 Zn 0.39175(6) 0.25883(5) 0.52944(4)
C19 C 0.0704(5) 0.9150(5) 0.5599(4)
H15 H 0.1134 0.9508 0.6154
C20 C 0.0551(6) 0.9019(5) 0.4145(4)
H16 H 0.0892 0.9288 0.3692
C21 C 0.1194(5) 0.9566(5) 0.4949(4)
Zn8 Zn 0.11269(7) 0.67378(7) 0.13429(5)
N6 N 0.9264(5) 0.2756(5) 0.9778(4)
C35 C 0.9460(7) 0.1861(7) 0.9972(5)
H29 H 0.9532 0.1365 0.9594
Zn10 Zn 0.88731(7) 0.32622(7) 0.86571(5)
Zn2 Zn 0.33383(6) 0.41144(5) 0.25173(4)
Zn3 Zn 0.60825(6) 0.74117(5) 0.47056(4)
O1 O 0.1775(5) 0.5728(4) 0.0934(3)
O2 O 0.2596(4) 0.5089(4) 0.2010(3)
O3 O 0.2787(5) 0.2611(3) 0.2050(3)
O4 O 0.2650(7) 0.1307(5) 0.1149(4)
O5 O 0.9538(5) 0.7333(5) 0.1729(5)
O6 O 0.9547(4) 0.5734(4) 0.1581(3)
O7 O 0.5167(4) 0.4771(3) 0.2983(2)
O8 O 0.5185(4) 0.6041(4) 0.3836(3)
O9 O 0.6445(4) 0.6770(4) 0.5754(3)
O10 O 0.7493(4) 0.5970(4) 0.6550(2)
N1 N 0.3603(5) 0.4167(4) 0.0991(3)
N2 N 0.7745(4) 0.6766(4) 0.4525(3)
N3 N 0.2641(5) 0.7946(5) 0.2105(4)
N4 N 0.4034(5) 0.9615(5) 0.2563(4)
N7 N 0.4410(5) 0.7497(4) 0.4559(3)
N8 N 0.2393(5) 0.7047(5) 0.4087(4)
C1 C 0.2378(5) 0.5210(5) 0.1252(4)
C2 C 0.2863(6) 0.4757(6) 0.0640(4)
H1 H 0.2133 0.4260 0.0185
H2 H 0.3391 0.5367 0.0388
C3 C 0.3017(6) 0.2990(6) 0.0686(4)
H3 H 0.3546 0.2841 0.0368
H4 H 0.2185 0.2807 0.0291
C4 C 0.2830(6) 0.2245(6) 0.1341(4)
C5 C 0.4934(6) 0.4715(5) 0.1168(4)
C6 C 0.5557(6) 0.5848(5) 0.1272(4)
H5 H 0.5086 0.6271 0.1220
C7 C 0.5661(6) 0.4115(5) 0.1283(4)
H6 H 0.5258 0.3344 0.1245
C8 C 0.6871(6) 0.6365(5) 0.1450(4)
H7 H 0.7285 0.7138 0.1516
C9 C 0.6972(6) 0.4648(6) 0.1452(4)
H8 H 0.7453 0.4233 0.1513
C10 C 0.7579(6) 0.5766(5) 0.1533(4)
C11 C 0.8968(7) 0.6338(7) 0.1634(4)
C12 C 0.5734(6) 0.5615(5) 0.3510(4)
C13 C 0.7142(6) 0.6150(6) 0.3681(4)
H9 H 0.7452 0.5587 0.3619
H10 H 0.7379 0.6650 0.3264
C14 C 0.7165(5) 0.6309(4) 0.5874(3)
C15 C 0.7661(5) 0.6050(5) 0.5168(3)
H11 H 0.8510 0.6086 0.5413
H12 H 0.7104 0.5292 0.4900
C16 C 0.8919(5) 0.7667(5) 0.4641(4)
C17 C 0.9599(5) 0.8224(4) 0.5452(4)
H13 H 0.9283 0.7950 0.5912
C18 C 0.9427(6) 0.8092(5) 0.3986(4)
H14 H 0.8999 0.7743 0.3428
C23 C 0.2836(7) 0.8983(7) 0.2183(5)
H17 H 0.2206 0.9238 0.1994
C24 C 0.3744(7) 0.7921(6) 0.2460(5)
H18 H 0.3883 0.7280 0.2498
C25 C 0.4634(7) 0.8950(6) 0.2755(5)
H19 H 0.5496 0.9166 0.3037
C37 C 0.3293(5) 0.6702(5) 0.4137(4)
H31 H 0.3166 0.6002 0.3908
C38 C 0.4189(7) 0.8375(5) 0.4750(5)
H32 H 0.4817 0.9065 0.5032
C39 C 0.2960(7) 0.8121(6) 0.4483(6)
H33 H 0.2553 0.8578 0.4548
C40 C 0.1047(6) 0.6333(6) 0.3774(5)
H34 H 0.0913 0.5831 0.3280
H35 H 0.0582 0.6780 0.3595
C41 C 0.0518(6) 0.5668(6) 0.4430(5)
C42 C 0.1128(7) 0.5901(6) 0.5254(5)
H36 H 0.1917 0.6518 0.5442
C50 C 0.0625(7) 0.5254(6) 0.5836(5)
H44 H 0.1063 0.5444 0.6412
Zn12 Zn 0.66617(6) 0.58856(5) 0.74827(4)
O26 O 0.0462(5) 0.2667(5) 0.8271(5)
O28 O 0.0453(4) 0.4266(4) 0.8419(3)
O30 O 0.2507(4) 0.4030(4) 0.3450(2)
O32 O 0.7250(5) 0.9061(5) 0.5549(4)
O34 O 0.7158(4) 0.8800(4) 0.4223(4)
N18 N 0.0736(5) 0.7244(5) 0.0222(4)
C43 C 0.9375(7) 0.4746(6) 0.4164(5)
H37 H 0.8937 0.4556 0.3588
N9 N 0.5590(5) 0.2503(4) 0.5441(3)
N10 N 0.7607(5) 0.2953(5) 0.5913(4)
C44 C 0.6707(5) 0.3298(5) 0.5863(4)
H38 H 0.6834 0.3998 0.6092
C45 C 0.5811(7) 0.1625(5) 0.5250(5)
H39 H 0.5183 0.0935 0.4968
C46 C 0.7040(7) 0.1879(6) 0.5517(6)
H40 H 0.7447 0.1422 0.5452
C47 C 0.8953(6) 0.3667(6) 0.6226(5)
H41 H 0.9087 0.4169 0.6720
H42 H 0.9418 0.3220 0.6405
C48 C 0.9482(6) 0.4332(6) 0.5570(5)
C49 C 0.8872(7) 0.4099(6) 0.4746(5)
H43 H 0.8083 0.3482 0.4558
O13 O 0.8225(5) 0.4272(4) 0.9066(3)
O14 O 0.7404(4) 0.4911(4) 0.7990(3)
O15 O 0.7213(5) 0.7389(3) 0.7950(3)
O16 O 0.7350(7) 0.8693(5) 0.8851(4)
O19 O 0.4833(4) 0.5229(3) 0.7017(2)
O20 O 0.4815(4) 0.3959(4) 0.6164(3)
O21 O 0.3555(4) 0.3230(4) 0.4246(3)
N11 N 0.6397(5) 0.5833(4) 0.9009(3)
N12 N 0.2255(4) 0.3234(4) 0.5475(3)
N13 N 0.7359(5) 0.2054(5) 0.7895(4)
N14 N 0.5966(5) 0.0385(5) 0.7437(4)
C51 C 0.7622(5) 0.4790(5) 0.8748(4)
C52 C 0.7137(6) 0.5243(6) 0.9360(4)
H45 H 0.7867 0.5740 0.9815
H46 H 0.6609 0.4633 0.9612
C53 C 0.6983(6) 0.7010(6) 0.9314(4)
H47 H 0.6454 0.7159 0.9632
H48 H 0.7815 0.7193 0.9709
C54 C 0.7170(6) 0.7755(6) 0.8659(4)
C55 C 0.5066(6) 0.5285(5) 0.8832(4)
C56 C 0.4443(6) 0.4152(5) 0.8728(4)
H49 H 0.4914 0.3729 0.8780
C57 C 0.4339(6) 0.5885(5) 0.8717(4)
H50 H 0.4742 0.6656 0.8755
C58 C 0.3129(6) 0.3635(5) 0.8550(4)
H51 H 0.2715 0.2862 0.8484
C59 C 0.3028(6) 0.5352(6) 0.8548(4)
H52 H 0.2547 0.5767 0.8487
C60 C 0.2421(6) 0.4234(5) 0.8467(4)
C61 C 0.1032(7) 0.3662(7) 0.8366(4)
C62 C 0.4266(6) 0.4385(5) 0.6490(4)
C63 C 0.2858(6) 0.3850(6) 0.6319(4)
H53 H 0.2548 0.4413 0.6381
H54 H 0.2621 0.3350 0.6736
C64 C 0.2835(5) 0.3691(4) 0.4126(3)
C65 C 0.2339(5) 0.3950(5) 0.4832(3)
H55 H 0.1490 0.3914 0.4587
H56 H 0.2896 0.4708 0.5100
C66 C 0.1081(5) 0.2333(5) 0.5359(4)
C67 C 0.0401(5) 0.1776(4) 0.4548(4)
H57 H 0.0717 0.2050 0.4088
C68 C 0.0573(6) 0.1908(5) 0.6014(4)
H58 H 0.1001 0.2257 0.6572
C73 C 0.7164(7) 0.1017(7) 0.7817(5)
H61 H 0.7794 0.0762 0.8006
C74 C 0.6256(7) 0.2079(6) 0.7540(5)
H62 H 0.6117 0.2720 0.7502
C75 C 0.5366(7) 0.1050(6) 0.7245(5)
H63 H 0.4504 0.0834 0.6963
C85 C 0.0540(7) 0.8139(7) 0.0028(5)
H73 H 0.0468 0.8635 0.0406
C69 C 0.9296(5) 0.0850(5) 0.4401(4)
H59 H 0.8866 0.0492 0.3846
C70 C 0.9449(6) 0.0981(5) 0.5855(4)
H60 H 0.9108 0.0712 0.6308
C71 C 0.8806(5) 0.0434(5) 0.5051(4)
C72 C 0.7669(6) 0.9378(6) 0.4941(6)
H71 H 0.9945 0.7178 0.7629
N5 N 0.9457(5) 0.2686(6) 0.1124(4)
C26 C 0.4571(8) 0.0795(6) 0.2737(5)
H20 H 0.4679 0.1013 0.3334
H21 H 0.3981 0.1059 0.2400
C27 C 0.5838(7) 0.1325(6) 0.2537(5)
C28 C 0.6965(8) 0.1688(7) 0.3131(5)
H22 H 0.6969 0.1600 0.3697
C29 C 0.5853(7) 0.1473(7) 0.1723(5)
H23 H 0.5087 0.1225 0.1293
C30 C 0.8091(7) 0.2176(6) 0.2930(5)
H24 H 0.8853 0.2407 0.3361
C31 C 0.7032(8) 0.2005(7) 0.1535(5)
H25 H 0.7043 0.2131 0.0977
C32 C 0.8152(7) 0.2340(6) 0.2134(4)
C33 C 0.9408(7) 0.2961(8) 0.1965(5)
H26 H 0.9628 0.3750 0.2061
C34 C 0.9535(8) 0.1796(8) 0.0799(6)
H28 H 0.9625 0.1231 0.1093
C36 C 0.9249(6) 0.3230(6) 0.0477(4)
H30 H 0.9110 0.3869 0.0521
N15 N 0.0543(5) 0.7314(6) 0.8876(4)
C76 C 0.5429(8) 0.9205(6) 0.7263(5)
H64 H 0.5321 0.8987 0.6666
H65 H 0.6019 0.8941 0.7600
C77 C 0.4162(7) 0.8675(6) 0.7463(5)
C78 C 0.3035(8) 0.8312(7) 0.6869(5)
H66 H 0.3031 0.8400 0.6303
C79 C 0.4147(7) 0.8527(7) 0.8277(5)
H67 H 0.4913 0.8775 0.8707
C80 C 0.1909(7) 0.7824(6) 0.7070(5)
H68 H 0.1147 0.7593 0.6639
C81 C 0.2968(8) 0.7995(7) 0.8465(5)
H69 H 0.2957 0.7869 0.9023
C82 C 0.1848(7) 0.7660(6) 0.7866(4)
C83 C 0.0592(7) 0.7039(8) 0.8035(5)
H70 H 0.0372 0.6250 0.7939
C84 C 0.0465(8) 0.8204(8) 0.9201(6)
H72 H 0.0375 0.8769 0.8907
C86 C 0.0751(6) 0.6770(6) 0.9523(4)
H74 H 0.0890 0.6131 0.9479
loop_
_geom_bond_atom_site_label_1
_geom_bond_atom_site_label_2
_geom_bond_site_symmetry_1
_geom_bond_site_symmetry_2
O11 C22 1_555 1_555
O12 C22 1_555 1_555
Zn14 O11 1_555 1_555
O12 Zn14 1_555 1_555
H15 C19 1_555 1_555
H16 C20 1_555 1_555
C21 C19 1_555 1_555
C20 C21 1_555 1_555
N6 C35 1_555 1_555
H29 C35 1_555 1_555
Zn10 N6 1_555 1_555
Zn8 O1 1_555 1_555
Zn2 O2 1_555 1_555
Zn3 O8 1_555 1_555
O1 C1 1_555 1_555
O2 C1 1_555 1_555
O3 Zn2 1_555 1_555
O4 C4 1_555 1_555
O5 C11 1_555 1_555
O6 C11 1_555 1_555
O7 Zn2 1_555 1_555
O8 C12 1_555 1_555
O9 Zn3 1_555 1_555
O10 C14 1_555 1_555
N1 C2 1_555 1_555
N2 Zn3 1_555 1_555
N3 Zn8 1_555 1_555
N4 C23 1_555 1_555
N7 Zn3 1_555 1_555
N8 C37 1_555 1_555
C1 C2 1_555 1_555
C2 H1 1_555 1_555
H2 C2 1_555 1_555
C3 N1 1_555 1_555
H3 C3 1_555 1_555
H4 C3 1_555 1_555
C4 O3 1_555 1_555
C5 N1 1_555 1_555
C6 C5 1_555 1_555
H5 C6 1_555 1_555
C7 C5 1_555 1_555
H6 C7 1_555 1_555
C8 C6 1_555 1_555
H7 C8 1_555 1_555
C9 C7 1_555 1_555
H8 C9 1_555 1_555
C10 C8 1_555 1_555
C11 C10 1_555 1_555
C12 O7 1_555 1_555
C13 N2 1_555 1_555
H9 C13 1_555 1_555
H10 C13 1_555 1_555
C14 O9 1_555 1_555
C15 N2 1_555 1_555
H11 C15 1_555 1_555
H12 C15 1_555 1_555
C16 N2 1_555 1_555
C17 C16 1_555 1_555
H13 C17 1_555 1_555
C18 C16 1_555 1_555
H14 C18 1_555 1_555
C23 N3 1_555 1_555
H17 C23 1_555 1_555
C24 N3 1_555 1_555
H18 C24 1_555 1_555
C25 N4 1_555 1_555
H19 C25 1_555 1_555
C37 N7 1_555 1_555
H31 C37 1_555 1_555
C38 N7 1_555 1_555
H32 C38 1_555 1_555
C39 N8 1_555 1_555
H33 C39 1_555 1_555
C40 N8 1_555 1_555
H34 C40 1_555 1_555
H35 C40 1_555 1_555
C41 C40 1_555 1_555
C42 C41 1_555 1_555
H36 C42 1_555 1_555
C50 C42 1_555 1_555
H44 C50 1_555 1_555
Zn12 O10 1_555 1_555
O30 Zn2 1_555 1_555
O32 Zn3 1_555 1_555
O34 Zn3 1_555 1_555
N18 Zn8 1_555 1_555
C3 C4 1_555 1_555
C9 C10 1_555 1_555
C12 C13 1_555 1_555
C14 C15 1_555 1_555
C24 C25 1_555 1_555
C38 C39 1_555 1_555
H37 C43 1_555 1_555
N9 C44 1_555 1_555
N10 C44 1_555 1_555
C44 H38 1_555 1_555
C45 N9 1_555 1_555
H39 C45 1_555 1_555
C46 N10 1_555 1_555
H40 C46 1_555 1_555
C47 N10 1_555 1_555
H41 C47 1_555 1_555
H42 C47 1_555 1_555
C48 C47 1_555 1_555
C49 C43 1_555 1_555
H43 C49 1_555 1_555
Zn10 O13 1_555 1_555
Zn12 O14 1_555 1_555
Zn14 N9 1_555 1_555
O13 C51 1_555 1_555
O14 C51 1_555 1_555
O15 Zn12 1_555 1_555
O16 C54 1_555 1_555
O26 C61 1_555 1_555
O28 C61 1_555 1_555
O19 Zn12 1_555 1_555
O20 Zn14 1_555 1_555
O21 Zn14 1_555 1_555
O30 C64 1_555 1_555
N11 C52 1_555 1_555
N12 Zn14 1_555 1_555
N13 Zn10 1_555 1_555
N14 C73 1_555 1_555
C51 C52 1_555 1_555
C52 H45 1_555 1_555
H46 C52 1_555 1_555
C53 N11 1_555 1_555
H47 C53 1_555 1_555
H48 C53 1_555 1_555
C54 O15 1_555 1_555
C55 N11 1_555 1_555
C56 C55 1_555 1_555
H49 C56 1_555 1_555
C57 C55 1_555 1_555
H50 C57 1_555 1_555
C58 C56 1_555 1_555
H51 C58 1_555 1_555
C59 C57 1_555 1_555
H52 C59 1_555 1_555
C60 C58 1_555 1_555
C61 C60 1_555 1_555
C62 O19 1_555 1_555
C63 N12 1_555 1_555
H53 C63 1_555 1_555
H54 C63 1_555 1_555
C64 O21 1_555 1_555
C65 N12 1_555 1_555
H55 C65 1_555 1_555
H56 C65 1_555 1_555
C66 N12 1_555 1_555
C67 C66 1_555 1_555
H57 C67 1_555 1_555
C68 C66 1_555 1_555
H58 C68 1_555 1_555
C73 N13 1_555 1_555
H61 C73 1_555 1_555
C74 N13 1_555 1_555
H62 C74 1_555 1_555
C75 N14 1_555 1_555
H63 C75 1_555 1_555
C45 C46 1_555 1_555
C48 C49 1_555 1_555
O20 C62 1_555 1_555
C53 C54 1_555 1_555
C59 C60 1_555 1_555
C62 C63 1_555 1_555
C64 C65 1_555 1_555
C74 C75 1_555 1_555
N18 C85 1_555 1_555
H73 C85 1_555 1_555
H59 C69 1_555 1_555
H60 C70 1_555 1_555
C71 C69 1_555 1_555
C70 C71 1_555 1_555
O32 C72 1_555 1_555
O34 C72 1_555 1_555
N5 C33 1_555 1_555
H20 C26 1_555 1_555
H21 C26 1_555 1_555
C27 C26 1_555 1_555
C28 C27 1_555 1_555
H22 C28 1_555 1_555
C29 C27 1_555 1_555
H23 C29 1_555 1_555
C30 C28 1_555 1_555
H24 C30 1_555 1_555
C31 C29 1_555 1_555
H25 C31 1_555 1_555
C32 C30 1_555 1_555
C33 C32 1_555 1_555
H26 C33 1_555 1_555
C34 N5 1_555 1_555
H28 C34 1_555 1_555
C36 N5 1_555 1_555
H30 C36 1_555 1_555
C31 C32 1_555 1_555
N15 C83 1_555 1_555
H64 C76 1_555 1_555
H65 C76 1_555 1_555
C77 C76 1_555 1_555
C78 C77 1_555 1_555
H66 C78 1_555 1_555
C79 C77 1_555 1_555
H67 C79 1_555 1_555
C80 C78 1_555 1_555
H68 C80 1_555 1_555
C81 C79 1_555 1_555
H69 C81 1_555 1_555
C82 C80 1_555 1_555
C83 C82 1_555 1_555
H70 C83 1_555 1_555
C84 N15 1_555 1_555
H72 C84 1_555 1_555
C86 N15 1_555 1_555
H74 C86 1_555 1_555
C81 C82 1_555 1_555

#END
