
###############################################################################
#
# This file contains modified crystal structure data generated from the
# MOF subset of the Cambridge Structural Database (CSD) v543 
# hosted by the Cambridge Crystallographic Data Centre (CCDC).
#
# This work is licensed under the Creative Commons
# Attribution-NonCommercial-ShareAlike 4.0 International License.
# To view a copy of this license, visit
# http://creativecommons.org/licenses/by-nc-sa/4.0/
# or send a letter to
# Creative Commons, PO Box 1866, Mountain View, CA 94042, USA.
#
# CIF created using the CSD Python API on 29 September 2022
# The structure has been converted into the P1 space group
# The structure has a 3D framework
# The original CSD entry EWASIG is in the triclinic crystal system
# The framework has been calculated to contain at least 10.0% void space
# The void calculation uses a probe of radius 1.32A, grid spacing 0.4
#
###############################################################################

data_EWASIG
_chemical_formula_moiety         '(C44 H42 Eu2 N4 O20)n'
_symmetry_cell_setting           triclinic
_symmetry_space_group_name_H-M   'P 1'
_symmetry_Int_Tables_number      1
_space_group_name_Hall           'P 1'
loop_
_symmetry_equiv_pos_site_id
_symmetry_equiv_pos_as_xyz
1 x,y,z
_cell_length_a                   10.4640(4)
_cell_length_b                   12.0162(5)
_cell_length_c                   13.1846(5)
_cell_angle_alpha                83.780(3)
_cell_angle_beta                 86.014(3)
_cell_angle_gamma                75.659(4)
_cell_volume                     1595.12
loop_
_atom_site_label
_atom_site_type_symbol
_atom_site_fract_x
_atom_site_fract_y
_atom_site_fract_z
_atom_site_U_iso_or_equiv
_atom_site_thermal_displace_type
Eu9 Eu 0.607319(17) 0.617863(14) 0.047577(13) 0.0068 Uani
O3 O 0.1541(2) 0.3987(2) 0.02246(18) 0.0109 Uani
O4 O 0.2899(2) 0.2273(2) 0.00797(19) 0.0125 Uani
O5 O 0.3895(2) 0.3909(2) 0.13165(18) 0.0118 Uani
O6 O 0.4547(2) 0.5496(2) 0.15731(18) 0.0112 Uani
O9 O 0.3522(3) 0.1119(2) 0.4302(2) 0.0286 Uani
H1 H 0.3302 0.0546 0.4621 0.0340 Uiso
O10 O 0.3483(4) 0.1669(3) 0.5870(2) 0.0352 Uani
C2 C 0.4796(4) 0.4614(3) 0.4671(3) 0.0120 Uani
C3 C 0.4709(4) 0.4894(3) 0.3615(3) 0.0116 Uani
H5 H 0.4922 0.5585 0.3315 0.0140 Uiso
C9 C 0.1748(3) 0.2918(3) 0.0188(3) 0.0097 Uani
C10 C 0.4251(3) 0.4550(3) 0.1870(3) 0.0112 Uani
C11 C 0.0606(3) 0.2360(3) 0.0207(3) 0.0097 Uani
C12 C 0.3988(4) 0.3175(3) 0.3409(3) 0.0119 Uani
H17 H 0.3717 0.2693 0.2984 0.0140 Uiso
C13 C 0.4460(4) 0.3589(3) 0.5076(3) 0.0146 Uani
H18 H 0.4507 0.3372 0.5790 0.0180 Uiso
C15 C 0.0871(4) 0.1182(3) 0.0119(3) 0.0097 Uani
H20 H 0.1761 0.0744 0.0097 0.0120 Uiso
C18 C 0.4320(3) 0.4188(3) 0.2997(3) 0.0112 Uani
C21 C 0.4063(4) 0.2885(3) 0.4458(3) 0.0143 Uani
C22 C 0.3666(4) 0.1830(3) 0.4957(3) 0.0221 Uani
O15 O 0.6105(2) 0.6091(2) 0.86835(18) 0.0118 Uani
O16 O 0.5453(2) 0.4504(2) 0.84269(18) 0.0112 Uani
O17 O 0.6478(3) 0.8881(2) 0.5698(2) 0.0286 Uani
H25 H 0.6698 0.9454 0.5379 0.0340 Uiso
O18 O 0.6517(4) 0.8331(3) 0.4130(2) 0.0352 Uani
C31 C 0.5204(4) 0.5386(3) 0.5329(3) 0.0120 Uani
C32 C 0.5291(4) 0.5106(3) 0.6385(3) 0.0116 Uani
H26 H 0.5078 0.4415 0.6685 0.0140 Uiso
C33 C 0.5749(3) 0.5450(3) 0.8130(3) 0.0112 Uani
C34 C 0.6012(4) 0.6825(3) 0.6591(3) 0.0119 Uani
H27 H 0.6283 0.7307 0.7016 0.0140 Uiso
C35 C 0.5540(4) 0.6411(3) 0.4924(3) 0.0146 Uani
H28 H 0.5493 0.6628 0.4210 0.0180 Uiso
C36 C 0.5680(3) 0.5812(3) 0.7003(3) 0.0112 Uani
C37 C 0.5937(4) 0.7115(3) 0.5542(3) 0.0143 Uani
C38 C 0.6334(4) 0.8170(3) 0.5043(3) 0.0221 Uani
Eu5 Eu 0.392681(17) 0.382137(14) 0.952423(13) 0.0068 Uani
O26 O 0.6007(2) 0.2656(2) 0.00839(18) 0.0111 Uani
O1 O 0.2436(3) 0.4306(2) 0.8089(2) 0.0176 Uani
O2 O 0.4659(3) 0.2323(2) 0.83532(19) 0.0158 Uani
N1 N 0.0637(3) 0.4949(3) 0.7126(2) 0.0183 Uani
N2 N 0.4524(4) 0.0516(3) 0.8122(3) 0.0364 Uani
H2 H 0.2929 0.0202 0.7560 0.0550 Uiso
H6 H 0.6197 0.0506 0.8772 0.0550 Uiso
C5 C 0.1235(4) 0.4728(3) 0.8000(3) 0.0155 Uani
H9 H 0.0708 0.4905 0.8605 0.0190 Uiso
C6 C 0.4062(4) 0.1627(3) 0.8106(3) 0.0155 Uani
H10 H 0.3188 0.1934 0.7886 0.0190 Uiso
C8 C 0.1367(4) 0.4662(4) 0.6165(3) 0.0293 Uani
H14 H 0.2306 0.4353 0.6293 0.0440 Uiso
H15 H 0.1257 0.5358 0.5686 0.0440 Uiso
H16 H 0.1028 0.4083 0.5872 0.0440 Uiso
O25 O 0.3333(2) 0.5799(2) 0.95711(18) 0.0114 Uani
C43 C 0.0778(4) 0.4553(4) 0.2923(3) 0.0296 Uani
H37 H 0.1152 0.4387 0.2238 0.0440 Uiso
H38 H 0.1198 0.5101 0.3186 0.0440 Uiso
H39 H 0.0936 0.3837 0.3379 0.0440 Uiso
C1 C 0.3810(5) 0.9756(4) 0.7753(4) 0.0364 Uani
H3 H 0.3727 0.9148 0.8294 0.0550 Uiso
H4 H 0.4293 0.9407 0.7157 0.0550 Uiso
C4 C 0.5865(5) 0.9980(4) 0.8400(4) 0.0364 Uani
H7 H 0.6424 0.9810 0.7781 0.0550 Uiso
H8 H 0.5884 0.9262 0.8835 0.0550 Uiso
O14 O 0.3993(2) 0.7344(2) 0.99161(18) 0.0111 Uani
C25 C 0.0682(3) 0.6981(3) 0.9749(3) 0.0097 Uani
H22 H 0.0863 0.6173 0.9699 0.0120 Uiso
C27 C 0.3116(3) 0.6838(3) 0.9747(3) 0.0097 Uani
C28 C 0.1442(3) 0.8701(3) 0.9873(3) 0.0097 Uani
H24 H 0.2156 0.9055 0.9894 0.0120 Uiso
C29 C 0.0144(3) 0.9374(3) 0.9938(3) 0.0097 Uani
C30 C 0.1703(3) 0.7524(3) 0.9779(3) 0.0097 Uani
O7 O 0.6667(2) 0.4201(2) 0.04289(18) 0.0114 Uani
C14 C 0.9318(3) 0.3019(3) 0.0251(3) 0.0097 Uani
H19 H 0.9137 0.3827 0.0301 0.0120 Uiso
C16 C 0.6884(3) 0.3162(3) 0.0253(3) 0.0097 Uani
C17 C 0.8558(3) 0.1299(3) 0.0127(3) 0.0097 Uani
H21 H 0.7844 0.0945 0.0106 0.0120 Uiso
C19 C 0.9856(3) 0.0626(3) 0.0062(3) 0.0097 Uani
C20 C 0.8297(3) 0.2476(3) 0.0221(3) 0.0097 Uani
C39 C 0.6190(5) 0.0244(4) 0.2247(4) 0.0364 Uani
H30 H 0.6273 0.0852 0.1706 0.0550 Uiso
H31 H 0.5707 0.0593 0.2843 0.0550 Uiso
C40 C 0.4135(5) 0.0020(4) 0.1600(4) 0.0364 Uani
H33 H 0.3576 0.0190 0.2219 0.0550 Uiso
H34 H 0.4116 0.0738 0.1165 0.0550 Uiso
C7 C 0.9222(4) 0.5447(4) 0.7077(3) 0.0296 Uani
H11 H 0.8848 0.5613 0.7762 0.0440 Uiso
H12 H 0.8802 0.4899 0.6814 0.0440 Uiso
H13 H 0.9064 0.6163 0.6621 0.0440 Uiso
O19 O 0.7564(3) 0.5694(2) 0.1911(2) 0.0176 Uani
O20 O 0.5341(3) 0.7677(2) 0.16468(19) 0.0158 Uani
N3 N 0.9363(3) 0.5051(3) 0.2874(2) 0.0183 Uani
N4 N 0.5476(4) 0.9484(3) 0.1878(3) 0.0364 Uani
H29 H 0.7071 0.9798 0.2440 0.0550 Uiso
H32 H 0.3803 0.9494 0.1228 0.0550 Uiso
C41 C 0.8765(4) 0.5272(3) 0.2000(3) 0.0155 Uani
H35 H 0.9292 0.5095 0.1395 0.0190 Uiso
C42 C 0.5938(4) 0.8373(3) 0.1894(3) 0.0155 Uani
H36 H 0.6812 0.8066 0.2114 0.0190 Uiso
C44 C 0.8633(4) 0.5338(4) 0.3835(3) 0.0293 Uani
H40 H 0.7694 0.5647 0.3707 0.0440 Uiso
H41 H 0.8743 0.4642 0.4314 0.0440 Uiso
H42 H 0.8972 0.5917 0.4128 0.0440 Uiso
O11 O 0.8459(2) 0.6013(2) 0.97754(18) 0.0109 Uani
O12 O 0.7101(2) 0.7727(2) 0.99203(19) 0.0125 Uani
C23 C 0.8252(3) 0.7082(3) 0.9812(3) 0.0097 Uani
C24 C 0.9394(3) 0.7640(3) 0.9793(3) 0.0097 Uani
C26 C 0.9129(4) 0.8818(3) 0.9881(3) 0.0097 Uani
H23 H 0.8239 0.9256 0.9903 0.0120 Uiso
loop_
_atom_site_aniso_label
_atom_site_aniso_U_11
_atom_site_aniso_U_22
_atom_site_aniso_U_33
_atom_site_aniso_U_23
_atom_site_aniso_U_13
_atom_site_aniso_U_12
Eu9 0.006 0.00522 0.00942 -0.0014 -0.00113 -0.00132
O3 0.0109 0.0058 0.0171 -0.002 -0.0011 -0.0033
O4 0.0059 0.0076 0.0239 -0.0016 -0.0013 -0.0011
O5 0.0121 0.0132 0.0123 -0.0028 -0.0021 -0.0061
O6 0.0115 0.0095 0.013 -0.0018 0.002 -0.0038
O9 0.056 0.0204 0.0178 -0.0019 -0.0005 -0.0256
O10 0.07 0.0288 0.0147 0.0029 -0.0008 -0.0295
C2 0.013 0.011 0.0116 -0.0016 0.002 -0.0026
C3 0.012 0.0111 0.0122 -0.0002 0.0004 -0.0041
C9 0.0098 0.0078 0.0113 -0.0005 -0.0014 -0.0014
C10 0.0024 0.016 0.0137 -0.0019 -0.0006 0.0011
C11 0.0098 0.0078 0.0113 -0.0005 -0.0014 -0.0014
C12 0.013 0.0104 0.0134 -0.0054 -0.0018 -0.0028
C13 0.018 0.017 0.0085 0.0001 -0.002 -0.0037
C15 0.0098 0.0078 0.0113 -0.0005 -0.0014 -0.0014
C18 0.0059 0.014 0.0123 -0.0007 0.0004 -0.0003
C21 0.02 0.014 0.01 0.0012 -0.0017 -0.0071
C22 0.033 0.02 0.016 -0.0012 -0.0013 -0.0115
O15 0.0121 0.0132 0.0123 -0.0028 -0.0021 -0.0061
O16 0.0115 0.0095 0.013 -0.0018 0.002 -0.0038
O17 0.056 0.0204 0.0178 -0.0019 -0.0005 -0.0256
O18 0.07 0.0288 0.0147 0.0029 -0.0008 -0.0295
C31 0.013 0.011 0.0116 -0.0016 0.002 -0.0026
C32 0.012 0.0111 0.0122 -0.0002 0.0004 -0.0041
C33 0.0024 0.016 0.0137 -0.0019 -0.0006 0.0011
C34 0.013 0.0104 0.0134 -0.0054 -0.0018 -0.0028
C35 0.018 0.017 0.0085 0.0001 -0.002 -0.0037
C36 0.0059 0.014 0.0123 -0.0007 0.0004 -0.0003
C37 0.02 0.014 0.01 0.0012 -0.0017 -0.0071
C38 0.033 0.02 0.016 -0.0012 -0.0013 -0.0115
Eu5 0.006 0.00522 0.00942 -0.0014 -0.00113 -0.00132
O26 0.0083 0.0085 0.0172 -0.0011 -0.0023 -0.0027
O1 0.0139 0.0203 0.0184 -0.0039 -0.0045 -0.0021
O2 0.0167 0.0137 0.0197 -0.0114 0.0006 -0.0049
N1 0.0146 0.0187 0.0194 -0.0018 -0.0055 0.0013
N2 0.0474 0.0183 0.0447 -0.0038 -0.019 -0.0051
C5 0.018 0.015 0.0143 -0.002 -0.0053 -0.004
C6 0.021 0.015 0.0095 -0.001 0.0027 -0.0032
C8 0.023 0.048 0.015 0.001 -0.0069 -0.005
O25 0.0108 0.0051 0.0169 -0.0014 0 0.0007
C43 0.019 0.035 0.031 -0.003 -0.0108 0.003
C1 0.0474 0.0183 0.0447 -0.0038 -0.019 -0.0051
C4 0.0474 0.0183 0.0447 -0.0038 -0.019 -0.0051
O14 0.0083 0.0085 0.0172 -0.0011 -0.0023 -0.0027
C25 0.0098 0.0078 0.0113 -0.0005 -0.0014 -0.0014
C27 0.0098 0.0078 0.0113 -0.0005 -0.0014 -0.0014
C28 0.0098 0.0078 0.0113 -0.0005 -0.0014 -0.0014
C29 0.0098 0.0078 0.0113 -0.0005 -0.0014 -0.0014
C30 0.0098 0.0078 0.0113 -0.0005 -0.0014 -0.0014
O7 0.0108 0.0051 0.0169 -0.0014 0 0.0007
C14 0.0098 0.0078 0.0113 -0.0005 -0.0014 -0.0014
C16 0.0098 0.0078 0.0113 -0.0005 -0.0014 -0.0014
C17 0.0098 0.0078 0.0113 -0.0005 -0.0014 -0.0014
C19 0.0098 0.0078 0.0113 -0.0005 -0.0014 -0.0014
C20 0.0098 0.0078 0.0113 -0.0005 -0.0014 -0.0014
C39 0.0474 0.0183 0.0447 -0.0038 -0.019 -0.0051
C40 0.0474 0.0183 0.0447 -0.0038 -0.019 -0.0051
C7 0.019 0.035 0.031 -0.003 -0.0108 0.003
O19 0.0139 0.0203 0.0184 -0.0039 -0.0045 -0.0021
O20 0.0167 0.0137 0.0197 -0.0114 0.0006 -0.0049
N3 0.0146 0.0187 0.0194 -0.0018 -0.0055 0.0013
N4 0.0474 0.0183 0.0447 -0.0038 -0.019 -0.0051
C41 0.018 0.015 0.0143 -0.002 -0.0053 -0.004
C42 0.021 0.015 0.0095 -0.001 0.0027 -0.0032
C44 0.023 0.048 0.015 0.001 -0.0069 -0.005
O11 0.0109 0.0058 0.0171 -0.002 -0.0011 -0.0033
O12 0.0059 0.0076 0.0239 -0.0016 -0.0013 -0.0011
C23 0.0098 0.0078 0.0113 -0.0005 -0.0014 -0.0014
C24 0.0098 0.0078 0.0113 -0.0005 -0.0014 -0.0014
C26 0.0098 0.0078 0.0113 -0.0005 -0.0014 -0.0014
loop_
_geom_bond_atom_site_label_1
_geom_bond_atom_site_label_2
_geom_bond_site_symmetry_1
_geom_bond_site_symmetry_2
O6 C10 1_555 1_555
O9 H1 1_555 1_555
O10 C22 1_555 1_555
C2 C3 1_555 1_555
C3 H5 1_555 1_555
C9 O3 1_555 1_555
C10 O5 1_555 1_555
C11 C9 1_555 1_555
C12 H17 1_555 1_555
C13 C2 1_555 1_555
H18 C13 1_555 1_555
C15 C11 1_555 1_555
H20 C15 1_555 1_555
C18 C3 1_555 1_555
C21 C12 1_555 1_555
C22 O9 1_555 1_555
O15 C33 1_555 1_555
O16 C33 1_555 1_555
O17 H25 1_555 1_555
O18 C38 1_555 1_555
C31 C2 1_555 1_555
C32 C31 1_555 1_555
H26 C32 1_555 1_555
C33 C36 1_555 1_555
C34 H27 1_555 1_555
C35 C31 1_555 1_555
H28 C35 1_555 1_555
C36 C32 1_555 1_555
C37 C34 1_555 1_555
C38 O17 1_555 1_555
Eu5 O16 1_555 1_555
Eu9 O6 1_555 1_555
O4 C9 1_555 1_555
C10 C18 1_555 1_555
C12 C18 1_555 1_555
C13 C21 1_555 1_555
C21 C22 1_555 1_555
C34 C36 1_555 1_555
C35 C37 1_555 1_555
C37 C38 1_555 1_555
Eu5 O1 1_555 1_555
O1 C5 1_555 1_555
O2 Eu5 1_555 1_555
N1 C5 1_555 1_555
C5 H9 1_555 1_555
C6 O2 1_555 1_555
H10 C6 1_555 1_555
C8 N1 1_555 1_555
H14 C8 1_555 1_555
H15 C8 1_555 1_555
H16 C8 1_555 1_555
O25 Eu5 1_555 1_555
N2 C6 1_555 1_555
H37 C43 1_555 1_555
H38 C43 1_555 1_555
H39 C43 1_555 1_555
H3 C1 1_555 1_555
H4 C1 1_555 1_555
H7 C4 1_555 1_555
H8 C4 1_555 1_555
O25 C27 1_555 1_555
O14 C27 1_555 1_555
C25 H22 1_555 1_555
C27 C30 1_555 1_555
C28 H24 1_555 1_555
C30 C25 1_555 1_555
C28 C29 1_555 1_555
C28 C30 1_555 1_555
O7 C16 1_555 1_555
O26 C16 1_555 1_555
H19 C14 1_555 1_555
C16 C20 1_555 1_555
C17 H21 1_555 1_555
C20 C14 1_555 1_555
H30 C39 1_555 1_555
H31 C39 1_555 1_555
H33 C40 1_555 1_555
H34 C40 1_555 1_555
Eu9 O7 1_555 1_555
C17 C19 1_555 1_555
C17 C20 1_555 1_555
H11 C7 1_555 1_555
H12 C7 1_555 1_555
H13 C7 1_555 1_555
O19 Eu9 1_555 1_555
O20 Eu9 1_555 1_555
N3 C41 1_555 1_555
C41 O19 1_555 1_555
H35 C41 1_555 1_555
C42 O20 1_555 1_555
H36 C42 1_555 1_555
C44 N3 1_555 1_555
H40 C44 1_555 1_555
H41 C44 1_555 1_555
H42 C44 1_555 1_555
N4 C42 1_555 1_555
O11 C23 1_555 1_555
O12 C23 1_555 1_555
C23 C24 1_555 1_555
C26 C24 1_555 1_555
H23 C26 1_555 1_555

#END
