
###############################################################################
#
# This file contains modified crystal structure data generated from the
# MOF subset of the Cambridge Structural Database (CSD) v543 
# hosted by the Cambridge Crystallographic Data Centre (CCDC).
#
# This work is licensed under the Creative Commons
# Attribution-NonCommercial-ShareAlike 4.0 International License.
# To view a copy of this license, visit
# http://creativecommons.org/licenses/by-nc-sa/4.0/
# or send a letter to
# Creative Commons, PO Box 1866, Mountain View, CA 94042, USA.
#
# CIF created using the CSD Python API on 29 September 2022
# The structure has been converted into the P1 space group
# The structure has a 3D framework
# The original CSD entry EWASIG01 is in the triclinic crystal system
# The framework has been calculated to contain at least 10.0% void space
# The void calculation uses a probe of radius 1.32A, grid spacing 0.4
# H atom positions have been added when not included in the experimental data
#
###############################################################################

data_EWASIG01
_chemical_formula_moiety         '(C44 H44 Eu2 N4 O19)n'
_symmetry_cell_setting           triclinic
_symmetry_space_group_name_H-M   'P 1'
_symmetry_Int_Tables_number      1
_space_group_name_Hall           'P 1'
loop_
_symmetry_equiv_pos_site_id
_symmetry_equiv_pos_as_xyz
1 x,y,z
_cell_length_a                   10.4702(4)
_cell_length_b                   12.0131(5)
_cell_length_c                   13.1765(6)
_cell_angle_alpha                83.827(4)
_cell_angle_beta                 85.920(4)
_cell_angle_gamma                75.686(4)
_cell_volume                     1594.86
loop_
_atom_site_label
_atom_site_type_symbol
_atom_site_fract_x
_atom_site_fract_y
_atom_site_fract_z
_atom_site_U_iso_or_equiv
_atom_site_thermal_displace_type
O2 O 0.6106(2) 0.10937(19) 0.36839(16) 0.0103 Uani
O8 O 0.6480(3) 0.3891(2) 0.06973(19) 0.0252 Uani
C3 C 0.5687(3) 0.0806(3) 0.2005(2) 0.0093 Uani
C4 C 0.5759(3) 0.0441(3) 0.3134(2) 0.0084 Uani
C5 C 0.5205(3) 0.0380(3) 0.0332(3) 0.0116 Uani
C6 C 0.6012(3) 0.1819(3) 0.1592(2) 0.0112 Uani
H2 H 0.6280 0.2300 0.2019 0.0130 Uiso
C9 C 0.5288(3) 0.0107(3) 0.1383(3) 0.0112 Uani
C12 C 0.5938(3) 0.2121(3) 0.0543(3) 0.0130 Uani
C13 C 0.6337(4) 0.3172(3) 0.0041(3) 0.0190 Uani
H10 H 0.1208 0.0352 0.0672 0.0420 Uiso
Eu9 Eu 0.607218(16) 0.117797(14) 0.547776(13) 0.0036 Uani
O25 O 0.3332(2) 0.07990(18) 0.45679(17) 0.0113 Uani
H41 H 0.586494 0.465527 0.054071 . .
O9 O 0.6517(3) 0.3334(2) 0.9127(2) 0.0322 Uani
C8 C 0.5542(4) 0.1412(3) 0.9924(3) 0.0145 Uani
H3 H 0.5498 0.1627 0.9210 0.0180 Uiso
O11 O 0.4538(2) 0.04998(19) 0.65715(17) 0.0095 Uani
H23 H 0.4935 0.0580 0.8317 0.0130 Uiso
Eu1 Eu 0.392782(16) 0.882203(14) 0.452224(13) 0.0036 Uani
O1 O 0.5462(2) 0.95002(19) 0.34285(17) 0.0095 Uani
O3 O 0.1540(2) 0.89927(18) 0.52222(17) 0.0098 Uani
O5 O 0.2899(2) 0.72722(18) 0.50723(18) 0.0110 Uani
O6 O 0.4664(2) 0.7325(2) 0.33462(18) 0.0152 Uani
O7 O 0.2431(2) 0.9304(2) 0.30775(18) 0.0151 Uani
C1 C 0.1243(4) 0.9729(3) 0.3003(3) 0.0143 Uani
H1 H 0.0723 0.9910 0.3612 0.0170 Uiso
C2 C 0.1747(3) 0.7912(3) 0.5183(2) 0.0085 Uani
N1 N 0.0640(3) 0.9951(3) 0.2125(2) 0.0174 Uani
N2 N 0.4526(3) 0.5514(3) 0.3114(2) 0.0241 Uani
C7 C 0.0605(3) 0.7361(3) 0.5206(2) 0.0090 Uani
H4 H 0.5065 0.9420 0.1683 0.0130 Uiso
C10 C 0.3801(5) 0.4764(3) 0.2753(3) 0.0271 Uani
H5 H 0.2908 0.5208 0.2594 0.0410 Uiso
H6 H 0.3750 0.4138 0.3285 0.0410 Uiso
H7 H 0.4254 0.4437 0.2137 0.0410 Uiso
C11 C 0.4063(4) 0.6630(3) 0.3098(3) 0.0145 Uani
H8 H 0.3190 0.6937 0.2879 0.0170 Uiso
C14 C 0.1360(4) 0.9665(4) 0.1163(3) 0.0277 Uani
H9 H 0.2306 0.9396 0.1280 0.0420 Uiso
H11 H 0.1052 0.9055 0.0892 0.0420 Uiso
C19 C 0.0861(3) 0.6186(3) 0.5114(2) 0.0096 Uani
H16 H 0.1751 0.5750 0.5085 0.0120 Uiso
C22 C 0.5864(7) 0.4973(5) 0.3405(6) 0.0845 Uani
H18 H 0.6449 0.4872 0.2790 0.1260 Uiso
H19 H 0.5888 0.4218 0.3779 0.1260 Uiso
H20 H 0.6159 0.5462 0.3842 0.1260 Uiso
O14 O 0.3483(3) 0.6666(2) 0.0873(2) 0.0322 Uani
C27 C 0.4458(4) 0.8588(3) 0.0076(3) 0.0145 Uani
H22 H 0.4502 0.8373 0.0790 0.0180 Uiso
O18 O 0.3987(2) 0.23517(18) 0.49172(17) 0.0102 Uani
C33 C 0.1713(3) 0.2527(3) 0.4778(2) 0.0072 Uani
C34 C 0.0687(3) 0.1975(3) 0.4749(2) 0.0092 Uani
H24 H 0.0869 0.1168 0.4700 0.0110 Uiso
C35 C 0.3121(3) 0.1844(3) 0.4750(2) 0.0085 Uani
C37 C 0.0141(3) 0.4370(3) 0.4936(2) 0.0092 Uani
C38 C 0.1440(3) 0.3702(3) 0.4871(2) 0.0080 Uani
H26 H 0.2149 0.4062 0.4891 0.0100 Uiso
H36 H 0.1190 0.0125 0.8162 0.0420 Uiso
O23 O 0.3894(2) 0.89063(19) 0.63161(16) 0.0103 Uani
O26 O 0.6013(2) 0.76483(18) 0.50828(17) 0.0102 Uani
O13 O 0.3520(3) 0.6109(2) 0.93027(19) 0.0252 Uani
C23 C 0.4313(3) 0.9194(3) 0.7995(2) 0.0093 Uani
C24 C 0.4241(3) 0.9559(3) 0.6866(2) 0.0084 Uani
C25 C 0.4795(3) 0.9620(3) 0.9668(3) 0.0116 Uani
C26 C 0.3988(3) 0.8181(3) 0.8408(2) 0.0112 Uani
H21 H 0.3720 0.7700 0.7981 0.0130 Uiso
C28 C 0.4712(3) 0.9893(3) 0.8617(3) 0.0112 Uani
C29 C 0.4062(3) 0.7879(3) 0.9457(3) 0.0130 Uani
C30 C 0.3663(4) 0.6828(3) 0.9959(3) 0.0190 Uani
H42 H 0.259786 0.602273 0.936078 . .
C43 C 0.0773(4) 0.9565(4) 0.7916(3) 0.0278 Uani
H35 H 0.1142 0.9385 0.7232 0.0420 Uiso
H37 H 0.0942 0.8857 0.8383 0.0420 Uiso
C15 C 0.9227(4) 0.0435(4) 0.2084(3) 0.0278 Uani
H12 H 0.8858 0.0615 0.2768 0.0420 Uiso
H14 H 0.9058 0.1143 0.1617 0.0420 Uiso
O4 O 0.6668(2) 0.92010(18) 0.54321(17) 0.0113 Uani
H13 H 0.8810 0.9875 0.1838 0.0420 Uiso
C16 C 0.8287(3) 0.7473(3) 0.5222(2) 0.0072 Uani
C17 C 0.9313(3) 0.8025(3) 0.5251(2) 0.0092 Uani
H15 H 0.9131 0.8832 0.5300 0.0110 Uiso
C18 C 0.6879(3) 0.8156(3) 0.5250(2) 0.0085 Uani
C20 C 0.9859(3) 0.5630(3) 0.5064(2) 0.0092 Uani
C21 C 0.8560(3) 0.6298(3) 0.5129(2) 0.0080 Uani
H17 H 0.7851 0.5938 0.5109 0.0100 Uiso
O15 O 0.8460(2) 0.10073(18) 0.47778(17) 0.0098 Uani
O17 O 0.7101(2) 0.27278(18) 0.49277(18) 0.0110 Uani
C31 C 0.8253(3) 0.2088(3) 0.4817(2) 0.0085 Uani
C32 C 0.9395(3) 0.2639(3) 0.4794(2) 0.0090 Uani
C36 C 0.9139(3) 0.3814(3) 0.4886(2) 0.0096 Uani
H25 H 0.8249 0.4250 0.4915 0.0120 Uiso
O19 O 0.5336(2) 0.2675(2) 0.66538(18) 0.0152 Uani
O20 O 0.7569(2) 0.0696(2) 0.69225(18) 0.0151 Uani
C39 C 0.8757(4) 0.0271(3) 0.6997(3) 0.0143 Uani
H27 H 0.9277 0.0090 0.6388 0.0170 Uiso
N3 N 0.9360(3) 0.0049(3) 0.7875(2) 0.0174 Uani
N4 N 0.5474(3) 0.4486(3) 0.6886(2) 0.0241 Uani
C40 C 0.6199(5) 0.5236(3) 0.7247(3) 0.0271 Uani
H28 H 0.7092 0.4792 0.7406 0.0410 Uiso
H29 H 0.6250 0.5862 0.6715 0.0410 Uiso
H30 H 0.5746 0.5563 0.7863 0.0410 Uiso
C41 C 0.5937(4) 0.3370(3) 0.6902(3) 0.0145 Uani
H31 H 0.6810 0.3063 0.7121 0.0170 Uiso
C42 C 0.8640(4) 0.0335(4) 0.8837(3) 0.0277 Uani
H32 H 0.7694 0.0604 0.8720 0.0420 Uiso
H34 H 0.8948 0.0945 0.9108 0.0420 Uiso
C44 C 0.4136(7) 0.5027(5) 0.6595(6) 0.0845 Uani
H38 H 0.3551 0.5128 0.7210 0.1260 Uiso
H39 H 0.4112 0.5782 0.6221 0.1260 Uiso
H40 H 0.3841 0.4538 0.6158 0.1260 Uiso
H33 H 0.8792 0.9648 0.9328 0.0420 Uiso
H42_2 H 0.740214 0.397727 0.0639225 . .
H41_2 H 0.413506 0.534473 0.945929 . .
loop_
_atom_site_aniso_label
_atom_site_aniso_U_11
_atom_site_aniso_U_22
_atom_site_aniso_U_33
_atom_site_aniso_U_23
_atom_site_aniso_U_13
_atom_site_aniso_U_12
O2 0.0115 0.0129 0.0089 -0.0007 -0.0032 -0.007
O8 0.0466 0.0198 0.0157 -0.0024 -0.0007 -0.0203
C3 0.0066 0.0099 0.011 0.0002 -0.0015 -0.0015
C4 0.0055 0.0099 0.01 -0.0019 0.0007 -0.0022
C5 0.0131 0.0113 0.0123 -0.0007 0 -0.0068
C6 0.0145 0.01 0.0113 -0.0021 -0.0022 -0.0061
C9 0.0135 0.0099 0.0107 0.0009 -0.0018 -0.0042
C12 0.016 0.0134 0.0109 0.0014 -0.0017 -0.0068
C13 0.029 0.0153 0.0148 0.0008 -0.005 -0.009
Eu9 0.00406 0.00153 0.00595 0 -0.0017 -0.00161
O25 0.0124 0.0028 0.0179 -0.003 -0.0008 0.0003
O9 0.067 0.0262 0.0111 0.0034 -0.0006 -0.0281
C8 0.023 0.0138 0.0078 0.001 -0.0016 -0.0072
O11 0.0115 0.0073 0.011 0.0013 0.0024 -0.0064
Eu1 0.00406 0.00153 0.00595 0 -0.0017 -0.00161
O1 0.0115 0.0073 0.011 0.0013 0.0024 -0.0064
O3 0.0124 0.0044 0.0133 -0.0003 -0.0006 -0.0033
O5 0.0082 0.0043 0.021 -0.0014 -0.0004 -0.0025
O6 0.0161 0.0128 0.0181 -0.0074 -0.0005 -0.0038
O7 0.0094 0.019 0.0156 0.001 -0.0061 -0.0003
C1 0.019 0.0151 0.0106 -0.0027 -0.0051 -0.0054
C2 0.0102 0.0078 0.0082 0.0007 -0.0041 -0.0028
N1 0.0139 0.0211 0.0161 0 -0.0057 -0.0017
N2 0.038 0.0114 0.024 -0.0006 -0.0128 -0.0052
C7 0.0088 0.0089 0.0098 0.0021 -0.0006 -0.0042
C10 0.047 0.017 0.022 -0.0027 -0.0006 -0.0164
C11 0.0202 0.0166 0.0089 -0.003 -0.0005 -0.008
C14 0.023 0.043 0.017 -0.002 -0.0051 -0.0067
C19 0.0085 0.0067 0.0131 0.0001 -0.0018 -0.0009
C22 0.083 0.035 0.137 -0.016 -0.079 0.007
O14 0.067 0.0262 0.0111 0.0034 -0.0006 -0.0281
C27 0.023 0.0138 0.0078 0.001 -0.0016 -0.0072
O18 0.0088 0.006 0.0161 0.0016 -0.0037 -0.0026
C33 0.008 0.0048 0.0081 -0.0005 -0.0003 -0.0002
C34 0.0114 0.0059 0.0103 0.0005 -0.0026 -0.002
C35 0.0113 0.0086 0.0051 0.0028 -0.0026 -0.0023
C37 0.011 0.0072 0.0098 0.0008 -0.0004 -0.0034
C38 0.0091 0.0082 0.0093 -0.0008 -0.002 -0.0063
O23 0.0115 0.0129 0.0089 -0.0007 -0.0032 -0.007
O26 0.0088 0.006 0.0161 0.0016 -0.0037 -0.0026
O13 0.0466 0.0198 0.0157 -0.0024 -0.0007 -0.0203
C23 0.0066 0.0099 0.011 0.0002 -0.0015 -0.0015
C24 0.0055 0.0099 0.01 -0.0019 0.0007 -0.0022
C25 0.0131 0.0113 0.0123 -0.0007 0 -0.0068
C26 0.0145 0.01 0.0113 -0.0021 -0.0022 -0.0061
C28 0.0135 0.0099 0.0107 0.0009 -0.0018 -0.0042
C29 0.016 0.0134 0.0109 0.0014 -0.0017 -0.0068
C30 0.029 0.0153 0.0148 0.0008 -0.005 -0.009
C43 0.02 0.03 0.029 -0.0035 -0.0108 0.0051
C15 0.02 0.03 0.029 -0.0035 -0.0108 0.0051
O4 0.0124 0.0028 0.0179 -0.003 -0.0008 0.0003
C16 0.008 0.0048 0.0081 -0.0005 -0.0003 -0.0002
C17 0.0114 0.0059 0.0103 0.0005 -0.0026 -0.002
C18 0.0113 0.0086 0.0051 0.0028 -0.0026 -0.0023
C20 0.011 0.0072 0.0098 0.0008 -0.0004 -0.0034
C21 0.0091 0.0082 0.0093 -0.0008 -0.002 -0.0063
O15 0.0124 0.0044 0.0133 -0.0003 -0.0006 -0.0033
O17 0.0082 0.0043 0.021 -0.0014 -0.0004 -0.0025
C31 0.0102 0.0078 0.0082 0.0007 -0.0041 -0.0028
C32 0.0088 0.0089 0.0098 0.0021 -0.0006 -0.0042
C36 0.0085 0.0067 0.0131 0.0001 -0.0018 -0.0009
O19 0.0161 0.0128 0.0181 -0.0074 -0.0005 -0.0038
O20 0.0094 0.019 0.0156 0.001 -0.0061 -0.0003
C39 0.019 0.0151 0.0106 -0.0027 -0.0051 -0.0054
N3 0.0139 0.0211 0.0161 0 -0.0057 -0.0017
N4 0.038 0.0114 0.024 -0.0006 -0.0128 -0.0052
C40 0.047 0.017 0.022 -0.0027 -0.0006 -0.0164
C41 0.0202 0.0166 0.0089 -0.003 -0.0005 -0.008
C42 0.023 0.043 0.017 -0.002 -0.0051 -0.0067
C44 0.083 0.035 0.137 -0.016 -0.079 0.007
loop_
_geom_bond_atom_site_label_1
_geom_bond_atom_site_label_2
_geom_bond_site_symmetry_1
_geom_bond_site_symmetry_2
O2 C4 1_555 1_555
O8 C13 1_555 1_555
C3 C4 1_555 1_555
C6 C3 1_555 1_555
H2 C6 1_555 1_555
C9 C3 1_555 1_555
C12 C6 1_555 1_555
C13 C12 1_555 1_555
Eu9 O2 1_555 1_555
C5 C9 1_555 1_555
O8 H41 1_555 1_555
C8 H3 1_555 1_555
Eu9 O11 1_555 1_555
Eu1 O1 1_555 1_555
O3 Eu1 1_555 1_555
O5 Eu1 1_555 1_555
O6 Eu1 1_555 1_555
O7 Eu1 1_555 1_555
C1 O7 1_555 1_555
H1 C1 1_555 1_555
C2 O3 1_555 1_555
N1 C1 1_555 1_555
N2 C10 1_555 1_555
C7 C2 1_555 1_555
C10 H5 1_555 1_555
H6 C10 1_555 1_555
H7 C10 1_555 1_555
C11 O6 1_555 1_555
H8 C11 1_555 1_555
C14 N1 1_555 1_555
H9 C14 1_555 1_555
H11 C14 1_555 1_555
C19 C7 1_555 1_555
H16 C19 1_555 1_555
C22 N2 1_555 1_555
H18 C22 1_555 1_555
H19 C22 1_555 1_555
H20 C22 1_555 1_555
H22 C27 1_555 1_555
O25 C35 1_555 1_555
O18 C35 1_555 1_555
C33 C34 1_555 1_555
C34 H24 1_555 1_555
C35 C33 1_555 1_555
C38 C33 1_555 1_555
H26 C38 1_555 1_555
Eu9 O18 1_555 1_555
O23 Eu1 1_555 1_555
O26 Eu1 1_555 1_555
O5 C2 1_555 1_555
N2 C11 1_555 1_555
C37 C38 1_555 1_555
O23 C24 1_555 1_555
O13 C30 1_555 1_555
C23 C24 1_555 1_555
C26 C23 1_555 1_555
H21 C26 1_555 1_555
C28 C23 1_555 1_555
C29 C26 1_555 1_555
C30 C29 1_555 1_555
C25 C28 1_555 1_555
O13 H42 1_555 1_555
H35 C43 1_555 1_555
H37 C43 1_555 1_555
H12 C15 1_555 1_555
H14 C15 1_555 1_555
O4 C18 1_555 1_555
O26 C18 1_555 1_555
C16 C17 1_555 1_555
H15 C17 1_555 1_555
C18 C16 1_555 1_555
C21 C16 1_555 1_555
H17 C21 1_555 1_555
O15 C31 1_555 1_555
O17 C31 1_555 1_555
C31 C32 1_555 1_555
C36 C32 1_555 1_555
H25 C36 1_555 1_555
Eu9 O15 1_555 1_555
O19 Eu9 1_555 1_555
O20 Eu9 1_555 1_555
C39 O20 1_555 1_555
H27 C39 1_555 1_555
N3 C39 1_555 1_555
N4 C40 1_555 1_555
C40 H28 1_555 1_555
H29 C40 1_555 1_555
H30 C40 1_555 1_555
C41 O19 1_555 1_555
H31 C41 1_555 1_555
C42 N3 1_555 1_555
H32 C42 1_555 1_555
H34 C42 1_555 1_555
C44 N4 1_555 1_555
H38 C44 1_555 1_555
H39 C44 1_555 1_555
H40 C44 1_555 1_555
C20 C21 1_555 1_555
O17 Eu9 1_555 1_555
N4 C41 1_555 1_555
O8 H42_2 1_555 1_555
O13 H41_2 1_555 1_555

#END
