
###############################################################################
#
# This file contains modified crystal structure data generated from the
# MOF subset of the Cambridge Structural Database (CSD) v543 
# hosted by the Cambridge Crystallographic Data Centre (CCDC).
#
# This work is licensed under the Creative Commons
# Attribution-NonCommercial-ShareAlike 4.0 International License.
# To view a copy of this license, visit
# http://creativecommons.org/licenses/by-nc-sa/4.0/
# or send a letter to
# Creative Commons, PO Box 1866, Mountain View, CA 94042, USA.
#
# CIF created using the CSD Python API on 29 September 2022
# The structure has been converted into the P1 space group
# The structure has a 3D framework
# The original CSD entry EWIMON is in the monoclinic crystal system
# The framework has been calculated to contain at least 10.0% void space
# The void calculation uses a probe of radius 1.32A, grid spacing 0.4
# The framework is charged, counterions have been retained in the structure
#
###############################################################################

data_EWIMON
_chemical_formula_moiety         '(C108 H96 Br4 Mn8 N16 O29 2+)n'
_symmetry_cell_setting           triclinic
_symmetry_space_group_name_H-M   'P 1'
_symmetry_Int_Tables_number      1
_space_group_name_Hall           'P 1'
loop_
_symmetry_equiv_pos_site_id
_symmetry_equiv_pos_as_xyz
1 x,y,z
_cell_length_a                   13.872(5)
_cell_length_b                   11.443(2)
_cell_length_c                   24.711(3)
_cell_angle_alpha                90
_cell_angle_beta                 93.27(2)
_cell_angle_gamma                90
_cell_volume                     3916.17
loop_
_atom_site_label
_atom_site_type_symbol
_atom_site_fract_x
_atom_site_fract_y
_atom_site_fract_z
Br1 Br 0.02239(10) 0.95370(11) 0.38197(6)
Br1_2 Br 0.97761(10) 0.45370(11) 0.11803(6)
Br1_3 Br 0.97761(10) 0.04630(11) 0.61803(6)
Br1_4 Br 0.02239(10) 0.54630(11) 0.88197(6)
C22 C 0.0303(10) 0.1291(12) 0.1226(5)
H20 H 0.0026 0.2019 0.1156
C23 C 0.1417(7) 0.1103(13) 0.1222(4)
C24 C 0.1909(7) 0.2047(12) 0.1035(5)
H21 H 0.1585 0.2727 0.0929
C25 C 0.2905(6) 0.1960(10) 0.1009(5)
H22 H 0.3244 0.2611 0.0899
N4 N 0.3394(4) 0.0985(6) 0.1133(2)
C26 C 0.2919(7) 0.0105(10) 0.1314(4)
C27 C 0.1924(7) 0.0136(12) 0.1371(4)
Mn6 Mn 0.49662(6) 0.25028(8) 0.28566(3)
Mn9 Mn 0.50191(7) 0.09825(9) 0.10928(3)
N5 N 0.3323(4) 0.2459(6) 0.2725(2)
C31 C 0.2835(5) 0.3201(8) 0.2385(3)
H29 H 0.3189 0.3707 0.2178
C32 C 0.1852(6) 0.3251(10) 0.2327(4)
H30 H 0.1556 0.3791 0.2090
C33 C 0.1307(6) 0.2521(9) 0.2612(3)
C34 C 0.1788(6) 0.1765(8) 0.2950(4)
H31 H 0.1443 0.1240 0.3152
C35 C 0.2799(5) 0.1762(8) 0.3002(4)
H32 H 0.3108 0.1240 0.3243
C36 C 0.0239(6) 0.2636(9) 0.2579(4)
H19 H 0.0078 0.9702 0.1409
H23 H 0.3254 0.9425 0.1410
H24 H 0.1612 0.9494 0.1510
O1 O 0.4949(4) 0.2396(4) 0.37399(16)
H1 H 0.5219 0.2189 0.4047
H2 H 0.4688 0.3070 0.3798
O2 O 0.5080(4) 0.2850(4) 0.11513(15)
H3 H 0.5006 0.3512 0.1309
H4 H 0.5177 0.3013 0.0818
C1 C 0.5013(4) 0.0230(6) 0.2162(2)
O4 O 0.5012(3) 0.1308(4) 0.20707(14)
O5 O 0.4956(3) 0.0597(4) 0.31042(15)
O7 O 0.5033(4) 0.1446(4) 0.02017(16)
N3 N 0.6644(4) 0.0822(7) 0.1194(2)
C16 C 0.7212(7) 0.1714(10) 0.1139(4)
H15 H 0.6941 0.2437 0.1050
C17 C 0.8233(7) 0.1617(9) 0.1211(4)
H16 H 0.8611 0.2285 0.1189
C18 C 0.8651(7) 0.0612(12) 0.1308(3)
C21 C 0.9801(10) 0.0424(9) 0.1327(4)
Mn3 Mn 0.50338(6) 0.75028(8) 0.21434(3)
O9 O 0.5051(4) 0.7396(4) 0.12601(16)
H25 H 0.4781 0.7189 0.0953
H26 H 0.5312 0.8070 0.1202
Mn7 Mn 0.49809(7) 0.59825(9) 0.39072(3)
O10 O 0.4920(4) 0.7850(4) 0.38487(15)
H27 H 0.4994 0.8512 0.3691
H28 H 0.4823 0.8013 0.4182
C28 C 0.4987(4) 0.5230(6) 0.2838(2)
O11 O 0.4977(3) 0.4486(4) 0.31927(14)
O12 O 0.5023(3) 0.9486(4) 0.18073(14)
O13 O 0.4988(3) 0.6308(4) 0.29293(14)
C29 C 0.5015(4) 0.4839(6) 0.2248(2)
O14 O 0.5044(3) 0.5597(4) 0.18958(15)
O15 O 0.4987(3) 0.3756(4) 0.21690(14)
O16 O 0.5013(3) 0.8756(4) 0.28310(14)
O18 O 0.4967(4) 0.6446(4) 0.47983(16)
O20 O 0.5060(4) 0.4322(4) 0.43787(15)
N6 N 0.6677(4) 0.7459(6) 0.2275(2)
H33 H 0.9968 0.3136 0.2316
C37 C 0.9656(6) 0.2105(9) 0.2883(4)
H34 H 0.9931 0.1601 0.3143
C38 C 0.8595(5) 0.2214(6) 0.2860(3)
C39 C 0.8095(6) 0.2899(8) 0.2476(3)
H35 H 0.8422 0.3271 0.2206
C40 C 0.7092(5) 0.3025(8) 0.2496(3)
H36 H 0.6764 0.3525 0.2253
N7 N 0.6601(4) 0.2443(5) 0.2858(2)
N8 N 0.3399(4) 0.7443(5) 0.2142(2)
C41 C 0.7107(6) 0.1796(8) 0.3214(3)
H37 H 0.6772 0.1411 0.3476
C42 C 0.8078(6) 0.1652(9) 0.3226(4)
H38 H 0.8386 0.1169 0.3485
N10 N 0.3356(4) 0.5822(7) 0.3806(2)
N12 N 0.6606(4) 0.5985(6) 0.3867(2)
C3 C 0.5035(5) 0.0625(6) 0.9881(2)
O8 O 0.5060(4) 0.0678(4) 0.93787(15)
C2 C 0.4985(4) 0.9839(6) 0.2752(2)
C19 C 0.8100(8) 0.9732(13) 0.1377(6)
H17 H 0.8367 0.9009 0.1471
C20 C 0.7124(7) 0.9855(10) 0.1313(5)
H18 H 0.6758 0.9185 0.1358
C30 C 0.4965(5) 0.9375(6) 0.0119(2)
O19 O 0.4940(4) 0.9322(4) 0.06213(15)
Mn8 Mn 0.49809(7) 0.90175(9) 0.89072(3)
O17 O 0.4967(4) 0.8554(4) 0.97983(16)
H9 H 0.0032 0.8136 0.2684
C10 C 0.0344(6) 0.7105(9) 0.2117(4)
H10 H 0.0069 0.6601 0.1857
C11 C 0.1405(5) 0.7214(6) 0.2140(3)
C12 C 0.1905(6) 0.7899(8) 0.2524(3)
H11 H 0.1578 0.8271 0.2794
C13 C 0.2908(5) 0.8025(8) 0.2504(3)
H12 H 0.3236 0.8525 0.2747
C14 C 0.2893(6) 0.6796(8) 0.1786(3)
H13 H 0.3228 0.6411 0.1524
C15 C 0.1922(6) 0.6652(9) 0.1774(4)
H14 H 0.1614 0.6169 0.1515
C43 C 0.2788(7) 0.6714(10) 0.3861(4)
H39 H 0.3059 0.7437 0.3950
C44 C 0.1767(7) 0.6617(9) 0.3789(4)
H40 H 0.1389 0.7285 0.3811
C45 C 0.1349(7) 0.5612(12) 0.3692(3)
C46 C 0.1900(8) 0.4732(13) 0.3623(6)
H41 H 0.1633 0.4009 0.3529
C47 C 0.2876(7) 0.4855(10) 0.3687(5)
H42 H 0.3242 0.4185 0.3642
C48 C 0.0199(10) 0.5424(9) 0.3673(4)
C3_2 C 0.4965(5) 0.5625(6) 0.5119(2)
O8_2 O 0.4940(4) 0.5678(4) 0.56213(15)
C4 C 0.7165(5) 0.8201(8) 0.2615(3)
H5 H 0.6811 0.8707 0.2822
C5 C 0.8148(6) 0.8251(10) 0.2673(4)
H6 H 0.8444 0.8791 0.2910
C6 C 0.8693(6) 0.7521(9) 0.2388(3)
C7 C 0.8212(6) 0.6765(8) 0.2050(4)
H7 H 0.8557 0.6240 0.1848
C8 C 0.7201(5) 0.6762(8) 0.1998(4)
H8 H 0.6892 0.6240 0.1757
C9 C 0.9761(6) 0.7636(9) 0.2421(4)
Mn8_2 Mn 0.50191(7) 0.40175(9) 0.60928(3)
C30_2 C 0.5035(5) 0.4375(6) 0.4881(2)
O17_2 O 0.5033(4) 0.3554(4) 0.52017(16)
H43 H 0.9922 0.4702 0.3591
C49 C 0.9697(10) 0.6291(12) 0.3774(5)
H44 H 0.9974 0.7019 0.3844
C50 C 0.8583(7) 0.6103(13) 0.3778(4)
C51 C 0.8091(7) 0.7047(12) 0.3965(5)
H45 H 0.8415 0.7727 0.4071
C52 C 0.7095(6) 0.6960(10) 0.3991(5)
H46 H 0.6756 0.7611 0.4101
C53 C 0.7081(7) 0.5105(10) 0.3686(4)
H47 H 0.6746 0.4425 0.3590
C54 C 0.8076(7) 0.5136(12) 0.3629(4)
H48 H 0.8388 0.4494 0.3490
C46_2 C 0.1900(8) 0.0268(13) 0.8623(6)
H41_2 H 0.1633 0.0991 0.8529
C47_2 C 0.2876(7) 0.0145(10) 0.8687(5)
H42_2 H 0.3242 0.0815 0.8642
H9_2 H 0.0032 0.6864 0.7684
C10_2 C 0.0344(6) 0.7895(9) 0.7117(4)
H10_2 H 0.0069 0.8399 0.6857
C11_2 C 0.1405(5) 0.7786(6) 0.7140(3)
C12_2 C 0.1905(6) 0.7101(8) 0.7524(3)
H11_2 H 0.1578 0.6729 0.7794
C13_2 C 0.2908(5) 0.6975(8) 0.7504(3)
H12_2 H 0.3236 0.6475 0.7747
N2 N 0.3399(4) 0.7557(5) 0.7142(2)
C14_2 C 0.2893(6) 0.8204(8) 0.6786(3)
H13_2 H 0.3228 0.8589 0.6524
C15_2 C 0.1922(6) 0.8348(9) 0.6774(4)
H14_2 H 0.1614 0.8831 0.6515
Mn5 Mn 0.50338(6) 0.74972(8) 0.71434(3)
N9 N 0.3356(4) 0.9178(7) 0.8806(2)
C43_2 C 0.2788(7) 0.8286(10) 0.8861(4)
H39_2 H 0.3059 0.7563 0.8950
C44_2 C 0.1767(7) 0.8383(9) 0.8789(4)
H40_2 H 0.1389 0.7715 0.8811
C45_2 C 0.1349(7) 0.9388(12) 0.8692(3)
C48_2 C 0.0199(10) 0.9576(9) 0.8673(4)
O3 O 0.4977(3) 0.0514(4) 0.81927(14)
C2_2 C 0.5015(4) 0.0161(6) 0.7248(2)
O6 O 0.4987(3) 0.1244(4) 0.71690(14)
Mn4 Mn 0.49662(6) 0.24972(8) 0.78566(3)
H43_2 H 0.9922 0.0298 0.8591
H47_2 H 0.6746 0.0575 0.8590
H48_2 H 0.8388 0.0506 0.8490
O1_2 O 0.5051(4) 0.7604(4) 0.62601(16)
H1_2 H 0.4781 0.7811 0.5953
H2_2 H 0.5312 0.6930 0.6202
O2_2 O 0.4920(4) 0.7150(4) 0.88487(15)
H3_2 H 0.4994 0.6488 0.8691
H4_2 H 0.4823 0.6987 0.9182
C1_2 C 0.4987(4) 0.9770(6) 0.7838(2)
O4_2 O 0.4988(3) 0.8692(4) 0.79293(14)
O5_2 O 0.5044(3) 0.9403(4) 0.68958(15)
N1 N 0.6677(4) 0.7541(6) 0.7275(2)
C4_2 C 0.7165(5) 0.6799(8) 0.7615(3)
H5_2 H 0.6811 0.6293 0.7822
C5_2 C 0.8148(6) 0.6749(10) 0.7673(4)
H6_2 H 0.8444 0.6209 0.7910
C6_2 C 0.8693(6) 0.7479(9) 0.7388(3)
C7_2 C 0.8212(6) 0.8235(8) 0.7050(4)
H7_2 H 0.8557 0.8760 0.6848
C8_2 C 0.7201(5) 0.8238(8) 0.6998(4)
H8_2 H 0.6892 0.8760 0.6757
C9_2 C 0.9761(6) 0.7364(9) 0.7421(4)
O9_2 O 0.4949(4) 0.2604(4) 0.87399(16)
H25_2 H 0.5219 0.2811 0.9047
H26_2 H 0.4688 0.1930 0.8798
O10_2 O 0.5080(4) 0.2150(4) 0.61513(15)
H27_2 H 0.5006 0.1488 0.6309
H28_2 H 0.5177 0.1987 0.5818
C28_2 C 0.5013(4) 0.4770(6) 0.7162(2)
O11_2 O 0.5023(3) 0.5514(4) 0.68073(14)
O13_2 O 0.5012(3) 0.3692(4) 0.70707(14)
C29_2 C 0.4985(4) 0.5161(6) 0.7752(2)
O14_2 O 0.4956(3) 0.4403(4) 0.81042(15)
O15_2 O 0.5013(3) 0.6244(4) 0.78310(14)
N6_2 N 0.3323(4) 0.2541(6) 0.7725(2)
N8_2 N 0.6601(4) 0.2557(5) 0.7858(2)
N10_2 N 0.6644(4) 0.4178(7) 0.6194(2)
C49_2 C 0.9697(10) 0.8709(12) 0.8774(5)
H44_2 H 0.9974 0.7981 0.8844
C50_2 C 0.8583(7) 0.8897(13) 0.8778(4)
C51_2 C 0.8091(7) 0.7953(12) 0.8965(5)
H45_2 H 0.8415 0.7273 0.9071
C52_2 C 0.7095(6) 0.8040(10) 0.8991(5)
H46_2 H 0.6756 0.7389 0.9101
N11 N 0.6606(4) 0.9015(6) 0.8867(2)
N12_2 N 0.3394(4) 0.4015(6) 0.6133(2)
C53_2 C 0.7081(7) 0.9895(10) 0.8686(4)
C54_2 C 0.8076(7) 0.9864(12) 0.8629(4)
H19_2 H 0.0078 0.5298 0.6409
C22_2 C 0.0303(10) 0.3709(12) 0.6226(5)
H20_2 H 0.0026 0.2981 0.6156
C23_2 C 0.1417(7) 0.3897(13) 0.6222(4)
C24_2 C 0.1909(7) 0.2953(12) 0.6035(5)
H21_2 H 0.1585 0.2273 0.5929
C25_2 C 0.2905(6) 0.3040(10) 0.6009(5)
H22_2 H 0.3244 0.2389 0.5899
C26_2 C 0.2919(7) 0.4895(10) 0.6314(4)
H23_2 H 0.3254 0.5575 0.6410
C27_2 C 0.1924(7) 0.4864(12) 0.6371(4)
H24_2 H 0.1612 0.5506 0.6510
C31_2 C 0.2835(5) 0.1799(8) 0.7385(3)
H29_2 H 0.3189 0.1293 0.7178
C32_2 C 0.1852(6) 0.1749(10) 0.7327(4)
H30_2 H 0.1556 0.1209 0.7090
C33_2 C 0.1307(6) 0.2479(9) 0.7612(3)
C34_2 C 0.1788(6) 0.3235(8) 0.7950(4)
H31_2 H 0.1443 0.3760 0.8152
C35_2 C 0.2799(5) 0.3238(8) 0.8002(4)
H32_2 H 0.3108 0.3760 0.8243
C36_2 C 0.0239(6) 0.2364(9) 0.7579(4)
C16_2 C 0.7212(7) 0.3286(10) 0.6139(4)
H15_2 H 0.6941 0.2563 0.6050
C17_2 C 0.8233(7) 0.3383(9) 0.6211(4)
H16_2 H 0.8611 0.2715 0.6189
C18_2 C 0.8651(7) 0.4388(12) 0.6308(3)
C19_2 C 0.8100(8) 0.5268(13) 0.6377(6)
H17_2 H 0.8367 0.5991 0.6471
C20_2 C 0.7124(7) 0.5145(10) 0.6313(5)
H18_2 H 0.6758 0.5815 0.6358
C21_2 C 0.9801(10) 0.4576(9) 0.6327(4)
H33_2 H 0.9968 0.1864 0.7316
C37_2 C 0.9656(6) 0.2895(9) 0.7883(4)
H34_2 H 0.9931 0.3399 0.8143
C38_2 C 0.8595(5) 0.2786(6) 0.7860(3)
C39_2 C 0.8095(6) 0.2101(8) 0.7476(3)
H35_2 H 0.8422 0.1729 0.7206
C40_2 C 0.7092(5) 0.1975(8) 0.7496(3)
H36_2 H 0.6764 0.1475 0.7253
C41_2 C 0.7107(6) 0.3204(8) 0.8214(3)
H37_2 H 0.6772 0.3589 0.8476
C42_2 C 0.8078(6) 0.3348(9) 0.8226(4)
H38_2 H 0.8386 0.3831 0.8485
loop_
_geom_bond_atom_site_label_1
_geom_bond_atom_site_label_2
_geom_bond_site_symmetry_1
_geom_bond_site_symmetry_2
H20 C22 1_555 1_555
C23 C22 1_555 1_555
C24 C23 1_555 1_555
H21 C24 1_555 1_555
C25 C24 1_555 1_555
H22 C25 1_555 1_555
N4 C25 1_555 1_555
C26 N4 1_555 1_555
C27 C23 1_555 1_555
Mn6 N5 1_555 1_555
Mn9 N4 1_555 1_555
N5 C31 1_555 1_555
C31 H29 1_555 1_555
C32 C31 1_555 1_555
H30 C32 1_555 1_555
C33 C32 1_555 1_555
C34 C33 1_555 1_555
H31 C34 1_555 1_555
C35 N5 1_555 1_555
H32 C35 1_555 1_555
C36 C33 1_555 1_555
C26 C27 1_555 1_555
C34 C35 1_555 1_555
Mn6 O1 1_555 1_555
O1 H1 1_555 1_555
H2 O1 1_555 1_555
Mn9 O2 1_555 1_555
O2 H3 1_555 1_555
H4 O2 1_555 1_555
O4 Mn6 1_555 1_555
O5 Mn6 1_555 1_555
O7 Mn9 1_555 1_555
N3 Mn9 1_555 1_555
C16 N3 1_555 1_555
H15 C16 1_555 1_555
C17 C16 1_555 1_555
H16 C17 1_555 1_555
C18 C17 1_555 1_555
C21 C18 1_555 1_555
Mn3 O9 1_555 1_555
O9 H25 1_555 1_555
H26 O9 1_555 1_555
Mn7 O10 1_555 1_555
O10 H27 1_555 1_555
H28 O10 1_555 1_555
C28 O11 1_555 1_555
O11 Mn6 1_555 1_555
O12 Mn3 1_555 1_555
O13 Mn3 1_555 1_555
C29 C28 1_555 1_555
O14 Mn3 1_555 1_555
O15 Mn6 1_555 1_555
O16 Mn3 1_555 1_555
O18 Mn7 1_555 1_555
O20 Mn7 1_555 1_555
N6 Mn3 1_555 1_555
H34 C37 1_555 1_555
C38 C37 1_555 1_555
C39 C38 1_555 1_555
H35 C39 1_555 1_555
C40 C39 1_555 1_555
H36 C40 1_555 1_555
N7 Mn6 1_555 1_555
N8 Mn3 1_555 1_555
C41 N7 1_555 1_555
H37 C41 1_555 1_555
C42 C38 1_555 1_555
H38 C42 1_555 1_555
N10 Mn7 1_555 1_555
N12 Mn7 1_555 1_555
Mn9 O4 1_555 1_555
C1 O4 1_555 1_555
Mn7 O11 1_555 1_555
Mn7 O13 1_555 1_555
C28 O13 1_555 1_555
C29 O14 1_555 1_555
C29 O15 1_555 1_555
C40 N7 1_555 1_555
C41 C42 1_555 1_555
O8 C3 1_555 1_555
O16 C2 1_555 1_555
H17 C19 1_555 1_555
H18 C20 1_555 1_555
C19 C20 1_555 1_555
C30 O19 1_555 1_555
O17 Mn8 1_555 1_555
H10 C10 1_555 1_555
C11 C10 1_555 1_555
C12 C11 1_555 1_555
H11 C12 1_555 1_555
C13 C12 1_555 1_555
H12 C13 1_555 1_555
N8 C13 1_555 1_555
C14 N8 1_555 1_555
H13 C14 1_555 1_555
C15 C11 1_555 1_555
H14 C15 1_555 1_555
N10 C43 1_555 1_555
C43 H39 1_555 1_555
C44 C43 1_555 1_555
H40 C44 1_555 1_555
C45 C44 1_555 1_555
C46 C45 1_555 1_555
H41 C46 1_555 1_555
C47 N10 1_555 1_555
H42 C47 1_555 1_555
C48 C45 1_555 1_555
C14 C15 1_555 1_555
C46 C47 1_555 1_555
C3_2 O18 1_555 1_555
O8_2 C3_2 1_555 1_555
C4 N6 1_555 1_555
H5 C4 1_555 1_555
C5 C4 1_555 1_555
H6 C5 1_555 1_555
C6 C5 1_555 1_555
C7 C6 1_555 1_555
H7 C7 1_555 1_555
C8 N6 1_555 1_555
H8 C8 1_555 1_555
C9 C6 1_555 1_555
Mn8_2 O8_2 1_555 1_555
C30_2 C3_2 1_555 1_555
O17_2 Mn8_2 1_555 1_555
H44 C49 1_555 1_555
C50 C49 1_555 1_555
C51 C50 1_555 1_555
H45 C51 1_555 1_555
C52 C51 1_555 1_555
H46 C52 1_555 1_555
C53 N12 1_555 1_555
H47 C53 1_555 1_555
C54 C50 1_555 1_555
H48 C54 1_555 1_555
C7 C8 1_555 1_555
C30_2 O17_2 1_555 1_555
C30_2 O20 1_555 1_555
C52 N12 1_555 1_555
C53 C54 1_555 1_555
H41_2 C46_2 1_555 1_555
H42_2 C47_2 1_555 1_555
C46_2 C47_2 1_555 1_555
H10_2 C10_2 1_555 1_555
C11_2 C10_2 1_555 1_555
C12_2 C11_2 1_555 1_555
H11_2 C12_2 1_555 1_555
C13_2 C12_2 1_555 1_555
H12_2 C13_2 1_555 1_555
N2 C13_2 1_555 1_555
C14_2 N2 1_555 1_555
H13_2 C14_2 1_555 1_555
C15_2 C11_2 1_555 1_555
H14_2 C15_2 1_555 1_555
Mn5 N2 1_555 1_555
Mn8 N9 1_555 1_555
N9 C43_2 1_555 1_555
C43_2 H39_2 1_555 1_555
C44_2 C43_2 1_555 1_555
H40_2 C44_2 1_555 1_555
C45_2 C44_2 1_555 1_555
C48_2 C45_2 1_555 1_555
C14_2 C15_2 1_555 1_555
O6 C2_2 1_555 1_555
Mn4 O3 1_555 1_555
O6 Mn4 1_555 1_555
Mn5 O1_2 1_555 1_555
O1_2 H1_2 1_555 1_555
H2_2 O1_2 1_555 1_555
Mn8 O2_2 1_555 1_555
O2_2 H3_2 1_555 1_555
H4_2 O2_2 1_555 1_555
O4_2 Mn5 1_555 1_555
O5_2 Mn5 1_555 1_555
N1 Mn5 1_555 1_555
C4_2 N1 1_555 1_555
H5_2 C4_2 1_555 1_555
C5_2 C4_2 1_555 1_555
H6_2 C5_2 1_555 1_555
C6_2 C5_2 1_555 1_555
C7_2 C6_2 1_555 1_555
H7_2 C7_2 1_555 1_555
C8_2 N1 1_555 1_555
H8_2 C8_2 1_555 1_555
C9_2 C6_2 1_555 1_555
Mn4 O9_2 1_555 1_555
O9_2 H25_2 1_555 1_555
H26_2 O9_2 1_555 1_555
Mn8_2 O10_2 1_555 1_555
O10_2 H27_2 1_555 1_555
H28_2 O10_2 1_555 1_555
C28_2 O11_2 1_555 1_555
O11_2 Mn5 1_555 1_555
O13_2 Mn4 1_555 1_555
C29_2 C28_2 1_555 1_555
O14_2 Mn4 1_555 1_555
O15_2 Mn5 1_555 1_555
N6_2 Mn4 1_555 1_555
N8_2 Mn4 1_555 1_555
N10_2 Mn8_2 1_555 1_555
H44_2 C49_2 1_555 1_555
C50_2 C49_2 1_555 1_555
C51_2 C50_2 1_555 1_555
H45_2 C51_2 1_555 1_555
C52_2 C51_2 1_555 1_555
H46_2 C52_2 1_555 1_555
N11 Mn8 1_555 1_555
N12_2 Mn8_2 1_555 1_555
C53_2 N11 1_555 1_555
C54_2 C50_2 1_555 1_555
Mn8 O4_2 1_555 1_555
C1_2 O4_2 1_555 1_555
C7_2 C8_2 1_555 1_555
Mn8_2 O11_2 1_555 1_555
Mn8_2 O13_2 1_555 1_555
C28_2 O13_2 1_555 1_555
C29_2 O14_2 1_555 1_555
C29_2 O15_2 1_555 1_555
C52_2 N11 1_555 1_555
C53_2 C54_2 1_555 1_555
H20_2 C22_2 1_555 1_555
C23_2 C22_2 1_555 1_555
C24_2 C23_2 1_555 1_555
H21_2 C24_2 1_555 1_555
C25_2 C24_2 1_555 1_555
H22_2 C25_2 1_555 1_555
N12_2 C25_2 1_555 1_555
C26_2 N12_2 1_555 1_555
H23_2 C26_2 1_555 1_555
C27_2 C23_2 1_555 1_555
H24_2 C27_2 1_555 1_555
N6_2 C31_2 1_555 1_555
C31_2 H29_2 1_555 1_555
C32_2 C31_2 1_555 1_555
H30_2 C32_2 1_555 1_555
C33_2 C32_2 1_555 1_555
C34_2 C33_2 1_555 1_555
H31_2 C34_2 1_555 1_555
C35_2 N6_2 1_555 1_555
H32_2 C35_2 1_555 1_555
C36_2 C33_2 1_555 1_555
C26_2 C27_2 1_555 1_555
C34_2 C35_2 1_555 1_555
C16_2 N10_2 1_555 1_555
H15_2 C16_2 1_555 1_555
C17_2 C16_2 1_555 1_555
H16_2 C17_2 1_555 1_555
C18_2 C17_2 1_555 1_555
C19_2 C18_2 1_555 1_555
H17_2 C19_2 1_555 1_555
C20_2 N10_2 1_555 1_555
H18_2 C20_2 1_555 1_555
C21_2 C18_2 1_555 1_555
H34_2 C37_2 1_555 1_555
C38_2 C37_2 1_555 1_555
C39_2 C38_2 1_555 1_555
H35_2 C39_2 1_555 1_555
C40_2 C39_2 1_555 1_555
H36_2 C40_2 1_555 1_555
C41_2 N8_2 1_555 1_555
H37_2 C41_2 1_555 1_555
C42_2 C38_2 1_555 1_555
H38_2 C42_2 1_555 1_555
C19_2 C20_2 1_555 1_555
C40_2 N8_2 1_555 1_555
C41_2 C42_2 1_555 1_555

#END
