
###############################################################################
#
# This file contains modified crystal structure data generated from the
# MOF subset of the Cambridge Structural Database (CSD) v543 
# hosted by the Cambridge Crystallographic Data Centre (CCDC).
#
# This work is licensed under the Creative Commons
# Attribution-NonCommercial-ShareAlike 4.0 International License.
# To view a copy of this license, visit
# http://creativecommons.org/licenses/by-nc-sa/4.0/
# or send a letter to
# Creative Commons, PO Box 1866, Mountain View, CA 94042, USA.
#
# CIF created using the CSD Python API on 29 September 2022
# The structure has been converted into the P1 space group
# The structure has a 3D framework
# The original CSD entry EWOFIH02 is in the monoclinic crystal system
# The framework has been calculated to contain at least 10.0% void space
# The void calculation uses a probe of radius 1.32A, grid spacing 0.4
#
###############################################################################

data_EWOFIH02
_chemical_formula_moiety         '(C132 H72 Eu4 N12 O29)n'
_symmetry_cell_setting           triclinic
_symmetry_space_group_name_H-M   'P 1'
_symmetry_Int_Tables_number      1
_space_group_name_Hall           'P 1'
loop_
_symmetry_equiv_pos_site_id
_symmetry_equiv_pos_as_xyz
1 x,y,z
_cell_length_a                   13.742(6)
_cell_length_b                   10.981(5)
_cell_length_c                   23.785(10)
_cell_angle_alpha                90
_cell_angle_beta                 103.153(6)
_cell_angle_gamma                90
_cell_volume                     3495.02
loop_
_atom_site_label
_atom_site_type_symbol
_atom_site_fract_x
_atom_site_fract_y
_atom_site_fract_z
O18 O 0.1664(2) 0.0630(2) 0.55350(13)
O21 O 0.0394(2) 0.0334(3) 0.44219(12)
Eu7 Eu 0.59664(2) 0.13187(2) 0.03207(2)
Eu3 Eu 0.40336(2) 0.86813(2) 0.96793(2)
O20 O 0.4606(2) 0.0334(3) 0.05781(12)
C6 C 0.0309(3) 0.6026(4) 0.97925(17)
C7 C 0.0679(3) 0.7133(4) 0.95680(18)
C8 C 0.0026(3) 0.8020(4) 0.9267(2)
C9 C 0.0424(3) 0.9021(4) 0.9051(2)
H5 H 0.0001 0.9636 0.8845
C10 C 0.1465(3) 0.9114(4) 0.91391(19)
H6 H 0.1730 0.9800 0.8982
C11 C 0.2419(3) 0.6413(3) 0.99532(16)
C12 C 0.1714(3) 0.7315(3) 0.96453(17)
C13 C 0.3918(3) 0.7571(4) 0.85909(18)
C14 C 0.3995(3) 0.6953(4) 0.80405(18)
C15 C 0.3739(5) 0.7546(5) 0.7517(2)
H7 H 0.3486 0.8353 0.7501
C16 C 0.3848(5) 0.6983(5) 0.7015(2)
H8 H 0.3700 0.7410 0.6659
C17 C 0.4174(4) 0.5790(4) 0.70408(19)
C18 C 0.4445(4) 0.5178(4) 0.75577(19)
H9 H 0.4688 0.4366 0.7571
C19 C 0.4358(4) 0.5763(4) 0.80554(19)
H10 H 0.4549 0.5351 0.8415
C20 C 0.3563(3) 0.4366(4) 0.63011(18)
C21 C 0.2566(4) 0.4518(4) 0.6322(2)
H11 H 0.2372 0.5200 0.6517
C22 C 0.1861(4) 0.3679(4) 0.60607(19)
H12 H 0.1179 0.3804 0.6065
C23 C 0.2135(3) 0.2647(4) 0.57894(17)
C24 C 0.3146(3) 0.2515(4) 0.57722(19)
H13 H 0.3345 0.1829 0.5583
C25 C 0.3854(4) 0.3361(4) 0.60248(19)
H14 H 0.4534 0.3258 0.6010
C26 C 0.1368(3) 0.1719(4) 0.55311(17)
C28 C 0.6537(3) 0.9403(4) 0.88021(19)
C29 C 0.6260(5) 0.8243(5) 0.8659(3)
H15 H 0.5835 0.7824 0.8858
C30 C 0.6602(6) 0.7651(6) 0.8211(3)
H16 H 0.6396 0.6841 0.8105
C31 C 0.7218(5) 0.8232(5) 0.7939(3)
C32 C 0.7620(5) 0.9334(7) 0.8143(3)
H17 H 0.8117 0.9716 0.7984
C33 C 0.7283(5) 0.9865(7) 0.8581(3)
N2 N 0.2103(3) 0.8302(3) 0.94295(14)
O1 O 0.4289(3) 0.7038(3) 0.90619(12)
O2 O 0.3511(2) 0.8601(3) 0.85869(12)
O3 O 0.4300(2) 0.5205(3) 0.65362(13)
O4 O 0.0481(2) 0.2082(3) 0.53303(12)
O6 O 0.5394(2) 0.9666(3) 0.94219(12)
O8 O 0.7500 0.7576(5) 0.7500
C47 C 0.8463(3) 0.9403(4) 0.61979(19)
C48 C 0.8740(5) 0.8243(5) 0.6341(3)
H25 H 0.9165 0.7824 0.6142
C49 C 0.8398(6) 0.7651(6) 0.6789(3)
H26 H 0.8604 0.6841 0.6895
C50 C 0.7782(5) 0.8232(5) 0.7061(3)
C51 C 0.7380(5) 0.9334(7) 0.6857(3)
H27 H 0.6883 0.9716 0.7016
C52 C 0.7717(5) 0.9865(7) 0.6419(3)
O9 O 0.9606(2) 0.9666(3) 0.55781(12)
O16 O 0.9519(2) 0.7918(3) 0.46697(12)
C39 C 0.9691(3) 0.3974(4) 0.02075(17)
C40 C 0.9321(3) 0.2867(4) 0.04320(18)
C41 C 0.9974(3) 0.1980(4) 0.0733(2)
C42 C 0.9576(3) 0.0979(4) 0.0949(2)
H23 H 0.9999 0.0364 0.1155
C43 C 0.8535(3) 0.0886(4) 0.08609(19)
H24 H 0.8270 0.0200 0.1018
C44 C 0.7581(3) 0.3587(3) 0.00468(16)
C45 C 0.8286(3) 0.2685(3) 0.03547(17)
N5 N 0.7897(3) 0.1698(3) 0.05705(14)
C13_2 C 0.6082(3) 0.2429(4) 0.14091(18)
C14_2 C 0.6005(3) 0.3047(4) 0.19595(18)
C15_2 C 0.6261(5) 0.2454(5) 0.2483(2)
H7_2 H 0.6514 0.1647 0.2499
C16_2 C 0.6152(5) 0.3017(5) 0.2985(2)
H8_2 H 0.6300 0.2590 0.3341
C17_2 C 0.5826(4) 0.4210(4) 0.29592(19)
C18_2 C 0.5555(4) 0.4822(4) 0.24423(19)
H9_2 H 0.5312 0.5634 0.2429
C19_2 C 0.5642(4) 0.4237(4) 0.19446(19)
H10_2 H 0.5451 0.4649 0.1585
C20_2 C 0.6437(3) 0.5634(4) 0.36989(18)
C21_2 C 0.7434(4) 0.5482(4) 0.3678(2)
H11_2 H 0.7628 0.4800 0.3483
C22_2 C 0.8139(4) 0.6321(4) 0.39393(19)
H12_2 H 0.8821 0.6196 0.3935
C23_2 C 0.7865(3) 0.7353(4) 0.42106(17)
C24_2 C 0.6854(3) 0.7485(4) 0.42278(19)
H13_2 H 0.6655 0.8171 0.4417
C25_2 C 0.6146(4) 0.6639(4) 0.39752(19)
H14_2 H 0.5466 0.6742 0.3990
C26_2 C 0.8632(3) 0.8281(4) 0.44689(17)
C28_2 C 0.3463(3) 0.0597(4) 0.11979(19)
C29_2 C 0.3740(5) 0.1757(5) 0.1341(3)
H15_2 H 0.4165 0.2176 0.1142
C30_2 C 0.3398(6) 0.2349(6) 0.1789(3)
H16_2 H 0.3604 0.3159 0.1895
C31_2 C 0.2782(5) 0.1768(5) 0.2061(3)
C32_2 C 0.2380(5) 0.0666(7) 0.1857(3)
H17_2 H 0.1883 0.0284 0.2016
C33_2 C 0.2717(5) 0.0135(7) 0.1419(3)
O1_2 O 0.5711(3) 0.2962(3) 0.09381(12)
O2_2 O 0.6489(2) 0.1399(3) 0.14131(12)
O3_2 O 0.5700(2) 0.4795(3) 0.34638(13)
O5 O 0.8336(2) 0.9370(2) 0.44650(13)
O8_2 O 0.2500 0.2424(5) 0.2500
C47_2 C 0.1537(3) 0.0597(4) 0.38021(19)
C48_2 C 0.1260(5) 0.1757(5) 0.3659(3)
H25_2 H 0.0835 0.2176 0.3858
C49_2 C 0.1602(6) 0.2349(6) 0.3211(3)
H26_2 H 0.1396 0.3159 0.3105
C50_2 C 0.2218(5) 0.1768(5) 0.2939(3)
C51_2 C 0.2620(5) 0.0666(7) 0.3143(3)
H27_2 H 0.3117 0.0284 0.2984
C52_2 C 0.2283(5) 0.0135(7) 0.3581(3)
C53 C 0.1082(3) 0.7571(4) 0.64091(18)
C54 C 0.1005(3) 0.6953(4) 0.69595(18)
C55 C 0.1261(5) 0.7546(5) 0.7483(2)
H29 H 0.1514 0.8353 0.7499
C56 C 0.1152(5) 0.6983(5) 0.7985(2)
H30 H 0.1300 0.7410 0.8341
C57 C 0.0826(4) 0.5790(4) 0.79592(19)
C58 C 0.0555(4) 0.5178(4) 0.74423(19)
H31 H 0.0312 0.4366 0.7429
C59 C 0.0642(4) 0.5763(4) 0.69446(19)
H32 H 0.0451 0.5351 0.6585
C60 C 0.1437(3) 0.4366(4) 0.86989(18)
C61 C 0.2434(4) 0.4518(4) 0.8678(2)
H33 H 0.2628 0.5200 0.8483
C62 C 0.3139(4) 0.3679(4) 0.89393(19)
H34 H 0.3821 0.3804 0.8935
C63 C 0.2865(3) 0.2647(4) 0.92106(17)
C64 C 0.1854(3) 0.2515(4) 0.92278(19)
H35 H 0.1655 0.1829 0.9417
C65 C 0.1146(4) 0.3361(4) 0.89752(19)
H36 H 0.0466 0.3258 0.8990
C66 C 0.3632(3) 0.1719(4) 0.94689(17)
Eu2 Eu 0.09664(2) 0.86813(2) 0.53207(2)
O11 O 0.0711(3) 0.7038(3) 0.59381(12)
O12 O 0.1489(2) 0.8601(3) 0.64131(12)
O13 O 0.0700(2) 0.5205(3) 0.84638(13)
O14 O 0.4519(2) 0.2082(3) 0.96697(12)
O15 O 0.3336(2) 0.0630(2) 0.94650(13)
N7 N 0.1590(3) 0.6639(3) 0.49889(14)
N8 N 0.2897(3) 0.8302(3) 0.55705(14)
O23 O 0.1610(2) 0.8999(3) 0.44672(12)
C27 C 0.6151(3) 0.0064(4) 0.92525(17)
H18 H 0.7590 0.0602 0.8740
O7 O 0.6610(2) 0.1001(3) 0.94672(12)
C46 C 0.8849(3) 0.0064(4) 0.57475(17)
H28 H 0.7410 0.0602 0.6260
O10 O 0.8390(2) 0.1001(3) 0.55328(12)
Eu9 Eu 0.90336(2) 0.13187(2) 0.46793(2)
C1 C 0.4054(3) 0.5779(4) 0.02613(18)
H1 H 0.4747 0.5925 0.0298
C2 C 0.3771(3) 0.4677(4) 0.04732(19)
H2 H 0.4256 0.4090 0.0645
C3 C 0.2770(3) 0.4470(4) 0.04245(18)
H3 H 0.2553 0.3735 0.0568
C4 C 0.2068(3) 0.5342(3) 0.01631(17)
C5 C 0.0992(3) 0.5152(4) 0.00796(17)
N1 N 0.3410(3) 0.6639(3) 0.00111(14)
N3 N 0.0681(3) 0.4125(3) 0.02939(14)
H22 H 0.0676 0.2069 0.0786
O17 O 0.5481(2) 0.7918(3) 0.03303(12)
O22 O 0.3390(2) 0.8999(3) 0.05328(12)
H4 H 0.9324 0.7931 0.9214
C34 C 0.5946(3) 0.4221(4) 0.97387(18)
H19 H 0.5253 0.4075 0.9702
C35 C 0.6229(3) 0.5323(4) 0.95268(19)
H20 H 0.5744 0.5910 0.9355
C36 C 0.7230(3) 0.5530(4) 0.95755(18)
H21 H 0.7447 0.6265 0.9432
C37 C 0.7932(3) 0.4658(3) 0.98369(17)
C38 C 0.9008(3) 0.4848(4) 0.99204(17)
N4 N 0.6590(3) 0.3361(3) 0.99889(14)
N6 N 0.9319(3) 0.5875(3) 0.97061(14)
C1_2 C 0.0946(3) 0.5779(4) 0.47387(18)
H1_2 H 0.0253 0.5925 0.4702
C2_2 C 0.1229(3) 0.4677(4) 0.45268(19)
H2_2 H 0.0744 0.4090 0.4355
C3_2 C 0.2230(3) 0.4470(4) 0.45755(18)
H3_2 H 0.2447 0.3735 0.4432
C4_2 C 0.2932(3) 0.5342(3) 0.48369(17)
C5_2 C 0.4008(3) 0.5152(4) 0.49204(17)
C6_2 C 0.4691(3) 0.6026(4) 0.52075(17)
C7_2 C 0.4321(3) 0.7133(4) 0.54320(18)
C8_2 C 0.4974(3) 0.8020(4) 0.5733(2)
H4_2 H 0.5676 0.7931 0.5786
C9_2 C 0.4576(3) 0.9021(4) 0.5949(2)
H5_2 H 0.4999 0.9636 0.6155
C10_2 C 0.3535(3) 0.9114(4) 0.58609(19)
H6_2 H 0.3270 0.9800 0.6018
C11_2 C 0.2581(3) 0.6413(3) 0.50468(16)
C12_2 C 0.3286(3) 0.7315(3) 0.53547(17)
N3_2 N 0.4319(3) 0.4125(3) 0.47061(14)
C34_2 C 0.9054(3) 0.4221(4) 0.52613(18)
H19_2 H 0.9747 0.4075 0.5298
C35_2 C 0.8771(3) 0.5323(4) 0.54732(19)
H20_2 H 0.9256 0.5910 0.5645
C36_2 C 0.7770(3) 0.5530(4) 0.54245(18)
H21_2 H 0.7553 0.6265 0.5568
C37_2 C 0.7068(3) 0.4658(3) 0.51631(17)
C38_2 C 0.5992(3) 0.4848(4) 0.50796(17)
C39_2 C 0.5309(3) 0.3974(4) 0.47925(17)
C40_2 C 0.5679(3) 0.2867(4) 0.45680(18)
C41_2 C 0.5026(3) 0.1980(4) 0.4267(2)
H22_2 H 0.4324 0.2069 0.4214
C42_2 C 0.5424(3) 0.0979(4) 0.4051(2)
H23_2 H 0.5001 0.0364 0.3845
C43_2 C 0.6465(3) 0.0886(4) 0.41391(19)
H24_2 H 0.6730 0.0200 0.3982
C44_2 C 0.7419(3) 0.3587(3) 0.49532(16)
C45_2 C 0.6714(3) 0.2685(3) 0.46453(17)
N4_2 N 0.8410(3) 0.3361(3) 0.50111(14)
N5_2 N 0.7103(3) 0.1698(3) 0.44295(14)
N6_2 N 0.5681(3) 0.5875(3) 0.52939(14)
C27_2 C 0.3849(3) 0.9936(4) 0.07475(17)
H18_2 H 0.2410 0.9398 0.1260
C46_2 C 0.1151(3) 0.9936(4) 0.42525(17)
H28_2 H 0.2590 0.9398 0.3740
O19 O 0.6664(2) 0.9370(2) 0.05350(13)
C53_2 C 0.8918(3) 0.2429(4) 0.35909(18)
C54_2 C 0.8995(3) 0.3047(4) 0.30405(18)
C55_2 C 0.8739(5) 0.2454(5) 0.2517(2)
H29_2 H 0.8486 0.1647 0.2501
C56_2 C 0.8848(5) 0.3017(5) 0.2015(2)
H30_2 H 0.8700 0.2590 0.1659
C57_2 C 0.9174(4) 0.4210(4) 0.20408(19)
C58_2 C 0.9445(4) 0.4822(4) 0.25577(19)
H31_2 H 0.9688 0.5634 0.2571
C59_2 C 0.9358(4) 0.4237(4) 0.30554(19)
H32_2 H 0.9549 0.4649 0.3415
C60_2 C 0.8563(3) 0.5634(4) 0.13011(18)
C61_2 C 0.7566(4) 0.5482(4) 0.1322(2)
H33_2 H 0.7372 0.4800 0.1517
C62_2 C 0.6861(4) 0.6321(4) 0.10607(19)
H34_2 H 0.6179 0.6196 0.1065
C63_2 C 0.7135(3) 0.7353(4) 0.07894(17)
C64_2 C 0.8146(3) 0.7485(4) 0.07722(19)
H35_2 H 0.8345 0.8171 0.0583
C65_2 C 0.8854(4) 0.6639(4) 0.10248(19)
H36_2 H 0.9534 0.6742 0.1010
C66_2 C 0.6368(3) 0.8281(4) 0.05311(17)
O11_2 O 0.9289(3) 0.2962(3) 0.40619(12)
O12_2 O 0.8511(2) 0.1399(3) 0.35869(12)
O13_2 O 0.9300(2) 0.4795(3) 0.15362(13)
loop_
_geom_bond_atom_site_label_1
_geom_bond_atom_site_label_2
_geom_bond_site_symmetry_1
_geom_bond_site_symmetry_2
Eu7 O20 1_555 1_555
C7 C6 1_555 1_555
C8 C7 1_555 1_555
C9 C8 1_555 1_555
H5 C9 1_555 1_555
C10 C9 1_555 1_555
H6 C10 1_555 1_555
C12 C7 1_555 1_555
C13 C14 1_555 1_555
C14 C15 1_555 1_555
C15 H7 1_555 1_555
C16 C15 1_555 1_555
H8 C16 1_555 1_555
C17 C16 1_555 1_555
C18 C17 1_555 1_555
H9 C18 1_555 1_555
C19 C14 1_555 1_555
H10 C19 1_555 1_555
C20 C21 1_555 1_555
C21 H11 1_555 1_555
C22 C21 1_555 1_555
H12 C22 1_555 1_555
C23 C22 1_555 1_555
C24 C23 1_555 1_555
H13 C24 1_555 1_555
C25 C20 1_555 1_555
H14 C25 1_555 1_555
C26 C23 1_555 1_555
C28 C29 1_555 1_555
C29 H15 1_555 1_555
C30 C29 1_555 1_555
H16 C30 1_555 1_555
C31 C30 1_555 1_555
C32 C31 1_555 1_555
H17 C32 1_555 1_555
C33 C28 1_555 1_555
N2 C10 1_555 1_555
O1 C13 1_555 1_555
O2 C13 1_555 1_555
O3 C17 1_555 1_555
O4 C26 1_555 1_555
O18 C26 1_555 1_555
O8 C31 1_555 1_555
C47 C48 1_555 1_555
C48 H25 1_555 1_555
C49 C48 1_555 1_555
H26 C49 1_555 1_555
C50 O8 1_555 1_555
C51 C50 1_555 1_555
H27 C51 1_555 1_555
C52 C47 1_555 1_555
C11 C12 1_555 1_555
C12 N2 1_555 1_555
C18 C19 1_555 1_555
C20 O3 1_555 1_555
C24 C25 1_555 1_555
C32 C33 1_555 1_555
Eu3 N2 1_555 1_555
Eu3 O1 1_555 1_555
Eu3 O2 1_555 1_555
Eu3 O6 1_555 1_555
C49 C50 1_555 1_555
C51 C52 1_555 1_555
C40 C39 1_555 1_555
C41 C40 1_555 1_555
C42 C41 1_555 1_555
H23 C42 1_555 1_555
C43 C42 1_555 1_555
H24 C43 1_555 1_555
C45 C40 1_555 1_555
N5 C43 1_555 1_555
C44 C45 1_555 1_555
C45 N5 1_555 1_555
N5 Eu7 1_555 1_555
C13_2 C14_2 1_555 1_555
C14_2 C15_2 1_555 1_555
C15_2 H7_2 1_555 1_555
C16_2 C15_2 1_555 1_555
H8_2 C16_2 1_555 1_555
C17_2 C16_2 1_555 1_555
C18_2 C17_2 1_555 1_555
H9_2 C18_2 1_555 1_555
C19_2 C14_2 1_555 1_555
H10_2 C19_2 1_555 1_555
C20_2 C21_2 1_555 1_555
C21_2 H11_2 1_555 1_555
C22_2 C21_2 1_555 1_555
H12_2 C22_2 1_555 1_555
C23_2 C22_2 1_555 1_555
C24_2 C23_2 1_555 1_555
H13_2 C24_2 1_555 1_555
C25_2 C20_2 1_555 1_555
H14_2 C25_2 1_555 1_555
C26_2 C23_2 1_555 1_555
C28_2 C29_2 1_555 1_555
C29_2 H15_2 1_555 1_555
C30_2 C29_2 1_555 1_555
H16_2 C30_2 1_555 1_555
C31_2 C30_2 1_555 1_555
C32_2 C31_2 1_555 1_555
H17_2 C32_2 1_555 1_555
C33_2 C28_2 1_555 1_555
O1_2 C13_2 1_555 1_555
O2_2 C13_2 1_555 1_555
O3_2 C17_2 1_555 1_555
O16 C26_2 1_555 1_555
O5 C26_2 1_555 1_555
O8_2 C31_2 1_555 1_555
C47_2 C48_2 1_555 1_555
C48_2 H25_2 1_555 1_555
C49_2 C48_2 1_555 1_555
H26_2 C49_2 1_555 1_555
C50_2 O8_2 1_555 1_555
C51_2 C50_2 1_555 1_555
H27_2 C51_2 1_555 1_555
C52_2 C47_2 1_555 1_555
C18_2 C19_2 1_555 1_555
C20_2 O3_2 1_555 1_555
C24_2 C25_2 1_555 1_555
C32_2 C33_2 1_555 1_555
Eu7 O1_2 1_555 1_555
Eu7 O2_2 1_555 1_555
C49_2 C50_2 1_555 1_555
C51_2 C52_2 1_555 1_555
C53 C54 1_555 1_555
C54 C55 1_555 1_555
C55 H29 1_555 1_555
C56 C55 1_555 1_555
H30 C56 1_555 1_555
C57 C56 1_555 1_555
C58 C57 1_555 1_555
H31 C58 1_555 1_555
C59 C54 1_555 1_555
H32 C59 1_555 1_555
C60 C61 1_555 1_555
C61 H33 1_555 1_555
C62 C61 1_555 1_555
H34 C62 1_555 1_555
C63 C62 1_555 1_555
C64 C63 1_555 1_555
H35 C64 1_555 1_555
C65 C60 1_555 1_555
H36 C65 1_555 1_555
C66 C63 1_555 1_555
O11 C53 1_555 1_555
O12 C53 1_555 1_555
O13 C57 1_555 1_555
O14 C66 1_555 1_555
O15 C66 1_555 1_555
N7 Eu2 1_555 1_555
N8 Eu2 1_555 1_555
O23 Eu2 1_555 1_555
C58 C59 1_555 1_555
C60 O13 1_555 1_555
C64 C65 1_555 1_555
Eu2 O11 1_555 1_555
Eu2 O12 1_555 1_555
O7 C27 1_555 1_555
O10 C46 1_555 1_555
O10 Eu9 1_555 1_555
C1 H1 1_555 1_555
C2 C1 1_555 1_555
H2 C2 1_555 1_555
C3 C2 1_555 1_555
H3 C3 1_555 1_555
C4 C3 1_555 1_555
C5 C4 1_555 1_555
N1 C1 1_555 1_555
N3 C5 1_555 1_555
C34 H19 1_555 1_555
C35 C34 1_555 1_555
H20 C35 1_555 1_555
C36 C35 1_555 1_555
H21 C36 1_555 1_555
C37 C36 1_555 1_555
C38 C37 1_555 1_555
N4 C34 1_555 1_555
C38 N6 1_555 1_555
C1_2 H1_2 1_555 1_555
C2_2 C1_2 1_555 1_555
H2_2 C2_2 1_555 1_555
C3_2 C2_2 1_555 1_555
H3_2 C3_2 1_555 1_555
C4_2 C3_2 1_555 1_555
C5_2 C4_2 1_555 1_555
C6_2 C5_2 1_555 1_555
C7_2 C6_2 1_555 1_555
C8_2 C7_2 1_555 1_555
H4_2 C8_2 1_555 1_555
C9_2 C8_2 1_555 1_555
H5_2 C9_2 1_555 1_555
C10_2 C9_2 1_555 1_555
H6_2 C10_2 1_555 1_555
C11_2 C4_2 1_555 1_555
C12_2 C7_2 1_555 1_555
N7 C1_2 1_555 1_555
N8 C10_2 1_555 1_555
N3_2 C5_2 1_555 1_555
C34_2 H19_2 1_555 1_555
C35_2 C34_2 1_555 1_555
H20_2 C35_2 1_555 1_555
C36_2 C35_2 1_555 1_555
H21_2 C36_2 1_555 1_555
C37_2 C36_2 1_555 1_555
C38_2 C37_2 1_555 1_555
C39_2 N3_2 1_555 1_555
C40_2 C39_2 1_555 1_555
C41_2 C40_2 1_555 1_555
H22_2 C41_2 1_555 1_555
C42_2 C41_2 1_555 1_555
H23_2 C42_2 1_555 1_555
C43_2 C42_2 1_555 1_555
H24_2 C43_2 1_555 1_555
C44_2 C37_2 1_555 1_555
C45_2 C40_2 1_555 1_555
N4_2 C34_2 1_555 1_555
N5_2 C43_2 1_555 1_555
N6_2 C6_2 1_555 1_555
Eu9 N4_2 1_555 1_555
C11_2 C12_2 1_555 1_555
C11_2 N7 1_555 1_555
C12_2 N8 1_555 1_555
C38_2 C39_2 1_555 1_555
C38_2 N6_2 1_555 1_555
C44_2 C45_2 1_555 1_555
C44_2 N4_2 1_555 1_555
C45_2 N5_2 1_555 1_555
N5_2 Eu9 1_555 1_555
O22 C27_2 1_555 1_555
O23 C46_2 1_555 1_555
C53_2 C54_2 1_555 1_555
C54_2 C55_2 1_555 1_555
C55_2 H29_2 1_555 1_555
C56_2 C55_2 1_555 1_555
H30_2 C56_2 1_555 1_555
C57_2 C56_2 1_555 1_555
C58_2 C57_2 1_555 1_555
H31_2 C58_2 1_555 1_555
C59_2 C54_2 1_555 1_555
H32_2 C59_2 1_555 1_555
C60_2 C61_2 1_555 1_555
C61_2 H33_2 1_555 1_555
C62_2 C61_2 1_555 1_555
H34_2 C62_2 1_555 1_555
C63_2 C62_2 1_555 1_555
C64_2 C63_2 1_555 1_555
H35_2 C64_2 1_555 1_555
C65_2 C60_2 1_555 1_555
H36_2 C65_2 1_555 1_555
C66_2 C63_2 1_555 1_555
O11_2 C53_2 1_555 1_555
O12_2 C53_2 1_555 1_555
O13_2 C57_2 1_555 1_555
O17 C66_2 1_555 1_555
O19 C66_2 1_555 1_555
C58_2 C59_2 1_555 1_555
C60_2 O13_2 1_555 1_555
C64_2 C65_2 1_555 1_555
Eu9 O11_2 1_555 1_555
Eu9 O12_2 1_555 1_555

#END
