
###############################################################################
#
# This file contains modified crystal structure data generated from the
# MOF subset of the Cambridge Structural Database (CSD) v543 
# hosted by the Cambridge Crystallographic Data Centre (CCDC).
#
# This work is licensed under the Creative Commons
# Attribution-NonCommercial-ShareAlike 4.0 International License.
# To view a copy of this license, visit
# http://creativecommons.org/licenses/by-nc-sa/4.0/
# or send a letter to
# Creative Commons, PO Box 1866, Mountain View, CA 94042, USA.
#
# CIF created using the CSD Python API on 29 September 2022
# The structure has been converted into the P1 space group
# The structure has a 3D framework
# The original CSD entry EXABUB is in the orthorhombic crystal system
# The original CSD entry EXABUB is in a Sohncke space group
# The framework has been calculated to contain at least 10.0% void space
# The void calculation uses a probe of radius 1.32A, grid spacing 0.4
#
###############################################################################

data_EXABUB
_chemical_formula_moiety         '(C112 H144 O55 Sm8)n'
_symmetry_cell_setting           triclinic
_symmetry_space_group_name_H-M   'P 1'
_symmetry_Int_Tables_number      1
_space_group_name_Hall           'P 1'
loop_
_symmetry_equiv_pos_site_id
_symmetry_equiv_pos_as_xyz
1 x,y,z
_cell_length_a                   12.9454(7)
_cell_length_b                   14.2341(8)
_cell_length_c                   19.0465(10)
_cell_angle_alpha                90
_cell_angle_beta                 90
_cell_angle_gamma                90
_cell_volume                     3509.62
loop_
_atom_site_label
_atom_site_type_symbol
_atom_site_fract_x
_atom_site_fract_y
_atom_site_fract_z
C1 C 0.0135(7) 0.0966(6) 0.8284(6)
C2 C 0.1249(8) 0.0698(7) 0.8076(6)
H2 H 0.1510 0.0210 0.8384
H3 H 0.1266 0.0467 0.7597
C3 C 0.1909(8) 0.1588(7) 0.8144(6)
H4 H 0.2042 0.1863 0.7686
H5 H 0.2564 0.1450 0.8369
C4 C 0.1248(8) 0.2266(7) 0.8607(5)
C5 C 0.0094(7) 0.2068(7) 0.8337(6)
C7 C 0.1531(7) 0.3302(7) 0.8509(5)
C8 C 0.1386(11) 0.2007(8) 0.9371(6)
H6 H 0.2085 0.2134 0.9511
H7 H 0.1241 0.1351 0.9434
H8 H 0.0921 0.2371 0.9653
H11 H 0.0468 0.2340 0.7311
O3 O 0.1330(6) 0.3909(5) 0.8963(4)
O4 O 0.2000(7) 0.3566(5) 0.7944(4)
Sm5 Sm 0.22804(4) 0.52054(3) 0.82751(2)
Sm2 Sm 0.77196(4) 0.02054(3) 0.67249(2)
H1 H 0.9999 0.0709 0.8752
C6 C 0.9324(7) 0.0572(7) 0.7783(5)
C9 C 0.9919(12) 0.2517(8) 0.7623(7)
H9 H 0.9907 0.3188 0.7672
H10 H 0.9271 0.2307 0.7434
C10 C 0.9292(9) 0.2382(8) 0.8871(8)
H12 H 0.9297 0.3055 0.8905
H13 H 0.9453 0.2115 0.9321
H14 H 0.8620 0.2173 0.8725
C18 C 0.4285(9) 0.0059(9) 0.6806(7)
H20 H 0.4278 0.0673 0.7015
H22 H 0.4832 0.0024 0.6467
O1 O 0.8432(4) 0.0329(5) 0.8018(3)
O2 O 0.9507(6) 0.0468(6) 0.7146(4)
O14 O 0.6134(7) 0.0987(6) 0.9648(4)
H35 H 0.6607 0.1033 0.9968
H36 H 0.6067 0.1548 0.9469
O17 O 0.6688(6) 0.1467(5) 0.8360(4)
O18 O 0.7120(6) 0.1633(5) 0.7229(4)
O19 O 0.8454(7) 0.1226(6) 0.5918(4)
O20 O 0.8481(5) 0.0191(5) 0.9654(3)
O21 O 0.6552(5) 0.0131(5) 0.5794(3)
C21 C 0.5652(8) 0.7721(7) 0.0175(5)
C25 C 0.4842(8) 0.6310(8) 0.0601(6)
H31 H 0.4723 0.5888 0.0965
C26 C 0.5460(9) 0.7092(8) 0.0722(5)
H32 H 0.5742 0.7196 0.1164
C27 C 0.6318(8) 0.8555(7) 0.0294(5)
O9 O 0.6546(7) 0.8774(6) 0.0918(4)
O11 O 0.3481(5) 0.4809(5) 0.0346(3)
Sm4 Sm 0.21217(3) 0.50057(3) 0.11505(2)
Sm7 Sm 0.72804(4) 0.97946(3) 0.17249(2)
Sm1 Sm 0.71217(3) 0.99943(3) 0.88495(2)
C11 C 0.4461(8) 0.9318(8) 0.7378(6)
C12 C 0.3564(9) 0.9316(9) 0.7888(7)
H15 H 0.3811 0.9190 0.8359
H16 H 0.3227 0.9924 0.7886
C13 C 0.2842(11) 0.8596(9) 0.7675(8)
H17 H 0.2216 0.8883 0.7494
H18 H 0.2659 0.8209 0.8075
C14 C 0.3336(8) 0.8002(7) 0.7117(6)
H19 H 0.3026 0.8195 0.6670
C15 C 0.4498(8) 0.8287(8) 0.7081(6)
C16 C 0.5494(7) 0.9552(6) 0.7762(5)
C17 C 0.3145(9) 0.6959(7) 0.7186(6)
H21 H 0.3636 0.9943 0.6579
C19 C 0.5146(11) 0.7631(9) 0.7546(8)
H23 H 0.5144 0.7010 0.7351
H24 H 0.4857 0.7615 0.8010
H25 H 0.5843 0.7860 0.7569
C20 C 0.4937(11) 0.8209(9) 0.6333(6)
H26 H 0.4929 0.7564 0.6187
H27 H 0.5634 0.8439 0.6328
H28 H 0.4522 0.8576 0.6018
C22 C 0.5184(9) 0.7565(8) 0.9511(6)
H29 H 0.5287 0.7992 0.9148
C23 C 0.4580(10) 0.6787(7) 0.9405(6)
H30 H 0.4288 0.6688 0.8965
C24 C 0.4394(7) 0.6143(7) 0.9937(6)
C28 C 0.3712(7) 0.5305(7) 0.9820(5)
O5 O 0.6299(5) 0.9712(5) 0.7424(3)
O6 O 0.5468(6) 0.9580(6) 0.8414(4)
O7 O 0.3312(6) 0.6467(5) 0.6640(4)
O8 O 0.2880(6) 0.6633(5) 0.7771(4)
O10 O 0.6620(7) 0.9005(5) 0.9763(4)
O12 O 0.3448(5) 0.5131(5) 0.9206(3)
O13 O 0.7626(6) 0.8478(5) 0.8443(4)
H33 H 0.7643 0.8007 0.8718
H34 H 0.8071 0.8426 0.8116
Sm3 Sm 0.28783(3) 0.49943(3) 0.61505(2)
O15 O 0.8670(6) 0.8909(5) 0.6037(4)
O16 O 0.8000(7) 0.8566(5) 0.7056(4)
C11_2 C 0.0539(8) 0.0682(8) 0.2378(6)
C12_2 C 0.1436(9) 0.0684(9) 0.2888(7)
H15_2 H 0.1189 0.0810 0.3359
H16_2 H 0.1773 0.0076 0.2886
C13_2 C 0.2158(11) 0.1404(9) 0.2675(8)
H17_2 H 0.2784 0.1117 0.2494
H18_2 H 0.2341 0.1791 0.3075
C14_2 C 0.1664(8) 0.1998(7) 0.2117(6)
H19_2 H 0.1974 0.1805 0.1670
C15_2 C 0.0502(8) 0.1713(8) 0.2081(6)
C17_2 C 0.1855(9) 0.3041(7) 0.2186(6)
H21_2 H 0.1364 0.0057 0.1579
H24_2 H 0.0143 0.2385 0.3010
C20_2 C 0.0063(11) 0.1791(9) 0.1333(6)
H26_2 H 0.0071 0.2436 0.1187
H28_2 H 0.0478 0.1424 0.1018
C23_2 C 0.0420(10) 0.3213(7) 0.4405(6)
H30_2 H 0.0712 0.3312 0.3965
C24_2 C 0.0606(7) 0.3857(7) 0.4937(6)
C25_2 C 0.0158(8) 0.3690(8) 0.5601(6)
H31_2 H 0.0277 0.4112 0.5965
C28_2 C 0.1288(7) 0.4695(7) 0.4820(5)
O7_2 O 0.1688(6) 0.3533(5) 0.1640(4)
O8_2 O 0.2120(6) 0.3367(5) 0.2771(4)
O11_2 O 0.1519(5) 0.5191(5) 0.5346(3)
O12_2 O 0.1552(5) 0.4869(5) 0.4206(3)
Sm6 Sm 0.27196(4) 0.47946(3) 0.32751(2)
Sm1_2 Sm 0.78783(3) 0.00057(3) 0.38495(2)
C16_2 C 0.9506(7) 0.0448(6) 0.2762(5)
C19_2 C 0.9854(11) 0.2369(9) 0.2546(8)
H23_2 H 0.9856 0.2990 0.2351
H25_2 H 0.9157 0.2140 0.2569
H27_2 H 0.9366 0.1561 0.1328
C21_2 C 0.9348(8) 0.2279(7) 0.5175(5)
C22_2 C 0.9816(9) 0.2435(8) 0.4511(6)
H29_2 H 0.9713 0.2008 0.4148
C26_2 C 0.9540(9) 0.2908(8) 0.5722(5)
H32_2 H 0.9258 0.2804 0.6164
C27_2 C 0.8682(8) 0.1445(7) 0.5294(5)
O5_2 O 0.8701(5) 0.0288(5) 0.2424(3)
O6_2 O 0.9532(6) 0.0420(6) 0.3414(4)
O10_2 O 0.8380(7) 0.0995(5) 0.4763(4)
O13_2 O 0.7374(6) 0.1522(5) 0.3443(4)
H33_2 H 0.7357 0.1993 0.3718
H34_2 H 0.6929 0.1574 0.3116
O15_2 O 0.6330(6) 0.1091(5) 0.1037(4)
O16_2 O 0.7000(7) 0.1434(5) 0.2056(4)
C1_2 C 0.4865(7) 0.9034(6) 0.3284(6)
H1_2 H 0.5001 0.9291 0.3752
C2_2 C 0.3751(8) 0.9302(7) 0.3076(6)
H2_2 H 0.3490 0.9790 0.3384
H3_2 H 0.3734 0.9533 0.2597
C3_2 C 0.3091(8) 0.8412(7) 0.3144(6)
H4_2 H 0.2958 0.8137 0.2686
H5_2 H 0.2436 0.8550 0.3369
C4_2 C 0.3752(8) 0.7734(7) 0.3607(5)
C5_2 C 0.4906(7) 0.7932(7) 0.3337(6)
C6_2 C 0.5676(7) 0.9428(7) 0.2783(5)
C7_2 C 0.3469(7) 0.6698(7) 0.3509(5)
C8_2 C 0.3614(11) 0.7993(8) 0.4371(6)
H6_2 H 0.2915 0.7866 0.4511
H7_2 H 0.3759 0.8649 0.4434
H8_2 H 0.4079 0.7629 0.4653
C9_2 C 0.5081(12) 0.7483(8) 0.2623(7)
H9_2 H 0.5093 0.6812 0.2672
H10_2 H 0.5729 0.7693 0.2434
H11_2 H 0.4532 0.7660 0.2311
C10_2 C 0.5708(9) 0.7618(8) 0.3871(8)
H12_2 H 0.5703 0.6945 0.3905
H13_2 H 0.5547 0.7885 0.4321
H14_2 H 0.6380 0.7827 0.3725
O1_2 O 0.6568(4) 0.9671(5) 0.3018(3)
O2_2 O 0.5493(6) 0.9532(6) 0.2146(4)
O3_2 O 0.3670(6) 0.6091(5) 0.3963(4)
O4_2 O 0.3000(7) 0.6434(5) 0.2944(4)
O14_2 O 0.8866(7) 0.9013(6) 0.4648(4)
H35_2 H 0.8393 0.8967 0.4968
H36_2 H 0.8933 0.8452 0.4469
O17_2 O 0.8312(6) 0.8533(5) 0.3360(4)
O18_2 O 0.7880(6) 0.8367(5) 0.2229(4)
O20_2 O 0.6519(5) 0.9809(5) 0.4654(3)
O21_2 O 0.8448(5) 0.9869(5) 0.0794(3)
H1_3 H 0.0001 0.5709 0.6248
C6_3 C 0.0676(7) 0.5572(7) 0.7217(5)
C9_3 C 0.0081(12) 0.7517(8) 0.7377(7)
H9_3 H 0.0093 0.8188 0.7328
H10_3 H 0.0729 0.7307 0.7566
C10_3 C 0.0708(9) 0.7382(8) 0.6129(8)
H12_3 H 0.0703 0.8055 0.6095
H13_3 H 0.0547 0.7115 0.5679
H14_3 H 0.1380 0.7173 0.6275
C11_3 C 0.5539(8) 0.4318(8) 0.7622(6)
C12_3 C 0.6436(9) 0.4316(9) 0.7112(7)
H15_3 H 0.6189 0.4190 0.6641
H16_3 H 0.6773 0.4924 0.7114
C13_3 C 0.7158(11) 0.3596(9) 0.7325(8)
H17_3 H 0.7784 0.3883 0.7506
H18_3 H 0.7341 0.3209 0.6925
C14_3 C 0.6664(8) 0.3002(7) 0.7883(6)
H19_3 H 0.6974 0.3195 0.8330
C15_3 C 0.5502(8) 0.3287(8) 0.7919(6)
C16_3 C 0.4506(7) 0.4552(6) 0.7238(5)
C17_3 C 0.6855(9) 0.1959(7) 0.7814(6)
C18_2 C 0.5715(9) 0.5059(9) 0.8194(7)
H20_2 H 0.5722 0.5673 0.7985
H21_3 H 0.6364 0.4943 0.8421
H22_2 H 0.5168 0.5024 0.8533
C19_3 C 0.4854(11) 0.2631(9) 0.7454(8)
H23_3 H 0.4856 0.2010 0.7649
H24_3 H 0.5143 0.2615 0.6990
H25_3 H 0.4157 0.2860 0.7431
C20_3 C 0.5063(11) 0.3209(9) 0.8667(6)
H26_3 H 0.5071 0.2564 0.8813
H27_3 H 0.4366 0.3439 0.8672
H28_3 H 0.5478 0.3576 0.8982
C21_3 C 0.4348(8) 0.2721(7) 0.4825(5)
C22_3 C 0.4816(9) 0.2565(8) 0.5489(6)
H29_3 H 0.4713 0.2992 0.5852
C23_3 C 0.5420(10) 0.1787(7) 0.5595(6)
H30_3 H 0.5712 0.1688 0.6035
C24_3 C 0.5606(7) 0.1143(7) 0.5063(6)
C25_3 C 0.5158(8) 0.1310(8) 0.4399(6)
H31_3 H 0.5277 0.0888 0.4035
C26_3 C 0.4540(9) 0.2092(8) 0.4278(5)
H32_3 H 0.4258 0.2196 0.3836
C27_3 C 0.3682(8) 0.3555(7) 0.4706(5)
C28_3 C 0.6288(7) 0.0305(7) 0.5180(5)
O1_3 O 0.1568(4) 0.5329(5) 0.6982(3)
O2_3 O 0.0493(6) 0.5468(6) 0.7854(4)
O5_3 O 0.3701(5) 0.4712(5) 0.7576(3)
O6_3 O 0.4532(6) 0.4580(6) 0.6586(4)
O9_2 O 0.3454(7) 0.3774(6) 0.4082(4)
O10_3 O 0.3380(7) 0.4005(5) 0.5237(4)
O13_3 O 0.2374(6) 0.3478(5) 0.6557(4)
H33_3 H 0.2357 0.3007 0.6282
H34_3 H 0.1929 0.3426 0.6884
O14_3 O 0.3866(7) 0.5987(6) 0.5352(4)
H35_3 H 0.3393 0.6033 0.5032
H36_3 H 0.3933 0.6548 0.5531
O19_2 O 0.1546(7) 0.6226(6) 0.9082(4)
C1_3 C 0.9865(7) 0.5966(6) 0.6716(6)
C2_3 C 0.8751(8) 0.5698(7) 0.6924(6)
H2_3 H 0.8490 0.5210 0.6616
H3_3 H 0.8734 0.5467 0.7403
C3_3 C 0.8091(8) 0.6588(7) 0.6856(6)
H4_3 H 0.7958 0.6863 0.7314
H5_3 H 0.7436 0.6450 0.6631
C4_3 C 0.8752(8) 0.7266(7) 0.6393(5)
C5_3 C 0.9906(7) 0.7068(7) 0.6663(6)
C7_3 C 0.8469(7) 0.8302(7) 0.6491(5)
C8_3 C 0.8614(11) 0.7007(8) 0.5629(6)
H6_3 H 0.7915 0.7134 0.5489
H7_3 H 0.8759 0.6351 0.5566
H8_3 H 0.9079 0.7371 0.5347
H11_3 H 0.9532 0.7340 0.7689
C1_4 C 0.5135(7) 0.4034(6) 0.1716(6)
H1_4 H 0.4999 0.4291 0.1248
C2_4 C 0.6249(8) 0.4302(7) 0.1924(6)
H2_4 H 0.6510 0.4790 0.1616
H3_4 H 0.6266 0.4533 0.2403
C3_4 C 0.6909(8) 0.3412(7) 0.1856(6)
H4_4 H 0.7042 0.3137 0.2314
H5_4 H 0.7564 0.3550 0.1631
C4_4 C 0.6248(8) 0.2734(7) 0.1393(5)
C5_4 C 0.5094(7) 0.2932(7) 0.1663(6)
C6_4 C 0.4324(7) 0.4428(7) 0.2217(5)
C7_4 C 0.6531(7) 0.1698(7) 0.1491(5)
C8_4 C 0.6386(11) 0.2993(8) 0.0629(6)
H6_4 H 0.7085 0.2866 0.0489
H7_4 H 0.6241 0.3649 0.0566
H8_4 H 0.5921 0.2629 0.0347
C9_4 C 0.4919(12) 0.2483(8) 0.2377(7)
H9_4 H 0.4907 0.1812 0.2328
H10_4 H 0.4271 0.2693 0.2566
H11_4 H 0.5468 0.2660 0.2689
C10_4 C 0.4292(9) 0.2618(8) 0.1129(8)
H12_4 H 0.4297 0.1945 0.1095
H13_4 H 0.4453 0.2885 0.0679
H14_4 H 0.3620 0.2827 0.1275
C16_4 C 0.0494(7) 0.5448(6) 0.2238(5)
C19_4 C 0.0146(11) 0.7369(9) 0.2454(8)
H23_4 H 0.0144 0.7990 0.2649
H25_4 H 0.0843 0.7140 0.2431
H27_4 H 0.0634 0.6561 0.3672
C22_4 C 0.0184(9) 0.7435(8) 0.0489(6)
H29_4 H 0.0287 0.7008 0.0852
O1_4 O 0.3432(4) 0.4671(5) 0.1982(3)
O2_4 O 0.4507(6) 0.4532(6) 0.2854(4)
O5_4 O 0.1299(5) 0.5288(5) 0.2576(3)
O6_4 O 0.0468(6) 0.5420(6) 0.1586(4)
O10_4 O 0.1620(7) 0.5995(5) 0.0237(4)
O13_4 O 0.2626(6) 0.6522(5) 0.1557(4)
H33_4 H 0.2643 0.6993 0.1282
H34_4 H 0.3071 0.6574 0.1884
O14_4 O 0.1134(7) 0.4013(6) 0.0352(4)
H35_4 H 0.1607 0.3967 0.0032
H36_4 H 0.1067 0.3452 0.0531
C21_4 C 0.0652(8) 0.7279(7) 0.9825(5)
C26_4 C 0.0460(9) 0.7908(8) 0.9278(5)
H32_4 H 0.0742 0.7804 0.8836
C27_4 C 0.1318(8) 0.6445(7) 0.9706(5)
C11_4 C 0.9461(8) 0.5682(8) 0.2622(6)
C12_4 C 0.8564(9) 0.5684(9) 0.2112(7)
H15_4 H 0.8811 0.5810 0.1641
H16_4 H 0.8227 0.5076 0.2114
C13_4 C 0.7842(11) 0.6404(9) 0.2325(8)
H17_4 H 0.7216 0.6117 0.2506
H18_4 H 0.7659 0.6791 0.1925
C14_4 C 0.8336(8) 0.6998(7) 0.2883(6)
H19_4 H 0.8026 0.6805 0.3330
C15_4 C 0.9498(8) 0.6713(8) 0.2919(6)
C17_4 C 0.8145(9) 0.8041(7) 0.2814(6)
C18_3 C 0.9285(9) 0.4941(9) 0.3194(7)
H20_3 H 0.9278 0.4327 0.2985
H21_4 H 0.8636 0.5057 0.3421
H22_3 H 0.9832 0.4976 0.3533
H24_4 H 0.9857 0.7385 0.1990
C20_4 C 0.9937(11) 0.6791(9) 0.3667(6)
H26_4 H 0.9929 0.7436 0.3813
H28_4 H 0.9522 0.6424 0.3982
C23_4 C 0.9580(10) 0.8213(7) 0.0595(6)
H30_4 H 0.9288 0.8312 0.1035
C24_4 C 0.9394(7) 0.8857(7) 0.0063(6)
C28_4 C 0.8712(7) 0.9695(7) 0.0180(5)
C25_4 C 0.9842(8) 0.8690(8) 0.9399(6)
H31_4 H 0.9723 0.9112 0.9035
C18_4 C 0.0715(9) 0.9941(9) 0.1806(7)
H20_4 H 0.0722 0.9327 0.2015
H22_4 H 0.0168 0.9976 0.1467
loop_
_geom_bond_atom_site_label_1
_geom_bond_atom_site_label_2
_geom_bond_site_symmetry_1
_geom_bond_site_symmetry_2
C2 C1 1_555 1_555
H2 C2 1_555 1_555
H3 C2 1_555 1_555
C3 C2 1_555 1_555
H4 C3 1_555 1_555
H5 C3 1_555 1_555
C4 C3 1_555 1_555
C5 C1 1_555 1_555
C7 C4 1_555 1_555
C8 C4 1_555 1_555
H6 C8 1_555 1_555
H7 C8 1_555 1_555
H8 C8 1_555 1_555
O3 C7 1_555 1_555
O4 C7 1_555 1_555
Sm5 O3 1_555 1_555
C4 C5 1_555 1_555
O4 Sm5 1_555 1_555
Sm2 O1 1_555 1_555
H9 C9 1_555 1_555
H10 C9 1_555 1_555
H12 C10 1_555 1_555
H13 C10 1_555 1_555
H14 C10 1_555 1_555
H20 C18 1_555 1_555
H22 C18 1_555 1_555
O1 C6 1_555 1_555
O2 Sm2 1_555 1_555
H35 O14 1_555 1_555
H36 O14 1_555 1_555
O18 Sm2 1_555 1_555
O19 Sm2 1_555 1_555
O21 Sm2 1_555 1_555
C6 O2 1_555 1_555
H31 C25 1_555 1_555
C26 C21 1_555 1_555
H32 C26 1_555 1_555
C27 C21 1_555 1_555
O9 C27 1_555 1_555
Sm4 O11 1_555 1_555
Sm7 O9 1_555 1_555
C25 C26 1_555 1_555
C11 C12 1_555 1_555
C12 H15 1_555 1_555
H16 C12 1_555 1_555
C13 C12 1_555 1_555
H17 C13 1_555 1_555
H18 C13 1_555 1_555
C14 C13 1_555 1_555
H19 C14 1_555 1_555
C15 C11 1_555 1_555
C16 C11 1_555 1_555
C17 C14 1_555 1_555
C19 C15 1_555 1_555
H23 C19 1_555 1_555
H24 C19 1_555 1_555
H25 C19 1_555 1_555
C20 C15 1_555 1_555
H26 C20 1_555 1_555
H27 C20 1_555 1_555
H28 C20 1_555 1_555
C22 H29 1_555 1_555
C23 C22 1_555 1_555
H30 C23 1_555 1_555
C24 C23 1_555 1_555
C28 C24 1_555 1_555
O6 Sm1 1_555 1_555
O7 C17 1_555 1_555
O8 C17 1_555 1_555
O10 Sm1 1_555 1_555
O12 C28 1_555 1_555
O13 Sm1 1_555 1_555
H33 O13 1_555 1_555
H34 O13 1_555 1_555
Sm3 O7 1_555 1_555
Sm5 O8 1_555 1_555
C14 C15 1_555 1_555
C16 O5 1_555 1_555
C16 O6 1_555 1_555
O12 Sm5 1_555 1_555
C11_2 C12_2 1_555 1_555
C12_2 H15_2 1_555 1_555
H16_2 C12_2 1_555 1_555
C13_2 C12_2 1_555 1_555
H17_2 C13_2 1_555 1_555
H18_2 C13_2 1_555 1_555
C14_2 C13_2 1_555 1_555
H19_2 C14_2 1_555 1_555
C15_2 C11_2 1_555 1_555
C17_2 C14_2 1_555 1_555
C20_2 C15_2 1_555 1_555
H26_2 C20_2 1_555 1_555
H28_2 C20_2 1_555 1_555
H30_2 C23_2 1_555 1_555
C24_2 C23_2 1_555 1_555
C25_2 C24_2 1_555 1_555
H31_2 C25_2 1_555 1_555
C28_2 C24_2 1_555 1_555
O7_2 C17_2 1_555 1_555
O8_2 C17_2 1_555 1_555
O11_2 C28_2 1_555 1_555
O12_2 C28_2 1_555 1_555
Sm4 O7_2 1_555 1_555
Sm3 O11_2 1_555 1_555
Sm6 O8_2 1_555 1_555
C14_2 C15_2 1_555 1_555
O12_2 Sm6 1_555 1_555
H23_2 C19_2 1_555 1_555
H25_2 C19_2 1_555 1_555
C21_2 C22_2 1_555 1_555
C22_2 H29_2 1_555 1_555
C26_2 C21_2 1_555 1_555
H32_2 C26_2 1_555 1_555
C27_2 C21_2 1_555 1_555
O6_2 Sm1_2 1_555 1_555
O19 C27_2 1_555 1_555
O10_2 Sm1_2 1_555 1_555
O13_2 Sm1_2 1_555 1_555
H33_2 O13_2 1_555 1_555
H34_2 O13_2 1_555 1_555
C16_2 O5_2 1_555 1_555
C16_2 O6_2 1_555 1_555
C27_2 O10_2 1_555 1_555
Sm7 O1_2 1_555 1_555
C1_2 H1_2 1_555 1_555
C2_2 C1_2 1_555 1_555
H2_2 C2_2 1_555 1_555
H3_2 C2_2 1_555 1_555
C3_2 C2_2 1_555 1_555
H4_2 C3_2 1_555 1_555
H5_2 C3_2 1_555 1_555
C4_2 C3_2 1_555 1_555
C5_2 C1_2 1_555 1_555
C6_2 C1_2 1_555 1_555
C7_2 C4_2 1_555 1_555
C8_2 C4_2 1_555 1_555
H6_2 C8_2 1_555 1_555
H7_2 C8_2 1_555 1_555
H8_2 C8_2 1_555 1_555
C9_2 C5_2 1_555 1_555
H9_2 C9_2 1_555 1_555
H10_2 C9_2 1_555 1_555
H11_2 C9_2 1_555 1_555
C10_2 C5_2 1_555 1_555
H12_2 C10_2 1_555 1_555
H13_2 C10_2 1_555 1_555
H14_2 C10_2 1_555 1_555
O1_2 C6_2 1_555 1_555
O2_2 Sm7 1_555 1_555
O3_2 C7_2 1_555 1_555
O4_2 C7_2 1_555 1_555
H35_2 O14_2 1_555 1_555
H36_2 O14_2 1_555 1_555
Sm6 O3_2 1_555 1_555
O18_2 Sm7 1_555 1_555
O21_2 Sm7 1_555 1_555
C4_2 C5_2 1_555 1_555
C6_2 O2_2 1_555 1_555
O4_2 Sm6 1_555 1_555
Sm3 O1_3 1_555 1_555
Sm5 O1_3 1_555 1_555
H9_3 C9_3 1_555 1_555
H10_3 C9_3 1_555 1_555
H12_3 C10_3 1_555 1_555
H13_3 C10_3 1_555 1_555
H14_3 C10_3 1_555 1_555
C11_3 C12_3 1_555 1_555
C12_3 H15_3 1_555 1_555
H16_3 C12_3 1_555 1_555
C13_3 C12_3 1_555 1_555
H17_3 C13_3 1_555 1_555
H18_3 C13_3 1_555 1_555
C14_3 C13_3 1_555 1_555
H19_3 C14_3 1_555 1_555
C15_3 C11_3 1_555 1_555
C16_3 C11_3 1_555 1_555
C17_3 C14_3 1_555 1_555
C18_2 C11_3 1_555 1_555
H20_2 C18_2 1_555 1_555
H21_3 C18_2 1_555 1_555
H22_2 C18_2 1_555 1_555
C19_3 C15_3 1_555 1_555
H23_3 C19_3 1_555 1_555
H24_3 C19_3 1_555 1_555
H25_3 C19_3 1_555 1_555
C20_3 C15_3 1_555 1_555
H26_3 C20_3 1_555 1_555
H27_3 C20_3 1_555 1_555
H28_3 C20_3 1_555 1_555
C21_3 C22_3 1_555 1_555
C22_3 H29_3 1_555 1_555
C23_3 C22_3 1_555 1_555
H30_3 C23_3 1_555 1_555
C24_3 C23_3 1_555 1_555
C25_3 C24_3 1_555 1_555
H31_3 C25_3 1_555 1_555
C26_3 C21_3 1_555 1_555
H32_3 C26_3 1_555 1_555
C27_3 C21_3 1_555 1_555
C28_3 C24_3 1_555 1_555
O1_3 C6_3 1_555 1_555
O2_3 Sm5 1_555 1_555
O5_3 Sm5 1_555 1_555
O6_3 Sm3 1_555 1_555
O17 C17_3 1_555 1_555
O18 C17_3 1_555 1_555
O9_2 C27_3 1_555 1_555
O10_3 Sm3 1_555 1_555
O21 C28_3 1_555 1_555
O13_3 Sm3 1_555 1_555
H33_3 O13_3 1_555 1_555
H34_3 O13_3 1_555 1_555
O14_3 Sm3 1_555 1_555
H35_3 O14_3 1_555 1_555
H36_3 O14_3 1_555 1_555
Sm6 O9_2 1_555 1_555
O19_2 Sm5 1_555 1_555
C6_3 O2_3 1_555 1_555
C14_3 C15_3 1_555 1_555
C16_3 O5_3 1_555 1_555
C16_3 O6_3 1_555 1_555
C25_3 C26_3 1_555 1_555
C27_3 O10_3 1_555 1_555
C2_3 C1_3 1_555 1_555
H2_3 C2_3 1_555 1_555
H3_3 C2_3 1_555 1_555
C3_3 C2_3 1_555 1_555
H4_3 C3_3 1_555 1_555
H5_3 C3_3 1_555 1_555
C4_3 C3_3 1_555 1_555
C5_3 C1_3 1_555 1_555
C7_3 C4_3 1_555 1_555
C8_3 C4_3 1_555 1_555
H6_3 C8_3 1_555 1_555
H7_3 C8_3 1_555 1_555
H8_3 C8_3 1_555 1_555
O15 C7_3 1_555 1_555
O16 C7_3 1_555 1_555
C4_3 C5_3 1_555 1_555
Sm4 O1_4 1_555 1_555
Sm6 O1_4 1_555 1_555
C1_4 H1_4 1_555 1_555
C2_4 C1_4 1_555 1_555
H2_4 C2_4 1_555 1_555
H3_4 C2_4 1_555 1_555
C3_4 C2_4 1_555 1_555
H4_4 C3_4 1_555 1_555
H5_4 C3_4 1_555 1_555
C4_4 C3_4 1_555 1_555
C5_4 C1_4 1_555 1_555
C6_4 C1_4 1_555 1_555
C7_4 C4_4 1_555 1_555
C8_4 C4_4 1_555 1_555
H6_4 C8_4 1_555 1_555
H7_4 C8_4 1_555 1_555
H8_4 C8_4 1_555 1_555
C9_4 C5_4 1_555 1_555
H9_4 C9_4 1_555 1_555
H10_4 C9_4 1_555 1_555
H11_4 C9_4 1_555 1_555
C10_4 C5_4 1_555 1_555
H12_4 C10_4 1_555 1_555
H13_4 C10_4 1_555 1_555
H14_4 C10_4 1_555 1_555
H23_4 C19_4 1_555 1_555
H25_4 C19_4 1_555 1_555
C22_4 H29_4 1_555 1_555
O1_4 C6_4 1_555 1_555
O2_4 Sm6 1_555 1_555
O15_2 C7_4 1_555 1_555
O16_2 C7_4 1_555 1_555
O5_4 Sm6 1_555 1_555
O6_4 Sm4 1_555 1_555
O10_4 Sm4 1_555 1_555
O13_4 Sm4 1_555 1_555
H33_4 O13_4 1_555 1_555
H34_4 O13_4 1_555 1_555
O14_4 Sm4 1_555 1_555
H35_4 O14_4 1_555 1_555
H36_4 O14_4 1_555 1_555
C4_4 C5_4 1_555 1_555
C6_4 O2_4 1_555 1_555
C16_4 O5_4 1_555 1_555
C16_4 O6_4 1_555 1_555
C26_4 C21_4 1_555 1_555
H32_4 C26_4 1_555 1_555
C27_4 C21_4 1_555 1_555
O19_2 C27_4 1_555 1_555
C11_4 C12_4 1_555 1_555
C12_4 H15_4 1_555 1_555
H16_4 C12_4 1_555 1_555
C13_4 C12_4 1_555 1_555
H17_4 C13_4 1_555 1_555
H18_4 C13_4 1_555 1_555
C14_4 C13_4 1_555 1_555
H19_4 C14_4 1_555 1_555
C15_4 C11_4 1_555 1_555
C17_4 C14_4 1_555 1_555
C18_3 C11_4 1_555 1_555
H20_3 C18_3 1_555 1_555
H21_4 C18_3 1_555 1_555
H22_3 C18_3 1_555 1_555
C20_4 C15_4 1_555 1_555
H26_4 C20_4 1_555 1_555
H28_4 C20_4 1_555 1_555
H30_4 C23_4 1_555 1_555
C24_4 C23_4 1_555 1_555
C28_4 C24_4 1_555 1_555
O17_2 C17_4 1_555 1_555
O18_2 C17_4 1_555 1_555
O21_2 C28_4 1_555 1_555
C14_4 C15_4 1_555 1_555
H31_4 C25_4 1_555 1_555
H20_4 C18_4 1_555 1_555
H22_4 C18_4 1_555 1_555

#END
