
###############################################################################
#
# This file contains modified crystal structure data generated from the
# MOF subset of the Cambridge Structural Database (CSD) v543 
# hosted by the Cambridge Crystallographic Data Centre (CCDC).
#
# This work is licensed under the Creative Commons
# Attribution-NonCommercial-ShareAlike 4.0 International License.
# To view a copy of this license, visit
# http://creativecommons.org/licenses/by-nc-sa/4.0/
# or send a letter to
# Creative Commons, PO Box 1866, Mountain View, CA 94042, USA.
#
# CIF created using the CSD Python API on 29 September 2022
# The structure has been converted into the P1 space group
# The structure has a 3D framework
# The original CSD entry EXACIQ is in the orthorhombic crystal system
# The original CSD entry EXACIQ is in a Sohncke space group
# The framework has been calculated to contain at least 10.0% void space
# The void calculation uses a probe of radius 1.32A, grid spacing 0.4
#
###############################################################################

data_EXACIQ
_chemical_formula_moiety         '(C112 H144 O53 Tb8)n'
_symmetry_cell_setting           triclinic
_symmetry_space_group_name_H-M   'P 1'
_symmetry_Int_Tables_number      1
_space_group_name_Hall           'P 1'
loop_
_symmetry_equiv_pos_site_id
_symmetry_equiv_pos_as_xyz
1 x,y,z
_cell_length_a                   12.932(8)
_cell_length_b                   14.067(8)
_cell_length_c                   18.928(12)
_cell_angle_alpha                90
_cell_angle_beta                 90
_cell_angle_gamma                90
_cell_volume                     3443.28
loop_
_atom_site_label
_atom_site_type_symbol
_atom_site_fract_x
_atom_site_fract_y
_atom_site_fract_z
C1 C 0.0124(8) 0.0961(9) 0.8288(7)
H1 H 0.0001 0.0697 0.8760
C2 C 0.1232(10) 0.0698(10) 0.8056(8)
H2 H 0.1504 0.0192 0.8350
H3 H 0.1235 0.0487 0.7568
C3 C 0.1882(10) 0.1602(9) 0.8140(7)
H4 H 0.2026 0.1884 0.7683
H5 H 0.2532 0.1460 0.8372
C4 C 0.1219(9) 0.2279(9) 0.8596(6)
C5 C 0.0095(9) 0.2078(9) 0.8336(7)
C7 C 0.1501(9) 0.3314(9) 0.8514(6)
C8 C 0.1392(13) 0.2008(12) 0.9385(7)
H6 H 0.2095 0.2141 0.9515
H7 H 0.1254 0.1343 0.9449
H8 H 0.0933 0.2373 0.9677
H11 H 0.0430 0.2406 0.7309
O3 O 0.1322(7) 0.3924(6) 0.8969(4)
O4 O 0.1976(8) 0.3590(7) 0.7955(4)
Tb5 Tb 0.22766(4) 0.52062(3) 0.82843(2)
Tb1 Tb 0.71235(4) 0.00040(4) 0.88483(3)
Tb2 Tb 0.77234(4) 0.02062(3) 0.67157(2)
C6 C 0.9303(8) 0.0560(9) 0.7777(6)
C9 C 0.9895(12) 0.2570(11) 0.7638(7)
H9 H 0.9890 0.3246 0.7708
H10 H 0.9238 0.2371 0.7455
C10 C 0.9295(11) 0.2385(10) 0.8881(10)
H12 H 0.9298 0.3065 0.8920
H13 H 0.9462 0.2109 0.9330
H14 H 0.8623 0.2174 0.8735
C18 C 0.4274(12) 0.0056(13) 0.6784(10)
H20 H 0.4265 0.0680 0.6988
H22 H 0.4811 0.0020 0.6435
O1 O 0.8428(5) 0.0334(6) 0.8019(4)
O2 O 0.9468(7) 0.0476(8) 0.7135(4)
O14 O 0.6181(8) 0.1003(8) 0.9623(4)
H36 H 0.6134 0.1586 0.9510
O17 O 0.6719(7) 0.1466(6) 0.8346(4)
O18 O 0.7146(7) 0.1620(6) 0.7213(4)
O19 O 0.8458(7) 0.1209(8) 0.5914(4)
O20 O 0.8429(6) 0.0185(6) 0.9649(4)
O21 O 0.6598(6) 0.0103(7) 0.5793(4)
C21 C 0.5612(9) 0.7758(8) 0.0180(6)
C25 C 0.4800(11) 0.6330(9) 0.0617(6)
H31 H 0.4666 0.5920 0.0992
C26 C 0.5429(10) 0.7113(11) 0.0713(7)
H32 H 0.5738 0.7208 0.1152
C27 C 0.6322(10) 0.8577(9) 0.0283(6)
O9 O 0.6542(7) 0.8791(8) 0.0914(4)
O11 O 0.3429(6) 0.4815(6) 0.0351(4)
Tb4 Tb 0.21235(4) 0.49960(4) 0.11517(3)
Tb7 Tb 0.72766(4) 0.97938(3) 0.17157(2)
C11 C 0.4475(9) 0.9329(9) 0.7357(7)
C12 C 0.3576(10) 0.9339(11) 0.7911(9)
H15 H 0.3849 0.9228 0.8381
H16 H 0.3234 0.9953 0.7908
C13 C 0.2850(11) 0.8604(11) 0.7729(9)
H17 H 0.2205 0.8885 0.7573
H18 H 0.2710 0.8210 0.8138
C14 C 0.3316(9) 0.7998(9) 0.7134(8)
H19 H 0.2982 0.8205 0.6695
C15 C 0.4481(9) 0.8293(9) 0.7075(7)
C16 C 0.5494(8) 0.9574(8) 0.7733(6)
C17 C 0.3119(8) 0.6943(8) 0.7196(5)
H21 H 0.3619 0.9928 0.6566
C19 C 0.5132(13) 0.7654(10) 0.7528(10)
H23 H 0.5130 0.7024 0.7334
H24 H 0.4854 0.7639 0.7998
H25 H 0.5827 0.7892 0.7542
C20 C 0.4908(12) 0.8226(13) 0.6312(8)
H26 H 0.4902 0.7575 0.6161
H27 H 0.5604 0.8463 0.6302
H28 H 0.4484 0.8599 0.6002
C22 C 0.5175(13) 0.7578(11) 0.9518(7)
H29 H 0.5310 0.7991 0.9146
C23 C 0.4552(12) 0.6803(10) 0.9407(7)
H30 H 0.4252 0.6709 0.8966
C24 C 0.4365(8) 0.6157(8) 0.9948(7)
C28 C 0.3702(9) 0.5299(10) 0.9821(5)
O5 O 0.6289(6) 0.9720(7) 0.7347(5)
O6 O 0.5517(8) 0.9608(9) 0.8364(5)
O7 O 0.3281(7) 0.6466(6) 0.6654(4)
O8 O 0.2854(7) 0.6620(6) 0.7787(4)
O10 O 0.6578(8) 0.9035(7) 0.9764(4)
O12 O 0.3402(6) 0.5103(7) 0.9207(4)
O13 O 0.7615(7) 0.8504(6) 0.8443(4)
H33 H 0.7632 0.8032 0.8718
H34 H 0.8060 0.8452 0.8116
Tb3 Tb 0.28765(4) 0.50040(4) 0.61517(3)
O15 O 0.8678(7) 0.8924(6) 0.6031(4)
O16 O 0.8024(8) 0.8590(7) 0.7045(4)
C11_2 C 0.0525(9) 0.0671(9) 0.2357(7)
C12_2 C 0.1424(10) 0.0661(11) 0.2911(9)
H15_2 H 0.1151 0.0772 0.3381
H16_2 H 0.1766 0.0047 0.2908
C13_2 C 0.2150(11) 0.1396(11) 0.2729(9)
H17_2 H 0.2795 0.1115 0.2573
H18_2 H 0.2290 0.1790 0.3138
C14_2 C 0.1684(9) 0.2002(9) 0.2134(8)
H19_2 H 0.2018 0.1795 0.1695
C15_2 C 0.0519(9) 0.1707(9) 0.2075(7)
C17_2 C 0.1881(8) 0.3057(8) 0.2196(5)
H21_2 H 0.1381 0.0072 0.1566
H24_2 H 0.0146 0.2361 0.2998
C20_2 C 0.0092(12) 0.1774(13) 0.1312(8)
H26_2 H 0.0098 0.2425 0.1161
H28_2 H 0.0516 0.1401 0.1002
C23_2 C 0.0448(12) 0.3197(10) 0.4407(7)
H30_2 H 0.0748 0.3291 0.3966
C24_2 C 0.0635(8) 0.3843(8) 0.4948(7)
C25_2 C 0.0200(11) 0.3670(9) 0.5617(6)
H31_2 H 0.0334 0.4080 0.5992
C28_2 C 0.1298(9) 0.4701(10) 0.4821(5)
O7_2 O 0.1719(7) 0.3534(6) 0.1654(4)
O8_2 O 0.2146(7) 0.3380(6) 0.2787(4)
O11_2 O 0.1571(6) 0.5185(6) 0.5351(4)
O12_2 O 0.1598(6) 0.4897(7) 0.4207(4)
Tb6 Tb 0.27234(4) 0.47938(3) 0.32843(2)
C16_2 C 0.9506(8) 0.0426(8) 0.2733(6)
C19_2 C 0.9868(13) 0.2346(10) 0.2528(10)
H23_2 H 0.9870 0.2976 0.2334
H25_2 H 0.9173 0.2108 0.2542
H27_2 H 0.9396 0.1537 0.1302
C21_2 C 0.9388(9) 0.2242(8) 0.5180(6)
C22_2 C 0.9825(13) 0.2422(11) 0.4518(7)
H29_2 H 0.9690 0.2009 0.4146
C26_2 C 0.9571(10) 0.2887(11) 0.5713(7)
H32_2 H 0.9262 0.2792 0.6152
C27_2 C 0.8678(10) 0.1423(9) 0.5283(6)
O5_2 O 0.8711(6) 0.0280(7) 0.2347(5)
O6_2 O 0.9483(8) 0.0392(9) 0.3364(5)
O10_2 O 0.8422(8) 0.0965(7) 0.4764(4)
O13_2 O 0.7385(7) 0.1496(6) 0.3443(4)
H33_2 H 0.7368 0.1968 0.3718
H34_2 H 0.6940 0.1548 0.3116
O15_2 O 0.6322(7) 0.1076(6) 0.1031(4)
O16_2 O 0.6976(8) 0.1410(7) 0.2045(4)
Tb1_2 Tb 0.78765(4) 0.99960(4) 0.38483(3)
C1_2 C 0.4876(8) 0.9039(9) 0.3288(7)
H1_2 H 0.4999 0.9303 0.3760
C2_2 C 0.3768(10) 0.9302(10) 0.3056(8)
H2_2 H 0.3496 0.9808 0.3350
H3_2 H 0.3765 0.9513 0.2568
C3_2 C 0.3118(10) 0.8398(9) 0.3140(7)
H4_2 H 0.2974 0.8116 0.2683
H5_2 H 0.2468 0.8540 0.3372
C4_2 C 0.3781(9) 0.7721(9) 0.3596(6)
C5_2 C 0.4905(9) 0.7922(9) 0.3336(7)
C6_2 C 0.5697(8) 0.9440(9) 0.2777(6)
C7_2 C 0.3499(9) 0.6686(9) 0.3514(6)
C8_2 C 0.3608(13) 0.7992(12) 0.4385(7)
H6_2 H 0.2905 0.7859 0.4515
H7_2 H 0.3746 0.8657 0.4449
H8_2 H 0.4067 0.7627 0.4677
C9_2 C 0.5105(12) 0.7430(11) 0.2638(7)
H9_2 H 0.5110 0.6754 0.2708
H10_2 H 0.5762 0.7629 0.2455
H11_2 H 0.4570 0.7594 0.2309
C10_2 C 0.5705(11) 0.7615(10) 0.3881(10)
H12_2 H 0.5702 0.6935 0.3920
H13_2 H 0.5538 0.7891 0.4330
H14_2 H 0.6377 0.7826 0.3735
O1_2 O 0.6572(5) 0.9666(6) 0.3019(4)
O2_2 O 0.5532(7) 0.9524(8) 0.2135(4)
O3_2 O 0.3678(7) 0.6076(6) 0.3969(4)
O4_2 O 0.3024(8) 0.6410(7) 0.2955(4)
O14_2 O 0.8819(8) 0.8997(8) 0.4623(4)
H35 H 0.8693 0.9047 0.5062
H36_2 H 0.8866 0.8414 0.4510
O17_2 O 0.8281(7) 0.8534(6) 0.3346(4)
O18_2 O 0.7854(7) 0.8380(6) 0.2213(4)
O20_2 O 0.6571(6) 0.9815(6) 0.4649(4)
O21_2 O 0.8402(6) 0.9897(7) 0.0793(4)
C6_3 C 0.0697(8) 0.5560(9) 0.7223(6)
C9_3 C 0.0105(12) 0.7570(11) 0.7362(7)
H9_3 H 0.0110 0.8246 0.7292
H10_3 H 0.0762 0.7371 0.7545
C10_3 C 0.0705(11) 0.7385(10) 0.6119(10)
H12_3 H 0.0702 0.8065 0.6080
H13_3 H 0.0538 0.7109 0.5670
H14_3 H 0.1377 0.7174 0.6265
C11_3 C 0.5525(9) 0.4329(9) 0.7643(7)
C12_3 C 0.6424(10) 0.4339(11) 0.7089(9)
H15_3 H 0.6151 0.4228 0.6619
H16_3 H 0.6766 0.4953 0.7092
C13_3 C 0.7150(11) 0.3604(11) 0.7271(9)
H17_3 H 0.7795 0.3885 0.7427
H18_3 H 0.7290 0.3210 0.6862
C14_3 C 0.6684(9) 0.2998(9) 0.7866(8)
H19_3 H 0.7018 0.3205 0.8305
C15_3 C 0.5519(9) 0.3293(9) 0.7925(7)
C16_3 C 0.4506(8) 0.4574(8) 0.7267(6)
C17_3 C 0.6881(8) 0.1943(8) 0.7804(5)
C18_2 C 0.5726(12) 0.5056(13) 0.8216(10)
H20_2 H 0.5735 0.5680 0.8012
H21_3 H 0.6381 0.4928 0.8434
H22_2 H 0.5189 0.5020 0.8565
C19_3 C 0.4868(13) 0.2654(10) 0.7472(10)
H23_3 H 0.4870 0.2024 0.7666
H24_3 H 0.5146 0.2639 0.7002
H25_3 H 0.4173 0.2892 0.7458
C20_3 C 0.5092(12) 0.3226(13) 0.8688(8)
H26_3 H 0.5098 0.2575 0.8839
H27_3 H 0.4396 0.3463 0.8698
H28_3 H 0.5516 0.3599 0.8998
C21_3 C 0.4388(9) 0.2758(8) 0.4820(6)
C22_3 C 0.4825(13) 0.2578(11) 0.5482(7)
H29_3 H 0.4690 0.2991 0.5854
C23_3 C 0.5448(12) 0.1803(10) 0.5593(7)
H30_3 H 0.5748 0.1709 0.6034
C24_3 C 0.5635(8) 0.1157(8) 0.5052(7)
C25_3 C 0.5200(11) 0.1330(9) 0.4383(6)
H31_3 H 0.5334 0.0920 0.4008
C26_3 C 0.4571(10) 0.2113(11) 0.4287(7)
H32_3 H 0.4262 0.2208 0.3848
C27_3 C 0.3678(10) 0.3577(9) 0.4717(6)
C28_3 C 0.6298(9) 0.0299(10) 0.5179(5)
O1_3 O 0.1572(5) 0.5334(6) 0.6981(4)
O2_3 O 0.0532(7) 0.5476(8) 0.7865(4)
O5_3 O 0.3711(6) 0.4720(7) 0.7653(5)
O6_3 O 0.4483(8) 0.4608(9) 0.6636(5)
O9_2 O 0.3458(7) 0.3791(8) 0.4086(4)
O10_3 O 0.3422(8) 0.4035(7) 0.5236(4)
O13_3 O 0.2385(7) 0.3504(6) 0.6557(4)
H33_3 H 0.2368 0.3032 0.6282
H34_3 H 0.1940 0.3452 0.6884
O14_3 O 0.3819(8) 0.6003(8) 0.5377(4)
H35_2 H 0.3693 0.5953 0.4938
H36_3 H 0.3866 0.6586 0.5490
O19_2 O 0.1542(7) 0.6209(8) 0.9086(4)
C1_3 C 0.9876(8) 0.5961(9) 0.6712(7)
H1_3 H 0.9999 0.5697 0.6240
C2_3 C 0.8768(10) 0.5698(10) 0.6944(8)
H2_3 H 0.8496 0.5192 0.6650
H3_3 H 0.8765 0.5487 0.7432
C3_3 C 0.8118(10) 0.6602(9) 0.6860(7)
H4_3 H 0.7974 0.6884 0.7317
H5_3 H 0.7468 0.6460 0.6628
C4_3 C 0.8781(9) 0.7279(9) 0.6404(6)
C5_3 C 0.9905(9) 0.7078(9) 0.6664(7)
C7_3 C 0.8499(9) 0.8314(9) 0.6486(6)
C8_3 C 0.8608(13) 0.7008(12) 0.5615(7)
H6_3 H 0.7905 0.7141 0.5485
H7_3 H 0.8746 0.6343 0.5551
H8_3 H 0.9067 0.7373 0.5323
H11_3 H 0.9570 0.7406 0.7691
C1_4 C 0.5124(8) 0.4039(9) 0.1712(7)
H1_4 H 0.5001 0.4303 0.1240
C2_4 C 0.6232(10) 0.4302(10) 0.1944(8)
H2_4 H 0.6504 0.4808 0.1650
H3_4 H 0.6235 0.4513 0.2432
C3_4 C 0.6882(10) 0.3398(9) 0.1860(7)
H4_4 H 0.7026 0.3116 0.2317
H5_4 H 0.7532 0.3540 0.1628
C4_4 C 0.6219(9) 0.2721(9) 0.1404(6)
C5_4 C 0.5095(9) 0.2922(9) 0.1664(7)
C6_4 C 0.4303(8) 0.4440(9) 0.2223(6)
C7_4 C 0.6501(9) 0.1686(9) 0.1486(6)
C8_4 C 0.6392(13) 0.2992(12) 0.0615(7)
H6_4 H 0.7095 0.2859 0.0485
H7_4 H 0.6254 0.3657 0.0551
H8_4 H 0.5933 0.2627 0.0323
C9_4 C 0.4895(12) 0.2430(11) 0.2362(7)
H9_4 H 0.4890 0.1754 0.2292
H10_4 H 0.4238 0.2629 0.2545
H11_4 H 0.5430 0.2594 0.2691
C10_4 C 0.4295(11) 0.2615(10) 0.1119(10)
H12_4 H 0.4298 0.1935 0.1080
H13_4 H 0.4462 0.2891 0.0670
H14_4 H 0.3623 0.2826 0.1265
C16_4 C 0.0494(8) 0.5426(8) 0.2267(6)
C19_4 C 0.0132(13) 0.7346(10) 0.2472(10)
H23_4 H 0.0130 0.7976 0.2666
H25_4 H 0.0827 0.7108 0.2458
H27_4 H 0.0604 0.6537 0.3698
C22_4 C 0.0175(13) 0.7422(11) 0.0482(7)
H29_4 H 0.0310 0.7009 0.0854
O1_4 O 0.3428(5) 0.4666(6) 0.1981(4)
O2_4 O 0.4468(7) 0.4524(8) 0.2865(4)
O5_4 O 0.1289(6) 0.5280(7) 0.2653(5)
O6_4 O 0.0517(8) 0.5392(9) 0.1636(5)
O10_4 O 0.1578(8) 0.5965(7) 0.0236(4)
O13_4 O 0.2615(7) 0.6496(6) 0.1557(4)
H33_4 H 0.2632 0.6968 0.1282
H34_4 H 0.3060 0.6548 0.1884
O14_4 O 0.1181(8) 0.3997(8) 0.0377(4)
H36_4 H 0.1134 0.3414 0.0490
C21_4 C 0.0612(9) 0.7242(8) 0.9820(6)
C26_4 C 0.0429(10) 0.7887(11) 0.9287(7)
H32_4 H 0.0738 0.7792 0.8848
C27_4 C 0.1322(10) 0.6423(9) 0.9717(6)
H35_3 H 0.1307 0.4047 0.9938
C11_4 C 0.9475(9) 0.5671(9) 0.2643(7)
C12_4 C 0.8576(10) 0.5661(11) 0.2089(9)
H15_4 H 0.8849 0.5772 0.1619
H16_4 H 0.8234 0.5047 0.2092
C13_4 C 0.7850(11) 0.6396(11) 0.2271(9)
H17_4 H 0.7205 0.6115 0.2427
H18_4 H 0.7710 0.6790 0.1862
C14_4 C 0.8316(9) 0.7002(9) 0.2866(8)
H19_4 H 0.7982 0.6795 0.3305
C15_4 C 0.9481(9) 0.6707(9) 0.2925(7)
C17_4 C 0.8119(8) 0.8057(8) 0.2804(5)
C18_3 C 0.9274(12) 0.4944(13) 0.3216(10)
H20_3 H 0.9265 0.4320 0.3012
H21_4 H 0.8619 0.5072 0.3434
H22_3 H 0.9811 0.4980 0.3565
H24_4 H 0.9854 0.7361 0.2002
C20_4 C 0.9908(12) 0.6774(13) 0.3688(8)
H26_4 H 0.9902 0.7425 0.3839
H28_4 H 0.9484 0.6401 0.3998
C23_4 C 0.9552(12) 0.8197(10) 0.0593(7)
H30_4 H 0.9252 0.8291 0.1034
C24_4 C 0.9365(8) 0.8843(8) 0.0052(7)
C28_4 C 0.8702(9) 0.9701(10) 0.0179(5)
H35_4 H 0.6307 0.0953 0.0062
C18_4 C 0.0726(12) 0.9944(13) 0.1784(10)
H20_4 H 0.0735 0.9320 0.1988
H22_4 H 0.0189 0.9980 0.1435
C25_4 C 0.9800(11) 0.8670(9) 0.9383(6)
H31_4 H 0.9666 0.9080 0.9008
loop_
_geom_bond_atom_site_label_1
_geom_bond_atom_site_label_2
_geom_bond_site_symmetry_1
_geom_bond_site_symmetry_2
C1 H1 1_555 1_555
C2 C1 1_555 1_555
H2 C2 1_555 1_555
H3 C2 1_555 1_555
C3 C2 1_555 1_555
H4 C3 1_555 1_555
H5 C3 1_555 1_555
C4 C3 1_555 1_555
C5 C1 1_555 1_555
C7 C4 1_555 1_555
C8 C4 1_555 1_555
H6 C8 1_555 1_555
H7 C8 1_555 1_555
H8 C8 1_555 1_555
O3 C7 1_555 1_555
O4 C7 1_555 1_555
Tb5 O3 1_555 1_555
C4 C5 1_555 1_555
O4 Tb5 1_555 1_555
Tb1 O1 1_555 1_555
Tb2 O1 1_555 1_555
H9 C9 1_555 1_555
H10 C9 1_555 1_555
H12 C10 1_555 1_555
H13 C10 1_555 1_555
H14 C10 1_555 1_555
H20 C18 1_555 1_555
H22 C18 1_555 1_555
O1 C6 1_555 1_555
O2 Tb2 1_555 1_555
O14 Tb1 1_555 1_555
H36 O14 1_555 1_555
O17 Tb1 1_555 1_555
O18 Tb2 1_555 1_555
O19 Tb2 1_555 1_555
O20 Tb1 1_555 1_555
O21 Tb2 1_555 1_555
C6 O2 1_555 1_555
H31 C25 1_555 1_555
C26 C21 1_555 1_555
H32 C26 1_555 1_555
C27 C21 1_555 1_555
O9 C27 1_555 1_555
Tb4 O11 1_555 1_555
Tb7 O9 1_555 1_555
C25 C26 1_555 1_555
C11 C12 1_555 1_555
C12 H15 1_555 1_555
H16 C12 1_555 1_555
C13 C12 1_555 1_555
H17 C13 1_555 1_555
H18 C13 1_555 1_555
C14 C13 1_555 1_555
H19 C14 1_555 1_555
C15 C11 1_555 1_555
C16 C11 1_555 1_555
C17 C14 1_555 1_555
C19 C15 1_555 1_555
H23 C19 1_555 1_555
H24 C19 1_555 1_555
H25 C19 1_555 1_555
C20 C15 1_555 1_555
H26 C20 1_555 1_555
H27 C20 1_555 1_555
H28 C20 1_555 1_555
C22 H29 1_555 1_555
C23 C22 1_555 1_555
H30 C23 1_555 1_555
C24 C23 1_555 1_555
C28 C24 1_555 1_555
O7 C17 1_555 1_555
O8 C17 1_555 1_555
O12 C28 1_555 1_555
H33 O13 1_555 1_555
H34 O13 1_555 1_555
Tb3 O7 1_555 1_555
Tb5 O8 1_555 1_555
C14 C15 1_555 1_555
C16 O5 1_555 1_555
C16 O6 1_555 1_555
O12 Tb5 1_555 1_555
C11_2 C12_2 1_555 1_555
C12_2 H15_2 1_555 1_555
H16_2 C12_2 1_555 1_555
C13_2 C12_2 1_555 1_555
H17_2 C13_2 1_555 1_555
H18_2 C13_2 1_555 1_555
C14_2 C13_2 1_555 1_555
H19_2 C14_2 1_555 1_555
C15_2 C11_2 1_555 1_555
C17_2 C14_2 1_555 1_555
C20_2 C15_2 1_555 1_555
H26_2 C20_2 1_555 1_555
H28_2 C20_2 1_555 1_555
H30_2 C23_2 1_555 1_555
C24_2 C23_2 1_555 1_555
C25_2 C24_2 1_555 1_555
H31_2 C25_2 1_555 1_555
C28_2 C24_2 1_555 1_555
O7_2 C17_2 1_555 1_555
O8_2 C17_2 1_555 1_555
O11_2 C28_2 1_555 1_555
O12_2 C28_2 1_555 1_555
Tb4 O7_2 1_555 1_555
Tb3 O11_2 1_555 1_555
Tb6 O8_2 1_555 1_555
C14_2 C15_2 1_555 1_555
O12_2 Tb6 1_555 1_555
H23_2 C19_2 1_555 1_555
H25_2 C19_2 1_555 1_555
C21_2 C22_2 1_555 1_555
C22_2 H29_2 1_555 1_555
C26_2 C21_2 1_555 1_555
H32_2 C26_2 1_555 1_555
C27_2 C21_2 1_555 1_555
O19 C27_2 1_555 1_555
H33_2 O13_2 1_555 1_555
H34_2 O13_2 1_555 1_555
C16_2 O5_2 1_555 1_555
C16_2 O6_2 1_555 1_555
C27_2 O10_2 1_555 1_555
Tb1_2 O1_2 1_555 1_555
Tb7 O1_2 1_555 1_555
C1_2 H1_2 1_555 1_555
C2_2 C1_2 1_555 1_555
H2_2 C2_2 1_555 1_555
H3_2 C2_2 1_555 1_555
C3_2 C2_2 1_555 1_555
H4_2 C3_2 1_555 1_555
H5_2 C3_2 1_555 1_555
C4_2 C3_2 1_555 1_555
C5_2 C1_2 1_555 1_555
C6_2 C1_2 1_555 1_555
C7_2 C4_2 1_555 1_555
C8_2 C4_2 1_555 1_555
H6_2 C8_2 1_555 1_555
H7_2 C8_2 1_555 1_555
H8_2 C8_2 1_555 1_555
C9_2 C5_2 1_555 1_555
H9_2 C9_2 1_555 1_555
H10_2 C9_2 1_555 1_555
H11_2 C9_2 1_555 1_555
C10_2 C5_2 1_555 1_555
H12_2 C10_2 1_555 1_555
H13_2 C10_2 1_555 1_555
H14_2 C10_2 1_555 1_555
O1_2 C6_2 1_555 1_555
O2_2 Tb7 1_555 1_555
O3_2 C7_2 1_555 1_555
O4_2 C7_2 1_555 1_555
O14_2 Tb1_2 1_555 1_555
H35 O14_2 1_555 1_555
H36_2 O14_2 1_555 1_555
Tb6 O3_2 1_555 1_555
O17_2 Tb1_2 1_555 1_555
O18_2 Tb7 1_555 1_555
O20_2 Tb1_2 1_555 1_555
O21_2 Tb7 1_555 1_555
C4_2 C5_2 1_555 1_555
C6_2 O2_2 1_555 1_555
O4_2 Tb6 1_555 1_555
Tb3 O1_3 1_555 1_555
Tb5 O1_3 1_555 1_555
H9_3 C9_3 1_555 1_555
H10_3 C9_3 1_555 1_555
H12_3 C10_3 1_555 1_555
H13_3 C10_3 1_555 1_555
H14_3 C10_3 1_555 1_555
C11_3 C12_3 1_555 1_555
C12_3 H15_3 1_555 1_555
H16_3 C12_3 1_555 1_555
C13_3 C12_3 1_555 1_555
H17_3 C13_3 1_555 1_555
H18_3 C13_3 1_555 1_555
C14_3 C13_3 1_555 1_555
H19_3 C14_3 1_555 1_555
C15_3 C11_3 1_555 1_555
C16_3 C11_3 1_555 1_555
C17_3 C14_3 1_555 1_555
C18_2 C11_3 1_555 1_555
H20_2 C18_2 1_555 1_555
H21_3 C18_2 1_555 1_555
H22_2 C18_2 1_555 1_555
C19_3 C15_3 1_555 1_555
H23_3 C19_3 1_555 1_555
H24_3 C19_3 1_555 1_555
H25_3 C19_3 1_555 1_555
C20_3 C15_3 1_555 1_555
H26_3 C20_3 1_555 1_555
H27_3 C20_3 1_555 1_555
H28_3 C20_3 1_555 1_555
C21_3 C22_3 1_555 1_555
C22_3 H29_3 1_555 1_555
C23_3 C22_3 1_555 1_555
H30_3 C23_3 1_555 1_555
C24_3 C23_3 1_555 1_555
C25_3 C24_3 1_555 1_555
H31_3 C25_3 1_555 1_555
C26_3 C21_3 1_555 1_555
H32_3 C26_3 1_555 1_555
C27_3 C21_3 1_555 1_555
C28_3 C24_3 1_555 1_555
O1_3 C6_3 1_555 1_555
O2_3 Tb5 1_555 1_555
O5_3 Tb5 1_555 1_555
O6_3 Tb3 1_555 1_555
O17 C17_3 1_555 1_555
O18 C17_3 1_555 1_555
O9_2 C27_3 1_555 1_555
O10_3 Tb3 1_555 1_555
O21 C28_3 1_555 1_555
O13_3 Tb3 1_555 1_555
H33_3 O13_3 1_555 1_555
H34_3 O13_3 1_555 1_555
O14_3 Tb3 1_555 1_555
H35_2 O14_3 1_555 1_555
H36_3 O14_3 1_555 1_555
Tb6 O9_2 1_555 1_555
O19_2 Tb5 1_555 1_555
C6_3 O2_3 1_555 1_555
C14_3 C15_3 1_555 1_555
C16_3 O5_3 1_555 1_555
C16_3 O6_3 1_555 1_555
C25_3 C26_3 1_555 1_555
C27_3 O10_3 1_555 1_555
C1_3 H1_3 1_555 1_555
C2_3 C1_3 1_555 1_555
H2_3 C2_3 1_555 1_555
H3_3 C2_3 1_555 1_555
C3_3 C2_3 1_555 1_555
H4_3 C3_3 1_555 1_555
H5_3 C3_3 1_555 1_555
C4_3 C3_3 1_555 1_555
C5_3 C1_3 1_555 1_555
C7_3 C4_3 1_555 1_555
C8_3 C4_3 1_555 1_555
H6_3 C8_3 1_555 1_555
H7_3 C8_3 1_555 1_555
H8_3 C8_3 1_555 1_555
O15 C7_3 1_555 1_555
O16 C7_3 1_555 1_555
C4_3 C5_3 1_555 1_555
Tb4 O1_4 1_555 1_555
Tb6 O1_4 1_555 1_555
C1_4 H1_4 1_555 1_555
C2_4 C1_4 1_555 1_555
H2_4 C2_4 1_555 1_555
H3_4 C2_4 1_555 1_555
C3_4 C2_4 1_555 1_555
H4_4 C3_4 1_555 1_555
H5_4 C3_4 1_555 1_555
C4_4 C3_4 1_555 1_555
C5_4 C1_4 1_555 1_555
C6_4 C1_4 1_555 1_555
C7_4 C4_4 1_555 1_555
C8_4 C4_4 1_555 1_555
H6_4 C8_4 1_555 1_555
H7_4 C8_4 1_555 1_555
H8_4 C8_4 1_555 1_555
C9_4 C5_4 1_555 1_555
H9_4 C9_4 1_555 1_555
H10_4 C9_4 1_555 1_555
H11_4 C9_4 1_555 1_555
C10_4 C5_4 1_555 1_555
H12_4 C10_4 1_555 1_555
H13_4 C10_4 1_555 1_555
H14_4 C10_4 1_555 1_555
H23_4 C19_4 1_555 1_555
H25_4 C19_4 1_555 1_555
C22_4 H29_4 1_555 1_555
O1_4 C6_4 1_555 1_555
O2_4 Tb6 1_555 1_555
O15_2 C7_4 1_555 1_555
O16_2 C7_4 1_555 1_555
O5_4 Tb6 1_555 1_555
O6_4 Tb4 1_555 1_555
O10_4 Tb4 1_555 1_555
O13_4 Tb4 1_555 1_555
H33_4 O13_4 1_555 1_555
H34_4 O13_4 1_555 1_555
O14_4 Tb4 1_555 1_555
H36_4 O14_4 1_555 1_555
C4_4 C5_4 1_555 1_555
C6_4 O2_4 1_555 1_555
C16_4 O5_4 1_555 1_555
C16_4 O6_4 1_555 1_555
C26_4 C21_4 1_555 1_555
H32_4 C26_4 1_555 1_555
C27_4 C21_4 1_555 1_555
O19_2 C27_4 1_555 1_555
C11_4 C12_4 1_555 1_555
C12_4 H15_4 1_555 1_555
H16_4 C12_4 1_555 1_555
C13_4 C12_4 1_555 1_555
H17_4 C13_4 1_555 1_555
H18_4 C13_4 1_555 1_555
C14_4 C13_4 1_555 1_555
H19_4 C14_4 1_555 1_555
C15_4 C11_4 1_555 1_555
C17_4 C14_4 1_555 1_555
C18_3 C11_4 1_555 1_555
H20_3 C18_3 1_555 1_555
H21_4 C18_3 1_555 1_555
H22_3 C18_3 1_555 1_555
C20_4 C15_4 1_555 1_555
H26_4 C20_4 1_555 1_555
H28_4 C20_4 1_555 1_555
H30_4 C23_4 1_555 1_555
C24_4 C23_4 1_555 1_555
C28_4 C24_4 1_555 1_555
O17_2 C17_4 1_555 1_555
O18_2 C17_4 1_555 1_555
O21_2 C28_4 1_555 1_555
C14_4 C15_4 1_555 1_555
H20_4 C18_4 1_555 1_555
H22_4 C18_4 1_555 1_555
H31_4 C25_4 1_555 1_555

#END
