
###############################################################################
#
# This file contains modified crystal structure data generated from the
# MOF subset of the Cambridge Structural Database (CSD) v543 
# hosted by the Cambridge Crystallographic Data Centre (CCDC).
#
# This work is licensed under the Creative Commons
# Attribution-NonCommercial-ShareAlike 4.0 International License.
# To view a copy of this license, visit
# http://creativecommons.org/licenses/by-nc-sa/4.0/
# or send a letter to
# Creative Commons, PO Box 1866, Mountain View, CA 94042, USA.
#
# CIF created using the CSD Python API on 29 September 2022
# The structure has been converted into the P1 space group
# The structure has a 3D framework
# The original CSD entry EXACAI01 is in the orthorhombic crystal system
# The original CSD entry EXACAI01 is in a Sohncke space group
# The framework has been calculated to contain at least 10.0% void space
# The void calculation uses a probe of radius 1.32A, grid spacing 0.4
#
###############################################################################

data_EXACAI01
_chemical_formula_moiety         '(C112 H144 Eu8 O55)n'
_symmetry_cell_setting           triclinic
_symmetry_space_group_name_H-M   'P 1'
_symmetry_Int_Tables_number      1
_space_group_name_Hall           'P 1'
loop_
_symmetry_equiv_pos_site_id
_symmetry_equiv_pos_as_xyz
1 x,y,z
_cell_length_a                   12.967(5)
_cell_length_b                   14.162(5)
_cell_length_c                   18.984(6)
_cell_angle_alpha                90
_cell_angle_beta                 90
_cell_angle_gamma                90
_cell_volume                     3486.2
loop_
_atom_site_label
_atom_site_type_symbol
_atom_site_fract_x
_atom_site_fract_y
_atom_site_fract_z
C1 C 0.0120(5) 0.0954(4) 0.8280(4)
C2 C 0.1223(5) 0.0697(4) 0.8067(4)
H2 H 0.1237 0.0472 0.7584
H3 H 0.1488 0.0202 0.8370
C3 C 0.1884(5) 0.1596(4) 0.8140(4)
H4 H 0.2011 0.1879 0.7683
H5 H 0.2540 0.1453 0.8361
C4 C 0.1234(5) 0.2264(4) 0.8611(3)
C5 C 0.0102(5) 0.2070(4) 0.8347(4)
C7 C 0.1534(5) 0.3313(4) 0.8509(3)
C8 C 0.1388(6) 0.2003(5) 0.9384(4)
H6 H 0.2087 0.2133 0.9519
H7 H 0.1246 0.1343 0.9449
H8 H 0.0927 0.2369 0.9671
H11 H 0.0436 0.2361 0.7309
O3 O 0.1319(4) 0.3915(3) 0.8967(2)
O4 O 0.1994(4) 0.3576(3) 0.7954(2)
Eu5 Eu 0.22756(2) 0.520388(19) 0.828041(14)
Eu2 Eu 0.77244(2) 0.020388(19) 0.671959(14)
H1 H 0.9988 0.0686 0.8748
C6 C 0.9318(5) 0.0565(4) 0.7775(3)
C9 C 0.9899(8) 0.2534(5) 0.7633(5)
H9 H 0.9889 0.3207 0.7687
H10 H 0.9246 0.2324 0.7453
C10 C 0.9285(6) 0.2375(5) 0.8879(5)
H12 H 0.9283 0.3051 0.8917
H13 H 0.9438 0.2104 0.9330
H14 H 0.8619 0.2163 0.8724
C18 C 0.4282(6) 0.0054(6) 0.6783(4)
H20 H 0.4272 0.0676 0.6983
H22 H 0.4822 0.0014 0.6439
O1 O 0.8431(3) 0.0322(3) 0.8026(2)
O2 O 0.9475(3) 0.0465(4) 0.7139(2)
O14 O 0.6173(4) 0.0996(3) 0.9638(3)
H35 H 0.6664 0.0962 0.9935
H36 H 0.6119 0.1564 0.9493
O17 O 0.6713(4) 0.1462(3) 0.8354(2)
O18 O 0.7148(4) 0.1630(3) 0.7216(2)
O19 O 0.8459(4) 0.1225(3) 0.5913(3)
O20 O 0.8457(3) 0.0186(3) 0.9646(2)
O21 O 0.6575(3) 0.0111(3) 0.5797(2)
C21 C 0.5633(6) 0.7728(5) 0.0178(4)
C25 C 0.4801(6) 0.6317(5) 0.0606(4)
H31 H 0.4670 0.5898 0.0973
C26 C 0.5437(5) 0.7096(5) 0.0721(4)
H32 H 0.5729 0.7193 0.1163
C27 C 0.6304(5) 0.8580(5) 0.0283(4)
O9 O 0.6541(4) 0.8775(3) 0.0913(3)
O11 O 0.3457(3) 0.4814(3) 0.0354(2)
Eu4 Eu 0.21210(2) 0.50037(2) 0.115431(14)
Eu7 Eu 0.72756(2) 0.979612(19) 0.171959(14)
Eu1 Eu 0.71210(2) 0.99963(2) 0.884569(14)
C11 C 0.4477(5) 0.9324(5) 0.7369(4)
C12 C 0.3574(6) 0.9333(6) 0.7886(5)
H15 H 0.3827 0.9235 0.8361
H16 H 0.3231 0.9941 0.7869
C13 C 0.2850(7) 0.8593(5) 0.7704(5)
H17 H 0.2207 0.8866 0.7541
H18 H 0.2707 0.8204 0.8112
C14 C 0.3335(5) 0.8004(4) 0.7126(4)
H19 H 0.3014 0.8206 0.6684
C15 C 0.4504(5) 0.8277(4) 0.7073(4)
C16 C 0.5482(5) 0.9568(4) 0.7741(4)
C17 C 0.3137(5) 0.6952(4) 0.7192(4)
H21 H 0.3630 0.9926 0.6563
C19 C 0.5142(7) 0.7632(5) 0.7546(5)
H23 H 0.5145 0.7005 0.7355
H24 H 0.4846 0.7621 0.8010
H25 H 0.5836 0.7865 0.7572
C20 C 0.4924(7) 0.8192(6) 0.6329(4)
H26 H 0.4913 0.7542 0.6186
H27 H 0.5620 0.8423 0.6316
H28 H 0.4505 0.8558 0.6014
C22 C 0.5182(6) 0.7575(6) 0.9510(4)
H29 H 0.5306 0.7999 0.9146
C23 C 0.4562(6) 0.6804(5) 0.9397(4)
H30 H 0.4272 0.6704 0.8955
C24 C 0.4363(5) 0.6158(5) 0.9952(4)
C28 C 0.3700(5) 0.5307(4) 0.9821(3)
O5 O 0.6301(3) 0.9714(3) 0.7384(2)
O6 O 0.5493(4) 0.9607(4) 0.8395(2)
O7 O 0.3287(4) 0.6462(3) 0.6646(2)
O8 O 0.2852(4) 0.6630(3) 0.7784(2)
O10 O 0.6606(4) 0.9020(3) 0.9752(3)
O12 O 0.3425(3) 0.5111(3) 0.9203(2)
O13 O 0.7616(4) 0.8492(3) 0.8440(2)
H33 H 0.7632 0.8020 0.8715
H34 H 0.8060 0.8440 0.8113
Eu3 Eu 0.28790(2) 0.49963(2) 0.615431(14)
O15 O 0.8681(4) 0.8915(3) 0.6033(2)
O16 O 0.8006(4) 0.8576(3) 0.7046(2)
C11_2 C 0.0523(5) 0.0676(5) 0.2369(4)
C12_2 C 0.1426(6) 0.0667(6) 0.2886(5)
H15_2 H 0.1173 0.0765 0.3361
H16_2 H 0.1769 0.0059 0.2869
C13_2 C 0.2150(7) 0.1407(5) 0.2704(5)
H17_2 H 0.2793 0.1134 0.2541
H18_2 H 0.2293 0.1796 0.3112
C14_2 C 0.1665(5) 0.1996(4) 0.2126(4)
H19_2 H 0.1986 0.1794 0.1684
C15_2 C 0.0496(5) 0.1723(4) 0.2073(4)
C17_2 C 0.1863(5) 0.3048(4) 0.2192(4)
H21_2 H 0.1370 0.0074 0.1563
H24_2 H 0.0154 0.2379 0.3010
C20_2 C 0.0076(7) 0.1808(6) 0.1329(4)
H26_2 H 0.0087 0.2458 0.1186
H28_2 H 0.0495 0.1442 0.1014
C23_2 C 0.0438(6) 0.3196(5) 0.4397(4)
H30_2 H 0.0728 0.3296 0.3955
C24_2 C 0.0637(5) 0.3842(5) 0.4952(4)
C25_2 C 0.0199(6) 0.3683(5) 0.5606(4)
H31_2 H 0.0330 0.4102 0.5973
C28_2 C 0.1300(5) 0.4693(4) 0.4821(3)
O7_2 O 0.1713(4) 0.3538(3) 0.1646(2)
O8_2 O 0.2148(4) 0.3370(3) 0.2784(2)
O11_2 O 0.1543(3) 0.5186(3) 0.5354(2)
O12_2 O 0.1575(3) 0.4889(3) 0.4203(2)
Eu6 Eu 0.27244(2) 0.479612(19) 0.328041(14)
Eu1_2 Eu 0.78790(2) 0.00037(2) 0.384569(14)
C16_2 C 0.9518(5) 0.0432(4) 0.2741(4)
C19_2 C 0.9858(7) 0.2368(5) 0.2546(5)
H23_2 H 0.9855 0.2995 0.2355
H25_2 H 0.9164 0.2135 0.2572
H27_2 H 0.9380 0.1577 0.1316
C21_2 C 0.9367(6) 0.2272(5) 0.5178(4)
C22_2 C 0.9818(6) 0.2425(6) 0.4510(4)
H29_2 H 0.9694 0.2001 0.4146
C26_2 C 0.9563(5) 0.2904(5) 0.5721(4)
H32_2 H 0.9271 0.2807 0.6163
C27_2 C 0.8696(5) 0.1420(5) 0.5283(4)
O5_2 O 0.8699(3) 0.0286(3) 0.2384(2)
O6_2 O 0.9507(4) 0.0393(4) 0.3395(2)
O10_2 O 0.8394(4) 0.0980(3) 0.4752(3)
O13_2 O 0.7384(4) 0.1508(3) 0.3440(2)
H33_2 H 0.7368 0.1980 0.3715
H34_2 H 0.6940 0.1560 0.3113
O15_2 O 0.6319(4) 0.1085(3) 0.1033(2)
O16_2 O 0.6994(4) 0.1424(3) 0.2046(2)
C1_2 C 0.4880(5) 0.9046(4) 0.3280(4)
H1_2 H 0.5012 0.9314 0.3748
C2_2 C 0.3777(5) 0.9303(4) 0.3067(4)
H2_2 H 0.3763 0.9528 0.2584
H3_2 H 0.3512 0.9798 0.3370
C3_2 C 0.3116(5) 0.8404(4) 0.3140(4)
H4_2 H 0.2989 0.8121 0.2683
H5_2 H 0.2460 0.8547 0.3361
C4_2 C 0.3766(5) 0.7736(4) 0.3611(3)
C5_2 C 0.4898(5) 0.7930(4) 0.3347(4)
C6_2 C 0.5682(5) 0.9435(4) 0.2775(3)
C7_2 C 0.3466(5) 0.6687(4) 0.3509(3)
C8_2 C 0.3612(6) 0.7997(5) 0.4384(4)
H6_2 H 0.2913 0.7867 0.4519
H7_2 H 0.3754 0.8657 0.4449
H8_2 H 0.4073 0.7631 0.4671
C9_2 C 0.5101(8) 0.7466(5) 0.2633(5)
H9_2 H 0.5111 0.6793 0.2687
H10_2 H 0.5754 0.7676 0.2453
H11_2 H 0.4564 0.7639 0.2309
C10_2 C 0.5715(6) 0.7625(5) 0.3879(5)
H12_2 H 0.5717 0.6949 0.3917
H13_2 H 0.5562 0.7896 0.4330
H14_2 H 0.6381 0.7837 0.3724
O1_2 O 0.6569(3) 0.9678(3) 0.3026(2)
O2_2 O 0.5525(3) 0.9535(4) 0.2139(2)
O3_2 O 0.3681(4) 0.6085(3) 0.3967(2)
O4_2 O 0.3006(4) 0.6424(3) 0.2954(2)
O14_2 O 0.8827(4) 0.9004(3) 0.4638(3)
H35_2 H 0.8336 0.9038 0.4935
H36_2 H 0.8881 0.8436 0.4493
O17_2 O 0.8287(4) 0.8538(3) 0.3354(2)
O18_2 O 0.7852(4) 0.8370(3) 0.2216(2)
O20_2 O 0.6543(3) 0.9814(3) 0.4646(2)
O21_2 O 0.8425(3) 0.9889(3) 0.0797(2)
H1_3 H 0.0012 0.5686 0.6252
C6_3 C 0.0682(5) 0.5565(4) 0.7225(3)
C9_3 C 0.0101(8) 0.7534(5) 0.7367(5)
H9_3 H 0.0111 0.8207 0.7313
H10_3 H 0.0754 0.7324 0.7547
C10_3 C 0.0715(6) 0.7375(5) 0.6121(5)
H12_3 H 0.0717 0.8051 0.6083
H13_3 H 0.0562 0.7104 0.5670
H14_3 H 0.1381 0.7163 0.6276
C11_3 C 0.5523(5) 0.4324(5) 0.7631(4)
C12_3 C 0.6426(6) 0.4333(6) 0.7114(5)
H15_3 H 0.6173 0.4235 0.6639
H16_3 H 0.6769 0.4941 0.7131
C13_3 C 0.7150(7) 0.3593(5) 0.7296(5)
H17_3 H 0.7793 0.3866 0.7459
H18_3 H 0.7293 0.3204 0.6888
C14_3 C 0.6665(5) 0.3004(4) 0.7874(4)
H19_3 H 0.6986 0.3206 0.8316
C15_3 C 0.5496(5) 0.3277(4) 0.7927(4)
C16_3 C 0.4518(5) 0.4568(4) 0.7259(4)
C17_3 C 0.6863(5) 0.1952(4) 0.7808(4)
C18_2 C 0.5718(6) 0.5054(6) 0.8217(4)
H20_2 H 0.5728 0.5676 0.8017
H21_3 H 0.6370 0.4926 0.8437
H22_2 H 0.5178 0.5014 0.8561
C19_3 C 0.4858(7) 0.2632(5) 0.7454(5)
H23_3 H 0.4855 0.2005 0.7645
H24_3 H 0.5154 0.2621 0.6990
H25_3 H 0.4164 0.2865 0.7428
C20_3 C 0.5076(7) 0.3192(6) 0.8671(4)
H26_3 H 0.5087 0.2542 0.8814
H27_3 H 0.4380 0.3423 0.8684
H28_3 H 0.5495 0.3558 0.8986
C21_3 C 0.4367(6) 0.2728(5) 0.4822(4)
C22_3 C 0.4818(6) 0.2575(6) 0.5490(4)
H29_3 H 0.4694 0.2999 0.5854
C23_3 C 0.5438(6) 0.1804(5) 0.5603(4)
H30_3 H 0.5728 0.1704 0.6045
C24_3 C 0.5637(5) 0.1158(5) 0.5048(4)
C25_3 C 0.5199(6) 0.1317(5) 0.4394(4)
H31_3 H 0.5330 0.0898 0.4027
C26_3 C 0.4563(5) 0.2096(5) 0.4279(4)
H32_3 H 0.4271 0.2193 0.3837
C27_3 C 0.3696(5) 0.3580(5) 0.4717(4)
C28_3 C 0.6300(5) 0.0307(4) 0.5179(3)
O1_3 O 0.1569(3) 0.5322(3) 0.6974(2)
O2_3 O 0.0525(3) 0.5465(4) 0.7861(2)
O5_3 O 0.3699(3) 0.4714(3) 0.7616(2)
O6_3 O 0.4507(4) 0.4607(4) 0.6605(2)
O9_2 O 0.3459(4) 0.3775(3) 0.4087(3)
O10_3 O 0.3394(4) 0.4020(3) 0.5248(3)
O13_3 O 0.2384(4) 0.3492(3) 0.6560(2)
H33_3 H 0.2368 0.3020 0.6285
H34_3 H 0.1940 0.3440 0.6887
O14_3 O 0.3827(4) 0.5996(3) 0.5362(3)
H35_3 H 0.3336 0.5962 0.5065
H36_3 H 0.3881 0.6564 0.5507
O19_2 O 0.1541(4) 0.6225(3) 0.9087(3)
C1_3 C 0.9880(5) 0.5954(4) 0.6720(4)
C2_3 C 0.8777(5) 0.5697(4) 0.6933(4)
H2_3 H 0.8763 0.5472 0.7416
H3_3 H 0.8512 0.5202 0.6630
C3_3 C 0.8116(5) 0.6596(4) 0.6860(4)
H4_3 H 0.7989 0.6879 0.7317
H5_3 H 0.7460 0.6453 0.6639
C4_3 C 0.8766(5) 0.7264(4) 0.6389(3)
C5_3 C 0.9898(5) 0.7070(4) 0.6653(4)
C7_3 C 0.8466(5) 0.8313(4) 0.6491(3)
C8_3 C 0.8612(6) 0.7003(5) 0.5616(4)
H6_3 H 0.7913 0.7133 0.5481
H7_3 H 0.8754 0.6343 0.5551
H8_3 H 0.9073 0.7369 0.5329
H11_3 H 0.9564 0.7361 0.7691
C1_4 C 0.5120(5) 0.4046(4) 0.1720(4)
H1_4 H 0.4988 0.4314 0.1252
C2_4 C 0.6223(5) 0.4303(4) 0.1933(4)
H2_4 H 0.6237 0.4528 0.2416
H3_4 H 0.6488 0.4798 0.1630
C3_4 C 0.6884(5) 0.3404(4) 0.1860(4)
H4_4 H 0.7011 0.3121 0.2317
H5_4 H 0.7540 0.3547 0.1639
C4_4 C 0.6234(5) 0.2736(4) 0.1389(3)
C5_4 C 0.5102(5) 0.2930(4) 0.1653(4)
C6_4 C 0.4318(5) 0.4435(4) 0.2225(3)
C7_4 C 0.6534(5) 0.1687(4) 0.1491(3)
C8_4 C 0.6388(6) 0.2997(5) 0.0616(4)
H6_4 H 0.7087 0.2867 0.0481
H7_4 H 0.6246 0.3657 0.0551
H8_4 H 0.5927 0.2631 0.0329
C9_4 C 0.4899(8) 0.2466(5) 0.2367(5)
H9_4 H 0.4889 0.1793 0.2313
H10_4 H 0.4246 0.2676 0.2547
H11_4 H 0.5436 0.2639 0.2691
C10_4 C 0.4285(6) 0.2625(5) 0.1121(5)
H12_4 H 0.4283 0.1949 0.1083
H13_4 H 0.4438 0.2896 0.0670
H14_4 H 0.3619 0.2837 0.1276
C16_4 C 0.0482(5) 0.5432(4) 0.2259(4)
C19_4 C 0.0142(7) 0.7368(5) 0.2454(5)
H23_4 H 0.0145 0.7995 0.2645
H25_4 H 0.0836 0.7135 0.2428
H27_4 H 0.0620 0.6577 0.3684
C22_4 C 0.0182(6) 0.7425(6) 0.0490(4)
H29_4 H 0.0306 0.7001 0.0854
O1_4 O 0.3431(3) 0.4678(3) 0.1974(2)
O2_4 O 0.4475(3) 0.4535(4) 0.2861(2)
O5_4 O 0.1301(3) 0.5286(3) 0.2616(2)
O6_4 O 0.0493(4) 0.5393(4) 0.1605(2)
O10_4 O 0.1606(4) 0.5980(3) 0.0248(3)
O13_4 O 0.2616(4) 0.6508(3) 0.1560(2)
H33_4 H 0.2632 0.6980 0.1285
H34_4 H 0.3060 0.6560 0.1887
O14_4 O 0.1173(4) 0.4004(3) 0.0362(3)
H35_4 H 0.1664 0.4038 0.0065
H36_4 H 0.1119 0.3436 0.0507
C21_4 C 0.0633(6) 0.7272(5) 0.9822(4)
C26_4 C 0.0437(5) 0.7904(5) 0.9279(4)
H32_4 H 0.0729 0.7807 0.8837
C27_4 C 0.1304(5) 0.6420(5) 0.9717(4)
C11_4 C 0.9477(5) 0.5676(5) 0.2631(4)
C12_4 C 0.8574(6) 0.5667(6) 0.2114(5)
H15_4 H 0.8827 0.5765 0.1639
H16_4 H 0.8231 0.5059 0.2131
C13_4 C 0.7850(7) 0.6407(5) 0.2296(5)
H17_4 H 0.7207 0.6134 0.2459
H18_4 H 0.7707 0.6796 0.1888
C14_4 C 0.8335(5) 0.6996(4) 0.2874(4)
H19_4 H 0.8014 0.6794 0.3316
C15_4 C 0.9504(5) 0.6723(4) 0.2927(4)
C17_4 C 0.8137(5) 0.8048(4) 0.2808(4)
C18_3 C 0.9282(6) 0.4946(6) 0.3217(4)
H20_3 H 0.9272 0.4324 0.3017
H21_4 H 0.8630 0.5074 0.3437
H22_3 H 0.9822 0.4986 0.3561
H24_4 H 0.9846 0.7379 0.1990
C20_4 C 0.9924(7) 0.6808(6) 0.3671(4)
H26_4 H 0.9913 0.7458 0.3814
H28_4 H 0.9505 0.6442 0.3986
C23_4 C 0.9562(6) 0.8196(5) 0.0603(4)
H30_4 H 0.9272 0.8296 0.1045
C24_4 C 0.9363(5) 0.8842(5) 0.0048(4)
C28_4 C 0.8700(5) 0.9693(4) 0.0179(3)
C25_4 C 0.9801(6) 0.8683(5) 0.9394(4)
H31_4 H 0.9670 0.9102 0.9027
C18_4 C 0.0718(6) 0.9946(6) 0.1783(4)
H20_4 H 0.0728 0.9324 0.1983
H22_4 H 0.0178 0.9986 0.1439
loop_
_geom_bond_atom_site_label_1
_geom_bond_atom_site_label_2
_geom_bond_site_symmetry_1
_geom_bond_site_symmetry_2
C2 C1 1_555 1_555
H2 C2 1_555 1_555
H3 C2 1_555 1_555
C3 C2 1_555 1_555
H4 C3 1_555 1_555
H5 C3 1_555 1_555
C4 C3 1_555 1_555
C5 C1 1_555 1_555
C7 C4 1_555 1_555
C8 C4 1_555 1_555
H6 C8 1_555 1_555
H7 C8 1_555 1_555
H8 C8 1_555 1_555
O3 C7 1_555 1_555
O4 C7 1_555 1_555
Eu5 O3 1_555 1_555
C4 C5 1_555 1_555
O4 Eu5 1_555 1_555
Eu2 O1 1_555 1_555
H9 C9 1_555 1_555
H10 C9 1_555 1_555
H12 C10 1_555 1_555
H13 C10 1_555 1_555
H14 C10 1_555 1_555
H20 C18 1_555 1_555
H22 C18 1_555 1_555
O1 C6 1_555 1_555
O2 Eu2 1_555 1_555
H35 O14 1_555 1_555
H36 O14 1_555 1_555
O18 Eu2 1_555 1_555
O19 Eu2 1_555 1_555
O21 Eu2 1_555 1_555
C6 O2 1_555 1_555
H31 C25 1_555 1_555
C26 C21 1_555 1_555
H32 C26 1_555 1_555
C27 C21 1_555 1_555
O9 C27 1_555 1_555
Eu4 O11 1_555 1_555
Eu7 O9 1_555 1_555
C25 C26 1_555 1_555
C11 C12 1_555 1_555
C12 H15 1_555 1_555
H16 C12 1_555 1_555
C13 C12 1_555 1_555
H17 C13 1_555 1_555
H18 C13 1_555 1_555
C14 C13 1_555 1_555
H19 C14 1_555 1_555
C15 C11 1_555 1_555
C16 C11 1_555 1_555
C17 C14 1_555 1_555
C19 C15 1_555 1_555
H23 C19 1_555 1_555
H24 C19 1_555 1_555
H25 C19 1_555 1_555
C20 C15 1_555 1_555
H26 C20 1_555 1_555
H27 C20 1_555 1_555
H28 C20 1_555 1_555
C22 H29 1_555 1_555
C23 C22 1_555 1_555
H30 C23 1_555 1_555
C24 C23 1_555 1_555
C28 C24 1_555 1_555
O6 Eu1 1_555 1_555
O7 C17 1_555 1_555
O8 C17 1_555 1_555
O10 Eu1 1_555 1_555
O12 C28 1_555 1_555
O13 Eu1 1_555 1_555
H33 O13 1_555 1_555
H34 O13 1_555 1_555
Eu3 O7 1_555 1_555
Eu5 O8 1_555 1_555
C14 C15 1_555 1_555
C16 O5 1_555 1_555
C16 O6 1_555 1_555
O12 Eu5 1_555 1_555
C11_2 C12_2 1_555 1_555
C12_2 H15_2 1_555 1_555
H16_2 C12_2 1_555 1_555
C13_2 C12_2 1_555 1_555
H17_2 C13_2 1_555 1_555
H18_2 C13_2 1_555 1_555
C14_2 C13_2 1_555 1_555
H19_2 C14_2 1_555 1_555
C15_2 C11_2 1_555 1_555
C17_2 C14_2 1_555 1_555
C20_2 C15_2 1_555 1_555
H26_2 C20_2 1_555 1_555
H28_2 C20_2 1_555 1_555
H30_2 C23_2 1_555 1_555
C24_2 C23_2 1_555 1_555
C25_2 C24_2 1_555 1_555
H31_2 C25_2 1_555 1_555
C28_2 C24_2 1_555 1_555
O7_2 C17_2 1_555 1_555
O8_2 C17_2 1_555 1_555
O11_2 C28_2 1_555 1_555
O12_2 C28_2 1_555 1_555
Eu4 O7_2 1_555 1_555
Eu3 O11_2 1_555 1_555
Eu6 O8_2 1_555 1_555
C14_2 C15_2 1_555 1_555
O12_2 Eu6 1_555 1_555
H23_2 C19_2 1_555 1_555
H25_2 C19_2 1_555 1_555
C21_2 C22_2 1_555 1_555
C22_2 H29_2 1_555 1_555
C26_2 C21_2 1_555 1_555
H32_2 C26_2 1_555 1_555
C27_2 C21_2 1_555 1_555
O6_2 Eu1_2 1_555 1_555
O19 C27_2 1_555 1_555
O10_2 Eu1_2 1_555 1_555
O13_2 Eu1_2 1_555 1_555
H33_2 O13_2 1_555 1_555
H34_2 O13_2 1_555 1_555
C16_2 O5_2 1_555 1_555
C16_2 O6_2 1_555 1_555
C27_2 O10_2 1_555 1_555
Eu7 O1_2 1_555 1_555
C1_2 H1_2 1_555 1_555
C2_2 C1_2 1_555 1_555
H2_2 C2_2 1_555 1_555
H3_2 C2_2 1_555 1_555
C3_2 C2_2 1_555 1_555
H4_2 C3_2 1_555 1_555
H5_2 C3_2 1_555 1_555
C4_2 C3_2 1_555 1_555
C5_2 C1_2 1_555 1_555
C6_2 C1_2 1_555 1_555
C7_2 C4_2 1_555 1_555
C8_2 C4_2 1_555 1_555
H6_2 C8_2 1_555 1_555
H7_2 C8_2 1_555 1_555
H8_2 C8_2 1_555 1_555
C9_2 C5_2 1_555 1_555
H9_2 C9_2 1_555 1_555
H10_2 C9_2 1_555 1_555
H11_2 C9_2 1_555 1_555
C10_2 C5_2 1_555 1_555
H12_2 C10_2 1_555 1_555
H13_2 C10_2 1_555 1_555
H14_2 C10_2 1_555 1_555
O1_2 C6_2 1_555 1_555
O2_2 Eu7 1_555 1_555
O3_2 C7_2 1_555 1_555
O4_2 C7_2 1_555 1_555
H35_2 O14_2 1_555 1_555
H36_2 O14_2 1_555 1_555
Eu6 O3_2 1_555 1_555
O18_2 Eu7 1_555 1_555
O21_2 Eu7 1_555 1_555
C4_2 C5_2 1_555 1_555
C6_2 O2_2 1_555 1_555
O4_2 Eu6 1_555 1_555
Eu3 O1_3 1_555 1_555
Eu5 O1_3 1_555 1_555
H9_3 C9_3 1_555 1_555
H10_3 C9_3 1_555 1_555
H12_3 C10_3 1_555 1_555
H13_3 C10_3 1_555 1_555
H14_3 C10_3 1_555 1_555
C11_3 C12_3 1_555 1_555
C12_3 H15_3 1_555 1_555
H16_3 C12_3 1_555 1_555
C13_3 C12_3 1_555 1_555
H17_3 C13_3 1_555 1_555
H18_3 C13_3 1_555 1_555
C14_3 C13_3 1_555 1_555
H19_3 C14_3 1_555 1_555
C15_3 C11_3 1_555 1_555
C16_3 C11_3 1_555 1_555
C17_3 C14_3 1_555 1_555
C18_2 C11_3 1_555 1_555
H20_2 C18_2 1_555 1_555
H21_3 C18_2 1_555 1_555
H22_2 C18_2 1_555 1_555
C19_3 C15_3 1_555 1_555
H23_3 C19_3 1_555 1_555
H24_3 C19_3 1_555 1_555
H25_3 C19_3 1_555 1_555
C20_3 C15_3 1_555 1_555
H26_3 C20_3 1_555 1_555
H27_3 C20_3 1_555 1_555
H28_3 C20_3 1_555 1_555
C21_3 C22_3 1_555 1_555
C22_3 H29_3 1_555 1_555
C23_3 C22_3 1_555 1_555
H30_3 C23_3 1_555 1_555
C24_3 C23_3 1_555 1_555
C25_3 C24_3 1_555 1_555
H31_3 C25_3 1_555 1_555
C26_3 C21_3 1_555 1_555
H32_3 C26_3 1_555 1_555
C27_3 C21_3 1_555 1_555
C28_3 C24_3 1_555 1_555
O1_3 C6_3 1_555 1_555
O2_3 Eu5 1_555 1_555
O5_3 Eu5 1_555 1_555
O6_3 Eu3 1_555 1_555
O17 C17_3 1_555 1_555
O18 C17_3 1_555 1_555
O9_2 C27_3 1_555 1_555
O10_3 Eu3 1_555 1_555
O21 C28_3 1_555 1_555
O13_3 Eu3 1_555 1_555
H33_3 O13_3 1_555 1_555
H34_3 O13_3 1_555 1_555
O14_3 Eu3 1_555 1_555
H35_3 O14_3 1_555 1_555
H36_3 O14_3 1_555 1_555
Eu6 O9_2 1_555 1_555
O19_2 Eu5 1_555 1_555
C6_3 O2_3 1_555 1_555
C14_3 C15_3 1_555 1_555
C16_3 O5_3 1_555 1_555
C16_3 O6_3 1_555 1_555
C25_3 C26_3 1_555 1_555
C27_3 O10_3 1_555 1_555
C2_3 C1_3 1_555 1_555
H2_3 C2_3 1_555 1_555
H3_3 C2_3 1_555 1_555
C3_3 C2_3 1_555 1_555
H4_3 C3_3 1_555 1_555
H5_3 C3_3 1_555 1_555
C4_3 C3_3 1_555 1_555
C5_3 C1_3 1_555 1_555
C7_3 C4_3 1_555 1_555
C8_3 C4_3 1_555 1_555
H6_3 C8_3 1_555 1_555
H7_3 C8_3 1_555 1_555
H8_3 C8_3 1_555 1_555
O15 C7_3 1_555 1_555
O16 C7_3 1_555 1_555
C4_3 C5_3 1_555 1_555
Eu4 O1_4 1_555 1_555
Eu6 O1_4 1_555 1_555
C1_4 H1_4 1_555 1_555
C2_4 C1_4 1_555 1_555
H2_4 C2_4 1_555 1_555
H3_4 C2_4 1_555 1_555
C3_4 C2_4 1_555 1_555
H4_4 C3_4 1_555 1_555
H5_4 C3_4 1_555 1_555
C4_4 C3_4 1_555 1_555
C5_4 C1_4 1_555 1_555
C6_4 C1_4 1_555 1_555
C7_4 C4_4 1_555 1_555
C8_4 C4_4 1_555 1_555
H6_4 C8_4 1_555 1_555
H7_4 C8_4 1_555 1_555
H8_4 C8_4 1_555 1_555
C9_4 C5_4 1_555 1_555
H9_4 C9_4 1_555 1_555
H10_4 C9_4 1_555 1_555
H11_4 C9_4 1_555 1_555
C10_4 C5_4 1_555 1_555
H12_4 C10_4 1_555 1_555
H13_4 C10_4 1_555 1_555
H14_4 C10_4 1_555 1_555
H23_4 C19_4 1_555 1_555
H25_4 C19_4 1_555 1_555
C22_4 H29_4 1_555 1_555
O1_4 C6_4 1_555 1_555
O2_4 Eu6 1_555 1_555
O15_2 C7_4 1_555 1_555
O16_2 C7_4 1_555 1_555
O5_4 Eu6 1_555 1_555
O6_4 Eu4 1_555 1_555
O10_4 Eu4 1_555 1_555
O13_4 Eu4 1_555 1_555
H33_4 O13_4 1_555 1_555
H34_4 O13_4 1_555 1_555
O14_4 Eu4 1_555 1_555
H35_4 O14_4 1_555 1_555
H36_4 O14_4 1_555 1_555
C4_4 C5_4 1_555 1_555
C6_4 O2_4 1_555 1_555
C16_4 O5_4 1_555 1_555
C16_4 O6_4 1_555 1_555
C26_4 C21_4 1_555 1_555
H32_4 C26_4 1_555 1_555
C27_4 C21_4 1_555 1_555
O19_2 C27_4 1_555 1_555
C11_4 C12_4 1_555 1_555
C12_4 H15_4 1_555 1_555
H16_4 C12_4 1_555 1_555
C13_4 C12_4 1_555 1_555
H17_4 C13_4 1_555 1_555
H18_4 C13_4 1_555 1_555
C14_4 C13_4 1_555 1_555
H19_4 C14_4 1_555 1_555
C15_4 C11_4 1_555 1_555
C17_4 C14_4 1_555 1_555
C18_3 C11_4 1_555 1_555
H20_3 C18_3 1_555 1_555
H21_4 C18_3 1_555 1_555
H22_3 C18_3 1_555 1_555
C20_4 C15_4 1_555 1_555
H26_4 C20_4 1_555 1_555
H28_4 C20_4 1_555 1_555
H30_4 C23_4 1_555 1_555
C24_4 C23_4 1_555 1_555
C28_4 C24_4 1_555 1_555
O17_2 C17_4 1_555 1_555
O18_2 C17_4 1_555 1_555
O21_2 C28_4 1_555 1_555
C14_4 C15_4 1_555 1_555
H31_4 C25_4 1_555 1_555
H20_4 C18_4 1_555 1_555
H22_4 C18_4 1_555 1_555

#END
