
###############################################################################
#
# This file contains modified crystal structure data generated from the
# MOF subset of the Cambridge Structural Database (CSD) v543 
# hosted by the Cambridge Crystallographic Data Centre (CCDC).
#
# This work is licensed under the Creative Commons
# Attribution-NonCommercial-ShareAlike 4.0 International License.
# To view a copy of this license, visit
# http://creativecommons.org/licenses/by-nc-sa/4.0/
# or send a letter to
# Creative Commons, PO Box 1866, Mountain View, CA 94042, USA.
#
# CIF created using the CSD Python API on 29 September 2022
# The structure has been converted into the P1 space group
# The structure has a 3D framework
# The original CSD entry EXACUC is in the orthorhombic crystal system
# The original CSD entry EXACUC is in a Sohncke space group
# The framework has been calculated to contain at least 10.0% void space
# The void calculation uses a probe of radius 1.32A, grid spacing 0.4
#
###############################################################################

data_EXACUC
_chemical_formula_moiety         '(C112 H144 Ho8 O53)n'
_symmetry_cell_setting           triclinic
_symmetry_space_group_name_H-M   'P 1'
_symmetry_Int_Tables_number      1
_space_group_name_Hall           'P 1'
loop_
_symmetry_equiv_pos_site_id
_symmetry_equiv_pos_as_xyz
1 x,y,z
_cell_length_a                   12.9406(6)
_cell_length_b                   14.1007(6)
_cell_length_c                   18.8914(8)
_cell_angle_alpha                90
_cell_angle_beta                 90
_cell_angle_gamma                90
_cell_volume                     3447.14
loop_
_atom_site_label
_atom_site_type_symbol
_atom_site_fract_x
_atom_site_fract_y
_atom_site_fract_z
C1 C 0.0112(7) 0.0964(6) 0.8279(5)
C2 C 0.1206(8) 0.0697(7) 0.8058(6)
H2 H 0.1213 0.0474 0.7572
H3 H 0.1473 0.0198 0.8360
C3 C 0.1877(8) 0.1614(6) 0.8133(5)
H4 H 0.2540 0.1469 0.8347
H5 H 0.1994 0.1904 0.7674
C4 C 0.1233(8) 0.2284(6) 0.8619(5)
C5 C 0.0081(7) 0.2079(6) 0.8358(5)
C7 C 0.1530(7) 0.3315(5) 0.8510(5)
C8 C 0.1400(12) 0.1995(7) 0.9389(6)
H6 H 0.2101 0.2126 0.9523
H7 H 0.1264 0.1329 0.9441
H8 H 0.0938 0.2348 0.9687
H11 H 0.0427 0.2381 0.7315
O3 O 0.1331(6) 0.3928(4) 0.8976(3)
O4 O 0.1983(6) 0.3584(4) 0.7952(3)
Ho5 Ho 0.22759(3) 0.52056(2) 0.828632(19)
Ho1 Ho 0.71253(3) 0.00056(3) 0.884989(19)
Ho2 Ho 0.77241(3) 0.02056(2) 0.671368(19)
H1 H 0.9993 0.0693 0.8750
C6 C 0.9284(7) 0.0567(6) 0.7789(5)
C9 C 0.9886(11) 0.2553(8) 0.7639(6)
H9 H 0.9876 0.3229 0.7697
H10 H 0.9233 0.2345 0.7454
C10 C 0.9281(9) 0.2375(7) 0.8887(7)
H12 H 0.9276 0.3054 0.8927
H13 H 0.9440 0.2101 0.9339
H14 H 0.8613 0.2160 0.8735
C18 C 0.4256(10) 0.0047(8) 0.6786(7)
H20 H 0.4244 0.0675 0.6983
H22 H 0.4778 0.0012 0.6426
O1 O 0.8418(4) 0.0311(5) 0.8025(3)
O2 O 0.9459(5) 0.0486(5) 0.7135(3)
O14 O 0.6190(7) 0.0994(5) 0.9621(3)
H36 H 0.6137 0.1579 0.9516
O17 O 0.6713(6) 0.1454(4) 0.8343(3)
O18 O 0.7161(6) 0.1621(4) 0.7205(3)
O19 O 0.8445(6) 0.1219(5) 0.5909(3)
O20 O 0.8451(5) 0.0196(4) 0.9639(3)
O21 O 0.6583(5) 0.0107(4) 0.5798(3)
C21 C 0.5629(8) 0.7743(6) 0.0170(5)
C25 C 0.4805(8) 0.6334(7) 0.0609(5)
H31 H 0.4677 0.5917 0.0980
C26 C 0.5425(9) 0.7115(7) 0.0715(5)
H32 H 0.5711 0.7222 0.1159
C27 C 0.6313(8) 0.8588(6) 0.0287(5)
O9 O 0.6555(6) 0.8781(5) 0.0909(3)
O11 O 0.3451(5) 0.4804(4) 0.0361(3)
Ho4 Ho 0.21253(3) 0.49944(3) 0.115011(19)
Ho7 Ho 0.72759(3) 0.97944(2) 0.171368(19)
C11 C 0.4492(7) 0.9339(6) 0.7362(5)
C12 C 0.3581(8) 0.9334(8) 0.7905(7)
H15 H 0.3852 0.9231 0.8378
H16 H 0.3238 0.9946 0.7899
C13 C 0.2847(10) 0.8599(8) 0.7736(7)
H17 H 0.2197 0.8877 0.7587
H18 H 0.2720 0.8205 0.8148
C14 C 0.3312(8) 0.8002(6) 0.7135(6)
H19 H 0.2971 0.8200 0.6696
C15 C 0.4476(7) 0.8281(6) 0.7067(5)
C16 C 0.5512(7) 0.9582(6) 0.7711(5)
C17 C 0.3139(8) 0.6935(7) 0.7210(5)
H21 H 0.3594 0.9906 0.6582
C19 C 0.5155(10) 0.7633(8) 0.7531(7)
H23 H 0.5157 0.7003 0.7337
H24 H 0.4883 0.7617 0.8003
H25 H 0.5848 0.7875 0.7540
C20 C 0.4898(12) 0.8188(9) 0.6326(6)
H26 H 0.4885 0.7534 0.6186
H27 H 0.5597 0.8417 0.6315
H28 H 0.4482 0.8554 0.6007
C22 C 0.5166(9) 0.7584(8) 0.9526(6)
H29 H 0.5272 0.8021 0.9164
C23 C 0.4552(10) 0.6806(7) 0.9394(5)
H30 H 0.4266 0.6708 0.8948
C24 C 0.4367(8) 0.6166(6) 0.9945(5)
C28 C 0.3667(7) 0.5311(6) 0.9826(5)
O5 O 0.6300(5) 0.9719(5) 0.7352(4)
O6 O 0.5534(6) 0.9609(5) 0.8367(4)
O7 O 0.3287(6) 0.6454(4) 0.6657(3)
O8 O 0.2839(6) 0.6621(4) 0.7795(3)
O10 O 0.6601(7) 0.9027(5) 0.9747(3)
O12 O 0.3417(5) 0.5107(4) 0.9202(3)
O13 O 0.7625(6) 0.8509(4) 0.8448(3)
H33 H 0.7641 0.8037 0.8724
H34 H 0.8069 0.8457 0.8122
Ho3 Ho 0.28747(3) 0.50056(3) 0.615011(19)
O15 O 0.8669(6) 0.8928(4) 0.6024(3)
O16 O 0.8017(6) 0.8584(4) 0.7048(3)
C11_2 C 0.0508(7) 0.0661(6) 0.2362(5)
C12_2 C 0.1419(8) 0.0666(8) 0.2905(7)
H15_2 H 0.1148 0.0769 0.3378
H16_2 H 0.1762 0.0054 0.2899
C13_2 C 0.2153(10) 0.1401(8) 0.2736(7)
H17_2 H 0.2803 0.1123 0.2587
H18_2 H 0.2280 0.1795 0.3148
C14_2 C 0.1688(8) 0.1998(6) 0.2135(6)
H19_2 H 0.2029 0.1800 0.1696
C15_2 C 0.0524(7) 0.1719(6) 0.2067(5)
C17_2 C 0.1861(8) 0.3065(7) 0.2210(5)
H21_2 H 0.1406 0.0094 0.1582
H24_2 H 0.0117 0.2383 0.3003
C20_2 C 0.0102(12) 0.1812(9) 0.1326(6)
H26_2 H 0.0115 0.2466 0.1186
H28_2 H 0.0518 0.1446 0.1007
C23_2 C 0.0448(10) 0.3194(7) 0.4394(5)
H30_2 H 0.0734 0.3292 0.3948
C24_2 C 0.0633(8) 0.3834(6) 0.4945(5)
C25_2 C 0.0195(8) 0.3666(7) 0.5609(5)
H31_2 H 0.0323 0.4083 0.5980
C28_2 C 0.1333(7) 0.4689(6) 0.4826(5)
O7_2 O 0.1713(6) 0.3546(4) 0.1657(3)
O8_2 O 0.2161(6) 0.3379(4) 0.2795(3)
O11_2 O 0.1549(5) 0.5196(4) 0.5361(3)
O12_2 O 0.1583(5) 0.4893(4) 0.4202(3)
Ho6 Ho 0.27241(3) 0.47944(2) 0.328632(19)
C16_2 C 0.9488(7) 0.0418(6) 0.2711(5)
C19_2 C 0.9845(10) 0.2367(8) 0.2531(7)
H23_2 H 0.9843 0.2997 0.2337
H25_2 H 0.9152 0.2125 0.2540
H27_2 H 0.9403 0.1583 0.1315
C21_2 C 0.9371(8) 0.2257(6) 0.5170(5)
C22_2 C 0.9834(9) 0.2416(8) 0.4526(6)
H29_2 H 0.9728 0.1979 0.4164
C26_2 C 0.9575(9) 0.2885(7) 0.5715(5)
H32_2 H 0.9289 0.2778 0.6159
C27_2 C 0.8687(8) 0.1412(6) 0.5287(5)
O5_2 O 0.8700(5) 0.0281(5) 0.2352(4)
O6_2 O 0.9466(6) 0.0391(5) 0.3367(4)
O10_2 O 0.8399(7) 0.0973(5) 0.4747(3)
O13_2 O 0.7375(6) 0.1491(4) 0.3448(3)
H33_2 H 0.7359 0.1963 0.3724
H34_2 H 0.6931 0.1543 0.3122
O15_2 O 0.6331(6) 0.1072(4) 0.1024(3)
O16_2 O 0.6983(6) 0.1416(4) 0.2048(3)
Ho1_2 Ho 0.78747(3) 0.99944(3) 0.384989(19)
C1_2 C 0.4888(7) 0.9036(6) 0.3279(5)
H1_2 H 0.5007 0.9307 0.3750
C2_2 C 0.3794(8) 0.9303(7) 0.3058(6)
H2_2 H 0.3787 0.9526 0.2572
H3_2 H 0.3527 0.9802 0.3360
C3_2 C 0.3123(8) 0.8386(6) 0.3133(5)
H4_2 H 0.2460 0.8531 0.3347
H5_2 H 0.3006 0.8096 0.2674
C4_2 C 0.3767(8) 0.7716(6) 0.3619(5)
C5_2 C 0.4919(7) 0.7921(6) 0.3358(5)
C6_2 C 0.5716(7) 0.9433(6) 0.2789(5)
C7_2 C 0.3470(7) 0.6685(5) 0.3510(5)
C8_2 C 0.3600(12) 0.8005(7) 0.4389(6)
H6_2 H 0.2899 0.7874 0.4523
H7_2 H 0.3736 0.8671 0.4441
H8_2 H 0.4062 0.7652 0.4687
C9_2 C 0.5114(11) 0.7447(8) 0.2639(6)
H9_2 H 0.5124 0.6771 0.2697
H10_2 H 0.5767 0.7655 0.2454
H11_2 H 0.4573 0.7619 0.2315
C10_2 C 0.5719(9) 0.7625(7) 0.3887(7)
H12_2 H 0.5724 0.6946 0.3927
H13_2 H 0.5560 0.7899 0.4339
H14_2 H 0.6387 0.7840 0.3735
O1_2 O 0.6582(4) 0.9689(5) 0.3025(3)
O2_2 O 0.5541(5) 0.9514(5) 0.2135(3)
O3_2 O 0.3669(6) 0.6072(4) 0.3976(3)
O4_2 O 0.3017(6) 0.6416(4) 0.2952(3)
O14_2 O 0.8810(7) 0.9006(5) 0.4621(3)
H35 H 0.8557 0.9059 0.5035
H36_2 H 0.8863 0.8421 0.4516
O17_2 O 0.8287(6) 0.8546(4) 0.3343(3)
O18_2 O 0.7839(6) 0.8379(4) 0.2205(3)
O20_2 O 0.6549(5) 0.9804(4) 0.4639(3)
O21_2 O 0.8417(5) 0.9893(4) 0.0798(3)
H1_3 H 0.0007 0.5693 0.6250
C6_3 C 0.0716(7) 0.5567(6) 0.7211(5)
C9_3 C 0.0114(11) 0.7553(8) 0.7361(6)
H9_3 H 0.0124 0.8229 0.7303
H10_3 H 0.0767 0.7345 0.7546
C10_3 C 0.0719(9) 0.7375(7) 0.6113(7)
H12_3 H 0.0724 0.8054 0.6073
H13_3 H 0.0560 0.7101 0.5661
H14_3 H 0.1387 0.7160 0.6265
C11_3 C 0.5508(7) 0.4339(6) 0.7638(5)
C12_3 C 0.6419(8) 0.4334(8) 0.7095(7)
H15_3 H 0.6148 0.4231 0.6622
H16_3 H 0.6762 0.4946 0.7101
C13_3 C 0.7153(10) 0.3599(8) 0.7264(7)
H17_3 H 0.7803 0.3877 0.7413
H18_3 H 0.7280 0.3205 0.6852
C14_3 C 0.6688(8) 0.3002(6) 0.7865(6)
H19_3 H 0.7029 0.3200 0.8304
C15_3 C 0.5524(7) 0.3281(6) 0.7933(5)
C16_3 C 0.4488(7) 0.4582(6) 0.7289(5)
C17_3 C 0.6861(8) 0.1935(7) 0.7790(5)
C18_2 C 0.5744(10) 0.5047(8) 0.8214(7)
H20_2 H 0.5756 0.5675 0.8017
H21_3 H 0.6406 0.4906 0.8418
H22_2 H 0.5222 0.5012 0.8574
C19_3 C 0.4845(10) 0.2633(8) 0.7469(7)
H23_3 H 0.4843 0.2003 0.7663
H24_3 H 0.5117 0.2617 0.6997
H25_3 H 0.4152 0.2875 0.7460
C20_3 C 0.5102(12) 0.3188(9) 0.8674(6)
H26_3 H 0.5115 0.2534 0.8814
H27_3 H 0.4403 0.3417 0.8685
H28_3 H 0.5518 0.3554 0.8993
C21_3 C 0.4371(8) 0.2743(6) 0.4830(5)
C22_3 C 0.4834(9) 0.2584(8) 0.5474(6)
H29_3 H 0.4728 0.3021 0.5836
C23_3 C 0.5448(10) 0.1806(7) 0.5606(5)
H30_3 H 0.5734 0.1708 0.6052
C24_3 C 0.5633(8) 0.1166(6) 0.5055(5)
C25_3 C 0.5195(8) 0.1334(7) 0.4391(5)
H31_3 H 0.5323 0.0917 0.4020
C26_3 C 0.4575(9) 0.2115(7) 0.4285(5)
H32_3 H 0.4289 0.2222 0.3841
C27_3 C 0.3687(8) 0.3588(6) 0.4713(5)
C28_3 C 0.6333(7) 0.0311(6) 0.5174(5)
O1_3 O 0.1582(4) 0.5311(5) 0.6975(3)
O2_3 O 0.0541(5) 0.5486(5) 0.7865(3)
O5_3 O 0.3700(5) 0.4719(5) 0.7648(4)
O6_3 O 0.4466(6) 0.4609(5) 0.6633(4)
O9_2 O 0.3445(6) 0.3781(5) 0.4091(3)
O10_3 O 0.3399(7) 0.4027(5) 0.5253(3)
O13_3 O 0.2375(6) 0.3509(4) 0.6552(3)
H33_3 H 0.2359 0.3037 0.6276
H34_3 H 0.1931 0.3457 0.6878
O14_3 O 0.3810(7) 0.5994(5) 0.5379(3)
H35_2 H 0.3557 0.5941 0.4965
H36_3 H 0.3863 0.6579 0.5484
O19_2 O 0.1555(6) 0.6219(5) 0.9091(3)
C1_3 C 0.9888(7) 0.5964(6) 0.6721(5)
C2_3 C 0.8794(8) 0.5697(7) 0.6942(6)
H2_3 H 0.8787 0.5474 0.7428
H3_3 H 0.8527 0.5198 0.6640
C3_3 C 0.8123(8) 0.6614(6) 0.6867(5)
H4_3 H 0.7460 0.6469 0.6653
H5_3 H 0.8006 0.6904 0.7326
C4_3 C 0.8767(8) 0.7284(6) 0.6381(5)
C5_3 C 0.9919(7) 0.7079(6) 0.6642(5)
C7_3 C 0.8470(7) 0.8315(5) 0.6490(5)
C8_3 C 0.8600(12) 0.6995(7) 0.5611(6)
H6_3 H 0.7899 0.7126 0.5477
H7_3 H 0.8736 0.6329 0.5559
H8_3 H 0.9062 0.7348 0.5313
H11_3 H 0.9573 0.7381 0.7685
C1_4 C 0.5112(7) 0.4036(6) 0.1721(5)
H1_4 H 0.4993 0.4307 0.1250
C2_4 C 0.6206(8) 0.4303(7) 0.1942(6)
H2_4 H 0.6213 0.4526 0.2428
H3_4 H 0.6473 0.4802 0.1640
C3_4 C 0.6877(8) 0.3386(6) 0.1867(5)
H4_4 H 0.7540 0.3531 0.1653
H5_4 H 0.6994 0.3096 0.2326
C4_4 C 0.6233(8) 0.2716(6) 0.1381(5)
C5_4 C 0.5081(7) 0.2921(6) 0.1642(5)
C6_4 C 0.4284(7) 0.4433(6) 0.2211(5)
C7_4 C 0.6530(7) 0.1685(5) 0.1490(5)
C8_4 C 0.6400(12) 0.3005(7) 0.0611(6)
H6_4 H 0.7101 0.2874 0.0477
H7_4 H 0.6264 0.3671 0.0559
H8_4 H 0.5938 0.2652 0.0313
C9_4 C 0.4886(11) 0.2447(8) 0.2361(6)
H9_4 H 0.4876 0.1771 0.2303
H10_4 H 0.4233 0.2655 0.2546
H11_4 H 0.5427 0.2619 0.2685
C10_4 C 0.4281(9) 0.2625(7) 0.1113(7)
H12_4 H 0.4276 0.1946 0.1073
H13_4 H 0.4440 0.2899 0.0661
H14_4 H 0.3613 0.2840 0.1265
C16_4 C 0.0512(7) 0.5418(6) 0.2289(5)
C19_4 C 0.0155(10) 0.7367(8) 0.2469(7)
H23_4 H 0.0157 0.7997 0.2663
H25_4 H 0.0848 0.7125 0.2460
H27_4 H 0.0597 0.6583 0.3685
C22_4 C 0.0166(9) 0.7416(8) 0.0474(6)
H29_4 H 0.0272 0.6979 0.0836
O1_4 O 0.3418(4) 0.4689(5) 0.1975(3)
O2_4 O 0.4459(5) 0.4514(5) 0.2865(3)
O5_4 O 0.1300(5) 0.5281(5) 0.2648(4)
O6_4 O 0.0534(6) 0.5391(5) 0.1633(4)
O10_4 O 0.1601(7) 0.5973(5) 0.0253(3)
O13_4 O 0.2625(6) 0.6491(4) 0.1552(3)
H33_4 H 0.2641 0.6963 0.1276
H34_4 H 0.3069 0.6543 0.1878
O14_4 O 0.1190(7) 0.4006(5) 0.0379(3)
H36_4 H 0.1137 0.3421 0.0484
C21_4 C 0.0629(8) 0.7257(6) 0.9830(5)
C26_4 C 0.0425(9) 0.7885(7) 0.9285(5)
H32_4 H 0.0711 0.7778 0.8841
C27_4 C 0.1313(8) 0.6412(6) 0.9713(5)
H35_3 H 0.1443 0.4059 0.9965
C11_4 C 0.9492(7) 0.5661(6) 0.2638(5)
C12_4 C 0.8581(8) 0.5666(8) 0.2095(7)
H15_4 H 0.8852 0.5769 0.1622
H16_4 H 0.8238 0.5054 0.2101
C13_4 C 0.7847(10) 0.6401(8) 0.2264(7)
H17_4 H 0.7197 0.6123 0.2413
H18_4 H 0.7720 0.6795 0.1852
C14_4 C 0.8312(8) 0.6998(6) 0.2865(6)
H19_4 H 0.7971 0.6800 0.3304
C15_4 C 0.9476(7) 0.6719(6) 0.2933(5)
C17_4 C 0.8139(8) 0.8065(7) 0.2790(5)
C18_3 C 0.9256(10) 0.4953(8) 0.3214(7)
H20_3 H 0.9244 0.4325 0.3017
H21_4 H 0.8594 0.5094 0.3418
H22_3 H 0.9778 0.4988 0.3574
H24_4 H 0.9883 0.7383 0.1997
C20_4 C 0.9898(12) 0.6812(9) 0.3674(6)
H26_4 H 0.9885 0.7466 0.3814
H28_4 H 0.9482 0.6446 0.3993
C23_4 C 0.9552(10) 0.8194(7) 0.0606(5)
H30_4 H 0.9266 0.8292 0.1052
C24_4 C 0.9367(8) 0.8834(6) 0.0055(5)
C28_4 C 0.8667(7) 0.9689(6) 0.0174(5)
H35_4 H 0.6443 0.0941 0.0035
C18_4 C 0.0744(10) 0.9953(8) 0.1786(7)
H20_4 H 0.0756 0.9325 0.1983
H22_4 H 0.0222 0.9988 0.1426
C25_4 C 0.9805(8) 0.8666(7) 0.9391(5)
H31_4 H 0.9677 0.9083 0.9020
loop_
_geom_bond_atom_site_label_1
_geom_bond_atom_site_label_2
_geom_bond_site_symmetry_1
_geom_bond_site_symmetry_2
C2 C1 1_555 1_555
H2 C2 1_555 1_555
H3 C2 1_555 1_555
C3 C2 1_555 1_555
H4 C3 1_555 1_555
H5 C3 1_555 1_555
C4 C3 1_555 1_555
C5 C1 1_555 1_555
C7 C4 1_555 1_555
C8 C4 1_555 1_555
H6 C8 1_555 1_555
H7 C8 1_555 1_555
H8 C8 1_555 1_555
O3 C7 1_555 1_555
O4 C7 1_555 1_555
Ho5 O3 1_555 1_555
C4 C5 1_555 1_555
O4 Ho5 1_555 1_555
Ho1 O1 1_555 1_555
Ho2 O1 1_555 1_555
H9 C9 1_555 1_555
H10 C9 1_555 1_555
H12 C10 1_555 1_555
H13 C10 1_555 1_555
H14 C10 1_555 1_555
H20 C18 1_555 1_555
H22 C18 1_555 1_555
O1 C6 1_555 1_555
O2 Ho2 1_555 1_555
O14 Ho1 1_555 1_555
H36 O14 1_555 1_555
O17 Ho1 1_555 1_555
O18 Ho2 1_555 1_555
O19 Ho2 1_555 1_555
O20 Ho1 1_555 1_555
O21 Ho2 1_555 1_555
C6 O2 1_555 1_555
H31 C25 1_555 1_555
C26 C21 1_555 1_555
H32 C26 1_555 1_555
C27 C21 1_555 1_555
O9 C27 1_555 1_555
Ho4 O11 1_555 1_555
Ho7 O9 1_555 1_555
C25 C26 1_555 1_555
C11 C12 1_555 1_555
C12 H15 1_555 1_555
H16 C12 1_555 1_555
C13 C12 1_555 1_555
H17 C13 1_555 1_555
H18 C13 1_555 1_555
C14 C13 1_555 1_555
H19 C14 1_555 1_555
C15 C11 1_555 1_555
C16 C11 1_555 1_555
C17 C14 1_555 1_555
C19 C15 1_555 1_555
H23 C19 1_555 1_555
H24 C19 1_555 1_555
H25 C19 1_555 1_555
C20 C15 1_555 1_555
H26 C20 1_555 1_555
H27 C20 1_555 1_555
H28 C20 1_555 1_555
C22 H29 1_555 1_555
C23 C22 1_555 1_555
H30 C23 1_555 1_555
C24 C23 1_555 1_555
C28 C24 1_555 1_555
O7 C17 1_555 1_555
O8 C17 1_555 1_555
O12 C28 1_555 1_555
H33 O13 1_555 1_555
H34 O13 1_555 1_555
Ho3 O7 1_555 1_555
Ho5 O8 1_555 1_555
C14 C15 1_555 1_555
C16 O5 1_555 1_555
C16 O6 1_555 1_555
O12 Ho5 1_555 1_555
C11_2 C12_2 1_555 1_555
C12_2 H15_2 1_555 1_555
H16_2 C12_2 1_555 1_555
C13_2 C12_2 1_555 1_555
H17_2 C13_2 1_555 1_555
H18_2 C13_2 1_555 1_555
C14_2 C13_2 1_555 1_555
H19_2 C14_2 1_555 1_555
C15_2 C11_2 1_555 1_555
C17_2 C14_2 1_555 1_555
C20_2 C15_2 1_555 1_555
H26_2 C20_2 1_555 1_555
H28_2 C20_2 1_555 1_555
H30_2 C23_2 1_555 1_555
C24_2 C23_2 1_555 1_555
C25_2 C24_2 1_555 1_555
H31_2 C25_2 1_555 1_555
C28_2 C24_2 1_555 1_555
O7_2 C17_2 1_555 1_555
O8_2 C17_2 1_555 1_555
O11_2 C28_2 1_555 1_555
O12_2 C28_2 1_555 1_555
Ho4 O7_2 1_555 1_555
Ho3 O11_2 1_555 1_555
Ho6 O8_2 1_555 1_555
C14_2 C15_2 1_555 1_555
O12_2 Ho6 1_555 1_555
H23_2 C19_2 1_555 1_555
H25_2 C19_2 1_555 1_555
C21_2 C22_2 1_555 1_555
C22_2 H29_2 1_555 1_555
C26_2 C21_2 1_555 1_555
H32_2 C26_2 1_555 1_555
C27_2 C21_2 1_555 1_555
O19 C27_2 1_555 1_555
H33_2 O13_2 1_555 1_555
H34_2 O13_2 1_555 1_555
C16_2 O5_2 1_555 1_555
C16_2 O6_2 1_555 1_555
C27_2 O10_2 1_555 1_555
Ho1_2 O1_2 1_555 1_555
Ho7 O1_2 1_555 1_555
C1_2 H1_2 1_555 1_555
C2_2 C1_2 1_555 1_555
H2_2 C2_2 1_555 1_555
H3_2 C2_2 1_555 1_555
C3_2 C2_2 1_555 1_555
H4_2 C3_2 1_555 1_555
H5_2 C3_2 1_555 1_555
C4_2 C3_2 1_555 1_555
C5_2 C1_2 1_555 1_555
C6_2 C1_2 1_555 1_555
C7_2 C4_2 1_555 1_555
C8_2 C4_2 1_555 1_555
H6_2 C8_2 1_555 1_555
H7_2 C8_2 1_555 1_555
H8_2 C8_2 1_555 1_555
C9_2 C5_2 1_555 1_555
H9_2 C9_2 1_555 1_555
H10_2 C9_2 1_555 1_555
H11_2 C9_2 1_555 1_555
C10_2 C5_2 1_555 1_555
H12_2 C10_2 1_555 1_555
H13_2 C10_2 1_555 1_555
H14_2 C10_2 1_555 1_555
O1_2 C6_2 1_555 1_555
O2_2 Ho7 1_555 1_555
O3_2 C7_2 1_555 1_555
O4_2 C7_2 1_555 1_555
O14_2 Ho1_2 1_555 1_555
H35 O14_2 1_555 1_555
H36_2 O14_2 1_555 1_555
Ho6 O3_2 1_555 1_555
O17_2 Ho1_2 1_555 1_555
O18_2 Ho7 1_555 1_555
O20_2 Ho1_2 1_555 1_555
O21_2 Ho7 1_555 1_555
C4_2 C5_2 1_555 1_555
C6_2 O2_2 1_555 1_555
O4_2 Ho6 1_555 1_555
Ho3 O1_3 1_555 1_555
Ho5 O1_3 1_555 1_555
H9_3 C9_3 1_555 1_555
H10_3 C9_3 1_555 1_555
H12_3 C10_3 1_555 1_555
H13_3 C10_3 1_555 1_555
H14_3 C10_3 1_555 1_555
C11_3 C12_3 1_555 1_555
C12_3 H15_3 1_555 1_555
H16_3 C12_3 1_555 1_555
C13_3 C12_3 1_555 1_555
H17_3 C13_3 1_555 1_555
H18_3 C13_3 1_555 1_555
C14_3 C13_3 1_555 1_555
H19_3 C14_3 1_555 1_555
C15_3 C11_3 1_555 1_555
C16_3 C11_3 1_555 1_555
C17_3 C14_3 1_555 1_555
C18_2 C11_3 1_555 1_555
H20_2 C18_2 1_555 1_555
H21_3 C18_2 1_555 1_555
H22_2 C18_2 1_555 1_555
C19_3 C15_3 1_555 1_555
H23_3 C19_3 1_555 1_555
H24_3 C19_3 1_555 1_555
H25_3 C19_3 1_555 1_555
C20_3 C15_3 1_555 1_555
H26_3 C20_3 1_555 1_555
H27_3 C20_3 1_555 1_555
H28_3 C20_3 1_555 1_555
C21_3 C22_3 1_555 1_555
C22_3 H29_3 1_555 1_555
C23_3 C22_3 1_555 1_555
H30_3 C23_3 1_555 1_555
C24_3 C23_3 1_555 1_555
C25_3 C24_3 1_555 1_555
H31_3 C25_3 1_555 1_555
C26_3 C21_3 1_555 1_555
H32_3 C26_3 1_555 1_555
C27_3 C21_3 1_555 1_555
C28_3 C24_3 1_555 1_555
O1_3 C6_3 1_555 1_555
O2_3 Ho5 1_555 1_555
O5_3 Ho5 1_555 1_555
O6_3 Ho3 1_555 1_555
O17 C17_3 1_555 1_555
O18 C17_3 1_555 1_555
O9_2 C27_3 1_555 1_555
O10_3 Ho3 1_555 1_555
O21 C28_3 1_555 1_555
O13_3 Ho3 1_555 1_555
H33_3 O13_3 1_555 1_555
H34_3 O13_3 1_555 1_555
O14_3 Ho3 1_555 1_555
H35_2 O14_3 1_555 1_555
H36_3 O14_3 1_555 1_555
Ho6 O9_2 1_555 1_555
O19_2 Ho5 1_555 1_555
C6_3 O2_3 1_555 1_555
C14_3 C15_3 1_555 1_555
C16_3 O5_3 1_555 1_555
C16_3 O6_3 1_555 1_555
C25_3 C26_3 1_555 1_555
C27_3 O10_3 1_555 1_555
C2_3 C1_3 1_555 1_555
H2_3 C2_3 1_555 1_555
H3_3 C2_3 1_555 1_555
C3_3 C2_3 1_555 1_555
H4_3 C3_3 1_555 1_555
H5_3 C3_3 1_555 1_555
C4_3 C3_3 1_555 1_555
C5_3 C1_3 1_555 1_555
C7_3 C4_3 1_555 1_555
C8_3 C4_3 1_555 1_555
H6_3 C8_3 1_555 1_555
H7_3 C8_3 1_555 1_555
H8_3 C8_3 1_555 1_555
O15 C7_3 1_555 1_555
O16 C7_3 1_555 1_555
C4_3 C5_3 1_555 1_555
Ho4 O1_4 1_555 1_555
Ho6 O1_4 1_555 1_555
C1_4 H1_4 1_555 1_555
C2_4 C1_4 1_555 1_555
H2_4 C2_4 1_555 1_555
H3_4 C2_4 1_555 1_555
C3_4 C2_4 1_555 1_555
H4_4 C3_4 1_555 1_555
H5_4 C3_4 1_555 1_555
C4_4 C3_4 1_555 1_555
C5_4 C1_4 1_555 1_555
C6_4 C1_4 1_555 1_555
C7_4 C4_4 1_555 1_555
C8_4 C4_4 1_555 1_555
H6_4 C8_4 1_555 1_555
H7_4 C8_4 1_555 1_555
H8_4 C8_4 1_555 1_555
C9_4 C5_4 1_555 1_555
H9_4 C9_4 1_555 1_555
H10_4 C9_4 1_555 1_555
H11_4 C9_4 1_555 1_555
C10_4 C5_4 1_555 1_555
H12_4 C10_4 1_555 1_555
H13_4 C10_4 1_555 1_555
H14_4 C10_4 1_555 1_555
H23_4 C19_4 1_555 1_555
H25_4 C19_4 1_555 1_555
C22_4 H29_4 1_555 1_555
O1_4 C6_4 1_555 1_555
O2_4 Ho6 1_555 1_555
O15_2 C7_4 1_555 1_555
O16_2 C7_4 1_555 1_555
O5_4 Ho6 1_555 1_555
O6_4 Ho4 1_555 1_555
O10_4 Ho4 1_555 1_555
O13_4 Ho4 1_555 1_555
H33_4 O13_4 1_555 1_555
H34_4 O13_4 1_555 1_555
O14_4 Ho4 1_555 1_555
H36_4 O14_4 1_555 1_555
C4_4 C5_4 1_555 1_555
C6_4 O2_4 1_555 1_555
C16_4 O5_4 1_555 1_555
C16_4 O6_4 1_555 1_555
C26_4 C21_4 1_555 1_555
H32_4 C26_4 1_555 1_555
C27_4 C21_4 1_555 1_555
O19_2 C27_4 1_555 1_555
C11_4 C12_4 1_555 1_555
C12_4 H15_4 1_555 1_555
H16_4 C12_4 1_555 1_555
C13_4 C12_4 1_555 1_555
H17_4 C13_4 1_555 1_555
H18_4 C13_4 1_555 1_555
C14_4 C13_4 1_555 1_555
H19_4 C14_4 1_555 1_555
C15_4 C11_4 1_555 1_555
C17_4 C14_4 1_555 1_555
C18_3 C11_4 1_555 1_555
H20_3 C18_3 1_555 1_555
H21_4 C18_3 1_555 1_555
H22_3 C18_3 1_555 1_555
C20_4 C15_4 1_555 1_555
H26_4 C20_4 1_555 1_555
H28_4 C20_4 1_555 1_555
H30_4 C23_4 1_555 1_555
C24_4 C23_4 1_555 1_555
C28_4 C24_4 1_555 1_555
O17_2 C17_4 1_555 1_555
O18_2 C17_4 1_555 1_555
O21_2 C28_4 1_555 1_555
C14_4 C15_4 1_555 1_555
H20_4 C18_4 1_555 1_555
H22_4 C18_4 1_555 1_555
H31_4 C25_4 1_555 1_555

#END
