
###############################################################################
#
# This file contains modified crystal structure data generated from the
# MOF subset of the Cambridge Structural Database (CSD) v543 
# hosted by the Cambridge Crystallographic Data Centre (CCDC).
#
# This work is licensed under the Creative Commons
# Attribution-NonCommercial-ShareAlike 4.0 International License.
# To view a copy of this license, visit
# http://creativecommons.org/licenses/by-nc-sa/4.0/
# or send a letter to
# Creative Commons, PO Box 1866, Mountain View, CA 94042, USA.
#
# CIF created using the CSD Python API on 29 September 2022
# The structure has been converted into the P1 space group
# The structure has a 3D framework
# The original CSD entry EXACOW is in the orthorhombic crystal system
# The original CSD entry EXACOW is in a Sohncke space group
# The framework has been calculated to contain at least 10.0% void space
# The void calculation uses a probe of radius 1.32A, grid spacing 0.4
#
###############################################################################

data_EXACOW
_chemical_formula_moiety         '(C112 H144 Dy8 O53)n'
_symmetry_cell_setting           triclinic
_symmetry_space_group_name_H-M   'P 1'
_symmetry_Int_Tables_number      1
_space_group_name_Hall           'P 1'
loop_
_symmetry_equiv_pos_site_id
_symmetry_equiv_pos_as_xyz
1 x,y,z
_cell_length_a                   12.939(3)
_cell_length_b                   14.111(3)
_cell_length_c                   18.910(4)
_cell_angle_alpha                90
_cell_angle_beta                 90
_cell_angle_gamma                90
_cell_volume                     3452.63
loop_
_atom_site_label
_atom_site_type_symbol
_atom_site_fract_x
_atom_site_fract_y
_atom_site_fract_z
C1 C 0.0114(5) 0.0964(4) 0.8275(4)
C2 C 0.1211(6) 0.0706(5) 0.8056(4)
H2 H 0.1220 0.0481 0.7571
H3 H 0.1479 0.0209 0.8358
C3 C 0.1877(6) 0.1612(5) 0.8128(4)
H4 H 0.2537 0.1470 0.8346
H5 H 0.1998 0.1899 0.7669
C4 C 0.1227(5) 0.2274(5) 0.8604(4)
C5 C 0.0092(5) 0.2076(5) 0.8354(4)
C7 C 0.1530(5) 0.3320(4) 0.8506(3)
C8 C 0.1400(7) 0.2002(6) 0.9378(4)
H6 H 0.2103 0.2135 0.9507
H7 H 0.1264 0.1338 0.9439
H8 H 0.0942 0.2362 0.9673
H11 H 0.0407 0.2390 0.7306
O3 O 0.1330(4) 0.3925(3) 0.8972(2)
O4 O 0.1987(4) 0.3591(3) 0.7949(3)
Dy5 Dy 0.22788(2) 0.520673(19) 0.828566(14)
Dy1 Dy 0.71270(2) 0.00075(2) 0.885328(14)
Dy2 Dy 0.77212(2) 0.020673(19) 0.671434(14)
H1 H 0.9992 0.0691 0.8744
C6 C 0.9298(5) 0.0568(5) 0.7777(3)
C9 C 0.9875(8) 0.2559(6) 0.7637(5)
H9 H 0.9866 0.3234 0.7698
H10 H 0.9217 0.2352 0.7460
C10 C 0.9278(6) 0.2392(6) 0.8881(5)
H12 H 0.9283 0.3071 0.8915
H13 H 0.9427 0.2123 0.9336
H14 H 0.8610 0.2182 0.8725
C18 C 0.4243(6) 0.0058(6) 0.6789(5)
H20 H 0.4233 0.0681 0.6992
H22 H 0.4768 0.0026 0.6432
O1 O 0.8414(3) 0.0324(3) 0.8030(2)
O2 O 0.9450(4) 0.0486(4) 0.7136(2)
O14 O 0.6187(5) 0.0999(4) 0.9623(3)
H36 H 0.605(6) 0.156(2) 0.949(2)
O17 O 0.6719(4) 0.1460(3) 0.8349(3)
O18 O 0.7149(4) 0.1620(3) 0.7210(2)
O19 O 0.8447(4) 0.1213(4) 0.5912(2)
O20 O 0.8448(3) 0.0197(3) 0.9642(2)
O21 O 0.6583(3) 0.0118(3) 0.5799(2)
C21 C 0.5633(5) 0.7739(5) 0.0169(4)
C25 C 0.4798(6) 0.6330(5) 0.0605(4)
H31 H 0.4665 0.5916 0.0976
C26 C 0.5425(6) 0.7112(5) 0.0713(4)
H32 H 0.5710 0.7217 0.1158
C27 C 0.6308(6) 0.8587(5) 0.0289(4)
O9 O 0.6553(4) 0.8787(4) 0.0912(2)
O11 O 0.3448(3) 0.4803(3) 0.0358(2)
Dy4 Dy 0.21270(2) 0.49925(2) 0.114672(14)
Dy7 Dy 0.72788(2) 0.979327(19) 0.171434(14)
C11 C 0.4474(5) 0.9330(5) 0.7367(4)
C12 C 0.3601(6) 0.9314(6) 0.7915(5)
H15 H 0.3880 0.9170 0.8379
H16 H 0.3270 0.9930 0.7937
C13 C 0.2855(7) 0.8601(6) 0.7715(5)
H17 H 0.2224 0.8901 0.7551
H18 H 0.2689 0.8205 0.8119
C14 C 0.3325(6) 0.8002(5) 0.7127(4)
H19 H 0.2995 0.8203 0.6685
C15 C 0.4482(5) 0.8285(5) 0.7073(4)
C16 C 0.5513(5) 0.9577(5) 0.7712(4)
C17 C 0.3136(5) 0.6943(5) 0.7198(4)
H21 H 0.3582 0.9923 0.6582
C19 C 0.5136(8) 0.7622(6) 0.7533(5)
H23 H 0.5130 0.6997 0.7333
H24 H 0.4854 0.7602 0.8002
H25 H 0.5833 0.7853 0.7551
C20 C 0.4906(7) 0.8195(7) 0.6320(4)
H26 H 0.4894 0.7542 0.6178
H27 H 0.5604 0.8426 0.6307
H28 H 0.4487 0.8562 0.6003
C22 C 0.5186(7) 0.7572(6) 0.9521(4)
H29 H 0.5311 0.7995 0.9153
C23 C 0.4558(7) 0.6799(6) 0.9397(4)
H30 H 0.4266 0.6703 0.8954
C24 C 0.4370(5) 0.6162(5) 0.9947(4)
C28 C 0.3696(4) 0.5311(5) 0.9818(3)
O5 O 0.6301(3) 0.9723(4) 0.7338(3)
O6 O 0.5543(4) 0.9612(4) 0.8369(3)
O7 O 0.3281(4) 0.6460(3) 0.6651(3)
O8 O 0.2851(4) 0.6620(3) 0.7790(2)
O10 O 0.6602(5) 0.9029(4) 0.9750(3)
O12 O 0.3417(3) 0.5118(3) 0.9201(2)
O13 O 0.7609(4) 0.8509(3) 0.8449(3)
H33 H 0.7625 0.8038 0.8724
H34 H 0.8053 0.8457 0.8122
Dy3 Dy 0.28730(2) 0.50075(2) 0.614672(14)
O15 O 0.8670(4) 0.8925(3) 0.6028(2)
O16 O 0.8013(4) 0.8591(3) 0.7051(3)
C11_2 C 0.0526(5) 0.0670(5) 0.2367(4)
C12_2 C 0.1399(6) 0.0686(6) 0.2915(5)
H15_2 H 0.1120 0.0830 0.3379
H16_2 H 0.1730 0.0070 0.2937
C13_2 C 0.2145(7) 0.1399(6) 0.2715(5)
H17_2 H 0.2776 0.1099 0.2551
H18_2 H 0.2311 0.1795 0.3119
C14_2 C 0.1675(6) 0.1998(5) 0.2127(4)
H19_2 H 0.2005 0.1797 0.1685
C15_2 C 0.0518(5) 0.1715(5) 0.2073(4)
C17_2 C 0.1864(5) 0.3057(5) 0.2198(4)
H21_2 H 0.1418 0.0077 0.1582
H24_2 H 0.0146 0.2398 0.3002
C20_2 C 0.0094(7) 0.1805(7) 0.1320(4)
H26_2 H 0.0106 0.2458 0.1178
H28_2 H 0.0513 0.1438 0.1003
C23_2 C 0.0442(7) 0.3201(6) 0.4397(4)
H30_2 H 0.0734 0.3297 0.3954
C24_2 C 0.0630(5) 0.3838(5) 0.4947(4)
C25_2 C 0.0202(6) 0.3670(5) 0.5605(4)
H31_2 H 0.0335 0.4084 0.5976
C28_2 C 0.1304(4) 0.4689(5) 0.4818(3)
O7_2 O 0.1719(4) 0.3540(3) 0.1651(3)
O8_2 O 0.2149(4) 0.3380(3) 0.2790(2)
O11_2 O 0.1552(3) 0.5197(3) 0.5358(2)
O12_2 O 0.1583(3) 0.4882(3) 0.4201(2)
Dy6 Dy 0.27212(2) 0.479327(19) 0.328566(14)
C16_2 C 0.9487(5) 0.0423(5) 0.2712(4)
C19_2 C 0.9864(8) 0.2378(6) 0.2533(5)
H23_2 H 0.9870 0.3003 0.2333
H25_2 H 0.9167 0.2147 0.2551
H27_2 H 0.9396 0.1574 0.1307
C21_2 C 0.9367(5) 0.2261(5) 0.5169(4)
C22_2 C 0.9814(7) 0.2428(6) 0.4521(4)
H29_2 H 0.9689 0.2005 0.4153
C26_2 C 0.9575(6) 0.2888(5) 0.5713(4)
H32_2 H 0.9290 0.2783 0.6158
C27_2 C 0.8692(6) 0.1413(5) 0.5289(4)
O5_2 O 0.8699(3) 0.0277(4) 0.2338(3)
O6_2 O 0.9457(4) 0.0388(4) 0.3369(3)
O10_2 O 0.8398(5) 0.0971(4) 0.4750(3)
O13_2 O 0.7391(4) 0.1491(3) 0.3449(3)
H33_2 H 0.7375 0.1962 0.3724
H34_2 H 0.6947 0.1543 0.3122
O15_2 O 0.6330(4) 0.1075(3) 0.1028(2)
O16_2 O 0.6987(4) 0.1409(3) 0.2051(3)
Dy1_2 Dy 0.78730(2) 0.99925(2) 0.385328(14)
C1_2 C 0.4886(5) 0.9036(4) 0.3275(4)
H1_2 H 0.5008 0.9309 0.3744
C2_2 C 0.3789(6) 0.9294(5) 0.3056(4)
H2_2 H 0.3780 0.9519 0.2571
H3_2 H 0.3521 0.9791 0.3358
C3_2 C 0.3123(6) 0.8388(5) 0.3128(4)
H4_2 H 0.2463 0.8530 0.3346
H5_2 H 0.3002 0.8101 0.2669
C4_2 C 0.3773(5) 0.7726(5) 0.3604(4)
C5_2 C 0.4908(5) 0.7924(5) 0.3354(4)
C6_2 C 0.5702(5) 0.9432(5) 0.2777(3)
C7_2 C 0.3470(5) 0.6680(4) 0.3506(3)
C8_2 C 0.3600(7) 0.7998(6) 0.4378(4)
H6_2 H 0.2897 0.7865 0.4507
H7_2 H 0.3736 0.8662 0.4439
H8_2 H 0.4058 0.7638 0.4673
C9_2 C 0.5125(8) 0.7441(6) 0.2637(5)
H9_2 H 0.5134 0.6766 0.2698
H10_2 H 0.5783 0.7648 0.2460
H11_2 H 0.4593 0.7610 0.2306
C10_2 C 0.5722(6) 0.7608(6) 0.3881(5)
H12_2 H 0.5717 0.6929 0.3915
H13_2 H 0.5573 0.7877 0.4336
H14_2 H 0.6390 0.7818 0.3725
O1_2 O 0.6586(3) 0.9676(3) 0.3030(2)
O2_2 O 0.5550(4) 0.9514(4) 0.2136(2)
O3_2 O 0.3670(4) 0.6075(3) 0.3972(2)
O4_2 O 0.3013(4) 0.6409(3) 0.2949(3)
O14_2 O 0.8813(5) 0.9001(4) 0.4623(3)
H35 H 0.865(7) 0.899(4) 0.5060(14)
H36_2 H 0.895(6) 0.844(2) 0.449(2)
O17_2 O 0.8281(4) 0.8540(3) 0.3349(3)
O18_2 O 0.7851(4) 0.8380(3) 0.2210(2)
O20_2 O 0.6552(3) 0.9803(3) 0.4642(2)
O21_2 O 0.8417(3) 0.9882(3) 0.0799(2)
H1_3 H 0.0008 0.5691 0.6256
C6_3 C 0.0702(5) 0.5568(5) 0.7223(3)
C9_3 C 0.0125(8) 0.7559(6) 0.7363(5)
H9_3 H 0.0134 0.8234 0.7302
H10_3 H 0.0783 0.7352 0.7540
C10_3 C 0.0722(6) 0.7392(6) 0.6119(5)
H12_3 H 0.0717 0.8071 0.6085
H13_3 H 0.0573 0.7123 0.5664
H14_3 H 0.1390 0.7182 0.6275
C11_3 C 0.5526(5) 0.4330(5) 0.7633(4)
C12_3 C 0.6399(6) 0.4314(6) 0.7085(5)
H15_3 H 0.6120 0.4170 0.6621
H16_3 H 0.6730 0.4930 0.7063
C13_3 C 0.7145(7) 0.3601(6) 0.7285(5)
H17_3 H 0.7776 0.3901 0.7449
H18_3 H 0.7311 0.3205 0.6881
C14_3 C 0.6675(6) 0.3002(5) 0.7873(4)
H19_3 H 0.7005 0.3203 0.8315
C15_3 C 0.5518(5) 0.3285(5) 0.7927(4)
C16_3 C 0.4487(5) 0.4577(5) 0.7288(4)
C17_3 C 0.6864(5) 0.1943(5) 0.7802(4)
C18_2 C 0.5757(6) 0.5058(6) 0.8211(5)
H20_2 H 0.5767 0.5681 0.8008
H21_3 H 0.6418 0.4923 0.8418
H22_2 H 0.5232 0.5026 0.8568
C19_3 C 0.4864(8) 0.2622(6) 0.7467(5)
H23_3 H 0.4870 0.1997 0.7667
H24_3 H 0.5146 0.2602 0.6998
H25_3 H 0.4167 0.2853 0.7449
C20_3 C 0.5094(7) 0.3195(7) 0.8680(4)
H26_3 H 0.5106 0.2542 0.8822
H27_3 H 0.4396 0.3426 0.8693
H28_3 H 0.5513 0.3562 0.8997
C21_3 C 0.4367(5) 0.2739(5) 0.4831(4)
C22_3 C 0.4814(7) 0.2572(6) 0.5479(4)
H29_3 H 0.4689 0.2995 0.5847
C23_3 C 0.5442(7) 0.1799(6) 0.5603(4)
H30_3 H 0.5734 0.1703 0.6046
C24_3 C 0.5630(5) 0.1162(5) 0.5053(4)
C25_3 C 0.5202(6) 0.1330(5) 0.4395(4)
H31_3 H 0.5335 0.0916 0.4024
C26_3 C 0.4575(6) 0.2112(5) 0.4287(4)
H32_3 H 0.4290 0.2217 0.3842
C27_3 C 0.3692(6) 0.3587(5) 0.4711(4)
C28_3 C 0.6304(4) 0.0311(5) 0.5182(3)
O1_3 O 0.1586(3) 0.5324(3) 0.6970(2)
O2_3 O 0.0550(4) 0.5486(4) 0.7864(2)
O5_3 O 0.3699(3) 0.4723(4) 0.7662(3)
O6_3 O 0.4457(4) 0.4612(4) 0.6631(3)
O9_2 O 0.3447(4) 0.3787(4) 0.4088(2)
O10_3 O 0.3398(5) 0.4029(4) 0.5250(3)
O13_3 O 0.2391(4) 0.3509(3) 0.6551(3)
H33_3 H 0.2375 0.3038 0.6276
H34_3 H 0.1947 0.3457 0.6878
O14_3 O 0.3813(5) 0.5999(4) 0.5377(3)
H35_2 H 0.365(7) 0.601(4) 0.4940(14)
H36_3 H 0.395(6) 0.656(2) 0.551(2)
O19_2 O 0.1553(4) 0.6213(4) 0.9088(2)
C1_3 C 0.9886(5) 0.5964(4) 0.6725(4)
C2_3 C 0.8789(6) 0.5706(5) 0.6944(4)
H2_3 H 0.8780 0.5481 0.7429
H3_3 H 0.8521 0.5209 0.6642
C3_3 C 0.8123(6) 0.6612(5) 0.6872(4)
H4_3 H 0.7463 0.6470 0.6654
H5_3 H 0.8002 0.6899 0.7331
C4_3 C 0.8773(5) 0.7274(5) 0.6396(4)
C5_3 C 0.9908(5) 0.7076(5) 0.6646(4)
C7_3 C 0.8470(5) 0.8320(4) 0.6494(3)
C8_3 C 0.8600(7) 0.7002(6) 0.5622(4)
H6_3 H 0.7897 0.7135 0.5493
H7_3 H 0.8736 0.6338 0.5561
H8_3 H 0.9058 0.7362 0.5327
H11_3 H 0.9593 0.7390 0.7694
C1_4 C 0.5114(5) 0.4036(4) 0.1725(4)
H1_4 H 0.4992 0.4309 0.1256
C2_4 C 0.6211(6) 0.4294(5) 0.1944(4)
H2_4 H 0.6220 0.4519 0.2429
H3_4 H 0.6479 0.4791 0.1642
C3_4 C 0.6877(6) 0.3388(5) 0.1872(4)
H4_4 H 0.7537 0.3530 0.1654
H5_4 H 0.6998 0.3101 0.2331
C4_4 C 0.6227(5) 0.2726(5) 0.1396(4)
C5_4 C 0.5092(5) 0.2924(5) 0.1646(4)
C6_4 C 0.4298(5) 0.4432(5) 0.2223(3)
C7_4 C 0.6530(5) 0.1680(4) 0.1494(3)
C8_4 C 0.6400(7) 0.2998(6) 0.0622(4)
H6_4 H 0.7103 0.2865 0.0493
H7_4 H 0.6264 0.3662 0.0561
H8_4 H 0.5942 0.2638 0.0327
C9_4 C 0.4875(8) 0.2441(6) 0.2363(5)
H9_4 H 0.4866 0.1766 0.2302
H10_4 H 0.4217 0.2648 0.2540
H11_4 H 0.5407 0.2610 0.2694
C10_4 C 0.4278(6) 0.2608(6) 0.1119(5)
H12_4 H 0.4283 0.1929 0.1085
H13_4 H 0.4427 0.2877 0.0664
H14_4 H 0.3610 0.2818 0.1275
C16_4 C 0.0513(5) 0.5423(5) 0.2288(4)
C19_4 C 0.0136(8) 0.7378(6) 0.2467(5)
H23_4 H 0.0130 0.8003 0.2667
H25_4 H 0.0833 0.7147 0.2449
H27_4 H 0.0604 0.6574 0.3693
C22_4 C 0.0186(7) 0.7428(6) 0.0479(4)
H29_4 H 0.0311 0.7005 0.0847
O1_4 O 0.3414(3) 0.4676(3) 0.1970(2)
O2_4 O 0.4450(4) 0.4514(4) 0.2864(2)
O5_4 O 0.1301(3) 0.5277(4) 0.2662(3)
O6_4 O 0.0543(4) 0.5388(4) 0.1631(3)
O10_4 O 0.1602(5) 0.5971(4) 0.0250(3)
O13_4 O 0.2609(4) 0.6491(3) 0.1551(3)
H33_4 H 0.2625 0.6962 0.1276
H34_4 H 0.3053 0.6543 0.1878
O14_4 O 0.1187(5) 0.4001(4) 0.0377(3)
H36_4 H 0.105(6) 0.344(2) 0.051(2)
C21_4 C 0.0633(5) 0.7261(5) 0.9831(4)
C26_4 C 0.0425(6) 0.7888(5) 0.9287(4)
H32_4 H 0.0710 0.7783 0.8842
C27_4 C 0.1308(6) 0.6413(5) 0.9711(4)
H35_3 H 0.135(7) 0.399(4) 0.9940(14)
C11_4 C 0.9474(5) 0.5670(5) 0.2633(4)
C12_4 C 0.8601(6) 0.5686(6) 0.2085(5)
H15_4 H 0.8880 0.5830 0.1621
H16_4 H 0.8270 0.5070 0.2063
C13_4 C 0.7855(7) 0.6399(6) 0.2285(5)
H17_4 H 0.7224 0.6099 0.2449
H18_4 H 0.7689 0.6795 0.1881
C14_4 C 0.8325(6) 0.6998(5) 0.2873(4)
H19_4 H 0.7995 0.6797 0.3315
C15_4 C 0.9482(5) 0.6715(5) 0.2927(4)
C17_4 C 0.8136(5) 0.8057(5) 0.2802(4)
C18_3 C 0.9243(6) 0.4942(6) 0.3211(5)
H20_3 H 0.9233 0.4319 0.3008
H21_4 H 0.8582 0.5077 0.3418
H22_3 H 0.9768 0.4974 0.3568
H24_4 H 0.9854 0.7398 0.1998
C20_4 C 0.9906(7) 0.6805(7) 0.3680(4)
H26_4 H 0.9894 0.7458 0.3822
H28_4 H 0.9487 0.6438 0.3997
C23_4 C 0.9558(7) 0.8201(6) 0.0603(4)
H30_4 H 0.9266 0.8297 0.1046
C24_4 C 0.9370(5) 0.8838(5) 0.0053(4)
C28_4 C 0.8696(4) 0.9689(5) 0.0182(3)
H35_4 H 0.635(7) 0.101(4) 0.0060(14)
C18_4 C 0.0757(6) 0.9942(6) 0.1789(5)
H20_4 H 0.0767 0.9319 0.1992
H22_4 H 0.0232 0.9974 0.1432
C25_4 C 0.9798(6) 0.8670(5) 0.9395(4)
H31_4 H 0.9665 0.9084 0.9024
loop_
_geom_bond_atom_site_label_1
_geom_bond_atom_site_label_2
_geom_bond_site_symmetry_1
_geom_bond_site_symmetry_2
C2 C1 1_555 1_555
H2 C2 1_555 1_555
H3 C2 1_555 1_555
C3 C2 1_555 1_555
H4 C3 1_555 1_555
H5 C3 1_555 1_555
C4 C3 1_555 1_555
C5 C1 1_555 1_555
C7 C4 1_555 1_555
C8 C4 1_555 1_555
H6 C8 1_555 1_555
H7 C8 1_555 1_555
H8 C8 1_555 1_555
O3 C7 1_555 1_555
O4 C7 1_555 1_555
Dy5 O3 1_555 1_555
C4 C5 1_555 1_555
O4 Dy5 1_555 1_555
Dy1 O1 1_555 1_555
Dy2 O1 1_555 1_555
H9 C9 1_555 1_555
H10 C9 1_555 1_555
H12 C10 1_555 1_555
H13 C10 1_555 1_555
H14 C10 1_555 1_555
H20 C18 1_555 1_555
H22 C18 1_555 1_555
O1 C6 1_555 1_555
O2 Dy2 1_555 1_555
O14 Dy1 1_555 1_555
H36 O14 1_555 1_555
O17 Dy1 1_555 1_555
O18 Dy2 1_555 1_555
O19 Dy2 1_555 1_555
O20 Dy1 1_555 1_555
O21 Dy2 1_555 1_555
C6 O2 1_555 1_555
H31 C25 1_555 1_555
C26 C21 1_555 1_555
H32 C26 1_555 1_555
C27 C21 1_555 1_555
O9 C27 1_555 1_555
Dy4 O11 1_555 1_555
Dy7 O9 1_555 1_555
C25 C26 1_555 1_555
C11 C12 1_555 1_555
C12 H15 1_555 1_555
H16 C12 1_555 1_555
C13 C12 1_555 1_555
H17 C13 1_555 1_555
H18 C13 1_555 1_555
C14 C13 1_555 1_555
H19 C14 1_555 1_555
C15 C11 1_555 1_555
C16 C11 1_555 1_555
C17 C14 1_555 1_555
C19 C15 1_555 1_555
H23 C19 1_555 1_555
H24 C19 1_555 1_555
H25 C19 1_555 1_555
C20 C15 1_555 1_555
H26 C20 1_555 1_555
H27 C20 1_555 1_555
H28 C20 1_555 1_555
C22 H29 1_555 1_555
C23 C22 1_555 1_555
H30 C23 1_555 1_555
C24 C23 1_555 1_555
C28 C24 1_555 1_555
O7 C17 1_555 1_555
O8 C17 1_555 1_555
O12 C28 1_555 1_555
H33 O13 1_555 1_555
H34 O13 1_555 1_555
Dy3 O7 1_555 1_555
Dy5 O8 1_555 1_555
C14 C15 1_555 1_555
C16 O5 1_555 1_555
C16 O6 1_555 1_555
O12 Dy5 1_555 1_555
C11_2 C12_2 1_555 1_555
C12_2 H15_2 1_555 1_555
H16_2 C12_2 1_555 1_555
C13_2 C12_2 1_555 1_555
H17_2 C13_2 1_555 1_555
H18_2 C13_2 1_555 1_555
C14_2 C13_2 1_555 1_555
H19_2 C14_2 1_555 1_555
C15_2 C11_2 1_555 1_555
C17_2 C14_2 1_555 1_555
C20_2 C15_2 1_555 1_555
H26_2 C20_2 1_555 1_555
H28_2 C20_2 1_555 1_555
H30_2 C23_2 1_555 1_555
C24_2 C23_2 1_555 1_555
C25_2 C24_2 1_555 1_555
H31_2 C25_2 1_555 1_555
C28_2 C24_2 1_555 1_555
O7_2 C17_2 1_555 1_555
O8_2 C17_2 1_555 1_555
O11_2 C28_2 1_555 1_555
O12_2 C28_2 1_555 1_555
Dy4 O7_2 1_555 1_555
Dy3 O11_2 1_555 1_555
Dy6 O8_2 1_555 1_555
C14_2 C15_2 1_555 1_555
O12_2 Dy6 1_555 1_555
H23_2 C19_2 1_555 1_555
H25_2 C19_2 1_555 1_555
C21_2 C22_2 1_555 1_555
C22_2 H29_2 1_555 1_555
C26_2 C21_2 1_555 1_555
H32_2 C26_2 1_555 1_555
C27_2 C21_2 1_555 1_555
O19 C27_2 1_555 1_555
H33_2 O13_2 1_555 1_555
H34_2 O13_2 1_555 1_555
C16_2 O5_2 1_555 1_555
C16_2 O6_2 1_555 1_555
C27_2 O10_2 1_555 1_555
Dy1_2 O1_2 1_555 1_555
Dy7 O1_2 1_555 1_555
C1_2 H1_2 1_555 1_555
C2_2 C1_2 1_555 1_555
H2_2 C2_2 1_555 1_555
H3_2 C2_2 1_555 1_555
C3_2 C2_2 1_555 1_555
H4_2 C3_2 1_555 1_555
H5_2 C3_2 1_555 1_555
C4_2 C3_2 1_555 1_555
C5_2 C1_2 1_555 1_555
C6_2 C1_2 1_555 1_555
C7_2 C4_2 1_555 1_555
C8_2 C4_2 1_555 1_555
H6_2 C8_2 1_555 1_555
H7_2 C8_2 1_555 1_555
H8_2 C8_2 1_555 1_555
C9_2 C5_2 1_555 1_555
H9_2 C9_2 1_555 1_555
H10_2 C9_2 1_555 1_555
H11_2 C9_2 1_555 1_555
C10_2 C5_2 1_555 1_555
H12_2 C10_2 1_555 1_555
H13_2 C10_2 1_555 1_555
H14_2 C10_2 1_555 1_555
O1_2 C6_2 1_555 1_555
O2_2 Dy7 1_555 1_555
O3_2 C7_2 1_555 1_555
O4_2 C7_2 1_555 1_555
O14_2 Dy1_2 1_555 1_555
H35 O14_2 1_555 1_555
H36_2 O14_2 1_555 1_555
Dy6 O3_2 1_555 1_555
O17_2 Dy1_2 1_555 1_555
O18_2 Dy7 1_555 1_555
O20_2 Dy1_2 1_555 1_555
O21_2 Dy7 1_555 1_555
C4_2 C5_2 1_555 1_555
C6_2 O2_2 1_555 1_555
O4_2 Dy6 1_555 1_555
Dy3 O1_3 1_555 1_555
Dy5 O1_3 1_555 1_555
H9_3 C9_3 1_555 1_555
H10_3 C9_3 1_555 1_555
H12_3 C10_3 1_555 1_555
H13_3 C10_3 1_555 1_555
H14_3 C10_3 1_555 1_555
C11_3 C12_3 1_555 1_555
C12_3 H15_3 1_555 1_555
H16_3 C12_3 1_555 1_555
C13_3 C12_3 1_555 1_555
H17_3 C13_3 1_555 1_555
H18_3 C13_3 1_555 1_555
C14_3 C13_3 1_555 1_555
H19_3 C14_3 1_555 1_555
C15_3 C11_3 1_555 1_555
C16_3 C11_3 1_555 1_555
C17_3 C14_3 1_555 1_555
C18_2 C11_3 1_555 1_555
H20_2 C18_2 1_555 1_555
H21_3 C18_2 1_555 1_555
H22_2 C18_2 1_555 1_555
C19_3 C15_3 1_555 1_555
H23_3 C19_3 1_555 1_555
H24_3 C19_3 1_555 1_555
H25_3 C19_3 1_555 1_555
C20_3 C15_3 1_555 1_555
H26_3 C20_3 1_555 1_555
H27_3 C20_3 1_555 1_555
H28_3 C20_3 1_555 1_555
C21_3 C22_3 1_555 1_555
C22_3 H29_3 1_555 1_555
C23_3 C22_3 1_555 1_555
H30_3 C23_3 1_555 1_555
C24_3 C23_3 1_555 1_555
C25_3 C24_3 1_555 1_555
H31_3 C25_3 1_555 1_555
C26_3 C21_3 1_555 1_555
H32_3 C26_3 1_555 1_555
C27_3 C21_3 1_555 1_555
C28_3 C24_3 1_555 1_555
O1_3 C6_3 1_555 1_555
O2_3 Dy5 1_555 1_555
O5_3 Dy5 1_555 1_555
O6_3 Dy3 1_555 1_555
O17 C17_3 1_555 1_555
O18 C17_3 1_555 1_555
O9_2 C27_3 1_555 1_555
O10_3 Dy3 1_555 1_555
O21 C28_3 1_555 1_555
O13_3 Dy3 1_555 1_555
H33_3 O13_3 1_555 1_555
H34_3 O13_3 1_555 1_555
O14_3 Dy3 1_555 1_555
H35_2 O14_3 1_555 1_555
H36_3 O14_3 1_555 1_555
Dy6 O9_2 1_555 1_555
O19_2 Dy5 1_555 1_555
C6_3 O2_3 1_555 1_555
C14_3 C15_3 1_555 1_555
C16_3 O5_3 1_555 1_555
C16_3 O6_3 1_555 1_555
C25_3 C26_3 1_555 1_555
C27_3 O10_3 1_555 1_555
C2_3 C1_3 1_555 1_555
H2_3 C2_3 1_555 1_555
H3_3 C2_3 1_555 1_555
C3_3 C2_3 1_555 1_555
H4_3 C3_3 1_555 1_555
H5_3 C3_3 1_555 1_555
C4_3 C3_3 1_555 1_555
C5_3 C1_3 1_555 1_555
C7_3 C4_3 1_555 1_555
C8_3 C4_3 1_555 1_555
H6_3 C8_3 1_555 1_555
H7_3 C8_3 1_555 1_555
H8_3 C8_3 1_555 1_555
O15 C7_3 1_555 1_555
O16 C7_3 1_555 1_555
C4_3 C5_3 1_555 1_555
Dy4 O1_4 1_555 1_555
Dy6 O1_4 1_555 1_555
C1_4 H1_4 1_555 1_555
C2_4 C1_4 1_555 1_555
H2_4 C2_4 1_555 1_555
H3_4 C2_4 1_555 1_555
C3_4 C2_4 1_555 1_555
H4_4 C3_4 1_555 1_555
H5_4 C3_4 1_555 1_555
C4_4 C3_4 1_555 1_555
C5_4 C1_4 1_555 1_555
C6_4 C1_4 1_555 1_555
C7_4 C4_4 1_555 1_555
C8_4 C4_4 1_555 1_555
H6_4 C8_4 1_555 1_555
H7_4 C8_4 1_555 1_555
H8_4 C8_4 1_555 1_555
C9_4 C5_4 1_555 1_555
H9_4 C9_4 1_555 1_555
H10_4 C9_4 1_555 1_555
H11_4 C9_4 1_555 1_555
C10_4 C5_4 1_555 1_555
H12_4 C10_4 1_555 1_555
H13_4 C10_4 1_555 1_555
H14_4 C10_4 1_555 1_555
H23_4 C19_4 1_555 1_555
H25_4 C19_4 1_555 1_555
C22_4 H29_4 1_555 1_555
O1_4 C6_4 1_555 1_555
O2_4 Dy6 1_555 1_555
O15_2 C7_4 1_555 1_555
O16_2 C7_4 1_555 1_555
O5_4 Dy6 1_555 1_555
O6_4 Dy4 1_555 1_555
O10_4 Dy4 1_555 1_555
O13_4 Dy4 1_555 1_555
H33_4 O13_4 1_555 1_555
H34_4 O13_4 1_555 1_555
O14_4 Dy4 1_555 1_555
H36_4 O14_4 1_555 1_555
C4_4 C5_4 1_555 1_555
C6_4 O2_4 1_555 1_555
C16_4 O5_4 1_555 1_555
C16_4 O6_4 1_555 1_555
C26_4 C21_4 1_555 1_555
H32_4 C26_4 1_555 1_555
C27_4 C21_4 1_555 1_555
O19_2 C27_4 1_555 1_555
C11_4 C12_4 1_555 1_555
C12_4 H15_4 1_555 1_555
H16_4 C12_4 1_555 1_555
C13_4 C12_4 1_555 1_555
H17_4 C13_4 1_555 1_555
H18_4 C13_4 1_555 1_555
C14_4 C13_4 1_555 1_555
H19_4 C14_4 1_555 1_555
C15_4 C11_4 1_555 1_555
C17_4 C14_4 1_555 1_555
C18_3 C11_4 1_555 1_555
H20_3 C18_3 1_555 1_555
H21_4 C18_3 1_555 1_555
H22_3 C18_3 1_555 1_555
C20_4 C15_4 1_555 1_555
H26_4 C20_4 1_555 1_555
H28_4 C20_4 1_555 1_555
H30_4 C23_4 1_555 1_555
C24_4 C23_4 1_555 1_555
C28_4 C24_4 1_555 1_555
O17_2 C17_4 1_555 1_555
O18_2 C17_4 1_555 1_555
O21_2 C28_4 1_555 1_555
C14_4 C15_4 1_555 1_555
H20_4 C18_4 1_555 1_555
H22_4 C18_4 1_555 1_555
H31_4 C25_4 1_555 1_555

#END
