
###############################################################################
#
# This file contains modified crystal structure data generated from the
# MOF subset of the Cambridge Structural Database (CSD) v543 
# hosted by the Cambridge Crystallographic Data Centre (CCDC).
#
# This work is licensed under the Creative Commons
# Attribution-NonCommercial-ShareAlike 4.0 International License.
# To view a copy of this license, visit
# http://creativecommons.org/licenses/by-nc-sa/4.0/
# or send a letter to
# Creative Commons, PO Box 1866, Mountain View, CA 94042, USA.
#
# CIF created using the CSD Python API on 29 September 2022
# The structure has been converted into the P1 space group
# The structure has a 3D framework
# The original CSD entry EXAXAE is in the tetragonal crystal system
# The framework has been calculated to contain at least 10.0% void space
# The void calculation uses a probe of radius 1.32A, grid spacing 0.4
# H atom positions have been added when not included in the experimental data
# Generated hydrogen atom positions removed from atoms on special positions
#
###############################################################################

data_EXAXAE
_chemical_formula_moiety         '(C56 H56 Cu16 I4 N8 O24)n'
_symmetry_cell_setting           triclinic
_symmetry_space_group_name_H-M   'P 1'
_symmetry_Int_Tables_number      1
_space_group_name_Hall           'P 1'
loop_
_symmetry_equiv_pos_site_id
_symmetry_equiv_pos_as_xyz
1 x,y,z
_cell_length_a                   19.1501(17)
_cell_length_b                   19.1501(17)
_cell_length_c                   11.1190(12)
_cell_angle_alpha                90
_cell_angle_beta                 90
_cell_angle_gamma                90
_cell_volume                     4077.63
loop_
_atom_site_label
_atom_site_type_symbol
_atom_site_fract_x
_atom_site_fract_y
_atom_site_fract_z
C1 C 0.5792(2) 0.3092(2) 0.2423(4)
H1 H 0.5941 0.3511 0.2759
C2 C 0.5343(2) 0.3119(2) 0.1458(3)
C3 C 0.5117(3) 0.2500 0.0958(5)
H2 H 0.4819 0.2500 0.0297
C4 C 0.5159(2) 0.3816(2) 0.0921(3)
Cu1 Cu 0.5309 0.5309 0.0934(1)
Cu2 Cu 0.6808(1) 0.2500 0.4144(1)
I1 I 0.6292 0.2500 0.6343
N1 N 0.6024(3) 0.2500 0.2903(5)
O2 O 0.5364(2) 0.4340(1) 0.1498(2)
O3 O 0.5735(2) 0.5735(2) 0.2543(4)
C5 C 0.5792(2) 0.1908(2) 0.2423(4)
H3 H 0.5941 0.1489 0.2759
C6 C 0.5343(2) 0.1881(2) 0.1458(3)
C7 C 0.5159(2) 0.1184(2) 0.0921(3)
O5 O 0.5364(2) 0.0660(1) 0.1498(2)
Cu6 Cu 0.7500 0.1808(1) 0.5856(1)
Cu7 Cu 0.7500 0.3192(1) 0.5856(1)
I2 I 0.7500 0.1292 0.3657
I3 I 0.7500 0.3708 0.3657
O6 O 0.6185(1) 0.5162(2) 0.0057(3)
O7 O 0.5162(2) 0.6185(1) 0.0057(3)
O8 O 0.4340(1) 0.5364(2) 0.1498(2)
O1 O 0.4838(2) 0.3815(1) 0.9943(3)
O4 O 0.4838(2) 0.1185(1) 0.9943(3)
Cu4 Cu 0.4691 0.0309 0.9066(1)
Cu5 Cu 0.4691 0.4691 0.9066(1)
Cu3 Cu 0.5309 0.9691 0.0934(1)
C1_2 C 0.1908(2) 0.5792(2) 0.2423(4)
H1_2 H 0.1489 0.5941 0.2759
C2_2 C 0.1881(2) 0.5343(2) 0.1458(3)
C3_2 C 0.2500 0.5117(3) 0.0958(5)
H2_2 H 0.2500 0.4819 0.0297
C4_2 C 0.1184(2) 0.5159(2) 0.0921(3)
Cu2_2 Cu 0.2500 0.6808(1) 0.4144(1)
I1_2 I 0.2500 0.6292 0.6343
N1_2 N 0.2500 0.6024(3) 0.2903(5)
O2_2 O 0.0660(1) 0.5364(2) 0.1498(2)
C5_2 C 0.3092(2) 0.5792(2) 0.2423(4)
H3_2 H 0.3511 0.5941 0.2759
C6_2 C 0.3119(2) 0.5343(2) 0.1458(3)
C7_2 C 0.3816(2) 0.5159(2) 0.0921(3)
Cu6_2 Cu 0.3192(1) 0.7500 0.5856(1)
Cu7_2 Cu 0.1808(1) 0.7500 0.5856(1)
I2_2 I 0.3708 0.7500 0.3657
I3_2 I 0.1292 0.7500 0.3657
O1_2 O 0.1185(1) 0.4838(2) 0.9943(3)
O4_2 O 0.3815(1) 0.4838(2) 0.9943(3)
Cu5_2 Cu 0.0309 0.4691 0.9066(1)
Cu1_2 Cu 0.9691 0.5309 0.0934(1)
O3_2 O 0.9265(2) 0.5735(2) 0.2543(4)
O6_2 O 0.9838(2) 0.6185(1) 0.0057(3)
O7_2 O 0.8815(1) 0.5162(2) 0.0057(3)
O8_2 O 0.9636(2) 0.4340(1) 0.1498(2)
H2_3 H 0.0181 0.2500 0.0297
O1_3 O 0.0162(2) 0.1185(1) 0.9943(3)
O4_3 O 0.0162(2) 0.3815(1) 0.9943(3)
Cu5_3 Cu 0.0309 0.0309 0.9066(1)
O8_3 O 0.0660(1) 0.9636(2) 0.1498(2)
C1_3 C 0.9208(2) 0.1908(2) 0.2423(4)
H1_3 H 0.9059 0.1489 0.2759
C2_3 C 0.9657(2) 0.1881(2) 0.1458(3)
C3_3 C 0.9883(3) 0.2500 0.0958(5)
C4_3 C 0.9841(2) 0.1184(2) 0.0921(3)
Cu2_3 Cu 0.8192(1) 0.2500 0.4144(1)
I1_3 I 0.8708 0.2500 0.6343
N1_3 N 0.8976(3) 0.2500 0.2903(5)
O2_3 O 0.9636(2) 0.0660(1) 0.1498(2)
C5_3 C 0.9208(2) 0.3092(2) 0.2423(4)
H3_3 H 0.9059 0.3511 0.2759
C6_3 C 0.9657(2) 0.3119(2) 0.1458(3)
C7_3 C 0.9841(2) 0.3816(2) 0.0921(3)
Cu1_3 Cu 0.9691 0.9691 0.0934(1)
O3_3 O 0.9265(2) 0.9265(2) 0.2543(4)
O6_3 O 0.8815(1) 0.9838(2) 0.0057(3)
O7_3 O 0.9838(2) 0.8815(1) 0.0057(3)
H2_4 H 0.2500 0.0181 0.0297
O1_4 O 0.3815(1) 0.0162(2) 0.9943(3)
O4_4 O 0.1185(1) 0.0162(2) 0.9943(3)
C1_4 C 0.3092(2) 0.9208(2) 0.2423(4)
H1_4 H 0.3511 0.9059 0.2759
C2_4 C 0.3119(2) 0.9657(2) 0.1458(3)
C3_4 C 0.2500 0.9883(3) 0.0958(5)
C4_4 C 0.3816(2) 0.9841(2) 0.0921(3)
Cu2_4 Cu 0.2500 0.8192(1) 0.4144(1)
I1_4 I 0.2500 0.8708 0.6343
N1_4 N 0.2500 0.8976(3) 0.2903(5)
O2_4 O 0.4340(1) 0.9636(2) 0.1498(2)
O3_4 O 0.5735(2) 0.9265(2) 0.2543(4)
C5_4 C 0.1908(2) 0.9208(2) 0.2423(4)
H3_4 H 0.1489 0.9059 0.2759
C6_4 C 0.1881(2) 0.9657(2) 0.1458(3)
C7_4 C 0.1184(2) 0.9841(2) 0.0921(3)
O6_4 O 0.5162(2) 0.8815(1) 0.0057(3)
O7_4 O 0.6185(1) 0.9838(2) 0.0057(3)
C1_5 C 0.0792(2) 0.6908(2) 0.7577(4)
H1_5 H 0.0941 0.6489 0.7241
C2_5 C 0.0343(2) 0.6881(2) 0.8542(3)
C3_5 C 0.0117(3) 0.7500 0.9042(5)
C4_5 C 0.0159(2) 0.6184(2) 0.9079(3)
N1_5 N 0.1024(3) 0.7500 0.7097(5)
O2_5 O 0.0364(2) 0.5660(1) 0.8502(2)
O3_5 O 0.0735(2) 0.4265(2) 0.7457(4)
C5_5 C 0.0792(2) 0.8092(2) 0.7577(4)
H3_5 H 0.0941 0.8511 0.7241
C6_5 C 0.0343(2) 0.8119(2) 0.8542(3)
C7_5 C 0.0159(2) 0.8816(2) 0.9079(3)
O5_2 O 0.0364(2) 0.9340(1) 0.8502(2)
H2_5 H 0.9819 0.7500 0.9703
O8_4 O 0.9340(1) 0.4636(2) 0.8502(2)
O3_6 O 0.4265(2) 0.0735(2) 0.7457(4)
O8_5 O 0.5660(1) 0.0364(2) 0.8502(2)
C1_6 C 0.4208(2) 0.8092(2) 0.7577(4)
H1_6 H 0.4059 0.8511 0.7241
C2_6 C 0.4657(2) 0.8119(2) 0.8542(3)
C3_6 C 0.4883(3) 0.7500 0.9042(5)
H2_6 H 0.5181 0.7500 0.9703
C4_6 C 0.4841(2) 0.8816(2) 0.9079(3)
N1_6 N 0.3976(3) 0.7500 0.7097(5)
O2_6 O 0.4636(2) 0.9340(1) 0.8502(2)
C5_6 C 0.4208(2) 0.6908(2) 0.7577(4)
H3_6 H 0.4059 0.6489 0.7241
C6_6 C 0.4657(2) 0.6881(2) 0.8542(3)
C7_6 C 0.4841(2) 0.6184(2) 0.9079(3)
O5_3 O 0.4636(2) 0.5660(1) 0.8502(2)
O3_7 O 0.0735(2) 0.0735(2) 0.7457(4)
C1_7 C 0.8092(2) 0.0792(2) 0.7577(4)
H1_7 H 0.8511 0.0941 0.7241
C2_7 C 0.8119(2) 0.0343(2) 0.8542(3)
C3_7 C 0.7500 0.0117(3) 0.9042(5)
C4_7 C 0.8816(2) 0.0159(2) 0.9079(3)
N1_7 N 0.7500 0.1024(3) 0.7097(5)
O2_7 O 0.9340(1) 0.0364(2) 0.8502(2)
C5_7 C 0.6908(2) 0.0792(2) 0.7577(4)
H3_7 H 0.6489 0.0941 0.7241
C6_7 C 0.6881(2) 0.0343(2) 0.8542(3)
C7_7 C 0.6184(2) 0.0159(2) 0.9079(3)
H2_7 H 0.7500 0.9819 0.9703
C1_8 C 0.6908(2) 0.4208(2) 0.7577(4)
H1_8 H 0.6489 0.4059 0.7241
C2_8 C 0.6881(2) 0.4657(2) 0.8542(3)
C3_8 C 0.7500 0.4883(3) 0.9042(5)
H2_8 H 0.7500 0.5181 0.9703
C4_8 C 0.6184(2) 0.4841(2) 0.9079(3)
N1_8 N 0.7500 0.3976(3) 0.7097(5)
O2_8 O 0.5660(1) 0.4636(2) 0.8502(2)
O3_8 O 0.4265(2) 0.4265(2) 0.7457(4)
C5_8 C 0.8092(2) 0.4208(2) 0.7577(4)
H3_8 H 0.8511 0.4059 0.7241
C6_8 C 0.8119(2) 0.4657(2) 0.8542(3)
C7_8 C 0.8816(2) 0.4841(2) 0.9079(3)
loop_
_geom_bond_atom_site_label_1
_geom_bond_atom_site_label_2
_geom_bond_site_symmetry_1
_geom_bond_site_symmetry_2
C1 H1 1_555 1_555
C2 C1 1_555 1_555
C3 C2 1_555 1_555
H2 C3 1_555 1_555
C4 C2 1_555 1_555
Cu1 O2 1_555 1_555
Cu2 I1 1_555 1_555
I1 Cu6 1_555 1_555
N1 C1 1_555 1_555
O2 C4 1_555 1_555
O3 Cu1 1_555 1_555
C5 N1 1_555 1_555
H3 C5 1_555 1_555
C6 C3 1_555 1_555
C7 C6 1_555 1_555
O5 C7 1_555 1_555
Cu6 I2 1_555 1_555
Cu7 I1 1_555 1_555
I2 Cu2 1_555 1_555
I3 Cu2 1_555 1_555
O6 Cu1 1_555 1_555
O7 Cu1 1_555 1_555
O8 Cu1 1_555 1_555
Cu2 N1 1_555 1_555
C5 C6 1_555 1_555
Cu7 I3 1_555 1_555
Cu4 O4 1_555 1_555
Cu5 O1 1_555 1_555
C1_2 H1_2 1_555 1_555
C2_2 C1_2 1_555 1_555
C3_2 C2_2 1_555 1_555
H2_2 C3_2 1_555 1_555
C4_2 C2_2 1_555 1_555
Cu2_2 I1_2 1_555 1_555
I1_2 Cu6_2 1_555 1_555
N1_2 C1_2 1_555 1_555
O2_2 C4_2 1_555 1_555
C5_2 N1_2 1_555 1_555
H3_2 C5_2 1_555 1_555
C6_2 C3_2 1_555 1_555
C7_2 C6_2 1_555 1_555
O8 C7_2 1_555 1_555
Cu6_2 I2_2 1_555 1_555
Cu7_2 I1_2 1_555 1_555
I2_2 Cu2_2 1_555 1_555
I3_2 Cu2_2 1_555 1_555
Cu2_2 N1_2 1_555 1_555
C5_2 C6_2 1_555 1_555
Cu7_2 I3_2 1_555 1_555
Cu5 O4_2 1_555 1_555
Cu5_2 O1_2 1_555 1_555
O3_2 Cu1_2 1_555 1_555
O6_2 Cu1_2 1_555 1_555
O7_2 Cu1_2 1_555 1_555
O8_2 Cu1_2 1_555 1_555
Cu5_2 O4_3 1_555 1_555
Cu5_3 O1_3 1_555 1_555
C1_3 H1_3 1_555 1_555
C2_3 C1_3 1_555 1_555
C3_3 C2_3 1_555 1_555
C4_3 C2_3 1_555 1_555
Cu2_3 I1_3 1_555 1_555
I1_3 Cu7 1_555 1_555
N1_3 C1_3 1_555 1_555
O2_3 C4_3 1_555 1_555
C5_3 N1_3 1_555 1_555
H3_3 C5_3 1_555 1_555
C6_3 C3_3 1_555 1_555
C7_3 C6_3 1_555 1_555
O8_2 C7_3 1_555 1_555
Cu6 I1_3 1_555 1_555
I3 Cu2_3 1_555 1_555
I2 Cu2_3 1_555 1_555
Cu2_3 N1_3 1_555 1_555
C5_3 C6_3 1_555 1_555
O3_3 Cu1_3 1_555 1_555
O6_3 Cu1_3 1_555 1_555
O7_3 Cu1_3 1_555 1_555
Cu5_3 O4_4 1_555 1_555
Cu4 O1_4 1_555 1_555
C1_4 H1_4 1_555 1_555
C2_4 C1_4 1_555 1_555
C3_4 C2_4 1_555 1_555
C4_4 C2_4 1_555 1_555
Cu3 O2_4 1_555 1_555
Cu2_4 I1_4 1_555 1_555
I1_4 Cu7_2 1_555 1_555
N1_4 C1_4 1_555 1_555
O2_4 C4_4 1_555 1_555
O3_4 Cu3 1_555 1_555
C5_4 N1_4 1_555 1_555
H3_4 C5_4 1_555 1_555
C6_4 C3_4 1_555 1_555
C7_4 C6_4 1_555 1_555
O8_3 C7_4 1_555 1_555
Cu6_2 I1_4 1_555 1_555
I3_2 Cu2_4 1_555 1_555
I2_2 Cu2_4 1_555 1_555
O6_4 Cu3 1_555 1_555
O7_4 Cu3 1_555 1_555
Cu2_4 N1_4 1_555 1_555
C5_4 C6_4 1_555 1_555
C1_5 H1_5 1_555 1_555
C2_5 C1_5 1_555 1_555
C3_5 C2_5 1_555 1_555
C4_5 C2_5 1_555 1_555
Cu5_2 O2_5 1_555 1_555
N1_5 C1_5 1_555 1_555
O2_5 C4_5 1_555 1_555
O3_5 Cu5_2 1_555 1_555
C5_5 N1_5 1_555 1_555
H3_5 C5_5 1_555 1_555
C6_5 C3_5 1_555 1_555
C7_5 C6_5 1_555 1_555
O5_2 C7_5 1_555 1_555
Cu7_2 N1_5 1_555 1_555
C5_5 C6_5 1_555 1_555
O3_6 Cu4 1_555 1_555
O8_5 Cu4 1_555 1_555
C1_6 H1_6 1_555 1_555
C2_6 C1_6 1_555 1_555
C3_6 C2_6 1_555 1_555
H2_6 C3_6 1_555 1_555
C4_6 C2_6 1_555 1_555
N1_6 C1_6 1_555 1_555
O2_6 C4_6 1_555 1_555
C5_6 N1_6 1_555 1_555
H3_6 C5_6 1_555 1_555
C6_6 C3_6 1_555 1_555
C7_6 C6_6 1_555 1_555
O5_3 C7_6 1_555 1_555
Cu5 O5_3 1_555 1_555
Cu6_2 N1_6 1_555 1_555
C5_6 C6_6 1_555 1_555
O3_7 Cu5_3 1_555 1_555
C1_7 H1_7 1_555 1_555
C2_7 C1_7 1_555 1_555
C3_7 C2_7 1_555 1_555
C4_7 C2_7 1_555 1_555
N1_7 C1_7 1_555 1_555
O2_7 C4_7 1_555 1_555
C5_7 N1_7 1_555 1_555
H3_7 C5_7 1_555 1_555
C6_7 C3_7 1_555 1_555
C7_7 C6_7 1_555 1_555
O8_5 C7_7 1_555 1_555
Cu6 N1_7 1_555 1_555
C5_7 C6_7 1_555 1_555
C1_8 H1_8 1_555 1_555
C2_8 C1_8 1_555 1_555
C3_8 C2_8 1_555 1_555
H2_8 C3_8 1_555 1_555
C4_8 C2_8 1_555 1_555
Cu5 O2_8 1_555 1_555
N1_8 C1_8 1_555 1_555
O2_8 C4_8 1_555 1_555
O3_8 Cu5 1_555 1_555
C5_8 N1_8 1_555 1_555
H3_8 C5_8 1_555 1_555
C6_8 C3_8 1_555 1_555
C7_8 C6_8 1_555 1_555
O8_4 C7_8 1_555 1_555
Cu7 N1_8 1_555 1_555
C5_8 C6_8 1_555 1_555

#END
