
###############################################################################
#
# This file contains modified crystal structure data generated from the
# MOF subset of the Cambridge Structural Database (CSD) v543 
# hosted by the Cambridge Crystallographic Data Centre (CCDC).
#
# This work is licensed under the Creative Commons
# Attribution-NonCommercial-ShareAlike 4.0 International License.
# To view a copy of this license, visit
# http://creativecommons.org/licenses/by-nc-sa/4.0/
# or send a letter to
# Creative Commons, PO Box 1866, Mountain View, CA 94042, USA.
#
# CIF created using the CSD Python API on 29 September 2022
# The structure has been converted into the P1 space group
# The structure has a 3D framework
# The original CSD entry EXEMUS is in the monoclinic crystal system
# The framework has been calculated to contain at least 10.0% void space
# The void calculation uses a probe of radius 1.32A, grid spacing 0.4
#
###############################################################################

data_EXEMUS
_chemical_formula_moiety         '(C76 H48 N38 Ni7)n'
_symmetry_cell_setting           triclinic
_symmetry_space_group_name_H-M   'P 1'
_symmetry_Int_Tables_number      1
_space_group_name_Hall           'P 1'
loop_
_symmetry_equiv_pos_site_id
_symmetry_equiv_pos_as_xyz
1 x,y,z
_cell_length_a                   7.102(3)
_cell_length_b                   14.154(4)
_cell_length_c                   25.655(10)
_cell_angle_alpha                90
_cell_angle_beta                 92.575(12)
_cell_angle_gamma                90
_cell_volume                     2576.28
loop_
_atom_site_label
_atom_site_type_symbol
_atom_site_fract_x
_atom_site_fract_y
_atom_site_fract_z
Ni7 Ni -0.000000 -0.000000 0.500000
Ni8 Ni -0.000000 0.500000 0.500000
Ni7_2 Ni -0.000000 1.000000 0.500000
Ni11 Ni 0.500000 0.500000 0.000000
Ni1 Ni 0.500000 0.000000 0.000000
Ni2 Ni 0.5012(3) 0.24550(14) 0.51146(6)
N1 N 0.511(3) 0.0622(8) 0.0747(5)
C1 C 0.507(3) 0.1535(11) 0.0844(6)
H1 H 0.504123 0.195363 0.056391
C2 C 0.506(3) 0.1903(11) 0.1352(6)
H2 H 0.502747 0.255332 0.140362
C3 C 0.509(3) 0.1316(11) 0.1765(6)
C4 C 0.520(3) 0.0332(12) 0.1688(6)
C5 C 0.518(3) 0.0026(12) 0.1159(6)
N2 N 0.505(3) 0.1734(11) 0.2283(6)
N3 N 0.496(3) 0.1103(10) 0.2629(5)
C6 C 0.497(3) 0.1504(12) 0.3159(7)
C7 C 0.489(3) 0.2445(13) 0.3275(5)
H5 H 0.481121 0.289986 0.301368
C8 C 0.492(3) 0.2696(13) 0.3796(6)
H6 H 0.496555 0.333457 0.388083
C9 C 0.492(3) 0.1135(11) 0.4059(6)
H7 H 0.494415 0.068014 0.432036
C10 C 0.491(3) 0.0847(12) 0.3535(6)
H8 H 0.485258 0.020870 0.344951
N4 N 0.491(3) 0.2059(8) 0.4191(5)
N5 N 0.055(3) 0.5163(9) 0.5805(5)
C11 C 0.240(3) 0.5075(14) 0.6002(7)
H9 H 0.335642 0.497232 0.577200
C12 C 0.287(3) 0.5138(13) 0.6540(6)
H10 H 0.411576 0.508183 0.666565
C13 C 0.137(3) 0.5291(14) 0.6893(6)
N6 N 0.160(3) 0.5322(11) 0.7429(6)
C16 C 0.688(3) 0.1570(14) 0.5211(7)
N7 N 0.804(2) 0.0975(10) 0.5229(6)
C17 C 0.322(3) 0.1538(14) 0.5226(7)
N8 N 0.212(2) 0.0923(10) 0.5222(6)
C18 C 0.680(3) 0.3426(13) 0.5112(7)
N9 N 0.791(2) 0.4038(10) 0.5117(5)
C19 C 0.309(3) 0.3326(13) 0.5036(7)
N10 N 0.197(2) 0.3927(10) 0.4978(5)
N11 N 0.445(3) 0.5163(9) 0.9195(5)
C20 C 0.260(3) 0.5075(14) 0.8998(7)
H13 H 0.164358 0.497232 0.922800
C21 C 0.213(3) 0.5138(13) 0.8460(6)
H14 H 0.088424 0.508183 0.833435
C22 C 0.363(3) 0.5291(14) 0.8107(6)
C23 C 0.547(3) 0.5403(14) 0.8315(6)
H15 H 0.646149 0.551649 0.809873
C24 C 0.579(3) 0.5339(14) 0.8867(6)
H16 H 0.701135 0.542588 0.900361
N12 N 0.340(3) 0.5322(11) 0.7571(6)
N15 N 0.004(3) 0.1103(10) 0.2371(5)
C30 C 0.003(3) 0.1504(12) 0.1841(7)
C31 C 0.011(3) 0.2445(13) 0.1725(5)
H21 H 0.018879 0.289986 0.198632
C32 C 0.008(3) 0.2696(13) 0.1204(6)
H22 H 0.003445 0.333457 0.111917
C33 C 0.008(3) 0.1135(11) 0.0941(6)
H23 H 0.005585 0.068014 0.067964
C34 C 0.009(3) 0.0847(12) 0.1465(6)
H24 H 0.014742 0.020870 0.155049
N16 N 0.009(3) 0.2059(8) 0.0809(5)
N20 N 0.303(2) 0.3927(10) 0.0022(5)
Ni7_3 Ni 1.000000 -0.000000 0.500000
Ni8_2 Ni 1.000000 0.500000 0.500000
Ni11_2 Ni 0.500000 0.500000 1.000000
N27 N 0.209(2) 0.5962(10) 0.4883(5)
Ni1_2 Ni 0.500000 -0.000000 1.000000
C36 C 0.178(3) 0.1538(14) 0.9774(7)
N18 N 0.288(2) 0.0923(10) 0.9778(6)
C38 C 0.191(3) 0.3326(13) 0.9964(7)
N23 N 0.696(2) 0.0975(10) 0.9771(6)
Ni1_3 Ni 0.500000 1.000000 0.000000
H3 H 0.528179 0.990812 0.196542
H4 H 0.520720 0.938022 0.109324
Ni7_4 Ni 1.000000 1.000000 0.500000
N24 N 0.304(2) 0.9025(10) 0.0229(6)
N25 N 0.712(2) 0.9077(10) 0.0222(6)
Ni1_4 Ni 0.500000 1.000000 1.000000
N21 N 0.489(3) 0.9378(8) 0.9253(5)
C14 C 0.953(3) 0.5403(14) 0.6685(6)
H11 H 0.853851 0.551649 0.690127
C15 C 0.921(3) 0.5339(14) 0.6133(6)
H12 H 0.798865 0.542588 0.599639
N13 N 0.989(3) 0.0622(8) 0.4253(5)
C25 C 0.993(3) 0.1535(11) 0.4156(6)
H17 H 0.995877 0.195363 0.443609
C26 C 0.994(3) 0.1903(11) 0.3648(6)
H18 H 0.997253 0.255332 0.359638
C27 C 0.991(3) 0.1316(11) 0.3235(6)
C28 C 0.980(3) 0.0332(12) 0.3312(6)
C29 C 0.982(3) 0.0026(12) 0.3841(6)
N14 N 0.995(3) 0.1734(11) 0.2717(6)
N22 N 0.945(3) 0.4837(9) 0.4195(5)
N28 N 0.803(2) 0.6073(10) 0.5022(5)
Ni4 Ni 0.9988(3) 0.24550(14) 0.98854(6)
C35 C 0.812(3) 0.1570(14) 0.9789(7)
C37 C 0.820(3) 0.3426(13) 0.9888(7)
N19 N 0.709(2) 0.4038(10) 0.9883(5)
H19 H 0.971821 0.990812 0.303458
H20 H 0.979280 0.938022 0.390676
N22_2 N 0.555(3) 0.4837(9) 0.0805(5)
N27_2 N 0.291(2) 0.5962(10) 0.0117(5)
N28_2 N 0.697(2) 0.6073(10) 0.9978(5)
N21_2 N 0.011(3) 0.9378(8) 0.5747(5)
N24_2 N 0.196(2) 0.9025(10) 0.4771(6)
N25_2 N 0.788(2) 0.9077(10) 0.4778(6)
H19_2 H 0.028179 0.009188 0.696542
H20_2 H 0.020720 0.061978 0.609324
Ni4_2 Ni 0.0012(3) 0.75450(14) 0.01146(6)
C35_2 C 0.188(3) 0.8430(14) 0.0211(7)
C37_2 C 0.180(3) 0.6574(13) 0.0112(7)
C14_2 C 0.047(3) 0.4597(14) 0.3315(6)
H11_2 H 0.146149 0.448351 0.309873
C15_2 C 0.079(3) 0.4661(14) 0.3867(6)
H12_2 H 0.201135 0.457412 0.400361
C25_2 C 0.007(3) 0.8465(11) 0.5844(6)
H17_2 H 0.004123 0.804637 0.556391
C26_2 C 0.006(3) 0.8097(11) 0.6352(6)
H18_2 H 0.002747 0.744668 0.640362
C27_2 C 0.009(3) 0.8684(11) 0.6765(6)
C28_2 C 0.020(3) 0.9668(12) 0.6688(6)
C29_2 C 0.018(3) 0.9974(12) 0.6159(6)
N14_2 N 0.005(3) 0.8266(11) 0.7283(6)
H3_2 H 0.471821 0.009188 0.803458
H4_2 H 0.479280 0.061978 0.890676
C36_2 C 0.822(3) 0.8462(14) 0.0226(7)
C38_2 C 0.809(3) 0.6674(13) 0.0036(7)
Ni2_2 Ni 0.4988(3) 0.75450(14) 0.48854(6)
C1_2 C 0.493(3) 0.8465(11) 0.9156(6)
H1_2 H 0.495877 0.804637 0.943609
C2_2 C 0.494(3) 0.8097(11) 0.8648(6)
H2_2 H 0.497253 0.744668 0.859638
C3_2 C 0.491(3) 0.8684(11) 0.8235(6)
C4_2 C 0.480(3) 0.9668(12) 0.8312(6)
C5_2 C 0.482(3) 0.9974(12) 0.8841(6)
N2_2 N 0.495(3) 0.8266(11) 0.7717(6)
N3_2 N 0.504(3) 0.8897(10) 0.7371(5)
C6_2 C 0.503(3) 0.8496(12) 0.6841(7)
C7_2 C 0.511(3) 0.7555(13) 0.6725(5)
H5_2 H 0.518879 0.710014 0.698632
C8_2 C 0.508(3) 0.7304(13) 0.6204(6)
H6_2 H 0.503445 0.666543 0.611917
C9_2 C 0.508(3) 0.8865(11) 0.5941(6)
H7_2 H 0.505585 0.931986 0.567964
C10_2 C 0.509(3) 0.9153(12) 0.6465(6)
H8_2 H 0.514742 0.979130 0.655049
N4_2 N 0.509(3) 0.7941(8) 0.5809(5)
C11_2 C 0.760(3) 0.4925(14) 0.3998(7)
H9_2 H 0.664358 0.502768 0.422800
C12_2 C 0.713(3) 0.4862(13) 0.3460(6)
H10_2 H 0.588424 0.491817 0.333435
C13_2 C 0.863(3) 0.4709(14) 0.3107(6)
N6_2 N 0.840(3) 0.4678(11) 0.2571(6)
C16_2 C 0.312(3) 0.8430(14) 0.4789(7)
C17_2 C 0.678(3) 0.8462(14) 0.4774(7)
C18_2 C 0.320(3) 0.6574(13) 0.4888(7)
C19_2 C 0.691(3) 0.6674(13) 0.4964(7)
C20_2 C 0.740(3) 0.4925(14) 0.1002(7)
H13_2 H 0.835642 0.502768 0.077200
C21_2 C 0.787(3) 0.4862(13) 0.1540(6)
H14_2 H 0.911576 0.491817 0.166565
C22_2 C 0.637(3) 0.4709(14) 0.1893(6)
C23_2 C 0.453(3) 0.4597(14) 0.1685(6)
H15_2 H 0.353851 0.448351 0.190127
C24_2 C 0.421(3) 0.4661(14) 0.1133(6)
H16_2 H 0.298865 0.457412 0.099639
N12_2 N 0.660(3) 0.4678(11) 0.2429(6)
N15_2 N 0.996(3) 0.8897(10) 0.7629(5)
C30_2 C 0.997(3) 0.8496(12) 0.8159(7)
C31_2 C 0.989(3) 0.7555(13) 0.8275(5)
H21_2 H 0.981121 0.710014 0.801368
C32_2 C 0.992(3) 0.7304(13) 0.8796(6)
H22_2 H 0.996555 0.666543 0.888083
C33_2 C 0.992(3) 0.8865(11) 0.9059(6)
H23_2 H 0.994415 0.931986 0.932036
C34_2 C 0.991(3) 0.9153(12) 0.8535(6)
H24_2 H 0.985258 0.979130 0.844951
N16_2 N 0.991(3) 0.7941(8) 0.9191(5)
loop_
_geom_bond_atom_site_label_1
_geom_bond_atom_site_label_2
_geom_bond_site_symmetry_1
_geom_bond_site_symmetry_2
Ni1 N1 1_555 1_555
Ni2 N4 1_555 1_555
Ni8 N5 1_555 1_555
N1 C1 1_555 1_555
C1 H1 1_555 1_555
C2 C1 1_555 1_555
H2 C2 1_555 1_555
C3 C2 1_555 1_555
C4 C3 1_555 1_555
C5 N1 1_555 1_555
N2 C3 1_555 1_555
N3 N2 1_555 1_555
C6 N3 1_555 1_555
C7 C6 1_555 1_555
H5 C7 1_555 1_555
C8 C7 1_555 1_555
H6 C8 1_555 1_555
C9 H7 1_555 1_555
C10 C6 1_555 1_555
H8 C10 1_555 1_555
N4 C8 1_555 1_555
N5 C11 1_555 1_555
C11 H9 1_555 1_555
C12 C11 1_555 1_555
H10 C12 1_555 1_555
C13 C12 1_555 1_555
N6 C13 1_555 1_555
C16 Ni2 1_555 1_555
N7 C16 1_555 1_555
C17 Ni2 1_555 1_555
N8 C17 1_555 1_555
C18 Ni2 1_555 1_555
N9 C18 1_555 1_555
C19 Ni2 1_555 1_555
N10 Ni8 1_555 1_555
N11 C20 1_555 1_555
C20 H13 1_555 1_555
C21 C20 1_555 1_555
H14 C21 1_555 1_555
C22 C21 1_555 1_555
C23 C22 1_555 1_555
H15 C23 1_555 1_555
C24 N11 1_555 1_555
H16 C24 1_555 1_555
N12 N6 1_555 1_555
C30 N15 1_555 1_555
C31 C30 1_555 1_555
H21 C31 1_555 1_555
C32 C31 1_555 1_555
H22 C32 1_555 1_555
C33 H23 1_555 1_555
C34 C30 1_555 1_555
H24 C34 1_555 1_555
N16 C32 1_555 1_555
Ni7 N8 1_555 1_555
Ni7_3 N7 1_555 1_555
Ni8_2 N9 1_555 1_555
Ni11 N20 1_555 1_555
Ni11_2 N11 1_555 1_555
N27 Ni8 1_555 1_555
C4 C5 1_555 1_555
C9 C10 1_555 1_555
C9 N4 1_555 1_555
C19 N10 1_555 1_555
C22 N12 1_555 1_555
C23 C24 1_555 1_555
C33 C34 1_555 1_555
C33 N16 1_555 1_555
N18 Ni1_2 1_555 1_555
N23 Ni1_2 1_555 1_555
C36 N18 1_555 1_555
N24 Ni1_3 1_555 1_555
N25 Ni1_3 1_555 1_555
N21 Ni1_4 1_555 1_555
H11 C14 1_555 1_555
H12 C15 1_555 1_555
N13 C25 1_555 1_555
C25 H17 1_555 1_555
C26 C25 1_555 1_555
H18 C26 1_555 1_555
C27 C26 1_555 1_555
C28 C27 1_555 1_555
C29 N13 1_555 1_555
N14 C27 1_555 1_555
N22 Ni8_2 1_555 1_555
N28 Ni8_2 1_555 1_555
C14 C15 1_555 1_555
N13 Ni7_3 1_555 1_555
C28 C29 1_555 1_555
C35 Ni4 1_555 1_555
N23 C35 1_555 1_555
C37 Ni4 1_555 1_555
N19 C37 1_555 1_555
Ni11_2 N19 1_555 1_555
N22_2 Ni11 1_555 1_555
N27_2 Ni11 1_555 1_555
N28_2 Ni11_2 1_555 1_555
N21_2 Ni7_2 1_555 1_555
N24_2 Ni7_2 1_555 1_555
N25_2 Ni7_4 1_555 1_555
C35_2 Ni4_2 1_555 1_555
N24 C35_2 1_555 1_555
C37_2 Ni4_2 1_555 1_555
N27_2 C37_2 1_555 1_555
H11_2 C14_2 1_555 1_555
H12_2 C15_2 1_555 1_555
N21_2 C25_2 1_555 1_555
C25_2 H17_2 1_555 1_555
C26_2 C25_2 1_555 1_555
H18_2 C26_2 1_555 1_555
C27_2 C26_2 1_555 1_555
C28_2 C27_2 1_555 1_555
C29_2 N21_2 1_555 1_555
N14_2 C27_2 1_555 1_555
C14_2 C15_2 1_555 1_555
C28_2 C29_2 1_555 1_555
C36_2 N25 1_555 1_555
Ni2_2 N4_2 1_555 1_555
N21 C1_2 1_555 1_555
C1_2 H1_2 1_555 1_555
C2_2 C1_2 1_555 1_555
H2_2 C2_2 1_555 1_555
C3_2 C2_2 1_555 1_555
C4_2 C3_2 1_555 1_555
C5_2 N21 1_555 1_555
N2_2 C3_2 1_555 1_555
N3_2 N2_2 1_555 1_555
C6_2 N3_2 1_555 1_555
C7_2 C6_2 1_555 1_555
H5_2 C7_2 1_555 1_555
C8_2 C7_2 1_555 1_555
H6_2 C8_2 1_555 1_555
C9_2 H7_2 1_555 1_555
C10_2 C6_2 1_555 1_555
H8_2 C10_2 1_555 1_555
N4_2 C8_2 1_555 1_555
N22 C11_2 1_555 1_555
C11_2 H9_2 1_555 1_555
C12_2 C11_2 1_555 1_555
H10_2 C12_2 1_555 1_555
C13_2 C12_2 1_555 1_555
N6_2 C13_2 1_555 1_555
C16_2 Ni2_2 1_555 1_555
N24_2 C16_2 1_555 1_555
C17_2 Ni2_2 1_555 1_555
N25_2 C17_2 1_555 1_555
C18_2 Ni2_2 1_555 1_555
N27 C18_2 1_555 1_555
C19_2 Ni2_2 1_555 1_555
N22_2 C20_2 1_555 1_555
C20_2 H13_2 1_555 1_555
C21_2 C20_2 1_555 1_555
H14_2 C21_2 1_555 1_555
C22_2 C21_2 1_555 1_555
C23_2 C22_2 1_555 1_555
H15_2 C23_2 1_555 1_555
C24_2 N22_2 1_555 1_555
H16_2 C24_2 1_555 1_555
N12_2 N6_2 1_555 1_555
C30_2 N15_2 1_555 1_555
C31_2 C30_2 1_555 1_555
H21_2 C31_2 1_555 1_555
C32_2 C31_2 1_555 1_555
H22_2 C32_2 1_555 1_555
C33_2 H23_2 1_555 1_555
C34_2 C30_2 1_555 1_555
H24_2 C34_2 1_555 1_555
N16_2 C32_2 1_555 1_555
C4_2 C5_2 1_555 1_555
C9_2 C10_2 1_555 1_555
C9_2 N4_2 1_555 1_555
C19_2 N28 1_555 1_555
C22_2 N12_2 1_555 1_555
C23_2 C24_2 1_555 1_555
C33_2 C34_2 1_555 1_555
C33_2 N16_2 1_555 1_555

#END
