
###############################################################################
#
# This file contains modified crystal structure data generated from the
# MOF subset of the Cambridge Structural Database (CSD) v543 
# hosted by the Cambridge Crystallographic Data Centre (CCDC).
#
# This work is licensed under the Creative Commons
# Attribution-NonCommercial-ShareAlike 4.0 International License.
# To view a copy of this license, visit
# http://creativecommons.org/licenses/by-nc-sa/4.0/
# or send a letter to
# Creative Commons, PO Box 1866, Mountain View, CA 94042, USA.
#
# CIF created using the CSD Python API on 29 September 2022
# The structure has been converted into the P1 space group
# The structure has a 3D framework
# The original CSD entry EXEQIK is in the triclinic crystal system
# The framework has been calculated to contain at least 10.0% void space
# The void calculation uses a probe of radius 1.32A, grid spacing 0.4
#
###############################################################################

data_EXEQIK
_chemical_formula_moiety         '(C104 H72 N16 O12 S2 Zn2)n'
_symmetry_cell_setting           triclinic
_symmetry_space_group_name_H-M   'P 1'
_symmetry_Int_Tables_number      1
_space_group_name_Hall           'P 1'
loop_
_symmetry_equiv_pos_site_id
_symmetry_equiv_pos_as_xyz
1 x,y,z
_cell_length_a                   12.9990(9)
_cell_length_b                   14.2181(10)
_cell_length_c                   14.3781(10)
_cell_angle_alpha                89.974(4)
_cell_angle_beta                 71.640(4)
_cell_angle_gamma                80.732(4)
_cell_volume                     2485.59
loop_
_atom_site_label
_atom_site_type_symbol
_atom_site_fract_x
_atom_site_fract_y
_atom_site_fract_z
C12 C 0.0651(4) 0.7330(3) 0.5828(3)
O1 O 0.1030(3) 0.7276(2) 0.4907(2)
O3 O 0.1183(3) 0.7212(4) 0.6402(3)
Zn5 Zn 0.24405(5) 0.70857(4) 0.35803(4)
C2 C 0.4573(3) 0.6971(3) 0.0484(3)
C7 C 0.1458(4) 0.4432(3) 0.1228(3)
C14 C 0.1450(4) 0.0079(3) 0.1214(3)
C17 C 0.4180(4) 0.6506(3) 0.1452(3)
C21 C 0.1723(5) 0.5793(4) 0.2158(3)
H6 H 0.210097 0.609807 0.161567
C25 C 0.4654(4) 0.7926(3) 0.0461(3)
H9 H 0.446532 0.829078 0.104606
C27 C 0.0953(5) 0.5455(4) 0.3621(3)
H11 H 0.070050 0.548467 0.430357
C28 C 0.0785(5) 0.4791(4) 0.3046(4)
H12 H 0.040127 0.429022 0.325145
C30 C 0.0770(4) 0.1022(3) 0.0099(3)
C32 C 0.2459(4) 0.4316(4) 0.0506(3)
H16 H 0.301410 0.461660 0.058127
C35 C 0.0642(4) 0.3977(3) 0.1129(3)
C36 C 0.0847(4) 0.3389(3) 0.0301(3)
H20 H 0.029692 0.307179 0.024013
C39 C 0.2492(4) 0.0196(4) 0.0708(3)
C42 C 0.0578(4) 0.0487(3) 0.0927(4)
H30 H 0.018401 0.043520 0.322662
N5 N 0.1290(3) 0.4996(3) 0.2099(3)
N7 N 0.1548(4) 0.6080(3) 0.3059(3)
O2 O 0.3688(3) 0.7058(2) 0.2188(2)
O4 O 0.4364(5) 0.5636(3) 0.1434(3)
N9 N 0.3169(3) 0.8190(3) 0.4155(3)
N10 N 0.3304(3) 0.5821(3) 0.4158(3)
N11 N 0.1519(3) 0.8367(3) 0.3038(3)
C1 C 0.9400(4) 0.7561(3) 0.6261(3)
C3 C 0.2467(4) 0.3144(3) 0.7723(3)
C4 C 0.5294(4) 0.7796(4) 0.8711(3)
C5 C 0.3104(4) 0.4128(3) 0.6027(3)
C6 C 0.1822(4) 0.1163(3) 0.9576(3)
C9 C 0.1851(4) 0.3261(3) 0.9561(3)
C10 C 0.2948(4) 0.5561(3) 0.5062(3)
H2 H 0.244343 0.595083 0.557805
C13 C 0.2054(4) 0.1704(3) 0.8656(3)
C15 C 0.2106(4) 0.2641(3) 0.8655(3)
C16 C 0.7150(4) 0.7962(4) 0.7093(3)
C18 C 0.4854(4) 0.6433(3) 0.9605(3)
H4 H 0.479467 0.578927 0.961684
C20 C 0.5218(4) 0.6840(4) 0.8721(3)
H5 H 0.541161 0.647509 0.813543
C22 C 0.4046(5) 0.5043(4) 0.3645(3)
H7 H 0.444051 0.501773 0.297912
C23 C 0.2307(4) 0.1109(3) 0.7736(3)
C24 C 0.2644(4) 0.3758(4) 0.9671(3)
H8 H 0.331298 0.371312 0.917075
C29 C 0.5015(4) 0.8346(4) 0.9575(3)
H13 H 0.506974 0.899025 0.956067
H14 H 0.018166 0.128936 0.989273
C31 C 0.7807(4) 0.7941(4) 0.7686(3)
H15 H 0.749279 0.806351 0.835988
C33 C 0.8739(4) 0.7550(4) 0.5681(3)
H17 H 0.905825 0.741171 0.500961
C34 C 0.4115(5) 0.4328(4) 0.4243(4)
H18 H 0.455752 0.373138 0.407324
C38 C 0.8921(4) 0.7737(3) 0.7273(3)
H22 H 0.936695 0.771559 0.766990
C40 C 0.7608(4) 0.7743(5) 0.6083(4)
H24 H 0.716150 0.772641 0.569163
C41 C 0.2041(4) 0.4312(4) 0.6633(4)
H25 H 0.153022 0.476552 0.647537
C43 C 0.3535(4) 0.2983(4) 0.7110(4)
H27 H 0.404988 0.252976 0.726278
C44 C 0.3866(4) 0.3484(4) 0.6264(4)
H28 H 0.459698 0.338035 0.586617
C45 C 0.2679(4) 0.0747(4) 0.9886(3)
H29 H 0.339202 0.083422 0.954502
C47 C 0.1723(4) 0.3826(4) 0.7483(4)
H31 H 0.099989 0.396000 0.789718
H32 H 0.397005 0.014919 0.400900
C49 C 0.2028(5) 0.0773(5) 0.6203(4)
H33 H 0.166518 0.093865 0.574734
C50 C 0.1749(5) 0.1328(4) 0.7069(4)
H34 H 0.118321 0.185033 0.720036
C52 C 0.3057(7) 0.0297(5) 0.7543(5)
H36 H 0.340220 0.010141 0.800424
N2 N 0.3404(3) 0.4650(3) 0.5153(3)
O5 O 0.5213(3) 0.7995(4) 0.6930(3)
O6 O 0.5531(3) 0.9347(3) 0.7807(3)
S1 S 0.57156(10) 0.83436(11) 0.75853(9)
C8 C 0.1781(4) 0.8646(3) 0.2131(3)
H1 H 0.226262 0.827296 0.159082
C26 C 0.0813(5) 0.9126(4) 0.3596(3)
H10 H 0.049675 0.914250 0.427450
H23 H 0.307726 0.991125 0.090789
C46 C 0.0638(5) 0.9847(4) 0.3024(4)
N3 N 0.1268(3) 0.9535(3) 0.2081(3)
C11 C 0.2844(4) 0.8528(3) 0.5059(3)
H3 H 0.247690 0.820578 0.559149
C19 C 0.2829(4) 0.9988(3) 0.6018(3)
C37 C 0.3690(5) 0.8869(4) 0.3615(3)
H21 H 0.401458 0.882375 0.293725
C48 C 0.3665(7) 0.9603(4) 0.4199(4)
C51 C 0.3327(7) 0.9745(5) 0.6675(5)
H35 H 0.386156 0.919956 0.655577
N8 N 0.3100(4) 0.9398(3) 0.5135(3)
H19 H 0.995775 0.406326 0.161295
H26 H 0.986708 0.040644 0.128119
H19_2 H 0.004225 0.593674 0.838705
H26_2 H 0.013292 0.959356 0.871881
C11_2 C 0.7156(4) 0.1472(3) 0.4941(3)
H3_2 H 0.752310 0.179422 0.440851
C19_2 C 0.7171(4) 0.0012(3) 0.3982(3)
C37_2 C 0.6310(5) 0.1131(4) 0.6385(3)
H21_2 H 0.598542 0.117625 0.706275
C48_2 C 0.6335(7) 0.0397(4) 0.5801(4)
C51_2 C 0.6673(7) 0.0255(5) 0.3325(5)
H35_2 H 0.613844 0.080044 0.344423
N1 N 0.6831(3) 0.1810(3) 0.5845(3)
N8_2 N 0.6900(4) 0.0602(3) 0.4865(3)
Zn2 Zn 0.75595(5) 0.29143(4) 0.64197(4)
C8_2 C 0.8219(4) 0.1354(3) 0.7869(3)
H1_2 H 0.773738 0.172704 0.840918
C26_2 C 0.9187(5) 0.0874(4) 0.6404(3)
H10_2 H 0.950325 0.085750 0.572550
H23_2 H 0.692274 0.008875 0.909211
C46_2 C 0.9362(5) 0.0153(4) 0.6976(4)
N3_2 N 0.8732(3) 0.0465(3) 0.7919(3)
N6 N 0.8481(3) 0.1633(3) 0.6962(3)
C1_2 C 0.0600(4) 0.2439(3) 0.3739(3)
C3_2 C 0.7533(4) 0.6856(3) 0.2277(3)
C4_2 C 0.4706(4) 0.2204(4) 0.1289(3)
C5_2 C 0.6896(4) 0.5872(3) 0.3973(3)
C6_2 C 0.8178(4) 0.8837(3) 0.0424(3)
C9_2 C 0.8149(4) 0.6739(3) 0.0439(3)
C10_2 C 0.7052(4) 0.4439(3) 0.4938(3)
H2_2 H 0.755657 0.404917 0.442195
C13_2 C 0.7946(4) 0.8296(3) 0.1344(3)
C15_2 C 0.7894(4) 0.7359(3) 0.1345(3)
C16_2 C 0.2850(4) 0.2038(4) 0.2907(3)
C18_2 C 0.5146(4) 0.3567(3) 0.0395(3)
H4_2 H 0.520533 0.421073 0.038316
C20_2 C 0.4782(4) 0.3160(4) 0.1279(3)
H5_2 H 0.458839 0.352491 0.186457
C22_2 C 0.5954(5) 0.4957(4) 0.6355(3)
H7_2 H 0.555949 0.498227 0.702088
C23_2 C 0.7693(4) 0.8891(3) 0.2264(3)
C24_2 C 0.7356(4) 0.6242(4) 0.0329(3)
H8_2 H 0.668702 0.628688 0.082925
C29_2 C 0.4985(4) 0.1654(4) 0.0425(3)
H13_2 H 0.493026 0.100975 0.043933
H14_2 H 0.981834 0.871064 0.010727
C31_2 C 0.2193(4) 0.2059(4) 0.2314(3)
H15_2 H 0.250721 0.193649 0.164012
C33_2 C 0.1261(4) 0.2450(4) 0.4319(3)
H17_2 H 0.094175 0.258829 0.499039
C34_2 C 0.5885(5) 0.5672(4) 0.5757(4)
H18_2 H 0.544248 0.626862 0.592676
C38_2 C 0.1079(4) 0.2263(3) 0.2727(3)
H22_2 H 0.063305 0.228441 0.233010
C40_2 C 0.2392(4) 0.2257(5) 0.3917(4)
H24_2 H 0.283850 0.227359 0.430837
C41_2 C 0.7959(4) 0.5688(4) 0.3367(4)
H25_2 H 0.846978 0.523448 0.352463
C43_2 C 0.6465(4) 0.7017(4) 0.2890(4)
H27_2 H 0.595012 0.747024 0.273722
C44_2 C 0.6134(4) 0.6516(4) 0.3736(4)
H28_2 H 0.540302 0.661965 0.413383
C45_2 C 0.7321(4) 0.9253(4) 0.0114(3)
H29_2 H 0.660798 0.916578 0.045498
C47_2 C 0.8277(4) 0.6174(4) 0.2517(4)
H31_2 H 0.900011 0.604000 0.210282
H32_2 H 0.602995 0.985081 0.599100
C49_2 C 0.7972(5) 0.9227(5) 0.3797(4)
H33_2 H 0.833482 0.906135 0.425266
C50_2 C 0.8251(5) 0.8672(4) 0.2931(4)
H34_2 H 0.881679 0.814967 0.279964
C52_2 C 0.6943(7) 0.9703(5) 0.2457(5)
H36_2 H 0.659780 0.989859 0.199576
N2_2 N 0.6596(3) 0.5350(3) 0.4847(3)
N4 N 0.6696(3) 0.4179(3) 0.5842(3)
O5_2 O 0.4787(3) 0.2005(4) 0.3070(3)
O6_2 O 0.4469(3) 0.0653(3) 0.2193(3)
S1_2 S 0.42844(10) 0.16564(11) 0.24147(9)
C2_2 C 0.5427(3) 0.3029(3) 0.9516(3)
C7_2 C 0.8542(4) 0.5568(3) 0.8772(3)
C14_2 C 0.8550(4) 0.9921(3) 0.8786(3)
C17_2 C 0.5820(4) 0.3494(3) 0.8548(3)
C21_2 C 0.8277(5) 0.4207(4) 0.7842(3)
H6_2 H 0.789903 0.390193 0.838433
C25_2 C 0.5346(4) 0.2074(3) 0.9539(3)
H9_2 H 0.553468 0.170922 0.895394
C27_2 C 0.9047(5) 0.4545(4) 0.6379(3)
H11_2 H 0.929950 0.451533 0.569643
C28_2 C 0.9215(5) 0.5209(4) 0.6954(4)
H12_2 H 0.959873 0.570978 0.674855
C30_2 C 0.9230(4) 0.8978(3) 0.9901(3)
C32_2 C 0.7541(4) 0.5684(4) 0.9494(3)
H16_2 H 0.698590 0.538340 0.941873
C35_2 C 0.9358(4) 0.6023(3) 0.8871(3)
C36_2 C 0.9153(4) 0.6611(3) 0.9699(3)
H20_2 H 0.970308 0.692821 0.975987
C39_2 C 0.7508(4) 0.9804(4) 0.9292(3)
C42_2 C 0.9422(4) 0.9513(3) 0.9073(4)
H30_2 H 0.981599 0.956480 0.677338
N5_2 N 0.8710(3) 0.5004(3) 0.7901(3)
N7_2 N 0.8452(4) 0.3920(3) 0.6941(3)
O2_2 O 0.6312(3) 0.2942(2) 0.7812(2)
O4_2 O 0.5636(5) 0.4364(3) 0.8566(3)
O7 O 0.8970(3) 0.2724(2) 0.5093(2)
C12_2 C 0.9349(4) 0.2670(3) 0.4172(3)
O3_2 O 0.8817(3) 0.2788(4) 0.3598(3)
loop_
_geom_bond_atom_site_label_1
_geom_bond_atom_site_label_2
_geom_bond_site_symmetry_1
_geom_bond_site_symmetry_2
C12 O1 1_555 1_555
O1 Zn5 1_555 1_555
O3 C12 1_555 1_555
C2 C17 1_555 1_555
C7 C32 1_555 1_555
C14 C39 1_555 1_555
C17 O2 1_555 1_555
C21 H6 1_555 1_555
C25 C2 1_555 1_555
H9 C25 1_555 1_555
C27 H11 1_555 1_555
C28 C27 1_555 1_555
H12 C28 1_555 1_555
H16 C32 1_555 1_555
C35 C7 1_555 1_555
H20 C36 1_555 1_555
C42 C14 1_555 1_555
N5 C7 1_555 1_555
N7 C21 1_555 1_555
O2 Zn5 1_555 1_555
O4 C17 1_555 1_555
Zn5 N7 1_555 1_555
N9 Zn5 1_555 1_555
N10 Zn5 1_555 1_555
N11 Zn5 1_555 1_555
C21 N5 1_555 1_555
C27 N7 1_555 1_555
C28 N5 1_555 1_555
C30 C42 1_555 1_555
C35 C36 1_555 1_555
C3 C15 1_555 1_555
C4 C20 1_555 1_555
C5 C41 1_555 1_555
C6 C13 1_555 1_555
C9 C15 1_555 1_555
C10 H2 1_555 1_555
C13 C15 1_555 1_555
C16 C31 1_555 1_555
H4 C18 1_555 1_555
C20 C18 1_555 1_555
H5 C20 1_555 1_555
C22 H7 1_555 1_555
C23 C13 1_555 1_555
C24 C9 1_555 1_555
H8 C24 1_555 1_555
C29 C4 1_555 1_555
H13 C29 1_555 1_555
C31 H15 1_555 1_555
C33 C1 1_555 1_555
H17 C33 1_555 1_555
C34 C22 1_555 1_555
H18 C34 1_555 1_555
C38 C1 1_555 1_555
H22 C38 1_555 1_555
C40 C16 1_555 1_555
H24 C40 1_555 1_555
C41 H25 1_555 1_555
C43 C3 1_555 1_555
H27 C43 1_555 1_555
C44 C5 1_555 1_555
H28 C44 1_555 1_555
C45 C6 1_555 1_555
H29 C45 1_555 1_555
C47 C3 1_555 1_555
H31 C47 1_555 1_555
C49 H33 1_555 1_555
C50 C23 1_555 1_555
H34 C50 1_555 1_555
C52 C23 1_555 1_555
H36 C52 1_555 1_555
N2 C5 1_555 1_555
N10 C10 1_555 1_555
O5 S1 1_555 1_555
O6 S1 1_555 1_555
S1 C4 1_555 1_555
C10 N2 1_555 1_555
C16 S1 1_555 1_555
C22 N10 1_555 1_555
C31 C38 1_555 1_555
C33 C40 1_555 1_555
C34 N2 1_555 1_555
C41 C47 1_555 1_555
C43 C44 1_555 1_555
C49 C50 1_555 1_555
C8 H1 1_555 1_555
C26 H10 1_555 1_555
C46 C26 1_555 1_555
N3 C8 1_555 1_555
N11 C8 1_555 1_555
C26 N11 1_555 1_555
C46 N3 1_555 1_555
C11 H3 1_555 1_555
C37 H21 1_555 1_555
C48 C37 1_555 1_555
C51 C19 1_555 1_555
H35 C51 1_555 1_555
N9 C11 1_555 1_555
N8 C11 1_555 1_555
C19 N8 1_555 1_555
C37 N9 1_555 1_555
C48 N8 1_555 1_555
C11_2 H3_2 1_555 1_555
C37_2 H21_2 1_555 1_555
C48_2 C37_2 1_555 1_555
C51_2 C19_2 1_555 1_555
H35_2 C51_2 1_555 1_555
N1 C11_2 1_555 1_555
N8_2 C11_2 1_555 1_555
Zn2 N1 1_555 1_555
C19_2 N8_2 1_555 1_555
C37_2 N1 1_555 1_555
C48_2 N8_2 1_555 1_555
C8_2 H1_2 1_555 1_555
C26_2 H10_2 1_555 1_555
C46_2 C26_2 1_555 1_555
N3_2 C8_2 1_555 1_555
N6 C8_2 1_555 1_555
Zn2 N6 1_555 1_555
C26_2 N6 1_555 1_555
C46_2 N3_2 1_555 1_555
C3_2 C15_2 1_555 1_555
C4_2 C20_2 1_555 1_555
C5_2 C41_2 1_555 1_555
C6_2 C13_2 1_555 1_555
C9_2 C15_2 1_555 1_555
C10_2 H2_2 1_555 1_555
C13_2 C15_2 1_555 1_555
C16_2 C31_2 1_555 1_555
H4_2 C18_2 1_555 1_555
C20_2 C18_2 1_555 1_555
H5_2 C20_2 1_555 1_555
C22_2 H7_2 1_555 1_555
C23_2 C13_2 1_555 1_555
C24_2 C9_2 1_555 1_555
H8_2 C24_2 1_555 1_555
C29_2 C4_2 1_555 1_555
H13_2 C29_2 1_555 1_555
C31_2 H15_2 1_555 1_555
C33_2 C1_2 1_555 1_555
H17_2 C33_2 1_555 1_555
C34_2 C22_2 1_555 1_555
H18_2 C34_2 1_555 1_555
C38_2 C1_2 1_555 1_555
H22_2 C38_2 1_555 1_555
C40_2 C16_2 1_555 1_555
H24_2 C40_2 1_555 1_555
C41_2 H25_2 1_555 1_555
C43_2 C3_2 1_555 1_555
H27_2 C43_2 1_555 1_555
C44_2 C5_2 1_555 1_555
H28_2 C44_2 1_555 1_555
C45_2 C6_2 1_555 1_555
H29_2 C45_2 1_555 1_555
C47_2 C3_2 1_555 1_555
H31_2 C47_2 1_555 1_555
C49_2 H33_2 1_555 1_555
C50_2 C23_2 1_555 1_555
H34_2 C50_2 1_555 1_555
C52_2 C23_2 1_555 1_555
H36_2 C52_2 1_555 1_555
N2_2 C5_2 1_555 1_555
N4 C10_2 1_555 1_555
O5_2 S1_2 1_555 1_555
O6_2 S1_2 1_555 1_555
S1_2 C4_2 1_555 1_555
Zn2 N4 1_555 1_555
C10_2 N2_2 1_555 1_555
C16_2 S1_2 1_555 1_555
C22_2 N4 1_555 1_555
C31_2 C38_2 1_555 1_555
C33_2 C40_2 1_555 1_555
C34_2 N2_2 1_555 1_555
C41_2 C47_2 1_555 1_555
C43_2 C44_2 1_555 1_555
C49_2 C50_2 1_555 1_555
C2_2 C17_2 1_555 1_555
C7_2 C32_2 1_555 1_555
C14_2 C39_2 1_555 1_555
C17_2 O2_2 1_555 1_555
C21_2 H6_2 1_555 1_555
C25_2 C2_2 1_555 1_555
H9_2 C25_2 1_555 1_555
C27_2 H11_2 1_555 1_555
C28_2 C27_2 1_555 1_555
H12_2 C28_2 1_555 1_555
H16_2 C32_2 1_555 1_555
C35_2 C7_2 1_555 1_555
H20_2 C36_2 1_555 1_555
C42_2 C14_2 1_555 1_555
N5_2 C7_2 1_555 1_555
N7_2 C21_2 1_555 1_555
O2_2 Zn2 1_555 1_555
O4_2 C17_2 1_555 1_555
Zn2 N7_2 1_555 1_555
O7 Zn2 1_555 1_555
C21_2 N5_2 1_555 1_555
C27_2 N7_2 1_555 1_555
C28_2 N5_2 1_555 1_555
C30_2 C42_2 1_555 1_555
C35_2 C36_2 1_555 1_555
C12_2 O7 1_555 1_555
O3_2 C12_2 1_555 1_555

#END
