
###############################################################################
#
# This file contains modified crystal structure data generated from the
# MOF subset of the Cambridge Structural Database (CSD) v543 
# hosted by the Cambridge Crystallographic Data Centre (CCDC).
#
# This work is licensed under the Creative Commons
# Attribution-NonCommercial-ShareAlike 4.0 International License.
# To view a copy of this license, visit
# http://creativecommons.org/licenses/by-nc-sa/4.0/
# or send a letter to
# Creative Commons, PO Box 1866, Mountain View, CA 94042, USA.
#
# CIF created using the CSD Python API on 29 September 2022
# The structure has been converted into the P1 space group
# The structure has a 3D framework
# The original CSD entry EXEQII is in the tetragonal crystal system
# The original CSD entry EXEQII is in a Sohncke space group
# The framework has been calculated to contain at least 10.0% void space
# The void calculation uses a probe of radius 1.32A, grid spacing 0.4
#
###############################################################################

data_EXEQII
_chemical_formula_moiety         '(C84 H34 O34 Sc9)n'
_symmetry_cell_setting           triclinic
_symmetry_space_group_name_H-M   'P 1'
_symmetry_Int_Tables_number      1
_space_group_name_Hall           'P 1'
loop_
_symmetry_equiv_pos_site_id
_symmetry_equiv_pos_as_xyz
1 x,y,z
_cell_length_a                   15.347(5)
_cell_length_b                   15.347(5)
_cell_length_c                   12.3845(5)
_cell_angle_alpha                90
_cell_angle_beta                 90
_cell_angle_gamma                90
_cell_volume                     2916.93
loop_
_atom_site_label
_atom_site_type_symbol
_atom_site_fract_x
_atom_site_fract_y
_atom_site_fract_z
Sc1 Sc 0.81278(2) 0.18722(2) 0.0000
O1 O 0.71101(9) 0.09497(9) 0.00761(13)
C2 C 0.5000 -0.0000 0.1890(2)
C4 C 0.56916(15) 0.03608(15) 0.13267(18)
H2 H 0.6172 0.0599 0.1711
C5 C 0.56888(15) 0.03775(15) 0.01954(18)
Sc5 Sc 0.68722(2) 0.31278(2) 0.5000
Sc6 Sc 0.68722(2) 0.18722(2) 0.7500
Sc9 Sc 0.81278(2) 0.31278(2) 0.2500
O5 O 0.59497(9) 0.21101(9) 0.49239(13)
O10 O 0.60693(11) 0.12281(11) 0.63607(11)
O12 O 0.89307(11) 0.12281(11) 0.11393(11)
O16 O 0.75204(15) 0.2500 0.1250
C7 C 0.58314(15) 0.13912(15) 0.54020(17)
C9 C 0.5000 -0.0000 0.3110(2)
C10 C 0.5000 -0.0000 0.5369(2)
H3 H 0.5000 0.0000 0.6136
C12 C 0.53608(15) 0.06916(15) 0.36733(18)
H4 H 0.5599 0.1172 0.3289
C15 C 0.53775(15) 0.06888(15) 0.48046(18)
Sc1_2 Sc 0.81278(2) 0.18722(2) 1.0000
O2 O 0.62281(11) 0.10693(11) 0.86393(11)
O3 O 0.7500 0.24796(15) 0.8750
C1 C 0.63912(15) 0.08314(15) 0.95980(17)
C3 C 0.5000 -0.0000 0.9631(2)
H1 H 0.5000 -0.0000 0.8864
O7 O 0.90503(9) 0.28899(9) 0.99239(13)
O13 O 0.87719(11) 0.10693(11) 0.88607(11)
C2_2 C 0.5000 1.0000 0.1890(2)
Sc2 Sc 0.18722(2) 0.81278(2) 0.0000
Sc7 Sc 0.31278(2) 0.68722(2) 0.5000
Sc8 Sc 0.31278(2) 0.81278(2) 0.7500
O4 O 0.28899(9) 0.90503(9) 0.00761(13)
O6 O 0.40503(9) 0.78899(9) 0.49239(13)
O11 O 0.39307(11) 0.87719(11) 0.63607(11)
O14 O 0.10693(11) 0.87719(11) 0.11393(11)
O18 O 0.24796(15) 0.7500 0.1250
C8 C 0.41686(15) 0.86088(15) 0.54020(17)
C9_2 C 0.5000 1.0000 0.3110(2)
C10_2 C 0.5000 1.0000 0.5369(2)
H3_2 H 0.5000 1.0000 0.6136
C11 C 0.43084(15) 0.96392(15) 0.13267(18)
C13 C 0.46392(15) 0.93084(15) 0.36733(18)
H5 H 0.4401 0.8828 0.3289
H6 H 0.3828 0.9401 0.1711
C14 C 0.43112(15) 0.96225(15) 0.01954(18)
C16 C 0.46225(15) 0.93112(15) 0.48046(18)
C3_2 C 0.5000 1.0000 0.9631(2)
H1_2 H 0.5000 1.0000 0.8864
Sc2_2 Sc 0.18722(2) 0.81278(2) 1.0000
O8 O 0.09497(9) 0.71101(9) 0.99239(13)
O9 O 0.37719(11) 0.89307(11) 0.86393(11)
O15 O 0.12281(11) 0.89307(11) 0.88607(11)
O17 O 0.2500 0.75204(15) 0.8750
C6 C 0.36088(15) 0.91686(15) 0.95980(17)
C2_3 C -0.0000 1.0000 0.4390(2)
C3_3 C -0.0000 1.0000 0.2131(2)
H1_3 H -0.0000 1.0000 0.1364
Sc2_3 Sc 0.18722(2) 0.68722(2) 0.2500
O4_2 O 0.09497(9) 0.78899(9) 0.25761(13)
O6_2 O 0.21101(9) 0.90503(9) 0.74239(13)
O8_2 O 0.28899(9) 0.59497(9) 0.24239(13)
O14_2 O 0.12281(11) 0.60693(11) 0.36393(11)
O15_2 O 0.10693(11) 0.62281(11) 0.13607(11)
O18_2 O 0.2500 0.74796(15) 0.3750
C6_2 C 0.08314(15) 0.86088(15) 0.20980(17)
C8_2 C 0.13912(15) 0.91686(15) 0.79020(17)
C9_3 C -0.0000 1.0000 0.5610(2)
C10_3 C -0.0000 1.0000 0.7869(2)
H3_3 H -0.0000 1.0000 0.8636
C11_2 C 0.03608(15) 0.93084(15) 0.38267(18)
C13_2 C 0.06916(15) 0.96392(15) 0.61733(18)
H5_2 H 0.1172 0.9401 0.5789
H6_2 H 0.0599 0.8828 0.4211
C14_2 C 0.03775(15) 0.93112(15) 0.26954(18)
C16_2 C 0.06888(15) 0.96225(15) 0.73046(18)
O1_2 O 0.90503(9) 0.21101(9) 0.25761(13)
C1_2 C 0.91686(15) 0.13912(15) 0.20980(17)
C2_4 C 1.0000 -0.0000 0.4390(2)
C3_4 C 1.0000 -0.0000 0.2131(2)
H1_4 H 1.0000 -0.0000 0.1364
C4_2 C 0.96392(15) 0.06916(15) 0.38267(18)
H2_2 H 0.9401 0.1172 0.4211
C5_2 C 0.96225(15) 0.06888(15) 0.26954(18)
O5_2 O 0.78899(9) 0.09497(9) 0.74239(13)
O7_2 O 0.71101(9) 0.40503(9) 0.24239(13)
O12_2 O 0.87719(11) 0.39307(11) 0.36393(11)
O13_2 O 0.89307(11) 0.37719(11) 0.13607(11)
O16_2 O 0.7500 0.25204(15) 0.3750
C7_2 C 0.86088(15) 0.08314(15) 0.79020(17)
C9_4 C 1.0000 -0.0000 0.5610(2)
C10_4 C 1.0000 -0.0000 0.7869(2)
H3_4 H 1.0000 -0.0000 0.8636
C12_2 C 0.93084(15) 0.03608(15) 0.61733(18)
H4_2 H 0.8828 0.0599 0.5789
C15_2 C 0.93112(15) 0.03775(15) 0.73046(18)
C8_3 C 0.08314(15) 0.63912(15) 0.04020(17)
C10_5 C 0.0000 0.5000 0.0369(2)
H3_5 H 0.0000 0.5000 0.1136
C2_5 C 0.0000 0.5000 0.6890(2)
C3_5 C 0.0000 0.5000 0.4631(2)
H1_5 H 0.0000 0.5000 0.3864
O4_3 O 0.21101(9) 0.59497(9) 0.50761(13)
O14_3 O 0.39307(11) 0.62281(11) 0.61393(11)
O15_3 O 0.37719(11) 0.60693(11) 0.38607(11)
O18_3 O 0.25204(15) 0.7500 0.6250
C6_3 C 0.13912(15) 0.58314(15) 0.45980(17)
C9_5 C 0.0000 0.5000 0.8110(2)
C11_3 C 0.06916(15) 0.53608(15) 0.63267(18)
C13_3 C 0.03608(15) 0.56916(15) 0.86733(18)
H5_3 H 0.0599 0.6172 0.8289
H6_3 H 0.1172 0.5599 0.6711
C14_3 C 0.06888(15) 0.53775(15) 0.51954(18)
C16_3 C 0.03775(15) 0.56888(15) 0.98046(18)
C7_3 C 0.91686(15) 0.36088(15) 0.04020(17)
C10_6 C 1.0000 0.5000 0.0369(2)
H3_6 H 1.0000 0.5000 0.1136
O1_3 O 0.78899(9) 0.40503(9) 0.50761(13)
C1_3 C 0.86088(15) 0.41686(15) 0.45980(17)
C2_6 C 1.0000 0.5000 0.6890(2)
C3_6 C 1.0000 0.5000 0.4631(2)
H1_6 H 1.0000 0.5000 0.3864
C4_3 C 0.93084(15) 0.46392(15) 0.63267(18)
H2_3 H 0.8828 0.4401 0.6711
C5_3 C 0.93112(15) 0.46225(15) 0.51954(18)
O12_3 O 0.60693(11) 0.37719(11) 0.61393(11)
O13_3 O 0.62281(11) 0.39307(11) 0.38607(11)
O16_3 O 0.74796(15) 0.2500 0.6250
C9_6 C 1.0000 0.5000 0.8110(2)
C12_3 C 0.96392(15) 0.43084(15) 0.86733(18)
H4_3 H 0.9401 0.3828 0.8289
C15_3 C 0.96225(15) 0.43112(15) 0.98046(18)
C7_4 C 0.63912(15) 0.41686(15) 0.29020(17)
C8_4 C 0.36088(15) 0.58314(15) 0.29020(17)
C9_7 C 0.5000 0.5000 0.0610(2)
C10_7 C 0.5000 0.5000 0.2869(2)
H3_7 H 0.5000 0.5000 0.3636
C12_4 C 0.56916(15) 0.46392(15) 0.11733(18)
C13_4 C 0.43084(15) 0.53608(15) 0.11733(18)
H4_4 H 0.6172 0.4401 0.0789
H5_4 H 0.3828 0.5599 0.0789
C15_4 C 0.56888(15) 0.46225(15) 0.23046(18)
C16_4 C 0.43112(15) 0.53775(15) 0.23046(18)
O1_4 O 0.59497(9) 0.28899(9) 0.75761(13)
C1_4 C 0.58314(15) 0.36088(15) 0.70980(17)
C2_7 C 0.5000 0.5000 0.9390(2)
C3_7 C 0.5000 0.5000 0.7131(2)
H1_7 H 0.5000 0.5000 0.6364
C4_4 C 0.53608(15) 0.43084(15) 0.88267(18)
H2_4 H 0.5599 0.3828 0.9211
C5_4 C 0.53775(15) 0.43112(15) 0.76954(18)
O4_4 O 0.40503(9) 0.71101(9) 0.75761(13)
C6_4 C 0.41686(15) 0.63912(15) 0.70980(17)
C11_4 C 0.46392(15) 0.56916(15) 0.88267(18)
H6_4 H 0.4401 0.6172 0.9211
C14_4 C 0.46225(15) 0.56888(15) 0.76954(18)
C2_8 C -0.0000 -0.0000 0.4390(2)
C3_8 C -0.0000 -0.0000 0.2131(2)
H1_8 H -0.0000 -0.0000 0.1364
C9_8 C 0.0000 -0.0000 0.5610(2)
C10_8 C -0.0000 -0.0000 0.7869(2)
H3_8 H -0.0000 -0.0000 0.8636
C2_9 C 1.0000 1.0000 0.4390(2)
C3_9 C 1.0000 1.0000 0.2131(2)
H1_9 H 1.0000 1.0000 0.1364
C9_9 C 1.0000 1.0000 0.5610(2)
C10_9 C 1.0000 1.0000 0.7869(2)
H3_9 H 1.0000 1.0000 0.8636
loop_
_geom_bond_atom_site_label_1
_geom_bond_atom_site_label_2
_geom_bond_site_symmetry_1
_geom_bond_site_symmetry_2
Sc1 O1 1_555 1_555
C2 C4 1_555 1_555
C4 H2 1_555 1_555
Sc5 O5 1_555 1_555
Sc6 O10 1_555 1_555
Sc9 O16 1_555 1_555
O5 C7 1_555 1_555
O10 C7 1_555 1_555
O12 Sc1 1_555 1_555
O16 Sc1 1_555 1_555
C7 C15 1_555 1_555
C9 C2 1_555 1_555
C10 H3 1_555 1_555
C12 C9 1_555 1_555
H4 C12 1_555 1_555
C15 C10 1_555 1_555
C4 C5 1_555 1_555
C12 C15 1_555 1_555
O2 C1 1_555 1_555
O3 Sc1_2 1_555 1_555
C3 H1 1_555 1_555
Sc6 O2 1_555 1_555
O7 Sc1_2 1_555 1_555
O13 Sc1_2 1_555 1_555
O3 Sc6 1_555 1_555
Sc2 O4 1_555 1_555
Sc7 O6 1_555 1_555
Sc8 O11 1_555 1_555
O6 C8 1_555 1_555
O11 C8 1_555 1_555
O14 Sc2 1_555 1_555
O18 Sc2 1_555 1_555
C8 C16 1_555 1_555
C9_2 C2_2 1_555 1_555
C10_2 H3_2 1_555 1_555
C11 C2_2 1_555 1_555
C13 C9_2 1_555 1_555
H5 C13 1_555 1_555
H6 C11 1_555 1_555
C16 C10_2 1_555 1_555
C11 C14 1_555 1_555
C13 C16 1_555 1_555
C3_2 H1_2 1_555 1_555
Sc8 O9 1_555 1_555
O8 Sc2_2 1_555 1_555
O9 C6 1_555 1_555
O15 Sc2_2 1_555 1_555
O17 Sc2_2 1_555 1_555
Sc8 O17 1_555 1_555
C3_3 H1_3 1_555 1_555
Sc2_3 O4_2 1_555 1_555
Sc8 O6_2 1_555 1_555
O4_2 C6_2 1_555 1_555
O6_2 C8_2 1_555 1_555
O8_2 Sc2_3 1_555 1_555
O14 C6_2 1_555 1_555
O15 C8_2 1_555 1_555
O14_2 Sc2_3 1_555 1_555
O15_2 Sc2_3 1_555 1_555
O18 Sc2_3 1_555 1_555
O18_2 Sc2_3 1_555 1_555
C6_2 C14_2 1_555 1_555
C8_2 C16_2 1_555 1_555
C9_3 C2_3 1_555 1_555
C10_3 H3_3 1_555 1_555
C11_2 C2_3 1_555 1_555
C13_2 C9_3 1_555 1_555
H5_2 C13_2 1_555 1_555
H6_2 C11_2 1_555 1_555
C14_2 C3_3 1_555 1_555
C16_2 C10_3 1_555 1_555
C11_2 C14_2 1_555 1_555
C13_2 C16_2 1_555 1_555
Sc9 O1_2 1_555 1_555
O1_2 C1_2 1_555 1_555
O12 C1_2 1_555 1_555
C1_2 C5_2 1_555 1_555
C2_4 C4_2 1_555 1_555
C3_4 H1_4 1_555 1_555
C4_2 H2_2 1_555 1_555
C5_2 C3_4 1_555 1_555
Sc6 O5_2 1_555 1_555
Sc5 O16_2 1_555 1_555
O5_2 C7_2 1_555 1_555
O7_2 Sc9 1_555 1_555
O13 C7_2 1_555 1_555
O12_2 Sc9 1_555 1_555
O13_2 Sc9 1_555 1_555
O16_2 Sc9 1_555 1_555
C7_2 C15_2 1_555 1_555
C9_4 C2_4 1_555 1_555
C10_4 H3_4 1_555 1_555
C12_2 C9_4 1_555 1_555
H4_2 C12_2 1_555 1_555
C15_2 C10_4 1_555 1_555
C4_2 C5_2 1_555 1_555
C12_2 C15_2 1_555 1_555
O15_2 C8_3 1_555 1_555
C10_5 H3_5 1_555 1_555
C3_5 H1_5 1_555 1_555
Sc7 O4_3 1_555 1_555
O4_3 C6_3 1_555 1_555
O14_2 C6_3 1_555 1_555
O14_3 Sc7 1_555 1_555
O15_3 Sc7 1_555 1_555
O18_2 Sc7 1_555 1_555
O18_3 Sc7 1_555 1_555
C6_3 C14_3 1_555 1_555
C9_5 C2_5 1_555 1_555
C11_3 C2_5 1_555 1_555
C13_3 C9_5 1_555 1_555
H5_3 C13_3 1_555 1_555
H6_3 C11_3 1_555 1_555
C14_3 C3_5 1_555 1_555
C11_3 C14_3 1_555 1_555
C13_3 C16_3 1_555 1_555
O13_2 C7_3 1_555 1_555
C10_6 H3_6 1_555 1_555
Sc5 O1_3 1_555 1_555
O1_3 C1_3 1_555 1_555
O12_2 C1_3 1_555 1_555
C1_3 C5_3 1_555 1_555
C2_6 C4_3 1_555 1_555
C3_6 H1_6 1_555 1_555
C4_3 H2_3 1_555 1_555
C5_3 C3_6 1_555 1_555
Sc6 O16_3 1_555 1_555
O12_3 Sc5 1_555 1_555
O13_3 Sc5 1_555 1_555
O16_3 Sc5 1_555 1_555
C9_6 C2_6 1_555 1_555
C12_3 C9_6 1_555 1_555
H4_3 C12_3 1_555 1_555
C4_3 C5_3 1_555 1_555
C12_3 C15_3 1_555 1_555
O7_2 C7_4 1_555 1_555
O8_2 C8_4 1_555 1_555
O13_3 C7_4 1_555 1_555
O15_3 C8_4 1_555 1_555
C7_4 C15_4 1_555 1_555
C8_4 C16_4 1_555 1_555
C10_7 H3_7 1_555 1_555
C12_4 C9_7 1_555 1_555
C13_4 C9_7 1_555 1_555
H4_4 C12_4 1_555 1_555
H5_4 C13_4 1_555 1_555
C15_4 C10_7 1_555 1_555
C16_4 C10_7 1_555 1_555
C12_4 C15_4 1_555 1_555
C13_4 C16_4 1_555 1_555
Sc6 O1_4 1_555 1_555
O1_4 C1_4 1_555 1_555
O12_3 C1_4 1_555 1_555
C1_4 C5_4 1_555 1_555
C2_7 C4_4 1_555 1_555
C3_7 H1_7 1_555 1_555
C4_4 H2_4 1_555 1_555
C5_4 C3_7 1_555 1_555
Sc8 O4_4 1_555 1_555
O4_4 C6_4 1_555 1_555
O14_3 C6_4 1_555 1_555
O18_3 Sc8 1_555 1_555
C6_4 C14_4 1_555 1_555
C11_4 C2_7 1_555 1_555
H6_4 C11_4 1_555 1_555
C14_4 C3_7 1_555 1_555
C4_4 C5_4 1_555 1_555
C11_4 C14_4 1_555 1_555
C3_8 H1_8 1_555 1_555
C9_8 C2_8 1_555 1_555
C10_8 H3_8 1_555 1_555
C3_9 H1_9 1_555 1_555
C9_9 C2_9 1_555 1_555
C10_9 H3_9 1_555 1_555

#END
