
###############################################################################
#
# This file contains modified crystal structure data generated from the
# MOF subset of the Cambridge Structural Database (CSD) v543 
# hosted by the Cambridge Crystallographic Data Centre (CCDC).
#
# This work is licensed under the Creative Commons
# Attribution-NonCommercial-ShareAlike 4.0 International License.
# To view a copy of this license, visit
# http://creativecommons.org/licenses/by-nc-sa/4.0/
# or send a letter to
# Creative Commons, PO Box 1866, Mountain View, CA 94042, USA.
#
# CIF created using the CSD Python API on 29 September 2022
# The structure has been converted into the P1 space group
# The structure has a 3D framework
# The original CSD entry EXEWAG is in the monoclinic crystal system
# The framework has been calculated to contain at least 10.0% void space
# The void calculation uses a probe of radius 1.32A, grid spacing 0.4
#
###############################################################################

data_EXEWAG
_chemical_formula_moiety         '(C136 H64 N8 O32 S16 Zn8)n'
_symmetry_cell_setting           triclinic
_symmetry_space_group_name_H-M   'P 1'
_symmetry_Int_Tables_number      1
_space_group_name_Hall           'P 1'
loop_
_symmetry_equiv_pos_site_id
_symmetry_equiv_pos_as_xyz
1 x,y,z
_cell_length_a                   15.3611(8)
_cell_length_b                   25.4602(10)
_cell_length_c                   13.8990(6)
_cell_angle_alpha                90
_cell_angle_beta                 106.013(5)
_cell_angle_gamma                90
_cell_volume                     5224.94
loop_
_atom_site_label
_atom_site_type_symbol
_atom_site_fract_x
_atom_site_fract_y
_atom_site_fract_z
Zn5 Zn 0.02598(4) 0.64803(2) 0.86093(4)
N1 N 0.5209(3) 0.14821(14) 0.0039(3)
C3 C 0.4925(4) 0.1061(2) 0.0441(4)
H2 H 0.4779 0.0760 0.0049
C4 C 0.5045(4) 0.14891(19) 0.1982(4)
C5 C 0.5410(5) 0.1909(2) 0.0619(4)
H3 H 0.5601 0.2208 0.0351
C11 C 0.4837(4) 0.1045(2) 0.1383(4)
H4 H 0.4640 0.0741 0.1626
C15 C 0.5353(5) 0.1931(2) 0.1582(4)
H7 H 0.5515 0.2234 0.1962
Zn3 Zn 0.47402(4) 0.14803(2) 0.63907(4)
N2 N 0.4791(3) 0.14821(14) 0.4961(3)
C20 C 0.5075(4) 0.1061(2) 0.4559(4)
H10 H 0.5221 0.0760 0.4951
C21 C 0.4955(4) 0.14891(19) 0.3018(4)
C22 C 0.4590(5) 0.1909(2) 0.4381(4)
H11 H 0.4399 0.2208 0.4649
C28 C 0.5163(4) 0.1045(2) 0.3617(4)
H12 H 0.5360 0.0741 0.3374
C32 C 0.4647(5) 0.1931(2) 0.3418(4)
H15 H 0.4485 0.2234 0.3038
Zn1 Zn 0.52598(4) 0.14803(2) 0.86093(4)
S1 S 0.34755(13) 0.00330(6) 0.86485(11)
O1 O 0.3870(3) 0.08681(13) 0.6421(3)
O3 O 0.4250(3) 0.09461(14) 0.8086(3)
C8 C 0.3428(4) 0.02141(19) 0.7400(4)
C17 C 0.3876(3) 0.07183(18) 0.7282(4)
S3 S 0.65245(13) 0.00330(6) 0.63515(11)
O5 O 0.6130(3) 0.08681(13) 0.8579(3)
O7 O 0.6155(3) 0.20378(14) 0.8541(3)
O8 O 0.3845(3) 0.20378(14) 0.6459(3)
O9 O 0.5750(3) 0.09461(14) 0.6914(3)
O11 O 0.5702(3) 0.20709(14) 0.6866(3)
O12 O 0.4298(3) 0.20709(14) 0.8134(3)
C25 C 0.6572(4) 0.02141(19) 0.7600(4)
C34 C 0.6124(3) 0.07183(18) 0.7718(4)
S2 S 0.20360(13) 0.80504(6) 0.89266(11)
O2 O 0.1155(3) 0.70378(14) 0.8541(3)
C1 C 0.1575(4) 0.7759(2) 0.7743(4)
O4 O 0.0702(3) 0.70709(14) 0.6866(3)
C2 C 0.1579(6) 0.8034(2) 0.6829(8)
H1 H 0.1349 0.7935 0.6163
C6 C 0.2089(5) 0.8547(2) 0.7305(5)
C7 C 0.2923(4) 0.9441(2) 0.8209(4)
C9 C 0.1119(4) 0.72424(19) 0.7713(4)
C10 C 0.2317(5) 0.8602(2) 0.8327(5)
C12 C 0.2290(5) 0.8950(2) 0.6693(5)
H5 H 0.2148 0.8914 0.6001
C13 C 0.3000(5) 0.9862(2) 0.6670(7)
C14 C 0.2730(5) 0.9055(2) 0.8817(5)
H6 H 0.2865 0.9094 0.9507
C16 C 0.2715(4) 0.9408(2) 0.7179(5)
H8 H 0.2819 0.9939 0.6004
Zn7 Zn 0.97402(4) 0.64803(2) 0.63907(4)
S4 S 0.79640(13) 0.80504(6) 0.60734(11)
O6 O 0.8845(3) 0.70378(14) 0.6459(3)
C18 C 0.8425(4) 0.7759(2) 0.7257(4)
O10 O 0.9298(3) 0.70709(14) 0.8134(3)
C19 C 0.8421(6) 0.8034(2) 0.8171(8)
H9 H 0.8651 0.7935 0.8837
C23 C 0.7911(5) 0.8547(2) 0.7695(5)
C24 C 0.7077(4) 0.9441(2) 0.6791(4)
C26 C 0.8881(4) 0.72424(19) 0.7287(4)
C27 C 0.7683(5) 0.8602(2) 0.6673(5)
C29 C 0.7710(5) 0.8950(2) 0.8307(5)
H13 H 0.7852 0.8914 0.8999
C30 C 0.7000(5) 0.9862(2) 0.8330(7)
C31 C 0.7270(5) 0.9055(2) 0.6183(5)
H14 H 0.7135 0.9094 0.5493
C33 C 0.7285(4) 0.9408(2) 0.7821(5)
H16 H 0.7181 0.9939 0.8996
N1_2 N 0.0209(3) 0.64821(14) 0.0039(3)
C4_2 C 0.0045(4) 0.64891(19) 0.1982(4)
C5_2 C 0.0410(5) 0.6909(2) 0.0619(4)
H3_2 H 0.0601 0.7208 0.0351
C15_2 C 0.0353(5) 0.6931(2) 0.1582(4)
H7_2 H 0.0515 0.7234 0.1962
C20_2 C 0.0075(4) 0.6061(2) 0.4559(4)
H10_2 H 0.0221 0.5760 0.4951
C28_2 C 0.0163(4) 0.6045(2) 0.3617(4)
H12_2 H 0.0360 0.5741 0.3374
S3_2 S 0.15245(13) 0.50330(6) 0.63515(11)
S4_2 S 0.29640(13) 0.30504(6) 0.60734(11)
O5_2 O 0.1130(3) 0.58681(13) 0.8579(3)
O9_2 O 0.0750(3) 0.59461(14) 0.6914(3)
C18_2 C 0.3425(4) 0.2759(2) 0.7257(4)
C19_2 C 0.3421(6) 0.3034(2) 0.8171(8)
H9_2 H 0.3651 0.2935 0.8837
C23_2 C 0.2911(5) 0.3547(2) 0.7695(5)
C24_2 C 0.2077(4) 0.4441(2) 0.6791(4)
C25_2 C 0.1572(4) 0.52141(19) 0.7600(4)
C26_2 C 0.3881(4) 0.22424(19) 0.7287(4)
C27_2 C 0.2683(5) 0.3602(2) 0.6673(5)
C29_2 C 0.2710(5) 0.3950(2) 0.8307(5)
H13_2 H 0.2852 0.3914 0.8999
C30_2 C 0.2000(5) 0.4862(2) 0.8330(7)
C31_2 C 0.2270(5) 0.4055(2) 0.6183(5)
H14_2 H 0.2135 0.4094 0.5493
C33_2 C 0.2285(4) 0.4408(2) 0.7821(5)
C34_2 C 0.1124(3) 0.57183(18) 0.7718(4)
H16_2 H 0.2181 0.4939 0.8996
C3_2 C 0.9925(4) 0.6061(2) 0.0441(4)
H2_2 H 0.9779 0.5760 0.0049
C11_2 C 0.9837(4) 0.6045(2) 0.1383(4)
H4_2 H 0.9640 0.5741 0.1626
N2_2 N 0.9791(3) 0.64821(14) 0.4961(3)
C21_2 C 0.9955(4) 0.64891(19) 0.3018(4)
C22_2 C 0.9590(5) 0.6909(2) 0.4381(4)
H11_2 H 0.9399 0.7208 0.4649
C32_2 C 0.9647(5) 0.6931(2) 0.3418(4)
H15_2 H 0.9485 0.7234 0.3038
S1_2 S 0.84755(13) 0.50330(6) 0.86485(11)
S2_2 S 0.70360(13) 0.30504(6) 0.89266(11)
O1_2 O 0.8870(3) 0.58681(13) 0.6421(3)
O3_2 O 0.9250(3) 0.59461(14) 0.8086(3)
C1_2 C 0.6575(4) 0.2759(2) 0.7743(4)
C2_2 C 0.6579(6) 0.3034(2) 0.6829(8)
H1_2 H 0.6349 0.2935 0.6163
C6_2 C 0.7089(5) 0.3547(2) 0.7305(5)
C7_2 C 0.7923(4) 0.4441(2) 0.8209(4)
C8_2 C 0.8428(4) 0.52141(19) 0.7400(4)
C9_2 C 0.6119(4) 0.22424(19) 0.7713(4)
C10_2 C 0.7317(5) 0.3602(2) 0.8327(5)
C12_2 C 0.7290(5) 0.3950(2) 0.6693(5)
H5_2 H 0.7148 0.3914 0.6001
C13_2 C 0.8000(5) 0.4862(2) 0.6670(7)
C14_2 C 0.7730(5) 0.4055(2) 0.8817(5)
H6_2 H 0.7865 0.4094 0.9507
C16_2 C 0.7715(4) 0.4408(2) 0.7179(5)
C17_2 C 0.8876(3) 0.57183(18) 0.7282(4)
H8_2 H 0.7819 0.4939 0.6004
Zn6 Zn 0.02598(4) 0.35197(2) 0.36093(4)
S2_3 S 0.79640(13) 0.19496(6) 0.10734(11)
O2_2 O 0.8845(3) 0.29622(14) 0.1459(3)
C1_3 C 0.8425(4) 0.2241(2) 0.2257(4)
O4_2 O 0.9298(3) 0.29291(14) 0.3134(3)
C2_3 C 0.8421(6) 0.1966(2) 0.3171(8)
H1_3 H 0.8651 0.2065 0.3837
C6_3 C 0.7911(5) 0.1453(2) 0.2695(5)
C7_3 C 0.7077(4) 0.0559(2) 0.1791(4)
C9_3 C 0.8881(4) 0.27576(19) 0.2287(4)
C10_3 C 0.7683(5) 0.1398(2) 0.1673(5)
C12_3 C 0.7710(5) 0.1050(2) 0.3307(5)
H5_3 H 0.7852 0.1086 0.3999
C13_3 C 0.7000(5) 0.0138(2) 0.3330(7)
C14_3 C 0.7270(5) 0.0945(2) 0.1183(5)
H6_3 H 0.7135 0.0906 0.0493
C16_3 C 0.7285(4) 0.0592(2) 0.2821(5)
H8_3 H 0.7181 0.0061 0.3996
Zn4 Zn 0.97402(4) 0.35197(2) 0.13907(4)
S4_3 S 0.20360(13) 0.19496(6) 0.39266(11)
O6_2 O 0.1155(3) 0.29622(14) 0.3541(3)
C18_3 C 0.1575(4) 0.2241(2) 0.2743(4)
O10_2 O 0.0702(3) 0.29291(14) 0.1866(3)
C19_3 C 0.1579(6) 0.1966(2) 0.1829(8)
H9_3 H 0.1349 0.2065 0.1163
C23_3 C 0.2089(5) 0.1453(2) 0.2305(5)
C24_3 C 0.2923(4) 0.0559(2) 0.3209(4)
C26_3 C 0.1119(4) 0.27576(19) 0.2713(4)
C27_3 C 0.2317(5) 0.1398(2) 0.3327(5)
C29_3 C 0.2290(5) 0.1050(2) 0.1693(5)
H13_3 H 0.2148 0.1086 0.1001
C30_3 C 0.3000(5) 0.0138(2) 0.1670(7)
C31_3 C 0.2730(5) 0.0945(2) 0.3817(5)
H14_3 H 0.2865 0.0906 0.4507
C33_3 C 0.2715(4) 0.0592(2) 0.2179(5)
H16_3 H 0.2819 0.0061 0.1004
Zn1_2 Zn 0.47402(4) 0.85197(2) 0.13907(4)
S1_3 S 0.65245(13) 0.99670(6) 0.13515(11)
O1_3 O 0.6130(3) 0.91319(13) 0.3579(3)
O3_3 O 0.5750(3) 0.90539(14) 0.1914(3)
C8_3 C 0.6572(4) 0.97859(19) 0.2600(4)
C17_3 C 0.6124(3) 0.92817(18) 0.2718(4)
Zn2 Zn 0.52598(4) 0.85197(2) 0.36093(4)
S3_3 S 0.34755(13) 0.99670(6) 0.36485(11)
O5_3 O 0.3870(3) 0.91319(13) 0.1421(3)
O7_2 O 0.3845(3) 0.79622(14) 0.1459(3)
O8_2 O 0.6155(3) 0.79622(14) 0.3541(3)
O9_3 O 0.4250(3) 0.90539(14) 0.3086(3)
N3 N 0.5209(3) 0.85179(14) 0.5039(3)
O11_2 O 0.4298(3) 0.79291(14) 0.3134(3)
O12_2 O 0.5702(3) 0.79291(14) 0.1866(3)
C25_3 C 0.3428(4) 0.97859(19) 0.2400(4)
C34_3 C 0.3876(3) 0.92817(18) 0.2282(4)
N1_3 N 0.4791(3) 0.85179(14) 0.9961(3)
C3_3 C 0.5075(4) 0.8939(2) 0.9559(4)
H2_3 H 0.5221 0.9240 0.9951
C4_3 C 0.4955(4) 0.85109(19) 0.8018(4)
C5_3 C 0.4590(5) 0.8091(2) 0.9381(4)
H3_3 H 0.4399 0.7792 0.9649
C11_3 C 0.5163(4) 0.8955(2) 0.8617(4)
H4_3 H 0.5360 0.9259 0.8374
C15_3 C 0.4647(5) 0.8069(2) 0.8418(4)
H7_3 H 0.4485 0.7766 0.8038
C20_3 C 0.4925(4) 0.8939(2) 0.5441(4)
H10_3 H 0.4779 0.9240 0.5049
C21_3 C 0.5045(4) 0.85109(19) 0.6982(4)
C22_3 C 0.5410(5) 0.8091(2) 0.5619(4)
H11_3 H 0.5601 0.7792 0.5351
C28_3 C 0.4837(4) 0.8955(2) 0.6383(4)
H12_3 H 0.4640 0.9259 0.6626
C32_3 C 0.5353(5) 0.8069(2) 0.6582(4)
H15_3 H 0.5515 0.7766 0.6962
S1_4 S 0.15245(13) 0.49670(6) 0.13515(11)
S2_4 S 0.29640(13) 0.69496(6) 0.10734(11)
O1_4 O 0.1130(3) 0.41319(13) 0.3579(3)
O3_4 O 0.0750(3) 0.40539(14) 0.1914(3)
C1_4 C 0.3425(4) 0.7241(2) 0.2257(4)
C2_4 C 0.3421(6) 0.6966(2) 0.3171(8)
H1_4 H 0.3651 0.7065 0.3837
C6_4 C 0.2911(5) 0.6453(2) 0.2695(5)
C7_4 C 0.2077(4) 0.5559(2) 0.1791(4)
C8_4 C 0.1572(4) 0.47859(19) 0.2600(4)
C9_4 C 0.3881(4) 0.77576(19) 0.2287(4)
C10_4 C 0.2683(5) 0.6398(2) 0.1673(5)
C12_4 C 0.2710(5) 0.6050(2) 0.3307(5)
H5_4 H 0.2852 0.6086 0.3999
C13_4 C 0.2000(5) 0.5138(2) 0.3330(7)
C14_4 C 0.2270(5) 0.5945(2) 0.1183(5)
H6_4 H 0.2135 0.5906 0.0493
C16_4 C 0.2285(4) 0.5592(2) 0.2821(5)
C17_4 C 0.1124(3) 0.42817(18) 0.2718(4)
H8_4 H 0.2181 0.5061 0.3996
N3_2 N 0.0209(3) 0.35179(14) 0.5039(3)
C3_4 C 0.0075(4) 0.3939(2) 0.9559(4)
H2_4 H 0.0221 0.4240 0.9951
C11_4 C 0.0163(4) 0.3955(2) 0.8617(4)
H4_4 H 0.0360 0.4259 0.8374
C21_4 C 0.0045(4) 0.35109(19) 0.6982(4)
C22_4 C 0.0410(5) 0.3091(2) 0.5619(4)
H11_4 H 0.0601 0.2792 0.5351
C32_4 C 0.0353(5) 0.3069(2) 0.6582(4)
H15_4 H 0.0515 0.2766 0.6962
S3_4 S 0.84755(13) 0.49670(6) 0.36485(11)
S4_4 S 0.70360(13) 0.69496(6) 0.39266(11)
O5_4 O 0.8870(3) 0.41319(13) 0.1421(3)
O9_4 O 0.9250(3) 0.40539(14) 0.3086(3)
C18_4 C 0.6575(4) 0.7241(2) 0.2743(4)
C19_4 C 0.6579(6) 0.6966(2) 0.1829(8)
H9_4 H 0.6349 0.7065 0.1163
C23_4 C 0.7089(5) 0.6453(2) 0.2305(5)
C24_4 C 0.7923(4) 0.5559(2) 0.3209(4)
C25_4 C 0.8428(4) 0.47859(19) 0.2400(4)
C26_4 C 0.6119(4) 0.77576(19) 0.2713(4)
C27_4 C 0.7317(5) 0.6398(2) 0.3327(5)
C29_4 C 0.7290(5) 0.6050(2) 0.1693(5)
H13_4 H 0.7148 0.6086 0.1001
C30_4 C 0.8000(5) 0.5138(2) 0.1670(7)
C31_4 C 0.7730(5) 0.5945(2) 0.3817(5)
H14_4 H 0.7865 0.5906 0.4507
C33_4 C 0.7715(4) 0.5592(2) 0.2179(5)
C34_4 C 0.8876(3) 0.42817(18) 0.2282(4)
H16_4 H 0.7819 0.5061 0.1004
N1_4 N 0.9791(3) 0.35179(14) 0.9961(3)
C4_4 C 0.9955(4) 0.35109(19) 0.8018(4)
C5_4 C 0.9590(5) 0.3091(2) 0.9381(4)
H3_4 H 0.9399 0.2792 0.9649
C15_4 C 0.9647(5) 0.3069(2) 0.8418(4)
H7_4 H 0.9485 0.2766 0.8038
C20_4 C 0.9925(4) 0.3939(2) 0.5441(4)
H10_4 H 0.9779 0.4240 0.5049
C28_4 C 0.9837(4) 0.3955(2) 0.6383(4)
H12_4 H 0.9640 0.4259 0.6626
loop_
_geom_bond_atom_site_label_1
_geom_bond_atom_site_label_2
_geom_bond_site_symmetry_1
_geom_bond_site_symmetry_2
C3 N1 1_555 1_555
H2 C3 1_555 1_555
C4 C11 1_555 1_555
C5 N1 1_555 1_555
H3 C5 1_555 1_555
C11 C3 1_555 1_555
H4 C11 1_555 1_555
C15 C4 1_555 1_555
H7 C15 1_555 1_555
Zn3 N2 1_555 1_555
N2 C20 1_555 1_555
C20 H10 1_555 1_555
C21 C4 1_555 1_555
C22 N2 1_555 1_555
H11 C22 1_555 1_555
C28 C20 1_555 1_555
H12 C28 1_555 1_555
C32 C21 1_555 1_555
H15 C32 1_555 1_555
C5 C15 1_555 1_555
C21 C28 1_555 1_555
C22 C32 1_555 1_555
Zn1 O3 1_555 1_555
O1 C17 1_555 1_555
O3 C17 1_555 1_555
C8 S1 1_555 1_555
C17 C8 1_555 1_555
Zn3 O1 1_555 1_555
O5 Zn1 1_555 1_555
O7 Zn1 1_555 1_555
O8 Zn3 1_555 1_555
O9 Zn3 1_555 1_555
O11 Zn3 1_555 1_555
O12 Zn1 1_555 1_555
C25 S3 1_555 1_555
C34 O5 1_555 1_555
O9 C34 1_555 1_555
C25 C34 1_555 1_555
S2 C1 1_555 1_555
O2 C9 1_555 1_555
C1 C2 1_555 1_555
O4 C9 1_555 1_555
C2 H1 1_555 1_555
C6 C2 1_555 1_555
C7 C14 1_555 1_555
C9 C1 1_555 1_555
C10 S2 1_555 1_555
C12 C6 1_555 1_555
H5 C12 1_555 1_555
C14 C10 1_555 1_555
H6 C14 1_555 1_555
C16 C7 1_555 1_555
H8 C13 1_555 1_555
Zn5 O2 1_555 1_555
Zn7 O6 1_555 1_555
S4 C18 1_555 1_555
O6 C26 1_555 1_555
C18 C19 1_555 1_555
O10 C26 1_555 1_555
C19 H9 1_555 1_555
C23 C19 1_555 1_555
C24 C31 1_555 1_555
C26 C18 1_555 1_555
C27 S4 1_555 1_555
C29 C23 1_555 1_555
H13 C29 1_555 1_555
C31 C27 1_555 1_555
H14 C31 1_555 1_555
C33 C24 1_555 1_555
H16 C30 1_555 1_555
C6 C10 1_555 1_555
C12 C16 1_555 1_555
C13 C16 1_555 1_555
C23 C27 1_555 1_555
C29 C33 1_555 1_555
C30 C33 1_555 1_555
C5_2 N1_2 1_555 1_555
H3_2 C5_2 1_555 1_555
C15_2 C4_2 1_555 1_555
H7_2 C15_2 1_555 1_555
C20_2 H10_2 1_555 1_555
C28_2 C20_2 1_555 1_555
H12_2 C28_2 1_555 1_555
C5_2 C15_2 1_555 1_555
S3_2 C24_2 1_555 1_555
S4_2 C18_2 1_555 1_555
O5_2 Zn5 1_555 1_555
O8 C26_2 1_555 1_555
C18_2 C19_2 1_555 1_555
O12 C26_2 1_555 1_555
C19_2 H9_2 1_555 1_555
C23_2 C19_2 1_555 1_555
C24_2 C31_2 1_555 1_555
C25_2 S3_2 1_555 1_555
C26_2 C18_2 1_555 1_555
C27_2 S4_2 1_555 1_555
C29_2 C23_2 1_555 1_555
H13_2 C29_2 1_555 1_555
C30_2 C25_2 1_555 1_555
C31_2 C27_2 1_555 1_555
H14_2 C31_2 1_555 1_555
C33_2 C24_2 1_555 1_555
C34_2 O5_2 1_555 1_555
H16_2 C30_2 1_555 1_555
O9_2 C34_2 1_555 1_555
C23_2 C27_2 1_555 1_555
C25_2 C34_2 1_555 1_555
C29_2 C33_2 1_555 1_555
C30_2 C33_2 1_555 1_555
H2_2 C3_2 1_555 1_555
C11_2 C3_2 1_555 1_555
H4_2 C11_2 1_555 1_555
Zn7 N2_2 1_555 1_555
C22_2 N2_2 1_555 1_555
H11_2 C22_2 1_555 1_555
C32_2 C21_2 1_555 1_555
H15_2 C32_2 1_555 1_555
C22_2 C32_2 1_555 1_555
S1_2 C7_2 1_555 1_555
S2_2 C1_2 1_555 1_555
O1_2 C17_2 1_555 1_555
O7 C9_2 1_555 1_555
O3_2 C17_2 1_555 1_555
C1_2 C2_2 1_555 1_555
O11 C9_2 1_555 1_555
C2_2 H1_2 1_555 1_555
C6_2 C2_2 1_555 1_555
C7_2 C14_2 1_555 1_555
C8_2 S1_2 1_555 1_555
C9_2 C1_2 1_555 1_555
C10_2 S2_2 1_555 1_555
C12_2 C6_2 1_555 1_555
H5_2 C12_2 1_555 1_555
C13_2 C8_2 1_555 1_555
C14_2 C10_2 1_555 1_555
H6_2 C14_2 1_555 1_555
C16_2 C7_2 1_555 1_555
C17_2 C8_2 1_555 1_555
H8_2 C13_2 1_555 1_555
Zn7 O1_2 1_555 1_555
C6_2 C10_2 1_555 1_555
C12_2 C16_2 1_555 1_555
C13_2 C16_2 1_555 1_555
S2_3 C1_3 1_555 1_555
O2_2 C9_3 1_555 1_555
C1_3 C2_3 1_555 1_555
O4_2 C9_3 1_555 1_555
C2_3 H1_3 1_555 1_555
C6_3 C2_3 1_555 1_555
C7_3 C14_3 1_555 1_555
C9_3 C1_3 1_555 1_555
C10_3 S2_3 1_555 1_555
C12_3 C6_3 1_555 1_555
H5_3 C12_3 1_555 1_555
C14_3 C10_3 1_555 1_555
H6_3 C14_3 1_555 1_555
C16_3 C7_3 1_555 1_555
H8_3 C13_3 1_555 1_555
Zn4 O2_2 1_555 1_555
Zn6 O6_2 1_555 1_555
S4_3 C18_3 1_555 1_555
O6_2 C26_3 1_555 1_555
C18_3 C19_3 1_555 1_555
O10_2 C26_3 1_555 1_555
C19_3 H9_3 1_555 1_555
C23_3 C19_3 1_555 1_555
C24_3 C31_3 1_555 1_555
C26_3 C18_3 1_555 1_555
C27_3 S4_3 1_555 1_555
C29_3 C23_3 1_555 1_555
H13_3 C29_3 1_555 1_555
C31_3 C27_3 1_555 1_555
H14_3 C31_3 1_555 1_555
C33_3 C24_3 1_555 1_555
H16_3 C30_3 1_555 1_555
C6_3 C10_3 1_555 1_555
C12_3 C16_3 1_555 1_555
C13_3 C16_3 1_555 1_555
C23_3 C27_3 1_555 1_555
C29_3 C33_3 1_555 1_555
C30_3 C33_3 1_555 1_555
Zn1_2 O3_3 1_555 1_555
O1_3 C17_3 1_555 1_555
O3_3 C17_3 1_555 1_555
C8_3 S1_3 1_555 1_555
C17_3 C8_3 1_555 1_555
Zn2 O1_3 1_555 1_555
O5_3 Zn1_2 1_555 1_555
O7_2 Zn1_2 1_555 1_555
O8_2 Zn2 1_555 1_555
O9_3 Zn2 1_555 1_555
N3 Zn2 1_555 1_555
O11_2 Zn2 1_555 1_555
O12_2 Zn1_2 1_555 1_555
C25_3 S3_3 1_555 1_555
C34_3 O5_3 1_555 1_555
O9_3 C34_3 1_555 1_555
C25_3 C34_3 1_555 1_555
C3_3 N1_3 1_555 1_555
H2_3 C3_3 1_555 1_555
C4_3 C11_3 1_555 1_555
C5_3 N1_3 1_555 1_555
H3_3 C5_3 1_555 1_555
C11_3 C3_3 1_555 1_555
H4_3 C11_3 1_555 1_555
C15_3 C4_3 1_555 1_555
H7_3 C15_3 1_555 1_555
N3 C20_3 1_555 1_555
C20_3 H10_3 1_555 1_555
C21_3 C4_3 1_555 1_555
C22_3 N3 1_555 1_555
H11_3 C22_3 1_555 1_555
C28_3 C20_3 1_555 1_555
H12_3 C28_3 1_555 1_555
C32_3 C21_3 1_555 1_555
H15_3 C32_3 1_555 1_555
C5_3 C15_3 1_555 1_555
C21_3 C28_3 1_555 1_555
C22_3 C32_3 1_555 1_555
S1_4 C7_4 1_555 1_555
S2_4 C1_4 1_555 1_555
O1_4 C17_4 1_555 1_555
O7_2 C9_4 1_555 1_555
O3_4 C17_4 1_555 1_555
C1_4 C2_4 1_555 1_555
O11_2 C9_4 1_555 1_555
C2_4 H1_4 1_555 1_555
C6_4 C2_4 1_555 1_555
C7_4 C14_4 1_555 1_555
C8_4 S1_4 1_555 1_555
C9_4 C1_4 1_555 1_555
C10_4 S2_4 1_555 1_555
C12_4 C6_4 1_555 1_555
H5_4 C12_4 1_555 1_555
C13_4 C8_4 1_555 1_555
C14_4 C10_4 1_555 1_555
H6_4 C14_4 1_555 1_555
C16_4 C7_4 1_555 1_555
C17_4 C8_4 1_555 1_555
H8_4 C13_4 1_555 1_555
Zn6 O1_4 1_555 1_555
N3_2 Zn6 1_555 1_555
C6_4 C10_4 1_555 1_555
C12_4 C16_4 1_555 1_555
C13_4 C16_4 1_555 1_555
H2_4 C3_4 1_555 1_555
C11_4 C3_4 1_555 1_555
H4_4 C11_4 1_555 1_555
C22_4 N3_2 1_555 1_555
H11_4 C22_4 1_555 1_555
C32_4 C21_4 1_555 1_555
H15_4 C32_4 1_555 1_555
C22_4 C32_4 1_555 1_555
S3_4 C24_4 1_555 1_555
S4_4 C18_4 1_555 1_555
O5_4 Zn4 1_555 1_555
O8_2 C26_4 1_555 1_555
C18_4 C19_4 1_555 1_555
O12_2 C26_4 1_555 1_555
C19_4 H9_4 1_555 1_555
C23_4 C19_4 1_555 1_555
C24_4 C31_4 1_555 1_555
C25_4 S3_4 1_555 1_555
C26_4 C18_4 1_555 1_555
C27_4 S4_4 1_555 1_555
C29_4 C23_4 1_555 1_555
H13_4 C29_4 1_555 1_555
C30_4 C25_4 1_555 1_555
C31_4 C27_4 1_555 1_555
H14_4 C31_4 1_555 1_555
C33_4 C24_4 1_555 1_555
C34_4 O5_4 1_555 1_555
H16_4 C30_4 1_555 1_555
O9_4 C34_4 1_555 1_555
C23_4 C27_4 1_555 1_555
C25_4 C34_4 1_555 1_555
C29_4 C33_4 1_555 1_555
C30_4 C33_4 1_555 1_555
C5_4 N1_4 1_555 1_555
H3_4 C5_4 1_555 1_555
C15_4 C4_4 1_555 1_555
H7_4 C15_4 1_555 1_555
C20_4 H10_4 1_555 1_555
C28_4 C20_4 1_555 1_555
H12_4 C28_4 1_555 1_555
C5_4 C15_4 1_555 1_555

#END
