
###############################################################################
#
# This file contains modified crystal structure data generated from the
# MOF subset of the Cambridge Structural Database (CSD) v543 
# hosted by the Cambridge Crystallographic Data Centre (CCDC).
#
# This work is licensed under the Creative Commons
# Attribution-NonCommercial-ShareAlike 4.0 International License.
# To view a copy of this license, visit
# http://creativecommons.org/licenses/by-nc-sa/4.0/
# or send a letter to
# Creative Commons, PO Box 1866, Mountain View, CA 94042, USA.
#
# CIF created using the CSD Python API on 29 September 2022
# The structure has been converted into the P1 space group
# The structure has a 3D framework
# The original CSD entry EXIDIZ is in the orthorhombic crystal system
# The original CSD entry EXIDIZ is in a Sohncke space group
# The framework has been calculated to contain at least 10.0% void space
# The void calculation uses a probe of radius 1.32A, grid spacing 0.4
#
###############################################################################

data_EXIDIZ
_chemical_formula_moiety         '(C88 H64 Cu4 N8 O32)n'
_symmetry_cell_setting           triclinic
_symmetry_space_group_name_H-M   'P 1'
_symmetry_Int_Tables_number      1
_space_group_name_Hall           'P 1'
loop_
_symmetry_equiv_pos_site_id
_symmetry_equiv_pos_as_xyz
1 x,y,z
_cell_length_a                   16.8478(8)
_cell_length_b                   17.0353(9)
_cell_length_c                   8.0615(5)
_cell_angle_alpha                90
_cell_angle_beta                 90
_cell_angle_gamma                90
_cell_volume                     2313.71
loop_
_atom_site_label
_atom_site_type_symbol
_atom_site_fract_x
_atom_site_fract_y
_atom_site_fract_z
Cu2 Cu 0.30996(4) 0.34377(4) 0.81652(8)
Cu7 Cu 0.80996(4) 0.15623(4) 0.18348(8)
O9 O 0.3134(3) 0.1847(2) 0.5349(6)
O10 O 0.2339(2) 0.2786(2) 0.6354(5)
O12 O 0.2957(2) 0.4482(2) 0.7207(5)
N3 N 0.7281(3) 0.1333(3) 0.0107(6)
N4 N 0.2281(3) 0.3667(3) 0.9893(6)
O19 O 0.4095(2) 0.3421(2) 0.6874(6)
C23 C 0.1812(3) 0.1795(3) 0.4577(7)
C25 C 0.1367(3) 0.0708(3) 0.2933(8)
C26 C 0.1063(3) 0.2116(4) 0.4512(8)
H19 H 0.0956 0.2586 0.5055
C27 C 0.0621(3) 0.1034(3) 0.2843(7)
H20 H 0.0222 0.0781 0.2251
C28 C 0.1949(3) 0.1079(3) 0.3829(7)
H21 H 0.2445 0.0844 0.3934
C29 C 0.2462(3) 0.2195(4) 0.5527(8)
C32 C 0.0467(3) 0.1736(3) 0.3633(7)
N7 N 0.3443(3) 0.2504(3) 0.9501(6)
C39 C 0.6542(4) 0.1597(4) 0.0121(8)
H28 H 0.6394 0.1939 0.0966
H32 H 0.358(2) 0.207(3) 0.551(9)
C37 C 0.3091(4) 0.1819(3) 0.9537(8)
H26 H 0.2646 0.1747 0.8872
Cu1 Cu 0.19004(4) 0.84377(4) 0.18348(8)
O1 O 0.1866(3) 0.6847(2) 0.4651(6)
O2 O 0.2661(2) 0.7786(2) 0.3646(5)
O6 O 0.3879(3) 0.4748(2) 0.9114(6)
O7 O 0.5506(2) 0.7744(3) 0.6028(6)
N1 N 0.2719(3) 0.8667(3) 0.0107(6)
O8 O 0.5905(2) 0.6579(2) 0.6874(6)
C2 C 0.3188(3) 0.6795(3) 0.5423(7)
C4 C 0.3633(3) 0.5708(3) 0.7067(8)
C5 C 0.3937(3) 0.7116(4) 0.5488(8)
H3 H 0.4044 0.7586 0.4945
C6 C 0.4379(3) 0.6034(3) 0.7157(7)
H4 H 0.4778 0.5781 0.7749
C7 C 0.3051(3) 0.6079(3) 0.6171(7)
H5 H 0.2555 0.5844 0.6066
C8 C 0.2538(3) 0.7195(4) 0.4473(8)
C10 C 0.3481(3) 0.4917(3) 0.7875(8)
C11 C 0.4533(3) 0.6736(3) 0.6367(7)
C18 C 0.3458(4) 0.8403(4) 0.0121(8)
H12 H 0.3606 0.8061 0.0966
C21 C 0.5390(3) 0.7048(4) 0.6421(7)
H16 H 0.142(2) 0.707(3) 0.449(9)
Cu4 Cu 0.69004(4) 0.65623(4) 0.81652(8)
O11 O 0.2043(2) 0.9482(2) 0.2793(5)
O15 O 0.1121(3) 0.9748(2) 0.0886(6)
O18 O 0.0905(2) 0.8421(2) 0.3126(6)
C31 C 0.1519(3) 0.9917(3) 0.2125(8)
N6 N 0.1557(3) 0.7504(3) 0.0499(6)
N2 N 0.6557(3) 0.7496(3) 0.9501(6)
C16 C 0.6909(4) 0.8181(3) 0.9537(8)
H10 H 0.7354 0.8253 0.8872
O16 O 0.9494(2) 0.2744(3) 0.3972(6)
O17 O 0.9095(2) 0.1579(2) 0.3126(6)
C42 C 0.9610(3) 0.2048(4) 0.3579(7)
O16_2 O 0.0506(2) 0.7256(3) 0.3972(6)
C42_2 C 0.0390(3) 0.7952(4) 0.3579(7)
O1_2 O 0.8134(3) 0.3153(2) 0.4651(6)
O2_2 O 0.7339(2) 0.2214(2) 0.3646(5)
O3 O 0.7043(2) 0.5518(2) 0.7207(5)
O6_2 O 0.6121(3) 0.5252(2) 0.9114(6)
O7_2 O 0.4494(2) 0.2256(3) 0.6028(6)
C2_2 C 0.6812(3) 0.3205(3) 0.5423(7)
C4_2 C 0.6367(3) 0.4292(3) 0.7067(8)
C5_2 C 0.6063(3) 0.2884(4) 0.5488(8)
H3_2 H 0.5956 0.2414 0.4945
C6_2 C 0.5621(3) 0.3966(3) 0.7157(7)
H4_2 H 0.5222 0.4219 0.7749
C7_2 C 0.6949(3) 0.3921(3) 0.6171(7)
H5_2 H 0.7445 0.4156 0.6066
C8_2 C 0.7462(3) 0.2805(4) 0.4473(8)
C10_2 C 0.6519(3) 0.5083(3) 0.7875(8)
C11_2 C 0.5467(3) 0.3264(3) 0.6367(7)
C21_2 C 0.4610(3) 0.2952(4) 0.6421(7)
H16_2 H 0.858(2) 0.293(3) 0.449(9)
O11_2 O 0.7957(2) 0.0518(2) 0.2793(5)
O15_2 O 0.8879(3) 0.0252(2) 0.0886(6)
C31_2 C 0.8481(3) 0.0083(3) 0.2125(8)
N6_2 N 0.8443(3) 0.2496(3) 0.0499(6)
O9_2 O 0.6866(3) 0.8153(2) 0.5349(6)
O10_2 O 0.7661(2) 0.7214(2) 0.6354(5)
N4_2 N 0.7719(3) 0.6333(3) 0.9893(6)
C23_2 C 0.8188(3) 0.8205(3) 0.4577(7)
C25_2 C 0.8633(3) 0.9292(3) 0.2933(8)
C26_2 C 0.8937(3) 0.7884(4) 0.4512(8)
H19_2 H 0.9044 0.7414 0.5055
C27_2 C 0.9379(3) 0.8966(3) 0.2843(7)
H20_2 H 0.9778 0.9219 0.2251
C28_2 C 0.8051(3) 0.8921(3) 0.3829(7)
H21_2 H 0.7555 0.9156 0.3934
C29_2 C 0.7538(3) 0.7805(4) 0.5527(8)
C32_2 C 0.9533(3) 0.8264(3) 0.3633(7)
H32_2 H 0.642(2) 0.793(3) 0.551(9)
C16_2 C 0.1909(4) 0.6819(3) 0.0463(8)
H10_2 H 0.2354 0.6747 0.1128
C39_2 C 0.1542(4) 0.3403(4) 0.9879(8)
H28_2 H 0.1394 0.3061 0.9034
C37_2 C 0.8091(4) 0.3181(3) 0.0463(8)
H26_2 H 0.7646 0.3253 0.1128
C18_2 C 0.8458(4) 0.6597(4) 0.9879(8)
H12_2 H 0.8606 0.6939 0.9034
C1 C 0.5000 -0.0000 0.4399(9)
H7 H 0.4148 0.0405 0.6057
O13 O 0.4207(2) 0.0670(2) 0.2382(5)
O14 O 0.5603(2) 0.0703(2) 0.6647(6)
C24 C 0.4921(3) 0.0733(3) 0.3381(7)
H17 H 0.4887 0.1188 0.4102
H18 H 0.5381 0.0795 0.2670
C30 C 0.6178(4) 0.0899(3) 0.7721(7)
C33 C 0.3990(4) 0.1293(3) 0.1479(7)
C34 C 0.4073(4) 0.2599(4) 0.0513(8)
H22 H 0.4322 0.3086 0.0527
C35 C 0.5746(4) 0.0083(4) 0.5478(8)
H24 H 0.6201 0.0208 0.4792
C36 C 0.4364(3) 0.2029(3) 0.1510(8)
H25 H 0.4799 0.2122 0.2194
C38 C 0.3336(4) 0.1210(4) 0.0482(8)
H27 H 0.3061 0.0736 0.0457
C40 C 0.5975(4) 0.1393(4) 0.8942(9)
H29 H 0.5463 0.1596 0.9001
C41 C 0.7467(4) 0.0875(4) 0.8831(8)
H30 H 0.7989 0.0700 0.8751
C43 C 0.6945(4) 0.0642(4) 0.7626(8)
H31 H 0.7109 0.0316 0.6765
O4 O 0.5793(2) 0.9330(2) 0.2382(5)
O5 O 0.4397(2) 0.9297(2) 0.6647(6)
C1_2 C 0.5000 1.0000 0.4399(9)
C3 C 0.5079(3) 0.9267(3) 0.3381(7)
H1 H 0.5113 0.8812 0.4102
H2 H 0.4619 0.9205 0.2670
C9 C 0.3822(4) 0.9101(3) 0.7721(7)
C12 C 0.6010(4) 0.8707(3) 0.1479(7)
C13 C 0.5927(4) 0.7401(4) 0.0513(8)
H6 H 0.5678 0.6914 0.0527
C14 C 0.4254(4) 0.9917(4) 0.5478(8)
H8 H 0.3799 0.9792 0.4792
C15 C 0.5636(3) 0.7971(3) 0.1510(8)
H9 H 0.5201 0.7878 0.2194
C17 C 0.6664(4) 0.8790(4) 0.0482(8)
H11 H 0.6939 0.9264 0.0457
C19 C 0.4025(4) 0.8607(4) 0.8942(9)
H13 H 0.4537 0.8404 0.9001
C20 C 0.2533(4) 0.9125(4) 0.8831(8)
H14 H 0.2011 0.9300 0.8751
C22 C 0.3055(4) 0.9358(4) 0.7626(8)
H15 H 0.2891 0.9684 0.6765
H23 H 0.5852 0.9595 0.6057
O4_2 O 0.0793(2) 0.5670(2) 0.7618(5)
C1_3 C 0.0000 0.5000 0.5601(9)
C3_2 C 0.0079(3) 0.5733(3) 0.6619(7)
H1_2 H 0.0113 0.6188 0.5898
C12_2 C 0.1010(4) 0.6293(3) 0.8521(7)
C13_2 C 0.0927(4) 0.7599(4) 0.9487(8)
H6_2 H 0.0678 0.8086 0.9473
C15_2 C 0.0636(3) 0.7029(3) 0.8490(8)
H9_2 H 0.0201 0.7122 0.7806
C17_2 C 0.1664(4) 0.6210(4) 0.9518(8)
H11_2 H 0.1939 0.5736 0.9543
O14_2 O 0.0603(2) 0.4297(2) 0.3353(6)
H18_2 H 0.0381 0.4205 0.7330
C30_2 C 0.1178(4) 0.4101(3) 0.2279(7)
C35_2 C 0.0746(4) 0.4917(4) 0.4522(8)
H23_2 H 0.0852 0.5405 0.3943
H24_2 H 0.1201 0.4792 0.5208
C40_2 C 0.0975(4) 0.3607(4) 0.1058(9)
H29_2 H 0.0463 0.3404 0.0999
C41_2 C 0.2467(4) 0.4125(4) 0.1169(8)
H30_2 H 0.2989 0.4300 0.1249
C43_2 C 0.1945(4) 0.4358(4) 0.2374(8)
H31_2 H 0.2109 0.4684 0.3235
O5_2 O 0.9397(2) 0.5703(2) 0.3353(6)
C1_4 C 1.0000 0.5000 0.5601(9)
H2_2 H 0.9619 0.5795 0.7330
C9_2 C 0.8822(4) 0.5899(3) 0.2279(7)
C14_2 C 0.9254(4) 0.5083(4) 0.4522(8)
H7_2 H 0.9148 0.4595 0.3943
H8_2 H 0.8799 0.5208 0.5208
C19_2 C 0.9025(4) 0.6393(4) 0.1058(9)
H13_2 H 0.9537 0.6596 0.0999
C20_2 C 0.7533(4) 0.5875(4) 0.1169(8)
H14_2 H 0.7011 0.5700 0.1249
C22_2 C 0.8055(4) 0.5642(4) 0.2374(8)
H15_2 H 0.7891 0.5316 0.3235
O13_2 O 0.9207(2) 0.4330(2) 0.7618(5)
C24_2 C 0.9921(3) 0.4267(3) 0.6619(7)
H17_2 H 0.9887 0.3812 0.5898
C33_2 C 0.8990(4) 0.3707(3) 0.8521(7)
C34_2 C 0.9073(4) 0.2401(4) 0.9487(8)
H22_2 H 0.9322 0.1914 0.9473
C36_2 C 0.9364(3) 0.2971(3) 0.8490(8)
H25_2 H 0.9799 0.2878 0.7806
C38_2 C 0.8336(4) 0.3790(4) 0.9518(8)
H27_2 H 0.8061 0.4264 0.9543
loop_
_geom_bond_atom_site_label_1
_geom_bond_atom_site_label_2
_geom_bond_site_symmetry_1
_geom_bond_site_symmetry_2
Cu2 O10 1_555 1_555
Cu7 N3 1_555 1_555
O9 C29 1_555 1_555
O10 C29 1_555 1_555
O12 Cu2 1_555 1_555
N3 C39 1_555 1_555
N4 Cu2 1_555 1_555
O19 Cu2 1_555 1_555
C23 C26 1_555 1_555
C25 C27 1_555 1_555
C26 H19 1_555 1_555
C27 H20 1_555 1_555
C28 C23 1_555 1_555
H21 C28 1_555 1_555
C29 C23 1_555 1_555
C32 C26 1_555 1_555
N7 Cu2 1_555 1_555
C39 H28 1_555 1_555
H32 O9 1_555 1_555
C25 C28 1_555 1_555
C27 C32 1_555 1_555
C37 N7 1_555 1_555
H26 C37 1_555 1_555
Cu1 O2 1_555 1_555
O1 C8 1_555 1_555
O2 C8 1_555 1_555
O12 C10 1_555 1_555
O6 C10 1_555 1_555
O7 C21 1_555 1_555
N1 Cu1 1_555 1_555
O8 C21 1_555 1_555
C2 C5 1_555 1_555
C4 C6 1_555 1_555
C5 H3 1_555 1_555
C6 H4 1_555 1_555
C7 C2 1_555 1_555
H5 C7 1_555 1_555
C8 C2 1_555 1_555
C10 C4 1_555 1_555
C11 C5 1_555 1_555
C18 N1 1_555 1_555
H12 C18 1_555 1_555
C21 C11 1_555 1_555
H16 O1 1_555 1_555
Cu4 O8 1_555 1_555
O11 Cu1 1_555 1_555
O15 C31 1_555 1_555
O18 Cu1 1_555 1_555
C31 O11 1_555 1_555
N6 Cu1 1_555 1_555
C4 C7 1_555 1_555
C6 C11 1_555 1_555
C16 N2 1_555 1_555
H10 C16 1_555 1_555
Cu4 N2 1_555 1_555
Cu7 O17 1_555 1_555
O16 C42 1_555 1_555
O17 C42 1_555 1_555
O16_2 C42_2 1_555 1_555
O18 C42_2 1_555 1_555
Cu7 O2_2 1_555 1_555
O1_2 C8_2 1_555 1_555
O2_2 C8_2 1_555 1_555
O3 C10_2 1_555 1_555
O6_2 C10_2 1_555 1_555
O7_2 C21_2 1_555 1_555
O19 C21_2 1_555 1_555
C2_2 C5_2 1_555 1_555
C4_2 C6_2 1_555 1_555
C5_2 H3_2 1_555 1_555
C6_2 H4_2 1_555 1_555
C7_2 C2_2 1_555 1_555
H5_2 C7_2 1_555 1_555
C8_2 C2_2 1_555 1_555
C10_2 C4_2 1_555 1_555
C11_2 C5_2 1_555 1_555
C21_2 C11_2 1_555 1_555
H16_2 O1_2 1_555 1_555
Cu4 O3 1_555 1_555
O11_2 Cu7 1_555 1_555
O15_2 C31_2 1_555 1_555
C31_2 O11_2 1_555 1_555
N6_2 Cu7 1_555 1_555
C4_2 C7_2 1_555 1_555
C6_2 C11_2 1_555 1_555
Cu4 O10_2 1_555 1_555
O9_2 C29_2 1_555 1_555
O10_2 C29_2 1_555 1_555
N4_2 Cu4 1_555 1_555
C23_2 C26_2 1_555 1_555
C25_2 C27_2 1_555 1_555
C26_2 H19_2 1_555 1_555
C27_2 H20_2 1_555 1_555
C28_2 C23_2 1_555 1_555
H21_2 C28_2 1_555 1_555
C29_2 C23_2 1_555 1_555
C32_2 C26_2 1_555 1_555
H32_2 O9_2 1_555 1_555
C25_2 C28_2 1_555 1_555
C27_2 C32_2 1_555 1_555
C16_2 N6 1_555 1_555
H10_2 C16_2 1_555 1_555
N4 C39_2 1_555 1_555
C39_2 H28_2 1_555 1_555
C37_2 N6_2 1_555 1_555
H26_2 C37_2 1_555 1_555
C18_2 N4_2 1_555 1_555
H12_2 C18_2 1_555 1_555
O13 C24 1_555 1_555
O14 C30 1_555 1_555
C24 C1 1_555 1_555
H17 C24 1_555 1_555
H18 C24 1_555 1_555
C30 C40 1_555 1_555
C33 O13 1_555 1_555
C34 H22 1_555 1_555
C35 C1 1_555 1_555
H24 C35 1_555 1_555
C36 C33 1_555 1_555
H25 C36 1_555 1_555
C38 C33 1_555 1_555
H27 C38 1_555 1_555
H29 C40 1_555 1_555
H30 C41 1_555 1_555
C43 C30 1_555 1_555
H31 C43 1_555 1_555
O14 C35 1_555 1_555
C34 C36 1_555 1_555
C41 C43 1_555 1_555
O4 C3 1_555 1_555
O5 C9 1_555 1_555
C1_2 C3 1_555 1_555
C3 H1 1_555 1_555
H2 C3 1_555 1_555
C9 C19 1_555 1_555
C12 O4 1_555 1_555
C13 H6 1_555 1_555
C14 O5 1_555 1_555
H8 C14 1_555 1_555
C15 C12 1_555 1_555
H9 C15 1_555 1_555
C17 C12 1_555 1_555
H11 C17 1_555 1_555
H13 C19 1_555 1_555
H14 C20 1_555 1_555
C22 C9 1_555 1_555
H15 C22 1_555 1_555
C1_2 C14 1_555 1_555
C13 C15 1_555 1_555
C20 C22 1_555 1_555
O4_2 C3_2 1_555 1_555
C1_3 C3_2 1_555 1_555
C3_2 H1_2 1_555 1_555
C12_2 O4_2 1_555 1_555
C13_2 H6_2 1_555 1_555
C15_2 C12_2 1_555 1_555
H9_2 C15_2 1_555 1_555
C17_2 C12_2 1_555 1_555
H11_2 C17_2 1_555 1_555
O14_2 C30_2 1_555 1_555
C30_2 C40_2 1_555 1_555
C35_2 C1_3 1_555 1_555
H23_2 C35_2 1_555 1_555
H24_2 C35_2 1_555 1_555
H29_2 C40_2 1_555 1_555
H30_2 C41_2 1_555 1_555
C43_2 C30_2 1_555 1_555
H31_2 C43_2 1_555 1_555
C13_2 C15_2 1_555 1_555
O14_2 C35_2 1_555 1_555
C41_2 C43_2 1_555 1_555
O5_2 C9_2 1_555 1_555
C9_2 C19_2 1_555 1_555
C14_2 O5_2 1_555 1_555
H7_2 C14_2 1_555 1_555
H8_2 C14_2 1_555 1_555
H13_2 C19_2 1_555 1_555
H14_2 C20_2 1_555 1_555
C22_2 C9_2 1_555 1_555
H15_2 C22_2 1_555 1_555
O13_2 C24_2 1_555 1_555
C24_2 C1_4 1_555 1_555
H17_2 C24_2 1_555 1_555
C33_2 O13_2 1_555 1_555
C34_2 H22_2 1_555 1_555
C36_2 C33_2 1_555 1_555
H25_2 C36_2 1_555 1_555
C38_2 C33_2 1_555 1_555
H27_2 C38_2 1_555 1_555
C1_4 C14_2 1_555 1_555
C20_2 C22_2 1_555 1_555
C34_2 C36_2 1_555 1_555

#END
