
###############################################################################
#
# This file contains modified crystal structure data generated from the
# MOF subset of the Cambridge Structural Database (CSD) v543 
# hosted by the Cambridge Crystallographic Data Centre (CCDC).
#
# This work is licensed under the Creative Commons
# Attribution-NonCommercial-ShareAlike 4.0 International License.
# To view a copy of this license, visit
# http://creativecommons.org/licenses/by-nc-sa/4.0/
# or send a letter to
# Creative Commons, PO Box 1866, Mountain View, CA 94042, USA.
#
# CIF created using the CSD Python API on 29 September 2022
# The structure has been converted into the P1 space group
# The structure has a 3D framework
# The original CSD entry EXOJAC is in the monoclinic crystal system
# The framework has been calculated to contain at least 10.0% void space
# The void calculation uses a probe of radius 1.32A, grid spacing 0.4
# The framework is charged, counterions have been retained in the structure
#
###############################################################################

data_EXOJAC
_chemical_formula_moiety         '(C104 H96 Cu6 N30 6+)n'
_symmetry_cell_setting           triclinic
_symmetry_space_group_name_H-M   'P 1'
_symmetry_Int_Tables_number      1
_space_group_name_Hall           'P 1'
loop_
_symmetry_equiv_pos_site_id
_symmetry_equiv_pos_as_xyz
1 x,y,z
_cell_length_a                   18.110(6)
_cell_length_b                   19.789(6)
_cell_length_c                   9.205(4)
_cell_angle_alpha                90
_cell_angle_beta                 102.48(2)
_cell_angle_gamma                90
_cell_volume                     3220.93
loop_
_atom_site_label
_atom_site_type_symbol
_atom_site_fract_x
_atom_site_fract_y
_atom_site_fract_z
Cu2 Cu -0.0000 0.82394(5) 0.7500
H18 H 0.2145 0.6776 0.0028
N10 N 0.5053(4) 0.3354(3) 0.0116(7)
Cu1 Cu 0.5000 0.32394(5) 0.7500
N1 N 0.5842(3) 0.3955(2) 0.7816(6)
N2 N 0.9214(3) 0.7490(2) 0.7273(6)
C1 C 0.6463(4) 0.3880(4) 0.7237(8)
H1 H 0.6510 0.3493 0.6692
C2 C 0.7029(5) 0.4362(5) 0.7431(9)
H2 H 0.7464 0.4279 0.7074
C3 C 0.6960(5) 0.4962(4) 0.8145(9)
C4 C 0.6327(5) 0.5039(4) 0.8738(9)
H3 H 0.6256 0.5433 0.9242
C5 C 0.5807(4) 0.4531(3) 0.8576(8)
H4 H 0.5397 0.4587 0.9024
C6 C 0.8725(4) 0.7348(3) 0.6022(8)
H5 H 0.8744 0.7605 0.5185
C7 C 0.8190(4) 0.6845(3) 0.5879(8)
H6 H 0.7855 0.6776 0.4972
C8 C 0.8155(4) 0.6440(4) 0.7102(8)
C9 C 0.8684(5) 0.6571(4) 0.8405(9)
H7 H 0.8695 0.6307 0.9246
C10 C 0.9196(4) 0.7093(3) 0.8450(8)
H8 H 0.9544 0.7174 0.9336
C11 C 0.7547(5) 0.5914(5) 0.6957(10)
H9 H 0.7594 0.5605 0.6164
H10 H 0.7058 0.6133 0.6673
C12 C 0.7571(6) 0.5511(6) 0.8366(11)
H11 H 0.7500 0.5815 0.9152
H12 H 0.8064 0.5302 0.8675
N3 N 0.5000 0.3795(5) 0.2500
C13 C 0.4975(8) 0.3494(5) 0.3740(11)
N4 N 0.4947(4) 0.3354(3) 0.4884(7)
C14 C 0.5025(8) 0.3494(5) 0.1260(11)
N6 N 0.4158(3) 0.3955(2) 0.7184(6)
N7 N 0.0786(3) 0.7490(2) 0.7727(6)
C15 C 0.3537(4) 0.3880(4) 0.7763(8)
H13 H 0.3490 0.3493 0.8308
C16 C 0.2971(5) 0.4362(5) 0.7569(9)
H14 H 0.2536 0.4279 0.7926
C17 C 0.3040(5) 0.4962(4) 0.6855(9)
C18 C 0.3673(5) 0.5039(4) 0.6262(9)
H15 H 0.3744 0.5433 0.5758
C19 C 0.4193(4) 0.4531(3) 0.6424(8)
H16 H 0.4603 0.4587 0.5976
C20 C 0.1275(4) 0.7348(3) 0.8978(8)
H17 H 0.1256 0.7605 0.9815
C21 C 0.1810(4) 0.6845(3) 0.9121(8)
C22 C 0.1845(4) 0.6440(4) 0.7898(8)
C23 C 0.1316(5) 0.6571(4) 0.6595(9)
H19 H 0.1305 0.6307 0.5754
C24 C 0.0804(4) 0.7093(3) 0.6550(8)
H20 H 0.0456 0.7174 0.5664
C25 C 0.2453(5) 0.5914(5) 0.8043(10)
H21 H 0.2406 0.5605 0.8836
H22 H 0.2942 0.6133 0.8327
C26 C 0.2429(6) 0.5511(6) 0.6634(11)
H23 H 0.2500 0.5815 0.5848
H24 H 0.1936 0.5302 0.6325
N8 N 0.4214(3) 0.2490(2) 0.7273(6)
N9 N 0.5786(3) 0.2490(2) 0.7727(6)
Cu2_2 Cu 1.0000 0.82394(5) 0.7500
C4_2 C 0.1327(5) 0.0039(4) 0.8738(9)
H3_2 H 0.1256 0.0433 0.9242
C6_2 C 0.3725(4) 0.2348(3) 0.6022(8)
H5_2 H 0.3744 0.2605 0.5185
C7_2 C 0.3190(4) 0.1845(3) 0.5879(8)
H6_2 H 0.2855 0.1776 0.4972
C8_2 C 0.3155(4) 0.1440(4) 0.7102(8)
C9_2 C 0.3684(5) 0.1571(4) 0.8405(9)
H7_2 H 0.3695 0.1307 0.9246
C10_2 C 0.4196(4) 0.2093(3) 0.8450(8)
H8_2 H 0.4544 0.2174 0.9336
C11_2 C 0.2547(5) 0.0914(5) 0.6957(10)
H9_2 H 0.2594 0.0605 0.6164
H10_2 H 0.2058 0.1133 0.6673
C12_2 C 0.2571(6) 0.0511(6) 0.8366(11)
H11_2 H 0.2500 0.0815 0.9152
H12_2 H 0.3064 0.0302 0.8675
N10_2 N 0.0053(4) 0.8354(3) 0.0116(7)
N1_2 N 0.0842(3) 0.8955(2) 0.7816(6)
C1_2 C 0.1463(4) 0.8880(4) 0.7237(8)
H1_2 H 0.1510 0.8493 0.6692
C2_2 C 0.2029(5) 0.9362(5) 0.7431(9)
H2_2 H 0.2464 0.9279 0.7074
C3_2 C 0.1960(5) 0.9962(4) 0.8145(9)
C5_2 C 0.0807(4) 0.9531(3) 0.8576(8)
H4_2 H 0.0397 0.9587 0.9024
N3_2 N -0.0000 0.8795(5) 0.2500
C14_2 C 0.0025(8) 0.8494(5) 0.1260(11)
C18_2 C 0.8673(5) 0.0039(4) 0.6262(9)
H15_2 H 0.8744 0.0433 0.5758
C20_2 C 0.6275(4) 0.2348(3) 0.8978(8)
H17_2 H 0.6256 0.2605 0.9815
C21_2 C 0.6810(4) 0.1845(3) 0.9121(8)
C22_2 C 0.6845(4) 0.1440(4) 0.7898(8)
C23_2 C 0.6316(5) 0.1571(4) 0.6595(9)
H19_2 H 0.6305 0.1307 0.5754
C24_2 C 0.5804(4) 0.2093(3) 0.6550(8)
H20_2 H 0.5456 0.2174 0.5664
C25_2 C 0.7453(5) 0.0914(5) 0.8043(10)
H21_2 H 0.7406 0.0605 0.8836
H22_2 H 0.7942 0.1133 0.8327
C26_2 C 0.7429(6) 0.0511(6) 0.6634(11)
H23_2 H 0.7500 0.0815 0.5848
H24_2 H 0.6936 0.0302 0.6325
N3_3 N 1.0000 0.8795(5) 0.2500
C13_2 C 0.9975(8) 0.8494(5) 0.3740(11)
N4_2 N 0.9947(4) 0.8354(3) 0.4884(7)
N6_2 N 0.9158(3) 0.8955(2) 0.7184(6)
C15_2 C 0.8537(4) 0.8880(4) 0.7763(8)
H13_2 H 0.8490 0.8493 0.8308
C16_2 C 0.7971(5) 0.9362(5) 0.7569(9)
H14_2 H 0.7536 0.9279 0.7926
C17_2 C 0.8040(5) 0.9962(4) 0.6855(9)
C19_2 C 0.9193(4) 0.9531(3) 0.6424(8)
H16_2 H 0.9603 0.9587 0.5976
H18_2 H 0.7145 0.1776 0.0028
Cu2_3 Cu -0.0000 0.17606(5) 0.2500
Cu1_2 Cu 0.5000 0.67606(5) 0.2500
N1_3 N 0.5842(3) 0.6045(2) 0.2816(6)
N2_2 N 0.9214(3) 0.2510(2) 0.2273(6)
C1_3 C 0.6463(4) 0.6120(4) 0.2237(8)
H1_3 H 0.6510 0.6507 0.1692
C2_3 C 0.7029(5) 0.5638(5) 0.2431(9)
H2_3 H 0.7464 0.5721 0.2074
C3_3 C 0.6960(5) 0.5038(4) 0.3145(9)
C4_3 C 0.6327(5) 0.4961(4) 0.3738(9)
H3_3 H 0.6256 0.4567 0.4242
C5_3 C 0.5807(4) 0.5469(3) 0.3576(8)
H4_3 H 0.5397 0.5413 0.4024
C6_3 C 0.8725(4) 0.2652(3) 0.1022(8)
H5_3 H 0.8744 0.2395 0.0185
C7_3 C 0.8190(4) 0.3155(3) 0.0879(8)
C8_3 C 0.8155(4) 0.3560(4) 0.2102(8)
C9_3 C 0.8684(5) 0.3429(4) 0.3405(9)
H7_3 H 0.8695 0.3693 0.4246
C10_3 C 0.9196(4) 0.2907(3) 0.3450(8)
H8_3 H 0.9544 0.2826 0.4336
C11_3 C 0.7547(5) 0.4086(5) 0.1957(10)
H9_3 H 0.7594 0.4395 0.1164
H10_3 H 0.7058 0.3867 0.1673
C12_3 C 0.7571(6) 0.4489(6) 0.3366(11)
H11_3 H 0.7500 0.4185 0.4152
H12_3 H 0.8064 0.4698 0.3675
N6_3 N 0.4158(3) 0.6045(2) 0.2184(6)
N7_2 N 0.0786(3) 0.2510(2) 0.2727(6)
C15_3 C 0.3537(4) 0.6120(4) 0.2763(8)
H13_3 H 0.3490 0.6507 0.3308
C16_3 C 0.2971(5) 0.5638(5) 0.2569(9)
H14_3 H 0.2536 0.5721 0.2926
C17_3 C 0.3040(5) 0.5038(4) 0.1855(9)
C18_3 C 0.3673(5) 0.4961(4) 0.1262(9)
H15_3 H 0.3744 0.4567 0.0758
C19_3 C 0.4193(4) 0.5469(3) 0.1424(8)
H16_3 H 0.4603 0.5413 0.0976
C20_3 C 0.1275(4) 0.2652(3) 0.3978(8)
H17_3 H 0.1256 0.2395 0.4815
C21_3 C 0.1810(4) 0.3155(3) 0.4121(8)
H18_3 H 0.2145 0.3224 0.5028
C22_3 C 0.1845(4) 0.3560(4) 0.2898(8)
C23_3 C 0.1316(5) 0.3429(4) 0.1595(9)
H19_3 H 0.1305 0.3693 0.0754
C24_3 C 0.0804(4) 0.2907(3) 0.1550(8)
H20_3 H 0.0456 0.2826 0.0664
C25_3 C 0.2453(5) 0.4086(5) 0.3043(10)
H21_3 H 0.2406 0.4395 0.3836
H22_3 H 0.2942 0.3867 0.3327
C26_3 C 0.2429(6) 0.4489(6) 0.1634(11)
H23_3 H 0.2500 0.4185 0.0848
H24_3 H 0.1936 0.4698 0.1325
N8_2 N 0.4214(3) 0.7510(2) 0.2273(6)
N9_2 N 0.5786(3) 0.7510(2) 0.2727(6)
N10_3 N 0.5053(4) 0.6646(3) 0.5116(7)
Cu2_4 Cu 1.0000 0.17606(5) 0.2500
H6_3 H 0.7855 0.3224 0.9972
N3_4 N 0.5000 0.6205(5) 0.7500
C13_3 C 0.4975(8) 0.6506(5) 0.8740(11)
N4_3 N 0.4947(4) 0.6646(3) 0.9884(7)
C14_3 C 0.5025(8) 0.6506(5) 0.6260(11)
N1_4 N 0.0842(3) 0.1045(2) 0.2816(6)
C1_4 C 0.1463(4) 0.1120(4) 0.2237(8)
H1_4 H 0.1510 0.1507 0.1692
C2_4 C 0.2029(5) 0.0638(5) 0.2431(9)
H2_4 H 0.2464 0.0721 0.2074
C3_4 C 0.1960(5) 0.0038(4) 0.3145(9)
C5_4 C 0.0807(4) 0.0469(3) 0.3576(8)
H4_4 H 0.0397 0.0413 0.4024
N10_4 N 0.0053(4) 0.1646(3) 0.5116(7)
N3_5 N -0.0000 0.1205(5) 0.7500
C14_4 C 0.0025(8) 0.1506(5) 0.6260(11)
C4_4 C 0.1327(5) 0.9961(4) 0.3738(9)
H3_4 H 0.1256 0.9567 0.4242
C6_4 C 0.3725(4) 0.7652(3) 0.1022(8)
H5_4 H 0.3744 0.7395 0.0185
C7_4 C 0.3190(4) 0.8155(3) 0.0879(8)
C8_4 C 0.3155(4) 0.8560(4) 0.2102(8)
C9_4 C 0.3684(5) 0.8429(4) 0.3405(9)
H7_4 H 0.3695 0.8693 0.4246
C10_4 C 0.4196(4) 0.7907(3) 0.3450(8)
H8_4 H 0.4544 0.7826 0.4336
C11_4 C 0.2547(5) 0.9086(5) 0.1957(10)
H9_4 H 0.2594 0.9395 0.1164
H10_4 H 0.2058 0.8867 0.1673
C12_4 C 0.2571(6) 0.9489(6) 0.3366(11)
H11_4 H 0.2500 0.9185 0.4152
H12_4 H 0.3064 0.9698 0.3675
N6_4 N 0.9158(3) 0.1045(2) 0.2184(6)
C15_4 C 0.8537(4) 0.1120(4) 0.2763(8)
H13_4 H 0.8490 0.1507 0.3308
C16_4 C 0.7971(5) 0.0638(5) 0.2569(9)
H14_4 H 0.7536 0.0721 0.2926
C17_4 C 0.8040(5) 0.0038(4) 0.1855(9)
C19_4 C 0.9193(4) 0.0469(3) 0.1424(8)
H16_4 H 0.9603 0.0413 0.0976
N3_6 N 1.0000 0.1205(5) 0.7500
C13_4 C 0.9975(8) 0.1506(5) 0.8740(11)
N4_4 N 0.9947(4) 0.1646(3) 0.9884(7)
C18_4 C 0.8673(5) 0.9961(4) 0.1262(9)
H15_4 H 0.8744 0.9567 0.0758
C20_4 C 0.6275(4) 0.7652(3) 0.3978(8)
H17_4 H 0.6256 0.7395 0.4815
C21_4 C 0.6810(4) 0.8155(3) 0.4121(8)
H18_4 H 0.7145 0.8224 0.5028
C22_4 C 0.6845(4) 0.8560(4) 0.2898(8)
C23_4 C 0.6316(5) 0.8429(4) 0.1595(9)
H19_4 H 0.6305 0.8693 0.0754
C24_4 C 0.5804(4) 0.7907(3) 0.1550(8)
H20_4 H 0.5456 0.7826 0.0664
C25_4 C 0.7453(5) 0.9086(5) 0.3043(10)
H21_4 H 0.7406 0.9395 0.3836
H22_4 H 0.7942 0.8867 0.3327
C26_4 C 0.7429(6) 0.9489(6) 0.1634(11)
H23_4 H 0.7500 0.9185 0.0848
H24_4 H 0.6936 0.9698 0.1325
H6_4 H 0.2855 0.8224 0.9972
loop_
_geom_bond_atom_site_label_1
_geom_bond_atom_site_label_2
_geom_bond_site_symmetry_1
_geom_bond_site_symmetry_2
Cu1 N1 1_555 1_555
N1 C1 1_555 1_555
N2 C6 1_555 1_555
C1 H1 1_555 1_555
C2 C1 1_555 1_555
H2 C2 1_555 1_555
C3 C2 1_555 1_555
C4 C3 1_555 1_555
H3 C4 1_555 1_555
C5 N1 1_555 1_555
H4 C5 1_555 1_555
C6 H5 1_555 1_555
C7 C6 1_555 1_555
H6 C7 1_555 1_555
C8 C7 1_555 1_555
C9 C8 1_555 1_555
H7 C9 1_555 1_555
C10 N2 1_555 1_555
H8 C10 1_555 1_555
C11 C8 1_555 1_555
H9 C11 1_555 1_555
H10 C11 1_555 1_555
C12 C3 1_555 1_555
H11 C12 1_555 1_555
H12 C12 1_555 1_555
N3 C13 1_555 1_555
C13 N4 1_555 1_555
N4 Cu1 1_555 1_555
C14 N3 1_555 1_555
N10 C14 1_555 1_555
N6 Cu1 1_555 1_555
N7 C20 1_555 1_555
C15 N6 1_555 1_555
H13 C15 1_555 1_555
C16 C15 1_555 1_555
H14 C16 1_555 1_555
C17 C16 1_555 1_555
C18 C17 1_555 1_555
H15 C18 1_555 1_555
C19 N6 1_555 1_555
H16 C19 1_555 1_555
C20 H17 1_555 1_555
C21 C20 1_555 1_555
C22 C21 1_555 1_555
C23 C22 1_555 1_555
H19 C23 1_555 1_555
C24 N7 1_555 1_555
H20 C24 1_555 1_555
C25 C22 1_555 1_555
H21 C25 1_555 1_555
H22 C25 1_555 1_555
C26 C17 1_555 1_555
H23 C26 1_555 1_555
H24 C26 1_555 1_555
N8 Cu1 1_555 1_555
N9 Cu1 1_555 1_555
Cu2_2 N2 1_555 1_555
Cu2 N7 1_555 1_555
C4 C5 1_555 1_555
C9 C10 1_555 1_555
C11 C12 1_555 1_555
C18 C19 1_555 1_555
C23 C24 1_555 1_555
C25 C26 1_555 1_555
N8 C6_2 1_555 1_555
H3_2 C4_2 1_555 1_555
C6_2 H5_2 1_555 1_555
C7_2 C6_2 1_555 1_555
H6_2 C7_2 1_555 1_555
C8_2 C7_2 1_555 1_555
C9_2 C8_2 1_555 1_555
H7_2 C9_2 1_555 1_555
C10_2 N8 1_555 1_555
H8_2 C10_2 1_555 1_555
C11_2 C8_2 1_555 1_555
H9_2 C11_2 1_555 1_555
H10_2 C11_2 1_555 1_555
H11_2 C12_2 1_555 1_555
H12_2 C12_2 1_555 1_555
C9_2 C10_2 1_555 1_555
C11_2 C12_2 1_555 1_555
Cu2 N1_2 1_555 1_555
N1_2 C1_2 1_555 1_555
C1_2 H1_2 1_555 1_555
C2_2 C1_2 1_555 1_555
H2_2 C2_2 1_555 1_555
C3_2 C2_2 1_555 1_555
C5_2 N1_2 1_555 1_555
H4_2 C5_2 1_555 1_555
C14_2 N3_2 1_555 1_555
N10_2 C14_2 1_555 1_555
N9 C20_2 1_555 1_555
H15_2 C18_2 1_555 1_555
C20_2 H17_2 1_555 1_555
C21_2 C20_2 1_555 1_555
C22_2 C21_2 1_555 1_555
C23_2 C22_2 1_555 1_555
H19_2 C23_2 1_555 1_555
C24_2 N9 1_555 1_555
H20_2 C24_2 1_555 1_555
C25_2 C22_2 1_555 1_555
H21_2 C25_2 1_555 1_555
H22_2 C25_2 1_555 1_555
H23_2 C26_2 1_555 1_555
H24_2 C26_2 1_555 1_555
C23_2 C24_2 1_555 1_555
C25_2 C26_2 1_555 1_555
N3_3 C13_2 1_555 1_555
C13_2 N4_2 1_555 1_555
N4_2 Cu2_2 1_555 1_555
N6_2 Cu2_2 1_555 1_555
C15_2 N6_2 1_555 1_555
H13_2 C15_2 1_555 1_555
C16_2 C15_2 1_555 1_555
H14_2 C16_2 1_555 1_555
C17_2 C16_2 1_555 1_555
C19_2 N6_2 1_555 1_555
H16_2 C19_2 1_555 1_555
Cu1_2 N1_3 1_555 1_555
N1_3 C1_3 1_555 1_555
N2_2 C6_3 1_555 1_555
C1_3 H1_3 1_555 1_555
C2_3 C1_3 1_555 1_555
H2_3 C2_3 1_555 1_555
C3_3 C2_3 1_555 1_555
C4_3 C3_3 1_555 1_555
H3_3 C4_3 1_555 1_555
C5_3 N1_3 1_555 1_555
H4_3 C5_3 1_555 1_555
C6_3 H5_3 1_555 1_555
C7_3 C6_3 1_555 1_555
C8_3 C7_3 1_555 1_555
C9_3 C8_3 1_555 1_555
H7_3 C9_3 1_555 1_555
C10_3 N2_2 1_555 1_555
H8_3 C10_3 1_555 1_555
C11_3 C8_3 1_555 1_555
H9_3 C11_3 1_555 1_555
H10_3 C11_3 1_555 1_555
C12_3 C3_3 1_555 1_555
H11_3 C12_3 1_555 1_555
H12_3 C12_3 1_555 1_555
N6_3 Cu1_2 1_555 1_555
N7_2 C20_3 1_555 1_555
C15_3 N6_3 1_555 1_555
H13_3 C15_3 1_555 1_555
C16_3 C15_3 1_555 1_555
H14_3 C16_3 1_555 1_555
C17_3 C16_3 1_555 1_555
C18_3 C17_3 1_555 1_555
H15_3 C18_3 1_555 1_555
C19_3 N6_3 1_555 1_555
H16_3 C19_3 1_555 1_555
C20_3 H17_3 1_555 1_555
C21_3 C20_3 1_555 1_555
H18_3 C21_3 1_555 1_555
C22_3 C21_3 1_555 1_555
C23_3 C22_3 1_555 1_555
H19_3 C23_3 1_555 1_555
C24_3 N7_2 1_555 1_555
H20_3 C24_3 1_555 1_555
C25_3 C22_3 1_555 1_555
H21_3 C25_3 1_555 1_555
H22_3 C25_3 1_555 1_555
C26_3 C17_3 1_555 1_555
H23_3 C26_3 1_555 1_555
H24_3 C26_3 1_555 1_555
N8_2 Cu1_2 1_555 1_555
N9_2 Cu1_2 1_555 1_555
N10_3 Cu1_2 1_555 1_555
Cu2_4 N2_2 1_555 1_555
Cu2_3 N7_2 1_555 1_555
C4_3 C5_3 1_555 1_555
C9_3 C10_3 1_555 1_555
C11_3 C12_3 1_555 1_555
C18_3 C19_3 1_555 1_555
C23_3 C24_3 1_555 1_555
C25_3 C26_3 1_555 1_555
N3_4 C13_3 1_555 1_555
C13_3 N4_3 1_555 1_555
C14_3 N3_4 1_555 1_555
N10_3 C14_3 1_555 1_555
Cu2_3 N1_4 1_555 1_555
N1_4 C1_4 1_555 1_555
C1_4 H1_4 1_555 1_555
C2_4 C1_4 1_555 1_555
H2_4 C2_4 1_555 1_555
C3_4 C2_4 1_555 1_555
C5_4 N1_4 1_555 1_555
H4_4 C5_4 1_555 1_555
N10_4 Cu2_3 1_555 1_555
C14_4 N3_5 1_555 1_555
N10_4 C14_4 1_555 1_555
N8_2 C6_4 1_555 1_555
H3_4 C4_4 1_555 1_555
C6_4 H5_4 1_555 1_555
C7_4 C6_4 1_555 1_555
C8_4 C7_4 1_555 1_555
C9_4 C8_4 1_555 1_555
H7_4 C9_4 1_555 1_555
C10_4 N8_2 1_555 1_555
H8_4 C10_4 1_555 1_555
C11_4 C8_4 1_555 1_555
H9_4 C11_4 1_555 1_555
H10_4 C11_4 1_555 1_555
H11_4 C12_4 1_555 1_555
H12_4 C12_4 1_555 1_555
C9_4 C10_4 1_555 1_555
C11_4 C12_4 1_555 1_555
N6_4 Cu2_4 1_555 1_555
C15_4 N6_4 1_555 1_555
H13_4 C15_4 1_555 1_555
C16_4 C15_4 1_555 1_555
H14_4 C16_4 1_555 1_555
C17_4 C16_4 1_555 1_555
C19_4 N6_4 1_555 1_555
H16_4 C19_4 1_555 1_555
N3_6 C13_4 1_555 1_555
C13_4 N4_4 1_555 1_555
N9_2 C20_4 1_555 1_555
H15_4 C18_4 1_555 1_555
C20_4 H17_4 1_555 1_555
C21_4 C20_4 1_555 1_555
H18_4 C21_4 1_555 1_555
C22_4 C21_4 1_555 1_555
C23_4 C22_4 1_555 1_555
H19_4 C23_4 1_555 1_555
C24_4 N9_2 1_555 1_555
H20_4 C24_4 1_555 1_555
C25_4 C22_4 1_555 1_555
H21_4 C25_4 1_555 1_555
H22_4 C25_4 1_555 1_555
H23_4 C26_4 1_555 1_555
H24_4 C26_4 1_555 1_555
C23_4 C24_4 1_555 1_555
C25_4 C26_4 1_555 1_555

#END
