
###############################################################################
#
# This file contains modified crystal structure data generated from the
# MOF subset of the Cambridge Structural Database (CSD) v543 
# hosted by the Cambridge Crystallographic Data Centre (CCDC).
#
# This work is licensed under the Creative Commons
# Attribution-NonCommercial-ShareAlike 4.0 International License.
# To view a copy of this license, visit
# http://creativecommons.org/licenses/by-nc-sa/4.0/
# or send a letter to
# Creative Commons, PO Box 1866, Mountain View, CA 94042, USA.
#
# CIF created using the CSD Python API on 29 September 2022
# The structure has been converted into the P1 space group
# The structure has a 3D framework
# The original CSD entry EXOJAF is in the tetragonal crystal system
# The framework has been calculated to contain at least 10.0% void space
# The void calculation uses a probe of radius 1.32A, grid spacing 0.4
# H atom positions have been added when not included in the experimental data
#
###############################################################################

data_EXOJAF
_chemical_formula_moiety         '(C156 H60 N12 O44 Zr2)n'
_symmetry_cell_setting           triclinic
_symmetry_space_group_name_H-M   'P 1'
_symmetry_Int_Tables_number      1
_space_group_name_Hall           'P 1'
loop_
_symmetry_equiv_pos_site_id
_symmetry_equiv_pos_as_xyz
1 x,y,z
_cell_length_a                   19.8380(8)
_cell_length_b                   19.8380(8)
_cell_length_c                   7.4963(15)
_cell_angle_alpha                90
_cell_angle_beta                 90
_cell_angle_gamma                90
_cell_volume                     2950.14
loop_
_atom_site_label
_atom_site_type_symbol
_atom_site_fract_x
_atom_site_fract_y
_atom_site_fract_z
Zr3 Zr -0.0000 0.5000 0.7500
Zr6 Zr -0.0000 0.5000 0.2500
Zr5 Zr 0.5000 -0.0000 0.7500
Zr8 Zr 0.5000 -0.0000 0.2500
O21 O 0.0000 0.5522(9) 0.0000
O23 O 0.0000 0.4478(9) 0.0000
O1 O 0.1150(6) 0.5000 0.8107(7)
O2 O 0.0522(9) 0.5000 0.5000
C1 C 0.1127(9) 0.5000 0.5000
C2 C 0.1478(3) 0.5000 0.6605(8)
C3 C 0.2179 0.5000 0.6605(8)
H1 H 0.2413(3) 0.5000 0.7680(2)
C4 C 0.2528(8) 0.5000 0.5000
C5 C 0.3270(2) 0.5000 0.5000
N1 N 0.4275(8) 0.5724(2) 0.5000
C6 C 0.3586(3) 0.5626(4) 0.5000
C7 C 0.3248(5) 0.6269(9) 0.5000
H2 H 0.2770(2) 0.6342(7) 0.5000
O3 O 0.1150(6) 0.5000 0.1893(7)
C8 C 0.1478(3) 0.5000 0.3395(8)
C9 C 0.2179 0.5000 0.3395(8)
H3 H 0.2413(3) 0.5000 0.2320(2)
N2 N 0.4276(2) 0.4275(8) 0.5000
C10 C 0.3586(3) 0.4374(4) 0.5000
C11 C 0.3248(5) 0.3731(9) 0.5000
H4 H 0.2770(2) 0.3658(7) 0.5000
O4 O 0.5000 0.8850(6) 0.1893(7)
O5 O 0.5000 0.9478(9) 0.5000
C12 C 0.5000 0.8873(9) 0.5000
C13 C 0.5000 0.8522(3) 0.3395(8)
C14 C 0.5000 0.7821 0.3395(8)
H5 H 0.5000 0.7587(3) 0.2320(2)
C15 C 0.5000 0.7472(8) 0.5000
C16 C 0.5000 0.6730(2) 0.5000
C17 C 0.4374(4) 0.6414(3) 0.5000
C18 C 0.3731(9) 0.6752(5) 0.5000
H6 H 0.3658(7) 0.7230(2) 0.5000
N3 N 0.5724(2) 0.5725(8) 0.5000
C19 C 0.5626(4) 0.6414(3) 0.5000
C20 C 0.6269(9) 0.6752(5) 0.5000
H7 H 0.6342(7) 0.7230(2) 0.5000
O6 O 0.5000 0.1150(6) 0.1893(7)
O7 O 0.5000 0.0522(9) 0.5000
C21 C 0.5000 0.1127(9) 0.5000
C22 C 0.5000 0.1478(3) 0.3395(8)
C23 C 0.5000 0.2179 0.3395(8)
H8 H 0.5000 0.2413(3) 0.2320(2)
C24 C 0.5000 0.2528(8) 0.5000
C25 C 0.5000 0.3270(2) 0.5000
C26 C 0.4374(4) 0.3586(3) 0.5000
C27 C 0.3731(9) 0.3248(5) 0.5000
H9 H 0.3658(7) 0.2770(2) 0.5000
O8 O 0.5000 0.8850(6) 0.8107(7)
C28 C 0.5000 0.8522(3) 0.6605(8)
C29 C 0.5000 0.7821 0.6605(8)
H10 H 0.5000 0.7587(3) 0.7680(2)
O9 O 0.5000 0.1150(6) 0.8107(7)
C30 C 0.5000 0.1478(3) 0.6605(8)
C31 C 0.5000 0.2179 0.6605(8)
H11 H 0.5000 0.2413(3) 0.7680(2)
O10 O 0.8850(6) 0.5000 0.1893(7)
O11 O 0.9478(9) 0.5000 0.5000
C32 C 0.8873(9) 0.5000 0.5000
C33 C 0.8522(3) 0.5000 0.3395(8)
C34 C 0.7821 0.5000 0.3395(8)
H12 H 0.7587(3) 0.5000 0.2320(2)
C35 C 0.7472(8) 0.5000 0.5000
C36 C 0.6730(2) 0.5000 0.5000
C37 C 0.6414(3) 0.5626(4) 0.5000
C38 C 0.6752(5) 0.6269(9) 0.5000
H13 H 0.7230(2) 0.6342(7) 0.5000
N4 N 0.5725(8) 0.4276(2) 0.5000
C39 C 0.5626(4) 0.3586(3) 0.5000
C40 C 0.6269(9) 0.3248(5) 0.5000
H14 H 0.6342(7) 0.2770(2) 0.5000
C41 C 0.6414(3) 0.4374(4) 0.5000
C42 C 0.6752(5) 0.3731(9) 0.5000
H15 H 0.7230(2) 0.3658(7) 0.5000
O12 O 0.8850(6) 0.5000 0.8107(7)
C43 C 0.8522(3) 0.5000 0.6605(8)
C44 C 0.7821 0.5000 0.6605(8)
H16 H 0.7587(3) 0.5000 0.7680(2)
Zr3_2 Zr 1.0000 0.5000 0.7500
Zr5_2 Zr 0.5000 1.0000 0.7500
Zr6_2 Zr 1.0000 0.5000 0.2500
Zr8_2 Zr 0.5000 1.0000 0.2500
O15 O -0.0000 0.6150(6) 0.3107(7)
O16 O 0.0000 0.3850(6) 0.3107(7)
O17 O -0.0000 0.6150(6) 0.6893(7)
O18 O -0.0000 0.3850(6) 0.6893(7)
O21_2 O -0.0000 0.5522(9) 1.0000
O23_2 O 0.0000 0.4478(9) 1.0000
H17 H 0.536199 0.536343 0.5
H18 H 0.463801 0.463657 0.5
O21_3 O 1.0000 0.5522(9) 0.0000
O23_3 O 1.0000 0.4478(9) 0.0000
O15_2 O 1.0000 0.6150(6) 0.3107(7)
O16_2 O 1.0000 0.3850(6) 0.3107(7)
O17_2 O 1.0000 0.6150(6) 0.6893(7)
O18_2 O 1.0000 0.3850(6) 0.6893(7)
O21_4 O 1.0000 0.5522(9) 1.0000
O23_4 O 1.0000 0.4478(9) 1.0000
O21_5 O 0.4478(9) -0.0000 0.0000
O23_5 O 0.5522(9) 0.0000 0.0000
O15_3 O 0.3850(6) 0.0000 0.3107(7)
O16_3 O 0.6150(6) 0.0000 0.3107(7)
O17_3 O 0.3850(6) -0.0000 0.6893(7)
O18_3 O 0.6150(6) -0.0000 0.6893(7)
O21_6 O 0.4478(9) -0.0000 1.0000
O23_6 O 0.5522(9) 0.0000 1.0000
H17_2 H 0.463657 0.536199 0.5
H18_2 H 0.536343 0.463801 0.5
O21_7 O 0.4478(9) 1.0000 0.0000
O23_7 O 0.5522(9) 1.0000 0.0000
O15_4 O 0.3850(6) 1.0000 0.3107(7)
O16_4 O 0.6150(6) 1.0000 0.3107(7)
O17_4 O 0.3850(6) 1.0000 0.6893(7)
O18_4 O 0.6150(6) 1.0000 0.6893(7)
O21_8 O 0.4478(9) 1.0000 1.0000
O23_8 O 0.5522(9) 1.0000 1.0000
C12_2 C -0.0000 0.3873(9) 0.0000
C15_2 C -0.0000 0.2472(8) 0.0000
C16_2 C -0.0000 0.1730(2) 0.0000
N3_2 N 0.0724(2) 0.0725(8) 0.0000
C19_2 C 0.0626(4) 0.1414(3) 0.0000
C20_2 C 0.1269(9) 0.1752(5) 0.0000
H7_2 H 0.1342(7) 0.2230(2) 0.0000
C28_2 C -0.0000 0.3522(3) 0.1605(8)
C29_2 C -0.0000 0.2821 0.1605(8)
H10_2 H -0.0000 0.2587(3) 0.2680(2)
C32_2 C 0.3873(9) -0.0000 0.0000
C35_2 C 0.2472(8) -0.0000 0.0000
C36_2 C 0.1730(2) -0.0000 0.0000
C37_2 C 0.1414(3) 0.0626(4) 0.0000
C38_2 C 0.1752(5) 0.1269(9) 0.0000
H13_2 H 0.2230(2) 0.1342(7) 0.0000
C43_2 C 0.3522(3) -0.0000 0.1605(8)
C44_2 C 0.2821 -0.0000 0.1605(8)
H16_2 H 0.2587(3) -0.0000 0.2680(2)
H17_3 H 0.0361993 0.0363433 1.11022e-16
C12_3 C -0.0000 0.3873(9) 1.0000
C13_2 C -0.0000 0.3522(3) 0.8395(8)
C14_2 C -0.0000 0.2821 0.8395(8)
H5_2 H -0.0000 0.2587(3) 0.7320(2)
C15_3 C -0.0000 0.2472(8) 1.0000
C16_3 C -0.0000 0.1730(2) 1.0000
N3_3 N 0.0724(2) 0.0725(8) 1.0000
C19_3 C 0.0626(4) 0.1414(3) 1.0000
C20_3 C 0.1269(9) 0.1752(5) 1.0000
H7_3 H 0.1342(7) 0.2230(2) 1.0000
C32_3 C 0.3873(9) -0.0000 1.0000
C33_2 C 0.3522(3) -0.0000 0.8395(8)
C34_2 C 0.2821 -0.0000 0.8395(8)
H12_2 H 0.2587(3) -0.0000 0.7320(2)
C35_3 C 0.2472(8) -0.0000 1.0000
C36_3 C 0.1730(2) -0.0000 1.0000
C37_3 C 0.1414(3) 0.0626(4) 1.0000
C38_3 C 0.1752(5) 0.1269(9) 1.0000
H13_3 H 0.2230(2) 0.1342(7) 1.0000
H17_4 H 0.0361993 0.0363433 1
C21_2 C -0.0000 0.6127(9) 0.0000
C24_2 C -0.0000 0.7528(8) 0.0000
C25_2 C -0.0000 0.8270(2) 0.0000
C30_2 C -0.0000 0.6478(3) 0.1605(8)
C31_2 C -0.0000 0.7179 0.1605(8)
H11_2 H -0.0000 0.7413(3) 0.2680(2)
C32_4 C 0.3873(9) 1.0000 0.0000
C35_4 C 0.2472(8) 1.0000 0.0000
C36_4 C 0.1730(2) 1.0000 0.0000
N4_2 N 0.0725(8) 0.9276(2) 0.0000
C39_2 C 0.0626(4) 0.8586(3) 0.0000
C40_2 C 0.1269(9) 0.8248(5) 0.0000
H14_2 H 0.1342(7) 0.7770(2) 0.0000
C41_2 C 0.1414(3) 0.9374(4) 0.0000
C42_2 C 0.1752(5) 0.8731(9) 0.0000
H15_2 H 0.2230(2) 0.8658(7) 0.0000
C43_3 C 0.3522(3) 1.0000 0.1605(8)
C44_3 C 0.2821 1.0000 0.1605(8)
H16_3 H 0.2587(3) 1.0000 0.2680(2)
C21_3 C -0.0000 0.6127(9) 1.0000
C22_2 C -0.0000 0.6478(3) 0.8395(8)
C23_2 C -0.0000 0.7179 0.8395(8)
H8_2 H -0.0000 0.7413(3) 0.7320(2)
C24_3 C -0.0000 0.7528(8) 1.0000
C25_3 C -0.0000 0.8270(2) 1.0000
C32_5 C 0.3873(9) 1.0000 1.0000
C33_3 C 0.3522(3) 1.0000 0.8395(8)
C34_3 C 0.2821 1.0000 0.8395(8)
H12_3 H 0.2587(3) 1.0000 0.7320(2)
C35_5 C 0.2472(8) 1.0000 1.0000
C36_5 C 0.1730(2) 1.0000 1.0000
N4_3 N 0.0725(8) 0.9276(2) 1.0000
C39_3 C 0.0626(4) 0.8586(3) 1.0000
C40_3 C 0.1269(9) 0.8248(5) 1.0000
H14_3 H 0.1342(7) 0.7770(2) 1.0000
C41_3 C 0.1414(3) 0.9374(4) 1.0000
C42_3 C 0.1752(5) 0.8731(9) 1.0000
H15_3 H 0.2230(2) 0.8658(7) 1.0000
C1_2 C 0.6127(9) -0.0000 0.0000
C2_2 C 0.6478(3) -0.0000 0.1605(8)
C3_2 C 0.7179 -0.0000 0.1605(8)
H1_2 H 0.7413(3) -0.0000 0.2680(2)
C4_2 C 0.7528(8) -0.0000 0.0000
C5_2 C 0.8270(2) -0.0000 0.0000
N1_2 N 0.9275(8) 0.0724(2) 0.0000
C6_2 C 0.8586(3) 0.0626(4) 0.0000
C7_2 C 0.8248(5) 0.1269(9) 0.0000
H2_2 H 0.7770(2) 0.1342(7) 0.0000
C12_4 C 1.0000 0.3873(9) 0.0000
C15_4 C 1.0000 0.2472(8) 0.0000
C16_4 C 1.0000 0.1730(2) 0.0000
C17_2 C 0.9374(4) 0.1414(3) 0.0000
C18_2 C 0.8731(9) 0.1752(5) 0.0000
H6_2 H 0.8658(7) 0.2230(2) 0.0000
C28_3 C 1.0000 0.3522(3) 0.1605(8)
C29_3 C 1.0000 0.2821 0.1605(8)
H10_3 H 1.0000 0.2587(3) 0.2680(2)
C1_3 C 0.6127(9) -0.0000 1.0000
C4_3 C 0.7528(8) -0.0000 1.0000
C5_3 C 0.8270(2) -0.0000 1.0000
N1_3 N 0.9275(8) 0.0724(2) 1.0000
C6_3 C 0.8586(3) 0.0626(4) 1.0000
C7_3 C 0.8248(5) 0.1269(9) 1.0000
H2_3 H 0.7770(2) 0.1342(7) 1.0000
C8_2 C 0.6478(3) -0.0000 0.8395(8)
C9_2 C 0.7179 -0.0000 0.8395(8)
H3_2 H 0.7413(3) -0.0000 0.7320(2)
C12_5 C 1.0000 0.3873(9) 1.0000
C13_3 C 1.0000 0.3522(3) 0.8395(8)
C14_3 C 1.0000 0.2821 0.8395(8)
H5_3 H 1.0000 0.2587(3) 0.7320(2)
C15_5 C 1.0000 0.2472(8) 1.0000
C16_5 C 1.0000 0.1730(2) 1.0000
C17_3 C 0.9374(4) 0.1414(3) 1.0000
C18_3 C 0.8731(9) 0.1752(5) 1.0000
H6_3 H 0.8658(7) 0.2230(2) 1.0000
C1_4 C 0.6127(9) 1.0000 0.0000
C2_3 C 0.6478(3) 1.0000 0.1605(8)
C3_3 C 0.7179 1.0000 0.1605(8)
H1_3 H 0.7413(3) 1.0000 0.2680(2)
C4_4 C 0.7528(8) 1.0000 0.0000
C5_4 C 0.8270(2) 1.0000 0.0000
N2_2 N 0.9276(2) 0.9275(8) 0.0000
C10_2 C 0.8586(3) 0.9374(4) 0.0000
C11_2 C 0.8248(5) 0.8731(9) 0.0000
H4_2 H 0.7770(2) 0.8658(7) 0.0000
C21_4 C 1.0000 0.6127(9) 0.0000
C24_4 C 1.0000 0.7528(8) 0.0000
C25_4 C 1.0000 0.8270(2) 0.0000
C26_2 C 0.9374(4) 0.8586(3) 0.0000
C27_2 C 0.8731(9) 0.8248(5) 0.0000
H9_2 H 0.8658(7) 0.7770(2) 0.0000
C30_3 C 1.0000 0.6478(3) 0.1605(8)
C31_3 C 1.0000 0.7179 0.1605(8)
H11_3 H 1.0000 0.7413(3) 0.2680(2)
H18_3 H 0.963801 0.963657 1.11022e-16
C1_5 C 0.6127(9) 1.0000 1.0000
C4_5 C 0.7528(8) 1.0000 1.0000
C5_5 C 0.8270(2) 1.0000 1.0000
C8_3 C 0.6478(3) 1.0000 0.8395(8)
C9_3 C 0.7179 1.0000 0.8395(8)
H3_3 H 0.7413(3) 1.0000 0.7320(2)
N2_3 N 0.9276(2) 0.9275(8) 1.0000
C10_3 C 0.8586(3) 0.9374(4) 1.0000
C11_3 C 0.8248(5) 0.8731(9) 1.0000
H4_3 H 0.7770(2) 0.8658(7) 1.0000
C21_5 C 1.0000 0.6127(9) 1.0000
C22_3 C 1.0000 0.6478(3) 0.8395(8)
C23_3 C 1.0000 0.7179 0.8395(8)
H8_3 H 1.0000 0.7413(3) 0.7320(2)
C24_5 C 1.0000 0.7528(8) 1.0000
C25_5 C 1.0000 0.8270(2) 1.0000
C26_3 C 0.9374(4) 0.8586(3) 1.0000
C27_3 C 0.8731(9) 0.8248(5) 1.0000
H9_3 H 0.8658(7) 0.7770(2) 1.0000
H18_4 H 0.963801 0.963657 1
H18_5 H 0.0363433 0.963801 1.11022e-16
H18_6 H 0.0363433 0.963801 1
H17_5 H 0.963657 0.0361993 1.11022e-16
H17_6 H 0.963657 0.0361993 1
loop_
_geom_bond_atom_site_label_1
_geom_bond_atom_site_label_2
_geom_bond_site_symmetry_1
_geom_bond_site_symmetry_2
Zr3 O1 1_555 1_555
O1 C2 1_555 1_555
O2 Zr3 1_555 1_555
C1 O2 1_555 1_555
C2 C1 1_555 1_555
C3 C2 1_555 1_555
H1 C3 1_555 1_555
C4 C3 1_555 1_555
C5 C4 1_555 1_555
N1 C6 1_555 1_555
C6 C5 1_555 1_555
C7 C6 1_555 1_555
H2 C7 1_555 1_555
O3 C8 1_555 1_555
C8 C1 1_555 1_555
C9 C4 1_555 1_555
H3 C9 1_555 1_555
N2 C10 1_555 1_555
C10 C5 1_555 1_555
C11 C10 1_555 1_555
H4 C11 1_555 1_555
O4 C13 1_555 1_555
O5 C12 1_555 1_555
C12 C13 1_555 1_555
C13 C14 1_555 1_555
C14 H5 1_555 1_555
C15 C14 1_555 1_555
C16 C15 1_555 1_555
C17 N1 1_555 1_555
C18 C7 1_555 1_555
H6 C18 1_555 1_555
N3 C19 1_555 1_555
C19 C16 1_555 1_555
C20 C19 1_555 1_555
H7 C20 1_555 1_555
O6 C22 1_555 1_555
O7 C21 1_555 1_555
C21 C22 1_555 1_555
C22 C23 1_555 1_555
C23 H8 1_555 1_555
C24 C23 1_555 1_555
C25 C24 1_555 1_555
C26 N2 1_555 1_555
C27 C11 1_555 1_555
H9 C27 1_555 1_555
O8 C28 1_555 1_555
C28 C12 1_555 1_555
C29 C15 1_555 1_555
H10 C29 1_555 1_555
O9 C30 1_555 1_555
C30 C21 1_555 1_555
C31 C24 1_555 1_555
H11 C31 1_555 1_555
O10 C33 1_555 1_555
O11 C32 1_555 1_555
C32 C33 1_555 1_555
C33 C34 1_555 1_555
C34 H12 1_555 1_555
C35 C34 1_555 1_555
C36 C35 1_555 1_555
C37 N3 1_555 1_555
C38 C20 1_555 1_555
H13 C38 1_555 1_555
N4 C39 1_555 1_555
C39 C25 1_555 1_555
C40 C39 1_555 1_555
H14 C40 1_555 1_555
C41 C36 1_555 1_555
C42 C40 1_555 1_555
H15 C42 1_555 1_555
O12 C43 1_555 1_555
C43 C32 1_555 1_555
C44 C35 1_555 1_555
H16 C44 1_555 1_555
Zr6 O2 1_555 1_555
Zr3_2 O11 1_555 1_555
Zr5 O7 1_555 1_555
Zr5_2 O5 1_555 1_555
Zr6_2 O10 1_555 1_555
Zr8 O6 1_555 1_555
Zr8_2 O4 1_555 1_555
O15 Zr6 1_555 1_555
O16 Zr6 1_555 1_555
O17 Zr3 1_555 1_555
O18 Zr3 1_555 1_555
O21 Zr6 1_555 1_555
O21_2 Zr3 1_555 1_555
O23 Zr6 1_555 1_555
O23_2 Zr3 1_555 1_555
O3 Zr6 1_555 1_555
C8 C9 1_555 1_555
O5 Zr8_2 1_555 1_555
C16 C17 1_555 1_555
C17 C18 1_555 1_555
O7 Zr8 1_555 1_555
C25 C26 1_555 1_555
C26 C27 1_555 1_555
O8 Zr5_2 1_555 1_555
C28 C29 1_555 1_555
O9 Zr5 1_555 1_555
C30 C31 1_555 1_555
O11 Zr6_2 1_555 1_555
C36 C37 1_555 1_555
C37 C38 1_555 1_555
N4 C41 1_555 1_555
C41 C42 1_555 1_555
O12 Zr3_2 1_555 1_555
C43 C44 1_555 1_555
N3 H17 1_555 1_555
N2 H18 1_555 1_555
O15_2 Zr6_2 1_555 1_555
O16_2 Zr6_2 1_555 1_555
O17_2 Zr3_2 1_555 1_555
O18_2 Zr3_2 1_555 1_555
O21_3 Zr6_2 1_555 1_555
O21_4 Zr3_2 1_555 1_555
O23_3 Zr6_2 1_555 1_555
O23_4 Zr3_2 1_555 1_555
O15_3 Zr8 1_555 1_555
O16_3 Zr8 1_555 1_555
O17_3 Zr5 1_555 1_555
O18_3 Zr5 1_555 1_555
O21_5 Zr8 1_555 1_555
O21_6 Zr5 1_555 1_555
O23_5 Zr8 1_555 1_555
O23_6 Zr5 1_555 1_555
N1 H17_2 1_555 1_555
N4 H18_2 1_555 1_555
O15_4 Zr8_2 1_555 1_555
O16_4 Zr8_2 1_555 1_555
O17_4 Zr5_2 1_555 1_555
O18_4 Zr5_2 1_555 1_555
O21_7 Zr8_2 1_555 1_555
O21_8 Zr5_2 1_555 1_555
O23_7 Zr8_2 1_555 1_555
O23_8 Zr5_2 1_555 1_555
O23 C12_2 1_555 1_555
C16_2 C15_2 1_555 1_555
N3_2 C19_2 1_555 1_555
C19_2 C16_2 1_555 1_555
C20_2 C19_2 1_555 1_555
H7_2 C20_2 1_555 1_555
O16 C28_2 1_555 1_555
C28_2 C12_2 1_555 1_555
C29_2 C15_2 1_555 1_555
H10_2 C29_2 1_555 1_555
O21_5 C32_2 1_555 1_555
C36_2 C35_2 1_555 1_555
C37_2 N3_2 1_555 1_555
C38_2 C20_2 1_555 1_555
H13_2 C38_2 1_555 1_555
O15_3 C43_2 1_555 1_555
C43_2 C32_2 1_555 1_555
C44_2 C35_2 1_555 1_555
H16_2 C44_2 1_555 1_555
C28_2 C29_2 1_555 1_555
C36_2 C37_2 1_555 1_555
C37_2 C38_2 1_555 1_555
C43_2 C44_2 1_555 1_555
N3_2 H17_3 1_555 1_555
O18 C13_2 1_555 1_555
O23_2 C12_3 1_555 1_555
C12_3 C13_2 1_555 1_555
C13_2 C14_2 1_555 1_555
C14_2 H5_2 1_555 1_555
C15_3 C14_2 1_555 1_555
C16_3 C15_3 1_555 1_555
N3_3 C19_3 1_555 1_555
C19_3 C16_3 1_555 1_555
C20_3 C19_3 1_555 1_555
H7_3 C20_3 1_555 1_555
O17_3 C33_2 1_555 1_555
O21_6 C32_3 1_555 1_555
C32_3 C33_2 1_555 1_555
C33_2 C34_2 1_555 1_555
C34_2 H12_2 1_555 1_555
C35_3 C34_2 1_555 1_555
C36_3 C35_3 1_555 1_555
C37_3 N3_3 1_555 1_555
C38_3 C20_3 1_555 1_555
H13_3 C38_3 1_555 1_555
C36_3 C37_3 1_555 1_555
C37_3 C38_3 1_555 1_555
N3_3 H17_4 1_555 1_555
O21 C21_2 1_555 1_555
C25_2 C24_2 1_555 1_555
O15 C30_2 1_555 1_555
C30_2 C21_2 1_555 1_555
C31_2 C24_2 1_555 1_555
H11_2 C31_2 1_555 1_555
O21_7 C32_4 1_555 1_555
C36_4 C35_4 1_555 1_555
N4_2 C39_2 1_555 1_555
C39_2 C25_2 1_555 1_555
C40_2 C39_2 1_555 1_555
H14_2 C40_2 1_555 1_555
C41_2 C36_4 1_555 1_555
C42_2 C40_2 1_555 1_555
H15_2 C42_2 1_555 1_555
O15_4 C43_3 1_555 1_555
C43_3 C32_4 1_555 1_555
C44_3 C35_4 1_555 1_555
H16_3 C44_3 1_555 1_555
C30_2 C31_2 1_555 1_555
N4_2 C41_2 1_555 1_555
C41_2 C42_2 1_555 1_555
C43_3 C44_3 1_555 1_555
O17 C22_2 1_555 1_555
O21_2 C21_3 1_555 1_555
C21_3 C22_2 1_555 1_555
C22_2 C23_2 1_555 1_555
C23_2 H8_2 1_555 1_555
C24_3 C23_2 1_555 1_555
C25_3 C24_3 1_555 1_555
O17_4 C33_3 1_555 1_555
O21_8 C32_5 1_555 1_555
C32_5 C33_3 1_555 1_555
C33_3 C34_3 1_555 1_555
C34_3 H12_3 1_555 1_555
C35_5 C34_3 1_555 1_555
C36_5 C35_5 1_555 1_555
N4_3 C39_3 1_555 1_555
C39_3 C25_3 1_555 1_555
C40_3 C39_3 1_555 1_555
H14_3 C40_3 1_555 1_555
C41_3 C36_5 1_555 1_555
C42_3 C40_3 1_555 1_555
H15_3 C42_3 1_555 1_555
N4_3 C41_3 1_555 1_555
C41_3 C42_3 1_555 1_555
O16_3 C2_2 1_555 1_555
C1_2 O23_5 1_555 1_555
C2_2 C1_2 1_555 1_555
C3_2 C2_2 1_555 1_555
H1_2 C3_2 1_555 1_555
C4_2 C3_2 1_555 1_555
C5_2 C4_2 1_555 1_555
N1_2 C6_2 1_555 1_555
C6_2 C5_2 1_555 1_555
C7_2 C6_2 1_555 1_555
H2_2 C7_2 1_555 1_555
O23_3 C12_4 1_555 1_555
C16_4 C15_4 1_555 1_555
C17_2 N1_2 1_555 1_555
C18_2 C7_2 1_555 1_555
H6_2 C18_2 1_555 1_555
O16_2 C28_3 1_555 1_555
C28_3 C12_4 1_555 1_555
C29_3 C15_4 1_555 1_555
H10_3 C29_3 1_555 1_555
C16_4 C17_2 1_555 1_555
C17_2 C18_2 1_555 1_555
C28_3 C29_3 1_555 1_555
C1_3 O23_6 1_555 1_555
C5_3 C4_3 1_555 1_555
N1_3 C6_3 1_555 1_555
C6_3 C5_3 1_555 1_555
C7_3 C6_3 1_555 1_555
H2_3 C7_3 1_555 1_555
O18_3 C8_2 1_555 1_555
C8_2 C1_3 1_555 1_555
C9_2 C4_3 1_555 1_555
H3_2 C9_2 1_555 1_555
O18_2 C13_3 1_555 1_555
O23_4 C12_5 1_555 1_555
C12_5 C13_3 1_555 1_555
C13_3 C14_3 1_555 1_555
C14_3 H5_3 1_555 1_555
C15_5 C14_3 1_555 1_555
C16_5 C15_5 1_555 1_555
C17_3 N1_3 1_555 1_555
C18_3 C7_3 1_555 1_555
H6_3 C18_3 1_555 1_555
C8_2 C9_2 1_555 1_555
C16_5 C17_3 1_555 1_555
C17_3 C18_3 1_555 1_555
O16_4 C2_3 1_555 1_555
C1_4 O23_7 1_555 1_555
C2_3 C1_4 1_555 1_555
C3_3 C2_3 1_555 1_555
H1_3 C3_3 1_555 1_555
C4_4 C3_3 1_555 1_555
C5_4 C4_4 1_555 1_555
N2_2 C10_2 1_555 1_555
C10_2 C5_4 1_555 1_555
C11_2 C10_2 1_555 1_555
H4_2 C11_2 1_555 1_555
O21_3 C21_4 1_555 1_555
C25_4 C24_4 1_555 1_555
C26_2 N2_2 1_555 1_555
C27_2 C11_2 1_555 1_555
H9_2 C27_2 1_555 1_555
O15_2 C30_3 1_555 1_555
C30_3 C21_4 1_555 1_555
C31_3 C24_4 1_555 1_555
H11_3 C31_3 1_555 1_555
C25_4 C26_2 1_555 1_555
C26_2 C27_2 1_555 1_555
C30_3 C31_3 1_555 1_555
N2_2 H18_3 1_555 1_555
C1_5 O23_8 1_555 1_555
C5_5 C4_5 1_555 1_555
O18_4 C8_3 1_555 1_555
C8_3 C1_5 1_555 1_555
C9_3 C4_5 1_555 1_555
H3_3 C9_3 1_555 1_555
N2_3 C10_3 1_555 1_555
C10_3 C5_5 1_555 1_555
C11_3 C10_3 1_555 1_555
H4_3 C11_3 1_555 1_555
O17_2 C22_3 1_555 1_555
O21_4 C21_5 1_555 1_555
C21_5 C22_3 1_555 1_555
C22_3 C23_3 1_555 1_555
C23_3 H8_3 1_555 1_555
C24_5 C23_3 1_555 1_555
C25_5 C24_5 1_555 1_555
C26_3 N2_3 1_555 1_555
C27_3 C11_3 1_555 1_555
H9_3 C27_3 1_555 1_555
C8_3 C9_3 1_555 1_555
C25_5 C26_3 1_555 1_555
C26_3 C27_3 1_555 1_555
N2_3 H18_4 1_555 1_555
N4_2 H18_5 1_555 1_555
N4_3 H18_6 1_555 1_555
N1_2 H17_5 1_555 1_555
N1_3 H17_6 1_555 1_555

#END
