
###############################################################################
#
# This file contains modified crystal structure data generated from the
# MOF subset of the Cambridge Structural Database (CSD) v543 
# hosted by the Cambridge Crystallographic Data Centre (CCDC).
#
# This work is licensed under the Creative Commons
# Attribution-NonCommercial-ShareAlike 4.0 International License.
# To view a copy of this license, visit
# http://creativecommons.org/licenses/by-nc-sa/4.0/
# or send a letter to
# Creative Commons, PO Box 1866, Mountain View, CA 94042, USA.
#
# CIF created using the CSD Python API on 29 September 2022
# The structure has been converted into the P1 space group
# The structure has a 3D framework
# The original CSD entry EXOZEX is in the monoclinic crystal system
# The framework has been calculated to contain at least 10.0% void space
# The void calculation uses a probe of radius 1.32A, grid spacing 0.4
#
###############################################################################

data_EXOZEX
_chemical_formula_moiety         '(C56 H56 Cu11 N14 O54)n'
_symmetry_cell_setting           triclinic
_symmetry_space_group_name_H-M   'P 1'
_symmetry_Int_Tables_number      1
_space_group_name_Hall           'P 1'
loop_
_symmetry_equiv_pos_site_id
_symmetry_equiv_pos_as_xyz
1 x,y,z
_cell_length_a                   23.847(5)
_cell_length_b                   11.390(2)
_cell_length_c                   8.9114(18)
_cell_angle_alpha                90
_cell_angle_beta                 93.32(3)
_cell_angle_gamma                90
_cell_volume                     2416.43
loop_
_atom_site_label
_atom_site_type_symbol
_atom_site_fract_x
_atom_site_fract_y
_atom_site_fract_z
Cu7 Cu 0.03032(4) 0.0000 0.62777(11)
Cu7_2 Cu 0.03032(4) 1.0000 0.62777(11)
O11 O 0.0249(2) 0.1225(6) 0.3226(5)
Cu8 Cu 0.96968(4) 0.0000 0.37223(11)
Cu1 Cu 0.5000 0.5000 0.0000
O1 O 0.0249(2) 0.8775(6) 0.3226(5)
O2 O 0.07743(19) 0.8765(4) 0.5390(5)
O3 O 0.4385(2) 0.5000 0.1371(7)
O5 O 0.5000 0.6724(7) 0.0000
O6 O 0.1198(4) 0.5000 0.5283(12)
O7 O 0.2389(2) 0.7018(5) 0.2363(8)
N1 N 0.2391(3) 0.5000 0.2304(10)
N2 N 0.1815(2) 0.6049(5) 0.3889(7)
C1 C 0.3874(4) 0.5000 0.0743(11)
C2 C 0.3415(4) 0.5000 0.1879(11)
C3 C 0.2819(4) 0.5000 0.1125(11)
H1 H 0.2765 0.4311 0.0493
C4 C 0.0667(3) 0.8425(6) 0.4064(8)
C5 C 0.1042(3) 0.7494(7) 0.3391(9)
H2 H 0.1167 0.7784 0.2442
H3 H 0.0821 0.6792 0.3182
C6 C 0.1562(3) 0.7165(7) 0.4414(10)
H4 H 0.1453 0.7070 0.5440
H5 H 0.1837 0.7791 0.4401
C7 C 0.1581(5) 0.5000 0.4408(14)
C8 C 0.2207(3) 0.6081(6) 0.2817(9)
H6 H 0.4905 0.6970 0.0798
H7 H 0.3456 0.4314 0.2499
Cu5 Cu 0.46968(4) 0.5000 0.37223(11)
O13 O 0.07743(19) 0.1235(4) 0.5390(5)
O23 O 0.6227(3) 0.5000 0.0634(8)
O24 O 0.5000 0.3276(7) 0.0000
O26 O 0.2389(2) 0.2982(5) 0.2363(8)
N4 N 0.1815(2) 0.3951(5) 0.3889(7)
H8 H 0.2765 0.5689 0.0493
C12 C 0.0667(3) 0.1575(6) 0.4064(8)
C15 C 0.1042(3) 0.2506(7) 0.3391(9)
H11 H 0.1167 0.2216 0.2442
H14 H 0.0821 0.3208 0.3182
C18 C 0.1562(3) 0.2835(7) 0.4414(10)
H17 H 0.1453 0.2930 0.5440
H20 H 0.1837 0.2209 0.4401
C22 C 0.2207(3) 0.3919(6) 0.2817(9)
H25 H 0.4905 0.3030 0.0798
H26 H 0.3456 0.5686 0.2499
Cu1_2 Cu 0.5000 0.5000 1.0000
O4 O 0.3773(3) 0.5000 0.9366(8)
O5_2 O 0.5000 0.6724(7) 1.0000
Cu8_2 Cu 0.96968(4) 1.0000 0.37223(11)
Cu9 Cu 0.53032(4) 0.5000 0.62777(11)
O9 O 0.9751(2) 0.8775(6) 0.6774(5)
O10 O 0.9751(2) 0.1225(6) 0.6774(5)
O14 O 0.92257(19) 0.8765(4) 0.4610(5)
O15 O 0.92257(19) 0.1235(4) 0.4610(5)
O20 O 0.5615(2) 0.5000 0.8629(7)
O24_2 O 0.5000 0.3276(7) 1.0000
O25 O 0.8802(4) 0.5000 0.4717(12)
O27 O 0.7611(2) 0.7018(5) 0.7637(8)
O28 O 0.7611(2) 0.2982(5) 0.7637(8)
N3 N 0.7609(3) 0.5000 0.7696(10)
N5 N 0.8185(2) 0.6049(5) 0.6111(7)
N6 N 0.8185(2) 0.3951(5) 0.6111(7)
C9 C 0.6126(4) 0.5000 0.9257(11)
C10 C 0.6585(4) 0.5000 0.8121(11)
C11 C 0.7181(4) 0.5000 0.8875(11)
H9 H 0.7235 0.4311 0.9507
H10 H 0.7235 0.5689 0.9507
C13 C 0.9333(3) 0.8425(6) 0.5936(8)
C14 C 0.9333(3) 0.1575(6) 0.5936(8)
C16 C 0.8958(3) 0.7494(7) 0.6609(9)
C17 C 0.8958(3) 0.2506(7) 0.6609(9)
H12 H 0.8833 0.7784 0.7558
H13 H 0.8833 0.2216 0.7558
H15 H 0.9179 0.6792 0.6818
H16 H 0.9179 0.3208 0.6818
C19 C 0.8438(3) 0.7165(7) 0.5586(10)
C20 C 0.8438(3) 0.2835(7) 0.5586(10)
H18 H 0.8547 0.7070 0.4560
H19 H 0.8547 0.2930 0.4560
H21 H 0.8163 0.7791 0.5599
H22 H 0.8163 0.2209 0.5599
C21 C 0.8419(5) 0.5000 0.5592(14)
C23 C 0.7793(3) 0.6081(6) 0.7183(9)
C24 C 0.7793(3) 0.3919(6) 0.7183(9)
H23 H 0.5095 0.6970 0.9202
H24 H 0.5095 0.3030 0.9202
H27 H 0.6544 0.4314 0.7501
H28 H 0.6544 0.5686 0.7501
O21 O 0.9385(2) 0.0000 0.1371(7)
O21_2 O 0.9385(2) 1.0000 0.1371(7)
O21_3 O 0.0615(2) -0.0000 0.8629(7)
O21_4 O 0.0615(2) 1.0000 0.8629(7)
Cu1_3 Cu 0.0000 -0.0000 1.0000
O5_3 O 0.0000 0.1724(7) 1.0000
O9_2 O 0.4751(2) 0.3775(6) 0.6774(5)
O14_2 O 0.42257(19) 0.3765(4) 0.4610(5)
O25_2 O 0.3802(4) -0.0000 0.4717(12)
O27_2 O 0.2611(2) 0.2018(5) 0.7637(8)
N3_2 N 0.2609(3) -0.0000 0.7696(10)
N5_2 N 0.3185(2) 0.1049(5) 0.6111(7)
C9_2 C 0.1126(4) 0.0000 0.9257(11)
C10_2 C 0.1585(4) 0.0000 0.8121(11)
C11_2 C 0.2181(4) -0.0000 0.8875(11)
H10_2 H 0.2235 0.0689 0.9507
C13_2 C 0.4333(3) 0.3425(6) 0.5936(8)
C16_2 C 0.3958(3) 0.2494(7) 0.6609(9)
H12_2 H 0.3833 0.2784 0.7558
H15_2 H 0.4179 0.1792 0.6818
C19_2 C 0.3438(3) 0.2165(7) 0.5586(10)
H18_2 H 0.3547 0.2070 0.4560
H21_2 H 0.3163 0.2791 0.5599
C21_2 C 0.3419(5) 0.0000 0.5592(14)
C23_2 C 0.2793(3) 0.1081(6) 0.7183(9)
H23_2 H 0.0095 0.1970 0.9202
H28_2 H 0.1544 0.0686 0.7501
Cu1_4 Cu 0.0000 1.0000 1.0000
O10_2 O 0.4751(2) 0.6225(6) 0.6774(5)
O15_2 O 0.42257(19) 0.6235(4) 0.4610(5)
O24_3 O -0.0000 0.8276(7) 1.0000
O25_3 O 0.3802(4) 1.0000 0.4717(12)
O28_2 O 0.2611(2) 0.7982(5) 0.7637(8)
N3_3 N 0.2609(3) 1.0000 0.7696(10)
N6_2 N 0.3185(2) 0.8951(5) 0.6111(7)
C9_3 C 0.1126(4) 1.0000 0.9257(11)
C10_3 C 0.1585(4) 1.0000 0.8121(11)
C11_3 C 0.2181(4) 1.0000 0.8875(11)
H9_2 H 0.2235 0.9311 0.9507
C14_2 C 0.4333(3) 0.6575(6) 0.5936(8)
C17_2 C 0.3958(3) 0.7506(7) 0.6609(9)
H13_2 H 0.3833 0.7216 0.7558
H16_2 H 0.4179 0.8208 0.6818
C20_2 C 0.3438(3) 0.7835(7) 0.5586(10)
H19_2 H 0.3547 0.7930 0.4560
H22_2 H 0.3163 0.7209 0.5599
C21_3 C 0.3419(5) 1.0000 0.5592(14)
C24_2 C 0.2793(3) 0.8919(6) 0.7183(9)
H24_2 H 0.0095 0.8030 0.9202
H27_2 H 0.1544 0.9314 0.7501
Cu1_5 Cu 1.0000 0.0000 0.0000
O1_2 O 0.5249(2) 0.3775(6) 0.3226(5)
O2_2 O 0.57743(19) 0.3765(4) 0.5390(5)
O5_4 O 1.0000 0.1724(7) 0.0000
O6_2 O 0.6198(4) 0.0000 0.5283(12)
O7_2 O 0.7389(2) 0.2018(5) 0.2363(8)
N1_2 N 0.7391(3) -0.0000 0.2304(10)
N2_2 N 0.6815(2) 0.1049(5) 0.3889(7)
C1_2 C 0.8874(4) 0.0000 0.0743(11)
C2_2 C 0.8415(4) 0.0000 0.1879(11)
C3_2 C 0.7819(4) 0.0000 0.1125(11)
C4_2 C 0.5667(3) 0.3425(6) 0.4064(8)
C5_2 C 0.6042(3) 0.2494(7) 0.3391(9)
H2_2 H 0.6167 0.2784 0.2442
H3_2 H 0.5821 0.1792 0.3182
C6_2 C 0.6562(3) 0.2165(7) 0.4414(10)
H4_2 H 0.6453 0.2070 0.5440
H5_2 H 0.6837 0.2791 0.4401
C7_2 C 0.6581(5) 0.0000 0.4408(14)
C8_2 C 0.7207(3) 0.1081(6) 0.2817(9)
H6_2 H 0.9905 0.1970 0.0798
O11_2 O 0.5249(2) 0.6225(6) 0.3226(5)
H8_2 H 0.7765 0.0689 0.0493
H26_2 H 0.8456 0.0686 0.2499
Cu1_6 Cu 1.0000 1.0000 0.0000
O6_3 O 0.6198(4) 1.0000 0.5283(12)
N1_3 N 0.7391(3) 1.0000 0.2304(10)
C1_3 C 0.8874(4) 1.0000 0.0743(11)
C2_3 C 0.8415(4) 1.0000 0.1879(11)
C3_3 C 0.7819(4) 1.0000 0.1125(11)
H1_2 H 0.7765 0.9311 0.0493
C7_3 C 0.6581(5) 1.0000 0.4408(14)
H7_2 H 0.8456 0.9314 0.2499
O13_2 O 0.57743(19) 0.6235(4) 0.5390(5)
O24_4 O 1.0000 0.8276(7) 0.0000
O26_2 O 0.7389(2) 0.7982(5) 0.2363(8)
N4_2 N 0.6815(2) 0.8951(5) 0.3889(7)
C12_2 C 0.5667(3) 0.6575(6) 0.4064(8)
C15_2 C 0.6042(3) 0.7506(7) 0.3391(9)
H11_2 H 0.6167 0.7216 0.2442
H14_2 H 0.5821 0.8208 0.3182
C18_2 C 0.6562(3) 0.7835(7) 0.4414(10)
H17_2 H 0.6453 0.7930 0.5440
H20_2 H 0.6837 0.7209 0.4401
C22_2 C 0.7207(3) 0.8919(6) 0.2817(9)
H25_2 H 0.9905 0.8030 0.0798
Cu1_7 Cu 0.0000 0.0000 0.0000
O5_5 O 0.0000 0.1724(7) 0.0000
O23_2 O 0.1227(3) 0.0000 0.0634(8)
Cu1_8 Cu 0.0000 1.0000 0.0000
O23_3 O 0.1227(3) 1.0000 0.0634(8)
O24_5 O 0.0000 0.8276(7) 0.0000
Cu1_9 Cu 1.0000 -0.0000 1.0000
O4_2 O 0.8773(3) -0.0000 0.9366(8)
O5_6 O 1.0000 0.1724(7) 1.0000
Cu1_10 Cu 1.0000 1.0000 1.0000
O4_3 O 0.8773(3) 1.0000 0.9366(8)
O24_6 O 1.0000 0.8276(7) 1.0000
loop_
_geom_bond_atom_site_label_1
_geom_bond_atom_site_label_2
_geom_bond_site_symmetry_1
_geom_bond_site_symmetry_2
Cu1 O3 1_555 1_555
O1 C4 1_555 1_555
O2 C4 1_555 1_555
O3 C1 1_555 1_555
O5 Cu1 1_555 1_555
O6 C7 1_555 1_555
O7 C8 1_555 1_555
N1 C3 1_555 1_555
N2 C6 1_555 1_555
C1 C2 1_555 1_555
C2 C3 1_555 1_555
C3 H1 1_555 1_555
C4 C5 1_555 1_555
C5 H2 1_555 1_555
H3 C5 1_555 1_555
C6 C5 1_555 1_555
H4 C6 1_555 1_555
H5 C6 1_555 1_555
C7 N2 1_555 1_555
C8 N1 1_555 1_555
H6 O5 1_555 1_555
H7 C2 1_555 1_555
Cu7_2 O2 1_555 1_555
Cu5 O3 1_555 1_555
Cu7 O13 1_555 1_555
O11 C12 1_555 1_555
O13 C12 1_555 1_555
O24 Cu1 1_555 1_555
O26 C22 1_555 1_555
N4 C7 1_555 1_555
H8 C3 1_555 1_555
C12 C15 1_555 1_555
C15 H11 1_555 1_555
H14 C15 1_555 1_555
C18 N4 1_555 1_555
H17 C18 1_555 1_555
H20 C18 1_555 1_555
C22 N1 1_555 1_555
H25 O24 1_555 1_555
H26 C2 1_555 1_555
N2 C8 1_555 1_555
N4 C22 1_555 1_555
C15 C18 1_555 1_555
O5_2 Cu1_2 1_555 1_555
Cu8_2 O14 1_555 1_555
Cu9 O20 1_555 1_555
Cu8 O15 1_555 1_555
O9 C13 1_555 1_555
O10 C14 1_555 1_555
O14 C13 1_555 1_555
O15 C14 1_555 1_555
O20 Cu1_2 1_555 1_555
O24_2 Cu1_2 1_555 1_555
O25 C21 1_555 1_555
O27 C23 1_555 1_555
O28 C24 1_555 1_555
N3 C11 1_555 1_555
N5 C19 1_555 1_555
N6 C20 1_555 1_555
C9 O20 1_555 1_555
C10 C9 1_555 1_555
C11 C10 1_555 1_555
H9 C11 1_555 1_555
H10 C11 1_555 1_555
C13 C16 1_555 1_555
C14 C17 1_555 1_555
C16 H12 1_555 1_555
C17 H13 1_555 1_555
H15 C16 1_555 1_555
H16 C17 1_555 1_555
C19 C16 1_555 1_555
C20 C17 1_555 1_555
H18 C19 1_555 1_555
H19 C20 1_555 1_555
H21 C19 1_555 1_555
H22 C20 1_555 1_555
C21 N5 1_555 1_555
C23 N3 1_555 1_555
C24 N3 1_555 1_555
H23 O5_2 1_555 1_555
H24 O24_2 1_555 1_555
H27 C10 1_555 1_555
H28 C10 1_555 1_555
N5 C23 1_555 1_555
N6 C21 1_555 1_555
N6 C24 1_555 1_555
O21 Cu8 1_555 1_555
O21_2 Cu8_2 1_555 1_555
O21_3 Cu7 1_555 1_555
O21_4 Cu7_2 1_555 1_555
O5_3 Cu1_3 1_555 1_555
Cu9 O9_2 1_555 1_555
Cu5 O14_2 1_555 1_555
O9_2 C13_2 1_555 1_555
O14_2 C13_2 1_555 1_555
O21_3 Cu1_3 1_555 1_555
O25_2 C21_2 1_555 1_555
O27_2 C23_2 1_555 1_555
N3_2 C11_2 1_555 1_555
N5_2 C19_2 1_555 1_555
C9_2 O21_3 1_555 1_555
C10_2 C9_2 1_555 1_555
C11_2 C10_2 1_555 1_555
H10_2 C11_2 1_555 1_555
C13_2 C16_2 1_555 1_555
C16_2 H12_2 1_555 1_555
H15_2 C16_2 1_555 1_555
C19_2 C16_2 1_555 1_555
H18_2 C19_2 1_555 1_555
H21_2 C19_2 1_555 1_555
C21_2 N5_2 1_555 1_555
C23_2 N3_2 1_555 1_555
H23_2 O5_3 1_555 1_555
H28_2 C10_2 1_555 1_555
N5_2 C23_2 1_555 1_555
Cu9 O10_2 1_555 1_555
Cu5 O15_2 1_555 1_555
O10_2 C14_2 1_555 1_555
O15_2 C14_2 1_555 1_555
O21_4 Cu1_4 1_555 1_555
O24_3 Cu1_4 1_555 1_555
O25_3 C21_3 1_555 1_555
O28_2 C24_2 1_555 1_555
N3_3 C11_3 1_555 1_555
N6_2 C20_2 1_555 1_555
C9_3 O21_4 1_555 1_555
C10_3 C9_3 1_555 1_555
C11_3 C10_3 1_555 1_555
H9_2 C11_3 1_555 1_555
C14_2 C17_2 1_555 1_555
C17_2 H13_2 1_555 1_555
H16_2 C17_2 1_555 1_555
C20_2 C17_2 1_555 1_555
H19_2 C20_2 1_555 1_555
H22_2 C20_2 1_555 1_555
C24_2 N3_3 1_555 1_555
H24_2 O24_3 1_555 1_555
H27_2 C10_3 1_555 1_555
N6_2 C21_3 1_555 1_555
N6_2 C24_2 1_555 1_555
Cu1_5 O21 1_555 1_555
Cu5 O1_2 1_555 1_555
O1_2 C4_2 1_555 1_555
O2_2 C4_2 1_555 1_555
O21 C1_2 1_555 1_555
O5_4 Cu1_5 1_555 1_555
O6_2 C7_2 1_555 1_555
O7_2 C8_2 1_555 1_555
N1_2 C3_2 1_555 1_555
N2_2 C6_2 1_555 1_555
C1_2 C2_2 1_555 1_555
C2_2 C3_2 1_555 1_555
C4_2 C5_2 1_555 1_555
C5_2 H2_2 1_555 1_555
H3_2 C5_2 1_555 1_555
C6_2 C5_2 1_555 1_555
H4_2 C6_2 1_555 1_555
H5_2 C6_2 1_555 1_555
C7_2 N2_2 1_555 1_555
C8_2 N1_2 1_555 1_555
H6_2 O5_4 1_555 1_555
Cu9 O2_2 1_555 1_555
O11_2 Cu5 1_555 1_555
H8_2 C3_2 1_555 1_555
H26_2 C2_2 1_555 1_555
N2_2 C8_2 1_555 1_555
Cu1_6 O21_2 1_555 1_555
O21_2 C1_3 1_555 1_555
O6_3 C7_3 1_555 1_555
N1_3 C3_3 1_555 1_555
C1_3 C2_3 1_555 1_555
C2_3 C3_3 1_555 1_555
C3_3 H1_2 1_555 1_555
H7_2 C2_3 1_555 1_555
Cu9 O13_2 1_555 1_555
O11_2 C12_2 1_555 1_555
O13_2 C12_2 1_555 1_555
O24_4 Cu1_6 1_555 1_555
O26_2 C22_2 1_555 1_555
N4_2 C7_3 1_555 1_555
C12_2 C15_2 1_555 1_555
C15_2 H11_2 1_555 1_555
H14_2 C15_2 1_555 1_555
C18_2 N4_2 1_555 1_555
H17_2 C18_2 1_555 1_555
H20_2 C18_2 1_555 1_555
C22_2 N1_3 1_555 1_555
H25_2 O24_4 1_555 1_555
N4_2 C22_2 1_555 1_555
C15_2 C18_2 1_555 1_555
O5_5 Cu1_7 1_555 1_555
O24_5 Cu1_8 1_555 1_555
O5_6 Cu1_9 1_555 1_555
O24_6 Cu1_10 1_555 1_555

#END
