
###############################################################################
#
# This file contains modified crystal structure data generated from the
# MOF subset of the Cambridge Structural Database (CSD) v543 
# hosted by the Cambridge Crystallographic Data Centre (CCDC).
#
# This work is licensed under the Creative Commons
# Attribution-NonCommercial-ShareAlike 4.0 International License.
# To view a copy of this license, visit
# http://creativecommons.org/licenses/by-nc-sa/4.0/
# or send a letter to
# Creative Commons, PO Box 1866, Mountain View, CA 94042, USA.
#
# CIF created using the CSD Python API on 29 September 2022
# The structure has been converted into the P1 space group
# The structure has a 3D framework
# The original CSD entry EXUMEP01 is in the monoclinic crystal system
# The framework has been calculated to contain at least 10.0% void space
# The void calculation uses a probe of radius 1.32A, grid spacing 0.4
#
###############################################################################

data_EXUMEP01
_chemical_formula_moiety         '(C96 H48 Mn4 N16 O28)n'
_symmetry_cell_setting           triclinic
_symmetry_space_group_name_H-M   'P 1'
_symmetry_Int_Tables_number      1
_space_group_name_Hall           'P 1'
loop_
_symmetry_equiv_pos_site_id
_symmetry_equiv_pos_as_xyz
1 x,y,z
_cell_length_a                   15.6536(3)
_cell_length_b                   10.3095(3)
_cell_length_c                   16.8011(4)
_cell_angle_alpha                90
_cell_angle_beta                 102.1000(10)
_cell_angle_gamma                90
_cell_volume                     2651.14
loop_
_atom_site_label
_atom_site_type_symbol
_atom_site_fract_x
_atom_site_fract_y
_atom_site_fract_z
O1 O 0.16467(12) 0.19587(19) 0.41722(11)
N1 N 0.15064(13) 0.0317(2) 0.13502(13)
C1 C 0.21813(16) 0.1150(2) 0.15323(16)
C2 C 0.10368(17) 0.0093(3) 0.19129(17)
C3 C 0.23899(16) 0.1781(3) 0.22778(16)
H2 H 0.2853 0.2365 0.2385
C4 C 0.12107(18) 0.0671(3) 0.26743(17)
H3 H 0.0870 0.0483 0.3052
C5 C 0.19019(16) 0.1533(3) 0.28614(15)
C6 C 0.21582(16) 0.2125(3) 0.37046(15)
O2 O 0.52751(11) 0.30051(18) 0.02914(12)
O3 O 0.42976(11) 0.44647(18) 0.05394(11)
O4 O 0.28789(12) 0.26897(19) 0.38566(11)
C7 C 0.45429(16) 0.3340(3) 0.04067(15)
N2 N 0.26948(13) 0.0267(2) 0.03951(13)
C8 C 0.33165(16) 0.2287(3) 0.09235(15)
H4 H 0.3307 0.2994 0.1265
C9 C 0.27480(16) 0.1265(3) 0.09234(15)
C12 C 0.39034(16) 0.2248(3) 0.04096(15)
Mn2 Mn 0.64394(2) 0.40174(4) 0.02261(2)
Mn3 Mn 0.35606(2) 0.40174(4) 0.47739(2)
Mn4 Mn 0.14394(2) 0.09826(4) 0.52261(2)
C10 C 0.38979(19) 0.1182(3) 0.99163(19)
H5 H 0.4305 0.1106 0.9588
C11 C 0.32774(19) 0.0224(3) 0.99155(18)
Mn5 Mn 0.35606(2) 0.59826(4) 0.97739(2)
O7 O 0.07024(11) 0.05353(18) 0.94606(11)
Mn1 Mn 0.14394(2) 0.90174(4) 0.02261(2)
H1 H 0.0569 0.9521 0.1788
O6 O 0.02751(11) 0.80051(18) 0.02914(12)
O8 O 0.21211(12) 0.76897(19) 0.11434(11)
H6 H 0.3265 0.9520 0.9567
O5 O 0.16467(12) 0.80413(19) 0.91722(11)
O1_2 O 0.83533(12) 0.19587(19) 0.08278(11)
N1_2 N 0.84936(13) 0.0317(2) 0.36498(13)
C1_2 C 0.78187(16) 0.1150(2) 0.34677(16)
C2_2 C 0.89632(17) 0.0093(3) 0.30871(17)
C3_2 C 0.76101(16) 0.1781(3) 0.27222(16)
H2_2 H 0.7147 0.2365 0.2615
C4_2 C 0.87893(18) 0.0671(3) 0.23257(17)
H3_2 H 0.9130 0.0483 0.1948
C5_2 C 0.80981(16) 0.1533(3) 0.21386(15)
C6_2 C 0.78418(16) 0.2125(3) 0.12954(15)
O2_2 O 0.47249(11) 0.30051(18) 0.47086(12)
O3_2 O 0.57024(11) 0.44647(18) 0.44606(11)
O4_2 O 0.71211(12) 0.26897(19) 0.11434(11)
C7_2 C 0.54571(16) 0.3340(3) 0.45933(15)
N2_2 N 0.73052(13) 0.0267(2) 0.46049(13)
C8_2 C 0.66835(16) 0.2287(3) 0.40765(15)
H4_2 H 0.6693 0.2994 0.3735
C9_2 C 0.72520(16) 0.1265(3) 0.40766(15)
C10_2 C 0.61021(19) 0.1182(3) 0.50837(19)
H5_2 H 0.5695 0.1106 0.5412
C11_2 C 0.67226(19) 0.0224(3) 0.50845(18)
C12_2 C 0.60966(16) 0.2248(3) 0.45904(15)
Mn5_2 Mn 0.64394(2) 0.59826(4) 0.52261(2)
O7_2 O 0.92976(11) 0.05353(18) 0.55394(11)
Mn4_2 Mn 0.85606(2) 0.09826(4) 0.97739(2)
Mn1_2 Mn 0.85606(2) 0.90174(4) 0.47739(2)
H1_2 H 0.9431 0.9521 0.3212
H6_2 H 0.6735 0.9520 0.5433
O5_2 O 0.83533(12) 0.80413(19) 0.58278(11)
O6_2 O 0.97249(11) 0.80051(18) 0.47086(12)
O8_2 O 0.78789(12) 0.76897(19) 0.38566(11)
O1_3 O 0.66467(12) 0.69587(19) 0.41722(11)
N1_3 N 0.65064(13) 0.5317(2) 0.13502(13)
C1_3 C 0.71813(16) 0.6150(2) 0.15323(16)
C2_3 C 0.60368(17) 0.5093(3) 0.19129(17)
H1_3 H 0.5569 0.4521 0.1788
C3_3 C 0.73899(16) 0.6781(3) 0.22778(16)
H2_3 H 0.7853 0.7365 0.2385
C4_3 C 0.62107(18) 0.5671(3) 0.26743(17)
H3_3 H 0.5870 0.5483 0.3052
C5_3 C 0.69019(16) 0.6533(3) 0.28614(15)
C6_3 C 0.71582(16) 0.7125(3) 0.37046(15)
O3_3 O 0.92976(11) 0.94647(18) 0.05394(11)
C7_3 C 0.95429(16) 0.8340(3) 0.04067(15)
N2_3 N 0.76948(13) 0.5267(2) 0.03951(13)
C8_3 C 0.83165(16) 0.7287(3) 0.09235(15)
H4_3 H 0.8307 0.7994 0.1265
C9_3 C 0.77480(16) 0.6265(3) 0.09234(15)
C12_3 C 0.89034(16) 0.7248(3) 0.04096(15)
C10_3 C 0.88979(19) 0.6182(3) 0.99163(19)
H5_3 H 0.9305 0.6106 0.9588
C11_3 C 0.82774(19) 0.5224(3) 0.99155(18)
H6_3 H 0.8265 0.4520 0.9567
O5_3 O 0.66467(12) 0.30413(19) 0.91722(11)
O7_3 O 0.57024(11) 0.55353(18) 0.94606(11)
O1_4 O 0.33533(12) 0.69587(19) 0.08278(11)
N1_4 N 0.34936(13) 0.5317(2) 0.36498(13)
C1_4 C 0.28187(16) 0.6150(2) 0.34677(16)
C2_4 C 0.39632(17) 0.5093(3) 0.30871(17)
H1_4 H 0.4431 0.4521 0.3212
C3_4 C 0.26101(16) 0.6781(3) 0.27222(16)
H2_4 H 0.2147 0.7365 0.2615
C4_4 C 0.37893(18) 0.5671(3) 0.23257(17)
H3_4 H 0.4130 0.5483 0.1948
C5_4 C 0.30981(16) 0.6533(3) 0.21386(15)
C6_4 C 0.28418(16) 0.7125(3) 0.12954(15)
O3_4 O 0.07024(11) 0.94647(18) 0.44606(11)
C7_4 C 0.04571(16) 0.8340(3) 0.45933(15)
N2_4 N 0.23052(13) 0.5267(2) 0.46049(13)
C8_4 C 0.16835(16) 0.7287(3) 0.40765(15)
H4_4 H 0.1693 0.7994 0.3735
C9_4 C 0.22520(16) 0.6265(3) 0.40766(15)
C10_4 C 0.11021(19) 0.6182(3) 0.50837(19)
H5_4 H 0.0695 0.6106 0.5412
C11_4 C 0.17226(19) 0.5224(3) 0.50845(18)
H6_4 H 0.1735 0.4520 0.5433
C12_4 C 0.10966(16) 0.7248(3) 0.45904(15)
O5_4 O 0.33533(12) 0.30413(19) 0.58278(11)
O7_4 O 0.42976(11) 0.55353(18) 0.55394(11)
H6_5 H 0.6735 0.0480 0.0433
H1_5 H 0.9431 0.0479 0.8212
O6_3 O 0.97249(11) 0.19949(18) 0.97086(12)
O8_3 O 0.78789(12) 0.23103(19) 0.88566(11)
C10_5 C 0.61021(19) 0.8818(3) 0.00837(19)
H5_5 H 0.5695 0.8894 0.0412
C11_5 C 0.67226(19) 0.9776(3) 0.00845(18)
N1_5 N 0.84936(13) 0.9683(2) 0.86498(13)
C1_5 C 0.78187(16) 0.8850(2) 0.84677(16)
C2_5 C 0.89632(17) 0.9907(3) 0.80871(17)
C3_5 C 0.76101(16) 0.8219(3) 0.77222(16)
H2_5 H 0.7147 0.7635 0.7615
C4_5 C 0.87893(18) 0.9329(3) 0.73257(17)
H3_5 H 0.9130 0.9517 0.6948
C5_5 C 0.80981(16) 0.8467(3) 0.71386(15)
C6_5 C 0.78418(16) 0.7875(3) 0.62954(15)
O2_3 O 0.47249(11) 0.69949(18) 0.97086(12)
O4_3 O 0.71211(12) 0.73103(19) 0.61434(11)
C7_5 C 0.54571(16) 0.6660(3) 0.95933(15)
N2_5 N 0.73052(13) 0.9733(2) 0.96049(13)
C8_5 C 0.66835(16) 0.7713(3) 0.90765(15)
H4_5 H 0.6693 0.7006 0.8735
C9_5 C 0.72520(16) 0.8735(3) 0.90766(15)
C12_5 C 0.60966(16) 0.7752(3) 0.95904(15)
H1_6 H 0.0569 0.0479 0.6788
H6_6 H 0.3265 0.0480 0.4567
O6_4 O 0.02751(11) 0.19949(18) 0.52914(12)
O8_4 O 0.21211(12) 0.23103(19) 0.61434(11)
N1_6 N 0.15064(13) 0.9683(2) 0.63502(13)
C1_6 C 0.21813(16) 0.8850(2) 0.65323(16)
C2_6 C 0.10368(17) 0.9907(3) 0.69129(17)
C3_6 C 0.23899(16) 0.8219(3) 0.72778(16)
H2_6 H 0.2853 0.7635 0.7385
C4_6 C 0.12107(18) 0.9329(3) 0.76743(17)
H3_6 H 0.0870 0.9517 0.8052
C5_6 C 0.19019(16) 0.8467(3) 0.78614(15)
C6_6 C 0.21582(16) 0.7875(3) 0.87046(15)
O2_4 O 0.52751(11) 0.69949(18) 0.52914(12)
O4_4 O 0.28789(12) 0.73103(19) 0.88566(11)
C7_6 C 0.45429(16) 0.6660(3) 0.54067(15)
N2_6 N 0.26948(13) 0.9733(2) 0.53951(13)
C8_6 C 0.33165(16) 0.7713(3) 0.59235(15)
H4_6 H 0.3307 0.7006 0.6265
C9_6 C 0.27480(16) 0.8735(3) 0.59234(15)
C10_6 C 0.38979(19) 0.8818(3) 0.49163(19)
H5_6 H 0.4305 0.8894 0.4588
C11_6 C 0.32774(19) 0.9776(3) 0.49155(18)
C12_6 C 0.39034(16) 0.7752(3) 0.54096(15)
C10_7 C 0.11021(19) 0.3818(3) 0.00837(19)
H5_7 H 0.0695 0.3894 0.0412
C11_7 C 0.17226(19) 0.4776(3) 0.00845(18)
H6_7 H 0.1735 0.5480 0.0433
N1_7 N 0.34936(13) 0.4683(2) 0.86498(13)
C1_7 C 0.28187(16) 0.3850(2) 0.84677(16)
C2_7 C 0.39632(17) 0.4907(3) 0.80871(17)
H1_7 H 0.4431 0.5479 0.8212
C3_7 C 0.26101(16) 0.3219(3) 0.77222(16)
H2_7 H 0.2147 0.2635 0.7615
C4_7 C 0.37893(18) 0.4329(3) 0.73257(17)
H3_7 H 0.4130 0.4517 0.6948
C5_7 C 0.30981(16) 0.3467(3) 0.71386(15)
C6_7 C 0.28418(16) 0.2875(3) 0.62954(15)
C7_7 C 0.04571(16) 0.1660(3) 0.95933(15)
N2_7 N 0.23052(13) 0.4733(2) 0.96049(13)
C8_7 C 0.16835(16) 0.2713(3) 0.90765(15)
H4_7 H 0.1693 0.2006 0.8735
C9_7 C 0.22520(16) 0.3735(3) 0.90766(15)
C12_7 C 0.10966(16) 0.2752(3) 0.95904(15)
N1_8 N 0.65064(13) 0.4683(2) 0.63502(13)
C1_8 C 0.71813(16) 0.3850(2) 0.65323(16)
C2_8 C 0.60368(17) 0.4907(3) 0.69129(17)
H1_8 H 0.5569 0.5479 0.6788
C3_8 C 0.73899(16) 0.3219(3) 0.72778(16)
H2_8 H 0.7853 0.2635 0.7385
C4_8 C 0.62107(18) 0.4329(3) 0.76743(17)
H3_8 H 0.5870 0.4517 0.8052
C5_8 C 0.69019(16) 0.3467(3) 0.78614(15)
C6_8 C 0.71582(16) 0.2875(3) 0.87046(15)
C7_8 C 0.95429(16) 0.1660(3) 0.54067(15)
N2_8 N 0.76948(13) 0.4733(2) 0.53951(13)
C8_8 C 0.83165(16) 0.2713(3) 0.59235(15)
H4_8 H 0.8307 0.2006 0.6265
C9_8 C 0.77480(16) 0.3735(3) 0.59234(15)
C10_8 C 0.88979(19) 0.3818(3) 0.49163(19)
H5_8 H 0.9305 0.3894 0.4588
C11_8 C 0.82774(19) 0.4776(3) 0.49155(18)
H6_8 H 0.8265 0.5480 0.4567
C12_8 C 0.89034(16) 0.2752(3) 0.54096(15)
loop_
_geom_bond_atom_site_label_1
_geom_bond_atom_site_label_2
_geom_bond_site_symmetry_1
_geom_bond_site_symmetry_2
O1 C6 1_555 1_555
N1 C1 1_555 1_555
C1 C3 1_555 1_555
C2 N1 1_555 1_555
C3 H2 1_555 1_555
C4 C2 1_555 1_555
H3 C4 1_555 1_555
C5 C3 1_555 1_555
C6 C5 1_555 1_555
O2 C7 1_555 1_555
O3 C7 1_555 1_555
O4 C6 1_555 1_555
C7 C12 1_555 1_555
C8 H4 1_555 1_555
C9 C1 1_555 1_555
C12 C8 1_555 1_555
Mn2 O2 1_555 1_555
Mn3 O4 1_555 1_555
Mn4 O1 1_555 1_555
C4 C5 1_555 1_555
N2 C9 1_555 1_555
C8 C9 1_555 1_555
C10 H5 1_555 1_555
C10 C11 1_555 1_555
O6 Mn1 1_555 1_555
O8 Mn1 1_555 1_555
O1_2 C6_2 1_555 1_555
N1_2 C1_2 1_555 1_555
C1_2 C3_2 1_555 1_555
C2_2 N1_2 1_555 1_555
C3_2 H2_2 1_555 1_555
C4_2 C2_2 1_555 1_555
H3_2 C4_2 1_555 1_555
C5_2 C3_2 1_555 1_555
C6_2 C5_2 1_555 1_555
O2_2 C7_2 1_555 1_555
O3_2 C7_2 1_555 1_555
O4_2 C6_2 1_555 1_555
C7_2 C12_2 1_555 1_555
C8_2 H4_2 1_555 1_555
C9_2 C1_2 1_555 1_555
C10_2 H5_2 1_555 1_555
C11_2 N2_2 1_555 1_555
C12_2 C8_2 1_555 1_555
Mn3 O2_2 1_555 1_555
Mn2 O4_2 1_555 1_555
Mn5_2 O3_2 1_555 1_555
C4_2 C5_2 1_555 1_555
N2_2 C9_2 1_555 1_555
C8_2 C9_2 1_555 1_555
C10_2 C11_2 1_555 1_555
C10_2 C12_2 1_555 1_555
O5_2 Mn1_2 1_555 1_555
O6_2 Mn1_2 1_555 1_555
O8_2 Mn1_2 1_555 1_555
Mn2 N1_3 1_555 1_555
O1_3 C6_3 1_555 1_555
N1_3 C1_3 1_555 1_555
C1_3 C3_3 1_555 1_555
C2_3 N1_3 1_555 1_555
H1_3 C2_3 1_555 1_555
C3_3 H2_3 1_555 1_555
C4_3 C2_3 1_555 1_555
H3_3 C4_3 1_555 1_555
C5_3 C3_3 1_555 1_555
C6_3 C5_3 1_555 1_555
O3_3 C7_3 1_555 1_555
O8_2 C6_3 1_555 1_555
C7_3 C12_3 1_555 1_555
N2_3 Mn2 1_555 1_555
C8_3 H4_3 1_555 1_555
C9_3 C1_3 1_555 1_555
C12_3 C8_3 1_555 1_555
Mn5_2 O1_3 1_555 1_555
C4_3 C5_3 1_555 1_555
N2_3 C9_3 1_555 1_555
C8_3 C9_3 1_555 1_555
C10_3 H5_3 1_555 1_555
H6_3 C11_3 1_555 1_555
C10_3 C11_3 1_555 1_555
Mn3 N1_4 1_555 1_555
O1_4 C6_4 1_555 1_555
N1_4 C1_4 1_555 1_555
C1_4 C3_4 1_555 1_555
C2_4 N1_4 1_555 1_555
H1_4 C2_4 1_555 1_555
C3_4 H2_4 1_555 1_555
C4_4 C2_4 1_555 1_555
H3_4 C4_4 1_555 1_555
C5_4 C3_4 1_555 1_555
C6_4 C5_4 1_555 1_555
O3_4 C7_4 1_555 1_555
O8 C6_4 1_555 1_555
C7_4 C12_4 1_555 1_555
N2_4 Mn3 1_555 1_555
C8_4 H4_4 1_555 1_555
C9_4 C1_4 1_555 1_555
C10_4 H5_4 1_555 1_555
C11_4 N2_4 1_555 1_555
H6_4 C11_4 1_555 1_555
C12_4 C8_4 1_555 1_555
O5_4 Mn3 1_555 1_555
O7_4 Mn3 1_555 1_555
C4_4 C5_4 1_555 1_555
N2_4 C9_4 1_555 1_555
C8_4 C9_4 1_555 1_555
C10_4 C11_4 1_555 1_555
C10_4 C12_4 1_555 1_555
O6_3 Mn4_2 1_555 1_555
O8_3 Mn4_2 1_555 1_555
C10_5 H5_5 1_555 1_555
C10_5 C11_5 1_555 1_555
O5_2 C6_5 1_555 1_555
N1_5 C1_5 1_555 1_555
C1_5 C3_5 1_555 1_555
C2_5 N1_5 1_555 1_555
C3_5 H2_5 1_555 1_555
C4_5 C2_5 1_555 1_555
H3_5 C4_5 1_555 1_555
C5_5 C3_5 1_555 1_555
C6_5 C5_5 1_555 1_555
O2_3 C7_5 1_555 1_555
O7_3 C7_5 1_555 1_555
O4_3 C6_5 1_555 1_555
C7_5 C12_5 1_555 1_555
C8_5 H4_5 1_555 1_555
C9_5 C1_5 1_555 1_555
C12_5 C8_5 1_555 1_555
Mn5 O2_3 1_555 1_555
Mn5_2 O4_3 1_555 1_555
C4_5 C5_5 1_555 1_555
N2_5 C9_5 1_555 1_555
C8_5 C9_5 1_555 1_555
O6_4 Mn4 1_555 1_555
O8_4 Mn4 1_555 1_555
O5 C6_6 1_555 1_555
N1_6 C1_6 1_555 1_555
C1_6 C3_6 1_555 1_555
C2_6 N1_6 1_555 1_555
C3_6 H2_6 1_555 1_555
C4_6 C2_6 1_555 1_555
H3_6 C4_6 1_555 1_555
C5_6 C3_6 1_555 1_555
C6_6 C5_6 1_555 1_555
O2_4 C7_6 1_555 1_555
O7_4 C7_6 1_555 1_555
O4_4 C6_6 1_555 1_555
C7_6 C12_6 1_555 1_555
C8_6 H4_6 1_555 1_555
C9_6 C1_6 1_555 1_555
C10_6 H5_6 1_555 1_555
C11_6 N2_6 1_555 1_555
C12_6 C8_6 1_555 1_555
Mn5_2 O2_4 1_555 1_555
Mn5 O4_4 1_555 1_555
C4_6 C5_6 1_555 1_555
N2_6 C9_6 1_555 1_555
C8_6 C9_6 1_555 1_555
C10_6 C11_6 1_555 1_555
C10_6 C12_6 1_555 1_555
C10_7 H5_7 1_555 1_555
H6_7 C11_7 1_555 1_555
C10_7 C11_7 1_555 1_555
Mn5 N1_7 1_555 1_555
O5_4 C6_7 1_555 1_555
N1_7 C1_7 1_555 1_555
C1_7 C3_7 1_555 1_555
C2_7 N1_7 1_555 1_555
H1_7 C2_7 1_555 1_555
C3_7 H2_7 1_555 1_555
C4_7 C2_7 1_555 1_555
H3_7 C4_7 1_555 1_555
C5_7 C3_7 1_555 1_555
C6_7 C5_7 1_555 1_555
O7 C7_7 1_555 1_555
O8_4 C6_7 1_555 1_555
C7_7 C12_7 1_555 1_555
N2_7 Mn5 1_555 1_555
C8_7 H4_7 1_555 1_555
C9_7 C1_7 1_555 1_555
C12_7 C8_7 1_555 1_555
C4_7 C5_7 1_555 1_555
N2_7 C9_7 1_555 1_555
C8_7 C9_7 1_555 1_555
Mn5_2 N1_8 1_555 1_555
O5_3 C6_8 1_555 1_555
N1_8 C1_8 1_555 1_555
C1_8 C3_8 1_555 1_555
C2_8 N1_8 1_555 1_555
H1_8 C2_8 1_555 1_555
C3_8 H2_8 1_555 1_555
C4_8 C2_8 1_555 1_555
H3_8 C4_8 1_555 1_555
C5_8 C3_8 1_555 1_555
C6_8 C5_8 1_555 1_555
O7_2 C7_8 1_555 1_555
O8_3 C6_8 1_555 1_555
C7_8 C12_8 1_555 1_555
N2_8 Mn5_2 1_555 1_555
C8_8 H4_8 1_555 1_555
C9_8 C1_8 1_555 1_555
C10_8 H5_8 1_555 1_555
C11_8 N2_8 1_555 1_555
H6_8 C11_8 1_555 1_555
C12_8 C8_8 1_555 1_555
C4_8 C5_8 1_555 1_555
N2_8 C9_8 1_555 1_555
C8_8 C9_8 1_555 1_555
C10_8 C11_8 1_555 1_555
C10_8 C12_8 1_555 1_555

#END
