
###############################################################################
#
# This file contains modified crystal structure data generated from the
# MOF subset of the Cambridge Structural Database (CSD) v543 
# hosted by the Cambridge Crystallographic Data Centre (CCDC).
#
# This work is licensed under the Creative Commons
# Attribution-NonCommercial-ShareAlike 4.0 International License.
# To view a copy of this license, visit
# http://creativecommons.org/licenses/by-nc-sa/4.0/
# or send a letter to
# Creative Commons, PO Box 1866, Mountain View, CA 94042, USA.
#
# CIF created using the CSD Python API on 29 September 2022
# The structure has been converted into the P1 space group
# The structure has a 3D framework
# The original CSD entry EXUMEP is in the monoclinic crystal system
# The framework has been calculated to contain at least 10.0% void space
# The void calculation uses a probe of radius 1.32A, grid spacing 0.4
#
###############################################################################

data_EXUMEP
_chemical_formula_moiety         '(C96 H48 Mn4 N16 O28)n'
_symmetry_cell_setting           triclinic
_symmetry_space_group_name_H-M   'P 1'
_symmetry_Int_Tables_number      1
_space_group_name_Hall           'P 1'
loop_
_symmetry_equiv_pos_site_id
_symmetry_equiv_pos_as_xyz
1 x,y,z
_cell_length_a                   15.6763(10)
_cell_length_b                   10.2423(6)
_cell_length_c                   16.7755(10)
_cell_angle_alpha                90
_cell_angle_beta                 102.2490(10)
_cell_angle_gamma                90
_cell_volume                     2632.18
loop_
_atom_site_label
_atom_site_type_symbol
_atom_site_fract_x
_atom_site_fract_y
_atom_site_fract_z
Mn1 Mn 0.14325(3) 0.59899(5) 0.02220(3)
N1 N 0.14969(17) 0.4685(3) 0.13462(16)
C1 C 0.1027(2) 0.4908(3) 0.1911(2)
H1 H 0.0550 0.5498 0.1783
C2 C 0.1201(2) 0.4325(3) 0.2671(2)
H2 H 0.0851 0.4514 0.3055
C3 C 0.1892(2) 0.3462(3) 0.2862(2)
C4 C 0.2378(2) 0.3207(3) 0.2274(2)
H3 H 0.2847 0.2601 0.2383
C5 C 0.2172(2) 0.3845(3) 0.15304(19)
C6 C 0.2736(2) 0.3733(3) 0.09189(19)
C7 C 0.3308(2) 0.2701(3) 0.09247(19)
H4 H 0.3298 0.1974 0.1274
C8 C 0.3894(2) 0.2748(3) 0.0414(2)
N2 N 0.26846(17) 0.4744(3) 0.03965(16)
C11 C 0.2155(2) 0.2864(3) 0.3707(2)
O1 O 0.28864(15) 0.2317(2) 0.38616(14)
O2 O 0.16373(15) 0.3007(2) 0.41754(13)
C12 C 0.4542(2) 0.1657(3) 0.04162(19)
O3 O 0.42993(14) 0.0524(2) 0.05438(13)
O4 O 0.52733(14) 0.2000(2) 0.03031(14)
O5 O 0.21136(15) 0.7317(2) 0.11384(14)
O8 O 0.02733(14) 0.7000(2) 0.03031(14)
Mn2 Mn 0.35675(3) 0.09899(5) 0.47780(3)
Mn3 Mn 0.14325(3) 0.40101(5) 0.52220(3)
Mn5 Mn 0.64325(3) 0.09899(5) 0.02220(3)
C9 C 0.3888(2) 0.3826(3) 0.9920(2)
H5 H 0.4305 0.3907 0.9586
C10 C 0.3271(2) 0.4786(4) 0.9916(2)
H6 H 0.3260 0.5508 0.9559
O6 O 0.16373(15) 0.6993(2) 0.91754(13)
O7 O 0.07007(14) 0.4476(2) 0.94562(13)
Mn4 Mn 0.35675(3) 0.90101(5) 0.97780(3)
H1_2 H 0.5550 0.0498 0.1783
O5_2 O 0.71136(15) 0.2317(2) 0.11384(14)
H6_2 H 0.8260 0.0508 0.9559
O6_2 O 0.66373(15) 0.1993(2) 0.91754(13)
N1_2 N 0.64969(17) 0.9685(3) 0.13462(16)
C1_2 C 0.6027(2) 0.9908(3) 0.1911(2)
C2_2 C 0.6201(2) 0.9325(3) 0.2671(2)
H2_2 H 0.5851 0.9514 0.3055
C3_2 C 0.6892(2) 0.8462(3) 0.2862(2)
C4_2 C 0.7378(2) 0.8207(3) 0.2274(2)
H3_2 H 0.7847 0.7601 0.2383
C5_2 C 0.7172(2) 0.8845(3) 0.15304(19)
C6_2 C 0.7736(2) 0.8733(3) 0.09189(19)
C7_2 C 0.8308(2) 0.7701(3) 0.09247(19)
H4_2 H 0.8298 0.6974 0.1274
C8_2 C 0.8894(2) 0.7748(3) 0.0414(2)
N2_2 N 0.76846(17) 0.9744(3) 0.03965(16)
C11_2 C 0.7155(2) 0.7864(3) 0.3707(2)
O1_2 O 0.78864(15) 0.7317(2) 0.38616(14)
O2_2 O 0.66373(15) 0.8007(2) 0.41754(13)
C12_2 C 0.9542(2) 0.6657(3) 0.04162(19)
O3_2 O 0.92993(14) 0.5524(2) 0.05438(13)
Mn2_2 Mn 0.85675(3) 0.59899(5) 0.47780(3)
Mn3_2 Mn 0.64325(3) 0.90101(5) 0.52220(3)
C9_2 C 0.8888(2) 0.8826(3) 0.9920(2)
H5_2 H 0.9305 0.8907 0.9586
C10_2 C 0.8271(2) 0.9786(4) 0.9916(2)
O7_2 O 0.57007(14) 0.9476(2) 0.94562(13)
Mn4_2 Mn 0.85675(3) 0.40101(5) 0.97780(3)
N1_3 N 0.85031(17) 0.4685(3) 0.36538(16)
C1_3 C 0.8973(2) 0.4908(3) 0.3089(2)
H1_3 H 0.9450 0.5498 0.3217
C2_3 C 0.8799(2) 0.4325(3) 0.2329(2)
H2_3 H 0.9149 0.4514 0.1945
C3_3 C 0.8108(2) 0.3462(3) 0.2138(2)
C4_3 C 0.7622(2) 0.3207(3) 0.2726(2)
H3_3 H 0.7153 0.2601 0.2617
C5_3 C 0.7828(2) 0.3845(3) 0.34696(19)
C6_3 C 0.7264(2) 0.3733(3) 0.40811(19)
C7_3 C 0.6692(2) 0.2701(3) 0.40753(19)
H4_3 H 0.6702 0.1974 0.3726
C8_3 C 0.6106(2) 0.2748(3) 0.4586(2)
C9_3 C 0.6112(2) 0.3826(3) 0.5080(2)
H5_3 H 0.5695 0.3907 0.5414
C10_3 C 0.6729(2) 0.4786(4) 0.5084(2)
H6_3 H 0.6740 0.5508 0.5441
N2_3 N 0.73154(17) 0.4744(3) 0.46035(16)
C11_3 C 0.7845(2) 0.2864(3) 0.1293(2)
O2_3 O 0.83627(15) 0.3007(2) 0.08246(13)
C12_3 C 0.5458(2) 0.1657(3) 0.45838(19)
O3_3 O 0.57007(14) 0.0524(2) 0.44562(13)
O4_2 O 0.47267(14) 0.2000(2) 0.46969(14)
O6_3 O 0.83627(15) 0.6993(2) 0.58246(13)
O7_3 O 0.92993(14) 0.4476(2) 0.55438(13)
O8_2 O 0.97267(14) 0.7000(2) 0.46969(14)
H1_4 H 0.4450 0.0498 0.3217
H6_4 H 0.1740 0.0508 0.5441
O6_4 O 0.33627(15) 0.1993(2) 0.58246(13)
N1_4 N 0.35031(17) 0.9685(3) 0.36538(16)
C1_4 C 0.3973(2) 0.9908(3) 0.3089(2)
C2_4 C 0.3799(2) 0.9325(3) 0.2329(2)
H2_4 H 0.4149 0.9514 0.1945
C3_4 C 0.3108(2) 0.8462(3) 0.2138(2)
C4_4 C 0.2622(2) 0.8207(3) 0.2726(2)
H3_4 H 0.2153 0.7601 0.2617
C5_4 C 0.2828(2) 0.8845(3) 0.34696(19)
C6_4 C 0.2264(2) 0.8733(3) 0.40811(19)
C7_4 C 0.1692(2) 0.7701(3) 0.40753(19)
H4_4 H 0.1702 0.6974 0.3726
C8_4 C 0.1106(2) 0.7748(3) 0.4586(2)
C9_4 C 0.1112(2) 0.8826(3) 0.5080(2)
H5_4 H 0.0695 0.8907 0.5414
C10_4 C 0.1729(2) 0.9786(4) 0.5084(2)
N2_4 N 0.23154(17) 0.9744(3) 0.46035(16)
C11_4 C 0.2845(2) 0.7864(3) 0.1293(2)
O2_4 O 0.33627(15) 0.8007(2) 0.08246(13)
C12_4 C 0.0458(2) 0.6657(3) 0.45838(19)
O3_4 O 0.07007(14) 0.5524(2) 0.44562(13)
O7_4 O 0.42993(14) 0.9476(2) 0.55438(13)
C9_5 C 0.6112(2) 0.6174(3) 0.0080(2)
H5_5 H 0.5695 0.6093 0.0414
C10_5 C 0.6729(2) 0.5214(4) 0.0084(2)
H6_5 H 0.6740 0.4492 0.0441
N1_5 N 0.85031(17) 0.5315(3) 0.86538(16)
C1_5 C 0.8973(2) 0.5092(3) 0.8089(2)
H1_5 H 0.9450 0.4502 0.8217
C2_5 C 0.8799(2) 0.5675(3) 0.7329(2)
H2_5 H 0.9149 0.5486 0.6945
C3_5 C 0.8108(2) 0.6538(3) 0.7138(2)
C4_5 C 0.7622(2) 0.6793(3) 0.7726(2)
H3_5 H 0.7153 0.7399 0.7617
C5_5 C 0.7828(2) 0.6155(3) 0.84696(19)
C6_5 C 0.7264(2) 0.6267(3) 0.90811(19)
C7_5 C 0.6692(2) 0.7299(3) 0.90753(19)
H4_5 H 0.6702 0.8026 0.8726
C8_5 C 0.6106(2) 0.7252(3) 0.9586(2)
N2_5 N 0.73154(17) 0.5256(3) 0.96035(16)
C11_5 C 0.7845(2) 0.7136(3) 0.6293(2)
O1_3 O 0.71136(15) 0.7683(2) 0.61384(14)
C12_5 C 0.5458(2) 0.8343(3) 0.95838(19)
O4_3 O 0.47267(14) 0.8000(2) 0.96969(14)
O5_3 O 0.78864(15) 0.2683(2) 0.88616(14)
O8_3 O 0.97267(14) 0.3000(2) 0.96969(14)
C9_6 C 0.1112(2) 0.1174(3) 0.0080(2)
H5_6 H 0.0695 0.1093 0.0414
C10_6 C 0.1729(2) 0.0214(4) 0.0084(2)
N1_6 N 0.35031(17) 0.0315(3) 0.86538(16)
C1_6 C 0.3973(2) 0.0092(3) 0.8089(2)
C2_6 C 0.3799(2) 0.0675(3) 0.7329(2)
H2_6 H 0.4149 0.0486 0.6945
C3_6 C 0.3108(2) 0.1538(3) 0.7138(2)
C4_6 C 0.2622(2) 0.1793(3) 0.7726(2)
H3_6 H 0.2153 0.2399 0.7617
C5_6 C 0.2828(2) 0.1155(3) 0.84696(19)
C6_6 C 0.2264(2) 0.1267(3) 0.90811(19)
C7_6 C 0.1692(2) 0.2299(3) 0.90753(19)
H4_6 H 0.1702 0.3026 0.8726
C8_6 C 0.1106(2) 0.2252(3) 0.9586(2)
N2_6 N 0.23154(17) 0.0256(3) 0.96035(16)
C11_6 C 0.2845(2) 0.2136(3) 0.6293(2)
O1_4 O 0.21136(15) 0.2683(2) 0.61384(14)
C12_6 C 0.0458(2) 0.3343(3) 0.95838(19)
H6_6 H 0.1740 0.9492 0.0441
H1_6 H 0.4450 0.9502 0.8217
O5_4 O 0.28864(15) 0.7683(2) 0.88616(14)
N1_7 N 0.14969(17) 0.5315(3) 0.63462(16)
C1_7 C 0.1027(2) 0.5092(3) 0.6911(2)
H1_7 H 0.0550 0.4502 0.6783
C2_7 C 0.1201(2) 0.5675(3) 0.7671(2)
H2_7 H 0.0851 0.5486 0.8055
C3_7 C 0.1892(2) 0.6538(3) 0.7862(2)
C4_7 C 0.2378(2) 0.6793(3) 0.7274(2)
H3_7 H 0.2847 0.7399 0.7383
C5_7 C 0.2172(2) 0.6155(3) 0.65304(19)
C6_7 C 0.2736(2) 0.6267(3) 0.59189(19)
C7_7 C 0.3308(2) 0.7299(3) 0.59247(19)
H4_7 H 0.3298 0.8026 0.6274
C8_7 C 0.3894(2) 0.7252(3) 0.5414(2)
C9_7 C 0.3888(2) 0.6174(3) 0.4920(2)
H5_7 H 0.4305 0.6093 0.4586
C10_7 C 0.3271(2) 0.5214(4) 0.4916(2)
H6_7 H 0.3260 0.4492 0.4559
N2_7 N 0.26846(17) 0.5256(3) 0.53965(16)
C11_7 C 0.2155(2) 0.7136(3) 0.8707(2)
C12_7 C 0.4542(2) 0.8343(3) 0.54162(19)
O4_4 O 0.52733(14) 0.8000(2) 0.53031(14)
O8_4 O 0.02733(14) 0.3000(2) 0.53031(14)
N1_8 N 0.64969(17) 0.0315(3) 0.63462(16)
C1_8 C 0.6027(2) 0.0092(3) 0.6911(2)
C2_8 C 0.6201(2) 0.0675(3) 0.7671(2)
H2_8 H 0.5851 0.0486 0.8055
C3_8 C 0.6892(2) 0.1538(3) 0.7862(2)
C4_8 C 0.7378(2) 0.1793(3) 0.7274(2)
H3_8 H 0.7847 0.2399 0.7383
C5_8 C 0.7172(2) 0.1155(3) 0.65304(19)
C6_8 C 0.7736(2) 0.1267(3) 0.59189(19)
C7_8 C 0.8308(2) 0.2299(3) 0.59247(19)
H4_8 H 0.8298 0.3026 0.6274
C8_8 C 0.8894(2) 0.2252(3) 0.5414(2)
C9_8 C 0.8888(2) 0.1174(3) 0.4920(2)
H5_8 H 0.9305 0.1093 0.4586
C10_8 C 0.8271(2) 0.0214(4) 0.4916(2)
N2_8 N 0.76846(17) 0.0256(3) 0.53965(16)
C11_8 C 0.7155(2) 0.2136(3) 0.8707(2)
C12_8 C 0.9542(2) 0.3343(3) 0.54162(19)
H1_8 H 0.5550 0.9502 0.6783
H6_8 H 0.8260 0.9492 0.4559
loop_
_geom_bond_atom_site_label_1
_geom_bond_atom_site_label_2
_geom_bond_site_symmetry_1
_geom_bond_site_symmetry_2
Mn1 N1 1_555 1_555
N1 C1 1_555 1_555
C1 H1 1_555 1_555
C2 C1 1_555 1_555
H2 C2 1_555 1_555
C3 C2 1_555 1_555
C4 C3 1_555 1_555
H3 C4 1_555 1_555
C5 N1 1_555 1_555
C6 C5 1_555 1_555
C7 C6 1_555 1_555
H4 C7 1_555 1_555
C8 C7 1_555 1_555
N2 Mn1 1_555 1_555
C11 C3 1_555 1_555
O1 C11 1_555 1_555
O2 C11 1_555 1_555
C12 C8 1_555 1_555
O3 C12 1_555 1_555
O4 C12 1_555 1_555
O5 Mn1 1_555 1_555
O8 Mn1 1_555 1_555
Mn2 O1 1_555 1_555
Mn3 O2 1_555 1_555
Mn5 O4 1_555 1_555
C4 C5 1_555 1_555
C6 N2 1_555 1_555
H5 C9 1_555 1_555
C10 C9 1_555 1_555
H6 C10 1_555 1_555
O5_2 Mn5 1_555 1_555
N1_2 C1_2 1_555 1_555
C2_2 C1_2 1_555 1_555
H2_2 C2_2 1_555 1_555
C3_2 C2_2 1_555 1_555
C4_2 C3_2 1_555 1_555
H3_2 C4_2 1_555 1_555
C5_2 N1_2 1_555 1_555
C6_2 C5_2 1_555 1_555
C7_2 C6_2 1_555 1_555
H4_2 C7_2 1_555 1_555
C8_2 C7_2 1_555 1_555
C11_2 C3_2 1_555 1_555
O1_2 C11_2 1_555 1_555
O2_2 C11_2 1_555 1_555
C12_2 C8_2 1_555 1_555
O3_2 C12_2 1_555 1_555
Mn2_2 O1_2 1_555 1_555
Mn3_2 O2_2 1_555 1_555
C4_2 C5_2 1_555 1_555
C6_2 N2_2 1_555 1_555
H5_2 C9_2 1_555 1_555
C10_2 C9_2 1_555 1_555
Mn2_2 N1_3 1_555 1_555
N1_3 C1_3 1_555 1_555
C1_3 H1_3 1_555 1_555
C2_3 C1_3 1_555 1_555
H2_3 C2_3 1_555 1_555
C3_3 C2_3 1_555 1_555
C4_3 C3_3 1_555 1_555
H3_3 C4_3 1_555 1_555
C5_3 N1_3 1_555 1_555
C6_3 C5_3 1_555 1_555
C7_3 C6_3 1_555 1_555
H4_3 C7_3 1_555 1_555
C8_3 C7_3 1_555 1_555
C9_3 C8_3 1_555 1_555
H5_3 C9_3 1_555 1_555
C10_3 C9_3 1_555 1_555
H6_3 C10_3 1_555 1_555
N2_3 Mn2_2 1_555 1_555
C11_3 C3_3 1_555 1_555
O5_2 C11_3 1_555 1_555
O2_3 C11_3 1_555 1_555
C12_3 C8_3 1_555 1_555
O3_3 C12_3 1_555 1_555
O4_2 C12_3 1_555 1_555
O6_3 Mn2_2 1_555 1_555
O7_3 Mn2_2 1_555 1_555
O8_2 Mn2_2 1_555 1_555
Mn2 O4_2 1_555 1_555
C4_3 C5_3 1_555 1_555
C6_3 N2_3 1_555 1_555
C10_3 N2_3 1_555 1_555
O6_4 Mn2 1_555 1_555
N1_4 C1_4 1_555 1_555
C2_4 C1_4 1_555 1_555
H2_4 C2_4 1_555 1_555
C3_4 C2_4 1_555 1_555
C4_4 C3_4 1_555 1_555
H3_4 C4_4 1_555 1_555
C5_4 N1_4 1_555 1_555
C6_4 C5_4 1_555 1_555
C7_4 C6_4 1_555 1_555
H4_4 C7_4 1_555 1_555
C8_4 C7_4 1_555 1_555
C9_4 C8_4 1_555 1_555
H5_4 C9_4 1_555 1_555
C10_4 C9_4 1_555 1_555
C11_4 C3_4 1_555 1_555
O5 C11_4 1_555 1_555
O2_4 C11_4 1_555 1_555
C12_4 C8_4 1_555 1_555
O3_4 C12_4 1_555 1_555
Mn3 O3_4 1_555 1_555
C4_4 C5_4 1_555 1_555
C6_4 N2_4 1_555 1_555
C10_4 N2_4 1_555 1_555
H5_5 C9_5 1_555 1_555
C10_5 C9_5 1_555 1_555
H6_5 C10_5 1_555 1_555
Mn4_2 N1_5 1_555 1_555
N1_5 C1_5 1_555 1_555
C1_5 H1_5 1_555 1_555
C2_5 C1_5 1_555 1_555
H2_5 C2_5 1_555 1_555
C3_5 C2_5 1_555 1_555
C4_5 C3_5 1_555 1_555
H3_5 C4_5 1_555 1_555
C5_5 N1_5 1_555 1_555
C6_5 C5_5 1_555 1_555
C7_5 C6_5 1_555 1_555
H4_5 C7_5 1_555 1_555
C8_5 C7_5 1_555 1_555
N2_5 Mn4_2 1_555 1_555
C11_5 C3_5 1_555 1_555
O1_3 C11_5 1_555 1_555
O6_3 C11_5 1_555 1_555
C12_5 C8_5 1_555 1_555
O7_2 C12_5 1_555 1_555
O4_3 C12_5 1_555 1_555
O5_3 Mn4_2 1_555 1_555
O8_3 Mn4_2 1_555 1_555
Mn3_2 O1_3 1_555 1_555
Mn4 O4_3 1_555 1_555
C4_5 C5_5 1_555 1_555
C6_5 N2_5 1_555 1_555
H5_6 C9_6 1_555 1_555
C10_6 C9_6 1_555 1_555
N1_6 C1_6 1_555 1_555
C2_6 C1_6 1_555 1_555
H2_6 C2_6 1_555 1_555
C3_6 C2_6 1_555 1_555
C4_6 C3_6 1_555 1_555
H3_6 C4_6 1_555 1_555
C5_6 N1_6 1_555 1_555
C6_6 C5_6 1_555 1_555
C7_6 C6_6 1_555 1_555
H4_6 C7_6 1_555 1_555
C8_6 C7_6 1_555 1_555
C11_6 C3_6 1_555 1_555
O1_4 C11_6 1_555 1_555
O6_4 C11_6 1_555 1_555
C12_6 C8_6 1_555 1_555
O7 C12_6 1_555 1_555
Mn3 O1_4 1_555 1_555
C4_6 C5_6 1_555 1_555
C6_6 N2_6 1_555 1_555
O5_4 Mn4 1_555 1_555
Mn3 N1_7 1_555 1_555
N1_7 C1_7 1_555 1_555
C1_7 H1_7 1_555 1_555
C2_7 C1_7 1_555 1_555
H2_7 C2_7 1_555 1_555
C3_7 C2_7 1_555 1_555
C4_7 C3_7 1_555 1_555
H3_7 C4_7 1_555 1_555
C5_7 N1_7 1_555 1_555
C6_7 C5_7 1_555 1_555
C7_7 C6_7 1_555 1_555
H4_7 C7_7 1_555 1_555
C8_7 C7_7 1_555 1_555
C9_7 C8_7 1_555 1_555
H5_7 C9_7 1_555 1_555
C10_7 C9_7 1_555 1_555
H6_7 C10_7 1_555 1_555
N2_7 Mn3 1_555 1_555
C11_7 C3_7 1_555 1_555
O5_4 C11_7 1_555 1_555
O6 C11_7 1_555 1_555
C12_7 C8_7 1_555 1_555
O7_4 C12_7 1_555 1_555
O4_4 C12_7 1_555 1_555
O8_4 Mn3 1_555 1_555
Mn3_2 O4_4 1_555 1_555
C4_7 C5_7 1_555 1_555
C6_7 N2_7 1_555 1_555
C10_7 N2_7 1_555 1_555
N1_8 C1_8 1_555 1_555
C2_8 C1_8 1_555 1_555
H2_8 C2_8 1_555 1_555
C3_8 C2_8 1_555 1_555
C4_8 C3_8 1_555 1_555
H3_8 C4_8 1_555 1_555
C5_8 N1_8 1_555 1_555
C6_8 C5_8 1_555 1_555
C7_8 C6_8 1_555 1_555
H4_8 C7_8 1_555 1_555
C8_8 C7_8 1_555 1_555
C9_8 C8_8 1_555 1_555
H5_8 C9_8 1_555 1_555
C10_8 C9_8 1_555 1_555
C11_8 C3_8 1_555 1_555
O5_3 C11_8 1_555 1_555
O6_2 C11_8 1_555 1_555
C12_8 C8_8 1_555 1_555
O7_3 C12_8 1_555 1_555
C4_8 C5_8 1_555 1_555
C6_8 N2_8 1_555 1_555
C10_8 N2_8 1_555 1_555

#END
