
###############################################################################
#
# This file contains modified crystal structure data generated from the
# MOF subset of the Cambridge Structural Database (CSD) v543 
# hosted by the Cambridge Crystallographic Data Centre (CCDC).
#
# This work is licensed under the Creative Commons
# Attribution-NonCommercial-ShareAlike 4.0 International License.
# To view a copy of this license, visit
# http://creativecommons.org/licenses/by-nc-sa/4.0/
# or send a letter to
# Creative Commons, PO Box 1866, Mountain View, CA 94042, USA.
#
# CIF created using the CSD Python API on 29 September 2022
# The structure has been converted into the P1 space group
# The structure has a 3D framework
# The original CSD entry EYONIQ is in the triclinic crystal system
# The framework has been calculated to contain at least 10.0% void space
# The void calculation uses a probe of radius 1.32A, grid spacing 0.4
#
###############################################################################

data_EYONIQ
_chemical_formula_moiety         '(C70 H50 Cd4 Cl2 N14 O8)n'
_symmetry_cell_setting           triclinic
_symmetry_space_group_name_H-M   'P 1'
_symmetry_Int_Tables_number      1
_space_group_name_Hall           'P 1'
loop_
_symmetry_equiv_pos_site_id
_symmetry_equiv_pos_as_xyz
1 x,y,z
_cell_length_a                   10.1750(3)
_cell_length_b                   13.2890(4)
_cell_length_c                   15.7120(7)
_cell_angle_alpha                109.992(3)
_cell_angle_beta                 94.333(3)
_cell_angle_gamma                90.490(2)
_cell_volume                     1989.44
loop_
_atom_site_label
_atom_site_type_symbol
_atom_site_fract_x
_atom_site_fract_y
_atom_site_fract_z
Cd5 Cd 0.20219(4) 0.41563(3) 0.16781(2)
H28 H 0.0266 0.8409 0.3720
C42 C 0.0233(6) 0.6901(4) 0.1156(4)
H30 H 0.0012 0.7279 0.0768
C43 C 0.0918(5) 0.5994(4) 0.0965(4)
H31 H 0.1241 0.5634 0.0407
C44 C 0.0460(5) 0.6383(4) 0.2334(4)
H32 H 0.0399 0.6358 0.2915
N10 N 0.1064(4) 0.5683(3) 0.1701(3)
O6 O 0.0400(4) 0.2895(3) 0.1108(3)
O8 O 0.2253(5) 0.2205(3) 0.1459(3)
O10 O 0.3846(4) 0.4657(3) 0.2660(3)
O12 O 0.2099(4) 0.4514(4) 0.3339(3)
Cl4 Cl 0.30011(12) 0.37854(10) 0.01675(8)
C63 C 0.1283(7) 0.0129(5) 0.0364(5)
H47 H 0.2153 0.0203 0.0611
C64 C 0.0540(7) 0.1012(4) 0.0520(4)
C66 C 0.1096(8) 0.2114(5) 0.1082(4)
Cd4 Cd 0.5000 0.5000 0.0000
Cd4_2 Cd 0.5000 0.5000 1.0000
C45 C 0.6863(5) 0.1091(4) 0.4792(3)
C46 C 0.6636(6) 0.0396(4) 0.5248(4)
C47 C 0.6403(5) 0.0783(4) 0.6160(4)
H34 H 0.6254 0.0301 0.6458
C48 C 0.6388(5) 0.1855(4) 0.6629(3)
C49 C 0.6631(7) 0.2547(4) 0.6181(4)
H35 H 0.6637 0.3281 0.6495
C50 C 0.6865(7) 0.2189(4) 0.5286(4)
H36 H 0.7028 0.2680 0.5001
C51 C 0.6323(6) 0.1761(4) 0.8192(4)
H37 H 0.6620 0.1072 0.8081
C52 C 0.5993(7) 0.2447(5) 0.8994(4)
H38 H 0.6019 0.2305 0.9535
C53 C 0.5714(5) 0.3241(4) 0.8032(4)
H39 H 0.5514 0.3754 0.7766
C54 C 0.7025(6) 0.1466(4) 0.3376(3)
C55 C 0.5815(6) 0.1809(4) 0.3117(4)
H40 H 0.5032 0.1554 0.3251
C56 C 0.5794(6) 0.2527(4) 0.2664(4)
H41 H 0.4990 0.2763 0.2498
C57 C 0.6946(5) 0.2902(4) 0.2450(4)
C58 C 0.8134(6) 0.2559(5) 0.2689(5)
H42 H 0.8911 0.2804 0.2538
C59 C 0.8172(6) 0.1841(5) 0.3161(5)
H43 H 0.8979 0.1613 0.3331
C60 C 0.7832(6) 0.4479(6) 0.2105(5)
H44 H 0.8595 0.4641 0.2499
C61 C 0.7415(6) 0.4996(5) 0.1548(4)
H45 H 0.7859 0.5575 0.1478
C62 C 0.5959(5) 0.3758(4) 0.1378(3)
H46 H 0.5201 0.3317 0.1187
N8 N 0.7051(5) 0.0721(3) 0.3859(3)
N11 N 0.6141(4) 0.2265(3) 0.7573(3)
N12 N 0.5608(4) 0.3394(3) 0.8885(3)
N14 N 0.4392(4) 0.6606(3) 0.1115(3)
N15 N 0.6917(4) 0.3657(3) 0.1990(3)
N16 N 0.6220(4) 0.4543(3) 0.1087(3)
C10 C 0.3137(5) 0.8909(4) 0.5208(3)
C11 C 0.3364(6) 0.9604(4) 0.4752(4)
C12 C 0.3597(5) 0.9217(4) 0.3840(4)
H9 H 0.3746 0.9699 0.3542
C13 C 0.3612(5) 0.8145(4) 0.3371(3)
C14 C 0.3369(7) 0.7453(4) 0.3819(4)
H10 H 0.3363 0.6719 0.3505
C15 C 0.3135(7) 0.7811(4) 0.4714(4)
H11 H 0.2972 0.7320 0.4999
C16 C 0.3677(6) 0.8239(4) 0.1808(4)
H12 H 0.3380 0.8928 0.1919
C17 C 0.4007(7) 0.7553(5) 0.1006(4)
H13 H 0.3981 0.7695 0.0465
C18 C 0.4286(5) 0.6759(4) 0.1968(4)
H14 H 0.4486 0.6246 0.2234
C19 C 0.2975(6) 0.8534(4) 0.6624(3)
C20 C 0.4185(6) 0.8191(4) 0.6883(4)
H15 H 0.4968 0.8446 0.6749
C21 C 0.4206(6) 0.7473(4) 0.7336(4)
H16 H 0.5010 0.7237 0.7502
C22 C 0.3054(5) 0.7098(4) 0.7550(4)
C23 C 0.1866(6) 0.7441(5) 0.7311(5)
H17 H 0.1089 0.7196 0.7462
C24 C 0.1828(6) 0.8159(5) 0.6839(5)
H18 H 0.1021 0.8387 0.6669
C25 C 0.2168(6) 0.5521(6) 0.7895(5)
H19 H 0.1405 0.5359 0.7501
C26 C 0.2585(6) 0.5004(5) 0.8452(4)
H20 H 0.2141 0.4425 0.8522
C27 C 0.4041(5) 0.6242(4) 0.8622(3)
H21 H 0.4799 0.6683 0.8813
N1 N 0.2949(5) 0.9279(3) 0.6141(3)
N4 N 0.3859(4) 0.7735(3) 0.2427(3)
N6 N 0.3083(4) 0.6343(3) 0.8010(3)
N7 N 0.3780(4) 0.5457(3) 0.8913(3)
Cd9 Cd 0.79781(4) 0.58437(3) 0.83219(2)
Cl2 Cl 0.69989(12) 0.62146(10) 0.98325(8)
H3 H 0.9734 0.1591 0.6280
C7 C 0.9767(6) 0.3099(4) 0.8844(4)
H5 H 0.9988 0.2721 0.9232
C8 C 0.9082(5) 0.4006(4) 0.9035(4)
H6 H 0.8759 0.4366 0.9593
C9 C 0.9540(5) 0.3617(4) 0.7666(4)
H7 H 0.9601 0.3642 0.7085
C28 C 0.8717(7) 0.9871(5) 0.9636(5)
H22 H 0.7847 0.9797 0.9389
C29 C 0.9460(7) 0.8988(4) 0.9480(4)
C31 C 0.8904(8) 0.7886(5) 0.8918(4)
C32 C 0.4489(6) 0.4890(5) 0.5756(4)
H24 H 0.4144 0.4808 0.6261
C33 C 0.5807(6) 0.5153(4) 0.5786(3)
C34 C 0.3684(6) 0.4748(5) 0.4976(4)
H25 H 0.2790 0.4584 0.4961
C35 C 0.6691(6) 0.5331(4) 0.6642(4)
N3 N 0.8936(4) 0.4317(3) 0.8299(3)
O1 O 0.9600(4) 0.7105(3) 0.8892(3)
O2 O 0.7747(5) 0.7795(3) 0.8541(3)
O3 O 0.6154(4) 0.5343(3) 0.7340(3)
O4 O 0.7901(4) 0.5486(4) 0.6661(3)
C67 C 0.5511(6) 0.5110(5) 0.4244(4)
H49 H 0.5856 0.5192 0.3739
C68 C 0.4193(6) 0.4847(4) 0.4214(3)
C69 C 0.6316(6) 0.5252(5) 0.5024(4)
H50 H 0.7210 0.5416 0.5039
C70 C 0.3309(6) 0.4669(4) 0.3358(4)
C1 C 0.2253(5) 0.0224(4) 0.6557(3)
C2 C 0.2624(6) 0.0838(5) 0.7442(4)
H1 H 0.3370 0.0665 0.7737
C3 C 0.1912(6) 0.1710(5) 0.7905(4)
H2 H 0.2170 0.2110 0.8508
C4 C 0.0826(5) 0.1980(4) 0.7472(4)
C5 C 0.0460(6) 0.1397(4) 0.6578(4)
C6 C 0.1169(6) 0.0518(4) 0.6121(4)
H4 H 0.0915 0.0124 0.5516
H8 H 0.3361 0.0339 0.5057
N2 N 0.0067(4) 0.2849(3) 0.7962(3)
C65 C 0.0755(7) 0.9113(5) 0.9838(6)
H48 H 0.1278 0.8519 0.9729
C36 C 0.7747(5) 0.9776(4) 0.3443(3)
C37 C 0.7376(6) 0.9162(5) 0.2558(4)
H26 H 0.6630 0.9335 0.2263
C38 C 0.8088(6) 0.8290(5) 0.2095(4)
H27 H 0.7830 0.7890 0.1492
C39 C 0.9174(5) 0.8020(4) 0.2528(4)
C40 C 0.9540(6) 0.8603(4) 0.3422(4)
C41 C 0.8831(6) 0.9482(4) 0.3879(4)
H29 H 0.9085 0.9876 0.4484
H33 H 0.6639 0.9661 0.4943
N9 N 0.9933(4) 0.7151(3) 0.2038(3)
C30 C 0.9245(7) 0.0887(5) 0.0162(6)
H23 H 0.8722 0.1481 0.0271
loop_
_geom_bond_atom_site_label_1
_geom_bond_atom_site_label_2
_geom_bond_site_symmetry_1
_geom_bond_site_symmetry_2
Cd5 N10 1_555 1_555
C42 H30 1_555 1_555
C43 C42 1_555 1_555
H31 C43 1_555 1_555
C44 H32 1_555 1_555
N10 C43 1_555 1_555
O6 Cd5 1_555 1_555
O8 Cd5 1_555 1_555
O10 Cd5 1_555 1_555
O12 Cd5 1_555 1_555
Cl4 Cd5 1_555 1_555
C44 N10 1_555 1_555
C63 H47 1_555 1_555
C66 C64 1_555 1_555
O6 C66 1_555 1_555
C63 C64 1_555 1_555
C66 O8 1_555 1_555
Cl4 Cd4 1_555 1_555
Cd4_2 N12 1_555 1_555
C45 C46 1_555 1_555
C47 C46 1_555 1_555
H34 C47 1_555 1_555
C48 C47 1_555 1_555
C49 C48 1_555 1_555
H35 C49 1_555 1_555
C50 C45 1_555 1_555
H36 C50 1_555 1_555
C51 H37 1_555 1_555
C52 C51 1_555 1_555
H38 C52 1_555 1_555
C53 H39 1_555 1_555
C54 C55 1_555 1_555
C55 H40 1_555 1_555
C56 C55 1_555 1_555
H41 C56 1_555 1_555
C57 C56 1_555 1_555
C58 C57 1_555 1_555
H42 C58 1_555 1_555
C59 C54 1_555 1_555
H43 C59 1_555 1_555
C60 H44 1_555 1_555
C61 C60 1_555 1_555
H45 C61 1_555 1_555
C62 H46 1_555 1_555
N11 C48 1_555 1_555
N12 C52 1_555 1_555
N14 Cd4 1_555 1_555
N15 C57 1_555 1_555
N16 Cd4 1_555 1_555
C45 N8 1_555 1_555
C49 C50 1_555 1_555
C51 N11 1_555 1_555
C53 N11 1_555 1_555
C53 N12 1_555 1_555
C54 N8 1_555 1_555
C58 C59 1_555 1_555
C60 N15 1_555 1_555
C61 N16 1_555 1_555
C62 N15 1_555 1_555
C62 N16 1_555 1_555
Cd4_2 N7 1_555 1_555
C10 C11 1_555 1_555
C12 C11 1_555 1_555
H9 C12 1_555 1_555
C13 C12 1_555 1_555
C14 C13 1_555 1_555
H10 C14 1_555 1_555
C15 C10 1_555 1_555
H11 C15 1_555 1_555
C16 H12 1_555 1_555
C17 C16 1_555 1_555
H13 C17 1_555 1_555
C18 H14 1_555 1_555
C19 C20 1_555 1_555
C20 H15 1_555 1_555
C21 C20 1_555 1_555
H16 C21 1_555 1_555
C22 C21 1_555 1_555
C23 C22 1_555 1_555
H17 C23 1_555 1_555
C24 C19 1_555 1_555
H18 C24 1_555 1_555
C25 H19 1_555 1_555
C26 C25 1_555 1_555
H20 C26 1_555 1_555
C27 H21 1_555 1_555
N4 C13 1_555 1_555
N14 C17 1_555 1_555
N6 C22 1_555 1_555
N7 C26 1_555 1_555
Cd9 Cl2 1_555 1_555
Cl2 Cd4_2 1_555 1_555
C10 N1 1_555 1_555
C14 C15 1_555 1_555
C16 N4 1_555 1_555
C18 N4 1_555 1_555
C18 N14 1_555 1_555
C19 N1 1_555 1_555
C23 C24 1_555 1_555
C25 N6 1_555 1_555
C27 N6 1_555 1_555
C27 N7 1_555 1_555
Cd9 N3 1_555 1_555
C7 H5 1_555 1_555
C8 C7 1_555 1_555
H6 C8 1_555 1_555
C9 H7 1_555 1_555
C28 H22 1_555 1_555
C29 C28 1_555 1_555
C31 C29 1_555 1_555
C32 H24 1_555 1_555
C33 C32 1_555 1_555
C34 C32 1_555 1_555
H25 C34 1_555 1_555
C35 C33 1_555 1_555
N3 C8 1_555 1_555
O1 Cd9 1_555 1_555
O2 Cd9 1_555 1_555
O3 Cd9 1_555 1_555
O4 Cd9 1_555 1_555
C67 H49 1_555 1_555
C68 C34 1_555 1_555
C69 C33 1_555 1_555
H50 C69 1_555 1_555
C70 C68 1_555 1_555
O10 C70 1_555 1_555
C9 N3 1_555 1_555
C31 O1 1_555 1_555
C31 O2 1_555 1_555
C35 O3 1_555 1_555
C35 O4 1_555 1_555
C67 C68 1_555 1_555
C67 C69 1_555 1_555
C70 O12 1_555 1_555
C1 C2 1_555 1_555
C2 H1 1_555 1_555
C3 C2 1_555 1_555
H2 C3 1_555 1_555
C4 C3 1_555 1_555
C5 C4 1_555 1_555
C6 C1 1_555 1_555
H4 C6 1_555 1_555
N2 C4 1_555 1_555
H48 C65 1_555 1_555
C5 C6 1_555 1_555
C36 C37 1_555 1_555
C37 H26 1_555 1_555
C38 C37 1_555 1_555
H27 C38 1_555 1_555
C39 C38 1_555 1_555
C40 C39 1_555 1_555
C41 C36 1_555 1_555
H29 C41 1_555 1_555
N9 C39 1_555 1_555
C40 C41 1_555 1_555
H23 C30 1_555 1_555

#END
