
###############################################################################
#
# This file contains modified crystal structure data generated from the
# MOF subset of the Cambridge Structural Database (CSD) v543 
# hosted by the Cambridge Crystallographic Data Centre (CCDC).
#
# This work is licensed under the Creative Commons
# Attribution-NonCommercial-ShareAlike 4.0 International License.
# To view a copy of this license, visit
# http://creativecommons.org/licenses/by-nc-sa/4.0/
# or send a letter to
# Creative Commons, PO Box 1866, Mountain View, CA 94042, USA.
#
# CIF created using the CSD Python API on 29 September 2022
# The structure has been converted into the P1 space group
# The structure has a 3D framework
# The original CSD entry EYOPOY is in the orthorhombic crystal system
# The framework has been calculated to contain at least 10.0% void space
# The void calculation uses a probe of radius 1.32A, grid spacing 0.4
#
###############################################################################

data_EYOPOY
_chemical_formula_moiety         '(C80 H56 Cd2 N16 O16)n'
_symmetry_cell_setting           triclinic
_symmetry_space_group_name_H-M   'P 1'
_symmetry_Int_Tables_number      1
_space_group_name_Hall           'P 1'
loop_
_symmetry_equiv_pos_site_id
_symmetry_equiv_pos_as_xyz
1 x,y,z
_cell_length_a                   19.0367(16)
_cell_length_b                   8.2300(7)
_cell_length_c                   18.2963(15)
_cell_angle_alpha                90
_cell_angle_beta                 90
_cell_angle_gamma                90
_cell_volume                     2866.52
loop_
_atom_site_label
_atom_site_type_symbol
_atom_site_fract_x
_atom_site_fract_y
_atom_site_fract_z
Cd1 Cd 0.475830(10) 0.00444(3) 0.31786(5)
C1 C 0.61752(17) 0.2295(4) 0.3279(2)
H1 H 0.5943 0.3140 0.3514
C2 C 0.6386(2) 0.0026(5) 0.2717(3)
C3 C 0.6977(2) 0.0904(6) 0.2734(3)
H3 H 0.7407 0.0581 0.2541
C4 C 0.73278(16) 0.3653(4) 0.3148(4)
C5 C 0.80286(19) 0.3306(4) 0.3267(4)
H4 H 0.8179 0.2237 0.3318
C6 C 0.8506(2) 0.4586(4) 0.3310(3)
H5 H 0.8974 0.4381 0.3421
C7 C 0.82788(18) 0.6191(4) 0.3184(3)
C8 C 0.75838(19) 0.6489(4) 0.3077(4)
H6 H 0.7432 0.7558 0.3026
C9 C 0.7094(2) 0.5238(4) 0.3041(3)
H7 H 0.6623 0.5455 0.2948
C10 C 0.88133(18) 0.7558(4) 0.3205(3)
H9 H 0.3890 0.0905 0.4732
N1 N 0.58836(13) 0.0907(3) 0.3098(2)
N2 N 0.68547(14) 0.2332(3) 0.3077(2)
O1 O 0.86356(13) 0.8936(4) 0.29802(15)
O2 O 0.94198(14) 0.7254(3) 0.34441(16)
Cd2 Cd 0.975830(10) 0.99556(3) 0.31786(5)
O5 O 0.36356(13) 0.1064(4) 0.29802(15)
O6 O 0.44198(14) 0.2746(3) 0.34441(16)
C1_2 C 0.11752(17) 0.7705(4) 0.3279(2)
H1_2 H 0.0943 0.6860 0.3514
C2_2 C 0.1386(2) 0.9974(5) 0.2717(3)
C3_2 C 0.1977(2) 0.9096(6) 0.2734(3)
H3_2 H 0.2407 0.9419 0.2541
C4_2 C 0.23278(16) 0.6347(4) 0.3148(4)
C5_2 C 0.30286(19) 0.6694(4) 0.3267(4)
H4_2 H 0.3179 0.7763 0.3318
C6_2 C 0.3506(2) 0.5414(4) 0.3310(3)
H5_2 H 0.3974 0.5619 0.3421
C7_2 C 0.32788(18) 0.3809(4) 0.3184(3)
C8_2 C 0.25838(19) 0.3511(4) 0.3077(4)
H6_2 H 0.2432 0.2442 0.3026
C9_2 C 0.2094(2) 0.4762(4) 0.3041(3)
H7_2 H 0.1623 0.4545 0.2948
C10_2 C 0.38133(18) 0.2442(4) 0.3205(3)
N1_2 N 0.08836(13) 0.9093(3) 0.3098(2)
N2_2 N 0.18547(14) 0.7668(3) 0.3077(2)
H9_2 H 0.8890 0.9095 0.4732
H2 H 0.6324 0.9022 0.2493
C11 C 0.4681(2) 0.7730(5) 0.4586(2)
H8 H 0.4952 0.6949 0.4351
C12 C 0.4103(2) 0.9899(5) 0.4800(2)
C13 C 0.4072(2) 0.9018(5) 0.5416(2)
H10 H 0.3852 0.9308 0.5851
C14 C 0.4546(2) 0.6281(5) 0.5771(2)
C15 C 0.4681(2) 0.6617(6) 0.6501(2)
H11 H 0.4693 0.7687 0.6664
C16 C 0.4797(2) 0.5349(5) 0.6985(3)
H12 H 0.4860 0.5569 0.7479
C17 C 0.48215(19) 0.3771(6) 0.6743(2)
C18 C 0.4711(2) 0.3457(5) 0.6004(3)
H13 H 0.4732 0.2391 0.5837
C19 C 0.4568(2) 0.4711(5) 0.5504(3)
H14 H 0.4492 0.4492 0.5012
C20 C 0.4976(2) 0.2431(5) 0.7254(2)
N3 N 0.44888(17) 0.9113(5) 0.42952(17)
N4 N 0.44317(17) 0.7590(4) 0.52735(17)
O3 O 0.49370(16) 0.2699(4) 0.79208(16)
O4 O 0.51451(15) 0.1049(4) 0.70060(17)
O7 O 0.50630(16) 0.7301(4) 0.29208(16)
O8 O 0.48549(15) 0.8951(4) 0.20060(17)
C13_2 C 0.5928(2) 0.0982(5) 0.0416(2)
H10_2 H 0.6148 0.0692 0.0851
C14_2 C 0.5454(2) 0.3719(5) 0.0771(2)
C15_2 C 0.5319(2) 0.3383(6) 0.1501(2)
H11_2 H 0.5307 0.2313 0.1664
C16_2 C 0.5203(2) 0.4651(5) 0.1985(3)
H12_2 H 0.5140 0.4431 0.2479
C17_2 C 0.51785(19) 0.6229(6) 0.1743(2)
C18_2 C 0.5289(2) 0.6543(5) 0.1004(3)
H13_2 H 0.5268 0.7609 0.0837
C19_2 C 0.5432(2) 0.5289(5) 0.0504(3)
H14_2 H 0.5508 0.5508 0.0012
C20_2 C 0.5024(2) 0.7569(5) 0.2254(2)
N4_2 N 0.55683(17) 0.2410(4) 0.02735(17)
H2_2 H 0.3676 0.0978 0.7493
C11_2 C 0.5319(2) 0.2270(5) 0.9586(2)
H8_2 H 0.5048 0.3051 0.9351
C12_2 C 0.5897(2) 0.0101(5) 0.9800(2)
N3_2 N 0.55112(17) 0.0887(5) 0.92952(17)
Cd3 Cd 0.524170(10) 0.99556(3) 0.81786(5)
C1_3 C 0.38248(17) 0.7705(4) 0.8279(2)
H1_3 H 0.4057 0.6860 0.8514
C2_3 C 0.3614(2) 0.9974(5) 0.7717(3)
C3_3 C 0.3023(2) 0.9096(6) 0.7734(3)
H3_3 H 0.2593 0.9419 0.7541
C4_3 C 0.26722(16) 0.6347(4) 0.8148(4)
C5_3 C 0.19714(19) 0.6694(4) 0.8267(4)
H4_3 H 0.1821 0.7763 0.8318
C6_3 C 0.1494(2) 0.5414(4) 0.8310(3)
H5_3 H 0.1026 0.5619 0.8421
C7_3 C 0.17212(18) 0.3809(4) 0.8184(3)
C8_3 C 0.24162(19) 0.3511(4) 0.8077(4)
H6_3 H 0.2568 0.2442 0.8026
C9_3 C 0.2906(2) 0.4762(4) 0.8041(3)
H7_3 H 0.3377 0.4545 0.7948
C10_3 C 0.11867(18) 0.2442(4) 0.8205(3)
H9_3 H 0.6110 0.9095 0.9732
N1_3 N 0.41164(13) 0.9093(3) 0.8098(2)
N2_3 N 0.31453(14) 0.7668(3) 0.8077(2)
O1_2 O 0.13644(13) 0.1064(4) 0.79802(15)
O2_2 O 0.05802(14) 0.2746(3) 0.84441(16)
Cd2_2 Cd 0.024170(10) 0.00444(3) 0.81786(5)
O5_2 O 0.63644(13) 0.8936(4) 0.79802(15)
O6_2 O 0.55802(14) 0.7254(3) 0.84441(16)
H9_4 H 0.1110 0.0905 0.9732
C1_4 C 0.88248(17) 0.2295(4) 0.8279(2)
H1_4 H 0.9057 0.3140 0.8514
C2_4 C 0.8614(2) 0.0026(5) 0.7717(3)
C3_4 C 0.8023(2) 0.0904(6) 0.7734(3)
H3_4 H 0.7593 0.0581 0.7541
C4_4 C 0.76722(16) 0.3653(4) 0.8148(4)
C5_4 C 0.69714(19) 0.3306(4) 0.8267(4)
H4_4 H 0.6821 0.2237 0.8318
C6_4 C 0.6494(2) 0.4586(4) 0.8310(3)
H5_4 H 0.6026 0.4381 0.8421
C7_4 C 0.67212(18) 0.6191(4) 0.8184(3)
C8_4 C 0.74162(19) 0.6489(4) 0.8077(4)
H6_4 H 0.7568 0.7558 0.8026
C9_4 C 0.7906(2) 0.5238(4) 0.8041(3)
H7_4 H 0.8377 0.5455 0.7948
C10_4 C 0.61867(18) 0.7558(4) 0.8205(3)
N1_4 N 0.91164(13) 0.0907(3) 0.8098(2)
N2_4 N 0.81453(14) 0.2332(3) 0.8077(2)
H2_3 H 0.1324 0.0978 0.2493
O4_2 O 0.01451(15) 0.8951(4) 0.70060(17)
O7_2 O 0.00630(16) 0.2699(4) 0.29208(16)
C13_3 C 0.0928(2) 0.9018(5) 0.0416(2)
H10_3 H 0.1148 0.9308 0.0851
C14_3 C 0.0454(2) 0.6281(5) 0.0771(2)
C15_3 C 0.0319(2) 0.6617(6) 0.1501(2)
H11_3 H 0.0307 0.7687 0.1664
C16_3 C 0.0203(2) 0.5349(5) 0.1985(3)
H12_3 H 0.0140 0.5569 0.2479
C17_3 C 0.01785(19) 0.3771(6) 0.1743(2)
C18_3 C 0.0289(2) 0.3457(5) 0.1004(3)
H13_3 H 0.0268 0.2391 0.0837
C19_3 C 0.0432(2) 0.4711(5) 0.0504(3)
H14_3 H 0.0508 0.4492 0.0012
C20_3 C 0.0024(2) 0.2431(5) 0.2254(2)
N4_3 N 0.05683(17) 0.7590(4) 0.02735(17)
C11_3 C 0.0319(2) 0.7730(5) 0.9586(2)
H8_3 H 0.0048 0.6949 0.9351
C12_3 C 0.0897(2) 0.9899(5) 0.9800(2)
N3_3 N 0.05112(17) 0.9113(5) 0.92952(17)
C11_4 C 0.9681(2) 0.2270(5) 0.4586(2)
H8_4 H 0.9952 0.3051 0.4351
C12_4 C 0.9103(2) 0.0101(5) 0.4800(2)
C13_4 C 0.9072(2) 0.0982(5) 0.5416(2)
H10_4 H 0.8852 0.0692 0.5851
C14_4 C 0.9546(2) 0.3719(5) 0.5771(2)
C15_4 C 0.9681(2) 0.3383(6) 0.6501(2)
H11_4 H 0.9693 0.2313 0.6664
C16_4 C 0.9797(2) 0.4651(5) 0.6985(3)
H12_4 H 0.9860 0.4431 0.7479
C17_4 C 0.98215(19) 0.6229(6) 0.6743(2)
C18_4 C 0.9711(2) 0.6543(5) 0.6004(3)
H13_4 H 0.9732 0.7609 0.5837
C19_4 C 0.9568(2) 0.5289(5) 0.5504(3)
H14_4 H 0.9492 0.5508 0.5012
C20_4 C 0.9976(2) 0.7569(5) 0.7254(2)
N3_4 N 0.94888(17) 0.0887(5) 0.42952(17)
N4_4 N 0.94317(17) 0.2410(4) 0.52735(17)
O3_2 O 0.99370(16) 0.7301(4) 0.79208(16)
O8_2 O 0.98549(15) 0.1049(4) 0.20060(17)
H2_4 H 0.8676 0.9022 0.7493
loop_
_geom_bond_atom_site_label_1
_geom_bond_atom_site_label_2
_geom_bond_site_symmetry_1
_geom_bond_site_symmetry_2
Cd1 N1 1_555 1_555
C1 H1 1_555 1_555
C3 C2 1_555 1_555
H3 C3 1_555 1_555
C4 C5 1_555 1_555
C5 H4 1_555 1_555
C6 C5 1_555 1_555
H5 C6 1_555 1_555
C7 C6 1_555 1_555
C8 C7 1_555 1_555
H6 C8 1_555 1_555
C9 C4 1_555 1_555
H7 C9 1_555 1_555
C10 C7 1_555 1_555
N1 C1 1_555 1_555
N2 C1 1_555 1_555
O1 C10 1_555 1_555
O2 C10 1_555 1_555
Cd2 O1 1_555 1_555
O5 Cd1 1_555 1_555
O6 Cd1 1_555 1_555
C2 N1 1_555 1_555
C3 N2 1_555 1_555
C4 N2 1_555 1_555
C8 C9 1_555 1_555
O2 Cd2 1_555 1_555
C1_2 H1_2 1_555 1_555
C3_2 C2_2 1_555 1_555
H3_2 C3_2 1_555 1_555
C4_2 C5_2 1_555 1_555
C5_2 H4_2 1_555 1_555
C6_2 C5_2 1_555 1_555
H5_2 C6_2 1_555 1_555
C7_2 C6_2 1_555 1_555
C8_2 C7_2 1_555 1_555
H6_2 C8_2 1_555 1_555
C9_2 C4_2 1_555 1_555
H7_2 C9_2 1_555 1_555
C10_2 C7_2 1_555 1_555
N1_2 C1_2 1_555 1_555
N2_2 C1_2 1_555 1_555
O5 C10_2 1_555 1_555
O6 C10_2 1_555 1_555
C2_2 N1_2 1_555 1_555
C3_2 N2_2 1_555 1_555
C4_2 N2_2 1_555 1_555
C8_2 C9_2 1_555 1_555
C11 H8 1_555 1_555
C13 C12 1_555 1_555
H10 C13 1_555 1_555
C14 C15 1_555 1_555
C15 H11 1_555 1_555
C16 C15 1_555 1_555
H12 C16 1_555 1_555
C17 C16 1_555 1_555
C18 C17 1_555 1_555
H13 C18 1_555 1_555
C19 C14 1_555 1_555
H14 C19 1_555 1_555
C20 C17 1_555 1_555
N4 C11 1_555 1_555
O3 C20 1_555 1_555
O4 C20 1_555 1_555
C11 N3 1_555 1_555
C12 N3 1_555 1_555
C13 N4 1_555 1_555
C14 N4 1_555 1_555
C18 C19 1_555 1_555
H10_2 C13_2 1_555 1_555
C14_2 C15_2 1_555 1_555
C15_2 H11_2 1_555 1_555
C16_2 C15_2 1_555 1_555
H12_2 C16_2 1_555 1_555
C17_2 C16_2 1_555 1_555
C18_2 C17_2 1_555 1_555
H13_2 C18_2 1_555 1_555
C19_2 C14_2 1_555 1_555
H14_2 C19_2 1_555 1_555
C20_2 C17_2 1_555 1_555
O7 C20_2 1_555 1_555
O8 C20_2 1_555 1_555
C13_2 N4_2 1_555 1_555
C14_2 N4_2 1_555 1_555
C18_2 C19_2 1_555 1_555
C11_2 H8_2 1_555 1_555
C11_2 N3_2 1_555 1_555
C12_2 N3_2 1_555 1_555
Cd3 N1_3 1_555 1_555
C1_3 H1_3 1_555 1_555
C3_3 C2_3 1_555 1_555
H3_3 C3_3 1_555 1_555
C4_3 C5_3 1_555 1_555
C5_3 H4_3 1_555 1_555
C6_3 C5_3 1_555 1_555
H5_3 C6_3 1_555 1_555
C7_3 C6_3 1_555 1_555
C8_3 C7_3 1_555 1_555
H6_3 C8_3 1_555 1_555
C9_3 C4_3 1_555 1_555
H7_3 C9_3 1_555 1_555
C10_3 C7_3 1_555 1_555
N1_3 C1_3 1_555 1_555
N2_3 C1_3 1_555 1_555
O1_2 C10_3 1_555 1_555
O2_2 C10_3 1_555 1_555
Cd2_2 O1_2 1_555 1_555
O5_2 Cd3 1_555 1_555
O6_2 Cd3 1_555 1_555
C2_3 N1_3 1_555 1_555
C3_3 N2_3 1_555 1_555
C4_3 N2_3 1_555 1_555
C8_3 C9_3 1_555 1_555
O2_2 Cd2_2 1_555 1_555
C1_4 H1_4 1_555 1_555
C3_4 C2_4 1_555 1_555
H3_4 C3_4 1_555 1_555
C4_4 C5_4 1_555 1_555
C5_4 H4_4 1_555 1_555
C6_4 C5_4 1_555 1_555
H5_4 C6_4 1_555 1_555
C7_4 C6_4 1_555 1_555
C8_4 C7_4 1_555 1_555
H6_4 C8_4 1_555 1_555
C9_4 C4_4 1_555 1_555
H7_4 C9_4 1_555 1_555
C10_4 C7_4 1_555 1_555
N1_4 C1_4 1_555 1_555
N2_4 C1_4 1_555 1_555
O5_2 C10_4 1_555 1_555
O6_2 C10_4 1_555 1_555
C2_4 N1_4 1_555 1_555
C3_4 N2_4 1_555 1_555
C4_4 N2_4 1_555 1_555
C8_4 C9_4 1_555 1_555
H10_3 C13_3 1_555 1_555
C14_3 C15_3 1_555 1_555
C15_3 H11_3 1_555 1_555
C16_3 C15_3 1_555 1_555
H12_3 C16_3 1_555 1_555
C17_3 C16_3 1_555 1_555
C18_3 C17_3 1_555 1_555
H13_3 C18_3 1_555 1_555
C19_3 C14_3 1_555 1_555
H14_3 C19_3 1_555 1_555
C20_3 C17_3 1_555 1_555
O7_2 C20_3 1_555 1_555
C13_3 N4_3 1_555 1_555
C14_3 N4_3 1_555 1_555
C18_3 C19_3 1_555 1_555
C11_3 H8_3 1_555 1_555
C11_3 N3_3 1_555 1_555
C12_3 N3_3 1_555 1_555
C11_4 H8_4 1_555 1_555
C13_4 C12_4 1_555 1_555
H10_4 C13_4 1_555 1_555
C14_4 C15_4 1_555 1_555
C15_4 H11_4 1_555 1_555
C16_4 C15_4 1_555 1_555
H12_4 C16_4 1_555 1_555
C17_4 C16_4 1_555 1_555
C18_4 C17_4 1_555 1_555
H13_4 C18_4 1_555 1_555
C19_4 C14_4 1_555 1_555
H14_4 C19_4 1_555 1_555
C20_4 C17_4 1_555 1_555
N4_4 C11_4 1_555 1_555
O3_2 C20_4 1_555 1_555
C11_4 N3_4 1_555 1_555
C12_4 N3_4 1_555 1_555
C13_4 N4_4 1_555 1_555
C14_4 N4_4 1_555 1_555
C18_4 C19_4 1_555 1_555

#END
