
###############################################################################
#
# This file contains modified crystal structure data generated from the
# MOF subset of the Cambridge Structural Database (CSD) v543 
# hosted by the Cambridge Crystallographic Data Centre (CCDC).
#
# This work is licensed under the Creative Commons
# Attribution-NonCommercial-ShareAlike 4.0 International License.
# To view a copy of this license, visit
# http://creativecommons.org/licenses/by-nc-sa/4.0/
# or send a letter to
# Creative Commons, PO Box 1866, Mountain View, CA 94042, USA.
#
# CIF created using the CSD Python API on 29 September 2022
# The structure has been converted into the P1 space group
# The structure has a 3D framework
# The original CSD entry EYOQAL is in the tetragonal crystal system
# The original CSD entry EYOQAL is in a Sohncke space group
# The framework has been calculated to contain at least 10.0% void space
# The void calculation uses a probe of radius 1.32A, grid spacing 0.4
#
###############################################################################

data_EYOQAL
_chemical_formula_moiety         '(C88 H72 Co4 N16 O16)n'
_symmetry_cell_setting           triclinic
_symmetry_space_group_name_H-M   'P 1'
_symmetry_Int_Tables_number      1
_space_group_name_Hall           'P 1'
loop_
_symmetry_equiv_pos_site_id
_symmetry_equiv_pos_as_xyz
1 x,y,z
_cell_length_a                   18.5718(9)
_cell_length_b                   18.5718(9)
_cell_length_c                   7.7776(8)
_cell_angle_alpha                90
_cell_angle_beta                 90
_cell_angle_gamma                90
_cell_volume                     2682.59
loop_
_atom_site_label
_atom_site_type_symbol
_atom_site_fract_x
_atom_site_fract_y
_atom_site_fract_z
C7 C 0.0251(2) 0.2743(3) 0.1290(6)
C8 C 0.0645(2) 0.3475(2) 0.3807(6)
H5 H 0.0256 0.3789 0.3872
C9 C 0.1347(2) 0.2561(2) 0.3055(5)
C10 C 0.1607(3) 0.1895(3) 0.2285(7)
H6 H 0.1278 0.1741 0.1408
H7 H 0.1643 0.1529 0.3155
H8 H 0.2073 0.1975 0.1786
C11 C 0.1239(2) 0.3486(2) 0.4795(6)
H9 H 0.1336 0.3823 0.5650
N1 N 0.07237(18) 0.2903(2) 0.2670(4)
N2 N 0.16909(16) 0.29086(16) 0.4331(4)
Co2 Co 0.27655(2) 0.27655(2) 0.5000
C18 C 0.2743(3) 0.0251(2) 0.8710(6)
C19 C 0.3475(2) 0.0645(2) 0.6193(6)
H14 H 0.3789 0.0256 0.6128
C20 C 0.2561(2) 0.1347(2) 0.6945(5)
C21 C 0.1895(3) 0.1607(3) 0.7715(7)
H15 H 0.1741 0.1278 0.8592
H16 H 0.1529 0.1643 0.6845
H17 H 0.1975 0.2073 0.8214
C22 C 0.3486(2) 0.1239(2) 0.5205(6)
H18 H 0.3823 0.1336 0.4350
N3 N 0.2903(2) 0.07237(18) 0.7330(4)
N6 N 0.29086(16) 0.16909(16) 0.5669(4)
C1 C 0.2686(2) 0.3777(3) 0.7168(6)
C2 C 0.2541(2) 0.4296(2) 0.8615(5)
C4 C 0.2433(3) 0.5017(3) 0.8312(6)
H2 H 0.2465 0.5189 0.7191
C6 C 0.2280(3) 0.5492(2) 0.9624(6)
H4 H 0.2192 0.5975 0.9381
O1 O 0.27942(18) 0.39836(18) 0.5678(4)
O2 O 0.26491(18) 0.31092(19) 0.7516(4)
C12 C 0.3777(3) 0.2686(2) 0.2832(6)
C13 C 0.4296(2) 0.2541(2) 0.1385(5)
C15 C 0.5017(3) 0.2433(3) 0.1688(6)
H11 H 0.5189 0.2465 0.2809
C17 C 0.5492(2) 0.2280(3) 0.0376(6)
H13 H 0.5975 0.2192 0.0619
O3 O 0.39836(18) 0.27942(18) 0.4322(4)
O4 O 0.31092(19) 0.26491(18) 0.2484(4)
C4_2 C 0.0017(3) 0.2567(3) 0.8312(6)
H2_2 H 0.0189 0.2535 0.7191
C6_2 C 0.0492(2) 0.2720(3) 0.9624(6)
H4_2 H 0.0975 0.2808 0.9381
C3 C 0.9058(2) 0.2484(2) 0.0308(6)
H1 H 0.8573 0.2405 0.0541
C5 C 0.9521(2) 0.2622(3) 0.1648(6)
H3 H 0.9353 0.2635 0.2774
Co1 Co 0.77655(2) 0.22345(2) 0.5000
C1_2 C 0.8777(3) 0.2314(2) 0.7168(6)
C2_2 C 0.9296(2) 0.2459(2) 0.8615(5)
O1_2 O 0.89836(18) 0.22058(18) 0.5678(4)
O2_2 O 0.81092(19) 0.23509(18) 0.7516(4)
C12_2 C 0.7686(2) 0.1223(3) 0.2832(6)
C13_2 C 0.7541(2) 0.0704(2) 0.1385(5)
N4 N 0.79086(16) 0.33091(16) 0.4331(4)
N5 N 0.66909(16) 0.20914(16) 0.5669(4)
O3_2 O 0.77942(18) 0.10164(18) 0.4322(4)
O4_2 O 0.76491(18) 0.18908(19) 0.2484(4)
C14 C 0.4058(2) 0.2516(2) 0.9692(6)
H10 H 0.3573 0.2595 0.9459
C16 C 0.4521(2) 0.2378(3) 0.8352(6)
H12 H 0.4353 0.2365 0.7226
C18_2 C 0.5251(2) 0.2257(3) 0.8710(6)
C19_2 C 0.5645(2) 0.1525(2) 0.6193(6)
H14_2 H 0.5256 0.1211 0.6128
C20_2 C 0.6347(2) 0.2439(2) 0.6945(5)
C21_2 C 0.6607(3) 0.3105(3) 0.7715(7)
H15_2 H 0.6278 0.3259 0.8592
H16_2 H 0.6643 0.3471 0.6845
H17_2 H 0.7073 0.3025 0.8214
C22_2 C 0.6239(2) 0.1514(2) 0.5205(6)
H18_2 H 0.6336 0.1177 0.4350
N3_2 N 0.57237(18) 0.2097(2) 0.7330(4)
C3_2 C 0.7484(2) 0.5942(2) 0.0308(6)
H1_2 H 0.7405 0.6427 0.0541
C5_2 C 0.7622(3) 0.5479(2) 0.1648(6)
H3_2 H 0.7635 0.5647 0.2774
C7_2 C 0.7743(3) 0.4749(2) 0.1290(6)
C8_2 C 0.8475(2) 0.4355(2) 0.3807(6)
H5_2 H 0.8789 0.4744 0.3872
C9_2 C 0.7561(2) 0.3653(2) 0.3055(5)
C10_2 C 0.6895(3) 0.3393(3) 0.2285(7)
H6_2 H 0.6741 0.3722 0.1408
H7_2 H 0.6529 0.3357 0.3155
H8_2 H 0.6975 0.2927 0.1786
C11_2 C 0.8486(2) 0.3761(2) 0.4795(6)
H9_2 H 0.8823 0.3664 0.5650
N1_2 N 0.7903(2) 0.42763(18) 0.2670(4)
C14_2 C 0.7516(2) 0.0942(2) 0.9692(6)
H10_2 H 0.7595 0.1427 0.9459
C16_2 C 0.7378(3) 0.0479(2) 0.8352(6)
H12_2 H 0.7365 0.0647 0.7226
C15_2 C 0.7433(3) 0.9983(3) 0.1688(6)
H11_2 H 0.7465 0.9811 0.2809
C17_2 C 0.7280(3) 0.9508(2) 0.0376(6)
H13_2 H 0.7192 0.9025 0.0619
Co3 Co 0.72345(2) 0.72345(2) 0.5000
C18_3 C 0.7257(3) 0.9749(2) 0.8710(6)
C19_3 C 0.6525(2) 0.9355(2) 0.6193(6)
H14_3 H 0.6211 0.9744 0.6128
C20_3 C 0.7439(2) 0.8653(2) 0.6945(5)
C21_3 C 0.8105(3) 0.8393(3) 0.7715(7)
H15_3 H 0.8259 0.8722 0.8592
H16_3 H 0.8471 0.8357 0.6845
H17_3 H 0.8025 0.7927 0.8214
C22_3 C 0.6514(2) 0.8761(2) 0.5205(6)
H18_3 H 0.6177 0.8664 0.4350
N3_3 N 0.7097(2) 0.92763(18) 0.7330(4)
N6_2 N 0.70914(16) 0.83091(16) 0.5669(4)
C7_3 C 0.9749(2) 0.7257(3) 0.1290(6)
C8_3 C 0.9355(2) 0.6525(2) 0.3807(6)
H5_3 H 0.9744 0.6211 0.3872
C9_3 C 0.8653(2) 0.7439(2) 0.3055(5)
C10_3 C 0.8393(3) 0.8105(3) 0.2285(7)
H6_3 H 0.8722 0.8259 0.1408
H7_3 H 0.8357 0.8471 0.3155
H8_3 H 0.7927 0.8025 0.1786
C11_3 C 0.8761(2) 0.6514(2) 0.4795(6)
H9_3 H 0.8664 0.6177 0.5650
N1_3 N 0.92763(18) 0.7097(2) 0.2670(4)
N2_2 N 0.83091(16) 0.70914(16) 0.4331(4)
C1_3 C 0.7314(2) 0.6223(3) 0.7168(6)
C2_3 C 0.7459(2) 0.5704(2) 0.8615(5)
C4_3 C 0.7567(3) 0.4983(3) 0.8312(6)
H2_3 H 0.7535 0.4811 0.7191
C6_3 C 0.7720(3) 0.4508(2) 0.9624(6)
H4_3 H 0.7808 0.4025 0.9381
O1_3 O 0.72058(18) 0.60164(18) 0.5678(4)
O2_3 O 0.73509(18) 0.68908(19) 0.7516(4)
C12_3 C 0.6223(3) 0.7314(2) 0.2832(6)
C13_3 C 0.5704(2) 0.7459(2) 0.1385(5)
C15_3 C 0.4983(3) 0.7567(3) 0.1688(6)
H11_3 H 0.4811 0.7535 0.2809
C17_3 C 0.4508(2) 0.7720(3) 0.0376(6)
H13_3 H 0.4025 0.7808 0.0619
O3_3 O 0.60164(18) 0.72058(18) 0.4322(4)
O4_3 O 0.68908(19) 0.73509(18) 0.2484(4)
C15_4 C 0.2567(3) 0.0017(3) 0.1688(6)
H11_4 H 0.2535 0.0189 0.2809
C17_4 C 0.2720(3) 0.0492(2) 0.0376(6)
H13_4 H 0.2808 0.0975 0.0619
C3_3 C 0.0942(2) 0.7516(2) 0.0308(6)
H1_3 H 0.1427 0.7595 0.0541
C5_3 C 0.0479(2) 0.7378(3) 0.1648(6)
H3_3 H 0.0647 0.7365 0.2774
Co1_2 Co 0.22345(2) 0.77655(2) 0.5000
C1_4 C 0.1223(3) 0.7686(2) 0.7168(6)
C2_4 C 0.0704(2) 0.7541(2) 0.8615(5)
O1_4 O 0.10164(18) 0.77942(18) 0.5678(4)
O2_4 O 0.18908(19) 0.76491(18) 0.7516(4)
C12_4 C 0.2314(2) 0.8777(3) 0.2832(6)
C13_4 C 0.2459(2) 0.9296(2) 0.1385(5)
N4_2 N 0.20914(16) 0.66909(16) 0.4331(4)
N5_2 N 0.33091(16) 0.79086(16) 0.5669(4)
O3_4 O 0.22058(18) 0.89836(18) 0.4322(4)
O4_4 O 0.23509(18) 0.81092(19) 0.2484(4)
C3_4 C 0.2516(2) 0.4058(2) 0.0308(6)
H1_4 H 0.2595 0.3573 0.0541
C5_4 C 0.2378(3) 0.4521(2) 0.1648(6)
H3_4 H 0.2365 0.4353 0.2774
C7_4 C 0.2257(3) 0.5251(2) 0.1290(6)
C8_4 C 0.1525(2) 0.5645(2) 0.3807(6)
H5_4 H 0.1211 0.5256 0.3872
C9_4 C 0.2439(2) 0.6347(2) 0.3055(5)
C10_4 C 0.3105(3) 0.6607(3) 0.2285(7)
H6_4 H 0.3259 0.6278 0.1408
H7_4 H 0.3471 0.6643 0.3155
H8_4 H 0.3025 0.7073 0.1786
C11_4 C 0.1514(2) 0.6239(2) 0.4795(6)
H9_4 H 0.1177 0.6336 0.5650
N1_4 N 0.2097(2) 0.57237(18) 0.2670(4)
C14_3 C 0.5942(2) 0.7484(2) 0.9692(6)
H10_3 H 0.6427 0.7405 0.9459
C16_3 C 0.5479(2) 0.7622(3) 0.8352(6)
H12_3 H 0.5647 0.7635 0.7226
C18_4 C 0.4749(2) 0.7743(3) 0.8710(6)
C19_4 C 0.4355(2) 0.8475(2) 0.6193(6)
H14_4 H 0.4744 0.8789 0.6128
C20_4 C 0.3653(2) 0.7561(2) 0.6945(5)
C21_4 C 0.3393(3) 0.6895(3) 0.7715(7)
H15_4 H 0.3722 0.6741 0.8592
H16_4 H 0.3357 0.6529 0.6845
H17_4 H 0.2927 0.6975 0.8214
C22_4 C 0.3761(2) 0.8486(2) 0.5205(6)
H18_4 H 0.3664 0.8823 0.4350
N3_4 N 0.42763(18) 0.7903(2) 0.7330(4)
C14_4 C 0.2484(2) 0.9058(2) 0.9692(6)
H10_4 H 0.2405 0.8573 0.9459
C16_4 C 0.2622(3) 0.9521(2) 0.8352(6)
H12_4 H 0.2635 0.9353 0.7226
C4_4 C 0.9983(3) 0.7433(3) 0.8312(6)
H2_4 H 0.9811 0.7465 0.7191
C6_4 C 0.9508(2) 0.7280(3) 0.9624(6)
H4_4 H 0.9025 0.7192 0.9381
loop_
_geom_bond_atom_site_label_1
_geom_bond_atom_site_label_2
_geom_bond_site_symmetry_1
_geom_bond_site_symmetry_2
C8 H5 1_555 1_555
C9 C10 1_555 1_555
C10 H6 1_555 1_555
H7 C10 1_555 1_555
H8 C10 1_555 1_555
C11 C8 1_555 1_555
H9 C11 1_555 1_555
N1 C7 1_555 1_555
N2 C9 1_555 1_555
Co2 N2 1_555 1_555
C8 N1 1_555 1_555
C9 N1 1_555 1_555
C11 N2 1_555 1_555
Co2 N6 1_555 1_555
C19 H14 1_555 1_555
C20 C21 1_555 1_555
C21 H15 1_555 1_555
H16 C21 1_555 1_555
H17 C21 1_555 1_555
C22 C19 1_555 1_555
H18 C22 1_555 1_555
N3 C18 1_555 1_555
N6 C20 1_555 1_555
C19 N3 1_555 1_555
C20 N3 1_555 1_555
C22 N6 1_555 1_555
Co2 O1 1_555 1_555
C1 C2 1_555 1_555
C4 C2 1_555 1_555
H2 C4 1_555 1_555
C6 C4 1_555 1_555
H4 C6 1_555 1_555
O1 C1 1_555 1_555
O2 Co2 1_555 1_555
C12 C13 1_555 1_555
C15 C13 1_555 1_555
H11 C15 1_555 1_555
C17 C15 1_555 1_555
H13 C17 1_555 1_555
O3 Co2 1_555 1_555
O4 Co2 1_555 1_555
C1 O2 1_555 1_555
C12 O3 1_555 1_555
C12 O4 1_555 1_555
H2_2 C4_2 1_555 1_555
C6_2 C4_2 1_555 1_555
H4_2 C6_2 1_555 1_555
C3 H1 1_555 1_555
C5 C3 1_555 1_555
H3 C5 1_555 1_555
Co1 O1_2 1_555 1_555
C1_2 C2_2 1_555 1_555
O1_2 C1_2 1_555 1_555
O2_2 Co1 1_555 1_555
C12_2 C13_2 1_555 1_555
N4 Co1 1_555 1_555
N5 Co1 1_555 1_555
O3_2 Co1 1_555 1_555
O4_2 Co1 1_555 1_555
C1_2 O2_2 1_555 1_555
C12_2 O3_2 1_555 1_555
C12_2 O4_2 1_555 1_555
C14 H10 1_555 1_555
C16 C14 1_555 1_555
H12 C16 1_555 1_555
C18_2 C16 1_555 1_555
C19_2 H14_2 1_555 1_555
C20_2 C21_2 1_555 1_555
C21_2 H15_2 1_555 1_555
H16_2 C21_2 1_555 1_555
H17_2 C21_2 1_555 1_555
C22_2 C19_2 1_555 1_555
H18_2 C22_2 1_555 1_555
N3_2 C18_2 1_555 1_555
N5 C20_2 1_555 1_555
C19_2 N3_2 1_555 1_555
C20_2 N3_2 1_555 1_555
C22_2 N5 1_555 1_555
C3_2 H1_2 1_555 1_555
C5_2 C3_2 1_555 1_555
H3_2 C5_2 1_555 1_555
C7_2 C5_2 1_555 1_555
C8_2 H5_2 1_555 1_555
C9_2 C10_2 1_555 1_555
C10_2 H6_2 1_555 1_555
H7_2 C10_2 1_555 1_555
H8_2 C10_2 1_555 1_555
C11_2 C8_2 1_555 1_555
H9_2 C11_2 1_555 1_555
N1_2 C7_2 1_555 1_555
N4 C9_2 1_555 1_555
C8_2 N1_2 1_555 1_555
C9_2 N1_2 1_555 1_555
C11_2 N4 1_555 1_555
C14_2 H10_2 1_555 1_555
C16_2 C14_2 1_555 1_555
H12_2 C16_2 1_555 1_555
H11_2 C15_2 1_555 1_555
C17_2 C15_2 1_555 1_555
H13_2 C17_2 1_555 1_555
Co3 N6_2 1_555 1_555
C19_3 H14_3 1_555 1_555
C20_3 C21_3 1_555 1_555
C21_3 H15_3 1_555 1_555
H16_3 C21_3 1_555 1_555
H17_3 C21_3 1_555 1_555
C22_3 C19_3 1_555 1_555
H18_3 C22_3 1_555 1_555
N3_3 C18_3 1_555 1_555
N6_2 C20_3 1_555 1_555
C19_3 N3_3 1_555 1_555
C20_3 N3_3 1_555 1_555
C22_3 N6_2 1_555 1_555
C8_3 H5_3 1_555 1_555
C9_3 C10_3 1_555 1_555
C10_3 H6_3 1_555 1_555
H7_3 C10_3 1_555 1_555
H8_3 C10_3 1_555 1_555
C11_3 C8_3 1_555 1_555
H9_3 C11_3 1_555 1_555
N1_3 C7_3 1_555 1_555
N2_2 C9_3 1_555 1_555
Co3 N2_2 1_555 1_555
C8_3 N1_3 1_555 1_555
C9_3 N1_3 1_555 1_555
C11_3 N2_2 1_555 1_555
Co3 O1_3 1_555 1_555
C1_3 C2_3 1_555 1_555
C4_3 C2_3 1_555 1_555
H2_3 C4_3 1_555 1_555
C6_3 C4_3 1_555 1_555
H4_3 C6_3 1_555 1_555
O1_3 C1_3 1_555 1_555
O2_3 Co3 1_555 1_555
C12_3 C13_3 1_555 1_555
C15_3 C13_3 1_555 1_555
H11_3 C15_3 1_555 1_555
C17_3 C15_3 1_555 1_555
H13_3 C17_3 1_555 1_555
O3_3 Co3 1_555 1_555
O4_3 Co3 1_555 1_555
C1_3 O2_3 1_555 1_555
C12_3 O3_3 1_555 1_555
C12_3 O4_3 1_555 1_555
H11_4 C15_4 1_555 1_555
C17_4 C15_4 1_555 1_555
H13_4 C17_4 1_555 1_555
C3_3 H1_3 1_555 1_555
C5_3 C3_3 1_555 1_555
H3_3 C5_3 1_555 1_555
Co1_2 O1_4 1_555 1_555
C1_4 C2_4 1_555 1_555
O1_4 C1_4 1_555 1_555
O2_4 Co1_2 1_555 1_555
C12_4 C13_4 1_555 1_555
N4_2 Co1_2 1_555 1_555
N5_2 Co1_2 1_555 1_555
O3_4 Co1_2 1_555 1_555
O4_4 Co1_2 1_555 1_555
C1_4 O2_4 1_555 1_555
C12_4 O3_4 1_555 1_555
C12_4 O4_4 1_555 1_555
C3_4 H1_4 1_555 1_555
C5_4 C3_4 1_555 1_555
H3_4 C5_4 1_555 1_555
C7_4 C5_4 1_555 1_555
C8_4 H5_4 1_555 1_555
C9_4 C10_4 1_555 1_555
C10_4 H6_4 1_555 1_555
H7_4 C10_4 1_555 1_555
H8_4 C10_4 1_555 1_555
C11_4 C8_4 1_555 1_555
H9_4 C11_4 1_555 1_555
N1_4 C7_4 1_555 1_555
N4_2 C9_4 1_555 1_555
C8_4 N1_4 1_555 1_555
C9_4 N1_4 1_555 1_555
C11_4 N4_2 1_555 1_555
C14_3 H10_3 1_555 1_555
C16_3 C14_3 1_555 1_555
H12_3 C16_3 1_555 1_555
C18_4 C16_3 1_555 1_555
C19_4 H14_4 1_555 1_555
C20_4 C21_4 1_555 1_555
C21_4 H15_4 1_555 1_555
H16_4 C21_4 1_555 1_555
H17_4 C21_4 1_555 1_555
C22_4 C19_4 1_555 1_555
H18_4 C22_4 1_555 1_555
N3_4 C18_4 1_555 1_555
N5_2 C20_4 1_555 1_555
C19_4 N3_4 1_555 1_555
C20_4 N3_4 1_555 1_555
C22_4 N5_2 1_555 1_555
C14_4 H10_4 1_555 1_555
C16_4 C14_4 1_555 1_555
H12_4 C16_4 1_555 1_555
H2_4 C4_4 1_555 1_555
C6_4 C4_4 1_555 1_555
H4_4 C6_4 1_555 1_555

#END
