
###############################################################################
#
# This file contains modified crystal structure data generated from the
# MOF subset of the Cambridge Structural Database (CSD) v543 
# hosted by the Cambridge Crystallographic Data Centre (CCDC).
#
# This work is licensed under the Creative Commons
# Attribution-NonCommercial-ShareAlike 4.0 International License.
# To view a copy of this license, visit
# http://creativecommons.org/licenses/by-nc-sa/4.0/
# or send a letter to
# Creative Commons, PO Box 1866, Mountain View, CA 94042, USA.
#
# CIF created using the CSD Python API on 29 September 2022
# The structure has been converted into the P1 space group
# The structure has a 3D framework
# The original CSD entry EYUYIJ is in the monoclinic crystal system
# The framework has been calculated to contain at least 10.0% void space
# The void calculation uses a probe of radius 1.32A, grid spacing 0.4
#
###############################################################################

data_EYUYIJ
_chemical_formula_moiety         '(C92 H60 N10 Ni4 O20)n'
_symmetry_cell_setting           triclinic
_symmetry_space_group_name_H-M   'P 1'
_symmetry_Int_Tables_number      1
_space_group_name_Hall           'P 1'
loop_
_symmetry_equiv_pos_site_id
_symmetry_equiv_pos_as_xyz
1 x,y,z
_cell_length_a                   13.1164(4)
_cell_length_b                   16.1174(5)
_cell_length_c                   14.7873(5)
_cell_angle_alpha                90
_cell_angle_beta                 109.7820(10)
_cell_angle_gamma                90
_cell_volume                     2941.59
loop_
_atom_site_label
_atom_site_type_symbol
_atom_site_fract_x
_atom_site_fract_y
_atom_site_fract_z
Ni1 Ni 0.61584(4) 0.73843(3) 0.70409(3)
O1 O 0.5441(2) 0.66617(17) 0.58769(19)
O2 O 0.2419(2) 0.69097(18) 0.17095(18)
O3 O 0.2106(2) 0.67939(18) 0.30763(19)
O4 O 0.7360(2) 0.64703(18) 0.7582(2)
H1 H 0.801460 0.667545 0.765981
H2 H 0.728526 0.606936 0.715036
O5 O 0.6664(2) 0.56757(19) 0.5948(2)
C2 C 0.2878(3) 0.5166(2) 0.0978(3)
H3 H 0.249482 0.493466 0.136035
C3 C 0.4236(3) 0.6266(3) 0.3987(3)
H4 H 0.387328 0.655810 0.434704
C4 C 0.5832(3) 0.6088(2) 0.5513(3)
C5 C 0.3790(3) 0.5648(2) 0.1399(3)
C6 C 0.3745(3) 0.6185(3) 0.3002(3)
C7 C 0.5254(3) 0.5926(2) 0.4454(3)
C8 C 0.2697(3) 0.6642(3) 0.2549(3)
C9 C 0.4261(3) 0.5762(3) 0.2459(3)
C10 C 0.4326(3) 0.5971(3) 0.0815(3)
H5 H 0.496867 0.628697 0.108402
C15 C 0.5273(4) 0.5413(3) 0.2940(3)
H7 H 0.563596 0.511743 0.258242
C16 C 0.5759(4) 0.5486(3) 0.3923(3)
H8 H 0.644228 0.523311 0.423493
H10 H 0.588600 0.648305 0.014734
C21 C 0.1200(5) 0.3909(3) 0.0025(3)
H13 H 0.146693 0.392333 0.070723
Ni4 Ni 0.11584(4) 0.76157(3) 0.20409(3)
O6 O 0.7419(2) 0.80903(18) 0.67095(18)
O7 O 0.7106(2) 0.82061(18) 0.80763(19)
N4 N 0.5014(3) 0.8297(2) 0.6389(2)
N5 N 0.5344(3) 0.6922(2) 0.7895(2)
N1 N 0.3027(3) 0.5353(2) 0.9416(2)
C1 C 0.2525(3) 0.5022(2) 0.9987(3)
C11 C 0.4404(3) 0.6209(3) 0.9150(3)
C12 C 0.1605(3) 0.4451(3) 0.9513(3)
C13 C 0.3905(3) 0.5823(3) 0.9816(3)
C14 C 0.3840(4) 0.6284(3) 0.8189(3)
H6 H 0.311318 0.609276 0.793482
C17 C 0.4325(4) 0.6639(3) 0.7587(3)
H9 H 0.391519 0.668396 0.692253
C18 C 0.5466(4) 0.6513(3) 0.9484(3)
C19 C 0.5890(4) 0.6853(3) 0.8842(3)
H11 H 0.661432 0.705245 0.907875
C20 C 0.0412(5) 0.3348(4) 0.9553(4)
H12 H 0.015915 0.297491 0.992844
C22 C 0.0346(6) 0.3837(4) 0.8127(4)
H14 H 0.003428 0.383050 0.744640
C23 C 0.1138(6) 0.4410(4) 0.8536(4)
H15 H 0.136301 0.477983 0.814006
H3_2 H 0.250518 0.993466 0.363965
C12_2 C 0.3395(3) 0.9451(3) 0.5487(3)
C20_2 C 0.4588(5) 0.8348(4) 0.5447(4)
H12_2 H 0.484085 0.797491 0.507156
C21_2 C 0.3800(5) 0.8909(3) 0.4975(3)
H13_2 H 0.353307 0.892333 0.429277
C22_2 C 0.4654(6) 0.8837(4) 0.6873(4)
H14_2 H 0.496572 0.883050 0.755360
C23_2 C 0.3862(6) 0.9410(4) 0.6464(4)
H15_2 H 0.363699 0.977983 0.685994
N2 N 0.0014(3) 0.6703(2) 0.1389(2)
O1_2 O 0.0441(2) 0.83383(17) 0.08769(19)
O4_2 O 0.2360(2) 0.85297(18) 0.2582(2)
H1_2 H 0.301460 0.832455 0.265981
H2_2 H 0.228526 0.893064 0.215036
O5_2 O 0.1664(2) 0.93243(19) 0.0948(2)
C4_2 C 0.0832(3) 0.8912(2) 0.0513(3)
N5_2 N 0.0344(3) 0.8078(2) 0.2895(2)
C7_2 C 0.0254(3) 0.9074(2) 0.9454(3)
C15_2 C 0.0273(4) 0.9587(3) 0.7940(3)
H7_2 H 0.063596 0.988257 0.758242
C16_2 C 0.0759(4) 0.9514(3) 0.8923(3)
H8_2 H 0.144228 0.976689 0.923493
C18_2 C 0.0466(4) 0.8487(3) 0.4484(3)
H10_2 H 0.088600 0.851695 0.514734
C19_2 C 0.0890(4) 0.8147(3) 0.3842(3)
H11_2 H 0.161432 0.794755 0.407875
N1_2 N 0.8027(3) 0.9647(2) 0.4416(2)
C1_2 C 0.7525(3) 0.9978(2) 0.4987(3)
C2_2 C 0.7878(3) 0.9834(2) 0.5978(3)
C3_2 C 0.9236(3) 0.8734(3) 0.8987(3)
H4_2 H 0.887328 0.844190 0.934704
C5_2 C 0.8790(3) 0.9352(2) 0.6399(3)
C6_2 C 0.8745(3) 0.8815(3) 0.8002(3)
C8_2 C 0.7697(3) 0.8358(3) 0.7549(3)
C9_2 C 0.9261(3) 0.9238(3) 0.7459(3)
C10_2 C 0.9326(3) 0.9029(3) 0.5815(3)
H5_2 H 0.996867 0.871303 0.608402
C11_2 C 0.9404(3) 0.8791(3) 0.4150(3)
C13_2 C 0.8905(3) 0.9177(3) 0.4816(3)
C14_2 C 0.8840(4) 0.8716(3) 0.3189(3)
H6_2 H 0.811318 0.890724 0.293482
C17_2 C 0.9325(4) 0.8361(3) 0.2587(3)
H9_2 H 0.891519 0.831604 0.192253
N2_2 N 0.9986(3) 0.3297(2) 0.8611(2)
Ni3 Ni 0.88416(4) 0.23843(3) 0.79591(3)
O2_2 O 0.2581(2) 0.19097(18) 0.32905(18)
O3_2 O 0.2894(2) 0.17939(18) 0.19237(19)
N1_3 N 0.1973(3) 0.0353(2) 0.5584(2)
C1_3 C 0.2475(3) 0.0022(2) 0.5013(3)
C2_3 C 0.2122(3) 0.0166(2) 0.4022(3)
C3_3 C 0.0764(3) 0.1266(3) 0.1013(3)
H4_3 H 0.112672 0.155810 0.065296
C5_3 C 0.1210(3) 0.0648(2) 0.3601(3)
C6_3 C 0.1255(3) 0.1185(3) 0.1998(3)
C8_3 C 0.2303(3) 0.1642(3) 0.2451(3)
C9_3 C 0.0739(3) 0.0762(3) 0.2541(3)
C10_3 C 0.0674(3) 0.0971(3) 0.4185(3)
H5_3 H 0.003133 0.128697 0.391598
C11_3 C 0.0596(3) 0.1209(3) 0.5850(3)
C13_3 C 0.1095(3) 0.0823(3) 0.5184(3)
C14_3 C 0.1160(4) 0.1284(3) 0.6811(3)
H6_3 H 0.188682 0.109276 0.706518
C17_3 C 0.0675(4) 0.1639(3) 0.7413(3)
H9_3 H 0.108481 0.168396 0.807747
Ni4_2 Ni 0.38416(4) 0.26157(3) 0.29591(3)
N3 N 0.9656(3) 0.1922(2) 0.7105(2)
C7_3 C 0.9746(3) 0.0926(2) 0.0546(3)
C15_3 C 0.9727(4) 0.0413(3) 0.2060(3)
H7_3 H 0.936404 0.011743 0.241758
C16_3 C 0.9241(4) 0.0486(3) 0.1077(3)
H8_3 H 0.855772 0.023311 0.076507
C18_3 C 0.9534(4) 0.1513(3) 0.5516(3)
H10_3 H 0.911400 0.148305 0.485266
C19_3 C 0.9110(4) 0.1853(3) 0.6158(3)
H11_3 H 0.838568 0.205245 0.592125
O1_3 O 0.9559(2) 0.16617(17) 0.91231(19)
O4_3 O 0.7640(2) 0.14703(18) 0.7418(2)
H1_3 H 0.698540 0.167545 0.734019
H2_3 H 0.771474 0.106936 0.784964
O5_3 O 0.8336(2) 0.06757(19) 0.9052(2)
C4_3 C 0.9168(3) 0.1088(2) 0.9487(3)
O6_2 O 0.7581(2) 0.30903(18) 0.82905(18)
O7_2 O 0.7894(2) 0.32061(18) 0.69237(19)
N1_4 N 0.6973(3) 0.4647(2) 0.0584(2)
N3_2 N 0.4656(3) 0.3078(2) 0.2105(2)
C1_4 C 0.7475(3) 0.4978(2) 0.0013(3)
C11_4 C 0.5596(3) 0.3791(3) 0.0850(3)
C12_3 C 0.8395(3) 0.5549(3) 0.0487(3)
C13_4 C 0.6095(3) 0.4177(3) 0.0184(3)
C14_4 C 0.6160(4) 0.3716(3) 0.1811(3)
H6_4 H 0.688682 0.390724 0.206518
C17_4 C 0.5675(4) 0.3361(3) 0.2413(3)
H9_4 H 0.608481 0.331604 0.307747
C18_4 C 0.4534(4) 0.3487(3) 0.0516(3)
C19_4 C 0.4110(4) 0.3147(3) 0.1158(3)
H11_4 H 0.338568 0.294755 0.092125
C20_3 C 0.9588(5) 0.6652(4) 0.0447(4)
H12_3 H 0.984085 0.702509 0.007156
C22_3 C 0.9654(6) 0.6163(4) 0.1873(4)
H14_3 H 0.996572 0.616950 0.255360
C23_3 C 0.8862(6) 0.5590(4) 0.1464(4)
H15_3 H 0.863699 0.522017 0.185994
O1_4 O 0.4559(2) 0.33383(17) 0.41231(19)
O4_4 O 0.2640(2) 0.35297(18) 0.2418(2)
H1_4 H 0.198540 0.332455 0.234019
H2_4 H 0.271474 0.393064 0.284964
O5_4 O 0.3336(2) 0.43243(19) 0.4052(2)
C2_4 C 0.7122(3) 0.4834(2) 0.9022(3)
H3_3 H 0.750518 0.506534 0.863965
C3_4 C 0.5764(3) 0.3734(3) 0.6013(3)
H4_4 H 0.612672 0.344190 0.565296
C4_4 C 0.4168(3) 0.3912(2) 0.4487(3)
C5_4 C 0.6210(3) 0.4352(2) 0.8601(3)
C6_4 C 0.6255(3) 0.3815(3) 0.6998(3)
C7_4 C 0.4746(3) 0.4074(2) 0.5546(3)
C8_4 C 0.7303(3) 0.3358(3) 0.7451(3)
C9_4 C 0.5739(3) 0.4238(3) 0.7541(3)
C10_4 C 0.5674(3) 0.4029(3) 0.9185(3)
H5_4 H 0.503133 0.371303 0.891598
C15_4 C 0.4727(4) 0.4587(3) 0.7060(3)
H7_4 H 0.436404 0.488257 0.741758
C16_4 C 0.4241(4) 0.4514(3) 0.6077(3)
H8_4 H 0.355772 0.476689 0.576507
H10_4 H 0.411400 0.351695 0.985266
C21_3 C 0.8800(5) 0.6091(3) 0.9975(3)
H13_3 H 0.853307 0.607667 0.929277
N4_2 N 0.4986(3) 0.1703(2) 0.3611(2)
H3_4 H 0.749482 0.006534 0.636035
C12_4 C 0.6605(3) 0.0549(3) 0.4513(3)
C20_4 C 0.5412(5) 0.1652(4) 0.4553(4)
H12_4 H 0.515915 0.202509 0.492844
C21_4 C 0.6200(5) 0.1091(3) 0.5025(3)
H13_4 H 0.646693 0.107667 0.570723
C22_4 C 0.5346(6) 0.1163(4) 0.3127(4)
H14_4 H 0.503428 0.116950 0.244640
C23_4 C 0.6138(6) 0.0590(4) 0.3536(4)
H15_4 H 0.636301 0.022017 0.314006
loop_
_geom_bond_atom_site_label_1
_geom_bond_atom_site_label_2
_geom_bond_site_symmetry_1
_geom_bond_site_symmetry_2
Ni1 O1 1_555 1_555
O1 C4 1_555 1_555
O2 C8 1_555 1_555
O3 C8 1_555 1_555
O4 Ni1 1_555 1_555
H1 O4 1_555 1_555
H2 O4 1_555 1_555
O5 C4 1_555 1_555
C2 H3 1_555 1_555
C3 H4 1_555 1_555
C4 C7 1_555 1_555
C5 C2 1_555 1_555
C6 C3 1_555 1_555
C7 C3 1_555 1_555
C8 C6 1_555 1_555
C9 C5 1_555 1_555
C10 C5 1_555 1_555
H5 C10 1_555 1_555
C15 C9 1_555 1_555
H7 C15 1_555 1_555
C16 C7 1_555 1_555
H8 C16 1_555 1_555
H13 C21 1_555 1_555
Ni4 O2 1_555 1_555
O6 Ni1 1_555 1_555
O7 Ni1 1_555 1_555
N4 Ni1 1_555 1_555
N5 Ni1 1_555 1_555
O3 Ni4 1_555 1_555
C6 C9 1_555 1_555
C15 C16 1_555 1_555
N1 C1 1_555 1_555
N5 C17 1_555 1_555
C11 C13 1_555 1_555
C12 C1 1_555 1_555
C13 N1 1_555 1_555
C14 C11 1_555 1_555
H6 C14 1_555 1_555
C17 C14 1_555 1_555
H9 C17 1_555 1_555
C18 C11 1_555 1_555
C19 N5 1_555 1_555
H11 C19 1_555 1_555
C20 H12 1_555 1_555
H14 C22 1_555 1_555
C23 C12 1_555 1_555
H15 C23 1_555 1_555
C18 C19 1_555 1_555
C22 C23 1_555 1_555
N4 C20_2 1_555 1_555
C20_2 H12_2 1_555 1_555
C21_2 C12_2 1_555 1_555
H13_2 C21_2 1_555 1_555
C22_2 N4 1_555 1_555
H14_2 C22_2 1_555 1_555
C23_2 C12_2 1_555 1_555
H15_2 C23_2 1_555 1_555
C20_2 C21_2 1_555 1_555
C22_2 C23_2 1_555 1_555
Ni4 N2 1_555 1_555
Ni4 O1_2 1_555 1_555
O1_2 C4_2 1_555 1_555
O4_2 Ni4 1_555 1_555
H1_2 O4_2 1_555 1_555
H2_2 O4_2 1_555 1_555
O5_2 C4_2 1_555 1_555
N5_2 Ni4 1_555 1_555
H7_2 C15_2 1_555 1_555
C16_2 C7_2 1_555 1_555
H8_2 C16_2 1_555 1_555
H10_2 C18_2 1_555 1_555
C19_2 N5_2 1_555 1_555
H11_2 C19_2 1_555 1_555
C15_2 C16_2 1_555 1_555
C18_2 C19_2 1_555 1_555
O6 C8_2 1_555 1_555
O7 C8_2 1_555 1_555
N1_2 C1_2 1_555 1_555
C1_2 C2_2 1_555 1_555
C3_2 H4_2 1_555 1_555
C5_2 C2_2 1_555 1_555
C6_2 C3_2 1_555 1_555
C8_2 C6_2 1_555 1_555
C9_2 C5_2 1_555 1_555
C10_2 C5_2 1_555 1_555
H5_2 C10_2 1_555 1_555
C11_2 C13_2 1_555 1_555
C13_2 N1_2 1_555 1_555
C14_2 C11_2 1_555 1_555
H6_2 C14_2 1_555 1_555
C17_2 C14_2 1_555 1_555
H9_2 C17_2 1_555 1_555
C6_2 C9_2 1_555 1_555
C10_2 C13_2 1_555 1_555
Ni3 N2_2 1_555 1_555
O2_2 C8_3 1_555 1_555
O3_2 C8_3 1_555 1_555
N1_3 C1_3 1_555 1_555
C1_3 C2_3 1_555 1_555
C3_3 H4_3 1_555 1_555
C5_3 C2_3 1_555 1_555
C6_3 C3_3 1_555 1_555
C8_3 C6_3 1_555 1_555
C9_3 C5_3 1_555 1_555
C10_3 C5_3 1_555 1_555
H5_3 C10_3 1_555 1_555
C11_3 C13_3 1_555 1_555
C13_3 N1_3 1_555 1_555
C14_3 C11_3 1_555 1_555
H6_3 C14_3 1_555 1_555
C17_3 C14_3 1_555 1_555
H9_3 C17_3 1_555 1_555
Ni4_2 O2_2 1_555 1_555
O3_2 Ni4_2 1_555 1_555
C6_3 C9_3 1_555 1_555
C10_3 C13_3 1_555 1_555
H7_3 C15_3 1_555 1_555
C16_3 C7_3 1_555 1_555
H8_3 C16_3 1_555 1_555
H10_3 C18_3 1_555 1_555
C19_3 N3 1_555 1_555
H11_3 C19_3 1_555 1_555
Ni3 N3 1_555 1_555
C15_3 C16_3 1_555 1_555
C18_3 C19_3 1_555 1_555
Ni3 O1_3 1_555 1_555
O1_3 C4_3 1_555 1_555
O4_3 Ni3 1_555 1_555
H1_3 O4_3 1_555 1_555
H2_3 O4_3 1_555 1_555
O5_3 C4_3 1_555 1_555
O6_2 Ni3 1_555 1_555
O7_2 Ni3 1_555 1_555
N1_4 C1_4 1_555 1_555
N3_2 C17_4 1_555 1_555
C11_4 C13_4 1_555 1_555
C12_3 C1_4 1_555 1_555
C13_4 N1_4 1_555 1_555
C14_4 C11_4 1_555 1_555
H6_4 C14_4 1_555 1_555
C17_4 C14_4 1_555 1_555
H9_4 C17_4 1_555 1_555
C18_4 C11_4 1_555 1_555
C19_4 N3_2 1_555 1_555
H11_4 C19_4 1_555 1_555
C20_3 H12_3 1_555 1_555
H14_3 C22_3 1_555 1_555
C23_3 C12_3 1_555 1_555
H15_3 C23_3 1_555 1_555
Ni4_2 N3_2 1_555 1_555
C18_4 C19_4 1_555 1_555
C22_3 C23_3 1_555 1_555
Ni4_2 O1_4 1_555 1_555
O1_4 C4_4 1_555 1_555
O6_2 C8_4 1_555 1_555
O7_2 C8_4 1_555 1_555
O4_4 Ni4_2 1_555 1_555
H1_4 O4_4 1_555 1_555
H2_4 O4_4 1_555 1_555
O5_4 C4_4 1_555 1_555
C2_4 H3_3 1_555 1_555
C3_4 H4_4 1_555 1_555
C4_4 C7_4 1_555 1_555
C5_4 C2_4 1_555 1_555
C6_4 C3_4 1_555 1_555
C7_4 C3_4 1_555 1_555
C8_4 C6_4 1_555 1_555
C9_4 C5_4 1_555 1_555
C10_4 C5_4 1_555 1_555
H5_4 C10_4 1_555 1_555
C15_4 C9_4 1_555 1_555
H7_4 C15_4 1_555 1_555
C16_4 C7_4 1_555 1_555
H8_4 C16_4 1_555 1_555
H13_3 C21_3 1_555 1_555
N4_2 Ni4_2 1_555 1_555
C6_4 C9_4 1_555 1_555
C15_4 C16_4 1_555 1_555
N4_2 C20_4 1_555 1_555
C20_4 H12_4 1_555 1_555
C21_4 C12_4 1_555 1_555
H13_4 C21_4 1_555 1_555
C22_4 N4_2 1_555 1_555
H14_4 C22_4 1_555 1_555
C23_4 C12_4 1_555 1_555
H15_4 C23_4 1_555 1_555
C20_4 C21_4 1_555 1_555
C22_4 C23_4 1_555 1_555

#END
