
###############################################################################
#
# This file contains modified crystal structure data generated from the
# MOF subset of the Cambridge Structural Database (CSD) v543 
# hosted by the Cambridge Crystallographic Data Centre (CCDC).
#
# This work is licensed under the Creative Commons
# Attribution-NonCommercial-ShareAlike 4.0 International License.
# To view a copy of this license, visit
# http://creativecommons.org/licenses/by-nc-sa/4.0/
# or send a letter to
# Creative Commons, PO Box 1866, Mountain View, CA 94042, USA.
#
# CIF created using the CSD Python API on 29 September 2022
# The structure has been converted into the P1 space group
# The structure has a 3D framework
# The original CSD entry EZALUP is in the triclinic crystal system
# The framework has been calculated to contain at least 10.0% void space
# The void calculation uses a probe of radius 1.32A, grid spacing 0.4
#
###############################################################################

data_EZALUP
_chemical_formula_moiety         '(C12 H20 Nd2 O15)n'
_symmetry_cell_setting           triclinic
_symmetry_space_group_name_H-M   'P 1'
_symmetry_Int_Tables_number      1
_space_group_name_Hall           'P 1'
loop_
_symmetry_equiv_pos_site_id
_symmetry_equiv_pos_as_xyz
1 x,y,z
_cell_length_a                   8.7165(2)
_cell_length_b                   9.3168(3)
_cell_length_c                   10.3337(3)
_cell_angle_alpha                86.206(2)
_cell_angle_beta                 73.042(2)
_cell_angle_gamma                63.862(3)
_cell_volume                     718.72
loop_
_atom_site_label
_atom_site_type_symbol
_atom_site_fract_x
_atom_site_fract_y
_atom_site_fract_z
_atom_site_U_iso_or_equiv
_atom_site_thermal_displace_type
O6 O 0.1735(5) 0.1311(4) 0.3075(4) 0.0336 Uani
H1 H 0.2698(12) 0.098(4) 0.2406(12) 0.0508 Uiso
H2 H 0.129(6) 0.2335(5) 0.3206(17) 0.0508 Uiso
O8 O 0.2495(5) 0.0531(5) 0.7598(4) 0.0337 Uani
C3 C 0.1216(7) 0.0167(6) 0.8156(5) 0.0308 Uani
C6 C 0.0597(7) 0.0243(8) 0.9668(5) 0.0382 Uani
H10 H 0.0141(7) 0.1352(8) 0.9985(5) 0.0456 Uiso
O13 O 0.0190(4) 0.2871(4) 0.6005(4) 0.0259 Uani
O18 O 0.4240(4) 0.1450(4) 0.4510(4) 0.0248 Uani
Nd1 Nd 0.24397(3) 0.99881(2) 0.51981(2) 0.0167 Uani
O1 O 0.1109(4) 0.8434(3) 0.4573(3) 0.0239 Uani
O4 O 0.5901(4) 0.2730(4) 0.3979(4) 0.0273 Uani
O5 O 0.0486(5) 0.9774(5) 0.7467(4) 0.0332 Uani
O7 O 0.4803(5) 0.8246(5) 0.3113(4) 0.0400 Uani
H3 H 0.553(4) 0.866(3) 0.275(3) 0.0603 Uiso
H4 H 0.4301(7) 0.818(5) 0.253(2) 0.0603 Uiso
C1 C 0.1140(5) 0.7144(5) 0.4231(5) 0.0200 Uani
C2 C 0.4419(6) 0.2722(5) 0.4188(5) 0.0207 Uani
C4 C 0.2774(6) 0.5632(5) 0.4154(5) 0.0260 Uani
H5 H 0.3690(6) 0.5650(5) 0.3358(5) 0.0307 Uiso
H6 H 0.3156(6) 0.5695(5) 0.4933(5) 0.0307 Uiso
C5 C 0.2822(6) 0.4201(5) 0.4106(5) 0.0263 Uani
H7 H 0.2594(6) 0.4077(5) 0.3265(5) 0.0313 Uiso
H8 H 0.1817(6) 0.4219(5) 0.4838(5) 0.0313 Uiso
H9 H 0.1654(7) 0.9640(8) 0.9962(5) 0.0456 Uiso
Nd7 Nd 0.75603(3) 0.00119(2) 0.48019(2) 0.0167 Uani
O20 O 0.5760(4) 0.8550(4) 0.5490(4) 0.0248 Uani
O22 O 0.4099(4) 0.7270(4) 0.6021(4) 0.0273 Uani
O9 O 0.9514(5) 0.0226(5) 0.2533(4) 0.0332 Uani
H11 H 0.8346(7) 0.0360(8) 0.0038(5) 0.0456 Uiso
O11 O 0.8891(4) 0.1566(3) 0.5427(3) 0.0239 Uani
O16 O 0.5197(5) 0.1754(5) 0.6887(4) 0.0400 Uani
H15 H 0.447(4) 0.134(3) 0.725(3) 0.0603 Uiso
H16 H 0.5699(7) 0.182(5) 0.747(2) 0.0603 Uiso
C9 C 0.8860(5) 0.2856(5) 0.5769(5) 0.0200 Uani
C10 C 0.5581(6) 0.7278(5) 0.5812(5) 0.0207 Uani
C11 C 0.7226(6) 0.4368(5) 0.5846(5) 0.0260 Uani
H17 H 0.6310(6) 0.4350(5) 0.6642(5) 0.0307 Uiso
H18 H 0.6844(6) 0.4305(5) 0.5067(5) 0.0307 Uiso
C12 C 0.7178(6) 0.5799(5) 0.5894(5) 0.0263 Uani
H19 H 0.7406(6) 0.5923(5) 0.6735(5) 0.0313 Uiso
H20 H 0.8183(6) 0.5781(5) 0.5162(5) 0.0313 Uiso
O10 O 0.7505(5) 0.9469(5) 0.2402(4) 0.0337 Uani
C7 C 0.8784(7) 0.9833(6) 0.1844(5) 0.0308 Uani
C8 C 0.9403(7) 0.9757(8) 0.0332(5) 0.0382 Uani
H12 H 0.9859(7) 0.8648(8) 0.0015(5) 0.0456 Uiso
O3 O 0.9810(4) 0.7129(4) 0.3995(4) 0.0259 Uani
O15 O 0.8265(5) 0.8689(4) 0.6925(4) 0.0336 Uani
H13 H 0.7302(12) 0.902(4) 0.7594(12) 0.0508 Uiso
H14 H 0.871(6) 0.7665(5) 0.6794(17) 0.0508 Uiso
loop_
_atom_site_aniso_label
_atom_site_aniso_U_11
_atom_site_aniso_U_22
_atom_site_aniso_U_33
_atom_site_aniso_U_23
_atom_site_aniso_U_13
_atom_site_aniso_U_12
O6 0.03 0.037 0.038 0.0115 -0.0134 -0.0175
O8 0.0271 0.044 0.033 0.001 -0.0077 -0.0187
C3 0.026 0.037 0.027 0.004 -0.008 -0.012
C6 0.032 0.051 0.028 0.002 -0.009 -0.015
O13 0.0174 0.0168 0.043 -0.0009 -0.0111 -0.0054
O18 0.0204 0.0124 0.042 0.0064 -0.0099 -0.0077
Nd1 0.01363 0.01163 0.02511 0.0028 -0.00691 -0.00531
O1 0.0221 0.0107 0.0396 0.0005 -0.0131 -0.0052
O4 0.0186 0.0166 0.05 0.0086 -0.014 -0.009
O5 0.0288 0.051 0.0268 0.0059 -0.0098 -0.0231
O7 0.033 0.044 0.038 -0.0054 -0.005 -0.0148
C1 0.016 0.0126 0.03 0.001 -0.0079 -0.0042
C2 0.019 0.014 0.029 0.0036 -0.0099 -0.0058
C4 0.022 0.016 0.04 0.0029 -0.0115 -0.0071
C5 0.018 0.018 0.04 0.0043 -0.0093 -0.0053
Nd7 0.01363 0.01163 0.02511 0.0028 -0.00691 -0.00531
O20 0.0204 0.0124 0.042 0.0064 -0.0099 -0.0077
O22 0.0186 0.0166 0.05 0.0086 -0.014 -0.009
O9 0.0288 0.051 0.0268 0.0059 -0.0098 -0.0231
O11 0.0221 0.0107 0.0396 0.0005 -0.0131 -0.0052
O16 0.033 0.044 0.038 -0.0054 -0.005 -0.0148
C9 0.016 0.0126 0.03 0.001 -0.0079 -0.0042
C10 0.019 0.014 0.029 0.0036 -0.0099 -0.0058
C11 0.022 0.016 0.04 0.0029 -0.0115 -0.0071
C12 0.018 0.018 0.04 0.0043 -0.0093 -0.0053
O10 0.0271 0.044 0.033 0.001 -0.0077 -0.0187
C7 0.026 0.037 0.027 0.004 -0.008 -0.012
C8 0.032 0.051 0.028 0.002 -0.009 -0.015
O3 0.0174 0.0168 0.043 -0.0009 -0.0111 -0.0054
O15 0.03 0.037 0.038 0.0115 -0.0134 -0.0175
loop_
_geom_bond_atom_site_label_1
_geom_bond_atom_site_label_2
_geom_bond_site_symmetry_1
_geom_bond_site_symmetry_2
H1 O6 1_555 1_555
H2 O6 1_555 1_555
C6 C3 1_555 1_555
H10 C6 1_555 1_555
O8 C3 1_555 1_555
Nd1 O1 1_555 1_555
O1 C1 1_555 1_555
O18 C2 1_555 1_555
O4 C2 1_555 1_555
O5 Nd1 1_555 1_555
O7 Nd1 1_555 1_555
H3 O7 1_555 1_555
H4 O7 1_555 1_555
C1 C4 1_555 1_555
C2 C5 1_555 1_555
C4 H5 1_555 1_555
H6 C4 1_555 1_555
C5 C4 1_555 1_555
H7 C5 1_555 1_555
H8 C5 1_555 1_555
Nd7 O18 1_555 1_555
O20 Nd1 1_555 1_555
O22 Nd1 1_555 1_555
O4 Nd7 1_555 1_555
Nd7 O9 1_555 1_555
O20 C10 1_555 1_555
O22 C10 1_555 1_555
O16 Nd7 1_555 1_555
H15 O16 1_555 1_555
H16 O16 1_555 1_555
C9 O11 1_555 1_555
C10 C12 1_555 1_555
C11 C9 1_555 1_555
H17 C11 1_555 1_555
H18 C11 1_555 1_555
C12 C11 1_555 1_555
H19 C12 1_555 1_555
H20 C12 1_555 1_555
Nd7 O11 1_555 1_555
O10 C7 1_555 1_555
C7 C8 1_555 1_555
H12 C8 1_555 1_555
H13 O15 1_555 1_555
H14 O15 1_555 1_555

#END
