
###############################################################################
#
# This file contains modified crystal structure data generated from the
# MOF subset of the Cambridge Structural Database (CSD) v543 
# hosted by the Cambridge Crystallographic Data Centre (CCDC).
#
# This work is licensed under the Creative Commons
# Attribution-NonCommercial-ShareAlike 4.0 International License.
# To view a copy of this license, visit
# http://creativecommons.org/licenses/by-nc-sa/4.0/
# or send a letter to
# Creative Commons, PO Box 1866, Mountain View, CA 94042, USA.
#
# CIF created using the CSD Python API on 29 September 2022
# The structure has been converted into the P1 space group
# The structure has a 3D framework
# The original CSD entry EZANEB is in the triclinic crystal system
# The framework has been calculated to contain at least 10.0% void space
# The void calculation uses a probe of radius 1.32A, grid spacing 0.4
#
###############################################################################

data_EZANEB
_chemical_formula_moiety         '(C12 H20 O16 Pr2)n'
_symmetry_cell_setting           triclinic
_symmetry_space_group_name_H-M   'P 1'
_symmetry_Int_Tables_number      1
_space_group_name_Hall           'P 1'
loop_
_symmetry_equiv_pos_site_id
_symmetry_equiv_pos_as_xyz
1 x,y,z
_cell_length_a                   8.7491(2)
_cell_length_b                   9.3385(3)
_cell_length_c                   10.3561(5)
_cell_angle_alpha                86.590(4)
_cell_angle_beta                 73.144(4)
_cell_angle_gamma                63.866(3)
_cell_volume                     724.694
loop_
_atom_site_label
_atom_site_type_symbol
_atom_site_fract_x
_atom_site_fract_y
_atom_site_fract_z
_atom_site_U_iso_or_equiv
_atom_site_thermal_displace_type
Pr8 Pr 0.25605(4) 0.00112(3) 0.48027(4) 0.0170 Uani
O1 O 0.3896(6) 0.1571(6) 0.5426(6) 0.0253 Uani
O2 O 0.0756(6) 0.8545(6) 0.5503(6) 0.0242 Uani
O3 O 0.5168(6) 0.2896(6) 0.6021(6) 0.0279 Uani
H3 H 0.031362 0.724940 0.329669 0.0640 Uiso
H4 H 0.061510 0.857198 0.277793 0.0640 Uiso
C1 C 0.3864(8) 0.2872(7) 0.5771(7) 0.0204 Uani
C2 C 0.0570(9) 0.7282(7) 0.5810(7) 0.0188 Uani
C4 C 0.2223(9) 0.4389(8) 0.5854(9) 0.0269 Uani
H5 H 0.183792 0.432152 0.507990 0.0320 Uiso
H6 H 0.131396 0.437687 0.665145 0.0320 Uiso
C5 C 0.2180(9) 0.5794(8) 0.5900(9) 0.0261 Uani
H7 H 0.318471 0.576835 0.517150 0.0320 Uiso
H8 H 0.239964 0.592840 0.674009 0.0320 Uiso
Pr5 Pr 0.74395(4) 0.99888(3) 0.51973(4) 0.0170 Uani
H10 H 0.520024 0.134231 0.000190 0.0490 Uiso
O9 O 0.4528(7) 0.0206(8) 0.2521(6) 0.0355 Uani
H11 H 0.331215 0.038954 0.005609 0.0490 Uiso
O14 O 0.0892(6) 0.2738(6) 0.3971(6) 0.0270 Uani
O16 O 0.0204(8) 0.1761(8) 0.6904(7) 0.0430 Uani
O6 O 0.6768(7) 0.1310(7) 0.3057(6) 0.0354 Uani
H1 H 0.582877 0.223740 0.326821 0.0530 Uiso
H2 H 0.655870 0.070500 0.258740 0.0530 Uiso
O7 O 0.7472(7) 0.0531(8) 0.7610(6) 0.0373 Uani
C3 C 0.6209(10) 0.0188(10) 0.8159(8) 0.0326 Uani
C6 C 0.5630(12) 0.0244(12) 0.9666(9) 0.0406 Uani
O22 O 0.9244(6) 0.1455(6) 0.4497(6) 0.0242 Uani
O10 O 0.2528(7) 0.9469(8) 0.2390(6) 0.0373 Uani
C7 C 0.3791(10) 0.9812(10) 0.1841(8) 0.0326 Uani
C8 C 0.4370(12) 0.9756(12) 0.0334(9) 0.0406 Uani
O15 O 0.3232(7) 0.8690(7) 0.6943(6) 0.0354 Uani
H13 H 0.417123 0.776260 0.673179 0.0530 Uiso
H14 H 0.344130 0.929500 0.741260 0.0530 Uiso
O20 O 0.6104(6) 0.8429(6) 0.4574(6) 0.0253 Uani
O24 O 0.4832(6) 0.7104(6) 0.3979(6) 0.0279 Uani
O4 O 0.9108(6) 0.7262(6) 0.6029(6) 0.0270 Uani
O5 O 0.5472(7) 0.9794(8) 0.7479(6) 0.0355 Uani
O8 O 0.9796(8) 0.8239(8) 0.3096(7) 0.0430 Uani
H9 H 0.668785 0.961046 0.994391 0.0490 Uiso
H12 H 0.479976 0.865769 0.999810 0.0490 Uiso
H15 H 0.968638 0.275060 0.670331 0.0640 Uiso
H16 H 0.938490 0.142802 0.722207 0.0640 Uiso
C9 C 0.6136(8) 0.7128(7) 0.4229(7) 0.0204 Uani
C10 C 0.9430(9) 0.2718(7) 0.4190(7) 0.0188 Uani
C11 C 0.7777(9) 0.5611(8) 0.4146(9) 0.0269 Uani
H17 H 0.816208 0.567848 0.492010 0.0320 Uiso
H18 H 0.868604 0.562313 0.334855 0.0320 Uiso
C12 C 0.7820(9) 0.4206(8) 0.4100(9) 0.0261 Uani
H19 H 0.681529 0.423165 0.482850 0.0320 Uiso
H20 H 0.760036 0.407160 0.325991 0.0320 Uiso
loop_
_atom_site_aniso_label
_atom_site_aniso_U_11
_atom_site_aniso_U_22
_atom_site_aniso_U_33
_atom_site_aniso_U_23
_atom_site_aniso_U_13
_atom_site_aniso_U_12
Pr8 0.0145 0.0127 0.0248 0.00298 -0.00716 -0.00635
O1 0.02 0.015 0.043 -0.002 -0.014 -0.0061
O2 0.021 0.015 0.041 0.003 -0.012 -0.01
O3 0.019 0.016 0.05 -0.002 -0.015 -0.0053
C1 0.016 0.012 0.031 -0.001 -0.007 -0.004
C2 0.02 0.008 0.031 0.006 -0.014 -0.005
C4 0.022 0.02 0.04 0.002 -0.013 -0.008
C5 0.018 0.016 0.043 0.009 -0.011 -0.006
Pr5 0.0145 0.0127 0.0248 0.00298 -0.00716 -0.00635
O9 0.03 0.055 0.027 0.005 -0.008 -0.024
O14 0.017 0.017 0.05 0.012 -0.015 -0.0081
O16 0.037 0.046 0.036 -0.005 -0.007 -0.011
O6 0.033 0.041 0.038 0.006 -0.015 -0.019
O7 0.033 0.053 0.033 0.003 -0.01 -0.025
C3 0.024 0.043 0.029 0.005 -0.007 -0.014
C6 0.038 0.051 0.028 0 -0.01 -0.015
O22 0.021 0.015 0.041 0.003 -0.012 -0.01
O10 0.033 0.053 0.033 0.003 -0.01 -0.025
C7 0.024 0.043 0.029 0.005 -0.007 -0.014
C8 0.038 0.051 0.028 0 -0.01 -0.015
O15 0.033 0.041 0.038 0.006 -0.015 -0.019
O20 0.02 0.015 0.043 -0.002 -0.014 -0.0061
O24 0.019 0.016 0.05 -0.002 -0.015 -0.0053
O4 0.017 0.017 0.05 0.012 -0.015 -0.0081
O5 0.03 0.055 0.027 0.005 -0.008 -0.024
O8 0.037 0.046 0.036 -0.005 -0.007 -0.011
C9 0.016 0.012 0.031 -0.001 -0.007 -0.004
C10 0.02 0.008 0.031 0.006 -0.014 -0.005
C11 0.022 0.02 0.04 0.002 -0.013 -0.008
C12 0.018 0.016 0.043 0.009 -0.011 -0.006
loop_
_geom_bond_atom_site_label_1
_geom_bond_atom_site_label_2
_geom_bond_site_symmetry_1
_geom_bond_site_symmetry_2
O1 C1 1_555 1_555
O2 C2 1_555 1_555
O3 C1 1_555 1_555
C1 C4 1_555 1_555
C4 H5 1_555 1_555
H6 C4 1_555 1_555
C5 C2 1_555 1_555
H7 C5 1_555 1_555
H8 C5 1_555 1_555
Pr8 O1 1_555 1_555
C4 C5 1_555 1_555
Pr8 O9 1_555 1_555
O14 Pr8 1_555 1_555
O16 Pr8 1_555 1_555
H1 O6 1_555 1_555
H2 O6 1_555 1_555
C6 C3 1_555 1_555
O7 C3 1_555 1_555
O10 C7 1_555 1_555
C7 C8 1_555 1_555
H13 O15 1_555 1_555
H14 O15 1_555 1_555
O4 Pr5 1_555 1_555
O5 Pr5 1_555 1_555
O8 Pr5 1_555 1_555
O20 Pr5 1_555 1_555
O20 C9 1_555 1_555
O24 C9 1_555 1_555
C9 C11 1_555 1_555
C10 O22 1_555 1_555
C11 H17 1_555 1_555
H18 C11 1_555 1_555
C12 C10 1_555 1_555
H19 C12 1_555 1_555
H20 C12 1_555 1_555
C11 C12 1_555 1_555

#END
