
###############################################################################
#
# This file contains modified crystal structure data generated from the
# MOF subset of the Cambridge Structural Database (CSD) v543 
# hosted by the Cambridge Crystallographic Data Centre (CCDC).
#
# This work is licensed under the Creative Commons
# Attribution-NonCommercial-ShareAlike 4.0 International License.
# To view a copy of this license, visit
# http://creativecommons.org/licenses/by-nc-sa/4.0/
# or send a letter to
# Creative Commons, PO Box 1866, Mountain View, CA 94042, USA.
#
# CIF created using the CSD Python API on 29 September 2022
# The structure has been converted into the P1 space group
# The structure has a 3D framework
# The original CSD entry EZANAX is in the triclinic crystal system
# The framework has been calculated to contain at least 10.0% void space
# The void calculation uses a probe of radius 1.32A, grid spacing 0.4
#
###############################################################################

data_EZANAX
_chemical_formula_moiety         '(C12 H20 La2 O14)n'
_symmetry_cell_setting           triclinic
_symmetry_space_group_name_H-M   'P 1'
_symmetry_Int_Tables_number      1
_space_group_name_Hall           'P 1'
loop_
_symmetry_equiv_pos_site_id
_symmetry_equiv_pos_as_xyz
1 x,y,z
_cell_length_a                   8.8628(9)
_cell_length_b                   9.4045(14)
_cell_length_c                   10.3241(16)
_cell_angle_alpha                89.243(12)
_cell_angle_beta                 72.112(11)
_cell_angle_gamma                63.882(12)
_cell_volume                     727.763
loop_
_atom_site_label
_atom_site_type_symbol
_atom_site_fract_x
_atom_site_fract_y
_atom_site_fract_z
_atom_site_U_iso_or_equiv
_atom_site_thermal_displace_type
La5 La 0.24162(5) 0.00109(4) 0.52022(5) 0.0363 Uani
O1 O 0.1119(8) 0.8375(6) 0.4534(6) 0.0390 Uani
O2 O 0.4271(7) 0.1466(6) 0.4520(7) 0.0426 Uani
O3 O 0.5918(7) 0.2692(6) 0.3980(7) 0.0426 Uani
O6 O 0.1883(9) 0.1128(8) 0.3010(8) 0.0598 Uani
H3 H 0.294670 0.091751 0.228733 0.0900 Uiso
H4 H 0.118312 0.225154 0.314523 0.0900 Uiso
O8 O 0.2403(9) 0.0775(9) 0.7612(8) 0.0650 Uani
C1 C 0.4456(9) 0.2683(8) 0.4184(9) 0.0329 Uani
C2 C 0.1185(10) 0.7056(8) 0.4227(10) 0.0391 Uani
C3 C 0.2872(9) 0.4130(8) 0.4129(10) 0.0365 Uani
H5 H 0.264783 0.392257 0.330701 0.0440 Uiso
H6 H 0.186750 0.421829 0.490589 0.0440 Uiso
C4 C 0.2820(10) 0.5573(8) 0.4132(10) 0.0372 Uani
H7 H 0.373874 0.551599 0.329612 0.0440 Uiso
H8 H 0.318742 0.572257 0.489137 0.0440 Uiso
C5 C 0.1152(16) 0.0350(15) 0.8192(13) 0.0781 Uani
C6 C 0.0630(19) 0.0321(18) 0.9628(16) 0.0949 Uani
O26 O 0.0100(7) 0.2999(6) 0.6010(7) 0.0439 Uani
O5 O 0.4890(8) 0.8116(8) 0.3018(8) 0.0603 Uani
H1 H 0.443129 0.802340 0.239335 0.0910 Uiso
H2 H 0.546821 0.715003 0.321974 0.0910 Uiso
O7 O 0.0357(9) 0.9866(10) 0.7514(8) 0.0703 Uani
H10 H 0.172060 0.972543 0.983571 0.1140 Uiso
La8 La 0.75838(5) 0.99891(4) 0.47978(5) 0.0363 Uani
O22 O 0.5729(7) 0.8534(6) 0.5480(7) 0.0426 Uani
O24 O 0.4082(7) 0.7308(6) 0.6020(7) 0.0426 Uani
O9 O 0.9643(9) 0.0134(10) 0.2486(8) 0.0703 Uani
H12 H 0.827940 0.027457 0.016429 0.1140 Uiso
O15 O 0.5110(8) 0.1884(8) 0.6982(8) 0.0603 Uani
H13 H 0.556871 0.197660 0.760665 0.0910 Uiso
H14 H 0.453179 0.284997 0.678026 0.0910 Uiso
O20 O 0.8881(8) 0.1625(6) 0.5466(6) 0.0390 Uani
O4 O 0.9900(7) 0.7001(6) 0.3990(7) 0.0439 Uani
O10 O 0.7597(9) 0.9225(9) 0.2388(8) 0.0650 Uani
C7 C 0.8848(16) 0.9650(15) 0.1808(13) 0.0781 Uani
C8 C 0.9370(19) 0.9679(18) 0.0372(16) 0.0949 Uani
O16 O 0.8117(9) 0.8872(8) 0.6990(8) 0.0598 Uani
H15 H 0.705330 0.908249 0.771267 0.0900 Uiso
H16 H 0.881688 0.774846 0.685477 0.0900 Uiso
C9 C 0.5544(9) 0.7317(8) 0.5816(9) 0.0329 Uani
C10 C 0.8815(10) 0.2944(8) 0.5773(10) 0.0391 Uani
C11 C 0.7128(9) 0.5870(8) 0.5871(10) 0.0365 Uani
H17 H 0.735217 0.607743 0.669299 0.0440 Uiso
H18 H 0.813250 0.578171 0.509411 0.0440 Uiso
C12 C 0.7180(10) 0.4427(8) 0.5868(10) 0.0372 Uani
H19 H 0.626126 0.448401 0.670388 0.0440 Uiso
H20 H 0.681258 0.427743 0.510863 0.0440 Uiso
H9 H 0.011959 0.141511 0.005921 0.1140 Uiso
H11 H 0.988041 0.858489 0.994079 0.1140 Uiso
loop_
_atom_site_aniso_label
_atom_site_aniso_U_11
_atom_site_aniso_U_22
_atom_site_aniso_U_33
_atom_site_aniso_U_23
_atom_site_aniso_U_13
_atom_site_aniso_U_12
La5 0.0216 0.0175 0.0811 0.0146 -0.0283 -0.0115
O1 0.042 0.014 0.069 0.011 -0.029 -0.013
O2 0.035 0.021 0.087 0.021 -0.033 -0.018
O3 0.025 0.023 0.091 0.021 -0.03 -0.014
O6 0.044 0.065 0.089 0.037 -0.037 -0.032
O8 0.037 0.075 0.08 0.006 -0.024 -0.02
C1 0.022 0.016 0.065 0.01 -0.02 -0.009
C2 0.023 0.02 0.077 0.016 -0.022 -0.009
C3 0.024 0.028 0.068 0.011 -0.023 -0.016
C4 0.027 0.029 0.065 0.012 -0.023 -0.016
C5 0.059 0.08 0.067 0.004 -0.034 0.001
C6 0.085 0.098 0.095 0.016 -0.046 -0.026
O26 0.022 0.021 0.094 0.006 -0.026 -0.01
O5 0.044 0.061 0.079 0.014 -0.022 -0.026
O7 0.04 0.096 0.069 0.034 -0.027 -0.021
La8 0.0216 0.0175 0.0811 0.0146 -0.0283 -0.0115
O22 0.035 0.021 0.087 0.021 -0.033 -0.018
O24 0.025 0.023 0.091 0.021 -0.03 -0.014
O9 0.04 0.096 0.069 0.034 -0.027 -0.021
O15 0.044 0.061 0.079 0.014 -0.022 -0.026
O20 0.042 0.014 0.069 0.011 -0.029 -0.013
O4 0.022 0.021 0.094 0.006 -0.026 -0.01
O10 0.037 0.075 0.08 0.006 -0.024 -0.02
C7 0.059 0.08 0.067 0.004 -0.034 0.001
C8 0.085 0.098 0.095 0.016 -0.046 -0.026
O16 0.044 0.065 0.089 0.037 -0.037 -0.032
C9 0.022 0.016 0.065 0.01 -0.02 -0.009
C10 0.023 0.02 0.077 0.016 -0.022 -0.009
C11 0.024 0.028 0.068 0.011 -0.023 -0.016
C12 0.027 0.029 0.065 0.012 -0.023 -0.016
loop_
_geom_bond_atom_site_label_1
_geom_bond_atom_site_label_2
_geom_bond_site_symmetry_1
_geom_bond_site_symmetry_2
La5 O2 1_555 1_555
O1 C2 1_555 1_555
O2 C1 1_555 1_555
O3 C1 1_555 1_555
O6 La5 1_555 1_555
H3 O6 1_555 1_555
H4 O6 1_555 1_555
O8 La5 1_555 1_555
C1 C3 1_555 1_555
C2 C4 1_555 1_555
C3 H5 1_555 1_555
H6 C3 1_555 1_555
C4 C3 1_555 1_555
H7 C4 1_555 1_555
H8 C4 1_555 1_555
C6 C5 1_555 1_555
O26 La5 1_555 1_555
O8 C5 1_555 1_555
H1 O5 1_555 1_555
H2 O5 1_555 1_555
La8 O22 1_555 1_555
H13 O15 1_555 1_555
H14 O15 1_555 1_555
O4 La8 1_555 1_555
O10 C7 1_555 1_555
C7 C8 1_555 1_555
O20 C10 1_555 1_555
O24 C9 1_555 1_555
O16 La8 1_555 1_555
H15 O16 1_555 1_555
H16 O16 1_555 1_555
C9 O22 1_555 1_555
C10 C12 1_555 1_555
C11 C9 1_555 1_555
H17 C11 1_555 1_555
H18 C11 1_555 1_555
C12 C11 1_555 1_555
H19 C12 1_555 1_555
H20 C12 1_555 1_555
O10 La8 1_555 1_555

#END
