
###############################################################################
#
# This file contains modified crystal structure data generated from the
# MOF subset of the Cambridge Structural Database (CSD) v543 
# hosted by the Cambridge Crystallographic Data Centre (CCDC).
#
# This work is licensed under the Creative Commons
# Attribution-NonCommercial-ShareAlike 4.0 International License.
# To view a copy of this license, visit
# http://creativecommons.org/licenses/by-nc-sa/4.0/
# or send a letter to
# Creative Commons, PO Box 1866, Mountain View, CA 94042, USA.
#
# CIF created using the CSD Python API on 29 September 2022
# The structure has been converted into the P1 space group
# The structure has a 3D framework
# The original CSD entry EZEQEH is in the monoclinic crystal system
# The framework has been calculated to contain at least 10.0% void space
# The void calculation uses a probe of radius 1.32A, grid spacing 0.4
#
###############################################################################

data_EZEQEH
_chemical_formula_moiety         '(C104 H64 Mg8 N8 O36)n'
_symmetry_cell_setting           triclinic
_symmetry_space_group_name_H-M   'P 1'
_symmetry_Int_Tables_number      1
_space_group_name_Hall           'P 1'
loop_
_symmetry_equiv_pos_site_id
_symmetry_equiv_pos_as_xyz
1 x,y,z
_cell_length_a                   16.7513(15)
_cell_length_b                   18.1923(17)
_cell_length_c                   12.0258(11)
_cell_angle_alpha                90
_cell_angle_beta                 123.8700(10)
_cell_angle_gamma                90
_cell_volume                     3042.9
loop_
_atom_site_label
_atom_site_type_symbol
_atom_site_fract_x
_atom_site_fract_y
_atom_site_fract_z
Mg1 Mg -0.0000 0.30208(6) 0.2500
Mg2 Mg 0.2500 0.2500 0.5000
O1 O 0.09866(13) 0.22254(10) 0.39026(19)
O2 O 0.08245(13) 0.29668(10) 0.17330(19)
O4 O 0.22311(13) 0.65451(10) 0.06649(19)
O5 O 0.23549(13) 0.31127(10) 0.34432(19)
N1 N 0.07141(16) 0.16102(12) 0.4213(2)
C1 C 0.0661(2) 0.03208(16) 0.4237(3)
C2 C 0.0941(2) 0.09610(16) 0.3944(3)
C4 C 0.0152(2) 0.03412(15) 0.4834(3)
C5 C 0.1636(2) 0.53428(14) 0.0557(3)
C6 C 0.1619(2) 0.32974(15) 0.2330(3)
C7 C 0.1667(2) 0.39864(15) 0.1674(3)
C9 C 0.2365(2) 0.45059(19) 0.2420(3)
C10 C 0.0233(2) 0.16578(17) 0.4801(4)
C11 C 0.2345(2) 0.51783(18) 0.1873(3)
C13 C 0.0964(3) 0.41426(18) 0.0356(3)
H2 H 0.129(2) 0.0984(17) 0.355(3)
H5 H 0.279(3) 0.555(2) 0.243(4)
H6 H 0.285(3) 0.441(2) 0.340(5)
H8 H 0.009(3) 0.218(2) 0.494(4)
Mg5 Mg 0.0000 0.69792(6) 0.7500
Mg9 Mg 0.2500 0.7500 0.0000
O12 O 0.40134(13) 0.27746(10) 0.60974(19)
O14 O 0.08488(13) 0.38069(10) 0.3801(2)
O15 O 0.27689(13) 0.15451(10) 0.43351(19)
O16 O 0.22311(13) 0.34549(10) 0.56649(19)
O17 O 0.26451(13) 0.18873(10) 0.65568(19)
O3 O 0.08488(13) 0.61931(10) 0.8801(2)
C3 C 0.1569(2) 0.60840(15) 0.9962(3)
C12 C 0.0953(2) 0.48121(18) 0.9801(3)
H4 H 0.050(3) 0.381(2) 0.991(4)
H7 H 0.042(3) 0.496(2) 0.886(4)
Mg9_2 Mg 0.2500 0.7500 1.0000
H1 H 0.085(2) 0.9867(19) 0.405(4)
C17 C 0.0055(3) 0.89688(17) 0.4893(4)
H11 H 0.037(3) 0.8920(19) 0.441(4)
Mg1_2 Mg 1.0000 0.30208(6) 0.2500
C8 C 0.9945(3) 0.10312(17) 0.5107(4)
H3 H 0.963(3) 0.1080(19) 0.559(4)
H9 H 0.915(2) 0.0133(19) 0.595(4)
O7 O 0.91755(13) 0.29668(10) 0.32670(19)
O8 O 0.91512(13) 0.61931(10) 0.6199(2)
O9 O 0.77689(13) 0.65451(10) 0.43351(19)
O10 O 0.76451(13) 0.31127(10) 0.15568(19)
C19 C 0.8431(2) 0.60840(15) 0.5038(3)
C20 C 0.8364(2) 0.53428(14) 0.4443(3)
C21 C 0.8381(2) 0.32974(15) 0.2670(3)
C22 C 0.8333(2) 0.39864(15) 0.3326(3)
C23 C 0.7635(2) 0.45059(19) 0.2580(3)
C24 C 0.7655(2) 0.51783(18) 0.3127(3)
C25 C 0.9047(2) 0.48121(18) 0.5199(3)
C26 C 0.9036(3) 0.41426(18) 0.4644(3)
H13 H 0.950(3) 0.381(2) 0.509(4)
H14 H 0.721(3) 0.555(2) 0.257(4)
H15 H 0.715(3) 0.441(2) 0.160(5)
H16 H 0.958(3) 0.496(2) 0.614(4)
Mg5_2 Mg 1.0000 0.69792(6) 0.7500
Mg6 Mg 0.7500 0.2500 0.0000
Mg8 Mg 0.7500 0.7500 0.5000
O11 O 0.90134(13) 0.22254(10) 0.10974(19)
O13 O 0.91512(13) 0.38069(10) 0.1199(2)
Mg6_2 Mg 0.7500 0.2500 1.0000
O6 O 0.90134(13) 0.77746(10) 0.60974(19)
N2 N 0.92859(16) 0.83898(12) 0.5787(2)
C14 C 0.9339(2) 0.96792(16) 0.5763(3)
C15 C 0.9059(2) 0.90390(16) 0.6056(3)
C16 C 0.9848(2) 0.96588(15) 0.5166(3)
C18 C 0.9767(2) 0.83422(17) 0.5199(4)
H10 H 0.871(2) 0.9016(17) 0.645(3)
H12 H 0.991(3) 0.782(2) 0.506(4)
C8_2 C 0.0055(3) 0.10312(17) 0.9893(4)
H3_2 H 0.037(3) 0.1080(19) 0.941(4)
H9_2 H 0.085(2) 0.0133(19) 0.905(4)
O6_2 O 0.09866(13) 0.77746(10) 0.89026(19)
N2_2 N 0.07141(16) 0.83898(12) 0.9213(2)
C14_2 C 0.0661(2) 0.96792(16) 0.9237(3)
C15_2 C 0.0941(2) 0.90390(16) 0.8944(3)
C16_2 C 0.0152(2) 0.96588(15) 0.9834(3)
C18_2 C 0.0233(2) 0.83422(17) 0.9801(4)
H10_2 H 0.129(2) 0.9016(17) 0.855(3)
H12_2 H 0.009(3) 0.782(2) 0.994(4)
N1_2 N 0.92859(16) 0.16102(12) 0.0787(2)
C1_2 C 0.9339(2) 0.03208(16) 0.0763(3)
C2_2 C 0.9059(2) 0.09610(16) 0.1056(3)
C4_2 C 0.9848(2) 0.03412(15) 0.0166(3)
C10_2 C 0.9767(2) 0.16578(17) 0.0199(4)
H2_2 H 0.871(2) 0.0984(17) 0.145(3)
H8_2 H 0.991(3) 0.218(2) 0.006(4)
O15_2 O 0.72311(13) 0.15451(10) 0.06649(19)
O12_2 O 0.59866(13) 0.27746(10) 0.89026(19)
O16_2 O 0.77689(13) 0.34549(10) 0.93351(19)
O17_2 O 0.73549(13) 0.18873(10) 0.84432(19)
H1_2 H 0.915(2) 0.9867(19) 0.095(4)
C17_2 C 0.9945(3) 0.89688(17) 0.0107(4)
H11_2 H 0.963(3) 0.8920(19) 0.059(4)
C5_2 C 0.6636(2) 0.03428(14) 0.0557(3)
C11_2 C 0.7345(2) 0.01783(18) 0.1873(3)
H5_2 H 0.779(3) 0.055(2) 0.243(4)
O8_2 O 0.41512(13) 0.11931(10) 0.6199(2)
C19_2 C 0.3431(2) 0.10840(15) 0.5038(3)
C20_2 C 0.3364(2) 0.03428(14) 0.4443(3)
C24_2 C 0.2655(2) 0.01783(18) 0.3127(3)
H14_2 H 0.221(3) 0.055(2) 0.257(4)
Mg5_3 Mg 0.5000 0.19792(6) 0.7500
O3_2 O 0.58488(13) 0.11931(10) 0.8801(2)
C3_2 C 0.6569(2) 0.10840(15) 0.9962(3)
Mg1_3 Mg 0.5000 0.80208(6) 0.2500
O1_2 O 0.59866(13) 0.72254(10) 0.39026(19)
O2_2 O 0.58245(13) 0.79668(10) 0.17330(19)
O5_2 O 0.73549(13) 0.81127(10) 0.34432(19)
N1_3 N 0.57141(16) 0.66102(12) 0.4213(2)
C1_3 C 0.5661(2) 0.53208(16) 0.4237(3)
C2_3 C 0.5941(2) 0.59610(16) 0.3944(3)
C4_3 C 0.5152(2) 0.53412(15) 0.4834(3)
C6_2 C 0.6619(2) 0.82974(15) 0.2330(3)
C7_2 C 0.6667(2) 0.89864(15) 0.1674(3)
C8_3 C 0.4945(3) 0.60312(17) 0.5107(4)
C9_2 C 0.7365(2) 0.95059(19) 0.2420(3)
C10_3 C 0.5233(2) 0.66578(17) 0.4801(4)
C13_2 C 0.5964(3) 0.91426(18) 0.0356(3)
H1_3 H 0.585(2) 0.4867(19) 0.405(4)
H2_3 H 0.629(2) 0.5984(17) 0.355(3)
H3_3 H 0.463(3) 0.6080(19) 0.559(4)
H6_2 H 0.785(3) 0.941(2) 0.340(5)
H8_3 H 0.509(3) 0.718(2) 0.494(4)
N2_3 N 0.42859(16) 0.33898(12) 0.5787(2)
C14_3 C 0.4339(2) 0.46792(16) 0.5763(3)
C15_3 C 0.4059(2) 0.40390(16) 0.6056(3)
C16_3 C 0.4848(2) 0.46588(15) 0.5166(3)
C17_3 C 0.5055(3) 0.39688(17) 0.4893(4)
C18_3 C 0.4767(2) 0.33422(17) 0.5199(4)
H9_3 H 0.415(2) 0.5133(19) 0.595(4)
H10_3 H 0.371(2) 0.4016(17) 0.645(3)
H11_3 H 0.537(3) 0.3920(19) 0.441(4)
H12_3 H 0.491(3) 0.282(2) 0.506(4)
O7_2 O 0.41755(13) 0.79668(10) 0.32670(19)
O10_2 O 0.26451(13) 0.81127(10) 0.15568(19)
C21_2 C 0.3381(2) 0.82974(15) 0.2670(3)
C22_2 C 0.3333(2) 0.89864(15) 0.3326(3)
C23_2 C 0.2635(2) 0.95059(19) 0.2580(3)
C25_2 C 0.4047(2) 0.98121(18) 0.5199(3)
C26_2 C 0.4036(3) 0.91426(18) 0.4644(3)
H13_2 H 0.450(3) 0.881(2) 0.509(4)
H15_2 H 0.215(3) 0.941(2) 0.160(5)
H16_2 H 0.458(3) 0.996(2) 0.614(4)
O11_2 O 0.40134(13) 0.72254(10) 0.10974(19)
O13_2 O 0.41512(13) 0.88069(10) 0.1199(2)
O14_2 O 0.58488(13) 0.88069(10) 0.3801(2)
O16_3 O 0.72311(13) 0.84549(10) 0.56649(19)
O17_3 O 0.76451(13) 0.68873(10) 0.65568(19)
C12_2 C 0.5953(2) 0.98121(18) 0.9801(3)
H4_2 H 0.550(3) 0.881(2) 0.991(4)
H7_2 H 0.542(3) 0.996(2) 0.886(4)
N1_4 N 0.42859(16) 0.66102(12) 0.0787(2)
C1_4 C 0.4339(2) 0.53208(16) 0.0763(3)
C2_4 C 0.4059(2) 0.59610(16) 0.1056(3)
C4_4 C 0.4848(2) 0.53412(15) 0.0166(3)
C10_4 C 0.4767(2) 0.66578(17) 0.0199(4)
H1_4 H 0.415(2) 0.4867(19) 0.095(4)
H2_4 H 0.371(2) 0.5984(17) 0.145(3)
H8_4 H 0.491(3) 0.718(2) 0.006(4)
C17_4 C 0.4945(3) 0.39688(17) 0.0107(4)
H11_4 H 0.463(3) 0.3920(19) 0.059(4)
C8_4 C 0.5055(3) 0.60312(17) 0.9893(4)
H3_4 H 0.537(3) 0.6080(19) 0.941(4)
N2_4 N 0.57141(16) 0.33898(12) 0.9213(2)
C14_4 C 0.5661(2) 0.46792(16) 0.9237(3)
C15_4 C 0.5941(2) 0.40390(16) 0.8944(3)
C16_4 C 0.5152(2) 0.46588(15) 0.9834(3)
C18_4 C 0.5233(2) 0.33422(17) 0.9801(4)
H9_4 H 0.585(2) 0.5133(19) 0.905(4)
H10_4 H 0.629(2) 0.4016(17) 0.855(3)
H12_4 H 0.509(3) 0.282(2) 0.994(4)
O16_4 O 0.27689(13) 0.84549(10) 0.93351(19)
O17_4 O 0.23549(13) 0.68873(10) 0.84432(19)
O7_3 O 0.08245(13) 0.70332(10) 0.67330(19)
C19_3 C 0.1569(2) 0.39160(15) 0.4962(3)
C20_3 C 0.1636(2) 0.46572(14) 0.5557(3)
C21_3 C 0.1619(2) 0.67026(15) 0.7330(3)
C22_3 C 0.1667(2) 0.60136(15) 0.6674(3)
C23_3 C 0.2365(2) 0.54941(19) 0.7420(3)
C24_3 C 0.2345(2) 0.48217(18) 0.6873(3)
C25_3 C 0.0953(2) 0.51879(18) 0.4801(3)
C26_3 C 0.0964(3) 0.58574(18) 0.5356(3)
H13_3 H 0.050(3) 0.619(2) 0.491(4)
H14_3 H 0.279(3) 0.445(2) 0.743(4)
H15_3 H 0.285(3) 0.559(2) 0.840(5)
H16_3 H 0.042(3) 0.504(2) 0.386(4)
C3_3 C 0.8431(2) 0.39160(15) 0.0038(3)
C12_3 C 0.9047(2) 0.51879(18) 0.0199(3)
H4_3 H 0.950(3) 0.619(2) 0.009(4)
H7_3 H 0.958(3) 0.504(2) 0.114(4)
O2_3 O 0.91755(13) 0.70332(10) 0.82670(19)
C5_3 C 0.8364(2) 0.46572(14) 0.9443(3)
C6_3 C 0.8381(2) 0.67026(15) 0.7670(3)
C7_3 C 0.8333(2) 0.60136(15) 0.8326(3)
C9_3 C 0.7635(2) 0.54941(19) 0.7580(3)
C11_3 C 0.7655(2) 0.48217(18) 0.8127(3)
C13_3 C 0.9036(3) 0.58574(18) 0.9644(3)
H5_3 H 0.721(3) 0.445(2) 0.757(4)
H6_3 H 0.715(3) 0.559(2) 0.660(5)
C12_4 C 0.4047(2) 0.01879(18) 0.0199(3)
H4_4 H 0.450(3) 0.119(2) 0.009(4)
H7_4 H 0.458(3) 0.004(2) 0.114(4)
O2_4 O 0.41755(13) 0.20332(10) 0.82670(19)
C6_4 C 0.3381(2) 0.17026(15) 0.7670(3)
C7_4 C 0.3333(2) 0.10136(15) 0.8326(3)
C9_4 C 0.2635(2) 0.04941(19) 0.7580(3)
C13_4 C 0.4036(3) 0.08574(18) 0.9644(3)
H6_4 H 0.215(3) 0.059(2) 0.660(5)
O7_4 O 0.58245(13) 0.20332(10) 0.67330(19)
C21_4 C 0.6619(2) 0.17026(15) 0.7330(3)
C22_4 C 0.6667(2) 0.10136(15) 0.6674(3)
C23_4 C 0.7365(2) 0.04941(19) 0.7420(3)
C25_4 C 0.5953(2) 0.01879(18) 0.4801(3)
C26_4 C 0.5964(3) 0.08574(18) 0.5356(3)
H13_4 H 0.550(3) 0.119(2) 0.491(4)
H15_4 H 0.785(3) 0.059(2) 0.840(5)
H16_4 H 0.542(3) 0.004(2) 0.386(4)
C3_4 C 0.3431(2) 0.89160(15) 0.0038(3)
C5_4 C 0.3364(2) 0.96572(14) 0.9443(3)
C11_4 C 0.2655(2) 0.98217(18) 0.8127(3)
H5_4 H 0.221(3) 0.945(2) 0.757(4)
C19_4 C 0.6569(2) 0.89160(15) 0.4962(3)
C20_4 C 0.6636(2) 0.96572(14) 0.5557(3)
C24_4 C 0.7345(2) 0.98217(18) 0.6873(3)
H14_4 H 0.779(3) 0.945(2) 0.743(4)
loop_
_geom_bond_atom_site_label_1
_geom_bond_atom_site_label_2
_geom_bond_site_symmetry_1
_geom_bond_site_symmetry_2
Mg1 O1 1_555 1_555
Mg2 O1 1_555 1_555
O1 N1 1_555 1_555
O2 Mg1 1_555 1_555
O5 Mg2 1_555 1_555
N1 C2 1_555 1_555
C1 C2 1_555 1_555
C2 H2 1_555 1_555
C4 C1 1_555 1_555
C5 C11 1_555 1_555
C6 O2 1_555 1_555
C7 C6 1_555 1_555
C9 C7 1_555 1_555
C10 N1 1_555 1_555
C11 C9 1_555 1_555
C13 C7 1_555 1_555
H5 C11 1_555 1_555
H6 C9 1_555 1_555
H8 C10 1_555 1_555
Mg9 O4 1_555 1_555
O12 Mg2 1_555 1_555
O14 Mg1 1_555 1_555
O15 Mg2 1_555 1_555
O16 Mg2 1_555 1_555
O17 Mg2 1_555 1_555
O5 C6 1_555 1_555
O3 C3 1_555 1_555
H7 C12 1_555 1_555
Mg5 O3 1_555 1_555
H11 C17 1_555 1_555
H3 C8 1_555 1_555
O7 Mg1_2 1_555 1_555
O8 C19 1_555 1_555
O9 C19 1_555 1_555
O10 C21 1_555 1_555
C19 C20 1_555 1_555
C20 C24 1_555 1_555
C21 O7 1_555 1_555
C22 C21 1_555 1_555
C23 C22 1_555 1_555
C24 C23 1_555 1_555
C25 C20 1_555 1_555
C26 C22 1_555 1_555
H13 C26 1_555 1_555
H14 C24 1_555 1_555
H15 C23 1_555 1_555
H16 C25 1_555 1_555
Mg5_2 O8 1_555 1_555
Mg6 O10 1_555 1_555
Mg8 O9 1_555 1_555
O11 Mg1_2 1_555 1_555
O13 Mg1_2 1_555 1_555
C25 C26 1_555 1_555
Mg6 O11 1_555 1_555
O6 N2 1_555 1_555
N2 C15 1_555 1_555
C14 C15 1_555 1_555
C15 H10 1_555 1_555
C18 N2 1_555 1_555
H12 C18 1_555 1_555
Mg5_2 O6 1_555 1_555
Mg8 O6 1_555 1_555
C14 C16 1_555 1_555
H3_2 C8_2 1_555 1_555
O6_2 N2_2 1_555 1_555
N2_2 C15_2 1_555 1_555
C14_2 C15_2 1_555 1_555
C15_2 H10_2 1_555 1_555
C18_2 N2_2 1_555 1_555
H12_2 C18_2 1_555 1_555
Mg5 O6_2 1_555 1_555
Mg9_2 O6_2 1_555 1_555
C14_2 C16_2 1_555 1_555
O11 N1_2 1_555 1_555
N1_2 C2_2 1_555 1_555
C1_2 C2_2 1_555 1_555
C2_2 H2_2 1_555 1_555
C4_2 C1_2 1_555 1_555
C10_2 N1_2 1_555 1_555
H8_2 C10_2 1_555 1_555
O15_2 Mg6 1_555 1_555
O12_2 Mg6_2 1_555 1_555
O16_2 Mg6_2 1_555 1_555
O17_2 Mg6_2 1_555 1_555
H11_2 C17_2 1_555 1_555
C5_2 C11_2 1_555 1_555
H5_2 C11_2 1_555 1_555
O8_2 C19_2 1_555 1_555
O15 C19_2 1_555 1_555
C19_2 C20_2 1_555 1_555
C20_2 C24_2 1_555 1_555
H14_2 C24_2 1_555 1_555
Mg5_3 O8_2 1_555 1_555
O3_2 C3_2 1_555 1_555
Mg5_3 O3_2 1_555 1_555
Mg1_3 O1_2 1_555 1_555
Mg8 O1_2 1_555 1_555
O1_2 N1_3 1_555 1_555
O2_2 Mg1_3 1_555 1_555
O5_2 Mg8 1_555 1_555
N1_3 C2_3 1_555 1_555
C1_3 C2_3 1_555 1_555
C2_3 H2_3 1_555 1_555
C4_3 C1_3 1_555 1_555
C6_2 O2_2 1_555 1_555
C7_2 C6_2 1_555 1_555
C8_3 C4_3 1_555 1_555
C9_2 C7_2 1_555 1_555
C10_3 N1_3 1_555 1_555
C13_2 C7_2 1_555 1_555
H1_3 C1_3 1_555 1_555
H3_3 C8_3 1_555 1_555
H6_2 C9_2 1_555 1_555
H8_3 C10_3 1_555 1_555
O12 N2_3 1_555 1_555
N2_3 C15_3 1_555 1_555
C14_3 C15_3 1_555 1_555
C15_3 H10_3 1_555 1_555
C16_3 C4_3 1_555 1_555
C17_3 C16_3 1_555 1_555
C18_3 N2_3 1_555 1_555
H9_3 C14_3 1_555 1_555
H11_3 C17_3 1_555 1_555
H12_3 C18_3 1_555 1_555
O7_2 Mg1_3 1_555 1_555
O10_2 C21_2 1_555 1_555
C21_2 O7_2 1_555 1_555
C22_2 C21_2 1_555 1_555
C23_2 C22_2 1_555 1_555
C26_2 C22_2 1_555 1_555
H13_2 C26_2 1_555 1_555
H15_2 C23_2 1_555 1_555
H16_2 C25_2 1_555 1_555
Mg5_3 O12 1_555 1_555
Mg9 O10_2 1_555 1_555
O11_2 Mg1_3 1_555 1_555
O13_2 Mg1_3 1_555 1_555
O14_2 Mg1_3 1_555 1_555
O16_3 Mg8 1_555 1_555
O17_3 Mg8 1_555 1_555
O5_2 C6_2 1_555 1_555
C8_3 C10_3 1_555 1_555
C14_3 C16_3 1_555 1_555
C17_3 C18_3 1_555 1_555
C25_2 C26_2 1_555 1_555
Mg9 O11_2 1_555 1_555
H7_2 C12_2 1_555 1_555
O11_2 N1_4 1_555 1_555
N1_4 C2_4 1_555 1_555
C1_4 C2_4 1_555 1_555
C2_4 H2_4 1_555 1_555
C4_4 C1_4 1_555 1_555
C10_4 N1_4 1_555 1_555
H1_4 C1_4 1_555 1_555
H8_4 C10_4 1_555 1_555
H11_4 C17_4 1_555 1_555
H3_4 C8_4 1_555 1_555
O12_2 N2_4 1_555 1_555
N2_4 C15_4 1_555 1_555
C14_4 C15_4 1_555 1_555
C15_4 H10_4 1_555 1_555
C18_4 N2_4 1_555 1_555
H9_4 C14_4 1_555 1_555
H12_4 C18_4 1_555 1_555
Mg5_3 O12_2 1_555 1_555
O16_4 Mg9_2 1_555 1_555
O17_4 Mg9_2 1_555 1_555
C14_4 C16_4 1_555 1_555
O7_3 Mg5 1_555 1_555
O14 C19_3 1_555 1_555
O16 C19_3 1_555 1_555
O17_4 C21_3 1_555 1_555
C19_3 C20_3 1_555 1_555
C20_3 C24_3 1_555 1_555
C21_3 O7_3 1_555 1_555
C22_3 C21_3 1_555 1_555
C23_3 C22_3 1_555 1_555
C24_3 C23_3 1_555 1_555
C25_3 C20_3 1_555 1_555
C26_3 C22_3 1_555 1_555
H13_3 C26_3 1_555 1_555
H14_3 C24_3 1_555 1_555
H15_3 C23_3 1_555 1_555
H16_3 C25_3 1_555 1_555
C25_3 C26_3 1_555 1_555
O13 C3_3 1_555 1_555
H7_3 C12_3 1_555 1_555
O2_3 Mg5_2 1_555 1_555
C5_3 C11_3 1_555 1_555
C6_3 O2_3 1_555 1_555
C7_3 C6_3 1_555 1_555
C9_3 C7_3 1_555 1_555
C11_3 C9_3 1_555 1_555
C13_3 C7_3 1_555 1_555
H5_3 C11_3 1_555 1_555
H6_3 C9_3 1_555 1_555
O17_3 C6_3 1_555 1_555
H7_4 C12_4 1_555 1_555
O2_4 Mg5_3 1_555 1_555
C6_4 O2_4 1_555 1_555
C7_4 C6_4 1_555 1_555
C9_4 C7_4 1_555 1_555
C13_4 C7_4 1_555 1_555
H6_4 C9_4 1_555 1_555
O7_4 Mg5_3 1_555 1_555
O17_2 C21_4 1_555 1_555
C21_4 O7_4 1_555 1_555
C22_4 C21_4 1_555 1_555
C23_4 C22_4 1_555 1_555
C26_4 C22_4 1_555 1_555
H13_4 C26_4 1_555 1_555
H15_4 C23_4 1_555 1_555
H16_4 C25_4 1_555 1_555
O17 C6_4 1_555 1_555
C25_4 C26_4 1_555 1_555
O13_2 C3_4 1_555 1_555
C5_4 C11_4 1_555 1_555
H5_4 C11_4 1_555 1_555
O14_2 C19_4 1_555 1_555
O16_3 C19_4 1_555 1_555
C19_4 C20_4 1_555 1_555
C20_4 C24_4 1_555 1_555
H14_4 C24_4 1_555 1_555

#END
