
###############################################################################
#
# This file contains modified crystal structure data generated from the
# MOF subset of the Cambridge Structural Database (CSD) v543 
# hosted by the Cambridge Crystallographic Data Centre (CCDC).
#
# This work is licensed under the Creative Commons
# Attribution-NonCommercial-ShareAlike 4.0 International License.
# To view a copy of this license, visit
# http://creativecommons.org/licenses/by-nc-sa/4.0/
# or send a letter to
# Creative Commons, PO Box 1866, Mountain View, CA 94042, USA.
#
# CIF created using the CSD Python API on 29 September 2022
# The structure has been converted into the P1 space group
# The structure has a 3D framework
# The original CSD entry EZEQUX is in the monoclinic crystal system
# The framework has been calculated to contain at least 10.0% void space
# The void calculation uses a probe of radius 1.32A, grid spacing 0.4
#
###############################################################################

data_EZEQUX
_chemical_formula_moiety         '(C104 H64 Mg10 N8 O38)n'
_symmetry_cell_setting           triclinic
_symmetry_space_group_name_H-M   'P 1'
_symmetry_Int_Tables_number      1
_space_group_name_Hall           'P 1'
loop_
_symmetry_equiv_pos_site_id
_symmetry_equiv_pos_as_xyz
1 x,y,z
_cell_length_a                   18.1652(13)
_cell_length_b                   17.2466(12)
_cell_length_c                   13.4921(10)
_cell_angle_alpha                90
_cell_angle_beta                 129.4000(10)
_cell_angle_gamma                90
_cell_volume                     3266.28
loop_
_atom_site_label
_atom_site_type_symbol
_atom_site_fract_x
_atom_site_fract_y
_atom_site_fract_z
Mg2 Mg 0.2500 0.2500 0.0000
O5 O 0.23126(12) 0.14687(10) 0.05926(17)
C6 C 0.16612(18) 0.02641(15) 0.0550(3)
C11 C 0.2437(2) 0.00742(18) 0.1789(3)
C13 C 0.0021(2) 0.39055(17) 0.0055(3)
H7 H 0.298(3) 0.041(2) 0.224(4)
Mg5 Mg 0.0000 0.80653(6) 0.2500
O12 O 0.40068(12) 0.22153(10) 0.11062(17)
O15 O 0.26926(12) 0.31091(10) 0.14779(17)
Mg1 Mg 0.0000 0.19347(6) 0.7500
Mg2_2 Mg 0.2500 0.2500 1.0000
O1 O 0.09932(12) 0.27847(10) 0.88938(17)
O2 O 0.08878(12) 0.11102(10) 0.87900(17)
N1 N 0.07298(14) 0.33949(12) 0.9217(2)
C2 C 0.01517(17) 0.46611(15) 0.9831(2)
C3 C 0.16220(18) 0.10074(14) 0.9926(2)
C4 C 0.0593(2) 0.47491(17) 0.9289(3)
C5 C 0.0883(2) 0.41116(16) 0.9002(3)
C12 C 0.0315(2) 0.32834(17) 0.9751(3)
H1 H 0.075(2) 0.5230(18) 0.917(3)
H4 H 0.119(2) 0.4168(17) 0.869(3)
H5 H 0.022(3) 0.276(2) 0.986(3)
H10 H 0.026(2) 0.6190(19) 0.954(3)
O14 O 0.07547(12) 0.19911(10) 0.68685(17)
O16 O 0.23074(12) 0.18909(10) 0.85221(17)
O17 O 0.26874(12) 0.35313(10) 0.94074(17)
O3 O 0.07547(12) 0.80089(10) 0.18685(17)
O4 O 0.23074(12) 0.81091(10) 0.35221(17)
C1 C 0.15659(18) 0.83020(15) 0.2435(2)
C7 C 0.2425(2) 0.94219(18) 0.2376(3)
C8 C 0.16271(18) 0.89534(15) 0.1741(2)
C9 C 0.0856(2) 0.91295(18) 0.0479(3)
H6 H 0.029(3) 0.877(2) 0.008(3)
H8 H 0.301(2) 0.929(2) 0.328(3)
Mg9 Mg 0.2500 0.7500 0.5000
C10 C 0.0877(2) 0.97742(17) 0.9891(3)
H3 H 0.034(3) 0.992(2) 0.903(4)
H2 H 0.974(2) 0.3810(19) 0.046(3)
O6 O 0.90068(12) 0.72153(10) 0.11062(17)
N2 N 0.92702(14) 0.66051(12) 0.0783(2)
C14 C 0.98483(17) 0.53389(15) 0.0169(2)
C15 C 0.9407(2) 0.52509(17) 0.0711(3)
C16 C 0.9117(2) 0.58884(16) 0.0998(3)
C17 C 0.9685(2) 0.67166(17) 0.0249(3)
H9 H 0.925(2) 0.4770(18) 0.083(3)
H11 H 0.881(2) 0.5832(17) 0.131(3)
H12 H 0.978(3) 0.724(2) 0.014(3)
Mg5_2 Mg 1.0000 0.80653(6) 0.2500
Mg8 Mg 0.7500 0.7500 0.0000
Mg1_2 Mg 1.0000 0.19347(6) 0.7500
C18 C 0.9979(2) 0.60945(17) 0.9945(3)
O7 O 0.91122(12) 0.11102(10) 0.62100(17)
O10 O 0.76874(12) 0.14687(10) 0.44074(17)
C20 C 0.83780(18) 0.10074(14) 0.5074(2)
C21 C 0.83388(18) 0.02641(15) 0.4450(3)
C26 C 0.7563(2) 0.00742(18) 0.3211(3)
H15 H 0.702(3) 0.041(2) 0.276(4)
Mg6 Mg 0.7500 0.2500 0.5000
Mg8_2 Mg 0.7500 0.7500 1.0000
O11 O 0.90068(12) 0.27847(10) 0.61062(17)
O13 O 0.92453(12) 0.19911(10) 0.81315(17)
O8 O 0.92453(12) 0.80089(10) 0.31315(17)
O9 O 0.76926(12) 0.81091(10) 0.14779(17)
C19 C 0.84341(18) 0.83020(15) 0.2565(2)
C22 C 0.7575(2) 0.94219(18) 0.2624(3)
C23 C 0.83729(18) 0.89534(15) 0.3259(2)
C24 C 0.9144(2) 0.91295(18) 0.4521(3)
C25 C 0.9123(2) 0.97742(17) 0.5109(3)
H13 H 0.966(3) 0.992(2) 0.597(4)
H14 H 0.971(3) 0.877(2) 0.492(3)
H16 H 0.699(2) 0.929(2) 0.172(3)
H2_2 H 0.026(2) 0.3810(19) 0.454(3)
O6_2 O 0.09932(12) 0.72153(10) 0.38938(17)
N2_2 N 0.07298(14) 0.66051(12) 0.4217(2)
C14_2 C 0.01517(17) 0.53389(15) 0.4831(2)
C15_2 C 0.0593(2) 0.52509(17) 0.4289(3)
C16_2 C 0.0883(2) 0.58884(16) 0.4002(3)
C17_2 C 0.0315(2) 0.67166(17) 0.4751(3)
C18_2 C 0.0021(2) 0.60945(17) 0.5055(3)
H9_2 H 0.075(2) 0.4770(18) 0.417(3)
H11_2 H 0.119(2) 0.5832(17) 0.369(3)
H12_2 H 0.022(3) 0.724(2) 0.486(3)
N1_2 N 0.92702(14) 0.33949(12) 0.5783(2)
C2_2 C 0.98483(17) 0.46611(15) 0.5169(2)
C4_2 C 0.9407(2) 0.47491(17) 0.5711(3)
C5_2 C 0.9117(2) 0.41116(16) 0.5998(3)
C12_2 C 0.9685(2) 0.32834(17) 0.5249(3)
C13_2 C 0.9979(2) 0.39055(17) 0.4945(3)
H1_2 H 0.925(2) 0.5230(18) 0.583(3)
H4_2 H 0.881(2) 0.4168(17) 0.631(3)
H5_2 H 0.978(3) 0.276(2) 0.514(3)
H10_2 H 0.974(2) 0.6190(19) 0.546(3)
O12_2 O 0.59932(12) 0.22153(10) 0.38938(17)
O15_2 O 0.73074(12) 0.31091(10) 0.35221(17)
O16_2 O 0.76926(12) 0.18909(10) 0.64779(17)
O17_2 O 0.73126(12) 0.35313(10) 0.55926(17)
N2_3 N 0.42702(14) 0.16051(12) 0.0783(2)
C14_3 C 0.48483(17) 0.03389(15) 0.0169(2)
C15_3 C 0.4407(2) 0.02509(17) 0.0711(3)
C16_3 C 0.4117(2) 0.08884(16) 0.0998(3)
C17_3 C 0.4685(2) 0.17166(17) 0.0249(3)
H11_3 H 0.381(2) 0.0832(17) 0.131(3)
H12_3 H 0.478(3) 0.224(2) 0.014(3)
Mg5_3 Mg 0.5000 0.30653(6) 0.2500
H1_3 H 0.575(2) 0.0230(18) 0.917(3)
C18_3 C 0.4979(2) 0.10945(17) 0.9945(3)
H10_3 H 0.526(2) 0.1190(19) 0.954(3)
O3_2 O 0.57547(12) 0.30089(10) 0.18685(17)
O5_2 O 0.73126(12) 0.64687(10) 0.05926(17)
C1_2 C 0.65659(18) 0.33020(15) 0.2435(2)
C6_2 C 0.66612(18) 0.52641(15) 0.0550(3)
C7_2 C 0.7425(2) 0.44219(18) 0.2376(3)
C8_2 C 0.66271(18) 0.39534(15) 0.1741(2)
C9_2 C 0.5856(2) 0.41295(18) 0.0479(3)
C11_2 C 0.7437(2) 0.50742(18) 0.1789(3)
C13_3 C 0.5021(2) 0.89055(17) 0.0055(3)
H2_3 H 0.474(2) 0.8810(19) 0.046(3)
H6_2 H 0.529(3) 0.377(2) 0.008(3)
H7_2 H 0.798(3) 0.541(2) 0.224(4)
H8_2 H 0.801(2) 0.429(2) 0.328(3)
H9_3 H 0.425(2) 0.9770(18) 0.083(3)
Mg1_3 Mg 0.5000 0.69347(6) 0.7500
O1_2 O 0.59932(12) 0.77847(10) 0.88938(17)
O2_2 O 0.58878(12) 0.61102(10) 0.87900(17)
N1_3 N 0.57298(14) 0.83949(12) 0.9217(2)
C2_3 C 0.51517(17) 0.96611(15) 0.9831(2)
C3_2 C 0.66220(18) 0.60074(14) 0.9926(2)
C4_3 C 0.5593(2) 0.97491(17) 0.9289(3)
C5_3 C 0.5883(2) 0.91116(16) 0.9002(3)
C10_2 C 0.5877(2) 0.47742(17) 0.9891(3)
C12_3 C 0.5315(2) 0.82834(17) 0.9751(3)
H3_2 H 0.534(3) 0.492(2) 0.903(4)
H4_3 H 0.619(2) 0.9168(17) 0.869(3)
H5_3 H 0.522(3) 0.776(2) 0.986(3)
O7_2 O 0.41122(12) 0.61102(10) 0.62100(17)
O8_2 O 0.42453(12) 0.30089(10) 0.31315(17)
O10_2 O 0.26874(12) 0.64687(10) 0.44074(17)
C19_2 C 0.34341(18) 0.33020(15) 0.2565(2)
C20_2 C 0.33780(18) 0.60074(14) 0.5074(2)
C21_2 C 0.33388(18) 0.52641(15) 0.4450(3)
C22_2 C 0.2575(2) 0.44219(18) 0.2624(3)
C23_2 C 0.33729(18) 0.39534(15) 0.3259(2)
C24_2 C 0.4144(2) 0.41295(18) 0.4521(3)
C25_2 C 0.4123(2) 0.47742(17) 0.5109(3)
C26_2 C 0.2563(2) 0.50742(18) 0.3211(3)
H13_2 H 0.466(3) 0.492(2) 0.597(4)
H14_2 H 0.471(3) 0.377(2) 0.492(3)
H15_2 H 0.202(3) 0.541(2) 0.276(4)
H16_2 H 0.199(2) 0.429(2) 0.172(3)
O11_2 O 0.40068(12) 0.77847(10) 0.61062(17)
O13_2 O 0.42453(12) 0.69911(10) 0.81315(17)
O14_2 O 0.57547(12) 0.69911(10) 0.68685(17)
O16_3 O 0.73074(12) 0.68909(10) 0.85221(17)
O17_3 O 0.76874(12) 0.85313(10) 0.94074(17)
H1_4 H 0.425(2) 0.0230(18) 0.583(3)
N2_4 N 0.57298(14) 0.16051(12) 0.4217(2)
C14_4 C 0.51517(17) 0.03389(15) 0.4831(2)
C15_4 C 0.5593(2) 0.02509(17) 0.4289(3)
C16_4 C 0.5883(2) 0.08884(16) 0.4002(3)
C17_4 C 0.5315(2) 0.17166(17) 0.4751(3)
C18_4 C 0.5021(2) 0.10945(17) 0.5055(3)
H10_4 H 0.474(2) 0.1190(19) 0.546(3)
H11_4 H 0.619(2) 0.0832(17) 0.369(3)
H12_4 H 0.522(3) 0.224(2) 0.486(3)
N1_4 N 0.42702(14) 0.83949(12) 0.5783(2)
C2_4 C 0.48483(17) 0.96611(15) 0.5169(2)
C4_4 C 0.4407(2) 0.97491(17) 0.5711(3)
C5_4 C 0.4117(2) 0.91116(16) 0.5998(3)
C12_4 C 0.4685(2) 0.82834(17) 0.5249(3)
C13_4 C 0.4979(2) 0.89055(17) 0.4945(3)
H2_4 H 0.526(2) 0.8810(19) 0.454(3)
H4_4 H 0.381(2) 0.9168(17) 0.631(3)
H5_4 H 0.478(3) 0.776(2) 0.514(3)
H9_4 H 0.575(2) 0.9770(18) 0.417(3)
O16_4 O 0.26926(12) 0.68909(10) 0.64779(17)
O17_4 O 0.23126(12) 0.85313(10) 0.55926(17)
C19_3 C 0.15659(18) 0.16980(15) 0.7435(2)
C22_3 C 0.2425(2) 0.05781(18) 0.7376(3)
C23_3 C 0.16271(18) 0.10466(15) 0.6741(2)
C24_3 C 0.0856(2) 0.08705(18) 0.5479(3)
C25_3 C 0.0877(2) 0.02258(17) 0.4891(3)
H13_3 H 0.034(3) 0.008(2) 0.403(4)
H14_3 H 0.029(3) 0.123(2) 0.508(3)
H16_3 H 0.301(2) 0.071(2) 0.828(3)
O7_3 O 0.08878(12) 0.88898(10) 0.37900(17)
C20_3 C 0.16220(18) 0.89926(14) 0.4926(2)
C21_3 C 0.16612(18) 0.97359(15) 0.5550(3)
C26_3 C 0.2437(2) 0.99258(18) 0.6789(3)
H15_3 H 0.298(3) 0.959(2) 0.724(4)
C10_3 C 0.9123(2) 0.02258(17) 0.0109(3)
H3_3 H 0.966(3) 0.008(2) 0.097(4)
C1_3 C 0.84341(18) 0.16980(15) 0.7565(2)
C7_3 C 0.7575(2) 0.05781(18) 0.7624(3)
C8_3 C 0.83729(18) 0.10466(15) 0.8259(2)
C9_3 C 0.9144(2) 0.08705(18) 0.9521(3)
H6_3 H 0.971(3) 0.123(2) 0.992(3)
H8_3 H 0.699(2) 0.071(2) 0.672(3)
O2_3 O 0.91122(12) 0.88898(10) 0.12100(17)
C3_3 C 0.83780(18) 0.89926(14) 0.0074(2)
C6_3 C 0.83388(18) 0.97359(15) 0.9450(3)
C11_3 C 0.7563(2) 0.99258(18) 0.8211(3)
H7_3 H 0.702(3) 0.959(2) 0.776(4)
O2_4 O 0.41122(12) 0.38898(10) 0.12100(17)
C3_4 C 0.33780(18) 0.39926(14) 0.0074(2)
C10_4 C 0.4123(2) 0.52258(17) 0.0109(3)
H3_4 H 0.466(3) 0.508(2) 0.097(4)
O7_4 O 0.58878(12) 0.38898(10) 0.37900(17)
C19_4 C 0.65659(18) 0.66980(15) 0.7435(2)
C20_4 C 0.66220(18) 0.39926(14) 0.4926(2)
C21_4 C 0.66612(18) 0.47359(15) 0.5550(3)
C22_4 C 0.7425(2) 0.55781(18) 0.7376(3)
C23_4 C 0.66271(18) 0.60466(15) 0.6741(2)
C24_4 C 0.5856(2) 0.58705(18) 0.5479(3)
C25_4 C 0.5877(2) 0.52258(17) 0.4891(3)
C26_4 C 0.7437(2) 0.49258(18) 0.6789(3)
H13_4 H 0.534(3) 0.508(2) 0.403(4)
H14_4 H 0.529(3) 0.623(2) 0.508(3)
H15_4 H 0.798(3) 0.459(2) 0.724(4)
H16_4 H 0.801(2) 0.571(2) 0.828(3)
C1_4 C 0.34341(18) 0.66980(15) 0.7565(2)
C6_4 C 0.33388(18) 0.47359(15) 0.9450(3)
C7_4 C 0.2575(2) 0.55781(18) 0.7624(3)
C8_4 C 0.33729(18) 0.60466(15) 0.8259(2)
C9_4 C 0.4144(2) 0.58705(18) 0.9521(3)
C11_4 C 0.2563(2) 0.49258(18) 0.8211(3)
H6_4 H 0.471(3) 0.623(2) 0.992(3)
H7_4 H 0.202(3) 0.459(2) 0.776(4)
H8_4 H 0.199(2) 0.571(2) 0.672(3)
loop_
_geom_bond_atom_site_label_1
_geom_bond_atom_site_label_2
_geom_bond_site_symmetry_1
_geom_bond_site_symmetry_2
O5 Mg2 1_555 1_555
C11 C6 1_555 1_555
H7 C11 1_555 1_555
O12 Mg2 1_555 1_555
O15 Mg2 1_555 1_555
Mg1 O1 1_555 1_555
Mg2_2 O1 1_555 1_555
O1 N1 1_555 1_555
O2 Mg1 1_555 1_555
N1 C5 1_555 1_555
C2 C4 1_555 1_555
C3 O2 1_555 1_555
C4 C5 1_555 1_555
C5 H4 1_555 1_555
C12 N1 1_555 1_555
H1 C4 1_555 1_555
H5 C12 1_555 1_555
O14 Mg1 1_555 1_555
O16 Mg2_2 1_555 1_555
O17 Mg2_2 1_555 1_555
O3 C1 1_555 1_555
O4 C1 1_555 1_555
C1 C8 1_555 1_555
C7 C8 1_555 1_555
C8 C9 1_555 1_555
H6 C9 1_555 1_555
H8 C7 1_555 1_555
Mg5 O3 1_555 1_555
Mg9 O4 1_555 1_555
H3 C10 1_555 1_555
O6 N2 1_555 1_555
N2 C16 1_555 1_555
C15 C14 1_555 1_555
C16 C15 1_555 1_555
C17 N2 1_555 1_555
H9 C15 1_555 1_555
H11 C16 1_555 1_555
H12 C17 1_555 1_555
Mg5_2 O6 1_555 1_555
Mg8 O6 1_555 1_555
O7 Mg1_2 1_555 1_555
O10 C20 1_555 1_555
C20 O7 1_555 1_555
C21 C20 1_555 1_555
C26 C21 1_555 1_555
H15 C26 1_555 1_555
Mg6 O10 1_555 1_555
O11 Mg1_2 1_555 1_555
O13 Mg1_2 1_555 1_555
Mg6 O11 1_555 1_555
O8 C19 1_555 1_555
O9 C19 1_555 1_555
C19 C23 1_555 1_555
C22 C23 1_555 1_555
C23 C24 1_555 1_555
C24 C25 1_555 1_555
H13 C25 1_555 1_555
H14 C24 1_555 1_555
H16 C22 1_555 1_555
Mg5_2 O8 1_555 1_555
Mg8 O9 1_555 1_555
O6_2 N2_2 1_555 1_555
N2_2 C16_2 1_555 1_555
C15_2 C14_2 1_555 1_555
C16_2 C15_2 1_555 1_555
C17_2 N2_2 1_555 1_555
C18_2 C14_2 1_555 1_555
H9_2 C15_2 1_555 1_555
H11_2 C16_2 1_555 1_555
H12_2 C17_2 1_555 1_555
Mg5 O6_2 1_555 1_555
Mg9 O6_2 1_555 1_555
C17_2 C18_2 1_555 1_555
O11 N1_2 1_555 1_555
N1_2 C5_2 1_555 1_555
C2_2 C4_2 1_555 1_555
C4_2 C5_2 1_555 1_555
C5_2 H4_2 1_555 1_555
C12_2 N1_2 1_555 1_555
C13_2 C2_2 1_555 1_555
H1_2 C4_2 1_555 1_555
H5_2 C12_2 1_555 1_555
O12_2 Mg6 1_555 1_555
O15_2 Mg6 1_555 1_555
O16_2 Mg6 1_555 1_555
O17_2 Mg6 1_555 1_555
C12_2 C13_2 1_555 1_555
O12 N2_3 1_555 1_555
N2_3 C16_3 1_555 1_555
C15_3 C14_3 1_555 1_555
C16_3 C15_3 1_555 1_555
C17_3 N2_3 1_555 1_555
H11_3 C16_3 1_555 1_555
H12_3 C17_3 1_555 1_555
Mg5_3 O12 1_555 1_555
H10_3 C18_3 1_555 1_555
O3_2 C1_2 1_555 1_555
O15_2 C1_2 1_555 1_555
O5_2 Mg8 1_555 1_555
C1_2 C8_2 1_555 1_555
C7_2 C8_2 1_555 1_555
C8_2 C9_2 1_555 1_555
C11_2 C6_2 1_555 1_555
H2_3 C13_3 1_555 1_555
H6_2 C9_2 1_555 1_555
H7_2 C11_2 1_555 1_555
H8_2 C7_2 1_555 1_555
Mg5_3 O3_2 1_555 1_555
C7_2 C11_2 1_555 1_555
Mg1_3 O1_2 1_555 1_555
Mg8_2 O1_2 1_555 1_555
O1_2 N1_3 1_555 1_555
O2_2 Mg1_3 1_555 1_555
N1_3 C5_3 1_555 1_555
C2_3 C4_3 1_555 1_555
C3_2 O2_2 1_555 1_555
C4_3 C5_3 1_555 1_555
C5_3 H4_3 1_555 1_555
C12_3 N1_3 1_555 1_555
H3_2 C10_2 1_555 1_555
H5_3 C12_3 1_555 1_555
O7_2 Mg1_3 1_555 1_555
O8_2 C19_2 1_555 1_555
O15 C19_2 1_555 1_555
O10_2 C20_2 1_555 1_555
C19_2 C23_2 1_555 1_555
C20_2 O7_2 1_555 1_555
C21_2 C20_2 1_555 1_555
C22_2 C23_2 1_555 1_555
C23_2 C24_2 1_555 1_555
C24_2 C25_2 1_555 1_555
C25_2 C21_2 1_555 1_555
C26_2 C21_2 1_555 1_555
H13_2 C25_2 1_555 1_555
H14_2 C24_2 1_555 1_555
H15_2 C26_2 1_555 1_555
H16_2 C22_2 1_555 1_555
Mg5_3 O8_2 1_555 1_555
Mg9 O10_2 1_555 1_555
O11_2 Mg1_3 1_555 1_555
O13_2 Mg1_3 1_555 1_555
O14_2 Mg1_3 1_555 1_555
O16_3 Mg8_2 1_555 1_555
O17_3 Mg8_2 1_555 1_555
C22_2 C26_2 1_555 1_555
Mg9 O11_2 1_555 1_555
O12_2 N2_4 1_555 1_555
N2_4 C16_4 1_555 1_555
C15_4 C14_4 1_555 1_555
C16_4 C15_4 1_555 1_555
C17_4 N2_4 1_555 1_555
C18_4 C14_4 1_555 1_555
H10_4 C18_4 1_555 1_555
H11_4 C16_4 1_555 1_555
H12_4 C17_4 1_555 1_555
Mg5_3 O12_2 1_555 1_555
C17_4 C18_4 1_555 1_555
O11_2 N1_4 1_555 1_555
N1_4 C5_4 1_555 1_555
C2_4 C4_4 1_555 1_555
C4_4 C5_4 1_555 1_555
C5_4 H4_4 1_555 1_555
C12_4 N1_4 1_555 1_555
C13_4 C2_4 1_555 1_555
H2_4 C13_4 1_555 1_555
H5_4 C12_4 1_555 1_555
O16_4 Mg9 1_555 1_555
O17_4 Mg9 1_555 1_555
C12_4 C13_4 1_555 1_555
O14 C19_3 1_555 1_555
O16 C19_3 1_555 1_555
C19_3 C23_3 1_555 1_555
C22_3 C23_3 1_555 1_555
C23_3 C24_3 1_555 1_555
C24_3 C25_3 1_555 1_555
H13_3 C25_3 1_555 1_555
H14_3 C24_3 1_555 1_555
H16_3 C22_3 1_555 1_555
O7_3 Mg5 1_555 1_555
O17_4 C20_3 1_555 1_555
C20_3 O7_3 1_555 1_555
C21_3 C20_3 1_555 1_555
C26_3 C21_3 1_555 1_555
H15_3 C26_3 1_555 1_555
H3_3 C10_3 1_555 1_555
O13 C1_3 1_555 1_555
O16_2 C1_3 1_555 1_555
C1_3 C8_3 1_555 1_555
C7_3 C8_3 1_555 1_555
C8_3 C9_3 1_555 1_555
H6_3 C9_3 1_555 1_555
H8_3 C7_3 1_555 1_555
O2_3 Mg5_2 1_555 1_555
C3_3 O2_3 1_555 1_555
C11_3 C6_3 1_555 1_555
H7_3 C11_3 1_555 1_555
O2_4 Mg5_3 1_555 1_555
C3_4 O2_4 1_555 1_555
H3_4 C10_4 1_555 1_555
O7_4 Mg5_3 1_555 1_555
O14_2 C19_4 1_555 1_555
O16_3 C19_4 1_555 1_555
O17_2 C20_4 1_555 1_555
C19_4 C23_4 1_555 1_555
C20_4 O7_4 1_555 1_555
C21_4 C20_4 1_555 1_555
C22_4 C23_4 1_555 1_555
C23_4 C24_4 1_555 1_555
C24_4 C25_4 1_555 1_555
C25_4 C21_4 1_555 1_555
C26_4 C21_4 1_555 1_555
H13_4 C25_4 1_555 1_555
H14_4 C24_4 1_555 1_555
H15_4 C26_4 1_555 1_555
H16_4 C22_4 1_555 1_555
C22_4 C26_4 1_555 1_555
O13_2 C1_4 1_555 1_555
O16_4 C1_4 1_555 1_555
C1_4 C8_4 1_555 1_555
C7_4 C8_4 1_555 1_555
C8_4 C9_4 1_555 1_555
C11_4 C6_4 1_555 1_555
H6_4 C9_4 1_555 1_555
H7_4 C11_4 1_555 1_555
H8_4 C7_4 1_555 1_555
C7_4 C11_4 1_555 1_555

#END
