
###############################################################################
#
# This file contains modified crystal structure data generated from the
# MOF subset of the Cambridge Structural Database (CSD) v543 
# hosted by the Cambridge Crystallographic Data Centre (CCDC).
#
# This work is licensed under the Creative Commons
# Attribution-NonCommercial-ShareAlike 4.0 International License.
# To view a copy of this license, visit
# http://creativecommons.org/licenses/by-nc-sa/4.0/
# or send a letter to
# Creative Commons, PO Box 1866, Mountain View, CA 94042, USA.
#
# CIF created using the CSD Python API on 29 September 2022
# The structure has been converted into the P1 space group
# The structure has a 3D framework
# The original CSD entry EZEQOR is in the monoclinic crystal system
# The framework has been calculated to contain at least 10.0% void space
# The void calculation uses a probe of radius 1.32A, grid spacing 0.4
#
###############################################################################

data_EZEQOR
_chemical_formula_moiety         '(C104 H64 Mg10 N8 O38)n'
_symmetry_cell_setting           triclinic
_symmetry_space_group_name_H-M   'P 1'
_symmetry_Int_Tables_number      1
_space_group_name_Hall           'P 1'
loop_
_symmetry_equiv_pos_site_id
_symmetry_equiv_pos_as_xyz
1 x,y,z
_cell_length_a                   18.3066(19)
_cell_length_b                   16.9790(18)
_cell_length_c                   13.8035(15)
_cell_angle_alpha                90
_cell_angle_beta                 130.1340(10)
_cell_angle_gamma                90
_cell_volume                     3280.26
loop_
_atom_site_label
_atom_site_type_symbol
_atom_site_fract_x
_atom_site_fract_y
_atom_site_fract_z
Mg2 Mg 0.2500 0.2500 0.0000
O5 O 0.23134(13) 0.14610(10) 0.05769(17)
C3 C 0.16627(19) 0.02518(16) 0.0564(3)
C10 C 0.2431(2) 0.0083(2) 0.1801(3)
C13 C 0.0040(2) 0.38929(18) 0.0045(3)
H6 H 0.292(3) 0.041(2) 0.224(4)
Mg5 Mg 0.0000 0.80819(7) 0.2500
O12 O 0.40067(13) 0.22134(11) 0.11167(18)
O13 O 0.26835(13) 0.31227(11) 0.14363(17)
Mg1 Mg 0.0000 0.19181(7) 0.7500
Mg2_2 Mg 0.2500 0.2500 1.0000
O1 O 0.09933(13) 0.27866(11) 0.88833(18)
O2 O 0.08858(13) 0.10834(10) 0.87882(18)
N1 N 0.07295(15) 0.33959(13) 0.9207(2)
C2 C 0.16165(18) 0.09893(15) 0.9917(3)
C4 C 0.01488(18) 0.46603(16) 0.9826(3)
C5 C 0.0870(2) 0.41297(17) 0.9007(3)
C6 C 0.0581(2) 0.47663(18) 0.9297(3)
C12 C 0.0336(2) 0.32680(18) 0.9744(3)
H1 H 0.117(2) 0.4170(17) 0.868(3)
H3 H 0.019(3) 0.272(2) 0.979(4)
H5 H 0.072(3) 0.528(2) 0.919(4)
H12 H 0.023(3) 0.623(2) 0.953(4)
O14 O 0.23165(13) 0.18773(11) 0.85637(17)
O16 O 0.07581(13) 0.19891(11) 0.69096(18)
O17 O 0.26866(13) 0.35390(10) 0.94231(17)
O3 O 0.23165(13) 0.81227(11) 0.35637(17)
O4 O 0.07581(13) 0.80109(11) 0.19096(18)
C1 C 0.15746(19) 0.83089(15) 0.2475(3)
C7 C 0.16313(19) 0.89530(16) 0.1782(3)
C8 C 0.0862(2) 0.91135(19) 0.0525(3)
C9 C 0.2426(2) 0.9435(2) 0.2403(3)
H4 H 0.026(3) 0.877(2) 0.008(3)
H8 H 0.300(3) 0.934(2) 0.330(4)
Mg9 Mg 0.2500 0.7500 0.5000
C11 C 0.0877(2) 0.97512(19) 0.9917(3)
H2 H 0.028(3) 0.988(2) 0.898(4)
H7 H 0.977(3) 0.377(2) 0.047(4)
O6 O 0.90067(13) 0.72134(11) 0.11167(18)
N2 N 0.92705(15) 0.66041(13) 0.0793(2)
C14 C 0.98512(18) 0.53397(16) 0.0174(3)
C15 C 0.9130(2) 0.58703(17) 0.0993(3)
C16 C 0.9419(2) 0.52337(18) 0.0703(3)
C17 C 0.9664(2) 0.67320(18) 0.0256(3)
H9 H 0.883(2) 0.5830(17) 0.132(3)
H10 H 0.981(3) 0.728(2) 0.021(4)
H11 H 0.928(3) 0.472(2) 0.081(4)
Mg5_2 Mg 1.0000 0.80819(7) 0.2500
Mg8 Mg 0.7500 0.7500 0.0000
Mg1_2 Mg 1.0000 0.19181(7) 0.7500
C18 C 0.9960(2) 0.61071(18) 0.9955(3)
O7 O 0.91142(13) 0.10834(10) 0.62118(18)
O10 O 0.76866(13) 0.14610(10) 0.44231(17)
C20 C 0.83835(18) 0.09893(15) 0.5083(3)
C21 C 0.83373(19) 0.02518(16) 0.4436(3)
C25 C 0.7569(2) 0.0083(2) 0.3199(3)
H15 H 0.708(3) 0.041(2) 0.276(4)
Mg6 Mg 0.7500 0.2500 0.5000
Mg8_2 Mg 0.7500 0.7500 1.0000
O11 O 0.90067(13) 0.27866(11) 0.61167(18)
O15 O 0.92419(13) 0.19891(11) 0.80904(18)
O8 O 0.76835(13) 0.81227(11) 0.14363(17)
O9 O 0.92419(13) 0.80109(11) 0.30904(18)
C19 C 0.84254(19) 0.83089(15) 0.2525(3)
C22 C 0.83687(19) 0.89530(16) 0.3218(3)
C23 C 0.9138(2) 0.91135(19) 0.4475(3)
C24 C 0.7574(2) 0.9435(2) 0.2597(3)
C26 C 0.9123(2) 0.97512(19) 0.5083(3)
H13 H 0.972(3) 0.988(2) 0.602(4)
H14 H 0.974(3) 0.877(2) 0.492(3)
H16 H 0.700(3) 0.934(2) 0.170(4)
H7_2 H 0.023(3) 0.377(2) 0.453(4)
O6_2 O 0.09933(13) 0.72134(11) 0.38833(18)
N2_2 N 0.07295(15) 0.66041(13) 0.4207(2)
C14_2 C 0.01488(18) 0.53397(16) 0.4826(3)
C15_2 C 0.0870(2) 0.58703(17) 0.4007(3)
C16_2 C 0.0581(2) 0.52337(18) 0.4297(3)
C17_2 C 0.0336(2) 0.67320(18) 0.4744(3)
C18_2 C 0.0040(2) 0.61071(18) 0.5045(3)
H9_2 H 0.117(2) 0.5830(17) 0.368(3)
H10_2 H 0.019(3) 0.728(2) 0.479(4)
H11_2 H 0.072(3) 0.472(2) 0.419(4)
N1_2 N 0.92705(15) 0.33959(13) 0.5793(2)
C4_2 C 0.98512(18) 0.46603(16) 0.5174(3)
C5_2 C 0.9130(2) 0.41297(17) 0.5993(3)
C6_2 C 0.9419(2) 0.47663(18) 0.5703(3)
C12_2 C 0.9664(2) 0.32680(18) 0.5256(3)
C13_2 C 0.9960(2) 0.38929(18) 0.4955(3)
H1_2 H 0.883(2) 0.4170(17) 0.632(3)
H3_2 H 0.981(3) 0.272(2) 0.521(4)
H5_2 H 0.928(3) 0.528(2) 0.581(4)
H12_2 H 0.977(3) 0.623(2) 0.547(4)
O12_2 O 0.59933(13) 0.22134(11) 0.38833(18)
O13_2 O 0.73165(13) 0.31227(11) 0.35637(17)
O14_2 O 0.76835(13) 0.18773(11) 0.64363(17)
O17_2 O 0.73134(13) 0.35390(10) 0.55769(17)
N2_3 N 0.42705(15) 0.16041(13) 0.0793(2)
C14_3 C 0.48512(18) 0.03397(16) 0.0174(3)
C15_3 C 0.4130(2) 0.08703(17) 0.0993(3)
C16_3 C 0.4419(2) 0.02337(18) 0.0703(3)
C17_3 C 0.4664(2) 0.17320(18) 0.0256(3)
H9_3 H 0.383(2) 0.0830(17) 0.132(3)
H10_3 H 0.481(3) 0.228(2) 0.021(4)
Mg5_3 Mg 0.5000 0.30819(7) 0.2500
H5_3 H 0.572(3) 0.028(2) 0.919(4)
C18_3 C 0.4960(2) 0.11071(18) 0.9955(3)
H12_3 H 0.523(3) 0.123(2) 0.953(4)
O4_2 O 0.57581(13) 0.30109(11) 0.19096(18)
O5_2 O 0.73134(13) 0.64610(10) 0.05769(17)
C1_2 C 0.65746(19) 0.33089(15) 0.2475(3)
C3_2 C 0.66627(19) 0.52518(16) 0.0564(3)
C7_2 C 0.66313(19) 0.39530(16) 0.1782(3)
C8_2 C 0.5862(2) 0.41135(19) 0.0525(3)
C9_2 C 0.7426(2) 0.4435(2) 0.2403(3)
C10_2 C 0.7431(2) 0.5083(2) 0.1801(3)
C13_3 C 0.5040(2) 0.88929(18) 0.0045(3)
H4_2 H 0.526(3) 0.377(2) 0.008(3)
H6_2 H 0.792(3) 0.541(2) 0.224(4)
H7_3 H 0.477(3) 0.877(2) 0.047(4)
H8_2 H 0.800(3) 0.434(2) 0.330(4)
H11_3 H 0.428(3) 0.972(2) 0.081(4)
Mg1_3 Mg 0.5000 0.69181(7) 0.7500
O1_2 O 0.59933(13) 0.77866(11) 0.88833(18)
O2_2 O 0.58858(13) 0.60834(10) 0.87882(18)
N1_3 N 0.57295(15) 0.83959(13) 0.9207(2)
C2_2 C 0.66165(18) 0.59893(15) 0.9917(3)
C4_3 C 0.51488(18) 0.96603(16) 0.9826(3)
C5_3 C 0.5870(2) 0.91297(17) 0.9007(3)
C6_3 C 0.5581(2) 0.97663(18) 0.9297(3)
C11_2 C 0.5877(2) 0.47512(19) 0.9917(3)
C12_3 C 0.5336(2) 0.82680(18) 0.9744(3)
H1_3 H 0.617(2) 0.9170(17) 0.868(3)
H2_2 H 0.528(3) 0.488(2) 0.898(4)
H3_3 H 0.519(3) 0.772(2) 0.979(4)
O7_2 O 0.41142(13) 0.60834(10) 0.62118(18)
O9_2 O 0.42419(13) 0.30109(11) 0.30904(18)
O10_2 O 0.26866(13) 0.64610(10) 0.44231(17)
C19_2 C 0.34254(19) 0.33089(15) 0.2525(3)
C20_2 C 0.33835(18) 0.59893(15) 0.5083(3)
C21_2 C 0.33373(19) 0.52518(16) 0.4436(3)
C22_2 C 0.33687(19) 0.39530(16) 0.3218(3)
C23_2 C 0.4138(2) 0.41135(19) 0.4475(3)
C24_2 C 0.2574(2) 0.4435(2) 0.2597(3)
C25_2 C 0.2569(2) 0.5083(2) 0.3199(3)
C26_2 C 0.4123(2) 0.47512(19) 0.5083(3)
H13_2 H 0.472(3) 0.488(2) 0.602(4)
H14_2 H 0.474(3) 0.377(2) 0.492(3)
H15_2 H 0.208(3) 0.541(2) 0.276(4)
H16_2 H 0.200(3) 0.434(2) 0.170(4)
O11_2 O 0.40067(13) 0.77866(11) 0.61167(18)
O14_3 O 0.73165(13) 0.68773(11) 0.85637(17)
O15_2 O 0.42419(13) 0.69891(11) 0.80904(18)
O16_2 O 0.57581(13) 0.69891(11) 0.69096(18)
O17_3 O 0.76866(13) 0.85390(10) 0.94231(17)
H5_4 H 0.428(3) 0.028(2) 0.581(4)
N2_4 N 0.57295(15) 0.16041(13) 0.4207(2)
C14_4 C 0.51488(18) 0.03397(16) 0.4826(3)
C15_4 C 0.5870(2) 0.08703(17) 0.4007(3)
C16_4 C 0.5581(2) 0.02337(18) 0.4297(3)
C17_4 C 0.5336(2) 0.17320(18) 0.4744(3)
C18_4 C 0.5040(2) 0.11071(18) 0.5045(3)
H9_4 H 0.617(2) 0.0830(17) 0.368(3)
H10_4 H 0.519(3) 0.228(2) 0.479(4)
H12_4 H 0.477(3) 0.123(2) 0.547(4)
N1_4 N 0.42705(15) 0.83959(13) 0.5793(2)
C4_4 C 0.48512(18) 0.96603(16) 0.5174(3)
C5_4 C 0.4130(2) 0.91297(17) 0.5993(3)
C6_4 C 0.4419(2) 0.97663(18) 0.5703(3)
C12_4 C 0.4664(2) 0.82680(18) 0.5256(3)
C13_4 C 0.4960(2) 0.88929(18) 0.4955(3)
H1_4 H 0.383(2) 0.9170(17) 0.632(3)
H3_4 H 0.481(3) 0.772(2) 0.521(4)
H7_4 H 0.523(3) 0.877(2) 0.453(4)
H11_4 H 0.572(3) 0.972(2) 0.419(4)
O14_4 O 0.26835(13) 0.68773(11) 0.64363(17)
O17_4 O 0.23134(13) 0.85390(10) 0.55769(17)
C19_3 C 0.15746(19) 0.16911(15) 0.7475(3)
C22_3 C 0.16313(19) 0.10470(16) 0.6782(3)
C23_3 C 0.0862(2) 0.08865(19) 0.5525(3)
C24_3 C 0.2426(2) 0.0565(2) 0.7403(3)
C26_3 C 0.0877(2) 0.02488(19) 0.4917(3)
H13_3 H 0.028(3) 0.012(2) 0.398(4)
H14_3 H 0.026(3) 0.123(2) 0.508(3)
H16_3 H 0.300(3) 0.066(2) 0.830(4)
O7_3 O 0.08858(13) 0.89166(10) 0.37882(18)
C20_3 C 0.16165(18) 0.90107(15) 0.4917(3)
C21_3 C 0.16627(19) 0.97482(16) 0.5564(3)
C25_3 C 0.2431(2) 0.9917(2) 0.6801(3)
H15_3 H 0.292(3) 0.959(2) 0.724(4)
C11_3 C 0.9123(2) 0.02488(19) 0.0083(3)
H2_3 H 0.972(3) 0.012(2) 0.102(4)
C1_3 C 0.84254(19) 0.16911(15) 0.7525(3)
C7_3 C 0.83687(19) 0.10470(16) 0.8218(3)
C8_3 C 0.9138(2) 0.08865(19) 0.9475(3)
C9_3 C 0.7574(2) 0.0565(2) 0.7597(3)
H4_3 H 0.974(3) 0.123(2) 0.992(3)
H8_3 H 0.700(3) 0.066(2) 0.670(4)
O2_3 O 0.91142(13) 0.89166(10) 0.12118(18)
C2_3 C 0.83835(18) 0.90107(15) 0.0083(3)
C3_3 C 0.83373(19) 0.97482(16) 0.9436(3)
C10_3 C 0.7569(2) 0.9917(2) 0.8199(3)
H6_3 H 0.708(3) 0.959(2) 0.776(4)
O2_4 O 0.41142(13) 0.39166(10) 0.12118(18)
C2_4 C 0.33835(18) 0.40107(15) 0.0083(3)
C11_4 C 0.4123(2) 0.52488(19) 0.0083(3)
H2_4 H 0.472(3) 0.512(2) 0.102(4)
O7_4 O 0.58858(13) 0.39166(10) 0.37882(18)
C19_4 C 0.65746(19) 0.66911(15) 0.7475(3)
C20_4 C 0.66165(18) 0.40107(15) 0.4917(3)
C21_4 C 0.66627(19) 0.47482(16) 0.5564(3)
C22_4 C 0.66313(19) 0.60470(16) 0.6782(3)
C23_4 C 0.5862(2) 0.58865(19) 0.5525(3)
C24_4 C 0.7426(2) 0.5565(2) 0.7403(3)
C25_4 C 0.7431(2) 0.4917(2) 0.6801(3)
C26_4 C 0.5877(2) 0.52488(19) 0.4917(3)
H13_4 H 0.528(3) 0.512(2) 0.398(4)
H14_4 H 0.526(3) 0.623(2) 0.508(3)
H15_4 H 0.792(3) 0.459(2) 0.724(4)
H16_4 H 0.800(3) 0.566(2) 0.830(4)
C1_4 C 0.34254(19) 0.66911(15) 0.7525(3)
C3_4 C 0.33373(19) 0.47482(16) 0.9436(3)
C7_4 C 0.33687(19) 0.60470(16) 0.8218(3)
C8_4 C 0.4138(2) 0.58865(19) 0.9475(3)
C9_4 C 0.2574(2) 0.5565(2) 0.7597(3)
C10_4 C 0.2569(2) 0.4917(2) 0.8199(3)
H4_4 H 0.474(3) 0.623(2) 0.992(3)
H6_4 H 0.208(3) 0.459(2) 0.776(4)
H8_4 H 0.200(3) 0.566(2) 0.670(4)
loop_
_geom_bond_atom_site_label_1
_geom_bond_atom_site_label_2
_geom_bond_site_symmetry_1
_geom_bond_site_symmetry_2
O5 Mg2 1_555 1_555
C10 C3 1_555 1_555
H6 C10 1_555 1_555
O12 Mg2 1_555 1_555
O13 Mg2 1_555 1_555
Mg1 O1 1_555 1_555
Mg2_2 O1 1_555 1_555
O1 N1 1_555 1_555
O2 Mg1 1_555 1_555
N1 C5 1_555 1_555
C2 O2 1_555 1_555
C4 C6 1_555 1_555
C5 C6 1_555 1_555
C6 H5 1_555 1_555
C12 N1 1_555 1_555
H1 C5 1_555 1_555
H3 C12 1_555 1_555
O14 Mg2_2 1_555 1_555
O16 Mg1 1_555 1_555
O17 Mg2_2 1_555 1_555
O3 C1 1_555 1_555
O4 C1 1_555 1_555
C1 C7 1_555 1_555
C7 C8 1_555 1_555
C9 C7 1_555 1_555
H4 C8 1_555 1_555
H8 C9 1_555 1_555
Mg5 O4 1_555 1_555
Mg9 O3 1_555 1_555
H2 C11 1_555 1_555
O6 N2 1_555 1_555
N2 C15 1_555 1_555
C15 C16 1_555 1_555
C16 C14 1_555 1_555
C17 N2 1_555 1_555
H9 C15 1_555 1_555
H10 C17 1_555 1_555
H11 C16 1_555 1_555
Mg5_2 O6 1_555 1_555
Mg8 O6 1_555 1_555
O7 Mg1_2 1_555 1_555
O10 C20 1_555 1_555
C20 O7 1_555 1_555
C21 C20 1_555 1_555
C25 C21 1_555 1_555
H15 C25 1_555 1_555
Mg6 O10 1_555 1_555
O11 Mg1_2 1_555 1_555
O15 Mg1_2 1_555 1_555
Mg6 O11 1_555 1_555
O8 C19 1_555 1_555
O9 C19 1_555 1_555
C19 C22 1_555 1_555
C22 C23 1_555 1_555
C23 C26 1_555 1_555
C24 C22 1_555 1_555
H13 C26 1_555 1_555
H14 C23 1_555 1_555
H16 C24 1_555 1_555
Mg5_2 O9 1_555 1_555
Mg8 O8 1_555 1_555
O6_2 N2_2 1_555 1_555
N2_2 C15_2 1_555 1_555
C15_2 C16_2 1_555 1_555
C16_2 C14_2 1_555 1_555
C17_2 N2_2 1_555 1_555
C18_2 C14_2 1_555 1_555
H9_2 C15_2 1_555 1_555
H10_2 C17_2 1_555 1_555
H11_2 C16_2 1_555 1_555
Mg5 O6_2 1_555 1_555
Mg9 O6_2 1_555 1_555
C17_2 C18_2 1_555 1_555
O11 N1_2 1_555 1_555
N1_2 C5_2 1_555 1_555
C4_2 C6_2 1_555 1_555
C5_2 C6_2 1_555 1_555
C6_2 H5_2 1_555 1_555
C12_2 N1_2 1_555 1_555
C13_2 C4_2 1_555 1_555
H1_2 C5_2 1_555 1_555
H3_2 C12_2 1_555 1_555
O12_2 Mg6 1_555 1_555
O13_2 Mg6 1_555 1_555
O14_2 Mg6 1_555 1_555
O17_2 Mg6 1_555 1_555
C12_2 C13_2 1_555 1_555
O12 N2_3 1_555 1_555
N2_3 C15_3 1_555 1_555
C15_3 C16_3 1_555 1_555
C16_3 C14_3 1_555 1_555
C17_3 N2_3 1_555 1_555
H9_3 C15_3 1_555 1_555
H10_3 C17_3 1_555 1_555
Mg5_3 O12 1_555 1_555
H12_3 C18_3 1_555 1_555
O13_2 C1_2 1_555 1_555
O4_2 C1_2 1_555 1_555
O5_2 Mg8 1_555 1_555
C1_2 C7_2 1_555 1_555
C7_2 C8_2 1_555 1_555
C9_2 C7_2 1_555 1_555
C10_2 C3_2 1_555 1_555
H4_2 C8_2 1_555 1_555
H6_2 C10_2 1_555 1_555
H7_3 C13_3 1_555 1_555
H8_2 C9_2 1_555 1_555
Mg5_3 O4_2 1_555 1_555
C9_2 C10_2 1_555 1_555
Mg1_3 O1_2 1_555 1_555
Mg8_2 O1_2 1_555 1_555
O1_2 N1_3 1_555 1_555
O2_2 Mg1_3 1_555 1_555
N1_3 C5_3 1_555 1_555
C2_2 O2_2 1_555 1_555
C4_3 C6_3 1_555 1_555
C5_3 C6_3 1_555 1_555
C12_3 N1_3 1_555 1_555
H1_3 C5_3 1_555 1_555
H2_2 C11_2 1_555 1_555
H3_3 C12_3 1_555 1_555
O7_2 Mg1_3 1_555 1_555
O13 C19_2 1_555 1_555
O9_2 C19_2 1_555 1_555
O10_2 C20_2 1_555 1_555
C19_2 C22_2 1_555 1_555
C20_2 O7_2 1_555 1_555
C21_2 C20_2 1_555 1_555
C22_2 C23_2 1_555 1_555
C23_2 C26_2 1_555 1_555
C24_2 C22_2 1_555 1_555
C25_2 C21_2 1_555 1_555
C26_2 C21_2 1_555 1_555
H13_2 C26_2 1_555 1_555
H14_2 C23_2 1_555 1_555
H15_2 C25_2 1_555 1_555
H16_2 C24_2 1_555 1_555
Mg5_3 O9_2 1_555 1_555
Mg9 O10_2 1_555 1_555
O11_2 Mg1_3 1_555 1_555
O14_3 Mg8_2 1_555 1_555
O15_2 Mg1_3 1_555 1_555
O16_2 Mg1_3 1_555 1_555
O17_3 Mg8_2 1_555 1_555
C24_2 C25_2 1_555 1_555
Mg9 O11_2 1_555 1_555
O12_2 N2_4 1_555 1_555
N2_4 C15_4 1_555 1_555
C15_4 C16_4 1_555 1_555
C16_4 C14_4 1_555 1_555
C17_4 N2_4 1_555 1_555
C18_4 C14_4 1_555 1_555
H9_4 C15_4 1_555 1_555
H10_4 C17_4 1_555 1_555
H12_4 C18_4 1_555 1_555
Mg5_3 O12_2 1_555 1_555
C17_4 C18_4 1_555 1_555
O11_2 N1_4 1_555 1_555
N1_4 C5_4 1_555 1_555
C4_4 C6_4 1_555 1_555
C5_4 C6_4 1_555 1_555
C12_4 N1_4 1_555 1_555
C13_4 C4_4 1_555 1_555
H1_4 C5_4 1_555 1_555
H3_4 C12_4 1_555 1_555
H7_4 C13_4 1_555 1_555
O14_4 Mg9 1_555 1_555
O17_4 Mg9 1_555 1_555
C12_4 C13_4 1_555 1_555
O14 C19_3 1_555 1_555
O16 C19_3 1_555 1_555
C19_3 C22_3 1_555 1_555
C22_3 C23_3 1_555 1_555
C23_3 C26_3 1_555 1_555
C24_3 C22_3 1_555 1_555
H13_3 C26_3 1_555 1_555
H14_3 C23_3 1_555 1_555
H16_3 C24_3 1_555 1_555
O7_3 Mg5 1_555 1_555
O17_4 C20_3 1_555 1_555
C20_3 O7_3 1_555 1_555
C21_3 C20_3 1_555 1_555
C25_3 C21_3 1_555 1_555
H15_3 C25_3 1_555 1_555
H2_3 C11_3 1_555 1_555
O14_2 C1_3 1_555 1_555
O15 C1_3 1_555 1_555
C1_3 C7_3 1_555 1_555
C7_3 C8_3 1_555 1_555
C9_3 C7_3 1_555 1_555
H4_3 C8_3 1_555 1_555
H8_3 C9_3 1_555 1_555
O2_3 Mg5_2 1_555 1_555
C2_3 O2_3 1_555 1_555
C10_3 C3_3 1_555 1_555
H6_3 C10_3 1_555 1_555
O2_4 Mg5_3 1_555 1_555
C2_4 O2_4 1_555 1_555
H2_4 C11_4 1_555 1_555
O7_4 Mg5_3 1_555 1_555
O14_3 C19_4 1_555 1_555
O16_2 C19_4 1_555 1_555
O17_2 C20_4 1_555 1_555
C19_4 C22_4 1_555 1_555
C20_4 O7_4 1_555 1_555
C21_4 C20_4 1_555 1_555
C22_4 C23_4 1_555 1_555
C23_4 C26_4 1_555 1_555
C24_4 C22_4 1_555 1_555
C25_4 C21_4 1_555 1_555
C26_4 C21_4 1_555 1_555
H13_4 C26_4 1_555 1_555
H14_4 C23_4 1_555 1_555
H15_4 C25_4 1_555 1_555
H16_4 C24_4 1_555 1_555
C24_4 C25_4 1_555 1_555
O14_4 C1_4 1_555 1_555
O15_2 C1_4 1_555 1_555
C1_4 C7_4 1_555 1_555
C7_4 C8_4 1_555 1_555
C9_4 C7_4 1_555 1_555
C10_4 C3_4 1_555 1_555
H4_4 C8_4 1_555 1_555
H6_4 C10_4 1_555 1_555
H8_4 C9_4 1_555 1_555
C9_4 C10_4 1_555 1_555

#END
