
###############################################################################
#
# This file contains modified crystal structure data generated from the
# MOF subset of the Cambridge Structural Database (CSD) v543 
# hosted by the Cambridge Crystallographic Data Centre (CCDC).
#
# This work is licensed under the Creative Commons
# Attribution-NonCommercial-ShareAlike 4.0 International License.
# To view a copy of this license, visit
# http://creativecommons.org/licenses/by-nc-sa/4.0/
# or send a letter to
# Creative Commons, PO Box 1866, Mountain View, CA 94042, USA.
#
# CIF created using the CSD Python API on 29 September 2022
# The structure has been converted into the P1 space group
# The structure has a 3D framework
# The original CSD entry EZICUO is in the monoclinic crystal system
# The framework has been calculated to contain at least 10.0% void space
# The void calculation uses a probe of radius 1.32A, grid spacing 0.4
#
###############################################################################

data_EZICUO
_chemical_formula_moiety         '(C64 H40 Co2 N16 O12)n'
_symmetry_cell_setting           triclinic
_symmetry_space_group_name_H-M   'P 1'
_symmetry_Int_Tables_number      1
_space_group_name_Hall           'P 1'
loop_
_symmetry_equiv_pos_site_id
_symmetry_equiv_pos_as_xyz
1 x,y,z
_cell_length_a                   10.1287(2)
_cell_length_b                   9.5110(2)
_cell_length_c                   19.3650(4)
_cell_angle_alpha                90
_cell_angle_beta                 95.810(2)
_cell_angle_gamma                90
_cell_volume                     1855.93
loop_
_atom_site_label
_atom_site_type_symbol
_atom_site_fract_x
_atom_site_fract_y
_atom_site_fract_z
Co1 Co 0.19155(4) 0.09633(5) 0.55052(2)
O5 O 0.0187(2) 0.1998(2) 0.56499(12)
O6 O 0.3310(2) 0.2551(3) 0.59729(12)
O7 O 0.4010(2) 0.0497(3) 0.56375(12)
N5 N 0.1881(3) 0.0204(3) 0.65465(13)
N6 N 0.2015(3) 0.1947(3) 0.45097(14)
O1 O 0.1313(2) 0.9143(2) 0.50546(12)
O3 O 0.6690(2) 0.7449(3) 0.40271(12)
O4 O 0.5990(2) 0.9503(3) 0.43625(12)
N1 N 0.1881(3) 0.4796(3) 0.15465(13)
N3 N 0.2434(3) 0.5631(3) 0.25795(14)
N4 N 0.1608(3) 0.3768(3) 0.20261(14)
C1 C 0.3359(3) 0.8359(4) 0.42669(16)
H1 H 0.356121 0.897479 0.463557
C2 C 0.0979(3) 0.8400(3) 0.45296(16)
C3 C 0.4356(3) 0.7887(4) 0.38840(16)
C4 C 0.1956(3) 0.4291(4) 0.26343(17)
C5 C 0.5765(3) 0.8321(4) 0.40964(15)
C6 C 0.4068(3) 0.6987(4) 0.33214(17)
H2 H 0.473789 0.666017 0.306788
C7 C 0.2055(3) 0.7913(3) 0.41006(16)
C8 C 0.1747(3) 0.7035(4) 0.35300(17)
H3 H 0.087657 0.675105 0.340682
C9 C 0.2760(3) 0.6591(4) 0.31487(16)
C10 C 0.2382(3) 0.5889(3) 0.18822(16)
C11 C 0.1965(3) 0.3508(4) 0.32891(16)
C12 C 0.3102(4) 0.2628(5) 0.43406(19)
H4 H 0.388118 0.255471 0.463682
C13 C 0.3113(4) 0.3434(5) 0.37450(19)
H5 H 0.387429 0.391682 0.365256
C14 C 0.0871(4) 0.2750(4) 0.34431(18)
H6 H 0.009890 0.274938 0.313912
C15 C 0.2845(4) 0.7202(4) 0.15687(19)
H7 H 0.379732 0.722778 0.162171
H8 H 0.250545 0.799972 0.179769
H9 H 0.253128 0.722667 0.108420
C16 C 0.0936(4) 0.1994(5) 0.40528(19)
H10 H 0.018947 0.149193 0.415120
Co4 Co 0.80845(4) 0.90367(5) 0.44948(2)
Co5 Co 0.19155(4) 0.40367(5) 0.05052(2)
O2 O 0.9813(2) 0.8002(2) 0.43501(12)
O2_2 O 0.0187(2) 0.3002(2) 0.06499(12)
O3_2 O 0.3310(2) 0.2449(3) 0.09729(12)
O4_2 O 0.4010(2) 0.4503(3) 0.06375(12)
N3_2 N 0.7566(3) 0.0631(3) 0.24205(14)
C1_2 C 0.6641(3) 0.3359(4) 0.07331(16)
H1_2 H 0.643879 0.397479 0.036443
C2_2 C 0.9021(3) 0.3400(3) 0.04704(16)
C3_2 C 0.5644(3) 0.2887(4) 0.11160(16)
C5_2 C 0.4235(3) 0.3321(4) 0.09036(15)
C6_2 C 0.5932(3) 0.1987(4) 0.16786(17)
H2_2 H 0.526211 0.166017 0.193212
C7_2 C 0.7945(3) 0.2913(3) 0.08994(16)
C8_2 C 0.8253(3) 0.2035(4) 0.14700(17)
H3_2 H 0.912343 0.175105 0.159318
C9_2 C 0.7240(3) 0.1591(4) 0.18513(16)
C10_2 C 0.7618(3) 0.0889(3) 0.31178(16)
C15_2 C 0.7155(4) 0.2202(4) 0.34313(19)
H7_2 H 0.620268 0.222778 0.337829
H8_2 H 0.749455 0.299972 0.320231
H9_2 H 0.746872 0.222667 0.391580
N6_2 N 0.7985(3) 0.6947(3) 0.04903(14)
Co1_2 Co 0.80845(4) 0.59633(5) 0.94948(2)
O1_2 O 0.8687(2) 0.4143(2) 0.99454(12)
O5_2 O 0.9813(2) 0.6998(2) 0.93501(12)
O6_2 O 0.6690(2) 0.7551(3) 0.90271(12)
O7_2 O 0.5990(2) 0.5497(3) 0.93625(12)
N5_2 N 0.8119(3) 0.5204(3) 0.84535(13)
N1_2 N 0.8119(3) 0.9796(3) 0.34535(13)
N4_2 N 0.8392(3) 0.8768(3) 0.29739(14)
C4_2 C 0.8044(3) 0.9291(4) 0.23657(17)
C11_2 C 0.8035(3) 0.8508(4) 0.17109(16)
C12_2 C 0.6898(4) 0.7628(5) 0.06594(19)
H4_2 H 0.611882 0.755471 0.036318
C13_2 C 0.6887(4) 0.8434(5) 0.12550(19)
H5_2 H 0.612571 0.891682 0.134744
C14_2 C 0.9129(4) 0.7750(4) 0.15569(18)
H6_2 H 0.990110 0.774938 0.186088
C16_2 C 0.9064(4) 0.6994(5) 0.09472(19)
H10_2 H 0.981053 0.649193 0.084880
O1_3 O 0.8687(2) 0.0857(2) 0.49454(12)
N2 N 0.7985(3) 0.8053(3) 0.54903(14)
N3_3 N 0.7566(3) 0.4369(3) 0.74205(14)
N4_3 N 0.8392(3) 0.6232(3) 0.79739(14)
C1_3 C 0.6641(3) 0.1641(4) 0.57331(16)
H1_3 H 0.643879 0.102521 0.536443
C2_3 C 0.9021(3) 0.1600(3) 0.54704(16)
C3_3 C 0.5644(3) 0.2113(4) 0.61160(16)
C4_3 C 0.8044(3) 0.5709(4) 0.73657(17)
C5_3 C 0.4235(3) 0.1679(4) 0.59036(15)
C6_3 C 0.5932(3) 0.3013(4) 0.66786(17)
H2_3 H 0.526211 0.333983 0.693212
C7_3 C 0.7945(3) 0.2087(3) 0.58994(16)
C8_3 C 0.8253(3) 0.2965(4) 0.64700(17)
H3_3 H 0.912343 0.324895 0.659318
C9_3 C 0.7240(3) 0.3409(4) 0.68513(16)
C10_3 C 0.7618(3) 0.4111(3) 0.81178(16)
C11_3 C 0.8035(3) 0.6492(4) 0.67109(16)
C12_3 C 0.6898(4) 0.7372(5) 0.56594(19)
H4_3 H 0.611882 0.744529 0.536318
C13_3 C 0.6887(4) 0.6566(5) 0.62550(19)
H5_3 H 0.612571 0.608318 0.634744
C14_3 C 0.9129(4) 0.7250(4) 0.65569(18)
H6_3 H 0.990110 0.725062 0.686088
C15_3 C 0.7155(4) 0.2798(4) 0.84313(19)
H7_3 H 0.620268 0.277222 0.837829
H8_3 H 0.749455 0.200028 0.820231
H9_3 H 0.746872 0.277333 0.891580
C16_3 C 0.9064(4) 0.8006(5) 0.59472(19)
H10_3 H 0.981053 0.850807 0.584880
N2_2 N 0.2015(3) 0.3053(3) 0.95097(14)
N4_4 N 0.1608(3) 0.1232(3) 0.70261(14)
C4_4 C 0.1956(3) 0.0709(4) 0.76343(17)
C11_4 C 0.1965(3) 0.1492(4) 0.82891(16)
C12_4 C 0.3102(4) 0.2372(5) 0.93406(19)
H4_4 H 0.388118 0.244529 0.963682
C13_4 C 0.3113(4) 0.1566(5) 0.87450(19)
H5_4 H 0.387429 0.108318 0.865256
C14_4 C 0.0871(4) 0.2250(4) 0.84431(18)
H6_4 H 0.009890 0.225062 0.813912
C16_4 C 0.0936(4) 0.3006(5) 0.90528(19)
H10_4 H 0.018947 0.350807 0.915120
O1_4 O 0.1313(2) 0.5857(2) 0.00546(12)
N3_4 N 0.2434(3) 0.9369(3) 0.75795(14)
C1_4 C 0.3359(3) 0.6641(4) 0.92669(16)
H1_4 H 0.356121 0.602521 0.963557
C2_4 C 0.0979(3) 0.6600(3) 0.95296(16)
C3_4 C 0.4356(3) 0.7113(4) 0.88840(16)
C5_4 C 0.5765(3) 0.6679(4) 0.90964(15)
C6_4 C 0.4068(3) 0.8013(4) 0.83214(17)
H2_4 H 0.473789 0.833983 0.806788
C7_4 C 0.2055(3) 0.7087(3) 0.91006(16)
C8_4 C 0.1747(3) 0.7965(4) 0.85300(17)
H3_4 H 0.087657 0.824895 0.840682
C9_4 C 0.2760(3) 0.8409(4) 0.81487(16)
C10_4 C 0.2382(3) 0.9111(3) 0.68822(16)
C15_4 C 0.2845(4) 0.7798(4) 0.65687(19)
H7_4 H 0.379732 0.777222 0.662171
H8_4 H 0.250545 0.700028 0.679769
H9_4 H 0.253128 0.777333 0.608420
loop_
_geom_bond_atom_site_label_1
_geom_bond_atom_site_label_2
_geom_bond_site_symmetry_1
_geom_bond_site_symmetry_2
O5 Co1 1_555 1_555
O6 Co1 1_555 1_555
O7 Co1 1_555 1_555
N5 Co1 1_555 1_555
N6 Co1 1_555 1_555
O1 C2 1_555 1_555
O3 C5 1_555 1_555
O4 C5 1_555 1_555
N1 N4 1_555 1_555
N6 C12 1_555 1_555
N3 C4 1_555 1_555
N4 C4 1_555 1_555
C1 H1 1_555 1_555
C2 C7 1_555 1_555
C3 C1 1_555 1_555
C4 C11 1_555 1_555
C5 C3 1_555 1_555
C6 C3 1_555 1_555
H2 C6 1_555 1_555
C7 C1 1_555 1_555
C8 C7 1_555 1_555
H3 C8 1_555 1_555
C9 N3 1_555 1_555
C10 N1 1_555 1_555
C11 C13 1_555 1_555
C12 H4 1_555 1_555
C13 C12 1_555 1_555
H5 C13 1_555 1_555
C14 C11 1_555 1_555
H6 C14 1_555 1_555
C15 C10 1_555 1_555
H7 C15 1_555 1_555
H8 C15 1_555 1_555
H9 C15 1_555 1_555
C16 N6 1_555 1_555
H10 C16 1_555 1_555
Co4 O3 1_555 1_555
Co5 N1 1_555 1_555
O4 Co4 1_555 1_555
N3 C10 1_555 1_555
C6 C9 1_555 1_555
C8 C9 1_555 1_555
C14 C16 1_555 1_555
Co4 O2 1_555 1_555
Co5 O2_2 1_555 1_555
O3_2 C5_2 1_555 1_555
O4_2 C5_2 1_555 1_555
C1_2 H1_2 1_555 1_555
C2_2 C7_2 1_555 1_555
C3_2 C1_2 1_555 1_555
C5_2 C3_2 1_555 1_555
C6_2 C3_2 1_555 1_555
H2_2 C6_2 1_555 1_555
C7_2 C1_2 1_555 1_555
C8_2 C7_2 1_555 1_555
H3_2 C8_2 1_555 1_555
C9_2 N3_2 1_555 1_555
C15_2 C10_2 1_555 1_555
H7_2 C15_2 1_555 1_555
H8_2 C15_2 1_555 1_555
H9_2 C15_2 1_555 1_555
Co5 O3_2 1_555 1_555
O4_2 Co5 1_555 1_555
N3_2 C10_2 1_555 1_555
C6_2 C9_2 1_555 1_555
C8_2 C9_2 1_555 1_555
Co1_2 O1_2 1_555 1_555
O5_2 Co1_2 1_555 1_555
O6_2 Co1_2 1_555 1_555
O7_2 Co1_2 1_555 1_555
N5_2 Co1_2 1_555 1_555
N1_2 N4_2 1_555 1_555
N6_2 C12_2 1_555 1_555
N4_2 C4_2 1_555 1_555
C4_2 C11_2 1_555 1_555
C11_2 C13_2 1_555 1_555
C12_2 H4_2 1_555 1_555
C13_2 C12_2 1_555 1_555
H5_2 C13_2 1_555 1_555
C14_2 C11_2 1_555 1_555
H6_2 C14_2 1_555 1_555
C16_2 N6_2 1_555 1_555
H10_2 C16_2 1_555 1_555
Co4 N1_2 1_555 1_555
C14_2 C16_2 1_555 1_555
O1_3 C2_3 1_555 1_555
O6 C5_3 1_555 1_555
O7 C5_3 1_555 1_555
N5_2 N4_3 1_555 1_555
N2 C12_3 1_555 1_555
N3_3 C4_3 1_555 1_555
N4_3 C4_3 1_555 1_555
C1_3 H1_3 1_555 1_555
C2_3 C7_3 1_555 1_555
C3_3 C1_3 1_555 1_555
C4_3 C11_3 1_555 1_555
C5_3 C3_3 1_555 1_555
C6_3 C3_3 1_555 1_555
H2_3 C6_3 1_555 1_555
C7_3 C1_3 1_555 1_555
C8_3 C7_3 1_555 1_555
H3_3 C8_3 1_555 1_555
C9_3 N3_3 1_555 1_555
C10_3 N5_2 1_555 1_555
C11_3 C13_3 1_555 1_555
C12_3 H4_3 1_555 1_555
C13_3 C12_3 1_555 1_555
H5_3 C13_3 1_555 1_555
C14_3 C11_3 1_555 1_555
H6_3 C14_3 1_555 1_555
C15_3 C10_3 1_555 1_555
H7_3 C15_3 1_555 1_555
H8_3 C15_3 1_555 1_555
H9_3 C15_3 1_555 1_555
C16_3 N2 1_555 1_555
H10_3 C16_3 1_555 1_555
Co4 N2 1_555 1_555
N3_3 C10_3 1_555 1_555
C6_3 C9_3 1_555 1_555
C8_3 C9_3 1_555 1_555
C14_3 C16_3 1_555 1_555
N5 N4_4 1_555 1_555
N2_2 C12_4 1_555 1_555
N4_4 C4_4 1_555 1_555
C4_4 C11_4 1_555 1_555
C11_4 C13_4 1_555 1_555
C12_4 H4_4 1_555 1_555
C13_4 C12_4 1_555 1_555
H5_4 C13_4 1_555 1_555
C14_4 C11_4 1_555 1_555
H6_4 C14_4 1_555 1_555
C16_4 N2_2 1_555 1_555
H10_4 C16_4 1_555 1_555
C14_4 C16_4 1_555 1_555
Co5 O1_4 1_555 1_555
O6_2 C5_4 1_555 1_555
O7_2 C5_4 1_555 1_555
C1_4 H1_4 1_555 1_555
C2_4 C7_4 1_555 1_555
C3_4 C1_4 1_555 1_555
C5_4 C3_4 1_555 1_555
C6_4 C3_4 1_555 1_555
H2_4 C6_4 1_555 1_555
C7_4 C1_4 1_555 1_555
C8_4 C7_4 1_555 1_555
H3_4 C8_4 1_555 1_555
C9_4 N3_4 1_555 1_555
C15_4 C10_4 1_555 1_555
H7_4 C15_4 1_555 1_555
H8_4 C15_4 1_555 1_555
H9_4 C15_4 1_555 1_555
N3_4 C10_4 1_555 1_555
C6_4 C9_4 1_555 1_555
C8_4 C9_4 1_555 1_555

#END
