
###############################################################################
#
# This file contains modified crystal structure data generated from the
# MOF subset of the Cambridge Structural Database (CSD) v543 
# hosted by the Cambridge Crystallographic Data Centre (CCDC).
#
# This work is licensed under the Creative Commons
# Attribution-NonCommercial-ShareAlike 4.0 International License.
# To view a copy of this license, visit
# http://creativecommons.org/licenses/by-nc-sa/4.0/
# or send a letter to
# Creative Commons, PO Box 1866, Mountain View, CA 94042, USA.
#
# CIF created using the CSD Python API on 29 September 2022
# The structure has been converted into the P1 space group
# The structure has a 3D framework
# The original CSD entry EZICOI is in the monoclinic crystal system
# The framework has been calculated to contain at least 10.0% void space
# The void calculation uses a probe of radius 1.32A, grid spacing 0.4
#
###############################################################################

data_EZICOI
_chemical_formula_moiety         '(C64 H40 Co2 N16 O12)n'
_symmetry_cell_setting           triclinic
_symmetry_space_group_name_H-M   'P 1'
_symmetry_Int_Tables_number      1
_space_group_name_Hall           'P 1'
loop_
_symmetry_equiv_pos_site_id
_symmetry_equiv_pos_as_xyz
1 x,y,z
_cell_length_a                   10.12750(10)
_cell_length_b                   9.43350(10)
_cell_length_c                   19.4216(2)
_cell_angle_alpha                90
_cell_angle_beta                 95.7950(10)
_cell_angle_gamma                90
_cell_volume                     1846.01
loop_
_atom_site_label
_atom_site_type_symbol
_atom_site_fract_x
_atom_site_fract_y
_atom_site_fract_z
O2 O 0.0193(2) 0.2992(3) 0.06440(12)
Co4 Co 0.19171(5) 0.40326(6) 0.05059(3)
O3 O 0.3319(2) 0.2433(3) 0.09658(13)
O4 O 0.4012(2) 0.4516(3) 0.06375(13)
N2 N 0.7561(3) 0.0636(3) 0.24218(14)
C1 C 0.6645(3) 0.3356(4) 0.07302(17)
H1 H 0.643798 0.397722 0.034953
C2 C 0.5930(3) 0.1986(4) 0.16774(17)
H2 H 0.524605 0.164269 0.193362
C3 C 0.7951(3) 0.2913(4) 0.08991(17)
C4 C 0.4239(3) 0.3318(4) 0.09029(16)
C5 C 0.5641(3) 0.2892(4) 0.11174(17)
C6 C 0.9024(3) 0.3385(4) 0.04662(17)
C8 C 0.7248(3) 0.1593(4) 0.18543(16)
C9 C 0.8254(3) 0.2037(4) 0.14735(17)
H3 H 0.914429 0.174972 0.160148
C11 C 0.7627(3) 0.0895(4) 0.31185(17)
C15 C 0.7154(4) 0.2220(4) 0.34210(19)
H7 H 0.621554 0.211930 0.349437
H8 H 0.725925 0.301058 0.310394
H9 H 0.767515 0.240575 0.386483
N6 N 0.7973(3) 0.6937(3) 0.04921(14)
Co1 Co 0.80829(5) 0.59674(6) 0.94941(3)
O1 O 0.8686(2) 0.4132(3) 0.99377(12)
O5 O 0.9807(2) 0.7008(3) 0.93560(12)
O6 O 0.6681(2) 0.7567(3) 0.90342(13)
O7 O 0.5988(2) 0.5484(3) 0.93625(13)
N5 N 0.8121(3) 0.5208(3) 0.84527(14)
N1 N 0.8121(3) 0.9792(3) 0.34527(14)
N4 N 0.8387(3) 0.8751(3) 0.29811(14)
C7 C 0.8042(3) 0.9277(4) 0.23678(17)
C10 C 0.8017(3) 0.8484(4) 0.17169(17)
C12 C 0.6895(4) 0.7620(5) 0.0660(2)
H4 H 0.610188 0.755747 0.035547
C13 C 0.6881(4) 0.8414(5) 0.1260(2)
H5 H 0.610108 0.890447 0.135606
C14 C 0.9119(4) 0.7726(5) 0.15664(19)
H6 H 0.990447 0.771811 0.187837
C16 C 0.9053(4) 0.6977(5) 0.09499(19)
H10 H 0.981608 0.646376 0.084661
Co5 Co 0.80829(5) 0.90326(6) 0.44941(3)
Co1_2 Co 0.19171(5) 0.09674(6) 0.55059(3)
O5_2 O 0.0193(2) 0.2008(3) 0.56440(12)
O6_2 O 0.3319(2) 0.2567(3) 0.59658(13)
O7_2 O 0.4012(2) 0.0484(3) 0.56375(13)
N5_2 N 0.1879(3) 0.0208(3) 0.65473(14)
N6_2 N 0.2027(3) 0.1937(3) 0.45079(14)
O1_2 O 0.1314(2) 0.9132(3) 0.50623(12)
O3_2 O 0.6681(2) 0.7433(3) 0.40342(13)
O4_2 O 0.5988(2) 0.9516(3) 0.43625(13)
N1_2 N 0.1879(3) 0.4792(3) 0.15473(14)
N2_2 N 0.2439(3) 0.5636(3) 0.25782(14)
N4_2 N 0.1613(3) 0.3751(3) 0.20189(14)
C1_2 C 0.3355(3) 0.8356(4) 0.42698(17)
H1_2 H 0.356202 0.897722 0.465047
C2_2 C 0.4070(3) 0.6986(4) 0.33226(17)
H2_2 H 0.475395 0.664269 0.306638
C3_2 C 0.2049(3) 0.7913(4) 0.41009(17)
C4_2 C 0.5761(3) 0.8318(4) 0.40971(16)
C5_2 C 0.4359(3) 0.7892(4) 0.38826(17)
C6_2 C 0.0976(3) 0.8385(4) 0.45338(17)
C7_2 C 0.1958(3) 0.4277(4) 0.26322(17)
C8_2 C 0.2752(3) 0.6593(4) 0.31457(16)
C9_2 C 0.1746(3) 0.7037(4) 0.35265(17)
H3_2 H 0.085571 0.674972 0.339852
C10_2 C 0.1983(3) 0.3484(4) 0.32831(17)
C11_2 C 0.2373(3) 0.5895(4) 0.18815(17)
C12_2 C 0.3105(4) 0.2620(5) 0.4340(2)
H4_2 H 0.389812 0.255747 0.464453
C13_2 C 0.3119(4) 0.3414(5) 0.3740(2)
H5_2 H 0.389892 0.390447 0.364394
C14_2 C 0.0881(4) 0.2726(5) 0.34336(19)
H6_2 H 0.009553 0.271811 0.312163
C15_2 C 0.2846(4) 0.7220(4) 0.15790(19)
H7_2 H 0.378446 0.711930 0.150563
H8_2 H 0.274075 0.801058 0.189606
H9_2 H 0.232485 0.740575 0.113517
C16_2 C 0.0947(4) 0.1977(5) 0.40501(19)
H10_2 H 0.018392 0.146376 0.415339
O2_2 O 0.9807(2) 0.7992(3) 0.43560(12)
N3 N 0.2027(3) 0.3063(3) 0.95079(14)
N4_3 N 0.1613(3) 0.1249(3) 0.70189(14)
C7_3 C 0.1958(3) 0.0723(4) 0.76322(17)
C10_3 C 0.1983(3) 0.1516(4) 0.82831(17)
C12_3 C 0.3105(4) 0.2380(5) 0.9340(2)
H4_3 H 0.389812 0.244253 0.964453
C13_3 C 0.3119(4) 0.1586(5) 0.8740(2)
H5_3 H 0.389892 0.109553 0.864394
C14_3 C 0.0881(4) 0.2274(5) 0.84336(19)
H6_3 H 0.009553 0.228189 0.812163
C16_3 C 0.0947(4) 0.3023(5) 0.90501(19)
H10_3 H 0.018392 0.353624 0.915339
O1_3 O 0.1314(2) 0.5868(3) 0.00623(12)
N2_3 N 0.2439(3) 0.9364(3) 0.75782(14)
C1_3 C 0.3355(3) 0.6644(4) 0.92698(17)
H1_3 H 0.356202 0.602278 0.965047
C2_3 C 0.4070(3) 0.8014(4) 0.83226(17)
H2_3 H 0.475395 0.835731 0.806638
C3_3 C 0.2049(3) 0.7087(4) 0.91009(17)
C4_3 C 0.5761(3) 0.6682(4) 0.90971(16)
C5_3 C 0.4359(3) 0.7108(4) 0.88826(17)
C6_3 C 0.0976(3) 0.6615(4) 0.95338(17)
C8_3 C 0.2752(3) 0.8407(4) 0.81457(16)
C9_3 C 0.1746(3) 0.7963(4) 0.85265(17)
H3_3 H 0.085571 0.825028 0.839852
C11_3 C 0.2373(3) 0.9105(4) 0.68815(17)
C15_3 C 0.2846(4) 0.7780(4) 0.65790(19)
H7_3 H 0.378446 0.788070 0.650563
H8_3 H 0.274075 0.698942 0.689606
H9_3 H 0.232485 0.759425 0.613517
O1_4 O 0.8686(2) 0.0868(3) 0.49377(12)
N2_4 N 0.7561(3) 0.4364(3) 0.74218(14)
N3_2 N 0.7973(3) 0.8063(3) 0.54921(14)
N4_4 N 0.8387(3) 0.6249(3) 0.79811(14)
C1_4 C 0.6645(3) 0.1644(4) 0.57302(17)
H1_4 H 0.643798 0.102278 0.534953
C2_4 C 0.5930(3) 0.3014(4) 0.66774(17)
H2_4 H 0.524605 0.335731 0.693362
C3_4 C 0.7951(3) 0.2087(4) 0.58991(17)
C4_4 C 0.4239(3) 0.1682(4) 0.59029(16)
C5_4 C 0.5641(3) 0.2108(4) 0.61174(17)
C6_4 C 0.9024(3) 0.1615(4) 0.54662(17)
C7_4 C 0.8042(3) 0.5723(4) 0.73678(17)
C8_4 C 0.7248(3) 0.3407(4) 0.68543(16)
C9_4 C 0.8254(3) 0.2963(4) 0.64735(17)
H3_4 H 0.914429 0.325028 0.660148
C10_4 C 0.8017(3) 0.6516(4) 0.67169(17)
C11_4 C 0.7627(3) 0.4105(4) 0.81185(17)
C12_4 C 0.6895(4) 0.7380(5) 0.5660(2)
H4_4 H 0.610188 0.744253 0.535547
C13_4 C 0.6881(4) 0.6586(5) 0.6260(2)
H5_4 H 0.610108 0.609553 0.635606
C14_4 C 0.9119(4) 0.7274(5) 0.65664(19)
H6_4 H 0.990447 0.728189 0.687837
C15_4 C 0.7154(4) 0.2780(4) 0.84210(19)
H7_4 H 0.621554 0.288070 0.849437
H8_4 H 0.725925 0.198942 0.810394
H9_4 H 0.767515 0.259425 0.886483
C16_4 C 0.9053(4) 0.8023(5) 0.59499(19)
H10_4 H 0.981608 0.853624 0.584661
loop_
_geom_bond_atom_site_label_1
_geom_bond_atom_site_label_2
_geom_bond_site_symmetry_1
_geom_bond_site_symmetry_2
Co4 O2 1_555 1_555
O3 C4 1_555 1_555
O4 C4 1_555 1_555
C1 H1 1_555 1_555
C2 H2 1_555 1_555
C3 C1 1_555 1_555
C4 C5 1_555 1_555
C5 C1 1_555 1_555
C6 C3 1_555 1_555
C8 N2 1_555 1_555
C9 C3 1_555 1_555
H3 C9 1_555 1_555
C15 C11 1_555 1_555
H7 C15 1_555 1_555
H8 C15 1_555 1_555
H9 C15 1_555 1_555
Co4 O3 1_555 1_555
O4 Co4 1_555 1_555
N2 C11 1_555 1_555
C2 C5 1_555 1_555
C2 C8 1_555 1_555
C8 C9 1_555 1_555
Co1 O1 1_555 1_555
O5 Co1 1_555 1_555
O6 Co1 1_555 1_555
O7 Co1 1_555 1_555
N5 Co1 1_555 1_555
N1 N4 1_555 1_555
N6 C12 1_555 1_555
N4 C7 1_555 1_555
C7 C10 1_555 1_555
C10 C13 1_555 1_555
C12 H4 1_555 1_555
C13 C12 1_555 1_555
H5 C13 1_555 1_555
C14 C10 1_555 1_555
H6 C14 1_555 1_555
C16 N6 1_555 1_555
H10 C16 1_555 1_555
Co5 N1 1_555 1_555
C14 C16 1_555 1_555
O5_2 Co1_2 1_555 1_555
O6_2 Co1_2 1_555 1_555
O7_2 Co1_2 1_555 1_555
N5_2 Co1_2 1_555 1_555
N6_2 Co1_2 1_555 1_555
O1_2 C6_2 1_555 1_555
O3_2 C4_2 1_555 1_555
O4_2 C4_2 1_555 1_555
N1_2 N4_2 1_555 1_555
N2_2 C7_2 1_555 1_555
N6_2 C12_2 1_555 1_555
N4_2 C7_2 1_555 1_555
C1_2 H1_2 1_555 1_555
C2_2 H2_2 1_555 1_555
C3_2 C1_2 1_555 1_555
C4_2 C5_2 1_555 1_555
C5_2 C1_2 1_555 1_555
C6_2 C3_2 1_555 1_555
C7_2 C10_2 1_555 1_555
C8_2 N2_2 1_555 1_555
C9_2 C3_2 1_555 1_555
H3_2 C9_2 1_555 1_555
C10_2 C13_2 1_555 1_555
C11_2 N1_2 1_555 1_555
C12_2 H4_2 1_555 1_555
C13_2 C12_2 1_555 1_555
H5_2 C13_2 1_555 1_555
C14_2 C10_2 1_555 1_555
H6_2 C14_2 1_555 1_555
C15_2 C11_2 1_555 1_555
H7_2 C15_2 1_555 1_555
H8_2 C15_2 1_555 1_555
H9_2 C15_2 1_555 1_555
C16_2 N6_2 1_555 1_555
H10_2 C16_2 1_555 1_555
Co5 O3_2 1_555 1_555
Co4 N1_2 1_555 1_555
O4_2 Co5 1_555 1_555
N2_2 C11_2 1_555 1_555
C2_2 C5_2 1_555 1_555
C2_2 C8_2 1_555 1_555
C8_2 C9_2 1_555 1_555
C14_2 C16_2 1_555 1_555
Co5 O2_2 1_555 1_555
N5_2 N4_3 1_555 1_555
N3 C12_3 1_555 1_555
N4_3 C7_3 1_555 1_555
C7_3 C10_3 1_555 1_555
C10_3 C13_3 1_555 1_555
C12_3 H4_3 1_555 1_555
C13_3 C12_3 1_555 1_555
H5_3 C13_3 1_555 1_555
C14_3 C10_3 1_555 1_555
H6_3 C14_3 1_555 1_555
C16_3 N3 1_555 1_555
H10_3 C16_3 1_555 1_555
C14_3 C16_3 1_555 1_555
Co4 O1_3 1_555 1_555
O6 C4_3 1_555 1_555
O7 C4_3 1_555 1_555
C1_3 H1_3 1_555 1_555
C2_3 H2_3 1_555 1_555
C3_3 C1_3 1_555 1_555
C4_3 C5_3 1_555 1_555
C5_3 C1_3 1_555 1_555
C6_3 C3_3 1_555 1_555
C8_3 N2_3 1_555 1_555
C9_3 C3_3 1_555 1_555
H3_3 C9_3 1_555 1_555
C15_3 C11_3 1_555 1_555
H7_3 C15_3 1_555 1_555
H8_3 C15_3 1_555 1_555
H9_3 C15_3 1_555 1_555
N2_3 C11_3 1_555 1_555
C2_3 C5_3 1_555 1_555
C2_3 C8_3 1_555 1_555
C8_3 C9_3 1_555 1_555
O1_4 C6_4 1_555 1_555
O6_2 C4_4 1_555 1_555
O7_2 C4_4 1_555 1_555
N5 N4_4 1_555 1_555
N2_4 C7_4 1_555 1_555
N3_2 C12_4 1_555 1_555
N4_4 C7_4 1_555 1_555
C1_4 H1_4 1_555 1_555
C2_4 H2_4 1_555 1_555
C3_4 C1_4 1_555 1_555
C4_4 C5_4 1_555 1_555
C5_4 C1_4 1_555 1_555
C6_4 C3_4 1_555 1_555
C7_4 C10_4 1_555 1_555
C8_4 N2_4 1_555 1_555
C9_4 C3_4 1_555 1_555
H3_4 C9_4 1_555 1_555
C10_4 C13_4 1_555 1_555
C11_4 N5 1_555 1_555
C12_4 H4_4 1_555 1_555
C13_4 C12_4 1_555 1_555
H5_4 C13_4 1_555 1_555
C14_4 C10_4 1_555 1_555
H6_4 C14_4 1_555 1_555
C15_4 C11_4 1_555 1_555
H7_4 C15_4 1_555 1_555
H8_4 C15_4 1_555 1_555
H9_4 C15_4 1_555 1_555
C16_4 N3_2 1_555 1_555
H10_4 C16_4 1_555 1_555
Co5 N3_2 1_555 1_555
N2_4 C11_4 1_555 1_555
C2_4 C5_4 1_555 1_555
C2_4 C8_4 1_555 1_555
C8_4 C9_4 1_555 1_555
C14_4 C16_4 1_555 1_555

#END
