
###############################################################################
#
# This file contains modified crystal structure data generated from the
# MOF subset of the Cambridge Structural Database (CSD) v543 
# hosted by the Cambridge Crystallographic Data Centre (CCDC).
#
# This work is licensed under the Creative Commons
# Attribution-NonCommercial-ShareAlike 4.0 International License.
# To view a copy of this license, visit
# http://creativecommons.org/licenses/by-nc-sa/4.0/
# or send a letter to
# Creative Commons, PO Box 1866, Mountain View, CA 94042, USA.
#
# CIF created using the CSD Python API on 29 September 2022
# The structure has been converted into the P1 space group
# The structure has a 3D framework
# The original CSD entry EZIDAV is in the monoclinic crystal system
# The framework has been calculated to contain at least 10.0% void space
# The void calculation uses a probe of radius 1.32A, grid spacing 0.4
#
###############################################################################

data_EZIDAV
_chemical_formula_moiety         '(C64 H40 Co2 N16 O12)n'
_symmetry_cell_setting           triclinic
_symmetry_space_group_name_H-M   'P 1'
_symmetry_Int_Tables_number      1
_space_group_name_Hall           'P 1'
loop_
_symmetry_equiv_pos_site_id
_symmetry_equiv_pos_as_xyz
1 x,y,z
_cell_length_a                   10.21197(16)
_cell_length_b                   10.2342(3)
_cell_length_c                   18.9467(4)
_cell_angle_alpha                90
_cell_angle_beta                 97.3846(17)
_cell_angle_gamma                90
_cell_volume                     1963.72
loop_
_atom_site_label
_atom_site_type_symbol
_atom_site_fract_x
_atom_site_fract_y
_atom_site_fract_z
O3 O 0.0103(3) 0.1814(3) 0.56800(16)
Co4 Co 0.18638(6) 0.10064(7) 0.55557(3)
O1 O 0.8621(3) 0.0667(3) 0.49749(16)
O2 O 0.3312(3) 0.2349(3) 0.61068(16)
O4 O 0.3954(3) 0.0559(4) 0.56215(17)
N1 N 0.8126(3) 0.7830(4) 0.53934(19)
N2 N 0.7616(3) 0.4310(4) 0.73574(18)
N3 N 0.8177(3) 0.5180(4) 0.84003(18)
N4 N 0.8490(4) 0.6064(4) 0.78984(19)
C1 C 0.7894(4) 0.1947(4) 0.5896(2)
C2 C 0.7259(4) 0.3344(5) 0.6813(2)
C3 C 0.8237(4) 0.2841(4) 0.6438(2)
H1 H 0.912911 0.310895 0.655311
C4 C 0.6596(4) 0.1524(5) 0.5743(2)
H2 H 0.636699 0.089226 0.538056
C5 C 0.4206(4) 0.1601(5) 0.5943(2)
C6 C 0.8949(4) 0.1422(5) 0.5484(2)
C7 C 0.7656(4) 0.4149(4) 0.8080(2)
C8 C 0.8139(4) 0.5526(5) 0.7281(2)
C9 C 0.5624(4) 0.2034(5) 0.6127(2)
C10 C 0.5950(4) 0.2959(5) 0.6653(2)
H3 H 0.528755 0.332659 0.690074
C11 C 0.8176(4) 0.6249(5) 0.6607(2)
C12 C 0.9013(5) 0.8016(5) 0.5968(2)
H4 H 0.963779 0.870182 0.595833
C13 C 0.9065(5) 0.7260(5) 0.6577(2)
H5 H 0.971091 0.743477 0.697309
C14 C 0.7158(5) 0.2971(5) 0.8425(2)
H6 H 0.619799 0.291104 0.830222
H7 H 0.737533 0.304133 0.894276
H8 H 0.757364 0.218679 0.825711
C15 C 0.7277(6) 0.6816(6) 0.5424(3)
H9 H 0.665127 0.664713 0.501850
C16 C 0.7273(6) 0.6021(6) 0.6008(3)
H10 H 0.665905 0.532252 0.600096
Co2 Co 0.81362(6) 0.89936(7) 0.44443(3)
Co5 Co 0.81362(6) 0.60064(7) 0.94443(3)
O5 O 0.6688(3) 0.7651(3) 0.38932(16)
O6 O 0.9897(3) 0.8186(3) 0.43200(16)
O7 O 0.6046(3) 0.9441(4) 0.43785(17)
N6 N 0.8177(3) 0.9820(4) 0.34003(18)
Co2_2 Co 0.18638(6) 0.39936(7) 0.05557(3)
N1_2 N 0.1874(3) 0.2830(4) 0.96066(19)
N3_2 N 0.1823(3) 0.0180(4) 0.65997(18)
N4_2 N 0.1510(4) 0.1064(4) 0.71016(19)
C8_2 C 0.1861(4) 0.0526(5) 0.7719(2)
C11_2 C 0.1824(4) 0.1249(5) 0.8393(2)
C12_2 C 0.0987(5) 0.3016(5) 0.9032(2)
H4_2 H 0.036221 0.370182 0.904167
C13_2 C 0.0935(5) 0.2260(5) 0.8423(2)
H5_2 H 0.028909 0.243477 0.802691
C15_2 C 0.2723(6) 0.1816(6) 0.9576(3)
H9_2 H 0.334873 0.164713 0.998150
C16_2 C 0.2727(6) 0.1021(6) 0.8992(3)
H10_2 H 0.334095 0.032252 0.899904
O1_2 O 0.1379(3) 0.5667(3) 0.00251(16)
O5_2 O 0.3312(3) 0.2651(3) 0.11068(16)
O6_2 O 0.0103(3) 0.3186(3) 0.06800(16)
O7_2 O 0.3954(3) 0.4441(4) 0.06215(17)
N6_2 N 0.1823(3) 0.4820(4) 0.15997(18)
O2_2 O 0.6688(3) 0.7349(3) 0.88932(16)
O4_2 O 0.6046(3) 0.5559(4) 0.93785(17)
N2_2 N 0.2384(3) 0.9310(4) 0.76426(18)
C1_2 C 0.2106(4) 0.6947(4) 0.9104(2)
C2_2 C 0.2741(4) 0.8344(5) 0.8187(2)
C3_2 C 0.1763(4) 0.7841(4) 0.8562(2)
H1_2 H 0.087089 0.810895 0.844689
C4_2 C 0.3404(4) 0.6524(5) 0.9257(2)
H2_2 H 0.363301 0.589226 0.961944
C5_2 C 0.5794(4) 0.6601(5) 0.9057(2)
C6_2 C 0.1051(4) 0.6422(5) 0.9516(2)
C7_2 C 0.2344(4) 0.9149(4) 0.6920(2)
C9_2 C 0.4376(4) 0.7034(5) 0.8873(2)
C10_2 C 0.4050(4) 0.7959(5) 0.8347(2)
H3_2 H 0.471245 0.832659 0.809926
C14_2 C 0.2842(5) 0.7971(5) 0.6575(2)
H6_2 H 0.380201 0.791104 0.669778
H7_2 H 0.262467 0.804133 0.605724
H8_2 H 0.242636 0.718679 0.674289
O3_2 O 0.9897(3) 0.6814(3) 0.93200(16)
N5 N 0.1874(3) 0.2170(4) 0.46066(19)
O1_3 O 0.1379(3) 0.9333(3) 0.50251(16)
N2_3 N 0.2384(3) 0.5690(4) 0.26426(18)
N4_3 N 0.1510(4) 0.3936(4) 0.21016(19)
C1_3 C 0.2106(4) 0.8053(4) 0.4104(2)
C2_3 C 0.2741(4) 0.6656(5) 0.3187(2)
C3_3 C 0.1763(4) 0.7159(4) 0.3562(2)
H1_3 H 0.087089 0.689105 0.344689
C4_3 C 0.3404(4) 0.8476(5) 0.4257(2)
H2_3 H 0.363301 0.910774 0.461944
C5_3 C 0.5794(4) 0.8399(5) 0.4057(2)
C6_3 C 0.1051(4) 0.8578(5) 0.4516(2)
C7_3 C 0.2344(4) 0.5851(4) 0.1920(2)
C8_3 C 0.1861(4) 0.4474(5) 0.2719(2)
C9_3 C 0.4376(4) 0.7966(5) 0.3873(2)
C10_3 C 0.4050(4) 0.7041(5) 0.3347(2)
H3_3 H 0.471245 0.667341 0.309926
C11_3 C 0.1824(4) 0.3751(5) 0.3393(2)
C12_3 C 0.0987(5) 0.1984(5) 0.4032(2)
H4_3 H 0.036221 0.129818 0.404167
C13_3 C 0.0935(5) 0.2740(5) 0.3423(2)
H5_3 H 0.028909 0.256523 0.302691
C14_3 C 0.2842(5) 0.7029(5) 0.1575(2)
H6_3 H 0.380201 0.708896 0.169778
H7_3 H 0.262467 0.695867 0.105724
H8_3 H 0.242636 0.781321 0.174289
C15_3 C 0.2723(6) 0.3184(6) 0.4576(3)
H9_3 H 0.334873 0.335287 0.498150
C16_3 C 0.2727(6) 0.3979(6) 0.3992(3)
H10_3 H 0.334095 0.467748 0.399904
N2_4 N 0.7616(3) 0.0690(4) 0.23574(18)
C1_4 C 0.7894(4) 0.3053(4) 0.0896(2)
C2_4 C 0.7259(4) 0.1656(5) 0.1813(2)
C3_4 C 0.8237(4) 0.2159(4) 0.1438(2)
H1_4 H 0.912911 0.189105 0.155311
C4_4 C 0.6596(4) 0.3476(5) 0.0743(2)
H2_4 H 0.636699 0.410774 0.038056
C5_4 C 0.4206(4) 0.3399(5) 0.0943(2)
C6_4 C 0.8949(4) 0.3578(5) 0.0484(2)
C7_4 C 0.7656(4) 0.0851(4) 0.3080(2)
C9_4 C 0.5624(4) 0.2966(5) 0.1127(2)
C10_4 C 0.5950(4) 0.2041(5) 0.1653(2)
H3_4 H 0.528755 0.167341 0.190074
C14_4 C 0.7158(5) 0.2029(5) 0.3425(2)
H6_4 H 0.619799 0.208896 0.330222
H7_4 H 0.737533 0.195867 0.394276
H8_4 H 0.757364 0.281321 0.325711
N5_2 N 0.8126(3) 0.7170(4) 0.03934(19)
O1_4 O 0.8621(3) 0.4333(3) 0.99749(16)
N4_4 N 0.8490(4) 0.8936(4) 0.28984(19)
C8_4 C 0.8139(4) 0.9474(5) 0.2281(2)
C11_4 C 0.8176(4) 0.8751(5) 0.1607(2)
C12_4 C 0.9013(5) 0.6984(5) 0.0968(2)
H4_4 H 0.963779 0.629818 0.095833
C13_4 C 0.9065(5) 0.7740(5) 0.1577(2)
H5_4 H 0.971091 0.756523 0.197309
C15_4 C 0.7277(6) 0.8184(6) 0.0424(3)
H9_4 H 0.665127 0.835287 0.001850
C16_4 C 0.7273(6) 0.8979(6) 0.1008(3)
H10_4 H 0.665905 0.967748 0.100096
loop_
_geom_bond_atom_site_label_1
_geom_bond_atom_site_label_2
_geom_bond_site_symmetry_1
_geom_bond_site_symmetry_2
Co4 O3 1_555 1_555
O1 C6 1_555 1_555
O2 C5 1_555 1_555
O4 C5 1_555 1_555
N1 C12 1_555 1_555
N2 C2 1_555 1_555
N3 N4 1_555 1_555
N4 C8 1_555 1_555
C1 C3 1_555 1_555
C2 C3 1_555 1_555
C3 H1 1_555 1_555
C4 C1 1_555 1_555
H2 C4 1_555 1_555
C5 C9 1_555 1_555
C6 C1 1_555 1_555
C7 N2 1_555 1_555
C8 N2 1_555 1_555
C9 C4 1_555 1_555
C10 C2 1_555 1_555
H3 C10 1_555 1_555
C11 C8 1_555 1_555
C12 H4 1_555 1_555
C13 C11 1_555 1_555
H5 C13 1_555 1_555
C14 C7 1_555 1_555
H6 C14 1_555 1_555
H7 C14 1_555 1_555
H8 C14 1_555 1_555
C15 N1 1_555 1_555
H9 C15 1_555 1_555
C16 C11 1_555 1_555
H10 C16 1_555 1_555
Co2 N1 1_555 1_555
Co4 O2 1_555 1_555
Co5 N3 1_555 1_555
O4 Co4 1_555 1_555
N3 C7 1_555 1_555
C9 C10 1_555 1_555
C12 C13 1_555 1_555
C15 C16 1_555 1_555
O5 Co2 1_555 1_555
O6 Co2 1_555 1_555
O7 Co2 1_555 1_555
N6 Co2 1_555 1_555
N1_2 C12_2 1_555 1_555
N3_2 N4_2 1_555 1_555
N4_2 C8_2 1_555 1_555
C11_2 C8_2 1_555 1_555
C12_2 H4_2 1_555 1_555
C13_2 C11_2 1_555 1_555
H5_2 C13_2 1_555 1_555
C15_2 N1_2 1_555 1_555
H9_2 C15_2 1_555 1_555
C16_2 C11_2 1_555 1_555
H10_2 C16_2 1_555 1_555
Co4 N3_2 1_555 1_555
C12_2 C13_2 1_555 1_555
C15_2 C16_2 1_555 1_555
Co2_2 O1_2 1_555 1_555
O5_2 Co2_2 1_555 1_555
O6_2 Co2_2 1_555 1_555
O7_2 Co2_2 1_555 1_555
N6_2 Co2_2 1_555 1_555
O2_2 C5_2 1_555 1_555
O4_2 C5_2 1_555 1_555
N2_2 C2_2 1_555 1_555
C1_2 C3_2 1_555 1_555
C2_2 C3_2 1_555 1_555
C3_2 H1_2 1_555 1_555
C4_2 C1_2 1_555 1_555
H2_2 C4_2 1_555 1_555
C5_2 C9_2 1_555 1_555
C6_2 C1_2 1_555 1_555
C7_2 N2_2 1_555 1_555
C9_2 C4_2 1_555 1_555
C10_2 C2_2 1_555 1_555
H3_2 C10_2 1_555 1_555
C14_2 C7_2 1_555 1_555
H6_2 C14_2 1_555 1_555
H7_2 C14_2 1_555 1_555
H8_2 C14_2 1_555 1_555
Co5 O2_2 1_555 1_555
O4_2 Co5 1_555 1_555
C9_2 C10_2 1_555 1_555
Co5 O3_2 1_555 1_555
N5 Co4 1_555 1_555
O1_3 C6_3 1_555 1_555
O5 C5_3 1_555 1_555
O7 C5_3 1_555 1_555
N5 C12_3 1_555 1_555
N2_3 C2_3 1_555 1_555
N6_2 N4_3 1_555 1_555
N4_3 C8_3 1_555 1_555
C1_3 C3_3 1_555 1_555
C2_3 C3_3 1_555 1_555
C3_3 H1_3 1_555 1_555
C4_3 C1_3 1_555 1_555
H2_3 C4_3 1_555 1_555
C5_3 C9_3 1_555 1_555
C6_3 C1_3 1_555 1_555
C7_3 N2_3 1_555 1_555
C8_3 N2_3 1_555 1_555
C9_3 C4_3 1_555 1_555
C10_3 C2_3 1_555 1_555
H3_3 C10_3 1_555 1_555
C11_3 C8_3 1_555 1_555
C12_3 H4_3 1_555 1_555
C13_3 C11_3 1_555 1_555
H5_3 C13_3 1_555 1_555
C14_3 C7_3 1_555 1_555
H6_3 C14_3 1_555 1_555
H7_3 C14_3 1_555 1_555
H8_3 C14_3 1_555 1_555
C15_3 N5 1_555 1_555
H9_3 C15_3 1_555 1_555
C16_3 C11_3 1_555 1_555
H10_3 C16_3 1_555 1_555
N6_2 C7_3 1_555 1_555
C9_3 C10_3 1_555 1_555
C12_3 C13_3 1_555 1_555
C15_3 C16_3 1_555 1_555
O5_2 C5_4 1_555 1_555
O7_2 C5_4 1_555 1_555
N2_4 C2_4 1_555 1_555
C1_4 C3_4 1_555 1_555
C2_4 C3_4 1_555 1_555
C3_4 H1_4 1_555 1_555
C4_4 C1_4 1_555 1_555
H2_4 C4_4 1_555 1_555
C5_4 C9_4 1_555 1_555
C6_4 C1_4 1_555 1_555
C7_4 N2_4 1_555 1_555
C9_4 C4_4 1_555 1_555
C10_4 C2_4 1_555 1_555
H3_4 C10_4 1_555 1_555
C14_4 C7_4 1_555 1_555
H6_4 C14_4 1_555 1_555
H7_4 C14_4 1_555 1_555
H8_4 C14_4 1_555 1_555
C9_4 C10_4 1_555 1_555
Co5 O1_4 1_555 1_555
N5_2 C12_4 1_555 1_555
N6 N4_4 1_555 1_555
N4_4 C8_4 1_555 1_555
C11_4 C8_4 1_555 1_555
C12_4 H4_4 1_555 1_555
C13_4 C11_4 1_555 1_555
H5_4 C13_4 1_555 1_555
C15_4 N5_2 1_555 1_555
H9_4 C15_4 1_555 1_555
C16_4 C11_4 1_555 1_555
H10_4 C16_4 1_555 1_555
C12_4 C13_4 1_555 1_555
C15_4 C16_4 1_555 1_555

#END
