
###############################################################################
#
# This file contains modified crystal structure data generated from the
# MOF subset of the Cambridge Structural Database (CSD) v543 
# hosted by the Cambridge Crystallographic Data Centre (CCDC).
#
# This work is licensed under the Creative Commons
# Attribution-NonCommercial-ShareAlike 4.0 International License.
# To view a copy of this license, visit
# http://creativecommons.org/licenses/by-nc-sa/4.0/
# or send a letter to
# Creative Commons, PO Box 1866, Mountain View, CA 94042, USA.
#
# CIF created using the CSD Python API on 29 September 2022
# The structure has been converted into the P1 space group
# The structure has a 3D framework
# The original CSD entry EZINAE is in the monoclinic crystal system
# The framework has been calculated to contain at least 10.0% void space
# The void calculation uses a probe of radius 1.32A, grid spacing 0.4
#
###############################################################################

data_EZINAE
_chemical_formula_moiety         '(C76 H36 O24 Zn2)n'
_symmetry_cell_setting           triclinic
_symmetry_space_group_name_H-M   'P 1'
_symmetry_Int_Tables_number      1
_space_group_name_Hall           'P 1'
loop_
_symmetry_equiv_pos_site_id
_symmetry_equiv_pos_as_xyz
1 x,y,z
_cell_length_a                   15.9714(12)
_cell_length_b                   16.6296(12)
_cell_length_c                   8.8759(6)
_cell_angle_alpha                90
_cell_angle_beta                 94.348(4)
_cell_angle_gamma                90
_cell_volume                     2350.64
loop_
_atom_site_label
_atom_site_type_symbol
_atom_site_fract_x
_atom_site_fract_y
_atom_site_fract_z
Zn1 Zn 0.38357(3) 0.51614(3) 0.37718(6)
O1 O 0.3420(2) 0.4149(2) 0.2857(4)
O2 O 0.4684(2) 0.3620(3) 0.3440(6)
O3 O 0.52760(19) 0.0855(2) 0.1925(4)
O4 O 0.4238(2) 0.00827(19) 0.0913(4)
C1 C 0.3938(3) 0.3573(3) 0.2943(7)
C2 C 0.3611(3) 0.2754(3) 0.2439(6)
C3 C 0.4176(3) 0.2142(3) 0.2249(6)
H1 H 0.4748 0.2232 0.2462
C4 C 0.3896(3) 0.1394(3) 0.1742(6)
C5 C 0.3041(3) 0.1258(3) 0.1436(5)
H2 H 0.2857 0.0759 0.1073
C6 C 0.2458(3) 0.1860(3) 0.1668(6)
C7 C 0.2757(3) 0.2607(3) 0.2163(6)
H3 H 0.2377 0.3018 0.2313
C8 C 0.4516(3) 0.0727(3) 0.1484(5)
C9 C 0.1544(3) 0.1689(3) 0.1426(6)
C10 C 0.0990(3) 0.1982(3) 0.2397(6)
H4 H 0.1190 0.2317 0.3183
C11 C 0.0122(3) 0.1792(3) 0.2244(6)
C17 C 0.0388(3) 0.1012(3) 0.0016(5)
C18 C 0.1224(3) 0.1199(3) 0.0219(5)
Zn3 Zn 0.61643(3) 0.01614(3) 0.12282(6)
O7 O 0.47240(19) 0.5855(2) 0.3075(4)
O8 O 0.4238(2) 0.49173(19) 0.5913(4)
O9 O 0.2775(2) 0.5693(2) 0.4241(5)
Zn4 Zn 0.38357(3) 0.98386(3) 0.87718(6)
O5 O 0.7225(2) 0.0693(2) 0.0759(5)
O6 O 0.7139(2) 0.1099(3) 0.3070(5)
C12 C 0.9562(3) 0.2055(4) 0.3299(7)
H5 H 0.9755 0.2389 0.4090
C13 C 0.8738(3) 0.1823(4) 0.3167(7)
H6 H 0.8381 0.1992 0.3885
C14 C 0.8418(3) 0.1329(3) 0.1960(6)
C15 C 0.8944(3) 0.1087(3) 0.0910(6)
H7 H 0.8733 0.0775 0.0099
C16 C 0.9809(3) 0.1300(3) 0.1025(5)
C19 C 0.7519(3) 0.1033(3) 0.1931(7)
O6_2 O 0.2861(2) 0.6099(3) 0.1930(5)
C12_2 C 0.0438(3) 0.7055(4) 0.1701(7)
H5_2 H 0.0245 0.7389 0.0910
C13_2 C 0.1262(3) 0.6823(4) 0.1833(7)
H6_2 H 0.1619 0.6992 0.1115
C14_2 C 0.1582(3) 0.6329(3) 0.3040(6)
C15_2 C 0.1056(3) 0.6087(3) 0.4090(6)
H7_2 H 0.1267 0.5775 0.4901
C16_2 C 0.0191(3) 0.6300(3) 0.3975(5)
C19_2 C 0.2481(3) 0.6033(3) 0.3069(7)
O1_2 O 0.6580(2) 0.9149(2) 0.2143(4)
O2_2 O 0.5316(2) 0.8620(3) 0.1560(6)
O4_2 O 0.5762(2) 0.50827(19) 0.4087(4)
C1_2 C 0.6062(3) 0.8573(3) 0.2057(7)
C2_2 C 0.6389(3) 0.7754(3) 0.2561(6)
C3_2 C 0.5824(3) 0.7142(3) 0.2751(6)
H1_2 H 0.5252 0.7232 0.2538
C4_2 C 0.6104(3) 0.6394(3) 0.3258(6)
C5_2 C 0.6959(3) 0.6258(3) 0.3564(5)
H2_2 H 0.7143 0.5759 0.3927
C6_2 C 0.7542(3) 0.6860(3) 0.3332(6)
C7_2 C 0.7243(3) 0.7607(3) 0.2837(6)
H3_2 H 0.7623 0.8018 0.2687
C8_2 C 0.5484(3) 0.5727(3) 0.3516(5)
C9_2 C 0.8456(3) 0.6689(3) 0.3574(6)
C10_2 C 0.9010(3) 0.6982(3) 0.2603(6)
H4_2 H 0.8810 0.7317 0.1817
C11_2 C 0.9878(3) 0.6792(3) 0.2756(6)
C17_2 C 0.9612(3) 0.6012(3) 0.4984(5)
H8 H 0.9803 0.5692 0.5797
C18_2 C 0.8776(3) 0.6199(3) 0.4781(5)
H9 H 0.8410 0.5997 0.5455
Zn4_2 Zn 0.61643(3) 0.48386(3) 0.62282(6)
O8_2 O 0.5762(2) 0.99173(19) 0.9087(4)
O5_2 O 0.2775(2) 0.9307(2) 0.9241(5)
O6_3 O 0.2861(2) 0.8901(3) 0.6930(5)
C12_3 C 0.0438(3) 0.7945(4) 0.6701(7)
H5_3 H 0.0245 0.7611 0.5910
C13_3 C 0.1262(3) 0.8177(4) 0.6833(7)
H6_3 H 0.1619 0.8008 0.6115
C14_3 C 0.1582(3) 0.8671(3) 0.8040(6)
C15_3 C 0.1056(3) 0.8913(3) 0.9090(6)
H7_3 H 0.1267 0.9225 0.9901
C16_3 C 0.0191(3) 0.8700(3) 0.8975(5)
C19_3 C 0.2481(3) 0.8967(3) 0.8069(7)
O1_3 O 0.6580(2) 0.5851(2) 0.7143(4)
O2_3 O 0.5316(2) 0.6380(3) 0.6560(6)
O3_2 O 0.47240(19) 0.9145(2) 0.8075(4)
C1_3 C 0.6062(3) 0.6427(3) 0.7057(7)
C2_3 C 0.6389(3) 0.7246(3) 0.7561(6)
C3_3 C 0.5824(3) 0.7858(3) 0.7751(6)
H1_3 H 0.5252 0.7768 0.7538
C4_3 C 0.6104(3) 0.8606(3) 0.8258(6)
C5_3 C 0.6959(3) 0.8742(3) 0.8564(5)
H2_3 H 0.7143 0.9241 0.8927
C6_3 C 0.7542(3) 0.8140(3) 0.8332(6)
C7_3 C 0.7243(3) 0.7393(3) 0.7837(6)
H3_3 H 0.7623 0.6982 0.7687
C8_3 C 0.5484(3) 0.9273(3) 0.8516(5)
C9_3 C 0.8456(3) 0.8311(3) 0.8574(6)
C10_3 C 0.9010(3) 0.8018(3) 0.7603(6)
H4_3 H 0.8810 0.7683 0.6817
C11_3 C 0.9878(3) 0.8208(3) 0.7756(6)
C17_3 C 0.9612(3) 0.8988(3) 0.9984(5)
C18_3 C 0.8776(3) 0.8801(3) 0.9781(5)
O7_2 O 0.52760(19) 0.4145(2) 0.6925(4)
O9_2 O 0.7225(2) 0.4307(2) 0.5759(5)
O1_4 O 0.3420(2) 0.0851(2) 0.7857(4)
O2_4 O 0.4684(2) 0.1380(3) 0.8440(6)
C1_4 C 0.3938(3) 0.1427(3) 0.7943(7)
C2_4 C 0.3611(3) 0.2246(3) 0.7439(6)
C3_4 C 0.4176(3) 0.2858(3) 0.7249(6)
H1_4 H 0.4748 0.2768 0.7462
C4_4 C 0.3896(3) 0.3606(3) 0.6742(6)
C5_4 C 0.3041(3) 0.3742(3) 0.6436(5)
H2_4 H 0.2857 0.4241 0.6073
C6_4 C 0.2458(3) 0.3140(3) 0.6668(6)
C7_4 C 0.2757(3) 0.2393(3) 0.7163(6)
H3_4 H 0.2377 0.1982 0.7313
C8_4 C 0.4516(3) 0.4273(3) 0.6484(5)
C9_4 C 0.1544(3) 0.3311(3) 0.6426(6)
C10_4 C 0.0990(3) 0.3018(3) 0.7397(6)
H4_4 H 0.1190 0.2683 0.8183
C11_4 C 0.0122(3) 0.3208(3) 0.7244(6)
C17_4 C 0.0388(3) 0.3988(3) 0.5016(5)
H8_2 H 0.0197 0.4308 0.4203
C18_4 C 0.1224(3) 0.3801(3) 0.5219(5)
H9_2 H 0.1590 0.4003 0.4545
O6_4 O 0.7139(2) 0.3901(3) 0.8070(5)
C12_4 C 0.9562(3) 0.2945(4) 0.8299(7)
H5_4 H 0.9755 0.2611 0.9090
C13_4 C 0.8738(3) 0.3177(4) 0.8167(7)
H6_4 H 0.8381 0.3008 0.8885
C14_4 C 0.8418(3) 0.3671(3) 0.6960(6)
C15_4 C 0.8944(3) 0.3913(3) 0.5910(6)
H7_4 H 0.8733 0.4225 0.5099
C16_4 C 0.9809(3) 0.3700(3) 0.6025(5)
C19_4 C 0.7519(3) 0.3967(3) 0.6931(7)
H8_3 H 0.0197 0.0692 0.9203
H9_3 H 0.1590 0.0997 0.9545
H8_4 H 0.9803 0.9308 0.0797
H9_4 H 0.8410 0.9003 0.0455
loop_
_geom_bond_atom_site_label_1
_geom_bond_atom_site_label_2
_geom_bond_site_symmetry_1
_geom_bond_site_symmetry_2
Zn1 O1 1_555 1_555
O1 C1 1_555 1_555
O2 C1 1_555 1_555
O3 C8 1_555 1_555
O4 C8 1_555 1_555
C1 C2 1_555 1_555
C2 C3 1_555 1_555
C3 H1 1_555 1_555
C4 C3 1_555 1_555
C5 C4 1_555 1_555
H2 C5 1_555 1_555
C6 C5 1_555 1_555
C7 C2 1_555 1_555
H3 C7 1_555 1_555
C8 C4 1_555 1_555
C9 C6 1_555 1_555
C10 C9 1_555 1_555
H4 C10 1_555 1_555
C11 C10 1_555 1_555
C18 C9 1_555 1_555
Zn3 O3 1_555 1_555
O7 Zn1 1_555 1_555
O8 Zn1 1_555 1_555
O9 Zn1 1_555 1_555
C6 C7 1_555 1_555
C17 C18 1_555 1_555
O5 C19 1_555 1_555
O6 C19 1_555 1_555
H5 C12 1_555 1_555
C13 C12 1_555 1_555
H6 C13 1_555 1_555
C14 C13 1_555 1_555
C15 C14 1_555 1_555
H7 C15 1_555 1_555
C19 C14 1_555 1_555
Zn3 O5 1_555 1_555
C15 C16 1_555 1_555
O9 C19_2 1_555 1_555
O6_2 C19_2 1_555 1_555
H5_2 C12_2 1_555 1_555
C13_2 C12_2 1_555 1_555
H6_2 C13_2 1_555 1_555
C14_2 C13_2 1_555 1_555
C15_2 C14_2 1_555 1_555
H7_2 C15_2 1_555 1_555
C19_2 C14_2 1_555 1_555
C15_2 C16_2 1_555 1_555
O1_2 C1_2 1_555 1_555
O2_2 C1_2 1_555 1_555
O7 C8_2 1_555 1_555
O4_2 C8_2 1_555 1_555
C1_2 C2_2 1_555 1_555
C2_2 C3_2 1_555 1_555
C3_2 H1_2 1_555 1_555
C4_2 C3_2 1_555 1_555
C5_2 C4_2 1_555 1_555
H2_2 C5_2 1_555 1_555
C6_2 C5_2 1_555 1_555
C7_2 C2_2 1_555 1_555
H3_2 C7_2 1_555 1_555
C8_2 C4_2 1_555 1_555
C9_2 C6_2 1_555 1_555
C10_2 C9_2 1_555 1_555
H4_2 C10_2 1_555 1_555
C11_2 C10_2 1_555 1_555
H8 C17_2 1_555 1_555
C18_2 C9_2 1_555 1_555
H9 C18_2 1_555 1_555
Zn4_2 O4_2 1_555 1_555
C6_2 C7_2 1_555 1_555
C17_2 C18_2 1_555 1_555
O5_2 C19_3 1_555 1_555
O6_3 C19_3 1_555 1_555
H5_3 C12_3 1_555 1_555
C13_3 C12_3 1_555 1_555
H6_3 C13_3 1_555 1_555
C14_3 C13_3 1_555 1_555
C15_3 C14_3 1_555 1_555
H7_3 C15_3 1_555 1_555
C19_3 C14_3 1_555 1_555
Zn4 O5_2 1_555 1_555
C15_3 C16_3 1_555 1_555
Zn4_2 O1_3 1_555 1_555
O1_3 C1_3 1_555 1_555
O2_3 C1_3 1_555 1_555
O3_2 C8_3 1_555 1_555
O8_2 C8_3 1_555 1_555
C1_3 C2_3 1_555 1_555
C2_3 C3_3 1_555 1_555
C3_3 H1_3 1_555 1_555
C4_3 C3_3 1_555 1_555
C5_3 C4_3 1_555 1_555
H2_3 C5_3 1_555 1_555
C6_3 C5_3 1_555 1_555
C7_3 C2_3 1_555 1_555
H3_3 C7_3 1_555 1_555
C8_3 C4_3 1_555 1_555
C9_3 C6_3 1_555 1_555
C10_3 C9_3 1_555 1_555
H4_3 C10_3 1_555 1_555
C11_3 C10_3 1_555 1_555
C18_3 C9_3 1_555 1_555
Zn4 O3_2 1_555 1_555
O7_2 Zn4_2 1_555 1_555
O9_2 Zn4_2 1_555 1_555
C6_3 C7_3 1_555 1_555
C17_3 C18_3 1_555 1_555
O1_4 C1_4 1_555 1_555
O2_4 C1_4 1_555 1_555
O7_2 C8_4 1_555 1_555
O8 C8_4 1_555 1_555
C1_4 C2_4 1_555 1_555
C2_4 C3_4 1_555 1_555
C3_4 H1_4 1_555 1_555
C4_4 C3_4 1_555 1_555
C5_4 C4_4 1_555 1_555
H2_4 C5_4 1_555 1_555
C6_4 C5_4 1_555 1_555
C7_4 C2_4 1_555 1_555
H3_4 C7_4 1_555 1_555
C8_4 C4_4 1_555 1_555
C9_4 C6_4 1_555 1_555
C10_4 C9_4 1_555 1_555
H4_4 C10_4 1_555 1_555
C11_4 C10_4 1_555 1_555
H8_2 C17_4 1_555 1_555
C18_4 C9_4 1_555 1_555
H9_2 C18_4 1_555 1_555
C6_4 C7_4 1_555 1_555
C17_4 C18_4 1_555 1_555
O9_2 C19_4 1_555 1_555
O6_4 C19_4 1_555 1_555
H5_4 C12_4 1_555 1_555
C13_4 C12_4 1_555 1_555
H6_4 C13_4 1_555 1_555
C14_4 C13_4 1_555 1_555
C15_4 C14_4 1_555 1_555
H7_4 C15_4 1_555 1_555
C19_4 C14_4 1_555 1_555
C15_4 C16_4 1_555 1_555

#END
