
###############################################################################
#
# This file contains modified crystal structure data generated from the
# MOF subset of the Cambridge Structural Database (CSD) v543 
# hosted by the Cambridge Crystallographic Data Centre (CCDC).
#
# This work is licensed under the Creative Commons
# Attribution-NonCommercial-ShareAlike 4.0 International License.
# To view a copy of this license, visit
# http://creativecommons.org/licenses/by-nc-sa/4.0/
# or send a letter to
# Creative Commons, PO Box 1866, Mountain View, CA 94042, USA.
#
# CIF created using the CSD Python API on 29 September 2022
# The structure has been converted into the P1 space group
# The structure has a 3D framework
# The original CSD entry EZINEI is in the monoclinic crystal system
# The framework has been calculated to contain at least 10.0% void space
# The void calculation uses a probe of radius 1.32A, grid spacing 0.4
#
###############################################################################

data_EZINEI
_chemical_formula_moiety         '(C76 H36 O20)n'
_symmetry_cell_setting           triclinic
_symmetry_space_group_name_H-M   'P 1'
_symmetry_Int_Tables_number      1
_space_group_name_Hall           'P 1'
loop_
_symmetry_equiv_pos_site_id
_symmetry_equiv_pos_as_xyz
1 x,y,z
_cell_length_a                   15.4038(5)
_cell_length_b                   16.9586(5)
_cell_length_c                   8.0713(3)
_cell_angle_alpha                90
_cell_angle_beta                 102.580(2)
_cell_angle_gamma                90
_cell_volume                     2057.82
loop_
_atom_site_label
_atom_site_type_symbol
_atom_site_fract_x
_atom_site_fract_y
_atom_site_fract_z
O3 O 0.1652(4) 0.4490(3) 0.1144(9)
O4 O 0.0249(4) 0.4059(3) 0.0387(7)
O5 O 0.7706(4) 0.0567(4) 0.7355(8)
O6 O 0.8260(3) 0.1235(3) 0.5477(7)
C1 C 0.1385(4) 0.3104(4) 0.1239(8)
C2 C 0.0825(5) 0.2515(4) 0.0516(8)
C3 C 0.1100(5) 0.1725(4) 0.0675(8)
C4 C 0.1941(4) 0.1544(4) 0.1625(8)
H2 H 0.2126 0.1020 0.1738
C5 C 0.2515(4) 0.2139(4) 0.2416(9)
C6 C 0.2246(5) 0.2921(4) 0.2200(9)
H3 H 0.2630 0.3323 0.2683
C7 C 0.1077(5) 0.3952(4) 0.0943(9)
C9 C 0.3414(4) 0.1907(4) 0.3396(9)
C10 C 0.3509(5) 0.1238(4) 0.4475(9)
H4 H 0.3002 0.0980 0.4643
C11 C 0.4334(5) 0.0962(4) 0.5279(9)
H5 H 0.4379 0.0526 0.5992
C12 C 0.5109(4) 0.1338(4) 0.5024(8)
C13 C 0.5964(4) 0.1040(4) 0.5742(9)
H6 H 0.6024 0.0595 0.6430
C14 C 0.6712(4) 0.1408(4) 0.5425(9)
C15 C 0.6631(5) 0.2076(4) 0.4394(9)
H7 H 0.7138 0.2312 0.4166
C16 C 0.5812(5) 0.2387(5) 0.3718(10)
H8 H 0.5766 0.2847 0.3077
C17 C 0.5031(5) 0.2014(4) 0.3986(9)
C18 C 0.4157(5) 0.2292(4) 0.3198(9)
H9 H 0.4100 0.2747 0.2537
C19 C 0.7622(5) 0.1039(4) 0.6143(9)
Pb4 Pb 0.927704(16) 0.025521(14) 0.69786(3)
O7 O 0.0837(4) 0.4591(3) 0.4683(8)
O1 O 0.0837(4) 0.0409(3) 0.9683(8)
H1 H 0.0255 0.2639 0.9912
C8 C 0.0533(5) 0.1103(4) 0.9704(9)
Pb2 Pb 0.072296(16) 0.525521(14) 0.80214(3)
Pb1 Pb 0.927704(16) 0.474479(14) 0.19786(3)
O8 O 0.9761(4) 0.3705(3) 0.3912(7)
O10 O 0.7706(4) 0.4433(4) 0.2355(8)
O11 O 0.8260(3) 0.3765(3) 0.0477(7)
O2 O 0.9761(4) 0.1295(3) 0.8912(7)
O9 O 0.8348(4) 0.5510(3) 0.8856(9)
O9_2 O 0.1652(4) 0.0510(3) 0.6144(9)
Pb1_2 Pb 0.072296(16) 0.974479(14) 0.30214(3)
O2_2 O 0.0239(4) 0.6295(3) 0.6088(7)
O8_2 O 0.0239(4) 0.8705(3) 0.1088(7)
O10_2 O 0.2294(4) 0.9433(4) 0.2645(8)
O11_2 O 0.1740(3) 0.8765(3) 0.4523(7)
O1_2 O 0.9163(4) 0.5409(3) 0.5317(8)
O3_2 O 0.8348(4) 0.9490(3) 0.3856(9)
O4_2 O 0.9751(4) 0.9059(3) 0.4613(7)
C1_2 C 0.8615(4) 0.8104(4) 0.3761(8)
C2_2 C 0.9175(5) 0.7515(4) 0.4484(8)
H1_2 H 0.9745 0.7639 0.5088
C3_2 C 0.8900(5) 0.6725(4) 0.4325(8)
C4_2 C 0.8059(4) 0.6544(4) 0.3375(8)
H2_2 H 0.7874 0.6020 0.3262
C5_2 C 0.7485(4) 0.7139(4) 0.2584(9)
C6_2 C 0.7754(5) 0.7921(4) 0.2800(9)
H3_2 H 0.7370 0.8323 0.2317
C7_2 C 0.8923(5) 0.8952(4) 0.4057(9)
C8_2 C 0.9467(5) 0.6103(4) 0.5296(9)
C9_2 C 0.6586(4) 0.6907(4) 0.1604(9)
C10_2 C 0.6491(5) 0.6238(4) 0.0525(9)
H4_2 H 0.6998 0.5980 0.0357
C15_2 C 0.3369(5) 0.7076(4) 0.0606(9)
H7_2 H 0.2862 0.7312 0.0834
C16_2 C 0.4188(5) 0.7387(5) 0.1282(10)
H8_2 H 0.4234 0.7847 0.1923
C17_2 C 0.4969(5) 0.7014(4) 0.1014(9)
C18_2 C 0.5843(5) 0.7292(4) 0.1802(9)
H9_2 H 0.5900 0.7747 0.2463
O7_2 O 0.9163(4) 0.9591(3) 0.0317(8)
O5_2 O 0.2294(4) 0.5567(4) 0.7645(8)
O6_2 O 0.1740(3) 0.6235(3) 0.9523(7)
C11_2 C 0.5666(5) 0.5962(4) 0.9721(9)
H5_2 H 0.5621 0.5526 0.9008
C12_2 C 0.4891(4) 0.6338(4) 0.9976(8)
C13_2 C 0.4036(4) 0.6040(4) 0.9258(9)
H6_2 H 0.3976 0.5595 0.8570
C14_2 C 0.3288(4) 0.6408(4) 0.9575(9)
C19_2 C 0.2378(5) 0.6039(4) 0.8857(9)
H1_3 H 0.9745 0.7361 0.0088
C8_3 C 0.9467(5) 0.8897(4) 0.0296(9)
O4_3 O 0.9751(4) 0.5941(3) 0.9613(7)
C1_3 C 0.8615(4) 0.6896(4) 0.8761(8)
C2_3 C 0.9175(5) 0.7485(4) 0.9484(8)
C3_3 C 0.8900(5) 0.8275(4) 0.9325(8)
C4_3 C 0.8059(4) 0.8456(4) 0.8375(8)
H2_3 H 0.7874 0.8980 0.8262
C5_3 C 0.7485(4) 0.7861(4) 0.7584(9)
C6_3 C 0.7754(5) 0.7079(4) 0.7800(9)
H3_3 H 0.7370 0.6677 0.7317
C7_3 C 0.8923(5) 0.6048(4) 0.9057(9)
C9_3 C 0.6586(4) 0.8093(4) 0.6604(9)
C10_3 C 0.6491(5) 0.8762(4) 0.5525(9)
H4_3 H 0.6998 0.9020 0.5357
C11_3 C 0.5666(5) 0.9038(4) 0.4721(9)
H5_3 H 0.5621 0.9474 0.4008
C12_3 C 0.4891(4) 0.8662(4) 0.4976(8)
C13_3 C 0.4036(4) 0.8960(4) 0.4258(9)
H6_3 H 0.3976 0.9405 0.3570
C14_3 C 0.3288(4) 0.8592(4) 0.4575(9)
C15_3 C 0.3369(5) 0.7924(4) 0.5606(9)
H7_3 H 0.2862 0.7688 0.5834
C16_3 C 0.4188(5) 0.7613(5) 0.6282(10)
H8_3 H 0.4234 0.7153 0.6923
C17_3 C 0.4969(5) 0.7986(4) 0.6014(9)
C18_3 C 0.5843(5) 0.7708(4) 0.6802(9)
H9_3 H 0.5900 0.7253 0.7463
C19_3 C 0.2378(5) 0.8961(4) 0.3857(9)
C11_4 C 0.4334(5) 0.4038(4) 0.0279(9)
H5_4 H 0.4379 0.4474 0.0992
C12_4 C 0.5109(4) 0.3662(4) 0.0024(8)
C13_4 C 0.5964(4) 0.3960(4) 0.0742(9)
H6_4 H 0.6024 0.4405 0.1430
C14_4 C 0.6712(4) 0.3592(4) 0.0425(9)
C19_4 C 0.7622(5) 0.3961(4) 0.1143(9)
O4_4 O 0.0249(4) 0.0941(3) 0.5387(7)
C1_4 C 0.1385(4) 0.1896(4) 0.6239(8)
C2_4 C 0.0825(5) 0.2485(4) 0.5516(8)
H1_4 H 0.0255 0.2361 0.4912
C3_4 C 0.1100(5) 0.3275(4) 0.5675(8)
C4_4 C 0.1941(4) 0.3456(4) 0.6625(8)
H2_4 H 0.2126 0.3980 0.6738
C5_4 C 0.2515(4) 0.2861(4) 0.7416(9)
C6_4 C 0.2246(5) 0.2079(4) 0.7200(9)
H3_4 H 0.2630 0.1677 0.7683
C7_4 C 0.1077(5) 0.1048(4) 0.5943(9)
C8_4 C 0.0533(5) 0.3897(4) 0.4704(9)
C9_4 C 0.3414(4) 0.3093(4) 0.8396(9)
C10_4 C 0.3509(5) 0.3762(4) 0.9475(9)
H4_4 H 0.3002 0.4020 0.9643
C15_4 C 0.6631(5) 0.2924(4) 0.9394(9)
H7_4 H 0.7138 0.2688 0.9166
C16_4 C 0.5812(5) 0.2613(5) 0.8718(10)
H8_4 H 0.5766 0.2153 0.8077
C17_4 C 0.5031(5) 0.2986(4) 0.8986(9)
C18_4 C 0.4157(5) 0.2708(4) 0.8198(9)
H9_4 H 0.4100 0.2253 0.7537
loop_
_geom_bond_atom_site_label_1
_geom_bond_atom_site_label_2
_geom_bond_site_symmetry_1
_geom_bond_site_symmetry_2
O3 C7 1_555 1_555
O4 C7 1_555 1_555
O5 C19 1_555 1_555
O6 C19 1_555 1_555
C1 C2 1_555 1_555
C3 C2 1_555 1_555
C4 C3 1_555 1_555
H2 C4 1_555 1_555
C5 C4 1_555 1_555
C6 C1 1_555 1_555
H3 C6 1_555 1_555
C7 C1 1_555 1_555
C9 C5 1_555 1_555
C10 C9 1_555 1_555
H4 C10 1_555 1_555
C11 C10 1_555 1_555
H5 C11 1_555 1_555
C12 C11 1_555 1_555
C13 C12 1_555 1_555
H6 C13 1_555 1_555
C14 C13 1_555 1_555
C15 C14 1_555 1_555
H7 C15 1_555 1_555
C16 C15 1_555 1_555
H8 C16 1_555 1_555
C17 C12 1_555 1_555
C18 C9 1_555 1_555
H9 C18 1_555 1_555
C19 C14 1_555 1_555
Pb4 O5 1_555 1_555
O6 Pb4 1_555 1_555
C5 C6 1_555 1_555
C16 C17 1_555 1_555
C17 C18 1_555 1_555
O1 C8 1_555 1_555
O8 Pb1 1_555 1_555
O10 Pb1 1_555 1_555
O11 Pb1 1_555 1_555
O2 Pb4 1_555 1_555
O8_2 Pb1_2 1_555 1_555
O10_2 Pb1_2 1_555 1_555
O11_2 Pb1_2 1_555 1_555
O2_2 Pb2 1_555 1_555
O1_2 C8_2 1_555 1_555
O3_2 C7_2 1_555 1_555
O4_2 C7_2 1_555 1_555
C1_2 C2_2 1_555 1_555
C2_2 H1_2 1_555 1_555
C3_2 C2_2 1_555 1_555
C4_2 C3_2 1_555 1_555
H2_2 C4_2 1_555 1_555
C5_2 C4_2 1_555 1_555
C6_2 C1_2 1_555 1_555
H3_2 C6_2 1_555 1_555
C7_2 C1_2 1_555 1_555
C8_2 C3_2 1_555 1_555
C9_2 C5_2 1_555 1_555
C10_2 C9_2 1_555 1_555
H4_2 C10_2 1_555 1_555
H7_2 C15_2 1_555 1_555
C16_2 C15_2 1_555 1_555
H8_2 C16_2 1_555 1_555
C18_2 C9_2 1_555 1_555
H9_2 C18_2 1_555 1_555
C5_2 C6_2 1_555 1_555
C16_2 C17_2 1_555 1_555
C17_2 C18_2 1_555 1_555
O5_2 C19_2 1_555 1_555
O6_2 C19_2 1_555 1_555
H5_2 C11_2 1_555 1_555
C12_2 C11_2 1_555 1_555
C13_2 C12_2 1_555 1_555
H6_2 C13_2 1_555 1_555
C14_2 C13_2 1_555 1_555
C19_2 C14_2 1_555 1_555
Pb2 O5_2 1_555 1_555
O6_2 Pb2 1_555 1_555
O7_2 C8_3 1_555 1_555
O9 C7_3 1_555 1_555
O4_3 C7_3 1_555 1_555
O10_2 C19_3 1_555 1_555
O11_2 C19_3 1_555 1_555
C1_3 C2_3 1_555 1_555
C3_3 C2_3 1_555 1_555
C4_3 C3_3 1_555 1_555
H2_3 C4_3 1_555 1_555
C5_3 C4_3 1_555 1_555
C6_3 C1_3 1_555 1_555
H3_3 C6_3 1_555 1_555
C7_3 C1_3 1_555 1_555
C9_3 C5_3 1_555 1_555
C10_3 C9_3 1_555 1_555
H4_3 C10_3 1_555 1_555
C11_3 C10_3 1_555 1_555
H5_3 C11_3 1_555 1_555
C12_3 C11_3 1_555 1_555
C13_3 C12_3 1_555 1_555
H6_3 C13_3 1_555 1_555
C14_3 C13_3 1_555 1_555
C15_3 C14_3 1_555 1_555
H7_3 C15_3 1_555 1_555
C16_3 C15_3 1_555 1_555
H8_3 C16_3 1_555 1_555
C17_3 C12_3 1_555 1_555
C18_3 C9_3 1_555 1_555
H9_3 C18_3 1_555 1_555
C19_3 C14_3 1_555 1_555
C5_3 C6_3 1_555 1_555
C16_3 C17_3 1_555 1_555
C17_3 C18_3 1_555 1_555
O10 C19_4 1_555 1_555
O11 C19_4 1_555 1_555
H5_4 C11_4 1_555 1_555
C12_4 C11_4 1_555 1_555
C13_4 C12_4 1_555 1_555
H6_4 C13_4 1_555 1_555
C14_4 C13_4 1_555 1_555
C19_4 C14_4 1_555 1_555
O7 C8_4 1_555 1_555
O9_2 C7_4 1_555 1_555
O4_4 C7_4 1_555 1_555
C1_4 C2_4 1_555 1_555
C2_4 H1_4 1_555 1_555
C3_4 C2_4 1_555 1_555
C4_4 C3_4 1_555 1_555
H2_4 C4_4 1_555 1_555
C5_4 C4_4 1_555 1_555
C6_4 C1_4 1_555 1_555
H3_4 C6_4 1_555 1_555
C7_4 C1_4 1_555 1_555
C8_4 C3_4 1_555 1_555
C9_4 C5_4 1_555 1_555
C10_4 C9_4 1_555 1_555
H4_4 C10_4 1_555 1_555
H7_4 C15_4 1_555 1_555
C16_4 C15_4 1_555 1_555
H8_4 C16_4 1_555 1_555
C18_4 C9_4 1_555 1_555
H9_4 C18_4 1_555 1_555
C5_4 C6_4 1_555 1_555
C16_4 C17_4 1_555 1_555
C17_4 C18_4 1_555 1_555

#END
