
###############################################################################
#
# This file contains modified crystal structure data generated from the
# MOF subset of the Cambridge Structural Database (CSD) v543 
# hosted by the Cambridge Crystallographic Data Centre (CCDC).
#
# This work is licensed under the Creative Commons
# Attribution-NonCommercial-ShareAlike 4.0 International License.
# To view a copy of this license, visit
# http://creativecommons.org/licenses/by-nc-sa/4.0/
# or send a letter to
# Creative Commons, PO Box 1866, Mountain View, CA 94042, USA.
#
# CIF created using the CSD Python API on 29 September 2022
# The structure has been converted into the P1 space group
# The structure has a 3D framework
# The original CSD entry EZUCOS is in the monoclinic crystal system
# The framework has been calculated to contain at least 10.0% void space
# The void calculation uses a probe of radius 1.32A, grid spacing 0.4
# H atom positions have been added when not included in the experimental data
#
###############################################################################

data_EZUCOS
_chemical_formula_moiety         '(C120 H96 Cd8 N32 O32)n'
_symmetry_cell_setting           triclinic
_symmetry_space_group_name_H-M   'P 1'
_symmetry_Int_Tables_number      1
_space_group_name_Hall           'P 1'
loop_
_symmetry_equiv_pos_site_id
_symmetry_equiv_pos_as_xyz
1 x,y,z
_cell_length_a                   25.4628(7)
_cell_length_b                   9.8868(3)
_cell_length_c                   20.2318(6)
_cell_angle_alpha                90
_cell_angle_beta                 123.974(3)
_cell_angle_gamma                90
_cell_volume                     4223.8
loop_
_atom_site_label
_atom_site_type_symbol
_atom_site_fract_x
_atom_site_fract_y
_atom_site_fract_z
O10 O 0.03247(17) 0.3544(4) 0.0204(2)
Cd4 Cd 0.079629(18) 0.33936(4) 0.56164(2)
C1 C 0.7299(3) 0.1411(6) 0.2089(4)
H1 H 0.7142 0.0752 0.2262
C2 C 0.7943(3) 0.1634(6) 0.2537(4)
H2 H 0.8208 0.1142 0.3001
C3 C 0.8195(3) 0.2613(6) 0.2286(3)
C4 C 0.7764(3) 0.3330(6) 0.1595(4)
H3 H 0.7906 0.3991 0.1404
C5 C 0.7134(3) 0.3057(7) 0.1203(4)
H4 H 0.6856 0.3574 0.0756
C6 C 0.9127(3) 0.3689(6) 0.1822(3)
C7 C 0.9281(3) 0.4821(6) 0.1546(3)
H5 H 0.9354 0.5658 0.1792
C8 C 0.9323(3) 0.4658(6) 0.0894(3)
H6 H 0.9426 0.5415 0.0716
C9 C 0.9105(3) 0.2415(6) 0.0807(4)
H7 H 0.9054 0.1585 0.0561
C10 C 0.9054(3) 0.2447(6) 0.1444(3)
H8 H 0.8973 0.1660 0.1624
C11 C 0.9326(3) 0.3680(6) 0.4049(3)
C12 C 0.9247(3) 0.2515(6) 0.3521(3)
C13 C 0.9533(3) 0.1347(6) 0.3814(4)
C14 C 0.9469(3) 0.0081(6) 0.3377(3)
H10 H 0.9116 0.0174 0.2825
N1 N 0.6887(2) 0.2083(5) 0.1421(3)
N2 N 0.8847(2) 0.2775(5) 0.2683(3)
N3 N 0.9059(2) 0.3868(5) 0.2444(3)
N4 N 0.9227(2) 0.3512(5) 0.0510(3)
O1 O 0.90184(17) 0.4731(4) 0.3692(2)
O2 O 0.96753(17) 0.3544(4) 0.4796(2)
Cd1 Cd 0.579629(18) 0.16064(4) 0.06164(2)
H11 H 0.982(3) 0.130(6) 0.441(4)
O12 O 0.5641(2) 0.2702(4) 0.1528(2)
O15 O 0.57172(18) 0.4018(4) 0.0705(2)
Cd3 Cd 0.920371(18) 0.66064(4) 0.43836(2)
H23 H 0.915992 0.477337 0.272675
C16 C 0.7701(3) 0.3589(6) 0.7911(4)
H12 H 0.7858 0.4248 0.7738
C17 C 0.7057(3) 0.3366(6) 0.7463(4)
H13 H 0.6792 0.3858 0.6999
C18 C 0.6805(3) 0.2387(6) 0.7714(3)
C19 C 0.7236(3) 0.1670(6) 0.8405(4)
H14 H 0.7094 0.1009 0.8596
C20 C 0.7866(3) 0.1943(7) 0.8797(4)
H15 H 0.8144 0.1426 0.9244
C21 C 0.5873(3) 0.1311(6) 0.8178(3)
C22 C 0.5719(3) 0.0179(6) 0.8454(3)
C23 C 0.5677(3) 0.0342(6) 0.9106(3)
C24 C 0.5895(3) 0.2585(6) 0.9193(4)
H18 H 0.5946 0.3415 0.9439
C25 C 0.5946(3) 0.2553(6) 0.8556(3)
H19 H 0.6027 0.3340 0.8376
C26 C 0.5674(3) 0.1320(6) 0.5951(3)
C27 C 0.5753(3) 0.2485(6) 0.6479(3)
C28 C 0.5467(3) 0.3653(6) 0.6186(4)
C29 C 0.5531(3) 0.4919(6) 0.6623(3)
H20 H 0.5150 0.5053 0.6614
H21 H 0.5884 0.4826 0.7175
C30 C 0.5639(3) 0.6148(6) 0.6265(3)
N5 N 0.8113(2) 0.2917(5) 0.8579(3)
N6 N 0.6153(2) 0.2225(5) 0.7317(3)
N7 N 0.5941(2) 0.1132(5) 0.7556(3)
N8 N 0.5773(2) 0.1488(5) 0.9490(3)
O5 O 0.59816(17) 0.0269(4) 0.6308(2)
O7 O 0.90184(17) 0.5269(4) 0.8692(2)
O8 O 0.53247(17) 0.1456(4) 0.5204(2)
O9 O 0.46753(17) 0.1456(4) 0.9796(2)
O11 O 0.5641(2) 0.7298(4) 0.6528(2)
O13 O 0.9359(2) 0.2298(4) 0.8472(2)
O14 O 0.57172(18) 0.5982(4) 0.5705(2)
O16 O 0.92828(18) 0.0982(4) 0.9295(2)
Cd2 Cd 0.920371(18) 0.33936(4) 0.93836(2)
Cd7 Cd 0.420371(18) 0.16064(4) 0.43836(2)
Cd8 Cd 0.579629(18) 0.83936(4) 0.56164(2)
H22 H 0.518(3) 0.370(6) 0.559(4)
H24 H 0.584008 0.022663 0.727325
H9 H 0.9850 0.9947 0.3386
C15 C 0.9361(3) 0.8852(6) 0.3735(3)
O3 O 0.9359(2) 0.7702(4) 0.3472(2)
O4 O 0.92828(18) 0.9018(4) 0.4295(2)
O6 O 0.59816(17) 0.9731(4) 0.1308(2)
H16 H 0.5646 0.9342 0.8208
H17 H 0.5574 0.9585 0.9284
C1_2 C 0.2701(3) 0.1411(6) 0.2911(4)
H1_2 H 0.2858 0.0752 0.2738
C2_2 C 0.2057(3) 0.1634(6) 0.2463(4)
H2_2 H 0.1792 0.1142 0.1999
C3_2 C 0.1805(3) 0.2613(6) 0.2714(3)
C4_2 C 0.2236(3) 0.3330(6) 0.3405(4)
H3_2 H 0.2094 0.3991 0.3596
C5_2 C 0.2866(3) 0.3057(7) 0.3797(4)
H4_2 H 0.3144 0.3574 0.4244
C6_2 C 0.0873(3) 0.3689(6) 0.3178(3)
C7_2 C 0.0719(3) 0.4821(6) 0.3454(3)
H5_2 H 0.0646 0.5658 0.3208
C8_2 C 0.0677(3) 0.4658(6) 0.4106(3)
H6_2 H 0.0574 0.5415 0.4284
C9_2 C 0.0895(3) 0.2415(6) 0.4193(4)
H7_2 H 0.0946 0.1585 0.4439
C10_2 C 0.0946(3) 0.2447(6) 0.3556(3)
H8_2 H 0.1027 0.1660 0.3376
C11_2 C 0.0674(3) 0.3680(6) 0.0951(3)
C12_2 C 0.0753(3) 0.2515(6) 0.1479(3)
C13_2 C 0.0467(3) 0.1347(6) 0.1186(4)
C14_2 C 0.0531(3) 0.0081(6) 0.1623(3)
H10_2 H 0.0884 0.0174 0.2175
N1_2 N 0.3113(2) 0.2083(5) 0.3579(3)
N2_2 N 0.1153(2) 0.2775(5) 0.2317(3)
N3_2 N 0.0941(2) 0.3868(5) 0.2556(3)
N4_2 N 0.0773(2) 0.3512(5) 0.4490(3)
O1_2 O 0.09816(17) 0.4731(4) 0.1308(2)
H11_2 H 0.018(3) 0.130(6) 0.059(4)
C16_2 C 0.2299(3) 0.3589(6) 0.7089(4)
H12_2 H 0.2142 0.4248 0.7262
C17_2 C 0.2943(3) 0.3366(6) 0.7537(4)
H13_2 H 0.3208 0.3858 0.8001
C18_2 C 0.3195(3) 0.2387(6) 0.7286(3)
C19_2 C 0.2764(3) 0.1670(6) 0.6595(4)
H14_2 H 0.2906 0.1009 0.6404
C20_2 C 0.2134(3) 0.1943(7) 0.6203(4)
H15_2 H 0.1856 0.1426 0.5756
C21_2 C 0.4127(3) 0.1311(6) 0.6822(3)
C22_2 C 0.4281(3) 0.0179(6) 0.6546(3)
C23_2 C 0.4323(3) 0.0342(6) 0.5894(3)
C24_2 C 0.4105(3) 0.2585(6) 0.5807(4)
H18_2 H 0.4054 0.3415 0.5561
C25_2 C 0.4054(3) 0.2553(6) 0.6444(3)
H19_2 H 0.3973 0.3340 0.6624
C26_2 C 0.4326(3) 0.1320(6) 0.9049(3)
C27_2 C 0.4247(3) 0.2485(6) 0.8521(3)
C28_2 C 0.4533(3) 0.3653(6) 0.8814(4)
C29_2 C 0.4469(3) 0.4919(6) 0.8377(3)
H20_2 H 0.4850 0.5053 0.8386
H21_2 H 0.4116 0.4826 0.7825
C30_2 C 0.4361(3) 0.6148(6) 0.8735(3)
N5_2 N 0.1887(2) 0.2917(5) 0.6421(3)
N6_2 N 0.3847(2) 0.2225(5) 0.7683(3)
N7_2 N 0.4059(2) 0.1132(5) 0.7444(3)
N8_2 N 0.4227(2) 0.1488(5) 0.5510(3)
O5_2 O 0.40184(17) 0.0269(4) 0.8692(2)
O7_2 O 0.09816(17) 0.5269(4) 0.6308(2)
O11_2 O 0.4359(2) 0.7298(4) 0.8472(2)
O12_2 O 0.4359(2) 0.2702(4) 0.3472(2)
O13_2 O 0.0641(2) 0.2298(4) 0.6528(2)
O14_2 O 0.42828(18) 0.5982(4) 0.9295(2)
O15_2 O 0.42828(18) 0.4018(4) 0.4295(2)
O16_2 O 0.07172(18) 0.0982(4) 0.5705(2)
Cd3_2 Cd 0.079629(18) 0.66064(4) 0.06164(2)
Cd8_2 Cd 0.420371(18) 0.83936(4) 0.93836(2)
H22_2 H 0.482(3) 0.370(6) 0.941(4)
H23_2 H 0.0840081 0.477337 0.227325
H24_2 H 0.415992 0.022663 0.772675
H9_2 H 0.0150 0.9947 0.1614
C15_2 C 0.0639(3) 0.8852(6) 0.1265(3)
O3_2 O 0.0641(2) 0.7702(4) 0.1528(2)
O4_2 O 0.07172(18) 0.9018(4) 0.0705(2)
H16_2 H 0.4354 0.9342 0.6792
H17_2 H 0.4426 0.9585 0.5716
O6_2 O 0.40184(17) 0.9731(4) 0.3692(2)
H5_3 H 0.4354 0.0658 0.1792
H6_3 H 0.4426 0.0415 0.0716
H20_3 H 0.0150 0.0053 0.6614
C30_3 C 0.0639(3) 0.1148(6) 0.6265(3)
C1_3 C 0.2299(3) 0.6411(6) 0.2089(4)
H1_3 H 0.2142 0.5752 0.2262
C2_3 C 0.2943(3) 0.6634(6) 0.2537(4)
H2_3 H 0.3208 0.6142 0.3001
C3_3 C 0.3195(3) 0.7613(6) 0.2286(3)
C4_3 C 0.2764(3) 0.8330(6) 0.1595(4)
H3_3 H 0.2906 0.8991 0.1404
C5_3 C 0.2134(3) 0.8057(7) 0.1203(4)
H4_3 H 0.1856 0.8574 0.0756
C6_3 C 0.4127(3) 0.8689(6) 0.1822(3)
C7_3 C 0.4281(3) 0.9821(6) 0.1546(3)
C8_3 C 0.4323(3) 0.9658(6) 0.0894(3)
C9_3 C 0.4105(3) 0.7415(6) 0.0807(4)
H7_3 H 0.4054 0.6585 0.0561
C10_3 C 0.4054(3) 0.7447(6) 0.1444(3)
H8_3 H 0.3973 0.6660 0.1624
C11_3 C 0.4326(3) 0.8680(6) 0.4049(3)
C12_3 C 0.4247(3) 0.7515(6) 0.3521(3)
C13_3 C 0.4533(3) 0.6347(6) 0.3814(4)
C14_3 C 0.4469(3) 0.5081(6) 0.3377(3)
H9_3 H 0.4850 0.4947 0.3386
H10_3 H 0.4116 0.5174 0.2825
C15_3 C 0.4361(3) 0.3852(6) 0.3735(3)
N1_3 N 0.1887(2) 0.7083(5) 0.1421(3)
N2_3 N 0.3847(2) 0.7775(5) 0.2683(3)
N3_3 N 0.4059(2) 0.8868(5) 0.2444(3)
N4_3 N 0.4227(2) 0.8512(5) 0.0510(3)
O2_2 O 0.46753(17) 0.8544(4) 0.4796(2)
H11_3 H 0.482(3) 0.630(6) 0.441(4)
O10_2 O 0.53247(17) 0.8544(4) 0.0204(2)
H23_3 H 0.415992 0.977337 0.272675
C16_3 C 0.2701(3) 0.8589(6) 0.7911(4)
H12_3 H 0.2858 0.9248 0.7738
C17_3 C 0.2057(3) 0.8366(6) 0.7463(4)
H13_3 H 0.1792 0.8858 0.6999
C18_3 C 0.1805(3) 0.7387(6) 0.7714(3)
C19_3 C 0.2236(3) 0.6670(6) 0.8405(4)
H14_3 H 0.2094 0.6009 0.8596
C20_3 C 0.2866(3) 0.6943(7) 0.8797(4)
H15_3 H 0.3144 0.6426 0.9244
C21_3 C 0.0873(3) 0.6311(6) 0.8178(3)
C22_3 C 0.0719(3) 0.5179(6) 0.8454(3)
H16_3 H 0.0646 0.4342 0.8208
C23_3 C 0.0677(3) 0.5342(6) 0.9106(3)
H17_3 H 0.0574 0.4585 0.9284
C24_3 C 0.0895(3) 0.7585(6) 0.9193(4)
H18_3 H 0.0946 0.8415 0.9439
C25_3 C 0.0946(3) 0.7553(6) 0.8556(3)
H19_3 H 0.1027 0.8340 0.8376
C26_3 C 0.0674(3) 0.6320(6) 0.5951(3)
C27_3 C 0.0753(3) 0.7485(6) 0.6479(3)
C28_3 C 0.0467(3) 0.8653(6) 0.6186(4)
C29_3 C 0.0531(3) 0.9919(6) 0.6623(3)
H21_3 H 0.0884 0.9826 0.7175
N5_3 N 0.3113(2) 0.7917(5) 0.8579(3)
N6_3 N 0.1153(2) 0.7225(5) 0.7317(3)
N7_3 N 0.0941(2) 0.6132(5) 0.7556(3)
N8_3 N 0.0773(2) 0.6488(5) 0.9490(3)
O8_2 O 0.03247(17) 0.6456(4) 0.5204(2)
H22_3 H 0.018(3) 0.870(6) 0.559(4)
H24_3 H 0.0840081 0.522663 0.727325
O9_2 O 0.96753(17) 0.6456(4) 0.9796(2)
H5_4 H 0.5646 0.0658 0.3208
H6_4 H 0.5574 0.0415 0.4284
H20_4 H 0.9850 0.0053 0.8386
C30_4 C 0.9361(3) 0.1148(6) 0.8735(3)
C1_4 C 0.7701(3) 0.6411(6) 0.2911(4)
H1_4 H 0.7858 0.5752 0.2738
C2_4 C 0.7057(3) 0.6634(6) 0.2463(4)
H2_4 H 0.6792 0.6142 0.1999
C3_4 C 0.6805(3) 0.7613(6) 0.2714(3)
C4_4 C 0.7236(3) 0.8330(6) 0.3405(4)
H3_4 H 0.7094 0.8991 0.3596
C5_4 C 0.7866(3) 0.8057(7) 0.3797(4)
H4_4 H 0.8144 0.8574 0.4244
C6_4 C 0.5873(3) 0.8689(6) 0.3178(3)
C7_4 C 0.5719(3) 0.9821(6) 0.3454(3)
C8_4 C 0.5677(3) 0.9658(6) 0.4106(3)
C9_4 C 0.5895(3) 0.7415(6) 0.4193(4)
H7_4 H 0.5946 0.6585 0.4439
C10_4 C 0.5946(3) 0.7447(6) 0.3556(3)
H8_4 H 0.6027 0.6660 0.3376
C11_4 C 0.5674(3) 0.8680(6) 0.0951(3)
C12_4 C 0.5753(3) 0.7515(6) 0.1479(3)
C13_4 C 0.5467(3) 0.6347(6) 0.1186(4)
C14_4 C 0.5531(3) 0.5081(6) 0.1623(3)
H9_4 H 0.5150 0.4947 0.1614
H10_4 H 0.5884 0.5174 0.2175
C15_4 C 0.5639(3) 0.3852(6) 0.1265(3)
N1_4 N 0.8113(2) 0.7083(5) 0.3579(3)
N2_4 N 0.6153(2) 0.7775(5) 0.2317(3)
N3_4 N 0.5941(2) 0.8868(5) 0.2556(3)
N4_4 N 0.5773(2) 0.8512(5) 0.4490(3)
H11_4 H 0.518(3) 0.630(6) 0.059(4)
C16_4 C 0.7299(3) 0.8589(6) 0.7089(4)
H12_4 H 0.7142 0.9248 0.7262
C17_4 C 0.7943(3) 0.8366(6) 0.7537(4)
H13_4 H 0.8208 0.8858 0.8001
C18_4 C 0.8195(3) 0.7387(6) 0.7286(3)
C19_4 C 0.7764(3) 0.6670(6) 0.6595(4)
H14_4 H 0.7906 0.6009 0.6404
C20_4 C 0.7134(3) 0.6943(7) 0.6203(4)
H15_4 H 0.6856 0.6426 0.5756
C21_4 C 0.9127(3) 0.6311(6) 0.6822(3)
C22_4 C 0.9281(3) 0.5179(6) 0.6546(3)
H16_4 H 0.9354 0.4342 0.6792
C23_4 C 0.9323(3) 0.5342(6) 0.5894(3)
H17_4 H 0.9426 0.4585 0.5716
C24_4 C 0.9105(3) 0.7585(6) 0.5807(4)
H18_4 H 0.9054 0.8415 0.5561
C25_4 C 0.9054(3) 0.7553(6) 0.6444(3)
H19_4 H 0.8973 0.8340 0.6624
C26_4 C 0.9326(3) 0.6320(6) 0.9049(3)
C27_4 C 0.9247(3) 0.7485(6) 0.8521(3)
C28_4 C 0.9533(3) 0.8653(6) 0.8814(4)
C29_4 C 0.9469(3) 0.9919(6) 0.8377(3)
H21_4 H 0.9116 0.9826 0.7825
N5_4 N 0.6887(2) 0.7917(5) 0.6421(3)
N6_4 N 0.8847(2) 0.7225(5) 0.7683(3)
N7_4 N 0.9059(2) 0.6132(5) 0.7444(3)
N8_4 N 0.9227(2) 0.6488(5) 0.5510(3)
H22_4 H 0.982(3) 0.870(6) 0.941(4)
H23_4 H 0.584008 0.977337 0.227325
H24_4 H 0.915992 0.522663 0.772675
loop_
_geom_bond_atom_site_label_1
_geom_bond_atom_site_label_2
_geom_bond_site_symmetry_1
_geom_bond_site_symmetry_2
C1 H1 1_555 1_555
C2 C1 1_555 1_555
H2 C2 1_555 1_555
C3 C2 1_555 1_555
C4 C3 1_555 1_555
H3 C4 1_555 1_555
C5 C4 1_555 1_555
H4 C5 1_555 1_555
C6 C7 1_555 1_555
C7 H5 1_555 1_555
C8 C7 1_555 1_555
H6 C8 1_555 1_555
C9 H7 1_555 1_555
C10 C6 1_555 1_555
H8 C10 1_555 1_555
C11 C12 1_555 1_555
C12 C13 1_555 1_555
C13 C14 1_555 1_555
H10 C14 1_555 1_555
N1 C1 1_555 1_555
N2 C3 1_555 1_555
N3 C6 1_555 1_555
N4 C8 1_555 1_555
O1 C11 1_555 1_555
O2 C11 1_555 1_555
Cd1 N1 1_555 1_555
H11 C13 1_555 1_555
O12 Cd1 1_555 1_555
O15 Cd1 1_555 1_555
Cd3 O1 1_555 1_555
C5 N1 1_555 1_555
C9 C10 1_555 1_555
C9 N4 1_555 1_555
C12 N2 1_555 1_555
N2 N3 1_555 1_555
N3 H23 1_555 1_555
C16 H12 1_555 1_555
C17 C16 1_555 1_555
H13 C17 1_555 1_555
C18 C17 1_555 1_555
C19 C18 1_555 1_555
H14 C19 1_555 1_555
C20 C19 1_555 1_555
H15 C20 1_555 1_555
C21 C22 1_555 1_555
C23 C22 1_555 1_555
C24 H18 1_555 1_555
C25 C21 1_555 1_555
H19 C25 1_555 1_555
C26 C27 1_555 1_555
C27 C28 1_555 1_555
C28 C29 1_555 1_555
C29 H20 1_555 1_555
H21 C29 1_555 1_555
C30 C29 1_555 1_555
N5 C16 1_555 1_555
N6 C18 1_555 1_555
N7 C21 1_555 1_555
O5 C26 1_555 1_555
O7 Cd2 1_555 1_555
O8 C26 1_555 1_555
O11 C30 1_555 1_555
O13 Cd2 1_555 1_555
O14 C30 1_555 1_555
O16 Cd2 1_555 1_555
Cd7 O8 1_555 1_555
Cd8 O11 1_555 1_555
H22 C28 1_555 1_555
C20 N5 1_555 1_555
C23 N8 1_555 1_555
C24 C25 1_555 1_555
C24 N8 1_555 1_555
C27 N6 1_555 1_555
N5 Cd2 1_555 1_555
N6 N7 1_555 1_555
O14 Cd8 1_555 1_555
N7 H24 1_555 1_555
O3 C15 1_555 1_555
O4 C15 1_555 1_555
Cd3 O3 1_555 1_555
O4 Cd3 1_555 1_555
C1_2 H1_2 1_555 1_555
C2_2 C1_2 1_555 1_555
H2_2 C2_2 1_555 1_555
C3_2 C2_2 1_555 1_555
C4_2 C3_2 1_555 1_555
H3_2 C4_2 1_555 1_555
C5_2 C4_2 1_555 1_555
H4_2 C5_2 1_555 1_555
C6_2 C7_2 1_555 1_555
C7_2 H5_2 1_555 1_555
C8_2 C7_2 1_555 1_555
H6_2 C8_2 1_555 1_555
C9_2 H7_2 1_555 1_555
C10_2 C6_2 1_555 1_555
H8_2 C10_2 1_555 1_555
C11_2 C12_2 1_555 1_555
C12_2 C13_2 1_555 1_555
C13_2 C14_2 1_555 1_555
H10_2 C14_2 1_555 1_555
N1_2 C1_2 1_555 1_555
N2_2 C3_2 1_555 1_555
N3_2 C6_2 1_555 1_555
N4_2 C8_2 1_555 1_555
O1_2 C11_2 1_555 1_555
O10 C11_2 1_555 1_555
Cd7 N1_2 1_555 1_555
H11_2 C13_2 1_555 1_555
C16_2 H12_2 1_555 1_555
C17_2 C16_2 1_555 1_555
H13_2 C17_2 1_555 1_555
C18_2 C17_2 1_555 1_555
C19_2 C18_2 1_555 1_555
H14_2 C19_2 1_555 1_555
C20_2 C19_2 1_555 1_555
H15_2 C20_2 1_555 1_555
C21_2 C22_2 1_555 1_555
C23_2 C22_2 1_555 1_555
C24_2 H18_2 1_555 1_555
C25_2 C21_2 1_555 1_555
H19_2 C25_2 1_555 1_555
C26_2 C27_2 1_555 1_555
C27_2 C28_2 1_555 1_555
C28_2 C29_2 1_555 1_555
C29_2 H20_2 1_555 1_555
H21_2 C29_2 1_555 1_555
C30_2 C29_2 1_555 1_555
N5_2 C16_2 1_555 1_555
N6_2 C18_2 1_555 1_555
N7_2 C21_2 1_555 1_555
N8_2 Cd7 1_555 1_555
O5_2 C26_2 1_555 1_555
O7_2 Cd4 1_555 1_555
O9 C26_2 1_555 1_555
O11_2 C30_2 1_555 1_555
O12_2 Cd7 1_555 1_555
O13_2 Cd4 1_555 1_555
O14_2 C30_2 1_555 1_555
O15_2 Cd7 1_555 1_555
O16_2 Cd4 1_555 1_555
Cd4 N4_2 1_555 1_555
Cd3_2 O1_2 1_555 1_555
Cd8_2 O11_2 1_555 1_555
H22_2 C28_2 1_555 1_555
C5_2 N1_2 1_555 1_555
C9_2 C10_2 1_555 1_555
C9_2 N4_2 1_555 1_555
C12_2 N2_2 1_555 1_555
N2_2 N3_2 1_555 1_555
C20_2 N5_2 1_555 1_555
C23_2 N8_2 1_555 1_555
C24_2 C25_2 1_555 1_555
C24_2 N8_2 1_555 1_555
C27_2 N6_2 1_555 1_555
N5_2 Cd4 1_555 1_555
N6_2 N7_2 1_555 1_555
O14_2 Cd8_2 1_555 1_555
N3_2 H23_2 1_555 1_555
N7_2 H24_2 1_555 1_555
O3_2 C15_2 1_555 1_555
O4_2 C15_2 1_555 1_555
Cd3_2 O3_2 1_555 1_555
O4_2 Cd3_2 1_555 1_555
O13_2 C30_3 1_555 1_555
O16_2 C30_3 1_555 1_555
C1_3 H1_3 1_555 1_555
C2_3 C1_3 1_555 1_555
H2_3 C2_3 1_555 1_555
C3_3 C2_3 1_555 1_555
C4_3 C3_3 1_555 1_555
H3_3 C4_3 1_555 1_555
C5_3 C4_3 1_555 1_555
H4_3 C5_3 1_555 1_555
C6_3 C7_3 1_555 1_555
C8_3 C7_3 1_555 1_555
C9_3 H7_3 1_555 1_555
C10_3 C6_3 1_555 1_555
H8_3 C10_3 1_555 1_555
C11_3 C12_3 1_555 1_555
C12_3 C13_3 1_555 1_555
C13_3 C14_3 1_555 1_555
C14_3 H9_3 1_555 1_555
H10_3 C14_3 1_555 1_555
C15_3 C14_3 1_555 1_555
N1_3 C1_3 1_555 1_555
N2_3 C3_3 1_555 1_555
N3_3 C6_3 1_555 1_555
N4_3 C8_3 1_555 1_555
O6_2 C11_3 1_555 1_555
O2_2 C11_3 1_555 1_555
O12_2 C15_3 1_555 1_555
O15_2 C15_3 1_555 1_555
Cd3_2 N1_3 1_555 1_555
H11_3 C13_3 1_555 1_555
Cd8 O2_2 1_555 1_555
C5_3 N1_3 1_555 1_555
C9_3 C10_3 1_555 1_555
C9_3 N4_3 1_555 1_555
C12_3 N2_3 1_555 1_555
N2_3 N3_3 1_555 1_555
N3_3 H23_3 1_555 1_555
C16_3 H12_3 1_555 1_555
C17_3 C16_3 1_555 1_555
H13_3 C17_3 1_555 1_555
C18_3 C17_3 1_555 1_555
C19_3 C18_3 1_555 1_555
H14_3 C19_3 1_555 1_555
C20_3 C19_3 1_555 1_555
H15_3 C20_3 1_555 1_555
C21_3 C22_3 1_555 1_555
C22_3 H16_3 1_555 1_555
C23_3 C22_3 1_555 1_555
H17_3 C23_3 1_555 1_555
C24_3 H18_3 1_555 1_555
C25_3 C21_3 1_555 1_555
H19_3 C25_3 1_555 1_555
C26_3 C27_3 1_555 1_555
C27_3 C28_3 1_555 1_555
C28_3 C29_3 1_555 1_555
H21_3 C29_3 1_555 1_555
N5_3 C16_3 1_555 1_555
N6_3 C18_3 1_555 1_555
N7_3 C21_3 1_555 1_555
O7_2 C26_3 1_555 1_555
O8_2 C26_3 1_555 1_555
H22_3 C28_3 1_555 1_555
C20_3 N5_3 1_555 1_555
C23_3 N8_3 1_555 1_555
C24_3 C25_3 1_555 1_555
C24_3 N8_3 1_555 1_555
C27_3 N6_3 1_555 1_555
N5_3 Cd8_2 1_555 1_555
N6_3 N7_3 1_555 1_555
N7_3 H24_3 1_555 1_555
O13 C30_4 1_555 1_555
O16 C30_4 1_555 1_555
C1_4 H1_4 1_555 1_555
C2_4 C1_4 1_555 1_555
H2_4 C2_4 1_555 1_555
C3_4 C2_4 1_555 1_555
C4_4 C3_4 1_555 1_555
H3_4 C4_4 1_555 1_555
C5_4 C4_4 1_555 1_555
H4_4 C5_4 1_555 1_555
C6_4 C7_4 1_555 1_555
C8_4 C7_4 1_555 1_555
C9_4 H7_4 1_555 1_555
C10_4 C6_4 1_555 1_555
H8_4 C10_4 1_555 1_555
C11_4 C12_4 1_555 1_555
C12_4 C13_4 1_555 1_555
C13_4 C14_4 1_555 1_555
C14_4 H9_4 1_555 1_555
H10_4 C14_4 1_555 1_555
C15_4 C14_4 1_555 1_555
N1_4 C1_4 1_555 1_555
N2_4 C3_4 1_555 1_555
N3_4 C6_4 1_555 1_555
N4_4 C8_4 1_555 1_555
O6 C11_4 1_555 1_555
O10_2 C11_4 1_555 1_555
O12 C15_4 1_555 1_555
O15 C15_4 1_555 1_555
Cd3 N1_4 1_555 1_555
H11_4 C13_4 1_555 1_555
C16_4 H12_4 1_555 1_555
C17_4 C16_4 1_555 1_555
H13_4 C17_4 1_555 1_555
C18_4 C17_4 1_555 1_555
C19_4 C18_4 1_555 1_555
H14_4 C19_4 1_555 1_555
C20_4 C19_4 1_555 1_555
H15_4 C20_4 1_555 1_555
C21_4 C22_4 1_555 1_555
C22_4 H16_4 1_555 1_555
C23_4 C22_4 1_555 1_555
H17_4 C23_4 1_555 1_555
C24_4 H18_4 1_555 1_555
C25_4 C21_4 1_555 1_555
H19_4 C25_4 1_555 1_555
C26_4 C27_4 1_555 1_555
C27_4 C28_4 1_555 1_555
C28_4 C29_4 1_555 1_555
H21_4 C29_4 1_555 1_555
N5_4 C16_4 1_555 1_555
N6_4 C18_4 1_555 1_555
N7_4 C21_4 1_555 1_555
N8_4 Cd3 1_555 1_555
O7 C26_4 1_555 1_555
O9_2 C26_4 1_555 1_555
Cd8 N4_4 1_555 1_555
H22_4 C28_4 1_555 1_555
C5_4 N1_4 1_555 1_555
C9_4 C10_4 1_555 1_555
C9_4 N4_4 1_555 1_555
C12_4 N2_4 1_555 1_555
N2_4 N3_4 1_555 1_555
C20_4 N5_4 1_555 1_555
C23_4 N8_4 1_555 1_555
C24_4 C25_4 1_555 1_555
C24_4 N8_4 1_555 1_555
C27_4 N6_4 1_555 1_555
N5_4 Cd8 1_555 1_555
N6_4 N7_4 1_555 1_555
N3_4 H23_4 1_555 1_555
N7_4 H24_4 1_555 1_555

#END
