
###############################################################################
#
# This file contains modified crystal structure data generated from the
# MOF subset of the Cambridge Structural Database (CSD) v543 
# hosted by the Cambridge Crystallographic Data Centre (CCDC).
#
# This work is licensed under the Creative Commons
# Attribution-NonCommercial-ShareAlike 4.0 International License.
# To view a copy of this license, visit
# http://creativecommons.org/licenses/by-nc-sa/4.0/
# or send a letter to
# Creative Commons, PO Box 1866, Mountain View, CA 94042, USA.
#
# CIF created using the CSD Python API on 29 September 2022
# The structure has been converted into the P1 space group
# The structure has a 3D framework
# The original CSD entry EZUVUT is in the triclinic crystal system
# The framework has been calculated to contain at least 10.0% void space
# The void calculation uses a probe of radius 1.32A, grid spacing 0.4
#
###############################################################################

data_EZUVUT
_chemical_formula_moiety         '(C78 H60 Mn4 N16 O18)n'
_symmetry_cell_setting           triclinic
_symmetry_space_group_name_H-M   'P 1'
_symmetry_Int_Tables_number      1
_space_group_name_Hall           'P 1'
loop_
_symmetry_equiv_pos_site_id
_symmetry_equiv_pos_as_xyz
1 x,y,z
_cell_length_a                   13.6651(6)
_cell_length_b                   15.7595(6)
_cell_length_c                   16.1822(6)
_cell_angle_alpha                114.984(8)
_cell_angle_beta                 101.852(7)
_cell_angle_gamma                105.292(7)
_cell_volume                     2839.96
loop_
_atom_site_label
_atom_site_type_symbol
_atom_site_fract_x
_atom_site_fract_y
_atom_site_fract_z
Mn8 Mn 0.00492(4) 0.05645(4) 0.65883(4)
O11 O 0.1200(2) 0.0778(2) 0.45689(19)
O9 O 0.1117(2) 0.9570(2) 0.2653(2)
H3 H 0.0847 0.9358 0.2046
H4 H 0.1785 0.9954 0.2864
N9 N 0.0183(3) 0.8047(2) 0.3317(2)
O15 O 0.9070(2) 0.01140(19) 0.27131(17)
Mn1 Mn 0.58156(3) 0.62254(3) 0.64161(3)
Mn2 Mn 0.99508(4) 0.94355(4) 0.34117(4)
N1 N 0.6082(3) 0.5744(2) 0.1397(2)
H1 H 0.6273 0.6064 0.1101
N2 N 0.7154(4) 0.1141(3) 0.0498(2)
N3 N 0.2390(2) 0.5794(2) 0.6150(2)
N4 N 0.4103(2) 0.6121(2) 0.6255(2)
O1 O 0.57527(19) 0.66776(19) 0.53358(18)
O2 O 0.4636(2) 0.52875(19) 0.3923(2)
O3 O 0.8800(2) 0.9222(2) 0.54311(19)
O4 O 0.8800(2) 0.9251(2) 0.4075(2)
C1 C 0.5421(3) 0.6140(2) 0.4427(3)
C2 C 0.8434(3) 0.8847(2) 0.4524(3)
C3 C 0.6019(2) 0.6548(2) 0.3896(2)
C4 C 0.6881(3) 0.7489(2) 0.4426(2)
H5 H 0.7063 0.7886 0.5097
C5 C 0.7473(3) 0.7838(2) 0.3949(2)
C6 C 0.7201(3) 0.7249(3) 0.2950(2)
H6 H 0.7599 0.7493 0.2638
C7 C 0.6338(3) 0.6294(3) 0.2406(2)
C8 C 0.5748(3) 0.5944(2) 0.2890(2)
H7 H 0.5174 0.5308 0.2541
C14 C 0.7866(3) 0.0216(3) 0.1172(3)
H9 H 0.8149 0.0776 0.1801
C15 C 0.7330(3) 0.0285(3) 0.0390(3)
C17 C 0.6082(3) 0.4028(3) 0.1061(3)
C18 C 0.5489(4) 0.3145(4) 0.0998(4)
H11 H 0.4745 0.2956 0.0867
C19 C 0.5983(4) 0.2534(4) 0.1127(4)
H12 H 0.5571 0.1940 0.1096
C20 C 0.7092(4) 0.2785(3) 0.1303(3)
C21 C 0.7680(4) 0.3661(3) 0.1359(3)
H13 H 0.8420 0.3840 0.1471
C22 C 0.7178(4) 0.4304(3) 0.1249(3)
H14 H 0.7589 0.4911 0.1303
C23 C 0.5503(4) 0.4653(3) 0.0841(3)
H15 H 0.5325 0.4437 0.0153
H16 H 0.4821 0.4488 0.0947
C24 C 0.7596(4) 0.2079(3) 0.1409(3)
H17 H 0.8379 0.2392 0.1599
H18 H 0.7446 0.1950 0.1915
C25 C 0.1364(2) 0.5360(2) 0.6200(2)
C26 C 0.1110(3) 0.4499(3) 0.6295(3)
H19 H 0.1581 0.4164 0.6275
C27 C 0.0143(3) 0.4152(3) 0.6418(3)
C30 C 0.0648(2) 0.5837(2) 0.6202(2)
H21 H 0.0821 0.6411 0.6135
C31 C 0.3256(3) 0.5533(3) 0.6294(3)
H22 H 0.3248 0.5000 0.6407
C32 C 0.3771(3) 0.6795(3) 0.6080(3)
H23 H 0.4207 0.7312 0.6019
C33 C 0.2732(3) 0.6609(3) 0.6008(3)
H24 H 0.2325 0.6960 0.5887
C34 C 0.0053(3) 0.2474(3) 0.6250(3)
H25 H 0.0288 0.2259 0.5726
Mn5 Mn 0.41844(3) 0.37746(3) 0.35839(3)
N10 N 0.7463(2) 0.6284(2) 0.6343(2)
O10 O 0.5364(2) 0.47125(19) 0.6077(2)
O12 O 0.6527(2) 0.6798(2) 0.81007(19)
O13 O 0.6415(2) 0.78461(19) 0.75722(17)
O14 O 0.8695(2) 0.84934(19) 0.17986(19)
C10 C 0.8614(3) 0.9300(3) 0.1894(3)
C12 C 0.7577(3) 0.8480(3) 0.0092(2)
C13 C 0.7983(3) 0.9318(3) 0.1024(3)
C9 C 0.6646(3) 0.7680(3) 0.8262(3)
C11 C 0.7069(3) 0.8554(3) 0.9304(2)
H8 H 0.7642 0.7876 0.9995
C16 C 0.6949(3) 0.9440(3) 0.9445(3)
H10 H 0.6611 0.9478 0.8909
N5 N 0.9917(3) 0.3352(2) 0.6648(2)
N6 N 0.9817(3) 0.1953(2) 0.6683(2)
N7 N 0.8934(2) 0.5956(2) 0.6308(2)
C28 C 0.9409(3) 0.4614(3) 0.6418(3)
H20 H 0.8757 0.4363 0.6494
C29 C 0.9667(2) 0.5455(2) 0.6303(2)
C35 C 0.9512(5) 0.2547(4) 0.7414(4)
H26 H 0.9299 0.2377 0.7852
C36 C 0.9569(5) 0.3397(4) 0.7398(4)
H27 H 0.9405 0.3917 0.7812
C37 C 0.7911(3) 0.5644(3) 0.6318(3)
H28 H 0.7571 0.5044 0.6309
C38 C 0.8215(3) 0.7044(3) 0.6329(3)
H29 H 0.8117 0.7607 0.6331
C39 C 0.9120(3) 0.6854(3) 0.6310(3)
H30 H 0.9748 0.7255 0.6300
N5_2 N 0.0083(3) 0.6648(2) 0.3352(2)
N7_2 N 0.1066(2) 0.4044(2) 0.3692(2)
N8 N 0.2537(2) 0.3716(2) 0.3657(2)
C28_2 C 0.0591(3) 0.5386(3) 0.3582(3)
H20_2 H 0.1243 0.5637 0.3506
C29_2 C 0.0333(2) 0.4545(2) 0.3697(2)
C35_2 C 0.0488(5) 0.7453(4) 0.2586(4)
H26_2 H 0.0701 0.7623 0.2148
C36_2 C 0.0431(5) 0.6603(4) 0.2602(4)
H27_2 H 0.0595 0.6083 0.2188
C37_2 C 0.2089(3) 0.4356(3) 0.3682(3)
H28_2 H 0.2429 0.4956 0.3691
C38_2 C 0.1785(3) 0.2956(3) 0.3671(3)
H29_2 H 0.1883 0.2393 0.3669
C39_2 C 0.0880(3) 0.3146(3) 0.3690(3)
H30_2 H 0.0252 0.2745 0.3700
O5 O 0.3473(2) 0.3202(2) 0.18993(19)
O6 O 0.3585(2) 0.21539(19) 0.24278(17)
C9_2 C 0.3354(3) 0.2320(3) 0.1738(3)
C11_2 C 0.2931(3) 0.1446(3) 0.0696(2)
H8_2 H 0.2358 0.2124 0.0005
C16_2 C 0.3051(3) 0.0560(3) 0.0555(3)
H10_2 H 0.3389 0.0522 0.1091
O7 O 0.1305(2) 0.15066(19) 0.82014(19)
C10_2 C 0.1386(3) 0.0700(3) 0.8106(3)
C12_2 C 0.2423(3) 0.1520(3) 0.9908(2)
C13_2 C 0.2017(3) 0.0682(3) 0.8976(3)
N1_2 N 0.3918(3) 0.4256(2) 0.8603(2)
H1_2 H 0.3727 0.3936 0.8899
N2_2 N 0.2846(4) 0.8859(3) 0.9502(2)
N3_2 N 0.7610(2) 0.4206(2) 0.3850(2)
N4_2 N 0.5897(2) 0.3879(2) 0.3745(2)
O1_2 O 0.42473(19) 0.33224(19) 0.46642(18)
O4_2 O 0.1200(2) 0.0749(2) 0.5925(2)
O8 O 0.0930(2) 0.98860(19) 0.72869(17)
C1_2 C 0.4579(3) 0.3860(2) 0.5573(3)
C2_2 C 0.1566(3) 0.1153(2) 0.5476(3)
C3_2 C 0.3981(2) 0.3452(2) 0.6104(2)
C4_2 C 0.3119(3) 0.2511(2) 0.5574(2)
H5_2 H 0.2937 0.2114 0.4903
C5_2 C 0.2527(3) 0.2162(2) 0.6051(2)
C6_2 C 0.2799(3) 0.2751(3) 0.7050(2)
H6_2 H 0.2401 0.2507 0.7362
C7_2 C 0.3662(3) 0.3706(3) 0.7594(2)
C8_2 C 0.4252(3) 0.4056(2) 0.7110(2)
H7_2 H 0.4826 0.4692 0.7459
C14_2 C 0.2134(3) 0.9784(3) 0.8828(3)
H9_2 H 0.1851 0.9224 0.8199
C15_2 C 0.2670(3) 0.9715(3) 0.9610(3)
C17_2 C 0.3918(3) 0.5972(3) 0.8939(3)
C18_2 C 0.4511(4) 0.6855(4) 0.9002(4)
H11_2 H 0.5255 0.7044 0.9133
C19_2 C 0.4017(4) 0.7466(4) 0.8873(4)
H12_2 H 0.4429 0.8060 0.8904
C20_2 C 0.2908(4) 0.7215(3) 0.8697(3)
C21_2 C 0.2320(4) 0.6339(3) 0.8641(3)
H13_2 H 0.1580 0.6160 0.8529
C22_2 C 0.2822(4) 0.5696(3) 0.8751(3)
H14_2 H 0.2411 0.5089 0.8697
C23_2 C 0.4497(4) 0.5347(3) 0.9159(3)
H15_2 H 0.4675 0.5563 0.9847
H16_2 H 0.5179 0.5512 0.9053
C24_2 C 0.2404(4) 0.7921(3) 0.8591(3)
H17_2 H 0.1621 0.7608 0.8401
H18_2 H 0.2554 0.8050 0.8085
C25_2 C 0.8636(2) 0.4640(2) 0.3800(2)
C26_2 C 0.8890(3) 0.5501(3) 0.3705(3)
H19_2 H 0.8419 0.5836 0.3725
C27_2 C 0.9857(3) 0.5848(3) 0.3582(3)
C30_2 C 0.9352(2) 0.4163(2) 0.3798(2)
H21_2 H 0.9179 0.3589 0.3865
C31_2 C 0.6744(3) 0.4467(3) 0.3706(3)
H22_2 H 0.6752 0.5000 0.3593
C32_2 C 0.6229(3) 0.3205(3) 0.3920(3)
H23_2 H 0.5793 0.2688 0.3981
C33_2 C 0.7268(3) 0.3391(3) 0.3992(3)
H24_2 H 0.7675 0.3040 0.4113
C34_2 C 0.9947(3) 0.7526(3) 0.3750(3)
H25_2 H 0.9712 0.7741 0.4274
O9_2 O 0.8883(2) 0.0430(2) 0.7347(2)
H3_2 H 0.9153 0.0642 0.7954
H4_2 H 0.8215 0.0046 0.7136
H2 H 0.6757 0.1110 0.9990
H2_2 H 0.3243 0.8890 0.0010
loop_
_geom_bond_atom_site_label_1
_geom_bond_atom_site_label_2
_geom_bond_site_symmetry_1
_geom_bond_site_symmetry_2
H3 O9 1_555 1_555
H4 O9 1_555 1_555
Mn1 N4 1_555 1_555
Mn2 O4 1_555 1_555
N1 H1 1_555 1_555
N3 C25 1_555 1_555
N4 C31 1_555 1_555
O1 Mn1 1_555 1_555
O2 C1 1_555 1_555
O3 C2 1_555 1_555
O4 C2 1_555 1_555
C1 O1 1_555 1_555
C2 C5 1_555 1_555
C3 C1 1_555 1_555
C4 C3 1_555 1_555
H5 C4 1_555 1_555
C5 C4 1_555 1_555
C6 C5 1_555 1_555
H6 C6 1_555 1_555
C7 N1 1_555 1_555
C8 C3 1_555 1_555
H7 C8 1_555 1_555
H9 C14 1_555 1_555
C15 N2 1_555 1_555
C17 C18 1_555 1_555
C18 H11 1_555 1_555
C19 C18 1_555 1_555
H12 C19 1_555 1_555
C20 C19 1_555 1_555
C21 C20 1_555 1_555
H13 C21 1_555 1_555
C22 C17 1_555 1_555
H14 C22 1_555 1_555
C23 N1 1_555 1_555
H15 C23 1_555 1_555
H16 C23 1_555 1_555
C24 N2 1_555 1_555
H17 C24 1_555 1_555
H18 C24 1_555 1_555
C25 C26 1_555 1_555
C26 H19 1_555 1_555
C27 C26 1_555 1_555
C30 C25 1_555 1_555
H21 C30 1_555 1_555
C31 N3 1_555 1_555
H22 C31 1_555 1_555
C32 N4 1_555 1_555
H23 C32 1_555 1_555
C33 N3 1_555 1_555
H24 C33 1_555 1_555
H25 C34 1_555 1_555
Mn5 O2 1_555 1_555
N10 Mn1 1_555 1_555
O10 Mn1 1_555 1_555
O12 Mn1 1_555 1_555
O13 Mn1 1_555 1_555
O14 Mn2 1_555 1_555
C6 C7 1_555 1_555
C7 C8 1_555 1_555
C14 C15 1_555 1_555
C17 C23 1_555 1_555
C20 C24 1_555 1_555
C21 C22 1_555 1_555
C32 C33 1_555 1_555
O14 C10 1_555 1_555
C10 C13 1_555 1_555
C13 C12 1_555 1_555
O12 C9 1_555 1_555
O13 C9 1_555 1_555
C9 C11 1_555 1_555
C16 C11 1_555 1_555
H10 C16 1_555 1_555
N7 C29 1_555 1_555
N10 C37 1_555 1_555
H20 C28 1_555 1_555
C29 C28 1_555 1_555
C35 N6 1_555 1_555
H26 C35 1_555 1_555
C36 N5 1_555 1_555
H27 C36 1_555 1_555
C37 N7 1_555 1_555
H28 C37 1_555 1_555
C38 N10 1_555 1_555
H29 C38 1_555 1_555
C39 N7 1_555 1_555
H30 C39 1_555 1_555
C35 C36 1_555 1_555
C38 C39 1_555 1_555
N7_2 C29_2 1_555 1_555
N8 C37_2 1_555 1_555
H20_2 C28_2 1_555 1_555
C29_2 C28_2 1_555 1_555
C35_2 N9 1_555 1_555
H26_2 C35_2 1_555 1_555
C36_2 N5_2 1_555 1_555
H27_2 C36_2 1_555 1_555
C37_2 N7_2 1_555 1_555
H28_2 C37_2 1_555 1_555
C38_2 N8 1_555 1_555
H29_2 C38_2 1_555 1_555
C39_2 N7_2 1_555 1_555
H30_2 C39_2 1_555 1_555
Mn5 N8 1_555 1_555
C35_2 C36_2 1_555 1_555
C38_2 C39_2 1_555 1_555
O5 C9_2 1_555 1_555
O6 C9_2 1_555 1_555
C9_2 C11_2 1_555 1_555
C16_2 C11_2 1_555 1_555
H10_2 C16_2 1_555 1_555
Mn5 O5 1_555 1_555
O6 Mn5 1_555 1_555
O7 C10_2 1_555 1_555
C10_2 C13_2 1_555 1_555
C13_2 C12_2 1_555 1_555
Mn8 O7 1_555 1_555
Mn5 N4_2 1_555 1_555
Mn8 O4_2 1_555 1_555
N1_2 H1_2 1_555 1_555
N3_2 C25_2 1_555 1_555
N4_2 C31_2 1_555 1_555
O1_2 Mn5 1_555 1_555
O10 C1_2 1_555 1_555
O11 C2_2 1_555 1_555
O4_2 C2_2 1_555 1_555
C1_2 O1_2 1_555 1_555
C2_2 C5_2 1_555 1_555
C3_2 C1_2 1_555 1_555
C4_2 C3_2 1_555 1_555
H5_2 C4_2 1_555 1_555
C5_2 C4_2 1_555 1_555
C6_2 C5_2 1_555 1_555
H6_2 C6_2 1_555 1_555
C7_2 N1_2 1_555 1_555
C8_2 C3_2 1_555 1_555
H7_2 C8_2 1_555 1_555
H9_2 C14_2 1_555 1_555
C15_2 N2_2 1_555 1_555
C17_2 C18_2 1_555 1_555
C18_2 H11_2 1_555 1_555
C19_2 C18_2 1_555 1_555
H12_2 C19_2 1_555 1_555
C20_2 C19_2 1_555 1_555
C21_2 C20_2 1_555 1_555
H13_2 C21_2 1_555 1_555
C22_2 C17_2 1_555 1_555
H14_2 C22_2 1_555 1_555
C23_2 N1_2 1_555 1_555
H15_2 C23_2 1_555 1_555
H16_2 C23_2 1_555 1_555
C24_2 N2_2 1_555 1_555
H17_2 C24_2 1_555 1_555
H18_2 C24_2 1_555 1_555
C25_2 C26_2 1_555 1_555
C26_2 H19_2 1_555 1_555
C27_2 C26_2 1_555 1_555
C30_2 C25_2 1_555 1_555
H21_2 C30_2 1_555 1_555
C31_2 N3_2 1_555 1_555
H22_2 C31_2 1_555 1_555
C32_2 N4_2 1_555 1_555
H23_2 C32_2 1_555 1_555
C33_2 N3_2 1_555 1_555
H24_2 C33_2 1_555 1_555
H25_2 C34_2 1_555 1_555
C6_2 C7_2 1_555 1_555
C7_2 C8_2 1_555 1_555
C14_2 C15_2 1_555 1_555
C17_2 C23_2 1_555 1_555
C20_2 C24_2 1_555 1_555
C21_2 C22_2 1_555 1_555
C32_2 C33_2 1_555 1_555
H3_2 O9_2 1_555 1_555
H4_2 O9_2 1_555 1_555

#END
