
###############################################################################
#
# This file contains modified crystal structure data generated from the
# MOF subset of the Cambridge Structural Database (CSD) v543 
# hosted by the Cambridge Crystallographic Data Centre (CCDC).
#
# This work is licensed under the Creative Commons
# Attribution-NonCommercial-ShareAlike 4.0 International License.
# To view a copy of this license, visit
# http://creativecommons.org/licenses/by-nc-sa/4.0/
# or send a letter to
# Creative Commons, PO Box 1866, Mountain View, CA 94042, USA.
#
# CIF created using the CSD Python API on 29 September 2022
# The structure has been converted into the P1 space group
# The structure has a 3D framework
# The original CSD entry EZUWEE is in the monoclinic crystal system
# The framework has been calculated to contain at least 10.0% void space
# The void calculation uses a probe of radius 1.32A, grid spacing 0.4
#
###############################################################################

data_EZUWEE
_chemical_formula_moiety         '(C88 H88 Co4 N20 O16)n'
_symmetry_cell_setting           triclinic
_symmetry_space_group_name_H-M   'P 1'
_symmetry_Int_Tables_number      1
_space_group_name_Hall           'P 1'
loop_
_symmetry_equiv_pos_site_id
_symmetry_equiv_pos_as_xyz
1 x,y,z
_cell_length_a                   9.1778(3)
_cell_length_b                   16.5553(6)
_cell_length_c                   17.1869(6)
_cell_angle_alpha                90
_cell_angle_beta                 99.239(7)
_cell_angle_gamma                90
_cell_volume                     2577.52
loop_
_atom_site_label
_atom_site_type_symbol
_atom_site_fract_x
_atom_site_fract_y
_atom_site_fract_z
N9 N 0.5201(4) 0.6621(3) 0.7768(3)
N10 N 0.7012(4) 0.7468(2) 0.7740(2)
C38 C 0.5804(5) 0.7149(3) 0.7335(3)
H34 H 0.5427 0.7278 0.6815
C39 C 0.7164(5) 0.7136(3) 0.8474(3)
H35 H 0.7917 0.7251 0.8889
C40 C 0.6039(6) 0.6613(4) 0.8499(3)
H36 H 0.5871 0.6308 0.8931
C41 C 0.0114(5) 0.5845(3) 0.8041(3)
H38 H 0.0443 0.5726 0.8595
C42 C 0.1350(5) 0.5716(3) 0.7603(3)
H39 H 0.1663 0.5157 0.7655
H40 H 0.1020 0.5825 0.7048
C43 C 0.2656(5) 0.6263(3) 0.7908(4)
H41 H 0.2956 0.6176 0.8469
H42 H 0.2362 0.6824 0.7828
C44 C 0.3924(6) 0.6091(4) 0.7485(4)
H43 H 0.3617 0.6173 0.6924
H44 H 0.4218 0.5531 0.7568
Co6 Co 0.85155(5) 0.81991(3) 0.73448(3)
Co1 Co 0.35155(5) 0.68009(3) 0.23448(3)
N1 N 0.1160(4) 0.4659(2) 0.2250(2)
N2 N 0.2721(4) 0.5673(2) 0.23732(19)
O1 O 0.5131(3) 0.69530(17) 0.32364(16)
O2 O 0.6496(3) 0.6146(2) 0.26258(17)
O3 O 0.7000(4) 0.8014(2) 0.59193(19)
O4 O 0.9245(3) 0.7690(2) 0.64459(17)
C1 C 0.6337(4) 0.6592(2) 0.3176(2)
C2 C 0.8192(4) 0.7690(2) 0.5864(2)
C3 C 0.7583(4) 0.6728(2) 0.3850(2)
C4 C 0.7355(4) 0.7203(2) 0.4487(2)
H2 H 0.6477 0.7488 0.4473
C5 C 0.8442(4) 0.7249(2) 0.5139(2)
C6 C 0.9772(4) 0.6839(2) 0.5153(2)
C8 C 0.8904(4) 0.6332(2) 0.3858(2)
H4 H 0.9048 0.6027 0.3423
C13 C 0.1533(5) 0.5356(3) 0.1951(3)
H9 H 0.1017 0.5593 0.1499
C14 C 0.3123(4) 0.5140(2) 0.2986(2)
H10 H 0.3930 0.5200 0.3385
C15 C 0.2158(5) 0.4518(3) 0.2916(3)
H11 H 0.2172 0.4079 0.3254
H15 H 0.0179 0.3592 0.2001
N11 N 0.2012(4) 0.7532(2) 0.2740(2)
O10 O 0.4245(3) 0.7310(2) 0.14459(17)
N3 N 0.0201(4) 0.8379(3) 0.2768(3)
C16 C 0.0804(5) 0.7851(3) 0.2335(3)
H12 H 0.0427 0.7722 0.1815
C17 C 0.2164(5) 0.7864(3) 0.3474(3)
H13 H 0.2917 0.7749 0.3889
C18 C 0.1039(6) 0.8387(4) 0.3499(3)
H14 H 0.0871 0.8692 0.3931
O7 O 0.2000(4) 0.6986(2) 0.09193(19)
C24 C 0.3192(4) 0.7310(2) 0.0864(2)
C27 C 0.3442(4) 0.7751(2) 0.0139(2)
C28 C 0.4772(4) 0.8161(2) 0.0153(2)
H25 H 0.5498 0.8128 0.0596
C31 C 0.7448(4) 0.9033(3) 0.0199(3)
H27 H 0.7028 0.9242 0.0641
H28 H 0.7763 0.8482 0.0321
C32 C 0.8768(4) 0.9533(2) 0.0093(2)
N8 N 0.7721(4) 0.9327(2) 0.73732(19)
C35 C 0.6533(5) 0.9644(3) 0.6951(3)
H31 H 0.6017 0.9407 0.6499
C36 C 0.8123(4) 0.9860(2) 0.7986(2)
H32 H 0.8930 0.9800 0.8385
O5 O 0.4869(3) 0.30470(17) 0.67636(16)
O6 O 0.3504(3) 0.3854(2) 0.73742(17)
O7_2 O 0.3000(4) 0.1986(2) 0.40807(19)
O8 O 0.0755(3) 0.2310(2) 0.35541(17)
C23 C 0.3663(4) 0.3408(2) 0.6824(2)
C24_2 C 0.1808(4) 0.2310(2) 0.4136(2)
C25 C 0.2417(4) 0.3272(2) 0.6150(2)
C26 C 0.2645(4) 0.2797(2) 0.5513(2)
H24 H 0.3523 0.2512 0.5527
C27_2 C 0.1558(4) 0.2751(2) 0.4861(2)
C28_2 C 0.0228(4) 0.3161(2) 0.4847(2)
C30 C 0.1096(4) 0.3668(2) 0.6142(2)
H26 H 0.0952 0.3973 0.6577
Co2 Co 0.64845(5) 0.31991(3) 0.76552(3)
N7 N 0.8840(4) 0.5341(2) 0.7750(2)
N8_2 N 0.7279(4) 0.4327(2) 0.76268(19)
C35_2 C 0.8467(5) 0.4644(3) 0.8049(3)
H31_2 H 0.8983 0.4407 0.8501
C36_2 C 0.6877(4) 0.4860(2) 0.7014(2)
H32_2 H 0.6070 0.4800 0.6615
C37 C 0.7842(5) 0.5482(3) 0.7084(3)
H33 H 0.7828 0.5921 0.6746
H37 H 0.9821 0.6408 0.7999
Co4 Co 0.14845(5) 0.18009(3) 0.26552(3)
N12 N 0.7988(4) 0.2468(2) 0.7260(2)
O9 O 0.5755(3) 0.2690(2) 0.85541(17)
N3_2 N 0.4799(4) 0.3379(3) 0.2232(3)
N4 N 0.2988(4) 0.2532(2) 0.2260(2)
C16_2 C 0.4196(5) 0.2851(3) 0.2665(3)
H12_2 H 0.4573 0.2722 0.3185
C17_2 C 0.2836(5) 0.2864(3) 0.1526(3)
H13_2 H 0.2083 0.2749 0.1111
C18_2 C 0.3961(6) 0.3387(4) 0.1501(3)
H14_2 H 0.4129 0.3692 0.1069
C19 C 0.9886(5) 0.4155(3) 0.1959(3)
H16 H 0.9557 0.4274 0.1405
C20 C 0.8650(5) 0.4284(3) 0.2397(3)
H17 H 0.8337 0.4843 0.2345
H18 H 0.8980 0.4175 0.2952
C21 C 0.7344(5) 0.3737(3) 0.2092(4)
H19 H 0.7044 0.3824 0.1531
H20 H 0.7638 0.3176 0.2172
C22 C 0.6076(6) 0.3909(4) 0.2515(4)
H21 H 0.6383 0.3827 0.3076
H22 H 0.5782 0.4469 0.2432
N2_2 N 0.2279(4) 0.0673(2) 0.26268(19)
C13_2 C 0.3467(5) 0.0356(3) 0.3049(3)
H9_2 H 0.3983 0.0593 0.3501
C14_2 C 0.1877(4) 0.0140(2) 0.2014(2)
H10_2 H 0.1070 0.0200 0.1615
O3_2 O 0.8000(4) 0.3014(2) 0.90807(19)
C2_2 C 0.6808(4) 0.2690(2) 0.9136(2)
C5_2 C 0.6558(4) 0.2249(2) 0.9861(2)
C6_2 C 0.5228(4) 0.1839(2) 0.9847(2)
H3 H 0.4502 0.1872 0.9404
C9 C 0.2552(4) 0.0967(3) 0.9801(3)
H5 H 0.2972 0.0758 0.9359
H6 H 0.2237 0.1518 0.9679
C10 C 0.1232(4) 0.0467(2) 0.9907(2)
N9_2 N 0.9799(4) 0.1621(3) 0.7232(3)
C38_2 C 0.9196(5) 0.2149(3) 0.7665(3)
H34_2 H 0.9573 0.2278 0.8185
C39_2 C 0.7836(5) 0.2136(3) 0.6526(3)
H35_2 H 0.7083 0.2251 0.6111
C40_2 C 0.8961(6) 0.1613(4) 0.6501(3)
H36_2 H 0.9129 0.1308 0.6069
N5 N 0.1341(4) 0.5967(3) 0.4513(2)
H1 H 0.1494 0.5708 0.4100
H3_2 H 0.0498 0.6872 0.5596
C7 C 0.0024(4) 0.6378(2) 0.4502(2)
C9_2 C 0.2448(4) 0.5967(3) 0.5199(3)
H5_2 H 0.2028 0.5758 0.5641
H6_2 H 0.2763 0.6518 0.5321
C10_2 C 0.3768(4) 0.5467(2) 0.5093(2)
C11 C 0.5144(4) 0.5819(3) 0.5136(3)
H7 H 0.5252 0.6371 0.5229
C12 C 0.6367(4) 0.5356(3) 0.5043(2)
H8 H 0.7286 0.5601 0.5073
N6 N 0.8659(4) 0.4033(3) 0.5487(2)
H23 H 0.8506 0.4292 0.5900
H25_2 H 0.9502 0.3128 0.4404
C29 C 0.9976(4) 0.3622(2) 0.5498(2)
C31_2 C 0.7552(4) 0.4033(3) 0.4801(3)
H27_2 H 0.7972 0.4242 0.4359
H28_2 H 0.7237 0.3482 0.4679
C32_2 C 0.6232(4) 0.4533(2) 0.4907(2)
C33 C 0.4856(4) 0.4181(3) 0.4864(3)
H29 H 0.4748 0.3629 0.4771
C34 C 0.3633(4) 0.4644(3) 0.4957(2)
H30 H 0.2714 0.4399 0.4927
N1_2 N 0.3840(4) 0.9659(2) 0.2750(2)
C15_2 C 0.2842(5) 0.9518(3) 0.2084(3)
H11_2 H 0.2828 0.9079 0.1746
C19_2 C 0.5114(5) 0.9155(3) 0.3041(3)
H15_2 H 0.4821 0.8592 0.2999
H16_2 H 0.5443 0.9274 0.3595
C20_2 C 0.6350(5) 0.9284(3) 0.2603(3)
H17_2 H 0.6663 0.9843 0.2655
H18_2 H 0.6020 0.9175 0.2048
C21_2 C 0.7656(5) 0.8737(3) 0.2908(4)
H19_2 H 0.7956 0.8824 0.3469
H20_2 H 0.7362 0.8176 0.2828
C22_2 C 0.8924(6) 0.8909(4) 0.2485(4)
H21_2 H 0.8617 0.8827 0.1924
H22_2 H 0.9218 0.9469 0.2568
N5_2 N 0.3659(4) 0.0967(3) 0.0487(2)
H1_2 H 0.3506 0.0708 0.0900
O1_2 O 0.9869(3) 0.19530(17) 0.17636(16)
O2_2 O 0.8504(3) 0.1146(2) 0.23742(17)
C1_2 C 0.8663(4) 0.1592(2) 0.1824(2)
C3_2 C 0.7417(4) 0.1728(2) 0.1150(2)
C4_2 C 0.7645(4) 0.2203(2) 0.0513(2)
H2_2 H 0.8523 0.2488 0.0527
C7_2 C 0.4976(4) 0.1378(2) 0.0498(2)
C8_2 C 0.6096(4) 0.1332(2) 0.1142(2)
H4_2 H 0.5952 0.1027 0.1577
C33_2 C 0.0144(4) 0.9181(3) 0.0136(3)
H29_2 H 0.0252 0.8629 0.0229
C34_2 C 0.1367(4) 0.9644(3) 0.0043(2)
H30_2 H 0.2286 0.9399 0.0073
C11_2 C 0.9856(4) 0.0819(3) 0.9864(3)
H7_2 H 0.9748 0.1371 0.9771
C12_2 C 0.8633(4) 0.0356(3) 0.9957(2)
H8_2 H 0.7714 0.0601 0.9927
N6_2 N 0.6341(4) 0.9033(3) 0.9513(2)
H23_2 H 0.6494 0.9292 0.9100
O5_2 O 0.0131(3) 0.80470(17) 0.82364(16)
O6_2 O 0.1496(3) 0.8854(2) 0.76258(17)
C23_2 C 0.1337(4) 0.8408(2) 0.8176(2)
C25_2 C 0.2583(4) 0.8272(2) 0.8850(2)
C26_2 C 0.2355(4) 0.7797(2) 0.9487(2)
H24_2 H 0.1477 0.7512 0.9473
C29_2 C 0.5024(4) 0.8622(2) 0.9502(2)
C30_2 C 0.3904(4) 0.8668(2) 0.8858(2)
H26_2 H 0.4048 0.8973 0.8423
N7_2 N 0.6160(4) 0.0341(2) 0.7250(2)
C37_2 C 0.7158(5) 0.0482(3) 0.7916(3)
H33_2 H 0.7172 0.0921 0.8254
C41_2 C 0.4886(5) 0.0845(3) 0.6959(3)
H37_2 H 0.5179 0.1408 0.7001
H38_2 H 0.4557 0.0726 0.6405
C42_2 C 0.3650(5) 0.0716(3) 0.7397(3)
H39_2 H 0.3337 0.0157 0.7345
H40_2 H 0.3980 0.0825 0.7952
C43_2 C 0.2344(5) 0.1263(3) 0.7092(4)
H41_2 H 0.2044 0.1176 0.6531
H42_2 H 0.2638 0.1824 0.7172
C44_2 C 0.1076(6) 0.1091(4) 0.7515(4)
H43_2 H 0.1383 0.1173 0.8076
H44_2 H 0.0782 0.0531 0.7432
loop_
_geom_bond_atom_site_label_1
_geom_bond_atom_site_label_2
_geom_bond_site_symmetry_1
_geom_bond_site_symmetry_2
N9 C38 1_555 1_555
N10 C38 1_555 1_555
C38 H34 1_555 1_555
C39 N10 1_555 1_555
H35 C39 1_555 1_555
C40 N9 1_555 1_555
H36 C40 1_555 1_555
H38 C41 1_555 1_555
C42 C41 1_555 1_555
H39 C42 1_555 1_555
H40 C42 1_555 1_555
C43 C42 1_555 1_555
H41 C43 1_555 1_555
H42 C43 1_555 1_555
C44 N9 1_555 1_555
H43 C44 1_555 1_555
H44 C44 1_555 1_555
Co6 N10 1_555 1_555
C39 C40 1_555 1_555
C43 C44 1_555 1_555
Co1 N2 1_555 1_555
N1 C13 1_555 1_555
N2 C13 1_555 1_555
O1 Co1 1_555 1_555
O2 C1 1_555 1_555
O3 C2 1_555 1_555
O4 C2 1_555 1_555
C1 O1 1_555 1_555
C2 C5 1_555 1_555
C3 C1 1_555 1_555
C4 C3 1_555 1_555
H2 C4 1_555 1_555
C5 C4 1_555 1_555
C6 C5 1_555 1_555
C8 C3 1_555 1_555
H4 C8 1_555 1_555
C13 H9 1_555 1_555
C14 N2 1_555 1_555
H10 C14 1_555 1_555
C15 N1 1_555 1_555
H11 C15 1_555 1_555
Co6 O4 1_555 1_555
N11 Co1 1_555 1_555
O10 Co1 1_555 1_555
C14 C15 1_555 1_555
N3 C16 1_555 1_555
N11 C16 1_555 1_555
C16 H12 1_555 1_555
C17 N11 1_555 1_555
H13 C17 1_555 1_555
C18 N3 1_555 1_555
H14 C18 1_555 1_555
C17 C18 1_555 1_555
O7 C24 1_555 1_555
O10 C24 1_555 1_555
C24 C27 1_555 1_555
C28 C27 1_555 1_555
H25 C28 1_555 1_555
H27 C31 1_555 1_555
H28 C31 1_555 1_555
C31 C32 1_555 1_555
N8 Co6 1_555 1_555
C35 N8 1_555 1_555
H31 C35 1_555 1_555
C36 N8 1_555 1_555
H32 C36 1_555 1_555
O5 C23 1_555 1_555
O6 C23 1_555 1_555
O7_2 C24_2 1_555 1_555
O8 C24_2 1_555 1_555
C23 C25 1_555 1_555
C24_2 C27_2 1_555 1_555
C25 C26 1_555 1_555
C26 H24 1_555 1_555
C27_2 C26 1_555 1_555
C28_2 C27_2 1_555 1_555
C30 C25 1_555 1_555
H26 C30 1_555 1_555
Co2 O5 1_555 1_555
N7 C35_2 1_555 1_555
N8_2 Co2 1_555 1_555
C35_2 N8_2 1_555 1_555
H31_2 C35_2 1_555 1_555
C36_2 N8_2 1_555 1_555
H32_2 C36_2 1_555 1_555
C37 N7 1_555 1_555
H33 C37 1_555 1_555
Co4 O8 1_555 1_555
N12 Co2 1_555 1_555
O9 Co2 1_555 1_555
C36_2 C37 1_555 1_555
N3_2 C16_2 1_555 1_555
N4 C16_2 1_555 1_555
C16_2 H12_2 1_555 1_555
C17_2 N4 1_555 1_555
H13_2 C17_2 1_555 1_555
C18_2 N3_2 1_555 1_555
H14_2 C18_2 1_555 1_555
H16 C19 1_555 1_555
C20 C19 1_555 1_555
H17 C20 1_555 1_555
H18 C20 1_555 1_555
C21 C20 1_555 1_555
H19 C21 1_555 1_555
H20 C21 1_555 1_555
C22 N3_2 1_555 1_555
H21 C22 1_555 1_555
H22 C22 1_555 1_555
Co4 N4 1_555 1_555
C17_2 C18_2 1_555 1_555
C21 C22 1_555 1_555
Co4 N2_2 1_555 1_555
N2_2 C13_2 1_555 1_555
C13_2 H9_2 1_555 1_555
C14_2 N2_2 1_555 1_555
H10_2 C14_2 1_555 1_555
O3_2 C2_2 1_555 1_555
O9 C2_2 1_555 1_555
C2_2 C5_2 1_555 1_555
C6_2 C5_2 1_555 1_555
H3 C6_2 1_555 1_555
H5 C9 1_555 1_555
H6 C9 1_555 1_555
C10 C9 1_555 1_555
N9_2 C38_2 1_555 1_555
N12 C38_2 1_555 1_555
C38_2 H34_2 1_555 1_555
C39_2 N12 1_555 1_555
H35_2 C39_2 1_555 1_555
C40_2 N9_2 1_555 1_555
H36_2 C40_2 1_555 1_555
C39_2 C40_2 1_555 1_555
N5 H1 1_555 1_555
C7 N5 1_555 1_555
C9_2 N5 1_555 1_555
H5_2 C9_2 1_555 1_555
H6_2 C9_2 1_555 1_555
C10_2 C9_2 1_555 1_555
C11 C10_2 1_555 1_555
H7 C11 1_555 1_555
C12 C11 1_555 1_555
H8 C12 1_555 1_555
N6 H23 1_555 1_555
C29 N6 1_555 1_555
C31_2 N6 1_555 1_555
H27_2 C31_2 1_555 1_555
H28_2 C31_2 1_555 1_555
C32_2 C12 1_555 1_555
C33 C32_2 1_555 1_555
H29 C33 1_555 1_555
C34 C10_2 1_555 1_555
H30 C34 1_555 1_555
C31_2 C32_2 1_555 1_555
C33 C34 1_555 1_555
C15_2 N1_2 1_555 1_555
H11_2 C15_2 1_555 1_555
C19_2 N1_2 1_555 1_555
H15_2 C19_2 1_555 1_555
H16_2 C19_2 1_555 1_555
C20_2 C19_2 1_555 1_555
H17_2 C20_2 1_555 1_555
H18_2 C20_2 1_555 1_555
C21_2 C20_2 1_555 1_555
H19_2 C21_2 1_555 1_555
H20_2 C21_2 1_555 1_555
H21_2 C22_2 1_555 1_555
H22_2 C22_2 1_555 1_555
C21_2 C22_2 1_555 1_555
N5_2 H1_2 1_555 1_555
O2_2 C1_2 1_555 1_555
C1_2 O1_2 1_555 1_555
C3_2 C1_2 1_555 1_555
C4_2 C3_2 1_555 1_555
H2_2 C4_2 1_555 1_555
C7_2 N5_2 1_555 1_555
C8_2 C3_2 1_555 1_555
H4_2 C8_2 1_555 1_555
C7_2 C8_2 1_555 1_555
H29_2 C33_2 1_555 1_555
H30_2 C34_2 1_555 1_555
C33_2 C34_2 1_555 1_555
H7_2 C11_2 1_555 1_555
C12_2 C11_2 1_555 1_555
H8_2 C12_2 1_555 1_555
N6_2 H23_2 1_555 1_555
O5_2 C23_2 1_555 1_555
O6_2 C23_2 1_555 1_555
C23_2 C25_2 1_555 1_555
C25_2 C26_2 1_555 1_555
C26_2 H24_2 1_555 1_555
C29_2 N6_2 1_555 1_555
C30_2 C25_2 1_555 1_555
H26_2 C30_2 1_555 1_555
C29_2 C30_2 1_555 1_555
C37_2 N7_2 1_555 1_555
H33_2 C37_2 1_555 1_555
C41_2 N7_2 1_555 1_555
H37_2 C41_2 1_555 1_555
H38_2 C41_2 1_555 1_555
C42_2 C41_2 1_555 1_555
H39_2 C42_2 1_555 1_555
H40_2 C42_2 1_555 1_555
C43_2 C42_2 1_555 1_555
H41_2 C43_2 1_555 1_555
H42_2 C43_2 1_555 1_555
H43_2 C44_2 1_555 1_555
H44_2 C44_2 1_555 1_555
C43_2 C44_2 1_555 1_555

#END
