
###############################################################################
#
# This file contains modified crystal structure data generated from the
# MOF subset of the Cambridge Structural Database (CSD) v543 
# hosted by the Cambridge Crystallographic Data Centre (CCDC).
#
# This work is licensed under the Creative Commons
# Attribution-NonCommercial-ShareAlike 4.0 International License.
# To view a copy of this license, visit
# http://creativecommons.org/licenses/by-nc-sa/4.0/
# or send a letter to
# Creative Commons, PO Box 1866, Mountain View, CA 94042, USA.
#
# CIF created using the CSD Python API on 29 September 2022
# The structure has been converted into the P1 space group
# The structure has a 3D framework
# The original CSD entry FAFGAU is in the monoclinic crystal system
# The framework has been calculated to contain at least 10.0% void space
# The void calculation uses a probe of radius 1.32A, grid spacing 0.4
# H atom positions have been added when not included in the experimental data
# Generated hydrogen atom positions removed from atoms on special positions
#
###############################################################################

data_FAFGAU
_chemical_formula_moiety         '(C62 H104 Nd7 O56)n'
_symmetry_cell_setting           triclinic
_symmetry_space_group_name_H-M   'P 1'
_symmetry_Int_Tables_number      1
_space_group_name_Hall           'P 1'
loop_
_symmetry_equiv_pos_site_id
_symmetry_equiv_pos_as_xyz
1 x,y,z
_cell_length_a                   8.061(2)
_cell_length_b                   15.080(3)
_cell_length_c                   19.740(3)
_cell_angle_alpha                90
_cell_angle_beta                 93.70(4)
_cell_angle_gamma                90
_cell_volume                     2394.59
loop_
_atom_site_label
_atom_site_type_symbol
_atom_site_fract_x
_atom_site_fract_y
_atom_site_fract_z
Nd1 Nd 0.25443(5) 0.03773(3) 0.01188(2)
O5 O 0.3457(8) 0.0552(4) 0.1328(3)
O6 O 0.3323(7) 0.1774(4) 0.0740(3)
C6 C 0.3663(9) 0.1372(6) 0.1298(5)
C7 C 0.4261(11) 0.1905(6) 0.1921(5)
C8 C 0.50000 0.1331(8) 0.25000
H1 H 0.050 0.143 0.162
H5 H 0.068 0.278 0.091
H7 H 0.332 0.224 0.209
H8 H 0.512 0.233 0.180
H9 H 0.588 0.095 0.233
H10 H 0.412 0.095 0.267
C10 C 0.5739(11) 0.1905(6) 0.3079(5)
C12 C 0.6337(9) 0.1372(6) 0.3702(5)
H11 H 0.668 0.224 0.291
H12 H 0.488 0.233 0.320
O13 O 0.6543(8) 0.0552(4) 0.3672(3)
O14 O 0.6677(7) 0.1774(4) 0.4260(3)
Nd5 Nd 0.74557(5) 0.03773(3) 0.48812(2)
O7 O 0.1133(8) 0.1485(4) 0.9384(4)
O9 O 0.5148(6) 0.0802(4) 0.9660(3)
Nd4 Nd 0.24557(5) 0.46227(3) 0.98812(2)
O11 O 0.4852(6) 0.9198(4) 0.0340(3)
O12 O 0.2336(6) 0.8836(4) 0.0607(3)
O2 O 0.2683(7) 0.9508(4) 0.9058(3)
O8 O 0.0133(7) 0.9551(4) 0.9379(3)
C9 C 0.1212(9) 0.9257(5) 0.8981(4)
C11 C 0.0720(10) 0.8593(5) 0.8447(5)
C13 C 0.1405(11) 0.7659(6) 0.8646(5)
H14 H 0.117 0.878 0.801
C14 C 0.0516(11) 0.7257(5) 0.9221(5)
H15 H 0.126 0.726 0.825
H16 H 0.259 0.771 0.878
C15 C 0.1159(9) 0.6363(5) 0.9427(5)
H18 H 0.067 0.766 0.962
O15 O 0.0148(6) 0.5802(4) 0.9660(3)
O16 O 0.2664(6) 0.6164(4) 0.9393(3)
O1 O 0.9867(7) 0.0449(4) 0.0621(3)
O3 O 0.9852(6) 0.4198(4) 0.0340(3)
O4 O 0.7336(6) 0.3836(4) 0.0607(3)
C1 C 0.8788(9) 0.0743(5) 0.1019(4)
C2 C 0.9280(10) 0.1407(5) 0.1553(5)
C3 C 0.8595(11) 0.2341(6) 0.1354(5)
C4 C 0.9484(11) 0.2743(5) 0.0779(5)
C5 C 0.8841(9) 0.3637(5) 0.0573(5)
H2 H 0.883 0.122 0.199
H3 H 0.874 0.274 0.175
H4 H 0.741 0.229 0.122
H6 H 0.933 0.234 0.038
O10 O 0.7317(7) 0.0492(4) 0.0942(3)
Nd3 Nd 0.75443(5) 0.53773(3) 0.01188(2)
O19 O 0.7664(6) 0.1164(4) 0.9393(3)
O22 O 0.8867(8) 0.8515(4) 0.0616(4)
Nd2 Nd 0.74557(5) 0.96227(3) 0.98812(2)
H13 H 0.950 0.857 0.838
H17 H 0.932 0.722 0.909
O20 O 0.6543(8) 0.9448(4) 0.8672(3)
O21 O 0.6677(7) 0.8226(4) 0.9260(3)
C8_2 C 0.00000 0.6331(8) 0.25000
H8_2 H 0.012 0.733 0.180
H9_2 H 0.088 0.595 0.233
C10_2 C 0.0739(11) 0.6905(6) 0.3079(5)
C12_2 C 0.1337(9) 0.6372(6) 0.3702(5)
H11_2 H 0.168 0.724 0.291
O13_2 O 0.1543(8) 0.5552(4) 0.3672(3)
O14_2 O 0.1677(7) 0.6774(4) 0.4260(3)
Nd5_2 Nd 0.24557(5) 0.53773(3) 0.48812(2)
O1_2 O 0.4867(7) 0.5449(4) 0.0621(3)
O5_2 O 0.8457(8) 0.5552(4) 0.1328(3)
O6_2 O 0.8323(7) 0.6774(4) 0.0740(3)
C1_2 C 0.3788(9) 0.5743(5) 0.1019(4)
C2_2 C 0.4280(10) 0.6407(5) 0.1553(5)
C3_2 C 0.3595(11) 0.7341(6) 0.1354(5)
C4_2 C 0.4484(11) 0.7743(5) 0.0779(5)
C5_2 C 0.3841(9) 0.8637(5) 0.0573(5)
C6_2 C 0.8663(9) 0.6372(6) 0.1298(5)
C7_2 C 0.9261(11) 0.6905(6) 0.1921(5)
C8_3 C 1.00000 0.6331(8) 0.25000
H1_2 H 0.550 0.643 0.162
H2_2 H 0.383 0.622 0.199
H3_2 H 0.374 0.774 0.175
H4_2 H 0.241 0.729 0.122
H5_2 H 0.568 0.778 0.091
H6_2 H 0.433 0.734 0.038
H7_2 H 0.832 0.724 0.209
O10_2 O 0.2317(7) 0.5492(4) 0.0942(3)
H10_2 H 0.912 0.595 0.267
H12_2 H 0.988 0.733 0.320
O22_2 O 0.3867(8) 0.3515(4) 0.0616(4)
O2_2 O 0.7683(7) 0.4508(4) 0.9058(3)
O7_2 O 0.6133(8) 0.6485(4) 0.9384(4)
O8_2 O 0.5133(7) 0.4551(4) 0.9379(3)
C9_2 C 0.6212(9) 0.4257(5) 0.8981(4)
C11_2 C 0.5720(10) 0.3593(5) 0.8447(5)
C13_2 C 0.6405(11) 0.2659(6) 0.8646(5)
H13_2 H 0.450 0.357 0.838
H14_2 H 0.617 0.378 0.801
C14_2 C 0.5516(11) 0.2257(5) 0.9221(5)
H15_2 H 0.626 0.226 0.825
H16_2 H 0.759 0.271 0.878
C15_2 C 0.6159(9) 0.1363(5) 0.9427(5)
H17_2 H 0.432 0.222 0.909
H18_2 H 0.567 0.266 0.962
O20_2 O 0.1543(8) 0.4448(4) 0.8672(3)
O21_2 O 0.1677(7) 0.3226(4) 0.9260(3)
O1_3 O 0.0133(7) 0.0449(4) 0.4379(3)
O3_2 O 0.0148(6) 0.4198(4) 0.4660(3)
O4_2 O 0.2664(6) 0.3836(4) 0.4393(3)
C1_3 C 0.1212(9) 0.0743(5) 0.3981(4)
C2_3 C 0.0720(10) 0.1407(5) 0.3447(5)
C3_3 C 0.1405(11) 0.2341(6) 0.3646(5)
C4_3 C 0.0516(11) 0.2743(5) 0.4221(5)
C5_3 C 0.1159(9) 0.3637(5) 0.4427(5)
H2_3 H 0.117 0.122 0.301
H3_3 H 0.126 0.274 0.325
H4_3 H 0.259 0.229 0.378
H6_3 H 0.067 0.234 0.462
O10_3 O 0.2683(7) 0.0492(4) 0.4058(3)
O18 O 0.4852(6) 0.0802(4) 0.5340(3)
O19_2 O 0.2336(6) 0.1164(4) 0.5607(3)
Nd2_2 Nd 0.25443(5) 0.96227(3) 0.51188(2)
H13_3 H 0.050 0.857 0.662
H17_3 H 0.068 0.722 0.591
O17 O 0.5148(6) 0.9198(4) 0.4660(3)
O20_3 O 0.3457(8) 0.9448(4) 0.6328(3)
O21_3 O 0.3323(7) 0.8226(4) 0.5740(3)
O22_3 O 0.1133(8) 0.8515(4) 0.4384(4)
O7_3 O 0.8867(8) 0.1485(4) 0.5616(4)
H1_3 H 0.950 0.143 0.338
H5_3 H 0.932 0.278 0.409
Nd4_2 Nd 0.75443(5) 0.46227(3) 0.51188(2)
O2_3 O 0.7317(7) 0.9508(4) 0.5942(3)
O8_3 O 0.9867(7) 0.9551(4) 0.5621(3)
C9_3 C 0.8788(9) 0.9257(5) 0.6019(4)
C11_3 C 0.9280(10) 0.8593(5) 0.6553(5)
O12_2 O 0.7664(6) 0.8836(4) 0.4393(3)
C13_3 C 0.8595(11) 0.7659(6) 0.6354(5)
H14_3 H 0.883 0.878 0.699
C14_3 C 0.9484(11) 0.7257(5) 0.5779(5)
H15_3 H 0.874 0.726 0.675
H16_3 H 0.741 0.771 0.622
C15_3 C 0.8841(9) 0.6363(5) 0.5573(5)
H18_3 H 0.933 0.766 0.538
O15_2 O 0.9852(6) 0.5802(4) 0.5340(3)
O16_2 O 0.7336(6) 0.6164(4) 0.5607(3)
O1_4 O 0.5133(7) 0.5449(4) 0.4379(3)
O2_4 O 0.2317(7) 0.4508(4) 0.5942(3)
O7_4 O 0.3867(8) 0.6485(4) 0.5616(4)
C1_4 C 0.6212(9) 0.5743(5) 0.3981(4)
C2_4 C 0.5720(10) 0.6407(5) 0.3447(5)
C3_4 C 0.6405(11) 0.7341(6) 0.3646(5)
C4_4 C 0.5516(11) 0.7743(5) 0.4221(5)
C5_4 C 0.6159(9) 0.8637(5) 0.4427(5)
H1_4 H 0.450 0.643 0.338
H2_4 H 0.617 0.622 0.301
H3_4 H 0.626 0.774 0.325
H4_4 H 0.759 0.729 0.378
H5_4 H 0.432 0.778 0.409
H6_4 H 0.567 0.734 0.462
O8_4 O 0.4867(7) 0.4551(4) 0.5621(3)
C9_4 C 0.3788(9) 0.4257(5) 0.6019(4)
O10_4 O 0.7683(7) 0.5492(4) 0.4058(3)
C11_4 C 0.4280(10) 0.3593(5) 0.6553(5)
C13_4 C 0.3595(11) 0.2659(6) 0.6354(5)
H13_4 H 0.550 0.357 0.662
H14_4 H 0.383 0.378 0.699
C14_4 C 0.4484(11) 0.2257(5) 0.5779(5)
H15_4 H 0.374 0.226 0.675
H16_4 H 0.241 0.271 0.622
C15_4 C 0.3841(9) 0.1363(5) 0.5573(5)
H17_4 H 0.568 0.222 0.591
H18_4 H 0.433 0.266 0.538
O20_4 O 0.8457(8) 0.4448(4) 0.6328(3)
O21_4 O 0.8323(7) 0.3226(4) 0.5740(3)
O22_4 O 0.6133(8) 0.3515(4) 0.4384(4)
C6_3 C 0.6337(9) 0.8628(6) 0.8702(5)
C7_3 C 0.5739(11) 0.8095(6) 0.8079(5)
C8_4 C 0.50000 0.8669(8) 0.75000
H7_3 H 0.668 0.776 0.791
H8_3 H 0.488 0.767 0.820
H9_3 H 0.412 0.905 0.767
H10_3 H 0.588 0.905 0.733
C10_3 C 0.4261(11) 0.8095(6) 0.6921(5)
C12_3 C 0.3663(9) 0.8628(6) 0.6298(5)
H11_3 H 0.332 0.776 0.709
H12_3 H 0.512 0.767 0.680
C6_4 C 0.1337(9) 0.3628(6) 0.8702(5)
C7_4 C 0.0739(11) 0.3095(6) 0.8079(5)
C8_5 C 0.00000 0.3669(8) 0.75000
H7_4 H 0.168 0.276 0.791
H10_4 H 0.088 0.405 0.733
H12_4 H 0.012 0.267 0.680
C8_6 C 1.00000 0.3669(8) 0.75000
H8_4 H 0.988 0.267 0.820
H9_4 H 0.912 0.405 0.767
C10_4 C 0.9261(11) 0.3095(6) 0.6921(5)
C12_4 C 0.8663(9) 0.3628(6) 0.6298(5)
H11_4 H 0.832 0.276 0.709
loop_
_geom_bond_atom_site_label_1
_geom_bond_atom_site_label_2
_geom_bond_site_symmetry_1
_geom_bond_site_symmetry_2
O5 Nd1 1_555 1_555
O6 Nd1 1_555 1_555
C6 O5 1_555 1_555
C7 C6 1_555 1_555
C8 C7 1_555 1_555
H7 C7 1_555 1_555
H8 C7 1_555 1_555
H9 C8 1_555 1_555
H10 C8 1_555 1_555
C10 C8 1_555 1_555
C12 C10 1_555 1_555
H11 C10 1_555 1_555
H12 C10 1_555 1_555
O13 C12 1_555 1_555
O14 C12 1_555 1_555
Nd5 O13 1_555 1_555
O6 C6 1_555 1_555
O14 Nd5 1_555 1_555
C9 O2 1_555 1_555
C11 C9 1_555 1_555
C13 C11 1_555 1_555
H14 C11 1_555 1_555
C14 C13 1_555 1_555
H15 C13 1_555 1_555
H16 C13 1_555 1_555
C15 C14 1_555 1_555
H18 C14 1_555 1_555
O15 C15 1_555 1_555
O16 C15 1_555 1_555
Nd4 O15 1_555 1_555
O8 C9 1_555 1_555
O16 Nd4 1_555 1_555
O1 C1 1_555 1_555
O3 C5 1_555 1_555
O4 C5 1_555 1_555
C1 C2 1_555 1_555
C2 C3 1_555 1_555
C3 C4 1_555 1_555
C4 C5 1_555 1_555
H2 C2 1_555 1_555
H3 C3 1_555 1_555
H4 C3 1_555 1_555
H6 C4 1_555 1_555
O10 C1 1_555 1_555
Nd3 O3 1_555 1_555
O4 Nd3 1_555 1_555
O20 Nd2 1_555 1_555
O21 Nd2 1_555 1_555
H9_2 C8_2 1_555 1_555
C10_2 C8_2 1_555 1_555
C12_2 C10_2 1_555 1_555
H11_2 C10_2 1_555 1_555
O13_2 C12_2 1_555 1_555
O14_2 C12_2 1_555 1_555
Nd5_2 O13_2 1_555 1_555
O14_2 Nd5_2 1_555 1_555
Nd3 O1_2 1_555 1_555
O1_2 C1_2 1_555 1_555
O11 C5_2 1_555 1_555
O12 C5_2 1_555 1_555
O5_2 Nd3 1_555 1_555
O6_2 Nd3 1_555 1_555
C1_2 C2_2 1_555 1_555
C2_2 C3_2 1_555 1_555
C3_2 C4_2 1_555 1_555
C4_2 C5_2 1_555 1_555
C6_2 O5_2 1_555 1_555
C7_2 C6_2 1_555 1_555
C8_3 C7_2 1_555 1_555
H1_2 C2_2 1_555 1_555
H2_2 C2_2 1_555 1_555
H3_2 C3_2 1_555 1_555
H4_2 C3_2 1_555 1_555
H5_2 C4_2 1_555 1_555
H6_2 C4_2 1_555 1_555
H7_2 C7_2 1_555 1_555
O10_2 C1_2 1_555 1_555
H10_2 C8_3 1_555 1_555
O6_2 C6_2 1_555 1_555
C9_2 O2_2 1_555 1_555
C11_2 C9_2 1_555 1_555
C13_2 C11_2 1_555 1_555
H13_2 C11_2 1_555 1_555
H14_2 C11_2 1_555 1_555
C14_2 C13_2 1_555 1_555
H15_2 C13_2 1_555 1_555
H16_2 C13_2 1_555 1_555
C15_2 C14_2 1_555 1_555
H17_2 C14_2 1_555 1_555
H18_2 C14_2 1_555 1_555
O9 C15_2 1_555 1_555
O19 C15_2 1_555 1_555
O20_2 Nd4 1_555 1_555
O21_2 Nd4 1_555 1_555
O8_2 Nd4 1_555 1_555
O8_2 C9_2 1_555 1_555
O1_3 C1_3 1_555 1_555
O3_2 C5_3 1_555 1_555
O4_2 C5_3 1_555 1_555
C1_3 C2_3 1_555 1_555
C2_3 C3_3 1_555 1_555
C3_3 C4_3 1_555 1_555
C4_3 C5_3 1_555 1_555
H2_3 C2_3 1_555 1_555
H3_3 C3_3 1_555 1_555
H4_3 C3_3 1_555 1_555
H6_3 C4_3 1_555 1_555
O10_3 C1_3 1_555 1_555
Nd5_2 O3_2 1_555 1_555
O4_2 Nd5_2 1_555 1_555
O17 Nd2_2 1_555 1_555
O20_3 Nd2_2 1_555 1_555
O21_3 Nd2_2 1_555 1_555
O22_3 Nd2_2 1_555 1_555
O7_3 Nd5 1_555 1_555
O18 Nd5 1_555 1_555
C9_3 O2_3 1_555 1_555
C11_3 C9_3 1_555 1_555
C13_3 C11_3 1_555 1_555
H14_3 C11_3 1_555 1_555
C14_3 C13_3 1_555 1_555
H15_3 C13_3 1_555 1_555
H16_3 C13_3 1_555 1_555
C15_3 C14_3 1_555 1_555
H18_3 C14_3 1_555 1_555
O15_2 C15_3 1_555 1_555
O16_2 C15_3 1_555 1_555
Nd4_2 O15_2 1_555 1_555
O8_3 C9_3 1_555 1_555
O16_2 Nd4_2 1_555 1_555
Nd5_2 O1_4 1_555 1_555
O1_4 C1_4 1_555 1_555
O2_4 Nd5_2 1_555 1_555
O17 C5_4 1_555 1_555
O12_2 C5_4 1_555 1_555
O7_4 Nd5_2 1_555 1_555
C1_4 C2_4 1_555 1_555
C2_4 C3_4 1_555 1_555
C3_4 C4_4 1_555 1_555
C4_4 C5_4 1_555 1_555
H1_4 C2_4 1_555 1_555
H2_4 C2_4 1_555 1_555
H3_4 C3_4 1_555 1_555
H4_4 C3_4 1_555 1_555
H5_4 C4_4 1_555 1_555
H6_4 C4_4 1_555 1_555
O8_4 Nd5_2 1_555 1_555
Nd4_2 O1_4 1_555 1_555
C9_4 O2_4 1_555 1_555
O10_4 C1_4 1_555 1_555
C11_4 C9_4 1_555 1_555
C13_4 C11_4 1_555 1_555
H13_4 C11_4 1_555 1_555
H14_4 C11_4 1_555 1_555
C14_4 C13_4 1_555 1_555
H15_4 C13_4 1_555 1_555
H16_4 C13_4 1_555 1_555
C15_4 C14_4 1_555 1_555
H17_4 C14_4 1_555 1_555
H18_4 C14_4 1_555 1_555
O18 C15_4 1_555 1_555
O19_2 C15_4 1_555 1_555
O20_4 Nd4_2 1_555 1_555
O21_4 Nd4_2 1_555 1_555
O22_4 Nd4_2 1_555 1_555
O8_4 Nd4_2 1_555 1_555
O8_4 C9_4 1_555 1_555
Nd4_2 O10_4 1_555 1_555
C6_3 O20 1_555 1_555
C7_3 C6_3 1_555 1_555
C8_4 C7_3 1_555 1_555
H7_3 C7_3 1_555 1_555
H8_3 C7_3 1_555 1_555
H9_3 C8_4 1_555 1_555
H10_3 C8_4 1_555 1_555
C10_3 C8_4 1_555 1_555
C12_3 C10_3 1_555 1_555
H11_3 C10_3 1_555 1_555
H12_3 C10_3 1_555 1_555
O20_3 C12_3 1_555 1_555
O21_3 C12_3 1_555 1_555
O21 C6_3 1_555 1_555
C6_4 O20_2 1_555 1_555
C7_4 C6_4 1_555 1_555
C8_5 C7_4 1_555 1_555
H7_4 C7_4 1_555 1_555
H10_4 C8_5 1_555 1_555
O21_2 C6_4 1_555 1_555
H9_4 C8_6 1_555 1_555
C10_4 C8_6 1_555 1_555
C12_4 C10_4 1_555 1_555
H11_4 C10_4 1_555 1_555
O20_4 C12_4 1_555 1_555
O21_4 C12_4 1_555 1_555

#END
