
###############################################################################
#
# This file contains modified crystal structure data generated from the
# MOF subset of the Cambridge Structural Database (CSD) v543 
# hosted by the Cambridge Crystallographic Data Centre (CCDC).
#
# This work is licensed under the Creative Commons
# Attribution-NonCommercial-ShareAlike 4.0 International License.
# To view a copy of this license, visit
# http://creativecommons.org/licenses/by-nc-sa/4.0/
# or send a letter to
# Creative Commons, PO Box 1866, Mountain View, CA 94042, USA.
#
# CIF created using the CSD Python API on 29 September 2022
# The structure has been converted into the P1 space group
# The structure has a 3D framework
# The original CSD entry FAFMAA is in the cubic crystal system
# The framework has been calculated to contain at least 10.0% void space
# The void calculation uses a probe of radius 1.32A, grid spacing 0.4
# H atom positions have been added when not included in the experimental data
# Generated hydrogen atom positions removed from atoms on special positions
#
###############################################################################

data_FAFMAA
_chemical_formula_moiety         '(C96 H192 O144 Zn36)n'
_symmetry_cell_setting           triclinic
_symmetry_space_group_name_H-M   'P 1'
_symmetry_Int_Tables_number      1
_space_group_name_Hall           'P 1'
loop_
_symmetry_equiv_pos_site_id
_symmetry_equiv_pos_as_xyz
1 x,y,z
_cell_length_a                   16.260(4)
_cell_length_b                   16.260(4)
_cell_length_c                   16.260(4)
_cell_angle_alpha                90
_cell_angle_beta                 90
_cell_angle_gamma                90
_cell_volume                     4298.94
loop_
_atom_site_label
_atom_site_type_symbol
_atom_site_fract_x
_atom_site_fract_y
_atom_site_fract_z
Zn1 Zn 0.2485(1) 0.2485(1) 0.0000
O1 O 0.2380(4) 0.1309(4) 0.0517(4)
O2 O 0.3699(4) 0.2540(4) 0.0492(4)
C1 C 0.2326(7) 0.0594(6) 0.0226(7)
C2 C 0.4406(5) 0.2508(6) 0.0231(5)
O3 O 0.2099(4) 0.2861(4) 0.1142(3)
C6 C 0.5231(5) 0.2492(6) 0.0594(5)
O7 O 0.5492(4) 0.2460(4) 0.1301(4)
Zn2 Zn 0.2485(1) 0.0000 0.2485(1)
O12 O 0.2861(4) 0.1142(3) 0.2099(4)
Zn5 Zn 0.5000 0.2515(1) 0.2515(1)
Zn6 Zn 0.7515(1) 0.2485(1) 0.0000
O15 O 0.1309(4) 0.0517(4) 0.2380(4)
O16 O 0.2540(4) 0.0492(4) 0.3699(4)
Zn1_2 Zn 0.2485(1) 0.2485(1) 1.0000
C5 C 0.2326(7) 0.0226(7) 0.9406(6)
O6 O 0.2380(4) 0.0517(4) 0.8691(4)
C7 C 0.5594(5) 0.2508(6) 0.9769(5)
O8 O 0.6301(4) 0.2540(4) 0.9508(4)
C8 C 0.4769(5) 0.2492(6) 0.9406(5)
O9 O 0.4508(4) 0.2460(4) 0.8699(4)
O10 O 0.2861(4) 0.2099(4) 0.8858(3)
O13 O 0.1309(4) 0.2380(4) 0.9483(4)
O14 O 0.2540(4) 0.3699(4) 0.9508(4)
Zn4 Zn 0.2485(1) 0.0000 0.7515(1)
Zn6_2 Zn 0.7515(1) 0.2485(1) 1.0000
Zn7 Zn 0.5000 0.2515(1) 0.7485(1)
C3 C 0.2326(7) 0.9774(7) 0.0594(6)
O4 O 0.2380(4) 0.9483(4) 0.1309(4)
Zn2_2 Zn 0.2485(1) 1.0000 0.2485(1)
O11 O 0.2099(4) 0.8858(3) 0.2861(4)
Zn3 Zn 0.2485(1) 0.7515(1) 0.0000
O17 O 0.3699(4) 0.9508(4) 0.2540(4)
C4 C 0.2326(7) 0.9406(6) 0.9774(7)
O5 O 0.2380(4) 0.8691(4) 0.9483(4)
Zn3_2 Zn 0.2485(1) 0.7515(1) 1.0000
Zn4_2 Zn 0.2485(1) 1.0000 0.7515(1)
Zn1_3 Zn 0.0000 0.2485(1) 0.2485(1)
O1_2 O 0.0517(4) 0.2380(4) 0.1309(4)
O2_2 O 0.0492(4) 0.3699(4) 0.2540(4)
C1_2 C 0.0226(7) 0.2326(7) 0.0594(6)
C2_2 C 0.0231(5) 0.4406(5) 0.2508(6)
O3_2 O 0.1142(3) 0.2099(4) 0.2861(4)
C6_2 C 0.0594(5) 0.5231(5) 0.2492(6)
O7_2 O 0.1301(4) 0.5492(4) 0.2460(4)
Zn5_2 Zn 0.2515(1) 0.5000 0.2515(1)
Zn6_3 Zn 0.0000 0.7515(1) 0.2485(1)
C3_2 C 0.0594(6) 0.2326(7) 0.9774(7)
Zn3_3 Zn 0.0000 0.2485(1) 0.7515(1)
Zn1_4 Zn 1.0000 0.2485(1) 0.2485(1)
C5_2 C 0.9406(6) 0.2326(7) 0.0226(7)
O6_2 O 0.8691(4) 0.2380(4) 0.0517(4)
C7_2 C 0.9769(5) 0.5594(5) 0.2508(6)
O8_2 O 0.9508(4) 0.6301(4) 0.2540(4)
C8_2 C 0.9406(5) 0.4769(5) 0.2492(6)
O9_2 O 0.8699(4) 0.4508(4) 0.2460(4)
O10_2 O 0.8858(3) 0.2861(4) 0.2099(4)
O13_2 O 0.9483(4) 0.1309(4) 0.2380(4)
O14_2 O 0.9508(4) 0.2540(4) 0.3699(4)
Zn6_4 Zn 1.0000 0.7515(1) 0.2485(1)
Zn7_2 Zn 0.7485(1) 0.5000 0.2515(1)
C4_2 C 0.9774(7) 0.2326(7) 0.9406(6)
O5_2 O 0.9483(4) 0.2380(4) 0.8691(4)
Zn3_4 Zn 1.0000 0.2485(1) 0.7515(1)
C1_3 C 0.0594(6) 0.0226(7) 0.2326(7)
C2_3 C 0.2508(6) 0.0231(5) 0.4406(5)
C6_3 C 0.2492(6) 0.0594(5) 0.5231(5)
O7_3 O 0.2460(4) 0.1301(4) 0.5492(4)
Zn5_3 Zn 0.2515(1) 0.2515(1) 0.5000
C5_3 C 0.0226(7) 0.9406(6) 0.2326(7)
O6_3 O 0.0517(4) 0.8691(4) 0.2380(4)
C7_3 C 0.2508(6) 0.9769(5) 0.5594(5)
O8_3 O 0.2540(4) 0.9508(4) 0.6301(4)
C8_3 C 0.2492(6) 0.9406(5) 0.4769(5)
O9_3 O 0.2460(4) 0.8699(4) 0.4508(4)
Zn7_3 Zn 0.2515(1) 0.7485(1) 0.5000
C3_3 C 0.9774(7) 0.0594(6) 0.2326(7)
Zn3_5 Zn 0.7515(1) 0.0000 0.2485(1)
C4_3 C 0.9406(6) 0.9774(7) 0.2326(7)
O5_3 O 0.8691(4) 0.9483(4) 0.2380(4)
Zn3_6 Zn 0.7515(1) 1.0000 0.2485(1)
C4_4 C 0.7674(7) 0.0226(7) 0.0594(6)
O5_4 O 0.7620(4) 0.0517(4) 0.1309(4)
Zn1_5 Zn 0.7515(1) 0.0000 0.7515(1)
C5_4 C 0.7674(7) 0.0594(6) 0.9774(7)
O6_4 O 0.7620(4) 0.1309(4) 0.9483(4)
C7_4 C 0.4406(5) 0.0231(5) 0.7492(6)
O8_4 O 0.3699(4) 0.0492(4) 0.7460(4)
C8_4 C 0.5231(5) 0.0594(5) 0.7508(6)
O9_4 O 0.5492(4) 0.1301(4) 0.7540(4)
O10_3 O 0.7139(4) 0.1142(3) 0.7901(4)
O13_3 O 0.8691(4) 0.0517(4) 0.7620(4)
O14_3 O 0.7460(4) 0.0492(4) 0.6301(4)
C3_4 C 0.7674(7) 0.9406(6) 0.0226(7)
O4_2 O 0.7620(4) 0.8691(4) 0.0517(4)
Zn2_3 Zn 0.7515(1) 0.7515(1) -0.0000
O11_2 O 0.7901(4) 0.7139(4) 0.1142(3)
O17_2 O 0.6301(4) 0.7460(4) 0.0492(4)
Zn1_6 Zn 0.7515(1) 1.0000 0.7515(1)
O1_3 O 0.7620(4) 0.9483(4) 0.8691(4)
O2_3 O 0.6301(4) 0.9508(4) 0.7460(4)
C1_4 C 0.7674(7) 0.9774(7) 0.9406(6)
C2_4 C 0.5594(5) 0.9769(5) 0.7492(6)
O3_3 O 0.7901(4) 0.8858(3) 0.7139(4)
C6_4 C 0.4769(5) 0.9406(5) 0.7508(6)
O7_4 O 0.4508(4) 0.8699(4) 0.7540(4)
Zn2_4 Zn 0.7515(1) 0.7515(1) 1.0000
O12_2 O 0.7139(4) 0.7901(4) 0.8858(3)
Zn5_4 Zn 0.5000 0.7485(1) 0.7485(1)
O15_2 O 0.8691(4) 0.7620(4) 0.9483(4)
O16_2 O 0.7460(4) 0.6301(4) 0.9508(4)
C4_5 C 0.0594(6) 0.7674(7) 0.0226(7)
O5_5 O 0.1309(4) 0.7620(4) 0.0517(4)
C3_5 C 0.0226(7) 0.7674(7) 0.9406(6)
O4_3 O 0.0517(4) 0.7620(4) 0.8691(4)
Zn2_5 Zn 0.0000 0.7515(1) 0.7515(1)
O11_3 O 0.1142(3) 0.7901(4) 0.7139(4)
O17_3 O 0.0492(4) 0.6301(4) 0.7460(4)
C5_5 C 0.9774(7) 0.7674(7) 0.0594(6)
O6_5 O 0.9483(4) 0.7620(4) 0.1309(4)
C7_5 C 0.7492(6) 0.4406(5) 0.0231(5)
O8_5 O 0.7460(4) 0.3699(4) 0.0492(4)
C8_5 C 0.7508(6) 0.5231(5) 0.0594(5)
O9_5 O 0.7540(4) 0.5492(4) 0.1301(4)
C1_5 C 0.9406(6) 0.7674(7) 0.9774(7)
C2_5 C 0.7492(6) 0.5594(5) 0.9769(5)
C6_5 C 0.7508(6) 0.4769(5) 0.9406(5)
O7_5 O 0.7540(4) 0.4508(4) 0.8699(4)
Zn2_6 Zn 1.0000 0.7515(1) 0.7515(1)
O12_3 O 0.8858(3) 0.7139(4) 0.7901(4)
Zn5_5 Zn 0.7485(1) 0.5000 0.7485(1)
O15_3 O 0.9483(4) 0.8691(4) 0.7620(4)
O16_3 O 0.9508(4) 0.7460(4) 0.6301(4)
C4_6 C 0.0226(7) 0.0594(6) 0.7674(7)
O5_6 O 0.0517(4) 0.1309(4) 0.7620(4)
C5_6 C 0.0594(6) 0.9774(7) 0.7674(7)
O6_6 O 0.1309(4) 0.9483(4) 0.7620(4)
C7_6 C 0.0231(5) 0.7492(6) 0.4406(5)
O8_6 O 0.0492(4) 0.7460(4) 0.3699(4)
C8_6 C 0.0594(5) 0.7508(6) 0.5231(5)
O9_6 O 0.1301(4) 0.7540(4) 0.5492(4)
C3_6 C 0.9406(6) 0.0226(7) 0.7674(7)
C1_6 C 0.9774(7) 0.9406(6) 0.7674(7)
C2_6 C 0.9769(5) 0.7492(6) 0.5594(5)
C6_6 C 0.9406(5) 0.7508(6) 0.4769(5)
O7_6 O 0.8699(4) 0.7540(4) 0.4508(4)
Zn5_6 Zn 0.7485(1) 0.7485(1) 0.5000
O11_4 O 0.2099(4) 0.1142(3) 0.7139(4)
C7_7 C 0.5594(5) 0.7492(6) 0.0231(5)
C8_7 C 0.4769(5) 0.7508(6) 0.0594(5)
O9_7 O 0.4508(4) 0.7540(4) 0.1301(4)
O10_4 O 0.2861(4) 0.7901(4) 0.1142(3)
O14_4 O 0.2540(4) 0.6301(4) 0.0492(4)
Zn7_4 Zn 0.5000 0.7485(1) 0.2515(1)
O2_4 O 0.3699(4) 0.7460(4) 0.9508(4)
C2_7 C 0.4406(5) 0.7492(6) 0.9769(5)
O3_4 O 0.2099(4) 0.7139(4) 0.8858(3)
C6_7 C 0.5231(5) 0.7508(6) 0.9406(5)
O7_7 O 0.5492(4) 0.7540(4) 0.8699(4)
O12_4 O 0.2861(4) 0.8858(3) 0.7901(4)
C2_8 C 0.0231(5) 0.5594(5) 0.7492(6)
C6_8 C 0.0594(5) 0.4769(5) 0.7508(6)
O7_8 O 0.1301(4) 0.4508(4) 0.7540(4)
Zn5_7 Zn 0.2515(1) 0.5000 0.7485(1)
C7_8 C 0.9769(5) 0.4406(5) 0.7492(6)
O8_7 O 0.9508(4) 0.3699(4) 0.7460(4)
C8_8 C 0.9406(5) 0.5231(5) 0.7508(6)
O9_8 O 0.8699(4) 0.5492(4) 0.7540(4)
O2_5 O 0.6301(4) 0.0492(4) 0.2540(4)
C2_9 C 0.5594(5) 0.0231(5) 0.2508(6)
O3_5 O 0.7901(4) 0.1142(3) 0.2861(4)
C6_9 C 0.4769(5) 0.0594(5) 0.2492(6)
O7_9 O 0.4508(4) 0.1301(4) 0.2460(4)
O12_5 O 0.7139(4) 0.2099(4) 0.1142(3)
O11_5 O 0.7901(4) 0.2861(4) 0.8858(3)
C7_9 C 0.4406(5) 0.9769(5) 0.2508(6)
C8_9 C 0.5231(5) 0.9406(5) 0.2492(6)
O9_9 O 0.5492(4) 0.8699(4) 0.2460(4)
O10_5 O 0.7139(4) 0.8858(3) 0.2099(4)
O14_5 O 0.7460(4) 0.9508(4) 0.3699(4)
C7_10 C 0.0231(5) 0.2508(6) 0.5594(5)
O8_8 O 0.0492(4) 0.2540(4) 0.6301(4)
C8_10 C 0.0594(5) 0.2492(6) 0.4769(5)
O9_10 O 0.1301(4) 0.2460(4) 0.4508(4)
C2_10 C 0.9769(5) 0.2508(6) 0.4406(5)
C6_10 C 0.9406(5) 0.2492(6) 0.5231(5)
O7_10 O 0.8699(4) 0.2460(4) 0.5492(4)
Zn5_8 Zn 0.7485(1) 0.2515(1) 0.5000
O10_6 O 0.1142(3) 0.2861(4) 0.7901(4)
O3_6 O 0.8858(3) 0.2099(4) 0.7139(4)
C2_11 C 0.7492(6) 0.0231(5) 0.5594(5)
C6_11 C 0.7508(6) 0.0594(5) 0.4769(5)
O7_11 O 0.7540(4) 0.1301(4) 0.4508(4)
C7_11 C 0.7492(6) 0.9769(5) 0.4406(5)
C8_11 C 0.7508(6) 0.9406(5) 0.5231(5)
O9_11 O 0.7540(4) 0.8699(4) 0.5492(4)
C2_12 C 0.2508(6) 0.5594(5) 0.0231(5)
C6_12 C 0.2492(6) 0.4769(5) 0.0594(5)
O7_12 O 0.2460(4) 0.4508(4) 0.1301(4)
O12_6 O 0.1142(3) 0.7139(4) 0.2099(4)
C7_12 C 0.2508(6) 0.4406(5) 0.9769(5)
C8_12 C 0.2492(6) 0.5231(5) 0.9406(5)
O9_12 O 0.2460(4) 0.5492(4) 0.8699(4)
O11_6 O 0.8858(3) 0.7901(4) 0.2861(4)
O1_4 O 0.2620(4) 0.3691(4) 0.4483(4)
C1_7 C 0.2674(7) 0.4406(6) 0.4774(7)
O3_7 O 0.2901(4) 0.2139(4) 0.3858(3)
C3_7 C 0.2674(7) 0.5226(7) 0.4406(6)
O4_4 O 0.2620(4) 0.5517(4) 0.3691(4)
C4_7 C 0.2674(7) 0.5594(6) 0.5226(7)
O5_7 O 0.2620(4) 0.6309(4) 0.5517(4)
C5_7 C 0.2674(7) 0.4774(7) 0.5594(6)
O6_7 O 0.2620(4) 0.4483(4) 0.6309(4)
O10_7 O 0.2139(4) 0.2901(4) 0.6142(3)
O11_7 O 0.2901(4) 0.6142(3) 0.2139(4)
O12_7 O 0.2139(4) 0.3858(3) 0.2901(4)
O13_4 O 0.3691(4) 0.2620(4) 0.5517(4)
O15_4 O 0.3691(4) 0.4483(4) 0.2620(4)
O1_5 O 0.4483(4) 0.2620(4) 0.3691(4)
C1_8 C 0.4774(7) 0.2674(7) 0.4406(6)
O3_8 O 0.3858(3) 0.2901(4) 0.2139(4)
C3_8 C 0.4406(6) 0.2674(7) 0.5226(7)
C4_8 C 0.5226(7) 0.2674(7) 0.5594(6)
O5_8 O 0.5517(4) 0.2620(4) 0.6309(4)
C5_8 C 0.5594(6) 0.2674(7) 0.4774(7)
O6_8 O 0.6309(4) 0.2620(4) 0.4483(4)
O10_8 O 0.6142(3) 0.2139(4) 0.2901(4)
O13_5 O 0.5517(4) 0.3691(4) 0.2620(4)
C1_9 C 0.4406(6) 0.4774(7) 0.2674(7)
C3_9 C 0.5226(7) 0.4406(6) 0.2674(7)
C4_9 C 0.5594(6) 0.5226(7) 0.2674(7)
O5_9 O 0.6309(4) 0.5517(4) 0.2620(4)
C5_9 C 0.4774(7) 0.5594(6) 0.2674(7)
O6_9 O 0.4483(4) 0.6309(4) 0.2620(4)
O3_9 O 0.2901(4) 0.7861(4) 0.6142(3)
O10_9 O 0.2139(4) 0.7099(4) 0.3858(3)
O11_8 O 0.2901(4) 0.3858(3) 0.7861(4)
O12_8 O 0.2139(4) 0.6142(3) 0.7099(4)
O13_6 O 0.3691(4) 0.7380(4) 0.4483(4)
O15_5 O 0.3691(4) 0.5517(4) 0.7380(4)
O1_6 O 0.4483(4) 0.7380(4) 0.6309(4)
C1_10 C 0.4774(7) 0.7326(7) 0.5594(6)
O3_10 O 0.3858(3) 0.7099(4) 0.7861(4)
C3_10 C 0.4406(6) 0.7326(7) 0.4774(7)
C4_10 C 0.5226(7) 0.7326(7) 0.4406(6)
O5_10 O 0.5517(4) 0.7380(4) 0.3691(4)
C5_10 C 0.5594(6) 0.7326(7) 0.5226(7)
O6_10 O 0.6309(4) 0.7380(4) 0.5517(4)
O10_10 O 0.6142(3) 0.7861(4) 0.7099(4)
O13_7 O 0.5517(4) 0.6309(4) 0.7380(4)
C1_11 C 0.4406(6) 0.5226(7) 0.7326(7)
C3_11 C 0.5226(7) 0.5594(6) 0.7326(7)
C4_11 C 0.5594(6) 0.4774(7) 0.7326(7)
O5_11 O 0.6309(4) 0.4483(4) 0.7380(4)
C5_11 C 0.4774(7) 0.4406(6) 0.7326(7)
O6_11 O 0.4483(4) 0.3691(4) 0.7380(4)
O1_7 O 0.7380(4) 0.3691(4) 0.5517(4)
C1_12 C 0.7326(7) 0.4406(6) 0.5226(7)
O3_11 O 0.7099(4) 0.2139(4) 0.6142(3)
C3_12 C 0.7326(7) 0.5226(7) 0.5594(6)
O4_5 O 0.7380(4) 0.5517(4) 0.6309(4)
C4_12 C 0.7326(7) 0.5594(6) 0.4774(7)
O5_12 O 0.7380(4) 0.6309(4) 0.4483(4)
C5_12 C 0.7326(7) 0.4774(7) 0.4406(6)
O6_12 O 0.7380(4) 0.4483(4) 0.3691(4)
O10_11 O 0.7861(4) 0.2901(4) 0.3858(3)
O11_9 O 0.7099(4) 0.6142(3) 0.7861(4)
O12_9 O 0.7861(4) 0.3858(3) 0.7099(4)
O3_12 O 0.6142(3) 0.2901(4) 0.7861(4)
O10_12 O 0.3858(3) 0.2139(4) 0.7099(4)
O3_13 O 0.7099(4) 0.7861(4) 0.3858(3)
O10_13 O 0.7861(4) 0.7099(4) 0.6142(3)
O11_10 O 0.7099(4) 0.3858(3) 0.2139(4)
O12_10 O 0.7861(4) 0.6142(3) 0.2901(4)
O3_14 O 0.6142(3) 0.7099(4) 0.2139(4)
O10_14 O 0.3858(3) 0.7861(4) 0.2901(4)
loop_
_geom_bond_atom_site_label_1
_geom_bond_atom_site_label_2
_geom_bond_site_symmetry_1
_geom_bond_site_symmetry_2
Zn1 O1 1_555 1_555
O1 C1 1_555 1_555
O2 Zn1 1_555 1_555
C2 O2 1_555 1_555
O3 Zn1 1_555 1_555
C6 C2 1_555 1_555
O7 C6 1_555 1_555
O12 Zn2 1_555 1_555
Zn5 O7 1_555 1_555
O15 Zn2 1_555 1_555
O16 Zn2 1_555 1_555
O6 C5 1_555 1_555
O8 C7 1_555 1_555
O9 C8 1_555 1_555
O10 Zn1_2 1_555 1_555
O13 Zn1_2 1_555 1_555
O14 Zn1_2 1_555 1_555
Zn4 O6 1_555 1_555
Zn6_2 O8 1_555 1_555
Zn7 O9 1_555 1_555
C7 C8 1_555 1_555
C3 O4 1_555 1_555
O4 Zn2_2 1_555 1_555
Zn2_2 O11 1_555 1_555
O17 Zn2_2 1_555 1_555
O5 C4 1_555 1_555
Zn3_2 O5 1_555 1_555
Zn1_3 O1_2 1_555 1_555
O1_2 C1_2 1_555 1_555
O2_2 Zn1_3 1_555 1_555
C2_2 O2_2 1_555 1_555
O3_2 Zn1_3 1_555 1_555
C6_2 C2_2 1_555 1_555
O7_2 C6_2 1_555 1_555
Zn5_2 O7_2 1_555 1_555
C3_2 O13 1_555 1_555
O6_2 C5_2 1_555 1_555
O8_2 C7_2 1_555 1_555
O9_2 C8_2 1_555 1_555
O10_2 Zn1_4 1_555 1_555
O13_2 Zn1_4 1_555 1_555
O14_2 Zn1_4 1_555 1_555
Zn6 O6_2 1_555 1_555
Zn6_4 O8_2 1_555 1_555
Zn7_2 O9_2 1_555 1_555
C7_2 C8_2 1_555 1_555
O5_2 C4_2 1_555 1_555
Zn3_4 O5_2 1_555 1_555
O15 C1_3 1_555 1_555
C2_3 O16 1_555 1_555
C6_3 C2_3 1_555 1_555
O7_3 C6_3 1_555 1_555
Zn5_3 O7_3 1_555 1_555
O6_3 C5_3 1_555 1_555
O8_3 C7_3 1_555 1_555
O9_3 C8_3 1_555 1_555
Zn6_3 O6_3 1_555 1_555
Zn4_2 O8_3 1_555 1_555
Zn7_3 O9_3 1_555 1_555
C7_3 C8_3 1_555 1_555
C3_3 O13_2 1_555 1_555
O5_3 C4_3 1_555 1_555
Zn3_6 O5_3 1_555 1_555
O5_4 C4_4 1_555 1_555
Zn3_5 O5_4 1_555 1_555
O6_4 C5_4 1_555 1_555
O8_4 C7_4 1_555 1_555
O9_4 C8_4 1_555 1_555
O10_3 Zn1_5 1_555 1_555
O13_3 Zn1_5 1_555 1_555
O14_3 Zn1_5 1_555 1_555
Zn6_2 O6_4 1_555 1_555
Zn4 O8_4 1_555 1_555
Zn7 O9_4 1_555 1_555
C7_4 C8_4 1_555 1_555
C3_4 O4_2 1_555 1_555
O4_2 Zn2_3 1_555 1_555
Zn2_3 O11_2 1_555 1_555
O17_2 Zn2_3 1_555 1_555
Zn1_6 O1_3 1_555 1_555
O1_3 C1_4 1_555 1_555
O2_3 Zn1_6 1_555 1_555
C2_4 O2_3 1_555 1_555
O3_3 Zn1_6 1_555 1_555
C6_4 C2_4 1_555 1_555
O7_4 C6_4 1_555 1_555
O12_2 Zn2_4 1_555 1_555
Zn5_4 O7_4 1_555 1_555
O15_2 Zn2_4 1_555 1_555
O16_2 Zn2_4 1_555 1_555
O5_5 C4_5 1_555 1_555
Zn3 O5_5 1_555 1_555
C3_5 O4_3 1_555 1_555
O4_3 Zn2_5 1_555 1_555
Zn2_5 O11_3 1_555 1_555
O17_3 Zn2_5 1_555 1_555
O6_5 C5_5 1_555 1_555
O8_5 C7_5 1_555 1_555
O9_5 C8_5 1_555 1_555
Zn6_4 O6_5 1_555 1_555
Zn6 O8_5 1_555 1_555
Zn7_2 O9_5 1_555 1_555
C7_5 C8_5 1_555 1_555
O15_2 C1_5 1_555 1_555
C2_5 O16_2 1_555 1_555
C6_5 C2_5 1_555 1_555
O7_5 C6_5 1_555 1_555
O12_3 Zn2_6 1_555 1_555
Zn5_5 O7_5 1_555 1_555
O15_3 Zn2_6 1_555 1_555
O16_3 Zn2_6 1_555 1_555
O5_6 C4_6 1_555 1_555
Zn3_3 O5_6 1_555 1_555
O6_6 C5_6 1_555 1_555
O8_6 C7_6 1_555 1_555
O9_6 C8_6 1_555 1_555
Zn4_2 O6_6 1_555 1_555
Zn6_3 O8_6 1_555 1_555
Zn7_3 O9_6 1_555 1_555
C7_6 C8_6 1_555 1_555
C3_6 O13_3 1_555 1_555
O15_3 C1_6 1_555 1_555
C2_6 O16_3 1_555 1_555
C6_6 C2_6 1_555 1_555
O7_6 C6_6 1_555 1_555
Zn5_6 O7_6 1_555 1_555
Zn4 O11_4 1_555 1_555
O17_2 C7_7 1_555 1_555
O9_7 C8_7 1_555 1_555
O10_4 Zn3 1_555 1_555
O14_4 Zn3 1_555 1_555
Zn7_4 O9_7 1_555 1_555
C7_7 C8_7 1_555 1_555
O2_4 Zn3_2 1_555 1_555
C2_7 O2_4 1_555 1_555
O3_4 Zn3_2 1_555 1_555
C6_7 C2_7 1_555 1_555
O7_7 C6_7 1_555 1_555
O12_4 Zn4_2 1_555 1_555
Zn5_4 O7_7 1_555 1_555
C2_8 O17_3 1_555 1_555
C6_8 C2_8 1_555 1_555
O7_8 C6_8 1_555 1_555
Zn5_7 O7_8 1_555 1_555
O8_7 C7_8 1_555 1_555
O9_8 C8_8 1_555 1_555
Zn3_4 O8_7 1_555 1_555
Zn5_5 O9_8 1_555 1_555
C7_8 C8_8 1_555 1_555
O2_5 Zn3_5 1_555 1_555
C2_9 O2_5 1_555 1_555
O3_5 Zn3_5 1_555 1_555
C6_9 C2_9 1_555 1_555
O7_9 C6_9 1_555 1_555
O12_5 Zn6 1_555 1_555
Zn5 O7_9 1_555 1_555
Zn6_2 O11_5 1_555 1_555
O17 C7_9 1_555 1_555
O9_9 C8_9 1_555 1_555
O10_5 Zn3_6 1_555 1_555
O14_5 Zn3_6 1_555 1_555
Zn7_4 O9_9 1_555 1_555
C7_9 C8_9 1_555 1_555
O8_8 C7_10 1_555 1_555
O9_10 C8_10 1_555 1_555
Zn3_3 O8_8 1_555 1_555
Zn5_3 O9_10 1_555 1_555
C7_10 C8_10 1_555 1_555
C2_10 O14_2 1_555 1_555
C6_10 C2_10 1_555 1_555
O7_10 C6_10 1_555 1_555
Zn5_8 O7_10 1_555 1_555
O10_6 Zn3_3 1_555 1_555
O3_6 Zn3_4 1_555 1_555
C2_11 O14_3 1_555 1_555
C6_11 C2_11 1_555 1_555
O7_11 C6_11 1_555 1_555
Zn5_8 O7_11 1_555 1_555
O14_5 C7_11 1_555 1_555
O9_11 C8_11 1_555 1_555
Zn5_6 O9_11 1_555 1_555
C7_11 C8_11 1_555 1_555
C2_12 O14_4 1_555 1_555
C6_12 C2_12 1_555 1_555
O7_12 C6_12 1_555 1_555
O12_6 Zn6_3 1_555 1_555
Zn5_2 O7_12 1_555 1_555
O14 C7_12 1_555 1_555
O9_12 C8_12 1_555 1_555
Zn5_7 O9_12 1_555 1_555
C7_12 C8_12 1_555 1_555
Zn6_4 O11_6 1_555 1_555
Zn5_3 O1_4 1_555 1_555
O1_4 C1_7 1_555 1_555
C1_7 C3_7 1_555 1_555
O3_7 Zn5_3 1_555 1_555
C3_7 O4_4 1_555 1_555
O4_4 Zn5_2 1_555 1_555
C4_7 C3_7 1_555 1_555
O5_7 C4_7 1_555 1_555
C5_7 C1_7 1_555 1_555
O6_7 C5_7 1_555 1_555
O10_7 Zn5_3 1_555 1_555
Zn5_2 O11_7 1_555 1_555
O12_7 Zn5_2 1_555 1_555
O13_4 Zn5_3 1_555 1_555
Zn7_3 O5_7 1_555 1_555
Zn5_7 O6_7 1_555 1_555
O15_4 Zn5_2 1_555 1_555
C4_7 C5_7 1_555 1_555
Zn5 O1_5 1_555 1_555
O1_5 C1_8 1_555 1_555
C1_8 C3_8 1_555 1_555
O3_8 Zn5 1_555 1_555
C3_8 O13_4 1_555 1_555
C4_8 C3_8 1_555 1_555
O5_8 C4_8 1_555 1_555
C5_8 C1_8 1_555 1_555
O6_8 C5_8 1_555 1_555
O10_8 Zn5 1_555 1_555
O13_5 Zn5 1_555 1_555
Zn7 O5_8 1_555 1_555
Zn5_8 O6_8 1_555 1_555
C4_8 C5_8 1_555 1_555
O15_4 C1_9 1_555 1_555
C1_9 C3_9 1_555 1_555
C3_9 O13_5 1_555 1_555
C4_9 C3_9 1_555 1_555
O5_9 C4_9 1_555 1_555
C5_9 C1_9 1_555 1_555
O6_9 C5_9 1_555 1_555
Zn7_2 O5_9 1_555 1_555
Zn7_4 O6_9 1_555 1_555
C4_9 C5_9 1_555 1_555
O3_9 Zn7_3 1_555 1_555
O10_9 Zn7_3 1_555 1_555
Zn5_7 O11_8 1_555 1_555
O12_8 Zn5_7 1_555 1_555
O13_6 Zn7_3 1_555 1_555
O15_5 Zn5_7 1_555 1_555
Zn5_4 O1_6 1_555 1_555
O1_6 C1_10 1_555 1_555
C1_10 C3_10 1_555 1_555
O3_10 Zn5_4 1_555 1_555
C3_10 O13_6 1_555 1_555
C4_10 C3_10 1_555 1_555
O5_10 C4_10 1_555 1_555
C5_10 C1_10 1_555 1_555
O6_10 C5_10 1_555 1_555
O10_10 Zn5_4 1_555 1_555
O13_7 Zn5_4 1_555 1_555
Zn7_4 O5_10 1_555 1_555
Zn5_6 O6_10 1_555 1_555
C4_10 C5_10 1_555 1_555
O15_5 C1_11 1_555 1_555
C1_11 C3_11 1_555 1_555
C3_11 O13_7 1_555 1_555
C4_11 C3_11 1_555 1_555
O5_11 C4_11 1_555 1_555
C5_11 C1_11 1_555 1_555
O6_11 C5_11 1_555 1_555
Zn5_5 O5_11 1_555 1_555
Zn7 O6_11 1_555 1_555
C4_11 C5_11 1_555 1_555
Zn5_8 O1_7 1_555 1_555
O1_7 C1_12 1_555 1_555
C1_12 C3_12 1_555 1_555
O3_11 Zn5_8 1_555 1_555
C3_12 O4_5 1_555 1_555
O4_5 Zn5_5 1_555 1_555
C4_12 C3_12 1_555 1_555
O5_12 C4_12 1_555 1_555
C5_12 C1_12 1_555 1_555
O6_12 C5_12 1_555 1_555
O10_11 Zn5_8 1_555 1_555
Zn5_5 O11_9 1_555 1_555
O12_9 Zn5_5 1_555 1_555
Zn5_6 O5_12 1_555 1_555
Zn7_2 O6_12 1_555 1_555
C4_12 C5_12 1_555 1_555
O3_12 Zn7 1_555 1_555
O10_12 Zn7 1_555 1_555
O3_13 Zn5_6 1_555 1_555
O10_13 Zn5_6 1_555 1_555
Zn7_2 O11_10 1_555 1_555
O12_10 Zn7_2 1_555 1_555
O3_14 Zn7_4 1_555 1_555
O10_14 Zn7_4 1_555 1_555

#END
