
###############################################################################
#
# This file contains modified crystal structure data generated from the
# MOF subset of the Cambridge Structural Database (CSD) v543 
# hosted by the Cambridge Crystallographic Data Centre (CCDC).
#
# This work is licensed under the Creative Commons
# Attribution-NonCommercial-ShareAlike 4.0 International License.
# To view a copy of this license, visit
# http://creativecommons.org/licenses/by-nc-sa/4.0/
# or send a letter to
# Creative Commons, PO Box 1866, Mountain View, CA 94042, USA.
#
# CIF created using the CSD Python API on 29 September 2022
# The structure has been converted into the P1 space group
# The structure has a 3D framework
# The original CSD entry FAFMEE is in the cubic crystal system
# The framework has been calculated to contain at least 10.0% void space
# The void calculation uses a probe of radius 1.32A, grid spacing 0.4
# H atom positions have been added when not included in the experimental data
# Generated hydrogen atom positions removed from atoms on special positions
#
###############################################################################

data_FAFMEE
_chemical_formula_moiety         '(C96 H192 Ni36 O144)n'
_symmetry_cell_setting           triclinic
_symmetry_space_group_name_H-M   'P 1'
_symmetry_Int_Tables_number      1
_space_group_name_Hall           'P 1'
loop_
_symmetry_equiv_pos_site_id
_symmetry_equiv_pos_as_xyz
1 x,y,z
_cell_length_a                   16.317(4)
_cell_length_b                   16.317(4)
_cell_length_c                   16.317(4)
_cell_angle_alpha                90
_cell_angle_beta                 90
_cell_angle_gamma                90
_cell_volume                     4344.31
loop_
_atom_site_label
_atom_site_type_symbol
_atom_site_fract_x
_atom_site_fract_y
_atom_site_fract_z
Ni1 Ni 0.2487(1) 0.2487(1) 0.0000
O1 O 0.2394(6) 0.1303(5) 0.0521(5)
O2 O 0.3694(5) 0.2544(6) 0.0507(5)
C1 C 0.2345(8) 0.0588(8) 0.0220(7)
C2 C 0.4423(6) 0.2495(8) 0.0233(6)
O3 O 0.2084(6) 0.2878(5) 0.1137(5)
C6 C 0.5233(6) 0.2505(8) 0.0577(6)
O7 O 0.5507(5) 0.2456(6) 0.1306(5)
Ni2 Ni 0.2487(1) -0.0000 0.2487(1)
O12 O 0.2878(5) 0.1137(5) 0.2084(6)
Ni5 Ni 0.5000 0.2513(1) 0.2513(1)
Ni6 Ni 0.7513(1) 0.2487(1) 0.0000
O15 O 0.1303(5) 0.0521(5) 0.2394(6)
O16 O 0.2544(6) 0.0507(5) 0.3694(5)
Ni1_2 Ni 0.2487(1) 0.2487(1) 1.0000
C5 C 0.2345(8) 0.0220(7) 0.9412(8)
O6 O 0.2394(6) 0.0521(5) 0.8697(5)
C7 C 0.5577(6) 0.2495(8) 0.9767(6)
O8 O 0.6306(5) 0.2544(6) 0.9493(5)
C8 C 0.4767(6) 0.2505(8) 0.9423(6)
O9 O 0.4493(5) 0.2456(6) 0.8694(5)
O10 O 0.2878(5) 0.2084(6) 0.8863(5)
O13 O 0.1303(5) 0.2394(6) 0.9479(5)
O14 O 0.2544(6) 0.3694(5) 0.9493(5)
Ni4 Ni 0.2487(1) -0.0000 0.7513(1)
Ni6_2 Ni 0.7513(1) 0.2487(1) 1.0000
Ni7 Ni 0.5000 0.2513(1) 0.7487(1)
C3 C 0.2345(8) 0.9780(7) 0.0588(8)
O4 O 0.2394(6) 0.9479(5) 0.1303(5)
Ni2_2 Ni 0.2487(1) 1.0000 0.2487(1)
O11 O 0.2084(6) 0.8863(5) 0.2878(5)
Ni3 Ni 0.2487(1) 0.7513(1) 0.0000
O17 O 0.3694(5) 0.9493(5) 0.2544(6)
C4 C 0.2345(8) 0.9412(8) 0.9780(7)
O5 O 0.2394(6) 0.8697(5) 0.9479(5)
Ni3_2 Ni 0.2487(1) 0.7513(1) 1.0000
Ni4_2 Ni 0.2487(1) 1.0000 0.7513(1)
Ni1_3 Ni 0.0000 0.2487(1) 0.2487(1)
O1_2 O 0.0521(5) 0.2394(6) 0.1303(5)
O2_2 O 0.0507(5) 0.3694(5) 0.2544(6)
C1_2 C 0.0220(7) 0.2345(8) 0.0588(8)
C2_2 C 0.0233(6) 0.4423(6) 0.2495(8)
O3_2 O 0.1137(5) 0.2084(6) 0.2878(5)
C6_2 C 0.0577(6) 0.5233(6) 0.2505(8)
O7_2 O 0.1306(5) 0.5507(5) 0.2456(6)
Ni5_2 Ni 0.2513(1) 0.5000 0.2513(1)
Ni6_3 Ni -0.0000 0.7513(1) 0.2487(1)
C3_2 C 0.0588(8) 0.2345(8) 0.9780(7)
Ni3_3 Ni -0.0000 0.2487(1) 0.7513(1)
Ni1_4 Ni 1.0000 0.2487(1) 0.2487(1)
C5_2 C 0.9412(8) 0.2345(8) 0.0220(7)
O6_2 O 0.8697(5) 0.2394(6) 0.0521(5)
C7_2 C 0.9767(6) 0.5577(6) 0.2495(8)
O8_2 O 0.9493(5) 0.6306(5) 0.2544(6)
C8_2 C 0.9423(6) 0.4767(6) 0.2505(8)
O9_2 O 0.8694(5) 0.4493(5) 0.2456(6)
O10_2 O 0.8863(5) 0.2878(5) 0.2084(6)
O13_2 O 0.9479(5) 0.1303(5) 0.2394(6)
O14_2 O 0.9493(5) 0.2544(6) 0.3694(5)
Ni6_4 Ni 1.0000 0.7513(1) 0.2487(1)
Ni7_2 Ni 0.7487(1) 0.5000 0.2513(1)
C4_2 C 0.9780(7) 0.2345(8) 0.9412(8)
O5_2 O 0.9479(5) 0.2394(6) 0.8697(5)
Ni3_4 Ni 1.0000 0.2487(1) 0.7513(1)
C1_3 C 0.0588(8) 0.0220(7) 0.2345(8)
C2_3 C 0.2495(8) 0.0233(6) 0.4423(6)
C6_3 C 0.2505(8) 0.0577(6) 0.5233(6)
O7_3 O 0.2456(6) 0.1306(5) 0.5507(5)
Ni5_3 Ni 0.2513(1) 0.2513(1) 0.5000
C5_3 C 0.0220(7) 0.9412(8) 0.2345(8)
O6_3 O 0.0521(5) 0.8697(5) 0.2394(6)
C7_3 C 0.2495(8) 0.9767(6) 0.5577(6)
O8_3 O 0.2544(6) 0.9493(5) 0.6306(5)
C8_3 C 0.2505(8) 0.9423(6) 0.4767(6)
O9_3 O 0.2456(6) 0.8694(5) 0.4493(5)
Ni7_3 Ni 0.2513(1) 0.7487(1) 0.5000
C3_3 C 0.9780(7) 0.0588(8) 0.2345(8)
Ni3_5 Ni 0.7513(1) -0.0000 0.2487(1)
C4_3 C 0.9412(8) 0.9780(7) 0.2345(8)
O5_3 O 0.8697(5) 0.9479(5) 0.2394(6)
Ni3_6 Ni 0.7513(1) 1.0000 0.2487(1)
C4_4 C 0.7655(8) 0.0220(7) 0.0588(8)
O5_4 O 0.7606(6) 0.0521(5) 0.1303(5)
Ni1_5 Ni 0.7513(1) -0.0000 0.7513(1)
C5_4 C 0.7655(8) 0.0588(8) 0.9780(7)
O6_4 O 0.7606(6) 0.1303(5) 0.9479(5)
C7_4 C 0.4423(6) 0.0233(6) 0.7505(8)
O8_4 O 0.3694(5) 0.0507(5) 0.7456(6)
C8_4 C 0.5233(6) 0.0577(6) 0.7495(8)
O9_4 O 0.5507(5) 0.1306(5) 0.7544(6)
O10_3 O 0.7122(5) 0.1137(5) 0.7916(6)
O13_3 O 0.8697(5) 0.0521(5) 0.7606(6)
O14_3 O 0.7456(6) 0.0507(5) 0.6306(5)
C3_4 C 0.7655(8) 0.9412(8) 0.0220(7)
O4_2 O 0.7606(6) 0.8697(5) 0.0521(5)
Ni2_3 Ni 0.7513(1) 0.7513(1) 0.0000
O11_2 O 0.7916(6) 0.7122(5) 0.1137(5)
O17_2 O 0.6306(5) 0.7456(6) 0.0507(5)
Ni1_6 Ni 0.7513(1) 1.0000 0.7513(1)
O1_3 O 0.7606(6) 0.9479(5) 0.8697(5)
O2_3 O 0.6306(5) 0.9493(5) 0.7456(6)
C1_4 C 0.7655(8) 0.9780(7) 0.9412(8)
C2_4 C 0.5577(6) 0.9767(6) 0.7505(8)
O3_3 O 0.7916(6) 0.8863(5) 0.7122(5)
C6_4 C 0.4767(6) 0.9423(6) 0.7495(8)
O7_4 O 0.4493(5) 0.8694(5) 0.7544(6)
Ni2_4 Ni 0.7513(1) 0.7513(1) 1.0000
O12_2 O 0.7122(5) 0.7916(6) 0.8863(5)
Ni5_4 Ni 0.5000 0.7487(1) 0.7487(1)
O15_2 O 0.8697(5) 0.7606(6) 0.9479(5)
O16_2 O 0.7456(6) 0.6306(5) 0.9493(5)
C4_5 C 0.0588(8) 0.7655(8) 0.0220(7)
O5_5 O 0.1303(5) 0.7606(6) 0.0521(5)
C3_5 C 0.0220(7) 0.7655(8) 0.9412(8)
O4_3 O 0.0521(5) 0.7606(6) 0.8697(5)
Ni2_5 Ni -0.0000 0.7513(1) 0.7513(1)
O11_3 O 0.1137(5) 0.7916(6) 0.7122(5)
O17_3 O 0.0507(5) 0.6306(5) 0.7456(6)
C5_5 C 0.9780(7) 0.7655(8) 0.0588(8)
O6_5 O 0.9479(5) 0.7606(6) 0.1303(5)
C7_5 C 0.7505(8) 0.4423(6) 0.0233(6)
O8_5 O 0.7456(6) 0.3694(5) 0.0507(5)
C8_5 C 0.7495(8) 0.5233(6) 0.0577(6)
O9_5 O 0.7544(6) 0.5507(5) 0.1306(5)
C1_5 C 0.9412(8) 0.7655(8) 0.9780(7)
C2_5 C 0.7505(8) 0.5577(6) 0.9767(6)
C6_5 C 0.7495(8) 0.4767(6) 0.9423(6)
O7_5 O 0.7544(6) 0.4493(5) 0.8694(5)
Ni2_6 Ni 1.0000 0.7513(1) 0.7513(1)
O12_3 O 0.8863(5) 0.7122(5) 0.7916(6)
Ni5_5 Ni 0.7487(1) 0.5000 0.7487(1)
O15_3 O 0.9479(5) 0.8697(5) 0.7606(6)
O16_3 O 0.9493(5) 0.7456(6) 0.6306(5)
C4_6 C 0.0220(7) 0.0588(8) 0.7655(8)
O5_6 O 0.0521(5) 0.1303(5) 0.7606(6)
C5_6 C 0.0588(8) 0.9780(7) 0.7655(8)
O6_6 O 0.1303(5) 0.9479(5) 0.7606(6)
C7_6 C 0.0233(6) 0.7505(8) 0.4423(6)
O8_6 O 0.0507(5) 0.7456(6) 0.3694(5)
C8_6 C 0.0577(6) 0.7495(8) 0.5233(6)
O9_6 O 0.1306(5) 0.7544(6) 0.5507(5)
C3_6 C 0.9412(8) 0.0220(7) 0.7655(8)
C1_6 C 0.9780(7) 0.9412(8) 0.7655(8)
C2_6 C 0.9767(6) 0.7505(8) 0.5577(6)
C6_6 C 0.9423(6) 0.7495(8) 0.4767(6)
O7_6 O 0.8694(5) 0.7544(6) 0.4493(5)
Ni5_6 Ni 0.7487(1) 0.7487(1) 0.5000
O11_4 O 0.2084(6) 0.1137(5) 0.7122(5)
C7_7 C 0.5577(6) 0.7505(8) 0.0233(6)
C8_7 C 0.4767(6) 0.7495(8) 0.0577(6)
O9_7 O 0.4493(5) 0.7544(6) 0.1306(5)
O10_4 O 0.2878(5) 0.7916(6) 0.1137(5)
O14_4 O 0.2544(6) 0.6306(5) 0.0507(5)
Ni7_4 Ni 0.5000 0.7487(1) 0.2513(1)
O2_4 O 0.3694(5) 0.7456(6) 0.9493(5)
C2_7 C 0.4423(6) 0.7505(8) 0.9767(6)
O3_4 O 0.2084(6) 0.7122(5) 0.8863(5)
C6_7 C 0.5233(6) 0.7495(8) 0.9423(6)
O7_7 O 0.5507(5) 0.7544(6) 0.8694(5)
O12_4 O 0.2878(5) 0.8863(5) 0.7916(6)
C2_8 C 0.0233(6) 0.5577(6) 0.7505(8)
C6_8 C 0.0577(6) 0.4767(6) 0.7495(8)
O7_8 O 0.1306(5) 0.4493(5) 0.7544(6)
Ni5_7 Ni 0.2513(1) 0.5000 0.7487(1)
C7_8 C 0.9767(6) 0.4423(6) 0.7505(8)
O8_7 O 0.9493(5) 0.3694(5) 0.7456(6)
C8_8 C 0.9423(6) 0.5233(6) 0.7495(8)
O9_8 O 0.8694(5) 0.5507(5) 0.7544(6)
O2_5 O 0.6306(5) 0.0507(5) 0.2544(6)
C2_9 C 0.5577(6) 0.0233(6) 0.2495(8)
O3_5 O 0.7916(6) 0.1137(5) 0.2878(5)
C6_9 C 0.4767(6) 0.0577(6) 0.2505(8)
O7_9 O 0.4493(5) 0.1306(5) 0.2456(6)
O12_5 O 0.7122(5) 0.2084(6) 0.1137(5)
O11_5 O 0.7916(6) 0.2878(5) 0.8863(5)
C7_9 C 0.4423(6) 0.9767(6) 0.2495(8)
C8_9 C 0.5233(6) 0.9423(6) 0.2505(8)
O9_9 O 0.5507(5) 0.8694(5) 0.2456(6)
O10_5 O 0.7122(5) 0.8863(5) 0.2084(6)
O14_5 O 0.7456(6) 0.9493(5) 0.3694(5)
C7_10 C 0.0233(6) 0.2495(8) 0.5577(6)
O8_8 O 0.0507(5) 0.2544(6) 0.6306(5)
C8_10 C 0.0577(6) 0.2505(8) 0.4767(6)
O9_10 O 0.1306(5) 0.2456(6) 0.4493(5)
C2_10 C 0.9767(6) 0.2495(8) 0.4423(6)
C6_10 C 0.9423(6) 0.2505(8) 0.5233(6)
O7_10 O 0.8694(5) 0.2456(6) 0.5507(5)
Ni5_8 Ni 0.7487(1) 0.2513(1) 0.5000
O10_6 O 0.1137(5) 0.2878(5) 0.7916(6)
O3_6 O 0.8863(5) 0.2084(6) 0.7122(5)
C2_11 C 0.7505(8) 0.0233(6) 0.5577(6)
C6_11 C 0.7495(8) 0.0577(6) 0.4767(6)
O7_11 O 0.7544(6) 0.1306(5) 0.4493(5)
C7_11 C 0.7505(8) 0.9767(6) 0.4423(6)
C8_11 C 0.7495(8) 0.9423(6) 0.5233(6)
O9_11 O 0.7544(6) 0.8694(5) 0.5507(5)
C2_12 C 0.2495(8) 0.5577(6) 0.0233(6)
C6_12 C 0.2505(8) 0.4767(6) 0.0577(6)
O7_12 O 0.2456(6) 0.4493(5) 0.1306(5)
O12_6 O 0.1137(5) 0.7122(5) 0.2084(6)
C7_12 C 0.2495(8) 0.4423(6) 0.9767(6)
C8_12 C 0.2505(8) 0.5233(6) 0.9423(6)
O9_12 O 0.2456(6) 0.5507(5) 0.8694(5)
O11_6 O 0.8863(5) 0.7916(6) 0.2878(5)
O1_4 O 0.2606(6) 0.3697(5) 0.4479(5)
C1_7 C 0.2655(8) 0.4412(8) 0.4780(7)
O3_7 O 0.2916(6) 0.2122(5) 0.3863(5)
C3_7 C 0.2655(8) 0.5220(7) 0.4412(8)
O4_4 O 0.2606(6) 0.5521(5) 0.3697(5)
C4_7 C 0.2655(8) 0.5588(8) 0.5220(7)
O5_7 O 0.2606(6) 0.6303(5) 0.5521(5)
C5_7 C 0.2655(8) 0.4780(7) 0.5588(8)
O6_7 O 0.2606(6) 0.4479(5) 0.6303(5)
O10_7 O 0.2122(5) 0.2916(6) 0.6137(5)
O11_7 O 0.2916(6) 0.6137(5) 0.2122(5)
O12_7 O 0.2122(5) 0.3863(5) 0.2916(6)
O13_4 O 0.3697(5) 0.2606(6) 0.5521(5)
O15_4 O 0.3697(5) 0.4479(5) 0.2606(6)
O1_5 O 0.4479(5) 0.2606(6) 0.3697(5)
C1_8 C 0.4780(7) 0.2655(8) 0.4412(8)
O3_8 O 0.3863(5) 0.2916(6) 0.2122(5)
C3_8 C 0.4412(8) 0.2655(8) 0.5220(7)
C4_8 C 0.5220(7) 0.2655(8) 0.5588(8)
O5_8 O 0.5521(5) 0.2606(6) 0.6303(5)
C5_8 C 0.5588(8) 0.2655(8) 0.4780(7)
O6_8 O 0.6303(5) 0.2606(6) 0.4479(5)
O10_8 O 0.6137(5) 0.2122(5) 0.2916(6)
O13_5 O 0.5521(5) 0.3697(5) 0.2606(6)
C1_9 C 0.4412(8) 0.4780(7) 0.2655(8)
C3_9 C 0.5220(7) 0.4412(8) 0.2655(8)
C4_9 C 0.5588(8) 0.5220(7) 0.2655(8)
O5_9 O 0.6303(5) 0.5521(5) 0.2606(6)
C5_9 C 0.4780(7) 0.5588(8) 0.2655(8)
O6_9 O 0.4479(5) 0.6303(5) 0.2606(6)
O3_9 O 0.2916(6) 0.7878(5) 0.6137(5)
O10_9 O 0.2122(5) 0.7084(6) 0.3863(5)
O11_8 O 0.2916(6) 0.3863(5) 0.7878(5)
O12_8 O 0.2122(5) 0.6137(5) 0.7084(6)
O13_6 O 0.3697(5) 0.7394(6) 0.4479(5)
O15_5 O 0.3697(5) 0.5521(5) 0.7394(6)
O1_6 O 0.4479(5) 0.7394(6) 0.6303(5)
C1_10 C 0.4780(7) 0.7345(8) 0.5588(8)
O3_10 O 0.3863(5) 0.7084(6) 0.7878(5)
C3_10 C 0.4412(8) 0.7345(8) 0.4780(7)
C4_10 C 0.5220(7) 0.7345(8) 0.4412(8)
O5_10 O 0.5521(5) 0.7394(6) 0.3697(5)
C5_10 C 0.5588(8) 0.7345(8) 0.5220(7)
O6_10 O 0.6303(5) 0.7394(6) 0.5521(5)
O10_10 O 0.6137(5) 0.7878(5) 0.7084(6)
O13_7 O 0.5521(5) 0.6303(5) 0.7394(6)
C1_11 C 0.4412(8) 0.5220(7) 0.7345(8)
C3_11 C 0.5220(7) 0.5588(8) 0.7345(8)
C4_11 C 0.5588(8) 0.4780(7) 0.7345(8)
O5_11 O 0.6303(5) 0.4479(5) 0.7394(6)
C5_11 C 0.4780(7) 0.4412(8) 0.7345(8)
O6_11 O 0.4479(5) 0.3697(5) 0.7394(6)
O1_7 O 0.7394(6) 0.3697(5) 0.5521(5)
C1_12 C 0.7345(8) 0.4412(8) 0.5220(7)
O3_11 O 0.7084(6) 0.2122(5) 0.6137(5)
C3_12 C 0.7345(8) 0.5220(7) 0.5588(8)
O4_5 O 0.7394(6) 0.5521(5) 0.6303(5)
C4_12 C 0.7345(8) 0.5588(8) 0.4780(7)
O5_12 O 0.7394(6) 0.6303(5) 0.4479(5)
C5_12 C 0.7345(8) 0.4780(7) 0.4412(8)
O6_12 O 0.7394(6) 0.4479(5) 0.3697(5)
O10_11 O 0.7878(5) 0.2916(6) 0.3863(5)
O11_9 O 0.7084(6) 0.6137(5) 0.7878(5)
O12_9 O 0.7878(5) 0.3863(5) 0.7084(6)
O3_12 O 0.6137(5) 0.2916(6) 0.7878(5)
O10_12 O 0.3863(5) 0.2122(5) 0.7084(6)
O3_13 O 0.7084(6) 0.7878(5) 0.3863(5)
O10_13 O 0.7878(5) 0.7084(6) 0.6137(5)
O11_10 O 0.7084(6) 0.3863(5) 0.2122(5)
O12_10 O 0.7878(5) 0.6137(5) 0.2916(6)
O3_14 O 0.6137(5) 0.7084(6) 0.2122(5)
O10_14 O 0.3863(5) 0.7878(5) 0.2916(6)
loop_
_geom_bond_atom_site_label_1
_geom_bond_atom_site_label_2
_geom_bond_site_symmetry_1
_geom_bond_site_symmetry_2
Ni1 O1 1_555 1_555
O1 C1 1_555 1_555
O2 Ni1 1_555 1_555
C2 O2 1_555 1_555
O3 Ni1 1_555 1_555
C6 C2 1_555 1_555
O7 C6 1_555 1_555
O12 Ni2 1_555 1_555
Ni5 O7 1_555 1_555
O15 Ni2 1_555 1_555
O16 Ni2 1_555 1_555
O6 C5 1_555 1_555
O8 C7 1_555 1_555
O9 C8 1_555 1_555
O10 Ni1_2 1_555 1_555
O13 Ni1_2 1_555 1_555
O14 Ni1_2 1_555 1_555
Ni4 O6 1_555 1_555
Ni6_2 O8 1_555 1_555
Ni7 O9 1_555 1_555
C7 C8 1_555 1_555
C3 O4 1_555 1_555
O4 Ni2_2 1_555 1_555
Ni2_2 O11 1_555 1_555
O17 Ni2_2 1_555 1_555
O5 C4 1_555 1_555
Ni3_2 O5 1_555 1_555
Ni1_3 O1_2 1_555 1_555
O1_2 C1_2 1_555 1_555
O2_2 Ni1_3 1_555 1_555
C2_2 O2_2 1_555 1_555
O3_2 Ni1_3 1_555 1_555
C6_2 C2_2 1_555 1_555
O7_2 C6_2 1_555 1_555
Ni5_2 O7_2 1_555 1_555
C3_2 O13 1_555 1_555
O6_2 C5_2 1_555 1_555
O8_2 C7_2 1_555 1_555
O9_2 C8_2 1_555 1_555
O10_2 Ni1_4 1_555 1_555
O13_2 Ni1_4 1_555 1_555
O14_2 Ni1_4 1_555 1_555
Ni6 O6_2 1_555 1_555
Ni6_4 O8_2 1_555 1_555
Ni7_2 O9_2 1_555 1_555
C7_2 C8_2 1_555 1_555
O5_2 C4_2 1_555 1_555
Ni3_4 O5_2 1_555 1_555
O15 C1_3 1_555 1_555
C2_3 O16 1_555 1_555
C6_3 C2_3 1_555 1_555
O7_3 C6_3 1_555 1_555
Ni5_3 O7_3 1_555 1_555
O6_3 C5_3 1_555 1_555
O8_3 C7_3 1_555 1_555
O9_3 C8_3 1_555 1_555
Ni6_3 O6_3 1_555 1_555
Ni4_2 O8_3 1_555 1_555
Ni7_3 O9_3 1_555 1_555
C7_3 C8_3 1_555 1_555
C3_3 O13_2 1_555 1_555
O5_3 C4_3 1_555 1_555
Ni3_6 O5_3 1_555 1_555
O5_4 C4_4 1_555 1_555
Ni3_5 O5_4 1_555 1_555
O6_4 C5_4 1_555 1_555
O8_4 C7_4 1_555 1_555
O9_4 C8_4 1_555 1_555
O10_3 Ni1_5 1_555 1_555
O13_3 Ni1_5 1_555 1_555
O14_3 Ni1_5 1_555 1_555
Ni6_2 O6_4 1_555 1_555
Ni4 O8_4 1_555 1_555
Ni7 O9_4 1_555 1_555
C7_4 C8_4 1_555 1_555
C3_4 O4_2 1_555 1_555
O4_2 Ni2_3 1_555 1_555
Ni2_3 O11_2 1_555 1_555
O17_2 Ni2_3 1_555 1_555
Ni1_6 O1_3 1_555 1_555
O1_3 C1_4 1_555 1_555
O2_3 Ni1_6 1_555 1_555
C2_4 O2_3 1_555 1_555
O3_3 Ni1_6 1_555 1_555
C6_4 C2_4 1_555 1_555
O7_4 C6_4 1_555 1_555
O12_2 Ni2_4 1_555 1_555
Ni5_4 O7_4 1_555 1_555
O15_2 Ni2_4 1_555 1_555
O16_2 Ni2_4 1_555 1_555
O5_5 C4_5 1_555 1_555
Ni3 O5_5 1_555 1_555
C3_5 O4_3 1_555 1_555
O4_3 Ni2_5 1_555 1_555
Ni2_5 O11_3 1_555 1_555
O17_3 Ni2_5 1_555 1_555
O6_5 C5_5 1_555 1_555
O8_5 C7_5 1_555 1_555
O9_5 C8_5 1_555 1_555
Ni6_4 O6_5 1_555 1_555
Ni6 O8_5 1_555 1_555
Ni7_2 O9_5 1_555 1_555
C7_5 C8_5 1_555 1_555
O15_2 C1_5 1_555 1_555
C2_5 O16_2 1_555 1_555
C6_5 C2_5 1_555 1_555
O7_5 C6_5 1_555 1_555
O12_3 Ni2_6 1_555 1_555
Ni5_5 O7_5 1_555 1_555
O15_3 Ni2_6 1_555 1_555
O16_3 Ni2_6 1_555 1_555
O5_6 C4_6 1_555 1_555
Ni3_3 O5_6 1_555 1_555
O6_6 C5_6 1_555 1_555
O8_6 C7_6 1_555 1_555
O9_6 C8_6 1_555 1_555
Ni4_2 O6_6 1_555 1_555
Ni6_3 O8_6 1_555 1_555
Ni7_3 O9_6 1_555 1_555
C7_6 C8_6 1_555 1_555
C3_6 O13_3 1_555 1_555
O15_3 C1_6 1_555 1_555
C2_6 O16_3 1_555 1_555
C6_6 C2_6 1_555 1_555
O7_6 C6_6 1_555 1_555
Ni5_6 O7_6 1_555 1_555
Ni4 O11_4 1_555 1_555
O17_2 C7_7 1_555 1_555
O9_7 C8_7 1_555 1_555
O10_4 Ni3 1_555 1_555
O14_4 Ni3 1_555 1_555
Ni7_4 O9_7 1_555 1_555
C7_7 C8_7 1_555 1_555
O2_4 Ni3_2 1_555 1_555
C2_7 O2_4 1_555 1_555
O3_4 Ni3_2 1_555 1_555
C6_7 C2_7 1_555 1_555
O7_7 C6_7 1_555 1_555
O12_4 Ni4_2 1_555 1_555
Ni5_4 O7_7 1_555 1_555
C2_8 O17_3 1_555 1_555
C6_8 C2_8 1_555 1_555
O7_8 C6_8 1_555 1_555
Ni5_7 O7_8 1_555 1_555
O8_7 C7_8 1_555 1_555
O9_8 C8_8 1_555 1_555
Ni3_4 O8_7 1_555 1_555
Ni5_5 O9_8 1_555 1_555
C7_8 C8_8 1_555 1_555
O2_5 Ni3_5 1_555 1_555
C2_9 O2_5 1_555 1_555
O3_5 Ni3_5 1_555 1_555
C6_9 C2_9 1_555 1_555
O7_9 C6_9 1_555 1_555
O12_5 Ni6 1_555 1_555
Ni5 O7_9 1_555 1_555
Ni6_2 O11_5 1_555 1_555
O17 C7_9 1_555 1_555
O9_9 C8_9 1_555 1_555
O10_5 Ni3_6 1_555 1_555
O14_5 Ni3_6 1_555 1_555
Ni7_4 O9_9 1_555 1_555
C7_9 C8_9 1_555 1_555
O8_8 C7_10 1_555 1_555
O9_10 C8_10 1_555 1_555
Ni3_3 O8_8 1_555 1_555
Ni5_3 O9_10 1_555 1_555
C7_10 C8_10 1_555 1_555
C2_10 O14_2 1_555 1_555
C6_10 C2_10 1_555 1_555
O7_10 C6_10 1_555 1_555
Ni5_8 O7_10 1_555 1_555
O10_6 Ni3_3 1_555 1_555
O3_6 Ni3_4 1_555 1_555
C2_11 O14_3 1_555 1_555
C6_11 C2_11 1_555 1_555
O7_11 C6_11 1_555 1_555
Ni5_8 O7_11 1_555 1_555
O14_5 C7_11 1_555 1_555
O9_11 C8_11 1_555 1_555
Ni5_6 O9_11 1_555 1_555
C7_11 C8_11 1_555 1_555
C2_12 O14_4 1_555 1_555
C6_12 C2_12 1_555 1_555
O7_12 C6_12 1_555 1_555
O12_6 Ni6_3 1_555 1_555
Ni5_2 O7_12 1_555 1_555
O14 C7_12 1_555 1_555
O9_12 C8_12 1_555 1_555
Ni5_7 O9_12 1_555 1_555
C7_12 C8_12 1_555 1_555
Ni6_4 O11_6 1_555 1_555
Ni5_3 O1_4 1_555 1_555
O1_4 C1_7 1_555 1_555
C1_7 C3_7 1_555 1_555
O3_7 Ni5_3 1_555 1_555
C3_7 O4_4 1_555 1_555
O4_4 Ni5_2 1_555 1_555
C4_7 C3_7 1_555 1_555
O5_7 C4_7 1_555 1_555
C5_7 C1_7 1_555 1_555
O6_7 C5_7 1_555 1_555
O10_7 Ni5_3 1_555 1_555
Ni5_2 O11_7 1_555 1_555
O12_7 Ni5_2 1_555 1_555
O13_4 Ni5_3 1_555 1_555
Ni7_3 O5_7 1_555 1_555
Ni5_7 O6_7 1_555 1_555
O15_4 Ni5_2 1_555 1_555
C4_7 C5_7 1_555 1_555
Ni5 O1_5 1_555 1_555
O1_5 C1_8 1_555 1_555
C1_8 C3_8 1_555 1_555
O3_8 Ni5 1_555 1_555
C3_8 O13_4 1_555 1_555
C4_8 C3_8 1_555 1_555
O5_8 C4_8 1_555 1_555
C5_8 C1_8 1_555 1_555
O6_8 C5_8 1_555 1_555
O10_8 Ni5 1_555 1_555
O13_5 Ni5 1_555 1_555
Ni7 O5_8 1_555 1_555
Ni5_8 O6_8 1_555 1_555
C4_8 C5_8 1_555 1_555
O15_4 C1_9 1_555 1_555
C1_9 C3_9 1_555 1_555
C3_9 O13_5 1_555 1_555
C4_9 C3_9 1_555 1_555
O5_9 C4_9 1_555 1_555
C5_9 C1_9 1_555 1_555
O6_9 C5_9 1_555 1_555
Ni7_2 O5_9 1_555 1_555
Ni7_4 O6_9 1_555 1_555
C4_9 C5_9 1_555 1_555
O3_9 Ni7_3 1_555 1_555
O10_9 Ni7_3 1_555 1_555
Ni5_7 O11_8 1_555 1_555
O12_8 Ni5_7 1_555 1_555
O13_6 Ni7_3 1_555 1_555
O15_5 Ni5_7 1_555 1_555
Ni5_4 O1_6 1_555 1_555
O1_6 C1_10 1_555 1_555
C1_10 C3_10 1_555 1_555
O3_10 Ni5_4 1_555 1_555
C3_10 O13_6 1_555 1_555
C4_10 C3_10 1_555 1_555
O5_10 C4_10 1_555 1_555
C5_10 C1_10 1_555 1_555
O6_10 C5_10 1_555 1_555
O10_10 Ni5_4 1_555 1_555
O13_7 Ni5_4 1_555 1_555
Ni7_4 O5_10 1_555 1_555
Ni5_6 O6_10 1_555 1_555
C4_10 C5_10 1_555 1_555
O15_5 C1_11 1_555 1_555
C1_11 C3_11 1_555 1_555
C3_11 O13_7 1_555 1_555
C4_11 C3_11 1_555 1_555
O5_11 C4_11 1_555 1_555
C5_11 C1_11 1_555 1_555
O6_11 C5_11 1_555 1_555
Ni5_5 O5_11 1_555 1_555
Ni7 O6_11 1_555 1_555
C4_11 C5_11 1_555 1_555
Ni5_8 O1_7 1_555 1_555
O1_7 C1_12 1_555 1_555
C1_12 C3_12 1_555 1_555
O3_11 Ni5_8 1_555 1_555
C3_12 O4_5 1_555 1_555
O4_5 Ni5_5 1_555 1_555
C4_12 C3_12 1_555 1_555
O5_12 C4_12 1_555 1_555
C5_12 C1_12 1_555 1_555
O6_12 C5_12 1_555 1_555
O10_11 Ni5_8 1_555 1_555
Ni5_5 O11_9 1_555 1_555
O12_9 Ni5_5 1_555 1_555
Ni5_6 O5_12 1_555 1_555
Ni7_2 O6_12 1_555 1_555
C4_12 C5_12 1_555 1_555
O3_12 Ni7 1_555 1_555
O10_12 Ni7 1_555 1_555
O3_13 Ni5_6 1_555 1_555
O10_13 Ni5_6 1_555 1_555
Ni7_2 O11_10 1_555 1_555
O12_10 Ni7_2 1_555 1_555
O3_14 Ni7_4 1_555 1_555
O10_14 Ni7_4 1_555 1_555

#END
