
###############################################################################
#
# This file contains modified crystal structure data generated from the
# MOF subset of the Cambridge Structural Database (CSD) v543 
# hosted by the Cambridge Crystallographic Data Centre (CCDC).
#
# This work is licensed under the Creative Commons
# Attribution-NonCommercial-ShareAlike 4.0 International License.
# To view a copy of this license, visit
# http://creativecommons.org/licenses/by-nc-sa/4.0/
# or send a letter to
# Creative Commons, PO Box 1866, Mountain View, CA 94042, USA.
#
# CIF created using the CSD Python API on 29 September 2022
# The structure has been converted into the P1 space group
# The structure has a 3D framework
# The original CSD entry FAFMAC is in the monoclinic crystal system
# The framework has been calculated to contain at least 10.0% void space
# The void calculation uses a probe of radius 1.32A, grid spacing 0.4
#
###############################################################################

data_FAFMAC
_chemical_formula_moiety         '(C40 H88 Ag4 N20 O16 S4)n'
_symmetry_cell_setting           triclinic
_symmetry_space_group_name_H-M   'P 1'
_symmetry_Int_Tables_number      1
_space_group_name_Hall           'P 1'
loop_
_symmetry_equiv_pos_site_id
_symmetry_equiv_pos_as_xyz
1 x,y,z
_cell_length_a                   6.3902(3)
_cell_length_b                   31.1619(14)
_cell_length_c                   10.5428(5)
_cell_angle_alpha                90
_cell_angle_beta                 93.7700(10)
_cell_angle_gamma                90
_cell_volume                     2094.85
loop_
_atom_site_label
_atom_site_type_symbol
_atom_site_fract_x
_atom_site_fract_y
_atom_site_fract_z
Ag3 Ag 0.13588(3) 0.248329(7) 0.41464(2)
N12 N 0.1552(4) 0.77625(8) 0.4837(2)
O7 O 0.1264(3) 0.65814(8) 0.4323(2)
H43 H 0.0086 0.8394 0.7611
S1 S 0.10125(12) 0.34865(2) 0.58448(7)
N1 N 0.4592(4) 0.22064(8) 0.5056(2)
N2 N 0.6664(4) 0.15842(8) 0.5784(2)
N3 N 0.6578(4) 0.22205(8) 0.7126(2)
N4 N 0.8448(4) 0.22375(8) 0.5163(2)
N5 N 0.4014(4) 0.45794(8) 0.4905(3)
O1 O 0.2183(4) 0.32226(7) 0.4994(2)
O2 O 0.1796(3) 0.34385(8) 0.7168(2)
C1 C 0.6677(5) 0.17417(10) 0.7101(3)
H1 H 0.7970 0.1644 0.7583
H2 H 0.5459 0.1622 0.7515
C2 C 0.8479(4) 0.17603(10) 0.5185(3)
H3 H 0.8489 0.1651 0.4304
H4 H 0.9781 0.1661 0.5657
C3 C 0.4737(4) 0.17325(10) 0.5065(3)
H5 H 0.3497 0.1612 0.5454
H6 H 0.4730 0.1626 0.4180
C4 C 0.8426(5) 0.23877(10) 0.6501(3)
H7 H 0.9724 0.2291 0.6982
H8 H 0.8402 0.2705 0.6516
C5 C 0.6465(5) 0.23781(11) 0.4468(3)
H9 H 0.6403 0.2696 0.4463
H10 H 0.6454 0.2279 0.3575
C6 C 0.4646(5) 0.23582(10) 0.6391(3)
H11 H 0.4560 0.2675 0.6400
H12 H 0.3411 0.2244 0.6800
C7 C 0.1393(5) 0.40274(10) 0.5410(3)
H13 H 0.0714 0.4077 0.4551
H14 H 0.0703 0.4216 0.6011
C8 C 0.3716(5) 0.41479(10) 0.5409(3)
H15 H 0.4358 0.4132 0.6288
H16 H 0.4443 0.3938 0.4887
C9 C 0.6255(5) 0.46459(11) 0.4722(4)
H17 H 0.6734 0.4428 0.4121
H18 H 0.7076 0.4608 0.5544
C10 C 0.3351(5) 0.49094(11) 0.5792(3)
H19 H 0.4138 0.4873 0.6626
H20 H 0.1839 0.4875 0.5919
O4 O 0.1161(3) 0.16216(8) 0.2719(2)
H22 H 0.1941 0.1574 0.2112
Ag2 Ag 0.63588(3) 0.251671(7) 0.91464(2)
Ag4 Ag 0.86412(3) 0.751671(7) 0.58536(2)
Ag6 Ag 0.36412(3) 0.748329(7) 0.08536(2)
S2 S 0.89875(12) 0.65135(2) 0.41552(7)
N6 N 0.5408(4) 0.77936(8) 0.4944(2)
N7 N 0.3336(4) 0.84158(8) 0.4216(2)
N8 N 0.1578(4) 0.27795(8) 0.2126(2)
N9 N 0.8422(4) 0.72205(8) 0.7874(2)
N10 N 0.3422(4) 0.77795(8) 0.2874(2)
N14 N 0.5986(4) 0.54206(8) 0.5095(3)
O5 O 0.7817(4) 0.67774(7) 0.5006(2)
O6 O 0.8204(3) 0.65615(8) 0.2832(2)
C11 C 0.3323(5) 0.82583(10) 0.2899(3)
H23 H 0.2030 0.8356 0.2417
H24 H 0.4541 0.8378 0.2485
C12 C 0.1521(4) 0.82397(10) 0.4815(3)
H25 H 0.1511 0.8349 0.5696
H26 H 0.0219 0.8339 0.4343
C13 C 0.5263(4) 0.82675(10) 0.4935(3)
H27 H 0.6503 0.8388 0.4546
H28 H 0.5270 0.8374 0.5820
C14 C 0.1574(5) 0.76123(10) 0.3499(3)
H29 H 0.0276 0.7709 0.3018
H30 H 0.1598 0.7295 0.3484
C15 C 0.3535(5) 0.76219(11) 0.5532(3)
H31 H 0.3597 0.7304 0.5537
H32 H 0.3546 0.7721 0.6425
C16 C 0.5354(5) 0.76418(10) 0.3609(3)
H33 H 0.5440 0.7325 0.3600
H34 H 0.6589 0.7756 0.3200
C17 C 0.8607(5) 0.59726(10) 0.4590(3)
H35 H 0.9286 0.5923 0.5449
H36 H 0.9297 0.5784 0.3989
C18 C 0.6284(5) 0.58521(10) 0.4591(3)
H37 H 0.5642 0.5868 0.3712
H38 H 0.5557 0.6062 0.5113
C19 C 0.3745(5) 0.53541(11) 0.5278(4)
H39 H 0.3266 0.5572 0.5879
H40 H 0.2924 0.5392 0.4456
C20 C 0.6649(5) 0.50906(11) 0.4208(3)
H41 H 0.5862 0.5127 0.3374
H42 H 0.8161 0.5125 0.4081
O8 O 0.8839(3) 0.83784(8) 0.7281(2)
H44 H 0.8059 0.8426 0.7888
O3 O 0.8736(3) 0.34186(8) 0.5677(2)
H21 H 0.9914 0.1606 0.2389
N7_2 N 0.1664(4) 0.34158(8) 0.0784(2)
N13 N 0.3448(4) 0.27625(8) 0.0163(2)
C11_2 C 0.1677(5) 0.32583(10) 0.2101(3)
H23_2 H 0.2970 0.3356 0.2583
H24_2 H 0.0459 0.3378 0.2515
C12_2 C 0.3479(4) 0.32397(10) 0.0185(3)
H26_2 H 0.4781 0.3339 0.0657
C14_2 C 0.3426(5) 0.26123(10) 0.1501(3)
H29_2 H 0.4724 0.2709 0.1982
H30_2 H 0.3402 0.2295 0.1516
H40_2 H 0.2076 0.0392 0.0544
H25_2 H 0.3489 0.3349 0.9304
C15_2 C 0.1465(5) 0.26219(11) 0.9468(3)
H31_2 H 0.1403 0.2304 0.9463
H32_2 H 0.1454 0.2721 0.8575
C19_2 C 0.1255(5) 0.03541(11) 0.9722(4)
H39_2 H 0.1734 0.0572 0.9121
N5_2 N 0.0986(4) 0.95794(8) 0.0095(3)
O1_2 O 0.2817(4) 0.82226(7) 0.0006(2)
H6_2 H 0.0270 0.6626 0.0820
H13_2 H 0.4286 0.9077 0.0449
H16_2 H 0.0557 0.8938 0.0113
O4_2 O 0.3839(3) 0.66216(8) 0.2281(2)
H21_2 H 0.5086 0.6606 0.2611
H22_2 H 0.3059 0.6574 0.2888
S1_2 S 0.39875(12) 0.84865(2) 0.91552(7)
N1_2 N 0.0408(4) 0.72064(8) 0.9944(2)
O2_2 O 0.3204(3) 0.84385(8) 0.7832(2)
O3_2 O 0.6264(3) 0.84186(8) 0.9323(2)
C3_2 C 0.0263(4) 0.67325(10) 0.9935(3)
H5_2 H 0.1503 0.6612 0.9546
C6_2 C 0.0354(5) 0.73582(10) 0.8609(3)
H11_2 H 0.0440 0.7675 0.8600
H12_2 H 0.1589 0.7244 0.8200
C7_2 C 0.3607(5) 0.90274(10) 0.9590(3)
H14_2 H 0.4297 0.9216 0.8989
C8_2 C 0.1284(5) 0.91479(10) 0.9591(3)
H15_2 H 0.0642 0.9132 0.8712
C10_2 C 0.1649(5) 0.99094(11) 0.9208(3)
H19_2 H 0.0862 0.9873 0.8374
H20_2 H 0.3161 0.9875 0.9081
N11 N 0.6552(4) 0.72375(8) 0.9837(2)
S2_2 S 0.60125(12) 0.15135(2) 0.08448(7)
N6_2 N 0.9592(4) 0.27936(8) 0.0056(2)
O6_2 O 0.6796(3) 0.15615(8) 0.2168(2)
O7_2 O 0.3736(3) 0.15814(8) 0.0677(2)
C13_2 C 0.9737(4) 0.32675(10) 0.0065(3)
H27_2 H 0.8497 0.3388 0.0454
C16_2 C 0.9646(5) 0.26418(10) 0.1391(3)
H33_2 H 0.9560 0.2325 0.1400
H34_2 H 0.8411 0.2756 0.1800
C17_2 C 0.6393(5) 0.09726(10) 0.0410(3)
H36_2 H 0.5703 0.0784 0.1011
C18_2 C 0.8716(5) 0.08521(10) 0.0409(3)
H37_2 H 0.9358 0.0868 0.1288
C20_2 C 0.8351(5) 0.00906(11) 0.0792(3)
H41_2 H 0.9138 0.0127 0.1626
H42_2 H 0.6839 0.0125 0.0919
N14_2 N 0.9014(4) 0.04206(8) 0.9905(3)
O5_2 O 0.7183(4) 0.17774(7) 0.9994(2)
H28_2 H 0.9730 0.3374 0.9180
H35_2 H 0.5714 0.0923 0.9551
H38_2 H 0.9443 0.1062 0.9887
O8_2 O 0.6161(3) 0.33784(8) 0.7719(2)
H43_2 H 0.4914 0.3394 0.7389
H44_2 H 0.6941 0.3426 0.7112
H3_2 H 0.6511 0.6651 0.0696
C5_2 C 0.8535(5) 0.73781(11) 0.0532(3)
H9_2 H 0.8597 0.7696 0.0537
H10_2 H 0.8546 0.7279 0.1425
C9_2 C 0.8745(5) 0.96459(11) 0.0278(4)
H17_2 H 0.8266 0.9428 0.0879
N2_2 N 0.8336(4) 0.65842(8) 0.9216(2)
C1_2 C 0.8323(5) 0.67417(10) 0.7899(3)
H1_2 H 0.7030 0.6644 0.7417
H2_2 H 0.9541 0.6622 0.7485
C2_2 C 0.6521(4) 0.67603(10) 0.9815(3)
H4_2 H 0.5219 0.6661 0.9343
C4_2 C 0.6574(5) 0.73877(10) 0.8499(3)
H7_2 H 0.5276 0.7291 0.8018
H8_2 H 0.6598 0.7705 0.8484
H18_2 H 0.7924 0.9608 0.9456
loop_
_geom_bond_atom_site_label_1
_geom_bond_atom_site_label_2
_geom_bond_site_symmetry_1
_geom_bond_site_symmetry_2
Ag3 N1 1_555 1_555
S1 O1 1_555 1_555
N1 C3 1_555 1_555
N2 C1 1_555 1_555
N3 C1 1_555 1_555
N4 C2 1_555 1_555
N5 C8 1_555 1_555
O1 Ag3 1_555 1_555
O2 S1 1_555 1_555
C1 H1 1_555 1_555
H2 C1 1_555 1_555
C2 N2 1_555 1_555
H3 C2 1_555 1_555
H4 C2 1_555 1_555
C3 N2 1_555 1_555
H5 C3 1_555 1_555
H6 C3 1_555 1_555
C4 N3 1_555 1_555
H7 C4 1_555 1_555
H8 C4 1_555 1_555
C5 N1 1_555 1_555
H9 C5 1_555 1_555
H10 C5 1_555 1_555
C6 N1 1_555 1_555
H11 C6 1_555 1_555
H12 C6 1_555 1_555
C7 S1 1_555 1_555
H13 C7 1_555 1_555
H14 C7 1_555 1_555
C8 C7 1_555 1_555
H15 C8 1_555 1_555
H16 C8 1_555 1_555
C9 N5 1_555 1_555
H17 C9 1_555 1_555
H18 C9 1_555 1_555
C10 N5 1_555 1_555
H19 C10 1_555 1_555
H20 C10 1_555 1_555
O4 Ag3 1_555 1_555
H22 O4 1_555 1_555
Ag2 N3 1_555 1_555
Ag4 N6 1_555 1_555
Ag6 N10 1_555 1_555
S2 O5 1_555 1_555
N6 C13 1_555 1_555
N7 C11 1_555 1_555
N8 Ag3 1_555 1_555
N9 Ag4 1_555 1_555
N10 C11 1_555 1_555
N12 C12 1_555 1_555
N14 C18 1_555 1_555
O5 Ag4 1_555 1_555
O6 S2 1_555 1_555
C11 H23 1_555 1_555
H24 C11 1_555 1_555
C12 N7 1_555 1_555
H25 C12 1_555 1_555
H26 C12 1_555 1_555
C13 N7 1_555 1_555
H27 C13 1_555 1_555
H28 C13 1_555 1_555
C14 N10 1_555 1_555
H29 C14 1_555 1_555
H30 C14 1_555 1_555
C15 N6 1_555 1_555
H31 C15 1_555 1_555
H32 C15 1_555 1_555
C16 N6 1_555 1_555
H33 C16 1_555 1_555
H34 C16 1_555 1_555
C17 S2 1_555 1_555
H35 C17 1_555 1_555
H36 C17 1_555 1_555
C18 C17 1_555 1_555
H37 C18 1_555 1_555
H38 C18 1_555 1_555
C19 C10 1_555 1_555
H39 C19 1_555 1_555
H40 C19 1_555 1_555
C20 C9 1_555 1_555
H41 C20 1_555 1_555
H42 C20 1_555 1_555
O8 Ag4 1_555 1_555
H44 O8 1_555 1_555
N3 C6 1_555 1_555
N4 C4 1_555 1_555
N4 C5 1_555 1_555
N10 C16 1_555 1_555
N12 C14 1_555 1_555
N12 C15 1_555 1_555
N14 C19 1_555 1_555
N14 C20 1_555 1_555
N7_2 C11_2 1_555 1_555
N8 C11_2 1_555 1_555
N13 C12_2 1_555 1_555
C11_2 H23_2 1_555 1_555
H24_2 C11_2 1_555 1_555
C12_2 N7_2 1_555 1_555
H26_2 C12_2 1_555 1_555
C14_2 N8 1_555 1_555
H29_2 C14_2 1_555 1_555
H30_2 C14_2 1_555 1_555
N13 C14_2 1_555 1_555
H31_2 C15_2 1_555 1_555
H32_2 C15_2 1_555 1_555
H39_2 C19_2 1_555 1_555
O1_2 Ag6 1_555 1_555
O4_2 Ag6 1_555 1_555
H21_2 O4_2 1_555 1_555
H22_2 O4_2 1_555 1_555
N1_2 C3_2 1_555 1_555
O2_2 S1_2 1_555 1_555
O3_2 S1_2 1_555 1_555
H5_2 C3_2 1_555 1_555
C6_2 N1_2 1_555 1_555
H11_2 C6_2 1_555 1_555
H12_2 C6_2 1_555 1_555
C7_2 S1_2 1_555 1_555
H14_2 C7_2 1_555 1_555
C8_2 C7_2 1_555 1_555
H15_2 C8_2 1_555 1_555
H19_2 C10_2 1_555 1_555
H20_2 C10_2 1_555 1_555
N6_2 C13_2 1_555 1_555
O6_2 S2_2 1_555 1_555
O7_2 S2_2 1_555 1_555
H27_2 C13_2 1_555 1_555
C16_2 N6_2 1_555 1_555
H33_2 C16_2 1_555 1_555
H34_2 C16_2 1_555 1_555
C17_2 S2_2 1_555 1_555
H36_2 C17_2 1_555 1_555
C18_2 C17_2 1_555 1_555
H37_2 C18_2 1_555 1_555
H41_2 C20_2 1_555 1_555
H42_2 C20_2 1_555 1_555
O5_2 Ag2 1_555 1_555
O8_2 Ag2 1_555 1_555
H43_2 O8_2 1_555 1_555
H44_2 O8_2 1_555 1_555
H9_2 C5_2 1_555 1_555
H10_2 C5_2 1_555 1_555
H17_2 C9_2 1_555 1_555
N2_2 C1_2 1_555 1_555
N9 C1_2 1_555 1_555
N11 C2_2 1_555 1_555
C1_2 H1_2 1_555 1_555
H2_2 C1_2 1_555 1_555
C2_2 N2_2 1_555 1_555
H4_2 C2_2 1_555 1_555
C4_2 N9 1_555 1_555
H7_2 C4_2 1_555 1_555
H8_2 C4_2 1_555 1_555
N11 C4_2 1_555 1_555

#END
