
###############################################################################
#
# This file contains modified crystal structure data generated from the
# MOF subset of the Cambridge Structural Database (CSD) v543 
# hosted by the Cambridge Crystallographic Data Centre (CCDC).
#
# This work is licensed under the Creative Commons
# Attribution-NonCommercial-ShareAlike 4.0 International License.
# To view a copy of this license, visit
# http://creativecommons.org/licenses/by-nc-sa/4.0/
# or send a letter to
# Creative Commons, PO Box 1866, Mountain View, CA 94042, USA.
#
# CIF created using the CSD Python API on 29 September 2022
# The structure has been converted into the P1 space group
# The structure has a 3D framework
# The original CSD entry FAHDEB is in the monoclinic crystal system
# The framework has been calculated to contain at least 10.0% void space
# The void calculation uses a probe of radius 1.32A, grid spacing 0.4
#
###############################################################################

data_FAHDEB
_chemical_formula_moiety         '(C112 H64 Cd8 N32 O32 S8)n'
_symmetry_cell_setting           triclinic
_symmetry_space_group_name_H-M   'P 1'
_symmetry_Int_Tables_number      1
_space_group_name_Hall           'P 1'
loop_
_symmetry_equiv_pos_site_id
_symmetry_equiv_pos_as_xyz
1 x,y,z
_cell_length_a                   19.430(4)
_cell_length_b                   13.265(3)
_cell_length_c                   14.099(3)
_cell_angle_alpha                90
_cell_angle_beta                 99.71(3)
_cell_angle_gamma                90
_cell_volume                     3581.8
loop_
_atom_site_label
_atom_site_type_symbol
_atom_site_fract_x
_atom_site_fract_y
_atom_site_fract_z
N1 N 0.69974(15) 0.5821(2) 0.1137(2)
C1 C 0.6411(2) 0.6224(3) 0.1322(4)
H1 H 0.6403 0.6915 0.1432
Cd1 Cd 0.299427(12) 0.180525(18) 0.114464(17)
N2 N 0.35468(15) 0.0460(2) 0.0359(2)
N3 N 0.39684(14) 0.2825(2) 0.1231(2)
C5 C 0.57974(17) 0.4652(3) 0.1204(2)
C6 C 0.39407(18) 0.3832(3) 0.1269(3)
H2 H 0.3512 0.4132 0.1297
C7 C 0.51588(17) 0.4032(3) 0.1223(2)
C9 C 0.6408(2) 0.4235(3) 0.1013(4)
H3 H 0.6432 0.3546 0.0901
C10 C 0.45138(18) 0.4451(3) 0.1270(3)
H4 H 0.4465 0.5147 0.1302
C11 C 0.5810(2) 0.5681(3) 0.1362(4)
H5 H 0.5414 0.6007 0.1495
C12 C 0.5190(2) 0.2986(3) 0.1204(4)
H6 H 0.5613 0.2665 0.1187
C13 C 0.4597(2) 0.2424(3) 0.1211(4)
H7 H 0.4635 0.1725 0.1200
C14 C 0.6985(2) 0.4833(3) 0.0984(4)
H8 H 0.7388 0.4526 0.0850
N5 N 0.19974(15) 0.0821(2) 0.1137(2)
O5 O 0.31531(18) 0.1548(3) 0.2779(2)
O6 O 0.22798(12) 0.31438(18) 0.06395(18)
Cd2 Cd 0.799427(12) 0.680525(18) 0.114464(17)
O3 O 0.27202(12) 0.18562(18) 0.93605(18)
O4 O 0.2774(2) 0.1070(3) 0.7978(2)
C3 C 0.29224(18) 0.1160(3) 0.8853(3)
C4 C 0.33799(17) 0.0374(3) 0.9413(2)
Cd4 Cd 0.200573(12) 0.319475(18) 0.885536(17)
O1 O 0.3967(2) 0.9536(3) 0.7503(2)
O2 O 0.31531(18) 0.8452(3) 0.7779(2)
C2 C 0.3589(3) 0.9148(3) 0.8013(3)
N4 N 0.4051(2) 0.8953(3) 0.9731(2)
C8 C 0.3669(2) 0.9491(3) 0.9054(3)
Cd3 Cd 0.299427(12) 0.819475(18) 0.614464(17)
N1_2 N 0.30026(15) 0.5821(2) 0.3863(2)
C1_2 C 0.3589(2) 0.6224(3) 0.3678(4)
H1_2 H 0.3597 0.6915 0.3568
O3_2 O 0.72798(12) 0.18562(18) 0.56395(18)
O4_2 O 0.7226(2) 0.1070(3) 0.7022(2)
C3_2 C 0.70776(18) 0.1160(3) 0.6147(3)
C4_2 C 0.66201(17) 0.0374(3) 0.5587(2)
Cd1_2 Cd 0.700573(12) 0.180525(18) 0.385536(17)
N2_2 N 0.64532(15) 0.0460(2) 0.4641(2)
N3_2 N 0.60316(14) 0.2825(2) 0.3769(2)
C5_2 C 0.42026(17) 0.4652(3) 0.3796(2)
C6_2 C 0.60593(18) 0.3832(3) 0.3731(3)
H2_2 H 0.6488 0.4132 0.3703
C7_2 C 0.48412(17) 0.4032(3) 0.3777(2)
C9_2 C 0.3592(2) 0.4235(3) 0.3987(4)
H3_2 H 0.3568 0.3546 0.4099
C10_2 C 0.54862(18) 0.4451(3) 0.3730(3)
H4_2 H 0.5535 0.5147 0.3698
C11_2 C 0.4190(2) 0.5681(3) 0.3638(4)
H5_2 H 0.4586 0.6007 0.3505
C12_2 C 0.4810(2) 0.2986(3) 0.3796(4)
H6_2 H 0.4387 0.2665 0.3813
C13_2 C 0.5403(2) 0.2424(3) 0.3789(4)
H7_2 H 0.5365 0.1725 0.3800
C14_2 C 0.3015(2) 0.4833(3) 0.4016(4)
H8_2 H 0.2612 0.4526 0.4150
N5_2 N 0.80026(15) 0.0821(2) 0.3863(2)
O5_2 O 0.68469(18) 0.1548(3) 0.2221(2)
O6_2 O 0.77202(12) 0.31438(18) 0.43605(18)
Cd2_2 Cd 0.200573(12) 0.680525(18) 0.385536(17)
Cd4_2 Cd 0.799427(12) 0.319475(18) 0.614464(17)
O1_2 O 0.6033(2) 0.9536(3) 0.7497(2)
O2_2 O 0.68469(18) 0.8452(3) 0.7221(2)
C2_2 C 0.6411(3) 0.9148(3) 0.6987(3)
S1 S 0.59559(7) 0.95047(9) 0.42337(7)
N4_2 N 0.5949(2) 0.8953(3) 0.5269(2)
C8_2 C 0.6331(2) 0.9491(3) 0.5946(3)
Cd3_2 Cd 0.700573(12) 0.819475(18) 0.885536(17)
C1_3 C 0.1411(2) 0.1224(3) 0.1322(4)
H1_3 H 0.1403 0.1915 0.1432
C11_3 C 0.0810(2) 0.0681(3) 0.1362(4)
H5_3 H 0.0414 0.1007 0.1495
S1_2 S 0.90441(7) 0.45047(9) 0.07663(7)
N2_3 N 0.85468(15) 0.5460(2) 0.0359(2)
N3_3 N 0.89684(14) 0.7825(2) 0.1231(2)
C6_3 C 0.89407(18) 0.8832(3) 0.1269(3)
H2_3 H 0.8512 0.9132 0.1297
C10_3 C 0.95138(18) 0.9451(3) 0.1270(3)
C13_3 C 0.9597(2) 0.7424(3) 0.1211(4)
H7_3 H 0.9635 0.6725 0.1200
O5_3 O 0.81531(18) 0.6548(3) 0.2779(2)
O6_3 O 0.72798(12) 0.81438(18) 0.06395(18)
O1_3 O 0.8967(2) 0.4536(3) 0.7503(2)
O2_3 O 0.81531(18) 0.3452(3) 0.7779(2)
C2_3 C 0.8589(3) 0.4148(3) 0.8013(3)
O3_3 O 0.77202(12) 0.68562(18) 0.93605(18)
O4_3 O 0.7774(2) 0.6070(3) 0.7978(2)
C3_3 C 0.79224(18) 0.6160(3) 0.8853(3)
C4_3 C 0.83799(17) 0.5374(3) 0.9413(2)
N4_3 N 0.9051(2) 0.3953(3) 0.9731(2)
C8_3 C 0.8669(2) 0.4491(3) 0.9054(3)
O1_4 O 0.1033(2) 0.4536(3) 0.7497(2)
O2_4 O 0.18469(18) 0.3452(3) 0.7221(2)
C2_4 C 0.1411(3) 0.4148(3) 0.6987(3)
O3_4 O 0.22798(12) 0.68562(18) 0.56395(18)
O4_4 O 0.2226(2) 0.6070(3) 0.7022(2)
C3_4 C 0.20776(18) 0.6160(3) 0.6147(3)
C4_4 C 0.16201(17) 0.5374(3) 0.5587(2)
S1_3 S 0.09559(7) 0.45047(9) 0.42337(7)
N2_4 N 0.14532(15) 0.5460(2) 0.4641(2)
N3_4 N 0.10316(14) 0.7825(2) 0.3769(2)
C6_4 C 0.10593(18) 0.8832(3) 0.3731(3)
H2_4 H 0.1488 0.9132 0.3703
N4_4 N 0.0949(2) 0.3953(3) 0.5269(2)
C8_4 C 0.1331(2) 0.4491(3) 0.5946(3)
C10_4 C 0.04862(18) 0.9451(3) 0.3730(3)
C13_4 C 0.0403(2) 0.7424(3) 0.3789(4)
H7_4 H 0.0365 0.6725 0.3800
O5_4 O 0.18469(18) 0.6548(3) 0.2221(2)
O6_4 O 0.27202(12) 0.81438(18) 0.43605(18)
C1_4 C 0.8589(2) 0.1224(3) 0.3678(4)
H1_4 H 0.8597 0.1915 0.3568
C11_4 C 0.9190(2) 0.0681(3) 0.3638(4)
H5_4 H 0.9586 0.1007 0.3505
O1_5 O 0.6033(2) 0.0464(3) 0.2497(2)
C2_5 C 0.6411(3) 0.0852(3) 0.1987(3)
N4_5 N 0.5949(2) 0.1047(3) 0.0269(2)
C8_5 C 0.6331(2) 0.0509(3) 0.0946(3)
O4_5 O 0.7226(2) 0.8930(3) 0.2022(2)
C3_5 C 0.70776(18) 0.8840(3) 0.1147(3)
C4_5 C 0.66201(17) 0.9626(3) 0.0587(2)
N1_3 N 0.30026(15) 0.4179(2) 0.8863(2)
C1_5 C 0.3589(2) 0.3776(3) 0.8678(4)
H1_5 H 0.3597 0.3085 0.8568
N2_5 N 0.64532(15) 0.9540(2) 0.9641(2)
N3_5 N 0.60316(14) 0.7175(2) 0.8769(2)
C5_3 C 0.42026(17) 0.5348(3) 0.8796(2)
C6_5 C 0.60593(18) 0.6168(3) 0.8731(3)
H2_5 H 0.6488 0.5868 0.8703
C7_3 C 0.48412(17) 0.5968(3) 0.8777(2)
C9_3 C 0.3592(2) 0.5765(3) 0.8987(4)
H3_3 H 0.3568 0.6454 0.9099
C10_5 C 0.54862(18) 0.5549(3) 0.8730(3)
H4_3 H 0.5535 0.4853 0.8698
C11_5 C 0.4190(2) 0.4319(3) 0.8638(4)
H5_5 H 0.4586 0.3993 0.8505
C12_3 C 0.4810(2) 0.7014(3) 0.8796(4)
H6_3 H 0.4387 0.7335 0.8813
C13_5 C 0.5403(2) 0.7576(3) 0.8789(4)
H7_5 H 0.5365 0.8275 0.8800
C14_3 C 0.3015(2) 0.5167(3) 0.9016(4)
H8_3 H 0.2612 0.5474 0.9150
N5_3 N 0.80026(15) 0.9179(2) 0.8863(2)
O1_6 O 0.3967(2) 0.0464(3) 0.2503(2)
C2_6 C 0.3589(3) 0.0852(3) 0.3013(3)
S1_4 S 0.40441(7) 0.04953(9) 0.57663(7)
N4_6 N 0.4051(2) 0.1047(3) 0.4731(2)
C8_6 C 0.3669(2) 0.0509(3) 0.4054(3)
N1_4 N 0.69974(15) 0.4179(2) 0.6137(2)
C1_6 C 0.6411(2) 0.3776(3) 0.6322(4)
H1_6 H 0.6403 0.3085 0.6432
O4_6 O 0.2774(2) 0.8930(3) 0.2978(2)
C3_6 C 0.29224(18) 0.8840(3) 0.3853(3)
C4_6 C 0.33799(17) 0.9626(3) 0.4413(2)
N2_6 N 0.35468(15) 0.9540(2) 0.5359(2)
N3_6 N 0.39684(14) 0.7175(2) 0.6231(2)
C5_4 C 0.57974(17) 0.5348(3) 0.6204(2)
C6_6 C 0.39407(18) 0.6168(3) 0.6269(3)
H2_6 H 0.3512 0.5868 0.6297
C7_4 C 0.51588(17) 0.5968(3) 0.6223(2)
C9_4 C 0.6408(2) 0.5765(3) 0.6013(4)
H3_4 H 0.6432 0.6454 0.5901
C10_6 C 0.45138(18) 0.5549(3) 0.6270(3)
H4_4 H 0.4465 0.4853 0.6302
C11_6 C 0.5810(2) 0.4319(3) 0.6362(4)
H5_6 H 0.5414 0.3993 0.6495
C12_4 C 0.5190(2) 0.7014(3) 0.6204(4)
H6_4 H 0.5613 0.7335 0.6187
C13_6 C 0.4597(2) 0.7576(3) 0.6211(4)
H7_6 H 0.4635 0.8275 0.6200
C14_4 C 0.6985(2) 0.5167(3) 0.5984(4)
H8_4 H 0.7388 0.5474 0.5850
N5_4 N 0.19974(15) 0.9179(2) 0.6137(2)
O1_7 O 0.1033(2) 0.5464(3) 0.2497(2)
C2_7 C 0.1411(3) 0.5852(3) 0.1987(3)
O4_7 O 0.2226(2) 0.3930(3) 0.2022(2)
C3_7 C 0.20776(18) 0.3840(3) 0.1147(3)
C4_7 C 0.16201(17) 0.4626(3) 0.0587(2)
N4_7 N 0.0949(2) 0.6047(3) 0.0269(2)
C8_7 C 0.1331(2) 0.5509(3) 0.0946(3)
S1_5 S 0.09559(7) 0.54953(9) 0.92337(7)
N2_7 N 0.14532(15) 0.4540(2) 0.9641(2)
N3_7 N 0.10316(14) 0.2175(2) 0.8769(2)
C6_7 C 0.10593(18) 0.1168(3) 0.8731(3)
H2_7 H 0.1488 0.0868 0.8703
C10_7 C 0.04862(18) 0.0549(3) 0.8730(3)
C13_7 C 0.0403(2) 0.2576(3) 0.8789(4)
H7_7 H 0.0365 0.3275 0.8800
C1_7 C 0.8589(2) 0.8776(3) 0.8678(4)
H1_7 H 0.8597 0.8085 0.8568
C11_7 C 0.9190(2) 0.9319(3) 0.8638(4)
H5_7 H 0.9586 0.8993 0.8505
C1_8 C 0.1411(2) 0.8776(3) 0.6322(4)
H1_8 H 0.1403 0.8085 0.6432
C11_8 C 0.0810(2) 0.9319(3) 0.6362(4)
H5_8 H 0.0414 0.8993 0.6495
O1_8 O 0.8967(2) 0.5464(3) 0.2503(2)
C2_8 C 0.8589(3) 0.5852(3) 0.3013(3)
O4_8 O 0.7774(2) 0.3930(3) 0.2978(2)
C3_8 C 0.79224(18) 0.3840(3) 0.3853(3)
C4_8 C 0.83799(17) 0.4626(3) 0.4413(2)
S1_6 S 0.90441(7) 0.54953(9) 0.57663(7)
N2_8 N 0.85468(15) 0.4540(2) 0.5359(2)
N3_8 N 0.89684(14) 0.2175(2) 0.6231(2)
C6_8 C 0.89407(18) 0.1168(3) 0.6269(3)
H2_8 H 0.8512 0.0868 0.6297
N4_8 N 0.9051(2) 0.6047(3) 0.4731(2)
C8_8 C 0.8669(2) 0.5509(3) 0.4054(3)
C10_8 C 0.95138(18) 0.0549(3) 0.6270(3)
C13_8 C 0.9597(2) 0.2576(3) 0.6211(4)
H7_8 H 0.9635 0.3275 0.6200
S1_7 S 0.40441(7) 0.95047(9) 0.07663(7)
C5_5 C 0.07974(17) 0.9652(3) 0.1204(2)
C7_5 C 0.01588(17) 0.9032(3) 0.1223(2)
C9_5 C 0.1408(2) 0.9235(3) 0.1013(4)
H3_5 H 0.1432 0.8546 0.0901
C12_5 C 0.0190(2) 0.7986(3) 0.1204(4)
H6_5 H 0.0613 0.7665 0.1187
C14_5 C 0.1985(2) 0.9833(3) 0.0984(4)
H8_5 H 0.2388 0.9526 0.0850
H4_5 H 0.9465 0.0147 0.1302
H4_6 H 0.0535 0.0147 0.3698
C5_6 C 0.92026(17) 0.9652(3) 0.3796(2)
C7_6 C 0.98412(17) 0.9032(3) 0.3777(2)
C9_6 C 0.8592(2) 0.9235(3) 0.3987(4)
H3_6 H 0.8568 0.8546 0.4099
C12_6 C 0.9810(2) 0.7986(3) 0.3796(4)
H6_6 H 0.9387 0.7665 0.3813
C14_6 C 0.8015(2) 0.9833(3) 0.4016(4)
H8_6 H 0.7612 0.9526 0.4150
S1_8 S 0.59559(7) 0.04953(9) 0.92337(7)
H4_7 H 0.0535 0.9853 0.8698
C5_7 C 0.92026(17) 0.0348(3) 0.8796(2)
C7_7 C 0.98412(17) 0.0968(3) 0.8777(2)
C9_7 C 0.8592(2) 0.0765(3) 0.8987(4)
H3_7 H 0.8568 0.1454 0.9099
C12_7 C 0.9810(2) 0.2014(3) 0.8796(4)
H6_7 H 0.9387 0.2335 0.8813
C14_7 C 0.8015(2) 0.0167(3) 0.9016(4)
H8_7 H 0.7612 0.0474 0.9150
C5_8 C 0.07974(17) 0.0348(3) 0.6204(2)
C7_8 C 0.01588(17) 0.0968(3) 0.6223(2)
C9_8 C 0.1408(2) 0.0765(3) 0.6013(4)
H3_8 H 0.1432 0.1454 0.5901
C12_8 C 0.0190(2) 0.2014(3) 0.6204(4)
H6_8 H 0.0613 0.2335 0.6187
C14_8 C 0.1985(2) 0.0167(3) 0.5984(4)
H8_8 H 0.2388 0.0474 0.5850
H4_8 H 0.9465 0.9853 0.6302
loop_
_geom_bond_atom_site_label_1
_geom_bond_atom_site_label_2
_geom_bond_site_symmetry_1
_geom_bond_site_symmetry_2
N1 C1 1_555 1_555
C1 H1 1_555 1_555
N2 Cd1 1_555 1_555
N3 Cd1 1_555 1_555
C5 C7 1_555 1_555
C6 N3 1_555 1_555
H2 C6 1_555 1_555
C7 C10 1_555 1_555
C9 C5 1_555 1_555
H3 C9 1_555 1_555
C10 C6 1_555 1_555
H4 C10 1_555 1_555
C11 C1 1_555 1_555
H5 C11 1_555 1_555
C12 C7 1_555 1_555
H6 C12 1_555 1_555
C13 N3 1_555 1_555
H7 C13 1_555 1_555
C14 N1 1_555 1_555
H8 C14 1_555 1_555
N5 Cd1 1_555 1_555
O5 Cd1 1_555 1_555
O6 Cd1 1_555 1_555
Cd2 N1 1_555 1_555
C5 C11 1_555 1_555
C9 C14 1_555 1_555
C12 C13 1_555 1_555
O3 C3 1_555 1_555
O4 C3 1_555 1_555
C3 C4 1_555 1_555
Cd4 O3 1_555 1_555
O1 C2 1_555 1_555
O2 C2 1_555 1_555
C2 C8 1_555 1_555
Cd3 O2 1_555 1_555
N4 C8 1_555 1_555
N1_2 C1_2 1_555 1_555
C1_2 H1_2 1_555 1_555
O3_2 C3_2 1_555 1_555
O4_2 C3_2 1_555 1_555
C3_2 C4_2 1_555 1_555
C4_2 N2_2 1_555 1_555
Cd1_2 O3_2 1_555 1_555
N2_2 Cd1_2 1_555 1_555
N3_2 Cd1_2 1_555 1_555
C5_2 C7_2 1_555 1_555
C6_2 N3_2 1_555 1_555
H2_2 C6_2 1_555 1_555
C7_2 C10_2 1_555 1_555
C9_2 C5_2 1_555 1_555
H3_2 C9_2 1_555 1_555
C10_2 C6_2 1_555 1_555
H4_2 C10_2 1_555 1_555
C11_2 C1_2 1_555 1_555
H5_2 C11_2 1_555 1_555
C12_2 C7_2 1_555 1_555
H6_2 C12_2 1_555 1_555
C13_2 N3_2 1_555 1_555
H7_2 C13_2 1_555 1_555
C14_2 N1_2 1_555 1_555
H8_2 C14_2 1_555 1_555
N5_2 Cd1_2 1_555 1_555
O5_2 Cd1_2 1_555 1_555
O6_2 Cd1_2 1_555 1_555
Cd2_2 N1_2 1_555 1_555
Cd4_2 O3_2 1_555 1_555
C5_2 C11_2 1_555 1_555
C9_2 C14_2 1_555 1_555
C12_2 C13_2 1_555 1_555
O6_2 Cd4_2 1_555 1_555
O1_2 C2_2 1_555 1_555
O2_2 C2_2 1_555 1_555
C2_2 C8_2 1_555 1_555
N4_2 S1 1_555 1_555
Cd3_2 O2_2 1_555 1_555
N4_2 C8_2 1_555 1_555
N5 C1_3 1_555 1_555
C1_3 H1_3 1_555 1_555
C11_3 C1_3 1_555 1_555
H5_3 C11_3 1_555 1_555
S1_2 N2_3 1_555 1_555
N2_3 Cd2 1_555 1_555
N3_3 Cd2 1_555 1_555
C6_3 N3_3 1_555 1_555
H2_3 C6_3 1_555 1_555
C10_3 C6_3 1_555 1_555
C13_3 N3_3 1_555 1_555
H7_3 C13_3 1_555 1_555
O5_3 Cd2 1_555 1_555
O6_3 Cd2 1_555 1_555
O1_3 C2_3 1_555 1_555
O2_3 C2_3 1_555 1_555
C2_3 C8_3 1_555 1_555
O3_3 C3_3 1_555 1_555
O4_3 C3_3 1_555 1_555
C3_3 C4_3 1_555 1_555
C8_3 C4_3 1_555 1_555
Cd4_2 O2_3 1_555 1_555
Cd3_2 O3_3 1_555 1_555
N4_3 C8_3 1_555 1_555
O1_4 C2_4 1_555 1_555
O2_4 C2_4 1_555 1_555
C2_4 C8_4 1_555 1_555
O3_4 C3_4 1_555 1_555
O4_4 C3_4 1_555 1_555
C3_4 C4_4 1_555 1_555
C4_4 N2_4 1_555 1_555
Cd2_2 O3_4 1_555 1_555
S1_3 N2_4 1_555 1_555
N2_4 Cd2_2 1_555 1_555
N3_4 Cd2_2 1_555 1_555
C6_4 N3_4 1_555 1_555
H2_4 C6_4 1_555 1_555
N4_4 S1_3 1_555 1_555
C8_4 C4_4 1_555 1_555
C10_4 C6_4 1_555 1_555
C13_4 N3_4 1_555 1_555
H7_4 C13_4 1_555 1_555
O5_4 Cd2_2 1_555 1_555
O6_4 Cd2_2 1_555 1_555
Cd4 O2_4 1_555 1_555
Cd3 O3_4 1_555 1_555
N4_4 C8_4 1_555 1_555
O6_4 Cd3 1_555 1_555
N5_2 C1_4 1_555 1_555
C1_4 H1_4 1_555 1_555
C11_4 C1_4 1_555 1_555
H5_4 C11_4 1_555 1_555
O1_5 C2_5 1_555 1_555
O5_2 C2_5 1_555 1_555
C2_5 C8_5 1_555 1_555
N4_5 C8_5 1_555 1_555
O6_3 C3_5 1_555 1_555
O4_5 C3_5 1_555 1_555
C3_5 C4_5 1_555 1_555
N1_3 C1_5 1_555 1_555
C1_5 H1_5 1_555 1_555
N2_5 Cd3_2 1_555 1_555
N3_5 Cd3_2 1_555 1_555
C5_3 C7_3 1_555 1_555
C6_5 N3_5 1_555 1_555
H2_5 C6_5 1_555 1_555
C7_3 C10_5 1_555 1_555
C9_3 C5_3 1_555 1_555
H3_3 C9_3 1_555 1_555
C10_5 C6_5 1_555 1_555
H4_3 C10_5 1_555 1_555
C11_5 C1_5 1_555 1_555
H5_5 C11_5 1_555 1_555
C12_3 C7_3 1_555 1_555
H6_3 C12_3 1_555 1_555
C13_5 N3_5 1_555 1_555
H7_5 C13_5 1_555 1_555
C14_3 N1_3 1_555 1_555
H8_3 C14_3 1_555 1_555
N5_3 Cd3_2 1_555 1_555
Cd4 N1_3 1_555 1_555
C5_3 C11_5 1_555 1_555
C9_3 C14_3 1_555 1_555
C12_3 C13_5 1_555 1_555
O1_6 C2_6 1_555 1_555
O5 C2_6 1_555 1_555
C2_6 C8_6 1_555 1_555
N4_6 S1_4 1_555 1_555
N4_6 C8_6 1_555 1_555
N1_4 C1_6 1_555 1_555
C1_6 H1_6 1_555 1_555
O6_4 C3_6 1_555 1_555
O4_6 C3_6 1_555 1_555
C3_6 C4_6 1_555 1_555
C4_6 N2_6 1_555 1_555
N2_6 Cd3 1_555 1_555
N3_6 Cd3 1_555 1_555
C5_4 C7_4 1_555 1_555
C6_6 N3_6 1_555 1_555
H2_6 C6_6 1_555 1_555
C7_4 C10_6 1_555 1_555
C9_4 C5_4 1_555 1_555
H3_4 C9_4 1_555 1_555
C10_6 C6_6 1_555 1_555
H4_4 C10_6 1_555 1_555
C11_6 C1_6 1_555 1_555
H5_6 C11_6 1_555 1_555
C12_4 C7_4 1_555 1_555
H6_4 C12_4 1_555 1_555
C13_6 N3_6 1_555 1_555
H7_6 C13_6 1_555 1_555
C14_4 N1_4 1_555 1_555
H8_4 C14_4 1_555 1_555
N5_4 Cd3 1_555 1_555
Cd4_2 N1_4 1_555 1_555
C5_4 C11_6 1_555 1_555
C9_4 C14_4 1_555 1_555
C12_4 C13_6 1_555 1_555
O1_7 C2_7 1_555 1_555
O5_4 C2_7 1_555 1_555
C2_7 C8_7 1_555 1_555
O6 C3_7 1_555 1_555
O4_7 C3_7 1_555 1_555
C3_7 C4_7 1_555 1_555
C8_7 C4_7 1_555 1_555
N4_7 C8_7 1_555 1_555
S1_5 N2_7 1_555 1_555
N2_7 Cd4 1_555 1_555
N3_7 Cd4 1_555 1_555
C6_7 N3_7 1_555 1_555
H2_7 C6_7 1_555 1_555
C10_7 C6_7 1_555 1_555
C13_7 N3_7 1_555 1_555
H7_7 C13_7 1_555 1_555
N5_3 C1_7 1_555 1_555
C1_7 H1_7 1_555 1_555
C11_7 C1_7 1_555 1_555
H5_7 C11_7 1_555 1_555
N5_4 C1_8 1_555 1_555
C1_8 H1_8 1_555 1_555
C11_8 C1_8 1_555 1_555
H5_8 C11_8 1_555 1_555
O1_8 C2_8 1_555 1_555
O5_3 C2_8 1_555 1_555
C2_8 C8_8 1_555 1_555
O6_2 C3_8 1_555 1_555
O4_8 C3_8 1_555 1_555
C3_8 C4_8 1_555 1_555
C4_8 N2_8 1_555 1_555
S1_6 N2_8 1_555 1_555
N2_8 Cd4_2 1_555 1_555
N3_8 Cd4_2 1_555 1_555
C6_8 N3_8 1_555 1_555
H2_8 C6_8 1_555 1_555
N4_8 S1_6 1_555 1_555
C8_8 C4_8 1_555 1_555
C10_8 C6_8 1_555 1_555
C13_8 N3_8 1_555 1_555
H7_8 C13_8 1_555 1_555
N4_8 C8_8 1_555 1_555
C5_5 C7_5 1_555 1_555
C9_5 C5_5 1_555 1_555
H3_5 C9_5 1_555 1_555
C12_5 C7_5 1_555 1_555
H6_5 C12_5 1_555 1_555
H8_5 C14_5 1_555 1_555
C9_5 C14_5 1_555 1_555
C5_6 C7_6 1_555 1_555
C9_6 C5_6 1_555 1_555
H3_6 C9_6 1_555 1_555
C12_6 C7_6 1_555 1_555
H6_6 C12_6 1_555 1_555
H8_6 C14_6 1_555 1_555
C9_6 C14_6 1_555 1_555
C5_7 C7_7 1_555 1_555
C9_7 C5_7 1_555 1_555
H3_7 C9_7 1_555 1_555
C12_7 C7_7 1_555 1_555
H6_7 C12_7 1_555 1_555
H8_7 C14_7 1_555 1_555
C9_7 C14_7 1_555 1_555
C5_8 C7_8 1_555 1_555
C9_8 C5_8 1_555 1_555
H3_8 C9_8 1_555 1_555
C12_8 C7_8 1_555 1_555
H6_8 C12_8 1_555 1_555
H8_8 C14_8 1_555 1_555
C9_8 C14_8 1_555 1_555

#END
