
###############################################################################
#
# This file contains modified crystal structure data generated from the
# MOF subset of the Cambridge Structural Database (CSD) v543 
# hosted by the Cambridge Crystallographic Data Centre (CCDC).
#
# This work is licensed under the Creative Commons
# Attribution-NonCommercial-ShareAlike 4.0 International License.
# To view a copy of this license, visit
# http://creativecommons.org/licenses/by-nc-sa/4.0/
# or send a letter to
# Creative Commons, PO Box 1866, Mountain View, CA 94042, USA.
#
# CIF created using the CSD Python API on 29 September 2022
# The structure has been converted into the P1 space group
# The structure has a 3D framework
# The original CSD entry FAHTUE is in the hexagonal crystal system
# The framework has been calculated to contain at least 10.0% void space
# The void calculation uses a probe of radius 1.32A, grid spacing 0.4
# H atom positions have been added when not included in the experimental data
# Generated hydrogen atom positions removed from atoms on special positions
#
###############################################################################

data_FAHTUE
_chemical_formula_moiety         '(C84 H132 Eu2 Mn15 N12 O66)n'
_symmetry_cell_setting           triclinic
_symmetry_space_group_name_H-M   'P 1'
_symmetry_Int_Tables_number      1
_space_group_name_Hall           'P 1'
loop_
_symmetry_equiv_pos_site_id
_symmetry_equiv_pos_as_xyz
1 x,y,z
_cell_length_a                   15.288(3)
_cell_length_b                   15.288(3)
_cell_length_c                   15.663(6)
_cell_angle_alpha                90
_cell_angle_beta                 90
_cell_angle_gamma                120
_cell_volume                     3170.35
loop_
_atom_site_label
_atom_site_type_symbol
_atom_site_fract_x
_atom_site_fract_y
_atom_site_fract_z
O3 O 0.4913(3) 0.1434(3) 0.0000
Mn1 Mn 0.5000 0.0000 0.0000
O28 O 0.6157(3) 0.0633(2) 0.0938(2)
Mn5 Mn 0.5000 0.0000 0.5000
O3_2 O 0.4913(3) 0.1434(3) 1.0000
Mn1_2 Mn 0.5000 0.0000 1.0000
O25 O 0.4476(4) 0.0633(2) 0.4062(2)
O26 O 0.4476(4) 0.0633(2) 0.5938(2)
O27 O 0.6157(3) 0.0633(2) 0.9062(2)
O36 O 0.6521(4) 0.1434(3) 0.5000
N1 N 0.52244(15) 0.76122(15) 0.2500
O1 O 0.4146(2) 0.8012(2) 0.35635(18)
C1 C 0.5739(3) 0.7362(3) 0.1967(3)
C2 C 0.6771(4) 0.7864(4) 0.1951(4)
H1 H 0.7114 0.7675 0.1571
C3 C 0.7288(2) 0.8644(2) 0.2500
H2 H 0.7990 0.8995 0.2500
C4 C 0.5095(3) 0.8612(3) 0.3600(3)
Eu1 Eu 0.3333 0.6667 0.2500
Mn1_3 Mn 0.5000 1.0000 0.0000
N2 N 0.23878(15) 0.76122(21) 0.2500
N3 N 0.23878(21) 0.47756(15) 0.2500
N7 N 0.47756(15) 0.23878(15) 0.2500
O4 O 0.3866(3) 0.8012(2) 0.14365(18)
O5 O 0.3866(3) 0.5854(2) 0.35635(18)
O8 O 0.4146(2) 0.6134(3) 0.14365(18)
O9 O 0.1988(2) 0.5854(2) 0.14365(18)
O14 O 0.1988(2) 0.6134(3) 0.35635(18)
O15 O 0.5854(2) 0.3866(3) 0.14365(18)
O17 O 0.5854(2) 0.1988(2) 0.35635(18)
O19 O 0.3843(3) 0.9367(2) 0.0938(2)
O21 O 0.5524(4) 0.6157(3) 0.0938(2)
O29 O 0.4476(4) 0.3843(3) 0.0938(2)
O31 O 0.5524(4) 0.9367(2) 0.4062(2)
O38 O 0.5087(3) 0.8566(3) 0.0000
O39 O 0.6521(4) 0.5087(3) 0.0000
O40 O 0.3479(4) 0.4913(3) 0.0000
C5 C 0.5739(3) 0.8377(4) 0.3033(3)
C12 C 0.4261(3) 0.2638(3) 0.1967(3)
C14 C 0.4261(3) 0.1623(4) 0.3033(3)
C16 C 0.6771(4) 0.8907(6) 0.3049(4)
C23 C 0.3229(4) 0.2136(4) 0.1951(4)
C25 C 0.3229(4) 0.1093(6) 0.3049(4)
H3 H 0.7114 0.9439 0.3429
H10 H 0.2886 0.2325 0.1571
H12 H 0.2886 0.0561 0.3429
C30 C 0.2712(2) 0.1356(2) 0.2500
H17 H 0.2010 0.1005 0.2500
C34 C 0.5095(3) 0.6483(4) 0.1400(3)
C39 C 0.4905(3) 0.3517(4) 0.1400(3)
C41 C 0.4905(3) 0.1388(3) 0.3600(3)
Eu3 Eu 0.6667 0.3334 0.2500
Mn2 Mn 0.5000 0.5000 0.0000
Mn3 Mn 0.0000 0.5000 0.0000
Mn5_2 Mn 0.5000 1.0000 0.5000
O2 O 0.3843(3) 0.9367(2) 0.9062(2)
Mn1_4 Mn 0.5000 1.0000 1.0000
N4 N 0.23878(21) 0.76122(15) 0.7500
N5 N 0.52244(15) 0.76122(15) 0.7500
N6 N 0.23878(21) 0.47756(15) 0.7500
N8 N 0.47756(15) 0.23878(15) 0.7500
O6 O 0.3866(3) 0.8012(2) 0.85635(18)
O7 O 0.4146(2) 0.6134(3) 0.85635(18)
O10 O 0.1988(2) 0.5854(2) 0.85635(18)
O11 O 0.4146(2) 0.8012(2) 0.64365(18)
O12 O 0.3866(3) 0.5854(2) 0.64365(18)
O13 O 0.1988(2) 0.6134(3) 0.64365(18)
O16 O 0.5854(2) 0.3866(3) 0.85635(18)
O18 O 0.5854(2) 0.1988(2) 0.64365(18)
O20 O 0.5524(4) 0.6157(3) 0.9062(2)
O22 O 0.0633(2) 0.4476(4) 0.9062(2)
O23 O 0.5524(4) 0.9367(2) 0.5938(2)
O30 O 0.4476(4) 0.3843(3) 0.9062(2)
O32 O 0.3843(3) 0.4476(4) 0.5938(2)
O33 O 0.0633(2) 0.6157(3) 0.5938(2)
O37 O 0.3479(4) 0.8566(3) 0.5000
O38_2 O 0.5087(3) 0.8566(3) 1.0000
O39_2 O 0.6521(4) 0.5087(3) 1.0000
O40_2 O 0.3479(4) 0.4913(3) 1.0000
C6 C 0.5739(3) 0.8377(4) 0.6967(3)
C7 C 0.1623(4) 0.4261(3) 0.8033(3)
C8 C 0.5739(3) 0.7362(3) 0.8033(3)
C9 C 0.2638(3) 0.8377(4) 0.8033(3)
C10 C 0.1623(4) 0.7362(3) 0.6967(3)
C11 C 0.2638(3) 0.4261(3) 0.6967(3)
C13 C 0.4261(3) 0.2638(3) 0.8033(3)
C15 C 0.4261(3) 0.1623(4) 0.6967(3)
C17 C 0.2136(4) 0.8907(6) 0.8049(4)
C18 C 0.6771(4) 0.7864(4) 0.8049(4)
C19 C 0.6771(4) 0.8907(6) 0.6951(4)
C20 C 0.1093(6) 0.3229(4) 0.8049(4)
C21 C 0.2136(4) 0.3229(4) 0.6951(4)
C22 C 0.1093(6) 0.7864(4) 0.6951(4)
C24 C 0.3229(4) 0.2136(4) 0.8049(4)
C26 C 0.3229(4) 0.1093(6) 0.6951(4)
H4 H 0.2325 0.9439 0.8429
H5 H 0.7114 0.7675 0.8429
H6 H 0.7114 0.9439 0.6571
H7 H 0.0561 0.2886 0.8429
H8 H 0.2325 0.2886 0.6571
H9 H 0.0561 0.7675 0.6571
H11 H 0.2886 0.2325 0.8429
H13 H 0.2886 0.0561 0.6571
C27 C 0.1356(3) 0.8644(2) 0.7500
C28 C 0.7288(2) 0.8644(2) 0.7500
C29 C 0.1356(3) 0.2712(2) 0.7500
C31 C 0.2712(2) 0.1356(2) 0.7500
H14 H 0.1005 0.8995 0.7500
H15 H 0.7990 0.8995 0.7500
H16 H 0.1005 0.2010 0.7500
H18 H 0.2010 0.1005 0.7500
C32 C 0.3517(4) 0.8612(3) 0.8600(3)
C33 C 0.5095(3) 0.6483(4) 0.8600(3)
C35 C 0.1388(3) 0.4905(3) 0.8600(3)
C36 C 0.5095(3) 0.8612(3) 0.6400(3)
C37 C 0.3517(4) 0.4905(3) 0.6400(3)
C38 C 0.1388(3) 0.6483(4) 0.6400(3)
C40 C 0.4905(3) 0.3517(4) 0.8600(3)
C42 C 0.4905(3) 0.1388(3) 0.6400(3)
Eu2 Eu 0.3333 0.6667 0.7500
Eu4 Eu 0.6667 0.3333 0.7500
Mn2_2 Mn 0.5000 0.5000 1.0000
Mn3_2 Mn 0.0000 0.5000 1.0000
Mn6 Mn 0.5000 0.5000 0.5000
Mn7 Mn -0.0000 0.5000 0.5000
Mn3_3 Mn 1.0000 0.5000 0.0000
Mn3_4 Mn 1.0000 0.5000 1.0000
Mn7_2 Mn 1.0000 0.5000 0.5000
N7_2 N 0.76122(15) 0.23878(21) 0.2500
O15_2 O 0.6134(3) 0.1988(4) 0.14365(18)
O17_2 O 0.8012(2) 0.3866(3) 0.35635(18)
O34 O 0.9367(2) 0.3843(4) 0.4062(2)
C12_2 C 0.7362(3) 0.1623(4) 0.1967(3)
C14_2 C 0.8377(4) 0.2638(5) 0.3033(3)
C23_2 C 0.7864(4) 0.1093(6) 0.1951(4)
C25_2 C 0.8907(6) 0.2136(7) 0.3049(4)
H10_2 H 0.7675 0.0561 0.1571
H12_2 H 0.9439 0.2325 0.3429
C30_2 C 0.8644(2) 0.1356(3) 0.2500
H17_2 H 0.8995 0.1005 0.2500
C39_2 C 0.6483(4) 0.1388(5) 0.1400(3)
C41_2 C 0.8612(3) 0.3517(4) 0.3600(3)
N8_2 N 0.76122(15) 0.23878(21) 0.7500
O16_2 O 0.6134(3) 0.1988(4) 0.85635(18)
O18_2 O 0.8012(2) 0.3866(3) 0.64365(18)
O35 O 0.9367(2) 0.3843(4) 0.5938(2)
C13_2 C 0.7362(3) 0.1623(4) 0.8033(3)
C15_2 C 0.8377(4) 0.2638(5) 0.6967(3)
C24_2 C 0.7864(4) 0.1093(6) 0.8049(4)
C26_2 C 0.8907(6) 0.2136(7) 0.6951(4)
H11_2 H 0.7675 0.0561 0.8429
H13_2 H 0.9439 0.2325 0.6571
C31_2 C 0.8644(2) 0.1356(3) 0.7500
H18_2 H 0.8995 0.1005 0.7500
C40_2 C 0.6483(4) 0.1388(5) 0.8600(3)
C42_2 C 0.8612(3) 0.3517(4) 0.6400(3)
C1_2 C 0.2638(3) 0.8377(4) 0.1967(3)
C2_2 C 0.2136(4) 0.8907(6) 0.1951(4)
H1_2 H 0.2325 0.9439 0.1571
C3_2 C 0.1356(2) 0.8644(3) 0.2500
H2_2 H 0.1005 0.8995 0.2500
C4_2 C 0.1388(3) 0.6483(4) 0.3600(3)
O19_2 O 0.0633(2) 0.4476(4) 0.0938(2)
O31_2 O 0.0633(2) 0.6157(4) 0.4062(2)
O38_3 O 0.1434(3) 0.6521(4) 0.0000
C5_2 C 0.1623(4) 0.7362(5) 0.3033(3)
C16_2 C 0.1093(6) 0.7864(7) 0.3049(4)
H3_2 H 0.0561 0.7675 0.3429
C34_2 C 0.3517(4) 0.8612(5) 0.1400(3)
O37_2 O 0.1434(3) 0.4913(5) 0.5000
O38_4 O 0.1434(3) 0.6521(4) 1.0000
O3_3 O 0.8566(3) 0.3479(4) 0.0000
O28_2 O 0.9367(2) 0.5524(4) 0.0938(2)
O3_4 O 0.8566(3) 0.3479(4) 1.0000
O27_2 O 0.9367(2) 0.5524(4) 0.9062(2)
O36_2 O 0.8566(3) 0.5087(5) 0.5000
C1_3 C 0.1623(4) 0.4261(3) 0.1967(3)
C2_3 C 0.1093(6) 0.3229(4) 0.1951(4)
H1_3 H 0.0561 0.2886 0.1571
C3_3 C 0.1356(3) 0.2712(2) 0.2500
H2_3 H 0.1005 0.2010 0.2500
C4_3 C 0.3517(4) 0.4905(3) 0.3600(3)
O31_3 O 0.3843(4) 0.4476(4) 0.4062(2)
C5_3 C 0.2638(5) 0.4261(3) 0.3033(3)
C16_3 C 0.2136(7) 0.3229(4) 0.3049(4)
H3_3 H 0.2325 0.2886 0.3429
C34_3 C 0.1388(5) 0.4905(3) 0.1400(3)
O25_2 O 0.6157(4) 0.5524(4) 0.4062(2)
O26_2 O 0.6157(4) 0.5524(4) 0.5938(2)
O36_3 O 0.4913(5) 0.3479(4) 0.5000
O37_3 O 0.5087(5) 0.6521(4) 0.5000
N7_3 N 0.76122(21) 0.52244(15) 0.2500
O15_3 O 0.8012(4) 0.4146(2) 0.14365(18)
O17_3 O 0.6134(3) 0.4146(2) 0.35635(18)
C12_3 C 0.8377(4) 0.5739(3) 0.1967(3)
C14_3 C 0.7362(5) 0.5739(3) 0.3033(3)
C23_3 C 0.8907(6) 0.6771(4) 0.1951(4)
C25_3 C 0.7864(7) 0.6771(4) 0.3049(4)
H10_3 H 0.9439 0.7114 0.1571
H12_3 H 0.7675 0.7114 0.3429
C30_3 C 0.8644(3) 0.7288(2) 0.2500
H17_3 H 0.8995 0.7990 0.2500
C39_3 C 0.8612(5) 0.5095(3) 0.1400(3)
C41_3 C 0.6483(4) 0.5095(3) 0.3600(3)
N8_3 N 0.76122(21) 0.52244(15) 0.7500
O16_3 O 0.8012(4) 0.4146(2) 0.85635(18)
O18_3 O 0.6134(3) 0.4146(2) 0.64365(18)
C13_3 C 0.8377(4) 0.5739(3) 0.8033(3)
C15_3 C 0.7362(5) 0.5739(3) 0.6967(3)
C24_3 C 0.8907(6) 0.6771(4) 0.8049(4)
C26_3 C 0.7864(7) 0.6771(4) 0.6951(4)
H11_3 H 0.9439 0.7114 0.8429
H13_3 H 0.7675 0.7114 0.6571
C31_3 C 0.8644(3) 0.7288(2) 0.7500
H18_3 H 0.8995 0.7990 0.7500
C40_3 C 0.8612(5) 0.5095(3) 0.8600(3)
C42_3 C 0.6483(4) 0.5095(3) 0.6400(3)
loop_
_geom_bond_atom_site_label_1
_geom_bond_atom_site_label_2
_geom_bond_site_symmetry_1
_geom_bond_site_symmetry_2
O3 Mn1 1_555 1_555
O28 Mn1 1_555 1_555
O3_2 Mn1_2 1_555 1_555
O25 Mn5 1_555 1_555
O26 Mn5 1_555 1_555
O27 Mn1_2 1_555 1_555
O36 Mn5 1_555 1_555
N1 C1 1_555 1_555
O1 C4 1_555 1_555
C1 C2 1_555 1_555
C2 H1 1_555 1_555
C3 C2 1_555 1_555
H2 C3 1_555 1_555
C4 O31 1_555 1_555
Eu1 N1 1_555 1_555
Mn1_3 O19 1_555 1_555
N2 Eu1 1_555 1_555
N3 Eu1 1_555 1_555
N7 C12 1_555 1_555
O4 Eu1 1_555 1_555
O5 Eu1 1_555 1_555
O8 Eu1 1_555 1_555
O9 Eu1 1_555 1_555
O14 Eu1 1_555 1_555
O15 C39 1_555 1_555
O17 C41 1_555 1_555
O21 C34 1_555 1_555
O29 C39 1_555 1_555
O31 Mn5_2 1_555 1_555
O25 C41 1_555 1_555
O38 Mn1_3 1_555 1_555
O39 Mn2 1_555 1_555
O40 Mn2 1_555 1_555
C5 N1 1_555 1_555
C12 C23 1_555 1_555
C14 N7 1_555 1_555
C16 C3 1_555 1_555
C23 H10 1_555 1_555
C25 C14 1_555 1_555
H3 C16 1_555 1_555
H12 C25 1_555 1_555
C30 C23 1_555 1_555
H17 C30 1_555 1_555
C34 C1 1_555 1_555
C39 C12 1_555 1_555
C41 C14 1_555 1_555
Eu3 N7 1_555 1_555
O1 Eu1 1_555 1_555
C4 C5 1_555 1_555
O8 C34 1_555 1_555
O15 Eu3 1_555 1_555
O17 Eu3 1_555 1_555
O21 Mn2 1_555 1_555
O29 Mn2 1_555 1_555
C5 C16 1_555 1_555
C25 C30 1_555 1_555
O2 Mn1_4 1_555 1_555
N4 C9 1_555 1_555
N5 C6 1_555 1_555
N6 C7 1_555 1_555
N8 C13 1_555 1_555
O6 C32 1_555 1_555
O7 C33 1_555 1_555
O10 C35 1_555 1_555
O11 C36 1_555 1_555
O12 C37 1_555 1_555
O13 C38 1_555 1_555
O16 C40 1_555 1_555
O18 C42 1_555 1_555
O20 C33 1_555 1_555
O22 C35 1_555 1_555
O23 C36 1_555 1_555
O30 C40 1_555 1_555
O32 C37 1_555 1_555
O33 C38 1_555 1_555
O26 C42 1_555 1_555
O37 Mn5_2 1_555 1_555
O38_2 Mn1_4 1_555 1_555
O39_2 Mn2_2 1_555 1_555
O40_2 Mn2_2 1_555 1_555
C6 C19 1_555 1_555
C7 C20 1_555 1_555
C8 N5 1_555 1_555
C9 C17 1_555 1_555
C10 N4 1_555 1_555
C11 N6 1_555 1_555
C13 C24 1_555 1_555
C15 N8 1_555 1_555
C17 H4 1_555 1_555
C18 C8 1_555 1_555
C19 H6 1_555 1_555
C20 H7 1_555 1_555
C21 C11 1_555 1_555
C22 C10 1_555 1_555
C24 H11 1_555 1_555
C26 C15 1_555 1_555
H5 C18 1_555 1_555
H8 C21 1_555 1_555
H9 C22 1_555 1_555
H13 C26 1_555 1_555
C27 C17 1_555 1_555
C28 C18 1_555 1_555
C29 C20 1_555 1_555
C31 C24 1_555 1_555
H14 C27 1_555 1_555
H15 C28 1_555 1_555
H16 C29 1_555 1_555
H18 C31 1_555 1_555
C32 O2 1_555 1_555
C33 C8 1_555 1_555
C35 C7 1_555 1_555
C36 C6 1_555 1_555
C37 C11 1_555 1_555
C38 C10 1_555 1_555
C40 C13 1_555 1_555
C42 C15 1_555 1_555
Eu2 N4 1_555 1_555
Eu4 N8 1_555 1_555
Mn2_2 O20 1_555 1_555
Mn3_2 O22 1_555 1_555
Mn5_2 O23 1_555 1_555
Mn6 O32 1_555 1_555
Mn7 O33 1_555 1_555
N5 Eu2 1_555 1_555
N6 Eu2 1_555 1_555
O6 Eu2 1_555 1_555
O7 Eu2 1_555 1_555
O10 Eu2 1_555 1_555
O11 Eu2 1_555 1_555
O12 Eu2 1_555 1_555
O13 Eu2 1_555 1_555
O16 Eu4 1_555 1_555
O18 Eu4 1_555 1_555
O30 Mn2_2 1_555 1_555
C9 C32 1_555 1_555
C19 C28 1_555 1_555
C21 C29 1_555 1_555
C22 C27 1_555 1_555
C26 C31 1_555 1_555
N7_2 C12_2 1_555 1_555
O15_2 C39_2 1_555 1_555
O17_2 C41_2 1_555 1_555
O28 C39_2 1_555 1_555
O34 C41_2 1_555 1_555
C12_2 C23_2 1_555 1_555
C14_2 N7_2 1_555 1_555
C23_2 H10_2 1_555 1_555
C25_2 C14_2 1_555 1_555
H12_2 C25_2 1_555 1_555
C30_2 C23_2 1_555 1_555
H17_2 C30_2 1_555 1_555
C39_2 C12_2 1_555 1_555
C41_2 C14_2 1_555 1_555
Eu3 N7_2 1_555 1_555
Mn7_2 O34 1_555 1_555
O15_2 Eu3 1_555 1_555
O17_2 Eu3 1_555 1_555
C25_2 C30_2 1_555 1_555
N8_2 C13_2 1_555 1_555
O16_2 C40_2 1_555 1_555
O18_2 C42_2 1_555 1_555
O27 C40_2 1_555 1_555
O35 C42_2 1_555 1_555
C13_2 C24_2 1_555 1_555
C15_2 N8_2 1_555 1_555
C24_2 H11_2 1_555 1_555
C26_2 C15_2 1_555 1_555
H13_2 C26_2 1_555 1_555
C31_2 C24_2 1_555 1_555
H18_2 C31_2 1_555 1_555
C40_2 C13_2 1_555 1_555
C42_2 C15_2 1_555 1_555
Eu4 N8_2 1_555 1_555
Mn7_2 O35 1_555 1_555
O16_2 Eu4 1_555 1_555
O18_2 Eu4 1_555 1_555
C26_2 C31_2 1_555 1_555
N2 C1_2 1_555 1_555
O14 C4_2 1_555 1_555
C1_2 C2_2 1_555 1_555
C2_2 H1_2 1_555 1_555
C3_2 C2_2 1_555 1_555
H2_2 C3_2 1_555 1_555
C4_2 O31_2 1_555 1_555
Mn3 O19_2 1_555 1_555
O19 C34_2 1_555 1_555
O31_2 Mn7 1_555 1_555
O38_3 Mn3 1_555 1_555
C5_2 N2 1_555 1_555
C16_2 C3_2 1_555 1_555
H3_2 C16_2 1_555 1_555
C34_2 C1_2 1_555 1_555
C4_2 C5_2 1_555 1_555
O4 C34_2 1_555 1_555
C5_2 C16_2 1_555 1_555
O37_2 Mn7 1_555 1_555
O38_4 Mn3_2 1_555 1_555
O3_3 Mn3_3 1_555 1_555
O28_2 Mn3_3 1_555 1_555
O3_4 Mn3_4 1_555 1_555
O27_2 Mn3_4 1_555 1_555
O36_2 Mn7_2 1_555 1_555
N3 C1_3 1_555 1_555
O5 C4_3 1_555 1_555
C1_3 C2_3 1_555 1_555
C2_3 H1_3 1_555 1_555
C3_3 C2_3 1_555 1_555
H2_3 C3_3 1_555 1_555
C4_3 O31_3 1_555 1_555
O19_2 C34_3 1_555 1_555
O31_3 Mn6 1_555 1_555
C5_3 N3 1_555 1_555
C16_3 C3_3 1_555 1_555
H3_3 C16_3 1_555 1_555
C34_3 C1_3 1_555 1_555
C4_3 C5_3 1_555 1_555
O9 C34_3 1_555 1_555
C5_3 C16_3 1_555 1_555
O25_2 Mn6 1_555 1_555
O26_2 Mn6 1_555 1_555
O36_3 Mn6 1_555 1_555
O37_3 Mn6 1_555 1_555
N7_3 C12_3 1_555 1_555
O15_3 C39_3 1_555 1_555
O17_3 C41_3 1_555 1_555
O28_2 C39_3 1_555 1_555
O25_2 C41_3 1_555 1_555
C12_3 C23_3 1_555 1_555
C14_3 N7_3 1_555 1_555
C23_3 H10_3 1_555 1_555
C25_3 C14_3 1_555 1_555
H12_3 C25_3 1_555 1_555
C30_3 C23_3 1_555 1_555
H17_3 C30_3 1_555 1_555
C39_3 C12_3 1_555 1_555
C41_3 C14_3 1_555 1_555
Eu3 N7_3 1_555 1_555
O15_3 Eu3 1_555 1_555
O17_3 Eu3 1_555 1_555
C25_3 C30_3 1_555 1_555
N8_3 C13_3 1_555 1_555
O16_3 C40_3 1_555 1_555
O18_3 C42_3 1_555 1_555
O27_2 C40_3 1_555 1_555
O26_2 C42_3 1_555 1_555
C13_3 C24_3 1_555 1_555
C15_3 N8_3 1_555 1_555
C24_3 H11_3 1_555 1_555
C26_3 C15_3 1_555 1_555
H13_3 C26_3 1_555 1_555
C31_3 C24_3 1_555 1_555
H18_3 C31_3 1_555 1_555
C40_3 C13_3 1_555 1_555
C42_3 C15_3 1_555 1_555
Eu4 N8_3 1_555 1_555
O16_3 Eu4 1_555 1_555
O18_3 Eu4 1_555 1_555
C26_3 C31_3 1_555 1_555

#END
