
###############################################################################
#
# This file contains modified crystal structure data generated from the
# MOF subset of the Cambridge Structural Database (CSD) v543 
# hosted by the Cambridge Crystallographic Data Centre (CCDC).
#
# This work is licensed under the Creative Commons
# Attribution-NonCommercial-ShareAlike 4.0 International License.
# To view a copy of this license, visit
# http://creativecommons.org/licenses/by-nc-sa/4.0/
# or send a letter to
# Creative Commons, PO Box 1866, Mountain View, CA 94042, USA.
#
# CIF created using the CSD Python API on 29 September 2022
# The structure has been converted into the P1 space group
# The structure has a 3D framework
# The original CSD entry FAJLAH is in the monoclinic crystal system
# The framework has been calculated to contain at least 10.0% void space
# The void calculation uses a probe of radius 1.32A, grid spacing 0.4
#
###############################################################################

data_FAJLAH
_chemical_formula_moiety         '(C104 H60 F24 N8 O16 Zn4)n'
_symmetry_cell_setting           triclinic
_symmetry_space_group_name_H-M   'P 1'
_symmetry_Int_Tables_number      1
_space_group_name_Hall           'P 1'
loop_
_symmetry_equiv_pos_site_id
_symmetry_equiv_pos_as_xyz
1 x,y,z
_cell_length_a                   15.785(3)
_cell_length_b                   7.8990(16)
_cell_length_c                   22.854(5)
_cell_angle_alpha                90
_cell_angle_beta                 100.66(3)
_cell_angle_gamma                90
_cell_volume                     2800.39
loop_
_atom_site_label
_atom_site_type_symbol
_atom_site_fract_x
_atom_site_fract_y
_atom_site_fract_z
C22 C 0.0334(16) 0.016(3) 0.4464(14)
H13 H 0.0535 0.0271 0.4108
Zn5 Zn 0.56046(10) 0.1447(2) 0.00762(8)
Zn6 Zn 0.56046(10) 0.8553(2) 0.50762(8)
O10 O 0.3941(7) 0.9753(16) 0.5455(6)
O11 O 0.3953(7) 0.9917(14) 0.4226(6)
N3 N 0.6621(8) 0.6989(15) 0.5179(6)
C27 C 0.7958(11) 0.474(3) 0.5268(14)
C28 C 0.6563(10) 0.541(2) 0.5286(9)
H16 H 0.6038 0.4994 0.5353
C29 C 0.7258(11) 0.425(2) 0.5306(9)
H17 H 0.7165 0.3100 0.5351
C30 C 0.8736(16) 0.366(4) 0.5169(16)
H18 H 0.9219 0.4141 0.5058
C31 C 0.8038(14) 0.648(3) 0.5021(14)
H19 H 0.8507 0.6792 0.4853
N4 N 0.8684(12) 0.217(3) 0.5244(12)
C33 C 0.9351(16) 0.107(3) 0.5120(13)
C34 C 0.7379(12) 0.757(3) 0.5059(13)
H21 H 0.7451 0.8722 0.5003
C35 C 0.9712(17) 0.122(4) 0.4604(14)
H22 H 0.9515 0.2088 0.4340
O6 O 0.3953(7) 0.0083(14) 0.9226(6)
O7 O 0.4828(7) 0.2334(15) 0.9328(5)
F7 F 0.0678(7) 0.305(2) 0.6919(7)
F8 F 0.1865(8) 0.738(2) 0.7690(6)
F9 F 0.1731(8) 0.243(2) 0.6477(6)
F10 F 0.1008(7) 0.536(2) 0.7800(7)
F11 F 0.0741(8) 0.694(2) 0.7012(8)
F12 F 0.0921(7) 0.453(2) 0.6177(6)
C36 C 0.2881(12) 0.827(2) 0.6178(9)
H23 H 0.2789 0.9398 0.6063
C37 C 0.1965(11) 0.488(3) 0.7054(11)
C38 C 0.3564(9) 0.737(2) 0.6010(8)
C39 C 0.4147(11) 0.826(3) 0.5630(8)
C40 C 0.3613(10) 0.239(2) 0.8548(8)
C41 C 0.1337(15) 0.380(5) 0.6675(12)
C42 C 0.2873(12) 0.158(3) 0.8263(9)
H24 H 0.2731 0.0522 0.8396
C43 C 0.3685(9) 0.575(2) 0.6180(9)
H25 H 0.4134 0.5146 0.6065
C44 C 0.3250(13) 0.473(3) 0.7927(12)
H26 H 0.3366 0.5843 0.7836
C45 C 0.2339(11) 0.750(3) 0.6513(8)
H27 H 0.1891 0.8108 0.6626
C46 C 0.4167(11) 0.155(3) 0.9068(9)
C47 C 0.3151(11) 0.490(2) 0.6532(9)
H28 H 0.3268 0.3790 0.6653
C48 C 0.2324(12) 0.235(3) 0.7769(9)
H29 H 0.1839 0.1781 0.7572
C49 C 0.2510(12) 0.390(3) 0.7591(11)
C50 C 0.3778(10) 0.395(3) 0.8366(10)
H30 H 0.4276 0.4499 0.8552
C51 C 0.2471(11) 0.574(3) 0.6686(9)
C52 C 0.1395(16) 0.616(4) 0.7409(13)
O8 O 0.4808(7) 0.7444(15) 0.5558(5)
O13 O 0.4828(7) 0.7666(15) 0.4328(5)
O9 O 0.3941(7) 0.0247(16) 0.0455(6)
C32 C 0.0334(16) 0.984(3) 0.9464(14)
H20 H 0.0535 0.9729 0.9108
N1 N 0.6621(8) 0.3011(15) 0.0179(6)
F1 F 0.0678(7) 0.695(2) 0.1919(7)
F2 F 0.1865(8) 0.262(2) 0.2690(6)
F3 F 0.1731(8) 0.757(2) 0.1477(6)
F4 F 0.1008(7) 0.464(2) 0.2800(7)
F5 F 0.0741(8) 0.306(2) 0.2012(8)
F6 F 0.0921(7) 0.547(2) 0.1177(6)
C1 C 0.2881(12) 0.173(2) 0.1178(9)
H1 H 0.2789 0.0602 0.1063
C2 C 0.1965(11) 0.512(3) 0.2054(11)
C3 C 0.3564(9) 0.263(2) 0.1010(8)
C4 C 0.4147(11) 0.174(3) 0.0630(8)
C5 C 0.3613(10) 0.761(2) 0.3548(8)
C6 C 0.1337(15) 0.620(5) 0.1675(12)
C7 C 0.2873(12) 0.842(3) 0.3263(9)
H2 H 0.2731 0.9478 0.3396
C8 C 0.7958(11) 0.526(3) 0.0268(14)
C9 C 0.3685(9) 0.425(2) 0.1180(9)
H3 H 0.4134 0.4854 0.1065
C10 C 0.3250(13) 0.527(3) 0.2927(12)
H4 H 0.3366 0.4157 0.2836
C11 C 0.6563(10) 0.459(2) 0.0286(9)
H5 H 0.6038 0.5006 0.0353
C12 C 0.2339(11) 0.250(3) 0.1513(8)
H6 H 0.1891 0.1892 0.1626
C13 C 0.4167(11) 0.845(3) 0.4068(9)
C14 C 0.3151(11) 0.510(2) 0.1532(9)
H7 H 0.3268 0.6210 0.1653
C15 C 0.2324(12) 0.765(3) 0.2769(9)
H8 H 0.1839 0.8219 0.2572
C16 C 0.2510(12) 0.610(3) 0.2591(11)
C17 C 0.7258(11) 0.575(2) 0.0306(9)
H9 H 0.7165 0.6900 0.0351
C18 C 0.3778(10) 0.605(3) 0.3366(10)
H10 H 0.4276 0.5501 0.3552
C19 C 0.2471(11) 0.426(3) 0.1686(9)
C20 C 0.8736(16) 0.634(4) 0.0169(16)
H11 H 0.9219 0.5859 0.0058
C21 C 0.8038(14) 0.352(3) 0.0021(14)
N2 N 0.8684(12) 0.783(3) 0.0244(12)
C23 C 0.9351(16) 0.893(3) 0.0120(13)
C24 C 0.7379(12) 0.243(3) 0.0059(13)
H14 H 0.7451 0.1278 0.0003
C26 C 0.1395(16) 0.384(4) 0.2409(13)
O4 O 0.4808(7) 0.2556(15) 0.0558(5)
H12 H 0.8507 0.3208 0.9853
C25 C 0.9712(17) 0.878(4) 0.9604(14)
H15 H 0.9515 0.7912 0.9340
Zn1 Zn 0.43954(10) 0.1447(2) 0.49238(8)
O1 O 0.6059(7) 0.0247(16) 0.4545(6)
O2 O 0.6047(7) 0.9917(14) 0.0774(6)
O3 O 0.5172(7) 0.7666(15) 0.0672(5)
N1_2 N 0.3379(8) 0.3011(15) 0.4821(6)
F1_2 F 0.9322(7) 0.695(2) 0.3081(7)
F2_2 F 0.8135(8) 0.262(2) 0.2310(6)
F3_2 F 0.8269(8) 0.757(2) 0.3523(6)
F4_2 F 0.8992(7) 0.464(2) 0.2200(7)
F5_2 F 0.9259(8) 0.306(2) 0.2988(8)
F6_2 F 0.9079(7) 0.547(2) 0.3823(6)
C1_2 C 0.7119(12) 0.173(2) 0.3822(9)
H1_2 H 0.7211 0.0602 0.3937
C2_2 C 0.8035(11) 0.512(3) 0.2946(11)
C3_2 C 0.6436(9) 0.263(2) 0.3990(8)
C4_2 C 0.5853(11) 0.174(3) 0.4370(8)
C5_2 C 0.6387(10) 0.761(2) 0.1452(8)
C6_2 C 0.8663(15) 0.620(5) 0.3325(12)
C7_2 C 0.7127(12) 0.842(3) 0.1737(9)
H2_2 H 0.7269 0.9478 0.1604
C8_2 C 0.2042(11) 0.526(3) 0.4732(14)
C9_2 C 0.6315(9) 0.425(2) 0.3820(9)
H3_2 H 0.5866 0.4854 0.3935
C10_2 C 0.6750(13) 0.527(3) 0.2073(12)
H4_2 H 0.6634 0.4157 0.2164
C11_2 C 0.3437(10) 0.459(2) 0.4714(9)
H5_2 H 0.3962 0.5006 0.4647
C12_2 C 0.7661(11) 0.250(3) 0.3487(8)
H6_2 H 0.8109 0.1892 0.3374
C13_2 C 0.5833(11) 0.845(3) 0.0932(9)
C14_2 C 0.6849(11) 0.510(2) 0.3468(9)
H7_2 H 0.6732 0.6210 0.3347
C15_2 C 0.7676(12) 0.765(3) 0.2231(9)
H8_2 H 0.8161 0.8219 0.2428
C16_2 C 0.7490(12) 0.610(3) 0.2409(11)
C17_2 C 0.2742(11) 0.575(2) 0.4694(9)
H9_2 H 0.2835 0.6900 0.4649
C18_2 C 0.6222(10) 0.605(3) 0.1634(10)
H10_2 H 0.5724 0.5501 0.1448
C19_2 C 0.7529(11) 0.426(3) 0.3314(9)
C20_2 C 0.1264(16) 0.634(4) 0.4831(16)
H11_2 H 0.0781 0.5859 0.4942
C21_2 C 0.1962(14) 0.352(3) 0.4979(14)
H12_2 H 0.1493 0.3208 0.5147
N2_2 N 0.1316(12) 0.783(3) 0.4756(12)
C23_2 C 0.0649(16) 0.893(3) 0.4880(13)
C24_2 C 0.2621(12) 0.243(3) 0.4941(13)
H14_2 H 0.2549 0.1278 0.4997
C25_2 C 0.0288(17) 0.878(4) 0.5396(14)
H15_2 H 0.0485 0.7912 0.5660
C26_2 C 0.8605(16) 0.384(4) 0.2591(13)
O4_2 O 0.5192(7) 0.2556(15) 0.4442(5)
O14 O 0.5172(7) 0.2334(15) 0.5672(5)
Zn8 Zn 0.43954(10) 0.8553(2) 0.99238(8)
O12 O 0.6047(7) 0.0083(14) 0.5774(6)
C32_2 C 0.9666(16) 0.984(3) 0.5536(14)
H20_2 H 0.9465 0.9729 0.5892
H19_2 H 0.1493 0.6792 0.0147
C35_2 C 0.0288(17) 0.122(4) 0.0396(14)
H22_2 H 0.0485 0.2088 0.0660
N3_2 N 0.3379(8) 0.6989(15) 0.9821(6)
C27_2 C 0.2042(11) 0.474(3) 0.9732(14)
C28_2 C 0.3437(10) 0.541(2) 0.9714(9)
H16_2 H 0.3962 0.4994 0.9647
C29_2 C 0.2742(11) 0.425(2) 0.9694(9)
H17_2 H 0.2835 0.3100 0.9649
C30_2 C 0.1264(16) 0.366(4) 0.9831(16)
H18_2 H 0.0781 0.4141 0.9942
C31_2 C 0.1962(14) 0.648(3) 0.9979(14)
N4_2 N 0.1316(12) 0.217(3) 0.9756(12)
C33_2 C 0.0649(16) 0.107(3) 0.9880(13)
C34_2 C 0.2621(12) 0.757(3) 0.9941(13)
H21_2 H 0.2549 0.8722 0.9997
O5 O 0.6059(7) 0.9753(16) 0.9545(6)
F7_2 F 0.9322(7) 0.305(2) 0.8081(7)
F8_2 F 0.8135(8) 0.738(2) 0.7310(6)
F9_2 F 0.8269(8) 0.243(2) 0.8523(6)
F10_2 F 0.8992(7) 0.536(2) 0.7200(7)
F11_2 F 0.9259(8) 0.694(2) 0.7988(8)
F12_2 F 0.9079(7) 0.453(2) 0.8823(6)
C36_2 C 0.7119(12) 0.827(2) 0.8822(9)
H23_2 H 0.7211 0.9398 0.8937
C37_2 C 0.8035(11) 0.488(3) 0.7946(11)
C38_2 C 0.6436(9) 0.737(2) 0.8990(8)
C39_2 C 0.5853(11) 0.826(3) 0.9370(8)
C40_2 C 0.6387(10) 0.239(2) 0.6452(8)
C41_2 C 0.8663(15) 0.380(5) 0.8325(12)
C42_2 C 0.7127(12) 0.158(3) 0.6737(9)
H24_2 H 0.7269 0.0522 0.6604
C43_2 C 0.6315(9) 0.575(2) 0.8820(9)
H25_2 H 0.5866 0.5146 0.8935
C44_2 C 0.6750(13) 0.473(3) 0.7073(12)
H26_2 H 0.6634 0.5843 0.7164
C45_2 C 0.7661(11) 0.750(3) 0.8487(8)
H27_2 H 0.8109 0.8108 0.8374
C46_2 C 0.5833(11) 0.155(3) 0.5932(9)
C47_2 C 0.6849(11) 0.490(2) 0.8468(9)
H28_2 H 0.6732 0.3790 0.8347
C48_2 C 0.7676(12) 0.235(3) 0.7231(9)
H29_2 H 0.8161 0.1781 0.7428
C49_2 C 0.7490(12) 0.390(3) 0.7409(11)
C50_2 C 0.6222(10) 0.395(3) 0.6634(10)
H30_2 H 0.5724 0.4499 0.6448
C51_2 C 0.7529(11) 0.574(3) 0.8314(9)
C52_2 C 0.8605(16) 0.616(4) 0.7591(13)
O8_2 O 0.5192(7) 0.7444(15) 0.9442(5)
C22_2 C 0.9666(16) 0.016(3) 0.0536(14)
H13_2 H 0.9465 0.0271 0.0892
loop_
_geom_bond_atom_site_label_1
_geom_bond_atom_site_label_2
_geom_bond_site_symmetry_1
_geom_bond_site_symmetry_2
C22 H13 1_555 1_555
N3 C28 1_555 1_555
C27 C29 1_555 1_555
C28 H16 1_555 1_555
C29 C28 1_555 1_555
H17 C29 1_555 1_555
C30 C27 1_555 1_555
H18 C30 1_555 1_555
C31 C27 1_555 1_555
H19 C31 1_555 1_555
N4 C30 1_555 1_555
C33 N4 1_555 1_555
C34 N3 1_555 1_555
H21 C34 1_555 1_555
H22 C35 1_555 1_555
Zn6 N3 1_555 1_555
O10 C39 1_555 1_555
O6 C46 1_555 1_555
O7 C46 1_555 1_555
F7 C41 1_555 1_555
F8 C52 1_555 1_555
F9 C41 1_555 1_555
F10 C52 1_555 1_555
F11 C52 1_555 1_555
F12 C41 1_555 1_555
C36 H23 1_555 1_555
C37 C41 1_555 1_555
C38 C36 1_555 1_555
C39 C38 1_555 1_555
C40 C42 1_555 1_555
C42 H24 1_555 1_555
C43 C38 1_555 1_555
H25 C43 1_555 1_555
C44 H26 1_555 1_555
C45 C36 1_555 1_555
H27 C45 1_555 1_555
C46 C40 1_555 1_555
C47 C43 1_555 1_555
H28 C47 1_555 1_555
C48 C42 1_555 1_555
H29 C48 1_555 1_555
C49 C37 1_555 1_555
C50 C40 1_555 1_555
H30 C50 1_555 1_555
C51 C37 1_555 1_555
C52 C37 1_555 1_555
O8 Zn6 1_555 1_555
O13 Zn6 1_555 1_555
C31 C34 1_555 1_555
C33 C35 1_555 1_555
C39 O8 1_555 1_555
C44 C49 1_555 1_555
C44 C50 1_555 1_555
C45 C51 1_555 1_555
C47 C51 1_555 1_555
C48 C49 1_555 1_555
H20 C32 1_555 1_555
Zn5 N1 1_555 1_555
O9 C4 1_555 1_555
O11 C13 1_555 1_555
O13 C13 1_555 1_555
N1 C11 1_555 1_555
F1 C6 1_555 1_555
F2 C26 1_555 1_555
F3 C6 1_555 1_555
F4 C26 1_555 1_555
F5 C26 1_555 1_555
F6 C6 1_555 1_555
C1 H1 1_555 1_555
C2 C6 1_555 1_555
C3 C1 1_555 1_555
C4 C3 1_555 1_555
C5 C7 1_555 1_555
C7 H2 1_555 1_555
C8 C17 1_555 1_555
C9 C3 1_555 1_555
H3 C9 1_555 1_555
C10 H4 1_555 1_555
C11 H5 1_555 1_555
C12 C1 1_555 1_555
H6 C12 1_555 1_555
C13 C5 1_555 1_555
C14 C9 1_555 1_555
H7 C14 1_555 1_555
C15 C7 1_555 1_555
H8 C15 1_555 1_555
C16 C2 1_555 1_555
C17 C11 1_555 1_555
H9 C17 1_555 1_555
C18 C5 1_555 1_555
H10 C18 1_555 1_555
C19 C2 1_555 1_555
C20 C8 1_555 1_555
H11 C20 1_555 1_555
C21 C8 1_555 1_555
N2 C20 1_555 1_555
C23 N2 1_555 1_555
C24 N1 1_555 1_555
H14 C24 1_555 1_555
C26 C2 1_555 1_555
O4 Zn5 1_555 1_555
C4 O4 1_555 1_555
C10 C16 1_555 1_555
C10 C18 1_555 1_555
C12 C19 1_555 1_555
C14 C19 1_555 1_555
C15 C16 1_555 1_555
C21 C24 1_555 1_555
H15 C25 1_555 1_555
Zn1 N1_2 1_555 1_555
O1 C4_2 1_555 1_555
O2 C13_2 1_555 1_555
O3 C13_2 1_555 1_555
N1_2 C11_2 1_555 1_555
F1_2 C6_2 1_555 1_555
F2_2 C26_2 1_555 1_555
F3_2 C6_2 1_555 1_555
F4_2 C26_2 1_555 1_555
F5_2 C26_2 1_555 1_555
F6_2 C6_2 1_555 1_555
C1_2 H1_2 1_555 1_555
C2_2 C6_2 1_555 1_555
C3_2 C1_2 1_555 1_555
C4_2 C3_2 1_555 1_555
C5_2 C7_2 1_555 1_555
C7_2 H2_2 1_555 1_555
C8_2 C17_2 1_555 1_555
C9_2 C3_2 1_555 1_555
H3_2 C9_2 1_555 1_555
C10_2 H4_2 1_555 1_555
C11_2 H5_2 1_555 1_555
C12_2 C1_2 1_555 1_555
H6_2 C12_2 1_555 1_555
C13_2 C5_2 1_555 1_555
C14_2 C9_2 1_555 1_555
H7_2 C14_2 1_555 1_555
C15_2 C7_2 1_555 1_555
H8_2 C15_2 1_555 1_555
C16_2 C2_2 1_555 1_555
C17_2 C11_2 1_555 1_555
H9_2 C17_2 1_555 1_555
C18_2 C5_2 1_555 1_555
H10_2 C18_2 1_555 1_555
C19_2 C2_2 1_555 1_555
C20_2 C8_2 1_555 1_555
H11_2 C20_2 1_555 1_555
C21_2 C8_2 1_555 1_555
H12_2 C21_2 1_555 1_555
N2_2 C20_2 1_555 1_555
C23_2 N2_2 1_555 1_555
C24_2 N1_2 1_555 1_555
H14_2 C24_2 1_555 1_555
C25_2 C23_2 1_555 1_555
H15_2 C25_2 1_555 1_555
C26_2 C2_2 1_555 1_555
O4_2 Zn1 1_555 1_555
O14 Zn1 1_555 1_555
C4_2 O4_2 1_555 1_555
C10_2 C16_2 1_555 1_555
C10_2 C18_2 1_555 1_555
C12_2 C19_2 1_555 1_555
C14_2 C19_2 1_555 1_555
C15_2 C16_2 1_555 1_555
C21_2 C24_2 1_555 1_555
H20_2 C32_2 1_555 1_555
H22_2 C35_2 1_555 1_555
N3_2 C28_2 1_555 1_555
C27_2 C29_2 1_555 1_555
C28_2 H16_2 1_555 1_555
C29_2 C28_2 1_555 1_555
H17_2 C29_2 1_555 1_555
C30_2 C27_2 1_555 1_555
H18_2 C30_2 1_555 1_555
C31_2 C27_2 1_555 1_555
N4_2 C30_2 1_555 1_555
C33_2 N4_2 1_555 1_555
C34_2 N3_2 1_555 1_555
H21_2 C34_2 1_555 1_555
Zn8 N3_2 1_555 1_555
O5 C39_2 1_555 1_555
O12 C46_2 1_555 1_555
O14 C46_2 1_555 1_555
F7_2 C41_2 1_555 1_555
F8_2 C52_2 1_555 1_555
F9_2 C41_2 1_555 1_555
F10_2 C52_2 1_555 1_555
F11_2 C52_2 1_555 1_555
F12_2 C41_2 1_555 1_555
C36_2 H23_2 1_555 1_555
C37_2 C41_2 1_555 1_555
C38_2 C36_2 1_555 1_555
C39_2 C38_2 1_555 1_555
C40_2 C42_2 1_555 1_555
C42_2 H24_2 1_555 1_555
C43_2 C38_2 1_555 1_555
H25_2 C43_2 1_555 1_555
C44_2 H26_2 1_555 1_555
C45_2 C36_2 1_555 1_555
H27_2 C45_2 1_555 1_555
C46_2 C40_2 1_555 1_555
C47_2 C43_2 1_555 1_555
H28_2 C47_2 1_555 1_555
C48_2 C42_2 1_555 1_555
H29_2 C48_2 1_555 1_555
C49_2 C37_2 1_555 1_555
C50_2 C40_2 1_555 1_555
H30_2 C50_2 1_555 1_555
C51_2 C37_2 1_555 1_555
C52_2 C37_2 1_555 1_555
O8_2 Zn8 1_555 1_555
C31_2 C34_2 1_555 1_555
C39_2 O8_2 1_555 1_555
C44_2 C49_2 1_555 1_555
C44_2 C50_2 1_555 1_555
C45_2 C51_2 1_555 1_555
C47_2 C51_2 1_555 1_555
C48_2 C49_2 1_555 1_555
C22_2 H13_2 1_555 1_555

#END
