
###############################################################################
#
# This file contains modified crystal structure data generated from the
# MOF subset of the Cambridge Structural Database (CSD) v543 
# hosted by the Cambridge Crystallographic Data Centre (CCDC).
#
# This work is licensed under the Creative Commons
# Attribution-NonCommercial-ShareAlike 4.0 International License.
# To view a copy of this license, visit
# http://creativecommons.org/licenses/by-nc-sa/4.0/
# or send a letter to
# Creative Commons, PO Box 1866, Mountain View, CA 94042, USA.
#
# CIF created using the CSD Python API on 29 September 2022
# The structure has been converted into the P1 space group
# The structure has a 3D framework
# The original CSD entry FAKGOP is in the monoclinic crystal system
# The framework has been calculated to contain at least 10.0% void space
# The void calculation uses a probe of radius 1.32A, grid spacing 0.4
# H atom positions have been added when not included in the experimental data
#
###############################################################################

data_FAKGOP
_chemical_formula_moiety         '(C72 H64 Ni8 O52)n'
_symmetry_cell_setting           triclinic
_symmetry_space_group_name_H-M   'P 1'
_symmetry_Int_Tables_number      1
_space_group_name_Hall           'P 1'
loop_
_symmetry_equiv_pos_site_id
_symmetry_equiv_pos_as_xyz
1 x,y,z
_cell_length_a                   13.3464(6)
_cell_length_b                   13.8945(4)
_cell_length_c                   14.5650(6)
_cell_angle_alpha                90
_cell_angle_beta                 114.553(5)
_cell_angle_gamma                90
_cell_volume                     2456.73
loop_
_atom_site_label
_atom_site_type_symbol
_atom_site_fract_x
_atom_site_fract_y
_atom_site_fract_z
Ni2 Ni 0.34173(3) 0.26583(2) 0.57491(2)
C1 C 0.3056(2) 0.47432(19) 0.6274(2)
O2 O 0.06609(19) 0.67792(16) 0.35431(14)
C2 C 0.2291(2) 0.5596(2) 0.5917(2)
O4 O 0.38641(16) 0.48206(14) 0.71216(14)
O6 O 0.28269(16) 0.40234(13) 0.57060(14)
C4 C 0.1094(2) 0.6607(2) 0.45679(19)
H2 H 0.0372 0.7663 0.1974
C6 C 0.1335(2) 0.6907(2) 0.62693(19)
C7 C 0.0843(2) 0.7146(2) 0.5241(2)
H3 H 0.0355 0.7661 0.5016
C8 C 0.2065(2) 0.6147(2) 0.6608(2)
H4 H 0.2404 0.6004 0.7293
C9 C 0.1810(3) 0.5838(2) 0.4899(2)
H5 H 0.1971 0.5480 0.4439
H9 H 0.0259 0.8160 0.3520
C17 C 0.1048(2) 0.74647(19) 0.7005(2)
O7 O 0.02617(17) 0.80635(15) 0.66446(13)
O8 O 0.15734(18) 0.72904(15) 0.79210(14)
O11 O 0.32556(18) 0.29103(15) 0.42966(14)
O12 O 0.18273(18) 0.21183(17) 0.52066(15)
O13 O 0.3987(2) 0.13102(16) 0.56370(17)
Ni3 Ni 0.52330(3) 0.40123(2) 0.76308(2)
Ni6 Ni 0.15827(3) 0.76583(2) 0.92509(2)
O16 O 0.34266(18) 0.22904(15) 0.70790(14)
O18 O 0.50069(15) 0.32678(13) 0.63210(13)
H11 H 0.464312 0.136885 0.548357
H12 H 0.419247 0.0962351 0.628565
H13 H 0.137827 0.240541 0.45359
H14 H 0.184634 0.140796 0.51406
H15 H 0.372021 0.346841 0.429633
H16 H 0.349587 0.23317 0.404161
O1 O 0.89883(17) 0.69038(15) 0.15280(13)
C5 C 0.9690(3) 0.7683(2) 0.2062(2)
H1 H 0.9330 0.8294 0.1806
H6 H 0.9577 0.7879 0.0258
C11 C 0.7827(2) 0.6168(2) 0.0028(2)
H7 H 0.7568 0.5785 0.0407
C12 C 0.8630(2) 0.6854(2) 0.04980(19)
C15 C 0.9924(3) 0.7577(2) 0.3155(2)
H10 H 0.9246 0.7461 0.3231
Ni4 Ni 0.97670(3) 0.90123(2) 0.73692(2)
O3 O 0.62226(18) 0.51594(15) 0.75405(14)
C3 C 0.7408(2) 0.60498(19) 0.89846(19)
O5 O 0.61408(17) 0.48078(15) 0.89550(14)
C10 C 0.9032(2) 0.7423(2) 0.9939(2)
C13 C 0.7795(2) 0.6618(2) 0.84203(19)
H8 H 0.7510 0.6543 0.7723
C14 C 0.6547(2) 0.5303(2) 0.84715(19)
C16 C 0.8609(2) 0.73002(19) 0.88949(19)
C18 C 0.9026(2) 0.78927(19) 0.8280(2)
O9 O 0.99931(15) 0.82678(13) 0.86790(13)
O10 O 0.84433(16) 0.80583(15) 0.73676(13)
O15 O 0.47383(17) 0.30635(15) 0.83554(13)
O19 O 0.65567(16) 0.30583(15) 0.76324(13)
O14 O 0.11359(16) 0.98206(14) 0.78784(14)
O1_2 O 0.60117(17) 0.19038(15) 0.34720(13)
O2_2 O 0.43391(19) 0.17792(16) 0.14569(14)
O3_2 O 0.87774(18) 0.01594(15) 0.74595(14)
C3_2 C 0.7592(2) 0.10498(19) 0.60154(19)
C4_2 C 0.3906(2) 0.1607(2) 0.04321(19)
C5_2 C 0.5310(3) 0.2683(2) 0.2938(2)
H1_2 H 0.5670 0.3294 0.3194
H2_2 H 0.4628 0.2663 0.3026
C9_2 C 0.3190(3) 0.0838(2) 0.0101(2)
H5_2 H 0.3029 0.0480 0.0561
C10_2 C 0.5968(2) 0.2423(2) 0.5061(2)
H6_2 H 0.5423 0.2879 0.4742
C11_2 C 0.7173(2) 0.1168(2) 0.4972(2)
H7_2 H 0.7432 0.0785 0.4593
C12_2 C 0.6370(2) 0.1854(2) 0.45020(19)
C13_2 C 0.7205(2) 0.1618(2) 0.65797(19)
H8_2 H 0.7490 0.1543 0.7277
C14_2 C 0.8453(2) 0.0303(2) 0.65285(19)
C15_2 C 0.5076(3) 0.2577(2) 0.1845(2)
H9_2 H 0.4741 0.3160 0.1480
H10_2 H 0.5754 0.2461 0.1769
C16_2 C 0.6391(2) 0.23002(19) 0.61051(19)
C18_2 C 0.5974(2) 0.28927(19) 0.6720(2)
C2_2 C 0.2709(2) 0.0596(2) 0.9083(2)
C6_2 C 0.3665(2) 0.1907(2) 0.87307(19)
C7_2 C 0.4157(2) 0.2146(2) 0.9759(2)
H3_2 H 0.4645 0.2661 0.9984
C8_2 C 0.2935(2) 0.1147(2) 0.8392(2)
H4_2 H 0.2596 0.1004 0.7707
C17_2 C 0.3952(2) 0.24647(19) 0.7995(2)
O5_2 O 0.88592(17) 0.98078(15) 0.60450(14)
O11_2 O 0.17444(18) 0.79103(15) 0.07034(14)
H13_2 H 0.362173 0.740541 0.0464103
H15_2 H 0.127979 0.846841 0.070367
H16_2 H 0.150413 0.73317 0.0958389
C1_2 C 0.1944(2) 0.97432(19) 0.8726(2)
O6_2 O 0.21731(16) 0.90234(13) 0.92940(14)
O12_2 O 0.31727(18) 0.71183(17) 0.97934(15)
O13_2 O 0.1013(2) 0.63102(16) 0.93630(17)
H11_2 H 0.0356875 0.636885 0.951643
H12_2 H 0.0807526 0.596235 0.871435
H14_2 H 0.315366 0.640796 0.98594
Ni1 Ni 0.47670(3) 0.59877(2) 0.23692(2)
O3_3 O 0.37774(18) 0.48406(15) 0.24595(14)
C3_3 C 0.2592(2) 0.39502(19) 0.10154(19)
O5_3 O 0.38592(17) 0.51922(15) 0.10450(14)
C10_3 C 0.0968(2) 0.2577(2) 0.0061(2)
C13_3 C 0.2205(2) 0.3382(2) 0.15797(19)
H8_3 H 0.2490 0.3457 0.2277
C14_3 C 0.3453(2) 0.4697(2) 0.15285(19)
C16_3 C 0.1391(2) 0.26998(19) 0.11051(19)
C18_3 C 0.0974(2) 0.21073(19) 0.1720(2)
O9_2 O 0.00069(15) 0.17322(13) 0.13210(13)
O10_2 O 0.15567(16) 0.19417(15) 0.26324(13)
Ni5 Ni 0.02330(3) 0.09877(2) 0.26308(2)
O14_2 O 0.61359(16) 0.51794(14) 0.28784(14)
O15_2 O 0.52617(17) 0.69365(15) 0.16446(13)
O17 O 0.49931(15) 0.67322(13) 0.36790(13)
O19_2 O 0.34433(16) 0.69417(15) 0.23676(13)
O1_3 O 0.10117(17) 0.30962(15) 0.84720(13)
C5_3 C 0.0310(3) 0.2317(2) 0.7938(2)
H1_3 H 0.0670 0.1706 0.8194
H6_3 H 0.0423 0.2121 0.9742
C11_3 C 0.2173(2) 0.3832(2) 0.9972(2)
H7_3 H 0.2432 0.4215 0.9593
C12_3 C 0.1370(2) 0.3146(2) 0.95020(19)
C15_3 C 0.0076(3) 0.2423(2) 0.6845(2)
H10_3 H 0.0754 0.2539 0.6769
Ni7 Ni 0.84173(3) 0.23417(2) 0.07491(2)
Ni2_2 Ni 0.65827(3) 0.73417(2) 0.42509(2)
C1_3 C 0.6944(2) 0.52568(19) 0.3726(2)
O2_3 O 0.93391(19) 0.32208(16) 0.64569(14)
C2_3 C 0.7709(2) 0.4404(2) 0.4083(2)
O6_3 O 0.71731(16) 0.59766(13) 0.42940(14)
C4_3 C 0.8906(2) 0.3393(2) 0.54321(19)
H2_3 H 0.9628 0.2337 0.8026
C6_3 C 0.8665(2) 0.3093(2) 0.37307(19)
C7_3 C 0.9157(2) 0.2854(2) 0.4759(2)
H3_3 H 0.9645 0.2339 0.4984
C8_3 C 0.7935(2) 0.3853(2) 0.3392(2)
H4_3 H 0.7596 0.3996 0.2707
C9_3 C 0.8190(3) 0.4162(2) 0.5101(2)
H5_3 H 0.8029 0.4520 0.5561
H9_3 H 0.9741 0.1840 0.6480
C17_3 C 0.8952(2) 0.25353(19) 0.2995(2)
O7_2 O 0.97383(17) 0.19365(15) 0.33554(13)
O8_2 O 0.84266(18) 0.27096(15) 0.20790(14)
O11_3 O 0.67444(18) 0.70897(15) 0.57034(14)
O12_3 O 0.81727(18) 0.78817(17) 0.47934(15)
O13_3 O 0.6013(2) 0.86898(16) 0.43630(17)
O16_2 O 0.65734(18) 0.77096(15) 0.29210(14)
H11_3 H 0.535688 0.863115 0.451643
H12_3 H 0.580753 0.903765 0.371435
H13_3 H 0.862173 0.759459 0.54641
H14_3 H 0.815366 0.859204 0.48594
H15_3 H 0.627979 0.653159 0.570367
H16_3 H 0.650413 0.76683 0.595839
C1_4 C 0.8056(2) 0.02568(19) 0.1274(2)
O4_2 O 0.88641(16) 0.01794(14) 0.21216(14)
O6_4 O 0.78269(16) 0.09766(13) 0.07060(14)
O12_4 O 0.68273(18) 0.28817(17) 0.02066(15)
O13_4 O 0.8987(2) 0.36898(16) 0.06370(17)
H11_4 H 0.964312 0.363115 0.0483569
H12_4 H 0.919247 0.403765 0.128565
H14_4 H 0.684634 0.359204 0.0140602
O5_4 O 0.11408(17) 0.01922(15) 0.39550(14)
O11_4 O 0.82556(18) 0.20897(15) 0.92966(14)
H13_4 H 0.637827 0.259459 0.95359
H15_4 H 0.872021 0.153159 0.929633
H16_4 H 0.849587 0.26683 0.904161
C2_4 C 0.7291(2) 0.9404(2) 0.0917(2)
C6_4 C 0.6335(2) 0.8093(2) 0.12693(19)
C7_4 C 0.5843(2) 0.7854(2) 0.0241(2)
H3_4 H 0.5355 0.7339 0.0016
C8_4 C 0.7065(2) 0.8853(2) 0.1608(2)
H4_4 H 0.7404 0.8996 0.2293
C17_4 C 0.6048(2) 0.75353(19) 0.2005(2)
O1_4 O 0.39883(17) 0.80962(15) 0.65280(13)
O2_4 O 0.56609(19) 0.82208(16) 0.85431(14)
O3_4 O 0.12226(18) 0.98406(15) 0.25405(14)
C3_4 C 0.2408(2) 0.89502(19) 0.39846(19)
C4_4 C 0.6094(2) 0.8393(2) 0.95679(19)
C5_4 C 0.4690(3) 0.7317(2) 0.7062(2)
H1_4 H 0.4330 0.6706 0.6806
H2_4 H 0.5372 0.7337 0.6974
C9_4 C 0.6810(3) 0.9162(2) 0.9899(2)
H5_4 H 0.6971 0.9520 0.9439
C10_4 C 0.4032(2) 0.7577(2) 0.4939(2)
H6_4 H 0.4577 0.7121 0.5258
C11_4 C 0.2827(2) 0.8832(2) 0.5028(2)
H7_4 H 0.2568 0.9215 0.5407
C12_4 C 0.3630(2) 0.8146(2) 0.54980(19)
C13_4 C 0.2795(2) 0.8382(2) 0.34203(19)
H8_4 H 0.2510 0.8457 0.2723
C14_4 C 0.1547(2) 0.9697(2) 0.34715(19)
C15_4 C 0.4924(3) 0.7423(2) 0.8155(2)
H9_4 H 0.5259 0.6840 0.8520
H10_4 H 0.4246 0.7539 0.8231
C16_4 C 0.3609(2) 0.76998(19) 0.38949(19)
C18_4 C 0.4026(2) 0.71073(19) 0.3280(2)
loop_
_geom_bond_atom_site_label_1
_geom_bond_atom_site_label_2
_geom_bond_site_symmetry_1
_geom_bond_site_symmetry_2
Ni2 O6 1_555 1_555
C1 C2 1_555 1_555
O2 C4 1_555 1_555
C2 C8 1_555 1_555
O4 C1 1_555 1_555
O6 C1 1_555 1_555
C4 C7 1_555 1_555
C6 C7 1_555 1_555
C7 H3 1_555 1_555
C8 C6 1_555 1_555
H4 C8 1_555 1_555
C9 C2 1_555 1_555
H5 C9 1_555 1_555
C17 C6 1_555 1_555
O7 C17 1_555 1_555
O8 C17 1_555 1_555
O11 Ni2 1_555 1_555
O12 Ni2 1_555 1_555
O13 Ni2 1_555 1_555
Ni3 O4 1_555 1_555
Ni6 O8 1_555 1_555
O16 Ni2 1_555 1_555
O18 Ni2 1_555 1_555
C4 C9 1_555 1_555
Ni3 O18 1_555 1_555
O13 H11 1_555 1_555
O13 H12 1_555 1_555
O12 H13 1_555 1_555
O12 H14 1_555 1_555
O11 H15 1_555 1_555
O11 H16 1_555 1_555
O1 C5 1_555 1_555
C5 H1 1_555 1_555
C11 H7 1_555 1_555
C12 O1 1_555 1_555
H10 C15 1_555 1_555
C5 C15 1_555 1_555
C11 C12 1_555 1_555
Ni3 O3 1_555 1_555
O3 C14 1_555 1_555
O5 Ni3 1_555 1_555
C13 C3 1_555 1_555
H8 C13 1_555 1_555
C14 C3 1_555 1_555
C16 C10 1_555 1_555
C18 C16 1_555 1_555
O9 C18 1_555 1_555
O10 C18 1_555 1_555
Ni4 O9 1_555 1_555
O15 Ni3 1_555 1_555
O19 Ni3 1_555 1_555
O5 C14 1_555 1_555
C13 C16 1_555 1_555
O10 Ni4 1_555 1_555
O1_2 C5_2 1_555 1_555
O2_2 C4_2 1_555 1_555
O3_2 C14_2 1_555 1_555
C3_2 C11_2 1_555 1_555
C5_2 H1_2 1_555 1_555
H2_2 C5_2 1_555 1_555
H5_2 C9_2 1_555 1_555
C10_2 H6_2 1_555 1_555
C11_2 H7_2 1_555 1_555
C12_2 O1_2 1_555 1_555
C13_2 C3_2 1_555 1_555
H8_2 C13_2 1_555 1_555
C14_2 C3_2 1_555 1_555
C15_2 O2_2 1_555 1_555
H9_2 C15_2 1_555 1_555
H10_2 C15_2 1_555 1_555
C16_2 C10_2 1_555 1_555
C18_2 C16_2 1_555 1_555
O18 C18_2 1_555 1_555
O19 C18_2 1_555 1_555
C4_2 C9_2 1_555 1_555
C5_2 C15_2 1_555 1_555
C10_2 C12_2 1_555 1_555
C11_2 C12_2 1_555 1_555
C13_2 C16_2 1_555 1_555
C2_2 C8_2 1_555 1_555
C6_2 C7_2 1_555 1_555
C7_2 H3_2 1_555 1_555
C8_2 C6_2 1_555 1_555
H4_2 C8_2 1_555 1_555
C17_2 C6_2 1_555 1_555
O15 C17_2 1_555 1_555
O16 C17_2 1_555 1_555
O5_2 Ni4 1_555 1_555
O11_2 H15_2 1_555 1_555
O11_2 H16_2 1_555 1_555
Ni6 O6_2 1_555 1_555
O14 C1_2 1_555 1_555
O6_2 C1_2 1_555 1_555
O12_2 Ni6 1_555 1_555
O13_2 Ni6 1_555 1_555
O13_2 H11_2 1_555 1_555
O13_2 H12_2 1_555 1_555
O12_2 H14_2 1_555 1_555
Ni1 O3_3 1_555 1_555
O3_3 C14_3 1_555 1_555
O5_3 Ni1 1_555 1_555
C13_3 C3_3 1_555 1_555
H8_3 C13_3 1_555 1_555
C14_3 C3_3 1_555 1_555
C16_3 C10_3 1_555 1_555
C18_3 C16_3 1_555 1_555
O9_2 C18_3 1_555 1_555
O10_2 C18_3 1_555 1_555
Ni5 O9_2 1_555 1_555
O14_2 Ni1 1_555 1_555
O15_2 Ni1 1_555 1_555
O17 Ni1 1_555 1_555
O19_2 Ni1 1_555 1_555
O5_3 C14_3 1_555 1_555
C13_3 C16_3 1_555 1_555
O10_2 Ni5 1_555 1_555
O1_3 C5_3 1_555 1_555
C5_3 H1_3 1_555 1_555
C11_3 H7_3 1_555 1_555
C12_3 O1_3 1_555 1_555
H10_3 C15_3 1_555 1_555
C5_3 C15_3 1_555 1_555
C11_3 C12_3 1_555 1_555
Ni2_2 O6_3 1_555 1_555
C1_3 C2_3 1_555 1_555
O2_3 C4_3 1_555 1_555
C2_3 C8_3 1_555 1_555
O14_2 C1_3 1_555 1_555
O6_3 C1_3 1_555 1_555
C4_3 C7_3 1_555 1_555
C6_3 C7_3 1_555 1_555
C7_3 H3_3 1_555 1_555
C8_3 C6_3 1_555 1_555
H4_3 C8_3 1_555 1_555
C9_3 C2_3 1_555 1_555
H5_3 C9_3 1_555 1_555
C17_3 C6_3 1_555 1_555
O7_2 C17_3 1_555 1_555
O8_2 C17_3 1_555 1_555
O11_3 Ni2_2 1_555 1_555
O12_3 Ni2_2 1_555 1_555
O13_3 Ni2_2 1_555 1_555
Ni7 O8_2 1_555 1_555
O16_2 Ni2_2 1_555 1_555
O17 Ni2_2 1_555 1_555
C4_3 C9_3 1_555 1_555
O13_3 H11_3 1_555 1_555
O13_3 H12_3 1_555 1_555
O12_3 H13_3 1_555 1_555
O12_3 H14_3 1_555 1_555
O11_3 H15_3 1_555 1_555
O11_3 H16_3 1_555 1_555
Ni7 O6_4 1_555 1_555
O4_2 C1_4 1_555 1_555
O6_4 C1_4 1_555 1_555
O12_4 Ni7 1_555 1_555
O13_4 Ni7 1_555 1_555
O13_4 H11_4 1_555 1_555
O13_4 H12_4 1_555 1_555
O12_4 H14_4 1_555 1_555
O5_4 Ni5 1_555 1_555
O11_4 H15_4 1_555 1_555
O11_4 H16_4 1_555 1_555
C2_4 C8_4 1_555 1_555
C6_4 C7_4 1_555 1_555
C7_4 H3_4 1_555 1_555
C8_4 C6_4 1_555 1_555
H4_4 C8_4 1_555 1_555
C17_4 C6_4 1_555 1_555
O15_2 C17_4 1_555 1_555
O16_2 C17_4 1_555 1_555
O1_4 C5_4 1_555 1_555
O2_4 C4_4 1_555 1_555
O3_4 C14_4 1_555 1_555
C3_4 C11_4 1_555 1_555
C5_4 H1_4 1_555 1_555
H2_4 C5_4 1_555 1_555
H5_4 C9_4 1_555 1_555
C10_4 H6_4 1_555 1_555
C11_4 H7_4 1_555 1_555
C12_4 O1_4 1_555 1_555
C13_4 C3_4 1_555 1_555
H8_4 C13_4 1_555 1_555
C14_4 C3_4 1_555 1_555
C15_4 O2_4 1_555 1_555
H9_4 C15_4 1_555 1_555
H10_4 C15_4 1_555 1_555
C16_4 C10_4 1_555 1_555
C18_4 C16_4 1_555 1_555
O17 C18_4 1_555 1_555
O19_2 C18_4 1_555 1_555
C4_4 C9_4 1_555 1_555
C5_4 C15_4 1_555 1_555
C10_4 C12_4 1_555 1_555
C11_4 C12_4 1_555 1_555
C13_4 C16_4 1_555 1_555

#END
