
###############################################################################
#
# This file contains modified crystal structure data generated from the
# MOF subset of the Cambridge Structural Database (CSD) v543 
# hosted by the Cambridge Crystallographic Data Centre (CCDC).
#
# This work is licensed under the Creative Commons
# Attribution-NonCommercial-ShareAlike 4.0 International License.
# To view a copy of this license, visit
# http://creativecommons.org/licenses/by-nc-sa/4.0/
# or send a letter to
# Creative Commons, PO Box 1866, Mountain View, CA 94042, USA.
#
# CIF created using the CSD Python API on 29 September 2022
# The structure has been converted into the P1 space group
# The structure has a 3D framework
# The original CSD entry FALBON is in the triclinic crystal system
# The framework has been calculated to contain at least 10.0% void space
# The void calculation uses a probe of radius 1.32A, grid spacing 0.4
#
###############################################################################

data_FALBON
_chemical_formula_moiety         '(C70 H48 Gd2 N2 O18)n'
_symmetry_cell_setting           triclinic
_symmetry_space_group_name_H-M   'P 1'
_symmetry_Int_Tables_number      1
_space_group_name_Hall           'P 1'
loop_
_symmetry_equiv_pos_site_id
_symmetry_equiv_pos_as_xyz
1 x,y,z
_cell_length_a                   10.248(4)
_cell_length_b                   10.940(4)
_cell_length_c                   16.472(7)
_cell_angle_alpha                106.755(8)
_cell_angle_beta                 99.669(8)
_cell_angle_gamma                90.524(8)
_cell_volume                     1739.96
loop_
_atom_site_label
_atom_site_type_symbol
_atom_site_fract_x
_atom_site_fract_y
_atom_site_fract_z
_atom_site_U_iso_or_equiv
_atom_site_thermal_displace_type
H19 H 0.058310 0.011973 0.669489 0.0690 Uiso
C1 C 0.33093(19) 0.52541(18) 0.36699(12) 0.0312 Uani
C2 C 0.19206(18) 0.51171(18) 0.31694(12) 0.0296 Uani
C3 C 0.17263(19) 0.51597(18) 0.23106(12) 0.0299 Uani
H1 H 0.247235 0.526637 0.205906 0.0360 Uiso
C4 C 0.08274(18) 0.49951(18) 0.35598(12) 0.0302 Uani
H2 H 0.095408 0.494961 0.413482 0.0360 Uiso
C8 C 0.04434(18) 0.50464(18) 0.18208(12) 0.0300 Uani
C9 C 0.02314(18) 0.50295(18) 0.08903(12) 0.0294 Uani
C34 C 0.0548(3) 0.9231(3) 0.67281(18) 0.0571 Uani
H20 H 0.144243 0.898248 0.693028 0.0690 Uiso
C35 C 0.0722(14) 0.7827(12) 0.5391(8) 0.0546 Uani
H21 H 0.113263 0.709101 0.553112 0.0820 Uiso
H22 H 0.141540 0.846621 0.541477 0.0820 Uiso
H23 H 0.018925 0.754748 0.480974 0.0820 Uiso
O1 O 0.35348(14) 0.49490(13) 0.43733(9) 0.0314 Uani
O2 O 0.42308(14) 0.56760(14) 0.33827(9) 0.0337 Uani
C46 C 0.07066(18) 0.40344(18) 0.02776(12) 0.0295 Uani
C47 C 0.13955(19) 0.30051(19) 0.05140(13) 0.0315 Uani
H28 H 0.157572 0.302494 0.110268 0.0380 Uiso
H29 H 0.224020 0.134205 0.008476 0.0400 Uiso
Gd6 Gd 0.62120(2) 0.58253(2) 0.44368(2) 0.0285 Uani
Gd10 Gd 0.37880(2) 0.41747(2) 0.55632(2) 0.0285 Uani
C40 C 0.04564(18) 0.50584(18) 0.69161(12) 0.0301 Uani
C41 C 0.16321(19) 0.50130(19) 0.64711(12) 0.0311 Uani
C42 C 0.06427(19) 0.50562(18) 0.77782(12) 0.0303 Uani
H27 H 0.151746 0.512510 0.809669 0.0360 Uiso
C45 C 0.04614(18) 0.39917(18) 0.93778(12) 0.0293 Uani
C48 C 0.1792(2) 0.20072(19) 0.99122(13) 0.0336 Uani
C49 C 0.1538(2) 0.19580(19) 0.90268(13) 0.0332 Uani
H30 H 0.181294 0.125635 0.861128 0.0400 Uiso
C50 C 0.08985(19) 0.29183(19) 0.87674(13) 0.0319 Uani
H31 H 0.074226 0.287176 0.817394 0.0380 Uiso
O12 O 0.15177(14) 0.51843(15) 0.57466(9) 0.0356 Uani
O13 O 0.27559(13) 0.47489(13) 0.68509(9) 0.0305 Uani
C5 C 0.95436(18) 0.49416(18) 0.30839(12) 0.0301 Uani
C6 C 0.83679(19) 0.49870(19) 0.35289(12) 0.0311 Uani
C7 C 0.93573(19) 0.49438(18) 0.22218(12) 0.0303 Uani
H3 H 0.848254 0.487490 0.190331 0.0360 Uiso
C10 C 0.95386(18) 0.60083(18) 0.06222(12) 0.0293 Uani
C13 C 0.8208(2) 0.79928(19) 0.00878(13) 0.0336 Uani
C14 C 0.8462(2) 0.80420(19) 0.09732(13) 0.0332 Uani
H6 H 0.818706 0.874365 0.138872 0.0400 Uiso
C15 C 0.91015(19) 0.70817(19) 0.12326(13) 0.0319 Uani
H7 H 0.925774 0.712824 0.182606 0.0380 Uiso
C16 C 0.54007(19) 0.26302(18) 0.40216(12) 0.0305 Uani
C17 C 0.55138(19) 0.13737(18) 0.33539(12) 0.0300 Uani
C18 C 0.53822(19) 0.13725(18) 0.24895(12) 0.0306 Uani
H8 H 0.524504 0.214811 0.234590 0.0370 Uiso
C19 C 0.57438(19) 0.02539(18) 0.35841(12) 0.0309 Uani
H9 H 0.578927 0.025248 0.416465 0.0370 Uiso
C23 C 0.54519(19) 0.02394(19) 0.18431(12) 0.0304 Uani
C24 C 0.52123(19) 0.01644(18) 0.09063(12) 0.0304 Uani
C31 C 0.8726(2) 0.7930(2) 0.58070(16) 0.0456 Uani
C32 C 0.8163(3) 0.8555(3) 0.66726(17) 0.0542 Uani
H15 H 0.766340 0.931032 0.663002 0.0650 Uiso
H16 H 0.756853 0.792813 0.678570 0.0650 Uiso
C33 C 0.9287(3) 0.8914(3) 0.73311(18) 0.0542 Uani
H17 H 0.952767 0.821351 0.758698 0.0650 Uiso
H18 H 0.914998 0.968881 0.779090 0.0650 Uiso
N1 N 0.9893(2) 0.8376(2) 0.59959(15) 0.0492 Uani
O3 O 0.84823(14) 0.48157(15) 0.42534(9) 0.0356 Uani
O4 O 0.72441(13) 0.52511(13) 0.31491(9) 0.0305 Uani
O5 O 0.57622(14) 0.36107(13) 0.38448(9) 0.0318 Uani
O6 O 0.49429(14) 0.25992(13) 0.46795(9) 0.0322 Uani
O9 O 0.79798(16) 0.72791(15) 0.52669(11) 0.0443 Uani
C63 C 0.8362(2) 0.1694(2) 0.06955(14) 0.0353 Uani
H37 H 0.916141 0.211782 0.104979 0.0420 Uiso
C64 C 0.7404(2) 0.12782(19) 0.10612(13) 0.0333 Uani
H38 H 0.755002 0.141321 0.166636 0.0400 Uiso
C65 C 0.61834(19) 0.06413(18) 0.05412(12) 0.0304 Uani
O22 O 0.64652(14) 0.50510(13) 0.56267(9) 0.0314 Uani
O28 O 0.50571(14) 0.74008(13) 0.53205(9) 0.0322 Uani
O29 O 0.61754(14) 0.77490(13) 0.38575(9) 0.0322 Uani
C11 C 0.92934(18) 0.59656(18) 0.97224(12) 0.0295 Uani
C12 C 0.86045(19) 0.69949(19) 0.94860(13) 0.0315 Uani
H4 H 0.842428 0.697506 0.889732 0.0380 Uiso
H5 H 0.775980 0.865795 0.991524 0.0400 Uiso
C36 C 0.66907(19) 0.47459(18) 0.63301(12) 0.0312 Uani
C37 C 0.80794(18) 0.48829(18) 0.68306(12) 0.0296 Uani
C38 C 0.82737(19) 0.48403(18) 0.76894(12) 0.0299 Uani
H25 H 0.752765 0.473363 0.794094 0.0360 Uiso
C39 C 0.91726(18) 0.50049(18) 0.64402(12) 0.0302 Uani
H26 H 0.904592 0.505039 0.586518 0.0360 Uiso
C43 C 0.95566(18) 0.49536(18) 0.81792(12) 0.0300 Uani
C44 C 0.97686(18) 0.49705(18) 0.91097(12) 0.0294 Uani
O11 O 0.57692(14) 0.43240(14) 0.66173(9) 0.0337 Uani
C55 C 0.40931(19) 0.08699(18) 0.70552(12) 0.0308 Uani
C56 C 0.3725(2) 0.20753(18) 0.68343(12) 0.0315 Uani
C57 C 0.42528(19) 0.08763(18) 0.79206(12) 0.0311 Uani
H34 H 0.415968 0.164609 0.835210 0.0370 Uiso
C60 C 0.59771(19) 0.04588(18) 0.96247(12) 0.0305 Uani
C61 C 0.7017(2) 0.0906(2) 0.92684(13) 0.0336 Uani
H35 H 0.689756 0.078834 0.866570 0.0400 Uiso
C62 C 0.8168(2) 0.1494(2) 0.97834(13) 0.0354 Uani
H36 H 0.884461 0.177262 0.953610 0.0430 Uiso
O16 O 0.38246(14) 0.22510(13) 0.61425(9) 0.0322 Uani
O17 O 0.32871(16) 0.29133(15) 0.74576(10) 0.0377 Uani
H39 H 0.305788 0.368083 0.728459 0.0450 Uiso
C20 C 0.59069(19) 0.91301(18) 0.29448(12) 0.0308 Uani
C21 C 0.6275(2) 0.79247(18) 0.31657(12) 0.0315 Uani
C22 C 0.57472(19) 0.91237(18) 0.20794(12) 0.0311 Uani
H10 H 0.584032 0.835391 0.164790 0.0370 Uiso
C25 C 0.40229(19) 0.95412(18) 0.03753(12) 0.0305 Uani
C26 C 0.2983(2) 0.9094(2) 0.07316(13) 0.0336 Uani
H11 H 0.310244 0.921166 0.133430 0.0400 Uiso
C27 C 0.1832(2) 0.8506(2) 0.02166(13) 0.0354 Uani
H12 H 0.115539 0.822738 0.046390 0.0430 Uiso
O8 O 0.67129(16) 0.70867(15) 0.25424(10) 0.0377 Uani
H24 H 0.694212 0.631917 0.271541 0.0450 Uiso
C28 C 0.1638(2) 0.8306(2) 0.93045(14) 0.0353 Uani
H13 H 0.083859 0.788218 0.895021 0.0420 Uiso
C29 C 0.2596(2) 0.87218(19) 0.89388(13) 0.0333 Uani
H14 H 0.244998 0.858679 0.833364 0.0400 Uiso
C30 C 0.38166(19) 0.93587(18) 0.94588(12) 0.0304 Uani
C51 C 0.45993(19) 0.73698(18) 0.59784(12) 0.0305 Uani
C52 C 0.44862(19) 0.86263(18) 0.66461(12) 0.0300 Uani
C53 C 0.46178(19) 0.86275(18) 0.75105(12) 0.0306 Uani
H32 H 0.475496 0.785189 0.765410 0.0370 Uiso
C54 C 0.42562(19) 0.97461(18) 0.64159(12) 0.0309 Uani
H33 H 0.421073 0.974752 0.583535 0.0370 Uiso
C58 C 0.45481(19) 0.97606(19) 0.81569(12) 0.0304 Uani
C59 C 0.47877(19) 0.98356(18) 0.90937(12) 0.0304 Uani
O14 O 0.42378(14) 0.63893(13) 0.61552(9) 0.0318 Uani
C66 C 0.1274(2) 0.2070(2) 0.41930(16) 0.0456 Uani
C67 C 0.1837(3) 0.1445(3) 0.33274(17) 0.0542 Uani
H40 H 0.233660 0.068968 0.336998 0.0650 Uiso
H41 H 0.243147 0.207187 0.321430 0.0650 Uiso
C68 C 0.0713(3) 0.1086(3) 0.26689(18) 0.0542 Uani
H42 H 0.047233 0.178649 0.241302 0.0650 Uiso
H43 H 0.085002 0.031119 0.220910 0.0650 Uiso
N2 N 0.0107(2) 0.1624(2) 0.40041(15) 0.0492 Uani
O18 O 0.20202(16) 0.27209(15) 0.47331(11) 0.0443 Uani
C69 C 0.9452(3) 0.0769(3) 0.32719(18) 0.0571 Uani
H45 H 0.855757 0.101752 0.306972 0.0690 Uiso
C70 C 0.9278(14) 0.2173(12) 0.4609(8) 0.0546 Uani
H46 H 0.886737 0.290899 0.446888 0.0820 Uiso
H47 H 0.858460 0.153379 0.458523 0.0820 Uiso
H48 H 0.981075 0.245252 0.519026 0.0820 Uiso
H44 H 0.941690 0.988027 0.330511 0.0690 Uiso
loop_
_atom_site_aniso_label
_atom_site_aniso_U_11
_atom_site_aniso_U_22
_atom_site_aniso_U_33
_atom_site_aniso_U_23
_atom_site_aniso_U_13
_atom_site_aniso_U_12
C1 0.0296 0.0322 0.0272 0.0076 -0.0059 0.0069
C2 0.0301 0.0311 0.0272 0.0075 0.0055 0.0057
C3 0.0301 0.0322 0.0276 0.0081 0.007 0.0061
C4 0.031 0.0327 0.027 0.008 0.0068 0.0067
C8 0.0303 0.0329 0.0272 0.0082 0.0071 0.0069
C9 0.0296 0.0316 0.0274 0.0083 0.0069 0.0057
C34 0.0467 0.0515 0.0494 -0.011 -0.0107 -0.0114
C35 0.037 0.048 0.054 -0.015 -0.008 0.008
O1 0.034 0.0347 0.0264 0.0093 0.0066 0.0081
O2 0.0316 0.0354 0.03 0.0106 -0.0072 -0.007
C46 0.0298 0.0313 0.0274 0.0077 0.0067 0.0056
C47 0.033 0.0323 0.0301 0.0096 0.0074 0.0076
Gd6 0.02934 0.02892 0.02725 0.00729 0.00652 0.0053
Gd10 0.02934 0.02892 0.02725 0.00729 0.00652 0.0053
C40 0.0301 0.0323 0.0283 0.0084 0.0073 0.006
C41 0.0317 0.0327 0.0289 0.0073 0.0083 0.0062
C42 0.0298 0.033 0.0286 0.0084 0.0074 0.0062
C45 0.0298 0.0313 0.027 0.0076 0.0067 0.0062
C48 0.0353 0.0344 0.0328 0.0103 0.0092 0.0104
C49 0.0359 0.0332 0.0305 0.0075 0.0088 0.0094
C50 0.0337 0.033 0.029 0.0076 0.0079 0.0082
O12 0.0324 0.0455 0.0309 0.0126 0.0082 0.0081
O13 0.0307 0.0315 0.0306 0.0094 0.0081 0.0075
C5 0.0301 0.0323 0.0283 0.0084 0.0073 0.006
C6 0.0317 0.0327 0.0289 0.0073 0.0083 0.0062
C7 0.0298 0.033 0.0286 0.0084 0.0074 0.0062
C10 0.0298 0.0313 0.027 0.0076 0.0067 0.0062
C13 0.0353 0.0344 0.0328 0.0103 0.0092 0.0104
C14 0.0359 0.0332 0.0305 0.0075 0.0088 0.0094
C15 0.0337 0.033 0.029 0.0076 0.0079 0.0082
C16 0.0326 0.0293 0.029 0.0067 0.0071 0.007
C17 0.0329 0.0287 0.0287 0.0071 0.0081 0.0062
C18 0.0344 0.0289 0.0292 0.0078 0.0083 0.0066
C19 0.0353 0.0293 0.0288 0.0077 0.0087 0.0064
C23 0.033 0.0301 0.0284 0.0076 0.0075 0.0063
C24 0.0341 0.029 0.0286 0.0078 0.0081 0.0072
C31 0.0406 0.0412 0.0461 0.0104 -0.0119 -0.0092
C32 0.0452 0.0528 0.044 -0.0082 -0.0083 -0.0103
C33 0.0512 0.0564 0.0473 0.0124 -0.0077 0.0141
N1 0.0413 0.0475 0.0489 0.0094 -0.0105 -0.0105
O3 0.0324 0.0455 0.0309 0.0126 0.0082 0.0081
O4 0.0307 0.0315 0.0306 0.0094 0.0081 0.0075
O5 0.0367 0.0283 0.0301 0.0065 0.0093 -0.0072
O6 0.0362 0.0309 0.0301 0.0074 0.0104 0.0073
O9 0.0373 0.038 0.0473 0.0098 -0.0149 -0.0132
C63 0.0342 0.0378 0.0334 0.0092 0.0071 -0.0096
C64 0.0341 0.0341 0.0311 0.0083 0.0071 -0.0083
C65 0.0321 0.0293 0.0296 0.0072 0.0071 0.0053
O22 0.034 0.0347 0.0264 0.0093 0.0066 0.0081
O28 0.0362 0.0309 0.0301 0.0074 0.0104 0.0073
O29 0.0375 0.0301 0.0299 0.008 0.0097 0.0074
C11 0.0298 0.0313 0.0274 0.0077 0.0067 0.0056
C12 0.033 0.0323 0.0301 0.0096 0.0074 0.0076
C36 0.0296 0.0322 0.0272 0.0076 -0.0059 0.0069
C37 0.0301 0.0311 0.0272 0.0075 0.0055 0.0057
C38 0.0301 0.0322 0.0276 0.0081 0.007 0.0061
C39 0.031 0.0327 0.027 0.008 0.0068 0.0067
C43 0.0303 0.0329 0.0272 0.0082 0.0071 0.0069
C44 0.0296 0.0316 0.0274 0.0083 0.0069 0.0057
O11 0.0316 0.0354 0.03 0.0106 -0.0072 -0.007
C55 0.0355 0.0287 0.0286 0.0077 0.0082 0.0065
C56 0.0354 0.0297 0.03 0.0081 0.0085 0.0067
C57 0.0355 0.0295 0.0285 0.0074 0.0083 0.0073
C60 0.033 0.0304 0.0291 0.0084 0.0084 0.0061
C61 0.0347 0.0354 0.0309 0.0091 0.0082 -0.0077
C62 0.0349 0.0385 0.0326 0.0093 0.008 -0.0098
O16 0.0375 0.0301 0.0299 0.008 0.0097 0.0074
O17 0.0479 0.0348 0.0342 0.0116 0.0144 0.0145
C20 0.0355 0.0287 0.0286 0.0077 0.0082 0.0065
C21 0.0354 0.0297 0.03 0.0081 0.0085 0.0067
C22 0.0355 0.0295 0.0285 0.0074 0.0083 0.0073
C25 0.033 0.0304 0.0291 0.0084 0.0084 0.0061
C26 0.0347 0.0354 0.0309 0.0091 0.0082 -0.0077
C27 0.0349 0.0385 0.0326 0.0093 0.008 -0.0098
O8 0.0479 0.0348 0.0342 0.0116 0.0144 0.0145
C28 0.0342 0.0378 0.0334 0.0092 0.0071 -0.0096
C29 0.0341 0.0341 0.0311 0.0083 0.0071 -0.0083
C30 0.0321 0.0293 0.0296 0.0072 0.0071 0.0053
C51 0.0326 0.0293 0.029 0.0067 0.0071 0.007
C52 0.0329 0.0287 0.0287 0.0071 0.0081 0.0062
C53 0.0344 0.0289 0.0292 0.0078 0.0083 0.0066
C54 0.0353 0.0293 0.0288 0.0077 0.0087 0.0064
C58 0.033 0.0301 0.0284 0.0076 0.0075 0.0063
C59 0.0341 0.029 0.0286 0.0078 0.0081 0.0072
O14 0.0367 0.0283 0.0301 0.0065 0.0093 -0.0072
C66 0.0406 0.0412 0.0461 0.0104 -0.0119 -0.0092
C67 0.0452 0.0528 0.044 -0.0082 -0.0083 -0.0103
C68 0.0512 0.0564 0.0473 0.0124 -0.0077 0.0141
N2 0.0413 0.0475 0.0489 0.0094 -0.0105 -0.0105
O18 0.0373 0.038 0.0473 0.0098 -0.0149 -0.0132
C69 0.0467 0.0515 0.0494 -0.011 -0.0107 -0.0114
C70 0.037 0.048 0.054 -0.015 -0.008 0.008
loop_
_geom_bond_atom_site_label_1
_geom_bond_atom_site_label_2
_geom_bond_site_symmetry_1
_geom_bond_site_symmetry_2
C1 C2 1_555 1_555
C2 C3 1_555 1_555
C3 H1 1_555 1_555
C4 C2 1_555 1_555
H2 C4 1_555 1_555
C8 C3 1_555 1_555
C9 C8 1_555 1_555
H20 C34 1_555 1_555
C35 H21 1_555 1_555
H22 C35 1_555 1_555
H23 C35 1_555 1_555
O1 C1 1_555 1_555
O2 C1 1_555 1_555
C46 C9 1_555 1_555
C47 C46 1_555 1_555
H28 C47 1_555 1_555
Gd6 O1 1_555 1_555
Gd10 O1 1_555 1_555
O2 Gd6 1_555 1_555
C41 C40 1_555 1_555
C42 C40 1_555 1_555
H27 C42 1_555 1_555
C49 C48 1_555 1_555
H30 C49 1_555 1_555
C50 C45 1_555 1_555
H31 C50 1_555 1_555
O12 C41 1_555 1_555
O13 C41 1_555 1_555
Gd10 O12 1_555 1_555
C49 C50 1_555 1_555
O13 Gd10 1_555 1_555
C6 C5 1_555 1_555
C7 C5 1_555 1_555
H3 C7 1_555 1_555
C14 C13 1_555 1_555
H6 C14 1_555 1_555
C15 C10 1_555 1_555
H7 C15 1_555 1_555
C16 C17 1_555 1_555
C17 C18 1_555 1_555
C18 H8 1_555 1_555
C19 C17 1_555 1_555
H9 C19 1_555 1_555
C23 C18 1_555 1_555
C24 C23 1_555 1_555
C31 C32 1_555 1_555
C32 H15 1_555 1_555
H16 C32 1_555 1_555
C33 C32 1_555 1_555
H17 C33 1_555 1_555
H18 C33 1_555 1_555
Gd6 O3 1_555 1_555
N1 C31 1_555 1_555
O3 C6 1_555 1_555
O4 C6 1_555 1_555
O5 C16 1_555 1_555
O6 C16 1_555 1_555
O9 C31 1_555 1_555
H37 C63 1_555 1_555
C64 C63 1_555 1_555
H38 C64 1_555 1_555
C65 C24 1_555 1_555
Gd10 O6 1_555 1_555
O22 Gd6 1_555 1_555
O28 Gd6 1_555 1_555
O29 Gd6 1_555 1_555
C14 C15 1_555 1_555
Gd6 O4 1_555 1_555
Gd6 O5 1_555 1_555
Gd6 O9 1_555 1_555
C64 C65 1_555 1_555
Gd10 O22 1_555 1_555
C12 C11 1_555 1_555
H4 C12 1_555 1_555
C36 C37 1_555 1_555
C37 C38 1_555 1_555
C38 H25 1_555 1_555
C39 C37 1_555 1_555
H26 C39 1_555 1_555
C43 C38 1_555 1_555
C44 C11 1_555 1_555
O22 C36 1_555 1_555
O11 C36 1_555 1_555
C56 C55 1_555 1_555
C57 C55 1_555 1_555
H34 C57 1_555 1_555
C61 C60 1_555 1_555
H35 C61 1_555 1_555
C62 C61 1_555 1_555
H36 C62 1_555 1_555
O16 C56 1_555 1_555
O17 C56 1_555 1_555
H39 O17 1_555 1_555
C43 C44 1_555 1_555
O11 Gd10 1_555 1_555
O16 Gd10 1_555 1_555
C21 C20 1_555 1_555
C22 C20 1_555 1_555
H10 C22 1_555 1_555
C26 C25 1_555 1_555
H11 C26 1_555 1_555
C27 C26 1_555 1_555
H12 C27 1_555 1_555
O29 C21 1_555 1_555
O8 C21 1_555 1_555
H24 O8 1_555 1_555
H13 C28 1_555 1_555
C29 C28 1_555 1_555
H14 C29 1_555 1_555
C51 C52 1_555 1_555
C52 C53 1_555 1_555
C53 H32 1_555 1_555
C54 C52 1_555 1_555
H33 C54 1_555 1_555
C58 C53 1_555 1_555
C59 C30 1_555 1_555
O14 C51 1_555 1_555
O28 C51 1_555 1_555
C66 C67 1_555 1_555
C67 H40 1_555 1_555
H41 C67 1_555 1_555
C68 C67 1_555 1_555
H42 C68 1_555 1_555
H43 C68 1_555 1_555
Gd10 O14 1_555 1_555
N2 C66 1_555 1_555
O18 C66 1_555 1_555
C29 C30 1_555 1_555
C58 C59 1_555 1_555
Gd10 O18 1_555 1_555
H45 C69 1_555 1_555
C70 H46 1_555 1_555
H47 C70 1_555 1_555
H48 C70 1_555 1_555

#END
