
###############################################################################
#
# This file contains modified crystal structure data generated from the
# MOF subset of the Cambridge Structural Database (CSD) v543 
# hosted by the Cambridge Crystallographic Data Centre (CCDC).
#
# This work is licensed under the Creative Commons
# Attribution-NonCommercial-ShareAlike 4.0 International License.
# To view a copy of this license, visit
# http://creativecommons.org/licenses/by-nc-sa/4.0/
# or send a letter to
# Creative Commons, PO Box 1866, Mountain View, CA 94042, USA.
#
# CIF created using the CSD Python API on 29 September 2022
# The structure has been converted into the P1 space group
# The structure has a 3D framework
# The original CSD entry FALQOA is in the trigonal crystal system
# The framework has been calculated to contain at least 10.0% void space
# The void calculation uses a probe of radius 1.32A, grid spacing 0.4
# H atom positions have been added when not included in the experimental data
#
###############################################################################

data_FALQOA
_chemical_formula_moiety         '(C36 H66 Cu6 N6 Nd2 O24)n'
_symmetry_cell_setting           triclinic
_symmetry_space_group_name_H-M   'P 1'
_symmetry_Int_Tables_number      1
_space_group_name_Hall           'P 1'
loop_
_symmetry_equiv_pos_site_id
_symmetry_equiv_pos_as_xyz
1 x,y,z
_cell_length_a                   13.6319(19)
_cell_length_b                   13.6319(19)
_cell_length_c                   7.3817(15)
_cell_angle_alpha                90
_cell_angle_beta                 90
_cell_angle_gamma                120
_cell_volume                     1187.95
loop_
_atom_site_label
_atom_site_type_symbol
_atom_site_fract_x
_atom_site_fract_y
_atom_site_fract_z
Cu2 Cu 0.0000 0.5000 0.0000
O16 O 0.18181(15) 0.54767(21) 0.1211(3)
H10 H 0.0291 0.6748 0.1398
H43 H 0.0015 0.7918 0.0026
Cu2_2 Cu 0.0000 0.5000 1.0000
O24 O 0.07865(17) 0.59293(23) 0.7873(3)
N8 N 0.03706(16) 0.38732(23) 0.8940(3)
H60 H 0.0769611 0.365218 0.987827
H61 H 0.0880213 0.421287 0.784371
Cu1 Cu 0.5000 0.0000 0.0000
O3 O 0.48572(16) 0.07865(17) 0.2127(3)
O4 O 0.5804(2) 0.1811(2) 0.4504(3)
N1 N 0.64974(17) 0.03706(16) 0.1060(3)
H2 H 0.7956 0.1448 0.0479
C3 C 0.6706(3) 0.1066(3) 0.2700(5)
H3 H 0.7305 0.1822 0.2334
C4 C 0.5715(2) 0.1230(2) 0.3157(3)
C5 C 0.7247(6) 0.0724(6) 0.4105(8)
H4 H 0.7856 0.0661 0.3576
H5 H 0.6697 0.0006 0.4603
H6 H 0.7538 0.1283 0.5049
Nd3 Nd 0.6667 0.3333 0.66008(2)
Cu2_3 Cu 1.0000 0.5000 0.0000
Cu3 Cu 0.5000 0.5000 0.0000
O17 O 0.45233(21) 0.63414(15) 0.1211(3)
O18 O 0.92135(17) 0.40707(23) 0.2127(3)
O19 O 0.59293(23) 0.51428(16) 0.2127(3)
O26 O 0.8189(2) 0.3993(3) 0.4504(3)
O27 O 0.6007(3) 0.4196(2) 0.4504(3)
N2 N 0.96294(16) 0.61268(23) 0.1060(3)
N3 N 0.38732(23) 0.35026(17) 0.1060(3)
H11 H 0.3252 0.3543 0.1398
H18 H 0.8552 0.6508 0.0479
H19 H 0.3492 0.2044 0.0479
C17 C 0.8934(3) 0.5640(4) 0.2700(5)
C18 C 0.4360(4) 0.3294(3) 0.2700(5)
H23 H 0.8178 0.5483 0.2334
H24 H 0.4517 0.2695 0.2334
C22 C 0.8770(2) 0.4485(3) 0.3157(3)
C23 C 0.5515(3) 0.4285(2) 0.3157(3)
C27 C 0.9276(6) 0.6523(8) 0.4105(8)
C28 C 0.3477(8) 0.2753(6) 0.4105(8)
H28 H 0.9339 0.7195 0.3576
H29 H 0.2805 0.2144 0.3576
H33 H 0.9994 0.6691 0.4603
H34 H 0.3309 0.3303 0.4603
H38 H 0.8717 0.6255 0.5049
H39 H 0.3745 0.2462 0.5049
H44 H 0.2082 0.2097 0.0026
Cu1_2 Cu 0.5000 0.0000 1.0000
O1 O 0.80034(19) 0.24473(19) 0.7572(3)
O2 O 0.63414(15) 0.18181(15) 0.8789(3)
C1 C 0.7243(2) 0.1795(2) 0.8617(4)
C2 C 0.7383(2) 0.0902(3) 0.9647(5)
C6 C 0.7946(9) 0.0531(9) 0.916(2)
H8 H 0.8717 0.1132 0.9054
H9 H 0.7682 0.0172 0.8005
Cu2_4 Cu 1.0000 0.5000 1.0000
Cu3_2 Cu 0.5000 0.5000 1.0000
O5 O 0.75527(19) 0.55561(27) 0.7572(3)
O6 O 0.44439(27) 0.19966(19) 0.7572(3)
O10 O 0.81819(15) 0.45233(21) 0.8789(3)
O11 O 0.54767(21) 0.36586(15) 0.8789(3)
O25 O 0.40707(23) 0.48572(16) 0.7873(3)
N9 N 0.61268(23) 0.64974(17) 0.8940(3)
H15 H 0.3543 0.0291 0.8602
H16 H 0.9709 0.3252 0.8602
H17 H 0.6748 0.6457 0.8602
C7 C 0.8205(2) 0.5448(3) 0.8617(4)
C8 C 0.4552(3) 0.2757(2) 0.8617(4)
C12 C 0.9098(3) 0.6481(4) 0.9647(5)
C13 C 0.3519(4) 0.2617(2) 0.9647(5)
C32 C 0.9469(9) 0.7415(13) 0.916(2)
C33 C 0.2585(13) 0.2054(9) 0.916(2)
H48 H 0.8868 0.7585 0.9054
H49 H 0.2415 0.1283 0.9054
H53 H 0.9828 0.7510 0.8005
H54 H 0.2490 0.2318 0.8005
H62 H 0.634782 0.711744 0.987827
H63 H 0.578713 0.666735 0.784371
Cu1_3 Cu 0.5000 1.0000 0.0000
H1 H 0.6457 0.9709 0.1398
H7 H 0.7903 0.9985 0.0026
O15 O 0.36586(15) 0.81819(15) 0.1211(3)
Cu1_4 Cu 0.5000 1.0000 1.0000
O23 O 0.51428(16) 0.92135(17) 0.7873(3)
N7 N 0.35026(17) 0.96294(16) 0.8940(3)
H58 H 0.288256 0.923039 0.987827
H59 H 0.333265 0.911979 0.784371
H45 H 0.2097 0.0015 0.9974
H58_2 H 0.711744 0.0769611 0.0121726
H59_2 H 0.666735 0.0880213 0.215629
Nd2 Nd 0.3333 0.6667 0.33992(2)
O7 O 0.19966(19) 0.75527(19) 0.2428(3)
O8 O 0.24473(19) 0.44439(27) 0.2428(3)
O9 O 0.55561(27) 0.80034(19) 0.2428(3)
O31 O 0.4196(2) 0.8189(2) 0.5496(3)
O32 O 0.1811(2) 0.6007(3) 0.5496(3)
O33 O 0.3993(3) 0.5804(2) 0.5496(3)
C9 C 0.2757(2) 0.8205(2) 0.1383(4)
C10 C 0.1795(2) 0.4552(3) 0.1383(4)
C11 C 0.5448(3) 0.7243(2) 0.1383(4)
C14 C 0.2617(2) 0.9098(3) 0.0353(5)
C15 C 0.0902(3) 0.3519(4) 0.0353(5)
C16 C 0.6481(4) 0.7383(2) 0.0353(5)
C34 C 0.2054(9) 0.9469(9) 0.084(2)
C35 C 0.0531(9) 0.2585(13) 0.084(2)
C36 C 0.7415(13) 0.7946(9) 0.084(2)
H50 H 0.1283 0.8868 0.0946
H51 H 0.1132 0.2415 0.0946
H52 H 0.7585 0.8717 0.0946
H55 H 0.2318 0.9828 0.1995
H56 H 0.0172 0.2490 0.1995
H57 H 0.7510 0.7682 0.1995
H20 H 0.2044 0.8552 0.9521
H21 H 0.1448 0.3492 0.9521
H22 H 0.6508 0.7956 0.9521
C19 C 0.3294(3) 0.8934(3) 0.7300(5)
C20 C 0.1066(3) 0.4360(4) 0.7300(5)
C21 C 0.5640(4) 0.6706(3) 0.7300(5)
H25 H 0.2695 0.8178 0.7666
H26 H 0.1822 0.4517 0.7666
H27 H 0.5483 0.7305 0.7666
C24 C 0.4285(2) 0.8770(2) 0.6843(3)
C25 C 0.1230(2) 0.5515(3) 0.6843(3)
C26 C 0.4485(3) 0.5715(2) 0.6843(3)
C29 C 0.2753(6) 0.9276(6) 0.5895(8)
C30 C 0.0724(6) 0.3477(8) 0.5895(8)
C31 C 0.6523(8) 0.7247(6) 0.5895(8)
H30 H 0.2144 0.9339 0.6424
H31 H 0.0661 0.2805 0.6424
H32 H 0.7195 0.7856 0.6424
H35 H 0.3303 0.9994 0.5397
H36 H 0.0006 0.3309 0.5397
H37 H 0.6691 0.6697 0.5397
H40 H 0.2462 0.8717 0.4951
H41 H 0.1283 0.3745 0.4951
H42 H 0.6255 0.7538 0.4951
H47 H 0.7918 0.7903 0.9974
H62_2 H 0.365218 0.288256 0.0121726
H63_2 H 0.421287 0.333265 0.215629
H46 H 0.9985 0.2082 0.9974
H60_2 H 0.923039 0.634782 0.0121726
H61_2 H 0.911979 0.578713 0.215629
loop_
_geom_bond_atom_site_label_1
_geom_bond_atom_site_label_2
_geom_bond_site_symmetry_1
_geom_bond_site_symmetry_2
O16 Cu2 1_555 1_555
O24 Cu2_2 1_555 1_555
N8 Cu2_2 1_555 1_555
N8 H60 1_555 1_555
N8 H61 1_555 1_555
O3 Cu1 1_555 1_555
O4 C4 1_555 1_555
N1 Cu1 1_555 1_555
C3 N1 1_555 1_555
H3 C3 1_555 1_555
C4 O3 1_555 1_555
C5 C3 1_555 1_555
H4 C5 1_555 1_555
H5 C5 1_555 1_555
H6 C5 1_555 1_555
Nd3 O4 1_555 1_555
O17 Cu3 1_555 1_555
O18 Cu2_3 1_555 1_555
O19 Cu3 1_555 1_555
O26 Nd3 1_555 1_555
O27 Nd3 1_555 1_555
N2 Cu2_3 1_555 1_555
N3 Cu3 1_555 1_555
H11 N3 1_555 1_555
C17 N2 1_555 1_555
C18 N3 1_555 1_555
H23 C17 1_555 1_555
H24 C18 1_555 1_555
C22 O18 1_555 1_555
C23 O19 1_555 1_555
C27 C17 1_555 1_555
C28 C18 1_555 1_555
H28 C27 1_555 1_555
H29 C28 1_555 1_555
H33 C27 1_555 1_555
H34 C28 1_555 1_555
H38 C27 1_555 1_555
H39 C28 1_555 1_555
C3 C4 1_555 1_555
O26 C22 1_555 1_555
O27 C23 1_555 1_555
C17 C22 1_555 1_555
C18 C23 1_555 1_555
Nd3 O1 1_555 1_555
Cu1_2 O2 1_555 1_555
O1 C1 1_555 1_555
O2 Nd3 1_555 1_555
C1 O2 1_555 1_555
C6 C2 1_555 1_555
H8 C6 1_555 1_555
H9 C6 1_555 1_555
Cu2_4 O10 1_555 1_555
Cu3_2 O11 1_555 1_555
O5 Nd3 1_555 1_555
O6 Nd3 1_555 1_555
O10 Nd3 1_555 1_555
O11 Nd3 1_555 1_555
O25 Cu3_2 1_555 1_555
N9 Cu3_2 1_555 1_555
H17 N9 1_555 1_555
C7 O5 1_555 1_555
C8 O6 1_555 1_555
C32 C12 1_555 1_555
C33 C13 1_555 1_555
H48 C32 1_555 1_555
H49 C33 1_555 1_555
H53 C32 1_555 1_555
H54 C33 1_555 1_555
C1 C2 1_555 1_555
O10 C7 1_555 1_555
O11 C8 1_555 1_555
C7 C12 1_555 1_555
C8 C13 1_555 1_555
N9 H62 1_555 1_555
N9 H63 1_555 1_555
O15 Cu1_3 1_555 1_555
O23 Cu1_4 1_555 1_555
N7 Cu1_4 1_555 1_555
N7 H58 1_555 1_555
N7 H59 1_555 1_555
N1 H58_2 1_555 1_555
N1 H59_2 1_555 1_555
Nd2 O7 1_555 1_555
O7 C9 1_555 1_555
O8 Nd2 1_555 1_555
O9 Nd2 1_555 1_555
O15 Nd2 1_555 1_555
O16 Nd2 1_555 1_555
O17 Nd2 1_555 1_555
O31 Nd2 1_555 1_555
O32 Nd2 1_555 1_555
O33 Nd2 1_555 1_555
C9 O15 1_555 1_555
C10 O8 1_555 1_555
C11 O9 1_555 1_555
C34 C14 1_555 1_555
C35 C15 1_555 1_555
C36 C16 1_555 1_555
H50 C34 1_555 1_555
H51 C35 1_555 1_555
H52 C36 1_555 1_555
H55 C34 1_555 1_555
H56 C35 1_555 1_555
H57 C36 1_555 1_555
O16 C10 1_555 1_555
O17 C11 1_555 1_555
C9 C14 1_555 1_555
C10 C15 1_555 1_555
C11 C16 1_555 1_555
C19 N7 1_555 1_555
C20 N8 1_555 1_555
C21 N9 1_555 1_555
H25 C19 1_555 1_555
H26 C20 1_555 1_555
H27 C21 1_555 1_555
C24 O23 1_555 1_555
C25 O24 1_555 1_555
C26 O25 1_555 1_555
C29 C19 1_555 1_555
C30 C20 1_555 1_555
C31 C21 1_555 1_555
H30 C29 1_555 1_555
H31 C30 1_555 1_555
H32 C31 1_555 1_555
H35 C29 1_555 1_555
H36 C30 1_555 1_555
H37 C31 1_555 1_555
H40 C29 1_555 1_555
H41 C30 1_555 1_555
H42 C31 1_555 1_555
O31 C24 1_555 1_555
O32 C25 1_555 1_555
O33 C26 1_555 1_555
C19 C24 1_555 1_555
C20 C25 1_555 1_555
C21 C26 1_555 1_555
N3 H62_2 1_555 1_555
N3 H63_2 1_555 1_555
N2 H60_2 1_555 1_555
N2 H61_2 1_555 1_555

#END
