
###############################################################################
#
# This file contains modified crystal structure data generated from the
# MOF subset of the Cambridge Structural Database (CSD) v543 
# hosted by the Cambridge Crystallographic Data Centre (CCDC).
#
# This work is licensed under the Creative Commons
# Attribution-NonCommercial-ShareAlike 4.0 International License.
# To view a copy of this license, visit
# http://creativecommons.org/licenses/by-nc-sa/4.0/
# or send a letter to
# Creative Commons, PO Box 1866, Mountain View, CA 94042, USA.
#
# CIF created using the CSD Python API on 29 September 2022
# The structure has been converted into the P1 space group
# The structure has a 3D framework
# The original CSD entry FALXUN is in the monoclinic crystal system
# The framework has been calculated to contain at least 10.0% void space
# The void calculation uses a probe of radius 1.32A, grid spacing 0.4
#
###############################################################################

data_FALXUN
_chemical_formula_moiety         '(C56 H64 N24 O28 Pb4)n'
_symmetry_cell_setting           triclinic
_symmetry_space_group_name_H-M   'P 1'
_symmetry_Int_Tables_number      1
_space_group_name_Hall           'P 1'
loop_
_symmetry_equiv_pos_site_id
_symmetry_equiv_pos_as_xyz
1 x,y,z
_cell_length_a                   29.5578(14)
_cell_length_b                   10.5995(6)
_cell_length_c                   7.5118(4)
_cell_angle_alpha                90
_cell_angle_beta                 91.337(4)
_cell_angle_gamma                90
_cell_volume                     2352.79
loop_
_atom_site_label
_atom_site_type_symbol
_atom_site_fract_x
_atom_site_fract_y
_atom_site_fract_z
C9 C 0.3703(3) 0.0243(9) 0.2020(11)
H9 H 0.3695 0.1117 0.2111
C13 C 0.4489(3) 0.0339(8) 0.0780(10)
C14 C 0.4482(3) 0.1792(9) 0.0926(16)
H12 H 0.4463 0.2032 0.2154
H13 H 0.4225 0.2118 0.0270
H14 H 0.4755 0.2130 0.0443
C22 C 0.6663(3) 0.0478(9) 0.7451(11)
H24 H 0.6912 0.0061 0.6999
C24 C 0.5924(3) 0.0350(8) 0.8639(10)
C25 C 0.5939(3) 0.1680(9) 0.8755(14)
H26 H 0.5693 0.2121 0.9192
C26 C 0.6309(3) 0.2314(10) 0.8234(17)
H27 H 0.6314 0.3188 0.8340
N8 N 0.6677(3) 0.1714(8) 0.7552(11)
N11 N 0.5191(2) 0.0324(6) 0.9730(9)
Pb4 Pb 0.732010(11) 0.32485(3) 0.63811(4)
O9 O 0.7737(4) 0.0931(9) 0.0851(10)
O10 O 0.7475(3) 0.2707(8) 0.0013(9)
C15 C 0.8235(3) 0.5256(10) 0.6265(14)
H17 H 0.7994 0.5794 0.6486
C16 C 0.8656(3) 0.5788(9) 0.5968(14)
H18 H 0.8690 0.6660 0.5965
C17 C 0.9018(3) 0.5035(9) 0.5684(11)
C18 C 0.8944(3) 0.3798(10) 0.5743(14)
H19 H 0.9186 0.3252 0.5590
C19 C 0.8513(3) 0.3288(11) 0.6027(16)
H20 H 0.8475 0.2417 0.6061
C20 C 0.9481(3) 0.5570(9) 0.5358(12)
C21 C 0.9551(4) 0.6983(12) 0.541(2)
H21 H 0.9862 0.7173 0.5171
H22 H 0.9359 0.7376 0.4526
H23 H 0.9478 0.7297 0.6567
N7 N 0.8158(2) 0.4040(8) 0.6249(11)
N10 N 0.9779(3) 0.4725(9) 0.5145(12)
N12 N 0.7651(3) 0.1698(9) 0.9683(10)
O8 O 0.7757(2) 0.1459(6) 0.8122(7)
O12 O 0.7240(2) 0.4507(6) 0.3296(8)
O13 O 0.7240(2) 0.5493(6) 0.8296(8)
O16 O 0.6681(3) 0.3234(7) 0.3593(10)
O17 O 0.7616(3) 0.1572(6) 0.4386(8)
H31 H 0.7711(8) 0.1737(16) 0.3365(17)
H32 H 0.7783(7) 0.1017(15) 0.482(2)
C1 C 0.8235(3) 0.4744(10) 0.1265(14)
H1 H 0.7994 0.4206 0.1486
C2 C 0.8656(3) 0.4212(9) 0.0968(14)
H2 H 0.8690 0.3340 0.0965
C3 C 0.9018(3) 0.4965(9) 0.0684(11)
C4 C 0.8944(3) 0.6202(10) 0.0743(14)
H3 H 0.9186 0.6748 0.0590
C5 C 0.8513(3) 0.6712(11) 0.1027(16)
H4 H 0.8475 0.7583 0.1061
C6 C 0.9481(3) 0.4430(9) 0.0358(12)
C7 C 0.9551(4) 0.3017(12) 0.041(2)
H5 H 0.9862 0.2827 0.0171
H7 H 0.9478 0.2703 0.1567
C8 C 0.6663(3) 0.9522(9) 0.2451(11)
H8 H 0.6912 0.9939 0.1999
C10 C 0.5924(3) 0.9650(8) 0.3639(10)
C11 C 0.5939(3) 0.8320(9) 0.3755(14)
H10 H 0.5693 0.7879 0.4192
C12 C 0.6309(3) 0.7686(10) 0.3234(17)
H11 H 0.6314 0.6812 0.3340
N1 N 0.8158(2) 0.5960(8) 0.1249(11)
N2 N 0.6677(3) 0.8286(8) 0.2552(11)
N3 N 0.9779(3) 0.5275(9) 0.0145(12)
N4 N 0.5191(2) 0.9676(6) 0.4730(9)
N5 N 0.7651(3) 0.8302(9) 0.4683(10)
O1 O 0.7757(2) 0.8541(6) 0.3122(7)
O2 O 0.7737(4) 0.9069(9) 0.5851(10)
O3 O 0.7475(3) 0.7293(8) 0.5013(9)
Pb1 Pb 0.732010(11) 0.67515(3) 0.13811(4)
C23 C 0.3703(3) 0.9757(9) 0.7020(11)
H25 H 0.3695 0.8883 0.7111
C27 C 0.4489(3) 0.9661(8) 0.5780(10)
C28 C 0.4482(3) 0.8208(9) 0.5926(16)
H28 H 0.4463 0.7968 0.7154
H29 H 0.4225 0.7882 0.5270
H30 H 0.4755 0.7870 0.5443
N13 N 0.6854(3) 0.4145(7) 0.2834(11)
O14 O 0.6635(3) 0.4764(7) 0.1668(10)
H6 H 0.9359 0.2624 0.9526
N6 N 0.6854(3) 0.5855(7) 0.7834(11)
O5 O 0.6635(3) 0.5236(7) 0.6668(10)
O6 O 0.6681(3) 0.6766(7) 0.8593(10)
O7 O 0.7616(3) 0.8428(6) 0.9386(8)
H15 H 0.7711(8) 0.8263(16) 0.8365(17)
H16 H 0.7783(7) 0.8983(15) 0.982(2)
C1_2 C 0.1765(3) 0.4744(10) 0.3735(14)
H1_2 H 0.2006 0.4206 0.3514
C2_2 C 0.1344(3) 0.4212(9) 0.4032(14)
H2_2 H 0.1310 0.3340 0.4035
C3_2 C 0.0982(3) 0.4965(9) 0.4316(11)
C4_2 C 0.1056(3) 0.6202(10) 0.4257(14)
H3_2 H 0.0814 0.6748 0.4410
C5_2 C 0.1487(3) 0.6712(11) 0.3973(16)
H4_2 H 0.1525 0.7583 0.3939
C6_2 C 0.0519(3) 0.4430(9) 0.4642(12)
C7_2 C 0.0449(4) 0.3017(12) 0.459(2)
H5_2 H 0.0138 0.2827 0.4829
H6_2 H 0.0641 0.2624 0.5474
H7_2 H 0.0522 0.2703 0.3433
C8_2 C 0.3337(3) 0.9522(9) 0.2549(11)
H8_2 H 0.3088 0.9939 0.3001
C10_2 C 0.4076(3) 0.9650(8) 0.1361(10)
C11_2 C 0.4061(3) 0.8320(9) 0.1245(14)
H10_2 H 0.4307 0.7879 0.0808
C12_2 C 0.3691(3) 0.7686(10) 0.1766(17)
H11_2 H 0.3686 0.6812 0.1660
N1_2 N 0.1842(2) 0.5960(8) 0.3751(11)
N2_2 N 0.3323(3) 0.8286(8) 0.2448(11)
N3_2 N 0.0221(3) 0.5275(9) 0.4855(12)
N4_2 N 0.4809(2) 0.9676(6) 0.0270(9)
N5_2 N 0.2349(3) 0.8302(9) 0.0317(10)
N6_2 N 0.3146(3) 0.5855(7) 0.7166(11)
O1_2 O 0.2243(2) 0.8541(6) 0.1878(7)
O4 O 0.2760(2) 0.5493(6) 0.6704(8)
O5_2 O 0.3365(3) 0.5236(7) 0.8332(10)
O6_2 O 0.3319(3) 0.6766(7) 0.6407(10)
Pb1_2 Pb 0.267990(11) 0.67515(3) 0.36189(4)
O7_2 O 0.2384(3) 0.8428(6) 0.5614(8)
H15_2 H 0.2289(8) 0.8263(16) 0.6635(17)
H16_2 H 0.2217(7) 0.8983(15) 0.518(2)
N13_2 N 0.3146(3) 0.4145(7) 0.2166(11)
O11 O 0.2760(2) 0.4507(6) 0.1704(8)
O14_2 O 0.3365(3) 0.4764(7) 0.3332(10)
O15 O 0.3319(3) 0.3234(7) 0.1407(10)
Pb3 Pb 0.267990(11) 0.32485(3) 0.86189(4)
O2_2 O 0.2263(4) 0.9069(9) 0.9149(10)
O3_2 O 0.2525(3) 0.7293(8) 0.9987(9)
C23_2 C 0.6297(3) 0.9757(9) 0.7980(11)
H25_2 H 0.6305 0.8883 0.7889
C27_2 C 0.5511(3) 0.9661(8) 0.9220(10)
C28_2 C 0.5518(3) 0.8208(9) 0.9074(16)
H28_2 H 0.5537 0.7968 0.7846
H29_2 H 0.5775 0.7882 0.9730
H30_2 H 0.5245 0.7870 0.9557
H22_2 H 0.0641 0.7376 0.0474
O17_2 O 0.2384(3) 0.1572(6) 0.0614(8)
H31_2 H 0.2289(8) 0.1737(16) 0.1635(17)
H32_2 H 0.2217(7) 0.1017(15) 0.018(2)
C15_2 C 0.1765(3) 0.5256(10) 0.8735(14)
H17_2 H 0.2006 0.5794 0.8514
C16_2 C 0.1344(3) 0.5788(9) 0.9032(14)
H18_2 H 0.1310 0.6660 0.9035
C17_2 C 0.0982(3) 0.5035(9) 0.9316(11)
C18_2 C 0.1056(3) 0.3798(10) 0.9257(14)
H19_2 H 0.0814 0.3252 0.9410
C19_2 C 0.1487(3) 0.3288(11) 0.8973(16)
H20_2 H 0.1525 0.2417 0.8939
C20_2 C 0.0519(3) 0.5570(9) 0.9642(12)
C21_2 C 0.0449(4) 0.6983(12) 0.959(2)
H21_2 H 0.0138 0.7173 0.9829
H23_2 H 0.0522 0.7297 0.8433
N7_2 N 0.1842(2) 0.4040(8) 0.8751(11)
N9 N 0.3323(3) 0.1714(8) 0.7448(11)
N10_2 N 0.0221(3) 0.4725(9) 0.9855(12)
N12_2 N 0.2349(3) 0.1698(9) 0.5317(10)
O8_2 O 0.2243(2) 0.1459(6) 0.6878(7)
O9_2 O 0.2263(4) 0.0931(9) 0.4149(10)
O10_2 O 0.2525(3) 0.2707(8) 0.4987(9)
C9_2 C 0.6297(3) 0.0243(9) 0.2980(11)
H9_2 H 0.6305 0.1117 0.2889
C13_2 C 0.5511(3) 0.0339(8) 0.4220(10)
C14_2 C 0.5518(3) 0.1792(9) 0.4074(16)
H12_2 H 0.5537 0.2032 0.2846
H13_2 H 0.5775 0.2118 0.4730
H14_2 H 0.5245 0.2130 0.4557
C22_2 C 0.3337(3) 0.0478(9) 0.7549(11)
H24_2 H 0.3088 0.0061 0.8001
C24_2 C 0.4076(3) 0.0350(8) 0.6361(10)
C25_2 C 0.4061(3) 0.1680(9) 0.6245(14)
H26_2 H 0.4307 0.2121 0.5808
C26_2 C 0.3691(3) 0.2314(10) 0.6766(17)
H27_2 H 0.3686 0.3188 0.6660
N11_2 N 0.4809(2) 0.0324(6) 0.5270(9)
loop_
_geom_bond_atom_site_label_1
_geom_bond_atom_site_label_2
_geom_bond_site_symmetry_1
_geom_bond_site_symmetry_2
H9 C9 1_555 1_555
C14 C13 1_555 1_555
H12 C14 1_555 1_555
H13 C14 1_555 1_555
H14 C14 1_555 1_555
C22 H24 1_555 1_555
C25 C24 1_555 1_555
H26 C25 1_555 1_555
C26 C25 1_555 1_555
H27 C26 1_555 1_555
N8 C22 1_555 1_555
Pb4 N8 1_555 1_555
C26 N8 1_555 1_555
C15 H17 1_555 1_555
C16 C15 1_555 1_555
H18 C16 1_555 1_555
C17 C16 1_555 1_555
C18 C17 1_555 1_555
H19 C18 1_555 1_555
C19 C18 1_555 1_555
H20 C19 1_555 1_555
C20 C17 1_555 1_555
C21 C20 1_555 1_555
H21 C21 1_555 1_555
H22 C21 1_555 1_555
H23 C21 1_555 1_555
N7 C15 1_555 1_555
N12 O8 1_555 1_555
O8 Pb4 1_555 1_555
O12 Pb4 1_555 1_555
O13 Pb4 1_555 1_555
O16 Pb4 1_555 1_555
Pb4 N7 1_555 1_555
O17 Pb4 1_555 1_555
H31 O17 1_555 1_555
H32 O17 1_555 1_555
C19 N7 1_555 1_555
C20 N10 1_555 1_555
C1 H1 1_555 1_555
C2 C1 1_555 1_555
H2 C2 1_555 1_555
C3 C2 1_555 1_555
C4 C3 1_555 1_555
H3 C4 1_555 1_555
C5 C4 1_555 1_555
H4 C5 1_555 1_555
C6 C3 1_555 1_555
C7 C6 1_555 1_555
H5 C7 1_555 1_555
H7 C7 1_555 1_555
C8 H8 1_555 1_555
C11 C10 1_555 1_555
H10 C11 1_555 1_555
C12 C11 1_555 1_555
H11 C12 1_555 1_555
N1 C1 1_555 1_555
N2 C8 1_555 1_555
N3 C6 1_555 1_555
N5 O1 1_555 1_555
O1 Pb1 1_555 1_555
O2 N5 1_555 1_555
O3 N5 1_555 1_555
Pb1 N1 1_555 1_555
H25 C23 1_555 1_555
C28 C27 1_555 1_555
H28 C28 1_555 1_555
H29 C28 1_555 1_555
H30 C28 1_555 1_555
N13 O12 1_555 1_555
O12 Pb1 1_555 1_555
O14 N13 1_555 1_555
O16 N13 1_555 1_555
C5 N1 1_555 1_555
C12 N2 1_555 1_555
N2 Pb1 1_555 1_555
O3 Pb1 1_555 1_555
N6 O13 1_555 1_555
O5 N6 1_555 1_555
O6 N6 1_555 1_555
H15 O7 1_555 1_555
H16 O7 1_555 1_555
C1_2 H1_2 1_555 1_555
C2_2 C1_2 1_555 1_555
H2_2 C2_2 1_555 1_555
C3_2 C2_2 1_555 1_555
C4_2 C3_2 1_555 1_555
H3_2 C4_2 1_555 1_555
C5_2 C4_2 1_555 1_555
H4_2 C5_2 1_555 1_555
C6_2 C3_2 1_555 1_555
C7_2 C6_2 1_555 1_555
H5_2 C7_2 1_555 1_555
H6_2 C7_2 1_555 1_555
H7_2 C7_2 1_555 1_555
C8_2 H8_2 1_555 1_555
C11_2 C10_2 1_555 1_555
H10_2 C11_2 1_555 1_555
C12_2 C11_2 1_555 1_555
H11_2 C12_2 1_555 1_555
N1_2 C1_2 1_555 1_555
N2_2 C8_2 1_555 1_555
N3_2 C6_2 1_555 1_555
N5_2 O1_2 1_555 1_555
N6_2 O4 1_555 1_555
O1_2 Pb1_2 1_555 1_555
O4 Pb1_2 1_555 1_555
O5_2 N6_2 1_555 1_555
O6_2 N6_2 1_555 1_555
Pb1_2 N1_2 1_555 1_555
O7_2 Pb1_2 1_555 1_555
H15_2 O7_2 1_555 1_555
H16_2 O7_2 1_555 1_555
N13_2 O11 1_555 1_555
O11 Pb1_2 1_555 1_555
O14_2 N13_2 1_555 1_555
O15 N13_2 1_555 1_555
Pb3 O4 1_555 1_555
C5_2 N1_2 1_555 1_555
C12_2 N2_2 1_555 1_555
N2_2 Pb1_2 1_555 1_555
O6_2 Pb1_2 1_555 1_555
H25_2 C23_2 1_555 1_555
C28_2 C27_2 1_555 1_555
H28_2 C28_2 1_555 1_555
H29_2 C28_2 1_555 1_555
H30_2 C28_2 1_555 1_555
H31_2 O17_2 1_555 1_555
H32_2 O17_2 1_555 1_555
C15_2 H17_2 1_555 1_555
C16_2 C15_2 1_555 1_555
H18_2 C16_2 1_555 1_555
C17_2 C16_2 1_555 1_555
C18_2 C17_2 1_555 1_555
H19_2 C18_2 1_555 1_555
C19_2 C18_2 1_555 1_555
H20_2 C19_2 1_555 1_555
C20_2 C17_2 1_555 1_555
C21_2 C20_2 1_555 1_555
H21_2 C21_2 1_555 1_555
H23_2 C21_2 1_555 1_555
N7_2 C15_2 1_555 1_555
N9 Pb3 1_555 1_555
N12_2 O8_2 1_555 1_555
O8_2 Pb3 1_555 1_555
O9_2 N12_2 1_555 1_555
O10_2 N12_2 1_555 1_555
Pb3 N7_2 1_555 1_555
C19_2 N7_2 1_555 1_555
C20_2 N10_2 1_555 1_555
O10_2 Pb3 1_555 1_555
H9_2 C9_2 1_555 1_555
C14_2 C13_2 1_555 1_555
H12_2 C14_2 1_555 1_555
H13_2 C14_2 1_555 1_555
H14_2 C14_2 1_555 1_555
C22_2 H24_2 1_555 1_555
C25_2 C24_2 1_555 1_555
H26_2 C25_2 1_555 1_555
C26_2 C25_2 1_555 1_555
H27_2 C26_2 1_555 1_555
N9 C22_2 1_555 1_555
C26_2 N9 1_555 1_555

#END
