
###############################################################################
#
# This file contains modified crystal structure data generated from the
# MOF subset of the Cambridge Structural Database (CSD) v543 
# hosted by the Cambridge Crystallographic Data Centre (CCDC).
#
# This work is licensed under the Creative Commons
# Attribution-NonCommercial-ShareAlike 4.0 International License.
# To view a copy of this license, visit
# http://creativecommons.org/licenses/by-nc-sa/4.0/
# or send a letter to
# Creative Commons, PO Box 1866, Mountain View, CA 94042, USA.
#
# CIF created using the CSD Python API on 29 September 2022
# The structure has been converted into the P1 space group
# The structure has a 3D framework
# The original CSD entry FAMTAO is in the triclinic crystal system
# The framework has been calculated to contain at least 10.0% void space
# The void calculation uses a probe of radius 1.32A, grid spacing 0.4
# H atom positions have been added when not included in the experimental data
# Generated hydrogen atom positions removed from atoms on special positions
#
###############################################################################

data_FAMTAO
_chemical_formula_moiety         '(C12 H24 Mn10 O18)n'
_symmetry_cell_setting           triclinic
_symmetry_space_group_name_H-M   'P 1'
_symmetry_Int_Tables_number      1
_space_group_name_Hall           'P 1'
loop_
_symmetry_equiv_pos_site_id
_symmetry_equiv_pos_as_xyz
1 x,y,z
_cell_length_a                   8.294(3)
_cell_length_b                   8.294(3)
_cell_length_c                   8.304(1)
_cell_angle_alpha                91.29(2)
_cell_angle_beta                 91.29(2)
_cell_angle_gamma                86.72(3)
_cell_volume                     570.027
loop_
_atom_site_label
_atom_site_type_symbol
_atom_site_fract_x
_atom_site_fract_y
_atom_site_fract_z
Mn6 Mn -0.0000 0.5000 0.0000
Mn8 Mn -0.0000 0.0000 0.5000
Mn6_2 Mn -0.0000 0.5000 1.0000
Mn8_2 Mn -0.0000 1.0000 0.5000
Mn5 Mn 0.5000 0.0000 0.0000
Mn5_2 Mn 0.5000 0.0000 1.0000
O6 O 0.2435(5) 0.0128(6) 0.5968(6)
C6 C 0.3831(7) 0.0053(8) 0.5419(8)
O8 O 0.0850(5) 0.2657(5) 0.0758(6)
C7 C 0.5430(6) 0.6156(6) 0.0062(8)
O10 O 0.5966(5) 0.7561(5) 0.0131(7)
C8 C 0.6171(6) 0.4550(6) 0.0045(8)
O11 O 0.7587(5) 0.3973(5) 0.0113(7)
C9 C 0.5461(6) 0.0046(8) 0.6178(8)
O12 O 0.6023(5) 0.0105(6) 0.7593(5)
O16 O 0.7346(5) 0.0759(5) 0.0850(6)
O23 O 0.0108(6) 0.2405(5) 0.3972(6)
Mn5_3 Mn 0.5000 1.0000 0.0000
Mn6_3 Mn 1.0000 0.5000 0.0000
Mn8_3 Mn 1.0000 0.0000 0.5000
O1 O 0.4034(5) 0.2439(5) 0.9869(7)
O3 O 0.0128(6) 0.4027(5) 0.7560(5)
O4 O 0.2413(5) 0.6027(5) 0.9887(7)
C1 C 0.4570(6) 0.3844(6) 0.9938(8)
C3 C 0.0056(8) 0.4567(6) 0.6170(8)
C4 C 0.3829(6) 0.5450(6) 0.9955(8)
C5 C 0.0039(8) 0.3826(7) 0.4551(8)
Mn5_4 Mn 0.5000 1.0000 1.0000
Mn6_4 Mn 1.0000 0.5000 1.0000
O2 O 0.3977(5) 0.9895(6) 0.2407(5)
C2 C 0.4539(6) 0.9954(8) 0.3822(8)
O9 O 0.0760(5) 0.9156(5) 0.2653(6)
C10 C 0.6169(7) 0.9947(8) 0.4581(8)
O13 O 0.7565(5) 0.9872(6) 0.4032(6)
Mn8_4 Mn 1.0000 1.0000 0.5000
H12 H 0.808738 0.979249 0.10226
O7 O 0.2654(5) 0.9241(5) 0.9150(6)
O18 O 0.9240(5) 0.0844(5) 0.7347(6)
O21 O 0.9872(6) 0.5973(5) 0.2440(5)
H6 H 0.898506 0.806612 0.0200565
C11 C 0.9944(8) 0.5433(6) 0.3830(8)
C12 C 0.9961(8) 0.6174(7) 0.5449(8)
O15 O 0.9892(6) 0.7595(5) 0.6028(6)
O17 O 0.9150(5) 0.7343(5) 0.9242(6)
H10 H 0.979561 0.899834 0.194907
H10_2 H 0.020439 0.100166 0.805093
H6_2 H 0.101494 0.193388 0.979943
H12_2 H 0.191262 0.0207512 0.89774
loop_
_geom_bond_atom_site_label_1
_geom_bond_atom_site_label_2
_geom_bond_site_symmetry_1
_geom_bond_site_symmetry_2
Mn8 O6 1_555 1_555
O6 C6 1_555 1_555
O8 Mn6 1_555 1_555
O10 C7 1_555 1_555
O11 C8 1_555 1_555
C9 C6 1_555 1_555
O12 C9 1_555 1_555
O16 Mn5 1_555 1_555
O23 Mn8 1_555 1_555
Mn5_3 O10 1_555 1_555
Mn6_3 O11 1_555 1_555
Mn5_2 O12 1_555 1_555
C7 C8 1_555 1_555
Mn5_2 O1 1_555 1_555
Mn6_2 O3 1_555 1_555
O1 C1 1_555 1_555
O3 C3 1_555 1_555
O4 Mn6_2 1_555 1_555
O23 C5 1_555 1_555
C1 C4 1_555 1_555
C3 C5 1_555 1_555
C4 O4 1_555 1_555
O2 Mn5_3 1_555 1_555
C2 O2 1_555 1_555
O9 Mn8_2 1_555 1_555
C10 C2 1_555 1_555
O13 C10 1_555 1_555
Mn8_4 O13 1_555 1_555
O7 Mn5_4 1_555 1_555
O18 Mn8_3 1_555 1_555
O21 Mn6_3 1_555 1_555
C11 O21 1_555 1_555
O15 C12 1_555 1_555
O17 Mn6_4 1_555 1_555
Mn8_4 O15 1_555 1_555
C11 C12 1_555 1_555

#END
