
###############################################################################
#
# This file contains modified crystal structure data generated from the
# MOF subset of the Cambridge Structural Database (CSD) v543 
# hosted by the Cambridge Crystallographic Data Centre (CCDC).
#
# This work is licensed under the Creative Commons
# Attribution-NonCommercial-ShareAlike 4.0 International License.
# To view a copy of this license, visit
# http://creativecommons.org/licenses/by-nc-sa/4.0/
# or send a letter to
# Creative Commons, PO Box 1866, Mountain View, CA 94042, USA.
#
# CIF created using the CSD Python API on 29 September 2022
# The structure has been converted into the P1 space group
# The structure has a 3D framework
# The original CSD entry FANCIJ is in the triclinic crystal system
# The framework has been calculated to contain at least 10.0% void space
# The void calculation uses a probe of radius 1.32A, grid spacing 0.4
# Generated hydrogen atom positions removed from atoms on special positions
#
###############################################################################

data_FANCIJ
_chemical_formula_moiety         '(C60 H68 Cl6 N8 O24 Yb2)n'
_symmetry_cell_setting           triclinic
_symmetry_space_group_name_H-M   'P 1'
_symmetry_Int_Tables_number      1
_space_group_name_Hall           'P 1'
loop_
_symmetry_equiv_pos_site_id
_symmetry_equiv_pos_as_xyz
1 x,y,z
_cell_length_a                   9.4755(4)
_cell_length_b                   13.0729(6)
_cell_length_c                   18.4582(9)
_cell_angle_alpha                107.5060(10)
_cell_angle_beta                 96.5740(10)
_cell_angle_gamma                98.2310(10)
_cell_volume                     2127.82
loop_
_atom_site_label
_atom_site_type_symbol
_atom_site_fract_x
_atom_site_fract_y
_atom_site_fract_z
O2 O 0.6111(4) 0.3383(3) 0.0031(2)
H2 H 0.6023 0.3396 0.0471
H3 H 0.7640 0.7290 0.0199
Yb6 Yb 0.23428(2) 0.50594(2) 0.00280(2)
O9 O 0.6740(4) 0.5547(3) 0.11009(18)
O11 O 0.8894(4) 0.4168(3) 0.0736(2)
O13 O 0.9568(4) 0.6242(3) 0.0689(2)
Yb1 Yb 0.76572(2) 0.49406(2) 0.99720(2)
O1 O 0.5647(4) 0.4632(3) 0.91180(19)
H1 H 0.5802 0.2902 0.9571
O3 O 0.7044(4) 0.6681(3) 0.9983(3)
H4 H 0.6775 0.6947 0.9643
O4 O 0.3260(4) 0.4453(3) 0.88991(18)
O5 O 0.1315(4) 0.4509(3) 0.0979(2)
N1 N 0.4434(5) 0.3291(4) 0.6276(2)
C1 C 0.4460(5) 0.4408(4) 0.8694(2)
C2 C 0.4463(5) 0.4037(4) 0.7835(2)
C3 C 0.3200(5) 0.3844(4) 0.7323(3)
H5 H 0.2345 0.3970 0.7505
C4 C 0.3205(5) 0.3464(5) 0.6539(3)
H6 H 0.2351 0.3328 0.6194
C5 C 0.5680(6) 0.3491(5) 0.6759(3)
H7 H 0.6525 0.3377 0.6561
C6 C 0.5730(5) 0.3863(5) 0.7546(3)
H8 H 0.6600 0.3995 0.7879
C7 C 0.4502(7) 0.2901(6) 0.5416(3)
H9 H 0.4979 0.3504 0.5275
H10 H 0.5076 0.2331 0.5310
C8 C 0.3019(6) 0.2467(5) 0.4930(3)
C9 C 0.2250(6) 0.3188(4) 0.4693(3)
C10 C 0.0879(6) 0.2758(4) 0.4236(3)
H12 H 0.0332 0.4262 0.4418
C14 C 0.0042(5) 0.3957(4) 0.1859(3)
C15 C 0.0089(5) 0.4237(4) 0.1121(3)
C16 C 0.1300(6) 0.3857(5) 0.2286(3)
H15 H 0.2174 0.3919 0.2105
C17 C 0.1235(6) 0.3665(5) 0.2971(3)
H16 H 0.2065 0.3577 0.3250
C18 C 0.0293(6) 0.1644(4) 0.3999(3)
C19 C 0.1075(7) 0.0942(4) 0.4241(3)
C27 C 0.2442(7) 0.1346(4) 0.4713(3)
C28 C 0.3301(11) 0.0591(6) 0.4984(4)
H23 H 0.3334 0.0742 0.5528
H24 H 0.4267 0.0709 0.4876
C30 C 0.2871(8) 0.4389(5) 0.4953(4)
H29 H 0.3256 0.4573 0.4539
H30 H 0.3629 0.4564 0.5387
H31 H 0.2125 0.4797 0.5098
O10 O 0.8685(4) 0.5491(3) 0.9021(2)
O12 O 0.8037(4) 0.3389(3) 0.9035(2)
O7 O 0.1963(4) 0.6611(3) 0.0965(2)
N3 N 0.0461(6) 0.9070(3) 0.3238(3)
C20 C 0.0349(8) 0.9764(4) 0.4033(3)
H17 H 0.0777 0.9456 0.4403
C21 C 0.1744(7) 0.8992(5) 0.3022(3)
H19 H 0.2568 0.9441 0.3348
C22 C 0.1891(6) 0.8276(5) 0.2336(3)
H20 H 0.2799 0.8221 0.2201
C23 C 0.0644(5) 0.7630(4) 0.1844(3)
C24 C 0.0738(5) 0.6765(4) 0.1100(3)
H25 H 0.2843 0.9845 0.4718
N2 N 0.9987(5) 0.3604(4) 0.3245(2)
C11 C 0.9975(7) 0.3539(4) 0.4048(3)
H11 H 0.8985 0.3310 0.4104
C12 C 0.8771(6) 0.3688(5) 0.2845(3)
H13 H 0.7914 0.3628 0.3043
C13 C 0.8760(6) 0.3860(5) 0.2148(3)
H14 H 0.7903 0.3911 0.1872
C29 C 0.8832(7) 0.1225(6) 0.3508(4)
H26 H 0.8482 0.0496 0.3502
H27 H 0.8899 0.1222 0.2993
H28 H 0.8176 0.1689 0.3715
H18 H 0.9334 0.9735 0.4077
C25 C 0.9326(6) 0.7753(4) 0.2060(3)
H21 H 0.8479 0.7354 0.1730
C26 C 0.9262(7) 0.8470(5) 0.2767(3)
H22 H 0.8368 0.8538 0.2918
O8 O 0.0432(4) 0.3758(3) 0.9311(2)
H18_2 H 0.0666 0.0265 0.5923
C25_2 C 0.0674(6) 0.2247(4) 0.7940(3)
H21_2 H 0.1521 0.2646 0.8270
C26_2 C 0.0738(7) 0.1530(5) 0.7233(3)
H22_2 H 0.1632 0.1462 0.7082
O6 O 0.1106(4) 0.5832(3) 0.9264(2)
N2_2 N 0.0013(5) 0.6396(4) 0.6755(2)
C11_2 C 0.0025(7) 0.6461(4) 0.5952(3)
H11_2 H 0.1015 0.6690 0.5896
C12_2 C 0.1229(6) 0.6312(5) 0.7155(3)
H13_2 H 0.2086 0.6372 0.6957
C13_2 C 0.1240(6) 0.6140(5) 0.7852(3)
H14_2 H 0.2097 0.6089 0.8128
C29_2 C 0.1168(7) 0.8775(6) 0.6492(4)
H26_2 H 0.1518 0.9504 0.6498
H27_2 H 0.1101 0.8778 0.7007
H28_2 H 0.1824 0.8311 0.6285
N3_2 N 0.9539(6) 0.0930(3) 0.6762(3)
C20_2 C 0.9651(8) 0.0236(4) 0.5967(3)
H17_2 H 0.9223 0.0544 0.5597
C21_2 C 0.8256(7) 0.1008(5) 0.6978(3)
H19_2 H 0.7432 0.0559 0.6652
C22_2 C 0.8109(6) 0.1724(5) 0.7664(3)
H20_2 H 0.7201 0.1779 0.7799
C23_2 C 0.9356(5) 0.2370(4) 0.8156(3)
C24_2 C 0.9262(5) 0.3235(4) 0.8900(3)
H25_2 H 0.7157 0.0155 0.5282
O1_2 O 0.4353(4) 0.5368(3) 0.08820(19)
H1_2 H 0.4198 0.7098 0.0429
O3_2 O 0.2956(4) 0.3319(3) 0.0017(3)
H4_2 H 0.3225 0.3053 0.0357
N1_2 N 0.5566(5) 0.6709(4) 0.3724(2)
C1_2 C 0.5540(5) 0.5592(4) 0.1306(2)
C2_2 C 0.5537(5) 0.5963(4) 0.2165(2)
C3_2 C 0.6800(5) 0.6156(4) 0.2677(3)
H5_2 H 0.7655 0.6030 0.2495
C4_2 C 0.6795(5) 0.6536(5) 0.3461(3)
H6_2 H 0.7649 0.6672 0.3806
C5_2 C 0.4320(6) 0.6509(5) 0.3241(3)
H7_2 H 0.3475 0.6623 0.3439
C6_2 C 0.4270(5) 0.6137(5) 0.2454(3)
H8_2 H 0.3400 0.6005 0.2121
C7_2 C 0.5498(7) 0.7099(6) 0.4584(3)
H9_2 H 0.5021 0.6496 0.4725
H10_2 H 0.4924 0.7669 0.4690
C8_2 C 0.6981(6) 0.7533(5) 0.5070(3)
C9_2 C 0.7750(6) 0.6812(4) 0.5307(3)
C10_2 C 0.9121(6) 0.7242(4) 0.5764(3)
H12_2 H 0.9668 0.5738 0.5582
C14_2 C 0.9958(5) 0.6043(4) 0.8141(3)
C15_2 C 0.9911(5) 0.5763(4) 0.8879(3)
C16_2 C 0.8700(6) 0.6143(5) 0.7714(3)
H15_2 H 0.7826 0.6081 0.7895
C17_2 C 0.8765(6) 0.6335(5) 0.7029(3)
H16_2 H 0.7935 0.6423 0.6750
C18_2 C 0.9707(6) 0.8356(4) 0.6001(3)
C19_2 C 0.8925(7) 0.9058(4) 0.5759(3)
C27_2 C 0.7558(7) 0.8654(4) 0.5287(3)
C28_2 C 0.6699(11) 0.9409(6) 0.5016(4)
H23_2 H 0.6666 0.9258 0.4472
H24_2 H 0.5733 0.9291 0.5124
C30_2 C 0.7129(8) 0.5611(5) 0.5047(4)
H29_2 H 0.6744 0.5427 0.5461
H30_2 H 0.6371 0.5436 0.4613
H31_2 H 0.7875 0.5203 0.4902
O2_2 O 0.3889(4) 0.6617(3) 0.9969(2)
H2_2 H 0.3977 0.6604 0.9529
H3_2 H 0.2360 0.2710 0.9801
O14 O 0.1907(14) 0.7703(9) 0.4353(10)
O15 O 0.1481(18) 0.6170(9) 0.4309(9)
O16 O 0.020(2) 0.6707(18) 0.3583(13)
N4 N 0.0960(8) 0.6778(6) 0.4092(4)
O14_2 O 0.8093(14) 0.2297(9) 0.5647(10)
O15_2 O 0.8519(18) 0.3830(9) 0.5691(9)
O16_2 O 0.980(2) 0.3293(18) 0.6417(13)
N4_2 N 0.9040(8) 0.3222(6) 0.5908(4)
Cl1 Cl 0.4950(4) 0.3739(4) 0.3270(2)
Cl1_2 Cl 0.5050(4) 0.6261(4) 0.6730(2)
O17 O 0.573(2) 0.1611(12) 0.0538(11)
O17_2 O 0.427(2) 0.8389(12) 0.9462(11)
Cl2 Cl 0.4689(4) 0.3111(3) 0.14800(19)
Cl2_2 Cl 0.5311(4) 0.6889(3) 0.85200(19)
Cl3 Cl 0.5746(5) 0.8952(4) 0.3025(3)
Cl3_2 Cl 0.4254(5) 0.1048(4) 0.6975(3)
loop_
_geom_bond_atom_site_label_1
_geom_bond_atom_site_label_2
_geom_bond_site_symmetry_1
_geom_bond_site_symmetry_2
H2 O2 1_555 1_555
Yb1 O1 1_555 1_555
O1 C1 1_555 1_555
O3 Yb1 1_555 1_555
H4 O3 1_555 1_555
O4 C1 1_555 1_555
O5 C15 1_555 1_555
N1 C4 1_555 1_555
C1 C2 1_555 1_555
C2 C3 1_555 1_555
C3 H5 1_555 1_555
C4 C3 1_555 1_555
H6 C4 1_555 1_555
C5 N1 1_555 1_555
H7 C5 1_555 1_555
C6 C2 1_555 1_555
H8 C6 1_555 1_555
C7 N1 1_555 1_555
H9 C7 1_555 1_555
H10 C7 1_555 1_555
C8 C7 1_555 1_555
C9 C8 1_555 1_555
C10 C9 1_555 1_555
C15 C14 1_555 1_555
C16 C14 1_555 1_555
H15 C16 1_555 1_555
H16 C17 1_555 1_555
C18 C10 1_555 1_555
C19 C18 1_555 1_555
C27 C8 1_555 1_555
C28 C27 1_555 1_555
H23 C28 1_555 1_555
H24 C28 1_555 1_555
C30 C9 1_555 1_555
H29 C30 1_555 1_555
H30 C30 1_555 1_555
H31 C30 1_555 1_555
Yb6 O5 1_555 1_555
O10 Yb1 1_555 1_555
O12 Yb1 1_555 1_555
C5 C6 1_555 1_555
C16 C17 1_555 1_555
C19 C27 1_555 1_555
O7 C24 1_555 1_555
N3 C20 1_555 1_555
H17 C20 1_555 1_555
C21 N3 1_555 1_555
H19 C21 1_555 1_555
C22 C21 1_555 1_555
H20 C22 1_555 1_555
C23 C22 1_555 1_555
C24 C23 1_555 1_555
Yb6 O7 1_555 1_555
N2 C11 1_555 1_555
H11 C11 1_555 1_555
C12 N2 1_555 1_555
H13 C12 1_555 1_555
C13 C12 1_555 1_555
H14 C13 1_555 1_555
H26 C29 1_555 1_555
H27 C29 1_555 1_555
H28 C29 1_555 1_555
H21 C25 1_555 1_555
H22 C26 1_555 1_555
C25 C26 1_555 1_555
H21_2 C25_2 1_555 1_555
H22_2 C26_2 1_555 1_555
C25_2 C26_2 1_555 1_555
N2_2 C11_2 1_555 1_555
H11_2 C11_2 1_555 1_555
C12_2 N2_2 1_555 1_555
H13_2 C12_2 1_555 1_555
C13_2 C12_2 1_555 1_555
H14_2 C13_2 1_555 1_555
H26_2 C29_2 1_555 1_555
H27_2 C29_2 1_555 1_555
H28_2 C29_2 1_555 1_555
O12 C24_2 1_555 1_555
N3_2 C20_2 1_555 1_555
H17_2 C20_2 1_555 1_555
C21_2 N3_2 1_555 1_555
H19_2 C21_2 1_555 1_555
C22_2 C21_2 1_555 1_555
H20_2 C22_2 1_555 1_555
C23_2 C22_2 1_555 1_555
C24_2 C23_2 1_555 1_555
Yb6 O1_2 1_555 1_555
O1_2 C1_2 1_555 1_555
O3_2 Yb6 1_555 1_555
H4_2 O3_2 1_555 1_555
O9 C1_2 1_555 1_555
O10 C15_2 1_555 1_555
N1_2 C4_2 1_555 1_555
C1_2 C2_2 1_555 1_555
C2_2 C3_2 1_555 1_555
C3_2 H5_2 1_555 1_555
C4_2 C3_2 1_555 1_555
H6_2 C4_2 1_555 1_555
C5_2 N1_2 1_555 1_555
H7_2 C5_2 1_555 1_555
C6_2 C2_2 1_555 1_555
H8_2 C6_2 1_555 1_555
C7_2 N1_2 1_555 1_555
H9_2 C7_2 1_555 1_555
H10_2 C7_2 1_555 1_555
C8_2 C7_2 1_555 1_555
C9_2 C8_2 1_555 1_555
C10_2 C9_2 1_555 1_555
C15_2 C14_2 1_555 1_555
C16_2 C14_2 1_555 1_555
H15_2 C16_2 1_555 1_555
H16_2 C17_2 1_555 1_555
C18_2 C10_2 1_555 1_555
C19_2 C18_2 1_555 1_555
C27_2 C8_2 1_555 1_555
C28_2 C27_2 1_555 1_555
H23_2 C28_2 1_555 1_555
H24_2 C28_2 1_555 1_555
C30_2 C9_2 1_555 1_555
H29_2 C30_2 1_555 1_555
H30_2 C30_2 1_555 1_555
H31_2 C30_2 1_555 1_555
C5_2 C6_2 1_555 1_555
C16_2 C17_2 1_555 1_555
C19_2 C27_2 1_555 1_555
H2_2 O2_2 1_555 1_555
O14 N4 1_555 1_555
O15 N4 1_555 1_555
O16 N4 1_555 1_555
O14_2 N4_2 1_555 1_555
O15_2 N4_2 1_555 1_555
O16_2 N4_2 1_555 1_555

#END
