
###############################################################################
#
# This file contains modified crystal structure data generated from the
# MOF subset of the Cambridge Structural Database (CSD) v543 
# hosted by the Cambridge Crystallographic Data Centre (CCDC).
#
# This work is licensed under the Creative Commons
# Attribution-NonCommercial-ShareAlike 4.0 International License.
# To view a copy of this license, visit
# http://creativecommons.org/licenses/by-nc-sa/4.0/
# or send a letter to
# Creative Commons, PO Box 1866, Mountain View, CA 94042, USA.
#
# CIF created using the CSD Python API on 29 September 2022
# The structure has been converted into the P1 space group
# The structure has a 3D framework
# The original CSD entry FANCOP is in the triclinic crystal system
# The framework has been calculated to contain at least 10.0% void space
# The void calculation uses a probe of radius 1.32A, grid spacing 0.4
#
###############################################################################

data_FANCOP
_chemical_formula_moiety         '(C60 H62 Cl4 N8 O20 Pr2)n'
_symmetry_cell_setting           triclinic
_symmetry_space_group_name_H-M   'P 1'
_symmetry_Int_Tables_number      1
_space_group_name_Hall           'P 1'
loop_
_symmetry_equiv_pos_site_id
_symmetry_equiv_pos_as_xyz
1 x,y,z
_cell_length_a                   9.5285(19)
_cell_length_b                   12.760(3)
_cell_length_c                   18.896(4)
_cell_angle_alpha                106.72(3)
_cell_angle_beta                 98.91(3)
_cell_angle_gamma                98.59(3)
_cell_volume                     2127.62
loop_
_atom_site_label
_atom_site_type_symbol
_atom_site_fract_x
_atom_site_fract_y
_atom_site_fract_z
O4 O 0.7135(5) 0.1789(4) 0.5152(3)
H3 H 0.7407 0.2052 0.4778
H4 H 0.6865 0.2175 0.5517
Pr6 Pr 0.23230(2) 0.01389(2) 0.50294(2)
O9 O 0.6877(3) 0.0408(3) 0.61773(17)
O10 O 0.8563(4) 0.0574(3) 0.39901(19)
O12 O 0.9885(4) 0.1165(3) 0.57177(18)
Pr1 Pr 0.76770(2) 0.98611(2) 0.49706(2)
O1 O 0.5453(4) 0.9614(3) 0.41139(17)
O2 O 0.5989(4) 0.8146(4) 0.5025(2)
H1 H 0.5420 0.7634 0.4624
H2 H 0.5719 0.8279 0.5465
O3 O 0.3123(3) 0.9592(3) 0.38227(17)
N1 N 0.4325(4) 0.8255(4) 0.1320(2)
C1 C 0.4316(4) 0.9456(4) 0.3648(2)
C2 C 0.5575(5) 0.8476(5) 0.1829(2)
H5 H 0.6425 0.8356 0.1664
C3 C 0.5605(5) 0.8874(5) 0.2579(2)
H6 H 0.6473 0.9027 0.2927
C4 C 0.4337(4) 0.9051(4) 0.2826(2)
C5 C 0.3084(4) 0.8846(4) 0.2297(2)
H7 H 0.2225 0.8975 0.2449
C6 C 0.3105(5) 0.8450(4) 0.1543(2)
H8 H 0.2257 0.8317 0.1184
C25 C 0.3067(9) 0.5488(6) 0.0023(4)
H18 H 0.2366 0.4862 0.0019
H19 H 0.3602 0.5871 0.0529
C29 C 0.2960(8) 0.9395(6) 0.0013(4)
H28 H 0.3805 0.9529 0.0402
H29 H 0.2277 0.9818 0.0213
C30 C 0.4384(6) 0.7843(6) 0.0489(3)
H30 H 0.4895 0.8454 0.0357
H31 H 0.4938 0.7255 0.0409
O11 O 0.9040(4) 0.8947(3) 0.57077(19)
O13 O 0.7767(4) 0.8181(3) 0.3937(2)
O5 O 0.1437(4) 0.9426(3) 0.60099(19)
O8 O 0.2233(4) 0.1819(3) 0.6063(2)
N2 N 0.0096(5) 0.8634(4) 0.8250(2)
N3 N 0.0425(5) 0.4038(3) 0.8198(2)
C7 C 0.0246(5) 0.9110(4) 0.6132(3)
C10 C 0.0194(5) 0.8917(4) 0.6881(3)
C11 C 0.1418(5) 0.8799(5) 0.7319(3)
H11 H 0.2282 0.8812 0.7148
C12 C 0.1360(6) 0.8662(5) 0.8008(3)
H12 H 0.2187 0.8590 0.8308
C13 C 0.0958(5) 0.1835(4) 0.6150(2)
C14 C 0.1702(6) 0.4021(5) 0.8055(3)
H13 H 0.2502 0.4479 0.8416
C15 C 0.1920(5) 0.3347(4) 0.7385(3)
H14 H 0.2851 0.3363 0.7291
C16 C 0.0751(5) 0.2655(4) 0.6858(3)
C19 C 0.2943(5) 0.7411(5) 0.9979(2)
C20 C 0.2312(6) 0.6262(4) 0.9735(3)
C21 C 0.0956(6) 0.5880(4) 0.9224(3)
C22 C 0.0258(5) 0.6632(4) 0.8958(3)
C23 C 0.0900(5) 0.7764(4) 0.9236(2)
C24 C 0.2243(5) 0.8163(4) 0.9730(2)
H17 H 0.3722 0.5229 0.9705
C26 C 0.0227(8) 0.4687(5) 0.8964(3)
H21 H 0.0601 0.4342 0.9329
C28 C 0.0078(6) 0.8602(4) 0.9035(3)
H26 H 0.0505 0.9340 0.9392
H27 H 0.3236 0.9621 0.9602
C8 C 0.8907(6) 0.8754(5) 0.7842(3)
H9 H 0.8062 0.8764 0.8030
C9 C 0.8918(5) 0.8865(5) 0.7142(3)
H10 H 0.8068 0.8906 0.6844
C17 C 0.9396(6) 0.2725(5) 0.7008(3)
H15 H 0.8577 0.2298 0.6648
C18 C 0.9241(7) 0.3403(5) 0.7669(4)
H16 H 0.8317 0.3437 0.7764
H20 H 0.9197 0.4639 0.8951
C27 C 0.8851(6) 0.6220(6) 0.8403(4)
H22 H 0.8987 0.5726 0.7940
H23 H 0.8500 0.6843 0.8306
H24 H 0.8158 0.5826 0.8604
H25 H 0.9080 0.8414 0.9082
O6 O 0.0960(4) 0.1053(3) 0.42923(19)
O7 O 0.0115(4) 0.8835(3) 0.42823(18)
C8_2 C 0.1093(6) 0.1246(5) 0.2158(3)
H9_2 H 0.1938 0.1236 0.1970
C9_2 C 0.1082(5) 0.1135(5) 0.2858(3)
H10_2 H 0.1932 0.1094 0.3156
C17_2 C 0.0604(6) 0.7275(5) 0.2992(3)
H15_2 H 0.1423 0.7702 0.3352
C18_2 C 0.0759(7) 0.6597(5) 0.2331(4)
H16_2 H 0.1683 0.6563 0.2236
H20_2 H 0.0803 0.5361 0.1049
C27_2 C 0.1149(6) 0.3780(6) 0.1597(4)
H22_2 H 0.1013 0.4274 0.2060
H23_2 H 0.1500 0.3157 0.1694
H24_2 H 0.1842 0.4174 0.1396
H25_2 H 0.0920 0.1586 0.0918
N2_2 N 0.9904(5) 0.1366(4) 0.1750(2)
N3_2 N 0.9575(5) 0.5962(3) 0.1802(2)
C7_2 C 0.9754(5) 0.0890(4) 0.3868(3)
C10_2 C 0.9806(5) 0.1083(4) 0.3119(3)
C11_2 C 0.8582(5) 0.1201(5) 0.2681(3)
H11_2 H 0.7718 0.1188 0.2852
C12_2 C 0.8640(6) 0.1338(5) 0.1992(3)
H12_2 H 0.7813 0.1410 0.1692
C13_2 C 0.9042(5) 0.8165(4) 0.3850(2)
C14_2 C 0.8298(6) 0.5979(5) 0.1945(3)
H13_2 H 0.7498 0.5521 0.1584
C15_2 C 0.8080(5) 0.6653(4) 0.2615(3)
H14_2 H 0.7149 0.6637 0.2709
C16_2 C 0.9249(5) 0.7345(4) 0.3142(3)
C19_2 C 0.7057(5) 0.2589(5) 0.0021(2)
C20_2 C 0.7688(6) 0.3738(4) 0.0265(3)
C21_2 C 0.9044(6) 0.4120(4) 0.0776(3)
C22_2 C 0.9742(5) 0.3368(4) 0.1042(3)
C23_2 C 0.9100(5) 0.2236(4) 0.0764(2)
C24_2 C 0.7757(5) 0.1837(4) 0.0270(2)
H17_2 H 0.6278 0.4771 0.0295
C26_2 C 0.9773(8) 0.5313(5) 0.1036(3)
H21_2 H 0.9399 0.5658 0.0671
C28_2 C 0.9922(6) 0.1398(4) 0.0965(3)
H26_2 H 0.9495 0.0660 0.0608
H27_2 H 0.6764 0.0379 0.0398
O1_2 O 0.4547(4) 0.0386(3) 0.58861(17)
O2_2 O 0.4011(4) 0.1854(4) 0.4975(2)
H1_2 H 0.4580 0.2366 0.5376
H2_2 H 0.4281 0.1721 0.4535
N1_2 N 0.5675(4) 0.1745(4) 0.8680(2)
C1_2 C 0.5684(4) 0.0544(4) 0.6352(2)
C2_2 C 0.4425(5) 0.1524(5) 0.8171(2)
H5_2 H 0.3575 0.1644 0.8336
C3_2 C 0.4395(5) 0.1126(5) 0.7421(2)
H6_2 H 0.3527 0.0973 0.7073
C4_2 C 0.5663(4) 0.0949(4) 0.7174(2)
C5_2 C 0.6916(4) 0.1154(4) 0.7703(2)
H7_2 H 0.7775 0.1025 0.7551
C6_2 C 0.6895(5) 0.1550(4) 0.8457(2)
H8_2 H 0.7743 0.1683 0.8816
C25_2 C 0.6933(9) 0.4512(6) 0.9977(4)
H18_2 H 0.7634 0.5138 0.9981
H19_2 H 0.6398 0.4129 0.9471
C29_2 C 0.7040(8) 0.0605(6) 0.9987(4)
H28_2 H 0.6195 0.0471 0.9598
H29_2 H 0.7723 0.0182 0.9787
C30_2 C 0.5616(6) 0.2157(6) 0.9511(3)
H30_2 H 0.5105 0.1546 0.9643
H31_2 H 0.5062 0.2745 0.9591
O4_2 O 0.2865(5) 0.8211(4) 0.4848(3)
H3_2 H 0.2593 0.7948 0.5222
H4_2 H 0.3135 0.7825 0.4483
N4 N 0.8953(5) 0.8245(4) 0.0930(3)
O14 O 0.851(2) 0.8701(15) 0.0502(11)
O15 O 0.7943(14) 0.7320(9) 0.0735(8)
O16 O 0.953(2) 0.8348(19) 0.1569(9)
N4_2 N 0.1047(5) 0.1755(4) 0.9070(3)
O14_2 O 0.149(2) 0.1299(15) 0.9498(11)
O15_2 O 0.2057(14) 0.2680(9) 0.9265(8)
O16_2 O 0.047(2) 0.1652(19) 0.8431(9)
Cl1 Cl 0.5098(4) 0.8666(5) 0.8189(3)
Cl1_2 Cl 0.4902(4) 0.1334(5) 0.1811(3)
Cl2 Cl 0.4153(4) 0.6051(4) 0.2034(3)
Cl2_2 Cl 0.5847(4) 0.3949(4) 0.7966(3)
loop_
_geom_bond_atom_site_label_1
_geom_bond_atom_site_label_2
_geom_bond_site_symmetry_1
_geom_bond_site_symmetry_2
H3 O4 1_555 1_555
H4 O4 1_555 1_555
Pr1 O1 1_555 1_555
O1 C1 1_555 1_555
O2 Pr1 1_555 1_555
H1 O2 1_555 1_555
H2 O2 1_555 1_555
O3 C1 1_555 1_555
N1 C2 1_555 1_555
C1 C4 1_555 1_555
C2 H5 1_555 1_555
C3 C2 1_555 1_555
H6 C3 1_555 1_555
C4 C3 1_555 1_555
C5 C4 1_555 1_555
H7 C5 1_555 1_555
C6 N1 1_555 1_555
H8 C6 1_555 1_555
H18 C25 1_555 1_555
H19 C25 1_555 1_555
H28 C29 1_555 1_555
H29 C29 1_555 1_555
C30 N1 1_555 1_555
H30 C30 1_555 1_555
H31 C30 1_555 1_555
O11 Pr1 1_555 1_555
O13 Pr1 1_555 1_555
C5 C6 1_555 1_555
O5 C7 1_555 1_555
O8 C13 1_555 1_555
N3 C14 1_555 1_555
C7 C10 1_555 1_555
C11 C10 1_555 1_555
H11 C11 1_555 1_555
C12 N2 1_555 1_555
H12 C12 1_555 1_555
C13 C16 1_555 1_555
C14 H13 1_555 1_555
C15 C14 1_555 1_555
H14 C15 1_555 1_555
C16 C15 1_555 1_555
C19 C20 1_555 1_555
C20 C21 1_555 1_555
C21 C22 1_555 1_555
C22 C23 1_555 1_555
C23 C24 1_555 1_555
C24 C19 1_555 1_555
C26 N3 1_555 1_555
H21 C26 1_555 1_555
C28 N2 1_555 1_555
H26 C28 1_555 1_555
Pr6 O8 1_555 1_555
C11 C12 1_555 1_555
C21 C26 1_555 1_555
C23 C28 1_555 1_555
C8 H9 1_555 1_555
C9 C8 1_555 1_555
H10 C9 1_555 1_555
H15 C17 1_555 1_555
H16 C18 1_555 1_555
H22 C27 1_555 1_555
H23 C27 1_555 1_555
H24 C27 1_555 1_555
C17 C18 1_555 1_555
C8_2 H9_2 1_555 1_555
C9_2 C8_2 1_555 1_555
H10_2 C9_2 1_555 1_555
H15_2 C17_2 1_555 1_555
H16_2 C18_2 1_555 1_555
H22_2 C27_2 1_555 1_555
H23_2 C27_2 1_555 1_555
H24_2 C27_2 1_555 1_555
Pr6 O6 1_555 1_555
C17_2 C18_2 1_555 1_555
O10 C7_2 1_555 1_555
O13 C13_2 1_555 1_555
N3_2 C14_2 1_555 1_555
C7_2 C10_2 1_555 1_555
C11_2 C10_2 1_555 1_555
H11_2 C11_2 1_555 1_555
C12_2 N2_2 1_555 1_555
H12_2 C12_2 1_555 1_555
C13_2 C16_2 1_555 1_555
C14_2 H13_2 1_555 1_555
C15_2 C14_2 1_555 1_555
H14_2 C15_2 1_555 1_555
C16_2 C15_2 1_555 1_555
C19_2 C20_2 1_555 1_555
C20_2 C21_2 1_555 1_555
C21_2 C22_2 1_555 1_555
C22_2 C23_2 1_555 1_555
C23_2 C24_2 1_555 1_555
C24_2 C19_2 1_555 1_555
C26_2 N3_2 1_555 1_555
H21_2 C26_2 1_555 1_555
C28_2 N2_2 1_555 1_555
H26_2 C28_2 1_555 1_555
C11_2 C12_2 1_555 1_555
C21_2 C26_2 1_555 1_555
C23_2 C28_2 1_555 1_555
Pr6 O1_2 1_555 1_555
O1_2 C1_2 1_555 1_555
O2_2 Pr6 1_555 1_555
H1_2 O2_2 1_555 1_555
H2_2 O2_2 1_555 1_555
O9 C1_2 1_555 1_555
N1_2 C2_2 1_555 1_555
C1_2 C4_2 1_555 1_555
C2_2 H5_2 1_555 1_555
C3_2 C2_2 1_555 1_555
H6_2 C3_2 1_555 1_555
C4_2 C3_2 1_555 1_555
C5_2 C4_2 1_555 1_555
H7_2 C5_2 1_555 1_555
C6_2 N1_2 1_555 1_555
H8_2 C6_2 1_555 1_555
H18_2 C25_2 1_555 1_555
H19_2 C25_2 1_555 1_555
H28_2 C29_2 1_555 1_555
H29_2 C29_2 1_555 1_555
C30_2 N1_2 1_555 1_555
H30_2 C30_2 1_555 1_555
H31_2 C30_2 1_555 1_555
C5_2 C6_2 1_555 1_555
H3_2 O4_2 1_555 1_555
H4_2 O4_2 1_555 1_555
N4 O14 1_555 1_555
O15 N4 1_555 1_555
O16 N4 1_555 1_555
N4_2 O14_2 1_555 1_555
O15_2 N4_2 1_555 1_555
O16_2 N4_2 1_555 1_555

#END
