
###############################################################################
#
# This file contains modified crystal structure data generated from the
# MOF subset of the Cambridge Structural Database (CSD) v543 
# hosted by the Cambridge Crystallographic Data Centre (CCDC).
#
# This work is licensed under the Creative Commons
# Attribution-NonCommercial-ShareAlike 4.0 International License.
# To view a copy of this license, visit
# http://creativecommons.org/licenses/by-nc-sa/4.0/
# or send a letter to
# Creative Commons, PO Box 1866, Mountain View, CA 94042, USA.
#
# CIF created using the CSD Python API on 29 September 2022
# The structure has been converted into the P1 space group
# The structure has a 3D framework
# The original CSD entry FANDEG is in the triclinic crystal system
# The framework has been calculated to contain at least 10.0% void space
# The void calculation uses a probe of radius 1.32A, grid spacing 0.4
#
###############################################################################

data_FANDEG
_chemical_formula_moiety         '(C60 H62 Cl4 Gd2 N8 O20)n'
_symmetry_cell_setting           triclinic
_symmetry_space_group_name_H-M   'P 1'
_symmetry_Int_Tables_number      1
_space_group_name_Hall           'P 1'
loop_
_symmetry_equiv_pos_site_id
_symmetry_equiv_pos_as_xyz
1 x,y,z
_cell_length_a                   9.5522(4)
_cell_length_b                   12.9330(6)
_cell_length_c                   18.7637(9)
_cell_angle_alpha                106.9720(10)
_cell_angle_beta                 98.2490(10)
_cell_angle_gamma                97.7940(10)
_cell_volume                     2155.23
loop_
_atom_site_label
_atom_site_type_symbol
_atom_site_fract_x
_atom_site_fract_y
_atom_site_fract_z
Gd3 Gd 0.23407(2) 0.01044(2) 0.50250(2)
O5 O 0.0980(4) 0.0952(3) 0.4295(2)
O6 O 0.0296(4) 0.8810(3) 0.42938(19)
C16 C 0.1082(5) 0.1070(5) 0.2857(3)
H9 H 0.1926 0.1017 0.3149
C19 C 0.0653(6) 0.7247(4) 0.2988(3)
H11 H 0.1480 0.7651 0.3336
C23 C 0.1088(6) 0.1202(5) 0.2154(3)
H15 H 0.1930 0.1197 0.1960
H17 H 0.0921 0.1608 0.0923
H20 H 0.0775 0.5296 0.1039
C27 C 0.0763(6) 0.6537(4) 0.2304(3)
H22 H 0.1666 0.6472 0.2186
C28 C 0.1113(6) 0.3745(5) 0.1600(4)
H23 H 0.0999 0.3606 0.2066
H24 H 0.1414 0.4521 0.1699
H25 H 0.1826 0.3361 0.1389
O3 O 0.8572(4) 0.0516(3) 0.40078(18)
O4 O 0.7927(4) 0.8296(3) 0.39834(18)
N2 N 0.9900(4) 0.1338(3) 0.1750(2)
N3 N 0.9571(5) 0.5934(3) 0.1802(2)
C3 C 0.9307(5) 0.7360(4) 0.3159(3)
C4 C 0.9802(5) 0.1015(4) 0.3121(2)
C5 C 0.9085(5) 0.2226(4) 0.0770(2)
C7 C 0.9178(5) 0.8221(4) 0.3883(2)
C8 C 0.9774(5) 0.0807(4) 0.3874(2)
C9 C 0.7743(5) 0.1835(4) 0.0284(2)
C11 C 0.9001(6) 0.4089(4) 0.0793(2)
C12 C 0.8584(5) 0.1142(4) 0.2689(3)
H7 H 0.7717 0.1112 0.2859
C14 C 0.9693(5) 0.3346(4) 0.1043(2)
C15 C 0.7041(5) 0.2594(4) 0.0041(2)
C17 C 0.7661(6) 0.3716(4) 0.0275(2)
C18 C 0.8113(5) 0.6693(4) 0.2647(3)
H10 H 0.7196 0.6712 0.2757
C20 C 0.8304(6) 0.5998(4) 0.1970(3)
H12 H 0.7498 0.5560 0.1620
C22 C 0.8656(5) 0.1313(4) 0.2007(3)
H14 H 0.7838 0.1413 0.1720
C24 C 0.9928(6) 0.1406(4) 0.0966(3)
H16 H 0.9540 0.0685 0.0599
C26 C 0.9755(7) 0.5273(4) 0.1037(3)
H21 H 0.9387 0.5609 0.0667
H28 H 0.6997 0.0376 0.0422
H29 H 0.7388 0.5244 0.0256
H30 H 0.5923 0.4422 0.0084
Gd6 Gd 0.76593(2) 0.98956(2) 0.49750(2)
O1 O 0.4480(3) 0.0388(3) 0.58799(17)
O2 O 0.6822(3) 0.0452(3) 0.61450(17)
O7 O 0.3916(4) 0.1735(3) 0.4967(2)
H1 H 0.4478 0.2257 0.5374
H2 H 0.4165 0.1899 0.4595
N1 N 0.5644(4) 0.1766(3) 0.86957(19)
C1 C 0.5633(4) 0.0569(4) 0.6323(2)
C2 C 0.5628(4) 0.0972(4) 0.7169(2)
C6 C 0.6890(5) 0.1189(4) 0.7689(2)
H5 H 0.7741 0.1054 0.7525
C10 C 0.6885(5) 0.1611(4) 0.8459(2)
H6 H 0.7741 0.1786 0.8811
C13 C 0.4362(5) 0.1136(4) 0.7428(2)
H8 H 0.3494 0.0972 0.7086
C21 C 0.4400(5) 0.1543(5) 0.8194(3)
H13 H 0.3555 0.1665 0.8369
C25 C 0.5590(6) 0.2184(6) 0.9524(3)
H18 H 0.5072 0.1595 0.9663
H19 H 0.5049 0.2777 0.9606
C29 C 0.7094(8) 0.0636(5) 0.9999(3)
H26 H 0.7706 0.0237 0.9705
H27 H 0.6163 0.0526 0.9687
C30 C 0.6889(9) 0.4503(6) 0.9993(4)
H31 H 0.6863 0.4343 0.9458
O11 O 0.2073(4) 0.1704(3) 0.60166(18)
O8 O 0.2942(5) 0.8291(3) 0.4914(3)
H3 H 0.3178 0.7717 0.4614
H4 H 0.3442 0.8201 0.5294
O9 O 0.3178(3) 0.9548(3) 0.38550(17)
O10 O 0.1428(4) 0.9484(3) 0.59922(18)
O8_2 O 0.7058(5) 0.1709(3) 0.5086(3)
H3_2 H 0.6822 0.2283 0.5386
H4_2 H 0.6558 0.1799 0.4706
O13 O 0.9704(4) 0.1190(3) 0.57062(19)
O1_2 O 0.5520(3) 0.9612(3) 0.41201(17)
O7_2 O 0.6084(4) 0.8265(3) 0.5033(2)
H1_2 H 0.5522 0.7743 0.4626
H2_2 H 0.5835 0.8101 0.5405
N1_2 N 0.4356(4) 0.8234(3) 0.13043(19)
C1_2 C 0.4367(4) 0.9431(4) 0.3677(2)
C2_2 C 0.4372(4) 0.9028(4) 0.2831(2)
C6_2 C 0.3110(5) 0.8811(4) 0.2311(2)
H5_2 H 0.2259 0.8946 0.2475
C10_2 C 0.3115(5) 0.8389(4) 0.1541(2)
H6_2 H 0.2259 0.8214 0.1189
C13_2 C 0.5638(5) 0.8864(4) 0.2572(2)
H8_2 H 0.6506 0.9028 0.2914
C21_2 C 0.5600(5) 0.8457(5) 0.1806(3)
H13_2 H 0.6445 0.8335 0.1631
C25_2 C 0.4410(6) 0.7816(6) 0.0476(3)
H18_2 H 0.4928 0.8405 0.0337
H19_2 H 0.4951 0.7223 0.0394
C29_2 C 0.2906(8) 0.9364(5) 0.0001(3)
H26_2 H 0.2294 0.9763 0.0295
H27_2 H 0.3837 0.9474 0.0313
C30_2 C 0.3111(9) 0.5497(6) 0.0007(4)
H31_2 H 0.3137 0.5657 0.0542
O12 O 0.9020(4) 0.9048(3) 0.5705(2)
N2_2 N 0.0100(4) 0.8662(3) 0.8250(2)
N3_2 N 0.0429(5) 0.4066(3) 0.8198(2)
C3_2 C 0.0693(5) 0.2640(4) 0.6841(3)
C4_2 C 0.0198(5) 0.8985(4) 0.6879(2)
C5_2 C 0.0915(5) 0.7774(4) 0.9230(2)
C7_2 C 0.0822(5) 0.1779(4) 0.6117(2)
C8_2 C 0.0226(5) 0.9193(4) 0.6126(2)
C9_2 C 0.2257(5) 0.8165(4) 0.9716(2)
C11_2 C 0.0999(6) 0.5911(4) 0.9207(2)
C12_2 C 0.1416(5) 0.8858(4) 0.7311(3)
H7_2 H 0.2283 0.8888 0.7141
C14_2 C 0.0307(5) 0.6654(4) 0.8957(2)
C15_2 C 0.2959(5) 0.7406(4) 0.9959(2)
C17_2 C 0.2339(6) 0.6284(4) 0.9725(2)
C18_2 C 0.1887(5) 0.3307(4) 0.7353(3)
H10_2 H 0.2804 0.3288 0.7243
C20_2 C 0.1696(6) 0.4002(4) 0.8030(3)
H12_2 H 0.2502 0.4440 0.8380
C22_2 C 0.1344(5) 0.8687(4) 0.7993(3)
H14_2 H 0.2162 0.8587 0.8280
C24_2 C 0.0072(6) 0.8594(4) 0.9034(3)
H16_2 H 0.0460 0.9315 0.9401
C26_2 C 0.0245(7) 0.4727(4) 0.8963(3)
H21_2 H 0.0613 0.4391 0.9333
H28_2 H 0.3003 0.9624 0.9578
H29_2 H 0.2612 0.4756 0.9744
H30_2 H 0.4077 0.5578 0.9916
C16_2 C 0.8918(5) 0.8930(5) 0.7143(3)
H9_2 H 0.8074 0.8983 0.6851
C19_2 C 0.9347(6) 0.2753(4) 0.7012(3)
H11_2 H 0.8520 0.2349 0.6664
C23_2 C 0.8912(6) 0.8798(5) 0.7846(3)
H15_2 H 0.8070 0.8803 0.8040
H17_2 H 0.9079 0.8392 0.9077
H20_2 H 0.9225 0.4704 0.8961
C27_2 C 0.9237(6) 0.3463(4) 0.7696(3)
H22_2 H 0.8334 0.3528 0.7814
C28_2 C 0.8887(6) 0.6255(5) 0.8400(4)
H23_2 H 0.9001 0.6394 0.7934
H24_2 H 0.8586 0.5479 0.8301
H25_2 H 0.8174 0.6639 0.8611
Cl1 Cl 0.5806(4) 0.3959(3) 0.7985(3)
Cl1_2 Cl 0.4194(4) 0.6041(3) 0.2015(3)
N4 N 0.1042(6) 0.1803(5) 0.9092(3)
O14 O 0.137(3) 0.1190(12) 0.9386(11)
O15 O 0.021(2) 0.169(2) 0.8557(11)
O16 O 0.2023(13) 0.2688(9) 0.9293(8)
N4_2 N 0.8958(6) 0.8197(5) 0.0908(3)
O14_2 O 0.863(3) 0.8810(12) 0.0614(11)
O15_2 O 0.979(2) 0.831(2) 0.1443(11)
O16_2 O 0.7977(13) 0.7312(9) 0.0707(8)
Cl2 Cl 0.4935(5) 0.1208(5) 0.1782(3)
Cl2_2 Cl 0.5065(5) 0.8792(5) 0.8218(3)
loop_
_geom_bond_atom_site_label_1
_geom_bond_atom_site_label_2
_geom_bond_site_symmetry_1
_geom_bond_site_symmetry_2
H9 C16 1_555 1_555
H11 C19 1_555 1_555
H15 C23 1_555 1_555
H22 C27 1_555 1_555
H23 C28 1_555 1_555
H24 C28 1_555 1_555
H25 C28 1_555 1_555
Gd3 O5 1_555 1_555
C16 C23 1_555 1_555
C19 C27 1_555 1_555
O3 C8 1_555 1_555
O4 C7 1_555 1_555
N2 C22 1_555 1_555
N3 C20 1_555 1_555
C3 C7 1_555 1_555
C4 C8 1_555 1_555
C5 C9 1_555 1_555
C9 C15 1_555 1_555
C11 C14 1_555 1_555
C12 C4 1_555 1_555
H7 C12 1_555 1_555
C14 C5 1_555 1_555
C15 C17 1_555 1_555
C17 C11 1_555 1_555
C18 C3 1_555 1_555
H10 C18 1_555 1_555
C20 C18 1_555 1_555
H12 C20 1_555 1_555
C22 C12 1_555 1_555
H14 C22 1_555 1_555
C24 N2 1_555 1_555
H16 C24 1_555 1_555
C26 N3 1_555 1_555
H21 C26 1_555 1_555
Gd6 O4 1_555 1_555
C5 C24 1_555 1_555
C11 C26 1_555 1_555
Gd3 O1 1_555 1_555
O1 C1 1_555 1_555
O2 C1 1_555 1_555
O7 Gd3 1_555 1_555
H1 O7 1_555 1_555
H2 O7 1_555 1_555
N1 C10 1_555 1_555
C1 C2 1_555 1_555
C2 C6 1_555 1_555
C6 H5 1_555 1_555
C10 C6 1_555 1_555
H6 C10 1_555 1_555
C13 C2 1_555 1_555
H8 C13 1_555 1_555
C21 N1 1_555 1_555
H13 C21 1_555 1_555
C25 N1 1_555 1_555
H18 C25 1_555 1_555
H19 C25 1_555 1_555
H26 C29 1_555 1_555
H27 C29 1_555 1_555
H31 C30 1_555 1_555
O11 Gd3 1_555 1_555
C13 C21 1_555 1_555
H3 O8 1_555 1_555
H4 O8 1_555 1_555
H3_2 O8_2 1_555 1_555
H4_2 O8_2 1_555 1_555
Gd6 O1_2 1_555 1_555
O1_2 C1_2 1_555 1_555
O9 C1_2 1_555 1_555
O7_2 Gd6 1_555 1_555
H1_2 O7_2 1_555 1_555
H2_2 O7_2 1_555 1_555
N1_2 C10_2 1_555 1_555
C1_2 C2_2 1_555 1_555
C2_2 C6_2 1_555 1_555
C6_2 H5_2 1_555 1_555
C10_2 C6_2 1_555 1_555
H6_2 C10_2 1_555 1_555
C13_2 C2_2 1_555 1_555
H8_2 C13_2 1_555 1_555
C21_2 N1_2 1_555 1_555
H13_2 C21_2 1_555 1_555
C25_2 N1_2 1_555 1_555
H18_2 C25_2 1_555 1_555
H19_2 C25_2 1_555 1_555
H26_2 C29_2 1_555 1_555
H27_2 C29_2 1_555 1_555
H31_2 C30_2 1_555 1_555
O12 Gd6 1_555 1_555
C13_2 C21_2 1_555 1_555
O10 C8_2 1_555 1_555
O11 C7_2 1_555 1_555
N2_2 C22_2 1_555 1_555
N3_2 C20_2 1_555 1_555
C3_2 C7_2 1_555 1_555
C4_2 C8_2 1_555 1_555
C5_2 C9_2 1_555 1_555
C9_2 C15_2 1_555 1_555
C11_2 C14_2 1_555 1_555
C12_2 C4_2 1_555 1_555
H7_2 C12_2 1_555 1_555
C14_2 C5_2 1_555 1_555
C15_2 C17_2 1_555 1_555
C17_2 C11_2 1_555 1_555
C18_2 C3_2 1_555 1_555
H10_2 C18_2 1_555 1_555
C20_2 C18_2 1_555 1_555
H12_2 C20_2 1_555 1_555
C22_2 C12_2 1_555 1_555
H14_2 C22_2 1_555 1_555
C24_2 N2_2 1_555 1_555
H16_2 C24_2 1_555 1_555
C26_2 N3_2 1_555 1_555
H21_2 C26_2 1_555 1_555
C5_2 C24_2 1_555 1_555
C11_2 C26_2 1_555 1_555
H9_2 C16_2 1_555 1_555
H11_2 C19_2 1_555 1_555
H15_2 C23_2 1_555 1_555
H22_2 C27_2 1_555 1_555
H23_2 C28_2 1_555 1_555
H24_2 C28_2 1_555 1_555
H25_2 C28_2 1_555 1_555
C16_2 C23_2 1_555 1_555
C19_2 C27_2 1_555 1_555
N4 O14 1_555 1_555
O15 N4 1_555 1_555
O16 N4 1_555 1_555
N4_2 O14_2 1_555 1_555
O15_2 N4_2 1_555 1_555
O16_2 N4_2 1_555 1_555

#END
