
###############################################################################
#
# This file contains modified crystal structure data generated from the
# MOF subset of the Cambridge Structural Database (CSD) v543 
# hosted by the Cambridge Crystallographic Data Centre (CCDC).
#
# This work is licensed under the Creative Commons
# Attribution-NonCommercial-ShareAlike 4.0 International License.
# To view a copy of this license, visit
# http://creativecommons.org/licenses/by-nc-sa/4.0/
# or send a letter to
# Creative Commons, PO Box 1866, Mountain View, CA 94042, USA.
#
# CIF created using the CSD Python API on 29 September 2022
# The structure has been converted into the P1 space group
# The structure has a 3D framework
# The original CSD entry FANQER01 is in the monoclinic crystal system
# The framework has been calculated to contain at least 10.0% void space
# The void calculation uses a probe of radius 1.32A, grid spacing 0.4
#
###############################################################################

data_FANQER01
_chemical_formula_moiety         '(C48 H32 Mn11 N36 O8 W4)n'
_symmetry_cell_setting           triclinic
_symmetry_space_group_name_H-M   'P 1'
_symmetry_Int_Tables_number      1
_space_group_name_Hall           'P 1'
loop_
_symmetry_equiv_pos_site_id
_symmetry_equiv_pos_as_xyz
1 x,y,z
_cell_length_a                   7.2319(4)
_cell_length_b                   14.9477(8)
_cell_length_c                   22.4483(13)
_cell_angle_alpha                90
_cell_angle_beta                 90.920(6)
_cell_angle_gamma                90
_cell_volume                     2426.35
loop_
_atom_site_label
_atom_site_type_symbol
_atom_site_fract_x
_atom_site_fract_y
_atom_site_fract_z
N2 N 0.0664(11) 0.3616(5) 0.2039(4)
N4 N 0.0674(11) 0.0819(5) 0.2320(3)
Mn4 Mn 0.24664(17) 0.47329(8) 0.23319(5)
Mn11 Mn 0.000000 0.000000 0.000000
Mn11_2 Mn -0.000000 -0.000000 1.000000
Mn6 Mn 0.25336(17) 0.97329(8) 0.26681(5)
Mn11_3 Mn 0.000000 1.000000 0.000000
Mn11_4 Mn -0.000000 1.000000 1.000000
Mn9 Mn 0.74664(17) 0.02671(8) 0.73319(5)
W1 W 0.73781(4) 0.21377(2) 0.17819(2)
Mn2 Mn 0.500000 0.500000 0.500000
O1 O 0.2298(9) 0.5350(5) 0.1476(3)
H1 H 0.319722 0.571030 0.143756
H2 H 0.134132 0.568085 0.146018
O2 O 0.2914(12) 0.5996(6) 0.4986(4)
H3 H 0.191745 0.579758 0.516548
H4 H 0.248384 0.610283 0.462070
N1 N 0.4863(11) 0.3932(5) 0.2063(3)
N3 N 0.8621(12) 0.0738(6) 0.0722(4)
N5 N 0.4971(11) 0.0470(6) 0.2337(4)
N6 N 0.3516(13) 0.1873(6) 0.1004(4)
N7 N 0.7870(13) 0.3300(6) 0.0540(4)
N8 N 0.7457(17) 0.2464(7) 0.3242(4)
N9 N 0.2777(12) 0.4015(5) 0.3250(4)
N10 N 0.3583(12) 0.4136(5) 0.4276(3)
C1 C 0.5727(12) 0.3315(6) 0.1958(4)
C2 C 0.9588(12) 0.3087(5) 0.1936(4)
C3 C 0.8178(13) 0.1198(6) 0.1098(4)
C4 C 0.9570(13) 0.1300(5) 0.2141(4)
C5 C 0.5863(13) 0.1026(7) 0.2142(4)
C6 C 0.4840(13) 0.1971(5) 0.1273(4)
C7 C 0.7705(13) 0.2914(7) 0.0976(4)
C8 C 0.7410(14) 0.2348(6) 0.2735(4)
C9 C 0.3214(13) 0.4468(6) 0.3741(4)
H5 H 0.326638 0.508689 0.370522
C10 C 0.3449(16) 0.3256(7) 0.4321(5)
H6 H 0.366763 0.299258 0.469049
C11 C 0.3003(19) 0.2717(7) 0.3849(5)
H7 H 0.290726 0.210000 0.389243
C12 C 0.2704(16) 0.3121(6) 0.3312(5)
H8 H 0.244198 0.276937 0.297952
W2 W 0.26219(4) 0.78623(2) 0.82181(2)
Mn3 Mn 0.75336(17) 0.52671(8) 0.76681(5)
O3 O 0.7702(9) 0.4650(5) 0.8524(3)
H9 H 0.680278 0.428970 0.856244
H10 H 0.865868 0.431915 0.853982
O4 O 0.7086(12) 0.4004(6) 0.5014(4)
H11 H 0.808255 0.420242 0.483452
H12 H 0.751616 0.389717 0.537930
N11 N 0.5137(11) 0.6068(5) 0.7937(3)
N13 N 0.1379(12) 0.9262(6) 0.9278(4)
N15 N 0.5029(11) 0.9530(6) 0.7663(4)
N16 N 0.6484(13) 0.8127(6) 0.8996(4)
N17 N 0.2130(13) 0.6700(6) 0.9460(4)
N18 N 0.2543(17) 0.7536(7) 0.6758(4)
N19 N 0.7223(12) 0.5985(5) 0.6750(4)
N20 N 0.6417(12) 0.5864(5) 0.5724(3)
C13 C 0.4273(12) 0.6685(6) 0.8042(4)
C14 C 0.0412(12) 0.6913(5) 0.8064(4)
C15 C 0.1822(13) 0.8802(6) 0.8902(4)
C16 C 0.0430(13) 0.8700(5) 0.7859(4)
C17 C 0.4137(13) 0.8974(7) 0.7858(4)
C18 C 0.5160(13) 0.8029(5) 0.8727(4)
C19 C 0.2295(13) 0.7086(7) 0.9024(4)
C20 C 0.2590(14) 0.7652(6) 0.7265(4)
C21 C 0.6786(13) 0.5532(6) 0.6259(4)
H13 H 0.673362 0.491311 0.629478
C22 C 0.6551(16) 0.6744(7) 0.5679(5)
H14 H 0.633237 0.700742 0.530951
C23 C 0.6997(19) 0.7283(7) 0.6151(5)
H15 H 0.709274 0.790000 0.610757
C24 C 0.7296(16) 0.6879(6) 0.6688(5)
H16 H 0.755802 0.723063 0.702048
Mn11_5 Mn 1.000000 0.000000 0.000000
N22 N 0.9336(11) 0.6384(5) 0.7961(4)
N23 N 0.6379(12) 0.5738(6) 0.4278(4)
N24 N 0.3621(12) 0.4262(6) 0.5722(4)
N25 N 0.4326(11) 0.5819(5) 0.2680(3)
N26 N 0.5674(11) 0.4181(5) 0.7320(3)
N27 N 0.0029(11) 0.5470(6) 0.2663(4)
N28 N 0.9971(11) 0.4530(6) 0.7337(4)
Mn11_6 Mn 1.000000 -0.000000 1.000000
Mn11_7 Mn 1.000000 1.000000 0.000000
Mn11_8 Mn 1.000000 1.000000 1.000000
N14 N 0.9326(11) 0.9181(5) 0.7680(3)
O1_2 O 0.2702(9) 0.0350(5) 0.3524(3)
H1_2 H 0.180278 0.071030 0.356244
H2_2 H 0.365868 0.068085 0.353982
O2_2 O 0.2086(12) 0.0996(6) 0.0014(4)
H4_2 H 0.251616 0.110283 0.037930
H5_2 H 0.173362 0.008689 0.129478
H3_2 H 0.308255 0.079758 0.983452
W2_2 W 0.23781(4) 0.28623(2) 0.67819(2)
N12 N 0.5664(11) 0.1384(5) 0.7039(4)
N17_2 N 0.2870(13) 0.1700(6) 0.5540(4)
N18_2 N 0.2457(17) 0.2536(7) 0.8242(4)
C13_2 C 0.0727(12) 0.1685(6) 0.6958(4)
C14_2 C 0.4588(12) 0.1913(5) 0.6936(4)
C15_2 C 0.3178(13) 0.3802(6) 0.6098(4)
C16_2 C 0.4570(13) 0.3700(5) 0.7141(4)
C17_2 C 0.0863(13) 0.3974(7) 0.7142(4)
C19_2 C 0.2705(13) 0.2086(7) 0.5976(4)
C20_2 C 0.2410(14) 0.2652(6) 0.7735(4)
N1_2 N 0.0137(11) 0.8932(5) 0.2937(3)
N6_2 N 0.1484(13) 0.6873(6) 0.3996(4)
N9_2 N 0.2223(12) 0.9015(5) 0.1750(4)
N10_2 N 0.1417(12) 0.9136(5) 0.0724(3)
C6_2 C 0.0160(13) 0.6971(5) 0.3727(4)
C9_2 C 0.1786(13) 0.9468(6) 0.1259(4)
C10_2 C 0.1551(16) 0.8256(7) 0.0679(5)
H6_2 H 0.133237 0.799258 0.030951
C11_2 C 0.1997(19) 0.7717(7) 0.1151(5)
H7_2 H 0.209274 0.710000 0.110757
C12_2 C 0.2296(16) 0.8121(6) 0.1688(5)
H8_2 H 0.255802 0.776937 0.202048
N21 N 0.4336(11) 0.8616(5) 0.2961(4)
N11_2 N 0.9863(11) 0.1068(5) 0.7063(3)
N16_2 N 0.8516(13) 0.3127(6) 0.6004(4)
N19_2 N 0.7777(12) 0.0985(5) 0.8250(4)
N20_2 N 0.8583(12) 0.0864(5) 0.9276(3)
C18_2 C 0.9840(13) 0.3029(5) 0.6273(4)
C21_2 C 0.8214(13) 0.0532(6) 0.8741(4)
C22_2 C 0.8449(16) 0.1744(7) 0.9321(5)
H14_2 H 0.866763 0.200742 0.969049
C23_2 C 0.8003(19) 0.2283(7) 0.8849(5)
H15_2 H 0.790726 0.290000 0.889243
C24_2 C 0.7704(16) 0.1879(6) 0.8312(5)
H16_2 H 0.744198 0.223063 0.797952
W1_2 W 0.76219(4) 0.71377(2) 0.32181(2)
N7_2 N 0.7130(13) 0.8300(6) 0.4460(4)
N8_2 N 0.7543(17) 0.7464(7) 0.1758(4)
C1_2 C 0.9273(12) 0.8315(6) 0.3042(4)
C2_2 C 0.5412(12) 0.8087(5) 0.3064(4)
C3_2 C 0.6822(13) 0.6198(6) 0.3902(4)
C4_2 C 0.5430(13) 0.6300(5) 0.2859(4)
C5_2 C 0.9137(13) 0.6026(7) 0.2858(4)
C7_2 C 0.7295(13) 0.7914(7) 0.4024(4)
C8_2 C 0.7590(14) 0.7348(6) 0.2265(4)
H11_2 H 0.691745 0.920242 0.016548
O3_2 O 0.7298(9) 0.9650(5) 0.6476(3)
H9_2 H 0.819722 0.928970 0.643756
H10_2 H 0.634132 0.931915 0.646018
O4_2 O 0.7914(12) 0.9004(6) 0.9986(4)
H12_2 H 0.748384 0.889717 0.962070
H13_2 H 0.826638 0.991311 0.870522
loop_
_geom_bond_atom_site_label_1
_geom_bond_atom_site_label_2
_geom_bond_site_symmetry_1
_geom_bond_site_symmetry_2
Mn4 N2 1_555 1_555
W1 C1 1_555 1_555
Mn4 O1 1_555 1_555
Mn2 O2 1_555 1_555
O1 H1 1_555 1_555
H2 O1 1_555 1_555
O2 H3 1_555 1_555
H4 O2 1_555 1_555
N1 Mn4 1_555 1_555
N3 C3 1_555 1_555
N5 C5 1_555 1_555
N6 C6 1_555 1_555
N7 C7 1_555 1_555
N8 C8 1_555 1_555
N9 Mn4 1_555 1_555
N10 Mn2 1_555 1_555
C1 N1 1_555 1_555
C2 W1 1_555 1_555
C3 W1 1_555 1_555
C4 W1 1_555 1_555
C5 W1 1_555 1_555
C6 W1 1_555 1_555
C7 W1 1_555 1_555
C8 W1 1_555 1_555
C9 N9 1_555 1_555
H5 C9 1_555 1_555
C10 N10 1_555 1_555
H6 C10 1_555 1_555
C11 C10 1_555 1_555
H7 C11 1_555 1_555
C12 N9 1_555 1_555
H8 C12 1_555 1_555
W2 C13 1_555 1_555
Mn3 O3 1_555 1_555
O3 H9 1_555 1_555
H10 O3 1_555 1_555
O4 Mn2 1_555 1_555
H11 O4 1_555 1_555
H12 O4 1_555 1_555
N11 Mn3 1_555 1_555
N13 C15 1_555 1_555
N15 C17 1_555 1_555
N16 C18 1_555 1_555
N17 C19 1_555 1_555
N18 C20 1_555 1_555
N19 Mn3 1_555 1_555
N20 Mn2 1_555 1_555
C13 N11 1_555 1_555
C14 W2 1_555 1_555
C15 W2 1_555 1_555
C16 W2 1_555 1_555
C17 W2 1_555 1_555
C18 W2 1_555 1_555
C19 W2 1_555 1_555
C20 W2 1_555 1_555
C21 N19 1_555 1_555
H13 C21 1_555 1_555
C22 N20 1_555 1_555
H14 C22 1_555 1_555
C23 C22 1_555 1_555
H15 C23 1_555 1_555
C24 N19 1_555 1_555
H16 C24 1_555 1_555
Mn11_4 N13 1_555 1_555
Mn11_5 N3 1_555 1_555
N22 Mn3 1_555 1_555
N23 Mn2 1_555 1_555
N24 Mn2 1_555 1_555
N25 Mn4 1_555 1_555
N26 Mn3 1_555 1_555
N27 Mn4 1_555 1_555
N28 Mn3 1_555 1_555
N10 C9 1_555 1_555
C11 C12 1_555 1_555
N20 C21 1_555 1_555
C23 C24 1_555 1_555
Mn11 O2_2 1_555 1_555
O1_2 H1_2 1_555 1_555
H2_2 O1_2 1_555 1_555
H4_2 O2_2 1_555 1_555
W2_2 C13_2 1_555 1_555
N12 C14_2 1_555 1_555
N24 C15_2 1_555 1_555
N26 C16_2 1_555 1_555
N17_2 C19_2 1_555 1_555
N18_2 C20_2 1_555 1_555
C14_2 W2_2 1_555 1_555
C15_2 W2_2 1_555 1_555
C16_2 W2_2 1_555 1_555
C17_2 W2_2 1_555 1_555
C19_2 W2_2 1_555 1_555
C20_2 W2_2 1_555 1_555
Mn9 N12 1_555 1_555
N1_2 Mn6 1_555 1_555
N6_2 C6_2 1_555 1_555
N9_2 Mn6 1_555 1_555
N10_2 Mn11_3 1_555 1_555
C9_2 N9_2 1_555 1_555
C10_2 N10_2 1_555 1_555
H6_2 C10_2 1_555 1_555
C11_2 C10_2 1_555 1_555
H7_2 C11_2 1_555 1_555
C12_2 N9_2 1_555 1_555
H8_2 C12_2 1_555 1_555
N21 Mn6 1_555 1_555
N10_2 C9_2 1_555 1_555
C11_2 C12_2 1_555 1_555
N11_2 Mn9 1_555 1_555
N16_2 C18_2 1_555 1_555
N19_2 Mn9 1_555 1_555
N20_2 Mn11_6 1_555 1_555
C21_2 N19_2 1_555 1_555
C22_2 N20_2 1_555 1_555
H14_2 C22_2 1_555 1_555
C23_2 C22_2 1_555 1_555
H15_2 C23_2 1_555 1_555
C24_2 N19_2 1_555 1_555
H16_2 C24_2 1_555 1_555
N20_2 C21_2 1_555 1_555
C23_2 C24_2 1_555 1_555
W1_2 C1_2 1_555 1_555
N21 C2_2 1_555 1_555
N23 C3_2 1_555 1_555
N25 C4_2 1_555 1_555
N7_2 C7_2 1_555 1_555
N8_2 C8_2 1_555 1_555
C2_2 W1_2 1_555 1_555
C3_2 W1_2 1_555 1_555
C4_2 W1_2 1_555 1_555
C5_2 W1_2 1_555 1_555
C7_2 W1_2 1_555 1_555
C8_2 W1_2 1_555 1_555
O3_2 H9_2 1_555 1_555
H10_2 O3_2 1_555 1_555
O4_2 Mn11_8 1_555 1_555
H12_2 O4_2 1_555 1_555

#END
