
###############################################################################
#
# This file contains modified crystal structure data generated from the
# MOF subset of the Cambridge Structural Database (CSD) v543 
# hosted by the Cambridge Crystallographic Data Centre (CCDC).
#
# This work is licensed under the Creative Commons
# Attribution-NonCommercial-ShareAlike 4.0 International License.
# To view a copy of this license, visit
# http://creativecommons.org/licenses/by-nc-sa/4.0/
# or send a letter to
# Creative Commons, PO Box 1866, Mountain View, CA 94042, USA.
#
# CIF created using the CSD Python API on 29 September 2022
# The structure has been converted into the P1 space group
# The structure has a 3D framework
# The original CSD entry FAPTIB is in the orthorhombic crystal system
# The original CSD entry FAPTIB is in a Sohncke space group
# The framework has been calculated to contain at least 10.0% void space
# The void calculation uses a probe of radius 1.32A, grid spacing 0.4
#
###############################################################################

data_FAPTIB
_chemical_formula_moiety         '(C72 H52 Cd4 N12 O16)n'
_symmetry_cell_setting           triclinic
_symmetry_space_group_name_H-M   'P 1'
_symmetry_Int_Tables_number      1
_space_group_name_Hall           'P 1'
loop_
_symmetry_equiv_pos_site_id
_symmetry_equiv_pos_as_xyz
1 x,y,z
_cell_length_a                   14.233(2)
_cell_length_b                   17.313(3)
_cell_length_c                   11.714(3)
_cell_angle_alpha                90
_cell_angle_beta                 90
_cell_angle_gamma                90
_cell_volume                     2886.52
loop_
_atom_site_label
_atom_site_type_symbol
_atom_site_fract_x
_atom_site_fract_y
_atom_site_fract_z
C2 C 0.3692(11) 0.0477(7) 0.7233(7)
H2 H 0.3696 0.0945 0.7621
C3 C 0.3667(11) 0.0505(6) 0.6066(7)
H3 H 0.3625 0.0974 0.5680
C9 C 0.3292(7) 0.0357(6) 0.2443(7)
H6 H 0.2973 0.0745 0.2054
C10 C 0.3299(8) 0.0389(6) 0.3610(7)
H7 H 0.3032 0.0809 0.3985
O5 O 0.3462(3) 0.1137(2) 0.9878(5)
Cd2 Cd 0.63532(3) 0.01723(3) 0.98536(4)
O3 O 0.3107(3) 0.4737(2) 0.0008(6)
O4 O 0.2219(3) 0.3724(2) 0.0218(6)
C8 C 0.3695(5) 0.2711(3) 0.0018(7)
H5 H 0.3090 0.2510 0.0009
C11 C 0.2999(5) 0.4013(4) 0.0097(9)
C14 C 0.3828(4) 0.3497(4) 0.0081(10)
Cd4 Cd 0.13532(3) 0.48277(3) 0.01464(4)
N4 N 0.6294(5) 0.0189(4) 0.1826(4)
N1 N 0.6288(5) 0.0174(5) 0.7871(4)
C1 C 0.6248(9) 0.0823(6) 0.7274(7)
H1 H 0.6199 0.1288 0.7666
C4 C 0.6274(10) 0.0839(5) 0.6114(7)
H4 H 0.6279 0.1317 0.5751
C5 C 0.6293(7) 0.0201(6) 0.5469(5)
O1 O 0.4975(3) 0.0902(2) 0.9859(5)
C6 C 0.4301(4) 0.1374(3) 0.9882(8)
C7 C 0.6303(6) 0.0190(6) 0.4219(5)
C12 C 0.5854(7) 0.0783(6) 0.3587(7)
H8 H 0.5548 0.1184 0.3962
C13 C 0.5875(7) 0.0761(6) 0.2417(8)
H9 H 0.5586 0.1158 0.2014
C15 C 0.4734(5) 0.3799(5) 0.9776(11)
H10 H 0.4803 0.4321 0.9609
C16 C 0.5362(5) 0.2518(4) 0.9749(11)
H11 H 0.5862 0.2185 0.9615
C17 C 0.5507(6) 0.3311(4) 0.9731(12)
C18 C 0.4467(4) 0.2216(4) 0.9966(11)
N3 N 0.6401(6) 0.3641(4) 0.9458(7)
H12 H 0.6869 0.3346 0.9299
H13 H 0.6471 0.4134 0.9454
O6 O 0.8107(3) 0.0263(2) 0.9992(6)
O7 O 0.7219(3) 0.1276(2) 0.9782(6)
O1_2 O 0.0025(3) 0.5902(2) 0.0141(5)
O2 O 0.1538(3) 0.6137(2) 0.0122(5)
C6_2 C 0.0699(4) 0.6374(3) 0.0118(8)
C15_2 C 0.0266(5) 0.8799(5) 0.0224(11)
H10_2 H 0.0197 0.9321 0.0391
C18_2 C 0.0533(4) 0.7216(4) 0.0034(11)
N1_2 N 0.1288(5) 0.4826(5) 0.2129(4)
C1_2 C 0.1248(9) 0.4177(6) 0.2726(7)
H1_2 H 0.1199 0.3712 0.2334
C2_2 C 0.1308(11) 0.5477(7) 0.2767(7)
H2_2 H 0.1304 0.5945 0.2379
C3_2 C 0.1333(11) 0.5505(6) 0.3934(7)
H3_2 H 0.1375 0.5974 0.4320
C4_2 C 0.1274(10) 0.4161(5) 0.3886(7)
H4_2 H 0.1279 0.3683 0.4249
C5_2 C 0.1293(7) 0.4799(6) 0.4531(5)
N2 N 0.1294(5) 0.4811(4) 0.8174(4)
C7_2 C 0.1303(6) 0.4810(6) 0.5781(5)
C9_2 C 0.1708(7) 0.5357(6) 0.7557(7)
H6_2 H 0.2027 0.5745 0.7946
C10_2 C 0.1701(8) 0.5389(6) 0.6390(7)
H7_2 H 0.1968 0.5809 0.6015
C12_2 C 0.0854(7) 0.4217(6) 0.6413(7)
H8_2 H 0.0548 0.3816 0.6038
C13_2 C 0.0875(7) 0.4239(6) 0.7583(8)
H9_2 H 0.0586 0.3842 0.7986
C16_2 C 0.0362(5) 0.2482(4) 0.0251(11)
H11_2 H 0.0862 0.2815 0.0385
C17_2 C 0.0507(6) 0.1689(4) 0.0269(12)
N3_2 N 0.1401(6) 0.1359(4) 0.0542(7)
H12_2 H 0.1869 0.1654 0.0701
H13_2 H 0.1471 0.0866 0.0546
C8_2 C 0.8695(5) 0.2289(3) 0.9982(7)
H5_2 H 0.8090 0.2490 0.9991
C11_2 C 0.7999(5) 0.0987(4) 0.9903(9)
C14_2 C 0.8828(4) 0.1503(4) 0.9919(10)
O3_2 O 0.6893(3) 0.5263(2) 0.0008(6)
O4_2 O 0.7781(3) 0.6276(2) 0.0218(6)
C8_3 C 0.6305(5) 0.7289(3) 0.0018(7)
H5_3 H 0.6910 0.7490 0.0009
C11_3 C 0.7001(5) 0.5987(4) 0.0097(9)
C14_3 C 0.6172(4) 0.6503(4) 0.0081(10)
Cd4_2 Cd 0.86468(3) 0.51723(3) 0.01464(4)
N4_2 N 0.3706(5) 0.9811(4) 0.1826(4)
N1_3 N 0.3712(5) 0.9826(5) 0.7871(4)
C1_3 C 0.3752(9) 0.9177(6) 0.7274(7)
H1_3 H 0.3801 0.8712 0.7666
C4_3 C 0.3726(10) 0.9161(5) 0.6114(7)
H4_3 H 0.3721 0.8683 0.5751
C5_3 C 0.3707(7) 0.9799(6) 0.5469(5)
O1_3 O 0.5025(3) 0.9098(2) 0.9859(5)
O2_2 O 0.6538(3) 0.8863(2) 0.9878(5)
C6_3 C 0.5699(4) 0.8626(3) 0.9882(8)
Cd1 Cd 0.36468(3) 0.98277(3) 0.98536(4)
C7_3 C 0.3697(6) 0.9810(6) 0.4219(5)
C12_3 C 0.4146(7) 0.9217(6) 0.3587(7)
H8_3 H 0.4452 0.8816 0.3962
C13_3 C 0.4125(7) 0.9239(6) 0.2417(8)
H9_3 H 0.4414 0.8842 0.2014
C15_3 C 0.5266(5) 0.6201(5) 0.9776(11)
H10_3 H 0.5197 0.5679 0.9609
C16_3 C 0.4638(5) 0.7482(4) 0.9749(11)
H11_3 H 0.4138 0.7815 0.9615
C17_3 C 0.4493(6) 0.6689(4) 0.9731(12)
C18_3 C 0.5533(4) 0.7784(4) 0.9966(11)
N3_3 N 0.3599(6) 0.6359(4) 0.9458(7)
H12_3 H 0.3131 0.6654 0.9299
H13_3 H 0.3529 0.5866 0.9454
O6_2 O 0.1893(3) 0.9737(2) 0.9992(6)
O7_2 O 0.2781(3) 0.8724(2) 0.9782(6)
C2_3 C 0.6308(11) 0.9523(7) 0.7233(7)
H2_3 H 0.6304 0.9055 0.7621
C3_3 C 0.6333(11) 0.9495(6) 0.6066(7)
H3_3 H 0.6375 0.9026 0.5680
C9_3 C 0.6708(7) 0.9643(6) 0.2443(7)
H6_3 H 0.7027 0.9255 0.2054
C10_3 C 0.6701(8) 0.9611(6) 0.3610(7)
H7_3 H 0.6968 0.9191 0.3985
C8_4 C 0.1305(5) 0.7711(3) 0.9982(7)
H5_4 H 0.1910 0.7510 0.9991
C11_4 C 0.2001(5) 0.9013(4) 0.9903(9)
C14_4 C 0.1172(4) 0.8497(4) 0.9919(10)
N1_4 N 0.8712(5) 0.5174(5) 0.2129(4)
C1_4 C 0.8752(9) 0.5823(6) 0.2726(7)
H1_4 H 0.8801 0.6288 0.2334
C2_4 C 0.8692(11) 0.4523(7) 0.2767(7)
H2_4 H 0.8696 0.4055 0.2379
C3_4 C 0.8667(11) 0.4495(6) 0.3934(7)
H3_4 H 0.8625 0.4026 0.4320
C4_4 C 0.8726(10) 0.5839(5) 0.3886(7)
H4_4 H 0.8721 0.6317 0.4249
C5_4 C 0.8707(7) 0.5201(6) 0.4531(5)
N2_2 N 0.8706(5) 0.5189(4) 0.8174(4)
C7_4 C 0.8697(6) 0.5190(6) 0.5781(5)
C9_4 C 0.8292(7) 0.4643(6) 0.7557(7)
H6_4 H 0.7973 0.4255 0.7946
C10_4 C 0.8299(8) 0.4611(6) 0.6390(7)
H7_4 H 0.8032 0.4191 0.6015
C12_4 C 0.9146(7) 0.5783(6) 0.6413(7)
H8_4 H 0.9452 0.6184 0.6038
C13_4 C 0.9125(7) 0.5761(6) 0.7583(8)
H9_4 H 0.9414 0.6158 0.7986
C16_4 C 0.9638(5) 0.7518(4) 0.0251(11)
H11_4 H 0.9138 0.7185 0.0385
C17_4 C 0.9493(6) 0.8311(4) 0.0269(12)
N3_4 N 0.8599(6) 0.8641(4) 0.0542(7)
H12_4 H 0.8131 0.8346 0.0701
H13_4 H 0.8529 0.9134 0.0546
O5_2 O 0.8462(3) 0.3863(2) 0.0122(5)
O1_4 O 0.9975(3) 0.4098(2) 0.0141(5)
C6_4 C 0.9301(4) 0.3626(3) 0.0118(8)
C15_4 C 0.9734(5) 0.1201(5) 0.0224(11)
H10_4 H 0.9803 0.0679 0.0391
C18_4 C 0.9467(4) 0.2784(4) 0.0034(11)
loop_
_geom_bond_atom_site_label_1
_geom_bond_atom_site_label_2
_geom_bond_site_symmetry_1
_geom_bond_site_symmetry_2
H2 C2 1_555 1_555
C3 C2 1_555 1_555
H3 C3 1_555 1_555
C9 H6 1_555 1_555
H7 C10 1_555 1_555
C9 C10 1_555 1_555
O3 C11 1_555 1_555
O4 C11 1_555 1_555
C8 H5 1_555 1_555
C11 C14 1_555 1_555
C14 C8 1_555 1_555
Cd4 O3 1_555 1_555
O4 Cd4 1_555 1_555
N1 C1 1_555 1_555
C1 H1 1_555 1_555
C4 C1 1_555 1_555
H4 C4 1_555 1_555
O1 C6 1_555 1_555
O5 C6 1_555 1_555
C6 C18 1_555 1_555
Cd2 N1 1_555 1_555
C7 C5 1_555 1_555
C12 C7 1_555 1_555
H8 C12 1_555 1_555
C13 N4 1_555 1_555
H9 C13 1_555 1_555
H10 C15 1_555 1_555
C16 H11 1_555 1_555
C17 C15 1_555 1_555
N3 C17 1_555 1_555
H12 N3 1_555 1_555
H13 N3 1_555 1_555
O6 Cd2 1_555 1_555
O7 Cd2 1_555 1_555
C4 C5 1_555 1_555
O1 Cd2 1_555 1_555
C12 C13 1_555 1_555
C16 C17 1_555 1_555
C16 C18 1_555 1_555
O1_2 C6_2 1_555 1_555
O2 C6_2 1_555 1_555
C6_2 C18_2 1_555 1_555
H10_2 C15_2 1_555 1_555
Cd4 O2 1_555 1_555
N1_2 C1_2 1_555 1_555
C1_2 H1_2 1_555 1_555
C2_2 N1_2 1_555 1_555
H2_2 C2_2 1_555 1_555
C3_2 C2_2 1_555 1_555
H3_2 C3_2 1_555 1_555
C4_2 C1_2 1_555 1_555
H4_2 C4_2 1_555 1_555
C5_2 C3_2 1_555 1_555
Cd4 N1_2 1_555 1_555
N2 C9_2 1_555 1_555
C7_2 C5_2 1_555 1_555
C9_2 H6_2 1_555 1_555
C10_2 C7_2 1_555 1_555
H7_2 C10_2 1_555 1_555
C12_2 C7_2 1_555 1_555
H8_2 C12_2 1_555 1_555
C13_2 N2 1_555 1_555
H9_2 C13_2 1_555 1_555
C16_2 H11_2 1_555 1_555
N3_2 C17_2 1_555 1_555
H12_2 N3_2 1_555 1_555
H13_2 N3_2 1_555 1_555
C4_2 C5_2 1_555 1_555
C9_2 C10_2 1_555 1_555
C12_2 C13_2 1_555 1_555
C16_2 C17_2 1_555 1_555
O6 C11_2 1_555 1_555
O7 C11_2 1_555 1_555
C8_2 H5_2 1_555 1_555
C11_2 C14_2 1_555 1_555
C14_2 C8_2 1_555 1_555
O3_2 C11_3 1_555 1_555
O4_2 C11_3 1_555 1_555
C8_3 H5_3 1_555 1_555
C11_3 C14_3 1_555 1_555
C14_3 C8_3 1_555 1_555
Cd4_2 O3_2 1_555 1_555
O4_2 Cd4_2 1_555 1_555
N1_3 C1_3 1_555 1_555
C1_3 H1_3 1_555 1_555
C4_3 C1_3 1_555 1_555
H4_3 C4_3 1_555 1_555
O1_3 C6_3 1_555 1_555
O2_2 C6_3 1_555 1_555
C6_3 C18_3 1_555 1_555
Cd1 N1_3 1_555 1_555
C7_3 C5_3 1_555 1_555
C12_3 C7_3 1_555 1_555
H8_3 C12_3 1_555 1_555
C13_3 N4_2 1_555 1_555
H9_3 C13_3 1_555 1_555
H10_3 C15_3 1_555 1_555
C16_3 H11_3 1_555 1_555
C17_3 C15_3 1_555 1_555
N3_3 C17_3 1_555 1_555
H12_3 N3_3 1_555 1_555
H13_3 N3_3 1_555 1_555
O6_2 Cd1 1_555 1_555
O7_2 Cd1 1_555 1_555
C4_3 C5_3 1_555 1_555
O1_3 Cd1 1_555 1_555
C12_3 C13_3 1_555 1_555
C16_3 C17_3 1_555 1_555
C16_3 C18_3 1_555 1_555
H2_3 C2_3 1_555 1_555
C3_3 C2_3 1_555 1_555
H3_3 C3_3 1_555 1_555
C9_3 H6_3 1_555 1_555
H7_3 C10_3 1_555 1_555
C9_3 C10_3 1_555 1_555
O6_2 C11_4 1_555 1_555
O7_2 C11_4 1_555 1_555
C8_4 H5_4 1_555 1_555
C11_4 C14_4 1_555 1_555
C14_4 C8_4 1_555 1_555
N1_4 C1_4 1_555 1_555
C1_4 H1_4 1_555 1_555
C2_4 N1_4 1_555 1_555
H2_4 C2_4 1_555 1_555
C3_4 C2_4 1_555 1_555
H3_4 C3_4 1_555 1_555
C4_4 C1_4 1_555 1_555
H4_4 C4_4 1_555 1_555
C5_4 C3_4 1_555 1_555
Cd4_2 N1_4 1_555 1_555
N2_2 C9_4 1_555 1_555
C7_4 C5_4 1_555 1_555
C9_4 H6_4 1_555 1_555
C10_4 C7_4 1_555 1_555
H7_4 C10_4 1_555 1_555
C12_4 C7_4 1_555 1_555
H8_4 C12_4 1_555 1_555
C13_4 N2_2 1_555 1_555
H9_4 C13_4 1_555 1_555
C16_4 H11_4 1_555 1_555
N3_4 C17_4 1_555 1_555
H12_4 N3_4 1_555 1_555
H13_4 N3_4 1_555 1_555
O5_2 Cd4_2 1_555 1_555
C4_4 C5_4 1_555 1_555
C9_4 C10_4 1_555 1_555
C12_4 C13_4 1_555 1_555
C16_4 C17_4 1_555 1_555
O1_4 C6_4 1_555 1_555
O5_2 C6_4 1_555 1_555
C6_4 C18_4 1_555 1_555
H10_4 C15_4 1_555 1_555

#END
