
###############################################################################
#
# This file contains modified crystal structure data generated from the
# MOF subset of the Cambridge Structural Database (CSD) v543 
# hosted by the Cambridge Crystallographic Data Centre (CCDC).
#
# This work is licensed under the Creative Commons
# Attribution-NonCommercial-ShareAlike 4.0 International License.
# To view a copy of this license, visit
# http://creativecommons.org/licenses/by-nc-sa/4.0/
# or send a letter to
# Creative Commons, PO Box 1866, Mountain View, CA 94042, USA.
#
# CIF created using the CSD Python API on 29 September 2022
# The structure has been converted into the P1 space group
# The structure has a 3D framework
# The original CSD entry FAPTUN is in the orthorhombic crystal system
# The framework has been calculated to contain at least 10.0% void space
# The void calculation uses a probe of radius 1.32A, grid spacing 0.4
#
###############################################################################

data_FAPTUN
_chemical_formula_moiety         '(C104 H72 Cu8 N16 O32)n'
_symmetry_cell_setting           triclinic
_symmetry_space_group_name_H-M   'P 1'
_symmetry_Int_Tables_number      1
_space_group_name_Hall           'P 1'
loop_
_symmetry_equiv_pos_site_id
_symmetry_equiv_pos_as_xyz
1 x,y,z
_cell_length_a                   14.3040(16)
_cell_length_b                   16.970(2)
_cell_length_c                   11.098(2)
_cell_angle_alpha                90
_cell_angle_beta                 90
_cell_angle_gamma                90
_cell_volume                     2693.92
loop_
_atom_site_label
_atom_site_type_symbol
_atom_site_fract_x
_atom_site_fract_y
_atom_site_fract_z
C3 C 0.0419(6) 0.2483(5) 0.0000
H1 H 0.0926 0.2140 0.0000
C4 C 0.0567(5) 0.3275(5) 0.0000
O2 O 0.0121(3) 0.0891(3) 0.0000
Cu1 Cu 0.15113(5) 0.01548(4) 0.0000
N2 N 0.1464(4) 0.3595(4) 0.0000
H8 H 0.1944 0.3290 0.0000
H9 H 0.1538 0.4098 0.0000
N4 N 0.1471(3) 0.0151(2) 0.1810(4)
O6 O 0.2267(3) 0.1178(3) 0.0000
O7 O 0.3265(4) 0.0208(3) 0.0000
C3_2 C 0.0419(6) 0.2483(5) 1.0000
H1_2 H 0.0926 0.2140 1.0000
C4_2 C 0.0567(5) 0.3275(5) 1.0000
C10 C 0.1086(6) 0.0725(5) 0.7570(6)
H5 H 0.0819 0.1142 0.7989
C12 C 0.1449(6) 0.0146(4) 0.5663(7)
C13 C 0.1059(6) 0.0738(4) 0.6335(6)
H7 H 0.0771 0.1158 0.5946
N1 N 0.1471(3) 0.0151(2) 0.8190(4)
O2_2 O 0.0121(3) 0.0891(3) 1.0000
Cu1_2 Cu 0.15113(5) 0.01548(4) 1.0000
N2_2 N 0.1464(4) 0.3595(4) 1.0000
H8_2 H 0.1944 0.3290 1.0000
H9_2 H 0.1538 0.4098 1.0000
C15 C 0.1086(6) 0.0725(5) 0.2430(6)
H11 H 0.0819 0.1142 0.2011
C17 C 0.1449(6) 0.0146(4) 0.4337(7)
C18 C 0.1059(6) 0.0738(4) 0.3665(6)
H13 H 0.0771 0.1158 0.4054
O6_2 O 0.2267(3) 0.1178(3) 1.0000
O7_2 O 0.3265(4) 0.0208(3) 1.0000
O5 O 0.1415(3) 0.8983(2) 0.0000
C9 C 0.1838(5) 0.9570(4) 0.7562(5)
H4 H 0.2109 0.9153 0.7979
C11 C 0.1843(5) 0.9545(4) 0.6316(5)
H6 H 0.2115 0.9120 0.5920
C14 C 0.1838(5) 0.9570(4) 0.2438(5)
H10 H 0.2109 0.9153 0.2021
C16 C 0.1843(5) 0.9545(4) 0.3684(5)
H12 H 0.2115 0.9120 0.4080
O5_2 O 0.1415(3) 0.8983(2) 1.0000
C1 C 0.9416(4) 0.1295(4) 0.0000
C2 C 0.9514(6) 0.2185(5) 0.0000
C5 C 0.9794(6) 0.3795(5) 0.0000
H2 H 0.9886 0.4338 0.0000
C6 C 0.8891(6) 0.3480(5) 0.0000
C7 C 0.8754(6) 0.2693(5) 0.0000
H3 H 0.8149 0.2492 0.0000
C8 C 0.8094(5) 0.4069(4) 0.0000
O1 O 0.8585(3) 0.1017(2) 0.0000
O3 O 0.7267(3) 0.3822(3) 0.0000
O4 O 0.8265(4) 0.4792(3) 0.0000
Cu3 Cu 0.65113(5) 0.48452(4) 0.0000
C1_2 C 0.9416(4) 0.1295(4) 1.0000
C2_2 C 0.9514(6) 0.2185(5) 1.0000
C5_2 C 0.9794(6) 0.3795(5) 1.0000
H2_2 H 0.9886 0.4338 1.0000
C6_2 C 0.8891(6) 0.3480(5) 1.0000
C7_2 C 0.8754(6) 0.2693(5) 1.0000
H3_2 H 0.8149 0.2492 1.0000
C8_2 C 0.8094(5) 0.4069(4) 1.0000
O1_2 O 0.8585(3) 0.1017(2) 1.0000
O3_2 O 0.7267(3) 0.3822(3) 1.0000
O4_2 O 0.8265(4) 0.4792(3) 1.0000
Cu3_2 Cu 0.65113(5) 0.48452(4) 1.0000
Cu2 Cu 0.84887(5) 0.98452(4) 0.0000
Cu2_2 Cu 0.84887(5) 0.98452(4) 1.0000
C1_3 C 0.0584(4) 0.8705(4) 0.0000
C2_3 C 0.0486(6) 0.7815(5) 0.0000
C5_3 C 0.0206(6) 0.6205(5) 0.0000
H2_3 H 0.0114 0.5662 0.0000
C6_3 C 0.1109(6) 0.6520(5) 0.0000
C7_3 C 0.1246(6) 0.7307(5) 0.0000
H3_3 H 0.1851 0.7508 0.0000
C8_3 C 0.1906(5) 0.5931(4) 0.0000
O3_3 O 0.2733(3) 0.6178(3) 0.0000
O4_3 O 0.1735(4) 0.5208(3) 0.0000
Cu3_3 Cu 0.34887(5) 0.51548(4) 0.0000
C1_4 C 0.0584(4) 0.8705(4) 1.0000
C2_4 C 0.0486(6) 0.7815(5) 1.0000
C5_4 C 0.0206(6) 0.6205(5) 1.0000
H2_4 H 0.0114 0.5662 1.0000
C6_4 C 0.1109(6) 0.6520(5) 1.0000
C7_4 C 0.1246(6) 0.7307(5) 1.0000
H3_4 H 0.1851 0.7508 1.0000
C8_4 C 0.1906(5) 0.5931(4) 1.0000
O3_4 O 0.2733(3) 0.6178(3) 1.0000
O4_4 O 0.1735(4) 0.5208(3) 1.0000
Cu3_4 Cu 0.34887(5) 0.51548(4) 1.0000
C9_2 C 0.8162(5) 0.0430(4) 0.7562(5)
H4_2 H 0.7891 0.0847 0.7979
C11_2 C 0.8157(5) 0.0455(4) 0.6316(5)
H6_2 H 0.7885 0.0880 0.5920
C14_2 C 0.8162(5) 0.0430(4) 0.2438(5)
H10_2 H 0.7891 0.0847 0.2021
C16_2 C 0.8157(5) 0.0455(4) 0.3684(5)
H12_2 H 0.7885 0.0880 0.4080
C3_3 C 0.9581(6) 0.7517(5) 0.0000
H1_3 H 0.9074 0.7860 0.0000
C4_3 C 0.9433(5) 0.6725(5) 0.0000
O2_3 O 0.9879(3) 0.9109(3) 0.0000
N2_3 N 0.8536(4) 0.6405(4) 0.0000
H8_3 H 0.8056 0.6710 0.0000
H9_3 H 0.8462 0.5902 0.0000
N4_2 N 0.8529(3) 0.9849(2) 0.1810(4)
O6_3 O 0.7733(3) 0.8822(3) 0.0000
O7_3 O 0.6735(4) 0.9792(3) 0.0000
C3_4 C 0.9581(6) 0.7517(5) 1.0000
H1_4 H 0.9074 0.7860 1.0000
C4_4 C 0.9433(5) 0.6725(5) 1.0000
C10_2 C 0.8914(6) 0.9275(5) 0.7570(6)
H5_2 H 0.9181 0.8858 0.7989
C12_2 C 0.8551(6) 0.9854(4) 0.5663(7)
C13_2 C 0.8941(6) 0.9262(4) 0.6335(6)
H7_2 H 0.9229 0.8842 0.5946
N1_2 N 0.8529(3) 0.9849(2) 0.8190(4)
O2_4 O 0.9879(3) 0.9109(3) 1.0000
N2_4 N 0.8536(4) 0.6405(4) 1.0000
H8_4 H 0.8056 0.6710 1.0000
H9_4 H 0.8462 0.5902 1.0000
C15_2 C 0.8914(6) 0.9275(5) 0.2430(6)
H11_2 H 0.9181 0.8858 0.2011
C17_2 C 0.8551(6) 0.9854(4) 0.4337(7)
C18_2 C 0.8941(6) 0.9262(4) 0.3665(6)
H13_2 H 0.9229 0.8842 0.4054
O6_4 O 0.7733(3) 0.8822(3) 1.0000
O7_4 O 0.6735(4) 0.9792(3) 1.0000
C1_5 C 0.4416(4) 0.3705(4) 0.0000
C2_5 C 0.4514(6) 0.2815(5) 0.0000
C3_5 C 0.5419(6) 0.2517(5) 0.0000
H1_5 H 0.5926 0.2860 0.0000
C4_5 C 0.5567(5) 0.1725(5) 0.0000
C5_5 C 0.4794(6) 0.1205(5) 0.0000
H2_5 H 0.4886 0.0662 0.0000
C6_5 C 0.3891(6) 0.1520(5) 0.0000
C7_5 C 0.3754(6) 0.2307(5) 0.0000
H3_5 H 0.3149 0.2508 0.0000
C8_5 C 0.3094(5) 0.0931(4) 0.0000
C9_3 C 0.6838(5) 0.5430(4) 0.2438(5)
H4_3 H 0.7109 0.5847 0.2021
C10_3 C 0.6086(6) 0.4275(5) 0.2430(6)
H5_3 H 0.5819 0.3858 0.2011
C11_3 C 0.6843(5) 0.5455(4) 0.3684(5)
H6_3 H 0.7115 0.5880 0.4080
C12_3 C 0.6449(6) 0.4854(4) 0.4337(7)
C13_3 C 0.6059(6) 0.4262(4) 0.3665(6)
H7_3 H 0.5771 0.3842 0.4054
N1_3 N 0.6471(3) 0.4849(2) 0.1810(4)
O1_3 O 0.3585(3) 0.3983(2) 0.0000
O2_5 O 0.5121(3) 0.4109(3) 0.0000
N2_5 N 0.6464(4) 0.1405(4) 0.0000
H8_5 H 0.6944 0.1710 0.0000
H9_5 H 0.6538 0.0902 0.0000
C14_3 C 0.6838(5) 0.5430(4) 0.7562(5)
H10_3 H 0.7109 0.5847 0.7979
C15_3 C 0.6086(6) 0.4275(5) 0.7570(6)
H11_3 H 0.5819 0.3858 0.7989
C16_3 C 0.6843(5) 0.5455(4) 0.6316(5)
H12_3 H 0.7115 0.5880 0.5920
C17_3 C 0.6449(6) 0.4854(4) 0.5663(7)
C18_3 C 0.6059(6) 0.4262(4) 0.6335(6)
H13_3 H 0.5771 0.3842 0.5946
N3 N 0.6471(3) 0.4849(2) 0.8190(4)
O5_3 O 0.6415(3) 0.6017(2) 0.0000
C1_6 C 0.4416(4) 0.3705(4) 1.0000
C2_6 C 0.4514(6) 0.2815(5) 1.0000
C3_6 C 0.5419(6) 0.2517(5) 1.0000
H1_6 H 0.5926 0.2860 1.0000
C4_6 C 0.5567(5) 0.1725(5) 1.0000
C5_6 C 0.4794(6) 0.1205(5) 1.0000
H2_6 H 0.4886 0.0662 1.0000
C6_6 C 0.3891(6) 0.1520(5) 1.0000
C7_6 C 0.3754(6) 0.2307(5) 1.0000
H3_6 H 0.3149 0.2508 1.0000
C8_6 C 0.3094(5) 0.0931(4) 1.0000
O1_4 O 0.3585(3) 0.3983(2) 1.0000
O2_6 O 0.5121(3) 0.4109(3) 1.0000
N2_6 N 0.6464(4) 0.1405(4) 1.0000
H8_6 H 0.6944 0.1710 1.0000
H9_6 H 0.6538 0.0902 1.0000
O5_4 O 0.6415(3) 0.6017(2) 1.0000
C1_7 C 0.5584(4) 0.6295(4) 0.0000
C2_7 C 0.5486(6) 0.7185(5) 0.0000
C3_7 C 0.4581(6) 0.7483(5) 0.0000
H1_7 H 0.4074 0.7140 0.0000
C4_7 C 0.4433(5) 0.8275(5) 0.0000
C5_7 C 0.5206(6) 0.8795(5) 0.0000
H2_7 H 0.5114 0.9338 0.0000
C6_7 C 0.6109(6) 0.8480(5) 0.0000
C7_7 C 0.6246(6) 0.7693(5) 0.0000
H3_7 H 0.6851 0.7492 0.0000
C8_7 C 0.6906(5) 0.9069(4) 0.0000
C9_4 C 0.3162(5) 0.4570(4) 0.2438(5)
H4_4 H 0.2891 0.4153 0.2021
C10_4 C 0.3914(6) 0.5725(5) 0.2430(6)
H5_4 H 0.4181 0.6142 0.2011
C11_4 C 0.3157(5) 0.4545(4) 0.3684(5)
H6_4 H 0.2885 0.4120 0.4080
C12_4 C 0.3551(6) 0.5146(4) 0.4337(7)
C13_4 C 0.3941(6) 0.5738(4) 0.3665(6)
H7_4 H 0.4229 0.6158 0.4054
N1_4 N 0.3529(3) 0.5151(2) 0.1810(4)
O2_7 O 0.4879(3) 0.5891(3) 0.0000
N2_7 N 0.3536(4) 0.8595(4) 0.0000
H8_7 H 0.3056 0.8290 0.0000
H9_7 H 0.3462 0.9098 0.0000
C14_4 C 0.3162(5) 0.4570(4) 0.7562(5)
H10_4 H 0.2891 0.4153 0.7979
C15_4 C 0.3914(6) 0.5725(5) 0.7570(6)
H11_4 H 0.4181 0.6142 0.7989
C16_4 C 0.3157(5) 0.4545(4) 0.6316(5)
H12_4 H 0.2885 0.4120 0.5920
C17_4 C 0.3551(6) 0.5146(4) 0.5663(7)
C18_4 C 0.3941(6) 0.5738(4) 0.6335(6)
H13_4 H 0.4229 0.6158 0.5946
N3_2 N 0.3529(3) 0.5151(2) 0.8190(4)
C1_8 C 0.5584(4) 0.6295(4) 1.0000
C2_8 C 0.5486(6) 0.7185(5) 1.0000
C3_8 C 0.4581(6) 0.7483(5) 1.0000
H1_8 H 0.4074 0.7140 1.0000
C4_8 C 0.4433(5) 0.8275(5) 1.0000
C5_8 C 0.5206(6) 0.8795(5) 1.0000
H2_8 H 0.5114 0.9338 1.0000
C6_8 C 0.6109(6) 0.8480(5) 1.0000
C7_8 C 0.6246(6) 0.7693(5) 1.0000
H3_8 H 0.6851 0.7492 1.0000
C8_8 C 0.6906(5) 0.9069(4) 1.0000
O2_8 O 0.4879(3) 0.5891(3) 1.0000
N2_8 N 0.3536(4) 0.8595(4) 1.0000
H8_8 H 0.3056 0.8290 1.0000
H9_8 H 0.3462 0.9098 1.0000
loop_
_geom_bond_atom_site_label_1
_geom_bond_atom_site_label_2
_geom_bond_site_symmetry_1
_geom_bond_site_symmetry_2
C3 H1 1_555 1_555
C4 C3 1_555 1_555
N2 C4 1_555 1_555
H8 N2 1_555 1_555
H9 N2 1_555 1_555
N4 Cu1 1_555 1_555
O6 Cu1 1_555 1_555
O7 Cu1 1_555 1_555
O2 Cu1 1_555 1_555
C3_2 H1_2 1_555 1_555
C4_2 C3_2 1_555 1_555
C10 H5 1_555 1_555
C13 C10 1_555 1_555
H7 C13 1_555 1_555
Cu1_2 N1 1_555 1_555
N2_2 C4_2 1_555 1_555
H8_2 N2_2 1_555 1_555
H9_2 N2_2 1_555 1_555
C15 H11 1_555 1_555
C17 C12 1_555 1_555
C18 C15 1_555 1_555
H13 C18 1_555 1_555
O6_2 Cu1_2 1_555 1_555
O7_2 Cu1_2 1_555 1_555
C10 N1 1_555 1_555
C12 C13 1_555 1_555
O2_2 Cu1_2 1_555 1_555
C15 N4 1_555 1_555
C17 C18 1_555 1_555
C9 H4 1_555 1_555
C11 C9 1_555 1_555
H6 C11 1_555 1_555
C14 H10 1_555 1_555
C16 C14 1_555 1_555
H12 C16 1_555 1_555
C1 C2 1_555 1_555
H2 C5 1_555 1_555
C6 C5 1_555 1_555
C7 C2 1_555 1_555
H3 C7 1_555 1_555
C8 C6 1_555 1_555
O1 C1 1_555 1_555
O3 C8 1_555 1_555
O4 C8 1_555 1_555
Cu3 O3 1_555 1_555
C6 C7 1_555 1_555
O4 Cu3 1_555 1_555
C1_2 C2_2 1_555 1_555
H2_2 C5_2 1_555 1_555
C6_2 C5_2 1_555 1_555
C7_2 C2_2 1_555 1_555
H3_2 C7_2 1_555 1_555
C8_2 C6_2 1_555 1_555
O1_2 C1_2 1_555 1_555
O3_2 C8_2 1_555 1_555
O4_2 C8_2 1_555 1_555
Cu3_2 O3_2 1_555 1_555
C6_2 C7_2 1_555 1_555
O4_2 Cu3_2 1_555 1_555
C1_3 C2_3 1_555 1_555
H2_3 C5_3 1_555 1_555
C6_3 C5_3 1_555 1_555
C7_3 C2_3 1_555 1_555
H3_3 C7_3 1_555 1_555
C8_3 C6_3 1_555 1_555
O5 C1_3 1_555 1_555
O3_3 C8_3 1_555 1_555
O4_3 C8_3 1_555 1_555
Cu3_3 O3_3 1_555 1_555
C6_3 C7_3 1_555 1_555
O4_3 Cu3_3 1_555 1_555
C1_4 C2_4 1_555 1_555
H2_4 C5_4 1_555 1_555
C6_4 C5_4 1_555 1_555
C7_4 C2_4 1_555 1_555
H3_4 C7_4 1_555 1_555
C8_4 C6_4 1_555 1_555
O5_2 C1_4 1_555 1_555
O3_4 C8_4 1_555 1_555
O4_4 C8_4 1_555 1_555
Cu3_4 O3_4 1_555 1_555
C6_4 C7_4 1_555 1_555
O4_4 Cu3_4 1_555 1_555
C9_2 H4_2 1_555 1_555
C11_2 C9_2 1_555 1_555
H6_2 C11_2 1_555 1_555
C14_2 H10_2 1_555 1_555
C16_2 C14_2 1_555 1_555
H12_2 C16_2 1_555 1_555
C3_3 H1_3 1_555 1_555
C4_3 C3_3 1_555 1_555
N2_3 C4_3 1_555 1_555
H8_3 N2_3 1_555 1_555
H9_3 N2_3 1_555 1_555
N4_2 Cu2 1_555 1_555
O6_3 Cu2 1_555 1_555
O7_3 Cu2 1_555 1_555
O2_3 Cu2 1_555 1_555
C3_4 H1_4 1_555 1_555
C4_4 C3_4 1_555 1_555
C10_2 H5_2 1_555 1_555
C13_2 C10_2 1_555 1_555
H7_2 C13_2 1_555 1_555
Cu2_2 N1_2 1_555 1_555
N2_4 C4_4 1_555 1_555
H8_4 N2_4 1_555 1_555
H9_4 N2_4 1_555 1_555
C15_2 H11_2 1_555 1_555
C17_2 C12_2 1_555 1_555
C18_2 C15_2 1_555 1_555
H13_2 C18_2 1_555 1_555
O6_4 Cu2_2 1_555 1_555
O7_4 Cu2_2 1_555 1_555
C10_2 N1_2 1_555 1_555
C12_2 C13_2 1_555 1_555
O2_4 Cu2_2 1_555 1_555
C15_2 N4_2 1_555 1_555
C17_2 C18_2 1_555 1_555
C1_5 C2_5 1_555 1_555
C2_5 C3_5 1_555 1_555
C3_5 H1_5 1_555 1_555
C4_5 C3_5 1_555 1_555
C5_5 C4_5 1_555 1_555
H2_5 C5_5 1_555 1_555
C6_5 C5_5 1_555 1_555
C7_5 C2_5 1_555 1_555
H3_5 C7_5 1_555 1_555
C8_5 C6_5 1_555 1_555
C9_3 H4_3 1_555 1_555
C10_3 H5_3 1_555 1_555
C11_3 C9_3 1_555 1_555
H6_3 C11_3 1_555 1_555
C12_3 C11_3 1_555 1_555
C13_3 C10_3 1_555 1_555
H7_3 C13_3 1_555 1_555
N1_3 C9_3 1_555 1_555
O1_3 C1_5 1_555 1_555
O2_5 C1_5 1_555 1_555
O6 C8_5 1_555 1_555
O7 C8_5 1_555 1_555
Cu3 N1_3 1_555 1_555
N2_5 C4_5 1_555 1_555
H8_5 N2_5 1_555 1_555
H9_5 N2_5 1_555 1_555
C14_3 H10_3 1_555 1_555
C15_3 H11_3 1_555 1_555
C16_3 C14_3 1_555 1_555
H12_3 C16_3 1_555 1_555
C17_3 C12_3 1_555 1_555
C18_3 C15_3 1_555 1_555
H13_3 C18_3 1_555 1_555
N3 C14_3 1_555 1_555
O5_3 Cu3 1_555 1_555
Cu3_3 O1_3 1_555 1_555
Cu3_2 N3 1_555 1_555
C6_5 C7_5 1_555 1_555
C10_3 N1_3 1_555 1_555
C12_3 C13_3 1_555 1_555
O2_5 Cu3 1_555 1_555
C15_3 N3 1_555 1_555
C16_3 C17_3 1_555 1_555
C17_3 C18_3 1_555 1_555
C1_6 C2_6 1_555 1_555
C2_6 C3_6 1_555 1_555
C3_6 H1_6 1_555 1_555
C4_6 C3_6 1_555 1_555
C5_6 C4_6 1_555 1_555
H2_6 C5_6 1_555 1_555
C6_6 C5_6 1_555 1_555
C7_6 C2_6 1_555 1_555
H3_6 C7_6 1_555 1_555
C8_6 C6_6 1_555 1_555
O1_4 C1_6 1_555 1_555
O2_6 C1_6 1_555 1_555
O6_2 C8_6 1_555 1_555
O7_2 C8_6 1_555 1_555
N2_6 C4_6 1_555 1_555
H8_6 N2_6 1_555 1_555
H9_6 N2_6 1_555 1_555
O5_4 Cu3_2 1_555 1_555
Cu3_4 O1_4 1_555 1_555
C6_6 C7_6 1_555 1_555
O2_6 Cu3_2 1_555 1_555
C1_7 C2_7 1_555 1_555
C2_7 C3_7 1_555 1_555
C3_7 H1_7 1_555 1_555
C4_7 C3_7 1_555 1_555
C5_7 C4_7 1_555 1_555
H2_7 C5_7 1_555 1_555
C6_7 C5_7 1_555 1_555
C7_7 C2_7 1_555 1_555
H3_7 C7_7 1_555 1_555
C8_7 C6_7 1_555 1_555
C9_4 H4_4 1_555 1_555
C10_4 H5_4 1_555 1_555
C11_4 C9_4 1_555 1_555
H6_4 C11_4 1_555 1_555
C12_4 C11_4 1_555 1_555
C13_4 C10_4 1_555 1_555
H7_4 C13_4 1_555 1_555
N1_4 C9_4 1_555 1_555
O5_3 C1_7 1_555 1_555
O2_7 C1_7 1_555 1_555
O6_3 C8_7 1_555 1_555
O7_3 C8_7 1_555 1_555
Cu3_3 N1_4 1_555 1_555
N2_7 C4_7 1_555 1_555
H8_7 N2_7 1_555 1_555
H9_7 N2_7 1_555 1_555
C14_4 H10_4 1_555 1_555
C15_4 H11_4 1_555 1_555
C16_4 C14_4 1_555 1_555
H12_4 C16_4 1_555 1_555
C17_4 C12_4 1_555 1_555
C18_4 C15_4 1_555 1_555
H13_4 C18_4 1_555 1_555
N3_2 C14_4 1_555 1_555
Cu3_4 N3_2 1_555 1_555
C6_7 C7_7 1_555 1_555
C10_4 N1_4 1_555 1_555
C12_4 C13_4 1_555 1_555
O2_7 Cu3_3 1_555 1_555
C15_4 N3_2 1_555 1_555
C16_4 C17_4 1_555 1_555
C17_4 C18_4 1_555 1_555
C1_8 C2_8 1_555 1_555
C2_8 C3_8 1_555 1_555
C3_8 H1_8 1_555 1_555
C4_8 C3_8 1_555 1_555
C5_8 C4_8 1_555 1_555
H2_8 C5_8 1_555 1_555
C6_8 C5_8 1_555 1_555
C7_8 C2_8 1_555 1_555
H3_8 C7_8 1_555 1_555
C8_8 C6_8 1_555 1_555
O5_4 C1_8 1_555 1_555
O2_8 C1_8 1_555 1_555
O6_4 C8_8 1_555 1_555
O7_4 C8_8 1_555 1_555
N2_8 C4_8 1_555 1_555
H8_8 N2_8 1_555 1_555
H9_8 N2_8 1_555 1_555
C6_8 C7_8 1_555 1_555
O2_8 Cu3_4 1_555 1_555

#END
