
###############################################################################
#
# This file contains modified crystal structure data generated from the
# MOF subset of the Cambridge Structural Database (CSD) v543 
# hosted by the Cambridge Crystallographic Data Centre (CCDC).
#
# This work is licensed under the Creative Commons
# Attribution-NonCommercial-ShareAlike 4.0 International License.
# To view a copy of this license, visit
# http://creativecommons.org/licenses/by-nc-sa/4.0/
# or send a letter to
# Creative Commons, PO Box 1866, Mountain View, CA 94042, USA.
#
# CIF created using the CSD Python API on 29 September 2022
# The structure has been converted into the P1 space group
# The structure has a 3D framework
# The original CSD entry FAQHAI is in the monoclinic crystal system
# The framework has been calculated to contain at least 10.0% void space
# The void calculation uses a probe of radius 1.32A, grid spacing 0.4
#
###############################################################################

data_FAQHAI
_chemical_formula_moiety         '(C104 H72 Co8 N16 O30)n'
_symmetry_cell_setting           triclinic
_symmetry_space_group_name_H-M   'P 1'
_symmetry_Int_Tables_number      1
_space_group_name_Hall           'P 1'
loop_
_symmetry_equiv_pos_site_id
_symmetry_equiv_pos_as_xyz
1 x,y,z
_cell_length_a                   12.1463(16)
_cell_length_b                   14.544(2)
_cell_length_c                   16.438(2)
_cell_angle_alpha                90
_cell_angle_beta                 97.014(2)
_cell_angle_gamma                90
_cell_volume                     2882.14
loop_
_atom_site_label
_atom_site_type_symbol
_atom_site_fract_x
_atom_site_fract_y
_atom_site_fract_z
O5 O 0.1235(5) 0.0215(4) 0.8945(4)
Co3 Co 0.20469(9) 0.14394(7) 0.89196(7)
Co6 Co 0.26418(9) 0.00541(7) 0.73543(7)
O6 O 0.1309(5) 0.9437(4) 0.7765(4)
C10 C 0.0236(7) 0.8708(6) 0.9612(5)
H8 H 0.0562 0.9155 0.9968
C11 C 0.0324(7) 0.8779(6) 0.8783(5)
C15 C 0.0994(7) 0.9540(6) 0.8468(5)
O9 O 0.6439(6) 0.1174(5) 0.2621(4)
O10 O 0.7397(7) 0.0785(5) 0.3776(4)
O12 O 0.8691(5) 0.0563(4) 0.2235(4)
Co1 Co 0.79531(9) 0.85606(7) 0.10804(7)
Co2 Co 0.73582(9) 0.99459(7) 0.26457(7)
N2 N 0.9537(6) 0.7934(5) 0.0760(4)
H3 H 0.9806 0.8355 0.1094
H4 H 0.9183 0.7478 0.0936
N4 N 0.7121(6) 0.7269(5) 0.0825(5)
O1 O 0.6613(4) 0.9336(4) 0.1547(3)
O2 O 0.5745(5) 0.9130(5) 0.2614(4)
O3 O 0.3561(6) 0.6174(5) 0.2379(4)
O4 O 0.2603(7) 0.5785(5) 0.1224(4)
C1 C 0.3811(8) 0.8130(7) 0.0055(6)
C2 C 0.3368(8) 0.7376(7) 0.0439(6)
H5 H 0.2835 0.7015 0.0135
C3 C 0.3687(7) 0.7149(6) 0.1244(6)
C4 C 0.4469(7) 0.7698(6) 0.1713(6)
H6 H 0.4665 0.7566 0.2266
C5 C 0.4959(7) 0.8441(6) 0.1358(5)
C6 C 0.4632(7) 0.8660(6) 0.0524(6)
H7 H 0.4958 0.9153 0.0285
C7 C 0.5812(7) 0.9003(6) 0.1873(6)
C8 C 0.3250(7) 0.6327(6) 0.1634(6)
C17 C 0.7176(9) 0.6556(7) 0.1336(7)
H11 H 0.7509 0.6641 0.1871
C18 C 0.6765(11) 0.5697(8) 0.1112(8)
H12 H 0.6775 0.5222 0.1491
C19 C 0.6340(10) 0.5571(8) 0.0309(9)
H13 H 0.6094 0.4992 0.0128
C21 C 0.6672(8) 0.7160(7) 0.0049(6)
Co5 Co 0.26418(9) 0.49459(7) 0.23543(7)
O11 O 0.8765(5) 0.9785(4) 0.1055(4)
O13 O 0.8592(5) 0.8118(4) 0.2223(3)
O14 O 0.8161(5) 0.8926(4) 0.3285(4)
N1 N 0.3455(8) 0.8381(7) 0.9266(5)
H1 H 0.2938 0.8073 0.8983
H2 H 0.3747 0.8847 0.9052
N3 N 0.7214(6) 0.8698(5) 0.9865(4)
O7 O 0.8592(5) 0.6882(4) 0.7223(3)
O8 O 0.8161(5) 0.6074(4) 0.8285(4)
C9 C 0.9677(7) 0.7993(6) 0.9919(5)
C12 C 0.9815(7) 0.8133(6) 0.8248(5)
H9 H 0.9869 0.8178 0.7690
C13 C 0.9223(7) 0.7417(5) 0.8545(5)
C14 C 0.9182(7) 0.7324(6) 0.9375(5)
H10 H 0.8829 0.6820 0.9575
C16 C 0.8599(7) 0.6733(6) 0.7975(5)
C20 C 0.6276(9) 0.6293(8) 0.9770(7)
H14 H 0.5974 0.6211 0.9227
C22 C 0.6660(7) 0.7959(6) 0.9529(6)
C23 C 0.6104(9) 0.7998(9) 0.8746(7)
H15 H 0.5729 0.7483 0.8519
C24 C 0.6107(9) 0.8800(9) 0.8302(7)
H16 H 0.5716 0.8838 0.7780
C25 C 0.6696(9) 0.9546(8) 0.8641(6)
C26 C 0.7225(8) 0.9462(7) 0.9422(6)
H18 H 0.7612 0.9968 0.9655
Co4 Co 0.79531(9) 0.64394(7) 0.60804(7)
Co7 Co 0.73582(9) 0.50541(7) 0.76457(7)
Co1_2 Co 0.20469(9) 0.35606(7) 0.39196(7)
N1_2 N 0.6545(8) 0.3381(7) 0.5734(5)
H1_2 H 0.7062 0.3073 0.6017
H2_2 H 0.6253 0.3847 0.5948
N2_2 N 0.0463(6) 0.2934(5) 0.4240(4)
H3_2 H 0.0194 0.3355 0.3906
H4_2 H 0.0817 0.2478 0.4064
N3_2 N 0.2786(6) 0.3698(5) 0.5135(4)
N4_2 N 0.2879(6) 0.2269(5) 0.4175(5)
O1_2 O 0.3387(4) 0.4336(4) 0.3453(3)
O2_2 O 0.4255(5) 0.4130(5) 0.2386(4)
O7_2 O 0.1408(5) 0.1882(4) 0.7777(3)
O8_2 O 0.1839(5) 0.1074(4) 0.6715(4)
C1_2 C 0.6189(8) 0.3130(7) 0.4945(6)
C2_2 C 0.6632(8) 0.2376(7) 0.4561(6)
H5_2 H 0.7165 0.2015 0.4865
C3_2 C 0.6313(7) 0.2149(6) 0.3756(6)
C4_2 C 0.5531(7) 0.2698(6) 0.3287(6)
H6_2 H 0.5335 0.2566 0.2734
C5_2 C 0.5041(7) 0.3441(6) 0.3642(5)
C6_2 C 0.5368(7) 0.3660(6) 0.4476(6)
H7_2 H 0.5042 0.4153 0.4715
C7_2 C 0.4188(7) 0.4003(6) 0.3127(6)
C8_2 C 0.6750(7) 0.1327(6) 0.3366(6)
C9_2 C 0.0323(7) 0.2993(6) 0.5081(5)
C12_2 C 0.0185(7) 0.3133(6) 0.6752(5)
H9_2 H 0.0131 0.3178 0.7310
C13_2 C 0.0777(7) 0.2417(5) 0.6455(5)
C14_2 C 0.0818(7) 0.2324(6) 0.5625(5)
H10_2 H 0.1171 0.1820 0.5425
C16_2 C 0.1401(7) 0.1733(6) 0.7025(5)
C17_2 C 0.2824(9) 0.1556(7) 0.3664(7)
H11_2 H 0.2491 0.1641 0.3129
C18_2 C 0.3235(11) 0.0697(8) 0.3888(8)
H12_2 H 0.3225 0.0222 0.3509
C19_2 C 0.3660(10) 0.0571(8) 0.4691(9)
C20_2 C 0.3724(9) 0.1293(8) 0.5230(7)
H14_2 H 0.4026 0.1211 0.5773
C21_2 C 0.3328(8) 0.2160(7) 0.4951(6)
C22_2 C 0.3340(7) 0.2959(6) 0.5471(6)
C23_2 C 0.3896(9) 0.2998(9) 0.6254(7)
H15_2 H 0.4271 0.2483 0.6481
C24_2 C 0.3893(9) 0.3800(9) 0.6698(7)
H16_2 H 0.4284 0.3838 0.7220
C25_2 C 0.3304(9) 0.4546(8) 0.6359(6)
H17 H 0.3267 0.5089 0.6653
C26_2 C 0.2775(8) 0.4462(7) 0.5578(6)
H18_2 H 0.2388 0.4968 0.5345
O11_2 O 0.1235(5) 0.4785(4) 0.3945(4)
O12_2 O 0.1309(5) 0.5563(4) 0.2765(4)
O13_2 O 0.1408(5) 0.3118(4) 0.2777(3)
O14_2 O 0.1839(5) 0.3926(4) 0.1715(4)
H13_2 H 0.3906 0.9992 0.4872
O5_2 O 0.8765(5) 0.5215(4) 0.6055(4)
O6_2 O 0.8691(5) 0.4437(4) 0.7235(4)
C10_2 C 0.9764(7) 0.3708(6) 0.5388(5)
H8_2 H 0.9438 0.4155 0.5032
C11_2 C 0.9676(7) 0.3779(6) 0.6217(5)
C15_2 C 0.9006(7) 0.4540(6) 0.6532(5)
N1_3 N 0.6545(8) 0.1619(7) 0.0734(5)
H1_3 H 0.7062 0.1927 0.1017
H2_3 H 0.6253 0.1153 0.0948
N3_3 N 0.2786(6) 0.1302(5) 0.0135(4)
C9_3 C 0.0323(7) 0.2007(6) 0.0081(5)
C12_3 C 0.0185(7) 0.1867(6) 0.1752(5)
H9_3 H 0.0131 0.1822 0.2310
C13_3 C 0.0777(7) 0.2583(5) 0.1455(5)
C14_3 C 0.0818(7) 0.2676(6) 0.0625(5)
H10_3 H 0.1171 0.3180 0.0425
C16_3 C 0.1401(7) 0.3267(6) 0.2025(5)
C20_3 C 0.3724(9) 0.3707(8) 0.0230(7)
H14_3 H 0.4026 0.3789 0.0773
C22_3 C 0.3340(7) 0.2041(6) 0.0471(6)
C23_3 C 0.3896(9) 0.2002(9) 0.1254(7)
H15_3 H 0.4271 0.2517 0.1481
C24_3 C 0.3893(9) 0.1200(9) 0.1698(7)
H16_3 H 0.4284 0.1162 0.2220
C25_3 C 0.3304(9) 0.0454(8) 0.1359(6)
C26_3 C 0.2775(8) 0.0538(7) 0.0578(6)
H18_3 H 0.2388 0.0032 0.0345
N2_3 N 0.0463(6) 0.2066(5) 0.9240(4)
H3_3 H 0.0194 0.1645 0.8906
H4_3 H 0.0817 0.2522 0.9064
N4_3 N 0.2879(6) 0.2731(5) 0.9175(5)
O1_3 O 0.3387(4) 0.0664(4) 0.8453(3)
O2_3 O 0.4255(5) 0.0870(5) 0.7386(4)
O3_2 O 0.6439(6) 0.3826(5) 0.7621(4)
O4_2 O 0.7397(7) 0.4215(5) 0.8776(4)
C1_3 C 0.6189(8) 0.1870(7) 0.9945(6)
C2_3 C 0.6632(8) 0.2624(7) 0.9561(6)
H5_3 H 0.7165 0.2985 0.9865
C3_3 C 0.6313(7) 0.2851(6) 0.8756(6)
C4_3 C 0.5531(7) 0.2302(6) 0.8287(6)
H6_3 H 0.5335 0.2434 0.7734
C5_3 C 0.5041(7) 0.1559(6) 0.8642(5)
C6_3 C 0.5368(7) 0.1340(6) 0.9476(6)
H7_3 H 0.5042 0.0847 0.9715
C7_3 C 0.4188(7) 0.0997(6) 0.8127(6)
C8_3 C 0.6750(7) 0.3673(6) 0.8366(6)
C17_3 C 0.2824(9) 0.3444(7) 0.8664(7)
H11_3 H 0.2491 0.3359 0.8129
C18_3 C 0.3235(11) 0.4303(8) 0.8888(8)
H12_3 H 0.3225 0.4778 0.8509
C19_3 C 0.3660(10) 0.4429(8) 0.9691(9)
H13_3 H 0.3906 0.5008 0.9872
C21_3 C 0.3328(8) 0.2840(7) 0.9951(6)
O9_2 O 0.3561(6) 0.8826(5) 0.7379(4)
O10_2 O 0.2603(7) 0.9215(5) 0.6224(4)
C10_3 C 0.9764(7) 0.1292(6) 0.0388(5)
H8_3 H 0.9438 0.0845 0.0032
C11_3 C 0.9676(7) 0.1221(6) 0.1217(5)
C15_3 C 0.9006(7) 0.0460(6) 0.1532(5)
C10_4 C 0.0236(7) 0.6292(6) 0.4612(5)
H8_4 H 0.0562 0.5845 0.4968
C11_4 C 0.0324(7) 0.6221(6) 0.3783(5)
C15_4 C 0.0994(7) 0.5460(6) 0.3468(5)
H13_4 H 0.6094 0.0008 0.5128
N1_4 N 0.3455(8) 0.6619(7) 0.4266(5)
H1_4 H 0.2938 0.6927 0.3983
H2_4 H 0.3747 0.6153 0.4052
N2_4 N 0.9537(6) 0.7066(5) 0.5760(4)
H3_4 H 0.9806 0.6645 0.6094
H4_4 H 0.9183 0.7522 0.5936
N3_4 N 0.7214(6) 0.6302(5) 0.4865(4)
N4_4 N 0.7121(6) 0.7731(5) 0.5825(5)
O1_4 O 0.6613(4) 0.5664(4) 0.6547(3)
O2_4 O 0.5745(5) 0.5870(5) 0.7614(4)
C1_4 C 0.3811(8) 0.6870(7) 0.5055(6)
C2_4 C 0.3368(8) 0.7624(7) 0.5439(6)
H5_4 H 0.2835 0.7985 0.5135
C3_4 C 0.3687(7) 0.7851(6) 0.6244(6)
C4_4 C 0.4469(7) 0.7302(6) 0.6713(6)
H6_4 H 0.4665 0.7434 0.7266
C5_4 C 0.4959(7) 0.6559(6) 0.6358(5)
C6_4 C 0.4632(7) 0.6340(6) 0.5524(6)
H7_4 H 0.4958 0.5847 0.5285
C7_4 C 0.5812(7) 0.5997(6) 0.6873(6)
C8_4 C 0.3250(7) 0.8673(6) 0.6634(6)
C9_4 C 0.9677(7) 0.7007(6) 0.4919(5)
C12_4 C 0.9815(7) 0.6867(6) 0.3248(5)
H9_4 H 0.9869 0.6822 0.2690
C13_4 C 0.9223(7) 0.7583(5) 0.3545(5)
C14_4 C 0.9182(7) 0.7676(6) 0.4375(5)
H10_4 H 0.8829 0.8180 0.4575
C16_4 C 0.8599(7) 0.8267(6) 0.2975(5)
C17_4 C 0.7176(9) 0.8444(7) 0.6336(7)
H11_4 H 0.7509 0.8359 0.6871
C18_4 C 0.6765(11) 0.9303(8) 0.6112(8)
H12_4 H 0.6775 0.9778 0.6491
C19_4 C 0.6340(10) 0.9429(8) 0.5309(9)
C20_4 C 0.6276(9) 0.8707(8) 0.4770(7)
H14_4 H 0.5974 0.8789 0.4227
C21_4 C 0.6672(8) 0.7840(7) 0.5049(6)
C22_4 C 0.6660(7) 0.7041(6) 0.4529(6)
C23_4 C 0.6104(9) 0.7002(9) 0.3746(7)
H15_4 H 0.5729 0.7517 0.3519
C24_4 C 0.6107(9) 0.6200(9) 0.3302(7)
H16_4 H 0.5716 0.6162 0.2780
C25_4 C 0.6696(9) 0.5454(8) 0.3641(6)
H17_2 H 0.6733 0.4911 0.3347
C26_4 C 0.7225(8) 0.5538(7) 0.4422(6)
H18_4 H 0.7612 0.5032 0.4655
H17_3 H 0.6733 0.0089 0.8347
H17_4 H 0.3267 0.9911 0.1653
loop_
_geom_bond_atom_site_label_1
_geom_bond_atom_site_label_2
_geom_bond_site_symmetry_1
_geom_bond_site_symmetry_2
Co3 O5 1_555 1_555
O6 C15 1_555 1_555
H8 C10 1_555 1_555
C11 C10 1_555 1_555
C15 C11 1_555 1_555
Co1 N2 1_555 1_555
Co2 O1 1_555 1_555
N2 H3 1_555 1_555
H4 N2 1_555 1_555
N4 Co1 1_555 1_555
O1 Co1 1_555 1_555
O2 Co2 1_555 1_555
O3 C8 1_555 1_555
O4 C8 1_555 1_555
C2 C1 1_555 1_555
H5 C2 1_555 1_555
C3 C2 1_555 1_555
C4 C3 1_555 1_555
H6 C4 1_555 1_555
C5 C4 1_555 1_555
C6 C1 1_555 1_555
H7 C6 1_555 1_555
C7 O1 1_555 1_555
C8 C3 1_555 1_555
C17 N4 1_555 1_555
H11 C17 1_555 1_555
C18 C17 1_555 1_555
H12 C18 1_555 1_555
C19 C18 1_555 1_555
H13 C19 1_555 1_555
C21 N4 1_555 1_555
Co5 O3 1_555 1_555
O11 Co1 1_555 1_555
O13 Co1 1_555 1_555
O14 Co2 1_555 1_555
O2 C7 1_555 1_555
O4 Co5 1_555 1_555
C5 C6 1_555 1_555
C5 C7 1_555 1_555
N1 H1 1_555 1_555
H2 N1 1_555 1_555
O7 C16 1_555 1_555
O8 C16 1_555 1_555
H9 C12 1_555 1_555
C13 C12 1_555 1_555
C14 C9 1_555 1_555
H10 C14 1_555 1_555
C16 C13 1_555 1_555
H14 C20 1_555 1_555
C22 N3 1_555 1_555
C23 C22 1_555 1_555
H15 C23 1_555 1_555
C24 C23 1_555 1_555
H16 C24 1_555 1_555
C25 C24 1_555 1_555
C26 N3 1_555 1_555
H18 C26 1_555 1_555
Co4 O7 1_555 1_555
Co7 O8 1_555 1_555
C13 C14 1_555 1_555
C25 C26 1_555 1_555
Co1_2 N2_2 1_555 1_555
Co5 O1_2 1_555 1_555
N1_2 H1_2 1_555 1_555
H2_2 N1_2 1_555 1_555
N2_2 H3_2 1_555 1_555
H4_2 N2_2 1_555 1_555
N3_2 Co1_2 1_555 1_555
N4_2 Co1_2 1_555 1_555
O1_2 Co1_2 1_555 1_555
O2_2 Co5 1_555 1_555
O9 C8_2 1_555 1_555
O10 C8_2 1_555 1_555
O7_2 C16_2 1_555 1_555
O8_2 C16_2 1_555 1_555
C1_2 N1_2 1_555 1_555
C2_2 C1_2 1_555 1_555
H5_2 C2_2 1_555 1_555
C3_2 C2_2 1_555 1_555
C4_2 C3_2 1_555 1_555
H6_2 C4_2 1_555 1_555
C5_2 C4_2 1_555 1_555
C6_2 C1_2 1_555 1_555
H7_2 C6_2 1_555 1_555
C7_2 O1_2 1_555 1_555
C8_2 C3_2 1_555 1_555
C9_2 N2_2 1_555 1_555
H9_2 C12_2 1_555 1_555
C13_2 C12_2 1_555 1_555
C14_2 C9_2 1_555 1_555
H10_2 C14_2 1_555 1_555
C16_2 C13_2 1_555 1_555
C17_2 N4_2 1_555 1_555
H11_2 C17_2 1_555 1_555
C18_2 C17_2 1_555 1_555
H12_2 C18_2 1_555 1_555
C19_2 C18_2 1_555 1_555
C20_2 C19_2 1_555 1_555
H14_2 C20_2 1_555 1_555
C21_2 N4_2 1_555 1_555
C22_2 N3_2 1_555 1_555
C23_2 C22_2 1_555 1_555
H15_2 C23_2 1_555 1_555
C24_2 C23_2 1_555 1_555
H16_2 C24_2 1_555 1_555
C25_2 C24_2 1_555 1_555
H17 C25_2 1_555 1_555
C26_2 N3_2 1_555 1_555
H18_2 C26_2 1_555 1_555
Co3 O7_2 1_555 1_555
Co6 O8_2 1_555 1_555
O11_2 Co1_2 1_555 1_555
O12_2 Co5 1_555 1_555
O13_2 Co1_2 1_555 1_555
O14_2 Co5 1_555 1_555
O2_2 C7_2 1_555 1_555
C5_2 C6_2 1_555 1_555
C5_2 C7_2 1_555 1_555
C13_2 C14_2 1_555 1_555
C20_2 C21_2 1_555 1_555
C21_2 C22_2 1_555 1_555
C25_2 C26_2 1_555 1_555
O5_2 C15_2 1_555 1_555
O6_2 C15_2 1_555 1_555
H8_2 C10_2 1_555 1_555
C11_2 C10_2 1_555 1_555
C15_2 C11_2 1_555 1_555
Co4 O5_2 1_555 1_555
Co7 O6_2 1_555 1_555
N1_3 H1_3 1_555 1_555
H2_3 N1_3 1_555 1_555
O13_2 C16_3 1_555 1_555
O14_2 C16_3 1_555 1_555
H9_3 C12_3 1_555 1_555
C13_3 C12_3 1_555 1_555
C14_3 C9_3 1_555 1_555
H10_3 C14_3 1_555 1_555
C16_3 C13_3 1_555 1_555
H14_3 C20_3 1_555 1_555
C22_3 N3_3 1_555 1_555
C23_3 C22_3 1_555 1_555
H15_3 C23_3 1_555 1_555
C24_3 C23_3 1_555 1_555
H16_3 C24_3 1_555 1_555
C25_3 C24_3 1_555 1_555
C26_3 N3_3 1_555 1_555
H18_3 C26_3 1_555 1_555
C13_3 C14_3 1_555 1_555
C25_3 C26_3 1_555 1_555
Co3 N2_3 1_555 1_555
Co6 O1_3 1_555 1_555
N2_3 H3_3 1_555 1_555
H4_3 N2_3 1_555 1_555
N4_3 Co3 1_555 1_555
O1_3 Co3 1_555 1_555
O2_3 Co6 1_555 1_555
O3_2 C8_3 1_555 1_555
O4_2 C8_3 1_555 1_555
C2_3 C1_3 1_555 1_555
H5_3 C2_3 1_555 1_555
C3_3 C2_3 1_555 1_555
C4_3 C3_3 1_555 1_555
H6_3 C4_3 1_555 1_555
C5_3 C4_3 1_555 1_555
C6_3 C1_3 1_555 1_555
H7_3 C6_3 1_555 1_555
C7_3 O1_3 1_555 1_555
C8_3 C3_3 1_555 1_555
C17_3 N4_3 1_555 1_555
H11_3 C17_3 1_555 1_555
C18_3 C17_3 1_555 1_555
H12_3 C18_3 1_555 1_555
C19_3 C18_3 1_555 1_555
H13_3 C19_3 1_555 1_555
C21_3 N4_3 1_555 1_555
Co7 O3_2 1_555 1_555
O2_3 C7_3 1_555 1_555
O4_2 Co7 1_555 1_555
C5_3 C6_3 1_555 1_555
C5_3 C7_3 1_555 1_555
O12 C15_3 1_555 1_555
H8_3 C10_3 1_555 1_555
C11_3 C10_3 1_555 1_555
C15_3 C11_3 1_555 1_555
O11_2 C15_4 1_555 1_555
O12_2 C15_4 1_555 1_555
H8_4 C10_4 1_555 1_555
C11_4 C10_4 1_555 1_555
C15_4 C11_4 1_555 1_555
Co4 N2_4 1_555 1_555
Co7 O1_4 1_555 1_555
N1_4 H1_4 1_555 1_555
H2_4 N1_4 1_555 1_555
N2_4 H3_4 1_555 1_555
H4_4 N2_4 1_555 1_555
N3_4 Co4 1_555 1_555
N4_4 Co4 1_555 1_555
O1_4 Co4 1_555 1_555
O2_4 Co7 1_555 1_555
O9_2 C8_4 1_555 1_555
O10_2 C8_4 1_555 1_555
O13 C16_4 1_555 1_555
O14 C16_4 1_555 1_555
C1_4 N1_4 1_555 1_555
C2_4 C1_4 1_555 1_555
H5_4 C2_4 1_555 1_555
C3_4 C2_4 1_555 1_555
C4_4 C3_4 1_555 1_555
H6_4 C4_4 1_555 1_555
C5_4 C4_4 1_555 1_555
C6_4 C1_4 1_555 1_555
H7_4 C6_4 1_555 1_555
C7_4 O1_4 1_555 1_555
C8_4 C3_4 1_555 1_555
C9_4 N2_4 1_555 1_555
H9_4 C12_4 1_555 1_555
C13_4 C12_4 1_555 1_555
C14_4 C9_4 1_555 1_555
H10_4 C14_4 1_555 1_555
C16_4 C13_4 1_555 1_555
C17_4 N4_4 1_555 1_555
H11_4 C17_4 1_555 1_555
C18_4 C17_4 1_555 1_555
H12_4 C18_4 1_555 1_555
C19_4 C18_4 1_555 1_555
C20_4 C19_4 1_555 1_555
H14_4 C20_4 1_555 1_555
C21_4 N4_4 1_555 1_555
C22_4 N3_4 1_555 1_555
C23_4 C22_4 1_555 1_555
H15_4 C23_4 1_555 1_555
C24_4 C23_4 1_555 1_555
H16_4 C24_4 1_555 1_555
C25_4 C24_4 1_555 1_555
H17_2 C25_4 1_555 1_555
C26_4 N3_4 1_555 1_555
H18_4 C26_4 1_555 1_555
O2_4 C7_4 1_555 1_555
C5_4 C6_4 1_555 1_555
C5_4 C7_4 1_555 1_555
C13_4 C14_4 1_555 1_555
C20_4 C21_4 1_555 1_555
C21_4 C22_4 1_555 1_555
C25_4 C26_4 1_555 1_555

#END
