
###############################################################################
#
# This file contains modified crystal structure data generated from the
# MOF subset of the Cambridge Structural Database (CSD) v543 
# hosted by the Cambridge Crystallographic Data Centre (CCDC).
#
# This work is licensed under the Creative Commons
# Attribution-NonCommercial-ShareAlike 4.0 International License.
# To view a copy of this license, visit
# http://creativecommons.org/licenses/by-nc-sa/4.0/
# or send a letter to
# Creative Commons, PO Box 1866, Mountain View, CA 94042, USA.
#
# CIF created using the CSD Python API on 29 September 2022
# The structure has been converted into the P1 space group
# The structure has a 3D framework
# The original CSD entry FAQTIE is in the monoclinic crystal system
# The framework has been calculated to contain at least 10.0% void space
# The void calculation uses a probe of radius 1.32A, grid spacing 0.4
#
###############################################################################

data_FAQTIE
_chemical_formula_moiety         '(C168 H112 Cd4 N16 O32)n'
_symmetry_cell_setting           triclinic
_symmetry_space_group_name_H-M   'P 1'
_symmetry_Int_Tables_number      1
_space_group_name_Hall           'P 1'
loop_
_symmetry_equiv_pos_site_id
_symmetry_equiv_pos_as_xyz
1 x,y,z
_cell_length_a                   20.6469(5)
_cell_length_b                   9.1919(2)
_cell_length_c                   22.6581(6)
_cell_angle_alpha                90
_cell_angle_beta                 103.735(2)
_cell_angle_gamma                90
_cell_volume                     4177.18
loop_
_atom_site_label
_atom_site_type_symbol
_atom_site_fract_x
_atom_site_fract_y
_atom_site_fract_z
O1 O 0.1478(3) 0.1111(8) 0.4413(4)
C2 C 0.0425(4) 0.1239(10) 0.3716(5)
C13 C 0.1019(4) 0.0458(10) 0.4086(5)
C15 C 0.0402(4) 0.2719(10) 0.3726(5)
H7 H 0.0761 0.3234 0.3957
Cd1 Cd 0.43433(2) 0.42525(5) 0.58715(2)
O2 O 0.0553(3) 0.6791(7) 0.3658(4)
O3 O 0.3831(3) 0.6150(9) 0.5309(3)
N2 N 0.4244(3) 0.2597(7) 0.5104(3)
N3 N 0.1009(3) 0.8943(8) 0.4050(4)
C1 C 0.4762(4) 0.2313(10) 0.4850(4)
H1 H 0.5163 0.2803 0.4989
C3 C 0.3654(5) 0.1951(12) 0.4857(4)
H2 H 0.3284 0.2172 0.5007
C10 C 0.2732(4) 0.7528(10) 0.4573(4)
H5 H 0.3132 0.7567 0.4451
C11 C 0.3307(4) 0.5974(10) 0.5441(4)
C17 C 0.0508(4) 0.8108(10) 0.3674(5)
C18 C 0.2695(4) 0.6795(10) 0.5092(4)
C20 C 0.4096(6) 0.0648(10) 0.4149(4)
C23 C 0.3957(6) 0.0219(11) 0.3044(4)
H9 H 0.4292 0.0973 0.3073
H10 H 0.3524 0.0690 0.2947
C25 C 0.2164(4) 0.8212(11) 0.4233(4)
H13 H 0.2179 0.8686 0.3874
C26 C 0.1585(4) 0.8188(10) 0.4424(5)
C30 C 0.3590(6) 0.0973(12) 0.4385(5)
H15 H 0.3180 0.0531 0.4230
C33 C 0.2103(5) 0.6757(15) 0.5267(6)
H18 H 0.2081 0.6259 0.5620
C34 C 0.4707(5) 0.1342(11) 0.4401(4)
H19 H 0.5079 0.1122 0.4252
C35 C 0.1539(4) 0.7442(13) 0.4933(5)
O6 O 0.3235(4) 0.5089(13) 0.5825(5)
H21 H 0.3960 0.0735 0.1886
C41 C 0.0880(8) 0.7326(18) 0.5150(7)
H23 H 0.0719 0.8285 0.5205
H24 H 0.0962 0.6808 0.5528
H25 H 0.0551 0.6815 0.4851
O9 O 0.5493(3) 0.4310(7) 0.5922(3)
N5 N 0.4148(4) 0.2583(7) 0.6569(3)
O10 O 0.5147(3) 0.5458(7) 0.6617(3)
C12 C 0.4000(5) 0.0786(9) 0.7526(4)
C24 C 0.4051(7) 0.0491(11) 0.8647(5)
H11 H 0.4456 0.1066 0.8729
H12 H 0.3680 0.1140 0.8644
C31 C 0.4041(14) 0.2219(14) 0.7569(7)
H16 H 0.4029 0.2657 0.7936
C38 C 0.4092(6) 0.1181(10) 0.6520(5)
H20 H 0.4109 0.0772 0.6148
C39 C 0.4009(6) 0.0258(11) 0.6964(5)
C40 C 0.4100(13) 0.3083(13) 0.7090(6)
H22 H 0.4107 0.4086 0.7143
N1 N 0.8212(3) 0.7329(7) 0.7359(4)
O4 O 0.8673(3) 0.5176(7) 0.7714(4)
O5 O 0.7761(3) 0.9454(7) 0.6943(4)
C6 C 0.8829(4) 0.9602(9) 0.7617(4)
C7 C 0.9358(4) 0.8801(9) 0.7983(4)
C8 C 0.7565(4) 0.6632(9) 0.7111(4)
C9 C 0.9913(4) 0.9547(9) 0.8341(5)
C14 C 0.6776(4) 0.5493(10) 0.6312(4)
H6 H 0.6665 0.5059 0.5930
C16 C 0.8730(4) 0.6473(10) 0.7697(5)
C19 C 0.8230(4) 0.8828(10) 0.7283(4)
C21 C 0.9847(4) 0.6524(10) 0.8393(5)
H8 H 0.9829 0.5516 0.8423
C22 C 0.9328(4) 0.7264(9) 0.8022(5)
C27 C 0.7118(4) 0.6678(9) 0.7484(4)
H14 H 0.7236 0.7040 0.7878
C28 C 0.7419(4) 0.6052(10) 0.6533(4)
C32 C 0.6472(4) 0.6140(9) 0.7225(4)
H17 H 0.6152 0.6172 0.7453
C36 C 0.6304(4) 0.5578(8) 0.6653(4)
C37 C 0.5604(4) 0.5069(8) 0.6379(4)
C42 C 0.7922(10) 0.589(2) 0.6165(9)
H26 H 0.8256 0.5207 0.6356
H27 H 0.7707 0.5556 0.5765
H28 H 0.8128 0.6820 0.6135
C12_2 C 0.4000(5) 0.9214(9) 0.2526(4)
C24_2 C 0.4051(7) 0.9509(11) 0.3647(5)
H11_2 H 0.4456 0.8934 0.3729
H12_2 H 0.3680 0.8860 0.3644
C31_2 C 0.4041(14) 0.7781(14) 0.2569(7)
H16_2 H 0.4029 0.7343 0.2936
C38_2 C 0.4092(6) 0.8819(10) 0.1520(5)
H20_2 H 0.4109 0.9228 0.1148
C39_2 C 0.4009(6) 0.9742(11) 0.1964(5)
C40_2 C 0.4100(13) 0.6917(13) 0.2090(6)
H22_2 H 0.4107 0.5914 0.2143
N4 N 0.4148(4) 0.7417(7) 0.1569(3)
Cd3 Cd 0.43433(2) 0.57475(5) 0.08715(2)
N1_2 N 0.8212(3) 0.2671(7) 0.2359(4)
O4_2 O 0.8673(3) 0.4824(7) 0.2714(4)
O5_2 O 0.7761(3) 0.0546(7) 0.1943(4)
C6_2 C 0.8829(4) 0.0398(9) 0.2617(4)
C7_2 C 0.9358(4) 0.1199(9) 0.2983(4)
C8_2 C 0.7565(4) 0.3368(9) 0.2111(4)
C9_2 C 0.9913(4) 0.0453(9) 0.3341(5)
C14_2 C 0.6776(4) 0.4507(10) 0.1312(4)
H6_2 H 0.6665 0.4941 0.0930
C16_2 C 0.8730(4) 0.3527(10) 0.2697(5)
C19_2 C 0.8230(4) 0.1172(10) 0.2283(4)
C21_2 C 0.9847(4) 0.3476(10) 0.3393(5)
H8_2 H 0.9829 0.4484 0.3423
C22_2 C 0.9328(4) 0.2736(9) 0.3022(5)
C27_2 C 0.7118(4) 0.3322(9) 0.2484(4)
H14_2 H 0.7236 0.2960 0.2878
C28_2 C 0.7419(4) 0.3948(10) 0.1533(4)
C32_2 C 0.6472(4) 0.3860(9) 0.2225(4)
H17_2 H 0.6152 0.3828 0.2453
C36_2 C 0.6304(4) 0.4422(8) 0.1653(4)
C37_2 C 0.5604(4) 0.4931(8) 0.1379(4)
O7 O 0.5493(3) 0.5690(7) 0.0922(3)
O8 O 0.5147(3) 0.4542(7) 0.1617(3)
C42_2 C 0.7922(10) 0.411(2) 0.1165(9)
H26_2 H 0.8256 0.4793 0.1356
H27_2 H 0.7707 0.4444 0.0765
H28_2 H 0.8128 0.3180 0.1135
O3_2 O 0.3831(3) 0.3850(9) 0.0309(3)
N2_2 N 0.4244(3) 0.7403(7) 0.0104(3)
H2_2 H 0.3284 0.7828 0.0007
C11_2 C 0.3307(4) 0.4026(10) 0.0441(4)
C18_2 C 0.2695(4) 0.3205(10) 0.0092(4)
C33_2 C 0.2103(5) 0.3243(15) 0.0267(6)
H18_2 H 0.2081 0.3741 0.0620
O6_2 O 0.3235(4) 0.4911(13) 0.0825(5)
C41_2 C 0.0880(8) 0.2674(18) 0.0150(7)
H23_2 H 0.0719 0.1715 0.0205
H24_2 H 0.0962 0.3192 0.0528
C4 C 0.8864(4) 0.8904(9) 0.2587(5)
H3 H 0.8522 0.8391 0.2331
C5 C 0.9408(4) 0.8156(9) 0.2937(5)
H4 H 0.9423 0.7146 0.2923
C29 C 0.9929(4) 0.8923(9) 0.3307(5)
N1_3 N 0.1788(3) 0.2671(7) 0.2641(4)
O4_3 O 0.1327(3) 0.4824(7) 0.2286(4)
O5_3 O 0.2239(3) 0.0546(7) 0.3057(4)
C6_3 C 0.1171(4) 0.0398(9) 0.2383(4)
C7_3 C 0.0642(4) 0.1199(9) 0.2017(4)
C8_3 C 0.2435(4) 0.3368(9) 0.2889(4)
C9_3 C 0.0087(4) 0.0453(9) 0.1659(5)
C14_3 C 0.3224(4) 0.4507(10) 0.3688(4)
H6_3 H 0.3335 0.4941 0.4070
C16_3 C 0.1270(4) 0.3527(10) 0.2303(5)
C19_3 C 0.1770(4) 0.1172(10) 0.2717(4)
C21_3 C 0.0153(4) 0.3476(10) 0.1607(5)
H8_3 H 0.0171 0.4484 0.1577
C22_3 C 0.0672(4) 0.2736(9) 0.1978(5)
C27_3 C 0.2882(4) 0.3322(9) 0.2516(4)
H14_3 H 0.2764 0.2960 0.2122
C28_3 C 0.2581(4) 0.3948(10) 0.3467(4)
C32_3 C 0.3528(4) 0.3860(9) 0.2775(4)
H17_3 H 0.3848 0.3828 0.2547
C36_3 C 0.3696(4) 0.4422(8) 0.3347(4)
C37_3 C 0.4396(4) 0.4931(8) 0.3621(4)
O7_2 O 0.4507(3) 0.5690(7) 0.4078(3)
O8_2 O 0.4853(3) 0.4542(7) 0.3383(3)
C42_3 C 0.2078(10) 0.411(2) 0.3835(9)
H26_3 H 0.1744 0.4793 0.3644
H27_3 H 0.2293 0.4444 0.4235
H28_3 H 0.1872 0.3180 0.3865
Cd2 Cd 0.56567(2) 0.57475(5) 0.41285(2)
C12_3 C 0.6000(5) 0.9214(9) 0.2474(4)
C24_3 C 0.5949(7) 0.9509(11) 0.1353(5)
H11_3 H 0.5544 0.8934 0.1271
H12_3 H 0.6320 0.8860 0.1356
C31_3 C 0.5959(14) 0.7781(14) 0.2431(7)
H16_3 H 0.5971 0.7343 0.2064
C38_3 C 0.5908(6) 0.8819(10) 0.3480(5)
H20_3 H 0.5891 0.9228 0.3852
C39_3 C 0.5991(6) 0.9742(11) 0.3036(5)
C40_3 C 0.5900(13) 0.6917(13) 0.2910(6)
H22_3 H 0.5893 0.5914 0.2857
N4_2 N 0.5852(4) 0.7417(7) 0.3431(3)
O2_2 O 0.9447(3) 0.3209(7) 0.6342(4)
O3_3 O 0.6169(3) 0.3850(9) 0.4691(3)
N2_3 N 0.5756(3) 0.7403(7) 0.4896(3)
N3_2 N 0.8991(3) 0.1057(8) 0.5950(4)
C1_2 C 0.5238(4) 0.7687(10) 0.5150(4)
H1_2 H 0.4837 0.7197 0.5011
C3_2 C 0.6346(5) 0.8049(12) 0.5143(4)
H2_3 H 0.6716 0.7828 0.4993
C10_2 C 0.7268(4) 0.2472(10) 0.5427(4)
H5_2 H 0.6868 0.2433 0.5549
C11_3 C 0.6693(4) 0.4026(10) 0.4559(4)
C17_2 C 0.9492(4) 0.1892(10) 0.6326(5)
C18_3 C 0.7305(4) 0.3205(10) 0.4908(4)
C20_2 C 0.5904(6) 0.9352(10) 0.5851(4)
C23_2 C 0.6043(6) 0.9781(11) 0.6956(4)
H9_2 H 0.5708 0.9027 0.6927
H10_2 H 0.6476 0.9310 0.7053
C25_2 C 0.7836(4) 0.1788(11) 0.5767(4)
H13_2 H 0.7821 0.1314 0.6126
C26_2 C 0.8415(4) 0.1812(10) 0.5576(5)
C30_2 C 0.6410(6) 0.9027(12) 0.5615(5)
H15_2 H 0.6820 0.9469 0.5770
C33_3 C 0.7897(5) 0.3243(15) 0.4733(6)
H18_3 H 0.7919 0.3741 0.4380
C34_2 C 0.5293(5) 0.8658(11) 0.5599(4)
H19_2 H 0.4921 0.8878 0.5748
C35_2 C 0.8461(4) 0.2558(13) 0.5067(5)
O6_3 O 0.6765(4) 0.4911(13) 0.4175(5)
H21_2 H 0.6040 0.9265 0.8114
C41_3 C 0.9120(8) 0.2674(18) 0.4850(7)
H23_3 H 0.9281 0.1715 0.4795
H24_3 H 0.9038 0.3192 0.4472
H25_2 H 0.9449 0.3185 0.5149
C4_2 C 0.1136(4) 0.8904(9) 0.2413(5)
H3_2 H 0.1478 0.8391 0.2669
C5_2 C 0.0592(4) 0.8156(9) 0.2063(5)
H4_2 H 0.0577 0.7146 0.2077
C29_2 C 0.0071(4) 0.8923(9) 0.1693(5)
O1_2 O 0.8522(3) 0.1111(8) 0.0587(4)
C2_2 C 0.9575(4) 0.1239(10) 0.1284(5)
C13_2 C 0.8981(4) 0.0458(10) 0.0914(5)
C15_2 C 0.9598(4) 0.2719(10) 0.1274(5)
H7_2 H 0.9239 0.3234 0.1043
O2_3 O 0.9447(3) 0.6791(7) 0.1342(4)
N3_3 N 0.8991(3) 0.8943(8) 0.0950(4)
C1_3 C 0.5238(4) 0.2313(10) 0.0150(4)
H1_3 H 0.4837 0.2803 0.0011
C3_3 C 0.6346(5) 0.1951(12) 0.0143(4)
C10_3 C 0.7268(4) 0.7528(10) 0.0427(4)
H5_3 H 0.6868 0.7567 0.0549
C17_3 C 0.9492(4) 0.8108(10) 0.1326(5)
C20_3 C 0.5904(6) 0.0648(10) 0.0851(4)
C23_3 C 0.6043(6) 0.0219(11) 0.1956(4)
H9_3 H 0.5708 0.0973 0.1927
H10_3 H 0.6476 0.0690 0.2053
C25_3 C 0.7836(4) 0.8212(11) 0.0767(4)
H13_3 H 0.7821 0.8686 0.1126
C26_3 C 0.8415(4) 0.8188(10) 0.0576(5)
C30_3 C 0.6410(6) 0.0973(12) 0.0615(5)
H15_3 H 0.6820 0.0531 0.0770
C34_3 C 0.5293(5) 0.1342(11) 0.0599(4)
H19_3 H 0.4921 0.1122 0.0748
C35_3 C 0.8461(4) 0.7442(13) 0.0067(5)
H21_3 H 0.6040 0.0735 0.3114
H25_3 H 0.9449 0.6815 0.0149
Cd1_2 Cd 0.56567(2) 0.42525(5) 0.91285(2)
O3_4 O 0.6169(3) 0.6150(9) 0.9691(3)
N2_4 N 0.5756(3) 0.2597(7) 0.9896(3)
H2_4 H 0.6716 0.2172 0.9993
C11_4 C 0.6693(4) 0.5974(10) 0.9559(4)
C18_4 C 0.7305(4) 0.6795(10) 0.9908(4)
C33_4 C 0.7897(5) 0.6757(15) 0.9733(6)
H18_4 H 0.7919 0.6259 0.9380
O6_4 O 0.6765(4) 0.5089(13) 0.9175(5)
C41_4 C 0.9120(8) 0.7326(18) 0.9850(7)
H23_4 H 0.9281 0.8285 0.9795
H24_4 H 0.9038 0.6808 0.9472
O9_2 O 0.4507(3) 0.4310(7) 0.9078(3)
N5_2 N 0.5852(4) 0.2583(7) 0.8431(3)
O10_2 O 0.4853(3) 0.5458(7) 0.8383(3)
N1_4 N 0.1788(3) 0.7329(7) 0.7641(4)
O4_4 O 0.1327(3) 0.5176(7) 0.7286(4)
O5_4 O 0.2239(3) 0.9454(7) 0.8057(4)
C6_4 C 0.1171(4) 0.9602(9) 0.7383(4)
C7_4 C 0.0642(4) 0.8801(9) 0.7017(4)
C8_4 C 0.2435(4) 0.6632(9) 0.7889(4)
C9_4 C 0.0087(4) 0.9547(9) 0.6659(5)
C14_4 C 0.3224(4) 0.5493(10) 0.8688(4)
H6_4 H 0.3335 0.5059 0.9070
C16_4 C 0.1270(4) 0.6473(10) 0.7303(5)
C19_4 C 0.1770(4) 0.8828(10) 0.7717(4)
C21_4 C 0.0153(4) 0.6524(10) 0.6607(5)
H8_4 H 0.0171 0.5516 0.6577
C22_4 C 0.0672(4) 0.7264(9) 0.6978(5)
C27_4 C 0.2882(4) 0.6678(9) 0.7516(4)
H14_4 H 0.2764 0.7040 0.7122
C28_4 C 0.2581(4) 0.6052(10) 0.8467(4)
C32_4 C 0.3528(4) 0.6140(9) 0.7775(4)
H17_4 H 0.3848 0.6172 0.7547
C36_4 C 0.3696(4) 0.5578(8) 0.8347(4)
C37_4 C 0.4396(4) 0.5069(8) 0.8621(4)
C42_4 C 0.2078(10) 0.589(2) 0.8835(9)
H26_4 H 0.1744 0.5207 0.8644
H27_4 H 0.2293 0.5556 0.9235
H28_4 H 0.1872 0.6820 0.8865
C12_4 C 0.6000(5) 0.0786(9) 0.7474(4)
C24_4 C 0.5949(7) 0.0491(11) 0.6353(5)
H11_4 H 0.5544 0.1066 0.6271
H12_4 H 0.6320 0.1140 0.6356
C31_4 C 0.5959(14) 0.2219(14) 0.7431(7)
H16_4 H 0.5971 0.2657 0.7064
C38_4 C 0.5908(6) 0.1181(10) 0.8480(5)
H20_4 H 0.5891 0.0772 0.8852
C39_4 C 0.5991(6) 0.0258(11) 0.8036(5)
C40_4 C 0.5900(13) 0.3083(13) 0.7910(6)
H22_4 H 0.5893 0.4086 0.7857
C4_3 C 0.1136(4) 0.1096(9) 0.7413(5)
H3_3 H 0.1478 0.1609 0.7669
C5_3 C 0.0592(4) 0.1844(9) 0.7063(5)
H4_3 H 0.0577 0.2854 0.7077
C29_3 C 0.0071(4) 0.1077(9) 0.6693(5)
O1_3 O 0.8522(3) 0.8889(8) 0.5587(4)
C2_3 C 0.9575(4) 0.8761(10) 0.6284(5)
C13_3 C 0.8981(4) 0.9542(10) 0.5914(5)
C15_3 C 0.9598(4) 0.7281(10) 0.6274(5)
H7_3 H 0.9239 0.6766 0.6043
O2_4 O 0.0553(3) 0.3209(7) 0.8658(4)
N3_4 N 0.1009(3) 0.1057(8) 0.9050(4)
C1_4 C 0.4762(4) 0.7687(10) 0.9850(4)
H1_4 H 0.5163 0.7197 0.9989
C3_4 C 0.3654(5) 0.8049(12) 0.9857(4)
C10_4 C 0.2732(4) 0.2472(10) 0.9573(4)
H5_4 H 0.3132 0.2433 0.9451
C17_4 C 0.0508(4) 0.1892(10) 0.8674(5)
C20_4 C 0.4096(6) 0.9352(10) 0.9149(4)
C23_4 C 0.3957(6) 0.9781(11) 0.8044(4)
H9_4 H 0.4292 0.9027 0.8073
H10_4 H 0.3524 0.9310 0.7947
C25_4 C 0.2164(4) 0.1788(11) 0.9233(4)
H13_4 H 0.2179 0.1314 0.8874
C26_4 C 0.1585(4) 0.1812(10) 0.9424(5)
C30_4 C 0.3590(6) 0.9027(12) 0.9385(5)
H15_4 H 0.3180 0.9469 0.9230
C34_4 C 0.4707(5) 0.8658(11) 0.9401(4)
H19_4 H 0.5079 0.8878 0.9252
C35_4 C 0.1539(4) 0.2558(13) 0.9933(5)
H21_4 H 0.3960 0.9265 0.6886
H25_4 H 0.0551 0.3185 0.9851
O1_4 O 0.1478(3) 0.8889(8) 0.9413(4)
C2_4 C 0.0425(4) 0.8761(10) 0.8716(5)
C13_4 C 0.1019(4) 0.9542(10) 0.9086(5)
C15_4 C 0.0402(4) 0.7281(10) 0.8726(5)
H7_4 H 0.0761 0.6766 0.8957
C4_4 C 0.8864(4) 0.1096(9) 0.7587(5)
H3_4 H 0.8522 0.1609 0.7331
C5_4 C 0.9408(4) 0.1844(9) 0.7937(5)
H4_4 H 0.9423 0.2854 0.7923
C29_4 C 0.9929(4) 0.1077(9) 0.8307(5)
loop_
_geom_bond_atom_site_label_1
_geom_bond_atom_site_label_2
_geom_bond_site_symmetry_1
_geom_bond_site_symmetry_2
O1 C13 1_555 1_555
C13 C2 1_555 1_555
C15 C2 1_555 1_555
H7 C15 1_555 1_555
Cd1 O3 1_555 1_555
O2 C17 1_555 1_555
O3 C11 1_555 1_555
N2 Cd1 1_555 1_555
C1 N2 1_555 1_555
H1 C1 1_555 1_555
C3 N2 1_555 1_555
H2 C3 1_555 1_555
C10 H5 1_555 1_555
C11 C18 1_555 1_555
C17 N3 1_555 1_555
C18 C10 1_555 1_555
C23 H9 1_555 1_555
H10 C23 1_555 1_555
C25 C10 1_555 1_555
H13 C25 1_555 1_555
C26 N3 1_555 1_555
C30 C3 1_555 1_555
H15 C30 1_555 1_555
C33 C18 1_555 1_555
H18 C33 1_555 1_555
C34 C1 1_555 1_555
H19 C34 1_555 1_555
C35 C26 1_555 1_555
O6 Cd1 1_555 1_555
C41 C35 1_555 1_555
H23 C41 1_555 1_555
H24 C41 1_555 1_555
H25 C41 1_555 1_555
O9 Cd1 1_555 1_555
N5 Cd1 1_555 1_555
O10 Cd1 1_555 1_555
C11 O6 1_555 1_555
C20 C30 1_555 1_555
C20 C34 1_555 1_555
C25 C26 1_555 1_555
C33 C35 1_555 1_555
H11 C24 1_555 1_555
H12 C24 1_555 1_555
C31 C12 1_555 1_555
H16 C31 1_555 1_555
C38 H20 1_555 1_555
C39 C12 1_555 1_555
C40 C31 1_555 1_555
H22 C40 1_555 1_555
N5 C38 1_555 1_555
C38 C39 1_555 1_555
C40 N5 1_555 1_555
N1 C8 1_555 1_555
O4 C16 1_555 1_555
O5 C19 1_555 1_555
C7 C6 1_555 1_555
C8 C27 1_555 1_555
C9 C7 1_555 1_555
C14 H6 1_555 1_555
C16 N1 1_555 1_555
C19 N1 1_555 1_555
H8 C21 1_555 1_555
C22 C7 1_555 1_555
C27 H14 1_555 1_555
C28 C8 1_555 1_555
C32 C27 1_555 1_555
H17 C32 1_555 1_555
C36 C14 1_555 1_555
C37 C36 1_555 1_555
O9 C37 1_555 1_555
O10 C37 1_555 1_555
C42 C28 1_555 1_555
H26 C42 1_555 1_555
H27 C42 1_555 1_555
H28 C42 1_555 1_555
C6 C19 1_555 1_555
C14 C28 1_555 1_555
C16 C22 1_555 1_555
C21 C22 1_555 1_555
C32 C36 1_555 1_555
H11_2 C24_2 1_555 1_555
H12_2 C24_2 1_555 1_555
C31_2 C12_2 1_555 1_555
H16_2 C31_2 1_555 1_555
C38_2 H20_2 1_555 1_555
C39_2 C12_2 1_555 1_555
C40_2 C31_2 1_555 1_555
H22_2 C40_2 1_555 1_555
N4 C38_2 1_555 1_555
Cd3 N4 1_555 1_555
C38_2 C39_2 1_555 1_555
C40_2 N4 1_555 1_555
N1_2 C8_2 1_555 1_555
O4_2 C16_2 1_555 1_555
O5_2 C19_2 1_555 1_555
C7_2 C6_2 1_555 1_555
C8_2 C27_2 1_555 1_555
C9_2 C7_2 1_555 1_555
C14_2 H6_2 1_555 1_555
C16_2 N1_2 1_555 1_555
C19_2 N1_2 1_555 1_555
H8_2 C21_2 1_555 1_555
C22_2 C7_2 1_555 1_555
C27_2 H14_2 1_555 1_555
C28_2 C8_2 1_555 1_555
C32_2 C27_2 1_555 1_555
H17_2 C32_2 1_555 1_555
C36_2 C14_2 1_555 1_555
C37_2 C36_2 1_555 1_555
O7 C37_2 1_555 1_555
O8 C37_2 1_555 1_555
C42_2 C28_2 1_555 1_555
H26_2 C42_2 1_555 1_555
H27_2 C42_2 1_555 1_555
H28_2 C42_2 1_555 1_555
Cd3 O7 1_555 1_555
C6_2 C19_2 1_555 1_555
C14_2 C28_2 1_555 1_555
C16_2 C22_2 1_555 1_555
C21_2 C22_2 1_555 1_555
C32_2 C36_2 1_555 1_555
O8 Cd3 1_555 1_555
Cd3 O3_2 1_555 1_555
O3_2 C11_2 1_555 1_555
N2_2 Cd3 1_555 1_555
C11_2 C18_2 1_555 1_555
C33_2 C18_2 1_555 1_555
H18_2 C33_2 1_555 1_555
O6_2 Cd3 1_555 1_555
H23_2 C41_2 1_555 1_555
H24_2 C41_2 1_555 1_555
C11_2 O6_2 1_555 1_555
C4 H3 1_555 1_555
C5 C4 1_555 1_555
H4 C5 1_555 1_555
C29 C5 1_555 1_555
N1_3 C8_3 1_555 1_555
O4_3 C16_3 1_555 1_555
O5_3 C19_3 1_555 1_555
C7_3 C6_3 1_555 1_555
C8_3 C27_3 1_555 1_555
C9_3 C7_3 1_555 1_555
C14_3 H6_3 1_555 1_555
C16_3 N1_3 1_555 1_555
C19_3 N1_3 1_555 1_555
H8_3 C21_3 1_555 1_555
C22_3 C7_3 1_555 1_555
C27_3 H14_3 1_555 1_555
C28_3 C8_3 1_555 1_555
C32_3 C27_3 1_555 1_555
H17_3 C32_3 1_555 1_555
C36_3 C14_3 1_555 1_555
C37_3 C36_3 1_555 1_555
O7_2 C37_3 1_555 1_555
O8_2 C37_3 1_555 1_555
C42_3 C28_3 1_555 1_555
H26_3 C42_3 1_555 1_555
H27_3 C42_3 1_555 1_555
H28_3 C42_3 1_555 1_555
Cd2 O7_2 1_555 1_555
C6_3 C19_3 1_555 1_555
C14_3 C28_3 1_555 1_555
C16_3 C22_3 1_555 1_555
C21_3 C22_3 1_555 1_555
C32_3 C36_3 1_555 1_555
O8_2 Cd2 1_555 1_555
H11_3 C24_3 1_555 1_555
H12_3 C24_3 1_555 1_555
C31_3 C12_3 1_555 1_555
H16_3 C31_3 1_555 1_555
C38_3 H20_3 1_555 1_555
C39_3 C12_3 1_555 1_555
C40_3 C31_3 1_555 1_555
H22_3 C40_3 1_555 1_555
N4_2 C38_3 1_555 1_555
Cd2 N4_2 1_555 1_555
C38_3 C39_3 1_555 1_555
C40_3 N4_2 1_555 1_555
Cd2 O3_3 1_555 1_555
O2_2 C17_2 1_555 1_555
O3_3 C11_3 1_555 1_555
N2_3 Cd2 1_555 1_555
C1_2 N2_3 1_555 1_555
H1_2 C1_2 1_555 1_555
C3_2 N2_3 1_555 1_555
H2_3 C3_2 1_555 1_555
C10_2 H5_2 1_555 1_555
C11_3 C18_3 1_555 1_555
C17_2 N3_2 1_555 1_555
C18_3 C10_2 1_555 1_555
C23_2 H9_2 1_555 1_555
H10_2 C23_2 1_555 1_555
C25_2 C10_2 1_555 1_555
H13_2 C25_2 1_555 1_555
C26_2 N3_2 1_555 1_555
C30_2 C3_2 1_555 1_555
H15_2 C30_2 1_555 1_555
C33_3 C18_3 1_555 1_555
H18_3 C33_3 1_555 1_555
C34_2 C1_2 1_555 1_555
H19_2 C34_2 1_555 1_555
C35_2 C26_2 1_555 1_555
O6_3 Cd2 1_555 1_555
C41_3 C35_2 1_555 1_555
H23_3 C41_3 1_555 1_555
H24_3 C41_3 1_555 1_555
H25_2 C41_3 1_555 1_555
C11_3 O6_3 1_555 1_555
C20_2 C30_2 1_555 1_555
C20_2 C34_2 1_555 1_555
C25_2 C26_2 1_555 1_555
C33_3 C35_2 1_555 1_555
C4_2 H3_2 1_555 1_555
C5_2 C4_2 1_555 1_555
H4_2 C5_2 1_555 1_555
C29_2 C5_2 1_555 1_555
O1_2 C13_2 1_555 1_555
C13_2 C2_2 1_555 1_555
C15_2 C2_2 1_555 1_555
H7_2 C15_2 1_555 1_555
O2_3 C17_3 1_555 1_555
H1_3 C1_3 1_555 1_555
C10_3 H5_3 1_555 1_555
C17_3 N3_3 1_555 1_555
C23_3 H9_3 1_555 1_555
H10_3 C23_3 1_555 1_555
C25_3 C10_3 1_555 1_555
H13_3 C25_3 1_555 1_555
C26_3 N3_3 1_555 1_555
C30_3 C3_3 1_555 1_555
H15_3 C30_3 1_555 1_555
C34_3 C1_3 1_555 1_555
H19_3 C34_3 1_555 1_555
C35_3 C26_3 1_555 1_555
C20_3 C30_3 1_555 1_555
C20_3 C34_3 1_555 1_555
C25_3 C26_3 1_555 1_555
Cd1_2 O3_4 1_555 1_555
O3_4 C11_4 1_555 1_555
N2_4 Cd1_2 1_555 1_555
C11_4 C18_4 1_555 1_555
C33_4 C18_4 1_555 1_555
H18_4 C33_4 1_555 1_555
O6_4 Cd1_2 1_555 1_555
H23_4 C41_4 1_555 1_555
H24_4 C41_4 1_555 1_555
O9_2 Cd1_2 1_555 1_555
N5_2 Cd1_2 1_555 1_555
O10_2 Cd1_2 1_555 1_555
C11_4 O6_4 1_555 1_555
N1_4 C8_4 1_555 1_555
O4_4 C16_4 1_555 1_555
O5_4 C19_4 1_555 1_555
C7_4 C6_4 1_555 1_555
C8_4 C27_4 1_555 1_555
C9_4 C7_4 1_555 1_555
C14_4 H6_4 1_555 1_555
C16_4 N1_4 1_555 1_555
C19_4 N1_4 1_555 1_555
H8_4 C21_4 1_555 1_555
C22_4 C7_4 1_555 1_555
C27_4 H14_4 1_555 1_555
C28_4 C8_4 1_555 1_555
C32_4 C27_4 1_555 1_555
H17_4 C32_4 1_555 1_555
C36_4 C14_4 1_555 1_555
C37_4 C36_4 1_555 1_555
O9_2 C37_4 1_555 1_555
O10_2 C37_4 1_555 1_555
C42_4 C28_4 1_555 1_555
H26_4 C42_4 1_555 1_555
H27_4 C42_4 1_555 1_555
H28_4 C42_4 1_555 1_555
C6_4 C19_4 1_555 1_555
C14_4 C28_4 1_555 1_555
C16_4 C22_4 1_555 1_555
C21_4 C22_4 1_555 1_555
C32_4 C36_4 1_555 1_555
H11_4 C24_4 1_555 1_555
H12_4 C24_4 1_555 1_555
C31_4 C12_4 1_555 1_555
H16_4 C31_4 1_555 1_555
C38_4 H20_4 1_555 1_555
C39_4 C12_4 1_555 1_555
C40_4 C31_4 1_555 1_555
H22_4 C40_4 1_555 1_555
N5_2 C38_4 1_555 1_555
C38_4 C39_4 1_555 1_555
C40_4 N5_2 1_555 1_555
C4_3 H3_3 1_555 1_555
C5_3 C4_3 1_555 1_555
H4_3 C5_3 1_555 1_555
C29_3 C5_3 1_555 1_555
O1_3 C13_3 1_555 1_555
C13_3 C2_3 1_555 1_555
C15_3 C2_3 1_555 1_555
H7_3 C15_3 1_555 1_555
O2_4 C17_4 1_555 1_555
H1_4 C1_4 1_555 1_555
C10_4 H5_4 1_555 1_555
C17_4 N3_4 1_555 1_555
C23_4 H9_4 1_555 1_555
H10_4 C23_4 1_555 1_555
C25_4 C10_4 1_555 1_555
H13_4 C25_4 1_555 1_555
C26_4 N3_4 1_555 1_555
C30_4 C3_4 1_555 1_555
H15_4 C30_4 1_555 1_555
C34_4 C1_4 1_555 1_555
H19_4 C34_4 1_555 1_555
C35_4 C26_4 1_555 1_555
C20_4 C30_4 1_555 1_555
C20_4 C34_4 1_555 1_555
C25_4 C26_4 1_555 1_555
O1_4 C13_4 1_555 1_555
C13_4 C2_4 1_555 1_555
C15_4 C2_4 1_555 1_555
H7_4 C15_4 1_555 1_555
C4_4 H3_4 1_555 1_555
C5_4 C4_4 1_555 1_555
H4_4 C5_4 1_555 1_555
C29_4 C5_4 1_555 1_555

#END
