
###############################################################################
#
# This file contains modified crystal structure data generated from the
# MOF subset of the Cambridge Structural Database (CSD) v543 
# hosted by the Cambridge Crystallographic Data Centre (CCDC).
#
# This work is licensed under the Creative Commons
# Attribution-NonCommercial-ShareAlike 4.0 International License.
# To view a copy of this license, visit
# http://creativecommons.org/licenses/by-nc-sa/4.0/
# or send a letter to
# Creative Commons, PO Box 1866, Mountain View, CA 94042, USA.
#
# CIF created using the CSD Python API on 29 September 2022
# The structure has been converted into the P1 space group
# The structure has a 3D framework
# The original CSD entry FATBAH is in the triclinic crystal system
# The framework has been calculated to contain at least 10.0% void space
# The void calculation uses a probe of radius 1.32A, grid spacing 0.4
#
###############################################################################

data_FATBAH
_chemical_formula_moiety         '(C44 H26 N4 O8 Zn2)n'
_symmetry_cell_setting           triclinic
_symmetry_space_group_name_H-M   'P 1'
_symmetry_Int_Tables_number      1
_space_group_name_Hall           'P 1'
loop_
_symmetry_equiv_pos_site_id
_symmetry_equiv_pos_as_xyz
1 x,y,z
_cell_length_a                   10.2597(4)
_cell_length_b                   10.8766(4)
_cell_length_c                   10.9289(5)
_cell_angle_alpha                93.653(3)
_cell_angle_beta                 109.577(4)
_cell_angle_gamma                97.147(3)
_cell_volume                     1132.87
loop_
_atom_site_label
_atom_site_type_symbol
_atom_site_fract_x
_atom_site_fract_y
_atom_site_fract_z
_atom_site_U_iso_or_equiv
_atom_site_thermal_displace_type
N3 N 0.1375(4) 0.4151(3) 0.4015(3) 0.0165 Uani
C23 C 0.1020(5) 0.3015(4) 0.4323(4) 0.0198 Uani
H14 H 0.1722 0.2546 0.4689 0.0240 Uiso
N4 N 0.0264(4) 0.0591(4) 0.4879(4) 0.0284 Uani
C28 C 0.0354(5) 0.4825(4) 0.3479(4) 0.0203 Uani
H18 H 0.0598 0.5610 0.3256 0.0240 Uiso
Zn7 Zn 0.34446(5) 0.48109(4) 0.44948(4) 0.0133 Uani
Zn1 Zn 0.65554(5) 0.51891(4) 0.55052(4) 0.0133 Uani
N1 N 0.8625(4) 0.5849(3) 0.5985(3) 0.0165 Uani
O1 O 0.6046(4) 0.5008(4) 0.3520(3) 0.0341 Uani
O2 O 0.6422(4) 0.3314(3) 0.5397(4) 0.0380 Uani
O3 O 0.3735(4) 0.4799(4) 0.2755(3) 0.0371 Uani
C1 C 0.8980(5) 0.6985(4) 0.5677(4) 0.0198 Uani
H1 H 0.8278 0.7454 0.5311 0.0240 Uiso
N2 N 0.9736(4) 0.9409(4) 0.5121(4) 0.0284 Uani
C6 C 0.9646(5) 0.5175(4) 0.6521(4) 0.0203 Uani
H5 H 0.9402 0.4390 0.6744 0.0240 Uiso
O4 O 0.4117(4) 0.3124(3) 0.4697(5) 0.0406 Uani
C7 C 0.4894(5) 0.4917(4) 0.2618(4) 0.0190 Uani
C8 C 0.4939(5) 0.4950(5) 0.1259(5) 0.0259 Uani
C9 C 0.5219(5) 0.2690(4) 0.5032(5) 0.0225 Uani
C10 C 0.5107(5) 0.1288(4) 0.5007(6) 0.0311 Uani
C11 C 0.5875(5) 0.5889(6) 0.1039(5) 0.0344 Uani
C12 C 0.4074(6) 0.4063(6) 0.0252(5) 0.0382 Uani
C13 C 0.6730(12) 0.7013(10) 0.2065(10) 0.0331 Uani
H6 H 0.6666 0.7040 0.2895 0.0400 Uiso
C14 C 0.3185(13) 0.2879(12) 0.0452(11) 0.0406 Uani
H7 H 0.3171 0.2784 0.1287 0.0490 Uiso
C15 C 0.7591(15) 0.7986(13) 0.1802(12) 0.0523 Uani
H8 H 0.8162 0.8586 0.2475 0.0630 Uiso
C17 C 0.5254(10) 0.0597(8) 0.3985(10) 0.0736 Uani
C18 C 0.4826(11) 0.0734(8) 0.6022(10) 0.0745 Uani
C19 C 0.466(2) 0.1433(16) 0.708(2) 0.0775 Uani
H10 H 0.4671 0.2291 0.7091 0.0930 Uiso
C20 C 0.5363(18) 0.1147(15) 0.2837(19) 0.0721 Uani
H11 H 0.5223 0.1974 0.2796 0.0860 Uiso
C21 C 0.446(2) 0.078(2) 0.815(2) 0.0926 Uani
H12 H 0.4428 0.1291 0.8847 0.1110 Uiso
C36 C 0.7597(17) 0.8056(13) 0.0568(13) 0.0585 Uani
H22 H 0.8128 0.8735 0.0394 0.0700 Uiso
C44 C 0.568(3) 0.054(2) 0.170(2) 0.1232 Uani
H26 H 0.5910 0.0928 0.1048 0.1460 Uiso
O11 O 0.6265(4) 0.5201(4) 0.7245(3) 0.0371 Uani
O13 O 0.5883(4) 0.6876(3) 0.5303(5) 0.0406 Uani
C16 C 0.2403(17) 0.1944(13) 0.9432(13) 0.0585 Uani
H9 H 0.1872 0.1265 0.9606 0.0700 Uiso
O5 O 0.3954(4) 0.4992(4) 0.6480(3) 0.0341 Uani
C29 C 0.5106(5) 0.5083(4) 0.7382(4) 0.0190 Uani
C30 C 0.5061(5) 0.5050(5) 0.8741(5) 0.0259 Uani
C31 C 0.4125(5) 0.4111(6) 0.8961(5) 0.0344 Uani
C32 C 0.5926(6) 0.5937(6) 0.9748(5) 0.0382 Uani
C33 C 0.3270(12) 0.2987(10) 0.7935(10) 0.0331 Uani
H19 H 0.3334 0.2960 0.7105 0.0400 Uiso
C34 C 0.6815(13) 0.7121(12) 0.9548(11) 0.0406 Uani
H20 H 0.6829 0.7216 0.8713 0.0490 Uiso
C35 C 0.2409(15) 0.2014(13) 0.8198(12) 0.0523 Uani
H21 H 0.1838 0.1414 0.7525 0.0630 Uiso
C22 C 0.432(3) 0.946(2) 0.830(2) 0.1232 Uani
H13 H 0.4090 0.9072 0.8952 0.1460 Uiso
O7 O 0.3578(4) 0.6686(3) 0.4603(4) 0.0380 Uani
C37 C 0.4781(5) 0.7310(4) 0.4968(5) 0.0225 Uani
C38 C 0.4893(5) 0.8712(4) 0.4993(6) 0.0311 Uani
C39 C 0.4746(10) 0.9403(8) 0.6015(10) 0.0736 Uani
C40 C 0.5174(11) 0.9266(8) 0.3978(10) 0.0745 Uani
C41 C 0.534(2) 0.8567(16) 0.292(2) 0.0775 Uani
H23 H 0.5329 0.7709 0.2909 0.0930 Uiso
C42 C 0.4637(18) 0.8853(15) 0.7163(19) 0.0721 Uani
H24 H 0.4777 0.8026 0.7204 0.0860 Uiso
C43 C 0.554(2) 0.922(2) 0.185(2) 0.0926 Uani
H25 H 0.5572 0.8709 0.1153 0.1110 Uiso
C2 C 0.0358(5) 0.7486(4) 0.5884(5) 0.0234 Uani
C3 C 0.1034(5) 0.5599(5) 0.6751(5) 0.0263 Uani
H2 H 0.1715 0.5110 0.7119 0.0320 Uiso
C4 C 0.1399(5) 0.6772(5) 0.6424(5) 0.0264 Uani
H3 H 0.2331 0.7078 0.6565 0.0320 Uiso
C5 C 0.0695(5) 0.8747(5) 0.5553(5) 0.0276 Uani
H4 H 0.1616 0.9063 0.5660 0.0330 Uiso
C24 C 0.9642(5) 0.2514(4) 0.4116(5) 0.0234 Uani
C25 C 0.8966(5) 0.4401(5) 0.3249(5) 0.0263 Uani
H15 H 0.8285 0.4890 0.2881 0.0320 Uiso
C26 C 0.8601(5) 0.3228(5) 0.3576(5) 0.0264 Uani
H16 H 0.7669 0.2922 0.3435 0.0320 Uiso
C27 C 0.9305(5) 0.1253(5) 0.4447(5) 0.0276 Uani
H17 H 0.8384 0.0937 0.4340 0.0330 Uiso
loop_
_atom_site_aniso_label
_atom_site_aniso_U_11
_atom_site_aniso_U_22
_atom_site_aniso_U_33
_atom_site_aniso_U_23
_atom_site_aniso_U_13
_atom_site_aniso_U_12
N3 0.0188 0.0149 0.017 0.0003 0.0088 0.0003
C23 0.022 0.02 0.019 0.0008 0.0099 0.0016
N4 0.029 0.022 0.034 0.0034 0.0154 -0.0092
C28 0.021 0.02 0.022 0.0022 0.0109 0.0016
Zn7 0.0154 0.0118 0.0144 0.0019 0.008 0.0003
Zn1 0.0154 0.0118 0.0144 0.0019 0.008 0.0003
N1 0.0188 0.0149 0.017 0.0003 0.0088 0.0003
O1 0.0216 0.067 0.015 0.0057 0.009 0.0039
O2 0.031 0.0138 0.064 0.0081 0.0103 -0.0002
O3 0.0198 0.077 0.0164 0.0061 0.0098 0.0039
C1 0.022 0.02 0.019 0.0008 0.0099 0.0016
N2 0.029 0.022 0.034 0.0034 0.0154 -0.0092
C6 0.021 0.02 0.022 0.0022 0.0109 0.0016
O4 0.031 0.0142 0.081 0.0103 0.023 0.0071
C7 0.024 0.019 0.017 0.0018 0.0107 0.0041
C8 0.02 0.045 0.017 0.007 0.0102 0.008
C9 0.03 0.014 0.028 0.0057 0.016 0.0019
C10 0.027 0.014 0.061 0.008 0.026 0.0033
C11 0.024 0.063 0.019 0.009 0.01 0.008
C12 0.027 0.07 0.019 0.006 0.011 0.004
C13 0.045 0.034 0.017 0 0.01 -0.003
C14 0.047 0.053 0.021 0 0.017 -0.008
C15 0.065 0.049 0.028 -0.009 0.013 -0.031
C17 0.088 0.057 0.088 0.014 0.046 0.009
C18 0.09 0.063 0.081 0.008 0.041 0.018
C19 0.101 0.047 0.094 0.005 0.049 0.005
C20 0.065 0.05 0.092 0.014 0.017 0.001
C21 0.109 0.092 0.093 -0.014 0.066 0
C36 0.085 0.044 0.044 0.001 0.033 -0.027
C44 0.19 0.084 0.069 -0.023 -0.006 0.084
O11 0.0198 0.077 0.0164 0.0061 0.0098 0.0039
O13 0.031 0.0142 0.081 0.0103 0.023 0.0071
C16 0.085 0.044 0.044 0.001 0.033 -0.027
O5 0.0216 0.067 0.015 0.0057 0.009 0.0039
C29 0.024 0.019 0.017 0.0018 0.0107 0.0041
C30 0.02 0.045 0.017 0.007 0.0102 0.008
C31 0.024 0.063 0.019 0.009 0.01 0.008
C32 0.027 0.07 0.019 0.006 0.011 0.004
C33 0.045 0.034 0.017 0 0.01 -0.003
C34 0.047 0.053 0.021 0 0.017 -0.008
C35 0.065 0.049 0.028 -0.009 0.013 -0.031
C22 0.19 0.084 0.069 -0.023 -0.006 0.084
O7 0.031 0.0138 0.064 0.0081 0.0103 -0.0002
C37 0.03 0.014 0.028 0.0057 0.016 0.0019
C38 0.027 0.014 0.061 0.008 0.026 0.0033
C39 0.088 0.057 0.088 0.014 0.046 0.009
C40 0.09 0.063 0.081 0.008 0.041 0.018
C41 0.101 0.047 0.094 0.005 0.049 0.005
C42 0.065 0.05 0.092 0.014 0.017 0.001
C43 0.109 0.092 0.093 -0.014 0.066 0
C2 0.024 0.025 0.022 -0.0021 0.0126 -0.0037
C3 0.024 0.029 0.029 0.003 0.012 0.008
C4 0.017 0.034 0.028 -0.002 0.0101 -0.001
C5 0.026 0.027 0.031 -0.001 0.016 -0.007
C24 0.024 0.025 0.022 -0.0021 0.0126 -0.0037
C25 0.024 0.029 0.029 0.003 0.012 0.008
C26 0.017 0.034 0.028 -0.002 0.0101 -0.001
C27 0.026 0.027 0.031 -0.001 0.016 -0.007
loop_
_geom_bond_atom_site_label_1
_geom_bond_atom_site_label_2
_geom_bond_site_symmetry_1
_geom_bond_site_symmetry_2
N3 C23 1_555 1_555
C23 H14 1_555 1_555
C28 N3 1_555 1_555
H18 C28 1_555 1_555
Zn7 N3 1_555 1_555
Zn1 N1 1_555 1_555
N1 C1 1_555 1_555
O1 Zn1 1_555 1_555
O2 Zn1 1_555 1_555
O3 C7 1_555 1_555
C1 H1 1_555 1_555
C6 N1 1_555 1_555
H5 C6 1_555 1_555
O4 C9 1_555 1_555
C7 O1 1_555 1_555
C8 C7 1_555 1_555
C9 O2 1_555 1_555
C10 C9 1_555 1_555
C11 C8 1_555 1_555
C12 C8 1_555 1_555
C13 C11 1_555 1_555
H6 C13 1_555 1_555
C14 C12 1_555 1_555
H7 C14 1_555 1_555
C15 C13 1_555 1_555
H8 C15 1_555 1_555
C17 C10 1_555 1_555
C18 C10 1_555 1_555
C19 C18 1_555 1_555
H10 C19 1_555 1_555
C20 C17 1_555 1_555
H11 C20 1_555 1_555
C21 C19 1_555 1_555
H12 C21 1_555 1_555
C36 C15 1_555 1_555
H22 C36 1_555 1_555
C44 C20 1_555 1_555
H26 C44 1_555 1_555
Zn7 O3 1_555 1_555
O11 Zn1 1_555 1_555
O13 Zn1 1_555 1_555
O4 Zn7 1_555 1_555
H9 C16 1_555 1_555
O5 C29 1_555 1_555
C29 C30 1_555 1_555
C30 C31 1_555 1_555
C33 C31 1_555 1_555
H19 C33 1_555 1_555
C34 C32 1_555 1_555
H20 C34 1_555 1_555
C35 C16 1_555 1_555
H21 C35 1_555 1_555
O11 C29 1_555 1_555
Zn7 O5 1_555 1_555
C30 C32 1_555 1_555
C33 C35 1_555 1_555
H13 C22 1_555 1_555
O7 C37 1_555 1_555
C37 C38 1_555 1_555
C38 C39 1_555 1_555
C41 C40 1_555 1_555
H23 C41 1_555 1_555
C42 C22 1_555 1_555
H24 C42 1_555 1_555
C43 C41 1_555 1_555
H25 C43 1_555 1_555
O13 C37 1_555 1_555
Zn7 O7 1_555 1_555
C38 C40 1_555 1_555
C39 C42 1_555 1_555
C3 H2 1_555 1_555
C4 C2 1_555 1_555
H3 C4 1_555 1_555
C5 C2 1_555 1_555
H4 C5 1_555 1_555
C3 C4 1_555 1_555
C25 H15 1_555 1_555
C26 C24 1_555 1_555
H16 C26 1_555 1_555
H17 C27 1_555 1_555
C24 C27 1_555 1_555
C25 C26 1_555 1_555

#END
