
###############################################################################
#
# This file contains modified crystal structure data generated from the
# MOF subset of the Cambridge Structural Database (CSD) v543 
# hosted by the Cambridge Crystallographic Data Centre (CCDC).
#
# This work is licensed under the Creative Commons
# Attribution-NonCommercial-ShareAlike 4.0 International License.
# To view a copy of this license, visit
# http://creativecommons.org/licenses/by-nc-sa/4.0/
# or send a letter to
# Creative Commons, PO Box 1866, Mountain View, CA 94042, USA.
#
# CIF created using the CSD Python API on 29 September 2022
# The structure has been converted into the P1 space group
# The structure has a 3D framework
# The original CSD entry FATKUI is in the monoclinic crystal system
# The framework has been calculated to contain at least 10.0% void space
# The void calculation uses a probe of radius 1.32A, grid spacing 0.4
#
###############################################################################

data_FATKUI
_chemical_formula_moiety         '(C56 H56 Ce8 N16 O56)n'
_symmetry_cell_setting           triclinic
_symmetry_space_group_name_H-M   'P 1'
_symmetry_Int_Tables_number      1
_space_group_name_Hall           'P 1'
loop_
_symmetry_equiv_pos_site_id
_symmetry_equiv_pos_as_xyz
1 x,y,z
_cell_length_a                   10.416(2)
_cell_length_b                   11.440(3)
_cell_length_c                   22.457(5)
_cell_angle_alpha                90
_cell_angle_beta                 97.695(2)
_cell_angle_gamma                90
_cell_volume                     2651.86
loop_
_atom_site_label
_atom_site_type_symbol
_atom_site_fract_x
_atom_site_fract_y
_atom_site_fract_z
N1 N 0.0312(2) 0.6341(3) 0.15878(12)
H1 H 0.1137 0.6244 0.1621
C1 C 0.0042(3) 0.6172(3) 0.04875(14)
C6 C 0.0244(3) 0.6634(4) 0.26847(15)
H4 H 0.1122 0.6898 0.2696
H5 H 0.0238 0.5881 0.2873
O1 O 0.1232(2) 0.5927(2) 0.05490(11)
Ce5 Ce 0.263120(15) 0.420000(16) 0.065050(7)
Ce1 Ce 0.607719(14) 0.692984(13) 0.225191(6)
N2 N 0.8379(2) 0.6640(2) 0.18428(11)
N3 N 0.1113(3) 0.3222(2) 0.29129(11)
N4 N 0.2774(3) 0.4391(2) 0.31514(11)
H2 H 0.3364 0.4788 0.3368
C2 C 0.9476(3) 0.6313(3) 0.10576(13)
C3 C 0.8270(3) 0.6498(3) 0.12250(13)
C4 C 0.6958(3) 0.6517(3) 0.08696(12)
C5 C 0.9627(3) 0.6545(3) 0.20454(14)
H3 H 0.9770 0.7181 0.2895
C7 C 0.0834(3) 0.3223(3) 0.18070(14)
C8 C 0.1540(3) 0.3621(3) 0.23924(13)
C9 C 0.2583(3) 0.4357(3) 0.25315(13)
C10 C 0.3396(3) 0.5127(3) 0.21949(13)
C11 C 0.1891(3) 0.3705(3) 0.33626(14)
C12 C 0.1818(4) 0.3536(4) 0.40156(15)
H6 H 0.0944 0.3658 0.4093
H7 H 0.2380 0.4085 0.4244
H8 H 0.2083 0.2755 0.4130
C13 C 0.7039(3) 0.4143(2) 0.22324(13)
C14 C 0.7656(3) 0.4603(3) 0.28584(13)
O3 O 0.6020(2) 0.68066(19) 0.11432(9)
O4 O 0.6808(2) 0.6229(3) 0.03311(10)
O6 O 0.1291(3) 0.3412(3) 0.13337(11)
O7 O 0.3149(2) 0.5217(2) 0.16336(10)
O8 O 0.4262(2) 0.5670(2) 0.25167(10)
O9 O 0.6312(2) 0.48350(18) 0.19113(10)
O10 O 0.7302(2) 0.31235(18) 0.20982(10)
O11 O 0.8432(2) 0.39364(19) 0.31616(10)
O12 O 0.7329(2) 0.56090(18) 0.30085(9)
O13 O 0.4945(3) 0.3642(3) 0.09788(14)
O14 O 0.3940(2) 0.5890(2) 0.03247(12)
O15 O 0.2804(4) 0.1976(3) 0.0613(2)
H9 H 0.524(4) 0.295(2) 0.096(4)
H10 H 0.543(4) 0.399(5) 0.126(3)
H11 H 0.460(6) 0.618(6) 0.0533(18)
H13 H 0.341(6) 0.159(2) 0.048(4)
H14 H 0.231(6) 0.1495(19) 0.076(4)
Ce3 Ce 0.892281(14) 0.192984(13) 0.274809(6)
N5 N 0.3887(3) 0.8222(2) 0.20871(11)
O17 O 0.0633(2) 0.3662(2) 0.00050(10)
O19 O 0.5206(2) 0.7684(2) 0.31759(9)
O20 O 0.7698(2) 0.81235(18) 0.29018(10)
O21 O 0.6568(2) 0.89364(19) 0.18384(10)
O2 O 0.9367(2) 0.6338(2) 0.99950(10)
H12 H 0.390(6) 0.614(6) 0.9968(10)
Ce6 Ce 0.736880(15) 0.580000(16) 0.934950(7)
O18 O 0.3192(2) 0.3771(3) 0.96689(10)
O5 O 0.9794(2) 0.2684(2) 0.18241(9)
C10_2 C 0.1604(3) 0.0127(3) 0.28051(13)
O7_2 O 0.1851(2) 0.0217(2) 0.33664(10)
O8_2 O 0.0738(2) 0.0670(2) 0.24833(10)
O14_2 O 0.1060(2) 0.0890(2) 0.46753(12)
H11_2 H 0.040(6) 0.118(6) 0.4467(18)
H12_2 H 0.110(6) 0.114(6) 0.5032(10)
O16 O 0.3768(2) 0.0927(2) 0.44510(11)
Ce2 Ce 0.236880(15) 0.920000(16) 0.434950(7)
N4_2 N 0.2226(3) 0.9391(2) 0.18486(11)
H2_2 H 0.1636 0.9788 0.1632
C7_2 C 0.4166(3) 0.8223(3) 0.31930(14)
C8_2 C 0.3460(3) 0.8621(3) 0.26076(13)
C9_2 C 0.2417(3) 0.9357(3) 0.24685(13)
C11_2 C 0.3109(3) 0.8705(3) 0.16374(14)
C12_2 C 0.3182(4) 0.8536(4) 0.09844(15)
H6_2 H 0.4056 0.8658 0.0907
H7_2 H 0.2620 0.9085 0.0756
H8_2 H 0.2917 0.7755 0.0870
O6_2 O 0.3709(3) 0.8412(3) 0.36663(11)
O13_2 O 0.0055(3) 0.8642(3) 0.40212(14)
O15_2 O 0.2196(4) 0.6976(3) 0.4387(2)
H13_2 H 0.159(6) 0.659(2) 0.452(4)
H14_2 H 0.269(6) 0.6495(19) 0.424(4)
O17_2 O 0.4367(2) 0.8662(2) 0.49950(10)
O18_2 O 0.1808(2) 0.8771(3) 0.53311(10)
N1_2 N 0.4688(2) 0.1341(3) 0.34122(12)
H1_2 H 0.3863 0.1244 0.3379
N2_2 N 0.6621(2) 0.1640(2) 0.31572(11)
C1_2 C 0.4958(3) 0.1172(3) 0.45125(14)
C2_2 C 0.5524(3) 0.1313(3) 0.39424(13)
C3_2 C 0.6730(3) 0.1498(3) 0.37750(13)
C4_2 C 0.8042(3) 0.1517(3) 0.41304(12)
C5_2 C 0.5373(3) 0.1545(3) 0.29546(14)
C6_2 C 0.4756(3) 0.1634(4) 0.23153(15)
H3_2 H 0.5230 0.2181 0.2105
H4_2 H 0.3878 0.1898 0.2304
H5_2 H 0.4762 0.0881 0.2127
O2_2 O 0.5633(2) 0.1338(2) 0.50050(10)
O3_2 O 0.8980(2) 0.18066(19) 0.38568(9)
O4_2 O 0.8192(2) 0.1229(3) 0.46689(10)
O12_2 O 0.7671(2) 0.06090(18) 0.19915(9)
Ce6_2 Ce 0.763120(15) 0.080000(16) 0.565050(7)
C13_2 C 0.7961(3) 0.9143(2) 0.27676(13)
C14_2 C 0.7344(3) 0.9603(3) 0.21416(13)
O9_2 O 0.8688(2) 0.98350(18) 0.30887(10)
H9_2 H 0.976(4) 0.795(2) 0.404(4)
H10_2 H 0.957(4) 0.899(5) 0.374(3)
O5_2 O 0.0206(2) 0.7316(2) 0.81759(9)
Ce4 Ce 0.107719(14) 0.807016(13) 0.725191(6)
H12_3 H 0.610(6) 0.386(6) 0.0032(10)
Ce1_2 Ce 0.392281(14) 0.307016(13) 0.774809(6)
N2_3 N 0.1621(2) 0.3360(2) 0.81572(11)
N3_2 N 0.8887(3) 0.6778(2) 0.70871(11)
N4_3 N 0.7226(3) 0.5609(2) 0.68486(11)
H2_3 H 0.6636 0.5212 0.6632
C2_3 C 0.0524(3) 0.3687(3) 0.89424(13)
C3_3 C 0.1730(3) 0.3502(3) 0.87750(13)
C4_3 C 0.3042(3) 0.3483(3) 0.91304(12)
C5_3 C 0.0373(3) 0.3455(3) 0.79546(14)
H3_3 H 0.0230 0.2819 0.7105
C7_3 C 0.9166(3) 0.6777(3) 0.81930(14)
C8_3 C 0.8460(3) 0.6379(3) 0.76076(13)
C9_3 C 0.7417(3) 0.5643(3) 0.74685(13)
C10_3 C 0.6604(3) 0.4873(3) 0.78051(13)
C11_3 C 0.8109(3) 0.6295(3) 0.66374(14)
C12_3 C 0.8182(4) 0.6464(4) 0.59844(15)
H6_3 H 0.9056 0.6342 0.5907
H7_3 H 0.7620 0.5915 0.5756
H8_3 H 0.7917 0.7245 0.5870
C13_3 C 0.2961(3) 0.5857(2) 0.77676(13)
C14_3 C 0.2344(3) 0.5397(3) 0.71416(13)
O3_3 O 0.3980(2) 0.31934(19) 0.88568(9)
O6_3 O 0.8709(3) 0.6588(3) 0.86663(11)
O7_3 O 0.6851(2) 0.4783(2) 0.83664(10)
O8_3 O 0.5738(2) 0.4330(2) 0.74833(10)
O9_3 O 0.3688(2) 0.51650(18) 0.80887(10)
O10_2 O 0.2698(2) 0.68765(18) 0.79018(10)
O11_2 O 0.1568(2) 0.60636(19) 0.68384(10)
O12_3 O 0.2671(2) 0.43910(18) 0.69915(9)
O13_3 O 0.5055(3) 0.6358(3) 0.90212(14)
O14_3 O 0.6060(2) 0.4110(2) 0.96753(12)
O15_3 O 0.7196(4) 0.8024(3) 0.9387(2)
H9_3 H 0.476(4) 0.705(2) 0.904(4)
H10_3 H 0.457(4) 0.601(5) 0.874(3)
H11_3 H 0.540(6) 0.382(6) 0.9467(18)
H13_3 H 0.659(6) 0.841(2) 0.952(4)
H14_3 H 0.769(6) 0.8505(19) 0.924(4)
N5_2 N 0.6113(3) 0.1778(2) 0.79129(11)
O16_2 O 0.8768(2) 0.4073(2) 0.94510(11)
O19_2 O 0.4794(2) 0.2316(2) 0.68241(9)
O20_2 O 0.2302(2) 0.18765(18) 0.70982(10)
O21_2 O 0.3432(2) 0.10636(19) 0.81616(10)
N1_3 N 0.9688(2) 0.3659(3) 0.84122(12)
H1_3 H 0.8863 0.3756 0.8379
C1_3 C 0.9958(3) 0.3828(3) 0.95125(14)
C6_3 C 0.9756(3) 0.3366(4) 0.73153(15)
H4_3 H 0.8878 0.3102 0.7304
H5_3 H 0.9762 0.4119 0.7127
C13_4 C 0.2039(3) 0.0857(2) 0.72324(13)
C14_4 C 0.2656(3) 0.0397(3) 0.78584(13)
O9_4 O 0.1312(2) 0.01650(18) 0.69113(10)
H9_4 H 0.024(4) 0.205(2) 0.596(4)
H10_4 H 0.043(4) 0.101(5) 0.626(3)
N1_4 N 0.5312(2) 0.8659(3) 0.65878(12)
H1_4 H 0.6137 0.8756 0.6621
N2_4 N 0.3379(2) 0.8360(2) 0.68428(11)
C1_4 C 0.5042(3) 0.8828(3) 0.54875(14)
C2_4 C 0.4476(3) 0.8687(3) 0.60576(13)
C3_4 C 0.3270(3) 0.8502(3) 0.62250(13)
C4_4 C 0.1958(3) 0.8483(3) 0.58696(12)
C5_4 C 0.4627(3) 0.8455(3) 0.70454(14)
C6_4 C 0.5244(3) 0.8366(4) 0.76847(15)
H3_4 H 0.4770 0.7819 0.7895
H4_4 H 0.6122 0.8102 0.7696
H5_4 H 0.5238 0.9119 0.7873
O1_2 O 0.6232(2) 0.9073(2) 0.55490(11)
O3_4 O 0.1020(2) 0.81934(19) 0.61432(9)
O12_4 O 0.2329(2) 0.93910(18) 0.80085(9)
N4_4 N 0.7774(3) 0.0609(2) 0.81514(11)
H2_4 H 0.8364 0.0212 0.8368
C7_4 C 0.5834(3) 0.1777(3) 0.68070(14)
C8_4 C 0.6540(3) 0.1379(3) 0.73924(13)
C9_4 C 0.7583(3) 0.0643(3) 0.75315(13)
C11_4 C 0.6891(3) 0.1295(3) 0.83626(14)
C12_4 C 0.6818(4) 0.1464(4) 0.90156(15)
H6_4 H 0.5944 0.1342 0.9093
H7_4 H 0.7380 0.0915 0.9244
H8_4 H 0.7083 0.2245 0.9130
O6_4 O 0.6291(3) 0.1588(3) 0.63337(11)
O13_4 O 0.9945(3) 0.1358(3) 0.59788(14)
O15_4 O 0.7804(4) 0.3024(3) 0.5613(2)
H13_4 H 0.841(6) 0.341(2) 0.548(4)
H14_4 H 0.731(6) 0.3505(19) 0.576(4)
C10_4 C 0.8396(3) 0.9873(3) 0.71949(13)
O7_4 O 0.8149(2) 0.9783(2) 0.66336(10)
O8_4 O 0.9262(2) 0.9330(2) 0.75167(10)
O14_4 O 0.8940(2) 0.9110(2) 0.53247(12)
H11_4 H 0.960(6) 0.882(6) 0.5533(18)
H12_4 H 0.890(6) 0.886(6) 0.4968(10)
loop_
_geom_bond_atom_site_label_1
_geom_bond_atom_site_label_2
_geom_bond_site_symmetry_1
_geom_bond_site_symmetry_2
N1 H1 1_555 1_555
H4 C6 1_555 1_555
H5 C6 1_555 1_555
O1 C1 1_555 1_555
Ce5 O1 1_555 1_555
Ce1 N2 1_555 1_555
Ce5 O6 1_555 1_555
N2 C3 1_555 1_555
N3 C8 1_555 1_555
N4 H2 1_555 1_555
C3 C2 1_555 1_555
C4 C3 1_555 1_555
C7 C8 1_555 1_555
C8 C9 1_555 1_555
C9 N4 1_555 1_555
C10 C9 1_555 1_555
C11 N3 1_555 1_555
C12 C11 1_555 1_555
H6 C12 1_555 1_555
H7 C12 1_555 1_555
H8 C12 1_555 1_555
C13 C14 1_555 1_555
C14 O11 1_555 1_555
O3 Ce1 1_555 1_555
O4 C4 1_555 1_555
O6 C7 1_555 1_555
O7 Ce5 1_555 1_555
O8 Ce1 1_555 1_555
O9 Ce1 1_555 1_555
O10 C13 1_555 1_555
O11 Ce3 1_555 1_555
O12 Ce1 1_555 1_555
O13 Ce5 1_555 1_555
O14 Ce5 1_555 1_555
O15 Ce5 1_555 1_555
H9 O13 1_555 1_555
H10 O13 1_555 1_555
H11 O14 1_555 1_555
H13 O15 1_555 1_555
H14 O15 1_555 1_555
Ce3 O10 1_555 1_555
N5 Ce1 1_555 1_555
O17 Ce5 1_555 1_555
O19 Ce1 1_555 1_555
O20 Ce1 1_555 1_555
O21 Ce1 1_555 1_555
N2 C5 1_555 1_555
N4 C11 1_555 1_555
C4 O3 1_555 1_555
C10 O7 1_555 1_555
C10 O8 1_555 1_555
C13 O9 1_555 1_555
C14 O12 1_555 1_555
Ce6 O2 1_555 1_555
O5 Ce3 1_555 1_555
H11_2 O14_2 1_555 1_555
H12_2 O14_2 1_555 1_555
C10_2 O7_2 1_555 1_555
C10_2 O8_2 1_555 1_555
Ce2 O6_2 1_555 1_555
N5 C8_2 1_555 1_555
N4_2 H2_2 1_555 1_555
C7_2 C8_2 1_555 1_555
C8_2 C9_2 1_555 1_555
C9_2 N4_2 1_555 1_555
C11_2 N5 1_555 1_555
C12_2 C11_2 1_555 1_555
H6_2 C12_2 1_555 1_555
H7_2 C12_2 1_555 1_555
H8_2 C12_2 1_555 1_555
O19 C7_2 1_555 1_555
O6_2 C7_2 1_555 1_555
O13_2 Ce2 1_555 1_555
O15_2 Ce2 1_555 1_555
H13_2 O15_2 1_555 1_555
H14_2 O15_2 1_555 1_555
O17_2 Ce2 1_555 1_555
O18_2 Ce2 1_555 1_555
N4_2 C11_2 1_555 1_555
Ce3 N2_2 1_555 1_555
N1_2 H1_2 1_555 1_555
N2_2 C3_2 1_555 1_555
C1_2 C2_2 1_555 1_555
C2_2 N1_2 1_555 1_555
C3_2 C2_2 1_555 1_555
C4_2 C3_2 1_555 1_555
C5_2 N1_2 1_555 1_555
C6_2 C5_2 1_555 1_555
H3_2 C6_2 1_555 1_555
H4_2 C6_2 1_555 1_555
H5_2 C6_2 1_555 1_555
O16 C1_2 1_555 1_555
O2_2 C1_2 1_555 1_555
O3_2 Ce3 1_555 1_555
O4_2 C4_2 1_555 1_555
O12_2 Ce3 1_555 1_555
Ce6_2 O2_2 1_555 1_555
N2_2 C5_2 1_555 1_555
C4_2 O3_2 1_555 1_555
O4_2 Ce6_2 1_555 1_555
C13_2 C14_2 1_555 1_555
C14_2 O21 1_555 1_555
O20 C13_2 1_555 1_555
C13_2 O9_2 1_555 1_555
O5_2 Ce4 1_555 1_555
Ce1_2 N2_3 1_555 1_555
Ce6 O6_3 1_555 1_555
N2_3 C3_3 1_555 1_555
N3_2 C8_3 1_555 1_555
N4_3 H2_3 1_555 1_555
C3_3 C2_3 1_555 1_555
C4_3 C3_3 1_555 1_555
C7_3 C8_3 1_555 1_555
C8_3 C9_3 1_555 1_555
C9_3 N4_3 1_555 1_555
C10_3 C9_3 1_555 1_555
C11_3 N3_2 1_555 1_555
C12_3 C11_3 1_555 1_555
H6_3 C12_3 1_555 1_555
H7_3 C12_3 1_555 1_555
H8_3 C12_3 1_555 1_555
C13_3 C14_3 1_555 1_555
C14_3 O11_2 1_555 1_555
O3_3 Ce1_2 1_555 1_555
O18 C4_3 1_555 1_555
O6_3 C7_3 1_555 1_555
O7_3 Ce6 1_555 1_555
O8_3 Ce1_2 1_555 1_555
O9_3 Ce1_2 1_555 1_555
O10_2 C13_3 1_555 1_555
O11_2 Ce4 1_555 1_555
O12_3 Ce1_2 1_555 1_555
O13_3 Ce6 1_555 1_555
O14_3 Ce6 1_555 1_555
O15_3 Ce6 1_555 1_555
H9_3 O13_3 1_555 1_555
H10_3 O13_3 1_555 1_555
H11_3 O14_3 1_555 1_555
H13_3 O15_3 1_555 1_555
H14_3 O15_3 1_555 1_555
Ce4 O10_2 1_555 1_555
N5_2 Ce1_2 1_555 1_555
O16_2 Ce6 1_555 1_555
O19_2 Ce1_2 1_555 1_555
O20_2 Ce1_2 1_555 1_555
O21_2 Ce1_2 1_555 1_555
N2_3 C5_3 1_555 1_555
N4_3 C11_3 1_555 1_555
C4_3 O3_3 1_555 1_555
C10_3 O7_3 1_555 1_555
C10_3 O8_3 1_555 1_555
C13_3 O9_3 1_555 1_555
C14_3 O12_3 1_555 1_555
N1_3 H1_3 1_555 1_555
H4_3 C6_3 1_555 1_555
H5_3 C6_3 1_555 1_555
O16_2 C1_3 1_555 1_555
C13_4 C14_4 1_555 1_555
C14_4 O21_2 1_555 1_555
O20_2 C13_4 1_555 1_555
C13_4 O9_4 1_555 1_555
Ce4 N2_4 1_555 1_555
N1_4 H1_4 1_555 1_555
N2_4 C3_4 1_555 1_555
C1_4 C2_4 1_555 1_555
C2_4 N1_4 1_555 1_555
C3_4 C2_4 1_555 1_555
C4_4 C3_4 1_555 1_555
C5_4 N1_4 1_555 1_555
C6_4 C5_4 1_555 1_555
H3_4 C6_4 1_555 1_555
H4_4 C6_4 1_555 1_555
H5_4 C6_4 1_555 1_555
O1_2 C1_4 1_555 1_555
O17_2 C1_4 1_555 1_555
O3_4 Ce4 1_555 1_555
O18_2 C4_4 1_555 1_555
O12_4 Ce4 1_555 1_555
N2_4 C5_4 1_555 1_555
C4_4 O3_4 1_555 1_555
Ce6_2 O6_4 1_555 1_555
N5_2 C8_4 1_555 1_555
N4_4 H2_4 1_555 1_555
C7_4 C8_4 1_555 1_555
C8_4 C9_4 1_555 1_555
C9_4 N4_4 1_555 1_555
C11_4 N5_2 1_555 1_555
C12_4 C11_4 1_555 1_555
H6_4 C12_4 1_555 1_555
H7_4 C12_4 1_555 1_555
H8_4 C12_4 1_555 1_555
O19_2 C7_4 1_555 1_555
O6_4 C7_4 1_555 1_555
O13_4 Ce6_2 1_555 1_555
O15_4 Ce6_2 1_555 1_555
H13_4 O15_4 1_555 1_555
H14_4 O15_4 1_555 1_555
N4_4 C11_4 1_555 1_555
H11_4 O14_4 1_555 1_555
H12_4 O14_4 1_555 1_555
C10_4 O7_4 1_555 1_555
C10_4 O8_4 1_555 1_555

#END
