
###############################################################################
#
# This file contains modified crystal structure data generated from the
# MOF subset of the Cambridge Structural Database (CSD) v543 
# hosted by the Cambridge Crystallographic Data Centre (CCDC).
#
# This work is licensed under the Creative Commons
# Attribution-NonCommercial-ShareAlike 4.0 International License.
# To view a copy of this license, visit
# http://creativecommons.org/licenses/by-nc-sa/4.0/
# or send a letter to
# Creative Commons, PO Box 1866, Mountain View, CA 94042, USA.
#
# CIF created using the CSD Python API on 29 September 2022
# The structure has been converted into the P1 space group
# The structure has a 3D framework
# The original CSD entry FAVGER is in the orthorhombic crystal system
# The original CSD entry FAVGER is in a Sohncke space group
# The framework has been calculated to contain at least 10.0% void space
# The void calculation uses a probe of radius 1.32A, grid spacing 0.4
#
###############################################################################

data_FAVGER
_chemical_formula_moiety         '(C119 H117 Nd8 O76)n'
_symmetry_cell_setting           triclinic
_symmetry_space_group_name_H-M   'P 1'
_symmetry_Int_Tables_number      1
_space_group_name_Hall           'P 1'
loop_
_symmetry_equiv_pos_site_id
_symmetry_equiv_pos_as_xyz
1 x,y,z
_cell_length_a                   12.865(3)
_cell_length_b                   24.162(5)
_cell_length_c                   12.368(3)
_cell_angle_alpha                90
_cell_angle_beta                 90
_cell_angle_gamma                90
_cell_volume                     3844.52
loop_
_atom_site_label
_atom_site_type_symbol
_atom_site_fract_x
_atom_site_fract_y
_atom_site_fract_z
C22 C -0.0000 0.5000 0.1261(10)
H18 H -0.0000 0.5000 0.2013
H20 H 0.0494 0.5854 0.2529
H22 H 0.0478 0.6813 0.2166
H23 H 0.0039 0.6695 0.3326
C35 C 0.0128(7) 0.4515(4) 0.0685(7)
C37 C 0.0148(7) 0.3961(4) 0.2302(7)
C38 C 0.1050(7) 0.4218(4) 0.2855(7)
C39 C 0.0083(9) 0.3351(5) 0.2566(9)
H37 H 0.0725 0.3174 0.2372
O24 O 0.0250(6) 0.3996(3) 0.1156(5)
O25 O 0.0864(6) 0.4417(3) 0.3768(5)
O26 O 0.1888(5) 0.4220(4) 0.2426(7)
Nd8 Nd 0.10271(3) 0.431879(12) 0.56045(3)
Nd12 Nd 0.37584(3) 0.418145(16) 0.23116(3)
O40 O 0.0982(4) 0.53241(18) 0.5449(4)
O42 O 0.0663(4) 0.62026(19) 0.5697(5)
C25 C -0.0000 0.5000 0.9010(9)
C26 C -0.0000 0.5000 0.7802(10)
C36 C 0.0152(7) 0.4506(4) 0.9568(7)
H35 H 0.0267 0.4177 0.9197
O27 O 0.0463(5) 0.4606(2) 0.7324(5)
C18 C 0.5000 0.5000 0.0306(8)
O12 O 0.5430(5) 0.5393(2) 0.0773(4)
O23 O 0.4570(5) 0.4607(2) 0.0773(4)
Nd13 Nd 0.62416(3) 0.581855(16) 0.23116(3)
C1 C 0.7222(5) 0.3299(3) 0.5097(6)
C2 C 0.7003(5) 0.2726(3) 0.5160(6)
H1 H 0.6952 0.2549 0.5826
C3 C 0.6867(5) 0.2434(3) 0.4207(6)
C4 C 0.6913(7) 0.2695(3) 0.3205(7)
H2 H 0.6811 0.2494 0.2572
C5 C 0.7115(7) 0.3268(3) 0.3162(7)
C6 C 0.7287(6) 0.3567(3) 0.4104(7)
H3 H 0.7444 0.3942 0.4071
C7 C 0.7630(6) 0.4118(3) 0.6129(7)
H4 H 0.7149 0.4341 0.5696
C8 C 0.8729(5) 0.4193(2) 0.5697(6)
C9 C 0.7556(7) 0.4293(4) 0.7289(8)
H5 H 0.8090 0.4112 0.7700
H6 H 0.6887 0.4192 0.7571
H7 H 0.7644 0.4686 0.7340
C10 C 0.7239(6) 0.4064(3) 0.2000(7)
H8 H 0.7882 0.4187 0.2350
C11 C 0.6339(8) 0.4373(4) 0.2468(7)
C12 C 0.7319(8) 0.4165(4) 0.0797(8)
H9 H 0.6730 0.4003 0.0440
H10 H 0.7945 0.3999 0.0526
H11 H 0.7332 0.4556 0.0661
C13 C 0.6609(5) 0.1829(3) 0.4253(6)
C14 C 0.5000 0.5000 0.6848(8)
H12 H 0.5000 0.5000 0.6097
C15 C 0.5267(5) 0.5476(3) 0.7420(6)
C16 C 0.5266(6) 0.5475(3) 0.8546(6)
H13 H 0.5444 0.5794 0.8925
C17 C 0.5000 0.5000 0.9098(7)
C19 C 0.5476(5) 0.6039(3) 0.5822(6)
H14 H 0.4818 0.5884 0.5560
C20 C 0.6390(6) 0.5752(3) 0.5218(5)
C21 C 0.5488(7) 0.6660(3) 0.5603(8)
H15 H 0.6118 0.6817 0.5884
H16 H 0.4901 0.6830 0.5950
H17 H 0.5452 0.6724 0.4838
C22_2 C 1.0000 0.5000 0.1261(10)
H18_2 H 1.0000 0.5000 0.2013
C23 C 0.9872(7) 0.5485(4) 0.0685(7)
C27 C 0.9852(7) 0.6039(4) 0.2302(7)
C28 C 0.8950(7) 0.5782(4) 0.2855(7)
C29 C 0.9917(9) 0.6649(5) 0.2566(9)
H21 H 0.9275 0.6826 0.2372
Nd1 Nd 0.89729(3) 0.568121(12) 0.56045(3)
O1 O 0.7131(6) 0.3482(2) 0.2139(5)
O2 O 0.5555(5) 0.4132(4) 0.2711(6)
O3 O 0.6532(8) 0.4892(3) 0.2550(7)
O4 O 0.7319(4) 0.3548(2) 0.6080(4)
O5 O 0.9018(4) 0.46759(18) 0.5449(4)
O6 O 0.9337(4) 0.37974(19) 0.5697(5)
O7 O 0.6674(4) 0.15861(19) 0.5153(4)
O8 O 0.6382(5) 0.1571(2) 0.3413(4)
O9 O 0.5529(5) 0.5970(2) 0.6958(4)
O10 O 0.7143(4) 0.5596(2) 0.5773(5)
O11 O 0.6298(5) 0.5724(3) 0.4232(4)
O13 O 0.9750(6) 0.6004(3) 0.1156(5)
O14 O 0.9136(6) 0.5583(3) 0.3768(5)
O15 O 0.8112(5) 0.5780(4) 0.2426(7)
O17 O 0.3103(6) 0.3292(3) 0.3076(5)
H24 H 0.2794 0.3004 0.3302
H25 H 0.3730 0.3276 0.3289
O18 O 0.2718(7) 0.3896(4) 0.0620(7)
H26 H 0.2155 0.3719 0.0722
O19 O 0.4688(7) 0.3370(3) 0.1415(8)
H28 H 0.5319 0.3425 0.1587
H29 H 0.4679 0.3131 0.0910
C30 C 0.4733(5) 0.4524(3) 0.7420(6)
C31 C 0.4734(6) 0.4525(3) 0.8546(6)
H30 H 0.4556 0.4206 0.8925
C32 C 0.4524(5) 0.3961(3) 0.5822(6)
H31 H 0.5182 0.4116 0.5560
C33 C 0.3610(6) 0.4248(3) 0.5218(5)
C34 C 0.4512(7) 0.3340(3) 0.5603(8)
H32 H 0.3882 0.3183 0.5884
H33 H 0.5099 0.3170 0.5950
H34 H 0.4548 0.3276 0.4838
O20 O 0.4471(5) 0.4030(2) 0.6958(4)
O21 O 0.2857(4) 0.4404(2) 0.5773(5)
O22 O 0.3702(5) 0.4276(3) 0.4232(4)
H36 H 0.9506 0.4146 0.2529
H38 H 0.9522 0.3187 0.2166
H39 H 0.9961 0.3305 0.3326
C40 C 0.2778(5) 0.6701(3) 0.5097(6)
C41 C 0.2997(5) 0.7274(3) 0.5160(6)
H40 H 0.3048 0.7451 0.5826
C42 C 0.3133(5) 0.7566(3) 0.4207(6)
C43 C 0.3087(7) 0.7305(3) 0.3205(7)
H41 H 0.3189 0.7506 0.2572
C44 C 0.2885(7) 0.6732(3) 0.3162(7)
C45 C 0.2713(6) 0.6433(3) 0.4104(7)
H42 H 0.2556 0.6058 0.4071
C46 C 0.2370(6) 0.5882(3) 0.6129(7)
H43 H 0.2851 0.5659 0.5696
C47 C 0.1271(5) 0.5807(2) 0.5697(6)
C48 C 0.2444(7) 0.5707(4) 0.7289(8)
H44 H 0.1910 0.5888 0.7700
H45 H 0.3113 0.5808 0.7571
H46 H 0.2356 0.5314 0.7340
C49 C 0.2761(6) 0.5936(3) 0.2000(7)
H47 H 0.2118 0.5813 0.2350
C50 C 0.3661(8) 0.5627(4) 0.2468(7)
C51 C 0.2681(8) 0.5835(4) 0.0797(8)
H48 H 0.3270 0.5997 0.0440
H49 H 0.2055 0.6001 0.0526
H50 H 0.2668 0.5444 0.0661
C52 C 0.3391(5) 0.8171(3) 0.4253(6)
O28 O 0.2869(6) 0.6518(2) 0.2139(5)
O29 O 0.4445(5) 0.5868(4) 0.2711(6)
O30 O 0.3468(8) 0.5108(3) 0.2550(7)
O31 O 0.2681(4) 0.6452(2) 0.6080(4)
O34 O 0.3326(4) 0.84139(19) 0.5153(4)
O35 O 0.3618(5) 0.8429(2) 0.3413(4)
O36 O 0.6897(6) 0.6708(3) 0.3076(5)
H51 H 0.7206 0.6996 0.3302
H52 H 0.6270 0.6724 0.3289
O37 O 0.7282(7) 0.6104(4) 0.0620(7)
H53 H 0.7845 0.6281 0.0722
O38 O 0.5312(7) 0.6630(3) 0.1415(8)
H55 H 0.4681 0.6575 0.1587
H56 H 0.5321 0.6869 0.0910
Nd9 Nd 0.39729(3) 0.931879(12) 0.43955(3)
Nd10 Nd 0.60271(3) 0.068121(12) 0.43955(3)
O43 O 0.1674(4) 0.34139(19) 0.4847(4)
O44 O 0.8326(4) 0.65861(19) 0.4847(4)
O45 O 0.1382(5) 0.3429(2) 0.6587(4)
O46 O 0.8618(5) 0.6571(2) 0.6587(4)
O51 O 0.9537(5) 0.5394(2) 0.7324(5)
C24 C 0.9848(7) 0.5494(4) 0.9568(7)
H19 H 0.9733 0.5823 0.9197
C25_2 C 1.0000 0.5000 0.9010(9)
C26_2 C 1.0000 0.5000 0.7802(10)
H27 H 0.2737 0.3991 0.9959
H54 H 0.7263 0.6009 0.9959
C25_3 C 0.5000 0.0000 0.0990(9)
C26_3 C 0.5000 0.0000 0.2198(10)
C36_2 C 0.5152(7) 0.0494(4) 0.0432(7)
H35_2 H 0.5267 0.0823 0.0803
O27_2 O 0.5463(5) 0.0394(2) 0.2676(5)
C1_2 C 0.2222(5) 0.1701(3) 0.4903(6)
C2_2 C 0.2003(5) 0.2274(3) 0.4840(6)
H1_2 H 0.1952 0.2451 0.4174
C3_2 C 0.1867(5) 0.2566(3) 0.5793(6)
C4_2 C 0.1913(7) 0.2305(3) 0.6795(7)
H2_2 H 0.1811 0.2506 0.7428
C5_2 C 0.2115(7) 0.1732(3) 0.6838(7)
C6_2 C 0.2287(6) 0.1433(3) 0.5896(7)
H3_2 H 0.2444 0.1058 0.5929
C7_2 C 0.2630(6) 0.0882(3) 0.3871(7)
H4_2 H 0.2149 0.0659 0.4304
C8_2 C 0.3729(5) 0.0807(2) 0.4303(6)
C9_2 C 0.2556(7) 0.0707(4) 0.2711(8)
H5_2 H 0.3090 0.0888 0.2300
H6_2 H 0.1887 0.0808 0.2429
H7_2 H 0.2644 0.0314 0.2660
C10_2 C 0.2239(6) 0.0936(3) 0.8000(7)
H8_2 H 0.2882 0.0813 0.7650
C11_2 C 0.1339(8) 0.0627(4) 0.7532(7)
C12_2 C 0.2319(8) 0.0835(4) 0.9203(8)
H9_2 H 0.1730 0.0997 0.9560
H10_2 H 0.2945 0.1001 0.9474
H11_2 H 0.2332 0.0444 0.9339
C13_2 C 0.1609(5) 0.3171(3) 0.5747(6)
C14_2 C -0.0000 0.0000 0.3152(8)
H12_2 H -0.0000 0.0000 0.3903
C17_2 C -0.0000 0.0000 0.0902(7)
C22_3 C 0.5000 0.0000 0.8739(10)
H18_3 H 0.5000 0.0000 0.7987
O1_2 O 0.2131(6) 0.1518(2) 0.7861(5)
O2_2 O 0.0555(5) 0.0868(4) 0.7289(6)
O3_2 O 0.1532(8) 0.0108(3) 0.7450(7)
O4_2 O 0.2319(4) 0.1452(2) 0.3920(4)
O5_2 O 0.4018(4) 0.03241(18) 0.4551(4)
O6_2 O 0.4337(4) 0.12026(19) 0.4303(5)
H28_2 H 0.0319 0.1575 0.8413
H31_2 H 0.0182 0.0884 0.4440
H33_2 H 0.0099 0.1830 0.4050
C35_2 C 0.5128(7) 0.0485(4) 0.9315(7)
C37_2 C 0.5148(7) 0.1039(4) 0.7698(7)
H36_2 H 0.4506 0.0854 0.7471
C38_2 C 0.6050(7) 0.0782(4) 0.7145(7)
C39_2 C 0.5083(9) 0.1649(5) 0.7434(9)
H37_2 H 0.5725 0.1826 0.7628
H38_2 H 0.4522 0.1813 0.7834
H39_2 H 0.4961 0.1695 0.6674
O24_2 O 0.5250(6) 0.1004(3) 0.8844(5)
O25_2 O 0.5864(6) 0.0583(3) 0.6232(5)
O26_2 O 0.6888(5) 0.0780(4) 0.7574(7)
Nd12_2 Nd 0.87584(3) 0.081855(16) 0.76884(3)
C24_2 C 0.4848(7) 0.9506(4) 0.0432(7)
H19_2 H 0.4733 0.9177 0.0803
C25_4 C 0.5000 1.0000 0.0990(9)
C26_4 C 0.5000 1.0000 0.2198(10)
O16 O 0.4537(5) 0.9606(2) 0.2676(5)
H54_2 H 0.2263 0.8991 0.0041
C14_3 C -0.0000 1.0000 0.3152(8)
H12_3 H -0.0000 1.0000 0.3903
C15_2 C 0.0267(5) 0.9524(3) 0.2580(6)
C16_2 C 0.0266(6) 0.9525(3) 0.1454(6)
H13_2 H 0.0444 0.9206 0.1075
C17_3 C -0.0000 1.0000 0.0902(7)
C19_2 C 0.0476(5) 0.8961(3) 0.4178(6)
C20_2 C 0.1390(6) 0.9248(3) 0.4782(5)
C21_2 C 0.0488(7) 0.8340(3) 0.4397(8)
H15_2 H 0.1118 0.8183 0.4116
H17_2 H 0.0452 0.8276 0.5162
C22_4 C 0.5000 1.0000 0.8739(10)
H18_4 H 0.5000 1.0000 0.7987
C23_2 C 0.4872(7) 0.9515(4) 0.9315(7)
C27_2 C 0.4852(7) 0.8961(4) 0.7698(7)
H20_2 H 0.5494 0.9146 0.7471
C28_2 C 0.3950(7) 0.9218(4) 0.7145(7)
C29_2 C 0.4917(9) 0.8351(5) 0.7434(9)
H21_2 H 0.4275 0.8174 0.7628
H22_2 H 0.5478 0.8187 0.7834
H23_2 H 0.5039 0.8305 0.6674
O9_2 O 0.0529(5) 0.9030(2) 0.3042(4)
O10_2 O 0.2143(4) 0.9404(2) 0.4227(5)
O11_2 O 0.1298(5) 0.9276(3) 0.5768(4)
O13_2 O 0.4750(6) 0.8996(3) 0.8844(5)
O14_2 O 0.4136(6) 0.9417(3) 0.6232(5)
O15_2 O 0.3112(5) 0.9220(4) 0.7574(7)
Nd4 Nd 0.12416(3) 0.918145(16) 0.76884(3)
O36_2 O 0.1897(6) 0.8292(3) 0.6924(5)
H51_2 H 0.2206 0.8004 0.6698
H52_2 H 0.1270 0.8276 0.6711
O37_2 O 0.2282(7) 0.8896(4) 0.9380(7)
H53_2 H 0.2845 0.8719 0.9278
O38_2 O 0.0312(7) 0.8370(3) 0.8585(8)
H56_2 H 0.0321 0.8131 0.9090
O40_2 O 0.5982(4) 0.96759(18) 0.4551(4)
O42_2 O 0.5663(4) 0.87974(19) 0.4303(5)
O47 O 0.0430(5) 0.9607(2) 0.9227(4)
C18_2 C -0.0000 1.0000 0.9694(8)
H27_2 H 0.7737 0.1009 0.0041
C14_4 C 1.0000 0.0000 0.3152(8)
H12_4 H 1.0000 0.0000 0.3903
C17_4 C 1.0000 0.0000 0.0902(7)
O17_2 O 0.8103(6) 0.1708(3) 0.6924(5)
H24_2 H 0.7794 0.1996 0.6698
H25_2 H 0.8730 0.1724 0.6711
O18_2 O 0.7718(7) 0.1104(4) 0.9380(7)
H26_2 H 0.7155 0.1281 0.9278
O19_2 O 0.9688(7) 0.1630(3) 0.8585(8)
H29_2 H 0.9679 0.1869 0.9090
C30_2 C 0.9733(5) 0.0476(3) 0.2580(6)
C31_2 C 0.9734(6) 0.0475(3) 0.1454(6)
H30_2 H 0.9556 0.0794 0.1075
C32_2 C 0.9524(5) 0.1039(3) 0.4178(6)
C33_2 C 0.8610(6) 0.0752(3) 0.4782(5)
C34_2 C 0.9512(7) 0.1660(3) 0.4397(8)
H32_2 H 0.8882 0.1817 0.4116
H34_2 H 0.9548 0.1724 0.5162
O20_2 O 0.9471(5) 0.0970(2) 0.3042(4)
O21_2 O 0.7857(4) 0.0596(2) 0.4227(5)
O22_2 O 0.8702(5) 0.0724(3) 0.5768(4)
O48 O 0.9570(5) 0.0393(2) 0.9227(4)
C18_3 C 1.0000 0.0000 0.9694(8)
C14_5 C 1.0000 1.0000 0.3152(8)
H12_5 H 1.0000 1.0000 0.3903
C17_5 C 1.0000 1.0000 0.0902(7)
H14_2 H 0.9818 0.9116 0.4440
H16_2 H 0.9901 0.8170 0.4050
C40_2 C 0.7778(5) 0.8299(3) 0.4903(6)
C41_2 C 0.7997(5) 0.7726(3) 0.4840(6)
H40_2 H 0.8048 0.7549 0.4174
C42_2 C 0.8133(5) 0.7434(3) 0.5793(6)
C43_2 C 0.8087(7) 0.7695(3) 0.6795(7)
H41_2 H 0.8189 0.7494 0.7428
C44_2 C 0.7885(7) 0.8268(3) 0.6838(7)
C45_2 C 0.7713(6) 0.8567(3) 0.5896(7)
H42_2 H 0.7556 0.8942 0.5929
C46_2 C 0.7370(6) 0.9118(3) 0.3871(7)
H43_2 H 0.7851 0.9341 0.4304
C47_2 C 0.6271(5) 0.9193(2) 0.4303(6)
C48_2 C 0.7444(7) 0.9293(4) 0.2711(8)
H44_2 H 0.6910 0.9112 0.2300
H45_2 H 0.8113 0.9192 0.2429
H46_2 H 0.7356 0.9686 0.2660
C49_2 C 0.7761(6) 0.9064(3) 0.8000(7)
H47_2 H 0.7118 0.9187 0.7650
C50_2 C 0.8661(8) 0.9373(4) 0.7532(7)
C51_2 C 0.7681(8) 0.9165(4) 0.9203(8)
H48_2 H 0.8270 0.9003 0.9560
H49_2 H 0.7055 0.8999 0.9474
H50_2 H 0.7668 0.9556 0.9339
C52_2 C 0.8391(5) 0.6829(3) 0.5747(6)
O28_2 O 0.7869(6) 0.8482(2) 0.7861(5)
O29_2 O 0.9445(5) 0.9132(4) 0.7289(6)
O30_2 O 0.8468(8) 0.9892(3) 0.7450(7)
O31_2 O 0.7681(4) 0.8548(2) 0.3920(4)
H55_2 H 0.9681 0.8425 0.8413
C18_4 C -0.0000 0.0000 0.9694(8)
C18_5 C 1.0000 1.0000 0.9694(8)
loop_
_geom_bond_atom_site_label_1
_geom_bond_atom_site_label_2
_geom_bond_site_symmetry_1
_geom_bond_site_symmetry_2
C22 H18 1_555 1_555
C35 C22 1_555 1_555
C38 C37 1_555 1_555
C39 C37 1_555 1_555
H37 C39 1_555 1_555
O24 C35 1_555 1_555
O25 C38 1_555 1_555
O26 C38 1_555 1_555
Nd12 O26 1_555 1_555
C37 O24 1_555 1_555
O25 Nd8 1_555 1_555
Nd8 O40 1_555 1_555
C26 C25 1_555 1_555
C36 C25 1_555 1_555
H35 C36 1_555 1_555
O27 C26 1_555 1_555
Nd8 O27 1_555 1_555
O12 C18 1_555 1_555
O23 C18 1_555 1_555
Nd12 O23 1_555 1_555
Nd13 O12 1_555 1_555
C1 C2 1_555 1_555
C2 H1 1_555 1_555
C3 C2 1_555 1_555
C4 C3 1_555 1_555
H2 C4 1_555 1_555
C5 C4 1_555 1_555
C6 C1 1_555 1_555
H3 C6 1_555 1_555
C7 H4 1_555 1_555
C8 C7 1_555 1_555
C9 C7 1_555 1_555
H5 C9 1_555 1_555
H6 C9 1_555 1_555
H7 C9 1_555 1_555
C10 H8 1_555 1_555
C11 C10 1_555 1_555
C12 C10 1_555 1_555
H9 C12 1_555 1_555
H10 C12 1_555 1_555
H11 C12 1_555 1_555
C13 C3 1_555 1_555
C14 H12 1_555 1_555
C15 C14 1_555 1_555
C16 C15 1_555 1_555
H13 C16 1_555 1_555
C17 C16 1_555 1_555
C19 H14 1_555 1_555
C20 C19 1_555 1_555
C21 C19 1_555 1_555
H15 C21 1_555 1_555
H16 C21 1_555 1_555
H17 C21 1_555 1_555
C22_2 H18_2 1_555 1_555
C23 C22_2 1_555 1_555
C28 C27 1_555 1_555
C29 C27 1_555 1_555
H21 C29 1_555 1_555
Nd1 O5 1_555 1_555
Nd12 O2 1_555 1_555
O1 C5 1_555 1_555
O2 C11 1_555 1_555
O3 C11 1_555 1_555
O4 C1 1_555 1_555
O5 C8 1_555 1_555
O6 C8 1_555 1_555
O7 C13 1_555 1_555
O8 C13 1_555 1_555
O9 C15 1_555 1_555
O10 C20 1_555 1_555
O11 C20 1_555 1_555
O13 C23 1_555 1_555
O14 C28 1_555 1_555
O15 C28 1_555 1_555
O17 Nd12 1_555 1_555
H24 O17 1_555 1_555
H25 O17 1_555 1_555
O18 Nd12 1_555 1_555
H26 O18 1_555 1_555
O19 Nd12 1_555 1_555
H28 O19 1_555 1_555
H29 O19 1_555 1_555
C30 C14 1_555 1_555
C31 C17 1_555 1_555
H30 C31 1_555 1_555
C32 H31 1_555 1_555
C33 C32 1_555 1_555
C34 C32 1_555 1_555
H32 C34 1_555 1_555
H33 C34 1_555 1_555
H34 C34 1_555 1_555
O20 C30 1_555 1_555
O21 C33 1_555 1_555
O22 Nd12 1_555 1_555
C40 C41 1_555 1_555
C41 H40 1_555 1_555
C42 C41 1_555 1_555
C43 C42 1_555 1_555
H41 C43 1_555 1_555
C44 C43 1_555 1_555
C45 C40 1_555 1_555
H42 C45 1_555 1_555
C46 H43 1_555 1_555
C47 C46 1_555 1_555
C48 C46 1_555 1_555
H44 C48 1_555 1_555
H45 C48 1_555 1_555
H46 C48 1_555 1_555
C49 H47 1_555 1_555
C50 C49 1_555 1_555
C51 C49 1_555 1_555
H48 C51 1_555 1_555
H49 C51 1_555 1_555
H50 C51 1_555 1_555
C52 C42 1_555 1_555
Nd8 O21 1_555 1_555
Nd13 O3 1_555 1_555
O28 C44 1_555 1_555
O29 C50 1_555 1_555
O30 Nd12 1_555 1_555
O31 C40 1_555 1_555
O40 C47 1_555 1_555
O42 C47 1_555 1_555
O34 C52 1_555 1_555
O35 C52 1_555 1_555
O36 Nd13 1_555 1_555
H51 O36 1_555 1_555
H52 O36 1_555 1_555
O37 Nd13 1_555 1_555
H53 O37 1_555 1_555
O38 Nd13 1_555 1_555
H55 O38 1_555 1_555
H56 O38 1_555 1_555
Nd9 O34 1_555 1_555
Nd10 O7 1_555 1_555
O43 Nd8 1_555 1_555
O44 Nd1 1_555 1_555
O45 Nd8 1_555 1_555
O46 Nd1 1_555 1_555
O51 Nd1 1_555 1_555
C5 C6 1_555 1_555
C7 O4 1_555 1_555
C10 O1 1_555 1_555
C19 O9 1_555 1_555
C27 O13 1_555 1_555
Nd1 O10 1_555 1_555
Nd1 O14 1_555 1_555
O8 Nd10 1_555 1_555
O11 Nd13 1_555 1_555
O15 Nd13 1_555 1_555
C30 C31 1_555 1_555
C32 O20 1_555 1_555
C33 O22 1_555 1_555
C44 C45 1_555 1_555
C46 O31 1_555 1_555
C49 O28 1_555 1_555
C50 O30 1_555 1_555
Nd13 O29 1_555 1_555
O35 Nd9 1_555 1_555
H19 C24 1_555 1_555
C25_2 C24 1_555 1_555
C26_2 C25_2 1_555 1_555
O51 C26_2 1_555 1_555
C26_3 C25_3 1_555 1_555
C36_2 C25_3 1_555 1_555
H35_2 C36_2 1_555 1_555
O27_2 C26_3 1_555 1_555
Nd10 O27_2 1_555 1_555
C1_2 C2_2 1_555 1_555
C2_2 H1_2 1_555 1_555
C3_2 C2_2 1_555 1_555
C4_2 C3_2 1_555 1_555
H2_2 C4_2 1_555 1_555
C5_2 C4_2 1_555 1_555
C6_2 C1_2 1_555 1_555
H3_2 C6_2 1_555 1_555
C7_2 H4_2 1_555 1_555
C8_2 C7_2 1_555 1_555
C9_2 C7_2 1_555 1_555
H5_2 C9_2 1_555 1_555
H6_2 C9_2 1_555 1_555
H7_2 C9_2 1_555 1_555
C10_2 H8_2 1_555 1_555
C11_2 C10_2 1_555 1_555
C12_2 C10_2 1_555 1_555
H9_2 C12_2 1_555 1_555
H10_2 C12_2 1_555 1_555
H11_2 C12_2 1_555 1_555
C13_2 C3_2 1_555 1_555
C14_2 H12_2 1_555 1_555
C22_3 H18_3 1_555 1_555
O1_2 C5_2 1_555 1_555
O2_2 C11_2 1_555 1_555
O3_2 C11_2 1_555 1_555
O4_2 C1_2 1_555 1_555
O5_2 C8_2 1_555 1_555
O6_2 C8_2 1_555 1_555
O43 C13_2 1_555 1_555
O45 C13_2 1_555 1_555
C35_2 C22_3 1_555 1_555
C37_2 H36_2 1_555 1_555
C38_2 C37_2 1_555 1_555
C39_2 C37_2 1_555 1_555
H37_2 C39_2 1_555 1_555
H38_2 C39_2 1_555 1_555
H39_2 C39_2 1_555 1_555
O24_2 C35_2 1_555 1_555
O25_2 C38_2 1_555 1_555
O26_2 C38_2 1_555 1_555
Nd10 O5_2 1_555 1_555
Nd12_2 O26_2 1_555 1_555
C5_2 C6_2 1_555 1_555
C7_2 O4_2 1_555 1_555
C10_2 O1_2 1_555 1_555
O6_2 Nd10 1_555 1_555
C37_2 O24_2 1_555 1_555
O25_2 Nd10 1_555 1_555
H19_2 C24_2 1_555 1_555
C25_4 C24_2 1_555 1_555
C26_4 C25_4 1_555 1_555
O16 C26_4 1_555 1_555
Nd9 O16 1_555 1_555
C14_3 H12_3 1_555 1_555
C15_2 C14_3 1_555 1_555
C16_2 C15_2 1_555 1_555
H13_2 C16_2 1_555 1_555
C17_3 C16_2 1_555 1_555
C20_2 C19_2 1_555 1_555
C21_2 C19_2 1_555 1_555
H15_2 C21_2 1_555 1_555
H17_2 C21_2 1_555 1_555
C22_4 H18_4 1_555 1_555
C23_2 C22_4 1_555 1_555
C27_2 H20_2 1_555 1_555
C28_2 C27_2 1_555 1_555
C29_2 C27_2 1_555 1_555
H21_2 C29_2 1_555 1_555
H22_2 C29_2 1_555 1_555
H23_2 C29_2 1_555 1_555
O9_2 C15_2 1_555 1_555
O10_2 C20_2 1_555 1_555
O11_2 C20_2 1_555 1_555
O13_2 C23_2 1_555 1_555
O14_2 C28_2 1_555 1_555
O15_2 C28_2 1_555 1_555
O36_2 Nd4 1_555 1_555
H51_2 O36_2 1_555 1_555
H52_2 O36_2 1_555 1_555
O37_2 Nd4 1_555 1_555
H53_2 O37_2 1_555 1_555
O38_2 Nd4 1_555 1_555
H56_2 O38_2 1_555 1_555
O40_2 Nd9 1_555 1_555
O42_2 Nd9 1_555 1_555
O47 Nd4 1_555 1_555
C19_2 O9_2 1_555 1_555
C27_2 O13_2 1_555 1_555
Nd9 O10_2 1_555 1_555
Nd9 O14_2 1_555 1_555
O11_2 Nd4 1_555 1_555
O15_2 Nd4 1_555 1_555
O47 C18_2 1_555 1_555
C14_4 H12_4 1_555 1_555
O17_2 Nd12_2 1_555 1_555
H24_2 O17_2 1_555 1_555
H25_2 O17_2 1_555 1_555
O18_2 Nd12_2 1_555 1_555
H26_2 O18_2 1_555 1_555
O19_2 Nd12_2 1_555 1_555
H29_2 O19_2 1_555 1_555
C30_2 C14_4 1_555 1_555
C31_2 C17_4 1_555 1_555
H30_2 C31_2 1_555 1_555
C33_2 C32_2 1_555 1_555
C34_2 C32_2 1_555 1_555
H32_2 C34_2 1_555 1_555
H34_2 C34_2 1_555 1_555
O20_2 C30_2 1_555 1_555
O21_2 C33_2 1_555 1_555
O22_2 Nd12_2 1_555 1_555
Nd10 O21_2 1_555 1_555
O48 Nd12_2 1_555 1_555
C30_2 C31_2 1_555 1_555
C32_2 O20_2 1_555 1_555
C33_2 O22_2 1_555 1_555
O48 C18_3 1_555 1_555
C14_5 H12_5 1_555 1_555
C40_2 C41_2 1_555 1_555
C41_2 H40_2 1_555 1_555
C42_2 C41_2 1_555 1_555
C43_2 C42_2 1_555 1_555
H41_2 C43_2 1_555 1_555
C44_2 C43_2 1_555 1_555
C45_2 C40_2 1_555 1_555
H42_2 C45_2 1_555 1_555
C46_2 H43_2 1_555 1_555
C47_2 C46_2 1_555 1_555
C48_2 C46_2 1_555 1_555
H44_2 C48_2 1_555 1_555
H45_2 C48_2 1_555 1_555
H46_2 C48_2 1_555 1_555
C49_2 H47_2 1_555 1_555
C50_2 C49_2 1_555 1_555
C51_2 C49_2 1_555 1_555
H48_2 C51_2 1_555 1_555
H49_2 C51_2 1_555 1_555
H50_2 C51_2 1_555 1_555
C52_2 C42_2 1_555 1_555
O28_2 C44_2 1_555 1_555
O29_2 C50_2 1_555 1_555
O31_2 C40_2 1_555 1_555
O40_2 C47_2 1_555 1_555
O42_2 C47_2 1_555 1_555
O44 C52_2 1_555 1_555
O46 C52_2 1_555 1_555
C44_2 C45_2 1_555 1_555
C46_2 O31_2 1_555 1_555
C49_2 O28_2 1_555 1_555
C50_2 O30_2 1_555 1_555

#END
