
###############################################################################
#
# This file contains modified crystal structure data generated from the
# MOF subset of the Cambridge Structural Database (CSD) v543 
# hosted by the Cambridge Crystallographic Data Centre (CCDC).
#
# This work is licensed under the Creative Commons
# Attribution-NonCommercial-ShareAlike 4.0 International License.
# To view a copy of this license, visit
# http://creativecommons.org/licenses/by-nc-sa/4.0/
# or send a letter to
# Creative Commons, PO Box 1866, Mountain View, CA 94042, USA.
#
# CIF created using the CSD Python API on 29 September 2022
# The structure has been converted into the P1 space group
# The structure has a 3D framework
# The original CSD entry FAVGIV is in the monoclinic crystal system
# The original CSD entry FAVGIV is in a Sohncke space group
# The framework has been calculated to contain at least 10.0% void space
# The void calculation uses a probe of radius 1.32A, grid spacing 0.4
#
###############################################################################

data_FAVGIV
_chemical_formula_moiety         '(C52 H52 O32 Sm4)n'
_symmetry_cell_setting           triclinic
_symmetry_space_group_name_H-M   'P 1'
_symmetry_Int_Tables_number      1
_space_group_name_Hall           'P 1'
loop_
_symmetry_equiv_pos_site_id
_symmetry_equiv_pos_as_xyz
1 x,y,z
_cell_length_a                   11.921(2)
_cell_length_b                   12.527(3)
_cell_length_c                   12.552(3)
_cell_angle_alpha                90
_cell_angle_beta                 98.87(3)
_cell_angle_gamma                90
_cell_volume                     1852.03
loop_
_atom_site_label
_atom_site_type_symbol
_atom_site_fract_x
_atom_site_fract_y
_atom_site_fract_z
C14 C 0.0208(5) 0.5465(5) 0.0900(6)
H14 H 0.0074 0.5650 0.2484
C20 C 0.1459(5) 0.5200(5) 0.1079(5)
O9 O 0.1957(4) 0.4967(4) 0.1998(4)
O10 O 0.1977(3) 0.5217(4) 0.0276(4)
Sm4 Sm 0.37249(2) 0.44591(2) 0.13211(2)
O7 O 0.6257(4) 0.2377(5) 0.0017(4)
Sm7 Sm 0.64169(2) 0.22916(2) 0.18787(2)
C1 C 0.4842(6) 0.3390(5) 0.4902(5)
C2 C 0.3887(6) 0.3746(5) 0.5309(6)
H1 H 0.3266 0.4017 0.4850
C3 C 0.3875(5) 0.3690(5) 0.6407(5)
C4 C 0.4821(5) 0.3333(5) 0.7114(5)
H2 H 0.4804 0.3289 0.7851
C5 C 0.5788(5) 0.3044(5) 0.6691(5)
C6 C 0.5797(5) 0.3039(5) 0.5596(5)
H3 H 0.6434 0.2803 0.5321
C7 C 0.4870(5) 0.3412(5) 0.3725(5)
C8 C 0.2795(5) 0.3807(5) 0.7845(5)
H4 H 0.3032 0.3072 0.8030
C9 C 0.3556(5) 0.4570(5) 0.8610(5)
C10 C 0.1555(6) 0.3924(7) 0.7975(7)
H5 H 0.1106 0.3424 0.7511
H6 H 0.1304 0.4637 0.7784
H7 H 0.1470 0.3785 0.8710
C11 C 0.6914(5) 0.2950(5) 0.8442(5)
H8 H 0.6599 0.3656 0.8552
C12 C 0.6321(5) 0.2134(5) 0.9064(5)
C13 C 0.8185(6) 0.2983(6) 0.8835(6)
H9 H 0.8528 0.3514 0.8437
H10 H 0.8510 0.2298 0.8727
H11 H 0.8320 0.3158 0.9588
C17 C 0.7904(5) 0.5912(5) 0.0574(6)
H13 H 0.7131 0.6063 0.0462
C18 C 0.8507(5) 0.5881(5) 0.1616(6)
C19 C 0.9668(5) 0.5663(5) 0.1790(6)
C21 C 0.6871(5) 0.5724(5) 0.2498(6)
H15 H 0.6364 0.6188 0.2013
C22 C 0.6733(6) 0.4575(6) 0.2101(6)
C23 C 0.6587(7) 0.5811(7) 0.3620(6)
H16 H 0.6750 0.6521 0.3888
H17 H 0.7035 0.5308 0.4081
H18 H 0.5796 0.5660 0.3608
O1 O 0.5635(4) 0.2861(4) 0.3383(4)
O2 O 0.4163(4) 0.3976(4) 0.3145(4)
O3 O 0.2880(4) 0.3981(4) 0.6758(4)
O4 O 0.3790(5) 0.5445(4) 0.8262(4)
O5 O 0.3894(4) 0.4208(4) 0.9542(4)
O6 O 0.6781(4) 0.2749(4) 0.7325(4)
O8 O 0.5927(5) 0.1287(4) 0.8597(4)
O14 O 0.8019(4) 0.6059(4) 0.2515(4)
O15 O 0.7503(4) 0.3915(4) 0.2336(5)
O16 O 0.5770(3) 0.4317(4) 0.1562(4)
O17 O 0.8250(4) 0.1762(4) 0.1406(4)
H23 H 0.8254 0.1267 0.0940
H24 H 0.8857 0.2132 0.1450
O18 O 0.7623(6) 0.1656(6) 0.3508(5)
H25 H 0.7701 0.1089 0.3148
H26 H 0.8030 0.1608 0.4127
O19 O 0.6210(5) 0.0445(4) 0.1738(4)
O22 O 0.4073(5) 0.6287(4) 0.1403(4)
O25 O 0.2567(4) 0.2808(3) 0.1236(4)
O26 O 0.4384(4) 0.2456(4) 0.1295(4)
Sm9 Sm 0.35831(2) 0.72916(2) 0.81213(2)
C15 C 0.9621(5) 0.5487(5) 0.9877(6)
H12 H 0.9993 0.5348 0.9293
C16 C 0.8463(5) 0.5717(5) 0.9710(6)
C24 C 0.6817(6) 0.5999(5) 0.8364(6)
H19 H 0.6341 0.5535 0.8736
C25 C 0.6623(6) 0.7159(6) 0.8642(5)
C26 C 0.6511(7) 0.5851(7) 0.7159(7)
H20 H 0.6621 0.5118 0.6978
H21 H 0.6987 0.6298 0.6797
H22 H 0.5730 0.6043 0.6937
O11 O 0.7970(4) 0.5700(4) 0.8645(4)
O12 O 0.7433(4) 0.7808(3) 0.8764(4)
O13 O 0.5616(4) 0.7456(4) 0.8705(4)
Sm6 Sm 0.62751(2) 0.94591(2) 0.86789(2)
C15_2 C 0.0379(5) 0.0487(5) 0.0123(6)
H12_2 H 0.0007 0.0348 0.0707
C16_2 C 0.1537(5) 0.0717(5) 0.0290(6)
C24_2 C 0.3183(6) 0.0999(5) 0.1636(6)
H19_2 H 0.3659 0.0535 0.1264
C25_2 C 0.3377(6) 0.2159(6) 0.1358(5)
C26_2 C 0.3489(7) 0.0851(7) 0.2841(7)
H20_2 H 0.3379 0.0118 0.3022
H21_2 H 0.3013 0.1298 0.3203
H22_2 H 0.4270 0.1043 0.3063
O11_2 O 0.2030(4) 0.0700(4) 0.1355(4)
C17_2 C 0.2096(5) 0.0912(5) 0.9426(6)
H13_2 H 0.2869 0.1063 0.9538
C18_2 C 0.1493(5) 0.0881(5) 0.8384(6)
C19_2 C 0.0332(5) 0.0663(5) 0.8210(6)
C21_2 C 0.3129(5) 0.0724(5) 0.7502(6)
H15_2 H 0.3636 0.1188 0.7987
C23_2 C 0.3413(7) 0.0811(7) 0.6380(6)
H16_2 H 0.3250 0.1521 0.6112
H17_2 H 0.2965 0.0308 0.5919
H18_2 H 0.4204 0.0660 0.6392
O14_2 O 0.1981(4) 0.1059(4) 0.7485(4)
O24 O 0.8023(3) 0.0217(4) 0.9724(4)
O20 O 0.6106(4) 0.9208(4) 0.0458(4)
C1_2 C 0.5158(6) 0.8390(5) 0.5098(5)
C2_2 C 0.6113(6) 0.8746(5) 0.4691(6)
H1_2 H 0.6734 0.9017 0.5150
C3_2 C 0.6125(5) 0.8690(5) 0.3593(5)
C4_2 C 0.5179(5) 0.8333(5) 0.2886(5)
H2_2 H 0.5196 0.8289 0.2149
C5_2 C 0.4212(5) 0.8044(5) 0.3309(5)
C6_2 C 0.4203(5) 0.8039(5) 0.4404(5)
H3_2 H 0.3566 0.7803 0.4679
C7_2 C 0.5130(5) 0.8412(5) 0.6275(5)
C8_2 C 0.7205(5) 0.8807(5) 0.2155(5)
H4_2 H 0.6968 0.8072 0.1970
C9_2 C 0.6444(5) 0.9570(5) 0.1390(5)
C10_2 C 0.8445(6) 0.8924(7) 0.2025(7)
H5_2 H 0.8894 0.8424 0.2489
H6_2 H 0.8696 0.9637 0.2216
H7_2 H 0.8530 0.8785 0.1290
C11_2 C 0.3086(5) 0.7950(5) 0.1558(5)
H8_2 H 0.3401 0.8656 0.1448
C12_2 C 0.3679(5) 0.7134(5) 0.0936(5)
C13_2 C 0.1815(6) 0.7983(6) 0.1165(6)
H9_2 H 0.1472 0.8514 0.1563
H10_2 H 0.1490 0.7298 0.1273
H11_2 H 0.1680 0.8158 0.0412
C22_2 C 0.3267(6) 0.9575(6) 0.7899(6)
O1_2 O 0.4365(4) 0.7861(4) 0.6617(4)
O2_2 O 0.5837(4) 0.8976(4) 0.6855(4)
O3_2 O 0.7120(4) 0.8981(4) 0.3242(4)
O6_2 O 0.3219(4) 0.7749(4) 0.2675(4)
O15_2 O 0.2497(4) 0.8915(4) 0.7664(5)
O16_2 O 0.4230(3) 0.9317(4) 0.8438(4)
O17_2 O 0.1750(4) 0.6762(4) 0.8594(4)
H23_2 H 0.1746 0.6267 0.9060
H24_2 H 0.1143 0.7132 0.8550
O18_2 O 0.2377(6) 0.6656(6) 0.6492(5)
H25_2 H 0.2299 0.6089 0.6852
H26_2 H 0.1970 0.6608 0.5873
O21 O 0.3743(4) 0.7377(5) 0.9983(4)
O23 O 0.8043(4) 0.9967(4) 0.8002(4)
C14_2 C 0.9792(5) 0.0465(5) 0.9100(6)
H14_2 H 0.9926 0.0650 0.7516
C20_2 C 0.8541(5) 0.0200(5) 0.8921(5)
loop_
_geom_bond_atom_site_label_1
_geom_bond_atom_site_label_2
_geom_bond_site_symmetry_1
_geom_bond_site_symmetry_2
C20 C14 1_555 1_555
O9 C20 1_555 1_555
O10 C20 1_555 1_555
Sm4 O9 1_555 1_555
O10 Sm4 1_555 1_555
Sm7 O7 1_555 1_555
C1 C2 1_555 1_555
C2 H1 1_555 1_555
C3 C2 1_555 1_555
C4 C3 1_555 1_555
H2 C4 1_555 1_555
C5 C4 1_555 1_555
C6 C1 1_555 1_555
H3 C6 1_555 1_555
C7 C1 1_555 1_555
C8 H4 1_555 1_555
C9 C8 1_555 1_555
C10 C8 1_555 1_555
H5 C10 1_555 1_555
H6 C10 1_555 1_555
H7 C10 1_555 1_555
C11 H8 1_555 1_555
C12 C11 1_555 1_555
C13 C11 1_555 1_555
H9 C13 1_555 1_555
H10 C13 1_555 1_555
H11 C13 1_555 1_555
H13 C17 1_555 1_555
C18 C17 1_555 1_555
C21 H15 1_555 1_555
C22 C21 1_555 1_555
C23 C21 1_555 1_555
H16 C23 1_555 1_555
H17 C23 1_555 1_555
H18 C23 1_555 1_555
O1 C7 1_555 1_555
O2 C7 1_555 1_555
O3 C3 1_555 1_555
O4 C9 1_555 1_555
O5 C9 1_555 1_555
O6 C5 1_555 1_555
O8 C12 1_555 1_555
O14 C18 1_555 1_555
O15 C22 1_555 1_555
O16 C22 1_555 1_555
O17 H23 1_555 1_555
H24 O17 1_555 1_555
O18 H25 1_555 1_555
H26 O18 1_555 1_555
Sm4 O2 1_555 1_555
Sm7 O1 1_555 1_555
O19 Sm7 1_555 1_555
O22 Sm4 1_555 1_555
O25 Sm4 1_555 1_555
O26 Sm4 1_555 1_555
Sm9 O4 1_555 1_555
C5 C6 1_555 1_555
C8 O3 1_555 1_555
C11 O6 1_555 1_555
C18 C19 1_555 1_555
C21 O14 1_555 1_555
O15 Sm7 1_555 1_555
O16 Sm4 1_555 1_555
O16 Sm7 1_555 1_555
O17 Sm7 1_555 1_555
O18 Sm7 1_555 1_555
Sm7 O26 1_555 1_555
C15 H12 1_555 1_555
C16 C15 1_555 1_555
C24 H19 1_555 1_555
C25 C24 1_555 1_555
C26 C24 1_555 1_555
H20 C26 1_555 1_555
H21 C26 1_555 1_555
H22 C26 1_555 1_555
O11 C16 1_555 1_555
O12 C25 1_555 1_555
O13 C25 1_555 1_555
Sm6 O12 1_555 1_555
Sm9 O13 1_555 1_555
C24 O11 1_555 1_555
O13 Sm6 1_555 1_555
C15_2 H12_2 1_555 1_555
C16_2 C15_2 1_555 1_555
C24_2 H19_2 1_555 1_555
C25_2 C24_2 1_555 1_555
C26_2 C24_2 1_555 1_555
H20_2 C26_2 1_555 1_555
H21_2 C26_2 1_555 1_555
H22_2 C26_2 1_555 1_555
O11_2 C16_2 1_555 1_555
O25 C25_2 1_555 1_555
O26 C25_2 1_555 1_555
C24_2 O11_2 1_555 1_555
H13_2 C17_2 1_555 1_555
C18_2 C17_2 1_555 1_555
C21_2 H15_2 1_555 1_555
C23_2 C21_2 1_555 1_555
H16_2 C23_2 1_555 1_555
H17_2 C23_2 1_555 1_555
H18_2 C23_2 1_555 1_555
O14_2 C18_2 1_555 1_555
C18_2 C19_2 1_555 1_555
C21_2 O14_2 1_555 1_555
C1_2 C2_2 1_555 1_555
C2_2 H1_2 1_555 1_555
C3_2 C2_2 1_555 1_555
C4_2 C3_2 1_555 1_555
H2_2 C4_2 1_555 1_555
C5_2 C4_2 1_555 1_555
C6_2 C1_2 1_555 1_555
H3_2 C6_2 1_555 1_555
C7_2 C1_2 1_555 1_555
C8_2 H4_2 1_555 1_555
C9_2 C8_2 1_555 1_555
C10_2 C8_2 1_555 1_555
H5_2 C10_2 1_555 1_555
H6_2 C10_2 1_555 1_555
H7_2 C10_2 1_555 1_555
C11_2 H8_2 1_555 1_555
C12_2 C11_2 1_555 1_555
C13_2 C11_2 1_555 1_555
H9_2 C13_2 1_555 1_555
H10_2 C13_2 1_555 1_555
H11_2 C13_2 1_555 1_555
O1_2 C7_2 1_555 1_555
O2_2 C7_2 1_555 1_555
O3_2 C3_2 1_555 1_555
O20 C9_2 1_555 1_555
O6_2 C5_2 1_555 1_555
O22 C12_2 1_555 1_555
O15_2 C22_2 1_555 1_555
O16_2 C22_2 1_555 1_555
O17_2 H23_2 1_555 1_555
H24_2 O17_2 1_555 1_555
O18_2 H25_2 1_555 1_555
H26_2 O18_2 1_555 1_555
Sm6 O2_2 1_555 1_555
Sm9 O1_2 1_555 1_555
O21 Sm9 1_555 1_555
O23 Sm6 1_555 1_555
C5_2 C6_2 1_555 1_555
C8_2 O3_2 1_555 1_555
C11_2 O6_2 1_555 1_555
O15_2 Sm9 1_555 1_555
O16_2 Sm6 1_555 1_555
O16_2 Sm9 1_555 1_555
O17_2 Sm9 1_555 1_555
O18_2 Sm9 1_555 1_555
C20_2 C14_2 1_555 1_555
O24 C20_2 1_555 1_555

#END
