
###############################################################################
#
# This file contains modified crystal structure data generated from the
# MOF subset of the Cambridge Structural Database (CSD) v543 
# hosted by the Cambridge Crystallographic Data Centre (CCDC).
#
# This work is licensed under the Creative Commons
# Attribution-NonCommercial-ShareAlike 4.0 International License.
# To view a copy of this license, visit
# http://creativecommons.org/licenses/by-nc-sa/4.0/
# or send a letter to
# Creative Commons, PO Box 1866, Mountain View, CA 94042, USA.
#
# CIF created using the CSD Python API on 29 September 2022
# The structure has been converted into the P1 space group
# The structure has a 3D framework
# The original CSD entry FAVJEV is in the orthorhombic crystal system
# The framework has been calculated to contain at least 10.0% void space
# The void calculation uses a probe of radius 1.32A, grid spacing 0.4
#
###############################################################################

data_FAVJEV
_chemical_formula_moiety         '(C104 H72 F36 N16 Si9 Zn3)n'
_symmetry_cell_setting           triclinic
_symmetry_space_group_name_H-M   'P 1'
_symmetry_Int_Tables_number      1
_space_group_name_Hall           'P 1'
loop_
_symmetry_equiv_pos_site_id
_symmetry_equiv_pos_as_xyz
1 x,y,z
_cell_length_a                   15.1356(17)
_cell_length_b                   24.8559(13)
_cell_length_c                   9.4394(10)
_cell_angle_alpha                90
_cell_angle_beta                 90
_cell_angle_gamma                90
_cell_volume                     3551.19
loop_
_atom_site_label
_atom_site_type_symbol
_atom_site_fract_x
_atom_site_fract_y
_atom_site_fract_z
Zn5 Zn 0.7500 0.0000 0.5000
N2 N 0.74523(8) 0.56211(5) 0.34155(13)
C8 C 0.67867(11) 0.59747(6) 0.34393(19)
H6 H 0.6323 0.5919 0.4069
C9 C 0.67608(12) 0.64189(6) 0.25657(19)
H7 H 0.6288 0.6657 0.2617
C10 C 0.74400(11) 0.65101(6) 0.16107(15)
C11 C 0.81163(12) 0.61353(7) 0.15731(19)
H8 H 0.8577 0.6175 0.0930
C12 C 0.81047(11) 0.57023(6) 0.24936(18)
H9 H 0.8570 0.5459 0.2468
C13 C 0.74562(11) 0.70090(6) 0.07408(17)
C14 C 0.74076(16) 0.7500 0.1441(2)
H10 H 0.7340 0.7500 0.2420
N4 N 0.74523(8) 0.93789(5) 0.34155(13)
C21 C 0.67867(11) 0.90253(6) 0.34393(19)
H15 H 0.6323 0.9081 0.4069
C22 C 0.67608(12) 0.85811(6) 0.25657(19)
H16 H 0.6288 0.8343 0.2617
C23 C 0.74400(11) 0.84899(6) 0.16107(15)
C24 C 0.81163(12) 0.88647(7) 0.15731(19)
H17 H 0.8577 0.8825 0.0930
C25 C 0.81047(11) 0.92977(6) 0.24936(18)
H18 H 0.8570 0.9541 0.2468
C26 C 0.74562(11) 0.79910(6) 0.07408(17)
Zn2 Zn 0.7500 0.5000 0.5000
Zn5_2 Zn 0.7500 1.0000 0.5000
Si1 Si 0.5000 0.5000 0.5000
F1 F 0.61365(8) 0.5000 0.5000
F2 F 0.5000 0.51190(7) 0.32736(16)
F3 F 0.5000 0.43417(6) 0.46929(19)
N1 N 0.75477(8) 0.56211(5) 0.65845(13)
C1 C 0.82133(11) 0.59747(6) 0.65607(19)
H1 H 0.8677 0.5919 0.5931
C2 C 0.82392(12) 0.64189(6) 0.74343(19)
H2 H 0.8712 0.6657 0.7383
C3 C 0.75600(11) 0.65101(6) 0.83893(15)
C4 C 0.68837(12) 0.61353(7) 0.84269(19)
H3 H 0.6423 0.6175 0.9070
C5 C 0.68953(11) 0.57023(6) 0.75064(18)
H4 H 0.6430 0.5459 0.7532
C6 C 0.75438(11) 0.70090(6) 0.92592(17)
C7 C 0.75924(16) 0.7500 0.8559(2)
H5 H 0.7660 0.7500 0.7580
F4 F 0.5000 0.48810(7) 0.67264(16)
F5 F 0.5000 0.56583(6) 0.53071(19)
F6 F 0.38635(8) 0.5000 0.5000
N3 N 0.75477(8) 0.93789(5) 0.65845(13)
C15 C 0.82133(11) 0.90253(6) 0.65607(19)
H11 H 0.8677 0.9081 0.5931
C16 C 0.82392(12) 0.85811(6) 0.74343(19)
H12 H 0.8712 0.8343 0.7383
C17 C 0.75600(11) 0.84899(6) 0.83893(15)
C18 C 0.68837(12) 0.88647(7) 0.84269(19)
H13 H 0.6423 0.8825 0.9070
C19 C 0.68953(11) 0.92977(6) 0.75064(18)
H14 H 0.6430 0.9541 0.7532
C20 C 0.75438(11) 0.79910(6) 0.92592(17)
Zn3 Zn 0.2500 0.5000 0.5000
F7 F 0.88635(8) 0.5000 0.5000
N5 N 0.75477(8) 0.43789(5) 0.34155(13)
N6 N 0.74523(8) 0.43789(5) 0.65845(13)
Zn2_2 Zn 0.2500 0.0000 0.5000
Si1_2 Si 0.5000 0.0000 0.5000
F1_2 F 0.38635(8) 0.0000 0.5000
F3_2 F 0.5000 0.06583(6) 0.46929(19)
F4_2 F 0.5000 0.01190(7) 0.67264(16)
F6_2 F 0.61365(8) 0.0000 0.5000
F7_2 F 0.11365(8) 0.0000 0.5000
N5_2 N 0.24523(8) 0.06211(5) 0.34155(13)
N6_2 N 0.25477(8) 0.06211(5) 0.65845(13)
N2_2 N 0.25477(8) 0.93789(5) 0.34155(13)
C8_2 C 0.32133(11) 0.90253(6) 0.34393(19)
H6_2 H 0.3677 0.9081 0.4069
C9_2 C 0.32392(12) 0.85811(6) 0.25657(19)
H7_2 H 0.3712 0.8343 0.2617
C10_2 C 0.25600(11) 0.84899(6) 0.16107(15)
C11_2 C 0.18837(12) 0.88647(7) 0.15731(19)
H8_2 H 0.1423 0.8825 0.0930
C12_2 C 0.18953(11) 0.92977(6) 0.24936(18)
H9_2 H 0.1430 0.9541 0.2468
C13_2 C 0.25438(11) 0.79910(6) 0.07408(17)
C14_2 C 0.25924(16) 0.7500 0.1441(2)
H10_2 H 0.2660 0.7500 0.2420
N4_2 N 0.25477(8) 0.56211(5) 0.34155(13)
C21_2 C 0.32133(11) 0.59747(6) 0.34393(19)
H15_2 H 0.3677 0.5919 0.4069
C22_2 C 0.32392(12) 0.64189(6) 0.25657(19)
H16_2 H 0.3712 0.6657 0.2617
C23_2 C 0.25600(11) 0.65101(6) 0.16107(15)
C24_2 C 0.18837(12) 0.61353(7) 0.15731(19)
H17_2 H 0.1423 0.6175 0.0930
C25_2 C 0.18953(11) 0.57023(6) 0.24936(18)
H18_2 H 0.1430 0.5459 0.2468
C26_2 C 0.25438(11) 0.70090(6) 0.07408(17)
Zn2_3 Zn 0.2500 1.0000 0.5000
Si1_3 Si 0.5000 1.0000 0.5000
F1_3 F 0.38635(8) 1.0000 0.5000
F2_2 F 0.5000 0.98810(7) 0.32736(16)
N1_2 N 0.24523(8) 0.93789(5) 0.65845(13)
C1_2 C 0.17867(11) 0.90253(6) 0.65607(19)
H1_2 H 0.1323 0.9081 0.5931
C2_2 C 0.17608(12) 0.85811(6) 0.74343(19)
H2_2 H 0.1288 0.8343 0.7383
C3_2 C 0.24400(11) 0.84899(6) 0.83893(15)
C4_2 C 0.31163(12) 0.88647(7) 0.84269(19)
H3_2 H 0.3577 0.8825 0.9070
C5_2 C 0.31047(11) 0.92977(6) 0.75064(18)
H4_2 H 0.3570 0.9541 0.7532
C6_2 C 0.24562(11) 0.79910(6) 0.92592(17)
C7_2 C 0.24076(16) 0.7500 0.8559(2)
H5_2 H 0.2340 0.7500 0.7580
F5_2 F 0.5000 0.93417(6) 0.53071(19)
F6_3 F 0.61365(8) 1.0000 0.5000
N3_2 N 0.24523(8) 0.56211(5) 0.65845(13)
C15_2 C 0.17867(11) 0.59747(6) 0.65607(19)
H11_2 H 0.1323 0.5919 0.5931
C16_2 C 0.17608(12) 0.64189(6) 0.74343(19)
H12_2 H 0.1288 0.6657 0.7383
C17_2 C 0.24400(11) 0.65101(6) 0.83893(15)
C18_2 C 0.31163(12) 0.61353(7) 0.84269(19)
H13_2 H 0.3577 0.6175 0.9070
C19_2 C 0.31047(11) 0.57023(6) 0.75064(18)
H14_2 H 0.3570 0.5459 0.7532
C20_2 C 0.24562(11) 0.70090(6) 0.92592(17)
F7_3 F 0.11365(8) 1.0000 0.5000
C1_3 C 0.17867(11) 0.09747(6) 0.34393(19)
H1_3 H 0.1323 0.0919 0.4069
C2_3 C 0.17608(12) 0.14189(6) 0.25657(19)
H2_3 H 0.1288 0.1657 0.2617
C3_3 C 0.24400(11) 0.15101(6) 0.16107(15)
C4_3 C 0.31163(12) 0.11353(7) 0.15731(19)
H3_3 H 0.3577 0.1175 0.0930
C5_3 C 0.31047(11) 0.07023(6) 0.24936(18)
H4_3 H 0.3570 0.0459 0.2468
C6_3 C 0.24562(11) 0.20090(6) 0.07408(17)
C7_3 C 0.24076(16) 0.2500 0.1441(2)
H5_3 H 0.2340 0.2500 0.2420
N3_3 N 0.24523(8) 0.43789(5) 0.34155(13)
C15_3 C 0.17867(11) 0.40253(6) 0.34393(19)
H11_3 H 0.1323 0.4081 0.4069
C16_3 C 0.17608(12) 0.35811(6) 0.25657(19)
H12_3 H 0.1288 0.3343 0.2617
C17_3 C 0.24400(11) 0.34899(6) 0.16107(15)
C18_3 C 0.31163(12) 0.38647(7) 0.15731(19)
H13_3 H 0.3577 0.3825 0.0930
C19_3 C 0.31047(11) 0.42977(6) 0.24936(18)
H14_3 H 0.3570 0.4541 0.2468
C20_3 C 0.24562(11) 0.29910(6) 0.07408(17)
C8_3 C 0.32133(11) 0.09747(6) 0.65607(19)
H6_3 H 0.3677 0.0919 0.5931
C9_3 C 0.32392(12) 0.14189(6) 0.74343(19)
H7_3 H 0.3712 0.1657 0.7383
C10_3 C 0.25600(11) 0.15101(6) 0.83893(15)
C11_3 C 0.18837(12) 0.11353(7) 0.84269(19)
H8_3 H 0.1423 0.1175 0.9070
C12_3 C 0.18953(11) 0.07023(6) 0.75064(18)
H9_3 H 0.1430 0.0459 0.7532
C13_3 C 0.25438(11) 0.20090(6) 0.92592(17)
C14_3 C 0.25924(16) 0.2500 0.8559(2)
H10_3 H 0.2660 0.2500 0.7580
N4_3 N 0.25477(8) 0.43789(5) 0.65845(13)
C21_3 C 0.32133(11) 0.40253(6) 0.65607(19)
H15_3 H 0.3677 0.4081 0.5931
C22_3 C 0.32392(12) 0.35811(6) 0.74343(19)
H16_3 H 0.3712 0.3343 0.7383
C23_3 C 0.25600(11) 0.34899(6) 0.83893(15)
C24_3 C 0.18837(12) 0.38647(7) 0.84269(19)
H17_3 H 0.1423 0.3825 0.9070
C25_3 C 0.18953(11) 0.42977(6) 0.75064(18)
H18_3 H 0.1430 0.4541 0.7532
C26_3 C 0.25438(11) 0.29910(6) 0.92592(17)
C1_4 C 0.82133(11) 0.40253(6) 0.34393(19)
H1_4 H 0.8677 0.4081 0.4069
C2_4 C 0.82392(12) 0.35811(6) 0.25657(19)
H2_4 H 0.8712 0.3343 0.2617
C3_4 C 0.75600(11) 0.34899(6) 0.16107(15)
C4_4 C 0.68837(12) 0.38647(7) 0.15731(19)
H3_4 H 0.6423 0.3825 0.0930
C5_4 C 0.68953(11) 0.42977(6) 0.24936(18)
H4_4 H 0.6430 0.4541 0.2468
C6_4 C 0.75438(11) 0.29910(6) 0.07408(17)
C7_4 C 0.75924(16) 0.2500 0.1441(2)
H5_4 H 0.7660 0.2500 0.2420
N3_4 N 0.75477(8) 0.06211(5) 0.34155(13)
C15_4 C 0.82133(11) 0.09747(6) 0.34393(19)
H11_4 H 0.8677 0.0919 0.4069
C16_4 C 0.82392(12) 0.14189(6) 0.25657(19)
H12_4 H 0.8712 0.1657 0.2617
C17_4 C 0.75600(11) 0.15101(6) 0.16107(15)
C18_4 C 0.68837(12) 0.11353(7) 0.15731(19)
H13_4 H 0.6423 0.1175 0.0930
C19_4 C 0.68953(11) 0.07023(6) 0.24936(18)
H14_4 H 0.6430 0.0459 0.2468
C20_4 C 0.75438(11) 0.20090(6) 0.07408(17)
C8_4 C 0.67867(11) 0.40253(6) 0.65607(19)
H6_4 H 0.6323 0.4081 0.5931
C9_4 C 0.67608(12) 0.35811(6) 0.74343(19)
H7_4 H 0.6288 0.3343 0.7383
C10_4 C 0.74400(11) 0.34899(6) 0.83893(15)
C11_4 C 0.81163(12) 0.38647(7) 0.84269(19)
H8_4 H 0.8577 0.3825 0.9070
C12_4 C 0.81047(11) 0.42977(6) 0.75064(18)
H9_4 H 0.8570 0.4541 0.7532
C13_4 C 0.74562(11) 0.29910(6) 0.92592(17)
C14_4 C 0.74076(16) 0.2500 0.8559(2)
H10_4 H 0.7340 0.2500 0.7580
N4_4 N 0.74523(8) 0.06211(5) 0.65845(13)
C21_4 C 0.67867(11) 0.09747(6) 0.65607(19)
H15_4 H 0.6323 0.0919 0.5931
C22_4 C 0.67608(12) 0.14189(6) 0.74343(19)
H16_4 H 0.6288 0.1657 0.7383
C23_4 C 0.74400(11) 0.15101(6) 0.83893(15)
C24_4 C 0.81163(12) 0.11353(7) 0.84269(19)
H17_4 H 0.8577 0.1175 0.9070
C25_4 C 0.81047(11) 0.07023(6) 0.75064(18)
H18_4 H 0.8570 0.0459 0.7532
C26_4 C 0.74562(11) 0.20090(6) 0.92592(17)
Si1_4 Si -0.0000 0.0000 0.5000
F2_3 F -0.0000 0.01190(7) 0.32736(16)
F5_3 F -0.0000 0.06583(6) 0.53071(19)
Si1_5 Si -0.0000 1.0000 0.5000
F3_3 F -0.0000 0.93417(6) 0.46929(19)
F4_3 F -0.0000 0.98810(7) 0.67264(16)
Si1_6 Si 1.0000 0.0000 0.5000
F2_4 F 1.0000 0.01190(7) 0.32736(16)
F5_4 F 1.0000 0.06583(6) 0.53071(19)
F6_4 F 0.88635(8) 0.0000 0.5000
Si1_7 Si 1.0000 1.0000 0.5000
F3_4 F 1.0000 0.93417(6) 0.46929(19)
F4_4 F 1.0000 0.98810(7) 0.67264(16)
F6_5 F 0.88635(8) 1.0000 0.5000
Si1_8 Si 0.0000 0.5000 0.5000
F2_5 F 0.0000 0.48810(7) 0.32736(16)
F3_5 F 0.0000 0.56583(6) 0.46929(19)
F4_5 F 0.0000 0.51190(7) 0.67264(16)
F5_5 F 0.0000 0.43417(6) 0.53071(19)
F6_6 F 0.11365(8) 0.5000 0.5000
Si1_9 Si 1.0000 0.5000 0.5000
F2_6 F 1.0000 0.48810(7) 0.32736(16)
F3_6 F 1.0000 0.56583(6) 0.46929(19)
F4_6 F 1.0000 0.51190(7) 0.67264(16)
F5_6 F 1.0000 0.43417(6) 0.53071(19)
loop_
_geom_bond_atom_site_label_1
_geom_bond_atom_site_label_2
_geom_bond_site_symmetry_1
_geom_bond_site_symmetry_2
N2 C8 1_555 1_555
C8 H6 1_555 1_555
C9 C8 1_555 1_555
H7 C9 1_555 1_555
C10 C9 1_555 1_555
C11 C10 1_555 1_555
H8 C11 1_555 1_555
C12 N2 1_555 1_555
H9 C12 1_555 1_555
C14 C13 1_555 1_555
H10 C14 1_555 1_555
N4 C21 1_555 1_555
C21 H15 1_555 1_555
C22 C21 1_555 1_555
H16 C22 1_555 1_555
C23 C22 1_555 1_555
C24 C23 1_555 1_555
H17 C24 1_555 1_555
C25 N4 1_555 1_555
H18 C25 1_555 1_555
C26 C14 1_555 1_555
Zn2 N2 1_555 1_555
Zn5_2 N4 1_555 1_555
C10 C13 1_555 1_555
C11 C12 1_555 1_555
C23 C26 1_555 1_555
C24 C25 1_555 1_555
Zn2 F1 1_555 1_555
Si1 F1 1_555 1_555
F2 Si1 1_555 1_555
F3 Si1 1_555 1_555
N1 Zn2 1_555 1_555
C1 N1 1_555 1_555
H1 C1 1_555 1_555
C2 C1 1_555 1_555
H2 C2 1_555 1_555
C3 C2 1_555 1_555
C4 C3 1_555 1_555
H3 C4 1_555 1_555
C5 N1 1_555 1_555
H4 C5 1_555 1_555
C6 C3 1_555 1_555
C7 C6 1_555 1_555
H5 C7 1_555 1_555
F4 Si1 1_555 1_555
F5 Si1 1_555 1_555
F6 Si1 1_555 1_555
N3 C15 1_555 1_555
C15 H11 1_555 1_555
C16 C15 1_555 1_555
H12 C16 1_555 1_555
C17 C16 1_555 1_555
C18 C17 1_555 1_555
H13 C18 1_555 1_555
C19 N3 1_555 1_555
H14 C19 1_555 1_555
C20 C7 1_555 1_555
Zn3 F6 1_555 1_555
Zn5_2 N3 1_555 1_555
F7 Zn2 1_555 1_555
N5 Zn2 1_555 1_555
N6 Zn2 1_555 1_555
C4 C5 1_555 1_555
C17 C20 1_555 1_555
C18 C19 1_555 1_555
Zn2_2 F1_2 1_555 1_555
Si1_2 F1_2 1_555 1_555
F3_2 Si1_2 1_555 1_555
F4_2 Si1_2 1_555 1_555
F6_2 Si1_2 1_555 1_555
Zn5 F6_2 1_555 1_555
F7_2 Zn2_2 1_555 1_555
N5_2 Zn2_2 1_555 1_555
N6_2 Zn2_2 1_555 1_555
N2_2 C8_2 1_555 1_555
C8_2 H6_2 1_555 1_555
C9_2 C8_2 1_555 1_555
H7_2 C9_2 1_555 1_555
C10_2 C9_2 1_555 1_555
C11_2 C10_2 1_555 1_555
H8_2 C11_2 1_555 1_555
C12_2 N2_2 1_555 1_555
H9_2 C12_2 1_555 1_555
C14_2 C13_2 1_555 1_555
H10_2 C14_2 1_555 1_555
N4_2 C21_2 1_555 1_555
C21_2 H15_2 1_555 1_555
C22_2 C21_2 1_555 1_555
H16_2 C22_2 1_555 1_555
C23_2 C22_2 1_555 1_555
C24_2 C23_2 1_555 1_555
H17_2 C24_2 1_555 1_555
C25_2 N4_2 1_555 1_555
H18_2 C25_2 1_555 1_555
C26_2 C14_2 1_555 1_555
Zn2_3 N2_2 1_555 1_555
Zn3 N4_2 1_555 1_555
C10_2 C13_2 1_555 1_555
C11_2 C12_2 1_555 1_555
C23_2 C26_2 1_555 1_555
C24_2 C25_2 1_555 1_555
Zn2_3 F1_3 1_555 1_555
Si1_3 F1_3 1_555 1_555
F2_2 Si1_3 1_555 1_555
N1_2 Zn2_3 1_555 1_555
C1_2 N1_2 1_555 1_555
H1_2 C1_2 1_555 1_555
C2_2 C1_2 1_555 1_555
H2_2 C2_2 1_555 1_555
C3_2 C2_2 1_555 1_555
C4_2 C3_2 1_555 1_555
H3_2 C4_2 1_555 1_555
C5_2 N1_2 1_555 1_555
H4_2 C5_2 1_555 1_555
C6_2 C3_2 1_555 1_555
C7_2 C6_2 1_555 1_555
H5_2 C7_2 1_555 1_555
F5_2 Si1_3 1_555 1_555
F6_3 Si1_3 1_555 1_555
N3_2 C15_2 1_555 1_555
C15_2 H11_2 1_555 1_555
C16_2 C15_2 1_555 1_555
H12_2 C16_2 1_555 1_555
C17_2 C16_2 1_555 1_555
C18_2 C17_2 1_555 1_555
H13_2 C18_2 1_555 1_555
C19_2 N3_2 1_555 1_555
H14_2 C19_2 1_555 1_555
C20_2 C7_2 1_555 1_555
Zn5_2 F6_3 1_555 1_555
Zn3 N3_2 1_555 1_555
F7_3 Zn2_3 1_555 1_555
C4_2 C5_2 1_555 1_555
C17_2 C20_2 1_555 1_555
C18_2 C19_2 1_555 1_555
C1_3 N5_2 1_555 1_555
H1_3 C1_3 1_555 1_555
C2_3 C1_3 1_555 1_555
H2_3 C2_3 1_555 1_555
C3_3 C2_3 1_555 1_555
C4_3 C3_3 1_555 1_555
H3_3 C4_3 1_555 1_555
C5_3 N5_2 1_555 1_555
H4_3 C5_3 1_555 1_555
C6_3 C3_3 1_555 1_555
C7_3 C6_3 1_555 1_555
H5_3 C7_3 1_555 1_555
N3_3 C15_3 1_555 1_555
C15_3 H11_3 1_555 1_555
C16_3 C15_3 1_555 1_555
H12_3 C16_3 1_555 1_555
C17_3 C16_3 1_555 1_555
C18_3 C17_3 1_555 1_555
H13_3 C18_3 1_555 1_555
C19_3 N3_3 1_555 1_555
H14_3 C19_3 1_555 1_555
C20_3 C7_3 1_555 1_555
Zn3 N3_3 1_555 1_555
C4_3 C5_3 1_555 1_555
C17_3 C20_3 1_555 1_555
C18_3 C19_3 1_555 1_555
N6_2 C8_3 1_555 1_555
C8_3 H6_3 1_555 1_555
C9_3 C8_3 1_555 1_555
H7_3 C9_3 1_555 1_555
C10_3 C9_3 1_555 1_555
C11_3 C10_3 1_555 1_555
H8_3 C11_3 1_555 1_555
C12_3 N6_2 1_555 1_555
H9_3 C12_3 1_555 1_555
C14_3 C13_3 1_555 1_555
H10_3 C14_3 1_555 1_555
N4_3 C21_3 1_555 1_555
C21_3 H15_3 1_555 1_555
C22_3 C21_3 1_555 1_555
H16_3 C22_3 1_555 1_555
C23_3 C22_3 1_555 1_555
C24_3 C23_3 1_555 1_555
H17_3 C24_3 1_555 1_555
C25_3 N4_3 1_555 1_555
H18_3 C25_3 1_555 1_555
C26_3 C14_3 1_555 1_555
Zn3 N4_3 1_555 1_555
C10_3 C13_3 1_555 1_555
C11_3 C12_3 1_555 1_555
C23_3 C26_3 1_555 1_555
C24_3 C25_3 1_555 1_555
C1_4 N5 1_555 1_555
H1_4 C1_4 1_555 1_555
C2_4 C1_4 1_555 1_555
H2_4 C2_4 1_555 1_555
C3_4 C2_4 1_555 1_555
C4_4 C3_4 1_555 1_555
H3_4 C4_4 1_555 1_555
C5_4 N5 1_555 1_555
H4_4 C5_4 1_555 1_555
C6_4 C3_4 1_555 1_555
C7_4 C6_4 1_555 1_555
H5_4 C7_4 1_555 1_555
N3_4 C15_4 1_555 1_555
C15_4 H11_4 1_555 1_555
C16_4 C15_4 1_555 1_555
H12_4 C16_4 1_555 1_555
C17_4 C16_4 1_555 1_555
C18_4 C17_4 1_555 1_555
H13_4 C18_4 1_555 1_555
C19_4 N3_4 1_555 1_555
H14_4 C19_4 1_555 1_555
C20_4 C7_4 1_555 1_555
Zn5 N3_4 1_555 1_555
C4_4 C5_4 1_555 1_555
C17_4 C20_4 1_555 1_555
C18_4 C19_4 1_555 1_555
N6 C8_4 1_555 1_555
C8_4 H6_4 1_555 1_555
C9_4 C8_4 1_555 1_555
H7_4 C9_4 1_555 1_555
C10_4 C9_4 1_555 1_555
C11_4 C10_4 1_555 1_555
H8_4 C11_4 1_555 1_555
C12_4 N6 1_555 1_555
H9_4 C12_4 1_555 1_555
C14_4 C13_4 1_555 1_555
H10_4 C14_4 1_555 1_555
N4_4 C21_4 1_555 1_555
C21_4 H15_4 1_555 1_555
C22_4 C21_4 1_555 1_555
H16_4 C22_4 1_555 1_555
C23_4 C22_4 1_555 1_555
C24_4 C23_4 1_555 1_555
H17_4 C24_4 1_555 1_555
C25_4 N4_4 1_555 1_555
H18_4 C25_4 1_555 1_555
C26_4 C14_4 1_555 1_555
Zn5 N4_4 1_555 1_555
C10_4 C13_4 1_555 1_555
C11_4 C12_4 1_555 1_555
C23_4 C26_4 1_555 1_555
C24_4 C25_4 1_555 1_555
Si1_4 F7_2 1_555 1_555
F2_3 Si1_4 1_555 1_555
F5_3 Si1_4 1_555 1_555
Si1_5 F7_3 1_555 1_555
F3_3 Si1_5 1_555 1_555
F4_3 Si1_5 1_555 1_555
F2_4 Si1_6 1_555 1_555
F5_4 Si1_6 1_555 1_555
F6_4 Si1_6 1_555 1_555
Zn5 F6_4 1_555 1_555
F3_4 Si1_7 1_555 1_555
F4_4 Si1_7 1_555 1_555
F6_5 Si1_7 1_555 1_555
Zn5_2 F6_5 1_555 1_555
F2_5 Si1_8 1_555 1_555
F3_5 Si1_8 1_555 1_555
F4_5 Si1_8 1_555 1_555
F5_5 Si1_8 1_555 1_555
F6_6 Si1_8 1_555 1_555
Zn3 F6_6 1_555 1_555
Si1_9 F7 1_555 1_555
F2_6 Si1_9 1_555 1_555
F3_6 Si1_9 1_555 1_555
F4_6 Si1_9 1_555 1_555
F5_6 Si1_9 1_555 1_555

#END
