
###############################################################################
#
# This file contains modified crystal structure data generated from the
# MOF subset of the Cambridge Structural Database (CSD) v543 
# hosted by the Cambridge Crystallographic Data Centre (CCDC).
#
# This work is licensed under the Creative Commons
# Attribution-NonCommercial-ShareAlike 4.0 International License.
# To view a copy of this license, visit
# http://creativecommons.org/licenses/by-nc-sa/4.0/
# or send a letter to
# Creative Commons, PO Box 1866, Mountain View, CA 94042, USA.
#
# CIF created using the CSD Python API on 29 September 2022
# The structure has been converted into the P1 space group
# The structure has a 3D framework
# The original CSD entry FAWSII is in the hexagonal crystal system
# The original CSD entry FAWSII is in a Sohncke space group
# The framework has been calculated to contain at least 10.0% void space
# The void calculation uses a probe of radius 1.32A, grid spacing 0.4
#
###############################################################################

data_FAWSII
_chemical_formula_moiety         '(C96 H66 Co6 N48 O29)n'
_symmetry_cell_setting           triclinic
_symmetry_space_group_name_H-M   'P 1'
_symmetry_Int_Tables_number      1
_space_group_name_Hall           'P 1'
loop_
_symmetry_equiv_pos_site_id
_symmetry_equiv_pos_as_xyz
1 x,y,z
_cell_length_a                   16.140(2)
_cell_length_b                   16.140(2)
_cell_length_c                   16.758(2)
_cell_angle_alpha                90
_cell_angle_beta                 90
_cell_angle_gamma                120
_cell_volume                     3780.59
loop_
_atom_site_label
_atom_site_type_symbol
_atom_site_fract_x
_atom_site_fract_y
_atom_site_fract_z
N4 N 0.0322(4) 0.8767(7) 0.3448(5)
C8 C 0.0338(5) 0.8919(6) 0.2660(6)
H6 H 0.0812 0.9026 0.2291
Co1 Co 0.62806(4) 0.04844(4) 0.14931(3)
O3 O 0.6349(3) 0.5611(3) 0.4152(2)
O4 O 0.5410(2) 0.4017(3) 0.4172(2)
O5 O 0.5000 -0.0000 0.2182(2)
N5 N 0.7087(3) 0.1665(3) 0.2257(3)
N6 N 0.8309(4) 0.2731(5) 0.2980(5)
N7 N 0.7607(3) 0.2961(4) 0.2927(4)
N8 N 0.8734(4) 0.5386(5) 0.3730(7)
C9 C 0.7972(5) 0.1963(6) 0.2514(5)
H7 H 0.8319 0.1664 0.2381
C10 C 0.6908(4) 0.2328(4) 0.2472(3)
H8 H 0.6366 0.2356 0.2328
C11 C 0.7700(4) 0.3782(5) 0.3303(5)
C12 C 0.8596(5) 0.4555(6) 0.3423(7)
H9 H 0.9127 0.4503 0.3287
C13 C 0.6901(4) 0.3833(5) 0.3509(4)
H10 H 0.6289 0.3313 0.3435
C14 C 0.7036(4) 0.4676(5) 0.3827(4)
C15 C 0.7949(5) 0.5430(6) 0.3911(7)
H11 H 0.8027 0.6005 0.4105
C16 C 0.6195(4) 0.4794(4) 0.4070(3)
H12 H 0.5045 0.0492 0.2433
O6 O 0.3280(2) 0.0273(2) 0.2218(2)
O7 O 0.4615(2) 0.1195(3) 0.2899(2)
N9 N 0.3372(3) 0.2498(3) 0.4093(2)
N10 N 0.1002(3) 0.1381(4) 0.3186(3)
N11 N 0.0502(4) 0.1121(5) 0.2539(3)
C17 C 0.3766(3) 0.0915(3) 0.2706(3)
C18 C 0.3287(3) 0.1390(3) 0.3099(3)
C19 C 0.2353(3) 0.1133(3) 0.2932(3)
H13 H 0.2004 0.0675 0.2547
C20 C 0.3768(3) 0.2076(3) 0.3696(3)
H14 H 0.4395 0.2242 0.3817
C21 C 0.1948(3) 0.1584(4) 0.3359(3)
C22 C 0.2474(3) 0.2258(4) 0.3919(3)
H15 H 0.2195 0.2560 0.4189
C23 C 0.0439(5) 0.1434(7) 0.3790(5)
H16 H 0.0596 0.1585 0.4325
Co4 Co 0.42038(6) 0.37194(4) 0.48264(3)
Co6 Co 0.57962(6) 0.62806(4) 0.48264(3)
O10 O 0.4389(3) 0.0738(4) 0.0819(2)
O12 O 0.5983(3) 0.1393(4) 0.0839(2)
N18 N 0.7502(3) 0.0874(4) 0.0760(2)
O1 O 0.6720(2) 0.9727(2) 0.2218(2)
O2 O 0.5385(2) 0.8805(3) 0.2899(2)
O5_2 O 0.5000 1.0000 0.2182(2)
H1 H 0.4955 0.9508 0.2433
N1 N 0.6628(3) 0.7502(3) 0.4093(2)
N2 N 0.8998(3) 0.8619(4) 0.3186(3)
N3 N 0.9498(4) 0.8879(5) 0.2539(3)
C1 C 0.6234(3) 0.9085(3) 0.2706(3)
C2 C 0.6713(3) 0.8610(3) 0.3099(3)
C3 C 0.7647(3) 0.8867(3) 0.2932(3)
H2 H 0.7996 0.9325 0.2547
C4 C 0.6232(3) 0.7924(3) 0.3696(3)
H3 H 0.5605 0.7758 0.3817
C5 C 0.8052(3) 0.8416(4) 0.3359(3)
C6 C 0.7526(3) 0.7742(4) 0.3919(3)
H4 H 0.7805 0.7440 0.4189
C7 C 0.9561(5) 0.8566(7) 0.3790(5)
H5 H 0.9404 0.8415 0.4325
Co2 Co 0.37194(4) 0.95156(4) 0.14931(3)
O8 O 0.3651(3) 0.4389(3) 0.4152(2)
O9 O 0.4590(2) 0.5983(3) 0.4172(2)
N13 N 0.2913(3) 0.8335(3) 0.2257(3)
N14 N 0.1691(4) 0.7269(5) 0.2980(5)
N15 N 0.2393(3) 0.7039(4) 0.2927(4)
N16 N 0.1266(4) 0.4614(5) 0.3730(7)
C25 C 0.2028(5) 0.8037(6) 0.2514(5)
H18 H 0.1681 0.8336 0.2381
C26 C 0.3092(4) 0.7672(4) 0.2472(3)
H19 H 0.3634 0.7644 0.2328
C27 C 0.2300(4) 0.6218(5) 0.3303(5)
C28 C 0.1404(5) 0.5445(6) 0.3423(7)
H20 H 0.0873 0.5497 0.3287
C29 C 0.3099(4) 0.6167(5) 0.3509(4)
H21 H 0.3711 0.6687 0.3435
C30 C 0.2964(4) 0.5324(5) 0.3827(4)
C31 C 0.2051(5) 0.4570(6) 0.3911(7)
H22 H 0.1973 0.3995 0.4105
C32 C 0.3805(4) 0.5206(4) 0.4070(3)
O11 O 0.5611(3) 0.9262(4) 0.0819(2)
O13 O 0.4017(3) 0.8607(4) 0.0839(2)
N17 N 0.2498(3) 0.9126(4) 0.0760(2)
N4_2 N 0.1233(7) 0.1555(8) 0.0115(5)
H4_2 H 0.2560 0.0365 0.0856
C7_2 C 0.1434(7) 0.0995(9) 0.0457(5)
H5_2 H 0.1585 0.0989 0.0992
C4_2 C 0.2076(3) 0.8308(4) 0.0363(3)
H3_2 H 0.2242 0.7847 0.0484
C5_2 C 0.1584(4) 0.9636(5) 0.0026(3)
C6_2 C 0.2258(4) 0.9784(5) 0.0586(3)
N16_2 N 0.5386(5) 0.6652(6) 0.0397(7)
C28_2 C 0.4555(6) 0.5959(8) 0.0090(7)
C29_2 C 0.3833(5) 0.6932(6) 0.0176(4)
H21_2 H 0.3313 0.7024 0.0102
C30_2 C 0.4676(5) 0.7640(6) 0.0494(4)
C31_2 C 0.5430(6) 0.7481(8) 0.0578(7)
H22_2 H 0.6005 0.7978 0.0772
C32_2 C 0.4794(4) 0.8599(6) 0.0737(3)
O1_2 O 0.0273(2) 0.6993(3) 0.8885(2)
O2_2 O 0.1195(3) 0.6580(4) 0.9566(2)
O5_3 O -0.0000 0.5000 0.8849(2)
H1_2 H 0.0492 0.5447 0.9100
C1_2 C 0.0915(3) 0.7149(4) 0.9373(3)
C2_2 C 0.1390(3) 0.8103(4) 0.9766(3)
C3_2 C 0.1133(3) 0.8780(4) 0.9599(3)
H2_2 H 0.0675 0.8671 0.9214
Co2_2 Co 0.04844(4) 0.42038(6) 0.81598(3)
N13_2 N 0.1665(3) 0.4578(4) 0.8924(3)
N14_2 N 0.2731(5) 0.4422(6) 0.9647(5)
N15_2 N 0.2961(4) 0.5354(5) 0.9594(4)
C25_2 C 0.1963(6) 0.3991(8) 0.9181(5)
H18_2 H 0.1664 0.3345 0.9048
C26_2 C 0.2328(4) 0.5420(6) 0.9139(3)
H19_2 H 0.2356 0.5990 0.8995
C27_2 C 0.3782(5) 0.6082(6) 0.9970(5)
H20_2 H 0.4503 0.5376 0.9954
O11_2 O 0.0738(4) 0.6349(5) 0.7485(2)
O13_2 O 0.1393(4) 0.5410(5) 0.7505(2)
N17_2 N 0.0874(4) 0.3372(5) 0.7426(2)
N8_2 N 0.4614(5) 0.3348(6) 0.0397(7)
C12_2 C 0.5445(6) 0.4041(8) 0.0090(7)
C13_2 C 0.6167(5) 0.3068(6) 0.0176(4)
H10_2 H 0.6687 0.2976 0.0102
C14_2 C 0.5324(5) 0.2360(6) 0.0494(4)
C15_2 C 0.4570(6) 0.2519(8) 0.0578(7)
H11_2 H 0.3995 0.2022 0.0772
C16_2 C 0.5206(4) 0.1401(6) 0.0737(3)
C20_2 C 0.7924(3) 0.1692(4) 0.0363(3)
H14_2 H 0.7758 0.2153 0.0484
C21_2 C 0.8416(4) 0.0364(5) 0.0026(3)
C22_2 C 0.7742(4) 0.0216(5) 0.0586(3)
Co1_2 Co 0.95156(4) 0.57962(6) 0.81598(3)
O5_4 O 1.0000 0.5000 0.8849(2)
N5_2 N 0.8335(3) 0.5422(4) 0.8924(3)
N6_2 N 0.7269(5) 0.5578(6) 0.9647(5)
N7_2 N 0.7039(4) 0.4646(5) 0.9594(4)
C9_2 C 0.8037(6) 0.6009(8) 0.9181(5)
H7_2 H 0.8336 0.6655 0.9048
C10_2 C 0.7672(4) 0.4580(6) 0.9139(3)
H8_2 H 0.7644 0.4010 0.8995
C11_2 C 0.6218(5) 0.3918(6) 0.9970(5)
H9_2 H 0.5497 0.4624 0.9954
H12_2 H 0.9508 0.4553 0.9100
O6_2 O 0.9727(2) 0.3007(3) 0.8885(2)
O7_2 O 0.8805(3) 0.3420(4) 0.9566(2)
C17_2 C 0.9085(3) 0.2851(4) 0.9373(3)
C18_2 C 0.8610(3) 0.1897(4) 0.9766(3)
C19_2 C 0.8867(3) 0.1220(4) 0.9599(3)
H13_2 H 0.9325 0.1329 0.9214
O10_2 O 0.9262(4) 0.3651(5) 0.7485(2)
O12_2 O 0.8607(4) 0.4590(5) 0.7505(2)
N18_2 N 0.9126(4) 0.6628(5) 0.7426(2)
N12 N 0.8767(7) 0.8445(8) 0.0115(5)
H15_2 H 0.7440 0.9635 0.0856
C23_2 C 0.8566(7) 0.9005(9) 0.0457(5)
H16_2 H 0.8415 0.9011 0.0992
N10_2 N 0.0379(5) 0.8998(3) 0.6519(3)
N11_2 N 0.0619(6) 0.9498(4) 0.5872(3)
H15_3 H 0.0365 0.7805 0.7522
C23_3 C 0.0995(9) 0.9561(5) 0.7123(5)
H16_3 H 0.0989 0.9404 0.7658
O1_3 O 0.3007(3) 0.3280(2) 0.5551(2)
O2_3 O 0.3420(4) 0.4615(2) 0.6232(2)
O5_5 O 0.5000 0.5000 0.5515(2)
H1_3 H 0.4553 0.5045 0.5766
N5_3 N 0.4578(4) 0.2913(3) 0.5590(3)
N6_3 N 0.4422(6) 0.1691(4) 0.6313(5)
N7_3 N 0.5354(5) 0.2393(3) 0.6260(4)
N8_3 N 0.6652(6) 0.1266(4) 0.7063(7)
C1_3 C 0.2851(4) 0.3766(3) 0.6039(3)
C2_3 C 0.1897(4) 0.3287(3) 0.6432(3)
C3_3 C 0.1220(4) 0.2353(3) 0.6265(3)
H2_3 H 0.1329 0.2004 0.5880
C4_3 C 0.1692(4) 0.3768(3) 0.7029(3)
H3_3 H 0.2153 0.4395 0.7150
C5_3 C 0.0364(5) 0.1948(3) 0.6692(3)
C6_3 C 0.0216(5) 0.2474(3) 0.7252(3)
C9_3 C 0.3991(8) 0.2028(5) 0.5847(5)
H7_3 H 0.3345 0.1681 0.5714
C10_3 C 0.5420(6) 0.3092(4) 0.5805(3)
H8_3 H 0.5990 0.3634 0.5661
C11_3 C 0.6082(6) 0.2300(4) 0.6636(5)
C12_3 C 0.5959(8) 0.1404(5) 0.6756(7)
H9_3 H 0.5376 0.0873 0.6620
C13_3 C 0.6932(6) 0.3099(4) 0.6842(4)
H10_3 H 0.7024 0.3711 0.6768
C14_3 C 0.7640(6) 0.2964(4) 0.7160(4)
C15_3 C 0.7481(8) 0.2051(5) 0.7244(7)
H11_3 H 0.7978 0.1973 0.7438
C16_3 C 0.8599(6) 0.3805(4) 0.7403(3)
H12_3 H 0.5447 0.4955 0.5766
O6_3 O 0.6993(3) 0.6720(2) 0.5551(2)
O7_3 O 0.6580(4) 0.5385(2) 0.6232(2)
N13_3 N 0.5422(4) 0.7087(3) 0.5590(3)
N14_3 N 0.5578(6) 0.8309(4) 0.6313(5)
N15_3 N 0.4646(5) 0.7607(3) 0.6260(4)
N16_3 N 0.3348(6) 0.8734(4) 0.7063(7)
C17_3 C 0.7149(4) 0.6234(3) 0.6039(3)
C18_3 C 0.8103(4) 0.6713(3) 0.6432(3)
C19_3 C 0.8780(4) 0.7647(3) 0.6265(3)
H13_3 H 0.8671 0.7996 0.5880
C20_3 C 0.8308(4) 0.6232(3) 0.7029(3)
H14_3 H 0.7847 0.5605 0.7150
C21_3 C 0.9636(5) 0.8052(3) 0.6692(3)
C22_3 C 0.9784(5) 0.7526(3) 0.7252(3)
C25_3 C 0.6009(8) 0.7972(5) 0.5847(5)
H18_3 H 0.6655 0.8319 0.5714
C26_3 C 0.4580(6) 0.6908(4) 0.5805(3)
H19_3 H 0.4010 0.6366 0.5661
C27_3 C 0.3918(6) 0.7700(4) 0.6636(5)
C28_3 C 0.4041(8) 0.8596(5) 0.6756(7)
H20_3 H 0.4624 0.9127 0.6620
C29_3 C 0.3068(6) 0.6901(4) 0.6842(4)
H21_3 H 0.2976 0.6289 0.6768
C30_3 C 0.2360(6) 0.7036(4) 0.7160(4)
C31_3 C 0.2519(8) 0.7949(5) 0.7244(7)
H22_3 H 0.2022 0.8027 0.7438
C32_3 C 0.1401(6) 0.6195(4) 0.7403(3)
N2_2 N 0.9621(5) 0.1002(3) 0.6519(3)
N3_2 N 0.9381(6) 0.0502(4) 0.5872(3)
H4_3 H 0.9635 0.2195 0.7522
C7_3 C 0.9005(9) 0.0439(5) 0.7123(5)
H5_3 H 0.9011 0.0596 0.7658
N12_2 N 0.9678(4) 0.1233(7) 0.3448(5)
C24 C 0.9662(5) 0.1081(6) 0.2660(6)
H17 H 0.9188 0.0974 0.2291
N2_3 N 0.1381(4) 0.0379(5) 0.9853(3)
N3_3 N 0.1121(5) 0.0619(6) 0.9206(3)
C8_2 C 0.1081(6) 0.1419(8) 0.9327(6)
H6_2 H 0.0974 0.1786 0.8958
N10_3 N 0.8619(4) 0.9621(5) 0.9853(3)
N11_3 N 0.8879(5) 0.9381(6) 0.9206(3)
C24_2 C 0.8919(6) 0.8581(8) 0.9327(6)
H17_2 H 0.9026 0.8214 0.8958
N12_3 N 0.1555(8) 0.0322(4) 0.6781(5)
C24_3 C 0.1419(8) 0.0338(5) 0.5993(6)
H17_3 H 0.1786 0.0812 0.5624
N4_3 N 0.8445(8) 0.9678(4) 0.6781(5)
C8_3 C 0.8581(8) 0.9662(5) 0.5993(6)
H6_3 H 0.8214 0.9188 0.5624
loop_
_geom_bond_atom_site_label_1
_geom_bond_atom_site_label_2
_geom_bond_site_symmetry_1
_geom_bond_site_symmetry_2
C8 N4 1_555 1_555
H6 C8 1_555 1_555
O3 C16 1_555 1_555
O4 C16 1_555 1_555
O5 Co1 1_555 1_555
N5 Co1 1_555 1_555
N6 N7 1_555 1_555
N7 C10 1_555 1_555
N8 C12 1_555 1_555
C9 N5 1_555 1_555
H7 C9 1_555 1_555
C10 N5 1_555 1_555
H8 C10 1_555 1_555
C11 N7 1_555 1_555
C12 C11 1_555 1_555
H9 C12 1_555 1_555
C13 C11 1_555 1_555
H10 C13 1_555 1_555
C14 C13 1_555 1_555
C15 N8 1_555 1_555
H11 C15 1_555 1_555
C16 C14 1_555 1_555
H12 O5 1_555 1_555
O7 C17 1_555 1_555
N9 C20 1_555 1_555
N10 N11 1_555 1_555
C17 O6 1_555 1_555
C18 C17 1_555 1_555
C19 C18 1_555 1_555
H13 C19 1_555 1_555
C20 C18 1_555 1_555
H14 C20 1_555 1_555
C21 N10 1_555 1_555
C22 N9 1_555 1_555
H15 C22 1_555 1_555
C23 N10 1_555 1_555
H16 C23 1_555 1_555
Co4 O4 1_555 1_555
Co6 O3 1_555 1_555
O12 Co1 1_555 1_555
N18 Co1 1_555 1_555
N6 C9 1_555 1_555
C14 C15 1_555 1_555
N9 Co4 1_555 1_555
C19 C21 1_555 1_555
C21 C22 1_555 1_555
O1 C1 1_555 1_555
O2 C1 1_555 1_555
H1 O5_2 1_555 1_555
N1 C4 1_555 1_555
N2 N3 1_555 1_555
C1 C2 1_555 1_555
C2 C3 1_555 1_555
C3 H2 1_555 1_555
C4 C2 1_555 1_555
H3 C4 1_555 1_555
C5 N2 1_555 1_555
C6 N1 1_555 1_555
H4 C6 1_555 1_555
C7 N2 1_555 1_555
H5 C7 1_555 1_555
Co2 O5_2 1_555 1_555
O8 C32 1_555 1_555
O9 C32 1_555 1_555
N13 Co2 1_555 1_555
N14 N15 1_555 1_555
N15 C26 1_555 1_555
N16 C28 1_555 1_555
C25 N13 1_555 1_555
H18 C25 1_555 1_555
C26 N13 1_555 1_555
H19 C26 1_555 1_555
C27 N15 1_555 1_555
C28 C27 1_555 1_555
H20 C28 1_555 1_555
C29 C27 1_555 1_555
H21 C29 1_555 1_555
C30 C29 1_555 1_555
C31 N16 1_555 1_555
H22 C31 1_555 1_555
C32 C30 1_555 1_555
Co4 O8 1_555 1_555
Co6 N1 1_555 1_555
O13 Co2 1_555 1_555
N17 Co2 1_555 1_555
C3 C5 1_555 1_555
C5 C6 1_555 1_555
O9 Co6 1_555 1_555
N14 C25 1_555 1_555
C30 C31 1_555 1_555
N4_2 C7_2 1_555 1_555
H5_2 C7_2 1_555 1_555
N17 C4_2 1_555 1_555
H3_2 C4_2 1_555 1_555
C6_2 N17 1_555 1_555
O11 C32_2 1_555 1_555
O13 C32_2 1_555 1_555
N16_2 C28_2 1_555 1_555
H21_2 C29_2 1_555 1_555
C30_2 C29_2 1_555 1_555
C31_2 N16_2 1_555 1_555
H22_2 C31_2 1_555 1_555
C32_2 C30_2 1_555 1_555
C5_2 C6_2 1_555 1_555
C30_2 C31_2 1_555 1_555
O1_2 C1_2 1_555 1_555
O2_2 C1_2 1_555 1_555
H1_2 O5_3 1_555 1_555
C1_2 C2_2 1_555 1_555
C2_2 C3_2 1_555 1_555
C3_2 H2_2 1_555 1_555
Co2_2 O5_3 1_555 1_555
N13_2 Co2_2 1_555 1_555
N14_2 N15_2 1_555 1_555
N15_2 C26_2 1_555 1_555
C25_2 N13_2 1_555 1_555
H18_2 C25_2 1_555 1_555
C26_2 N13_2 1_555 1_555
H19_2 C26_2 1_555 1_555
C27_2 N15_2 1_555 1_555
O13_2 Co2_2 1_555 1_555
N17_2 Co2_2 1_555 1_555
N14_2 C25_2 1_555 1_555
O10 C16_2 1_555 1_555
O12 C16_2 1_555 1_555
N8_2 C12_2 1_555 1_555
H10_2 C13_2 1_555 1_555
C14_2 C13_2 1_555 1_555
C15_2 N8_2 1_555 1_555
H11_2 C15_2 1_555 1_555
C16_2 C14_2 1_555 1_555
N18 C20_2 1_555 1_555
H14_2 C20_2 1_555 1_555
C22_2 N18 1_555 1_555
C14_2 C15_2 1_555 1_555
C21_2 C22_2 1_555 1_555
O5_4 Co1_2 1_555 1_555
N5_2 Co1_2 1_555 1_555
N6_2 N7_2 1_555 1_555
N7_2 C10_2 1_555 1_555
C9_2 N5_2 1_555 1_555
H7_2 C9_2 1_555 1_555
C10_2 N5_2 1_555 1_555
H8_2 C10_2 1_555 1_555
C11_2 N7_2 1_555 1_555
H12_2 O5_4 1_555 1_555
O7_2 C17_2 1_555 1_555
C17_2 O6_2 1_555 1_555
C18_2 C17_2 1_555 1_555
C19_2 C18_2 1_555 1_555
H13_2 C19_2 1_555 1_555
O12_2 Co1_2 1_555 1_555
N18_2 Co1_2 1_555 1_555
N6_2 C9_2 1_555 1_555
N12 C23_2 1_555 1_555
H16_2 C23_2 1_555 1_555
N10_2 N11_2 1_555 1_555
C23_3 N10_2 1_555 1_555
H16_3 C23_3 1_555 1_555
Co4 O1_3 1_555 1_555
O1_3 C1_3 1_555 1_555
O2_3 C1_3 1_555 1_555
O10_2 C16_3 1_555 1_555
O12_2 C16_3 1_555 1_555
O5_5 Co4 1_555 1_555
H1_3 O5_5 1_555 1_555
N17_2 C4_3 1_555 1_555
N5_3 Co4 1_555 1_555
N6_3 N7_3 1_555 1_555
N7_3 C10_3 1_555 1_555
N8_3 C12_3 1_555 1_555
C1_3 C2_3 1_555 1_555
C2_3 C3_3 1_555 1_555
C3_3 H2_3 1_555 1_555
C4_3 C2_3 1_555 1_555
H3_3 C4_3 1_555 1_555
C6_3 N17_2 1_555 1_555
C9_3 N5_3 1_555 1_555
H7_3 C9_3 1_555 1_555
C10_3 N5_3 1_555 1_555
H8_3 C10_3 1_555 1_555
C11_3 N7_3 1_555 1_555
C12_3 C11_3 1_555 1_555
H9_3 C12_3 1_555 1_555
C13_3 C11_3 1_555 1_555
H10_3 C13_3 1_555 1_555
C14_3 C13_3 1_555 1_555
C15_3 N8_3 1_555 1_555
H11_3 C15_3 1_555 1_555
C16_3 C14_3 1_555 1_555
H12_3 O5_5 1_555 1_555
Co6 O5_5 1_555 1_555
O6_3 Co6 1_555 1_555
O7_3 C17_3 1_555 1_555
O11_2 C32_3 1_555 1_555
O13_2 C32_3 1_555 1_555
N18_2 C20_3 1_555 1_555
N13_3 Co6 1_555 1_555
N14_3 N15_3 1_555 1_555
N15_3 C26_3 1_555 1_555
N16_3 C28_3 1_555 1_555
C17_3 O6_3 1_555 1_555
C18_3 C17_3 1_555 1_555
C19_3 C18_3 1_555 1_555
H13_3 C19_3 1_555 1_555
C20_3 C18_3 1_555 1_555
H14_3 C20_3 1_555 1_555
C22_3 N18_2 1_555 1_555
C25_3 N13_3 1_555 1_555
H18_3 C25_3 1_555 1_555
C26_3 N13_3 1_555 1_555
H19_3 C26_3 1_555 1_555
C27_3 N15_3 1_555 1_555
C28_3 C27_3 1_555 1_555
H20_3 C28_3 1_555 1_555
C29_3 C27_3 1_555 1_555
H21_3 C29_3 1_555 1_555
C30_3 C29_3 1_555 1_555
C31_3 N16_3 1_555 1_555
H22_3 C31_3 1_555 1_555
C32_3 C30_3 1_555 1_555
N6_3 C9_3 1_555 1_555
C3_3 C5_3 1_555 1_555
C5_3 C6_3 1_555 1_555
C14_3 C15_3 1_555 1_555
N14_3 C25_3 1_555 1_555
C19_3 C21_3 1_555 1_555
C21_3 C22_3 1_555 1_555
C30_3 C31_3 1_555 1_555
N2_2 N3_2 1_555 1_555
C7_3 N2_2 1_555 1_555
H5_3 C7_3 1_555 1_555
C24 N12_2 1_555 1_555
H17 C24 1_555 1_555
N2_3 N3_3 1_555 1_555
N3_3 C8_2 1_555 1_555
H6_2 C8_2 1_555 1_555
N10_3 N11_3 1_555 1_555
N11_3 C24_2 1_555 1_555
H17_2 C24_2 1_555 1_555
C24_3 N12_3 1_555 1_555
H17_3 C24_3 1_555 1_555
C8_3 N4_3 1_555 1_555
H6_3 C8_3 1_555 1_555

#END
