
###############################################################################
#
# This file contains modified crystal structure data generated from the
# MOF subset of the Cambridge Structural Database (CSD) v543 
# hosted by the Cambridge Crystallographic Data Centre (CCDC).
#
# This work is licensed under the Creative Commons
# Attribution-NonCommercial-ShareAlike 4.0 International License.
# To view a copy of this license, visit
# http://creativecommons.org/licenses/by-nc-sa/4.0/
# or send a letter to
# Creative Commons, PO Box 1866, Mountain View, CA 94042, USA.
#
# CIF created using the CSD Python API on 29 September 2022
# The structure has been converted into the P1 space group
# The structure has a 3D framework
# The original CSD entry FAXDAM is in the orthorhombic crystal system
# The framework has been calculated to contain at least 10.0% void space
# The void calculation uses a probe of radius 1.32A, grid spacing 0.4
#
###############################################################################

data_FAXDAM
_chemical_formula_moiety         '(C92 H72 N20 O34 Zn8)n'
_symmetry_cell_setting           triclinic
_symmetry_space_group_name_H-M   'P 1'
_symmetry_Int_Tables_number      1
_space_group_name_Hall           'P 1'
loop_
_symmetry_equiv_pos_site_id
_symmetry_equiv_pos_as_xyz
1 x,y,z
_cell_length_a                   13.8883(8)
_cell_length_b                   35.194(2)
_cell_length_c                   5.3727(3)
_cell_angle_alpha                90
_cell_angle_beta                 90
_cell_angle_gamma                90
_cell_volume                     2626.09
loop_
_atom_site_label
_atom_site_type_symbol
_atom_site_fract_x
_atom_site_fract_y
_atom_site_fract_z
O13 O 0.2712(3) 0.15533(9) 0.0728(7)
O15 O 0.4035(3) 0.02229(13) 0.0456(9)
O16 O 0.2874(5) 0.0134(2) 0.3097(11)
C37 C 0.2791(4) 0.19544(13) 0.1261(9)
H30 H 0.3098 0.1989 0.2866
H31 H 0.2151 0.2065 0.1351
C45 C 0.3185(5) 0.02424(15) 0.1112(11)
Zn7 Zn 0.5000 -0.0000 0.26385(15)
N6 N 0.5298(3) 0.04434(11) 0.4985(8)
C24 C 0.6057(4) 0.04349(14) 0.6493(12)
H22 H 0.6499 0.0239 0.6281
C25 C 0.6231(5) 0.06940(16) 0.8333(11)
H23 H 0.6782 0.0679 0.9310
C26 C 0.5551(4) 0.09841(13) 0.8702(9)
C27 C 0.4762(4) 0.10076(14) 0.7106(10)
H24 H 0.4318 0.1204 0.7257
C28 C 0.4654(4) 0.07330(14) 0.5297(11)
H25 H 0.4123 0.0745 0.4247
O9 O 0.0194(3) 0.82600(12) 0.2453(9)
Zn3 Zn 0.40879(4) 0.277387(14) 0.67345(12)
N10 N 0.3082(3) 0.30286(12) 0.4466(8)
O10 O 0.3198(3) 0.25081(10) 0.8972(7)
O11 O 0.4810(4) 0.24982(12) 0.4081(8)
H20 H 0.488(6) 0.2262(10) 0.349(12)
H21 H 0.476(6) 0.2435(19) 0.565(5)
O12 O 0.4009(3) 0.19822(11) 0.8112(8)
O14 O 0.2634(3) 0.08345(10) 0.9648(8)
O17 O 0.0337(3) 0.22032(11) 0.4741(8)
C31 C 0.1861(4) 0.32933(13) 0.0761(9)
C32 C 0.2773(4) 0.34555(15) 0.1116(10)
H26 H 0.2981 0.3654 0.0104
C33 C 0.3352(4) 0.33185(17) 0.2969(12)
H27 H 0.3953 0.3429 0.3208
C34 C 0.2213(4) 0.28818(14) 0.4163(9)
H28 H 0.2020 0.2686 0.5214
C35 C 0.1578(4) 0.30069(13) 0.2343(10)
H29 H 0.0970 0.2899 0.2195
C36 C 0.3375(4) 0.21598(14) 0.9258(9)
C38 C 0.2114(4) 0.14583(14) 0.8788(10)
C39 C 0.1553(3) 0.17118(13) 0.7440(10)
H32 H 0.1574 0.1969 0.7823
C40 C 0.0968(3) 0.15863(15) 0.5541(11)
C41 C 0.0949(4) 0.11982(17) 0.4941(13)
H33 H 0.0566 0.1113 0.3635
C42 C 0.1489(5) 0.09463(15) 0.6269(13)
H34 H 0.1471 0.0689 0.5865
C43 C 0.2067(4) 0.10698(15) 0.8218(10)
C44 C 0.2494(5) 0.04445(16) 0.9330(12)
H35 H 0.2630 0.0372 0.7624
H36 H 0.1834 0.0377 0.9710
C46 C 0.0343(4) 0.18593(16) 0.4161(11)
Zn4 Zn 0.09121(4) 0.777387(14) 0.17345(12)
O22 O 0.5337(3) 0.27968(11) 0.9741(8)
O24 O 0.4806(3) 0.32600(12) 0.7453(9)
Zn2 Zn -0.0000 0.5000 0.76385(15)
H7 H 0.0877 0.5745 0.9247
N6_2 N 0.0298(3) 0.45566(11) 0.9985(8)
O19 O 0.0965(3) 0.52229(13) 0.5456(9)
N7 N 0.6433(3) 0.12642(11) 0.2300(7)
N8 N 0.5453(3) 0.17593(12) 0.3079(8)
N9 N 0.5119(3) 0.15549(11) 0.1140(8)
H19 H 0.4604 0.1605 0.0314
N10_2 N 0.8082(3) 0.19714(12) 0.9466(8)
O11_2 O 0.9810(4) 0.25018(12) 0.9081(8)
H20_2 H 0.988(6) 0.2738(10) 0.849(12)
C29 C 0.5710(3) 0.12639(13) 0.0699(9)
C30 C 0.6231(3) 0.15735(12) 0.3723(9)
C31_2 C 0.6861(4) 0.17067(13) 0.5761(9)
C32_2 C 0.7773(4) 0.15445(15) 0.6116(10)
H26_2 H 0.7981 0.1346 0.5104
C33_2 C 0.8352(4) 0.16815(17) 0.7969(12)
H27_2 H 0.8953 0.1571 0.8208
C34_2 C 0.7213(4) 0.21182(14) 0.9163(9)
C35_2 C 0.6578(4) 0.19931(13) 0.7343(10)
H29_2 H 0.5970 0.2101 0.7195
C41_2 C 0.5949(4) 0.38018(17) 0.9941(13)
H33_2 H 0.5566 0.3887 0.8635
C46_2 C 0.5343(4) 0.31407(16) 0.9161(11)
O1 O 0.1802(3) 0.75081(10) 0.3972(7)
H3 H 0.024(6) 0.7435(19) 0.065(5)
O3 O 0.0991(3) 0.69822(11) 0.3112(8)
O4 O 0.2288(3) 0.65533(9) 0.5728(7)
O5 O 0.2366(3) 0.58345(10) 0.4648(8)
O7 O 0.2126(5) 0.5134(2) 0.8097(11)
H10 H 0.2980 0.7686 0.0214
C13 C 0.1625(4) 0.71598(14) 0.4258(9)
C14 C 0.2209(4) 0.69544(13) 0.6261(9)
H12 H 0.1902 0.6989 0.7866
H13 H 0.2849 0.7065 0.6351
C15 C 0.2886(4) 0.64583(14) 0.3788(10)
C16 C 0.3447(3) 0.67118(13) 0.2440(10)
H14 H 0.3426 0.6969 0.2823
C17 C 0.4032(3) 0.65863(15) 0.0541(11)
C19 C 0.3511(5) 0.59463(15) 0.1269(13)
H16 H 0.3529 0.5689 0.0865
C20 C 0.2933(4) 0.60698(15) 0.3218(10)
C21 C 0.2506(5) 0.54445(16) 0.4330(12)
H17 H 0.2370 0.5372 0.2624
H18 H 0.3166 0.5377 0.4710
C22 C 0.1815(5) 0.52424(15) 0.6112(11)
H1 H 0.0396 0.6605 0.5314
C4 C 0.0238(4) 0.60076(14) 0.2106(10)
H6 H 0.0682 0.6204 0.2257
C5 C 0.0346(4) 0.57330(14) 0.0297(11)
N7_2 N 0.1433(3) 0.37358(11) 0.7300(7)
N8_2 N 0.0453(3) 0.32407(12) 0.8079(8)
N9_2 N 0.0119(3) 0.34451(11) 0.6140(8)
C24_2 C 0.1057(4) 0.45651(14) 0.1493(12)
H22_2 H 0.1499 0.4761 0.1281
C25_2 C 0.1231(5) 0.43060(16) 0.3333(11)
H23_2 H 0.1782 0.4321 0.4310
C26_2 C 0.0551(4) 0.40159(13) 0.3702(9)
C29_2 C 0.0710(3) 0.37361(13) 0.5699(9)
C30_2 C 0.1231(3) 0.34265(12) 0.8723(9)
Zn7_2 Zn 0.5000 1.0000 0.26385(15)
O4_2 O 0.7288(3) 0.84467(9) 0.0728(7)
O6 O 0.5965(3) 0.97771(13) 0.0456(9)
O7_2 O 0.7126(5) 0.9866(2) 0.3097(11)
C14_2 C 0.7209(4) 0.80456(13) 0.1261(9)
H12_2 H 0.6902 0.8011 0.2866
H13_2 H 0.7849 0.7935 0.1351
C22_2 C 0.6815(5) 0.97576(15) 0.1112(11)
N1 N 0.4702(3) 0.95566(11) 0.4985(8)
C1 C 0.3943(4) 0.95651(14) 0.6493(12)
H4 H 0.3501 0.9761 0.6281
C2 C 0.3769(5) 0.93060(16) 0.8333(11)
H5 H 0.3218 0.9321 0.9310
C3 C 0.4449(4) 0.90159(13) 0.8702(9)
C4_2 C 0.5238(4) 0.89924(14) 0.7106(10)
H6_2 H 0.5682 0.8796 0.7257
C5_2 C 0.5346(4) 0.92670(14) 0.5297(11)
H7_2 H 0.5877 0.9255 0.4247
Zn1 Zn 0.59121(4) 0.722613(14) 0.67345(12)
N5 N 0.6918(3) 0.69714(12) 0.4466(8)
O1_2 O 0.6802(3) 0.74919(10) 0.8972(7)
O2 O 0.5190(4) 0.75018(12) 0.4081(8)
H2 H 0.512(6) 0.7738(10) 0.349(12)
H3_2 H 0.524(6) 0.7565(19) 0.565(5)
O3_2 O 0.5991(3) 0.80178(11) 0.8112(8)
O5_2 O 0.7366(3) 0.91655(10) 0.9648(8)
O8 O 0.9663(3) 0.77968(11) 0.4741(8)
C8 C 0.8139(4) 0.67067(13) 0.0761(9)
C9 C 0.7227(4) 0.65445(15) 0.1116(10)
H8 H 0.7019 0.6346 0.0104
C10 C 0.6648(4) 0.66815(17) 0.2969(12)
H9 H 0.6047 0.6571 0.3208
C11 C 0.7787(4) 0.71182(14) 0.4163(9)
H10_2 H 0.7980 0.7314 0.5214
C12 C 0.8422(4) 0.69931(13) 0.2343(10)
H11 H 0.9030 0.7101 0.2195
C13_2 C 0.6625(4) 0.78402(14) 0.9258(9)
C15_2 C 0.7886(4) 0.85417(14) 0.8788(10)
C16_2 C 0.8447(3) 0.82882(13) 0.7440(10)
H14_2 H 0.8426 0.8031 0.7823
C17_2 C 0.9032(3) 0.84137(15) 0.5541(11)
C18 C 0.9051(4) 0.88018(17) 0.4941(13)
H15 H 0.9434 0.8887 0.3635
C19_2 C 0.8511(5) 0.90537(15) 0.6269(13)
H16_2 H 0.8529 0.9311 0.5865
C20_2 C 0.7933(4) 0.89302(15) 0.8218(10)
C21_2 C 0.7506(5) 0.95555(16) 0.9330(12)
H17_2 H 0.7370 0.9628 0.7624
H18_2 H 0.8166 0.9623 0.9710
C23 C 0.9657(4) 0.81407(16) 0.4161(11)
O18 O 0.9806(3) 0.17400(12) 0.2453(9)
Zn5 Zn 0.90879(4) 0.222613(14) 0.17345(12)
O21 O 0.4663(3) 0.72032(11) 0.9741(8)
O23 O 0.5194(3) 0.67400(12) 0.7453(9)
Zn2_2 Zn 1.0000 0.5000 0.76385(15)
N1_2 N 0.9702(3) 0.54434(11) 0.9985(8)
H25_2 H 0.9123 0.4255 0.9247
O20 O 0.9035(3) 0.47771(13) 0.5456(9)
O10_2 O 0.8198(3) 0.24919(10) 0.3972(7)
H21_2 H 0.976(6) 0.2565(19) 0.065(5)
O12_2 O 0.9009(3) 0.30178(11) 0.3112(8)
O13_2 O 0.7712(3) 0.34467(9) 0.5728(7)
O14_2 O 0.7634(3) 0.41655(10) 0.4648(8)
O16_2 O 0.7874(5) 0.4866(2) 0.8097(11)
H28_2 H 0.7020 0.2314 0.0214
C36_2 C 0.8375(4) 0.28402(14) 0.4258(9)
C37_2 C 0.7791(4) 0.30456(13) 0.6261(9)
H30_2 H 0.8098 0.3011 0.7866
H31_2 H 0.7151 0.2935 0.6351
C38_2 C 0.7114(4) 0.35417(14) 0.3788(10)
C39_2 C 0.6553(3) 0.32882(13) 0.2440(10)
H32_2 H 0.6574 0.3031 0.2823
C40_2 C 0.5968(3) 0.34137(15) 0.0541(11)
C42_2 C 0.6489(5) 0.40537(15) 0.1269(13)
H34_2 H 0.6471 0.4311 0.0865
C43_2 C 0.7067(4) 0.39302(15) 0.3218(10)
C44_2 C 0.7494(5) 0.45555(16) 0.4330(12)
H35_2 H 0.7630 0.4628 0.2624
H36_2 H 0.6834 0.4623 0.4710
C45_2 C 0.8185(5) 0.47576(15) 0.6112(11)
N2 N 0.3567(3) 0.87358(11) 0.2300(7)
N3 N 0.4547(3) 0.82407(12) 0.3079(8)
N4 N 0.4881(3) 0.84451(11) 0.1140(8)
H1_2 H 0.5396 0.8395 0.0314
N5_2 N 0.1918(3) 0.80286(12) 0.9466(8)
O2_2 O 0.0190(4) 0.74982(12) 0.9081(8)
H2_2 H 0.012(6) 0.7262(10) 0.849(12)
C6 C 0.4290(3) 0.87361(13) 0.0699(9)
C7 C 0.3769(3) 0.84265(12) 0.3723(9)
C8_2 C 0.3139(4) 0.82933(13) 0.5761(9)
C9_2 C 0.2227(4) 0.84555(15) 0.6116(10)
H8_2 H 0.2019 0.8654 0.5104
C10_2 C 0.1648(4) 0.83185(17) 0.7969(12)
H9_2 H 0.1047 0.8429 0.8208
C11_2 C 0.2787(4) 0.78818(14) 0.9163(9)
C12_2 C 0.3422(4) 0.80069(13) 0.7343(10)
H11_2 H 0.4030 0.7899 0.7195
C18_2 C 0.4051(4) 0.61982(17) 0.9941(13)
H15_2 H 0.4434 0.6113 0.8635
C23_2 C 0.4657(4) 0.68593(16) 0.9161(11)
N2_2 N 0.8567(3) 0.62642(11) 0.7300(7)
N3_2 N 0.9547(3) 0.67593(12) 0.8079(8)
N4_2 N 0.9881(3) 0.65549(11) 0.6140(8)
C1_2 C 0.8943(4) 0.54349(14) 0.1493(12)
H4_2 H 0.8501 0.5239 0.1281
C2_2 C 0.8769(5) 0.56940(16) 0.3333(11)
H5_2 H 0.8218 0.5679 0.4310
C3_2 C 0.9449(4) 0.59841(13) 0.3702(9)
C6_2 C 0.9290(3) 0.62639(13) 0.5699(9)
C7_2 C 0.8769(3) 0.65735(12) 0.8723(9)
H19_2 H 0.9604 0.3395 0.5314
C27_2 C 0.9762(4) 0.39924(14) 0.2106(10)
H24_2 H 0.9318 0.3796 0.2257
C28_2 C 0.9654(4) 0.42670(14) 0.0297(11)
loop_
_geom_bond_atom_site_label_1
_geom_bond_atom_site_label_2
_geom_bond_site_symmetry_1
_geom_bond_site_symmetry_2
O13 C37 1_555 1_555
O15 C45 1_555 1_555
O16 C45 1_555 1_555
H30 C37 1_555 1_555
H31 C37 1_555 1_555
Zn7 O15 1_555 1_555
N6 Zn7 1_555 1_555
C24 N6 1_555 1_555
H22 C24 1_555 1_555
C25 C24 1_555 1_555
H23 C25 1_555 1_555
C26 C25 1_555 1_555
C27 C26 1_555 1_555
H24 C27 1_555 1_555
C28 N6 1_555 1_555
H25 C28 1_555 1_555
C27 C28 1_555 1_555
Zn3 N10 1_555 1_555
N10 C33 1_555 1_555
O10 Zn3 1_555 1_555
O11 Zn3 1_555 1_555
H20 O11 1_555 1_555
H21 O11 1_555 1_555
O12 C36 1_555 1_555
O14 C43 1_555 1_555
O17 C46 1_555 1_555
C32 C31 1_555 1_555
H26 C32 1_555 1_555
C33 C32 1_555 1_555
H27 C33 1_555 1_555
C34 N10 1_555 1_555
H28 C34 1_555 1_555
C35 C31 1_555 1_555
H29 C35 1_555 1_555
C36 O10 1_555 1_555
C39 C38 1_555 1_555
H32 C39 1_555 1_555
C40 C39 1_555 1_555
C41 C40 1_555 1_555
H33 C41 1_555 1_555
C42 C41 1_555 1_555
H34 C42 1_555 1_555
C43 C38 1_555 1_555
C44 O14 1_555 1_555
H35 C44 1_555 1_555
H36 C44 1_555 1_555
C46 C40 1_555 1_555
O22 Zn3 1_555 1_555
O24 Zn3 1_555 1_555
O9 Zn4 1_555 1_555
C34 C35 1_555 1_555
C42 C43 1_555 1_555
N6_2 Zn2 1_555 1_555
O19 Zn2 1_555 1_555
N7 C29 1_555 1_555
N8 N9 1_555 1_555
N9 H19 1_555 1_555
N10_2 C33_2 1_555 1_555
H20_2 O11_2 1_555 1_555
O22 C46_2 1_555 1_555
O24 C46_2 1_555 1_555
C29 N9 1_555 1_555
C30 N7 1_555 1_555
C31_2 C30 1_555 1_555
C32_2 C31_2 1_555 1_555
H26_2 C32_2 1_555 1_555
C33_2 C32_2 1_555 1_555
H27_2 C33_2 1_555 1_555
C34_2 N10_2 1_555 1_555
C35_2 C31_2 1_555 1_555
H29_2 C35_2 1_555 1_555
H33_2 C41_2 1_555 1_555
N8 C30 1_555 1_555
C34_2 C35_2 1_555 1_555
O1 Zn4 1_555 1_555
O3 C13 1_555 1_555
O4 C14 1_555 1_555
O5 C20 1_555 1_555
O19 C22 1_555 1_555
O7 C22 1_555 1_555
C13 O1 1_555 1_555
C14 C13 1_555 1_555
H12 C14 1_555 1_555
H13 C14 1_555 1_555
C15 O4 1_555 1_555
C16 C15 1_555 1_555
H14 C16 1_555 1_555
C17 C16 1_555 1_555
H16 C19 1_555 1_555
C20 C15 1_555 1_555
C21 O5 1_555 1_555
H17 C21 1_555 1_555
H18 C21 1_555 1_555
C22 C21 1_555 1_555
C19 C20 1_555 1_555
H6 C4 1_555 1_555
N7_2 C29_2 1_555 1_555
N8_2 N9_2 1_555 1_555
H22_2 C24_2 1_555 1_555
C25_2 C24_2 1_555 1_555
H23_2 C25_2 1_555 1_555
C26_2 C25_2 1_555 1_555
C29_2 N9_2 1_555 1_555
C30_2 N7_2 1_555 1_555
C4 C5 1_555 1_555
N8_2 C30_2 1_555 1_555
C26_2 C29_2 1_555 1_555
O4_2 C14_2 1_555 1_555
O6 C22_2 1_555 1_555
O7_2 C22_2 1_555 1_555
H12_2 C14_2 1_555 1_555
H13_2 C14_2 1_555 1_555
Zn7_2 O6 1_555 1_555
Zn7_2 N1 1_555 1_555
N1 C1 1_555 1_555
C1 H4 1_555 1_555
C2 C1 1_555 1_555
H5 C2 1_555 1_555
C3 C2 1_555 1_555
C4_2 C3 1_555 1_555
H6_2 C4_2 1_555 1_555
C5_2 N1 1_555 1_555
H7_2 C5_2 1_555 1_555
C4_2 C5_2 1_555 1_555
Zn1 N5 1_555 1_555
N5 C10 1_555 1_555
O1_2 Zn1 1_555 1_555
O2 Zn1 1_555 1_555
H2 O2 1_555 1_555
H3_2 O2 1_555 1_555
O3_2 C13_2 1_555 1_555
O5_2 C20_2 1_555 1_555
O8 C23 1_555 1_555
C9 C8 1_555 1_555
H8 C9 1_555 1_555
C10 C9 1_555 1_555
H9 C10 1_555 1_555
C11 N5 1_555 1_555
H10_2 C11 1_555 1_555
C12 C8 1_555 1_555
H11 C12 1_555 1_555
C13_2 O1_2 1_555 1_555
C16_2 C15_2 1_555 1_555
H14_2 C16_2 1_555 1_555
C17_2 C16_2 1_555 1_555
C18 C17_2 1_555 1_555
H15 C18 1_555 1_555
C19_2 C18 1_555 1_555
H16_2 C19_2 1_555 1_555
C20_2 C15_2 1_555 1_555
C21_2 O5_2 1_555 1_555
H17_2 C21_2 1_555 1_555
H18_2 C21_2 1_555 1_555
C23 C17_2 1_555 1_555
O21 Zn1 1_555 1_555
O23 Zn1 1_555 1_555
C11 C12 1_555 1_555
C19_2 C20_2 1_555 1_555
O18 Zn5 1_555 1_555
Zn2_2 N1_2 1_555 1_555
O20 Zn2_2 1_555 1_555
O10_2 Zn5 1_555 1_555
O12_2 C36_2 1_555 1_555
O13_2 C37_2 1_555 1_555
O14_2 C43_2 1_555 1_555
O20 C45_2 1_555 1_555
O16_2 C45_2 1_555 1_555
C36_2 O10_2 1_555 1_555
C37_2 C36_2 1_555 1_555
H30_2 C37_2 1_555 1_555
H31_2 C37_2 1_555 1_555
C38_2 O13_2 1_555 1_555
C39_2 C38_2 1_555 1_555
H32_2 C39_2 1_555 1_555
C40_2 C39_2 1_555 1_555
H34_2 C42_2 1_555 1_555
C43_2 C38_2 1_555 1_555
C44_2 O14_2 1_555 1_555
H35_2 C44_2 1_555 1_555
H36_2 C44_2 1_555 1_555
C45_2 C44_2 1_555 1_555
C42_2 C43_2 1_555 1_555
N2 C6 1_555 1_555
N3 N4 1_555 1_555
N4 H1_2 1_555 1_555
N5_2 C10_2 1_555 1_555
H2_2 O2_2 1_555 1_555
O21 C23_2 1_555 1_555
O23 C23_2 1_555 1_555
C6 N4 1_555 1_555
C7 N2 1_555 1_555
C8_2 C7 1_555 1_555
C9_2 C8_2 1_555 1_555
H8_2 C9_2 1_555 1_555
C10_2 C9_2 1_555 1_555
H9_2 C10_2 1_555 1_555
C11_2 N5_2 1_555 1_555
C12_2 C8_2 1_555 1_555
H11_2 C12_2 1_555 1_555
H15_2 C18_2 1_555 1_555
N3 C7 1_555 1_555
C11_2 C12_2 1_555 1_555
N2_2 C6_2 1_555 1_555
N3_2 N4_2 1_555 1_555
C1_2 H4_2 1_555 1_555
C2_2 C1_2 1_555 1_555
H5_2 C2_2 1_555 1_555
C3_2 C2_2 1_555 1_555
C6_2 N4_2 1_555 1_555
C7_2 N2_2 1_555 1_555
H24_2 C27_2 1_555 1_555
N3_2 C7_2 1_555 1_555
C3_2 C6_2 1_555 1_555
C27_2 C28_2 1_555 1_555

#END
