
###############################################################################
#
# This file contains modified crystal structure data generated from the
# MOF subset of the Cambridge Structural Database (CSD) v543 
# hosted by the Cambridge Crystallographic Data Centre (CCDC).
#
# This work is licensed under the Creative Commons
# Attribution-NonCommercial-ShareAlike 4.0 International License.
# To view a copy of this license, visit
# http://creativecommons.org/licenses/by-nc-sa/4.0/
# or send a letter to
# Creative Commons, PO Box 1866, Mountain View, CA 94042, USA.
#
# CIF created using the CSD Python API on 29 September 2022
# The structure has been converted into the P1 space group
# The structure has a 3D framework
# The original CSD entry FAXKEY is in the monoclinic crystal system
# The framework has been calculated to contain at least 10.0% void space
# The void calculation uses a probe of radius 1.32A, grid spacing 0.4
#
###############################################################################

data_FAXKEY
_chemical_formula_moiety         '(C56 H39 Cu5 N8 O24)n'
_symmetry_cell_setting           triclinic
_symmetry_space_group_name_H-M   'P 1'
_symmetry_Int_Tables_number      1
_space_group_name_Hall           'P 1'
loop_
_symmetry_equiv_pos_site_id
_symmetry_equiv_pos_as_xyz
1 x,y,z
_cell_length_a                   10.697(4)
_cell_length_b                   11.948(4)
_cell_length_c                   15.449(6)
_cell_angle_alpha                90
_cell_angle_beta                 94.893(9)
_cell_angle_gamma                90
_cell_volume                     1967.31
loop_
_atom_site_label
_atom_site_type_symbol
_atom_site_fract_x
_atom_site_fract_y
_atom_site_fract_z
C10 C 0.0230(11) 0.3903(11) 0.0744(7)
H6 H 0.092807 0.374313 0.044630
C11 C 0.0343(10) 0.4515(11) 0.1478(8)
H7 H 0.113936 0.477653 0.166485
H10 H 0.006(7) 0.642(7) 0.446(5)
Cu5 Cu 0.13417(9) 0.48170(10) 0.49198(7)
Cu7 Cu 0.03266(9) 0.45950(10) 0.68454(7)
O8 O 0.0074(5) 0.4249(6) 0.5621(4)
O10 O 0.1449(6) 0.5729(7) 0.2984(4)
Cu1 Cu 0.86583(9) 0.51830(10) 0.50802(7)
Cu2 Cu 0.96734(9) 0.54050(10) 0.31546(7)
O1 O 0.9926(5) 0.5751(6) 0.4379(4)
O2 O 0.7464(5) 0.4435(6) 0.5732(4)
O3 O 0.2822(6) 0.4514(6) 0.5738(4)
O4 O 0.8551(6) 0.4271(7) 0.7016(4)
O5 O 0.6456(6) 0.1730(6) 0.9140(4)
O6 O 0.2018(5) 0.3982(7) 0.6943(4)
O7 O 0.4445(6) 0.1362(6) 0.8743(4)
N1 N 0.9395(7) 0.4780(7) 0.1969(5)
C1 C 0.2903(7) 0.4117(7) 0.6480(6)
C2 C 0.4174(7) 0.3769(8) 0.6873(6)
C3 C 0.7573(8) 0.4192(8) 0.6519(6)
C4 C 0.5251(8) 0.4101(8) 0.6497(6)
H1 H 0.519271 0.451361 0.598510
C5 C 0.5415(8) 0.2758(8) 0.7974(6)
C6 C 0.5435(9) 0.1906(9) 0.8691(6)
C7 C 0.4262(8) 0.3097(8) 0.7588(6)
H2 H 0.353293 0.286015 0.782017
C8 C 0.6422(7) 0.3803(8) 0.6903(6)
C9 C 0.6500(8) 0.3146(8) 0.7631(6)
H3 H 0.728264 0.295601 0.789959
C12 C 0.9015(11) 0.3505(10) 0.0431(7)
C13 C 0.8266(10) 0.4395(12) 0.1650(7)
H8 H 0.757910 0.455709 0.195858
C14 C 0.8059(11) 0.3786(11) 0.0907(8)
H9 H 0.724799 0.355926 0.072377
Cu3 Cu 0.63417(9) 0.01830(10) 0.99198(7)
O9 O 0.7178(6) 0.5486(6) 0.4262(4)
O11 O 0.8544(6) 0.6730(6) 0.5860(4)
O12 O 0.7982(5) 0.6018(7) 0.3057(4)
O13 O 0.9445(6) 0.3638(6) 0.3743(4)
Cu8 Cu 0.46734(9) 0.95950(10) 0.81546(7)
Cu4 Cu 0.36583(9) 0.98170(10) 0.00802(7)
O3_2 O 0.2178(6) 0.9514(6) 0.9262(4)
O6_2 O 0.2982(5) 0.8982(7) 0.8057(4)
O7_2 O 0.0555(6) 0.6362(6) 0.6257(4)
C1_2 C 0.2097(7) 0.9117(7) 0.8520(6)
C2_2 C 0.0826(7) 0.8769(8) 0.8127(6)
C7_2 C 0.0738(8) 0.8097(8) 0.7412(6)
H2_2 H 0.146707 0.786015 0.717983
Cu2_2 Cu 0.53266(9) 0.04050(10) 0.18454(7)
O1_2 O 0.5074(5) 0.0751(6) 0.0621(4)
H10_2 H 0.494(7) 0.142(7) 0.054(5)
O9_2 O 0.7822(6) 0.0486(6) 0.0738(4)
O10_2 O 0.3551(6) 0.0729(7) 0.2016(4)
O12_2 O 0.7018(5) 0.1018(7) 0.1943(4)
N1_2 N 0.5605(7) 0.9780(7) 0.3031(5)
N2 N 0.6139(11) 0.7894(9) 0.5300(7)
H4 H 0.687452 0.766133 0.548555
H5 H 0.550321 0.773498 0.558171
C10_2 C 0.4770(11) 0.8903(11) 0.4256(7)
H6_2 H 0.407193 0.874313 0.455370
C11_2 C 0.4657(10) 0.9515(11) 0.3522(8)
H7_2 H 0.386064 0.977653 0.333515
C12_2 C 0.5985(11) 0.8505(10) 0.4569(7)
C13_2 C 0.6734(10) 0.9395(12) 0.3350(7)
H8_2 H 0.742090 0.955709 0.304142
C14_2 C 0.6941(11) 0.8786(11) 0.4093(8)
H9_2 H 0.775201 0.855926 0.427623
O13_2 O 0.5555(6) 0.8638(6) 0.1257(4)
O2_2 O 0.7536(5) 0.9435(6) 0.9268(4)
O4_2 O 0.6449(6) 0.9271(7) 0.7984(4)
C3_2 C 0.7427(8) 0.9192(8) 0.8481(6)
C4_2 C 0.9749(8) 0.9101(8) 0.8503(6)
H1_2 H 0.980729 0.951361 0.901490
C5_2 C 0.9585(8) 0.7758(8) 0.7026(6)
C6_2 C 0.9565(9) 0.6906(9) 0.6309(6)
C8_2 C 0.8578(7) 0.8803(8) 0.8097(6)
C9_2 C 0.8500(8) 0.8146(8) 0.7369(6)
H3_2 H 0.771736 0.795601 0.710041
O8_2 O 0.4926(5) 0.9249(6) 0.9379(4)
O2_3 O 0.2536(5) 0.5565(6) 0.4268(4)
O5_2 O 0.3544(6) 0.8270(6) 0.0860(4)
N1_3 N 0.0605(7) 0.5220(7) 0.8031(5)
C1_3 C 0.7097(7) 0.5883(7) 0.3520(6)
C2_3 C 0.5826(7) 0.6231(8) 0.3127(6)
C3_3 C 0.2427(8) 0.5808(8) 0.3481(6)
C4_3 C 0.4749(8) 0.5899(8) 0.3503(6)
H1_3 H 0.480729 0.548639 0.401490
C5_3 C 0.4585(8) 0.7242(8) 0.2026(6)
C6_3 C 0.4565(9) 0.8094(9) 0.1309(6)
C7_3 C 0.5738(8) 0.6903(8) 0.2412(6)
H2_3 H 0.646707 0.713985 0.217983
C8_3 C 0.3578(7) 0.6197(8) 0.3097(6)
C9_3 C 0.3500(8) 0.6854(8) 0.2369(6)
H3_3 H 0.271736 0.704399 0.210041
C12_3 C 0.0985(11) 0.6495(10) 0.9569(7)
C13_3 C 0.1734(10) 0.5605(12) 0.8350(7)
H8_3 H 0.242090 0.544291 0.804142
C14_3 C 0.1941(11) 0.6214(11) 0.9093(8)
H9_3 H 0.275201 0.644074 0.927623
O11_2 O 0.1456(6) 0.3270(6) 0.4140(4)
C10_3 C 0.9770(11) 0.6097(11) 0.9256(7)
H6_3 H 0.907193 0.625687 0.955370
C11_3 C 0.9657(10) 0.5485(11) 0.8522(8)
H7_3 H 0.886064 0.522347 0.833515
H10_3 H 0.994(7) 0.358(7) 0.554(5)
O2_4 O 0.2464(5) 0.0565(6) 0.0732(4)
C3_4 C 0.2573(8) 0.0808(8) 0.1519(6)
C4_4 C 0.0251(8) 0.0899(8) 0.1497(6)
H1_4 H 0.019271 0.048639 0.098510
C5_4 C 0.0415(8) 0.2242(8) 0.2974(6)
C6_4 C 0.0435(9) 0.3094(9) 0.3691(6)
C8_4 C 0.1422(7) 0.1197(8) 0.1903(6)
C9_4 C 0.1500(8) 0.1854(8) 0.2631(6)
H3_4 H 0.228264 0.204399 0.289959
N1_4 N 0.4395(7) 0.0220(7) 0.6969(5)
N2_2 N 0.3861(11) 0.2106(9) 0.4700(7)
H4_2 H 0.312548 0.233867 0.451445
H5_2 H 0.449679 0.226502 0.441829
C10_4 C 0.5230(11) 0.1097(11) 0.5744(7)
H6_4 H 0.592807 0.125687 0.544630
C11_4 C 0.5343(10) 0.0485(11) 0.6478(8)
H7_4 H 0.613936 0.022347 0.666485
C12_4 C 0.4015(11) 0.1495(10) 0.5431(7)
C13_4 C 0.3266(10) 0.0605(12) 0.6650(7)
H8_4 H 0.257910 0.044291 0.695858
C14_4 C 0.3059(11) 0.1214(11) 0.5907(8)
H9_4 H 0.224799 0.144074 0.572377
H10_4 H 0.506(7) 0.858(7) 0.946(5)
C1_4 C 0.7903(7) 0.0883(7) 0.1480(6)
C2_4 C 0.9174(7) 0.1231(8) 0.1873(6)
C7_4 C 0.9262(8) 0.1903(8) 0.2588(6)
H2_4 H 0.853293 0.213985 0.282017
N2_3 N 0.8861(11) 0.2894(9) 0.9700(7)
H4_3 H 0.812548 0.266133 0.951445
H5_3 H 0.949679 0.273498 0.941829
N2_4 N 0.1139(11) 0.7106(9) 0.0300(7)
H4_4 H 0.187452 0.733867 0.048555
H5_4 H 0.050321 0.726502 0.058171
loop_
_geom_bond_atom_site_label_1
_geom_bond_atom_site_label_2
_geom_bond_site_symmetry_1
_geom_bond_site_symmetry_2
C10 H6 1_555 1_555
H7 C11 1_555 1_555
C10 C11 1_555 1_555
Cu5 O8 1_555 1_555
Cu7 O8 1_555 1_555
Cu1 O1 1_555 1_555
Cu2 O1 1_555 1_555
O2 Cu1 1_555 1_555
O3 C1 1_555 1_555
O4 C3 1_555 1_555
O5 C6 1_555 1_555
O6 C1 1_555 1_555
O7 C6 1_555 1_555
N1 Cu2 1_555 1_555
C1 C2 1_555 1_555
C2 C4 1_555 1_555
C3 O2 1_555 1_555
C4 H1 1_555 1_555
C5 C6 1_555 1_555
C7 C2 1_555 1_555
H2 C7 1_555 1_555
C8 C3 1_555 1_555
C9 C5 1_555 1_555
H3 C9 1_555 1_555
C13 N1 1_555 1_555
H8 C13 1_555 1_555
C14 C12 1_555 1_555
H9 C14 1_555 1_555
Cu3 O5 1_555 1_555
Cu5 O3 1_555 1_555
Cu7 O6 1_555 1_555
O9 Cu1 1_555 1_555
O11 Cu1 1_555 1_555
O12 Cu2 1_555 1_555
O13 Cu2 1_555 1_555
C4 C8 1_555 1_555
C5 C7 1_555 1_555
C8 C9 1_555 1_555
C13 C14 1_555 1_555
O3_2 C1_2 1_555 1_555
O6_2 C1_2 1_555 1_555
C1_2 C2_2 1_555 1_555
C7_2 C2_2 1_555 1_555
H2_2 C7_2 1_555 1_555
Cu8 O6_2 1_555 1_555
Cu7 O7_2 1_555 1_555
Cu2_2 O1_2 1_555 1_555
O1_2 H10_2 1_555 1_555
O10_2 Cu2_2 1_555 1_555
O12_2 Cu2_2 1_555 1_555
N2 H4 1_555 1_555
H5 N2 1_555 1_555
C10_2 H6_2 1_555 1_555
C11_2 N1_2 1_555 1_555
H7_2 C11_2 1_555 1_555
C12_2 N2 1_555 1_555
C13_2 N1_2 1_555 1_555
H8_2 C13_2 1_555 1_555
C14_2 C12_2 1_555 1_555
H9_2 C14_2 1_555 1_555
C10_2 C11_2 1_555 1_555
C10_2 C12_2 1_555 1_555
C13_2 C14_2 1_555 1_555
O4_2 C3_2 1_555 1_555
O11 C6_2 1_555 1_555
C3_2 O2_2 1_555 1_555
C4_2 H1_2 1_555 1_555
C5_2 C6_2 1_555 1_555
C8_2 C3_2 1_555 1_555
C9_2 C5_2 1_555 1_555
H3_2 C9_2 1_555 1_555
Cu8 O4_2 1_555 1_555
C4_2 C8_2 1_555 1_555
C8_2 C9_2 1_555 1_555
Cu8 O8_2 1_555 1_555
O2_3 Cu5 1_555 1_555
O9 C1_3 1_555 1_555
O10 C3_3 1_555 1_555
O5_2 C6_3 1_555 1_555
O12 C1_3 1_555 1_555
O13_2 C6_3 1_555 1_555
N1_3 Cu7 1_555 1_555
C1_3 C2_3 1_555 1_555
C2_3 C4_3 1_555 1_555
C3_3 O2_3 1_555 1_555
C4_3 H1_3 1_555 1_555
C5_3 C6_3 1_555 1_555
C7_3 C2_3 1_555 1_555
H2_3 C7_3 1_555 1_555
C8_3 C3_3 1_555 1_555
C9_3 C5_3 1_555 1_555
H3_3 C9_3 1_555 1_555
C13_3 N1_3 1_555 1_555
H8_3 C13_3 1_555 1_555
C14_3 C12_3 1_555 1_555
H9_3 C14_3 1_555 1_555
Cu4 O5_2 1_555 1_555
O11_2 Cu5 1_555 1_555
C4_3 C8_3 1_555 1_555
C5_3 C7_3 1_555 1_555
C8_3 C9_3 1_555 1_555
C13_3 C14_3 1_555 1_555
C10_3 H6_3 1_555 1_555
H7_3 C11_3 1_555 1_555
C10_3 C11_3 1_555 1_555
O10_2 C3_4 1_555 1_555
O11_2 C6_4 1_555 1_555
C3_4 O2_4 1_555 1_555
C4_4 H1_4 1_555 1_555
C5_4 C6_4 1_555 1_555
C8_4 C3_4 1_555 1_555
C9_4 C5_4 1_555 1_555
H3_4 C9_4 1_555 1_555
C4_4 C8_4 1_555 1_555
C8_4 C9_4 1_555 1_555
N2_2 H4_2 1_555 1_555
H5_2 N2_2 1_555 1_555
C10_4 H6_4 1_555 1_555
C11_4 N1_4 1_555 1_555
H7_4 C11_4 1_555 1_555
C12_4 N2_2 1_555 1_555
C13_4 N1_4 1_555 1_555
H8_4 C13_4 1_555 1_555
C14_4 C12_4 1_555 1_555
H9_4 C14_4 1_555 1_555
C10_4 C11_4 1_555 1_555
C10_4 C12_4 1_555 1_555
C13_4 C14_4 1_555 1_555
O8_2 H10_4 1_555 1_555
O9_2 C1_4 1_555 1_555
O12_2 C1_4 1_555 1_555
C1_4 C2_4 1_555 1_555
C7_4 C2_4 1_555 1_555
H2_4 C7_4 1_555 1_555
N2_3 H4_3 1_555 1_555
H5_3 N2_3 1_555 1_555
N2_4 H4_4 1_555 1_555
H5_4 N2_4 1_555 1_555

#END
