
###############################################################################
#
# This file contains modified crystal structure data generated from the
# MOF subset of the Cambridge Structural Database (CSD) v543 
# hosted by the Cambridge Crystallographic Data Centre (CCDC).
#
# This work is licensed under the Creative Commons
# Attribution-NonCommercial-ShareAlike 4.0 International License.
# To view a copy of this license, visit
# http://creativecommons.org/licenses/by-nc-sa/4.0/
# or send a letter to
# Creative Commons, PO Box 1866, Mountain View, CA 94042, USA.
#
# CIF created using the CSD Python API on 29 September 2022
# The structure has been converted into the P1 space group
# The structure has a 3D framework
# The original CSD entry FAZGEW is in the hexagonal crystal system
# The original CSD entry FAZGEW is in a Sohncke space group
# The framework has been calculated to contain at least 10.0% void space
# The void calculation uses a probe of radius 1.32A, grid spacing 0.4
#
###############################################################################

data_FAZGEW
_chemical_formula_moiety         '(C48 H24 La2 O12)n'
_symmetry_cell_setting           triclinic
_symmetry_space_group_name_H-M   'P 1'
_symmetry_Int_Tables_number      1
_space_group_name_Hall           'P 1'
loop_
_symmetry_equiv_pos_site_id
_symmetry_equiv_pos_as_xyz
1 x,y,z
_cell_length_a                   16.5959(16)
_cell_length_b                   16.5959(16)
_cell_length_c                   5.3576(6)
_cell_angle_alpha                90
_cell_angle_beta                 90
_cell_angle_gamma                120
_cell_volume                     1277.92
loop_
_atom_site_label
_atom_site_type_symbol
_atom_site_fract_x
_atom_site_fract_y
_atom_site_fract_z
La2 La 0.333333 0.666667 0.000000
La7 La 0.666667 0.333333 0.000000
O17 O 0.257(3) 0.716(3) 0.295(3)
O18 O 0.459(4) 0.743(3) 0.295(3)
O19 O 0.284(3) 0.541(4) 0.295(3)
C7 C 0.0488(4) 0.0976(6) 0.500000
C8 C 0.1008(6) 0.2016(8) 0.500000
C9 C 0.2073(16) 0.3472(23) 0.306(4)
H3 H 0.245810 0.379372 0.172207
C10 C 0.1603(12) 0.2509(18) 0.305(3)
H4 H 0.168618 0.219120 0.173537
C11 C 0.1983(8) 0.3966(11) 0.500000
C12 C 0.2503(9) 0.5006(13) 0.500000
O2 O 0.257(3) 0.541(4) 0.705(3)
C21 C 0.1399(16) 0.3472(23) 0.694(4)
H9 H 0.133562 0.379372 0.827793
C22 C 0.0906(13) 0.2509(18) 0.695(3)
H10 H 0.050502 0.219120 0.826463
C31 C 0.0976(6) 0.0488(4) 0.500000
C32 C 0.2016(8) 0.1008(6) 0.500000
C33 C 0.3472(23) 0.1399(16) 0.306(4)
H15 H 0.379372 0.133562 0.172207
C34 C 0.2509(18) 0.0906(13) 0.305(3)
H16 H 0.219120 0.050502 0.173537
C35 C 0.3966(11) 0.1983(8) 0.500000
C36 C 0.5006(13) 0.2503(9) 0.500000
O8 O 0.541(4) 0.284(3) 0.705(3)
C45 C 0.3472(23) 0.2073(16) 0.694(4)
H21 H 0.379372 0.245810 0.827793
C46 C 0.2509(18) 0.1603(12) 0.695(3)
H22 H 0.219120 0.168618 0.826463
O11 O 0.541(4) 0.257(3) 0.295(3)
La2_2 La 0.333333 0.666667 1.000000
La7_2 La 0.666667 0.333333 1.000000
O15 O 0.284(3) 0.743(3) 0.705(3)
O16 O 0.459(4) 0.716(3) 0.705(3)
C37 C 0.0488(4) 0.9512(4) 0.500000
C38 C 0.1008(6) 0.8992(6) 0.500000
C39 C 0.1399(16) 0.7927(16) 0.306(4)
H17 H 0.133562 0.754190 0.172207
C40 C 0.0906(13) 0.8397(12) 0.305(3)
H18 H 0.050502 0.831382 0.173537
C41 C 0.1983(8) 0.8017(8) 0.500000
C42 C 0.2503(9) 0.7497(9) 0.500000
C43 C 0.2073(16) 0.8601(16) 0.694(4)
H19 H 0.245810 0.866438 0.827793
C44 C 0.1603(12) 0.9094(13) 0.695(3)
H20 H 0.168618 0.949498 0.826463
O20 O 0.743(3) 0.284(3) 0.295(3)
O22 O 0.716(3) 0.459(4) 0.295(3)
C1 C 0.9512(4) 0.0488(4) 0.500000
C2 C 0.8992(6) 0.1008(6) 0.500000
C3 C 0.8601(16) 0.2073(16) 0.306(4)
H1 H 0.866438 0.245810 0.172207
C4 C 0.9094(13) 0.1603(12) 0.305(3)
H2 H 0.949498 0.168618 0.173537
C5 C 0.8017(8) 0.1983(8) 0.500000
C6 C 0.7497(9) 0.2503(9) 0.500000
O1 O 0.716(3) 0.257(3) 0.705(3)
C23 C 0.7927(16) 0.1399(16) 0.694(4)
H11 H 0.754190 0.133562 0.827793
C24 C 0.8397(12) 0.0906(13) 0.695(3)
H12 H 0.831382 0.050502 0.826463
O13 O 0.743(3) 0.459(4) 0.705(3)
C13 C 0.9024(6) 0.9512(4) 0.500000
C14 C 0.7984(8) 0.8992(6) 0.500000
C15 C 0.6528(23) 0.8601(16) 0.306(4)
H5 H 0.620628 0.866438 0.172207
C16 C 0.7491(18) 0.9094(13) 0.305(3)
H6 H 0.780880 0.949498 0.173537
C17 C 0.6034(11) 0.8017(8) 0.500000
C18 C 0.4994(13) 0.7497(9) 0.500000
C19 C 0.6528(23) 0.7927(16) 0.694(4)
H7 H 0.620628 0.754190 0.827793
C20 C 0.7491(18) 0.8397(12) 0.695(3)
H8 H 0.780880 0.831382 0.826463
C25 C 0.9512(4) 0.9024(6) 0.500000
C26 C 0.8992(6) 0.7984(8) 0.500000
C27 C 0.7927(16) 0.6528(23) 0.306(4)
H13 H 0.754190 0.620628 0.172207
C28 C 0.8397(12) 0.7491(18) 0.305(3)
H14 H 0.831382 0.780880 0.173537
C29 C 0.8017(8) 0.6034(11) 0.500000
C30 C 0.7497(9) 0.4994(13) 0.500000
C47 C 0.8601(16) 0.6528(23) 0.694(4)
H23 H 0.866438 0.620628 0.827793
C48 C 0.9094(13) 0.7491(18) 0.695(3)
H24 H 0.949498 0.780880 0.826463
loop_
_geom_bond_atom_site_label_1
_geom_bond_atom_site_label_2
_geom_bond_site_symmetry_1
_geom_bond_site_symmetry_2
O17 La2 1_555 1_555
O18 La2 1_555 1_555
O19 La2 1_555 1_555
C8 C7 1_555 1_555
C9 H3 1_555 1_555
C10 C8 1_555 1_555
H4 C10 1_555 1_555
C11 C9 1_555 1_555
C12 C11 1_555 1_555
O2 C12 1_555 1_555
C21 C11 1_555 1_555
H9 C21 1_555 1_555
C22 C8 1_555 1_555
H10 C22 1_555 1_555
O19 C12 1_555 1_555
C31 C7 1_555 1_555
C32 C31 1_555 1_555
C33 H15 1_555 1_555
C34 C32 1_555 1_555
H16 C34 1_555 1_555
C35 C33 1_555 1_555
C36 C35 1_555 1_555
O8 C36 1_555 1_555
C45 C35 1_555 1_555
H21 C45 1_555 1_555
C46 C32 1_555 1_555
H22 C46 1_555 1_555
O11 C36 1_555 1_555
La2_2 O2 1_555 1_555
La7 O11 1_555 1_555
La7_2 O8 1_555 1_555
O15 La2_2 1_555 1_555
O16 La2_2 1_555 1_555
C9 C10 1_555 1_555
C21 C22 1_555 1_555
C33 C34 1_555 1_555
C45 C46 1_555 1_555
C38 C37 1_555 1_555
C39 H17 1_555 1_555
C40 C38 1_555 1_555
H18 C40 1_555 1_555
C41 C39 1_555 1_555
C42 C41 1_555 1_555
O15 C42 1_555 1_555
C43 C41 1_555 1_555
H19 C43 1_555 1_555
C44 C38 1_555 1_555
H20 C44 1_555 1_555
O17 C42 1_555 1_555
C39 C40 1_555 1_555
C43 C44 1_555 1_555
O20 La7 1_555 1_555
O22 La7 1_555 1_555
La7_2 O1 1_555 1_555
C1 C2 1_555 1_555
C2 C4 1_555 1_555
C3 H1 1_555 1_555
C4 C3 1_555 1_555
H2 C4 1_555 1_555
C5 C3 1_555 1_555
C6 C5 1_555 1_555
O1 C6 1_555 1_555
C23 C5 1_555 1_555
H11 C23 1_555 1_555
C24 C2 1_555 1_555
H12 C24 1_555 1_555
O20 C6 1_555 1_555
O13 La7_2 1_555 1_555
C23 C24 1_555 1_555
C14 C13 1_555 1_555
C15 H5 1_555 1_555
C16 C14 1_555 1_555
H6 C16 1_555 1_555
C17 C15 1_555 1_555
C18 C17 1_555 1_555
O16 C18 1_555 1_555
C19 C17 1_555 1_555
H7 C19 1_555 1_555
C20 C14 1_555 1_555
H8 C20 1_555 1_555
O18 C18 1_555 1_555
C25 C13 1_555 1_555
C26 C25 1_555 1_555
C27 H13 1_555 1_555
C28 C26 1_555 1_555
H14 C28 1_555 1_555
C29 C27 1_555 1_555
C30 C29 1_555 1_555
O13 C30 1_555 1_555
C47 C29 1_555 1_555
H23 C47 1_555 1_555
C48 C26 1_555 1_555
H24 C48 1_555 1_555
O22 C30 1_555 1_555
C15 C16 1_555 1_555
C19 C20 1_555 1_555
C27 C28 1_555 1_555
C47 C48 1_555 1_555

#END
