
###############################################################################
#
# This file contains modified crystal structure data generated from the
# MOF subset of the Cambridge Structural Database (CSD) v543 
# hosted by the Cambridge Crystallographic Data Centre (CCDC).
#
# This work is licensed under the Creative Commons
# Attribution-NonCommercial-ShareAlike 4.0 International License.
# To view a copy of this license, visit
# http://creativecommons.org/licenses/by-nc-sa/4.0/
# or send a letter to
# Creative Commons, PO Box 1866, Mountain View, CA 94042, USA.
#
# CIF created using the CSD Python API on 29 September 2022
# The structure has been converted into the P1 space group
# The structure has a 3D framework
# The original CSD entry FAZGAS is in the hexagonal crystal system
# The original CSD entry FAZGAS is in a Sohncke space group
# The framework has been calculated to contain at least 10.0% void space
# The void calculation uses a probe of radius 1.32A, grid spacing 0.4
#
###############################################################################

data_FAZGAS
_chemical_formula_moiety         '(C48 H24 La1 O12)n'
_symmetry_cell_setting           triclinic
_symmetry_space_group_name_H-M   'P 1'
_symmetry_Int_Tables_number      1
_space_group_name_Hall           'P 1'
loop_
_symmetry_equiv_pos_site_id
_symmetry_equiv_pos_as_xyz
1 x,y,z
_cell_length_a                   17.220(2)
_cell_length_b                   17.220(2)
_cell_length_c                   5.5100(11)
_cell_angle_alpha                90
_cell_angle_beta                 90
_cell_angle_gamma                120
_cell_volume                     1414.97
loop_
_atom_site_label
_atom_site_type_symbol
_atom_site_fract_x
_atom_site_fract_y
_atom_site_fract_z
La6 La 0.333333 0.666667 0.000000
La12 La 0.666667 0.333333 0.000000
C13 C 0.0986(7) 0.0493(5) 0.500000
C14 C 0.2022(7) 0.1011(5) 0.500000
C15 C 0.3499(11) 0.1406(7) 0.691(3)
H5 H 0.381515 0.133481 0.817255
C16 C 0.2503(11) 0.0899(8) 0.696(3)
H6 H 0.219898 0.051723 0.824948
C17 C 0.3976(6) 0.1988(4) 0.500000
C18 C 0.5002(6) 0.2501(4) 0.500000
O3 O 0.5396(25) 0.2842(18) 0.305(3)
C19 C 0.3499(11) 0.2093(8) 0.309(3)
H7 H 0.381515 0.248034 0.182745
C20 C 0.2503(11) 0.1604(8) 0.304(3)
H8 H 0.219898 0.168175 0.175052
O4 O 0.5396(25) 0.2554(18) 0.695(3)
C25 C 0.0493(5) 0.0986(7) 0.500000
C26 C 0.1011(5) 0.2022(7) 0.500000
C27 C 0.2093(8) 0.3499(11) 0.691(3)
H13 H 0.248034 0.381515 0.817255
C28 C 0.1604(8) 0.2503(11) 0.696(3)
H14 H 0.168175 0.219898 0.824948
C29 C 0.1988(4) 0.3976(6) 0.500000
C30 C 0.2501(4) 0.5002(6) 0.500000
O7 O 0.2554(18) 0.5396(25) 0.305(3)
C47 C 0.1406(7) 0.3499(11) 0.309(3)
H23 H 0.133481 0.381515 0.182745
C48 C 0.0899(8) 0.2503(11) 0.304(3)
H24 H 0.051723 0.219898 0.175052
O12 O 0.2842(18) 0.5396(25) 0.695(3)
La6_2 La 0.333333 0.666667 1.000000
La12_2 La 0.666667 0.333333 1.000000
C1 C 0.0493(5) 0.9507(5) 0.500000
C2 C 0.1011(5) 0.8989(5) 0.500000
C3 C 0.1406(7) 0.7907(8) 0.691(3)
H1 H 0.133481 0.751966 0.817255
C4 C 0.0899(8) 0.8396(8) 0.696(3)
H2 H 0.051723 0.831825 0.824948
C5 C 0.1988(4) 0.8012(4) 0.500000
C6 C 0.2501(4) 0.7499(4) 0.500000
O1 O 0.2842(18) 0.7446(18) 0.305(3)
C23 C 0.2093(8) 0.8594(7) 0.309(3)
H11 H 0.248034 0.866519 0.182745
C24 C 0.1604(8) 0.9101(8) 0.304(3)
H12 H 0.168175 0.948277 0.175052
O6 O 0.2554(18) 0.7158(18) 0.695(3)
O16 O 0.4604(25) 0.7158(18) 0.305(3)
O20 O 0.4604(25) 0.7446(18) 0.695(3)
C37 C 0.9507(5) 0.0493(5) 0.500000
C38 C 0.8989(5) 0.1011(5) 0.500000
C39 C 0.8594(7) 0.2093(8) 0.691(3)
H17 H 0.866519 0.248034 0.817255
C40 C 0.9101(8) 0.1604(8) 0.696(3)
H18 H 0.948277 0.168175 0.824948
C41 C 0.8012(4) 0.1988(4) 0.500000
C42 C 0.7499(4) 0.2501(4) 0.500000
O9 O 0.7158(18) 0.2554(18) 0.305(3)
C43 C 0.7907(8) 0.1406(7) 0.309(3)
H19 H 0.751966 0.133481 0.182745
C44 C 0.8396(8) 0.0899(8) 0.304(3)
H20 H 0.831825 0.051723 0.175052
O10 O 0.7446(18) 0.2842(18) 0.695(3)
C7 C 0.9507(5) 0.9014(7) 0.500000
C8 C 0.8989(5) 0.7978(7) 0.500000
C9 C 0.7907(8) 0.6501(11) 0.691(3)
H3 H 0.751966 0.618485 0.817255
C10 C 0.8396(8) 0.7497(11) 0.696(3)
H4 H 0.831825 0.780102 0.824948
C11 C 0.8012(4) 0.6024(6) 0.500000
C12 C 0.7499(4) 0.4998(6) 0.500000
O2 O 0.7446(18) 0.4604(25) 0.305(3)
C21 C 0.8594(7) 0.6501(11) 0.309(3)
H9 H 0.866519 0.618485 0.182745
C22 C 0.9101(8) 0.7497(11) 0.304(3)
H10 H 0.948277 0.780102 0.175052
O5 O 0.7158(18) 0.4604(25) 0.695(3)
C31 C 0.9014(7) 0.9507(5) 0.500000
C32 C 0.7978(7) 0.8989(5) 0.500000
C33 C 0.6501(11) 0.8594(7) 0.691(3)
H15 H 0.618485 0.866519 0.817255
C34 C 0.7497(11) 0.9101(8) 0.696(3)
H16 H 0.780102 0.948277 0.824948
C35 C 0.6024(6) 0.8012(4) 0.500000
C36 C 0.4998(6) 0.7499(4) 0.500000
C45 C 0.6501(11) 0.7907(8) 0.309(3)
H21 H 0.618485 0.751966 0.182745
C46 C 0.7497(11) 0.8396(8) 0.304(3)
H22 H 0.780102 0.831825 0.175052
loop_
_geom_bond_atom_site_label_1
_geom_bond_atom_site_label_2
_geom_bond_site_symmetry_1
_geom_bond_site_symmetry_2
C14 C13 1_555 1_555
C15 H5 1_555 1_555
C16 C14 1_555 1_555
H6 C16 1_555 1_555
C17 C15 1_555 1_555
C18 C17 1_555 1_555
O3 C18 1_555 1_555
C19 C17 1_555 1_555
H7 C19 1_555 1_555
C20 C14 1_555 1_555
H8 C20 1_555 1_555
O4 C18 1_555 1_555
C25 C13 1_555 1_555
C26 C25 1_555 1_555
C27 H13 1_555 1_555
C28 C26 1_555 1_555
H14 C28 1_555 1_555
C29 C27 1_555 1_555
C30 C29 1_555 1_555
O7 C30 1_555 1_555
C47 C29 1_555 1_555
H23 C47 1_555 1_555
C48 C26 1_555 1_555
H24 C48 1_555 1_555
O12 C30 1_555 1_555
La6 O7 1_555 1_555
La6_2 O12 1_555 1_555
La12 O3 1_555 1_555
La12_2 O4 1_555 1_555
C15 C16 1_555 1_555
C19 C20 1_555 1_555
C27 C28 1_555 1_555
C47 C48 1_555 1_555
La6 O1 1_555 1_555
C1 C2 1_555 1_555
C2 C4 1_555 1_555
C3 H1 1_555 1_555
C4 C3 1_555 1_555
H2 C4 1_555 1_555
C5 C3 1_555 1_555
C6 C5 1_555 1_555
O1 C6 1_555 1_555
C23 C5 1_555 1_555
H11 C23 1_555 1_555
C24 C2 1_555 1_555
H12 C24 1_555 1_555
O6 C6 1_555 1_555
La6_2 O6 1_555 1_555
O16 La6 1_555 1_555
C23 C24 1_555 1_555
O20 La6_2 1_555 1_555
C38 C37 1_555 1_555
C39 H17 1_555 1_555
C40 C38 1_555 1_555
H18 C40 1_555 1_555
C41 C39 1_555 1_555
C42 C41 1_555 1_555
O9 C42 1_555 1_555
C43 C41 1_555 1_555
H19 C43 1_555 1_555
C44 C38 1_555 1_555
H20 C44 1_555 1_555
O10 C42 1_555 1_555
La12 O9 1_555 1_555
La12_2 O10 1_555 1_555
C39 C40 1_555 1_555
C43 C44 1_555 1_555
C8 C7 1_555 1_555
C9 H3 1_555 1_555
C10 C8 1_555 1_555
H4 C10 1_555 1_555
C11 C9 1_555 1_555
C12 C11 1_555 1_555
O2 C12 1_555 1_555
C21 C11 1_555 1_555
H9 C21 1_555 1_555
C22 C8 1_555 1_555
H10 C22 1_555 1_555
O5 C12 1_555 1_555
C31 C7 1_555 1_555
C32 C31 1_555 1_555
C33 H15 1_555 1_555
C34 C32 1_555 1_555
H16 C34 1_555 1_555
C35 C33 1_555 1_555
C36 C35 1_555 1_555
O16 C36 1_555 1_555
C45 C35 1_555 1_555
H21 C45 1_555 1_555
C46 C32 1_555 1_555
H22 C46 1_555 1_555
O20 C36 1_555 1_555
La12 O2 1_555 1_555
La12_2 O5 1_555 1_555
C9 C10 1_555 1_555
C21 C22 1_555 1_555
C33 C34 1_555 1_555
C45 C46 1_555 1_555

#END
