
###############################################################################
#
# This file contains modified crystal structure data generated from the
# MOF subset of the Cambridge Structural Database (CSD) v543 
# hosted by the Cambridge Crystallographic Data Centre (CCDC).
#
# This work is licensed under the Creative Commons
# Attribution-NonCommercial-ShareAlike 4.0 International License.
# To view a copy of this license, visit
# http://creativecommons.org/licenses/by-nc-sa/4.0/
# or send a letter to
# Creative Commons, PO Box 1866, Mountain View, CA 94042, USA.
#
# CIF created using the CSD Python API on 29 September 2022
# The structure has been converted into the P1 space group
# The structure has a 3D framework
# The original CSD entry FAZROR is in the monoclinic crystal system
# The framework has been calculated to contain at least 10.0% void space
# The void calculation uses a probe of radius 1.32A, grid spacing 0.4
#
###############################################################################

data_FAZROR
_chemical_formula_moiety         '(C96 H72 N8 O20 Zn4)n'
_symmetry_cell_setting           triclinic
_symmetry_space_group_name_H-M   'P 1'
_symmetry_Int_Tables_number      1
_space_group_name_Hall           'P 1'
loop_
_symmetry_equiv_pos_site_id
_symmetry_equiv_pos_as_xyz
1 x,y,z
_cell_length_a                   10.2049(9)
_cell_length_b                   13.5779(11)
_cell_length_c                   17.1942(14)
_cell_angle_alpha                90
_cell_angle_beta                 106.018(3)
_cell_angle_gamma                90
_cell_volume                     2289.95
loop_
_atom_site_label
_atom_site_type_symbol
_atom_site_fract_x
_atom_site_fract_y
_atom_site_fract_z
C5 C 0.0786(7) 0.3705(6) 0.0092(4)
H2 H 0.165582 0.384910 0.041686
C11 C 0.000000 0.2248(10) 0.250000
H5 H 0.000000 0.156344 0.250001
C12 C -0.000000 0.4273(8) 0.250000
H6 H 0.000001 0.495777 0.250001
O6 O 0.4198(5) 0.3002(4) 0.6036(3)
O7 O 0.3388(5) 0.2725(4) 0.7088(3)
O10 O 0.0150(6) 0.4320(4) 0.3873(3)
C25 C 0.3250(7) 0.2979(5) 0.6380(4)
C26 C 0.1830(6) 0.3234(5) 0.5857(4)
C27 C 0.1646(7) 0.3613(6) 0.5082(4)
H19 H 0.238679 0.370425 0.487376
C28 C 0.0330(8) 0.3856(6) 0.4623(4)
C31 C 0.0699(7) 0.3118(5) 0.6169(4)
H21 H 0.082547 0.289775 0.669687
C33 C 0.0091(7) 0.3753(6) 0.3209(4)
C34 C 0.0105(9) 0.2745(7) 0.3214(5)
H22 H 0.018309 0.240008 0.369233
Zn5 Zn 0.37709(7) 0.29455(6) 0.83146(5)
Zn8 Zn 0.62291(7) 0.29455(6) 0.66854(5)
O3 O 0.1667(5) 0.3017(4) 0.8256(3)
O4 O 0.3000(5) 0.3195(4) 0.9476(3)
C6 C 0.0606(7) 0.3333(6) 0.9311(4)
C8 C 0.1834(7) 0.3190(6) 0.9003(4)
O5 O 0.9850(6) 0.4320(4) 0.1127(3)
H1 H 0.761321 0.370425 0.012624
C4 C 0.9670(8) 0.3856(6) 0.0377(4)
C9 C 0.9909(7) 0.3753(6) 0.1791(4)
C10 C 0.9895(9) 0.2745(7) 0.1786(5)
H4 H 0.981691 0.240008 0.130767
C11_2 C 1.000000 0.2248(10) 0.250000
H5_2 H 1.000000 0.156344 0.250001
C12_2 C 1.000000 0.4273(8) 0.250000
H6_2 H 1.000001 0.495777 0.250001
O8 O 0.8333(5) 0.3017(4) 0.6744(3)
O9 O 0.7000(5) 0.3195(4) 0.5524(3)
C29 C 0.9214(7) 0.3705(6) 0.4908(4)
H20 H 0.834418 0.384910 0.458314
C30 C 0.9394(7) 0.3333(6) 0.5689(4)
C32 C 0.8166(7) 0.3190(6) 0.5997(4)
O1 O 0.5802(5) 0.3002(4) 0.8964(3)
O2 O 0.6612(5) 0.2725(4) 0.7912(3)
N1 N 0.3800(7) 0.1367(5) 0.8498(5)
C1 C 0.6750(7) 0.2979(5) 0.8620(4)
C2 C 0.8170(6) 0.3234(5) 0.9143(4)
C3 C 0.8354(7) 0.3613(6) 0.9918(4)
C7 C 0.9301(7) 0.3118(5) 0.8831(4)
H3 H 0.917453 0.289775 0.830313
C19 C 0.4940(9) 0.0824(7) 0.8542(9)
H13 H 0.572275 0.113556 0.848915
C22 C 0.2622(9) 0.0880(7) 0.8506(9)
H15 H 0.180456 0.122511 0.840169
N3 N 0.6200(7) 0.1367(5) 0.6502(5)
C41 C 0.5060(9) 0.0824(7) 0.6458(9)
H29 H 0.427725 0.113556 0.651085
C44 C 0.7378(9) 0.0880(7) 0.6494(9)
H31 H 0.819544 0.122511 0.659831
N5 N 0.3877(6) 0.4528(5) 0.8232(3)
N6 N 0.6123(6) 0.4528(5) 0.6768(3)
C13 C 0.3255(7) 0.5060(6) 0.7585(5)
H7 H 0.277769 0.473050 0.711907
C14 C 0.3283(8) 0.6066(6) 0.7570(5)
H8 H 0.285226 0.640201 0.709761
C15 C 0.3953(9) 0.6586(6) 0.8259(5)
C16 C 0.4618(9) 0.6040(6) 0.8927(5)
H9 H 0.509668 0.635284 0.940148
C17 C 0.4565(8) 0.5033(6) 0.8885(5)
H10 H 0.503724 0.467893 0.933862
C18 C 0.4012(13) 0.7706(8) 0.8225(7)
H11 H 0.488444 0.789296 0.814687
H12 H 0.330856 0.792804 0.775441
C20 C 0.4954(11) 0.9820(7) 0.8665(10)
H14 H 0.572132 0.945427 0.865798
C21 C 0.3833(12) 0.9360(7) 0.8796(9)
C23 C 0.3843(18) 0.8221(9) 0.8927(10)
H16 H 0.458184 0.804658 0.939652
H17 H 0.299298 0.801999 0.902807
C24 C 0.2644(11) 0.9887(7) 0.8667(8)
H18 H 0.184676 0.956928 0.868846
C35 C 0.6745(7) 0.5060(6) 0.7415(5)
H23 H 0.722231 0.473050 0.788093
C36 C 0.6717(8) 0.6066(6) 0.7430(5)
H24 H 0.714774 0.640201 0.790239
C37 C 0.6047(9) 0.6586(6) 0.6741(5)
C38 C 0.5382(9) 0.6040(6) 0.6073(5)
H25 H 0.490332 0.635284 0.559852
C39 C 0.5435(8) 0.5033(6) 0.6115(5)
H26 H 0.496276 0.467893 0.566138
C40 C 0.5988(13) 0.7706(8) 0.6775(7)
H27 H 0.511556 0.789296 0.685313
H28 H 0.669144 0.792804 0.724559
C42 C 0.5046(11) 0.9820(7) 0.6335(10)
H30 H 0.427868 0.945427 0.634202
C43 C 0.6167(12) 0.9360(7) 0.6204(9)
C45 C 0.6157(18) 0.8221(9) 0.6073(10)
H32 H 0.541816 0.804658 0.560348
H33 H 0.700702 0.801999 0.597193
C46 C 0.7356(11) 0.9887(7) 0.6333(8)
H34 H 0.815324 0.956928 0.631154
N2 N 0.6123(6) 0.5472(5) 0.1768(3)
C13_2 C 0.6745(7) 0.4940(6) 0.2415(5)
H7_2 H 0.722231 0.526950 0.288093
C14_2 C 0.6717(8) 0.3934(6) 0.2430(5)
H8_2 H 0.714774 0.359799 0.290239
C15_2 C 0.6047(9) 0.3414(6) 0.1741(5)
C16_2 C 0.5382(9) 0.3960(6) 0.1073(5)
H9_2 H 0.490332 0.364716 0.059852
C17_2 C 0.5435(8) 0.4967(6) 0.1115(5)
H10_2 H 0.496276 0.532107 0.066138
C18_2 C 0.5988(13) 0.2294(8) 0.1775(7)
H11_2 H 0.511556 0.210704 0.185313
H12_2 H 0.669144 0.207196 0.224559
C20_2 C 0.5046(11) 0.0180(7) 0.1335(10)
H14_2 H 0.427868 0.054573 0.134202
C21_2 C 0.6167(12) 0.0640(7) 0.1204(9)
C23_2 C 0.6157(18) 0.1779(9) 0.1073(10)
H16_2 H 0.541816 0.195342 0.060348
H17_2 H 0.700702 0.198001 0.097193
C24_2 C 0.7356(11) 0.0113(7) 0.1333(8)
H18_2 H 0.815324 0.043072 0.131154
N4 N 0.3877(6) 0.5472(5) 0.3232(3)
C35_2 C 0.3255(7) 0.4940(6) 0.2585(5)
H23_2 H 0.277769 0.526950 0.211907
C36_2 C 0.3283(8) 0.3934(6) 0.2570(5)
H24_2 H 0.285226 0.359799 0.209761
C37_2 C 0.3953(9) 0.3414(6) 0.3259(5)
C38_2 C 0.4618(9) 0.3960(6) 0.3927(5)
H25_2 H 0.509668 0.364716 0.440148
C39_2 C 0.4565(8) 0.4967(6) 0.3885(5)
H26_2 H 0.503724 0.532107 0.433862
C40_2 C 0.4012(13) 0.2294(8) 0.3225(7)
H27_2 H 0.488444 0.210704 0.314687
H28_2 H 0.330856 0.207196 0.275441
C42_2 C 0.4954(11) 0.0180(7) 0.3665(10)
H30_2 H 0.572132 0.054573 0.365798
C43_2 C 0.3833(12) 0.0640(7) 0.3796(9)
C45_2 C 0.3843(18) 0.1779(9) 0.3927(10)
H32_2 H 0.458184 0.195342 0.439652
H33_2 H 0.299298 0.198001 0.402807
C46_2 C 0.2644(11) 0.0113(7) 0.3667(8)
H34_2 H 0.184676 0.043072 0.368846
Zn3 Zn 0.62291(7) 0.70545(6) 0.16854(5)
Zn6 Zn 0.37709(7) 0.70545(6) 0.33146(5)
O1_2 O 0.4198(5) 0.6998(4) 0.1036(3)
O2_2 O 0.3388(5) 0.7275(4) 0.2088(3)
N1_2 N 0.6200(7) 0.8633(5) 0.1502(5)
C1_2 C 0.3250(7) 0.7021(5) 0.1380(4)
C2_2 C 0.1830(6) 0.6766(5) 0.0857(4)
C3_2 C 0.1646(7) 0.6387(6) 0.0082(4)
C7_2 C 0.0699(7) 0.6882(5) 0.1169(4)
H3_2 H 0.082547 0.710225 0.169687
C19_2 C 0.5060(9) 0.9176(7) 0.1458(9)
H13_2 H 0.427725 0.886444 0.151085
C22_2 C 0.7378(9) 0.9120(7) 0.1494(9)
H15_2 H 0.819544 0.877489 0.159831
N3_2 N 0.3800(7) 0.8633(5) 0.3498(5)
C41_2 C 0.4940(9) 0.9176(7) 0.3542(9)
H29_2 H 0.572275 0.886444 0.348915
C44_2 C 0.2622(9) 0.9120(7) 0.3506(9)
H31_2 H 0.180456 0.877489 0.340169
O11 O 0.5802(5) 0.6998(4) 0.3964(3)
O12 O 0.6612(5) 0.7275(4) 0.2912(3)
O13 O 0.8333(5) 0.6983(4) 0.1744(3)
O14 O 0.1667(5) 0.6983(4) 0.3256(3)
O15 O 0.7000(5) 0.6805(4) 0.0524(3)
O16 O 0.3000(5) 0.6805(4) 0.4476(3)
O5_2 O 0.0150(6) 0.5680(4) 0.8873(3)
H1_2 H 0.238679 0.629575 0.987376
C4_2 C 0.0330(8) 0.6144(6) 0.9623(4)
C9_2 C 0.0091(7) 0.6247(6) 0.8209(4)
C10_2 C 0.0105(9) 0.7255(7) 0.8214(5)
H4_2 H 0.018309 0.759992 0.869233
C11_3 C 0.000000 0.7752(10) 0.750000
H5_3 H 0.000000 0.843656 0.749999
C12_3 C 0.000000 0.5727(8) 0.750000
H6_3 H -0.000001 0.504223 0.749999
C29_2 C 0.0786(7) 0.6295(6) 0.5092(4)
H20_2 H 0.165582 0.615090 0.541686
C30_2 C 0.0606(7) 0.6667(6) 0.4311(4)
C32_2 C 0.1834(7) 0.6810(6) 0.4003(4)
C6_2 C 0.9394(7) 0.6667(6) 0.0689(4)
C8_2 C 0.8166(7) 0.6810(6) 0.0997(4)
C5_2 C 0.9214(7) 0.6295(6) 0.9908(4)
H2_2 H 0.834418 0.615090 0.958314
C11_4 C 1.000000 0.7752(10) 0.750000
H5_4 H 1.000000 0.843656 0.749999
C12_4 C 1.000000 0.5727(8) 0.750000
H6_4 H 0.999999 0.504223 0.749999
O10_2 O 0.9850(6) 0.5680(4) 0.6127(3)
C25_2 C 0.6750(7) 0.7021(5) 0.3620(4)
C26_2 C 0.8170(6) 0.6766(5) 0.4143(4)
C27_2 C 0.8354(7) 0.6387(6) 0.4918(4)
H19_2 H 0.761321 0.629575 0.512624
C28_2 C 0.9670(8) 0.6144(6) 0.5377(4)
C31_2 C 0.9301(7) 0.6882(5) 0.3831(4)
H21_2 H 0.917453 0.710225 0.330313
C33_2 C 0.9909(7) 0.6247(6) 0.6791(4)
C34_2 C 0.9895(9) 0.7255(7) 0.6786(5)
H22_2 H 0.981691 0.759992 0.630767
loop_
_geom_bond_atom_site_label_1
_geom_bond_atom_site_label_2
_geom_bond_site_symmetry_1
_geom_bond_site_symmetry_2
H2 C5 1_555 1_555
H5 C11 1_555 1_555
H6 C12 1_555 1_555
O6 C25 1_555 1_555
O7 C25 1_555 1_555
O10 C28 1_555 1_555
C25 C26 1_555 1_555
C26 C27 1_555 1_555
C27 H19 1_555 1_555
C28 C27 1_555 1_555
C31 C26 1_555 1_555
H21 C31 1_555 1_555
C33 C12 1_555 1_555
C34 C11 1_555 1_555
H22 C34 1_555 1_555
Zn5 O7 1_555 1_555
Zn8 O6 1_555 1_555
O10 C33 1_555 1_555
C33 C34 1_555 1_555
O3 C8 1_555 1_555
O4 C8 1_555 1_555
C8 C6 1_555 1_555
Zn5 O3 1_555 1_555
O4 Zn5 1_555 1_555
O5 C4 1_555 1_555
C9 O5 1_555 1_555
C10 C9 1_555 1_555
H4 C10 1_555 1_555
C11_2 C10 1_555 1_555
H5_2 C11_2 1_555 1_555
C12_2 C9 1_555 1_555
H6_2 C12_2 1_555 1_555
O8 C32 1_555 1_555
O9 C32 1_555 1_555
H20 C29 1_555 1_555
C30 C29 1_555 1_555
C32 C30 1_555 1_555
Zn8 O8 1_555 1_555
O9 Zn8 1_555 1_555
Zn5 O1 1_555 1_555
O1 C1 1_555 1_555
O2 C1 1_555 1_555
N1 Zn5 1_555 1_555
C1 C2 1_555 1_555
C2 C3 1_555 1_555
C7 C2 1_555 1_555
H3 C7 1_555 1_555
C19 N1 1_555 1_555
H13 C19 1_555 1_555
C22 N1 1_555 1_555
H15 C22 1_555 1_555
Zn8 O2 1_555 1_555
N3 Zn8 1_555 1_555
C41 N3 1_555 1_555
H29 C41 1_555 1_555
C44 N3 1_555 1_555
H31 C44 1_555 1_555
N5 Zn5 1_555 1_555
N6 Zn8 1_555 1_555
N5 C13 1_555 1_555
C13 H7 1_555 1_555
C14 C13 1_555 1_555
H8 C14 1_555 1_555
C15 C14 1_555 1_555
C16 C15 1_555 1_555
H9 C16 1_555 1_555
C17 N5 1_555 1_555
H10 C17 1_555 1_555
C18 C15 1_555 1_555
H11 C18 1_555 1_555
H12 C18 1_555 1_555
H14 C20 1_555 1_555
C21 C20 1_555 1_555
C23 C18 1_555 1_555
H16 C23 1_555 1_555
H17 C23 1_555 1_555
C24 C21 1_555 1_555
H18 C24 1_555 1_555
N6 C35 1_555 1_555
C35 H23 1_555 1_555
C36 C35 1_555 1_555
H24 C36 1_555 1_555
C37 C36 1_555 1_555
C38 C37 1_555 1_555
H25 C38 1_555 1_555
C39 N6 1_555 1_555
H26 C39 1_555 1_555
C40 C37 1_555 1_555
H27 C40 1_555 1_555
H28 C40 1_555 1_555
H30 C42 1_555 1_555
C43 C42 1_555 1_555
C45 C40 1_555 1_555
H32 C45 1_555 1_555
H33 C45 1_555 1_555
C46 C43 1_555 1_555
H34 C46 1_555 1_555
C16 C17 1_555 1_555
C21 C23 1_555 1_555
C38 C39 1_555 1_555
C43 C45 1_555 1_555
N2 C13_2 1_555 1_555
C13_2 H7_2 1_555 1_555
C14_2 C13_2 1_555 1_555
H8_2 C14_2 1_555 1_555
C15_2 C14_2 1_555 1_555
C16_2 C15_2 1_555 1_555
H9_2 C16_2 1_555 1_555
C17_2 N2 1_555 1_555
H10_2 C17_2 1_555 1_555
C18_2 C15_2 1_555 1_555
H11_2 C18_2 1_555 1_555
H12_2 C18_2 1_555 1_555
H14_2 C20_2 1_555 1_555
C21_2 C20_2 1_555 1_555
C23_2 C18_2 1_555 1_555
H16_2 C23_2 1_555 1_555
H17_2 C23_2 1_555 1_555
C24_2 C21_2 1_555 1_555
H18_2 C24_2 1_555 1_555
N4 C35_2 1_555 1_555
C35_2 H23_2 1_555 1_555
C36_2 C35_2 1_555 1_555
H24_2 C36_2 1_555 1_555
C37_2 C36_2 1_555 1_555
C38_2 C37_2 1_555 1_555
H25_2 C38_2 1_555 1_555
C39_2 N4 1_555 1_555
H26_2 C39_2 1_555 1_555
C40_2 C37_2 1_555 1_555
H27_2 C40_2 1_555 1_555
H28_2 C40_2 1_555 1_555
H30_2 C42_2 1_555 1_555
C43_2 C42_2 1_555 1_555
C45_2 C40_2 1_555 1_555
H32_2 C45_2 1_555 1_555
H33_2 C45_2 1_555 1_555
C46_2 C43_2 1_555 1_555
H34_2 C46_2 1_555 1_555
Zn3 N2 1_555 1_555
Zn6 N4 1_555 1_555
C16_2 C17_2 1_555 1_555
C21_2 C23_2 1_555 1_555
C38_2 C39_2 1_555 1_555
C43_2 C45_2 1_555 1_555
Zn3 O1_2 1_555 1_555
O1_2 C1_2 1_555 1_555
O2_2 C1_2 1_555 1_555
N1_2 Zn3 1_555 1_555
C1_2 C2_2 1_555 1_555
C2_2 C3_2 1_555 1_555
C7_2 C2_2 1_555 1_555
H3_2 C7_2 1_555 1_555
C19_2 N1_2 1_555 1_555
H13_2 C19_2 1_555 1_555
C22_2 N1_2 1_555 1_555
H15_2 C22_2 1_555 1_555
Zn6 O2_2 1_555 1_555
N3_2 Zn6 1_555 1_555
C41_2 N3_2 1_555 1_555
H29_2 C41_2 1_555 1_555
C44_2 N3_2 1_555 1_555
H31_2 C44_2 1_555 1_555
O11 Zn6 1_555 1_555
O12 Zn3 1_555 1_555
O13 Zn3 1_555 1_555
O14 Zn6 1_555 1_555
O15 Zn3 1_555 1_555
O16 Zn6 1_555 1_555
O5_2 C4_2 1_555 1_555
C9_2 O5_2 1_555 1_555
C10_2 C9_2 1_555 1_555
H4_2 C10_2 1_555 1_555
C11_3 C10_2 1_555 1_555
H5_3 C11_3 1_555 1_555
C12_3 C9_2 1_555 1_555
H6_3 C12_3 1_555 1_555
O14 C32_2 1_555 1_555
O16 C32_2 1_555 1_555
H20_2 C29_2 1_555 1_555
C30_2 C29_2 1_555 1_555
C32_2 C30_2 1_555 1_555
O13 C8_2 1_555 1_555
O15 C8_2 1_555 1_555
C8_2 C6_2 1_555 1_555
H2_2 C5_2 1_555 1_555
H5_4 C11_4 1_555 1_555
H6_4 C12_4 1_555 1_555
O11 C25_2 1_555 1_555
O12 C25_2 1_555 1_555
O10_2 C28_2 1_555 1_555
C25_2 C26_2 1_555 1_555
C26_2 C27_2 1_555 1_555
C27_2 H19_2 1_555 1_555
C28_2 C27_2 1_555 1_555
C31_2 C26_2 1_555 1_555
H21_2 C31_2 1_555 1_555
C33_2 C12_4 1_555 1_555
C34_2 C11_4 1_555 1_555
H22_2 C34_2 1_555 1_555
O10_2 C33_2 1_555 1_555
C33_2 C34_2 1_555 1_555

#END
