
###############################################################################
#
# This file contains modified crystal structure data generated from the
# MOF subset of the Cambridge Structural Database (CSD) v543 
# hosted by the Cambridge Crystallographic Data Centre (CCDC).
#
# This work is licensed under the Creative Commons
# Attribution-NonCommercial-ShareAlike 4.0 International License.
# To view a copy of this license, visit
# http://creativecommons.org/licenses/by-nc-sa/4.0/
# or send a letter to
# Creative Commons, PO Box 1866, Mountain View, CA 94042, USA.
#
# CIF created using the CSD Python API on 29 September 2022
# The structure has been converted into the P1 space group
# The structure has a 3D framework
# The original CSD entry FECWOB01 is in the triclinic crystal system
# The framework has been calculated to contain at least 10.0% void space
# The void calculation uses a probe of radius 1.32A, grid spacing 0.4
#
###############################################################################

data_FECWOB01
_chemical_formula_moiety         '(C32 H16 N16 O8 Zn4)n'
_symmetry_cell_setting           triclinic
_symmetry_space_group_name_H-M   'P 1'
_symmetry_Int_Tables_number      1
_space_group_name_Hall           'P 1'
loop_
_symmetry_equiv_pos_site_id
_symmetry_equiv_pos_as_xyz
1 x,y,z
_cell_length_a                   6.791(3)
_cell_length_b                   9.604(4)
_cell_length_c                   17.722(10)
_cell_angle_alpha                101.826(10)
_cell_angle_beta                 96.500(10)
_cell_angle_gamma                106.425(7)
_cell_volume                     1066.96
loop_
_atom_site_label
_atom_site_type_symbol
_atom_site_fract_x
_atom_site_fract_y
_atom_site_fract_z
Zn5 Zn 0.15857(19) 0.19034(14) 0.25068(7)
C1 C 0.061(2) 0.8093(13) 0.1295(6)
C4 C 0.124(2) 0.8714(14) 0.0086(7)
C7 C 0.166(2) 0.9086(13) 0.0899(7)
H4 H 0.2645 0.9992 0.1174
N1 N 0.116(2) 0.7550(11) 0.2615(6)
C8 C 0.108(2) 0.8498(14) 0.2170(7)
N5 N 0.165(2) 0.8356(16) 0.3346(9)
N6 N 0.185(3) 0.9717(18) 0.3334(10)
N8 N 0.153(2) 0.9873(12) 0.2617(6)
Zn3 Zn 0.07651(19) 0.53716(14) 0.24926(7)
H1 H 0.1913 0.9383 0.9815
N10 N 0.2292(15) 0.5717(11) 0.7634(5)
N12 N 0.847(2) 0.0127(12) 0.7383(6)
Zn1 Zn 0.92349(19) 0.46284(14) 0.75074(7)
Zn2 Zn 0.84143(19) 0.80966(14) 0.74932(7)
C2 C 0.9391(17) 0.6922(13) 0.8807(7)
C3 C 0.9780(18) 0.7321(13) 0.9668(6)
H2 H 0.7818 0.5420 0.9821
O1 O 0.9910(12) 0.7974(9) 0.8473(4)
O2 O 0.8522(12) 0.5554(9) 0.8465(4)
C9 C 0.8092(17) 0.5674(13) 0.6172(6)
C10 C 0.6366(16) 0.3822(12) 0.2820(6)
C11 C 0.6767(18) 0.3689(15) 0.4917(7)
H5 H 0.6464 0.2984 0.5212
C12 C 0.8129(17) 0.6244(14) 0.4867(6)
H6 H 0.8702 0.7255 0.5124
C13 C 0.6317(18) 0.3221(14) 0.4096(7)
H7 H 0.5700 0.2213 0.3841
C14 C 0.7650(16) 0.5179(13) 0.5288(6)
N2 N 0.7708(15) 0.4283(11) 0.2366(5)
O3 O 0.7715(12) 0.4651(9) 0.6517(5)
O4 O 0.8781(13) 0.7061(9) 0.6488(5)
N3 N 0.4825(15) 0.2776(12) 0.1606(5)
N4 N 0.6704(15) 0.3601(12) 0.1598(5)
C15 C 0.7753(19) 0.5798(13) 0.4064(7)
H8 H 0.8130 0.6509 0.3777
C16 C 0.6814(17) 0.4296(12) 0.3674(6)
N7 N 0.4538(15) 0.2885(12) 0.2368(5)
N9 N 0.884(2) 0.2450(11) 0.7385(6)
N11 N 0.5462(15) 0.7115(12) 0.7632(5)
C2_2 C 0.0609(17) 0.3078(13) 0.1193(7)
C3_2 C 0.0220(18) 0.2679(13) 0.0332(6)
H2_2 H 0.2182 0.4580 0.0179
O1_2 O 0.0090(12) 0.2026(9) 0.1527(4)
O2_2 O 0.1478(12) 0.4446(9) 0.1535(4)
C9_2 C 0.1908(17) 0.4326(13) 0.3828(6)
C10_2 C 0.3634(16) 0.6178(12) 0.7180(6)
C11_2 C 0.3233(18) 0.6311(15) 0.5083(7)
H5_2 H 0.3536 0.7016 0.4788
C12_2 C 0.1871(17) 0.3756(14) 0.5133(6)
H6_2 H 0.1298 0.2745 0.4876
C13_2 C 0.3683(18) 0.6779(14) 0.5904(7)
H7_2 H 0.4300 0.7787 0.6159
C14_2 C 0.2350(16) 0.4821(13) 0.4712(6)
O3_2 O 0.2285(12) 0.5349(9) 0.3483(5)
O4_2 O 0.1219(13) 0.2939(9) 0.3512(5)
N3_2 N 0.5175(15) 0.7224(12) 0.8394(5)
N4_2 N 0.3296(15) 0.6399(12) 0.8402(5)
C15_2 C 0.2247(19) 0.4202(13) 0.5936(7)
H8_2 H 0.1870 0.3491 0.6223
C16_2 C 0.3186(17) 0.5704(12) 0.6326(6)
H1_2 H 0.8087 0.0617 0.0185
C1_2 C 0.939(2) 0.1907(13) 0.8705(6)
C4_2 C 0.876(2) 0.1286(14) 0.9914(7)
C7_2 C 0.834(2) 0.0914(13) 0.9101(7)
H4_2 H 0.7355 0.0008 0.8826
C8_2 C 0.892(2) 0.1502(14) 0.7830(7)
N5_2 N 0.835(2) 0.1644(16) 0.6654(9)
N6_2 N 0.815(3) 0.0283(18) 0.6666(10)
C5 C 0.878(2) 0.6341(14) 0.0090(7)
C6 C 0.9193(19) 0.6724(13) 0.0905(7)
H3 H 0.8523 0.6065 0.1183
C5_2 C 0.122(2) 0.3659(14) 0.9910(7)
C6_2 C 0.0807(19) 0.3276(13) 0.9095(7)
H3_2 H 0.1477 0.3935 0.8817
loop_
_geom_bond_atom_site_label_1
_geom_bond_atom_site_label_2
_geom_bond_site_symmetry_1
_geom_bond_site_symmetry_2
C7 C1 1_555 1_555
H4 C7 1_555 1_555
N1 C8 1_555 1_555
C8 C1 1_555 1_555
N5 N1 1_555 1_555
N6 N5 1_555 1_555
N8 C8 1_555 1_555
Zn3 N1 1_555 1_555
C4 C7 1_555 1_555
N6 N8 1_555 1_555
Zn1 O2 1_555 1_555
Zn2 O1 1_555 1_555
C2 C3 1_555 1_555
O1 C2 1_555 1_555
O2 C2 1_555 1_555
C9 C14 1_555 1_555
C10 N2 1_555 1_555
C11 H5 1_555 1_555
C12 H6 1_555 1_555
C13 C11 1_555 1_555
H7 C13 1_555 1_555
C14 C11 1_555 1_555
N2 N4 1_555 1_555
O3 Zn1 1_555 1_555
O4 Zn2 1_555 1_555
N3 N4 1_555 1_555
C15 C12 1_555 1_555
H8 C15 1_555 1_555
C16 C10 1_555 1_555
N7 C10 1_555 1_555
Zn5 N7 1_555 1_555
N9 Zn1 1_555 1_555
N11 Zn2 1_555 1_555
C9 O3 1_555 1_555
C9 O4 1_555 1_555
C12 C14 1_555 1_555
C13 C16 1_555 1_555
N3 N7 1_555 1_555
C15 C16 1_555 1_555
Zn3 O2_2 1_555 1_555
Zn5 O1_2 1_555 1_555
C2_2 C3_2 1_555 1_555
O1_2 C2_2 1_555 1_555
O2_2 C2_2 1_555 1_555
C9_2 C14_2 1_555 1_555
C10_2 N10 1_555 1_555
C11_2 H5_2 1_555 1_555
C12_2 H6_2 1_555 1_555
C13_2 C11_2 1_555 1_555
H7_2 C13_2 1_555 1_555
C14_2 C11_2 1_555 1_555
N10 N4_2 1_555 1_555
O3_2 Zn3 1_555 1_555
O4_2 Zn5 1_555 1_555
N3_2 N4_2 1_555 1_555
C15_2 C12_2 1_555 1_555
H8_2 C15_2 1_555 1_555
C16_2 C10_2 1_555 1_555
N11 C10_2 1_555 1_555
C9_2 O3_2 1_555 1_555
C9_2 O4_2 1_555 1_555
C12_2 C14_2 1_555 1_555
C13_2 C16_2 1_555 1_555
N3_2 N11 1_555 1_555
C15_2 C16_2 1_555 1_555
C7_2 C1_2 1_555 1_555
H4_2 C7_2 1_555 1_555
N9 C8_2 1_555 1_555
C8_2 C1_2 1_555 1_555
N5_2 N9 1_555 1_555
N6_2 N5_2 1_555 1_555
N12 C8_2 1_555 1_555
C4_2 C7_2 1_555 1_555
N6_2 N12 1_555 1_555
C6 C5 1_555 1_555
H3 C6 1_555 1_555
C6_2 C5_2 1_555 1_555
H3_2 C6_2 1_555 1_555

#END
