
###############################################################################
#
# This file contains modified crystal structure data generated from the
# MOF subset of the Cambridge Structural Database (CSD) v543 
# hosted by the Cambridge Crystallographic Data Centre (CCDC).
#
# This work is licensed under the Creative Commons
# Attribution-NonCommercial-ShareAlike 4.0 International License.
# To view a copy of this license, visit
# http://creativecommons.org/licenses/by-nc-sa/4.0/
# or send a letter to
# Creative Commons, PO Box 1866, Mountain View, CA 94042, USA.
#
# CIF created using the CSD Python API on 29 September 2022
# The structure has been converted into the P1 space group
# The structure has a 3D framework
# The original CSD entry FEDREP is in the triclinic crystal system
# The framework has been calculated to contain at least 10.0% void space
# The void calculation uses a probe of radius 1.32A, grid spacing 0.4
#
###############################################################################

data_FEDREP
_chemical_formula_moiety         '(C74 H42 Mn1 N6 O12)n'
_symmetry_cell_setting           triclinic
_symmetry_space_group_name_H-M   'P 1'
_symmetry_Int_Tables_number      1
_space_group_name_Hall           'P 1'
loop_
_symmetry_equiv_pos_site_id
_symmetry_equiv_pos_as_xyz
1 x,y,z
_cell_length_a                   9.5327(18)
_cell_length_b                   10.2388(18)
_cell_length_c                   17.732(3)
_cell_angle_alpha                100.063(13)
_cell_angle_beta                 90.422(14)
_cell_angle_gamma                100.163(14)
_cell_volume                     1676.04
loop_
_atom_site_label
_atom_site_type_symbol
_atom_site_fract_x
_atom_site_fract_y
_atom_site_fract_z
_atom_site_U_iso_or_equiv
_atom_site_thermal_displace_type
H17 H 0.085894 0.060995 0.223148 0.0650 Uiso
Mn5 Mn 0.10352(9) 0.88271(7) 0.05634(4) 0.0344 Uani
C33 C 0.0070(6) 0.9937(6) 0.2248(3) 0.0544 Uani
Mn8 Mn 0.89648(9) 0.11729(7) 0.94366(4) 0.0344 Uani
O16 O 0.2025(4) 0.0860(3) 0.09905(18) 0.0431 Uani
O1 O 0.0967(4) 0.6662(3) 0.0528(2) 0.0506 Uani
O2 O 0.2526(4) 0.7976(3) 0.1368(2) 0.0553 Uani
O3 O 0.5896(5) 0.5121(4) 0.2704(2) 0.0670 Uani
O4 O 0.1384(6) 0.4227(6) 0.3523(2) 0.0967 Uani
O5 O 0.0891(4) 0.1650(3) 0.0118(2) 0.0440 Uani
N1 N 0.3636(6) 0.4762(4) 0.3125(2) 0.0459 Uani
C1 C 0.1869(6) 0.6827(5) 0.1067(3) 0.0373 Uani
C2 C 0.2193(6) 0.5606(5) 0.1361(3) 0.0375 Uani
C3 C 0.2837(6) 0.5756(5) 0.2074(3) 0.0468 Uani
H1 H 0.311230 0.660933 0.237040 0.0560 Uiso
C4 C 0.3072(6) 0.4619(5) 0.2349(3) 0.0452 Uani
C5 C 0.5127(8) 0.5000(5) 0.3240(3) 0.0510 Uani
C6 C 0.5688(7) 0.5135(5) 0.4034(3) 0.0447 Uani
C7 C 0.4708(7) 0.4943(5) 0.4625(3) 0.0438 Uani
C8 C 0.3232(7) 0.4655(5) 0.4479(3) 0.0479 Uani
C9 C 0.2646(9) 0.4519(6) 0.3686(3) 0.0606 Uani
C10 C 0.2324(7) 0.4477(5) 0.5067(3) 0.0527 Uani
H2 H 0.134251 0.428838 0.496757 0.0630 Uiso
C11 C 0.7137(7) 0.5421(6) 0.4196(3) 0.0492 Uani
H3 H 0.775997 0.554802 0.380327 0.0590 Uiso
C12 C 0.2692(6) 0.3365(5) 0.1910(3) 0.0424 Uani
H4 H 0.285713 0.261201 0.209871 0.0510 Uiso
C13 C 0.2067(6) 0.3210(5) 0.1192(3) 0.0347 Uani
C14 C 0.1611(6) 0.1801(5) 0.0723(3) 0.0308 Uani
C15 C 0.1770(5) 0.4337(5) 0.0922(3) 0.0355 Uani
H5 H 0.129239 0.423528 0.045007 0.0420 Uiso
O7 O 0.9033(4) 0.3338(3) 0.9472(2) 0.0506 Uani
O8 O 0.7474(4) 0.2024(3) 0.8632(2) 0.0553 Uani
O9 O 0.4104(5) 0.4879(4) 0.7296(2) 0.0670 Uani
O10 O 0.8616(6) 0.5773(6) 0.6477(2) 0.0967 Uani
O11 O 0.9109(4) 0.8350(3) 0.9882(2) 0.0440 Uani
O12 O 0.7975(4) 0.9140(3) 0.90095(18) 0.0431 Uani
N4 N 0.6364(6) 0.5238(4) 0.6875(2) 0.0459 Uani
C38 C 0.8131(6) 0.3173(5) 0.8933(3) 0.0373 Uani
C39 C 0.7807(6) 0.4394(5) 0.8639(3) 0.0375 Uani
C40 C 0.7163(6) 0.4244(5) 0.7926(3) 0.0468 Uani
H22 H 0.688770 0.339067 0.762960 0.0560 Uiso
C41 C 0.6928(6) 0.5381(5) 0.7651(3) 0.0452 Uani
C42 C 0.4873(8) 0.5000(5) 0.6760(3) 0.0510 Uani
C43 C 0.4312(7) 0.4865(5) 0.5966(3) 0.0447 Uani
C44 C 0.5292(7) 0.5057(5) 0.5375(3) 0.0438 Uani
C45 C 0.6768(7) 0.5345(5) 0.5521(3) 0.0479 Uani
C46 C 0.7354(9) 0.5481(6) 0.6314(3) 0.0606 Uani
C47 C 0.7676(7) 0.5523(5) 0.4933(3) 0.0527 Uani
H23 H 0.865749 0.571162 0.503243 0.0630 Uiso
C48 C 0.2863(7) 0.4579(6) 0.5804(3) 0.0492 Uani
H24 H 0.224003 0.445198 0.619673 0.0590 Uiso
C49 C 0.7308(6) 0.6635(5) 0.8090(3) 0.0424 Uani
H25 H 0.714287 0.738799 0.790129 0.0510 Uiso
C50 C 0.7933(6) 0.6790(5) 0.8808(3) 0.0347 Uani
C51 C 0.8389(6) 0.8199(5) 0.9277(3) 0.0308 Uani
C52 C 0.8230(5) 0.5663(5) 0.9078(3) 0.0355 Uani
H26 H 0.870761 0.576472 0.954993 0.0420 Uiso
C70 C 0.9930(6) 0.0063(6) 0.7752(3) 0.0544 Uani
H6 H 0.368058 0.046511 0.979185 0.0590 Uiso
H7 H 0.482003 0.046055 0.866271 0.0700 Uiso
H16 H 0.972767 0.057969 0.335731 0.0720 Uiso
N2 N 0.2300(5) 0.8777(4) 0.9498(2) 0.0417 Uani
N3 N 0.9658(5) 0.9055(5) 0.1607(2) 0.0438 Uani
C16 C 0.3383(6) 0.9755(6) 0.9388(3) 0.0494 Uani
C17 C 0.4075(7) 0.9761(6) 0.8706(3) 0.0584 Uani
C18 C 0.3665(6) 0.8732(5) 0.8090(3) 0.0398 Uani
C19 C 0.2546(6) 0.7725(6) 0.8209(3) 0.0489 Uani
H8 H 0.223138 0.699923 0.781557 0.0590 Uiso
C20 C 0.1912(6) 0.7794(5) 0.8893(3) 0.0499 Uani
H9 H 0.115527 0.710936 0.894484 0.0600 Uiso
C21 C 0.4324(6) 0.8714(5) 0.7332(3) 0.0432 Uani
C22 C 0.3571(7) 0.8066(5) 0.6653(3) 0.0482 Uani
H10 H 0.263463 0.762482 0.667304 0.0570 Uiso
C23 C 0.4186(7) 0.8067(5) 0.5959(3) 0.0504 Uani
H11 H 0.364951 0.764497 0.551548 0.0600 Uiso
C24 C 0.5595(6) 0.8684(5) 0.5899(3) 0.0450 Uani
C25 C 0.6347(6) 0.9350(6) 0.6581(3) 0.0504 Uani
H12 H 0.728347 0.978709 0.655914 0.0610 Uiso
C26 C 0.5739(7) 0.9371(6) 0.7276(3) 0.0535 Uani
H13 H 0.626451 0.982448 0.771787 0.0640 Uiso
C27 C 0.6263(7) 0.8706(5) 0.5141(3) 0.0455 Uani
C28 C 0.5452(7) 0.8484(5) 0.4460(3) 0.0455 Uani
H14 H 0.446267 0.831257 0.447504 0.0550 Uiso
C29 C 0.6078(7) 0.8512(5) 0.3761(3) 0.0474 Uani
H15 H 0.550400 0.833916 0.331601 0.0560 Uiso
C30 C 0.7544(7) 0.8792(5) 0.3713(3) 0.0478 Uani
C31 C 0.8261(7) 0.8912(6) 0.2984(3) 0.0485 Uani
C32 C 0.9406(7) 0.9919(6) 0.2932(3) 0.0603 Uani
C34 C 0.8532(7) 0.8157(7) 0.1662(3) 0.0727 Uani
H18 H 0.819796 0.754368 0.121994 0.0870 Uiso
C35 C 0.7785(7) 0.8033(7) 0.2320(3) 0.0703 Uani
H19 H 0.697971 0.736844 0.231207 0.0850 Uiso
C36 C 0.8363(7) 0.8988(7) 0.4392(3) 0.0640 Uani
H20 H 0.935255 0.916650 0.437628 0.0770 Uiso
C37 C 0.7736(7) 0.8924(6) 0.5084(3) 0.0650 Uani
H21 H 0.831117 0.902809 0.552453 0.0780 Uiso
N8 N 0.0342(5) 0.0945(5) 0.8393(2) 0.0438 Uani
N5 N 0.7700(5) 0.1223(4) 0.0502(2) 0.0417 Uani
C53 C 0.6617(6) 0.0245(6) 0.0612(3) 0.0494 Uani
C54 C 0.5925(7) 0.0239(6) 0.1294(3) 0.0584 Uani
C55 C 0.6335(6) 0.1268(5) 0.1910(3) 0.0398 Uani
C56 C 0.7454(6) 0.2275(6) 0.1791(3) 0.0489 Uani
H29 H 0.776862 0.300077 0.218443 0.0590 Uiso
C57 C 0.8088(6) 0.2206(5) 0.1107(3) 0.0499 Uani
H30 H 0.884473 0.289064 0.105516 0.0600 Uiso
C58 C 0.5676(6) 0.1286(5) 0.2668(3) 0.0432 Uani
C59 C 0.6429(7) 0.1934(5) 0.3347(3) 0.0482 Uani
H31 H 0.736537 0.237518 0.332696 0.0570 Uiso
C60 C 0.5814(7) 0.1933(5) 0.4041(3) 0.0504 Uani
H32 H 0.635049 0.235503 0.448452 0.0600 Uiso
C61 C 0.4405(6) 0.1316(5) 0.4101(3) 0.0450 Uani
C62 C 0.3653(6) 0.0650(6) 0.3419(3) 0.0504 Uani
H33 H 0.271653 0.021291 0.344086 0.0610 Uiso
C63 C 0.4261(7) 0.0629(6) 0.2724(3) 0.0535 Uani
H34 H 0.373549 0.017552 0.228213 0.0640 Uiso
C64 C 0.3737(7) 0.1294(5) 0.4859(3) 0.0455 Uani
C65 C 0.4548(7) 0.1516(5) 0.5540(3) 0.0455 Uani
H35 H 0.553733 0.168743 0.552496 0.0550 Uiso
C66 C 0.3922(7) 0.1488(5) 0.6239(3) 0.0474 Uani
H36 H 0.449600 0.166084 0.668399 0.0560 Uiso
C67 C 0.2456(7) 0.1208(5) 0.6287(3) 0.0478 Uani
C68 C 0.1739(7) 0.1088(6) 0.7016(3) 0.0485 Uani
C69 C 0.0594(7) 0.0081(6) 0.7068(3) 0.0603 Uani
C71 C 0.1468(7) 0.1843(7) 0.8338(3) 0.0727 Uani
H39 H 0.180204 0.245632 0.878006 0.0870 Uiso
C72 C 0.2215(7) 0.1967(7) 0.7680(3) 0.0703 Uani
H40 H 0.302029 0.263156 0.768793 0.0850 Uiso
C73 C 0.1637(7) 0.1012(7) 0.5608(3) 0.0640 Uani
H41 H 0.064745 0.083350 0.562372 0.0770 Uiso
C74 C 0.2264(7) 0.1076(6) 0.4916(3) 0.0650 Uani
H42 H 0.168883 0.097191 0.447547 0.0780 Uiso
H27 H 0.631942 0.953489 0.020815 0.0590 Uiso
H28 H 0.517997 0.953945 0.133729 0.0700 Uiso
H37 H 0.027233 0.942031 0.664269 0.0720 Uiso
H38 H 0.914106 0.939005 0.776852 0.0650 Uiso
loop_
_atom_site_aniso_label
_atom_site_aniso_U_11
_atom_site_aniso_U_22
_atom_site_aniso_U_33
_atom_site_aniso_U_23
_atom_site_aniso_U_13
_atom_site_aniso_U_12
Mn5 0.0589 0.0168 0.0271 -0.0001 0.0053 0.0096
C33 0.069 0.042 0.041 -0.002 0.012 -0.011
Mn8 0.0589 0.0168 0.0271 -0.0001 0.0053 0.0096
O16 0.075 0.023 0.034 0.0028 0.0045 0.0187
O1 0.081 0.025 0.047 0.0061 -0.015 0.014
O2 0.085 0.018 0.062 0.0044 -0.009 0.01
O3 0.097 0.069 0.033 0.01 0.002 0.009
O4 0.077 0.158 0.049 0.028 -0.012 -0.004
O5 0.069 0.026 0.035 -0.0053 -0.006 0.0138
N1 0.073 0.032 0.031 0.007 -0.01 0.004
C1 0.066 0.016 0.031 0.004 0.007 0.01
C2 0.061 0.017 0.035 0.005 -0.002 0.008
C3 0.083 0.023 0.035 0.001 -0.012 0.016
C4 0.082 0.026 0.027 -0.001 -0.007 0.014
C5 0.087 0.027 0.037 0.006 -0.005 0.005
C6 0.084 0.023 0.027 0.005 -0.009 0.009
C7 0.077 0.022 0.031 0.001 -0.003 0.009
C8 0.077 0.03 0.035 0.003 -0.009 0.008
C9 0.084 0.057 0.038 0.007 -0.014 0.007
C10 0.074 0.041 0.042 0.007 -0.001 0.008
C11 0.067 0.045 0.035 0.008 -0.004 0.008
C12 0.078 0.025 0.027 0.009 0 0.013
C13 0.054 0.016 0.033 0.002 0.001 0.006
C14 0.047 0.02 0.024 -0.001 0.004 0.007
C15 0.055 0.022 0.031 0.005 0.003 0.011
O7 0.081 0.025 0.047 0.0061 -0.015 0.014
O8 0.085 0.018 0.062 0.0044 -0.009 0.01
O9 0.097 0.069 0.033 0.01 0.002 0.009
O10 0.077 0.158 0.049 0.028 -0.012 -0.004
O11 0.069 0.026 0.035 -0.0053 -0.006 0.0138
O12 0.075 0.023 0.034 0.0028 0.0045 0.0187
N4 0.073 0.032 0.031 0.007 -0.01 0.004
C38 0.066 0.016 0.031 0.004 0.007 0.01
C39 0.061 0.017 0.035 0.005 -0.002 0.008
C40 0.083 0.023 0.035 0.001 -0.012 0.016
C41 0.082 0.026 0.027 -0.001 -0.007 0.014
C42 0.087 0.027 0.037 0.006 -0.005 0.005
C43 0.084 0.023 0.027 0.005 -0.009 0.009
C44 0.077 0.022 0.031 0.001 -0.003 0.009
C45 0.077 0.03 0.035 0.003 -0.009 0.008
C46 0.084 0.057 0.038 0.007 -0.014 0.007
C47 0.074 0.041 0.042 0.007 -0.001 0.008
C48 0.067 0.045 0.035 0.008 -0.004 0.008
C49 0.078 0.025 0.027 0.009 0 0.013
C50 0.054 0.016 0.033 0.002 0.001 0.006
C51 0.047 0.02 0.024 -0.001 0.004 0.007
C52 0.055 0.022 0.031 0.005 0.003 0.011
C70 0.069 0.042 0.041 -0.002 0.012 -0.011
N2 0.06 0.035 0.028 0.001 0.007 0.007
N3 0.051 0.046 0.032 0.001 0.01 0.008
C16 0.07 0.037 0.038 -0.001 0.015 0.008
C17 0.083 0.04 0.047 0.002 0.019 0.002
C18 0.059 0.035 0.029 0.007 0.009 0.017
C19 0.075 0.036 0.031 0 0.015 0.003
C20 0.072 0.035 0.039 0 0.016 0.006
C21 0.066 0.032 0.034 0.009 0.009 0.012
C22 0.072 0.029 0.04 0.004 0.015 0.001
C23 0.074 0.037 0.035 -0.002 0.013 0.004
C24 0.069 0.033 0.036 0.007 0.016 0.016
C25 0.06 0.053 0.041 0.009 0.009 0.017
C26 0.069 0.052 0.043 0.008 0.019 0.02
C27 0.066 0.026 0.043 0.003 0.02 0.007
C28 0.07 0.029 0.04 0.005 0.013 0.016
C29 0.078 0.031 0.033 0.003 0.007 0.012
C30 0.067 0.039 0.038 0.005 0.011 0.013
C31 0.071 0.046 0.031 0.006 0.014 0.018
C32 0.079 0.053 0.039 -0.005 0.019 -0.002
C34 0.093 0.072 0.037 -0.005 0.024 -0.015
C35 0.081 0.069 0.043 -0.008 0.021 -0.018
C36 0.06 0.081 0.042 0.003 0.006 -0.004
C37 0.076 0.078 0.036 0.008 0.012 0.002
N8 0.051 0.046 0.032 0.001 0.01 0.008
N5 0.06 0.035 0.028 0.001 0.007 0.007
C53 0.07 0.037 0.038 -0.001 0.015 0.008
C54 0.083 0.04 0.047 0.002 0.019 0.002
C55 0.059 0.035 0.029 0.007 0.009 0.017
C56 0.075 0.036 0.031 0 0.015 0.003
C57 0.072 0.035 0.039 0 0.016 0.006
C58 0.066 0.032 0.034 0.009 0.009 0.012
C59 0.072 0.029 0.04 0.004 0.015 0.001
C60 0.074 0.037 0.035 -0.002 0.013 0.004
C61 0.069 0.033 0.036 0.007 0.016 0.016
C62 0.06 0.053 0.041 0.009 0.009 0.017
C63 0.069 0.052 0.043 0.008 0.019 0.02
C64 0.066 0.026 0.043 0.003 0.02 0.007
C65 0.07 0.029 0.04 0.005 0.013 0.016
C66 0.078 0.031 0.033 0.003 0.007 0.012
C67 0.067 0.039 0.038 0.005 0.011 0.013
C68 0.071 0.046 0.031 0.006 0.014 0.018
C69 0.079 0.053 0.039 -0.005 0.019 -0.002
C71 0.093 0.072 0.037 -0.005 0.024 -0.015
C72 0.081 0.069 0.043 -0.008 0.021 -0.018
C73 0.06 0.081 0.042 0.003 0.006 -0.004
C74 0.076 0.078 0.036 0.008 0.012 0.002
loop_
_geom_bond_atom_site_label_1
_geom_bond_atom_site_label_2
_geom_bond_site_symmetry_1
_geom_bond_site_symmetry_2
Mn5 O1 1_555 1_555
O1 C1 1_555 1_555
O2 Mn5 1_555 1_555
O3 C5 1_555 1_555
O4 C9 1_555 1_555
O5 C14 1_555 1_555
O16 C14 1_555 1_555
N1 C4 1_555 1_555
C1 O2 1_555 1_555
C2 C1 1_555 1_555
C3 C2 1_555 1_555
H1 C3 1_555 1_555
C4 C3 1_555 1_555
C5 N1 1_555 1_555
C6 C5 1_555 1_555
C7 C6 1_555 1_555
C8 C7 1_555 1_555
C9 N1 1_555 1_555
C10 C8 1_555 1_555
H2 C10 1_555 1_555
C11 C6 1_555 1_555
H3 C11 1_555 1_555
C12 C4 1_555 1_555
H4 C12 1_555 1_555
C13 C12 1_555 1_555
C14 C13 1_555 1_555
C15 C2 1_555 1_555
H5 C15 1_555 1_555
O7 C38 1_555 1_555
O8 C38 1_555 1_555
O9 C42 1_555 1_555
O10 C46 1_555 1_555
O11 C51 1_555 1_555
O12 C51 1_555 1_555
N4 C41 1_555 1_555
C38 C39 1_555 1_555
C39 C40 1_555 1_555
C40 H22 1_555 1_555
C41 C40 1_555 1_555
C42 N4 1_555 1_555
C43 C42 1_555 1_555
C44 C7 1_555 1_555
C45 C44 1_555 1_555
C46 N4 1_555 1_555
C47 C11 1_555 1_555
H23 C47 1_555 1_555
C48 C10 1_555 1_555
H24 C48 1_555 1_555
C49 C41 1_555 1_555
H25 C49 1_555 1_555
C50 C49 1_555 1_555
C51 C50 1_555 1_555
C52 C39 1_555 1_555
H26 C52 1_555 1_555
Mn8 O7 1_555 1_555
C8 C9 1_555 1_555
C13 C15 1_555 1_555
O8 Mn8 1_555 1_555
C43 C44 1_555 1_555
C43 C48 1_555 1_555
C45 C46 1_555 1_555
C45 C47 1_555 1_555
C50 C52 1_555 1_555
C16 N2 1_555 1_555
C17 C16 1_555 1_555
C18 C17 1_555 1_555
C19 C18 1_555 1_555
H8 C19 1_555 1_555
C20 N2 1_555 1_555
H9 C20 1_555 1_555
C21 C18 1_555 1_555
C22 C21 1_555 1_555
H10 C22 1_555 1_555
C23 C22 1_555 1_555
H11 C23 1_555 1_555
C24 C23 1_555 1_555
C25 C24 1_555 1_555
H12 C25 1_555 1_555
C26 C21 1_555 1_555
H13 C26 1_555 1_555
C27 C24 1_555 1_555
C28 C27 1_555 1_555
H14 C28 1_555 1_555
C29 C28 1_555 1_555
H15 C29 1_555 1_555
C30 C29 1_555 1_555
C31 C30 1_555 1_555
C32 C31 1_555 1_555
C34 N3 1_555 1_555
H18 C34 1_555 1_555
C35 C31 1_555 1_555
H19 C35 1_555 1_555
C36 C30 1_555 1_555
H20 C36 1_555 1_555
C37 C27 1_555 1_555
H21 C37 1_555 1_555
C19 C20 1_555 1_555
C25 C26 1_555 1_555
C34 C35 1_555 1_555
C36 C37 1_555 1_555
C53 N5 1_555 1_555
C54 C53 1_555 1_555
C55 C54 1_555 1_555
C56 C55 1_555 1_555
H29 C56 1_555 1_555
C57 N5 1_555 1_555
H30 C57 1_555 1_555
C58 C55 1_555 1_555
C59 C58 1_555 1_555
H31 C59 1_555 1_555
C60 C59 1_555 1_555
H32 C60 1_555 1_555
C61 C60 1_555 1_555
C62 C61 1_555 1_555
H33 C62 1_555 1_555
C63 C58 1_555 1_555
H34 C63 1_555 1_555
C64 C61 1_555 1_555
C65 C64 1_555 1_555
H35 C65 1_555 1_555
C66 C65 1_555 1_555
H36 C66 1_555 1_555
C67 C66 1_555 1_555
C68 C67 1_555 1_555
C69 C68 1_555 1_555
C71 N8 1_555 1_555
H39 C71 1_555 1_555
C72 C68 1_555 1_555
H40 C72 1_555 1_555
C73 C67 1_555 1_555
H41 C73 1_555 1_555
C74 C64 1_555 1_555
H42 C74 1_555 1_555
C56 C57 1_555 1_555
C62 C63 1_555 1_555
C71 C72 1_555 1_555
C73 C74 1_555 1_555

#END
