
###############################################################################
#
# This file contains modified crystal structure data generated from the
# MOF subset of the Cambridge Structural Database (CSD) v543 
# hosted by the Cambridge Crystallographic Data Centre (CCDC).
#
# This work is licensed under the Creative Commons
# Attribution-NonCommercial-ShareAlike 4.0 International License.
# To view a copy of this license, visit
# http://creativecommons.org/licenses/by-nc-sa/4.0/
# or send a letter to
# Creative Commons, PO Box 1866, Mountain View, CA 94042, USA.
#
# CIF created using the CSD Python API on 29 September 2022
# The structure has been converted into the P1 space group
# The structure has a 3D framework
# The original CSD entry FEDRAL is in the triclinic crystal system
# The framework has been calculated to contain at least 10.0% void space
# The void calculation uses a probe of radius 1.32A, grid spacing 0.4
#
###############################################################################

data_FEDRAL
_chemical_formula_moiety         '(C74 H42 Co2 N6 O12)n'
_symmetry_cell_setting           triclinic
_symmetry_space_group_name_H-M   'P 1'
_symmetry_Int_Tables_number      1
_space_group_name_Hall           'P 1'
loop_
_symmetry_equiv_pos_site_id
_symmetry_equiv_pos_as_xyz
1 x,y,z
_cell_length_a                   9.3309(15)
_cell_length_b                   10.1689(16)
_cell_length_c                   17.624(3)
_cell_angle_alpha                99.659(3)
_cell_angle_beta                 90.854(3)
_cell_angle_gamma                100.313(3)
_cell_volume                     1620.17
loop_
_atom_site_label
_atom_site_type_symbol
_atom_site_fract_x
_atom_site_fract_y
_atom_site_fract_z
_atom_site_U_iso_or_equiv
_atom_site_thermal_displace_type
O14 O 0.0886(2) 0.16097(18) 0.50591(9) 0.0241 Uani
N7 N 0.0312(2) 0.1049(2) 0.34263(11) 0.0208 Uani
Co8 Co 0.10231(4) 0.87752(3) 0.55716(2) 0.0160 Uani
C71 C 0.0185(3) 0.9790(3) 0.72336(13) 0.0281 Uani
C28 C 0.4717(3) 0.1587(3) 0.05716(14) 0.0237 Uani
H14 H 0.572692 0.180759 0.056054 0.0280 Uiso
C29 C 0.4065(3) 0.1530(3) 0.12793(13) 0.0233 Uani
H15 H 0.464933 0.172714 0.173071 0.0280 Uiso
C30 C 0.2566(3) 0.1186(3) 0.13191(13) 0.0241 Uani
C31 C 0.1847(3) 0.1088(3) 0.20608(13) 0.0234 Uani
C32 C 0.2411(3) 0.1889(3) 0.27577(14) 0.0271 Uani
H16 H 0.331679 0.245619 0.278185 0.0330 Uiso
C33 C 0.1624(3) 0.1841(3) 0.34118(14) 0.0284 Uani
H17 H 0.202409 0.238858 0.386890 0.0340 Uiso
C35 C 0.0533(3) 0.0199(3) 0.20876(14) 0.0319 Uani
C36 C 0.1719(3) 0.0957(3) 0.06306(15) 0.0333 Uani
H20 H 0.070882 0.075834 0.064446 0.0400 Uiso
O7 O 0.19613(19) 0.07531(17) 0.59538(9) 0.0212 Uani
O9 O 0.6192(2) 0.5194(2) 0.77246(10) 0.0331 Uani
O10 O 0.1514(2) 0.3879(2) 0.83582(11) 0.0396 Uani
O11 O 0.2636(2) 0.79831(19) 0.63025(12) 0.0378 Uani
O12 O 0.0958(2) 0.66479(18) 0.55249(11) 0.0312 Uani
N4 N 0.3851(2) 0.4672(2) 0.80585(11) 0.0237 Uani
C38 C 0.1639(3) 0.1738(2) 0.56677(12) 0.0176 Uani
C39 C 0.2202(3) 0.3146(2) 0.61096(13) 0.0196 Uani
C40 C 0.2907(3) 0.3292(3) 0.68276(14) 0.0236 Uani
H22 H 0.309241 0.253199 0.701233 0.0280 Uiso
C41 C 0.3329(3) 0.4563(3) 0.72642(13) 0.0228 Uani
C42 C 0.5347(3) 0.5018(3) 0.82272(13) 0.0244 Uani
C43 C 0.5823(3) 0.5171(3) 0.90564(13) 0.0229 Uani
C44 C 0.4769(3) 0.4920(2) 0.96047(13) 0.0218 Uani
C45 C 0.3273(3) 0.4522(3) 0.94039(13) 0.0244 Uani
C46 C 0.2776(3) 0.4317(3) 0.85781(14) 0.0256 Uani
C47 C 0.2261(3) 0.4305(3) 0.99494(15) 0.0293 Uani
H23 H 0.127431 0.405738 0.980529 0.0350 Uiso
C48 C 0.7272(3) 0.5541(3) 0.92726(14) 0.0280 Uani
H24 H 0.795442 0.569322 0.890282 0.0340 Uiso
C49 C 0.3117(3) 0.5725(3) 0.69877(14) 0.0236 Uani
H25 H 0.345378 0.658147 0.727630 0.0280 Uiso
C50 C 0.2391(3) 0.5584(3) 0.62723(13) 0.0208 Uani
C51 C 0.1999(3) 0.6824(3) 0.60157(13) 0.0217 Uani
C52 C 0.1912(3) 0.4291(3) 0.58375(13) 0.0206 Uani
H26 H 0.140122 0.419241 0.536806 0.0250 Uiso
H27 H 0.368030 0.035818 0.483508 0.0290 Uiso
H28 H 0.480737 0.036460 0.369206 0.0310 Uiso
N5 N 0.2237(2) 0.8692(2) 0.45397(11) 0.0219 Uani
C53 C 0.3346(3) 0.9658(3) 0.44263(13) 0.0245 Uani
C54 C 0.4027(3) 0.9675(3) 0.37351(14) 0.0258 Uani
C55 C 0.3544(3) 0.8663(3) 0.31052(13) 0.0240 Uani
C56 C 0.2411(4) 0.7635(3) 0.32308(15) 0.0380 Uani
H29 H 0.206639 0.691351 0.283534 0.0460 Uiso
C57 C 0.1804(3) 0.7689(3) 0.39409(15) 0.0364 Uani
H30 H 0.105176 0.698977 0.400832 0.0440 Uiso
C58 C 0.4206(3) 0.8661(3) 0.23384(14) 0.0249 Uani
C59 C 0.3410(3) 0.8030(3) 0.16571(14) 0.0276 Uani
H31 H 0.244961 0.759820 0.168279 0.0330 Uiso
C60 C 0.4016(3) 0.8029(3) 0.09429(14) 0.0263 Uani
H32 H 0.345485 0.760393 0.049941 0.0320 Uiso
C61 C 0.5461(3) 0.8660(3) 0.08821(13) 0.0227 Uani
C62 C 0.6249(3) 0.9305(3) 0.15654(14) 0.0265 Uani
H33 H 0.720810 0.974136 0.154026 0.0320 Uiso
C63 C 0.5639(3) 0.9311(3) 0.22826(14) 0.0251 Uani
H34 H 0.619136 0.975024 0.272639 0.0300 Uiso
C64 C 0.6127(3) 0.8681(3) 0.01193(13) 0.0227 Uani
C74 C 0.7644(3) 0.8979(3) 0.00715(15) 0.0315 Uani
H42 H 0.823532 0.913670 0.051890 0.0380 Uiso
H39 H 0.105984 0.039394 0.723269 0.0340 Uiso
Co1 Co 0.89769(4) 0.12248(3) 0.44284(2) 0.0160 Uani
N2 N 0.7763(2) 0.1308(2) 0.54603(11) 0.0219 Uani
C16 C 0.6654(3) 0.0342(3) 0.55737(13) 0.0245 Uani
C17 C 0.5973(3) 0.0325(3) 0.62649(14) 0.0258 Uani
C18 C 0.6456(3) 0.1337(3) 0.68948(13) 0.0240 Uani
C19 C 0.7589(4) 0.2365(3) 0.67692(15) 0.0380 Uani
H8 H 0.793361 0.308649 0.716466 0.0460 Uiso
C20 C 0.8196(3) 0.2311(3) 0.60591(15) 0.0364 Uani
H9 H 0.894824 0.301023 0.599168 0.0440 Uiso
C21 C 0.5794(3) 0.1339(3) 0.76616(14) 0.0249 Uani
C22 C 0.6590(3) 0.1970(3) 0.83429(14) 0.0276 Uani
H10 H 0.755039 0.240180 0.831721 0.0330 Uiso
C23 C 0.5984(3) 0.1971(3) 0.90571(14) 0.0263 Uani
H11 H 0.654515 0.239607 0.950059 0.0320 Uiso
C24 C 0.4539(3) 0.1340(3) 0.91179(13) 0.0227 Uani
C25 C 0.3751(3) 0.0695(3) 0.84346(14) 0.0265 Uani
H12 H 0.279190 0.025864 0.845974 0.0320 Uiso
C26 C 0.4361(3) 0.0689(3) 0.77174(14) 0.0251 Uani
H13 H 0.380864 0.024976 0.727361 0.0300 Uiso
C27 C 0.3873(3) 0.1319(3) 0.98807(13) 0.0227 Uani
C37 C 0.2356(3) 0.1021(3) 0.99285(15) 0.0315 Uani
H21 H 0.176468 0.086330 0.948110 0.0380 Uiso
O15 O 0.7364(2) 0.20169(19) 0.36975(12) 0.0378 Uani
O17 O 0.9042(2) 0.33521(18) 0.44751(11) 0.0312 Uani
O1 O 0.80387(19) 0.92469(17) 0.40462(9) 0.0212 Uani
O2 O 0.9114(2) 0.83903(18) 0.49409(9) 0.0241 Uani
O3 O 0.3808(2) 0.4806(2) 0.22754(10) 0.0331 Uani
O4 O 0.8486(2) 0.6121(2) 0.16418(11) 0.0396 Uani
N1 N 0.6149(2) 0.5328(2) 0.19415(11) 0.0237 Uani
C1 C 0.8361(3) 0.8262(2) 0.43323(12) 0.0176 Uani
C2 C 0.7798(3) 0.6854(2) 0.38904(13) 0.0196 Uani
C3 C 0.7093(3) 0.6708(3) 0.31724(14) 0.0236 Uani
H1 H 0.690759 0.746801 0.298767 0.0280 Uiso
C4 C 0.6671(3) 0.5437(3) 0.27358(13) 0.0228 Uani
C5 C 0.4653(3) 0.4982(3) 0.17728(13) 0.0244 Uani
C6 C 0.4177(3) 0.4829(3) 0.09436(13) 0.0229 Uani
C7 C 0.5231(3) 0.5080(2) 0.03953(13) 0.0218 Uani
C8 C 0.6727(3) 0.5478(3) 0.05961(13) 0.0244 Uani
C9 C 0.7224(3) 0.5683(3) 0.14219(14) 0.0256 Uani
C10 C 0.7739(3) 0.5695(3) 0.00506(15) 0.0293 Uani
H2 H 0.872569 0.594262 0.019471 0.0350 Uiso
C11 C 0.2728(3) 0.4459(3) 0.07274(14) 0.0280 Uani
H3 H 0.204558 0.430678 0.109718 0.0340 Uiso
C12 C 0.6883(3) 0.4275(3) 0.30123(14) 0.0236 Uani
H4 H 0.654622 0.341853 0.272370 0.0280 Uiso
C13 C 0.7609(3) 0.4416(3) 0.37277(13) 0.0208 Uani
C14 C 0.8001(3) 0.3176(3) 0.39843(13) 0.0217 Uani
C15 C 0.8088(3) 0.5709(3) 0.41625(13) 0.0206 Uani
H5 H 0.859878 0.580759 0.463194 0.0250 Uiso
H6 H 0.631970 0.964182 0.516492 0.0290 Uiso
H7 H 0.519263 0.963540 0.630794 0.0310 Uiso
N6 N 0.9688(2) 0.8951(2) 0.65737(11) 0.0208 Uani
C65 C 0.5283(3) 0.8413(3) 0.94284(14) 0.0237 Uani
H35 H 0.427308 0.819241 0.943946 0.0280 Uiso
C66 C 0.5935(3) 0.8470(3) 0.87207(13) 0.0233 Uani
H36 H 0.535067 0.827286 0.826929 0.0280 Uiso
C67 C 0.7434(3) 0.8814(3) 0.86809(13) 0.0241 Uani
C68 C 0.8153(3) 0.8912(3) 0.79392(13) 0.0234 Uani
C69 C 0.7589(3) 0.8111(3) 0.72423(14) 0.0271 Uani
H37 H 0.668321 0.754381 0.721815 0.0330 Uiso
C70 C 0.8376(3) 0.8159(3) 0.65882(14) 0.0284 Uani
H38 H 0.797591 0.761142 0.613110 0.0340 Uiso
C72 C 0.9467(3) 0.9801(3) 0.79124(14) 0.0319 Uani
C73 C 0.8281(3) 0.9043(3) 0.93694(15) 0.0333 Uani
H41 H 0.929118 0.924166 0.935554 0.0400 Uiso
C34 C 0.9815(3) 0.0210(3) 0.27664(13) 0.0281 Uani
H19 H 0.013956 0.959595 0.164682 0.0380 Uiso
H40 H 0.986044 0.040405 0.835318 0.0380 Uiso
H18 H 0.894016 0.960606 0.276731 0.0340 Uiso
loop_
_atom_site_aniso_label
_atom_site_aniso_U_11
_atom_site_aniso_U_22
_atom_site_aniso_U_33
_atom_site_aniso_U_23
_atom_site_aniso_U_13
_atom_site_aniso_U_12
O14 0.0277 0.028 0.0159 0.0008 -0.0045 0.0064
N7 0.0246 0.026 0.0129 0.0051 0.0031 0.0055
Co8 0.02193 0.01636 0.01029 0.00314 0.00186 0.00418
C71 0.0287 0.0363 0.016 0.0024 0.0031 -0.0012
C28 0.0268 0.0254 0.0213 0.0077 0.0073 0.0073
C29 0.0301 0.0244 0.0166 0.0046 0.0025 0.007
C30 0.0309 0.0256 0.0173 0.0051 0.0089 0.0075
C31 0.0297 0.0253 0.0169 0.006 0.0064 0.0073
C32 0.0283 0.0309 0.0203 0.0065 0.0062 -0.0017
C33 0.0319 0.0337 0.017 0.0037 0.0035 -0.0005
C35 0.0388 0.0376 0.0141 -0.0029 0.0022 -0.0003
C36 0.03 0.05 0.0189 0.0082 0.0089 0.0017
O7 0.0307 0.018 0.0163 0.005 0.0017 0.006
O9 0.0379 0.0434 0.0175 0.008 0.001 0.0033
O10 0.0333 0.0576 0.0243 0.009 -0.0075 -0.0021
O11 0.0492 0.0203 0.0425 0.0079 -0.0142 0.0019
O12 0.0416 0.0226 0.0324 0.0099 -0.0103 0.0102
N4 0.0319 0.0236 0.015 0.0042 -0.0047 0.003
C38 0.0218 0.0183 0.0126 0.0019 0.0039 0.0041
C39 0.0244 0.018 0.0167 0.0035 0.0022 0.0043
C40 0.0327 0.0186 0.0218 0.0073 -0.0017 0.0074
C41 0.0267 0.0282 0.0148 0.0065 -0.0033 0.0065
C42 0.0318 0.0239 0.0188 0.0064 -0.0009 0.0063
C43 0.0303 0.0214 0.0172 0.0046 -0.0032 0.0044
C44 0.031 0.0179 0.017 0.0037 -0.0019 0.0057
C45 0.0331 0.0237 0.017 0.005 -0.0017 0.0057
C46 0.0311 0.0268 0.0181 0.0046 -0.0053 0.0029
C47 0.0312 0.0321 0.0235 0.0049 -0.0029 0.0033
C48 0.0319 0.0298 0.0218 0.0069 0.0009 0.0019
C49 0.0282 0.0217 0.02 0.0021 -0.0015 0.0041
C50 0.023 0.0218 0.0193 0.0062 0.0015 0.0063
C51 0.0291 0.0222 0.0169 0.0069 0.0062 0.0095
C52 0.0238 0.0233 0.0155 0.0061 -0.0015 0.0042
N5 0.0268 0.0245 0.0149 0.0043 0.0062 0.0044
C53 0.0292 0.0267 0.0169 0.0027 0.0049 0.0042
C54 0.0289 0.0271 0.0205 0.0036 0.0081 0.0023
C55 0.0308 0.0259 0.0174 0.0059 0.0073 0.0081
C56 0.05 0.0346 0.0201 -0.0065 0.0121 -0.0076
C57 0.0423 0.0323 0.0246 -0.0042 0.0132 -0.012
C58 0.0359 0.0233 0.0187 0.0066 0.0102 0.0107
C59 0.0324 0.0266 0.0231 0.0047 0.0087 0.0024
C60 0.0346 0.0245 0.0184 0.0019 0.0053 0.0027
C61 0.0334 0.0212 0.017 0.0067 0.0115 0.0106
C62 0.0282 0.0334 0.0193 0.0069 0.0089 0.0068
C63 0.0284 0.0319 0.0168 0.005 0.0048 0.0091
C64 0.0316 0.0224 0.0164 0.0057 0.0097 0.0085
C74 0.031 0.0451 0.0179 0.007 0.0038 0.0038
Co1 0.02193 0.01636 0.01029 0.00314 0.00186 0.00418
N2 0.0268 0.0245 0.0149 0.0043 0.0062 0.0044
C16 0.0292 0.0267 0.0169 0.0027 0.0049 0.0042
C17 0.0289 0.0271 0.0205 0.0036 0.0081 0.0023
C18 0.0308 0.0259 0.0174 0.0059 0.0073 0.0081
C19 0.05 0.0346 0.0201 -0.0065 0.0121 -0.0076
C20 0.0423 0.0323 0.0246 -0.0042 0.0132 -0.012
C21 0.0359 0.0233 0.0187 0.0066 0.0102 0.0107
C22 0.0324 0.0266 0.0231 0.0047 0.0087 0.0024
C23 0.0346 0.0245 0.0184 0.0019 0.0053 0.0027
C24 0.0334 0.0212 0.017 0.0067 0.0115 0.0106
C25 0.0282 0.0334 0.0193 0.0069 0.0089 0.0068
C26 0.0284 0.0319 0.0168 0.005 0.0048 0.0091
C27 0.0316 0.0224 0.0164 0.0057 0.0097 0.0085
C37 0.031 0.0451 0.0179 0.007 0.0038 0.0038
O15 0.0492 0.0203 0.0425 0.0079 -0.0142 0.0019
O17 0.0416 0.0226 0.0324 0.0099 -0.0103 0.0102
O1 0.0307 0.018 0.0163 0.005 0.0017 0.006
O2 0.0277 0.028 0.0159 0.0008 -0.0045 0.0064
O3 0.0379 0.0434 0.0175 0.008 0.001 0.0033
O4 0.0333 0.0576 0.0243 0.009 -0.0075 -0.0021
N1 0.0319 0.0236 0.015 0.0042 -0.0047 0.003
C1 0.0218 0.0183 0.0126 0.0019 0.0039 0.0041
C2 0.0244 0.018 0.0167 0.0035 0.0022 0.0043
C3 0.0327 0.0186 0.0218 0.0073 -0.0017 0.0074
C4 0.0267 0.0282 0.0148 0.0065 -0.0033 0.0065
C5 0.0318 0.0239 0.0188 0.0064 -0.0009 0.0063
C6 0.0303 0.0214 0.0172 0.0046 -0.0032 0.0044
C7 0.031 0.0179 0.017 0.0037 -0.0019 0.0057
C8 0.0331 0.0237 0.017 0.005 -0.0017 0.0057
C9 0.0311 0.0268 0.0181 0.0046 -0.0053 0.0029
C10 0.0312 0.0321 0.0235 0.0049 -0.0029 0.0033
C11 0.0319 0.0298 0.0218 0.0069 0.0009 0.0019
C12 0.0282 0.0217 0.02 0.0021 -0.0015 0.0041
C13 0.023 0.0218 0.0193 0.0062 0.0015 0.0063
C14 0.0291 0.0222 0.0169 0.0069 0.0062 0.0095
C15 0.0238 0.0233 0.0155 0.0061 -0.0015 0.0042
N6 0.0246 0.026 0.0129 0.0051 0.0031 0.0055
C65 0.0268 0.0254 0.0213 0.0077 0.0073 0.0073
C66 0.0301 0.0244 0.0166 0.0046 0.0025 0.007
C67 0.0309 0.0256 0.0173 0.0051 0.0089 0.0075
C68 0.0297 0.0253 0.0169 0.006 0.0064 0.0073
C69 0.0283 0.0309 0.0203 0.0065 0.0062 -0.0017
C70 0.0319 0.0337 0.017 0.0037 0.0035 -0.0005
C72 0.0388 0.0376 0.0141 -0.0029 0.0022 -0.0003
C73 0.03 0.05 0.0189 0.0082 0.0089 0.0017
C34 0.0287 0.0363 0.016 0.0024 0.0031 -0.0012
loop_
_geom_bond_atom_site_label_1
_geom_bond_atom_site_label_2
_geom_bond_site_symmetry_1
_geom_bond_site_symmetry_2
N7 C33 1_555 1_555
H14 C28 1_555 1_555
C29 C28 1_555 1_555
H15 C29 1_555 1_555
C30 C29 1_555 1_555
C31 C30 1_555 1_555
C32 C31 1_555 1_555
H16 C32 1_555 1_555
C33 C32 1_555 1_555
H17 C33 1_555 1_555
C35 C31 1_555 1_555
C36 C30 1_555 1_555
H20 C36 1_555 1_555
O7 C38 1_555 1_555
O14 C38 1_555 1_555
O9 C42 1_555 1_555
O10 C46 1_555 1_555
O11 C51 1_555 1_555
O12 C51 1_555 1_555
N4 C41 1_555 1_555
C38 C39 1_555 1_555
C39 C40 1_555 1_555
C40 H22 1_555 1_555
C41 C40 1_555 1_555
C42 N4 1_555 1_555
C43 C42 1_555 1_555
C45 C44 1_555 1_555
C46 N4 1_555 1_555
H23 C47 1_555 1_555
H24 C48 1_555 1_555
C49 C41 1_555 1_555
H25 C49 1_555 1_555
C50 C49 1_555 1_555
C51 C50 1_555 1_555
C52 C39 1_555 1_555
H26 C52 1_555 1_555
Co8 O11 1_555 1_555
O12 Co8 1_555 1_555
C43 C44 1_555 1_555
C43 C48 1_555 1_555
C45 C46 1_555 1_555
C45 C47 1_555 1_555
C50 C52 1_555 1_555
N5 Co8 1_555 1_555
C53 N5 1_555 1_555
C54 C53 1_555 1_555
C55 C54 1_555 1_555
C56 C55 1_555 1_555
H29 C56 1_555 1_555
C57 N5 1_555 1_555
H30 C57 1_555 1_555
C58 C55 1_555 1_555
C59 C58 1_555 1_555
H31 C59 1_555 1_555
C60 C59 1_555 1_555
H32 C60 1_555 1_555
C61 C60 1_555 1_555
C62 C61 1_555 1_555
H33 C62 1_555 1_555
C63 C58 1_555 1_555
H34 C63 1_555 1_555
C64 C61 1_555 1_555
C74 C64 1_555 1_555
H42 C74 1_555 1_555
C56 C57 1_555 1_555
C62 C63 1_555 1_555
N2 Co1 1_555 1_555
C16 N2 1_555 1_555
C17 C16 1_555 1_555
C18 C17 1_555 1_555
C19 C18 1_555 1_555
H8 C19 1_555 1_555
C20 N2 1_555 1_555
H9 C20 1_555 1_555
C21 C18 1_555 1_555
C22 C21 1_555 1_555
H10 C22 1_555 1_555
C23 C22 1_555 1_555
H11 C23 1_555 1_555
C24 C23 1_555 1_555
C25 C24 1_555 1_555
H12 C25 1_555 1_555
C26 C21 1_555 1_555
H13 C26 1_555 1_555
C27 C24 1_555 1_555
C37 C27 1_555 1_555
H21 C37 1_555 1_555
O15 Co1 1_555 1_555
O17 Co1 1_555 1_555
C19 C20 1_555 1_555
C25 C26 1_555 1_555
O1 C1 1_555 1_555
O2 C1 1_555 1_555
O3 C5 1_555 1_555
O4 C9 1_555 1_555
O15 C14 1_555 1_555
O17 C14 1_555 1_555
N1 C4 1_555 1_555
C1 C2 1_555 1_555
C2 C3 1_555 1_555
C3 H1 1_555 1_555
C4 C3 1_555 1_555
C5 N1 1_555 1_555
C6 C5 1_555 1_555
C7 C6 1_555 1_555
C8 C7 1_555 1_555
C9 N1 1_555 1_555
C10 C8 1_555 1_555
H2 C10 1_555 1_555
C11 C6 1_555 1_555
H3 C11 1_555 1_555
C12 C4 1_555 1_555
H4 C12 1_555 1_555
C13 C12 1_555 1_555
C14 C13 1_555 1_555
C15 C2 1_555 1_555
H5 C15 1_555 1_555
C8 C9 1_555 1_555
C13 C15 1_555 1_555
N6 C70 1_555 1_555
H35 C65 1_555 1_555
C66 C65 1_555 1_555
H36 C66 1_555 1_555
C67 C66 1_555 1_555
C68 C67 1_555 1_555
C69 C68 1_555 1_555
H37 C69 1_555 1_555
C70 C69 1_555 1_555
H38 C70 1_555 1_555
C72 C68 1_555 1_555
C73 C67 1_555 1_555
H41 C73 1_555 1_555

#END
