
###############################################################################
#
# This file contains modified crystal structure data generated from the
# MOF subset of the Cambridge Structural Database (CSD) v543 
# hosted by the Cambridge Crystallographic Data Centre (CCDC).
#
# This work is licensed under the Creative Commons
# Attribution-NonCommercial-ShareAlike 4.0 International License.
# To view a copy of this license, visit
# http://creativecommons.org/licenses/by-nc-sa/4.0/
# or send a letter to
# Creative Commons, PO Box 1866, Mountain View, CA 94042, USA.
#
# CIF created using the CSD Python API on 29 September 2022
# The structure has been converted into the P1 space group
# The structure has a 3D framework
# The original CSD entry FEFCAY is in the monoclinic crystal system
# The framework has been calculated to contain at least 10.0% void space
# The void calculation uses a probe of radius 1.32A, grid spacing 0.4
#
###############################################################################

data_FEFCAY
_chemical_formula_moiety         '(C112 H64 Cu2 N8 O14)n'
_symmetry_cell_setting           triclinic
_symmetry_space_group_name_H-M   'P 1'
_symmetry_Int_Tables_number      1
_space_group_name_Hall           'P 1'
loop_
_symmetry_equiv_pos_site_id
_symmetry_equiv_pos_as_xyz
1 x,y,z
_cell_length_a                   4.8634(2)
_cell_length_b                   45.644(2)
_cell_length_c                   18.3918(8)
_cell_angle_alpha                90
_cell_angle_beta                 93.659(2)
_cell_angle_gamma                90
_cell_volume                     4074.38
loop_
_atom_site_label
_atom_site_type_symbol
_atom_site_fract_x
_atom_site_fract_y
_atom_site_fract_z
N1 N 0.7233(13) 0.33611(15) 0.6384(4)
C3 C 0.4954(15) 0.34207(17) 0.5932(4)
H2 H 0.4203 0.3608 0.5933
C6 C 0.348(2) 0.2699(2) 0.5033(6)
C8 C 0.478(2) 0.2932(2) 0.5504(6)
C10 C 0.374(2) 0.3213(2) 0.5477(6)
H5 H 0.2250 0.3260 0.5157
C17 C 0.1471(19) 0.22733(18) 0.4214(6)
C18 C 0.250(2) 0.2513(2) 0.4675(6)
C24 C 0.272(2) 0.2011(2) 0.4239(6)
H12 H 0.4236 0.1984 0.4566
C26 C 0.1847(19) 0.17830(19) 0.3801(5)
H14 H 0.2754 0.1604 0.3838
C27 C 0.6989(19) 0.28751(17) 0.5962(6)
H15 H 0.7717 0.2687 0.5986
O3 O 0.0202(11) 0.13590(10) 0.2726(3)
C28 C 0.8174(19) 0.30911(15) 0.6390(5)
H16 H 0.9706 0.3045 0.6698
Cu2 Cu 0.38959(15) 0.130741(15) 0.20095(6)
Cu4 Cu 0.88959(15) 0.369259(15) 0.70095(6)
C1 C 0.750(2) 0.0488(2) 0.3404(6)
C2 C 0.843(3) 0.2094(2) 0.3284(8)
H1 H 0.6909 0.2126 0.2960
C4 C 0.8702(16) 0.15688(16) 0.2812(3)
C5 C 0.545(2) 0.0666(2) 0.3687(5)
H3 H 0.4751 0.0624 0.4134
C7 C 0.450(2) 0.0907(2) 0.3276(6)
H4 H 0.3209 0.1029 0.3473
C9 C 0.9626(17) 0.18183(16) 0.3305(4)
N2 N 0.5334(15) 0.09730(15) 0.2626(4)
C12 C 0.934(3) 0.2312(2) 0.3699(8)
H6 H 0.8532 0.2496 0.3642
C13 C 0.8426(18) 0.05672(16) 0.2744(5)
H7 H 0.9809 0.0460 0.2539
C14 C 0.7300(17) 0.08049(16) 0.2388(4)
H8 H 0.7972 0.0853 0.1941
C15 C 0.868(3) 0.0251(2) 0.3823(7)
C16 C 0.955(2) 0.0048(2) 0.4167(6)
O1 O 0.6195(11) 0.15967(11) 0.2544(3)
N3 N 0.2233(13) 0.16389(15) 0.1384(4)
O5 O 0.2320(13) 0.10038(13) 0.1353(3)
C11 C 0.2400(19) 0.0704(2) 0.0348(6)
C19 C 0.349(2) 0.0956(2) 0.0770(5)
C21 C 0.055(4) 0.0532(3) 0.0592(7)
O4 O 0.5331(17) 0.11071(18) 0.0564(5)
N1_2 N 0.7233(13) 0.66389(15) 0.1384(4)
C3_2 C 0.4954(15) 0.65793(17) 0.0932(4)
H2_2 H 0.4203 0.6392 0.0933
C6_2 C 0.348(2) 0.7301(2) 0.0033(6)
C8_2 C 0.478(2) 0.7068(2) 0.0504(6)
C10_2 C 0.374(2) 0.6787(2) 0.0477(6)
H5_2 H 0.2250 0.6740 0.0157
C27_2 C 0.6989(19) 0.71249(17) 0.0962(6)
H15_2 H 0.7717 0.7313 0.0986
C28_2 C 0.8174(19) 0.69089(15) 0.1390(5)
H16_2 H 0.9706 0.6955 0.1698
Cu4_2 Cu 0.88959(15) 0.630741(15) 0.20095(6)
C1_2 C 0.250(2) 0.5488(2) 0.3404(6)
C2_2 C 0.343(3) 0.7094(2) 0.3284(8)
H1_2 H 0.1909 0.7126 0.2960
C3_3 C 0.9954(15) 0.84207(17) 0.5932(4)
H2_3 H 0.9203 0.8608 0.5933
C4_2 C 0.3702(16) 0.65688(16) 0.2812(3)
C5_2 C 0.045(2) 0.5666(2) 0.3687(5)
C6_3 C 0.848(2) 0.7699(2) 0.5033(6)
C8_3 C 0.978(2) 0.7932(2) 0.5504(6)
C9_2 C 0.4626(17) 0.68183(16) 0.3305(4)
C10_3 C 0.874(2) 0.8213(2) 0.5477(6)
H5_3 H 0.7250 0.8260 0.5157
C11_2 C 0.7400(19) 0.4296(2) 0.5348(6)
N2_2 N 0.0334(15) 0.59730(15) 0.2626(4)
C12_2 C 0.434(3) 0.7312(2) 0.3699(8)
H6_2 H 0.3532 0.7496 0.3642
C13_2 C 0.3426(18) 0.55672(16) 0.2744(5)
H7_2 H 0.4809 0.5460 0.2539
C14_2 C 0.2300(17) 0.58049(16) 0.2388(4)
H8_2 H 0.2972 0.5853 0.1941
C15_2 C 0.368(3) 0.5251(2) 0.3823(7)
C16_2 C 0.455(2) 0.5048(2) 0.4167(6)
C17_2 C 0.6471(19) 0.72733(18) 0.4214(6)
O1_2 O 0.1195(11) 0.65967(11) 0.2544(3)
C18_2 C 0.750(2) 0.7513(2) 0.4675(6)
C19_2 C 0.849(2) 0.4044(2) 0.5770(5)
C20 C 0.731(4) 0.4612(3) 0.4292(8)
H9 H 0.7914 0.4643 0.3828
C21_2 C 0.555(4) 0.4468(3) 0.5592(7)
H10 H 0.4755 0.4420 0.6023
C22 C 0.554(2) 0.47946(19) 0.4556(5)
C23 C 0.832(4) 0.4366(4) 0.4714(9)
H11 H 0.9686 0.4251 0.4531
O2 O 0.7320(13) 0.39962(13) 0.6353(3)
C24_2 C 0.772(2) 0.7011(2) 0.4239(6)
H12_2 H 0.9236 0.6984 0.4566
C25 C 0.468(4) 0.4736(3) 0.5213(9)
H13 H 0.3511 0.4867 0.5431
C26_2 C 0.6847(19) 0.67830(19) 0.3801(5)
H14_2 H 0.7754 0.6604 0.3838
O3_2 O 0.5202(11) 0.63590(10) 0.2726(3)
H3_2 H 0.9751 0.5624 0.4134
C7_2 C 0.950(2) 0.5907(2) 0.3276(6)
H4_2 H 0.8209 0.6029 0.3473
O5_2 O 0.7320(13) 0.60038(13) 0.1353(3)
C27_3 C 0.1989(19) 0.21249(17) 0.0962(6)
H15_3 H 0.2717 0.2313 0.0986
O4_2 O 0.0331(17) 0.61071(18) 0.0564(5)
C28_3 C 0.3174(19) 0.19089(15) 0.1390(5)
H16_3 H 0.4706 0.1955 0.1698
C3_4 C 0.9954(15) 0.15793(17) 0.0932(4)
H2_4 H 0.9203 0.1392 0.0933
C6_4 C 0.848(2) 0.2301(2) 0.0033(6)
C8_4 C 0.978(2) 0.2068(2) 0.0504(6)
C10_4 C 0.874(2) 0.1787(2) 0.0477(6)
H5_4 H 0.7250 0.1740 0.0157
C11_3 C 0.7400(19) 0.5704(2) 0.0348(6)
C19_3 C 0.849(2) 0.5956(2) 0.0770(5)
C21_3 C 0.555(4) 0.5532(3) 0.0592(7)
H10_2 H 0.4755 0.5580 0.1023
C25_2 C 0.468(4) 0.5264(3) 0.0213(9)
H13_2 H 0.3511 0.5133 0.0431
C1_3 C 0.250(2) 0.4512(2) 0.8404(6)
C2_3 C 0.343(3) 0.2906(2) 0.8284(8)
H1_3 H 0.1909 0.2874 0.7960
C4_3 C 0.3702(16) 0.34312(16) 0.7812(3)
C5_3 C 0.045(2) 0.4334(2) 0.8687(5)
C9_3 C 0.4626(17) 0.31817(16) 0.8305(4)
N2_3 N 0.0334(15) 0.40270(15) 0.7626(4)
C12_3 C 0.434(3) 0.2688(2) 0.8699(8)
H6_3 H 0.3532 0.2504 0.8642
C13_3 C 0.3426(18) 0.44328(16) 0.7744(5)
H7_3 H 0.4809 0.4540 0.7539
C14_3 C 0.2300(17) 0.41951(16) 0.7388(4)
H8_3 H 0.2972 0.4147 0.6941
C15_3 C 0.368(3) 0.4749(2) 0.8823(7)
C16_3 C 0.455(2) 0.4952(2) 0.9167(6)
C17_3 C 0.6471(19) 0.27267(18) 0.9214(6)
O1_3 O 0.1195(11) 0.34033(11) 0.7544(3)
C18_3 C 0.750(2) 0.2487(2) 0.9675(6)
C20_2 C 0.731(4) 0.5388(3) 0.9292(8)
H9_2 H 0.7914 0.5357 0.8828
C22_2 C 0.554(2) 0.52054(19) 0.9556(5)
C23_2 C 0.832(4) 0.5634(4) 0.9714(9)
H11_2 H 0.9686 0.5749 0.9531
C24_3 C 0.772(2) 0.2989(2) 0.9239(6)
H12_3 H 0.9236 0.3016 0.9566
C26_3 C 0.6847(19) 0.32170(19) 0.8801(5)
H14_3 H 0.7754 0.3396 0.8838
O3_3 O 0.5202(11) 0.36410(10) 0.7726(3)
H3_3 H 0.9751 0.4376 0.9134
C7_3 C 0.950(2) 0.4093(2) 0.8276(6)
H4_3 H 0.8209 0.3971 0.8473
C11_4 C 0.2400(19) 0.9296(2) 0.5348(6)
C19_4 C 0.349(2) 0.9044(2) 0.5770(5)
C20_3 C 0.231(4) 0.9612(3) 0.4292(8)
H9_3 H 0.2914 0.9643 0.3828
C21_4 C 0.055(4) 0.9468(3) 0.5592(7)
C22_3 C 0.054(2) 0.97946(19) 0.4556(5)
C23_3 C 0.332(4) 0.9366(4) 0.4714(9)
H11_3 H 0.4686 0.9251 0.4531
O2_2 O 0.2320(13) 0.89962(13) 0.6353(3)
O4_3 O 0.5331(17) 0.88929(18) 0.5564(5)
Cu3 Cu 0.38959(15) 0.869259(15) 0.70095(6)
C17_4 C 0.1471(19) 0.77267(18) 0.9214(6)
C18_4 C 0.250(2) 0.7487(2) 0.9675(6)
C24_4 C 0.272(2) 0.7989(2) 0.9239(6)
H12_4 H 0.4236 0.8016 0.9566
C26_4 C 0.1847(19) 0.82170(19) 0.8801(5)
H14_4 H 0.2754 0.8396 0.8838
O3_4 O 0.0202(11) 0.86410(10) 0.7726(3)
C1_4 C 0.750(2) 0.9512(2) 0.8404(6)
C2_4 C 0.843(3) 0.7906(2) 0.8284(8)
H1_4 H 0.6909 0.7874 0.7960
C4_4 C 0.8702(16) 0.84312(16) 0.7812(3)
C5_4 C 0.545(2) 0.9334(2) 0.8687(5)
H3_4 H 0.4751 0.9376 0.9134
C7_4 C 0.450(2) 0.9093(2) 0.8276(6)
H4_4 H 0.3209 0.8971 0.8473
C9_4 C 0.9626(17) 0.81817(16) 0.8305(4)
N2_4 N 0.5334(15) 0.90270(15) 0.7626(4)
C12_4 C 0.934(3) 0.7688(2) 0.8699(8)
H6_4 H 0.8532 0.7504 0.8642
C13_4 C 0.8426(18) 0.94328(16) 0.7744(5)
H7_4 H 0.9809 0.9540 0.7539
C14_4 C 0.7300(17) 0.91951(16) 0.7388(4)
H8_4 H 0.7972 0.9147 0.6941
C15_4 C 0.868(3) 0.9749(2) 0.8823(7)
C16_4 C 0.955(2) 0.9952(2) 0.9167(6)
O1_4 O 0.6195(11) 0.84033(11) 0.7544(3)
N3_2 N 0.2233(13) 0.83611(15) 0.6384(4)
C27_4 C 0.1989(19) 0.78751(17) 0.5962(6)
H15_4 H 0.2717 0.7687 0.5986
O4_4 O 0.0331(17) 0.38929(18) 0.5564(5)
C28_4 C 0.3174(19) 0.80911(15) 0.6390(5)
H16_4 H 0.4706 0.8045 0.6698
H10_3 H 0.9755 0.9420 0.6023
C25_3 C 0.968(4) 0.9736(3) 0.5213(9)
H13_3 H 0.8511 0.9867 0.5431
C20_4 C 0.231(4) 0.0388(3) 0.9292(8)
H9_4 H 0.2914 0.0357 0.8828
C22_4 C 0.054(2) 0.02054(19) 0.9556(5)
C23_4 C 0.332(4) 0.0634(4) 0.9714(9)
H11_4 H 0.4686 0.0749 0.9531
H10_4 H 0.9755 0.0580 0.1023
C25_4 C 0.968(4) 0.0264(3) 0.0213(9)
H13_4 H 0.8511 0.0133 0.0431
loop_
_geom_bond_atom_site_label_1
_geom_bond_atom_site_label_2
_geom_bond_site_symmetry_1
_geom_bond_site_symmetry_2
N1 C3 1_555 1_555
C3 H2 1_555 1_555
C6 C8 1_555 1_555
C8 C10 1_555 1_555
C10 C3 1_555 1_555
H5 C10 1_555 1_555
C18 C6 1_555 1_555
C24 C17 1_555 1_555
H12 C24 1_555 1_555
H14 C26 1_555 1_555
C27 C8 1_555 1_555
H15 C27 1_555 1_555
C28 N1 1_555 1_555
H16 C28 1_555 1_555
Cu2 O3 1_555 1_555
Cu4 N1 1_555 1_555
C17 C18 1_555 1_555
C24 C26 1_555 1_555
C27 C28 1_555 1_555
Cu2 N2 1_555 1_555
C1 C5 1_555 1_555
C2 H1 1_555 1_555
C4 C9 1_555 1_555
C5 H3 1_555 1_555
C7 C5 1_555 1_555
H4 C7 1_555 1_555
C9 C2 1_555 1_555
N2 C7 1_555 1_555
C12 C2 1_555 1_555
H6 C12 1_555 1_555
C13 C1 1_555 1_555
H7 C13 1_555 1_555
C14 N2 1_555 1_555
H8 C14 1_555 1_555
C15 C1 1_555 1_555
C16 C15 1_555 1_555
O1 Cu2 1_555 1_555
N3 Cu2 1_555 1_555
O5 Cu2 1_555 1_555
C4 O1 1_555 1_555
C13 C14 1_555 1_555
C11 C19 1_555 1_555
C19 O5 1_555 1_555
C21 C11 1_555 1_555
O4 C19 1_555 1_555
N1_2 C3_2 1_555 1_555
C3_2 H2_2 1_555 1_555
C6_2 C8_2 1_555 1_555
C8_2 C10_2 1_555 1_555
C10_2 C3_2 1_555 1_555
H5_2 C10_2 1_555 1_555
C27_2 C8_2 1_555 1_555
H15_2 C27_2 1_555 1_555
C28_2 N1_2 1_555 1_555
H16_2 C28_2 1_555 1_555
Cu4_2 N1_2 1_555 1_555
C27_2 C28_2 1_555 1_555
C1_2 C5_2 1_555 1_555
C2_2 H1_2 1_555 1_555
C3_3 H2_3 1_555 1_555
C4_2 C9_2 1_555 1_555
C6_3 C8_3 1_555 1_555
C8_3 C10_3 1_555 1_555
C9_2 C2_2 1_555 1_555
C10_3 C3_3 1_555 1_555
H5_3 C10_3 1_555 1_555
C11_2 C19_2 1_555 1_555
C12_2 C2_2 1_555 1_555
H6_2 C12_2 1_555 1_555
C13_2 C1_2 1_555 1_555
H7_2 C13_2 1_555 1_555
C14_2 N2_2 1_555 1_555
H8_2 C14_2 1_555 1_555
C15_2 C1_2 1_555 1_555
C16_2 C15_2 1_555 1_555
C17_2 C12_2 1_555 1_555
C18_2 C6_3 1_555 1_555
C19_2 O2 1_555 1_555
C20 H9 1_555 1_555
C21_2 C11_2 1_555 1_555
H10 C21_2 1_555 1_555
C22 C16_2 1_555 1_555
C23 C11_2 1_555 1_555
H11 C23 1_555 1_555
O2 Cu4 1_555 1_555
C24_2 C17_2 1_555 1_555
H12_2 C24_2 1_555 1_555
C25 C21_2 1_555 1_555
H13 C25 1_555 1_555
C26_2 C9_2 1_555 1_555
H14_2 C26_2 1_555 1_555
O3_2 C4_2 1_555 1_555
Cu4_2 O3_2 1_555 1_555
C4_2 O1_2 1_555 1_555
C13_2 C14_2 1_555 1_555
C17_2 C18_2 1_555 1_555
C20 C22 1_555 1_555
C20 C23 1_555 1_555
C22 C25 1_555 1_555
C24_2 C26_2 1_555 1_555
H4_2 C7_2 1_555 1_555
O5_2 Cu4_2 1_555 1_555
H15_3 C27_3 1_555 1_555
C28_3 N3 1_555 1_555
H16_3 C28_3 1_555 1_555
C27_3 C28_3 1_555 1_555
C3_4 H2_4 1_555 1_555
C6_4 C8_4 1_555 1_555
C8_4 C10_4 1_555 1_555
C10_4 C3_4 1_555 1_555
H5_4 C10_4 1_555 1_555
C11_3 C19_3 1_555 1_555
C19_3 O5_2 1_555 1_555
C21_3 C11_3 1_555 1_555
H10_2 C21_3 1_555 1_555
C25_2 C21_3 1_555 1_555
H13_2 C25_2 1_555 1_555
C1_3 C5_3 1_555 1_555
C2_3 H1_3 1_555 1_555
C4_3 C9_3 1_555 1_555
C9_3 C2_3 1_555 1_555
C12_3 C2_3 1_555 1_555
H6_3 C12_3 1_555 1_555
C13_3 C1_3 1_555 1_555
H7_3 C13_3 1_555 1_555
C14_3 N2_3 1_555 1_555
H8_3 C14_3 1_555 1_555
C15_3 C1_3 1_555 1_555
C16_3 C15_3 1_555 1_555
C17_3 C12_3 1_555 1_555
C20_2 H9_2 1_555 1_555
C22_2 C16_3 1_555 1_555
H11_2 C23_2 1_555 1_555
C24_3 C17_3 1_555 1_555
H12_3 C24_3 1_555 1_555
C26_3 C9_3 1_555 1_555
H14_3 C26_3 1_555 1_555
O3_3 C4_3 1_555 1_555
Cu4 O3_3 1_555 1_555
C4_3 O1_3 1_555 1_555
C13_3 C14_3 1_555 1_555
C17_3 C18_3 1_555 1_555
C20_2 C22_2 1_555 1_555
C20_2 C23_2 1_555 1_555
C24_3 C26_3 1_555 1_555
H4_3 C7_3 1_555 1_555
C11_4 C19_4 1_555 1_555
C19_4 O2_2 1_555 1_555
C20_3 H9_3 1_555 1_555
C21_4 C11_4 1_555 1_555
C23_3 C11_4 1_555 1_555
H11_3 C23_3 1_555 1_555
O2_2 Cu3 1_555 1_555
O4_3 C19_4 1_555 1_555
C20_3 C22_3 1_555 1_555
C20_3 C23_3 1_555 1_555
C24_4 C17_4 1_555 1_555
H12_4 C24_4 1_555 1_555
H14_4 C26_4 1_555 1_555
Cu3 O3_4 1_555 1_555
C17_4 C18_4 1_555 1_555
C24_4 C26_4 1_555 1_555
Cu3 N2_4 1_555 1_555
C1_4 C5_4 1_555 1_555
C2_4 H1_4 1_555 1_555
C4_4 C9_4 1_555 1_555
C5_4 H3_4 1_555 1_555
C7_4 C5_4 1_555 1_555
H4_4 C7_4 1_555 1_555
C9_4 C2_4 1_555 1_555
N2_4 C7_4 1_555 1_555
C12_4 C2_4 1_555 1_555
H6_4 C12_4 1_555 1_555
C13_4 C1_4 1_555 1_555
H7_4 C13_4 1_555 1_555
C14_4 N2_4 1_555 1_555
H8_4 C14_4 1_555 1_555
C15_4 C1_4 1_555 1_555
C16_4 C15_4 1_555 1_555
O1_4 Cu3 1_555 1_555
N3_2 Cu3 1_555 1_555
C4_4 O1_4 1_555 1_555
C13_4 C14_4 1_555 1_555
H15_4 C27_4 1_555 1_555
C28_4 N3_2 1_555 1_555
H16_4 C28_4 1_555 1_555
C27_4 C28_4 1_555 1_555
H13_3 C25_3 1_555 1_555
C20_4 H9_4 1_555 1_555
H11_4 C23_4 1_555 1_555
C20_4 C22_4 1_555 1_555
C20_4 C23_4 1_555 1_555
H13_4 C25_4 1_555 1_555

#END
