
###############################################################################
#
# This file contains modified crystal structure data generated from the
# MOF subset of the Cambridge Structural Database (CSD) v543 
# hosted by the Cambridge Crystallographic Data Centre (CCDC).
#
# This work is licensed under the Creative Commons
# Attribution-NonCommercial-ShareAlike 4.0 International License.
# To view a copy of this license, visit
# http://creativecommons.org/licenses/by-nc-sa/4.0/
# or send a letter to
# Creative Commons, PO Box 1866, Mountain View, CA 94042, USA.
#
# CIF created using the CSD Python API on 29 September 2022
# The structure has been converted into the P1 space group
# The structure has a 3D framework
# The original CSD entry FEGDEE is in the monoclinic crystal system
# The framework has been calculated to contain at least 10.0% void space
# The void calculation uses a probe of radius 1.32A, grid spacing 0.4
#
###############################################################################

data_FEGDEE
_chemical_formula_moiety         '(C80 H52 Cu4 N12 O21)n'
_symmetry_cell_setting           triclinic
_symmetry_space_group_name_H-M   'P 1'
_symmetry_Int_Tables_number      1
_space_group_name_Hall           'P 1'
loop_
_symmetry_equiv_pos_site_id
_symmetry_equiv_pos_as_xyz
1 x,y,z
_cell_length_a                   10.7802(3)
_cell_length_b                   10.7722(5)
_cell_length_c                   20.7247(7)
_cell_angle_alpha                90
_cell_angle_beta                 101.428(3)
_cell_angle_gamma                90
_cell_volume                     2358.97
loop_
_atom_site_label
_atom_site_type_symbol
_atom_site_fract_x
_atom_site_fract_y
_atom_site_fract_z
N4 N 0.4255(3) 0.4676(4) 0.33040(16)
O11 O 0.3157(4) 0.6359(4) 0.14588(16)
N5 N 0.3422(3) 0.3753(4) 0.30714(16)
H18 H 0.3023 0.3318 0.3320
N6 N 0.4304(5) 0.4580(5) 0.15766(19)
O12 O 0.5560(6) 0.2823(5) 0.1708(2)
C29 C 0.4097(5) 0.4414(6) 0.2233(2)
C30 C 0.3777(5) 0.5616(6) 0.1223(2)
C31 C 0.4690(4) 0.5066(4) 0.2794(2)
C32 C 0.4048(5) 0.5774(5) 0.0550(2)
C33 C 0.3280(5) 0.3584(6) 0.2424(2)
C34 C 0.4859(7) 0.4915(5) 0.0313(3)
C35 C 0.5672(5) 0.6057(5) 0.2861(3)
H19 H 0.6452 0.5711 0.2772
H20 H 0.5381 0.6718 0.2550
H21 H 0.5822 0.6387 0.3305
C36 C 0.3518(6) 0.6731(5) 0.0166(3)
H22 H 0.2981 0.7291 0.0324
C37 C 0.5128(8) 0.3695(6) 0.1360(3)
C38 C 0.5424(6) 0.3892(6) 0.0695(2)
C39 C 0.6228(7) 0.3113(6) 0.0475(3)
H23 H 0.6620 0.2468 0.0746
C40 C 0.2488(8) 0.2549(8) 0.2054(3)
H24 H 0.1611 0.2656 0.2089
H25 H 0.2555 0.2574 0.1594
H26 H 0.2793 0.1754 0.2241
Cu7 Cu 0.47466(4) 0.50008(5) 0.43438(2)
Cu1 Cu 0.52534(4) 0.49992(5) 0.56562(2)
O1 O 0.5187(3) 0.3190(3) 0.55897(13)
O2 O 0.2986(3) 0.5061(3) 0.44460(16)
O3 O 0.3411(3) 0.5062(3) 0.55492(16)
N1 N 0.5745(3) 0.5324(4) 0.66960(16)
O4 O 0.4716(3) 0.3200(3) 0.44958(15)
O5 O 0.6843(4) 0.3641(4) 0.85412(16)
N2 N 0.6578(3) 0.6247(4) 0.69286(16)
H1 H 0.6977 0.6682 0.6680
C1 C 0.1281(4) 0.5058(4) 0.4996(2)
N3 N 0.5696(5) 0.5420(5) 0.84234(19)
C2 C 0.0858(4) 0.5115(4) 0.5589(2)
H2 H 0.1443 0.5190 0.5988
C4 C 0.2664(3) 0.5061(4) 0.4996(2)
C5 C 0.4964(4) 0.1281(4) 0.50212(19)
C6 C 0.4947(3) 0.2669(4) 0.50405(19)
O6 O 0.4440(6) 0.7177(5) 0.8292(2)
C7 C 0.5903(5) 0.5586(6) 0.7767(2)
C8 C 0.6223(5) 0.4384(6) 0.8777(2)
C9 C 0.5231(6) 0.0608(5) 0.5594(2)
H4 H 0.5393 0.1019 0.6002
C10 C 0.5310(4) 0.4934(4) 0.7206(2)
C12 C 0.5952(5) 0.4226(5) 0.9450(2)
C13 C 0.6720(5) 0.6416(6) 0.7576(2)
C14 C 0.5141(7) 0.5085(5) 0.9687(3)
C15 C 0.4328(5) 0.3943(5) 0.7139(3)
H6 H 0.3548 0.4289 0.7228
H7 H 0.4619 0.3282 0.7450
H8 H 0.4178 0.3613 0.6695
C16 C 0.6482(6) 0.3269(5) 0.9834(3)
H9 H 0.7019 0.2709 0.9676
C17 C 0.4872(8) 0.6305(6) 0.8640(3)
C18 C 0.4576(6) 0.6108(6) 0.9305(2)
C19 C 0.3772(7) 0.6887(6) 0.9525(3)
H10 H 0.3380 0.7532 0.9254
C20 C 0.7512(8) 0.7451(8) 0.7946(3)
H11 H 0.8389 0.7344 0.7911
H12 H 0.7445 0.7426 0.8406
H13 H 0.7207 0.8246 0.7759
C24 C 0.4737(5) 0.0658(5) 0.4427(2)
H15 H 0.4557 0.1112 0.4032
C27 C 0.0418(4) 0.4938(4) 0.4412(2)
H17 H 0.0703 0.4893 0.4012
O15 O 0.7014(3) 0.4939(3) 0.55540(16)
O17 O 0.5284(3) 0.6800(3) 0.55042(15)
C11 C 0.5263(5) 0.9342(5) 0.5573(2)
H5 H 0.5443 0.8888 0.5968
O7 O 0.4813(3) 0.6810(3) 0.44103(13)
C21 C 0.5036(4) 0.8719(4) 0.49788(19)
C22 C 0.5053(3) 0.7331(4) 0.49595(19)
C23 C 0.4769(6) 0.9392(5) 0.4406(2)
H14 H 0.4607 0.8981 0.3998
C3 C 0.9582(4) 0.5062(4) 0.5588(2)
H3 H 0.9297 0.5107 0.5988
O10 O 0.6589(3) 0.4938(3) 0.44508(16)
C25 C 0.8719(4) 0.4942(4) 0.5004(2)
C26 C 0.9142(4) 0.4885(4) 0.4411(2)
H16 H 0.8557 0.4810 0.4012
C28 C 0.7336(3) 0.4939(4) 0.5004(2)
Cu2 Cu 0.02534(4) 0.00008(5) 0.06562(2)
O13 O 0.0187(3) 0.1810(3) 0.05897(13)
O14 O 0.2014(3) 0.0061(3) 0.05540(16)
Cu2_2 Cu 0.02534(4) 1.00008(5) 0.06562(2)
N7 N 0.0745(3) 0.9676(4) 0.16960(16)
O16 O 0.0284(3) 0.8200(3) 0.05042(15)
C1_2 C 0.3719(4) 0.0058(4) 0.0004(2)
C4_2 C 0.2336(3) 0.0061(4) 0.0004(2)
O3_2 O 0.1589(3) 0.0062(3) 0.94508(16)
C2_2 C 0.4142(4) 0.0115(4) 0.9411(2)
H2_2 H 0.3557 0.0190 0.9012
C3_2 C 0.5418(4) 0.0062(4) 0.9412(2)
H3_2 H 0.5703 0.0107 0.9012
O6_2 O 0.0560(6) 0.2177(5) 0.6708(2)
C17_2 C 0.0128(8) 0.1305(6) 0.6360(3)
C18_2 C 0.0424(6) 0.1108(6) 0.5695(2)
C19_2 C 0.1228(7) 0.1887(6) 0.5475(3)
H10_2 H 0.1620 0.2532 0.5746
O11_2 O 0.1843(4) 0.1359(4) 0.35412(16)
C30_2 C 0.1223(5) 0.0616(6) 0.3777(2)
C31_2 C 0.0310(4) 0.0066(4) 0.2206(2)
C32_2 C 0.0952(5) 0.0774(5) 0.4450(2)
C36_2 C 0.1482(6) 0.1731(5) 0.4834(3)
H22_2 H 0.2019 0.2291 0.4676
Cu3 Cu 0.97466(4) -0.00008(5) 0.93438(2)
C23_2 C 0.0231(6) 0.4392(5) 0.0594(2)
H14_2 H 0.0393 0.3981 0.1002
C24_2 C 0.0263(5) 0.5658(5) 0.0573(2)
H15_2 H 0.0443 0.6112 0.0968
O10_2 O 0.8411(3) 0.9938(3) 0.05492(16)
C26_2 C 0.5858(4) 0.9885(4) 0.0589(2)
H16_2 H 0.6443 0.9810 0.0988
C27_2 C 0.4582(4) 0.9938(4) 0.0588(2)
H17_2 H 0.4297 0.9893 0.0988
C5_2 C 0.0036(4) 0.6281(4) 0.99788(19)
C6_2 C 0.0053(3) 0.7669(4) 0.99595(19)
C15_2 C 0.0672(5) 0.8943(5) 0.7861(3)
H6_2 H 0.1452 0.9289 0.7772
H7_2 H 0.0381 0.8282 0.7550
H8_2 H 0.0822 0.8613 0.8305
O9 O 0.7986(3) 0.9939(3) 0.94460(16)
C25_2 C 0.6281(4) 0.9942(4) 0.9996(2)
C28_2 C 0.7664(3) 0.9939(4) 0.9996(2)
N5_2 N 0.1578(3) 0.8753(4) 0.19286(16)
H18_2 H 0.1977 0.8318 0.1680
N6_2 N 0.0696(5) 0.9580(5) 0.34234(19)
C29_2 C 0.0903(5) 0.9414(6) 0.2767(2)
C33_2 C 0.1720(5) 0.8584(6) 0.2576(2)
C34_2 C 0.0141(7) 0.9915(5) 0.4687(3)
C40_2 C 0.2512(8) 0.7549(8) 0.2946(3)
H24_2 H 0.3389 0.7656 0.2911
H25_2 H 0.2445 0.7574 0.3406
H26_2 H 0.2207 0.6754 0.2759
Cu3_2 Cu 0.97466(4) 0.99992(5) 0.93438(2)
N1_2 N 0.9255(3) 0.0324(4) 0.83040(16)
N2_2 N 0.8422(3) 0.1247(4) 0.80714(16)
H1_2 H 0.8023 0.1682 0.8320
N3_2 N 0.9304(5) 0.0420(5) 0.65766(19)
C7_2 C 0.9097(5) 0.0586(6) 0.7233(2)
C13_2 C 0.8280(5) 0.1416(6) 0.7424(2)
C14_2 C 0.9859(7) 0.0085(5) 0.5313(3)
C20_2 C 0.7488(8) 0.2451(8) 0.7054(3)
H11_2 H 0.6611 0.2344 0.7089
H12_2 H 0.7555 0.2426 0.6594
H13_2 H 0.7793 0.3246 0.7241
C35_2 C 0.9328(5) 0.1057(5) 0.2139(3)
H19_2 H 0.8548 0.0711 0.2228
H20_2 H 0.9619 0.1718 0.2450
H21_2 H 0.9178 0.1387 0.1695
O17_2 O 0.9716(3) 0.1800(3) 0.94958(15)
C21_2 C 0.9964(4) 0.3719(4) 0.00212(19)
C22_2 C 0.9947(3) 0.2331(4) 0.00405(19)
O1_2 O 0.9813(3) 0.8190(3) 0.94103(13)
O5_2 O 0.8157(4) 0.8641(4) 0.64588(16)
C8_2 C 0.8777(5) 0.9384(6) 0.6223(2)
C9_2 C 0.9769(6) 0.5608(5) 0.9406(2)
H4_2 H 0.9607 0.6019 0.8998
C10_2 C 0.9690(4) 0.9934(4) 0.7794(2)
C11_2 C 0.9737(5) 0.4342(5) 0.9427(2)
H5_2 H 0.9557 0.3888 0.9032
C12_2 C 0.9048(5) 0.9226(5) 0.5550(2)
C16_2 C 0.8518(6) 0.8269(5) 0.5166(3)
H9_2 H 0.7981 0.7709 0.5324
O12_2 O 0.9440(6) 0.7823(5) 0.3292(2)
C37_2 C 0.9872(8) 0.8695(6) 0.3640(3)
C38_2 C 0.9576(6) 0.8892(6) 0.4305(2)
C39_2 C 0.8772(7) 0.8113(6) 0.4525(3)
H23_2 H 0.8380 0.7468 0.4254
loop_
_geom_bond_atom_site_label_1
_geom_bond_atom_site_label_2
_geom_bond_site_symmetry_1
_geom_bond_site_symmetry_2
N4 N5 1_555 1_555
O11 C30 1_555 1_555
N5 H18 1_555 1_555
N6 C29 1_555 1_555
O12 C37 1_555 1_555
C29 C31 1_555 1_555
C30 N6 1_555 1_555
C31 N4 1_555 1_555
C32 C30 1_555 1_555
C33 N5 1_555 1_555
C35 C31 1_555 1_555
H19 C35 1_555 1_555
H20 C35 1_555 1_555
H21 C35 1_555 1_555
H22 C36 1_555 1_555
C37 N6 1_555 1_555
C38 C34 1_555 1_555
H23 C39 1_555 1_555
C40 C33 1_555 1_555
H24 C40 1_555 1_555
H25 C40 1_555 1_555
H26 C40 1_555 1_555
Cu7 N4 1_555 1_555
C29 C33 1_555 1_555
C32 C34 1_555 1_555
C32 C36 1_555 1_555
C37 C38 1_555 1_555
C38 C39 1_555 1_555
Cu1 O1 1_555 1_555
O1 C6 1_555 1_555
O2 C4 1_555 1_555
O3 Cu1 1_555 1_555
N1 Cu1 1_555 1_555
O4 C6 1_555 1_555
O5 C8 1_555 1_555
N2 N1 1_555 1_555
H1 N2 1_555 1_555
C1 C2 1_555 1_555
N3 C7 1_555 1_555
C2 H2 1_555 1_555
C4 O3 1_555 1_555
C5 C6 1_555 1_555
O6 C17 1_555 1_555
C7 C10 1_555 1_555
C8 N3 1_555 1_555
C9 C5 1_555 1_555
H4 C9 1_555 1_555
C10 N1 1_555 1_555
C12 C8 1_555 1_555
C13 N2 1_555 1_555
C14 C12 1_555 1_555
C15 C10 1_555 1_555
H6 C15 1_555 1_555
H7 C15 1_555 1_555
H8 C15 1_555 1_555
C16 C12 1_555 1_555
H9 C16 1_555 1_555
C17 N3 1_555 1_555
C18 C14 1_555 1_555
C19 C18 1_555 1_555
H10 C19 1_555 1_555
C20 C13 1_555 1_555
H11 C20 1_555 1_555
H12 C20 1_555 1_555
H13 C20 1_555 1_555
C24 C5 1_555 1_555
H15 C24 1_555 1_555
C27 C1 1_555 1_555
H17 C27 1_555 1_555
Cu7 O2 1_555 1_555
O15 Cu1 1_555 1_555
O17 Cu1 1_555 1_555
O4 Cu7 1_555 1_555
C1 C4 1_555 1_555
C7 C13 1_555 1_555
C17 C18 1_555 1_555
H5 C11 1_555 1_555
O7 C22 1_555 1_555
O17 C22 1_555 1_555
C21 C11 1_555 1_555
C22 C21 1_555 1_555
C23 C21 1_555 1_555
H14 C23 1_555 1_555
Cu7 O7 1_555 1_555
H3 C3 1_555 1_555
O15 C28 1_555 1_555
O10 C28 1_555 1_555
C25 C3 1_555 1_555
C26 C25 1_555 1_555
H16 C26 1_555 1_555
C28 C25 1_555 1_555
Cu7 O10 1_555 1_555
O13 Cu2 1_555 1_555
O14 Cu2 1_555 1_555
N7 Cu2_2 1_555 1_555
O16 Cu2_2 1_555 1_555
O14 C4_2 1_555 1_555
C1_2 C4_2 1_555 1_555
C2_2 H2_2 1_555 1_555
C3_2 C2_2 1_555 1_555
H3_2 C3_2 1_555 1_555
O6_2 C17_2 1_555 1_555
C19_2 C18_2 1_555 1_555
H10_2 C19_2 1_555 1_555
O11_2 C30_2 1_555 1_555
C32_2 C30_2 1_555 1_555
C36_2 C19_2 1_555 1_555
H22_2 C36_2 1_555 1_555
C17_2 C18_2 1_555 1_555
C32_2 C36_2 1_555 1_555
H14_2 C23_2 1_555 1_555
H15_2 C24_2 1_555 1_555
H16_2 C26_2 1_555 1_555
H17_2 C27_2 1_555 1_555
C23_2 C24_2 1_555 1_555
C26_2 C27_2 1_555 1_555
C5_2 C6_2 1_555 1_555
H6_2 C15_2 1_555 1_555
H7_2 C15_2 1_555 1_555
H8_2 C15_2 1_555 1_555
O9 C28_2 1_555 1_555
C28_2 C25_2 1_555 1_555
N7 N5_2 1_555 1_555
N5_2 H18_2 1_555 1_555
N6_2 C29_2 1_555 1_555
C33_2 N5_2 1_555 1_555
C40_2 C33_2 1_555 1_555
H24_2 C40_2 1_555 1_555
H25_2 C40_2 1_555 1_555
H26_2 C40_2 1_555 1_555
Cu3_2 O9 1_555 1_555
C29_2 C33_2 1_555 1_555
N1_2 Cu3 1_555 1_555
N2_2 N1_2 1_555 1_555
H1_2 N2_2 1_555 1_555
N3_2 C7_2 1_555 1_555
C13_2 N2_2 1_555 1_555
C20_2 C13_2 1_555 1_555
H11_2 C20_2 1_555 1_555
H12_2 C20_2 1_555 1_555
H13_2 C20_2 1_555 1_555
H19_2 C35_2 1_555 1_555
H20_2 C35_2 1_555 1_555
H21_2 C35_2 1_555 1_555
O17_2 Cu3 1_555 1_555
C7_2 C13_2 1_555 1_555
C22_2 C21_2 1_555 1_555
Cu3_2 O1_2 1_555 1_555
O5_2 C8_2 1_555 1_555
H4_2 C9_2 1_555 1_555
C11_2 C9_2 1_555 1_555
H5_2 C11_2 1_555 1_555
C12_2 C8_2 1_555 1_555
C16_2 C12_2 1_555 1_555
H9_2 C16_2 1_555 1_555
O12_2 C37_2 1_555 1_555
C39_2 C16_2 1_555 1_555
H23_2 C39_2 1_555 1_555
C37_2 C38_2 1_555 1_555
C38_2 C39_2 1_555 1_555

#END
