
###############################################################################
#
# This file contains modified crystal structure data generated from the
# MOF subset of the Cambridge Structural Database (CSD) v543 
# hosted by the Cambridge Crystallographic Data Centre (CCDC).
#
# This work is licensed under the Creative Commons
# Attribution-NonCommercial-ShareAlike 4.0 International License.
# To view a copy of this license, visit
# http://creativecommons.org/licenses/by-nc-sa/4.0/
# or send a letter to
# Creative Commons, PO Box 1866, Mountain View, CA 94042, USA.
#
# CIF created using the CSD Python API on 29 September 2022
# The structure has been converted into the P1 space group
# The structure has a 3D framework
# The original CSD entry FEHHEI is in the cubic crystal system
# The framework has been calculated to contain at least 10.0% void space
# The void calculation uses a probe of radius 1.32A, grid spacing 0.4
#
###############################################################################

data_FEHHEI
_chemical_formula_moiety         '(C96 H120 Mn12 N48)n'
_symmetry_cell_setting           triclinic
_symmetry_space_group_name_H-M   'P 1'
_symmetry_Int_Tables_number      1
_space_group_name_Hall           'P 1'
loop_
_symmetry_equiv_pos_site_id
_symmetry_equiv_pos_as_xyz
1 x,y,z
_cell_length_a                   17.52334(4)
_cell_length_b                   17.52334(4)
_cell_length_c                   17.52334(4)
_cell_angle_alpha                90
_cell_angle_beta                 90
_cell_angle_gamma                90
_cell_volume                     5380.85
loop_
_atom_site_label
_atom_site_type_symbol
_atom_site_fract_x
_atom_site_fract_y
_atom_site_fract_z
_atom_site_U_iso_or_equiv
_atom_site_thermal_displace_type
Mn1 Mn -0.000 0.500 0.250 0.0063 Uiso
N1 N 0.031481 0.589634 0.319165 0.0063 Uiso
C2 C 0.097912 0.631693 0.315409 0.0063 Uiso
H1 H 0.129379 0.628125 0.273200 0.0063 Uiso
N2 N 0.031481 0.680835 0.410366 0.0063 Uiso
C4 C 0.097912 0.684591 0.368307 0.0063 Uiso
H4 H 0.129379 0.726800 0.371875 0.0063 Uiso
C5 C 0.009794 0.378024 0.378024 0.0063 Uiso
C7 C 0.086619 0.403183 0.403183 0.0063 Uiso
H7 H 0.118027 0.360434 0.425327 0.0063 Uiso
H8 H 0.073562 0.439172 0.439172 0.0063 Uiso
H10 H 0.118027 0.425327 0.360434 0.0063 Uiso
Mn2 Mn -0.000 0.250 0.500 0.0063 Uiso
Mn3 Mn -0.000 0.750 0.500 0.0063 Uiso
N5 N 0.089634 0.468519 0.180835 0.0063 Uiso
Mn1_2 Mn 1.000 0.500 0.250 0.0063 Uiso
C1 C 0.990206 0.621976 0.378024 0.0063 Uiso
C3 C 0.913381 0.596817 0.403183 0.0063 Uiso
H2 H 0.881973 0.639566 0.425327 0.0063 Uiso
H3 H 0.926438 0.560828 0.439172 0.0063 Uiso
H5 H 0.881973 0.574673 0.360434 0.0063 Uiso
N3 N 0.968519 0.410366 0.319165 0.0063 Uiso
C6 C 0.902088 0.368307 0.315409 0.0063 Uiso
H6 H 0.870621 0.371875 0.273200 0.0063 Uiso
N4 N 0.968519 0.319165 0.410366 0.0063 Uiso
C8 C 0.902088 0.315409 0.368307 0.0063 Uiso
H9 H 0.870621 0.273200 0.371875 0.0063 Uiso
Mn2_2 Mn 1.000 0.250 0.500 0.0063 Uiso
Mn3_2 Mn 1.000 0.750 0.500 0.0063 Uiso
N6 N 0.910366 0.531481 0.180835 0.0063 Uiso
Mn1_3 Mn 0.250 -0.000 0.500 0.0063 Uiso
N1_2 N 0.319165 0.031481 0.589634 0.0063 Uiso
C2_2 C 0.315409 0.097912 0.631693 0.0063 Uiso
H1_2 H 0.273200 0.129379 0.628125 0.0063 Uiso
N2_2 N 0.410366 0.031481 0.680835 0.0063 Uiso
C4_2 C 0.368307 0.097912 0.684591 0.0063 Uiso
H4_2 H 0.371875 0.129379 0.726800 0.0063 Uiso
C5_2 C 0.378024 0.009794 0.378024 0.0063 Uiso
C7_2 C 0.403183 0.086619 0.403183 0.0063 Uiso
H7_2 H 0.425327 0.118027 0.360434 0.0063 Uiso
H8_2 H 0.439172 0.073562 0.439172 0.0063 Uiso
H10_2 H 0.360434 0.118027 0.425327 0.0063 Uiso
Mn2_3 Mn 0.500 -0.000 0.250 0.0063 Uiso
Mn3_3 Mn 0.500 -0.000 0.750 0.0063 Uiso
N5_2 N 0.180835 0.089634 0.468519 0.0063 Uiso
Mn1_4 Mn 0.250 1.000 0.500 0.0063 Uiso
C1_2 C 0.378024 0.990206 0.621976 0.0063 Uiso
C3_2 C 0.403183 0.913381 0.596817 0.0063 Uiso
H2_2 H 0.425327 0.881973 0.639566 0.0063 Uiso
H3_2 H 0.439172 0.926438 0.560828 0.0063 Uiso
H5_2 H 0.360434 0.881973 0.574673 0.0063 Uiso
N3_2 N 0.319165 0.968519 0.410366 0.0063 Uiso
C6_2 C 0.315409 0.902088 0.368307 0.0063 Uiso
H6_2 H 0.273200 0.870621 0.371875 0.0063 Uiso
N4_2 N 0.410366 0.968519 0.319165 0.0063 Uiso
C8_2 C 0.368307 0.902088 0.315409 0.0063 Uiso
H9_2 H 0.371875 0.870621 0.273200 0.0063 Uiso
Mn2_4 Mn 0.500 1.000 0.250 0.0063 Uiso
Mn3_4 Mn 0.500 1.000 0.750 0.0063 Uiso
N6_2 N 0.180835 0.910366 0.531481 0.0063 Uiso
Mn1_5 Mn 0.500 0.250 -0.000 0.0063 Uiso
N1_3 N 0.589634 0.319165 0.031481 0.0063 Uiso
C2_3 C 0.631693 0.315409 0.097912 0.0063 Uiso
H1_3 H 0.628125 0.273200 0.129379 0.0063 Uiso
N2_3 N 0.680835 0.410366 0.031481 0.0063 Uiso
C4_3 C 0.684591 0.368307 0.097912 0.0063 Uiso
H4_3 H 0.726800 0.371875 0.129379 0.0063 Uiso
C5_3 C 0.378024 0.378024 0.009794 0.0063 Uiso
C7_3 C 0.403183 0.403183 0.086619 0.0063 Uiso
H7_3 H 0.360434 0.425327 0.118027 0.0063 Uiso
H8_3 H 0.439172 0.439172 0.073562 0.0063 Uiso
H10_3 H 0.425327 0.360434 0.118027 0.0063 Uiso
Mn2_5 Mn 0.250 0.500 -0.000 0.0063 Uiso
Mn3_5 Mn 0.750 0.500 -0.000 0.0063 Uiso
N5_3 N 0.468519 0.180835 0.089634 0.0063 Uiso
Mn1_6 Mn 0.500 0.250 1.000 0.0063 Uiso
C1_3 C 0.621976 0.378024 0.990206 0.0063 Uiso
C3_3 C 0.596817 0.403183 0.913381 0.0063 Uiso
H2_3 H 0.639566 0.425327 0.881973 0.0063 Uiso
H3_3 H 0.560828 0.439172 0.926438 0.0063 Uiso
H5_3 H 0.574673 0.360434 0.881973 0.0063 Uiso
N3_3 N 0.410366 0.319165 0.968519 0.0063 Uiso
C6_3 C 0.368307 0.315409 0.902088 0.0063 Uiso
H6_3 H 0.371875 0.273200 0.870621 0.0063 Uiso
N4_3 N 0.319165 0.410366 0.968519 0.0063 Uiso
C8_3 C 0.315409 0.368307 0.902088 0.0063 Uiso
H9_3 H 0.273200 0.371875 0.870621 0.0063 Uiso
Mn2_6 Mn 0.250 0.500 1.000 0.0063 Uiso
Mn3_6 Mn 0.750 0.500 1.000 0.0063 Uiso
N6_3 N 0.531481 0.180835 0.910366 0.0063 Uiso
N1_4 N 0.031481 0.319165 0.589634 0.0063 Uiso
C2_4 C 0.097912 0.315409 0.631693 0.0063 Uiso
H1_4 H 0.129379 0.273200 0.628125 0.0063 Uiso
N2_4 N 0.031481 0.410366 0.680835 0.0063 Uiso
C4_4 C 0.097912 0.368307 0.684591 0.0063 Uiso
H4_4 H 0.129379 0.371875 0.726800 0.0063 Uiso
Mn3_7 Mn -0.000 0.500 0.750 0.0063 Uiso
N5_4 N 0.089634 0.180835 0.468519 0.0063 Uiso
C1_4 C 0.990206 0.378024 0.621976 0.0063 Uiso
C3_4 C 0.913381 0.403183 0.596817 0.0063 Uiso
H2_4 H 0.881973 0.425327 0.639566 0.0063 Uiso
H3_4 H 0.926438 0.439172 0.560828 0.0063 Uiso
H5_4 H 0.881973 0.360434 0.574673 0.0063 Uiso
Mn3_8 Mn 1.000 0.500 0.750 0.0063 Uiso
N6_4 N 0.910366 0.180835 0.531481 0.0063 Uiso
N1_5 N 0.589634 0.031481 0.319165 0.0063 Uiso
C2_5 C 0.631693 0.097912 0.315409 0.0063 Uiso
H1_5 H 0.628125 0.129379 0.273200 0.0063 Uiso
N2_5 N 0.680835 0.031481 0.410366 0.0063 Uiso
C4_5 C 0.684591 0.097912 0.368307 0.0063 Uiso
H4_5 H 0.726800 0.129379 0.371875 0.0063 Uiso
Mn3_9 Mn 0.750 -0.000 0.500 0.0063 Uiso
N5_5 N 0.468519 0.089634 0.180835 0.0063 Uiso
C1_5 C 0.621976 0.990206 0.378024 0.0063 Uiso
C3_5 C 0.596817 0.913381 0.403183 0.0063 Uiso
H2_5 H 0.639566 0.881973 0.425327 0.0063 Uiso
H3_5 H 0.560828 0.926438 0.439172 0.0063 Uiso
H5_5 H 0.574673 0.881973 0.360434 0.0063 Uiso
Mn3_10 Mn 0.750 1.000 0.500 0.0063 Uiso
N6_5 N 0.531481 0.910366 0.180835 0.0063 Uiso
N1_6 N 0.319165 0.589634 0.031481 0.0063 Uiso
C2_6 C 0.315409 0.631693 0.097912 0.0063 Uiso
H1_6 H 0.273200 0.628125 0.129379 0.0063 Uiso
N2_6 N 0.410366 0.680835 0.031481 0.0063 Uiso
C4_6 C 0.368307 0.684591 0.097912 0.0063 Uiso
H4_6 H 0.371875 0.726800 0.129379 0.0063 Uiso
Mn3_11 Mn 0.500 0.750 -0.000 0.0063 Uiso
N5_6 N 0.180835 0.468519 0.089634 0.0063 Uiso
C1_6 C 0.378024 0.621976 0.990206 0.0063 Uiso
C3_6 C 0.403183 0.596817 0.913381 0.0063 Uiso
H2_6 H 0.425327 0.639566 0.881973 0.0063 Uiso
H3_6 H 0.439172 0.560828 0.926438 0.0063 Uiso
H5_6 H 0.360434 0.574673 0.881973 0.0063 Uiso
Mn3_12 Mn 0.500 0.750 1.000 0.0063 Uiso
N6_6 N 0.180835 0.531481 0.910366 0.0063 Uiso
C5_4 C 0.009794 0.621976 0.621976 0.0063 Uiso
C7_4 C 0.086619 0.596817 0.596817 0.0063 Uiso
H7_4 H 0.118027 0.639566 0.574673 0.0063 Uiso
H8_4 H 0.073562 0.560828 0.560828 0.0063 Uiso
H10_4 H 0.118027 0.574673 0.639566 0.0063 Uiso
N5_7 N 0.089634 0.531481 0.819165 0.0063 Uiso
N3_4 N 0.968519 0.589634 0.680835 0.0063 Uiso
C6_4 C 0.902088 0.631693 0.684591 0.0063 Uiso
H6_4 H 0.870621 0.628125 0.726800 0.0063 Uiso
N4_4 N 0.968519 0.680835 0.589634 0.0063 Uiso
C8_4 C 0.902088 0.684591 0.631693 0.0063 Uiso
H9_4 H 0.870621 0.726800 0.628125 0.0063 Uiso
N6_7 N 0.910366 0.468519 0.819165 0.0063 Uiso
C1_7 C 0.621976 0.621976 0.009794 0.0063 Uiso
C3_7 C 0.596817 0.596817 0.086619 0.0063 Uiso
H2_7 H 0.639566 0.574673 0.118027 0.0063 Uiso
H3_7 H 0.560828 0.560828 0.073562 0.0063 Uiso
H5_7 H 0.574673 0.639566 0.118027 0.0063 Uiso
N6_8 N 0.531481 0.819165 0.089634 0.0063 Uiso
N1_7 N 0.589634 0.680835 0.968519 0.0063 Uiso
C2_7 C 0.631693 0.684591 0.902088 0.0063 Uiso
H1_7 H 0.628125 0.726800 0.870621 0.0063 Uiso
N2_7 N 0.680835 0.589634 0.968519 0.0063 Uiso
C4_7 C 0.684591 0.631693 0.902088 0.0063 Uiso
H4_7 H 0.726800 0.628125 0.870621 0.0063 Uiso
N5_8 N 0.468519 0.819165 0.910366 0.0063 Uiso
N5_9 N 0.089634 0.819165 0.531481 0.0063 Uiso
N6_9 N 0.910366 0.819165 0.468519 0.0063 Uiso
C1_8 C 0.621976 0.009794 0.621976 0.0063 Uiso
C3_8 C 0.596817 0.086619 0.596817 0.0063 Uiso
H2_8 H 0.639566 0.118027 0.574673 0.0063 Uiso
H3_8 H 0.560828 0.073562 0.560828 0.0063 Uiso
H5_8 H 0.574673 0.118027 0.639566 0.0063 Uiso
N6_10 N 0.531481 0.089634 0.819165 0.0063 Uiso
N1_8 N 0.589634 0.968519 0.680835 0.0063 Uiso
C2_8 C 0.631693 0.902088 0.684591 0.0063 Uiso
H1_8 H 0.628125 0.870621 0.726800 0.0063 Uiso
N2_8 N 0.680835 0.968519 0.589634 0.0063 Uiso
C4_8 C 0.684591 0.902088 0.631693 0.0063 Uiso
H4_8 H 0.726800 0.870621 0.628125 0.0063 Uiso
N5_10 N 0.468519 0.910366 0.819165 0.0063 Uiso
N5_11 N 0.819165 0.089634 0.531481 0.0063 Uiso
N6_11 N 0.819165 0.910366 0.468519 0.0063 Uiso
N6_12 N 0.819165 0.531481 0.089634 0.0063 Uiso
N5_12 N 0.819165 0.468519 0.910366 0.0063 Uiso
C1_9 C 0.490206 0.121976 0.878024 0.0063 Uiso
C2_9 C 0.597912 0.131693 0.815409 0.0063 Uiso
C3_9 C 0.413381 0.096817 0.903183 0.0063 Uiso
H1_9 H 0.629379 0.128125 0.773200 0.0063 Uiso
H2_9 H 0.381973 0.139566 0.925327 0.0063 Uiso
H3_9 H 0.426438 0.060828 0.939172 0.0063 Uiso
C4_9 C 0.597912 0.184591 0.868307 0.0063 Uiso
H4_9 H 0.629379 0.226800 0.871875 0.0063 Uiso
H5_9 H 0.381973 0.074673 0.860434 0.0063 Uiso
C5_5 C 0.509794 0.878024 0.878024 0.0063 Uiso
C6_5 C 0.402088 0.868307 0.815409 0.0063 Uiso
C7_5 C 0.586619 0.903183 0.903183 0.0063 Uiso
H6_5 H 0.370621 0.871875 0.773200 0.0063 Uiso
H7_5 H 0.618027 0.860434 0.925327 0.0063 Uiso
H8_5 H 0.573562 0.939172 0.939172 0.0063 Uiso
C8_5 C 0.402088 0.815409 0.868307 0.0063 Uiso
H9_5 H 0.370621 0.773200 0.871875 0.0063 Uiso
H10_5 H 0.618027 0.925327 0.860434 0.0063 Uiso
C1_10 C 0.878024 0.490206 0.121976 0.0063 Uiso
C2_10 C 0.815409 0.597912 0.131693 0.0063 Uiso
C3_10 C 0.903183 0.413381 0.096817 0.0063 Uiso
H1_10 H 0.773200 0.629379 0.128125 0.0063 Uiso
H2_10 H 0.925327 0.381973 0.139566 0.0063 Uiso
H3_10 H 0.939172 0.426438 0.060828 0.0063 Uiso
C4_10 C 0.868307 0.597912 0.184591 0.0063 Uiso
H4_10 H 0.871875 0.629379 0.226800 0.0063 Uiso
H5_10 H 0.860434 0.381973 0.074673 0.0063 Uiso
C5_6 C 0.878024 0.509794 0.878024 0.0063 Uiso
C6_6 C 0.815409 0.402088 0.868307 0.0063 Uiso
C7_6 C 0.903183 0.586619 0.903183 0.0063 Uiso
H6_6 H 0.773200 0.370621 0.871875 0.0063 Uiso
H7_6 H 0.925327 0.618027 0.860434 0.0063 Uiso
H8_6 H 0.939172 0.573562 0.939172 0.0063 Uiso
C8_6 C 0.868307 0.402088 0.815409 0.0063 Uiso
H9_6 H 0.871875 0.370621 0.773200 0.0063 Uiso
H10_6 H 0.860434 0.618027 0.925327 0.0063 Uiso
C1_11 C 0.121976 0.878024 0.490206 0.0063 Uiso
C2_11 C 0.131693 0.815409 0.597912 0.0063 Uiso
C3_11 C 0.096817 0.903183 0.413381 0.0063 Uiso
H1_11 H 0.128125 0.773200 0.629379 0.0063 Uiso
H2_11 H 0.139566 0.925327 0.381973 0.0063 Uiso
H3_11 H 0.060828 0.939172 0.426438 0.0063 Uiso
C4_11 C 0.184591 0.868307 0.597912 0.0063 Uiso
H4_11 H 0.226800 0.871875 0.629379 0.0063 Uiso
H5_11 H 0.074673 0.860434 0.381973 0.0063 Uiso
C5_7 C 0.878024 0.878024 0.509794 0.0063 Uiso
C6_7 C 0.868307 0.815409 0.402088 0.0063 Uiso
C7_7 C 0.903183 0.903183 0.586619 0.0063 Uiso
H6_7 H 0.871875 0.773200 0.370621 0.0063 Uiso
H7_7 H 0.860434 0.925327 0.618027 0.0063 Uiso
H8_7 H 0.939172 0.939172 0.573562 0.0063 Uiso
C8_7 C 0.815409 0.868307 0.402088 0.0063 Uiso
H9_7 H 0.773200 0.871875 0.370621 0.0063 Uiso
H10_7 H 0.925327 0.860434 0.618027 0.0063 Uiso
C1_12 C 0.490206 0.878024 0.121976 0.0063 Uiso
C2_12 C 0.597912 0.815409 0.131693 0.0063 Uiso
C3_12 C 0.413381 0.903183 0.096817 0.0063 Uiso
H1_12 H 0.629379 0.773200 0.128125 0.0063 Uiso
H2_12 H 0.381973 0.925327 0.139566 0.0063 Uiso
H3_12 H 0.426438 0.939172 0.060828 0.0063 Uiso
C4_12 C 0.597912 0.868307 0.184591 0.0063 Uiso
H4_12 H 0.629379 0.871875 0.226800 0.0063 Uiso
H5_12 H 0.381973 0.860434 0.074673 0.0063 Uiso
C1_13 C 0.121976 0.490206 0.878024 0.0063 Uiso
C2_13 C 0.131693 0.597912 0.815409 0.0063 Uiso
C3_13 C 0.096817 0.413381 0.903183 0.0063 Uiso
H1_13 H 0.128125 0.629379 0.773200 0.0063 Uiso
H2_13 H 0.139566 0.381973 0.925327 0.0063 Uiso
H3_13 H 0.060828 0.426438 0.939172 0.0063 Uiso
C4_13 C 0.184591 0.597912 0.868307 0.0063 Uiso
H4_13 H 0.226800 0.629379 0.871875 0.0063 Uiso
H5_13 H 0.074673 0.381973 0.860434 0.0063 Uiso
C1_14 C 0.878024 0.121976 0.490206 0.0063 Uiso
C2_14 C 0.815409 0.131693 0.597912 0.0063 Uiso
C3_14 C 0.903183 0.096817 0.413381 0.0063 Uiso
H1_14 H 0.773200 0.128125 0.629379 0.0063 Uiso
H2_14 H 0.925327 0.139566 0.381973 0.0063 Uiso
H3_14 H 0.939172 0.060828 0.426438 0.0063 Uiso
C4_14 C 0.868307 0.184591 0.597912 0.0063 Uiso
H4_14 H 0.871875 0.226800 0.629379 0.0063 Uiso
H5_14 H 0.860434 0.074673 0.381973 0.0063 Uiso
C5_8 C 0.509794 0.121976 0.121976 0.0063 Uiso
C6_8 C 0.402088 0.131693 0.184591 0.0063 Uiso
C7_8 C 0.586619 0.096817 0.096817 0.0063 Uiso
H6_8 H 0.370621 0.128125 0.226800 0.0063 Uiso
H7_8 H 0.618027 0.139566 0.074673 0.0063 Uiso
H8_8 H 0.573562 0.060828 0.060828 0.0063 Uiso
C8_8 C 0.402088 0.184591 0.131693 0.0063 Uiso
H9_8 H 0.370621 0.226800 0.128125 0.0063 Uiso
H10_8 H 0.618027 0.074673 0.139566 0.0063 Uiso
C1_15 C 0.121976 0.121976 0.509794 0.0063 Uiso
C2_15 C 0.131693 0.184591 0.402088 0.0063 Uiso
C3_15 C 0.096817 0.096817 0.586619 0.0063 Uiso
H1_15 H 0.128125 0.226800 0.370621 0.0063 Uiso
H2_15 H 0.139566 0.074673 0.618027 0.0063 Uiso
H3_15 H 0.060828 0.060828 0.573562 0.0063 Uiso
C4_15 C 0.184591 0.131693 0.402088 0.0063 Uiso
H4_15 H 0.226800 0.128125 0.370621 0.0063 Uiso
H5_15 H 0.074673 0.139566 0.618027 0.0063 Uiso
C1_16 C 0.121976 0.509794 0.121976 0.0063 Uiso
C2_16 C 0.131693 0.402088 0.184591 0.0063 Uiso
C3_16 C 0.096817 0.586619 0.096817 0.0063 Uiso
H1_16 H 0.128125 0.370621 0.226800 0.0063 Uiso
H2_16 H 0.139566 0.618027 0.074673 0.0063 Uiso
H3_16 H 0.060828 0.573562 0.060828 0.0063 Uiso
C4_16 C 0.184591 0.402088 0.131693 0.0063 Uiso
H4_16 H 0.226800 0.370621 0.128125 0.0063 Uiso
H5_16 H 0.074673 0.618027 0.139566 0.0063 Uiso
loop_
_geom_bond_atom_site_label_1
_geom_bond_atom_site_label_2
_geom_bond_site_symmetry_1
_geom_bond_site_symmetry_2
Mn1 N1 1_555 1_555
C2 N1 1_555 1_555
H1 C2 1_555 1_555
C4 C2 1_555 1_555
H4 C4 1_555 1_555
C7 C5 1_555 1_555
H7 C7 1_555 1_555
H8 C7 1_555 1_555
H10 C7 1_555 1_555
Mn3 N2 1_555 1_555
N5 Mn1 1_555 1_555
N2 C4 1_555 1_555
C1 C3 1_555 1_555
C3 H2 1_555 1_555
H3 C3 1_555 1_555
H5 C3 1_555 1_555
N3 Mn1_2 1_555 1_555
C6 N3 1_555 1_555
H6 C6 1_555 1_555
C8 C6 1_555 1_555
H9 C8 1_555 1_555
Mn2_2 N4 1_555 1_555
N6 Mn1_2 1_555 1_555
N4 C8 1_555 1_555
Mn1_3 N1_2 1_555 1_555
C2_2 N1_2 1_555 1_555
H1_2 C2_2 1_555 1_555
C4_2 C2_2 1_555 1_555
H4_2 C4_2 1_555 1_555
C7_2 C5_2 1_555 1_555
H7_2 C7_2 1_555 1_555
H8_2 C7_2 1_555 1_555
H10_2 C7_2 1_555 1_555
Mn3_3 N2_2 1_555 1_555
N5_2 Mn1_3 1_555 1_555
N2_2 C4_2 1_555 1_555
C1_2 C3_2 1_555 1_555
C3_2 H2_2 1_555 1_555
H3_2 C3_2 1_555 1_555
H5_2 C3_2 1_555 1_555
N3_2 Mn1_4 1_555 1_555
C6_2 N3_2 1_555 1_555
H6_2 C6_2 1_555 1_555
C8_2 C6_2 1_555 1_555
H9_2 C8_2 1_555 1_555
Mn2_4 N4_2 1_555 1_555
N6_2 Mn1_4 1_555 1_555
N4_2 C8_2 1_555 1_555
Mn1_5 N1_3 1_555 1_555
C2_3 N1_3 1_555 1_555
H1_3 C2_3 1_555 1_555
C4_3 C2_3 1_555 1_555
H4_3 C4_3 1_555 1_555
C7_3 C5_3 1_555 1_555
H7_3 C7_3 1_555 1_555
H8_3 C7_3 1_555 1_555
H10_3 C7_3 1_555 1_555
Mn3_5 N2_3 1_555 1_555
N5_3 Mn1_5 1_555 1_555
N2_3 C4_3 1_555 1_555
C1_3 C3_3 1_555 1_555
C3_3 H2_3 1_555 1_555
H3_3 C3_3 1_555 1_555
H5_3 C3_3 1_555 1_555
N3_3 Mn1_6 1_555 1_555
C6_3 N3_3 1_555 1_555
H6_3 C6_3 1_555 1_555
C8_3 C6_3 1_555 1_555
H9_3 C8_3 1_555 1_555
Mn2_6 N4_3 1_555 1_555
N6_3 Mn1_6 1_555 1_555
N4_3 C8_3 1_555 1_555
Mn2 N1_4 1_555 1_555
C2_4 N1_4 1_555 1_555
H1_4 C2_4 1_555 1_555
C4_4 C2_4 1_555 1_555
H4_4 C4_4 1_555 1_555
Mn3_7 N2_4 1_555 1_555
N5_4 Mn2 1_555 1_555
N2_4 C4_4 1_555 1_555
C1_4 C3_4 1_555 1_555
C3_4 H2_4 1_555 1_555
H3_4 C3_4 1_555 1_555
H5_4 C3_4 1_555 1_555
N6_4 Mn2_2 1_555 1_555
Mn2_3 N1_5 1_555 1_555
C2_5 N1_5 1_555 1_555
H1_5 C2_5 1_555 1_555
C4_5 C2_5 1_555 1_555
H4_5 C4_5 1_555 1_555
Mn3_9 N2_5 1_555 1_555
N5_5 Mn2_3 1_555 1_555
N2_5 C4_5 1_555 1_555
C1_5 C3_5 1_555 1_555
C3_5 H2_5 1_555 1_555
H3_5 C3_5 1_555 1_555
H5_5 C3_5 1_555 1_555
N6_5 Mn2_4 1_555 1_555
Mn2_5 N1_6 1_555 1_555
C2_6 N1_6 1_555 1_555
H1_6 C2_6 1_555 1_555
C4_6 C2_6 1_555 1_555
H4_6 C4_6 1_555 1_555
Mn3_11 N2_6 1_555 1_555
N5_6 Mn2_5 1_555 1_555
N2_6 C4_6 1_555 1_555
C1_6 C3_6 1_555 1_555
C3_6 H2_6 1_555 1_555
H3_6 C3_6 1_555 1_555
H5_6 C3_6 1_555 1_555
N6_6 Mn2_6 1_555 1_555
C7_4 C5_4 1_555 1_555
H7_4 C7_4 1_555 1_555
H8_4 C7_4 1_555 1_555
H10_4 C7_4 1_555 1_555
N5_7 Mn3_7 1_555 1_555
N3_4 Mn3_8 1_555 1_555
C6_4 N3_4 1_555 1_555
H6_4 C6_4 1_555 1_555
C8_4 C6_4 1_555 1_555
H9_4 C8_4 1_555 1_555
Mn3_2 N4_4 1_555 1_555
N6_7 Mn3_8 1_555 1_555
N4_4 C8_4 1_555 1_555
C1_7 C3_7 1_555 1_555
C3_7 H2_7 1_555 1_555
H3_7 C3_7 1_555 1_555
H5_7 C3_7 1_555 1_555
N6_8 Mn3_11 1_555 1_555
Mn3_12 N1_7 1_555 1_555
C2_7 N1_7 1_555 1_555
H1_7 C2_7 1_555 1_555
C4_7 C2_7 1_555 1_555
H4_7 C4_7 1_555 1_555
Mn3_6 N2_7 1_555 1_555
N5_8 Mn3_12 1_555 1_555
N2_7 C4_7 1_555 1_555
N5_9 Mn3 1_555 1_555
N6_9 Mn3_2 1_555 1_555
C1_8 C3_8 1_555 1_555
C3_8 H2_8 1_555 1_555
H3_8 C3_8 1_555 1_555
H5_8 C3_8 1_555 1_555
N6_10 Mn3_3 1_555 1_555
Mn3_4 N1_8 1_555 1_555
C2_8 N1_8 1_555 1_555
H1_8 C2_8 1_555 1_555
C4_8 C2_8 1_555 1_555
H4_8 C4_8 1_555 1_555
Mn3_10 N2_8 1_555 1_555
N5_10 Mn3_4 1_555 1_555
N2_8 C4_8 1_555 1_555
N5_11 Mn3_9 1_555 1_555
N6_11 Mn3_10 1_555 1_555
N6_12 Mn3_5 1_555 1_555
N5_12 Mn3_6 1_555 1_555
N6_10 C1_9 1_555 1_555
C1_9 C3_9 1_555 1_555
C2_9 N6_10 1_555 1_555
C3_9 H2_9 1_555 1_555
H1_9 C2_9 1_555 1_555
H3_9 C3_9 1_555 1_555
N6_3 C1_9 1_555 1_555
C4_9 C2_9 1_555 1_555
H4_9 C4_9 1_555 1_555
H5_9 C3_9 1_555 1_555
N6_3 C4_9 1_555 1_555
C5_5 N5_10 1_555 1_555
C6_5 N5_10 1_555 1_555
C7_5 C5_5 1_555 1_555
H6_5 C6_5 1_555 1_555
H7_5 C7_5 1_555 1_555
H8_5 C7_5 1_555 1_555
N5_8 C5_5 1_555 1_555
C8_5 C6_5 1_555 1_555
H9_5 C8_5 1_555 1_555
H10_5 C7_5 1_555 1_555
N5_8 C8_5 1_555 1_555
N6_12 C1_10 1_555 1_555
C1_10 C3_10 1_555 1_555
C2_10 N6_12 1_555 1_555
C3_10 H2_10 1_555 1_555
H1_10 C2_10 1_555 1_555
H3_10 C3_10 1_555 1_555
N6 C1_10 1_555 1_555
C4_10 C2_10 1_555 1_555
H4_10 C4_10 1_555 1_555
H5_10 C3_10 1_555 1_555
N6 C4_10 1_555 1_555
C5_6 N5_12 1_555 1_555
C6_6 N5_12 1_555 1_555
C7_6 C5_6 1_555 1_555
H6_6 C6_6 1_555 1_555
H7_6 C7_6 1_555 1_555
H8_6 C7_6 1_555 1_555
N6_7 C5_6 1_555 1_555
C8_6 C6_6 1_555 1_555
H9_6 C8_6 1_555 1_555
H10_6 C7_6 1_555 1_555
N6_7 C8_6 1_555 1_555
N5_9 C1_11 1_555 1_555
C1_11 C3_11 1_555 1_555
C2_11 N5_9 1_555 1_555
C3_11 H2_11 1_555 1_555
H1_11 C2_11 1_555 1_555
H3_11 C3_11 1_555 1_555
N6_2 C1_11 1_555 1_555
C4_11 C2_11 1_555 1_555
H4_11 C4_11 1_555 1_555
H5_11 C3_11 1_555 1_555
N6_2 C4_11 1_555 1_555
C5_7 N6_9 1_555 1_555
C6_7 N6_9 1_555 1_555
C7_7 C5_7 1_555 1_555
H6_7 C6_7 1_555 1_555
H7_7 C7_7 1_555 1_555
H8_7 C7_7 1_555 1_555
N6_11 C5_7 1_555 1_555
C8_7 C6_7 1_555 1_555
H9_7 C8_7 1_555 1_555
H10_7 C7_7 1_555 1_555
N6_11 C8_7 1_555 1_555
N6_8 C1_12 1_555 1_555
C1_12 C3_12 1_555 1_555
C2_12 N6_8 1_555 1_555
C3_12 H2_12 1_555 1_555
H1_12 C2_12 1_555 1_555
H3_12 C3_12 1_555 1_555
N6_5 C1_12 1_555 1_555
C4_12 C2_12 1_555 1_555
H4_12 C4_12 1_555 1_555
H5_12 C3_12 1_555 1_555
N6_5 C4_12 1_555 1_555
N5_7 C1_13 1_555 1_555
C1_13 C3_13 1_555 1_555
C2_13 N5_7 1_555 1_555
C3_13 H2_13 1_555 1_555
H1_13 C2_13 1_555 1_555
H3_13 C3_13 1_555 1_555
N6_6 C1_13 1_555 1_555
C4_13 C2_13 1_555 1_555
H4_13 C4_13 1_555 1_555
H5_13 C3_13 1_555 1_555
N6_6 C4_13 1_555 1_555
N5_11 C1_14 1_555 1_555
C1_14 C3_14 1_555 1_555
C2_14 N5_11 1_555 1_555
C3_14 H2_14 1_555 1_555
H1_14 C2_14 1_555 1_555
H3_14 C3_14 1_555 1_555
N6_4 C1_14 1_555 1_555
C4_14 C2_14 1_555 1_555
H4_14 C4_14 1_555 1_555
H5_14 C3_14 1_555 1_555
N6_4 C4_14 1_555 1_555
C5_8 N5_5 1_555 1_555
C6_8 N5_5 1_555 1_555
C7_8 C5_8 1_555 1_555
H6_8 C6_8 1_555 1_555
H7_8 C7_8 1_555 1_555
H8_8 C7_8 1_555 1_555
N5_3 C5_8 1_555 1_555
C8_8 C6_8 1_555 1_555
H9_8 C8_8 1_555 1_555
H10_8 C7_8 1_555 1_555
N5_3 C8_8 1_555 1_555
N5_4 C1_15 1_555 1_555
C1_15 C3_15 1_555 1_555
C2_15 N5_4 1_555 1_555
C3_15 H2_15 1_555 1_555
H1_15 C2_15 1_555 1_555
H3_15 C3_15 1_555 1_555
N5_2 C1_15 1_555 1_555
C4_15 C2_15 1_555 1_555
H4_15 C4_15 1_555 1_555
H5_15 C3_15 1_555 1_555
N5_2 C4_15 1_555 1_555
N5 C1_16 1_555 1_555
C1_16 C3_16 1_555 1_555
C2_16 N5 1_555 1_555
C3_16 H2_16 1_555 1_555
H1_16 C2_16 1_555 1_555
H3_16 C3_16 1_555 1_555
N5_6 C1_16 1_555 1_555
C4_16 C2_16 1_555 1_555
H4_16 C4_16 1_555 1_555
H5_16 C3_16 1_555 1_555
N5_6 C4_16 1_555 1_555

#END
