
###############################################################################
#
# This file contains modified crystal structure data generated from the
# MOF subset of the Cambridge Structural Database (CSD) v543 
# hosted by the Cambridge Crystallographic Data Centre (CCDC).
#
# This work is licensed under the Creative Commons
# Attribution-NonCommercial-ShareAlike 4.0 International License.
# To view a copy of this license, visit
# http://creativecommons.org/licenses/by-nc-sa/4.0/
# or send a letter to
# Creative Commons, PO Box 1866, Mountain View, CA 94042, USA.
#
# CIF created using the CSD Python API on 29 September 2022
# The structure has been converted into the P1 space group
# The structure has a 3D framework
# The original CSD entry FEJFAE is in the monoclinic crystal system
# The framework has been calculated to contain at least 10.0% void space
# The void calculation uses a probe of radius 1.32A, grid spacing 0.4
#
###############################################################################

data_FEJFAE
_chemical_formula_moiety         '(C48 H32 Mn8 N8 O16)n'
_symmetry_cell_setting           triclinic
_symmetry_space_group_name_H-M   'P 1'
_symmetry_Int_Tables_number      1
_space_group_name_Hall           'P 1'
loop_
_symmetry_equiv_pos_site_id
_symmetry_equiv_pos_as_xyz
1 x,y,z
_cell_length_a                   10.0292(3)
_cell_length_b                   13.5724(3)
_cell_length_c                   10.3629(4)
_cell_angle_alpha                90
_cell_angle_beta                 104.700(3)
_cell_angle_gamma                90
_cell_volume                     1364.43
loop_
_atom_site_label
_atom_site_type_symbol
_atom_site_fract_x
_atom_site_fract_y
_atom_site_fract_z
Mn7 Mn 0.0000 0.0000 0.0000
Mn7_2 Mn 0.0000 0.0000 1.0000
H1 H 0.0301 0.7645 0.0227
Mn7_3 Mn -0.0000 1.0000 0.0000
Mn2 Mn 0.0000 0.5000 0.5000
Mn7_4 Mn 0.0000 1.0000 1.0000
O9 O 0.1139(3) 0.4667(2) 0.3526(3)
O10 O 0.1669(3) 0.5824(2) 0.6243(3)
N5 N 0.0687(4) 0.3581(3) 0.6142(4)
Mn4 Mn 0.5000 0.0000 0.0000
Mn7_5 Mn 1.0000 0.0000 0.0000
Mn4_2 Mn 0.5000 0.0000 1.0000
Mn7_6 Mn 1.0000 0.0000 1.0000
Mn4_3 Mn 0.5000 1.0000 0.0000
Mn7_7 Mn 1.0000 1.0000 0.0000
Mn1 Mn 0.5000 0.5000 0.5000
Mn2_2 Mn 1.0000 0.5000 0.5000
O1 O 0.6682(3) 0.5877(2) 0.6125(3)
O2 O 0.8861(3) 0.5333(2) 0.6474(3)
O3 O 0.6140(3) 0.4643(2) 0.3541(3)
O4 O 0.8331(3) 0.4176(2) 0.3757(3)
N1 N 0.9313(4) 0.8581(3) 0.8858(4)
N2 N 0.5729(4) 0.1389(3) 0.1165(4)
C1 C 0.9718(5) 0.7688(3) 0.9349(5)
C2 C 0.9336(5) 0.6823(3) 0.8649(5)
H2 H 0.9679 0.6207 0.9027
C3 C 0.8446(4) 0.6870(3) 0.7388(4)
C4 C 0.7997(5) 0.7791(3) 0.6870(5)
H3 H 0.7378 0.7852 0.6012
C5 C 0.8472(5) 0.8622(3) 0.7632(5)
H4 H 0.8185 0.9251 0.7262
C6 C 0.7962(4) 0.5942(3) 0.6584(4)
C7 C 0.7049(4) 0.1681(3) 0.1457(4)
H5 H 0.7698 0.1285 0.1166
C8 C 0.7504(4) 0.2530(3) 0.2158(5)
H6 H 0.8450 0.2708 0.2348
C9 C 0.6575(4) 0.3123(3) 0.2585(4)
C10 C 0.5209(5) 0.2834(4) 0.2279(5)
H7 H 0.4537 0.3222 0.2545
C11 C 0.4836(5) 0.1963(4) 0.1573(5)
H8 H 0.3896 0.1766 0.1370
C12 C 0.7050(4) 0.4064(3) 0.3363(4)
O5 O 0.3318(3) 0.4123(2) 0.3875(3)
O7 O 0.3860(3) 0.5357(2) 0.6459(3)
N3 N 0.0687(4) 0.1419(3) 0.1142(4)
N4 N 0.4271(4) 0.8611(3) 0.8835(4)
C13 C 0.0282(5) 0.2312(3) 0.0651(5)
C14 C 0.0664(5) 0.3177(3) 0.1351(5)
H10 H 0.0321 0.3793 0.0973
C15 C 0.1554(4) 0.3130(3) 0.2612(4)
C16 C 0.2003(5) 0.2209(3) 0.3130(5)
H11 H 0.2622 0.2148 0.3988
C17 C 0.1528(5) 0.1378(3) 0.2368(5)
H12 H 0.1815 0.0749 0.2738
C18 C 0.2038(4) 0.4058(3) 0.3416(4)
C19 C 0.2951(4) 0.8319(3) 0.8543(4)
H13 H 0.2302 0.8715 0.8834
C20 C 0.2496(4) 0.7470(3) 0.7842(5)
H14 H 0.1550 0.7292 0.7652
C21 C 0.3425(4) 0.6877(3) 0.7415(4)
C22 C 0.4791(5) 0.7166(4) 0.7721(5)
H15 H 0.5463 0.6778 0.7455
C23 C 0.5164(5) 0.8037(4) 0.8427(5)
H16 H 0.6104 0.8234 0.8630
C24 C 0.2950(4) 0.5936(3) 0.6637(4)
Mn4_4 Mn 0.5000 1.0000 1.0000
Mn7_8 Mn 1.0000 1.0000 1.0000
N6 N 0.9313(4) 0.6419(3) 0.3858(4)
N7 N 0.4271(4) 0.6389(3) 0.3835(4)
N8 N 0.5729(4) 0.3611(3) 0.6165(4)
H9 H 0.9699 0.2355 0.9773
H9_2 H 0.0301 0.7355 0.5227
O1_2 O 0.3318(3) 0.0877(2) 0.8875(3)
O2_2 O 0.1139(3) 0.0333(2) 0.8526(3)
C1_2 C 0.0282(5) 0.2688(3) 0.5651(5)
C2_2 C 0.0664(5) 0.1823(3) 0.6351(5)
H2_2 H 0.0321 0.1207 0.5973
C3_2 C 0.1554(4) 0.1870(3) 0.7612(4)
C4_2 C 0.2003(5) 0.2791(3) 0.8130(5)
H3_2 H 0.2622 0.2852 0.8988
C5_2 C 0.1528(5) 0.3622(3) 0.7368(5)
H4_2 H 0.1815 0.4251 0.7738
C6_2 C 0.2038(4) 0.0942(3) 0.8416(4)
O7_2 O 0.6140(3) 0.0357(2) 0.8541(3)
O8 O 0.8331(3) 0.0824(2) 0.8757(3)
C19_2 C 0.7049(4) 0.3319(3) 0.6457(4)
H13_2 H 0.7698 0.3715 0.6166
C20_2 C 0.7504(4) 0.2470(3) 0.7158(5)
H14_2 H 0.8450 0.2292 0.7348
C21_2 C 0.6575(4) 0.1877(3) 0.7585(4)
C22_2 C 0.5209(5) 0.2166(4) 0.7279(5)
H15_2 H 0.4537 0.1778 0.7545
C23_2 C 0.4836(5) 0.3037(4) 0.6573(5)
H16_2 H 0.3896 0.3234 0.6370
C24_2 C 0.7050(4) 0.0936(3) 0.8363(4)
O3_2 O 0.3860(3) 0.9643(2) 0.1459(3)
O4_2 O 0.1669(3) 0.9176(2) 0.1243(3)
C7_2 C 0.2951(4) 0.6681(3) 0.3543(4)
H5_2 H 0.2302 0.6285 0.3834
C8_2 C 0.2496(4) 0.7530(3) 0.2842(5)
H6_2 H 0.1550 0.7708 0.2652
C9_2 C 0.3425(4) 0.8123(3) 0.2415(4)
C10_2 C 0.4791(5) 0.7834(4) 0.2721(5)
H7_2 H 0.5463 0.8222 0.2455
C11_2 C 0.5164(5) 0.6963(4) 0.3427(5)
H8_2 H 0.6104 0.6766 0.3630
C12_2 C 0.2950(4) 0.9064(3) 0.1637(4)
O5_2 O 0.6682(3) 0.9123(2) 0.1125(3)
O6 O 0.8861(3) 0.9667(2) 0.1474(3)
C13_2 C 0.9718(5) 0.7312(3) 0.4349(5)
C14_2 C 0.9336(5) 0.8177(3) 0.3649(5)
H10_2 H 0.9679 0.8793 0.4027
C15_2 C 0.8446(4) 0.8130(3) 0.2388(4)
C16_2 C 0.7997(5) 0.7209(3) 0.1870(5)
H11_2 H 0.7378 0.7148 0.1012
C17_2 C 0.8472(5) 0.6378(3) 0.2632(5)
H12_2 H 0.8185 0.5749 0.2262
C18_2 C 0.7962(4) 0.9058(3) 0.1584(4)
H1_2 H 0.9699 0.2645 0.4773
loop_
_geom_bond_atom_site_label_1
_geom_bond_atom_site_label_2
_geom_bond_site_symmetry_1
_geom_bond_site_symmetry_2
O9 Mn2 1_555 1_555
O10 Mn2 1_555 1_555
N5 Mn2 1_555 1_555
Mn1 O1 1_555 1_555
Mn2_2 O2 1_555 1_555
O1 C6 1_555 1_555
O2 C6 1_555 1_555
O3 Mn1 1_555 1_555
O4 Mn2_2 1_555 1_555
N1 C1 1_555 1_555
N2 C7 1_555 1_555
C2 C1 1_555 1_555
H2 C2 1_555 1_555
C3 C2 1_555 1_555
C4 C3 1_555 1_555
H3 C4 1_555 1_555
C5 N1 1_555 1_555
H4 C5 1_555 1_555
C6 C3 1_555 1_555
C7 H5 1_555 1_555
C8 C7 1_555 1_555
H6 C8 1_555 1_555
C9 C8 1_555 1_555
C10 C9 1_555 1_555
H7 C10 1_555 1_555
C11 N2 1_555 1_555
H8 C11 1_555 1_555
C12 O3 1_555 1_555
O5 Mn1 1_555 1_555
O9 C18 1_555 1_555
O7 Mn1 1_555 1_555
O10 C24 1_555 1_555
N3 C13 1_555 1_555
N4 C19 1_555 1_555
C14 C13 1_555 1_555
H10 C14 1_555 1_555
C15 C14 1_555 1_555
C16 C15 1_555 1_555
H11 C16 1_555 1_555
C17 N3 1_555 1_555
H12 C17 1_555 1_555
C18 O5 1_555 1_555
C19 H13 1_555 1_555
C20 C19 1_555 1_555
H14 C20 1_555 1_555
C21 C20 1_555 1_555
C22 C21 1_555 1_555
H15 C22 1_555 1_555
C23 N4 1_555 1_555
H16 C23 1_555 1_555
C24 O7 1_555 1_555
Mn4 N2 1_555 1_555
Mn4_4 N4 1_555 1_555
Mn7 N3 1_555 1_555
Mn7_8 N1 1_555 1_555
N6 Mn2_2 1_555 1_555
N7 Mn1 1_555 1_555
N8 Mn1 1_555 1_555
O4 C12 1_555 1_555
C4 C5 1_555 1_555
C9 C12 1_555 1_555
C10 C11 1_555 1_555
C15 C18 1_555 1_555
C16 C17 1_555 1_555
C21 C24 1_555 1_555
C22 C23 1_555 1_555
Mn4_2 O1_2 1_555 1_555
Mn7_2 O2_2 1_555 1_555
O1_2 C6_2 1_555 1_555
O2_2 C6_2 1_555 1_555
N5 C1_2 1_555 1_555
C2_2 C1_2 1_555 1_555
H2_2 C2_2 1_555 1_555
C3_2 C2_2 1_555 1_555
C4_2 C3_2 1_555 1_555
H3_2 C4_2 1_555 1_555
C5_2 N5 1_555 1_555
H4_2 C5_2 1_555 1_555
C6_2 C3_2 1_555 1_555
O7_2 Mn4_2 1_555 1_555
O8 C24_2 1_555 1_555
N8 C19_2 1_555 1_555
C19_2 H13_2 1_555 1_555
C20_2 C19_2 1_555 1_555
H14_2 C20_2 1_555 1_555
C21_2 C20_2 1_555 1_555
C22_2 C21_2 1_555 1_555
H15_2 C22_2 1_555 1_555
C23_2 N8 1_555 1_555
H16_2 C23_2 1_555 1_555
C24_2 O7_2 1_555 1_555
C4_2 C5_2 1_555 1_555
O8 Mn7_6 1_555 1_555
C21_2 C24_2 1_555 1_555
C22_2 C23_2 1_555 1_555
O3_2 Mn4_3 1_555 1_555
O4_2 Mn7_3 1_555 1_555
N7 C7_2 1_555 1_555
C7_2 H5_2 1_555 1_555
C8_2 C7_2 1_555 1_555
H6_2 C8_2 1_555 1_555
C9_2 C8_2 1_555 1_555
C10_2 C9_2 1_555 1_555
H7_2 C10_2 1_555 1_555
C11_2 N7 1_555 1_555
H8_2 C11_2 1_555 1_555
C12_2 O3_2 1_555 1_555
O5_2 Mn4_3 1_555 1_555
O6 C18_2 1_555 1_555
N6 C13_2 1_555 1_555
C14_2 C13_2 1_555 1_555
H10_2 C14_2 1_555 1_555
C15_2 C14_2 1_555 1_555
C16_2 C15_2 1_555 1_555
H11_2 C16_2 1_555 1_555
C17_2 N6 1_555 1_555
H12_2 C17_2 1_555 1_555
C18_2 O5_2 1_555 1_555
Mn7_7 O6 1_555 1_555
O4_2 C12_2 1_555 1_555
C9_2 C12_2 1_555 1_555
C10_2 C11_2 1_555 1_555
C15_2 C18_2 1_555 1_555
C16_2 C17_2 1_555 1_555

#END
