
###############################################################################
#
# This file contains modified crystal structure data generated from the
# MOF subset of the Cambridge Structural Database (CSD) v543 
# hosted by the Cambridge Crystallographic Data Centre (CCDC).
#
# This work is licensed under the Creative Commons
# Attribution-NonCommercial-ShareAlike 4.0 International License.
# To view a copy of this license, visit
# http://creativecommons.org/licenses/by-nc-sa/4.0/
# or send a letter to
# Creative Commons, PO Box 1866, Mountain View, CA 94042, USA.
#
# CIF created using the CSD Python API on 29 September 2022
# The structure has been converted into the P1 space group
# The structure has a 3D framework
# The original CSD entry FEJZON is in the orthorhombic crystal system
# The framework has been calculated to contain at least 10.0% void space
# The void calculation uses a probe of radius 1.32A, grid spacing 0.4
#
###############################################################################

data_FEJZON
_chemical_formula_moiety         '(C140 H96 N8 O24 Zn2)n'
_symmetry_cell_setting           triclinic
_symmetry_space_group_name_H-M   'P 1'
_symmetry_Int_Tables_number      1
_space_group_name_Hall           'P 1'
loop_
_symmetry_equiv_pos_site_id
_symmetry_equiv_pos_as_xyz
1 x,y,z
_cell_length_a                   21.599(17)
_cell_length_b                   12.560(10)
_cell_length_c                   11.946(9)
_cell_angle_alpha                90
_cell_angle_beta                 90
_cell_angle_gamma                90
_cell_volume                     3240.75
loop_
_atom_site_label
_atom_site_type_symbol
_atom_site_fract_x
_atom_site_fract_y
_atom_site_fract_z
Zn1 Zn 0.52157(4) 0.48989(8) 0.77084(18)
O1 O 0.2886(3) 0.3717(7) 0.7245(6)
H1 H 0.3170 0.3945 0.7632
O2 O 0.3955(4) 0.4280(9) 0.7771(9)
O3 O 0.4754(3) 0.4059(6) 0.6616(7)
O4 O 0.1098(4) 0.1344(8) 0.5151(9)
H2 H 0.0775 0.1049 0.4966
O5 O 0.0192(3) 0.0875(6) 0.3833(8)
O6 O 0.0181(4) 0.1718(10) 0.2189(9)
N1 N 0.6024(4) 0.5452(8) 0.7010(7)
N2 N 0.9392(4) 0.8750(8) 0.3716(7)
C1 C 0.6576(5) 0.5298(12) 0.7420(13)
H3 H 0.6613 0.4950 0.8104
C2 C 0.7106(6) 0.5629(17) 0.6882(19)
H4 H 0.7488 0.5517 0.7220
C3 C 0.7080(6) 0.6132(15) 0.5836(16)
C4 C 0.6503(6) 0.6302(12) 0.5418(13)
H5 H 0.6452 0.6649 0.4737
C5 C 0.5989(5) 0.5952(9) 0.6020(11)
H6 H 0.5599 0.6073 0.5717
C6 C 0.7624(7) 0.6439(19) 0.5097(16)
H7 H 0.7609 0.6387 0.4321
C7 C 0.8111(8) 0.678(2) 0.563(2)
H8 H 0.8168 0.6652 0.6389
C8 C 0.9215(5) 0.8999(10) 0.4760(9)
H9 H 0.9361 0.9625 0.5081
C9 C 0.8836(6) 0.8376(16) 0.5351(12)
H10 H 0.8726 0.8582 0.6072
C10 C 0.8597(6) 0.7416(15) 0.4921(14)
C11 C 0.8792(8) 0.7168(13) 0.3852(14)
H11 H 0.8648 0.6553 0.3504
C12 C 0.9198(6) 0.7826(10) 0.3298(11)
H12 H 0.9344 0.7617 0.2599
C13 C 0.3120(4) 0.3228(8) 0.6339(8)
C14 C 0.3768(4) 0.3310(8) 0.6107(9)
C15 C 0.4004(5) 0.2820(9) 0.5182(9)
H13 H 0.4425 0.2883 0.5027
C16 C 0.3619(5) 0.2209(9) 0.4441(10)
C17 C 0.2982(5) 0.2132(7) 0.4685(9)
C18 C 0.2720(5) 0.2681(9) 0.5610(9)
C19 C 0.2629(6) 0.1482(9) 0.3938(10)
H14 H 0.2210 0.1384 0.4083
C20 C 0.2880(8) 0.0999(12) 0.3021(12)
H15 H 0.2633 0.0583 0.2558
C21 C 0.3498(7) 0.1125(12) 0.2782(13)
H16 H 0.3664 0.0822 0.2138
C22 C 0.3865(6) 0.1694(13) 0.3485(12)
H17 H 0.4287 0.1746 0.3336
C23 C 0.2032(5) 0.2646(10) 0.5898(9)
H18 H 0.1925 0.1924 0.6112
H19 H 0.1960 0.3100 0.6542
C24 C 0.1141(5) 0.2304(9) 0.4624(10)
C25 C 0.1607(4) 0.2994(8) 0.4961(9)
C26 C 0.1626(5) 0.4007(8) 0.4448(10)
C27 C 0.1227(5) 0.4253(9) 0.3557(10)
C28 C 0.0813(5) 0.3462(10) 0.3152(11)
H20 H 0.0571 0.3605 0.2525
C29 C 0.0764(4) 0.2507(8) 0.3661(9)
C30 C 0.2061(6) 0.4812(9) 0.4817(13)
H21 H 0.2329 0.4658 0.5404
C31 C 0.2087(8) 0.5775(11) 0.4331(18)
H22 H 0.2367 0.6280 0.4589
C32 C 0.1691(9) 0.6024(12) 0.3433(19)
H23 H 0.1711 0.6697 0.3112
C33 C 0.1274(7) 0.5293(11) 0.3021(15)
H24 H 0.1026 0.5461 0.2409
C34 C 0.4181(5) 0.3919(9) 0.6860(9)
C35 C 0.0332(5) 0.1675(10) 0.3152(12)
Zn3 Zn 0.97843(4) 0.98989(8) 0.27084(18)
O7 O 0.4808(3) 0.5875(6) 0.8833(8)
O8 O 0.4819(4) 0.6718(10) 0.7189(9)
N3 N 0.5608(4) 0.3750(8) 0.8716(7)
H2_2 H 0.4225 0.6049 0.9966
C16_2 C 0.1381(5) 0.7209(9) 0.9441(10)
C17_2 C 0.2018(5) 0.7132(7) 0.9685(9)
C19_2 C 0.2371(6) 0.6482(9) 0.8938(10)
H14_2 H 0.2790 0.6384 0.9083
C20_2 C 0.2120(8) 0.5999(12) 0.8021(12)
H15_2 H 0.2367 0.5583 0.7558
C21_2 C 0.1502(7) 0.6125(12) 0.7782(13)
H16_2 H 0.1336 0.5822 0.7138
C22_2 C 0.1135(6) 0.6694(13) 0.8485(12)
H17_2 H 0.0713 0.6746 0.8336
C24_2 C 0.3859(5) 0.7304(9) 0.9624(10)
C25_2 C 0.3393(4) 0.7994(8) 0.9961(9)
C26_2 C 0.3374(5) 0.9007(8) 0.9448(10)
C27_2 C 0.3773(5) 0.9253(9) 0.8557(10)
C28_2 C 0.4187(5) 0.8462(10) 0.8152(11)
H20_2 H 0.4429 0.8605 0.7525
C29_2 C 0.4236(4) 0.7507(8) 0.8661(9)
C30_2 C 0.2939(6) 0.9812(9) 0.9817(13)
C35_2 C 0.4668(5) 0.6675(10) 0.8152(12)
H5_2 H 0.8548 0.1649 0.9737
H7_2 H 0.7391 0.1387 0.9321
C8_2 C 0.5785(5) 0.3999(10) 0.9760(9)
C10_2 C 0.6403(6) 0.2416(15) 0.9921(14)
C11_2 C 0.6208(8) 0.2168(13) 0.8852(14)
H11_2 H 0.6352 0.1553 0.8504
C12_2 C 0.5802(6) 0.2826(10) 0.8298(11)
H12_2 H 0.5656 0.2617 0.7599
H3_2 H 0.8387 0.9950 0.3104
Zn2 Zn 0.02157(4) 0.01011(8) 0.77084(18)
H2_3 H 0.9225 0.8951 0.9966
O5_2 O 0.9808(3) 0.9125(6) 0.8833(8)
O6_2 O 0.9819(4) 0.8282(10) 0.7189(9)
N2_2 N 0.0608(4) 0.1250(8) 0.8716(7)
H5_3 H 0.3548 0.3351 0.9737
H7_3 H 0.2391 0.3613 0.9321
C8_3 C 0.0785(5) 0.1001(10) 0.9760(9)
C10_3 C 0.1403(6) 0.2584(15) 0.9921(14)
C11_3 C 0.1208(8) 0.2832(13) 0.8852(14)
H11_3 H 0.1352 0.3447 0.8504
C12_3 C 0.0802(6) 0.2174(10) 0.8298(11)
H12_3 H 0.0656 0.2383 0.7599
C16_3 C 0.6381(5) 0.7791(9) 0.9441(10)
C17_3 C 0.7018(5) 0.7868(7) 0.9685(9)
C19_3 C 0.7371(6) 0.8518(9) 0.8938(10)
H14_3 H 0.7790 0.8616 0.9083
C20_3 C 0.7120(8) 0.9001(12) 0.8021(12)
H15_3 H 0.7367 0.9417 0.7558
C21_3 C 0.6502(7) 0.8875(12) 0.7782(13)
H16_3 H 0.6336 0.9178 0.7138
C22_3 C 0.6135(6) 0.8306(13) 0.8485(12)
H17_3 H 0.5713 0.8254 0.8336
C24_3 C 0.8859(5) 0.7696(9) 0.9624(10)
C25_3 C 0.8393(4) 0.7006(8) 0.9961(9)
C26_3 C 0.8374(5) 0.5993(8) 0.9448(10)
C27_3 C 0.8773(5) 0.5747(9) 0.8557(10)
C28_3 C 0.9187(5) 0.6538(10) 0.8152(11)
H20_3 H 0.9429 0.6395 0.7525
C29_3 C 0.9236(4) 0.7493(8) 0.8661(9)
C30_3 C 0.7939(6) 0.5188(9) 0.9817(13)
C31_2 C 0.7913(8) 0.4225(11) 0.9331(18)
H22_2 H 0.7633 0.3720 0.9589
C32_2 C 0.8309(9) 0.3976(12) 0.8433(19)
H23_2 H 0.8289 0.3303 0.8112
C33_2 C 0.8726(7) 0.4707(11) 0.8021(15)
H24_2 H 0.8974 0.4539 0.7409
C35_3 C 0.9668(5) 0.8325(10) 0.8152(12)
H3_3 H 0.1613 0.0050 0.8104
C31_3 C 0.7087(8) 0.9225(11) 0.4331(18)
H22_3 H 0.7367 0.8720 0.4589
C32_3 C 0.6691(9) 0.8976(12) 0.3433(19)
H23_3 H 0.6711 0.8303 0.3112
C33_3 C 0.6274(7) 0.9707(11) 0.3021(15)
H24_3 H 0.6026 0.9539 0.2409
Zn1_2 Zn 0.47843(4) 0.51011(8) 0.27084(18)
O1_2 O 0.7114(3) 0.6283(7) 0.2245(6)
H1_2 H 0.6830 0.6055 0.2632
O2_2 O 0.6045(4) 0.5720(9) 0.2771(9)
O3_2 O 0.5246(3) 0.5941(6) 0.1616(7)
O4_2 O 0.8902(4) 0.8656(8) 0.0151(9)
N1_2 N 0.3976(4) 0.4548(8) 0.2010(7)
C1_2 C 0.3424(5) 0.4702(12) 0.2420(13)
H3_4 H 0.3387 0.5050 0.3104
C2_2 C 0.2894(6) 0.4371(17) 0.1882(19)
H4_2 H 0.2512 0.4483 0.2220
C3_2 C 0.2920(6) 0.3868(15) 0.0836(16)
C4_2 C 0.3497(6) 0.3698(12) 0.0418(13)
C5_2 C 0.4011(5) 0.4048(9) 0.1020(11)
H6_2 H 0.4401 0.3927 0.0717
C6_2 C 0.2376(7) 0.3561(19) 0.0097(16)
C7_2 C 0.1889(8) 0.322(2) 0.063(2)
H8_2 H 0.1832 0.3348 0.1389
H9_2 H 0.0639 0.0375 0.0081
C9_2 C 0.1164(6) 0.1624(16) 0.0351(12)
H10_2 H 0.1274 0.1418 0.1072
C13_2 C 0.6880(4) 0.6772(8) 0.1339(8)
C14_2 C 0.6232(4) 0.6690(8) 0.1107(9)
C15_2 C 0.5996(5) 0.7180(9) 0.0182(9)
H13_2 H 0.5575 0.7117 0.0027
C18_2 C 0.7280(5) 0.7319(9) 0.0610(9)
C23_2 C 0.7968(5) 0.7354(10) 0.0898(9)
H18_2 H 0.8075 0.8076 0.1112
H19_2 H 0.8040 0.6900 0.1542
H21_2 H 0.7671 0.5342 0.0404
C34_2 C 0.5819(5) 0.6081(9) 0.1860(9)
O7_2 O 0.5192(3) 0.4125(6) 0.3833(8)
O8_2 O 0.5181(4) 0.3282(10) 0.2189(9)
N3_2 N 0.4392(4) 0.6250(8) 0.3716(7)
N1_3 N 0.1024(4) 0.9548(8) 0.7010(7)
C1_3 C 0.1576(5) 0.9702(12) 0.7420(13)
C2_3 C 0.2106(6) 0.9371(17) 0.6882(19)
H4_3 H 0.2488 0.9483 0.7220
C3_3 C 0.2080(6) 0.8868(15) 0.5836(16)
C4_3 C 0.1503(6) 0.8698(12) 0.5418(13)
H5_4 H 0.1452 0.8351 0.4737
C5_3 C 0.0989(5) 0.9048(9) 0.6020(11)
H6_3 H 0.0599 0.8927 0.5717
C6_3 C 0.2624(7) 0.8561(19) 0.5097(16)
H7_4 H 0.2609 0.8613 0.4321
C7_3 C 0.3111(8) 0.822(2) 0.563(2)
H8_3 H 0.3168 0.8348 0.6389
C8_4 C 0.4215(5) 0.6001(10) 0.4760(9)
H9_3 H 0.4361 0.5375 0.5081
C9_3 C 0.3836(6) 0.6624(16) 0.5351(12)
H10_3 H 0.3726 0.6418 0.6072
C10_4 C 0.3597(6) 0.7584(15) 0.4921(14)
C11_4 C 0.3792(8) 0.7832(13) 0.3852(14)
H11_4 H 0.3648 0.8447 0.3504
C12_4 C 0.4198(6) 0.7174(10) 0.3298(11)
H12_4 H 0.4344 0.7383 0.2599
O1_3 O 0.7886(3) 0.1283(7) 0.7245(6)
H1_3 H 0.8170 0.1055 0.7632
O2_3 O 0.8955(4) 0.0720(9) 0.7771(9)
O3_3 O 0.9754(3) 0.0941(6) 0.6616(7)
O4_3 O 0.6098(4) 0.3656(8) 0.5151(9)
H2_4 H 0.5775 0.3951 0.4966
C13_3 C 0.8120(4) 0.1772(8) 0.6339(8)
C14_3 C 0.8768(4) 0.1690(8) 0.6107(9)
C15_3 C 0.9004(5) 0.2180(9) 0.5182(9)
H13_3 H 0.9425 0.2117 0.5027
C16_4 C 0.8619(5) 0.2791(9) 0.4441(10)
C17_4 C 0.7982(5) 0.2868(7) 0.4685(9)
C18_3 C 0.7720(5) 0.2319(9) 0.5610(9)
C19_4 C 0.7629(6) 0.3518(9) 0.3938(10)
H14_4 H 0.7210 0.3616 0.4083
C20_4 C 0.7880(8) 0.4001(12) 0.3021(12)
H15_4 H 0.7633 0.4417 0.2558
C21_4 C 0.8498(7) 0.3875(12) 0.2782(13)
H16_4 H 0.8664 0.4178 0.2138
C22_4 C 0.8865(6) 0.3306(13) 0.3485(12)
H17_4 H 0.9287 0.3254 0.3336
C23_3 C 0.7032(5) 0.2354(10) 0.5898(9)
H18_3 H 0.6925 0.3076 0.6112
H19_3 H 0.6960 0.1900 0.6542
C24_4 C 0.6141(5) 0.2696(9) 0.4624(10)
C25_4 C 0.6607(4) 0.2006(8) 0.4961(9)
C26_4 C 0.6626(5) 0.0993(8) 0.4448(10)
C27_4 C 0.6227(5) 0.0747(9) 0.3557(10)
C28_4 C 0.5813(5) 0.1538(10) 0.3152(11)
H20_4 H 0.5571 0.1395 0.2525
C29_4 C 0.5764(4) 0.2493(8) 0.3661(9)
C30_4 C 0.7061(6) 0.0188(9) 0.4817(13)
H21_3 H 0.7329 0.0342 0.5404
C34_3 C 0.9181(5) 0.1081(9) 0.6860(9)
C35_4 C 0.5332(5) 0.3325(10) 0.3152(12)
C31_4 C 0.2913(8) 0.0775(11) 0.9331(18)
H22_4 H 0.2633 0.1280 0.9589
C32_4 C 0.3309(9) 0.1024(12) 0.8433(19)
H23_4 H 0.3289 0.1697 0.8112
C33_4 C 0.3726(7) 0.0293(11) 0.8021(15)
H24_4 H 0.3974 0.0461 0.7409
O1_4 O 0.2114(3) 0.8717(7) 0.2245(6)
H1_4 H 0.1830 0.8945 0.2632
O2_4 O 0.1045(4) 0.9280(9) 0.2771(9)
O3_4 O 0.0246(3) 0.9059(6) 0.1616(7)
O4_4 O 0.3902(4) 0.6344(8) 0.0151(9)
C13_4 C 0.1880(4) 0.8228(8) 0.1339(8)
C14_4 C 0.1232(4) 0.8310(8) 0.1107(9)
C15_4 C 0.0996(5) 0.7820(9) 0.0182(9)
H13_4 H 0.0575 0.7883 0.0027
C18_4 C 0.2280(5) 0.7681(9) 0.0610(9)
C23_4 C 0.2968(5) 0.7646(10) 0.0898(9)
H18_4 H 0.3075 0.6924 0.1112
H19_4 H 0.3040 0.8100 0.1542
H21_4 H 0.2671 0.9658 0.0404
C34_4 C 0.0819(5) 0.8919(9) 0.1860(9)
N1_4 N 0.8976(4) 0.0452(8) 0.2010(7)
C1_4 C 0.8424(5) 0.0298(12) 0.2420(13)
C2_4 C 0.7894(6) 0.0629(17) 0.1882(19)
H4_4 H 0.7512 0.0517 0.2220
C3_4 C 0.7920(6) 0.1132(15) 0.0836(16)
C4_4 C 0.8497(6) 0.1302(12) 0.0418(13)
C5_4 C 0.9011(5) 0.0952(9) 0.1020(11)
H6_4 H 0.9401 0.1073 0.0717
C6_4 C 0.7376(7) 0.1439(19) 0.0097(16)
C7_4 C 0.6889(8) 0.178(2) 0.063(2)
H8_4 H 0.6832 0.1652 0.1389
H9_4 H 0.5639 0.4625 0.0081
C9_4 C 0.6164(6) 0.3376(16) 0.0351(12)
H10_4 H 0.6274 0.3582 0.1072
loop_
_geom_bond_atom_site_label_1
_geom_bond_atom_site_label_2
_geom_bond_site_symmetry_1
_geom_bond_site_symmetry_2
Zn1 O3 1_555 1_555
O1 H1 1_555 1_555
O2 C34 1_555 1_555
O3 C34 1_555 1_555
O4 H2 1_555 1_555
O5 C35 1_555 1_555
O6 C35 1_555 1_555
N1 Zn1 1_555 1_555
N2 C8 1_555 1_555
C1 N1 1_555 1_555
H3 C1 1_555 1_555
C2 C1 1_555 1_555
H4 C2 1_555 1_555
C3 C2 1_555 1_555
C4 C3 1_555 1_555
H5 C4 1_555 1_555
C5 N1 1_555 1_555
H6 C5 1_555 1_555
C6 C3 1_555 1_555
H7 C6 1_555 1_555
C7 C6 1_555 1_555
H8 C7 1_555 1_555
C8 H9 1_555 1_555
C9 C8 1_555 1_555
H10 C9 1_555 1_555
C10 C7 1_555 1_555
C11 C10 1_555 1_555
H11 C11 1_555 1_555
C12 N2 1_555 1_555
H12 C12 1_555 1_555
C13 O1 1_555 1_555
C14 C13 1_555 1_555
C15 C14 1_555 1_555
H13 C15 1_555 1_555
C16 C15 1_555 1_555
C17 C16 1_555 1_555
C18 C13 1_555 1_555
C19 C17 1_555 1_555
H14 C19 1_555 1_555
C20 C19 1_555 1_555
H15 C20 1_555 1_555
C21 C20 1_555 1_555
H16 C21 1_555 1_555
C22 C16 1_555 1_555
H17 C22 1_555 1_555
C23 C18 1_555 1_555
H18 C23 1_555 1_555
H19 C23 1_555 1_555
C24 O4 1_555 1_555
C25 C23 1_555 1_555
C26 C25 1_555 1_555
C27 C26 1_555 1_555
C28 C27 1_555 1_555
H20 C28 1_555 1_555
C29 C24 1_555 1_555
C30 C26 1_555 1_555
H21 C30 1_555 1_555
C31 C30 1_555 1_555
H22 C31 1_555 1_555
C32 C31 1_555 1_555
H23 C32 1_555 1_555
C33 C27 1_555 1_555
H24 C33 1_555 1_555
C34 C14 1_555 1_555
C35 C29 1_555 1_555
Zn3 N2 1_555 1_555
O7 Zn1 1_555 1_555
O8 Zn1 1_555 1_555
N3 Zn1 1_555 1_555
C4 C5 1_555 1_555
C9 C10 1_555 1_555
C11 C12 1_555 1_555
C17 C18 1_555 1_555
C21 C22 1_555 1_555
C24 C25 1_555 1_555
C28 C29 1_555 1_555
C32 C33 1_555 1_555
O7 C35_2 1_555 1_555
O8 C35_2 1_555 1_555
C17_2 C16_2 1_555 1_555
C19_2 C17_2 1_555 1_555
H14_2 C19_2 1_555 1_555
C20_2 C19_2 1_555 1_555
H15_2 C20_2 1_555 1_555
C21_2 C20_2 1_555 1_555
H16_2 C21_2 1_555 1_555
C22_2 C16_2 1_555 1_555
H17_2 C22_2 1_555 1_555
C26_2 C25_2 1_555 1_555
C27_2 C26_2 1_555 1_555
C28_2 C27_2 1_555 1_555
H20_2 C28_2 1_555 1_555
C29_2 C24_2 1_555 1_555
C30_2 C26_2 1_555 1_555
C35_2 C29_2 1_555 1_555
C21_2 C22_2 1_555 1_555
C24_2 C25_2 1_555 1_555
C28_2 C29_2 1_555 1_555
N3 C8_2 1_555 1_555
C11_2 C10_2 1_555 1_555
H11_2 C11_2 1_555 1_555
C12_2 N3 1_555 1_555
H12_2 C12_2 1_555 1_555
C11_2 C12_2 1_555 1_555
O5_2 C35_3 1_555 1_555
O6_2 C35_3 1_555 1_555
N2_2 C8_3 1_555 1_555
C11_3 C10_3 1_555 1_555
H11_3 C11_3 1_555 1_555
C12_3 N2_2 1_555 1_555
H12_3 C12_3 1_555 1_555
C17_3 C16_3 1_555 1_555
C19_3 C17_3 1_555 1_555
H14_3 C19_3 1_555 1_555
C20_3 C19_3 1_555 1_555
H15_3 C20_3 1_555 1_555
C21_3 C20_3 1_555 1_555
H16_3 C21_3 1_555 1_555
C22_3 C16_3 1_555 1_555
H17_3 C22_3 1_555 1_555
C26_3 C25_3 1_555 1_555
C27_3 C26_3 1_555 1_555
C28_3 C27_3 1_555 1_555
H20_3 C28_3 1_555 1_555
C29_3 C24_3 1_555 1_555
C30_3 C26_3 1_555 1_555
C31_2 C30_3 1_555 1_555
H22_2 C31_2 1_555 1_555
C32_2 C31_2 1_555 1_555
H23_2 C32_2 1_555 1_555
C33_2 C27_3 1_555 1_555
H24_2 C33_2 1_555 1_555
C35_3 C29_3 1_555 1_555
Zn2 N2_2 1_555 1_555
C11_3 C12_3 1_555 1_555
C21_3 C22_3 1_555 1_555
C24_3 C25_3 1_555 1_555
C28_3 C29_3 1_555 1_555
C32_2 C33_2 1_555 1_555
H22_3 C31_3 1_555 1_555
C32_3 C31_3 1_555 1_555
H23_3 C32_3 1_555 1_555
H24_3 C33_3 1_555 1_555
C32_3 C33_3 1_555 1_555
Zn1_2 O3_2 1_555 1_555
O1_2 H1_2 1_555 1_555
O2_2 C34_2 1_555 1_555
O3_2 C34_2 1_555 1_555
N1_2 Zn1_2 1_555 1_555
C1_2 N1_2 1_555 1_555
H3_4 C1_2 1_555 1_555
C2_2 C1_2 1_555 1_555
H4_2 C2_2 1_555 1_555
C3_2 C2_2 1_555 1_555
C4_2 C3_2 1_555 1_555
C5_2 N1_2 1_555 1_555
H6_2 C5_2 1_555 1_555
C6_2 C3_2 1_555 1_555
C7_2 C6_2 1_555 1_555
H8_2 C7_2 1_555 1_555
H10_2 C9_2 1_555 1_555
C13_2 O1_2 1_555 1_555
C14_2 C13_2 1_555 1_555
C15_2 C14_2 1_555 1_555
H13_2 C15_2 1_555 1_555
C18_2 C13_2 1_555 1_555
C23_2 C18_2 1_555 1_555
H18_2 C23_2 1_555 1_555
H19_2 C23_2 1_555 1_555
C34_2 C14_2 1_555 1_555
O7_2 Zn1_2 1_555 1_555
O8_2 Zn1_2 1_555 1_555
N3_2 Zn1_2 1_555 1_555
C4_2 C5_2 1_555 1_555
N3_2 C8_4 1_555 1_555
C1_3 N1_3 1_555 1_555
C2_3 C1_3 1_555 1_555
H4_3 C2_3 1_555 1_555
C3_3 C2_3 1_555 1_555
C4_3 C3_3 1_555 1_555
H5_4 C4_3 1_555 1_555
C5_3 N1_3 1_555 1_555
H6_3 C5_3 1_555 1_555
C6_3 C3_3 1_555 1_555
H7_4 C6_3 1_555 1_555
C7_3 C6_3 1_555 1_555
H8_3 C7_3 1_555 1_555
C8_4 H9_3 1_555 1_555
C9_3 C8_4 1_555 1_555
H10_3 C9_3 1_555 1_555
C10_4 C7_3 1_555 1_555
C11_4 C10_4 1_555 1_555
H11_4 C11_4 1_555 1_555
C12_4 N3_2 1_555 1_555
H12_4 C12_4 1_555 1_555
C4_3 C5_3 1_555 1_555
C9_3 C10_4 1_555 1_555
C11_4 C12_4 1_555 1_555
O1_3 H1_3 1_555 1_555
O2_3 C34_3 1_555 1_555
O3_3 C34_3 1_555 1_555
O4_3 H2_4 1_555 1_555
O7_2 C35_4 1_555 1_555
O8_2 C35_4 1_555 1_555
C13_3 O1_3 1_555 1_555
C14_3 C13_3 1_555 1_555
C15_3 C14_3 1_555 1_555
H13_3 C15_3 1_555 1_555
C16_4 C15_3 1_555 1_555
C17_4 C16_4 1_555 1_555
C18_3 C13_3 1_555 1_555
C19_4 C17_4 1_555 1_555
H14_4 C19_4 1_555 1_555
C20_4 C19_4 1_555 1_555
H15_4 C20_4 1_555 1_555
C21_4 C20_4 1_555 1_555
H16_4 C21_4 1_555 1_555
C22_4 C16_4 1_555 1_555
H17_4 C22_4 1_555 1_555
C23_3 C18_3 1_555 1_555
H18_3 C23_3 1_555 1_555
H19_3 C23_3 1_555 1_555
C24_4 O4_3 1_555 1_555
C25_4 C23_3 1_555 1_555
C26_4 C25_4 1_555 1_555
C27_4 C26_4 1_555 1_555
C28_4 C27_4 1_555 1_555
H20_4 C28_4 1_555 1_555
C29_4 C24_4 1_555 1_555
C30_4 C26_4 1_555 1_555
H21_3 C30_4 1_555 1_555
C34_3 C14_3 1_555 1_555
C35_4 C29_4 1_555 1_555
C17_4 C18_3 1_555 1_555
C21_4 C22_4 1_555 1_555
C24_4 C25_4 1_555 1_555
C28_4 C29_4 1_555 1_555
H22_4 C31_4 1_555 1_555
C32_4 C31_4 1_555 1_555
H23_4 C32_4 1_555 1_555
H24_4 C33_4 1_555 1_555
C32_4 C33_4 1_555 1_555
O1_4 H1_4 1_555 1_555
O2_4 C34_4 1_555 1_555
O3_4 C34_4 1_555 1_555
C13_4 O1_4 1_555 1_555
C14_4 C13_4 1_555 1_555
C15_4 C14_4 1_555 1_555
H13_4 C15_4 1_555 1_555
C18_4 C13_4 1_555 1_555
C23_4 C18_4 1_555 1_555
H18_4 C23_4 1_555 1_555
H19_4 C23_4 1_555 1_555
C34_4 C14_4 1_555 1_555
C1_4 N1_4 1_555 1_555
C2_4 C1_4 1_555 1_555
H4_4 C2_4 1_555 1_555
C3_4 C2_4 1_555 1_555
C4_4 C3_4 1_555 1_555
C5_4 N1_4 1_555 1_555
H6_4 C5_4 1_555 1_555
C6_4 C3_4 1_555 1_555
C7_4 C6_4 1_555 1_555
H8_4 C7_4 1_555 1_555
H10_4 C9_4 1_555 1_555
C4_4 C5_4 1_555 1_555

#END
