
###############################################################################
#
# This file contains modified crystal structure data generated from the
# MOF subset of the Cambridge Structural Database (CSD) v543 
# hosted by the Cambridge Crystallographic Data Centre (CCDC).
#
# This work is licensed under the Creative Commons
# Attribution-NonCommercial-ShareAlike 4.0 International License.
# To view a copy of this license, visit
# http://creativecommons.org/licenses/by-nc-sa/4.0/
# or send a letter to
# Creative Commons, PO Box 1866, Mountain View, CA 94042, USA.
#
# CIF created using the CSD Python API on 29 September 2022
# The structure has been converted into the P1 space group
# The structure has a 3D framework
# The original CSD entry FELZAA is in the monoclinic crystal system
# The framework has been calculated to contain at least 10.0% void space
# The void calculation uses a probe of radius 1.32A, grid spacing 0.4
#
###############################################################################

data_FELZAA
_chemical_formula_moiety         '(C118 H128 N16 O32 Zn6)n'
_symmetry_cell_setting           triclinic
_symmetry_space_group_name_H-M   'P 1'
_symmetry_Int_Tables_number      1
_space_group_name_Hall           'P 1'
loop_
_symmetry_equiv_pos_site_id
_symmetry_equiv_pos_as_xyz
1 x,y,z
_cell_length_a                   11.9374(6)
_cell_length_b                   17.3458(8)
_cell_length_c                   16.6274(8)
_cell_angle_alpha                90
_cell_angle_beta                 96.8620(10)
_cell_angle_gamma                90
_cell_volume                     3418.27
loop_
_atom_site_label
_atom_site_type_symbol
_atom_site_fract_x
_atom_site_fract_y
_atom_site_fract_z
H7 H 0.1998 0.0036 0.2072
H8 H 0.3213 0.0130 0.3351
H15 H 0.6255 0.0434 0.3351
N5 N 0.7503(2) 0.10935(15) 0.79738(15)
N6 N 0.6385(3) 0.10135(16) 0.68347(16)
C30 C 0.6785(3) 0.14835(17) 0.74469(18)
C31 C 0.7564(3) 0.0360(2) 0.7680(2)
C32 C 0.6892(4) 0.0304(2) 0.6978(2)
C33 C 0.6455(3) 0.22980(19) 0.7506(2)
H35 H 0.7067 0.2583 0.7792
H36 H 0.6278 0.2508 0.6972
H37 H 0.5805 0.2334 0.7793
C34 C 0.5533(4) 0.1233(2) 0.6159(2)
H38 H 0.4844 0.1383 0.6373
H39 H 0.5803 0.1675 0.5882
C35 C 0.5276(3) 0.0583(2) 0.5558(2)
C36 C 0.4431(3) 0.0049(2) 0.5694(2)
C37 C 0.3839(5) 0.0080(3) 0.6454(3)
H40 H 0.3113 0.0318 0.6329
H42 H 0.4285 0.0376 0.6862
C38 C 0.5858(3) 0.0536(2) 0.4880(2)
C39 C 0.6820(5) 0.1073(3) 0.4767(3)
H43 H 0.7073 0.1322 0.5272
H44 H 0.7431 0.0784 0.4589
H45 H 0.6569 0.1456 0.4368
O16 O 0.0557(2) 0.06320(14) 0.09176(16)
H60 H 0.088(3) 0.0252(17) 0.071(2)
H61 H 0.095(4) 0.099(2) 0.077(3)
Zn6 Zn 0.83367(3) 0.145888(17) 0.902973(18)
O11 O 0.1241(2) 0.03789(13) 0.84745(13)
O12 O 0.2306(2) 0.09651(16) 0.94647(14)
O13 O 0.1911(3) 0.39525(17) 0.6426(2)
O14 O 0.3642(2) 0.35072(13) 0.64766(15)
C50 C 0.0013(3) 0.21672(17) 0.83423(18)
C51 C 0.1142(2) 0.21903(16) 0.80334(16)
C52 C 0.1376(3) 0.27880(17) 0.75215(18)
H62 H 0.0839 0.3171 0.7393
C53 C 0.2390(3) 0.28259(17) 0.72000(18)
C54 C 0.3185(3) 0.22525(19) 0.7393(2)
H63 H 0.3869 0.2271 0.7179
C55 C 0.2970(3) 0.16536(19) 0.7901(2)
H64 H 0.3509 0.1272 0.8027
C56 C 0.1952(2) 0.16193(16) 0.82235(17)
C57 C 0.1807(3) 0.09390(18) 0.87762(18)
C58 C 0.2646(3) 0.34809(19) 0.6659(2)
Zn7 Zn 0.38840(3) 0.445303(18) 0.588957(19)
Zn1 Zn 0.16633(3) 0.854112(17) 0.097027(18)
O1 O 0.0774(2) 0.74335(17) 0.19897(18)
O2 O 0.00869(17) 0.82821(13) 0.10657(13)
O7 O 0.16491(17) 0.94575(10) 0.02698(12)
H1 H 0.2322(18) 0.959(2) 0.030(2)
N1 N 0.2497(2) 0.89065(15) 0.20262(15)
N2 N 0.3615(3) 0.89865(16) 0.31653(16)
N3 N 0.2454(2) 0.76831(13) 0.04692(14)
N4 N 0.3789(2) 0.69279(15) 0.01362(18)
C10 C 0.3215(3) 0.85165(17) 0.25531(18)
C11 C 0.2436(3) 0.9640(2) 0.2320(2)
C12 C 0.3108(4) 0.9696(2) 0.3022(2)
C13 C 0.3545(3) 0.77020(19) 0.2494(2)
H9 H 0.2933 0.7417 0.2208
H10 H 0.3722 0.7492 0.3028
H11 H 0.4195 0.7666 0.2207
C14 C 0.4467(4) 0.8767(2) 0.3841(2)
H12 H 0.5156 0.8617 0.3627
H13 H 0.4197 0.8325 0.4118
C15 C 0.4724(3) 0.9417(2) 0.4442(2)
C16 C 0.5569(3) 0.9951(2) 0.4306(2)
C17 C 0.6161(5) 0.9920(3) 0.3546(3)
H14 H 0.6887 0.9682 0.3671
H16 H 0.5715 0.9624 0.3138
C18 C 0.4142(3) 0.9464(2) 0.5120(2)
C19 C 0.3180(5) 0.8927(3) 0.5233(3)
H17 H 0.2927 0.8678 0.4728
H18 H 0.2569 0.9216 0.5411
H19 H 0.3431 0.8544 0.5632
C20 C 0.2004(3) 0.69598(19) 0.0318(2)
H20 H 0.1260 0.6822 0.0358
C21 C 0.2799(3) 0.6488(2) 0.0105(3)
C22 C 0.3527(2) 0.76448(16) 0.03454(17)
C23 C 0.4341(3) 0.8286(2) 0.0423(3)
H22 H 0.4006 0.8726 0.0652
H24 H 0.5005 0.8134 0.0771
C24 C 0.4931(3) 0.6665(2) 0.0000(3)
H25 H 0.5482 0.6865 0.0425
C26 C 0.5114(3) 0.5405(2) 0.0736(2)
C27 C 0.5210(5) 0.5849(3) 0.1527(3)
H27 H 0.4697 0.5636 0.1870
H28 H 0.5027 0.6381 0.1418
H29 H 0.5968 0.5811 0.1792
H33 H 0.8002 0.9964 0.7928
H34 H 0.6787 0.9870 0.6649
H41 H 0.3745 0.9566 0.6649
H47 H 0.7285 0.4030 0.0035
H49 H 0.5457 0.1583 0.0102
C44 C 0.5069(3) 0.3335(2) 0.0000(3)
H52 H 0.4885 0.3139 0.0514
C45 C 0.5021(3) 0.4204(2) 0.0002(2)
C48 C 0.5147(3) 0.4601(2) 0.0738(2)
C49 C 0.5319(6) 0.4158(4) 0.1531(3)
H56 H 0.4612 0.4116 0.1750
H57 H 0.5600 0.3652 0.1436
H58 H 0.5852 0.4427 0.1909
Zn2 Zn 0.11160(3) 0.945303(18) 0.911043(19)
H21 H 0.2715 0.5970 0.9965
H23 H 0.4543 0.8417 0.9898
C24_2 C 0.4931(3) 0.6665(2) 1.0000(3)
H26 H 0.5115 0.6861 0.9486
C25 C 0.4979(3) 0.5796(2) 0.9998(2)
C28 C 0.4853(3) 0.5399(2) 0.9262(2)
C29 C 0.4681(6) 0.5842(4) 0.8469(3)
H30 H 0.5388 0.5884 0.8250
H31 H 0.4400 0.6348 0.8564
H32 H 0.4148 0.5573 0.8091
N7 N 0.7546(2) 0.23169(13) 0.95308(14)
N8 N 0.6211(2) 0.30721(15) 0.98638(18)
C40 C 0.7996(3) 0.30402(19) 0.9682(2)
H46 H 0.8740 0.3178 0.9642
C41 C 0.7201(3) 0.3512(2) 0.9895(3)
C42 C 0.6473(2) 0.23552(16) 0.96546(17)
C43 C 0.5659(3) 0.1714(2) 0.9577(3)
H48 H 0.5994 0.1274 0.9348
H50 H 0.4995 0.1866 0.9229
C44_2 C 0.5069(3) 0.3335(2) 1.0000(3)
H51 H 0.4518 0.3135 0.9575
C46 C 0.4886(3) 0.4595(2) 0.9264(2)
C47 C 0.4790(5) 0.4151(3) 0.8473(3)
H53 H 0.5303 0.4364 0.8130
H54 H 0.4973 0.3619 0.8582
H55 H 0.4032 0.4189 0.8208
O18 O 0.1358(2) 0.85072(13) 0.85234(15)
Zn4 Zn 0.88840(3) 0.054697(18) 0.088957(19)
O17 O 0.8642(2) 0.14928(13) 0.14766(15)
O9 O 0.9226(2) 0.25665(17) 0.80103(18)
O10 O 0.99131(17) 0.17179(13) 0.89343(13)
O15 O 0.83509(17) 0.05425(10) 0.97302(12)
H59 H 0.7678(18) 0.041(2) 0.970(2)
O3 O 0.8759(2) 0.96211(13) 0.15255(13)
O4 O 0.7694(2) 0.90349(16) 0.05353(14)
O5 O 0.8089(3) 0.60475(17) 0.3574(2)
O6 O 0.6358(2) 0.64928(13) 0.35234(15)
C1 C 0.9987(3) 0.78328(17) 0.16577(18)
C2 C 0.8858(2) 0.78097(16) 0.19666(16)
C3 C 0.8624(3) 0.72120(17) 0.24785(18)
H4 H 0.9161 0.6829 0.2607
C4 C 0.7610(3) 0.71741(17) 0.28000(18)
C5 C 0.6815(3) 0.77475(19) 0.2607(2)
H5 H 0.6131 0.7729 0.2821
C6 C 0.7030(3) 0.83464(19) 0.2099(2)
H6 H 0.6491 0.8728 0.1973
C7 C 0.8048(2) 0.83807(16) 0.17765(17)
C8 C 0.8193(3) 0.90610(18) 0.12238(18)
C9 C 0.7354(3) 0.65191(19) 0.3341(2)
Zn8 Zn 0.61160(3) 0.554697(18) 0.411043(19)
O8 O 0.9443(2) 0.93680(14) 0.90824(16)
H2 H 0.912(3) 0.9748(17) 0.929(2)
H3 H 0.905(4) 0.901(2) 0.923(3)
Zn1_2 Zn 0.33367(3) 0.354112(17) 0.402973(18)
O1_2 O 0.4226(2) 0.24335(17) 0.30103(18)
O2_2 O 0.49131(17) 0.32821(13) 0.39343(13)
O3_2 O 0.6241(2) 0.46211(13) 0.34745(13)
O4_2 O 0.7306(2) 0.40349(16) 0.44647(14)
O5_2 O 0.6911(3) 0.10475(17) 0.1426(2)
O7_2 O 0.33509(17) 0.44575(10) 0.47302(12)
H1_2 H 0.2678(18) 0.459(2) 0.470(2)
O8_2 O 0.5557(2) 0.43680(14) 0.59176(16)
H2_2 H 0.588(3) 0.4748(17) 0.571(2)
H3_2 H 0.595(4) 0.401(2) 0.577(3)
N1_2 N 0.2503(2) 0.39065(15) 0.29738(15)
N2_2 N 0.1385(3) 0.39865(16) 0.18347(16)
N3_2 N 0.2546(2) 0.26831(13) 0.45308(14)
N4_2 N 0.1211(2) 0.19279(15) 0.48638(18)
C1_2 C 0.5013(3) 0.28328(17) 0.33423(18)
C2_2 C 0.6142(2) 0.28097(16) 0.30334(16)
C3_2 C 0.6376(3) 0.22120(17) 0.25215(18)
H4_2 H 0.5839 0.1829 0.2393
C4_2 C 0.7390(3) 0.21741(17) 0.22000(18)
C5_2 C 0.8185(3) 0.27475(19) 0.2393(2)
H5_2 H 0.8869 0.2729 0.2179
C6_2 C 0.7970(3) 0.33464(19) 0.2901(2)
H6_2 H 0.8509 0.3728 0.3027
C7_2 C 0.6952(2) 0.33807(16) 0.32235(17)
C8_2 C 0.6807(3) 0.40610(18) 0.37762(18)
C9_2 C 0.7646(3) 0.15191(19) 0.1659(2)
C10_2 C 0.1785(3) 0.35165(17) 0.24469(18)
C11_2 C 0.2564(3) 0.4640(2) 0.2680(2)
H7_2 H 0.3002 0.5036 0.2928
C12_2 C 0.1892(4) 0.4696(2) 0.1978(2)
H8_2 H 0.1787 0.5130 0.1649
C13_2 C 0.1455(3) 0.27020(19) 0.2506(2)
H9_2 H 0.2067 0.2417 0.2792
H10_2 H 0.1278 0.2492 0.1972
H11_2 H 0.0805 0.2666 0.2793
C14_2 C 0.0533(4) 0.3767(2) 0.1159(2)
H13_2 H 0.0803 0.3325 0.0882
C15_2 C 0.0276(3) 0.4417(2) 0.0558(2)
H17_2 H 0.2073 0.3678 0.0272
C20_2 C 0.2996(3) 0.19598(19) 0.4682(2)
H20_2 H 0.3740 0.1822 0.4642
C21_2 C 0.2201(3) 0.1488(2) 0.4895(3)
H21_2 H 0.2285 0.0970 0.5035
C22_2 C 0.1473(2) 0.26448(16) 0.46546(17)
C23_2 C 0.0659(3) 0.3286(2) 0.4577(3)
H22_2 H 0.0994 0.3726 0.4348
H23_2 H 0.0457 0.3417 0.5102
C24_3 C 0.0069(3) 0.1665(2) 0.5000(3)
C25_2 C 0.0021(3) 0.0796(2) 0.5002(2)
H27_2 H 0.0303 0.0636 0.3130
C28_2 C 0.0147(3) 0.0399(2) 0.5738(2)
C29_2 C 0.0319(6) 0.0842(4) 0.6531(3)
H31_2 H 0.0600 0.1348 0.6436
H32_2 H 0.0852 0.0573 0.6909
Zn3 Zn 0.66633(3) 0.645888(17) 0.597027(18)
O9_2 O 0.5774(2) 0.75665(17) 0.69897(18)
O10_2 O 0.50869(17) 0.67179(13) 0.60657(13)
O11_2 O 0.3759(2) 0.53789(13) 0.65255(13)
O12_2 O 0.2694(2) 0.59651(16) 0.55353(14)
O13_2 O 0.3089(3) 0.89525(17) 0.8574(2)
O15_2 O 0.66491(17) 0.55425(10) 0.52698(12)
H59_2 H 0.7322(18) 0.541(2) 0.530(2)
O16_2 O 0.4443(2) 0.56320(14) 0.40824(16)
H60_2 H 0.412(3) 0.5252(17) 0.429(2)
H61_2 H 0.405(4) 0.599(2) 0.423(3)
C50_2 C 0.4987(3) 0.71672(17) 0.66577(18)
C51_2 C 0.3858(2) 0.71903(16) 0.69666(16)
C52_2 C 0.3624(3) 0.77880(17) 0.74785(18)
H62_2 H 0.4161 0.8171 0.7607
C53_2 C 0.2610(3) 0.78259(17) 0.78000(18)
C54_2 C 0.1815(3) 0.72525(19) 0.7607(2)
H63_2 H 0.1131 0.7271 0.7821
C55_2 C 0.2030(3) 0.66536(19) 0.7099(2)
H64_2 H 0.1491 0.6272 0.6973
C56_2 C 0.3048(2) 0.66193(16) 0.67765(17)
C57_2 C 0.3193(3) 0.59390(18) 0.62238(18)
C58_2 C 0.2354(3) 0.84809(19) 0.8341(2)
N9 N 0.7497(2) 0.60935(15) 0.70262(15)
N10 N 0.7454(2) 0.73169(13) 0.54692(14)
N6_2 N 0.8615(3) 0.60135(16) 0.81653(16)
C30_2 C 0.8215(3) 0.64835(17) 0.75531(18)
C31_2 C 0.7436(3) 0.5360(2) 0.7320(2)
H33_2 H 0.6998 0.4964 0.7072
C32_2 C 0.8108(4) 0.5304(2) 0.8022(2)
H34_2 H 0.8213 0.4870 0.8351
C33_2 C 0.8545(3) 0.72980(19) 0.7494(2)
H35_2 H 0.7933 0.7583 0.7208
H36_2 H 0.8722 0.7508 0.8028
H37_2 H 0.9195 0.7334 0.7207
C34_2 C 0.9467(4) 0.6233(2) 0.8841(2)
H39_2 H 0.9197 0.6675 0.9118
C35_2 C 0.9724(3) 0.5583(2) 0.9442(2)
H43_2 H 0.7927 0.6322 0.9728
N8_2 N 0.8789(2) 0.80721(15) 0.51362(18)
C40_2 C 0.7004(3) 0.80402(19) 0.5318(2)
H46_2 H 0.6260 0.8178 0.5358
C41_2 C 0.7799(3) 0.8512(2) 0.5105(3)
H47_2 H 0.7715 0.9030 0.4965
C42_2 C 0.8527(2) 0.73552(16) 0.53454(17)
C43_2 C 0.9341(3) 0.6714(2) 0.5423(3)
H48_2 H 0.9006 0.6274 0.5652
H49_2 H 0.9543 0.6583 0.4898
C44_3 C 0.9931(3) 0.8335(2) 0.5000(3)
C45_2 C 0.9979(3) 0.9204(2) 0.4998(2)
H53_2 H 0.9697 0.9364 0.6870
C48_2 C 0.9853(3) 0.9601(2) 0.4262(2)
C49_2 C 0.9681(6) 0.9158(4) 0.3469(3)
H57_2 H 0.9400 0.8652 0.3564
H58_2 H 0.9148 0.9427 0.3091
C18_2 C 0.0858(3) 0.4464(2) 0.9880(2)
C19_2 C 0.1820(5) 0.3927(3) 0.9767(3)
H18_2 H 0.2431 0.4216 0.9589
H19_2 H 0.1569 0.3544 0.9368
H38_2 H 0.0156 0.6383 0.8627
C36_2 C 0.0569(3) 0.5049(2) 0.9306(2)
C37_2 C 0.1161(5) 0.5080(3) 0.8546(3)
H40_2 H 0.1887 0.5318 0.8671
H41_2 H 0.1255 0.4566 0.8351
H42_2 H 0.0715 0.5376 0.8138
H50_2 H 0.0005 0.6866 0.5771
H51_2 H 0.0482 0.8135 0.5425
H52_2 H 0.0115 0.8139 0.4486
C46_2 C 0.0114(3) 0.9595(2) 0.5736(2)
C47_2 C 0.0210(5) 0.9151(3) 0.6527(3)
H54_2 H 0.0027 0.8619 0.6418
H55_2 H 0.0968 0.9189 0.6792
H56_2 H 0.0388 0.9116 0.3250
H12_2 H 0.9844 0.3617 0.1373
C16_2 C 0.9431(3) 0.4951(2) 0.0694(2)
C17_2 C 0.8839(5) 0.4920(3) 0.1454(3)
H14_2 H 0.8113 0.4682 0.1329
H15_2 H 0.8745 0.5434 0.1649
H16_2 H 0.9285 0.4624 0.1862
H24_2 H 0.9995 0.3134 0.4229
H25_2 H 0.9518 0.1865 0.4575
H26_2 H 0.9885 0.1861 0.5514
C26_2 C 0.9886(3) 0.0405(2) 0.4264(2)
C27_2 C 0.9790(5) 0.0849(3) 0.3473(3)
H28_2 H 0.9973 0.1381 0.3582
H29_2 H 0.9032 0.0811 0.3208
H30_2 H 0.9612 0.0884 0.6750
C38_2 C 0.9142(3) 0.5536(2) 0.0120(2)
C39_2 C 0.8180(5) 0.6073(3) 0.0233(3)
H44_2 H 0.7569 0.5784 0.0411
H45_2 H 0.8431 0.6456 0.0632
loop_
_geom_bond_atom_site_label_1
_geom_bond_atom_site_label_2
_geom_bond_site_symmetry_1
_geom_bond_site_symmetry_2
N5 C30 1_555 1_555
N6 C30 1_555 1_555
C30 C33 1_555 1_555
C31 N5 1_555 1_555
C32 N6 1_555 1_555
C33 H35 1_555 1_555
H36 C33 1_555 1_555
H37 C33 1_555 1_555
C34 N6 1_555 1_555
H38 C34 1_555 1_555
H39 C34 1_555 1_555
C35 C34 1_555 1_555
C37 C36 1_555 1_555
H40 C37 1_555 1_555
H42 C37 1_555 1_555
C39 C38 1_555 1_555
H43 C39 1_555 1_555
H44 C39 1_555 1_555
H45 C39 1_555 1_555
H60 O16 1_555 1_555
H61 O16 1_555 1_555
Zn6 N5 1_555 1_555
C31 C32 1_555 1_555
C35 C36 1_555 1_555
C35 C38 1_555 1_555
O12 C57 1_555 1_555
O13 C58 1_555 1_555
O14 C58 1_555 1_555
C50 C51 1_555 1_555
C51 C52 1_555 1_555
C52 H62 1_555 1_555
C53 C52 1_555 1_555
C54 C53 1_555 1_555
H63 C54 1_555 1_555
C55 C54 1_555 1_555
H64 C55 1_555 1_555
C56 C51 1_555 1_555
C57 O11 1_555 1_555
C58 C53 1_555 1_555
Zn7 O14 1_555 1_555
C55 C56 1_555 1_555
C56 C57 1_555 1_555
Zn1 O2 1_555 1_555
O7 Zn1 1_555 1_555
H1 O7 1_555 1_555
N1 Zn1 1_555 1_555
N2 C10 1_555 1_555
N3 Zn1 1_555 1_555
N4 C21 1_555 1_555
C10 N1 1_555 1_555
C11 N1 1_555 1_555
C12 N2 1_555 1_555
C13 C10 1_555 1_555
H9 C13 1_555 1_555
H10 C13 1_555 1_555
H11 C13 1_555 1_555
C14 N2 1_555 1_555
H12 C14 1_555 1_555
H13 C14 1_555 1_555
C15 C14 1_555 1_555
C16 C15 1_555 1_555
C17 C16 1_555 1_555
H14 C17 1_555 1_555
H16 C17 1_555 1_555
C18 C15 1_555 1_555
C19 C18 1_555 1_555
H17 C19 1_555 1_555
H18 C19 1_555 1_555
H19 C19 1_555 1_555
C20 N3 1_555 1_555
H20 C20 1_555 1_555
C21 C20 1_555 1_555
C22 N3 1_555 1_555
C23 C22 1_555 1_555
H22 C23 1_555 1_555
H24 C23 1_555 1_555
C24 N4 1_555 1_555
H25 C24 1_555 1_555
C27 C26 1_555 1_555
H27 C27 1_555 1_555
H28 C27 1_555 1_555
H29 C27 1_555 1_555
H52 C44 1_555 1_555
C45 C44 1_555 1_555
C48 C26 1_555 1_555
C49 C48 1_555 1_555
H56 C49 1_555 1_555
H57 C49 1_555 1_555
H58 C49 1_555 1_555
N4 C22 1_555 1_555
C11 C12 1_555 1_555
C45 C48 1_555 1_555
H26 C24_2 1_555 1_555
C25 C24_2 1_555 1_555
C28 C25 1_555 1_555
C29 C28 1_555 1_555
H30 C29 1_555 1_555
H31 C29 1_555 1_555
H32 C29 1_555 1_555
N7 C40 1_555 1_555
N8 C41 1_555 1_555
C40 H46 1_555 1_555
C41 C40 1_555 1_555
C42 N7 1_555 1_555
C43 C42 1_555 1_555
H48 C43 1_555 1_555
H50 C43 1_555 1_555
C44_2 N8 1_555 1_555
H51 C44_2 1_555 1_555
C46 C28 1_555 1_555
C47 C46 1_555 1_555
H53 C47 1_555 1_555
H54 C47 1_555 1_555
H55 C47 1_555 1_555
Zn6 N7 1_555 1_555
O18 Zn2 1_555 1_555
N8 C42 1_555 1_555
O17 Zn4 1_555 1_555
Zn6 O10 1_555 1_555
O15 Zn6 1_555 1_555
H59 O15 1_555 1_555
O3 C8 1_555 1_555
O4 C8 1_555 1_555
O5 C9 1_555 1_555
O6 C9 1_555 1_555
C1 C2 1_555 1_555
C2 C3 1_555 1_555
C3 H4 1_555 1_555
C4 C3 1_555 1_555
C5 C4 1_555 1_555
H5 C5 1_555 1_555
C6 C5 1_555 1_555
H6 C6 1_555 1_555
C7 C2 1_555 1_555
C8 C7 1_555 1_555
C9 C4 1_555 1_555
Zn8 O6 1_555 1_555
C6 C7 1_555 1_555
H2 O8 1_555 1_555
H3 O8 1_555 1_555
Zn1_2 O2_2 1_555 1_555
Zn7 O7_2 1_555 1_555
O1_2 C1_2 1_555 1_555
O2_2 C1_2 1_555 1_555
O3_2 C8_2 1_555 1_555
O4_2 C8_2 1_555 1_555
O5_2 C9_2 1_555 1_555
O17 C9_2 1_555 1_555
O7_2 Zn1_2 1_555 1_555
H1_2 O7_2 1_555 1_555
O8_2 Zn7 1_555 1_555
H2_2 O8_2 1_555 1_555
H3_2 O8_2 1_555 1_555
N1_2 Zn1_2 1_555 1_555
N2_2 C10_2 1_555 1_555
N3_2 Zn1_2 1_555 1_555
N4_2 C21_2 1_555 1_555
C1_2 C2_2 1_555 1_555
C2_2 C3_2 1_555 1_555
C3_2 H4_2 1_555 1_555
C4_2 C3_2 1_555 1_555
C5_2 C4_2 1_555 1_555
H5_2 C5_2 1_555 1_555
C6_2 C5_2 1_555 1_555
H6_2 C6_2 1_555 1_555
C7_2 C2_2 1_555 1_555
C8_2 C7_2 1_555 1_555
C9_2 C4_2 1_555 1_555
C10_2 N1_2 1_555 1_555
C11_2 N1_2 1_555 1_555
H7_2 C11_2 1_555 1_555
C12_2 N2_2 1_555 1_555
H8_2 C12_2 1_555 1_555
C13_2 C10_2 1_555 1_555
H9_2 C13_2 1_555 1_555
H10_2 C13_2 1_555 1_555
H11_2 C13_2 1_555 1_555
C14_2 N2_2 1_555 1_555
H13_2 C14_2 1_555 1_555
C15_2 C14_2 1_555 1_555
C20_2 N3_2 1_555 1_555
H20_2 C20_2 1_555 1_555
C21_2 C20_2 1_555 1_555
H21_2 C21_2 1_555 1_555
C22_2 N3_2 1_555 1_555
C23_2 C22_2 1_555 1_555
H22_2 C23_2 1_555 1_555
H23_2 C23_2 1_555 1_555
C24_3 N4_2 1_555 1_555
C25_2 C24_3 1_555 1_555
C28_2 C25_2 1_555 1_555
C29_2 C28_2 1_555 1_555
H31_2 C29_2 1_555 1_555
H32_2 C29_2 1_555 1_555
Zn3 O10_2 1_555 1_555
Zn8 O3_2 1_555 1_555
O9_2 C50_2 1_555 1_555
O10_2 C50_2 1_555 1_555
O11_2 Zn7 1_555 1_555
O12_2 C57_2 1_555 1_555
O13_2 C58_2 1_555 1_555
O18 C58_2 1_555 1_555
O15_2 Zn3 1_555 1_555
H59_2 O15_2 1_555 1_555
O16_2 Zn8 1_555 1_555
H60_2 O16_2 1_555 1_555
H61_2 O16_2 1_555 1_555
C50_2 C51_2 1_555 1_555
C51_2 C52_2 1_555 1_555
C52_2 H62_2 1_555 1_555
C53_2 C52_2 1_555 1_555
C54_2 C53_2 1_555 1_555
H63_2 C54_2 1_555 1_555
C55_2 C54_2 1_555 1_555
H64_2 C55_2 1_555 1_555
C56_2 C51_2 1_555 1_555
C57_2 O11_2 1_555 1_555
C58_2 C53_2 1_555 1_555
N9 Zn3 1_555 1_555
N10 Zn3 1_555 1_555
N4_2 C22_2 1_555 1_555
C6_2 C7_2 1_555 1_555
C11_2 C12_2 1_555 1_555
Zn8 O15_2 1_555 1_555
C55_2 C56_2 1_555 1_555
C56_2 C57_2 1_555 1_555
N9 C30_2 1_555 1_555
N6_2 C30_2 1_555 1_555
C30_2 C33_2 1_555 1_555
C31_2 N9 1_555 1_555
H33_2 C31_2 1_555 1_555
C32_2 N6_2 1_555 1_555
H34_2 C32_2 1_555 1_555
C33_2 H35_2 1_555 1_555
H36_2 C33_2 1_555 1_555
H37_2 C33_2 1_555 1_555
C34_2 N6_2 1_555 1_555
H39_2 C34_2 1_555 1_555
C35_2 C34_2 1_555 1_555
C31_2 C32_2 1_555 1_555
N10 C40_2 1_555 1_555
N8_2 C41_2 1_555 1_555
C40_2 H46_2 1_555 1_555
C41_2 C40_2 1_555 1_555
H47_2 C41_2 1_555 1_555
C42_2 N10 1_555 1_555
C43_2 C42_2 1_555 1_555
H48_2 C43_2 1_555 1_555
H49_2 C43_2 1_555 1_555
C44_3 N8_2 1_555 1_555
C45_2 C44_3 1_555 1_555
C49_2 C48_2 1_555 1_555
H57_2 C49_2 1_555 1_555
H58_2 C49_2 1_555 1_555
N8_2 C42_2 1_555 1_555
C45_2 C48_2 1_555 1_555
C19_2 C18_2 1_555 1_555
H18_2 C19_2 1_555 1_555
H19_2 C19_2 1_555 1_555
C36_2 C18_2 1_555 1_555
C37_2 C36_2 1_555 1_555
H40_2 C37_2 1_555 1_555
H41_2 C37_2 1_555 1_555
H42_2 C37_2 1_555 1_555
C47_2 C46_2 1_555 1_555
H54_2 C47_2 1_555 1_555
H55_2 C47_2 1_555 1_555
C17_2 C16_2 1_555 1_555
H14_2 C17_2 1_555 1_555
H15_2 C17_2 1_555 1_555
H16_2 C17_2 1_555 1_555
C27_2 C26_2 1_555 1_555
H28_2 C27_2 1_555 1_555
H29_2 C27_2 1_555 1_555
C38_2 C16_2 1_555 1_555
C39_2 C38_2 1_555 1_555
H44_2 C39_2 1_555 1_555
H45_2 C39_2 1_555 1_555

#END
