
###############################################################################
#
# This file contains modified crystal structure data generated from the
# MOF subset of the Cambridge Structural Database (CSD) v543 
# hosted by the Cambridge Crystallographic Data Centre (CCDC).
#
# This work is licensed under the Creative Commons
# Attribution-NonCommercial-ShareAlike 4.0 International License.
# To view a copy of this license, visit
# http://creativecommons.org/licenses/by-nc-sa/4.0/
# or send a letter to
# Creative Commons, PO Box 1866, Mountain View, CA 94042, USA.
#
# CIF created using the CSD Python API on 29 September 2022
# The structure has been converted into the P1 space group
# The structure has a 3D framework
# The original CSD entry FENHIS is in the orthorhombic crystal system
# The framework has been calculated to contain at least 10.0% void space
# The void calculation uses a probe of radius 1.32A, grid spacing 0.4
#
###############################################################################

data_FENHIS
_chemical_formula_moiety         '(C136 H72 Cd4 O32)n'
_symmetry_cell_setting           triclinic
_symmetry_space_group_name_H-M   'P 1'
_symmetry_Int_Tables_number      1
_space_group_name_Hall           'P 1'
loop_
_symmetry_equiv_pos_site_id
_symmetry_equiv_pos_as_xyz
1 x,y,z
_cell_length_a                   15.788(3)
_cell_length_b                   28.744(5)
_cell_length_c                   10.8783(17)
_cell_angle_alpha                90
_cell_angle_beta                 90
_cell_angle_gamma                90
_cell_volume                     4936.68
loop_
_atom_site_label
_atom_site_type_symbol
_atom_site_fract_x
_atom_site_fract_y
_atom_site_fract_z
O7 O 0.1682(4) 0.1049(2) 0.3997(7)
O8 O 0.1297(4) 0.0770(2) 0.5688(8)
C28 C 0.1200(5) 0.1040(3) 0.4853(10)
C29 C 0.0461(5) 0.1374(3) 0.4883(8)
C30 C 0.0389(5) 0.1732(3) 0.4049(8)
H16 H 0.0802 0.1772 0.3449
O9 O 0.1682(4) 0.3951(2) 0.6003(7)
O10 O 0.1297(4) 0.4230(2) 0.4312(8)
C36 C 0.1200(5) 0.3960(3) 0.5147(10)
C37 C 0.0461(5) 0.3626(3) 0.5117(8)
C38 C 0.0389(5) 0.3268(3) 0.5951(8)
H20 H 0.0802 0.3228 0.6551
Cd4 Cd 0.2500 0.04006(2) 0.5000
Cd7 Cd 0.2500 0.45994(2) 0.5000
O1 O 0.3318(4) 0.1049(2) 0.6003(7)
O2 O 0.3703(4) 0.0770(2) 0.4312(8)
C1 C 0.3800(5) 0.1040(3) 0.5147(10)
C2 C 0.4539(5) 0.1374(3) 0.5117(8)
C3 C 0.4611(5) 0.1732(3) 0.5951(8)
H1 H 0.4198 0.1772 0.6551
C4 C 0.5307(4) 0.2038(2) 0.5898(7)
H2 H 0.5345 0.2285 0.6447
C5 C 0.5934(4) 0.1970(2) 0.5029(7)
C6 C 0.5852(5) 0.1613(2) 0.4170(8)
H3 H 0.6257 0.1569 0.3560
C7 C 0.5140(6) 0.1320(3) 0.4252(9)
H4 H 0.5082 0.1080 0.3684
C8 C 0.6724(4) 0.2258(2) 0.5001(6)
C9 C 0.7500 0.2024(3) 0.5000
H5 H 0.7500 0.1700 0.5000
O5 O 0.3318(4) 0.3951(2) 0.3997(7)
O6 O 0.3703(4) 0.4230(2) 0.5688(8)
C19 C 0.3800(5) 0.3960(3) 0.4853(10)
C20 C 0.4539(5) 0.3626(3) 0.4883(8)
C21 C 0.4611(5) 0.3268(3) 0.4049(8)
H11 H 0.4198 0.3228 0.3449
C22 C 0.5307(4) 0.2962(2) 0.4102(7)
H12 H 0.5345 0.2715 0.3553
C23 C 0.5934(4) 0.3030(2) 0.4971(7)
C24 C 0.5852(5) 0.3387(2) 0.5830(8)
H13 H 0.6257 0.3431 0.6440
C25 C 0.5140(6) 0.3680(3) 0.5748(9)
H14 H 0.5082 0.3920 0.6316
C26 C 0.6724(4) 0.2742(2) 0.4999(6)
C27 C 0.7500 0.2976(3) 0.5000
H15 H 0.7500 0.3300 0.5000
C31 C 0.9693(4) 0.2038(2) 0.4102(7)
H17 H 0.9655 0.2285 0.3553
C32 C 0.9066(4) 0.1970(2) 0.4971(7)
C33 C 0.9148(5) 0.1613(2) 0.5830(8)
H18 H 0.8743 0.1569 0.6440
C34 C 0.9860(6) 0.1320(3) 0.5748(9)
H19 H 0.9918 0.1080 0.6316
C35 C 0.8276(4) 0.2258(2) 0.4999(6)
C39 C 0.9693(4) 0.2962(2) 0.5898(7)
H21 H 0.9655 0.2715 0.6447
C40 C 0.9066(4) 0.3030(2) 0.5029(7)
C41 C 0.9148(5) 0.3387(2) 0.4170(8)
H22 H 0.8743 0.3431 0.3560
C42 C 0.9860(6) 0.3680(3) 0.4252(9)
H23 H 0.9918 0.3920 0.3684
C43 C 0.8276(4) 0.2742(2) 0.5001(6)
O3 O 0.2966(9) 0.9787(3) 0.3807(12)
O4 O 0.1742(11) 0.9896(3) 0.3247(11)
C10 C 0.2359(12) 0.9657(4) 0.3255(15)
C11 C 0.2401(10) 0.9227(4) 0.2601(11)
C12 C 0.3015(9) 0.8893(3) 0.2796(9)
H6 H 0.3433 0.8955 0.3375
C13 C 0.3043(7) 0.8479(2) 0.2188(8)
H7 H 0.3483 0.8272 0.2343
C14 C 0.2427(5) 0.8365(2) 0.1348(6)
C15 C 0.1787(6) 0.8680(3) 0.1140(8)
H8 H 0.1360 0.8610 0.0581
C16 C 0.1774(9) 0.9111(3) 0.1770(11)
H9 H 0.1336 0.9319 0.1621
C17 C 0.2480(5) 0.7924(2) 0.0648(7)
C18 C 0.2500 0.7500 0.1245(9)
H10 H 0.2500 0.7500 0.2100
O11 O 0.2034(9) 0.5213(3) 0.3807(12)
O12 O 0.3258(11) 0.5104(3) 0.3247(11)
C44 C 0.2641(12) 0.5343(4) 0.3255(15)
C45 C 0.2599(10) 0.5773(4) 0.2601(11)
C46 C 0.1985(9) 0.6107(3) 0.2796(9)
H24 H 0.1567 0.6045 0.3375
C47 C 0.1957(7) 0.6521(2) 0.2188(8)
H25 H 0.1517 0.6728 0.2343
C48 C 0.2573(5) 0.6635(2) 0.1348(6)
C49 C 0.3213(6) 0.6320(3) 0.1140(8)
H26 H 0.3640 0.6390 0.0581
C50 C 0.3226(9) 0.5889(3) 0.1770(11)
H27 H 0.3664 0.5681 0.1621
C51 C 0.2520(5) 0.7076(2) 0.0648(7)
O23 O 0.2966(9) 0.5213(3) 0.6193(12)
O24 O 0.2034(9) 0.9787(3) 0.6193(12)
O25 O 0.1742(11) 0.5104(3) 0.6753(11)
O26 O 0.3258(11) 0.9896(3) 0.6753(11)
C52 C 0.2359(12) 0.5343(4) 0.6745(15)
C53 C 0.2401(10) 0.5773(4) 0.7399(11)
C54 C 0.3015(9) 0.6107(3) 0.7204(9)
H28 H 0.3433 0.6045 0.6625
C55 C 0.3043(7) 0.6521(2) 0.7812(8)
H29 H 0.3483 0.6728 0.7657
C56 C 0.2427(5) 0.6635(2) 0.8652(6)
C57 C 0.1787(6) 0.6320(3) 0.8860(8)
H30 H 0.1360 0.6390 0.9419
C58 C 0.1774(9) 0.5889(3) 0.8230(11)
H31 H 0.1336 0.5681 0.8379
C59 C 0.2480(5) 0.7076(2) 0.9352(7)
C60 C 0.2500 0.7500 0.8755(9)
H32 H 0.2500 0.7500 0.7900
C61 C 0.2641(12) 0.9657(4) 0.6745(15)
C62 C 0.2599(10) 0.9227(4) 0.7399(11)
C63 C 0.1985(9) 0.8893(3) 0.7204(9)
H33 H 0.1567 0.8955 0.6625
C64 C 0.1957(7) 0.8479(2) 0.7812(8)
H34 H 0.1517 0.8272 0.7657
C65 C 0.2573(5) 0.8365(2) 0.8652(6)
C66 C 0.3213(6) 0.8680(3) 0.8860(8)
H35 H 0.3640 0.8610 0.9419
C67 C 0.3226(9) 0.9111(3) 0.8230(11)
H36 H 0.3664 0.9319 0.8379
C68 C 0.2520(5) 0.7924(2) 0.9352(7)
O13 O 0.7034(9) 0.4787(3) 0.3807(12)
O14 O 0.8258(11) 0.4896(3) 0.3247(11)
C52_2 C 0.7641(12) 0.4657(4) 0.3255(15)
C53_2 C 0.7599(10) 0.4227(4) 0.2601(11)
C54_2 C 0.6985(9) 0.3893(3) 0.2796(9)
H28_2 H 0.6567 0.3955 0.3375
C55_2 C 0.6957(7) 0.3479(2) 0.2188(8)
H29_2 H 0.6517 0.3272 0.2343
C56_2 C 0.7573(5) 0.3365(2) 0.1348(6)
C57_2 C 0.8213(6) 0.3680(3) 0.1140(8)
H30_2 H 0.8640 0.3610 0.0581
C58_2 C 0.8226(9) 0.4111(3) 0.1770(11)
H31_2 H 0.8664 0.4319 0.1621
C59_2 C 0.7520(5) 0.2924(2) 0.0648(7)
C60_2 C 0.7500 0.2500 0.1245(9)
H32_2 H 0.7500 0.2500 0.2100
O15 O 0.7966(9) 0.0213(3) 0.3807(12)
O16 O 0.6742(11) 0.0104(3) 0.3247(11)
C61_2 C 0.7359(12) 0.0343(4) 0.3255(15)
C62_2 C 0.7401(10) 0.0773(4) 0.2601(11)
C63_2 C 0.8015(9) 0.1107(3) 0.2796(9)
H33_2 H 0.8433 0.1045 0.3375
C64_2 C 0.8043(7) 0.1521(2) 0.2188(8)
H34_2 H 0.8483 0.1728 0.2343
C65_2 C 0.7427(5) 0.1635(2) 0.1348(6)
C66_2 C 0.6787(6) 0.1320(3) 0.1140(8)
H35_2 H 0.6360 0.1390 0.0581
C67_2 C 0.6774(9) 0.0889(3) 0.1770(11)
H36_2 H 0.6336 0.0681 0.1621
C68_2 C 0.7480(5) 0.2076(2) 0.0648(7)
Cd5 Cd 0.7500 0.54006(2) 0.5000
O3_2 O 0.7034(9) 0.0213(3) 0.6193(12)
O4_2 O 0.8258(11) 0.0104(3) 0.6753(11)
C10_2 C 0.7641(12) 0.0343(4) 0.6745(15)
C11_2 C 0.7599(10) 0.0773(4) 0.7399(11)
C12_2 C 0.6985(9) 0.1107(3) 0.7204(9)
H6_2 H 0.6567 0.1045 0.6625
C13_2 C 0.6957(7) 0.1521(2) 0.7812(8)
H7_2 H 0.6517 0.1728 0.7657
C14_2 C 0.7573(5) 0.1635(2) 0.8652(6)
C15_2 C 0.8213(6) 0.1320(3) 0.8860(8)
H8_2 H 0.8640 0.1390 0.9419
C16_2 C 0.8226(9) 0.0889(3) 0.8230(11)
H9_2 H 0.8664 0.0681 0.8379
C17_2 C 0.7520(5) 0.2076(2) 0.9352(7)
C18_2 C 0.7500 0.2500 0.8755(9)
H10_2 H 0.7500 0.2500 0.7900
O11_2 O 0.7966(9) 0.4787(3) 0.6193(12)
O12_2 O 0.6742(11) 0.4896(3) 0.6753(11)
C44_2 C 0.7359(12) 0.4657(4) 0.6745(15)
C45_2 C 0.7401(10) 0.4227(4) 0.7399(11)
C46_2 C 0.8015(9) 0.3893(3) 0.7204(9)
H24_2 H 0.8433 0.3955 0.6625
C47_2 C 0.8043(7) 0.3479(2) 0.7812(8)
H25_2 H 0.8483 0.3272 0.7657
C48_2 C 0.7427(5) 0.3365(2) 0.8652(6)
C49_2 C 0.6787(6) 0.3680(3) 0.8860(8)
H26_2 H 0.6360 0.3610 0.9419
C50_2 C 0.6774(9) 0.4111(3) 0.8230(11)
H27_2 H 0.6336 0.4319 0.8379
C51_2 C 0.7480(5) 0.2924(2) 0.9352(7)
O17 O 0.8318(4) 0.6049(2) 0.3997(7)
O18 O 0.6682(4) 0.6049(2) 0.6003(7)
O20 O 0.8703(4) 0.5770(2) 0.5688(8)
O21 O 0.6297(4) 0.5770(2) 0.4312(8)
Cd3 Cd 0.7500 0.95994(2) 0.5000
O1_2 O 0.6682(4) 0.8951(2) 0.3997(7)
O2_2 O 0.6297(4) 0.9230(2) 0.5688(8)
C1_2 C 0.6200(5) 0.8960(3) 0.4853(10)
C2_2 C 0.5461(5) 0.8626(3) 0.4883(8)
C3_2 C 0.5389(5) 0.8268(3) 0.4049(8)
H1_2 H 0.5802 0.8228 0.3449
C4_2 C 0.4693(4) 0.7962(2) 0.4102(7)
H2_2 H 0.4655 0.7715 0.3553
C5_2 C 0.4066(4) 0.8030(2) 0.4971(7)
C6_2 C 0.4148(5) 0.8387(2) 0.5830(8)
H3_2 H 0.3743 0.8431 0.6440
C7_2 C 0.4860(6) 0.8680(3) 0.5748(9)
H4_2 H 0.4918 0.8920 0.6316
C8_2 C 0.3276(4) 0.7742(2) 0.4999(6)
C9_2 C 0.2500 0.7976(3) 0.5000
H5_2 H 0.2500 0.8300 0.5000
C19_2 C 0.6200(5) 0.6040(3) 0.5147(10)
C20_2 C 0.5461(5) 0.6374(3) 0.5117(8)
C21_2 C 0.5389(5) 0.6732(3) 0.5951(8)
H11_2 H 0.5802 0.6772 0.6551
C22_2 C 0.4693(4) 0.7038(2) 0.5898(7)
H12_2 H 0.4655 0.7285 0.6447
C23_2 C 0.4066(4) 0.6970(2) 0.5029(7)
C24_2 C 0.4148(5) 0.6613(2) 0.4170(8)
H13_2 H 0.3743 0.6569 0.3560
C25_2 C 0.4860(6) 0.6320(3) 0.4252(9)
H14_2 H 0.4918 0.6080 0.3684
C26_2 C 0.3276(4) 0.7258(2) 0.5001(6)
C27_2 C 0.2500 0.7024(3) 0.5000
H15_2 H 0.2500 0.6700 0.5000
C31_2 C 0.0307(4) 0.7962(2) 0.5898(7)
H17_2 H 0.0345 0.7715 0.6447
C32_2 C 0.0934(4) 0.8030(2) 0.5029(7)
C33_2 C 0.0852(5) 0.8387(2) 0.4170(8)
H18_2 H 0.1257 0.8431 0.3560
C34_2 C 0.0140(6) 0.8680(3) 0.4252(9)
H19_2 H 0.0082 0.8920 0.3684
C35_2 C 0.1724(4) 0.7742(2) 0.5001(6)
C39_2 C 0.0307(4) 0.7038(2) 0.4102(7)
H21_2 H 0.0345 0.7285 0.3553
C40_2 C 0.0934(4) 0.6970(2) 0.4971(7)
C41_2 C 0.0852(5) 0.6613(2) 0.5830(8)
H22_2 H 0.1257 0.6569 0.6440
C42_2 C 0.0140(6) 0.6320(3) 0.5748(9)
H23_2 H 0.0082 0.6080 0.6316
C43_2 C 0.1724(4) 0.7258(2) 0.4999(6)
O19 O 0.8318(4) 0.8951(2) 0.6003(7)
O22 O 0.8703(4) 0.9230(2) 0.4312(8)
C28_2 C 0.8800(5) 0.8960(3) 0.5147(10)
C29_2 C 0.9539(5) 0.8626(3) 0.5117(8)
C30_2 C 0.9611(5) 0.8268(3) 0.5951(8)
H16_2 H 0.9198 0.8228 0.6551
C36_2 C 0.8800(5) 0.6040(3) 0.4853(10)
C37_2 C 0.9539(5) 0.6374(3) 0.4883(8)
C38_2 C 0.9611(5) 0.6732(3) 0.4049(8)
H20_2 H 0.9198 0.6772 0.3449
loop_
_geom_bond_atom_site_label_1
_geom_bond_atom_site_label_2
_geom_bond_site_symmetry_1
_geom_bond_site_symmetry_2
O7 C28 1_555 1_555
O8 C28 1_555 1_555
C28 C29 1_555 1_555
C29 C30 1_555 1_555
C30 H16 1_555 1_555
O9 C36 1_555 1_555
O10 C36 1_555 1_555
C36 C37 1_555 1_555
C37 C38 1_555 1_555
C38 H20 1_555 1_555
Cd4 O7 1_555 1_555
Cd7 O9 1_555 1_555
O8 Cd4 1_555 1_555
O10 Cd7 1_555 1_555
Cd4 O1 1_555 1_555
O1 C1 1_555 1_555
O2 Cd4 1_555 1_555
C1 O2 1_555 1_555
C2 C1 1_555 1_555
C3 C2 1_555 1_555
H1 C3 1_555 1_555
C4 C3 1_555 1_555
H2 C4 1_555 1_555
C5 C4 1_555 1_555
C6 C5 1_555 1_555
H3 C6 1_555 1_555
C7 C2 1_555 1_555
H4 C7 1_555 1_555
C8 C5 1_555 1_555
C9 C8 1_555 1_555
H5 C9 1_555 1_555
O5 C19 1_555 1_555
O6 C19 1_555 1_555
C19 C20 1_555 1_555
C20 C21 1_555 1_555
C21 H11 1_555 1_555
C22 C21 1_555 1_555
H12 C22 1_555 1_555
C23 C22 1_555 1_555
C24 C23 1_555 1_555
H13 C24 1_555 1_555
C25 C20 1_555 1_555
H14 C25 1_555 1_555
C26 C8 1_555 1_555
C27 C26 1_555 1_555
H15 C27 1_555 1_555
H17 C31 1_555 1_555
C32 C31 1_555 1_555
C33 C32 1_555 1_555
H18 C33 1_555 1_555
H19 C34 1_555 1_555
C35 C9 1_555 1_555
H21 C39 1_555 1_555
C40 C39 1_555 1_555
C41 C40 1_555 1_555
H22 C41 1_555 1_555
H23 C42 1_555 1_555
C43 C27 1_555 1_555
Cd7 O5 1_555 1_555
C6 C7 1_555 1_555
O6 Cd7 1_555 1_555
C23 C26 1_555 1_555
C24 C25 1_555 1_555
C32 C35 1_555 1_555
C33 C34 1_555 1_555
C35 C43 1_555 1_555
C40 C43 1_555 1_555
C41 C42 1_555 1_555
C10 O3 1_555 1_555
C11 C10 1_555 1_555
C12 C11 1_555 1_555
H6 C12 1_555 1_555
C13 C12 1_555 1_555
H7 C13 1_555 1_555
C14 C13 1_555 1_555
C15 C14 1_555 1_555
H8 C15 1_555 1_555
C16 C11 1_555 1_555
H9 C16 1_555 1_555
C17 C14 1_555 1_555
C18 C17 1_555 1_555
H10 C18 1_555 1_555
O11 C44 1_555 1_555
O12 C44 1_555 1_555
C44 C45 1_555 1_555
C45 C46 1_555 1_555
C46 H24 1_555 1_555
C47 C46 1_555 1_555
H25 C47 1_555 1_555
C48 C47 1_555 1_555
C49 C48 1_555 1_555
H26 C49 1_555 1_555
C50 C45 1_555 1_555
H27 C50 1_555 1_555
C51 C18 1_555 1_555
Cd7 O11 1_555 1_555
O23 Cd7 1_555 1_555
O25 Cd7 1_555 1_555
O4 C10 1_555 1_555
C15 C16 1_555 1_555
O12 Cd7 1_555 1_555
C48 C51 1_555 1_555
C49 C50 1_555 1_555
O23 C52 1_555 1_555
O25 C52 1_555 1_555
C52 C53 1_555 1_555
C53 C54 1_555 1_555
C54 H28 1_555 1_555
C55 C54 1_555 1_555
H29 C55 1_555 1_555
C56 C55 1_555 1_555
C57 C56 1_555 1_555
H30 C57 1_555 1_555
C58 C53 1_555 1_555
H31 C58 1_555 1_555
C60 C59 1_555 1_555
H32 C60 1_555 1_555
O24 C61 1_555 1_555
O26 C61 1_555 1_555
C61 C62 1_555 1_555
C62 C63 1_555 1_555
C63 H33 1_555 1_555
C64 C63 1_555 1_555
H34 C64 1_555 1_555
C65 C64 1_555 1_555
C66 C65 1_555 1_555
H35 C66 1_555 1_555
C67 C62 1_555 1_555
H36 C67 1_555 1_555
C56 C59 1_555 1_555
C57 C58 1_555 1_555
C60 C68 1_555 1_555
C65 C68 1_555 1_555
C66 C67 1_555 1_555
O13 C52_2 1_555 1_555
O14 C52_2 1_555 1_555
C52_2 C53_2 1_555 1_555
C53_2 C54_2 1_555 1_555
C54_2 H28_2 1_555 1_555
C55_2 C54_2 1_555 1_555
H29_2 C55_2 1_555 1_555
C56_2 C55_2 1_555 1_555
C57_2 C56_2 1_555 1_555
H30_2 C57_2 1_555 1_555
C58_2 C53_2 1_555 1_555
H31_2 C58_2 1_555 1_555
C60_2 C59_2 1_555 1_555
H32_2 C60_2 1_555 1_555
O15 C61_2 1_555 1_555
O16 C61_2 1_555 1_555
C61_2 C62_2 1_555 1_555
C62_2 C63_2 1_555 1_555
C63_2 H33_2 1_555 1_555
C64_2 C63_2 1_555 1_555
H34_2 C64_2 1_555 1_555
C65_2 C64_2 1_555 1_555
C66_2 C65_2 1_555 1_555
H35_2 C66_2 1_555 1_555
C67_2 C62_2 1_555 1_555
H36_2 C67_2 1_555 1_555
Cd5 O13 1_555 1_555
O14 Cd5 1_555 1_555
C56_2 C59_2 1_555 1_555
C57_2 C58_2 1_555 1_555
C60_2 C68_2 1_555 1_555
C65_2 C68_2 1_555 1_555
C66_2 C67_2 1_555 1_555
C10_2 O3_2 1_555 1_555
C11_2 C10_2 1_555 1_555
C12_2 C11_2 1_555 1_555
H6_2 C12_2 1_555 1_555
C13_2 C12_2 1_555 1_555
H7_2 C13_2 1_555 1_555
C14_2 C13_2 1_555 1_555
C15_2 C14_2 1_555 1_555
H8_2 C15_2 1_555 1_555
C16_2 C11_2 1_555 1_555
H9_2 C16_2 1_555 1_555
C17_2 C14_2 1_555 1_555
C18_2 C17_2 1_555 1_555
H10_2 C18_2 1_555 1_555
O11_2 C44_2 1_555 1_555
O12_2 C44_2 1_555 1_555
C44_2 C45_2 1_555 1_555
C45_2 C46_2 1_555 1_555
C46_2 H24_2 1_555 1_555
C47_2 C46_2 1_555 1_555
H25_2 C47_2 1_555 1_555
C48_2 C47_2 1_555 1_555
C49_2 C48_2 1_555 1_555
H26_2 C49_2 1_555 1_555
C50_2 C45_2 1_555 1_555
H27_2 C50_2 1_555 1_555
C51_2 C18_2 1_555 1_555
Cd5 O11_2 1_555 1_555
O17 Cd5 1_555 1_555
O18 Cd5 1_555 1_555
O20 Cd5 1_555 1_555
O21 Cd5 1_555 1_555
O4_2 C10_2 1_555 1_555
C15_2 C16_2 1_555 1_555
O12_2 Cd5 1_555 1_555
C48_2 C51_2 1_555 1_555
C49_2 C50_2 1_555 1_555
Cd3 O1_2 1_555 1_555
O1_2 C1_2 1_555 1_555
O2_2 Cd3 1_555 1_555
C1_2 O2_2 1_555 1_555
C2_2 C1_2 1_555 1_555
C3_2 C2_2 1_555 1_555
H1_2 C3_2 1_555 1_555
C4_2 C3_2 1_555 1_555
H2_2 C4_2 1_555 1_555
C5_2 C4_2 1_555 1_555
C6_2 C5_2 1_555 1_555
H3_2 C6_2 1_555 1_555
C7_2 C2_2 1_555 1_555
H4_2 C7_2 1_555 1_555
C8_2 C5_2 1_555 1_555
C9_2 C8_2 1_555 1_555
H5_2 C9_2 1_555 1_555
O18 C19_2 1_555 1_555
O21 C19_2 1_555 1_555
C19_2 C20_2 1_555 1_555
C20_2 C21_2 1_555 1_555
C21_2 H11_2 1_555 1_555
C22_2 C21_2 1_555 1_555
H12_2 C22_2 1_555 1_555
C23_2 C22_2 1_555 1_555
C24_2 C23_2 1_555 1_555
H13_2 C24_2 1_555 1_555
C25_2 C20_2 1_555 1_555
H14_2 C25_2 1_555 1_555
C26_2 C8_2 1_555 1_555
C27_2 C26_2 1_555 1_555
H15_2 C27_2 1_555 1_555
H17_2 C31_2 1_555 1_555
C32_2 C31_2 1_555 1_555
C33_2 C32_2 1_555 1_555
H18_2 C33_2 1_555 1_555
H19_2 C34_2 1_555 1_555
C35_2 C9_2 1_555 1_555
H21_2 C39_2 1_555 1_555
C40_2 C39_2 1_555 1_555
C41_2 C40_2 1_555 1_555
H22_2 C41_2 1_555 1_555
H23_2 C42_2 1_555 1_555
C43_2 C27_2 1_555 1_555
O19 Cd3 1_555 1_555
O22 Cd3 1_555 1_555
C6_2 C7_2 1_555 1_555
C23_2 C26_2 1_555 1_555
C24_2 C25_2 1_555 1_555
C32_2 C35_2 1_555 1_555
C33_2 C34_2 1_555 1_555
C35_2 C43_2 1_555 1_555
C40_2 C43_2 1_555 1_555
C41_2 C42_2 1_555 1_555
O19 C28_2 1_555 1_555
O22 C28_2 1_555 1_555
C28_2 C29_2 1_555 1_555
C29_2 C30_2 1_555 1_555
C30_2 H16_2 1_555 1_555
O17 C36_2 1_555 1_555
O20 C36_2 1_555 1_555
C36_2 C37_2 1_555 1_555
C37_2 C38_2 1_555 1_555
C38_2 H20_2 1_555 1_555

#END
