
###############################################################################
#
# This file contains modified crystal structure data generated from the
# MOF subset of the Cambridge Structural Database (CSD) v543 
# hosted by the Cambridge Crystallographic Data Centre (CCDC).
#
# This work is licensed under the Creative Commons
# Attribution-NonCommercial-ShareAlike 4.0 International License.
# To view a copy of this license, visit
# http://creativecommons.org/licenses/by-nc-sa/4.0/
# or send a letter to
# Creative Commons, PO Box 1866, Mountain View, CA 94042, USA.
#
# CIF created using the CSD Python API on 29 September 2022
# The structure has been converted into the P1 space group
# The structure has a 3D framework
# The original CSD entry FEPBIO is in the triclinic crystal system
# The framework has been calculated to contain at least 10.0% void space
# The void calculation uses a probe of radius 1.32A, grid spacing 0.4
# H atom positions have been added when not included in the experimental data
#
###############################################################################

data_FEPBIO
_chemical_formula_moiety         '(C70 H62 Cd2 N10 O13 S4)n'
_symmetry_cell_setting           triclinic
_symmetry_space_group_name_H-M   'P 1'
_symmetry_Int_Tables_number      1
_space_group_name_Hall           'P 1'
loop_
_symmetry_equiv_pos_site_id
_symmetry_equiv_pos_as_xyz
1 x,y,z
_cell_length_a                   10.134(2)
_cell_length_b                   11.560(2)
_cell_length_c                   17.570(4)
_cell_angle_alpha                99.98(3)
_cell_angle_beta                 104.00(3)
_cell_angle_gamma                108.19(3)
_cell_volume                     1826.93
loop_
_atom_site_label
_atom_site_type_symbol
_atom_site_fract_x
_atom_site_fract_y
_atom_site_fract_z
_atom_site_U_iso_or_equiv
_atom_site_thermal_displace_type
C7 C 0.6206(6) 0.0981(5) 0.5600(3) 0.0332 Uani
C8 C 0.7480(7) 0.1922(6) 0.6180(3) 0.0417 Uani
H6 H 0.7555 0.2778 0.6291 0.0500 Uiso
C9 C 0.8603(7) 0.1626(6) 0.6583(4) 0.0449 Uani
H7 H 0.9461 0.2274 0.6963 0.0540 Uiso
C10 C 0.8488(6) 0.0352(6) 0.6435(4) 0.0434 Uani
H8 H 0.9256 0.0151 0.6741 0.0520 Uiso
C30 C 0.2139(7) 0.0633(5) 0.6248(3) 0.0406 Uani
H23 H 0.2982 0.1075 0.6713 0.0490 Uiso
C31 C 0.1512(5) 0.1298(5) 0.5816(3) 0.0287 Uani
H24 H 0.1894 0.2196 0.5990 0.0340 Uiso
C32 C 0.0308(5) 0.0661(4) 0.5116(3) 0.0226 Uani
H26 H 0.5863 0.0058 0.7179 0.1840 Uiso
H27 H 0.5714 0.0545 0.8052 0.1840 Uiso
S4 S 0.04179(13) 0.29991(11) 0.48314(7) 0.0246 Uani
O12 O 0.1856(4) 0.3269(3) 0.4803(2) 0.0353 Uani
O13 O 0.0349(4) 0.3543(3) 0.5607(2) 0.0361 Uani
N6 N 0.6759(4) 0.4016(4) 0.4025(2) 0.0297 Uani
N7 N 0.5493(5) 0.3254(4) 0.4759(3) 0.0308 Uani
C46 C 0.6708(6) 0.3415(5) 0.4581(3) 0.0326 Uani
H37 H 0.7449 0.3130 0.4825 0.0390 Uiso
C47 C 0.5545(6) 0.4286(6) 0.3853(4) 0.0410 Uani
H38 H 0.5305 0.4740 0.3473 0.0490 Uiso
C48 C 0.4727(6) 0.3816(6) 0.4301(3) 0.0424 Uani
H39 H 0.3807 0.3863 0.4300 0.0510 Uiso
C49 C 0.5050(6) 0.2592(5) 0.5342(3) 0.0332 Uani
H40 H 0.5730 0.3075 0.5895 0.0400 Uiso
H41 H 0.4058 0.2561 0.5332 0.0400 Uiso
C50 C 0.5034(6) 0.1259(5) 0.5171(3) 0.0281 Uani
C51 C 0.3855(6) 0.0313(5) 0.4573(3) 0.0319 Uani
C56 C 0.2663(6) 0.0572(6) 0.4120(3) 0.0374 Uani
H45 H 0.2691 0.1415 0.4216 0.0450 Uiso
Cd3 Cd 0.15385(4) 0.55487(3) 0.65410(2) 0.0265 Uani
Cd7 Cd 0.84615(4) 0.44513(3) 0.34590(2) 0.0265 Uani
C20 C 0.1842(8) 0.2721(8) 0.0037(5) 0.0665 Uani
H17 H 0.2492 0.2315 0.0224 0.0800 Uiso
C21 C 0.1901(7) 0.3769(7) 0.0542(4) 0.0490 Uani
H18 H 0.2583 0.4086 0.1077 0.0590 Uiso
C22 C 0.0966(6) 0.4394(6) 0.0286(3) 0.0361 Uani
H20 H 0.3710 0.7438 0.0049 0.0510 Uiso
C26 C 0.4799(6) 0.6432(5) 0.0557(3) 0.0395 Uani
H21 H 0.5088 0.6942 0.1099 0.0470 Uiso
C27 C 0.5213(5) 0.5378(5) 0.0410(3) 0.0275 Uani
S3 S 0.65378(15) 0.58621(15) 0.20612(8) 0.0362 Uani
O8 O 0.7401(5) 0.5267(5) 0.2505(2) 0.0584 Uani
O9 O 0.5227(5) 0.5658(6) 0.2235(2) 0.0690 Uani
O10 O 0.7361(6) 0.7165(5) 0.2134(3) 0.0772 Uani
C36 C 0.6043(6) 0.5012(5) 0.1032(3) 0.0318 Uani
C37 C 0.6417(6) 0.3989(6) 0.0865(3) 0.0415 Uani
H31 H 0.6961 0.3764 0.1297 0.0500 Uiso
C38 C 0.6007(7) 0.3267(6) 0.0064(3) 0.0426 Uani
N8 N 0.0192(5) 0.4698(4) 0.2905(2) 0.0305 Uani
N9 N 0.1541(5) 0.5367(4) 0.2185(2) 0.0323 Uani
C57 C 0.0310(5) 0.5249(5) 0.2323(3) 0.0286 Uani
C58 C 0.1453(6) 0.4451(6) 0.3147(3) 0.0383 Uani
H47 H 0.1681 0.4051 0.3562 0.0460 Uiso
C59 C 0.2286(6) 0.4858(6) 0.2706(3) 0.0409 Uani
H48 H 0.3217 0.4810 0.2741 0.0490 Uiso
C60 C 0.2094(6) 0.6031(6) 0.1622(3) 0.0432 Uani
H49 H 0.2289 0.6943 0.1818 0.0520 Uiso
H50 H 0.3027 0.5940 0.1606 0.0520 Uiso
C61 C 0.1004(6) 0.5507(6) 0.0782(3) 0.0372 Uani
C62 C 0.0069(7) 0.6116(6) 0.0519(3) 0.0394 Uani
C63 C 0.0071(8) 0.7235(7) 0.1023(4) 0.0530 Uani
H51 H 0.0745 0.7589 0.1560 0.0640 Uiso
S1 S 0.34622(15) 0.41379(15) 0.79388(8) 0.0362 Uani
O1 O 0.2599(5) 0.4733(5) 0.7495(2) 0.0584 Uani
O2 O 0.4773(5) 0.4342(6) 0.7765(2) 0.0690 Uani
O3 O 0.2639(6) 0.2835(5) 0.7866(3) 0.0772 Uani
O4 O 0.0483(4) 0.6682(3) 0.5800(2) 0.0392 Uani
O7 O 0.3187(5) 0.7598(5) 0.7490(3) 0.0667 Uani
N1 N 0.3241(4) 0.5984(4) 0.5975(2) 0.0297 Uani
N2 N 0.4507(5) 0.6746(4) 0.5241(3) 0.0308 Uani
N5 N 0.5566(7) 0.8743(6) 0.7794(4) 0.0697 Uani
C1 C 0.3292(6) 0.6585(5) 0.5419(3) 0.0326 Uani
H1 H 0.2551 0.6870 0.5175 0.0390 Uiso
C2 C 0.4455(6) 0.5714(6) 0.6147(4) 0.0410 Uani
H2 H 0.4695 0.5260 0.6527 0.0490 Uiso
C3 C 0.5273(6) 0.6184(6) 0.5699(3) 0.0424 Uani
H3 H 0.6193 0.6137 0.5700 0.0510 Uiso
C4 C 0.4950(6) 0.7408(5) 0.4658(3) 0.0332 Uani
H4 H 0.4270 0.6925 0.4105 0.0400 Uiso
H5 H 0.5942 0.7439 0.4668 0.0400 Uiso
C5 C 0.4966(6) 0.8741(5) 0.4829(3) 0.0281 Uani
C6 C 0.6145(6) 0.9687(5) 0.5427(3) 0.0319 Uani
C11 C 0.7337(6) 0.9428(6) 0.5880(3) 0.0374 Uani
H9 H 0.7309 0.8585 0.5784 0.0450 Uiso
H10 H 0.0407 0.4475 0.7960 0.0340 Uiso
C19 C 0.0856(8) 0.2213(7) 0.9247(4) 0.0603 Uani
H16 H 0.0844 0.1476 0.8904 0.0720 Uiso
C23 C 0.3957(6) 0.4988(5) 0.8968(3) 0.0318 Uani
C24 C 0.3583(6) 0.6011(6) 0.9135(3) 0.0415 Uani
H19 H 0.3039 0.6236 0.8703 0.0500 Uiso
C25 C 0.3993(7) 0.6733(6) 0.9936(3) 0.0426 Uani
C28 C 0.0370(5) 0.8663(4) 0.5361(3) 0.0235 Uani
C29 C 0.1565(6) 0.9307(5) 0.6023(3) 0.0319 Uani
H22 H 0.2016 0.8860 0.6335 0.0390 Uiso
C33 C 0.4489(8) 0.7764(8) 0.7743(4) 0.0672 Uani
C34 C 0.5340(11) 0.9830(10) 0.7565(7) 0.1230 Uani
H25 H 0.4292 0.9623 0.7311 0.1840 Uiso
C35 C 0.7061(8) 0.8775(10) 0.8068(6) 0.1033 Uani
H28 H 0.7040 0.7963 0.8169 0.1550 Uiso
H29 H 0.7622 0.9454 0.8572 0.1550 Uiso
H30 H 0.7524 0.8930 0.7647 0.1550 Uiso
H32 H 0.6290 0.2562 0.9951 0.0510 Uiso
C39 C 0.5201(6) 0.3568(5) 0.9443(3) 0.0395 Uani
H33 H 0.4912 0.3058 0.8901 0.0470 Uiso
C40 C 0.4787(5) 0.4622(5) 0.9590(3) 0.0275 Uani
C52 C 0.3794(6) 0.9019(5) 0.4400(3) 0.0332 Uani
C53 C 0.2520(7) 0.8078(6) 0.3820(3) 0.0417 Uani
H42 H 0.2445 0.7222 0.3709 0.0500 Uiso
C54 C 0.1397(7) 0.8374(6) 0.3417(4) 0.0449 Uani
H43 H 0.0539 0.7726 0.3037 0.0540 Uiso
C55 C 0.1512(6) 0.9648(6) 0.3565(4) 0.0434 Uani
H44 H 0.0744 0.9849 0.3259 0.0520 Uiso
H62 H 0.475156 0.69996 0.794406 . .
O11 O 0.9517(4) 0.3318(3) 0.4200(2) 0.0392 Uani
C41 C 0.9630(5) 0.1337(4) 0.4639(3) 0.0235 Uani
C42 C 0.8435(6) 0.0693(5) 0.3977(3) 0.0319 Uani
H34 H 0.7984 0.1140 0.3665 0.0390 Uiso
H46 H 0.9593 0.5525 0.2040 0.0340 Uiso
C64 C 0.9144(8) 0.7787(7) 0.0753(4) 0.0603 Uani
H52 H 0.9156 0.8524 0.1096 0.0720 Uiso
S2 S 0.95821(13) 0.70009(11) 0.51686(7) 0.0246 Uani
O5 O 0.8144(4) 0.6731(3) 0.5197(2) 0.0353 Uani
O6 O 0.9651(4) 0.6457(3) 0.4393(2) 0.0361 Uani
N3 N 0.9808(5) 0.5302(4) 0.7095(2) 0.0305 Uani
N4 N 0.8459(5) 0.4633(4) 0.7815(2) 0.0323 Uani
C12 C 0.9690(5) 0.4751(5) 0.7677(3) 0.0286 Uani
C13 C 0.8547(6) 0.5549(6) 0.6853(3) 0.0383 Uani
H11 H 0.8319 0.5949 0.6438 0.0460 Uiso
C14 C 0.7714(6) 0.5142(6) 0.7294(3) 0.0409 Uani
H12 H 0.6783 0.5190 0.7259 0.0490 Uiso
C15 C 0.7906(6) 0.3969(6) 0.8378(3) 0.0432 Uani
H13 H 0.7711 0.3057 0.8182 0.0520 Uiso
H14 H 0.6973 0.4060 0.8394 0.0520 Uiso
C16 C 0.8996(6) 0.4493(6) 0.9218(3) 0.0372 Uani
C17 C 0.9931(7) 0.3884(6) 0.9481(3) 0.0394 Uani
C18 C 0.9929(8) 0.2765(7) 0.8977(4) 0.0530 Uani
H15 H 0.9255 0.2411 0.8440 0.0640 Uiso
C43 C 0.7861(7) 0.9367(5) 0.3752(3) 0.0406 Uani
H35 H 0.7018 0.8925 0.3287 0.0490 Uiso
C44 C 0.8488(5) 0.8702(5) 0.4184(3) 0.0287 Uani
H36 H 0.8106 0.7804 0.4010 0.0340 Uiso
C45 C 0.9692(5) 0.9339(4) 0.4884(3) 0.0226 Uani
C65 C 0.8158(8) 0.7279(8) 0.9963(5) 0.0665 Uani
H53 H 0.7508 0.7685 0.9776 0.0800 Uiso
C66 C 0.8099(7) 0.6231(7) 0.9458(4) 0.0490 Uani
H54 H 0.7417 0.5914 0.8923 0.0590 Uiso
C67 C 0.9034(6) 0.5606(6) 0.9714(3) 0.0361 Uani
O14 O 0.6813(5) 0.2402(5) 0.2510(3) 0.0667 Uani
N10 N 0.4434(7) 0.1257(6) 0.2206(4) 0.0697 Uani
C68 C 0.5511(8) 0.2236(8) 0.2257(4) 0.0672 Uani
C69 C 0.4660(11) 0.0170(10) 0.2435(7) 0.1230 Uani
H55 H 0.5708 0.0377 0.2689 0.1840 Uiso
C70 C 0.2939(8) 0.1225(10) 0.1932(6) 0.1033 Uani
H58 H 0.2960 0.2037 0.1831 0.1550 Uiso
H59 H 0.2378 0.0546 0.1428 0.1550 Uiso
H60 H 0.2476 0.1070 0.2353 0.1550 Uiso
H61 H 0.524844 0.30004 0.205594 . .
H56 H 0.4137 0.9942 0.2821 0.1840 Uiso
H57 H 0.4286 0.9455 0.1948 0.1840 Uiso
loop_
_atom_site_aniso_label
_atom_site_aniso_U_11
_atom_site_aniso_U_22
_atom_site_aniso_U_33
_atom_site_aniso_U_23
_atom_site_aniso_U_13
_atom_site_aniso_U_12
C7 0.041 0.03 0.03 0.01 0.018 0.009
C8 0.048 0.038 0.034 0.008 0.013 0.01
C9 0.04 0.048 0.043 0.01 0.014 0.012
C10 0.037 0.049 0.049 0.014 0.016 0.02
C30 0.045 0.039 0.032 0.009 -0.002 0.019
C31 0.034 0.022 0.032 0.007 0.008 0.015
C32 0.028 0.023 0.026 0.0108 0.0145 0.015
S4 0.0269 0.0236 0.0308 0.0138 0.0143 0.012
O12 0.0316 0.034 0.05 0.0171 0.0224 0.0147
O13 0.044 0.027 0.043 0.0085 0.0237 0.0136
N6 0.026 0.032 0.038 0.015 0.015 0.0132
N7 0.027 0.033 0.039 0.0141 0.0185 0.0113
C46 0.03 0.036 0.04 0.016 0.015 0.017
C47 0.037 0.05 0.054 0.029 0.022 0.026
C48 0.032 0.054 0.055 0.03 0.019 0.022
C49 0.036 0.034 0.036 0.011 0.02 0.014
C50 0.035 0.025 0.034 0.01 0.02 0.016
C51 0.04 0.032 0.038 0.017 0.023 0.02
C56 0.033 0.039 0.049 0.015 0.021 0.017
Cd3 0.02714 0.0313 0.02927 0.01447 0.01352 0.01483
Cd7 0.02714 0.0313 0.02927 0.01447 0.01352 0.01483
C20 0.059 0.085 0.078 0.042 0.028 0.041
C21 0.049 0.065 0.047 0.022 0.023 0.03
C22 0.032 0.054 0.031 0.022 0.019 0.015
C26 0.048 0.038 0.032 0.01 0.01 0.017
C27 0.026 0.035 0.031 0.018 0.014 0.015
S3 0.0325 0.0561 0.0267 0.0181 0.0101 0.021
O8 0.056 0.105 0.037 0.031 0.0128 0.055
O9 0.048 0.138 0.041 0.036 0.0255 0.046
O10 0.101 0.059 0.041 0.004 0.015 0
C36 0.033 0.043 0.028 0.017 0.013 0.019
C37 0.039 0.055 0.034 0.02 0.002 0.025
C38 0.056 0.037 0.044 0.015 0.015 0.028
N8 0.031 0.037 0.032 0.0142 0.0143 0.018
N9 0.03 0.049 0.0238 0.0156 0.0118 0.017
C57 0.026 0.037 0.025 0.011 0.0109 0.011
C58 0.033 0.057 0.038 0.024 0.015 0.025
C59 0.031 0.068 0.042 0.028 0.02 0.029
C60 0.032 0.066 0.034 0.022 0.018 0.011
C61 0.033 0.054 0.031 0.018 0.018 0.015
C62 0.046 0.044 0.032 0.014 0.017 0.016
C63 0.061 0.064 0.044 0.019 0.022 0.03
S1 0.0325 0.0561 0.0267 0.0181 0.0101 0.021
O1 0.056 0.105 0.037 0.031 0.0128 0.055
O2 0.048 0.138 0.041 0.036 0.0255 0.046
O3 0.101 0.059 0.041 0.004 0.015 0
O4 0.049 0.034 0.048 0.0249 0.0164 0.0249
O7 0.052 0.059 0.071 -0.003 0.014 0.012
N1 0.026 0.032 0.038 0.015 0.015 0.0132
N2 0.027 0.033 0.039 0.0141 0.0185 0.0113
N5 0.052 0.079 0.068 0.027 0.011 0.013
C1 0.03 0.036 0.04 0.016 0.015 0.017
C2 0.037 0.05 0.054 0.029 0.022 0.026
C3 0.032 0.054 0.055 0.03 0.019 0.022
C4 0.036 0.034 0.036 0.011 0.02 0.014
C5 0.035 0.025 0.034 0.01 0.02 0.016
C6 0.04 0.032 0.038 0.017 0.023 0.02
C11 0.033 0.039 0.049 0.015 0.021 0.017
C19 0.074 0.059 0.06 0.014 0.034 0.032
C23 0.033 0.043 0.028 0.017 0.013 0.019
C24 0.039 0.055 0.034 0.02 0.002 0.025
C25 0.056 0.037 0.044 0.015 0.015 0.028
C28 0.029 0.025 0.026 0.0112 0.0145 0.016
C29 0.034 0.034 0.036 0.017 0.009 0.021
C33 0.046 0.07 0.06 0.002 0.014 -0.002
C34 0.084 0.116 0.183 0.087 0.052 0.023
C35 0.042 0.142 0.107 0.055 0.01 0.008
C39 0.048 0.038 0.032 0.01 0.01 0.017
C40 0.026 0.035 0.031 0.018 0.014 0.015
C52 0.041 0.03 0.03 0.01 0.018 0.009
C53 0.048 0.038 0.034 0.008 0.013 0.01
C54 0.04 0.048 0.043 0.01 0.014 0.012
C55 0.037 0.049 0.049 0.014 0.016 0.02
O11 0.049 0.034 0.048 0.0249 0.0164 0.0249
C41 0.029 0.025 0.026 0.0112 0.0145 0.016
C42 0.034 0.034 0.036 0.017 0.009 0.021
C64 0.074 0.059 0.06 0.014 0.034 0.032
S2 0.0269 0.0236 0.0308 0.0138 0.0143 0.012
O5 0.0316 0.034 0.05 0.0171 0.0224 0.0147
O6 0.044 0.027 0.043 0.0085 0.0237 0.0136
N3 0.031 0.037 0.032 0.0142 0.0143 0.018
N4 0.03 0.049 0.0238 0.0156 0.0118 0.017
C12 0.026 0.037 0.025 0.011 0.0109 0.011
C13 0.033 0.057 0.038 0.024 0.015 0.025
C14 0.031 0.068 0.042 0.028 0.02 0.029
C15 0.032 0.066 0.034 0.022 0.018 0.011
C16 0.033 0.054 0.031 0.018 0.018 0.015
C17 0.046 0.044 0.032 0.014 0.017 0.016
C18 0.061 0.064 0.044 0.019 0.022 0.03
C43 0.045 0.039 0.032 0.009 -0.002 0.019
C44 0.034 0.022 0.032 0.007 0.008 0.015
C45 0.028 0.023 0.026 0.0108 0.0145 0.015
C65 0.059 0.085 0.078 0.042 0.028 0.041
C66 0.049 0.065 0.047 0.022 0.023 0.03
C67 0.032 0.054 0.031 0.022 0.019 0.015
O14 0.052 0.059 0.071 -0.003 0.014 0.012
N10 0.052 0.079 0.068 0.027 0.011 0.013
C68 0.046 0.07 0.06 0.002 0.014 -0.002
C69 0.084 0.116 0.183 0.087 0.052 0.023
C70 0.042 0.142 0.107 0.055 0.01 0.008
loop_
_geom_bond_atom_site_label_1
_geom_bond_atom_site_label_2
_geom_bond_site_symmetry_1
_geom_bond_site_symmetry_2
C8 C7 1_555 1_555
H6 C8 1_555 1_555
C9 C8 1_555 1_555
H7 C9 1_555 1_555
C10 C9 1_555 1_555
H8 C10 1_555 1_555
H23 C30 1_555 1_555
C31 C30 1_555 1_555
H24 C31 1_555 1_555
C32 C31 1_555 1_555
O12 S4 1_555 1_555
O13 S4 1_555 1_555
N6 C46 1_555 1_555
N7 C46 1_555 1_555
C46 H37 1_555 1_555
C47 N6 1_555 1_555
H38 C47 1_555 1_555
C48 N7 1_555 1_555
H39 C48 1_555 1_555
C49 N7 1_555 1_555
H40 C49 1_555 1_555
H41 C49 1_555 1_555
C50 C7 1_555 1_555
C51 C50 1_555 1_555
C56 C51 1_555 1_555
H45 C56 1_555 1_555
Cd3 O13 1_555 1_555
Cd7 N6 1_555 1_555
C47 C48 1_555 1_555
C49 C50 1_555 1_555
H17 C20 1_555 1_555
C21 C20 1_555 1_555
H18 C21 1_555 1_555
H21 C26 1_555 1_555
C27 C26 1_555 1_555
S3 O8 1_555 1_555
O8 Cd7 1_555 1_555
O9 S3 1_555 1_555
O10 S3 1_555 1_555
C36 C27 1_555 1_555
C37 C36 1_555 1_555
H31 C37 1_555 1_555
C38 C37 1_555 1_555
N8 C57 1_555 1_555
N9 C57 1_555 1_555
C58 N8 1_555 1_555
H47 C58 1_555 1_555
C59 N9 1_555 1_555
H48 C59 1_555 1_555
C60 N9 1_555 1_555
H49 C60 1_555 1_555
H50 C60 1_555 1_555
C61 C22 1_555 1_555
C62 C61 1_555 1_555
C63 C62 1_555 1_555
H51 C63 1_555 1_555
C21 C22 1_555 1_555
S3 C36 1_555 1_555
C58 C59 1_555 1_555
C60 C61 1_555 1_555
Cd3 O1 1_555 1_555
S1 O1 1_555 1_555
O2 S1 1_555 1_555
O3 S1 1_555 1_555
O4 Cd3 1_555 1_555
O7 Cd3 1_555 1_555
N1 Cd3 1_555 1_555
N2 C1 1_555 1_555
N5 C33 1_555 1_555
C1 N1 1_555 1_555
H1 C1 1_555 1_555
C2 N1 1_555 1_555
H2 C2 1_555 1_555
C3 N2 1_555 1_555
H3 C3 1_555 1_555
C4 N2 1_555 1_555
H4 C4 1_555 1_555
H5 C4 1_555 1_555
C5 C4 1_555 1_555
C6 C5 1_555 1_555
C11 C6 1_555 1_555
H9 C11 1_555 1_555
H16 C19 1_555 1_555
C23 S1 1_555 1_555
C24 C23 1_555 1_555
H19 C24 1_555 1_555
C25 C24 1_555 1_555
C29 C28 1_555 1_555
H22 C29 1_555 1_555
C33 O7 1_555 1_555
C34 N5 1_555 1_555
H25 C34 1_555 1_555
C35 N5 1_555 1_555
H28 C35 1_555 1_555
H29 C35 1_555 1_555
H30 C35 1_555 1_555
H33 C39 1_555 1_555
C40 C23 1_555 1_555
C52 C5 1_555 1_555
C53 C52 1_555 1_555
H42 C53 1_555 1_555
C54 C53 1_555 1_555
H43 C54 1_555 1_555
C55 C54 1_555 1_555
H44 C55 1_555 1_555
C2 C3 1_555 1_555
C39 C40 1_555 1_555
C33 H62 1_555 1_555
O11 Cd7 1_555 1_555
C42 C41 1_555 1_555
H34 C42 1_555 1_555
H52 C64 1_555 1_555
O5 S2 1_555 1_555
O6 S2 1_555 1_555
N4 C12 1_555 1_555
C12 N3 1_555 1_555
C13 N3 1_555 1_555
H11 C13 1_555 1_555
C14 N4 1_555 1_555
H12 C14 1_555 1_555
C15 N4 1_555 1_555
H13 C15 1_555 1_555
H14 C15 1_555 1_555
C16 C15 1_555 1_555
C17 C16 1_555 1_555
C18 C17 1_555 1_555
H15 C18 1_555 1_555
H35 C43 1_555 1_555
C44 C43 1_555 1_555
H36 C44 1_555 1_555
H53 C65 1_555 1_555
C66 C65 1_555 1_555
H54 C66 1_555 1_555
C67 C16 1_555 1_555
Cd7 O6 1_555 1_555
O14 Cd7 1_555 1_555
N10 C68 1_555 1_555
C68 O14 1_555 1_555
C69 N10 1_555 1_555
H55 C69 1_555 1_555
C70 N10 1_555 1_555
H58 C70 1_555 1_555
H59 C70 1_555 1_555
H60 C70 1_555 1_555
C13 C14 1_555 1_555
C44 C45 1_555 1_555
C66 C67 1_555 1_555
C68 H61 1_555 1_555

#END
