
###############################################################################
#
# This file contains modified crystal structure data generated from the
# MOF subset of the Cambridge Structural Database (CSD) v543 
# hosted by the Cambridge Crystallographic Data Centre (CCDC).
#
# This work is licensed under the Creative Commons
# Attribution-NonCommercial-ShareAlike 4.0 International License.
# To view a copy of this license, visit
# http://creativecommons.org/licenses/by-nc-sa/4.0/
# or send a letter to
# Creative Commons, PO Box 1866, Mountain View, CA 94042, USA.
#
# CIF created using the CSD Python API on 29 September 2022
# The structure has been converted into the P1 space group
# The structure has a 3D framework
# The original CSD entry FEPGAL is in the triclinic crystal system
# The framework has been calculated to contain at least 10.0% void space
# The void calculation uses a probe of radius 1.32A, grid spacing 0.4
#
###############################################################################

data_FEPGAL
_chemical_formula_moiety         '(C88 H40 O30 Zn6)n'
_symmetry_cell_setting           triclinic
_symmetry_space_group_name_H-M   'P 1'
_symmetry_Int_Tables_number      1
_space_group_name_Hall           'P 1'
loop_
_symmetry_equiv_pos_site_id
_symmetry_equiv_pos_as_xyz
1 x,y,z
_cell_length_a                   15.2582(14)
_cell_length_b                   16.5938(15)
_cell_length_c                   18.8439(17)
_cell_angle_alpha                111.111(2)
_cell_angle_beta                 110.5670(10)
_cell_angle_gamma                98.938(2)
_cell_volume                     3944.2
loop_
_atom_site_label
_atom_site_type_symbol
_atom_site_fract_x
_atom_site_fract_y
_atom_site_fract_z
Zn1 Zn 0.59867(3) 0.40764(3) 0.14797(2)
Zn3 Zn 0.5000 0.5000 0.0000
O5 O 0.4686(2) 0.3757(3) 0.0259(2)
O6 O 0.4118(4) 0.3545(5) 0.1107(3)
O11 O 0.7206(4) 0.4086(3) 0.2667(3)
O12 O 0.5920(3) 0.2887(3) 0.1814(3)
O13 O 0.7110(5) 0.1719(4) 0.5175(3)
O14 O 0.8664(5) 0.1996(6) 0.5350(5)
O15 O 0.8104(6) 0.0065(4) 0.5281(4)
H9 H 0.2234 0.2752 0.0312
C20 C 0.3984(5) 0.3468(4) 0.0421(4)
C30 C 0.6396(5) 0.0100(4) 0.3409(4)
H13 H 0.7069 0.0256 0.3746
C33 C 0.5018(6) 0.0527(5) 0.2766(6)
H15 H 0.4751 0.0963 0.2661
C34 C 0.6033(6) 0.0746(4) 0.3216(4)
C35 C 0.6685(5) 0.1705(4) 0.3473(4)
C36 C 0.6443(5) 0.2094(4) 0.2931(4)
H16 H 0.5843 0.1792 0.2445
C37 C 0.6750(6) 0.3330(5) 0.2509(4)
C38 C 0.7014(6) 0.2884(4) 0.3055(4)
C39 C 0.7794(6) 0.1932(5) 0.4993(6)
C40 C 0.7526(6) 0.2194(5) 0.4216(5)
C41 C 0.8117(7) 0.3042(6) 0.4439(6)
H17 H 0.8638 0.3382 0.4979
C42 C 0.7929(7) 0.3377(6) 0.3860(7)
H18 H 0.8372 0.3910 0.3970
Zn5 Zn 0.17686(3) 0.85848(3) 0.37569(2)
O17 O 0.1764(5) 0.7156(4) 0.2738(3)
O18 O 0.2343(3) 0.8463(3) 0.2753(3)
O19 O 0.0123(4) 0.7935(6) 0.2943(3)
O20 O 0.0457(4) 0.9069(4) 0.2620(3)
C45 C 0.2930(5) 0.6571(5) 0.1777(4)
H21 H 0.3133 0.6465 0.2252
C46 C 0.3200(4) 0.6177(5) 0.1165(4)
H22 H 0.3591 0.5806 0.1226
C47 C 0.2907(4) 0.6311(4) 0.0449(3)
C48 C 0.2293(4) 0.6848(4) 0.0344(3)
C49 C 0.1975(4) 0.7249(4) 0.0946(4)
C50 C 0.2329(4) 0.7158(4) 0.1711(4)
C51 C 0.2126(4) 0.7605(4) 0.2440(4)
C52 C 0.0443(4) 0.7585(4) 0.0961(4)
H24 H 0.0416 0.7248 0.1259
C53 C 0.1235(4) 0.7726(4) 0.0774(3)
C54 C 0.1288(5) 0.8269(4) 0.0358(4)
H25 H 0.1833 0.8399 0.0254
C55 C 0.0516(5) 0.8615(5) 0.0101(5)
Zn10 Zn 0.82314(3) 0.14152(3) 0.62431(2)
O34 O 0.6489(3) 0.4777(3) 0.0248(2)
O35 O 0.6850(3) 0.3765(3) 0.0735(3)
O37 O 0.6316(4) 0.5489(3) 0.2317(3)
O39 O 0.5426(3) 0.5947(3) 0.1365(2)
O42 O 0.2890(5) 0.8281(4) 0.4825(3)
O44 O 0.1336(5) 0.8004(6) 0.4650(5)
O46 O 0.1896(6) 0.9935(4) 0.4719(4)
Zn3_2 Zn 0.5000 0.5000 1.0000
C12 C 0.0268(5) 0.1552(5) 0.9717(4)
H7 H 0.0776 0.1316 0.9888
C13 C 0.0318(4) 0.2056(4) 0.9290(3)
C14 C 0.1189(4) 0.2290(4) 0.9121(3)
C15 C 0.1093(4) 0.2122(4) 0.8313(3)
C16 C 0.1903(4) 0.2390(5) 0.8181(3)
H8 H 0.1824 0.2289 0.7640
C17 C 0.2947(4) 0.2981(4) 0.9660(3)
C18 C 0.2140(4) 0.2685(4) 0.9776(3)
C19 C 0.0073(5) 0.1634(7) 0.7519(5)
C44 C 0.2857(4) 0.2819(4) 0.8878(4)
H20 H 0.3412 0.2986 0.8798
O23 O 0.3511(3) 0.5223(3) 0.9752(2)
O24 O 0.3150(3) 0.6235(3) 0.9265(3)
H23 H 0.2095 0.6935 0.9858
H26 H 0.0535 0.8957 0.9806
C65 C 0.3214(4) 0.5882(4) 0.9762(4)
Zn9 Zn 0.40133(3) 0.59236(3) 0.85203(2)
O33 O 0.5314(2) 0.6243(3) 0.9741(2)
O40 O 0.4574(3) 0.4053(3) 0.8635(2)
O16 O 0.6551(9) 0.9878(4) 0.5147(5)
C22 C 0.5979(4) 0.6076(4) 0.2094(3)
C23 C 0.6288(5) 0.7014(4) 0.2808(3)
C24 C 0.6959(6) 0.7181(4) 0.3614(4)
H10 H 0.7170 0.6717 0.3710
C25 C 0.5950(5) 0.7663(4) 0.2665(3)
H11 H 0.5525 0.7529 0.2114
C26 C 0.6212(5) 0.8551(4) 0.3323(4)
C27 C 0.6862(6) 0.8729(4) 0.4132(4)
C28 C 0.5792(5) 0.9243(4) 0.3118(4)
C29 C 0.4811(6) 0.9009(5) 0.2642(5)
H12 H 0.4407 0.8414 0.2425
C31 C 0.7180(9) 0.9630(5) 0.4911(4)
C32 C 0.4398(6) 0.9645(5) 0.2473(7)
H14 H 0.3718 0.9487 0.2168
C43 C 0.7315(8) 0.8088(5) 0.4292(4)
H19 H 0.7826 0.8249 0.4819
O25 O 0.3684(4) 0.4511(3) 0.7683(3)
O32 O 0.3449(9) 0.0122(4) 0.4853(5)
C66 C 0.4021(4) 0.3924(4) 0.7906(3)
C67 C 0.3712(5) 0.2986(4) 0.7192(3)
C68 C 0.3041(6) 0.2819(4) 0.6386(4)
H30 H 0.2830 0.3283 0.6290
C69 C 0.4050(5) 0.2337(4) 0.7335(3)
H31 H 0.4475 0.2471 0.7886
C70 C 0.3788(5) 0.1449(4) 0.6677(4)
C71 C 0.3138(6) 0.1271(4) 0.5868(4)
C72 C 0.4208(5) 0.0757(4) 0.6882(4)
C73 C 0.5189(6) 0.0991(5) 0.7358(5)
H32 H 0.5593 0.1586 0.7575
C75 C 0.2820(9) 0.0370(5) 0.5089(4)
C76 C 0.5602(6) 0.0355(5) 0.7527(7)
H34 H 0.6282 0.0513 0.7832
C87 C 0.2685(8) 0.1912(5) 0.5708(4)
H39 H 0.2174 0.1751 0.5181
H3 H 0.7905 0.3065 0.0142
H6 H 0.9465 0.1043 0.0194
C21 C 0.6786(4) 0.4118(4) 0.0238(4)
C56 C 0.9732(5) 0.8448(5) 0.0283(4)
H27 H 0.9224 0.8684 0.0112
C57 C 0.9682(4) 0.7944(4) 0.0710(3)
C58 C 0.8811(4) 0.7710(4) 0.0879(3)
C59 C 0.8907(4) 0.7878(4) 0.1687(3)
C60 C 0.8097(4) 0.7610(5) 0.1819(3)
H28 H 0.8176 0.7711 0.2360
C61 C 0.7053(4) 0.7019(4) 0.0340(3)
C62 C 0.7860(4) 0.7315(4) 0.0224(3)
C63 C 0.9927(5) 0.8366(7) 0.2481(5)
C88 C 0.7143(4) 0.7181(4) 0.1122(4)
H40 H 0.6588 0.7014 0.1202
O1 O 0.8236(5) 0.2844(4) 0.7262(3)
O2 O 0.7657(3) 0.1537(3) 0.7247(3)
O3 O 0.9877(4) 0.2065(6) 0.7057(3)
O4 O 0.9543(4) 0.0931(4) 0.7380(3)
C1 C 0.7070(5) 0.3429(5) 0.8223(4)
H1 H 0.6867 0.3535 0.7748
C2 C 0.6800(4) 0.3823(5) 0.8835(4)
H2 H 0.6409 0.4194 0.8774
C3 C 0.7093(4) 0.3689(4) 0.9551(3)
C4 C 0.7707(4) 0.3152(4) 0.9656(3)
C5 C 0.8025(4) 0.2751(4) 0.9054(4)
C6 C 0.7671(4) 0.2842(4) 0.8289(4)
C7 C 0.7874(4) 0.2395(4) 0.7560(4)
C8 C 0.9557(4) 0.2415(4) 0.9039(4)
H4 H 0.9584 0.2752 0.8741
C9 C 0.8765(4) 0.2274(4) 0.9226(3)
C10 C 0.8712(5) 0.1731(4) 0.9642(4)
H5 H 0.8167 0.1601 0.9746
C11 C 0.9484(5) 0.1385(5) 0.9899(5)
O22 O 0.5882(4) 0.6455(5) 0.8893(3)
O27 O 0.2794(4) 0.5914(3) 0.7333(3)
O28 O 0.4080(3) 0.7113(3) 0.8186(3)
H29 H 0.7766 0.7248 0.9688
C64 C 0.6016(5) 0.6532(4) 0.9579(4)
C74 C 0.3604(5) 0.9900(4) 0.6591(4)
H33 H 0.2931 0.9744 0.6254
C77 C 0.4982(6) 0.9473(5) 0.7234(6)
H35 H 0.5249 0.9037 0.7339
C78 C 0.3967(6) 0.9254(4) 0.6784(4)
C79 C 0.3315(5) 0.8295(4) 0.6527(4)
C80 C 0.3557(5) 0.7906(4) 0.7069(4)
H36 H 0.4157 0.8208 0.7555
C81 C 0.3250(6) 0.6670(5) 0.7491(4)
C82 C 0.2986(6) 0.7116(4) 0.6945(4)
C83 C 0.2206(6) 0.8068(5) 0.5007(6)
C84 C 0.2474(6) 0.7806(5) 0.5784(5)
C85 C 0.1883(7) 0.6958(6) 0.5561(6)
H37 H 0.1362 0.6618 0.5021
C86 C 0.2071(7) 0.6623(6) 0.6140(7)
H38 H 0.1628 0.6090 0.6030
loop_
_geom_bond_atom_site_label_1
_geom_bond_atom_site_label_2
_geom_bond_site_symmetry_1
_geom_bond_site_symmetry_2
Zn1 O5 1_555 1_555
Zn3 O5 1_555 1_555
O5 C20 1_555 1_555
O6 C20 1_555 1_555
O11 Zn1 1_555 1_555
O12 Zn1 1_555 1_555
O13 C39 1_555 1_555
O14 C39 1_555 1_555
H13 C30 1_555 1_555
H15 C33 1_555 1_555
C34 C30 1_555 1_555
C35 C34 1_555 1_555
C36 C35 1_555 1_555
H16 C36 1_555 1_555
C37 O11 1_555 1_555
C38 C36 1_555 1_555
C39 C40 1_555 1_555
C40 C35 1_555 1_555
C41 C40 1_555 1_555
H17 C41 1_555 1_555
C42 C38 1_555 1_555
H18 C42 1_555 1_555
Zn5 O17 1_555 1_555
O17 C51 1_555 1_555
O18 Zn5 1_555 1_555
O19 Zn5 1_555 1_555
C45 H21 1_555 1_555
C46 C45 1_555 1_555
H22 C46 1_555 1_555
C47 C46 1_555 1_555
C48 C47 1_555 1_555
C49 C48 1_555 1_555
C50 C45 1_555 1_555
C51 O18 1_555 1_555
C52 H24 1_555 1_555
C53 C49 1_555 1_555
C54 C53 1_555 1_555
H25 C54 1_555 1_555
C55 C54 1_555 1_555
Zn10 O13 1_555 1_555
O34 Zn3 1_555 1_555
O35 Zn1 1_555 1_555
O37 Zn1 1_555 1_555
O39 Zn3 1_555 1_555
O42 Zn5 1_555 1_555
O44 Zn5 1_555 1_555
O46 Zn5 1_555 1_555
O12 C37 1_555 1_555
O14 Zn10 1_555 1_555
O15 Zn10 1_555 1_555
C33 C34 1_555 1_555
C37 C38 1_555 1_555
C41 C42 1_555 1_555
C49 C50 1_555 1_555
C50 C51 1_555 1_555
C52 C53 1_555 1_555
H7 C12 1_555 1_555
C14 C13 1_555 1_555
C15 C14 1_555 1_555
C16 C15 1_555 1_555
H8 C16 1_555 1_555
C17 C18 1_555 1_555
C18 C14 1_555 1_555
C44 C16 1_555 1_555
H20 C44 1_555 1_555
O23 Zn3_2 1_555 1_555
O24 C65 1_555 1_555
C65 O23 1_555 1_555
Zn9 O24 1_555 1_555
O33 Zn3_2 1_555 1_555
O40 Zn3_2 1_555 1_555
C12 C13 1_555 1_555
C15 C19 1_555 1_555
C17 C44 1_555 1_555
Zn9 O33 1_555 1_555
O37 C22 1_555 1_555
O39 C22 1_555 1_555
O16 C31 1_555 1_555
C22 C23 1_555 1_555
C23 C24 1_555 1_555
C24 H10 1_555 1_555
C25 C23 1_555 1_555
H11 C25 1_555 1_555
C26 C25 1_555 1_555
C27 C26 1_555 1_555
C28 C26 1_555 1_555
C29 C28 1_555 1_555
H12 C29 1_555 1_555
C31 C27 1_555 1_555
C32 C29 1_555 1_555
H14 C32 1_555 1_555
C43 C24 1_555 1_555
H19 C43 1_555 1_555
C27 C43 1_555 1_555
O25 C66 1_555 1_555
O40 C66 1_555 1_555
O32 C75 1_555 1_555
C66 C67 1_555 1_555
C67 C68 1_555 1_555
C68 H30 1_555 1_555
C69 C67 1_555 1_555
H31 C69 1_555 1_555
C70 C69 1_555 1_555
C71 C70 1_555 1_555
C72 C70 1_555 1_555
C73 C72 1_555 1_555
H32 C73 1_555 1_555
C75 C71 1_555 1_555
C76 C73 1_555 1_555
H34 C76 1_555 1_555
C87 C68 1_555 1_555
H39 C87 1_555 1_555
Zn9 O25 1_555 1_555
C71 C87 1_555 1_555
O34 C21 1_555 1_555
O35 C21 1_555 1_555
H27 C56 1_555 1_555
C58 C57 1_555 1_555
C59 C58 1_555 1_555
C60 C59 1_555 1_555
H28 C60 1_555 1_555
C61 C62 1_555 1_555
C62 C58 1_555 1_555
C88 C60 1_555 1_555
H40 C88 1_555 1_555
C56 C57 1_555 1_555
C59 C63 1_555 1_555
C61 C88 1_555 1_555
Zn10 O1 1_555 1_555
O1 C7 1_555 1_555
O2 Zn10 1_555 1_555
O3 Zn10 1_555 1_555
C1 H1 1_555 1_555
C2 C1 1_555 1_555
H2 C2 1_555 1_555
C3 C2 1_555 1_555
C4 C3 1_555 1_555
C5 C4 1_555 1_555
C6 C1 1_555 1_555
C7 O2 1_555 1_555
C8 H4 1_555 1_555
C9 C5 1_555 1_555
C10 C9 1_555 1_555
H5 C10 1_555 1_555
C11 C10 1_555 1_555
O33 C64 1_555 1_555
O22 C64 1_555 1_555
O27 Zn9 1_555 1_555
O28 Zn9 1_555 1_555
O42 C83 1_555 1_555
O44 C83 1_555 1_555
H33 C74 1_555 1_555
H35 C77 1_555 1_555
C78 C74 1_555 1_555
C79 C78 1_555 1_555
C80 C79 1_555 1_555
H36 C80 1_555 1_555
C81 O27 1_555 1_555
C82 C80 1_555 1_555
C83 C84 1_555 1_555
C84 C79 1_555 1_555
C85 C84 1_555 1_555
H37 C85 1_555 1_555
C86 C82 1_555 1_555
H38 C86 1_555 1_555
C5 C6 1_555 1_555
C6 C7 1_555 1_555
C8 C9 1_555 1_555
O28 C81 1_555 1_555
C77 C78 1_555 1_555
C81 C82 1_555 1_555
C85 C86 1_555 1_555

#END
