
###############################################################################
#
# This file contains modified crystal structure data generated from the
# MOF subset of the Cambridge Structural Database (CSD) v543 
# hosted by the Cambridge Crystallographic Data Centre (CCDC).
#
# This work is licensed under the Creative Commons
# Attribution-NonCommercial-ShareAlike 4.0 International License.
# To view a copy of this license, visit
# http://creativecommons.org/licenses/by-nc-sa/4.0/
# or send a letter to
# Creative Commons, PO Box 1866, Mountain View, CA 94042, USA.
#
# CIF created using the CSD Python API on 29 September 2022
# The structure has been converted into the P1 space group
# The structure has a 3D framework
# The original CSD entry FEPGEP is in the triclinic crystal system
# The framework has been calculated to contain at least 10.0% void space
# The void calculation uses a probe of radius 1.32A, grid spacing 0.4
#
###############################################################################

data_FEPGEP
_chemical_formula_moiety         '(C88 H40 Cd6 O32)n'
_symmetry_cell_setting           triclinic
_symmetry_space_group_name_H-M   'P 1'
_symmetry_Int_Tables_number      1
_space_group_name_Hall           'P 1'
loop_
_symmetry_equiv_pos_site_id
_symmetry_equiv_pos_as_xyz
1 x,y,z
_cell_length_a                   15.145(7)
_cell_length_b                   16.256(7)
_cell_length_c                   18.707(8)
_cell_angle_alpha                113.190(7)
_cell_angle_beta                 108.631(8)
_cell_angle_gamma                98.060(8)
_cell_volume                     3819.98
loop_
_atom_site_label
_atom_site_type_symbol
_atom_site_fract_x
_atom_site_fract_y
_atom_site_fract_z
Cd13 Cd 0.0000 0.5000 0.5000
Cd5 Cd 0.30261(5) 0.48626(6) 0.12521(4)
O25 O 0.2167(7) 0.5282(7) 0.0314(5)
O28 O 0.3084(8) 0.3467(6) 0.0222(5)
O30 O 0.1713(9) 0.3386(8) 0.0355(8)
O32 O 0.3449(9) 0.5221(8) 0.0095(7)
O36 O 0.2263(6) 0.5104(7) 0.2118(5)
O38 O 0.4611(6) 0.5706(8) 0.2227(5)
O42 O 0.2800(6) 0.6463(8) 0.2357(5)
O44 O 0.4083(7) 0.4459(8) 0.2279(7)
O1 O 0.1211(6) 0.4519(6) 0.4755(5)
O4 O 0.9414(6) 0.3473(6) 0.4758(4)
O5 O 0.1151(5) 0.3025(7) 0.4301(5)
O6 O 0.7737(6) 0.4896(7) 0.7882(5)
C1 C 0.4562(7) 0.3010(8) 0.5755(5)
O7 O 0.5389(6) 0.4294(8) 0.7773(5)
O8 O 0.7987(7) 0.2411(9) 0.3883(6)
C2 C 0.3984(6) 0.3696(8) 0.5974(6)
C3 C 0.5523(6) 0.3353(8) 0.5944(6)
H1 H 0.5830 0.3998 0.6244
O10 O 0.7200(6) 0.3537(8) 0.7643(5)
C4 C 0.6046(7) 0.2755(8) 0.5695(6)
C7 C 0.3083(6) 0.3502(7) 0.5363(5)
H3 H 0.2839 0.2934 0.4864
C8 C 0.7059(7) 0.3130(8) 0.5872(6)
O11 O 0.5917(7) 0.5541(8) 0.7721(7)
C15 C 0.4372(7) 0.4542(9) 0.6713(7)
C17 C 0.2540(7) 0.4065(8) 0.5436(6)
C18 C 0.1577(9) 0.3863(10) 0.4807(7)
C19 C 0.3835(8) 0.5196(8) 0.6809(7)
H8 H 0.4075 0.5776 0.7295
C20 C 0.7350(7) 0.2904(9) 0.5199(6)
H9 H 0.6891 0.2484 0.4649
C22 C 0.7573(8) 0.4110(10) 0.7498(8)
C24 C 0.8983(8) 0.3910(8) 0.6126(6)
H10 H 0.9625 0.4159 0.6220
C25 C 0.2965(8) 0.4937(8) 0.6166(7)
H11 H 0.2618 0.5370 0.6210
C27 C 0.8281(8) 0.3276(8) 0.5317(7)
C28 C 0.5294(9) 0.4782(12) 0.7432(8)
C29 C 0.5559(10) 0.1817(9) 0.5279(8)
H12 H 0.5886 0.1390 0.5094
C30 C 0.7795(8) 0.3761(9) 0.6706(7)
C31 C 0.8683(8) 0.4155(8) 0.6789(7)
H13 H 0.9128 0.4624 0.7326
C33 C 0.4146(10) 0.2093(12) 0.5351(9)
H15 H 0.3486 0.1858 0.5216
C35 C 0.8580(9) 0.3041(9) 0.4596(8)
C38 C 0.4634(10) 0.1499(9) 0.5132(9)
H17 H 0.4328 0.0856 0.4873
Cd4 Cd 0.04336(5) 0.73958(5) 0.64491(4)
O18 O 0.0891(5) 0.5402(5) 0.6371(4)
O19 O 0.0976(7) 0.6798(7) 0.7273(4)
C49 C 0.1673(7) 0.5003(8) 0.7692(5)
H22 H 0.1515 0.4559 0.7134
C50 C 0.1449(7) 0.5797(8) 0.7794(5)
C53 C 0.2299(6) 0.3883(5) 0.8136(4)
C54 C 0.2800(7) 0.3597(6) 0.7621(5)
H24 H 0.3017 0.3984 0.7415
C55 C 0.2976(7) 0.2734(7) 0.7413(6)
H25 H 0.3310 0.2543 0.7069
C56 C 0.2651(7) 0.2157(5) 0.7721(6)
H26 H 0.2769 0.1579 0.7582
C57 C 0.2150(6) 0.2442(5) 0.8236(5)
C58 C 0.1975(5) 0.3305(5) 0.8444(4)
H27 H 0.1640 0.3496 0.8789
C60 C 0.2108(8) 0.4774(8) 0.8316(6)
C65 C 0.2636(10) 0.5311(10) 0.9886(9)
C67 C 0.1064(7) 0.6039(9) 0.7076(6)
C70 C 0.2251(10) 0.5419(9) 0.9131(6)
C76 C 0.2001(11) 0.6221(10) 0.9251(7)
H34 H 0.2114 0.6658 0.9799
C78 C 0.1590(10) 0.6397(10) 0.8585(7)
H36 H 0.1405 0.6939 0.8681
C81 C 0.2141(19) 0.3038(13) 0.9918(15)
C83 C 0.1742(7) 0.1801(5) 0.8493(5)
C84 C 0.1650(9) 0.2083(4) 0.9263(5)
C85 C 0.1220(11) 0.1418(6) 0.9442(5)
H38 H 0.1158 0.1607 0.9958
C86 C 0.0882(11) 0.0471(5) 0.8851(6)
H39 H 0.0594 0.0026 0.8971
C87 C 0.0974(10) 0.0189(4) 0.8081(5)
C88 C 0.1404(7) 0.0854(6) 0.7902(4)
H40 H 0.1466 0.0666 0.7387
Cd7 Cd 0.95664(5) 0.26042(5) 0.35509(4)
Cd10 Cd 0.69739(5) 0.51374(6) 0.87479(4)
Cd13_2 Cd 1.0000 0.5000 0.5000
O34 O 0.0586(6) 0.6527(6) 0.5242(4)
O40 O 0.2013(7) 0.7589(9) 0.6117(6)
O46 O 0.0838(7) 0.8955(6) 0.6839(7)
O48 O 0.0352(11) 0.8577(7) 0.7695(7)
C80 C 0.0662(12) 0.9149(10) 0.7486(8)
O13 O 0.9162(7) 0.1045(6) 0.3161(7)
O15 O 0.9648(11) 0.1423(7) 0.2305(7)
C36 C 0.9338(12) 0.0851(10) 0.2514(8)
O2 O 0.9109(5) 0.4598(5) 0.3629(4)
O3 O 0.9024(7) 0.3202(7) 0.2727(4)
C5 C 0.8327(7) 0.4997(8) 0.2308(5)
H2 H 0.8485 0.5441 0.2866
C6 C 0.8551(7) 0.4203(8) 0.2206(5)
C9 C 0.7701(6) 0.6117(5) 0.1864(4)
C10 C 0.7200(7) 0.6403(6) 0.2379(5)
H4 H 0.6983 0.6016 0.2585
C11 C 0.7024(7) 0.7266(7) 0.2587(6)
H5 H 0.6690 0.7457 0.2931
C12 C 0.7349(7) 0.7843(5) 0.2279(6)
H6 H 0.7231 0.8421 0.2418
C13 C 0.7850(6) 0.7558(5) 0.1764(5)
C14 C 0.8025(5) 0.6695(5) 0.1556(4)
H7 H 0.8360 0.6504 0.1211
C16 C 0.7892(8) 0.5226(8) 0.1684(6)
C21 C 0.7364(10) 0.4689(10) 0.0114(9)
C23 C 0.8936(7) 0.3961(9) 0.2924(6)
C26 C 0.7749(10) 0.4581(9) 0.0869(6)
C32 C 0.7999(11) 0.3779(10) 0.0749(7)
H14 H 0.7886 0.3342 0.0201
C34 C 0.8410(10) 0.3603(10) 0.1415(7)
H16 H 0.8595 0.3061 0.1319
C37 C 0.7859(19) 0.6962(13) 0.0082(15)
C39 C 0.8258(7) 0.8199(5) 0.1507(5)
C40 C 0.8350(9) 0.7917(4) 0.0737(5)
C41 C 0.8780(11) 0.8582(6) 0.0558(5)
H18 H 0.8842 0.8393 0.0042
C42 C 0.9118(11) 0.9529(5) 0.1149(6)
H19 H 0.9406 0.9974 0.1029
C43 C 0.9026(10) 0.9811(4) 0.1919(5)
C44 C 0.8596(7) 0.9146(6) 0.2098(4)
H20 H 0.8534 0.9334 0.2613
O17 O 0.8789(6) 0.5481(6) 0.5245(5)
O21 O 0.8849(5) 0.6975(7) 0.5699(5)
C45 C 0.5438(7) 0.6990(8) 0.4245(5)
C46 C 0.6016(6) 0.6304(8) 0.4026(6)
C47 C 0.4477(6) 0.6647(8) 0.4056(6)
H21 H 0.4170 0.6002 0.3756
C48 C 0.3954(7) 0.7245(8) 0.4305(6)
C51 C 0.6917(6) 0.6498(7) 0.4637(5)
H23 H 0.7161 0.7066 0.5136
C52 C 0.2941(7) 0.6870(8) 0.4128(6)
C59 C 0.5628(7) 0.5458(9) 0.3287(7)
C61 C 0.7460(7) 0.5935(8) 0.4564(6)
C62 C 0.8423(9) 0.6137(10) 0.5193(7)
C63 C 0.6165(8) 0.4804(8) 0.3191(7)
H28 H 0.5925 0.4224 0.2705
C64 C 0.2650(7) 0.7096(9) 0.4801(6)
H29 H 0.3109 0.7516 0.5351
C66 C 0.2427(8) 0.5890(10) 0.2502(8)
C68 C 0.1017(8) 0.6090(8) 0.3874(6)
H30 H 0.0375 0.5841 0.3780
C69 C 0.7035(8) 0.5063(8) 0.3834(7)
H31 H 0.7382 0.4630 0.3790
C71 C 0.1719(8) 0.6724(8) 0.4683(7)
C72 C 0.4706(9) 0.5218(12) 0.2568(8)
C73 C 0.4441(10) 0.8183(9) 0.4721(8)
H32 H 0.4114 0.8610 0.4906
C74 C 0.2205(8) 0.6239(9) 0.3294(7)
C75 C 0.1317(8) 0.5845(8) 0.3211(7)
H33 H 0.0872 0.5376 0.2674
C77 C 0.5854(10) 0.7907(12) 0.4649(9)
H35 H 0.6514 0.8142 0.4784
C79 C 0.1420(9) 0.6959(9) 0.5404(8)
C82 C 0.5366(10) 0.8501(9) 0.4868(9)
H37 H 0.5672 0.9144 0.5127
O9 O 0.7833(7) 0.4718(7) 0.9686(5)
O12 O 0.6916(8) 0.6533(6) 0.9778(5)
O14 O 0.8287(9) 0.6614(8) 0.9645(8)
O16 O 0.6551(9) 0.4779(8) 0.9905(7)
loop_
_geom_bond_atom_site_label_1
_geom_bond_atom_site_label_2
_geom_bond_site_symmetry_1
_geom_bond_site_symmetry_2
Cd5 O25 1_555 1_555
O28 Cd5 1_555 1_555
O30 Cd5 1_555 1_555
O32 Cd5 1_555 1_555
O36 Cd5 1_555 1_555
O38 Cd5 1_555 1_555
O42 Cd5 1_555 1_555
O44 Cd5 1_555 1_555
Cd13 O1 1_555 1_555
O1 C18 1_555 1_555
O4 C35 1_555 1_555
O6 C22 1_555 1_555
C1 C2 1_555 1_555
O7 C28 1_555 1_555
O8 C35 1_555 1_555
C2 C7 1_555 1_555
C3 C1 1_555 1_555
H1 C3 1_555 1_555
O10 C22 1_555 1_555
C4 C3 1_555 1_555
C7 H3 1_555 1_555
C8 C4 1_555 1_555
O11 C28 1_555 1_555
C15 C2 1_555 1_555
C17 C7 1_555 1_555
C18 O5 1_555 1_555
C19 C15 1_555 1_555
H8 C19 1_555 1_555
C20 C8 1_555 1_555
H9 C20 1_555 1_555
C22 C30 1_555 1_555
C24 H10 1_555 1_555
C25 C17 1_555 1_555
H11 C25 1_555 1_555
C27 C20 1_555 1_555
C28 C15 1_555 1_555
C29 C4 1_555 1_555
H12 C29 1_555 1_555
C30 C8 1_555 1_555
C31 C24 1_555 1_555
H13 C31 1_555 1_555
C33 C1 1_555 1_555
H15 C33 1_555 1_555
C35 C27 1_555 1_555
C38 C29 1_555 1_555
H17 C38 1_555 1_555
Cd4 O19 1_555 1_555
O18 Cd13 1_555 1_555
O19 C67 1_555 1_555
C49 H22 1_555 1_555
C50 C49 1_555 1_555
C53 C54 1_555 1_555
C54 H24 1_555 1_555
C55 C54 1_555 1_555
H25 C55 1_555 1_555
C56 C55 1_555 1_555
H26 C56 1_555 1_555
C57 C56 1_555 1_555
C58 C53 1_555 1_555
H27 C58 1_555 1_555
C60 C49 1_555 1_555
C65 C70 1_555 1_555
C67 O18 1_555 1_555
C70 C60 1_555 1_555
C76 C70 1_555 1_555
H34 C76 1_555 1_555
C78 C50 1_555 1_555
H36 C78 1_555 1_555
C83 C57 1_555 1_555
C84 C81 1_555 1_555
C85 C84 1_555 1_555
H38 C85 1_555 1_555
C86 C85 1_555 1_555
H39 C86 1_555 1_555
C87 C86 1_555 1_555
C88 C83 1_555 1_555
H40 C88 1_555 1_555
Cd7 O4 1_555 1_555
Cd10 O6 1_555 1_555
Cd13_2 O4 1_555 1_555
O34 Cd13 1_555 1_555
O40 Cd4 1_555 1_555
O46 Cd4 1_555 1_555
O48 Cd4 1_555 1_555
O7 Cd10 1_555 1_555
O8 Cd7 1_555 1_555
O10 Cd10 1_555 1_555
O11 Cd10 1_555 1_555
C17 C18 1_555 1_555
C19 C25 1_555 1_555
C24 C27 1_555 1_555
C30 C31 1_555 1_555
C33 C38 1_555 1_555
Cd4 O34 1_555 1_555
C50 C67 1_555 1_555
C53 C60 1_555 1_555
C57 C58 1_555 1_555
C76 C78 1_555 1_555
C83 C84 1_555 1_555
C87 C88 1_555 1_555
O46 C80 1_555 1_555
O48 C80 1_555 1_555
O13 C36 1_555 1_555
O15 C36 1_555 1_555
Cd7 O13 1_555 1_555
O15 Cd7 1_555 1_555
Cd7 O3 1_555 1_555
O2 Cd13_2 1_555 1_555
O3 C23 1_555 1_555
C5 H2 1_555 1_555
C6 C5 1_555 1_555
C9 C10 1_555 1_555
C10 H4 1_555 1_555
C11 C10 1_555 1_555
H5 C11 1_555 1_555
C12 C11 1_555 1_555
H6 C12 1_555 1_555
C13 C12 1_555 1_555
C14 C9 1_555 1_555
H7 C14 1_555 1_555
C16 C5 1_555 1_555
C21 C26 1_555 1_555
C23 O2 1_555 1_555
C26 C16 1_555 1_555
C32 C26 1_555 1_555
H14 C32 1_555 1_555
C34 C6 1_555 1_555
H16 C34 1_555 1_555
C39 C13 1_555 1_555
C40 C37 1_555 1_555
C41 C40 1_555 1_555
H18 C41 1_555 1_555
C42 C41 1_555 1_555
H19 C42 1_555 1_555
C43 C42 1_555 1_555
C44 C39 1_555 1_555
H20 C44 1_555 1_555
O17 Cd13_2 1_555 1_555
O34 C79 1_555 1_555
O36 C66 1_555 1_555
C45 C46 1_555 1_555
O38 C72 1_555 1_555
O40 C79 1_555 1_555
C46 C51 1_555 1_555
C47 C45 1_555 1_555
H21 C47 1_555 1_555
O42 C66 1_555 1_555
C48 C47 1_555 1_555
C51 H23 1_555 1_555
C52 C48 1_555 1_555
O44 C72 1_555 1_555
C59 C46 1_555 1_555
C61 C51 1_555 1_555
C62 O17 1_555 1_555
C63 C59 1_555 1_555
H28 C63 1_555 1_555
C64 C52 1_555 1_555
H29 C64 1_555 1_555
C66 C74 1_555 1_555
C68 H30 1_555 1_555
C69 C61 1_555 1_555
H31 C69 1_555 1_555
C71 C64 1_555 1_555
C72 C59 1_555 1_555
C73 C48 1_555 1_555
H32 C73 1_555 1_555
C74 C52 1_555 1_555
C75 C68 1_555 1_555
H33 C75 1_555 1_555
C77 C45 1_555 1_555
H35 C77 1_555 1_555
C79 C71 1_555 1_555
C82 C73 1_555 1_555
H37 C82 1_555 1_555
C6 C23 1_555 1_555
C9 C16 1_555 1_555
C13 C14 1_555 1_555
C32 C34 1_555 1_555
C39 C40 1_555 1_555
C43 C44 1_555 1_555
O21 C62 1_555 1_555
C61 C62 1_555 1_555
C63 C69 1_555 1_555
C68 C71 1_555 1_555
C74 C75 1_555 1_555
C77 C82 1_555 1_555
Cd10 O9 1_555 1_555
O12 Cd10 1_555 1_555
O14 Cd10 1_555 1_555
O16 Cd10 1_555 1_555

#END
