
###############################################################################
#
# This file contains modified crystal structure data generated from the
# MOF subset of the Cambridge Structural Database (CSD) v543 
# hosted by the Cambridge Crystallographic Data Centre (CCDC).
#
# This work is licensed under the Creative Commons
# Attribution-NonCommercial-ShareAlike 4.0 International License.
# To view a copy of this license, visit
# http://creativecommons.org/licenses/by-nc-sa/4.0/
# or send a letter to
# Creative Commons, PO Box 1866, Mountain View, CA 94042, USA.
#
# CIF created using the CSD Python API on 29 September 2022
# The structure has been converted into the P1 space group
# The structure has a 3D framework
# The original CSD entry FEPPEY is in the monoclinic crystal system
# The framework has been calculated to contain at least 10.0% void space
# The void calculation uses a probe of radius 1.32A, grid spacing 0.4
#
###############################################################################

data_FEPPEY
_chemical_formula_moiety         '(C82 H50 Cd12 O46)n'
_symmetry_cell_setting           triclinic
_symmetry_space_group_name_H-M   'P 1'
_symmetry_Int_Tables_number      1
_space_group_name_Hall           'P 1'
loop_
_symmetry_equiv_pos_site_id
_symmetry_equiv_pos_as_xyz
1 x,y,z
_cell_length_a                   25.473(5)
_cell_length_b                   6.6145(13)
_cell_length_c                   11.865(2)
_cell_angle_alpha                90
_cell_angle_beta                 109.75(3)
_cell_angle_gamma                90
_cell_volume                     1881.55
loop_
_atom_site_label
_atom_site_type_symbol
_atom_site_fract_x
_atom_site_fract_y
_atom_site_fract_z
Cd7 Cd 0.390999(11) -0.0000 0.80317(2)
Cd5 Cd 0.609001(11) -0.0000 0.19683(2)
Cd9 Cd 0.5000 0.5000 0.0000
C1 C 0.19727(14) 0.5000 0.3956(3)
C2 C 0.24760(15) 0.5000 0.5068(3)
C3 C 0.30046(15) 0.5000 0.4973(3)
H1 H 0.3047 0.5000 0.4224
C4 C 0.34635(15) 0.5000 0.5995(3)
C5 C 0.34098(14) 0.5000 0.7116(3)
C6 C 0.28829(15) 0.5000 0.7203(3)
H2 H 0.2842 0.5000 0.7953
C7 C 0.24161(15) 0.5000 0.6181(3)
H3 H 0.2062 0.5000 0.6243
C8 C 0.39344(13) 0.5000 0.8180(3)
C9 C 0.41121(16) 0.5000 0.4945(3)
C10 C 0.4169(2) 0.6760(6) 0.4451(3)
H4 H 0.4114 0.7971 0.4793
C11 C 0.43123(19) 0.6770(6) 0.3422(3)
H5 H 0.4354 0.7994 0.3077
C12 C 0.43921(15) 0.5000 0.2911(3)
C13 C 0.45630(15) 0.5000 0.1824(3)
Cd1 Cd 0.109001(11) 0.5000 0.19683(2)
O1 O 0.14976(11) 0.5000 0.4039(2)
O2 O 0.20359(11) 0.5000 0.2942(2)
O3 O 0.40088(11) 0.5000 0.6024(2)
O4 O 0.46357(9) 0.6650(3) 0.13714(17)
O5 O 0.41572(7) 0.3353(3) 0.86123(15)
O6 O 0.10821(19) 0.5000 0.0040(3)
O7 O 0.02537(15) 0.5000 0.2205(4)
H7 H 0.0030(19) 0.389(7) 0.189(4)
C14 C 0.4169(2) 0.3240(6) 0.4451(3)
H8 H 0.4114 0.2029 0.4793
C15 C 0.43123(19) 0.3230(6) 0.3422(3)
H9 H 0.4354 0.2006 0.3077
O8 O 0.46357(9) 0.3350(3) 0.13714(17)
O9 O 0.41572(7) 0.6647(3) 0.86123(15)
H11 H 0.0030(19) 0.611(7) 0.189(4)
H17 H 0.914(3) 0.624(11) 0.033(7)
H21 H 0.914(3) 0.376(11) 0.033(7)
Cd7_2 Cd 0.390999(11) 1.0000 0.80317(2)
Cd9_2 Cd 0.5000 0.5000 1.0000
O20 O 0.58428(7) 0.3353(3) 0.13877(15)
O22 O 0.08428(7) 0.8353(3) 0.13877(15)
O23 O 0.58428(7) 0.6647(3) 0.13877(15)
O25 O 0.08428(7) 0.1647(3) 0.13877(15)
H6 H 0.086(3) 0.624(11) 0.967(7)
H10 H 0.086(3) 0.376(11) 0.967(7)
C16 C 0.80273(14) 0.5000 0.6044(3)
C17 C 0.75240(15) 0.5000 0.4932(3)
C18 C 0.69954(15) 0.5000 0.5027(3)
H12 H 0.6953 0.5000 0.5776
C19 C 0.65365(15) 0.5000 0.4005(3)
C20 C 0.65902(14) 0.5000 0.2884(3)
C21 C 0.71171(15) 0.5000 0.2797(3)
H13 H 0.7158 0.5000 0.2047
C22 C 0.75839(15) 0.5000 0.3819(3)
H14 H 0.7938 0.5000 0.3757
C23 C 0.60656(13) 0.5000 0.1820(3)
C24 C 0.58879(16) 0.5000 0.5055(3)
C25 C 0.5831(2) 0.6760(6) 0.5549(3)
H15 H 0.5886 0.7971 0.5207
C26 C 0.56877(19) 0.6770(6) 0.6578(3)
H16 H 0.5646 0.7994 0.6923
C27 C 0.56079(15) 0.5000 0.7089(3)
C28 C 0.54370(15) 0.5000 0.8176(3)
Cd3 Cd 0.890999(11) 0.5000 0.80317(2)
O10 O 0.85024(11) 0.5000 0.5961(2)
O11 O 0.79641(11) 0.5000 0.7058(2)
O12 O 0.59912(11) 0.5000 0.3976(2)
O13 O 0.53643(9) 0.6650(3) 0.86286(17)
O15 O 0.89179(19) 0.5000 0.9960(3)
O16 O 0.97463(15) 0.5000 0.7795(4)
H18 H 0.9970(19) 0.389(7) 0.811(4)
C29 C 0.5831(2) 0.3240(6) 0.5549(3)
H19 H 0.5886 0.2029 0.5207
C30 C 0.56877(19) 0.3230(6) 0.6578(3)
H20 H 0.5646 0.2006 0.6923
O17 O 0.53643(9) 0.3350(3) 0.86286(17)
H22 H 0.9970(19) 0.611(7) 0.811(4)
Cd5_2 Cd 0.609001(11) 1.0000 0.19683(2)
O21 O 0.91572(7) 0.8353(3) 0.86123(15)
O26 O 0.91572(7) 0.1647(3) 0.86123(15)
Cd9_3 Cd 0.0000 -0.0000 0.0000
H17_2 H 0.414(3) 0.124(11) 0.033(7)
Cd9_4 Cd 0.0000 -0.0000 1.0000
C16_2 C 0.30273(14) -0.0000 0.6044(3)
C17_2 C 0.25240(15) -0.0000 0.4932(3)
C18_2 C 0.19954(15) -0.0000 0.5027(3)
H12_2 H 0.1953 -0.0000 0.5776
C19_2 C 0.15365(15) 0.0000 0.4005(3)
C20_2 C 0.15902(14) -0.0000 0.2884(3)
C21_2 C 0.21171(15) -0.0000 0.2797(3)
H13_2 H 0.2158 -0.0000 0.2047
C22_2 C 0.25839(15) -0.0000 0.3819(3)
H14_2 H 0.2938 0.0000 0.3757
C23_2 C 0.10656(13) -0.0000 0.1820(3)
C24_2 C 0.08879(16) -0.0000 0.5055(3)
C25_2 C 0.0831(2) 0.1760(6) 0.5549(3)
H15_2 H 0.0886 0.2971 0.5207
C26_2 C 0.06877(19) 0.1770(6) 0.6578(3)
H16_2 H 0.0646 0.2994 0.6923
C27_2 C 0.06079(15) -0.0000 0.7089(3)
C28_2 C 0.04370(15) 0.0000 0.8176(3)
O10_2 O 0.35024(11) -0.0000 0.5961(2)
O11_2 O 0.29641(11) -0.0000 0.7058(2)
O12_2 O 0.09912(11) 0.0000 0.3976(2)
O13_2 O 0.03643(9) 0.1650(3) 0.86286(17)
O15_2 O 0.39179(19) 0.0000 0.9960(3)
O16_2 O 0.47463(15) 0.0000 0.7795(4)
H22_2 H 0.4970(19) 0.111(7) 0.811(4)
Cd9_5 Cd 0.0000 1.0000 0.0000
H21_2 H 0.414(3) 0.876(11) 0.033(7)
Cd9_6 Cd 0.0000 1.0000 1.0000
C16_3 C 0.30273(14) 1.0000 0.6044(3)
C17_3 C 0.25240(15) 1.0000 0.4932(3)
C18_3 C 0.19954(15) 1.0000 0.5027(3)
H12_3 H 0.1953 1.0000 0.5776
C19_3 C 0.15365(15) 1.0000 0.4005(3)
C20_3 C 0.15902(14) 1.0000 0.2884(3)
C21_3 C 0.21171(15) 1.0000 0.2797(3)
H13_3 H 0.2158 1.0000 0.2047
C22_3 C 0.25839(15) 1.0000 0.3819(3)
H14_3 H 0.2938 1.0000 0.3757
C23_3 C 0.10656(13) 1.0000 0.1820(3)
C24_3 C 0.08879(16) 1.0000 0.5055(3)
C27_3 C 0.06079(15) 1.0000 0.7089(3)
C28_3 C 0.04370(15) 1.0000 0.8176(3)
O10_3 O 0.35024(11) 1.0000 0.5961(2)
O11_3 O 0.29641(11) 1.0000 0.7058(2)
O12_3 O 0.09912(11) 1.0000 0.3976(2)
O15_3 O 0.39179(19) 1.0000 0.9960(3)
O16_3 O 0.47463(15) 1.0000 0.7795(4)
H18_2 H 0.4970(19) 0.889(7) 0.811(4)
C29_2 C 0.0831(2) 0.8240(6) 0.5549(3)
H19_2 H 0.0886 0.7029 0.5207
C30_2 C 0.06877(19) 0.8230(6) 0.6578(3)
H20_2 H 0.0646 0.7006 0.6923
O17_2 O 0.03643(9) 0.8350(3) 0.86286(17)
Cd9_7 Cd 1.0000 -0.0000 0.0000
C1_2 C 0.69727(14) -0.0000 0.3956(3)
C2_2 C 0.74760(15) -0.0000 0.5068(3)
C3_2 C 0.80046(15) -0.0000 0.4973(3)
H1_2 H 0.8047 -0.0000 0.4224
C4_2 C 0.84635(15) -0.0000 0.5995(3)
C5_2 C 0.84098(14) 0.0000 0.7116(3)
C6_2 C 0.78829(15) 0.0000 0.7203(3)
H2_2 H 0.7842 0.0000 0.7953
C7_2 C 0.74161(15) -0.0000 0.6181(3)
H3_2 H 0.7062 -0.0000 0.6243
C8_2 C 0.89344(13) 0.0000 0.8180(3)
C9_2 C 0.91121(16) -0.0000 0.4945(3)
C10_2 C 0.9169(2) 0.1760(6) 0.4451(3)
H4_2 H 0.9114 0.2971 0.4793
C11_2 C 0.93123(19) 0.1770(6) 0.3422(3)
H5_2 H 0.9354 0.2994 0.3077
C12_2 C 0.93921(15) -0.0000 0.2911(3)
C13_2 C 0.95630(15) 0.0000 0.1824(3)
O1_2 O 0.64976(11) -0.0000 0.4039(2)
O2_2 O 0.70359(11) -0.0000 0.2942(2)
O3_2 O 0.90088(11) -0.0000 0.6024(2)
O4_2 O 0.96357(9) 0.1650(3) 0.13714(17)
O6_2 O 0.60821(19) -0.0000 0.0040(3)
O7_2 O 0.52537(15) -0.0000 0.2205(4)
H11_2 H 0.5030(19) 0.111(7) 0.189(4)
Cd9_8 Cd 1.0000 -0.0000 1.0000
H6_2 H 0.586(3) 0.124(11) 0.967(7)
Cd9_9 Cd 1.0000 1.0000 0.0000
C1_3 C 0.69727(14) 1.0000 0.3956(3)
C2_3 C 0.74760(15) 1.0000 0.5068(3)
C3_3 C 0.80046(15) 1.0000 0.4973(3)
H1_3 H 0.8047 1.0000 0.4224
C4_3 C 0.84635(15) 1.0000 0.5995(3)
C5_3 C 0.84098(14) 1.0000 0.7116(3)
C6_3 C 0.78829(15) 1.0000 0.7203(3)
H2_3 H 0.7842 1.0000 0.7953
C7_3 C 0.74161(15) 1.0000 0.6181(3)
H3_3 H 0.7062 1.0000 0.6243
C8_3 C 0.89344(13) 1.0000 0.8180(3)
C9_3 C 0.91121(16) 1.0000 0.4945(3)
C12_3 C 0.93921(15) 1.0000 0.2911(3)
C13_3 C 0.95630(15) 1.0000 0.1824(3)
O1_3 O 0.64976(11) 1.0000 0.4039(2)
O2_3 O 0.70359(11) 1.0000 0.2942(2)
O3_3 O 0.90088(11) 1.0000 0.6024(2)
O6_3 O 0.60821(19) 1.0000 0.0040(3)
O7_3 O 0.52537(15) 1.0000 0.2205(4)
H7_2 H 0.5030(19) 0.889(7) 0.189(4)
C14_2 C 0.9169(2) 0.8240(6) 0.4451(3)
H8_2 H 0.9114 0.7029 0.4793
C15_2 C 0.93123(19) 0.8230(6) 0.3422(3)
H9_2 H 0.9354 0.7006 0.3077
O8_2 O 0.96357(9) 0.8350(3) 0.13714(17)
Cd9_10 Cd 1.0000 1.0000 1.0000
H10_2 H 0.586(3) 0.876(11) 0.967(7)
loop_
_geom_bond_atom_site_label_1
_geom_bond_atom_site_label_2
_geom_bond_site_symmetry_1
_geom_bond_site_symmetry_2
C1 C2 1_555 1_555
C2 C3 1_555 1_555
C3 H1 1_555 1_555
C4 C3 1_555 1_555
C5 C4 1_555 1_555
C6 C5 1_555 1_555
H2 C6 1_555 1_555
C7 C2 1_555 1_555
H3 C7 1_555 1_555
C8 C5 1_555 1_555
C9 C10 1_555 1_555
C10 H4 1_555 1_555
C11 C10 1_555 1_555
H5 C11 1_555 1_555
C12 C11 1_555 1_555
C13 C12 1_555 1_555
Cd1 O1 1_555 1_555
Cd9 O4 1_555 1_555
O1 C1 1_555 1_555
O2 C1 1_555 1_555
O3 C4 1_555 1_555
O4 C13 1_555 1_555
O5 C8 1_555 1_555
O6 Cd1 1_555 1_555
O7 Cd1 1_555 1_555
H7 O7 1_555 1_555
C14 C9 1_555 1_555
H8 C14 1_555 1_555
C15 C12 1_555 1_555
H9 C15 1_555 1_555
O8 C13 1_555 1_555
O9 C8 1_555 1_555
H11 O7 1_555 1_555
Cd7 O5 1_555 1_555
Cd7_2 O9 1_555 1_555
Cd9_2 O5 1_555 1_555
O20 Cd9 1_555 1_555
O22 Cd1 1_555 1_555
O23 Cd9 1_555 1_555
O25 Cd1 1_555 1_555
C6 C7 1_555 1_555
C9 O3 1_555 1_555
Cd1 O2 1_555 1_555
Cd9 O8 1_555 1_555
C14 C15 1_555 1_555
O9 Cd9_2 1_555 1_555
C16 C17 1_555 1_555
C17 C18 1_555 1_555
C18 H12 1_555 1_555
C19 C18 1_555 1_555
C20 C19 1_555 1_555
C21 C20 1_555 1_555
H13 C21 1_555 1_555
C22 C17 1_555 1_555
H14 C22 1_555 1_555
C23 C20 1_555 1_555
C24 C25 1_555 1_555
C25 H15 1_555 1_555
C26 C25 1_555 1_555
H16 C26 1_555 1_555
C27 C26 1_555 1_555
C28 C27 1_555 1_555
Cd3 O10 1_555 1_555
O10 C16 1_555 1_555
O11 C16 1_555 1_555
O12 C19 1_555 1_555
O13 Cd9_2 1_555 1_555
O20 C23 1_555 1_555
O15 Cd3 1_555 1_555
O16 Cd3 1_555 1_555
H18 O16 1_555 1_555
C29 C24 1_555 1_555
H19 C29 1_555 1_555
C30 C27 1_555 1_555
H20 C30 1_555 1_555
O17 Cd9_2 1_555 1_555
O23 C23 1_555 1_555
H22 O16 1_555 1_555
Cd5 O20 1_555 1_555
Cd5_2 O23 1_555 1_555
O21 Cd3 1_555 1_555
O26 Cd3 1_555 1_555
C21 C22 1_555 1_555
C24 O12 1_555 1_555
C28 O13 1_555 1_555
C28 O17 1_555 1_555
Cd3 O11 1_555 1_555
C29 C30 1_555 1_555
O25 Cd9_3 1_555 1_555
C16_2 C17_2 1_555 1_555
C17_2 C18_2 1_555 1_555
C18_2 H12_2 1_555 1_555
C19_2 C18_2 1_555 1_555
C20_2 C19_2 1_555 1_555
C21_2 C20_2 1_555 1_555
H13_2 C21_2 1_555 1_555
C22_2 C17_2 1_555 1_555
H14_2 C22_2 1_555 1_555
C23_2 C20_2 1_555 1_555
C24_2 C25_2 1_555 1_555
C25_2 H15_2 1_555 1_555
C26_2 C25_2 1_555 1_555
H16_2 C26_2 1_555 1_555
C27_2 C26_2 1_555 1_555
C28_2 C27_2 1_555 1_555
Cd7 O10_2 1_555 1_555
O10_2 C16_2 1_555 1_555
O11_2 C16_2 1_555 1_555
O12_2 C19_2 1_555 1_555
O13_2 Cd9_4 1_555 1_555
O15_2 Cd7 1_555 1_555
O16_2 Cd7 1_555 1_555
O25 C23_2 1_555 1_555
H22_2 O16_2 1_555 1_555
C21_2 C22_2 1_555 1_555
C24_2 O12_2 1_555 1_555
C28_2 O13_2 1_555 1_555
Cd7 O11_2 1_555 1_555
O22 Cd9_5 1_555 1_555
C16_3 C17_3 1_555 1_555
C17_3 C18_3 1_555 1_555
C18_3 H12_3 1_555 1_555
C19_3 C18_3 1_555 1_555
C20_3 C19_3 1_555 1_555
C21_3 C20_3 1_555 1_555
H13_3 C21_3 1_555 1_555
C22_3 C17_3 1_555 1_555
H14_3 C22_3 1_555 1_555
C23_3 C20_3 1_555 1_555
C28_3 C27_3 1_555 1_555
Cd7_2 O10_3 1_555 1_555
O10_3 C16_3 1_555 1_555
O11_3 C16_3 1_555 1_555
O12_3 C19_3 1_555 1_555
O22 C23_3 1_555 1_555
O15_3 Cd7_2 1_555 1_555
O16_3 Cd7_2 1_555 1_555
H18_2 O16_3 1_555 1_555
C29_2 C24_3 1_555 1_555
H19_2 C29_2 1_555 1_555
C30_2 C27_3 1_555 1_555
H20_2 C30_2 1_555 1_555
O17_2 Cd9_6 1_555 1_555
C21_3 C22_3 1_555 1_555
C24_3 O12_3 1_555 1_555
C28_3 O17_2 1_555 1_555
Cd7_2 O11_3 1_555 1_555
C29_2 C30_2 1_555 1_555
C1_2 C2_2 1_555 1_555
C2_2 C3_2 1_555 1_555
C3_2 H1_2 1_555 1_555
C4_2 C3_2 1_555 1_555
C5_2 C4_2 1_555 1_555
C6_2 C5_2 1_555 1_555
H2_2 C6_2 1_555 1_555
C7_2 C2_2 1_555 1_555
H3_2 C7_2 1_555 1_555
C8_2 C5_2 1_555 1_555
C9_2 C10_2 1_555 1_555
C10_2 H4_2 1_555 1_555
C11_2 C10_2 1_555 1_555
H5_2 C11_2 1_555 1_555
C12_2 C11_2 1_555 1_555
C13_2 C12_2 1_555 1_555
Cd5 O1_2 1_555 1_555
Cd9_7 O4_2 1_555 1_555
O1_2 C1_2 1_555 1_555
O2_2 C1_2 1_555 1_555
O3_2 C4_2 1_555 1_555
O4_2 C13_2 1_555 1_555
O6_2 Cd5 1_555 1_555
O7_2 Cd5 1_555 1_555
O26 C8_2 1_555 1_555
H11_2 O7_2 1_555 1_555
C6_2 C7_2 1_555 1_555
C9_2 O3_2 1_555 1_555
Cd5 O2_2 1_555 1_555
O26 Cd9_8 1_555 1_555
C1_3 C2_3 1_555 1_555
C2_3 C3_3 1_555 1_555
C3_3 H1_3 1_555 1_555
C4_3 C3_3 1_555 1_555
C5_3 C4_3 1_555 1_555
C6_3 C5_3 1_555 1_555
H2_3 C6_3 1_555 1_555
C7_3 C2_3 1_555 1_555
H3_3 C7_3 1_555 1_555
C8_3 C5_3 1_555 1_555
C13_3 C12_3 1_555 1_555
Cd5_2 O1_3 1_555 1_555
O1_3 C1_3 1_555 1_555
O2_3 C1_3 1_555 1_555
O3_3 C4_3 1_555 1_555
O21 C8_3 1_555 1_555
O6_3 Cd5_2 1_555 1_555
O7_3 Cd5_2 1_555 1_555
H7_2 O7_3 1_555 1_555
C14_2 C9_3 1_555 1_555
H8_2 C14_2 1_555 1_555
C15_2 C12_3 1_555 1_555
H9_2 C15_2 1_555 1_555
O8_2 C13_3 1_555 1_555
Cd9_10 O21 1_555 1_555
C6_3 C7_3 1_555 1_555
C9_3 O3_3 1_555 1_555
Cd5_2 O2_3 1_555 1_555
Cd9_9 O8_2 1_555 1_555
C14_2 C15_2 1_555 1_555

#END
