
###############################################################################
#
# This file contains modified crystal structure data generated from the
# MOF subset of the Cambridge Structural Database (CSD) v543 
# hosted by the Cambridge Crystallographic Data Centre (CCDC).
#
# This work is licensed under the Creative Commons
# Attribution-NonCommercial-ShareAlike 4.0 International License.
# To view a copy of this license, visit
# http://creativecommons.org/licenses/by-nc-sa/4.0/
# or send a letter to
# Creative Commons, PO Box 1866, Mountain View, CA 94042, USA.
#
# CIF created using the CSD Python API on 29 September 2022
# The structure has been converted into the P1 space group
# The structure has a 3D framework
# The original CSD entry FEVBUG is in the monoclinic crystal system
# The framework has been calculated to contain at least 10.0% void space
# The void calculation uses a probe of radius 1.32A, grid spacing 0.4
#
###############################################################################

data_FEVBUG
_chemical_formula_moiety         '(C84 H60 Eu4 N4 O42 P4)n'
_symmetry_cell_setting           triclinic
_symmetry_space_group_name_H-M   'P 1'
_symmetry_Int_Tables_number      1
_space_group_name_Hall           'P 1'
loop_
_symmetry_equiv_pos_site_id
_symmetry_equiv_pos_as_xyz
1 x,y,z
_cell_length_a                   11.6303(12)
_cell_length_b                   17.6259(18)
_cell_length_c                   14.8517(15)
_cell_angle_alpha                90
_cell_angle_beta                 91.363(2)
_cell_angle_gamma                90
_cell_volume                     3043.66
loop_
_atom_site_label
_atom_site_type_symbol
_atom_site_fract_x
_atom_site_fract_y
_atom_site_fract_z
Eu1 Eu 0.42116(2) 0.07114(2) 0.40796(2)
P1 P 0.16308(10) 0.08172(7) 0.24882(8)
O1 O 0.2508(3) 0.08086(17) 0.3239(2)
O6 O 0.0222(3) 0.4126(2) 0.0430(2)
O7 O 0.1013(3) 0.4538(2) 0.1701(3)
O8 O 0.5192(5) 0.1956(2) 0.3661(3)
O9 O 0.4699(3) 0.1275(2) 0.2543(2)
O10 O 0.5822(5) 0.2214(3) 0.2336(3)
O11 O 0.3135(3) 0.1780(2) 0.4725(3)
H2 H 0.2717 0.1619 0.5146
H3 H 0.3608 0.2106 0.4934
N1 N 0.5240(4) 0.1830(3) 0.2839(3)
C1 C 0.0243(4) 0.0593(3) 0.2912(3)
C6 C 0.0164(4) 0.0092(3) 0.3612(4)
C8 C 0.1947(4) 0.0165(3) 0.1597(3)
C9 C 0.3011(5) 0.0182(4) 0.1226(4)
H8 H 0.3556 0.0528 0.1440
C15 C 0.1499(4) 0.1750(3) 0.2015(3)
C16 C 0.1716(5) 0.2356(3) 0.2586(3)
H12 H 0.2019 0.2271 0.3162
C17 C 0.1483(5) 0.3086(3) 0.2303(3)
H13 H 0.1638 0.3493 0.2686
C18 C 0.1020(4) 0.3214(3) 0.1450(3)
C19 C 0.0831(4) 0.2616(3) 0.0870(3)
H14 H 0.0537 0.2704 0.0292
C20 C 0.1078(4) 0.1880(3) 0.1148(3)
H15 H 0.0961 0.1476 0.0753
C21 C 0.0727(4) 0.4009(3) 0.1176(3)
Eu3 Eu 0.07884(2) 0.57114(2) 0.09204(2)
O12 O 0.2935(3) 0.0158(2) 0.5090(2)
O13 O 0.6133(3) 0.0410(2) 0.3764(2)
O14 O 0.5222(3) 0.0874(2) 0.5430(2)
H7 H 0.0823 0.9847 0.3825
C10 C 0.3285(5) 0.9695(4) 0.0543(4)
H9 H 0.4006 0.9723 0.0288
C11 C 0.2491(5) 0.9159(3) 0.0230(4)
C12 C 0.1438(6) 0.9129(4) 0.0621(5)
H10 H 0.0905 0.8767 0.0428
C13 C 0.1156(5) 0.9625(4) 0.1295(4)
H11 H 0.0434 0.9600 0.1549
O15 O 0.3987(3) 0.9538(2) 0.3299(3)
C2 C 0.9239(4) 0.0939(4) 0.2587(4)
H4 H 0.9271 0.1279 0.2110
C3 C 0.8200(5) 0.0779(4) 0.2971(4)
H5 H 0.7530 0.0999 0.2737
C4 C 0.8148(4) 0.0297(3) 0.3700(3)
C7 C 0.7029(4) 0.0176(3) 0.4160(3)
Eu5 Eu 0.92116(2) 0.42886(2) 0.90796(2)
O2 O 0.7065(3) 0.9842(2) 0.4910(2)
C5 C 0.9131(4) 0.9945(3) 0.4005(4)
H6 H 0.9099 0.9603 0.4481
Eu4 Eu 0.57884(2) 0.92886(2) 0.59204(2)
P1_2 P 0.33692(10) 0.58172(7) 0.25118(8)
O1_2 O 0.2492(3) 0.58086(17) 0.1761(2)
O2_2 O 0.7935(3) 0.4842(2) 0.0090(2)
O3 O 0.8867(3) 0.5410(2) 0.1236(2)
O4 O 0.1226(4) 0.3725(3) 0.5854(3)
H1 H 0.1289 0.3773 0.6402
O5 O 0.2916(4) 0.3136(2) 0.5780(3)
O6_2 O 0.4778(3) 0.9126(2) 0.4570(2)
O9_2 O 0.0301(3) 0.6275(2) 0.2457(2)
O11_2 O 0.1865(3) 0.6780(2) 0.0275(3)
H3_2 H 0.1392 0.7106 0.0066
C1_2 C 0.4757(4) 0.5593(3) 0.2088(3)
C2_2 C 0.5761(4) 0.5939(4) 0.2413(4)
H4_2 H 0.5729 0.6279 0.2890
C3_2 C 0.6800(5) 0.5779(4) 0.2029(4)
H5_2 H 0.7470 0.5999 0.2263
C4_2 C 0.6852(4) 0.5297(3) 0.1300(3)
C5_2 C 0.5869(4) 0.4945(3) 0.0995(4)
H6_2 H 0.5901 0.4603 0.0519
C6_2 C 0.4836(4) 0.5092(3) 0.1388(4)
H7_2 H 0.4177 0.4847 0.1175
C7_2 C 0.7971(4) 0.5176(3) 0.0840(3)
C8_2 C 0.3053(4) 0.5165(3) 0.3403(3)
C9_2 C 0.1989(5) 0.5182(4) 0.3774(4)
H8_2 H 0.1444 0.5528 0.3560
C10_2 C 0.1715(5) 0.4695(4) 0.4457(4)
H9_2 H 0.0994 0.4723 0.4712
C11_2 C 0.2509(5) 0.4159(3) 0.4770(4)
C12_2 C 0.3562(6) 0.4129(4) 0.4379(5)
H10_2 H 0.4095 0.3767 0.4572
C13_2 C 0.3844(5) 0.4625(4) 0.3705(4)
H11_2 H 0.4566 0.4600 0.3451
C14 C 0.2254(5) 0.3618(3) 0.5514(4)
C15_2 C 0.3501(4) 0.6750(3) 0.2985(3)
C16_2 C 0.3284(5) 0.7356(3) 0.2414(3)
H12_2 H 0.2981 0.7271 0.1838
C17_2 C 0.3517(5) 0.8086(3) 0.2697(3)
H13_2 H 0.3362 0.8493 0.2314
C18_2 C 0.3980(4) 0.8214(3) 0.3550(3)
C19_2 C 0.4169(4) 0.7616(3) 0.4130(3)
H14_2 H 0.4463 0.7704 0.4708
C20_2 C 0.3922(4) 0.6880(3) 0.3852(3)
H15_2 H 0.4039 0.6476 0.4247
C21_2 C 0.4273(4) 0.9009(3) 0.3824(3)
H2_2 H 0.2283 0.6619 0.9854
O12_2 O 0.2065(3) 0.5158(2) 0.9910(2)
O8_2 O 0.9808(5) 0.6956(2) 0.1339(3)
O10_2 O 0.9178(5) 0.7214(3) 0.2664(3)
N1_2 N 0.9760(4) 0.6830(3) 0.2161(3)
O14_2 O 0.9778(3) 0.5874(2) 0.9570(2)
C5_3 C 0.0869(4) 0.0055(3) 0.5995(4)
H6_3 H 0.0901 0.0397 0.5519
O3_2 O 0.3867(3) 0.9590(2) 0.6236(2)
C2_3 C 0.0761(4) 0.9061(4) 0.7413(4)
H4_3 H 0.0729 0.8721 0.7890
C3_3 C 0.1800(5) 0.9221(4) 0.7029(4)
H5_3 H 0.2470 0.9001 0.7263
C4_3 C 0.1852(4) 0.9703(3) 0.6300(3)
C7_3 C 0.2971(4) 0.9824(3) 0.5840(3)
H7_3 H 0.9177 0.0153 0.6175
C10_3 C 0.6715(5) 0.0305(4) 0.9457(4)
H9_3 H 0.5994 0.0277 0.9712
C11_3 C 0.7509(5) 0.0841(3) 0.9770(4)
C12_3 C 0.8562(6) 0.0871(4) 0.9379(5)
H10_3 H 0.9095 0.1233 0.9572
C13_3 C 0.8844(5) 0.0375(4) 0.8705(4)
H11_3 H 0.9566 0.0400 0.8451
O15_2 O 0.6013(3) 0.0462(2) 0.6701(3)
P1_3 P 0.83692(10) 0.91828(7) 0.75118(8)
O1_3 O 0.7492(3) 0.91914(17) 0.6761(2)
O7_2 O 0.8987(3) 0.5462(2) 0.8299(3)
O8_3 O 0.4808(5) 0.8044(2) 0.6339(3)
O9_3 O 0.5301(3) 0.8725(2) 0.7457(2)
O10_3 O 0.4178(5) 0.7786(3) 0.7664(3)
O11_3 O 0.6865(3) 0.8220(2) 0.5275(3)
H2_3 H 0.7283 0.8381 0.4854
H3_3 H 0.6392 0.7894 0.5066
N1_3 N 0.4760(4) 0.8170(3) 0.7161(3)
C1_3 C 0.9757(4) 0.9407(3) 0.7088(3)
C6_3 C 0.9836(4) 0.9908(3) 0.6388(4)
C8_3 C 0.8053(4) 0.9835(3) 0.8403(3)
C9_3 C 0.6989(5) 0.9818(4) 0.8774(4)
H8_3 H 0.6444 0.9472 0.8560
C15_3 C 0.8501(4) 0.8250(3) 0.7985(3)
C16_3 C 0.8284(5) 0.7644(3) 0.7414(3)
H12_3 H 0.7981 0.7729 0.6838
C17_3 C 0.8517(5) 0.6914(3) 0.7697(3)
H13_3 H 0.8362 0.6507 0.7314
C18_3 C 0.8980(4) 0.6786(3) 0.8550(3)
C19_3 C 0.9169(4) 0.7384(3) 0.9130(3)
H14_3 H 0.9463 0.7296 0.9708
C20_3 C 0.8922(4) 0.8120(3) 0.8852(3)
H15_3 H 0.9039 0.8524 0.9247
C21_3 C 0.9273(4) 0.5991(3) 0.8824(3)
O8_4 O 0.0192(5) 0.3044(2) 0.8661(3)
O10_4 O 0.0822(5) 0.2786(3) 0.7336(3)
N1_4 N 0.0240(4) 0.3170(3) 0.7839(3)
O13_2 O 0.1133(3) 0.4590(2) 0.8764(2)
H2_4 H 0.7717 0.3381 0.0146
P1_4 P 0.66308(10) 0.41828(7) 0.74882(8)
O1_4 O 0.7508(3) 0.41914(17) 0.8239(2)
O4_2 O 0.8774(4) 0.6275(3) 0.4146(3)
H1_2 H 0.8711 0.6227 0.3598
O5_2 O 0.7084(4) 0.6864(2) 0.4220(3)
O9_4 O 0.9699(3) 0.3725(2) 0.7543(2)
O11_4 O 0.8135(3) 0.3220(2) 0.9725(3)
H3_4 H 0.8608 0.2894 0.9934
C1_4 C 0.5243(4) 0.4407(3) 0.7912(3)
C2_4 C 0.4239(4) 0.4061(4) 0.7587(4)
H4_4 H 0.4271 0.3721 0.7110
C3_4 C 0.3200(5) 0.4221(4) 0.7971(4)
H5_4 H 0.2530 0.4001 0.7737
C4_4 C 0.3148(4) 0.4703(3) 0.8700(3)
C5_4 C 0.4131(4) 0.5055(3) 0.9005(4)
H6_4 H 0.4099 0.5397 0.9481
C6_4 C 0.5164(4) 0.4908(3) 0.8612(4)
H7_4 H 0.5823 0.5153 0.8825
C7_4 C 0.2029(4) 0.4824(3) 0.9160(3)
C8_4 C 0.6947(4) 0.4835(3) 0.6597(3)
C9_4 C 0.8011(5) 0.4818(4) 0.6226(4)
H8_4 H 0.8556 0.4472 0.6440
C10_4 C 0.8285(5) 0.5305(4) 0.5543(4)
H9_4 H 0.9006 0.5277 0.5288
C11_4 C 0.7491(5) 0.5841(3) 0.5230(4)
C12_4 C 0.6438(6) 0.5871(4) 0.5621(5)
H10_4 H 0.5905 0.6233 0.5428
C13_4 C 0.6156(5) 0.5375(4) 0.6295(4)
H11_4 H 0.5434 0.5400 0.6549
C14_2 C 0.7746(5) 0.6382(3) 0.4486(4)
C15_4 C 0.6499(4) 0.3250(3) 0.7015(3)
C16_4 C 0.6716(5) 0.2644(3) 0.7586(3)
H12_4 H 0.7019 0.2729 0.8162
C17_4 C 0.6483(5) 0.1914(3) 0.7303(3)
H13_4 H 0.6638 0.1507 0.7686
C18_4 C 0.6020(4) 0.1786(3) 0.6450(3)
C19_4 C 0.5831(4) 0.2384(3) 0.5870(3)
H14_4 H 0.5537 0.2296 0.5292
C20_4 C 0.6078(4) 0.3120(3) 0.6148(3)
H15_4 H 0.5961 0.3524 0.5753
C21_4 C 0.5727(4) 0.0991(3) 0.6176(3)
O4_3 O 0.3774(4) 0.8725(3) 0.9146(3)
H1_3 H 0.3711 0.8773 0.8598
O5_3 O 0.2084(4) 0.8136(2) 0.9220(3)
C14_3 C 0.2746(5) 0.8618(3) 0.9486(4)
O4_4 O 0.6226(4) 0.1275(3) 0.0854(3)
H1_4 H 0.6289 0.1227 0.1402
O5_4 O 0.7916(4) 0.1864(2) 0.0780(3)
C14_4 C 0.7254(5) 0.1382(3) 0.0514(4)
loop_
_geom_bond_atom_site_label_1
_geom_bond_atom_site_label_2
_geom_bond_site_symmetry_1
_geom_bond_site_symmetry_2
Eu1 O1 1_555 1_555
P1 O1 1_555 1_555
O6 C21 1_555 1_555
O7 C21 1_555 1_555
O8 Eu1 1_555 1_555
O9 Eu1 1_555 1_555
O10 N1 1_555 1_555
O11 Eu1 1_555 1_555
H2 O11 1_555 1_555
H3 O11 1_555 1_555
N1 O8 1_555 1_555
C1 P1 1_555 1_555
C6 C1 1_555 1_555
C8 P1 1_555 1_555
C9 C8 1_555 1_555
H8 C9 1_555 1_555
C15 P1 1_555 1_555
C16 C15 1_555 1_555
H12 C16 1_555 1_555
C17 C16 1_555 1_555
H13 C17 1_555 1_555
C18 C17 1_555 1_555
C19 C18 1_555 1_555
H14 C19 1_555 1_555
C20 C15 1_555 1_555
H15 C20 1_555 1_555
C21 C18 1_555 1_555
Eu3 O7 1_555 1_555
O12 Eu1 1_555 1_555
O13 Eu1 1_555 1_555
O14 Eu1 1_555 1_555
O9 N1 1_555 1_555
C19 C20 1_555 1_555
H9 C10 1_555 1_555
C11 C10 1_555 1_555
C12 C11 1_555 1_555
H10 C12 1_555 1_555
H11 C13 1_555 1_555
C12 C13 1_555 1_555
O13 C7 1_555 1_555
H4 C2 1_555 1_555
C3 C2 1_555 1_555
H5 C3 1_555 1_555
C4 C3 1_555 1_555
C7 C4 1_555 1_555
H6 C5 1_555 1_555
Eu4 O2 1_555 1_555
Eu3 O1_2 1_555 1_555
P1_2 O1_2 1_555 1_555
O2_2 C7_2 1_555 1_555
O3 C7_2 1_555 1_555
O4 H1 1_555 1_555
O5 C14 1_555 1_555
O6_2 C21_2 1_555 1_555
O15 C21_2 1_555 1_555
O9_2 Eu3 1_555 1_555
O11_2 Eu3 1_555 1_555
H3_2 O11_2 1_555 1_555
C1_2 P1_2 1_555 1_555
C2_2 C1_2 1_555 1_555
H4_2 C2_2 1_555 1_555
C3_2 C2_2 1_555 1_555
H5_2 C3_2 1_555 1_555
C4_2 C3_2 1_555 1_555
C5_2 C4_2 1_555 1_555
H6_2 C5_2 1_555 1_555
C6_2 C1_2 1_555 1_555
H7_2 C6_2 1_555 1_555
C7_2 C4_2 1_555 1_555
C8_2 P1_2 1_555 1_555
C9_2 C8_2 1_555 1_555
H8_2 C9_2 1_555 1_555
C10_2 C9_2 1_555 1_555
H9_2 C10_2 1_555 1_555
C11_2 C10_2 1_555 1_555
C12_2 C11_2 1_555 1_555
H10_2 C12_2 1_555 1_555
C13_2 C8_2 1_555 1_555
H11_2 C13_2 1_555 1_555
C14 O4 1_555 1_555
C15_2 P1_2 1_555 1_555
C16_2 C15_2 1_555 1_555
H12_2 C16_2 1_555 1_555
C17_2 C16_2 1_555 1_555
H13_2 C17_2 1_555 1_555
C18_2 C17_2 1_555 1_555
C19_2 C18_2 1_555 1_555
H14_2 C19_2 1_555 1_555
C20_2 C15_2 1_555 1_555
H15_2 C20_2 1_555 1_555
C21_2 C18_2 1_555 1_555
Eu4 O6_2 1_555 1_555
C5_2 C6_2 1_555 1_555
C11_2 C14 1_555 1_555
C12_2 C13_2 1_555 1_555
C19_2 C20_2 1_555 1_555
O10_2 N1_2 1_555 1_555
N1_2 O8_2 1_555 1_555
H6_3 C5_3 1_555 1_555
O3_2 C7_3 1_555 1_555
H4_3 C2_3 1_555 1_555
C3_3 C2_3 1_555 1_555
H5_3 C3_3 1_555 1_555
C4_3 C3_3 1_555 1_555
C7_3 C4_3 1_555 1_555
Eu4 O3_2 1_555 1_555
H9_3 C10_3 1_555 1_555
C11_3 C10_3 1_555 1_555
C12_3 C11_3 1_555 1_555
H10_3 C12_3 1_555 1_555
H11_3 C13_3 1_555 1_555
C12_3 C13_3 1_555 1_555
Eu4 O1_3 1_555 1_555
P1_3 O1_3 1_555 1_555
O14_2 C21_3 1_555 1_555
O7_2 C21_3 1_555 1_555
O8_3 Eu4 1_555 1_555
O9_3 Eu4 1_555 1_555
O10_3 N1_3 1_555 1_555
O11_3 Eu4 1_555 1_555
H2_3 O11_3 1_555 1_555
H3_3 O11_3 1_555 1_555
N1_3 O8_3 1_555 1_555
C1_3 P1_3 1_555 1_555
C6_3 C1_3 1_555 1_555
C8_3 P1_3 1_555 1_555
C9_3 C8_3 1_555 1_555
H8_3 C9_3 1_555 1_555
C15_3 P1_3 1_555 1_555
C16_3 C15_3 1_555 1_555
H12_3 C16_3 1_555 1_555
C17_3 C16_3 1_555 1_555
H13_3 C17_3 1_555 1_555
C18_3 C17_3 1_555 1_555
C19_3 C18_3 1_555 1_555
H14_3 C19_3 1_555 1_555
C20_3 C15_3 1_555 1_555
H15_3 C20_3 1_555 1_555
C21_3 C18_3 1_555 1_555
Eu5 O7_2 1_555 1_555
O9_3 N1_3 1_555 1_555
C19_3 C20_3 1_555 1_555
O10_4 N1_4 1_555 1_555
N1_4 O8_4 1_555 1_555
Eu5 O1_4 1_555 1_555
P1_4 O1_4 1_555 1_555
O12_2 C7_4 1_555 1_555
O13_2 C7_4 1_555 1_555
O4_2 H1_2 1_555 1_555
O5_2 C14_2 1_555 1_555
O14 C21_4 1_555 1_555
O15_2 C21_4 1_555 1_555
O9_4 Eu5 1_555 1_555
O11_4 Eu5 1_555 1_555
H3_4 O11_4 1_555 1_555
C1_4 P1_4 1_555 1_555
C2_4 C1_4 1_555 1_555
H4_4 C2_4 1_555 1_555
C3_4 C2_4 1_555 1_555
H5_4 C3_4 1_555 1_555
C4_4 C3_4 1_555 1_555
C5_4 C4_4 1_555 1_555
H6_4 C5_4 1_555 1_555
C6_4 C1_4 1_555 1_555
H7_4 C6_4 1_555 1_555
C7_4 C4_4 1_555 1_555
C8_4 P1_4 1_555 1_555
C9_4 C8_4 1_555 1_555
H8_4 C9_4 1_555 1_555
C10_4 C9_4 1_555 1_555
H9_4 C10_4 1_555 1_555
C11_4 C10_4 1_555 1_555
C12_4 C11_4 1_555 1_555
H10_4 C12_4 1_555 1_555
C13_4 C8_4 1_555 1_555
H11_4 C13_4 1_555 1_555
C14_2 O4_2 1_555 1_555
C15_4 P1_4 1_555 1_555
C16_4 C15_4 1_555 1_555
H12_4 C16_4 1_555 1_555
C17_4 C16_4 1_555 1_555
H13_4 C17_4 1_555 1_555
C18_4 C17_4 1_555 1_555
C19_4 C18_4 1_555 1_555
H14_4 C19_4 1_555 1_555
C20_4 C15_4 1_555 1_555
H15_4 C20_4 1_555 1_555
C21_4 C18_4 1_555 1_555
C5_4 C6_4 1_555 1_555
C11_4 C14_2 1_555 1_555
C12_4 C13_4 1_555 1_555
C19_4 C20_4 1_555 1_555
O4_3 H1_3 1_555 1_555
O5_3 C14_3 1_555 1_555
C14_3 O4_3 1_555 1_555
O4_4 H1_4 1_555 1_555
O5_4 C14_4 1_555 1_555
C14_4 O4_4 1_555 1_555

#END
