
###############################################################################
#
# This file contains modified crystal structure data generated from the
# MOF subset of the Cambridge Structural Database (CSD) v543 
# hosted by the Cambridge Crystallographic Data Centre (CCDC).
#
# This work is licensed under the Creative Commons
# Attribution-NonCommercial-ShareAlike 4.0 International License.
# To view a copy of this license, visit
# http://creativecommons.org/licenses/by-nc-sa/4.0/
# or send a letter to
# Creative Commons, PO Box 1866, Mountain View, CA 94042, USA.
#
# CIF created using the CSD Python API on 29 September 2022
# The structure has been converted into the P1 space group
# The structure has a 3D framework
# The original CSD entry FEWTAF is in the trigonal crystal system
# The original CSD entry FEWTAF is in a Sohncke space group
# The framework has been calculated to contain at least 10.0% void space
# The void calculation uses a probe of radius 1.32A, grid spacing 0.4
#
###############################################################################

data_FEWTAF
_chemical_formula_moiety         '(C27 H11 Fe4 O16)n'
_symmetry_cell_setting           triclinic
_symmetry_space_group_name_H-M   'P 1'
_symmetry_Int_Tables_number      1
_space_group_name_Hall           'P 1'
loop_
_symmetry_equiv_pos_site_id
_symmetry_equiv_pos_as_xyz
1 x,y,z
_cell_length_a                   8.7096(7)
_cell_length_b                   8.7096(7)
_cell_length_c                   10.8779(8)
_cell_angle_alpha                90
_cell_angle_beta                 90
_cell_angle_gamma                120
_cell_volume                     714.615
loop_
_atom_site_label
_atom_site_type_symbol
_atom_site_fract_x
_atom_site_fract_y
_atom_site_fract_z
O6 O -0.0000(3) 0.1126(2) 0.166667
O8 O 0.1923(2) 0.1669(2) 0.39860(15)
Fe4 Fe -0.000000 0.947030(50) 0.666666
O9 O 0.0254(3) 0.8331(2) 0.26807(15)
Fe1 Fe 0.94703(5) 0.000000 0.333333
O6_2 O 1.0000(3) 0.1126(2) 0.166667
O7 O 0.8854(4) 0.1948(3) 0.36434(16)
Fe1_2 Fe 0.94703(5) 1.000000 0.333333
O1 O 0.8874(2) 0.8874(2) 0.500000
C1 C 0.7318(4) 0.7318(4) 0.500000
C2 C 0.6260(3) 0.6840(4) 0.3955(2)
O2 O 0.6906(2) 0.8052(3) 0.30233(16)
H1 H 0.609801 0.781169 0.250794
C3 C 0.4673(4) 0.5228(4) 0.3939(2)
H2 H 0.394624 0.485129 0.322585
C4 C 0.4177(4) 0.4177(4) 0.500000
C5 C 0.2477(4) 0.2477(4) 0.500000
C6 C 0.6840(4) 0.6260(3) 0.6045(2)
O4 O 0.8052(3) 0.6906(2) 0.69767(16)
H3 H 0.781169 0.609801 0.749206
C7 C 0.5228(4) 0.4673(4) 0.6061(2)
H4 H 0.485129 0.394624 0.677415
O5 O 0.1669(2) 0.1923(2) 0.60140(15)
Fe4_2 Fe 1.000000 0.947030(50) 0.666666
Fe3 Fe 0.052970(50) 0.052970(50) -0.000000
Fe3_2 Fe 0.052970(50) 0.052970(50) 1.000000
O4_2 O 0.3094(2) 0.1146(4) 0.03100(16)
H3_2 H 0.390199 0.171368 0.082539
H4_2 H 0.605376 0.090505 0.010748
O1_2 O 0.1126(2) 0.0000(3) 0.833333
C1_2 C 0.2682(4) 0.0000(6) 0.833333
C4_2 C 0.5823(4) -0.0000(6) 0.833333
C5_2 C 0.7523(4) -0.0000(6) 0.833333
O3 O 0.8331(2) 0.0254(3) 0.73193(15)
C6_2 C 0.3740(3) 0.0580(5) 0.9378(2)
C7_2 C 0.5327(4) 0.0555(6) 0.9394(2)
O1_3 O 0.1126(2) 1.0000(3) 0.833333
C1_3 C 0.2682(4) 1.0000(6) 0.833333
C2_2 C 0.3160(4) 0.9420(5) 0.7288(2)
O2_2 O 0.1948(3) 0.8854(4) 0.63566(16)
H1_2 H 0.218831 0.828632 0.584127
C3_2 C 0.4772(4) 0.9445(6) 0.7272(2)
H2_2 H 0.514871 0.909495 0.655918
C4_3 C 0.5823(4) 1.0000(6) 0.833333
C5_3 C 0.7523(4) 1.0000(6) 0.833333
O5_2 O 0.8077(2) 0.9746(3) 0.93473(15)
C1_4 C 0.0000(6) 0.2682(4) 0.166667
C2_3 C 0.0580(5) 0.3740(3) 0.0622(2)
C3_3 C 0.0555(6) 0.5327(4) 0.0606(2)
C4_4 C 0.0000(6) 0.5823(4) 0.166667
C5_4 C 0.0000(6) 0.7523(4) 0.166667
O2_3 O 0.1146(4) 0.3094(2) 0.96900(16)
H1_3 H 0.171368 0.390199 0.917461
H2_3 H 0.090505 0.605376 0.989252
C1_5 C 1.0000(6) 0.2682(4) 0.166667
C4_5 C 1.0000(6) 0.5823(4) 0.166667
C5_5 C 1.0000(6) 0.7523(4) 0.166667
O3_2 O 0.9746(3) 0.8077(2) 0.06527(15)
C6_3 C 0.9420(5) 0.3160(4) 0.2712(2)
H3_3 H 0.828632 0.218831 0.415873
C7_3 C 0.9445(6) 0.4772(4) 0.2728(2)
H4_3 H 0.909495 0.514871 0.344082
loop_
_geom_bond_atom_site_label_1
_geom_bond_atom_site_label_2
_geom_bond_site_symmetry_1
_geom_bond_site_symmetry_2
O6_2 Fe1 1_555 1_555
O7 Fe1 1_555 1_555
Fe1_2 O1 1_555 1_555
O1 C1 1_555 1_555
C1 C2 1_555 1_555
C2 O2 1_555 1_555
O2 Fe1_2 1_555 1_555
H1 O2 1_555 1_555
C3 C2 1_555 1_555
H2 C3 1_555 1_555
C4 C3 1_555 1_555
C5 C4 1_555 1_555
O8 C5 1_555 1_555
C6 C1 1_555 1_555
O4 C6 1_555 1_555
H3 O4 1_555 1_555
C7 C4 1_555 1_555
H4 C7 1_555 1_555
O5 C5 1_555 1_555
Fe4_2 O1 1_555 1_555
C6 C7 1_555 1_555
O4 Fe4_2 1_555 1_555
H3_2 O4_2 1_555 1_555
O4_2 Fe3 1_555 1_555
O1_2 C1_2 1_555 1_555
C5_2 C4_2 1_555 1_555
O3 C5_2 1_555 1_555
C6_2 C1_2 1_555 1_555
C7_2 C4_2 1_555 1_555
Fe3_2 O1_2 1_555 1_555
C6_2 C7_2 1_555 1_555
Fe4 O1_3 1_555 1_555
O1_3 C1_3 1_555 1_555
C1_3 C2_2 1_555 1_555
C2_2 O2_2 1_555 1_555
O2_2 Fe4 1_555 1_555
H1_2 O2_2 1_555 1_555
C3_2 C2_2 1_555 1_555
H2_2 C3_2 1_555 1_555
C4_3 C3_2 1_555 1_555
C5_3 C4_3 1_555 1_555
O5_2 C5_3 1_555 1_555
Fe3 O6 1_555 1_555
O6 C1_4 1_555 1_555
C1_4 C2_3 1_555 1_555
C3_3 C2_3 1_555 1_555
C4_4 C3_3 1_555 1_555
C5_4 C4_4 1_555 1_555
O9 C5_4 1_555 1_555
O2_3 Fe3_2 1_555 1_555
H1_3 O2_3 1_555 1_555
O6_2 C1_5 1_555 1_555
C5_5 C4_5 1_555 1_555
O3_2 C5_5 1_555 1_555
C6_3 C1_5 1_555 1_555
O7 C6_3 1_555 1_555
H3_3 O7 1_555 1_555
C7_3 C4_5 1_555 1_555
H4_3 C7_3 1_555 1_555
C6_3 C7_3 1_555 1_555

#END
