
###############################################################################
#
# This file contains modified crystal structure data generated from the
# MOF subset of the Cambridge Structural Database (CSD) v543 
# hosted by the Cambridge Crystallographic Data Centre (CCDC).
#
# This work is licensed under the Creative Commons
# Attribution-NonCommercial-ShareAlike 4.0 International License.
# To view a copy of this license, visit
# http://creativecommons.org/licenses/by-nc-sa/4.0/
# or send a letter to
# Creative Commons, PO Box 1866, Mountain View, CA 94042, USA.
#
# CIF created using the CSD Python API on 29 September 2022
# The structure has been converted into the P1 space group
# The structure has a 3D framework
# The original CSD entry FEWWOV is in the trigonal crystal system
# The framework has been calculated to contain at least 10.0% void space
# The void calculation uses a probe of radius 1.32A, grid spacing 0.4
#
###############################################################################

data_FEWWOV
_chemical_formula_moiety         '(C156 H96 Co6 N60 S12)n'
_symmetry_cell_setting           triclinic
_symmetry_space_group_name_H-M   'P 1'
_symmetry_Int_Tables_number      1
_space_group_name_Hall           'P 1'
loop_
_symmetry_equiv_pos_site_id
_symmetry_equiv_pos_as_xyz
1 x,y,z
_cell_length_a                   19.652(3)
_cell_length_b                   19.652(3)
_cell_length_c                   19.074(6)
_cell_angle_alpha                90
_cell_angle_beta                 90
_cell_angle_gamma                120
_cell_volume                     6379.49
loop_
_atom_site_label
_atom_site_type_symbol
_atom_site_fract_x
_atom_site_fract_y
_atom_site_fract_z
H3 H 0.1842 0.0052 0.4491
N11 N 0.2100(6) 0.2797(8) 0.4073(10)
C27 C 0.1752(8) 0.3217(11) 0.4270(15)
H17 H 0.2071 0.3769 0.4332
C28 C 0.0973(9) 0.2880(13) 0.4382(19)
H18 H 0.0742 0.3197 0.4464
C29 C 0.0491(9) 0.2039(13) 0.4376(17)
C30 C 0.0835(8) 0.1611(11) 0.4202(12)
C31 C 0.1660(8) 0.2008(11) 0.4046(12)
H20 H 0.1899 0.1708 0.3922
N12 N 0.0822(7) 0.0396(10) 0.4109(10)
C32 C 0.0392(7) 0.0764(10) 0.4153(11)
Co4 Co 0.33556(9) 0.33599(13) 0.3986(3)
Co1 Co 0.00043(9) 0.66444(9) 0.3986(3)
N1 N 0.0921(7) 0.6610(8) 0.3477(9)
C1 C 0.1342(8) 0.6595(10) 0.3065(12)
S1 S 0.1980(4) 0.6597(6) 0.2546(5)
N3 N 0.0697(6) 0.7900(6) 0.4073(10)
C3 C 0.1465(7) 0.8248(8) 0.4270(15)
H1 H 0.1698 0.7929 0.4332
C4 C 0.1907(10) 0.9027(9) 0.4382(19)
H2 H 0.2455 0.9258 0.4464
C5 C 0.1548(9) 0.9509(9) 0.4376(17)
C6 C 0.0776(7) 0.9165(8) 0.4202(12)
C7 C 0.0348(8) 0.8340(8) 0.4046(12)
N4 N 0.0429(8) 0.3929(11) 0.0031(9)
C8 C 0.1051(8) 0.4637(12) 0.0121(11)
C9 C 0.1268(8) 0.5003(12) 0.0737(13)
H6 H 0.1754 0.5482 0.0778
C10 C 0.0804(12) 0.4698(16) 0.1297(14)
H7 H 0.0959 0.4956 0.1737
C11 C 0.0099(8) 0.4006(12) 0.1232(12)
C19 C 0.0372(7) 0.9608(7) 0.4153(11)
C58 C 0.0009(10) 0.7168(17) 0.2399(14)
H36 H 0.0565 0.7430 0.2428
N35 N 0.0429(8) 0.6500(14) 0.5031(9)
H5 H 0.1361 0.4900 0.9722
Co8 Co 0.00043(9) 0.33599(13) 0.8986(3)
H19 H 0.9948 0.1790 0.4491
H24 H 0.8292 0.0191 0.3922
N14 N 0.9604(10) 0.0426(7) 0.4109(10)
N2 N 0.9098(7) 0.6696(7) 0.4493(9)
C2 C 0.8493(7) 0.6650(8) 0.4651(11)
S2 S 0.7638(3) 0.6522(3) 0.4847(4)
H4 H 0.9809 0.8101 0.3922
C12 C 0.9962(9) 0.3618(12) 0.0580(11)
H8 H 0.9513 0.3110 0.0534
N5 N 0.9246(7) 0.5349(6) 0.3945(9)
C13 C 0.8665(10) 0.4963(9) 0.4448(15)
H9 H 0.8589 0.5229 0.4830
C14 C 0.8205(13) 0.4155(10) 0.4347(15)
H10 H 0.7790 0.3892 0.4676
C15 C 0.8254(11) 0.3698(9) 0.3869(14)
H11 H 0.7923 0.3143 0.3867
C16 C 0.8838(11) 0.4104(9) 0.3361(14)
C17 C 0.9305(9) 0.4915(8) 0.3390(12)
H12 H 0.9673 0.5182 0.3025
N6 N 0.8502(11) 0.2898(7) 0.2865(12)
C18 C 0.8955(11) 0.3676(8) 0.2803(14)
N7 N 0.9574(7) 0.9178(7) 0.4109(10)
N8 N 0.9063(8) 0.2814(11) 0.1733(9)
N9 N 0.9500(9) 0.4024(7) 0.2336(10)
C20 C 0.9518(9) 0.3613(13) 0.1824(11)
C21 C 0.8037(16) 0.1621(9) 0.2323(13)
C22 C 0.7624(14) 0.1259(9) 0.2850(15)
H13 H 0.7609 0.1595 0.3200
C23 C 0.8594(15) 0.2474(10) 0.2295(14)
C24 C 0.7551(16) 0.0347(10) 0.1800(14)
H14 H 0.7465 0.0011 0.1411
C25 C 0.8093(22) 0.1196(14) 0.1684(16)
H15 H 0.8414 0.1429 0.1284
N10 N 0.7200(9) 0.0487(6) 0.3012(9)
N13 N 0.7203(8) 0.9303(6) 0.4073(10)
C33 C 0.6783(11) 0.8535(7) 0.4270(15)
H21 H 0.6231 0.8302 0.4332
C34 C 0.7120(13) 0.8093(10) 0.4382(19)
H22 H 0.6803 0.7545 0.4464
C35 C 0.7961(13) 0.8452(9) 0.4376(17)
H23 H 0.8210 0.8158 0.4491
C36 C 0.8389(11) 0.9224(7) 0.4202(12)
C37 C 0.7992(11) 0.9652(8) 0.4046(12)
C38 C 0.9236(10) 0.9628(7) 0.4153(11)
N15 N 0.3390(8) 0.4311(11) 0.3477(9)
C39 C 0.3405(10) 0.4747(13) 0.3065(12)
S3 S 0.3403(6) 0.5383(7) 0.2546(5)
N16 N 0.3304(7) 0.2402(10) 0.4493(9)
C40 C 0.3350(8) 0.1843(11) 0.4651(11)
S4 S 0.3478(3) 0.1116(4) 0.4847(4)
N17 N 0.6071(11) 0.6500(14) 0.0031(9)
C41 C 0.5363(12) 0.6414(14) 0.0121(11)
C42 C 0.4997(12) 0.6265(14) 0.0737(13)
H26 H 0.4518 0.6272 0.0778
C43 C 0.5302(16) 0.6106(20) 0.1297(14)
H27 H 0.5044 0.6003 0.1737
C44 C 0.5994(12) 0.6093(14) 0.1232(12)
C45 C 0.6382(12) 0.6344(15) 0.0580(11)
H28 H 0.6890 0.6403 0.0534
N18 N 0.4651(6) 0.3897(9) 0.3945(9)
C46 C 0.5037(9) 0.3702(13) 0.4448(15)
H29 H 0.4771 0.3360 0.4830
C47 C 0.5845(10) 0.4050(16) 0.4347(15)
H30 H 0.6108 0.3898 0.4676
C48 C 0.6302(9) 0.4556(14) 0.3869(14)
H31 H 0.6857 0.4780 0.3867
C49 C 0.5896(9) 0.4734(14) 0.3361(14)
C50 C 0.5085(8) 0.4390(12) 0.3390(12)
H32 H 0.4818 0.4491 0.3025
N19 N 0.7102(7) 0.5604(13) 0.2865(12)
C51 C 0.6324(8) 0.5279(14) 0.2803(14)
N20 N 0.7186(11) 0.6249(14) 0.1733(9)
N21 N 0.5976(7) 0.5476(11) 0.2336(10)
C52 C 0.6387(13) 0.5905(16) 0.1824(11)
C53 C 0.8379(9) 0.6416(18) 0.2323(13)
C54 C 0.8741(9) 0.6365(17) 0.2850(15)
H33 H 0.8405 0.6014 0.3200
C55 C 0.7526(10) 0.6120(18) 0.2295(14)
C56 C 0.9653(10) 0.7204(19) 0.1800(14)
H34 H 0.9989 0.7454 0.1411
C57 C 0.8804(14) 0.6897(26) 0.1684(16)
H35 H 0.8571 0.6985 0.1284
N22 N 0.9513(6) 0.6713(11) 0.3012(9)
N24 N 0.7598(10) 0.0902(7) 0.4493(9)
C60 C 0.8157(11) 0.1507(7) 0.4651(11)
S6 S 0.8884(4) 0.2362(3) 0.4847(4)
C65 C 0.3656(15) 0.0038(9) 0.0580(11)
H40 H 0.3597 0.0487 0.0534
N26 N 0.6103(9) 0.0754(7) 0.3945(9)
C66 C 0.6298(13) 0.1335(10) 0.4448(15)
H41 H 0.6640 0.1411 0.4830
C67 C 0.5950(16) 0.1795(13) 0.4347(15)
H42 H 0.6102 0.2210 0.4676
C68 C 0.5444(14) 0.1746(11) 0.3869(14)
H43 H 0.5220 0.2077 0.3867
C69 C 0.5266(14) 0.1162(11) 0.3361(14)
C70 C 0.5610(12) 0.0695(9) 0.3390(12)
H44 H 0.5509 0.0327 0.3025
N27 N 0.4396(13) 0.1498(11) 0.2865(12)
C71 C 0.4721(14) 0.1045(11) 0.2803(14)
N28 N 0.3751(14) 0.0937(8) 0.1733(9)
N29 N 0.4524(11) 0.0500(9) 0.2336(10)
C72 C 0.4095(16) 0.0482(9) 0.1824(11)
C73 C 0.3584(18) 0.1963(16) 0.2323(13)
C74 C 0.3635(17) 0.2376(14) 0.2850(15)
H45 H 0.3986 0.2391 0.3200
C75 C 0.3880(18) 0.1406(15) 0.2295(14)
C76 C 0.2796(19) 0.2449(16) 0.1800(14)
H46 H 0.2546 0.2535 0.1411
C77 C 0.3103(26) 0.1907(22) 0.1684(16)
H47 H 0.3015 0.1586 0.1284
N30 N 0.3287(11) 0.2800(9) 0.3012(9)
C78 C 0.2832(17) 0.2841(14) 0.2399(14)
H48 H 0.2570 0.3135 0.2428
Co5 Co 0.66401(13) 0.99957(9) 0.3986(3)
N34 N 0.3500(14) 0.3929(11) 0.5031(9)
H25 H 0.5100 0.6461 0.9722
Co7 Co 0.66401(13) 0.66444(9) 0.8986(3)
C26 C 0.7159(14) 0.9991(10) 0.2399(14)
H16 H 0.6865 0.9435 0.2428
N23 N 0.5689(11) 0.9079(7) 0.3477(9)
C59 C 0.5253(13) 0.8658(8) 0.3065(12)
S5 S 0.4617(7) 0.8020(4) 0.2546(5)
N25 N 0.3500(14) 0.9571(8) 0.0031(9)
C61 C 0.3586(14) 0.8949(8) 0.0121(11)
C62 C 0.3735(14) 0.8732(8) 0.0737(13)
H38 H 0.3728 0.8246 0.0778
C63 C 0.3894(20) 0.9196(12) 0.1297(14)
H39 H 0.3997 0.9041 0.1737
C64 C 0.3907(14) 0.9901(8) 0.1232(12)
N33 N 0.6071(11) 0.9571(8) 0.5031(9)
H37 H 0.3539 0.8639 0.9722
Co6 Co 0.33556(9) 0.99957(9) 0.8986(3)
C26_2 C 0.0009(10) 0.2841(14) 0.7399(14)
H16_2 H 0.0565 0.3135 0.7428
N23_2 N 0.0921(7) 0.4311(11) 0.8477(9)
C59_2 C 0.1342(8) 0.4747(13) 0.8065(12)
S5_2 S 0.1980(4) 0.5383(7) 0.7546(5)
C61_2 C 0.1051(8) 0.6414(14) 0.5121(11)
H37_2 H 0.1361 0.6461 0.4722
C62_2 C 0.1268(8) 0.6265(14) 0.5737(13)
H38_2 H 0.1754 0.6272 0.5778
C63_2 C 0.0804(12) 0.6106(20) 0.6297(14)
H39_2 H 0.0959 0.6003 0.6737
C64_2 C 0.0099(8) 0.6093(14) 0.6232(12)
N32 N 0.0697(6) 0.2797(8) 0.9073(10)
N2_2 N 0.3304(7) 0.0902(7) 0.9493(9)
C2_2 C 0.3350(8) 0.1507(7) 0.9651(11)
S2_2 S 0.3478(3) 0.2362(3) 0.9847(4)
H4_2 H 0.1899 0.0191 0.8922
C12_2 C 0.6382(12) 0.0038(9) 0.5580(11)
H8_2 H 0.6890 0.0487 0.5534
N5_2 N 0.4651(6) 0.0754(7) 0.8945(9)
C13_2 C 0.5037(9) 0.1335(10) 0.9448(15)
H9_2 H 0.4771 0.1411 0.9830
C14_2 C 0.5845(10) 0.1795(13) 0.9347(15)
H10_2 H 0.6108 0.2210 0.9676
C15_2 C 0.6302(9) 0.1746(11) 0.8869(14)
H11_2 H 0.6857 0.2077 0.8867
C16_2 C 0.5896(9) 0.1162(11) 0.8361(14)
C17_2 C 0.5085(8) 0.0695(9) 0.8390(12)
H12_2 H 0.4818 0.0327 0.8025
N6_2 N 0.7102(7) 0.1498(11) 0.7865(12)
C18_2 C 0.6324(8) 0.1045(11) 0.7803(14)
N7_2 N 0.0822(7) 0.0426(7) 0.9109(10)
N8_2 N 0.7186(11) 0.0937(8) 0.6733(9)
N9_2 N 0.5976(7) 0.0500(9) 0.7336(10)
C20_2 C 0.6387(13) 0.0482(9) 0.6824(11)
C21_2 C 0.8379(9) 0.1963(16) 0.7323(13)
C22_2 C 0.8741(9) 0.2376(14) 0.7850(15)
H13_2 H 0.8405 0.2391 0.8200
C23_2 C 0.7526(10) 0.1406(15) 0.7295(14)
C24_2 C 0.9653(10) 0.2449(16) 0.6800(14)
H14_2 H 0.9989 0.2535 0.6411
C25_2 C 0.8804(14) 0.1907(22) 0.6684(16)
H15_2 H 0.8571 0.1586 0.6284
N10_2 N 0.9513(6) 0.2800(9) 0.8012(9)
C33_2 C 0.1465(7) 0.3217(11) 0.9270(15)
H21_2 H 0.1698 0.3769 0.9332
C34_2 C 0.1907(10) 0.2880(13) 0.9382(19)
H22_2 H 0.2455 0.3197 0.9464
C35_2 C 0.1548(9) 0.2039(13) 0.9376(17)
H23_2 H 0.1842 0.1790 0.9491
C36_2 C 0.0776(7) 0.1611(11) 0.9202(12)
C37_2 C 0.0348(8) 0.2008(11) 0.9046(12)
C38_2 C 0.0372(7) 0.0764(10) 0.9153(11)
N15_2 N 0.5689(11) 0.6610(8) 0.8477(9)
C39_2 C 0.5253(13) 0.6595(10) 0.8065(12)
S3_2 S 0.4617(7) 0.6597(6) 0.7546(5)
N16_2 N 0.7598(10) 0.6696(7) 0.9493(9)
C40_2 C 0.8157(11) 0.6650(8) 0.9651(11)
S4_2 S 0.8884(4) 0.6522(3) 0.9847(4)
C41_2 C 0.3586(14) 0.4637(12) 0.5121(11)
H25_2 H 0.3539 0.4900 0.4722
C42_2 C 0.3735(14) 0.5003(12) 0.5737(13)
H26_2 H 0.3728 0.5482 0.5778
C43_2 C 0.3894(20) 0.4698(16) 0.6297(14)
H27_2 H 0.3997 0.4956 0.6737
C44_2 C 0.3907(14) 0.4006(12) 0.6232(12)
C45_2 C 0.3656(15) 0.3618(12) 0.5580(11)
H28_2 H 0.3597 0.3110 0.5534
N18_2 N 0.6103(9) 0.5349(6) 0.8945(9)
C46_2 C 0.6298(13) 0.4963(9) 0.9448(15)
H29_2 H 0.6640 0.5229 0.9830
C47_2 C 0.5950(16) 0.4155(10) 0.9347(15)
H30_2 H 0.6102 0.3892 0.9676
C48_2 C 0.5444(14) 0.3698(9) 0.8869(14)
H31_2 H 0.5220 0.3143 0.8867
C49_2 C 0.5266(14) 0.4104(9) 0.8361(14)
C50_2 C 0.5610(12) 0.4915(8) 0.8390(12)
H32_2 H 0.5509 0.5182 0.8025
N19_2 N 0.4396(13) 0.2898(7) 0.7865(12)
C51_2 C 0.4721(14) 0.3676(8) 0.7803(14)
N20_2 N 0.3751(14) 0.2814(11) 0.6733(9)
N21_2 N 0.4524(11) 0.4024(7) 0.7336(10)
C52_2 C 0.4095(16) 0.3613(13) 0.6824(11)
C53_2 C 0.3584(18) 0.1621(9) 0.7323(13)
C54_2 C 0.3635(17) 0.1259(9) 0.7850(15)
H33_2 H 0.3986 0.1595 0.8200
C55_2 C 0.3880(18) 0.2474(10) 0.7295(14)
C56_2 C 0.2796(19) 0.0347(10) 0.6800(14)
H34_2 H 0.2546 0.0011 0.6411
C57_2 C 0.3103(26) 0.1196(14) 0.6684(16)
H35_2 H 0.3015 0.1429 0.6284
N22_2 N 0.3287(11) 0.0487(6) 0.8012(9)
N24_2 N 0.9098(7) 0.2402(10) 0.9493(9)
C60_2 C 0.8493(7) 0.1843(11) 0.9651(11)
S6_2 S 0.7638(3) 0.1116(4) 0.9847(4)
C65_2 C 0.9962(9) 0.6344(15) 0.5580(11)
H40_2 H 0.9513 0.6403 0.5534
N26_2 N 0.9246(7) 0.3897(9) 0.8945(9)
C66_2 C 0.8665(10) 0.3702(13) 0.9448(15)
H41_2 H 0.8589 0.3360 0.9830
C67_2 C 0.8205(13) 0.4050(16) 0.9347(15)
H42_2 H 0.7790 0.3898 0.9676
C68_2 C 0.8254(11) 0.4556(14) 0.8869(14)
H43_2 H 0.7923 0.4780 0.8867
C69_2 C 0.8838(11) 0.4734(14) 0.8361(14)
C70_2 C 0.9305(9) 0.4390(12) 0.8390(12)
H44_2 H 0.9673 0.4491 0.8025
N27_2 N 0.8502(11) 0.5604(13) 0.7865(12)
C71_2 C 0.8955(11) 0.5279(14) 0.7803(14)
N28_2 N 0.9063(8) 0.6249(14) 0.6733(9)
N29_2 N 0.9500(9) 0.5476(11) 0.7336(10)
C72_2 C 0.9518(9) 0.5905(16) 0.6824(11)
C73_2 C 0.8037(16) 0.6416(18) 0.7323(13)
C74_2 C 0.7624(14) 0.6365(17) 0.7850(15)
H45_2 H 0.7609 0.6014 0.8200
C75_2 C 0.8594(15) 0.6120(18) 0.7295(14)
C76_2 C 0.7551(16) 0.7204(19) 0.6800(14)
H46_2 H 0.7465 0.7454 0.6411
C77_2 C 0.8093(22) 0.6897(26) 0.6684(16)
H47_2 H 0.8414 0.6985 0.6284
N30_2 N 0.7200(9) 0.6713(11) 0.8012(9)
C78_2 C 0.7159(14) 0.7168(17) 0.7399(14)
H48_2 H 0.6865 0.7430 0.7428
N31 N 0.7203(8) 0.7900(6) 0.9073(10)
N1_2 N 0.3390(8) 0.9079(7) 0.8477(9)
C1_2 C 0.3405(10) 0.8658(8) 0.8065(12)
S1_2 S 0.3403(6) 0.8020(4) 0.7546(5)
N3_2 N 0.2100(6) 0.9303(6) 0.9073(10)
C3_2 C 0.1752(8) 0.8535(7) 0.9270(15)
H1_2 H 0.2071 0.8302 0.9332
C4_2 C 0.0973(9) 0.8093(10) 0.9382(19)
H2_2 H 0.0742 0.7545 0.9464
C5_2 C 0.0491(9) 0.8452(9) 0.9376(17)
C6_2 C 0.0835(8) 0.9224(7) 0.9202(12)
C7_2 C 0.1660(8) 0.9652(8) 0.9046(12)
C8_2 C 0.5363(12) 0.8949(8) 0.5121(11)
H5_2 H 0.5100 0.8639 0.4722
C9_2 C 0.4997(12) 0.8732(8) 0.5737(13)
H6_2 H 0.4518 0.8246 0.5778
C10_2 C 0.5302(16) 0.9196(12) 0.6297(14)
H7_2 H 0.5044 0.9041 0.6737
C11_2 C 0.5994(12) 0.9901(8) 0.6232(12)
C19_2 C 0.0392(7) 0.9628(7) 0.9153(11)
C58_2 C 0.2832(17) 0.9991(10) 0.7399(14)
H36_2 H 0.2570 0.9435 0.7428
H19_2 H 0.8210 0.0052 0.9491
H24_2 H 0.9809 0.1708 0.8922
N14_2 N 0.9574(7) 0.0396(10) 0.9109(10)
H3_2 H 0.9948 0.8158 0.9491
C27_2 C 0.6783(11) 0.8248(8) 0.9270(15)
H17_2 H 0.6231 0.7929 0.9332
C28_2 C 0.7120(13) 0.9027(9) 0.9382(19)
H18_2 H 0.6803 0.9258 0.9464
C29_2 C 0.7961(13) 0.9509(9) 0.9376(17)
C30_2 C 0.8389(11) 0.9165(8) 0.9202(12)
C31_2 C 0.7992(11) 0.8340(8) 0.9046(12)
H20_2 H 0.8292 0.8101 0.8922
N12_2 N 0.9604(10) 0.9178(7) 0.9109(10)
C32_2 C 0.9236(10) 0.9608(7) 0.9153(11)
loop_
_geom_bond_atom_site_label_1
_geom_bond_atom_site_label_2
_geom_bond_site_symmetry_1
_geom_bond_site_symmetry_2
N11 C27 1_555 1_555
C27 H17 1_555 1_555
C28 C27 1_555 1_555
H18 C28 1_555 1_555
C29 C28 1_555 1_555
C30 C29 1_555 1_555
C31 N11 1_555 1_555
H20 C31 1_555 1_555
C32 C30 1_555 1_555
Co4 N11 1_555 1_555
C30 C31 1_555 1_555
N12 C32 1_555 1_555
Co1 N1 1_555 1_555
N1 C1 1_555 1_555
C1 S1 1_555 1_555
N3 Co1 1_555 1_555
C3 N3 1_555 1_555
H1 C3 1_555 1_555
C4 C3 1_555 1_555
H2 C4 1_555 1_555
C5 C4 1_555 1_555
C6 C5 1_555 1_555
C7 N3 1_555 1_555
N4 C8 1_555 1_555
C9 C8 1_555 1_555
H6 C9 1_555 1_555
C10 C9 1_555 1_555
H7 C10 1_555 1_555
C11 C10 1_555 1_555
C19 C6 1_555 1_555
H36 C58 1_555 1_555
N35 Co1 1_555 1_555
C6 C7 1_555 1_555
C2 N2 1_555 1_555
S2 C2 1_555 1_555
H8 C12 1_555 1_555
C13 N5 1_555 1_555
H9 C13 1_555 1_555
C14 C13 1_555 1_555
H10 C14 1_555 1_555
C15 C14 1_555 1_555
H11 C15 1_555 1_555
C16 C15 1_555 1_555
C17 N5 1_555 1_555
H12 C17 1_555 1_555
N6 C18 1_555 1_555
C18 C16 1_555 1_555
N8 C20 1_555 1_555
N9 C18 1_555 1_555
C21 C22 1_555 1_555
C22 H13 1_555 1_555
C23 N6 1_555 1_555
C24 H14 1_555 1_555
C25 C21 1_555 1_555
H15 C25 1_555 1_555
N10 C22 1_555 1_555
N13 C33 1_555 1_555
C33 H21 1_555 1_555
C34 C33 1_555 1_555
H22 C34 1_555 1_555
C35 C34 1_555 1_555
H23 C35 1_555 1_555
C36 C35 1_555 1_555
C37 N13 1_555 1_555
C38 N7 1_555 1_555
Co4 N15 1_555 1_555
N15 C39 1_555 1_555
C39 S3 1_555 1_555
N16 Co4 1_555 1_555
C40 N16 1_555 1_555
S4 C40 1_555 1_555
N17 C41 1_555 1_555
C42 C41 1_555 1_555
H26 C42 1_555 1_555
C43 C42 1_555 1_555
H27 C43 1_555 1_555
C44 C43 1_555 1_555
C45 N17 1_555 1_555
H28 C45 1_555 1_555
N18 Co4 1_555 1_555
C46 N18 1_555 1_555
H29 C46 1_555 1_555
C47 C46 1_555 1_555
H30 C47 1_555 1_555
C48 C47 1_555 1_555
H31 C48 1_555 1_555
C49 C48 1_555 1_555
C50 N18 1_555 1_555
H32 C50 1_555 1_555
N19 C51 1_555 1_555
C51 C49 1_555 1_555
N20 C52 1_555 1_555
N21 C51 1_555 1_555
C52 C44 1_555 1_555
C53 C54 1_555 1_555
C54 H33 1_555 1_555
C55 N19 1_555 1_555
C56 H34 1_555 1_555
C57 C53 1_555 1_555
H35 C57 1_555 1_555
C60 N24 1_555 1_555
S6 C60 1_555 1_555
H40 C65 1_555 1_555
C66 N26 1_555 1_555
H41 C66 1_555 1_555
C67 C66 1_555 1_555
H42 C67 1_555 1_555
C68 C67 1_555 1_555
H43 C68 1_555 1_555
C69 C68 1_555 1_555
C70 N26 1_555 1_555
H44 C70 1_555 1_555
N27 C71 1_555 1_555
C71 C69 1_555 1_555
N28 C72 1_555 1_555
N29 C71 1_555 1_555
C73 C74 1_555 1_555
C74 H45 1_555 1_555
C75 N27 1_555 1_555
C76 H46 1_555 1_555
C77 C73 1_555 1_555
H47 C77 1_555 1_555
N30 Co4 1_555 1_555
C78 C76 1_555 1_555
H48 C78 1_555 1_555
Co5 N13 1_555 1_555
N34 Co4 1_555 1_555
C16 C17 1_555 1_555
N8 C23 1_555 1_555
N9 C20 1_555 1_555
C21 C23 1_555 1_555
C24 C25 1_555 1_555
C36 C37 1_555 1_555
C36 C38 1_555 1_555
C44 C45 1_555 1_555
C49 C50 1_555 1_555
N20 C55 1_555 1_555
N21 C52 1_555 1_555
C53 C55 1_555 1_555
C54 N22 1_555 1_555
C56 C57 1_555 1_555
C69 C70 1_555 1_555
N28 C75 1_555 1_555
N29 C72 1_555 1_555
C73 C75 1_555 1_555
C74 N30 1_555 1_555
C76 C77 1_555 1_555
N30 C78 1_555 1_555
H16 C26 1_555 1_555
N23 Co5 1_555 1_555
C59 N23 1_555 1_555
S5 C59 1_555 1_555
N25 C61 1_555 1_555
C62 C61 1_555 1_555
H38 C62 1_555 1_555
C63 C62 1_555 1_555
H39 C63 1_555 1_555
C64 C63 1_555 1_555
N33 Co5 1_555 1_555
H16_2 C26_2 1_555 1_555
N23_2 Co8 1_555 1_555
C59_2 N23_2 1_555 1_555
S5_2 C59_2 1_555 1_555
N35 C61_2 1_555 1_555
C61_2 H37_2 1_555 1_555
C62_2 C61_2 1_555 1_555
H38_2 C62_2 1_555 1_555
C63_2 C62_2 1_555 1_555
H39_2 C63_2 1_555 1_555
C64_2 C63_2 1_555 1_555
N32 Co8 1_555 1_555
C2_2 N2_2 1_555 1_555
S2_2 C2_2 1_555 1_555
H8_2 C12_2 1_555 1_555
C13_2 N5_2 1_555 1_555
H9_2 C13_2 1_555 1_555
C14_2 C13_2 1_555 1_555
H10_2 C14_2 1_555 1_555
C15_2 C14_2 1_555 1_555
H11_2 C15_2 1_555 1_555
C16_2 C15_2 1_555 1_555
C17_2 N5_2 1_555 1_555
H12_2 C17_2 1_555 1_555
N6_2 C18_2 1_555 1_555
C18_2 C16_2 1_555 1_555
N8_2 C20_2 1_555 1_555
N9_2 C18_2 1_555 1_555
C21_2 C22_2 1_555 1_555
C22_2 H13_2 1_555 1_555
C23_2 N6_2 1_555 1_555
C24_2 H14_2 1_555 1_555
C25_2 C21_2 1_555 1_555
H15_2 C25_2 1_555 1_555
N10_2 C22_2 1_555 1_555
N32 C33_2 1_555 1_555
C33_2 H21_2 1_555 1_555
C34_2 C33_2 1_555 1_555
H22_2 C34_2 1_555 1_555
C35_2 C34_2 1_555 1_555
H23_2 C35_2 1_555 1_555
C36_2 C35_2 1_555 1_555
C37_2 N32 1_555 1_555
C38_2 N7_2 1_555 1_555
Co7 N15_2 1_555 1_555
N15_2 C39_2 1_555 1_555
C39_2 S3_2 1_555 1_555
N16_2 Co7 1_555 1_555
C40_2 N16_2 1_555 1_555
S4_2 C40_2 1_555 1_555
N34 C41_2 1_555 1_555
C41_2 H25_2 1_555 1_555
C42_2 C41_2 1_555 1_555
H26_2 C42_2 1_555 1_555
C43_2 C42_2 1_555 1_555
H27_2 C43_2 1_555 1_555
C44_2 C43_2 1_555 1_555
C45_2 N34 1_555 1_555
H28_2 C45_2 1_555 1_555
N18_2 Co7 1_555 1_555
C46_2 N18_2 1_555 1_555
H29_2 C46_2 1_555 1_555
C47_2 C46_2 1_555 1_555
H30_2 C47_2 1_555 1_555
C48_2 C47_2 1_555 1_555
H31_2 C48_2 1_555 1_555
C49_2 C48_2 1_555 1_555
C50_2 N18_2 1_555 1_555
H32_2 C50_2 1_555 1_555
N19_2 C51_2 1_555 1_555
C51_2 C49_2 1_555 1_555
N20_2 C52_2 1_555 1_555
N21_2 C51_2 1_555 1_555
C52_2 C44_2 1_555 1_555
C53_2 C54_2 1_555 1_555
C54_2 H33_2 1_555 1_555
C55_2 N19_2 1_555 1_555
C56_2 H34_2 1_555 1_555
C57_2 C53_2 1_555 1_555
H35_2 C57_2 1_555 1_555
C60_2 N24_2 1_555 1_555
S6_2 C60_2 1_555 1_555
H40_2 C65_2 1_555 1_555
C66_2 N26_2 1_555 1_555
H41_2 C66_2 1_555 1_555
C67_2 C66_2 1_555 1_555
H42_2 C67_2 1_555 1_555
C68_2 C67_2 1_555 1_555
H43_2 C68_2 1_555 1_555
C69_2 C68_2 1_555 1_555
C70_2 N26_2 1_555 1_555
H44_2 C70_2 1_555 1_555
N27_2 C71_2 1_555 1_555
C71_2 C69_2 1_555 1_555
N28_2 C72_2 1_555 1_555
N29_2 C71_2 1_555 1_555
C73_2 C74_2 1_555 1_555
C74_2 H45_2 1_555 1_555
C75_2 N27_2 1_555 1_555
C76_2 H46_2 1_555 1_555
C77_2 C73_2 1_555 1_555
H47_2 C77_2 1_555 1_555
N30_2 Co7 1_555 1_555
C78_2 C76_2 1_555 1_555
H48_2 C78_2 1_555 1_555
N31 Co7 1_555 1_555
C16_2 C17_2 1_555 1_555
N8_2 C23_2 1_555 1_555
N9_2 C20_2 1_555 1_555
C21_2 C23_2 1_555 1_555
C24_2 C25_2 1_555 1_555
C36_2 C37_2 1_555 1_555
C36_2 C38_2 1_555 1_555
C44_2 C45_2 1_555 1_555
C49_2 C50_2 1_555 1_555
N20_2 C55_2 1_555 1_555
N21_2 C52_2 1_555 1_555
C53_2 C55_2 1_555 1_555
C54_2 N22_2 1_555 1_555
C56_2 C57_2 1_555 1_555
C69_2 C70_2 1_555 1_555
N28_2 C75_2 1_555 1_555
N29_2 C72_2 1_555 1_555
C73_2 C75_2 1_555 1_555
C74_2 N30_2 1_555 1_555
C76_2 C77_2 1_555 1_555
N30_2 C78_2 1_555 1_555
Co6 N1_2 1_555 1_555
N1_2 C1_2 1_555 1_555
C1_2 S1_2 1_555 1_555
N3_2 Co6 1_555 1_555
C3_2 N3_2 1_555 1_555
H1_2 C3_2 1_555 1_555
C4_2 C3_2 1_555 1_555
H2_2 C4_2 1_555 1_555
C5_2 C4_2 1_555 1_555
C6_2 C5_2 1_555 1_555
C7_2 N3_2 1_555 1_555
N33 C8_2 1_555 1_555
C8_2 H5_2 1_555 1_555
C9_2 C8_2 1_555 1_555
H6_2 C9_2 1_555 1_555
C10_2 C9_2 1_555 1_555
H7_2 C10_2 1_555 1_555
C11_2 C10_2 1_555 1_555
C19_2 C6_2 1_555 1_555
H36_2 C58_2 1_555 1_555
C6_2 C7_2 1_555 1_555
N31 C27_2 1_555 1_555
C27_2 H17_2 1_555 1_555
C28_2 C27_2 1_555 1_555
H18_2 C28_2 1_555 1_555
C29_2 C28_2 1_555 1_555
C30_2 C29_2 1_555 1_555
C31_2 N31 1_555 1_555
H20_2 C31_2 1_555 1_555
C32_2 C30_2 1_555 1_555
C30_2 C31_2 1_555 1_555
N12_2 C32_2 1_555 1_555

#END
