
###############################################################################
#
# This file contains modified crystal structure data generated from the
# MOF subset of the Cambridge Structural Database (CSD) v543 
# hosted by the Cambridge Crystallographic Data Centre (CCDC).
#
# This work is licensed under the Creative Commons
# Attribution-NonCommercial-ShareAlike 4.0 International License.
# To view a copy of this license, visit
# http://creativecommons.org/licenses/by-nc-sa/4.0/
# or send a letter to
# Creative Commons, PO Box 1866, Mountain View, CA 94042, USA.
#
# CIF created using the CSD Python API on 29 September 2022
# The structure has been converted into the P1 space group
# The structure has a 3D framework
# The original CSD entry FEXJUQ is in the trigonal crystal system
# The original CSD entry FEXJUQ is in a Sohncke space group
# The framework has been calculated to contain at least 10.0% void space
# The void calculation uses a probe of radius 1.32A, grid spacing 0.4
#
###############################################################################

data_FEXJUQ
_chemical_formula_moiety         '(C63 H27 Fe9 O43)n'
_symmetry_cell_setting           triclinic
_symmetry_space_group_name_H-M   'P 1'
_symmetry_Int_Tables_number      1
_space_group_name_Hall           'P 1'
loop_
_symmetry_equiv_pos_site_id
_symmetry_equiv_pos_as_xyz
1 x,y,z
_cell_length_a                   15.184(5)
_cell_length_b                   15.184(5)
_cell_length_c                   10.293(4)
_cell_angle_alpha                90
_cell_angle_beta                 90
_cell_angle_gamma                120
_cell_volume                     2055.16
loop_
_atom_site_label
_atom_site_type_symbol
_atom_site_fract_x
_atom_site_fract_y
_atom_site_fract_z
C3 C 0.1803(7) 0.3240(7) 0.0002(9)
H1 H 0.2062 0.3538 0.0805
O3 O 0.1348(5) 0.1515(5) 0.0730(6)
H3 H 0.1046 0.1537 0.1379
Fe6 Fe 0.35284(14) 0.70360(10) 0.00912(10)
Fe1 Fe 0.29640(10) 0.64924(10) 0.67579(10)
O1 O 0.2833(6) 0.5379(5) 0.7922(7)
O2 O 0.2465(5) 0.5441(5) 0.9995(7)
C1 C 0.2412(7) 0.4966(7) 0.8961(9)
C2 C 0.1830(7) 0.3824(7) 0.8937(9)
C4 C 0.1371(6) 0.2192(6) 0.9817(8)
C5 C 0.0992(7) 0.1778(6) 0.8618(8)
C6 C 0.0938(8) 0.2355(7) 0.7594(9)
C7 C 0.1378(8) 0.3378(8) 0.7754(9)
H2 H 0.1379 0.3781 0.7073
O4 O 0.0632(5) 0.0757(4) 0.8403(6)
O5 O 0.0440(6) 0.1834(5) 0.6517(6)
Fe2 Fe 0.01393(10) 0.03722(10) 0.65735(11)
O6 O 0.1089(5) 0.0965(5) 0.3515(7)
O7 O 0.1398(5) 0.0729(6) 0.5576(8)
C8 C 0.1665(7) 0.1089(8) 0.4467(9)
C9 C 0.2796(7) 0.1726(7) 0.4253(9)
C10 C 0.3424(7) 0.2256(7) 0.5288(9)
H4 H 0.3145 0.2236 0.6100
C11 C 0.4483(6) 0.2823(7) 0.5108(8)
C12 C 0.4900(6) 0.2816(6) 0.3912(9)
C13 C 0.4247(7) 0.2289(7) 0.2858(8)
C14 C 0.3215(6) 0.1778(8) 0.3029(10)
H5 H 0.2789 0.1464 0.2324
O8 O 0.5164(4) 0.3407(6) 0.6057(6)
H6 H 0.4937 0.3159 0.6772
O9 O 0.5925(4) 0.3290(5) 0.3761(5)
O10 O 0.4761(5) 0.2344(7) 0.1712(7)
Fe3 Fe 0.65507(9) 0.32308(9) 0.21053(11)
O12 O 0.6663(7) 0.4486(6) 0.1221(6)
C15 C 0.6111(8) 0.4533(8) 0.0318(10)
C16 C 0.5569(7) 0.5122(7) 0.0641(9)
C17 C 0.5233(8) 0.5061(8) 0.1877(9)
H7 H 0.5340 0.4676 0.2492
C18 C 0.4730(8) 0.5577(7) 0.2219(9)
C19 C 0.4624(6) 0.6208(6) 0.1325(9)
C20 C 0.4985(6) 0.6257(6) 0.0046(8)
O13 O 0.4291(6) 0.5528(6) 0.3409(7)
O14 O 0.4183(4) 0.6734(5) 0.1645(6)
Fe4 Fe 0.35076(10) 0.64716(14) 0.34246(10)
O16 O 0.4559(5) 0.7024(7) 0.6662(7)
O20 O 0.6593(6) 0.1757(7) 0.2724(6)
O21 O 0.6710(5) 0.2635(6) 0.0428(5)
Fe10 Fe 0.66801(13) 0.34493(9) 0.54386(11)
O22 O 0.8124(8) 0.4019(6) 0.2565(7)
O23 O 0.1237(8) 0.5709(6) 0.6742(7)
O24 O 0.3266(5) 0.7449(6) 0.8312(6)
O25 O 0.2551(6) 0.5817(4) 0.4978(6)
O26 O 0.3110(5) 0.7937(7) 0.5922(6)
O11 O 0.5981(6) 0.4105(6) 0.9232(7)
C21 C 0.5437(6) 0.5695(6) 0.9700(8)
H8 H 0.5648 0.5703 0.8850
O15 O 0.4827(5) 0.6890(5) 0.9255(6)
H9 H 0.5077 0.6919 0.8539
Fe9 Fe 0.67692(9) 0.33199(13) 0.87720(11)
Fe8 Fe 0.02329(14) 0.98607(10) 0.99068(11)
O17 O 0.8485(5) 0.9833(7) 0.7397(6)
O18 O 0.9243(4) 0.9875(6) 0.5070(6)
Fe7 Fe 0.96278(10) 0.97671(14) 0.32402(11)
O19 O 0.9876(7) 0.8911(5) 0.6848(7)
O17_2 O 0.0167(7) 0.8652(9) 0.4063(6)
O18_2 O 0.0125(6) 0.9368(7) 0.1736(6)
O6_2 O 0.9035(5) 0.0124(7) 0.0182(7)
O7_2 O 0.9271(6) 0.0669(8) 0.2243(8)
C8_2 C 0.8911(8) 0.0576(11) 0.1134(9)
C9_2 C 0.8274(7) 0.1070(10) 0.0920(9)
C10_2 C 0.7744(7) 0.1168(10) 0.1955(9)
H4_2 H 0.7764 0.0909 0.2767
C11_2 C 0.7177(7) 0.1660(9) 0.1775(8)
C12_2 C 0.7184(6) 0.2084(8) 0.0579(9)
H6_2 H 0.6841 0.1778 0.3439
C13_2 C 0.7711(7) 0.1958(10) 0.9525(8)
C14_2 C 0.8222(8) 0.1437(10) 0.9696(10)
H5_2 H 0.8536 0.1325 0.8991
O10_2 O 0.7656(7) 0.2417(9) 0.8379(7)
O11_2 O 0.5895(6) 0.1876(8) 0.5899(7)
O12_2 O 0.5514(6) 0.2177(9) 0.7888(6)
C15_2 C 0.5467(8) 0.1578(11) 0.6985(10)
C16_2 C 0.4878(7) 0.0447(10) 0.7308(9)
C17_2 C 0.4939(8) 0.0172(11) 0.8544(9)
H7_2 H 0.5324 0.0664 0.9159
O20_2 O 0.8243(7) 0.4836(9) 0.9390(6)
O21_2 O 0.7365(6) 0.4075(8) 0.7094(5)
O1_2 O 0.4621(5) 0.7454(8) 0.4589(7)
C1_2 C 0.5034(7) 0.7446(10) 0.5628(9)
C2_2 C 0.6176(7) 0.8006(10) 0.5604(9)
C3_2 C 0.6760(7) 0.8563(10) 0.6669(9)
H1_2 H 0.6462 0.8524 0.7472
C4_2 C 0.7808(6) 0.9179(8) 0.6484(8)
C5_2 C 0.8222(6) 0.9214(9) 0.5285(8)
C6_2 C 0.7645(7) 0.8583(11) 0.4261(9)
C7_2 C 0.6622(8) 0.8000(11) 0.4421(9)
H2_2 H 0.6219 0.7598 0.3740
H3_2 H 0.8463 0.9509 0.8046
O5_2 O 0.8166(5) 0.8606(8) 0.3184(6)
O13_2 O 0.4472(6) 0.8763(8) 0.0076(7)
O16_2 O 0.2976(7) 0.7535(9) 0.3328(7)
O26_2 O 0.2063(7) 0.5173(9) 0.2588(6)
C18_2 C 0.4423(7) 0.9153(11) 0.8886(9)
C19_2 C 0.3792(6) 0.8416(8) 0.7992(9)
C20_2 C 0.3743(6) 0.8728(8) 0.6713(8)
C21_2 C 0.4305(6) 0.9742(8) 0.6367(8)
H8_2 H 0.4297 0.9945 0.5517
H9_2 H 0.3081 0.8158 0.5206
O1_3 O 0.2546(8) 0.7167(6) 0.1255(7)
C1_3 C 0.2554(10) 0.7588(7) 0.2294(9)
C2_3 C 0.1994(10) 0.8170(7) 0.2270(9)
C3_3 C 0.1437(10) 0.8197(7) 0.3335(9)
H1_3 H 0.1476 0.7938 0.4138
C4_3 C 0.0821(8) 0.8629(6) 0.3150(8)
C5_3 C 0.0786(9) 0.9008(7) 0.1951(8)
C6_3 C 0.1417(11) 0.9062(8) 0.0927(9)
C7_3 C 0.2000(11) 0.8622(8) 0.1087(9)
H2_3 H 0.2402 0.8621 0.0406
H3_3 H 0.0491 0.8954 0.4712
O5_3 O 0.1394(8) 0.9560(6) 0.9850(6)
C18_3 C 0.0847(11) 0.5270(8) 0.5552(9)
C19_3 C 0.1584(8) 0.5376(6) 0.4658(9)
C20_3 C 0.1272(8) 0.5015(6) 0.3379(8)
C21_3 C 0.0258(8) 0.4563(6) 0.3033(8)
H8_3 H 0.0055 0.4352 0.2183
H9_3 H 0.1842 0.4923 0.1872
H6_3 H 0.8222 0.5063 0.0105
O7_3 O 0.9331(8) 0.8602(5) 0.8909(8)
C8_3 C 0.9424(11) 0.8335(7) 0.7800(9)
C9_3 C 0.8930(10) 0.7204(7) 0.7586(9)
C10_3 C 0.8832(10) 0.6576(7) 0.8621(9)
H4_3 H 0.9091 0.6855 0.9433
C11_3 C 0.8340(9) 0.5517(6) 0.8441(8)
C12_3 C 0.7916(8) 0.5100(6) 0.7245(9)
C13_3 C 0.8042(10) 0.5753(7) 0.6191(8)
C14_3 C 0.8563(10) 0.6785(6) 0.6362(10)
H5_3 H 0.8675 0.7211 0.5657
O10_3 O 0.7583(9) 0.5239(5) 0.5045(7)
O12_3 O 0.7823(9) 0.3337(7) 0.4554(6)
C15_3 C 0.8422(11) 0.3889(8) 0.3651(10)
C16_3 C 0.9553(10) 0.4431(7) 0.3974(9)
C17_3 C 0.9828(11) 0.4767(8) 0.5210(9)
H7_3 H 0.9336 0.4660 0.5825
loop_
_geom_bond_atom_site_label_1
_geom_bond_atom_site_label_2
_geom_bond_site_symmetry_1
_geom_bond_site_symmetry_2
C3 H1 1_555 1_555
H3 O3 1_555 1_555
Fe1 O1 1_555 1_555
O1 C1 1_555 1_555
O2 C1 1_555 1_555
C1 C2 1_555 1_555
C5 C4 1_555 1_555
C6 C5 1_555 1_555
C7 C2 1_555 1_555
H2 C7 1_555 1_555
O4 C5 1_555 1_555
O5 C6 1_555 1_555
Fe2 O4 1_555 1_555
O6 C8 1_555 1_555
O7 Fe2 1_555 1_555
C8 O7 1_555 1_555
C9 C8 1_555 1_555
C10 C9 1_555 1_555
H4 C10 1_555 1_555
C11 C10 1_555 1_555
C12 C11 1_555 1_555
C13 C12 1_555 1_555
C14 C9 1_555 1_555
H5 C14 1_555 1_555
O8 C11 1_555 1_555
H6 O8 1_555 1_555
O9 C12 1_555 1_555
O10 C13 1_555 1_555
Fe3 O9 1_555 1_555
O12 Fe3 1_555 1_555
C15 O12 1_555 1_555
C16 C15 1_555 1_555
C17 C16 1_555 1_555
H7 C17 1_555 1_555
C18 C17 1_555 1_555
C19 C18 1_555 1_555
C20 C19 1_555 1_555
O13 C18 1_555 1_555
O14 C19 1_555 1_555
Fe4 O13 1_555 1_555
Fe6 O14 1_555 1_555
O16 Fe1 1_555 1_555
O20 Fe3 1_555 1_555
O21 Fe3 1_555 1_555
Fe10 O8 1_555 1_555
O22 Fe3 1_555 1_555
O23 Fe1 1_555 1_555
O24 Fe1 1_555 1_555
O25 Fe1 1_555 1_555
O26 Fe1 1_555 1_555
C6 C7 1_555 1_555
O5 Fe2 1_555 1_555
C13 C14 1_555 1_555
O9 Fe10 1_555 1_555
O10 Fe3 1_555 1_555
O14 Fe4 1_555 1_555
Fe4 O25 1_555 1_555
H8 C21 1_555 1_555
H9 O15 1_555 1_555
Fe9 O11 1_555 1_555
O18 Fe7 1_555 1_555
O6_2 C8_2 1_555 1_555
C8_2 O7_2 1_555 1_555
C9_2 C8_2 1_555 1_555
C10_2 C9_2 1_555 1_555
H4_2 C10_2 1_555 1_555
C11_2 C10_2 1_555 1_555
C12_2 C11_2 1_555 1_555
O20 C11_2 1_555 1_555
H6_2 O20 1_555 1_555
O21 C12_2 1_555 1_555
H5_2 C14_2 1_555 1_555
O10_2 C13_2 1_555 1_555
O11_2 C15_2 1_555 1_555
O12_2 Fe9 1_555 1_555
C15_2 O12_2 1_555 1_555
C16_2 C15_2 1_555 1_555
C17_2 C16_2 1_555 1_555
H7_2 C17_2 1_555 1_555
O20_2 Fe9 1_555 1_555
O21_2 Fe9 1_555 1_555
Fe10 O11_2 1_555 1_555
C13_2 C14_2 1_555 1_555
O10_2 Fe9 1_555 1_555
O21_2 Fe10 1_555 1_555
Fe4 O1_2 1_555 1_555
O1_2 C1_2 1_555 1_555
O16 C1_2 1_555 1_555
C1_2 C2_2 1_555 1_555
C2_2 C3_2 1_555 1_555
C3_2 H1_2 1_555 1_555
C4_2 C3_2 1_555 1_555
C5_2 C4_2 1_555 1_555
C6_2 C5_2 1_555 1_555
C7_2 C2_2 1_555 1_555
H2_2 C7_2 1_555 1_555
O17 C4_2 1_555 1_555
H3_2 O17 1_555 1_555
O18 C5_2 1_555 1_555
O5_2 C6_2 1_555 1_555
Fe6 O13_2 1_555 1_555
O16_2 Fe4 1_555 1_555
O26_2 Fe4 1_555 1_555
C6_2 C7_2 1_555 1_555
O5_2 Fe7 1_555 1_555
C19_2 C18_2 1_555 1_555
C20_2 C19_2 1_555 1_555
H8_2 C21_2 1_555 1_555
O24 C19_2 1_555 1_555
O26 C20_2 1_555 1_555
H9_2 O26 1_555 1_555
C20_2 C21_2 1_555 1_555
Fe6 O1_3 1_555 1_555
O1_3 C1_3 1_555 1_555
O16_2 C1_3 1_555 1_555
C1_3 C2_3 1_555 1_555
C2_3 C3_3 1_555 1_555
C3_3 H1_3 1_555 1_555
C4_3 C3_3 1_555 1_555
C5_3 C4_3 1_555 1_555
C6_3 C5_3 1_555 1_555
C7_3 C2_3 1_555 1_555
H2_3 C7_3 1_555 1_555
O17_2 C4_3 1_555 1_555
H3_3 O17_2 1_555 1_555
O18_2 C5_3 1_555 1_555
C6_3 C7_3 1_555 1_555
C19_3 C18_3 1_555 1_555
C20_3 C19_3 1_555 1_555
H8_3 C21_3 1_555 1_555
O23 C18_3 1_555 1_555
O25 C19_3 1_555 1_555
O26_2 C20_3 1_555 1_555
H9_3 O26_2 1_555 1_555
O5_3 Fe8 1_555 1_555
C20_3 C21_3 1_555 1_555
O19 C8_3 1_555 1_555
C8_3 O7_3 1_555 1_555
C9_3 C8_3 1_555 1_555
C10_3 C9_3 1_555 1_555
H4_3 C10_3 1_555 1_555
C11_3 C10_3 1_555 1_555
C12_3 C11_3 1_555 1_555
C13_3 C12_3 1_555 1_555
C14_3 C9_3 1_555 1_555
H5_3 C14_3 1_555 1_555
O20_2 C11_3 1_555 1_555
O21_2 C12_3 1_555 1_555
O10_3 C13_3 1_555 1_555
O22 C15_3 1_555 1_555
O12_3 Fe10 1_555 1_555
C15_3 O12_3 1_555 1_555
C16_3 C15_3 1_555 1_555
C17_3 C16_3 1_555 1_555
H7_3 C17_3 1_555 1_555
C13_3 C14_3 1_555 1_555
O10_3 Fe10 1_555 1_555

#END
