
###############################################################################
#
# This file contains modified crystal structure data generated from the
# MOF subset of the Cambridge Structural Database (CSD) v543 
# hosted by the Cambridge Crystallographic Data Centre (CCDC).
#
# This work is licensed under the Creative Commons
# Attribution-NonCommercial-ShareAlike 4.0 International License.
# To view a copy of this license, visit
# http://creativecommons.org/licenses/by-nc-sa/4.0/
# or send a letter to
# Creative Commons, PO Box 1866, Mountain View, CA 94042, USA.
#
# CIF created using the CSD Python API on 29 September 2022
# The structure has been converted into the P1 space group
# The structure has a 3D framework
# The original CSD entry FEXKAX is in the trigonal crystal system
# The original CSD entry FEXKAX is in a Sohncke space group
# The framework has been calculated to contain at least 10.0% void space
# The void calculation uses a probe of radius 1.32A, grid spacing 0.4
#
###############################################################################

data_FEXKAX
_chemical_formula_moiety         '(C63 H33 Fe9 O42)n'
_symmetry_cell_setting           triclinic
_symmetry_space_group_name_H-M   'P 1'
_symmetry_Int_Tables_number      1
_space_group_name_Hall           'P 1'
loop_
_symmetry_equiv_pos_site_id
_symmetry_equiv_pos_as_xyz
1 x,y,z
_cell_length_a                   15.1162(9)
_cell_length_b                   15.1162(9)
_cell_length_c                   10.2505(6)
_cell_angle_alpha                90
_cell_angle_beta                 90
_cell_angle_gamma                120
_cell_volume                     2028.43
loop_
_atom_site_label
_atom_site_type_symbol
_atom_site_fract_x
_atom_site_fract_y
_atom_site_fract_z
O2 O 0.2491(4) 0.5428(4) 0.0096(6)
C3 C 0.1810(5) 0.3212(5) 0.0047(7)
H1 H 0.205475 0.349240 0.086632
O3 O 0.1330(4) 0.1458(4) 0.0721(5)
H3 H 0.101318 0.146378 0.136667
Fe6 Fe 0.35242(12) 0.70363(8) 0.01646(9)
Fe1 Fe 0.29637(8) 0.64879(9) 0.68313(9)
O1 O 0.2883(4) 0.5394(4) 0.8021(5)
C1 C 0.2443(6) 0.4956(6) 0.9057(7)
C2 C 0.1860(6) 0.3818(5) 0.9000(7)
C4 C 0.1380(5) 0.2166(5) 0.9823(7)
C5 C 0.1024(5) 0.1761(6) 0.8603(7)
C6 C 0.0982(6) 0.2358(6) 0.7598(7)
C7 C 0.1438(6) 0.3402(6) 0.7782(7)
H2 H 0.146328 0.382351 0.710448
O4 O 0.0669(4) 0.0761(4) 0.8354(5)
O5 O 0.0511(5) 0.1859(4) 0.6496(5)
H4 H 0.057172 0.227314 0.593553
Fe2 Fe 0.01560(8) 0.03949(8) 0.65297(10)
O6 O 0.1080(4) 0.0962(4) 0.3435(5)
O7 O 0.1398(4) 0.0721(4) 0.5500(6)
C8 C 0.1674(6) 0.1100(6) 0.4387(7)
C9 C 0.2798(6) 0.1732(6) 0.4170(7)
C10 C 0.3428(6) 0.2254(6) 0.5227(7)
H5 H 0.314427 0.222031 0.604275
C11 C 0.4474(5) 0.2822(6) 0.5057(7)
C12 C 0.4901(5) 0.2830(6) 0.3845(7)
C13 C 0.4261(6) 0.2323(6) 0.2793(7)
C14 C 0.3213(5) 0.1792(6) 0.2937(7)
H6 H 0.279012 0.147950 0.222308
O8 O 0.5161(4) 0.3387(4) 0.6011(5)
H7 H 0.494267 0.311611 0.672210
O9 O 0.5934(4) 0.3300(4) 0.3716(4)
O10 O 0.4790(4) 0.2395(5) 0.1645(5)
H8 H 0.438371 0.214380 0.104098
Fe3 Fe 0.65787(8) 0.32464(8) 0.20658(10)
O12 O 0.6729(5) 0.4539(4) 0.1198(5)
C15 C 0.6154(6) 0.4573(6) 0.0313(8)
C16 C 0.5618(6) 0.5161(5) 0.0684(7)
C17 C 0.5303(6) 0.5118(6) 0.1937(7)
H9 H 0.542685 0.474230 0.255483
C18 C 0.4797(6) 0.5634(6) 0.2292(7)
C19 C 0.4668(5) 0.6253(5) 0.1379(7)
C20 C 0.5007(5) 0.6295(5) 0.0098(7)
O13 O 0.4370(5) 0.5580(5) 0.3494(5)
O14 O 0.4199(4) 0.6763(4) 0.1721(5)
Fe4 Fe 0.35121(9) 0.64758(12) 0.34980(9)
O16 O 0.4572(4) 0.7063(6) 0.6763(6)
O20 O 0.6613(4) 0.1774(6) 0.2678(5)
O21 O 0.6700(4) 0.2634(6) 0.0383(4)
Fe10 Fe 0.66677(11) 0.34213(8) 0.53991(10)
O22 O 0.8145(6) 0.3992(4) 0.2554(5)
O23 O 0.1210(7) 0.5630(5) 0.6827(5)
O24 O 0.3237(4) 0.7436(6) 0.8388(5)
O25 O 0.2564(6) 0.5801(4) 0.5054(5)
O26 O 0.3067(4) 0.7909(6) 0.5993(5)
O11 O 0.6008(4) 0.4153(4) 0.9221(5)
C21 C 0.5464(5) 0.5736(5) 0.9728(6)
H10 H 0.566398 0.574111 0.886851
O15 O 0.4842(4) 0.6933(4) 0.9326(5)
H11 H 0.494051 0.684804 0.856061
Fe9 Fe 0.67536(8) 0.33323(11) 0.87325(10)
Fe8 Fe 0.02389(11) 0.98440(8) 0.98630(10)
O17 O 0.8542(4) 0.9872(6) 0.7388(5)
O18 O 0.9239(4) 0.9908(6) 0.5021(5)
Fe7 Fe 0.96051(8) 0.97611(11) 0.31964(10)
O19 O 0.9882(6) 0.8920(4) 0.6768(5)
O17_2 O 0.0128(6) 0.8670(7) 0.4054(5)
O18_2 O 0.0092(6) 0.9331(7) 0.1687(5)
O6_2 O 0.9038(4) 0.0118(6) 0.0102(5)
O7_2 O 0.9279(4) 0.0677(6) 0.2167(6)
C8_2 C 0.8900(6) 0.0574(8) 0.1054(7)
C9_2 C 0.8268(6) 0.1066(8) 0.0837(7)
C10_2 C 0.7746(6) 0.1174(8) 0.1894(7)
H5_2 H 0.777969 0.092396 0.270942
C11_2 C 0.7178(6) 0.1652(8) 0.1724(7)
C12_2 C 0.7170(6) 0.2071(8) 0.0512(7)
H7_2 H 0.688389 0.182656 0.338877
C13_2 C 0.7677(6) 0.1938(8) 0.9460(7)
C14_2 C 0.8208(6) 0.1421(8) 0.9604(7)
H6_2 H 0.852050 0.131062 0.888975
O10_2 O 0.7605(5) 0.2395(6) 0.8312(5)
H8_2 H 0.785620 0.223991 0.770765
O11_2 O 0.5847(4) 0.1855(6) 0.5888(5)
O12_2 O 0.5461(4) 0.2190(6) 0.7865(5)
C15_2 C 0.5427(6) 0.1581(8) 0.6980(8)
C16_2 C 0.4839(5) 0.0457(8) 0.7351(7)
C17_2 C 0.4882(6) 0.0185(8) 0.8604(7)
H9_2 H 0.525770 0.068455 0.922150
O20_2 O 0.8226(6) 0.4839(7) 0.9344(5)
O21_2 O 0.7366(6) 0.4066(7) 0.7049(4)
O1_2 O 0.4606(4) 0.7489(6) 0.4688(5)
C1_2 C 0.5044(6) 0.7487(8) 0.5724(7)
C2_2 C 0.6182(5) 0.8042(8) 0.5667(7)
C3_2 C 0.6788(5) 0.8598(7) 0.6714(7)
H1_2 H 0.650760 0.856235 0.753299
C4_2 C 0.7834(5) 0.9214(7) 0.6490(7)
C5_2 C 0.8239(6) 0.9263(8) 0.5270(7)
C6_2 C 0.7642(6) 0.8624(8) 0.4265(7)
C7_2 C 0.6598(6) 0.8036(8) 0.4449(7)
H2_2 H 0.617649 0.763977 0.377115
H3_2 H 0.853622 0.954940 0.803334
O5_2 O 0.8141(4) 0.8652(6) 0.3163(5)
H4_2 H 0.772686 0.829858 0.260220
O13_2 O 0.4420(5) 0.8790(7) 0.0161(5)
O16_2 O 0.2937(6) 0.7509(7) 0.3429(6)
O26_2 O 0.2091(6) 0.5158(7) 0.2659(5)
C18_2 C 0.4366(6) 0.9163(8) 0.8959(7)
C19_2 C 0.3747(5) 0.8415(7) 0.8046(7)
C20_2 C 0.3705(5) 0.8712(7) 0.6765(7)
C21_2 C 0.4264(5) 0.9728(7) 0.6395(6)
H10_2 H 0.425889 0.992287 0.553518
H11_2 H 0.315196 0.809247 0.522728
O1_3 O 0.2511(6) 0.7117(4) 0.1354(5)
C1_3 C 0.2513(8) 0.7557(6) 0.2390(7)
C2_3 C 0.1958(8) 0.8140(6) 0.2333(7)
C3_3 C 0.1402(7) 0.8190(5) 0.3380(7)
H1_3 H 0.143765 0.794525 0.419965
C4_3 C 0.0786(7) 0.8620(5) 0.3156(7)
C5_3 C 0.0737(8) 0.8976(5) 0.1936(7)
C6_3 C 0.1376(8) 0.9018(6) 0.0931(7)
C7_3 C 0.1964(8) 0.8562(6) 0.1115(7)
H2_3 H 0.236023 0.853672 0.043781
H3_3 H 0.045060 0.898682 0.470000
O5_3 O 0.1348(6) 0.9489(5) 0.9829(5)
H4_3 H 0.170142 0.942828 0.926886
C18_3 C 0.0837(8) 0.5203(6) 0.5625(7)
C19_3 C 0.1585(7) 0.5332(5) 0.4712(7)
C20_3 C 0.1288(7) 0.4993(5) 0.3431(7)
C21_3 C 0.0272(7) 0.4536(5) 0.3061(6)
H10_3 H 0.007713 0.433602 0.220184
H11_3 H 0.190753 0.505949 0.189394
H7_3 H 0.817344 0.505733 0.005543
O7_3 O 0.9323(6) 0.8602(4) 0.8833(6)
C8_3 C 0.9426(8) 0.8326(6) 0.7720(7)
C9_3 C 0.8934(8) 0.7202(6) 0.7503(7)
C10_3 C 0.8826(8) 0.6572(6) 0.8560(7)
H5_3 H 0.907604 0.685573 0.937608
C11_3 C 0.8348(8) 0.5526(5) 0.8390(7)
C12_3 C 0.7929(8) 0.5099(5) 0.7178(7)
C13_3 C 0.8062(8) 0.5739(6) 0.6126(7)
C14_3 C 0.8579(8) 0.6787(5) 0.6270(7)
H6_3 H 0.868938 0.720988 0.555641
O10_3 O 0.7605(6) 0.5210(4) 0.4978(5)
H8_3 H 0.776009 0.561629 0.437431
O12_3 O 0.7810(6) 0.3271(5) 0.4531(5)
C15_3 C 0.8419(8) 0.3846(6) 0.3646(8)
C16_3 C 0.9543(8) 0.4382(6) 0.4017(7)
C17_3 C 0.9815(8) 0.4697(6) 0.5270(7)
H9_3 H 0.931545 0.457315 0.588816
loop_
_geom_bond_atom_site_label_1
_geom_bond_atom_site_label_2
_geom_bond_site_symmetry_1
_geom_bond_site_symmetry_2
C3 H1 1_555 1_555
H3 O3 1_555 1_555
Fe6 O2 1_555 1_555
Fe1 O1 1_555 1_555
O1 C1 1_555 1_555
C1 C2 1_555 1_555
C5 C4 1_555 1_555
C6 C5 1_555 1_555
C7 C2 1_555 1_555
H2 C7 1_555 1_555
O4 C5 1_555 1_555
O5 C6 1_555 1_555
H4 O5 1_555 1_555
Fe2 O4 1_555 1_555
O6 C8 1_555 1_555
O7 Fe2 1_555 1_555
C8 O7 1_555 1_555
C9 C8 1_555 1_555
C10 C9 1_555 1_555
H5 C10 1_555 1_555
C11 C10 1_555 1_555
C12 C11 1_555 1_555
C13 C12 1_555 1_555
C14 C9 1_555 1_555
H6 C14 1_555 1_555
O8 C11 1_555 1_555
H7 O8 1_555 1_555
O9 C12 1_555 1_555
O10 C13 1_555 1_555
H8 O10 1_555 1_555
Fe3 O9 1_555 1_555
O12 Fe3 1_555 1_555
C15 O12 1_555 1_555
C16 C15 1_555 1_555
C17 C16 1_555 1_555
H9 C17 1_555 1_555
C18 C17 1_555 1_555
C19 C18 1_555 1_555
C20 C19 1_555 1_555
O13 C18 1_555 1_555
O14 C19 1_555 1_555
Fe4 O13 1_555 1_555
Fe6 O14 1_555 1_555
O16 Fe1 1_555 1_555
O20 Fe3 1_555 1_555
O21 Fe3 1_555 1_555
Fe10 O8 1_555 1_555
O22 Fe3 1_555 1_555
O23 Fe1 1_555 1_555
O24 Fe1 1_555 1_555
O25 Fe1 1_555 1_555
O26 Fe1 1_555 1_555
C6 C7 1_555 1_555
O5 Fe2 1_555 1_555
C13 C14 1_555 1_555
O9 Fe10 1_555 1_555
O10 Fe3 1_555 1_555
O14 Fe4 1_555 1_555
Fe4 O25 1_555 1_555
H10 C21 1_555 1_555
H11 O15 1_555 1_555
Fe9 O11 1_555 1_555
O18 Fe7 1_555 1_555
O6_2 C8_2 1_555 1_555
C8_2 O7_2 1_555 1_555
C9_2 C8_2 1_555 1_555
C10_2 C9_2 1_555 1_555
H5_2 C10_2 1_555 1_555
C11_2 C10_2 1_555 1_555
C12_2 C11_2 1_555 1_555
O20 C11_2 1_555 1_555
H7_2 O20 1_555 1_555
O21 C12_2 1_555 1_555
H6_2 C14_2 1_555 1_555
O10_2 C13_2 1_555 1_555
H8_2 O10_2 1_555 1_555
O11_2 C15_2 1_555 1_555
O12_2 Fe9 1_555 1_555
C15_2 O12_2 1_555 1_555
C16_2 C15_2 1_555 1_555
C17_2 C16_2 1_555 1_555
H9_2 C17_2 1_555 1_555
O20_2 Fe9 1_555 1_555
O21_2 Fe9 1_555 1_555
Fe10 O11_2 1_555 1_555
C13_2 C14_2 1_555 1_555
O10_2 Fe9 1_555 1_555
O21_2 Fe10 1_555 1_555
Fe4 O1_2 1_555 1_555
O1_2 C1_2 1_555 1_555
O16 C1_2 1_555 1_555
C1_2 C2_2 1_555 1_555
C2_2 C3_2 1_555 1_555
C3_2 H1_2 1_555 1_555
C4_2 C3_2 1_555 1_555
C5_2 C4_2 1_555 1_555
C6_2 C5_2 1_555 1_555
C7_2 C2_2 1_555 1_555
H2_2 C7_2 1_555 1_555
O17 C4_2 1_555 1_555
H3_2 O17 1_555 1_555
O18 C5_2 1_555 1_555
O5_2 C6_2 1_555 1_555
H4_2 O5_2 1_555 1_555
Fe6 O13_2 1_555 1_555
O16_2 Fe4 1_555 1_555
O26_2 Fe4 1_555 1_555
C6_2 C7_2 1_555 1_555
O5_2 Fe7 1_555 1_555
C19_2 C18_2 1_555 1_555
C20_2 C19_2 1_555 1_555
H10_2 C21_2 1_555 1_555
O24 C19_2 1_555 1_555
O26 C20_2 1_555 1_555
H11_2 O26 1_555 1_555
C20_2 C21_2 1_555 1_555
Fe6 O1_3 1_555 1_555
O1_3 C1_3 1_555 1_555
O16_2 C1_3 1_555 1_555
C1_3 C2_3 1_555 1_555
C2_3 C3_3 1_555 1_555
C3_3 H1_3 1_555 1_555
C4_3 C3_3 1_555 1_555
C5_3 C4_3 1_555 1_555
C6_3 C5_3 1_555 1_555
C7_3 C2_3 1_555 1_555
H2_3 C7_3 1_555 1_555
O17_2 C4_3 1_555 1_555
H3_3 O17_2 1_555 1_555
O18_2 C5_3 1_555 1_555
C6_3 C7_3 1_555 1_555
H4_3 O5_3 1_555 1_555
C19_3 C18_3 1_555 1_555
C20_3 C19_3 1_555 1_555
H10_3 C21_3 1_555 1_555
O23 C18_3 1_555 1_555
O25 C19_3 1_555 1_555
O26_2 C20_3 1_555 1_555
H11_3 O26_2 1_555 1_555
O5_3 Fe8 1_555 1_555
C20_3 C21_3 1_555 1_555
O19 C8_3 1_555 1_555
C8_3 O7_3 1_555 1_555
C9_3 C8_3 1_555 1_555
C10_3 C9_3 1_555 1_555
H5_3 C10_3 1_555 1_555
C11_3 C10_3 1_555 1_555
C12_3 C11_3 1_555 1_555
C13_3 C12_3 1_555 1_555
C14_3 C9_3 1_555 1_555
H6_3 C14_3 1_555 1_555
O20_2 C11_3 1_555 1_555
O21_2 C12_3 1_555 1_555
O10_3 C13_3 1_555 1_555
H8_3 O10_3 1_555 1_555
O22 C15_3 1_555 1_555
O12_3 Fe10 1_555 1_555
C15_3 O12_3 1_555 1_555
C16_3 C15_3 1_555 1_555
C17_3 C16_3 1_555 1_555
H9_3 C17_3 1_555 1_555
C13_3 C14_3 1_555 1_555
O10_3 Fe10 1_555 1_555

#END
