
###############################################################################
#
# This file contains modified crystal structure data generated from the
# MOF subset of the Cambridge Structural Database (CSD) v543 
# hosted by the Cambridge Crystallographic Data Centre (CCDC).
#
# This work is licensed under the Creative Commons
# Attribution-NonCommercial-ShareAlike 4.0 International License.
# To view a copy of this license, visit
# http://creativecommons.org/licenses/by-nc-sa/4.0/
# or send a letter to
# Creative Commons, PO Box 1866, Mountain View, CA 94042, USA.
#
# CIF created using the CSD Python API on 29 September 2022
# The structure has been converted into the P1 space group
# The structure has a 3D framework
# The original CSD entry FIBHIJ is in the triclinic crystal system
# The framework has been calculated to contain at least 10.0% void space
# The void calculation uses a probe of radius 1.32A, grid spacing 0.4
#
###############################################################################

data_FIBHIJ
_chemical_formula_moiety         '(C40 H42 Cu6 N16)n'
_symmetry_cell_setting           triclinic
_symmetry_space_group_name_H-M   'P 1'
_symmetry_Int_Tables_number      1
_space_group_name_Hall           'P 1'
loop_
_symmetry_equiv_pos_site_id
_symmetry_equiv_pos_as_xyz
1 x,y,z
_cell_length_a                   11.4287(18)
_cell_length_b                   11.7031(18)
_cell_length_c                   12.918(2)
_cell_angle_alpha                64.005(3)
_cell_angle_beta                 89.783(3)
_cell_angle_gamma                71.129(3)
_cell_volume                     1450.06
loop_
_atom_site_label
_atom_site_type_symbol
_atom_site_fract_x
_atom_site_fract_y
_atom_site_fract_z
Cu1 Cu 0.37501(7) 0.16842(8) 0.08005(7)
N5 N 0.3515(4) 0.0213(5) 0.0503(5)
N6 N 0.4372(6) 0.0595(6) 0.2455(5)
C16 C 0.3224(5) 0.0081(7) 0.9578(6)
C17 C 0.2840(7) 0.1282(8) 0.8405(6)
H19 H 0.2597 0.2099 0.8488
H20 H 0.2145 0.1282 0.7990
H21 H 0.3530 0.1241 0.7980
C21 C 0.3429(6) 0.3477(7) 0.9764(6)
Cu2 Cu 0.54559(7) 0.86861(9) 0.49800(7)
Cu3 Cu 0.31549(7) 0.63807(8) 0.79610(7)
N4 N 0.3792(4) 0.8948(5) 0.1418(5)
H5 H 0.4024 0.8752 0.2127
N7 N 0.4641(5) 0.7551(6) 0.6139(5)
N8 N 0.3281(5) 0.4603(6) 0.9074(6)
C13 C 0.3907(8) 0.6587(8) 0.1959(8)
H16 H 0.4513 0.6318 0.2612
H17 H 0.4223 0.6015 0.1592
H18 H 0.3141 0.6496 0.2224
C14 C 0.3664(6) 0.8036(6) 0.1099(7)
C18 C 0.4793(6) 0.9898(7) 0.3415(6)
C19 C 0.4100(6) 0.7059(6) 0.6840(6)
N9 N 0.7157(4) 0.7807(5) 0.5941(4)
N10 N 0.1598(4) 0.7650(5) 0.8246(4)
C6 C 0.0372(6) 0.7043(9) 0.7219(7)
H9 H 0.0921 0.6096 0.7638
H10 H 0.0690 0.7461 0.6504
C7 C 0.0447(5) 0.7720(6) 0.7937(6)
C10 C 0.0778(6) 0.8901(10) 0.9258(9)
H13 H 0.0904 0.9309 0.9703
C11 C 0.1762(5) 0.8246(7) 0.8885(6)
C12 C 0.3091(6) 0.8130(9) 0.9134(8)
H14 H 0.3364 0.8571 0.8398
H15 H 0.3618 0.7174 0.9504
C15 C 0.3302(6) 0.8744(7) 0.9910(7)
C1 C 0.8923(8) 0.4972(11) 0.8729(7)
H1 H 0.9095 0.5208 0.9322
H2 H 0.9673 0.4325 0.8692
H3 H 0.8284 0.4580 0.8914
C2 C 0.8492(6) 0.6205(7) 0.7593(6)
N2 N 0.7358(5) 0.6651(6) 0.6987(4)
H4 H 0.6815 0.6264 0.7220
C3 C 0.9078(6) 0.7089(8) 0.6897(6)
C4 C 0.8227(6) 0.8033(7) 0.5906(6)
C5 C 0.8344(7) 0.9248(8) 0.4869(8)
H6 H 0.7889 0.9390 0.4173
H7 H 0.9211 0.9083 0.4792
C8 C 0.9410(6) 0.8388(9) 0.8292(8)
H11 H 0.8611 0.8447 0.8071
C9 C 0.9597(7) 0.8959(10) 0.8974(9)
H12 H 0.8924 0.9385 0.9245
H8 H 0.8005 0.0042 0.4982
C1_2 C 0.1077(8) 0.5028(11) 0.1271(7)
H1_2 H 0.0905 0.4792 0.0678
H2_2 H 0.0327 0.5675 0.1308
H3_2 H 0.1716 0.5420 0.1086
N1 N 0.2843(4) 0.2193(5) 0.4059(4)
C2_2 C 0.1508(6) 0.3795(7) 0.2407(6)
N2_2 N 0.2642(5) 0.3349(6) 0.3013(4)
H4_2 H 0.3185 0.3736 0.2780
C3_2 C 0.0922(6) 0.2911(8) 0.3103(6)
C4_2 C 0.1773(6) 0.1967(7) 0.4094(6)
C5_2 C 0.1656(7) 0.0752(8) 0.5131(8)
H6_2 H 0.2111 0.0610 0.5827
H7_2 H 0.0789 0.0917 0.5208
C8_2 C 0.0590(6) 0.1612(9) 0.1708(8)
H11_2 H 0.1389 0.1553 0.1929
C9_2 C 0.0403(7) 0.1041(10) 0.1026(9)
H12_2 H 0.1076 0.0615 0.0755
Cu5 Cu 0.45441(7) 0.13139(9) 0.50200(7)
N3 N 0.8402(4) 0.2350(5) 0.1754(4)
C6_2 C 0.9628(6) 0.2957(9) 0.2781(7)
H9_2 H 0.9079 0.3904 0.2362
H10_2 H 0.9310 0.2539 0.3496
C7_2 C 0.9553(5) 0.2280(6) 0.2063(6)
C10_2 C 0.9222(6) 0.1099(10) 0.0742(9)
H13_2 H 0.9096 0.0691 0.0297
C11_2 C 0.8238(5) 0.1754(7) 0.1115(6)
C12_2 C 0.6909(6) 0.1870(9) 0.0866(8)
H14_2 H 0.6636 0.1429 0.1602
H15_2 H 0.6382 0.2826 0.0496
C15_2 C 0.6698(6) 0.1256(7) 0.0090(7)
Cu6 Cu 0.68451(7) 0.36193(8) 0.20390(7)
N4_2 N 0.6208(4) 0.1052(5) 0.8582(5)
H5_2 H 0.5976 0.1248 0.7873
N7_2 N 0.5359(5) 0.2449(6) 0.3861(5)
N8_2 N 0.6719(5) 0.5397(6) 0.0926(6)
C13_2 C 0.6093(8) 0.3413(8) 0.8041(8)
H16_2 H 0.5487 0.3682 0.7388
H17_2 H 0.5777 0.3985 0.8408
H18_2 H 0.6859 0.3504 0.7776
C14_2 C 0.6336(6) 0.1964(6) 0.8901(7)
C18_2 C 0.5207(6) 0.0102(7) 0.6585(6)
C19_2 C 0.5900(6) 0.2941(6) 0.3160(6)
C20 C 0.6571(6) 0.6523(7) 0.0236(6)
C16_2 C 0.6776(5) 0.9919(7) 0.0422(6)
C17_2 C 0.7160(7) 0.8718(8) 0.1595(6)
H19_2 H 0.7403 0.7901 0.1512
H20_2 H 0.7855 0.8718 0.2010
H21_2 H 0.6470 0.8759 0.2020
H8_2 H 0.1995 0.9958 0.5018
Cu4 Cu 0.62499(7) 0.83158(8) 0.91995(7)
N5_2 N 0.6485(4) 0.9787(5) 0.9497(5)
N6_2 N 0.5628(6) 0.9405(6) 0.7545(5)
loop_
_geom_bond_atom_site_label_1
_geom_bond_atom_site_label_2
_geom_bond_site_symmetry_1
_geom_bond_site_symmetry_2
Cu1 N5 1_555 1_555
N6 Cu1 1_555 1_555
C17 C16 1_555 1_555
H19 C17 1_555 1_555
H20 C17 1_555 1_555
H21 C17 1_555 1_555
Cu2 N7 1_555 1_555
Cu3 N8 1_555 1_555
N4 H5 1_555 1_555
N7 C19 1_555 1_555
N8 C21 1_555 1_555
C13 H16 1_555 1_555
H17 C13 1_555 1_555
H18 C13 1_555 1_555
C14 N4 1_555 1_555
C18 Cu2 1_555 1_555
C19 Cu3 1_555 1_555
N9 Cu2 1_555 1_555
N10 Cu3 1_555 1_555
C13 C14 1_555 1_555
N10 C7 1_555 1_555
H9 C6 1_555 1_555
H10 C6 1_555 1_555
C7 C6 1_555 1_555
H13 C10 1_555 1_555
C11 N10 1_555 1_555
C12 C11 1_555 1_555
H14 C12 1_555 1_555
H15 C12 1_555 1_555
C15 C12 1_555 1_555
C10 C11 1_555 1_555
C1 H1 1_555 1_555
H2 C1 1_555 1_555
H3 C1 1_555 1_555
N9 N2 1_555 1_555
C2 C1 1_555 1_555
N2 C2 1_555 1_555
H4 N2 1_555 1_555
C3 C2 1_555 1_555
C4 N9 1_555 1_555
C5 C4 1_555 1_555
H6 C5 1_555 1_555
H7 C5 1_555 1_555
H11 C8 1_555 1_555
C9 C8 1_555 1_555
H12 C9 1_555 1_555
C3 C4 1_555 1_555
C1_2 H1_2 1_555 1_555
H2_2 C1_2 1_555 1_555
H3_2 C1_2 1_555 1_555
N1 N2_2 1_555 1_555
C2_2 C1_2 1_555 1_555
N2_2 C2_2 1_555 1_555
H4_2 N2_2 1_555 1_555
C3_2 C2_2 1_555 1_555
C4_2 N1 1_555 1_555
C5_2 C4_2 1_555 1_555
H6_2 C5_2 1_555 1_555
H7_2 C5_2 1_555 1_555
H11_2 C8_2 1_555 1_555
C9_2 C8_2 1_555 1_555
H12_2 C9_2 1_555 1_555
Cu5 N1 1_555 1_555
C3_2 C4_2 1_555 1_555
N3 C7_2 1_555 1_555
H9_2 C6_2 1_555 1_555
H10_2 C6_2 1_555 1_555
C7_2 C6_2 1_555 1_555
H13_2 C10_2 1_555 1_555
C11_2 N3 1_555 1_555
C12_2 C11_2 1_555 1_555
H14_2 C12_2 1_555 1_555
H15_2 C12_2 1_555 1_555
C15_2 C12_2 1_555 1_555
Cu6 N3 1_555 1_555
C10_2 C11_2 1_555 1_555
Cu5 N7_2 1_555 1_555
Cu6 N8_2 1_555 1_555
N4_2 H5_2 1_555 1_555
N7_2 C19_2 1_555 1_555
N8_2 C20 1_555 1_555
C13_2 H16_2 1_555 1_555
H17_2 C13_2 1_555 1_555
H18_2 C13_2 1_555 1_555
C14_2 N4_2 1_555 1_555
C18_2 Cu5 1_555 1_555
C19_2 Cu6 1_555 1_555
C13_2 C14_2 1_555 1_555
C17_2 C16_2 1_555 1_555
H19_2 C17_2 1_555 1_555
H20_2 C17_2 1_555 1_555
H21_2 C17_2 1_555 1_555
Cu4 N5_2 1_555 1_555
N6_2 Cu4 1_555 1_555

#END
