
###############################################################################
#
# This file contains modified crystal structure data generated from the
# MOF subset of the Cambridge Structural Database (CSD) v543 
# hosted by the Cambridge Crystallographic Data Centre (CCDC).
#
# This work is licensed under the Creative Commons
# Attribution-NonCommercial-ShareAlike 4.0 International License.
# To view a copy of this license, visit
# http://creativecommons.org/licenses/by-nc-sa/4.0/
# or send a letter to
# Creative Commons, PO Box 1866, Mountain View, CA 94042, USA.
#
# CIF created using the CSD Python API on 29 September 2022
# The structure has been converted into the P1 space group
# The structure has a 3D framework
# The original CSD entry FIBHEF is in the triclinic crystal system
# The framework has been calculated to contain at least 10.0% void space
# The void calculation uses a probe of radius 1.32A, grid spacing 0.4
#
###############################################################################

data_FIBHEF
_chemical_formula_moiety         '(C40 H42 Cu4 N16)n'
_symmetry_cell_setting           triclinic
_symmetry_space_group_name_H-M   'P 1'
_symmetry_Int_Tables_number      1
_space_group_name_Hall           'P 1'
loop_
_symmetry_equiv_pos_site_id
_symmetry_equiv_pos_as_xyz
1 x,y,z
_cell_length_a                   11.4262(5)
_cell_length_b                   11.4509(5)
_cell_length_c                   12.5243(7)
_cell_angle_alpha                66.620(5)
_cell_angle_beta                 89.182(4)
_cell_angle_gamma                69.908(4)
_cell_volume                     1398.37
loop_
_atom_site_label
_atom_site_type_symbol
_atom_site_fract_x
_atom_site_fract_y
_atom_site_fract_z
N1 N 0.7803(4) 0.2307(5) 0.4171(4)
C1 C 0.6025(9) 0.5043(11) 0.1402(8)
H1 H 0.5471 0.5822 0.1512
H2 H 0.5587 0.4864 0.0872
H3 H 0.6743 0.5227 0.1080
N2 N 0.7584(4) 0.3410(5) 0.3150(4)
H4 H 0.8118 0.3801 0.2910
C2 C 0.6446(6) 0.3842(7) 0.2540(6)
N3 N 0.3415(4) 0.2249(4) 0.1934(4)
C3 C 0.5887(5) 0.2972(7) 0.3199(6)
C4 C 0.6755(5) 0.2027(6) 0.4218(6)
C5 C 0.6652(8) 0.0828(9) 0.5264(8)
H6 H 0.7012 0.0009 0.5139
H7 H 0.5782 0.0993 0.5354
H8 H 0.7097 0.0722 0.5961
C6 C 0.4596(6) 0.3003(9) 0.2914(8)
H9 H 0.4053 0.3943 0.2439
H10 H 0.4251 0.2689 0.3641
C7 C 0.4573(5) 0.2135(6) 0.2266(6)
C8 C 0.5643(6) 0.1272(10) 0.2049(9)
H11 H 0.6437 0.1216 0.2280
C9 C 0.5510(6) 0.0497(11) 0.1485(11)
C10 C 0.4324(6) 0.0621(10) 0.1129(10)
H13 H 0.4217 0.0125 0.0728
C11 C 0.3276(5) 0.1510(7) 0.1381(7)
C12 C 0.1926(5) 0.1697(9) 0.1075(8)
H14 H 0.1613 0.1267 0.1793
H15 H 0.1419 0.2668 0.0739
C15 C 0.1746(5) 0.1115(7) 0.0224(7)
Cu5 Cu 0.95301(7) 0.13210(9) 0.50606(7)
Cu6 Cu 0.18414(7) 0.36329(7) 0.21832(7)
N4 N 0.1281(4) 0.0932(5) 0.8628(5)
H5 H 0.1070 0.1135 0.7901
N7 N 0.0325(5) 0.2584(6) 0.4022(5)
N8 N 0.1698(5) 0.5374(5) 0.0968(5)
C13 C 0.1229(9) 0.3253(8) 0.8193(10)
H16 H 0.1949 0.3257 0.7791
H17 H 0.1122 0.3807 0.8622
H18 H 0.0492 0.3615 0.7631
C14 C 0.1420(5) 0.1817(6) 0.9029(7)
C19 C 0.0901(5) 0.3019(5) 0.3356(5)
C20 C 0.1572(6) 0.6412(6) 0.0273(5)
H12 H 0.6217 0.9896 0.1347
C16 C 0.1800(4) 0.9785(6) 0.0492(5)
C17 C 0.2145(7) 0.8592(8) 0.1648(6)
H19 H 0.2270 0.7778 0.1535
H20 H 0.1481 0.8726 0.2116
H21 H 0.2908 0.8497 0.2043
Cu4 Cu 0.12706(7) 0.81901(7) 0.91711(6)
N5 N 0.1518(4) 0.9673(4) 0.9520(4)
N6 N 0.0652(5) 0.9245(5) 0.7517(4)
C18 C 0.0229(5) 0.9979(6) 0.6569(5)
Cu2 Cu 0.04699(7) 0.86790(9) 0.49394(7)
N9 N 0.2197(4) 0.7693(5) 0.5829(4)
H12_2 H 0.3783 0.0104 0.8653
C16_2 C 0.8200(4) 0.0215(6) 0.9508(5)
C17_2 C 0.7855(7) 0.1408(8) 0.8352(6)
H19_2 H 0.7730 0.2222 0.8465
H20_2 H 0.8519 0.1274 0.7884
H21_2 H 0.7092 0.1503 0.7957
C21 C 0.8428(6) 0.3588(6) 0.9727(5)
Cu3 Cu 0.81586(7) 0.63671(7) 0.78168(7)
N4_2 N 0.8719(4) 0.9068(5) 0.1372(5)
H5_2 H 0.8930 0.8865 0.2099
N7_2 N 0.9675(5) 0.7416(6) 0.5978(5)
N8_2 N 0.8302(5) 0.4626(5) 0.9032(5)
C13_2 C 0.8771(9) 0.6747(8) 0.1807(10)
H16_2 H 0.8051 0.6743 0.2209
H17_2 H 0.8878 0.6193 0.1378
H18_2 H 0.9508 0.6385 0.2369
C14_2 C 0.8580(5) 0.8183(6) 0.0971(7)
C19_2 C 0.9099(5) 0.6981(5) 0.6644(5)
N10 N 0.6585(4) 0.7751(4) 0.8066(4)
C1_2 C 0.3975(9) 0.4957(11) 0.8598(8)
H1_2 H 0.4529 0.4178 0.8488
H2_2 H 0.4413 0.5136 0.9128
H3_2 H 0.3257 0.4773 0.8920
N2_2 N 0.2416(4) 0.6590(5) 0.6850(4)
H4_2 H 0.1882 0.6199 0.7090
C2_2 C 0.3554(6) 0.6158(7) 0.7460(6)
C3_2 C 0.4113(5) 0.7028(7) 0.6801(6)
C4_2 C 0.3245(5) 0.7973(6) 0.5782(6)
C5_2 C 0.3348(8) 0.9172(9) 0.4736(8)
H6_2 H 0.2988 0.9991 0.4861
H7_2 H 0.4218 0.9007 0.4646
H8_2 H 0.2903 0.9278 0.4039
C6_2 C 0.5404(6) 0.6997(9) 0.7086(8)
H9_2 H 0.5947 0.6057 0.7561
H10_2 H 0.5749 0.7311 0.6359
C7_2 C 0.5427(5) 0.7865(6) 0.7734(6)
C8_2 C 0.4357(6) 0.8728(10) 0.7951(9)
H11_2 H 0.3563 0.8784 0.7720
C9_2 C 0.4490(6) 0.9503(11) 0.8515(11)
C10_2 C 0.5676(6) 0.9379(10) 0.8871(10)
H13_2 H 0.5783 0.9875 0.9272
C11_2 C 0.6724(5) 0.8490(7) 0.8619(7)
C12_2 C 0.8074(5) 0.8303(9) 0.8925(8)
H14_2 H 0.8387 0.8733 0.8207
H15_2 H 0.8581 0.7332 0.9261
C15_2 C 0.8254(5) 0.8885(7) 0.9776(7)
Cu1 Cu 0.87294(7) 0.18099(7) 0.08289(6)
N5_2 N 0.8482(4) 0.0327(4) 0.0480(4)
N6_2 N 0.9348(5) 0.0755(5) 0.2483(4)
C18_2 C 0.9771(5) 0.0021(6) 0.3431(5)
loop_
_geom_bond_atom_site_label_1
_geom_bond_atom_site_label_2
_geom_bond_site_symmetry_1
_geom_bond_site_symmetry_2
N1 N2 1_555 1_555
C1 H1 1_555 1_555
H2 C1 1_555 1_555
H3 C1 1_555 1_555
N2 H4 1_555 1_555
C2 C1 1_555 1_555
N3 C7 1_555 1_555
C3 C2 1_555 1_555
C4 N1 1_555 1_555
C5 C4 1_555 1_555
H6 C5 1_555 1_555
H7 C5 1_555 1_555
H8 C5 1_555 1_555
C6 C3 1_555 1_555
H9 C6 1_555 1_555
H10 C6 1_555 1_555
C7 C6 1_555 1_555
C8 C7 1_555 1_555
H11 C8 1_555 1_555
C9 C8 1_555 1_555
C10 C9 1_555 1_555
H13 C10 1_555 1_555
C11 N3 1_555 1_555
C12 C11 1_555 1_555
H14 C12 1_555 1_555
H15 C12 1_555 1_555
C15 C12 1_555 1_555
Cu5 N1 1_555 1_555
Cu6 N3 1_555 1_555
N2 C2 1_555 1_555
C3 C4 1_555 1_555
C10 C11 1_555 1_555
Cu6 N8 1_555 1_555
N4 H5 1_555 1_555
N7 C19 1_555 1_555
N8 C20 1_555 1_555
C13 H16 1_555 1_555
H17 C13 1_555 1_555
H18 C13 1_555 1_555
C14 N4 1_555 1_555
C19 Cu6 1_555 1_555
C13 C14 1_555 1_555
C17 C16 1_555 1_555
H19 C17 1_555 1_555
H20 C17 1_555 1_555
H21 C17 1_555 1_555
Cu4 N5 1_555 1_555
N6 Cu4 1_555 1_555
N6 C18 1_555 1_555
N9 Cu2 1_555 1_555
C17_2 C16_2 1_555 1_555
H19_2 C17_2 1_555 1_555
H20_2 C17_2 1_555 1_555
H21_2 C17_2 1_555 1_555
Cu3 N8_2 1_555 1_555
N4_2 H5_2 1_555 1_555
N7_2 C19_2 1_555 1_555
N8_2 C21 1_555 1_555
C13_2 H16_2 1_555 1_555
H17_2 C13_2 1_555 1_555
H18_2 C13_2 1_555 1_555
C14_2 N4_2 1_555 1_555
C19_2 Cu3 1_555 1_555
N10 Cu3 1_555 1_555
C13_2 C14_2 1_555 1_555
N9 N2_2 1_555 1_555
C1_2 H1_2 1_555 1_555
H2_2 C1_2 1_555 1_555
H3_2 C1_2 1_555 1_555
N2_2 H4_2 1_555 1_555
C2_2 C1_2 1_555 1_555
N10 C7_2 1_555 1_555
C3_2 C2_2 1_555 1_555
C4_2 N9 1_555 1_555
C5_2 C4_2 1_555 1_555
H6_2 C5_2 1_555 1_555
H7_2 C5_2 1_555 1_555
H8_2 C5_2 1_555 1_555
C6_2 C3_2 1_555 1_555
H9_2 C6_2 1_555 1_555
H10_2 C6_2 1_555 1_555
C7_2 C6_2 1_555 1_555
C8_2 C7_2 1_555 1_555
H11_2 C8_2 1_555 1_555
C9_2 C8_2 1_555 1_555
C10_2 C9_2 1_555 1_555
H13_2 C10_2 1_555 1_555
C11_2 N10 1_555 1_555
C12_2 C11_2 1_555 1_555
H14_2 C12_2 1_555 1_555
H15_2 C12_2 1_555 1_555
C15_2 C12_2 1_555 1_555
N2_2 C2_2 1_555 1_555
C3_2 C4_2 1_555 1_555
C10_2 C11_2 1_555 1_555
Cu1 N5_2 1_555 1_555
N6_2 Cu1 1_555 1_555
N6_2 C18_2 1_555 1_555

#END
