
###############################################################################
#
# This file contains modified crystal structure data generated from the
# MOF subset of the Cambridge Structural Database (CSD) v543 
# hosted by the Cambridge Crystallographic Data Centre (CCDC).
#
# This work is licensed under the Creative Commons
# Attribution-NonCommercial-ShareAlike 4.0 International License.
# To view a copy of this license, visit
# http://creativecommons.org/licenses/by-nc-sa/4.0/
# or send a letter to
# Creative Commons, PO Box 1866, Mountain View, CA 94042, USA.
#
# CIF created using the CSD Python API on 29 September 2022
# The structure has been converted into the P1 space group
# The structure has a 3D framework
# The original CSD entry FIFPOA is in the orthorhombic crystal system
# The framework has been calculated to contain at least 10.0% void space
# The void calculation uses a probe of radius 1.32A, grid spacing 0.4
# H atom positions have been added when not included in the experimental data
# Generated hydrogen atom positions removed from atoms on special positions
#
###############################################################################

data_FIFPOA
_chemical_formula_moiety         '(C12 H16 Eu2 O24)n'
_symmetry_cell_setting           triclinic
_symmetry_space_group_name_H-M   'P 1'
_symmetry_Int_Tables_number      1
_space_group_name_Hall           'P 1'
loop_
_symmetry_equiv_pos_site_id
_symmetry_equiv_pos_as_xyz
1 x,y,z
_cell_length_a                   7.6762(2)
_cell_length_b                   17.8448(4)
_cell_length_c                   4.8105(2)
_cell_angle_alpha                90
_cell_angle_beta                 90
_cell_angle_gamma                90
_cell_volume                     658.944
loop_
_atom_site_label
_atom_site_type_symbol
_atom_site_fract_x
_atom_site_fract_y
_atom_site_fract_z
Eu1 Eu 0.042651(15) 0.710962(8) 0.02979(8)
Eu2 Eu 0.542651(15) 0.789038(8) 0.02979(8)
Eu6 Eu 0.957349(15) 0.289038(8) 0.02979(8)
Eu7 Eu 0.457349(15) 0.210962(8) 0.02979(8)
O11 O 0.4827(2) 0.81148(13) 0.5367(14)
O18 O 0.2543(4) 0.77748(18) 0.2960(5)
O19 O 0.7543(4) 0.72252(18) 0.2960(5)
O20 O 0.3710(3) 0.90658(13) 0.0060(9)
O3 O 0.2448(4) 0.61455(19) 0.9299(7)
O4 O 0.5205(4) 0.65554(18) 0.9051(7)
C2 C 0.4665(7) 0.5308(3) 0.9031(11)
C3 C 0.4044(6) 0.6069(3) 0.9067(9)
O7 O 0.3018(4) 0.7393(2) 0.7670(6)
O8 O 0.8018(4) 0.7607(2) 0.7670(6)
O12 O 0.7552(4) 0.38545(19) 0.9299(7)
O13 O 0.7448(4) 0.88545(19) 0.9299(7)
O14 O 0.4795(4) 0.34446(18) 0.9051(7)
O15 O 0.0205(4) 0.84446(18) 0.9051(7)
C4 C 0.3405(5) 0.7772(2) 0.522(2)
C5 C 0.5335(7) 0.4692(3) 0.9031(11)
C6 C 0.5956(6) 0.3931(3) 0.9067(9)
O6 O 0.8710(3) 0.59342(13) 0.0060(9)
O10 O 0.9827(2) 0.68852(13) 0.5367(14)
C1 C 0.8405(5) 0.7228(2) 0.522(2)
H1 H 0.853909 0.579015 0.808487
O6_2 O 0.1290(3) 0.40658(13) 0.0060(9)
O10_2 O 0.0173(2) 0.31148(13) 0.5367(14)
O17 O 0.2457(4) 0.27748(18) 0.2960(5)
O1 O 0.1982(4) 0.2393(2) 0.7670(6)
C1_2 C 0.1595(5) 0.2772(2) 0.522(2)
H1_2 H 0.146091 0.420985 0.808487
O11_2 O 0.5173(2) 0.18852(13) 0.5367(14)
O18_2 O 0.7457(4) 0.22252(18) 0.2960(5)
O20_2 O 0.6290(3) 0.09342(13) 0.0060(9)
O7_2 O 0.6982(4) 0.2607(2) 0.7670(6)
O13_2 O 0.2552(4) 0.11455(19) 0.9299(7)
O15_2 O 0.9795(4) 0.15554(18) 0.9051(7)
C4_2 C 0.6595(5) 0.2228(2) 0.522(2)
C5_2 C 0.0335(7) 0.0308(3) 0.9031(11)
C6_2 C 0.0956(6) 0.1069(3) 0.9067(9)
C2_2 C 0.9665(7) 0.9692(3) 0.9031(11)
C3_2 C 0.9044(6) 0.8931(3) 0.9067(9)
H1_3 H 0.353909 0.920985 0.808487
H1_4 H 0.646091 0.079015 0.808487
loop_
_geom_bond_atom_site_label_1
_geom_bond_atom_site_label_2
_geom_bond_site_symmetry_1
_geom_bond_site_symmetry_2
O11 Eu2 1_555 1_555
O18 Eu1 1_555 1_555
O19 Eu2 1_555 1_555
O20 Eu2 1_555 1_555
Eu2 O18 1_555 1_555
O4 C3 1_555 1_555
C2 C3 1_555 1_555
C3 O3 1_555 1_555
O12 C6 1_555 1_555
O14 C6 1_555 1_555
C4 O7 1_555 1_555
C5 C2 1_555 1_555
C6 C5 1_555 1_555
O11 C4 1_555 1_555
O18 C4 1_555 1_555
O8 C1 1_555 1_555
O19 C1 1_555 1_555
C1 O10 1_555 1_555
Eu7 O17 1_555 1_555
O1 C1_2 1_555 1_555
O17 C1_2 1_555 1_555
C1_2 O10_2 1_555 1_555
O11_2 Eu7 1_555 1_555
O18_2 Eu6 1_555 1_555
O20_2 Eu7 1_555 1_555
Eu7 O18_2 1_555 1_555
C4_2 O7_2 1_555 1_555
O11_2 C4_2 1_555 1_555
O18_2 C4_2 1_555 1_555
O13_2 C6_2 1_555 1_555
C6_2 C5_2 1_555 1_555
C2_2 C3_2 1_555 1_555
C3_2 O13 1_555 1_555

#END
