
###############################################################################
#
# This file contains modified crystal structure data generated from the
# MOF subset of the Cambridge Structural Database (CSD) v543 
# hosted by the Cambridge Crystallographic Data Centre (CCDC).
#
# This work is licensed under the Creative Commons
# Attribution-NonCommercial-ShareAlike 4.0 International License.
# To view a copy of this license, visit
# http://creativecommons.org/licenses/by-nc-sa/4.0/
# or send a letter to
# Creative Commons, PO Box 1866, Mountain View, CA 94042, USA.
#
# CIF created using the CSD Python API on 29 September 2022
# The structure has been converted into the P1 space group
# The structure has a 3D framework
# The original CSD entry FIFPAM is in the monoclinic crystal system
# The framework has been calculated to contain at least 10.0% void space
# The void calculation uses a probe of radius 1.32A, grid spacing 0.4
#
###############################################################################

data_FIFPAM
_chemical_formula_moiety         '(C48 H48 N8 Ni4 O20)n'
_symmetry_cell_setting           triclinic
_symmetry_space_group_name_H-M   'P 1'
_symmetry_Int_Tables_number      1
_space_group_name_Hall           'P 1'
loop_
_symmetry_equiv_pos_site_id
_symmetry_equiv_pos_as_xyz
1 x,y,z
_cell_length_a                   10.4815(2)
_cell_length_b                   20.0601(4)
_cell_length_c                   8.1266(2)
_cell_angle_alpha                90
_cell_angle_beta                 102.633(9)
_cell_angle_gamma                90
_cell_volume                     1667.33
loop_
_atom_site_label
_atom_site_type_symbol
_atom_site_fract_x
_atom_site_fract_y
_atom_site_fract_z
O3 O 0.01202(17) 0.28371(8) 0.3018(2)
O4 O 0.0020(2) 0.28747(10) 0.0268(2)
O6 O 0.10551(18) 0.30068(8) 0.6568(2)
N3 N 0.0369(2) 0.16150(9) 0.5181(3)
C6 C 0.1596(3) 0.03653(11) 0.5163(3)
C7 C 0.2206(3) 0.09533(12) 0.4827(4)
H5 H 0.316(3) 0.0952(13) 0.472(3)
C8 C 0.0368(3) 0.04326(12) 0.5544(4)
C9 C 0.1567(3) 0.15531(12) 0.4828(4)
H7 H 0.192(3) 0.1975(14) 0.445(4)
O1 O 0.28412(18) 0.29641(7) 0.8619(2)
O3_2 O 0.51202(17) 0.21629(8) 0.8018(2)
O4_2 O 0.5020(2) 0.21253(10) 0.5268(2)
C1 C 0.3945(3) 0.09835(11) 0.9526(4)
H1 H 0.468(3) 0.1051(14) 0.900(4)
C3 C 0.3380(3) 0.03588(12) 0.9561(4)
H3 H 0.374(3) 0.0004(14) 0.894(4)
C11 C 0.1834(3) 0.27120(9) 0.7724(4)
H9 H 0.161(2) 0.2203(11) 0.791(3)
C12 C 0.4744(3) 0.23637(14) 0.6525(4)
H10 H 0.418(3) 0.2804(16) 0.648(4)
Ni1 Ni 0.94204(6) 0.253886(13) 0.51023(7)
O1_2 O 0.78412(18) 0.20359(7) 0.3619(2)
O2 O 0.60551(18) 0.19932(8) 0.1568(2)
O5 O 0.8828(2) 0.23164(9) 0.7305(2)
N1 N 0.8448(2) 0.34603(9) 0.5043(3)
N2 N 0.5369(2) 0.66150(9) 0.5181(3)
C1_2 C 0.8945(3) 0.40165(11) 0.4526(4)
H1_2 H 0.968(3) 0.3949(14) 0.400(4)
C2 C 0.7340(3) 0.35271(12) 0.5567(4)
H2 H 0.695(3) 0.3137(14) 0.585(4)
C3_2 C 0.8380(3) 0.46412(12) 0.4561(4)
H3_2 H 0.874(3) 0.4996(14) 0.394(4)
C4 C 0.6703(3) 0.41225(12) 0.5618(4)
H4 H 0.5926 0.4137 0.5992
C5 C 0.7230(3) 0.47042(11) 0.5105(4)
C6_2 C 0.6596(3) 0.53653(11) 0.5163(3)
C7_2 C 0.7206(3) 0.59533(12) 0.4827(4)
H5_2 H 0.816(3) 0.5952(13) 0.472(3)
C8_2 C 0.5368(3) 0.54326(12) 0.5544(4)
H6 H 0.491(3) 0.5049(15) 0.582(3)
C9_2 C 0.6567(3) 0.65531(12) 0.4828(4)
H7_2 H 0.692(3) 0.6975(14) 0.445(4)
C10 C 0.4808(3) 0.60525(11) 0.5545(4)
H8 H 0.385(3) 0.6090(14) 0.575(4)
C11_2 C 0.6834(3) 0.22880(9) 0.2724(4)
H9_2 H 0.661(2) 0.2797(11) 0.291(3)
C12_2 C 0.9744(3) 0.26363(14) 0.1525(4)
H10_2 H 0.918(3) 0.2196(16) 0.148(4)
H11 H 0.924(3) 0.2490(13) 0.838(3)
H12 H 0.830(3) 0.1966(12) 0.745(4)
Ni2 Ni 0.44204(6) 0.246114(13) 0.01023(7)
Ni3 Ni 0.44204(6) 0.753886(13) 0.51023(7)
O6_2 O 0.10551(18) 0.69932(8) 0.1568(2)
N3_2 N 0.0369(2) 0.83850(9) 0.0181(3)
Ni1_2 Ni 0.94204(6) 0.746114(13) 0.01023(7)
O5_2 O 0.8828(2) 0.76836(9) 0.2305(2)
N1_2 N 0.8448(2) 0.65397(9) 0.0043(3)
N2_2 N 0.5369(2) 0.33850(9) 0.0181(3)
C2_2 C 0.7340(3) 0.64729(12) 0.0567(4)
H2_2 H 0.695(3) 0.6863(14) 0.085(4)
C4_2 C 0.6703(3) 0.58775(12) 0.0618(4)
H4_2 H 0.5926 0.5863 0.0992
C5_2 C 0.7230(3) 0.52958(11) 0.0105(4)
C6_3 C 0.6596(3) 0.46347(11) 0.0163(3)
C8_3 C 0.5368(3) 0.45674(12) 0.0544(4)
H6_2 H 0.491(3) 0.4951(15) 0.082(3)
C10_2 C 0.4808(3) 0.39475(11) 0.0545(4)
H8_2 H 0.385(3) 0.3910(14) 0.075(4)
H11_2 H 0.924(3) 0.7510(13) 0.338(3)
H12_2 H 0.830(3) 0.8034(12) 0.245(4)
O1_3 O 0.78412(18) 0.79641(7) 0.8619(2)
O2_2 O 0.60551(18) 0.80068(8) 0.6568(2)
C1_3 C 0.8945(3) 0.59835(11) 0.9526(4)
H1_3 H 0.968(3) 0.6051(14) 0.900(4)
C3_3 C 0.8380(3) 0.53588(12) 0.9561(4)
H3_3 H 0.874(3) 0.5004(14) 0.894(4)
C7_3 C 0.7206(3) 0.40467(12) 0.9827(4)
H5_3 H 0.816(3) 0.4048(13) 0.972(3)
C9_3 C 0.6567(3) 0.34469(12) 0.9828(4)
H7_3 H 0.692(3) 0.3025(14) 0.945(4)
C11_3 C 0.6834(3) 0.77120(9) 0.7724(4)
H9_3 H 0.661(2) 0.7203(11) 0.791(3)
C12_3 C 0.9744(3) 0.73637(14) 0.6525(4)
H10_3 H 0.918(3) 0.7804(16) 0.648(4)
O1_4 O 0.28412(18) 0.70359(7) 0.3619(2)
O3_3 O 0.51202(17) 0.78371(8) 0.3018(2)
O4_3 O 0.5020(2) 0.78747(10) 0.0268(2)
O5_3 O 0.3828(2) 0.73164(9) 0.7305(2)
N1_3 N 0.3448(2) 0.84603(9) 0.5043(3)
C1_4 C 0.3945(3) 0.90165(11) 0.4526(4)
H1_4 H 0.468(3) 0.8949(14) 0.400(4)
C2_3 C 0.2340(3) 0.85271(12) 0.5567(4)
H2_3 H 0.195(3) 0.8137(14) 0.585(4)
C3_4 C 0.3380(3) 0.96412(12) 0.4561(4)
H3_4 H 0.374(3) 0.9996(14) 0.394(4)
C4_3 C 0.1703(3) 0.91225(12) 0.5618(4)
H4_3 H 0.0926 0.9137 0.5992
C5_3 C 0.2230(3) 0.97042(11) 0.5105(4)
C11_4 C 0.1834(3) 0.72880(9) 0.2724(4)
H9_4 H 0.161(2) 0.7797(11) 0.291(3)
C12_4 C 0.4744(3) 0.76363(14) 0.1525(4)
H10_4 H 0.418(3) 0.7196(16) 0.148(4)
H11_3 H 0.424(3) 0.7490(13) 0.838(3)
H12_3 H 0.330(3) 0.6966(12) 0.745(4)
H6_3 H 0.991(3) 0.0049(15) 0.582(3)
C10_3 C 0.9808(3) 0.10525(11) 0.5545(4)
H8_3 H 0.885(3) 0.1090(14) 0.575(4)
O5_4 O 0.3828(2) 0.26836(9) 0.2305(2)
N1_4 N 0.3448(2) 0.15397(9) 0.0043(3)
C2_4 C 0.2340(3) 0.14729(12) 0.0567(4)
H2_4 H 0.195(3) 0.1863(14) 0.085(4)
C4_4 C 0.1703(3) 0.08775(12) 0.0618(4)
H4_4 H 0.0926 0.0863 0.0992
C5_4 C 0.2230(3) 0.02958(11) 0.0105(4)
H11_4 H 0.424(3) 0.2510(13) 0.338(3)
H12_4 H 0.330(3) 0.3034(12) 0.245(4)
C6_4 C 0.1596(3) 0.96347(11) 0.0163(3)
C8_4 C 0.0368(3) 0.95674(12) 0.0544(4)
H6_4 H 0.991(3) 0.9951(15) 0.082(3)
C10_4 C 0.9808(3) 0.89475(11) 0.0545(4)
H8_4 H 0.885(3) 0.8910(14) 0.075(4)
O3_4 O 0.01202(17) 0.71629(8) 0.8018(2)
O4_4 O 0.0020(2) 0.71253(10) 0.5268(2)
C7_4 C 0.2206(3) 0.90467(12) 0.9827(4)
H5_4 H 0.316(3) 0.9048(13) 0.972(3)
C9_4 C 0.1567(3) 0.84469(12) 0.9828(4)
H7_4 H 0.192(3) 0.8025(14) 0.945(4)
loop_
_geom_bond_atom_site_label_1
_geom_bond_atom_site_label_2
_geom_bond_site_symmetry_1
_geom_bond_site_symmetry_2
N3 C9 1_555 1_555
C7 C6 1_555 1_555
H5 C7 1_555 1_555
C8 C6 1_555 1_555
C9 C7 1_555 1_555
H7 C9 1_555 1_555
O1 C11 1_555 1_555
O6 C11 1_555 1_555
O4_2 C12 1_555 1_555
H1 C1 1_555 1_555
C3 C1 1_555 1_555
H3 C3 1_555 1_555
C11 H9 1_555 1_555
C12 O3_2 1_555 1_555
H10 C12 1_555 1_555
Ni1 O1_2 1_555 1_555
O1_2 C11_2 1_555 1_555
O2 C11_2 1_555 1_555
O5 Ni1 1_555 1_555
N1 Ni1 1_555 1_555
N2 C9_2 1_555 1_555
C1_2 N1 1_555 1_555
H1_2 C1_2 1_555 1_555
C2 N1 1_555 1_555
H2 C2 1_555 1_555
C3_2 C1_2 1_555 1_555
H3_2 C3_2 1_555 1_555
C4 C2 1_555 1_555
H4 C4 1_555 1_555
C5 C3_2 1_555 1_555
C6_2 C5 1_555 1_555
C7_2 C6_2 1_555 1_555
H5_2 C7_2 1_555 1_555
C8_2 C6_2 1_555 1_555
H6 C8_2 1_555 1_555
C9_2 C7_2 1_555 1_555
H7_2 C9_2 1_555 1_555
C10 N2 1_555 1_555
H8 C10 1_555 1_555
C11_2 H9_2 1_555 1_555
H10_2 C12_2 1_555 1_555
H11 O5 1_555 1_555
H12 O5 1_555 1_555
Ni2 O2 1_555 1_555
Ni3 N2 1_555 1_555
C4 C5 1_555 1_555
C8_2 C10 1_555 1_555
O5_2 Ni1_2 1_555 1_555
N1_2 Ni1_2 1_555 1_555
C2_2 N1_2 1_555 1_555
H2_2 C2_2 1_555 1_555
C4_2 C2_2 1_555 1_555
H4_2 C4_2 1_555 1_555
C6_3 C5_2 1_555 1_555
C8_3 C6_3 1_555 1_555
H6_2 C8_3 1_555 1_555
C10_2 N2_2 1_555 1_555
H8_2 C10_2 1_555 1_555
H11_2 O5_2 1_555 1_555
H12_2 O5_2 1_555 1_555
Ni2 N2_2 1_555 1_555
C4_2 C5_2 1_555 1_555
C8_3 C10_2 1_555 1_555
O1_3 C11_3 1_555 1_555
O2_2 C11_3 1_555 1_555
H1_3 C1_3 1_555 1_555
C3_3 C1_3 1_555 1_555
H3_3 C3_3 1_555 1_555
H5_3 C7_3 1_555 1_555
C9_3 C7_3 1_555 1_555
H7_3 C9_3 1_555 1_555
C11_3 H9_3 1_555 1_555
H10_3 C12_3 1_555 1_555
Ni3 O2_2 1_555 1_555
Ni3 O1_4 1_555 1_555
O1_4 C11_4 1_555 1_555
O6_2 C11_4 1_555 1_555
O3_3 Ni3 1_555 1_555
O4_3 C12_4 1_555 1_555
O5_3 Ni3 1_555 1_555
N1_3 Ni3 1_555 1_555
C1_4 N1_3 1_555 1_555
H1_4 C1_4 1_555 1_555
C2_3 N1_3 1_555 1_555
H2_3 C2_3 1_555 1_555
C3_4 C1_4 1_555 1_555
H3_4 C3_4 1_555 1_555
C4_3 C2_3 1_555 1_555
H4_3 C4_3 1_555 1_555
C5_3 C3_4 1_555 1_555
C11_4 H9_4 1_555 1_555
C12_4 O3_3 1_555 1_555
H10_4 C12_4 1_555 1_555
H11_3 O5_3 1_555 1_555
H12_3 O5_3 1_555 1_555
C4_3 C5_3 1_555 1_555
H8_3 C10_3 1_555 1_555
O5_4 Ni2 1_555 1_555
N1_4 Ni2 1_555 1_555
C2_4 N1_4 1_555 1_555
H2_4 C2_4 1_555 1_555
C4_4 C2_4 1_555 1_555
H4_4 C4_4 1_555 1_555
H11_4 O5_4 1_555 1_555
H12_4 O5_4 1_555 1_555
C4_4 C5_4 1_555 1_555
C8_4 C6_4 1_555 1_555
H8_4 C10_4 1_555 1_555
H5_4 C7_4 1_555 1_555
C9_4 C7_4 1_555 1_555
H7_4 C9_4 1_555 1_555

#END
