
###############################################################################
#
# This file contains modified crystal structure data generated from the
# MOF subset of the Cambridge Structural Database (CSD) v543 
# hosted by the Cambridge Crystallographic Data Centre (CCDC).
#
# This work is licensed under the Creative Commons
# Attribution-NonCommercial-ShareAlike 4.0 International License.
# To view a copy of this license, visit
# http://creativecommons.org/licenses/by-nc-sa/4.0/
# or send a letter to
# Creative Commons, PO Box 1866, Mountain View, CA 94042, USA.
#
# CIF created using the CSD Python API on 29 September 2022
# The structure has been converted into the P1 space group
# The structure has a 3D framework
# The original CSD entry FIJNEU is in the monoclinic crystal system
# The framework has been calculated to contain at least 10.0% void space
# The void calculation uses a probe of radius 1.32A, grid spacing 0.4
# H atom positions have been added when not included in the experimental data
#
###############################################################################

data_FIJNEU
_chemical_formula_moiety         '(C72 H64 Br24 Hg12 N12 Nd4 O30)n'
_symmetry_cell_setting           triclinic
_symmetry_space_group_name_H-M   'P 1'
_symmetry_Int_Tables_number      1
_space_group_name_Hall           'P 1'
loop_
_symmetry_equiv_pos_site_id
_symmetry_equiv_pos_as_xyz
1 x,y,z
_cell_length_a                   12.4524(7)
_cell_length_b                   9.7681(4)
_cell_length_c                   32.9005(11)
_cell_angle_alpha                90
_cell_angle_beta                 94.187(4)
_cell_angle_gamma                90
_cell_volume                     3991.21
loop_
_atom_site_label
_atom_site_type_symbol
_atom_site_fract_x
_atom_site_fract_y
_atom_site_fract_z
Hg3 Hg 0.10059(4) 0.03576(6) 0.763103(15)
Br5 Br 0.05145(10) 0.03686(11) 0.69096(4)
Br6 Br 0.13187(14) 0.03351(13) 0.83678(4)
Br7 Br 0.25478(9) 0.28154(12) 0.74992(3)
Nd6 Nd 0.50028(4) 0.72962(5) 0.000103(12)
Hg2 Hg 0.09055(4) 0.56048(5) 0.764843(11)
Nd1 Nd 0.00028(4) 0.77038(5) 0.500103(12)
Br4 Br 0.24522(9) 0.78154(12) 0.75008(3)
O1 O 0.1825(9) 0.6412(10) 0.4988(3)
O5 O 0.0329(7) 0.3702(9) 0.5580(3)
O6 O 0.0117(7) 0.5912(9) 0.5486(3)
O7 O 0.3555(7) 0.3696(9) 0.9518(3)
O8 O 0.3773(6) 0.5848(8) 0.9604(2)
N2 N 0.0754(5) 0.5416(6) 0.70075(18)
N3 N 0.1630(5) 0.5471(7) 0.82697(19)
C7 C 0.0481(8) 0.6497(9) 0.6741(3)
H5 H 0.0313 0.7332 0.6856
C8 C 0.0441(7) 0.6430(8) 0.6334(2)
H6 H 0.0478 0.7216 0.6176
C9 C 0.0339(6) 0.5096(7) 0.6149(2)
C10 C 0.0349(7) 0.3960(9) 0.6417(2)
H7 H 0.0172 0.3088 0.6321
C11 C 0.0636(6) 0.4189(8) 0.6834(2)
H8 H 0.0752 0.3426 0.7001
C12 C 0.0148(7) 0.4880(9) 0.5709(3)
C13 C 0.1689(6) 0.4179(7) 0.8412(2)
H9 H 0.1323 0.3452 0.8283
C14 C 0.2436(7) 0.4007(9) 0.8818(2)
H10 H 0.2631 0.3141 0.8915
C15 C 0.2755(6) 0.5041(8) 0.9005(2)
C16 C 0.2574(7) 0.6341(9) 0.8848(2)
H11 H 0.2818 0.7130 0.8983
C17 C 0.1986(9) 0.6368(12) 0.8464(3)
H12 H 0.1869 0.7233 0.8352
C18 C 0.3405(7) 0.4834(9) 0.9410(3)
Hg4 Hg 0.39941(4) 0.53576(6) 0.736897(15)
Nd3 Nd 0.49972(4) 0.27038(5) 0.999897(12)
O10 O 0.1129(7) 0.9002(9) 0.4553(2)
O12 O 0.1445(7) 0.8696(9) 0.5482(3)
H13 H 0.181852 0.583781 0.473877
H14 H 0.242228 0.708538 0.498736
Hg1 Hg 0.77713(5) 0.53273(5) 0.753232(13)
Br1 Br 0.93334(10) 0.32204(12) 0.77297(4)
Br2 Br 0.75675(12) 0.52995(12) 0.67916(4)
Br3 Br 0.92484(8) 0.75604(10) 0.77167(3)
O2 O 0.8191(9) 0.6579(10) 0.5006(3)
O3 O 0.5958(6) 0.3809(7) 0.9477(2)
O4 O 0.6129(7) 0.5998(9) 0.9553(2)
N1 N 0.7285(7) 0.5335(8) 0.8135(2)
C1 C 0.7030(8) 0.4093(10) 0.8348(3)
H1 H 0.7109 0.3298 0.8198
C2 C 0.6721(8) 0.3888(10) 0.8699(3)
H2 H 0.6575 0.3012 0.8791
C3 C 0.6608(8) 0.5033(9) 0.8942(3)
C4 C 0.6822(7) 0.6397(9) 0.8761(3)
H3 H 0.6812 0.7198 0.8914
C5 C 0.7033(11) 0.6406(14) 0.8362(4)
H4 H 0.6998 0.7252 0.8231
C6 C 0.6156(10) 0.4890(11) 0.9386(3)
Nd4 Nd 0.99972(4) 0.22962(5) 0.499897(12)
O9 O 0.9042(6) 0.8809(7) 0.5523(2)
O11 O 0.9671(7) 0.6298(9) 0.4420(3)
O13 O 0.8773(6) 0.9152(8) 0.4604(2)
H15 H 0.817205 0.599061 0.52515
H16 H 0.762405 0.729242 0.501109
O1_2 O 0.3175(9) 0.1412(10) 0.0012(3)
O10_2 O 0.3871(7) 0.4002(9) 0.0447(2)
O11_2 O 0.5329(7) 0.1298(9) 0.0580(3)
O13_2 O 0.6227(6) 0.4152(8) 0.0396(2)
H13_2 H 0.318148 0.0837805 0.026123
H14_2 H 0.257772 0.208538 0.00126355
Hg1_2 Hg 0.72287(5) 0.03273(5) 0.746768(13)
Hg2_2 Hg 0.40945(4) 0.06048(5) 0.735157(11)
Br2_2 Br 0.74325(12) 0.02995(12) 0.82084(4)
Br3_2 Br 0.57516(8) 0.25604(10) 0.72833(3)
Br5_2 Br 0.44855(10) 0.53686(11) 0.80904(4)
Br6_2 Br 0.36813(14) 0.53351(13) 0.66322(4)
O2_2 O 0.6809(9) 0.1579(10) 0.9994(3)
O4_2 O 0.8871(7) 0.0998(9) 0.5447(2)
O6_2 O 0.4883(7) 0.0912(9) 0.9514(3)
O8_2 O 0.1227(6) 0.0848(8) 0.5396(2)
N1_2 N 0.7715(7) 0.0335(8) 0.6865(2)
N2_2 N 0.4246(5) 0.0416(6) 0.79925(18)
N3_2 N 0.3370(5) 0.0471(7) 0.67303(19)
C3_2 C 0.8392(8) 0.0033(9) 0.6058(3)
C4_2 C 0.8178(7) 0.1397(9) 0.6239(3)
H3_2 H 0.8188 0.2198 0.6086
C5_2 C 0.7967(11) 0.1406(14) 0.6638(4)
H4_2 H 0.8002 0.2252 0.6769
C7_2 C 0.4519(8) 0.1497(9) 0.8259(3)
H5_2 H 0.4687 0.2332 0.8144
C8_2 C 0.4559(7) 0.1430(8) 0.8666(2)
H6_2 H 0.4522 0.2216 0.8824
C9_2 C 0.4661(6) 0.0096(7) 0.8851(2)
C15_2 C 0.2245(6) 0.0041(8) 0.5995(2)
C16_2 C 0.2426(7) 0.1341(9) 0.6152(2)
H11_2 H 0.2182 0.2130 0.6017
C17_2 C 0.3014(9) 0.1368(12) 0.6536(3)
H12_2 H 0.3131 0.2233 0.6648
H15_2 H 0.682795 0.0990615 0.97485
H16_2 H 0.737595 0.229242 0.998891
Br1_2 Br 0.56666(10) 0.82204(12) 0.72703(4)
O5_2 O 0.4671(7) 0.8702(9) 0.9420(3)
C1_2 C 0.7970(8) 0.9093(10) 0.6652(3)
H1_2 H 0.7891 0.8298 0.6802
C2_2 C 0.8279(8) 0.8888(10) 0.6301(3)
H2_2 H 0.8425 0.8012 0.6209
C6_2 C 0.8844(10) 0.9890(11) 0.5614(3)
C10_2 C 0.4651(7) 0.8960(9) 0.8583(2)
H7_2 H 0.4828 0.8088 0.8679
C11_2 C 0.4364(6) 0.9189(8) 0.8166(2)
H8_2 H 0.4248 0.8426 0.7999
C12_2 C 0.4852(7) 0.9880(9) 0.9291(3)
C13_2 C 0.3311(6) 0.9179(7) 0.6588(2)
H9_2 H 0.3677 0.8452 0.6717
C14_2 C 0.2564(7) 0.9007(9) 0.6182(2)
H10_2 H 0.2369 0.8141 0.6085
C18_2 C 0.1595(7) 0.9834(9) 0.5590(3)
Hg1_3 Hg 0.22287(5) 0.46727(5) 0.246768(13)
Br1_3 Br 0.06666(10) 0.67796(12) 0.22703(4)
Br2_3 Br 0.24325(12) 0.47005(12) 0.32084(4)
Br3_3 Br 0.07516(8) 0.24396(10) 0.22833(3)
O2_3 O 0.1809(9) 0.3421(10) 0.4994(3)
O3_2 O 0.4042(6) 0.6191(7) 0.0523(2)
N1_3 N 0.2715(7) 0.4665(8) 0.1865(2)
C1_3 C 0.2970(8) 0.5907(10) 0.1652(3)
H1_3 H 0.2891 0.6702 0.1802
C2_3 C 0.3279(8) 0.6112(10) 0.1301(3)
H2_3 H 0.3425 0.6988 0.1209
C3_3 C 0.3392(8) 0.4967(9) 0.1058(3)
C4_3 C 0.3178(7) 0.3603(9) 0.1239(3)
H3_3 H 0.3188 0.2802 0.1086
C5_3 C 0.2967(11) 0.3594(14) 0.1638(4)
H4_3 H 0.3002 0.2748 0.1769
C6_3 C 0.3844(10) 0.5110(11) 0.0614(3)
O9_2 O 0.0958(6) 0.1191(7) 0.4477(2)
H15_3 H 0.182795 0.400939 0.47485
H16_3 H 0.237595 0.270758 0.498891
Hg2_3 Hg 0.90945(4) 0.43952(5) 0.235157(11)
Br4_2 Br 0.75478(9) 0.21846(12) 0.24992(3)
O1_3 O 0.8175(9) 0.3588(10) 0.5012(3)
O6_3 O 0.9883(7) 0.4088(9) 0.4514(3)
O7_2 O 0.6445(7) 0.6304(9) 0.0482(3)
N2_3 N 0.9246(5) 0.4584(6) 0.29925(18)
N3_3 N 0.8370(5) 0.4529(7) 0.17303(19)
C7_3 C 0.9519(8) 0.3503(9) 0.3259(3)
H5_3 H 0.9687 0.2668 0.3144
C8_3 C 0.9559(7) 0.3570(8) 0.3666(2)
H6_3 H 0.9522 0.2784 0.3824
C9_3 C 0.9661(6) 0.4904(7) 0.3851(2)
C10_3 C 0.9651(7) 0.6040(9) 0.3583(2)
H7_3 H 0.9828 0.6912 0.3679
C11_3 C 0.9364(6) 0.5811(8) 0.3166(2)
H8_3 H 0.9248 0.6574 0.2999
C12_3 C 0.9852(7) 0.5120(9) 0.4291(3)
C13_3 C 0.8311(6) 0.5821(7) 0.1588(2)
H9_3 H 0.8677 0.6548 0.1717
C14_3 C 0.7564(7) 0.5993(9) 0.1182(2)
H10_3 H 0.7369 0.6859 0.1085
C15_3 C 0.7245(6) 0.4959(8) 0.0995(2)
C16_3 C 0.7426(7) 0.3659(9) 0.1152(2)
H11_3 H 0.7182 0.2870 0.1017
C17_3 C 0.8014(9) 0.3632(12) 0.1536(3)
H12_3 H 0.8131 0.2767 0.1648
C18_3 C 0.6595(7) 0.5166(9) 0.0590(3)
Hg4_2 Hg 0.60059(4) 0.46424(6) 0.263103(15)
O12_2 O 0.8555(7) 0.1304(9) 0.4518(3)
H13_3 H 0.818148 0.416219 0.526123
H14_3 H 0.757772 0.291462 0.501264
Hg3_2 Hg 0.89941(4) 0.96424(6) 0.236897(15)
Br5_3 Br 0.94855(10) 0.96314(11) 0.30904(4)
Br6_3 Br 0.86813(14) 0.96649(13) 0.16322(4)
Br7_2 Br 0.74522(9) 0.71846(12) 0.25008(3)
Br1_4 Br 0.43334(10) 0.17796(12) 0.27297(4)
C1_4 C 0.2030(8) 0.0907(10) 0.3348(3)
H1_4 H 0.2109 0.1702 0.3198
C2_4 C 0.1721(8) 0.1112(10) 0.3699(3)
H2_4 H 0.1575 0.1988 0.3791
C6_4 C 0.1156(10) 0.0110(11) 0.4386(3)
C10_4 C 0.5349(7) 0.1040(9) 0.1417(2)
H7_4 H 0.5172 0.1912 0.1321
C11_4 C 0.5636(6) 0.0811(8) 0.1834(2)
H8_4 H 0.5752 0.1574 0.2001
C12_4 C 0.5148(7) 0.0120(9) 0.0709(3)
C13_4 C 0.6689(6) 0.0821(7) 0.3412(2)
H9_4 H 0.6323 0.1548 0.3283
C14_4 C 0.7436(7) 0.0993(9) 0.3818(2)
H10_4 H 0.7631 0.1859 0.3915
C18_4 C 0.8405(7) 0.0166(9) 0.4410(3)
Hg1_4 Hg 0.27713(5) 0.96727(5) 0.253232(13)
Hg2_4 Hg 0.59055(4) 0.93952(5) 0.264843(11)
Br2_4 Br 0.25675(12) 0.97005(12) 0.17916(4)
Br3_4 Br 0.42484(8) 0.74396(10) 0.27167(3)
Br5_4 Br 0.55145(10) 0.46314(11) 0.19096(4)
Br6_4 Br 0.63187(14) 0.46649(13) 0.33678(4)
O2_4 O 0.3191(9) 0.8421(10) 0.0006(3)
O6_4 O 0.5117(7) 0.9088(9) 0.0486(3)
N1_4 N 0.2285(7) 0.9665(8) 0.3135(2)
N2_4 N 0.5754(5) 0.9584(6) 0.20075(18)
N3_4 N 0.6630(5) 0.9529(7) 0.32697(19)
C3_4 C 0.1608(8) 0.9967(9) 0.3942(3)
C4_4 C 0.1822(7) 0.8603(9) 0.3761(3)
H3_4 H 0.1812 0.7802 0.3914
C5_4 C 0.2033(11) 0.8594(14) 0.3362(4)
H4_4 H 0.1998 0.7748 0.3231
C7_4 C 0.5481(8) 0.8503(9) 0.1741(3)
H5_4 H 0.5313 0.7668 0.1856
C8_4 C 0.5441(7) 0.8570(8) 0.1334(2)
H6_4 H 0.5478 0.7784 0.1176
C9_4 C 0.5339(6) 0.9904(7) 0.1149(2)
C15_4 C 0.7755(6) 0.9959(8) 0.4005(2)
C16_4 C 0.7574(7) 0.8659(9) 0.3848(2)
H11_4 H 0.7818 0.7870 0.3983
C17_4 C 0.6986(9) 0.8632(12) 0.3464(3)
H12_4 H 0.6869 0.7767 0.3352
H15_4 H 0.317205 0.900939 0.0251498
H16_4 H 0.262405 0.770758 0.00110865
O1_4 O 0.6825(9) 0.8588(10) 0.9988(3)
H13_4 H 0.681852 0.916219 0.973877
H14_4 H 0.742228 0.791462 0.998736
loop_
_geom_bond_atom_site_label_1
_geom_bond_atom_site_label_2
_geom_bond_site_symmetry_1
_geom_bond_site_symmetry_2
Br5 Hg3 1_555 1_555
Br6 Hg3 1_555 1_555
Br7 Hg3 1_555 1_555
Nd1 O1 1_555 1_555
Br4 Hg2 1_555 1_555
O5 C12 1_555 1_555
O6 Nd1 1_555 1_555
O7 C18 1_555 1_555
O8 C18 1_555 1_555
N2 Hg2 1_555 1_555
N3 Hg2 1_555 1_555
C7 N2 1_555 1_555
H5 C7 1_555 1_555
C8 C7 1_555 1_555
H6 C8 1_555 1_555
C9 C8 1_555 1_555
C10 C9 1_555 1_555
H7 C10 1_555 1_555
C11 N2 1_555 1_555
H8 C11 1_555 1_555
C12 O6 1_555 1_555
C13 N3 1_555 1_555
H9 C13 1_555 1_555
C14 C13 1_555 1_555
H10 C14 1_555 1_555
C15 C14 1_555 1_555
C16 C15 1_555 1_555
H11 C16 1_555 1_555
C17 N3 1_555 1_555
H12 C17 1_555 1_555
C18 C15 1_555 1_555
Hg4 Br4 1_555 1_555
Nd3 O7 1_555 1_555
O10 Nd1 1_555 1_555
O12 Nd1 1_555 1_555
C9 C12 1_555 1_555
C10 C11 1_555 1_555
C16 C17 1_555 1_555
O1 H13 1_555 1_555
O1 H14 1_555 1_555
Hg1 Br1 1_555 1_555
Br2 Hg1 1_555 1_555
Br3 Hg1 1_555 1_555
O3 C6 1_555 1_555
O4 C6 1_555 1_555
N1 Hg1 1_555 1_555
C1 N1 1_555 1_555
H1 C1 1_555 1_555
C2 C1 1_555 1_555
H2 C2 1_555 1_555
C3 C2 1_555 1_555
C4 C3 1_555 1_555
H3 C4 1_555 1_555
C5 N1 1_555 1_555
H4 C5 1_555 1_555
C6 C3 1_555 1_555
Nd3 O3 1_555 1_555
C4 C5 1_555 1_555
O2 H15 1_555 1_555
O2 H16 1_555 1_555
O1_2 H13_2 1_555 1_555
O1_2 H14_2 1_555 1_555
Hg4 Br7 1_555 1_555
Br2_2 Hg1_2 1_555 1_555
Br3_2 Hg1_2 1_555 1_555
Br7 Hg2_2 1_555 1_555
Br5_2 Hg4 1_555 1_555
Br6_2 Hg4 1_555 1_555
O2_2 Nd3 1_555 1_555
O6_2 Nd3 1_555 1_555
N1_2 Hg1_2 1_555 1_555
N2_2 Hg2_2 1_555 1_555
N3_2 Hg2_2 1_555 1_555
C4_2 C3_2 1_555 1_555
H3_2 C4_2 1_555 1_555
C5_2 N1_2 1_555 1_555
H4_2 C5_2 1_555 1_555
C7_2 N2_2 1_555 1_555
H5_2 C7_2 1_555 1_555
C8_2 C7_2 1_555 1_555
H6_2 C8_2 1_555 1_555
C9_2 C8_2 1_555 1_555
C16_2 C15_2 1_555 1_555
H11_2 C16_2 1_555 1_555
C17_2 N3_2 1_555 1_555
H12_2 C17_2 1_555 1_555
Nd4 O4_2 1_555 1_555
Hg2_2 Br3_2 1_555 1_555
C4_2 C5_2 1_555 1_555
C16_2 C17_2 1_555 1_555
O2_2 H15_2 1_555 1_555
O2_2 H16_2 1_555 1_555
O9 C6_2 1_555 1_555
O5_2 C12_2 1_555 1_555
O12 C18_2 1_555 1_555
H1_2 C1_2 1_555 1_555
C2_2 C1_2 1_555 1_555
H2_2 C2_2 1_555 1_555
H7_2 C10_2 1_555 1_555
H8_2 C11_2 1_555 1_555
H9_2 C13_2 1_555 1_555
C14_2 C13_2 1_555 1_555
H10_2 C14_2 1_555 1_555
C10_2 C11_2 1_555 1_555
Hg1_3 Br1_3 1_555 1_555
Br2_3 Hg1_3 1_555 1_555
Br3_3 Hg1_3 1_555 1_555
O3_2 C6_3 1_555 1_555
O10_2 C6_3 1_555 1_555
N1_3 Hg1_3 1_555 1_555
C1_3 N1_3 1_555 1_555
H1_3 C1_3 1_555 1_555
C2_3 C1_3 1_555 1_555
H2_3 C2_3 1_555 1_555
C3_3 C2_3 1_555 1_555
C4_3 C3_3 1_555 1_555
H3_3 C4_3 1_555 1_555
C5_3 N1_3 1_555 1_555
H4_3 C5_3 1_555 1_555
C6_3 C3_3 1_555 1_555
Nd6 O3_2 1_555 1_555
C4_3 C5_3 1_555 1_555
O2_3 H15_3 1_555 1_555
O2_3 H16_3 1_555 1_555
Nd4 O1_3 1_555 1_555
Br4_2 Hg2_3 1_555 1_555
O11 C12_3 1_555 1_555
O6_3 Nd4 1_555 1_555
O7_2 C18_3 1_555 1_555
O13_2 C18_3 1_555 1_555
N2_3 Hg2_3 1_555 1_555
N3_3 Hg2_3 1_555 1_555
C7_3 N2_3 1_555 1_555
H5_3 C7_3 1_555 1_555
C8_3 C7_3 1_555 1_555
H6_3 C8_3 1_555 1_555
C9_3 C8_3 1_555 1_555
C10_3 C9_3 1_555 1_555
H7_3 C10_3 1_555 1_555
C11_3 N2_3 1_555 1_555
H8_3 C11_3 1_555 1_555
C12_3 O6_3 1_555 1_555
C13_3 N3_3 1_555 1_555
H9_3 C13_3 1_555 1_555
C14_3 C13_3 1_555 1_555
H10_3 C14_3 1_555 1_555
C15_3 C14_3 1_555 1_555
C16_3 C15_3 1_555 1_555
H11_3 C16_3 1_555 1_555
C17_3 N3_3 1_555 1_555
H12_3 C17_3 1_555 1_555
C18_3 C15_3 1_555 1_555
Hg4_2 Br4_2 1_555 1_555
Nd6 O7_2 1_555 1_555
O12_2 Nd4 1_555 1_555
C9_3 C12_3 1_555 1_555
C10_3 C11_3 1_555 1_555
C16_3 C17_3 1_555 1_555
O1_3 H13_3 1_555 1_555
O1_3 H14_3 1_555 1_555
Br5_3 Hg3_2 1_555 1_555
Br6_3 Hg3_2 1_555 1_555
Br7_2 Hg3_2 1_555 1_555
O9_2 C6_4 1_555 1_555
O11_2 C12_4 1_555 1_555
O12_2 C18_4 1_555 1_555
H1_4 C1_4 1_555 1_555
C2_4 C1_4 1_555 1_555
H2_4 C2_4 1_555 1_555
H7_4 C10_4 1_555 1_555
H8_4 C11_4 1_555 1_555
H9_4 C13_4 1_555 1_555
C14_4 C13_4 1_555 1_555
H10_4 C14_4 1_555 1_555
C10_4 C11_4 1_555 1_555
Hg4_2 Br7_2 1_555 1_555
Br2_4 Hg1_4 1_555 1_555
Br3_4 Hg1_4 1_555 1_555
Br7_2 Hg2_4 1_555 1_555
Br5_4 Hg4_2 1_555 1_555
Br6_4 Hg4_2 1_555 1_555
O2_4 Nd6 1_555 1_555
O6_4 Nd6 1_555 1_555
N1_4 Hg1_4 1_555 1_555
N2_4 Hg2_4 1_555 1_555
N3_4 Hg2_4 1_555 1_555
C4_4 C3_4 1_555 1_555
H3_4 C4_4 1_555 1_555
C5_4 N1_4 1_555 1_555
H4_4 C5_4 1_555 1_555
C7_4 N2_4 1_555 1_555
H5_4 C7_4 1_555 1_555
C8_4 C7_4 1_555 1_555
H6_4 C8_4 1_555 1_555
C9_4 C8_4 1_555 1_555
C16_4 C15_4 1_555 1_555
H11_4 C16_4 1_555 1_555
C17_4 N3_4 1_555 1_555
H12_4 C17_4 1_555 1_555
Hg2_4 Br3_4 1_555 1_555
C4_4 C5_4 1_555 1_555
C16_4 C17_4 1_555 1_555
O2_4 H15_4 1_555 1_555
O2_4 H16_4 1_555 1_555
O1_4 H13_4 1_555 1_555
O1_4 H14_4 1_555 1_555

#END
