
###############################################################################
#
# This file contains modified crystal structure data generated from the
# MOF subset of the Cambridge Structural Database (CSD) v543 
# hosted by the Cambridge Crystallographic Data Centre (CCDC).
#
# This work is licensed under the Creative Commons
# Attribution-NonCommercial-ShareAlike 4.0 International License.
# To view a copy of this license, visit
# http://creativecommons.org/licenses/by-nc-sa/4.0/
# or send a letter to
# Creative Commons, PO Box 1866, Mountain View, CA 94042, USA.
#
# CIF created using the CSD Python API on 29 September 2022
# The structure has been converted into the P1 space group
# The structure has a 3D framework
# The original CSD entry FIJNIY is in the monoclinic crystal system
# The framework has been calculated to contain at least 10.0% void space
# The void calculation uses a probe of radius 1.32A, grid spacing 0.4
# H atom positions have been added when not included in the experimental data
#
###############################################################################

data_FIJNIY
_chemical_formula_moiety         '(C72 H64 Br22 Er4 Hg12 N12 O30)n'
_symmetry_cell_setting           triclinic
_symmetry_space_group_name_H-M   'P 1'
_symmetry_Int_Tables_number      1
_space_group_name_Hall           'P 1'
loop_
_symmetry_equiv_pos_site_id
_symmetry_equiv_pos_as_xyz
1 x,y,z
_cell_length_a                   12.4429(5)
_cell_length_b                   9.6576(4)
_cell_length_c                   32.5554(12)
_cell_angle_alpha                90
_cell_angle_beta                 94.014(4)
_cell_angle_gamma                90
_cell_volume                     3902.54
loop_
_atom_site_label
_atom_site_type_symbol
_atom_site_fract_x
_atom_site_fract_y
_atom_site_fract_z
Hg3 Hg 0.10074(4) 0.02619(5) 0.763008(14)
Br5 Br 0.05117(8) 0.02657(9) 0.69015(4)
Br6 Br 0.13324(11) 0.02445(10) 0.83779(3)
Hg4 Hg 0.40841(3) 0.04230(4) 0.734981(11)
Br8 Br 0.25334(7) 0.27367(10) 0.74949(3)
Er6 Er 0.50085(3) 0.72958(3) 0.000151(10)
Hg2 Hg 0.09159(3) 0.54230(4) 0.765019(11)
Er1 Er 0.00085(3) 0.77042(3) 0.500151(10)
Br4 Br 0.24666(7) 0.77367(10) 0.75051(3)
O1 O 0.1808(7) 0.6579(9) 0.4961(3)
O5 O 0.0134(6) 0.3845(8) 0.5565(2)
O6 O 0.0140(5) 0.5999(7) 0.5473(2)
O7 O 0.3700(5) 0.3725(7) 0.9557(2)
O8 O 0.3820(6) 0.6032(8) 0.9604(2)
N2 N 0.0629(4) 0.5288(5) 0.69702(18)
N3 N 0.1566(5) 0.5389(6) 0.8267(2)
C7 C 0.0533(8) 0.6597(12) 0.6718(4)
H5 H 0.0566 0.7486 0.6827
C8 C 0.0405(5) 0.6335(7) 0.6351(2)
H6 H 0.0390 0.7135 0.6191
C9 C 0.0266(5) 0.5067(7) 0.6093(2)
C10 C 0.0352(6) 0.3980(9) 0.6383(3)
H7 H 0.0238 0.3095 0.6276
C11 C 0.0578(6) 0.4046(9) 0.6801(3)
H8 H 0.0691 0.3249 0.6958
C12 C 0.0169(5) 0.5007(7) 0.5719(2)
C13 C 0.1777(5) 0.4029(8) 0.8471(2)
H9 H 0.1500 0.3228 0.8345
C14 C 0.2366(6) 0.3932(9) 0.8838(3)
H10 H 0.2500 0.3070 0.8957
C15 C 0.2769(6) 0.5124(8) 0.9034(2)
C16 C 0.2503(7) 0.6107(10) 0.8862(3)
H11 H 0.2685 0.6908 0.9009
C17 C 0.1982(6) 0.6373(8) 0.8491(3)
H12 H 0.1924 0.7281 0.8398
C18 C 0.3477(7) 0.4921(9) 0.9430(3)
Hg5 Hg 0.39926(4) 0.52619(5) 0.736992(14)
Er3 Er 0.49915(3) 0.27042(3) 0.999849(10)
O10 O 0.1104(5) 0.8888(7) 0.4548(2)
O12 O 0.1300(5) 0.8725(7) 0.5443(2)
H13 H 0.181968 0.605629 0.469869
H14 H 0.237803 0.730027 0.497169
Hg1 Hg 0.77682(4) 0.52405(4) 0.753380(11)
Br1 Br 0.93121(7) 0.30875(9) 0.77308(3)
Br2 Br 0.75839(9) 0.52178(10) 0.67800(3)
Br3 Br 0.92638(6) 0.74708(8) 0.77162(3)
O2 O 0.8255(7) 0.6648(9) 0.4994(3)
O3 O 0.5942(5) 0.3763(7) 0.9485(2)
O4 O 0.6104(5) 0.6112(7) 0.9548(2)
N1 N 0.7332(5) 0.5189(7) 0.8182(2)
C1 C 0.7135(5) 0.3914(7) 0.8360(2)
H1 H 0.7275 0.3097 0.8222
C2 C 0.6756(7) 0.3877(10) 0.8719(3)
H2 H 0.6581 0.3018 0.8825
C3 C 0.6588(5) 0.5091(7) 0.8968(2)
C4 C 0.6782(6) 0.6355(8) 0.8776(3)
H3 H 0.6690 0.7190 0.8912
C5 C 0.7114(7) 0.6330(11) 0.8380(3)
H4 H 0.7188 0.7170 0.8245
C6 C 0.6071(6) 0.4992(8) 0.9358(3)
Er4 Er 0.99915(3) 0.22958(3) 0.499849(10)
O9 O 0.9058(5) 0.8763(7) 0.5515(2)
O11 O 0.9866(6) 0.6155(8) 0.4435(2)
O13 O 0.8820(6) 0.8968(8) 0.4604(2)
H15 H 0.82317 0.600383 0.523095
H16 H 0.769943 0.737796 0.501486
O1_2 O 0.3192(7) 0.1579(9) 0.0039(3)
O2_2 O 0.6745(7) 0.1648(9) 0.0006(3)
O10_2 O 0.3896(5) 0.3888(7) 0.0452(2)
O11_2 O 0.5134(6) 0.1155(8) 0.0565(2)
O13_2 O 0.6180(6) 0.3968(8) 0.0396(2)
H13_2 H 0.318032 0.105629 0.0301314
H14_2 H 0.262197 0.230027 0.002831
Hg1_2 Hg 0.72318(4) 0.02405(4) 0.746620(11)
Br2_2 Br 0.74161(9) 0.02178(10) 0.82200(3)
Br3_2 Br 0.57362(6) 0.24708(8) 0.72838(3)
Br5_2 Br 0.44883(8) 0.52657(9) 0.80985(4)
Br6_2 Br 0.36676(11) 0.52445(10) 0.66221(3)
O4_2 O 0.8896(5) 0.1112(7) 0.5452(2)
O6_2 O 0.4860(5) 0.0999(7) 0.9527(2)
O8_2 O 0.1180(6) 0.1032(8) 0.5396(2)
N1_2 N 0.7668(5) 0.0189(7) 0.6818(2)
N2_2 N 0.4371(4) 0.0288(5) 0.80298(18)
N3_2 N 0.3434(5) 0.0389(6) 0.6733(2)
C3_2 C 0.8412(5) 0.0091(7) 0.6032(2)
C4_2 C 0.8218(6) 0.1355(8) 0.6224(3)
H3_2 H 0.8310 0.2190 0.6088
C5_2 C 0.7886(7) 0.1330(11) 0.6620(3)
H4_2 H 0.7812 0.2170 0.6755
C7_2 C 0.4467(8) 0.1597(12) 0.8282(4)
H5_2 H 0.4434 0.2486 0.8173
C8_2 C 0.4595(5) 0.1335(7) 0.8649(2)
H6_2 H 0.4610 0.2135 0.8809
C9_2 C 0.4734(5) 0.0067(7) 0.8907(2)
C12_2 C 0.4831(5) 0.0007(7) 0.9281(2)
C15_2 C 0.2231(6) 0.0124(8) 0.5966(2)
C16_2 C 0.2497(7) 0.1107(10) 0.6138(3)
H11_2 H 0.2315 0.1908 0.5991
C17_2 C 0.3018(6) 0.1373(8) 0.6509(3)
H12_2 H 0.3076 0.2281 0.6602
H15_2 H 0.67683 0.100383 0.976905
H16_2 H 0.730057 0.237796 0.998514
Br1_2 Br 0.56879(7) 0.80875(9) 0.72692(3)
O5_2 O 0.4866(6) 0.8845(8) 0.9435(2)
C1_2 C 0.7865(5) 0.8914(7) 0.6640(2)
H1_2 H 0.7725 0.8097 0.6778
C2_2 C 0.8244(7) 0.8877(10) 0.6281(3)
H2_2 H 0.8419 0.8018 0.6175
C6_2 C 0.8929(6) 0.9992(8) 0.5642(3)
C10_2 C 0.4648(6) 0.8980(9) 0.8617(3)
H7_2 H 0.4762 0.8095 0.8724
C11_2 C 0.4422(6) 0.9046(9) 0.8199(3)
H8_2 H 0.4309 0.8249 0.8042
C13_2 C 0.3223(5) 0.9029(8) 0.6529(2)
H9_2 H 0.3500 0.8228 0.6655
C14_2 C 0.2634(6) 0.8932(9) 0.6162(3)
H10_2 H 0.2500 0.8070 0.6043
C18_2 C 0.1523(7) 0.9921(9) 0.5570(3)
Hg1_3 Hg 0.22318(4) 0.47595(4) 0.246620(11)
Br1_3 Br 0.06879(7) 0.69125(9) 0.22692(3)
Br2_3 Br 0.24161(9) 0.47822(10) 0.32200(3)
Br3_3 Br 0.07362(6) 0.25292(8) 0.22838(3)
O2_3 O 0.1745(7) 0.3352(9) 0.5006(3)
O3_2 O 0.4058(5) 0.6237(7) 0.0515(2)
N1_3 N 0.2668(5) 0.4811(7) 0.1818(2)
C1_3 C 0.2865(5) 0.6086(7) 0.1640(2)
H1_3 H 0.2725 0.6903 0.1778
C2_3 C 0.3244(7) 0.6123(10) 0.1281(3)
H2_3 H 0.3419 0.6982 0.1175
C3_3 C 0.3412(5) 0.4909(7) 0.1032(2)
C4_3 C 0.3218(6) 0.3645(8) 0.1224(3)
H3_3 H 0.3310 0.2810 0.1088
C5_3 C 0.2886(7) 0.3670(11) 0.1620(3)
H4_3 H 0.2812 0.2830 0.1755
C6_3 C 0.3929(6) 0.5008(8) 0.0642(3)
O9_2 O 0.0942(5) 0.1237(7) 0.4485(2)
H15_3 H 0.17683 0.399617 0.476905
H16_3 H 0.230057 0.262204 0.498514
Hg2_2 Hg 0.90841(3) 0.45770(4) 0.234981(11)
Br4_2 Br 0.75334(7) 0.22633(10) 0.24949(3)
O1_3 O 0.8192(7) 0.3421(9) 0.5039(3)
O6_3 O 0.9860(5) 0.4001(7) 0.4527(2)
O7_2 O 0.6300(5) 0.6275(7) 0.0443(2)
N2_3 N 0.9371(4) 0.4712(5) 0.30298(18)
N3_3 N 0.8434(5) 0.4611(6) 0.1733(2)
C7_3 C 0.9467(8) 0.3403(12) 0.3282(4)
H5_3 H 0.9434 0.2514 0.3173
C8_3 C 0.9595(5) 0.3665(7) 0.3649(2)
H6_3 H 0.9610 0.2865 0.3809
C9_3 C 0.9734(5) 0.4933(7) 0.3907(2)
C10_3 C 0.9648(6) 0.6020(9) 0.3617(3)
H7_3 H 0.9762 0.6905 0.3724
C11_3 C 0.9422(6) 0.5954(9) 0.3199(3)
H8_3 H 0.9309 0.6751 0.3042
C12_3 C 0.9831(5) 0.4993(7) 0.4281(2)
C13_3 C 0.8223(5) 0.5971(8) 0.1529(2)
H9_3 H 0.8500 0.6772 0.1655
C14_3 C 0.7634(6) 0.6068(9) 0.1162(3)
H10_3 H 0.7500 0.6930 0.1043
C15_3 C 0.7231(6) 0.4876(8) 0.0966(2)
C16_3 C 0.7497(7) 0.3893(10) 0.1138(3)
H11_3 H 0.7315 0.3092 0.0991
C17_3 C 0.8018(6) 0.3627(8) 0.1509(3)
H12_3 H 0.8076 0.2719 0.1602
C18_3 C 0.6523(7) 0.5079(9) 0.0570(3)
Hg5_2 Hg 0.60074(4) 0.47381(5) 0.263008(14)
Br7 Br 0.74666(7) 0.72633(10) 0.25051(3)
O12_2 O 0.8700(5) 0.1275(7) 0.4557(2)
H13_3 H 0.818032 0.394371 0.530131
H14_3 H 0.762197 0.269973 0.502831
Hg3_2 Hg 0.89926(4) 0.97381(5) 0.236992(14)
Br5_3 Br 0.94883(8) 0.97343(9) 0.30985(4)
Br6_3 Br 0.86676(11) 0.97555(10) 0.16221(3)
Hg4_2 Hg 0.59159(3) 0.95770(4) 0.265019(11)
Br1_4 Br 0.43121(7) 0.19125(9) 0.27308(3)
C1_4 C 0.2135(5) 0.1086(7) 0.3360(2)
H1_4 H 0.2275 0.1903 0.3222
C2_4 C 0.1756(7) 0.1123(10) 0.3719(3)
H2_4 H 0.1581 0.1982 0.3825
C6_4 C 0.1071(6) 0.0008(8) 0.4358(3)
C10_4 C 0.5352(6) 0.1020(9) 0.1383(3)
H7_4 H 0.5238 0.1905 0.1276
C11_4 C 0.5578(6) 0.0954(9) 0.1801(3)
H8_4 H 0.5691 0.1751 0.1958
C13_4 C 0.6777(5) 0.0971(8) 0.3471(2)
H9_4 H 0.6500 0.1772 0.3345
C14_4 C 0.7366(6) 0.1068(9) 0.3838(3)
H10_4 H 0.7500 0.1930 0.3957
C18_4 C 0.8477(7) 0.0079(9) 0.4430(3)
Hg1_4 Hg 0.27682(4) 0.97595(4) 0.253380(11)
Br2_4 Br 0.25839(9) 0.97822(10) 0.17800(3)
Br3_4 Br 0.42638(6) 0.75292(8) 0.27162(3)
Br5_4 Br 0.55117(8) 0.47343(9) 0.19015(4)
Br6_4 Br 0.63324(11) 0.47555(10) 0.33779(3)
O6_4 O 0.5140(5) 0.9001(7) 0.0473(2)
N1_4 N 0.2332(5) 0.9811(7) 0.3182(2)
N2_4 N 0.5629(4) 0.9712(5) 0.19702(18)
N3_4 N 0.6566(5) 0.9611(6) 0.3267(2)
C3_4 C 0.1588(5) 0.9909(7) 0.3968(2)
C4_4 C 0.1782(6) 0.8645(8) 0.3776(3)
H3_4 H 0.1690 0.7810 0.3912
C5_4 C 0.2114(7) 0.8670(11) 0.3380(3)
H4_4 H 0.2188 0.7830 0.3245
C7_4 C 0.5533(8) 0.8403(12) 0.1718(4)
H5_4 H 0.5566 0.7514 0.1827
C8_4 C 0.5405(5) 0.8665(7) 0.1351(2)
H6_4 H 0.5390 0.7865 0.1191
C9_4 C 0.5266(5) 0.9933(7) 0.1093(2)
C12_4 C 0.5169(5) 0.9993(7) 0.0719(2)
C15_4 C 0.7769(6) 0.9876(8) 0.4034(2)
C16_4 C 0.7503(7) 0.8893(10) 0.3862(3)
H11_4 H 0.7685 0.8092 0.4009
C17_4 C 0.6982(6) 0.8627(8) 0.3491(3)
H12_4 H 0.6924 0.7719 0.3398
H15_4 H 0.32317 0.899617 0.0230948
H16_4 H 0.269943 0.762204 0.00148571
O1_4 O 0.6808(7) 0.8421(9) 0.9961(3)
O2_4 O 0.3255(7) 0.8352(9) 0.9994(3)
H13_4 H 0.681968 0.894371 0.969869
H14_4 H 0.737803 0.769973 0.997169
loop_
_geom_bond_atom_site_label_1
_geom_bond_atom_site_label_2
_geom_bond_site_symmetry_1
_geom_bond_site_symmetry_2
Br5 Hg3 1_555 1_555
Br6 Hg3 1_555 1_555
Br8 Hg3 1_555 1_555
Hg4 Br8 1_555 1_555
Er1 O1 1_555 1_555
Br4 Hg2 1_555 1_555
O5 C12 1_555 1_555
O6 Er1 1_555 1_555
O7 C18 1_555 1_555
O8 C18 1_555 1_555
N2 Hg2 1_555 1_555
N3 Hg2 1_555 1_555
C7 N2 1_555 1_555
H5 C7 1_555 1_555
C8 C7 1_555 1_555
H6 C8 1_555 1_555
C9 C8 1_555 1_555
C10 C9 1_555 1_555
H7 C10 1_555 1_555
C11 N2 1_555 1_555
H8 C11 1_555 1_555
C12 O6 1_555 1_555
C13 N3 1_555 1_555
H9 C13 1_555 1_555
C14 C13 1_555 1_555
H10 C14 1_555 1_555
C15 C14 1_555 1_555
C16 C15 1_555 1_555
H11 C16 1_555 1_555
C17 N3 1_555 1_555
H12 C17 1_555 1_555
C18 C15 1_555 1_555
Hg5 Br4 1_555 1_555
Er3 O7 1_555 1_555
Br8 Hg2 1_555 1_555
O10 Er1 1_555 1_555
O12 Er1 1_555 1_555
C9 C12 1_555 1_555
C10 C11 1_555 1_555
C16 C17 1_555 1_555
Hg5 Br8 1_555 1_555
O1 H13 1_555 1_555
O1 H14 1_555 1_555
Hg1 Br1 1_555 1_555
Br2 Hg1 1_555 1_555
Br3 Hg1 1_555 1_555
O3 C6 1_555 1_555
O4 C6 1_555 1_555
N1 Hg1 1_555 1_555
C1 N1 1_555 1_555
H1 C1 1_555 1_555
C2 C1 1_555 1_555
H2 C2 1_555 1_555
C3 C2 1_555 1_555
C4 C3 1_555 1_555
H3 C4 1_555 1_555
C5 N1 1_555 1_555
H4 C5 1_555 1_555
C6 C3 1_555 1_555
Er3 O3 1_555 1_555
C4 C5 1_555 1_555
O2 H15 1_555 1_555
O2 H16 1_555 1_555
O1_2 H13_2 1_555 1_555
O1_2 H14_2 1_555 1_555
Br2_2 Hg1_2 1_555 1_555
Br3_2 Hg1_2 1_555 1_555
Br5_2 Hg5 1_555 1_555
Br6_2 Hg5 1_555 1_555
O6_2 Er3 1_555 1_555
N1_2 Hg1_2 1_555 1_555
N2_2 Hg4 1_555 1_555
N3_2 Hg4 1_555 1_555
C4_2 C3_2 1_555 1_555
H3_2 C4_2 1_555 1_555
C5_2 N1_2 1_555 1_555
H4_2 C5_2 1_555 1_555
C7_2 N2_2 1_555 1_555
H5_2 C7_2 1_555 1_555
C8_2 C7_2 1_555 1_555
H6_2 C8_2 1_555 1_555
C9_2 C8_2 1_555 1_555
C12_2 O6_2 1_555 1_555
C16_2 C15_2 1_555 1_555
H11_2 C16_2 1_555 1_555
C17_2 N3_2 1_555 1_555
H12_2 C17_2 1_555 1_555
Er4 O4_2 1_555 1_555
Hg4 Br3_2 1_555 1_555
C4_2 C5_2 1_555 1_555
C9_2 C12_2 1_555 1_555
C16_2 C17_2 1_555 1_555
O9 C6_2 1_555 1_555
O12 C18_2 1_555 1_555
H1_2 C1_2 1_555 1_555
C2_2 C1_2 1_555 1_555
H2_2 C2_2 1_555 1_555
H7_2 C10_2 1_555 1_555
H8_2 C11_2 1_555 1_555
H9_2 C13_2 1_555 1_555
C14_2 C13_2 1_555 1_555
H10_2 C14_2 1_555 1_555
C10_2 C11_2 1_555 1_555
Hg1_3 Br1_3 1_555 1_555
Br2_3 Hg1_3 1_555 1_555
Br3_3 Hg1_3 1_555 1_555
O3_2 C6_3 1_555 1_555
O10_2 C6_3 1_555 1_555
N1_3 Hg1_3 1_555 1_555
C1_3 N1_3 1_555 1_555
H1_3 C1_3 1_555 1_555
C2_3 C1_3 1_555 1_555
H2_3 C2_3 1_555 1_555
C3_3 C2_3 1_555 1_555
C4_3 C3_3 1_555 1_555
H3_3 C4_3 1_555 1_555
C5_3 N1_3 1_555 1_555
H4_3 C5_3 1_555 1_555
C6_3 C3_3 1_555 1_555
Er6 O3_2 1_555 1_555
C4_3 C5_3 1_555 1_555
O2_3 H15_3 1_555 1_555
O2_3 H16_3 1_555 1_555
Er4 O1_3 1_555 1_555
Br4_2 Hg2_2 1_555 1_555
O11 C12_3 1_555 1_555
O6_3 Er4 1_555 1_555
O7_2 C18_3 1_555 1_555
O13_2 C18_3 1_555 1_555
N2_3 Hg2_2 1_555 1_555
N3_3 Hg2_2 1_555 1_555
C7_3 N2_3 1_555 1_555
H5_3 C7_3 1_555 1_555
C8_3 C7_3 1_555 1_555
H6_3 C8_3 1_555 1_555
C9_3 C8_3 1_555 1_555
C10_3 C9_3 1_555 1_555
H7_3 C10_3 1_555 1_555
C11_3 N2_3 1_555 1_555
H8_3 C11_3 1_555 1_555
C12_3 O6_3 1_555 1_555
C13_3 N3_3 1_555 1_555
H9_3 C13_3 1_555 1_555
C14_3 C13_3 1_555 1_555
H10_3 C14_3 1_555 1_555
C15_3 C14_3 1_555 1_555
C16_3 C15_3 1_555 1_555
H11_3 C16_3 1_555 1_555
C17_3 N3_3 1_555 1_555
H12_3 C17_3 1_555 1_555
C18_3 C15_3 1_555 1_555
Hg5_2 Br4_2 1_555 1_555
Er6 O7_2 1_555 1_555
Br7 Hg2_2 1_555 1_555
O12_2 Er4 1_555 1_555
C9_3 C12_3 1_555 1_555
C10_3 C11_3 1_555 1_555
C16_3 C17_3 1_555 1_555
Hg5_2 Br7 1_555 1_555
O1_3 H13_3 1_555 1_555
O1_3 H14_3 1_555 1_555
Br5_3 Hg3_2 1_555 1_555
Br6_3 Hg3_2 1_555 1_555
Br7 Hg3_2 1_555 1_555
Hg4_2 Br7 1_555 1_555
O9_2 C6_4 1_555 1_555
O12_2 C18_4 1_555 1_555
H1_4 C1_4 1_555 1_555
C2_4 C1_4 1_555 1_555
H2_4 C2_4 1_555 1_555
H7_4 C10_4 1_555 1_555
H8_4 C11_4 1_555 1_555
H9_4 C13_4 1_555 1_555
C14_4 C13_4 1_555 1_555
H10_4 C14_4 1_555 1_555
C10_4 C11_4 1_555 1_555
Br2_4 Hg1_4 1_555 1_555
Br3_4 Hg1_4 1_555 1_555
Br5_4 Hg5_2 1_555 1_555
Br6_4 Hg5_2 1_555 1_555
O6_4 Er6 1_555 1_555
N1_4 Hg1_4 1_555 1_555
N2_4 Hg4_2 1_555 1_555
N3_4 Hg4_2 1_555 1_555
C4_4 C3_4 1_555 1_555
H3_4 C4_4 1_555 1_555
C5_4 N1_4 1_555 1_555
H4_4 C5_4 1_555 1_555
C7_4 N2_4 1_555 1_555
H5_4 C7_4 1_555 1_555
C8_4 C7_4 1_555 1_555
H6_4 C8_4 1_555 1_555
C9_4 C8_4 1_555 1_555
C12_4 O6_4 1_555 1_555
C16_4 C15_4 1_555 1_555
H11_4 C16_4 1_555 1_555
C17_4 N3_4 1_555 1_555
H12_4 C17_4 1_555 1_555
Hg4_2 Br3_4 1_555 1_555
C4_4 C5_4 1_555 1_555
C9_4 C12_4 1_555 1_555
C16_4 C17_4 1_555 1_555
O1_4 H13_4 1_555 1_555
O1_4 H14_4 1_555 1_555

#END
