
###############################################################################
#
# This file contains modified crystal structure data generated from the
# MOF subset of the Cambridge Structural Database (CSD) v543 
# hosted by the Cambridge Crystallographic Data Centre (CCDC).
#
# This work is licensed under the Creative Commons
# Attribution-NonCommercial-ShareAlike 4.0 International License.
# To view a copy of this license, visit
# http://creativecommons.org/licenses/by-nc-sa/4.0/
# or send a letter to
# Creative Commons, PO Box 1866, Mountain View, CA 94042, USA.
#
# CIF created using the CSD Python API on 29 September 2022
# The structure has been converted into the P1 space group
# The structure has a 3D framework
# The original CSD entry FIJNAQ is in the monoclinic crystal system
# The framework has been calculated to contain at least 10.0% void space
# The void calculation uses a probe of radius 1.32A, grid spacing 0.4
# H atom positions have been added when not included in the experimental data
#
###############################################################################

data_FIJNAQ
_chemical_formula_moiety         '(C72 H64 Br24 Hg12 N12 O30 Pr4)n'
_symmetry_cell_setting           triclinic
_symmetry_space_group_name_H-M   'P 1'
_symmetry_Int_Tables_number      1
_space_group_name_Hall           'P 1'
loop_
_symmetry_equiv_pos_site_id
_symmetry_equiv_pos_as_xyz
1 x,y,z
_cell_length_a                   12.4866(16)
_cell_length_b                   9.7837(5)
_cell_length_c                   32.9687(17)
_cell_angle_alpha                90
_cell_angle_beta                 94.246(7)
_cell_angle_gamma                90
_cell_volume                     4016.57
loop_
_atom_site_label
_atom_site_type_symbol
_atom_site_fract_x
_atom_site_fract_y
_atom_site_fract_z
Hg3 Hg 0.10075(11) 0.03720(12) 0.76275(3)
Br5 Br 0.0511(2) 0.0390(2) 0.69078(8)
Br6 Br 0.1313(3) 0.0349(2) 0.83681(8)
Br7 Br 0.2547(2) 0.2838(2) 0.74964(7)
Pr6 Pr 0.50084(11) 0.72996(10) 0.00009(3)
Hg2 Hg 0.09020(10) 0.56348(10) 0.76472(3)
Pr1 Pr 0.00084(11) 0.77004(10) 0.50009(3)
Br4 Br 0.2453(2) 0.7838(2) 0.75036(7)
O1 O 0.1779(18) 0.6483(17) 0.4979(5)
O5 O 0.0298(16) 0.3682(17) 0.5576(5)
O6 O 0.0011(15) 0.5910(15) 0.5505(5)
O7 O 0.3527(18) 0.368(2) 0.9536(6)
O8 O 0.3818(14) 0.5848(14) 0.9587(4)
N2 N 0.0738(12) 0.5455(12) 0.6974(4)
N3 N 0.1606(16) 0.5495(16) 0.8249(5)
C7 C 0.0647(16) 0.6430(17) 0.6744(5)
H5 H 0.0740 0.7291 0.6861
C8 C 0.0412(17) 0.6387(17) 0.6316(5)
H6 H 0.0342 0.7153 0.6149
C9 C 0.0303(16) 0.5051(16) 0.6181(5)
C10 C 0.0365(19) 0.392(2) 0.6409(6)
H7 H 0.0271 0.3050 0.6301
C11 C 0.0577(15) 0.4173(15) 0.6813(5)
H8 H 0.0616 0.3431 0.6989
C12 C 0.0234(18) 0.4967(18) 0.5696(6)
C13 C 0.1767(19) 0.416(2) 0.8431(6)
H9 H 0.1435 0.3405 0.8307
C14 C 0.240(2) 0.400(2) 0.8785(6)
H10 H 0.2621 0.3120 0.8862
C15 C 0.2717(16) 0.5055(15) 0.9027(5)
C16 C 0.2448(17) 0.6282(17) 0.8864(5)
H11 H 0.2600 0.7041 0.9028
C17 C 0.1993(19) 0.652(2) 0.8499(6)
H12 H 0.1933 0.7420 0.8407
C18 C 0.317(2) 0.483(2) 0.9416(8)
Hg4 Hg 0.39925(11) 0.53720(12) 0.73725(3)
Pr3 Pr 0.49916(11) 0.27004(10) 0.99991(3)
O10 O 0.1109(17) 0.8882(18) 0.4548(5)
O12 O 0.1473(18) 0.868(2) 0.5464(6)
H13 H 0.176953 0.591189 0.472977
H14 H 0.23667 0.716581 0.497581
Hg1 Hg 0.77767(12) 0.53423(11) 0.75350(3)
Br1 Br 0.9343(3) 0.3230(2) 0.77268(8)
Br2 Br 0.7566(3) 0.5316(3) 0.67901(8)
Br3 Br 0.9249(2) 0.7564(2) 0.77113(7)
O2 O 0.8251(18) 0.6610(17) 0.5014(5)
O3 O 0.5956(16) 0.3779(17) 0.9460(5)
O4 O 0.6109(17) 0.6118(18) 0.9548(5)
N1 N 0.7140(15) 0.5355(15) 0.8120(5)
C1 C 0.698(2) 0.396(3) 0.8315(8)
H1 H 0.7012 0.3171 0.8162
C2 C 0.6790(17) 0.3895(17) 0.8687(5)
H2 H 0.6793 0.3033 0.8806
C3 C 0.6568(14) 0.5083(14) 0.8949(5)
C4 C 0.6682(17) 0.6416(18) 0.8784(6)
H3 H 0.6557 0.7211 0.8928
C5 C 0.703(2) 0.643(3) 0.8347(7)
H4 H 0.7173 0.7272 0.8235
C6 C 0.5943(17) 0.4954(16) 0.9362(5)
Pr4 Pr 0.99916(11) 0.22996(10) 0.49991(3)
O9 O 0.9044(16) 0.8779(17) 0.5540(5)
O11 O 0.9702(16) 0.6318(17) 0.4424(5)
O13 O 0.8818(14) 0.9152(14) 0.4587(4)
H15 H 0.824071 0.602145 0.525906
H16 H 0.768709 0.732306 0.50222
O1_2 O 0.3221(18) 0.1483(17) 0.0021(5)
O10_2 O 0.3891(17) 0.3882(18) 0.0452(5)
O11_2 O 0.5298(16) 0.1318(17) 0.0576(5)
O13_2 O 0.6182(14) 0.4152(14) 0.0413(4)
H13_2 H 0.323047 0.0911894 0.0270227
H14_2 H 0.26333 0.216581 0.00241854
Hg1_2 Hg 0.72233(12) 0.03423(11) 0.74650(3)
Hg2_2 Hg 0.40980(10) 0.06348(10) 0.73528(3)
Br2_2 Br 0.7434(3) 0.0316(3) 0.82099(8)
Br3_2 Br 0.5751(2) 0.2564(2) 0.72887(7)
Br5_2 Br 0.4489(2) 0.5390(2) 0.80922(8)
Br6_2 Br 0.3687(3) 0.5349(2) 0.66319(8)
O2_2 O 0.6749(18) 0.1610(17) 0.9986(5)
O4_2 O 0.8891(17) 0.1118(18) 0.5452(5)
O6_2 O 0.4989(15) 0.0910(15) 0.9495(5)
O8_2 O 0.1182(14) 0.0848(14) 0.5413(4)
N1_2 N 0.7860(15) 0.0355(15) 0.6880(5)
N2_2 N 0.4262(12) 0.0455(12) 0.8026(4)
N3_2 N 0.3394(16) 0.0495(16) 0.6751(5)
C3_2 C 0.8432(14) 0.0083(14) 0.6051(5)
C4_2 C 0.8318(17) 0.1416(18) 0.6216(6)
H3_2 H 0.8443 0.2211 0.6072
C5_2 C 0.797(2) 0.143(3) 0.6653(7)
H4_2 H 0.7827 0.2272 0.6765
C7_2 C 0.4353(16) 0.1430(17) 0.8256(5)
H5_2 H 0.4260 0.2291 0.8139
C8_2 C 0.4588(17) 0.1387(17) 0.8684(5)
H6_2 H 0.4658 0.2153 0.8851
C9_2 C 0.4697(16) 0.0051(16) 0.8819(5)
C15_2 C 0.2283(16) 0.0055(15) 0.5973(5)
C16_2 C 0.2552(17) 0.1282(17) 0.6136(5)
H11_2 H 0.2400 0.2041 0.5972
C17_2 C 0.3007(19) 0.152(2) 0.6501(6)
H12_2 H 0.3067 0.2420 0.6593
H15_2 H 0.675929 0.102145 0.974094
H16_2 H 0.731291 0.232306 0.99778
Br1_2 Br 0.5657(3) 0.8230(2) 0.72732(8)
O5_2 O 0.4702(16) 0.8682(17) 0.9424(5)
C1_2 C 0.802(2) 0.896(3) 0.6685(8)
H1_2 H 0.7988 0.8171 0.6838
C2_2 C 0.8210(17) 0.8895(17) 0.6313(5)
H2_2 H 0.8207 0.8033 0.6194
C6_2 C 0.9057(17) 0.9954(16) 0.5638(5)
C10_2 C 0.4635(19) 0.892(2) 0.8591(6)
H7_2 H 0.4729 0.8050 0.8699
C11_2 C 0.4423(15) 0.9173(15) 0.8187(5)
H8_2 H 0.4384 0.8431 0.8011
C12_2 C 0.4766(18) 0.9967(18) 0.9304(6)
C13_2 C 0.3233(19) 0.916(2) 0.6569(6)
H9_2 H 0.3565 0.8405 0.6693
C14_2 C 0.260(2) 0.900(2) 0.6215(6)
H10_2 H 0.2379 0.8120 0.6138
C18_2 C 0.183(2) 0.983(2) 0.5584(8)
Hg1_3 Hg 0.22233(12) 0.46577(11) 0.24650(3)
Br1_3 Br 0.0657(3) 0.6770(2) 0.22732(8)
Br2_3 Br 0.2434(3) 0.4684(3) 0.32099(8)
Br3_3 Br 0.0751(2) 0.2436(2) 0.22887(7)
O2_3 O 0.1749(18) 0.3390(17) 0.4986(5)
O3_2 O 0.4044(16) 0.6221(17) 0.0540(5)
N1_3 N 0.2860(15) 0.4645(15) 0.1880(5)
C1_3 C 0.302(2) 0.604(3) 0.1685(8)
H1_3 H 0.2988 0.6829 0.1838
C2_3 C 0.3210(17) 0.6105(17) 0.1313(5)
H2_3 H 0.3207 0.6967 0.1194
C3_3 C 0.3432(14) 0.4917(14) 0.1051(5)
C4_3 C 0.3318(17) 0.3584(18) 0.1216(6)
H3_3 H 0.3443 0.2789 0.1072
C5_3 C 0.297(2) 0.357(3) 0.1653(7)
H4_3 H 0.2827 0.2728 0.1765
C6_3 C 0.4057(17) 0.5046(16) 0.0638(5)
O9_2 O 0.0956(16) 0.1221(17) 0.4460(5)
H15_3 H 0.175929 0.397855 0.474094
H16_3 H 0.231291 0.267694 0.49778
Hg2_3 Hg 0.90980(10) 0.43652(10) 0.23528(3)
Br4_2 Br 0.7547(2) 0.2162(2) 0.24964(7)
O1_3 O 0.8221(18) 0.3517(17) 0.5021(5)
O6_3 O 0.9989(15) 0.4090(15) 0.4495(5)
O7_2 O 0.6473(18) 0.632(2) 0.0464(6)
N2_3 N 0.9262(12) 0.4545(12) 0.3026(4)
N3_3 N 0.8394(16) 0.4505(16) 0.1751(5)
C7_3 C 0.9353(16) 0.3570(17) 0.3256(5)
H5_3 H 0.9260 0.2709 0.3139
C8_3 C 0.9588(17) 0.3613(17) 0.3684(5)
H6_3 H 0.9658 0.2847 0.3851
C9_3 C 0.9697(16) 0.4949(16) 0.3819(5)
C10_3 C 0.9635(19) 0.608(2) 0.3591(6)
H7_3 H 0.9729 0.6950 0.3699
C11_3 C 0.9423(15) 0.5827(15) 0.3187(5)
H8_3 H 0.9384 0.6569 0.3011
C12_3 C 0.9766(18) 0.5033(18) 0.4304(6)
C13_3 C 0.8233(19) 0.584(2) 0.1569(6)
H9_3 H 0.8565 0.6595 0.1693
C14_3 C 0.760(2) 0.600(2) 0.1215(6)
H10_3 H 0.7379 0.6880 0.1138
C15_3 C 0.7283(16) 0.4945(15) 0.0973(5)
C16_3 C 0.7552(17) 0.3718(17) 0.1136(5)
H11_3 H 0.7400 0.2959 0.0972
C17_3 C 0.8007(19) 0.348(2) 0.1501(6)
H12_3 H 0.8067 0.2580 0.1593
C18_3 C 0.683(2) 0.517(2) 0.0584(8)
Hg4_2 Hg 0.60075(11) 0.46280(12) 0.26275(3)
O12_2 O 0.8527(18) 0.132(2) 0.4536(6)
H13_3 H 0.823047 0.408811 0.527023
H14_3 H 0.76333 0.283419 0.502419
Hg3_2 Hg 0.89925(11) 0.96280(12) 0.23725(3)
Br5_3 Br 0.9489(2) 0.9610(2) 0.30922(8)
Br6_3 Br 0.8687(3) 0.9651(2) 0.16319(8)
Br7_2 Br 0.7453(2) 0.7162(2) 0.25036(7)
Br1_4 Br 0.4343(3) 0.1770(2) 0.27268(8)
C1_4 C 0.198(2) 0.104(3) 0.3315(8)
H1_4 H 0.2012 0.1829 0.3162
C2_4 C 0.1790(17) 0.1105(17) 0.3687(5)
H2_4 H 0.1793 0.1967 0.3806
C6_4 C 0.0943(17) 0.0046(16) 0.4362(5)
C10_4 C 0.5365(19) 0.108(2) 0.1409(6)
H7_4 H 0.5271 0.1950 0.1301
C11_4 C 0.5577(15) 0.0827(15) 0.1813(5)
H8_4 H 0.5616 0.1569 0.1989
C12_4 C 0.5234(18) 0.0033(18) 0.0696(6)
C13_4 C 0.6767(19) 0.084(2) 0.3431(6)
H9_4 H 0.6435 0.1595 0.3307
C14_4 C 0.740(2) 0.100(2) 0.3785(6)
H10_4 H 0.7621 0.1880 0.3862
C18_4 C 0.817(2) 0.017(2) 0.4416(8)
Hg1_4 Hg 0.27767(12) 0.96577(11) 0.25350(3)
Hg2_4 Hg 0.59020(10) 0.93652(10) 0.26472(3)
Br2_4 Br 0.2566(3) 0.9684(3) 0.17901(8)
Br3_4 Br 0.4249(2) 0.7436(2) 0.27113(7)
Br5_4 Br 0.5511(2) 0.4610(2) 0.19078(8)
Br6_4 Br 0.6313(3) 0.4651(2) 0.33681(8)
O2_4 O 0.3251(18) 0.8390(17) 0.0014(5)
O6_4 O 0.5011(15) 0.9090(15) 0.0505(5)
N1_4 N 0.2140(15) 0.9645(15) 0.3120(5)
N2_4 N 0.5738(12) 0.9545(12) 0.1974(4)
N3_4 N 0.6606(16) 0.9505(16) 0.3249(5)
C3_4 C 0.1568(14) 0.9917(14) 0.3949(5)
C4_4 C 0.1682(17) 0.8584(18) 0.3784(6)
H3_4 H 0.1557 0.7789 0.3928
C5_4 C 0.203(2) 0.857(3) 0.3347(7)
H4_4 H 0.2173 0.7728 0.3235
C7_4 C 0.5647(16) 0.8570(17) 0.1744(5)
H5_4 H 0.5740 0.7709 0.1861
C8_4 C 0.5412(17) 0.8613(17) 0.1316(5)
H6_4 H 0.5342 0.7847 0.1149
C9_4 C 0.5303(16) 0.9949(16) 0.1181(5)
C15_4 C 0.7717(16) 0.9945(15) 0.4027(5)
C16_4 C 0.7448(17) 0.8718(17) 0.3864(5)
H11_4 H 0.7600 0.7959 0.4028
C17_4 C 0.6993(19) 0.848(2) 0.3499(6)
H12_4 H 0.6933 0.7580 0.3407
H15_4 H 0.324071 0.897855 0.0259064
H16_4 H 0.268709 0.767694 0.00221972
O1_4 O 0.6779(18) 0.8517(17) 0.9979(5)
H13_4 H 0.676953 0.908811 0.972977
H14_4 H 0.73667 0.783419 0.997581
loop_
_geom_bond_atom_site_label_1
_geom_bond_atom_site_label_2
_geom_bond_site_symmetry_1
_geom_bond_site_symmetry_2
Br5 Hg3 1_555 1_555
Br6 Hg3 1_555 1_555
Br7 Hg3 1_555 1_555
Pr1 O1 1_555 1_555
Br4 Hg2 1_555 1_555
O5 C12 1_555 1_555
O6 Pr1 1_555 1_555
O7 C18 1_555 1_555
O8 C18 1_555 1_555
N2 Hg2 1_555 1_555
N3 Hg2 1_555 1_555
C7 N2 1_555 1_555
H5 C7 1_555 1_555
C8 C7 1_555 1_555
H6 C8 1_555 1_555
C9 C8 1_555 1_555
C10 C9 1_555 1_555
H7 C10 1_555 1_555
C11 N2 1_555 1_555
H8 C11 1_555 1_555
C12 O6 1_555 1_555
C13 N3 1_555 1_555
H9 C13 1_555 1_555
C14 C13 1_555 1_555
H10 C14 1_555 1_555
C15 C14 1_555 1_555
C16 C15 1_555 1_555
H11 C16 1_555 1_555
C17 N3 1_555 1_555
H12 C17 1_555 1_555
C18 C15 1_555 1_555
Hg4 Br4 1_555 1_555
Pr3 O7 1_555 1_555
O10 Pr1 1_555 1_555
O12 Pr1 1_555 1_555
C9 C12 1_555 1_555
C10 C11 1_555 1_555
C16 C17 1_555 1_555
O1 H13 1_555 1_555
O1 H14 1_555 1_555
Hg1 Br1 1_555 1_555
Br2 Hg1 1_555 1_555
Br3 Hg1 1_555 1_555
O3 C6 1_555 1_555
O4 C6 1_555 1_555
N1 Hg1 1_555 1_555
C1 N1 1_555 1_555
H1 C1 1_555 1_555
C2 C1 1_555 1_555
H2 C2 1_555 1_555
C3 C2 1_555 1_555
C4 C3 1_555 1_555
H3 C4 1_555 1_555
C5 N1 1_555 1_555
H4 C5 1_555 1_555
C6 C3 1_555 1_555
Pr3 O3 1_555 1_555
C4 C5 1_555 1_555
O2 H15 1_555 1_555
O2 H16 1_555 1_555
O1_2 H13_2 1_555 1_555
O1_2 H14_2 1_555 1_555
Hg4 Br7 1_555 1_555
Br2_2 Hg1_2 1_555 1_555
Br3_2 Hg1_2 1_555 1_555
Br7 Hg2_2 1_555 1_555
Br5_2 Hg4 1_555 1_555
Br6_2 Hg4 1_555 1_555
O2_2 Pr3 1_555 1_555
O6_2 Pr3 1_555 1_555
N1_2 Hg1_2 1_555 1_555
N2_2 Hg2_2 1_555 1_555
N3_2 Hg2_2 1_555 1_555
C4_2 C3_2 1_555 1_555
H3_2 C4_2 1_555 1_555
C5_2 N1_2 1_555 1_555
H4_2 C5_2 1_555 1_555
C7_2 N2_2 1_555 1_555
H5_2 C7_2 1_555 1_555
C8_2 C7_2 1_555 1_555
H6_2 C8_2 1_555 1_555
C9_2 C8_2 1_555 1_555
C16_2 C15_2 1_555 1_555
H11_2 C16_2 1_555 1_555
C17_2 N3_2 1_555 1_555
H12_2 C17_2 1_555 1_555
Pr4 O4_2 1_555 1_555
Hg2_2 Br3_2 1_555 1_555
C4_2 C5_2 1_555 1_555
C16_2 C17_2 1_555 1_555
O2_2 H15_2 1_555 1_555
O2_2 H16_2 1_555 1_555
O9 C6_2 1_555 1_555
O5_2 C12_2 1_555 1_555
O12 C18_2 1_555 1_555
H1_2 C1_2 1_555 1_555
C2_2 C1_2 1_555 1_555
H2_2 C2_2 1_555 1_555
H7_2 C10_2 1_555 1_555
H8_2 C11_2 1_555 1_555
H9_2 C13_2 1_555 1_555
C14_2 C13_2 1_555 1_555
H10_2 C14_2 1_555 1_555
C10_2 C11_2 1_555 1_555
Hg1_3 Br1_3 1_555 1_555
Br2_3 Hg1_3 1_555 1_555
Br3_3 Hg1_3 1_555 1_555
O3_2 C6_3 1_555 1_555
O10_2 C6_3 1_555 1_555
N1_3 Hg1_3 1_555 1_555
C1_3 N1_3 1_555 1_555
H1_3 C1_3 1_555 1_555
C2_3 C1_3 1_555 1_555
H2_3 C2_3 1_555 1_555
C3_3 C2_3 1_555 1_555
C4_3 C3_3 1_555 1_555
H3_3 C4_3 1_555 1_555
C5_3 N1_3 1_555 1_555
H4_3 C5_3 1_555 1_555
C6_3 C3_3 1_555 1_555
Pr6 O3_2 1_555 1_555
C4_3 C5_3 1_555 1_555
O2_3 H15_3 1_555 1_555
O2_3 H16_3 1_555 1_555
Pr4 O1_3 1_555 1_555
Br4_2 Hg2_3 1_555 1_555
O11 C12_3 1_555 1_555
O6_3 Pr4 1_555 1_555
O7_2 C18_3 1_555 1_555
O13_2 C18_3 1_555 1_555
N2_3 Hg2_3 1_555 1_555
N3_3 Hg2_3 1_555 1_555
C7_3 N2_3 1_555 1_555
H5_3 C7_3 1_555 1_555
C8_3 C7_3 1_555 1_555
H6_3 C8_3 1_555 1_555
C9_3 C8_3 1_555 1_555
C10_3 C9_3 1_555 1_555
H7_3 C10_3 1_555 1_555
C11_3 N2_3 1_555 1_555
H8_3 C11_3 1_555 1_555
C12_3 O6_3 1_555 1_555
C13_3 N3_3 1_555 1_555
H9_3 C13_3 1_555 1_555
C14_3 C13_3 1_555 1_555
H10_3 C14_3 1_555 1_555
C15_3 C14_3 1_555 1_555
C16_3 C15_3 1_555 1_555
H11_3 C16_3 1_555 1_555
C17_3 N3_3 1_555 1_555
H12_3 C17_3 1_555 1_555
C18_3 C15_3 1_555 1_555
Hg4_2 Br4_2 1_555 1_555
Pr6 O7_2 1_555 1_555
O12_2 Pr4 1_555 1_555
C9_3 C12_3 1_555 1_555
C10_3 C11_3 1_555 1_555
C16_3 C17_3 1_555 1_555
O1_3 H13_3 1_555 1_555
O1_3 H14_3 1_555 1_555
Br5_3 Hg3_2 1_555 1_555
Br6_3 Hg3_2 1_555 1_555
Br7_2 Hg3_2 1_555 1_555
O9_2 C6_4 1_555 1_555
O11_2 C12_4 1_555 1_555
O12_2 C18_4 1_555 1_555
H1_4 C1_4 1_555 1_555
C2_4 C1_4 1_555 1_555
H2_4 C2_4 1_555 1_555
H7_4 C10_4 1_555 1_555
H8_4 C11_4 1_555 1_555
H9_4 C13_4 1_555 1_555
C14_4 C13_4 1_555 1_555
H10_4 C14_4 1_555 1_555
C10_4 C11_4 1_555 1_555
Hg4_2 Br7_2 1_555 1_555
Br2_4 Hg1_4 1_555 1_555
Br3_4 Hg1_4 1_555 1_555
Br7_2 Hg2_4 1_555 1_555
Br5_4 Hg4_2 1_555 1_555
Br6_4 Hg4_2 1_555 1_555
O2_4 Pr6 1_555 1_555
O6_4 Pr6 1_555 1_555
N1_4 Hg1_4 1_555 1_555
N2_4 Hg2_4 1_555 1_555
N3_4 Hg2_4 1_555 1_555
C4_4 C3_4 1_555 1_555
H3_4 C4_4 1_555 1_555
C5_4 N1_4 1_555 1_555
H4_4 C5_4 1_555 1_555
C7_4 N2_4 1_555 1_555
H5_4 C7_4 1_555 1_555
C8_4 C7_4 1_555 1_555
H6_4 C8_4 1_555 1_555
C9_4 C8_4 1_555 1_555
C16_4 C15_4 1_555 1_555
H11_4 C16_4 1_555 1_555
C17_4 N3_4 1_555 1_555
H12_4 C17_4 1_555 1_555
Hg2_4 Br3_4 1_555 1_555
C4_4 C5_4 1_555 1_555
C16_4 C17_4 1_555 1_555
O2_4 H15_4 1_555 1_555
O2_4 H16_4 1_555 1_555
O1_4 H13_4 1_555 1_555
O1_4 H14_4 1_555 1_555

#END
