
###############################################################################
#
# This file contains modified crystal structure data generated from the
# MOF subset of the Cambridge Structural Database (CSD) v543 
# hosted by the Cambridge Crystallographic Data Centre (CCDC).
#
# This work is licensed under the Creative Commons
# Attribution-NonCommercial-ShareAlike 4.0 International License.
# To view a copy of this license, visit
# http://creativecommons.org/licenses/by-nc-sa/4.0/
# or send a letter to
# Creative Commons, PO Box 1866, Mountain View, CA 94042, USA.
#
# CIF created using the CSD Python API on 29 September 2022
# The structure has been converted into the P1 space group
# The structure has a 3D framework
# The original CSD entry FIPWOS is in the monoclinic crystal system
# The original CSD entry FIPWOS is in a Sohncke space group
# The framework has been calculated to contain at least 10.0% void space
# The void calculation uses a probe of radius 1.32A, grid spacing 0.4
#
###############################################################################

data_FIPWOS
_chemical_formula_moiety         '(C18 H26 N8 O6 Zn2)n'
_symmetry_cell_setting           triclinic
_symmetry_space_group_name_H-M   'P 1'
_symmetry_Int_Tables_number      1
_space_group_name_Hall           'P 1'
loop_
_symmetry_equiv_pos_site_id
_symmetry_equiv_pos_as_xyz
1 x,y,z
_cell_length_a                   9.3427(5)
_cell_length_b                   9.1269(5)
_cell_length_c                   9.6040(5)
_cell_angle_alpha                90
_cell_angle_beta                 114.455(2)
_cell_angle_gamma                90
_cell_volume                     745.463
loop_
_atom_site_label
_atom_site_type_symbol
_atom_site_fract_x
_atom_site_fract_y
_atom_site_fract_z
C1 C 0.4785(4) 0.6768(4) 0.4871(4)
H1 H 0.4336 0.7231 0.5456
C2 C 0.5679(3) 0.6422(3) 0.1578(3)
H2 H 0.6427 0.5688 0.1572
H3 H 0.6123 0.7376 0.1547
N2 N 0.3297(3) 0.4941(2) 0.0247(2)
H4 H 0.3794 0.4256 0.0876
N3 N 0.5590(3) 0.5525(2) 0.5291(2)
C3 C 0.6035(3) 0.5217(3) 0.4123(3)
H5 H 0.6617 0.4406 0.4079
C4 C 0.5488(3) 0.6294(3) 0.3036(3)
C7 C 0.4151(3) 0.6237(3) 0.0124(3)
H8 H 0.3488 0.7103 0.0000
H9 H 0.1076 0.3388 0.0661
N4 N 0.4677(3) 0.7295(2) 0.3533(2)
Zn3 Zn 0.59641(3) 0.43534(4) 0.71544(3)
Zn4 Zn 0.40359(3) 0.93534(4) 0.28456(3)
O1 O 0.4756(2) 0.48644(19) 0.8329(2)
O2 O 0.4906(3) 0.7309(2) 0.8256(2)
C6 C 0.4616(3) 0.6154(3) 0.8771(3)
H8_2 H 0.3488 0.7103 1.0000
C8 C 0.1000(3) 0.3408(3) 0.9623(3)
H10 H 0.1585 0.2577 0.9500
C9 C 0.1745(3) 0.4802(3) 0.9393(3)
O3 O 0.0971(2) 0.5773(2) 0.8494(2)
N5 N 0.8265(3) 0.4472(3) 0.8628(2)
N7 N 0.5323(3) 0.2295(2) 0.6467(2)
C5 C 0.9281(4) 0.3249(3) 0.8513(3)
H6 H 0.9211 0.3212 0.7478
H7 H 0.8882 0.2328 0.8713
H11 H 0.839(3) 0.450(5) 0.954(3)
H12 H 0.867(4) 0.524(5) 0.841(4)
N1 N 0.1735(3) 0.9472(3) 0.1372(2)
C5_2 C 0.0719(4) 0.8249(3) 0.1487(3)
H6_2 H 0.0789 0.8212 0.2522
H7_2 H 0.1118 0.7328 0.1287
H11_2 H 0.161(3) 0.950(5) 0.046(3)
O2_2 O 0.5094(3) 0.2309(2) 0.1744(2)
C6_2 C 0.5384(3) 0.1154(3) 0.1229(3)
H8_3 H 0.6512 0.2103 0.0000
O3_2 O 0.9029(2) 0.0773(2) 0.1506(2)
N6 N 0.4410(3) 0.0525(2) 0.4709(2)
C1_2 C 0.5215(4) 0.1768(4) 0.5129(4)
H1_2 H 0.5664 0.2231 0.4544
C2_2 C 0.4321(3) 0.1422(3) 0.8422(3)
H2_2 H 0.3573 0.0688 0.8428
H3_2 H 0.3877 0.2376 0.8453
C3_2 C 0.3965(3) 0.0217(3) 0.5877(3)
C4_2 C 0.4512(3) 0.1294(3) 0.6964(3)
C7_2 C 0.5849(3) 0.1237(3) 0.9876(3)
H8_4 H 0.6512 0.2103 1.0000
O1_2 O 0.5244(2) 0.98644(19) 0.1671(2)
C8_2 C 0.9000(3) 0.8408(3) 0.0377(3)
H10_2 H 0.8415 0.7577 0.0500
C9_2 C 0.8255(3) 0.9802(3) 0.0607(3)
N2_2 N 0.6703(3) 0.9941(2) 0.9753(2)
H4_2 H 0.6206 0.9256 0.9124
H5_2 H 0.3383 0.9406 0.5921
H9_2 H 0.8924 0.8388 0.9339
H12_2 H 0.133(4) 0.024(5) 0.159(4)
loop_
_geom_bond_atom_site_label_1
_geom_bond_atom_site_label_2
_geom_bond_site_symmetry_1
_geom_bond_site_symmetry_2
C1 H1 1_555 1_555
C2 H2 1_555 1_555
H3 C2 1_555 1_555
N2 H4 1_555 1_555
N3 C1 1_555 1_555
C3 N3 1_555 1_555
H5 C3 1_555 1_555
C4 C2 1_555 1_555
C7 C2 1_555 1_555
H8 C7 1_555 1_555
N4 C1 1_555 1_555
Zn3 N3 1_555 1_555
Zn4 N4 1_555 1_555
N2 C7 1_555 1_555
C3 C4 1_555 1_555
C4 N4 1_555 1_555
Zn3 O1 1_555 1_555
O1 C6 1_555 1_555
O2 C6 1_555 1_555
H10 C8 1_555 1_555
O3 C9 1_555 1_555
N5 Zn3 1_555 1_555
N7 Zn3 1_555 1_555
C8 C9 1_555 1_555
N5 C5 1_555 1_555
C5 H6 1_555 1_555
H7 C5 1_555 1_555
H11 N5 1_555 1_555
H12 N5 1_555 1_555
N1 C5_2 1_555 1_555
C5_2 H6_2 1_555 1_555
H7_2 C5_2 1_555 1_555
H11_2 N1 1_555 1_555
Zn4 N1 1_555 1_555
O2_2 C6_2 1_555 1_555
C1_2 H1_2 1_555 1_555
C2_2 H2_2 1_555 1_555
H3_2 C2_2 1_555 1_555
N6 C1_2 1_555 1_555
C3_2 N6 1_555 1_555
C4_2 C2_2 1_555 1_555
C7_2 C2_2 1_555 1_555
H8_4 C7_2 1_555 1_555
N7 C1_2 1_555 1_555
C3_2 C4_2 1_555 1_555
C4_2 N7 1_555 1_555
Zn4 O1_2 1_555 1_555
H10_2 C8_2 1_555 1_555
C8_2 C9_2 1_555 1_555
N2_2 H4_2 1_555 1_555

#END
