
###############################################################################
#
# This file contains modified crystal structure data generated from the
# MOF subset of the Cambridge Structural Database (CSD) v543 
# hosted by the Cambridge Crystallographic Data Centre (CCDC).
#
# This work is licensed under the Creative Commons
# Attribution-NonCommercial-ShareAlike 4.0 International License.
# To view a copy of this license, visit
# http://creativecommons.org/licenses/by-nc-sa/4.0/
# or send a letter to
# Creative Commons, PO Box 1866, Mountain View, CA 94042, USA.
#
# CIF created using the CSD Python API on 29 September 2022
# The structure has been converted into the P1 space group
# The structure has a 3D framework
# The original CSD entry FIPXEJ is in the monoclinic crystal system
# The original CSD entry FIPXEJ is in a Sohncke space group
# The framework has been calculated to contain at least 10.0% void space
# The void calculation uses a probe of radius 1.32A, grid spacing 0.4
#
###############################################################################

data_FIPXEJ
_chemical_formula_moiety         '(C37 H48 N16 O13 Zn4)n'
_symmetry_cell_setting           triclinic
_symmetry_space_group_name_H-M   'P 1'
_symmetry_Int_Tables_number      1
_space_group_name_Hall           'P 1'
loop_
_symmetry_equiv_pos_site_id
_symmetry_equiv_pos_as_xyz
1 x,y,z
_cell_length_a                   10.906(2)
_cell_length_b                   8.9687(17)
_cell_length_c                   14.585(3)
_cell_angle_alpha                90
_cell_angle_beta                 96.567(5)
_cell_angle_gamma                90
_cell_volume                     1417.24
loop_
_atom_site_label
_atom_site_type_symbol
_atom_site_fract_x
_atom_site_fract_y
_atom_site_fract_z
N2 N 0.2694(6) 0.6270(7) 0.2618(4)
N6 N 0.1572(6) 0.4367(7) 0.3075(4)
C9 C 0.1716(7) 0.5424(9) 0.3772(5)
C10 C 0.2416(7) 0.6562(9) 0.3500(5)
H14 H 0.2672 0.7415 0.3859
C15 C 0.2181(10) 0.4971(11) 0.2395(6)
H20 H 0.2229 0.4499 0.1817
C17 C 0.1293(7) 0.5262(10) 0.4697(5)
H23 H 0.1528 0.6181 0.5050
H24 H 0.1762 0.4431 0.5016
Zn4 Zn 0.06520(7) 0.24672(13) 0.28097(5)
Zn7 Zn 0.36913(7) 0.75245(12) 0.18782(5)
N11 N 0.1117(6) 0.7777(7) 0.7734(4)
O1 O 0.3972(5) 0.6877(5) 0.0650(3)
O2 O 0.4558(5) 0.4569(6) 0.1098(4)
C4 C 0.4479(8) 0.5609(10) 0.0524(5)
H6 H 0.6672 0.6364 0.0260
H7 H 0.6748 0.4585 0.0236
Zn1 Zn 0.93480(7) 0.74672(13) 0.71903(5)
Zn2 Zn 0.63087(7) 0.25245(12) 0.81218(5)
N1 N 0.5258(7) 0.7930(6) 0.2725(5)
H1 H 0.5734 0.8565 0.2419
H2 H 0.5039 0.8440 0.3229
C1 C 0.7868(9) 0.5000(11) 0.7760(7)
H3 H 0.8000 0.4496 0.7207
C2 C 0.7949(7) 0.6645(8) 0.8829(5)
H4 H 0.8151 0.7518 0.9183
N3 N 0.8408(6) 0.6301(7) 0.8010(4)
C3 C 0.7167(7) 0.5559(9) 0.9056(5)
N4 N 0.7123(6) 0.4464(7) 0.8358(4)
C5 C 0.5075(8) 0.5395(9) 0.9620(5)
H5 H 0.4853 0.4384 0.9363
C6 C 0.6473(7) 0.5476(9) 0.9869(5)
C7 C 0.3390(6) 0.7467(13) 0.7594(4)
H8 H 0.3970 0.7426 0.7120
H9 H 0.3503 0.8439 0.7913
H10 H 0.1217 0.8766 0.7894
H11 H 0.1253 0.7228 0.8268
C8 C 0.2088(7) 0.7368(13) 0.7126(4)
H12 H 0.2007 0.8036 0.6582
H13 H 0.1934 0.6337 0.6900
O3 O 0.9391(5) 0.6485(6) 0.6000(3)
C11 C 0.9735(7) 0.5186(9) 0.5771(5)
N7 N 0.4615(6) 0.6521(7) 0.8944(4)
H15 H 0.4954 0.7413 0.8978
C12 C 0.9921(8) 0.4979(9) 0.4757(5)
H16 H 0.9702 0.3936 0.4559
N8 N 0.9164(6) 0.6035(7) 0.4181(4)
H17 H 0.9502 0.6713 0.3854
C13 C 0.3700(8) 0.6246(9) 0.8278(6)
O4 O 0.3192(5) 0.4999(6) 0.8196(4)
C14 C 0.6065(8) 0.6653(9) 0.3081(6)
H18 H 0.6370 0.6129 0.2554
H19 H 0.5572 0.5936 0.3402
C16 C 0.7160(7) 0.7174(9) 0.3742(5)
H21 H 0.7683 0.7832 0.3404
H22 H 0.6851 0.7772 0.4238
O5 O 0.9998(5) 0.4108(6) 0.6306(4)
O6 O 0.7449(5) 0.4847(6) 0.4527(4)
C18 C 0.7927(8) 0.5939(9) 0.4166(5)
N9 N 0.4742(7) 0.2930(6) 0.7275(5)
O7 O 0.6028(5) 0.1877(5) 0.9350(3)
N10 N 0.7306(6) 0.1270(7) 0.7382(4)
N12 N 0.8428(6) 0.9367(7) 0.6925(4)
H1_2 H 0.4266 0.3565 0.7581
H2_2 H 0.4961 0.3440 0.6771
C1_2 C 0.2132(9) 0.0000(11) 0.2240(7)
C2_2 C 0.2051(7) 0.1645(8) 0.1171(5)
H4_2 H 0.1849 0.2518 0.0817
N3_2 N 0.1592(6) 0.1301(7) 0.1990(4)
C3_2 C 0.2833(7) 0.0559(9) 0.0944(5)
C5_2 C 0.4925(8) 0.0395(9) 0.0380(5)
C6_2 C 0.3527(7) 0.0476(9) 0.0131(5)
C7_2 C 0.6610(6) 0.2467(13) 0.2406(4)
H8_2 H 0.6030 0.2426 0.2880
H9_2 H 0.6497 0.3439 0.2087
N5 N 0.8883(6) 0.2777(7) 0.2266(4)
H10_2 H 0.8783 0.3766 0.2106
H11_2 H 0.8747 0.2228 0.1732
C8_2 C 0.7912(7) 0.2368(13) 0.2874(4)
H12_2 H 0.7993 0.3036 0.3418
H13_2 H 0.8066 0.1337 0.3100
O3_2 O 0.0609(5) 0.1485(6) 0.4000(3)
C11_2 C 0.0265(7) 0.0186(9) 0.4229(5)
N7_2 N 0.5385(6) 0.1521(7) 0.1056(4)
H15_2 H 0.5046 0.2413 0.1022
N8_2 N 0.0836(6) 0.1035(7) 0.5819(4)
H17_2 H 0.0498 0.1713 0.6146
C13_2 C 0.6300(8) 0.1246(9) 0.1722(6)
O4_2 O 0.6808(5) -0.0001(6) 0.1804(4)
C14_2 C 0.3935(8) 0.1653(9) 0.6919(6)
H18_2 H 0.3630 0.1129 0.7446
H19_2 H 0.4428 0.0936 0.6598
C16_2 C 0.2840(7) 0.2174(9) 0.6258(5)
H21_2 H 0.2317 0.2832 0.6596
H22_2 H 0.3149 0.2772 0.5762
C18_2 C 0.2073(8) 0.0939(9) 0.5834(5)
C4_2 C 0.5521(8) 0.0609(10) 0.9476(5)
H6_2 H 0.3328 0.1364 0.9740
C1_3 C 0.2132(9) 1.0000(11) 0.2240(7)
H3_2 H 0.2000 0.9496 0.2793
N4_2 N 0.2877(6) 0.9464(7) 0.1642(4)
H5_2 H 0.5147 0.9384 0.0637
C12_2 C 0.0079(8) 0.9979(9) 0.5243(5)
H16_2 H 0.0298 0.8936 0.5441
O4_3 O 0.6808(5) 0.9999(6) 0.1804(4)
O5_2 O 0.0002(5) 0.9108(6) 0.3694(4)
O6_2 O 0.2551(5) 0.9847(6) 0.5473(4)
C9_2 C 0.8284(7) 0.0424(9) 0.6228(5)
C10_2 C 0.7584(7) 0.1562(9) 0.6500(5)
H14_2 H 0.7328 0.2415 0.6141
C17_2 C 0.8707(7) 0.0262(10) 0.5303(5)
H23_2 H 0.8472 0.1181 0.4950
C15_2 C 0.7819(10) 0.9971(11) 0.7605(6)
H20_2 H 0.7771 0.9499 0.8183
H24_2 H 0.8238 0.9431 0.4984
O2_2 O 0.5442(5) 0.9569(6) 0.8902(4)
H7_2 H 0.3252 0.9585 0.9764
loop_
_geom_bond_atom_site_label_1
_geom_bond_atom_site_label_2
_geom_bond_site_symmetry_1
_geom_bond_site_symmetry_2
N2 C10 1_555 1_555
N6 C9 1_555 1_555
C9 C10 1_555 1_555
C10 H14 1_555 1_555
C15 N2 1_555 1_555
H20 C15 1_555 1_555
C17 C9 1_555 1_555
H23 C17 1_555 1_555
H24 C17 1_555 1_555
Zn4 N6 1_555 1_555
Zn7 N2 1_555 1_555
N6 C15 1_555 1_555
O1 C4 1_555 1_555
O2 C4 1_555 1_555
Zn7 O1 1_555 1_555
Zn1 N3 1_555 1_555
Zn2 N4 1_555 1_555
N1 H1 1_555 1_555
H2 N1 1_555 1_555
C1 H3 1_555 1_555
C2 H4 1_555 1_555
N3 C1 1_555 1_555
C3 C2 1_555 1_555
N4 C1 1_555 1_555
C5 H5 1_555 1_555
C6 C3 1_555 1_555
C7 H8 1_555 1_555
H9 C7 1_555 1_555
N11 H10 1_555 1_555
H11 N11 1_555 1_555
C8 C7 1_555 1_555
H12 C8 1_555 1_555
H13 C8 1_555 1_555
O3 Zn1 1_555 1_555
C11 O3 1_555 1_555
N7 C5 1_555 1_555
H15 N7 1_555 1_555
C12 C11 1_555 1_555
H16 C12 1_555 1_555
N8 C12 1_555 1_555
H17 N8 1_555 1_555
C13 C7 1_555 1_555
O4 C13 1_555 1_555
C14 N1 1_555 1_555
H18 C14 1_555 1_555
H19 C14 1_555 1_555
C16 C14 1_555 1_555
H21 C16 1_555 1_555
H22 C16 1_555 1_555
O5 C11 1_555 1_555
O6 C18 1_555 1_555
C18 N8 1_555 1_555
Zn7 N1 1_555 1_555
N9 Zn2 1_555 1_555
O7 Zn2 1_555 1_555
N10 Zn2 1_555 1_555
N12 Zn1 1_555 1_555
C2 N3 1_555 1_555
C3 N4 1_555 1_555
C5 C6 1_555 1_555
N11 C8 1_555 1_555
N7 C13 1_555 1_555
C16 C18 1_555 1_555
Zn4 N3_2 1_555 1_555
N9 H1_2 1_555 1_555
H2_2 N9 1_555 1_555
C2_2 H4_2 1_555 1_555
N3_2 C1_2 1_555 1_555
C3_2 C2_2 1_555 1_555
C6_2 C3_2 1_555 1_555
C7_2 H8_2 1_555 1_555
H9_2 C7_2 1_555 1_555
N5 H10_2 1_555 1_555
H11_2 N5 1_555 1_555
C8_2 C7_2 1_555 1_555
H12_2 C8_2 1_555 1_555
H13_2 C8_2 1_555 1_555
O3_2 Zn4 1_555 1_555
C11_2 O3_2 1_555 1_555
N7_2 C5_2 1_555 1_555
H15_2 N7_2 1_555 1_555
H17_2 N8_2 1_555 1_555
C13_2 C7_2 1_555 1_555
O4_2 C13_2 1_555 1_555
C14_2 N9 1_555 1_555
H18_2 C14_2 1_555 1_555
H19_2 C14_2 1_555 1_555
C16_2 C14_2 1_555 1_555
H21_2 C16_2 1_555 1_555
H22_2 C16_2 1_555 1_555
C18_2 N8_2 1_555 1_555
C2_2 N3_2 1_555 1_555
C5_2 C6_2 1_555 1_555
N5 C8_2 1_555 1_555
N7_2 C13_2 1_555 1_555
C16_2 C18_2 1_555 1_555
O7 C4_2 1_555 1_555
Zn7 N4_2 1_555 1_555
C1_3 H3_2 1_555 1_555
N4_2 C1_3 1_555 1_555
H16_2 C12_2 1_555 1_555
N10 C10_2 1_555 1_555
C9_2 C10_2 1_555 1_555
C10_2 H14_2 1_555 1_555
C17_2 C9_2 1_555 1_555
H23_2 C17_2 1_555 1_555
H20_2 C15_2 1_555 1_555
N12 C15_2 1_555 1_555

#END
