
###############################################################################
#
# This file contains modified crystal structure data generated from the
# MOF subset of the Cambridge Structural Database (CSD) v543 
# hosted by the Cambridge Crystallographic Data Centre (CCDC).
#
# This work is licensed under the Creative Commons
# Attribution-NonCommercial-ShareAlike 4.0 International License.
# To view a copy of this license, visit
# http://creativecommons.org/licenses/by-nc-sa/4.0/
# or send a letter to
# Creative Commons, PO Box 1866, Mountain View, CA 94042, USA.
#
# CIF created using the CSD Python API on 29 September 2022
# The structure has been converted into the P1 space group
# The structure has a 3D framework
# The original CSD entry FIQKIC is in the hexagonal crystal system
# The original CSD entry FIQKIC is in a Sohncke space group
# The framework has been calculated to contain at least 10.0% void space
# The void calculation uses a probe of radius 1.32A, grid spacing 0.4
#
###############################################################################

data_FIQKIC
_chemical_formula_moiety         '(C108 H72 N12 O72 Sr16)n'
_symmetry_cell_setting           triclinic
_symmetry_space_group_name_H-M   'P 1'
_symmetry_Int_Tables_number      1
_space_group_name_Hall           'P 1'
loop_
_symmetry_equiv_pos_site_id
_symmetry_equiv_pos_as_xyz
1 x,y,z
_cell_length_a                   13.4335(15)
_cell_length_b                   13.4335(15)
_cell_length_c                   23.428(2)
_cell_angle_alpha                90
_cell_angle_beta                 90
_cell_angle_gamma                120
_cell_volume                     3661.37
loop_
_atom_site_label
_atom_site_type_symbol
_atom_site_fract_x
_atom_site_fract_y
_atom_site_fract_z
Sr1 Sr 0.66142(8) 0.32283(17) 0.0000
O1 O 0.4770(10) 0.3730(9) 0.0096(4)
O2 O 0.5124(14) 0.2842(11) 0.0755(4)
O3 O 0.3290(14) 0.4656(11) 0.3053(4)
N1 N 0.3817(9) 0.3582(10) 0.2589(4)
H1 H 0.4086 0.3126 0.2637
C1 C 0.4670(12) 0.3361(14) 0.0580(7)
C2 C 0.4011(11) 0.3630(12) 0.1014(5)
C3 C 0.3286(12) 0.4056(16) 0.0872(6)
H2 H 0.3183 0.4170 0.0489
C4 C 0.2721(13) 0.4312(16) 0.1282(7)
C5 C 0.2870(12) 0.4184(16) 0.1869(5)
H3 H 0.2506 0.4376 0.2150
C6 C 0.3615(12) 0.3743(13) 0.2007(5)
C7 C 0.4167(12) 0.3488(12) 0.1594(5)
H4 H 0.4655 0.3216 0.1699
C8 C 0.3668(10) 0.3997(10) 0.3053(5)
C9 C 0.1957(11) 0.4829(10) 0.1171(5)
O5 O 0.1312(13) 0.4858(8) 0.1553(5)
O6 O 0.2037(12) 0.5217(15) 0.0668(5)
O7 O 0.3730(9) 0.4770(10) 0.6571(4)
O8 O 0.2842(11) 0.5124(14) 0.5912(4)
O9 O 0.4656(11) 0.3290(14) 0.3614(4)
N2 N 0.3582(10) 0.3817(9) 0.4078(4)
H7 H 0.3126 0.4086 0.4030
C10 C 0.3361(14) 0.4670(12) 0.6087(7)
C11 C 0.3630(12) 0.4011(11) 0.5653(5)
C12 C 0.4056(16) 0.3286(12) 0.5795(6)
H8 H 0.4170 0.3183 0.6178
C13 C 0.4312(16) 0.2721(13) 0.5385(7)
C14 C 0.4184(16) 0.2870(12) 0.4798(5)
H9 H 0.4376 0.2506 0.4517
C15 C 0.3743(13) 0.3615(12) 0.4660(5)
C16 C 0.3488(12) 0.4167(12) 0.5073(5)
H10 H 0.3216 0.4655 0.4968
C17 C 0.3997(10) 0.3668(10) 0.3614(5)
C18 C 0.4829(10) 0.1957(11) 0.5496(5)
O10 O 0.4858(8) 0.1312(13) 0.5114(5)
O11 O 0.5217(15) 0.2037(12) 0.5999(5)
Sr3 Sr 0.33859(19) 0.66142(8) 0.3333
Sr4 Sr 0.67717(17) 0.33859(19) 0.6667
Sr5 Sr 0.33858(8) 0.67717(17) 0.0000
Sr6 Sr 0.66141(19) 0.33858(8) 0.3333
Sr7 Sr 0.32283(17) 0.66141(19) 0.6667
Sr8 Sr 0.0000 0.5000 0.25813(8)
Sr9 Sr 0.5000 -0.0000 0.59147(8)
Sr10 Sr 0.5000 0.5000 0.74187(8)
Sr11 Sr -0.0000 0.5000 0.07520(8)
Sr12 Sr 0.5000 -0.0000 0.40853(8)
O13 O 0.5230(10) 0.6270(9) 0.0096(4)
O17 O 0.6710(14) 0.1366(18) 0.0280(4)
O22 O 0.7963(12) 0.4783(15) 0.0668(5)
Sr1_2 Sr 0.66142(8) 0.32283(17) 1.0000
Sr2 Sr 0.5000 0.5000 0.92480(8)
O4 O 0.6699(17) 0.6983(16) 0.9112(9)
H5 H 0.7003 0.7252 0.9428
H6 H 0.7152 0.6918 0.8889
O12 O 0.3301(17) 0.3017(16) 0.9112(9)
H11 H 0.2997 0.2748 0.9428
H12 H 0.2848 0.3082 0.8889
Sr5_2 Sr 0.33858(8) 0.67717(17) 1.0000
O14 O 0.8960(13) 0.3730(9) 0.9904(4)
O15 O 0.7718(18) 0.2842(11) 0.9245(4)
O16 O 0.4656(11) 0.1366(18) 0.9720(4)
O18 O 0.5142(8) 0.6454(15) 0.8220(5)
O19 O 0.4858(8) 0.3546(15) 0.8220(5)
O20 O 0.6454(15) 0.5142(8) 0.8447(5)
O21 O 0.3546(15) 0.4858(8) 0.8447(5)
O23 O 0.6820(19) 0.4783(15) 0.9332(5)
O24 O 0.3180(19) 0.5217(15) 0.9332(5)
Sr9_2 Sr 0.5000 1.0000 0.59147(8)
Sr12_2 Sr 0.5000 1.0000 0.40853(8)
Sr8_2 Sr 1.0000 0.5000 0.25813(8)
Sr11_2 Sr 1.0000 0.5000 0.07520(8)
O1_2 O 0.1040(13) 0.4770(10) 0.3429(4)
O2_2 O 0.2282(18) 0.5124(14) 0.4088(4)
N1_2 N 0.0235(13) 0.3817(9) 0.5922(4)
H1_2 H 0.0960 0.4086 0.5970
C1_2 C 0.1309(18) 0.4670(12) 0.3913(7)
C2_2 C 0.0381(16) 0.4011(11) 0.4347(5)
C7_2 C 0.0679(17) 0.4167(12) 0.4927(5)
H4_2 H 0.1439 0.4655 0.5032
H6_2 H 0.0234 0.7152 0.2222
O9_2 O 0.1366(18) 0.4656(11) 0.6947(4)
C12_2 C 0.0770(20) 0.4056(16) 0.9128(6)
H8_2 H 0.0987 0.4170 0.9511
C13_2 C 0.1591(21) 0.4312(16) 0.8718(7)
C14_2 C 0.1314(20) 0.4184(16) 0.8131(5)
H9_2 H 0.1870 0.4376 0.7850
C15_2 C 0.0128(18) 0.3743(13) 0.7993(5)
C17_2 C 0.0329(14) 0.3997(10) 0.6947(5)
C18_2 C 0.2872(15) 0.4829(10) 0.8829(5)
O12_2 O 0.0284(23) 0.3301(17) 0.2445(9)
H11_2 H 0.0249 0.2997 0.2761
O14_2 O 0.5230(16) 0.8960(13) 0.3237(4)
O15_2 O 0.4876(21) 0.7718(18) 0.2578(4)
O17_2 O 0.5344(23) 0.6710(14) 0.3614(4)
O20_2 O 0.1312(17) 0.6454(15) 0.1780(5)
O22_2 O 0.3180(19) 0.7963(12) 0.4001(5)
O23_2 O 0.2037(24) 0.6820(19) 0.2665(5)
O3_2 O 0.8634(18) 0.3290(14) 0.6386(4)
C3_2 C 0.9230(20) 0.3286(12) 0.4205(6)
H2_2 H 0.9013 0.3183 0.3822
C4_2 C 0.8409(21) 0.2721(13) 0.4615(7)
C5_2 C 0.8686(20) 0.2870(12) 0.5202(5)
H3_2 H 0.8130 0.2506 0.5483
C6_2 C 0.9872(18) 0.3615(12) 0.5340(5)
C8_2 C 0.9671(14) 0.3668(10) 0.6386(5)
O4_2 O 0.9716(23) 0.6699(17) 0.2445(9)
H5_2 H 0.9751 0.7003 0.2761
C9_2 C 0.7128(15) 0.1957(11) 0.4504(5)
O5_2 O 0.6454(15) 0.1312(13) 0.4886(5)
O6_2 O 0.6820(19) 0.2037(12) 0.4001(5)
N2_2 N 0.9765(13) 0.3582(10) 0.7411(4)
H7_2 H 0.9040 0.3126 0.7363
C10_2 C 0.8691(18) 0.3361(14) 0.9420(7)
C11_2 C 0.9619(16) 0.3630(12) 0.8986(5)
C16_2 C 0.9321(17) 0.3488(12) 0.8406(5)
H10_2 H 0.8561 0.3216 0.8301
H12_2 H 0.9766 0.2848 0.2222
O13_2 O 0.8960(13) 0.5230(10) 0.3429(4)
O18_2 O 0.8688(17) 0.5142(8) 0.1553(5)
O21_2 O 0.8688(17) 0.3546(15) 0.1780(5)
O24_2 O 0.7963(24) 0.3180(19) 0.2665(5)
C12_3 C 0.6714(12) 0.0770(20) 0.2461(6)
H8_3 H 0.6817 0.0987 0.2844
C13_3 C 0.7279(13) 0.1591(21) 0.2051(7)
C14_3 C 0.7130(12) 0.1314(20) 0.1464(5)
H9_3 H 0.7494 0.1870 0.1183
C15_3 C 0.6385(12) 0.0128(18) 0.1326(5)
C17_3 C 0.6332(10) 0.0329(14) 0.0280(5)
C18_3 C 0.8043(11) 0.2872(15) 0.2162(5)
O1_3 O 0.6270(9) 0.1040(13) 0.6763(4)
O2_3 O 0.7158(11) 0.2282(18) 0.7422(4)
N1_3 N 0.6418(10) 0.0235(13) 0.9256(4)
H1_3 H 0.6874 0.0960 0.9304
C1_3 C 0.6639(14) 0.1309(18) 0.7247(7)
C2_3 C 0.6370(12) 0.0381(16) 0.7681(5)
C7_3 C 0.6512(12) 0.0679(17) 0.8261(5)
H4_3 H 0.6784 0.1439 0.8366
H6_3 H 0.3082 0.0234 0.5556
O12_3 O 0.6983(16) 0.0284(23) 0.5779(9)
H11_3 H 0.7252 0.0249 0.6095
O14_3 O 0.6270(9) 0.5230(16) 0.6571(4)
O15_3 O 0.7158(11) 0.4876(21) 0.5912(4)
O17_3 O 0.8634(18) 0.5344(23) 0.6947(4)
O22_3 O 0.5217(15) 0.3180(19) 0.7335(5)
N2_3 N 0.6183(9) 0.9765(13) 0.0744(4)
H7_3 H 0.5914 0.9040 0.0696
C10_3 C 0.5330(12) 0.8691(18) 0.2753(7)
C11_3 C 0.5989(11) 0.9619(16) 0.2319(5)
C16_3 C 0.5833(12) 0.9321(17) 0.1739(5)
H10_3 H 0.5345 0.8561 0.1634
O3_3 O 0.5344(11) 0.8634(18) 0.9720(4)
C3_3 C 0.5944(16) 0.9230(20) 0.7539(6)
H2_3 H 0.5830 0.9013 0.7156
C4_3 C 0.5688(16) 0.8409(21) 0.7949(7)
C5_3 C 0.5816(16) 0.8686(20) 0.8536(5)
H3_3 H 0.5624 0.8130 0.8817
C6_3 C 0.6257(13) 0.9872(18) 0.8674(5)
C8_3 C 0.6003(10) 0.9671(14) 0.9720(5)
O4_3 O 0.3017(16) 0.9716(23) 0.5779(9)
H5_3 H 0.2748 0.9751 0.6095
C9_3 C 0.5171(10) 0.7128(15) 0.7838(5)
O6_3 O 0.4783(15) 0.6820(19) 0.7335(5)
H12_3 H 0.6918 0.9766 0.5556
O13_3 O 0.3730(9) 0.8960(13) 0.6763(4)
O18_3 O 0.3546(15) 0.8688(17) 0.4886(5)
O21_3 O 0.5142(8) 0.8688(17) 0.5114(5)
O24_3 O 0.4783(15) 0.7963(24) 0.5999(5)
O2_4 O 0.4876(14) 0.7158(11) 0.0755(4)
O3_4 O 0.6710(14) 0.5344(11) 0.3053(4)
N1_4 N 0.6183(9) 0.6418(10) 0.2589(4)
H1_4 H 0.5914 0.6874 0.2637
C1_4 C 0.5330(12) 0.6639(14) 0.0580(7)
C2_4 C 0.5989(11) 0.6370(12) 0.1014(5)
C3_4 C 0.6714(12) 0.5944(16) 0.0872(6)
H2_4 H 0.6817 0.5830 0.0489
C4_4 C 0.7279(13) 0.5688(16) 0.1282(7)
C5_4 C 0.7130(12) 0.5816(16) 0.1869(5)
H3_4 H 0.7494 0.5624 0.2150
C6_4 C 0.6385(12) 0.6257(13) 0.2007(5)
C7_4 C 0.5833(12) 0.6512(12) 0.1594(5)
H4_4 H 0.5345 0.6784 0.1699
C8_4 C 0.6332(10) 0.6003(10) 0.3053(5)
C9_4 C 0.8043(11) 0.5171(10) 0.1171(5)
N2_4 N 0.6418(10) 0.6183(9) 0.4078(4)
H7_4 H 0.6874 0.5914 0.4030
C10_4 C 0.6639(14) 0.5330(12) 0.6087(7)
C11_4 C 0.6370(12) 0.5989(11) 0.5653(5)
C12_4 C 0.5944(16) 0.6714(12) 0.5795(6)
H8_4 H 0.5830 0.6817 0.6178
C13_4 C 0.5688(16) 0.7279(13) 0.5385(7)
C14_4 C 0.5816(16) 0.7130(12) 0.4798(5)
H9_4 H 0.5624 0.7494 0.4517
C15_4 C 0.6257(13) 0.6385(12) 0.4660(5)
C16_4 C 0.6512(12) 0.5833(12) 0.5073(5)
H10_4 H 0.6784 0.5345 0.4968
C17_4 C 0.6003(10) 0.6332(10) 0.3614(5)
C18_4 C 0.5171(10) 0.8043(11) 0.5496(5)
O17_4 O 0.3290(14) 0.8634(18) 0.0280(4)
O14_4 O 0.1040(13) 0.6270(9) 0.9904(4)
O15_4 O 0.2282(18) 0.7158(11) 0.9245(4)
O3_5 O 0.1366(18) 0.6710(14) 0.6386(4)
C3_5 C 0.0770(20) 0.6714(12) 0.4205(6)
H2_5 H 0.0987 0.6817 0.3822
C4_5 C 0.1591(21) 0.7279(13) 0.4615(7)
C5_5 C 0.1314(20) 0.7130(12) 0.5202(5)
H3_5 H 0.1870 0.7494 0.5483
C6_5 C 0.0128(18) 0.6385(12) 0.5340(5)
C8_5 C 0.0329(14) 0.6332(10) 0.6386(5)
C9_5 C 0.2872(15) 0.8043(11) 0.4504(5)
N2_5 N 0.0235(13) 0.6418(10) 0.7411(4)
H7_5 H 0.0960 0.6874 0.7363
C10_5 C 0.1309(18) 0.6639(14) 0.9420(7)
C11_5 C 0.0381(16) 0.6370(12) 0.8986(5)
C16_5 C 0.0679(17) 0.6512(12) 0.8406(5)
H10_5 H 0.1439 0.6784 0.8301
O2_5 O 0.7718(18) 0.4876(14) 0.4088(4)
N1_5 N 0.9765(13) 0.6183(9) 0.5922(4)
H1_5 H 0.9040 0.5914 0.5970
C1_5 C 0.8691(18) 0.5330(12) 0.3913(7)
C2_5 C 0.9619(16) 0.5989(11) 0.4347(5)
C7_5 C 0.9321(17) 0.5833(12) 0.4927(5)
H4_5 H 0.8561 0.5345 0.5032
C12_5 C 0.9230(20) 0.5944(16) 0.9128(6)
H8_5 H 0.9013 0.5830 0.9511
C13_5 C 0.8409(21) 0.5688(16) 0.8718(7)
C14_5 C 0.8686(20) 0.5816(16) 0.8131(5)
H9_5 H 0.8130 0.5624 0.7850
C15_5 C 0.9872(18) 0.6257(13) 0.7993(5)
C17_5 C 0.9671(14) 0.6003(10) 0.6947(5)
C18_5 C 0.7128(15) 0.5171(10) 0.8829(5)
O14_5 O 0.4770(16) 0.1040(13) 0.3237(4)
O15_5 O 0.5124(21) 0.2282(18) 0.2578(4)
N2_6 N 0.3817(9) 0.0235(13) 0.0744(4)
H7_6 H 0.4086 0.0960 0.0696
C10_6 C 0.4670(12) 0.1309(18) 0.2753(7)
C11_6 C 0.4011(11) 0.0381(16) 0.2319(5)
C16_6 C 0.4167(12) 0.0679(17) 0.1739(5)
H10_6 H 0.4655 0.1439 0.1634
C3_6 C 0.4056(16) 0.0770(20) 0.7539(6)
H2_6 H 0.4170 0.0987 0.7156
C4_6 C 0.4312(16) 0.1591(21) 0.7949(7)
C5_6 C 0.4184(16) 0.1314(20) 0.8536(5)
H3_6 H 0.4376 0.1870 0.8817
C6_6 C 0.3743(13) 0.0128(18) 0.8674(5)
C8_6 C 0.3997(10) 0.0329(14) 0.9720(5)
C9_6 C 0.4829(10) 0.2872(15) 0.7838(5)
C12_6 C 0.3286(12) 0.9230(20) 0.2461(6)
H8_6 H 0.3183 0.9013 0.2844
C13_6 C 0.2721(13) 0.8409(21) 0.2051(7)
C14_6 C 0.2870(12) 0.8686(20) 0.1464(5)
H9_6 H 0.2506 0.8130 0.1183
C15_6 C 0.3615(12) 0.9872(18) 0.1326(5)
C17_6 C 0.3668(10) 0.9671(14) 0.0280(5)
C18_6 C 0.1957(11) 0.7128(15) 0.2162(5)
O2_6 O 0.2842(11) 0.7718(18) 0.7422(4)
N1_6 N 0.3582(10) 0.9765(13) 0.9256(4)
H1_6 H 0.3126 0.9040 0.9304
C1_6 C 0.3361(14) 0.8691(18) 0.7247(7)
C2_6 C 0.3630(12) 0.9619(16) 0.7681(5)
C7_6 C 0.3488(12) 0.9321(17) 0.8261(5)
H4_6 H 0.3216 0.8561 0.8366
O4_4 O 0.3017(16) 0.3301(17) 0.7555(9)
H5_4 H 0.2748 0.2997 0.7239
H6_4 H 0.3082 0.2848 0.7778
O12_4 O 0.6983(16) 0.6699(17) 0.7555(9)
H11_4 H 0.7252 0.7003 0.7239
H12_4 H 0.6918 0.7152 0.7778
H6_5 H 0.0234 0.3082 0.1111
O12_5 O 0.0284(23) 0.6983(16) 0.0888(9)
H11_5 H 0.0249 0.7252 0.0572
O4_5 O 0.9716(23) 0.3017(16) 0.0888(9)
H5_5 H 0.9751 0.2748 0.0572
H12_5 H 0.9766 0.6918 0.1111
H6_6 H 0.7152 0.0234 0.4444
O12_6 O 0.3301(17) 0.0284(23) 0.4221(9)
H11_6 H 0.2997 0.0249 0.3905
O4_6 O 0.6699(17) 0.9716(23) 0.4221(9)
H5_6 H 0.7003 0.9751 0.3905
H12_6 H 0.2848 0.9766 0.4444
loop_
_geom_bond_atom_site_label_1
_geom_bond_atom_site_label_2
_geom_bond_site_symmetry_1
_geom_bond_site_symmetry_2
Sr1 O1 1_555 1_555
O1 C1 1_555 1_555
O2 Sr1 1_555 1_555
O3 C8 1_555 1_555
N1 H1 1_555 1_555
C1 O2 1_555 1_555
C2 C1 1_555 1_555
C3 C2 1_555 1_555
H2 C3 1_555 1_555
C4 C3 1_555 1_555
C5 C4 1_555 1_555
H3 C5 1_555 1_555
C6 N1 1_555 1_555
C7 C2 1_555 1_555
H4 C7 1_555 1_555
C8 N1 1_555 1_555
C9 C4 1_555 1_555
O5 C9 1_555 1_555
O6 C9 1_555 1_555
O7 C10 1_555 1_555
O8 C10 1_555 1_555
O9 C17 1_555 1_555
N2 H7 1_555 1_555
C10 C11 1_555 1_555
C11 C12 1_555 1_555
C12 H8 1_555 1_555
C13 C12 1_555 1_555
C14 C13 1_555 1_555
H9 C14 1_555 1_555
C15 N2 1_555 1_555
C16 C11 1_555 1_555
H10 C16 1_555 1_555
C17 C8 1_555 1_555
C18 C13 1_555 1_555
O10 C18 1_555 1_555
O11 C18 1_555 1_555
Sr3 O3 1_555 1_555
Sr4 O11 1_555 1_555
Sr5 O6 1_555 1_555
Sr6 O9 1_555 1_555
Sr7 O7 1_555 1_555
Sr8 O5 1_555 1_555
Sr9 O10 1_555 1_555
Sr10 O7 1_555 1_555
Sr11 O5 1_555 1_555
Sr12 O10 1_555 1_555
O17 Sr1 1_555 1_555
O22 Sr1 1_555 1_555
C5 C6 1_555 1_555
C6 C7 1_555 1_555
O6 Sr11 1_555 1_555
O8 Sr7 1_555 1_555
N2 C17 1_555 1_555
C14 C15 1_555 1_555
C15 C16 1_555 1_555
O11 Sr9 1_555 1_555
Sr5 O13 1_555 1_555
O4 Sr2 1_555 1_555
H5 O4 1_555 1_555
H6 O4 1_555 1_555
O12 Sr2 1_555 1_555
H11 O12 1_555 1_555
H12 O12 1_555 1_555
O14 Sr1_2 1_555 1_555
O15 Sr1_2 1_555 1_555
O16 Sr1_2 1_555 1_555
O18 Sr2 1_555 1_555
O19 Sr2 1_555 1_555
O20 Sr2 1_555 1_555
O21 Sr2 1_555 1_555
O23 Sr1_2 1_555 1_555
O24 Sr2 1_555 1_555
Sr2 O23 1_555 1_555
Sr5_2 O24 1_555 1_555
Sr3 O1_2 1_555 1_555
Sr8 O1_2 1_555 1_555
O1_2 C1_2 1_555 1_555
O2_2 Sr3 1_555 1_555
N1_2 H1_2 1_555 1_555
C1_2 O2_2 1_555 1_555
C2_2 C1_2 1_555 1_555
C7_2 C2_2 1_555 1_555
H4_2 C7_2 1_555 1_555
O9_2 C17_2 1_555 1_555
C12_2 H8_2 1_555 1_555
C13_2 C12_2 1_555 1_555
C14_2 C13_2 1_555 1_555
H9_2 C14_2 1_555 1_555
C18_2 C13_2 1_555 1_555
O21 C18_2 1_555 1_555
O24 C18_2 1_555 1_555
O12_2 Sr8 1_555 1_555
H11_2 O12_2 1_555 1_555
Sr7 O9_2 1_555 1_555
Sr10 O21 1_555 1_555
O14_2 Sr3 1_555 1_555
O15_2 Sr3 1_555 1_555
O17_2 Sr3 1_555 1_555
O20_2 Sr8 1_555 1_555
O22_2 Sr3 1_555 1_555
O23_2 Sr3 1_555 1_555
Sr8 O23_2 1_555 1_555
C14_2 C15_2 1_555 1_555
O3_2 C8_2 1_555 1_555
H2_2 C3_2 1_555 1_555
C4_2 C3_2 1_555 1_555
C5_2 C4_2 1_555 1_555
H3_2 C5_2 1_555 1_555
O4_2 Sr8_2 1_555 1_555
H5_2 O4_2 1_555 1_555
C9_2 C4_2 1_555 1_555
O5_2 C9_2 1_555 1_555
O6_2 C9_2 1_555 1_555
O14 C10_2 1_555 1_555
O15 C10_2 1_555 1_555
N2_2 H7_2 1_555 1_555
C10_2 C11_2 1_555 1_555
C16_2 C11_2 1_555 1_555
H10_2 C16_2 1_555 1_555
Sr4 O3_2 1_555 1_555
Sr6 O6_2 1_555 1_555
Sr9 O5_2 1_555 1_555
Sr12 O5_2 1_555 1_555
O13_2 Sr8_2 1_555 1_555
O18_2 Sr8_2 1_555 1_555
O21_2 Sr8_2 1_555 1_555
O24_2 Sr8_2 1_555 1_555
C5_2 C6_2 1_555 1_555
O6_2 Sr12 1_555 1_555
Sr6 O13_2 1_555 1_555
Sr6 O24_2 1_555 1_555
O17 C17_3 1_555 1_555
C12_3 H8_3 1_555 1_555
C13_3 C12_3 1_555 1_555
C14_3 C13_3 1_555 1_555
H9_3 C14_3 1_555 1_555
C18_3 C13_3 1_555 1_555
O21_2 C18_3 1_555 1_555
O24_2 C18_3 1_555 1_555
Sr11_2 O21_2 1_555 1_555
C14_3 C15_3 1_555 1_555
Sr4 O1_3 1_555 1_555
Sr9 O1_3 1_555 1_555
O1_3 C1_3 1_555 1_555
O2_3 Sr4 1_555 1_555
N1_3 H1_3 1_555 1_555
C1_3 O2_3 1_555 1_555
C2_3 C1_3 1_555 1_555
C7_3 C2_3 1_555 1_555
H4_3 C7_3 1_555 1_555
O12_3 Sr9 1_555 1_555
H11_3 O12_3 1_555 1_555
O14_3 Sr4 1_555 1_555
O15_3 Sr4 1_555 1_555
O17_3 Sr4 1_555 1_555
O22_3 Sr4 1_555 1_555
O14_2 C10_3 1_555 1_555
O15_2 C10_3 1_555 1_555
N2_3 H7_3 1_555 1_555
C10_3 C11_3 1_555 1_555
C16_3 C11_3 1_555 1_555
H10_3 C16_3 1_555 1_555
Sr12_2 O14_2 1_555 1_555
O3_3 C8_3 1_555 1_555
H2_3 C3_3 1_555 1_555
C4_3 C3_3 1_555 1_555
C5_3 C4_3 1_555 1_555
H3_3 C5_3 1_555 1_555
O4_3 Sr9_2 1_555 1_555
H5_3 O4_3 1_555 1_555
C9_3 C4_3 1_555 1_555
O18 C9_3 1_555 1_555
O6_3 C9_3 1_555 1_555
Sr5_2 O3_3 1_555 1_555
Sr7 O6_3 1_555 1_555
Sr10 O18 1_555 1_555
O13_3 Sr9_2 1_555 1_555
O18_3 Sr9_2 1_555 1_555
O21_3 Sr9_2 1_555 1_555
O24_3 Sr9_2 1_555 1_555
C5_3 C6_3 1_555 1_555
O6_3 Sr10 1_555 1_555
Sr7 O13_3 1_555 1_555
Sr7 O24_3 1_555 1_555
O13 C1_4 1_555 1_555
O2_4 Sr5 1_555 1_555
O3_4 C8_4 1_555 1_555
N1_4 H1_4 1_555 1_555
C1_4 O2_4 1_555 1_555
C2_4 C1_4 1_555 1_555
C3_4 C2_4 1_555 1_555
H2_4 C3_4 1_555 1_555
C4_4 C3_4 1_555 1_555
C5_4 C4_4 1_555 1_555
H3_4 C5_4 1_555 1_555
C6_4 N1_4 1_555 1_555
C7_4 C2_4 1_555 1_555
H4_4 C7_4 1_555 1_555
C8_4 N1_4 1_555 1_555
C9_4 C4_4 1_555 1_555
O18_2 C9_4 1_555 1_555
O22 C9_4 1_555 1_555
O14_3 C10_4 1_555 1_555
O15_3 C10_4 1_555 1_555
O17_2 C17_4 1_555 1_555
N2_4 H7_4 1_555 1_555
C10_4 C11_4 1_555 1_555
C11_4 C12_4 1_555 1_555
C12_4 H8_4 1_555 1_555
C13_4 C12_4 1_555 1_555
C14_4 C13_4 1_555 1_555
H9_4 C14_4 1_555 1_555
C15_4 N2_4 1_555 1_555
C16_4 C11_4 1_555 1_555
H10_4 C16_4 1_555 1_555
C17_4 C8_4 1_555 1_555
C18_4 C13_4 1_555 1_555
O21_3 C18_4 1_555 1_555
O24_3 C18_4 1_555 1_555
Sr6 O3_4 1_555 1_555
Sr10 O14_3 1_555 1_555
Sr11_2 O18_2 1_555 1_555
Sr12_2 O21_3 1_555 1_555
O17_4 Sr5 1_555 1_555
C5_4 C6_4 1_555 1_555
C6_4 C7_4 1_555 1_555
O22 Sr11_2 1_555 1_555
N2_4 C17_4 1_555 1_555
C14_4 C15_4 1_555 1_555
C15_4 C16_4 1_555 1_555
O14_4 Sr5_2 1_555 1_555
O15_4 Sr5_2 1_555 1_555
O3_5 C8_5 1_555 1_555
H2_5 C3_5 1_555 1_555
C4_5 C3_5 1_555 1_555
C5_5 C4_5 1_555 1_555
H3_5 C5_5 1_555 1_555
C9_5 C4_5 1_555 1_555
O18_3 C9_5 1_555 1_555
O22_2 C9_5 1_555 1_555
O14_4 C10_5 1_555 1_555
O15_4 C10_5 1_555 1_555
N2_5 H7_5 1_555 1_555
C10_5 C11_5 1_555 1_555
C16_5 C11_5 1_555 1_555
H10_5 C16_5 1_555 1_555
Sr7 O3_5 1_555 1_555
Sr12_2 O18_3 1_555 1_555
C5_5 C6_5 1_555 1_555
O22_2 Sr12_2 1_555 1_555
O13_2 C1_5 1_555 1_555
O2_5 Sr6 1_555 1_555
N1_5 H1_5 1_555 1_555
C1_5 O2_5 1_555 1_555
C2_5 C1_5 1_555 1_555
C7_5 C2_5 1_555 1_555
H4_5 C7_5 1_555 1_555
O17_3 C17_5 1_555 1_555
C12_5 H8_5 1_555 1_555
C13_5 C12_5 1_555 1_555
C14_5 C13_5 1_555 1_555
H9_5 C14_5 1_555 1_555
C18_5 C13_5 1_555 1_555
O20 C18_5 1_555 1_555
O23 C18_5 1_555 1_555
Sr10 O20 1_555 1_555
O14_5 Sr6 1_555 1_555
O15_5 Sr6 1_555 1_555
C14_5 C15_5 1_555 1_555
O14_5 C10_6 1_555 1_555
O15_5 C10_6 1_555 1_555
N2_6 H7_6 1_555 1_555
C10_6 C11_6 1_555 1_555
C16_6 C11_6 1_555 1_555
H10_6 C16_6 1_555 1_555
Sr12 O14_5 1_555 1_555
O16 C8_6 1_555 1_555
H2_6 C3_6 1_555 1_555
C4_6 C3_6 1_555 1_555
C5_6 C4_6 1_555 1_555
H3_6 C5_6 1_555 1_555
C9_6 C4_6 1_555 1_555
O19 C9_6 1_555 1_555
O22_3 C9_6 1_555 1_555
Sr10 O19 1_555 1_555
C5_6 C6_6 1_555 1_555
O22_3 Sr10 1_555 1_555
O17_4 C17_6 1_555 1_555
C12_6 H8_6 1_555 1_555
C13_6 C12_6 1_555 1_555
C14_6 C13_6 1_555 1_555
H9_6 C14_6 1_555 1_555
C18_6 C13_6 1_555 1_555
O20_2 C18_6 1_555 1_555
O23_2 C18_6 1_555 1_555
Sr11 O20_2 1_555 1_555
C14_6 C15_6 1_555 1_555
O13_3 C1_6 1_555 1_555
O2_6 Sr7 1_555 1_555
N1_6 H1_6 1_555 1_555
C1_6 O2_6 1_555 1_555
C2_6 C1_6 1_555 1_555
C7_6 C2_6 1_555 1_555
H4_6 C7_6 1_555 1_555
O4_4 Sr10 1_555 1_555
H5_4 O4_4 1_555 1_555
H6_4 O4_4 1_555 1_555
O12_4 Sr10 1_555 1_555
H11_4 O12_4 1_555 1_555
H12_4 O12_4 1_555 1_555
O12_5 Sr11 1_555 1_555
H11_5 O12_5 1_555 1_555
O4_5 Sr11_2 1_555 1_555
H5_5 O4_5 1_555 1_555
O12_6 Sr12 1_555 1_555
H11_6 O12_6 1_555 1_555
O4_6 Sr12_2 1_555 1_555
H5_6 O4_6 1_555 1_555

#END
