
###############################################################################
#
# This file contains modified crystal structure data generated from the
# MOF subset of the Cambridge Structural Database (CSD) v543 
# hosted by the Cambridge Crystallographic Data Centre (CCDC).
#
# This work is licensed under the Creative Commons
# Attribution-NonCommercial-ShareAlike 4.0 International License.
# To view a copy of this license, visit
# http://creativecommons.org/licenses/by-nc-sa/4.0/
# or send a letter to
# Creative Commons, PO Box 1866, Mountain View, CA 94042, USA.
#
# CIF created using the CSD Python API on 29 September 2022
# The structure has been converted into the P1 space group
# The structure has a 3D framework
# The original CSD entry FIQYOU is in the monoclinic crystal system
# The framework has been calculated to contain at least 10.0% void space
# The void calculation uses a probe of radius 1.32A, grid spacing 0.4
#
###############################################################################

data_FIQYOU
_chemical_formula_moiety         '(C24 H24 Fe19 O47)n'
_symmetry_cell_setting           triclinic
_symmetry_space_group_name_H-M   'P 1'
_symmetry_Int_Tables_number      1
_space_group_name_Hall           'P 1'
loop_
_symmetry_equiv_pos_site_id
_symmetry_equiv_pos_as_xyz
1 x,y,z
_cell_length_a                   11.4446(10)
_cell_length_b                   9.9304(9)
_cell_length_c                   14.6192(15)
_cell_angle_alpha                90
_cell_angle_beta                 91.423(11)
_cell_angle_gamma                90
_cell_volume                     1660.95
loop_
_atom_site_label
_atom_site_type_symbol
_atom_site_fract_x
_atom_site_fract_y
_atom_site_fract_z
Fe13 Fe -0.0000 0.0000 0.5000
Fe13_2 Fe -0.0000 1.0000 0.5000
Fe1 Fe 0.24447(7) 0.08120(7) 0.36760(5)
Fe2 Fe 0.23995(7) 0.39269(7) 0.31230(6)
Fe3 Fe 0.5000 0.0000 0.5000
O3 O 0.1024(3) 0.1584(4) 0.4402(3)
C2 C 0.0716(6) 0.2817(6) 0.4504(5)
H2 H 0.014(7) 0.305(8) 0.498(6)
O4 O 0.1116(4) 0.3788(4) 0.4090(3)
O5 O 0.1931(4) 0.2022(3) 0.2529(3)
C3 C 0.1709(5) 0.1757(5) 0.1691(4)
H3 H 0.146(6) 0.258(7) 0.132(5)
O6 O 0.1861(4) 0.0652(4) 0.1313(3)
O7 O 0.3476(4) 0.2594(4) 0.3933(3)
C4 C 0.4260(6) 0.2895(5) 0.4518(5)
H4 H 0.454(7) 0.387(8) 0.463(6)
O8 O 0.4834(4) 0.2088(4) 0.5002(4)
Fe6 Fe 0.25553(7) 0.58120(7) 0.13240(5)
Fe10 Fe 0.73995(7) 0.10731(7) 0.81230(6)
Fe11 Fe 0.26005(7) 0.89269(7) 0.18770(6)
Fe13_3 Fe 1.0000 0.0000 0.5000
Fe14 Fe 0.5000 0.5000 0.0000
O13 O 0.6872(3) 0.0271(4) 0.5217(3)
C7 C 0.7440(6) 0.1037(6) 0.4682(5)
H7 H 0.713(7) 0.149(8) 0.426(6)
O14 O 0.8503(4) 0.1123(4) 0.4630(4)
O20 O 0.3069(4) 0.7022(3) 0.2471(3)
C9 C 0.3291(5) 0.6757(5) 0.3309(4)
H9 H 0.354(6) 0.758(7) 0.368(5)
O22 O 0.3139(4) 0.5652(4) 0.3687(3)
O26 O 0.3511(4) 0.4180(4) 0.1968(3)
O27 O 0.8511(4) 0.0820(4) 0.6968(3)
C11 C 0.4551(6) 0.3765(6) 0.1889(5)
H11 H 0.473(7) 0.324(8) 0.226(6)
O29 O 0.5216(4) 0.3996(5) 0.1269(3)
O30 O 0.0216(4) 0.1004(5) 0.6269(3)
O31 O 0.6281(3) 0.0034(3) 0.7185(3)
O32 O 0.1281(3) 0.4966(3) 0.2185(3)
C12 C 0.5196(6) 0.0149(6) 0.7114(5)
H12 H 0.479(7) 0.049(8) 0.765(6)
O34 O 0.4586(4) 0.0036(5) 0.6405(3)
Fe14_2 Fe 0.5000 0.5000 1.0000
Fe3_2 Fe 0.5000 1.0000 0.5000
O1 O 0.3128(3) 0.9729(4) 0.4783(3)
C1 C 0.2560(6) 0.8963(6) 0.5318(5)
H1 H 0.287(7) 0.851(8) 0.574(6)
O2 O 0.1497(4) 0.8877(4) 0.5370(4)
O9 O 0.1489(4) 0.9180(4) 0.3032(3)
C5 C 0.0449(6) 0.8765(6) 0.3111(5)
H5 H 0.027(7) 0.824(8) 0.274(6)
O11 O 0.3719(3) 0.9966(3) 0.2815(3)
C6 C 0.4804(6) 0.9851(6) 0.2886(5)
H6 H 0.521(7) 0.951(8) 0.235(6)
O12 O 0.5414(4) 0.9964(5) 0.3595(3)
Fe5 Fe 0.75553(7) 0.91880(7) 0.63240(5)
Fe8 Fe 0.76005(7) 0.60731(7) 0.68770(6)
Fe13_4 Fe 1.0000 1.0000 0.5000
O17 O 0.8976(3) 0.8416(4) 0.5598(3)
O19 O 0.8884(4) 0.6212(4) 0.5910(3)
O21 O 0.8069(4) 0.7978(3) 0.7471(3)
O23 O 0.6861(4) 0.4348(4) 0.6313(3)
O24 O 0.6524(4) 0.7406(4) 0.6067(3)
C10 C 0.5740(6) 0.7105(5) 0.5482(5)
H10 H 0.546(7) 0.613(8) 0.537(6)
O25 O 0.5166(4) 0.7912(4) 0.4998(4)
O28 O 0.6489(4) 0.5820(4) 0.8032(3)
O33 O 0.8719(3) 0.5034(3) 0.7815(3)
O10 O 0.9784(4) 0.8996(5) 0.3731(3)
C8 C 0.9284(6) 0.7183(6) 0.5496(5)
H8 H 0.986(7) 0.695(8) 0.502(6)
Fe3_3 Fe -0.0000 0.5000 0.0000
O1_2 O 0.1872(3) 0.4729(4) 0.0217(3)
O3_2 O 0.3976(3) 0.6584(4) 0.0598(3)
C2_2 C 0.4284(6) 0.7817(6) 0.0496(5)
H2_2 H 0.486(7) 0.805(8) 0.002(6)
O4_2 O 0.3884(4) 0.8788(4) 0.0910(3)
O7_2 O 0.1524(4) 0.7594(4) 0.1067(3)
C4_2 C 0.0740(6) 0.7895(5) 0.0482(5)
H4_2 H 0.046(7) 0.887(8) 0.037(6)
C6_2 C 0.0196(6) 0.4851(6) 0.2114(5)
O15 O 0.6497(4) 0.6123(4) 0.0370(4)
Fe3_4 Fe 0.0000 0.5000 1.0000
C1_2 C 0.2440(6) 0.3963(6) 0.9682(5)
H1_2 H 0.213(7) 0.351(8) 0.926(6)
O2_2 O 0.3503(4) 0.3877(4) 0.9630(4)
O8_2 O 0.0166(4) 0.7088(4) 0.9998(4)
Fe7 Fe 0.74447(7) 0.41880(7) 0.86760(5)
O16 O 0.6024(3) 0.3416(4) 0.9402(3)
C8_2 C 0.5716(6) 0.2183(6) 0.9504(5)
H8_2 H 0.514(7) 0.195(8) 0.998(6)
O18 O 0.6116(4) 0.1212(4) 0.9090(3)
O30_2 O 0.4784(4) 0.6004(5) 0.8731(3)
H12_2 H 0.021(7) 0.549(8) 0.735(6)
O34_2 O 0.0414(4) 0.5036(5) 0.8595(3)
Fe3_5 Fe 1.0000 0.5000 0.0000
H6_2 H 0.979(7) 0.451(8) 0.265(6)
O12_2 O 0.9586(4) 0.4964(5) 0.1405(3)
C7_2 C 0.7560(6) 0.6037(6) 0.0318(5)
H7_2 H 0.787(7) 0.649(8) 0.074(6)
O25_2 O 0.9834(4) 0.2912(4) 0.0002(4)
Fe3_6 Fe 1.0000 0.5000 1.0000
O13_2 O 0.8128(3) 0.5271(4) 0.9783(3)
O21_2 O 0.6931(4) 0.2978(3) 0.7529(3)
O24_2 O 0.8476(4) 0.2406(4) 0.8933(3)
C10_2 C 0.9260(6) 0.2105(5) 0.9518(5)
H10_2 H 0.954(7) 0.113(8) 0.963(6)
C12_2 C 0.9804(6) 0.5149(6) 0.7886(5)
O23_2 O 0.8139(4) 0.9348(4) 0.8687(3)
C5_2 C 0.9551(6) 0.1235(6) 0.6889(5)
H5_2 H 0.973(7) 0.176(8) 0.726(6)
C3_2 C 0.8291(5) 0.8243(5) 0.8309(4)
H3_2 H 0.854(6) 0.742(7) 0.868(5)
C9_2 C 0.6709(5) 0.3243(5) 0.6691(4)
H9_2 H 0.646(6) 0.242(7) 0.632(5)
C11_2 C 0.5449(6) 0.6235(6) 0.8111(5)
H11_2 H 0.527(7) 0.676(8) 0.774(6)
loop_
_geom_bond_atom_site_label_1
_geom_bond_atom_site_label_2
_geom_bond_site_symmetry_1
_geom_bond_site_symmetry_2
Fe2 O4 1_555 1_555
O3 Fe1 1_555 1_555
C2 O3 1_555 1_555
H2 C2 1_555 1_555
O4 C2 1_555 1_555
O5 Fe1 1_555 1_555
C3 O5 1_555 1_555
H3 C3 1_555 1_555
O6 C3 1_555 1_555
O7 Fe1 1_555 1_555
C4 O7 1_555 1_555
H4 C4 1_555 1_555
O8 Fe3 1_555 1_555
Fe6 O20 1_555 1_555
Fe10 O27 1_555 1_555
Fe11 O20 1_555 1_555
Fe13_3 O14 1_555 1_555
Fe14 O29 1_555 1_555
O13 Fe3 1_555 1_555
C7 O13 1_555 1_555
H7 C7 1_555 1_555
O14 C7 1_555 1_555
O20 C9 1_555 1_555
C9 H9 1_555 1_555
O22 Fe2 1_555 1_555
O26 Fe2 1_555 1_555
C11 O26 1_555 1_555
H11 C11 1_555 1_555
O29 C11 1_555 1_555
O30 Fe13 1_555 1_555
O32 Fe2 1_555 1_555
C12 O31 1_555 1_555
H12 C12 1_555 1_555
O34 Fe3 1_555 1_555
Fe2 O5 1_555 1_555
Fe2 O7 1_555 1_555
Fe13 O3 1_555 1_555
C4 O8 1_555 1_555
Fe6 O26 1_555 1_555
Fe6 O32 1_555 1_555
Fe10 O31 1_555 1_555
C9 O22 1_555 1_555
C12 O34 1_555 1_555
Fe3_2 O1 1_555 1_555
Fe13_2 O2 1_555 1_555
O1 C1 1_555 1_555
C1 H1 1_555 1_555
O2 C1 1_555 1_555
C5 O9 1_555 1_555
H5 C5 1_555 1_555
C6 O11 1_555 1_555
H6 C6 1_555 1_555
O12 Fe3_2 1_555 1_555
Fe8 O19 1_555 1_555
O17 Fe5 1_555 1_555
O21 Fe5 1_555 1_555
O23 Fe8 1_555 1_555
O24 Fe5 1_555 1_555
C10 O24 1_555 1_555
H10 C10 1_555 1_555
O25 Fe3_2 1_555 1_555
O28 Fe8 1_555 1_555
O33 Fe8 1_555 1_555
O9 Fe11 1_555 1_555
O11 Fe11 1_555 1_555
C6 O12 1_555 1_555
Fe8 O21 1_555 1_555
Fe8 O24 1_555 1_555
Fe13_4 O17 1_555 1_555
C10 O25 1_555 1_555
O10 Fe13_4 1_555 1_555
C8 O17 1_555 1_555
H8 C8 1_555 1_555
O19 C8 1_555 1_555
Fe6 O1_2 1_555 1_555
Fe11 O4_2 1_555 1_555
Fe3_3 O1_2 1_555 1_555
O3_2 Fe6 1_555 1_555
C2_2 O3_2 1_555 1_555
H2_2 C2_2 1_555 1_555
O4_2 C2_2 1_555 1_555
O7_2 Fe6 1_555 1_555
C4_2 O7_2 1_555 1_555
H4_2 C4_2 1_555 1_555
C6_2 O32 1_555 1_555
O15 Fe14 1_555 1_555
Fe11 O7_2 1_555 1_555
Fe14 O3_2 1_555 1_555
Fe14_2 O2_2 1_555 1_555
C1_2 H1_2 1_555 1_555
O2_2 C1_2 1_555 1_555
O8_2 Fe3_4 1_555 1_555
Fe7 O16 1_555 1_555
Fe10 O18 1_555 1_555
O16 Fe14_2 1_555 1_555
C8_2 O16 1_555 1_555
H8_2 C8_2 1_555 1_555
O18 C8_2 1_555 1_555
O30_2 Fe14_2 1_555 1_555
O34_2 Fe3_4 1_555 1_555
O12_2 Fe3_5 1_555 1_555
H7_2 C7_2 1_555 1_555
O15 C7_2 1_555 1_555
O25_2 Fe3_5 1_555 1_555
Fe7 O13_2 1_555 1_555
O13_2 Fe3_6 1_555 1_555
O21_2 Fe7 1_555 1_555
O24_2 Fe7 1_555 1_555
C10_2 O24_2 1_555 1_555
H10_2 C10_2 1_555 1_555
O28 Fe7 1_555 1_555
O33 Fe7 1_555 1_555
C12_2 O33 1_555 1_555
Fe10 O21_2 1_555 1_555
Fe10 O24_2 1_555 1_555
C5_2 O27 1_555 1_555
H5_2 C5_2 1_555 1_555
C3_2 O21 1_555 1_555
H3_2 C3_2 1_555 1_555
O23_2 C3_2 1_555 1_555
O21_2 C9_2 1_555 1_555
C9_2 H9_2 1_555 1_555
C11_2 O28 1_555 1_555
H11_2 C11_2 1_555 1_555
O30_2 C11_2 1_555 1_555
C9_2 O23 1_555 1_555

#END
