
###############################################################################
#
# This file contains modified crystal structure data generated from the
# MOF subset of the Cambridge Structural Database (CSD) v543 
# hosted by the Cambridge Crystallographic Data Centre (CCDC).
#
# This work is licensed under the Creative Commons
# Attribution-NonCommercial-ShareAlike 4.0 International License.
# To view a copy of this license, visit
# http://creativecommons.org/licenses/by-nc-sa/4.0/
# or send a letter to
# Creative Commons, PO Box 1866, Mountain View, CA 94042, USA.
#
# CIF created using the CSD Python API on 29 September 2022
# The structure has been converted into the P1 space group
# The structure has a 3D framework
# The original CSD entry FIQYUA is in the monoclinic crystal system
# The framework has been calculated to contain at least 10.0% void space
# The void calculation uses a probe of radius 1.32A, grid spacing 0.4
#
###############################################################################

data_FIQYUA
_chemical_formula_moiety         '(C24 H24 Co19 O47)n'
_symmetry_cell_setting           triclinic
_symmetry_space_group_name_H-M   'P 1'
_symmetry_Int_Tables_number      1
_space_group_name_Hall           'P 1'
loop_
_symmetry_equiv_pos_site_id
_symmetry_equiv_pos_as_xyz
1 x,y,z
_cell_length_a                   11.2727(9)
_cell_length_b                   9.8335(6)
_cell_length_c                   14.4249(12)
_cell_angle_alpha                90
_cell_angle_beta                 91.242(7)
_cell_angle_gamma                90
_cell_volume                     1598.63
loop_
_atom_site_label
_atom_site_type_symbol
_atom_site_fract_x
_atom_site_fract_y
_atom_site_fract_z
Co13 Co -0.0000 0.0000 0.5000
Co13_2 Co 0.0000 1.0000 0.5000
Co1 Co 0.24468(4) 0.08067(5) 0.36715(3)
Co2 Co 0.23992(4) 0.39071(5) 0.31123(3)
Co3 Co 0.5000 0.0000 0.5000
O3 O 0.1037(2) 0.1557(3) 0.44135(18)
C2 C 0.0734(3) 0.2795(4) 0.4522(3)
H2 H 0.011(5) 0.286(6) 0.496(3)
O4 O 0.1134(3) 0.3787(3) 0.4101(2)
O5 O 0.1895(2) 0.2010(3) 0.25479(18)
C3 C 0.1678(3) 0.1724(4) 0.1699(3)
H3 H 0.141(4) 0.242(5) 0.135(3)
O6 O 0.1837(3) 0.0617(3) 0.13202(19)
O7 O 0.3471(2) 0.2580(3) 0.39120(17)
C4 C 0.4250(3) 0.2887(4) 0.4525(3)
H4 H 0.446(5) 0.377(6) 0.459(4)
O8 O 0.4824(3) 0.2083(3) 0.5017(2)
O12 O 0.5431(3) 0.0020(3) 0.3593(2)
Co6 Co 0.25532(4) 0.58067(5) 0.13285(3)
Co10 Co 0.73992(4) 0.10929(5) 0.81123(3)
Co11 Co 0.26008(4) 0.89071(5) 0.18877(3)
Co13_3 Co 1.0000 0.0000 0.5000
Co14 Co 0.5000 0.5000 0.0000
O13 O 0.6850(2) 0.0275(3) 0.52351(18)
C7 C 0.7424(3) 0.1086(4) 0.4713(3)
H7 H 0.701(4) 0.164(5) 0.432(3)
O14 O 0.8512(2) 0.1169(3) 0.4678(2)
O20 O 0.3105(2) 0.7010(3) 0.24521(18)
C9 C 0.3322(3) 0.6724(4) 0.3301(3)
H9 H 0.359(4) 0.742(5) 0.365(3)
O22 O 0.3163(3) 0.5617(3) 0.36798(19)
O26 O 0.3503(2) 0.4168(3) 0.19528(19)
O27 O 0.8503(2) 0.0832(3) 0.69528(19)
C11 C 0.4559(4) 0.3744(4) 0.1891(3)
H11 H 0.482(4) 0.311(5) 0.244(3)
O29 O 0.5253(3) 0.4007(3) 0.1260(2)
O30 O 0.0253(3) 0.0993(3) 0.6260(2)
O31 O 0.6287(2) 0.0031(3) 0.71948(19)
O32 O 0.1287(2) 0.4969(3) 0.21948(19)
C12 C 0.5167(3) 0.0134(4) 0.7123(3)
H12 H 0.484(4) 0.039(5) 0.758(4)
Co14_2 Co 0.5000 0.5000 1.0000
Co3_2 Co 0.5000 1.0000 0.5000
O1 O 0.3150(2) 0.9725(3) 0.47649(18)
C1 C 0.2576(3) 0.8914(4) 0.5287(3)
H1 H 0.299(4) 0.836(5) 0.568(3)
O2 O 0.1488(2) 0.8831(3) 0.5322(2)
O9 O 0.1497(2) 0.9168(3) 0.30472(19)
C5 C 0.0441(4) 0.8744(4) 0.3109(3)
H5 H 0.018(4) 0.811(5) 0.256(3)
O11 O 0.3713(2) 0.9969(3) 0.28052(19)
C6 C 0.4833(3) 0.9866(4) 0.2877(3)
H6 H 0.516(4) 0.961(5) 0.242(4)
Co5 Co 0.75532(4) 0.91933(5) 0.63285(3)
Co8 Co 0.76008(4) 0.60929(5) 0.68877(3)
Co13_4 Co 1.0000 1.0000 0.5000
O17 O 0.8963(2) 0.8443(3) 0.55865(18)
O19 O 0.8866(3) 0.6213(3) 0.5899(2)
O21 O 0.8105(2) 0.7990(3) 0.74521(18)
O23 O 0.6837(3) 0.4383(3) 0.63202(19)
O24 O 0.6529(2) 0.7420(3) 0.60880(17)
C10 C 0.5750(3) 0.7113(4) 0.5475(3)
H10 H 0.554(5) 0.623(6) 0.541(4)
O25 O 0.5176(3) 0.7917(3) 0.4983(2)
O28 O 0.6497(2) 0.5832(3) 0.80472(19)
O33 O 0.8713(2) 0.5031(3) 0.78052(19)
O34 O 0.4569(3) 0.9980(3) 0.6407(2)
O10 O 0.9747(3) 0.9007(3) 0.3740(2)
C8 C 0.9266(3) 0.7205(4) 0.5478(3)
H8 H 0.989(5) 0.714(6) 0.504(3)
Co3_3 Co 0.0000 0.5000 0.0000
O1_2 O 0.1850(2) 0.4725(3) 0.02351(18)
O3_2 O 0.3963(2) 0.6557(3) 0.05865(18)
C2_2 C 0.4266(3) 0.7795(4) 0.0478(3)
H2_2 H 0.489(5) 0.786(6) 0.004(3)
O4_2 O 0.3866(3) 0.8787(3) 0.0899(2)
O7_2 O 0.1529(2) 0.7580(3) 0.10880(17)
C4_2 C 0.0750(3) 0.7887(4) 0.0475(3)
H4_2 H 0.054(5) 0.877(6) 0.041(4)
C6_2 C 0.0167(3) 0.4866(4) 0.2123(3)
O15 O 0.6488(2) 0.6169(3) 0.0322(2)
Co3_4 Co -0.0000 0.5000 1.0000
C1_2 C 0.2424(3) 0.3914(4) 0.9713(3)
H1_2 H 0.201(4) 0.336(5) 0.932(3)
O2_2 O 0.3512(2) 0.3831(3) 0.9678(2)
O8_2 O 0.0176(3) 0.7083(3) 0.9983(2)
Co7 Co 0.74468(4) 0.41933(5) 0.86715(3)
O16 O 0.6037(2) 0.3443(3) 0.94135(18)
C8_2 C 0.5734(3) 0.2205(4) 0.9522(3)
H8_2 H 0.511(5) 0.214(6) 0.996(3)
O18 O 0.6134(3) 0.1213(3) 0.9101(2)
O30_2 O 0.4747(3) 0.5993(3) 0.8740(2)
H12_2 H 0.016(4) 0.539(5) 0.742(4)
O34_2 O 0.0431(3) 0.4980(3) 0.8593(2)
Co3_5 Co 1.0000 0.5000 0.0000
H6_2 H 0.984(4) 0.461(5) 0.258(4)
O12_2 O 0.9569(3) 0.5020(3) 0.1407(2)
C7_2 C 0.7576(3) 0.6086(4) 0.0287(3)
H7_2 H 0.799(4) 0.664(5) 0.068(3)
O25_2 O 0.9824(3) 0.2917(3) 0.0017(2)
Co3_6 Co 1.0000 0.5000 1.0000
O13_2 O 0.8150(2) 0.5275(3) 0.97649(18)
O21_2 O 0.6895(2) 0.2990(3) 0.75479(18)
O24_2 O 0.8471(2) 0.2420(3) 0.89120(17)
C10_2 C 0.9250(3) 0.2113(4) 0.9525(3)
H10_2 H 0.946(5) 0.123(6) 0.959(4)
C12_2 C 0.9833(3) 0.5134(4) 0.7877(3)
O23_2 O 0.8163(3) 0.9383(3) 0.86798(19)
C5_2 C 0.9559(4) 0.1256(4) 0.6891(3)
H5_2 H 0.982(4) 0.189(5) 0.744(3)
C3_2 C 0.8322(3) 0.8276(4) 0.8301(3)
H3_2 H 0.859(4) 0.758(5) 0.865(3)
C9_2 C 0.6678(3) 0.3276(4) 0.6699(3)
H9_2 H 0.641(4) 0.258(5) 0.635(3)
C11_2 C 0.5441(4) 0.6256(4) 0.8109(3)
H11_2 H 0.518(4) 0.689(5) 0.756(3)
loop_
_geom_bond_atom_site_label_1
_geom_bond_atom_site_label_2
_geom_bond_site_symmetry_1
_geom_bond_site_symmetry_2
Co2 O4 1_555 1_555
O3 Co1 1_555 1_555
C2 O3 1_555 1_555
H2 C2 1_555 1_555
O4 C2 1_555 1_555
O5 Co1 1_555 1_555
C3 O5 1_555 1_555
H3 C3 1_555 1_555
O6 C3 1_555 1_555
O7 Co1 1_555 1_555
C4 O7 1_555 1_555
H4 C4 1_555 1_555
O8 Co3 1_555 1_555
O12 Co3 1_555 1_555
Co6 O20 1_555 1_555
Co10 O27 1_555 1_555
Co11 O20 1_555 1_555
Co13_3 O14 1_555 1_555
Co14 O29 1_555 1_555
O13 Co3 1_555 1_555
C7 O13 1_555 1_555
H7 C7 1_555 1_555
O14 C7 1_555 1_555
O20 C9 1_555 1_555
C9 H9 1_555 1_555
O22 Co2 1_555 1_555
O26 Co2 1_555 1_555
C11 O26 1_555 1_555
H11 C11 1_555 1_555
O29 C11 1_555 1_555
O30 Co13 1_555 1_555
O32 Co2 1_555 1_555
C12 O31 1_555 1_555
H12 C12 1_555 1_555
Co2 O5 1_555 1_555
Co2 O7 1_555 1_555
Co13 O3 1_555 1_555
C4 O8 1_555 1_555
Co6 O26 1_555 1_555
Co6 O32 1_555 1_555
Co10 O31 1_555 1_555
C9 O22 1_555 1_555
Co3_2 O1 1_555 1_555
Co13_2 O2 1_555 1_555
O1 C1 1_555 1_555
C1 H1 1_555 1_555
O2 C1 1_555 1_555
C5 O9 1_555 1_555
H5 C5 1_555 1_555
C6 O11 1_555 1_555
H6 C6 1_555 1_555
Co8 O19 1_555 1_555
O17 Co5 1_555 1_555
O21 Co5 1_555 1_555
O23 Co8 1_555 1_555
O24 Co5 1_555 1_555
C10 O24 1_555 1_555
H10 C10 1_555 1_555
O25 Co3_2 1_555 1_555
O28 Co8 1_555 1_555
O33 Co8 1_555 1_555
O34 Co3_2 1_555 1_555
O9 Co11 1_555 1_555
O11 Co11 1_555 1_555
Co8 O21 1_555 1_555
Co8 O24 1_555 1_555
Co13_4 O17 1_555 1_555
C10 O25 1_555 1_555
O10 Co13_4 1_555 1_555
C8 O17 1_555 1_555
H8 C8 1_555 1_555
O19 C8 1_555 1_555
Co6 O1_2 1_555 1_555
Co11 O4_2 1_555 1_555
Co3_3 O1_2 1_555 1_555
O3_2 Co6 1_555 1_555
C2_2 O3_2 1_555 1_555
H2_2 C2_2 1_555 1_555
O4_2 C2_2 1_555 1_555
O7_2 Co6 1_555 1_555
C4_2 O7_2 1_555 1_555
H4_2 C4_2 1_555 1_555
C6_2 O32 1_555 1_555
O15 Co14 1_555 1_555
Co11 O7_2 1_555 1_555
Co14 O3_2 1_555 1_555
Co14_2 O2_2 1_555 1_555
C1_2 H1_2 1_555 1_555
O2_2 C1_2 1_555 1_555
O8_2 Co3_4 1_555 1_555
Co7 O16 1_555 1_555
Co10 O18 1_555 1_555
O16 Co14_2 1_555 1_555
C8_2 O16 1_555 1_555
H8_2 C8_2 1_555 1_555
O18 C8_2 1_555 1_555
O30_2 Co14_2 1_555 1_555
O34_2 Co3_4 1_555 1_555
O12_2 Co3_5 1_555 1_555
H7_2 C7_2 1_555 1_555
O15 C7_2 1_555 1_555
O25_2 Co3_5 1_555 1_555
Co7 O13_2 1_555 1_555
O13_2 Co3_6 1_555 1_555
O21_2 Co7 1_555 1_555
O24_2 Co7 1_555 1_555
C10_2 O24_2 1_555 1_555
H10_2 C10_2 1_555 1_555
O28 Co7 1_555 1_555
O33 Co7 1_555 1_555
C12_2 O33 1_555 1_555
Co10 O21_2 1_555 1_555
Co10 O24_2 1_555 1_555
C5_2 O27 1_555 1_555
H5_2 C5_2 1_555 1_555
C3_2 O21 1_555 1_555
H3_2 C3_2 1_555 1_555
O23_2 C3_2 1_555 1_555
O21_2 C9_2 1_555 1_555
C9_2 H9_2 1_555 1_555
C11_2 O28 1_555 1_555
H11_2 C11_2 1_555 1_555
O30_2 C11_2 1_555 1_555
C9_2 O23 1_555 1_555

#END
