
###############################################################################
#
# This file contains modified crystal structure data generated from the
# MOF subset of the Cambridge Structural Database (CSD) v543 
# hosted by the Cambridge Crystallographic Data Centre (CCDC).
#
# This work is licensed under the Creative Commons
# Attribution-NonCommercial-ShareAlike 4.0 International License.
# To view a copy of this license, visit
# http://creativecommons.org/licenses/by-nc-sa/4.0/
# or send a letter to
# Creative Commons, PO Box 1866, Mountain View, CA 94042, USA.
#
# CIF created using the CSD Python API on 29 September 2022
# The structure has been converted into the P1 space group
# The structure has a 3D framework
# The original CSD entry FIQYOV01 is in the monoclinic crystal system
# The framework has been calculated to contain at least 10.0% void space
# The void calculation uses a probe of radius 1.32A, grid spacing 0.4
#
###############################################################################

data_FIQYOV01
_chemical_formula_moiety         '(C112 H88 N16 O32 S12 Zn8)n'
_symmetry_cell_setting           triclinic
_symmetry_space_group_name_H-M   'P 1'
_symmetry_Int_Tables_number      1
_space_group_name_Hall           'P 1'
loop_
_symmetry_equiv_pos_site_id
_symmetry_equiv_pos_as_xyz
1 x,y,z
_cell_length_a                   14.2067(13)
_cell_length_b                   16.6292(14)
_cell_length_c                   14.7442(14)
_cell_angle_alpha                90
_cell_angle_beta                 90.963(8)
_cell_angle_gamma                90
_cell_volume                     3482.77
loop_
_atom_site_label
_atom_site_type_symbol
_atom_site_fract_x
_atom_site_fract_y
_atom_site_fract_z
N3 N 0.3476(4) 0.0560(4) 0.5297(5)
C23 C 0.3871(6) 0.0369(6) 0.6105(8)
H14 H 0.3916 0.0720 0.6595
H18 H 0.3552 0.0249 0.3480
Zn5 Zn 0.28836(5) 0.16399(4) 0.50324(5)
Zn1 Zn 0.21164(5) 0.33601(4) 0.49676(5)
S1 S 0.0000 0.24959(16) 0.2500
S2 S 0.5000 0.23405(18) 0.2500
O1 O 0.3168(5) 0.3365(4) 0.4014(5)
C1 C 0.0619(7) 0.1792(6) 0.3080(8)
O2 O 0.1307(4) 0.2746(3) 0.4037(4)
N1 N 0.1524(4) 0.4440(4) 0.4703(5)
N2 N 0.0983(4) 0.5667(4) 0.4806(6)
C2 C 0.1425(7) 0.5062(6) 0.5221(8)
C3 C 0.3694(7) 0.2825(6) 0.3754(8)
C4 C 0.4384(6) 0.3039(5) 0.3072(6)
C5 C 0.0357(6) 0.1036(6) 0.2833(7)
H1 H 0.0622 0.0572 0.3078
C6 C 0.1727(7) 0.7007(6) 0.5055(8)
C7 C 0.1129(6) 0.4631(6) 0.3895(8)
H2 H 0.1084 0.4280 0.3405
C8 C 0.4656(6) 0.3799(6) 0.2809(7)
H3 H 0.4390 0.4267 0.3036
C9 C 0.0806(7) 0.6491(5) 0.5117(8)
H4 H 0.0595 0.6481 0.5739
H5 H 0.0314 0.6733 0.4744
C10 C 0.0808(7) 0.5394(6) 0.3884(8)
H6 H 0.0539 0.5677 0.3402
C11 C 0.1743(7) 0.5151(5) 0.6152(8)
H7 H 0.1448 0.4751 0.6520
H8 H 0.1579 0.5677 0.6367
H9 H 0.2414 0.5085 0.6186
C12 C 0.1325(7) 0.2024(6) 0.3785(8)
O3 O 0.1852(4) 0.1471(4) 0.4091(5)
C13 C 0.2491 0.6765 0.4604
H10 H 0.2533 0.6246 0.4374
C14 C 0.1776(6) 0.7678(6) 0.5510(8)
H11 H 0.1309 0.7792 0.5925
O4 O 0.3697(4) 0.2107(4) 0.4025(4)
O7 O 0.6832(5) 0.3365(4) 0.0986(5)
C18 C 0.6306(7) 0.2825(6) 0.1246(8)
C19 C 0.5616(6) 0.3039(5) 0.1928(6)
C20 C 0.5344(6) 0.3799(6) 0.2191(7)
H13 H 0.5610 0.4267 0.1964
O8 O 0.6303(4) 0.2107(4) 0.0975(4)
N4 N 0.4017(4) 0.9333(4) 0.5194(6)
C21 C 0.3575(7) 0.9938(6) 0.4779(8)
C22 C 0.3273(7) 0.7993(6) 0.4945(8)
C24 C 0.4194(7) 0.8509(5) 0.4883(8)
H15 H 0.4405 0.8519 0.4261
H16 H 0.4686 0.8267 0.5256
C25 C 0.4192(7) 0.9606(6) 0.6116(8)
H17 H 0.4461 0.9323 0.6598
C26 C 0.3257(7) 0.9849(5) 0.3848(8)
H19 H 0.3421 0.9323 0.3633
H20 H 0.2586 0.9915 0.3814
C27 C 0.2509 0.8235 0.5396
H21 H 0.2467 0.8754 0.5626
C28 C 0.3224(6) 0.7322(6) 0.4490(8)
H22 H 0.3691 0.7208 0.4075
Zn3 Zn 0.78836(5) 0.33601(4) 0.00324(5)
O10 O 0.3148(4) 0.3529(4) 0.5909(5)
O12 O 0.1303(4) 0.2893(4) 0.5975(4)
Zn7 Zn 0.71164(5) 0.16399(4) 0.99676(5)
S1_2 S 1.0000 0.24959(16) 0.2500
C15 C 0.9381(7) 0.1792(6) 0.1920(8)
O5 O 0.8693(4) 0.2746(3) 0.0963(4)
C16 C 0.9643(6) 0.1036(6) 0.2167(7)
H12 H 0.9378 0.0572 0.1922
C17 C 0.8675(7) 0.2024(6) 0.1215(8)
O6 O 0.8148(4) 0.1471(4) 0.0909(5)
N5 N 0.8476(4) 0.4440(4) 0.0297(5)
O11 O 0.6852(4) 0.3529(4) 0.9091(5)
O13 O 0.8697(4) 0.2893(4) 0.9025(4)
H18_2 H 0.6448 0.0249 0.1520
N3_2 N 0.6524(4) 0.0560(4) 0.9703(5)
C23_2 C 0.6129(6) 0.0369(6) 0.8895(8)
H14_2 H 0.6084 0.0720 0.8405
N2_2 N 0.9017(4) 0.5667(4) 0.0194(6)
C7_2 C 0.8871(6) 0.4631(6) 0.1105(8)
H2_2 H 0.8916 0.4280 0.1595
H5_2 H 0.9686 0.6733 0.0256
C10_2 C 0.9192(7) 0.5394(6) 0.1116(8)
H6_2 H 0.9461 0.5677 0.1598
C13_2 C 0.7509 0.6765 0.0396
H10_2 H 0.7467 0.6246 0.0626
C21_2 C 0.6425(7) 0.9938(6) 0.0221(8)
C22_2 C 0.6727(7) 0.7993(6) 0.0055(8)
C24_2 C 0.5806(7) 0.8509(5) 0.0117(8)
H15_2 H 0.5595 0.8519 0.0739
C26_2 C 0.6743(7) 0.9849(5) 0.1152(8)
H19_2 H 0.6579 0.9323 0.1367
H20_2 H 0.7414 0.9915 0.1186
C28_2 C 0.6776(6) 0.7322(6) 0.0510(8)
H22_2 H 0.6309 0.7208 0.0925
C2_2 C 0.8575(7) 0.5062(6) 0.9779(8)
C6_2 C 0.8273(7) 0.7007(6) 0.9945(8)
C9_2 C 0.9194(7) 0.6491(5) 0.9883(8)
H4_2 H 0.9405 0.6481 0.9261
C11_2 C 0.8257(7) 0.5151(5) 0.8848(8)
H7_2 H 0.8552 0.4751 0.8480
H8_2 H 0.8421 0.5677 0.8633
H9_2 H 0.7586 0.5085 0.8814
C14_2 C 0.8224(6) 0.7678(6) 0.9490(8)
H11_2 H 0.8691 0.7792 0.9075
N4_2 N 0.5983(4) 0.9333(4) 0.9806(6)
H16_2 H 0.5314 0.8267 0.9744
C25_2 C 0.5808(7) 0.9606(6) 0.8884(8)
H17_2 H 0.5539 0.9323 0.8402
C27_2 C 0.7491 0.8235 0.9604
H21_2 H 0.7533 0.8754 0.9374
S1_3 S 0.5000 0.25041(16) 0.7500
S2_2 S 0.0000 0.26595(18) 0.7500
O1_2 O 0.1832(5) 0.1635(4) 0.5986(5)
C1_2 C 0.4381(7) 0.3208(6) 0.6920(8)
O2_2 O 0.3693(4) 0.2254(3) 0.5963(4)
C3_2 C 0.1306(7) 0.2175(6) 0.6246(8)
C4_2 C 0.0616(6) 0.1961(5) 0.6928(6)
C5_2 C 0.4643(6) 0.3964(6) 0.7167(7)
H1_2 H 0.4378 0.4428 0.6922
C8_2 C 0.0344(6) 0.1201(6) 0.7191(7)
H3_2 H 0.0610 0.0733 0.6964
C12_2 C 0.3675(7) 0.2976(6) 0.6215(8)
C15_2 C 0.5619(7) 0.3208(6) 0.8080(8)
O5_2 O 0.6307(4) 0.2254(3) 0.9037(4)
C16_2 C 0.5357(6) 0.3964(6) 0.7833(7)
H12_2 H 0.5622 0.4428 0.8078
C17_2 C 0.6325(7) 0.2976(6) 0.8785(8)
O9 O 0.8168(5) 0.1635(4) 0.9014(5)
S2_3 S 1.0000 0.26595(18) 0.7500
C18_2 C 0.8694(7) 0.2175(6) 0.8754(8)
C19_2 C 0.9384(6) 0.1961(5) 0.8072(6)
C20_2 C 0.9656(6) 0.1201(6) 0.7809(7)
H13_2 H 0.9390 0.0733 0.8036
S2_4 S 0.0000 0.73405(18) 0.2500
O7_2 O 0.1832(5) 0.8365(4) 0.0986(5)
C18_3 C 0.1306(7) 0.7825(6) 0.1246(8)
C19_3 C 0.0616(6) 0.8039(5) 0.1928(6)
C20_3 C 0.0344(6) 0.8799(6) 0.2191(7)
H13_3 H 0.0610 0.9267 0.1964
O8_2 O 0.1303(4) 0.7107(4) 0.0975(4)
Zn3_2 Zn 0.28836(5) 0.83601(4) 0.00324(5)
Zn7_2 Zn 0.21164(5) 0.66399(4) 0.99676(5)
N2_3 N 0.5983(4) 0.0667(4) 0.4806(6)
C2_3 C 0.6425(7) 0.0062(6) 0.5221(8)
C6_3 C 0.6727(7) 0.2007(6) 0.5055(8)
C9_3 C 0.5806(7) 0.1491(5) 0.5117(8)
H4_3 H 0.5595 0.1481 0.5739
H5_3 H 0.5314 0.1733 0.4744
C10_3 C 0.5808(7) 0.0394(6) 0.3884(8)
H6_3 H 0.5539 0.0677 0.3402
C11_3 C 0.6743(7) 0.0151(5) 0.6152(8)
H8_3 H 0.6579 0.0677 0.6367
H9_3 H 0.7414 0.0085 0.6186
C13_3 C 0.7491 0.1765 0.4604
H10_3 H 0.7533 0.1246 0.4374
C14_3 C 0.6776(6) 0.2678(6) 0.5510(8)
H11_3 H 0.6309 0.2792 0.5925
N3_3 N 0.8476(4) 0.5560(4) 0.5297(5)
N4_3 N 0.9017(4) 0.4333(4) 0.5194(6)
C21_3 C 0.8575(7) 0.4938(6) 0.4779(8)
C22_3 C 0.8273(7) 0.2993(6) 0.4945(8)
C23_3 C 0.8871(6) 0.5369(6) 0.6105(8)
H14_3 H 0.8916 0.5720 0.6595
C24_3 C 0.9194(7) 0.3509(5) 0.4883(8)
H15_3 H 0.9405 0.3519 0.4261
H16_3 H 0.9686 0.3267 0.5256
C25_3 C 0.9192(7) 0.4606(6) 0.6116(8)
H17_3 H 0.9461 0.4323 0.6598
C26_3 C 0.8257(7) 0.4849(5) 0.3848(8)
H18_3 H 0.8552 0.5249 0.3480
H19_3 H 0.8421 0.4323 0.3633
H20_3 H 0.7586 0.4915 0.3814
C27_3 C 0.7509 0.3235 0.5396
H21_3 H 0.7467 0.3754 0.5626
C28_3 C 0.8224(6) 0.2322(6) 0.4490(8)
H22_3 H 0.8691 0.2208 0.4075
Zn5_2 Zn 0.78836(5) 0.66399(4) 0.50324(5)
Zn1_2 Zn 0.71164(5) 0.83601(4) 0.49676(5)
S1_4 S 0.5000 0.74959(16) 0.2500
S2_5 S 1.0000 0.73405(18) 0.2500
O1_3 O 0.8168(5) 0.8365(4) 0.4014(5)
C1_3 C 0.5619(7) 0.6792(6) 0.3080(8)
O2_3 O 0.6307(4) 0.7746(3) 0.4037(4)
N1_2 N 0.6524(4) 0.9440(4) 0.4703(5)
C3_3 C 0.8694(7) 0.7825(6) 0.3754(8)
C4_3 C 0.9384(6) 0.8039(5) 0.3072(6)
C5_3 C 0.5357(6) 0.6036(6) 0.2833(7)
H1_3 H 0.5622 0.5572 0.3078
C7_3 C 0.6129(6) 0.9631(6) 0.3895(8)
H2_3 H 0.6084 0.9280 0.3405
C8_3 C 0.9656(6) 0.8799(6) 0.2809(7)
H3_3 H 0.9390 0.9267 0.3036
H7_3 H 0.6448 0.9751 0.6520
C12_3 C 0.6325(7) 0.7024(6) 0.3785(8)
O3_2 O 0.6852(4) 0.6471(4) 0.4091(5)
O4_2 O 0.8697(4) 0.7107(4) 0.4025(4)
C15_3 C 0.4381(7) 0.6792(6) 0.1920(8)
O5_3 O 0.3693(4) 0.7746(3) 0.0963(4)
C16_3 C 0.4643(6) 0.6036(6) 0.2167(7)
H12_3 H 0.4378 0.5572 0.1922
C17_3 C 0.3675(7) 0.7024(6) 0.1215(8)
O6_2 O 0.3148(4) 0.6471(4) 0.0909(5)
N5_2 N 0.3476(4) 0.9440(4) 0.0297(5)
O10_2 O 0.8148(4) 0.8529(4) 0.5909(5)
O12_2 O 0.6303(4) 0.7893(4) 0.5975(4)
O11_2 O 0.1852(4) 0.8529(4) 0.9091(5)
O13_2 O 0.3697(4) 0.7893(4) 0.9025(4)
N2_4 N 0.4017(4) 0.0667(4) 0.0194(6)
H5_4 H 0.4686 0.1733 0.0256
C10_4 C 0.4192(7) 0.0394(6) 0.1116(8)
H6_4 H 0.4461 0.0677 0.1598
C13_4 C 0.2509 0.1765 0.0396
H10_4 H 0.2467 0.1246 0.0626
C21_4 C 0.1425(7) 0.4938(6) 0.0221(8)
C22_4 C 0.1727(7) 0.2993(6) 0.0055(8)
C24_4 C 0.0806(7) 0.3509(5) 0.0117(8)
H15_4 H 0.0595 0.3519 0.0739
C26_4 C 0.1743(7) 0.4849(5) 0.1152(8)
H18_4 H 0.1448 0.5249 0.1520
H19_4 H 0.1579 0.4323 0.1367
H20_4 H 0.2414 0.4915 0.1186
C28_4 C 0.1776(6) 0.2322(6) 0.0510(8)
H22_4 H 0.1309 0.2208 0.0925
C2_4 C 0.3575(7) 0.0062(6) 0.9779(8)
C6_4 C 0.3273(7) 0.2007(6) 0.9945(8)
C9_4 C 0.4194(7) 0.1491(5) 0.9883(8)
H4_4 H 0.4405 0.1481 0.9261
C11_4 C 0.3257(7) 0.0151(5) 0.8848(8)
H8_4 H 0.3421 0.0677 0.8633
H9_4 H 0.2586 0.0085 0.8814
C14_4 C 0.3224(6) 0.2678(6) 0.9490(8)
H11_4 H 0.3691 0.2792 0.9075
N3_4 N 0.1524(4) 0.5560(4) 0.9703(5)
N4_4 N 0.0983(4) 0.4333(4) 0.9806(6)
C23_4 C 0.1129(6) 0.5369(6) 0.8895(8)
H14_4 H 0.1084 0.5720 0.8405
H16_4 H 0.0314 0.3267 0.9744
C25_4 C 0.0808(7) 0.4606(6) 0.8884(8)
H17_4 H 0.0539 0.4323 0.8402
C27_4 C 0.2491 0.3235 0.9604
H21_4 H 0.2533 0.3754 0.9374
C7_4 C 0.3871(6) 0.9631(6) 0.1105(8)
H2_4 H 0.3916 0.9280 0.1595
H7_4 H 0.3552 0.9751 0.8480
S1_5 S 0.0000 0.75041(16) 0.7500
C15_4 C 0.0619(7) 0.8208(6) 0.8080(8)
O5_4 O 0.1307(4) 0.7254(3) 0.9037(4)
C16_4 C 0.0357(6) 0.8964(6) 0.7833(7)
H12_4 H 0.0622 0.9428 0.8078
C17_4 C 0.1325(7) 0.7976(6) 0.8785(8)
O9_2 O 0.3168(5) 0.6635(4) 0.9014(5)
S1_6 S 1.0000 0.75041(16) 0.7500
S2_6 S 0.5000 0.76595(18) 0.7500
O1_4 O 0.6832(5) 0.6635(4) 0.5986(5)
C1_4 C 0.9381(7) 0.8208(6) 0.6920(8)
O2_4 O 0.8693(4) 0.7254(3) 0.5963(4)
C3_4 C 0.6306(7) 0.7175(6) 0.6246(8)
C4_4 C 0.5616(6) 0.6961(5) 0.6928(6)
C5_4 C 0.9643(6) 0.8964(6) 0.7167(7)
H1_4 H 0.9378 0.9428 0.6922
C8_4 C 0.5344(6) 0.6201(6) 0.7191(7)
H3_4 H 0.5610 0.5733 0.6964
C12_4 C 0.8675(7) 0.7976(6) 0.6215(8)
C18_4 C 0.3694(7) 0.7175(6) 0.8754(8)
C19_4 C 0.4384(6) 0.6961(5) 0.8072(6)
C20_4 C 0.4656(6) 0.6201(6) 0.7809(7)
H13_4 H 0.4390 0.5733 0.8036
loop_
_geom_bond_atom_site_label_1
_geom_bond_atom_site_label_2
_geom_bond_site_symmetry_1
_geom_bond_site_symmetry_2
C23 N3 1_555 1_555
H14 C23 1_555 1_555
Zn5 N3 1_555 1_555
Zn1 O1 1_555 1_555
S1 C1 1_555 1_555
S2 C4 1_555 1_555
O1 C3 1_555 1_555
C1 C5 1_555 1_555
O2 Zn1 1_555 1_555
N1 Zn1 1_555 1_555
N2 C2 1_555 1_555
C2 N1 1_555 1_555
C3 C4 1_555 1_555
C4 C8 1_555 1_555
C5 H1 1_555 1_555
C6 C9 1_555 1_555
C7 N1 1_555 1_555
H2 C7 1_555 1_555
C8 H3 1_555 1_555
C9 N2 1_555 1_555
H4 C9 1_555 1_555
H5 C9 1_555 1_555
C10 N2 1_555 1_555
H6 C10 1_555 1_555
C11 C2 1_555 1_555
H7 C11 1_555 1_555
H8 C11 1_555 1_555
H9 C11 1_555 1_555
C12 C1 1_555 1_555
O3 C12 1_555 1_555
C13 C6 1_555 1_555
H10 C13 1_555 1_555
C14 C6 1_555 1_555
H11 C14 1_555 1_555
O4 C3 1_555 1_555
O7 C18 1_555 1_555
C18 C19 1_555 1_555
C19 S2 1_555 1_555
C20 C8 1_555 1_555
H13 C20 1_555 1_555
O8 C18 1_555 1_555
N4 C21 1_555 1_555
C21 C26 1_555 1_555
C22 C24 1_555 1_555
C24 N4 1_555 1_555
H15 C24 1_555 1_555
H16 C24 1_555 1_555
C25 N4 1_555 1_555
H17 C25 1_555 1_555
H19 C26 1_555 1_555
H20 C26 1_555 1_555
C27 C14 1_555 1_555
H21 C27 1_555 1_555
C28 C13 1_555 1_555
H22 C28 1_555 1_555
Zn3 O7 1_555 1_555
Zn5 O3 1_555 1_555
O10 Zn1 1_555 1_555
O12 Zn1 1_555 1_555
O2 C12 1_555 1_555
C7 C10 1_555 1_555
O4 Zn5 1_555 1_555
C19 C20 1_555 1_555
C22 C27 1_555 1_555
C22 C28 1_555 1_555
C15 S1_2 1_555 1_555
O5 C17 1_555 1_555
H12 C16 1_555 1_555
C17 C15 1_555 1_555
O6 C17 1_555 1_555
Zn3 O5 1_555 1_555
N5 Zn3 1_555 1_555
C15 C16 1_555 1_555
C23_2 N3_2 1_555 1_555
H14_2 C23_2 1_555 1_555
Zn7 N3_2 1_555 1_555
C7_2 N5 1_555 1_555
H2_2 C7_2 1_555 1_555
C10_2 N2_2 1_555 1_555
H6_2 C10_2 1_555 1_555
H10_2 C13_2 1_555 1_555
C21_2 C26_2 1_555 1_555
C22_2 C24_2 1_555 1_555
H15_2 C24_2 1_555 1_555
H19_2 C26_2 1_555 1_555
H20_2 C26_2 1_555 1_555
C28_2 C13_2 1_555 1_555
H22_2 C28_2 1_555 1_555
C7_2 C10_2 1_555 1_555
C22_2 C28_2 1_555 1_555
C6_2 C9_2 1_555 1_555
H4_2 C9_2 1_555 1_555
C11_2 C2_2 1_555 1_555
H7_2 C11_2 1_555 1_555
H8_2 C11_2 1_555 1_555
H9_2 C11_2 1_555 1_555
C14_2 C6_2 1_555 1_555
H11_2 C14_2 1_555 1_555
C25_2 N4_2 1_555 1_555
H17_2 C25_2 1_555 1_555
C27_2 C14_2 1_555 1_555
H21_2 C27_2 1_555 1_555
Zn5 O1_2 1_555 1_555
S1_3 C1_2 1_555 1_555
S2_2 C4_2 1_555 1_555
O1_2 C3_2 1_555 1_555
C1_2 C5_2 1_555 1_555
O2_2 Zn5 1_555 1_555
C3_2 C4_2 1_555 1_555
C4_2 C8_2 1_555 1_555
C5_2 H1_2 1_555 1_555
C8_2 H3_2 1_555 1_555
C12_2 C1_2 1_555 1_555
O10 C12_2 1_555 1_555
O12 C3_2 1_555 1_555
C15_2 S1_3 1_555 1_555
O5_2 C17_2 1_555 1_555
C16_2 C5_2 1_555 1_555
H12_2 C16_2 1_555 1_555
C17_2 C15_2 1_555 1_555
O11 C17_2 1_555 1_555
Zn7 O5_2 1_555 1_555
O9 Zn7 1_555 1_555
O2_2 C12_2 1_555 1_555
C15_2 C16_2 1_555 1_555
O9 C18_2 1_555 1_555
C18_2 C19_2 1_555 1_555
C19_2 S2_3 1_555 1_555
H13_2 C20_2 1_555 1_555
O13 C18_2 1_555 1_555
C19_2 C20_2 1_555 1_555
O7_2 C18_3 1_555 1_555
C18_3 C19_3 1_555 1_555
C19_3 S2_4 1_555 1_555
H13_3 C20_3 1_555 1_555
O8_2 C18_3 1_555 1_555
Zn3_2 O7_2 1_555 1_555
C19_3 C20_3 1_555 1_555
N2_3 C2_3 1_555 1_555
C6_3 C9_3 1_555 1_555
C9_3 N2_3 1_555 1_555
H4_3 C9_3 1_555 1_555
H5_3 C9_3 1_555 1_555
C10_3 N2_3 1_555 1_555
H6_3 C10_3 1_555 1_555
C11_3 C2_3 1_555 1_555
H8_3 C11_3 1_555 1_555
H9_3 C11_3 1_555 1_555
C13_3 C6_3 1_555 1_555
H10_3 C13_3 1_555 1_555
C14_3 C6_3 1_555 1_555
H11_3 C14_3 1_555 1_555
N3_3 C21_3 1_555 1_555
N4_3 C21_3 1_555 1_555
C21_3 C26_3 1_555 1_555
C22_3 C24_3 1_555 1_555
C23_3 N3_3 1_555 1_555
H14_3 C23_3 1_555 1_555
C24_3 N4_3 1_555 1_555
H15_3 C24_3 1_555 1_555
H16_3 C24_3 1_555 1_555
C25_3 N4_3 1_555 1_555
H17_3 C25_3 1_555 1_555
C26_3 H18_3 1_555 1_555
H19_3 C26_3 1_555 1_555
H20_3 C26_3 1_555 1_555
C27_3 C14_3 1_555 1_555
H21_3 C27_3 1_555 1_555
C28_3 C13_3 1_555 1_555
H22_3 C28_3 1_555 1_555
Zn5_2 N3_3 1_555 1_555
C22_3 C27_3 1_555 1_555
C22_3 C28_3 1_555 1_555
C23_3 C25_3 1_555 1_555
Zn1_2 O1_3 1_555 1_555
S1_4 C1_3 1_555 1_555
S2_5 C4_3 1_555 1_555
O1_3 C3_3 1_555 1_555
C1_3 C5_3 1_555 1_555
O2_3 Zn1_2 1_555 1_555
N1_2 Zn1_2 1_555 1_555
C3_3 C4_3 1_555 1_555
C4_3 C8_3 1_555 1_555
C5_3 H1_3 1_555 1_555
C7_3 N1_2 1_555 1_555
H2_3 C7_3 1_555 1_555
C8_3 H3_3 1_555 1_555
C12_3 C1_3 1_555 1_555
O3_2 C12_3 1_555 1_555
O4_2 C3_3 1_555 1_555
C15_3 S1_4 1_555 1_555
O5_3 C17_3 1_555 1_555
C16_3 C5_3 1_555 1_555
H12_3 C16_3 1_555 1_555
C17_3 C15_3 1_555 1_555
O6_2 C17_3 1_555 1_555
Zn3_2 O5_3 1_555 1_555
Zn5_2 O3_2 1_555 1_555
N5_2 Zn3_2 1_555 1_555
O10_2 Zn1_2 1_555 1_555
O12_2 Zn1_2 1_555 1_555
O2_3 C12_3 1_555 1_555
O4_2 Zn5_2 1_555 1_555
C15_3 C16_3 1_555 1_555
C10_4 N2_4 1_555 1_555
H6_4 C10_4 1_555 1_555
H10_4 C13_4 1_555 1_555
C21_4 C26_4 1_555 1_555
C22_4 C24_4 1_555 1_555
H15_4 C24_4 1_555 1_555
C26_4 H18_4 1_555 1_555
H19_4 C26_4 1_555 1_555
H20_4 C26_4 1_555 1_555
C28_4 C13_4 1_555 1_555
H22_4 C28_4 1_555 1_555
C22_4 C28_4 1_555 1_555
C6_4 C9_4 1_555 1_555
H4_4 C9_4 1_555 1_555
C11_4 C2_4 1_555 1_555
H8_4 C11_4 1_555 1_555
H9_4 C11_4 1_555 1_555
C14_4 C6_4 1_555 1_555
H11_4 C14_4 1_555 1_555
C23_4 N3_4 1_555 1_555
H14_4 C23_4 1_555 1_555
C25_4 N4_4 1_555 1_555
H17_4 C25_4 1_555 1_555
C27_4 C14_4 1_555 1_555
H21_4 C27_4 1_555 1_555
Zn7_2 N3_4 1_555 1_555
C23_4 C25_4 1_555 1_555
C7_4 N5_2 1_555 1_555
H2_4 C7_4 1_555 1_555
C15_4 S1_5 1_555 1_555
O5_4 C17_4 1_555 1_555
H12_4 C16_4 1_555 1_555
C17_4 C15_4 1_555 1_555
O11_2 C17_4 1_555 1_555
Zn7_2 O5_4 1_555 1_555
O9_2 Zn7_2 1_555 1_555
C15_4 C16_4 1_555 1_555
Zn5_2 O1_4 1_555 1_555
S1_6 C1_4 1_555 1_555
S2_6 C4_4 1_555 1_555
O1_4 C3_4 1_555 1_555
C1_4 C5_4 1_555 1_555
O2_4 Zn5_2 1_555 1_555
C3_4 C4_4 1_555 1_555
C4_4 C8_4 1_555 1_555
C5_4 H1_4 1_555 1_555
C8_4 H3_4 1_555 1_555
C12_4 C1_4 1_555 1_555
O10_2 C12_4 1_555 1_555
O12_2 C3_4 1_555 1_555
O9_2 C18_4 1_555 1_555
C18_4 C19_4 1_555 1_555
C19_4 S2_6 1_555 1_555
C20_4 C8_4 1_555 1_555
H13_4 C20_4 1_555 1_555
O13_2 C18_4 1_555 1_555
O2_4 C12_4 1_555 1_555
C19_4 C20_4 1_555 1_555

#END
