
###############################################################################
#
# This file contains modified crystal structure data generated from the
# MOF subset of the Cambridge Structural Database (CSD) v543 
# hosted by the Cambridge Crystallographic Data Centre (CCDC).
#
# This work is licensed under the Creative Commons
# Attribution-NonCommercial-ShareAlike 4.0 International License.
# To view a copy of this license, visit
# http://creativecommons.org/licenses/by-nc-sa/4.0/
# or send a letter to
# Creative Commons, PO Box 1866, Mountain View, CA 94042, USA.
#
# CIF created using the CSD Python API on 29 September 2022
# The structure has been converted into the P1 space group
# The structure has a 3D framework
# The original CSD entry FIQZAH is in the monoclinic crystal system
# The framework has been calculated to contain at least 10.0% void space
# The void calculation uses a probe of radius 1.32A, grid spacing 0.4
#
###############################################################################

data_FIQZAH
_chemical_formula_moiety         '(C24 H26 O47 Zn19)n'
_symmetry_cell_setting           triclinic
_symmetry_space_group_name_H-M   'P 1'
_symmetry_Int_Tables_number      1
_space_group_name_Hall           'P 1'
loop_
_symmetry_equiv_pos_site_id
_symmetry_equiv_pos_as_xyz
1 x,y,z
_cell_length_a                   11.3407(9)
_cell_length_b                   9.7856(8)
_cell_length_c                   14.4334(13)
_cell_angle_alpha                90
_cell_angle_beta                 91.449(10)
_cell_angle_gamma                90
_cell_volume                     1601.24
loop_
_atom_site_label
_atom_site_type_symbol
_atom_site_fract_x
_atom_site_fract_y
_atom_site_fract_z
Zn13 Zn -0.0000 0.0000 0.5000
Zn13_2 Zn -0.0000 1.0000 0.5000
Zn1 Zn 0.24321(3) 0.08135(4) 0.36880(3)
Zn2 Zn 0.24008(3) 0.39482(4) 0.31394(3)
Zn3 Zn 0.5000 0.0000 0.5000
O3 O 0.1017(2) 0.1573(2) 0.44056(16)
C2 C 0.0694(3) 0.2807(4) 0.4489(2)
H2 H 0.000(4) 0.289(5) 0.487(3)
O4 O 0.1112(2) 0.3806(2) 0.40887(18)
O5 O 0.1899(2) 0.2027(2) 0.25450(15)
C3 C 0.1690(3) 0.1755(4) 0.1697(2)
H3 H 0.136(4) 0.250(5) 0.129(3)
O6 O 0.1852(2) 0.0648(3) 0.13054(17)
O7 O 0.3461(2) 0.2593(2) 0.39118(15)
C4 C 0.4241(3) 0.2896(4) 0.4521(2)
H4 H 0.431(5) 0.385(3) 0.455(4)
O8 O 0.4816(2) 0.2100(3) 0.50073(18)
Zn6 Zn 0.25679(3) 0.58135(4) 0.13120(3)
Zn10 Zn 0.74008(3) 0.10518(4) 0.81394(3)
Zn11 Zn 0.25992(3) 0.89482(4) 0.18606(3)
Zn13_3 Zn 1.0000 0.0000 0.5000
Zn14 Zn 0.5000 0.5000 0.0000
O13 O 0.6846(2) 0.0265(3) 0.52291(17)
C7 C 0.7432(3) 0.1055(4) 0.4704(3)
H7 H 0.701(4) 0.154(5) 0.430(3)
O14 O 0.8503(2) 0.1127(3) 0.46657(19)
O20 O 0.3101(2) 0.7027(2) 0.24550(15)
C9 C 0.3310(3) 0.6755(4) 0.3303(2)
H9 H 0.364(4) 0.750(5) 0.371(3)
O22 O 0.3148(2) 0.5648(3) 0.36946(17)
O26 O 0.3509(2) 0.4189(2) 0.19522(17)
O27 O 0.8509(2) 0.0811(2) 0.69522(17)
C11 C 0.4549(3) 0.3741(4) 0.1887(2)
H11 H 0.476(5) 0.309(6) 0.233(4)
O29 O 0.5237(2) 0.3991(3) 0.12570(18)
O30 O 0.0237(2) 0.1009(3) 0.62570(18)
O31 O 0.6300(2) 0.0027(2) 0.71935(17)
O32 O 0.1300(2) 0.4973(2) 0.21935(17)
C12 C 0.5197(3) 0.0127(4) 0.7122(3)
H12 H 0.483(4) 0.034(5) 0.769(4)
O34 O 0.4594(2) 0.0003(3) 0.64044(18)
Zn14_2 Zn 0.5000 0.5000 1.0000
Zn3_2 Zn 0.5000 1.0000 0.5000
O1 O 0.3154(2) 0.9735(3) 0.47709(17)
C1 C 0.2568(3) 0.8945(4) 0.5296(3)
H1 H 0.299(4) 0.846(5) 0.570(3)
O2 O 0.1497(2) 0.8873(3) 0.53343(19)
O9 O 0.1491(2) 0.9189(2) 0.30478(17)
C5 C 0.0451(3) 0.8741(4) 0.3113(2)
H5 H 0.024(5) 0.809(6) 0.267(4)
O11 O 0.3700(2) 0.9973(2) 0.28065(17)
C6 C 0.4803(3) 0.9873(4) 0.2878(3)
H6 H 0.517(4) 0.966(5) 0.231(4)
O12 O 0.5406(2) 0.9997(3) 0.35956(18)
Zn5 Zn 0.75679(3) 0.91865(4) 0.63120(3)
Zn8 Zn 0.75992(3) 0.60518(4) 0.68606(3)
Zn13_4 Zn 1.0000 1.0000 0.5000
O17 O 0.8983(2) 0.8427(2) 0.55944(16)
H8 H -0.000(4) 0.711(5) 0.513(3)
O19 O 0.8888(2) 0.6194(2) 0.59113(18)
O21 O 0.8101(2) 0.7973(2) 0.74550(15)
O23 O 0.6852(2) 0.4352(3) 0.63054(17)
O24 O 0.6539(2) 0.7407(2) 0.60882(15)
C10 C 0.5759(3) 0.7104(4) 0.5479(2)
H10 H 0.569(5) 0.615(3) 0.545(4)
O25 O 0.5184(2) 0.7900(3) 0.49927(18)
O28 O 0.6491(2) 0.5811(2) 0.80478(17)
O33 O 0.8700(2) 0.5027(2) 0.78065(17)
H2_2 H 1.000(4) 0.289(5) 0.487(3)
O10 O 0.9763(2) 0.8991(3) 0.37430(18)
C8 C 0.9306(3) 0.7193(4) 0.5511(2)
H8_2 H 1.000(4) 0.711(5) 0.513(3)
Zn3_3 Zn 0.0000 0.5000 0.0000
O1_2 O 0.1846(2) 0.4735(3) 0.02291(17)
O3_2 O 0.3983(2) 0.6573(2) 0.05944(16)
C2_2 C 0.4306(3) 0.7807(4) 0.0511(2)
H2_3 H 0.500(4) 0.789(5) 0.013(3)
O4_2 O 0.3888(2) 0.8806(2) 0.09113(18)
O7_2 O 0.1539(2) 0.7593(2) 0.10882(15)
C4_2 C 0.0759(3) 0.7896(4) 0.0479(2)
H4_2 H 0.069(5) 0.885(3) 0.045(4)
C6_2 C 0.0197(3) 0.4873(4) 0.2122(3)
O15 O 0.6497(2) 0.6127(3) 0.03343(19)
Zn3_4 Zn 0.0000 0.5000 1.0000
C1_2 C 0.2432(3) 0.3945(4) 0.9704(3)
H1_2 H 0.201(4) 0.346(5) 0.930(3)
O2_2 O 0.3503(2) 0.3873(3) 0.96657(19)
O8_2 O 0.0184(2) 0.7100(3) 0.99927(18)
Zn7 Zn 0.74321(3) 0.41865(4) 0.86880(3)
O16 O 0.6017(2) 0.3427(2) 0.94056(16)
C8_2 C 0.5694(3) 0.2193(4) 0.9489(2)
H8_3 H 0.500(4) 0.211(5) 0.987(3)
O18 O 0.6112(2) 0.1194(2) 0.90887(18)
O30_2 O 0.4763(2) 0.6009(3) 0.87430(18)
H12_2 H 0.017(4) 0.534(5) 0.731(4)
O34_2 O 0.0406(2) 0.5003(3) 0.85956(18)
Zn3_5 Zn 1.0000 0.5000 0.0000
H6_2 H 0.983(4) 0.466(5) 0.269(4)
O12_2 O 0.9594(2) 0.4997(3) 0.14044(18)
C7_2 C 0.7568(3) 0.6055(4) 0.0296(3)
H7_2 H 0.799(4) 0.654(5) 0.070(3)
O25_2 O 0.9816(2) 0.2900(3) 0.00073(18)
Zn3_6 Zn 1.0000 0.5000 1.0000
O13_2 O 0.8154(2) 0.5265(3) 0.97709(17)
O21_2 O 0.6899(2) 0.2973(2) 0.75450(15)
O24_2 O 0.8461(2) 0.2407(2) 0.89118(15)
C10_2 C 0.9241(3) 0.2104(4) 0.9521(2)
H10_2 H 0.931(5) 0.115(3) 0.955(4)
C12_2 C 0.9803(3) 0.5127(4) 0.7878(3)
O23_2 O 0.8148(2) 0.9352(3) 0.86946(17)
C5_2 C 0.9549(3) 0.1259(4) 0.6887(2)
H5_2 H 0.976(5) 0.191(6) 0.733(4)
C3_2 C 0.8310(3) 0.8245(4) 0.8303(2)
H3_2 H 0.864(4) 0.750(5) 0.871(3)
C9_2 C 0.6690(3) 0.3245(4) 0.6697(2)
H9_2 H 0.636(4) 0.250(5) 0.629(3)
C11_2 C 0.5451(3) 0.6259(4) 0.8113(2)
H11_2 H 0.524(5) 0.691(6) 0.767(4)
loop_
_geom_bond_atom_site_label_1
_geom_bond_atom_site_label_2
_geom_bond_site_symmetry_1
_geom_bond_site_symmetry_2
Zn2 O4 1_555 1_555
O3 Zn1 1_555 1_555
C2 O3 1_555 1_555
H2 C2 1_555 1_555
O4 C2 1_555 1_555
O5 Zn1 1_555 1_555
C3 O5 1_555 1_555
H3 C3 1_555 1_555
O6 C3 1_555 1_555
O7 Zn1 1_555 1_555
C4 O7 1_555 1_555
H4 C4 1_555 1_555
O8 Zn3 1_555 1_555
Zn6 O20 1_555 1_555
Zn10 O27 1_555 1_555
Zn11 O20 1_555 1_555
Zn13_3 O14 1_555 1_555
Zn14 O29 1_555 1_555
O13 Zn3 1_555 1_555
C7 O13 1_555 1_555
H7 C7 1_555 1_555
O14 C7 1_555 1_555
O20 C9 1_555 1_555
C9 H9 1_555 1_555
O22 Zn2 1_555 1_555
O26 Zn2 1_555 1_555
C11 O26 1_555 1_555
H11 C11 1_555 1_555
O29 C11 1_555 1_555
O30 Zn13 1_555 1_555
O32 Zn2 1_555 1_555
C12 O31 1_555 1_555
H12 C12 1_555 1_555
O34 Zn3 1_555 1_555
Zn2 O5 1_555 1_555
Zn2 O7 1_555 1_555
Zn13 O3 1_555 1_555
C4 O8 1_555 1_555
Zn6 O26 1_555 1_555
Zn6 O32 1_555 1_555
Zn10 O31 1_555 1_555
C9 O22 1_555 1_555
C12 O34 1_555 1_555
Zn3_2 O1 1_555 1_555
Zn13_2 O2 1_555 1_555
O1 C1 1_555 1_555
C1 H1 1_555 1_555
O2 C1 1_555 1_555
C5 O9 1_555 1_555
H5 C5 1_555 1_555
C6 O11 1_555 1_555
H6 C6 1_555 1_555
O12 Zn3_2 1_555 1_555
Zn8 O19 1_555 1_555
O17 Zn5 1_555 1_555
O21 Zn5 1_555 1_555
O23 Zn8 1_555 1_555
O24 Zn5 1_555 1_555
C10 O24 1_555 1_555
H10 C10 1_555 1_555
O25 Zn3_2 1_555 1_555
O28 Zn8 1_555 1_555
O33 Zn8 1_555 1_555
O9 Zn11 1_555 1_555
O11 Zn11 1_555 1_555
C6 O12 1_555 1_555
Zn8 O21 1_555 1_555
Zn8 O24 1_555 1_555
Zn13_4 O17 1_555 1_555
C10 O25 1_555 1_555
O10 Zn13_4 1_555 1_555
C8 O17 1_555 1_555
H8_2 C8 1_555 1_555
O19 C8 1_555 1_555
Zn6 O1_2 1_555 1_555
Zn11 O4_2 1_555 1_555
Zn3_3 O1_2 1_555 1_555
O3_2 Zn6 1_555 1_555
C2_2 O3_2 1_555 1_555
H2_3 C2_2 1_555 1_555
O4_2 C2_2 1_555 1_555
O7_2 Zn6 1_555 1_555
C4_2 O7_2 1_555 1_555
H4_2 C4_2 1_555 1_555
C6_2 O32 1_555 1_555
O15 Zn14 1_555 1_555
Zn11 O7_2 1_555 1_555
Zn14 O3_2 1_555 1_555
Zn14_2 O2_2 1_555 1_555
C1_2 H1_2 1_555 1_555
O2_2 C1_2 1_555 1_555
O8_2 Zn3_4 1_555 1_555
Zn7 O16 1_555 1_555
Zn10 O18 1_555 1_555
O16 Zn14_2 1_555 1_555
C8_2 O16 1_555 1_555
H8_3 C8_2 1_555 1_555
O18 C8_2 1_555 1_555
O30_2 Zn14_2 1_555 1_555
O34_2 Zn3_4 1_555 1_555
O12_2 Zn3_5 1_555 1_555
H7_2 C7_2 1_555 1_555
O15 C7_2 1_555 1_555
O25_2 Zn3_5 1_555 1_555
Zn7 O13_2 1_555 1_555
O13_2 Zn3_6 1_555 1_555
O21_2 Zn7 1_555 1_555
O24_2 Zn7 1_555 1_555
C10_2 O24_2 1_555 1_555
H10_2 C10_2 1_555 1_555
O28 Zn7 1_555 1_555
O33 Zn7 1_555 1_555
C12_2 O33 1_555 1_555
Zn10 O21_2 1_555 1_555
Zn10 O24_2 1_555 1_555
C5_2 O27 1_555 1_555
H5_2 C5_2 1_555 1_555
C3_2 O21 1_555 1_555
H3_2 C3_2 1_555 1_555
O23_2 C3_2 1_555 1_555
O21_2 C9_2 1_555 1_555
C9_2 H9_2 1_555 1_555
C11_2 O28 1_555 1_555
H11_2 C11_2 1_555 1_555
O30_2 C11_2 1_555 1_555
C9_2 O23 1_555 1_555

#END
