
###############################################################################
#
# This file contains modified crystal structure data generated from the
# MOF subset of the Cambridge Structural Database (CSD) v543 
# hosted by the Cambridge Crystallographic Data Centre (CCDC).
#
# This work is licensed under the Creative Commons
# Attribution-NonCommercial-ShareAlike 4.0 International License.
# To view a copy of this license, visit
# http://creativecommons.org/licenses/by-nc-sa/4.0/
# or send a letter to
# Creative Commons, PO Box 1866, Mountain View, CA 94042, USA.
#
# CIF created using the CSD Python API on 29 September 2022
# The structure has been converted into the P1 space group
# The structure has a 3D framework
# The original CSD entry FIRNAX is in the trigonal crystal system
# The original CSD entry FIRNAX is in a Sohncke space group
# The framework has been calculated to contain at least 10.0% void space
# The void calculation uses a probe of radius 1.32A, grid spacing 0.4
# H atom positions have been added when not included in the experimental data
#
###############################################################################

data_FIRNAX
_chemical_formula_moiety         '(C82 H54 F6 N22 Ni5 O17)n'
_symmetry_cell_setting           triclinic
_symmetry_space_group_name_H-M   'P 1'
_symmetry_Int_Tables_number      1
_space_group_name_Hall           'P 1'
loop_
_symmetry_equiv_pos_site_id
_symmetry_equiv_pos_as_xyz
1 x,y,z
_cell_length_a                   15.540(2)
_cell_length_b                   15.540(2)
_cell_length_c                   18.679(4)
_cell_angle_alpha                90
_cell_angle_beta                 90
_cell_angle_gamma                120
_cell_volume                     3906.49
loop_
_atom_site_label
_atom_site_type_symbol
_atom_site_fract_x
_atom_site_fract_y
_atom_site_fract_z
O3 O 0.0379(2) 0.1601(3) 0.7463(2)
F2 F 0.0547(15) 0.3945(16) 0.5176(5)
O4 O 0.11508(18) 0.24359(25) 0.56164(12)
C15 C 0.0310(3) 0.2101(4) 0.5902(2)
C16 C 0.0151(5) 0.2844(6) 0.6318(4)
C17 C 0.0269(7) 0.3680(9) 0.5877(5)
C18 C 0.0209(8) 0.4408(10) 0.6315(5)
H8 H 0.0455 0.5046 0.6133
Ni4 Ni 0.17468(3) 0.17468(3) 0.5000
H15 H 0.0122658 0.0623318 0.855554
Ni2 Ni -0.0000 0.82532(3) 0.1666
Ni1 Ni 0.82532(3) 0.0000 0.8333
F1 F 0.9453(15) 0.3398(5) 0.8157(5)
O1 O 0.9598(2) 0.0000 0.8333
O2 O 0.88492(18) 0.12851(18) 0.77169(12)
C11 C 0.9690(3) 0.1791(3) 0.7431(2)
C12 C 0.9849(5) 0.2693(4) 0.7015(4)
C13 C 0.9731(7) 0.3411(5) 0.7456(5)
C14 C 0.9791(8) 0.4199(6) 0.7018(5)
H7 H 0.9545 0.4591 0.7200
O5 O 0.9621(2) 0.1222(4) 0.5870(2)
N7 N 0.8691(3) 0.0882(2) 0.92659(15)
N8 N 0.6913(3) 0.0000(4) 0.8333
Ni1_2 Ni 0.82532(3) 1.0000 0.8333
O1_2 O 0.9598(2) 1.0000 0.8333
N1 N 0.7809(2) 0.9118(2) 0.74008(15)
N2 N 0.6061(2) 0.6406(2) 0.55863(15)
N3 N 0.7561(2) 0.7561(2) 0.5000
N4 N 0.3087(3) 0.3087(3) 0.5000
C1 C 0.6935(3) 0.8283(3) 0.7366(2)
H1 H 0.6515 0.8113 0.7760
C2 C 0.6609(3) 0.7649(3) 0.67791(19)
H2 H 0.5986 0.7078 0.6771
C3 C 0.7254(3) 0.7908(3) 0.62090(17)
C4 C 0.8155(3) 0.8748(3) 0.6238(2)
H3 H 0.8599 0.8917 0.5860
C5 C 0.8403(3) 0.9348(3) 0.68305(19)
H4 H 0.9010 0.9937 0.6836
C6 C 0.6932(3) 0.7259(3) 0.55460(19)
C7 C 0.5845(3) 0.5845(3) 0.5000
C8 C 0.4889(3) 0.4889(3) 0.5000
C9 C 0.3756(5) 0.3345(3) 0.4472(2)
H5 H 0.3622 0.2895 0.4101
C10 C 0.4637(3) 0.4247(3) 0.4448(2)
H6 H 0.5054 0.4409 0.4052
N5 N 0.9118(2) 0.7809(2) 0.25992(15)
N6 N 0.6406(2) 0.6061(2) 0.44137(15)
C19 C 0.8283(3) 0.6935(3) 0.2634(2)
H9 H 0.8113 0.6515 0.2240
C20 C 0.7649(3) 0.6609(3) 0.32209(19)
H10 H 0.7078 0.5986 0.3229
C21 C 0.7908(3) 0.7254(3) 0.37910(17)
C22 C 0.8748(3) 0.8155(3) 0.3762(2)
H11 H 0.8917 0.8599 0.4140
C23 C 0.9348(3) 0.8403(3) 0.31695(19)
H12 H 0.9937 0.9010 0.3164
C24 C 0.7259(3) 0.6932(3) 0.44540(19)
C25 C 0.4247(3) 0.4637(3) 0.5552(2)
H13 H 0.4409 0.5054 0.5948
C26 C 0.3345(3) 0.3756(5) 0.5528(2)
H14 H 0.2895 0.3622 0.5899
Ni2_2 Ni 1.0000 0.82532(3) 0.1666
O6 O 0.75641(25) 0.87149(18) 0.89498(12)
N8_2 N 0.6913(3) 1.0000(4) 0.8333
H16 H 0.952142 0.942085 0.861066
N3_2 N 0.2439(2) 0.0000(3) 0.8333
C7_2 C 0.4155(3) 0.0000(4) 0.8333
C8_2 C 0.5111(3) 0.0000(4) 0.8333
C9_2 C 0.6655(3) 0.0411(6) 0.7805(2)
H5_2 H 0.7105 0.0727 0.7434
C10_2 C 0.5753(3) 0.0390(4) 0.7781(2)
H6_2 H 0.5591 0.0645 0.7385
N5_2 N 0.2191(2) 0.1309(3) 0.59325(15)
N6_2 N 0.3939(2) 0.0345(3) 0.77470(15)
C19_2 C 0.3065(3) 0.1348(4) 0.5967(2)
H9_2 H 0.3485 0.1598 0.5573
C20_2 C 0.3391(3) 0.1040(4) 0.65542(19)
H10_2 H 0.4014 0.1092 0.6562
C21_2 C 0.2746(3) 0.0654(4) 0.71243(17)
C22_2 C 0.1845(3) 0.0593(4) 0.7095(2)
H11_2 H 0.1401 0.0318 0.7473
C23_2 C 0.1597(3) 0.0945(4) 0.65028(19)
H12_2 H 0.0990 0.0927 0.6497
C24_2 C 0.3068(3) 0.0327(4) 0.77873(19)
O1_3 O 0.0000 0.9598(2) 0.1666
N1_2 N 0.0882(2) 0.8691(3) 0.07341(15)
C1_2 C 0.1717(3) 0.8652(4) 0.0699(2)
H1_2 H 0.1887 0.8402 0.1093
C2_2 C 0.2351(3) 0.8960(4) 0.01124(19)
H2_2 H 0.2922 0.8908 0.0104
C5_2 C 0.0652(3) 0.9055(4) 0.01638(19)
H4_2 H 0.0063 0.9073 0.0169
O6_2 O 0.12851(18) 0.88492(31) 0.22831(12)
N8_3 N 0.0000(4) 0.6913(5) 0.1667
N2_2 N 0.3594(2) 0.9655(3) 0.89196(15)
N3_3 N 0.2439(2) 1.0000(3) 0.8333
C3_2 C 0.2092(3) 0.9346(4) 0.95423(17)
C4_2 C 0.1252(3) 0.9407(4) 0.9571(2)
H3_2 H 0.1083 0.9682 0.9193
C6_2 C 0.2741(3) 0.9673(4) 0.88793(19)
C7_3 C 0.4155(3) 1.0000(4) 0.8333
C8_3 C 0.5111(3) 1.0000(4) 0.8333
C25_2 C 0.5363(3) 0.9610(4) 0.8885(2)
H13_2 H 0.4946 0.9355 0.9281
C26_2 C 0.6244(5) 0.9589(6) 0.8861(2)
H14_2 H 0.6378 0.9273 0.9232
F1_2 F 0.6602(5) 0.6055(16) 0.1490(5)
O1_4 O 1.0000 0.9598(2) 0.1666
O2_2 O 0.87149(18) 0.75641(25) 0.10502(12)
O3_2 O 0.8399(3) 0.8778(4) 0.0796(2)
C11_2 C 0.8209(3) 0.7899(4) 0.0764(2)
C12_2 C 0.7307(4) 0.7156(6) 0.0348(4)
C13_2 C 0.6589(5) 0.6320(9) 0.0789(5)
C14_2 C 0.5801(6) 0.5592(10) 0.0351(5)
H7_2 H 0.5409 0.4954 0.0533
N8_4 N 1.0000(4) 0.6913(5) 0.1667
H15_2 H 0.937668 0.949934 0.188888
F2_2 F 0.6055(16) 0.6602(22) 0.8510(5)
O5_2 O 0.8778(4) 0.8399(4) 0.9204(2)
C15_2 C 0.7899(4) 0.8209(5) 0.9236(2)
C16_2 C 0.7156(6) 0.7307(8) 0.9652(4)
C17_2 C 0.6320(9) 0.6589(11) 0.9211(5)
C18_2 C 0.5592(10) 0.5801(13) 0.9649(5)
H8_2 H 0.4954 0.5409 0.9467
F1_3 F 0.3945(16) 0.0547(15) 0.4824(5)
O1_5 O 0.0402(2) 0.0402(2) 0.5000
O2_3 O 0.24359(25) 0.11508(18) 0.43836(12)
N1_3 N 0.1309(3) 0.2191(2) 0.40675(15)
N2_3 N 0.0345(3) 0.3939(2) 0.22530(15)
N3_4 N 0.0000(3) 0.2439(2) 0.1667
C1_3 C 0.1348(4) 0.3065(3) 0.4033(2)
H1_3 H 0.1598 0.3485 0.4427
C2_3 C 0.1040(4) 0.3391(3) 0.34458(19)
H2_3 H 0.1092 0.4014 0.3438
C3_3 C 0.0654(4) 0.2746(3) 0.28757(17)
C4_3 C 0.0593(4) 0.1845(3) 0.2905(2)
H3_3 H 0.0318 0.1401 0.2527
C5_3 C 0.0945(4) 0.1597(3) 0.34972(19)
H4_3 H 0.0927 0.0990 0.3503
C6_3 C 0.0327(4) 0.3068(3) 0.22127(19)
C7_4 C 0.0000(4) 0.4155(3) 0.1667
C8_4 C 0.0000(4) 0.5111(3) 0.1667
C11_3 C 0.2101(4) 0.0310(3) 0.4098(2)
C12_3 C 0.2844(6) 0.0151(5) 0.3682(4)
C13_3 C 0.3680(9) 0.0269(7) 0.4123(5)
C14_3 C 0.4408(10) 0.0209(8) 0.3685(5)
H7_3 H 0.5046 0.0455 0.3867
O5_3 O 0.1601(4) 0.0379(2) 0.2537(2)
C25_3 C 0.0390(4) 0.5753(3) 0.2219(2)
H13_3 H 0.0645 0.5591 0.2615
C26_3 C 0.0411(6) 0.6655(3) 0.2195(2)
H14_3 H 0.0727 0.7105 0.2566
O3_3 O 0.1222(4) 0.9621(2) 0.4130(2)
F2_3 F 0.3398(22) 0.9453(15) 0.1843(5)
C15_3 C 0.1791(5) 0.9690(3) 0.2569(2)
C16_3 C 0.2693(8) 0.9849(5) 0.2985(4)
C17_3 C 0.3411(11) 0.9731(7) 0.2544(5)
C18_3 C 0.4199(13) 0.9791(8) 0.2982(5)
H8_3 H 0.4591 0.9545 0.2800
H15_3 H 0.0500661 0.987734 0.522221
N3_5 N 1.0000(3) 0.2439(2) 0.1667
C7_5 C 1.0000(4) 0.4155(3) 0.1667
C8_5 C 1.0000(4) 0.5111(3) 0.1667
C9_3 C 0.9589(6) 0.6244(5) 0.1139(2)
H5_3 H 0.9273 0.6378 0.0768
C10_3 C 0.9610(4) 0.5363(3) 0.1115(2)
H6_3 H 0.9355 0.4946 0.0719
N6_3 N 0.9655(3) 0.3594(2) 0.10804(15)
C21_3 C 0.9346(4) 0.2092(3) 0.04577(17)
C22_3 C 0.9407(4) 0.1252(3) 0.0429(2)
H11_3 H 0.9682 0.1083 0.0807
C24_3 C 0.9673(4) 0.2741(3) 0.11207(19)
H16_2 H 0.989942 0.0478578 0.527732
C19_3 C 0.8652(4) 0.1717(3) 0.9301(2)
H9_3 H 0.8402 0.1887 0.8907
C20_3 C 0.8960(4) 0.2351(3) 0.98876(19)
H10_3 H 0.8908 0.2922 0.9896
C23_3 C 0.9055(4) 0.0652(3) 0.98362(19)
H12_3 H 0.9073 0.0063 0.9831
H15_4 H 0.0623318 0.0122658 0.144446
H16_3 H 0.942085 0.952142 0.138934
H16_4 H 0.0478578 0.989942 0.472268
H15_5 H 0.987734 0.0500661 0.477779
H15_6 H 0.949934 0.937668 0.811112
H16_5 H 0.0579153 0.0100575 0.194399
H16_6 H 0.0100575 0.0579153 0.805601
loop_
_geom_bond_atom_site_label_1
_geom_bond_atom_site_label_2
_geom_bond_site_symmetry_1
_geom_bond_site_symmetry_2
F2 C17 1_555 1_555
O4 C15 1_555 1_555
C15 C16 1_555 1_555
C17 C16 1_555 1_555
H8 C18 1_555 1_555
Ni4 O4 1_555 1_555
C17 C18 1_555 1_555
Ni1 O1 1_555 1_555
F1 C13 1_555 1_555
O2 Ni1 1_555 1_555
C11 O2 1_555 1_555
C12 C11 1_555 1_555
C13 C12 1_555 1_555
C14 C13 1_555 1_555
H7 C14 1_555 1_555
N7 Ni1 1_555 1_555
N8 Ni1 1_555 1_555
Ni1_2 O1_2 1_555 1_555
N1 Ni1_2 1_555 1_555
N2 C6 1_555 1_555
N3 C6 1_555 1_555
N4 C9 1_555 1_555
C1 N1 1_555 1_555
H1 C1 1_555 1_555
C2 C1 1_555 1_555
H2 C2 1_555 1_555
C3 C2 1_555 1_555
C4 C3 1_555 1_555
H3 C4 1_555 1_555
C5 N1 1_555 1_555
H4 C5 1_555 1_555
C6 C3 1_555 1_555
C7 N2 1_555 1_555
C8 C7 1_555 1_555
C9 H5 1_555 1_555
C10 C8 1_555 1_555
H6 C10 1_555 1_555
N5 C19 1_555 1_555
N6 C7 1_555 1_555
C19 H9 1_555 1_555
C20 C19 1_555 1_555
H10 C20 1_555 1_555
C21 C20 1_555 1_555
C22 C21 1_555 1_555
H11 C22 1_555 1_555
C23 N5 1_555 1_555
H12 C23 1_555 1_555
C24 N3 1_555 1_555
C25 C8 1_555 1_555
H13 C25 1_555 1_555
C26 N4 1_555 1_555
H14 C26 1_555 1_555
Ni2_2 N5 1_555 1_555
Ni4 N4 1_555 1_555
O6 Ni1_2 1_555 1_555
N8_2 Ni1_2 1_555 1_555
C4 C5 1_555 1_555
C9 C10 1_555 1_555
N6 C24 1_555 1_555
C21 C24 1_555 1_555
C22 C23 1_555 1_555
C25 C26 1_555 1_555
O1_2 H16 1_555 1_555
N8 C9_2 1_555 1_555
C8_2 C7_2 1_555 1_555
C9_2 H5_2 1_555 1_555
C10_2 C8_2 1_555 1_555
H6_2 C10_2 1_555 1_555
N5_2 C19_2 1_555 1_555
N6_2 C7_2 1_555 1_555
C19_2 H9_2 1_555 1_555
C20_2 C19_2 1_555 1_555
H10_2 C20_2 1_555 1_555
C21_2 C20_2 1_555 1_555
C22_2 C21_2 1_555 1_555
H11_2 C22_2 1_555 1_555
C23_2 N5_2 1_555 1_555
H12_2 C23_2 1_555 1_555
C24_2 N3_2 1_555 1_555
Ni4 N5_2 1_555 1_555
C9_2 C10_2 1_555 1_555
N6_2 C24_2 1_555 1_555
C21_2 C24_2 1_555 1_555
C22_2 C23_2 1_555 1_555
Ni2 O1_3 1_555 1_555
N1_2 Ni2 1_555 1_555
C1_2 N1_2 1_555 1_555
H1_2 C1_2 1_555 1_555
C2_2 C1_2 1_555 1_555
H2_2 C2_2 1_555 1_555
C5_2 N1_2 1_555 1_555
H4_2 C5_2 1_555 1_555
O6_2 Ni2 1_555 1_555
N8_3 Ni2 1_555 1_555
N2_2 C6_2 1_555 1_555
N3_3 C6_2 1_555 1_555
C4_2 C3_2 1_555 1_555
H3_2 C4_2 1_555 1_555
C6_2 C3_2 1_555 1_555
C7_3 N2_2 1_555 1_555
C8_3 C7_3 1_555 1_555
C25_2 C8_3 1_555 1_555
H13_2 C25_2 1_555 1_555
C26_2 N8_2 1_555 1_555
H14_2 C26_2 1_555 1_555
C25_2 C26_2 1_555 1_555
Ni2_2 O1_4 1_555 1_555
F1_2 C13_2 1_555 1_555
O2_2 Ni2_2 1_555 1_555
O3_2 C11_2 1_555 1_555
C11_2 O2_2 1_555 1_555
C12_2 C11_2 1_555 1_555
C13_2 C12_2 1_555 1_555
C14_2 C13_2 1_555 1_555
H7_2 C14_2 1_555 1_555
N8_4 Ni2_2 1_555 1_555
O1_4 H15_2 1_555 1_555
F2_2 C17_2 1_555 1_555
O6 C15_2 1_555 1_555
O5_2 C15_2 1_555 1_555
C15_2 C16_2 1_555 1_555
C17_2 C16_2 1_555 1_555
H8_2 C18_2 1_555 1_555
C17_2 C18_2 1_555 1_555
Ni4 O1_5 1_555 1_555
F1_3 C13_3 1_555 1_555
O2_3 Ni4 1_555 1_555
N1_3 Ni4 1_555 1_555
N2_3 C6_3 1_555 1_555
N3_4 C6_3 1_555 1_555
C1_3 N1_3 1_555 1_555
H1_3 C1_3 1_555 1_555
C2_3 C1_3 1_555 1_555
H2_3 C2_3 1_555 1_555
C3_3 C2_3 1_555 1_555
C4_3 C3_3 1_555 1_555
H3_3 C4_3 1_555 1_555
C5_3 N1_3 1_555 1_555
H4_3 C5_3 1_555 1_555
C6_3 C3_3 1_555 1_555
C7_4 N2_3 1_555 1_555
C8_4 C7_4 1_555 1_555
C11_3 O2_3 1_555 1_555
C12_3 C11_3 1_555 1_555
C13_3 C12_3 1_555 1_555
C14_3 C13_3 1_555 1_555
H7_3 C14_3 1_555 1_555
C25_3 C8_4 1_555 1_555
H13_3 C25_3 1_555 1_555
C26_3 N8_3 1_555 1_555
H14_3 C26_3 1_555 1_555
C4_3 C5_3 1_555 1_555
C25_3 C26_3 1_555 1_555
F2_3 C17_3 1_555 1_555
O6_2 C15_3 1_555 1_555
C15_3 C16_3 1_555 1_555
C17_3 C16_3 1_555 1_555
H8_3 C18_3 1_555 1_555
C17_3 C18_3 1_555 1_555
N8_4 C9_3 1_555 1_555
C8_5 C7_5 1_555 1_555
C9_3 H5_3 1_555 1_555
C10_3 C8_5 1_555 1_555
H6_3 C10_3 1_555 1_555
N6_3 C7_5 1_555 1_555
C22_3 C21_3 1_555 1_555
H11_3 C22_3 1_555 1_555
C24_3 N3_5 1_555 1_555
C9_3 C10_3 1_555 1_555
N6_3 C24_3 1_555 1_555
C21_3 C24_3 1_555 1_555
N7 C19_3 1_555 1_555
C19_3 H9_3 1_555 1_555
C20_3 C19_3 1_555 1_555
H10_3 C20_3 1_555 1_555
C23_3 N7 1_555 1_555
H12_3 C23_3 1_555 1_555
O1_4 H16_3 1_555 1_555
O1_2 H15_6 1_555 1_555

#END
