
###############################################################################
#
# This file contains modified crystal structure data generated from the
# MOF subset of the Cambridge Structural Database (CSD) v543 
# hosted by the Cambridge Crystallographic Data Centre (CCDC).
#
# This work is licensed under the Creative Commons
# Attribution-NonCommercial-ShareAlike 4.0 International License.
# To view a copy of this license, visit
# http://creativecommons.org/licenses/by-nc-sa/4.0/
# or send a letter to
# Creative Commons, PO Box 1866, Mountain View, CA 94042, USA.
#
# CIF created using the CSD Python API on 29 September 2022
# The structure has been converted into the P1 space group
# The structure has a 3D framework
# The original CSD entry FIRTIL is in the trigonal crystal system
# The framework has been calculated to contain at least 10.0% void space
# The void calculation uses a probe of radius 1.32A, grid spacing 0.4
#
###############################################################################

data_FIRTIL
_chemical_formula_moiety         '(C96 H36 Cu12 N36 O48)n'
_symmetry_cell_setting           triclinic
_symmetry_space_group_name_H-M   'P 1'
_symmetry_Int_Tables_number      1
_space_group_name_Hall           'P 1'
loop_
_symmetry_equiv_pos_site_id
_symmetry_equiv_pos_as_xyz
1 x,y,z
_cell_length_a                   19.0910(2)
_cell_length_b                   19.0910(2)
_cell_length_c                   10.384(4)
_cell_angle_alpha                90
_cell_angle_beta                 90
_cell_angle_gamma                120
_cell_volume                     3277.58
loop_
_atom_site_label
_atom_site_type_symbol
_atom_site_fract_x
_atom_site_fract_y
_atom_site_fract_z
_atom_site_U_iso_or_equiv
_atom_site_thermal_displace_type
C2 C 0.38276 0.09917 0.02659 0.1565 Uiso
C3 C 0.44017 0.13694 0.11861 0.1565 Uiso
C4 C 0.46719 0.2178 0.15983 0.1565 Uiso
C5 C 0.43226 0.26136 0.10526 0.1565 Uiso
C6 C 0.37183 0.22106 0.00978 0.1565 Uiso
C7 C 0.47618 0.09167 0.17404 0.0757 Uiso
C8 C 0.4575 0.34713 0.14904 0.0757 Uiso
O1 O 0.46948 0.07582 0.28683 0.0757 Uiso
O2 O 0.50546 0.06505 0.10018 0.0757 Uiso
O3 O 0.46375 0.36015 0.26772 0.0757 Uiso
O4 O 0.45742 0.39679 0.07011 0.0757 Uiso
Cu1 Cu 0.53584 0.03745 0.36531 0.0084 Uiso
H1 H 0.50747 0.24427 0.22403 0.1878 Uiso
H2 H 0.36637 0.04543 0.00053 0.1878 Uiso
O6 O 0.55959 0.06505 0.60018 0.0757 Uiso
O7 O 0.63985 0.10360 0.26772 0.0757 Uiso
O9 O 0.45742 0.06063 0.57011 0.0757 Uiso
Cu2 Cu 0.50161 0.46416 0.36531 0.0084 Uiso
Cu4 Cu 0.46416 0.50161 0.13469 0.0084 Uiso
C1 C 0.34944 0.14042 0.9721 0.1565 Uiso
N1 N 0.28878 0.09923 0.87544 0.1761 Uiso
N2 N 0.26528 0.13434 0.80465 0.1761 Uiso
N3 N 0.24408 0.16934 0.74034 0.1761 Uiso
H3 H 0.34835 0.24994 0.9724 0.1878 Uiso
Cu5 Cu 0.50161 0.03745 0.86531 0.0084 Uiso
Cu6 Cu 0.53584 0.49839 0.86531 0.0084 Uiso
O5 O 0.44041 0.93495 0.39982 0.0757 Uiso
O8 O 0.54258 0.93937 0.42989 0.0757 Uiso
Cu3 Cu 0.49839 0.96255 0.13469 0.0084 Uiso
O5_2 O 0.06505 0.50546 0.39982 0.0757 Uiso
O8_2 O 0.06063 0.60321 0.42989 0.0757 Uiso
Cu3_2 Cu 0.03745 0.53584 0.13469 0.0084 Uiso
C2_2 C 0.90083 0.28359 0.02659 0.1565 Uiso
C3_2 C 0.86306 0.30323 0.11861 0.1565 Uiso
C4_2 C 0.7822 0.24939 0.15983 0.1565 Uiso
C5_2 C 0.73864 0.17090 0.10526 0.1565 Uiso
C6_2 C 0.77894 0.15077 0.00978 0.1565 Uiso
C7_2 C 0.90833 0.38451 0.17404 0.0757 Uiso
C8_2 C 0.65287 0.11037 0.14904 0.0757 Uiso
O1_2 O 0.92418 0.39366 0.28683 0.0757 Uiso
O2_2 O 0.93495 0.44041 0.10018 0.0757 Uiso
O4_2 O 0.60321 0.06063 0.07011 0.0757 Uiso
Cu1_2 Cu 0.96255 0.49839 0.36531 0.0084 Uiso
H1_2 H 0.75573 0.26320 0.22403 0.1878 Uiso
H2_2 H 0.95457 0.32094 0.00053 0.1878 Uiso
O6_2 O 0.93495 0.49454 0.60018 0.0757 Uiso
O7_2 O 0.89640 0.53625 0.26772 0.0757 Uiso
O9_2 O 0.93937 0.39679 0.57011 0.0757 Uiso
C1_2 C 0.85958 0.20902 0.9721 0.1565 Uiso
N1_2 N 0.90077 0.18955 0.87544 0.1761 Uiso
N2_2 N 0.86566 0.13094 0.80465 0.1761 Uiso
N3_2 N 0.83066 0.07474 0.74034 0.1761 Uiso
H3_2 H 0.75006 0.09841 0.9724 0.1878 Uiso
Cu5_2 Cu 0.96255 0.46416 0.86531 0.0084 Uiso
C2_3 C 0.71641 0.61724 0.02659 0.1565 Uiso
C3_3 C 0.69677 0.55983 0.11861 0.1565 Uiso
C4_3 C 0.75061 0.53281 0.15983 0.1565 Uiso
C5_3 C 0.82910 0.56774 0.10526 0.1565 Uiso
C6_3 C 0.84923 0.62817 0.00978 0.1565 Uiso
C7_3 C 0.61549 0.52382 0.17404 0.0757 Uiso
C8_3 C 0.88963 0.5425 0.14904 0.0757 Uiso
O1_3 O 0.60634 0.53052 0.28683 0.0757 Uiso
O2_3 O 0.55959 0.49454 0.10018 0.0757 Uiso
O4_3 O 0.93937 0.54258 0.07011 0.0757 Uiso
H1_3 H 0.73680 0.49253 0.22403 0.1878 Uiso
H2_3 H 0.67906 0.63363 0.00053 0.1878 Uiso
O5_3 O 0.49454 0.55959 0.39982 0.0757 Uiso
O6_3 O 0.50546 0.44041 0.60018 0.0757 Uiso
O8_3 O 0.39679 0.45742 0.42989 0.0757 Uiso
O9_3 O 0.60321 0.54258 0.57011 0.0757 Uiso
C1_3 C 0.79098 0.65056 0.9721 0.1565 Uiso
N1_3 N 0.81045 0.71122 0.87544 0.1761 Uiso
N2_3 N 0.86906 0.73472 0.80465 0.1761 Uiso
N3_3 N 0.92526 0.75592 0.74034 0.1761 Uiso
H3_3 H 0.90159 0.65165 0.9724 0.1878 Uiso
C1_4 C 0.14042 0.34944 0.5279 0.1565 Uiso
C2_4 C 0.09917 0.38276 0.47341 0.1565 Uiso
C3_4 C 0.13694 0.44017 0.38139 0.1565 Uiso
C4_4 C 0.2178 0.46719 0.34017 0.1565 Uiso
C5_4 C 0.26136 0.43226 0.39474 0.1565 Uiso
C6_4 C 0.22106 0.37183 0.49022 0.1565 Uiso
C7_4 C 0.09167 0.47618 0.32596 0.0757 Uiso
C8_4 C 0.34713 0.4575 0.35096 0.0757 Uiso
O1_4 O 0.07582 0.46948 0.21317 0.0757 Uiso
O3_2 O 0.36015 0.46375 0.23228 0.0757 Uiso
N1_4 N 0.09923 0.28878 0.62456 0.1761 Uiso
N2_4 N 0.13434 0.26528 0.69535 0.1761 Uiso
N3_4 N 0.16934 0.24408 0.75966 0.1761 Uiso
H1_4 H 0.24427 0.50747 0.27597 0.1878 Uiso
H2_4 H 0.04543 0.36637 0.49947 0.1878 Uiso
H3_4 H 0.24994 0.34835 0.5276 0.1878 Uiso
O7_3 O 0.10360 0.63985 0.23228 0.0757 Uiso
Cu5_3 Cu 0.03745 0.50161 0.63469 0.0084 Uiso
Cu6_2 Cu 0.49839 0.53584 0.63469 0.0084 Uiso
O6_4 O 0.06505 0.55959 0.89982 0.0757 Uiso
O9_4 O 0.06063 0.45742 0.92989 0.0757 Uiso
C1_5 C 0.20902 0.85958 0.5279 0.1565 Uiso
C2_5 C 0.28359 0.90083 0.47341 0.1565 Uiso
C3_5 C 0.30323 0.86306 0.38139 0.1565 Uiso
C4_5 C 0.24939 0.7822 0.34017 0.1565 Uiso
C5_5 C 0.17090 0.73864 0.39474 0.1565 Uiso
C6_5 C 0.15077 0.77894 0.49022 0.1565 Uiso
C7_5 C 0.38451 0.90833 0.32596 0.0757 Uiso
C8_5 C 0.11037 0.65287 0.35096 0.0757 Uiso
O1_5 O 0.39366 0.92418 0.21317 0.0757 Uiso
N1_5 N 0.18955 0.90077 0.62456 0.1761 Uiso
N2_5 N 0.13094 0.86566 0.69535 0.1761 Uiso
N3_5 N 0.07474 0.83066 0.75966 0.1761 Uiso
H1_5 H 0.26320 0.75573 0.27597 0.1878 Uiso
H2_5 H 0.32094 0.95457 0.49947 0.1878 Uiso
H3_5 H 0.09841 0.75006 0.5276 0.1878 Uiso
O7_4 O 0.53625 0.89640 0.23228 0.0757 Uiso
Cu5_4 Cu 0.46416 0.96255 0.63469 0.0084 Uiso
O6_5 O 0.49454 0.93495 0.89982 0.0757 Uiso
O9_5 O 0.39679 0.93937 0.92989 0.0757 Uiso
C1_6 C 0.65056 0.79098 0.5279 0.1565 Uiso
C2_6 C 0.61724 0.71641 0.47341 0.1565 Uiso
C3_6 C 0.55983 0.69677 0.38139 0.1565 Uiso
C4_6 C 0.53281 0.75061 0.34017 0.1565 Uiso
C5_6 C 0.56774 0.82910 0.39474 0.1565 Uiso
C6_6 C 0.62817 0.84923 0.49022 0.1565 Uiso
C7_6 C 0.52382 0.61549 0.32596 0.0757 Uiso
C8_6 C 0.5425 0.88963 0.35096 0.0757 Uiso
O1_6 O 0.53052 0.60634 0.21317 0.0757 Uiso
N1_6 N 0.71122 0.81045 0.62456 0.1761 Uiso
N2_6 N 0.73472 0.86906 0.69535 0.1761 Uiso
N3_6 N 0.75592 0.92526 0.75966 0.1761 Uiso
H1_6 H 0.49253 0.73680 0.27597 0.1878 Uiso
H2_6 H 0.63363 0.67906 0.49947 0.1878 Uiso
H3_6 H 0.65165 0.90159 0.5276 0.1878 Uiso
O6_6 O 0.44041 0.50546 0.89982 0.0757 Uiso
O9_6 O 0.54258 0.60321 0.92989 0.0757 Uiso
C1_7 C 0.65056 0.85958 0.0279 0.1565 Uiso
N1_7 N 0.71122 0.90077 0.12456 0.1761 Uiso
N2_7 N 0.73472 0.86566 0.19535 0.1761 Uiso
N3_7 N 0.75592 0.83066 0.25966 0.1761 Uiso
H3_7 H 0.65165 0.75006 0.0276 0.1878 Uiso
C2_7 C 0.61724 0.90083 0.97341 0.1565 Uiso
C3_7 C 0.55983 0.86306 0.88139 0.1565 Uiso
C4_7 C 0.53281 0.7822 0.84017 0.1565 Uiso
C5_7 C 0.56774 0.73864 0.89474 0.1565 Uiso
C6_7 C 0.62817 0.77894 0.99022 0.1565 Uiso
C7_7 C 0.52382 0.90833 0.82596 0.0757 Uiso
C8_7 C 0.5425 0.65287 0.85096 0.0757 Uiso
O1_7 O 0.53052 0.92418 0.71317 0.0757 Uiso
O3_3 O 0.53625 0.63985 0.73228 0.0757 Uiso
H1_7 H 0.49253 0.75573 0.77597 0.1878 Uiso
H2_7 H 0.63363 0.95457 0.99947 0.1878 Uiso
O7_5 O 0.36015 0.89640 0.73228 0.0757 Uiso
C1_8 C 0.14042 0.79098 0.0279 0.1565 Uiso
N1_8 N 0.09923 0.81045 0.12456 0.1761 Uiso
N2_8 N 0.13434 0.86906 0.19535 0.1761 Uiso
N3_8 N 0.16934 0.92526 0.25966 0.1761 Uiso
H3_8 H 0.24994 0.90159 0.0276 0.1878 Uiso
C2_8 C 0.09917 0.71641 0.97341 0.1565 Uiso
C3_8 C 0.13694 0.69677 0.88139 0.1565 Uiso
C4_8 C 0.2178 0.75061 0.84017 0.1565 Uiso
C5_8 C 0.26136 0.82910 0.89474 0.1565 Uiso
C6_8 C 0.22106 0.84923 0.99022 0.1565 Uiso
C7_8 C 0.09167 0.61549 0.82596 0.0757 Uiso
C8_8 C 0.34713 0.88963 0.85096 0.0757 Uiso
O1_8 O 0.07582 0.60634 0.71317 0.0757 Uiso
H1_8 H 0.24427 0.73680 0.77597 0.1878 Uiso
H2_8 H 0.04543 0.67906 0.99947 0.1878 Uiso
O7_6 O 0.10360 0.46375 0.73228 0.0757 Uiso
C1_9 C 0.20902 0.34944 0.0279 0.1565 Uiso
N1_9 N 0.18955 0.28878 0.12456 0.1761 Uiso
N2_9 N 0.13094 0.26528 0.19535 0.1761 Uiso
N3_9 N 0.07474 0.24408 0.25966 0.1761 Uiso
H3_9 H 0.09841 0.34835 0.0276 0.1878 Uiso
C2_9 C 0.28359 0.38276 0.97341 0.1565 Uiso
C3_9 C 0.30323 0.44017 0.88139 0.1565 Uiso
C4_9 C 0.24939 0.46719 0.84017 0.1565 Uiso
C5_9 C 0.17090 0.43226 0.89474 0.1565 Uiso
C6_9 C 0.15077 0.37183 0.99022 0.1565 Uiso
C7_9 C 0.38451 0.47618 0.82596 0.0757 Uiso
C8_9 C 0.11037 0.4575 0.85096 0.0757 Uiso
O1_9 O 0.39366 0.46948 0.71317 0.0757 Uiso
H1_9 H 0.26320 0.50747 0.77597 0.1878 Uiso
H2_9 H 0.32094 0.36637 0.99947 0.1878 Uiso
C1_10 C 0.85958 0.65056 0.4721 0.1565 Uiso
C2_10 C 0.90083 0.61724 0.52659 0.1565 Uiso
C3_10 C 0.86306 0.55983 0.61861 0.1565 Uiso
C4_10 C 0.7822 0.53281 0.65983 0.1565 Uiso
C5_10 C 0.73864 0.56774 0.60526 0.1565 Uiso
C6_10 C 0.77894 0.62817 0.50978 0.1565 Uiso
C7_10 C 0.90833 0.52382 0.67404 0.0757 Uiso
C8_10 C 0.65287 0.5425 0.64904 0.0757 Uiso
O1_10 O 0.92418 0.53052 0.78683 0.0757 Uiso
O3_4 O 0.63985 0.53625 0.76772 0.0757 Uiso
N1_10 N 0.90077 0.71122 0.37544 0.1761 Uiso
N2_10 N 0.86566 0.73472 0.30465 0.1761 Uiso
N3_10 N 0.83066 0.75592 0.24034 0.1761 Uiso
H1_10 H 0.75573 0.49253 0.72403 0.1878 Uiso
H2_10 H 0.95457 0.63363 0.50053 0.1878 Uiso
H3_10 H 0.75006 0.65165 0.4724 0.1878 Uiso
O7_7 O 0.89640 0.36015 0.76772 0.0757 Uiso
C1_11 C 0.79098 0.14042 0.4721 0.1565 Uiso
C2_11 C 0.71641 0.09917 0.52659 0.1565 Uiso
C3_11 C 0.69677 0.13694 0.61861 0.1565 Uiso
C4_11 C 0.75061 0.2178 0.65983 0.1565 Uiso
C5_11 C 0.82910 0.26136 0.60526 0.1565 Uiso
C6_11 C 0.84923 0.22106 0.50978 0.1565 Uiso
C7_11 C 0.61549 0.09167 0.67404 0.0757 Uiso
C8_11 C 0.88963 0.34713 0.64904 0.0757 Uiso
O1_11 O 0.60634 0.07582 0.78683 0.0757 Uiso
N1_11 N 0.81045 0.09923 0.37544 0.1761 Uiso
N2_11 N 0.86906 0.13434 0.30465 0.1761 Uiso
N3_11 N 0.92526 0.16934 0.24034 0.1761 Uiso
H1_11 H 0.73680 0.24427 0.72403 0.1878 Uiso
H2_11 H 0.67906 0.04543 0.50053 0.1878 Uiso
H3_11 H 0.90159 0.24994 0.4724 0.1878 Uiso
O7_8 O 0.46375 0.10360 0.76772 0.0757 Uiso
C1_12 C 0.34944 0.20902 0.4721 0.1565 Uiso
C2_12 C 0.38276 0.28359 0.52659 0.1565 Uiso
C3_12 C 0.44017 0.30323 0.61861 0.1565 Uiso
C4_12 C 0.46719 0.24939 0.65983 0.1565 Uiso
C5_12 C 0.43226 0.17090 0.60526 0.1565 Uiso
C6_12 C 0.37183 0.15077 0.50978 0.1565 Uiso
C7_12 C 0.47618 0.38451 0.67404 0.0757 Uiso
C8_12 C 0.4575 0.11037 0.64904 0.0757 Uiso
O1_12 O 0.46948 0.39366 0.78683 0.0757 Uiso
N1_12 N 0.28878 0.18955 0.37544 0.1761 Uiso
N2_12 N 0.26528 0.13094 0.30465 0.1761 Uiso
N3_12 N 0.24408 0.07474 0.24034 0.1761 Uiso
H1_12 H 0.50747 0.26320 0.72403 0.1878 Uiso
H2_12 H 0.36637 0.32094 0.50053 0.1878 Uiso
H3_12 H 0.34835 0.09841 0.4724 0.1878 Uiso
loop_
_geom_bond_atom_site_label_1
_geom_bond_atom_site_label_2
_geom_bond_site_symmetry_1
_geom_bond_site_symmetry_2
C2 C3 1_555 1_555
C3 C4 1_555 1_555
C4 C5 1_555 1_555
C5 C6 1_555 1_555
C7 C3 1_555 1_555
C8 C5 1_555 1_555
O1 C7 1_555 1_555
O2 C7 1_555 1_555
O3 C8 1_555 1_555
O4 C8 1_555 1_555
Cu1 O1 1_555 1_555
H1 C4 1_555 1_555
H2 C2 1_555 1_555
O6 Cu1 1_555 1_555
O7 Cu1 1_555 1_555
O9 Cu1 1_555 1_555
Cu2 O3 1_555 1_555
Cu4 O4 1_555 1_555
Cu2 Cu4 1_555 1_555
N1 C1 1_555 1_555
N2 N1 1_555 1_555
N3 N2 1_555 1_555
C2_2 C3_2 1_555 1_555
C3_2 C4_2 1_555 1_555
C4_2 C5_2 1_555 1_555
C5_2 C6_2 1_555 1_555
C7_2 C3_2 1_555 1_555
C8_2 C5_2 1_555 1_555
O1_2 C7_2 1_555 1_555
O2_2 C7_2 1_555 1_555
O7 C8_2 1_555 1_555
O4_2 C8_2 1_555 1_555
Cu1_2 O1_2 1_555 1_555
H1_2 C4_2 1_555 1_555
H2_2 C2_2 1_555 1_555
O6_2 Cu1_2 1_555 1_555
O7_2 Cu1_2 1_555 1_555
O9_2 Cu1_2 1_555 1_555
N1_2 C1_2 1_555 1_555
N2_2 N1_2 1_555 1_555
N3_2 N2_2 1_555 1_555
C2_3 C3_3 1_555 1_555
C3_3 C4_3 1_555 1_555
C4_3 C5_3 1_555 1_555
C5_3 C6_3 1_555 1_555
C7_3 C3_3 1_555 1_555
C8_3 C5_3 1_555 1_555
O1_3 C7_3 1_555 1_555
O2_3 C7_3 1_555 1_555
O7_2 C8_3 1_555 1_555
O4_3 C8_3 1_555 1_555
Cu2 O1_3 1_555 1_555
H1_3 C4_3 1_555 1_555
H2_3 C2_3 1_555 1_555
O5_3 Cu2 1_555 1_555
O6_3 Cu2 1_555 1_555
O8_3 Cu2 1_555 1_555
O9_3 Cu2 1_555 1_555
Cu4 O2_3 1_555 1_555
N1_3 C1_3 1_555 1_555
N2_3 N1_3 1_555 1_555
N3_3 N2_3 1_555 1_555
C1_4 C2_4 1_555 1_555
C2_4 C3_4 1_555 1_555
C3_4 C4_4 1_555 1_555
C4_4 C5_4 1_555 1_555
C5_4 C6_4 1_555 1_555
C6_4 C1_4 1_555 1_555
C7_4 C3_4 1_555 1_555
C8_4 C5_4 1_555 1_555
O1_4 C7_4 1_555 1_555
O5_2 C7_4 1_555 1_555
O3_2 C8_4 1_555 1_555
O8_3 C8_4 1_555 1_555
N1_4 C1_4 1_555 1_555
N2_4 N1_4 1_555 1_555
N3_4 N2_4 1_555 1_555
Cu3_2 O1_4 1_555 1_555
H1_4 C4_4 1_555 1_555
H2_4 C2_4 1_555 1_555
H3_4 C6_4 1_555 1_555
O7_3 Cu3_2 1_555 1_555
Cu4 O3_2 1_555 1_555
Cu5_3 O5_2 1_555 1_555
Cu6_2 O8_3 1_555 1_555
C1_5 C2_5 1_555 1_555
C2_5 C3_5 1_555 1_555
C3_5 C4_5 1_555 1_555
C4_5 C5_5 1_555 1_555
C5_5 C6_5 1_555 1_555
C6_5 C1_5 1_555 1_555
C7_5 C3_5 1_555 1_555
C8_5 C5_5 1_555 1_555
O1_5 C7_5 1_555 1_555
O5 C7_5 1_555 1_555
O7_3 C8_5 1_555 1_555
O8_2 C8_5 1_555 1_555
N1_5 C1_5 1_555 1_555
N2_5 N1_5 1_555 1_555
N3_5 N2_5 1_555 1_555
Cu3 O1_5 1_555 1_555
H1_5 C4_5 1_555 1_555
H2_5 C2_5 1_555 1_555
H3_5 C6_5 1_555 1_555
O7_4 Cu3 1_555 1_555
Cu5_4 O5 1_555 1_555
Cu5_3 O8_2 1_555 1_555
C1_6 C2_6 1_555 1_555
C2_6 C3_6 1_555 1_555
C3_6 C4_6 1_555 1_555
C4_6 C5_6 1_555 1_555
C5_6 C6_6 1_555 1_555
C6_6 C1_6 1_555 1_555
C7_6 C3_6 1_555 1_555
C8_6 C5_6 1_555 1_555
O1_6 C7_6 1_555 1_555
O5_3 C7_6 1_555 1_555
O7_4 C8_6 1_555 1_555
O8 C8_6 1_555 1_555
N1_6 C1_6 1_555 1_555
N2_6 N1_6 1_555 1_555
N3_6 N2_6 1_555 1_555
Cu4 O1_6 1_555 1_555
H1_6 C4_6 1_555 1_555
H2_6 C2_6 1_555 1_555
H3_6 C6_6 1_555 1_555
Cu6_2 O5_3 1_555 1_555
Cu5_4 O8 1_555 1_555
N1_7 C1_7 1_555 1_555
N2_7 N1_7 1_555 1_555
N3_7 N2_7 1_555 1_555
C2_7 C3_7 1_555 1_555
C3_7 C4_7 1_555 1_555
C4_7 C5_7 1_555 1_555
C5_7 C6_7 1_555 1_555
C7_7 C3_7 1_555 1_555
C8_7 C5_7 1_555 1_555
O1_7 C7_7 1_555 1_555
O6_5 C7_7 1_555 1_555
O3_3 C8_7 1_555 1_555
O9_6 C8_7 1_555 1_555
Cu5_4 O1_7 1_555 1_555
H1_7 C4_7 1_555 1_555
H2_7 C2_7 1_555 1_555
O7_5 Cu5_4 1_555 1_555
Cu6_2 O3_3 1_555 1_555
Cu6 O9_6 1_555 1_555
Cu6_2 Cu6 1_555 1_555
N1_8 C1_8 1_555 1_555
N2_8 N1_8 1_555 1_555
N3_8 N2_8 1_555 1_555
C2_8 C3_8 1_555 1_555
C3_8 C4_8 1_555 1_555
C4_8 C5_8 1_555 1_555
C5_8 C6_8 1_555 1_555
C7_8 C3_8 1_555 1_555
C8_8 C5_8 1_555 1_555
O1_8 C7_8 1_555 1_555
O6_4 C7_8 1_555 1_555
O7_5 C8_8 1_555 1_555
O9_5 C8_8 1_555 1_555
Cu5_3 O1_8 1_555 1_555
H1_8 C4_8 1_555 1_555
H2_8 C2_8 1_555 1_555
O7_6 Cu5_3 1_555 1_555
N1_9 C1_9 1_555 1_555
N2_9 N1_9 1_555 1_555
N3_9 N2_9 1_555 1_555
C2_9 C3_9 1_555 1_555
C3_9 C4_9 1_555 1_555
C4_9 C5_9 1_555 1_555
C5_9 C6_9 1_555 1_555
C7_9 C3_9 1_555 1_555
C8_9 C5_9 1_555 1_555
O1_9 C7_9 1_555 1_555
O6_6 C7_9 1_555 1_555
O7_6 C8_9 1_555 1_555
O9_4 C8_9 1_555 1_555
Cu6_2 O1_9 1_555 1_555
H1_9 C4_9 1_555 1_555
H2_9 C2_9 1_555 1_555
O6_3 Cu6_2 1_555 1_555
O9_3 Cu6_2 1_555 1_555
Cu6 O6_6 1_555 1_555
C1_10 C2_10 1_555 1_555
C2_10 C3_10 1_555 1_555
C3_10 C4_10 1_555 1_555
C4_10 C5_10 1_555 1_555
C5_10 C6_10 1_555 1_555
C6_10 C1_10 1_555 1_555
C7_10 C3_10 1_555 1_555
C8_10 C5_10 1_555 1_555
O1_10 C7_10 1_555 1_555
O6_2 C7_10 1_555 1_555
O3_4 C8_10 1_555 1_555
O9_3 C8_10 1_555 1_555
N1_10 C1_10 1_555 1_555
N2_10 N1_10 1_555 1_555
N3_10 N2_10 1_555 1_555
Cu5_2 O1_10 1_555 1_555
H1_10 C4_10 1_555 1_555
H2_10 C2_10 1_555 1_555
H3_10 C6_10 1_555 1_555
O7_7 Cu5_2 1_555 1_555
Cu6 O3_4 1_555 1_555
C1_11 C2_11 1_555 1_555
C2_11 C3_11 1_555 1_555
C3_11 C4_11 1_555 1_555
C4_11 C5_11 1_555 1_555
C5_11 C6_11 1_555 1_555
C6_11 C1_11 1_555 1_555
C7_11 C3_11 1_555 1_555
C8_11 C5_11 1_555 1_555
O1_11 C7_11 1_555 1_555
O6 C7_11 1_555 1_555
O7_7 C8_11 1_555 1_555
O9_2 C8_11 1_555 1_555
N1_11 C1_11 1_555 1_555
N2_11 N1_11 1_555 1_555
N3_11 N2_11 1_555 1_555
Cu5 O1_11 1_555 1_555
H1_11 C4_11 1_555 1_555
H2_11 C2_11 1_555 1_555
H3_11 C6_11 1_555 1_555
O7_8 Cu5 1_555 1_555
C1_12 C2_12 1_555 1_555
C2_12 C3_12 1_555 1_555
C3_12 C4_12 1_555 1_555
C4_12 C5_12 1_555 1_555
C5_12 C6_12 1_555 1_555
C6_12 C1_12 1_555 1_555
C7_12 C3_12 1_555 1_555
C8_12 C5_12 1_555 1_555
O1_12 C7_12 1_555 1_555
O6_3 C7_12 1_555 1_555
O7_8 C8_12 1_555 1_555
O9 C8_12 1_555 1_555
N1_12 C1_12 1_555 1_555
N2_12 N1_12 1_555 1_555
N3_12 N2_12 1_555 1_555
Cu6 O1_12 1_555 1_555
H1_12 C4_12 1_555 1_555
H2_12 C2_12 1_555 1_555
H3_12 C6_12 1_555 1_555

#END
