
###############################################################################
#
# This file contains modified crystal structure data generated from the
# MOF subset of the Cambridge Structural Database (CSD) v543 
# hosted by the Cambridge Crystallographic Data Centre (CCDC).
#
# This work is licensed under the Creative Commons
# Attribution-NonCommercial-ShareAlike 4.0 International License.
# To view a copy of this license, visit
# http://creativecommons.org/licenses/by-nc-sa/4.0/
# or send a letter to
# Creative Commons, PO Box 1866, Mountain View, CA 94042, USA.
#
# CIF created using the CSD Python API on 29 September 2022
# The structure has been converted into the P1 space group
# The structure has a 3D framework
# The original CSD entry FISJEZ is in the triclinic crystal system
# The framework has been calculated to contain at least 10.0% void space
# The void calculation uses a probe of radius 1.32A, grid spacing 0.4
#
###############################################################################

data_FISJEZ
_chemical_formula_moiety         '(C28 H16 N7 O8 Zn2)n'
_symmetry_cell_setting           triclinic
_symmetry_space_group_name_H-M   'P 1'
_symmetry_Int_Tables_number      1
_space_group_name_Hall           'P 1'
loop_
_symmetry_equiv_pos_site_id
_symmetry_equiv_pos_as_xyz
1 x,y,z
_cell_length_a                   7.2623(4)
_cell_length_b                   9.4869(6)
_cell_length_c                   13.3903(8)
_cell_angle_alpha                91.557(4)
_cell_angle_beta                 93.632(4)
_cell_angle_gamma                102.588(3)
_cell_volume                     897.768
loop_
_atom_site_label
_atom_site_type_symbol
_atom_site_fract_x
_atom_site_fract_y
_atom_site_fract_z
_atom_site_U_iso_or_equiv
_atom_site_thermal_displace_type
N6 N 0.1271(4) 0.3279(3) 0.0486(2) 0.0212 Uani
Zn7 Zn 0.32596(5) 0.45136(5) 0.14160(3) 0.0214 Uani
C18 C 0.9754(4) 0.2346(4) 0.0737(3) 0.0243 Uani
H9 H 0.953753 0.203604 0.139673 0.0290 Uiso
O5 O 0.6009(3) 0.3815(3) 0.94218(18) 0.0268 Uani
O6 O 0.4313(4) 0.2591(3) 0.8107(2) 0.0370 Uani
N5 N 0.8556(4) 0.1895(3) 0.9920(2) 0.0199 Uani
C15 C 0.5140(4) 0.2647(4) 0.8943(3) 0.0231 Uani
C16 C 0.5124(4) 0.1280(4) 0.9482(3) 0.0208 Uani
C17 C 0.6730(4) 0.0938(4) 0.9946(3) 0.0214 Uani
C20 C 0.9360(5) 0.2581(4) 0.9113(3) 0.0237 Uani
H11 H 0.884883 0.247340 0.843759 0.0280 Uiso
C21 C 0.3395(4) 0.0313(4) 0.9543(3) 0.0224 Uani
H12 H 0.228276 0.052213 0.922545 0.0270 Uiso
Zn4 Zn 0.67404(5) 0.54864(5) 0.85840(3) 0.0214 Uani
O1 O 0.3991(3) 0.6185(3) 0.05782(18) 0.0268 Uani
O2 O 0.5687(4) 0.7409(3) 0.1893(2) 0.0370 Uani
N1 N 0.1444(4) 0.8105(3) 0.0080(2) 0.0199 Uani
C1 C 0.4860(4) 0.7353(4) 0.1057(3) 0.0231 Uani
C2 C 0.4876(4) 0.8720(4) 0.0518(3) 0.0208 Uani
C3 C 0.3270(4) 0.9062(4) 0.0054(3) 0.0214 Uani
C6 C 0.0640(5) 0.7419(4) 0.0887(3) 0.0237 Uani
H3 H 0.115117 0.752660 0.156241 0.0280 Uiso
C7 C 0.6605(4) 0.9687(4) 0.0457(3) 0.0224 Uani
H4 H 0.771724 0.947787 0.077455 0.0270 Uiso
N3 N 0.4656(4) 0.6216(4) 0.7871(2) 0.0274 Uani
N4 N 0.2556(4) 0.6190(4) 0.6621(2) 0.0310 Uani
C4 C 0.0246(4) 0.7654(4) 0.9263(3) 0.0243 Uani
H1 H 0.046247 0.796396 0.860327 0.0290 Uiso
C10 C 0.3492(5) 0.5387(5) 0.7180(3) 0.0325 Uani
H5 H 0.334440 0.437010 0.709403 0.0390 Uiso
C11 C 0.3157(6) 0.7614(5) 0.6975(4) 0.0512 Uani
H6 H 0.273203 0.842817 0.673149 0.0620 Uiso
C12 C 0.4461(6) 0.7610(5) 0.7731(3) 0.0441 Uani
H7 H 0.514429 0.844066 0.811081 0.0530 Uiso
C13 C 0.1235(5) 0.5612(5) 0.5785(3) 0.0303 Uani
O7 O 0.2069(4) 0.5257(4) 0.2569(2) 0.0423 Uani
O8 O 0.1341(4) 0.2950(4) 0.2918(3) 0.0593 Uani
C22 C 0.1413(5) 0.4248(6) 0.3112(3) 0.0376 Uani
C23 C 0.0683(5) 0.4657(5) 0.4090(3) 0.0336 Uani
C28 C 0.1931(5) 0.5295(5) 0.4895(3) 0.0410 Uani
H16 H 0.325658 0.550895 0.482749 0.0490 Uiso
O3 O 0.7931(4) 0.4743(4) 0.7431(2) 0.0423 Uani
O4 O 0.8659(4) 0.7050(4) 0.7082(3) 0.0593 Uani
N2 N 0.8729(4) 0.6721(3) 0.9514(2) 0.0212 Uani
C8 C 0.8587(5) 0.5752(6) 0.6888(3) 0.0376 Uani
C9 C 0.9317(5) 0.5343(5) 0.5910(3) 0.0336 Uani
C14 C 0.8069(5) 0.4705(5) 0.5105(3) 0.0410 Uani
H8 H 0.674342 0.449105 0.517251 0.0490 Uiso
N7 N 0.5344(4) 0.3784(4) 0.2129(2) 0.0274 Uani
N8 N 0.7444(4) 0.3810(4) 0.3379(2) 0.0310 Uani
C24 C 0.6508(5) 0.4613(5) 0.2820(3) 0.0325 Uani
H13 H 0.665560 0.562990 0.290597 0.0390 Uiso
C25 C 0.6843(6) 0.2386(5) 0.3025(4) 0.0512 Uani
H14 H 0.726797 0.157183 0.326851 0.0620 Uiso
C26 C 0.5539(6) 0.2390(5) 0.2269(3) 0.0441 Uani
H15 H 0.485571 0.155934 0.188919 0.0530 Uiso
C27 C 0.8765(5) 0.4388(5) 0.4215(3) 0.0303 Uani
C19 C 0.1018(4) 0.3438(4) 0.9469(3) 0.0211 Uani
H10 H 0.187762 0.405564 0.908052 0.0250 Uiso
C5 C 0.8982(4) 0.6562(4) 0.0531(3) 0.0211 Uani
H2 H 0.812238 0.594436 0.091948 0.0250 Uiso
loop_
_atom_site_aniso_label
_atom_site_aniso_U_11
_atom_site_aniso_U_22
_atom_site_aniso_U_33
_atom_site_aniso_U_23
_atom_site_aniso_U_13
_atom_site_aniso_U_12
N6 0.0151 0.0232 0.0206 0.0038 -0.0029 -0.0049
Zn7 0.0134 0.0294 0.0153 0.00237 -0.00533 -0.00717
C18 0.0181 0.025 0.023 0.0054 -0.0021 -0.0097
O5 0.0257 0.0235 0.027 -0.0003 0.0011 -0.0036
O6 0.0383 0.0326 0.0334 0.0021 -0.0103 -0.0031
N5 0.0148 0.0215 0.0181 -0.0013 -0.0015 -0.0063
C15 0.0112 0.027 0.027 -0.0059 0.0026 -0.004
C16 0.0165 0.017 0.023 -0.0046 -0.0022 -0.0072
C17 0.0145 0.018 0.025 -0.0046 -0.0004 -0.0101
C20 0.0203 0.031 0.0158 -0.0046 0 -0.0021
C21 0.0108 0.024 0.028 -0.0041 -0.003 -0.0037
Zn4 0.0134 0.0294 0.0153 0.00237 -0.00533 -0.00717
O1 0.0257 0.0235 0.027 -0.0003 0.0011 -0.0036
O2 0.0383 0.0326 0.0334 0.0021 -0.0103 -0.0031
N1 0.0148 0.0215 0.0181 -0.0013 -0.0015 -0.0063
C1 0.0112 0.027 0.027 -0.0059 0.0026 -0.004
C2 0.0165 0.017 0.023 -0.0046 -0.0022 -0.0072
C3 0.0145 0.018 0.025 -0.0046 -0.0004 -0.0101
C6 0.0203 0.031 0.0158 -0.0046 0 -0.0021
C7 0.0108 0.024 0.028 -0.0041 -0.003 -0.0037
N3 0.0145 0.048 0.0149 0.0042 -0.0018 -0.0034
N4 0.0166 0.058 0.0174 0.0022 -0.0033 0.0074
C4 0.0181 0.025 0.023 0.0054 -0.0021 -0.0097
C10 0.0219 0.05 0.019 0.0057 -0.0071 -0.0043
C11 0.04 0.061 0.056 -0.01 -0.021 0.027
C12 0.034 0.058 0.042 -0.016 -0.011 0.02
C13 0.0162 0.056 0.017 0.0037 -0.0049 0.0055
O7 0.0379 0.071 0.0215 0.0126 0.007 0.0168
O8 0.054 0.06 0.059 -0.0035 0.0262 -0.0038
C22 0.0123 0.074 0.024 0.004 0.0002 0.004
C23 0.0217 0.059 0.017 0.0045 -0.0023 0.003
C28 0.0193 0.079 0.022 0 -0.0016 0.006
O3 0.0379 0.071 0.0215 0.0126 0.007 0.0168
O4 0.054 0.06 0.059 -0.0035 0.0262 -0.0038
N2 0.0151 0.0232 0.0206 0.0038 -0.0029 -0.0049
C8 0.0123 0.074 0.024 0.004 0.0002 0.004
C9 0.0217 0.059 0.017 0.0045 -0.0023 0.003
C14 0.0193 0.079 0.022 0 -0.0016 0.006
N7 0.0145 0.048 0.0149 0.0042 -0.0018 -0.0034
N8 0.0166 0.058 0.0174 0.0022 -0.0033 0.0074
C24 0.0219 0.05 0.019 0.0057 -0.0071 -0.0043
C25 0.04 0.061 0.056 -0.01 -0.021 0.027
C26 0.034 0.058 0.042 -0.016 -0.011 0.02
C27 0.0162 0.056 0.017 0.0037 -0.0049 0.0055
C19 0.0157 0.027 0.0183 0.001 0.0035 -0.0009
C5 0.0157 0.027 0.0183 0.001 0.0035 -0.0009
loop_
_geom_bond_atom_site_label_1
_geom_bond_atom_site_label_2
_geom_bond_site_symmetry_1
_geom_bond_site_symmetry_2
Zn7 N6 1_555 1_555
H9 C18 1_555 1_555
O5 C15 1_555 1_555
O6 C15 1_555 1_555
N5 C17 1_555 1_555
C15 C16 1_555 1_555
C16 C17 1_555 1_555
C20 N5 1_555 1_555
H11 C20 1_555 1_555
C21 C16 1_555 1_555
H12 C21 1_555 1_555
Zn4 O5 1_555 1_555
O1 C1 1_555 1_555
O2 C1 1_555 1_555
N1 C3 1_555 1_555
C1 C2 1_555 1_555
C2 C3 1_555 1_555
C6 N1 1_555 1_555
H3 C6 1_555 1_555
C7 C2 1_555 1_555
H4 C7 1_555 1_555
Zn7 O1 1_555 1_555
N3 C10 1_555 1_555
N4 C10 1_555 1_555
H1 C4 1_555 1_555
C10 H5 1_555 1_555
C11 N4 1_555 1_555
H6 C11 1_555 1_555
C12 N3 1_555 1_555
H7 C12 1_555 1_555
C13 N4 1_555 1_555
O7 C22 1_555 1_555
O8 C22 1_555 1_555
C22 C23 1_555 1_555
C28 C13 1_555 1_555
H16 C28 1_555 1_555
Zn4 N3 1_555 1_555
Zn7 O7 1_555 1_555
C11 C12 1_555 1_555
C23 C28 1_555 1_555
Zn4 O3 1_555 1_555
O3 C8 1_555 1_555
O4 C8 1_555 1_555
N2 Zn4 1_555 1_555
C8 C9 1_555 1_555
C14 C9 1_555 1_555
H8 C14 1_555 1_555
N7 C24 1_555 1_555
N8 C24 1_555 1_555
C24 H13 1_555 1_555
C25 N8 1_555 1_555
H14 C25 1_555 1_555
C26 N7 1_555 1_555
H15 C26 1_555 1_555
C27 C14 1_555 1_555
Zn7 N7 1_555 1_555
N8 C27 1_555 1_555
C25 C26 1_555 1_555
H10 C19 1_555 1_555
H2 C5 1_555 1_555

#END
