
###############################################################################
#
# This file contains modified crystal structure data generated from the
# MOF subset of the Cambridge Structural Database (CSD) v543 
# hosted by the Cambridge Crystallographic Data Centre (CCDC).
#
# This work is licensed under the Creative Commons
# Attribution-NonCommercial-ShareAlike 4.0 International License.
# To view a copy of this license, visit
# http://creativecommons.org/licenses/by-nc-sa/4.0/
# or send a letter to
# Creative Commons, PO Box 1866, Mountain View, CA 94042, USA.
#
# CIF created using the CSD Python API on 29 September 2022
# The structure has been converted into the P1 space group
# The structure has a 3D framework
# The original CSD entry FISNUT is in the triclinic crystal system
# The framework has been calculated to contain at least 10.0% void space
# The void calculation uses a probe of radius 1.32A, grid spacing 0.4
#
###############################################################################

data_FISNUT
_chemical_formula_moiety         '(C40 H28 N8 O16 Zn4)n'
_symmetry_cell_setting           triclinic
_symmetry_space_group_name_H-M   'P 1'
_symmetry_Int_Tables_number      1
_space_group_name_Hall           'P 1'
loop_
_symmetry_equiv_pos_site_id
_symmetry_equiv_pos_as_xyz
1 x,y,z
_cell_length_a                   8.8970(6)
_cell_length_b                   10.3830(7)
_cell_length_c                   16.7072(11)
_cell_angle_alpha                74.133(3)
_cell_angle_beta                 76.938(4)
_cell_angle_gamma                68.347(3)
_cell_volume                     1366.23
loop_
_atom_site_label
_atom_site_type_symbol
_atom_site_fract_x
_atom_site_fract_y
_atom_site_fract_z
_atom_site_U_iso_or_equiv
_atom_site_thermal_displace_type
H7 H 0.0222 0.5052 0.1143 0.0610 Uiso
N5 N 0.0645(12) 0.4412(9) 0.9884(6) 0.0679 Uani
N6 N 0.3914(7) 0.0795(6) 0.8147(4) 0.0261 Uani
C23 C 0.4072(13) 0.0990(11) 0.8866(7) 0.0593 Uani
H16 H 0.4917 0.0327 0.9150 0.0710 Uiso
C24 C 0.3061(14) 0.2117(11) 0.9221(7) 0.0588 Uani
H17 H 0.3232 0.2216 0.9727 0.0710 Uiso
C25 C 0.1791(12) 0.3095(9) 0.8814(5) 0.0409 Uani
C26 C 0.1700(16) 0.2923(12) 0.8050(7) 0.0817 Uani
H18 H 0.0900 0.3586 0.7736 0.0980 Uiso
C27 C 0.2787(15) 0.1772(11) 0.7739(6) 0.0678 Uani
H19 H 0.2709 0.1691 0.7210 0.0810 Uiso
C28 C 0.0586(12) 0.4286(10) 0.9167(6) 0.0507 Uani
Zn1 Zn 0.30073(9) 0.38304(8) 0.27249(5) 0.0180 Uani
Zn2 Zn 0.48030(9) 0.10753(8) 0.22306(5) 0.0180 Uani
O1 O 0.3118(8) 0.2454(6) 0.3871(4) 0.0427 Uani
O2 O 0.4688(8) 0.0408(6) 0.3490(3) 0.0441 Uani
O3 O 0.2447(7) 0.1193(6) 0.2307(4) 0.0357 Uani
O4 O 0.1081(7) 0.3397(6) 0.2571(4) 0.0342 Uani
O7 O 0.4615(8) 0.2389(6) 0.1073(4) 0.0419 Uani
O8 O 0.3514(8) 0.4478(6) 0.1458(3) 0.0419 Uani
N2 N 0.0054(15) 0.9396(10) 0.4869(6) 0.0731 Uani
N4 N 0.2019(8) 0.5703(6) 0.3125(4) 0.0278 Uani
C1 C 0.4018(10) 0.1188(8) 0.4019(5) 0.0314 Uani
C2 C 0.1160(9) 0.2235(8) 0.2430(5) 0.0290 Uani
C12 C 0.4288(9) 0.3704(8) 0.0939(4) 0.0289 Uani
C13 C 0.4903(10) 0.4380(9) 0.0085(5) 0.0338 Uani
C14 C 0.4388(11) 0.0568(9) 0.4900(5) 0.0362 Uani
H9 H 0.3710 0.1017 0.5325 0.0430 Uiso
C15 C 0.2659(16) 0.6716(11) 0.2768(7) 0.0655 Uani
H10 H 0.3384 0.6632 0.2273 0.0780 Uiso
C16 C 0.2305(19) 0.7888(13) 0.3093(8) 0.0852 Uani
H11 H 0.2781 0.8581 0.2816 0.1010 Uiso
C17 C 0.1266(12) 0.8039(9) 0.3815(6) 0.0428 Uani
C18 C 0.0500(14) 0.7045(11) 0.4163(6) 0.0561 Uani
C19 C 0.0937(12) 0.5889(10) 0.3789(6) 0.0512 Uani
H13 H 0.0424 0.5211 0.4027 0.0610 Uiso
C20 C 0.0962(15) 0.9263(10) 0.4197(6) 0.0587 Uani
H14 H 0.1463 0.9941 0.3925 0.0710 Uiso
H21 H 0.4838 0.6101 0.0348 0.0410 Uiso
O19 O 0.6713(8) 0.1689(8) 0.2267(5) 0.0562 Uani
O21 O 0.5367(7) 0.3661(7) 0.2747(4) 0.0483 Uani
C3 C 0.9617(10) 0.2026(9) 0.2398(6) 0.0352 Uani
H1 H 0.9675 0.1191 0.2268 0.0420 Uiso
C4 C 0.8182(10) 0.2955(10) 0.2543(6) 0.0374 Uani
H2 H 0.8125 0.3793 0.2667 0.0450 Uiso
C5 C 0.6634(9) 0.2740(10) 0.2518(5) 0.0361 Uani
H12 H 0.9712 0.7140 0.4635 0.0680 Uiso
Zn13 Zn 0.51970(9) 0.89247(8) 0.77694(5) 0.0180 Uani
H24 H 0.0288 0.2860 0.5365 0.0680 Uiso
O15 O 0.3287(8) 0.8311(8) 0.7733(5) 0.0562 Uani
O16 O 0.4633(7) 0.6339(7) 0.7253(4) 0.0483 Uani
C38 C 0.0383(10) 0.7974(9) 0.7602(6) 0.0352 Uani
H27 H 0.0325 0.8809 0.7732 0.0420 Uiso
C39 C 0.1818(10) 0.7045(10) 0.7457(6) 0.0374 Uani
H28 H 0.1875 0.6207 0.7333 0.0450 Uiso
C40 C 0.3366(9) 0.7260(10) 0.7482(5) 0.0361 Uani
Zn8 Zn 0.69927(9) 0.61696(8) 0.72751(5) 0.0180 Uani
H8 H 0.5162 0.3899 0.9652 0.0410 Uiso
O11 O 0.5385(8) 0.7611(6) 0.8927(4) 0.0419 Uani
O12 O 0.6486(8) 0.5522(6) 0.8542(3) 0.0419 Uani
C29 C 0.5712(9) 0.6296(8) 0.9061(4) 0.0289 Uani
C30 C 0.5097(10) 0.5620(9) 0.9915(5) 0.0338 Uani
N1 N 0.9355(12) 0.5588(9) 0.0116(6) 0.0679 Uani
N3 N 0.6086(7) 0.9205(6) 0.1853(4) 0.0261 Uani
C6 C 0.5928(13) 0.9010(11) 0.1134(7) 0.0593 Uani
H3 H 0.5083 0.9673 0.0850 0.0710 Uiso
C7 C 0.6939(14) 0.7883(11) 0.0779(7) 0.0588 Uani
H4 H 0.6768 0.7784 0.0273 0.0710 Uiso
C8 C 0.8209(12) 0.6905(9) 0.1186(5) 0.0409 Uani
C9 C 0.8300(16) 0.7077(12) 0.1950(7) 0.0817 Uani
H5 H 0.9100 0.6414 0.2264 0.0980 Uiso
C10 C 0.7213(15) 0.8228(11) 0.2261(6) 0.0678 Uani
H6 H 0.7291 0.8309 0.2790 0.0810 Uiso
C11 C 0.9414(12) 0.5714(10) 0.0833(6) 0.0507 Uani
O9 O 0.6882(8) 0.7546(6) 0.6129(4) 0.0427 Uani
O10 O 0.5312(8) 0.9592(6) 0.6510(3) 0.0441 Uani
C21 C 0.5982(10) 0.8812(8) 0.5981(5) 0.0314 Uani
C22 C 0.5612(11) 0.9432(9) 0.5100(5) 0.0362 Uani
H15 H 0.6290 0.8983 0.4675 0.0430 Uiso
N7 N 0.9946(15) 0.0604(10) 0.5131(6) 0.0731 Uani
N8 N 0.7981(8) 0.4297(6) 0.6875(4) 0.0278 Uani
C31 C 0.7341(16) 0.3284(11) 0.7232(7) 0.0655 Uani
H22 H 0.6616 0.3368 0.7727 0.0780 Uiso
C32 C 0.7695(19) 0.2112(13) 0.6907(8) 0.0852 Uani
H23 H 0.7219 0.1419 0.7184 0.1010 Uiso
C33 C 0.8734(12) 0.1961(9) 0.6185(6) 0.0428 Uani
C34 C 0.9500(14) 0.2955(11) 0.5837(6) 0.0561 Uani
C35 C 0.9063(12) 0.4111(10) 0.6211(6) 0.0512 Uani
H25 H 0.9576 0.4789 0.5973 0.0610 Uiso
C36 C 0.9038(15) 0.0737(10) 0.5803(6) 0.0587 Uani
H26 H 0.8537 0.0059 0.6075 0.0710 Uiso
O13 O 0.7553(7) 0.8807(6) 0.7693(4) 0.0357 Uani
O14 O 0.8919(7) 0.6603(6) 0.7429(4) 0.0342 Uani
C37 C 0.8840(9) 0.7765(8) 0.7570(5) 0.0290 Uani
H20 H 0.9778 0.4948 0.8857 0.0610 Uiso
loop_
_atom_site_aniso_label
_atom_site_aniso_U_11
_atom_site_aniso_U_22
_atom_site_aniso_U_33
_atom_site_aniso_U_23
_atom_site_aniso_U_13
_atom_site_aniso_U_12
N5 0.076 0.049 0.056 -0.038 -0.02 0.031
N6 0.024 0.021 0.033 -0.014 -0.004 -0.001
C23 0.052 0.05 0.067 -0.042 -0.033 0.029
C24 0.065 0.053 0.056 -0.039 -0.032 0.017
C25 0.052 0.028 0.037 -0.019 -0.008 0.003
C26 0.092 0.062 0.061 -0.042 -0.049 0.052
C27 0.091 0.047 0.042 -0.03 -0.027 0.029
C28 0.053 0.039 0.044 -0.024 -0.012 0.017
Zn1 0.0168 0.0162 0.0223 -0.0085 -0.0015 -0.0044
Zn2 0.0159 0.017 0.0218 -0.0084 -0.0009 -0.0041
O1 0.058 0.031 0.033 0.003 -0.021 -0.006
O2 0.063 0.04 0.024 -0.005 -0.015 -0.007
O3 0.03 0.028 0.043 -0.004 -0.002 -0.007
O4 0.028 0.037 0.043 -0.003 -0.011 -0.017
O7 0.057 0.031 0.031 0.002 0.004 -0.019
O8 0.052 0.039 0.026 -0.004 0.01 -0.016
N2 0.122 0.049 0.061 -0.04 0.028 -0.046
N4 0.038 0.02 0.028 -0.012 0 -0.01
C1 0.039 0.034 0.022 -0.002 -0.007 -0.014
C2 0.02 0.034 0.033 -0.002 -0.008 -0.01
C12 0.031 0.031 0.023 0.002 0 -0.016
C13 0.045 0.033 0.021 -0.005 0.005 -0.016
C14 0.053 0.03 0.021 -0.002 -0.01 -0.008
C15 0.102 0.048 0.054 -0.029 0.039 -0.049
C16 0.136 0.058 0.075 -0.041 0.056 -0.069
C17 0.06 0.027 0.043 -0.014 0.001 -0.016
C18 0.071 0.048 0.05 -0.031 0.03 -0.028
C19 0.055 0.042 0.06 -0.03 0.023 -0.024
C20 0.093 0.037 0.051 -0.024 0.015 -0.031
O19 0.035 0.075 0.078 -0.035 0 -0.031
O21 0.025 0.058 0.067 -0.035 -0.001 -0.007
C3 0.024 0.033 0.055 -0.016 -0.007 -0.011
C4 0.023 0.047 0.053 -0.02 -0.005 -0.017
C5 0.02 0.051 0.045 -0.021 -0.004 -0.013
Zn13 0.0159 0.017 0.0218 -0.0084 -0.0009 -0.0041
O15 0.035 0.075 0.078 -0.035 0 -0.031
O16 0.025 0.058 0.067 -0.035 -0.001 -0.007
C38 0.024 0.033 0.055 -0.016 -0.007 -0.011
C39 0.023 0.047 0.053 -0.02 -0.005 -0.017
C40 0.02 0.051 0.045 -0.021 -0.004 -0.013
Zn8 0.0168 0.0162 0.0223 -0.0085 -0.0015 -0.0044
O11 0.057 0.031 0.031 0.002 0.004 -0.019
O12 0.052 0.039 0.026 -0.004 0.01 -0.016
C29 0.031 0.031 0.023 0.002 0 -0.016
C30 0.045 0.033 0.021 -0.005 0.005 -0.016
N1 0.076 0.049 0.056 -0.038 -0.02 0.031
N3 0.024 0.021 0.033 -0.014 -0.004 -0.001
C6 0.052 0.05 0.067 -0.042 -0.033 0.029
C7 0.065 0.053 0.056 -0.039 -0.032 0.017
C8 0.052 0.028 0.037 -0.019 -0.008 0.003
C9 0.092 0.062 0.061 -0.042 -0.049 0.052
C10 0.091 0.047 0.042 -0.03 -0.027 0.029
C11 0.053 0.039 0.044 -0.024 -0.012 0.017
O9 0.058 0.031 0.033 0.003 -0.021 -0.006
O10 0.063 0.04 0.024 -0.005 -0.015 -0.007
C21 0.039 0.034 0.022 -0.002 -0.007 -0.014
C22 0.053 0.03 0.021 -0.002 -0.01 -0.008
N7 0.122 0.049 0.061 -0.04 0.028 -0.046
N8 0.038 0.02 0.028 -0.012 0 -0.01
C31 0.102 0.048 0.054 -0.029 0.039 -0.049
C32 0.136 0.058 0.075 -0.041 0.056 -0.069
C33 0.06 0.027 0.043 -0.014 0.001 -0.016
C34 0.071 0.048 0.05 -0.031 0.03 -0.028
C35 0.055 0.042 0.06 -0.03 0.023 -0.024
C36 0.093 0.037 0.051 -0.024 0.015 -0.031
O13 0.03 0.028 0.043 -0.004 -0.002 -0.007
O14 0.028 0.037 0.043 -0.003 -0.011 -0.017
C37 0.02 0.034 0.033 -0.002 -0.008 -0.01
loop_
_geom_bond_atom_site_label_1
_geom_bond_atom_site_label_2
_geom_bond_site_symmetry_1
_geom_bond_site_symmetry_2
N6 C23 1_555 1_555
C23 H16 1_555 1_555
C24 C23 1_555 1_555
H17 C24 1_555 1_555
C25 C24 1_555 1_555
C26 C25 1_555 1_555
H18 C26 1_555 1_555
C27 N6 1_555 1_555
H19 C27 1_555 1_555
C28 N5 1_555 1_555
C25 C28 1_555 1_555
C26 C27 1_555 1_555
Zn1 O1 1_555 1_555
Zn2 O2 1_555 1_555
O1 C1 1_555 1_555
O2 C1 1_555 1_555
O3 Zn2 1_555 1_555
O4 Zn1 1_555 1_555
O7 Zn2 1_555 1_555
O8 Zn1 1_555 1_555
N2 C20 1_555 1_555
N4 Zn1 1_555 1_555
C1 C14 1_555 1_555
C2 O3 1_555 1_555
C12 O7 1_555 1_555
C13 C12 1_555 1_555
C14 H9 1_555 1_555
C15 N4 1_555 1_555
H10 C15 1_555 1_555
C16 C15 1_555 1_555
H11 C16 1_555 1_555
C17 C16 1_555 1_555
C18 C17 1_555 1_555
C19 N4 1_555 1_555
H13 C19 1_555 1_555
C20 C17 1_555 1_555
H14 C20 1_555 1_555
O19 Zn2 1_555 1_555
O21 Zn1 1_555 1_555
O4 C2 1_555 1_555
O8 C12 1_555 1_555
C18 C19 1_555 1_555
O19 C5 1_555 1_555
O21 C5 1_555 1_555
H1 C3 1_555 1_555
C4 C3 1_555 1_555
H2 C4 1_555 1_555
C5 C4 1_555 1_555
O15 C40 1_555 1_555
O16 C40 1_555 1_555
H27 C38 1_555 1_555
C39 C38 1_555 1_555
H28 C39 1_555 1_555
C40 C39 1_555 1_555
Zn8 O16 1_555 1_555
Zn13 O15 1_555 1_555
O11 C29 1_555 1_555
O12 C29 1_555 1_555
C29 C30 1_555 1_555
Zn8 O12 1_555 1_555
Zn13 O11 1_555 1_555
N1 C11 1_555 1_555
C6 N3 1_555 1_555
H3 C6 1_555 1_555
C7 C6 1_555 1_555
H4 C7 1_555 1_555
C8 C7 1_555 1_555
C9 C8 1_555 1_555
H5 C9 1_555 1_555
C10 N3 1_555 1_555
H6 C10 1_555 1_555
C11 C8 1_555 1_555
O9 C21 1_555 1_555
O10 C21 1_555 1_555
C21 C22 1_555 1_555
H15 C22 1_555 1_555
Zn8 O9 1_555 1_555
Zn13 O10 1_555 1_555
C9 C10 1_555 1_555
N8 C31 1_555 1_555
C31 H22 1_555 1_555
C32 C31 1_555 1_555
H23 C32 1_555 1_555
C33 C32 1_555 1_555
C34 C33 1_555 1_555
C35 N8 1_555 1_555
H25 C35 1_555 1_555
C36 N7 1_555 1_555
H26 C36 1_555 1_555
Zn8 N8 1_555 1_555
Zn13 O13 1_555 1_555
O13 C37 1_555 1_555
O14 Zn8 1_555 1_555
C37 O14 1_555 1_555
C33 C36 1_555 1_555
C34 C35 1_555 1_555

#END
