
###############################################################################
#
# This file contains modified crystal structure data generated from the
# MOF subset of the Cambridge Structural Database (CSD) v543 
# hosted by the Cambridge Crystallographic Data Centre (CCDC).
#
# This work is licensed under the Creative Commons
# Attribution-NonCommercial-ShareAlike 4.0 International License.
# To view a copy of this license, visit
# http://creativecommons.org/licenses/by-nc-sa/4.0/
# or send a letter to
# Creative Commons, PO Box 1866, Mountain View, CA 94042, USA.
#
# CIF created using the CSD Python API on 29 September 2022
# The structure has been converted into the P1 space group
# The structure has a 3D framework
# The original CSD entry FISQUW is in the hexagonal crystal system
# The framework has been calculated to contain at least 10.0% void space
# The void calculation uses a probe of radius 1.32A, grid spacing 0.4
#
###############################################################################

data_FISQUW
_chemical_formula_moiety         '(C18 H18 Cd14 N72 O6 1-)n'
_symmetry_cell_setting           triclinic
_symmetry_space_group_name_H-M   'P 1'
_symmetry_Int_Tables_number      1
_space_group_name_Hall           'P 1'
loop_
_symmetry_equiv_pos_site_id
_symmetry_equiv_pos_as_xyz
1 x,y,z
_cell_length_a                   13.1409(17)
_cell_length_b                   13.1409(17)
_cell_length_c                   13.4059(17)
_cell_angle_alpha                90
_cell_angle_beta                 90
_cell_angle_gamma                120
_cell_volume                     2004.83
loop_
_atom_site_label
_atom_site_type_symbol
_atom_site_fract_x
_atom_site_fract_y
_atom_site_fract_z
N1 N 0.333333 0.666667 0.750000
O1 O 0.282(3) 0.720(3) 0.750000
O2 O 0.280(3) 0.562(4) 0.750000
O3 O 0.438(4) 0.718(3) 0.750000
N1_2 N 0.666667 0.333333 0.250000
O1_2 O 0.718(3) 0.280(3) 0.250000
O2_2 O 0.720(3) 0.438(4) 0.250000
O3_2 O 0.562(4) 0.282(3) 0.250000
Cd9 Cd -0.000000 0.500000 0.000000
Cd3 Cd -0.000000 0.500000 0.500000
C4 C 0.0117(10) 0.5058(16) 0.750000
H4 H 0.093414 0.546276 0.749999
Cd9_2 Cd -0.000000 0.500000 1.000000
N42 N 0.1388(8) 0.4418(6) 0.5348(6)
N44 N 0.0546(6) 0.5270(8) 0.3316(5)
N46 N 0.1387(6) 0.6968(8) 0.5346(6)
Cd8 Cd 0.500000 -0.000000 0.000000
Cd9_3 Cd 1.000000 0.500000 0.000000
Cd10 Cd 0.500000 0.500000 0.000000
Cd1 Cd 0.500000 -0.000000 0.500000
Cd2 Cd 0.666667 0.333333 0.59772(8)
N2 N 0.5838(6) 0.1668(5) 0.7023(5)
N3 N 0.4418(6) 0.3030(6) 0.4652(6)
N4 N 0.4973(6) 0.2486(5) 0.4984(5)
N5 N 0.5276(6) 0.0546(6) 0.6684(5)
N6 N 0.4419(6) 0.1387(6) 0.4654(6)
C1 C 0.3541(9) 0.1269(8) 0.4130(9)
H1 H 0.300313 0.058482 0.380340
N7 N 0.3517(8) 0.2274(8) 0.4128(8)
N8 N 0.5838(6) 0.1668(5) 0.7977(5)
N9 N 0.5276(6) 0.0546(6) 0.8316(5)
Cd3_2 Cd 1.000000 0.500000 0.500000
N10 N 0.8332(5) 0.4170(8) 0.7023(5)
N11 N 0.6970(6) 0.1388(8) 0.4652(6)
N12 N 0.7514(5) 0.2487(8) 0.4984(5)
N13 N 0.9454(6) 0.4730(8) 0.6684(5)
N14 N 0.8613(6) 0.3032(8) 0.4654(6)
C3 C 0.8731(8) 0.2272(12) 0.4130(9)
H3 H 0.941518 0.241831 0.380340
N15 N 0.7726(8) 0.1243(11) 0.4128(8)
N16 N 0.8332(5) 0.4170(8) 0.7977(5)
N17 N 0.9454(6) 0.4730(8) 0.8316(5)
Cd4 Cd 0.500000 0.500000 0.500000
N18 N 0.5830(8) 0.4162(6) 0.7023(5)
N19 N 0.8612(8) 0.5582(6) 0.4652(6)
N20 N 0.7513(8) 0.5027(6) 0.4984(5)
N21 N 0.5270(8) 0.4724(6) 0.6684(5)
N22 N 0.6968(8) 0.5581(6) 0.4654(6)
C5 C 0.7728(12) 0.6459(9) 0.4130(9)
H5 H 0.758169 0.699687 0.380340
C6 C 0.4942(16) 0.5059(12) 0.750000
H6 H 0.453724 0.547138 0.749999
N23 N 0.8757(11) 0.6483(8) 0.4128(8)
N24 N 0.5830(8) 0.4162(6) 0.7977(5)
N25 N 0.5270(8) 0.4724(6) 0.8316(5)
Cd8_2 Cd 0.500000 -0.000000 1.000000
Cd9_4 Cd 1.000000 0.500000 1.000000
Cd10_2 Cd 0.500000 0.500000 1.000000
Cd11 Cd 0.666667 0.333333 0.90228(8)
N41 N 0.5582(6) 0.6970(6) 0.5348(6)
N45 N 0.4730(8) 0.5276(6) 0.3316(5)
N47 N 0.3032(8) 0.4419(6) 0.5346(6)
Cd8_3 Cd 0.500000 1.000000 0.000000
Cd1_2 Cd 0.500000 1.000000 0.500000
C2 C 0.4941(12) 0.9883(10) 0.750000
H2 H 0.452862 0.906586 0.749999
Cd5 Cd 0.333333 0.666667 0.40228(8)
N27 N 0.5027(6) 0.7514(5) 0.5016(5)
N28 N 0.5581(6) 0.8613(6) 0.5346(6)
C7 C 0.6459(9) 0.8731(8) 0.5870(9)
H7 H 0.699687 0.941518 0.619660
N29 N 0.6483(8) 0.7726(8) 0.5872(8)
N30 N 0.3030(6) 0.8612(8) 0.5348(6)
N31 N 0.2486(5) 0.7513(8) 0.5016(5)
C8 C 0.1269(8) 0.7728(12) 0.5870(9)
H8 H 0.058482 0.758169 0.619660
N33 N 0.2274(8) 0.8757(11) 0.5872(8)
N35 N 0.2487(8) 0.4973(6) 0.5016(5)
C9 C 0.2272(12) 0.3541(9) 0.5870(9)
H9 H 0.241831 0.300313 0.619660
N37 N 0.1243(11) 0.3517(8) 0.5872(8)
Cd8_4 Cd 0.500000 1.000000 1.000000
N38 N 0.4162(6) 0.8332(5) 0.2977(5)
N39 N 0.1668(5) 0.5830(8) 0.2977(5)
N40 N 0.4170(8) 0.5838(6) 0.2977(5)
N43 N 0.4724(6) 0.9454(6) 0.3316(5)
C2_2 C 0.5059(12) 0.0117(10) 0.250000
H2_2 H 0.547138 0.093414 0.249999
N26 N 0.4418(6) 0.3030(6) 0.0348(6)
N27_2 N 0.4973(6) 0.2486(5) 0.0016(5)
N28_2 N 0.4419(6) 0.1387(6) 0.0346(6)
C7_2 C 0.3541(9) 0.1269(8) 0.0870(9)
H7_2 H 0.300313 0.058482 0.119660
N29_2 N 0.3517(8) 0.2274(8) 0.0872(8)
N30_2 N 0.6970(6) 0.1388(8) 0.0348(6)
N31_2 N 0.7514(5) 0.2487(8) 0.0016(5)
N32 N 0.8613(6) 0.3032(8) 0.0346(6)
C8_2 C 0.8731(8) 0.2272(12) 0.0870(9)
H8_2 H 0.941518 0.241831 0.119660
N33_2 N 0.7726(8) 0.1243(11) 0.0872(8)
N34 N 0.8612(8) 0.5582(6) 0.0348(6)
N35_2 N 0.7513(8) 0.5027(6) 0.0016(5)
N36 N 0.6968(8) 0.5581(6) 0.0346(6)
C9_2 C 0.7728(12) 0.6459(9) 0.0870(9)
H9_2 H 0.758169 0.699687 0.119660
N37_2 N 0.8757(11) 0.6483(8) 0.0872(8)
Cd2_2 Cd 0.333333 0.666667 0.09772(8)
N2_2 N 0.4162(6) 0.8332(5) 0.2023(5)
N5_2 N 0.4724(6) 0.9454(6) 0.1684(5)
N10_2 N 0.1668(5) 0.5830(8) 0.2023(5)
N13_2 N 0.0546(6) 0.5270(8) 0.1684(5)
N18_2 N 0.4170(8) 0.5838(6) 0.2023(5)
N21_2 N 0.4730(8) 0.5276(6) 0.1684(5)
C6_2 C 0.5058(16) 0.4941(12) 0.250000
H6_2 H 0.546276 0.452862 0.249999
N3_2 N 0.5582(6) 0.6970(6) 0.9652(6)
N4_2 N 0.5027(6) 0.7514(5) 0.9984(5)
N6_2 N 0.5581(6) 0.8613(6) 0.9654(6)
C1_2 C 0.6459(9) 0.8731(8) 0.9130(9)
H1_2 H 0.699687 0.941518 0.880340
N7_2 N 0.6483(8) 0.7726(8) 0.9128(8)
N11_2 N 0.3030(6) 0.8612(8) 0.9652(6)
N12_2 N 0.2486(5) 0.7513(8) 0.9984(5)
N14_2 N 0.1387(6) 0.6968(8) 0.9654(6)
C3_2 C 0.1269(8) 0.7728(12) 0.9130(9)
H3_2 H 0.058482 0.758169 0.880340
N15_2 N 0.2274(8) 0.8757(11) 0.9128(8)
N19_2 N 0.1388(8) 0.4418(6) 0.9652(6)
N20_2 N 0.2487(8) 0.4973(6) 0.9984(5)
N22_2 N 0.3032(8) 0.4419(6) 0.9654(6)
C5_2 C 0.2272(12) 0.3541(9) 0.9130(9)
H5_2 H 0.241831 0.300313 0.880340
N23_2 N 0.1243(11) 0.3517(8) 0.9128(8)
C4_2 C 0.9883(10) 0.4942(16) 0.250000
H4_2 H 0.906586 0.453724 0.249999
loop_
_geom_bond_atom_site_label_1
_geom_bond_atom_site_label_2
_geom_bond_site_symmetry_1
_geom_bond_site_symmetry_2
N1 O1 1_555 1_555
O2 N1 1_555 1_555
O3 N1 1_555 1_555
N1_2 O1_2 1_555 1_555
O2_2 N1_2 1_555 1_555
O3_2 N1_2 1_555 1_555
H4 C4 1_555 1_555
N42 Cd3 1_555 1_555
N44 Cd3 1_555 1_555
N46 Cd3 1_555 1_555
Cd1 N5 1_555 1_555
Cd2 N2 1_555 1_555
N2 N5 1_555 1_555
N3 N4 1_555 1_555
N4 Cd2 1_555 1_555
N6 Cd1 1_555 1_555
C1 N6 1_555 1_555
H1 C1 1_555 1_555
N7 N3 1_555 1_555
N8 N2 1_555 1_555
Cd3_2 N13 1_555 1_555
N10 Cd2 1_555 1_555
N11 Cd1 1_555 1_555
N12 Cd2 1_555 1_555
N13 N10 1_555 1_555
N14 Cd3_2 1_555 1_555
C3 N14 1_555 1_555
H3 C3 1_555 1_555
N15 N11 1_555 1_555
N16 N10 1_555 1_555
Cd4 N3 1_555 1_555
N18 Cd2 1_555 1_555
N19 Cd3_2 1_555 1_555
N20 Cd2 1_555 1_555
N21 Cd4 1_555 1_555
N22 Cd4 1_555 1_555
C5 N22 1_555 1_555
H5 C5 1_555 1_555
C6 N21 1_555 1_555
H6 C6 1_555 1_555
N23 N19 1_555 1_555
N24 N18 1_555 1_555
N25 C6 1_555 1_555
Cd8_2 N9 1_555 1_555
Cd9_4 N17 1_555 1_555
Cd10_2 N25 1_555 1_555
Cd11 N8 1_555 1_555
N41 Cd4 1_555 1_555
N45 Cd4 1_555 1_555
N47 Cd4 1_555 1_555
N4 N6 1_555 1_555
C1 N7 1_555 1_555
N8 N9 1_555 1_555
N11 N12 1_555 1_555
N12 N14 1_555 1_555
C3 N15 1_555 1_555
N16 N17 1_555 1_555
N16 Cd11 1_555 1_555
N18 N21 1_555 1_555
N19 N20 1_555 1_555
N20 N22 1_555 1_555
C5 N23 1_555 1_555
N24 N25 1_555 1_555
N24 Cd11 1_555 1_555
C2 H2 1_555 1_555
Cd5 N27 1_555 1_555
N41 N27 1_555 1_555
N27 N28 1_555 1_555
N28 Cd1_2 1_555 1_555
C7 N28 1_555 1_555
H7 C7 1_555 1_555
N29 N41 1_555 1_555
N30 Cd1_2 1_555 1_555
N31 Cd5 1_555 1_555
N46 N31 1_555 1_555
C8 N46 1_555 1_555
H8 C8 1_555 1_555
N33 N30 1_555 1_555
N42 N35 1_555 1_555
N35 Cd5 1_555 1_555
N47 N35 1_555 1_555
C9 N47 1_555 1_555
H9 C9 1_555 1_555
N37 N42 1_555 1_555
N38 Cd5 1_555 1_555
N39 Cd5 1_555 1_555
N40 Cd5 1_555 1_555
N43 Cd1_2 1_555 1_555
C7 N29 1_555 1_555
N30 N31 1_555 1_555
C8 N33 1_555 1_555
C9 N37 1_555 1_555
N38 N43 1_555 1_555
N39 N44 1_555 1_555
N40 N45 1_555 1_555
C2_2 H2_2 1_555 1_555
N26 N27_2 1_555 1_555
N27_2 N28_2 1_555 1_555
N28_2 Cd8 1_555 1_555
C7_2 N28_2 1_555 1_555
H7_2 C7_2 1_555 1_555
N29_2 N26 1_555 1_555
N30_2 Cd8 1_555 1_555
N32 N31_2 1_555 1_555
C8_2 N32 1_555 1_555
H8_2 C8_2 1_555 1_555
N33_2 N30_2 1_555 1_555
N34 N35_2 1_555 1_555
N36 N35_2 1_555 1_555
C9_2 N36 1_555 1_555
H9_2 C9_2 1_555 1_555
N37_2 N34 1_555 1_555
Cd9_3 N32 1_555 1_555
Cd10 N26 1_555 1_555
C7_2 N29_2 1_555 1_555
N30_2 N31_2 1_555 1_555
C8_2 N33_2 1_555 1_555
N34 Cd9_3 1_555 1_555
N36 Cd10 1_555 1_555
C9_2 N37_2 1_555 1_555
Cd8_3 N5_2 1_555 1_555
Cd2_2 N2_2 1_555 1_555
N2_2 N5_2 1_555 1_555
N38 N2_2 1_555 1_555
Cd9 N13_2 1_555 1_555
N10_2 Cd2_2 1_555 1_555
N13_2 N10_2 1_555 1_555
N39 N10_2 1_555 1_555
N18_2 Cd2_2 1_555 1_555
N21_2 Cd10 1_555 1_555
C6_2 N21_2 1_555 1_555
H6_2 C6_2 1_555 1_555
N40 N18_2 1_555 1_555
N45 C6_2 1_555 1_555
N18_2 N21_2 1_555 1_555
N3_2 N4_2 1_555 1_555
N6_2 Cd8_4 1_555 1_555
C1_2 N6_2 1_555 1_555
H1_2 C1_2 1_555 1_555
N7_2 N3_2 1_555 1_555
N11_2 Cd8_4 1_555 1_555
N14_2 Cd9_2 1_555 1_555
C3_2 N14_2 1_555 1_555
H3_2 C3_2 1_555 1_555
N15_2 N11_2 1_555 1_555
Cd10_2 N3_2 1_555 1_555
N19_2 Cd9_2 1_555 1_555
N22_2 Cd10_2 1_555 1_555
C5_2 N22_2 1_555 1_555
H5_2 C5_2 1_555 1_555
N23_2 N19_2 1_555 1_555
N4_2 N6_2 1_555 1_555
C1_2 N7_2 1_555 1_555
N11_2 N12_2 1_555 1_555
N12_2 N14_2 1_555 1_555
C3_2 N15_2 1_555 1_555
N19_2 N20_2 1_555 1_555
N20_2 N22_2 1_555 1_555
C5_2 N23_2 1_555 1_555
H4_2 C4_2 1_555 1_555

#END
