
###############################################################################
#
# This file contains modified crystal structure data generated from the
# MOF subset of the Cambridge Structural Database (CSD) v543 
# hosted by the Cambridge Crystallographic Data Centre (CCDC).
#
# This work is licensed under the Creative Commons
# Attribution-NonCommercial-ShareAlike 4.0 International License.
# To view a copy of this license, visit
# http://creativecommons.org/licenses/by-nc-sa/4.0/
# or send a letter to
# Creative Commons, PO Box 1866, Mountain View, CA 94042, USA.
#
# CIF created using the CSD Python API on 29 September 2022
# The structure has been converted into the P1 space group
# The structure has a 3D framework
# The original CSD entry FISQOQ is in the hexagonal crystal system
# The framework has been calculated to contain at least 10.0% void space
# The void calculation uses a probe of radius 1.32A, grid spacing 0.4
# The framework is charged, counterions have been retained in the structure
#
###############################################################################

data_FISQOQ
_chemical_formula_moiety         '(C18 H18 N68 Zn17 12+)n'
_symmetry_cell_setting           triclinic
_symmetry_space_group_name_H-M   'P 1'
_symmetry_Int_Tables_number      1
_space_group_name_Hall           'P 1'
loop_
_symmetry_equiv_pos_site_id
_symmetry_equiv_pos_as_xyz
1 x,y,z
_cell_length_a                   12.507(4)
_cell_length_b                   12.507(4)
_cell_length_c                   12.711(4)
_cell_angle_alpha                90
_cell_angle_beta                 90
_cell_angle_gamma                120
_cell_volume                     1721.93
loop_
_atom_site_label
_atom_site_type_symbol
_atom_site_fract_x
_atom_site_fract_y
_atom_site_fract_z
Zn7 Zn -0.000000 0.500000 0.500000
Zn9 Zn 0.500000 0.000000 -0.000000
Zn1 Zn 0.500000 -0.000000 0.500000
Zn2 Zn 0.666667 0.333333 0.59991(17)
N2 N 0.5262(6) 0.0522(6) 0.6627(5)
N3 N 0.5852(6) 0.1693(6) 0.6985(5)
N7 N 0.5262(6) 0.0522(6) 0.8373(5)
N8 N 0.5852(6) 0.1693(6) 0.8015(5)
N25 N 0.6904(7) 0.1362(6) 0.4665(6)
N26 N 0.7467(6) 0.2508(6) 0.5020(5)
N27 N 0.8634(6) 0.3088(6) 0.4677(5)
N28 N 0.8776(8) 0.2274(8) 0.4061(7)
C7 C 0.7715(8) 0.1239(8) 0.4085(8)
H7 H 0.755443 0.051742 0.374139
Zn7_2 Zn 1.000000 0.500000 0.500000
Zn9_2 Zn 0.500000 0.000000 1.000000
Zn16 Zn 0.666667 0.333333 0.90009(17)
N40 N 0.8307(6) 0.4159(8) 0.6985(5)
N41 N 0.5841(8) 0.4148(6) 0.6985(5)
N45 N 0.7492(6) 0.4959(8) 0.5020(5)
N46 N 0.5041(8) 0.2533(6) 0.5020(5)
N49 N 0.4454(8) 0.1366(6) 0.4677(5)
Zn9_3 Zn 0.500000 1.000000 -0.000000
Zn10 Zn 0.000000 0.500000 -0.000000
Zn11 Zn 0.500000 0.500000 -0.000000
Zn1_2 Zn 0.500000 1.000000 0.500000
N1 N 0.3096(7) 0.8638(6) 0.5335(6)
N4 N 0.2533(6) 0.7492(6) 0.4980(5)
N5 N 0.1366(6) 0.6912(6) 0.5323(5)
N6 N 0.1224(8) 0.7726(8) 0.5939(7)
C1 C 0.4928(12) 0.9812(9) 0.750000
H1 H 0.452313 0.895432 0.750000
C2 C 0.2285(8) 0.8761(8) 0.5915(8)
H2 H 0.244557 0.948258 0.625861
N9 N 0.1362(6) 0.4458(9) 0.5335(6)
N12 N 0.2508(6) 0.5041(8) 0.4980(5)
N13 N 0.3088(6) 0.4454(8) 0.5323(5)
N14 N 0.2274(8) 0.3498(11) 0.5939(7)
C3 C 0.0188(9) 0.5116(15) 0.750000
H3 H 0.104568 0.556881 0.750000
C4 C 0.1239(8) 0.3524(11) 0.5915(8)
H4 H 0.051742 0.296299 0.625861
Zn4 Zn 0.500000 0.500000 0.500000
N17 N 0.5542(9) 0.6904(7) 0.5335(6)
N18 N 0.5260(8) 0.4738(6) 0.6627(5)
N20 N 0.4959(8) 0.7467(6) 0.4980(5)
N21 N 0.5546(8) 0.8634(6) 0.5323(5)
N22 N 0.6502(11) 0.8776(8) 0.5939(7)
C5 C 0.4884(15) 0.5072(12) 0.750000
H5 H 0.443119 0.547687 0.750000
C6 C 0.6476(11) 0.7715(8) 0.5915(8)
H6 H 0.703701 0.755443 0.625861
N23 N 0.5260(8) 0.4738(6) 0.8373(5)
N24 N 0.5841(8) 0.4148(6) 0.8015(5)
Zn5 Zn 0.333333 0.666667 0.40009(17)
N33 N 0.4458(9) 0.3096(7) 0.4665(6)
N36 N 0.3498(11) 0.1224(8) 0.4061(7)
C9 C 0.3524(11) 0.2285(8) 0.4085(8)
H9 H 0.296299 0.244557 0.374139
Zn9_4 Zn 0.500000 1.000000 1.000000
Zn10_2 Zn 0.000000 0.500000 1.000000
Zn11_2 Zn 0.500000 0.500000 1.000000
N37 N 0.4738(6) 0.9478(6) 0.3373(5)
N38 N 0.0522(6) 0.5260(8) 0.3373(5)
N39 N 0.4740(8) 0.5262(6) 0.3373(5)
N42 N 0.4148(6) 0.8307(6) 0.3015(5)
N43 N 0.1693(6) 0.5841(8) 0.3015(5)
N44 N 0.4159(8) 0.5852(6) 0.3015(5)
N48 N 0.6912(6) 0.5546(8) 0.4677(5)
Zn10_3 Zn 1.000000 0.500000 -0.000000
N10 N 0.9478(6) 0.4740(8) 0.6627(5)
N15 N 0.9478(6) 0.4740(8) 0.8373(5)
N16 N 0.8307(6) 0.4159(8) 0.8015(5)
N29 N 0.8638(6) 0.5542(9) 0.4665(6)
N32 N 0.7726(8) 0.6502(11) 0.4061(7)
C8 C 0.8761(8) 0.6476(11) 0.4085(8)
H8 H 0.948258 0.703701 0.374139
Zn10_4 Zn 1.000000 0.500000 1.000000
N10_2 N 0.0522(6) 0.5260(8) 0.1627(5)
N11 N 0.1693(6) 0.5841(8) 0.1985(5)
N30 N 0.2508(6) 0.5041(8) 0.0020(5)
Zn12 Zn 0.333333 0.666667 0.09991(17)
N29_2 N 0.1362(6) 0.4458(9) 0.9665(6)
N31 N 0.3088(6) 0.4454(8) 0.9677(5)
N32_2 N 0.2274(8) 0.3498(11) 0.9061(7)
C8_2 C 0.1239(8) 0.3524(11) 0.9085(8)
H8_2 H 0.051742 0.296299 0.874139
N47 N 0.1366(6) 0.6912(6) 0.9677(5)
N1_2 N 0.6904(7) 0.1362(6) 0.0335(6)
N5_2 N 0.8634(6) 0.3088(6) 0.0323(5)
N6_2 N 0.8776(8) 0.2274(8) 0.0939(7)
C1_2 C 0.5072(12) 0.0188(9) 0.250000
H1_2 H 0.547687 0.104568 0.250000
C2_2 C 0.7715(8) 0.1239(8) 0.0915(8)
H2_2 H 0.755443 0.051742 0.125861
N9_2 N 0.8638(6) 0.5542(9) 0.0335(6)
N13_2 N 0.6912(6) 0.5546(8) 0.0323(5)
N14_2 N 0.7726(8) 0.6502(11) 0.0939(7)
C3_2 C 0.9812(9) 0.4884(15) 0.250000
H3_2 H 0.895432 0.443119 0.250000
C4_2 C 0.8761(8) 0.6476(11) 0.0915(8)
H4_2 H 0.948258 0.703701 0.125861
N17_2 N 0.4458(9) 0.3096(7) 0.0335(6)
N18_2 N 0.4740(8) 0.5262(6) 0.1627(5)
N19 N 0.4159(8) 0.5852(6) 0.1985(5)
N21_2 N 0.4454(8) 0.1366(6) 0.0323(5)
N22_2 N 0.3498(11) 0.1224(8) 0.0939(7)
C5_2 C 0.5116(15) 0.4928(12) 0.250000
H5_2 H 0.556881 0.452313 0.250000
C6_2 C 0.3524(11) 0.2285(8) 0.0915(8)
H6_2 H 0.296299 0.244557 0.125861
N34 N 0.4959(8) 0.7467(6) 0.0020(5)
N4_2 N 0.7467(6) 0.2508(6) 0.9980(5)
N12_2 N 0.7492(6) 0.4959(8) 0.9980(5)
N20_2 N 0.5041(8) 0.2533(6) 0.9980(5)
N33_2 N 0.5542(9) 0.6904(7) 0.9665(6)
N35 N 0.5546(8) 0.8634(6) 0.9677(5)
N36_2 N 0.6502(11) 0.8776(8) 0.9061(7)
C9_2 C 0.6476(11) 0.7715(8) 0.9085(8)
H9_2 H 0.703701 0.755443 0.874139
N2_2 N 0.4738(6) 0.9478(6) 0.1627(5)
N3_2 N 0.4148(6) 0.8307(6) 0.1985(5)
N26_2 N 0.2533(6) 0.7492(6) 0.0020(5)
N25_2 N 0.3096(7) 0.8638(6) 0.9665(6)
N28_2 N 0.1224(8) 0.7726(8) 0.9061(7)
C7_2 C 0.2285(8) 0.8761(8) 0.9085(8)
H7_2 H 0.244557 0.948258 0.874139
loop_
_geom_bond_atom_site_label_1
_geom_bond_atom_site_label_2
_geom_bond_site_symmetry_1
_geom_bond_site_symmetry_2
Zn2 N3 1_555 1_555
N2 Zn1 1_555 1_555
N3 N2 1_555 1_555
N8 N3 1_555 1_555
N25 Zn1 1_555 1_555
N26 Zn2 1_555 1_555
N27 N26 1_555 1_555
N28 N27 1_555 1_555
C7 N25 1_555 1_555
H7 C7 1_555 1_555
Zn7_2 N27 1_555 1_555
Zn9_2 N7 1_555 1_555
Zn16 N8 1_555 1_555
N40 Zn2 1_555 1_555
N41 Zn2 1_555 1_555
N45 Zn2 1_555 1_555
N46 Zn2 1_555 1_555
N49 Zn1 1_555 1_555
N7 N8 1_555 1_555
N25 N26 1_555 1_555
N28 C7 1_555 1_555
N46 N49 1_555 1_555
Zn1_2 N1 1_555 1_555
N1 N4 1_555 1_555
N4 N5 1_555 1_555
N5 N6 1_555 1_555
N6 C2 1_555 1_555
H1 C1 1_555 1_555
C2 N1 1_555 1_555
H2 C2 1_555 1_555
Zn7 N5 1_555 1_555
N9 Zn7 1_555 1_555
N12 N9 1_555 1_555
N13 N12 1_555 1_555
N14 N13 1_555 1_555
H3 C3 1_555 1_555
C4 N9 1_555 1_555
H4 C4 1_555 1_555
Zn4 N13 1_555 1_555
N17 Zn4 1_555 1_555
N18 Zn4 1_555 1_555
N41 N18 1_555 1_555
N20 N17 1_555 1_555
N21 Zn1_2 1_555 1_555
N22 N21 1_555 1_555
C5 N18 1_555 1_555
H5 C5 1_555 1_555
C6 N17 1_555 1_555
H6 C6 1_555 1_555
N23 C5 1_555 1_555
N24 N41 1_555 1_555
Zn5 N4 1_555 1_555
N33 Zn4 1_555 1_555
N46 N33 1_555 1_555
N36 N49 1_555 1_555
C9 N33 1_555 1_555
H9 C9 1_555 1_555
Zn11_2 N23 1_555 1_555
Zn16 N24 1_555 1_555
N37 Zn1_2 1_555 1_555
N38 Zn7 1_555 1_555
N39 Zn4 1_555 1_555
N42 Zn5 1_555 1_555
N43 Zn5 1_555 1_555
N44 Zn5 1_555 1_555
N48 Zn4 1_555 1_555
N12 Zn5 1_555 1_555
N14 C4 1_555 1_555
N20 N21 1_555 1_555
N20 Zn5 1_555 1_555
N22 C6 1_555 1_555
N23 N24 1_555 1_555
N36 C9 1_555 1_555
N37 N42 1_555 1_555
N38 N43 1_555 1_555
N39 N44 1_555 1_555
N10 Zn7_2 1_555 1_555
N40 N10 1_555 1_555
N16 N40 1_555 1_555
N29 Zn7_2 1_555 1_555
N45 N29 1_555 1_555
N48 N45 1_555 1_555
N32 N48 1_555 1_555
C8 N29 1_555 1_555
H8 C8 1_555 1_555
Zn10_4 N15 1_555 1_555
Zn16 N16 1_555 1_555
N15 N16 1_555 1_555
N32 C8 1_555 1_555
N10_2 Zn10 1_555 1_555
N11 N10_2 1_555 1_555
N43 N11 1_555 1_555
Zn12 N11 1_555 1_555
N30 Zn12 1_555 1_555
N29_2 Zn10_2 1_555 1_555
N32_2 N31 1_555 1_555
C8_2 N29_2 1_555 1_555
H8_2 C8_2 1_555 1_555
Zn11_2 N31 1_555 1_555
N47 Zn10_2 1_555 1_555
N32_2 C8_2 1_555 1_555
Zn9 N1_2 1_555 1_555
N5_2 N6_2 1_555 1_555
N6_2 C2_2 1_555 1_555
H1_2 C1_2 1_555 1_555
C2_2 N1_2 1_555 1_555
H2_2 C2_2 1_555 1_555
Zn10_3 N5_2 1_555 1_555
N9_2 Zn10_3 1_555 1_555
N14_2 N13_2 1_555 1_555
H3_2 C3_2 1_555 1_555
C4_2 N9_2 1_555 1_555
H4_2 C4_2 1_555 1_555
Zn11 N13_2 1_555 1_555
N17_2 Zn11 1_555 1_555
N18_2 Zn11 1_555 1_555
N19 N18_2 1_555 1_555
N21_2 Zn9 1_555 1_555
N22_2 N21_2 1_555 1_555
C5_2 N18_2 1_555 1_555
H5_2 C5_2 1_555 1_555
C6_2 N17_2 1_555 1_555
H6_2 C6_2 1_555 1_555
N39 C5_2 1_555 1_555
N44 N19 1_555 1_555
Zn12 N19 1_555 1_555
N14_2 C4_2 1_555 1_555
N22_2 C6_2 1_555 1_555
N34 Zn12 1_555 1_555
Zn16 N4_2 1_555 1_555
N33_2 Zn11_2 1_555 1_555
N36_2 N35 1_555 1_555
C9_2 N33_2 1_555 1_555
H9_2 C9_2 1_555 1_555
Zn9_4 N35 1_555 1_555
N12_2 Zn16 1_555 1_555
N20_2 Zn16 1_555 1_555
N36_2 C9_2 1_555 1_555
Zn12 N3_2 1_555 1_555
N2_2 Zn9_3 1_555 1_555
N3_2 N2_2 1_555 1_555
N42 N3_2 1_555 1_555
N26_2 Zn12 1_555 1_555
N25_2 Zn9_4 1_555 1_555
N28_2 N47 1_555 1_555
C7_2 N25_2 1_555 1_555
H7_2 C7_2 1_555 1_555
N28_2 C7_2 1_555 1_555

#END
