
###############################################################################
#
# This file contains modified crystal structure data generated from the
# MOF subset of the Cambridge Structural Database (CSD) v543 
# hosted by the Cambridge Crystallographic Data Centre (CCDC).
#
# This work is licensed under the Creative Commons
# Attribution-NonCommercial-ShareAlike 4.0 International License.
# To view a copy of this license, visit
# http://creativecommons.org/licenses/by-nc-sa/4.0/
# or send a letter to
# Creative Commons, PO Box 1866, Mountain View, CA 94042, USA.
#
# CIF created using the CSD Python API on 29 September 2022
# The structure has been converted into the P1 space group
# The structure has a 3D framework
# The original CSD entry FISVEL is in the hexagonal crystal system
# The framework has been calculated to contain at least 10.0% void space
# The void calculation uses a probe of radius 1.32A, grid spacing 0.4
# The framework is charged, counterions have been retained in the structure
#
###############################################################################

data_FISVEL
_chemical_formula_moiety         '(C18 H18 Mn14 N70 3+)n'
_symmetry_cell_setting           triclinic
_symmetry_space_group_name_H-M   'P 1'
_symmetry_Int_Tables_number      1
_space_group_name_Hall           'P 1'
loop_
_symmetry_equiv_pos_site_id
_symmetry_equiv_pos_as_xyz
1 x,y,z
_cell_length_a                   12.8435(15)
_cell_length_b                   12.8435(15)
_cell_length_c                   13.0900(15)
_cell_angle_alpha                90
_cell_angle_beta                 90
_cell_angle_gamma                120
_cell_volume                     1869.98
loop_
_atom_site_label
_atom_site_type_symbol
_atom_site_fract_x
_atom_site_fract_y
_atom_site_fract_z
Mn3 Mn 0.500000 -0.000000 0.500000
C3 C 0.5062(6) 0.0149(8) 0.250000
H3 H 0.546625 0.098561 0.249999
Mn10 Mn 0.500000 0.000000 0.000000
N38 N 0.5264(3) 0.0525(4) 0.6669(3)
N41 N 0.6928(4) 0.1387(3) 0.4657(3)
N46 N 0.4464(3) 0.1383(4) 0.4657(3)
Mn10_2 Mn 0.500000 0.000000 1.000000
Mn1 Mn 0.500000 0.500000 0.500000
Mn2 Mn 0.333333 0.666667 0.40001(10)
N1 N 0.4739(3) 0.5264(3) 0.3331(3)
N2 N 0.2509(3) 0.5019(3) 0.5004(3)
N3 N 0.1387(3) 0.4459(3) 0.5343(3)
N4 N 0.4165(3) 0.5833(3) 0.3002(3)
N5 N 0.3081(3) 0.4464(3) 0.5343(3)
C1 C 0.5087(6) 0.4938(6) 0.250000
H1 H 0.551936 0.453375 0.249999
N6 N 0.1241(4) 0.3532(5) 0.5904(4)
C2 C 0.2279(4) 0.3523(5) 0.5900(4)
H2 H 0.242010 0.296246 0.622624
N7 N 0.4739(3) 0.5264(3) 0.1669(3)
N8 N 0.4165(3) 0.5833(3) 0.1998(3)
Mn3_2 Mn 0.500000 1.000000 0.500000
N9 N 0.4736(3) 0.9475(4) 0.3331(3)
N10 N 0.4981(3) 0.7490(4) 0.5004(3)
N11 N 0.5541(3) 0.6928(4) 0.5343(3)
N12 N 0.4167(3) 0.8332(4) 0.3002(3)
N13 N 0.5536(3) 0.8617(4) 0.5343(3)
N14 N 0.6468(5) 0.7709(6) 0.5904(4)
C4 C 0.6477(5) 0.8756(6) 0.5900(4)
H4 H 0.703754 0.945764 0.622624
N15 N 0.4736(3) 0.9475(4) 0.1669(3)
N16 N 0.4167(3) 0.8332(4) 0.1998(3)
Mn4 Mn -0.000000 0.500000 0.500000
N17 N 0.0525(4) 0.5261(3) 0.3331(3)
N18 N 0.2510(4) 0.7491(3) 0.5004(3)
N19 N 0.3072(4) 0.8613(3) 0.5343(3)
N20 N 0.1668(4) 0.5835(3) 0.3002(3)
N21 N 0.1383(4) 0.6919(3) 0.5343(3)
N22 N 0.2291(6) 0.8759(4) 0.5904(4)
C6 C 0.1244(6) 0.7721(4) 0.5900(4)
H6 H 0.054236 0.757990 0.622624
N23 N 0.0525(4) 0.5261(3) 0.1669(3)
N24 N 0.1668(4) 0.5835(3) 0.1998(3)
N29 N 0.5019(3) 0.2510(4) 0.4996(3)
N30 N 0.4459(3) 0.3072(4) 0.4657(3)
N32 N 0.3532(5) 0.2291(6) 0.4096(4)
C8 C 0.3523(5) 0.1244(6) 0.4100(4)
H8 H 0.296246 0.054236 0.377376
Mn9 Mn 0.500000 0.500000 0.000000
Mn10_3 Mn 0.500000 1.000000 0.000000
Mn11 Mn 0.000000 0.500000 0.000000
Mn12 Mn 0.666667 0.333333 0.59999(10)
Mn13 Mn 0.333333 0.666667 0.09999(10)
N37 N 0.5261(3) 0.4736(3) 0.6669(3)
N45 N 0.6919(3) 0.5536(3) 0.4657(3)
Mn9_2 Mn 0.500000 0.500000 1.000000
Mn10_4 Mn 0.500000 1.000000 1.000000
Mn11_2 Mn 0.000000 0.500000 1.000000
Mn4_2 Mn 1.000000 0.500000 0.500000
C5 C 0.9851(8) 0.4913(6) 0.250000
H5 H 0.901439 0.448064 0.249999
N25 N 0.7491(3) 0.4981(3) 0.4996(3)
N26 N 0.8613(3) 0.5541(3) 0.4657(3)
N28 N 0.8759(4) 0.6468(5) 0.4096(4)
C7 C 0.7721(4) 0.6477(5) 0.4100(4)
H7 H 0.757990 0.703754 0.377376
N33 N 0.7490(4) 0.2509(3) 0.4996(3)
N35 N 0.8617(4) 0.3081(3) 0.4657(3)
N36 N 0.7709(6) 0.1241(4) 0.4096(4)
C9 C 0.8756(6) 0.2279(4) 0.4100(4)
H9 H 0.945764 0.242010 0.377376
Mn11_3 Mn 1.000000 0.500000 0.000000
N39 N 0.9475(4) 0.4739(3) 0.6669(3)
N42 N 0.5835(3) 0.4167(3) 0.6998(3)
N43 N 0.5833(3) 0.1668(4) 0.6998(3)
N44 N 0.8332(4) 0.4165(3) 0.6998(3)
Mn11_4 Mn 1.000000 0.500000 1.000000
C5_2 C 0.0149(8) 0.5087(6) 0.750000
H5_2 H 0.098561 0.551936 0.749999
N25_2 N 0.2509(3) 0.5019(3) 0.9996(3)
N26_2 N 0.1387(3) 0.4459(3) 0.9657(3)
N27 N 0.3081(3) 0.4464(3) 0.9657(3)
N28_2 N 0.1241(4) 0.3532(5) 0.9096(4)
C7_2 C 0.2279(4) 0.3523(5) 0.9100(4)
H7_2 H 0.242010 0.296246 0.877376
N33_2 N 0.2510(4) 0.7491(3) 0.9996(3)
N34 N 0.3072(4) 0.8613(3) 0.9657(3)
N35_2 N 0.1383(4) 0.6919(3) 0.9657(3)
N36_2 N 0.2291(6) 0.8759(4) 0.9096(4)
C9_2 C 0.1244(6) 0.7721(4) 0.9100(4)
H9_2 H 0.054236 0.757990 0.877376
N40 N 0.4981(3) 0.7490(4) 0.9996(3)
N2_2 N 0.7491(3) 0.4981(3) 0.0004(3)
N3_2 N 0.8613(3) 0.5541(3) 0.0343(3)
N5_2 N 0.6919(3) 0.5536(3) 0.0343(3)
N6_2 N 0.8759(4) 0.6468(5) 0.0904(4)
C2_2 C 0.7721(4) 0.6477(5) 0.0900(4)
H2_2 H 0.757990 0.703754 0.122624
N10_2 N 0.5019(3) 0.2510(4) 0.0004(3)
N11_2 N 0.4459(3) 0.3072(4) 0.0343(3)
N13_2 N 0.4464(3) 0.1383(4) 0.0343(3)
N14_2 N 0.3532(5) 0.2291(6) 0.0904(4)
C4_2 C 0.3523(5) 0.1244(6) 0.0900(4)
H4_2 H 0.296246 0.054236 0.122624
N18_2 N 0.7490(4) 0.2509(3) 0.0004(3)
N19_2 N 0.6928(4) 0.1387(3) 0.0343(3)
N21_2 N 0.8617(4) 0.3081(3) 0.0343(3)
N22_2 N 0.7709(6) 0.1241(4) 0.0904(4)
C6_2 C 0.8756(6) 0.2279(4) 0.0900(4)
H6_2 H 0.945764 0.242010 0.122624
Mn2_2 Mn 0.666667 0.333333 0.90001(10)
N1_2 N 0.5261(3) 0.4736(3) 0.8331(3)
N4_2 N 0.5835(3) 0.4167(3) 0.8002(3)
C1_2 C 0.4913(6) 0.5062(6) 0.750000
H1_2 H 0.448064 0.546625 0.749999
N9_2 N 0.5264(3) 0.0525(4) 0.8331(3)
N12_2 N 0.5833(3) 0.1668(4) 0.8002(3)
N17_2 N 0.9475(4) 0.4739(3) 0.8331(3)
N20_2 N 0.8332(4) 0.4165(3) 0.8002(3)
N30_2 N 0.5541(3) 0.6928(4) 0.9657(3)
N31 N 0.5536(3) 0.8617(4) 0.9657(3)
N32_2 N 0.6468(5) 0.7709(6) 0.9096(4)
C8_2 C 0.6477(5) 0.8756(6) 0.9100(4)
H8_2 H 0.703754 0.945764 0.877376
C3_2 C 0.4938(6) 0.9851(8) 0.750000
H3_2 H 0.453375 0.901439 0.749999
loop_
_geom_bond_atom_site_label_1
_geom_bond_atom_site_label_2
_geom_bond_site_symmetry_1
_geom_bond_site_symmetry_2
H3 C3 1_555 1_555
N38 Mn3 1_555 1_555
N41 Mn3 1_555 1_555
N46 Mn3 1_555 1_555
Mn1 N1 1_555 1_555
Mn2 N2 1_555 1_555
N1 N4 1_555 1_555
N2 N3 1_555 1_555
N3 N6 1_555 1_555
N4 Mn2 1_555 1_555
N5 Mn1 1_555 1_555
C1 N1 1_555 1_555
H1 C1 1_555 1_555
N6 C2 1_555 1_555
C2 N5 1_555 1_555
H2 C2 1_555 1_555
N7 C1 1_555 1_555
N8 N4 1_555 1_555
Mn3_2 N9 1_555 1_555
N9 N12 1_555 1_555
N10 Mn2 1_555 1_555
N11 Mn1 1_555 1_555
N12 Mn2 1_555 1_555
N13 Mn3_2 1_555 1_555
N14 N11 1_555 1_555
C4 N13 1_555 1_555
H4 C4 1_555 1_555
N16 N12 1_555 1_555
Mn4 N3 1_555 1_555
N17 Mn4 1_555 1_555
N18 Mn2 1_555 1_555
N19 Mn3_2 1_555 1_555
N20 Mn2 1_555 1_555
N21 Mn4 1_555 1_555
N22 N19 1_555 1_555
C6 N21 1_555 1_555
H6 C6 1_555 1_555
N24 N20 1_555 1_555
N29 N30 1_555 1_555
N30 Mn1 1_555 1_555
N46 N29 1_555 1_555
N32 N30 1_555 1_555
C8 N46 1_555 1_555
H8 C8 1_555 1_555
Mn9 N7 1_555 1_555
Mn10_3 N15 1_555 1_555
Mn11 N23 1_555 1_555
Mn12 N29 1_555 1_555
Mn13 N8 1_555 1_555
N37 Mn1 1_555 1_555
N45 Mn1 1_555 1_555
N2 N5 1_555 1_555
N7 N8 1_555 1_555
N10 N11 1_555 1_555
N10 N13 1_555 1_555
N14 C4 1_555 1_555
N15 N16 1_555 1_555
N16 Mn13 1_555 1_555
N17 N20 1_555 1_555
N18 N19 1_555 1_555
N18 N21 1_555 1_555
N22 C6 1_555 1_555
N23 N24 1_555 1_555
N24 Mn13 1_555 1_555
N32 C8 1_555 1_555
H5 C5 1_555 1_555
Mn12 N25 1_555 1_555
N25 N26 1_555 1_555
N26 Mn4_2 1_555 1_555
N45 N25 1_555 1_555
N28 N26 1_555 1_555
C7 N45 1_555 1_555
H7 C7 1_555 1_555
N33 Mn12 1_555 1_555
N41 N33 1_555 1_555
N35 Mn4_2 1_555 1_555
N36 N41 1_555 1_555
C9 N35 1_555 1_555
H9 C9 1_555 1_555
N39 Mn4_2 1_555 1_555
N42 Mn12 1_555 1_555
N43 Mn12 1_555 1_555
N44 Mn12 1_555 1_555
N28 C7 1_555 1_555
N33 N35 1_555 1_555
N36 C9 1_555 1_555
N39 N44 1_555 1_555
N37 N42 1_555 1_555
N38 N43 1_555 1_555
H5_2 C5_2 1_555 1_555
N25_2 N26_2 1_555 1_555
N26_2 Mn11_2 1_555 1_555
N27 N25_2 1_555 1_555
N28_2 N26_2 1_555 1_555
C7_2 N27 1_555 1_555
H7_2 C7_2 1_555 1_555
N34 N33_2 1_555 1_555
N35_2 Mn11_2 1_555 1_555
N36_2 N34 1_555 1_555
C9_2 N35_2 1_555 1_555
H9_2 C9_2 1_555 1_555
Mn9_2 N27 1_555 1_555
Mn10_4 N34 1_555 1_555
N28_2 C7_2 1_555 1_555
N33_2 N35_2 1_555 1_555
N36_2 C9_2 1_555 1_555
N2_2 N3_2 1_555 1_555
N3_2 N6_2 1_555 1_555
N5_2 Mn9 1_555 1_555
N6_2 C2_2 1_555 1_555
C2_2 N5_2 1_555 1_555
H2_2 C2_2 1_555 1_555
N11_2 Mn9 1_555 1_555
N13_2 Mn10 1_555 1_555
N14_2 N11_2 1_555 1_555
C4_2 N13_2 1_555 1_555
H4_2 C4_2 1_555 1_555
Mn11_3 N3_2 1_555 1_555
N19_2 Mn10 1_555 1_555
N21_2 Mn11_3 1_555 1_555
N22_2 N19_2 1_555 1_555
C6_2 N21_2 1_555 1_555
H6_2 C6_2 1_555 1_555
N2_2 N5_2 1_555 1_555
N10_2 N11_2 1_555 1_555
N10_2 N13_2 1_555 1_555
N14_2 C4_2 1_555 1_555
N18_2 N19_2 1_555 1_555
N18_2 N21_2 1_555 1_555
N22_2 C6_2 1_555 1_555
Mn9_2 N1_2 1_555 1_555
N1_2 N4_2 1_555 1_555
N4_2 Mn2_2 1_555 1_555
C1_2 N1_2 1_555 1_555
H1_2 C1_2 1_555 1_555
N37 C1_2 1_555 1_555
N42 N4_2 1_555 1_555
Mn10_2 N9_2 1_555 1_555
N9_2 N12_2 1_555 1_555
N12_2 Mn2_2 1_555 1_555
N43 N12_2 1_555 1_555
N17_2 Mn11_4 1_555 1_555
N20_2 Mn2_2 1_555 1_555
N44 N20_2 1_555 1_555
N40 N30_2 1_555 1_555
N30_2 Mn9_2 1_555 1_555
N31 N40 1_555 1_555
N32_2 N30_2 1_555 1_555
C8_2 N31 1_555 1_555
H8_2 C8_2 1_555 1_555
Mn10_4 N31 1_555 1_555
N17_2 N20_2 1_555 1_555
N32_2 C8_2 1_555 1_555
H3_2 C3_2 1_555 1_555

#END
