
###############################################################################
#
# This file contains modified crystal structure data generated from the
# MOF subset of the Cambridge Structural Database (CSD) v543 
# hosted by the Cambridge Crystallographic Data Centre (CCDC).
#
# This work is licensed under the Creative Commons
# Attribution-NonCommercial-ShareAlike 4.0 International License.
# To view a copy of this license, visit
# http://creativecommons.org/licenses/by-nc-sa/4.0/
# or send a letter to
# Creative Commons, PO Box 1866, Mountain View, CA 94042, USA.
#
# CIF created using the CSD Python API on 29 September 2022
# The structure has been converted into the P1 space group
# The structure has a 3D framework
# The original CSD entry FITDEU is in the monoclinic crystal system
# The original CSD entry FITDEU is in a Sohncke space group
# The framework has been calculated to contain at least 10.0% void space
# The void calculation uses a probe of radius 1.32A, grid spacing 0.4
#
###############################################################################

data_FITDEU
_chemical_formula_moiety         '(C22 H26 N10 O8)n'
_symmetry_cell_setting           triclinic
_symmetry_space_group_name_H-M   'P 1'
_symmetry_Int_Tables_number      1
_space_group_name_Hall           'P 1'
loop_
_symmetry_equiv_pos_site_id
_symmetry_equiv_pos_as_xyz
1 x,y,z
_cell_length_a                   9.5538(4)
_cell_length_b                   8.7322(4)
_cell_length_c                   11.8097(6)
_cell_angle_alpha                90
_cell_angle_beta                 110.473(5)
_cell_angle_gamma                90
_cell_volume                     923.002
loop_
_atom_site_label
_atom_site_type_symbol
_atom_site_fract_x
_atom_site_fract_y
_atom_site_fract_z
O1 O 0.6657(4) 0.2945(4) 0.0079(4)
O2 O 0.6127(5) 0.1057(5) 0.2680(4)
O4 O 0.5989(6) 0.5295(6) 0.5221(4)
N1 N 0.4657(5) 0.2511(5) 0.1143(4)
H1 H 0.4129 0.3330 0.0932
N4 N 0.6561(5) 0.4093(6) 0.7460(4)
H2 H 0.5620 0.3907 0.7395
H3 H 0.6616 0.5078 0.7286
N5 N 0.6015(6) 0.3004(7) 0.4375(5)
H4 H 0.6217 0.2045 0.4498
C2 C 0.4681(6) 0.1406(7) 0.0226(5)
H6 H 0.4698 0.0345 0.0549
C5 C 0.6245(6) 0.3896(11) 0.5316(5)
C6 C 0.5445(7) 0.2265(8) 0.2303(6)
C8 C 0.5445(8) 0.3544(9) 0.3144(5)
H8 H 0.6075 0.4395 0.3041
H9 H 0.4415 0.3935 0.2953
C10 C 0.6887(7) 0.3188(8) 0.6548(6)
H12 H 0.6469 0.2146 0.6526
H13 H 0.7983 0.3090 0.6771
Zn3 Zn 0.78760(6) 0.37610(8) 0.92112(5)
N7 N 0.8663(5) 0.5701(6) 0.0075(4)
O3 O 0.6404(4) 0.0606(5) 0.9293(4)
N3 N 0.1337(5) 0.0701(6) 0.9925(4)
C1 C 0.0804(6) 0.2855(7) 0.8877(5)
H5 H 0.0876 0.3717 0.8410
C3 C 0.6035(6) 0.1639(7) 0.9844(5)
C4 C 0.1857(6) 0.1745(7) 0.9289(5)
C7 C 0.0001(9) 0.1238(9) 0.9859(7)
C9 C 0.3298(6) 0.1600(8) 0.9080(5)
H10 H 0.3438 0.2524 0.8645
H11 H 0.3234 0.0708 0.8546
N6 N 0.9606(5) 0.2531(6) 0.9245(4)
Zn4 Zn 0.21240(6) 0.87610(8) 0.07888(5)
C7_2 C 1.0001(9) 0.1238(9) 0.9859(7)
N2 N 0.0394(5) 0.7531(6) 0.0755(4)
C7_3 C -0.0001(9) 0.6238(9) 0.0141(7)
O4_2 O 0.4011(6) 0.0295(6) 0.4779(4)
H3_2 H 0.3384 0.0078 0.2714
O3_2 O 0.3596(4) 0.5606(5) 0.0707(4)
C1_2 C 0.9196(6) 0.7855(7) 0.1123(5)
H5_2 H 0.9124 0.8717 0.1590
C3_2 C 0.3965(6) 0.6639(7) 0.0156(5)
C4_2 C 0.8143(6) 0.6745(7) 0.0711(5)
C7_4 C 0.9999(9) 0.6238(9) 0.0141(7)
C9_2 C 0.6702(6) 0.6600(8) 0.0920(5)
H10_2 H 0.6562 0.7524 0.1355
H11_2 H 0.6766 0.5708 0.1454
N8 N 0.3439(5) 0.9093(6) 0.2540(4)
O1_2 O 0.3343(4) 0.7945(4) 0.9921(4)
O2_2 O 0.3873(5) 0.6057(5) 0.7320(4)
N1_2 N 0.5343(5) 0.7511(5) 0.8857(4)
H1_2 H 0.5871 0.8330 0.9068
H2_2 H 0.4380 0.8907 0.2605
N5_2 N 0.3985(6) 0.8004(7) 0.5625(5)
H4_2 H 0.3783 0.7045 0.5502
C2_2 C 0.5319(6) 0.6406(7) 0.9774(5)
H6_2 H 0.5302 0.5345 0.9451
C5_2 C 0.3755(6) 0.8896(11) 0.4684(5)
C6_2 C 0.4555(7) 0.7265(8) 0.7697(6)
C8_2 C 0.4555(8) 0.8544(9) 0.6856(5)
H8_2 H 0.3925 0.9395 0.6959
H9_2 H 0.5585 0.8935 0.7047
C10_2 C 0.3113(7) 0.8188(8) 0.3452(6)
H12_2 H 0.3531 0.7146 0.3474
H13_2 H 0.2017 0.8090 0.3229
H7 H 0.9385 0.0733 0.0223
H7_2 H 0.0615 0.5733 0.9777
loop_
_geom_bond_atom_site_label_1
_geom_bond_atom_site_label_2
_geom_bond_site_symmetry_1
_geom_bond_site_symmetry_2
O2 C6 1_555 1_555
O4 C5 1_555 1_555
N1 H1 1_555 1_555
N4 H2 1_555 1_555
H3 N4 1_555 1_555
N5 H4 1_555 1_555
C2 N1 1_555 1_555
H6 C2 1_555 1_555
C5 N5 1_555 1_555
C6 N1 1_555 1_555
C8 N5 1_555 1_555
H8 C8 1_555 1_555
H9 C8 1_555 1_555
C10 N4 1_555 1_555
H12 C10 1_555 1_555
H13 C10 1_555 1_555
Zn3 N4 1_555 1_555
C5 C10 1_555 1_555
C6 C8 1_555 1_555
O3 C3 1_555 1_555
N3 C4 1_555 1_555
C1 H5 1_555 1_555
C4 C1 1_555 1_555
H10 C9 1_555 1_555
H11 C9 1_555 1_555
N6 Zn3 1_555 1_555
N3 C7 1_555 1_555
C4 C9 1_555 1_555
C7_2 N6 1_555 1_555
C7_3 N2 1_555 1_555
Zn4 N2 1_555 1_555
O3_2 C3_2 1_555 1_555
N7 C4_2 1_555 1_555
C1_2 H5_2 1_555 1_555
C4_2 C1_2 1_555 1_555
H10_2 C9_2 1_555 1_555
H11_2 C9_2 1_555 1_555
N8 Zn4 1_555 1_555
N7 C7_4 1_555 1_555
C4_2 C9_2 1_555 1_555
O2_2 C6_2 1_555 1_555
N1_2 H1_2 1_555 1_555
N8 H2_2 1_555 1_555
N5_2 H4_2 1_555 1_555
C2_2 N1_2 1_555 1_555
H6_2 C2_2 1_555 1_555
C5_2 N5_2 1_555 1_555
C6_2 N1_2 1_555 1_555
C8_2 N5_2 1_555 1_555
H8_2 C8_2 1_555 1_555
H9_2 C8_2 1_555 1_555
C10_2 N8 1_555 1_555
H12_2 C10_2 1_555 1_555
H13_2 C10_2 1_555 1_555
C5_2 C10_2 1_555 1_555
C6_2 C8_2 1_555 1_555

#END
