
###############################################################################
#
# This file contains modified crystal structure data generated from the
# MOF subset of the Cambridge Structural Database (CSD) v543 
# hosted by the Cambridge Crystallographic Data Centre (CCDC).
#
# This work is licensed under the Creative Commons
# Attribution-NonCommercial-ShareAlike 4.0 International License.
# To view a copy of this license, visit
# http://creativecommons.org/licenses/by-nc-sa/4.0/
# or send a letter to
# Creative Commons, PO Box 1866, Mountain View, CA 94042, USA.
#
# CIF created using the CSD Python API on 29 September 2022
# The structure has been converted into the P1 space group
# The structure has a 3D framework
# The original CSD entry FITDOE is in the monoclinic crystal system
# The original CSD entry FITDOE is in a Sohncke space group
# The framework has been calculated to contain at least 10.0% void space
# The void calculation uses a probe of radius 1.32A, grid spacing 0.4
#
###############################################################################

data_FITDOE
_chemical_formula_moiety         '(C20 H26 N10 O8 Zn2)n'
_symmetry_cell_setting           triclinic
_symmetry_space_group_name_H-M   'P 1'
_symmetry_Int_Tables_number      1
_space_group_name_Hall           'P 1'
loop_
_symmetry_equiv_pos_site_id
_symmetry_equiv_pos_as_xyz
1 x,y,z
_cell_length_a                   9.5309(6)
_cell_length_b                   9.0153(5)
_cell_length_c                   11.0339(10)
_cell_angle_alpha                90
_cell_angle_beta                 108.349(8)
_cell_angle_gamma                90
_cell_volume                     899.873
loop_
_atom_site_label
_atom_site_type_symbol
_atom_site_fract_x
_atom_site_fract_y
_atom_site_fract_z
N8 N 0.0168(9) 0.7004(9) 0.0793(8)
Zn1 Zn 0.85348(11) 0.56833(14) 0.07598(11)
O2 O 0.6906(7) 0.8685(7) 0.0515(7)
O3 O 0.6503(7) 0.6286(7) 0.0130(7)
N1 N 0.1373(8) 0.8855(9) 0.0233(8)
C1 C 0.2378(10) 0.7797(10) 0.0834(10)
C2 C 0.4005(11) 0.7897(11) 0.1031(10)
H5 H 0.4499 0.7089 0.1581
H6 H 0.4375 0.8819 0.1468
C3 C 0.1650(10) 0.6675(10) 0.1160(10)
H7 H 0.2080 0.5809 0.1570
C4 C 0.6081(12) 0.7630(12) 0.0165(10)
C9 C 0.0106(14) 0.8311(14) 0.0251(11)
N7 N 0.9097(10) 0.4934(10) 0.2582(9)
H1 H 0.8300 0.4520 0.2696
H2 H 0.9768 0.4221 0.2672
C6 C 0.9668(13) 0.5980(15) 0.3578(10)
H10 H 0.8861 0.6580 0.3665
H13 H 0.9219 0.8816 0.9902
O1 O 0.6766(8) 0.3037(8) 0.2837(7)
N4 N 0.6397(8) 0.1696(9) 0.1051(8)
H3 H 0.6553 0.0861 0.0738
N5 N 0.8596(11) 0.1111(9) 0.4299(9)
H4 H 0.8479 0.2011 0.4507
C5 C 0.7747(11) 0.0637(19) 0.3042(9)
H9 H 0.8404 0.0232 0.2609
H11 H 0.9651 0.1634 0.6655
C7 C 0.5599(10) 0.2834(11) 0.0196(10)
H12 H 0.5853 0.3792 0.0629
C8 C 0.6903(12) 0.1896(12) 0.2291(11)
C10 C 0.9543(13) 0.0273(13) 0.5156(12)
O4 O 0.9787(11) 0.8995(9) 0.4932(8)
H8 H 0.7068 0.9860 0.3102
Zn4 Zn 0.14652(11) 0.06833(14) 0.92402(11)
O1_2 O 0.3234(8) 0.8037(8) 0.7163(7)
O4_2 O 0.0213(11) 0.3995(9) 0.5068(8)
N4_2 N 0.3603(8) 0.6696(9) 0.8949(8)
H3_2 H 0.3447 0.5861 0.9262
N5_2 N 0.1404(11) 0.6111(9) 0.5701(9)
H4_2 H 0.1521 0.7011 0.5493
C5_2 C 0.2253(11) 0.5637(19) 0.6958(9)
H8_2 H 0.2932 0.4860 0.6898
H9_2 H 0.1596 0.5232 0.7391
H11_2 H 0.0349 0.6634 0.3345
C7_2 C 0.4401(10) 0.7834(11) 0.9804(10)
H12_2 H 0.4147 0.8792 0.9371
C8_2 C 0.3097(12) 0.6896(12) 0.7709(11)
C10_2 C 0.0457(13) 0.5273(13) 0.4844(12)
N6 N 0.8627(8) 0.3855(9) 0.9767(8)
C6_2 C 0.0332(13) 0.0980(15) 0.6422(10)
H10_2 H 0.1139 0.1580 0.6335
H13_2 H 0.0781 0.3816 0.0098
O2_2 O 0.3094(7) 0.3685(7) 0.9485(7)
O3_2 O 0.3497(7) 0.1286(7) 0.9870(7)
N3 N 0.9832(9) 0.2004(9) 0.9207(8)
C1_2 C 0.7622(10) 0.2797(10) 0.9166(10)
C2_2 C 0.5995(11) 0.2897(11) 0.8969(10)
H5_2 H 0.5501 0.2089 0.8419
H6_2 H 0.5625 0.3819 0.8532
C3_2 C 0.8350(10) 0.1675(10) 0.8840(10)
H7_2 H 0.7920 0.0809 0.8430
C4_2 C 0.3919(12) 0.2630(12) 0.9835(10)
C9_2 C 0.9894(14) 0.3311(14) 0.9749(11)
N2 N 0.0903(10) 0.9934(10) 0.7418(9)
H1_2 H 0.1700 0.9520 0.7304
H2_2 H 0.0232 0.9221 0.7328
loop_
_geom_bond_atom_site_label_1
_geom_bond_atom_site_label_2
_geom_bond_site_symmetry_1
_geom_bond_site_symmetry_2
Zn1 O3 1_555 1_555
O2 C4 1_555 1_555
O3 C4 1_555 1_555
N1 C1 1_555 1_555
N8 C3 1_555 1_555
C1 C2 1_555 1_555
C2 H5 1_555 1_555
H6 C2 1_555 1_555
C3 C1 1_555 1_555
H7 C3 1_555 1_555
C9 N1 1_555 1_555
N7 Zn1 1_555 1_555
N8 C9 1_555 1_555
N7 H1 1_555 1_555
H2 N7 1_555 1_555
C6 N7 1_555 1_555
H10 C6 1_555 1_555
O1 C8 1_555 1_555
N4 H3 1_555 1_555
N5 H4 1_555 1_555
C5 N5 1_555 1_555
H9 C5 1_555 1_555
C7 N4 1_555 1_555
H12 C7 1_555 1_555
C8 N4 1_555 1_555
C10 N5 1_555 1_555
C5 C8 1_555 1_555
O1_2 C8_2 1_555 1_555
O4_2 C10_2 1_555 1_555
N4_2 H3_2 1_555 1_555
N5_2 H4_2 1_555 1_555
C5_2 N5_2 1_555 1_555
H8_2 C5_2 1_555 1_555
H9_2 C5_2 1_555 1_555
C7_2 N4_2 1_555 1_555
H12_2 C7_2 1_555 1_555
C8_2 N4_2 1_555 1_555
C10_2 N5_2 1_555 1_555
C5_2 C8_2 1_555 1_555
H10_2 C6_2 1_555 1_555
Zn4 O3_2 1_555 1_555
O2_2 C4_2 1_555 1_555
O3_2 C4_2 1_555 1_555
N6 C1_2 1_555 1_555
N3 C3_2 1_555 1_555
C1_2 C2_2 1_555 1_555
C2_2 H5_2 1_555 1_555
H6_2 C2_2 1_555 1_555
C3_2 C1_2 1_555 1_555
H7_2 C3_2 1_555 1_555
C9_2 N6 1_555 1_555
N3 C9_2 1_555 1_555
N2 H1_2 1_555 1_555
H2_2 N2 1_555 1_555

#END
