
###############################################################################
#
# This file contains modified crystal structure data generated from the
# MOF subset of the Cambridge Structural Database (CSD) v543 
# hosted by the Cambridge Crystallographic Data Centre (CCDC).
#
# This work is licensed under the Creative Commons
# Attribution-NonCommercial-ShareAlike 4.0 International License.
# To view a copy of this license, visit
# http://creativecommons.org/licenses/by-nc-sa/4.0/
# or send a letter to
# Creative Commons, PO Box 1866, Mountain View, CA 94042, USA.
#
# CIF created using the CSD Python API on 29 September 2022
# The structure has been converted into the P1 space group
# The structure has a 3D framework
# The original CSD entry FITDUK is in the monoclinic crystal system
# The original CSD entry FITDUK is in a Sohncke space group
# The framework has been calculated to contain at least 10.0% void space
# The void calculation uses a probe of radius 1.32A, grid spacing 0.4
#
###############################################################################

data_FITDUK
_chemical_formula_moiety         '(C20 H26 N10 O8 Zn2)n'
_symmetry_cell_setting           triclinic
_symmetry_space_group_name_H-M   'P 1'
_symmetry_Int_Tables_number      1
_space_group_name_Hall           'P 1'
loop_
_symmetry_equiv_pos_site_id
_symmetry_equiv_pos_as_xyz
1 x,y,z
_cell_length_a                   9.5727(10)
_cell_length_b                   9.0230(5)
_cell_length_c                   11.7432(14)
_cell_angle_alpha                90
_cell_angle_beta                 113.377(13)
_cell_angle_gamma                90
_cell_volume                     931.052
loop_
_atom_site_label
_atom_site_type_symbol
_atom_site_fract_x
_atom_site_fract_y
_atom_site_fract_z
O3 O 0.5935(10) 0.5277(9) 0.5105(7)
O4 O 0.5796(8) 0.1089(7) 0.2751(6)
N2 N 0.6801(9) 0.4209(8) 0.7500(7)
H1 H 0.5928 0.4652 0.7458
H2 H 0.7392 0.4928 0.7376
N3 N 0.4472(8) 0.2398(8) 0.1012(7)
H3 H 0.3981 0.3225 0.0699
N5 N 0.5315(11) 0.3029(9) 0.4254(8)
H4 H 0.5205 0.2086 0.4388
C5 C 0.5842(12) 0.3911(11) 0.5209(9)
C6 C 0.5110(10) 0.2222(11) 0.2222(9)
C7 C 0.4572(10) 0.1240(10) 0.0180(8)
H8 H 0.4677 0.0261 0.0605
C9 C 0.4887(11) 0.3514(15) 0.2979(8)
H10 H 0.5527 0.4364 0.2952
H11 H 0.3810 0.3835 0.2626
C10 C 0.6403(12) 0.3162(12) 0.6479(9)
H12 H 0.5599 0.2490 0.6505
H13 H 0.7307 0.2551 0.6589
Zn3 Zn 0.79099(9) 0.34119(13) 0.92622(8)
N6 N 0.8845(7) 0.5207(7) 0.0284(7)
O1 O 0.6381(7) 0.2792(7) 0.9865(6)
O2 O 0.6480(7) 0.0383(7) 0.9503(7)
N1 N 0.1155(7) 0.0207(7) 0.9716(7)
C1 C 0.5944(9) 0.1454(10) 0.9831(8)
C2 C 0.1678(9) 0.1290(9) 0.9152(8)
C3 C 0.0648(9) 0.2422(10) 0.8818(8)
H5 H 0.0728 0.3311 0.8415
C4 C 0.3139(9) 0.1201(11) 0.8970(8)
H6 H 0.3179 0.2039 0.8439
H7 H 0.3142 0.0272 0.8522
N8 N 0.9460(8) 0.2055(8) 0.9165(7)
Zn4 Zn 0.20901(9) 0.84119(13) 0.07378(8)
C8 C 0.9821(10) 0.0737(11) 0.9701(8)
N4 N 0.0540(8) 0.7055(8) 0.0835(7)
C8_2 C 0.0179(10) 0.5737(11) 0.0299(8)
O3_2 O 0.4065(10) 0.0277(9) 0.4895(7)
O1_2 O 0.3619(7) 0.7792(7) 0.0135(6)
O2_2 O 0.3520(7) 0.5383(7) 0.0497(7)
C1_2 C 0.4056(9) 0.6454(10) 0.0169(8)
C2_2 C 0.8322(9) 0.6290(9) 0.0848(8)
C3_2 C 0.9352(9) 0.7422(10) 0.1182(8)
H5_2 H 0.9272 0.8311 0.1585
C4_2 C 0.6861(9) 0.6201(11) 0.1030(8)
H6_2 H 0.6821 0.7039 0.1561
H7_2 H 0.6858 0.5272 0.1478
N7 N 0.3199(9) 0.9209(8) 0.2500(7)
O4_2 O 0.4204(8) 0.6089(7) 0.7249(6)
H1_2 H 0.4072 0.9652 0.2542
H2_2 H 0.2608 0.9928 0.2624
N3_2 N 0.5528(8) 0.7398(8) 0.8988(7)
H3_2 H 0.6019 0.8225 0.9301
N5_2 N 0.4685(11) 0.8029(9) 0.5746(8)
H4_2 H 0.4795 0.7086 0.5612
C5_2 C 0.4158(12) 0.8911(11) 0.4791(9)
C6_2 C 0.4890(10) 0.7222(11) 0.7778(9)
C7_2 C 0.5428(10) 0.6240(10) 0.9820(8)
H8_2 H 0.5323 0.5261 0.9395
C9_2 C 0.5113(11) 0.8514(15) 0.7021(8)
H10_2 H 0.4473 0.9364 0.7048
H11_2 H 0.6190 0.8835 0.7374
C10_2 C 0.3597(12) 0.8162(12) 0.3521(9)
H12_2 H 0.4401 0.7490 0.3495
H13_2 H 0.2693 0.7551 0.3411
H9 H 0.9211 0.0218 0.0039
H9_2 H 0.0789 0.5218 0.9961
loop_
_geom_bond_atom_site_label_1
_geom_bond_atom_site_label_2
_geom_bond_site_symmetry_1
_geom_bond_site_symmetry_2
O3 C5 1_555 1_555
O4 C6 1_555 1_555
N2 H1 1_555 1_555
H2 N2 1_555 1_555
N3 H3 1_555 1_555
N5 H4 1_555 1_555
C5 N5 1_555 1_555
C6 N3 1_555 1_555
C7 N3 1_555 1_555
H8 C7 1_555 1_555
C9 N5 1_555 1_555
H10 C9 1_555 1_555
H11 C9 1_555 1_555
C10 N2 1_555 1_555
H12 C10 1_555 1_555
H13 C10 1_555 1_555
Zn3 N2 1_555 1_555
C5 C10 1_555 1_555
C6 C9 1_555 1_555
Zn3 O1 1_555 1_555
O1 C1 1_555 1_555
O2 C1 1_555 1_555
N1 C2 1_555 1_555
C2 C3 1_555 1_555
C3 H5 1_555 1_555
C4 C2 1_555 1_555
H6 C4 1_555 1_555
H7 C4 1_555 1_555
N8 Zn3 1_555 1_555
N8 C8 1_555 1_555
Zn4 N4 1_555 1_555
N4 C8_2 1_555 1_555
Zn4 O1_2 1_555 1_555
O1_2 C1_2 1_555 1_555
O2_2 C1_2 1_555 1_555
N6 C2_2 1_555 1_555
C2_2 C3_2 1_555 1_555
C3_2 H5_2 1_555 1_555
C4_2 C2_2 1_555 1_555
H6_2 C4_2 1_555 1_555
H7_2 C4_2 1_555 1_555
N7 Zn4 1_555 1_555
O4_2 C6_2 1_555 1_555
N7 H1_2 1_555 1_555
H2_2 N7 1_555 1_555
N3_2 H3_2 1_555 1_555
N5_2 H4_2 1_555 1_555
C5_2 N5_2 1_555 1_555
C6_2 N3_2 1_555 1_555
C7_2 N3_2 1_555 1_555
H8_2 C7_2 1_555 1_555
C9_2 N5_2 1_555 1_555
H10_2 C9_2 1_555 1_555
H11_2 C9_2 1_555 1_555
C10_2 N7 1_555 1_555
H12_2 C10_2 1_555 1_555
H13_2 C10_2 1_555 1_555
C5_2 C10_2 1_555 1_555
C6_2 C9_2 1_555 1_555

#END
