
###############################################################################
#
# This file contains modified crystal structure data generated from the
# MOF subset of the Cambridge Structural Database (CSD) v543 
# hosted by the Cambridge Crystallographic Data Centre (CCDC).
#
# This work is licensed under the Creative Commons
# Attribution-NonCommercial-ShareAlike 4.0 International License.
# To view a copy of this license, visit
# http://creativecommons.org/licenses/by-nc-sa/4.0/
# or send a letter to
# Creative Commons, PO Box 1866, Mountain View, CA 94042, USA.
#
# CIF created using the CSD Python API on 29 September 2022
# The structure has been converted into the P1 space group
# The structure has a 3D framework
# The original CSD entry FITFIA is in the monoclinic crystal system
# The original CSD entry FITFIA is in a Sohncke space group
# The framework has been calculated to contain at least 10.0% void space
# The void calculation uses a probe of radius 1.32A, grid spacing 0.4
#
###############################################################################

data_FITFIA
_chemical_formula_moiety         '(C22 H25 N9 O8 Zn2)n'
_symmetry_cell_setting           triclinic
_symmetry_space_group_name_H-M   'P 1'
_symmetry_Int_Tables_number      1
_space_group_name_Hall           'P 1'
loop_
_symmetry_equiv_pos_site_id
_symmetry_equiv_pos_as_xyz
1 x,y,z
_cell_length_a                   9.5645(5)
_cell_length_b                   9.0405(5)
_cell_length_c                   10.4571(10)
_cell_angle_alpha                90
_cell_angle_beta                 105.264(8)
_cell_angle_gamma                90
_cell_volume                     872.306
loop_
_atom_site_label
_atom_site_type_symbol
_atom_site_fract_x
_atom_site_fract_y
_atom_site_fract_z
O3 O 0.0996(13) 0.542(3) 0.4471(13)
H4 H 0.0895 0.8322 0.0296
N4 N 0.1410(14) 0.5003(17) 0.7198(17)
H5 H 0.1779 0.5810 0.6924
H6 H 0.1994 0.4256 0.7137
C5 C 0.005(2) 0.472(3) 0.627(2)
C8 C -0.000(2) 0.481(2) 0.481(2)
Zn3 Zn 0.15506(18) 0.5285(2) 0.9125(2)
C3 C 0.002(2) 0.787(3) 0.989(2)
O1 O 0.3626(11) 0.5745(12) 0.9773(14)
N2 N 0.8719(13) 0.8415(16) 0.9954(16)
N3 N 0.9931(14) 0.6646(16) 0.9208(16)
C1 C 0.611(2) 0.748(2) 0.9099(19)
H2 H 0.5600 0.6764 0.8449
H3 H 0.5763 0.8457 0.8787
C6 C 0.8475(18) 0.636(2) 0.8801(19)
H12 H 0.8069 0.5548 0.8291
C7 C 0.7724(17) 0.7379(19) 0.9222(18)
O2 O 0.6596(13) 0.3107(15) 0.9710(16)
N1 N 0.3463(15) 0.0869(16) 0.8948(15)
H1 H 0.3627 0.0038 0.9360
O4 O 0.2324(14) 0.1962(16) 0.7002(13)
C2 C 0.5885(18) 0.2021(18) 0.9831(19)
H10 H 0.0647 0.0423 0.3561
C9 C 0.252(2) 0.091(2) 0.7757(19)
C10 C 0.4226(17) 0.2181(19) 0.9581(18)
H13 H 0.3904 0.3033 0.8997
N5 N 0.1184(16) 0.926(2) 0.6017(17)
H7 H 0.1737 0.8707 0.5694
C4 C 0.159(2) 0.953(2) 0.739(2)
H8 H 0.2122 0.8681 0.7841
H9 H 0.0724 0.9639 0.7700
H11 H 0.0266 0.8743 0.3555
C8_2 C 0.000(2) 0.981(2) 0.519(2)
Zn4 Zn 0.84494(18) 0.0285(2) 0.0875(2)
O2_2 O 0.3404(13) 0.8107(15) 0.0290(16)
N1_2 N 0.6537(15) 0.5869(16) 0.1052(15)
H1_2 H 0.6373 0.5038 0.0640
O4_2 O 0.7676(14) 0.6962(16) 0.2998(13)
C2_2 C 0.4115(18) 0.7021(18) 0.0169(19)
N5_2 N 0.8816(16) 0.426(2) 0.3983(17)
H7_2 H 0.8263 0.3707 0.4306
C4_2 C 0.841(2) 0.453(2) 0.261(2)
H8_2 H 0.7878 0.3681 0.2159
H9_2 H 0.9276 0.4639 0.2300
H10_2 H 0.9353 0.5423 0.6439
H11_2 H 0.9734 0.3743 0.6445
C8_3 C 1.000(2) 0.481(2) 0.481(2)
C9_2 C 0.748(2) 0.591(2) 0.2243(19)
C10_2 C 0.5774(17) 0.7181(19) 0.0419(18)
H13_2 H 0.6096 0.8033 0.1003
N6 N 0.1281(13) 0.3415(16) 0.0046(16)
N7 N 0.0069(14) 0.1646(16) 0.0792(16)
O1_2 O 0.6374(11) 0.0745(12) 0.0227(14)
C1_2 C 0.389(2) 0.248(2) 0.0901(19)
H2_2 H 0.4400 0.1764 0.1551
H3_2 H 0.4237 0.3457 0.1213
C6_2 C 0.1525(18) 0.136(2) 0.1199(19)
H12_2 H 0.1931 0.0548 0.1709
C7_2 C 0.2276(17) 0.2379(19) 0.0778(18)
N8 N 0.8590(14) 0.0003(17) 0.2802(17)
C3_2 C 0.998(2) 0.287(3) 0.011(2)
O3_2 O 0.9004(13) 0.042(3) 0.5529(13)
H4_2 H 0.9105 0.3322 0.9704
H5_2 H 0.8221 0.0810 0.3076
H6_2 H 0.8006 0.9256 0.2863
C5_2 C 0.995(2) 0.972(3) 0.373(2)
C8_4 C 1.000(2) 0.981(2) 0.519(2)
loop_
_geom_bond_atom_site_label_1
_geom_bond_atom_site_label_2
_geom_bond_site_symmetry_1
_geom_bond_site_symmetry_2
O3 C8 1_555 1_555
N4 H5 1_555 1_555
H6 N4 1_555 1_555
C5 N4 1_555 1_555
Zn3 N4 1_555 1_555
C5 C8 1_555 1_555
Zn3 O1 1_555 1_555
C1 H2 1_555 1_555
H3 C1 1_555 1_555
C6 N3 1_555 1_555
H12 C6 1_555 1_555
C7 N2 1_555 1_555
C1 C7 1_555 1_555
C6 C7 1_555 1_555
O2 C2 1_555 1_555
N1 H1 1_555 1_555
O4 C9 1_555 1_555
C2 C10 1_555 1_555
C9 N1 1_555 1_555
C10 N1 1_555 1_555
H13 C10 1_555 1_555
N5 H7 1_555 1_555
C4 N5 1_555 1_555
H8 C4 1_555 1_555
H9 C4 1_555 1_555
C8_2 N5 1_555 1_555
O2_2 C2_2 1_555 1_555
N1_2 H1_2 1_555 1_555
O4_2 C9_2 1_555 1_555
C2_2 C10_2 1_555 1_555
N5_2 H7_2 1_555 1_555
C4_2 N5_2 1_555 1_555
H8_2 C4_2 1_555 1_555
H9_2 C4_2 1_555 1_555
C8_3 N5_2 1_555 1_555
C9_2 N1_2 1_555 1_555
C10_2 N1_2 1_555 1_555
H13_2 C10_2 1_555 1_555
C4_2 C9_2 1_555 1_555
Zn4 O1_2 1_555 1_555
C1_2 H2_2 1_555 1_555
H3_2 C1_2 1_555 1_555
C6_2 N7 1_555 1_555
H12_2 C6_2 1_555 1_555
C7_2 N6 1_555 1_555
N8 Zn4 1_555 1_555
C1_2 C7_2 1_555 1_555
C6_2 C7_2 1_555 1_555
N8 H5_2 1_555 1_555
C5_2 C8_4 1_555 1_555

#END
