
###############################################################################
#
# This file contains modified crystal structure data generated from the
# MOF subset of the Cambridge Structural Database (CSD) v543 
# hosted by the Cambridge Crystallographic Data Centre (CCDC).
#
# This work is licensed under the Creative Commons
# Attribution-NonCommercial-ShareAlike 4.0 International License.
# To view a copy of this license, visit
# http://creativecommons.org/licenses/by-nc-sa/4.0/
# or send a letter to
# Creative Commons, PO Box 1866, Mountain View, CA 94042, USA.
#
# CIF created using the CSD Python API on 29 September 2022
# The structure has been converted into the P1 space group
# The structure has a 3D framework
# The original CSD entry FITFUM is in the monoclinic crystal system
# The original CSD entry FITFUM is in a Sohncke space group
# The framework has been calculated to contain at least 10.0% void space
# The void calculation uses a probe of radius 1.32A, grid spacing 0.4
#
###############################################################################

data_FITFUM
_chemical_formula_moiety         '(C20 H26 N10 O7 Zn2)n'
_symmetry_cell_setting           triclinic
_symmetry_space_group_name_H-M   'P 1'
_symmetry_Int_Tables_number      1
_space_group_name_Hall           'P 1'
loop_
_symmetry_equiv_pos_site_id
_symmetry_equiv_pos_as_xyz
1 x,y,z
_cell_length_a                   9.602(4)
_cell_length_b                   9.035(3)
_cell_length_c                   11.675(6)
_cell_angle_alpha                90
_cell_angle_beta                 112.41(5)
_cell_angle_gamma                90
_cell_volume                     936.363
loop_
_atom_site_label
_atom_site_type_symbol
_atom_site_fract_x
_atom_site_fract_y
_atom_site_fract_z
_atom_site_U_iso_or_equiv
_atom_site_thermal_displace_type
N6 N 0.646(4) 0.218(4) 0.020(3) 0.0770 Uiso
Zn1 Zn 0.6386(5) 0.4156(7) 0.9237(5) 0.0803 Uani
O2 O 0.180(4) 0.657(4) 0.276(3) 0.1190 Uiso
N2 N 0.149(4) 0.518(5) 0.112(4) 0.0970 Uiso
H2 H 0.169282 0.437651 0.082402 0.1160 Uiso
H3 H 0.592969 0.701698 0.023372 0.0990 Uiso
C6 C 0.061(5) 0.637(6) 0.030(4) 0.0960 Uiso
H6 H 0.089432 0.732910 0.071372 0.1150 Uiso
C7 C 0.293(6) 0.426(10) 0.294(5) 0.1400 Uiso
H7 H 0.375044 0.413625 0.266319 0.1680 Uiso
H8 H 0.239297 0.332508 0.282721 0.1680 Uiso
N4 N 0.575(4) 0.359(5) 0.741(4) 0.1190 Uiso
H9 H 0.657476 0.318895 0.734944 0.1430 Uiso
H10 H 0.510509 0.284462 0.728884 0.1430 Uiso
C8 C 0.193(7) 0.537(7) 0.222(6) 0.1200 Uiso
O4 O 0.460(5) 0.264(5) 0.503(4) 0.1650 Uiso
C9 C 0.520(6) 0.439(8) 0.646(5) 0.1320 Uiso
H11 H 0.602440 0.502127 0.648859 0.1590 Uiso
H12 H 0.450125 0.502340 0.664846 0.1590 Uiso
N5 N 0.352(6) 0.463(6) 0.423(5) 0.1490 Uiso
H13 H 0.315085 0.544495 0.437875 0.1790 Uiso
C10 C 0.445(7) 0.407(11) 0.520(6) 0.1450 Uiso
Zn4 Zn 0.3614(5) 0.9156(7) 0.0763(5) 0.0803 Uani
O5 O 0.848(3) 0.478(3) 0.988(2) 0.0890 Uiso
N7 N 0.475(4) 0.539(5) 0.915(3) 0.0860 Uiso
N1 N 0.354(4) 0.718(4) 0.980(3) 0.0770 Uiso
C1 C 0.248(5) 0.617(5) 0.916(4) 0.0760 Uiso
C2 C 0.320(5) 0.510(5) 0.888(4) 0.0780 Uiso
H1 H 0.274080 0.421311 0.852221 0.0940 Uiso
C4 C 0.499(6) 0.659(7) 0.981(4) 0.0830 Uiso
C5 C 0.093(5) 0.634(5) 0.908(4) 0.0860 Uiso
H4 H 0.034172 0.553080 0.857852 0.1040 Uiso
H5 H 0.052817 0.724692 0.863979 0.1040 Uiso
O3 O 0.800(4) 0.719(4) 0.942(3) 0.1170 Uiso
C3 C 0.887(5) 0.617(7) 0.978(4) 0.0950 Uiso
O1 O 0.152(3) 0.978(3) 0.012(2) 0.0890 Uiso
C1_2 C 0.752(5) 0.117(5) 0.084(4) 0.0760 Uiso
C2_2 C 0.680(5) 0.010(5) 0.112(4) 0.0780 Uiso
C4_2 C 0.501(6) 0.159(7) 0.019(4) 0.0830 Uiso
C5_2 C 0.907(5) 0.134(5) 0.092(4) 0.0860 Uiso
H4_2 H 0.965828 0.053080 0.142148 0.1040 Uiso
H5_2 H 0.947183 0.224692 0.136021 0.1040 Uiso
N3 N 0.525(4) 0.039(5) 0.085(3) 0.0860 Uiso
O2_2 O 0.820(4) 0.157(4) 0.724(3) 0.1190 Uiso
N2_2 N 0.851(4) 0.018(5) 0.888(4) 0.0970 Uiso
H3_2 H 0.407031 0.201698 0.976628 0.0990 Uiso
C6_2 C 0.939(5) 0.137(6) 0.970(4) 0.0960 Uiso
H6_2 H 0.910568 0.232910 0.928628 0.1150 Uiso
C8_2 C 0.807(7) 0.037(7) 0.778(6) 0.1200 Uiso
H11_2 H 0.397560 0.002127 0.351141 0.1590 Uiso
H12_2 H 0.549875 0.002340 0.335154 0.1590 Uiso
H13_2 H 0.684915 0.044495 0.562125 0.1790 Uiso
H1_2 H 0.725920 0.921311 0.147779 0.0940 Uiso
H2_2 H 0.830718 0.937651 0.917598 0.1160 Uiso
C7_2 C 0.707(6) 0.926(10) 0.706(5) 0.1400 Uiso
H7_2 H 0.624956 0.913625 0.733681 0.1680 Uiso
H8_2 H 0.760703 0.832508 0.717279 0.1680 Uiso
N4_2 N 0.425(4) 0.859(5) 0.259(4) 0.1190 Uiso
H9_2 H 0.342524 0.818895 0.265056 0.1430 Uiso
H10_2 H 0.489491 0.784462 0.271116 0.1430 Uiso
O4_2 O 0.540(5) 0.764(5) 0.497(4) 0.1650 Uiso
C9_2 C 0.480(6) 0.939(8) 0.354(5) 0.1320 Uiso
N5_2 N 0.648(6) 0.963(6) 0.577(5) 0.1490 Uiso
C10_2 C 0.555(7) 0.907(11) 0.480(6) 0.1450 Uiso
O3_2 O 0.200(4) 0.219(4) 0.058(3) 0.1170 Uiso
C3_2 C 0.113(5) 0.117(7) 0.022(4) 0.0950 Uiso
loop_
_atom_site_aniso_label
_atom_site_aniso_U_11
_atom_site_aniso_U_22
_atom_site_aniso_U_33
_atom_site_aniso_U_23
_atom_site_aniso_U_13
_atom_site_aniso_U_12
Zn1 0.05 0.039 0.166 0 0.057 -0.011
Zn4 0.05 0.039 0.166 0 0.057 0.011
loop_
_geom_bond_atom_site_label_1
_geom_bond_atom_site_label_2
_geom_bond_site_symmetry_1
_geom_bond_site_symmetry_2
Zn1 N4 1_555 1_555
O2 C8 1_555 1_555
N2 H2 1_555 1_555
C6 N2 1_555 1_555
H6 C6 1_555 1_555
C7 H7 1_555 1_555
H8 C7 1_555 1_555
N4 H9 1_555 1_555
H10 N4 1_555 1_555
C8 N2 1_555 1_555
O4 C10 1_555 1_555
C9 N4 1_555 1_555
H11 C9 1_555 1_555
H12 C9 1_555 1_555
N5 C7 1_555 1_555
H13 N5 1_555 1_555
C10 C9 1_555 1_555
O5 Zn1 1_555 1_555
N7 Zn1 1_555 1_555
C7 C8 1_555 1_555
N5 C10 1_555 1_555
N1 C1 1_555 1_555
C1 C2 1_555 1_555
C2 H1 1_555 1_555
C4 N1 1_555 1_555
C5 C1 1_555 1_555
H4 C5 1_555 1_555
H5 C5 1_555 1_555
N7 C2 1_555 1_555
C4 N7 1_555 1_555
O5 C3 1_555 1_555
O3 C3 1_555 1_555
Zn4 O1 1_555 1_555
N6 C1_2 1_555 1_555
C1_2 C2_2 1_555 1_555
C4_2 N6 1_555 1_555
C5_2 C1_2 1_555 1_555
H4_2 C5_2 1_555 1_555
H5_2 C5_2 1_555 1_555
N3 C2_2 1_555 1_555
C4_2 N3 1_555 1_555
O2_2 C8_2 1_555 1_555
C6_2 N2_2 1_555 1_555
H6_2 C6_2 1_555 1_555
C8_2 N2_2 1_555 1_555
Zn4 N4_2 1_555 1_555
C7_2 H7_2 1_555 1_555
H8_2 C7_2 1_555 1_555
N4_2 H9_2 1_555 1_555
H10_2 N4_2 1_555 1_555
O4_2 C10_2 1_555 1_555
C9_2 N4_2 1_555 1_555
N5_2 C7_2 1_555 1_555
C10_2 C9_2 1_555 1_555
N5_2 C10_2 1_555 1_555
O3_2 C3_2 1_555 1_555

#END
