
###############################################################################
#
# This file contains modified crystal structure data generated from the
# MOF subset of the Cambridge Structural Database (CSD) v543 
# hosted by the Cambridge Crystallographic Data Centre (CCDC).
#
# This work is licensed under the Creative Commons
# Attribution-NonCommercial-ShareAlike 4.0 International License.
# To view a copy of this license, visit
# http://creativecommons.org/licenses/by-nc-sa/4.0/
# or send a letter to
# Creative Commons, PO Box 1866, Mountain View, CA 94042, USA.
#
# CIF created using the CSD Python API on 29 September 2022
# The structure has been converted into the P1 space group
# The structure has a 3D framework
# The original CSD entry FITFEW is in the monoclinic crystal system
# The original CSD entry FITFEW is in a Sohncke space group
# The framework has been calculated to contain at least 10.0% void space
# The void calculation uses a probe of radius 1.32A, grid spacing 0.4
#
###############################################################################

data_FITFEW
_chemical_formula_moiety         '(C40 H52 N18 O16 Zn4)n'
_symmetry_cell_setting           triclinic
_symmetry_space_group_name_H-M   'P 1'
_symmetry_Int_Tables_number      1
_space_group_name_Hall           'P 1'
loop_
_symmetry_equiv_pos_site_id
_symmetry_equiv_pos_as_xyz
1 x,y,z
_cell_length_a                   9.6138(10)
_cell_length_b                   9.1020(8)
_cell_length_c                   20.131(3)
_cell_angle_alpha                90
_cell_angle_beta                 99.356(12)
_cell_angle_gamma                90
_cell_volume                     1738.13
loop_
_atom_site_label
_atom_site_type_symbol
_atom_site_fract_x
_atom_site_fract_y
_atom_site_fract_z
Zn7 Zn 0.3117(3) 0.0011(2) 0.95709(14)
N7 N 0.0305(19) 0.0830(18) 0.5361(8)
Zn3 Zn 0.1939(3) 0.2150(2) 0.54268(14)
O1 O 0.1537(17) 0.7008(17) 0.9618(8)
O2 O 0.1561(16) 0.9310(15) 0.9991(8)
C11 C 0.099(2) 0.799(2) 0.9906(11)
Zn2 Zn 0.6883(3) 0.5011(2) 0.04291(14)
O3 O 0.3659(18) 0.1709(18) 0.5085(9)
O4 O 0.982(2) 0.7475(18) 0.1513(9)
O5 O 0.602(2) 0.0543(17) 0.3413(9)
N2 N 0.5951(19) 0.1545(18) 0.4413(9)
H2 H 0.6080 0.2341 0.4645
N3 N 0.745(2) 0.763(2) 0.3586(10)
H3 H 0.7198 0.6808 0.3359
H4 H 0.6706 0.8225 0.3540
O7 O 0.715(3) 0.848(3) 0.2200(11)
C2 C 0.402(2) 0.042(2) 0.4921(11)
O8 O 0.801(3) 0.505(2) 0.2854(10)
N5 N 0.9302(18) 0.8923(17) 0.0600(9)
H6 H 0.9031 0.9777 0.0448
C4 C 0.677(3) 0.301(3) 0.3577(12)
H7 H 0.6206 0.3837 0.3678
H8 H 0.7726 0.3147 0.3811
C5 C 0.551(2) 0.026(2) 0.4747(11)
N6 N 0.677(3) 0.291(2) 0.2838(12)
H10 H 0.6315 0.2230 0.2598
C7 C 0.802(2) 0.006(2) 0.5362(9)
C8 C 0.959(3) 0.777(2) 0.0121(11)
H13 H 0.9582 0.6811 0.0343
C10 C 0.653(2) 0.001(3) 0.5432(10)
H14 H 0.6350 0.0749 0.5752
C12 C 0.617(3) 0.160(3) 0.3803(14)
C13 C 0.899(2) 0.114(2) 0.5546(11)
H16 H 0.8806 0.1988 0.5772
N9 N 0.741(2) 0.511(2) 0.1424(10)
H17 H 0.8285 0.5464 0.1514
H18 H 0.6850 0.5765 0.1573
C14 C 0.823(4) 0.880(3) 0.2576(15)
C15 C 0.857(3) 0.832(4) 0.3313(14)
H19 H 0.9360 0.7652 0.3360
H20 H 0.8863 0.9185 0.3582
N10 N 0.928(3) 0.965(3) 0.2383(11)
H21 H 0.9981 0.9944 0.2674
C16 C 0.945(3) 0.868(3) 0.1249(13)
C17 C 0.509(3) 0.749(3) 0.0026(14)
H22 H 0.4439 0.7047 0.0259
C19 C 0.749(4) 0.394(3) 0.2560(16)
C20 C 0.737(4) 0.382(3) 0.1808(15)
H25 H 0.8125 0.3185 0.1713
H26 H 0.6491 0.3323 0.1642
Zn5 Zn 0.8061(3) 0.7150(2) 0.45732(14)
O9 O 0.8439(16) 0.4310(15) 0.0009(8)
N11 N 0.128(2) 0.3997(19) 0.4974(8)
N12 N 0.255(2) 0.263(2) 0.6414(10)
N13 N 0.519(2) 0.383(2) 0.0325(10)
N4 N 0.481(2) 0.883(2) 0.9675(10)
C3 C 0.610(2) 0.903(2) 0.9446(12)
H5 H 0.6303 0.9827 0.9190
C6 C 0.842(2) 0.778(2) 0.9503(11)
H11 H 0.8624 0.8562 0.9207
H12 H 0.8474 0.6859 0.9263
N8 N 0.6321(19) 0.6935(19) 0.9997(9)
C9 C 0.699(2) 0.796(2) 0.9631(11)
N1 N 0.872(2) 0.8997(19) 0.5026(8)
O6 O 0.3266(18) 0.9325(18) 0.4916(11)
H9 H 0.5536 0.9398 0.4457
H15 H 0.6332 0.9055 0.5613
C3_2 C 0.390(2) 0.403(2) 0.0554(12)
H5_2 H 0.3697 0.4827 0.0810
C6_2 C 0.158(2) 0.278(2) 0.0497(11)
H11_2 H 0.1376 0.3562 0.0793
H12_2 H 0.1526 0.1859 0.0737
N8_2 N 0.3679(19) 0.1935(19) 0.0003(9)
C9_2 C 0.301(2) 0.296(2) 0.0369(11)
O4_2 O 0.018(2) 0.2475(18) 0.8487(9)
H3_2 H 0.2802 0.1808 0.6641
H4_2 H 0.3294 0.3225 0.6460
O7_2 O 0.285(3) 0.348(3) 0.7800(11)
O8_2 O 0.199(3) 0.005(2) 0.7146(10)
N5_2 N 0.0698(18) 0.3923(17) 0.9400(9)
H6_2 H 0.0969 0.4777 0.9552
C8_2 C 0.041(3) 0.277(2) 0.9879(11)
H13_2 H 0.0418 0.1811 0.9657
N9_2 N 0.259(2) 0.011(2) 0.8576(10)
H17_2 H 0.1715 0.0464 0.8486
H18_2 H 0.3150 0.0765 0.8427
C14_2 C 0.177(4) 0.380(3) 0.7424(15)
C15_2 C 0.143(3) 0.332(4) 0.6687(14)
H19_2 H 0.0640 0.2652 0.6640
H20_2 H 0.1137 0.4185 0.6418
N10_2 N 0.072(3) 0.465(3) 0.7617(11)
H21_2 H 0.0019 0.4944 0.7326
C16_2 C 0.055(3) 0.368(3) 0.8751(13)
C17_2 C 0.491(3) 0.249(3) 0.9974(14)
H22_2 H 0.5561 0.2047 0.9741
C18 C 0.082(4) 0.504(3) 0.8309(13)
H23 H 0.0139 0.5798 0.8355
H24 H 0.1754 0.5426 0.8470
O3_2 O 0.6341(18) 0.6709(18) 0.4915(9)
O5_2 O 0.398(2) 0.5543(17) 0.6587(9)
O6_2 O 0.6734(18) 0.4325(18) 0.5084(11)
N2_2 N 0.4049(19) 0.6545(18) 0.5587(9)
H2_2 H 0.3920 0.7341 0.5355
C2_2 C 0.598(2) 0.542(2) 0.5079(11)
C4_2 C 0.323(3) 0.801(3) 0.6423(12)
H7_2 H 0.3794 0.8837 0.6322
H8_2 H 0.2274 0.8147 0.6189
C5_2 C 0.449(2) 0.526(2) 0.5253(11)
H9_2 H 0.4464 0.4398 0.5543
N6_2 N 0.323(3) 0.791(2) 0.7162(12)
H10_2 H 0.3685 0.7230 0.7402
C7_2 C 0.198(2) 0.506(2) 0.4638(9)
C10_2 C 0.347(2) 0.501(3) 0.4568(10)
H14_2 H 0.3650 0.5749 0.4248
H15_2 H 0.3668 0.4055 0.4387
C12_2 C 0.383(3) 0.660(3) 0.6197(14)
C13_2 C 0.101(2) 0.614(2) 0.4454(11)
H16_2 H 0.1194 0.6988 0.4228
C19_2 C 0.251(4) 0.894(3) 0.7440(16)
C20_2 C 0.263(4) 0.882(3) 0.8192(15)
H25_2 H 0.1875 0.8185 0.8287
H26_2 H 0.3509 0.8323 0.8358
N14 N 0.9695(19) 0.5830(18) 0.4639(8)
O1_2 O 0.8463(17) 0.2008(17) 0.0382(8)
C11_2 C 0.901(2) 0.299(2) 0.0094(11)
C1 C 0.997(3) 0.448(3) 0.4964(13)
H1 H 0.9297 0.3969 0.5157
C1_2 C 0.003(3) 0.948(3) 0.5036(13)
H1_2 H 0.0703 0.8969 0.4843
C18_2 C 0.918(4) 0.004(3) 0.1691(13)
H23_2 H 0.9861 0.0798 0.1645
H24_2 H 0.8246 0.0426 0.1530
loop_
_geom_bond_atom_site_label_1
_geom_bond_atom_site_label_2
_geom_bond_site_symmetry_1
_geom_bond_site_symmetry_2
Zn3 N7 1_555 1_555
O1 C11 1_555 1_555
O2 C11 1_555 1_555
Zn3 O3 1_555 1_555
O3 C2 1_555 1_555
O4 C16 1_555 1_555
O5 C12 1_555 1_555
N2 H2 1_555 1_555
N3 H3 1_555 1_555
H4 N3 1_555 1_555
O7 C14 1_555 1_555
C2 C5 1_555 1_555
O8 C19 1_555 1_555
N5 H6 1_555 1_555
C4 H7 1_555 1_555
H8 C4 1_555 1_555
C5 N2 1_555 1_555
N6 C4 1_555 1_555
H10 N6 1_555 1_555
C8 N5 1_555 1_555
H13 C8 1_555 1_555
C10 C5 1_555 1_555
H14 C10 1_555 1_555
C12 N2 1_555 1_555
H16 C13 1_555 1_555
N9 Zn2 1_555 1_555
H17 N9 1_555 1_555
H18 N9 1_555 1_555
C14 C15 1_555 1_555
C15 N3 1_555 1_555
H19 C15 1_555 1_555
H20 C15 1_555 1_555
N10 C14 1_555 1_555
H21 N10 1_555 1_555
C16 N5 1_555 1_555
H22 C17 1_555 1_555
C19 N6 1_555 1_555
C20 N9 1_555 1_555
H25 C20 1_555 1_555
H26 C20 1_555 1_555
Zn5 N3 1_555 1_555
O9 Zn2 1_555 1_555
N11 Zn3 1_555 1_555
N12 Zn3 1_555 1_555
N13 Zn2 1_555 1_555
C4 C12 1_555 1_555
C7 C10 1_555 1_555
C7 C13 1_555 1_555
C19 C20 1_555 1_555
N4 C3 1_555 1_555
C3 H5 1_555 1_555
C6 H11 1_555 1_555
H12 C6 1_555 1_555
N8 C9 1_555 1_555
C9 C3 1_555 1_555
C6 C9 1_555 1_555
Zn5 N1 1_555 1_555
N13 C3_2 1_555 1_555
C3_2 H5_2 1_555 1_555
C6_2 H11_2 1_555 1_555
H12_2 C6_2 1_555 1_555
N8_2 C9_2 1_555 1_555
C9_2 C3_2 1_555 1_555
C6_2 C9_2 1_555 1_555
O4_2 C16_2 1_555 1_555
N12 H3_2 1_555 1_555
H4_2 N12 1_555 1_555
O7_2 C14_2 1_555 1_555
N5_2 H6_2 1_555 1_555
C8_2 N5_2 1_555 1_555
H13_2 C8_2 1_555 1_555
N9_2 Zn7 1_555 1_555
H17_2 N9_2 1_555 1_555
H18_2 N9_2 1_555 1_555
C14_2 C15_2 1_555 1_555
C15_2 N12 1_555 1_555
H19_2 C15_2 1_555 1_555
H20_2 C15_2 1_555 1_555
N10_2 C14_2 1_555 1_555
H21_2 N10_2 1_555 1_555
C16_2 N5_2 1_555 1_555
H22_2 C17_2 1_555 1_555
C18 N10_2 1_555 1_555
H23 C18 1_555 1_555
H24 C18 1_555 1_555
C16_2 C18 1_555 1_555
Zn5 O3_2 1_555 1_555
O3_2 C2_2 1_555 1_555
O5_2 C12_2 1_555 1_555
O6_2 C2_2 1_555 1_555
N2_2 H2_2 1_555 1_555
C2_2 C5_2 1_555 1_555
C4_2 H7_2 1_555 1_555
H8_2 C4_2 1_555 1_555
C5_2 N2_2 1_555 1_555
H9_2 C5_2 1_555 1_555
N6_2 C4_2 1_555 1_555
H10_2 N6_2 1_555 1_555
C7_2 N11 1_555 1_555
C10_2 C5_2 1_555 1_555
H14_2 C10_2 1_555 1_555
H15_2 C10_2 1_555 1_555
C12_2 N2_2 1_555 1_555
H16_2 C13_2 1_555 1_555
C19_2 N6_2 1_555 1_555
H25_2 C20_2 1_555 1_555
H26_2 C20_2 1_555 1_555
N14 Zn5 1_555 1_555
C4_2 C12_2 1_555 1_555
C7_2 C10_2 1_555 1_555
C7_2 C13_2 1_555 1_555
C19_2 C20_2 1_555 1_555
O1_2 C11_2 1_555 1_555
O9 C11_2 1_555 1_555
C1 H1 1_555 1_555
N14 C1 1_555 1_555
C1_2 H1_2 1_555 1_555
H23_2 C18_2 1_555 1_555
H24_2 C18_2 1_555 1_555

#END
