
###############################################################################
#
# This file contains modified crystal structure data generated from the
# MOF subset of the Cambridge Structural Database (CSD) v543 
# hosted by the Cambridge Crystallographic Data Centre (CCDC).
#
# This work is licensed under the Creative Commons
# Attribution-NonCommercial-ShareAlike 4.0 International License.
# To view a copy of this license, visit
# http://creativecommons.org/licenses/by-nc-sa/4.0/
# or send a letter to
# Creative Commons, PO Box 1866, Mountain View, CA 94042, USA.
#
# CIF created using the CSD Python API on 29 September 2022
# The structure has been converted into the P1 space group
# The structure has a 3D framework
# The original CSD entry FITGIA is in the monoclinic crystal system
# The framework has been calculated to contain at least 10.0% void space
# The void calculation uses a probe of radius 1.32A, grid spacing 0.4
#
###############################################################################

data_FITGIA
_chemical_formula_moiety         '(C108 H104 Co8 N12 O44)n'
_symmetry_cell_setting           triclinic
_symmetry_space_group_name_H-M   'P 1'
_symmetry_Int_Tables_number      1
_space_group_name_Hall           'P 1'
loop_
_symmetry_equiv_pos_site_id
_symmetry_equiv_pos_as_xyz
1 x,y,z
_cell_length_a                   11.4980(5)
_cell_length_b                   11.5593(4)
_cell_length_c                   22.7562(9)
_cell_angle_alpha                90
_cell_angle_beta                 102.0870(10)
_cell_angle_gamma                90
_cell_volume                     2957.45
loop_
_atom_site_label
_atom_site_type_symbol
_atom_site_fract_x
_atom_site_fract_y
_atom_site_fract_z
N2 N 0.22675(18) 0.18965(17) 0.44566(9)
C19 C 0.0227(2) 0.2281(2) 0.39927(12)
C20 C 0.1437(2) 0.2337(2) 0.40075(11)
H20 H 0.1687 0.2698 0.3690
C21 C 0.1864(2) 0.1372(2) 0.49066(11)
H21 H 0.2416 0.1028 0.5215
C22 C 0.0677(2) 0.1320(2) 0.49322(11)
H22 H 0.0449 0.0987 0.5263
C26 C 0.0384(3) 0.0399(4) 0.08109(15)
H25 H 0.1210 0.0379 0.0879
H26 H 0.0293 0.0832 0.1648
Co5 Co 0.41960(3) 0.19305(3) 0.448145(14)
H31 H 0.5396 0.0299 0.5639
O24 O 0.31916(16) 0.07248(14) 0.85369(7)
O26 O 0.12040(15) 0.04459(15) 0.75281(8)
H28 H 0.1985 0.9887 0.0199
Co6 Co 0.58040(3) 0.69305(3) 0.051855(14)
N4 N 0.13391(19) 0.92982(18) 0.87913(10)
C28 C 0.1988(2) 0.9470(2) 0.93406(11)
H27 H 0.2809 0.9396 0.9401
C29 C 0.1498(2) 0.9754(2) 0.98246(11)
C30 C 0.0285(2) 0.9837(2) 0.97486(11)
C32 C 0.0176(3) 0.9333(4) 0.87280(15)
Co3 Co 0.58040(3) 0.80695(3) 0.551855(14)
Co4 Co 0.22052(3) 0.92887(3) 0.808562(14)
O12 O 0.60772(15) 0.75166(13) 0.64225(7)
O13 O 0.68084(16) 0.57248(14) 0.64631(7)
O14 O 0.87960(15) 0.54459(15) 0.74719(8)
O15 O 0.89630(17) 0.72933(15) 0.77307(9)
O16 O 0.60481(16) 0.84200(14) 0.92545(7)
O17 O 0.55113(14) 0.67030(13) 0.95633(7)
O18 O 0.34373(16) 0.79094(14) 0.85723(8)
O19 O 0.35657(15) 0.86998(14) 0.77101(7)
O20 O 0.59397(16) 0.97897(14) 0.57126(8)
H32 H 0.5815 0.9672 0.6063
O21 O 0.54984(16) 0.62805(14) 0.53292(7)
H33 H 0.6044 0.5984 0.5597
H34 H 0.5939 0.6192 0.5076
O22 O 0.11612(16) 0.79342(15) 0.76072(8)
H35 H 0.0451 0.7704 0.7583
H36 H 0.1507 0.7514 0.7389
N5 N 0.39106(18) 0.82489(16) 0.55091(9)
C33 C 0.6091(2) 0.6409(2) 0.73193(10)
H37 H 0.5621 0.5699 0.7303
C34 C 0.7195(2) 0.62657(19) 0.78581(10)
H38 H 0.7151 0.5487 0.8023
C35 C 0.7054(2) 0.71430(19) 0.83595(10)
H39 H 0.7738 0.7100 0.8697
C36 C 0.5884(2) 0.6808(2) 0.85664(10)
H40 H 0.5906 0.5969 0.8631
C37 C 0.4820(2) 0.70607(19) 0.80264(10)
H41 H 0.4389 0.6331 0.7931
C38 C 0.5308(2) 0.7399(2) 0.74673(10)
H42 H 0.4651 0.7548 0.7125
C39 C 0.6050(2) 0.8468(2) 0.76212(11)
H43 H 0.5900 0.9156 0.7407
C40 C 0.6940(2) 0.8339(2) 0.80916(11)
H44 H 0.7453 0.8939 0.8244
C41 C 0.6363(2) 0.6574(2) 0.66961(10)
C42 C 0.8402(2) 0.6365(2) 0.76740(11)
C43 C 0.5793(2) 0.7374(2) 0.91675(10)
C44 C 0.3916(2) 0.7957(2) 0.81206(11)
C45 C 0.3523(2) 0.8501(2) 0.60147(11)
H45 H 0.4084 0.8685 0.6360
C46 C 0.2336(2) 0.8501(2) 0.60465(11)
H46 H 0.2113 0.8648 0.6409
C47 C 0.1470(2) 0.8277(2) 0.55266(11)
C48 C 0.1867(2) 0.8083(2) 0.49986(11)
H47 H 0.1323 0.7976 0.4638
C49 C 0.3079(2) 0.8049(2) 0.50114(11)
H48 H 0.3326 0.7879 0.4657
C50 C 0.0181(2) 0.8232(2) 0.55372(11)
H49 H 0.0312 0.7413 0.6333
Co10 Co 0.77948(3) 0.42887(3) 0.691438(14)
O27 O 0.55113(14) 0.82970(13) 0.45633(7)
N8 N 0.77325(18) 0.81035(17) 0.55434(9)
Co2 Co 0.77948(3) 0.07113(3) 0.191438(14)
O1 O 0.39228(15) 0.24834(13) 0.35775(7)
O2 O 0.31916(16) 0.42752(14) 0.35369(7)
O3 O 0.12040(15) 0.45541(15) 0.25281(8)
O4 O 0.10370(17) 0.27067(15) 0.22693(9)
O5 O 0.39519(16) 0.15800(14) 0.07455(7)
O6 O 0.44887(14) 0.32970(13) 0.04367(7)
O7 O 0.65627(16) 0.20906(14) 0.14277(8)
O8 O 0.64343(15) 0.13002(14) 0.22899(7)
O9 O 0.40603(16) 0.02103(14) 0.42874(8)
H2 H 0.4185 0.0328 0.3937
O10 O 0.45016(16) 0.37195(14) 0.46708(7)
H3 H 0.3956 0.4016 0.4403
H4 H 0.4061 0.3808 0.4924
O11 O 0.88388(16) 0.20658(15) 0.23928(8)
H5 H 0.9549 0.2296 0.2417
H6 H 0.8493 0.2486 0.2611
N1 N 0.60894(18) 0.17511(16) 0.44909(9)
N3 N 0.86609(19) 0.07018(18) 0.12087(10)
C1 C 0.3909(2) 0.3591(2) 0.26807(10)
H7 H 0.4379 0.4301 0.2697
C2 C 0.2805(2) 0.37343(19) 0.21419(10)
H8 H 0.2849 0.4513 0.1977
C3 C 0.2946(2) 0.28570(19) 0.16405(10)
H9 H 0.2262 0.2900 0.1303
C4 C 0.4116(2) 0.3192(2) 0.14336(10)
H10 H 0.4094 0.4031 0.1369
C5 C 0.5180(2) 0.29393(19) 0.19736(10)
H11 H 0.5611 0.3669 0.2069
C6 C 0.4692(2) 0.2601(2) 0.25327(10)
H12 H 0.5349 0.2452 0.2875
C7 C 0.3950(2) 0.1532(2) 0.23788(11)
H13 H 0.4100 0.0844 0.2593
C8 C 0.3060(2) 0.1661(2) 0.19084(11)
H14 H 0.2547 0.1061 0.1756
C9 C 0.3637(2) 0.3426(2) 0.33039(10)
C10 C 0.1598(2) 0.3635(2) 0.23260(11)
C11 C 0.4207(2) 0.2626(2) 0.08325(10)
C12 C 0.6084(2) 0.2043(2) 0.18794(11)
C13 C 0.6477(2) 0.1499(2) 0.39853(11)
H15 H 0.5916 0.1315 0.3640
C14 C 0.7664(2) 0.1499(2) 0.39535(11)
H16 H 0.7887 0.1352 0.3591
C15 C 0.8530(2) 0.1723(2) 0.44734(11)
C16 C 0.8133(2) 0.1917(2) 0.50014(11)
H17 H 0.8677 0.2024 0.5362
C17 C 0.6921(2) 0.1951(2) 0.49886(11)
H18 H 0.6674 0.2121 0.5343
C18 C 0.9819(2) 0.1768(2) 0.44628(11)
H19 H 0.9688 0.2587 0.3667
C23 C 0.8012(2) 0.0530(2) 0.06594(11)
H23 H 0.7191 0.0604 0.0599
C24 C 0.8502(2) 0.0246(2) 0.01754(11)
C25 C 0.9715(2) 0.0163(2) 0.02514(11)
C27 C 0.9824(3) 0.0667(4) 0.12720(15)
Co9 Co 0.22052(3) 0.57113(3) 0.308562(14)
O28 O 0.44887(14) 0.17030(13) 0.54367(7)
H24 H 0.8015 0.0113 0.9801
Co8 Co 0.41960(3) 0.30695(3) 0.948145(14)
H1 H 0.4604 0.9701 0.4361
O23 O 0.68084(16) 0.92752(14) 0.14631(7)
O25 O 0.87960(15) 0.95541(15) 0.24719(8)
C31 C 0.9616(3) 0.9601(4) 0.91891(15)
H29 H 0.8790 0.9621 0.9121
H30 H 0.9707 0.9168 0.8352
C51 C 0.9773(2) 0.7719(2) 0.60073(12)
C52 C 0.8563(2) 0.7663(2) 0.59925(11)
H50 H 0.8313 0.7302 0.6310
C53 C 0.8136(2) 0.8628(2) 0.50934(11)
H51 H 0.7584 0.8972 0.4785
C54 C 0.9323(2) 0.8680(2) 0.50678(11)
H52 H 0.9551 0.9013 0.4737
O1_2 O 0.60772(15) 0.74834(13) 0.14225(7)
O4_2 O 0.89630(17) 0.77067(15) 0.27307(9)
O5_2 O 0.60481(16) 0.65800(14) 0.42545(7)
O7_2 O 0.34373(16) 0.70906(14) 0.35723(8)
O8_2 O 0.35657(15) 0.63002(14) 0.27101(7)
O9_2 O 0.59397(16) 0.52103(14) 0.07126(8)
H1_2 H 0.5396 0.4701 0.0639
H2_2 H 0.5815 0.5328 0.1063
O10_2 O 0.54984(16) 0.87195(14) 0.03292(7)
H3_2 H 0.6044 0.9016 0.0597
H4_2 H 0.5939 0.8808 0.0076
O11_2 O 0.11612(16) 0.70658(15) 0.26072(8)
H5_2 H 0.0451 0.7296 0.2583
H6_2 H 0.1507 0.7486 0.2389
N1_2 N 0.39106(18) 0.67511(16) 0.05091(9)
N3_2 N 0.13391(19) 0.57018(18) 0.37913(10)
C1_2 C 0.6091(2) 0.8591(2) 0.23193(10)
H7_2 H 0.5621 0.9301 0.2303
C2_2 C 0.7195(2) 0.87343(19) 0.28581(10)
H8_2 H 0.7151 0.9513 0.3023
C3_2 C 0.7054(2) 0.78570(19) 0.33595(10)
H9_2 H 0.7738 0.7900 0.3697
C4_2 C 0.5884(2) 0.8192(2) 0.35664(10)
H10_2 H 0.5906 0.9031 0.3631
C5_2 C 0.4820(2) 0.79393(19) 0.30264(10)
H11_2 H 0.4389 0.8669 0.2931
C6_2 C 0.5308(2) 0.7601(2) 0.24673(10)
H12_2 H 0.4651 0.7452 0.2125
C7_2 C 0.6050(2) 0.6532(2) 0.26212(11)
H13_2 H 0.5900 0.5844 0.2407
C8_2 C 0.6940(2) 0.6661(2) 0.30916(11)
H14_2 H 0.7453 0.6061 0.3244
C9_2 C 0.6363(2) 0.8426(2) 0.16961(10)
C10_2 C 0.8402(2) 0.8635(2) 0.26740(11)
C11_2 C 0.5793(2) 0.7626(2) 0.41675(10)
C12_2 C 0.3916(2) 0.7043(2) 0.31206(11)
C13_2 C 0.3523(2) 0.6499(2) 0.10147(11)
H15_2 H 0.4084 0.6315 0.1360
C14_2 C 0.2336(2) 0.6499(2) 0.10465(11)
H16_2 H 0.2113 0.6352 0.1409
C15_2 C 0.1470(2) 0.6723(2) 0.05266(11)
C17_2 C 0.3079(2) 0.6951(2) 0.00114(11)
C18_2 C 0.0181(2) 0.6768(2) 0.05372(11)
H19_2 H 0.0312 0.7587 0.1333
C23_2 C 0.1988(2) 0.5530(2) 0.43406(11)
H23_2 H 0.2809 0.5604 0.4401
C24_2 C 0.1498(2) 0.5246(2) 0.48246(11)
H24_2 H 0.1985 0.5113 0.5199
C25_2 C 0.0285(2) 0.5163(2) 0.47486(11)
C27_2 C 0.0176(3) 0.5667(4) 0.37280(15)
C31_2 C 0.0384(3) 0.4601(4) 0.58109(15)
H29_2 H 0.1210 0.4621 0.5879
H30_2 H 0.0293 0.4168 0.6648
N6 N 0.22675(18) 0.31035(17) 0.94566(9)
C51_2 C 0.0227(2) 0.2719(2) 0.89927(12)
C52_2 C 0.1437(2) 0.2663(2) 0.90075(11)
H50_2 H 0.1687 0.2302 0.8690
C53_2 C 0.1864(2) 0.3628(2) 0.99066(11)
C54_2 C 0.0677(2) 0.3680(2) 0.99322(11)
N7 N 0.77325(18) 0.68965(17) 0.05434(9)
C16_2 C 0.1867(2) 0.6917(2) 0.99986(11)
H17_2 H 0.1323 0.7024 0.9638
H18_2 H 0.3326 0.7121 0.9657
C48_2 C 0.8133(2) 0.3083(2) 0.00014(11)
H47_2 H 0.8677 0.2976 0.0362
H48_2 H 0.6674 0.2879 0.0343
C19_2 C 0.9773(2) 0.7281(2) 0.10073(12)
C20_2 C 0.8563(2) 0.7337(2) 0.09925(11)
H20_2 H 0.8313 0.7698 0.1310
C21_2 C 0.8136(2) 0.6372(2) 0.00934(11)
C22_2 C 0.9323(2) 0.6320(2) 0.00678(11)
C26_2 C 0.9616(3) 0.5399(4) 0.41891(15)
H25_2 H 0.8790 0.5379 0.4121
H26_2 H 0.9707 0.5832 0.3352
N4_2 N 0.86609(19) 0.42982(18) 0.62087(10)
C28_2 C 0.8012(2) 0.4470(2) 0.56594(11)
H27_2 H 0.7191 0.4396 0.5599
C29_2 C 0.8502(2) 0.4754(2) 0.51754(11)
H28_2 H 0.8015 0.4887 0.4801
C30_2 C 0.9715(2) 0.4837(2) 0.52514(11)
C32_2 C 0.9824(3) 0.4333(4) 0.62720(15)
O12_2 O 0.39228(15) 0.25166(13) 0.85775(7)
O15_2 O 0.10370(17) 0.22933(15) 0.72693(9)
O16_2 O 0.39519(16) 0.34200(14) 0.57455(7)
O18_2 O 0.65627(16) 0.29094(14) 0.64277(8)
O19_2 O 0.64343(15) 0.36998(14) 0.72899(7)
O20_2 O 0.40603(16) 0.47897(14) 0.92874(8)
H31_2 H 0.4604 0.5299 0.9361
H32_2 H 0.4185 0.4672 0.8937
O21_2 O 0.45016(16) 0.12805(14) 0.96708(7)
H33_2 H 0.3956 0.0984 0.9403
H34_2 H 0.4061 0.1192 0.9924
O22_2 O 0.88388(16) 0.29342(15) 0.73928(8)
H35_2 H 0.9549 0.2704 0.7417
H36_2 H 0.8493 0.2514 0.7611
N5_2 N 0.60894(18) 0.32489(16) 0.94909(9)
C33_2 C 0.3909(2) 0.1409(2) 0.76807(10)
H37_2 H 0.4379 0.0699 0.7697
C34_2 C 0.2805(2) 0.12657(19) 0.71419(10)
H38_2 H 0.2849 0.0487 0.6977
C35_2 C 0.2946(2) 0.21430(19) 0.66405(10)
H39_2 H 0.2262 0.2100 0.6303
C36_2 C 0.4116(2) 0.1808(2) 0.64336(10)
H40_2 H 0.4094 0.0969 0.6369
C37_2 C 0.5180(2) 0.20607(19) 0.69736(10)
H41_2 H 0.5611 0.1331 0.7069
C38_2 C 0.4692(2) 0.2399(2) 0.75327(10)
H42_2 H 0.5349 0.2548 0.7875
C39_2 C 0.3950(2) 0.3468(2) 0.73788(11)
H43_2 H 0.4100 0.4156 0.7593
C40_2 C 0.3060(2) 0.3339(2) 0.69084(11)
H44_2 H 0.2547 0.3939 0.6756
C41_2 C 0.3637(2) 0.1574(2) 0.83039(10)
C42_2 C 0.1598(2) 0.1365(2) 0.73260(11)
C43_2 C 0.4207(2) 0.2374(2) 0.58325(10)
C44_2 C 0.6084(2) 0.2957(2) 0.68794(11)
C45_2 C 0.6477(2) 0.3501(2) 0.89853(11)
H45_2 H 0.5916 0.3685 0.8640
C46_2 C 0.7664(2) 0.3501(2) 0.89535(11)
H46_2 H 0.7887 0.3648 0.8591
C47_2 C 0.8530(2) 0.3277(2) 0.94734(11)
C49_2 C 0.6921(2) 0.3049(2) 0.99886(11)
C50_2 C 0.9819(2) 0.3232(2) 0.94628(11)
H49_2 H 0.9688 0.2413 0.8667
H51_2 H 0.2416 0.3972 0.0215
H52_2 H 0.0449 0.4013 0.0263
H21_2 H 0.7584 0.6028 0.9785
H22_2 H 0.9551 0.5987 0.9737
loop_
_geom_bond_atom_site_label_1
_geom_bond_atom_site_label_2
_geom_bond_site_symmetry_1
_geom_bond_site_symmetry_2
N2 C20 1_555 1_555
C20 C19 1_555 1_555
H20 C20 1_555 1_555
C21 N2 1_555 1_555
H21 C21 1_555 1_555
H22 C22 1_555 1_555
H25 C26 1_555 1_555
Co5 N2 1_555 1_555
C21 C22 1_555 1_555
N4 C28 1_555 1_555
C28 H27 1_555 1_555
C29 C28 1_555 1_555
C32 N4 1_555 1_555
Co3 O12 1_555 1_555
Co4 N4 1_555 1_555
O12 C41 1_555 1_555
O13 C41 1_555 1_555
O14 C42 1_555 1_555
O15 C42 1_555 1_555
O16 C43 1_555 1_555
O17 C43 1_555 1_555
O18 Co4 1_555 1_555
O19 Co4 1_555 1_555
O20 Co3 1_555 1_555
H32 O20 1_555 1_555
O21 Co3 1_555 1_555
H33 O21 1_555 1_555
H34 O21 1_555 1_555
O22 Co4 1_555 1_555
H35 O22 1_555 1_555
H36 O22 1_555 1_555
N5 Co3 1_555 1_555
C33 H37 1_555 1_555
C34 C33 1_555 1_555
H38 C34 1_555 1_555
C35 C34 1_555 1_555
H39 C35 1_555 1_555
C36 C35 1_555 1_555
H40 C36 1_555 1_555
C37 C36 1_555 1_555
H41 C37 1_555 1_555
C38 C33 1_555 1_555
H42 C38 1_555 1_555
C39 C38 1_555 1_555
H43 C39 1_555 1_555
C40 C35 1_555 1_555
H44 C40 1_555 1_555
C41 C33 1_555 1_555
C42 C34 1_555 1_555
C43 C36 1_555 1_555
C44 O18 1_555 1_555
C45 N5 1_555 1_555
H45 C45 1_555 1_555
C46 C45 1_555 1_555
H46 C46 1_555 1_555
C47 C46 1_555 1_555
C48 C47 1_555 1_555
H47 C48 1_555 1_555
C49 N5 1_555 1_555
H48 C49 1_555 1_555
C50 C47 1_555 1_555
Co10 O13 1_555 1_555
O27 Co3 1_555 1_555
N8 Co3 1_555 1_555
C29 C30 1_555 1_555
O14 Co10 1_555 1_555
O19 C44 1_555 1_555
C37 C38 1_555 1_555
C37 C44 1_555 1_555
C39 C40 1_555 1_555
C48 C49 1_555 1_555
Co5 O1 1_555 1_555
Co2 O7 1_555 1_555
O1 C9 1_555 1_555
O2 C9 1_555 1_555
O3 C10 1_555 1_555
O4 C10 1_555 1_555
O5 C11 1_555 1_555
O6 C11 1_555 1_555
O7 C12 1_555 1_555
O8 Co2 1_555 1_555
O9 Co5 1_555 1_555
H2 O9 1_555 1_555
O10 Co5 1_555 1_555
H3 O10 1_555 1_555
H4 O10 1_555 1_555
O11 Co2 1_555 1_555
H5 O11 1_555 1_555
H6 O11 1_555 1_555
N1 Co5 1_555 1_555
N3 Co2 1_555 1_555
C1 H7 1_555 1_555
C2 C1 1_555 1_555
H8 C2 1_555 1_555
C3 C2 1_555 1_555
H9 C3 1_555 1_555
C4 C3 1_555 1_555
H10 C4 1_555 1_555
C5 C4 1_555 1_555
H11 C5 1_555 1_555
C6 C1 1_555 1_555
H12 C6 1_555 1_555
C7 C6 1_555 1_555
H13 C7 1_555 1_555
C8 C3 1_555 1_555
H14 C8 1_555 1_555
C9 C1 1_555 1_555
C10 C2 1_555 1_555
C11 C4 1_555 1_555
C12 O8 1_555 1_555
C13 N1 1_555 1_555
H15 C13 1_555 1_555
C14 C13 1_555 1_555
H16 C14 1_555 1_555
C15 C14 1_555 1_555
C16 C15 1_555 1_555
H17 C16 1_555 1_555
C17 N1 1_555 1_555
H18 C17 1_555 1_555
C18 C15 1_555 1_555
C23 N3 1_555 1_555
H23 C23 1_555 1_555
C24 C23 1_555 1_555
C25 C24 1_555 1_555
C27 N3 1_555 1_555
Co9 O2 1_555 1_555
O28 Co5 1_555 1_555
O3 Co9 1_555 1_555
C5 C6 1_555 1_555
C5 C12 1_555 1_555
C7 C8 1_555 1_555
C16 C17 1_555 1_555
H29 C31 1_555 1_555
N8 C52 1_555 1_555
C52 C51 1_555 1_555
H50 C52 1_555 1_555
C53 N8 1_555 1_555
H51 C53 1_555 1_555
H52 C54 1_555 1_555
C53 C54 1_555 1_555
Co6 O1_2 1_555 1_555
Co9 O7_2 1_555 1_555
O1_2 C9_2 1_555 1_555
O23 C9_2 1_555 1_555
O25 C10_2 1_555 1_555
O4_2 C10_2 1_555 1_555
O5_2 C11_2 1_555 1_555
O27 C11_2 1_555 1_555
O7_2 C12_2 1_555 1_555
O8_2 Co9 1_555 1_555
O9_2 Co6 1_555 1_555
H1_2 O9_2 1_555 1_555
H2_2 O9_2 1_555 1_555
O10_2 Co6 1_555 1_555
H3_2 O10_2 1_555 1_555
H4_2 O10_2 1_555 1_555
O11_2 Co9 1_555 1_555
H5_2 O11_2 1_555 1_555
H6_2 O11_2 1_555 1_555
N1_2 Co6 1_555 1_555
N3_2 Co9 1_555 1_555
C1_2 H7_2 1_555 1_555
C2_2 C1_2 1_555 1_555
H8_2 C2_2 1_555 1_555
C3_2 C2_2 1_555 1_555
H9_2 C3_2 1_555 1_555
C4_2 C3_2 1_555 1_555
H10_2 C4_2 1_555 1_555
C5_2 C4_2 1_555 1_555
H11_2 C5_2 1_555 1_555
C6_2 C1_2 1_555 1_555
H12_2 C6_2 1_555 1_555
C7_2 C6_2 1_555 1_555
H13_2 C7_2 1_555 1_555
C8_2 C3_2 1_555 1_555
H14_2 C8_2 1_555 1_555
C9_2 C1_2 1_555 1_555
C10_2 C2_2 1_555 1_555
C11_2 C4_2 1_555 1_555
C12_2 O8_2 1_555 1_555
C13_2 N1_2 1_555 1_555
H15_2 C13_2 1_555 1_555
C14_2 C13_2 1_555 1_555
H16_2 C14_2 1_555 1_555
C15_2 C14_2 1_555 1_555
C17_2 N1_2 1_555 1_555
C18_2 C15_2 1_555 1_555
C23_2 N3_2 1_555 1_555
H23_2 C23_2 1_555 1_555
C24_2 C23_2 1_555 1_555
H24_2 C24_2 1_555 1_555
C25_2 C24_2 1_555 1_555
C27_2 N3_2 1_555 1_555
H29_2 C31_2 1_555 1_555
N6 C52_2 1_555 1_555
C52_2 C51_2 1_555 1_555
H50_2 C52_2 1_555 1_555
C53_2 N6 1_555 1_555
Co8 N6 1_555 1_555
N7 Co6 1_555 1_555
C5_2 C6_2 1_555 1_555
C5_2 C12_2 1_555 1_555
C7_2 C8_2 1_555 1_555
C53_2 C54_2 1_555 1_555
H17_2 C16_2 1_555 1_555
H47_2 C48_2 1_555 1_555
N7 C20_2 1_555 1_555
C20_2 C19_2 1_555 1_555
H20_2 C20_2 1_555 1_555
C21_2 N7 1_555 1_555
H25_2 C26_2 1_555 1_555
N4_2 C28_2 1_555 1_555
C28_2 H27_2 1_555 1_555
C29_2 C28_2 1_555 1_555
H28_2 C29_2 1_555 1_555
C32_2 N4_2 1_555 1_555
Co8 O12_2 1_555 1_555
Co10 N4_2 1_555 1_555
O12_2 C41_2 1_555 1_555
O24 C41_2 1_555 1_555
O26 C42_2 1_555 1_555
O15_2 C42_2 1_555 1_555
O16_2 C43_2 1_555 1_555
O28 C43_2 1_555 1_555
O18_2 Co10 1_555 1_555
O19_2 Co10 1_555 1_555
O20_2 Co8 1_555 1_555
H31_2 O20_2 1_555 1_555
H32_2 O20_2 1_555 1_555
O21_2 Co8 1_555 1_555
H33_2 O21_2 1_555 1_555
H34_2 O21_2 1_555 1_555
O22_2 Co10 1_555 1_555
H35_2 O22_2 1_555 1_555
H36_2 O22_2 1_555 1_555
N5_2 Co8 1_555 1_555
C33_2 H37_2 1_555 1_555
C34_2 C33_2 1_555 1_555
H38_2 C34_2 1_555 1_555
C35_2 C34_2 1_555 1_555
H39_2 C35_2 1_555 1_555
C36_2 C35_2 1_555 1_555
H40_2 C36_2 1_555 1_555
C37_2 C36_2 1_555 1_555
H41_2 C37_2 1_555 1_555
C38_2 C33_2 1_555 1_555
H42_2 C38_2 1_555 1_555
C39_2 C38_2 1_555 1_555
H43_2 C39_2 1_555 1_555
C40_2 C35_2 1_555 1_555
H44_2 C40_2 1_555 1_555
C41_2 C33_2 1_555 1_555
C42_2 C34_2 1_555 1_555
C43_2 C36_2 1_555 1_555
C44_2 O18_2 1_555 1_555
C45_2 N5_2 1_555 1_555
H45_2 C45_2 1_555 1_555
C46_2 C45_2 1_555 1_555
H46_2 C46_2 1_555 1_555
C47_2 C46_2 1_555 1_555
C49_2 N5_2 1_555 1_555
C50_2 C47_2 1_555 1_555
C21_2 C22_2 1_555 1_555
C29_2 C30_2 1_555 1_555
O19_2 C44_2 1_555 1_555
C37_2 C38_2 1_555 1_555
C37_2 C44_2 1_555 1_555
C39_2 C40_2 1_555 1_555

#END
