
###############################################################################
#
# This file contains modified crystal structure data generated from the
# MOF subset of the Cambridge Structural Database (CSD) v543 
# hosted by the Cambridge Crystallographic Data Centre (CCDC).
#
# This work is licensed under the Creative Commons
# Attribution-NonCommercial-ShareAlike 4.0 International License.
# To view a copy of this license, visit
# http://creativecommons.org/licenses/by-nc-sa/4.0/
# or send a letter to
# Creative Commons, PO Box 1866, Mountain View, CA 94042, USA.
#
# CIF created using the CSD Python API on 29 September 2022
# The structure has been converted into the P1 space group
# The structure has a 3D framework
# The original CSD entry FITGAT is in the monoclinic crystal system
# The original CSD entry FITGAT is in a Sohncke space group
# The framework has been calculated to contain at least 10.0% void space
# The void calculation uses a probe of radius 1.32A, grid spacing 0.4
#
###############################################################################

data_FITGAT
_chemical_formula_moiety         '(C40 H52 N16 O16 Zn4)n'
_symmetry_cell_setting           triclinic
_symmetry_space_group_name_H-M   'P 1'
_symmetry_Int_Tables_number      1
_space_group_name_Hall           'P 1'
loop_
_symmetry_equiv_pos_site_id
_symmetry_equiv_pos_as_xyz
1 x,y,z
_cell_length_a                   9.6206(16)
_cell_length_b                   9.0406(12)
_cell_length_c                   20.395(5)
_cell_angle_alpha                90
_cell_angle_beta                 95.22(2)
_cell_angle_gamma                90
_cell_volume                     1766.52
loop_
_atom_site_label
_atom_site_type_symbol
_atom_site_fract_x
_atom_site_fract_y
_atom_site_fract_z
O8 O 0.004(2) 0.495(2) 0.1522(9)
Zn2 Zn 0.3180(4) 0.7395(3) 0.95367(15)
O2 O 0.147(2) 0.6783(19) 0.9978(9)
O3 O 0.169(2) 0.438(2) 0.9662(9)
C2 C 0.095(4) 0.530(3) 0.9892(16)
N12 N 0.262(3) 0.740(3) 0.8583(13)
N14 N 0.3687(19) 0.9260(13) 0.9972(7)
N15 N 0.4909(18) 0.6186(14) 0.9642(9)
Zn1 Zn 0.81507(14) 0.44457(14) 0.45538(8)
O1 O 0.6443(11) 0.3896(11) 0.4927(7)
O4 O 0.6712(11) 0.1517(12) 0.5022(7)
N1 N 0.1274(12) 0.1360(13) 0.5003(6)
O5 O 0.4029(17) 0.2678(17) 0.6545(8)
N2 N 0.4034(14) 0.3740(16) 0.5564(9)
H1 H 0.3884 0.4564 0.5338
C1 C 0.0037(19) 0.1823(18) 0.4940(9)
H3 H 0.1673 0.7450 0.8530
H4 H 0.2948 0.8253 0.8417
C3 C 0.2024(14) 0.2419(15) 0.4643(8)
C4 C 0.957(4) 0.522(3) 0.0139(16)
H5 H 0.9554 0.4249 0.0373
O6 O 0.1892(18) 0.7196(17) 0.7178(9)
C5 C 0.6028(16) 0.2638(17) 0.5019(10)
C6 C 0.3565(16) 0.2253(18) 0.4574(10)
H6 H 0.3828 0.3000 0.4253
H7 H 0.3715 0.1267 0.4381
C8 C 0.272(3) 0.617(3) 0.7497(13)
C9 C 0.312(3) 0.519(3) 0.6437(11)
H10 H 0.3585 0.6058 0.6260
H11 H 0.2113 0.5233 0.6280
N5 N 0.329(2) 0.522(3) 0.7170(10)
H12 H 0.3809 0.4543 0.7381
C10 C 0.4583(16) 0.2406(18) 0.5202(10)
H13 H 0.4544 0.1498 0.5479
C11 C 0.1161(14) 0.3420(15) 0.4413(8)
H14 H 0.1384 0.4221 0.4140
H15 H 0.4150 0.4358 0.0157
N6 N 0.6313(19) 0.4260(13) 0.0028(7)
C15 C 0.377(2) 0.375(2) 0.6192(11)
C16 C 0.302(4) 0.625(3) 0.8187(13)
H17 H 0.2635 0.5334 0.8367
H18 H 0.4047 0.6173 0.8269
O7 O 0.735(2) 0.552(2) 0.2261(10)
C17 C 0.898(3) 0.749(3) 0.1636(15)
H19 H 0.9443 0.8425 0.1529
H20 H 0.7972 0.7585 0.1504
C18 C 0.835(3) 0.608(3) 0.2561(11)
N8 N 0.921(2) 0.721(2) 0.2350(11)
H21 H 0.9812 0.7705 0.2616
N9 N 0.7652(18) 0.4777(17) 0.3570(7)
H22 H 0.7635 0.3891 0.3358
H23 H 0.6782 0.5178 0.3507
C19 C 0.862(3) 0.573(3) 0.3295(11)
H24 H 0.9558 0.5278 0.3372
H25 H 0.8643 0.6675 0.3540
C20 C 0.959(3) 0.620(3) 0.1246(12)
N10 N 0.929(3) 0.629(2) 0.0625(11)
H26 H 0.8860 0.7106 0.0481
Zn7 Zn 0.6820(4) 0.2395(3) 0.04633(15)
N11 N 0.8726(12) 0.6360(13) 0.4997(6)
N13 N 0.9788(12) 0.3135(12) 0.4636(7)
C7 C 0.856(4) 0.502(3) 0.9529(15)
H8 H 0.8783 0.5736 0.9184
H9 H 0.8638 0.4010 0.9352
C12 C 0.4928(17) 0.4818(15) 0.9986(9)
C13 C 0.7150(15) 0.5282(19) 0.9711(9)
C14 C 0.628(2) 0.6472(15) 0.9473(8)
H16 H 0.6571 0.7313 0.9240
Zn4 Zn 0.18493(14) 0.94457(14) 0.54462(8)
H2 H 0.9302 0.1268 0.5101
H2_2 H 0.0698 0.6268 0.4899
N4 N 0.0212(12) 0.8135(12) 0.5364(7)
C7_2 C 0.144(4) 0.002(3) 0.0471(15)
H8_2 H 0.1217 0.0736 0.0816
C13_2 C 0.2850(15) 0.0282(19) 0.0289(9)
C14_2 C 0.372(2) 0.1472(15) 0.0527(8)
H16_2 H 0.3429 0.2313 0.0760
N7 N 0.5091(18) 0.1186(14) 0.0358(9)
N3 N 0.738(3) 0.240(3) 0.1417(13)
H3_2 H 0.8327 0.2450 0.1470
H4_2 H 0.7052 0.3253 0.1583
C4_2 C 0.043(4) 0.022(3) 0.9861(16)
O6_2 O 0.8108(18) 0.2196(17) 0.2822(9)
C8_2 C 0.728(3) 0.117(3) 0.2503(13)
C9_2 C 0.688(3) 0.019(3) 0.3563(11)
H10_2 H 0.6415 0.1058 0.3740
H11_2 H 0.7887 0.0233 0.3720
N5_2 N 0.671(2) 0.022(3) 0.2830(10)
C16_2 C 0.698(4) 0.125(3) 0.1813(13)
H17_2 H 0.7365 0.0334 0.1633
H18_2 H 0.5953 0.1173 0.1731
O7_2 O 0.265(2) 0.052(2) 0.7739(10)
C17_2 C 0.102(3) 0.249(3) 0.8364(15)
H19_2 H 0.0557 0.3425 0.8471
H20_2 H 0.2028 0.2585 0.8496
C18_2 C 0.165(3) 0.108(3) 0.7439(11)
N8_2 N 0.079(2) 0.221(2) 0.7650(11)
H21_2 H 0.0188 0.2705 0.7384
H23_2 H 0.3218 0.0178 0.6493
C19_2 C 0.138(3) 0.073(3) 0.6705(11)
H24_2 H 0.0442 0.0278 0.6628
H25_2 H 0.1357 0.1675 0.6460
C20_2 C 0.041(3) 0.120(3) 0.8754(12)
N10_2 N 0.071(3) 0.129(2) 0.9375(11)
H26_2 H 0.1140 0.2106 0.9519
O1_2 O 0.3557(11) 0.8896(11) 0.5073(7)
O4_2 O 0.3288(11) 0.6517(12) 0.4978(7)
O5_2 O 0.5971(17) 0.7678(17) 0.3455(8)
N2_2 N 0.5966(14) 0.8740(16) 0.4436(9)
H1_2 H 0.6116 0.9564 0.4662
C1_2 C 0.9963(19) 0.6823(18) 0.5060(9)
C3_2 C 0.7976(14) 0.7419(15) 0.5357(8)
H5_2 H 0.0446 0.9249 0.9627
C5_2 C 0.3972(16) 0.7638(17) 0.4981(10)
C6_2 C 0.6435(16) 0.7253(18) 0.5426(10)
H6_2 H 0.6172 0.8000 0.5747
H7_2 H 0.6285 0.6267 0.5619
H12_2 H 0.6191 0.9543 0.2619
C10_2 C 0.5417(16) 0.7406(18) 0.4798(10)
H13_2 H 0.5456 0.6498 0.4521
C11_2 C 0.8839(14) 0.8420(15) 0.5587(8)
H14_2 H 0.8616 0.9221 0.5860
H15_2 H 0.5850 0.9358 0.9843
C15_2 C 0.623(2) 0.875(2) 0.3808(11)
N9_2 N 0.2348(18) 0.9777(17) 0.6430(7)
H22_2 H 0.2365 0.8891 0.6642
O2_2 O 0.853(2) 0.1783(19) 0.0022(9)
C2_2 C 0.905(4) 0.030(3) 0.0108(16)
H9_2 H 0.1362 0.9010 0.0648
C12_2 C 0.5072(17) 0.9818(15) 0.0014(9)
O3_2 O 0.831(2) 0.938(2) 0.0338(9)
O8_2 O 0.996(2) 0.995(2) 0.8478(9)
loop_
_geom_bond_atom_site_label_1
_geom_bond_atom_site_label_2
_geom_bond_site_symmetry_1
_geom_bond_site_symmetry_2
Zn2 O2 1_555 1_555
O2 C2 1_555 1_555
O3 C2 1_555 1_555
N12 Zn2 1_555 1_555
N14 Zn2 1_555 1_555
N15 Zn2 1_555 1_555
Zn1 O1 1_555 1_555
O1 C5 1_555 1_555
O4 C5 1_555 1_555
N1 C1 1_555 1_555
O5 C15 1_555 1_555
N2 H1 1_555 1_555
N12 H3 1_555 1_555
H4 N12 1_555 1_555
C3 N1 1_555 1_555
C4 H5 1_555 1_555
O6 C8 1_555 1_555
C5 C10 1_555 1_555
C6 C3 1_555 1_555
H6 C6 1_555 1_555
H7 C6 1_555 1_555
C8 N5 1_555 1_555
C9 H10 1_555 1_555
H11 C9 1_555 1_555
N5 C9 1_555 1_555
H12 N5 1_555 1_555
C10 N2 1_555 1_555
H13 C10 1_555 1_555
H14 C11 1_555 1_555
C15 N2 1_555 1_555
C16 N12 1_555 1_555
H17 C16 1_555 1_555
H18 C16 1_555 1_555
O7 C18 1_555 1_555
C17 H19 1_555 1_555
H20 C17 1_555 1_555
C18 N8 1_555 1_555
N8 C17 1_555 1_555
H21 N8 1_555 1_555
N9 Zn1 1_555 1_555
H22 N9 1_555 1_555
H23 N9 1_555 1_555
C19 C18 1_555 1_555
H24 C19 1_555 1_555
H25 C19 1_555 1_555
C20 C17 1_555 1_555
N10 C4 1_555 1_555
H26 N10 1_555 1_555
Zn7 N6 1_555 1_555
N11 Zn1 1_555 1_555
N13 Zn1 1_555 1_555
C3 C11 1_555 1_555
C6 C10 1_555 1_555
C8 C16 1_555 1_555
C9 C15 1_555 1_555
N9 C19 1_555 1_555
C20 N10 1_555 1_555
H8 C7 1_555 1_555
H9 C7 1_555 1_555
C13 C7 1_555 1_555
C14 C13 1_555 1_555
H16 C14 1_555 1_555
N15 C12 1_555 1_555
C14 N15 1_555 1_555
Zn4 N4 1_555 1_555
H8_2 C7_2 1_555 1_555
C13_2 C7_2 1_555 1_555
C14_2 C13_2 1_555 1_555
H16_2 C14_2 1_555 1_555
Zn7 N7 1_555 1_555
C14_2 N7 1_555 1_555
N3 H3_2 1_555 1_555
H4_2 N3 1_555 1_555
O6_2 C8_2 1_555 1_555
C8_2 N5_2 1_555 1_555
C9_2 H10_2 1_555 1_555
H11_2 C9_2 1_555 1_555
N5_2 C9_2 1_555 1_555
C16_2 N3 1_555 1_555
H17_2 C16_2 1_555 1_555
H18_2 C16_2 1_555 1_555
O7_2 C18_2 1_555 1_555
C17_2 H19_2 1_555 1_555
H20_2 C17_2 1_555 1_555
C18_2 N8_2 1_555 1_555
N8_2 C17_2 1_555 1_555
H21_2 N8_2 1_555 1_555
C19_2 C18_2 1_555 1_555
H24_2 C19_2 1_555 1_555
H25_2 C19_2 1_555 1_555
C20_2 C17_2 1_555 1_555
N10_2 C4_2 1_555 1_555
H26_2 N10_2 1_555 1_555
Zn7 N3 1_555 1_555
C8_2 C16_2 1_555 1_555
C20_2 N10_2 1_555 1_555
Zn4 O1_2 1_555 1_555
O1_2 C5_2 1_555 1_555
O4_2 C5_2 1_555 1_555
N11 C1_2 1_555 1_555
O5_2 C15_2 1_555 1_555
N2_2 H1_2 1_555 1_555
C3_2 N11 1_555 1_555
C5_2 C10_2 1_555 1_555
C6_2 C3_2 1_555 1_555
H6_2 C6_2 1_555 1_555
H7_2 C6_2 1_555 1_555
C10_2 N2_2 1_555 1_555
H13_2 C10_2 1_555 1_555
H14_2 C11_2 1_555 1_555
C15_2 N2_2 1_555 1_555
N9_2 Zn4 1_555 1_555
H22_2 N9_2 1_555 1_555
C3_2 C11_2 1_555 1_555
C6_2 C10_2 1_555 1_555
Zn7 O2_2 1_555 1_555
O2_2 C2_2 1_555 1_555

#END
