
###############################################################################
#
# This file contains modified crystal structure data generated from the
# MOF subset of the Cambridge Structural Database (CSD) v543 
# hosted by the Cambridge Crystallographic Data Centre (CCDC).
#
# This work is licensed under the Creative Commons
# Attribution-NonCommercial-ShareAlike 4.0 International License.
# To view a copy of this license, visit
# http://creativecommons.org/licenses/by-nc-sa/4.0/
# or send a letter to
# Creative Commons, PO Box 1866, Mountain View, CA 94042, USA.
#
# CIF created using the CSD Python API on 29 September 2022
# The structure has been converted into the P1 space group
# The structure has a 3D framework
# The original CSD entry FITJEY is in the monoclinic crystal system
# The framework has been calculated to contain at least 10.0% void space
# The void calculation uses a probe of radius 1.32A, grid spacing 0.4
# The framework is charged, counterions have been retained in the structure
# H atom positions have been added when not included in the experimental data
# Generated hydrogen atom positions removed from atoms on special positions
#
###############################################################################

data_FITJEY
_chemical_formula_moiety         '(C44 H116 Er12 N4 O94 P4 2+)n'
_symmetry_cell_setting           triclinic
_symmetry_space_group_name_H-M   'P 1'
_symmetry_Int_Tables_number      1
_space_group_name_Hall           'P 1'
loop_
_symmetry_equiv_pos_site_id
_symmetry_equiv_pos_as_xyz
1 x,y,z
_cell_length_a                   10.04760(10)
_cell_length_b                   22.2426(2)
_cell_length_c                   14.9869(2)
_cell_angle_alpha                90
_cell_angle_beta                 107.5860(10)
_cell_angle_gamma                90
_cell_volume                     3192.81
loop_
_atom_site_label
_atom_site_type_symbol
_atom_site_fract_x
_atom_site_fract_y
_atom_site_fract_z
C7 C 0.0443(8) 0.0011(4) 0.5520(5)
O14 O 0.0705(6) 0.0528(2) 0.5881(4)
Er4 Er 0.02620(4) 0.141395(17) 0.49739(3)
Er9 Er 0.41716(4) 0.156210(17) 0.24684(3)
Er11 Er 0.24157(4) 0.013840(18) 0.90742(3)
C12 C 0.2184(8) 0.1812(3) 0.3707(5)
C13 C 0.2399(8) 0.1125(4) 0.3819(6)
O26 O 0.2787(6) 0.2084(2) 0.3205(4)
O28 O 0.1419(6) 0.2039(2) 0.4144(4)
O29 O 0.1860(7) 0.0866(3) 0.4353(4)
O30 O 0.3134(7) 0.0903(2) 0.3351(4)
O34 O 0.0108(6) 0.1671(2) 0.6507(4)
O48 O 0.0669(7) 0.0644(3) 0.9630(5)
O62 O 0.2512(7) 0.1699(3) 0.6006(4)
C8 C 0.0096(9) 0.9649(4) 0.0009(6)
C3 C 0.0257(9) 0.7809(4) 0.3360(6)
C4 C 0.0474(9) 0.7364(4) 0.4193(6)
C5 C 0.2519(9) 0.8381(4) 0.6696(6)
C6 C 0.3019(8) 0.8498(4) 0.5839(6)
O5 O 0.0482(7) 0.7615(3) 0.2634(4)
O7 O 0.0800(7) 0.6830(3) 0.4041(4)
O8 O 0.0299(6) 0.7556(3) 0.4924(4)
O9 O 0.4327(6) 0.8476(3) 0.5992(4)
O10 O 0.2131(6) 0.8604(3) 0.5089(4)
O11 O 0.3432(6) 0.8327(3) 0.7472(4)
O12 O 0.1221(6) 0.8341(3) 0.6550(4)
O13 O 0.0821(7) 0.9520(2) 0.5909(4)
O16 O 0.0956(7) 0.9451(3) 0.9644(5)
Er7 Er 0.08284(4) 0.656210(17) 0.25316(3)
Er8 Er 0.58284(4) 0.843790(17) 0.75316(3)
Er10 Er 0.25843(4) 0.513840(18) 0.59258(3)
P2 P 0.0494(2) 0.50861(10) 0.34556(14)
N2 N 0.1211(9) 0.4702(3) 0.1895(6)
H10 H 0.1299 0.5105 0.1827
C20 C 0.1468(11) 0.4584(5) 0.2902(7)
H11 H 0.2458 0.4628 0.3221
H12 H 0.1213 0.4171 0.2982
C22 C 0.2281(17) 0.4398(6) 0.1526(10)
H16 H 0.3201 0.4514 0.1899
H17 H 0.2139 0.4518 0.0888
H18 H 0.2184 0.3970 0.1555
O27 O 0.2213(6) 0.7084(2) 0.1795(4)
O31 O 0.1866(7) 0.5903(2) 0.1649(4)
O49 O 0.4331(7) 0.5644(3) 0.5370(5)
O51 O 0.4044(7) 0.4451(3) 0.5356(5)
O52 O 0.1434(8) 0.5160(4) 0.4438(5)
O55 O 0.0887(7) 0.5201(3) 0.6609(5)
O56 O 0.0316(7) 0.5657(3) 0.2896(5)
O57 O 0.1519(8) 0.4160(3) 0.5709(6)
O58 O 0.3989(9) 0.4532(3) 0.7185(5)
O59 O 0.3116(7) 0.6431(4) 0.3567(5)
O60 O 0.1854(8) 0.6171(3) 0.5684(5)
O61 O 0.3816(8) 0.5732(3) 0.7237(5)
O20 O 0.6519(8) 0.0840(3) 0.0709(6)
O21 O 0.8989(9) 0.0468(3) 0.2185(5)
O50 O 0.9044(7) 0.0549(3) 0.0356(5)
N1 N 0.6211(9) 0.0298(3) 0.6895(6)
C9 C 0.6468(11) 0.0416(5) 0.7902(7)
H2 H 0.7458 0.0372 0.8221
H3 H 0.6213 0.0829 0.7982
C10 C 0.4782(15) 0.0466(7) 0.6334(9)
H4 H 0.4119 0.0268 0.6579
H5 H 0.4668 0.0894 0.6363
H6 H 0.4628 0.0347 0.5695
C11 C 0.7281(17) 0.0602(6) 0.6526(10)
H7 H 0.8201 0.0486 0.6899
H8 H 0.7139 0.0482 0.5888
H9 H 0.7184 0.1030 0.6555
O18 O 0.4113(7) 0.0201(3) 0.8391(5)
C19 C 0.9904(9) 0.0351(4) 0.9991(6)
O37 O 0.9701(6) 0.2444(3) 0.5076(4)
O41 O 0.7869(6) 0.1396(3) 0.4911(4)
O45 O 0.8779(6) 0.1659(3) 0.3450(4)
O46 O 0.9179(7) 0.0480(2) 0.4091(4)
Er3 Er 0.75843(4) 0.986160(18) 0.09258(3)
O15 O 0.9331(7) 0.9356(3) 0.0370(5)
O23 O 0.6854(8) 0.8829(3) 0.0684(5)
O24 O 0.8816(8) 0.9268(3) 0.2237(5)
Er5 Er 0.47380(4) 0.641395(17) 0.00261(3)
O54 O 0.5887(7) 0.9799(3) 0.1609(5)
Er1 Er 0.97380(4) 0.858605(17) 0.50261(3)
P1 P 0.5494(2) 0.99139(10) 0.84556(14)
H1 H 0.6299 0.9895 0.6827
C1 C 0.7816(8) 0.8188(3) 0.6293(5)
C2 C 0.7601(8) 0.8875(4) 0.6181(6)
O1 O 0.7213(6) 0.7916(2) 0.6795(4)
O2 O 0.8581(6) 0.7961(2) 0.5856(4)
O3 O 0.8140(7) 0.9134(3) 0.5647(4)
O4 O 0.6866(7) 0.9097(2) 0.6649(4)
O6 O 0.9892(6) 0.8329(2) 0.3493(4)
O17 O 0.6434(8) 0.9840(4) 0.9438(5)
O19 O 0.5316(7) 0.9343(3) 0.7896(5)
O22 O 0.8116(7) 0.8569(4) 0.8567(5)
O25 O 0.7488(7) 0.8301(3) 0.3994(4)
Er13 Er 0.74157(4) 0.486160(18) 0.40742(3)
C14 C 0.5257(9) 0.7191(4) 0.8360(6)
C15 C 0.5474(9) 0.7636(4) 0.9193(6)
C18 C 0.9557(8) 0.9989(4) 0.4480(5)
C21 C 0.9782(15) 0.4534(7) 0.1334(9)
H13 H 0.9119 0.4732 0.1579
H14 H 0.9668 0.4106 0.1363
H15 H 0.9628 0.4653 0.0695
O32 O 0.5482(7) 0.7385(3) 0.7634(4)
O33 O 0.4892(6) 0.6671(2) 0.8493(4)
O35 O 0.5800(7) 0.8170(3) 0.9041(4)
O36 O 0.5299(6) 0.7444(3) 0.9924(4)
O39 O 0.9327(6) 0.6524(3) 0.0992(4)
O43 O 0.8432(6) 0.6673(3) 0.2472(4)
O47 O 0.9295(6) 0.9472(2) 0.4119(4)
O53 O 0.9113(7) 0.4799(3) 0.3391(5)
C10_2 C 0.0218(15) 0.5466(7) 0.8666(9)
H4_2 H 0.0881 0.5268 0.8421
H5_2 H 0.0332 0.5894 0.8637
H6_2 H 0.0372 0.5347 0.9305
Er6 Er 0.52620(4) 0.358605(17) 0.99739(3)
C16 C 0.2481(9) 0.3381(4) 0.8304(6)
C17 C 0.1981(8) 0.3498(4) 0.9161(6)
O38 O 0.0673(6) 0.3476(3) 0.9008(4)
O40 O 0.2869(6) 0.3604(3) 0.9911(4)
O42 O 0.1568(6) 0.3327(3) 0.7528(4)
O44 O 0.3779(6) 0.3341(3) 0.8450(4)
C3_2 C 0.4743(9) 0.2809(4) 0.1640(6)
C4_2 C 0.4526(9) 0.2364(4) 0.0807(6)
O5_2 O 0.4518(7) 0.2615(3) 0.2366(4)
O6_2 O 0.5108(6) 0.3329(2) 0.1507(4)
O7_2 O 0.4200(7) 0.1830(3) 0.0959(4)
O8_2 O 0.4701(6) 0.2556(3) 0.0076(4)
O25_2 O 0.7512(7) 0.3301(3) 0.1006(4)
P2_2 P 0.4506(2) 0.00861(10) 0.15444(14)
H10_2 H 0.3701 0.0105 0.3173
C12_2 C 0.2816(8) 0.6812(3) 0.1293(5)
C13_2 C 0.2601(8) 0.6125(4) 0.1181(6)
C18_2 C 0.5443(8) 0.4989(4) 0.0520(5)
O28_2 O 0.3581(6) 0.7039(2) 0.0856(4)
O29_2 O 0.3140(7) 0.5866(3) 0.0647(4)
O39_2 O 0.5673(6) 0.1524(3) 0.4008(4)
O41_2 O 0.7131(6) 0.6396(3) 0.0089(4)
O43_2 O 0.6568(6) 0.1673(3) 0.2528(4)
O45_2 O 0.6221(6) 0.6659(3) 0.1550(4)
O46_2 O 0.5821(7) 0.5480(2) 0.0909(4)
O47_2 O 0.5705(6) 0.4472(2) 0.0881(4)
O52_2 O 0.3566(8) 0.0160(4) 0.0562(5)
O56_2 O 0.4684(7) 0.0657(3) 0.2104(5)
O59_2 O 0.1884(7) 0.1431(4) 0.1433(5)
Er2 Er 0.91716(4) 0.343790(17) 0.74684(3)
P1_2 P 0.9506(2) 0.49139(10) 0.65444(14)
N1_2 N 0.8789(9) 0.5298(3) 0.8105(6)
H1_2 H 0.8701 0.4895 0.8173
C1_2 C 0.7184(8) 0.3188(3) 0.8707(5)
C2_2 C 0.7399(8) 0.3875(4) 0.8819(6)
C7_2 C 0.4557(8) 0.5011(4) 0.9480(5)
C8_2 C 0.4904(9) 0.4649(4) 0.4991(6)
C9_2 C 0.8532(11) 0.5416(5) 0.7098(7)
H2_2 H 0.7542 0.5372 0.6779
H3_2 H 0.8787 0.5829 0.7018
C11_2 C 0.7719(17) 0.5602(6) 0.8474(10)
H7_2 H 0.6799 0.5486 0.8101
H8_2 H 0.7861 0.5482 0.9112
H9_2 H 0.7816 0.6030 0.8445
O1_2 O 0.7787(6) 0.2916(2) 0.8205(4)
O2_2 O 0.6419(6) 0.2961(2) 0.9144(4)
O3_2 O 0.6860(7) 0.4134(3) 0.9353(4)
O4_2 O 0.8134(7) 0.4097(2) 0.8351(4)
O13_2 O 0.4179(7) 0.4520(2) 0.9091(4)
O14_2 O 0.4295(6) 0.5528(2) 0.9119(4)
O15_2 O 0.5669(7) 0.4356(3) 0.4630(5)
O17_2 O 0.8566(8) 0.4840(4) 0.5562(5)
O19_2 O 0.9684(7) 0.4343(3) 0.7104(5)
O20_2 O 0.8481(8) 0.5840(3) 0.4291(6)
O21_2 O 0.6011(9) 0.5468(3) 0.2815(5)
O22_2 O 0.6884(7) 0.3569(4) 0.6433(5)
O23_2 O 0.8146(8) 0.3829(3) 0.4316(5)
O24_2 O 0.6184(8) 0.4268(3) 0.2763(5)
C14_2 C 0.9743(9) 0.2191(4) 0.6640(6)
C15_2 C 0.9526(9) 0.2636(4) 0.5807(6)
C19_2 C 0.5096(9) 0.5351(4) 0.5009(6)
O32_2 O 0.9518(7) 0.2385(3) 0.7366(4)
O35_2 O 0.9200(7) 0.3170(3) 0.5959(4)
O50_2 O 0.5956(7) 0.5549(3) 0.4644(5)
O60_2 O 0.3146(8) 0.1171(3) 0.9316(5)
O61_2 O 0.1184(8) 0.0732(3) 0.7763(5)
O62_2 O 0.2488(7) 0.6699(3) 0.8994(4)
N2_2 N 0.3789(9) 0.9702(3) 0.3105(6)
C20_2 C 0.3532(11) 0.9584(5) 0.2098(7)
H11_2 H 0.2542 0.9628 0.1779
H12_2 H 0.3787 0.9171 0.2018
C21_2 C 0.5218(15) 0.9534(7) 0.3666(9)
H13_2 H 0.5881 0.9732 0.3421
H14_2 H 0.5332 0.9106 0.3637
H15_2 H 0.5372 0.9653 0.4305
C22_2 C 0.2719(17) 0.9398(6) 0.3474(10)
H16_2 H 0.1799 0.9514 0.3101
H17_2 H 0.2861 0.9518 0.4112
H18_2 H 0.2816 0.8970 0.3445
O57_2 O 0.3481(8) 0.9160(3) 0.9291(6)
O58_2 O 0.1011(9) 0.9532(3) 0.7815(5)
C16_2 C 0.7481(9) 0.1619(4) 0.3304(6)
C17_2 C 0.6981(8) 0.1502(4) 0.4161(6)
C5_2 C 0.7519(9) 0.6619(4) 0.1696(6)
C6_2 C 0.8019(8) 0.6502(4) 0.0839(6)
loop_
_geom_bond_atom_site_label_1
_geom_bond_atom_site_label_2
_geom_bond_site_symmetry_1
_geom_bond_site_symmetry_2
O14 C7 1_555 1_555
Er4 O14 1_555 1_555
Er9 O26 1_555 1_555
C12 C13 1_555 1_555
C13 O29 1_555 1_555
O26 C12 1_555 1_555
O28 Er4 1_555 1_555
O29 Er4 1_555 1_555
O30 Er9 1_555 1_555
O34 Er4 1_555 1_555
O48 Er11 1_555 1_555
O62 Er4 1_555 1_555
C12 O28 1_555 1_555
C13 O30 1_555 1_555
C3 C4 1_555 1_555
C4 O7 1_555 1_555
C5 C6 1_555 1_555
C6 O9 1_555 1_555
O5 C3 1_555 1_555
O7 Er7 1_555 1_555
O9 Er8 1_555 1_555
O11 C5 1_555 1_555
Er7 O5 1_555 1_555
Er8 O11 1_555 1_555
Er10 O49 1_555 1_555
P2 C20 1_555 1_555
N2 H10 1_555 1_555
C20 N2 1_555 1_555
H11 C20 1_555 1_555
H12 C20 1_555 1_555
C22 N2 1_555 1_555
H16 C22 1_555 1_555
H17 C22 1_555 1_555
H18 C22 1_555 1_555
O27 Er7 1_555 1_555
O31 Er7 1_555 1_555
O51 Er10 1_555 1_555
O52 Er10 1_555 1_555
O55 Er10 1_555 1_555
O56 Er7 1_555 1_555
O57 Er10 1_555 1_555
O58 Er10 1_555 1_555
O59 Er7 1_555 1_555
O60 Er10 1_555 1_555
O61 Er10 1_555 1_555
C4 O8 1_555 1_555
C5 O12 1_555 1_555
C6 O10 1_555 1_555
P2 O52 1_555 1_555
P2 O56 1_555 1_555
C9 N1 1_555 1_555
H2 C9 1_555 1_555
H3 C9 1_555 1_555
C10 N1 1_555 1_555
H4 C10 1_555 1_555
H5 C10 1_555 1_555
H6 C10 1_555 1_555
C11 N1 1_555 1_555
H7 C11 1_555 1_555
H8 C11 1_555 1_555
H9 C11 1_555 1_555
Er11 O18 1_555 1_555
Er3 O15 1_555 1_555
O23 Er3 1_555 1_555
O24 Er3 1_555 1_555
O54 Er3 1_555 1_555
Er1 O2 1_555 1_555
Er8 O1 1_555 1_555
C1 C2 1_555 1_555
C2 O3 1_555 1_555
O1 C1 1_555 1_555
O2 C1 1_555 1_555
O3 Er1 1_555 1_555
O4 Er8 1_555 1_555
O6 Er1 1_555 1_555
O19 Er8 1_555 1_555
O22 Er8 1_555 1_555
O25 Er1 1_555 1_555
Er13 O53 1_555 1_555
C14 C15 1_555 1_555
C15 O35 1_555 1_555
H13 C21 1_555 1_555
H14 C21 1_555 1_555
H15 C21 1_555 1_555
O32 Er8 1_555 1_555
O33 C14 1_555 1_555
O35 Er8 1_555 1_555
O47 Er1 1_555 1_555
P1 O17 1_555 1_555
P1 O19 1_555 1_555
C2 O4 1_555 1_555
C14 O32 1_555 1_555
C15 O36 1_555 1_555
C18 O47 1_555 1_555
H4_2 C10_2 1_555 1_555
H5_2 C10_2 1_555 1_555
H6_2 C10_2 1_555 1_555
Er6 O40 1_555 1_555
C16 C17 1_555 1_555
C17 O38 1_555 1_555
O40 C17 1_555 1_555
O44 Er6 1_555 1_555
C16 O42 1_555 1_555
C16 O44 1_555 1_555
C3_2 C4_2 1_555 1_555
C4_2 O7_2 1_555 1_555
O5_2 C3_2 1_555 1_555
O7_2 Er9 1_555 1_555
Er9 O5_2 1_555 1_555
C12_2 C13_2 1_555 1_555
C13_2 O29_2 1_555 1_555
O27 C12_2 1_555 1_555
O28_2 Er5 1_555 1_555
O29_2 Er5 1_555 1_555
O39_2 Er9 1_555 1_555
O41_2 Er5 1_555 1_555
O43_2 Er9 1_555 1_555
O45_2 Er5 1_555 1_555
O46_2 Er5 1_555 1_555
O56_2 Er9 1_555 1_555
O59_2 Er9 1_555 1_555
C3_2 O6_2 1_555 1_555
C4_2 O8_2 1_555 1_555
P2_2 O52_2 1_555 1_555
P2_2 O56_2 1_555 1_555
C12_2 O28_2 1_555 1_555
C13_2 O31 1_555 1_555
C18_2 O46_2 1_555 1_555
C18_2 O47_2 1_555 1_555
Er6 O2_2 1_555 1_555
Er2 O1_2 1_555 1_555
Er13 O15_2 1_555 1_555
P1_2 C9_2 1_555 1_555
N1_2 H1_2 1_555 1_555
C1_2 C2_2 1_555 1_555
C2_2 O3_2 1_555 1_555
C7_2 O13_2 1_555 1_555
C8_2 O15_2 1_555 1_555
C9_2 N1_2 1_555 1_555
H2_2 C9_2 1_555 1_555
H3_2 C9_2 1_555 1_555
C11_2 N1_2 1_555 1_555
H7_2 C11_2 1_555 1_555
H8_2 C11_2 1_555 1_555
H9_2 C11_2 1_555 1_555
O1_2 C1_2 1_555 1_555
O2_2 C1_2 1_555 1_555
O3_2 Er6 1_555 1_555
O4_2 Er2 1_555 1_555
O13_2 Er6 1_555 1_555
O14_2 C7_2 1_555 1_555
O51 C8_2 1_555 1_555
O17_2 Er13 1_555 1_555
O19_2 Er2 1_555 1_555
O20_2 Er13 1_555 1_555
O21_2 Er13 1_555 1_555
O22_2 Er2 1_555 1_555
O23_2 Er13 1_555 1_555
O24_2 Er13 1_555 1_555
C14_2 C15_2 1_555 1_555
C15_2 O35_2 1_555 1_555
C19_2 C8_2 1_555 1_555
O32_2 Er2 1_555 1_555
O35_2 Er2 1_555 1_555
O50_2 Er13 1_555 1_555
O60_2 Er11 1_555 1_555
O61_2 Er11 1_555 1_555
P1_2 O17_2 1_555 1_555
P1_2 O19_2 1_555 1_555
C2_2 O4_2 1_555 1_555
C14_2 O32_2 1_555 1_555
C15_2 O37 1_555 1_555
C19_2 O49 1_555 1_555
C19_2 O50_2 1_555 1_555
C20_2 N2_2 1_555 1_555
H11_2 C20_2 1_555 1_555
H12_2 C20_2 1_555 1_555
C21_2 N2_2 1_555 1_555
H13_2 C21_2 1_555 1_555
H14_2 C21_2 1_555 1_555
H15_2 C21_2 1_555 1_555
C22_2 N2_2 1_555 1_555
H16_2 C22_2 1_555 1_555
H17_2 C22_2 1_555 1_555
H18_2 C22_2 1_555 1_555
C16_2 C17_2 1_555 1_555
C17_2 O39_2 1_555 1_555
O41 C17_2 1_555 1_555
C16_2 O43_2 1_555 1_555
C16_2 O45 1_555 1_555
C5_2 C6_2 1_555 1_555
C6_2 O39 1_555 1_555
O43 C5_2 1_555 1_555
C5_2 O45_2 1_555 1_555
C6_2 O41_2 1_555 1_555

#END
