
###############################################################################
#
# This file contains modified crystal structure data generated from the
# MOF subset of the Cambridge Structural Database (CSD) v543 
# hosted by the Cambridge Crystallographic Data Centre (CCDC).
#
# This work is licensed under the Creative Commons
# Attribution-NonCommercial-ShareAlike 4.0 International License.
# To view a copy of this license, visit
# http://creativecommons.org/licenses/by-nc-sa/4.0/
# or send a letter to
# Creative Commons, PO Box 1866, Mountain View, CA 94042, USA.
#
# CIF created using the CSD Python API on 29 September 2022
# The structure has been converted into the P1 space group
# The structure has a 3D framework
# The original CSD entry FIWGEA is in the triclinic crystal system
# The framework has been calculated to contain at least 10.0% void space
# The void calculation uses a probe of radius 1.32A, grid spacing 0.4
#
###############################################################################

data_FIWGEA
_chemical_formula_moiety         '(C74 H46 Cd3 N4 O12 S2)n'
_symmetry_cell_setting           triclinic
_symmetry_space_group_name_H-M   'P 1'
_symmetry_Int_Tables_number      1
_space_group_name_Hall           'P 1'
loop_
_symmetry_equiv_pos_site_id
_symmetry_equiv_pos_as_xyz
1 x,y,z
_cell_length_a                   11.9148(16)
_cell_length_b                   14.1227(19)
_cell_length_c                   14.199(2)
_cell_angle_alpha                69.589(2)
_cell_angle_beta                 79.334(2)
_cell_angle_gamma                85.700(3)
_cell_volume                     2200.42
loop_
_atom_site_label
_atom_site_type_symbol
_atom_site_fract_x
_atom_site_fract_y
_atom_site_fract_z
_atom_site_U_iso_or_equiv
_atom_site_thermal_displace_type
O3 O 0.4919(8) 0.7678(7) 0.7037(8) 0.0760 Uani
O4 O 0.4180(7) 0.6222(6) 0.7876(6) 0.0607 Uani
C19 C 0.1050(10) 0.8475(9) 0.8728(8) 0.0509 Uani
C20 C 0.1194(10) 0.7467(9) 0.9033(9) 0.0570 Uani
H14 H 0.060574 0.704197 0.949653 0.0680 Uiso
C21 C 0.2199(11) 0.7043(10) 0.8675(10) 0.0617 Uani
H15 H 0.229325 0.632938 0.891102 0.0740 Uiso
C22 C 0.3042(9) 0.7623(8) 0.8001(8) 0.0481 Uani
C23 C 0.2912(12) 0.8660(10) 0.7676(9) 0.0681 Uani
H16 H 0.350560 0.907938 0.721157 0.0810 Uiso
C24 C 0.1918(11) 0.9086(9) 0.8028(9) 0.0641 Uani
H17 H 0.182083 0.979967 0.779406 0.0770 Uiso
C25 C 0.4115(9) 0.7133(10) 0.7618(9) 0.0502 Uani
Cd5 Cd 0.58748(7) 0.62003(7) 0.68488(6) 0.0569 Uani
O5 O 0.6152(8) 0.4554(7) 0.7229(7) 0.0746 Uani
O6 O 0.6261(9) 0.4041(8) 0.5904(8) 0.0831 Uani
C26 C 0.8093(10) 0.1236(10) 0.8398(9) 0.0563 Uani
C27 C 0.7927(11) 0.1406(10) 0.7420(9) 0.0632 Uani
H18 H 0.818015 0.091842 0.710319 0.0760 Uiso
C28 C 0.7392(11) 0.2288(10) 0.6893(9) 0.0618 Uani
H19 H 0.725614 0.238786 0.622603 0.0750 Uiso
C29 C 0.7058(10) 0.3015(9) 0.7324(9) 0.0534 Uani
C30 C 0.7252(11) 0.2862(9) 0.8294(10) 0.0596 Uani
H20 H 0.703427 0.336684 0.859437 0.0720 Uiso
C31 C 0.7762(10) 0.1979(9) 0.8828(9) 0.0526 Uani
H21 H 0.788726 0.187732 0.949838 0.0630 Uiso
C32 C 0.6466(11) 0.3951(10) 0.6772(10) 0.0666 Uani
H23 H 0.988109 0.015972 0.787971 0.0660 Uiso
C37 C 0.8571(10) 0.0273(9) 0.9007(9) 0.0540 Uani
Cd11 Cd 0.500000 0.500000 0.500000 0.0542 Uani
S1 S 0.8995(4) 0.5504(4) 0.0733(4) 0.0962 Uani
N1 N 0.6350(10) 0.5104(9) 0.3583(9) 0.0723 Uani
H2 H 0.660080 0.518206 0.058574 0.1140 Uiso
C6 C 0.7924(17) 0.5384(13) 0.1830(12) 0.0880 Uani
C7 C 0.7121(15) 0.6038(13) 0.1835(12) 0.0837 Uani
H5 H 0.706930 0.661992 0.125132 0.1000 Uiso
C8 C 0.6337(13) 0.5867(11) 0.2719(9) 0.0665 Uani
H6 H 0.572721 0.634291 0.270743 0.0800 Uiso
C9 C 0.7167(12) 0.4437(12) 0.3582(13) 0.0795 Uani
H7 H 0.718873 0.385594 0.417303 0.0950 Uiso
C10 C 0.8013(14) 0.4566(16) 0.2722(15) 0.1018 Uani
H8 H 0.863885 0.410531 0.274322 0.1220 Uiso
C72 C 0.0005(9) 0.1057(9) 0.0852(8) 0.0503 Uani
C73 C 0.0459(10) 0.0163(9) 0.1430(9) 0.0557 Uani
O1 O 0.5667(8) 0.6545(7) 0.5087(7) 0.0689 Uani
O2 O 0.7253(9) 0.6871(8) 0.5487(8) 0.0835 Uani
N2 N 0.6965(8) 0.6079(7) 0.8099(6) 0.0822 Uani
C1 C 0.6403(7) 0.5648(8) 0.9096(7) 0.0930 Uani
H1 H 0.562214 0.546985 0.922457 0.1110 Uiso
C2 C 0.6984(8) 0.5477(9) 0.9904(5) 0.0947 Uani
C3 C 0.8127(8) 0.5737(9) 0.9716(7) 0.0900 Uani
C4 C 0.8689(7) 0.6168(9) 0.8718(8) 0.1058 Uani
H3 H 0.946964 0.634626 0.858957 0.1270 Uiso
C5 C 0.8107(8) 0.6339(8) 0.7910(6) 0.1014 Uani
H4 H 0.849100 0.663405 0.722839 0.1220 Uiso
C11 C 0.6665(13) 0.6930(10) 0.4839(10) 0.0664 Uani
C12 C 0.7119(10) 0.7436(9) 0.3719(8) 0.0551 Uani
C13 C 0.8258(11) 0.7411(9) 0.3418(9) 0.0579 Uani
H9 H 0.873515 0.706169 0.390033 0.0700 Uiso
C14 C 0.8738(9) 0.7892(8) 0.2404(8) 0.0502 Uani
H10 H 0.954341 0.788003 0.220043 0.0600 Uiso
C15 C 0.8055(9) 0.8388(8) 0.1691(8) 0.0477 Uani
C16 C 0.6865(10) 0.8410(9) 0.2029(10) 0.0612 Uani
H11 H 0.637182 0.874515 0.155557 0.0730 Uiso
C17 C 0.8110(9) 0.9794(9) 0.0025(9) 0.0506 Uani
C18 C 0.6420(11) 0.7948(10) 0.3039(9) 0.0606 Uani
H13 H 0.562163 0.798447 0.326746 0.0720 Uiso
C33 C 0.8542(10) 0.8902(9) 0.0594(8) 0.0525 Uani
C34 C 0.9491(10) 0.8465(9) 0.0156(9) 0.0514 Uani
H22 H 0.979249 0.783952 0.054800 0.0610 Uiso
Cd3 Cd 0.41252(7) 0.37997(7) 0.31512(6) 0.0569 Uani
O7 O 0.4333(8) 0.3455(7) 0.4913(7) 0.0689 Uani
O8 O 0.2747(9) 0.3129(8) 0.4513(8) 0.0835 Uani
N4 N 0.3035(8) 0.3921(7) 0.1901(6) 0.0822 Uani
C38 C 0.3597(7) 0.4352(8) 0.0904(7) 0.0930 Uani
H24 H 0.437786 0.453015 0.077543 0.1110 Uiso
C39 C 0.3016(8) 0.4523(9) 0.0096(5) 0.0947 Uani
C40 C 0.1873(8) 0.4263(9) 0.0284(7) 0.0900 Uani
C41 C 0.1311(7) 0.3832(9) 0.1282(8) 0.1058 Uani
H26 H 0.053036 0.365374 0.141043 0.1270 Uiso
C42 C 0.1893(8) 0.3661(8) 0.2090(6) 0.1014 Uani
H27 H 0.150900 0.336595 0.277161 0.1220 Uiso
C48 C 0.3335(13) 0.3070(10) 0.5161(10) 0.0664 Uani
C49 C 0.2881(10) 0.2564(9) 0.6281(8) 0.0551 Uani
C50 C 0.1742(11) 0.2589(9) 0.6582(9) 0.0579 Uani
H32 H 0.126485 0.293831 0.609967 0.0700 Uiso
C51 C 0.1262(9) 0.2108(8) 0.7596(8) 0.0502 Uani
H33 H 0.045659 0.211997 0.779957 0.0600 Uiso
C52 C 0.1945(9) 0.1612(8) 0.8309(8) 0.0477 Uani
C53 C 0.3135(10) 0.1590(9) 0.7971(10) 0.0612 Uani
H34 H 0.362818 0.125485 0.844443 0.0730 Uiso
C54 C 0.1890(9) 0.0206(9) 0.9975(9) 0.0506 Uani
C55 C 0.3580(11) 0.2052(10) 0.6961(9) 0.0606 Uani
H36 H 0.437837 0.201553 0.673254 0.0720 Uiso
C70 C 0.1458(10) 0.1098(9) 0.9406(8) 0.0525 Uani
C71 C 0.0509(10) 0.1535(9) 0.9844(9) 0.0514 Uani
H45 H 0.020751 0.216048 0.945200 0.0610 Uiso
O14 O 0.5081(8) 0.2322(7) 0.2963(8) 0.0760 Uani
O16 O 0.5820(7) 0.3778(6) 0.2124(6) 0.0607 Uani
O18 O 0.3848(8) 0.5446(7) 0.2771(7) 0.0746 Uani
O20 O 0.3739(9) 0.5959(8) 0.4096(8) 0.0831 Uani
N6 N 0.3650(10) 0.4896(9) 0.6417(9) 0.0723 Uani
C35 C 0.9995(9) 0.8943(9) 0.9148(8) 0.0503 Uani
C36 C 0.9541(10) 0.9837(9) 0.8570(9) 0.0557 Uani
S2 S 0.1005(4) 0.4496(4) 0.9267(4) 0.0962 Uani
H25 H 0.339920 0.481794 0.941426 0.1140 Uiso
C43 C 0.2076(17) 0.4616(13) 0.8170(12) 0.0880 Uani
C44 C 0.2879(15) 0.3962(13) 0.8165(12) 0.0837 Uani
H28 H 0.293070 0.338008 0.874868 0.1000 Uiso
C45 C 0.3663(13) 0.4133(11) 0.7281(9) 0.0665 Uani
H29 H 0.427279 0.365709 0.729257 0.0800 Uiso
C46 C 0.2833(12) 0.5563(12) 0.6418(13) 0.0795 Uani
H30 H 0.281127 0.614406 0.582697 0.0950 Uiso
C47 C 0.1987(14) 0.5434(16) 0.7278(15) 0.1018 Uani
H31 H 0.136115 0.589469 0.725678 0.1220 Uiso
C63 C 0.1907(10) 0.8764(10) 0.1602(9) 0.0563 Uani
C64 C 0.2073(11) 0.8594(10) 0.2580(9) 0.0632 Uani
H41 H 0.181985 0.908158 0.289681 0.0760 Uiso
C65 C 0.2608(11) 0.7712(10) 0.3107(9) 0.0618 Uani
H42 H 0.274386 0.761214 0.377397 0.0750 Uiso
C66 C 0.2942(10) 0.6985(9) 0.2676(9) 0.0534 Uani
C67 C 0.2748(11) 0.7138(9) 0.1706(10) 0.0596 Uani
H43 H 0.296573 0.663316 0.140563 0.0720 Uiso
C68 C 0.2238(10) 0.8021(9) 0.1172(9) 0.0526 Uani
H44 H 0.211274 0.812268 0.050162 0.0630 Uiso
C69 C 0.3534(11) 0.6049(10) 0.3228(10) 0.0666 Uani
H46 H 0.011891 0.984028 0.212029 0.0660 Uiso
C74 C 0.1429(10) 0.9727(9) 0.0993(9) 0.0540 Uani
C56 C 0.8950(10) 0.1525(9) 0.1272(8) 0.0509 Uani
C57 C 0.8806(10) 0.2533(9) 0.0967(9) 0.0570 Uani
H37 H 0.939426 0.295803 0.050347 0.0680 Uiso
C58 C 0.7801(11) 0.2957(10) 0.1325(10) 0.0617 Uani
H38 H 0.770675 0.367062 0.108898 0.0740 Uiso
C59 C 0.6958(9) 0.2377(8) 0.1999(8) 0.0481 Uani
C60 C 0.7088(12) 0.1340(10) 0.2324(9) 0.0681 Uani
H39 H 0.649440 0.092062 0.278843 0.0810 Uiso
C61 C 0.8082(11) 0.0914(9) 0.1972(9) 0.0641 Uani
H40 H 0.817917 0.020033 0.220594 0.0770 Uiso
C62 C 0.5885(9) 0.2867(10) 0.2382(9) 0.0502 Uani
H12 H 0.747656 0.009705 0.033138 0.0610 Uiso
H35 H 0.252344 0.990295 0.966862 0.0610 Uiso
loop_
_atom_site_aniso_label
_atom_site_aniso_U_11
_atom_site_aniso_U_22
_atom_site_aniso_U_33
_atom_site_aniso_U_23
_atom_site_aniso_U_13
_atom_site_aniso_U_12
O3 0.056 0.062 0.083 -0.016 0.029 0.02
O4 0.047 0.05 0.062 -0.007 0.015 0.02
C19 0.045 0.055 0.04 -0.011 0.003 0.025
C20 0.049 0.049 0.054 -0.008 0.012 0.017
C21 0.058 0.052 0.059 -0.013 0.008 0.023
C22 0.043 0.048 0.041 -0.01 0.002 0.026
C23 0.064 0.066 0.042 0.003 0.018 0.023
C24 0.067 0.047 0.046 0.004 0.017 0.033
C25 0.033 0.064 0.044 -0.013 0 0.015
Cd5 0.0492 0.0577 0.0405 -0.0029 0.0099 0.0299
O5 0.08 0.058 0.056 0 0.006 0.041
O6 0.077 0.081 0.06 -0.001 -0.001 0.051
C26 0.041 0.064 0.046 -0.008 0.005 0.025
C27 0.07 0.063 0.045 -0.013 -0.006 0.034
C28 0.062 0.066 0.042 -0.003 -0.014 0.031
C29 0.043 0.057 0.04 -0.001 0.004 0.019
C30 0.057 0.053 0.06 -0.02 0.002 0.027
C31 0.045 0.065 0.043 -0.018 -0.005 0.021
C32 0.05 0.066 0.053 0.002 0.01 0.031
C37 0.048 0.057 0.043 -0.012 0.004 0.031
Cd11 0.0502 0.0554 0.0346 -0.0011 0.0073 0.0304
S1 0.09 0.089 0.087 -0.034 0.048 -0.001
N1 0.066 0.071 0.06 -0.018 0.02 0.022
C6 0.108 0.08 0.057 -0.019 0.027 -0.009
C7 0.106 0.079 0.063 -0.041 0.028 -0.006
C8 0.076 0.082 0.037 -0.022 0.002 0.006
C9 0.055 0.081 0.086 -0.024 0.009 0.025
C10 0.071 0.127 0.12 -0.075 -0.003 0.051
C72 0.041 0.051 0.043 -0.008 0.006 0.024
C73 0.047 0.059 0.043 -0.011 0.012 0.029
O1 0.056 0.057 0.059 0.003 0.02 0.025
O2 0.082 0.084 0.048 0.001 0.017 0.036
N2 0.092 0.066 0.074 -0.021 0.007 0.021
C1 0.103 0.088 0.062 -0.005 -0.005 0.034
C2 0.077 0.098 0.077 0 -0.003 0.022
C3 0.078 0.089 0.072 -0.003 0.001 0.034
C4 0.066 0.144 0.065 -0.001 0.006 0.045
C5 0.09 0.106 0.087 -0.016 -0.01 0.032
C11 0.074 0.052 0.045 -0.002 0.016 0.035
C12 0.059 0.047 0.039 -0.007 0.017 0.022
C13 0.064 0.056 0.045 -0.014 -0.006 0.028
C14 0.038 0.05 0.041 -0.002 0.012 0.018
C15 0.046 0.048 0.035 -0.009 0.009 0.021
C16 0.048 0.058 0.057 -0.008 0.008 0.026
C17 0.033 0.049 0.055 -0.012 0.008 0.023
C18 0.055 0.059 0.053 -0.016 0.015 0.015
C33 0.043 0.055 0.043 -0.007 0.002 0.029
C34 0.043 0.048 0.05 -0.009 0.002 0.017
Cd3 0.0492 0.0577 0.0405 -0.0029 0.0099 0.0299
O7 0.056 0.057 0.059 0.003 0.02 0.025
O8 0.082 0.084 0.048 0.001 0.017 0.036
N4 0.092 0.066 0.074 -0.021 0.007 0.021
C38 0.103 0.088 0.062 -0.005 -0.005 0.034
C39 0.077 0.098 0.077 0 -0.003 0.022
C40 0.078 0.089 0.072 -0.003 0.001 0.034
C41 0.066 0.144 0.065 -0.001 0.006 0.045
C42 0.09 0.106 0.087 -0.016 -0.01 0.032
C48 0.074 0.052 0.045 -0.002 0.016 0.035
C49 0.059 0.047 0.039 -0.007 0.017 0.022
C50 0.064 0.056 0.045 -0.014 -0.006 0.028
C51 0.038 0.05 0.041 -0.002 0.012 0.018
C52 0.046 0.048 0.035 -0.009 0.009 0.021
C53 0.048 0.058 0.057 -0.008 0.008 0.026
C54 0.033 0.049 0.055 -0.012 0.008 0.023
C55 0.055 0.059 0.053 -0.016 0.015 0.015
C70 0.043 0.055 0.043 -0.007 0.002 0.029
C71 0.043 0.048 0.05 -0.009 0.002 0.017
O14 0.056 0.062 0.083 -0.016 0.029 0.02
O16 0.047 0.05 0.062 -0.007 0.015 0.02
O18 0.08 0.058 0.056 0 0.006 0.041
O20 0.077 0.081 0.06 -0.001 -0.001 0.051
N6 0.066 0.071 0.06 -0.018 0.02 0.022
C35 0.041 0.051 0.043 -0.008 0.006 0.024
C36 0.047 0.059 0.043 -0.011 0.012 0.029
S2 0.09 0.089 0.087 -0.034 0.048 -0.001
C43 0.108 0.08 0.057 -0.019 0.027 -0.009
C44 0.106 0.079 0.063 -0.041 0.028 -0.006
C45 0.076 0.082 0.037 -0.022 0.002 0.006
C46 0.055 0.081 0.086 -0.024 0.009 0.025
C47 0.071 0.127 0.12 -0.075 -0.003 0.051
C63 0.041 0.064 0.046 -0.008 0.005 0.025
C64 0.07 0.063 0.045 -0.013 -0.006 0.034
C65 0.062 0.066 0.042 -0.003 -0.014 0.031
C66 0.043 0.057 0.04 -0.001 0.004 0.019
C67 0.057 0.053 0.06 -0.02 0.002 0.027
C68 0.045 0.065 0.043 -0.018 -0.005 0.021
C69 0.05 0.066 0.053 0.002 0.01 0.031
C74 0.048 0.057 0.043 -0.012 0.004 0.031
C56 0.045 0.055 0.04 -0.011 0.003 0.025
C57 0.049 0.049 0.054 -0.008 0.012 0.017
C58 0.058 0.052 0.059 -0.013 0.008 0.023
C59 0.043 0.048 0.041 -0.01 0.002 0.026
C60 0.064 0.066 0.042 0.003 0.018 0.023
C61 0.067 0.047 0.046 0.004 0.017 0.033
C62 0.033 0.064 0.044 -0.013 0 0.015
loop_
_geom_bond_atom_site_label_1
_geom_bond_atom_site_label_2
_geom_bond_site_symmetry_1
_geom_bond_site_symmetry_2
O3 C25 1_555 1_555
O4 C25 1_555 1_555
C19 C20 1_555 1_555
C20 H14 1_555 1_555
C21 C20 1_555 1_555
H15 C21 1_555 1_555
C22 C21 1_555 1_555
C23 C22 1_555 1_555
H16 C23 1_555 1_555
C24 C19 1_555 1_555
H17 C24 1_555 1_555
C25 C22 1_555 1_555
Cd5 O3 1_555 1_555
O4 Cd5 1_555 1_555
C23 C24 1_555 1_555
O5 C32 1_555 1_555
O6 C32 1_555 1_555
C26 C27 1_555 1_555
C27 H18 1_555 1_555
C28 C27 1_555 1_555
H19 C28 1_555 1_555
C29 C28 1_555 1_555
C30 C29 1_555 1_555
H20 C30 1_555 1_555
C31 C26 1_555 1_555
H21 C31 1_555 1_555
C32 C29 1_555 1_555
Cd5 O5 1_555 1_555
Cd11 O6 1_555 1_555
C26 C37 1_555 1_555
C30 C31 1_555 1_555
N1 C8 1_555 1_555
C6 S1 1_555 1_555
C7 C6 1_555 1_555
H5 C7 1_555 1_555
C8 C7 1_555 1_555
H6 C8 1_555 1_555
C9 N1 1_555 1_555
H7 C9 1_555 1_555
C10 C6 1_555 1_555
H8 C10 1_555 1_555
C73 C72 1_555 1_555
Cd11 N1 1_555 1_555
C9 C10 1_555 1_555
Cd5 O1 1_555 1_555
Cd11 O1 1_555 1_555
O1 C11 1_555 1_555
O2 Cd5 1_555 1_555
N2 Cd5 1_555 1_555
C1 N2 1_555 1_555
H1 C1 1_555 1_555
C2 C1 1_555 1_555
C3 C2 1_555 1_555
C4 C3 1_555 1_555
H3 C4 1_555 1_555
C5 N2 1_555 1_555
H4 C5 1_555 1_555
C11 O2 1_555 1_555
C12 C11 1_555 1_555
C13 C12 1_555 1_555
H9 C13 1_555 1_555
C14 C13 1_555 1_555
H10 C14 1_555 1_555
C15 C14 1_555 1_555
C16 C15 1_555 1_555
H11 C16 1_555 1_555
C18 C12 1_555 1_555
H13 C18 1_555 1_555
C33 C15 1_555 1_555
C34 C33 1_555 1_555
H22 C34 1_555 1_555
Cd3 O7 1_555 1_555
O7 Cd11 1_555 1_555
O8 Cd3 1_555 1_555
N4 Cd3 1_555 1_555
C38 N4 1_555 1_555
H24 C38 1_555 1_555
C39 C38 1_555 1_555
C40 C39 1_555 1_555
C41 C40 1_555 1_555
H26 C41 1_555 1_555
C42 N4 1_555 1_555
H27 C42 1_555 1_555
C48 O7 1_555 1_555
C49 C48 1_555 1_555
C50 C49 1_555 1_555
H32 C50 1_555 1_555
C51 C50 1_555 1_555
H33 C51 1_555 1_555
C52 C51 1_555 1_555
C53 C52 1_555 1_555
H34 C53 1_555 1_555
C55 C49 1_555 1_555
H36 C55 1_555 1_555
C70 C52 1_555 1_555
C71 C70 1_555 1_555
H45 C71 1_555 1_555
O14 Cd3 1_555 1_555
O16 Cd3 1_555 1_555
O18 Cd3 1_555 1_555
O20 Cd11 1_555 1_555
N6 Cd11 1_555 1_555
C4 C5 1_555 1_555
C16 C18 1_555 1_555
C17 C33 1_555 1_555
O8 C48 1_555 1_555
C41 C42 1_555 1_555
C53 C55 1_555 1_555
C54 C70 1_555 1_555
C36 C35 1_555 1_555
N6 C45 1_555 1_555
C43 S2 1_555 1_555
C44 C43 1_555 1_555
H28 C44 1_555 1_555
C45 C44 1_555 1_555
H29 C45 1_555 1_555
C46 N6 1_555 1_555
H30 C46 1_555 1_555
C47 C43 1_555 1_555
H31 C47 1_555 1_555
C46 C47 1_555 1_555
O18 C69 1_555 1_555
O20 C69 1_555 1_555
C63 C64 1_555 1_555
C64 H41 1_555 1_555
C65 C64 1_555 1_555
H42 C65 1_555 1_555
C66 C65 1_555 1_555
C67 C66 1_555 1_555
H43 C67 1_555 1_555
C68 C63 1_555 1_555
H44 C68 1_555 1_555
C69 C66 1_555 1_555
C63 C74 1_555 1_555
C67 C68 1_555 1_555
O14 C62 1_555 1_555
O16 C62 1_555 1_555
C56 C57 1_555 1_555
C57 H37 1_555 1_555
C58 C57 1_555 1_555
H38 C58 1_555 1_555
C59 C58 1_555 1_555
C60 C59 1_555 1_555
H39 C60 1_555 1_555
C61 C56 1_555 1_555
H40 C61 1_555 1_555
C62 C59 1_555 1_555
C60 C61 1_555 1_555

#END
