
###############################################################################
#
# This file contains modified crystal structure data generated from the
# MOF subset of the Cambridge Structural Database (CSD) v543 
# hosted by the Cambridge Crystallographic Data Centre (CCDC).
#
# This work is licensed under the Creative Commons
# Attribution-NonCommercial-ShareAlike 4.0 International License.
# To view a copy of this license, visit
# http://creativecommons.org/licenses/by-nc-sa/4.0/
# or send a letter to
# Creative Commons, PO Box 1866, Mountain View, CA 94042, USA.
#
# CIF created using the CSD Python API on 29 September 2022
# The structure has been converted into the P1 space group
# The structure has a 3D framework
# The original CSD entry FIWNOR is in the triclinic crystal system
# The framework has been calculated to contain at least 10.0% void space
# The void calculation uses a probe of radius 1.32A, grid spacing 0.4
#
###############################################################################

data_FIWNOR
_chemical_formula_moiety         '(C172 H114 Cd6 N12 O20)n'
_symmetry_cell_setting           triclinic
_symmetry_space_group_name_H-M   'P 1'
_symmetry_Int_Tables_number      1
_space_group_name_Hall           'P 1'
loop_
_symmetry_equiv_pos_site_id
_symmetry_equiv_pos_as_xyz
1 x,y,z
_cell_length_a                   16.852(4)
_cell_length_b                   16.957(4)
_cell_length_c                   20.647(5)
_cell_angle_alpha                84.870(2)
_cell_angle_beta                 66.570(2)
_cell_angle_gamma                62.210(2)
_cell_volume                     4755.61
loop_
_atom_site_label
_atom_site_type_symbol
_atom_site_fract_x
_atom_site_fract_y
_atom_site_fract_z
O5 O 0.0280(4) 0.7493(4) 0.8562(3)
O6 O 0.0443(4) 0.8627(4) 0.7997(4)
O9 O 0.1677(5) 0.1010(4) 0.5333(4)
O10 O 0.2519(5) 0.1087(4) 0.5871(4)
O11 O 0.1770(4) 0.9099(4) 0.6343(3)
O12 O 0.2452(4) 0.8729(4) 0.5185(3)
C67 C 0.1864(6) 0.1462(5) 0.5633(4)
C68 C 0.1270(6) 0.2475(5) 0.5748(4)
C69 C 0.1570(6) 0.2983(6) 0.6008(5)
H46 H 0.211249 0.269654 0.613025
C70 C 0.1041(6) 0.3926(5) 0.6081(5)
H47 H 0.125559 0.426625 0.623482
C71 C 0.0217(6) 0.4365(5) 0.5933(4)
C73 C 0.0461(6) 0.2898(6) 0.5604(5)
H49 H 0.026189 0.255688 0.543357
C74 C 0.1873(5) 0.8713(5) 0.5787(5)
C75 C 0.1280(5) 0.8243(5) 0.5860(4)
C76 C 0.0388(6) 0.8479(5) 0.6432(4)
H50 H 0.014409 0.894434 0.678376
C78 C 0.0204(6) 0.7329(5) 0.5996(5)
C79 C 0.1111(6) 0.7096(6) 0.5417(5)
H52 H 0.136817 0.661684 0.507238
C80 C 0.1621(6) 0.7548(6) 0.5345(5)
H53 H 0.221113 0.739220 0.494423
C84 C 0.0144(5) 0.5872(5) 0.5960(4)
H55 H 0.081768 0.556429 0.585922
Cd5 Cd 0.12483(4) 0.71924(4) 0.91291(3)
Cd6 Cd 0.19728(4) 0.85121(4) 0.74100(3)
Cd9 Cd 0.29097(4) 0.96459(4) 0.55383(3)
O3 O 0.1419(5) 0.5772(5) 0.9317(5)
O4 O 0.2748(6) 0.5804(5) 0.8770(7)
N5 N 0.1099(5) 0.0037(5) 0.7832(4)
C23 C 0.0211(6) 0.0413(6) 0.8367(5)
C26 C 0.0807(7) 0.1523(6) 0.7526(5)
H21 H 0.103259 0.189108 0.722460
C27 C 0.1381(6) 0.0609(6) 0.7415(5)
H22 H 0.199984 0.036347 0.703253
C40 C 0.2330(6) 0.5365(6) 0.9009(5)
C41 C 0.2845(6) 0.4393(6) 0.9025(5)
C42 C 0.3859(7) 0.3862(7) 0.8638(8)
H31 H 0.423594 0.414283 0.837668
C43 C 0.4310(7) 0.2955(7) 0.8630(7)
H32 H 0.497950 0.262242 0.833510
C44 C 0.3810(6) 0.2503(6) 0.9048(5)
C45 C 0.2825(7) 0.3024(6) 0.9447(6)
H33 H 0.246460 0.274725 0.974302
C46 C 0.2335(7) 0.3958(7) 0.9429(7)
H34 H 0.165543 0.428545 0.969420
H37 H 0.722727 0.054645 0.817855
C54 C 0.4278(5) 0.0087(5) 0.9055(5)
C55 C 0.3799(6) 0.1019(5) 0.9139(5)
H39 H 0.311985 0.132702 0.925793
C56 C 0.4310(6) 0.1520(5) 0.9049(5)
C57 C 0.5316(6) 0.1031(5) 0.8909(5)
H40 H 0.566733 0.134713 0.885674
C58 C 0.5806(5) 0.0106(5) 0.8846(5)
O1 O 0.1559(5) 0.8126(5) 0.9638(3)
O2 O 0.2217(4) 0.7939(4) 0.8462(3)
O7 O 0.3530(4) 0.8306(4) 0.6909(3)
O8 O 0.3851(4) 0.9245(4) 0.6142(3)
N3 N 0.2627(5) 0.7060(4) 0.6921(5)
N4 N 0.4818(9) 0.2776(6) 0.4993(7)
C13 C 0.3582(9) 0.6589(10) 0.6549(12)
H11 H 0.399045 0.682066 0.655132
C14 C 0.4009(8) 0.5762(10) 0.6151(13)
H12 H 0.468631 0.547390 0.586778
C15 C 0.3459(7) 0.5367(7) 0.6166(7)
C16 C 0.2469(7) 0.5861(6) 0.6542(5)
H13 H 0.204680 0.564202 0.654744
C17 C 0.2094(6) 0.6673(6) 0.6909(5)
H14 H 0.141267 0.698530 0.717223
C18 C 0.3916(8) 0.4464(7) 0.5767(8)
C19 C 0.4860(11) 0.3808(9) 0.5657(13)
H15 H 0.522574 0.391491 0.584979
C20 C 0.5252(12) 0.3015(10) 0.5271(13)
H16 H 0.589988 0.259761 0.519678
C21 C 0.3948(10) 0.3366(9) 0.5091(7)
H17 H 0.361443 0.321871 0.489110
C22 C 0.3436(9) 0.4242(8) 0.5486(7)
H18 H 0.278972 0.464581 0.554680
C33 C 0.2109(6) 0.8243(5) 0.9053(5)
C34 C 0.2680(5) 0.8713(5) 0.9054(4)
C35 C 0.2399(6) 0.9234(6) 0.9676(5)
C36 C 0.2927(6) 0.9658(6) 0.9685(5)
C37 C 0.3741(5) 0.9584(5) 0.9074(5)
C38 C 0.4040(6) 0.9030(6) 0.8472(5)
H29 H 0.461183 0.893584 0.807176
C39 C 0.3502(6) 0.8615(6) 0.8459(5)
H30 H 0.369797 0.826500 0.804252
C47 C 0.9958(5) 0.8234(5) 0.8328(4)
C48 C 0.8879(5) 0.8702(5) 0.8454(4)
C49 C 0.8289(6) 0.8321(6) 0.8797(5)
H35 H 0.855865 0.775137 0.894616
C50 C 0.7293(5) 0.8762(5) 0.8931(5)
H36 H 0.689397 0.849782 0.918008
C51 C 0.6893(5) 0.9598(6) 0.8694(5)
C52 C 0.7491(6) 0.9984(6) 0.8340(5)
C53 C 0.8481(5) 0.9547(5) 0.8222(5)
H38 H 0.887934 0.981662 0.798666
C59 C 0.5291(6) 0.9624(5) 0.8901(5)
H41 H 0.562400 0.899346 0.883412
C60 C 0.4091(5) 0.8605(5) 0.6496(4)
C61 C 0.5124(5) 0.8150(5) 0.6448(4)
C62 C 0.5490(5) 0.7344(5) 0.6747(5)
H42 H 0.507142 0.710051 0.700197
C63 C 0.6469(6) 0.6903(6) 0.6669(5)
H43 H 0.670226 0.635829 0.686047
C64 C 0.7106(5) 0.7263(5) 0.6307(5)
C65 C 0.6715(5) 0.8088(5) 0.6032(5)
H44 H 0.711534 0.835921 0.580660
C66 C 0.5767(6) 0.8502(5) 0.6086(5)
H45 H 0.554441 0.903255 0.587524
C72 C 0.9907(6) 0.3854(5) 0.5706(5)
H48 H 0.933363 0.413712 0.562020
C77 C 0.9848(6) 0.8035(5) 0.6491(5)
H51 H 0.923472 0.821842 0.687352
C81 C 0.8155(6) 0.6788(5) 0.6211(5)
C82 C 0.8668(5) 0.5848(5) 0.6134(4)
H54 H 0.833675 0.551930 0.616326
C83 C 0.9662(5) 0.5386(5) 0.6015(4)
C85 C 0.9656(5) 0.6821(5) 0.6050(4)
C86 C 0.8658(5) 0.7268(5) 0.6185(5)
H56 H 0.831754 0.789877 0.626095
N7 N 0.4188(5) 0.9236(6) 0.4430(4)
N1 N 0.9811(5) 0.7669(5) 0.0188(4)
C1 C 0.9511(7) 0.7086(7) 0.0516(6)
H1 H 0.987826 0.648481 0.031067
C2 C 0.8685(7) 0.7317(8) 0.1148(6)
H2 H 0.849024 0.688456 0.135286
C3 C 0.8142(6) 0.8211(7) 0.1476(5)
C4 C 0.8442(6) 0.8813(7) 0.1120(5)
H3 H 0.808829 0.941993 0.131160
C5 C 0.9270(6) 0.8530(6) 0.0474(5)
H4 H 0.945047 0.895728 0.023369
C6 C 0.7280(8) 0.8496(9) 0.2166(6)
H5 H 0.718772 0.895732 0.245331
C7 C 0.6655(9) 0.8227(11) 0.2429(7)
H6 H 0.673485 0.774317 0.217647
C8 C 0.5788(9) 0.8631(13) 0.3124(6)
C9 C 0.4935(11) 0.863(2) 0.3217(8)
H7 H 0.488384 0.840957 0.284207
C10 C 0.4157(11) 0.896(2) 0.3868(7)
H8 H 0.356408 0.899498 0.391442
C11 C 0.5050(6) 0.9139(6) 0.4345(5)
H9 H 0.511898 0.926458 0.474795
C12 C 0.5852(6) 0.8868(6) 0.3706(4)
H10 H 0.643479 0.884589 0.367287
H28 H 0.273907 -0.000054 0.010416
H27 H 0.185203 0.929348 0.008601
H28_2 H 0.273907 0.999946 0.010416
N6 N 0.8089(10) 0.4768(8) 0.8571(8)
H19 H 0.999925 0.002348 0.864626
C24 C 0.9577(6) 0.1320(6) 0.8546(5)
H20 H 0.897714 0.154143 0.894650
C25 C 0.9875(6) 0.1905(6) 0.8096(5)
C28 C 0.9230(7) 0.2900(6) 0.8271(6)
C29 C 0.8573(8) 0.3297(7) 0.8947(6)
H23 H 0.847382 0.294744 0.932036
C30 C 0.8055(11) 0.4229(9) 0.9070(8)
H24 H 0.765164 0.449338 0.954308
C31 C 0.8725(11) 0.4397(8) 0.7919(9)
H25 H 0.878154 0.477610 0.756156
C32 C 0.9324(9) 0.3468(7) 0.7729(7)
H26 H 0.977341 0.322885 0.725753
N1_2 N 0.0189(5) 0.2331(5) 0.9812(4)
N2 N 0.5812(5) 0.0764(6) 0.5570(4)
C1_2 C 0.0489(7) 0.2914(7) 0.9484(6)
H1_2 H 0.012174 0.351519 0.968933
C2_2 C 0.1315(7) 0.2683(8) 0.8852(6)
H2_2 H 0.150976 0.311544 0.864714
C3_2 C 0.1858(6) 0.1789(7) 0.8524(5)
C4_2 C 0.1558(6) 0.1187(7) 0.8880(5)
H3_2 H 0.191171 0.058007 0.868840
C5_2 C 0.0730(6) 0.1470(6) 0.9526(5)
H4_2 H 0.054953 0.104272 0.976631
C6_2 C 0.2720(8) 0.1504(9) 0.7834(6)
H5_2 H 0.281228 0.104268 0.754669
C7_2 C 0.3345(9) 0.1773(11) 0.7571(7)
H6_2 H 0.326515 0.225683 0.782353
C8_2 C 0.4212(9) 0.1369(13) 0.6876(6)
C9_2 C 0.5065(11) 0.137(2) 0.6783(8)
H7_2 H 0.511616 0.159043 0.715793
C10_2 C 0.5843(11) 0.104(2) 0.6132(7)
H8_2 H 0.643592 0.100502 0.608558
C11_2 C 0.4950(6) 0.0861(6) 0.5655(5)
H9_2 H 0.488102 0.073542 0.525205
C12_2 C 0.4148(6) 0.1132(6) 0.6294(4)
H10_2 H 0.356521 0.115411 0.632713
Cd7 Cd 0.70903(4) 0.03541(4) 0.44617(3)
Cd1 Cd 0.87517(4) 0.28076(4) 0.08709(3)
Cd2 Cd 0.80272(4) 0.14879(4) 0.25900(3)
O1_2 O 0.8441(5) 0.1874(5) 0.0362(3)
O2_2 O 0.7783(4) 0.2061(4) 0.1538(3)
O7_2 O 0.6470(4) 0.1694(4) 0.3091(3)
O8_2 O 0.6149(4) 0.0755(4) 0.3858(3)
N3_2 N 0.7373(5) 0.2940(4) 0.3079(5)
N4_2 N 0.5182(9) 0.7224(6) 0.5007(7)
C13_2 C 0.6418(9) 0.3411(10) 0.3451(12)
H11_2 H 0.600955 0.317934 0.344868
C14_2 C 0.5991(8) 0.4238(10) 0.3849(13)
H12_2 H 0.531369 0.452610 0.413222
C15_2 C 0.6541(7) 0.4633(7) 0.3834(7)
C16_2 C 0.7531(7) 0.4139(6) 0.3458(5)
H13_2 H 0.795320 0.435798 0.345256
C17_2 C 0.7906(6) 0.3327(6) 0.3091(5)
H14_2 H 0.858733 0.301470 0.282777
C18_2 C 0.6084(8) 0.5536(7) 0.4233(8)
C19_2 C 0.5140(11) 0.6192(9) 0.4343(13)
H15_2 H 0.477426 0.608509 0.415021
C20_2 C 0.4748(12) 0.6985(10) 0.4729(13)
H16_2 H 0.410012 0.740239 0.480322
C21_2 C 0.6052(10) 0.6634(9) 0.4909(7)
H17_2 H 0.638557 0.678129 0.510890
C22_2 C 0.6564(9) 0.5758(8) 0.4514(7)
H18_2 H 0.721028 0.535419 0.445320
C33_2 C 0.7891(6) 0.1757(5) 0.0947(5)
C34_2 C 0.7320(5) 0.1287(5) 0.0946(4)
C35_2 C 0.7601(6) 0.0766(6) 0.0324(5)
C36_2 C 0.7073(6) 0.0342(6) 0.0315(5)
C37_2 C 0.6259(5) 0.0416(5) 0.0926(5)
C38_2 C 0.5960(6) 0.0970(6) 0.1528(5)
H29_2 H 0.538817 0.106416 0.192824
C39_2 C 0.6498(6) 0.1385(6) 0.1541(5)
H30_2 H 0.630203 0.173500 0.195748
C47_2 C 0.0042(5) 0.1766(5) 0.1672(4)
C48_2 C 0.1121(5) 0.1298(5) 0.1546(4)
C49_2 C 0.1711(6) 0.1679(6) 0.1203(5)
H35_2 H 0.144135 0.224863 0.105384
C50_2 C 0.2707(5) 0.1238(5) 0.1069(5)
H36_2 H 0.310603 0.150218 0.081992
C51_2 C 0.3107(5) 0.0402(6) 0.1306(5)
C52_2 C 0.2509(6) 0.0016(6) 0.1660(5)
C53_2 C 0.1519(5) 0.0453(5) 0.1778(5)
H38_2 H 0.112066 0.018338 0.201334
C59_2 C 0.4709(6) 0.0376(5) 0.1099(5)
H41_2 H 0.437600 0.100654 0.116588
C60_2 C 0.5909(5) 0.1395(5) 0.3504(4)
C61_2 C 0.4876(5) 0.1850(5) 0.3552(4)
C62_2 C 0.4510(5) 0.2656(5) 0.3253(5)
H42_2 H 0.492858 0.289949 0.299803
C63_2 C 0.3531(6) 0.3097(6) 0.3331(5)
H43_2 H 0.329774 0.364171 0.313953
C64_2 C 0.2894(5) 0.2737(5) 0.3693(5)
C65_2 C 0.3285(5) 0.1912(5) 0.3968(5)
H44_2 H 0.288466 0.164079 0.419340
C66_2 C 0.4233(6) 0.1498(5) 0.3914(5)
H45_2 H 0.445559 0.096745 0.412476
C72_2 C 0.0093(6) 0.6146(5) 0.4294(5)
H48_2 H 0.066637 0.586288 0.437980
C77_2 C 0.0152(6) 0.1965(5) 0.3509(5)
H51_2 H 0.076528 0.178158 0.312648
C81_2 C 0.1845(6) 0.3212(5) 0.3789(5)
C82_2 C 0.1332(5) 0.4152(5) 0.3866(4)
H54_2 H 0.166325 0.448070 0.383674
C83_2 C 0.0338(5) 0.4614(5) 0.3985(4)
C85_2 C 0.0344(5) 0.3179(5) 0.3950(4)
C86_2 C 0.1342(5) 0.2732(5) 0.3815(5)
H56_2 H 0.168246 0.210123 0.373905
O13 O 0.8581(5) 0.4228(5) 0.0683(5)
O14 O 0.7252(6) 0.4196(5) 0.1230(7)
O15 O 0.9720(4) 0.2507(4) 0.1438(3)
O16 O 0.9557(4) 0.1373(4) 0.2003(4)
O19 O 0.8230(4) 0.0901(4) 0.3657(3)
O20 O 0.7548(4) 0.1271(4) 0.4815(3)
N5_2 N 0.8901(5) 0.9963(5) 0.2168(4)
C23_2 C 0.9789(6) 0.9587(6) 0.1633(5)
C26_2 C 0.9193(7) 0.8477(6) 0.2474(5)
H21_2 H 0.896741 0.810892 0.277540
C27_2 C 0.8619(6) 0.9391(6) 0.2585(5)
H22_2 H 0.800016 0.963653 0.296747
C40_2 C 0.7670(6) 0.4635(6) 0.0991(5)
C41_2 C 0.7155(6) 0.5607(6) 0.0975(5)
C42_2 C 0.6141(7) 0.6138(7) 0.1362(8)
H31_2 H 0.576406 0.585717 0.162332
C43_2 C 0.5690(7) 0.7045(7) 0.1370(7)
H32_2 H 0.502050 0.737758 0.166490
C44_2 C 0.6190(6) 0.7497(6) 0.0952(5)
C45_2 C 0.7175(7) 0.6976(6) 0.0553(6)
H33_2 H 0.753540 0.725275 0.025698
C46_2 C 0.7665(7) 0.6042(7) 0.0571(7)
H34_2 H 0.834457 0.571455 0.030580
H37_2 H 0.277273 0.945355 0.182145
C54_2 C 0.5722(5) 0.9913(5) 0.0945(5)
C55_2 C 0.6201(6) 0.8981(5) 0.0861(5)
H39_2 H 0.688015 0.867298 0.074207
C56_2 C 0.5690(6) 0.8480(5) 0.0951(5)
C57_2 C 0.4684(6) 0.8969(5) 0.1091(5)
H40_2 H 0.433267 0.865287 0.114326
C58_2 C 0.4194(5) 0.9894(5) 0.1154(5)
O17 O 0.8323(5) 0.8990(4) 0.4667(4)
O18 O 0.7481(5) 0.8913(4) 0.4129(4)
C67_2 C 0.8136(6) 0.8538(5) 0.4367(4)
C68_2 C 0.8730(6) 0.7525(5) 0.4252(4)
C69_2 C 0.8430(6) 0.7017(6) 0.3992(5)
H46_2 H 0.788751 0.730346 0.386975
C70_2 C 0.8959(6) 0.6074(5) 0.3919(5)
H47_2 H 0.874441 0.573375 0.376518
C71_2 C 0.9783(6) 0.5635(5) 0.4067(4)
C73_2 C 0.9539(6) 0.7102(6) 0.4396(5)
H49_2 H 0.973811 0.744312 0.456643
C74_2 C 0.8127(5) 0.1287(5) 0.4213(5)
C75_2 C 0.8720(5) 0.1757(5) 0.4140(4)
C76_2 C 0.9612(6) 0.1521(5) 0.3568(4)
H50_2 H 0.985591 0.105566 0.321624
C78_2 C 0.9796(6) 0.2671(5) 0.4004(5)
C79_2 C 0.8889(6) 0.2904(6) 0.4583(5)
H52_2 H 0.863183 0.338316 0.492762
C80_2 C 0.8379(6) 0.2452(6) 0.4655(5)
H53_2 H 0.778887 0.260780 0.505577
C84_2 C 0.9856(5) 0.4128(5) 0.4040(4)
H55_2 H 0.918232 0.443571 0.414078
N6_2 N 0.1911(10) 0.5232(8) 0.1429(8)
H19_2 H 0.000075 0.997652 0.135374
C24_2 C 0.0423(6) 0.8680(6) 0.1454(5)
H20_2 H 0.102286 0.845857 0.105350
C25_2 C 0.0125(6) 0.8095(6) 0.1904(5)
C28_2 C 0.0770(7) 0.7100(6) 0.1729(6)
C29_2 C 0.1427(8) 0.6703(7) 0.1053(6)
H23_2 H 0.152618 0.705256 0.067964
C30_2 C 0.1945(11) 0.5771(9) 0.0930(8)
H24_2 H 0.234836 0.550662 0.045692
C31_2 C 0.1275(11) 0.5603(8) 0.2081(9)
H25_2 H 0.121846 0.522390 0.243844
C32_2 C 0.0676(9) 0.6532(7) 0.2271(7)
H26_2 H 0.022659 0.677115 0.274247
H27_2 H 0.814797 0.070652 0.991399
H28_3 H 0.726093 0.000054 0.989584
H28_4 H 0.726093 1.000054 0.989584
loop_
_geom_bond_atom_site_label_1
_geom_bond_atom_site_label_2
_geom_bond_site_symmetry_1
_geom_bond_site_symmetry_2
O9 C67 1_555 1_555
O10 C67 1_555 1_555
O11 C74 1_555 1_555
O12 C74 1_555 1_555
C67 C68 1_555 1_555
C68 C69 1_555 1_555
C69 H46 1_555 1_555
C70 C69 1_555 1_555
H47 C70 1_555 1_555
C71 C70 1_555 1_555
C73 C68 1_555 1_555
H49 C73 1_555 1_555
C74 C75 1_555 1_555
C75 C76 1_555 1_555
C76 H50 1_555 1_555
C79 C78 1_555 1_555
H52 C79 1_555 1_555
C80 C75 1_555 1_555
H53 C80 1_555 1_555
H55 C84 1_555 1_555
Cd5 O5 1_555 1_555
Cd6 O6 1_555 1_555
Cd9 O11 1_555 1_555
O11 Cd6 1_555 1_555
O12 Cd9 1_555 1_555
C79 C80 1_555 1_555
O3 C40 1_555 1_555
O4 C40 1_555 1_555
C23 N5 1_555 1_555
H21 C26 1_555 1_555
C27 N5 1_555 1_555
H22 C27 1_555 1_555
C40 C41 1_555 1_555
C41 C42 1_555 1_555
C42 H31 1_555 1_555
C43 C42 1_555 1_555
H32 C43 1_555 1_555
C44 C43 1_555 1_555
C45 C44 1_555 1_555
H33 C45 1_555 1_555
C46 C41 1_555 1_555
H34 C46 1_555 1_555
C55 C54 1_555 1_555
H39 C55 1_555 1_555
C56 C44 1_555 1_555
C57 C56 1_555 1_555
H40 C57 1_555 1_555
Cd5 O3 1_555 1_555
O4 Cd5 1_555 1_555
C26 C27 1_555 1_555
C45 C46 1_555 1_555
C55 C56 1_555 1_555
C57 C58 1_555 1_555
Cd5 O1 1_555 1_555
Cd6 O2 1_555 1_555
Cd9 O8 1_555 1_555
O1 C33 1_555 1_555
O2 Cd5 1_555 1_555
O7 Cd6 1_555 1_555
O8 C60 1_555 1_555
N3 Cd6 1_555 1_555
N4 C20 1_555 1_555
C13 N3 1_555 1_555
H11 C13 1_555 1_555
C14 C13 1_555 1_555
H12 C14 1_555 1_555
C15 C14 1_555 1_555
C16 C15 1_555 1_555
H13 C16 1_555 1_555
C17 N3 1_555 1_555
H14 C17 1_555 1_555
C18 C15 1_555 1_555
C19 C18 1_555 1_555
H15 C19 1_555 1_555
C20 C19 1_555 1_555
H16 C20 1_555 1_555
C21 N4 1_555 1_555
H17 C21 1_555 1_555
C22 C18 1_555 1_555
H18 C22 1_555 1_555
C33 O2 1_555 1_555
C34 C33 1_555 1_555
C35 C34 1_555 1_555
C36 C35 1_555 1_555
C37 C36 1_555 1_555
C38 C37 1_555 1_555
H29 C38 1_555 1_555
C39 C34 1_555 1_555
H30 C39 1_555 1_555
C47 C48 1_555 1_555
C48 C49 1_555 1_555
C49 H35 1_555 1_555
C50 C49 1_555 1_555
H36 C50 1_555 1_555
C51 C50 1_555 1_555
C52 C51 1_555 1_555
C53 C48 1_555 1_555
H38 C53 1_555 1_555
H41 C59 1_555 1_555
C60 O7 1_555 1_555
C61 C60 1_555 1_555
C62 C61 1_555 1_555
H42 C62 1_555 1_555
C63 C62 1_555 1_555
H43 C63 1_555 1_555
C64 C63 1_555 1_555
C65 C64 1_555 1_555
H44 C65 1_555 1_555
C66 C61 1_555 1_555
H45 C66 1_555 1_555
H48 C72 1_555 1_555
H51 C77 1_555 1_555
C81 C64 1_555 1_555
C82 C81 1_555 1_555
H54 C82 1_555 1_555
C86 C81 1_555 1_555
H56 C86 1_555 1_555
N7 Cd9 1_555 1_555
C16 C17 1_555 1_555
C21 C22 1_555 1_555
C38 C39 1_555 1_555
C52 C53 1_555 1_555
C65 C66 1_555 1_555
C82 C83 1_555 1_555
C85 C86 1_555 1_555
N7 C10 1_555 1_555
C1 N1 1_555 1_555
H1 C1 1_555 1_555
C2 C1 1_555 1_555
H2 C2 1_555 1_555
C3 C2 1_555 1_555
C4 C3 1_555 1_555
H3 C4 1_555 1_555
C5 N1 1_555 1_555
H4 C5 1_555 1_555
C6 C3 1_555 1_555
H5 C6 1_555 1_555
C7 C6 1_555 1_555
H6 C7 1_555 1_555
C8 C7 1_555 1_555
C9 C8 1_555 1_555
H7 C9 1_555 1_555
C10 C9 1_555 1_555
H8 C10 1_555 1_555
C11 N7 1_555 1_555
H9 C11 1_555 1_555
C12 C8 1_555 1_555
H10 C12 1_555 1_555
C4 C5 1_555 1_555
C11 C12 1_555 1_555
N6 C30 1_555 1_555
H20 C24 1_555 1_555
C25 C24 1_555 1_555
C28 C25 1_555 1_555
C29 C28 1_555 1_555
H23 C29 1_555 1_555
C30 C29 1_555 1_555
H24 C30 1_555 1_555
C31 N6 1_555 1_555
H25 C31 1_555 1_555
C32 C28 1_555 1_555
H26 C32 1_555 1_555
C31 C32 1_555 1_555
N2 C10_2 1_555 1_555
C1_2 N1_2 1_555 1_555
H1_2 C1_2 1_555 1_555
C2_2 C1_2 1_555 1_555
H2_2 C2_2 1_555 1_555
C3_2 C2_2 1_555 1_555
C4_2 C3_2 1_555 1_555
H3_2 C4_2 1_555 1_555
C5_2 N1_2 1_555 1_555
H4_2 C5_2 1_555 1_555
C6_2 C3_2 1_555 1_555
H5_2 C6_2 1_555 1_555
C7_2 C6_2 1_555 1_555
H6_2 C7_2 1_555 1_555
C8_2 C7_2 1_555 1_555
C9_2 C8_2 1_555 1_555
H7_2 C9_2 1_555 1_555
C10_2 C9_2 1_555 1_555
H8_2 C10_2 1_555 1_555
C11_2 N2 1_555 1_555
H9_2 C11_2 1_555 1_555
C12_2 C8_2 1_555 1_555
H10_2 C12_2 1_555 1_555
Cd7 N2 1_555 1_555
C4_2 C5_2 1_555 1_555
C11_2 C12_2 1_555 1_555
Cd1 O1_2 1_555 1_555
Cd2 O2_2 1_555 1_555
Cd7 O8_2 1_555 1_555
O1_2 C33_2 1_555 1_555
O2_2 Cd1 1_555 1_555
O7_2 Cd2 1_555 1_555
O8_2 C60_2 1_555 1_555
N3_2 Cd2 1_555 1_555
N4_2 C20_2 1_555 1_555
C13_2 N3_2 1_555 1_555
H11_2 C13_2 1_555 1_555
C14_2 C13_2 1_555 1_555
H12_2 C14_2 1_555 1_555
C15_2 C14_2 1_555 1_555
C16_2 C15_2 1_555 1_555
H13_2 C16_2 1_555 1_555
C17_2 N3_2 1_555 1_555
H14_2 C17_2 1_555 1_555
C18_2 C15_2 1_555 1_555
C19_2 C18_2 1_555 1_555
H15_2 C19_2 1_555 1_555
C20_2 C19_2 1_555 1_555
H16_2 C20_2 1_555 1_555
C21_2 N4_2 1_555 1_555
H17_2 C21_2 1_555 1_555
C22_2 C18_2 1_555 1_555
H18_2 C22_2 1_555 1_555
C33_2 O2_2 1_555 1_555
C34_2 C33_2 1_555 1_555
C35_2 C34_2 1_555 1_555
C36_2 C35_2 1_555 1_555
C37_2 C36_2 1_555 1_555
C38_2 C37_2 1_555 1_555
H29_2 C38_2 1_555 1_555
C39_2 C34_2 1_555 1_555
H30_2 C39_2 1_555 1_555
C47_2 C48_2 1_555 1_555
C48_2 C49_2 1_555 1_555
C49_2 H35_2 1_555 1_555
C50_2 C49_2 1_555 1_555
H36_2 C50_2 1_555 1_555
C51_2 C50_2 1_555 1_555
C52_2 C51_2 1_555 1_555
C53_2 C48_2 1_555 1_555
H38_2 C53_2 1_555 1_555
H41_2 C59_2 1_555 1_555
C60_2 O7_2 1_555 1_555
C61_2 C60_2 1_555 1_555
C62_2 C61_2 1_555 1_555
H42_2 C62_2 1_555 1_555
C63_2 C62_2 1_555 1_555
H43_2 C63_2 1_555 1_555
C64_2 C63_2 1_555 1_555
C65_2 C64_2 1_555 1_555
H44_2 C65_2 1_555 1_555
C66_2 C61_2 1_555 1_555
H45_2 C66_2 1_555 1_555
H48_2 C72_2 1_555 1_555
H51_2 C77_2 1_555 1_555
C81_2 C64_2 1_555 1_555
C82_2 C81_2 1_555 1_555
H54_2 C82_2 1_555 1_555
C86_2 C81_2 1_555 1_555
H56_2 C86_2 1_555 1_555
O13 Cd1 1_555 1_555
O14 Cd1 1_555 1_555
O15 Cd1 1_555 1_555
O16 Cd2 1_555 1_555
O19 Cd2 1_555 1_555
O20 Cd7 1_555 1_555
Cd7 O19 1_555 1_555
C16_2 C17_2 1_555 1_555
C21_2 C22_2 1_555 1_555
C38_2 C39_2 1_555 1_555
C52_2 C53_2 1_555 1_555
C65_2 C66_2 1_555 1_555
C82_2 C83_2 1_555 1_555
C85_2 C86_2 1_555 1_555
O13 C40_2 1_555 1_555
O14 C40_2 1_555 1_555
C23_2 N5_2 1_555 1_555
H21_2 C26_2 1_555 1_555
C27_2 N5_2 1_555 1_555
H22_2 C27_2 1_555 1_555
C40_2 C41_2 1_555 1_555
C41_2 C42_2 1_555 1_555
C42_2 H31_2 1_555 1_555
C43_2 C42_2 1_555 1_555
H32_2 C43_2 1_555 1_555
C44_2 C43_2 1_555 1_555
C45_2 C44_2 1_555 1_555
H33_2 C45_2 1_555 1_555
C46_2 C41_2 1_555 1_555
H34_2 C46_2 1_555 1_555
C55_2 C54_2 1_555 1_555
H39_2 C55_2 1_555 1_555
C56_2 C44_2 1_555 1_555
C57_2 C56_2 1_555 1_555
H40_2 C57_2 1_555 1_555
C26_2 C27_2 1_555 1_555
C45_2 C46_2 1_555 1_555
C55_2 C56_2 1_555 1_555
C57_2 C58_2 1_555 1_555
O17 C67_2 1_555 1_555
O18 C67_2 1_555 1_555
O19 C74_2 1_555 1_555
O20 C74_2 1_555 1_555
C67_2 C68_2 1_555 1_555
C68_2 C69_2 1_555 1_555
C69_2 H46_2 1_555 1_555
C70_2 C69_2 1_555 1_555
H47_2 C70_2 1_555 1_555
C71_2 C70_2 1_555 1_555
C73_2 C68_2 1_555 1_555
H49_2 C73_2 1_555 1_555
C74_2 C75_2 1_555 1_555
C75_2 C76_2 1_555 1_555
C76_2 H50_2 1_555 1_555
C79_2 C78_2 1_555 1_555
H52_2 C79_2 1_555 1_555
C80_2 C75_2 1_555 1_555
H53_2 C80_2 1_555 1_555
H55_2 C84_2 1_555 1_555
C79_2 C80_2 1_555 1_555
N6_2 C30_2 1_555 1_555
H20_2 C24_2 1_555 1_555
C25_2 C24_2 1_555 1_555
C28_2 C25_2 1_555 1_555
C29_2 C28_2 1_555 1_555
H23_2 C29_2 1_555 1_555
C30_2 C29_2 1_555 1_555
H24_2 C30_2 1_555 1_555
C31_2 N6_2 1_555 1_555
H25_2 C31_2 1_555 1_555
C32_2 C28_2 1_555 1_555
H26_2 C32_2 1_555 1_555
C31_2 C32_2 1_555 1_555

#END
