
###############################################################################
#
# This file contains modified crystal structure data generated from the
# MOF subset of the Cambridge Structural Database (CSD) v543 
# hosted by the Cambridge Crystallographic Data Centre (CCDC).
#
# This work is licensed under the Creative Commons
# Attribution-NonCommercial-ShareAlike 4.0 International License.
# To view a copy of this license, visit
# http://creativecommons.org/licenses/by-nc-sa/4.0/
# or send a letter to
# Creative Commons, PO Box 1866, Mountain View, CA 94042, USA.
#
# CIF created using the CSD Python API on 29 September 2022
# The structure has been converted into the P1 space group
# The structure has a 3D framework
# The original CSD entry FIWPIN is in the triclinic crystal system
# The framework has been calculated to contain at least 10.0% void space
# The void calculation uses a probe of radius 1.32A, grid spacing 0.4
#
###############################################################################

data_FIWPIN
_chemical_formula_moiety         '(C140 H92 Cd4 N8 O26)n'
_symmetry_cell_setting           triclinic
_symmetry_space_group_name_H-M   'P 1'
_symmetry_Int_Tables_number      1
_space_group_name_Hall           'P 1'
loop_
_symmetry_equiv_pos_site_id
_symmetry_equiv_pos_as_xyz
1 x,y,z
_cell_length_a                   14.6314(13)
_cell_length_b                   16.8317(16)
_cell_length_c                   19.7532(18)
_cell_angle_alpha                76.9900(10)
_cell_angle_beta                 72.8390(10)
_cell_angle_gamma                75.8750(10)
_cell_volume                     4445.57
loop_
_atom_site_label
_atom_site_type_symbol
_atom_site_fract_x
_atom_site_fract_y
_atom_site_fract_z
Cd1 Cd 0.11085(4) 0.32291(4) 0.37672(3)
Cd2 Cd 0.00195(4) 0.25972(4) 0.24743(3)
O7 O 0.0935(5) 0.2602(4) 0.1358(3)
O8 O 0.0468(4) 0.1742(4) 0.0856(3)
O13 O 0.0191(7) 0.3950(5) 0.2324(5)
H1 H 0.072539 0.398225 0.203086
N1 N 0.1012(5) 0.3147(4) 0.4964(4)
C1 C 0.1079(8) 0.2414(6) 0.5391(5)
H3 H 0.127538 0.193594 0.517412
C2 C 0.0880(8) 0.2306(7) 0.6134(5)
H4 H 0.095811 0.177295 0.641095
C3 C 0.0560(7) 0.3020(6) 0.6455(5)
C4 C 0.0534(9) 0.3774(6) 0.6014(5)
H5 H 0.036615 0.426288 0.621286
C5 C 0.0751(8) 0.3823(6) 0.5280(5)
H6 H 0.071610 0.434971 0.498965
C6 C 0.0249(7) 0.2927(7) 0.7252(5)
H7 H 0.025499 0.337602 0.745890
C16 C 0.0655(9) 0.0621(7) 0.2348(6)
H16 H 0.121620 0.079472 0.203017
C44 C 0.1058(6) 0.2169(5) 0.0877(5)
C45 C 0.2001(6) 0.2137(6) 0.0319(4)
C50 C 0.2683(6) 0.2564(5) 0.0323(5)
H35 H 0.254575 0.289457 0.067928
O18 O 0.2554(5) 0.3784(4) 0.3344(4)
O19 O 0.1149(4) 0.4608(4) 0.3336(4)
O20 O 0.1869(5) 0.1796(4) 0.3871(3)
O21 O 0.1476(4) 0.2405(3) 0.2850(3)
C58 C 0.1889(6) 0.1793(5) 0.3241(5)
C59 C 0.2415(6) 0.1034(5) 0.2914(4)
C60 C 0.2492(6) 0.0251(5) 0.3351(4)
H40 H 0.223366 0.021013 0.385035
C63 C 0.3331(7) 0.0352(5) 0.1901(5)
H42 H 0.364938 0.039212 0.140934
C64 C 0.2856(6) 0.1064(5) 0.2161(4)
H43 H 0.281703 0.157462 0.184792
C46 C 0.7768(7) 0.8370(6) 0.0212(5)
H32 H 0.821189 0.868623 0.021866
C47 C 0.6891(7) 0.8397(6) 0.0719(5)
H33 H 0.675758 0.871056 0.108712
C48 C 0.6190(6) 0.7969(5) 0.0702(4)
C49 C 0.6441(6) 0.7476(5) 0.0177(5)
H34 H 0.599824 0.716198 0.016471
C51 C 0.2059(6) 0.4495(5) 0.3210(4)
C52 C 0.2557(6) 0.5215(5) 0.2878(4)
C53 C 0.3561(7) 0.5121(6) 0.2694(5)
H36 H 0.394656 0.458939 0.276858
C54 C 0.4001(6) 0.5800(5) 0.2402(5)
H37 H 0.468493 0.572156 0.227420
C55 C 0.3454(6) 0.6603(5) 0.2291(4)
C56 C 0.2444(6) 0.6690(6) 0.2472(5)
H38 H 0.205094 0.721666 0.239389
C57 C 0.2019(7) 0.5993(6) 0.2770(5)
H39 H 0.133554 0.606294 0.290022
C61 C 0.2939(6) 0.9545(5) 0.3059(5)
H41 H 0.295892 0.902455 0.335946
C62 C 0.3373(6) 0.9589(5) 0.2310(4)
C65 C 0.5246(6) 0.8007(5) 0.1255(4)
C66 C 0.4803(6) 0.7318(5) 0.1506(4)
H44 H 0.511227 0.682328 0.132290
C67 C 0.3914(6) 0.7337(5) 0.2021(4)
C68 C 0.3450(6) 0.8096(5) 0.2273(5)
H45 H 0.284536 0.812410 0.261527
C69 C 0.3864(6) 0.8801(5) 0.2028(4)
C70 C 0.4754(6) 0.8764(5) 0.1506(4)
H46 H 0.502774 0.924355 0.132017
O9 O 0.7446(5) 0.6216(4) 0.6656(4)
O10 O 0.8851(4) 0.5392(4) 0.6664(4)
C46_2 C 0.2232(7) 0.1630(6) 0.9788(5)
H32_2 H 0.178811 0.131377 0.978134
C47_2 C 0.3109(7) 0.1603(6) 0.9281(5)
H33_2 H 0.324242 0.128944 0.891288
C48_2 C 0.3810(6) 0.2031(5) 0.9298(4)
C49_2 C 0.3559(6) 0.2524(5) 0.9823(5)
H34_2 H 0.400176 0.283802 0.983529
C51_2 C 0.7941(6) 0.5505(5) 0.6790(4)
C52_2 C 0.7443(6) 0.4785(5) 0.7122(4)
C53_2 C 0.6439(7) 0.4879(6) 0.7306(5)
H36_2 H 0.605344 0.541061 0.723142
C54_2 C 0.5999(6) 0.4200(5) 0.7598(5)
H37_2 H 0.531507 0.427844 0.772580
C55_2 C 0.6546(6) 0.3397(5) 0.7709(4)
C56_2 C 0.7556(6) 0.3310(6) 0.7528(5)
H38_2 H 0.794906 0.278334 0.760611
C57_2 C 0.7981(7) 0.4007(6) 0.7230(5)
H39_2 H 0.866446 0.393706 0.709978
C61_2 C 0.7061(6) 0.0455(5) 0.6941(5)
H41_2 H 0.704108 0.097545 0.664054
C62_2 C 0.6627(6) 0.0411(5) 0.7690(4)
C65_2 C 0.4754(6) 0.1993(5) 0.8745(4)
C66_2 C 0.5197(6) 0.2682(5) 0.8494(4)
H44_2 H 0.488773 0.317672 0.867710
C67_2 C 0.6086(6) 0.2663(5) 0.7979(4)
C68_2 C 0.6550(6) 0.1904(5) 0.7727(5)
H45_2 H 0.715464 0.187590 0.738473
C69_2 C 0.6136(6) 0.1199(5) 0.7972(4)
C70_2 C 0.5246(6) 0.1236(5) 0.8494(4)
H46_2 H 0.497226 0.075645 0.867983
Cd5 Cd 0.88915(4) 0.67709(4) 0.62328(3)
O11 O 0.8131(5) 0.8204(4) 0.6129(3)
O12 O 0.8524(4) 0.7595(3) 0.7150(3)
C58_2 C 0.8111(6) 0.8207(5) 0.6759(5)
C59_2 C 0.7585(6) 0.8966(5) 0.7086(4)
C60_2 C 0.7508(6) 0.9749(5) 0.6649(4)
H40_2 H 0.776634 0.978987 0.614965
C63_2 C 0.6669(7) 0.9648(5) 0.8099(5)
H42_2 H 0.635062 0.960788 0.859066
C64_2 C 0.7144(6) 0.8936(5) 0.7839(4)
H43_2 H 0.718297 0.842538 0.815208
Cd7 Cd 0.99805(4) 0.74028(4) 0.75257(3)
O7_2 O 0.9065(5) 0.7398(4) 0.8642(3)
O8_2 O 0.9532(4) 0.8258(4) 0.9144(3)
O13_2 O 0.9809(7) 0.6050(5) 0.7676(5)
H1_2 H 0.927461 0.601775 0.796914
N1_2 N 0.8988(5) 0.6853(4) 0.5036(4)
C1_2 C 0.8921(8) 0.7586(6) 0.4609(5)
H3_2 H 0.872462 0.806406 0.482588
C2_2 C 0.9120(8) 0.7694(7) 0.3866(5)
H4_2 H 0.904189 0.822705 0.358905
C3_2 C 0.9440(7) 0.6980(6) 0.3545(5)
C4_2 C 0.9466(9) 0.6226(6) 0.3986(5)
H5_2 H 0.963385 0.573712 0.378714
C5_2 C 0.9249(8) 0.6177(6) 0.4720(5)
H6_2 H 0.928390 0.565029 0.501035
C6_2 C 0.9751(7) 0.7073(7) 0.2748(5)
H7_2 H 0.974501 0.662398 0.254110
C16_2 C 0.9345(9) 0.9379(7) 0.7652(6)
H16_2 H 0.878380 0.920528 0.796983
C44_2 C 0.8942(6) 0.7831(5) 0.9123(5)
C45_2 C 0.7999(6) 0.7863(6) 0.9681(4)
C50_2 C 0.7317(6) 0.7436(5) 0.9677(5)
H35_2 H 0.745425 0.710543 0.932072
C15 C 0.0612(11) 0.9775(7) 0.2482(8)
H15 H 0.114622 0.939924 0.225997
Cd8 Cd 0.88516(4) 0.19582(4) 0.11902(3)
O1 O 0.9497(4) 0.3310(5) 0.4158(3)
O2 O 0.9051(4) 0.2549(4) 0.3570(3)
O3 O 0.1834(5) 0.6598(4) 0.8923(3)
O4 O 0.1435(4) 0.7214(4) 0.7921(3)
H2 H 0.970379 0.429075 0.248647
N2 N 0.9014(6) 0.2043(5) 0.9984(4)
N3 N 0.9942(6) 0.1186(5) 0.2647(4)
C7 C 0.9970(7) 0.2274(6) 0.7689(5)
H8 H 0.998414 0.181512 0.748533
C8 C 0.9627(8) 0.2200(7) 0.8489(5)
C9 C 0.9591(7) 0.1439(7) 0.8919(5)
H9 H 0.975586 0.095402 0.871372
C10 C 0.9306(7) 0.1389(6) 0.9669(5)
H10 H 0.932626 0.086146 0.995728
C11 C 0.9024(10) 0.2772(7) 0.9559(5)
H11 H 0.881356 0.324746 0.978060
C12 C 0.9312(10) 0.2893(7) 0.8830(6)
H12 H 0.929901 0.343173 0.856296
C13 C 0.9183(10) 0.0925(7) 0.3051(6)
H13 H 0.865994 0.130626 0.327629
C14 C 0.9098(13) 0.0090(9) 0.3174(7)
C17 C 0.8928(6) 0.2914(5) 0.4085(4)
C18 C 0.7992(6) 0.2885(5) 0.4666(4)
C19 C 0.7804(7) 0.3226(6) 0.5281(5)
H17 H 0.827831 0.347103 0.534594
C20 C 0.6939(6) 0.3214(6) 0.5799(5)
H18 H 0.683786 0.344301 0.621275
C21 C 0.6212(6) 0.2871(5) 0.5724(4)
C22 C 0.6396(6) 0.2499(5) 0.5112(4)
H19 H 0.593101 0.223279 0.506114
C23 C 0.7265(6) 0.2527(5) 0.4584(4)
H20 H 0.736785 0.230459 0.416544
C24 C 0.1838(6) 0.6578(5) 0.8296(5)
C25 C 0.2341(6) 0.5819(5) 0.7974(4)
C26 C 0.2534(6) 0.5061(5) 0.8414(5)
H21 H 0.233276 0.502684 0.891636
C27 C 0.3023(6) 0.4354(5) 0.8114(5)
H22 H 0.312663 0.384238 0.841872
C28 C 0.3359(6) 0.4383(5) 0.7384(5)
C29 C 0.3178(7) 0.5142(5) 0.6938(5)
H23 H 0.340961 0.517852 0.643684
C30 C 0.2652(7) 0.5850(6) 0.7237(5)
H24 H 0.250859 0.635373 0.693190
C32 C 0.2625(6) 0.0017(5) 0.7912(5)
C34 C 0.4082(6) 0.0606(5) 0.7421(5)
H26 H 0.476558 0.053064 0.728760
C35 C 0.3530(6) 0.1392(5) 0.7320(4)
C36 C 0.2527(6) 0.1480(5) 0.7499(5)
H27 H 0.214226 0.201200 0.742476
C37 C 0.2080(7) 0.0804(6) 0.7784(5)
H28 H 0.139759 0.087862 0.789301
C38 C 0.5266(6) 0.2875(5) 0.6270(4)
C39 C 0.4759(6) 0.3609(5) 0.6541(4)
H29 H 0.501279 0.409842 0.636115
C40 C 0.3880(6) 0.3620(5) 0.7074(4)
C41 C 0.3505(6) 0.2896(5) 0.7323(4)
H30 H 0.292262 0.289922 0.768813
C42 C 0.3969(6) 0.2156(5) 0.7045(5)
C43 C 0.4854(6) 0.2156(5) 0.6522(4)
H31 H 0.517968 0.166705 0.633461
Cd10 Cd 0.11484(4) 0.80418(4) 0.88098(3)
O14 O 0.8166(5) 0.3402(4) 0.1077(3)
O15 O 0.8565(4) 0.2786(4) 0.2079(3)
O16 O 0.8794(5) 0.0579(4) 0.1592(4)
O17 O 0.7384(4) 0.1411(4) 0.1628(4)
O5 O 0.1206(5) 0.9421(4) 0.8408(4)
O6 O 0.2616(4) 0.8589(4) 0.8372(4)
N4 N 0.9837(11) 0.9494(6) 0.2914(6)
H14 H 0.850248 0.994007 0.344739
C31 C 0.2121(7) 0.9304(5) 0.8246(4)
C33 C 0.3634(6) 0.9925(5) 0.7719(5)
H25 H 0.401869 0.939289 0.779063
N4_2 N 0.0163(11) 0.0506(6) 0.7086(6)
H14_2 H 0.149752 0.005993 0.655261
C31_2 C 0.7879(7) 0.0696(5) 0.1754(4)
C33_2 C 0.6366(6) 0.0075(5) 0.2281(5)
H25_2 H 0.598131 0.060711 0.220937
N5 N 0.0986(6) 0.7957(5) 0.0016(4)
O1_2 O 0.0503(4) 0.6690(5) 0.5842(3)
O2_2 O 0.0949(4) 0.7451(4) 0.6430(3)
H2_2 H 0.029621 0.570925 0.751353
N3_2 N 0.0058(6) 0.8814(5) 0.7353(4)
C7_2 C 0.0030(7) 0.7726(6) 0.2311(5)
H8_2 H 0.001586 0.818488 0.251467
C8_2 C 0.0373(8) 0.7800(7) 0.1511(5)
C9_2 C 0.0409(7) 0.8561(7) 0.1081(5)
H9_2 H 0.024414 0.904598 0.128628
C10_2 C 0.0694(7) 0.8611(6) 0.0331(5)
H10_2 H 0.067374 0.913854 0.004272
C11_2 C 0.0976(10) 0.7228(7) 0.0441(5)
H11_2 H 0.118644 0.675254 0.021940
C12_2 C 0.0688(10) 0.7107(7) 0.1170(6)
H12_2 H 0.070099 0.656827 0.143704
C13_2 C 0.0817(10) 0.9075(7) 0.6949(6)
H13_2 H 0.134006 0.869374 0.672371
C14_2 C 0.0902(13) 0.9910(9) 0.6826(7)
C17_2 C 0.1072(6) 0.7086(5) 0.5915(4)
C18_2 C 0.2008(6) 0.7115(5) 0.5334(4)
C19_2 C 0.2196(7) 0.6774(6) 0.4719(5)
H17_2 H 0.172169 0.652897 0.465406
C20_2 C 0.3061(6) 0.6786(6) 0.4201(5)
H18_2 H 0.316214 0.655699 0.378725
C21_2 C 0.3788(6) 0.7129(5) 0.4276(4)
C22_2 C 0.3604(6) 0.7501(5) 0.4888(4)
H19_2 H 0.406899 0.776721 0.493886
C23_2 C 0.2735(6) 0.7473(5) 0.5416(4)
H20_2 H 0.263215 0.769541 0.583456
C24_2 C 0.8162(6) 0.3422(5) 0.1704(5)
C25_2 C 0.7659(6) 0.4181(5) 0.2026(4)
C26_2 C 0.7466(6) 0.4939(5) 0.1586(5)
H21_2 H 0.766724 0.497316 0.108364
C27_2 C 0.6977(6) 0.5646(5) 0.1886(5)
H22_2 H 0.687337 0.615762 0.158128
C28_2 C 0.6641(6) 0.5617(5) 0.2616(5)
C29_2 C 0.6822(7) 0.4858(5) 0.3062(5)
H23_2 H 0.659039 0.482148 0.356316
C30_2 C 0.7348(7) 0.4150(6) 0.2763(5)
H24_2 H 0.749141 0.364627 0.306810
C32_2 C 0.7375(6) 0.9983(5) 0.2088(5)
C34_2 C 0.5918(6) 0.9394(5) 0.2579(5)
H26_2 H 0.523442 0.946936 0.271240
C35_2 C 0.6470(6) 0.8608(5) 0.2680(4)
C36_2 C 0.7473(6) 0.8520(5) 0.2501(5)
H27_2 H 0.785774 0.798800 0.257524
C37_2 C 0.7920(7) 0.9196(6) 0.2216(5)
H28_2 H 0.860241 0.912138 0.210699
C38_2 C 0.4734(6) 0.7125(5) 0.3730(4)
C39_2 C 0.5241(6) 0.6391(5) 0.3459(4)
H29_2 H 0.498721 0.590158 0.363885
C40_2 C 0.6120(6) 0.6380(5) 0.2926(4)
C41_2 C 0.6495(6) 0.7104(5) 0.2677(4)
H30_2 H 0.707738 0.710078 0.231187
C42_2 C 0.6031(6) 0.7844(5) 0.2955(5)
C43_2 C 0.5146(6) 0.7844(5) 0.3478(4)
H31_2 H 0.482032 0.833295 0.366539
C15_2 C 0.9388(11) 0.0225(7) 0.7518(8)
H15_2 H 0.885378 0.060076 0.774003
loop_
_geom_bond_atom_site_label_1
_geom_bond_atom_site_label_2
_geom_bond_site_symmetry_1
_geom_bond_site_symmetry_2
O7 Cd2 1_555 1_555
O8 C44 1_555 1_555
O13 Cd2 1_555 1_555
H1 O13 1_555 1_555
N1 Cd1 1_555 1_555
C1 N1 1_555 1_555
H3 C1 1_555 1_555
C2 C1 1_555 1_555
H4 C2 1_555 1_555
C3 C2 1_555 1_555
C4 C3 1_555 1_555
H5 C4 1_555 1_555
C5 N1 1_555 1_555
H6 C5 1_555 1_555
C6 C3 1_555 1_555
H7 C6 1_555 1_555
H16 C16 1_555 1_555
C44 O7 1_555 1_555
C45 C44 1_555 1_555
C50 C45 1_555 1_555
H35 C50 1_555 1_555
O18 Cd1 1_555 1_555
O19 Cd1 1_555 1_555
O20 Cd1 1_555 1_555
O21 Cd1 1_555 1_555
Cd2 O21 1_555 1_555
C4 C5 1_555 1_555
O20 C58 1_555 1_555
O21 C58 1_555 1_555
C58 C59 1_555 1_555
C59 C60 1_555 1_555
C60 H40 1_555 1_555
H42 C63 1_555 1_555
C64 C59 1_555 1_555
H43 C64 1_555 1_555
C63 C64 1_555 1_555
O18 C51 1_555 1_555
O19 C51 1_555 1_555
H32 C46 1_555 1_555
C47 C46 1_555 1_555
H33 C47 1_555 1_555
C48 C47 1_555 1_555
C49 C48 1_555 1_555
H34 C49 1_555 1_555
C51 C52 1_555 1_555
C52 C53 1_555 1_555
C53 H36 1_555 1_555
C54 C53 1_555 1_555
H37 C54 1_555 1_555
C55 C54 1_555 1_555
C56 C55 1_555 1_555
H38 C56 1_555 1_555
C57 C52 1_555 1_555
H39 C57 1_555 1_555
H41 C61 1_555 1_555
C62 C61 1_555 1_555
C65 C48 1_555 1_555
C66 C65 1_555 1_555
H44 C66 1_555 1_555
C67 C55 1_555 1_555
C68 C67 1_555 1_555
H45 C68 1_555 1_555
C69 C62 1_555 1_555
C70 C65 1_555 1_555
H46 C70 1_555 1_555
C56 C57 1_555 1_555
C66 C67 1_555 1_555
C68 C69 1_555 1_555
C69 C70 1_555 1_555
O9 C51_2 1_555 1_555
O10 C51_2 1_555 1_555
H32_2 C46_2 1_555 1_555
C47_2 C46_2 1_555 1_555
H33_2 C47_2 1_555 1_555
C48_2 C47_2 1_555 1_555
C49_2 C48_2 1_555 1_555
H34_2 C49_2 1_555 1_555
C51_2 C52_2 1_555 1_555
C52_2 C53_2 1_555 1_555
C53_2 H36_2 1_555 1_555
C54_2 C53_2 1_555 1_555
H37_2 C54_2 1_555 1_555
C55_2 C54_2 1_555 1_555
C56_2 C55_2 1_555 1_555
H38_2 C56_2 1_555 1_555
C57_2 C52_2 1_555 1_555
H39_2 C57_2 1_555 1_555
H41_2 C61_2 1_555 1_555
C62_2 C61_2 1_555 1_555
C65_2 C48_2 1_555 1_555
C66_2 C65_2 1_555 1_555
H44_2 C66_2 1_555 1_555
C67_2 C55_2 1_555 1_555
C68_2 C67_2 1_555 1_555
H45_2 C68_2 1_555 1_555
C69_2 C62_2 1_555 1_555
C70_2 C65_2 1_555 1_555
H46_2 C70_2 1_555 1_555
Cd5 O9 1_555 1_555
O10 Cd5 1_555 1_555
C56_2 C57_2 1_555 1_555
C66_2 C67_2 1_555 1_555
C68_2 C69_2 1_555 1_555
C69_2 C70_2 1_555 1_555
O11 C58_2 1_555 1_555
O12 C58_2 1_555 1_555
C58_2 C59_2 1_555 1_555
C59_2 C60_2 1_555 1_555
C60_2 H40_2 1_555 1_555
H42_2 C63_2 1_555 1_555
C64_2 C59_2 1_555 1_555
H43_2 C64_2 1_555 1_555
Cd5 O11 1_555 1_555
Cd7 O12 1_555 1_555
O12 Cd5 1_555 1_555
C63_2 C64_2 1_555 1_555
O7_2 Cd7 1_555 1_555
O8_2 C44_2 1_555 1_555
O13_2 Cd7 1_555 1_555
H1_2 O13_2 1_555 1_555
N1_2 Cd5 1_555 1_555
C1_2 N1_2 1_555 1_555
H3_2 C1_2 1_555 1_555
C2_2 C1_2 1_555 1_555
H4_2 C2_2 1_555 1_555
C3_2 C2_2 1_555 1_555
C4_2 C3_2 1_555 1_555
H5_2 C4_2 1_555 1_555
C5_2 N1_2 1_555 1_555
H6_2 C5_2 1_555 1_555
C6_2 C3_2 1_555 1_555
H7_2 C6_2 1_555 1_555
H16_2 C16_2 1_555 1_555
C44_2 O7_2 1_555 1_555
C45_2 C44_2 1_555 1_555
C50_2 C45_2 1_555 1_555
H35_2 C50_2 1_555 1_555
C4_2 C5_2 1_555 1_555
H15 C15 1_555 1_555
O1 C17 1_555 1_555
O2 C17 1_555 1_555
O3 C24 1_555 1_555
O4 C24 1_555 1_555
N2 C10 1_555 1_555
H8 C7 1_555 1_555
C8 C7 1_555 1_555
C9 C8 1_555 1_555
H9 C9 1_555 1_555
C10 C9 1_555 1_555
H10 C10 1_555 1_555
C11 N2 1_555 1_555
H11 C11 1_555 1_555
C12 C8 1_555 1_555
H12 C12 1_555 1_555
C13 N3 1_555 1_555
H13 C13 1_555 1_555
C14 C13 1_555 1_555
C17 C18 1_555 1_555
C18 C19 1_555 1_555
C19 H17 1_555 1_555
C20 C19 1_555 1_555
H18 C20 1_555 1_555
C21 C20 1_555 1_555
C22 C21 1_555 1_555
H19 C22 1_555 1_555
C23 C18 1_555 1_555
H20 C23 1_555 1_555
C24 C25 1_555 1_555
C25 C26 1_555 1_555
C26 H21 1_555 1_555
C27 C26 1_555 1_555
H22 C27 1_555 1_555
C28 C27 1_555 1_555
C29 C28 1_555 1_555
H23 C29 1_555 1_555
C30 C25 1_555 1_555
H24 C30 1_555 1_555
H26 C34 1_555 1_555
C35 C34 1_555 1_555
C36 C35 1_555 1_555
H27 C36 1_555 1_555
C37 C32 1_555 1_555
H28 C37 1_555 1_555
C38 C21 1_555 1_555
C39 C38 1_555 1_555
H29 C39 1_555 1_555
C40 C28 1_555 1_555
C41 C40 1_555 1_555
H30 C41 1_555 1_555
C42 C35 1_555 1_555
C43 C38 1_555 1_555
H31 C43 1_555 1_555
Cd10 O3 1_555 1_555
O14 Cd8 1_555 1_555
O16 Cd8 1_555 1_555
O17 Cd8 1_555 1_555
Cd8 O15 1_555 1_555
O4 Cd10 1_555 1_555
C11 C12 1_555 1_555
C22 C23 1_555 1_555
C29 C30 1_555 1_555
C36 C37 1_555 1_555
C39 C40 1_555 1_555
C41 C42 1_555 1_555
C42 C43 1_555 1_555
O5 C31 1_555 1_555
O6 C31 1_555 1_555
C33 H25 1_555 1_555
Cd10 O5 1_555 1_555
O6 Cd10 1_555 1_555
O16 C31_2 1_555 1_555
O17 C31_2 1_555 1_555
C33_2 H25_2 1_555 1_555
O1_2 C17_2 1_555 1_555
O2_2 C17_2 1_555 1_555
O14 C24_2 1_555 1_555
O15 C24_2 1_555 1_555
N5 C10_2 1_555 1_555
H8_2 C7_2 1_555 1_555
C8_2 C7_2 1_555 1_555
C9_2 C8_2 1_555 1_555
H9_2 C9_2 1_555 1_555
C10_2 C9_2 1_555 1_555
H10_2 C10_2 1_555 1_555
C11_2 N5 1_555 1_555
H11_2 C11_2 1_555 1_555
C12_2 C8_2 1_555 1_555
H12_2 C12_2 1_555 1_555
C13_2 N3_2 1_555 1_555
H13_2 C13_2 1_555 1_555
C14_2 C13_2 1_555 1_555
C17_2 C18_2 1_555 1_555
C18_2 C19_2 1_555 1_555
C19_2 H17_2 1_555 1_555
C20_2 C19_2 1_555 1_555
H18_2 C20_2 1_555 1_555
C21_2 C20_2 1_555 1_555
C22_2 C21_2 1_555 1_555
H19_2 C22_2 1_555 1_555
C23_2 C18_2 1_555 1_555
H20_2 C23_2 1_555 1_555
C24_2 C25_2 1_555 1_555
C25_2 C26_2 1_555 1_555
C26_2 H21_2 1_555 1_555
C27_2 C26_2 1_555 1_555
H22_2 C27_2 1_555 1_555
C28_2 C27_2 1_555 1_555
C29_2 C28_2 1_555 1_555
H23_2 C29_2 1_555 1_555
C30_2 C25_2 1_555 1_555
H24_2 C30_2 1_555 1_555
H26_2 C34_2 1_555 1_555
C35_2 C34_2 1_555 1_555
C36_2 C35_2 1_555 1_555
H27_2 C36_2 1_555 1_555
C37_2 C32_2 1_555 1_555
H28_2 C37_2 1_555 1_555
C38_2 C21_2 1_555 1_555
C39_2 C38_2 1_555 1_555
H29_2 C39_2 1_555 1_555
C40_2 C28_2 1_555 1_555
C41_2 C40_2 1_555 1_555
H30_2 C41_2 1_555 1_555
C42_2 C35_2 1_555 1_555
C43_2 C38_2 1_555 1_555
H31_2 C43_2 1_555 1_555
C11_2 C12_2 1_555 1_555
C22_2 C23_2 1_555 1_555
C29_2 C30_2 1_555 1_555
C36_2 C37_2 1_555 1_555
C39_2 C40_2 1_555 1_555
C41_2 C42_2 1_555 1_555
C42_2 C43_2 1_555 1_555
H15_2 C15_2 1_555 1_555

#END
