
###############################################################################
#
# This file contains modified crystal structure data generated from the
# MOF subset of the Cambridge Structural Database (CSD) v543 
# hosted by the Cambridge Crystallographic Data Centre (CCDC).
#
# This work is licensed under the Creative Commons
# Attribution-NonCommercial-ShareAlike 4.0 International License.
# To view a copy of this license, visit
# http://creativecommons.org/licenses/by-nc-sa/4.0/
# or send a letter to
# Creative Commons, PO Box 1866, Mountain View, CA 94042, USA.
#
# CIF created using the CSD Python API on 29 September 2022
# The structure has been converted into the P1 space group
# The structure has a 3D framework
# The original CSD entry FIWYUI is in the monoclinic crystal system
# The framework has been calculated to contain at least 10.0% void space
# The void calculation uses a probe of radius 1.32A, grid spacing 0.4
#
###############################################################################

data_FIWYUI
_chemical_formula_moiety         '(C56 H25 N24 O17 Zn14)n'
_symmetry_cell_setting           triclinic
_symmetry_space_group_name_H-M   'P 1'
_symmetry_Int_Tables_number      1
_space_group_name_Hall           'P 1'
loop_
_symmetry_equiv_pos_site_id
_symmetry_equiv_pos_as_xyz
1 x,y,z
_cell_length_a                   18.1932(4)
_cell_length_b                   12.3504(3)
_cell_length_c                   11.0150(2)
_cell_angle_alpha                90
_cell_angle_beta                 92.344(2)
_cell_angle_gamma                90
_cell_volume                     2472.93
loop_
_atom_site_label
_atom_site_type_symbol
_atom_site_fract_x
_atom_site_fract_y
_atom_site_fract_z
Zn11 Zn 0.42014(2) 0.55308(4) 0.00176(4)
Zn1 Zn 0.000000 0.10481(6) 0.750000
Zn2 Zn 0.42014(2) 0.44692(4) 0.50176(4)
O1 O 0.51629(13) 0.4115(2) 0.4347(2)
H1 H 0.525041 0.348573 0.467571
O2 O 0.08017(15) 0.2214(2) 0.7381(2)
O3 O 0.13691(15) 0.1971(3) 0.5648(2)
N1 N 0.40995(15) 0.4814(2) 0.7574(2)
N2 N 0.37427(16) 0.4698(3) 0.8587(2)
N3 N 0.37387(16) 0.4355(3) 0.6634(2)
C1 C 0.3110(2) 0.3908(3) 0.7068(3)
C2 C 0.1331(2) 0.2342(3) 0.6698(3)
C3 C 0.1971(2) 0.3007(3) 0.7221(3)
C4 C 0.3114(2) 0.4132(3) 0.8320(3)
C5 C 0.2523(2) 0.3336(3) 0.6506(3)
H2 H 0.251066 0.318755 0.567730
C6 C 0.1985(2) 0.3237(4) 0.8479(3)
H3 H 0.159996 0.299549 0.893734
C7 C 0.2548(2) 0.3804(4) 0.9043(3)
H4 H 0.255117 0.396061 0.986909
Zn5 Zn 0.500000 0.60481(6) 0.750000
Zn7 Zn 0.500000 0.39519(6) 0.250000
Zn9 Zn 0.57986(2) 0.55308(4) 0.49824(4)
Zn12 Zn 0.07986(2) 0.05308(4) 0.49824(4)
O7 O 0.48371(13) 0.5885(2) 0.5653(2)
O10 O 0.01629(13) 0.0885(2) 0.9347(2)
O11 O 0.36309(15) 0.3029(3) 0.4352(2)
N10 N 0.37427(16) 0.5302(3) 0.3587(2)
N8 N 0.09005(15) 0.9814(2) 0.7426(2)
O4 O 0.48371(13) 0.4115(2) 0.0653(2)
H5 H 0.474959 0.348573 0.032429
Zn13 Zn 0.92014(2) 0.05308(4) 0.00176(4)
O12 O 0.63691(15) 0.3029(3) 0.0648(2)
N9 N 0.62573(16) 0.5302(3) 0.1413(2)
Zn1_2 Zn 1.000000 0.10481(6) 0.750000
Zn3 Zn 0.57986(2) 0.44692(4) 0.99824(4)
O5 O 0.91983(15) 0.2214(2) 0.7619(2)
O6 O 0.86309(15) 0.1971(3) 0.9352(2)
N4 N 0.59005(15) 0.4814(2) 0.7426(2)
N5 N 0.62573(16) 0.4698(3) 0.6413(2)
N6 N 0.62613(16) 0.4355(3) 0.8366(2)
C8 C 0.6890(2) 0.3908(3) 0.7932(3)
C9 C 0.8669(2) 0.2342(3) 0.8302(3)
C10 C 0.8029(2) 0.3007(3) 0.7779(3)
C11 C 0.6886(2) 0.4132(3) 0.6680(3)
C12 C 0.7477(2) 0.3336(3) 0.8494(3)
H6 H 0.748934 0.318755 0.932270
C13 C 0.8015(2) 0.3237(4) 0.6521(3)
H7 H 0.840004 0.299549 0.606266
C14 C 0.7452(2) 0.3804(4) 0.5957(3)
H8 H 0.744883 0.396061 0.513091
O8 O 0.51629(13) 0.5885(2) 0.9347(2)
O9 O 0.98371(13) 0.0885(2) 0.5653(2)
N7 N 0.90995(15) 0.9814(2) 0.7574(2)
O1_2 O 0.01629(13) 0.9115(2) 0.4347(2)
H1_2 H 0.025041 0.848573 0.467571
Zn7_2 Zn 0.000000 0.89519(6) 0.250000
N9_2 N 0.12573(16) 0.0302(3) 0.1413(2)
N10_2 N 0.87427(16) 0.0302(3) 0.3587(2)
O12_2 O 0.13691(15) 0.8029(3) 0.0648(2)
Zn2_2 Zn 0.92014(2) 0.94692(4) 0.50176(4)
O2_2 O 0.58017(15) 0.7214(2) 0.7381(2)
O3_2 O 0.63691(15) 0.6971(3) 0.5648(2)
N2_2 N 0.87427(16) 0.9698(3) 0.8587(2)
N3_2 N 0.87387(16) 0.9355(3) 0.6634(2)
C1_2 C 0.8110(2) 0.8908(3) 0.7068(3)
C2_2 C 0.6331(2) 0.7342(3) 0.6698(3)
C3_2 C 0.6971(2) 0.8007(3) 0.7221(3)
C4_2 C 0.8114(2) 0.9132(3) 0.8320(3)
C5_2 C 0.7523(2) 0.8336(3) 0.6506(3)
H2_2 H 0.751066 0.818755 0.567730
C6_2 C 0.6985(2) 0.8237(4) 0.8479(3)
H3_2 H 0.659996 0.799549 0.893734
C7_2 C 0.7548(2) 0.8804(4) 0.9043(3)
H4_2 H 0.755117 0.896061 0.986909
Zn3_2 Zn 0.07986(2) 0.94692(4) 0.99824(4)
O5_2 O 0.41983(15) 0.7214(2) 0.7619(2)
O6_2 O 0.36309(15) 0.6971(3) 0.9352(2)
N5_2 N 0.12573(16) 0.9698(3) 0.6413(2)
N6_2 N 0.12613(16) 0.9355(3) 0.8366(2)
C8_2 C 0.1890(2) 0.8908(3) 0.7932(3)
C9_2 C 0.3669(2) 0.7342(3) 0.8302(3)
C10_2 C 0.3029(2) 0.8007(3) 0.7779(3)
C11_2 C 0.1886(2) 0.9132(3) 0.6680(3)
C12_2 C 0.2477(2) 0.8336(3) 0.8494(3)
H6_2 H 0.248934 0.818755 0.932270
C13_2 C 0.3015(2) 0.8237(4) 0.6521(3)
H7_2 H 0.340004 0.799549 0.606266
C14_2 C 0.2452(2) 0.8804(4) 0.5957(3)
H8_2 H 0.244883 0.896061 0.513091
Zn7_3 Zn 1.000000 0.89519(6) 0.250000
O11_2 O 0.86309(15) 0.8029(3) 0.4352(2)
O4_2 O 0.98371(13) 0.9115(2) 0.0653(2)
H5_2 H 0.974959 0.848573 0.032429
N7_2 N 0.09005(15) 0.0186(2) 0.2426(2)
O5_3 O 0.08017(15) 0.7786(2) 0.2381(2)
N4_2 N 0.40995(15) 0.5186(2) 0.2574(2)
N6_3 N 0.37387(16) 0.5645(3) 0.1634(2)
C8_3 C 0.3110(2) 0.6092(3) 0.2068(3)
C9_3 C 0.1331(2) 0.7658(3) 0.1698(3)
C10_3 C 0.1971(2) 0.6993(3) 0.2221(3)
C11_3 C 0.3114(2) 0.5868(3) 0.3320(3)
C12_3 C 0.2523(2) 0.6664(3) 0.1506(3)
H6_3 H 0.251066 0.681245 0.067730
C13_3 C 0.1985(2) 0.6763(4) 0.3479(3)
H7_3 H 0.159996 0.700451 0.393734
C14_3 C 0.2548(2) 0.6196(4) 0.4043(3)
H8_3 H 0.255117 0.603939 0.486909
H5_3 H 0.525041 0.651427 0.967571
N8_2 N 0.90995(15) 0.0186(2) 0.2574(2)
H1_3 H 0.474959 0.651427 0.532429
O2_3 O 0.91983(15) 0.7786(2) 0.2619(2)
N1_2 N 0.59005(15) 0.5186(2) 0.2426(2)
N3_3 N 0.62613(16) 0.5645(3) 0.3366(2)
C1_3 C 0.6890(2) 0.6092(3) 0.2932(3)
C2_3 C 0.8669(2) 0.7658(3) 0.3302(3)
C3_3 C 0.8029(2) 0.6993(3) 0.2779(3)
C4_3 C 0.6886(2) 0.5868(3) 0.1680(3)
C5_3 C 0.7477(2) 0.6664(3) 0.3494(3)
H2_3 H 0.748934 0.681245 0.432270
C6_3 C 0.8015(2) 0.6763(4) 0.1521(3)
H3_3 H 0.840004 0.700451 0.106266
C7_3 C 0.7452(2) 0.6196(4) 0.0957(3)
H4_3 H 0.744883 0.603939 0.013091
H5_4 H 0.025041 0.151427 0.967571
O2_4 O 0.41983(15) 0.2786(2) 0.2619(2)
N3_4 N 0.12613(16) 0.0645(3) 0.3366(2)
C1_4 C 0.1890(2) 0.1092(3) 0.2932(3)
C2_4 C 0.3669(2) 0.2658(3) 0.3302(3)
C3_4 C 0.3029(2) 0.1993(3) 0.2779(3)
C4_4 C 0.1886(2) 0.0868(3) 0.1680(3)
C5_4 C 0.2477(2) 0.1664(3) 0.3494(3)
H2_4 H 0.248934 0.181245 0.432270
C6_4 C 0.3015(2) 0.1763(4) 0.1521(3)
H3_4 H 0.340004 0.200451 0.106266
C7_4 C 0.2452(2) 0.1196(4) 0.0957(3)
H4_4 H 0.244883 0.103939 0.013091
O5_4 O 0.58017(15) 0.2786(2) 0.2381(2)
N6_4 N 0.87387(16) 0.0645(3) 0.1634(2)
C8_4 C 0.8110(2) 0.1092(3) 0.2068(3)
C9_4 C 0.6331(2) 0.2658(3) 0.1698(3)
C10_4 C 0.6971(2) 0.1993(3) 0.2221(3)
C11_4 C 0.8114(2) 0.0868(3) 0.3320(3)
C12_4 C 0.7523(2) 0.1664(3) 0.1506(3)
H6_4 H 0.751066 0.181245 0.067730
C13_4 C 0.6985(2) 0.1763(4) 0.3479(3)
H7_4 H 0.659996 0.200451 0.393734
C14_4 C 0.7548(2) 0.1196(4) 0.4043(3)
H8_4 H 0.755117 0.103939 0.486909
H1_4 H 0.974959 0.151427 0.532429
loop_
_geom_bond_atom_site_label_1
_geom_bond_atom_site_label_2
_geom_bond_site_symmetry_1
_geom_bond_site_symmetry_2
Zn1 O2 1_555 1_555
Zn2 O1 1_555 1_555
O1 H1 1_555 1_555
O2 C2 1_555 1_555
O3 C2 1_555 1_555
N1 N2 1_555 1_555
N2 C4 1_555 1_555
N3 Zn2 1_555 1_555
C1 N3 1_555 1_555
C2 C3 1_555 1_555
C3 C5 1_555 1_555
C4 C1 1_555 1_555
C5 C1 1_555 1_555
H2 C5 1_555 1_555
C6 C3 1_555 1_555
H3 C6 1_555 1_555
C7 C4 1_555 1_555
H4 C7 1_555 1_555
Zn5 N1 1_555 1_555
Zn7 O1 1_555 1_555
Zn9 O1 1_555 1_555
Zn12 O3 1_555 1_555
O7 Zn2 1_555 1_555
O10 Zn1 1_555 1_555
O11 Zn2 1_555 1_555
N10 Zn2 1_555 1_555
N1 N3 1_555 1_555
C6 C7 1_555 1_555
Zn5 O7 1_555 1_555
Zn9 O7 1_555 1_555
O4 H5 1_555 1_555
Zn7 O4 1_555 1_555
Zn11 O4 1_555 1_555
O5 Zn1_2 1_555 1_555
O6 C9 1_555 1_555
N4 N5 1_555 1_555
N5 C11 1_555 1_555
N6 Zn3 1_555 1_555
C8 N6 1_555 1_555
C9 O5 1_555 1_555
C10 C9 1_555 1_555
C11 C8 1_555 1_555
C12 C8 1_555 1_555
H6 C12 1_555 1_555
C13 C10 1_555 1_555
H7 C13 1_555 1_555
C14 C11 1_555 1_555
H8 C14 1_555 1_555
Zn5 N4 1_555 1_555
Zn9 N5 1_555 1_555
O8 Zn3 1_555 1_555
O9 Zn1_2 1_555 1_555
N4 N6 1_555 1_555
C10 C12 1_555 1_555
C13 C14 1_555 1_555
Zn5 O8 1_555 1_555
O1_2 H1_2 1_555 1_555
Zn7_2 O1_2 1_555 1_555
Zn5 O2_2 1_555 1_555
O2_2 C2_2 1_555 1_555
O3_2 C2_2 1_555 1_555
N7 N2_2 1_555 1_555
N2_2 C4_2 1_555 1_555
N3_2 Zn2_2 1_555 1_555
C1_2 N3_2 1_555 1_555
C2_2 C3_2 1_555 1_555
C3_2 C5_2 1_555 1_555
C4_2 C1_2 1_555 1_555
C5_2 C1_2 1_555 1_555
H2_2 C5_2 1_555 1_555
C6_2 C3_2 1_555 1_555
H3_2 C6_2 1_555 1_555
C7_2 C4_2 1_555 1_555
H4_2 C7_2 1_555 1_555
O5_2 Zn5 1_555 1_555
O6_2 C9_2 1_555 1_555
N8 N5_2 1_555 1_555
N5_2 C11_2 1_555 1_555
N6_2 Zn3_2 1_555 1_555
C8_2 N6_2 1_555 1_555
C9_2 O5_2 1_555 1_555
C10_2 C9_2 1_555 1_555
C11_2 C8_2 1_555 1_555
C12_2 C8_2 1_555 1_555
H6_2 C12_2 1_555 1_555
C13_2 C10_2 1_555 1_555
H7_2 C13_2 1_555 1_555
C14_2 C11_2 1_555 1_555
H8_2 C14_2 1_555 1_555
Zn9 O3_2 1_555 1_555
O11_2 Zn2_2 1_555 1_555
N7 N3_2 1_555 1_555
C6_2 C7_2 1_555 1_555
N8 N6_2 1_555 1_555
C10_2 C12_2 1_555 1_555
C13_2 C14_2 1_555 1_555
O4_2 H5_2 1_555 1_555
Zn7_3 O4_2 1_555 1_555
O5_3 Zn7_2 1_555 1_555
O12_2 C9_3 1_555 1_555
N4_2 N10 1_555 1_555
N10 C11_3 1_555 1_555
N6_3 Zn11 1_555 1_555
C8_3 N6_3 1_555 1_555
C9_3 O5_3 1_555 1_555
C10_3 C9_3 1_555 1_555
C11_3 C8_3 1_555 1_555
C12_3 C8_3 1_555 1_555
H6_3 C12_3 1_555 1_555
C13_3 C10_3 1_555 1_555
H7_3 C13_3 1_555 1_555
C14_3 C11_3 1_555 1_555
H8_3 C14_3 1_555 1_555
Zn7 N4_2 1_555 1_555
N4_2 N6_3 1_555 1_555
C10_3 C12_3 1_555 1_555
C13_3 C14_3 1_555 1_555
O8 H5_3 1_555 1_555
Zn7_3 O2_3 1_555 1_555
O7 H1_3 1_555 1_555
O2_3 C2_3 1_555 1_555
O11_2 C2_3 1_555 1_555
N1_2 N9 1_555 1_555
N9 C4_3 1_555 1_555
N3_3 Zn9 1_555 1_555
C1_3 N3_3 1_555 1_555
C2_3 C3_3 1_555 1_555
C3_3 C5_3 1_555 1_555
C4_3 C1_3 1_555 1_555
C5_3 C1_3 1_555 1_555
H2_3 C5_3 1_555 1_555
C6_3 C3_3 1_555 1_555
H3_3 C6_3 1_555 1_555
C7_3 C4_3 1_555 1_555
H4_3 C7_3 1_555 1_555
Zn7 N1_2 1_555 1_555
N1_2 N3_3 1_555 1_555
C6_3 C7_3 1_555 1_555
O10 H5_4 1_555 1_555
Zn7 O2_4 1_555 1_555
O2_4 C2_4 1_555 1_555
O11 C2_4 1_555 1_555
N7_2 N9_2 1_555 1_555
N9_2 C4_4 1_555 1_555
N3_4 Zn12 1_555 1_555
C1_4 N3_4 1_555 1_555
C2_4 C3_4 1_555 1_555
C3_4 C5_4 1_555 1_555
C4_4 C1_4 1_555 1_555
C5_4 C1_4 1_555 1_555
H2_4 C5_4 1_555 1_555
C6_4 C3_4 1_555 1_555
H3_4 C6_4 1_555 1_555
C7_4 C4_4 1_555 1_555
H4_4 C7_4 1_555 1_555
O5_4 Zn7 1_555 1_555
O12 C9_4 1_555 1_555
N8_2 N10_2 1_555 1_555
N10_2 C11_4 1_555 1_555
N6_4 Zn13 1_555 1_555
C8_4 N6_4 1_555 1_555
C9_4 O5_4 1_555 1_555
C10_4 C9_4 1_555 1_555
C11_4 C8_4 1_555 1_555
C12_4 C8_4 1_555 1_555
H6_4 C12_4 1_555 1_555
C13_4 C10_4 1_555 1_555
H7_4 C13_4 1_555 1_555
C14_4 C11_4 1_555 1_555
H8_4 C14_4 1_555 1_555
N7_2 N3_4 1_555 1_555
C6_4 C7_4 1_555 1_555
N8_2 N6_4 1_555 1_555
C10_4 C12_4 1_555 1_555
C13_4 C14_4 1_555 1_555
O9 H1_4 1_555 1_555

#END
