
###############################################################################
#
# This file contains modified crystal structure data generated from the
# MOF subset of the Cambridge Structural Database (CSD) v543 
# hosted by the Cambridge Crystallographic Data Centre (CCDC).
#
# This work is licensed under the Creative Commons
# Attribution-NonCommercial-ShareAlike 4.0 International License.
# To view a copy of this license, visit
# http://creativecommons.org/licenses/by-nc-sa/4.0/
# or send a letter to
# Creative Commons, PO Box 1866, Mountain View, CA 94042, USA.
#
# CIF created using the CSD Python API on 29 September 2022
# The structure has been converted into the P1 space group
# The structure has a 3D framework
# The original CSD entry FIXKEF is in the monoclinic crystal system
# The framework has been calculated to contain at least 10.0% void space
# The void calculation uses a probe of radius 1.32A, grid spacing 0.4
#
###############################################################################

data_FIXKEF
_chemical_formula_moiety         '(C76 H63 Co8 N4 O43)n'
_symmetry_cell_setting           triclinic
_symmetry_space_group_name_H-M   'P 1'
_symmetry_Int_Tables_number      1
_space_group_name_Hall           'P 1'
loop_
_symmetry_equiv_pos_site_id
_symmetry_equiv_pos_as_xyz
1 x,y,z
_cell_length_a                   12.1003(3)
_cell_length_b                   16.3368(3)
_cell_length_c                   12.3245(2)
_cell_angle_alpha                90
_cell_angle_beta                 94.357(2)
_cell_angle_gamma                90
_cell_volume                     2429.27
loop_
_atom_site_label
_atom_site_type_symbol
_atom_site_fract_x
_atom_site_fract_y
_atom_site_fract_z
Co8 Co 0.04702(4) 0.43453(3) 0.72135(4)
C1 C 0.6145(3) 0.1869(2) 0.0591(3)
C3 C 0.8886(3) 0.3934(2) 0.2145(3)
C4 C 0.7074(3) 0.2456(2) 0.0442(3)
C7 C 0.8702(3) 0.3621(2) 0.0155(3)
H2 H 0.923631 0.403597 0.005646
C8 C 0.8384(3) 0.3452(2) 0.1197(3)
C9 C 0.7572(3) 0.2868(2) 0.1336(3)
H3 H 0.735646 0.275005 0.204512
Co1 Co 0.54702(4) 0.06547(3) 0.22135(4)
O2 O 0.5955(2) 0.17019(15) 0.1560(2)
O5 O 0.9267(3) 0.46246(18) 0.1916(2)
O6 O 0.8904(2) 0.36221(15) 0.30740(19)
O8 O 0.2015(3) 0.0003(3) 0.0354(3)
O9 O 0.46078(19) 0.01157(14) 0.09743(18)
O10 O 0.3118(2) 0.14761(16) 0.0327(2)
H13 H 0.277509 0.103779 0.045885
H14 H 0.335261 0.168053 0.093631
O11 O 0.6473(2) 0.1121(2) 0.3607(2)
H15 H 0.682894 0.083365 0.409136
H16 H 0.625754 0.155284 0.391156
Co6 Co 0.95298(4) 0.56547(3) 0.27865(4)
Co12 Co 0.93224(4) 0.42233(3) 0.45326(4)
O24 O 0.4123(2) 0.09499(16) 0.3064(2)
C2 C 0.8600(3) 0.3390(2) 0.8141(3)
C5 C 0.7431(3) 0.2600(2) 0.9406(3)
H1 H 0.711890 0.229839 0.879946
C6 C 0.8245(3) 0.3188(2) 0.9262(3)
Co2 Co 0.43224(4) 0.07767(3) 0.95326(4)
O1 O 0.5610(2) 0.16094(15) 0.9748(2)
O3 O 0.8358(3) 0.28996(18) 0.7372(2)
O4 O 0.9123(2) 0.40501(16) 0.8064(2)
C23 C 0.0079(4) 0.1851(3) 0.2262(4)
H18 H 0.057563 0.221273 0.265578
C24 C 0.0170(4) 0.1736(3) 0.1170(4)
H19 H 0.072434 0.201546 0.080874
C28 C 0.0762(4) 0.0566(3) 0.4696(4)
H23 H 0.129155 0.095408 0.448945
O28 O 0.3904(2) 0.13779(15) 0.80740(19)
H7 H 0.049744 0.889166 0.015475
H12 H 0.399574 0.988635 0.113128
Co11 Co 0.56776(4) 0.92233(3) 0.04674(4)
O25 O 0.5733(3) 0.96246(18) 0.3084(2)
C10 C 0.2214(3) 0.9755(3) 0.9442(3)
C11 C 0.1383(3) 0.9181(2) 0.8860(3)
C12 C 0.1435(3) 0.9043(2) 0.7763(3)
H4 H 0.199385 0.930409 0.738597
C15 C 0.0560(3) 0.8794(3) 0.9402(4)
C16 C 0.0746(4) 0.8466(2) 0.6010(3)
H8 H 0.026107 0.801192 0.573407
H9 H 0.151298 0.834279 0.583282
C17 C 0.0364(4) 0.9259(2) 0.5472(3)
C19 C 0.1118(4) 0.9834(3) 0.5160(4)
H11 H 0.188938 0.972327 0.526665
N1 N 0.0704(3) 0.85415(19) 0.7216(3)
O7 O 0.3054(2) 0.99317(16) 0.8940(2)
O30 O 0.53922(19) 0.98843(14) 0.90257(18)
C20 C 0.7786(3) 0.0245(3) 0.0558(3)
C21 C 0.8617(3) 0.0819(2) 0.1140(3)
C22 C 0.8565(3) 0.0957(2) 0.2237(3)
H17 H 0.800615 0.069591 0.261403
C25 C 0.9440(3) 0.1206(3) 0.0598(4)
C26 C 0.9254(4) 0.1534(2) 0.3990(3)
H21 H 0.973893 0.198808 0.426593
H22 H 0.848702 0.165721 0.416718
C27 C 0.9636(4) 0.0741(2) 0.4528(3)
C29 C 0.8882(4) 0.0166(3) 0.4840(4)
H24 H 0.811062 0.027673 0.473335
N2 N 0.9296(3) 0.14585(19) 0.2784(3)
O12 O 0.6946(2) 0.00683(16) 0.1060(2)
H20 H 0.950256 0.110834 0.984525
H28 H 0.600426 0.011365 0.886872
O26 O 0.4267(3) 0.03754(18) 0.6916(2)
C13 C 0.9921(4) 0.8149(3) 0.7738(4)
H5 H 0.942437 0.778727 0.734422
C14 C 0.9830(4) 0.8264(3) 0.8830(4)
H6 H 0.927566 0.798454 0.919126
C18 C 0.9238(4) 0.9434(3) 0.5304(4)
H10 H 0.870845 0.904592 0.551055
C31 C 0.1400(3) 0.6610(2) 0.1859(3)
C34 C 0.2569(3) 0.7400(2) 0.0594(3)
H25 H 0.288110 0.770161 0.120054
C35 C 0.1755(3) 0.6812(2) 0.0738(3)
O14 O 0.4390(2) 0.83906(15) 0.0252(2)
O16 O 0.1642(3) 0.71004(18) 0.2628(2)
O17 O 0.0877(2) 0.59499(16) 0.1936(2)
O27 O 0.6096(2) 0.86221(15) 0.19260(19)
O13 O 0.7985(3) 0.9997(3) 0.9646(3)
C30 C 0.3855(3) 0.8131(2) 0.9409(3)
C32 C 0.1114(3) 0.6066(2) 0.7855(3)
C33 C 0.2926(3) 0.7544(2) 0.9558(3)
C36 C 0.1298(3) 0.6379(2) 0.9845(3)
H26 H 0.076369 0.596403 0.994354
C37 C 0.1616(3) 0.6548(2) 0.8803(3)
C38 C 0.2428(3) 0.7132(2) 0.8664(3)
H27 H 0.264354 0.724995 0.795488
Co3 Co 0.45298(4) 0.93453(3) 0.77865(4)
O15 O 0.4045(2) 0.82981(15) 0.8440(2)
O18 O 0.0733(3) 0.53754(18) 0.8084(2)
O19 O 0.1096(2) 0.63779(15) 0.69260(19)
O21 O 0.6882(2) 0.85239(16) 0.9673(2)
H29 H 0.722491 0.896221 0.954115
H30 H 0.664739 0.831947 0.906369
O22 O 0.3527(2) 0.8879(2) 0.6393(2)
H31 H 0.317106 0.916635 0.590864
H32 H 0.374246 0.844716 0.608844
Co10 Co 0.06776(4) 0.57767(3) 0.54674(4)
O23 O 0.5877(2) 0.90501(16) 0.6936(2)
C30_2 C 0.1145(3) 0.3131(2) 0.5591(3)
C31_2 C 0.3600(3) 0.1610(2) 0.3141(3)
C32_2 C 0.3886(3) 0.1066(2) 0.7145(3)
C33_2 C 0.2074(3) 0.2544(2) 0.5442(3)
C34_2 C 0.2431(3) 0.2400(2) 0.4406(3)
H25_2 H 0.211890 0.270161 0.379946
C35_2 C 0.3245(3) 0.1812(2) 0.4262(3)
C36_2 C 0.3702(3) 0.1379(2) 0.5155(3)
H26_2 H 0.423631 0.096403 0.505646
C37_2 C 0.3384(3) 0.1548(2) 0.6197(3)
C38_2 C 0.2572(3) 0.2132(2) 0.6336(3)
H27_2 H 0.235646 0.224995 0.704512
O14_2 O 0.0610(2) 0.33906(15) 0.4748(2)
O15_2 O 0.0955(2) 0.32981(15) 0.6560(2)
O16_2 O 0.3358(3) 0.21004(18) 0.2372(2)
O22_2 O 0.1473(2) 0.3879(2) 0.8607(2)
H31_2 H 0.182894 0.416635 0.909136
H32_2 H 0.125754 0.344716 0.891156
O29 O 0.03922(19) 0.51157(14) 0.40257(18)
C20_2 C 0.7214(3) 0.5245(3) 0.4442(3)
C21_2 C 0.6383(3) 0.5819(2) 0.3860(3)
C22_2 C 0.6435(3) 0.5957(2) 0.2763(3)
H17_2 H 0.699385 0.569591 0.238597
C23_2 C 0.4921(4) 0.6851(3) 0.2738(4)
H18_2 H 0.442437 0.721273 0.234422
C24_2 C 0.4830(4) 0.6736(3) 0.3830(4)
H19_2 H 0.427566 0.701546 0.419126
C25_2 C 0.5560(3) 0.6206(3) 0.4402(4)
H20_2 H 0.549744 0.610834 0.515475
C26_2 C 0.5746(4) 0.6534(2) 0.1010(3)
H21_2 H 0.526107 0.698808 0.073407
H22_2 H 0.651298 0.665721 0.083282
C27_2 C 0.5364(4) 0.5741(2) 0.0472(3)
C28_2 C 0.4238(4) 0.5566(3) 0.0304(4)
H23_2 H 0.370845 0.595408 0.051055
C29_2 C 0.6118(4) 0.5166(3) 0.0160(4)
H24_2 H 0.688938 0.527673 0.026665
N2_2 N 0.5704(3) 0.64585(19) 0.2216(3)
O12_2 O 0.8054(2) 0.50683(16) 0.3940(2)
O13_2 O 0.7015(3) 0.4997(3) 0.5354(3)
O20 O 0.96078(19) 0.48843(14) 0.59743(18)
H28_2 H 0.899574 0.511365 0.613128
O21_2 O 0.8118(2) 0.35239(16) 0.5327(2)
H29_2 H 0.777509 0.396221 0.545885
H30_2 H 0.835261 0.331947 0.593631
C10_2 C 0.2786(3) 0.4755(3) 0.5558(3)
C11_2 C 0.3617(3) 0.4181(2) 0.6140(3)
C12_2 C 0.3565(3) 0.4043(2) 0.7237(3)
H4_2 H 0.300615 0.430409 0.761403
C13_2 C 0.5079(4) 0.3149(3) 0.7262(4)
H5_2 H 0.557563 0.278727 0.765578
C14_2 C 0.5170(4) 0.3264(3) 0.6170(4)
H6_2 H 0.572434 0.298454 0.580874
C15_2 C 0.4440(3) 0.3794(3) 0.5598(4)
H7_2 H 0.450256 0.389166 0.484525
C16_2 C 0.4254(4) 0.3466(2) 0.8990(3)
H8_2 H 0.473893 0.301192 0.926593
H9_2 H 0.348702 0.334279 0.916718
C17_2 C 0.4636(4) 0.4259(2) 0.9528(3)
C18_2 C 0.5762(4) 0.4434(3) 0.9696(4)
H10_2 H 0.629155 0.404592 0.948945
C19_2 C 0.3882(4) 0.4834(3) 0.9840(4)
H11_2 H 0.311062 0.472327 0.973335
N1_2 N 0.4296(3) 0.35415(19) 0.7784(3)
O7_2 O 0.1946(2) 0.49317(16) 0.6060(2)
O8_2 O 0.2985(3) 0.5003(3) 0.4646(3)
H12_2 H 0.100426 0.488635 0.386872
O10_2 O 0.1882(2) 0.64761(16) 0.4673(2)
H13_2 H 0.222491 0.603779 0.454115
H14_2 H 0.164739 0.668053 0.406369
C1_2 C 0.8855(3) 0.6869(2) 0.4409(3)
C2_2 C 0.6400(3) 0.8390(2) 0.6859(3)
C3_2 C 0.6114(3) 0.8934(2) 0.2855(3)
C4_2 C 0.7926(3) 0.7456(2) 0.4558(3)
C5_2 C 0.7569(3) 0.7600(2) 0.5594(3)
H1_2 H 0.788110 0.729839 0.620054
C6_2 C 0.6755(3) 0.8188(2) 0.5738(3)
C7_2 C 0.6298(3) 0.8621(2) 0.4845(3)
H2_2 H 0.576369 0.903597 0.494354
C8_2 C 0.6616(3) 0.8452(2) 0.3803(3)
C9_2 C 0.7428(3) 0.7868(2) 0.3664(3)
H3_2 H 0.764354 0.775005 0.295488
O1_2 O 0.9390(2) 0.66094(15) 0.5252(2)
O2_2 O 0.9045(2) 0.67019(15) 0.3440(2)
O3_2 O 0.6642(3) 0.78996(18) 0.7628(2)
O11_2 O 0.8527(2) 0.6121(2) 0.1393(2)
H15_2 H 0.817106 0.583365 0.090864
H16_2 H 0.874246 0.655284 0.108844
loop_
_geom_bond_atom_site_label_1
_geom_bond_atom_site_label_2
_geom_bond_site_symmetry_1
_geom_bond_site_symmetry_2
C1 C4 1_555 1_555
C3 C8 1_555 1_555
H2 C7 1_555 1_555
C8 C7 1_555 1_555
C9 C4 1_555 1_555
H3 C9 1_555 1_555
Co1 O2 1_555 1_555
O2 C1 1_555 1_555
O5 C3 1_555 1_555
O6 C3 1_555 1_555
O9 Co1 1_555 1_555
H13 O10 1_555 1_555
H14 O10 1_555 1_555
O11 Co1 1_555 1_555
H15 O11 1_555 1_555
H16 O11 1_555 1_555
Co6 O5 1_555 1_555
Co12 O6 1_555 1_555
O24 Co1 1_555 1_555
C8 C9 1_555 1_555
C2 C6 1_555 1_555
C5 H1 1_555 1_555
C6 C5 1_555 1_555
Co2 O1 1_555 1_555
O3 C2 1_555 1_555
O4 C2 1_555 1_555
C23 H18 1_555 1_555
C24 C23 1_555 1_555
H19 C24 1_555 1_555
H23 C28 1_555 1_555
O28 Co2 1_555 1_555
C10 C11 1_555 1_555
C11 C12 1_555 1_555
C12 H4 1_555 1_555
C15 C11 1_555 1_555
C16 H8 1_555 1_555
H9 C16 1_555 1_555
C17 C16 1_555 1_555
C19 C17 1_555 1_555
H11 C19 1_555 1_555
N1 C12 1_555 1_555
O7 C10 1_555 1_555
C16 N1 1_555 1_555
C20 C21 1_555 1_555
C21 C22 1_555 1_555
C22 H17 1_555 1_555
C25 C21 1_555 1_555
C26 H21 1_555 1_555
H22 C26 1_555 1_555
C27 C26 1_555 1_555
H24 C29 1_555 1_555
N2 C22 1_555 1_555
O12 C20 1_555 1_555
C26 N2 1_555 1_555
C27 C29 1_555 1_555
C13 H5 1_555 1_555
C14 C13 1_555 1_555
H6 C14 1_555 1_555
H10 C18 1_555 1_555
C31 C35 1_555 1_555
C34 H25 1_555 1_555
C35 C34 1_555 1_555
O16 C31 1_555 1_555
O17 C31 1_555 1_555
O27 Co11 1_555 1_555
Co11 O14 1_555 1_555
C30 C33 1_555 1_555
C32 C37 1_555 1_555
H26 C36 1_555 1_555
C37 C36 1_555 1_555
C38 C33 1_555 1_555
H27 C38 1_555 1_555
Co3 O15 1_555 1_555
O15 C30 1_555 1_555
O18 C32 1_555 1_555
O19 C32 1_555 1_555
O30 Co3 1_555 1_555
H29 O21 1_555 1_555
H30 O21 1_555 1_555
O22 Co3 1_555 1_555
H31 O22 1_555 1_555
H32 O22 1_555 1_555
Co8 O18 1_555 1_555
Co10 O19 1_555 1_555
O23 Co3 1_555 1_555
C37 C38 1_555 1_555
C30_2 C33_2 1_555 1_555
C31_2 C35_2 1_555 1_555
C32_2 C37_2 1_555 1_555
C33_2 C34_2 1_555 1_555
C34_2 H25_2 1_555 1_555
C35_2 C34_2 1_555 1_555
C36_2 C35_2 1_555 1_555
H26_2 C36_2 1_555 1_555
C37_2 C36_2 1_555 1_555
C38_2 C33_2 1_555 1_555
H27_2 C38_2 1_555 1_555
Co8 O15_2 1_555 1_555
O14_2 C30_2 1_555 1_555
O15_2 C30_2 1_555 1_555
O16_2 C31_2 1_555 1_555
O24 C31_2 1_555 1_555
O26 C32_2 1_555 1_555
O28 C32_2 1_555 1_555
O22_2 Co8 1_555 1_555
H31_2 O22_2 1_555 1_555
H32_2 O22_2 1_555 1_555
C37_2 C38_2 1_555 1_555
Co10 O29 1_555 1_555
C20_2 C21_2 1_555 1_555
C21_2 C22_2 1_555 1_555
C22_2 H17_2 1_555 1_555
C23_2 H18_2 1_555 1_555
C24_2 C23_2 1_555 1_555
H19_2 C24_2 1_555 1_555
C25_2 C21_2 1_555 1_555
H20_2 C25_2 1_555 1_555
C26_2 H21_2 1_555 1_555
H22_2 C26_2 1_555 1_555
C27_2 C26_2 1_555 1_555
H23_2 C28_2 1_555 1_555
H24_2 C29_2 1_555 1_555
N2_2 C22_2 1_555 1_555
O12_2 C20_2 1_555 1_555
O13_2 C20_2 1_555 1_555
Co12 O12_2 1_555 1_555
H28_2 O20 1_555 1_555
O21_2 Co12 1_555 1_555
H29_2 O21_2 1_555 1_555
H30_2 O21_2 1_555 1_555
C23_2 N2_2 1_555 1_555
C24_2 C25_2 1_555 1_555
C26_2 N2_2 1_555 1_555
C27_2 C28_2 1_555 1_555
C27_2 C29_2 1_555 1_555
Co12 O20 1_555 1_555
C10_2 C11_2 1_555 1_555
C11_2 C12_2 1_555 1_555
C12_2 H4_2 1_555 1_555
C13_2 H5_2 1_555 1_555
C14_2 C13_2 1_555 1_555
H6_2 C14_2 1_555 1_555
C15_2 C11_2 1_555 1_555
H7_2 C15_2 1_555 1_555
C16_2 H8_2 1_555 1_555
H9_2 C16_2 1_555 1_555
C17_2 C16_2 1_555 1_555
C18_2 C17_2 1_555 1_555
H10_2 C18_2 1_555 1_555
C19_2 C17_2 1_555 1_555
H11_2 C19_2 1_555 1_555
N1_2 C12_2 1_555 1_555
O7_2 C10_2 1_555 1_555
O8_2 C10_2 1_555 1_555
H12_2 O29 1_555 1_555
O10_2 Co10 1_555 1_555
H13_2 O10_2 1_555 1_555
H14_2 O10_2 1_555 1_555
C13_2 N1_2 1_555 1_555
C14_2 C15_2 1_555 1_555
C16_2 N1_2 1_555 1_555
Co10 O7_2 1_555 1_555
C1_2 C4_2 1_555 1_555
C2_2 C6_2 1_555 1_555
C3_2 C8_2 1_555 1_555
C4_2 C5_2 1_555 1_555
C5_2 H1_2 1_555 1_555
C6_2 C5_2 1_555 1_555
C7_2 C6_2 1_555 1_555
H2_2 C7_2 1_555 1_555
C8_2 C7_2 1_555 1_555
C9_2 C4_2 1_555 1_555
H3_2 C9_2 1_555 1_555
Co6 O2_2 1_555 1_555
O1_2 C1_2 1_555 1_555
O2_2 C1_2 1_555 1_555
O3_2 C2_2 1_555 1_555
O23 C2_2 1_555 1_555
O25 C3_2 1_555 1_555
O27 C3_2 1_555 1_555
O11_2 Co6 1_555 1_555
H15_2 O11_2 1_555 1_555
H16_2 O11_2 1_555 1_555
C8_2 C9_2 1_555 1_555

#END
