
###############################################################################
#
# This file contains modified crystal structure data generated from the
# MOF subset of the Cambridge Structural Database (CSD) v543 
# hosted by the Cambridge Crystallographic Data Centre (CCDC).
#
# This work is licensed under the Creative Commons
# Attribution-NonCommercial-ShareAlike 4.0 International License.
# To view a copy of this license, visit
# http://creativecommons.org/licenses/by-nc-sa/4.0/
# or send a letter to
# Creative Commons, PO Box 1866, Mountain View, CA 94042, USA.
#
# CIF created using the CSD Python API on 29 September 2022
# The structure has been converted into the P1 space group
# The structure has a 3D framework
# The original CSD entry FIXLAC is in the monoclinic crystal system
# The original CSD entry FIXLAC is in a Sohncke space group
# The framework has been calculated to contain at least 10.0% void space
# The void calculation uses a probe of radius 1.32A, grid spacing 0.4
# The framework is charged, counterions have been retained in the structure
# H atom positions have been added when not included in the experimental data
#
###############################################################################

data_FIXLAC
_chemical_formula_moiety         '(C96 H80 Co10 N4 O60)n'
_symmetry_cell_setting           triclinic
_symmetry_space_group_name_H-M   'P 1'
_symmetry_Int_Tables_number      1
_space_group_name_Hall           'P 1'
loop_
_symmetry_equiv_pos_site_id
_symmetry_equiv_pos_as_xyz
1 x,y,z
_cell_length_a                   11.1688(2)
_cell_length_b                   16.0722(2)
_cell_length_c                   20.2135(3)
_cell_angle_alpha                90
_cell_angle_beta                 92.5890(10)
_cell_angle_gamma                90
_cell_volume                     3624.76
loop_
_atom_site_label
_atom_site_type_symbol
_atom_site_fract_x
_atom_site_fract_y
_atom_site_fract_z
C23 C 0.0478(7) 0.2524(6) 0.5904(4)
C24 C 0.0035(7) 0.1689(5) 0.6100(4)
H8 H 0.017618 0.113581 0.520048
O11 O 0.0823(6) 0.2582(4) 0.5313(3)
O12 O 0.0430(5) 0.3115(4) 0.6308(3)
O16 O 0.0837(5) 0.4010(4) 0.0299(3)
Co7 Co 0.26768(10) 0.40433(8) 0.02650(6)
Co10 Co 0.13501(10) 0.55397(8) 0.11376(6)
Co11 Co 0.09840(11) 0.43055(8) 0.61842(6)
Co14 Co 0.23717(11) 0.30891(8) 0.49700(6)
H39 H 0.0543795 0.0347502 0.332118
O39 O 0.0179(5) 0.0017(4) 0.9202(3)
C1 C 0.5780(8) 0.2757(6) 0.2248(4)
C2 C 0.6303(8) 0.1932(6) 0.2056(4)
C3 C 0.6247(7) 0.1664(6) 0.1407(4)
H1 H 0.587202 0.199888 0.107018
C4 C 0.6743(7) 0.0896(5) 0.1247(4)
C5 C 0.7272(7) 0.0425(6) 0.1747(4)
C6 C 0.7328(7) 0.0679(6) 0.2402(4)
C7 C 0.6822(8) 0.1438(6) 0.2562(4)
H3 H 0.682751 0.161972 0.300909
C8 C 0.7916(7) 0.0159(5) 0.2937(4)
C9 C 0.6714(7) 0.0571(5) 0.0545(4)
C18 C 0.6586(7) 0.3838(5) 0.0255(4)
C19 C 0.5400(6) 0.4203(5) 0.0427(4)
C21 C 0.9394(8) 0.0299(6) 0.5806(4)
C22 C 0.9100(7) 0.0161(6) 0.6458(4)
C25 C 0.9910(7) 0.1055(5) 0.5636(4)
C26 C 0.9727(7) 0.1552(6) 0.6756(4)
H9 H 0.982186 0.198297 0.707605
C27 C 0.9276(7) 0.0771(5) 0.6935(4)
C28 C 0.9006(7) 0.0594(5) 0.7652(4)
C29 C 0.9895(7) 0.4349(5) 0.0468(4)
C30 C 0.8745(7) 0.3914(5) 0.0278(4)
C31 C 0.7631(7) 0.4252(5) 0.0431(4)
H10 H 0.759883 0.476895 0.065772
O1 O 0.5226(6) 0.3152(4) 0.1750(3)
H13 H 0.487832 0.359775 0.186317
O2 O 0.5856(7) 0.3031(5) 0.2807(3)
O4 O 0.8019(6) 0.0410(4) 0.3520(3)
O5 O 0.5974(5) 0.0912(4) 0.0132(3)
O9 O 0.5456(5) 0.4824(4) 0.0798(3)
O10 O 0.4473(5) 0.3871(4) 0.0175(3)
O13 O 0.8935(5) 0.1208(4) 0.8040(3)
O15 O 0.9821(5) 0.5017(4) 0.0798(3)
Co8 Co 0.42170(10) 0.57284(8) 0.09171(6)
Co9 Co 0.86499(10) 0.05397(8) 0.88624(6)
C10 C 0.3610(8) 0.1959(6) 0.5954(4)
C11 C 0.4270(8) 0.1153(6) 0.6124(4)
C12 C 0.4613(7) 0.0985(5) 0.6775(4)
H4 H 0.441226 0.136647 0.711112
C13 C 0.4608(8) 0.0617(6) 0.5625(4)
H5 H 0.438976 0.073688 0.517589
C16 C 0.5255(8) 0.0257(6) 0.6949(4)
C17 C 0.5632(7) 0.0107(5) 0.7659(4)
C32 C 0.8785(6) 0.3164(5) 0.9946(4)
H11 H 0.953698 0.293269 0.984317
C33 C 0.7725(7) 0.2743(5) 0.9762(4)
C34 C 0.6618(7) 0.3087(5) 0.9909(4)
H12 H 0.589424 0.281171 0.977480
C35 C 0.7770(7) 0.1930(5) 0.9401(4)
O7 O 0.3436(7) 0.2449(4) 0.6427(3)
O8 O 0.3312(6) 0.2072(4) 0.5357(3)
O18 O 0.6907(5) 0.1751(3) 0.9004(3)
O20 O 0.8682(5) 0.1477(3) 0.9509(3)
O23 O 0.4328(5) 0.1613(4) 0.9030(3)
O24 O 0.5514(5) 0.0714(4) 0.8039(3)
Co2 Co 0.57830(10) 0.07284(8) 0.90829(6)
H33 H 0.462008 0.216183 0.919511
H34 H 0.402099 0.166866 0.856336
H2 H 0.761302 0.990330 0.163895
C20 C 0.9110(7) 0.9634(5) 0.5298(4)
H7 H 0.877214 0.963971 0.657701
O3 O 0.8316(6) 0.9439(4) 0.2790(3)
O6 O 0.7400(5) 0.9979(4) 0.0442(3)
O14 O 0.8870(6) 0.9868(4) 0.7832(3)
O19 O 0.7884(7) 0.7416(5) 0.5919(3)
O21 O 0.9509(5) 0.9755(4) 0.4725(3)
O22 O 0.8516(6) 0.9029(4) 0.5485(3)
O26 O 0.7549(5) 0.8179(4) 0.0538(3)
O28 O 0.7380(5) 0.8785(4) 0.4124(2)
H15 H 0.716118 0.842326 0.383804
H16 H 0.691657 0.918292 0.421500
Co4 Co 0.90160(11) 0.93055(8) 0.38158(6)
Co5 Co 0.76283(11) 0.80891(8) 0.50300(6)
O32 O 0.6688(6) 0.7072(4) 0.4643(3)
O35 O 0.9177(6) 0.7582(4) 0.4687(3)
O36 O 0.9570(5) 0.8115(4) 0.3692(3)
O41 O 0.6068(6) 0.8632(4) 0.5391(3)
H31 H 0.750181 0.771842 0.628229
H32 H 0.751525 0.685641 0.586583
H37 H 0.687751 0.824163 0.0839788
H38 H 0.755427 0.760293 0.0360592
C14 C 0.5271(7) 0.9899(6) 0.5787(4)
C15 C 0.5571(7) 0.9711(6) 0.6442(4)
H6 H 0.599071 0.921131 0.654921
C36 C 0.5710(8) 0.9363(6) 0.5237(4)
O25 O 0.7306(7) 0.7982(4) 0.9091(3)
O27 O 0.7175(5) 0.9890(4) 0.8988(2)
H14 H 0.696991 0.962080 0.863834
O29 O 0.5735(7) 0.9665(5) 0.4663(3)
O31 O 0.6013(5) 0.9402(4) 0.7823(3)
Co1 Co 0.73232(10) 0.90433(8) 0.97350(6)
O33 O 0.4544(5) 0.9824(4) 0.9202(3)
O34 O 0.5527(5) 0.8871(4) 0.9825(3)
O40 O 0.9163(5) 0.9010(4) 0.9701(3)
H35 H 0.67301 0.756313 0.924798
H36 H 0.705934 0.815743 0.863391
C10_2 C 0.6390(8) 0.6959(6) 0.4046(4)
C11_2 C 0.5730(8) 0.6153(6) 0.3876(4)
C12_2 C 0.5387(7) 0.5985(5) 0.3225(4)
H4_2 H 0.558774 0.636647 0.288888
C13_2 C 0.5392(8) 0.5617(6) 0.4375(4)
H5_2 H 0.561024 0.573688 0.482411
C14_2 C 0.4729(7) 0.4899(6) 0.4213(4)
C15_2 C 0.4429(7) 0.4711(6) 0.3558(4)
H6_2 H 0.400929 0.421131 0.345079
C16_2 C 0.4745(8) 0.5257(6) 0.3051(4)
C17_2 C 0.4368(7) 0.5107(5) 0.2341(4)
C32_2 C 0.1215(6) 0.8164(5) 0.0054(4)
H11_2 H 0.046302 0.793269 0.015683
C33_2 C 0.2275(7) 0.7743(5) 0.0238(4)
C34_2 C 0.3382(7) 0.8087(5) 0.0091(4)
H12_2 H 0.410576 0.781171 0.022520
C35_2 C 0.2230(7) 0.6930(5) 0.0599(4)
C36_2 C 0.4290(8) 0.4363(6) 0.4763(4)
O7_2 O 0.6564(7) 0.7449(4) 0.3573(3)
O17 O 0.3932(6) 0.3632(4) 0.4609(3)
O18_2 O 0.3093(5) 0.6751(3) 0.0996(3)
O20_2 O 0.1318(5) 0.6477(3) 0.0491(3)
O23_2 O 0.5672(5) 0.6613(4) 0.0970(3)
O24_2 O 0.4486(5) 0.5714(4) 0.1961(3)
O25_2 O 0.2694(7) 0.2982(4) 0.0909(3)
O27_2 O 0.2825(5) 0.4890(4) 0.1012(2)
H14_2 H 0.303009 0.462080 0.136166
O29_2 O 0.4265(7) 0.4665(5) 0.5337(3)
O31_2 O 0.3987(5) 0.4402(4) 0.2177(3)
O37 O 0.1065(5) 0.6208(4) 0.1960(3)
O38 O 0.1130(6) 0.4868(4) 0.2168(3)
H33_2 H 0.537992 0.716183 0.0804888
H34_2 H 0.597901 0.666866 0.143664
H35_2 H 0.32699 0.256313 0.0752024
H36_2 H 0.294066 0.315743 0.136609
C1_2 C 0.4220(8) 0.7757(6) 0.7752(4)
C2_2 C 0.3697(8) 0.6932(6) 0.7944(4)
C3_2 C 0.3753(7) 0.6664(6) 0.8593(4)
H1_2 H 0.412798 0.699888 0.892982
C4_2 C 0.3257(7) 0.5896(5) 0.8753(4)
C5_2 C 0.2728(7) 0.5425(6) 0.8253(4)
H2_2 H 0.238698 0.490330 0.836105
C6_2 C 0.2672(7) 0.5679(6) 0.7598(4)
C7_2 C 0.3178(8) 0.6438(6) 0.7438(4)
H3_2 H 0.317249 0.661972 0.699091
C8_2 C 0.2084(7) 0.5159(5) 0.7063(4)
C9_2 C 0.3286(7) 0.5571(5) 0.9455(4)
C18_2 C 0.3414(7) 0.8838(5) 0.9745(4)
C19_2 C 0.4600(6) 0.9203(5) 0.9573(4)
C20_2 C 0.0890(7) 0.4634(5) 0.4702(4)
C21_2 C 0.0606(8) 0.5299(6) 0.4194(4)
C22_2 C 0.0900(7) 0.5161(6) 0.3542(4)
H7_2 H 0.122786 0.463971 0.342299
C25_2 C 0.0090(7) 0.6055(5) 0.4364(4)
C26_2 C 0.0273(7) 0.6552(6) 0.3244(4)
H9_2 H 0.017814 0.698297 0.292395
C27_2 C 0.0724(7) 0.5771(5) 0.3065(4)
C28_2 C 0.0994(7) 0.5594(5) 0.2348(4)
C29_2 C 0.0105(7) 0.9349(5) 0.9532(4)
C30_2 C 0.1255(7) 0.8914(5) 0.9722(4)
C31_2 C 0.2369(7) 0.9252(5) 0.9569(4)
H10_2 H 0.240117 0.976895 0.934228
O1_2 O 0.4774(6) 0.8152(4) 0.8250(3)
H13_2 H 0.512168 0.859775 0.813683
O2_2 O 0.4144(7) 0.8031(5) 0.7193(3)
O3_2 O 0.1684(6) 0.4439(4) 0.7210(3)
O4_2 O 0.1981(6) 0.5410(4) 0.6480(3)
O5_2 O 0.4026(5) 0.5912(4) 0.9868(3)
O6_2 O 0.2600(5) 0.4979(4) 0.9558(3)
O19_2 O 0.2116(7) 0.2416(5) 0.4081(3)
O21_2 O 0.0491(5) 0.4755(4) 0.5275(3)
O22_2 O 0.1484(6) 0.4029(4) 0.4515(3)
O26_2 O 0.2451(5) 0.3179(4) 0.9462(3)
O28_2 O 0.2620(5) 0.3785(4) 0.5876(2)
H15_2 H 0.283882 0.342326 0.616196
H16_2 H 0.308343 0.418292 0.578500
H31_2 H 0.249819 0.271842 0.371771
H32_2 H 0.248475 0.185641 0.413417
H37_2 H 0.312249 0.324163 0.916021
H38_2 H 0.244573 0.260293 0.963941
C23_2 C 0.9522(7) 0.7524(6) 0.4096(4)
C24_2 C 0.9965(7) 0.6689(5) 0.3900(4)
H8_2 H 0.982382 0.613581 0.479952
O30 O 0.9332(6) 0.4780(5) 0.6494(3)
H39_2 H 0.945621 0.53475 0.667882
H40 H 0.874792 0.480486 0.610929
O30_2 O 0.0668(6) 0.9780(5) 0.3506(3)
H40_2 H 0.125208 0.980486 0.389071
C37 C 0.6550(11) 0.3063(9) 0.6602(8)
C38 C 0.6655(13) 0.2528(9) 0.7156(10)
H17 H 0.703553 0.200212 0.712124
C39 C 0.6207(16) 0.2771(11) 0.7735(9)
H18 H 0.632890 0.242882 0.811572
C40 C 0.5474(17) 0.4001(11) 0.7259(7)
H19 H 0.505577 0.451181 0.729875
C41 C 0.5934(16) 0.3807(11) 0.6677(9)
H20 H 0.583892 0.418049 0.631362
C42 C 0.502(2) 0.3706(14) 0.8445(8)
H21 H 0.434929 0.409343 0.836169
H22 H 0.562018 0.396521 0.874599
H23 H 0.472062 0.319586 0.864567
C43 C 0.7029(11) 0.2844(8) 0.5962(8)
C44 C 0.6981(13) 0.2031(11) 0.5727(10)
H24 H 0.663144 0.160733 0.598374
C45 C 0.7422(13) 0.1842(9) 0.5145(10)
H25 H 0.733354 0.129021 0.498119
C46 C 0.7569(14) 0.3447(9) 0.5568(7)
H26 H 0.759665 0.401323 0.570357
C47 C 0.8055(15) 0.3208(9) 0.4984(8)
H27 H 0.844052 0.360888 0.472203
C48 C 0.8551(17) 0.2189(11) 0.4171(8)
H28 H 0.849416 0.158653 0.410087
H29 H 0.939599 0.235452 0.420167
H30 H 0.814202 0.247856 0.379889
N1 N 0.5585(15) 0.3494(9) 0.7787(7)
N2 N 0.7990(12) 0.2406(8) 0.4780(6)
C37_2 C 0.3450(11) 0.8063(9) 0.3398(8)
C38_2 C 0.3345(13) 0.7528(9) 0.2844(10)
H17_2 H 0.296447 0.700212 0.287876
C39_2 C 0.3793(16) 0.7771(11) 0.2265(9)
H18_2 H 0.367110 0.742882 0.188428
C40_2 C 0.4526(17) 0.9001(11) 0.2741(7)
H19_2 H 0.494423 0.951181 0.270125
C41_2 C 0.4066(16) 0.8807(11) 0.3323(9)
H20_2 H 0.416108 0.918049 0.368638
C42_2 C 0.498(2) 0.8706(14) 0.1555(8)
H21_2 H 0.565071 0.909343 0.163831
H22_2 H 0.437982 0.896521 0.125401
H23_2 H 0.527938 0.819586 0.135433
C43_2 C 0.2971(11) 0.7844(8) 0.4038(8)
C44_2 C 0.3019(13) 0.7031(11) 0.4273(10)
H24_2 H 0.336856 0.660733 0.401626
C45_2 C 0.2578(13) 0.6842(9) 0.4855(10)
H25_2 H 0.266646 0.629021 0.501881
C46_2 C 0.2431(14) 0.8447(9) 0.4432(7)
H26_2 H 0.240335 0.901323 0.429643
C47_2 C 0.1945(15) 0.8208(9) 0.5016(8)
H27_2 H 0.155948 0.860888 0.527797
C48_2 C 0.1449(17) 0.7189(11) 0.5829(8)
H28_2 H 0.150584 0.658653 0.589913
H29_2 H 0.060401 0.735452 0.579833
H30_2 H 0.185798 0.747856 0.620111
N1_2 N 0.4415(15) 0.8494(9) 0.2213(7)
N2_2 N 0.2010(12) 0.7406(8) 0.5220(6)
loop_
_geom_bond_atom_site_label_1
_geom_bond_atom_site_label_2
_geom_bond_site_symmetry_1
_geom_bond_site_symmetry_2
C23 C24 1_555 1_555
O11 C23 1_555 1_555
O12 C23 1_555 1_555
Co7 O16 1_555 1_555
Co11 O12 1_555 1_555
Co14 O11 1_555 1_555
C1 C2 1_555 1_555
C2 C3 1_555 1_555
C3 H1 1_555 1_555
C4 C3 1_555 1_555
C5 C4 1_555 1_555
C6 C5 1_555 1_555
C7 C2 1_555 1_555
H3 C7 1_555 1_555
C8 C6 1_555 1_555
C9 C4 1_555 1_555
C18 C19 1_555 1_555
C19 O9 1_555 1_555
C21 C22 1_555 1_555
C25 C21 1_555 1_555
H9 C26 1_555 1_555
C27 C22 1_555 1_555
C28 C27 1_555 1_555
C29 C30 1_555 1_555
C30 C31 1_555 1_555
C31 C18 1_555 1_555
H10 C31 1_555 1_555
O1 C1 1_555 1_555
H13 O1 1_555 1_555
O2 C1 1_555 1_555
O4 C8 1_555 1_555
O5 C9 1_555 1_555
O9 Co8 1_555 1_555
O10 C19 1_555 1_555
O13 C28 1_555 1_555
O15 C29 1_555 1_555
Co7 O10 1_555 1_555
Co9 O13 1_555 1_555
C6 C7 1_555 1_555
C26 C27 1_555 1_555
C10 C11 1_555 1_555
C11 C12 1_555 1_555
C12 H4 1_555 1_555
C13 C11 1_555 1_555
H5 C13 1_555 1_555
C16 C12 1_555 1_555
C17 C16 1_555 1_555
H11 C32 1_555 1_555
C33 C32 1_555 1_555
H12 C34 1_555 1_555
C35 C33 1_555 1_555
O7 C10 1_555 1_555
O8 C10 1_555 1_555
O18 C35 1_555 1_555
O20 C35 1_555 1_555
O23 Co2 1_555 1_555
O24 C17 1_555 1_555
Co9 O20 1_555 1_555
Co14 O8 1_555 1_555
C33 C34 1_555 1_555
O18 Co2 1_555 1_555
O24 Co2 1_555 1_555
O23 H33 1_555 1_555
O23 H34 1_555 1_555
O19 Co5 1_555 1_555
O21 C20 1_555 1_555
O22 C20 1_555 1_555
O28 H15 1_555 1_555
H16 O28 1_555 1_555
Co4 O3 1_555 1_555
Co5 O22 1_555 1_555
O32 Co5 1_555 1_555
O35 Co5 1_555 1_555
O36 Co4 1_555 1_555
O41 Co5 1_555 1_555
O21 Co4 1_555 1_555
O28 Co4 1_555 1_555
O28 Co5 1_555 1_555
O19 H31 1_555 1_555
O19 H32 1_555 1_555
O26 H37 1_555 1_555
O26 H38 1_555 1_555
C15 C14 1_555 1_555
H6 C15 1_555 1_555
C36 C14 1_555 1_555
O41 C36 1_555 1_555
O25 Co1 1_555 1_555
O27 H14 1_555 1_555
O29 C36 1_555 1_555
O34 Co1 1_555 1_555
O40 Co1 1_555 1_555
O27 Co1 1_555 1_555
O25 H35 1_555 1_555
O25 H36 1_555 1_555
C10_2 C11_2 1_555 1_555
C11_2 C12_2 1_555 1_555
C12_2 H4_2 1_555 1_555
C13_2 C11_2 1_555 1_555
H5_2 C13_2 1_555 1_555
C14_2 C13_2 1_555 1_555
C15_2 C14_2 1_555 1_555
H6_2 C15_2 1_555 1_555
C16_2 C12_2 1_555 1_555
C17_2 C16_2 1_555 1_555
H11_2 C32_2 1_555 1_555
C33_2 C32_2 1_555 1_555
H12_2 C34_2 1_555 1_555
C35_2 C33_2 1_555 1_555
C36_2 C14_2 1_555 1_555
O7_2 C10_2 1_555 1_555
O32 C10_2 1_555 1_555
O17 C36_2 1_555 1_555
O18_2 C35_2 1_555 1_555
O20_2 C35_2 1_555 1_555
O23_2 Co8 1_555 1_555
O24_2 C17_2 1_555 1_555
O25_2 Co7 1_555 1_555
O27_2 H14_2 1_555 1_555
O29_2 C36_2 1_555 1_555
O31_2 C17_2 1_555 1_555
Co10 O20_2 1_555 1_555
O37 Co10 1_555 1_555
O38 Co10 1_555 1_555
Co14 O17 1_555 1_555
C15_2 C16_2 1_555 1_555
C33_2 C34_2 1_555 1_555
O18_2 Co8 1_555 1_555
O24_2 Co8 1_555 1_555
O27_2 Co7 1_555 1_555
O27_2 Co8 1_555 1_555
O27_2 Co10 1_555 1_555
O23_2 H33_2 1_555 1_555
O23_2 H34_2 1_555 1_555
O25_2 H35_2 1_555 1_555
O25_2 H36_2 1_555 1_555
C1_2 C2_2 1_555 1_555
C2_2 C3_2 1_555 1_555
C3_2 H1_2 1_555 1_555
C4_2 C3_2 1_555 1_555
C5_2 C4_2 1_555 1_555
H2_2 C5_2 1_555 1_555
C6_2 C5_2 1_555 1_555
C7_2 C2_2 1_555 1_555
H3_2 C7_2 1_555 1_555
C8_2 C6_2 1_555 1_555
C9_2 C4_2 1_555 1_555
C18_2 C19_2 1_555 1_555
C19_2 O33 1_555 1_555
C20_2 C21_2 1_555 1_555
C21_2 C22_2 1_555 1_555
C22_2 H7_2 1_555 1_555
C25_2 C21_2 1_555 1_555
H9_2 C26_2 1_555 1_555
C27_2 C22_2 1_555 1_555
C28_2 C27_2 1_555 1_555
C29_2 C30_2 1_555 1_555
C30_2 C31_2 1_555 1_555
C31_2 C18_2 1_555 1_555
H10_2 C31_2 1_555 1_555
O1_2 C1_2 1_555 1_555
H13_2 O1_2 1_555 1_555
O2_2 C1_2 1_555 1_555
O3_2 C8_2 1_555 1_555
O4_2 C8_2 1_555 1_555
O5_2 C9_2 1_555 1_555
O6_2 C9_2 1_555 1_555
O34 C19_2 1_555 1_555
O37 C28_2 1_555 1_555
O38 C28_2 1_555 1_555
O19_2 Co14 1_555 1_555
O21_2 C20_2 1_555 1_555
O22_2 C20_2 1_555 1_555
O28_2 H15_2 1_555 1_555
H16_2 O28_2 1_555 1_555
Co11 O3_2 1_555 1_555
Co14 O22_2 1_555 1_555
C6_2 C7_2 1_555 1_555
C26_2 C27_2 1_555 1_555
O4_2 Co11 1_555 1_555
O21_2 Co11 1_555 1_555
O28_2 Co11 1_555 1_555
O28_2 Co14 1_555 1_555
O19_2 H31_2 1_555 1_555
O19_2 H32_2 1_555 1_555
O26_2 H37_2 1_555 1_555
O26_2 H38_2 1_555 1_555
C23_2 C24_2 1_555 1_555
O35 C23_2 1_555 1_555
O36 C23_2 1_555 1_555
O30 H39_2 1_555 1_555
O30 H40 1_555 1_555
O30_2 H40_2 1_555 1_555
C37 C38 1_555 1_555
C38 H17 1_555 1_555
C39 C38 1_555 1_555
H18 C39 1_555 1_555
C40 H19 1_555 1_555
C41 C37 1_555 1_555
H20 C41 1_555 1_555
C42 H21 1_555 1_555
H22 C42 1_555 1_555
H23 C42 1_555 1_555
C43 C37 1_555 1_555
C44 C43 1_555 1_555
H24 C44 1_555 1_555
C45 C44 1_555 1_555
H25 C45 1_555 1_555
C46 C43 1_555 1_555
H26 C46 1_555 1_555
C47 C46 1_555 1_555
H27 C47 1_555 1_555
C48 H28 1_555 1_555
H29 C48 1_555 1_555
H30 C48 1_555 1_555
N1 C39 1_555 1_555
N2 C45 1_555 1_555
C40 C41 1_555 1_555
C40 N1 1_555 1_555
C42 N1 1_555 1_555
C47 N2 1_555 1_555
C48 N2 1_555 1_555
C37_2 C38_2 1_555 1_555
C38_2 H17_2 1_555 1_555
C39_2 C38_2 1_555 1_555
H18_2 C39_2 1_555 1_555
C40_2 H19_2 1_555 1_555
C41_2 C37_2 1_555 1_555
H20_2 C41_2 1_555 1_555
C42_2 H21_2 1_555 1_555
H22_2 C42_2 1_555 1_555
H23_2 C42_2 1_555 1_555
C43_2 C37_2 1_555 1_555
C44_2 C43_2 1_555 1_555
H24_2 C44_2 1_555 1_555
C45_2 C44_2 1_555 1_555
H25_2 C45_2 1_555 1_555
C46_2 C43_2 1_555 1_555
H26_2 C46_2 1_555 1_555
C47_2 C46_2 1_555 1_555
H27_2 C47_2 1_555 1_555
C48_2 H28_2 1_555 1_555
H29_2 C48_2 1_555 1_555
H30_2 C48_2 1_555 1_555
N1_2 C39_2 1_555 1_555
N2_2 C45_2 1_555 1_555
C40_2 C41_2 1_555 1_555
C40_2 N1_2 1_555 1_555
C42_2 N1_2 1_555 1_555
C47_2 N2_2 1_555 1_555
C48_2 N2_2 1_555 1_555

#END
