
###############################################################################
#
# This file contains modified crystal structure data generated from the
# MOF subset of the Cambridge Structural Database (CSD) v543 
# hosted by the Cambridge Crystallographic Data Centre (CCDC).
#
# This work is licensed under the Creative Commons
# Attribution-NonCommercial-ShareAlike 4.0 International License.
# To view a copy of this license, visit
# http://creativecommons.org/licenses/by-nc-sa/4.0/
# or send a letter to
# Creative Commons, PO Box 1866, Mountain View, CA 94042, USA.
#
# CIF created using the CSD Python API on 29 September 2022
# The structure has been converted into the P1 space group
# The structure has a 3D framework
# The original CSD entry FIXTIS is in the triclinic crystal system
# The framework has been calculated to contain at least 10.0% void space
# The void calculation uses a probe of radius 1.32A, grid spacing 0.4
#
###############################################################################

data_FIXTIS
_chemical_formula_moiety         '(C48 H28 O14 Pb4)n'
_symmetry_cell_setting           triclinic
_symmetry_space_group_name_H-M   'P 1'
_symmetry_Int_Tables_number      1
_space_group_name_Hall           'P 1'
loop_
_symmetry_equiv_pos_site_id
_symmetry_equiv_pos_as_xyz
1 x,y,z
_cell_length_a                   8.2143(7)
_cell_length_b                   11.8601(11)
_cell_length_c                   14.6928(18)
_cell_angle_alpha                102.099(18)
_cell_angle_beta                 93.567(14)
_cell_angle_gamma                109.763(12)
_cell_volume                     1303.32
loop_
_atom_site_label
_atom_site_type_symbol
_atom_site_fract_x
_atom_site_fract_y
_atom_site_fract_z
_atom_site_U_iso_or_equiv
_atom_site_thermal_displace_type
C29 C 0.2171(9) 0.0570(7) 0.0725(5) 0.0438 Uani
H16 H 0.333788 0.096870 0.067456 0.0530 Uiso
C30 C 0.1753(8) 0.0254(6) 0.1550(5) 0.0349 Uani
H17 H 0.262890 0.043142 0.204796 0.0420 Uiso
O10 O 0.2075(5) 0.1132(4) 0.7381(3) 0.0298 Uani
C25 C 0.0467(8) 0.0684(5) 0.7459(5) 0.0260 Uani
C26 C 0.0011(8) 0.0341(5) 0.8362(4) 0.0277 Uani
C27 C 0.1293(8) 0.0633(6) 0.9104(5) 0.0305 Uani
H15 H 0.244926 0.105097 0.904507 0.0370 Uiso
C28 C 0.0893(8) 0.0310(6) 0.9959(5) 0.0329 Uani
Pb11 Pb 0.18954(3) 0.15997(2) 0.59200(2) 0.0210 Uani
O3 O 0.0703(5) 0.9450(3) 0.3180(3) 0.0246 Uani
Pb12 Pb 0.25462(3) 0.78194(2) 0.32234(2) 0.0236 Uani
O30 O 0.1182(6) 0.9272(3) 0.5397(3) 0.0364 Uani
O28 O 0.8818(6) 0.0728(3) 0.4603(3) 0.0364 Uani
O11 O 0.9297(5) 0.0550(3) 0.6820(3) 0.0246 Uani
Pb13 Pb 0.74538(3) 0.21806(2) 0.67766(2) 0.0236 Uani
Pb1 Pb 0.81046(3) 0.84003(2) 0.40800(2) 0.0210 Uani
O1 O 0.7925(5) 0.8868(4) 0.2619(3) 0.0298 Uani
O2 O 0.4409(6) 0.8468(6) 0.2112(3) 0.0554 Uani
H1 H 0.398(8) 0.810(7) 0.156(2) 0.0840 Uiso
H2 H 0.546(3) 0.862(7) 0.223(5) 0.0840 Uiso
O4 O 0.4956(5) 0.6853(3) 0.3483(4) 0.0368 Uani
O5 O 0.2190(6) 0.5695(4) 0.3202(4) 0.0440 Uani
O6 O 0.0774(6) 0.6873(4) 0.1784(3) 0.0373 Uani
C1 C 0.9533(8) 0.9316(5) 0.2541(5) 0.0260 Uani
C2 C 0.9989(8) 0.9659(5) 0.1638(4) 0.0277 Uani
C3 C 0.8707(8) 0.9367(6) 0.0896(5) 0.0305 Uani
H3 H 0.755074 0.894903 0.095493 0.0370 Uiso
C4 C 0.9107(8) 0.9690(6) 0.0041(5) 0.0329 Uani
C13 C 0.3751(8) 0.5834(5) 0.3435(4) 0.0262 Uani
C14 C 0.4164(8) 0.4767(5) 0.3651(4) 0.0239 Uani
C15 C 0.2752(7) 0.3658(5) 0.3614(4) 0.0250 Uani
H9 H 0.160651 0.361670 0.348844 0.0300 Uiso
C16 C 0.3076(7) 0.2646(5) 0.3764(4) 0.0234 Uani
H10 H 0.214516 0.192058 0.373772 0.0280 Uiso
C17 C 0.4807(7) 0.2691(5) 0.3956(4) 0.0227 Uani
C18 C 0.5190(8) 0.1649(5) 0.4076(4) 0.0239 Uani
H11 H 0.428052 0.090139 0.402115 0.0290 Uiso
C19 C 0.6874(7) 0.1726(5) 0.4271(4) 0.0200 Uani
C20 C 0.7258(7) 0.0599(5) 0.4352(4) 0.0184 Uani
C21 C 0.8272(8) 0.2856(5) 0.4358(5) 0.0293 Uani
H12 H 0.941638 0.291057 0.451285 0.0350 Uiso
C22 C 0.7948(7) 0.3870(5) 0.4216(5) 0.0287 Uani
H13 H 0.887708 0.460142 0.425223 0.0340 Uiso
C23 C 0.6206(7) 0.3813(5) 0.4012(4) 0.0222 Uani
C24 C 0.5835(7) 0.4835(5) 0.3839(4) 0.0238 Uani
H14 H 0.675041 0.556530 0.385480 0.0290 Uiso
O23 O 0.8895(5) 0.6642(4) 0.2824(3) 0.0332 Uani
O25 O 0.6058(5) 0.9559(3) 0.4149(3) 0.0281 Uani
C7 C 0.9213(8) 0.6504(5) 0.1991(5) 0.0301 Uani
C8 C 0.7795(8) 0.5914(6) 0.1142(5) 0.0362 Uani
C9 C 0.6118(9) 0.5737(7) 0.1245(5) 0.0454 Uani
H6 H 0.582946 0.597818 0.183827 0.0550 Uiso
C10 C 0.4754(8) 0.5172(6) 0.0436(5) 0.0412 Uani
C11 C 0.3008(10) 0.4989(8) 0.0524(6) 0.0659 Uani
H7 H 0.269892 0.524572 0.110840 0.0790 Uiso
C36 C 0.8234(10) 0.5562(8) 0.0240(6) 0.0620 Uani
H20 H 0.940052 0.571078 0.016960 0.0740 Uiso
C12 C 0.1766(10) 0.4438(8) 0.9760(6) 0.0620 Uani
H8 H 0.059948 0.428922 0.983040 0.0740 Uiso
O13 O 0.1105(5) 0.3358(4) 0.7176(3) 0.0332 Uani
C31 C 0.0787(8) 0.3496(5) 0.8009(5) 0.0301 Uani
C32 C 0.2205(8) 0.4086(6) 0.8858(5) 0.0362 Uani
C33 C 0.3882(9) 0.4263(7) 0.8755(5) 0.0454 Uani
H18 H 0.417054 0.402182 0.816173 0.0550 Uiso
C34 C 0.5246(8) 0.4828(6) 0.9564(5) 0.0412 Uani
C35 C 0.6992(10) 0.5011(8) 0.9476(6) 0.0659 Uani
H19 H 0.730108 0.475428 0.889160 0.0790 Uiso
O17 O 0.3942(5) 0.0441(3) 0.5851(3) 0.0281 Uani
O12 O 0.9226(6) 0.3127(4) 0.8216(3) 0.0373 Uani
O14 O 0.5591(6) 0.1532(6) 0.7888(3) 0.0554 Uani
H21 H 0.602(8) 0.190(7) 0.844(2) 0.0840 Uiso
H22 H 0.454(3) 0.138(7) 0.777(5) 0.0840 Uiso
O15 O 0.5044(5) 0.3147(3) 0.6517(4) 0.0368 Uani
O16 O 0.7810(6) 0.4305(4) 0.6798(4) 0.0440 Uani
C37 C 0.6249(8) 0.4166(5) 0.6565(4) 0.0262 Uani
C38 C 0.5836(8) 0.5233(5) 0.6349(4) 0.0239 Uani
C39 C 0.7248(7) 0.6342(5) 0.6386(4) 0.0250 Uani
H23 H 0.839349 0.638330 0.651156 0.0300 Uiso
C40 C 0.6924(7) 0.7354(5) 0.6236(4) 0.0234 Uani
H24 H 0.785484 0.807942 0.626228 0.0280 Uiso
C41 C 0.5193(7) 0.7309(5) 0.6044(4) 0.0227 Uani
C42 C 0.4810(8) 0.8351(5) 0.5924(4) 0.0239 Uani
H25 H 0.571948 0.909861 0.597885 0.0290 Uiso
C43 C 0.3126(7) 0.8274(5) 0.5729(4) 0.0200 Uani
C44 C 0.2742(7) 0.9401(5) 0.5648(4) 0.0184 Uani
C45 C 0.1728(8) 0.7144(5) 0.5642(5) 0.0293 Uani
H26 H 0.058362 0.708943 0.548715 0.0350 Uiso
C46 C 0.2052(7) 0.6130(5) 0.5784(5) 0.0287 Uani
H27 H 0.112292 0.539858 0.574777 0.0340 Uiso
C47 C 0.3794(7) 0.6187(5) 0.5988(4) 0.0222 Uani
C48 C 0.4165(7) 0.5165(5) 0.6161(4) 0.0238 Uani
H28 H 0.324959 0.443470 0.614520 0.0290 Uiso
C5 C 0.7829(9) 0.9430(7) 0.9275(5) 0.0438 Uani
H4 H 0.666212 0.903130 0.932544 0.0530 Uiso
C6 C 0.8247(8) 0.9746(6) 0.8450(5) 0.0349 Uani
H5 H 0.737110 0.956858 0.795204 0.0420 Uiso
loop_
_atom_site_aniso_label
_atom_site_aniso_U_11
_atom_site_aniso_U_22
_atom_site_aniso_U_33
_atom_site_aniso_U_23
_atom_site_aniso_U_13
_atom_site_aniso_U_12
C29 0.022 0.07 0.035 0.028 -0.002 0.003
C30 0.031 0.055 0.017 0.012 0 0.012
O10 0.027 0.042 0.025 0.0167 0.0107 0.012
C25 0.033 0.023 0.031 0.013 0.014 0.016
C26 0.034 0.031 0.017 0.01 0.008 0.007
C27 0.015 0.044 0.031 0.015 -0.001 0.006
C28 0.028 0.049 0.023 0.017 0.008 0.01
Pb11 0.02235 0.02154 0.02155 0.00882 0.0017 0.00926
O3 0.025 0.034 0.02 0.0129 -0.0006 0.0141
Pb12 0.0211 0.02516 0.02563 0.00556 -0.00047 0.01079
O30 0.041 0.024 0.042 0.0045 -0.01 0.014
O28 0.041 0.024 0.042 0.0045 -0.01 0.014
O11 0.025 0.034 0.02 0.0129 -0.0006 0.0141
Pb13 0.0211 0.02516 0.02563 0.00556 -0.00047 0.01079
Pb1 0.02235 0.02154 0.02155 0.00882 0.0017 0.00926
O1 0.027 0.042 0.025 0.0167 0.0107 0.012
O2 0.022 0.107 0.028 0.023 -0.008 0.01
O4 0.021 0.02 0.071 0.013 0.004 0.0089
O5 0.027 0.029 0.076 0.015 -0.011 0.012
O6 0.031 0.05 0.022 0.004 -0.001 0.007
C1 0.033 0.023 0.031 0.013 0.014 0.016
C2 0.034 0.031 0.017 0.01 0.008 0.007
C3 0.015 0.044 0.031 0.015 -0.001 0.006
C4 0.028 0.049 0.023 0.017 0.008 0.01
C13 0.029 0.025 0.028 0.005 0.004 0.015
C14 0.031 0.018 0.024 0.007 0.006 0.009
C15 0.014 0.027 0.034 0.009 0 0.007
C16 0.019 0.021 0.026 0.006 0.002 0.002
C17 0.027 0.019 0.021 0.006 0.005 0.006
C18 0.029 0.016 0.025 0.005 0.004 0.006
C19 0.02 0.021 0.019 0.004 -0.003 0.009
C20 0.023 0.026 0.008 0.003 -0.005 0.013
C21 0.026 0.025 0.037 0.006 0 0.011
C22 0.019 0.023 0.041 0.01 0.001 0.003
C23 0.024 0.02 0.021 0.004 0.001 0.007
C24 0.02 0.018 0.031 0.005 0 0.005
O23 0.033 0.032 0.031 0.0042 0.007 0.009
O25 0.029 0.023 0.034 0.0094 0.003 0.0102
C7 0.027 0.023 0.037 0 0 0.01
C8 0.022 0.038 0.042 -0.002 -0.004 0.011
C9 0.038 0.058 0.033 -0.001 -0.003 0.017
C10 0.026 0.054 0.043 0.007 0.008 0.016
C11 0.038 0.102 0.04 -0.016 0.004 0.023
C36 0.034 0.088 0.051 -0.009 0.001 0.022
C12 0.034 0.088 0.051 -0.009 0.001 0.022
O13 0.033 0.032 0.031 0.0042 0.007 0.009
C31 0.027 0.023 0.037 0 0 0.01
C32 0.022 0.038 0.042 -0.002 -0.004 0.011
C33 0.038 0.058 0.033 -0.001 -0.003 0.017
C34 0.026 0.054 0.043 0.007 0.008 0.016
C35 0.038 0.102 0.04 -0.016 0.004 0.023
O17 0.029 0.023 0.034 0.0094 0.003 0.0102
O12 0.031 0.05 0.022 0.004 -0.001 0.007
O14 0.022 0.107 0.028 0.023 -0.008 0.01
O15 0.021 0.02 0.071 0.013 0.004 0.0089
O16 0.027 0.029 0.076 0.015 -0.011 0.012
C37 0.029 0.025 0.028 0.005 0.004 0.015
C38 0.031 0.018 0.024 0.007 0.006 0.009
C39 0.014 0.027 0.034 0.009 0 0.007
C40 0.019 0.021 0.026 0.006 0.002 0.002
C41 0.027 0.019 0.021 0.006 0.005 0.006
C42 0.029 0.016 0.025 0.005 0.004 0.006
C43 0.02 0.021 0.019 0.004 -0.003 0.009
C44 0.023 0.026 0.008 0.003 -0.005 0.013
C45 0.026 0.025 0.037 0.006 0 0.011
C46 0.019 0.023 0.041 0.01 0.001 0.003
C47 0.024 0.02 0.021 0.004 0.001 0.007
C48 0.02 0.018 0.031 0.005 0 0.005
C5 0.022 0.07 0.035 0.028 -0.002 0.003
C6 0.031 0.055 0.017 0.012 0 0.012
loop_
_geom_bond_atom_site_label_1
_geom_bond_atom_site_label_2
_geom_bond_site_symmetry_1
_geom_bond_site_symmetry_2
H16 C29 1_555 1_555
H17 C30 1_555 1_555
C29 C30 1_555 1_555
O10 C25 1_555 1_555
C25 C26 1_555 1_555
C27 C26 1_555 1_555
H15 C27 1_555 1_555
Pb11 O10 1_555 1_555
C27 C28 1_555 1_555
Pb12 O3 1_555 1_555
Pb13 O11 1_555 1_555
Pb1 O1 1_555 1_555
Pb12 O2 1_555 1_555
O1 C1 1_555 1_555
O2 H1 1_555 1_555
H2 O2 1_555 1_555
O4 Pb1 1_555 1_555
O5 Pb12 1_555 1_555
O6 Pb12 1_555 1_555
O28 C20 1_555 1_555
C2 C1 1_555 1_555
C3 C2 1_555 1_555
H3 C3 1_555 1_555
C4 C3 1_555 1_555
C13 O4 1_555 1_555
C14 C13 1_555 1_555
C15 C14 1_555 1_555
H9 C15 1_555 1_555
C16 C15 1_555 1_555
H10 C16 1_555 1_555
C17 C16 1_555 1_555
C18 C17 1_555 1_555
H11 C18 1_555 1_555
C19 C18 1_555 1_555
C20 C19 1_555 1_555
C21 C19 1_555 1_555
H12 C21 1_555 1_555
C22 C21 1_555 1_555
H13 C22 1_555 1_555
C23 C17 1_555 1_555
C24 C14 1_555 1_555
H14 C24 1_555 1_555
O23 Pb1 1_555 1_555
O25 Pb1 1_555 1_555
Pb12 O4 1_555 1_555
O5 C13 1_555 1_555
C22 C23 1_555 1_555
C23 C24 1_555 1_555
C8 C7 1_555 1_555
C9 C8 1_555 1_555
H6 C9 1_555 1_555
C10 C9 1_555 1_555
C11 C10 1_555 1_555
H7 C11 1_555 1_555
C36 C8 1_555 1_555
H20 C36 1_555 1_555
O23 C7 1_555 1_555
H8 C12 1_555 1_555
O13 C31 1_555 1_555
C31 C32 1_555 1_555
C32 C12 1_555 1_555
C33 C32 1_555 1_555
H18 C33 1_555 1_555
C35 C34 1_555 1_555
H19 C35 1_555 1_555
Pb11 O13 1_555 1_555
C33 C34 1_555 1_555
Pb11 O17 1_555 1_555
Pb11 O15 1_555 1_555
Pb13 O12 1_555 1_555
O14 Pb13 1_555 1_555
H21 O14 1_555 1_555
H22 O14 1_555 1_555
O15 Pb13 1_555 1_555
O16 Pb13 1_555 1_555
O30 C44 1_555 1_555
C37 O15 1_555 1_555
C38 C37 1_555 1_555
C39 C38 1_555 1_555
H23 C39 1_555 1_555
C40 C39 1_555 1_555
H24 C40 1_555 1_555
C41 C40 1_555 1_555
C42 C41 1_555 1_555
H25 C42 1_555 1_555
C43 C42 1_555 1_555
C44 C43 1_555 1_555
C45 C43 1_555 1_555
H26 C45 1_555 1_555
C46 C45 1_555 1_555
H27 C46 1_555 1_555
C47 C41 1_555 1_555
C48 C38 1_555 1_555
H28 C48 1_555 1_555
O16 C37 1_555 1_555
C46 C47 1_555 1_555
C47 C48 1_555 1_555
H4 C5 1_555 1_555
C6 C5 1_555 1_555
H5 C6 1_555 1_555

#END
