
###############################################################################
#
# This file contains modified crystal structure data generated from the
# MOF subset of the Cambridge Structural Database (CSD) v543 
# hosted by the Cambridge Crystallographic Data Centre (CCDC).
#
# This work is licensed under the Creative Commons
# Attribution-NonCommercial-ShareAlike 4.0 International License.
# To view a copy of this license, visit
# http://creativecommons.org/licenses/by-nc-sa/4.0/
# or send a letter to
# Creative Commons, PO Box 1866, Mountain View, CA 94042, USA.
#
# CIF created using the CSD Python API on 29 September 2022
# The structure has been converted into the P1 space group
# The structure has a 3D framework
# The original CSD entry FIXVIU is in the monoclinic crystal system
# The framework has been calculated to contain at least 10.0% void space
# The void calculation uses a probe of radius 1.32A, grid spacing 0.4
#
###############################################################################

data_FIXVIU
_chemical_formula_moiety         '(C72 H56 Nd8 O74)n'
_symmetry_cell_setting           triclinic
_symmetry_space_group_name_H-M   'P 1'
_symmetry_Int_Tables_number      1
_space_group_name_Hall           'P 1'
loop_
_symmetry_equiv_pos_site_id
_symmetry_equiv_pos_as_xyz
1 x,y,z
_cell_length_a                   10.3164(2)
_cell_length_b                   21.2432(5)
_cell_length_c                   15.6712(3)
_cell_angle_alpha                90
_cell_angle_beta                 94.213(2)
_cell_angle_gamma                90
_cell_volume                     3425.12
loop_
_atom_site_label
_atom_site_type_symbol
_atom_site_fract_x
_atom_site_fract_y
_atom_site_fract_z
Nd7 Nd 0.04323(2) 0.50754(2) 0.12855(2)
H1 H 0.079304 0.397838 0.796324
O21 O 0.0605(3) 0.56638(16) 0.9959(2)
O23 O 0.0123(4) 0.61003(18) 0.8702(2)
O25 O 0.1768(3) 0.46000(19) 0.9152(2)
O29 O 0.0888(3) 0.51519(19) 0.7462(2)
O2 O 0.9395(3) 0.43362(16) 0.0041(2)
O3 O 0.2105(3) 0.44969(18) 0.0577(2)
O4 O 0.9877(4) 0.38997(18) 0.1298(2)
O5 O 0.8797(4) 0.11051(17) 0.0186(2)
O9 O 0.9632(4) 0.15565(17) 0.1371(2)
O12 O 0.9372(4) 0.27229(17) 0.0668(2)
C1 C 0.9501(4) 0.3859(2) 0.0530(3)
C5 C 0.9123(5) 0.1589(2) 0.0621(3)
C9 C 0.9115(5) 0.3239(2) 0.0152(3)
C11 C 0.4826(5) 0.4194(3) 0.0346(3)
H9 H 0.475949 0.412722 0.092805
C12 C 0.8917(5) 0.2205(2) 0.0214(3)
H12 H 0.679692 0.407763 0.013026
Nd4 Nd 0.97829(2) 0.03466(2) 0.12940(2)
Nd1 Nd 0.47829(2) 0.46534(2) 0.62940(2)
Nd2 Nd 0.95677(2) 0.49246(2) 0.87145(2)
O1 O 0.3806(3) 0.53208(17) 0.5178(2)
O7 O 0.1533(3) 0.54780(17) 0.5928(2)
O8 O 0.3061(4) 0.58476(19) 0.4040(2)
O11 O 0.7582(3) 0.43647(18) 0.8419(2)
O14 O 0.9976(4) 0.3903(2) 0.8034(3)
H2 H 0.977675 0.360249 0.762441
O15 O 0.4319(3) 0.43985(17) 0.89581(19)
O16 O 0.6420(4) 0.55204(19) 0.6347(2)
H3 H 0.717105 0.538814 0.656889
H4 H 0.616645 0.583074 0.665798
O17 O 0.2724(4) 0.4345(2) 0.6862(3)
H5 H 0.241326 0.400765 0.659983
H6 H 0.215339 0.464583 0.678347
O18 O 0.5750(4) 0.4442(3) 0.7626(2)
C2 C 0.2906(5) 0.5622(2) 0.4761(3)
C3 C 0.2460(5) 0.4488(2) 0.9826(3)
C4 C 0.6379(4) 0.4376(2) 0.8311(3)
C7 C 0.0252(4) 0.5568(2) 0.6104(3)
O19 O 0.3990(5) 0.5549(3) 0.7135(3)
H7 H 0.473204 0.563380 0.742015
H8 H 0.345616 0.551902 0.761443
C8 C 0.1633(5) 0.5688(2) 0.5110(3)
C10 C 0.5619(4) 0.4289(3) 0.9071(3)
C14 C 0.0471(5) 0.5897(3) 0.4781(3)
H11 H 0.028469 0.606298 0.423642
C15 C 0.5962(5) 0.4166(3) 0.9896(3)
C16 C 0.3850(5) 0.4340(3) 0.9749(3)
C17 C 0.8504(6) 0.3051(3) 0.9408(4)
H13 H 0.821440 0.330745 0.895221
C18 C 0.8386(6) 0.2391(3) 0.9450(4)
H14 H 0.800758 0.213171 0.902410
Nd3 Nd 0.52171(2) 0.53466(2) 0.37060(2)
O20 O 0.6194(3) 0.46792(17) 0.4822(2)
O22 O 0.7895(3) 0.55031(18) 0.9423(2)
O24 O 0.3797(4) 0.38949(17) 0.5186(2)
O26 O 0.6939(4) 0.41524(19) 0.5960(2)
O27 O 0.4632(4) 0.34435(17) 0.6371(2)
O28 O 0.8832(3) 0.53911(19) 0.7192(2)
C6 C 0.9970(5) 0.5361(2) 0.6969(3)
C13 C 0.9590(5) 0.5818(3) 0.5419(3)
H10 H 0.871160 0.592100 0.537260
O8_2 O 0.1939(4) 0.08476(19) 0.0960(2)
C2_2 C 0.2094(5) 0.0622(2) 0.0239(3)
C14_2 C 0.4529(5) 0.0897(3) 0.0219(3)
H11_2 H 0.471531 0.106298 0.076358
O1_2 O 0.1194(3) 0.03208(17) 0.9822(2)
O7_2 O 0.3467(3) 0.04780(17) 0.9072(2)
O10 O 0.6168(3) 0.03911(19) 0.7808(2)
O13 O 0.4112(3) 0.01519(19) 0.7538(2)
C6_2 C 0.5030(5) 0.0361(2) 0.8031(3)
C7_2 C 0.4748(4) 0.0568(2) 0.8896(3)
O19_2 O 0.1010(5) 0.0549(3) 0.7865(3)
H7_2 H 0.026796 0.063380 0.757985
H8_2 H 0.154384 0.051902 0.738557
C8_2 C 0.3367(5) 0.0688(2) 0.9890(3)
C13_2 C 0.5410(5) 0.0818(3) 0.9581(3)
H10_2 H 0.628840 0.092100 0.962740
Nd6 Nd 0.45677(2) 0.00754(2) 0.37145(2)
Nd1_2 Nd 0.02171(2) 0.96534(2) 0.87060(2)
O3_2 O 0.2895(3) 0.94969(18) 0.4423(2)
O6 O 0.3232(3) 0.96000(19) 0.5848(2)
O15_2 O 0.0681(3) 0.93985(17) 0.60419(19)
O17_2 O 0.2276(4) 0.9345(2) 0.8138(3)
H5_2 H 0.258674 0.900765 0.840017
H6_2 H 0.284661 0.964583 0.821653
C3_2 C 0.2540(5) 0.9488(2) 0.5174(3)
C11_2 C 0.0174(5) 0.9194(3) 0.4654(3)
H9_2 H 0.024051 0.912722 0.407195
C16_2 C 0.1150(5) 0.9340(3) 0.5251(3)
Nd5 Nd 0.54323(2) 0.99246(2) 0.62855(2)
O24_2 O 0.1203(4) 0.88949(17) 0.9814(2)
O27_2 O 0.0368(4) 0.84435(17) 0.8629(2)
O16_2 O 0.8580(4) 0.05204(19) 0.8653(2)
H3_2 H 0.782895 0.038814 0.843111
H4_2 H 0.883355 0.083074 0.834202
O21_2 O 0.4395(3) 0.06638(16) 0.5041(2)
O22_2 O 0.7105(3) 0.05031(18) 0.5577(2)
O23_2 O 0.4877(4) 0.11003(18) 0.6298(2)
O20_2 O 0.8806(3) 0.96792(17) 0.0178(2)
O2_2 O 0.5605(3) 0.93362(16) 0.4959(2)
O4_2 O 0.5123(4) 0.88997(18) 0.3702(2)
O5_2 O 0.6203(4) 0.61051(17) 0.4814(2)
O9_2 O 0.5368(4) 0.65565(17) 0.3629(2)
O11_2 O 0.7418(3) 0.93647(18) 0.6581(2)
O12_2 O 0.5628(4) 0.77229(17) 0.4332(2)
O14_2 O 0.5024(4) 0.8903(2) 0.6966(3)
H1_2 H 0.420696 0.897838 0.703676
H2_2 H 0.522325 0.860249 0.737559
C1_2 C 0.5499(4) 0.8859(2) 0.4470(3)
O18_2 O 0.9250(4) 0.9442(3) 0.7374(2)
C4_2 C 0.8621(4) 0.9376(2) 0.6689(3)
C5_2 C 0.5877(5) 0.6589(2) 0.4379(3)
C9_2 C 0.5885(5) 0.8239(2) 0.4848(3)
C10_2 C 0.9381(4) 0.9289(3) 0.5929(3)
C12_2 C 0.6083(5) 0.7205(2) 0.4786(3)
C15_2 C 0.9038(5) 0.9166(3) 0.5104(3)
H12_2 H 0.820308 0.907763 0.486974
C17_2 C 0.6496(6) 0.8051(3) 0.5592(4)
H13_2 H 0.678560 0.830745 0.604779
C18_2 C 0.6614(6) 0.7391(3) 0.5550(4)
H14_2 H 0.699242 0.713171 0.597590
O26_2 O 0.8061(4) 0.91524(19) 0.9040(2)
O10_2 O 0.1168(3) 0.46089(19) 0.2808(2)
C6_3 C 0.0030(5) 0.4639(2) 0.3031(3)
C13_3 C 0.0410(5) 0.4182(3) 0.4581(3)
H10_3 H 0.128840 0.407900 0.462740
O6_2 O 0.8232(3) 0.54000(19) 0.0848(2)
O7_3 O 0.8467(3) 0.45220(17) 0.4072(2)
O11_3 O 0.2418(3) 0.56353(18) 0.1581(2)
O13_2 O 0.9112(3) 0.48481(19) 0.2538(2)
O14_3 O 0.0024(4) 0.6097(2) 0.1966(3)
H2_3 H 0.022325 0.639751 0.237559
O15_3 O 0.5681(3) 0.56015(17) 0.10419(19)
O16_3 O 0.3580(4) 0.44796(19) 0.3653(2)
H3_3 H 0.282895 0.461186 0.343111
H4_3 H 0.383355 0.416926 0.334202
O17_3 O 0.7276(4) 0.5655(2) 0.3138(3)
H5_3 H 0.758674 0.599235 0.340017
H6_3 H 0.784661 0.535417 0.321653
O18_3 O 0.4250(4) 0.5558(3) 0.2374(2)
C2_3 C 0.7094(5) 0.4378(2) 0.5239(3)
C3_3 C 0.7540(5) 0.5512(2) 0.0174(3)
C4_3 C 0.3621(4) 0.5624(2) 0.1689(3)
C7_3 C 0.9748(4) 0.4432(2) 0.3896(3)
O19_3 O 0.6010(5) 0.4451(3) 0.2865(3)
H7_3 H 0.526796 0.436620 0.257985
H8_3 H 0.654384 0.448098 0.238557
C8_3 C 0.8367(5) 0.4312(2) 0.4890(3)
C10_3 C 0.4381(4) 0.5711(3) 0.0929(3)
C14_3 C 0.9529(5) 0.4103(3) 0.5219(3)
H11_3 H 0.971531 0.393702 0.576358
C15_3 C 0.4038(5) 0.5834(3) 0.0104(3)
C16_3 C 0.6150(5) 0.5660(3) 0.0251(3)
C17_3 C 0.1496(6) 0.6949(3) 0.0592(4)
H13_3 H 0.178560 0.669255 0.104779
C18_3 C 0.1614(6) 0.7609(3) 0.0550(4)
H14_3 H 0.199242 0.786829 0.097590
O12_3 O 0.0628(4) 0.72771(17) 0.9332(2)
C1_3 C 0.0499(4) 0.6141(2) 0.9470(3)
C5_3 C 0.0877(5) 0.8411(2) 0.9379(3)
C9_3 C 0.0885(5) 0.6761(2) 0.9848(3)
C11_3 C 0.5174(5) 0.5806(3) 0.9654(3)
H9_3 H 0.524051 0.587278 0.907195
C12_3 C 0.1083(5) 0.7795(2) 0.9786(3)
H12_3 H 0.320308 0.592237 0.986974
H1_3 H 0.920696 0.602162 0.203676
O11_4 O 0.2582(3) 0.06353(18) 0.3419(2)
O12_4 O 0.4372(4) 0.22771(17) 0.5668(2)
O14_4 O 0.4976(4) 0.1097(2) 0.3034(3)
H1_4 H 0.579304 0.102162 0.296324
H2_4 H 0.477675 0.139751 0.262441
C1_4 C 0.4501(4) 0.1141(2) 0.5530(3)
O18_4 O 0.0750(4) 0.0558(3) 0.2626(2)
C4_4 C 0.1379(4) 0.0624(2) 0.3311(3)
C5_4 C 0.4123(5) 0.3411(2) 0.5621(3)
C9_4 C 0.4115(5) 0.1761(2) 0.5152(3)
C10_4 C 0.0619(4) 0.0711(3) 0.4071(3)
C12_4 C 0.3917(5) 0.2795(2) 0.5214(3)
C15_4 C 0.0962(5) 0.0834(3) 0.4896(3)
H12_4 H 0.179692 0.092237 0.513026
C17_4 C 0.3504(6) 0.1949(3) 0.4408(4)
H13_4 H 0.321440 0.169255 0.395221
C18_4 C 0.3386(6) 0.2609(3) 0.4450(4)
H14_4 H 0.300758 0.286829 0.402410
O25_2 O 0.6768(3) 0.04000(19) 0.4152(2)
O16_4 O 0.1420(4) 0.94796(19) 0.1347(2)
H3_4 H 0.217105 0.961186 0.156889
H4_4 H 0.116645 0.916926 0.165798
O28_2 O 0.3832(3) 0.96089(19) 0.2192(2)
O29_2 O 0.5888(3) 0.98481(19) 0.2462(2)
O15_4 O 0.9319(3) 0.06015(17) 0.39581(19)
O17_4 O 0.7724(4) 0.0655(2) 0.1862(3)
H5_4 H 0.741326 0.099235 0.159983
H6_4 H 0.715339 0.035417 0.178347
C3_4 C 0.7460(5) 0.0512(2) 0.4826(3)
C11_4 C 0.9826(5) 0.0806(3) 0.5346(3)
H9_4 H 0.975949 0.087278 0.592805
C16_4 C 0.8850(5) 0.0660(3) 0.4749(3)
O7_4 O 0.6533(3) 0.95220(17) 0.0928(2)
C6_4 C 0.4970(5) 0.9639(2) 0.1969(3)
C7_4 C 0.5252(4) 0.9432(2) 0.1104(3)
O19_4 O 0.8990(5) 0.9451(3) 0.2135(3)
H7_4 H 0.973204 0.936620 0.242015
H8_4 H 0.845616 0.948098 0.261443
C8_4 C 0.6633(5) 0.9312(2) 0.0110(3)
C13_4 C 0.4590(5) 0.9182(3) 0.0419(3)
H10_4 H 0.371160 0.907900 0.037260
C2_4 C 0.7906(5) 0.9378(2) 0.9761(3)
C14_4 C 0.5471(5) 0.9103(3) 0.9781(3)
H11_4 H 0.528469 0.893702 0.923642
loop_
_geom_bond_atom_site_label_1
_geom_bond_atom_site_label_2
_geom_bond_site_symmetry_1
_geom_bond_site_symmetry_2
O2 C1 1_555 1_555
O4 C1 1_555 1_555
O5 C5 1_555 1_555
O9 C5 1_555 1_555
O12 C9 1_555 1_555
C1 C9 1_555 1_555
C5 C12 1_555 1_555
C11 H9 1_555 1_555
C12 O12 1_555 1_555
Nd4 O5 1_555 1_555
Nd7 O3 1_555 1_555
O9 Nd4 1_555 1_555
Nd1 O1 1_555 1_555
O1 C2 1_555 1_555
O25 C3 1_555 1_555
O7 C7 1_555 1_555
O8 C2 1_555 1_555
O11 Nd2 1_555 1_555
O14 Nd2 1_555 1_555
H2 O14 1_555 1_555
O15 C10 1_555 1_555
O16 Nd1 1_555 1_555
H3 O16 1_555 1_555
H4 O16 1_555 1_555
O17 Nd1 1_555 1_555
H5 O17 1_555 1_555
H6 O17 1_555 1_555
O18 Nd1 1_555 1_555
C2 C8 1_555 1_555
C3 C16 1_555 1_555
C4 O11 1_555 1_555
O19 Nd1 1_555 1_555
H7 O19 1_555 1_555
H8 O19 1_555 1_555
C8 O7 1_555 1_555
C10 C4 1_555 1_555
C14 C8 1_555 1_555
H11 C14 1_555 1_555
C15 C10 1_555 1_555
C16 O15 1_555 1_555
C17 H13 1_555 1_555
H14 C18 1_555 1_555
Nd3 O1 1_555 1_555
O20 Nd1 1_555 1_555
O22 Nd2 1_555 1_555
O24 Nd1 1_555 1_555
O26 Nd1 1_555 1_555
O27 Nd1 1_555 1_555
O28 Nd2 1_555 1_555
O8 Nd3 1_555 1_555
O18 C4 1_555 1_555
C17 C18 1_555 1_555
Nd3 O20 1_555 1_555
O28 C6 1_555 1_555
C13 H10 1_555 1_555
O8_2 C2_2 1_555 1_555
H11_2 C14_2 1_555 1_555
O7_2 C7_2 1_555 1_555
O10 C6_2 1_555 1_555
O13 C6_2 1_555 1_555
C6_2 C7_2 1_555 1_555
C7_2 C13_2 1_555 1_555
H7_2 O19_2 1_555 1_555
H8_2 O19_2 1_555 1_555
C8_2 O7_2 1_555 1_555
C13_2 H10_2 1_555 1_555
O3_2 C3_2 1_555 1_555
O6 C3_2 1_555 1_555
O17_2 Nd1_2 1_555 1_555
H5_2 O17_2 1_555 1_555
H6_2 O17_2 1_555 1_555
C3_2 C16_2 1_555 1_555
C11_2 H9_2 1_555 1_555
C16_2 O15_2 1_555 1_555
Nd5 O6 1_555 1_555
O24_2 Nd1_2 1_555 1_555
O27_2 Nd1_2 1_555 1_555
C11_2 C16_2 1_555 1_555
H3_2 O16_2 1_555 1_555
H4_2 O16_2 1_555 1_555
Nd6 O21_2 1_555 1_555
Nd5 O2_2 1_555 1_555
O2_2 C1_2 1_555 1_555
O4_2 C1_2 1_555 1_555
O5_2 C5_2 1_555 1_555
O9_2 C5_2 1_555 1_555
O11_2 Nd5 1_555 1_555
O12_2 C9_2 1_555 1_555
O14_2 Nd5 1_555 1_555
H1_2 O14_2 1_555 1_555
H2_2 O14_2 1_555 1_555
C1_2 C9_2 1_555 1_555
C4_2 O11_2 1_555 1_555
C5_2 C12_2 1_555 1_555
C9_2 C17_2 1_555 1_555
C10_2 C4_2 1_555 1_555
C12_2 O12_2 1_555 1_555
C15_2 C10_2 1_555 1_555
H12_2 C15_2 1_555 1_555
C17_2 H13_2 1_555 1_555
C18_2 C12_2 1_555 1_555
H14_2 C18_2 1_555 1_555
Nd3 O5_2 1_555 1_555
O9_2 Nd3 1_555 1_555
O18_2 C4_2 1_555 1_555
C17_2 C18_2 1_555 1_555
O10_2 C6_3 1_555 1_555
C13_3 H10_3 1_555 1_555
O10_2 Nd7 1_555 1_555
O20 C2_3 1_555 1_555
O6_2 C3_3 1_555 1_555
O7_3 C7_3 1_555 1_555
O26 C2_3 1_555 1_555
O11_3 Nd7 1_555 1_555
O14_3 Nd7 1_555 1_555
H2_3 O14_3 1_555 1_555
O15_3 C10_3 1_555 1_555
O16_3 Nd3 1_555 1_555
H3_3 O16_3 1_555 1_555
H4_3 O16_3 1_555 1_555
O17_3 Nd3 1_555 1_555
H5_3 O17_3 1_555 1_555
H6_3 O17_3 1_555 1_555
O18_3 Nd3 1_555 1_555
C2_3 C8_3 1_555 1_555
C3_3 C16_3 1_555 1_555
C4_3 O11_3 1_555 1_555
O19_3 Nd3 1_555 1_555
H7_3 O19_3 1_555 1_555
H8_3 O19_3 1_555 1_555
C8_3 O7_3 1_555 1_555
C10_3 C4_3 1_555 1_555
C14_3 C8_3 1_555 1_555
H11_3 C14_3 1_555 1_555
C15_3 C10_3 1_555 1_555
C16_3 O15_3 1_555 1_555
C17_3 H13_3 1_555 1_555
H14_3 C18_3 1_555 1_555
O18_3 C4_3 1_555 1_555
C17_3 C18_3 1_555 1_555
O21 C1_3 1_555 1_555
O23 C1_3 1_555 1_555
O24_2 C5_3 1_555 1_555
O27_2 C5_3 1_555 1_555
O12_3 C9_3 1_555 1_555
C1_3 C9_3 1_555 1_555
C5_3 C12_3 1_555 1_555
C11_3 H9_3 1_555 1_555
C12_3 O12_3 1_555 1_555
O21_2 C1_4 1_555 1_555
O23_2 C1_4 1_555 1_555
O24 C5_4 1_555 1_555
O27 C5_4 1_555 1_555
O11_4 Nd6 1_555 1_555
O12_4 C9_4 1_555 1_555
O14_4 Nd6 1_555 1_555
H1_4 O14_4 1_555 1_555
H2_4 O14_4 1_555 1_555
C1_4 C9_4 1_555 1_555
C4_4 O11_4 1_555 1_555
C5_4 C12_4 1_555 1_555
C9_4 C17_4 1_555 1_555
C10_4 C4_4 1_555 1_555
C12_4 O12_4 1_555 1_555
C15_4 C10_4 1_555 1_555
H12_4 C15_4 1_555 1_555
C17_4 H13_4 1_555 1_555
C18_4 C12_4 1_555 1_555
H14_4 C18_4 1_555 1_555
O25_2 Nd6 1_555 1_555
O18_4 C4_4 1_555 1_555
C17_4 C18_4 1_555 1_555
H3_4 O16_4 1_555 1_555
H4_4 O16_4 1_555 1_555
O22_2 C3_4 1_555 1_555
O25_2 C3_4 1_555 1_555
O17_4 Nd4 1_555 1_555
H5_4 O17_4 1_555 1_555
H6_4 O17_4 1_555 1_555
C3_4 C16_4 1_555 1_555
C11_4 H9_4 1_555 1_555
C16_4 O15_4 1_555 1_555
C11_4 C16_4 1_555 1_555
O7_4 C7_4 1_555 1_555
O28_2 C6_4 1_555 1_555
O29_2 C6_4 1_555 1_555
C6_4 C7_4 1_555 1_555
C7_4 C13_4 1_555 1_555
H7_4 O19_4 1_555 1_555
H8_4 O19_4 1_555 1_555
C8_4 O7_4 1_555 1_555
C13_4 H10_4 1_555 1_555
O26_2 C2_4 1_555 1_555
H11_4 C14_4 1_555 1_555

#END
