
###############################################################################
#
# This file contains modified crystal structure data generated from the
# MOF subset of the Cambridge Structural Database (CSD) v543 
# hosted by the Cambridge Crystallographic Data Centre (CCDC).
#
# This work is licensed under the Creative Commons
# Attribution-NonCommercial-ShareAlike 4.0 International License.
# To view a copy of this license, visit
# http://creativecommons.org/licenses/by-nc-sa/4.0/
# or send a letter to
# Creative Commons, PO Box 1866, Mountain View, CA 94042, USA.
#
# CIF created using the CSD Python API on 29 September 2022
# The structure has been converted into the P1 space group
# The structure has a 3D framework
# The original CSD entry FIYQUC is in the triclinic crystal system
# The framework has been calculated to contain at least 10.0% void space
# The void calculation uses a probe of radius 1.32A, grid spacing 0.4
#
###############################################################################

data_FIYQUC
_chemical_formula_moiety         '(C80 H62 Co4 N10 O22)n'
_symmetry_cell_setting           triclinic
_symmetry_space_group_name_H-M   'P 1'
_symmetry_Int_Tables_number      1
_space_group_name_Hall           'P 1'
loop_
_symmetry_equiv_pos_site_id
_symmetry_equiv_pos_as_xyz
1 x,y,z
_cell_length_a                   9.970(5)
_cell_length_b                   12.835(5)
_cell_length_c                   20.756(5)
_cell_angle_alpha                98.252(5)
_cell_angle_beta                 92.595(5)
_cell_angle_gamma                111.299(5)
_cell_volume                     2435.3
loop_
_atom_site_label
_atom_site_type_symbol
_atom_site_fract_x
_atom_site_fract_y
_atom_site_fract_z
Co1 Co 0.56116(5) 0.25883(4) 0.14561(3)
O7 O 0.3407(4) 0.2780(3) 0.1449(2)
O9 O 0.3594(4) 0.1183(4) 0.1490(2)
C13 C 0.1287(4) 0.1270(4) 0.16239(19)
C20 C 0.0402(4) 0.1858(3) 0.1536(2)
H7 H 0.0776 0.2559 0.1402
C23 C 0.2862(5) 0.1773(5) 0.1502(2)
C31 C 0.0749(5) 0.0246(5) 0.1815(3)
O12 O 0.6057(3) 0.3492(2) 0.25178(14)
O13 O 0.6462(3) 0.4345(2) 0.16687(13)
O14 O 0.6662(3) 0.1572(3) 0.16538(15)
N6 N 0.5574(4) 0.2393(3) 0.04438(17)
C35 C 0.4919(6) 0.1447(4) 0.0042(2)
H19 H 0.4345 0.0817 0.0209
C36 C 0.6353(9) 0.3283(5) 0.0191(3)
H20 H 0.6790 0.3975 0.0472
N1 N 0.6452(4) 0.2100(3) 0.70871(17)
C1 C 0.5963(5) 0.2165(3) 0.8392(2)
C2 C 0.5797(5) 0.2237(3) 0.9104(2)
C3 C 0.6326(5) 0.3017(4) 0.7426(2)
C5 C 0.6312(5) 0.1210(4) 0.7387(2)
C6 C 0.6506(5) 0.0215(3) 0.7008(2)
C7 C 0.6349(5) 0.3774(4) 0.6395(2)
H1 H 0.6122 0.3044 0.6165
N3 N 0.6841(4) 0.5731(3) 0.63519(17)
C8 C 0.7959(5) 0.2021(4) 0.1541(2)
O8 O 0.8402(4) 0.2928(3) 0.1328(3)
C9 C 0.6498(5) 0.3971(4) 0.7071(2)
C10 C 0.6540(5) 0.4670(4) 0.6065(2)
H2 H 0.6452 0.4518 0.5610
C11 C 0.6798(6) 0.5079(4) 0.7384(2)
H3 H 0.6900 0.5255 0.7838
C12 C 0.6054(4) 0.1218(3) 0.80403(19)
H4 H 0.5945 0.0585 0.8234
C14 C 0.8948(4) 0.1413(3) 0.1647(2)
C22 C 0.6076(5) 0.3087(4) 0.8085(2)
H9 H 0.5988 0.3733 0.8314
C24 C 0.8420(5) 0.0381(5) 0.1853(3)
H10 H 0.7455 0.0075 0.1933
C25 C 0.6944(6) 0.5922(4) 0.7005(2)
H11 H 0.7123 0.6655 0.7219
C27 C 0.7495(7) 0.0348(4) 0.6544(3)
H12 H 0.8018 0.1064 0.6451
C29 C 0.5034(6) 0.1330(4) 0.9375(2)
H14 H 0.4583 0.0623 0.9111
C34 C 0.6554(9) 0.3244(5) 0.9537(3)
H18 H 0.7180 0.3876 0.9388
Co6 Co 0.70651(7) 0.69396(5) 0.57261(3)
O2 O 0.7324(4) 0.7669(2) 0.48481(14)
O3 O 0.6950(3) 0.5870(2) 0.47858(14)
O4 O 0.4808(4) 0.6346(3) 0.55759(15)
C4 C 0.7165(5) 0.6730(3) 0.4514(2)
N4 N 0.6947(4) 0.8352(3) 0.63205(17)
C15 C 0.6430(4) 0.4377(4) 0.2282(2)
C16 C 0.6852(5) 0.5507(4) 0.2719(2)
C17 C 0.5754(5) 0.9134(4) 0.7107(2)
H5 H 0.5079 0.9009 0.7410
C18 C 0.7200(5) 0.6620(4) 0.3785(2)
O10 O 0.9299(4) 0.7527(3) 0.5882(2)
C19 C 0.6832(4) 0.5579(4) 0.3390(2)
H6 H 0.6570 0.4923 0.3574
C21 C 0.5989(5) 0.8230(4) 0.6761(2)
H8 H 0.5459 0.7504 0.6837
C26 C 0.7613(9) 0.7535(5) 0.2850(3)
C28 C 0.7689(6) 0.9402(4) 0.6223(2)
H13 H 0.8373 0.9503 0.5924
C30 C 0.7593(7) 0.7608(4) 0.3512(2)
H15 H 0.7839 0.8311 0.3779
C32 C 0.9313(6) 0.9798(6) 0.1941(5)
C33 C 0.7245(7) 0.6483(4) 0.2447(2)
H17 H 0.7263 0.6439 0.1997
O11 O 0.8190(10) 0.8553(4) 0.2604(3)
C37 C 0.8891(6) 0.8869(6) 0.2272(5)
H21 H 0.8619 0.8229 0.1916
H22 H 0.9807 0.8914 0.2479
C38 C 0.9692 0.6768 0.5833
H23 H 0.9209 0.6153 0.5502
H25 H 0.9795 0.5096 0.6315
H30 H 0.431(4) 0.5620(18) 0.542(2)
H31 H 0.424(6) 0.674(5) 0.554(4)
H16 H 0.1344 0.9840 0.1863
C39 C 0.070(5) 0.5544(19) 0.617(2)
H24 H 0.1485 0.5527 0.6448
H26 H 0.0746 0.5242 0.5728
N5 N 0.0789 0.6704 0.6215
C40 C 0.165(4) 0.776(2) 0.660(2)
H27 H 0.2413 0.7669 0.6857
H28 H 0.2071 0.8294 0.6313
H29 H 0.1069 0.8028 0.6876
Co2 Co 0.29349(7) 0.30604(5) 0.42739(3)
O1 O 0.3943(3) 0.6508(2) 0.74822(14)
O2_2 O 0.2676(4) 0.2331(2) 0.51519(14)
O3_2 O 0.3050(3) 0.4130(2) 0.52142(14)
O4_2 O 0.5192(4) 0.3654(3) 0.44241(15)
O5 O 0.3538(3) 0.5655(2) 0.83313(13)
C4_2 C 0.2835(5) 0.3270(3) 0.5486(2)
N4_2 N 0.3053(4) 0.1648(3) 0.36795(17)
C15_2 C 0.3570(4) 0.5623(4) 0.7718(2)
C16_2 C 0.3148(5) 0.4493(4) 0.7281(2)
C17_2 C 0.4246(5) 0.0866(4) 0.2893(2)
H5_2 H 0.4921 0.0991 0.2590
C18_2 C 0.2800(5) 0.3380(4) 0.6215(2)
O10_2 O 0.0701(4) 0.2473(3) 0.4118(2)
C19_2 C 0.3168(4) 0.4421(4) 0.6610(2)
H6_2 H 0.3430 0.5077 0.6426
C21_2 C 0.4011(5) 0.1770(4) 0.3239(2)
H8_2 H 0.4541 0.2496 0.3163
C26_2 C 0.2387(9) 0.2465(5) 0.7150(3)
C28_2 C 0.2311(6) 0.0598(4) 0.3777(2)
H13_2 H 0.1627 0.0497 0.4076
C30_2 C 0.2407(7) 0.2392(4) 0.6488(2)
H15_2 H 0.2161 0.1689 0.6221
C32_2 C 0.0687(6) 0.0202(6) 0.8059(5)
C33_2 C 0.2755(7) 0.3517(4) 0.7553(2)
H17_2 H 0.2737 0.3561 0.8003
O11_2 O 0.1810(10) 0.1447(4) 0.7396(3)
C37_2 C 0.1109(6) 0.1131(6) 0.7728(5)
H21_2 H 0.1381 0.1771 0.8084
H22_2 H 0.0193 0.1086 0.7521
C38_2 C 0.0308 0.3232 0.4167
H23_2 H 0.0791 0.3847 0.4498
H25_2 H 0.0205 0.4904 0.3685
H30_2 H 0.569(4) 0.4380(18) 0.458(2)
H31_2 H 0.576(6) 0.326(5) 0.446(4)
Co3 Co 0.43884(5) 0.74117(4) 0.85439(3)
N7 N 0.3159(4) 0.4269(3) 0.36481(17)
N1_2 N 0.3548(4) 0.7900(3) 0.29129(17)
O6 O 0.3338(3) 0.8428(3) 0.83462(15)
C1_2 C 0.4037(5) 0.7835(3) 0.1608(2)
C2_2 C 0.4203(5) 0.7763(3) 0.0896(2)
C3_2 C 0.3674(5) 0.6983(4) 0.2574(2)
C5_2 C 0.3688(5) 0.8790(4) 0.2613(2)
C6_2 C 0.3494(5) 0.9785(3) 0.2992(2)
C7_2 C 0.3651(5) 0.6226(4) 0.3605(2)
H1_2 H 0.3878 0.6956 0.3835
C8_2 C 0.2041(5) 0.7979(4) 0.8459(2)
O8_2 O 0.1598(4) 0.7072(3) 0.8672(3)
C9_2 C 0.3502(5) 0.6029(4) 0.2929(2)
C10_2 C 0.3460(5) 0.5330(4) 0.3935(2)
H2_2 H 0.3548 0.5482 0.4390
C11_2 C 0.3202(6) 0.4921(4) 0.2616(2)
H3_2 H 0.3100 0.4745 0.2162
C12_2 C 0.3946(4) 0.8782(3) 0.19597(19)
H4_2 H 0.4055 0.9415 0.1766
C14_2 C 0.1052(4) 0.8587(3) 0.8353(2)
C22_2 C 0.3924(5) 0.6913(4) 0.1915(2)
H9_2 H 0.4012 0.6267 0.1686
C24_2 C 0.1580(5) 0.9619(5) 0.8147(3)
H10_2 H 0.2545 0.9925 0.8067
C25_2 C 0.3056(6) 0.4078(4) 0.2995(2)
H11_2 H 0.2877 0.3345 0.2781
C27_2 C 0.2505(7) 0.9652(4) 0.3456(3)
H12_2 H 0.1982 0.8936 0.3549
C29_2 C 0.4966(6) 0.8670(4) 0.0625(2)
H14_2 H 0.5417 0.9377 0.0889
C34_2 C 0.3446(9) 0.6756(5) 0.0463(3)
H18_2 H 0.2820 0.6124 0.0612
N2 N 0.4426(4) 0.7607(3) 0.95562(17)
C35_2 C 0.5081(6) 0.8553(4) 0.9958(2)
H19_2 H 0.5655 0.9183 0.9791
C36_2 C 0.3647(9) 0.6717(5) 0.9809(3)
H20_2 H 0.3210 0.6025 0.9528
O7_2 O 0.6593(4) 0.7220(3) 0.8551(2)
O9_2 O 0.6406(4) 0.8817(4) 0.8510(2)
C13_2 C 0.8713(4) 0.8730(4) 0.83761(19)
C20_2 C 0.9598(4) 0.8142(3) 0.8464(2)
H7_2 H 0.9224 0.7441 0.8598
C23_2 C 0.7138(5) 0.8227(5) 0.8498(2)
C31_2 C 0.9251(5) 0.9754(5) 0.8185(3)
H16_2 H 0.8656 0.0160 0.8137
C39_2 C 0.930(5) 0.4456(19) 0.383(2)
H24_2 H 0.8515 0.4473 0.3552
H26_2 H 0.9254 0.4758 0.4272
N5_2 N 0.9211 0.3296 0.3785
C40_2 C 0.835(4) 0.224(2) 0.340(2)
H27_2 H 0.7587 0.2331 0.3143
H28_2 H 0.7929 0.1706 0.3687
H29_2 H 0.8931 0.1972 0.3124
loop_
_geom_bond_atom_site_label_1
_geom_bond_atom_site_label_2
_geom_bond_site_symmetry_1
_geom_bond_site_symmetry_2
Co1 O7 1_555 1_555
O7 C23 1_555 1_555
O9 Co1 1_555 1_555
C13 C20 1_555 1_555
H7 C20 1_555 1_555
C23 O9 1_555 1_555
C31 C13 1_555 1_555
O12 Co1 1_555 1_555
O13 Co1 1_555 1_555
O14 Co1 1_555 1_555
N6 Co1 1_555 1_555
C13 C23 1_555 1_555
N6 C35 1_555 1_555
H19 C35 1_555 1_555
C36 N6 1_555 1_555
H20 C36 1_555 1_555
N1 C3 1_555 1_555
O14 C8 1_555 1_555
C1 C2 1_555 1_555
C2 C29 1_555 1_555
C3 C9 1_555 1_555
C5 N1 1_555 1_555
C6 C5 1_555 1_555
C7 H1 1_555 1_555
N3 C10 1_555 1_555
C8 O8 1_555 1_555
C9 C7 1_555 1_555
C10 C7 1_555 1_555
H2 C10 1_555 1_555
C11 C9 1_555 1_555
H3 C11 1_555 1_555
C12 C1 1_555 1_555
H4 C12 1_555 1_555
C14 C8 1_555 1_555
C22 C1 1_555 1_555
H9 C22 1_555 1_555
C24 C14 1_555 1_555
H10 C24 1_555 1_555
C25 N3 1_555 1_555
H11 C25 1_555 1_555
C27 C6 1_555 1_555
H12 C27 1_555 1_555
C29 H14 1_555 1_555
C34 C2 1_555 1_555
H18 C34 1_555 1_555
Co6 N3 1_555 1_555
C3 C22 1_555 1_555
C5 C12 1_555 1_555
C11 C25 1_555 1_555
Co6 O2 1_555 1_555
O12 C15 1_555 1_555
O2 C4 1_555 1_555
O3 Co6 1_555 1_555
O4 Co6 1_555 1_555
O13 C15 1_555 1_555
C4 O3 1_555 1_555
N4 Co6 1_555 1_555
C15 C16 1_555 1_555
C16 C19 1_555 1_555
H5 C17 1_555 1_555
C18 C4 1_555 1_555
O10 Co6 1_555 1_555
C19 C18 1_555 1_555
H6 C19 1_555 1_555
C21 N4 1_555 1_555
H8 C21 1_555 1_555
C26 C30 1_555 1_555
C28 N4 1_555 1_555
H13 C28 1_555 1_555
C30 C18 1_555 1_555
H15 C30 1_555 1_555
C33 C16 1_555 1_555
H17 C33 1_555 1_555
O11 C26 1_555 1_555
C37 C32 1_555 1_555
H21 C37 1_555 1_555
H22 C37 1_555 1_555
C38 O10 1_555 1_555
H23 C38 1_555 1_555
H30 O4 1_555 1_555
H31 O4 1_555 1_555
C17 C21 1_555 1_555
C26 C33 1_555 1_555
O11 C37 1_555 1_555
C39 H24 1_555 1_555
H26 C39 1_555 1_555
C40 N5 1_555 1_555
H27 C40 1_555 1_555
H28 C40 1_555 1_555
H29 C40 1_555 1_555
C39 N5 1_555 1_555
Co2 O2_2 1_555 1_555
O1 C15_2 1_555 1_555
O2_2 C4_2 1_555 1_555
O3_2 Co2 1_555 1_555
O4_2 Co2 1_555 1_555
O5 C15_2 1_555 1_555
C4_2 O3_2 1_555 1_555
N4_2 Co2 1_555 1_555
C15_2 C16_2 1_555 1_555
C16_2 C19_2 1_555 1_555
H5_2 C17_2 1_555 1_555
C18_2 C4_2 1_555 1_555
O10_2 Co2 1_555 1_555
C19_2 C18_2 1_555 1_555
H6_2 C19_2 1_555 1_555
C21_2 N4_2 1_555 1_555
H8_2 C21_2 1_555 1_555
C26_2 C30_2 1_555 1_555
C28_2 N4_2 1_555 1_555
H13_2 C28_2 1_555 1_555
C30_2 C18_2 1_555 1_555
H15_2 C30_2 1_555 1_555
C33_2 C16_2 1_555 1_555
H17_2 C33_2 1_555 1_555
O11_2 C26_2 1_555 1_555
C37_2 C32_2 1_555 1_555
H21_2 C37_2 1_555 1_555
H22_2 C37_2 1_555 1_555
C38_2 O10_2 1_555 1_555
H23_2 C38_2 1_555 1_555
H30_2 O4_2 1_555 1_555
H31_2 O4_2 1_555 1_555
Co3 O1 1_555 1_555
N7 Co2 1_555 1_555
O5 Co3 1_555 1_555
C17_2 C21_2 1_555 1_555
C26_2 C33_2 1_555 1_555
O11_2 C37_2 1_555 1_555
N1_2 C3_2 1_555 1_555
O6 C8_2 1_555 1_555
C1_2 C2_2 1_555 1_555
C2_2 C29_2 1_555 1_555
C3_2 C9_2 1_555 1_555
C5_2 N1_2 1_555 1_555
C6_2 C5_2 1_555 1_555
C7_2 H1_2 1_555 1_555
N7 C10_2 1_555 1_555
C8_2 O8_2 1_555 1_555
C9_2 C7_2 1_555 1_555
C10_2 C7_2 1_555 1_555
H2_2 C10_2 1_555 1_555
C11_2 C9_2 1_555 1_555
H3_2 C11_2 1_555 1_555
C12_2 C1_2 1_555 1_555
H4_2 C12_2 1_555 1_555
C14_2 C8_2 1_555 1_555
C22_2 C1_2 1_555 1_555
H9_2 C22_2 1_555 1_555
C24_2 C14_2 1_555 1_555
H10_2 C24_2 1_555 1_555
C25_2 N7 1_555 1_555
H11_2 C25_2 1_555 1_555
C27_2 C6_2 1_555 1_555
H12_2 C27_2 1_555 1_555
C29_2 H14_2 1_555 1_555
C34_2 C2_2 1_555 1_555
H18_2 C34_2 1_555 1_555
Co3 O6 1_555 1_555
C3_2 C22_2 1_555 1_555
C5_2 C12_2 1_555 1_555
C11_2 C25_2 1_555 1_555
N2 C35_2 1_555 1_555
H19_2 C35_2 1_555 1_555
C36_2 N2 1_555 1_555
H20_2 C36_2 1_555 1_555
Co3 N2 1_555 1_555
Co3 O7_2 1_555 1_555
O7_2 C23_2 1_555 1_555
O9_2 Co3 1_555 1_555
C13_2 C20_2 1_555 1_555
H7_2 C20_2 1_555 1_555
C23_2 O9_2 1_555 1_555
C31_2 C13_2 1_555 1_555
C13_2 C23_2 1_555 1_555
C39_2 H24_2 1_555 1_555
H26_2 C39_2 1_555 1_555
C40_2 N5_2 1_555 1_555
H27_2 C40_2 1_555 1_555
H28_2 C40_2 1_555 1_555
H29_2 C40_2 1_555 1_555
C39_2 N5_2 1_555 1_555

#END
