
###############################################################################
#
# This file contains modified crystal structure data generated from the
# MOF subset of the Cambridge Structural Database (CSD) v543 
# hosted by the Cambridge Crystallographic Data Centre (CCDC).
#
# This work is licensed under the Creative Commons
# Attribution-NonCommercial-ShareAlike 4.0 International License.
# To view a copy of this license, visit
# http://creativecommons.org/licenses/by-nc-sa/4.0/
# or send a letter to
# Creative Commons, PO Box 1866, Mountain View, CA 94042, USA.
#
# CIF created using the CSD Python API on 29 September 2022
# The structure has been converted into the P1 space group
# The structure has a 3D framework
# The original CSD entry FIYRAJ is in the triclinic crystal system
# The framework has been calculated to contain at least 10.0% void space
# The void calculation uses a probe of radius 1.32A, grid spacing 0.4
#
###############################################################################

data_FIYRAJ
_chemical_formula_moiety         '(C80 H62 Cd4 N10 O22)n'
_symmetry_cell_setting           triclinic
_symmetry_space_group_name_H-M   'P 1'
_symmetry_Int_Tables_number      1
_space_group_name_Hall           'P 1'
loop_
_symmetry_equiv_pos_site_id
_symmetry_equiv_pos_as_xyz
1 x,y,z
_cell_length_a                   10.136(5)
_cell_length_b                   13.295(5)
_cell_length_c                   21.032(5)
_cell_angle_alpha                98.325(5)
_cell_angle_beta                 94.950(5)
_cell_angle_gamma                112.386(5)
_cell_volume                     2561.86
loop_
_atom_site_label
_atom_site_type_symbol
_atom_site_fract_x
_atom_site_fract_y
_atom_site_fract_z
C2 C 0.0084(6) 0.3577(5) 0.0021(3)
H4 H 0.0405 0.4372 0.0948
H2 H 0.0606 0.4212 0.9868
O16 O 0.1662(4) 0.3962(3) 0.8539(2)
O17 O 0.1818(4) 0.2352(3) 0.8510(2)
H17 H 0.8395 0.0029 0.6411
C27 C 0.8560(5) 0.0558(4) 0.7695(3)
O4 O 0.8523(4) 0.0585(3) 0.8296(2)
O5 O 0.8945(4) 0.1426(3) 0.74592(19)
Cd4 Cd 0.94655(4) 0.25218(3) 0.85112(2)
C3 C 0.8564(8) 0.1745(5) 0.0458(4)
H3 H 0.8031 0.1095 0.0595
C4 C 0.9208(6) 0.2754(4) 0.0912(3)
C5 C 0.9971(6) 0.3682(5) 0.0672(3)
C6 C 0.9017(6) 0.2798(4) 0.1602(3)
C7 C 0.8908(6) 0.3728(4) 0.1952(3)
H5 H 0.8994 0.4334 0.1760
C8 C 0.8668(6) 0.3736(4) 0.2595(3)
C9 C 0.8564(5) 0.2881(4) 0.2885(2)
H6 H 0.8404 0.2903 0.3314
C10 C 0.8691(6) 0.2001(4) 0.2550(3)
C12 C 0.8260(7) 0.0010(5) 0.2587(3)
C13 C 0.8562(6) 0.1079(5) 0.2907(3)
C14 C 0.8727(7) 0.1263(5) 0.3578(3)
H9 H 0.8954 0.1969 0.3816
C15 C 0.8553(7) 0.0391(5) 0.3890(3)
H10 H 0.8674 0.0534 0.4342
C16 C 0.7355(8) 0.5494(5) 0.3718(4)
H11 H 0.6692 0.5400 0.4008
C17 C 0.7532(8) 0.4561(5) 0.3410(3)
H12 H 0.7028 0.3864 0.3502
C18 C 0.8489(6) 0.4711(5) 0.2962(3)
C19 C 0.9253(7) 0.5759(5) 0.2869(3)
H13 H 0.9923 0.5881 0.2583
C20 C 0.9025(7) 0.6628(5) 0.3201(3)
H14 H 0.9553 0.7337 0.3131
N3 N 0.8928(6) 0.1928(4) 0.1916(3)
N4 N 0.8087(6) 0.6511(4) 0.3618(3)
Cd6 Cd 0.79476(6) 0.80282(4) 0.41926(2)
C1 C 0.8720(9) 0.1721(5) 0.9820(4)
H1 H 0.8273 0.1051 0.9527
C21 C 0.7727(6) 0.8368(5) 0.6182(3)
C22 C 0.7334(8) 0.7416(5) 0.6452(3)
H15 H 0.7094 0.6728 0.6188
C23 C 0.7304(11) 0.7503(5) 0.7120(4)
C24 C 0.7724(8) 0.8516(5) 0.7510(3)
H16 H 0.7749 0.8570 0.7958
C25 C 0.8111(6) 0.9460(5) 0.7251(3)
C26 C 0.8122(6) 0.9389(5) 0.6586(3)
C28 C 0.7227(5) 0.3230(4) 0.8383(3)
C29 C 0.6204(5) 0.3776(4) 0.8289(3)
C30 C 0.4788(5) 0.3304(4) 0.8407(3)
H18 H 0.4448 0.2612 0.8524
C31 C 0.3884(5) 0.3855(4) 0.8351(3)
C32 C 0.4385(6) 0.4875(5) 0.8166(3)
H19 H 0.3777 0.5246 0.8126
C33 C 0.5780(6) 0.5346(6) 0.8039(4)
C34 C 0.6673(6) 0.4793(5) 0.8106(3)
H20 H 0.7618 0.5114 0.8026
C35 C 0.6154(10) 0.6202(8) 0.7686(5)
H21 H 0.5217 0.6134 0.7487
H22 H 0.6486 0.6855 0.8028
N1 N 0.9495(5) 0.2629(4) 0.9600(2)
C39 C 0.7787(7) 0.8254(5) 0.5472(3)
C40 C 0.2371(5) 0.3353(4) 0.8480(3)
O1 O 0.8504(4) 0.3739(3) 0.8291(2)
O2 O 0.7573(5) 0.7348(3) 0.5150(2)
O3 O 0.8050(5) 0.9101(3) 0.5218(2)
O9 O 0.6801(4) 0.2297(3) 0.8542(2)
O11 O 0.6813(13) 0.6493(5) 0.7329(4)
C11 C 0.8114(7) 0.9191(5) 0.2941(3)
H7 H 0.7928 0.8482 0.2718
H8 H 0.8158 0.9848 0.2136
C36 C 0.455(3) 0.671(2) 0.3736(15)
H23 H 0.4726 0.6083 0.3780
C37 C 0.244(4) 0.538(2) 0.3792(18)
H24 H 0.1423 0.5100 0.3643
H25 H 0.2794 0.4821 0.3652
H26 H 0.2621 0.5573 0.4259
C38 C 0.255(10) 0.718(5) 0.373(5)
H27 H 0.1549 0.6876 0.3545
H28 H 0.2654 0.7336 0.4193
H29 H 0.3045 0.7858 0.3577
N2 N 0.8225(5) 0.9364(4) 0.3590(2)
N5 N 0.3198 0.6377 0.3519
O10 O 0.5564(8) 0.7429(7) 0.3890(5)
O7 O 0.0418(6) 0.8674(4) 0.4406(2)
H30 H 0.101(6) 0.938(2) 0.458(4)
H31 H 0.106(6) 0.836(5) 0.448(4)
Cd3 Cd 0.05345(4) 0.74782(3) 0.14888(2)
Cd2 Cd 0.20524(6) 0.19718(4) 0.58074(2)
C11_2 C 0.1886(7) 0.0809(5) 0.7059(3)
H7_2 H 0.2072 0.1518 0.7282
H8_2 H 0.1842 0.0152 0.7864
C36_2 C 0.545(3) 0.329(2) 0.6264(15)
H23_2 H 0.5274 0.3917 0.6220
C37_2 C 0.756(4) 0.462(2) 0.6208(18)
H24_2 H 0.8577 0.4900 0.6357
H25_2 H 0.7206 0.5179 0.6348
H26_2 H 0.7379 0.4427 0.5741
C38_2 C 0.745(10) 0.282(5) 0.627(5)
H27_2 H 0.8451 0.3124 0.6455
H28_2 H 0.7346 0.2664 0.5807
H29_2 H 0.6955 0.2142 0.6423
N2_2 N 0.1775(5) 0.0636(4) 0.6410(2)
N5_2 N 0.6802 0.3623 0.6481
O10_2 O 0.4436(8) 0.2571(7) 0.6110(5)
N6 N 0.1913(6) 0.3489(4) 0.6382(3)
O12 O 0.2427(5) 0.2652(3) 0.4850(2)
O13 O 0.1950(5) 0.0899(3) 0.4782(2)
C1_2 C 0.1280(9) 0.8279(5) 0.0180(4)
H1_2 H 0.1727 0.8949 0.0473
C21_2 C 0.2273(6) 0.1632(5) 0.3818(3)
C22_2 C 0.2666(8) 0.2584(5) 0.3548(3)
H15_2 H 0.2906 0.3272 0.3812
C23_2 C 0.2696(11) 0.2497(5) 0.2880(4)
C24_2 C 0.2276(8) 0.1484(5) 0.2490(3)
H16_2 H 0.2251 0.1430 0.2042
C25_2 C 0.1889(6) 0.0540(5) 0.2749(3)
C26_2 C 0.1878(6) 0.0611(5) 0.3414(3)
C28_2 C 0.2773(5) 0.6770(4) 0.1617(3)
C29_2 C 0.3796(5) 0.6224(4) 0.1711(3)
C30_2 C 0.5212(5) 0.6696(4) 0.1593(3)
H18_2 H 0.5552 0.7388 0.1476
C31_2 C 0.6116(5) 0.6145(4) 0.1649(3)
C32_2 C 0.5615(6) 0.5125(5) 0.1834(3)
H19_2 H 0.6223 0.4754 0.1874
C33_2 C 0.4220(6) 0.4654(6) 0.1961(4)
C34_2 C 0.3327(6) 0.5207(5) 0.1894(3)
H20_2 H 0.2382 0.4886 0.1974
C35_2 C 0.3846(10) 0.3798(8) 0.2314(5)
H21_2 H 0.4783 0.3866 0.2513
H22_2 H 0.3514 0.3145 0.1972
N1_2 N 0.0505(5) 0.7371(4) 0.0400(2)
C39_2 C 0.2213(7) 0.1746(5) 0.4528(3)
C40_2 C 0.7629(5) 0.6647(4) 0.1520(3)
O1_2 O 0.1496(4) 0.6261(3) 0.1709(2)
O6 O 0.8338(4) 0.6038(3) 0.1461(2)
O8 O 0.8182(4) 0.7648(3) 0.1490(2)
O9_2 O 0.3199(4) 0.7703(3) 0.1458(2)
O11_2 O 0.3187(13) 0.3507(5) 0.2671(4)
O14 O 0.1477(4) 0.9415(3) 0.1704(2)
O15 O 0.1055(4) 0.8574(3) 0.25408(19)
C3_2 C 0.1436(8) 0.8255(5) 0.9542(4)
H3_2 H 0.1969 0.8905 0.9405
C4_2 C 0.0792(6) 0.7246(4) 0.9088(3)
C5_2 C 0.0029(6) 0.6318(5) 0.9328(3)
C6_2 C 0.0983(6) 0.7202(4) 0.8398(3)
C7_2 C 0.1092(6) 0.6272(4) 0.8048(3)
H5_2 H 0.1006 0.5666 0.8240
C8_2 C 0.1332(6) 0.6264(4) 0.7405(3)
C9_2 C 0.1436(5) 0.7119(4) 0.7115(2)
H6_2 H 0.1596 0.7097 0.6686
C10_2 C 0.1309(6) 0.7999(4) 0.7450(3)
C12_2 C 0.1740(7) 0.9990(5) 0.7413(3)
C13_2 C 0.1438(6) 0.8921(5) 0.7093(3)
C14_2 C 0.1273(7) 0.8737(5) 0.6422(3)
H9_2 H 0.1046 0.8031 0.6184
C15_2 C 0.1447(7) 0.9609(5) 0.6110(3)
H10_2 H 0.1326 0.9466 0.5658
C16_2 C 0.2645(8) 0.4506(5) 0.6282(4)
H11_2 H 0.3308 0.4600 0.5992
C17_2 C 0.2468(8) 0.5439(5) 0.6590(3)
H12_2 H 0.2972 0.6136 0.6498
C18_2 C 0.1511(6) 0.5289(5) 0.7038(3)
C19_2 C 0.0747(7) 0.4241(5) 0.7131(3)
H13_2 H 0.0077 0.4119 0.7417
C20_2 C 0.0975(7) 0.3372(5) 0.6799(3)
H14_2 H 0.0447 0.2663 0.6869
N3_2 N 0.1072(6) 0.8072(4) 0.8084(3)
H17_2 H 0.1605 0.9971 0.3589
C27_2 C 0.1440(5) 0.9442(4) 0.2305(3)
H2_2 H 0.9394 0.5788 0.0132
O7_2 O 0.9582(6) 0.1326(4) 0.5594(2)
H30_2 H 0.899(6) 0.062(2) 0.542(4)
H31_2 H 0.894(6) 0.164(5) 0.552(4)
C2_2 C 0.9916(6) 0.6423(5) 0.9979(3)
H4_2 H 0.9595 0.5628 0.9052
loop_
_geom_bond_atom_site_label_1
_geom_bond_atom_site_label_2
_geom_bond_site_symmetry_1
_geom_bond_site_symmetry_2
O4 C27 1_555 1_555
O5 C27 1_555 1_555
Cd4 O4 1_555 1_555
O5 Cd4 1_555 1_555
H3 C3 1_555 1_555
C4 C3 1_555 1_555
C6 C4 1_555 1_555
C7 C6 1_555 1_555
H5 C7 1_555 1_555
C8 C7 1_555 1_555
C9 C8 1_555 1_555
H6 C9 1_555 1_555
C10 C9 1_555 1_555
C13 C10 1_555 1_555
C14 C13 1_555 1_555
H9 C14 1_555 1_555
C15 C14 1_555 1_555
H10 C15 1_555 1_555
C16 H11 1_555 1_555
C17 C16 1_555 1_555
H12 C17 1_555 1_555
C18 C8 1_555 1_555
C19 C18 1_555 1_555
H13 C19 1_555 1_555
C20 C19 1_555 1_555
H14 C20 1_555 1_555
N3 C6 1_555 1_555
N4 C16 1_555 1_555
Cd6 N4 1_555 1_555
C4 C5 1_555 1_555
C10 N3 1_555 1_555
C12 C13 1_555 1_555
C17 C18 1_555 1_555
C20 N4 1_555 1_555
Cd4 N1 1_555 1_555
C1 H1 1_555 1_555
C21 C22 1_555 1_555
C22 H15 1_555 1_555
C23 C22 1_555 1_555
C24 C23 1_555 1_555
H16 C24 1_555 1_555
C25 C24 1_555 1_555
C26 C21 1_555 1_555
C28 C29 1_555 1_555
C29 C30 1_555 1_555
C30 H18 1_555 1_555
C31 C30 1_555 1_555
C32 C31 1_555 1_555
H19 C32 1_555 1_555
C33 C32 1_555 1_555
C34 C29 1_555 1_555
H20 C34 1_555 1_555
C35 C33 1_555 1_555
H21 C35 1_555 1_555
H22 C35 1_555 1_555
N1 C1 1_555 1_555
C39 C21 1_555 1_555
C40 C31 1_555 1_555
O1 Cd4 1_555 1_555
O2 C39 1_555 1_555
O3 C39 1_555 1_555
O16 C40 1_555 1_555
O17 C40 1_555 1_555
O9 Cd4 1_555 1_555
O11 C23 1_555 1_555
Cd6 O2 1_555 1_555
C25 C26 1_555 1_555
C28 O1 1_555 1_555
C28 O9 1_555 1_555
C33 C34 1_555 1_555
C35 O11 1_555 1_555
O3 Cd6 1_555 1_555
Cd6 N2 1_555 1_555
C11 H7 1_555 1_555
C36 H23 1_555 1_555
C37 H24 1_555 1_555
H25 C37 1_555 1_555
H26 C37 1_555 1_555
C38 H27 1_555 1_555
H28 C38 1_555 1_555
H29 C38 1_555 1_555
N2 C11 1_555 1_555
N5 C36 1_555 1_555
O10 Cd6 1_555 1_555
C36 O10 1_555 1_555
C37 N5 1_555 1_555
C38 N5 1_555 1_555
H30 O7 1_555 1_555
H31 O7 1_555 1_555
Cd2 N2_2 1_555 1_555
C11_2 H7_2 1_555 1_555
C36_2 H23_2 1_555 1_555
C37_2 H24_2 1_555 1_555
H25_2 C37_2 1_555 1_555
H26_2 C37_2 1_555 1_555
C38_2 H27_2 1_555 1_555
H28_2 C38_2 1_555 1_555
H29_2 C38_2 1_555 1_555
N2_2 C11_2 1_555 1_555
N5_2 C36_2 1_555 1_555
O10_2 Cd2 1_555 1_555
N6 Cd2 1_555 1_555
O12 Cd2 1_555 1_555
O13 Cd2 1_555 1_555
C36_2 O10_2 1_555 1_555
C37_2 N5_2 1_555 1_555
C38_2 N5_2 1_555 1_555
Cd3 N1_2 1_555 1_555
C1_2 H1_2 1_555 1_555
C21_2 C22_2 1_555 1_555
C22_2 H15_2 1_555 1_555
C23_2 C22_2 1_555 1_555
C24_2 C23_2 1_555 1_555
H16_2 C24_2 1_555 1_555
C25_2 C24_2 1_555 1_555
C26_2 C21_2 1_555 1_555
C28_2 C29_2 1_555 1_555
C29_2 C30_2 1_555 1_555
C30_2 H18_2 1_555 1_555
C31_2 C30_2 1_555 1_555
C32_2 C31_2 1_555 1_555
H19_2 C32_2 1_555 1_555
C33_2 C32_2 1_555 1_555
C34_2 C29_2 1_555 1_555
H20_2 C34_2 1_555 1_555
C35_2 C33_2 1_555 1_555
H21_2 C35_2 1_555 1_555
H22_2 C35_2 1_555 1_555
N1_2 C1_2 1_555 1_555
C39_2 C21_2 1_555 1_555
C40_2 C31_2 1_555 1_555
O1_2 Cd3 1_555 1_555
O12 C39_2 1_555 1_555
O13 C39_2 1_555 1_555
O6 C40_2 1_555 1_555
O8 C40_2 1_555 1_555
O9_2 Cd3 1_555 1_555
O11_2 C23_2 1_555 1_555
O14 Cd3 1_555 1_555
O15 Cd3 1_555 1_555
C25_2 C26_2 1_555 1_555
C28_2 O1_2 1_555 1_555
C28_2 O9_2 1_555 1_555
C33_2 C34_2 1_555 1_555
C35_2 O11_2 1_555 1_555
H3_2 C3_2 1_555 1_555
C4_2 C3_2 1_555 1_555
C6_2 C4_2 1_555 1_555
C7_2 C6_2 1_555 1_555
H5_2 C7_2 1_555 1_555
C8_2 C7_2 1_555 1_555
C9_2 C8_2 1_555 1_555
H6_2 C9_2 1_555 1_555
C10_2 C9_2 1_555 1_555
C13_2 C10_2 1_555 1_555
C14_2 C13_2 1_555 1_555
H9_2 C14_2 1_555 1_555
C15_2 C14_2 1_555 1_555
H10_2 C15_2 1_555 1_555
C16_2 H11_2 1_555 1_555
C17_2 C16_2 1_555 1_555
H12_2 C17_2 1_555 1_555
C18_2 C8_2 1_555 1_555
C19_2 C18_2 1_555 1_555
H13_2 C19_2 1_555 1_555
C20_2 C19_2 1_555 1_555
H14_2 C20_2 1_555 1_555
N3_2 C6_2 1_555 1_555
N6 C16_2 1_555 1_555
C4_2 C5_2 1_555 1_555
C10_2 N3_2 1_555 1_555
C12_2 C13_2 1_555 1_555
C17_2 C18_2 1_555 1_555
C20_2 N6 1_555 1_555
O14 C27_2 1_555 1_555
O15 C27_2 1_555 1_555
H30_2 O7_2 1_555 1_555
H31_2 O7_2 1_555 1_555

#END
