
###############################################################################
#
# This file contains modified crystal structure data generated from the
# MOF subset of the Cambridge Structural Database (CSD) v543 
# hosted by the Cambridge Crystallographic Data Centre (CCDC).
#
# This work is licensed under the Creative Commons
# Attribution-NonCommercial-ShareAlike 4.0 International License.
# To view a copy of this license, visit
# http://creativecommons.org/licenses/by-nc-sa/4.0/
# or send a letter to
# Creative Commons, PO Box 1866, Mountain View, CA 94042, USA.
#
# CIF created using the CSD Python API on 29 September 2022
# The structure has been converted into the P1 space group
# The structure has a 3D framework
# The original CSD entry FIZKEH is in the monoclinic crystal system
# The framework has been calculated to contain at least 10.0% void space
# The void calculation uses a probe of radius 1.32A, grid spacing 0.4
#
###############################################################################

data_FIZKEH
_chemical_formula_moiety         '(C24 H16 N4 Ni2 O7)n'
_symmetry_cell_setting           triclinic
_symmetry_space_group_name_H-M   'P 1'
_symmetry_Int_Tables_number      1
_space_group_name_Hall           'P 1'
loop_
_symmetry_equiv_pos_site_id
_symmetry_equiv_pos_as_xyz
1 x,y,z
_cell_length_a                   6.36090(10)
_cell_length_b                   12.4090(2)
_cell_length_c                   10.3997(2)
_cell_angle_alpha                90
_cell_angle_beta                 91.392(2)
_cell_angle_gamma                90
_cell_volume                     820.631
loop_
_atom_site_label
_atom_site_type_symbol
_atom_site_fract_x
_atom_site_fract_y
_atom_site_fract_z
O2 O 0.0578(7) 0.6460(3) 0.6104(4)
H1 H 0.047084 0.506384 0.432159
Ni3 Ni 0.0035(2) 0.75431(5) 0.76666(16)
O3 O 0.2437(6) 0.8660(3) 0.7345(4)
C7 C 0.1241(8) 0.9107(4) 0.6505(5)
N1 N 0.1380(8) 0.6446(3) 0.8898(4)
C3 C 0.4134(9) 0.5206(5) 0.9468(5)
H1_2 H 0.547084 0.493616 0.932159
C4 C 0.3309(9) 0.6058(5) 0.8732(5)
H2 H 0.413637 0.636467 0.810345
C5 C 0.0200(10) 0.6019(5) 0.9823(6)
Ni1 Ni 0.5035(2) 0.24569(5) 0.26666(16)
O1 O 0.7591(6) 0.6507(3) 0.7137(4)
N1_2 N 0.6380(8) 0.3554(3) 0.3898(4)
N2 N 0.3728(7) 0.1552(4) 0.4079(4)
C1 C 0.8763(10) 0.6122(5) 0.6257(6)
C2 C 0.7896(9) 0.5224(4) 0.5425(5)
C3_2 C 0.9134(9) 0.4794(5) 0.4468(5)
C4_2 C 0.8309(9) 0.3942(5) 0.3732(5)
H2_2 H 0.913637 0.363533 0.310345
C5_2 C 0.5200(10) 0.3981(5) 0.4823(6)
H3 H 0.385948 0.370591 0.494515
C6 C 0.5915(11) 0.4819(5) 0.5601(6)
H4 H 0.506403 0.510256 0.623207
C8 C 0.2101(9) 0.0012(4) 0.5707(5)
C9 C 0.0877(9) 0.0439(5) 0.4715(5)
C10 C 0.1761(9) 0.1226(5) 0.3918(5)
H6 H 0.093765 0.152538 0.325871
C11 C 0.4879(10) 0.1146(5) 0.5064(6)
H7 H 0.624649 0.139559 0.519405
C12 C 0.4136(10) 0.0385(5) 0.5881(5)
H8 H 0.498761 0.012011 0.654826
O5 O 0.2591(6) 0.3493(3) 0.2137(4)
O6 O 0.5578(7) 0.3540(3) 0.1104(4)
O7 O 0.7437(6) 0.1340(3) 0.2345(4)
O8 O 0.4385(7) 0.1190(4) 0.1326(4)
O4 O 0.9385(7) 0.8810(4) 0.6326(4)
C1_2 C 0.3763(10) 0.3878(5) 0.1257(6)
C2_2 C 0.2896(9) 0.4776(4) 0.0425(5)
C6_2 C 0.0915(11) 0.5181(5) 0.0601(6)
H4_2 H 0.006403 0.489744 0.123207
H7_2 H 0.124649 0.860441 0.019405
C7_2 C 0.6241(8) 0.0893(4) 0.1505(5)
N2_2 N 0.8728(7) 0.8448(4) 0.9079(4)
H3_2 H 0.885948 0.629409 0.994515
C9_2 C 0.5877(9) 0.9561(5) 0.9715(5)
H5 H 0.449720 0.979025 0.957667
C10_2 C 0.6761(9) 0.8774(5) 0.8918(5)
H6_2 H 0.593765 0.847462 0.825871
H5_2 H 0.949720 0.020975 0.457667
C8_2 C 0.7101(9) 0.9988(4) 0.0707(5)
C11_2 C 0.9879(10) 0.8854(5) 0.0064(6)
C12_2 C 0.9136(10) 0.9615(5) 0.0881(5)
H8_2 H 0.998761 0.987989 0.154826
loop_
_geom_bond_atom_site_label_1
_geom_bond_atom_site_label_2
_geom_bond_site_symmetry_1
_geom_bond_site_symmetry_2
O2 Ni3 1_555 1_555
O3 C7 1_555 1_555
Ni3 O3 1_555 1_555
Ni3 N1 1_555 1_555
N1 C4 1_555 1_555
C3 H1_2 1_555 1_555
C4 C3 1_555 1_555
H2 C4 1_555 1_555
C5 N1 1_555 1_555
Ni1 N1_2 1_555 1_555
O1 C1 1_555 1_555
N1_2 C4_2 1_555 1_555
N2 Ni1 1_555 1_555
C1 C2 1_555 1_555
C2 C3_2 1_555 1_555
C4_2 C3_2 1_555 1_555
H2_2 C4_2 1_555 1_555
C5_2 N1_2 1_555 1_555
H3 C5_2 1_555 1_555
C6 C2 1_555 1_555
H4 C6 1_555 1_555
C8 C9 1_555 1_555
C10 N2 1_555 1_555
H6 C10 1_555 1_555
C11 N2 1_555 1_555
H7 C11 1_555 1_555
C12 C8 1_555 1_555
H8 C12 1_555 1_555
O5 Ni1 1_555 1_555
O6 Ni1 1_555 1_555
O7 Ni1 1_555 1_555
O8 Ni1 1_555 1_555
C5_2 C6 1_555 1_555
C9 C10 1_555 1_555
C11 C12 1_555 1_555
O5 C1_2 1_555 1_555
O6 C1_2 1_555 1_555
C1_2 C2_2 1_555 1_555
C6_2 C2_2 1_555 1_555
H4_2 C6_2 1_555 1_555
O7 C7_2 1_555 1_555
O8 C7_2 1_555 1_555
C9_2 H5 1_555 1_555
C10_2 N2_2 1_555 1_555
H6_2 C10_2 1_555 1_555
C9_2 C10_2 1_555 1_555
C12_2 C8_2 1_555 1_555
H8_2 C12_2 1_555 1_555
C11_2 C12_2 1_555 1_555

#END
