
###############################################################################
#
# This file contains modified crystal structure data generated from the
# MOF subset of the Cambridge Structural Database (CSD) v543 
# hosted by the Cambridge Crystallographic Data Centre (CCDC).
#
# This work is licensed under the Creative Commons
# Attribution-NonCommercial-ShareAlike 4.0 International License.
# To view a copy of this license, visit
# http://creativecommons.org/licenses/by-nc-sa/4.0/
# or send a letter to
# Creative Commons, PO Box 1866, Mountain View, CA 94042, USA.
#
# CIF created using the CSD Python API on 29 September 2022
# The structure has been converted into the P1 space group
# The structure has a 3D framework
# The original CSD entry FIZQAI is in the monoclinic crystal system
# The framework has been calculated to contain at least 10.0% void space
# The void calculation uses a probe of radius 1.32A, grid spacing 0.4
# H atom positions have been added when not included in the experimental data
# Generated hydrogen atom positions removed from atoms on special positions
#
###############################################################################

data_FIZQAI
_chemical_formula_moiety         '(C96 H84 Cu4 O42)n'
_symmetry_cell_setting           triclinic
_symmetry_space_group_name_H-M   'P 1'
_symmetry_Int_Tables_number      1
_space_group_name_Hall           'P 1'
loop_
_symmetry_equiv_pos_site_id
_symmetry_equiv_pos_as_xyz
1 x,y,z
_cell_length_a                   12.435(7)
_cell_length_b                   14.584(9)
_cell_length_c                   27.018(15)
_cell_angle_alpha                90
_cell_angle_beta                 107.87(2)
_cell_angle_gamma                90
_cell_volume                     4663.38
loop_
_atom_site_label
_atom_site_type_symbol
_atom_site_fract_x
_atom_site_fract_y
_atom_site_fract_z
O28 O 0.0531(3) 0.0481(2) 0.69870(10)
O17 O 0.1236(3) 0.9386(2) 0.60661(11)
O18 O 0.2232(3) 0.8260(2) 0.65266(11)
O20 O 0.0521(3) 0.8118(2) 0.71272(12)
Cu8 Cu 0.00710(4) 0.97561(4) 0.636725(16)
Cu9 Cu 0.21600(5) 0.83977(4) 0.72318(2)
O29 O 0.3981(4) 0.8576(5) 0.7468(2)
O30 O 0.2415(6) 0.8109(5) 0.8083(2)
O31 O 0.2482(7) 0.6962(5) 0.7330(4)
O32 O 0.2058(3) 0.9706(2) 0.73869(12)
O27 O 0.9191(3) 0.0408(2) 0.57690(10)
Cu1 Cu 0.99290(4) 0.02439(4) 0.363275(16)
O1 O 0.8764(3) 0.0614(2) 0.39339(11)
C1 C 0.8130(4) 0.1275(3) 0.38761(17)
O2 O 0.7768(3) 0.1740(2) 0.34734(11)
C2 C 0.7739(3) 0.1538(3) 0.43302(14)
Cu2 Cu 0.78400(5) 0.16023(4) 0.27682(2)
C3 C 0.8200(4) 0.1125(3) 0.47981(15)
C4 C 0.6926(4) 0.2215(3) 0.42812(15)
C5 C 0.7853(4) 0.1361(3) 0.52282(14)
H1 H 0.8754 0.0679 0.4834
C6 C 0.6572(4) 0.2475(3) 0.46926(14)
H2 H 0.6614 0.2498 0.3961
C7 C 0.8374(4) 0.0922(3) 0.57362(16)
C8 C 0.7033(4) 0.2023(3) 0.51610(15)
C9 C 0.5691(3) 0.3180(3) 0.46194(14)
O4 O 0.7994(4) 0.1066(3) 0.60867(13)
H3 H 0.6777 0.2172 0.5440
C10 C 0.4702(3) 0.3088(3) 0.42145(15)
C11 C 0.5838(3) 0.3960(3) 0.49314(14)
H4 H 0.4616 0.2572 0.4004
C12 C 0.3841(3) 0.3710(3) 0.41048(14)
C13 C 0.6843(3) 0.4156(3) 0.53394(15)
C14 C 0.4942(3) 0.4609(3) 0.48379(13)
C15 C 0.2823(3) 0.3558(3) 0.36518(14)
C16 C 0.3935(3) 0.4467(3) 0.44277(14)
C17 C 0.6959(4) 0.4892(3) 0.56333(16)
H5 H 0.7445 0.3749 0.5402
C18 C 0.2566(3) 0.4159(3) 0.32413(15)
C19 C 0.2121(4) 0.2814(3) 0.36323(15)
H6 H 0.7646 0.4997 0.5888
C20 C 0.1607(4) 0.4018(3) 0.28073(14)
H7 H 0.3030 0.4662 0.3250
C21 C 0.1175(4) 0.2681(3) 0.32165(15)
H8 H 0.2294 0.2397 0.3906
C22 C 0.0921(4) 0.3294(3) 0.28025(15)
C23 C 0.1384(4) 0.4684(3) 0.23667(16)
C24 C 0.0405(4) 0.1916(4) 0.32112(17)
H9 H 0.0277 0.3205 0.2520
O5 O 0.0531(3) 0.4519(2) 0.19870(10)
O6 O 0.2058(3) 0.5294(2) 0.23869(12)
O8 O 0.0755(3) 0.1328(2) 0.35695(12)
C25 C 0.5058(3) 0.5391(3) 0.51621(13)
C26 C 0.3041(4) 0.5108(3) 0.43667(16)
C27 C 0.6065(3) 0.5533(3) 0.55723(14)
C28 C 0.4162(3) 0.6040(3) 0.50686(14)
H10 H 0.2354 0.5003 0.4112
C29 C 0.3157(3) 0.5844(3) 0.46606(15)
C30 C 0.6159(3) 0.6290(3) 0.58952(14)
C31 C 0.4309(3) 0.6820(3) 0.53806(14)
H11 H 0.2555 0.6251 0.4598
C32 C 0.5298(3) 0.6912(3) 0.57855(15)
C33 C 0.7177(3) 0.6442(3) 0.63482(14)
C34 C 0.3428(4) 0.7525(3) 0.53074(14)
H12 H 0.5384 0.7428 0.5996
C35 C 0.7879(4) 0.7186(3) 0.63677(15)
C36 C 0.7434(3) 0.5841(3) 0.67587(15)
C37 C 0.3074(4) 0.7785(3) 0.57188(15)
C38 C 0.2967(4) 0.7977(3) 0.48390(15)
Cu4 Cu 0.00710(4) 0.52439(4) 0.136725(16)
Cu5 Cu 0.21600(5) 0.66023(4) 0.22318(2)
C39 C 0.8825(4) 0.7319(3) 0.67835(15)
H13 H 0.7706 0.7603 0.6094
H14 H 0.6970 0.5338 0.6750
C40 C 0.8393(4) 0.5982(3) 0.71927(14)
C41 C 0.2261(3) 0.8462(3) 0.56698(14)
H15 H 0.3386 0.7502 0.6039
C42 C 0.2147(4) 0.8639(3) 0.47718(14)
H16 H 0.3223 0.7828 0.4560
C43 C 0.9595(4) 0.8084(4) 0.67888(17)
C44 C 0.9079(4) 0.6706(3) 0.71975(15)
C45 C 0.8616(4) 0.5316(3) 0.76333(16)
C46 C 0.1870(4) 0.8725(3) 0.61239(17)
C47 C 0.1800(4) 0.8875(3) 0.52019(15)
C48 C 0.1626(4) 0.9078(3) 0.42638(16)
O19 O 0.9245(3) 0.8672(2) 0.64305(12)
H17 H 0.9723 0.6795 0.7480
O21 O 0.7942(3) 0.4706(2) 0.76131(12)
O22 O 0.9469(3) 0.5481(2) 0.80130(10)
H18 H 0.1246 0.9321 0.5166
O25 O 0.0809(3) 0.9592(2) 0.42310(10)
O26 O 0.2006(4) 0.8934(3) 0.39133(13)
Cu10 Cu 0.78400(5) 0.33977(4) 0.77682(2)
Cu11 Cu 0.99290(4) 0.47561(4) 0.863275(16)
O7 O 0.9479(3) 0.1882(2) 0.28728(12)
O9 O 0.6019(4) 0.1424(5) 0.2532(2)
O10 O 0.7585(6) 0.1891(5) 0.1917(2)
O11 O 0.7518(7) 0.3038(5) 0.2670(4)
O13 O 0.7942(3) 0.0294(2) 0.26131(12)
O14 O 0.9469(3) 0.9519(2) 0.30130(10)
O7_2 O 0.0521(3) 0.6882(2) 0.21272(12)
O9_2 O 0.3981(4) 0.6424(5) 0.2468(2)
O10_2 O 0.2415(6) 0.6891(5) 0.3083(2)
O11_2 O 0.2482(7) 0.8038(5) 0.2330(4)
O12 O 0.2232(3) 0.6740(2) 0.15266(11)
O16 O 0.1236(3) 0.5614(2) 0.10661(11)
C26_2 C 0.6959(4) 0.0108(3) 0.06333(16)
H10_2 H 0.7646 0.0003 0.0888
C29_2 C 0.6843(3) 0.0844(3) 0.03394(15)
H11_2 H 0.7445 0.1251 0.0402
C38_2 C 0.7033(4) 0.2977(3) 0.01610(15)
C42_2 C 0.7853(4) 0.3639(3) 0.02282(14)
H16_2 H 0.6777 0.2828 0.0440
C48_2 C 0.8374(4) 0.4078(3) 0.07362(16)
O25_2 O 0.9191(3) 0.4592(2) 0.07690(10)
O26_2 O 0.7994(4) 0.3934(3) 0.10867(13)
C25_2 C 0.4942(3) 0.0391(3) 0.98379(13)
C27_2 C 0.3935(3) 0.0533(3) 0.94277(14)
C28_2 C 0.5838(3) 0.1040(3) 0.99314(14)
C30_2 C 0.3841(3) 0.1290(3) 0.91048(14)
C31_2 C 0.5691(3) 0.1820(3) 0.96194(14)
C32_2 C 0.4702(3) 0.1912(3) 0.92145(15)
C33_2 C 0.2823(3) 0.1442(3) 0.86518(14)
C34_2 C 0.6572(4) 0.2525(3) 0.96926(14)
H12_2 H 0.4616 0.2428 0.9004
C35_2 C 0.2121(4) 0.2186(3) 0.86323(15)
C36_2 C 0.2566(3) 0.0841(3) 0.82413(15)
C37_2 C 0.6926(4) 0.2785(3) 0.92812(15)
C39_2 C 0.1175(4) 0.2319(3) 0.82165(15)
H13_2 H 0.2294 0.2603 0.8906
H14_2 H 0.3030 0.0338 0.8250
C40_2 C 0.1607(4) 0.0982(3) 0.78073(14)
C41_2 C 0.7739(3) 0.3462(3) 0.93302(14)
H15_2 H 0.6614 0.2502 0.8961
C43_2 C 0.0405(4) 0.3084(4) 0.82112(17)
C44_2 C 0.0921(4) 0.1706(3) 0.78025(15)
C45_2 C 0.1384(4) 0.0316(3) 0.73667(16)
C46_2 C 0.8130(4) 0.3725(3) 0.88761(17)
C47_2 C 0.8200(4) 0.3875(3) 0.97981(15)
O19_2 O 0.0755(3) 0.3672(2) 0.85695(12)
H17_2 H 0.0277 0.1795 0.7520
O23 O 0.8764(3) 0.4386(2) 0.89339(11)
O24 O 0.7768(3) 0.3260(2) 0.84734(11)
H18_2 H 0.8754 0.4321 0.9834
O27_2 O 0.0809(3) 0.5408(2) 0.92310(10)
C1_2 C 0.1870(4) 0.6275(3) 0.11239(17)
C2_2 C 0.2261(3) 0.6538(3) 0.06698(14)
C3_2 C 0.1800(4) 0.6125(3) 0.02019(15)
C4_2 C 0.3074(4) 0.7215(3) 0.07188(15)
H1_2 H 0.1246 0.5679 0.0166
C6_2 C 0.3428(4) 0.7475(3) 0.03074(14)
H2_2 H 0.3386 0.7498 0.1039
C9_2 C 0.4309(3) 0.8180(3) 0.03806(14)
C10_2 C 0.5298(3) 0.8088(3) 0.07855(15)
C11_2 C 0.4162(3) 0.8960(3) 0.00686(14)
H4_2 H 0.5384 0.7572 0.0996
C12_2 C 0.6159(3) 0.8710(3) 0.08952(14)
C14_2 C 0.5058(3) 0.9609(3) 0.01621(13)
C15_2 C 0.7177(3) 0.8558(3) 0.13482(14)
C16_2 C 0.6065(3) 0.9467(3) 0.05723(14)
C18_2 C 0.7434(3) 0.9159(3) 0.17587(15)
C19_2 C 0.7879(4) 0.7814(3) 0.13677(15)
C20_2 C 0.8393(4) 0.9018(3) 0.21927(14)
H7_2 H 0.6970 0.9662 0.1750
C21_2 C 0.8825(4) 0.7681(3) 0.17835(15)
H8_2 H 0.7706 0.7397 0.1094
C22_2 C 0.9079(4) 0.8294(3) 0.21975(15)
C23_2 C 0.8616(4) 0.9684(3) 0.26333(16)
C24_2 C 0.9595(4) 0.6916(4) 0.17888(17)
H9_2 H 0.9723 0.8205 0.2480
O8_2 O 0.9245(3) 0.6328(2) 0.14305(12)
C5_2 C 0.2147(4) 0.6361(3) 0.97718(14)
C7_2 C 0.1626(4) 0.5922(3) 0.92638(16)
C8_2 C 0.2967(4) 0.7023(3) 0.98390(15)
O4_2 O 0.2006(4) 0.6066(3) 0.89133(13)
H3_2 H 0.3223 0.7172 0.9560
C13_2 C 0.3157(3) 0.9156(3) 0.96606(15)
C17_2 C 0.3041(4) 0.9892(3) 0.93667(16)
H5_2 H 0.2555 0.8749 0.9598
H6_2 H 0.2354 0.9997 0.9112
O20_2 O 0.9479(3) 0.3118(2) 0.78728(12)
O29_2 O 0.6019(4) 0.3576(5) 0.7532(2)
O30_2 O 0.7585(6) 0.3109(5) 0.6917(2)
O31_2 O 0.7518(7) 0.1962(5) 0.7670(4)
loop_
_geom_bond_atom_site_label_1
_geom_bond_atom_site_label_2
_geom_bond_site_symmetry_1
_geom_bond_site_symmetry_2
O17 Cu8 1_555 1_555
O18 Cu9 1_555 1_555
Cu9 O20 1_555 1_555
O29 Cu9 1_555 1_555
O30 Cu9 1_555 1_555
O31 Cu9 1_555 1_555
O32 Cu9 1_555 1_555
Cu1 O1 1_555 1_555
O1 C1 1_555 1_555
C1 O2 1_555 1_555
O2 Cu2 1_555 1_555
C2 C1 1_555 1_555
C3 C2 1_555 1_555
C4 C2 1_555 1_555
C5 C3 1_555 1_555
H1 C3 1_555 1_555
C6 C4 1_555 1_555
H2 C4 1_555 1_555
C7 C5 1_555 1_555
C8 C5 1_555 1_555
C9 C6 1_555 1_555
O27 C7 1_555 1_555
O4 C7 1_555 1_555
H3 C8 1_555 1_555
C10 C9 1_555 1_555
C11 C9 1_555 1_555
H4 C10 1_555 1_555
C12 C10 1_555 1_555
C13 C11 1_555 1_555
C14 C11 1_555 1_555
C15 C12 1_555 1_555
C16 C12 1_555 1_555
C17 C13 1_555 1_555
H5 C13 1_555 1_555
C18 C15 1_555 1_555
C19 C15 1_555 1_555
H6 C17 1_555 1_555
C20 C18 1_555 1_555
H7 C18 1_555 1_555
C21 C19 1_555 1_555
H8 C19 1_555 1_555
C22 C20 1_555 1_555
C23 C20 1_555 1_555
C24 C21 1_555 1_555
H9 C22 1_555 1_555
O5 C23 1_555 1_555
O6 C23 1_555 1_555
O8 C24 1_555 1_555
C25 C14 1_555 1_555
C26 C16 1_555 1_555
C27 C17 1_555 1_555
C28 C25 1_555 1_555
H10 C26 1_555 1_555
C29 C26 1_555 1_555
C30 C27 1_555 1_555
C31 C28 1_555 1_555
H11 C29 1_555 1_555
C32 C30 1_555 1_555
C33 C30 1_555 1_555
C34 C31 1_555 1_555
H12 C32 1_555 1_555
C35 C33 1_555 1_555
C36 C33 1_555 1_555
C37 C34 1_555 1_555
C38 C34 1_555 1_555
Cu4 O5 1_555 1_555
Cu5 O6 1_555 1_555
C39 C35 1_555 1_555
H13 C35 1_555 1_555
H14 C36 1_555 1_555
C40 C36 1_555 1_555
C41 C37 1_555 1_555
H15 C37 1_555 1_555
C42 C38 1_555 1_555
H16 C38 1_555 1_555
C43 C39 1_555 1_555
C44 C39 1_555 1_555
C45 C40 1_555 1_555
C46 C41 1_555 1_555
C47 C41 1_555 1_555
C48 C42 1_555 1_555
O19 C43 1_555 1_555
H17 C44 1_555 1_555
O21 C45 1_555 1_555
O22 C45 1_555 1_555
O17 C46 1_555 1_555
O18 C46 1_555 1_555
H18 C47 1_555 1_555
O25 C48 1_555 1_555
O26 C48 1_555 1_555
Cu10 O21 1_555 1_555
Cu11 O22 1_555 1_555
C6 C8 1_555 1_555
C14 C16 1_555 1_555
C21 C22 1_555 1_555
C25 C27 1_555 1_555
C28 C29 1_555 1_555
C31 C32 1_555 1_555
C40 C44 1_555 1_555
C42 C47 1_555 1_555
O9 Cu2 1_555 1_555
O10 Cu2 1_555 1_555
O11 Cu2 1_555 1_555
Cu2 O7 1_555 1_555
O13 Cu2 1_555 1_555
O9_2 Cu5 1_555 1_555
O10_2 Cu5 1_555 1_555
O11_2 Cu5 1_555 1_555
Cu5 O7_2 1_555 1_555
O12 Cu5 1_555 1_555
O16 Cu4 1_555 1_555
H10_2 C26_2 1_555 1_555
C29_2 C26_2 1_555 1_555
H11_2 C29_2 1_555 1_555
C42_2 C38_2 1_555 1_555
H16_2 C38_2 1_555 1_555
C48_2 C42_2 1_555 1_555
O25_2 C48_2 1_555 1_555
O26_2 C48_2 1_555 1_555
C28_2 C25_2 1_555 1_555
C30_2 C27_2 1_555 1_555
C31_2 C28_2 1_555 1_555
C32_2 C30_2 1_555 1_555
C33_2 C30_2 1_555 1_555
C34_2 C31_2 1_555 1_555
H12_2 C32_2 1_555 1_555
C35_2 C33_2 1_555 1_555
C36_2 C33_2 1_555 1_555
C37_2 C34_2 1_555 1_555
C39_2 C35_2 1_555 1_555
H13_2 C35_2 1_555 1_555
H14_2 C36_2 1_555 1_555
C40_2 C36_2 1_555 1_555
C41_2 C37_2 1_555 1_555
H15_2 C37_2 1_555 1_555
C43_2 C39_2 1_555 1_555
C44_2 C39_2 1_555 1_555
C45_2 C40_2 1_555 1_555
C46_2 C41_2 1_555 1_555
C47_2 C41_2 1_555 1_555
O19_2 C43_2 1_555 1_555
H17_2 C44_2 1_555 1_555
O28 C45_2 1_555 1_555
O23 C46_2 1_555 1_555
O24 C46_2 1_555 1_555
H18_2 C47_2 1_555 1_555
Cu11 O23 1_555 1_555
Cu10 O24 1_555 1_555
C25_2 C27_2 1_555 1_555
C31_2 C32_2 1_555 1_555
C40_2 C44_2 1_555 1_555
O16 C1_2 1_555 1_555
C1_2 O12 1_555 1_555
C2_2 C1_2 1_555 1_555
C3_2 C2_2 1_555 1_555
C4_2 C2_2 1_555 1_555
H1_2 C3_2 1_555 1_555
C6_2 C4_2 1_555 1_555
H2_2 C4_2 1_555 1_555
C9_2 C6_2 1_555 1_555
C10_2 C9_2 1_555 1_555
C11_2 C9_2 1_555 1_555
H4_2 C10_2 1_555 1_555
C12_2 C10_2 1_555 1_555
C14_2 C11_2 1_555 1_555
C15_2 C12_2 1_555 1_555
C16_2 C12_2 1_555 1_555
C18_2 C15_2 1_555 1_555
C19_2 C15_2 1_555 1_555
C20_2 C18_2 1_555 1_555
H7_2 C18_2 1_555 1_555
C21_2 C19_2 1_555 1_555
H8_2 C19_2 1_555 1_555
C22_2 C20_2 1_555 1_555
C23_2 C20_2 1_555 1_555
C24_2 C21_2 1_555 1_555
H9_2 C22_2 1_555 1_555
O14 C23_2 1_555 1_555
O8_2 C24_2 1_555 1_555
C14_2 C16_2 1_555 1_555
C21_2 C22_2 1_555 1_555
C7_2 C5_2 1_555 1_555
C8_2 C5_2 1_555 1_555
O27_2 C7_2 1_555 1_555
O4_2 C7_2 1_555 1_555
H3_2 C8_2 1_555 1_555
C17_2 C13_2 1_555 1_555
H5_2 C13_2 1_555 1_555
H6_2 C17_2 1_555 1_555
Cu10 O20_2 1_555 1_555
O29_2 Cu10 1_555 1_555
O30_2 Cu10 1_555 1_555
O31_2 Cu10 1_555 1_555

#END
