
###############################################################################
#
# This file contains modified crystal structure data generated from the
# MOF subset of the Cambridge Structural Database (CSD) v543 
# hosted by the Cambridge Crystallographic Data Centre (CCDC).
#
# This work is licensed under the Creative Commons
# Attribution-NonCommercial-ShareAlike 4.0 International License.
# To view a copy of this license, visit
# http://creativecommons.org/licenses/by-nc-sa/4.0/
# or send a letter to
# Creative Commons, PO Box 1866, Mountain View, CA 94042, USA.
#
# CIF created using the CSD Python API on 29 September 2022
# The structure has been converted into the P1 space group
# The structure has a 3D framework
# The original CSD entry FIZVOC is in the orthorhombic crystal system
# The framework has been calculated to contain at least 10.0% void space
# The void calculation uses a probe of radius 1.32A, grid spacing 0.4
#
###############################################################################

data_FIZVOC
_chemical_formula_moiety         '(C96 H80 Cd8 N16 O40)n'
_symmetry_cell_setting           triclinic
_symmetry_space_group_name_H-M   'P 1'
_symmetry_Int_Tables_number      1
_space_group_name_Hall           'P 1'
loop_
_symmetry_equiv_pos_site_id
_symmetry_equiv_pos_as_xyz
1 x,y,z
_cell_length_a                   12.39060(10)
_cell_length_b                   15.53100(10)
_cell_length_c                   18.92080(10)
_cell_angle_alpha                90
_cell_angle_beta                 90
_cell_angle_gamma                90
_cell_volume                     3641.09
loop_
_atom_site_label
_atom_site_type_symbol
_atom_site_fract_x
_atom_site_fract_y
_atom_site_fract_z
Cd1 Cd 0.31484(2) 0.71502(2) 0.31837(2)
O1 O 0.3564(3) 0.57003(19) 0.30921(17)
O2 O 0.4830(3) 0.64866(17) 0.26110(19)
O3 O 0.6905(2) 0.6936(2) 0.61802(18)
O4 O 0.6616(3) 0.8332(2) 0.61356(19)
O5 O 0.2042(3) 0.7020(2) 0.2195(2)
H1 H 0.136428 0.673664 0.227870
H2 H 0.232088 0.665106 0.183210
N1 N 0.6104(3) 0.3449(2) 0.22128(18)
N2 N 0.4158(3) 0.7227(2) 0.4258(2)
C1 C 0.4442(3) 0.5779(2) 0.2773(2)
C2 C 0.5038(3) 0.4968(2) 0.2579(2)
C3 C 0.4757(4) 0.4188(3) 0.2883(3)
H3 H 0.420965 0.416181 0.321867
C4 C 0.5296(4) 0.3452(3) 0.2684(3)
H4 H 0.508925 0.293193 0.288627
C5 C 0.6392(4) 0.4206(3) 0.1938(2)
H5 H 0.696569 0.421857 0.162135
C6 C 0.5882(4) 0.4973(3) 0.2099(2)
H6 H 0.610254 0.548478 0.188771
C7 C 0.6416(3) 0.7580(3) 0.5951(2)
C8 C 0.5570(3) 0.7441(3) 0.5386(2)
C9 C 0.5550(5) 0.6701(3) 0.5004(3)
H7 H 0.600883 0.624790 0.511852
C10 C 0.4842(5) 0.6627(3) 0.4443(3)
H8 H 0.485366 0.612085 0.418054
C11 C 0.4133(5) 0.7918(4) 0.4669(3)
H9 H 0.361654 0.833779 0.457653
C12 C 0.4821(5) 0.8046(4) 0.5221(3)
H10 H 0.477762 0.855009 0.548508
Cd2 Cd 0.68516(2) 0.21502(2) 0.18163(2)
Cd3 Cd 0.81484(2) 0.78498(2) 0.68163(2)
O6 O 0.1905(2) 0.8064(2) 0.38198(18)
O7 O 0.1616(3) 0.6668(2) 0.38644(19)
N3 N 0.3896(3) 0.8449(2) 0.27872(18)
O3_2 O 0.8095(2) 0.3064(2) 0.11802(18)
O4_2 O 0.8384(3) 0.1668(2) 0.11356(19)
C7_2 C 0.8584(3) 0.2420(3) 0.0951(2)
C8_2 C 0.9430(3) 0.2559(3) 0.0386(2)
C9_2 C 0.9450(5) 0.3299(3) 0.0004(3)
H7_2 H 0.899117 0.375210 0.011852
N1_2 N 0.8896(3) 0.6551(2) 0.72128(18)
C2_2 C 0.9962(3) 0.5032(2) 0.7579(2)
C4_2 C 0.9704(4) 0.6548(3) 0.7684(3)
H4_2 H 0.991075 0.706807 0.788627
C5_2 C 0.8608(4) 0.5794(3) 0.6938(2)
H5_2 H 0.803431 0.578143 0.662135
C6_2 C 0.9118(4) 0.5027(3) 0.7099(2)
H6_2 H 0.889746 0.451522 0.688771
O1_2 O 0.6436(3) 0.07003(19) 0.19079(17)
O2_2 O 0.5170(3) 0.14866(17) 0.23890(19)
O5_2 O 0.7958(3) 0.2020(2) 0.2805(2)
H1_2 H 0.863572 0.173664 0.272130
H2_2 H 0.767912 0.165106 0.316790
N2_2 N 0.5842(3) 0.2227(2) 0.0742(2)
C1_2 C 0.5558(3) 0.0779(2) 0.2227(2)
H6_3 H 0.389746 0.048478 0.311229
C10_2 C 0.5158(5) 0.1627(3) 0.0557(3)
H8_2 H 0.514634 0.112085 0.081946
C11_2 C 0.5867(5) 0.2918(4) 0.0331(3)
H9_2 H 0.638346 0.333779 0.042347
C2_3 C 0.4962(3) 0.9968(2) 0.2421(2)
C3_2 C 0.5243(4) 0.9188(3) 0.2117(3)
H3_2 H 0.579035 0.916181 0.178133
C4_3 C 0.4704(4) 0.8452(3) 0.2316(3)
H4_3 H 0.491075 0.793193 0.211373
C5_3 C 0.3608(4) 0.9206(3) 0.3062(2)
H5_3 H 0.303431 0.921857 0.337865
C6_3 C 0.4118(4) 0.9973(3) 0.2901(2)
H6_4 H 0.110254 0.951522 0.811229
C7_3 C 0.1416(3) 0.7420(3) 0.4049(2)
C8_3 C 0.0570(3) 0.7559(3) 0.4614(2)
C9_3 C 0.0550(5) 0.8299(3) 0.4996(3)
H7_3 H 0.100883 0.875210 0.488148
O1_3 O 0.8564(3) 0.92997(19) 0.69079(17)
O2_3 O 0.9830(3) 0.85134(17) 0.73890(19)
O5_3 O 0.7042(3) 0.7980(2) 0.7805(2)
H1_3 H 0.636428 0.826336 0.772130
H2_3 H 0.732088 0.834894 0.816790
N2_3 N 0.9158(3) 0.7773(2) 0.5742(2)
C1_3 C 0.9442(3) 0.9221(2) 0.7227(2)
C10_3 C 0.9842(5) 0.8373(3) 0.5557(3)
H8_3 H 0.985366 0.887915 0.581946
C11_3 C 0.9133(5) 0.7082(4) 0.5331(3)
H9_3 H 0.861654 0.666221 0.542347
C12_2 C 0.9821(5) 0.6954(4) 0.4779(3)
H10_2 H 0.977762 0.644991 0.451492
C12_3 C 0.0179(5) 0.1954(4) 0.0221(3)
H10_3 H 0.022238 0.144991 0.048508
Cd1_2 Cd 0.18516(2) 0.28498(2) 0.81837(2)
O1_4 O 0.1436(3) 0.42997(19) 0.80921(17)
O2_4 O 0.0170(3) 0.35134(17) 0.76110(19)
O5_4 O 0.2958(3) 0.2980(2) 0.7195(2)
H1_4 H 0.363572 0.326336 0.727870
H2_4 H 0.267912 0.334894 0.683210
N2_4 N 0.0842(3) 0.2773(2) 0.9258(2)
C1_4 C 0.0558(3) 0.4221(2) 0.7773(2)
C3_3 C 0.0243(4) 0.5812(3) 0.7883(3)
H3_3 H 0.079035 0.583819 0.821867
C10_4 C 0.0158(5) 0.3373(3) 0.9443(3)
H8_4 H 0.014634 0.387915 0.918054
C11_4 C 0.0867(5) 0.2082(4) 0.9669(3)
H9_4 H 0.138346 0.166221 0.957653
O6_2 O 0.3095(2) 0.1936(2) 0.88198(18)
O7_2 O 0.3384(3) 0.3332(2) 0.88644(19)
N3_2 N 0.1104(3) 0.1551(2) 0.77872(18)
C7_4 C 0.3584(3) 0.2580(3) 0.9049(2)
C8_4 C 0.4430(3) 0.2441(3) 0.9614(2)
C9_4 C 0.4450(5) 0.1701(3) 0.9996(3)
H7_4 H 0.399117 0.124790 0.988148
C12_4 C 0.5179(5) 0.3046(4) 0.9779(3)
H10_4 H 0.522238 0.355009 0.951492
C2_4 C 0.0038(3) 0.0032(2) 0.7421(2)
C4_4 C 0.0296(4) 0.1548(3) 0.7316(3)
H4_4 H 0.008925 0.206807 0.711373
C5_4 C 0.1392(4) 0.0794(3) 0.8062(2)
H5_4 H 0.196569 0.078143 0.837865
C6_4 C 0.0882(4) 0.0027(3) 0.7901(2)
C3_4 C 0.9757(4) 0.0812(3) 0.7117(3)
H3_4 H 0.920965 0.083819 0.678133
Cd1_3 Cd 0.68516(2) 0.28498(2) 0.68163(2)
O1_5 O 0.6436(3) 0.42997(19) 0.69079(17)
O2_5 O 0.5170(3) 0.35134(17) 0.73890(19)
O3_3 O 0.3095(2) 0.3064(2) 0.38198(18)
O4_3 O 0.3384(3) 0.1668(2) 0.38644(19)
O5_5 O 0.7958(3) 0.2980(2) 0.7805(2)
H1_5 H 0.863572 0.326336 0.772130
H2_5 H 0.767912 0.334894 0.816790
N1_3 N 0.3896(3) 0.6551(2) 0.77872(18)
N2_5 N 0.5842(3) 0.2773(2) 0.5742(2)
C1_5 C 0.5558(3) 0.4221(2) 0.7227(2)
C2_5 C 0.4962(3) 0.5032(2) 0.7421(2)
C3_5 C 0.5243(4) 0.5812(3) 0.7117(3)
H3_5 H 0.579035 0.583819 0.678133
C4_5 C 0.4704(4) 0.6548(3) 0.7316(3)
H4_5 H 0.491075 0.706807 0.711373
C5_5 C 0.3608(4) 0.5794(3) 0.8062(2)
H5_5 H 0.303431 0.578143 0.837865
C6_5 C 0.4118(4) 0.5027(3) 0.7901(2)
H6_5 H 0.389746 0.451522 0.811229
C7_5 C 0.3584(3) 0.2420(3) 0.4049(2)
C8_5 C 0.4430(3) 0.2559(3) 0.4614(2)
C9_5 C 0.4450(5) 0.3299(3) 0.4996(3)
H7_5 H 0.399117 0.375210 0.488148
C10_5 C 0.5158(5) 0.3373(3) 0.5557(3)
H8_5 H 0.514634 0.387915 0.581946
C11_5 C 0.5867(5) 0.2082(4) 0.5331(3)
H9_5 H 0.638346 0.166221 0.542347
C12_5 C 0.5179(5) 0.1954(4) 0.4779(3)
H10_5 H 0.522238 0.144991 0.451492
Cd2_2 Cd 0.31484(2) 0.78498(2) 0.81837(2)
Cd3_2 Cd 0.18516(2) 0.21502(2) 0.31837(2)
O6_3 O 0.8095(2) 0.1936(2) 0.61802(18)
O7_3 O 0.8384(3) 0.3332(2) 0.61356(19)
N3_3 N 0.6104(3) 0.1551(2) 0.72128(18)
N1_4 N 0.1104(3) 0.3449(2) 0.27872(18)
C2_6 C 0.0038(3) 0.4968(2) 0.2421(2)
C4_6 C 0.0296(4) 0.3452(3) 0.2316(3)
H4_6 H 0.008925 0.293193 0.211373
C5_6 C 0.1392(4) 0.4206(3) 0.3062(2)
H5_6 H 0.196569 0.421857 0.337865
C6_6 C 0.0882(4) 0.4973(3) 0.2901(2)
H6_6 H 0.110254 0.548478 0.311229
O3_4 O 0.1905(2) 0.6936(2) 0.88198(18)
O4_4 O 0.1616(3) 0.8332(2) 0.88644(19)
C7_6 C 0.1416(3) 0.7580(3) 0.9049(2)
C8_6 C 0.0570(3) 0.7441(3) 0.9614(2)
C9_6 C 0.0550(5) 0.6701(3) 0.9996(3)
H7_6 H 0.100883 0.624790 0.988148
C2_7 C 0.5038(3) 0.0032(2) 0.7579(2)
C3_6 C 0.4757(4) 0.0812(3) 0.7883(3)
H3_6 H 0.420965 0.083819 0.821867
C4_7 C 0.5296(4) 0.1548(3) 0.7684(3)
H4_7 H 0.508925 0.206807 0.788627
C5_7 C 0.6392(4) 0.0794(3) 0.6938(2)
H5_7 H 0.696569 0.078143 0.662135
C6_7 C 0.5882(4) 0.0027(3) 0.7099(2)
O1_6 O 0.3564(3) 0.92997(19) 0.80921(17)
O2_6 O 0.4830(3) 0.85134(17) 0.76110(19)
O5_6 O 0.2042(3) 0.7980(2) 0.7195(2)
H1_6 H 0.136428 0.826336 0.727870
H2_6 H 0.232088 0.834894 0.683210
N2_6 N 0.4158(3) 0.7773(2) 0.9258(2)
C1_6 C 0.4442(3) 0.9221(2) 0.7773(2)
H6_7 H 0.610254 0.951522 0.688771
C10_6 C 0.4842(5) 0.8373(3) 0.9443(3)
H8_6 H 0.485366 0.887915 0.918054
C11_6 C 0.4133(5) 0.7082(4) 0.9669(3)
H9_6 H 0.361654 0.666221 0.957653
O1_7 O 0.1436(3) 0.07003(19) 0.30921(17)
O2_7 O 0.0170(3) 0.14866(17) 0.26110(19)
O5_7 O 0.2958(3) 0.2020(2) 0.2195(2)
H1_7 H 0.363572 0.173664 0.227870
H2_7 H 0.267912 0.165106 0.183210
N2_7 N 0.0842(3) 0.2227(2) 0.4258(2)
C1_7 C 0.0558(3) 0.0779(2) 0.2773(2)
C10_7 C 0.0158(5) 0.1627(3) 0.4443(3)
H8_7 H 0.014634 0.112085 0.418054
C11_7 C 0.0867(5) 0.2918(4) 0.4669(3)
H9_7 H 0.138346 0.333779 0.457653
C12_6 C 0.0179(5) 0.3046(4) 0.5221(3)
H10_6 H 0.022238 0.355009 0.548508
H6_8 H 0.889746 0.048478 0.188771
C7_7 C 0.8584(3) 0.2580(3) 0.5951(2)
C8_7 C 0.9430(3) 0.2441(3) 0.5386(2)
C9_7 C 0.9450(5) 0.1701(3) 0.5004(3)
H7_7 H 0.899117 0.124790 0.511852
Cd1_4 Cd 0.81484(2) 0.71502(2) 0.18163(2)
O1_8 O 0.8564(3) 0.57003(19) 0.19079(17)
O2_8 O 0.9830(3) 0.64866(17) 0.23890(19)
O5_8 O 0.7042(3) 0.7020(2) 0.2805(2)
H1_8 H 0.636428 0.673664 0.272130
H2_8 H 0.732088 0.665106 0.316790
N2_8 N 0.9158(3) 0.7227(2) 0.0742(2)
C1_8 C 0.9442(3) 0.5779(2) 0.2227(2)
C3_7 C 0.9757(4) 0.4188(3) 0.2117(3)
H3_7 H 0.920965 0.416181 0.178133
C10_8 C 0.9842(5) 0.6627(3) 0.0557(3)
H8_8 H 0.985366 0.612085 0.081946
C11_8 C 0.9133(5) 0.7918(4) 0.0331(3)
H9_8 H 0.861654 0.833779 0.042347
O6_4 O 0.6905(2) 0.8064(2) 0.11802(18)
O7_4 O 0.6616(3) 0.6668(2) 0.11356(19)
N3_4 N 0.8896(3) 0.8449(2) 0.22128(18)
C7_8 C 0.6416(3) 0.7420(3) 0.0951(2)
C8_8 C 0.5570(3) 0.7559(3) 0.0386(2)
C9_8 C 0.5550(5) 0.8299(3) 0.0004(3)
H7_8 H 0.600883 0.875210 0.011852
C12_7 C 0.4821(5) 0.6954(4) 0.0221(3)
H10_7 H 0.477762 0.644991 0.048508
C2_8 C 0.9962(3) 0.9968(2) 0.2579(2)
C4_8 C 0.9704(4) 0.8452(3) 0.2684(3)
H4_8 H 0.991075 0.793193 0.288627
C5_8 C 0.8608(4) 0.9206(3) 0.1938(2)
H5_8 H 0.803431 0.921857 0.162135
C6_8 C 0.9118(4) 0.9973(3) 0.2099(2)
C12_8 C 0.9821(5) 0.8046(4) 0.9779(3)
H10_8 H 0.977762 0.855009 0.951492
C3_8 C 0.0243(4) 0.9188(3) 0.2883(3)
H3_8 H 0.079035 0.916181 0.321867
loop_
_geom_bond_atom_site_label_1
_geom_bond_atom_site_label_2
_geom_bond_site_symmetry_1
_geom_bond_site_symmetry_2
Cd1 O1 1_555 1_555
O1 C1 1_555 1_555
O2 Cd1 1_555 1_555
O3 C7 1_555 1_555
O4 C7 1_555 1_555
O5 Cd1 1_555 1_555
H1 O5 1_555 1_555
H2 O5 1_555 1_555
N1 C4 1_555 1_555
N2 Cd1 1_555 1_555
C1 O2 1_555 1_555
C2 C1 1_555 1_555
C3 C2 1_555 1_555
H3 C3 1_555 1_555
C4 C3 1_555 1_555
H4 C4 1_555 1_555
C5 N1 1_555 1_555
H5 C5 1_555 1_555
C6 C2 1_555 1_555
H6 C6 1_555 1_555
C7 C8 1_555 1_555
C8 C9 1_555 1_555
C9 H7 1_555 1_555
C10 N2 1_555 1_555
H8 C10 1_555 1_555
C11 N2 1_555 1_555
H9 C11 1_555 1_555
C12 C8 1_555 1_555
H10 C12 1_555 1_555
Cd2 N1 1_555 1_555
Cd3 O3 1_555 1_555
O6 Cd1 1_555 1_555
O7 Cd1 1_555 1_555
N3 Cd1 1_555 1_555
O4 Cd3 1_555 1_555
C5 C6 1_555 1_555
C9 C10 1_555 1_555
C11 C12 1_555 1_555
O3_2 C7_2 1_555 1_555
O4_2 C7_2 1_555 1_555
C7_2 C8_2 1_555 1_555
C8_2 C9_2 1_555 1_555
C9_2 H7_2 1_555 1_555
Cd2 O3_2 1_555 1_555
O4_2 Cd2 1_555 1_555
N1_2 C4_2 1_555 1_555
H4_2 C4_2 1_555 1_555
C5_2 N1_2 1_555 1_555
H5_2 C5_2 1_555 1_555
C6_2 C2_2 1_555 1_555
H6_2 C6_2 1_555 1_555
Cd3 N1_2 1_555 1_555
C5_2 C6_2 1_555 1_555
Cd2 O1_2 1_555 1_555
O1_2 C1_2 1_555 1_555
O2_2 Cd2 1_555 1_555
O5_2 Cd2 1_555 1_555
H1_2 O5_2 1_555 1_555
H2_2 O5_2 1_555 1_555
N2_2 Cd2 1_555 1_555
C1_2 O2_2 1_555 1_555
C10_2 N2_2 1_555 1_555
H8_2 C10_2 1_555 1_555
C11_2 N2_2 1_555 1_555
H9_2 C11_2 1_555 1_555
N3 C4_3 1_555 1_555
C3_2 C2_3 1_555 1_555
H3_2 C3_2 1_555 1_555
C4_3 C3_2 1_555 1_555
H4_3 C4_3 1_555 1_555
C5_3 N3 1_555 1_555
H5_3 C5_3 1_555 1_555
C6_3 C2_3 1_555 1_555
C5_3 C6_3 1_555 1_555
O6 C7_3 1_555 1_555
O7 C7_3 1_555 1_555
C7_3 C8_3 1_555 1_555
C8_3 C9_3 1_555 1_555
C9_3 H7_3 1_555 1_555
Cd3 O1_3 1_555 1_555
O1_3 C1_3 1_555 1_555
O2_3 Cd3 1_555 1_555
O5_3 Cd3 1_555 1_555
H1_3 O5_3 1_555 1_555
H2_3 O5_3 1_555 1_555
N2_3 Cd3 1_555 1_555
C1_3 O2_3 1_555 1_555
C10_3 N2_3 1_555 1_555
H8_3 C10_3 1_555 1_555
C11_3 N2_3 1_555 1_555
H9_3 C11_3 1_555 1_555
H10_2 C12_2 1_555 1_555
C11_3 C12_2 1_555 1_555
H10_3 C12_3 1_555 1_555
Cd1_2 O1_4 1_555 1_555
O1_4 C1_4 1_555 1_555
O2_4 Cd1_2 1_555 1_555
O5_4 Cd1_2 1_555 1_555
H1_4 O5_4 1_555 1_555
H2_4 O5_4 1_555 1_555
N2_4 Cd1_2 1_555 1_555
C1_4 O2_4 1_555 1_555
H3_3 C3_3 1_555 1_555
C10_4 N2_4 1_555 1_555
H8_4 C10_4 1_555 1_555
C11_4 N2_4 1_555 1_555
H9_4 C11_4 1_555 1_555
O6_2 Cd1_2 1_555 1_555
O7_2 Cd1_2 1_555 1_555
N3_2 Cd1_2 1_555 1_555
O6_2 C7_4 1_555 1_555
O7_2 C7_4 1_555 1_555
C7_4 C8_4 1_555 1_555
C8_4 C9_4 1_555 1_555
C9_4 H7_4 1_555 1_555
C12_4 C8_4 1_555 1_555
H10_4 C12_4 1_555 1_555
N3_2 C4_4 1_555 1_555
H4_4 C4_4 1_555 1_555
C5_4 N3_2 1_555 1_555
H5_4 C5_4 1_555 1_555
C6_4 C2_4 1_555 1_555
C5_4 C6_4 1_555 1_555
H3_4 C3_4 1_555 1_555
Cd1_3 O1_5 1_555 1_555
O1_5 C1_5 1_555 1_555
O2_5 Cd1_3 1_555 1_555
O3_3 C7_5 1_555 1_555
O4_3 C7_5 1_555 1_555
O5_5 Cd1_3 1_555 1_555
H1_5 O5_5 1_555 1_555
H2_5 O5_5 1_555 1_555
N1_3 C4_5 1_555 1_555
N2_5 Cd1_3 1_555 1_555
C1_5 O2_5 1_555 1_555
C2_5 C1_5 1_555 1_555
C3_5 C2_5 1_555 1_555
H3_5 C3_5 1_555 1_555
C4_5 C3_5 1_555 1_555
H4_5 C4_5 1_555 1_555
C5_5 N1_3 1_555 1_555
H5_5 C5_5 1_555 1_555
C6_5 C2_5 1_555 1_555
H6_5 C6_5 1_555 1_555
C7_5 C8_5 1_555 1_555
C8_5 C9_5 1_555 1_555
C9_5 H7_5 1_555 1_555
C10_5 N2_5 1_555 1_555
H8_5 C10_5 1_555 1_555
C11_5 N2_5 1_555 1_555
H9_5 C11_5 1_555 1_555
C12_5 C8_5 1_555 1_555
H10_5 C12_5 1_555 1_555
Cd2_2 N1_3 1_555 1_555
Cd3_2 O3_3 1_555 1_555
O6_3 Cd1_3 1_555 1_555
O7_3 Cd1_3 1_555 1_555
N3_3 Cd1_3 1_555 1_555
O4_3 Cd3_2 1_555 1_555
C5_5 C6_5 1_555 1_555
C9_5 C10_5 1_555 1_555
C11_5 C12_5 1_555 1_555
N1_4 C4_6 1_555 1_555
H4_6 C4_6 1_555 1_555
C5_6 N1_4 1_555 1_555
H5_6 C5_6 1_555 1_555
C6_6 C2_6 1_555 1_555
H6_6 C6_6 1_555 1_555
Cd3_2 N1_4 1_555 1_555
C5_6 C6_6 1_555 1_555
O3_4 C7_6 1_555 1_555
O4_4 C7_6 1_555 1_555
C7_6 C8_6 1_555 1_555
C8_6 C9_6 1_555 1_555
C9_6 H7_6 1_555 1_555
Cd2_2 O3_4 1_555 1_555
O4_4 Cd2_2 1_555 1_555
N3_3 C4_7 1_555 1_555
C3_6 C2_7 1_555 1_555
H3_6 C3_6 1_555 1_555
C4_7 C3_6 1_555 1_555
H4_7 C4_7 1_555 1_555
C5_7 N3_3 1_555 1_555
H5_7 C5_7 1_555 1_555
C6_7 C2_7 1_555 1_555
C5_7 C6_7 1_555 1_555
Cd2_2 O1_6 1_555 1_555
O1_6 C1_6 1_555 1_555
O2_6 Cd2_2 1_555 1_555
O5_6 Cd2_2 1_555 1_555
H1_6 O5_6 1_555 1_555
H2_6 O5_6 1_555 1_555
N2_6 Cd2_2 1_555 1_555
C1_6 O2_6 1_555 1_555
C10_6 N2_6 1_555 1_555
H8_6 C10_6 1_555 1_555
C11_6 N2_6 1_555 1_555
H9_6 C11_6 1_555 1_555
Cd3_2 O1_7 1_555 1_555
O1_7 C1_7 1_555 1_555
O2_7 Cd3_2 1_555 1_555
O5_7 Cd3_2 1_555 1_555
H1_7 O5_7 1_555 1_555
H2_7 O5_7 1_555 1_555
N2_7 Cd3_2 1_555 1_555
C1_7 O2_7 1_555 1_555
C10_7 N2_7 1_555 1_555
H8_7 C10_7 1_555 1_555
C11_7 N2_7 1_555 1_555
H9_7 C11_7 1_555 1_555
H10_6 C12_6 1_555 1_555
C11_7 C12_6 1_555 1_555
O6_3 C7_7 1_555 1_555
O7_3 C7_7 1_555 1_555
C7_7 C8_7 1_555 1_555
C8_7 C9_7 1_555 1_555
C9_7 H7_7 1_555 1_555
Cd1_4 O1_8 1_555 1_555
O1_8 C1_8 1_555 1_555
O2_8 Cd1_4 1_555 1_555
O5_8 Cd1_4 1_555 1_555
H1_8 O5_8 1_555 1_555
H2_8 O5_8 1_555 1_555
N2_8 Cd1_4 1_555 1_555
C1_8 O2_8 1_555 1_555
H3_7 C3_7 1_555 1_555
C10_8 N2_8 1_555 1_555
H8_8 C10_8 1_555 1_555
C11_8 N2_8 1_555 1_555
H9_8 C11_8 1_555 1_555
O6_4 Cd1_4 1_555 1_555
O7_4 Cd1_4 1_555 1_555
N3_4 Cd1_4 1_555 1_555
O6_4 C7_8 1_555 1_555
O7_4 C7_8 1_555 1_555
C7_8 C8_8 1_555 1_555
C8_8 C9_8 1_555 1_555
C9_8 H7_8 1_555 1_555
C12_7 C8_8 1_555 1_555
H10_7 C12_7 1_555 1_555
N3_4 C4_8 1_555 1_555
H4_8 C4_8 1_555 1_555
C5_8 N3_4 1_555 1_555
H5_8 C5_8 1_555 1_555
C6_8 C2_8 1_555 1_555
C5_8 C6_8 1_555 1_555
H10_8 C12_8 1_555 1_555
H3_8 C3_8 1_555 1_555

#END
