
###############################################################################
#
# This file contains modified crystal structure data generated from the
# MOF subset of the Cambridge Structural Database (CSD) v543 
# hosted by the Cambridge Crystallographic Data Centre (CCDC).
#
# This work is licensed under the Creative Commons
# Attribution-NonCommercial-ShareAlike 4.0 International License.
# To view a copy of this license, visit
# http://creativecommons.org/licenses/by-nc-sa/4.0/
# or send a letter to
# Creative Commons, PO Box 1866, Mountain View, CA 94042, USA.
#
# CIF created using the CSD Python API on 29 September 2022
# The structure has been converted into the P1 space group
# The structure has a 3D framework
# The original CSD entry FIZXAQ is in the monoclinic crystal system
# The framework has been calculated to contain at least 10.0% void space
# The void calculation uses a probe of radius 1.32A, grid spacing 0.4
#
###############################################################################

data_FIZXAQ
_chemical_formula_moiety         '(C112 H80 N8 O16 Zn4)n'
_symmetry_cell_setting           triclinic
_symmetry_space_group_name_H-M   'P 1'
_symmetry_Int_Tables_number      1
_space_group_name_Hall           'P 1'
loop_
_symmetry_equiv_pos_site_id
_symmetry_equiv_pos_as_xyz
1 x,y,z
_cell_length_a                   13.3530(2)
_cell_length_b                   25.7746(4)
_cell_length_c                   8.40580(10)
_cell_angle_alpha                90
_cell_angle_beta                 99.7450(10)
_cell_angle_gamma                90
_cell_volume                     2851.27
loop_
_atom_site_label
_atom_site_type_symbol
_atom_site_fract_x
_atom_site_fract_y
_atom_site_fract_z
N1 N 0.1653(3) 0.55325(14) 0.7013(4)
C11 C 0.0768(3) 0.48359(17) 0.8029(5)
H7 H 0.077662 0.449417 0.838654
C12 C 0.1622(3) 0.50478(16) 0.7540(5)
H8 H 0.219735 0.484142 0.758202
C13 C 0.0811(4) 0.58215(17) 0.6945(6)
H9 H 0.081829 0.615996 0.656351
Zn2 Zn 0.29057(4) 0.59239(2) 0.64022(5)
O1 O 0.3834(2) 0.53048(13) 0.5935(4)
O2 O 0.4497(3) 0.60766(12) 0.5987(4)
O3 O 0.2241(3) 0.62044(15) 0.4310(4)
O4 O 0.1940(4) 0.68933(16) 0.5682(4)
C1 C 0.4555(3) 0.56014(18) 0.5761(5)
C2 C 0.5500(3) 0.53882(17) 0.5259(5)
C3 C 0.6269(4) 0.57267(19) 0.5028(7)
H1 H 0.619669 0.607983 0.520671
C4 C 0.7140(4) 0.55455(18) 0.4537(7)
H2 H 0.764624 0.577947 0.438977
C5 C 0.7276(4) 0.50200(19) 0.4257(6)
C6 C 0.6503(4) 0.4691(2) 0.4480(7)
H3 H 0.656985 0.433800 0.428992
C7 C 0.5611(4) 0.4870(2) 0.4988(7)
H4 H 0.510159 0.463819 0.513741
C8 C 0.8183(4) 0.4820(2) 0.3721(6)
H5 H 0.818350 0.446753 0.348620
C9 C 0.8986(4) 0.50743(19) 0.3534(6)
H6 H 0.898941 0.542692 0.376903
C10 C 0.9904(3) 0.48656(17) 0.2983(5)
C14 C 0.9935(4) 0.43606(17) 0.2415(6)
H10 H 0.936869 0.414686 0.235272
C15 C 0.1925(4) 0.6658(2) 0.4403(6)
C16 C 0.1447(3) 0.69090(19) 0.2833(6)
C17 C 0.1014(4) 0.74005(18) 0.2828(5)
H11 H 0.102989 0.757584 0.379859
C18 C 0.0561(4) 0.76329(17) 0.1400(5)
H12 H 0.028250 0.796279 0.142731
C21 C 0.1403(4) 0.6658(2) 0.1380(6)
H14 H 0.167027 0.632542 0.135779
N4 N 0.3348(3) 0.62712(13) 0.8619(4)
C26 C 0.3475(3) 0.60047(16) 0.9994(5)
H18 H 0.328288 0.565747 0.995376
C27 C 0.3627(4) 0.67748(19) 0.8718(6)
H19 H 0.355050 0.697184 0.777846
Zn1 Zn 0.29057(4) 0.40761(2) 0.14022(5)
O1_2 O 0.3834(2) 0.46952(13) 0.0935(4)
O2_2 O 0.4497(3) 0.39234(12) 0.0987(4)
O4_2 O 0.1940(4) 0.31067(16) 0.0682(4)
C1_2 C 0.4555(3) 0.43986(18) 0.0761(5)
C2_2 C 0.5500(3) 0.46118(17) 0.0259(5)
C3_2 C 0.6269(4) 0.42733(19) 0.0028(7)
H1_2 H 0.619669 0.392017 0.020671
H4_2 H 0.510159 0.536181 0.013741
N3 N 0.1653(3) 0.44675(14) 0.2013(4)
N4_2 N 0.3348(3) 0.37288(13) 0.3619(4)
C11_2 C 0.0768(3) 0.51641(17) 0.3029(5)
H7_2 H 0.077662 0.550583 0.338654
C12_2 C 0.1622(3) 0.49522(16) 0.2540(5)
H8_2 H 0.219735 0.515858 0.258202
C13_2 C 0.0811(4) 0.41785(17) 0.1945(6)
H9_2 H 0.081829 0.384004 0.156351
C19 C 0.5516(4) 0.23829(18) 0.9936(6)
C20 C 0.5964(5) 0.1895(2) 0.9940(6)
H13 H 0.597056 0.172428 0.896636
C22 C 0.5051(4) 0.2599(2) 0.8370(6)
H15 H 0.507304 0.239782 0.745826
C23 C 0.4606(4) 0.3055(2) 0.8155(6)
H16 H 0.456720 0.325189 0.906920
C24 C 0.4162(4) 0.32784(19) 0.6574(6)
C25 C 0.3871(3) 0.37878(17) 0.6465(5)
H17 H 0.394249 0.399262 0.738787
C26_2 C 0.3475(3) 0.39953(16) 0.4994(5)
H18_2 H 0.328288 0.434253 0.495376
C27_2 C 0.3627(4) 0.32252(19) 0.3718(6)
H19_2 H 0.355050 0.302816 0.277846
C28 C 0.4017(5) 0.2996(2) 0.5150(6)
H20 H 0.418764 0.264572 0.517257
O3_2 O 0.2241(3) 0.37956(15) 0.9310(4)
C4_2 C 0.7140(4) 0.44545(18) 0.9537(7)
H2_2 H 0.764624 0.422053 0.938977
C5_2 C 0.7276(4) 0.49800(19) 0.9257(6)
C6_2 C 0.6503(4) 0.5309(2) 0.9480(7)
H3_2 H 0.656985 0.566200 0.928992
C7_2 C 0.5611(4) 0.5130(2) 0.9988(7)
C8_2 C 0.8183(4) 0.5180(2) 0.8721(6)
H5_2 H 0.818350 0.553247 0.848620
C9_2 C 0.8986(4) 0.49257(19) 0.8534(6)
H6_2 H 0.898941 0.457308 0.876903
C10_2 C 0.9904(3) 0.51344(17) 0.7983(5)
C14_2 C 0.9935(4) 0.56394(17) 0.7415(6)
H10_2 H 0.936869 0.585314 0.735272
C15_2 C 0.1925(4) 0.3342(2) 0.9403(6)
C16_2 C 0.1447(3) 0.30910(19) 0.7833(6)
C17_2 C 0.1014(4) 0.25995(18) 0.7828(5)
H11_2 H 0.102989 0.242416 0.879859
C18_2 C 0.0561(4) 0.23671(17) 0.6400(5)
H12_2 H 0.028250 0.203721 0.642731
C19_2 C 0.0516(4) 0.26171(18) 0.4936(6)
C20_2 C 0.0964(5) 0.3105(2) 0.4940(6)
H13_2 H 0.097056 0.327572 0.396636
C21_2 C 0.1403(4) 0.3342(2) 0.6380(6)
H14_2 H 0.167027 0.367458 0.635779
C22_2 C 0.0051(4) 0.2401(2) 0.3370(6)
H15_2 H 0.007304 0.260218 0.245826
C23_2 C 0.9606(4) 0.1945(2) 0.3155(6)
H16_2 H 0.956720 0.174811 0.406920
C24_2 C 0.9162(4) 0.17216(19) 0.1574(6)
C25_2 C 0.8871(3) 0.12122(17) 0.1465(5)
H17_2 H 0.894249 0.100738 0.238787
C28_2 C 0.9017(5) 0.2004(2) 0.0150(6)
H20_2 H 0.918764 0.235428 0.017257
N2 N 0.8348(3) 0.12712(13) 0.8619(4)
C26_3 C 0.8475(3) 0.10047(16) 0.9994(5)
H18_3 H 0.828288 0.065747 0.995376
C27_3 C 0.8627(4) 0.17748(19) 0.8718(6)
H19_3 H 0.855050 0.197184 0.777846
Zn3 Zn 0.79057(4) 0.09239(2) 0.64022(5)
N1_2 N 0.6653(3) 0.05325(14) 0.7013(4)
C6_3 C 0.1503(4) 0.0309(2) 0.9480(7)
H3_3 H 0.156985 0.066200 0.928992
C7_3 C 0.0611(4) 0.0130(2) 0.9988(7)
C8_3 C 0.3183(4) 0.0180(2) 0.8721(6)
H5_3 H 0.318350 0.053247 0.848620
C10_3 C 0.4904(3) 0.01344(17) 0.7983(5)
C12_3 C 0.6622(3) 0.00478(16) 0.7540(5)
C13_3 C 0.5811(4) 0.08215(17) 0.6945(6)
H9_3 H 0.581829 0.115996 0.656351
C14_3 C 0.4935(4) 0.06394(17) 0.7415(6)
H10_3 H 0.436869 0.085314 0.735272
O1_3 O 0.8834(2) 0.03048(13) 0.5935(4)
O2_3 O 0.9497(3) 0.10766(12) 0.5987(4)
O3_3 O 0.7241(3) 0.12044(15) 0.4310(4)
O4_3 O 0.6940(4) 0.18933(16) 0.5682(4)
C1_3 C 0.9555(3) 0.06014(18) 0.5761(5)
C15_3 C 0.6925(4) 0.1658(2) 0.4403(6)
C16_3 C 0.6447(3) 0.19090(19) 0.2833(6)
C17_3 C 0.6014(4) 0.24005(18) 0.2828(5)
H11_3 H 0.602989 0.257584 0.379859
C18_3 C 0.5561(4) 0.26329(17) 0.1400(5)
H12_3 H 0.528250 0.296279 0.142731
C21_3 C 0.6403(4) 0.1658(2) 0.1380(6)
H14_3 H 0.667027 0.132542 0.135779
C19_3 C 0.0516(4) 0.73829(18) 0.9936(6)
C20_3 C 0.0964(5) 0.6895(2) 0.9940(6)
H13_3 H 0.097056 0.672428 0.896636
C22_3 C 0.0051(4) 0.7599(2) 0.8370(6)
H15_3 H 0.007304 0.739782 0.745826
N2_2 N 0.8348(3) 0.87288(13) 0.3619(4)
C23_3 C 0.9606(4) 0.8055(2) 0.8155(6)
H16_3 H 0.956720 0.825189 0.906920
C24_3 C 0.9162(4) 0.82784(19) 0.6574(6)
C25_3 C 0.8871(3) 0.87878(17) 0.6465(5)
H17_3 H 0.894249 0.899262 0.738787
C26_4 C 0.8475(3) 0.89953(16) 0.4994(5)
H18_4 H 0.828288 0.934253 0.495376
C27_4 C 0.8627(4) 0.82252(19) 0.3718(6)
H19_4 H 0.855050 0.802816 0.277846
C28_3 C 0.9017(5) 0.7996(2) 0.5150(6)
H20_3 H 0.918764 0.764572 0.517257
Zn3_2 Zn 0.79057(4) 0.90761(2) 0.14022(5)
O1_4 O 0.8834(2) 0.96952(13) 0.0935(4)
O2_4 O 0.9497(3) 0.89234(12) 0.0987(4)
O4_4 O 0.6940(4) 0.81067(16) 0.0682(4)
C1_4 C 0.9555(3) 0.93986(18) 0.0761(5)
N3_2 N 0.6653(3) 0.94675(14) 0.2013(4)
C6_4 C 0.1503(4) 0.9691(2) 0.4480(7)
H3_4 H 0.156985 0.933800 0.428992
C7_4 C 0.0611(4) 0.9870(2) 0.4988(7)
H4_3 H 0.010159 0.963819 0.513741
C8_4 C 0.3183(4) 0.9820(2) 0.3721(6)
H5_4 H 0.318350 0.946753 0.348620
C10_4 C 0.4904(3) 0.98656(17) 0.2983(5)
C12_4 C 0.6622(3) 0.99522(16) 0.2540(5)
C13_4 C 0.5811(4) 0.91785(17) 0.1945(6)
H9_4 H 0.581829 0.884004 0.156351
C14_4 C 0.4935(4) 0.93606(17) 0.2415(6)
H10_4 H 0.436869 0.914686 0.235272
H4_4 H 0.010159 0.036181 0.013741
C2_3 C 0.0500(3) 0.96118(17) 0.0259(5)
C3_3 C 0.1269(4) 0.92733(19) 0.0028(7)
H1_3 H 0.119669 0.892017 0.020671
C4_3 C 0.2140(4) 0.94545(18) 0.9537(7)
H2_3 H 0.264624 0.922053 0.938977
C5_3 C 0.2276(4) 0.99800(19) 0.9257(6)
C9_3 C 0.3986(4) 0.99257(19) 0.8534(6)
H6_3 H 0.398941 0.957308 0.876903
C11_3 C 0.5768(3) 0.98359(17) 0.8029(5)
H7_3 H 0.577662 0.949417 0.838654
H8_3 H 0.719735 0.984142 0.758202
O3_4 O 0.7241(3) 0.87956(15) 0.9310(4)
C15_4 C 0.6925(4) 0.8342(2) 0.9403(6)
C16_4 C 0.6447(3) 0.80910(19) 0.7833(6)
C17_4 C 0.6014(4) 0.75995(18) 0.7828(5)
H11_4 H 0.602989 0.742416 0.879859
C18_4 C 0.5561(4) 0.73671(17) 0.6400(5)
H12_4 H 0.528250 0.703721 0.642731
C19_4 C 0.5516(4) 0.76171(18) 0.4936(6)
C20_4 C 0.5964(5) 0.8105(2) 0.4940(6)
H13_4 H 0.597056 0.827572 0.396636
C21_4 C 0.6403(4) 0.8342(2) 0.6380(6)
H14_4 H 0.667027 0.867458 0.635779
C22_4 C 0.5051(4) 0.7401(2) 0.3370(6)
H15_4 H 0.507304 0.760218 0.245826
C23_4 C 0.4606(4) 0.6945(2) 0.3155(6)
H16_4 H 0.456720 0.674811 0.406920
C24_4 C 0.4162(4) 0.67216(19) 0.1574(6)
C25_4 C 0.3871(3) 0.62122(17) 0.1465(5)
H17_4 H 0.394249 0.600738 0.238787
C28_4 C 0.4017(5) 0.7004(2) 0.0150(6)
H20_4 H 0.418764 0.735428 0.017257
C2_4 C 0.0500(3) 0.03882(17) 0.5259(5)
C3_4 C 0.1269(4) 0.07267(19) 0.5028(7)
H1_4 H 0.119669 0.107983 0.520671
C4_4 C 0.2140(4) 0.05455(18) 0.4537(7)
H2_4 H 0.264624 0.077947 0.438977
C5_4 C 0.2276(4) 0.00200(19) 0.4257(6)
C9_4 C 0.3986(4) 0.00743(19) 0.3534(6)
H6_4 H 0.398941 0.042692 0.376903
C11_4 C 0.5768(3) 0.01641(17) 0.3029(5)
H7_4 H 0.577662 0.050583 0.338654
H8_4 H 0.719735 0.015858 0.258202
loop_
_geom_bond_atom_site_label_1
_geom_bond_atom_site_label_2
_geom_bond_site_symmetry_1
_geom_bond_site_symmetry_2
N1 C12 1_555 1_555
H7 C11 1_555 1_555
C12 C11 1_555 1_555
H8 C12 1_555 1_555
C13 N1 1_555 1_555
H9 C13 1_555 1_555
Zn2 N1 1_555 1_555
Zn2 O1 1_555 1_555
O1 C1 1_555 1_555
O2 Zn2 1_555 1_555
O3 Zn2 1_555 1_555
O4 C15 1_555 1_555
C1 O2 1_555 1_555
C2 C1 1_555 1_555
C3 C2 1_555 1_555
H1 C3 1_555 1_555
C4 C3 1_555 1_555
H2 C4 1_555 1_555
C5 C4 1_555 1_555
C6 C5 1_555 1_555
H3 C6 1_555 1_555
C7 C2 1_555 1_555
H4 C7 1_555 1_555
C8 C5 1_555 1_555
H5 C8 1_555 1_555
C9 C8 1_555 1_555
H6 C9 1_555 1_555
C10 C9 1_555 1_555
C14 C10 1_555 1_555
H10 C14 1_555 1_555
C15 O3 1_555 1_555
C16 C15 1_555 1_555
C17 C16 1_555 1_555
H11 C17 1_555 1_555
C18 C17 1_555 1_555
H12 C18 1_555 1_555
C21 C16 1_555 1_555
H14 C21 1_555 1_555
N4 Zn2 1_555 1_555
C6 C7 1_555 1_555
N4 C26 1_555 1_555
H18 C26 1_555 1_555
C27 N4 1_555 1_555
H19 C27 1_555 1_555
Zn1 O1_2 1_555 1_555
O1_2 C1_2 1_555 1_555
O2_2 Zn1 1_555 1_555
C1_2 O2_2 1_555 1_555
C2_2 C1_2 1_555 1_555
C3_2 C2_2 1_555 1_555
H1_2 C3_2 1_555 1_555
N3 Zn1 1_555 1_555
N4_2 Zn1 1_555 1_555
N3 C12_2 1_555 1_555
H7_2 C11_2 1_555 1_555
C12_2 C11_2 1_555 1_555
H8_2 C12_2 1_555 1_555
C13_2 N3 1_555 1_555
H9_2 C13_2 1_555 1_555
N4_2 C26_2 1_555 1_555
C20 C19 1_555 1_555
H13 C20 1_555 1_555
C22 C19 1_555 1_555
H15 C22 1_555 1_555
C23 C22 1_555 1_555
H16 C23 1_555 1_555
C24 C23 1_555 1_555
C25 C24 1_555 1_555
H17 C25 1_555 1_555
C26_2 C25 1_555 1_555
H18_2 C26_2 1_555 1_555
C27_2 N4_2 1_555 1_555
H19_2 C27_2 1_555 1_555
C28 C24 1_555 1_555
H20 C28 1_555 1_555
C27_2 C28 1_555 1_555
H2_2 C4_2 1_555 1_555
C5_2 C4_2 1_555 1_555
C6_2 C5_2 1_555 1_555
H3_2 C6_2 1_555 1_555
C8_2 C5_2 1_555 1_555
H5_2 C8_2 1_555 1_555
C9_2 C8_2 1_555 1_555
H6_2 C9_2 1_555 1_555
C10_2 C9_2 1_555 1_555
C14_2 C10_2 1_555 1_555
H10_2 C14_2 1_555 1_555
C15_2 O3_2 1_555 1_555
C16_2 C15_2 1_555 1_555
C17_2 C16_2 1_555 1_555
H11_2 C17_2 1_555 1_555
C18_2 C17_2 1_555 1_555
H12_2 C18_2 1_555 1_555
C19_2 C18_2 1_555 1_555
C20_2 C19_2 1_555 1_555
H13_2 C20_2 1_555 1_555
C21_2 C16_2 1_555 1_555
H14_2 C21_2 1_555 1_555
C22_2 C19_2 1_555 1_555
H15_2 C22_2 1_555 1_555
C6_2 C7_2 1_555 1_555
C20_2 C21_2 1_555 1_555
H16_2 C23_2 1_555 1_555
C24_2 C23_2 1_555 1_555
C25_2 C24_2 1_555 1_555
H17_2 C25_2 1_555 1_555
C28_2 C24_2 1_555 1_555
H20_2 C28_2 1_555 1_555
N2 C26_3 1_555 1_555
H18_3 C26_3 1_555 1_555
C27_3 N2 1_555 1_555
H19_3 C27_3 1_555 1_555
Zn3 N2 1_555 1_555
N1_2 C12_3 1_555 1_555
H3_3 C6_3 1_555 1_555
H5_3 C8_3 1_555 1_555
C13_3 N1_2 1_555 1_555
H9_3 C13_3 1_555 1_555
C14_3 C10_3 1_555 1_555
H10_3 C14_3 1_555 1_555
Zn3 N1_2 1_555 1_555
C6_3 C7_3 1_555 1_555
C13_3 C14_3 1_555 1_555
Zn3 O1_3 1_555 1_555
O1_3 C1_3 1_555 1_555
O2_3 Zn3 1_555 1_555
O3_3 Zn3 1_555 1_555
O4_3 C15_3 1_555 1_555
C1_3 O2_3 1_555 1_555
C15_3 O3_3 1_555 1_555
C16_3 C15_3 1_555 1_555
C17_3 C16_3 1_555 1_555
H11_3 C17_3 1_555 1_555
C18_3 C17_3 1_555 1_555
H12_3 C18_3 1_555 1_555
C21_3 C16_3 1_555 1_555
H14_3 C21_3 1_555 1_555
C20_3 C19_3 1_555 1_555
H13_3 C20_3 1_555 1_555
C22_3 C19_3 1_555 1_555
H15_3 C22_3 1_555 1_555
N2_2 C26_4 1_555 1_555
H16_3 C23_3 1_555 1_555
C24_3 C23_3 1_555 1_555
C25_3 C24_3 1_555 1_555
H17_3 C25_3 1_555 1_555
C26_4 C25_3 1_555 1_555
H18_4 C26_4 1_555 1_555
C27_4 N2_2 1_555 1_555
H19_4 C27_4 1_555 1_555
C28_3 C24_3 1_555 1_555
H20_3 C28_3 1_555 1_555
Zn3_2 N2_2 1_555 1_555
C27_4 C28_3 1_555 1_555
Zn3_2 O1_4 1_555 1_555
O1_4 C1_4 1_555 1_555
O2_4 Zn3_2 1_555 1_555
C1_4 O2_4 1_555 1_555
N3_2 Zn3_2 1_555 1_555
N3_2 C12_4 1_555 1_555
H3_4 C6_4 1_555 1_555
H4_3 C7_4 1_555 1_555
H5_4 C8_4 1_555 1_555
C13_4 N3_2 1_555 1_555
H9_4 C13_4 1_555 1_555
C14_4 C10_4 1_555 1_555
H10_4 C14_4 1_555 1_555
C6_4 C7_4 1_555 1_555
C13_4 C14_4 1_555 1_555
C3_3 C2_3 1_555 1_555
H1_3 C3_3 1_555 1_555
H2_3 C4_3 1_555 1_555
C5_3 C4_3 1_555 1_555
H6_3 C9_3 1_555 1_555
H7_3 C11_3 1_555 1_555
C15_4 O3_4 1_555 1_555
C16_4 C15_4 1_555 1_555
C17_4 C16_4 1_555 1_555
H11_4 C17_4 1_555 1_555
C18_4 C17_4 1_555 1_555
H12_4 C18_4 1_555 1_555
C19_4 C18_4 1_555 1_555
C20_4 C19_4 1_555 1_555
H13_4 C20_4 1_555 1_555
C21_4 C16_4 1_555 1_555
H14_4 C21_4 1_555 1_555
C22_4 C19_4 1_555 1_555
H15_4 C22_4 1_555 1_555
C23_4 C22_4 1_555 1_555
H16_4 C23_4 1_555 1_555
C24_4 C23_4 1_555 1_555
C25_4 C24_4 1_555 1_555
H17_4 C25_4 1_555 1_555
C28_4 C24_4 1_555 1_555
H20_4 C28_4 1_555 1_555
C20_4 C21_4 1_555 1_555
C3_4 C2_4 1_555 1_555
H1_4 C3_4 1_555 1_555
C4_4 C3_4 1_555 1_555
H2_4 C4_4 1_555 1_555
C5_4 C4_4 1_555 1_555
H6_4 C9_4 1_555 1_555
H7_4 C11_4 1_555 1_555

#END
