
###############################################################################
#
# This file contains modified crystal structure data generated from the
# MOF subset of the Cambridge Structural Database (CSD) v543 
# hosted by the Cambridge Crystallographic Data Centre (CCDC).
#
# This work is licensed under the Creative Commons
# Attribution-NonCommercial-ShareAlike 4.0 International License.
# To view a copy of this license, visit
# http://creativecommons.org/licenses/by-nc-sa/4.0/
# or send a letter to
# Creative Commons, PO Box 1866, Mountain View, CA 94042, USA.
#
# CIF created using the CSD Python API on 29 September 2022
# The structure has been converted into the P1 space group
# The structure has a 3D framework
# The original CSD entry FIZYAQ is in the monoclinic crystal system
# The framework has been calculated to contain at least 10.0% void space
# The void calculation uses a probe of radius 1.32A, grid spacing 0.4
#
###############################################################################

data_FIZYAQ
_chemical_formula_moiety         '(C80 H64 N32 Ni8 O16 S14)n'
_symmetry_cell_setting           triclinic
_symmetry_space_group_name_H-M   'P 1'
_symmetry_Int_Tables_number      1
_space_group_name_Hall           'P 1'
loop_
_symmetry_equiv_pos_site_id
_symmetry_equiv_pos_as_xyz
1 x,y,z
_cell_length_a                   17.711(4)
_cell_length_b                   13.498(3)
_cell_length_c                   12.670(3)
_cell_angle_alpha                90
_cell_angle_beta                 92.83(3)
_cell_angle_gamma                90
_cell_volume                     3025.24
loop_
_atom_site_label
_atom_site_type_symbol
_atom_site_fract_x
_atom_site_fract_y
_atom_site_fract_z
Ni4 Ni 0.0000 0.5000 -0.0000
Ni4_2 Ni 0.0000 0.5000 1.0000
Ni2 Ni 0.5000 0.0000 -0.0000
Ni1 Ni 0.5000 0.0000 0.5000
S1 S 0.27346(6) 0.32572(8) 0.22265(8)
S2 S 0.5000 0.11645(9) 0.7500
O1 O 0.49927(13) 0.05202(18) 0.65631(18)
O2 O 0.43160(16) 0.1780(2) 0.7467(2)
N1 N 0.45049(17) 0.1310(2) 0.4381(2)
N2 N 0.39389(17) 0.2357(2) 0.3275(2)
N3 N 0.22397(17) 0.3978(2) 0.0315(2)
C1 C 0.4270(2) 0.1460(3) 0.3389(3)
H1 H 0.4324 0.1010 0.2843
C2 C 0.4312(3) 0.2143(3) 0.4924(3)
H2 H 0.4407 0.2241 0.5645
C3 C 0.3963(3) 0.2805(3) 0.4254(3)
H3 H 0.3780 0.3428 0.4421
C4 C 0.3643(2) 0.2768(3) 0.2298(3)
C5 C 0.3982(2) 0.2810(3) 0.1386(3)
H4 H 0.4475 0.2598 0.1299
C6 C 0.3501(2) 0.3219(3) 0.0550(3)
C7 C 0.2824(2) 0.3501(3) 0.0897(3)
C10 C 0.1507(2) 0.4012(3) 0.0556(3)
H8 H 0.1312 0.3713 0.1146
O3 O 0.50073(13) 0.05202(18) 0.84369(18)
O4 O 0.56840(16) 0.1780(2) 0.7533(2)
Ni2_2 Ni 0.5000 0.0000 1.0000
N10 N 0.61007(16) 0.0471(2) 0.4839(2)
N4 N 0.11007(16) 0.4529(2) 0.9839(2)
H5 H 0.3639 0.3282 0.9854
C8 C 0.2299(2) 0.4476(4) 0.9369(3)
H6 H 0.2735 0.4559 0.8997
C9 C 0.1606(2) 0.4816(3) 0.9093(3)
H7 H 0.1482 0.5189 0.8492
N8 N 0.88993(16) 0.5471(2) 0.0161(2)
H13 H 0.6361 0.6718 0.0146
C18 C 0.7701(2) 0.5524(4) 0.0631(3)
H14 H 0.7265 0.5441 0.1003
C19 C 0.8394(2) 0.5184(3) 0.0907(3)
H15 H 0.8518 0.4811 0.1508
Ni2_3 Ni 0.5000 1.0000 -0.0000
Ni4_3 Ni 1.0000 0.5000 -0.0000
Ni1_2 Ni 0.5000 1.0000 0.5000
S3 S 0.72654(6) 0.67428(8) 0.77735(8)
N5 N 0.54951(17) 0.8690(2) 0.5619(2)
N6 N 0.60611(17) 0.7643(2) 0.6725(2)
N7 N 0.77603(17) 0.6022(2) 0.9685(2)
C11 C 0.5730(2) 0.8540(3) 0.6611(3)
H9 H 0.5676 0.8990 0.7157
C12 C 0.5688(3) 0.7857(3) 0.5076(3)
H10 H 0.5593 0.7759 0.4355
C13 C 0.6037(3) 0.7195(3) 0.5746(3)
H11 H 0.6220 0.6572 0.5579
C14 C 0.6357(2) 0.7232(3) 0.7702(3)
C15 C 0.6018(2) 0.7190(3) 0.8614(3)
H12 H 0.5525 0.7402 0.8701
C16 C 0.6499(2) 0.6781(3) 0.9450(3)
C17 C 0.7176(2) 0.6499(3) 0.9103(3)
C20 C 0.8493(2) 0.5988(3) 0.9444(3)
H16 H 0.8688 0.6287 0.8854
Ni2_4 Ni 0.5000 1.0000 1.0000
Ni4_4 Ni 1.0000 0.5000 1.0000
O5 O 0.50073(13) 0.94798(18) 0.34369(18)
N9 N 0.38993(16) 0.9529(2) 0.5161(2)
Ni3 Ni -0.0000 0.5000 0.5000
S1_2 S 0.72654(6) 0.32572(8) 0.27735(8)
N1_2 N 0.54951(17) 0.1310(2) 0.0619(2)
N2_2 N 0.60611(17) 0.2357(2) 0.1725(2)
N3_2 N 0.77603(17) 0.3978(2) 0.4685(2)
N4_2 N 0.88993(16) 0.4529(2) 0.5161(2)
C1_2 C 0.5730(2) 0.1460(3) 0.1611(3)
H1_2 H 0.5676 0.1010 0.2157
C2_2 C 0.5688(3) 0.2143(3) 0.0076(3)
C3_2 C 0.6037(3) 0.2805(3) 0.0746(3)
H3_2 H 0.6220 0.3428 0.0579
C4_2 C 0.6357(2) 0.2768(3) 0.2702(3)
C5_2 C 0.6018(2) 0.2810(3) 0.3614(3)
H4_2 H 0.5525 0.2598 0.3701
C6_2 C 0.6499(2) 0.3219(3) 0.4450(3)
H5_2 H 0.6361 0.3282 0.5146
C7_2 C 0.7176(2) 0.3501(3) 0.4103(3)
C8_2 C 0.7701(2) 0.4476(4) 0.5631(3)
H6_2 H 0.7265 0.4559 0.6003
C9_2 C 0.8394(2) 0.4816(3) 0.5907(3)
H7_2 H 0.8518 0.5189 0.6508
C10_2 C 0.8493(2) 0.4012(3) 0.4444(3)
H8_2 H 0.8688 0.3713 0.3854
Ni3_2 Ni 1.0000 0.5000 0.5000
N10_2 N 0.38993(16) 0.0471(2) 0.0161(2)
H2_2 H 0.5593 0.2241 0.9355
H10_2 H 0.4407 0.7759 0.0645
O5_2 O 0.49927(13) 0.94798(18) 0.15631(18)
S3_2 S 0.27346(6) 0.67428(8) 0.72265(8)
N5_2 N 0.45049(17) 0.8690(2) 0.9381(2)
N6_2 N 0.39389(17) 0.7643(2) 0.8275(2)
N7_2 N 0.22397(17) 0.6022(2) 0.5315(2)
N8_2 N 0.11007(16) 0.5471(2) 0.4839(2)
C11_2 C 0.4270(2) 0.8540(3) 0.8389(3)
H9_2 H 0.4324 0.8990 0.7843
C12_2 C 0.4312(3) 0.7857(3) 0.9924(3)
C13_2 C 0.3963(3) 0.7195(3) 0.9254(3)
H11_2 H 0.3780 0.6572 0.9421
C14_2 C 0.3643(2) 0.7232(3) 0.7298(3)
C15_2 C 0.3982(2) 0.7190(3) 0.6386(3)
H12_2 H 0.4475 0.7402 0.6299
C16_2 C 0.3501(2) 0.6781(3) 0.5550(3)
H13_2 H 0.3639 0.6718 0.4854
C17_2 C 0.2824(2) 0.6499(3) 0.5897(3)
C18_2 C 0.2299(2) 0.5524(4) 0.4369(3)
H14_2 H 0.2735 0.5441 0.3997
C19_2 C 0.1606(2) 0.5184(3) 0.4093(3)
H15_2 H 0.1482 0.4811 0.3492
C20_2 C 0.1507(2) 0.5988(3) 0.5556(3)
H16_2 H 0.1312 0.6287 0.6146
N9_2 N 0.61007(16) 0.9529(2) 0.9839(2)
H13_3 H 0.1361 0.1718 0.0146
C18_3 C 0.2701(2) 0.0524(4) 0.0631(3)
H14_3 H 0.2265 0.0441 0.1003
C19_3 C 0.3394(2) 0.0184(3) 0.0907(3)
S2_2 S -0.0000 0.61645(9) 0.7500
O3_2 O 0.00073(13) 0.55202(18) 0.84369(18)
O4_2 O 0.06840(16) 0.6780(2) 0.7533(2)
S3_3 S 0.22654(6) 0.17428(8) 0.77735(8)
N5_3 N 0.04951(17) 0.3690(2) 0.5619(2)
N6_3 N 0.10611(17) 0.2643(2) 0.6725(2)
N7_3 N 0.27603(17) 0.1022(2) 0.9685(2)
C11_3 C 0.0730(2) 0.3540(3) 0.6611(3)
H9_3 H 0.0676 0.3990 0.7157
C12_3 C 0.0688(3) 0.2857(3) 0.5076(3)
H10_3 H 0.0593 0.2759 0.4355
C13_3 C 0.1037(3) 0.2195(3) 0.5746(3)
H11_3 H 0.1220 0.1572 0.5579
C14_3 C 0.1357(2) 0.2232(3) 0.7702(3)
C15_3 C 0.1018(2) 0.2190(3) 0.8614(3)
H12_3 H 0.0525 0.2402 0.8701
C16_3 C 0.1499(2) 0.1781(3) 0.9450(3)
C17_3 C 0.2176(2) 0.1499(3) 0.9103(3)
C20_3 C 0.3493(2) 0.0988(3) 0.9444(3)
H16_3 H 0.3688 0.1287 0.8854
O5_3 O 0.00073(13) 0.44798(18) 0.34369(18)
H15_3 H 0.3518 0.9811 0.1508
H7_3 H 0.6482 0.0189 0.8492
S1_3 S 0.77346(6) 0.82572(8) 0.22265(8)
S2_3 S 1.0000 0.61645(9) 0.7500
O1_2 O 0.99927(13) 0.55202(18) 0.65631(18)
O2_2 O 0.93160(16) 0.6780(2) 0.7467(2)
N1_3 N 0.95049(17) 0.6310(2) 0.4381(2)
N2_3 N 0.89389(17) 0.7357(2) 0.3275(2)
N3_3 N 0.72397(17) 0.8978(2) 0.0315(2)
C1_3 C 0.9270(2) 0.6460(3) 0.3389(3)
H1_3 H 0.9324 0.6010 0.2843
C2_3 C 0.9312(3) 0.7143(3) 0.4924(3)
H2_3 H 0.9407 0.7241 0.5645
C3_3 C 0.8963(3) 0.7805(3) 0.4254(3)
H3_3 H 0.8780 0.8428 0.4421
C4_3 C 0.8643(2) 0.7768(3) 0.2298(3)
C5_3 C 0.8982(2) 0.7810(3) 0.1386(3)
H4_3 H 0.9475 0.7598 0.1299
C6_3 C 0.8501(2) 0.8219(3) 0.0550(3)
C7_3 C 0.7824(2) 0.8501(3) 0.0897(3)
C10_3 C 0.6507(2) 0.9012(3) 0.0556(3)
H8_3 H 0.6312 0.8713 0.1146
H5_3 H 0.8639 0.8282 0.9854
C8_3 C 0.7299(2) 0.9476(4) 0.9369(3)
H6_3 H 0.7735 0.9559 0.8997
C9_3 C 0.6606(2) 0.9816(3) 0.9093(3)
H7_4 H 0.3518 0.0189 0.6508
S1_4 S 0.22654(6) 0.82572(8) 0.27735(8)
N1_4 N 0.04951(17) 0.6310(2) 0.0619(2)
N2_4 N 0.10611(17) 0.7357(2) 0.1725(2)
N3_4 N 0.27603(17) 0.8978(2) 0.4685(2)
C1_4 C 0.0730(2) 0.6460(3) 0.1611(3)
H1_4 H 0.0676 0.6010 0.2157
C2_4 C 0.0688(3) 0.7143(3) 0.0076(3)
C3_4 C 0.1037(3) 0.7805(3) 0.0746(3)
H3_4 H 0.1220 0.8428 0.0579
C4_4 C 0.1357(2) 0.7768(3) 0.2702(3)
C5_4 C 0.1018(2) 0.7810(3) 0.3614(3)
H4_4 H 0.0525 0.7598 0.3701
C6_4 C 0.1499(2) 0.8219(3) 0.4450(3)
H5_4 H 0.1361 0.8282 0.5146
C7_4 C 0.2176(2) 0.8501(3) 0.4103(3)
C8_4 C 0.2701(2) 0.9476(4) 0.5631(3)
H6_4 H 0.2265 0.9559 0.6003
C9_4 C 0.3394(2) 0.9816(3) 0.5907(3)
C10_4 C 0.3493(2) 0.9012(3) 0.4444(3)
H8_4 H 0.3688 0.8713 0.3854
H2_4 H 0.0593 0.7241 0.9355
H10_4 H 0.9407 0.2759 0.0645
O5_4 O 0.99927(13) 0.44798(18) 0.15631(18)
S3_4 S 0.77346(6) 0.17428(8) 0.72265(8)
N5_4 N 0.95049(17) 0.3690(2) 0.9381(2)
N6_4 N 0.89389(17) 0.2643(2) 0.8275(2)
N7_4 N 0.72397(17) 0.1022(2) 0.5315(2)
C11_4 C 0.9270(2) 0.3540(3) 0.8389(3)
H9_4 H 0.9324 0.3990 0.7843
C12_4 C 0.9312(3) 0.2857(3) 0.9924(3)
C13_4 C 0.8963(3) 0.2195(3) 0.9254(3)
H11_4 H 0.8780 0.1572 0.9421
C14_4 C 0.8643(2) 0.2232(3) 0.7298(3)
C15_4 C 0.8982(2) 0.2190(3) 0.6386(3)
H12_4 H 0.9475 0.2402 0.6299
C16_4 C 0.8501(2) 0.1781(3) 0.5550(3)
H13_4 H 0.8639 0.1718 0.4854
C17_4 C 0.7824(2) 0.1499(3) 0.5897(3)
C18_4 C 0.7299(2) 0.0524(4) 0.4369(3)
H14_4 H 0.7735 0.0441 0.3997
C19_4 C 0.6606(2) 0.0184(3) 0.4093(3)
C20_4 C 0.6507(2) 0.0988(3) 0.5556(3)
H16_4 H 0.6312 0.1287 0.6146
H15_4 H 0.6482 0.9811 0.3492
S2_4 S 0.5000 0.88355(9) 0.2500
O2_3 O 0.56840(16) 0.8220(2) 0.2533(2)
O4_3 O 0.43160(16) 0.8220(2) 0.2467(2)
S2_5 S 0.0000 0.38355(9) 0.2500
O2_4 O 0.06840(16) 0.3220(2) 0.2533(2)
S2_6 S 1.0000 0.38355(9) 0.2500
O4_4 O 0.93160(16) 0.3220(2) 0.2467(2)
loop_
_geom_bond_atom_site_label_1
_geom_bond_atom_site_label_2
_geom_bond_site_symmetry_1
_geom_bond_site_symmetry_2
Ni1 O1 1_555 1_555
S1 C4 1_555 1_555
S2 O1 1_555 1_555
O2 S2 1_555 1_555
N1 Ni1 1_555 1_555
N2 C1 1_555 1_555
N3 C7 1_555 1_555
C1 N1 1_555 1_555
H1 C1 1_555 1_555
C2 N1 1_555 1_555
H2 C2 1_555 1_555
C3 N2 1_555 1_555
H3 C3 1_555 1_555
C4 N2 1_555 1_555
C5 C4 1_555 1_555
H4 C5 1_555 1_555
C6 C5 1_555 1_555
C7 S1 1_555 1_555
C10 N3 1_555 1_555
H8 C10 1_555 1_555
O3 S2 1_555 1_555
O4 S2 1_555 1_555
Ni2_2 O3 1_555 1_555
N10 Ni1 1_555 1_555
C2 C3 1_555 1_555
C6 C7 1_555 1_555
N4 C9 1_555 1_555
H6 C8 1_555 1_555
C9 C8 1_555 1_555
H7 C9 1_555 1_555
Ni4_2 N4 1_555 1_555
N8 C19 1_555 1_555
H14 C18 1_555 1_555
C19 C18 1_555 1_555
H15 C19 1_555 1_555
Ni4_3 N8 1_555 1_555
S3 C14 1_555 1_555
N5 Ni1_2 1_555 1_555
N6 C11 1_555 1_555
N7 C17 1_555 1_555
C11 N5 1_555 1_555
H9 C11 1_555 1_555
C12 N5 1_555 1_555
H10 C12 1_555 1_555
C13 N6 1_555 1_555
H11 C13 1_555 1_555
C14 N6 1_555 1_555
C15 C14 1_555 1_555
H12 C15 1_555 1_555
C16 C15 1_555 1_555
C17 S3 1_555 1_555
C20 N7 1_555 1_555
H16 C20 1_555 1_555
O5 Ni1_2 1_555 1_555
N9 Ni1_2 1_555 1_555
C12 C13 1_555 1_555
C16 C17 1_555 1_555
S1_2 C4_2 1_555 1_555
N1_2 Ni2 1_555 1_555
N2_2 C1_2 1_555 1_555
N3_2 C7_2 1_555 1_555
N4_2 C9_2 1_555 1_555
C1_2 N1_2 1_555 1_555
H1_2 C1_2 1_555 1_555
C2_2 N1_2 1_555 1_555
C3_2 N2_2 1_555 1_555
H3_2 C3_2 1_555 1_555
C4_2 N2_2 1_555 1_555
C5_2 C4_2 1_555 1_555
H4_2 C5_2 1_555 1_555
C6_2 C5_2 1_555 1_555
H5_2 C6_2 1_555 1_555
C7_2 S1_2 1_555 1_555
C8_2 N3_2 1_555 1_555
H6_2 C8_2 1_555 1_555
C9_2 C8_2 1_555 1_555
H7_2 C9_2 1_555 1_555
C10_2 N3_2 1_555 1_555
H8_2 C10_2 1_555 1_555
Ni3_2 N4_2 1_555 1_555
N10_2 Ni2 1_555 1_555
N4_2 C10_2 1_555 1_555
C2_2 C3_2 1_555 1_555
C6_2 C7_2 1_555 1_555
O5_2 Ni2_3 1_555 1_555
S3_2 C14_2 1_555 1_555
N5_2 Ni2_4 1_555 1_555
N6_2 C11_2 1_555 1_555
N7_2 C17_2 1_555 1_555
N8_2 C19_2 1_555 1_555
C11_2 N5_2 1_555 1_555
H9_2 C11_2 1_555 1_555
C12_2 N5_2 1_555 1_555
C13_2 N6_2 1_555 1_555
H11_2 C13_2 1_555 1_555
C14_2 N6_2 1_555 1_555
C15_2 C14_2 1_555 1_555
H12_2 C15_2 1_555 1_555
C16_2 C15_2 1_555 1_555
H13_2 C16_2 1_555 1_555
C17_2 S3_2 1_555 1_555
C18_2 N7_2 1_555 1_555
H14_2 C18_2 1_555 1_555
C19_2 C18_2 1_555 1_555
H15_2 C19_2 1_555 1_555
C20_2 N7_2 1_555 1_555
H16_2 C20_2 1_555 1_555
Ni3 N8_2 1_555 1_555
N9_2 Ni2_4 1_555 1_555
N8_2 C20_2 1_555 1_555
C12_2 C13_2 1_555 1_555
C16_2 C17_2 1_555 1_555
N10_2 C19_3 1_555 1_555
H14_3 C18_3 1_555 1_555
C19_3 C18_3 1_555 1_555
O3_2 S2_2 1_555 1_555
O4_2 S2_2 1_555 1_555
S3_3 C14_3 1_555 1_555
N5_3 Ni3 1_555 1_555
N6_3 C11_3 1_555 1_555
N7_3 C17_3 1_555 1_555
C11_3 N5_3 1_555 1_555
H9_3 C11_3 1_555 1_555
C12_3 N5_3 1_555 1_555
H10_3 C12_3 1_555 1_555
C13_3 N6_3 1_555 1_555
H11_3 C13_3 1_555 1_555
C14_3 N6_3 1_555 1_555
C15_3 C14_3 1_555 1_555
H12_3 C15_3 1_555 1_555
C16_3 C15_3 1_555 1_555
C17_3 S3_3 1_555 1_555
C20_3 N7_3 1_555 1_555
H16_3 C20_3 1_555 1_555
Ni4_2 O3_2 1_555 1_555
O5_3 Ni3 1_555 1_555
C12_3 C13_3 1_555 1_555
C16_3 C17_3 1_555 1_555
Ni3_2 O1_2 1_555 1_555
S1_3 C4_3 1_555 1_555
S2_3 O1_2 1_555 1_555
O2_2 S2_3 1_555 1_555
N1_3 Ni3_2 1_555 1_555
N2_3 C1_3 1_555 1_555
N3_3 C7_3 1_555 1_555
C1_3 N1_3 1_555 1_555
H1_3 C1_3 1_555 1_555
C2_3 N1_3 1_555 1_555
H2_3 C2_3 1_555 1_555
C3_3 N2_3 1_555 1_555
H3_3 C3_3 1_555 1_555
C4_3 N2_3 1_555 1_555
C5_3 C4_3 1_555 1_555
H4_3 C5_3 1_555 1_555
C6_3 C5_3 1_555 1_555
C7_3 S1_3 1_555 1_555
C10_3 N3_3 1_555 1_555
H8_3 C10_3 1_555 1_555
C2_3 C3_3 1_555 1_555
C6_3 C7_3 1_555 1_555
N9_2 C9_3 1_555 1_555
H6_3 C8_3 1_555 1_555
C9_3 C8_3 1_555 1_555
S1_4 C4_4 1_555 1_555
N1_4 Ni4 1_555 1_555
N2_4 C1_4 1_555 1_555
N3_4 C7_4 1_555 1_555
N9 C9_4 1_555 1_555
C1_4 N1_4 1_555 1_555
H1_4 C1_4 1_555 1_555
C2_4 N1_4 1_555 1_555
C3_4 N2_4 1_555 1_555
H3_4 C3_4 1_555 1_555
C4_4 N2_4 1_555 1_555
C5_4 C4_4 1_555 1_555
H4_4 C5_4 1_555 1_555
C6_4 C5_4 1_555 1_555
H5_4 C6_4 1_555 1_555
C7_4 S1_4 1_555 1_555
C8_4 N3_4 1_555 1_555
H6_4 C8_4 1_555 1_555
C9_4 C8_4 1_555 1_555
C10_4 N3_4 1_555 1_555
H8_4 C10_4 1_555 1_555
N9 C10_4 1_555 1_555
C2_4 C3_4 1_555 1_555
C6_4 C7_4 1_555 1_555
O5_4 Ni4_3 1_555 1_555
S3_4 C14_4 1_555 1_555
N5_4 Ni4_4 1_555 1_555
N6_4 C11_4 1_555 1_555
N7_4 C17_4 1_555 1_555
N10 C19_4 1_555 1_555
C11_4 N5_4 1_555 1_555
H9_4 C11_4 1_555 1_555
C12_4 N5_4 1_555 1_555
C13_4 N6_4 1_555 1_555
H11_4 C13_4 1_555 1_555
C14_4 N6_4 1_555 1_555
C15_4 C14_4 1_555 1_555
H12_4 C15_4 1_555 1_555
C16_4 C15_4 1_555 1_555
H13_4 C16_4 1_555 1_555
C17_4 S3_4 1_555 1_555
C18_4 N7_4 1_555 1_555
H14_4 C18_4 1_555 1_555
C19_4 C18_4 1_555 1_555
C20_4 N7_4 1_555 1_555
H16_4 C20_4 1_555 1_555
N10 C20_4 1_555 1_555
C12_4 C13_4 1_555 1_555
C16_4 C17_4 1_555 1_555
S2_4 O5 1_555 1_555
O2_3 S2_4 1_555 1_555
O5_2 S2_4 1_555 1_555
O4_3 S2_4 1_555 1_555
S2_5 O5_3 1_555 1_555
O2_4 S2_5 1_555 1_555
O5_4 S2_6 1_555 1_555
O4_4 S2_6 1_555 1_555

#END
