
###############################################################################
#
# This file contains modified crystal structure data generated from the
# MOF subset of the Cambridge Structural Database (CSD) v543 
# hosted by the Cambridge Crystallographic Data Centre (CCDC).
#
# This work is licensed under the Creative Commons
# Attribution-NonCommercial-ShareAlike 4.0 International License.
# To view a copy of this license, visit
# http://creativecommons.org/licenses/by-nc-sa/4.0/
# or send a letter to
# Creative Commons, PO Box 1866, Mountain View, CA 94042, USA.
#
# CIF created using the CSD Python API on 29 September 2022
# The structure has been converted into the P1 space group
# The structure has a 3D framework
# The original CSD entry FOBCIK is in the monoclinic crystal system
# The framework has been calculated to contain at least 10.0% void space
# The void calculation uses a probe of radius 1.32A, grid spacing 0.4
#
###############################################################################

data_FOBCIK
_chemical_formula_moiety         '(C80 H64 Co10 N32 O16 S14)n'
_symmetry_cell_setting           triclinic
_symmetry_space_group_name_H-M   'P 1'
_symmetry_Int_Tables_number      1
_space_group_name_Hall           'P 1'
loop_
_symmetry_equiv_pos_site_id
_symmetry_equiv_pos_as_xyz
1 x,y,z
_cell_length_a                   17.867(4)
_cell_length_b                   13.437(3)
_cell_length_c                   12.678(3)
_cell_angle_alpha                90
_cell_angle_beta                 92.95(3)
_cell_angle_gamma                90
_cell_volume                     3039.69
loop_
_atom_site_label
_atom_site_type_symbol
_atom_site_fract_x
_atom_site_fract_y
_atom_site_fract_z
Co1 Co 0.0000 0.0000 0.0000
S1 S 0.22462(5) 0.33060(7) 0.27826(7)
N1 N 0.05035(15) 0.1344(2) 0.0643(2)
N2 N 0.10612(16) 0.2389(2) 0.1747(2)
N3 N 0.27563(16) 0.3996(2) 0.4704(2)
N4 N 0.38855(15) 0.4529(2) 0.5168(2)
C1 C 0.07322(17) 0.1489(2) 0.1630(3)
H1 H 0.0676 0.1035 0.2174
C2 C 0.0706(2) 0.2178(3) 0.0096(3)
C3 C 0.1049(2) 0.2839(3) 0.0773(3)
H3 H 0.1236 0.3464 0.0611
C4 C 0.13573(18) 0.2799(2) 0.2717(3)
C5 C 0.1036(2) 0.2806(3) 0.3647(3)
H4 H 0.0557 0.2563 0.3744
C6 C 0.1502(2) 0.3220(3) 0.4468(3)
H5 H 0.1370 0.3278 0.5165
C7 C 0.21612(18) 0.3518(2) 0.4114(3)
C8 C 0.2690(2) 0.4486(3) 0.5649(3)
H6 H 0.2259 0.4571 0.6021
C9 C 0.34759(17) 0.4031(2) 0.4448(3)
H7 H 0.3661 0.3745 0.3847
C10 C 0.3389(2) 0.4816(3) 0.5916(3)
H8 H 0.3520 0.5185 0.6519
Co4 Co 0.5000 0.5000 0.5000
Co1_2 Co -0.0000 0.0000 1.0000
S2 S -0.0000 0.11803(8) 0.7500
O1 O 0.00012(12) 0.05308(17) 0.84314(18)
O2 O 0.06794(17) 0.1792(2) 0.7527(2)
H2 H 0.0622 0.2275 0.9373
Co2 Co 0.0000 0.0000 0.5000
Co1_3 Co 0.0000 1.0000 0.0000
Co1_4 Co -0.0000 1.0000 1.0000
Co2_2 Co 0.0000 1.0000 0.5000
N9 N 0.11145(15) 0.9529(2) 0.9832(2)
Co1_5 Co 1.0000 0.0000 0.0000
N10 N 0.88855(15) 0.0471(2) 0.0168(2)
Co1_6 Co 1.0000 0.0000 1.0000
S2_2 S 1.0000 0.11803(8) 0.7500
O3 O 0.99988(12) 0.05308(17) 0.65686(18)
O4 O 0.93206(17) 0.1792(2) 0.7473(2)
Co2_3 Co 1.0000 0.0000 0.5000
Co1_7 Co 1.0000 1.0000 0.0000
H10 H 0.9378 0.7725 0.0627
O5 O 0.99988(12) 0.94692(17) 0.15686(18)
Co1_8 Co 1.0000 1.0000 1.0000
S3 S 0.77538(5) 0.66940(7) 0.72174(7)
N5 N 0.94965(15) 0.8656(2) 0.9357(2)
N6 N 0.89388(16) 0.7611(2) 0.8253(2)
N7 N 0.72437(16) 0.6004(2) 0.5296(2)
N8 N 0.61145(15) 0.5471(2) 0.4832(2)
C11 C 0.92678(17) 0.8511(2) 0.8370(3)
H9 H 0.9324 0.8965 0.7826
C12 C 0.9294(2) 0.7822(3) 0.9904(3)
C13 C 0.8951(2) 0.7161(3) 0.9227(3)
H11 H 0.8764 0.6536 0.9389
C14 C 0.86427(18) 0.7201(2) 0.7283(3)
C15 C 0.8964(2) 0.7194(3) 0.6353(3)
H12 H 0.9443 0.7437 0.6256
C16 C 0.8498(2) 0.6780(3) 0.5532(3)
H13 H 0.8630 0.6722 0.4835
C17 C 0.78388(18) 0.6482(2) 0.5886(3)
C18 C 0.7310(2) 0.5514(3) 0.4351(3)
H14 H 0.7741 0.5429 0.3979
C19 C 0.65241(17) 0.5969(2) 0.5552(3)
H15 H 0.6339 0.6255 0.6153
C20 C 0.6611(2) 0.5184(3) 0.4084(3)
H16 H 0.6480 0.4815 0.3481
Co2_4 Co 1.0000 1.0000 0.5000
N10_2 N 0.11145(15) 0.0471(2) 0.4832(2)
N8_2 N 0.38855(15) 0.5471(2) 0.0168(2)
H13_2 H 0.1370 0.6722 0.0165
C18_2 C 0.2690(2) 0.5514(3) 0.0649(3)
H14_2 H 0.2259 0.5429 0.1021
C20_2 C 0.3389(2) 0.5184(3) 0.0916(3)
H16_2 H 0.3520 0.4815 0.1519
Co3 Co 0.5000 0.5000 0.0000
S3_2 S 0.22462(5) 0.66940(7) 0.77826(7)
N5_2 N 0.05035(15) 0.8656(2) 0.5643(2)
N6_2 N 0.10612(16) 0.7611(2) 0.6747(2)
N7_2 N 0.27563(16) 0.6004(2) 0.9704(2)
C11_2 C 0.07322(17) 0.8511(2) 0.6630(3)
H9_2 H 0.0676 0.8965 0.7174
C12_2 C 0.0706(2) 0.7822(3) 0.5096(3)
H10_2 H 0.0622 0.7725 0.4373
C13_2 C 0.1049(2) 0.7161(3) 0.5773(3)
H11_2 H 0.1236 0.6536 0.5611
C14_2 C 0.13573(18) 0.7201(2) 0.7717(3)
C15_2 C 0.1036(2) 0.7194(3) 0.8647(3)
H12_2 H 0.0557 0.7437 0.8744
C16_2 C 0.1502(2) 0.6780(3) 0.9468(3)
C17_2 C 0.21612(18) 0.6482(2) 0.9114(3)
C19_2 C 0.34759(17) 0.5969(2) 0.9448(3)
H15_2 H 0.3661 0.6255 0.8847
Co3_2 Co 0.5000 0.5000 1.0000
O5_2 O 0.00012(12) 0.94692(17) 0.34314(18)
S1_2 S 0.77538(5) 0.33060(7) 0.22174(7)
N1_2 N 0.94965(15) 0.1344(2) 0.4357(2)
N2_2 N 0.89388(16) 0.2389(2) 0.3253(2)
N3_2 N 0.72437(16) 0.3996(2) 0.0296(2)
C1_2 C 0.92678(17) 0.1489(2) 0.3370(3)
H1_2 H 0.9324 0.1035 0.2826
C2_2 C 0.9294(2) 0.2178(3) 0.4904(3)
H2_2 H 0.9378 0.2275 0.5627
C3_2 C 0.8951(2) 0.2839(3) 0.4227(3)
H3_2 H 0.8764 0.3464 0.4389
C4_2 C 0.86427(18) 0.2799(2) 0.2283(3)
C5_2 C 0.8964(2) 0.2806(3) 0.1353(3)
H4_2 H 0.9443 0.2563 0.1256
C6_2 C 0.8498(2) 0.3220(3) 0.0532(3)
C7_2 C 0.78388(18) 0.3518(2) 0.0886(3)
C9_2 C 0.65241(17) 0.4031(2) 0.0552(3)
H7_2 H 0.6339 0.3745 0.1153
N4_2 N 0.61145(15) 0.4529(2) 0.9832(2)
H5_2 H 0.8630 0.3278 0.9835
C8_2 C 0.7310(2) 0.4486(3) 0.9351(3)
H6_2 H 0.7741 0.4571 0.8979
C10_2 C 0.6611(2) 0.4816(3) 0.9084(3)
H8_2 H 0.6480 0.5185 0.8481
N9_2 N 0.88855(15) 0.9529(2) 0.5168(2)
H8_3 H 0.8520 0.0185 0.6519
S1_3 S 0.72462(5) 0.83060(7) 0.27826(7)
N1_3 N 0.55035(15) 0.6344(2) 0.0643(2)
N2_3 N 0.60612(16) 0.7389(2) 0.1747(2)
N3_3 N 0.77563(16) 0.8996(2) 0.4704(2)
C1_3 C 0.57322(17) 0.6489(2) 0.1630(3)
H1_3 H 0.5676 0.6035 0.2174
C2_3 C 0.5706(2) 0.7178(3) 0.0096(3)
C3_3 C 0.6049(2) 0.7839(3) 0.0773(3)
H3_3 H 0.6236 0.8464 0.0611
C4_3 C 0.63573(18) 0.7799(2) 0.2717(3)
C5_3 C 0.6036(2) 0.7806(3) 0.3647(3)
H4_3 H 0.5557 0.7563 0.3744
C6_3 C 0.6502(2) 0.8220(3) 0.4468(3)
H5_3 H 0.6370 0.8278 0.5165
C7_3 C 0.71612(18) 0.8518(2) 0.4114(3)
C8_3 C 0.7690(2) 0.9486(3) 0.5649(3)
H6_3 H 0.7259 0.9571 0.6021
C9_3 C 0.84759(17) 0.9031(2) 0.4448(3)
H7_3 H 0.8661 0.8745 0.3847
C10_3 C 0.8389(2) 0.9816(3) 0.5916(3)
H10_3 H 0.4378 0.2725 0.0627
O5_3 O 0.49988(12) 0.44692(17) 0.15686(18)
S2_3 S 0.5000 0.61803(8) 0.7500
O1_2 O 0.50012(12) 0.55308(17) 0.84314(18)
O2_2 O 0.56794(17) 0.6792(2) 0.7527(2)
H2_3 H 0.5622 0.7275 0.9373
O3_2 O 0.49988(12) 0.55308(17) 0.65686(18)
O4_2 O 0.43206(17) 0.6792(2) 0.7473(2)
S3_3 S 0.27538(5) 0.16940(7) 0.72174(7)
N5_3 N 0.44965(15) 0.3656(2) 0.9357(2)
N6_3 N 0.39388(16) 0.2611(2) 0.8253(2)
N7_3 N 0.22437(16) 0.1004(2) 0.5296(2)
C11_3 C 0.42678(17) 0.3511(2) 0.8370(3)
H9_3 H 0.4324 0.3965 0.7826
C12_3 C 0.4294(2) 0.2822(3) 0.9904(3)
C13_3 C 0.3951(2) 0.2161(3) 0.9227(3)
H11_3 H 0.3764 0.1536 0.9389
C14_3 C 0.36427(18) 0.2201(2) 0.7283(3)
C15_3 C 0.3964(2) 0.2194(3) 0.6353(3)
H12_3 H 0.4443 0.2437 0.6256
C16_3 C 0.3498(2) 0.1780(3) 0.5532(3)
H13_3 H 0.3630 0.1722 0.4835
C17_3 C 0.28388(18) 0.1482(2) 0.5886(3)
C18_3 C 0.2310(2) 0.0514(3) 0.4351(3)
H14_3 H 0.2741 0.0429 0.3979
C19_3 C 0.15241(17) 0.0969(2) 0.5552(3)
H15_3 H 0.1339 0.1255 0.6153
C20_3 C 0.1611(2) 0.0184(3) 0.4084(3)
H16_3 H 0.1480 0.9815 0.3481
H8_4 H 0.1480 0.0185 0.8481
H13_4 H 0.6370 0.1722 0.0165
C18_4 C 0.7690(2) 0.0514(3) 0.0649(3)
H14_4 H 0.7259 0.0429 0.1021
C20_4 C 0.8389(2) 0.0184(3) 0.0916(3)
S1_4 S 0.27538(5) 0.83060(7) 0.22174(7)
N1_4 N 0.44965(15) 0.6344(2) 0.4357(2)
N2_4 N 0.39388(16) 0.7389(2) 0.3253(2)
N3_4 N 0.22437(16) 0.8996(2) 0.0296(2)
C1_4 C 0.42678(17) 0.6489(2) 0.3370(3)
H1_4 H 0.4324 0.6035 0.2826
C2_4 C 0.4294(2) 0.7178(3) 0.4904(3)
H2_4 H 0.4378 0.7275 0.5627
C3_4 C 0.3951(2) 0.7839(3) 0.4227(3)
H3_4 H 0.3764 0.8464 0.4389
C4_4 C 0.36427(18) 0.7799(2) 0.2283(3)
C5_4 C 0.3964(2) 0.7806(3) 0.1353(3)
H4_4 H 0.4443 0.7563 0.1256
C6_4 C 0.3498(2) 0.8220(3) 0.0532(3)
C7_4 C 0.28388(18) 0.8518(2) 0.0886(3)
C9_4 C 0.15241(17) 0.9031(2) 0.0552(3)
H7_4 H 0.1339 0.8745 0.1153
S3_4 S 0.72462(5) 0.16940(7) 0.77826(7)
N5_4 N 0.55035(15) 0.3656(2) 0.5643(2)
N6_4 N 0.60612(16) 0.2611(2) 0.6747(2)
N7_4 N 0.77563(16) 0.1004(2) 0.9704(2)
C11_4 C 0.57322(17) 0.3511(2) 0.6630(3)
H9_4 H 0.5676 0.3965 0.7174
C12_4 C 0.5706(2) 0.2822(3) 0.5096(3)
H10_4 H 0.5622 0.2725 0.4373
C13_4 C 0.6049(2) 0.2161(3) 0.5773(3)
H11_4 H 0.6236 0.1536 0.5611
C14_4 C 0.63573(18) 0.2201(2) 0.7717(3)
C15_4 C 0.6036(2) 0.2194(3) 0.8647(3)
H12_4 H 0.5557 0.2437 0.8744
C16_4 C 0.6502(2) 0.1780(3) 0.9468(3)
C17_4 C 0.71612(18) 0.1482(2) 0.9114(3)
C19_4 C 0.84759(17) 0.0969(2) 0.9448(3)
H15_4 H 0.8661 0.1255 0.8847
O5_4 O 0.50012(12) 0.44692(17) 0.34314(18)
H5_4 H 0.3630 0.8278 0.9835
C8_4 C 0.2310(2) 0.9486(3) 0.9351(3)
H6_4 H 0.2741 0.9571 0.8979
C10_4 C 0.1611(2) 0.9816(3) 0.9084(3)
H16_4 H 0.8520 0.9815 0.1519
S2_4 S -0.0000 0.88197(8) 0.2500
O4_3 O 0.06794(17) 0.8208(2) 0.2527(2)
S2_5 S 1.0000 0.88197(8) 0.2500
O2_3 O 0.93206(17) 0.8208(2) 0.2473(2)
S2_6 S 0.5000 0.38197(8) 0.2500
O2_4 O 0.43206(17) 0.3208(2) 0.2473(2)
O4_4 O 0.56794(17) 0.3208(2) 0.2527(2)
loop_
_geom_bond_atom_site_label_1
_geom_bond_atom_site_label_2
_geom_bond_site_symmetry_1
_geom_bond_site_symmetry_2
S1 C4 1_555 1_555
N1 Co1 1_555 1_555
N2 C1 1_555 1_555
N3 C7 1_555 1_555
N4 C9 1_555 1_555
C1 N1 1_555 1_555
H1 C1 1_555 1_555
C2 N1 1_555 1_555
C3 N2 1_555 1_555
H3 C3 1_555 1_555
C4 N2 1_555 1_555
C5 C4 1_555 1_555
H4 C5 1_555 1_555
C6 C5 1_555 1_555
H5 C6 1_555 1_555
C7 S1 1_555 1_555
C8 N3 1_555 1_555
H6 C8 1_555 1_555
C9 N3 1_555 1_555
H7 C9 1_555 1_555
C10 N4 1_555 1_555
H8 C10 1_555 1_555
Co4 N4 1_555 1_555
C2 C3 1_555 1_555
C6 C7 1_555 1_555
C8 C10 1_555 1_555
Co1_2 O1 1_555 1_555
S2 O1 1_555 1_555
O2 S2 1_555 1_555
N9 Co1_4 1_555 1_555
N10 Co1_5 1_555 1_555
O3 S2_2 1_555 1_555
O4 S2_2 1_555 1_555
Co2_3 O3 1_555 1_555
O5 Co1_7 1_555 1_555
S3 C14 1_555 1_555
N5 Co1_8 1_555 1_555
N6 C11 1_555 1_555
N7 C17 1_555 1_555
N8 C19 1_555 1_555
C11 N5 1_555 1_555
H9 C11 1_555 1_555
C12 N5 1_555 1_555
C13 N6 1_555 1_555
H11 C13 1_555 1_555
C14 N6 1_555 1_555
C15 C14 1_555 1_555
H12 C15 1_555 1_555
C16 C15 1_555 1_555
H13 C16 1_555 1_555
C17 S3 1_555 1_555
C18 N7 1_555 1_555
H14 C18 1_555 1_555
C19 N7 1_555 1_555
H15 C19 1_555 1_555
C20 N8 1_555 1_555
H16 C20 1_555 1_555
Co4 N8 1_555 1_555
C12 C13 1_555 1_555
C16 C17 1_555 1_555
C18 C20 1_555 1_555
N10_2 Co2 1_555 1_555
H14_2 C18_2 1_555 1_555
C20_2 N8_2 1_555 1_555
H16_2 C20_2 1_555 1_555
Co3 N8_2 1_555 1_555
C18_2 C20_2 1_555 1_555
S3_2 C14_2 1_555 1_555
N5_2 Co2_2 1_555 1_555
N6_2 C11_2 1_555 1_555
N7_2 C17_2 1_555 1_555
C11_2 N5_2 1_555 1_555
H9_2 C11_2 1_555 1_555
C12_2 N5_2 1_555 1_555
H10_2 C12_2 1_555 1_555
C13_2 N6_2 1_555 1_555
H11_2 C13_2 1_555 1_555
C14_2 N6_2 1_555 1_555
C15_2 C14_2 1_555 1_555
H12_2 C15_2 1_555 1_555
C16_2 C15_2 1_555 1_555
C17_2 S3_2 1_555 1_555
C19_2 N7_2 1_555 1_555
H15_2 C19_2 1_555 1_555
O5_2 Co2_2 1_555 1_555
C12_2 C13_2 1_555 1_555
C16_2 C17_2 1_555 1_555
S1_2 C4_2 1_555 1_555
N1_2 Co2_3 1_555 1_555
N2_2 C1_2 1_555 1_555
N3_2 C7_2 1_555 1_555
C1_2 N1_2 1_555 1_555
H1_2 C1_2 1_555 1_555
C2_2 N1_2 1_555 1_555
H2_2 C2_2 1_555 1_555
C3_2 N2_2 1_555 1_555
H3_2 C3_2 1_555 1_555
C4_2 N2_2 1_555 1_555
C5_2 C4_2 1_555 1_555
H4_2 C5_2 1_555 1_555
C6_2 C5_2 1_555 1_555
C7_2 S1_2 1_555 1_555
C9_2 N3_2 1_555 1_555
H7_2 C9_2 1_555 1_555
C2_2 C3_2 1_555 1_555
C6_2 C7_2 1_555 1_555
H6_2 C8_2 1_555 1_555
C10_2 N4_2 1_555 1_555
H8_2 C10_2 1_555 1_555
Co3_2 N4_2 1_555 1_555
C8_2 C10_2 1_555 1_555
N9_2 Co2_4 1_555 1_555
S1_3 C4_3 1_555 1_555
N1_3 Co3 1_555 1_555
N2_3 C1_3 1_555 1_555
N3_3 C7_3 1_555 1_555
N9_2 C9_3 1_555 1_555
C1_3 N1_3 1_555 1_555
H1_3 C1_3 1_555 1_555
C2_3 N1_3 1_555 1_555
C3_3 N2_3 1_555 1_555
H3_3 C3_3 1_555 1_555
C4_3 N2_3 1_555 1_555
C5_3 C4_3 1_555 1_555
H4_3 C5_3 1_555 1_555
C6_3 C5_3 1_555 1_555
H5_3 C6_3 1_555 1_555
C7_3 S1_3 1_555 1_555
C8_3 N3_3 1_555 1_555
H6_3 C8_3 1_555 1_555
C9_3 N3_3 1_555 1_555
H7_3 C9_3 1_555 1_555
C10_3 N9_2 1_555 1_555
O5_3 Co3 1_555 1_555
C2_3 C3_3 1_555 1_555
C6_3 C7_3 1_555 1_555
C8_3 C10_3 1_555 1_555
Co3_2 O1_2 1_555 1_555
S2_3 O1_2 1_555 1_555
O2_2 S2_3 1_555 1_555
O3_2 S2_3 1_555 1_555
O4_2 S2_3 1_555 1_555
S3_3 C14_3 1_555 1_555
N5_3 Co3_2 1_555 1_555
N6_3 C11_3 1_555 1_555
N7_3 C17_3 1_555 1_555
N10_2 C19_3 1_555 1_555
C11_3 N5_3 1_555 1_555
H9_3 C11_3 1_555 1_555
C12_3 N5_3 1_555 1_555
C13_3 N6_3 1_555 1_555
H11_3 C13_3 1_555 1_555
C14_3 N6_3 1_555 1_555
C15_3 C14_3 1_555 1_555
H12_3 C15_3 1_555 1_555
C16_3 C15_3 1_555 1_555
H13_3 C16_3 1_555 1_555
C17_3 S3_3 1_555 1_555
C18_3 N7_3 1_555 1_555
H14_3 C18_3 1_555 1_555
C19_3 N7_3 1_555 1_555
H15_3 C19_3 1_555 1_555
C20_3 N10_2 1_555 1_555
Co4 O3_2 1_555 1_555
C12_3 C13_3 1_555 1_555
C16_3 C17_3 1_555 1_555
C18_3 C20_3 1_555 1_555
H14_4 C18_4 1_555 1_555
C20_4 N10 1_555 1_555
C18_4 C20_4 1_555 1_555
S1_4 C4_4 1_555 1_555
N1_4 Co4 1_555 1_555
N2_4 C1_4 1_555 1_555
N3_4 C7_4 1_555 1_555
C1_4 N1_4 1_555 1_555
H1_4 C1_4 1_555 1_555
C2_4 N1_4 1_555 1_555
H2_4 C2_4 1_555 1_555
C3_4 N2_4 1_555 1_555
H3_4 C3_4 1_555 1_555
C4_4 N2_4 1_555 1_555
C5_4 C4_4 1_555 1_555
H4_4 C5_4 1_555 1_555
C6_4 C5_4 1_555 1_555
C7_4 S1_4 1_555 1_555
C9_4 N3_4 1_555 1_555
H7_4 C9_4 1_555 1_555
S3_4 C14_4 1_555 1_555
N5_4 Co4 1_555 1_555
N6_4 C11_4 1_555 1_555
N7_4 C17_4 1_555 1_555
C11_4 N5_4 1_555 1_555
H9_4 C11_4 1_555 1_555
C12_4 N5_4 1_555 1_555
H10_4 C12_4 1_555 1_555
C13_4 N6_4 1_555 1_555
H11_4 C13_4 1_555 1_555
C14_4 N6_4 1_555 1_555
C15_4 C14_4 1_555 1_555
H12_4 C15_4 1_555 1_555
C16_4 C15_4 1_555 1_555
C17_4 S3_4 1_555 1_555
C19_4 N7_4 1_555 1_555
H15_4 C19_4 1_555 1_555
O5_4 Co4 1_555 1_555
C2_4 C3_4 1_555 1_555
C6_4 C7_4 1_555 1_555
C12_4 C13_4 1_555 1_555
C16_4 C17_4 1_555 1_555
H6_4 C8_4 1_555 1_555
C10_4 N9 1_555 1_555
C8_4 C10_4 1_555 1_555
O5_2 S2_4 1_555 1_555
O4_3 S2_4 1_555 1_555
S2_5 O5 1_555 1_555
O2_3 S2_5 1_555 1_555
S2_6 O5_3 1_555 1_555
O2_4 S2_6 1_555 1_555
O5_4 S2_6 1_555 1_555
O4_4 S2_6 1_555 1_555

#END
