
###############################################################################
#
# This file contains modified crystal structure data generated from the
# MOF subset of the Cambridge Structural Database (CSD) v543 
# hosted by the Cambridge Crystallographic Data Centre (CCDC).
#
# This work is licensed under the Creative Commons
# Attribution-NonCommercial-ShareAlike 4.0 International License.
# To view a copy of this license, visit
# http://creativecommons.org/licenses/by-nc-sa/4.0/
# or send a letter to
# Creative Commons, PO Box 1866, Mountain View, CA 94042, USA.
#
# CIF created using the CSD Python API on 29 September 2022
# The structure has been converted into the P1 space group
# The structure has a 3D framework
# The original CSD entry FOCYUT is in the triclinic crystal system
# The framework has been calculated to contain at least 10.0% void space
# The void calculation uses a probe of radius 1.32A, grid spacing 0.4
#
###############################################################################

data_FOCYUT
_chemical_formula_moiety         'C68 H38 Nd2 O16'
_symmetry_cell_setting           triclinic
_symmetry_space_group_name_H-M   'P 1'
_symmetry_Int_Tables_number      1
_space_group_name_Hall           'P 1'
loop_
_symmetry_equiv_pos_site_id
_symmetry_equiv_pos_as_xyz
1 x,y,z
_cell_length_a                   9.3093(11)
_cell_length_b                   11.9578(14)
_cell_length_c                   15.8071(19)
_cell_angle_alpha                81.178(4)
_cell_angle_beta                 73.671(4)
_cell_angle_gamma                71.162(4)
_cell_volume                     1594.4
loop_
_atom_site_label
_atom_site_type_symbol
_atom_site_fract_x
_atom_site_fract_y
_atom_site_fract_z
Nd4 Nd 0.18421(4) 0.02866(3) 0.01953(2)
O1 O 0.2762(5) 0.1085(4) 0.1199(3)
O2 O 0.4057(5) 0.2410(4) 0.1053(3)
H1 H 0.4650 0.2005 0.0630
O3 O 0.0914(6) 0.9458(4) 0.1721(3)
C9 C 0.0612(8) 0.2101(6) 0.2729(4)
H5 H 0.0518 0.1395 0.2574
C10 C 0.1837(8) 0.2556(6) 0.2250(4)
C11 C 0.1994(8) 0.3562(6) 0.2490(4)
H6 H 0.2835 0.3858 0.2162
C12 C 0.0934(8) 0.4144(6) 0.3208(4)
H7 H 0.1075 0.4815 0.3388
C13 C 0.2921(8) 0.1948(6) 0.1455(4)
C20 C 0.0148(8) 0.8863(5) 0.1550(4)
O11 O 0.0030(5) 0.1085(4) 0.9236(3)
O14 O 0.3686(5) 0.1174(4) 0.9165(3)
O15 O 0.4263(5) 0.8769(4) 0.0370(3)
O12 O 0.2437(5) 0.8938(4) 0.9092(3)
O4 O 0.9970(5) 0.8915(4) 0.0764(3)
O6 O 0.0498(5) 0.8235(4) 0.9077(3)
O8 O 0.5737(5) 0.1231(4) 0.9630(3)
C1 C 0.8432(8) 0.4435(6) 0.4392(4)
C2 C 0.7872(7) 0.5673(5) 0.4355(4)
C3 C 0.6736(8) 0.6215(5) 0.5074(4)
H2 H 0.6341 0.7055 0.5035
C4 C 0.6139(7) 0.5602(5) 0.5853(4)
C5 C 0.6721(8) 0.4360(6) 0.5891(4)
C6 C 0.7806(8) 0.3811(6) 0.5163(4)
H3 H 0.8145 0.2970 0.5186
C7 C 0.9649(8) 0.3741(6) 0.3668(4)
C8 C 0.9536(8) 0.2708(6) 0.3436(4)
H4 H 0.8703 0.2406 0.3769
C14 C 0.8444(7) 0.6472(5) 0.3612(4)
C15 C 0.8485(8) 0.6386(6) 0.2731(4)
H8 H 0.8151 0.5782 0.2588
C16 C 0.9010(8) 0.7174(6) 0.2055(4)
H9 H 0.9030 0.7105 0.1461
C17 C 0.9503(7) 0.8059(5) 0.2259(4)
C18 C 0.9450(8) 0.8166(6) 0.3134(4)
H10 H 0.9783 0.8771 0.3275
C19 C 0.8911(8) 0.7391(5) 0.3799(4)
H11 H 0.8858 0.7484 0.4394
C21 C 0.4981(8) 0.6288(5) 0.6589(4)
C22 C 0.5078(8) 0.7391(6) 0.6728(4)
H12 H 0.5855 0.7700 0.6329
C23 C 0.4072(8) 0.8040(6) 0.7428(4)
H13 H 0.4158 0.8787 0.7503
C24 C 0.2932(8) 0.7596(6) 0.8024(4)
C25 C 0.2773(8) 0.6538(6) 0.7871(4)
H14 H 0.1952 0.6257 0.8251
C26 C 0.3788(8) 0.5878(6) 0.7175(4)
H15 H 0.3673 0.5143 0.7094
C27 C 0.1850(9) 0.8300(6) 0.8796(4)
C28 C 0.6311(7) 0.3568(5) 0.6706(4)
C29 C 0.6629(7) 0.3682(6) 0.7489(4)
H16 H 0.7122 0.4255 0.7513
C30 C 0.6227(8) 0.2955(5) 0.8244(4)
H17 H 0.6483 0.3015 0.8773
C31 C 0.5453(7) 0.2147(5) 0.8221(4)
C32 C 0.5138(8) 0.2029(6) 0.7435(4)
H18 H 0.4604 0.1481 0.7416
C33 C 0.5606(8) 0.2718(6) 0.6675(4)
H19 H 0.5442 0.2604 0.6131
C34 C 0.4923(8) 0.1452(5) 0.9056(4)
O13 O 0.9502(5) 0.1765(4) 0.0923(3)
Nd7 Nd 0.81579(4) 0.97134(3) 0.98047(2)
O5 O 0.7563(5) 0.1062(4) 0.0908(3)
O7 O 0.6314(5) 0.8826(4) 0.0835(3)
C1_2 C 0.1568(8) 0.5565(6) 0.5608(4)
C2_2 C 0.2128(7) 0.4327(5) 0.5645(4)
C3_2 C 0.3264(8) 0.3785(5) 0.4926(4)
H2_2 H 0.3659 0.2945 0.4965
C4_2 C 0.3861(7) 0.4398(5) 0.4147(4)
C5_2 C 0.3279(8) 0.5640(6) 0.4109(4)
C6_2 C 0.2194(8) 0.6189(6) 0.4837(4)
H3_2 H 0.1855 0.7030 0.4814
C7_2 C 0.0351(8) 0.6259(6) 0.6332(4)
C8_2 C 0.0464(8) 0.7292(6) 0.6564(4)
H4_2 H 0.1297 0.7594 0.6231
C14_2 C 0.1556(7) 0.3528(5) 0.6388(4)
C15_2 C 0.1515(8) 0.3614(6) 0.7269(4)
H8_2 H 0.1849 0.4218 0.7412
C16_2 C 0.0990(8) 0.2826(6) 0.7945(4)
H9_2 H 0.0970 0.2895 0.8539
C17_2 C 0.0497(7) 0.1941(5) 0.7741(4)
C18_2 C 0.0550(8) 0.1834(6) 0.6866(4)
H10_2 H 0.0217 0.1229 0.6725
C19_2 C 0.1089(8) 0.2609(5) 0.6201(4)
H11_2 H 0.1142 0.2516 0.5606
C21_2 C 0.5019(8) 0.3712(5) 0.3411(4)
C22_2 C 0.4922(8) 0.2609(6) 0.3272(4)
H12_2 H 0.4145 0.2300 0.3671
C23_2 C 0.5928(8) 0.1960(6) 0.2572(4)
H13_2 H 0.5842 0.1213 0.2497
C24_2 C 0.7068(8) 0.2404(6) 0.1976(4)
C25_2 C 0.7227(8) 0.3462(6) 0.2129(4)
H14_2 H 0.8048 0.3743 0.1749
C26_2 C 0.6212(8) 0.4122(6) 0.2825(4)
H15_2 H 0.6327 0.4857 0.2906
C27_2 C 0.8150(9) 0.1700(6) 0.1204(4)
C28_2 C 0.3689(7) 0.6432(5) 0.3294(4)
C29_2 C 0.3371(7) 0.6318(6) 0.2511(4)
H16_2 H 0.2878 0.5745 0.2487
C30_2 C 0.3773(8) 0.7045(5) 0.1756(4)
H17_2 H 0.3517 0.6985 0.1227
C31_2 C 0.4547(7) 0.7853(5) 0.1779(4)
C32_2 C 0.4862(8) 0.7971(6) 0.2565(4)
H18_2 H 0.5396 0.8519 0.2584
C33_2 C 0.4394(8) 0.7282(6) 0.3325(4)
H19_2 H 0.4558 0.7396 0.3869
C34_2 C 0.5077(8) 0.8548(5) 0.0944(4)
O9 O 0.9086(6) 0.0542(4) 0.8279(3)
O1_2 O 0.7238(5) 0.8915(4) 0.8801(3)
O2_2 O 0.5943(5) 0.7590(4) 0.8947(3)
H1_2 H 0.5350 0.7995 0.9370
C9_2 C 0.9388(8) 0.7899(6) 0.7271(4)
H5_2 H 0.9482 0.8605 0.7426
C10_2 C 0.8163(8) 0.7444(6) 0.7750(4)
C11_2 C 0.8006(8) 0.6438(6) 0.7510(4)
H6_2 H 0.7165 0.6142 0.7838
C12_2 C 0.9066(8) 0.5856(6) 0.6792(4)
H7_2 H 0.8925 0.5185 0.6612
C13_2 C 0.7079(8) 0.8052(6) 0.8545(4)
C20_2 C 0.9852(8) 0.1137(5) 0.8450(4)
loop_
_geom_bond_atom_site_label_1
_geom_bond_atom_site_label_2
_geom_bond_site_symmetry_1
_geom_bond_site_symmetry_2
Nd4 O1 1_555 1_555
O1 C13 1_555 1_555
O2 H1 1_555 1_555
O3 C20 1_555 1_555
H5 C9 1_555 1_555
C10 C9 1_555 1_555
C11 C10 1_555 1_555
H6 C11 1_555 1_555
H7 C12 1_555 1_555
C13 O2 1_555 1_555
C10 C13 1_555 1_555
C11 C12 1_555 1_555
O12 C27 1_555 1_555
O6 C27 1_555 1_555
O14 C34 1_555 1_555
O8 C34 1_555 1_555
C1 C2 1_555 1_555
C2 C3 1_555 1_555
C3 H2 1_555 1_555
C4 C3 1_555 1_555
C5 C4 1_555 1_555
C6 C1 1_555 1_555
H3 C6 1_555 1_555
C7 C1 1_555 1_555
C8 C7 1_555 1_555
H4 C8 1_555 1_555
C14 C2 1_555 1_555
C15 C14 1_555 1_555
H8 C15 1_555 1_555
C16 C15 1_555 1_555
H9 C16 1_555 1_555
C17 C16 1_555 1_555
C18 C17 1_555 1_555
H10 C18 1_555 1_555
C19 C14 1_555 1_555
H11 C19 1_555 1_555
C21 C4 1_555 1_555
C22 C21 1_555 1_555
H12 C22 1_555 1_555
C23 C22 1_555 1_555
H13 C23 1_555 1_555
C24 C23 1_555 1_555
C25 C24 1_555 1_555
H14 C25 1_555 1_555
C26 C21 1_555 1_555
H15 C26 1_555 1_555
C27 C24 1_555 1_555
C28 C5 1_555 1_555
C29 C28 1_555 1_555
H16 C29 1_555 1_555
C30 C29 1_555 1_555
H17 C30 1_555 1_555
C31 C30 1_555 1_555
C32 C31 1_555 1_555
H18 C32 1_555 1_555
C33 C28 1_555 1_555
H19 C33 1_555 1_555
C34 C31 1_555 1_555
C5 C6 1_555 1_555
C18 C19 1_555 1_555
C25 C26 1_555 1_555
C32 C33 1_555 1_555
O5 C27_2 1_555 1_555
O13 C27_2 1_555 1_555
O7 C34_2 1_555 1_555
O15 C34_2 1_555 1_555
C1_2 C2_2 1_555 1_555
C2_2 C3_2 1_555 1_555
C3_2 H2_2 1_555 1_555
C4_2 C3_2 1_555 1_555
C5_2 C4_2 1_555 1_555
C6_2 C1_2 1_555 1_555
H3_2 C6_2 1_555 1_555
C7_2 C1_2 1_555 1_555
C8_2 C7_2 1_555 1_555
H4_2 C8_2 1_555 1_555
C14_2 C2_2 1_555 1_555
C15_2 C14_2 1_555 1_555
H8_2 C15_2 1_555 1_555
C16_2 C15_2 1_555 1_555
H9_2 C16_2 1_555 1_555
C17_2 C16_2 1_555 1_555
C18_2 C17_2 1_555 1_555
H10_2 C18_2 1_555 1_555
C19_2 C14_2 1_555 1_555
H11_2 C19_2 1_555 1_555
C21_2 C4_2 1_555 1_555
C22_2 C21_2 1_555 1_555
H12_2 C22_2 1_555 1_555
C23_2 C22_2 1_555 1_555
H13_2 C23_2 1_555 1_555
C24_2 C23_2 1_555 1_555
C25_2 C24_2 1_555 1_555
H14_2 C25_2 1_555 1_555
C26_2 C21_2 1_555 1_555
H15_2 C26_2 1_555 1_555
C27_2 C24_2 1_555 1_555
C28_2 C5_2 1_555 1_555
C29_2 C28_2 1_555 1_555
H16_2 C29_2 1_555 1_555
C30_2 C29_2 1_555 1_555
H17_2 C30_2 1_555 1_555
C31_2 C30_2 1_555 1_555
C32_2 C31_2 1_555 1_555
H18_2 C32_2 1_555 1_555
C33_2 C28_2 1_555 1_555
H19_2 C33_2 1_555 1_555
C34_2 C31_2 1_555 1_555
C5_2 C6_2 1_555 1_555
C18_2 C19_2 1_555 1_555
C25_2 C26_2 1_555 1_555
C32_2 C33_2 1_555 1_555
Nd7 O1_2 1_555 1_555
O1_2 C13_2 1_555 1_555
O2_2 H1_2 1_555 1_555
O9 C20_2 1_555 1_555
H5_2 C9_2 1_555 1_555
C10_2 C9_2 1_555 1_555
C11_2 C10_2 1_555 1_555
H6_2 C11_2 1_555 1_555
H7_2 C12_2 1_555 1_555
C13_2 O2_2 1_555 1_555
C10_2 C13_2 1_555 1_555
C11_2 C12_2 1_555 1_555

#END
