
###############################################################################
#
# This file contains modified crystal structure data generated from the
# MOF subset of the Cambridge Structural Database (CSD) v543 
# hosted by the Cambridge Crystallographic Data Centre (CCDC).
#
# This work is licensed under the Creative Commons
# Attribution-NonCommercial-ShareAlike 4.0 International License.
# To view a copy of this license, visit
# http://creativecommons.org/licenses/by-nc-sa/4.0/
# or send a letter to
# Creative Commons, PO Box 1866, Mountain View, CA 94042, USA.
#
# CIF created using the CSD Python API on 29 September 2022
# The structure has been converted into the P1 space group
# The structure has a 3D framework
# The original CSD entry FODJAL is in the monoclinic crystal system
# The framework has been calculated to contain at least 10.0% void space
# The void calculation uses a probe of radius 1.32A, grid spacing 0.4
#
###############################################################################

data_FODJAL
_chemical_formula_moiety         '(C36 H28 Co4 N16 O8)n'
_symmetry_cell_setting           triclinic
_symmetry_space_group_name_H-M   'P 1'
_symmetry_Int_Tables_number      1
_space_group_name_Hall           'P 1'
loop_
_symmetry_equiv_pos_site_id
_symmetry_equiv_pos_as_xyz
1 x,y,z
_cell_length_a                   15.6644(13)
_cell_length_b                   9.5550(8)
_cell_length_c                   10.0249(8)
_cell_angle_alpha                90
_cell_angle_beta                 100.696(2)
_cell_angle_gamma                90
_cell_volume                     1474.39
loop_
_atom_site_label
_atom_site_type_symbol
_atom_site_fract_x
_atom_site_fract_y
_atom_site_fract_z
N2 N 0.0276(2) 0.3961(4) 0.6514(3)
N4 N 0.0817(3) 0.3234(5) 0.8768(4)
H1 H 0.1214 0.3866 0.8877
H2 H 0.0775 0.2669 0.9420
C9 C 0.0260(3) 0.3131(5) 0.7578(4)
Co4 Co 0.08551(3) 0.58117(5) 0.64298(5)
N10 N 0.9596(2) 0.1497(4) 0.0505(3)
Co1 Co 0.91449(3) 0.08117(5) 0.85702(5)
N1 N 0.9596(2) 0.3503(4) 0.5505(3)
N3 N 0.9610(2) 0.2171(4) 0.7329(3)
O1 O 0.7921(2) 0.1352(4) 0.8646(3)
O2 O 0.79565(19) 0.0291(4) 0.6723(3)
C1 C 0.7539(3) 0.0864(5) 0.7508(5)
C2 C 0.6573(3) 0.0995(5) 0.7132(5)
C3 C 0.6132(3) 0.0319(6) 0.5986(5)
C4 C 0.5238(3) 0.0394(7) 0.5589(6)
C5 C 0.4794(4) 0.1197(9) 0.6400(7)
H4 H 0.4192 0.1261 0.6176
C6 C 0.5231(4) 0.1908(10) 0.7542(7)
H5 H 0.4923 0.2468 0.8047
C7 C 0.6125(4) 0.1778(8) 0.7921(7)
H6 H 0.6417 0.2216 0.8702
C8 C 0.9234(3) 0.2470(4) 0.6032(4)
H7 H 0.8759 0.1980 0.5561
H8 H 0.3552 0.0205 0.4535
Co6 Co 0.91449(3) 0.41883(5) 0.35702(5)
N12 N 0.0276(2) 0.1039(4) 0.1514(3)
H3 H 0.6448 0.9795 0.5465
O3 O 0.2079(2) 0.8648(4) 0.1354(3)
O4 O 0.20435(19) 0.9709(4) 0.3277(3)
C10 C 0.2461(3) 0.9136(5) 0.2492(5)
C11 C 0.3427(3) 0.9005(5) 0.2868(5)
C12 C 0.3868(3) 0.9681(6) 0.4014(5)
C13 C 0.4762(3) 0.9606(7) 0.4411(6)
C14 C 0.5206(4) 0.8803(9) 0.3600(7)
H9 H 0.5808 0.8739 0.3824
C15 C 0.4769(4) 0.8092(10) 0.2458(7)
H10 H 0.5077 0.7532 0.1953
C16 C 0.3875(4) 0.8222(8) 0.2079(7)
H11 H 0.3583 0.7784 0.1298
Co2 Co 0.08551(3) 0.91883(5) 0.14298(5)
N5 N 0.0404(2) 0.6497(4) 0.4495(3)
N7 N 0.0390(2) 0.7829(4) 0.2671(3)
C17 C 0.0766(3) 0.7530(4) 0.3968(4)
H14 H 0.1241 0.8020 0.4439
N11 N 0.9724(2) 0.8961(4) 0.8486(3)
N9 N 0.0404(2) 0.8503(4) 0.9495(3)
N6 N 0.9724(2) 0.6039(4) 0.3486(3)
N8 N 0.9183(3) 0.6766(5) 0.1232(4)
H12 H 0.8786 0.6134 0.1123
H13 H 0.9225 0.7331 0.0580
C18 C 0.9740(3) 0.6869(5) 0.2422(4)
N8_2 N 0.0817(3) 0.1766(5) 0.3768(4)
H12_2 H 0.1214 0.1134 0.3877
H13_2 H 0.0775 0.2331 0.4420
C18_2 C 0.0260(3) 0.1869(5) 0.2578(4)
O3_2 O 0.7921(2) 0.3648(4) 0.3646(3)
O4_2 O 0.79565(19) 0.4709(4) 0.1723(3)
C10_2 C 0.7539(3) 0.4136(5) 0.2508(5)
C11_2 C 0.6573(3) 0.4005(5) 0.2132(5)
C12_2 C 0.6132(3) 0.4681(6) 0.0986(5)
H8_2 H 0.6448 0.5205 0.0465
C13_2 C 0.5238(3) 0.4606(7) 0.0589(6)
C14_2 C 0.4794(4) 0.3803(9) 0.1400(7)
H9_2 H 0.4192 0.3739 0.1176
C15_2 C 0.5231(4) 0.3092(10) 0.2542(7)
H10_2 H 0.4923 0.2532 0.3047
C16_2 C 0.6125(4) 0.3222(8) 0.2921(7)
H11_2 H 0.6417 0.2784 0.3702
N7_2 N 0.9610(2) 0.2829(4) 0.2329(3)
C17_2 C 0.9234(3) 0.2530(4) 0.1032(4)
H14_2 H 0.8759 0.3020 0.0561
N3_2 N 0.0390(2) 0.7171(4) 0.7671(3)
O1_2 O 0.2079(2) 0.6352(4) 0.6354(3)
O2_2 O 0.20435(19) 0.5291(4) 0.8277(3)
C1_2 C 0.2461(3) 0.5864(5) 0.7492(5)
C2_2 C 0.3427(3) 0.5995(5) 0.7868(5)
C3_2 C 0.3868(3) 0.5319(6) 0.9014(5)
H3_2 H 0.3552 0.4795 0.9535
C4_2 C 0.4762(3) 0.5394(7) 0.9411(6)
C5_2 C 0.5206(4) 0.6197(9) 0.8600(7)
H4_2 H 0.5808 0.6261 0.8824
C6_2 C 0.4769(4) 0.6908(10) 0.7458(7)
H5_2 H 0.5077 0.7468 0.6953
C7_2 C 0.3875(4) 0.6778(8) 0.7079(7)
H6_2 H 0.3583 0.7216 0.6298
C8_2 C 0.0766(3) 0.7470(4) 0.8968(4)
H7_2 H 0.1241 0.6980 0.9439
N4_2 N 0.9183(3) 0.8234(5) 0.6232(4)
H1_2 H 0.8786 0.8866 0.6123
H2_2 H 0.9225 0.7669 0.5580
C9_2 C 0.9740(3) 0.8131(5) 0.7422(4)
loop_
_geom_bond_atom_site_label_1
_geom_bond_atom_site_label_2
_geom_bond_site_symmetry_1
_geom_bond_site_symmetry_2
N2 C9 1_555 1_555
N4 H1 1_555 1_555
H2 N4 1_555 1_555
Co4 N2 1_555 1_555
N4 C9 1_555 1_555
Co1 N3 1_555 1_555
N3 C8 1_555 1_555
O1 Co1 1_555 1_555
O2 Co1 1_555 1_555
C1 O1 1_555 1_555
C2 C1 1_555 1_555
C3 C2 1_555 1_555
C4 C3 1_555 1_555
C5 C4 1_555 1_555
H4 C5 1_555 1_555
C6 C5 1_555 1_555
H5 C6 1_555 1_555
C7 C2 1_555 1_555
H6 C7 1_555 1_555
C8 N1 1_555 1_555
H7 C8 1_555 1_555
Co6 N1 1_555 1_555
O2 C1 1_555 1_555
C6 C7 1_555 1_555
O3 C10 1_555 1_555
O4 C10 1_555 1_555
C10 C11 1_555 1_555
C11 C12 1_555 1_555
C14 C13 1_555 1_555
H9 C14 1_555 1_555
C15 C14 1_555 1_555
H10 C15 1_555 1_555
C16 C11 1_555 1_555
H11 C16 1_555 1_555
Co2 O3 1_555 1_555
N7 Co2 1_555 1_555
C17 N5 1_555 1_555
H14 C17 1_555 1_555
Co4 N5 1_555 1_555
O4 Co2 1_555 1_555
C12 C13 1_555 1_555
C15 C16 1_555 1_555
N7 C17 1_555 1_555
N6 C18 1_555 1_555
N8 H12 1_555 1_555
H13 N8 1_555 1_555
Co6 N6 1_555 1_555
N8 C18 1_555 1_555
N12 C18_2 1_555 1_555
N8_2 H12_2 1_555 1_555
H13_2 N8_2 1_555 1_555
N8_2 C18_2 1_555 1_555
O3_2 C10_2 1_555 1_555
O4_2 C10_2 1_555 1_555
C10_2 C11_2 1_555 1_555
C11_2 C12_2 1_555 1_555
C12_2 H8_2 1_555 1_555
C14_2 C13_2 1_555 1_555
H9_2 C14_2 1_555 1_555
C15_2 C14_2 1_555 1_555
H10_2 C15_2 1_555 1_555
C16_2 C11_2 1_555 1_555
H11_2 C16_2 1_555 1_555
Co6 O3_2 1_555 1_555
N7_2 Co6 1_555 1_555
C17_2 N10 1_555 1_555
H14_2 C17_2 1_555 1_555
O4_2 Co6 1_555 1_555
C12_2 C13_2 1_555 1_555
C15_2 C16_2 1_555 1_555
N7_2 C17_2 1_555 1_555
Co4 N3_2 1_555 1_555
N3_2 C8_2 1_555 1_555
O1_2 Co4 1_555 1_555
O2_2 Co4 1_555 1_555
C1_2 O1_2 1_555 1_555
C2_2 C1_2 1_555 1_555
C3_2 C2_2 1_555 1_555
H3_2 C3_2 1_555 1_555
C4_2 C3_2 1_555 1_555
C5_2 C4_2 1_555 1_555
H4_2 C5_2 1_555 1_555
C6_2 C5_2 1_555 1_555
H5_2 C6_2 1_555 1_555
C7_2 C2_2 1_555 1_555
H6_2 C7_2 1_555 1_555
C8_2 N9 1_555 1_555
H7_2 C8_2 1_555 1_555
O2_2 C1_2 1_555 1_555
C6_2 C7_2 1_555 1_555
N11 C9_2 1_555 1_555
N4_2 H1_2 1_555 1_555
H2_2 N4_2 1_555 1_555
N4_2 C9_2 1_555 1_555

#END
