
###############################################################################
#
# This file contains modified crystal structure data generated from the
# MOF subset of the Cambridge Structural Database (CSD) v543 
# hosted by the Cambridge Crystallographic Data Centre (CCDC).
#
# This work is licensed under the Creative Commons
# Attribution-NonCommercial-ShareAlike 4.0 International License.
# To view a copy of this license, visit
# http://creativecommons.org/licenses/by-nc-sa/4.0/
# or send a letter to
# Creative Commons, PO Box 1866, Mountain View, CA 94042, USA.
#
# CIF created using the CSD Python API on 29 September 2022
# The structure has been converted into the P1 space group
# The structure has a 3D framework
# The original CSD entry FOFDUC is in the tetragonal crystal system
# The framework has been calculated to contain at least 10.0% void space
# The void calculation uses a probe of radius 1.32A, grid spacing 0.4
# H atom positions have been added when not included in the experimental data
# Generated hydrogen atom positions removed from atoms on special positions
#
###############################################################################

data_FOFDUC
_chemical_formula_moiety         '(C40 H64 Fe6 N32 Nb8 O16)n'
_symmetry_cell_setting           triclinic
_symmetry_space_group_name_H-M   'P 1'
_symmetry_Int_Tables_number      1
_space_group_name_Hall           'P 1'
loop_
_symmetry_equiv_pos_site_id
_symmetry_equiv_pos_as_xyz
1 x,y,z
_cell_length_a                   11.8782(12)
_cell_length_b                   11.8782(12)
_cell_length_c                   13.2770(14)
_cell_angle_alpha                90
_cell_angle_beta                 90
_cell_angle_gamma                90
_cell_volume                     1873.27
loop_
_atom_site_label
_atom_site_type_symbol
_atom_site_fract_x
_atom_site_fract_y
_atom_site_fract_z
Nb4 Nb 0.000000 0.000000 0.25426(16)
Nb4_2 Nb 0.000000 1.000000 0.25426(16)
Fe5 Fe 0.31722(6) 0.81722(6) 0.0031(2)
Fe6 Fe 0.68278(6) 0.18278(6) 0.0031(2)
Nb1 Nb 0.500000 0.500000 0.75426(16)
C1 C 0.1505(10) 0.0612(13) 0.3425(8)
N1 N 0.2255(8) 0.0901(9) 0.3886(8)
O1 O 0.4337(5) 0.0663(5) 0.4815(14)
Fe1 Fe 0.31722(6) 0.18278(6) 0.5031(2)
N2 N 0.3937(8) 0.2876(9) 0.6126(7)
C2 C 0.4370(12) 0.3567(9) 0.6615(8)
C3 C 0.500000 0.000000 0.5209(12)
H1 H 0.500000 0.000000 0.590992
O2 O 0.1875(5) 0.3125(5) 0.4855(10)
N5 N 0.7124(9) 0.3937(8) 0.6126(7)
C6 C 0.6433(9) 0.4370(12) 0.6615(8)
C7 C 0.4388(13) 0.6505(10) 0.8425(8)
N6 N 0.4099(9) 0.7255(8) 0.8886(8)
C8 C 0.5612(13) 0.3495(10) 0.8425(8)
N7 N 0.5901(9) 0.2745(8) 0.8886(8)
N8 N 0.2876(9) 0.6063(8) 0.6126(7)
C9 C 0.3567(9) 0.5630(12) 0.6615(8)
Nb4_3 Nb 1.000000 0.000000 0.25426(16)
C10 C 0.6505(10) 0.5612(13) 0.8425(8)
C11 C 0.3495(10) 0.4388(13) 0.8425(8)
N9 N 0.4099(9) 0.2745(8) 0.3886(8)
Fe3 Fe 0.81722(6) 0.31722(6) 0.5031(2)
Fe4 Fe 0.18278(6) 0.68278(6) 0.5031(2)
N11 N 0.2124(9) 0.1063(8) 0.6126(7)
C12 C 0.5630(12) 0.6433(9) 0.6615(8)
C3_2 C 0.500000 1.000000 0.5209(12)
H1_2 H 0.500000 1.000000 0.590992
O3 O 0.5663(5) 0.9337(5) 0.4815(14)
C4 C 0.8495(10) 0.9388(13) 0.3425(8)
N3 N 0.7745(8) 0.9099(9) 0.3886(8)
Fe2 Fe 0.68278(6) 0.81722(6) 0.5031(2)
N4 N 0.6063(8) 0.7124(9) 0.6126(7)
O4 O 0.8125(5) 0.6875(5) 0.4855(10)
Nb4_4 Nb 1.000000 1.000000 0.25426(16)
N10 N 0.5901(9) 0.7255(8) 0.3886(8)
N12 N 0.7876(9) 0.8937(8) 0.6126(7)
C3_3 C 0.000000 0.500000 0.5209(12)
H1_3 H -0.000000 0.500000 0.590992
O3_2 O 0.0663(5) 0.5663(5) 0.4815(14)
C4_2 C 0.0612(13) 0.8495(10) 0.3425(8)
N3_2 N 0.0901(9) 0.7745(8) 0.3886(8)
O4_2 O 0.3125(5) 0.8125(5) 0.4855(10)
N10_2 N 0.2745(8) 0.5901(9) 0.3886(8)
N12_2 N 0.1063(8) 0.7876(9) 0.6126(7)
Fe5_2 Fe 0.18278(6) 0.31722(6) 0.0031(2)
Fe6_2 Fe 0.81722(6) 0.68278(6) 0.0031(2)
C1_2 C 0.9388(13) 0.1505(10) 0.3425(8)
N1_2 N 0.9099(9) 0.2255(8) 0.3886(8)
O1_2 O 0.9337(5) 0.4337(5) 0.4815(14)
C3_4 C 1.000000 0.500000 0.5209(12)
H1_4 H 1.000000 0.500000 0.590992
O2_2 O 0.6875(5) 0.1875(5) 0.4855(10)
N6_2 N 0.2745(8) 0.4099(9) 0.8886(8)
N7_2 N 0.7255(8) 0.5901(9) 0.8886(8)
N9_2 N 0.7255(8) 0.4099(9) 0.3886(8)
N11_2 N 0.8937(8) 0.2124(9) 0.6126(7)
Nb4_5 Nb 0.000000 0.000000 0.75426(16)
Nb4_6 Nb 0.000000 1.000000 0.75426(16)
C3_5 C 0.500000 -0.000000 0.0209(12)
H1_5 H 0.500000 0.000000 0.090992
N4_2 N 0.6063(8) 0.2876(9) 0.1126(7)
C5 C 0.5630(12) 0.3567(9) 0.1615(8)
Nb2 Nb 0.500000 0.500000 0.25426(16)
N12_3 N 0.7876(9) 0.1063(8) 0.1126(7)
H5 H 0.838034 0.338034 0.0529535
O3_3 O 0.5663(5) 0.0663(5) 0.9815(14)
C4_3 C 0.8495(10) 0.0612(13) 0.8425(8)
N3_3 N 0.7745(8) 0.0901(9) 0.8886(8)
O4_3 O 0.8125(5) 0.3125(5) 0.9855(10)
Nb4_7 Nb 1.000000 0.000000 0.75426(16)
H4 H 0.877386 0.280855 0.947786
N2_2 N 0.3937(8) 0.7124(9) 0.1126(7)
C2_2 C 0.4370(12) 0.6433(9) 0.1615(8)
C3_6 C 0.500000 1.000000 0.0209(12)
H1_6 H 0.500000 1.000000 0.090992
N5_2 N 0.7124(9) 0.6063(8) 0.1126(7)
C6_2 C 0.6433(9) 0.5630(12) 0.1615(8)
C7_2 C 0.4388(13) 0.3495(10) 0.3425(8)
C8_2 C 0.5612(13) 0.6505(10) 0.3425(8)
N8_2 N 0.2876(9) 0.3937(8) 0.1126(7)
C9_2 C 0.3567(9) 0.4370(12) 0.1615(8)
C10_2 C 0.6505(10) 0.4388(13) 0.3425(8)
C11_2 C 0.3495(10) 0.5612(13) 0.3425(8)
N11_3 N 0.2124(9) 0.8937(8) 0.1126(7)
H2 H 0.112644 0.71996 0.00179185
H3 H 0.203631 0.623882 0.0318254
C1_3 C 0.1505(10) 0.9388(13) 0.8425(8)
N1_3 N 0.2255(8) 0.9099(9) 0.8886(8)
O1_3 O 0.4337(5) 0.9337(5) 0.9815(14)
O2_3 O 0.1875(5) 0.6875(5) 0.9855(10)
Nb4_8 Nb 1.000000 1.000000 0.75426(16)
H2_2 H 0.887356 0.28004 0.00179185
H3_2 H 0.796369 0.376118 0.0318254
H5_2 H 0.161966 0.661966 0.0529535
H4_2 H 0.122614 0.719145 0.947786
C3_7 C -0.000000 0.500000 0.0209(12)
H1_7 H 0.000000 0.500000 0.090992
N12_4 N 0.1063(8) 0.2124(9) 0.1126(7)
H5_3 H 0.338034 0.161966 0.0529535
O3_4 O 0.0663(5) 0.4337(5) 0.9815(14)
C4_4 C 0.0612(13) 0.1505(10) 0.8425(8)
N3_4 N 0.0901(9) 0.2255(8) 0.8886(8)
O4_4 O 0.3125(5) 0.1875(5) 0.9855(10)
H4_3 H 0.280855 0.122614 0.947786
C3_8 C 1.000000 0.500000 0.0209(12)
H1_8 H 1.000000 0.500000 0.090992
N11_4 N 0.8937(8) 0.7876(9) 0.1126(7)
H2_3 H 0.71996 0.887356 0.00179185
H3_3 H 0.623882 0.796369 0.0318254
C1_4 C 0.9388(13) 0.8495(10) 0.8425(8)
N1_4 N 0.9099(9) 0.7745(8) 0.8886(8)
O1_4 O 0.9337(5) 0.5663(5) 0.9815(14)
O2_4 O 0.6875(5) 0.8125(5) 0.9855(10)
H2_4 H 0.28004 0.112644 0.00179185
H3_4 H 0.376118 0.203631 0.0318254
H5_4 H 0.661966 0.838034 0.0529535
H4_4 H 0.719145 0.877386 0.947786
C12_2 C 0.0630(12) 0.1433(9) 0.1615(8)
C6_3 C 0.1433(9) 0.9370(12) 0.1615(8)
H4_5 H 0.377386 0.219145 0.947786
C9_3 C 0.8567(9) 0.0630(12) 0.1615(8)
C2_3 C 0.9370(12) 0.8567(9) 0.1615(8)
H2_5 H 0.612644 0.78004 0.00179185
H3_5 H 0.703631 0.876118 0.0318254
H2_6 H 0.387356 0.21996 0.00179185
H3_6 H 0.296369 0.123882 0.0318254
H4_6 H 0.622614 0.780855 0.947786
H4_7 H 0.780855 0.377386 0.947786
H2_7 H 0.21996 0.612644 0.00179185
H3_7 H 0.123882 0.703631 0.0318254
H2_8 H 0.78004 0.387356 0.00179185
H3_8 H 0.876118 0.296369 0.0318254
H4_8 H 0.219145 0.622614 0.947786
C5_2 C 0.0630(12) 0.8567(9) 0.6615(8)
C6_4 C 0.1433(9) 0.0630(12) 0.6615(8)
C2_4 C 0.9370(12) 0.1433(9) 0.6615(8)
C9_4 C 0.8567(9) 0.9370(12) 0.6615(8)
loop_
_geom_bond_atom_site_label_1
_geom_bond_atom_site_label_2
_geom_bond_site_symmetry_1
_geom_bond_site_symmetry_2
Nb1 C2 1_555 1_555
C1 N1 1_555 1_555
N1 Fe1 1_555 1_555
O1 Fe1 1_555 1_555
Fe1 N2 1_555 1_555
N2 C2 1_555 1_555
C3 O1 1_555 1_555
H1 C3 1_555 1_555
O2 Fe1 1_555 1_555
N5 C6 1_555 1_555
C6 Nb1 1_555 1_555
C7 Nb1 1_555 1_555
N6 C7 1_555 1_555
C8 Nb1 1_555 1_555
N7 C8 1_555 1_555
N8 C9 1_555 1_555
C9 Nb1 1_555 1_555
Nb4 C1 1_555 1_555
C10 Nb1 1_555 1_555
C11 Nb1 1_555 1_555
N9 Fe1 1_555 1_555
Fe3 N5 1_555 1_555
Fe4 N8 1_555 1_555
N11 Fe1 1_555 1_555
C12 Nb1 1_555 1_555
H1_2 C3_2 1_555 1_555
O3 C3_2 1_555 1_555
C4 N3 1_555 1_555
N3 Fe2 1_555 1_555
Fe2 O3 1_555 1_555
N4 Fe2 1_555 1_555
C12 N4 1_555 1_555
O4 Fe2 1_555 1_555
Nb4_4 C4 1_555 1_555
N10 Fe2 1_555 1_555
N12 Fe2 1_555 1_555
H1_3 C3_3 1_555 1_555
O3_2 C3_3 1_555 1_555
C4_2 N3_2 1_555 1_555
N3_2 Fe4 1_555 1_555
Fe4 O3_2 1_555 1_555
O4_2 Fe4 1_555 1_555
Nb4_2 C4_2 1_555 1_555
N10_2 Fe4 1_555 1_555
N12_2 Fe4 1_555 1_555
C1_2 N1_2 1_555 1_555
N1_2 Fe3 1_555 1_555
O1_2 Fe3 1_555 1_555
C3_4 O1_2 1_555 1_555
H1_4 C3_4 1_555 1_555
O2_2 Fe3 1_555 1_555
N6_2 C11 1_555 1_555
N7_2 C10 1_555 1_555
Nb4_3 C1_2 1_555 1_555
N9_2 Fe3 1_555 1_555
N11_2 Fe3 1_555 1_555
H1_5 C3_5 1_555 1_555
N4_2 Fe6 1_555 1_555
C5 N4_2 1_555 1_555
Nb2 C5 1_555 1_555
N12_3 Fe6 1_555 1_555
C4_3 N3_3 1_555 1_555
Nb4_7 C4_3 1_555 1_555
O4_3 H4 1_555 1_555
Nb2 C2_2 1_555 1_555
Fe5 N2_2 1_555 1_555
N2_2 C2_2 1_555 1_555
H1_6 C3_6 1_555 1_555
N5_2 C6_2 1_555 1_555
C6_2 Nb2 1_555 1_555
C7_2 Nb2 1_555 1_555
N9 C7_2 1_555 1_555
C8_2 Nb2 1_555 1_555
N10 C8_2 1_555 1_555
N8_2 C9_2 1_555 1_555
C9_2 Nb2 1_555 1_555
C10_2 Nb2 1_555 1_555
C11_2 Nb2 1_555 1_555
Fe6_2 N5_2 1_555 1_555
Fe5_2 N8_2 1_555 1_555
N11_3 Fe5 1_555 1_555
C1_3 N1_3 1_555 1_555
Nb4_6 C1_3 1_555 1_555
O2_3 H4_2 1_555 1_555
H1_7 C3_7 1_555 1_555
N12_4 Fe5_2 1_555 1_555
C4_4 N3_4 1_555 1_555
Nb4_5 C4_4 1_555 1_555
O4_4 H4_3 1_555 1_555
H1_8 C3_8 1_555 1_555
N10_2 C11_2 1_555 1_555
N9_2 C10_2 1_555 1_555
N11_4 Fe6_2 1_555 1_555
C1_4 N1_4 1_555 1_555
Nb4_8 C1_4 1_555 1_555
O2_4 H4_4 1_555 1_555
C12_2 Nb4 1_555 1_555
C12_2 N12_4 1_555 1_555
N11_3 C6_3 1_555 1_555
C6_3 Nb4_2 1_555 1_555
O4_4 H4_5 1_555 1_555
N12_3 C9_3 1_555 1_555
C9_3 Nb4_3 1_555 1_555
Nb4_4 C2_3 1_555 1_555
N11_4 C2_3 1_555 1_555
O2_4 H4_6 1_555 1_555
O4_3 H4_7 1_555 1_555
O2_3 H4_8 1_555 1_555
C5_2 N12_2 1_555 1_555
N11 C6_4 1_555 1_555
C6_4 Nb4_5 1_555 1_555
Nb4_6 C5_2 1_555 1_555
Nb4_7 C2_4 1_555 1_555
N11_2 C2_4 1_555 1_555
N12 C9_4 1_555 1_555
C9_4 Nb4_8 1_555 1_555

#END
