
###############################################################################
#
# This file contains modified crystal structure data generated from the
# MOF subset of the Cambridge Structural Database (CSD) v543 
# hosted by the Cambridge Crystallographic Data Centre (CCDC).
#
# This work is licensed under the Creative Commons
# Attribution-NonCommercial-ShareAlike 4.0 International License.
# To view a copy of this license, visit
# http://creativecommons.org/licenses/by-nc-sa/4.0/
# or send a letter to
# Creative Commons, PO Box 1866, Mountain View, CA 94042, USA.
#
# CIF created using the CSD Python API on 29 September 2022
# The structure has been converted into the P1 space group
# The structure has a 3D framework
# The original CSD entry FOGGEQ is in the trigonal crystal system
# The framework has been calculated to contain at least 10.0% void space
# The void calculation uses a probe of radius 1.32A, grid spacing 0.4
#
###############################################################################

data_FOGGEQ
_chemical_formula_moiety         '(C138 H78 Eu12 N6 O30)n'
_symmetry_cell_setting           triclinic
_symmetry_space_group_name_H-M   'P 1'
_symmetry_Int_Tables_number      1
_space_group_name_Hall           'P 1'
loop_
_symmetry_equiv_pos_site_id
_symmetry_equiv_pos_as_xyz
1 x,y,z
_cell_length_a                   16.0860(16)
_cell_length_b                   16.0860(16)
_cell_length_c                   18.6601(16)
_cell_angle_alpha                90
_cell_angle_beta                 90
_cell_angle_gamma                120
_cell_volume                     4181.58
loop_
_atom_site_label
_atom_site_type_symbol
_atom_site_fract_x
_atom_site_fract_y
_atom_site_fract_z
Eu16 Eu -0.0000 0.5000 -0.0000
H18 H 0.0097 0.2820 0.4375
H19 H 0.0101 0.2738 0.5619
Eu16_2 Eu -0.0000 0.5000 1.0000
O44 O 0.0817(21) 0.4826(14) 0.0899(6)
O46 O 0.164(3) 0.659(2) 0.0002(11)
O32 O 0.0834(21) 0.4808(14) 0.9116(6)
H44 H 0.7277 0.0097 0.5625
H45 H 0.7363 0.0101 0.4381
Eu6 Eu 0.6667 0.3333 -0.00004(4)
Eu11 Eu 0.5000 0.5000 -0.0000
Eu13 Eu 0.5000 -0.0000 -0.0000
Eu16_3 Eu 1.0000 0.5000 -0.0000
C1 C 0.4747(7) 0.3018(7) 0.5761(5)
C2 C 0.4219(6) 0.2148(7) 0.5377(5)
C3 C 0.4223(6) 0.2156(7) 0.4612(5)
C4 C 0.4741(7) 0.3021(8) 0.4234(5)
C5 C 0.4777(7) 0.3075(7) 0.6558(5)
N1 N 0.3610(7) 0.1296(7) 0.4242(5)
C6 C 0.4778(7) 0.3070(7) 0.3442(5)
C7 C 0.3605(7) 0.1283(7) 0.5737(5)
H1 H 0.3584 0.1273 0.6246
O1 O 0.5532(9) 0.3169(9) 0.0851(4)
C8 C 0.5268(7) 0.3844(8) 0.5373(5)
H2 H 0.5647 0.4434 0.5618
C9 C 0.5081(8) 0.2559(9) 0.3037(5)
H3 H 0.5194 0.2090 0.3254
C10 C 0.5252(8) 0.3833(8) 0.4638(6)
H4 H 0.5618 0.4426 0.4393
C11 C 0.3087(8) 0.0491(8) 0.4625(6)
C12 C 0.3051(9) 0.0477(9) 0.5372(6)
C13 C 0.4506(9) 0.3650(10) 0.3101(6)
H7 H 0.4258 0.3973 0.3377
C14 C 0.4955(9) 0.3308(10) 0.1958(6)
C15 C 0.4942(9) 0.3285(10) 0.8030(6)
C16 C 0.5205(10) 0.2703(11) 0.7695(5)
H8 H 0.5474 0.2395 0.7966
C17 C 0.4488(9) 0.3631(9) 0.6906(6)
H9 H 0.4218 0.3940 0.6637
C18 C 0.5220(10) 0.2736(11) 0.2309(5)
H10 H 0.5513 0.2446 0.2044
C19 C 0.4584(10) 0.3778(11) 0.2363(6)
H11 H 0.4386 0.4180 0.2137
C20 C 0.4575(10) 0.3756(11) 0.7631(6)
H12 H 0.4387 0.4163 0.7861
O2 O 0.4808(14) 0.3974(15) 0.0884(6)
C21 C 0.5069(15) 0.3450(17) 0.1180(8)
C22 C 0.5084(8) 0.2553(9) 0.6958(5)
H13 H 0.5211 0.2099 0.6732
O3 O 0.5538(8) 0.3173(8) 0.9149(4)
O4 O 0.4826(14) 0.4009(15) 0.9101(6)
C23 C 0.5094(14) 0.3450(16) 0.8824(8)
C24 C 0.6982(7) 0.1729(10) 0.5761(5)
C25 C 0.7852(7) 0.2071(9) 0.5377(5)
C26 C 0.7844(7) 0.2067(9) 0.4612(5)
C27 C 0.6979(8) 0.1720(11) 0.4234(5)
C28 C 0.6925(7) 0.1702(10) 0.6558(5)
N2 N 0.8704(7) 0.2314(10) 0.4242(5)
C29 C 0.6930(7) 0.1708(10) 0.3442(5)
C30 C 0.8717(7) 0.2322(10) 0.5737(5)
H14 H 0.8727 0.2311 0.6246
O6 O 0.6831(9) 0.2363(13) 0.0851(4)
C31 C 0.6156(8) 0.1424(11) 0.5373(5)
H15 H 0.5566 0.1213 0.5618
C32 C 0.7441(9) 0.2522(12) 0.3037(5)
H16 H 0.7910 0.3104 0.3254
C33 C 0.6167(8) 0.1419(11) 0.4638(6)
H17 H 0.5574 0.1192 0.4393
C34 C 0.9509(8) 0.2596(11) 0.4625(6)
C35 C 0.9523(9) 0.2574(13) 0.5372(6)
C36 C 0.6350(10) 0.0856(13) 0.3101(6)
H20 H 0.6027 0.0285 0.3377
C37 C 0.6692(10) 0.1647(13) 0.1958(6)
C38 C 0.6715(10) 0.1657(13) 0.8030(6)
C39 C 0.7297(11) 0.2502(15) 0.7695(5)
H21 H 0.7605 0.3079 0.7966
C40 C 0.6369(9) 0.0857(13) 0.6906(6)
H22 H 0.6060 0.0278 0.6637
C41 C 0.7264(11) 0.2484(15) 0.2309(5)
H23 H 0.7554 0.3067 0.2044
C42 C 0.6222(11) 0.0806(15) 0.2363(6)
H24 H 0.5820 0.0206 0.2137
C43 C 0.6244(11) 0.0819(15) 0.7631(6)
H25 H 0.5837 0.0224 0.7861
O7 O 0.6026(15) 0.0834(21) 0.0884(6)
C44 C 0.6550(17) 0.1619(23) 0.1180(8)
C45 C 0.7447(9) 0.2531(12) 0.6958(5)
H26 H 0.7901 0.3112 0.6732
O8 O 0.6827(8) 0.2365(11) 0.9149(4)
O9 O 0.5991(15) 0.0817(21) 0.9101(6)
C46 C 0.6550(16) 0.1644(21) 0.8824(8)
C47 C 0.8271(10) 0.5253(7) 0.5761(5)
C48 C 0.7929(9) 0.5781(6) 0.5377(5)
C49 C 0.7933(9) 0.5777(6) 0.4612(5)
C50 C 0.8280(11) 0.5259(7) 0.4234(5)
C51 C 0.8298(10) 0.5223(7) 0.6558(5)
N3 N 0.7686(10) 0.6390(7) 0.4242(5)
C52 C 0.8292(10) 0.5222(7) 0.3442(5)
C53 C 0.7678(10) 0.6395(7) 0.5737(5)
H27 H 0.7689 0.6416 0.6246
O11 O 0.7637(13) 0.4468(9) 0.0851(4)
C54 C 0.8576(11) 0.4732(7) 0.5373(5)
H28 H 0.8787 0.4353 0.5618
C55 C 0.7478(12) 0.4919(8) 0.3037(5)
H29 H 0.6896 0.4806 0.3254
C56 C 0.8581(11) 0.4748(8) 0.4638(6)
H30 H 0.8808 0.4382 0.4393
C57 C 0.7404(11) 0.6913(8) 0.4625(6)
H31 H 0.7180 0.7277 0.4375
C58 C 0.7426(13) 0.6949(9) 0.5372(6)
H32 H 0.7262 0.7363 0.5619
C59 C 0.9144(13) 0.5494(9) 0.3101(6)
H33 H 0.9715 0.5742 0.3377
C60 C 0.8353(13) 0.5045(9) 0.1958(6)
C61 C 0.8343(13) 0.5058(9) 0.8030(6)
C62 C 0.7498(15) 0.4795(10) 0.7695(5)
H34 H 0.6921 0.4526 0.7966
C63 C 0.9143(13) 0.5512(9) 0.6906(6)
H35 H 0.9722 0.5782 0.6637
C64 C 0.7516(15) 0.4780(10) 0.2309(5)
H36 H 0.6933 0.4487 0.2044
C65 C 0.9194(15) 0.5416(10) 0.2363(6)
H37 H 0.9794 0.5614 0.2137
C66 C 0.9181(15) 0.5425(10) 0.7631(6)
H38 H 0.9776 0.5613 0.7861
O12 O 0.9166(21) 0.5192(14) 0.0884(6)
C67 C 0.8381(23) 0.4931(15) 0.1180(8)
C68 C 0.7469(12) 0.4916(8) 0.6958(5)
H39 H 0.6888 0.4789 0.6732
O13 O 0.7635(11) 0.4462(8) 0.9149(4)
O14 O 0.9183(21) 0.5174(14) 0.9101(6)
C69 C 0.8356(21) 0.4906(14) 0.8824(8)
Eu5 Eu 0.3333 0.6667 0.00004(4)
O20 O 0.341(2) 0.505(2) 0.0002(11)
Eu6_2 Eu 0.6667 0.3333 0.99996(4)
Eu11_2 Eu 0.5000 0.5000 1.0000
Eu13_2 Eu 0.5000 -0.0000 1.0000
Eu16_4 Eu 1.0000 0.5000 1.0000
O36 O 0.4462(8) 0.6827(8) 0.0851(4)
O37 O 0.3173(8) 0.7635(11) 0.0851(4)
O38 O 0.2365(11) 0.5538(8) 0.0851(4)
O42 O 0.5174(14) 0.5991(15) 0.0899(6)
O45 O 0.495(2) 0.836(3) 0.0002(11)
O5 O 0.659(2) 0.495(2) 0.9998(11)
O10 O 0.505(2) 0.164(3) 0.9998(11)
O15 O 0.836(3) 0.341(2) 0.9998(11)
Eu5_2 Eu 0.3333 0.6667 1.00004(4)
C70 C 0.5253(7) 0.6982(7) 0.4239(5)
C71 C 0.5781(6) 0.7852(7) 0.4623(5)
C72 C 0.5777(6) 0.7844(7) 0.5388(5)
C73 C 0.5259(7) 0.6979(8) 0.5766(5)
C74 C 0.5223(7) 0.6925(7) 0.3442(5)
N4 N 0.6390(7) 0.8704(7) 0.5758(5)
C75 C 0.5222(7) 0.6930(7) 0.6558(5)
C76 C 0.6395(7) 0.8717(7) 0.4263(5)
H40 H 0.6416 0.8727 0.3754
O16 O 0.4468(9) 0.6831(9) 0.9149(4)
C77 C 0.4732(7) 0.6156(8) 0.4627(5)
H41 H 0.4353 0.5566 0.4382
C78 C 0.4919(8) 0.7441(9) 0.6963(5)
H42 H 0.4806 0.7910 0.6746
C79 C 0.4748(8) 0.6167(8) 0.5362(6)
H43 H 0.4382 0.5574 0.5607
C80 C 0.6913(8) 0.9509(8) 0.5375(6)
C81 C 0.6949(9) 0.9523(9) 0.4628(6)
C82 C 0.5494(9) 0.6350(10) 0.6899(6)
H46 H 0.5742 0.6027 0.6623
C83 C 0.5045(9) 0.6692(10) 0.8042(6)
C84 C 0.5058(9) 0.6715(10) 0.1970(6)
C85 C 0.4795(10) 0.7297(11) 0.2305(5)
H47 H 0.4526 0.7605 0.2034
C86 C 0.5512(9) 0.6369(9) 0.3094(6)
H48 H 0.5782 0.6060 0.3363
C87 C 0.4780(10) 0.7264(11) 0.7691(5)
H49 H 0.4487 0.7554 0.7956
C88 C 0.5416(10) 0.6222(11) 0.7637(6)
H50 H 0.5614 0.5820 0.7863
C89 C 0.5425(10) 0.6244(11) 0.2369(6)
H51 H 0.5613 0.5837 0.2139
O17 O 0.5192(14) 0.6026(15) 0.9116(6)
C90 C 0.4931(15) 0.6550(17) 0.8820(8)
C91 C 0.4916(8) 0.7447(9) 0.3042(5)
H52 H 0.4789 0.7901 0.3268
C92 C 0.4906(14) 0.6550(16) 0.1176(8)
C116 C 0.1729(10) 0.4747(7) 0.4239(5)
C117 C 0.2071(9) 0.4219(6) 0.4623(5)
C118 C 0.2067(9) 0.4223(6) 0.5388(5)
C119 C 0.1720(11) 0.4741(7) 0.5766(5)
C120 C 0.1702(10) 0.4777(7) 0.3442(5)
N6 N 0.2314(10) 0.3610(7) 0.5758(5)
C121 C 0.1708(10) 0.4778(7) 0.6558(5)
C122 C 0.2322(10) 0.3605(7) 0.4263(5)
H66 H 0.2311 0.3584 0.3754
O26 O 0.2363(13) 0.5532(9) 0.9149(4)
C123 C 0.1424(11) 0.5268(7) 0.4627(5)
H67 H 0.1213 0.5647 0.4382
C124 C 0.2522(12) 0.5081(8) 0.6963(5)
H68 H 0.3104 0.5194 0.6746
C125 C 0.1419(11) 0.5252(8) 0.5362(6)
H69 H 0.1192 0.5618 0.5607
C126 C 0.2596(11) 0.3087(8) 0.5375(6)
H70 H 0.2820 0.2723 0.5625
C127 C 0.2574(13) 0.3051(9) 0.4628(6)
H71 H 0.2738 0.2637 0.4381
C128 C 0.0856(13) 0.4506(9) 0.6899(6)
H72 H 0.0285 0.4258 0.6623
C129 C 0.1647(13) 0.4955(9) 0.8042(6)
C130 C 0.1657(13) 0.4942(9) 0.1970(6)
C131 C 0.2502(15) 0.5205(10) 0.2305(5)
H73 H 0.3079 0.5474 0.2034
C132 C 0.0857(13) 0.4488(9) 0.3094(6)
H74 H 0.0278 0.4218 0.3363
C133 C 0.2484(15) 0.5220(10) 0.7691(5)
H75 H 0.3067 0.5513 0.7956
C134 C 0.0806(15) 0.4584(10) 0.7637(6)
H76 H 0.0206 0.4386 0.7863
C135 C 0.0819(15) 0.4575(10) 0.2369(6)
H77 H 0.0224 0.4387 0.2139
C136 C 0.1619(23) 0.5069(15) 0.8820(8)
C137 C 0.2531(12) 0.5084(8) 0.3042(5)
H78 H 0.3112 0.5211 0.3268
C138 C 0.1644(21) 0.5094(14) 0.1176(8)
O31 O 0.3169(9) 0.7637(13) 0.9149(4)
Eu13_3 Eu 0.5000 1.0000 -0.0000
H5 H 0.2723 0.9903 0.4375
H6 H 0.2637 0.9899 0.5619
Eu13_4 Eu 0.5000 1.0000 1.0000
O43 O 0.4009(15) 0.9183(21) 0.0899(6)
C93 C 0.3018(7) 0.8271(10) 0.4239(5)
C94 C 0.2148(7) 0.7929(9) 0.4623(5)
C95 C 0.2156(7) 0.7933(9) 0.5388(5)
C96 C 0.3021(8) 0.8280(11) 0.5766(5)
C97 C 0.3075(7) 0.8298(10) 0.3442(5)
N5 N 0.1296(7) 0.7686(10) 0.5758(5)
C98 C 0.3070(7) 0.8292(10) 0.6558(5)
C99 C 0.1283(7) 0.7678(10) 0.4263(5)
H53 H 0.1273 0.7689 0.3754
C100 C 0.3844(8) 0.8576(11) 0.4627(5)
H54 H 0.4434 0.8787 0.4382
C101 C 0.2559(9) 0.7478(12) 0.6963(5)
H55 H 0.2090 0.6896 0.6746
C102 C 0.3833(8) 0.8581(11) 0.5362(6)
H56 H 0.4426 0.8808 0.5607
C103 C 0.0491(8) 0.7404(11) 0.5375(6)
C104 C 0.0477(9) 0.7426(13) 0.4628(6)
C105 C 0.3650(10) 0.9144(13) 0.6899(6)
H59 H 0.3973 0.9715 0.6623
C106 C 0.3308(10) 0.8353(13) 0.8042(6)
C107 C 0.3285(10) 0.8343(13) 0.1970(6)
C108 C 0.2703(11) 0.7498(15) 0.2305(5)
H60 H 0.2395 0.6921 0.2034
C109 C 0.3631(9) 0.9143(13) 0.3094(6)
H61 H 0.3940 0.9722 0.3363
C110 C 0.2736(11) 0.7516(15) 0.7691(5)
H62 H 0.2446 0.6933 0.7956
C111 C 0.3778(11) 0.9194(15) 0.7637(6)
H63 H 0.4180 0.9794 0.7863
C112 C 0.3756(11) 0.9181(15) 0.2369(6)
H64 H 0.4163 0.9776 0.2139
O22 O 0.3974(15) 0.9166(21) 0.9116(6)
C113 C 0.3450(17) 0.8381(23) 0.8820(8)
C114 C 0.2553(9) 0.7469(12) 0.3042(5)
H65 H 0.2099 0.6888 0.3268
C115 C 0.3450(16) 0.8356(21) 0.1176(8)
H57 H 0.9903 0.7180 0.5625
H58 H 0.9899 0.7262 0.4381
loop_
_geom_bond_atom_site_label_1
_geom_bond_atom_site_label_2
_geom_bond_site_symmetry_1
_geom_bond_site_symmetry_2
O44 Eu16 1_555 1_555
O46 Eu16 1_555 1_555
O32 Eu16_2 1_555 1_555
Eu6 O1 1_555 1_555
Eu11 O2 1_555 1_555
C1 C2 1_555 1_555
C2 C3 1_555 1_555
C3 C4 1_555 1_555
C4 C6 1_555 1_555
C5 C1 1_555 1_555
N1 C3 1_555 1_555
C6 C9 1_555 1_555
C7 C2 1_555 1_555
H1 C7 1_555 1_555
O1 C21 1_555 1_555
C8 C1 1_555 1_555
H2 C8 1_555 1_555
C9 H3 1_555 1_555
C10 C4 1_555 1_555
H4 C10 1_555 1_555
C11 N1 1_555 1_555
C12 C7 1_555 1_555
C13 C6 1_555 1_555
H7 C13 1_555 1_555
C14 C18 1_555 1_555
C15 C16 1_555 1_555
C16 H8 1_555 1_555
C17 C5 1_555 1_555
H9 C17 1_555 1_555
C18 C9 1_555 1_555
H10 C18 1_555 1_555
C19 C13 1_555 1_555
H11 C19 1_555 1_555
C20 C15 1_555 1_555
H12 C20 1_555 1_555
O2 C21 1_555 1_555
C21 C14 1_555 1_555
C22 C5 1_555 1_555
H13 C22 1_555 1_555
O3 C23 1_555 1_555
O4 C23 1_555 1_555
C23 C15 1_555 1_555
Eu13 O7 1_555 1_555
C24 C25 1_555 1_555
C25 C26 1_555 1_555
C26 C27 1_555 1_555
C27 C29 1_555 1_555
C28 C24 1_555 1_555
N2 C26 1_555 1_555
C29 C32 1_555 1_555
C30 C25 1_555 1_555
H14 C30 1_555 1_555
O6 Eu6 1_555 1_555
C31 C24 1_555 1_555
H15 C31 1_555 1_555
C32 H16 1_555 1_555
C33 C27 1_555 1_555
H17 C33 1_555 1_555
C34 N2 1_555 1_555
C35 C30 1_555 1_555
C36 C29 1_555 1_555
H20 C36 1_555 1_555
C37 C41 1_555 1_555
C38 C39 1_555 1_555
C39 H21 1_555 1_555
C40 C28 1_555 1_555
H22 C40 1_555 1_555
C41 C32 1_555 1_555
H23 C41 1_555 1_555
C42 C36 1_555 1_555
H24 C42 1_555 1_555
C43 C38 1_555 1_555
H25 C43 1_555 1_555
O7 C44 1_555 1_555
C44 O6 1_555 1_555
C45 C28 1_555 1_555
H26 C45 1_555 1_555
O8 C46 1_555 1_555
O9 C46 1_555 1_555
C46 C38 1_555 1_555
Eu16_3 O12 1_555 1_555
C47 C48 1_555 1_555
C48 C49 1_555 1_555
C49 C50 1_555 1_555
C50 C52 1_555 1_555
C51 C47 1_555 1_555
N3 C49 1_555 1_555
C52 C55 1_555 1_555
C53 C48 1_555 1_555
H27 C53 1_555 1_555
O11 Eu6 1_555 1_555
C54 C47 1_555 1_555
H28 C54 1_555 1_555
C55 H29 1_555 1_555
C56 C50 1_555 1_555
H30 C56 1_555 1_555
C57 N3 1_555 1_555
H31 C57 1_555 1_555
C58 C53 1_555 1_555
H32 C58 1_555 1_555
C59 C52 1_555 1_555
H33 C59 1_555 1_555
C60 C64 1_555 1_555
C61 C62 1_555 1_555
C62 H34 1_555 1_555
C63 C51 1_555 1_555
H35 C63 1_555 1_555
C64 C55 1_555 1_555
H36 C64 1_555 1_555
C65 C59 1_555 1_555
H37 C65 1_555 1_555
C66 C61 1_555 1_555
H38 C66 1_555 1_555
O12 C67 1_555 1_555
C67 O11 1_555 1_555
C68 C51 1_555 1_555
H39 C68 1_555 1_555
O13 C69 1_555 1_555
O14 C69 1_555 1_555
C69 C61 1_555 1_555
O20 Eu11 1_555 1_555
O46 Eu5 1_555 1_555
Eu6_2 O3 1_555 1_555
Eu11_2 O4 1_555 1_555
Eu13_2 O9 1_555 1_555
Eu16_4 O14 1_555 1_555
O36 Eu5 1_555 1_555
O37 Eu5 1_555 1_555
O38 Eu5 1_555 1_555
O42 Eu11 1_555 1_555
O45 Eu5 1_555 1_555
C8 C10 1_555 1_555
C11 C12 1_555 1_555
C14 C19 1_555 1_555
C16 C22 1_555 1_555
C17 C20 1_555 1_555
C31 C33 1_555 1_555
C34 C35 1_555 1_555
C37 C42 1_555 1_555
C37 C44 1_555 1_555
C39 C45 1_555 1_555
C40 C43 1_555 1_555
O8 Eu6_2 1_555 1_555
C54 C56 1_555 1_555
C57 C58 1_555 1_555
C60 C65 1_555 1_555
C60 C67 1_555 1_555
C62 C68 1_555 1_555
C63 C66 1_555 1_555
O13 Eu6_2 1_555 1_555
Eu5 O20 1_555 1_555
O5 Eu6_2 1_555 1_555
O10 Eu6_2 1_555 1_555
O15 Eu6_2 1_555 1_555
Eu5_2 O16 1_555 1_555
C70 C71 1_555 1_555
C71 C72 1_555 1_555
C72 C73 1_555 1_555
C73 C75 1_555 1_555
C74 C70 1_555 1_555
N4 C72 1_555 1_555
C75 C78 1_555 1_555
C76 C71 1_555 1_555
H40 C76 1_555 1_555
O16 C90 1_555 1_555
C77 C70 1_555 1_555
H41 C77 1_555 1_555
C78 H42 1_555 1_555
C79 C73 1_555 1_555
H43 C79 1_555 1_555
C80 N4 1_555 1_555
C81 C76 1_555 1_555
C82 C75 1_555 1_555
H46 C82 1_555 1_555
C83 C87 1_555 1_555
C84 C85 1_555 1_555
C85 H47 1_555 1_555
C86 C74 1_555 1_555
H48 C86 1_555 1_555
C87 C78 1_555 1_555
H49 C87 1_555 1_555
C88 C82 1_555 1_555
H50 C88 1_555 1_555
C89 C84 1_555 1_555
H51 C89 1_555 1_555
O17 Eu11_2 1_555 1_555
C90 C83 1_555 1_555
C91 C74 1_555 1_555
H52 C91 1_555 1_555
O36 C92 1_555 1_555
O42 C92 1_555 1_555
C92 C84 1_555 1_555
C116 C117 1_555 1_555
C117 C118 1_555 1_555
C118 C119 1_555 1_555
C119 C121 1_555 1_555
C120 C116 1_555 1_555
N6 C118 1_555 1_555
C121 C124 1_555 1_555
C122 C117 1_555 1_555
H66 C122 1_555 1_555
O26 Eu5_2 1_555 1_555
C123 C116 1_555 1_555
H67 C123 1_555 1_555
C124 H68 1_555 1_555
C125 C119 1_555 1_555
H69 C125 1_555 1_555
C126 N6 1_555 1_555
H70 C126 1_555 1_555
C127 C122 1_555 1_555
H71 C127 1_555 1_555
C128 C121 1_555 1_555
H72 C128 1_555 1_555
C129 C133 1_555 1_555
C130 C131 1_555 1_555
C131 H73 1_555 1_555
C132 C120 1_555 1_555
H74 C132 1_555 1_555
C133 C124 1_555 1_555
H75 C133 1_555 1_555
C134 C128 1_555 1_555
H76 C134 1_555 1_555
C135 C130 1_555 1_555
H77 C135 1_555 1_555
O32 C136 1_555 1_555
C136 O26 1_555 1_555
C137 C120 1_555 1_555
H78 C137 1_555 1_555
O38 C138 1_555 1_555
O44 C138 1_555 1_555
C138 C130 1_555 1_555
O31 Eu5_2 1_555 1_555
Eu11_2 O5 1_555 1_555
Eu13_2 O10 1_555 1_555
Eu16_4 O15 1_555 1_555
C77 C79 1_555 1_555
C80 C81 1_555 1_555
C83 C88 1_555 1_555
C85 C91 1_555 1_555
C86 C89 1_555 1_555
O17 C90 1_555 1_555
C123 C125 1_555 1_555
C126 C127 1_555 1_555
C129 C134 1_555 1_555
C129 C136 1_555 1_555
C131 C137 1_555 1_555
C132 C135 1_555 1_555
O45 Eu13_3 1_555 1_555
O43 Eu13_3 1_555 1_555
C93 C94 1_555 1_555
C94 C95 1_555 1_555
C95 C96 1_555 1_555
C96 C98 1_555 1_555
C97 C93 1_555 1_555
N5 C95 1_555 1_555
C98 C101 1_555 1_555
C99 C94 1_555 1_555
H53 C99 1_555 1_555
O31 C113 1_555 1_555
C100 C93 1_555 1_555
H54 C100 1_555 1_555
C101 H55 1_555 1_555
C102 C96 1_555 1_555
H56 C102 1_555 1_555
C103 N5 1_555 1_555
C104 C99 1_555 1_555
C105 C98 1_555 1_555
H59 C105 1_555 1_555
C106 C110 1_555 1_555
C107 C108 1_555 1_555
C108 H60 1_555 1_555
C109 C97 1_555 1_555
H61 C109 1_555 1_555
C110 C101 1_555 1_555
H62 C110 1_555 1_555
C111 C105 1_555 1_555
H63 C111 1_555 1_555
C112 C107 1_555 1_555
H64 C112 1_555 1_555
O22 Eu13_4 1_555 1_555
C113 C106 1_555 1_555
C114 C97 1_555 1_555
H65 C114 1_555 1_555
O37 C115 1_555 1_555
O43 C115 1_555 1_555
C115 C107 1_555 1_555
C100 C102 1_555 1_555
C103 C104 1_555 1_555
C106 C111 1_555 1_555
C108 C114 1_555 1_555
C109 C112 1_555 1_555
O22 C113 1_555 1_555

#END
