
###############################################################################
#
# This file contains modified crystal structure data generated from the
# MOF subset of the Cambridge Structural Database (CSD) v543 
# hosted by the Cambridge Crystallographic Data Centre (CCDC).
#
# This work is licensed under the Creative Commons
# Attribution-NonCommercial-ShareAlike 4.0 International License.
# To view a copy of this license, visit
# http://creativecommons.org/licenses/by-nc-sa/4.0/
# or send a letter to
# Creative Commons, PO Box 1866, Mountain View, CA 94042, USA.
#
# CIF created using the CSD Python API on 29 September 2022
# The structure has been converted into the P1 space group
# The structure has a 3D framework
# The original CSD entry FOJBIR is in the triclinic crystal system
# The framework has been calculated to contain at least 10.0% void space
# The void calculation uses a probe of radius 1.32A, grid spacing 0.4
# The framework is charged, counterions have been retained in the structure
#
###############################################################################

data_FOJBIR
_chemical_formula_moiety         '(C64 H62 Cd3 N24 O18 S2)n'
_symmetry_cell_setting           triclinic
_symmetry_space_group_name_H-M   'P 1'
_symmetry_Int_Tables_number      1
_space_group_name_Hall           'P 1'
loop_
_symmetry_equiv_pos_site_id
_symmetry_equiv_pos_as_xyz
1 x,y,z
_cell_length_a                   10.187(3)
_cell_length_b                   13.377(4)
_cell_length_c                   17.241(5)
_cell_angle_alpha                101.129(8)
_cell_angle_beta                 100.063(7)
_cell_angle_gamma                93.506(5)
_cell_volume                     2258.84
loop_
_atom_site_label
_atom_site_type_symbol
_atom_site_fract_x
_atom_site_fract_y
_atom_site_fract_z
_atom_site_U_iso_or_equiv
_atom_site_thermal_displace_type
Cd7 Cd 0.27822(4) 0.08000(4) 0.14988(3) 0.0371 Uani
O12 O 0.0301(4) 0.0720(4) 0.1526(3) 0.0465 Uani
O13 O 0.1501(4) 0.2216(4) 0.1836(3) 0.0452 Uani
H57 H 0.0191 0.3657 0.2306 0.0440 Uiso
C64 C 0.0424(6) 0.1685(5) 0.1753(4) 0.0356 Uani
N10 N 0.7095(5) 0.7502(4) 0.0437(3) 0.0399 Uani
N11 N 0.6272(6) 0.8213(5) 0.0683(4) 0.0491 Uani
C19 C 0.6029(7) 0.5771(5) 0.0362(4) 0.0406 Uani
C20 C 0.5463(7) 0.5196(5) 0.0819(4) 0.0409 Uani
H19 H 0.5778 0.5321 0.1378 0.0490 Uiso
C21 C 0.4425(7) 0.4429(6) 0.0464(4) 0.0452 Uani
H20 H 0.4034 0.4048 0.0784 0.0540 Uiso
C22 C 0.7198(7) 0.6576(5) 0.0750(4) 0.0467 Uani
H21 H 0.7234 0.6743 0.1332 0.0560 Uiso
H22 H 0.8035 0.6292 0.0656 0.0560 Uiso
C23 C 0.6423(7) 0.8918(6) 0.0246(4) 0.0482 Uani
H23 H 0.5983 0.9518 0.0292 0.0580 Uiso
N18 N 0.2728(5) 0.1313(5) 0.0271(3) 0.0433 Uani
C44 C 0.2334(6) 0.2205(5) 0.0127(4) 0.0406 Uani
H43 H 0.1730 0.2577 0.0392 0.0490 Uiso
S2 S 0.84631(17) 0.50880(13) 0.28265(10) 0.0413 Uani
O10 O 0.4511(5) 0.2079(4) 0.1970(3) 0.0568 Uani
O11 O 0.5262(4) 0.0664(4) 0.1460(3) 0.0486 Uani
O14 O 0.7180(5) 0.5387(4) 0.3006(4) 0.0646 Uani
O15 O 0.9468(6) 0.5213(4) 0.3549(3) 0.0585 Uani
O16 O 0.8880(6) 0.5574(4) 0.2219(3) 0.0610 Uani
N22 N 0.2644(7) 0.0459(7) 0.3971(4) 0.0757 Uani
N23 N 0.3919(7) 0.0259(7) 0.4013(4) 0.0757 Uani
N24 N 0.3029(6) 0.0422(5) 0.2774(3) 0.0479 Uani
C52 C 0.1996(10) 0.0565(7) 0.4674(5) 0.0646 Uani
H50 H 0.2603 0.0992 0.5140 0.0770 Uiso
H51 H 0.1185 0.0914 0.4570 0.0770 Uiso
C55 C 0.4100(8) 0.0234(8) 0.3266(5) 0.0682 Uani
H54 H 0.4914 0.0096 0.3100 0.0820 Uiso
C56 C 0.2133(8) 0.0555(8) 0.3241(5) 0.0682 Uani
H55 H 0.1249 0.0699 0.3073 0.0820 Uiso
C57 C 0.6820(6) 0.2176(5) 0.1916(4) 0.0369 Uani
C58 C 0.7936(6) 0.1664(5) 0.1753(4) 0.0369 Uani
H56 H 0.7833 0.0960 0.1525 0.0440 Uiso
C59 C 0.9190(6) 0.2208(5) 0.1931(4) 0.0369 Uani
C60 C 0.9356(6) 0.3276(5) 0.2232(4) 0.0369 Uani
C61 C 0.8228(6) 0.3742(5) 0.2415(4) 0.0369 Uani
C62 C 0.6972(6) 0.3211(5) 0.2250(4) 0.0369 Uani
H58 H 0.6226 0.3552 0.2364 0.0440 Uiso
C63 C 0.5441(6) 0.1602(5) 0.1770(4) 0.0420 Uani
C14 C 0.0052(7) 0.4560(6) 0.0653(4) 0.0456 Uani
H13 H 0.0091 0.4265 0.1108 0.0550 Uiso
C15 C 0.1106(7) 0.5238(6) 0.0623(5) 0.0515 Uani
H14 H 0.1856 0.5390 0.1045 0.0610 Uiso
N13 N 0.1989(5) 0.7517(4) 0.0229(3) 0.0419 Uani
N14 N 0.0760(6) 0.7855(5) 0.0020(4) 0.0461 Uani
N15 N 0.2235(5) 0.9139(4) 0.0808(3) 0.0402 Uani
H35 H 0.3021 0.6286 0.0209 0.0540 Uiso
C37 C 0.0976(7) 0.8824(6) 0.0383(5) 0.0497 Uani
H36 H 0.0301 0.9272 0.0351 0.0600 Uiso
C38 C 0.2835(7) 0.8289(6) 0.0688(4) 0.0471 Uani
H37 H 0.3737 0.8237 0.0900 0.0570 Uiso
C45 C 0.0846(7) 0.7677(6) 0.5249(4) 0.0462 Uani
C46 C 0.1605(8) 0.8449(7) 0.5828(5) 0.0587 Uani
H44 H 0.1865 0.8348 0.6355 0.0710 Uiso
C47 C 0.1994(8) 0.9382(7) 0.5640(5) 0.0629 Uani
H45 H 0.2513 0.9901 0.6043 0.0760 Uiso
C48 C 0.1625(8) 0.9548(6) 0.4872(4) 0.0491 Uani
C49 C 0.0840(8) 0.8782(6) 0.4289(4) 0.0534 Uani
H46 H 0.0560 0.8892 0.3766 0.0640 Uiso
C50 C 0.0468(7) 0.7861(6) 0.4472(4) 0.0463 Uani
C51 C 0.0439(7) 0.6670(6) 0.5452(5) 0.0492 Uani
H48 H 0.0998 0.6612 0.5962 0.0590 Uiso
H49 H 0.0600 0.6110 0.5032 0.0590 Uiso
Cd1 Cd 0.5000 0.5000 0.5000 0.0531 Uani
O8 O 0.3603(7) 0.6266(5) 0.4781(5) 0.0803 Uani
O9 O 0.5204(6) 0.4649(7) 0.3675(4) 0.0895 Uani
N1 N 0.0945(6) 0.3433(5) 0.4479(3) 0.0434 Uani
N2 N 0.1375(7) 0.2788(5) 0.3864(4) 0.0553 Uani
N3 N 0.3068(6) 0.3919(5) 0.4618(4) 0.0500 Uani
H4 H 0.0051 0.2655 0.5933 0.0560 Uiso
C9 C 0.2656(8) 0.3149(6) 0.3985(5) 0.0551 Uani
H9 H 0.3234 0.2879 0.3646 0.0660 Uiso
C10 C 0.1944(8) 0.4087(6) 0.4917(5) 0.0508 Uani
H10 H 0.1884 0.4592 0.5368 0.0610 Uiso
H28 H 0.307(12) 0.608(9) 0.433(4) 0.1560 Uiso
H29 H 0.390(13) 0.690(4) 0.483(7) 0.1560 Uiso
H30 H 0.580(8) 0.498(10) 0.351(6) 0.1560 Uiso
H31 H 0.446(3) 0.455(11) 0.3368(12) 0.1560 Uiso
C33 C 0.1049(7) 0.5701(5) 0.9953(4) 0.0422 Uani
C36 C 0.2186(7) 0.6456(5) 0.9907(5) 0.0448 Uani
H34 H 0.2281 0.6387 0.9344 0.0540 Uiso
O17 O 0.6397(7) 0.3734(5) 0.5219(5) 0.0803 Uani
H59 H 0.693(12) 0.392(9) 0.567(4) 0.1560 Uiso
H60 H 0.610(13) 0.310(4) 0.517(7) 0.1560 Uiso
O18 O 0.4796(6) 0.5351(7) 0.6325(4) 0.0895 Uani
H61 H 0.420(8) 0.502(10) 0.649(6) 0.1560 Uiso
H62 H 0.554(3) 0.545(11) 0.6632(12) 0.1560 Uiso
N25 N 0.6932(6) 0.6081(5) 0.5382(4) 0.0500 Uani
C13 C 0.8951(7) 0.4299(5) 0.0047(4) 0.0422 Uani
C16 C 0.7814(7) 0.3544(5) 0.0093(5) 0.0448 Uani
H15 H 0.7719 0.3613 0.0656 0.0540 Uiso
N19 N 0.9055(6) 0.6567(5) 0.5521(3) 0.0434 Uani
N20 N 0.8625(7) 0.7212(5) 0.6136(4) 0.0553 Uani
H47 H 0.9949 0.7345 0.4067 0.0560 Uiso
C53 C 0.7344(8) 0.6851(6) 0.6015(5) 0.0551 Uani
H52 H 0.6766 0.7121 0.6354 0.0660 Uiso
C54 C 0.8056(8) 0.5913(6) 0.5083(5) 0.0508 Uani
H53 H 0.8116 0.5408 0.4632 0.0610 Uiso
N7 N 0.8011(5) 0.2483(4) 0.9771(3) 0.0419 Uani
N8 N 0.9240(6) 0.2145(5) 0.9980(4) 0.0461 Uani
N9 N 0.7765(5) 0.0861(4) 0.9192(3) 0.0402 Uani
C1 C 0.9154(7) 0.2323(6) 0.4751(4) 0.0462 Uani
C2 C 0.8395(8) 0.1551(7) 0.4172(5) 0.0587 Uani
H1 H 0.8135 0.1652 0.3645 0.0710 Uiso
C3 C 0.8006(8) 0.0618(7) 0.4360(5) 0.0629 Uani
H2 H 0.7487 0.0099 0.3957 0.0760 Uiso
C4 C 0.8375(8) 0.0452(6) 0.5128(4) 0.0491 Uani
C5 C 0.9160(8) 0.1218(6) 0.5711(4) 0.0534 Uani
H3 H 0.9440 0.1108 0.6234 0.0640 Uiso
C6 C 0.9532(7) 0.2139(6) 0.5528(4) 0.0463 Uani
C7 C 0.9561(7) 0.3330(6) 0.4548(5) 0.0492 Uani
H5 H 0.9002 0.3388 0.4038 0.0590 Uiso
H6 H 0.9400 0.3890 0.4968 0.0590 Uiso
H16 H 0.6979 0.3714 0.9791 0.0540 Uiso
C17 C 0.9024(7) 0.1176(6) 0.9617(5) 0.0497 Uani
H17 H 0.9699 0.0728 0.9649 0.0600 Uiso
C18 C 0.7165(7) 0.1711(6) 0.9312(4) 0.0471 Uani
H18 H 0.6263 0.1763 0.9100 0.0570 Uiso
C34 C 0.9948(7) 0.5440(6) 0.9347(4) 0.0456 Uani
H32 H 0.9909 0.5735 0.8892 0.0550 Uiso
C35 C 0.8894(7) 0.4762(6) 0.9377(5) 0.0515 Uani
H33 H 0.8144 0.4610 0.8955 0.0610 Uiso
Cd2 Cd 0.72178(4) 0.92000(4) 0.85012(3) 0.0371 Uani
S1 S 0.15369(17) 0.49120(13) 0.71735(10) 0.0413 Uani
O1 O 0.5489(5) 0.7921(4) 0.8030(3) 0.0568 Uani
O2 O 0.4738(4) 0.9336(4) 0.8540(3) 0.0486 Uani
O5 O 0.2820(5) 0.4613(4) 0.6994(4) 0.0646 Uani
O6 O 0.0532(6) 0.4787(4) 0.6451(3) 0.0585 Uani
O7 O 0.1120(6) 0.4426(4) 0.7781(3) 0.0610 Uani
N4 N 0.7356(7) 0.9541(7) 0.6029(4) 0.0757 Uani
N5 N 0.6081(7) 0.9741(7) 0.5987(4) 0.0757 Uani
N6 N 0.6971(6) 0.9578(5) 0.7226(3) 0.0479 Uani
N12 N 0.7272(5) 0.8687(5) 0.9729(3) 0.0433 Uani
C8 C 0.8004(10) 0.9435(7) 0.5326(5) 0.0646 Uani
H7 H 0.7397 0.9008 0.4860 0.0770 Uiso
H8 H 0.8815 0.9086 0.5430 0.0770 Uiso
C11 C 0.5900(8) 0.9766(8) 0.6734(5) 0.0682 Uani
H11 H 0.5086 0.9904 0.6900 0.0820 Uiso
C12 C 0.7867(8) 0.9445(8) 0.6759(5) 0.0682 Uani
H12 H 0.8751 0.9301 0.6927 0.0820 Uiso
C24 C 0.7666(6) 0.7795(5) 0.9873(4) 0.0406 Uani
H24 H 0.8270 0.7423 0.9608 0.0490 Uiso
C25 C 0.3180(6) 0.7824(5) 0.8084(4) 0.0369 Uani
C26 C 0.2064(6) 0.8336(5) 0.8247(4) 0.0369 Uani
H25 H 0.2167 0.9040 0.8475 0.0440 Uiso
C27 C 0.0810(6) 0.7792(5) 0.8069(4) 0.0369 Uani
C28 C 0.0644(6) 0.6724(5) 0.7768(4) 0.0369 Uani
C29 C 0.1772(6) 0.6258(5) 0.7585(4) 0.0369 Uani
C30 C 0.3028(6) 0.6789(5) 0.7750(4) 0.0369 Uani
H27 H 0.3774 0.6448 0.7636 0.0440 Uiso
C31 C 0.4559(6) 0.8398(5) 0.8230(4) 0.0420 Uani
N16 N 0.2905(5) 0.2498(4) 0.9563(3) 0.0399 Uani
N17 N 0.3728(6) 0.1787(5) 0.9317(4) 0.0491 Uani
C39 C 0.3971(7) 0.4229(5) 0.9638(4) 0.0406 Uani
C40 C 0.4537(7) 0.4804(5) 0.9181(4) 0.0409 Uani
H38 H 0.4222 0.4679 0.8622 0.0490 Uiso
C41 C 0.5575(7) 0.5571(6) 0.9536(4) 0.0452 Uani
H39 H 0.5966 0.5952 0.9216 0.0540 Uiso
C42 C 0.2802(7) 0.3424(5) 0.9250(4) 0.0467 Uani
H40 H 0.2766 0.3257 0.8668 0.0560 Uiso
H41 H 0.1965 0.3708 0.9344 0.0560 Uiso
C43 C 0.3577(7) 0.1082(6) 0.9754(4) 0.0482 Uani
H42 H 0.4017 0.0482 0.9708 0.0580 Uiso
O19 O 0.9699(4) 0.9280(4) 0.8474(3) 0.0465 Uani
O21 O 0.8499(4) 0.7784(4) 0.8164(3) 0.0452 Uani
H26 H 0.9809 0.6343 0.7694 0.0440 Uiso
C32 C 0.9576(6) 0.8315(5) 0.8247(4) 0.0356 Uani
loop_
_atom_site_aniso_label
_atom_site_aniso_U_11
_atom_site_aniso_U_22
_atom_site_aniso_U_33
_atom_site_aniso_U_23
_atom_site_aniso_U_13
_atom_site_aniso_U_12
Cd7 0.0269 0.0358 0.0466 0.005 0.00883 -0.00742
O12 0.031 0.05 0.059 0.007 0.014 0.005
O13 0.027 0.055 0.051 0.005 0.0098 -0.005
C64 0.023 0.044 0.039 0.007 0.005 0.004
N10 0.031 0.038 0.05 0.007 0.01 -0.003
N11 0.051 0.048 0.054 0.012 0.022 0.009
C19 0.037 0.034 0.047 0.003 0.007 -0.005
C20 0.046 0.03 0.047 0.011 0.008 0
C21 0.046 0.046 0.049 0.018 0.017 -0.003
C22 0.048 0.038 0.053 0.016 0.003 -0.006
C23 0.054 0.047 0.052 0.017 0.022 0.014
N18 0.037 0.046 0.05 0.013 0.015 0
C44 0.028 0.033 0.059 0.005 0.01 -0.002
S2 0.0386 0.0376 0.0468 0.0035 0.0157 -0.0073
O10 0.03 0.055 0.079 -0.005 0.018 -0.007
O11 0.028 0.047 0.065 0 0.01 -0.008
O14 0.052 0.053 0.086 -0.009 0.035 -0.004
O15 0.064 0.045 0.054 -0.001 -0.004 -0.012
O16 0.081 0.042 0.067 0.016 0.032 -0.005
N22 0.046 0.126 0.062 0.042 0.008 -0.003
N23 0.046 0.126 0.062 0.042 0.008 -0.003
N24 0.04 0.061 0.048 0.02 0.013 0.006
C52 0.086 0.062 0.049 0.012 0.031 -0.021
C55 0.047 0.107 0.061 0.035 0.018 0.011
C56 0.047 0.107 0.061 0.035 0.018 0.011
C57 0.0249 0.0419 0.0401 0.0012 0.0068 -0.0052
C58 0.0249 0.0419 0.0401 0.0012 0.0068 -0.0052
C59 0.0249 0.0419 0.0401 0.0012 0.0068 -0.0052
C60 0.0249 0.0419 0.0401 0.0012 0.0068 -0.0052
C61 0.0249 0.0419 0.0401 0.0012 0.0068 -0.0052
C62 0.0249 0.0419 0.0401 0.0012 0.0068 -0.0052
C63 0.025 0.038 0.053 -0.006 0.002 -0.009
C14 0.053 0.043 0.042 0.012 0.012 -0.004
C15 0.045 0.051 0.054 0.002 0.01 -0.003
N13 0.034 0.037 0.055 0.008 0.013 -0.003
N14 0.037 0.04 0.056 0.005 0 0.003
N15 0.031 0.03 0.056 0.005 0.005 -0.002
C37 0.038 0.042 0.062 0.009 -0.004 -0.006
C38 0.03 0.056 0.054 0.018 0.003 -0.012
C45 0.038 0.05 0.051 0.009 0.015 -0.006
C46 0.064 0.06 0.048 0.016 0.002 -0.016
C47 0.062 0.069 0.046 0.002 0.003 -0.032
C48 0.057 0.045 0.05 0.017 0.019 -0.007
C49 0.073 0.049 0.036 0.009 0.01 -0.011
C50 0.053 0.042 0.039 0.005 0.006 -0.014
C51 0.035 0.056 0.057 0.013 0.011 -0.004
Cd1 0.0461 0.0482 0.0637 0.0029 0.0219 -0.0101
O8 0.068 0.054 0.114 0.009 0.016 -0.002
O9 0.062 0.146 0.055 0.005 0.027 -0.027
N1 0.041 0.042 0.047 0.01 0.01 -0.005
N2 0.058 0.049 0.058 0.003 0.023 -0.011
N3 0.044 0.045 0.063 0.009 0.022 -0.007
C9 0.063 0.042 0.06 -0.001 0.026 -0.002
C10 0.052 0.044 0.055 0.013 0.009 -0.011
C33 0.045 0.028 0.057 0.008 0.022 -0.002
C36 0.038 0.04 0.059 0.01 0.017 0.002
O17 0.068 0.054 0.114 0.009 0.016 -0.002
O18 0.062 0.146 0.055 0.005 0.027 -0.027
N25 0.044 0.045 0.063 0.009 0.022 -0.007
C13 0.045 0.028 0.057 0.008 0.022 -0.002
C16 0.038 0.04 0.059 0.01 0.017 0.002
N19 0.041 0.042 0.047 0.01 0.01 -0.005
N20 0.058 0.049 0.058 0.003 0.023 -0.011
C53 0.063 0.042 0.06 -0.001 0.026 -0.002
C54 0.052 0.044 0.055 0.013 0.009 -0.011
N7 0.034 0.037 0.055 0.008 0.013 -0.003
N8 0.037 0.04 0.056 0.005 0 0.003
N9 0.031 0.03 0.056 0.005 0.005 -0.002
C1 0.038 0.05 0.051 0.009 0.015 -0.006
C2 0.064 0.06 0.048 0.016 0.002 -0.016
C3 0.062 0.069 0.046 0.002 0.003 -0.032
C4 0.057 0.045 0.05 0.017 0.019 -0.007
C5 0.073 0.049 0.036 0.009 0.01 -0.011
C6 0.053 0.042 0.039 0.005 0.006 -0.014
C7 0.035 0.056 0.057 0.013 0.011 -0.004
C17 0.038 0.042 0.062 0.009 -0.004 -0.006
C18 0.03 0.056 0.054 0.018 0.003 -0.012
C34 0.053 0.043 0.042 0.012 0.012 -0.004
C35 0.045 0.051 0.054 0.002 0.01 -0.003
Cd2 0.0269 0.0358 0.0466 0.005 0.00883 -0.00742
S1 0.0386 0.0376 0.0468 0.0035 0.0157 -0.0073
O1 0.03 0.055 0.079 -0.005 0.018 -0.007
O2 0.028 0.047 0.065 0 0.01 -0.008
O5 0.052 0.053 0.086 -0.009 0.035 -0.004
O6 0.064 0.045 0.054 -0.001 -0.004 -0.012
O7 0.081 0.042 0.067 0.016 0.032 -0.005
N4 0.046 0.126 0.062 0.042 0.008 -0.003
N5 0.046 0.126 0.062 0.042 0.008 -0.003
N6 0.04 0.061 0.048 0.02 0.013 0.006
N12 0.037 0.046 0.05 0.013 0.015 0
C8 0.086 0.062 0.049 0.012 0.031 -0.021
C11 0.047 0.107 0.061 0.035 0.018 0.011
C12 0.047 0.107 0.061 0.035 0.018 0.011
C24 0.028 0.033 0.059 0.005 0.01 -0.002
C25 0.0249 0.0419 0.0401 0.0012 0.0068 -0.0052
C26 0.0249 0.0419 0.0401 0.0012 0.0068 -0.0052
C27 0.0249 0.0419 0.0401 0.0012 0.0068 -0.0052
C28 0.0249 0.0419 0.0401 0.0012 0.0068 -0.0052
C29 0.0249 0.0419 0.0401 0.0012 0.0068 -0.0052
C30 0.0249 0.0419 0.0401 0.0012 0.0068 -0.0052
C31 0.025 0.038 0.053 -0.006 0.002 -0.009
N16 0.031 0.038 0.05 0.007 0.01 -0.003
N17 0.051 0.048 0.054 0.012 0.022 0.009
C39 0.037 0.034 0.047 0.003 0.007 -0.005
C40 0.046 0.03 0.047 0.011 0.008 0
C41 0.046 0.046 0.049 0.018 0.017 -0.003
C42 0.048 0.038 0.053 0.016 0.003 -0.006
C43 0.054 0.047 0.052 0.017 0.022 0.014
O19 0.031 0.05 0.059 0.007 0.014 0.005
O21 0.027 0.055 0.051 0.005 0.0098 -0.005
C32 0.023 0.044 0.039 0.007 0.005 0.004
loop_
_geom_bond_atom_site_label_1
_geom_bond_atom_site_label_2
_geom_bond_site_symmetry_1
_geom_bond_site_symmetry_2
O12 C64 1_555 1_555
O13 C64 1_555 1_555
Cd7 O12 1_555 1_555
O13 Cd7 1_555 1_555
N10 N11 1_555 1_555
N11 C23 1_555 1_555
C19 C20 1_555 1_555
C20 H19 1_555 1_555
C21 C20 1_555 1_555
H20 C21 1_555 1_555
C22 N10 1_555 1_555
H21 C22 1_555 1_555
H22 C22 1_555 1_555
H23 C23 1_555 1_555
H43 C44 1_555 1_555
Cd7 N18 1_555 1_555
S2 O14 1_555 1_555
O10 Cd7 1_555 1_555
O11 Cd7 1_555 1_555
O15 S2 1_555 1_555
O16 S2 1_555 1_555
N22 N23 1_555 1_555
N23 C55 1_555 1_555
N24 Cd7 1_555 1_555
C52 N22 1_555 1_555
H50 C52 1_555 1_555
H51 C52 1_555 1_555
C55 N24 1_555 1_555
H54 C55 1_555 1_555
C56 N22 1_555 1_555
H55 C56 1_555 1_555
C57 C58 1_555 1_555
C58 H56 1_555 1_555
C59 C58 1_555 1_555
C60 C59 1_555 1_555
C61 S2 1_555 1_555
C62 C57 1_555 1_555
H58 C62 1_555 1_555
C63 O10 1_555 1_555
C19 C22 1_555 1_555
N18 C44 1_555 1_555
O11 C63 1_555 1_555
N24 C56 1_555 1_555
C57 C63 1_555 1_555
C60 C61 1_555 1_555
C61 C62 1_555 1_555
C14 H13 1_555 1_555
C15 C14 1_555 1_555
H14 C15 1_555 1_555
N13 N14 1_555 1_555
N14 C37 1_555 1_555
N15 C37 1_555 1_555
C37 H36 1_555 1_555
C38 N13 1_555 1_555
H37 C38 1_555 1_555
N15 C38 1_555 1_555
C45 C46 1_555 1_555
C46 H44 1_555 1_555
C47 C46 1_555 1_555
H45 C47 1_555 1_555
C48 C47 1_555 1_555
C49 C48 1_555 1_555
H46 C49 1_555 1_555
C50 C45 1_555 1_555
H48 C51 1_555 1_555
H49 C51 1_555 1_555
C45 C51 1_555 1_555
C49 C50 1_555 1_555
Cd1 O8 1_555 1_555
O8 H28 1_555 1_555
O9 Cd1 1_555 1_555
N1 N2 1_555 1_555
N2 C9 1_555 1_555
N3 Cd1 1_555 1_555
C9 N3 1_555 1_555
H9 C9 1_555 1_555
C10 N1 1_555 1_555
H10 C10 1_555 1_555
H29 O8 1_555 1_555
H30 O9 1_555 1_555
H31 O9 1_555 1_555
H34 C36 1_555 1_555
O17 Cd1 1_555 1_555
H59 O17 1_555 1_555
H60 O17 1_555 1_555
O18 Cd1 1_555 1_555
H61 O18 1_555 1_555
H62 O18 1_555 1_555
N25 Cd1 1_555 1_555
N3 C10 1_555 1_555
C33 C36 1_555 1_555
H15 C16 1_555 1_555
C13 C16 1_555 1_555
N19 N20 1_555 1_555
N20 C53 1_555 1_555
N25 C53 1_555 1_555
C53 H52 1_555 1_555
C54 N19 1_555 1_555
H53 C54 1_555 1_555
N25 C54 1_555 1_555
N7 N8 1_555 1_555
N8 C17 1_555 1_555
C1 C2 1_555 1_555
C2 H1 1_555 1_555
C3 C2 1_555 1_555
H2 C3 1_555 1_555
C4 C3 1_555 1_555
C5 C4 1_555 1_555
H3 C5 1_555 1_555
C6 C1 1_555 1_555
H5 C7 1_555 1_555
H6 C7 1_555 1_555
C17 N9 1_555 1_555
H17 C17 1_555 1_555
C18 N7 1_555 1_555
H18 C18 1_555 1_555
H32 C34 1_555 1_555
H33 C35 1_555 1_555
N9 C18 1_555 1_555
C1 C7 1_555 1_555
C5 C6 1_555 1_555
C34 C35 1_555 1_555
Cd2 O1 1_555 1_555
S1 O5 1_555 1_555
O1 C31 1_555 1_555
O2 Cd2 1_555 1_555
O6 S1 1_555 1_555
O7 S1 1_555 1_555
N4 N5 1_555 1_555
N5 C11 1_555 1_555
N6 Cd2 1_555 1_555
N12 Cd2 1_555 1_555
C8 N4 1_555 1_555
H7 C8 1_555 1_555
H8 C8 1_555 1_555
C11 N6 1_555 1_555
H11 C11 1_555 1_555
C12 N4 1_555 1_555
H12 C12 1_555 1_555
H24 C24 1_555 1_555
C25 C26 1_555 1_555
C26 H25 1_555 1_555
C27 C26 1_555 1_555
C28 C27 1_555 1_555
C29 S1 1_555 1_555
C30 C25 1_555 1_555
H27 C30 1_555 1_555
C31 O2 1_555 1_555
N16 N17 1_555 1_555
N17 C43 1_555 1_555
C40 C39 1_555 1_555
H38 C40 1_555 1_555
H39 C41 1_555 1_555
C42 N16 1_555 1_555
H40 C42 1_555 1_555
H41 C42 1_555 1_555
C43 H42 1_555 1_555
O19 Cd2 1_555 1_555
O21 Cd2 1_555 1_555
N6 C12 1_555 1_555
N12 C24 1_555 1_555
C25 C31 1_555 1_555
C28 C29 1_555 1_555
C29 C30 1_555 1_555
C39 C42 1_555 1_555
C40 C41 1_555 1_555
O19 C32 1_555 1_555
O21 C32 1_555 1_555

#END
