
###############################################################################
#
# This file contains modified crystal structure data generated from the
# MOF subset of the Cambridge Structural Database (CSD) v543 
# hosted by the Cambridge Crystallographic Data Centre (CCDC).
#
# This work is licensed under the Creative Commons
# Attribution-NonCommercial-ShareAlike 4.0 International License.
# To view a copy of this license, visit
# http://creativecommons.org/licenses/by-nc-sa/4.0/
# or send a letter to
# Creative Commons, PO Box 1866, Mountain View, CA 94042, USA.
#
# CIF created using the CSD Python API on 29 September 2022
# The structure has been converted into the P1 space group
# The structure has a 3D framework
# The original CSD entry FOJYOU is in the triclinic crystal system
# The framework has been calculated to contain at least 10.0% void space
# The void calculation uses a probe of radius 1.32A, grid spacing 0.4
#
###############################################################################

data_FOJYOU
_chemical_formula_moiety         '(C50 H36 Co4 N4 O18)n'
_symmetry_cell_setting           triclinic
_symmetry_space_group_name_H-M   'P 1'
_symmetry_Int_Tables_number      1
_space_group_name_Hall           'P 1'
loop_
_symmetry_equiv_pos_site_id
_symmetry_equiv_pos_as_xyz
1 x,y,z
_cell_length_a                   10.2943(10)
_cell_length_b                   11.0353(10)
_cell_length_c                   12.2925(12)
_cell_angle_alpha                77.1110(10)
_cell_angle_beta                 89.2580(10)
_cell_angle_gamma                81.8810(10)
_cell_volume                     1347.36
loop_
_atom_site_label
_atom_site_type_symbol
_atom_site_fract_x
_atom_site_fract_y
_atom_site_fract_z
N1 N 0.4262(3) 0.3644(2) 0.3285(2)
C15 C 0.3348(3) 0.3820(3) 0.1112(3)
C19 C 0.2490(3) 0.3853(4) 0.1987(3)
H9 H 0.1588 0.3940 0.1863
C20 C 0.2992(3) 0.3755(3) 0.3043(3)
H10 H 0.2403 0.3767 0.3622
C21 C 0.5083(3) 0.3625(4) 0.2434(3)
H11 H 0.5979 0.3556 0.2577
C22 C 0.4670(3) 0.3700(4) 0.1357(3)
H12 H 0.5281 0.3671 0.0795
Co6 Co 0.51427(4) 0.35066(3) 0.50002(3)
Co1 Co 0.21095(3) 0.52620(3) 0.58657(3)
C1 C 0.2617(3) 0.2476(3) 0.5781(2)
O1 O 0.40595(18) 0.49296(18) 0.57488(16)
O2 O 0.19002(19) 0.35281(18) 0.55410(16)
O3 O 0.3843(2) 0.23013(19) 0.57185(18)
O5 O 0.0056(2) 0.5469(2) 0.60717(18)
O7 O 0.0284(2) 0.24456(19) 0.70476(19)
N2 N 0.2258(2) 0.4482(2) 0.7672(2)
C4 C 0.1942(3) 0.1341(3) 0.6132(2)
C6 C 0.0761(3) 0.1365(3) 0.6717(3)
C7 C 0.2482(3) 0.0230(3) 0.5855(3)
H1 H 0.3277 0.0199 0.5487
C8 C 0.2895(3) 0.3977(3) 0.9947(3)
C9 C 0.3162(3) 0.3520(3) 0.8140(3)
H2 H 0.3574 0.3012 0.7690
C14 C 0.3515(3) 0.3243(3) 0.9257(3)
H5 H 0.4162 0.2572 0.9544
C17 C 0.0137(3) 0.0311(3) 0.6954(3)
C18 C 0.1894(3) 0.4920(3) 0.9477(3)
H8 H 0.1412 0.5397 0.9919
H13 H 0.0832 0.1582 0.9097
C24 C 0.1621(3) 0.5143(3) 0.8352(3)
H14 H 0.0958 0.5789 0.8048
H16 H 0.42(2) 0.48(2) 0.645(4)
Co8 Co 0.48573(4) 0.64934(3) 0.49998(3)
O10 O 0.59405(18) 0.50704(18) 0.42512(16)
O11 O 0.1828(2) 0.6097(2) 0.41296(17)
O12 O 0.6412(2) 0.2042(2) 0.46269(19)
O13 O 0.1938(2) 0.70137(19) 0.61977(19)
O14 O 0.6292(2) 0.3217(2) 0.64954(18)
O6 O 0.3588(2) 0.7958(2) 0.53731(19)
C3 C 0.2511(3) 0.7960(3) 0.5855(2)
C12 C 0.0676(3) 0.9225(3) 0.6645(3)
H4 H 0.0235 0.8529 0.6795
C13 C 0.1871(3) 0.9161(3) 0.6112(3)
O4 O 0.8172(2) 0.3903(2) 0.58704(17)
C2 C 0.8092(3) 0.2779(3) 0.7744(2)
C5 C 0.9418(3) 0.2351(3) 0.7932(3)
C10 C 0.7470(3) 0.3343(3) 0.6605(2)
C11 C 0.7788(4) 0.2136(4) 0.9734(3)
C16 C 0.7286(4) 0.2646(4) 0.8679(3)
H6 H 0.6388 0.2911 0.8580
H7 H 0.9344 0.0334 0.7327
C23 C 0.9935(4) 0.1848(4) 0.8992(3)
C25 C 0.9116(4) 0.1739(4) 0.9895(3)
H17 H 0.965(4) 0.490(3) 0.610(4)
H18 H 0.966(4) 0.602(3) 0.557(3)
Co4 Co 0.78905(3) 0.47380(3) 0.41343(3)
O9 O 0.3708(2) 0.6783(2) 0.35046(18)
C2_2 C 0.1908(3) 0.7221(3) 0.2256(2)
C5_2 C 0.0582(3) 0.7649(3) 0.2068(3)
C10_2 C 0.2530(3) 0.6657(3) 0.3395(2)
C11_2 C 0.2212(4) 0.7864(4) 0.0266(3)
C16_2 C 0.2714(4) 0.7354(4) 0.1321(3)
H6_2 H 0.3612 0.7089 0.1420
H7_2 H 0.0656 0.9666 0.2673
C23_2 C 0.0065(4) 0.8152(4) 0.1008(3)
C25_2 C 0.0884(4) 0.8261(4) 0.0105(3)
H17_2 H 0.035(4) 0.510(3) 0.390(4)
H18_2 H 0.034(4) 0.398(3) 0.443(3)
O8 O 0.8062(2) 0.29863(19) 0.38023(19)
C3_2 C 0.7489(3) 0.2040(3) 0.4145(2)
C12_2 C 0.9324(3) 0.0775(3) 0.3355(3)
H4_2 H 0.9765 0.1471 0.3205
C13_2 C 0.8129(3) 0.0839(3) 0.3888(3)
C1_2 C 0.7383(3) 0.7524(3) 0.4219(2)
O2_2 O 0.80998(19) 0.64719(18) 0.44590(16)
O3_2 O 0.6157(2) 0.76987(19) 0.42815(18)
O5_2 O 0.9944(2) 0.4531(2) 0.39283(18)
O7_2 O 0.9716(2) 0.75544(19) 0.29524(19)
N2_2 N 0.7742(2) 0.5518(2) 0.2328(2)
C4_2 C 0.8058(3) 0.8659(3) 0.3868(2)
C6_2 C 0.9239(3) 0.8635(3) 0.3283(3)
C7_2 C 0.7518(3) 0.9770(3) 0.4145(3)
H1_2 H 0.6723 0.9801 0.4513
C8_2 C 0.7105(3) 0.6023(3) 0.0053(3)
C9_2 C 0.6838(3) 0.6480(3) 0.1860(3)
H2_2 H 0.6426 0.6988 0.2310
C14_2 C 0.6485(3) 0.6757(3) 0.0743(3)
H5_2 H 0.5838 0.7428 0.0456
C17_2 C 0.9863(3) 0.9689(3) 0.3046(3)
C18_2 C 0.8106(3) 0.5080(3) 0.0523(3)
H8_2 H 0.8588 0.4603 0.0081
H13_2 H 0.9168 0.8418 0.0903
C24_2 C 0.8379(3) 0.4857(3) 0.1648(3)
H14_2 H 0.9042 0.4211 0.1952
H16_2 H 0.58(2) 0.52(2) 0.355(4)
N3 N 0.5738(3) 0.6356(2) 0.6715(2)
C15_2 C 0.6652(3) 0.6180(3) 0.8888(3)
C19_2 C 0.7510(3) 0.6147(4) 0.8013(3)
H9_2 H 0.8412 0.6060 0.8137
C20_2 C 0.7008(3) 0.6245(3) 0.6957(3)
H10_2 H 0.7597 0.6233 0.6378
C21_2 C 0.4917(3) 0.6375(4) 0.7566(3)
H11_2 H 0.4021 0.6444 0.7423
C22_2 C 0.5330(3) 0.6300(4) 0.8643(3)
H12_2 H 0.4719 0.6329 0.9205
H3 H 0.7233 0.2057 0.0342
H15 H 0.9459 0.1398 0.0612
H3_2 H 0.2767 0.7943 0.9658
H15_2 H 0.0541 0.8602 0.9388
loop_
_geom_bond_atom_site_label_1
_geom_bond_atom_site_label_2
_geom_bond_site_symmetry_1
_geom_bond_site_symmetry_2
N1 C20 1_555 1_555
C19 C15 1_555 1_555
H9 C19 1_555 1_555
C20 C19 1_555 1_555
H10 C20 1_555 1_555
C21 N1 1_555 1_555
H11 C21 1_555 1_555
C22 C15 1_555 1_555
H12 C22 1_555 1_555
Co6 N1 1_555 1_555
C21 C22 1_555 1_555
Co1 O1 1_555 1_555
Co6 O1 1_555 1_555
C1 O2 1_555 1_555
O1 H16 1_555 1_555
O2 Co1 1_555 1_555
O3 Co6 1_555 1_555
O5 Co1 1_555 1_555
N2 Co1 1_555 1_555
C4 C1 1_555 1_555
C6 O7 1_555 1_555
C7 C4 1_555 1_555
H1 C7 1_555 1_555
C8 C14 1_555 1_555
C9 N2 1_555 1_555
H2 C9 1_555 1_555
C14 C9 1_555 1_555
H5 C14 1_555 1_555
C17 C6 1_555 1_555
C18 C8 1_555 1_555
H8 C18 1_555 1_555
C24 N2 1_555 1_555
H14 C24 1_555 1_555
Co8 O1 1_555 1_555
O10 Co6 1_555 1_555
O11 Co1 1_555 1_555
O12 Co6 1_555 1_555
O13 Co1 1_555 1_555
O14 Co6 1_555 1_555
C1 O3 1_555 1_555
C4 C6 1_555 1_555
C18 C24 1_555 1_555
Co8 O10 1_555 1_555
O6 C3 1_555 1_555
O13 C3 1_555 1_555
C3 C13 1_555 1_555
C12 H4 1_555 1_555
Co8 O6 1_555 1_555
C12 C13 1_555 1_555
O4 C10 1_555 1_555
O14 C10 1_555 1_555
C2 C5 1_555 1_555
C5 C23 1_555 1_555
C10 C2 1_555 1_555
C16 C2 1_555 1_555
H6 C16 1_555 1_555
C25 C11 1_555 1_555
Co4 O4 1_555 1_555
C11 C16 1_555 1_555
C23 C25 1_555 1_555
O11 C10_2 1_555 1_555
O9 C10_2 1_555 1_555
C2_2 C5_2 1_555 1_555
C5_2 C23_2 1_555 1_555
C10_2 C2_2 1_555 1_555
C16_2 C2_2 1_555 1_555
H6_2 C16_2 1_555 1_555
C25_2 C11_2 1_555 1_555
Co8 O9 1_555 1_555
C11_2 C16_2 1_555 1_555
C23_2 C25_2 1_555 1_555
O12 C3_2 1_555 1_555
O8 C3_2 1_555 1_555
C3_2 C13_2 1_555 1_555
C12_2 H4_2 1_555 1_555
Co4 O8 1_555 1_555
C12_2 C13_2 1_555 1_555
Co4 O10 1_555 1_555
C1_2 O2_2 1_555 1_555
O10 H16_2 1_555 1_555
O2_2 Co4 1_555 1_555
O3_2 Co8 1_555 1_555
O5_2 Co4 1_555 1_555
N2_2 Co4 1_555 1_555
C4_2 C1_2 1_555 1_555
C6_2 O7_2 1_555 1_555
C7_2 C4_2 1_555 1_555
H1_2 C7_2 1_555 1_555
C8_2 C14_2 1_555 1_555
C9_2 N2_2 1_555 1_555
H2_2 C9_2 1_555 1_555
C14_2 C9_2 1_555 1_555
H5_2 C14_2 1_555 1_555
C17_2 C6_2 1_555 1_555
C18_2 C8_2 1_555 1_555
H8_2 C18_2 1_555 1_555
C24_2 N2_2 1_555 1_555
H14_2 C24_2 1_555 1_555
N3 Co8 1_555 1_555
C1_2 O3_2 1_555 1_555
C4_2 C6_2 1_555 1_555
C18_2 C24_2 1_555 1_555
N3 C20_2 1_555 1_555
C19_2 C15_2 1_555 1_555
H9_2 C19_2 1_555 1_555
C20_2 C19_2 1_555 1_555
H10_2 C20_2 1_555 1_555
C21_2 N3 1_555 1_555
H11_2 C21_2 1_555 1_555
C22_2 C15_2 1_555 1_555
H12_2 C22_2 1_555 1_555
C21_2 C22_2 1_555 1_555

#END
