
###############################################################################
#
# This file contains modified crystal structure data generated from the
# MOF subset of the Cambridge Structural Database (CSD) v543 
# hosted by the Cambridge Crystallographic Data Centre (CCDC).
#
# This work is licensed under the Creative Commons
# Attribution-NonCommercial-ShareAlike 4.0 International License.
# To view a copy of this license, visit
# http://creativecommons.org/licenses/by-nc-sa/4.0/
# or send a letter to
# Creative Commons, PO Box 1866, Mountain View, CA 94042, USA.
#
# CIF created using the CSD Python API on 29 September 2022
# The structure has been converted into the P1 space group
# The structure has a 3D framework
# The original CSD entry FOKHIZ01 is in the tetragonal crystal system
# The framework has been calculated to contain at least 10.0% void space
# The void calculation uses a probe of radius 1.32A, grid spacing 0.4
#
###############################################################################

data_FOKHIZ01
_chemical_formula_moiety         '(C96 H48 O51 Si2 Zn16)n'
_symmetry_cell_setting           triclinic
_symmetry_space_group_name_H-M   'P 1'
_symmetry_Int_Tables_number      1
_space_group_name_Hall           'P 1'
loop_
_symmetry_equiv_pos_site_id
_symmetry_equiv_pos_as_xyz
1 x,y,z
_cell_length_a                   13.6875(2)
_cell_length_b                   13.6875(2)
_cell_length_c                   15.0535(3)
_cell_angle_alpha                90
_cell_angle_beta                 90
_cell_angle_gamma                90
_cell_volume                     2820.24
loop_
_atom_site_label
_atom_site_type_symbol
_atom_site_fract_x
_atom_site_fract_y
_atom_site_fract_z
Zn1 Zn 0.11673(3) 0.38498(2) 0.12463(2)
O1 O 0.15293(13) 0.26812(13) 0.19047(11)
O2 O 0.20319(15) 0.49437(15) 0.11727(14)
O4 O 0.07627(16) 0.34309(14) 0.00830(13)
Zn2 Zn 0.04091(2) 0.18230(2) 0.17486(2)
O5 O 0.05993(15) 0.04173(14) 0.17888(13)
O7 O 0.00713(15) 0.20229(15) 0.05040(12)
O8 O 0.34707(13) 0.23188(13) 0.19047(11)
O9 O 0.23188(13) 0.15293(13) 0.30953(11)
Zn3 Zn 0.38327(3) 0.11502(2) 0.12463(2)
Zn4 Zn 0.45909(2) 0.31770(2) 0.17486(2)
Zn5 Zn 0.11502(2) 0.11673(3) 0.37537(2)
Zn6 Zn 0.31770(2) 0.04091(2) 0.32514(2)
O11 O 0.00563(15) 0.20319(15) 0.38273(14)
O12 O 0.50380(15) 0.06658(15) 0.17845(12)
O13 O 0.42373(16) 0.15691(14) 0.00830(13)
O14 O 0.29681(15) 0.00563(15) 0.11727(14)
O15 O 0.44007(15) 0.45827(14) 0.17888(13)
O16 O 0.49287(15) 0.29771(15) 0.05040(12)
O17 O 0.57101(14) 0.28799(15) 0.25153(13)
O18 O 0.15691(14) 0.07627(16) 0.49170(13)
O19 O 0.29771(15) 0.00713(15) 0.44960(12)
O20 O 0.45827(14) 0.05993(15) 0.32112(13)
C16 C 0.2365(2) 0.0333(2) 0.50705(18)
C20 C 0.2603(2) 0.0125(2) 0.60199(18)
C27 C 0.1885(2) 0.0232(2) 0.66702(19)
C33 C 0.2114(2) 0.0050(3) 0.75535(19)
H13 H 0.125707 0.042394 0.651312
H17 H 0.163347 0.010187 0.798774
C1 C 0.0333(2) 0.2635(2) 0.99295(18)
C2 C 0.0125(2) 0.2397(2) 0.89801(18)
C5 C 0.0232(2) 0.3115(2) 0.83298(19)
C8 C 0.0050(3) 0.2886(2) 0.74465(19)
H2 H 0.042394 0.374293 0.848688
H3 H 0.010187 0.336653 0.701226
C14 C 0.4667(2) 0.2365(2) 0.99295(18)
C18 C 0.4875(2) 0.2603(2) 0.89801(18)
C23 C 0.5148(2) 0.3544(2) 0.87440(17)
C24 C 0.4768(2) 0.1885(2) 0.83298(19)
H9 H 0.522888 0.402017 0.917863
C29 C 0.52988(19) 0.37706(19) 0.78599(18)
H10 H 0.457606 0.125707 0.848688
C30 C 0.4950(3) 0.2114(2) 0.74465(19)
C35 C 0.55461(18) 0.47948(19) 0.76023(17)
C36 C 0.5208(2) 0.3053(2) 0.72135(19)
H15 H 0.489813 0.163347 0.701226
O26 O 0.55993(15) 0.54173(14) 0.82112(13)
O27 O 0.56658(15) 0.49620(15) 0.67845(12)
H18 H 0.532130 0.320640 0.662061
Zn12 Zn 0.54091(2) 0.68230(2) 0.82514(2)
Zn13 Zn 0.61502(2) 0.61673(3) 0.62463(2)
Si1 Si 0.250000 0.250000 0.250000
O10 O 0.06658(15) 0.99620(15) 0.32155(12)
O21 O 0.28799(15) 0.92899(14) 0.24847(13)
C15 C 0.28509(19) 0.9303(2) 0.16496(18)
C19 C 0.2656(2) 0.8365(2) 0.11718(18)
C25 C 0.250000 0.750000 0.1638(3)
C26 C 0.2655(3) 0.8360(2) 0.0249(2)
C28 C 0.3544(2) 0.9852(2) 0.62560(17)
H11 H 0.250000 0.749999 0.225593
C31 C 0.2344(2) 0.6635(2) 0.11718(18)
H14 H 0.402017 0.977112 0.582137
C34 C 0.37706(19) 0.97012(19) 0.71401(18)
C37 C 0.21491(19) 0.5697(2) 0.16496(18)
C38 C 0.2345(3) 0.6640(2) 0.0249(2)
C39 C 0.3053(2) 0.9792(2) 0.77865(19)
C40 C 0.47948(19) 0.94539(18) 0.73977(17)
O28 O 0.21201(15) 0.57101(14) 0.24847(13)
H20 H 0.320640 0.967870 0.837939
O30 O 0.49620(15) 0.93342(15) 0.82155(12)
O31 O 0.54173(14) 0.94007(15) 0.67888(13)
Zn11 Zn 0.68230(2) 0.95909(2) 0.67486(2)
Zn14 Zn 0.18230(2) 0.45909(2) 0.32514(2)
Zn16 Zn 0.61673(3) 0.88498(2) 0.87537(2)
O32 O 0.26812(13) 0.34707(13) 0.30953(11)
Zn17 Zn 0.38498(2) 0.38327(3) 0.37537(2)
C32 C 0.250000 0.750000 0.9794(3)
H12 H 0.275945 0.893746 0.993826
H16 H 0.249998 0.750001 0.917641
H19 H 0.224055 0.606254 0.993826
O3 O 0.99620(15) 0.43342(15) 0.17845(12)
O6 O 0.92899(14) 0.21201(15) 0.25153(13)
C3 C 0.9303(2) 0.21491(19) 0.33504(18)
C6 C 0.8365(2) 0.2344(2) 0.38282(18)
C9 C 0.750000 0.250000 0.3362(3)
C10 C 0.8360(2) 0.2345(3) 0.4751(2)
H4 H 0.750001 0.250000 0.274407
C13 C 0.750000 0.250000 0.5206(3)
H5 H 0.893746 0.224055 0.506174
H7 H 0.749999 0.249998 0.582359
C17 C 0.6635(2) 0.2656(2) 0.38282(18)
C21 C 0.5697(2) 0.28509(19) 0.33504(18)
C22 C 0.6640(2) 0.2655(3) 0.4751(2)
O25 O 0.49437(15) 0.29681(15) 0.38273(14)
H8 H 0.606254 0.275945 0.506174
C4 C 0.9852(2) 0.1456(2) 0.87440(17)
C7 C 0.97012(19) 0.12294(19) 0.78599(18)
H1 H 0.977112 0.097983 0.917863
C11 C 0.94539(18) 0.02052(19) 0.76023(17)
C12 C 0.9792(2) 0.1947(2) 0.72135(19)
H6 H 0.967870 0.179360 0.662061
O23 O 0.93342(15) 0.00380(15) 0.67845(12)
O22 O 0.94007(15) 0.95827(14) 0.82112(13)
Zn7 Zn 0.95909(2) 0.81770(2) 0.82514(2)
Zn8 Zn 0.88498(2) 0.88327(3) 0.62463(2)
O10_2 O 0.43342(15) 0.50380(15) 0.32155(12)
O18_2 O 0.34309(14) 0.42373(16) 0.49170(13)
O19_2 O 0.20229(15) 0.49287(15) 0.44960(12)
O20_2 O 0.04173(14) 0.44007(15) 0.32112(13)
C16_2 C 0.2635(2) 0.4667(2) 0.50705(18)
C20_2 C 0.2397(2) 0.4875(2) 0.60199(18)
C27_2 C 0.3115(2) 0.4768(2) 0.66702(19)
C28_2 C 0.1456(2) 0.5148(2) 0.62560(17)
C33_2 C 0.2886(2) 0.4950(3) 0.75535(19)
H13_2 H 0.374293 0.457606 0.651312
H14_2 H 0.097983 0.522888 0.582137
C34_2 C 0.12294(19) 0.52988(19) 0.71401(18)
C39_2 C 0.1947(2) 0.5208(2) 0.77865(19)
H17_2 H 0.336653 0.489813 0.798774
C40_2 C 0.02052(19) 0.55461(18) 0.73977(17)
H20_2 H 0.179360 0.532130 0.837939
O30_2 O 0.00380(15) 0.56658(15) 0.82155(12)
O31_2 O 0.95827(14) 0.55993(15) 0.67888(13)
Zn11_2 Zn 0.81770(2) 0.54091(2) 0.67486(2)
Zn16_2 Zn 0.88327(3) 0.61502(2) 0.87537(2)
C28_3 C 0.0148(2) 0.8544(2) 0.12560(17)
H14_3 H 0.022888 0.902017 0.082137
C34_3 C 0.02988(19) 0.87706(19) 0.21401(18)
C39_3 C 0.0208(2) 0.8053(2) 0.27865(19)
C40_3 C 0.05461(18) 0.97948(19) 0.23977(17)
H20_3 H 0.032130 0.820640 0.337939
Si1_2 Si 0.750000 0.750000 0.750000
O21_2 O 0.07101(14) 0.78799(15) 0.74847(13)
C15_2 C 0.0697(2) 0.78509(19) 0.66496(18)
C19_2 C 0.1635(2) 0.7656(2) 0.61718(18)
C25_2 C 0.250000 0.750000 0.6638(3)
C26_2 C 0.1640(2) 0.7655(3) 0.5249(2)
H11_2 H 0.250001 0.750000 0.725593
C31_2 C 0.3365(2) 0.7344(2) 0.61718(18)
C32_2 C 0.250000 0.750000 0.4794(3)
H12_2 H 0.106254 0.775945 0.493826
C37_2 C 0.4303(2) 0.71491(19) 0.66496(18)
C38_2 C 0.3360(2) 0.7345(3) 0.5249(2)
H16_2 H 0.249999 0.749998 0.417641
O28_2 O 0.42899(14) 0.71201(15) 0.74847(13)
O29 O 0.50563(15) 0.70319(15) 0.61727(14)
H19_2 H 0.393746 0.724055 0.493826
O32_2 O 0.65293(13) 0.76812(13) 0.80953(11)
O34 O 0.65691(14) 0.57627(16) 0.50830(13)
O35 O 0.73188(13) 0.65293(13) 0.69047(11)
C41 C 0.7365(2) 0.5333(2) 0.49295(18)
O36 O 0.76812(13) 0.84707(13) 0.69047(11)
O37 O 0.84707(13) 0.73188(13) 0.80953(11)
C42 C 0.7603(2) 0.5125(2) 0.39801(18)
O38 O 0.79771(15) 0.50713(15) 0.55040(12)
O39 O 0.78799(15) 0.42899(14) 0.75153(13)
C43 C 0.8544(2) 0.4852(2) 0.37440(17)
C44 C 0.6885(2) 0.5232(2) 0.33298(19)
C45 C 0.87706(19) 0.47012(19) 0.28599(18)
H21 H 0.902017 0.477112 0.417863
C46 C 0.7114(2) 0.5050(3) 0.24465(19)
H22 H 0.625707 0.542394 0.348688
C47 C 0.8053(2) 0.4792(2) 0.22135(19)
C48 C 0.97948(19) 0.44539(18) 0.26023(17)
H23 H 0.663347 0.510187 0.201226
H24 H 0.820640 0.467870 0.162061
O17_2 O 0.71201(15) 0.07101(14) 0.75153(13)
C23_2 C 0.6456(2) 0.0148(2) 0.37440(17)
H9_2 H 0.597983 0.022888 0.417863
C29_2 C 0.62294(19) 0.02988(19) 0.28599(18)
C35_2 C 0.52052(19) 0.05461(18) 0.26023(17)
C36_2 C 0.6947(2) 0.0208(2) 0.22135(19)
H18_2 H 0.679360 0.032130 0.162061
C13_2 C 0.750000 0.250000 0.0206(3)
H5_2 H 0.775945 0.393746 0.006174
H7_2 H 0.750002 0.249999 0.082359
C16_3 C 0.9667(2) 0.7365(2) 0.00705(18)
C20_3 C 0.9875(2) 0.7603(2) 0.10199(18)
C27_3 C 0.9768(2) 0.6885(2) 0.16702(19)
H8_2 H 0.724055 0.106254 0.006174
C33_3 C 0.9950(3) 0.7114(2) 0.25535(19)
H13_3 H 0.957606 0.625707 0.151312
H17_3 H 0.989813 0.663347 0.298774
C3_2 C 0.78509(19) 0.4303(2) 0.83504(18)
C6_2 C 0.7656(2) 0.3365(2) 0.88282(18)
C9_2 C 0.750000 0.250000 0.8362(3)
C10_2 C 0.7655(3) 0.3360(2) 0.9751(2)
H4_2 H 0.750000 0.250001 0.774407
O11_2 O 0.79681(15) 0.50563(15) 0.88273(14)
O13_2 O 0.84309(14) 0.92373(16) 0.50830(13)
O14_2 O 0.99437(15) 0.79681(15) 0.61727(14)
O16_2 O 0.70229(15) 0.99287(15) 0.55040(12)
O18_3 O 0.92373(16) 0.65691(14) 0.99170(13)
O19_3 O 0.99287(15) 0.79771(15) 0.94960(12)
C14_2 C 0.7635(2) 0.9667(2) 0.49295(18)
C17_2 C 0.7344(2) 0.1635(2) 0.88282(18)
C18_2 C 0.7397(2) 0.9875(2) 0.39801(18)
C21_2 C 0.71491(19) 0.0697(2) 0.83504(18)
C22_2 C 0.7345(3) 0.1640(2) 0.9751(2)
C24_2 C 0.8115(2) 0.9768(2) 0.33298(19)
H10_2 H 0.874293 0.957606 0.348688
C30_2 C 0.7886(2) 0.9950(3) 0.24465(19)
H15_2 H 0.836653 0.989813 0.201226
O25_2 O 0.70319(15) 0.99437(15) 0.88273(14)
C16_4 C 0.5333(2) 0.7635(2) 0.00705(18)
C20_4 C 0.5125(2) 0.7397(2) 0.10199(18)
C27_4 C 0.5232(2) 0.8115(2) 0.16702(19)
C28_4 C 0.4852(2) 0.6456(2) 0.12560(17)
C33_4 C 0.5050(3) 0.7886(2) 0.25535(19)
H13_4 H 0.542394 0.874293 0.151312
H14_4 H 0.477112 0.597983 0.082137
C34_4 C 0.47012(19) 0.62294(19) 0.21401(18)
C39_4 C 0.4792(2) 0.6947(2) 0.27865(19)
H17_4 H 0.510187 0.836653 0.298774
C40_4 C 0.44539(18) 0.52052(19) 0.23977(17)
H20_4 H 0.467870 0.679360 0.337939
O18_4 O 0.57627(16) 0.84309(14) 0.99170(13)
O19_4 O 0.50713(15) 0.70229(15) 0.94960(12)
loop_
_geom_bond_atom_site_label_1
_geom_bond_atom_site_label_2
_geom_bond_site_symmetry_1
_geom_bond_site_symmetry_2
Zn1 O1 1_555 1_555
O1 Zn2 1_555 1_555
O2 Zn1 1_555 1_555
O4 Zn1 1_555 1_555
Zn2 O5 1_555 1_555
O7 Zn2 1_555 1_555
O8 Zn3 1_555 1_555
O9 Zn5 1_555 1_555
Zn3 O12 1_555 1_555
Zn4 O8 1_555 1_555
Zn6 O9 1_555 1_555
O13 Zn3 1_555 1_555
O14 Zn3 1_555 1_555
O15 Zn4 1_555 1_555
O16 Zn4 1_555 1_555
O17 Zn4 1_555 1_555
O18 Zn5 1_555 1_555
O19 Zn6 1_555 1_555
O20 Zn6 1_555 1_555
C16 O18 1_555 1_555
C20 C16 1_555 1_555
C27 C20 1_555 1_555
C33 C27 1_555 1_555
H13 C27 1_555 1_555
H17 C33 1_555 1_555
Zn5 O11 1_555 1_555
O19 C16 1_555 1_555
C2 C1 1_555 1_555
C5 C2 1_555 1_555
C8 C5 1_555 1_555
H2 C5 1_555 1_555
H3 C8 1_555 1_555
C18 C14 1_555 1_555
C23 C18 1_555 1_555
C24 C18 1_555 1_555
H9 C23 1_555 1_555
C29 C23 1_555 1_555
H10 C24 1_555 1_555
C30 C24 1_555 1_555
C35 C29 1_555 1_555
C36 C29 1_555 1_555
H15 C30 1_555 1_555
O26 C35 1_555 1_555
O27 C35 1_555 1_555
H18 C36 1_555 1_555
Zn12 O26 1_555 1_555
Zn13 O27 1_555 1_555
C30 C36 1_555 1_555
Si1 O32 1_555 1_555
C19 C15 1_555 1_555
C25 C19 1_555 1_555
C26 C19 1_555 1_555
H11 C25 1_555 1_555
C31 C25 1_555 1_555
H14 C28 1_555 1_555
C34 C28 1_555 1_555
C37 C31 1_555 1_555
C38 C31 1_555 1_555
C40 C34 1_555 1_555
O28 C37 1_555 1_555
O2 C37 1_555 1_555
H20 C39 1_555 1_555
O30 C40 1_555 1_555
O31 C40 1_555 1_555
Zn11 O31 1_555 1_555
Zn14 O28 1_555 1_555
Zn16 O30 1_555 1_555
O32 Zn14 1_555 1_555
O1 Si1 1_555 1_555
Zn17 O32 1_555 1_555
O8 Si1 1_555 1_555
O9 Si1 1_555 1_555
O21 C15 1_555 1_555
C34 C39 1_555 1_555
H16 C32 1_555 1_555
C3 O6 1_555 1_555
C6 C3 1_555 1_555
C9 C6 1_555 1_555
C10 C6 1_555 1_555
H4 C9 1_555 1_555
C13 C10 1_555 1_555
H5 C10 1_555 1_555
H7 C13 1_555 1_555
C17 C9 1_555 1_555
C21 C17 1_555 1_555
C22 C13 1_555 1_555
O17 C21 1_555 1_555
O25 C21 1_555 1_555
H8 C22 1_555 1_555
Zn17 O25 1_555 1_555
C17 C22 1_555 1_555
C7 C4 1_555 1_555
H1 C4 1_555 1_555
C11 C7 1_555 1_555
C12 C7 1_555 1_555
H6 C12 1_555 1_555
O23 C11 1_555 1_555
Zn7 O22 1_555 1_555
Zn17 O10_2 1_555 1_555
O18_2 Zn17 1_555 1_555
O19_2 Zn14 1_555 1_555
O20_2 Zn14 1_555 1_555
C16_2 O18_2 1_555 1_555
C20_2 C16_2 1_555 1_555
C27_2 C20_2 1_555 1_555
C28_2 C20_2 1_555 1_555
C33_2 C27_2 1_555 1_555
H13_2 C27_2 1_555 1_555
H14_2 C28_2 1_555 1_555
C34_2 C28_2 1_555 1_555
C39_2 C33_2 1_555 1_555
H17_2 C33_2 1_555 1_555
C40_2 C34_2 1_555 1_555
H20_2 C39_2 1_555 1_555
O30_2 C40_2 1_555 1_555
O19_2 C16_2 1_555 1_555
C34_2 C39_2 1_555 1_555
Zn11_2 O31_2 1_555 1_555
H14_3 C28_3 1_555 1_555
C34_3 C28_3 1_555 1_555
C40_3 C34_3 1_555 1_555
H20_3 C39_3 1_555 1_555
O10 C40_3 1_555 1_555
C34_3 C39_3 1_555 1_555
Si1_2 O32_2 1_555 1_555
C19_2 C15_2 1_555 1_555
C25_2 C19_2 1_555 1_555
C26_2 C19_2 1_555 1_555
H11_2 C25_2 1_555 1_555
C31_2 C25_2 1_555 1_555
C32_2 C26_2 1_555 1_555
H12_2 C26_2 1_555 1_555
C37_2 C31_2 1_555 1_555
C38_2 C31_2 1_555 1_555
H16_2 C32_2 1_555 1_555
O28_2 C37_2 1_555 1_555
O29 C37_2 1_555 1_555
H19_2 C38_2 1_555 1_555
Zn12 O28_2 1_555 1_555
Zn13 O29 1_555 1_555
O32_2 Zn12 1_555 1_555
O34 Zn13 1_555 1_555
O35 Si1_2 1_555 1_555
Zn16 O32_2 1_555 1_555
C41 O34 1_555 1_555
Zn11_2 O35 1_555 1_555
O36 Si1_2 1_555 1_555
O37 Si1_2 1_555 1_555
C42 C41 1_555 1_555
O38 C41 1_555 1_555
O39 Zn11_2 1_555 1_555
Zn11 O36 1_555 1_555
Zn8 O36 1_555 1_555
Zn7 O37 1_555 1_555
Zn16_2 O37 1_555 1_555
C43 C42 1_555 1_555
C44 C42 1_555 1_555
C45 C43 1_555 1_555
H21 C43 1_555 1_555
C46 C44 1_555 1_555
H22 C44 1_555 1_555
C47 C45 1_555 1_555
C48 C45 1_555 1_555
H23 C46 1_555 1_555
H24 C47 1_555 1_555
O3 C48 1_555 1_555
O21_2 C15_2 1_555 1_555
C32_2 C38_2 1_555 1_555
Zn13 O35 1_555 1_555
Zn11_2 O38 1_555 1_555
C46 C47 1_555 1_555
H9_2 C23_2 1_555 1_555
C29_2 C23_2 1_555 1_555
C35_2 C29_2 1_555 1_555
C36_2 C29_2 1_555 1_555
O20 C35_2 1_555 1_555
O12 C35_2 1_555 1_555
H18_2 C36_2 1_555 1_555
H7_2 C13_2 1_555 1_555
C20_3 C16_3 1_555 1_555
C27_3 C20_3 1_555 1_555
C33_3 C27_3 1_555 1_555
H13_3 C27_3 1_555 1_555
H17_3 C33_3 1_555 1_555
C3_2 O39 1_555 1_555
C6_2 C3_2 1_555 1_555
C9_2 C6_2 1_555 1_555
C10_2 C6_2 1_555 1_555
H4_2 C9_2 1_555 1_555
O11_2 C3_2 1_555 1_555
O13_2 Zn8 1_555 1_555
O14_2 Zn8 1_555 1_555
O16_2 Zn11 1_555 1_555
O18_3 Zn16_2 1_555 1_555
O19_3 Zn7 1_555 1_555
C14_2 O13_2 1_555 1_555
C17_2 C9_2 1_555 1_555
C18_2 C14_2 1_555 1_555
C21_2 C17_2 1_555 1_555
C24_2 C18_2 1_555 1_555
O17_2 C21_2 1_555 1_555
H10_2 C24_2 1_555 1_555
C30_2 C24_2 1_555 1_555
H15_2 C30_2 1_555 1_555
Zn16_2 O11_2 1_555 1_555
O16_2 C14_2 1_555 1_555
C17_2 C22_2 1_555 1_555
Zn16 O25_2 1_555 1_555
C20_4 C16_4 1_555 1_555
C27_4 C20_4 1_555 1_555
C28_4 C20_4 1_555 1_555
C33_4 C27_4 1_555 1_555
H13_4 C27_4 1_555 1_555
H14_4 C28_4 1_555 1_555
C34_4 C28_4 1_555 1_555
C39_4 C33_4 1_555 1_555
H17_4 C33_4 1_555 1_555
C40_4 C34_4 1_555 1_555
H20_4 C39_4 1_555 1_555
O10_2 C40_4 1_555 1_555
O15 C40_4 1_555 1_555
C34_4 C39_4 1_555 1_555
O18_4 Zn16 1_555 1_555
O19_4 Zn12 1_555 1_555

#END
