
###############################################################################
#
# This file contains modified crystal structure data generated from the
# MOF subset of the Cambridge Structural Database (CSD) v543 
# hosted by the Cambridge Crystallographic Data Centre (CCDC).
#
# This work is licensed under the Creative Commons
# Attribution-NonCommercial-ShareAlike 4.0 International License.
# To view a copy of this license, visit
# http://creativecommons.org/licenses/by-nc-sa/4.0/
# or send a letter to
# Creative Commons, PO Box 1866, Mountain View, CA 94042, USA.
#
# CIF created using the CSD Python API on 29 September 2022
# The structure has been converted into the P1 space group
# The structure has a 3D framework
# The original CSD entry FOKHIZ is in the tetragonal crystal system
# The framework has been calculated to contain at least 10.0% void space
# The void calculation uses a probe of radius 1.32A, grid spacing 0.4
#
###############################################################################

data_FOKHIZ
_chemical_formula_moiety         '(C96 H48 O51 Si2 Zn16)n'
_symmetry_cell_setting           triclinic
_symmetry_space_group_name_H-M   'P 1'
_symmetry_Int_Tables_number      1
_space_group_name_Hall           'P 1'
loop_
_symmetry_equiv_pos_site_id
_symmetry_equiv_pos_as_xyz
1 x,y,z
_cell_length_a                   13.6944(2)
_cell_length_b                   13.6944(2)
_cell_length_c                   15.0329(4)
_cell_angle_alpha                90
_cell_angle_beta                 90
_cell_angle_gamma                90
_cell_volume                     2819.22
loop_
_atom_site_label
_atom_site_type_symbol
_atom_site_fract_x
_atom_site_fract_y
_atom_site_fract_z
O17 O 0.04218(14) 0.05948(16) 0.67919(13)
Zn15 Zn 0.11717(2) 0.11503(2) 0.87594(2)
Zn17 Zn 0.18265(2) 0.04099(2) 0.67504(2)
O1 O 0.44052(16) 0.04218(14) 0.82081(13)
Zn10 Zn 0.38497(2) 0.11717(2) 0.62406(2)
Zn20 Zn 0.45901(2) 0.18265(2) 0.82496(2)
Zn1 Zn 0.61717(2) 0.61503(2) 0.12406(2)
Zn2 Zn 0.54099(2) 0.81735(2) 0.17504(2)
Si1 Si 0.750000 0.750000 0.250000
O3 O 0.57677(17) 0.65739(14) 0.00794(13)
O4 O 0.65314(12) 0.73166(12) 0.19017(12)
O5 O 0.50760(16) 0.79769(15) 0.05018(13)
O6 O 0.42914(14) 0.78746(15) 0.25173(14)
O7 O 0.50509(15) 0.79714(16) 0.38298(15)
C2 C 0.43024(19) 0.78517(19) 0.33488(19)
C10 C 0.33627(19) 0.7658(2) 0.38296(19)
C11 C 0.250000 0.750000 0.3365(3)
H5 H 0.250001 0.750001 0.274606
C12 C 0.3359(2) 0.7655(3) 0.4752(2)
H6 H 0.393611 0.775678 0.506399
C13 C 0.250000 0.750000 0.5203(3)
H7 H 0.250001 0.749998 0.582132
O8 O 0.84686(12) 0.76834(12) 0.19017(12)
O9 O 0.73166(12) 0.84686(12) 0.30983(12)
O10 O 0.76834(12) 0.65314(12) 0.30983(12)
O11 O 0.07086(14) 0.71254(15) 0.25173(14)
C14 C 0.06976(19) 0.71483(19) 0.33488(19)
C15 C 0.16373(19) 0.7342(2) 0.38296(19)
C16 C 0.1641(2) 0.7345(3) 0.4752(2)
H8 H 0.106389 0.724322 0.506399
Zn11 Zn 0.88283(2) 0.88497(2) 0.12406(2)
Zn14 Zn 0.61503(2) 0.88283(2) 0.37594(2)
Zn16 Zn 0.88497(2) 0.61717(2) 0.37594(2)
Zn18 Zn 0.95901(2) 0.68265(2) 0.17504(2)
Zn21 Zn 0.81735(2) 0.95901(2) 0.32496(2)
Zn24 Zn 0.68265(2) 0.54099(2) 0.32496(2)
O31 O 0.55948(16) 0.95782(14) 0.17919(13)
O33 O 0.00304(15) 0.93303(16) 0.17818(13)
O34 O 0.49696(15) 0.56697(16) 0.17818(13)
O42 O 0.70286(16) 0.50509(15) 0.11702(15)
O2 O 0.43303(16) 0.99696(15) 0.67818(13)
C1 C 0.44551(18) 0.98043(19) 0.75948(18)
C3 C 0.53366(19) 0.73693(19) 0.99241(18)
C4 C 0.5131(2) 0.7608(2) 0.89744(18)
C5 C 0.47054(19) 0.87788(19) 0.78561(18)
C6 C 0.48595(19) 0.85503(19) 0.87402(17)
H1 H 0.478154 0.902552 0.917639
C7 C 0.4796(2) 0.8063(2) 0.7207(2)
H2 H 0.468776 0.821696 0.661265
C8 C 0.5046(3) 0.7122(2) 0.7444(2)
H3 H 0.508926 0.663885 0.701145
C9 C 0.5233(3) 0.6898(2) 0.8321(2)
H4 H 0.542808 0.627023 0.847645
O13 O 0.05948(16) 0.45782(14) 0.82081(13)
O14 O 0.06697(16) 0.50304(15) 0.67818(13)
C17 C 0.05449(18) 0.51957(19) 0.75948(18)
C20 C 0.02946(19) 0.62212(19) 0.78561(18)
C21 C 0.01405(19) 0.64497(19) 0.87402(17)
H9 H 0.021846 0.597448 0.917639
C22 C 0.0204(2) 0.6937(2) 0.7207(2)
H10 H 0.031224 0.678304 0.661265
Zn12 Zn 0.11503(2) 0.38283(2) 0.62406(2)
Zn22 Zn 0.04099(2) 0.31735(2) 0.82496(2)
O18 O 0.99696(15) 0.06697(16) 0.82182(13)
O21 O 0.78746(15) 0.07086(14) 0.24827(14)
C25 C 0.98043(19) 0.05449(18) 0.74052(18)
C26 C 0.78517(19) 0.06976(19) 0.16512(19)
C29 C 0.87788(19) 0.02946(19) 0.71439(18)
C30 C 0.85503(19) 0.01405(19) 0.62598(17)
H13 H 0.902552 0.021846 0.582361
C31 C 0.8063(2) 0.0204(2) 0.7793(2)
H14 H 0.821696 0.031224 0.838735
C34 C 0.7658(2) 0.16373(19) 0.11704(19)
C35 C 0.750000 0.250000 0.1635(3)
H17 H 0.750001 0.249999 0.225394
C36 C 0.7655(3) 0.1641(2) 0.0248(2)
O23 O 0.71254(15) 0.42914(14) 0.24827(14)
C38 C 0.71483(19) 0.43024(19) 0.16512(19)
C39 C 0.7342(2) 0.33627(19) 0.11704(19)
C40 C 0.7345(3) 0.3359(2) 0.0248(2)
O35 O 0.56697(16) 0.00304(15) 0.32182(13)
H18 H 0.775678 0.106389 0.993601
C37 C 0.750000 0.250000 0.9797(3)
H19 H 0.749998 0.249999 0.917868
H20 H 0.724322 0.393611 0.993601
O12 O 0.99491(15) 0.70286(16) 0.38298(15)
O15 O 0.92323(17) 0.84261(14) 0.00794(13)
O16 O 0.99240(16) 0.70231(15) 0.05018(13)
O19 O 0.65739(14) 0.92323(17) 0.49206(13)
O20 O 0.79769(15) 0.99240(16) 0.44982(13)
O22 O 0.79714(16) 0.99491(15) 0.11702(15)
C27 C 0.73693(19) 0.96634(19) 0.50759(18)
C28 C 0.7608(2) 0.9869(2) 0.60256(18)
C32 C 0.7122(2) 0.9954(3) 0.7556(2)
H15 H 0.663885 0.991074 0.798855
C33 C 0.6898(2) 0.9767(3) 0.6679(2)
H16 H 0.627023 0.957192 0.652355
O25 O 0.45782(14) 0.44052(16) 0.67919(13)
O26 O 0.50304(15) 0.43303(16) 0.82182(13)
O27 O 0.84261(14) 0.57677(17) 0.49206(13)
O28 O 0.70231(15) 0.50760(16) 0.44982(13)
C41 C 0.51957(19) 0.44551(18) 0.74052(18)
C42 C 0.76307(19) 0.53366(19) 0.50759(18)
C43 C 0.7392(2) 0.5131(2) 0.60256(18)
C44 C 0.62212(19) 0.47054(19) 0.71439(18)
C45 C 0.64497(19) 0.48595(19) 0.62598(17)
H21 H 0.597448 0.478154 0.582361
C46 C 0.6937(2) 0.4796(2) 0.7793(2)
H22 H 0.678304 0.468776 0.838735
C47 C 0.7878(2) 0.5046(3) 0.7556(2)
H23 H 0.836115 0.508926 0.798855
C48 C 0.8102(2) 0.5233(3) 0.6679(2)
H24 H 0.872977 0.542808 0.652355
Zn13 Zn 0.38283(2) 0.38497(2) 0.87594(2)
Zn19 Zn 0.31735(2) 0.45901(2) 0.67504(2)
O29 O 0.95782(14) 0.94052(16) 0.32081(13)
O30 O 0.54218(14) 0.55948(16) 0.32081(13)
O32 O 0.94052(16) 0.54218(14) 0.17919(13)
O36 O 0.93303(16) 0.49696(15) 0.32182(13)
C18 C 0.96634(19) 0.76307(19) 0.99241(18)
C19 C 0.9869(2) 0.7392(2) 0.89744(18)
C23 C 0.9954(3) 0.7878(2) 0.7444(2)
H11 H 0.991074 0.836115 0.701145
C24 C 0.9767(3) 0.8102(2) 0.8321(2)
H12 H 0.957192 0.872977 0.847645
Si1_2 Si 0.250000 0.250000 0.750000
O3_2 O 0.34261(14) 0.07677(17) 0.50794(13)
O4_2 O 0.26834(12) 0.15314(12) 0.69017(12)
O5_2 O 0.20231(15) 0.00760(16) 0.55018(13)
O7_2 O 0.20286(16) 0.00509(15) 0.88298(15)
C3_2 C 0.26307(19) 0.03366(19) 0.49241(18)
C4_2 C 0.2392(2) 0.0131(2) 0.39744(18)
C8_2 C 0.2878(2) 0.0046(3) 0.2444(2)
H3_2 H 0.336115 0.008926 0.201145
C9_2 C 0.3102(2) 0.0233(3) 0.3321(2)
H4_2 H 0.372977 0.042808 0.347645
O8_2 O 0.23166(12) 0.34686(12) 0.69017(12)
O9_2 O 0.15314(12) 0.23166(12) 0.80983(12)
O10_2 O 0.34686(12) 0.26834(12) 0.80983(12)
O42_2 O 0.49491(15) 0.20286(16) 0.61702(15)
H6_2 H 0.224322 0.893611 0.006399
C13_2 C 0.250000 0.750000 0.0203(3)
H7_2 H 0.250002 0.750001 0.082132
H8_2 H 0.275678 0.606389 0.006399
C27_2 C 0.03366(19) 0.23693(19) 0.00759(18)
C28_2 C 0.0131(2) 0.2608(2) 0.10256(18)
C32_2 C 0.0046(3) 0.2122(2) 0.2556(2)
H15_2 H 0.008926 0.163885 0.298855
C33_2 C 0.0233(3) 0.1898(2) 0.1679(2)
H16_2 H 0.042808 0.127023 0.152355
C41_2 C 0.55449(18) 0.01957(19) 0.24052(18)
C42_2 C 0.46634(19) 0.26307(19) 0.00759(18)
C43_2 C 0.4869(2) 0.2392(2) 0.10256(18)
C44_2 C 0.52946(19) 0.12212(19) 0.21439(18)
C45_2 C 0.51405(19) 0.14497(19) 0.12598(17)
H21_2 H 0.521846 0.097448 0.082361
C46_2 C 0.5204(2) 0.1937(2) 0.2793(2)
H22_2 H 0.531224 0.178304 0.338735
C47_2 C 0.4954(3) 0.2878(2) 0.2556(2)
H23_2 H 0.491074 0.336115 0.298855
C48_2 C 0.4767(3) 0.3102(2) 0.1679(2)
H24_2 H 0.457192 0.372977 0.152355
O6_2 O 0.21254(15) 0.92914(14) 0.75173(14)
C1_2 C 0.01957(19) 0.94551(18) 0.25948(18)
C2_2 C 0.21483(19) 0.93024(19) 0.83488(19)
C5_2 C 0.12212(19) 0.97054(19) 0.28561(18)
C6_2 C 0.14497(19) 0.98595(19) 0.37402(17)
H1_2 H 0.097448 0.978154 0.417639
C7_2 C 0.1937(2) 0.9796(2) 0.2207(2)
H2_2 H 0.178304 0.968776 0.161265
C10_2 C 0.2342(2) 0.83627(19) 0.88296(19)
C11_2 C 0.250000 0.750000 0.8365(3)
H5_2 H 0.249999 0.750001 0.774606
C12_2 C 0.2345(3) 0.8359(2) 0.9752(2)
O11_2 O 0.28746(15) 0.57086(14) 0.75173(14)
C14_2 C 0.28517(19) 0.56976(19) 0.83488(19)
C15_2 C 0.2658(2) 0.66373(19) 0.88296(19)
C16_2 C 0.2655(3) 0.6641(2) 0.9752(2)
O12_2 O 0.29714(16) 0.49491(15) 0.88298(15)
O15_2 O 0.15739(14) 0.42323(17) 0.50794(13)
O16_2 O 0.29769(15) 0.49240(16) 0.55018(13)
C17_2 C 0.48043(19) 0.55449(18) 0.25948(18)
C18_2 C 0.23693(19) 0.46634(19) 0.49241(18)
C19_2 C 0.2608(2) 0.4869(2) 0.39744(18)
C20_2 C 0.37788(19) 0.52946(19) 0.28561(18)
C21_2 C 0.35503(19) 0.51405(19) 0.37402(17)
H9_2 H 0.402552 0.521846 0.417639
C22_2 C 0.3063(2) 0.5204(2) 0.2207(2)
H10_2 H 0.321696 0.531224 0.161265
C23_2 C 0.2122(2) 0.4954(3) 0.2444(2)
H11_2 H 0.163885 0.491074 0.201145
C24_2 C 0.1898(2) 0.4767(3) 0.3321(2)
H12_2 H 0.127023 0.457192 0.347645
O19_2 O 0.07677(17) 0.15739(14) 0.99206(13)
O20_2 O 0.00760(16) 0.29769(15) 0.94982(13)
O22_2 O 0.00509(15) 0.29714(16) 0.61702(15)
O27_2 O 0.42323(17) 0.34261(14) 0.99206(13)
O28_2 O 0.49240(16) 0.20231(15) 0.94982(13)
O40 O 0.57086(14) 0.21254(15) 0.74827(14)
C25_2 C 0.94551(18) 0.48043(19) 0.24052(18)
C29_2 C 0.97054(19) 0.37788(19) 0.21439(18)
C30_2 C 0.98595(19) 0.35503(19) 0.12598(17)
H13_2 H 0.978154 0.402552 0.082361
C31_2 C 0.9796(2) 0.3063(2) 0.2793(2)
H14_2 H 0.968776 0.321696 0.338735
O21_2 O 0.92914(14) 0.28746(15) 0.74827(14)
C26_2 C 0.93024(19) 0.28517(19) 0.66512(19)
C34_2 C 0.83627(19) 0.2658(2) 0.61704(19)
C35_2 C 0.750000 0.250000 0.6635(3)
H17_2 H 0.750001 0.250001 0.725394
C36_2 C 0.8359(2) 0.2655(3) 0.5248(2)
H18_2 H 0.893611 0.275678 0.493601
C37_2 C 0.750000 0.250000 0.4797(3)
H19_2 H 0.750001 0.249998 0.417868
C38_2 C 0.56976(19) 0.21483(19) 0.66512(19)
C39_2 C 0.66373(19) 0.2342(2) 0.61704(19)
C40_2 C 0.6641(2) 0.2345(3) 0.5248(2)
H20_2 H 0.606389 0.224322 0.493601
loop_
_geom_bond_atom_site_label_1
_geom_bond_atom_site_label_2
_geom_bond_site_symmetry_1
_geom_bond_site_symmetry_2
Zn17 O17 1_555 1_555
Zn20 O1 1_555 1_555
Zn1 O3 1_555 1_555
Zn2 O4 1_555 1_555
Si1 O4 1_555 1_555
O4 Zn1 1_555 1_555
O5 Zn2 1_555 1_555
O6 Zn2 1_555 1_555
O7 C2 1_555 1_555
C2 O6 1_555 1_555
C10 C2 1_555 1_555
C11 C10 1_555 1_555
H5 C11 1_555 1_555
C12 C10 1_555 1_555
H6 C12 1_555 1_555
C13 C12 1_555 1_555
H7 C13 1_555 1_555
O8 Si1 1_555 1_555
O9 Si1 1_555 1_555
O10 Si1 1_555 1_555
O11 C14 1_555 1_555
C14 C15 1_555 1_555
C15 C11 1_555 1_555
C16 C13 1_555 1_555
H8 C16 1_555 1_555
Zn11 O8 1_555 1_555
Zn14 O7 1_555 1_555
Zn16 O10 1_555 1_555
Zn18 O8 1_555 1_555
Zn21 O9 1_555 1_555
Zn24 O10 1_555 1_555
O31 Zn2 1_555 1_555
O34 Zn1 1_555 1_555
O42 Zn1 1_555 1_555
O9 Zn14 1_555 1_555
C15 C16 1_555 1_555
O2 C1 1_555 1_555
C1 C5 1_555 1_555
C4 C3 1_555 1_555
C5 C6 1_555 1_555
C6 C4 1_555 1_555
H1 C6 1_555 1_555
C7 C5 1_555 1_555
H2 C7 1_555 1_555
C8 C7 1_555 1_555
H3 C8 1_555 1_555
C9 C4 1_555 1_555
H4 C9 1_555 1_555
O13 C17 1_555 1_555
O14 C17 1_555 1_555
C17 C20 1_555 1_555
C20 C21 1_555 1_555
H9 C21 1_555 1_555
C22 C20 1_555 1_555
H10 C22 1_555 1_555
Zn12 O14 1_555 1_555
Zn22 O13 1_555 1_555
C8 C9 1_555 1_555
O18 C25 1_555 1_555
C25 C29 1_555 1_555
C26 O21 1_555 1_555
C29 C30 1_555 1_555
C30 H13 1_555 1_555
C31 C29 1_555 1_555
H14 C31 1_555 1_555
C34 C26 1_555 1_555
C35 C34 1_555 1_555
H17 C35 1_555 1_555
C36 C34 1_555 1_555
O23 C38 1_555 1_555
C38 C39 1_555 1_555
C39 C35 1_555 1_555
O42 C38 1_555 1_555
Zn24 O23 1_555 1_555
C39 C40 1_555 1_555
H19 C37 1_555 1_555
Zn11 O15 1_555 1_555
O16 Zn18 1_555 1_555
Zn14 O19 1_555 1_555
Zn21 O20 1_555 1_555
O19 C27 1_555 1_555
O20 C27 1_555 1_555
O22 Zn11 1_555 1_555
C27 C28 1_555 1_555
H15 C32 1_555 1_555
C33 C28 1_555 1_555
H16 C33 1_555 1_555
Zn16 O12 1_555 1_555
Zn24 O28 1_555 1_555
O25 C41 1_555 1_555
O26 C41 1_555 1_555
O27 Zn16 1_555 1_555
O28 C42 1_555 1_555
C41 C44 1_555 1_555
C42 O27 1_555 1_555
C43 C42 1_555 1_555
C44 C45 1_555 1_555
C45 C43 1_555 1_555
H21 C45 1_555 1_555
C46 C44 1_555 1_555
H22 C46 1_555 1_555
C47 C46 1_555 1_555
H23 C47 1_555 1_555
C48 C43 1_555 1_555
H24 C48 1_555 1_555
Zn13 O26 1_555 1_555
Zn19 O25 1_555 1_555
O29 Zn21 1_555 1_555
O30 Zn24 1_555 1_555
O32 Zn18 1_555 1_555
O36 Zn16 1_555 1_555
C32 C33 1_555 1_555
C47 C48 1_555 1_555
C19 C18 1_555 1_555
H11 C23 1_555 1_555
C24 C19 1_555 1_555
H12 C24 1_555 1_555
C23 C24 1_555 1_555
Zn10 O3_2 1_555 1_555
Zn17 O4_2 1_555 1_555
Si1_2 O4_2 1_555 1_555
O3_2 C3_2 1_555 1_555
O4_2 Zn10 1_555 1_555
O5_2 Zn17 1_555 1_555
C3_2 O5_2 1_555 1_555
C4_2 C3_2 1_555 1_555
H3_2 C8_2 1_555 1_555
C9_2 C4_2 1_555 1_555
H4_2 C9_2 1_555 1_555
O8_2 Si1_2 1_555 1_555
O9_2 Si1_2 1_555 1_555
O10_2 Si1_2 1_555 1_555
Zn12 O8_2 1_555 1_555
Zn15 O7_2 1_555 1_555
Zn13 O10_2 1_555 1_555
Zn19 O8_2 1_555 1_555
Zn22 O9_2 1_555 1_555
Zn20 O10_2 1_555 1_555
O42_2 Zn10 1_555 1_555
C8_2 C9_2 1_555 1_555
O9_2 Zn15 1_555 1_555
H7_2 C13_2 1_555 1_555
C27_2 C28_2 1_555 1_555
H15_2 C32_2 1_555 1_555
C33_2 C28_2 1_555 1_555
H16_2 C33_2 1_555 1_555
O35 C41_2 1_555 1_555
C41_2 C44_2 1_555 1_555
C43_2 C42_2 1_555 1_555
C44_2 C45_2 1_555 1_555
C45_2 C43_2 1_555 1_555
H21_2 C45_2 1_555 1_555
C46_2 C44_2 1_555 1_555
H22_2 C46_2 1_555 1_555
C47_2 C46_2 1_555 1_555
H23_2 C47_2 1_555 1_555
C48_2 C43_2 1_555 1_555
H24_2 C48_2 1_555 1_555
C32_2 C33_2 1_555 1_555
C47_2 C48_2 1_555 1_555
O33 C1_2 1_555 1_555
C1_2 C5_2 1_555 1_555
C2_2 O6_2 1_555 1_555
C5_2 C6_2 1_555 1_555
H1_2 C6_2 1_555 1_555
C7_2 C5_2 1_555 1_555
H2_2 C7_2 1_555 1_555
C10_2 C2_2 1_555 1_555
C11_2 C10_2 1_555 1_555
H5_2 C11_2 1_555 1_555
C12_2 C10_2 1_555 1_555
O11_2 C14_2 1_555 1_555
C14_2 C15_2 1_555 1_555
C15_2 C11_2 1_555 1_555
O12_2 C14_2 1_555 1_555
Zn12 O15_2 1_555 1_555
Zn19 O11_2 1_555 1_555
O30 C17_2 1_555 1_555
O34 C17_2 1_555 1_555
O15_2 C18_2 1_555 1_555
O16_2 Zn19 1_555 1_555
C17_2 C20_2 1_555 1_555
C18_2 O16_2 1_555 1_555
C19_2 C18_2 1_555 1_555
C20_2 C21_2 1_555 1_555
C21_2 C19_2 1_555 1_555
H9_2 C21_2 1_555 1_555
C22_2 C20_2 1_555 1_555
H10_2 C22_2 1_555 1_555
C23_2 C22_2 1_555 1_555
H11_2 C23_2 1_555 1_555
C24_2 C19_2 1_555 1_555
H12_2 C24_2 1_555 1_555
Zn15 O19_2 1_555 1_555
Zn22 O20_2 1_555 1_555
O22_2 Zn12 1_555 1_555
Zn13 O12_2 1_555 1_555
Zn20 O28_2 1_555 1_555
O27_2 Zn13 1_555 1_555
O40 Zn20 1_555 1_555
C15_2 C16_2 1_555 1_555
C23_2 C24_2 1_555 1_555
O32 C25_2 1_555 1_555
O36 C25_2 1_555 1_555
C25_2 C29_2 1_555 1_555
C29_2 C30_2 1_555 1_555
C30_2 H13_2 1_555 1_555
C31_2 C29_2 1_555 1_555
H14_2 C31_2 1_555 1_555
C26_2 O21_2 1_555 1_555
C34_2 C26_2 1_555 1_555
C35_2 C34_2 1_555 1_555
H17_2 C35_2 1_555 1_555
C36_2 C34_2 1_555 1_555
H18_2 C36_2 1_555 1_555
C37_2 C36_2 1_555 1_555
H19_2 C37_2 1_555 1_555
O40 C38_2 1_555 1_555
C38_2 C39_2 1_555 1_555
C39_2 C35_2 1_555 1_555
C40_2 C37_2 1_555 1_555
H20_2 C40_2 1_555 1_555
O42_2 C38_2 1_555 1_555
C39_2 C40_2 1_555 1_555

#END
