
###############################################################################
#
# This file contains modified crystal structure data generated from the
# MOF subset of the Cambridge Structural Database (CSD) v543 
# hosted by the Cambridge Crystallographic Data Centre (CCDC).
#
# This work is licensed under the Creative Commons
# Attribution-NonCommercial-ShareAlike 4.0 International License.
# To view a copy of this license, visit
# http://creativecommons.org/licenses/by-nc-sa/4.0/
# or send a letter to
# Creative Commons, PO Box 1866, Mountain View, CA 94042, USA.
#
# CIF created using the CSD Python API on 29 September 2022
# The structure has been converted into the P1 space group
# The structure has a 3D framework
# The original CSD entry FOKHIZ03 is in the tetragonal crystal system
# The framework has been calculated to contain at least 10.0% void space
# The void calculation uses a probe of radius 1.32A, grid spacing 0.4
#
###############################################################################

data_FOKHIZ03
_chemical_formula_moiety         '(C96 H48 O49 Si2 Zn16)n'
_symmetry_cell_setting           triclinic
_symmetry_space_group_name_H-M   'P 1'
_symmetry_Int_Tables_number      1
_space_group_name_Hall           'P 1'
loop_
_symmetry_equiv_pos_site_id
_symmetry_equiv_pos_as_xyz
1 x,y,z
_cell_length_a                   13.68397(19)
_cell_length_b                   13.68397(19)
_cell_length_c                   15.0654(3)
_cell_angle_alpha                90
_cell_angle_beta                 90
_cell_angle_gamma                90
_cell_volume                     2821.01
loop_
_atom_site_label
_atom_site_type_symbol
_atom_site_fract_x
_atom_site_fract_y
_atom_site_fract_z
O11 O 0.29649(15) 0.00570(14) 0.11728(13)
Zn10 Zn 0.38337(3) 0.11500(2) 0.12480(2)
Zn19 Zn 0.31783(2) 0.04084(2) 0.32519(2)
Zn1 Zn 0.11663(3) 0.38500(2) 0.12480(2)
Zn2 Zn 0.04084(2) 0.18217(2) 0.17481(2)
Si1 Si 0.250000 0.250000 0.250000
O1 O 0.06047(14) 0.04177(14) 0.17866(12)
O4 O 0.15284(13) 0.26815(13) 0.19039(11)
O6 O 0.21192(14) 0.57092(14) 0.24832(13)
O7 O 0.20351(15) 0.49430(14) 0.11728(13)
C5 C 0.2342(2) 0.6635(2) 0.11726(18)
C6 C 0.21519(19) 0.5693(2) 0.16497(18)
C10 C 0.2347(2) 0.6640(2) 0.0249(2)
C11 C 0.250000 0.750000 0.1637(2)
H6 H 0.249999 0.749999 0.225410
O8 O 0.34716(13) 0.23185(13) 0.19039(11)
O9 O 0.26815(13) 0.34716(13) 0.30961(11)
O10 O 0.23185(13) 0.15284(13) 0.30961(11)
C14 C 0.2658(2) 0.8365(2) 0.11726(18)
C15 C 0.28481(19) 0.9307(2) 0.16497(18)
C16 C 0.2653(2) 0.8360(2) 0.0249(2)
O12 O 0.28808(14) 0.92908(14) 0.24832(13)
Zn4 Zn 0.45916(2) 0.31783(2) 0.17481(2)
O13 O 0.43953(14) 0.45823(14) 0.17866(12)
O14 O 0.43380(14) 0.50385(14) 0.32136(12)
C17 C 0.44518(18) 0.52075(19) 0.23962(17)
C18 C 0.46955(19) 0.62307(19) 0.21392(17)
C19 C 0.48482(19) 0.6459(2) 0.12533(17)
H9 H 0.476936 0.598369 0.081816
C20 C 0.4789(2) 0.6950(2) 0.27851(18)
H10 H 0.467722 0.679714 0.337792
C21 C 0.51187(19) 0.7400(2) 0.10205(18)
C22 C 0.5048(2) 0.7892(2) 0.25500(19)
H11 H 0.510303 0.837346 0.298327
C23 C 0.5226(2) 0.8119(2) 0.16674(19)
H12 H 0.541623 0.874744 0.150852
C24 C 0.53285(19) 0.76390(19) 0.00671(17)
O19 O 0.00570(14) 0.20351(15) 0.38272(13)
Zn6 Zn 0.18217(2) 0.45916(2) 0.32519(2)
O21 O 0.04177(14) 0.43953(14) 0.32134(12)
O27 O 0.07592(15) 0.34326(14) 0.00852(12)
O28 O 0.00653(14) 0.20238(14) 0.05046(12)
Zn8 Zn 0.11500(2) 0.11663(3) 0.37520(2)
Zn13 Zn 0.38500(2) 0.38337(3) 0.37520(2)
O30 O 0.50385(14) 0.06620(14) 0.17864(12)
O32 O 0.15674(14) 0.07592(15) 0.49148(12)
O33 O 0.42408(15) 0.15674(14) 0.00852(12)
O36 O 0.20238(14) 0.49347(14) 0.44954(12)
O37 O 0.49347(14) 0.29762(14) 0.05046(12)
O39 O 0.57092(14) 0.28808(14) 0.25168(13)
H5 H 0.224617 0.606239 0.993743
C12 C 0.250000 0.750000 0.9797(3)
H7 H 0.250002 0.750000 0.917942
H8 H 0.275383 0.893761 0.993743
O15 O 0.57592(15) 0.84326(14) 0.99148(12)
O16 O 0.50653(14) 0.70238(14) 0.94954(12)
C45 C 0.01187(19) 0.2400(2) 0.89795(18)
C46 C 0.0048(2) 0.2892(2) 0.74500(19)
H23 H 0.010303 0.337346 0.701673
C47 C 0.0226(2) 0.3119(2) 0.83326(19)
H24 H 0.041623 0.374744 0.849148
C48 C 0.03285(19) 0.26390(19) 0.99329(17)
Zn14 Zn 0.61663(3) 0.88500(2) 0.87520(2)
Zn17 Zn 0.54084(2) 0.68217(2) 0.82519(2)
O2 O 0.06620(14) 0.99615(14) 0.32136(12)
C1 C 0.05482(18) 0.97925(19) 0.23962(17)
C2 C 0.03045(19) 0.87693(19) 0.21392(17)
C3 C 0.01518(19) 0.8541(2) 0.12533(17)
H1 H 0.023064 0.901631 0.081816
C4 C 0.0211(2) 0.8050(2) 0.27851(18)
H2 H 0.032278 0.820286 0.337792
O38 O 0.07092(14) 0.78808(14) 0.74832(13)
O18 O 0.49430(14) 0.29649(15) 0.38272(13)
C25 C 0.6635(2) 0.2658(2) 0.38274(18)
C26 C 0.5693(2) 0.28481(19) 0.33503(18)
C27 C 0.6640(2) 0.2653(2) 0.4751(2)
H13 H 0.606239 0.275383 0.506257
C28 C 0.750000 0.250000 0.3363(2)
H14 H 0.749999 0.250001 0.274590
C29 C 0.750000 0.250000 0.5203(3)
H15 H 0.750000 0.249998 0.582058
C30 C 0.8365(2) 0.2342(2) 0.38274(18)
C31 C 0.9307(2) 0.21519(19) 0.33503(18)
C32 C 0.8360(2) 0.2347(2) 0.4751(2)
H16 H 0.893761 0.224617 0.506257
O20 O 0.92908(14) 0.21192(14) 0.25168(13)
O22 O 0.99615(14) 0.43380(14) 0.17864(12)
O23 O 0.65674(14) 0.57592(15) 0.50852(12)
O24 O 0.79762(14) 0.50653(14) 0.55046(12)
C33 C 0.97925(19) 0.44518(18) 0.26038(17)
C34 C 0.87693(19) 0.46955(19) 0.28608(17)
C35 C 0.8541(2) 0.48482(19) 0.37467(17)
H17 H 0.901631 0.476936 0.418184
C36 C 0.8050(2) 0.4789(2) 0.22149(18)
H18 H 0.820286 0.467722 0.162208
C37 C 0.7600(2) 0.51187(19) 0.39795(18)
C38 C 0.7108(2) 0.5048(2) 0.24500(19)
H19 H 0.662654 0.510303 0.201673
C39 C 0.6881(2) 0.5226(2) 0.33326(19)
H20 H 0.625256 0.541623 0.349148
C40 C 0.73610(19) 0.53285(19) 0.49329(17)
Zn9 Zn 0.61500(2) 0.61663(3) 0.62480(2)
Zn15 Zn 0.81783(2) 0.54084(2) 0.67481(2)
O31 O 0.34326(14) 0.42408(15) 0.49148(12)
O26 O 0.93380(14) 0.00385(14) 0.67864(12)
C41 C 0.94518(18) 0.02075(19) 0.76038(17)
C42 C 0.96955(19) 0.12307(19) 0.78608(17)
C43 C 0.98482(19) 0.1459(2) 0.87467(17)
H21 H 0.976936 0.098369 0.918184
C44 C 0.9789(2) 0.1950(2) 0.72149(18)
H22 H 0.967722 0.179714 0.662208
C7 C 0.98813(19) 0.7600(2) 0.10205(18)
C8 C 0.9952(2) 0.7108(2) 0.25500(19)
H3 H 0.989697 0.662654 0.298327
C9 C 0.9774(2) 0.6881(2) 0.16674(19)
H4 H 0.958377 0.625256 0.150852
C13 C 0.96715(19) 0.73610(19) 0.00671(17)
O3 O 0.92408(15) 0.65674(14) 0.99148(12)
O5 O 0.99347(14) 0.79762(14) 0.94954(12)
Zn7 Zn 0.95916(2) 0.81783(2) 0.82519(2)
O25 O 0.93953(14) 0.95823(14) 0.82134(12)
Zn11 Zn 0.88500(2) 0.88337(3) 0.62480(2)
Zn12 Zn 0.88337(3) 0.61500(2) 0.87520(2)
O34 O 0.84716(13) 0.73185(13) 0.80961(11)
O2_2 O 0.00385(14) 0.56620(14) 0.82136(12)
C1_2 C 0.02075(19) 0.55482(18) 0.73962(17)
C2_2 C 0.12307(19) 0.53045(19) 0.71392(17)
C3_2 C 0.1459(2) 0.51518(19) 0.62533(17)
H1_2 H 0.098369 0.523064 0.581816
C4_2 C 0.1950(2) 0.5211(2) 0.77851(18)
H2_2 H 0.179714 0.532278 0.837792
C7_2 C 0.2400(2) 0.48813(19) 0.60205(18)
C8_2 C 0.2892(2) 0.4952(2) 0.75500(19)
H3_2 H 0.337346 0.489697 0.798327
C9_2 C 0.3119(2) 0.4774(2) 0.66674(19)
H4_2 H 0.374744 0.458377 0.650852
C13_2 C 0.26390(19) 0.46715(19) 0.50671(17)
O16_2 O 0.29762(14) 0.00653(14) 0.44954(12)
C21_2 C 0.2600(2) 0.01187(19) 0.60205(18)
C22_2 C 0.2108(2) 0.0048(2) 0.75500(19)
H11_2 H 0.162654 0.010303 0.798327
C23_2 C 0.1881(2) 0.0226(2) 0.66674(19)
H12_2 H 0.125256 0.041623 0.650852
C24_2 C 0.23610(19) 0.03285(19) 0.50671(17)
O39_2 O 0.71192(14) 0.07092(14) 0.75168(13)
H13_2 H 0.724617 0.106239 0.006257
C29_2 C 0.750000 0.250000 0.0203(3)
H15_2 H 0.750002 0.250000 0.082058
H16_2 H 0.775383 0.393761 0.006257
Si1_2 Si 0.750000 0.750000 0.750000
O1_2 O 0.95823(14) 0.56047(14) 0.67866(12)
O4_2 O 0.73185(13) 0.65284(13) 0.69039(11)
O6_2 O 0.42908(14) 0.71192(14) 0.74832(13)
O7_2 O 0.50570(14) 0.70351(15) 0.61728(13)
C5_2 C 0.3365(2) 0.7342(2) 0.61726(18)
C6_2 C 0.4307(2) 0.71519(19) 0.66497(18)
C10_2 C 0.3360(2) 0.7347(2) 0.5249(2)
H5_2 H 0.393761 0.724617 0.493743
C11_2 C 0.250000 0.750000 0.6637(2)
H6_2 H 0.250001 0.749999 0.725410
C12_2 C 0.250000 0.750000 0.4797(3)
H7_2 H 0.250000 0.750002 0.417942
O8_2 O 0.76815(13) 0.84716(13) 0.69039(11)
O9_2 O 0.65284(13) 0.76815(13) 0.80961(11)
C14_2 C 0.1635(2) 0.7658(2) 0.61726(18)
C15_2 C 0.0693(2) 0.78481(19) 0.66497(18)
C16_2 C 0.1640(2) 0.7653(2) 0.5249(2)
H8_2 H 0.106239 0.775383 0.493743
Zn4_2 Zn 0.68217(2) 0.95916(2) 0.67481(2)
O13_2 O 0.54177(14) 0.93953(14) 0.67866(12)
O14_2 O 0.49615(14) 0.93380(14) 0.82136(12)
C17_2 C 0.47925(19) 0.94518(18) 0.73962(17)
C18_2 C 0.37693(19) 0.96955(19) 0.71392(17)
C19_2 C 0.3541(2) 0.98482(19) 0.62533(17)
H9_2 H 0.401631 0.976936 0.581816
C20_2 C 0.3050(2) 0.9789(2) 0.77851(18)
H10_2 H 0.320286 0.967722 0.837792
C25_2 C 0.7342(2) 0.1635(2) 0.88274(18)
C26_2 C 0.71519(19) 0.0693(2) 0.83503(18)
C27_2 C 0.7347(2) 0.1640(2) 0.9751(2)
C28_2 C 0.750000 0.250000 0.8363(2)
H14_2 H 0.749999 0.249999 0.774590
O19_2 O 0.79649(15) 0.50570(14) 0.88272(13)
C30_2 C 0.7658(2) 0.3365(2) 0.88274(18)
C31_2 C 0.78481(19) 0.4307(2) 0.83503(18)
C32_2 C 0.7653(2) 0.3360(2) 0.9751(2)
O20_2 O 0.78808(14) 0.42908(14) 0.75168(13)
O21_2 O 0.56047(14) 0.54177(14) 0.82134(12)
O22_2 O 0.56620(14) 0.49615(14) 0.67864(12)
C33_2 C 0.55482(18) 0.47925(19) 0.76038(17)
C34_2 C 0.53045(19) 0.37693(19) 0.78608(17)
C35_2 C 0.51518(19) 0.3541(2) 0.87467(17)
H17_2 H 0.523064 0.401631 0.918184
C36_2 C 0.5211(2) 0.3050(2) 0.72149(18)
H18_2 H 0.532278 0.320286 0.662208
C37_2 C 0.48813(19) 0.2600(2) 0.89795(18)
C38_2 C 0.4952(2) 0.2108(2) 0.74500(19)
H19_2 H 0.489697 0.162654 0.701673
C39_2 C 0.4774(2) 0.1881(2) 0.83326(19)
H20_2 H 0.458377 0.125256 0.849148
C40_2 C 0.46715(19) 0.23610(19) 0.99329(17)
O33_2 O 0.84326(14) 0.92408(15) 0.50852(12)
O37_2 O 0.70238(14) 0.99347(14) 0.55046(12)
O40 O 0.99430(14) 0.79649(15) 0.61728(13)
O18_2 O 0.70351(15) 0.99430(14) 0.88272(13)
O21_3 O 0.45823(14) 0.06047(14) 0.32134(12)
C33_3 C 0.52075(19) 0.05482(18) 0.26038(17)
C34_3 C 0.62307(19) 0.03045(19) 0.28608(17)
C35_3 C 0.6459(2) 0.01518(19) 0.37467(17)
H17_3 H 0.598369 0.023064 0.418184
C36_3 C 0.6950(2) 0.0211(2) 0.22149(18)
H18_3 H 0.679714 0.032278 0.162208
C37_3 C 0.7400(2) 0.98813(19) 0.39795(18)
C38_3 C 0.7892(2) 0.9952(2) 0.24500(19)
H19_3 H 0.837346 0.989697 0.201673
C39_3 C 0.8119(2) 0.9774(2) 0.33326(19)
H20_3 H 0.874744 0.958377 0.349148
C40_3 C 0.76390(19) 0.96715(19) 0.49329(17)
loop_
_geom_bond_atom_site_label_1
_geom_bond_atom_site_label_2
_geom_bond_site_symmetry_1
_geom_bond_site_symmetry_2
Zn10 O11 1_555 1_555
Zn1 O4 1_555 1_555
Zn2 O1 1_555 1_555
Si1 O4 1_555 1_555
O4 Zn2 1_555 1_555
O6 C6 1_555 1_555
O7 Zn1 1_555 1_555
C5 C6 1_555 1_555
C6 O7 1_555 1_555
C10 C5 1_555 1_555
C11 C5 1_555 1_555
H6 C11 1_555 1_555
O8 Si1 1_555 1_555
O9 Si1 1_555 1_555
O10 Si1 1_555 1_555
C14 C11 1_555 1_555
C15 C14 1_555 1_555
O12 C15 1_555 1_555
Zn10 O8 1_555 1_555
Zn4 O8 1_555 1_555
O13 Zn4 1_555 1_555
O14 C17 1_555 1_555
C17 O13 1_555 1_555
C18 C17 1_555 1_555
C19 C18 1_555 1_555
H9 C19 1_555 1_555
C20 C18 1_555 1_555
H10 C20 1_555 1_555
C21 C19 1_555 1_555
C22 C20 1_555 1_555
H11 C22 1_555 1_555
C23 C21 1_555 1_555
H12 C23 1_555 1_555
C24 C21 1_555 1_555
Zn6 O6 1_555 1_555
O21 Zn6 1_555 1_555
O27 Zn1 1_555 1_555
O28 Zn2 1_555 1_555
Zn13 O9 1_555 1_555
Zn19 O10 1_555 1_555
O30 Zn10 1_555 1_555
O32 Zn8 1_555 1_555
O33 Zn10 1_555 1_555
O36 Zn6 1_555 1_555
O37 Zn4 1_555 1_555
O39 Zn4 1_555 1_555
O9 Zn6 1_555 1_555
O10 Zn8 1_555 1_555
C14 C16 1_555 1_555
O14 Zn13 1_555 1_555
C22 C23 1_555 1_555
O19 Zn8 1_555 1_555
H7 C12 1_555 1_555
H23 C46 1_555 1_555
C47 C45 1_555 1_555
H24 C47 1_555 1_555
Zn14 O15 1_555 1_555
Zn17 O16 1_555 1_555
C45 C48 1_555 1_555
C46 C47 1_555 1_555
O2 C1 1_555 1_555
C1 C2 1_555 1_555
C2 C3 1_555 1_555
C3 H1 1_555 1_555
C4 C2 1_555 1_555
H2 C4 1_555 1_555
Zn13 O18 1_555 1_555
O39 C26 1_555 1_555
O18 C26 1_555 1_555
C25 C26 1_555 1_555
C27 C25 1_555 1_555
H13 C27 1_555 1_555
C28 C25 1_555 1_555
H14 C28 1_555 1_555
C29 C27 1_555 1_555
H15 C29 1_555 1_555
C30 C28 1_555 1_555
C31 C30 1_555 1_555
C32 C29 1_555 1_555
H16 C32 1_555 1_555
O23 C40 1_555 1_555
O24 C40 1_555 1_555
C34 C33 1_555 1_555
C35 C34 1_555 1_555
H17 C35 1_555 1_555
C36 C34 1_555 1_555
H18 C36 1_555 1_555
C37 C35 1_555 1_555
C38 C36 1_555 1_555
H19 C38 1_555 1_555
C39 C37 1_555 1_555
H20 C39 1_555 1_555
C40 C37 1_555 1_555
Zn9 O23 1_555 1_555
Zn15 O24 1_555 1_555
O31 Zn13 1_555 1_555
C30 C32 1_555 1_555
C31 O20 1_555 1_555
O22 C33 1_555 1_555
C38 C39 1_555 1_555
O26 C41 1_555 1_555
C42 C41 1_555 1_555
C43 C42 1_555 1_555
H21 C43 1_555 1_555
C44 C42 1_555 1_555
H22 C44 1_555 1_555
H3 C8 1_555 1_555
C9 C7 1_555 1_555
H4 C9 1_555 1_555
C13 C7 1_555 1_555
C8 C9 1_555 1_555
Zn7 O5 1_555 1_555
O25 Zn7 1_555 1_555
Zn12 O3 1_555 1_555
O34 Zn7 1_555 1_555
Zn12 O34 1_555 1_555
O2_2 C1_2 1_555 1_555
O31 C13_2 1_555 1_555
O36 C13_2 1_555 1_555
C1_2 C2_2 1_555 1_555
C2_2 C3_2 1_555 1_555
C3_2 H1_2 1_555 1_555
C4_2 C2_2 1_555 1_555
H2_2 C4_2 1_555 1_555
C7_2 C3_2 1_555 1_555
C8_2 C4_2 1_555 1_555
H3_2 C8_2 1_555 1_555
C9_2 C7_2 1_555 1_555
H4_2 C9_2 1_555 1_555
C13_2 C7_2 1_555 1_555
C8_2 C9_2 1_555 1_555
O32 C24_2 1_555 1_555
O16_2 C24_2 1_555 1_555
H11_2 C22_2 1_555 1_555
C23_2 C21_2 1_555 1_555
H12_2 C23_2 1_555 1_555
C24_2 C21_2 1_555 1_555
Zn19 O16_2 1_555 1_555
C22_2 C23_2 1_555 1_555
H15_2 C29_2 1_555 1_555
Zn9 O4_2 1_555 1_555
Zn15 O1_2 1_555 1_555
Si1_2 O4_2 1_555 1_555
O4_2 Zn15 1_555 1_555
O6_2 C6_2 1_555 1_555
O7_2 Zn9 1_555 1_555
C5_2 C6_2 1_555 1_555
C6_2 O7_2 1_555 1_555
C10_2 C5_2 1_555 1_555
H5_2 C10_2 1_555 1_555
C11_2 C5_2 1_555 1_555
H6_2 C11_2 1_555 1_555
C12_2 C10_2 1_555 1_555
H7_2 C12_2 1_555 1_555
O8_2 Si1_2 1_555 1_555
O9_2 Si1_2 1_555 1_555
O34 Si1_2 1_555 1_555
C14_2 C11_2 1_555 1_555
C15_2 C14_2 1_555 1_555
C16_2 C12_2 1_555 1_555
H8_2 C16_2 1_555 1_555
O38 C15_2 1_555 1_555
Zn11 O8_2 1_555 1_555
Zn4_2 O8_2 1_555 1_555
O13_2 Zn4_2 1_555 1_555
O14_2 C17_2 1_555 1_555
C17_2 O13_2 1_555 1_555
C18_2 C17_2 1_555 1_555
C19_2 C18_2 1_555 1_555
H9_2 C19_2 1_555 1_555
C20_2 C18_2 1_555 1_555
H10_2 C20_2 1_555 1_555
O39_2 C26_2 1_555 1_555
C25_2 C26_2 1_555 1_555
C27_2 C25_2 1_555 1_555
C28_2 C25_2 1_555 1_555
H14_2 C28_2 1_555 1_555
O19_2 C31_2 1_555 1_555
C30_2 C28_2 1_555 1_555
C31_2 C30_2 1_555 1_555
O20_2 Zn15 1_555 1_555
Zn17 O6_2 1_555 1_555
O21_2 Zn17 1_555 1_555
O22_2 Zn9 1_555 1_555
C33_2 O21_2 1_555 1_555
C34_2 C33_2 1_555 1_555
C35_2 C34_2 1_555 1_555
H17_2 C35_2 1_555 1_555
C36_2 C34_2 1_555 1_555
H18_2 C36_2 1_555 1_555
C37_2 C35_2 1_555 1_555
C38_2 C36_2 1_555 1_555
H19_2 C38_2 1_555 1_555
C39_2 C37_2 1_555 1_555
H20_2 C39_2 1_555 1_555
C40_2 C37_2 1_555 1_555
Zn14 O9_2 1_555 1_555
O33_2 Zn11 1_555 1_555
O37_2 Zn4_2 1_555 1_555
O40 Zn11 1_555 1_555
O9_2 Zn17 1_555 1_555
C14_2 C16_2 1_555 1_555
O14_2 Zn14 1_555 1_555
O19_2 Zn12 1_555 1_555
C30_2 C32_2 1_555 1_555
C31_2 O20_2 1_555 1_555
O22_2 C33_2 1_555 1_555
C38_2 C39_2 1_555 1_555
Zn14 O18_2 1_555 1_555
O21_3 Zn19 1_555 1_555
C33_3 O21_3 1_555 1_555
C34_3 C33_3 1_555 1_555
C35_3 C34_3 1_555 1_555
H17_3 C35_3 1_555 1_555
C36_3 C34_3 1_555 1_555
H18_3 C36_3 1_555 1_555
O30 C33_3 1_555 1_555
O33_2 C40_3 1_555 1_555
O37_2 C40_3 1_555 1_555
H19_3 C38_3 1_555 1_555
C39_3 C37_3 1_555 1_555
H20_3 C39_3 1_555 1_555
C40_3 C37_3 1_555 1_555
C38_3 C39_3 1_555 1_555

#END
