
###############################################################################
#
# This file contains modified crystal structure data generated from the
# MOF subset of the Cambridge Structural Database (CSD) v543 
# hosted by the Cambridge Crystallographic Data Centre (CCDC).
#
# This work is licensed under the Creative Commons
# Attribution-NonCommercial-ShareAlike 4.0 International License.
# To view a copy of this license, visit
# http://creativecommons.org/licenses/by-nc-sa/4.0/
# or send a letter to
# Creative Commons, PO Box 1866, Mountain View, CA 94042, USA.
#
# CIF created using the CSD Python API on 29 September 2022
# The structure has been converted into the P1 space group
# The structure has a 3D framework
# The original CSD entry FOKHIZ02 is in the tetragonal crystal system
# The framework has been calculated to contain at least 10.0% void space
# The void calculation uses a probe of radius 1.32A, grid spacing 0.4
#
###############################################################################

data_FOKHIZ02
_chemical_formula_moiety         '(C96 H48 O51 Si2 Zn16)n'
_symmetry_cell_setting           triclinic
_symmetry_space_group_name_H-M   'P 1'
_symmetry_Int_Tables_number      1
_space_group_name_Hall           'P 1'
loop_
_symmetry_equiv_pos_site_id
_symmetry_equiv_pos_as_xyz
1 x,y,z
_cell_length_a                   13.69968(18)
_cell_length_b                   13.69968(18)
_cell_length_c                   15.0187(3)
_cell_angle_alpha                90
_cell_angle_beta                 90
_cell_angle_gamma                90
_cell_volume                     2818.73
loop_
_atom_site_label
_atom_site_type_symbol
_atom_site_fract_x
_atom_site_fract_y
_atom_site_fract_z
O18 O 0.04260(16) 0.0590(2) 0.67917(16)
Zn15 Zn 0.11768(3) 0.11518(3) 0.87653(3)
Zn17 Zn 0.18294(3) 0.04110(3) 0.67512(3)
O3 O 0.4410(2) 0.04260(16) 0.82083(16)
Zn10 Zn 0.38482(3) 0.11768(3) 0.62347(3)
Zn20 Zn 0.45890(3) 0.18294(3) 0.82488(3)
Zn1 Zn 0.61768(3) 0.61518(3) 0.12347(3)
Zn2 Zn 0.54110(3) 0.81706(3) 0.17512(3)
Si1 Si 0.750000 0.750000 0.250000
O1 O 0.65307(15) 0.73175(15) 0.19012(14)
O4 O 0.5764(2) 0.65763(18) 0.00722(16)
O5 O 0.42902(17) 0.78738(19) 0.25167(16)
O6 O 0.50790(19) 0.79770(18) 0.04985(15)
O7 O 0.50462(18) 0.7976(2) 0.38305(18)
C9 C 0.4300(2) 0.7853(2) 0.3351(2)
C10 C 0.3364(2) 0.7657(3) 0.3830(2)
C11 C 0.250000 0.750000 0.3365(3)
H5 H 0.250001 0.749998 0.274579
C12 C 0.3354(3) 0.7656(4) 0.4752(3)
H6 H 0.393086 0.776225 0.506383
C13 C 0.250000 0.750000 0.5210(4)
H7 H 0.250001 0.749998 0.582877
O8 O 0.84693(15) 0.76825(15) 0.19012(14)
O9 O 0.73175(15) 0.84693(15) 0.30988(14)
O10 O 0.76825(15) 0.65307(15) 0.30988(14)
O11 O 0.07098(17) 0.71262(19) 0.25167(16)
C14 C 0.0700(2) 0.7147(2) 0.3351(2)
C15 C 0.1636(2) 0.7343(3) 0.3830(2)
C16 C 0.1646(3) 0.7344(4) 0.4752(3)
H8 H 0.106914 0.723775 0.506383
Zn11 Zn 0.88232(3) 0.88482(3) 0.12347(3)
Zn14 Zn 0.61518(3) 0.88232(3) 0.37653(3)
Zn16 Zn 0.88482(3) 0.61768(3) 0.37653(3)
Zn18 Zn 0.95890(3) 0.68294(3) 0.17512(3)
Zn21 Zn 0.81706(3) 0.95890(3) 0.32488(3)
Zn24 Zn 0.68294(3) 0.54110(3) 0.32488(3)
O32 O 0.00256(18) 0.93278(19) 0.17785(15)
O33 O 0.49744(18) 0.56722(19) 0.17785(15)
O38 O 0.5590(2) 0.95740(16) 0.17917(16)
O42 O 0.7024(2) 0.50462(18) 0.11695(18)
O2 O 0.43278(19) 0.99744(18) 0.67785(15)
C1 C 0.5334(2) 0.7372(2) 0.9921(2)
C2 C 0.5130(2) 0.7614(2) 0.8971(2)
C3 C 0.5230(3) 0.6902(3) 0.8317(2)
H1 H 0.542144 0.627302 0.847210
C4 C 0.4860(2) 0.8554(2) 0.8739(2)
H2 H 0.478339 0.902943 0.917562
C5 C 0.4792(3) 0.8070(3) 0.7205(2)
H3 H 0.468023 0.822650 0.661073
C6 C 0.5045(4) 0.7130(3) 0.7436(2)
H4 H 0.509129 0.664965 0.700015
C7 C 0.4704(2) 0.8781(2) 0.7852(2)
C8 C 0.4455(2) 0.9806(2) 0.7593(2)
O13 O 0.06722(19) 0.50256(18) 0.67785(15)
O14 O 0.0590(2) 0.45740(16) 0.82083(16)
C20 C 0.0140(2) 0.6446(2) 0.8739(2)
H10 H 0.021661 0.597057 0.917562
C21 C 0.0208(3) 0.6930(3) 0.7205(2)
H11 H 0.031977 0.677350 0.661073
C23 C 0.0296(2) 0.6219(2) 0.7852(2)
C24 C 0.0545(2) 0.5194(2) 0.7593(2)
Zn12 Zn 0.11518(3) 0.38232(3) 0.62347(3)
Zn22 Zn 0.04110(3) 0.31706(3) 0.82488(3)
O17 O 0.99744(18) 0.06722(19) 0.82215(15)
O20 O 0.78738(19) 0.07098(17) 0.24833(16)
C28 C 0.8554(2) 0.0140(2) 0.6261(2)
H14 H 0.902943 0.021661 0.582438
C29 C 0.8070(3) 0.0208(3) 0.7795(2)
H15 H 0.822650 0.031977 0.838927
C31 C 0.8781(2) 0.0296(2) 0.7148(2)
C32 C 0.9806(2) 0.0545(2) 0.7407(2)
C33 C 0.7853(2) 0.0700(2) 0.1649(2)
C34 C 0.7657(3) 0.1636(2) 0.1170(2)
C35 C 0.750000 0.250000 0.1635(3)
H17 H 0.749998 0.249999 0.225421
C36 C 0.7656(4) 0.1646(3) 0.0248(3)
O23 O 0.71262(19) 0.42902(17) 0.24833(16)
C38 C 0.7147(2) 0.4300(2) 0.1649(2)
C39 C 0.7343(3) 0.3364(2) 0.1170(2)
C40 C 0.7344(4) 0.3354(3) 0.0248(3)
O34 O 0.56722(19) 0.00256(18) 0.32215(15)
H18 H 0.776225 0.106914 0.993617
C37 C 0.750000 0.250000 0.9790(4)
H19 H 0.749998 0.249999 0.917123
H20 H 0.723775 0.393086 0.993617
O12 O 0.99538(18) 0.7024(2) 0.38305(18)
O15 O 0.9236(2) 0.84237(18) 0.00722(16)
O16 O 0.99210(19) 0.70230(18) 0.04985(15)
O19 O 0.65763(18) 0.9236(2) 0.49278(16)
O21 O 0.79770(18) 0.99210(19) 0.45015(15)
O22 O 0.7976(2) 0.99538(18) 0.11695(18)
C25 C 0.7372(2) 0.9666(2) 0.5079(2)
C26 C 0.7614(2) 0.9870(2) 0.6029(2)
C27 C 0.6902(3) 0.9770(3) 0.6683(2)
H13 H 0.627302 0.957856 0.652790
C30 C 0.7130(3) 0.9955(4) 0.7564(2)
H16 H 0.664965 0.990871 0.799985
O25 O 0.50256(18) 0.43278(19) 0.82215(15)
O26 O 0.45740(16) 0.4410(2) 0.67917(16)
O27 O 0.84237(18) 0.5764(2) 0.49278(16)
O28 O 0.70230(18) 0.50790(19) 0.45015(15)
C41 C 0.7628(2) 0.5334(2) 0.5079(2)
C42 C 0.7386(2) 0.5130(2) 0.6029(2)
C43 C 0.8098(3) 0.5230(3) 0.6683(2)
H21 H 0.872698 0.542144 0.652790
C44 C 0.6446(2) 0.4860(2) 0.6261(2)
H22 H 0.597057 0.478339 0.582438
C45 C 0.6930(3) 0.4792(3) 0.7795(2)
H23 H 0.677350 0.468023 0.838927
C46 C 0.7870(3) 0.5045(4) 0.7564(2)
H24 H 0.835035 0.509129 0.799985
C47 C 0.6219(2) 0.4704(2) 0.7148(2)
C48 C 0.5194(2) 0.4455(2) 0.7407(2)
Zn13 Zn 0.38232(3) 0.38482(3) 0.87653(3)
Zn19 Zn 0.31706(3) 0.45890(3) 0.67512(3)
O35 O 0.93278(19) 0.49744(18) 0.32215(15)
O36 O 0.95740(16) 0.9410(2) 0.32083(16)
O37 O 0.54260(16) 0.5590(2) 0.32083(16)
O39 O 0.9410(2) 0.54260(16) 0.17917(16)
C17 C 0.9666(2) 0.7628(2) 0.9921(2)
C18 C 0.9870(2) 0.7386(2) 0.8971(2)
C19 C 0.9770(3) 0.8098(3) 0.8317(2)
H9 H 0.957856 0.872698 0.847210
C22 C 0.9955(4) 0.7870(3) 0.7436(2)
H12 H 0.990871 0.835035 0.700015
Si1_2 Si 0.250000 0.250000 0.750000
O1_2 O 0.26825(15) 0.15307(15) 0.69012(14)
O4_2 O 0.34237(18) 0.0764(2) 0.50722(16)
O6_2 O 0.20230(18) 0.00790(19) 0.54985(15)
O7_2 O 0.2024(2) 0.00462(18) 0.88305(18)
C1_2 C 0.2628(2) 0.0334(2) 0.4921(2)
C2_2 C 0.2386(2) 0.0130(2) 0.3971(2)
C3_2 C 0.3098(3) 0.0230(3) 0.3317(2)
H1_2 H 0.372698 0.042144 0.347210
C6_2 C 0.2870(3) 0.0045(4) 0.2436(2)
H4_2 H 0.335035 0.009129 0.200015
O8_2 O 0.23175(15) 0.34693(15) 0.69012(14)
O9_2 O 0.15307(15) 0.23175(15) 0.80988(14)
O10_2 O 0.34693(15) 0.26825(15) 0.80988(14)
O42_2 O 0.49538(18) 0.2024(2) 0.61695(18)
H6_2 H 0.223775 0.893086 0.006383
C13_2 C 0.250000 0.750000 0.0210(4)
H7_2 H 0.250002 0.750001 0.082877
H8_2 H 0.276225 0.606914 0.006383
C25_2 C 0.0334(2) 0.2372(2) 0.0079(2)
C26_2 C 0.0130(2) 0.2614(2) 0.1029(2)
C27_2 C 0.0230(3) 0.1902(3) 0.1683(2)
H13_2 H 0.042144 0.127302 0.152790
C30_2 C 0.0045(4) 0.2130(3) 0.2564(2)
H16_2 H 0.009129 0.164965 0.299985
C41_2 C 0.4666(2) 0.2628(2) 0.0079(2)
C42_2 C 0.4870(2) 0.2386(2) 0.1029(2)
C43_2 C 0.4770(3) 0.3098(3) 0.1683(2)
H21_2 H 0.457856 0.372698 0.152790
C44_2 C 0.5140(2) 0.1446(2) 0.1261(2)
H22_2 H 0.521661 0.097057 0.082438
C45_2 C 0.5208(3) 0.1930(3) 0.2795(2)
H23_2 H 0.531977 0.177350 0.338927
C46_2 C 0.4955(4) 0.2870(3) 0.2564(2)
H24_2 H 0.490871 0.335035 0.299985
C47_2 C 0.5296(2) 0.1219(2) 0.2148(2)
C48_2 C 0.5545(2) 0.0194(2) 0.2407(2)
O5_2 O 0.21262(19) 0.92902(17) 0.75167(16)
C4_2 C 0.1446(2) 0.9860(2) 0.3739(2)
H2_2 H 0.097057 0.978339 0.417562
C5_2 C 0.1930(3) 0.9792(3) 0.2205(2)
H3_2 H 0.177350 0.968023 0.161073
C7_2 C 0.1219(2) 0.9704(2) 0.2852(2)
C8_2 C 0.0194(2) 0.9455(2) 0.2593(2)
C9_2 C 0.2147(2) 0.9300(2) 0.8351(2)
C10_2 C 0.2343(3) 0.8364(2) 0.8830(2)
C11_2 C 0.250000 0.750000 0.8365(3)
H5_2 H 0.250002 0.750001 0.774579
C12_2 C 0.2344(4) 0.8354(3) 0.9752(3)
O11_2 O 0.28738(19) 0.57098(17) 0.75167(16)
C14_2 C 0.2853(2) 0.5700(2) 0.8351(2)
C15_2 C 0.2657(3) 0.6636(2) 0.8830(2)
C16_2 C 0.2656(4) 0.6646(3) 0.9752(3)
O12_2 O 0.2976(2) 0.49538(18) 0.88305(18)
O15_2 O 0.15763(18) 0.4236(2) 0.50722(16)
O16_2 O 0.29770(18) 0.49210(19) 0.54985(15)
C17_2 C 0.2372(2) 0.4666(2) 0.4921(2)
C18_2 C 0.2614(2) 0.4870(2) 0.3971(2)
C19_2 C 0.1902(3) 0.4770(3) 0.3317(2)
H9_2 H 0.127302 0.457856 0.347210
C20_2 C 0.3554(2) 0.5140(2) 0.3739(2)
H10_2 H 0.402943 0.521661 0.417562
C21_2 C 0.3070(3) 0.5208(3) 0.2205(2)
H11_2 H 0.322650 0.531977 0.161073
C22_2 C 0.2130(3) 0.4955(4) 0.2436(2)
H12_2 H 0.164965 0.490871 0.200015
C23_2 C 0.3781(2) 0.5296(2) 0.2852(2)
C24_2 C 0.4806(2) 0.5545(2) 0.2593(2)
O19_2 O 0.0764(2) 0.15763(18) 0.99278(16)
O21_2 O 0.00790(19) 0.29770(18) 0.95015(15)
O22_2 O 0.00462(18) 0.2976(2) 0.61695(18)
O27_2 O 0.4236(2) 0.34237(18) 0.99278(16)
O28_2 O 0.49210(19) 0.20230(18) 0.95015(15)
O40 O 0.57098(17) 0.21262(19) 0.74833(16)
C28_2 C 0.9860(2) 0.3554(2) 0.1261(2)
H14_2 H 0.978339 0.402943 0.082438
C29_2 C 0.9792(3) 0.3070(3) 0.2795(2)
H15_2 H 0.968023 0.322650 0.338927
C31_2 C 0.9704(2) 0.3781(2) 0.2148(2)
C32_2 C 0.9455(2) 0.4806(2) 0.2407(2)
O20_2 O 0.92902(17) 0.28738(19) 0.74833(16)
C33_2 C 0.9300(2) 0.2853(2) 0.6649(2)
C34_2 C 0.8364(2) 0.2657(3) 0.6170(2)
C35_2 C 0.750000 0.250000 0.6635(3)
H17_2 H 0.750001 0.249998 0.725421
C36_2 C 0.8354(3) 0.2656(4) 0.5248(3)
H18_2 H 0.893086 0.276225 0.493617
C37_2 C 0.750000 0.250000 0.4790(4)
H19_2 H 0.750001 0.249998 0.417123
C38_2 C 0.5700(2) 0.2147(2) 0.6649(2)
C39_2 C 0.6636(2) 0.2343(3) 0.6170(2)
C40_2 C 0.6646(3) 0.2344(4) 0.5248(3)
H20_2 H 0.606914 0.223775 0.493617
loop_
_geom_bond_atom_site_label_1
_geom_bond_atom_site_label_2
_geom_bond_site_symmetry_1
_geom_bond_site_symmetry_2
Zn17 O18 1_555 1_555
Zn20 O3 1_555 1_555
Zn1 O1 1_555 1_555
Zn2 O1 1_555 1_555
Si1 O1 1_555 1_555
O4 Zn1 1_555 1_555
O5 Zn2 1_555 1_555
O6 Zn2 1_555 1_555
O7 C9 1_555 1_555
C9 O5 1_555 1_555
C10 C9 1_555 1_555
C11 C10 1_555 1_555
H5 C11 1_555 1_555
C12 C10 1_555 1_555
H6 C12 1_555 1_555
C13 C12 1_555 1_555
H7 C13 1_555 1_555
O8 Si1 1_555 1_555
O9 Si1 1_555 1_555
O10 Si1 1_555 1_555
O11 C14 1_555 1_555
C14 C15 1_555 1_555
C15 C11 1_555 1_555
C16 C13 1_555 1_555
H8 C16 1_555 1_555
Zn11 O8 1_555 1_555
Zn14 O7 1_555 1_555
Zn16 O10 1_555 1_555
Zn18 O8 1_555 1_555
Zn21 O9 1_555 1_555
Zn24 O10 1_555 1_555
O33 Zn1 1_555 1_555
O38 Zn2 1_555 1_555
O42 Zn1 1_555 1_555
O9 Zn14 1_555 1_555
C15 C16 1_555 1_555
O2 C8 1_555 1_555
C2 C1 1_555 1_555
C3 C2 1_555 1_555
H1 C3 1_555 1_555
C4 C2 1_555 1_555
H2 C4 1_555 1_555
C5 H3 1_555 1_555
C6 C3 1_555 1_555
H4 C6 1_555 1_555
C7 C4 1_555 1_555
C8 C7 1_555 1_555
O13 C24 1_555 1_555
O14 C24 1_555 1_555
H10 C20 1_555 1_555
C21 H11 1_555 1_555
C23 C20 1_555 1_555
C24 C23 1_555 1_555
Zn12 O13 1_555 1_555
Zn22 O14 1_555 1_555
C5 C6 1_555 1_555
C5 C7 1_555 1_555
C21 C23 1_555 1_555
O17 C32 1_555 1_555
O20 C33 1_555 1_555
H14 C28 1_555 1_555
C29 H15 1_555 1_555
C31 C28 1_555 1_555
C32 C31 1_555 1_555
C34 C33 1_555 1_555
C35 C34 1_555 1_555
H17 C35 1_555 1_555
C36 C34 1_555 1_555
O23 C38 1_555 1_555
C38 C39 1_555 1_555
C39 C35 1_555 1_555
O42 C38 1_555 1_555
Zn24 O23 1_555 1_555
C29 C31 1_555 1_555
C39 C40 1_555 1_555
H19 C37 1_555 1_555
Zn11 O15 1_555 1_555
O16 Zn18 1_555 1_555
Zn14 O19 1_555 1_555
O19 C25 1_555 1_555
O21 Zn21 1_555 1_555
O22 Zn11 1_555 1_555
C25 O21 1_555 1_555
C26 C25 1_555 1_555
C27 C26 1_555 1_555
H13 C27 1_555 1_555
C30 C27 1_555 1_555
H16 C30 1_555 1_555
Zn16 O12 1_555 1_555
Zn24 O28 1_555 1_555
O25 C48 1_555 1_555
O26 C48 1_555 1_555
O27 Zn16 1_555 1_555
O28 C41 1_555 1_555
C41 O27 1_555 1_555
C42 C41 1_555 1_555
C43 C42 1_555 1_555
H21 C43 1_555 1_555
C44 C42 1_555 1_555
H22 C44 1_555 1_555
C45 H23 1_555 1_555
C46 C43 1_555 1_555
H24 C46 1_555 1_555
C47 C44 1_555 1_555
C48 C47 1_555 1_555
Zn13 O25 1_555 1_555
Zn19 O26 1_555 1_555
O35 Zn16 1_555 1_555
O36 Zn21 1_555 1_555
O37 Zn24 1_555 1_555
O39 Zn18 1_555 1_555
C45 C46 1_555 1_555
C45 C47 1_555 1_555
C18 C17 1_555 1_555
C19 C18 1_555 1_555
H9 C19 1_555 1_555
C22 C19 1_555 1_555
H12 C22 1_555 1_555
Zn10 O1_2 1_555 1_555
Zn17 O1_2 1_555 1_555
Si1_2 O1_2 1_555 1_555
O4_2 Zn10 1_555 1_555
O6_2 Zn17 1_555 1_555
C1_2 O4_2 1_555 1_555
C2_2 C1_2 1_555 1_555
C3_2 C2_2 1_555 1_555
H1_2 C3_2 1_555 1_555
C6_2 C3_2 1_555 1_555
H4_2 C6_2 1_555 1_555
O8_2 Si1_2 1_555 1_555
O9_2 Si1_2 1_555 1_555
O10_2 Si1_2 1_555 1_555
Zn12 O8_2 1_555 1_555
Zn15 O7_2 1_555 1_555
Zn13 O10_2 1_555 1_555
Zn19 O8_2 1_555 1_555
Zn22 O9_2 1_555 1_555
Zn20 O10_2 1_555 1_555
O42_2 Zn10 1_555 1_555
O6_2 C1_2 1_555 1_555
O9_2 Zn15 1_555 1_555
H7_2 C13_2 1_555 1_555
C26_2 C25_2 1_555 1_555
C27_2 C26_2 1_555 1_555
H13_2 C27_2 1_555 1_555
C30_2 C27_2 1_555 1_555
H16_2 C30_2 1_555 1_555
O34 C48_2 1_555 1_555
C42_2 C41_2 1_555 1_555
C43_2 C42_2 1_555 1_555
H21_2 C43_2 1_555 1_555
C44_2 C42_2 1_555 1_555
H22_2 C44_2 1_555 1_555
C45_2 H23_2 1_555 1_555
C46_2 C43_2 1_555 1_555
H24_2 C46_2 1_555 1_555
C47_2 C44_2 1_555 1_555
C48_2 C47_2 1_555 1_555
C45_2 C46_2 1_555 1_555
C45_2 C47_2 1_555 1_555
O32 C8_2 1_555 1_555
H2_2 C4_2 1_555 1_555
C5_2 H3_2 1_555 1_555
C7_2 C4_2 1_555 1_555
C8_2 C7_2 1_555 1_555
C9_2 O5_2 1_555 1_555
C10_2 C9_2 1_555 1_555
C11_2 C10_2 1_555 1_555
H5_2 C11_2 1_555 1_555
C12_2 C10_2 1_555 1_555
O11_2 C14_2 1_555 1_555
C14_2 C15_2 1_555 1_555
C15_2 C11_2 1_555 1_555
O12_2 C14_2 1_555 1_555
Zn12 O15_2 1_555 1_555
Zn19 O11_2 1_555 1_555
O33 C24_2 1_555 1_555
O37 C24_2 1_555 1_555
O15_2 C17_2 1_555 1_555
O16_2 Zn19 1_555 1_555
C17_2 O16_2 1_555 1_555
C18_2 C17_2 1_555 1_555
C19_2 C18_2 1_555 1_555
H9_2 C19_2 1_555 1_555
C20_2 C18_2 1_555 1_555
H10_2 C20_2 1_555 1_555
C21_2 H11_2 1_555 1_555
C22_2 C19_2 1_555 1_555
H12_2 C22_2 1_555 1_555
C23_2 C20_2 1_555 1_555
C24_2 C23_2 1_555 1_555
Zn15 O19_2 1_555 1_555
O21_2 Zn22 1_555 1_555
O22_2 Zn12 1_555 1_555
Zn13 O12_2 1_555 1_555
Zn20 O28_2 1_555 1_555
O27_2 Zn13 1_555 1_555
O40 Zn20 1_555 1_555
C5_2 C7_2 1_555 1_555
C15_2 C16_2 1_555 1_555
C21_2 C22_2 1_555 1_555
C21_2 C23_2 1_555 1_555
O35 C32_2 1_555 1_555
O39 C32_2 1_555 1_555
H14_2 C28_2 1_555 1_555
C29_2 H15_2 1_555 1_555
C31_2 C28_2 1_555 1_555
C32_2 C31_2 1_555 1_555
C29_2 C31_2 1_555 1_555
O20_2 C33_2 1_555 1_555
C34_2 C33_2 1_555 1_555
C35_2 C34_2 1_555 1_555
H17_2 C35_2 1_555 1_555
C36_2 C34_2 1_555 1_555
H18_2 C36_2 1_555 1_555
C37_2 C36_2 1_555 1_555
H19_2 C37_2 1_555 1_555
O40 C38_2 1_555 1_555
C38_2 C39_2 1_555 1_555
C39_2 C35_2 1_555 1_555
C40_2 C37_2 1_555 1_555
H20_2 C40_2 1_555 1_555
O42_2 C38_2 1_555 1_555
C39_2 C40_2 1_555 1_555

#END
