
###############################################################################
#
# This file contains modified crystal structure data generated from the
# MOF subset of the Cambridge Structural Database (CSD) v543 
# hosted by the Cambridge Crystallographic Data Centre (CCDC).
#
# This work is licensed under the Creative Commons
# Attribution-NonCommercial-ShareAlike 4.0 International License.
# To view a copy of this license, visit
# http://creativecommons.org/licenses/by-nc-sa/4.0/
# or send a letter to
# Creative Commons, PO Box 1866, Mountain View, CA 94042, USA.
#
# CIF created using the CSD Python API on 29 September 2022
# The structure has been converted into the P1 space group
# The structure has a 3D framework
# The original CSD entry FOKHIZ04 is in the tetragonal crystal system
# The framework has been calculated to contain at least 10.0% void space
# The void calculation uses a probe of radius 1.32A, grid spacing 0.4
#
###############################################################################

data_FOKHIZ04
_chemical_formula_moiety         '(C96 H48 O49 Si2 Zn16)n'
_symmetry_cell_setting           triclinic
_symmetry_space_group_name_H-M   'P 1'
_symmetry_Int_Tables_number      1
_space_group_name_Hall           'P 1'
loop_
_symmetry_equiv_pos_site_id
_symmetry_equiv_pos_as_xyz
1 x,y,z
_cell_length_a                   13.6914(2)
_cell_length_b                   13.6914(2)
_cell_length_c                   15.0409(4)
_cell_angle_alpha                90
_cell_angle_beta                 90
_cell_angle_gamma                90
_cell_volume                     2819.48
loop_
_atom_site_label
_atom_site_type_symbol
_atom_site_fract_x
_atom_site_fract_y
_atom_site_fract_z
O11 O 0.29710(16) 0.00543(15) 0.11719(14)
Zn10 Zn 0.38302(3) 0.11504(2) 0.12435(2)
Zn19 Zn 0.31756(2) 0.04099(2) 0.32508(2)
Zn1 Zn 0.11698(3) 0.38496(2) 0.12435(2)
Zn2 Zn 0.04099(2) 0.18244(2) 0.17492(2)
Si1 Si 0.250000 0.250000 0.250000
O1 O 0.05963(16) 0.04202(14) 0.17907(13)
O4 O 0.15288(13) 0.26825(12) 0.19025(11)
O6 O 0.21241(15) 0.57103(14) 0.24837(13)
O7 O 0.20290(16) 0.49457(15) 0.11719(14)
C5 C 0.2343(2) 0.6637(2) 0.11721(18)
C6 C 0.2149(2) 0.5695(2) 0.16490(19)
C10 C 0.2345(3) 0.6642(2) 0.0249(2)
C11 C 0.250000 0.750000 0.1636(3)
H6 H 0.250003 0.750000 0.225475
O8 O 0.34712(13) 0.23175(12) 0.19025(11)
O9 O 0.26825(12) 0.34712(13) 0.30975(11)
O10 O 0.23175(12) 0.15288(13) 0.30975(11)
C14 C 0.2657(2) 0.8363(2) 0.11721(18)
C15 C 0.2851(2) 0.9305(2) 0.16490(19)
C16 C 0.2655(3) 0.8358(2) 0.0249(2)
O12 O 0.28759(15) 0.92897(14) 0.24837(13)
Zn4 Zn 0.45901(2) 0.31756(2) 0.17492(2)
O13 O 0.44037(16) 0.45798(14) 0.17907(13)
O14 O 0.43329(15) 0.50339(15) 0.32179(13)
C17 C 0.44558(18) 0.52003(19) 0.24004(18)
C18 C 0.47029(19) 0.62270(19) 0.21427(18)
C19 C 0.48553(19) 0.6452(2) 0.12581(17)
H9 H 0.477575 0.597554 0.082366
C20 C 0.4793(2) 0.6942(2) 0.27882(19)
H10 H 0.467804 0.678824 0.338129
C21 C 0.5127(2) 0.7392(2) 0.10209(18)
C22 C 0.5052(3) 0.7882(2) 0.2556(2)
H11 H 0.510560 0.836229 0.299092
C23 C 0.5232(2) 0.8110(2) 0.1674(2)
H12 H 0.542102 0.873880 0.151660
C24 C 0.5335(2) 0.7635(2) 0.00730(18)
O19 O 0.00543(15) 0.20290(16) 0.38281(14)
Zn6 Zn 0.18244(2) 0.45901(2) 0.32508(2)
O21 O 0.04202(14) 0.44037(16) 0.32093(13)
O27 O 0.07646(17) 0.34274(14) 0.00807(13)
O28 O 0.00748(15) 0.20223(15) 0.05029(12)
Zn8 Zn 0.11504(2) 0.11698(3) 0.37565(2)
Zn13 Zn 0.38496(2) 0.38302(3) 0.37565(2)
O30 O 0.50339(15) 0.06671(15) 0.17821(13)
O32 O 0.15726(14) 0.07646(17) 0.49193(13)
O33 O 0.42354(17) 0.15726(14) 0.00807(13)
O36 O 0.20223(15) 0.49252(15) 0.44971(12)
O37 O 0.49252(15) 0.29777(15) 0.05029(12)
O39 O 0.57103(14) 0.28759(15) 0.25163(13)
H5 H 0.224049 0.606489 0.993727
C12 C 0.250000 0.750000 0.9795(3)
H7 H 0.249999 0.750000 0.917668
H8 H 0.275951 0.893511 0.993727
O15 O 0.57646(17) 0.84274(14) 0.99193(13)
O16 O 0.50748(15) 0.70223(15) 0.94971(12)
C45 C 0.0127(2) 0.2392(2) 0.89791(18)
C46 C 0.0052(3) 0.2882(2) 0.7444(2)
H23 H 0.010560 0.336229 0.700908
C47 C 0.0232(2) 0.3110(2) 0.8326(2)
H24 H 0.042102 0.373880 0.848340
C48 C 0.0335(2) 0.2635(2) 0.99270(18)
Zn14 Zn 0.61698(3) 0.88496(2) 0.87565(2)
Zn17 Zn 0.54099(2) 0.68244(2) 0.82508(2)
O2 O 0.06671(15) 0.99661(15) 0.32179(13)
C1 C 0.05442(18) 0.97997(19) 0.24004(18)
C2 C 0.02971(19) 0.87730(19) 0.21427(18)
C3 C 0.01447(19) 0.8548(2) 0.12581(17)
H1 H 0.022425 0.902446 0.082366
C4 C 0.0207(2) 0.8058(2) 0.27882(19)
H2 H 0.032196 0.821176 0.338129
O38 O 0.07103(14) 0.78759(15) 0.74837(13)
O18 O 0.49457(15) 0.29710(16) 0.38281(14)
C25 C 0.6637(2) 0.2657(2) 0.38279(18)
C26 C 0.5695(2) 0.2851(2) 0.33510(19)
C27 C 0.6642(2) 0.2655(3) 0.4751(2)
H13 H 0.606489 0.275951 0.506273
C28 C 0.750000 0.250000 0.3364(3)
H14 H 0.750000 0.249997 0.274525
C29 C 0.750000 0.250000 0.5205(3)
H15 H 0.750000 0.250001 0.582332
C30 C 0.8363(2) 0.2343(2) 0.38279(18)
C31 C 0.9305(2) 0.2149(2) 0.33510(19)
C32 C 0.8358(2) 0.2345(3) 0.4751(2)
H16 H 0.893511 0.224049 0.506273
O20 O 0.92897(14) 0.21241(15) 0.25163(13)
O22 O 0.99661(15) 0.43329(15) 0.17821(13)
O23 O 0.65726(14) 0.57646(17) 0.50807(13)
O24 O 0.79777(15) 0.50748(15) 0.55029(12)
C33 C 0.97997(19) 0.44558(18) 0.25996(18)
C34 C 0.87730(19) 0.47029(19) 0.28573(18)
C35 C 0.8548(2) 0.48553(19) 0.37419(17)
H17 H 0.902446 0.477575 0.417634
C36 C 0.8058(2) 0.4793(2) 0.22118(19)
H18 H 0.821176 0.467804 0.161871
C37 C 0.7608(2) 0.5127(2) 0.39791(18)
C38 C 0.7118(2) 0.5052(3) 0.2444(2)
H19 H 0.663771 0.510560 0.200908
C39 C 0.6890(2) 0.5232(2) 0.3326(2)
H20 H 0.626120 0.542102 0.348340
C40 C 0.7365(2) 0.5335(2) 0.49270(18)
Zn9 Zn 0.61504(2) 0.61698(3) 0.62435(2)
Zn15 Zn 0.81756(2) 0.54099(2) 0.67492(2)
O31 O 0.34274(14) 0.42354(17) 0.49193(13)
O26 O 0.93329(15) 0.00339(15) 0.67821(13)
C41 C 0.94558(18) 0.02003(19) 0.75996(18)
C42 C 0.97029(19) 0.12270(19) 0.78573(18)
C43 C 0.98553(19) 0.1452(2) 0.87419(17)
H21 H 0.977575 0.097554 0.917634
C44 C 0.9793(2) 0.1942(2) 0.72118(19)
H22 H 0.967804 0.178824 0.661871
C7 C 0.9873(2) 0.7608(2) 0.10209(18)
C8 C 0.9948(3) 0.7118(2) 0.2556(2)
H3 H 0.989440 0.663771 0.299092
C9 C 0.9768(2) 0.6890(2) 0.1674(2)
H4 H 0.957898 0.626120 0.151660
C13 C 0.9665(2) 0.7365(2) 0.00730(18)
O3 O 0.92354(17) 0.65726(14) 0.99193(13)
O5 O 0.99252(15) 0.79777(15) 0.94971(12)
Zn7 Zn 0.95901(2) 0.81756(2) 0.82508(2)
O25 O 0.94037(16) 0.95798(14) 0.82093(13)
Zn11 Zn 0.88496(2) 0.88302(3) 0.62435(2)
Zn12 Zn 0.88302(3) 0.61504(2) 0.87565(2)
O34 O 0.84712(13) 0.73175(12) 0.80975(11)
O2_2 O 0.00339(15) 0.56671(15) 0.82179(13)
C1_2 C 0.02003(19) 0.55442(18) 0.74004(18)
C2_2 C 0.12270(19) 0.52971(19) 0.71427(18)
C3_2 C 0.1452(2) 0.51447(19) 0.62581(17)
H1_2 H 0.097554 0.522425 0.582366
C4_2 C 0.1942(2) 0.5207(2) 0.77882(19)
H2_2 H 0.178824 0.532196 0.838129
C7_2 C 0.2392(2) 0.4873(2) 0.60209(18)
C8_2 C 0.2882(2) 0.4948(3) 0.7556(2)
H3_2 H 0.336229 0.489440 0.799092
C9_2 C 0.3110(2) 0.4768(2) 0.6674(2)
H4_2 H 0.373880 0.457898 0.651660
C13_2 C 0.2635(2) 0.4665(2) 0.50730(18)
O16_2 O 0.29777(15) 0.00748(15) 0.44971(12)
C21_2 C 0.2608(2) 0.0127(2) 0.60209(18)
C22_2 C 0.2118(2) 0.0052(3) 0.7556(2)
H11_2 H 0.163771 0.010560 0.799092
C23_2 C 0.1890(2) 0.0232(2) 0.6674(2)
H12_2 H 0.126120 0.042102 0.651660
C24_2 C 0.2365(2) 0.0335(2) 0.50730(18)
O39_2 O 0.71241(15) 0.07103(14) 0.75163(13)
H13_2 H 0.724049 0.106489 0.006273
C29_2 C 0.750000 0.250000 0.0205(3)
H15_2 H 0.749999 0.250000 0.082332
H16_2 H 0.775951 0.393511 0.006273
Si1_2 Si 0.750000 0.750000 0.750000
O1_2 O 0.95798(14) 0.55963(16) 0.67907(13)
O4_2 O 0.73175(12) 0.65288(13) 0.69025(11)
O6_2 O 0.42897(14) 0.71241(15) 0.74837(13)
O7_2 O 0.50543(15) 0.70290(16) 0.61719(14)
C5_2 C 0.3363(2) 0.7343(2) 0.61721(18)
C6_2 C 0.4305(2) 0.7149(2) 0.66490(19)
C10_2 C 0.3358(2) 0.7345(3) 0.5249(2)
H5_2 H 0.393511 0.724049 0.493727
C11_2 C 0.250000 0.750000 0.6636(3)
H6_2 H 0.250000 0.750003 0.725475
C12_2 C 0.250000 0.750000 0.4795(3)
H7_2 H 0.250000 0.749999 0.417668
O8_2 O 0.76825(12) 0.84712(13) 0.69025(11)
O9_2 O 0.65288(13) 0.76825(12) 0.80975(11)
C14_2 C 0.1637(2) 0.7657(2) 0.61721(18)
C15_2 C 0.0695(2) 0.7851(2) 0.66490(19)
C16_2 C 0.1642(2) 0.7655(3) 0.5249(2)
H8_2 H 0.106489 0.775951 0.493727
Zn4_2 Zn 0.68244(2) 0.95901(2) 0.67492(2)
O13_2 O 0.54202(14) 0.94037(16) 0.67907(13)
O14_2 O 0.49661(15) 0.93329(15) 0.82179(13)
C17_2 C 0.47997(19) 0.94558(18) 0.74004(18)
C18_2 C 0.37730(19) 0.97029(19) 0.71427(18)
C19_2 C 0.3548(2) 0.98553(19) 0.62581(17)
H9_2 H 0.402446 0.977575 0.582366
C20_2 C 0.3058(2) 0.9793(2) 0.77882(19)
H10_2 H 0.321176 0.967804 0.838129
C25_2 C 0.7343(2) 0.1637(2) 0.88279(18)
C26_2 C 0.7149(2) 0.0695(2) 0.83510(19)
C27_2 C 0.7345(3) 0.1642(2) 0.9751(2)
C28_2 C 0.750000 0.250000 0.8364(3)
H14_2 H 0.750003 0.250000 0.774525
O19_2 O 0.79710(16) 0.50543(15) 0.88281(14)
C30_2 C 0.7657(2) 0.3363(2) 0.88279(18)
C31_2 C 0.7851(2) 0.4305(2) 0.83510(19)
C32_2 C 0.7655(3) 0.3358(2) 0.9751(2)
O20_2 O 0.78759(15) 0.42897(14) 0.75163(13)
O21_2 O 0.55963(16) 0.54202(14) 0.82093(13)
O22_2 O 0.56671(15) 0.49661(15) 0.67821(13)
C33_2 C 0.55442(18) 0.47997(19) 0.75996(18)
C34_2 C 0.52971(19) 0.37730(19) 0.78573(18)
C35_2 C 0.51447(19) 0.3548(2) 0.87419(17)
H17_2 H 0.522425 0.402446 0.917634
C36_2 C 0.5207(2) 0.3058(2) 0.72118(19)
H18_2 H 0.532196 0.321176 0.661871
C37_2 C 0.4873(2) 0.2608(2) 0.89791(18)
C38_2 C 0.4948(3) 0.2118(2) 0.7444(2)
H19_2 H 0.489440 0.163771 0.700908
C39_2 C 0.4768(2) 0.1890(2) 0.8326(2)
H20_2 H 0.457898 0.126120 0.848340
C40_2 C 0.4665(2) 0.2365(2) 0.99270(18)
O33_2 O 0.84274(14) 0.92354(17) 0.50807(13)
O37_2 O 0.70223(15) 0.99252(15) 0.55029(12)
O40 O 0.99457(15) 0.79710(16) 0.61719(14)
O18_2 O 0.70290(16) 0.99457(15) 0.88281(14)
O21_3 O 0.45798(14) 0.05963(16) 0.32093(13)
C33_3 C 0.52003(19) 0.05442(18) 0.25996(18)
C34_3 C 0.62270(19) 0.02971(19) 0.28573(18)
C35_3 C 0.6452(2) 0.01447(19) 0.37419(17)
H17_3 H 0.597554 0.022425 0.417634
C36_3 C 0.6942(2) 0.0207(2) 0.22118(19)
H18_3 H 0.678824 0.032196 0.161871
C37_3 C 0.7392(2) 0.9873(2) 0.39791(18)
C38_3 C 0.7882(2) 0.9948(3) 0.2444(2)
H19_3 H 0.836229 0.989440 0.200908
C39_3 C 0.8110(2) 0.9768(2) 0.3326(2)
H20_3 H 0.873880 0.957898 0.348340
C40_3 C 0.7635(2) 0.9665(2) 0.49270(18)
loop_
_geom_bond_atom_site_label_1
_geom_bond_atom_site_label_2
_geom_bond_site_symmetry_1
_geom_bond_site_symmetry_2
Zn10 O11 1_555 1_555
Zn1 O4 1_555 1_555
Zn2 O1 1_555 1_555
Si1 O4 1_555 1_555
O4 Zn2 1_555 1_555
O6 C6 1_555 1_555
O7 Zn1 1_555 1_555
C5 C6 1_555 1_555
C6 O7 1_555 1_555
C10 C5 1_555 1_555
C11 C5 1_555 1_555
H6 C11 1_555 1_555
O8 Si1 1_555 1_555
O9 Si1 1_555 1_555
O10 Si1 1_555 1_555
C14 C11 1_555 1_555
C15 C14 1_555 1_555
O12 C15 1_555 1_555
Zn10 O8 1_555 1_555
Zn4 O8 1_555 1_555
O13 Zn4 1_555 1_555
O14 C17 1_555 1_555
C17 O13 1_555 1_555
C18 C17 1_555 1_555
C19 C18 1_555 1_555
H9 C19 1_555 1_555
C20 C18 1_555 1_555
H10 C20 1_555 1_555
C21 C19 1_555 1_555
C22 C20 1_555 1_555
H11 C22 1_555 1_555
C23 C21 1_555 1_555
H12 C23 1_555 1_555
C24 C21 1_555 1_555
Zn6 O6 1_555 1_555
O21 Zn6 1_555 1_555
O27 Zn1 1_555 1_555
O28 Zn2 1_555 1_555
Zn13 O9 1_555 1_555
Zn19 O10 1_555 1_555
O30 Zn10 1_555 1_555
O32 Zn8 1_555 1_555
O33 Zn10 1_555 1_555
O36 Zn6 1_555 1_555
O37 Zn4 1_555 1_555
O39 Zn4 1_555 1_555
O9 Zn6 1_555 1_555
O10 Zn8 1_555 1_555
C14 C16 1_555 1_555
O14 Zn13 1_555 1_555
C22 C23 1_555 1_555
O19 Zn8 1_555 1_555
H7 C12 1_555 1_555
H23 C46 1_555 1_555
C47 C45 1_555 1_555
H24 C47 1_555 1_555
Zn14 O15 1_555 1_555
Zn17 O16 1_555 1_555
C45 C48 1_555 1_555
C46 C47 1_555 1_555
O2 C1 1_555 1_555
C1 C2 1_555 1_555
C2 C3 1_555 1_555
C3 H1 1_555 1_555
C4 C2 1_555 1_555
H2 C4 1_555 1_555
Zn13 O18 1_555 1_555
O39 C26 1_555 1_555
O18 C26 1_555 1_555
C25 C26 1_555 1_555
C27 C25 1_555 1_555
H13 C27 1_555 1_555
C28 C25 1_555 1_555
H14 C28 1_555 1_555
C29 C27 1_555 1_555
H15 C29 1_555 1_555
C30 C28 1_555 1_555
C31 C30 1_555 1_555
C32 C29 1_555 1_555
H16 C32 1_555 1_555
O23 C40 1_555 1_555
O24 C40 1_555 1_555
C34 C33 1_555 1_555
C35 C34 1_555 1_555
H17 C35 1_555 1_555
C36 C34 1_555 1_555
H18 C36 1_555 1_555
C37 C35 1_555 1_555
C38 C36 1_555 1_555
H19 C38 1_555 1_555
C39 C37 1_555 1_555
H20 C39 1_555 1_555
C40 C37 1_555 1_555
Zn9 O23 1_555 1_555
Zn15 O24 1_555 1_555
O31 Zn13 1_555 1_555
C30 C32 1_555 1_555
C31 O20 1_555 1_555
O22 C33 1_555 1_555
C38 C39 1_555 1_555
O26 C41 1_555 1_555
C42 C41 1_555 1_555
C43 C42 1_555 1_555
H21 C43 1_555 1_555
C44 C42 1_555 1_555
H22 C44 1_555 1_555
H3 C8 1_555 1_555
C9 C7 1_555 1_555
H4 C9 1_555 1_555
C13 C7 1_555 1_555
C8 C9 1_555 1_555
Zn7 O5 1_555 1_555
O25 Zn7 1_555 1_555
Zn12 O3 1_555 1_555
O34 Zn7 1_555 1_555
Zn12 O34 1_555 1_555
O2_2 C1_2 1_555 1_555
O31 C13_2 1_555 1_555
O36 C13_2 1_555 1_555
C1_2 C2_2 1_555 1_555
C2_2 C3_2 1_555 1_555
C3_2 H1_2 1_555 1_555
C4_2 C2_2 1_555 1_555
H2_2 C4_2 1_555 1_555
C7_2 C3_2 1_555 1_555
C8_2 C4_2 1_555 1_555
H3_2 C8_2 1_555 1_555
C9_2 C7_2 1_555 1_555
H4_2 C9_2 1_555 1_555
C13_2 C7_2 1_555 1_555
C8_2 C9_2 1_555 1_555
O32 C24_2 1_555 1_555
O16_2 C24_2 1_555 1_555
H11_2 C22_2 1_555 1_555
C23_2 C21_2 1_555 1_555
H12_2 C23_2 1_555 1_555
C24_2 C21_2 1_555 1_555
Zn19 O16_2 1_555 1_555
C22_2 C23_2 1_555 1_555
H15_2 C29_2 1_555 1_555
Zn9 O4_2 1_555 1_555
Zn15 O1_2 1_555 1_555
Si1_2 O4_2 1_555 1_555
O4_2 Zn15 1_555 1_555
O6_2 C6_2 1_555 1_555
O7_2 Zn9 1_555 1_555
C5_2 C6_2 1_555 1_555
C6_2 O7_2 1_555 1_555
C10_2 C5_2 1_555 1_555
H5_2 C10_2 1_555 1_555
C11_2 C5_2 1_555 1_555
H6_2 C11_2 1_555 1_555
C12_2 C10_2 1_555 1_555
H7_2 C12_2 1_555 1_555
O8_2 Si1_2 1_555 1_555
O9_2 Si1_2 1_555 1_555
O34 Si1_2 1_555 1_555
C14_2 C11_2 1_555 1_555
C15_2 C14_2 1_555 1_555
C16_2 C12_2 1_555 1_555
H8_2 C16_2 1_555 1_555
O38 C15_2 1_555 1_555
Zn11 O8_2 1_555 1_555
Zn4_2 O8_2 1_555 1_555
O13_2 Zn4_2 1_555 1_555
O14_2 C17_2 1_555 1_555
C17_2 O13_2 1_555 1_555
C18_2 C17_2 1_555 1_555
C19_2 C18_2 1_555 1_555
H9_2 C19_2 1_555 1_555
C20_2 C18_2 1_555 1_555
H10_2 C20_2 1_555 1_555
O39_2 C26_2 1_555 1_555
C25_2 C26_2 1_555 1_555
C27_2 C25_2 1_555 1_555
C28_2 C25_2 1_555 1_555
H14_2 C28_2 1_555 1_555
O19_2 C31_2 1_555 1_555
C30_2 C28_2 1_555 1_555
C31_2 C30_2 1_555 1_555
O20_2 Zn15 1_555 1_555
Zn17 O6_2 1_555 1_555
O21_2 Zn17 1_555 1_555
O22_2 Zn9 1_555 1_555
C33_2 O21_2 1_555 1_555
C34_2 C33_2 1_555 1_555
C35_2 C34_2 1_555 1_555
H17_2 C35_2 1_555 1_555
C36_2 C34_2 1_555 1_555
H18_2 C36_2 1_555 1_555
C37_2 C35_2 1_555 1_555
C38_2 C36_2 1_555 1_555
H19_2 C38_2 1_555 1_555
C39_2 C37_2 1_555 1_555
H20_2 C39_2 1_555 1_555
C40_2 C37_2 1_555 1_555
Zn14 O9_2 1_555 1_555
O33_2 Zn11 1_555 1_555
O37_2 Zn4_2 1_555 1_555
O40 Zn11 1_555 1_555
O9_2 Zn17 1_555 1_555
C14_2 C16_2 1_555 1_555
O14_2 Zn14 1_555 1_555
O19_2 Zn12 1_555 1_555
C30_2 C32_2 1_555 1_555
C31_2 O20_2 1_555 1_555
O22_2 C33_2 1_555 1_555
C38_2 C39_2 1_555 1_555
Zn14 O18_2 1_555 1_555
O21_3 Zn19 1_555 1_555
C33_3 O21_3 1_555 1_555
C34_3 C33_3 1_555 1_555
C35_3 C34_3 1_555 1_555
H17_3 C35_3 1_555 1_555
C36_3 C34_3 1_555 1_555
H18_3 C36_3 1_555 1_555
O30 C33_3 1_555 1_555
O33_2 C40_3 1_555 1_555
O37_2 C40_3 1_555 1_555
H19_3 C38_3 1_555 1_555
C39_3 C37_3 1_555 1_555
H20_3 C39_3 1_555 1_555
C40_3 C37_3 1_555 1_555
C38_3 C39_3 1_555 1_555

#END
