
###############################################################################
#
# This file contains modified crystal structure data generated from the
# MOF subset of the Cambridge Structural Database (CSD) v543 
# hosted by the Cambridge Crystallographic Data Centre (CCDC).
#
# This work is licensed under the Creative Commons
# Attribution-NonCommercial-ShareAlike 4.0 International License.
# To view a copy of this license, visit
# http://creativecommons.org/licenses/by-nc-sa/4.0/
# or send a letter to
# Creative Commons, PO Box 1866, Mountain View, CA 94042, USA.
#
# CIF created using the CSD Python API on 29 September 2022
# The structure has been converted into the P1 space group
# The structure has a 3D framework
# The original CSD entry FOKWIN is in the tetragonal crystal system
# The framework has been calculated to contain at least 10.0% void space
# The void calculation uses a probe of radius 1.32A, grid spacing 0.4
#
###############################################################################

data_FOKWIN
_chemical_formula_moiety         '(C102 H96 Co14 N63 O16)n'
_symmetry_cell_setting           triclinic
_symmetry_space_group_name_H-M   'P 1'
_symmetry_Int_Tables_number      1
_space_group_name_Hall           'P 1'
loop_
_symmetry_equiv_pos_site_id
_symmetry_equiv_pos_as_xyz
1 x,y,z
_cell_length_a                   10.3163(2)
_cell_length_b                   10.3163(2)
_cell_length_c                   33.0950(13)
_cell_angle_alpha                90
_cell_angle_beta                 90
_cell_angle_gamma                90
_cell_volume                     3522.17
loop_
_atom_site_label
_atom_site_type_symbol
_atom_site_fract_x
_atom_site_fract_y
_atom_site_fract_z
Co5 Co -0.0000 -0.0000 0.0000
Co5_2 Co -0.0000 -0.0000 1.0000
C11 C 0.0385(4) 0.9422(4) 0.12977(11)
H9 H 0.1069 0.9557 0.1490
C12 C 0.0600(3) 0.9663(4) 0.08937(11)
H10 H 0.1442 0.9944 0.0807
Co5_3 Co -0.0000 1.0000 0.0000
Co5_4 Co -0.0000 1.0000 1.0000
C20 C 0.3414(3) 0.1016(3) 0.17640(9)
H19 H 0.3533 0.0349 0.1963
C21 C 0.3685(3) 0.0748(3) 0.13678(9)
C22 C 0.3504(3) 0.1700(3) 0.10788(10)
H20 H 0.3669 0.1526 0.0798
C23 C 0.3078(4) 0.2885(4) 0.12023(11)
H21 H 0.2943 0.3569 0.1010
C24 C 0.2837(4) 0.3100(3) 0.16063(11)
H22 H 0.2556 0.3942 0.1693
N7 N 0.2993(3) 0.2178(2) 0.18854(8)
Co3 Co 0.2500 0.2500 0.2500
Co5_5 Co 1.0000 -0.0000 0.0000
Co5_6 Co 1.0000 -0.0000 1.0000
C1 C 0.1484(3) 0.5914(3) 0.07360(9)
H1 H 0.2151 0.6033 0.0537
C2 C 0.1752(3) 0.6185(3) 0.11322(9)
C3 C 0.0800(3) 0.6004(3) 0.14212(10)
H2 H 0.0974 0.6169 0.1702
C6 C 0.3882(3) 0.7016(3) 0.09844(8)
H5 H 0.4156 0.6304 0.0818
H6 H 0.3559 0.7698 0.0814
C7 C 0.5000 0.7500 0.1250
N1 N 0.0322(2) 0.5493(3) 0.06146(8)
O1 O 0.2912(2) 0.6612(3) 0.12682(6)
Co1 Co -0.0000 0.5000 0.0000
C8 C 0.8516(3) 0.9086(3) 0.07360(9)
H7 H 0.7849 0.8967 0.0537
C9 C 0.8248(3) 0.8815(3) 0.11322(9)
C10 C 0.9200(3) 0.8996(3) 0.14212(10)
H8 H 0.9026 0.8831 0.1702
C13 C 0.6118(3) 0.7984(3) 0.09844(8)
H11 H 0.5844 0.8696 0.0818
H12 H 0.6441 0.7302 0.0814
N5 N 0.9678(2) 0.9507(3) 0.06146(8)
O2 O 0.7088(2) 0.8388(3) 0.12682(6)
C14 C 0.6586(3) 0.3984(3) 0.17640(9)
H13 H 0.6467 0.4651 0.1963
C15 C 0.6315(3) 0.4252(3) 0.13678(9)
C16 C 0.6496(3) 0.3300(3) 0.10788(10)
H14 H 0.6331 0.3474 0.0798
C17 C 0.6922(4) 0.2115(4) 0.12023(11)
H15 H 0.7057 0.1431 0.1010
C18 C 0.7163(4) 0.1900(3) 0.16063(11)
H16 H 0.7444 0.1058 0.1693
C19 C 0.5484(3) 0.6382(3) 0.15156(8)
H17 H 0.6196 0.6656 0.1682
H18 H 0.4802 0.6059 0.1686
N6 N 0.7007(3) 0.2822(2) 0.18854(8)
O3 O 0.5888(3) 0.5412(2) 0.12318(6)
C25 C 0.4516(3) 0.8618(3) 0.15156(8)
H23 H 0.3804 0.8344 0.1682
H24 H 0.5198 0.8941 0.1686
O4 O 0.4112(3) 0.9588(2) 0.12318(6)
N8 N 0.1343(3) 0.1485(3) 0.01968(8)
N9 N 0.1449(2) 0.2569(2) 0.01082(7)
N10 N 0.1602(3) 0.3666(3) 0.00187(8)
Co5_7 Co 1.0000 1.0000 0.0000
Co6 Co 0.7500 0.2500 0.2500
Co1_2 Co -0.0000 0.5000 1.0000
N11 N 0.1343(3) 0.6485(3) 0.98032(8)
N12 N 0.1449(2) 0.7569(2) 0.98918(7)
N13 N 0.1602(3) 0.8666(3) 0.99813(8)
N19 N 0.0322(2) 0.0493(3) 0.93854(8)
Co5_8 Co 1.0000 1.0000 1.0000
C4 C 0.9615(4) 0.5578(4) 0.12977(11)
H3 H 0.8931 0.5443 0.1490
C5 C 0.9400(3) 0.5337(4) 0.08937(11)
H4 H 0.8558 0.5056 0.0807
N2 N 0.8657(3) 0.3515(3) 0.01968(8)
N3 N 0.8551(2) 0.2431(2) 0.01082(7)
N4 N 0.8398(3) 0.1334(3) 0.00187(8)
Co1_3 Co 1.0000 0.5000 0.0000
Co1_4 Co 1.0000 0.5000 1.0000
N14 N 0.8657(3) 0.8515(3) 0.98032(8)
N15 N 0.8551(2) 0.7431(2) 0.98918(7)
N16 N 0.8398(3) 0.6334(3) 0.99813(8)
N18 N 0.9678(2) 0.4507(3) 0.93854(8)
Co2 Co 0.5000 -0.0000 0.5000
N17 N 0.5322(2) 0.0493(3) 0.56146(8)
N20 N 0.6343(3) 0.1485(3) 0.48032(8)
N21 N 0.3398(3) 0.1334(3) 0.49813(8)
C1_2 C 0.3516(3) 0.4086(3) 0.57360(9)
H1_2 H 0.2849 0.3967 0.5537
C2_2 C 0.3248(3) 0.3815(3) 0.61322(9)
C3_2 C 0.4200(3) 0.3996(3) 0.64212(10)
H2_2 H 0.4026 0.3831 0.6702
C4_2 C 0.5385(4) 0.4422(4) 0.62977(11)
H3_2 H 0.6069 0.4557 0.6490
C5_2 C 0.5600(3) 0.4663(4) 0.58937(11)
H4_2 H 0.6442 0.4944 0.5807
C6_2 C 0.1118(3) 0.2984(3) 0.59844(8)
H5_2 H 0.0844 0.3696 0.5818
H6_2 H 0.1441 0.2302 0.5814
C7_2 C 0.0000 0.2500 0.6250
N1_2 N 0.4678(2) 0.4507(3) 0.56146(8)
N2_2 N 0.6343(3) 0.6485(3) 0.51968(8)
N3_2 N 0.6449(2) 0.7569(2) 0.51082(7)
N4_2 N 0.6602(3) 0.8666(3) 0.50187(8)
O1_2 O 0.2088(2) 0.3388(3) 0.62682(6)
Co1_5 Co 0.5000 0.5000 0.5000
H18_2 H 0.0198 0.3941 0.6686
C25_2 C 0.0484(3) 0.1382(3) 0.65156(8)
H23_2 H 0.1196 0.1656 0.6682
O4_2 O 0.0888(3) 0.0412(2) 0.62318(6)
N8_2 N 0.3657(3) 0.8515(3) 0.51968(8)
N9_2 N 0.3551(2) 0.7431(2) 0.51082(7)
N10_2 N 0.3398(3) 0.6334(3) 0.50187(8)
Co2_2 Co 0.5000 1.0000 0.5000
N11_2 N 0.3657(3) 0.3515(3) 0.48032(8)
N12_2 N 0.3551(2) 0.2431(2) 0.48918(7)
N15_2 N 0.6449(2) 0.2569(2) 0.48918(7)
N16_2 N 0.6602(3) 0.3666(3) 0.49813(8)
N18_2 N 0.5322(2) 0.5493(3) 0.43854(8)
N19_2 N 0.4678(2) 0.9507(3) 0.43854(8)
C20_2 C 0.1586(3) 0.8984(3) 0.67640(9)
H19_2 H 0.1467 0.9651 0.6963
C21_2 C 0.1315(3) 0.9252(3) 0.63678(9)
C22_2 C 0.1496(3) 0.8300(3) 0.60788(10)
H20_2 H 0.1331 0.8474 0.5798
C23_2 C 0.1922(4) 0.7115(4) 0.62023(11)
H21_2 H 0.2057 0.6431 0.6010
C24_2 C 0.2163(4) 0.6900(3) 0.66063(11)
H22_2 H 0.2444 0.6058 0.6693
N7_2 N 0.2007(3) 0.7822(2) 0.68854(8)
Co3_2 Co 0.2500 0.7500 0.7500
C7_3 C 1.0000 0.2500 0.6250
C8_2 C 0.6484(3) 0.0914(3) 0.57360(9)
H7_2 H 0.7151 0.1033 0.5537
C9_2 C 0.6752(3) 0.1185(3) 0.61322(9)
C10_2 C 0.5800(3) 0.1004(3) 0.64212(10)
H8_2 H 0.5974 0.1169 0.6702
C11_2 C 0.4615(4) 0.0578(4) 0.62977(11)
H9_2 H 0.3931 0.0443 0.6490
C12_2 C 0.4400(3) 0.0337(4) 0.58937(11)
H10_2 H 0.3558 0.0056 0.5807
C13_2 C 0.8882(3) 0.2016(3) 0.59844(8)
H11_2 H 0.9156 0.1304 0.5818
H12_2 H 0.8559 0.2698 0.5814
O2_2 O 0.7912(2) 0.1612(3) 0.62682(6)
C14_2 C 0.8414(3) 0.6016(3) 0.67640(9)
H13_2 H 0.8533 0.5349 0.6963
C15_2 C 0.8685(3) 0.5748(3) 0.63678(9)
C16_2 C 0.8504(3) 0.6700(3) 0.60788(10)
H14_2 H 0.8669 0.6526 0.5798
C17_2 C 0.8078(4) 0.7885(4) 0.62023(11)
H15_2 H 0.7943 0.8569 0.6010
C18_2 C 0.7837(4) 0.8100(3) 0.66063(11)
H16_2 H 0.7556 0.8942 0.6693
C19_2 C 0.9516(3) 0.3618(3) 0.65156(8)
H17_2 H 0.8804 0.3344 0.6682
N6_2 N 0.7993(3) 0.7178(2) 0.68854(8)
O3_2 O 0.9112(3) 0.4588(2) 0.62318(6)
H24_2 H 0.9802 0.1059 0.6686
Co6_2 Co 0.7500 0.7500 0.7500
C1_3 C 0.1586(3) 0.3984(3) 0.32360(9)
H1_3 H 0.1467 0.4651 0.3037
C2_3 C 0.1315(3) 0.4252(3) 0.36322(9)
C3_3 C 0.1496(3) 0.3300(3) 0.39212(10)
H2_3 H 0.1331 0.3474 0.4202
C4_3 C 0.1922(4) 0.2115(4) 0.37977(11)
H3_3 H 0.2057 0.1431 0.3990
C5_3 C 0.2163(4) 0.1900(3) 0.33937(11)
H4_3 H 0.2444 0.1058 0.3307
C6_3 C 0.0484(3) 0.6382(3) 0.34844(8)
H5_3 H 0.1196 0.6656 0.3318
C7_4 C -0.0000 0.7500 0.3750
N1_3 N 0.2007(3) 0.2822(2) 0.31146(8)
N2_3 N 0.3985(3) 0.1157(3) 0.26968(8)
N3_3 N 0.5069(2) 0.1051(2) 0.26082(7)
N4_3 N 0.6166(3) 0.0898(3) 0.25187(8)
O1_3 O 0.0888(3) 0.5412(2) 0.37682(6)
H12_3 H 0.0198 0.8941 0.3314
C14_3 C 0.3516(3) 0.9086(3) 0.42640(9)
H13_3 H 0.2849 0.8967 0.4463
C15_3 C 0.3248(3) 0.8815(3) 0.38678(9)
C16_3 C 0.4200(3) 0.8996(3) 0.35788(10)
H14_3 H 0.4026 0.8831 0.3298
C17_3 C 0.5385(4) 0.9422(4) 0.37023(11)
H15_3 H 0.6069 0.9557 0.3510
C18_3 C 0.5600(3) 0.9663(4) 0.41063(11)
H16_3 H 0.6442 0.9944 0.4193
C19_3 C 0.1118(3) 0.7984(3) 0.40156(8)
H17_3 H 0.0844 0.8696 0.4182
H18_3 H 0.1441 0.7302 0.4186
O3_3 O 0.2088(2) 0.8388(3) 0.37318(6)
N8_3 N 0.6015(3) 0.3843(3) 0.26968(8)
N9_3 N 0.4931(2) 0.3949(2) 0.26082(7)
N10_3 N 0.3834(3) 0.4102(3) 0.25187(8)
N11_3 N 0.1015(3) 0.3843(3) 0.23032(8)
N15_3 N 0.0069(2) 0.1051(2) 0.23918(7)
N16_3 N 0.1166(3) 0.0898(3) 0.24813(8)
N17_2 N 0.7993(3) 0.2178(2) 0.31146(8)
N20_2 N 0.8985(3) 0.1157(3) 0.23032(8)
N21_2 N 0.8834(3) 0.4102(3) 0.24813(8)
C8_3 C 0.8414(3) 0.1016(3) 0.32360(9)
H7_3 H 0.8533 0.0349 0.3037
C9_3 C 0.8685(3) 0.0748(3) 0.36322(9)
C10_3 C 0.8504(3) 0.1700(3) 0.39212(10)
H8_3 H 0.8669 0.1526 0.4202
C11_3 C 0.8078(4) 0.2885(4) 0.37977(11)
H9_3 H 0.7943 0.3569 0.3990
C12_3 C 0.7837(4) 0.3100(3) 0.33937(11)
H10_3 H 0.7556 0.3942 0.3307
H6_3 H 0.9802 0.6059 0.3314
C7_5 C 1.0000 0.7500 0.3750
C13_3 C 0.9516(3) 0.8618(3) 0.34844(8)
H11_3 H 0.8804 0.8344 0.3318
O2_3 O 0.9112(3) 0.9588(2) 0.37682(6)
C20_3 C 0.6484(3) 0.5914(3) 0.42640(9)
H19_3 H 0.7151 0.6033 0.4463
C21_3 C 0.6752(3) 0.6185(3) 0.38678(9)
C22_3 C 0.5800(3) 0.6004(3) 0.35788(10)
H20_3 H 0.5974 0.6169 0.3298
C23_3 C 0.4615(4) 0.5578(4) 0.37023(11)
H21_3 H 0.3931 0.5443 0.3510
C24_3 C 0.4400(3) 0.5337(4) 0.41063(11)
H22_3 H 0.3558 0.5056 0.4193
C25_3 C 0.8882(3) 0.7016(3) 0.40156(8)
H23_3 H 0.9156 0.6304 0.4182
H24_3 H 0.8559 0.7698 0.4186
O4_3 O 0.7912(2) 0.6612(3) 0.37318(6)
N12_3 N 0.9931(2) 0.3949(2) 0.23918(7)
C23_4 C 0.0385(4) 0.4422(4) 0.87023(11)
H21_4 H 0.1069 0.4557 0.8510
C24_4 C 0.0600(3) 0.4663(4) 0.91063(11)
H22_4 H 0.1442 0.4944 0.9193
C1_4 C 0.3414(3) 0.6016(3) 0.82360(9)
H1_4 H 0.3533 0.5349 0.8037
C2_4 C 0.3685(3) 0.5748(3) 0.86322(9)
C3_4 C 0.3504(3) 0.6700(3) 0.89212(10)
H2_4 H 0.3669 0.6526 0.9202
C4_4 C 0.3078(4) 0.7885(4) 0.87977(11)
H3_4 H 0.2943 0.8569 0.8990
C5_4 C 0.2837(4) 0.8100(3) 0.83937(11)
H4_4 H 0.2556 0.8942 0.8307
C6_4 C 0.4516(3) 0.3618(3) 0.84844(8)
H5_4 H 0.3804 0.3344 0.8318
H6_4 H 0.5198 0.3941 0.8314
C7_6 C 0.5000 0.2500 0.8750
N1_4 N 0.2993(3) 0.7178(2) 0.81146(8)
N2_4 N 0.1015(3) 0.8843(3) 0.76968(8)
O1_4 O 0.4112(3) 0.4588(2) 0.87682(6)
C13_4 C 0.5484(3) 0.1382(3) 0.84844(8)
H11_4 H 0.6196 0.1656 0.8318
H12_4 H 0.4802 0.1059 0.8314
O2_4 O 0.5888(3) 0.0412(2) 0.87682(6)
C14_4 C 0.1484(3) 0.0914(3) 0.92640(9)
H13_4 H 0.2151 0.1033 0.9463
C15_4 C 0.1752(3) 0.1185(3) 0.88678(9)
C16_4 C 0.0800(3) 0.1004(3) 0.85788(10)
H14_4 H 0.0974 0.1169 0.8298
C19_4 C 0.3882(3) 0.2016(3) 0.90156(8)
H17_4 H 0.4156 0.1304 0.9182
H18_4 H 0.3559 0.2698 0.9186
O3_4 O 0.2912(2) 0.1612(3) 0.87318(6)
C20_4 C 0.8516(3) 0.4086(3) 0.92640(9)
H19_4 H 0.7849 0.3967 0.9463
C21_4 C 0.8248(3) 0.3815(3) 0.88678(9)
C22_4 C 0.9200(3) 0.3996(3) 0.85788(10)
H20_4 H 0.9026 0.3831 0.8298
C25_4 C 0.6118(3) 0.2984(3) 0.90156(8)
H23_4 H 0.5844 0.3696 0.9182
H24_4 H 0.6441 0.2302 0.9186
O4_4 O 0.7088(2) 0.3388(3) 0.87318(6)
N9_4 N 0.0069(2) 0.6051(2) 0.76082(7)
N10_4 N 0.1166(3) 0.5898(3) 0.75187(8)
N11_4 N 0.3985(3) 0.6157(3) 0.73032(8)
N12_4 N 0.5069(2) 0.6051(2) 0.73918(7)
N13_2 N 0.6166(3) 0.5898(3) 0.74813(8)
N14_2 N 0.6015(3) 0.8843(3) 0.73032(8)
N15_4 N 0.4931(2) 0.8949(2) 0.73918(7)
N16_4 N 0.3834(3) 0.9102(3) 0.74813(8)
C8_4 C 0.6586(3) 0.8984(3) 0.82360(9)
H7_4 H 0.6467 0.9651 0.8037
C9_4 C 0.6315(3) 0.9252(3) 0.86322(9)
C10_4 C 0.6496(3) 0.8300(3) 0.89212(10)
H8_4 H 0.6331 0.8474 0.9202
C11_4 C 0.6922(4) 0.7115(4) 0.87977(11)
H9_4 H 0.7057 0.6431 0.8990
C12_4 C 0.7163(4) 0.6900(3) 0.83937(11)
H10_4 H 0.7444 0.6058 0.8307
N5_2 N 0.7007(3) 0.7822(2) 0.81146(8)
N3_4 N 0.9931(2) 0.8949(2) 0.76082(7)
N4_4 N 0.8834(3) 0.9102(3) 0.75187(8)
C17_4 C 0.9615(4) 0.0578(4) 0.87023(11)
H15_4 H 0.8931 0.0443 0.8510
C18_4 C 0.9400(3) 0.0337(4) 0.91063(11)
H16_4 H 0.8558 0.0056 0.9193
N8_4 N 0.8985(3) 0.6157(3) 0.76968(8)
loop_
_geom_bond_atom_site_label_1
_geom_bond_atom_site_label_2
_geom_bond_site_symmetry_1
_geom_bond_site_symmetry_2
H9 C11 1_555 1_555
C12 C11 1_555 1_555
H10 C12 1_555 1_555
C20 H19 1_555 1_555
C21 C20 1_555 1_555
C22 C21 1_555 1_555
H20 C22 1_555 1_555
C23 C22 1_555 1_555
H21 C23 1_555 1_555
C24 C23 1_555 1_555
H22 C24 1_555 1_555
N7 C20 1_555 1_555
Co3 N7 1_555 1_555
C24 N7 1_555 1_555
C1 H1 1_555 1_555
C2 C1 1_555 1_555
C3 C2 1_555 1_555
H2 C3 1_555 1_555
C6 H5 1_555 1_555
H6 C6 1_555 1_555
C7 C6 1_555 1_555
N1 C1 1_555 1_555
O1 C2 1_555 1_555
Co1 N1 1_555 1_555
C8 H7 1_555 1_555
C9 C8 1_555 1_555
C10 C9 1_555 1_555
H8 C10 1_555 1_555
C13 C7 1_555 1_555
H11 C13 1_555 1_555
H12 C13 1_555 1_555
N5 C8 1_555 1_555
O2 C9 1_555 1_555
C14 H13 1_555 1_555
C15 C14 1_555 1_555
C16 C15 1_555 1_555
H14 C16 1_555 1_555
C17 C16 1_555 1_555
H15 C17 1_555 1_555
C18 C17 1_555 1_555
H16 C18 1_555 1_555
C19 C7 1_555 1_555
H17 C19 1_555 1_555
H18 C19 1_555 1_555
N6 C14 1_555 1_555
O3 C15 1_555 1_555
C25 C7 1_555 1_555
H23 C25 1_555 1_555
H24 C25 1_555 1_555
N8 N9 1_555 1_555
N9 N10 1_555 1_555
N10 Co1 1_555 1_555
Co5 N8 1_555 1_555
Co5_7 N5 1_555 1_555
Co6 N6 1_555 1_555
C6 O1 1_555 1_555
C13 O2 1_555 1_555
C18 N6 1_555 1_555
C19 O3 1_555 1_555
C25 O4 1_555 1_555
N11 Co1_2 1_555 1_555
N12 N11 1_555 1_555
N13 N12 1_555 1_555
N19 Co5_2 1_555 1_555
Co5_4 N13 1_555 1_555
H3 C4 1_555 1_555
C5 C4 1_555 1_555
H4 C5 1_555 1_555
N2 N3 1_555 1_555
N3 N4 1_555 1_555
N4 Co5_5 1_555 1_555
N2 Co1_3 1_555 1_555
N14 N15 1_555 1_555
N15 N16 1_555 1_555
N16 Co1_4 1_555 1_555
N18 Co1_4 1_555 1_555
N14 Co5_8 1_555 1_555
N17 Co2 1_555 1_555
N20 Co2 1_555 1_555
N21 Co2 1_555 1_555
C1_2 H1_2 1_555 1_555
C2_2 C1_2 1_555 1_555
C3_2 C2_2 1_555 1_555
H2_2 C3_2 1_555 1_555
C4_2 C3_2 1_555 1_555
H3_2 C4_2 1_555 1_555
C5_2 C4_2 1_555 1_555
H4_2 C5_2 1_555 1_555
C6_2 H5_2 1_555 1_555
H6_2 C6_2 1_555 1_555
C7_2 C6_2 1_555 1_555
N1_2 C1_2 1_555 1_555
N2_2 N3_2 1_555 1_555
N3_2 N4_2 1_555 1_555
N4_2 Co2_2 1_555 1_555
O1_2 C2_2 1_555 1_555
Co1_5 N1_2 1_555 1_555
C25_2 C7_2 1_555 1_555
H23_2 C25_2 1_555 1_555
N8_2 N9_2 1_555 1_555
N9_2 N10_2 1_555 1_555
N10_2 Co1_5 1_555 1_555
Co2_2 N8_2 1_555 1_555
N11_2 Co1_5 1_555 1_555
N12_2 N11_2 1_555 1_555
N21 N12_2 1_555 1_555
N20 N15_2 1_555 1_555
N15_2 N16_2 1_555 1_555
N16_2 Co1_5 1_555 1_555
N18_2 Co1_5 1_555 1_555
N19_2 Co2_2 1_555 1_555
C5_2 N1_2 1_555 1_555
C6_2 O1_2 1_555 1_555
N2_2 Co1_5 1_555 1_555
C25_2 O4_2 1_555 1_555
C20_2 H19_2 1_555 1_555
C21_2 C20_2 1_555 1_555
C22_2 C21_2 1_555 1_555
H20_2 C22_2 1_555 1_555
C23_2 C22_2 1_555 1_555
H21_2 C23_2 1_555 1_555
C24_2 C23_2 1_555 1_555
H22_2 C24_2 1_555 1_555
N7_2 C20_2 1_555 1_555
Co3_2 N7_2 1_555 1_555
C24_2 N7_2 1_555 1_555
C8_2 H7_2 1_555 1_555
C9_2 C8_2 1_555 1_555
C10_2 C9_2 1_555 1_555
H8_2 C10_2 1_555 1_555
C11_2 C10_2 1_555 1_555
H9_2 C11_2 1_555 1_555
C12_2 C11_2 1_555 1_555
H10_2 C12_2 1_555 1_555
C13_2 C7_3 1_555 1_555
H11_2 C13_2 1_555 1_555
H12_2 C13_2 1_555 1_555
N17 C8_2 1_555 1_555
O2_2 C9_2 1_555 1_555
C14_2 H13_2 1_555 1_555
C15_2 C14_2 1_555 1_555
C16_2 C15_2 1_555 1_555
H14_2 C16_2 1_555 1_555
C17_2 C16_2 1_555 1_555
H15_2 C17_2 1_555 1_555
C18_2 C17_2 1_555 1_555
H16_2 C18_2 1_555 1_555
C19_2 C7_3 1_555 1_555
H17_2 C19_2 1_555 1_555
N6_2 C14_2 1_555 1_555
O3_2 C15_2 1_555 1_555
Co6_2 N6_2 1_555 1_555
C12_2 N17 1_555 1_555
C13_2 O2_2 1_555 1_555
C18_2 N6_2 1_555 1_555
C19_2 O3_2 1_555 1_555
C1_3 H1_3 1_555 1_555
C2_3 C1_3 1_555 1_555
C3_3 C2_3 1_555 1_555
H2_3 C3_3 1_555 1_555
C4_3 C3_3 1_555 1_555
H3_3 C4_3 1_555 1_555
C5_3 C4_3 1_555 1_555
H4_3 C5_3 1_555 1_555
C6_3 H5_3 1_555 1_555
C7_4 C6_3 1_555 1_555
N1_3 C1_3 1_555 1_555
N2_3 N3_3 1_555 1_555
N3_3 N4_3 1_555 1_555
N4_3 Co6 1_555 1_555
O1_3 C2_3 1_555 1_555
Co3 N1_3 1_555 1_555
C14_3 H13_3 1_555 1_555
C15_3 C14_3 1_555 1_555
C16_3 C15_3 1_555 1_555
H14_3 C16_3 1_555 1_555
C17_3 C16_3 1_555 1_555
H15_3 C17_3 1_555 1_555
C18_3 C17_3 1_555 1_555
H16_3 C18_3 1_555 1_555
C19_3 C7_4 1_555 1_555
H17_3 C19_3 1_555 1_555
H18_3 C19_3 1_555 1_555
N19_2 C14_3 1_555 1_555
O3_3 C15_3 1_555 1_555
N8_3 N9_3 1_555 1_555
N9_3 N10_3 1_555 1_555
N10_3 Co3 1_555 1_555
Co6 N8_3 1_555 1_555
N11_3 Co3 1_555 1_555
N15_3 N16_3 1_555 1_555
N16_3 Co3 1_555 1_555
N17_2 Co6 1_555 1_555
N20_2 Co6 1_555 1_555
N21_2 Co6 1_555 1_555
C5_3 N1_3 1_555 1_555
C6_3 O1_3 1_555 1_555
N2_3 Co3 1_555 1_555
C18_3 N19_2 1_555 1_555
C19_3 O3_3 1_555 1_555
C8_3 H7_3 1_555 1_555
C9_3 C8_3 1_555 1_555
C10_3 C9_3 1_555 1_555
H8_3 C10_3 1_555 1_555
C11_3 C10_3 1_555 1_555
H9_3 C11_3 1_555 1_555
C12_3 C11_3 1_555 1_555
H10_3 C12_3 1_555 1_555
N17_2 C8_3 1_555 1_555
C12_3 N17_2 1_555 1_555
C13_3 C7_5 1_555 1_555
H11_3 C13_3 1_555 1_555
C20_3 H19_3 1_555 1_555
C21_3 C20_3 1_555 1_555
C22_3 C21_3 1_555 1_555
H20_3 C22_3 1_555 1_555
C23_3 C22_3 1_555 1_555
H21_3 C23_3 1_555 1_555
C24_3 C23_3 1_555 1_555
H22_3 C24_3 1_555 1_555
C25_3 C7_5 1_555 1_555
H23_3 C25_3 1_555 1_555
H24_3 C25_3 1_555 1_555
N18_2 C20_3 1_555 1_555
O4_3 C21_3 1_555 1_555
N21_2 N12_3 1_555 1_555
C13_3 O2_3 1_555 1_555
C24_3 N18_2 1_555 1_555
C25_3 O4_3 1_555 1_555
H21_4 C23_4 1_555 1_555
C24_4 C23_4 1_555 1_555
H22_4 C24_4 1_555 1_555
C1_4 H1_4 1_555 1_555
C2_4 C1_4 1_555 1_555
C3_4 C2_4 1_555 1_555
H2_4 C3_4 1_555 1_555
C4_4 C3_4 1_555 1_555
H3_4 C4_4 1_555 1_555
C5_4 C4_4 1_555 1_555
H4_4 C5_4 1_555 1_555
C6_4 H5_4 1_555 1_555
H6_4 C6_4 1_555 1_555
C7_6 C6_4 1_555 1_555
N1_4 C1_4 1_555 1_555
O1_4 C2_4 1_555 1_555
Co3_2 N1_4 1_555 1_555
C13_4 C7_6 1_555 1_555
H11_4 C13_4 1_555 1_555
H12_4 C13_4 1_555 1_555
C14_4 H13_4 1_555 1_555
C15_4 C14_4 1_555 1_555
C16_4 C15_4 1_555 1_555
H14_4 C16_4 1_555 1_555
C19_4 C7_6 1_555 1_555
H17_4 C19_4 1_555 1_555
H18_4 C19_4 1_555 1_555
N19 C14_4 1_555 1_555
O3_4 C15_4 1_555 1_555
C20_4 H19_4 1_555 1_555
C21_4 C20_4 1_555 1_555
C22_4 C21_4 1_555 1_555
H20_4 C22_4 1_555 1_555
C25_4 C7_6 1_555 1_555
H23_4 C25_4 1_555 1_555
H24_4 C25_4 1_555 1_555
N18 C20_4 1_555 1_555
O4_4 C21_4 1_555 1_555
N9_4 N10_4 1_555 1_555
N10_4 Co3_2 1_555 1_555
N11_4 Co3_2 1_555 1_555
N12_4 N11_4 1_555 1_555
N13_2 N12_4 1_555 1_555
N14_2 N15_4 1_555 1_555
N15_4 N16_4 1_555 1_555
N16_4 Co3_2 1_555 1_555
Co6_2 N13_2 1_555 1_555
C5_4 N1_4 1_555 1_555
C6_4 O1_4 1_555 1_555
N2_4 Co3_2 1_555 1_555
C13_4 O2_4 1_555 1_555
C19_4 O3_4 1_555 1_555
C25_4 O4_4 1_555 1_555
N14_2 Co6_2 1_555 1_555
C8_4 H7_4 1_555 1_555
C9_4 C8_4 1_555 1_555
C10_4 C9_4 1_555 1_555
H8_4 C10_4 1_555 1_555
C11_4 C10_4 1_555 1_555
H9_4 C11_4 1_555 1_555
C12_4 C11_4 1_555 1_555
H10_4 C12_4 1_555 1_555
N5_2 C8_4 1_555 1_555
Co6_2 N5_2 1_555 1_555
C12_4 N5_2 1_555 1_555
N3_4 N4_4 1_555 1_555
N4_4 Co6_2 1_555 1_555
H15_4 C17_4 1_555 1_555
C18_4 C17_4 1_555 1_555
H16_4 C18_4 1_555 1_555
Co6_2 N8_4 1_555 1_555

#END
