
###############################################################################
#
# This file contains modified crystal structure data generated from the
# MOF subset of the Cambridge Structural Database (CSD) v543 
# hosted by the Cambridge Crystallographic Data Centre (CCDC).
#
# This work is licensed under the Creative Commons
# Attribution-NonCommercial-ShareAlike 4.0 International License.
# To view a copy of this license, visit
# http://creativecommons.org/licenses/by-nc-sa/4.0/
# or send a letter to
# Creative Commons, PO Box 1866, Mountain View, CA 94042, USA.
#
# CIF created using the CSD Python API on 29 September 2022
# The structure has been converted into the P1 space group
# The structure has a 3D framework
# The original CSD entry FOMMUS is in the orthorhombic crystal system
# The framework has been calculated to contain at least 10.0% void space
# The void calculation uses a probe of radius 1.32A, grid spacing 0.4
# H atom positions have been added when not included in the experimental data
#
###############################################################################

data_FOMMUS
_chemical_formula_moiety         '(C64 H32 Al5 N16 O19)n'
_symmetry_cell_setting           triclinic
_symmetry_space_group_name_H-M   'P 1'
_symmetry_Int_Tables_number      1
_space_group_name_Hall           'P 1'
loop_
_symmetry_equiv_pos_site_id
_symmetry_equiv_pos_as_xyz
1 x,y,z
_cell_length_a                   32.1321(12)
_cell_length_b                   6.2599(2)
_cell_length_c                   21.8239(9)
_cell_angle_alpha                90
_cell_angle_beta                 90
_cell_angle_gamma                90
_cell_volume                     4389.74
loop_
_atom_site_label
_atom_site_type_symbol
_atom_site_fract_x
_atom_site_fract_y
_atom_site_fract_z
_atom_site_U_iso_or_equiv
_atom_site_thermal_displace_type
Al2 Al -0.000 0.000 -0 0.0127 Uiso
Al2_2 Al -0.000 0.000 1 0.0127 Uiso
Al3 Al 0.500 0.000 0.5 0.0127 Uiso
H1 H 0.116984 0.0762369 0.910202 . .
H3 H 0.169142 0.0873225 0.820407 . .
H6 H 0.383016 0.0762369 0.589798 . .
H8 H 0.330858 0.0873225 0.679593 . .
Al1 Al -0.000 0.500 -0 0.0127 Uiso
O2 O -0.000 0.750 0.0378 0.0380 Uiso
O6 O 0.047 0.4298 0.0495 0.0380 Uiso
Al2_3 Al -0.000 1.000 -0 0.0127 Uiso
O1 O 0.047 0.5702 0.9505 0.0380 Uiso
N1 N 0.2282 0.5715 0.7606 0.0380 Uiso
C1 C 0.123 0.9337 0.883 0.0380 Uiso
C2 C 0.1559 0.9356 0.8351 0.0380 Uiso
Al1_2 Al -0.000 0.500 1 0.0127 Uiso
C3 C 0.2068 0.750 0.769 0.0380 Uiso
C4 C 0.1698 0.750 0.8092 0.0380 Uiso
C5 C 0.1001 0.750 0.8928 0.0380 Uiso
C6 C 0.0608 0.750 0.9319 0.0380 Uiso
O3 O 0.047 0.9298 0.9505 0.0380 Uiso
N2 N 0.2282 0.9285 0.7606 0.0380 Uiso
C7 C 0.123 0.5663 0.883 0.0380 Uiso
C8 C 0.1559 0.5644 0.8351 0.0380 Uiso
O4 O 0.453 0.5702 0.5495 0.0380 Uiso
N3 N 0.2718 0.5715 0.7394 0.0380 Uiso
C9 C 0.377 0.9337 0.617 0.0380 Uiso
C10 C 0.3441 0.9356 0.6649 0.0380 Uiso
C11 C 0.2932 0.750 0.731 0.0380 Uiso
C12 C 0.3302 0.750 0.6908 0.0380 Uiso
C13 C 0.3999 0.750 0.6072 0.0380 Uiso
C14 C 0.4392 0.750 0.5681 0.0380 Uiso
O5 O 0.453 0.9298 0.5495 0.0380 Uiso
N4 N 0.2718 0.9285 0.7394 0.0380 Uiso
C15 C 0.377 0.5663 0.617 0.0380 Uiso
C16 C 0.3441 0.5644 0.6649 0.0380 Uiso
Al2_4 Al -0.000 1.000 1 0.0127 Uiso
Al3_2 Al 0.500 1.000 0.5 0.0127 Uiso
Al4 Al 0.500 0.500 0.5 0.0127 Uiso
O9 O -0.000 0.250 0.9622 0.0380 Uiso
H2 H 0.169142 0.412677 0.820407 . .
H4 H 0.116984 0.423763 0.910202 . .
H5 H 0.383016 0.423763 0.589798 . .
H7 H 0.330858 0.412677 0.679593 . .
Al2_5 Al 1.000 0.000 -0 0.0127 Uiso
Al2_6 Al 1.000 0.000 1 0.0127 Uiso
Al1_3 Al 1.000 0.500 -0 0.0127 Uiso
O2_2 O 1.000 0.750 0.0378 0.0380 Uiso
O7 O 0.953 0.4298 0.0495 0.0380 Uiso
Al2_7 Al 1.000 1.000 -0 0.0127 Uiso
Al1_4 Al 1.000 0.500 1 0.0127 Uiso
O8 O 0.953 0.5702 0.9505 0.0380 Uiso
Al2_8 Al 1.000 1.000 1 0.0127 Uiso
O9_2 O 1.000 0.250 0.9622 0.0380 Uiso
O7_2 O 0.047 0.0702 0.0495 0.0380 Uiso
O6_2 O 0.953 0.0702 0.0495 0.0380 Uiso
H2_2 H 0.830858 0.0873225 0.820407 . .
H4_2 H 0.883016 0.0762369 0.910202 . .
H5_2 H 0.616984 0.0762369 0.589798 . .
H7_2 H 0.669142 0.0873225 0.679593 . .
O1_2 O 0.953 0.9298 0.9505 0.0380 Uiso
N1_2 N 0.7718 0.9285 0.7606 0.0380 Uiso
C1_2 C 0.877 0.5663 0.883 0.0380 Uiso
C2_2 C 0.8441 0.5644 0.8351 0.0380 Uiso
C3_2 C 0.7932 0.750 0.769 0.0380 Uiso
C4_2 C 0.8302 0.750 0.8092 0.0380 Uiso
C5_2 C 0.8999 0.750 0.8928 0.0380 Uiso
C6_2 C 0.9392 0.750 0.9319 0.0380 Uiso
N2_2 N 0.7718 0.5715 0.7606 0.0380 Uiso
C7_2 C 0.877 0.9337 0.883 0.0380 Uiso
C8_2 C 0.8441 0.9356 0.8351 0.0380 Uiso
O4_2 O 0.547 0.9298 0.5495 0.0380 Uiso
N3_2 N 0.7282 0.9285 0.7394 0.0380 Uiso
C9_2 C 0.623 0.5663 0.617 0.0380 Uiso
C10_2 C 0.6559 0.5644 0.6649 0.0380 Uiso
C11_2 C 0.7068 0.750 0.731 0.0380 Uiso
C12_2 C 0.6698 0.750 0.6908 0.0380 Uiso
C13_2 C 0.6001 0.750 0.6072 0.0380 Uiso
C14_2 C 0.5608 0.750 0.5681 0.0380 Uiso
O5_2 O 0.547 0.5702 0.5495 0.0380 Uiso
N4_2 N 0.7282 0.5715 0.7394 0.0380 Uiso
C15_2 C 0.623 0.9337 0.617 0.0380 Uiso
C16_2 C 0.6559 0.9356 0.6649 0.0380 Uiso
H1_2 H 0.883016 0.423763 0.910202 . .
H3_2 H 0.830858 0.412677 0.820407 . .
H6_2 H 0.616984 0.423763 0.589798 . .
H8_2 H 0.669142 0.412677 0.679593 . .
N1_3 N 0.7718 0.0715 0.2394 0.0380 Uiso
C1_3 C 0.877 0.4337 0.117 0.0380 Uiso
C2_3 C 0.8441 0.4356 0.1649 0.0380 Uiso
C3_3 C 0.7932 0.250 0.231 0.0380 Uiso
C4_3 C 0.8302 0.250 0.1908 0.0380 Uiso
C5_3 C 0.8999 0.250 0.1072 0.0380 Uiso
C6_3 C 0.9392 0.250 0.0681 0.0380 Uiso
N2_3 N 0.7718 0.4285 0.2394 0.0380 Uiso
C7_3 C 0.877 0.0663 0.117 0.0380 Uiso
C8_3 C 0.8441 0.0644 0.1649 0.0380 Uiso
O4_3 O 0.547 0.0702 0.4505 0.0380 Uiso
N3_3 N 0.7282 0.0715 0.2606 0.0380 Uiso
C9_3 C 0.623 0.4337 0.383 0.0380 Uiso
C10_3 C 0.6559 0.4356 0.3351 0.0380 Uiso
C11_3 C 0.7068 0.250 0.269 0.0380 Uiso
C12_3 C 0.6698 0.250 0.3092 0.0380 Uiso
C13_3 C 0.6001 0.250 0.3928 0.0380 Uiso
C14_3 C 0.5608 0.250 0.4319 0.0380 Uiso
O5_3 O 0.547 0.4298 0.4505 0.0380 Uiso
N4_3 N 0.7282 0.4285 0.2606 0.0380 Uiso
C15_3 C 0.623 0.0663 0.383 0.0380 Uiso
C16_3 C 0.6559 0.0644 0.3351 0.0380 Uiso
H1_3 H 0.883016 0.576237 0.0897983 . .
H3_3 H 0.830858 0.587323 0.179593 . .
H6_3 H 0.616984 0.576237 0.410202 . .
H8_3 H 0.669142 0.587323 0.320407 . .
H2_3 H 0.830858 0.912677 0.179593 . .
H4_3 H 0.883016 0.923763 0.0897983 . .
H5_3 H 0.616984 0.923763 0.410202 . .
H7_3 H 0.669142 0.912677 0.320407 . .
N1_4 N 0.2282 0.4285 0.2394 0.0380 Uiso
C1_4 C 0.123 0.0663 0.117 0.0380 Uiso
C2_4 C 0.1559 0.0644 0.1649 0.0380 Uiso
C3_4 C 0.2068 0.250 0.231 0.0380 Uiso
C4_4 C 0.1698 0.250 0.1908 0.0380 Uiso
C5_4 C 0.1001 0.250 0.1072 0.0380 Uiso
C6_4 C 0.0608 0.250 0.0681 0.0380 Uiso
N2_4 N 0.2282 0.0715 0.2394 0.0380 Uiso
C7_4 C 0.123 0.4337 0.117 0.0380 Uiso
C8_4 C 0.1559 0.4356 0.1649 0.0380 Uiso
O4_4 O 0.453 0.4298 0.4505 0.0380 Uiso
N3_4 N 0.2718 0.4285 0.2606 0.0380 Uiso
C9_4 C 0.377 0.0663 0.383 0.0380 Uiso
C10_4 C 0.3441 0.0644 0.3351 0.0380 Uiso
C11_4 C 0.2932 0.250 0.269 0.0380 Uiso
C12_4 C 0.3302 0.250 0.3092 0.0380 Uiso
C13_4 C 0.3999 0.250 0.3928 0.0380 Uiso
C14_4 C 0.4392 0.250 0.4319 0.0380 Uiso
O5_4 O 0.453 0.0702 0.4505 0.0380 Uiso
N4_4 N 0.2718 0.0715 0.2606 0.0380 Uiso
C15_4 C 0.377 0.4337 0.383 0.0380 Uiso
C16_4 C 0.3441 0.4356 0.3351 0.0380 Uiso
H2_4 H 0.169142 0.587323 0.179593 . .
H4_4 H 0.116984 0.576237 0.0897983 . .
H5_4 H 0.383016 0.576237 0.410202 . .
H7_4 H 0.330858 0.587323 0.320407 . .
H1_4 H 0.116984 0.923763 0.0897983 . .
H3_4 H 0.169142 0.912677 0.179593 . .
H6_4 H 0.383016 0.923763 0.410202 . .
H8_4 H 0.330858 0.912677 0.320407 . .
O2_3 O 0.500 0.250 0.5378 0.0380 Uiso
O9_3 O 0.500 0.750 0.4622 0.0380 Uiso
loop_
_geom_bond_atom_site_label_1
_geom_bond_atom_site_label_2
_geom_bond_site_symmetry_1
_geom_bond_site_symmetry_2
Al1 O2 1_555 1_555
O2 Al2_3 1_555 1_555
O6 Al1 1_555 1_555
O1 Al1_2 1_555 1_555
N1 C3 1_555 1_555
C1 C2 1_555 1_555
C2 C4 1_555 1_555
C3 C4 1_555 1_555
C4 C8 1_555 1_555
C5 C1 1_555 1_555
C6 O1 1_555 1_555
O3 C6 1_555 1_555
N2 C3 1_555 1_555
C7 C5 1_555 1_555
C8 C7 1_555 1_555
O4 C14 1_555 1_555
N3 N1 1_555 1_555
C9 C10 1_555 1_555
C10 C12 1_555 1_555
C11 N3 1_555 1_555
C12 C11 1_555 1_555
C13 C9 1_555 1_555
C14 C13 1_555 1_555
O5 C14 1_555 1_555
N4 N2 1_555 1_555
C15 C13 1_555 1_555
C16 C12 1_555 1_555
Al2_4 O3 1_555 1_555
Al3_2 O5 1_555 1_555
Al4 O4 1_555 1_555
O9 Al1_2 1_555 1_555
C5 C6 1_555 1_555
C11 N4 1_555 1_555
C15 C16 1_555 1_555
C8 H2 1_555 1_555
C7 H4 1_555 1_555
C15 H5 1_555 1_555
C16 H7 1_555 1_555
Al1_3 O2_2 1_555 1_555
O2_2 Al2_7 1_555 1_555
O7 Al1_3 1_555 1_555
O8 Al1_4 1_555 1_555
O9_2 Al1_4 1_555 1_555
O7_2 Al2 1_555 1_555
O9 Al2_2 1_555 1_555
O6_2 Al2_5 1_555 1_555
O9_2 Al2_6 1_555 1_555
O1_2 Al2_8 1_555 1_555
N1_2 C3_2 1_555 1_555
C1_2 C2_2 1_555 1_555
C2_2 C4_2 1_555 1_555
C3_2 C4_2 1_555 1_555
C4_2 C8_2 1_555 1_555
C5_2 C1_2 1_555 1_555
C6_2 O1_2 1_555 1_555
O8 C6_2 1_555 1_555
N2_2 C3_2 1_555 1_555
C7_2 C5_2 1_555 1_555
C8_2 C7_2 1_555 1_555
O4_2 C14_2 1_555 1_555
N3_2 N1_2 1_555 1_555
C9_2 C10_2 1_555 1_555
C10_2 C12_2 1_555 1_555
C11_2 N3_2 1_555 1_555
C12_2 C11_2 1_555 1_555
C13_2 C9_2 1_555 1_555
C14_2 C13_2 1_555 1_555
O5_2 C14_2 1_555 1_555
N4_2 N2_2 1_555 1_555
C15_2 C13_2 1_555 1_555
C16_2 C12_2 1_555 1_555
Al4 O5_2 1_555 1_555
Al3_2 O4_2 1_555 1_555
C5_2 C6_2 1_555 1_555
C11_2 N4_2 1_555 1_555
C15_2 C16_2 1_555 1_555
C1_2 H1_2 1_555 1_555
C2_2 H3_2 1_555 1_555
C9_2 H6_2 1_555 1_555
C10_2 H8_2 1_555 1_555
N1_3 C3_3 1_555 1_555
C1_3 C2_3 1_555 1_555
C2_3 C4_3 1_555 1_555
C3_3 C4_3 1_555 1_555
C4_3 C8_3 1_555 1_555
C5_3 C1_3 1_555 1_555
C6_3 O6_2 1_555 1_555
O7 C6_3 1_555 1_555
N2_3 C3_3 1_555 1_555
C7_3 C5_3 1_555 1_555
C8_3 C7_3 1_555 1_555
O4_3 C14_3 1_555 1_555
N3_3 N1_3 1_555 1_555
C9_3 C10_3 1_555 1_555
C10_3 C12_3 1_555 1_555
C11_3 N3_3 1_555 1_555
C12_3 C11_3 1_555 1_555
C13_3 C9_3 1_555 1_555
C14_3 C13_3 1_555 1_555
O5_3 C14_3 1_555 1_555
N4_3 N2_3 1_555 1_555
C15_3 C13_3 1_555 1_555
C16_3 C12_3 1_555 1_555
Al4 O5_3 1_555 1_555
Al3 O4_3 1_555 1_555
C5_3 C6_3 1_555 1_555
C11_3 N4_3 1_555 1_555
C15_3 C16_3 1_555 1_555
C1_3 H1_3 1_555 1_555
C2_3 H3_3 1_555 1_555
C9_3 H6_3 1_555 1_555
C10_3 H8_3 1_555 1_555
N1_4 C3_4 1_555 1_555
C1_4 C2_4 1_555 1_555
C2_4 C4_4 1_555 1_555
C3_4 C4_4 1_555 1_555
C4_4 C8_4 1_555 1_555
C5_4 C1_4 1_555 1_555
C6_4 O6 1_555 1_555
O7_2 C6_4 1_555 1_555
N2_4 C3_4 1_555 1_555
C7_4 C5_4 1_555 1_555
C8_4 C7_4 1_555 1_555
O4_4 C14_4 1_555 1_555
N3_4 N1_4 1_555 1_555
C9_4 C10_4 1_555 1_555
C10_4 C12_4 1_555 1_555
C11_4 N3_4 1_555 1_555
C12_4 C11_4 1_555 1_555
C13_4 C9_4 1_555 1_555
C14_4 C13_4 1_555 1_555
O5_4 C14_4 1_555 1_555
N4_4 N2_4 1_555 1_555
C15_4 C13_4 1_555 1_555
C16_4 C12_4 1_555 1_555
Al3 O5_4 1_555 1_555
Al4 O4_4 1_555 1_555
C5_4 C6_4 1_555 1_555
C11_4 N4_4 1_555 1_555
C15_4 C16_4 1_555 1_555
C8_4 H2_4 1_555 1_555
C7_4 H4_4 1_555 1_555
C15_4 H5_4 1_555 1_555
C16_4 H7_4 1_555 1_555
Al3 O2_3 1_555 1_555
O2_3 Al4 1_555 1_555
O9_3 Al3_2 1_555 1_555
O9_3 Al4 1_555 1_555

#END
