
###############################################################################
#
# This file contains modified crystal structure data generated from the
# MOF subset of the Cambridge Structural Database (CSD) v543 
# hosted by the Cambridge Crystallographic Data Centre (CCDC).
#
# This work is licensed under the Creative Commons
# Attribution-NonCommercial-ShareAlike 4.0 International License.
# To view a copy of this license, visit
# http://creativecommons.org/licenses/by-nc-sa/4.0/
# or send a letter to
# Creative Commons, PO Box 1866, Mountain View, CA 94042, USA.
#
# CIF created using the CSD Python API on 29 September 2022
# The structure has been converted into the P1 space group
# The structure has a 3D framework
# The original CSD entry FONKEA is in the monoclinic crystal system
# The framework has been calculated to contain at least 10.0% void space
# The void calculation uses a probe of radius 1.32A, grid spacing 0.4
#
###############################################################################

data_FONKEA
_chemical_formula_moiety         '(C120 H88 Cd14 O60)n'
_symmetry_cell_setting           triclinic
_symmetry_space_group_name_H-M   'P 1'
_symmetry_Int_Tables_number      1
_space_group_name_Hall           'P 1'
loop_
_symmetry_equiv_pos_site_id
_symmetry_equiv_pos_as_xyz
1 x,y,z
_cell_length_a                   29.778(2)
_cell_length_b                   6.6754(5)
_cell_length_c                   19.4782(14)
_cell_angle_alpha                90
_cell_angle_beta                 113.6230(10)
_cell_angle_gamma                90
_cell_volume                     3547.42
loop_
_atom_site_label
_atom_site_type_symbol
_atom_site_fract_x
_atom_site_fract_y
_atom_site_fract_z
C1 C 0.40053(19) 0.0389(8) 0.6463(3)
O2 O 0.42071(13) 0.2032(6) 0.6722(2)
C2 C 0.3483(2) 0.0311(7) 0.5917(3)
O3 O 0.47695(14) 0.1309(7) 0.3410(2)
C3 C 0.2631(2) 0.0342(8) 0.5704(3)
H1 H 0.2389 0.0481 0.5888
O6 O 0.16506(14) 0.0002(6) 0.4685(2)
H4 H 0.0390 0.0901 0.4130
C8 C 0.3122(2) 0.0524(8) 0.6185(3)
H5 H 0.3208 0.0791 0.6690
C13 C 0.4338(2) 0.1379(9) 0.4474(3)
H10 H 0.4521 0.2507 0.4470
C14 C 0.4030(2) 0.1427(10) 0.4851(3)
H11 H 0.4022 0.2563 0.5122
O11 O 0.52305(14) 0.1309(7) 0.1590(2)
O14 O 0.83494(14) 0.0002(6) 0.0315(2)
H15 H 0.9610 0.0901 0.0870
C28 C 0.5662(2) 0.1379(9) 0.0526(3)
H21 H 0.5479 0.2507 0.0530
C29 C 0.5970(2) 0.1427(10) 0.0149(3)
Cd5 Cd 0.5000 0.03777(8) 0.7500
Cd7 Cd 0.396618(14) 0.54146(6) 0.64673(3)
O17 O 0.57637(13) 0.1230(6) 0.3322(2)
O18 O 0.42363(13) 0.1230(6) 0.1678(2)
O23 O 0.07929(13) 0.2968(6) 0.3278(2)
O24 O 0.92071(13) 0.2968(6) 0.1722(2)
C16 C 0.59947(19) 0.0389(8) 0.8537(3)
O10 O 0.57929(13) 0.2032(6) 0.8278(2)
C17 C 0.6517(2) 0.0311(7) 0.9083(3)
C18 C 0.7369(2) 0.0342(8) 0.9296(3)
H12 H 0.7611 0.0481 0.9112
C23 C 0.6878(2) 0.0524(8) 0.8815(3)
H16 H 0.6792 0.0791 0.8310
H22 H 0.5978 0.2563 0.9878
Cd9 Cd 0.603382(14) 0.54146(6) 0.85327(3)
Cd1 Cd 0.5000 0.96223(8) 0.2500
Cd2 Cd 0.103382(14) 0.95854(6) 0.35327(3)
O1 O 0.42363(13) 0.8770(6) 0.6678(2)
O4 O 0.47708(15) 0.8015(7) 0.3410(2)
O5 O 0.18629(15) 0.9495(7) 0.3746(2)
C4 C 0.2504(2) 0.9956(8) 0.4955(3)
C5 C 0.2864(2) 0.9768(8) 0.4685(3)
H2 H 0.2776 0.9521 0.4178
C6 C 0.3359(2) 0.9940(8) 0.5158(3)
O7 O 0.03863(19) 0.9662(7) 0.3877(4)
H3 H 0.0412 0.8561 0.4208
C7 C 0.19761(19) 0.9802(7) 0.4429(3)
O8 O 0.0831(2) 0.9489(8) 0.2298(3)
H6 H 0.1046 0.9510 0.2079
H7 H 0.0482 0.9412 0.2040
C9 C 0.37340(19) 0.9795(8) 0.4831(3)
C10 C 0.3776(3) 0.8081(10) 0.4460(4)
H8 H 0.3587 0.6963 0.4449
C11 C 0.4097(3) 0.8017(10) 0.4107(4)
H9 H 0.4126 0.6846 0.3868
C12 C 0.4376(2) 0.9667(8) 0.4104(3)
C15 C 0.46617(19) 0.9657(9) 0.3623(3)
Cd3 Cd 0.896618(14) 0.95854(6) 0.14673(3)
O12 O 0.52292(15) 0.8015(7) 0.1590(2)
O13 O 0.81371(15) 0.9495(7) 0.1254(2)
C19 C 0.7496(2) 0.9956(8) 0.0045(3)
C20 C 0.7136(2) 0.9768(8) 0.0315(3)
H13 H 0.7224 0.9521 0.0822
O15 O 0.96137(19) 0.9662(7) 0.1123(4)
H14 H 0.9588 0.8561 0.0792
C22 C 0.80239(19) 0.9802(7) 0.0571(3)
O16 O 0.9169(2) 0.9489(8) 0.2702(3)
H17 H 0.8954 0.9510 0.2921
H18 H 0.9518 0.9412 0.2960
C24 C 0.62660(19) 0.9795(8) 0.0169(3)
C25 C 0.6224(3) 0.8081(10) 0.0540(4)
H19 H 0.6413 0.6963 0.0551
C26 C 0.5903(3) 0.8017(10) 0.0893(4)
H20 H 0.5874 0.6846 0.1132
C27 C 0.5624(2) 0.9667(8) 0.0896(3)
C30 C 0.53383(19) 0.9657(9) 0.1377(3)
O19 O 0.07637(13) 0.6230(6) 0.3322(2)
O20 O 0.92363(13) 0.6230(6) 0.1678(2)
O21 O 0.57929(13) 0.7968(6) 0.3278(2)
O22 O 0.42071(13) 0.7968(6) 0.1722(2)
O9 O 0.57637(13) 0.8770(6) 0.8322(2)
C21 C 0.6641(2) 0.9940(8) 0.9842(3)
Cd9_2 Cd 0.103382(14) 0.04146(6) 0.85327(3)
Cd1_2 Cd 0.0000 0.46223(8) 0.2500
Cd3_2 Cd 0.396618(14) 0.45854(6) 0.14673(3)
O11_2 O 0.02305(14) 0.6309(7) 0.1590(2)
O12_2 O 0.02292(15) 0.3015(7) 0.1590(2)
O13_2 O 0.31371(15) 0.4495(7) 0.1254(2)
C19_2 C 0.2496(2) 0.4956(8) 0.0045(3)
O14_2 O 0.33494(14) 0.5002(6) 0.0315(2)
C20_2 C 0.2136(2) 0.4768(8) 0.0315(3)
H13_2 H 0.2224 0.4521 0.0822
O15_2 O 0.46137(19) 0.4662(7) 0.1123(4)
H14_2 H 0.4588 0.3561 0.0792
H15_2 H 0.4610 0.5901 0.0870
C22_2 C 0.30239(19) 0.4802(7) 0.0571(3)
O16_2 O 0.4169(2) 0.4489(8) 0.2702(3)
H17_2 H 0.3954 0.4510 0.2921
H18_2 H 0.4518 0.4412 0.2960
C24_2 C 0.12660(19) 0.4795(8) 0.0169(3)
C25_2 C 0.1224(3) 0.3081(10) 0.0540(4)
H19_2 H 0.1413 0.1963 0.0551
C26_2 C 0.0903(3) 0.3017(10) 0.0893(4)
H20_2 H 0.0874 0.1846 0.1132
C27_2 C 0.0624(2) 0.4667(8) 0.0896(3)
C28_2 C 0.0662(2) 0.6379(9) 0.0526(3)
H21_2 H 0.0479 0.7507 0.0530
C29_2 C 0.0970(2) 0.6427(10) 0.0149(3)
C30_2 C 0.03383(19) 0.4657(9) 0.1377(3)
Cd5_2 Cd 0.0000 0.53777(8) 0.7500
O9_2 O 0.07637(13) 0.3770(6) 0.8322(2)
C16_2 C 0.09947(19) 0.5389(8) 0.8537(3)
O10_2 O 0.07929(13) 0.7032(6) 0.8278(2)
C17_2 C 0.1517(2) 0.5311(7) 0.9083(3)
C18_2 C 0.2369(2) 0.5342(8) 0.9296(3)
H12_2 H 0.2611 0.5481 0.9112
C21_2 C 0.1641(2) 0.4940(8) 0.9842(3)
C23_2 C 0.1878(2) 0.5524(8) 0.8815(3)
H16_2 H 0.1792 0.5791 0.8310
H22_2 H 0.0978 0.7563 0.9878
Cd7_2 Cd 0.896618(14) 0.04146(6) 0.64673(3)
Cd1_3 Cd 1.0000 0.46223(8) 0.2500
Cd2_2 Cd 0.603382(14) 0.45854(6) 0.35327(3)
O1_2 O 0.92363(13) 0.3770(6) 0.6678(2)
C1_2 C 0.90053(19) 0.5389(8) 0.6463(3)
O2_2 O 0.92071(13) 0.7032(6) 0.6722(2)
C2_2 C 0.8483(2) 0.5311(7) 0.5917(3)
O3_2 O 0.97695(14) 0.6309(7) 0.3410(2)
O4_2 O 0.97708(15) 0.3015(7) 0.3410(2)
C3_2 C 0.7631(2) 0.5342(8) 0.5704(3)
H1_2 H 0.7389 0.5481 0.5888
O5_2 O 0.68629(15) 0.4495(7) 0.3746(2)
C4_2 C 0.7504(2) 0.4956(8) 0.4955(3)
O6_2 O 0.66506(14) 0.5002(6) 0.4685(2)
C5_2 C 0.7864(2) 0.4768(8) 0.4685(3)
H2_2 H 0.7776 0.4521 0.4178
C6_2 C 0.8359(2) 0.4940(8) 0.5158(3)
O7_2 O 0.53863(19) 0.4662(7) 0.3877(4)
H3_2 H 0.5412 0.3561 0.4208
H4_2 H 0.5390 0.5901 0.4130
C7_2 C 0.69761(19) 0.4802(7) 0.4429(3)
C8_2 C 0.8122(2) 0.5524(8) 0.6185(3)
H5_2 H 0.8208 0.5791 0.6690
O8_2 O 0.5831(2) 0.4489(8) 0.2298(3)
H6_2 H 0.6046 0.4510 0.2079
H7_2 H 0.5482 0.4412 0.2040
C9_2 C 0.87340(19) 0.4795(8) 0.4831(3)
C10_2 C 0.8776(3) 0.3081(10) 0.4460(4)
H8_2 H 0.8587 0.1963 0.4449
C11_2 C 0.9097(3) 0.3017(10) 0.4107(4)
H9_2 H 0.9126 0.1846 0.3868
C12_2 C 0.9376(2) 0.4667(8) 0.4104(3)
C13_2 C 0.9338(2) 0.6379(9) 0.4474(3)
H10_2 H 0.9521 0.7507 0.4470
C14_2 C 0.9030(2) 0.6427(10) 0.4851(3)
H11_2 H 0.9022 0.7563 0.5122
C15_2 C 0.96617(19) 0.4657(9) 0.3623(3)
Cd5_3 Cd 1.0000 0.53777(8) 0.7500
C21_3 C 0.3359(2) 0.0060(8) 0.0158(3)
O4_3 O 0.52292(15) 0.1985(7) 0.6590(2)
O5_3 O 0.81371(15) 0.0505(7) 0.6254(2)
C4_3 C 0.7496(2) 0.0044(8) 0.5045(3)
C5_3 C 0.7136(2) 0.0232(8) 0.5315(3)
H2_3 H 0.7224 0.0479 0.5822
C6_3 C 0.6641(2) 0.0060(8) 0.4842(3)
O7_3 O 0.96137(19) 0.0338(7) 0.6123(4)
H3_3 H 0.9588 0.1439 0.5792
C7_3 C 0.80239(19) 0.0198(7) 0.5571(3)
O8_3 O 0.9169(2) 0.0511(8) 0.7702(3)
H6_3 H 0.8954 0.0490 0.7921
H7_3 H 0.9518 0.0588 0.7960
C9_3 C 0.62660(19) 0.0205(8) 0.5169(3)
C10_3 C 0.6224(3) 0.1919(10) 0.5540(4)
H8_3 H 0.6413 0.3037 0.5551
C11_3 C 0.5903(3) 0.1983(10) 0.5893(4)
H9_3 H 0.5874 0.3154 0.6132
C12_3 C 0.5624(2) 0.0333(8) 0.5896(3)
C15_3 C 0.53383(19) 0.0343(9) 0.6377(3)
O12_3 O 0.47708(15) 0.1985(7) 0.8410(2)
O13_3 O 0.18629(15) 0.0505(7) 0.8746(2)
C19_3 C 0.2504(2) 0.0044(8) 0.9955(3)
C20_3 C 0.2864(2) 0.0232(8) 0.9685(3)
H13_3 H 0.2776 0.0479 0.9178
O15_3 O 0.03863(19) 0.0338(7) 0.8877(4)
H14_3 H 0.0412 0.1439 0.9208
C22_3 C 0.19761(19) 0.0198(7) 0.9429(3)
O16_3 O 0.0831(2) 0.0511(8) 0.7298(3)
H17_3 H 0.1046 0.0490 0.7079
H18_3 H 0.0482 0.0588 0.7040
C24_3 C 0.37340(19) 0.0205(8) 0.9831(3)
C25_3 C 0.3776(3) 0.1919(10) 0.9460(4)
H19_3 H 0.3587 0.3037 0.9449
C26_3 C 0.4097(3) 0.1983(10) 0.9107(4)
H20_3 H 0.4126 0.3154 0.8868
C27_3 C 0.4376(2) 0.0333(8) 0.9104(3)
C30_3 C 0.46617(19) 0.0343(9) 0.8623(3)
C16_3 C 0.40053(19) 0.9611(8) 0.1463(3)
C17_3 C 0.3483(2) 0.9689(7) 0.0917(3)
C18_3 C 0.2631(2) 0.9658(8) 0.0704(3)
H12_3 H 0.2389 0.9519 0.0888
C23_3 C 0.3122(2) 0.9476(8) 0.1185(3)
H16_3 H 0.3208 0.9209 0.1690
H22_3 H 0.4022 0.7437 0.0122
C1_3 C 0.59947(19) 0.9611(8) 0.3537(3)
C2_3 C 0.6517(2) 0.9689(7) 0.4083(3)
O3_3 O 0.52305(14) 0.8691(7) 0.6590(2)
C3_3 C 0.7369(2) 0.9658(8) 0.4296(3)
H1_3 H 0.7611 0.9519 0.4112
O6_3 O 0.83494(14) 0.9998(6) 0.5315(2)
H4_3 H 0.9610 0.9099 0.5870
C8_3 C 0.6878(2) 0.9476(8) 0.3815(3)
H5_3 H 0.6792 0.9209 0.3310
C13_3 C 0.5662(2) 0.8621(9) 0.5526(3)
H10_3 H 0.5479 0.7493 0.5530
C14_3 C 0.5970(2) 0.8573(10) 0.5149(3)
H11_3 H 0.5978 0.7437 0.4878
O11_3 O 0.47695(14) 0.8691(7) 0.8410(2)
O14_3 O 0.16506(14) 0.9998(6) 0.9685(2)
H15_3 H 0.0390 0.9099 0.9130
C28_3 C 0.4338(2) 0.8621(9) 0.9474(3)
H21_3 H 0.4521 0.7493 0.9470
C29_3 C 0.4030(2) 0.8573(10) 0.9851(3)
C1_4 C 0.09947(19) 0.4611(8) 0.3537(3)
C2_4 C 0.1517(2) 0.4689(7) 0.4083(3)
O3_4 O 0.02305(14) 0.3691(7) 0.6590(2)
O4_4 O 0.02292(15) 0.6985(7) 0.6590(2)
C3_4 C 0.2369(2) 0.4658(8) 0.4296(3)
H1_4 H 0.2611 0.4519 0.4112
O5_4 O 0.31371(15) 0.5505(7) 0.6254(2)
C4_4 C 0.2496(2) 0.5044(8) 0.5045(3)
O6_4 O 0.33494(14) 0.4998(6) 0.5315(2)
C5_4 C 0.2136(2) 0.5232(8) 0.5315(3)
H2_4 H 0.2224 0.5479 0.5822
C6_4 C 0.1641(2) 0.5060(8) 0.4842(3)
O7_4 O 0.46137(19) 0.5338(7) 0.6123(4)
H3_4 H 0.4588 0.6439 0.5792
H4_4 H 0.4610 0.4099 0.5870
C7_4 C 0.30239(19) 0.5198(7) 0.5571(3)
C8_4 C 0.1878(2) 0.4476(8) 0.3815(3)
H5_4 H 0.1792 0.4209 0.3310
O8_4 O 0.4169(2) 0.5511(8) 0.7702(3)
H6_4 H 0.3954 0.5490 0.7921
H7_4 H 0.4518 0.5588 0.7960
C9_4 C 0.12660(19) 0.5205(8) 0.5169(3)
C10_4 C 0.1224(3) 0.6919(10) 0.5540(4)
H8_4 H 0.1413 0.8037 0.5551
C11_4 C 0.0903(3) 0.6983(10) 0.5893(4)
H9_4 H 0.0874 0.8154 0.6132
C12_4 C 0.0624(2) 0.5333(8) 0.5896(3)
C13_4 C 0.0662(2) 0.3621(9) 0.5526(3)
H10_4 H 0.0479 0.2493 0.5530
C14_4 C 0.0970(2) 0.3573(10) 0.5149(3)
H11_4 H 0.0978 0.2437 0.4878
C15_4 C 0.03383(19) 0.5343(9) 0.6377(3)
C16_4 C 0.90053(19) 0.4611(8) 0.1463(3)
C17_4 C 0.8483(2) 0.4689(7) 0.0917(3)
C18_4 C 0.7631(2) 0.4658(8) 0.0704(3)
H12_4 H 0.7389 0.4519 0.0888
C21_4 C 0.8359(2) 0.5060(8) 0.0158(3)
C23_4 C 0.8122(2) 0.4476(8) 0.1185(3)
H16_4 H 0.8208 0.4209 0.1690
H22_4 H 0.9022 0.2437 0.0122
O11_4 O 0.97695(14) 0.3691(7) 0.8410(2)
O12_4 O 0.97708(15) 0.6985(7) 0.8410(2)
O13_4 O 0.68629(15) 0.5505(7) 0.8746(2)
C19_4 C 0.7504(2) 0.5044(8) 0.9955(3)
O14_4 O 0.66506(14) 0.4998(6) 0.9685(2)
C20_4 C 0.7864(2) 0.5232(8) 0.9685(3)
H13_4 H 0.7776 0.5479 0.9178
O15_4 O 0.53863(19) 0.5338(7) 0.8877(4)
H14_4 H 0.5412 0.6439 0.9208
H15_4 H 0.5390 0.4099 0.9130
C22_4 C 0.69761(19) 0.5198(7) 0.9429(3)
O16_4 O 0.5831(2) 0.5511(8) 0.7298(3)
H17_4 H 0.6046 0.5490 0.7079
H18_4 H 0.5482 0.5588 0.7040
C24_4 C 0.87340(19) 0.5205(8) 0.9831(3)
C25_4 C 0.8776(3) 0.6919(10) 0.9460(4)
H19_4 H 0.8587 0.8037 0.9449
C26_4 C 0.9097(3) 0.6983(10) 0.9107(4)
H20_4 H 0.9126 0.8154 0.8868
C27_4 C 0.9376(2) 0.5333(8) 0.9104(3)
C28_4 C 0.9338(2) 0.3621(9) 0.9474(3)
H21_4 H 0.9521 0.2493 0.9470
C29_4 C 0.9030(2) 0.3573(10) 0.9851(3)
C30_4 C 0.96617(19) 0.5343(9) 0.8623(3)
loop_
_geom_bond_atom_site_label_1
_geom_bond_atom_site_label_2
_geom_bond_site_symmetry_1
_geom_bond_site_symmetry_2
C1 O2 1_555 1_555
O2 Cd5 1_555 1_555
C2 C1 1_555 1_555
C3 H1 1_555 1_555
C8 C2 1_555 1_555
H5 C8 1_555 1_555
H10 C13 1_555 1_555
H11 C14 1_555 1_555
H21 C28 1_555 1_555
Cd7 O2 1_555 1_555
C3 C8 1_555 1_555
C13 C14 1_555 1_555
C28 C29 1_555 1_555
C16 O10 1_555 1_555
O10 Cd5 1_555 1_555
C17 C16 1_555 1_555
C18 H12 1_555 1_555
C23 C17 1_555 1_555
H16 C23 1_555 1_555
Cd9 O10 1_555 1_555
C18 C23 1_555 1_555
Cd2 O5 1_555 1_555
O4 Cd1 1_555 1_555
O5 C7 1_555 1_555
C5 C4 1_555 1_555
H2 C5 1_555 1_555
O7 Cd2 1_555 1_555
H3 O7 1_555 1_555
C7 C4 1_555 1_555
O8 Cd2 1_555 1_555
H6 O8 1_555 1_555
H7 O8 1_555 1_555
C9 C6 1_555 1_555
C10 C9 1_555 1_555
H8 C10 1_555 1_555
C11 C10 1_555 1_555
H9 C11 1_555 1_555
C12 C11 1_555 1_555
C15 O4 1_555 1_555
Cd3 O13 1_555 1_555
O12 Cd1 1_555 1_555
O13 C22 1_555 1_555
C20 C19 1_555 1_555
H13 C20 1_555 1_555
O15 Cd3 1_555 1_555
H14 O15 1_555 1_555
C22 C19 1_555 1_555
O16 Cd3 1_555 1_555
H17 O16 1_555 1_555
H18 O16 1_555 1_555
C25 C24 1_555 1_555
H19 C25 1_555 1_555
C26 C25 1_555 1_555
H20 C26 1_555 1_555
C27 C26 1_555 1_555
Cd7 O1 1_555 1_555
O19 Cd2 1_555 1_555
O20 Cd3 1_555 1_555
O21 Cd1 1_555 1_555
O22 Cd1 1_555 1_555
C5 C6 1_555 1_555
C12 C15 1_555 1_555
O12 C30 1_555 1_555
C27 C30 1_555 1_555
Cd9 O9 1_555 1_555
Cd3_2 O13_2 1_555 1_555
O11_2 Cd1_2 1_555 1_555
O12_2 Cd1_2 1_555 1_555
O13_2 C22_2 1_555 1_555
O14_2 Cd3_2 1_555 1_555
C20_2 C19_2 1_555 1_555
H13_2 C20_2 1_555 1_555
O15_2 Cd3_2 1_555 1_555
H14_2 O15_2 1_555 1_555
H15_2 O15_2 1_555 1_555
C22_2 C19_2 1_555 1_555
O16_2 Cd3_2 1_555 1_555
H17_2 O16_2 1_555 1_555
H18_2 O16_2 1_555 1_555
C25_2 C24_2 1_555 1_555
H19_2 C25_2 1_555 1_555
C26_2 C25_2 1_555 1_555
H20_2 C26_2 1_555 1_555
C27_2 C26_2 1_555 1_555
C28_2 C27_2 1_555 1_555
H21_2 C28_2 1_555 1_555
C29_2 C24_2 1_555 1_555
C30_2 O11_2 1_555 1_555
O19 Cd1_2 1_555 1_555
O18 Cd3_2 1_555 1_555
O23 Cd1_2 1_555 1_555
O22 Cd3_2 1_555 1_555
O12_2 C30_2 1_555 1_555
O14_2 C22_2 1_555 1_555
C27_2 C30_2 1_555 1_555
C28_2 C29_2 1_555 1_555
O9_2 C16_2 1_555 1_555
C16_2 O10_2 1_555 1_555
O10_2 Cd5_2 1_555 1_555
C17_2 C16_2 1_555 1_555
C18_2 H12_2 1_555 1_555
C21_2 C17_2 1_555 1_555
C23_2 C17_2 1_555 1_555
H16_2 C23_2 1_555 1_555
Cd5_2 O9_2 1_555 1_555
Cd9_2 O9_2 1_555 1_555
C18_2 C23_2 1_555 1_555
Cd1_3 O3_2 1_555 1_555
Cd2_2 O5_2 1_555 1_555
O1_2 C1_2 1_555 1_555
C1_2 O2_2 1_555 1_555
O2_2 Cd5_3 1_555 1_555
C2_2 C1_2 1_555 1_555
O3_2 C15_2 1_555 1_555
O4_2 Cd1_3 1_555 1_555
C3_2 H1_2 1_555 1_555
O5_2 C7_2 1_555 1_555
C4_2 C3_2 1_555 1_555
O6_2 Cd2_2 1_555 1_555
C5_2 C4_2 1_555 1_555
H2_2 C5_2 1_555 1_555
C6_2 C2_2 1_555 1_555
O7_2 Cd2_2 1_555 1_555
H3_2 O7_2 1_555 1_555
H4_2 O7_2 1_555 1_555
C7_2 C4_2 1_555 1_555
C8_2 C2_2 1_555 1_555
H5_2 C8_2 1_555 1_555
O8_2 Cd2_2 1_555 1_555
H6_2 O8_2 1_555 1_555
H7_2 O8_2 1_555 1_555
C9_2 C6_2 1_555 1_555
C10_2 C9_2 1_555 1_555
H8_2 C10_2 1_555 1_555
C11_2 C10_2 1_555 1_555
H9_2 C11_2 1_555 1_555
C12_2 C11_2 1_555 1_555
C13_2 C12_2 1_555 1_555
H10_2 C13_2 1_555 1_555
C14_2 C9_2 1_555 1_555
H11_2 C14_2 1_555 1_555
C15_2 O4_2 1_555 1_555
Cd5_3 O1_2 1_555 1_555
Cd7_2 O1_2 1_555 1_555
O20 Cd1_3 1_555 1_555
O17 Cd2_2 1_555 1_555
O24 Cd1_3 1_555 1_555
O21 Cd2_2 1_555 1_555
C3_2 C8_2 1_555 1_555
O6_2 C7_2 1_555 1_555
C5_2 C6_2 1_555 1_555
C12_2 C15_2 1_555 1_555
C13_2 C14_2 1_555 1_555
Cd7_2 O5_3 1_555 1_555
O4_3 Cd5 1_555 1_555
O5_3 C7_3 1_555 1_555
C5_3 C4_3 1_555 1_555
H2_3 C5_3 1_555 1_555
O7_3 Cd7_2 1_555 1_555
H3_3 O7_3 1_555 1_555
C7_3 C4_3 1_555 1_555
O8_3 Cd7_2 1_555 1_555
H6_3 O8_3 1_555 1_555
H7_3 O8_3 1_555 1_555
C9_3 C6_3 1_555 1_555
C10_3 C9_3 1_555 1_555
H8_3 C10_3 1_555 1_555
C11_3 C10_3 1_555 1_555
H9_3 C11_3 1_555 1_555
C12_3 C11_3 1_555 1_555
C15_3 O4_3 1_555 1_555
Cd9_2 O13_3 1_555 1_555
O12_3 Cd5 1_555 1_555
O13_3 C22_3 1_555 1_555
C20_3 C19_3 1_555 1_555
H13_3 C20_3 1_555 1_555
O15_3 Cd9_2 1_555 1_555
H14_3 O15_3 1_555 1_555
C22_3 C19_3 1_555 1_555
O16_3 Cd9_2 1_555 1_555
H17_3 O16_3 1_555 1_555
H18_3 O16_3 1_555 1_555
C25_3 C24_3 1_555 1_555
H19_3 C25_3 1_555 1_555
C26_3 C25_3 1_555 1_555
H20_3 C26_3 1_555 1_555
C27_3 C26_3 1_555 1_555
C5_3 C6_3 1_555 1_555
C12_3 C15_3 1_555 1_555
O12_3 C30_3 1_555 1_555
C27_3 C30_3 1_555 1_555
C16_3 O22 1_555 1_555
C17_3 C16_3 1_555 1_555
C18_3 H12_3 1_555 1_555
C23_3 C17_3 1_555 1_555
H16_3 C23_3 1_555 1_555
C18_3 C23_3 1_555 1_555
C1_3 O21 1_555 1_555
C2_3 C1_3 1_555 1_555
C3_3 H1_3 1_555 1_555
C8_3 C2_3 1_555 1_555
H5_3 C8_3 1_555 1_555
H10_3 C13_3 1_555 1_555
H11_3 C14_3 1_555 1_555
H21_3 C28_3 1_555 1_555
C3_3 C8_3 1_555 1_555
C13_3 C14_3 1_555 1_555
C28_3 C29_3 1_555 1_555
Cd5_2 O3_4 1_555 1_555
Cd7 O5_4 1_555 1_555
O19 C1_4 1_555 1_555
C1_4 O23 1_555 1_555
C2_4 C1_4 1_555 1_555
O3_4 C15_4 1_555 1_555
O4_4 Cd5_2 1_555 1_555
C3_4 H1_4 1_555 1_555
O5_4 C7_4 1_555 1_555
C4_4 C3_4 1_555 1_555
O6_4 Cd7 1_555 1_555
C5_4 C4_4 1_555 1_555
H2_4 C5_4 1_555 1_555
C6_4 C2_4 1_555 1_555
O7_4 Cd7 1_555 1_555
H3_4 O7_4 1_555 1_555
H4_4 O7_4 1_555 1_555
C7_4 C4_4 1_555 1_555
C8_4 C2_4 1_555 1_555
H5_4 C8_4 1_555 1_555
O8_4 Cd7 1_555 1_555
H6_4 O8_4 1_555 1_555
H7_4 O8_4 1_555 1_555
C9_4 C6_4 1_555 1_555
C10_4 C9_4 1_555 1_555
H8_4 C10_4 1_555 1_555
C11_4 C10_4 1_555 1_555
H9_4 C11_4 1_555 1_555
C12_4 C11_4 1_555 1_555
C13_4 C12_4 1_555 1_555
H10_4 C13_4 1_555 1_555
C14_4 C9_4 1_555 1_555
H11_4 C14_4 1_555 1_555
C15_4 O4_4 1_555 1_555
C3_4 C8_4 1_555 1_555
O6_4 C7_4 1_555 1_555
C5_4 C6_4 1_555 1_555
C12_4 C15_4 1_555 1_555
C13_4 C14_4 1_555 1_555
O20 C16_4 1_555 1_555
C16_4 O24 1_555 1_555
C17_4 C16_4 1_555 1_555
C18_4 H12_4 1_555 1_555
C21_4 C17_4 1_555 1_555
C23_4 C17_4 1_555 1_555
H16_4 C23_4 1_555 1_555
C18_4 C23_4 1_555 1_555
Cd9 O13_4 1_555 1_555
O11_4 Cd5_3 1_555 1_555
O12_4 Cd5_3 1_555 1_555
O13_4 C22_4 1_555 1_555
O14_4 Cd9 1_555 1_555
C20_4 C19_4 1_555 1_555
H13_4 C20_4 1_555 1_555
O15_4 Cd9 1_555 1_555
H14_4 O15_4 1_555 1_555
H15_4 O15_4 1_555 1_555
C22_4 C19_4 1_555 1_555
O16_4 Cd9 1_555 1_555
H17_4 O16_4 1_555 1_555
H18_4 O16_4 1_555 1_555
C25_4 C24_4 1_555 1_555
H19_4 C25_4 1_555 1_555
C26_4 C25_4 1_555 1_555
H20_4 C26_4 1_555 1_555
C27_4 C26_4 1_555 1_555
C28_4 C27_4 1_555 1_555
H21_4 C28_4 1_555 1_555
C29_4 C24_4 1_555 1_555
C30_4 O11_4 1_555 1_555
O12_4 C30_4 1_555 1_555
O14_4 C22_4 1_555 1_555
C27_4 C30_4 1_555 1_555
C28_4 C29_4 1_555 1_555

#END
