
###############################################################################
#
# This file contains modified crystal structure data generated from the
# MOF subset of the Cambridge Structural Database (CSD) v543 
# hosted by the Cambridge Crystallographic Data Centre (CCDC).
#
# This work is licensed under the Creative Commons
# Attribution-NonCommercial-ShareAlike 4.0 International License.
# To view a copy of this license, visit
# http://creativecommons.org/licenses/by-nc-sa/4.0/
# or send a letter to
# Creative Commons, PO Box 1866, Mountain View, CA 94042, USA.
#
# CIF created using the CSD Python API on 29 September 2022
# The structure has been converted into the P1 space group
# The structure has a 3D framework
# The original CSD entry FONPUW is in the triclinic crystal system
# The framework has been calculated to contain at least 10.0% void space
# The void calculation uses a probe of radius 1.32A, grid spacing 0.4
# H atom positions have been added when not included in the experimental data
#
###############################################################################

data_FONPUW
_chemical_formula_moiety         '(C80 H136 N24 Ni10 O24)n'
_symmetry_cell_setting           triclinic
_symmetry_space_group_name_H-M   'P 1'
_symmetry_Int_Tables_number      1
_space_group_name_Hall           'P 1'
loop_
_symmetry_equiv_pos_site_id
_symmetry_equiv_pos_as_xyz
1 x,y,z
_cell_length_a                   15.210(3)
_cell_length_b                   15.650(3)
_cell_length_c                   17.099(3)
_cell_angle_alpha                82.34(3)
_cell_angle_beta                 65.07(3)
_cell_angle_gamma                75.54(3)
_cell_volume                     3572.2
loop_
_atom_site_label
_atom_site_type_symbol
_atom_site_fract_x
_atom_site_fract_y
_atom_site_fract_z
Ni1 Ni 0.500000 -0.000000 0.000000
C4 C 0.2962(4) 0.0050(4) 0.0403(3)
H10 H 0.275571 0.066967 0.024517
Ni4 Ni 0.000000 -0.000000 0.500000
N10 N 0.0724(3) 0.1007(3) 0.4427(3)
H45 H 0.028592 0.155860 0.471351
N11 N 0.0079(4) 0.1295(4) 0.3275(3)
C19 C 0.1604(5) 0.0809(5) 0.4640(4)
H47 H 0.187001 0.134056 0.454812
H48 H 0.212236 0.035149 0.426475
C20 C 0.0941(5) 0.1137(5) 0.3483(4)
H49 H 0.126571 0.163848 0.325781
H50 H 0.141315 0.061154 0.318462
H51 H 0.016974 0.005236 0.308036
H57 H 0.014887 0.303574 0.272203
O4 O 0.0007(10) 0.3152(8) 0.3949(9)
H59 H 0.000000 0.371084 0.403353
N13 N 0.3882(3) 0.0376(3) 0.1187(2)
H66 H 0.365465 0.102591 0.116673
N14 N 0.5035(4) 0.0483(3) 0.1824(2)
N15 N 0.6058(3) 0.0349(3) 0.0255(2)
H67 H 0.597299 0.099841 0.017330
H69 H 0.245360 0.028191 0.171087
C42 C 0.4195(4) 0.0138(4) 0.1908(3)
H71 H 0.363039 0.035274 0.244166
C43 C 0.6011(4) 0.0116(4) 0.1154(3)
H72 H 0.652067 0.034036 0.122197
C45 C 0.4794(5) 0.1439(4) 0.1928(4)
H76 H 0.489828 0.173319 0.136249
H77 H 0.408753 0.161813 0.230237
C46 C 0.5408(8) 0.1771(7) 0.2315(6)
H78 H 0.519523 0.241312 0.237079
H79 H 0.611435 0.163108 0.193042
O13 O 0.5267(9) 0.1379(6) 0.3088(5)
C62 C 0.1295(5) 0.0491(5) 0.5581(4)
H118 H 0.080624 0.096029 0.596055
H119 H 0.187337 0.032873 0.572882
H132 H 0.548891 0.072932 0.302623
Ni1_2 Ni 0.500000 -0.000000 1.000000
C1 C 0.6925(4) 0.0019(4) 0.8734(3)
H3 H 0.679306 0.064117 0.855169
H5 H 0.563469 0.050698 0.803570
H8 H 0.384193 0.052770 0.876755
H74 H 0.753979 0.026699 0.954929
O25 O 0.4759(2) 0.1307(2) 0.94294(18)
Ni1_3 Ni 0.500000 1.000000 0.000000
H9 H 0.246021 0.973301 0.045071
Ni2 Ni 0.500000 0.500000 0.500000
N4 N 0.6371(3) 0.4899(3) 0.5014(2)
H15 H 0.678267 0.516576 0.446415
N5 N 0.5842(4) 0.6305(3) 0.5750(3)
N6 N 0.4487(3) 0.6303(3) 0.5338(3)
H16 H 0.477470 0.666946 0.481453
C7 C 0.6828(4) 0.3949(4) 0.5016(3)
H17 H 0.655329 0.368873 0.559900
H18 H 0.754691 0.386523 0.482937
C8 C 0.6325(4) 0.5390(4) 0.5738(3)
H19 H 0.597068 0.510409 0.628989
H20 H 0.700269 0.534729 0.568339
C9 C 0.4773(5) 0.6512(4) 0.5996(4)
H21 H 0.451685 0.714231 0.611345
H22 H 0.446001 0.618153 0.653106
C10 C 0.3390(4) 0.6491(4) 0.5594(3)
H23 H 0.313227 0.712978 0.557485
H24 H 0.306232 0.626775 0.618477
C11 C 0.6402(15) 0.6863(14) 0.5055(11)
H25 H 0.600395 0.746709 0.509930
H26 H 0.653906 0.664194 0.449642
C12 C 0.7381(15) 0.6871(16) 0.5103(11)
H27 H 0.778597 0.626989 0.498779
H28 H 0.771951 0.724750 0.461849
O2 O 0.7427(16) 0.7134(14) 0.5833(11)
H29 H 0.792907 0.711137 0.580709
Ni3 Ni 0.500000 0.500000 0.000000
C16 C 0.6857(4) 0.4496(4) 0.0175(3)
H39 H 0.744757 0.466419 0.014952
Ni4_2 Ni 0.000000 1.000000 0.500000
O5 O 0.5241(2) 0.8693(2) 0.05706(18)
O7 O 0.5521(2) 0.5463(2) 0.36987(18)
O8 O 0.7177(3) 0.5293(3) 0.3097(2)
O9 O 0.4623(3) 0.6227(2) 0.05955(19)
O11 O 0.1025(3) 0.9114(3) 0.4006(2)
O12 O 0.2293(3) 0.8532(3) 0.4361(2)
C25 C 0.5890(4) 0.7989(3) 0.0329(3)
C26 C 0.5953(4) 0.7302(3) 0.0996(3)
C27 C 0.5111(3) 0.7133(3) 0.1736(3)
C28 C 0.5286(4) 0.6547(3) 0.2376(3)
H60 H 0.473457 0.641899 0.286038
C29 C 0.6224(4) 0.6148(3) 0.2337(3)
C30 C 0.7053(4) 0.6284(3) 0.1593(3)
H61 H 0.769944 0.600282 0.153367
C31 C 0.6889(4) 0.6848(3) 0.0943(3)
H62 H 0.744360 0.692831 0.043710
C32 C 0.6317(4) 0.5586(3) 0.3101(3)
C33 C 0.4128(4) 0.6998(4) 0.0531(3)
C34 C 0.3589(4) 0.7495(3) 0.1363(3)
C35 C 0.4072(3) 0.7527(3) 0.1910(2)
C36 C 0.3452(4) 0.7927(3) 0.2714(3)
H63 H 0.374893 0.795741 0.309000
C37 C 0.2475(4) 0.8264(3) 0.2978(3)
C38 C 0.2021(4) 0.8244(3) 0.2430(3)
H64 H 0.133722 0.848256 0.260460
C39 C 0.2571(4) 0.7872(3) 0.1620(3)
H65 H 0.226080 0.787250 0.124698
C40 C 0.1868(4) 0.8680(4) 0.3849(3)
C41 C 0.3075(4) 0.9981(4) 0.1266(3)
H68 H 0.320694 0.935883 0.144831
H70 H 0.436531 0.949302 0.196430
H73 H 0.615807 0.947230 0.123245
N16 N 0.3629(3) 0.5101(3) 0.4986(2)
H80 H 0.321733 0.483424 0.553585
N17 N 0.4158(4) 0.3695(3) 0.4250(3)
N18 N 0.5513(3) 0.3697(3) 0.4662(3)
H81 H 0.522530 0.333054 0.518547
C47 C 0.3172(4) 0.6051(4) 0.4984(3)
H82 H 0.344671 0.631127 0.440100
H83 H 0.245309 0.613477 0.517063
C48 C 0.3675(4) 0.4610(4) 0.4262(3)
H84 H 0.402932 0.489591 0.371011
H85 H 0.299731 0.465271 0.431661
C49 C 0.5227(5) 0.3488(4) 0.4004(4)
H86 H 0.548315 0.285769 0.388655
H87 H 0.553999 0.381847 0.346894
C50 C 0.6610(4) 0.3509(4) 0.4406(3)
H88 H 0.686773 0.287022 0.442515
H89 H 0.693768 0.373225 0.381523
C51 C 0.3598(15) 0.3137(14) 0.4945(11)
H90 H 0.399605 0.253291 0.490070
H91 H 0.346094 0.335806 0.550358
C52 C 0.2619(15) 0.3129(16) 0.4897(11)
H92 H 0.221403 0.373011 0.501221
H93 H 0.228049 0.275250 0.538151
O14 O 0.2573(16) 0.2866(14) 0.4167(11)
H94 H 0.207093 0.288863 0.419291
N19 N 0.5156(3) 0.4373(3) 0.1091(2)
H95 H 0.528047 0.372820 0.103191
N20 N 0.3338(4) 0.4509(3) 0.1902(3)
N21 N 0.3546(3) 0.4909(3) 0.0417(3)
H96 H 0.354788 0.429631 0.032602
C53 C 0.6066(4) 0.4582(4) 0.1077(3)
H97 H 0.591558 0.518435 0.126806
H98 H 0.629881 0.417432 0.147120
C54 C 0.4271(5) 0.4624(4) 0.1895(3)
H99 H 0.419550 0.524540 0.199594
H100 H 0.438308 0.427204 0.237570
C55 C 0.2941(5) 0.5083(4) 0.1351(3)
H101 H 0.226551 0.501305 0.150085
H102 H 0.290093 0.569529 0.145345
H103 H 0.295492 0.611728 0.000063
C57 C 0.3321(5) 0.3570(4) 0.1951(4)
H105 H 0.383669 0.329364 0.142088
H106 H 0.348079 0.328521 0.243474
C58 C 0.2338(6) 0.3409(5) 0.2067(5)
H107 H 0.180789 0.380991 0.250022
H108 H 0.230149 0.280420 0.229471
O15 O 0.2154(4) 0.3529(3) 0.1284(3)
H109 H 0.258838 0.318107 0.091686
N24 N 0.0870(3) 0.9735(3) 0.5688(3)
H111 H 0.142688 0.923811 0.540747
C61 C 0.0354(5) 0.9451(5) 0.6614(3)
H117 H 0.083290 0.930741 0.688023
C63 C 0.0657(5) 0.7875(4) 0.6436(4)
H120 H 0.096330 0.791430 0.580437
H121 H 0.117798 0.786436 0.663377
C64 C 0.0367(10) 0.6965(7) 0.6691(5)
H123 H 0.094505 0.649574 0.665552
H124 H 0.000000 0.628916 0.596647
O26 O 0.4479(2) 0.4537(2) 0.63013(18)
Ni1_4 Ni 0.500000 1.000000 1.000000
N1 N 0.6118(3) 0.9624(3) 0.8813(2)
H1 H 0.634535 0.897409 0.883327
N2 N 0.4965(4) 0.9517(3) 0.8176(2)
N3 N 0.3942(3) 0.9651(3) 0.9745(2)
H2 H 0.402701 0.900159 0.982670
H4 H 0.754640 0.971809 0.828913
C2 C 0.5805(4) 0.9862(4) 0.8092(3)
H6 H 0.636961 0.964726 0.755834
C3 C 0.3989(4) 0.9884(4) 0.8846(3)
H7 H 0.347933 0.965964 0.877803
C5 C 0.5206(5) 0.8561(4) 0.8072(4)
H11 H 0.510172 0.826681 0.863751
H12 H 0.591247 0.838187 0.769763
C6 C 0.4592(8) 0.8229(7) 0.7685(6)
H13 H 0.480477 0.758688 0.762921
H14 H 0.388565 0.836892 0.806958
O1 O 0.4733(9) 0.8621(6) 0.6912(5)
Ni3_2 Ni 0.500000 0.500000 1.000000
N7 N 0.4844(3) 0.5627(3) 0.8909(2)
H30 H 0.471953 0.627180 0.896809
N8 N 0.6662(4) 0.5491(3) 0.8098(3)
N9 N 0.6454(3) 0.5091(3) 0.9583(3)
H31 H 0.645212 0.570369 0.967398
C13 C 0.3934(4) 0.5418(4) 0.8923(3)
H32 H 0.408442 0.481565 0.873194
H33 H 0.370119 0.582568 0.852880
C14 C 0.5729(5) 0.5376(4) 0.8105(3)
H34 H 0.580450 0.475460 0.800406
H35 H 0.561692 0.572796 0.762430
C15 C 0.7059(5) 0.4917(4) 0.8649(3)
H36 H 0.773449 0.498695 0.849915
H37 H 0.709907 0.430471 0.854655
H38 H 0.704508 0.388272 0.999937
C17 C 0.6679(5) 0.6430(4) 0.8049(4)
H40 H 0.616331 0.670636 0.857912
H41 H 0.651921 0.671479 0.756526
C18 C 0.7662(6) 0.6591(5) 0.7933(5)
H42 H 0.819211 0.619009 0.749978
H43 H 0.769851 0.719580 0.770529
O3 O 0.7846(4) 0.6471(3) 0.8716(3)
H44 H 0.741162 0.681893 0.908314
O6 O 0.6492(3) 0.7860(2) 0.95586(19)
O10 O 0.4013(3) 0.7365(2) 0.9869(2)
C44 C 0.7038(4) 0.9950(4) 0.9597(3)
H75 H 0.724429 0.933033 0.975483
C56 C 0.3143(4) 0.5504(4) 0.9825(3)
H104 H 0.255243 0.533581 0.985048
O27 O 0.5377(3) 0.3773(2) 0.94045(19)
H131 H 0.544915 0.847215 0.652417
O18 O 0.3508(3) 0.2140(2) 0.04414(19)
O22 O 0.5987(3) 0.2635(2) 0.0131(2)
Ni4_3 Ni 1.000000 -0.000000 0.500000
N12 N 0.9130(3) 0.0265(3) 0.4312(3)
H46 H 0.857312 0.076189 0.459253
C21 C 0.9646(5) 0.0549(5) 0.3386(3)
H52 H 0.916710 0.069259 0.311977
C23 C 0.9343(5) 0.2125(4) 0.3564(4)
H55 H 0.903670 0.208570 0.419563
H56 H 0.882202 0.213564 0.336623
C24 C 0.9633(10) 0.3035(7) 0.3309(5)
H58 H 0.905495 0.350426 0.334448
H59_2 H 1.000000 0.371084 0.403353
O20 O 0.2823(3) 0.4707(3) 0.6903(2)
O23 O 0.8975(3) 0.0886(3) 0.5994(2)
O24 O 0.7707(3) 0.1468(3) 0.5639(2)
C65 C 0.4110(4) 0.2011(3) 0.9671(3)
C66 C 0.4047(4) 0.2698(3) 0.9004(3)
C67 C 0.4889(3) 0.2867(3) 0.8264(3)
C68 C 0.4714(4) 0.3453(3) 0.7624(3)
H125 H 0.526543 0.358101 0.713962
C69 C 0.3776(4) 0.3852(3) 0.7663(3)
C70 C 0.2947(4) 0.3716(3) 0.8407(3)
H126 H 0.230056 0.399718 0.846633
C71 C 0.3111(4) 0.3152(3) 0.9057(3)
H127 H 0.255640 0.307169 0.956290
C72 C 0.3683(4) 0.4414(3) 0.6899(3)
C73 C 0.5872(4) 0.3002(4) 0.9469(3)
C74 C 0.6411(4) 0.2505(3) 0.8637(3)
C75 C 0.5928(3) 0.2473(3) 0.8090(2)
C76 C 0.6548(4) 0.2073(3) 0.7286(3)
H128 H 0.625107 0.204259 0.691000
C77 C 0.7525(4) 0.1736(3) 0.7022(3)
C78 C 0.7979(4) 0.1756(3) 0.7570(3)
H129 H 0.866278 0.151744 0.739540
C79 C 0.7429(4) 0.2128(3) 0.8380(3)
H130 H 0.773920 0.212750 0.875302
C80 C 0.8132(4) 0.1320(4) 0.6151(3)
Ni4_4 Ni 1.000000 1.000000 0.500000
C22 C 0.8705(5) 0.9509(5) 0.4419(4)
H53 H 0.919376 0.903971 0.403945
H54 H 0.812663 0.967127 0.427118
N22 N 0.9276(3) 0.8993(3) 0.5573(3)
H110 H 0.971408 0.844140 0.528649
N23 N 0.9921(4) 0.8705(4) 0.6725(3)
C59 C 0.8396(5) 0.9191(5) 0.5360(4)
H112 H 0.812999 0.865944 0.545188
H113 H 0.787764 0.964851 0.573525
C60 C 0.9059(5) 0.8863(5) 0.6517(4)
H114 H 0.873429 0.836152 0.674219
H115 H 0.858685 0.938846 0.681538
H116 H 0.983026 0.994764 0.691964
H122 H 0.985113 0.696426 0.727797
O16 O 0.9993(10) 0.6848(8) 0.6051(9)
H124_2 H 1.000000 0.628916 0.596647
H131_2 H 0.455085 0.152785 0.347583
H132_2 H 0.451109 0.927068 0.697377
loop_
_geom_bond_atom_site_label_1
_geom_bond_atom_site_label_2
_geom_bond_site_symmetry_1
_geom_bond_site_symmetry_2
H10 C4 1_555 1_555
Ni4 N10 1_555 1_555
N10 H45 1_555 1_555
N11 C20 1_555 1_555
C19 N10 1_555 1_555
H47 C19 1_555 1_555
H48 C19 1_555 1_555
C20 N10 1_555 1_555
H49 C20 1_555 1_555
H50 C20 1_555 1_555
H59 O4 1_555 1_555
N13 Ni1 1_555 1_555
H66 N13 1_555 1_555
N14 C42 1_555 1_555
N15 Ni1 1_555 1_555
H67 N15 1_555 1_555
C42 N13 1_555 1_555
H71 C42 1_555 1_555
C43 N14 1_555 1_555
H72 C43 1_555 1_555
C45 N14 1_555 1_555
H76 C45 1_555 1_555
H77 C45 1_555 1_555
C46 C45 1_555 1_555
H78 C46 1_555 1_555
H79 C46 1_555 1_555
O13 C46 1_555 1_555
C62 C19 1_555 1_555
H118 C62 1_555 1_555
H119 C62 1_555 1_555
N15 C43 1_555 1_555
O13 H132 1_555 1_555
H3 C1 1_555 1_555
O25 Ni1_2 1_555 1_555
Ni2 N4 1_555 1_555
N4 H15 1_555 1_555
N5 C8 1_555 1_555
N6 Ni2 1_555 1_555
H16 N6 1_555 1_555
C7 N4 1_555 1_555
H17 C7 1_555 1_555
H18 C7 1_555 1_555
C8 N4 1_555 1_555
H19 C8 1_555 1_555
H20 C8 1_555 1_555
C9 N5 1_555 1_555
H21 C9 1_555 1_555
H22 C9 1_555 1_555
C10 N6 1_555 1_555
H23 C10 1_555 1_555
H24 C10 1_555 1_555
C11 N5 1_555 1_555
H25 C11 1_555 1_555
H26 C11 1_555 1_555
C12 C11 1_555 1_555
H27 C12 1_555 1_555
H28 C12 1_555 1_555
O2 C12 1_555 1_555
H29 O2 1_555 1_555
H39 C16 1_555 1_555
O5 Ni1_3 1_555 1_555
O7 Ni2 1_555 1_555
O8 C32 1_555 1_555
O9 Ni3 1_555 1_555
O11 Ni4_2 1_555 1_555
O12 C40 1_555 1_555
C25 O5 1_555 1_555
C26 C25 1_555 1_555
C27 C26 1_555 1_555
C28 C27 1_555 1_555
H60 C28 1_555 1_555
C29 C28 1_555 1_555
C30 C29 1_555 1_555
H61 C30 1_555 1_555
C31 C26 1_555 1_555
H62 C31 1_555 1_555
C32 O7 1_555 1_555
C33 O9 1_555 1_555
C34 C33 1_555 1_555
C35 C27 1_555 1_555
C36 C35 1_555 1_555
H63 C36 1_555 1_555
C37 C36 1_555 1_555
C38 C37 1_555 1_555
H64 C38 1_555 1_555
C39 C34 1_555 1_555
H65 C39 1_555 1_555
C40 O11 1_555 1_555
H68 C41 1_555 1_555
N16 Ni2 1_555 1_555
H80 N16 1_555 1_555
N17 C48 1_555 1_555
N18 Ni2 1_555 1_555
H81 N18 1_555 1_555
C47 C10 1_555 1_555
H82 C47 1_555 1_555
H83 C47 1_555 1_555
C48 N16 1_555 1_555
H84 C48 1_555 1_555
H85 C48 1_555 1_555
C49 N17 1_555 1_555
H86 C49 1_555 1_555
H87 C49 1_555 1_555
C50 C7 1_555 1_555
H88 C50 1_555 1_555
H89 C50 1_555 1_555
C51 N17 1_555 1_555
H90 C51 1_555 1_555
H91 C51 1_555 1_555
C52 C51 1_555 1_555
H92 C52 1_555 1_555
H93 C52 1_555 1_555
O14 C52 1_555 1_555
H94 O14 1_555 1_555
N19 Ni3 1_555 1_555
H95 N19 1_555 1_555
N20 C54 1_555 1_555
N21 Ni3 1_555 1_555
H96 N21 1_555 1_555
C53 C16 1_555 1_555
H97 C53 1_555 1_555
H98 C53 1_555 1_555
C54 N19 1_555 1_555
H99 C54 1_555 1_555
H100 C54 1_555 1_555
C55 N20 1_555 1_555
H101 C55 1_555 1_555
H102 C55 1_555 1_555
C57 N20 1_555 1_555
H105 C57 1_555 1_555
H106 C57 1_555 1_555
C58 C57 1_555 1_555
H107 C58 1_555 1_555
H108 C58 1_555 1_555
O15 C58 1_555 1_555
H109 O15 1_555 1_555
N24 Ni4_2 1_555 1_555
H111 N24 1_555 1_555
H117 C61 1_555 1_555
H120 C63 1_555 1_555
H121 C63 1_555 1_555
C64 C63 1_555 1_555
H123 C64 1_555 1_555
O26 Ni2 1_555 1_555
N6 C9 1_555 1_555
C29 C32 1_555 1_555
C30 C31 1_555 1_555
C34 C35 1_555 1_555
C37 C40 1_555 1_555
C38 C39 1_555 1_555
N16 C47 1_555 1_555
N18 C49 1_555 1_555
N18 C50 1_555 1_555
N19 C53 1_555 1_555
N21 C55 1_555 1_555
N24 C61 1_555 1_555
Ni1_4 N1 1_555 1_555
N1 H1 1_555 1_555
N2 C2 1_555 1_555
N3 Ni1_4 1_555 1_555
H2 N3 1_555 1_555
C2 N1 1_555 1_555
H6 C2 1_555 1_555
C3 N2 1_555 1_555
H7 C3 1_555 1_555
C5 N2 1_555 1_555
H11 C5 1_555 1_555
H12 C5 1_555 1_555
C6 C5 1_555 1_555
H13 C6 1_555 1_555
H14 C6 1_555 1_555
O1 C6 1_555 1_555
Ni3_2 N7 1_555 1_555
N7 H30 1_555 1_555
N8 C14 1_555 1_555
N9 Ni3_2 1_555 1_555
H31 N9 1_555 1_555
C13 N7 1_555 1_555
H32 C13 1_555 1_555
H33 C13 1_555 1_555
C14 N7 1_555 1_555
H34 C14 1_555 1_555
H35 C14 1_555 1_555
C15 N8 1_555 1_555
H36 C15 1_555 1_555
H37 C15 1_555 1_555
C17 N8 1_555 1_555
H40 C17 1_555 1_555
H41 C17 1_555 1_555
C18 C17 1_555 1_555
H42 C18 1_555 1_555
H43 C18 1_555 1_555
O3 C18 1_555 1_555
H44 O3 1_555 1_555
H75 C44 1_555 1_555
C56 C13 1_555 1_555
H104 C56 1_555 1_555
O27 Ni3_2 1_555 1_555
N3 C3 1_555 1_555
N9 C15 1_555 1_555
O1 H131 1_555 1_555
N12 Ni4_3 1_555 1_555
H46 N12 1_555 1_555
H52 C21 1_555 1_555
H55 C23 1_555 1_555
H56 C23 1_555 1_555
C24 C23 1_555 1_555
H58 C24 1_555 1_555
O25 C65 1_555 1_555
O26 C72 1_555 1_555
O20 C72 1_555 1_555
O27 C73 1_555 1_555
O23 Ni4_3 1_555 1_555
O24 C80 1_555 1_555
C65 C66 1_555 1_555
C66 C67 1_555 1_555
C67 C68 1_555 1_555
C68 H125 1_555 1_555
C69 C68 1_555 1_555
C70 C69 1_555 1_555
H126 C70 1_555 1_555
C71 C66 1_555 1_555
H127 C71 1_555 1_555
C72 C69 1_555 1_555
C73 C74 1_555 1_555
C74 C75 1_555 1_555
C75 C67 1_555 1_555
C76 C75 1_555 1_555
H128 C76 1_555 1_555
C77 C76 1_555 1_555
C78 C77 1_555 1_555
H129 C78 1_555 1_555
C79 C74 1_555 1_555
H130 C79 1_555 1_555
C80 O23 1_555 1_555
N12 C21 1_555 1_555
C70 C71 1_555 1_555
C77 C80 1_555 1_555
C78 C79 1_555 1_555
H53 C22 1_555 1_555
H54 C22 1_555 1_555
N22 Ni4_4 1_555 1_555
H110 N22 1_555 1_555
N23 C60 1_555 1_555
C59 C22 1_555 1_555
H112 C59 1_555 1_555
H113 C59 1_555 1_555
C60 N22 1_555 1_555
H114 C60 1_555 1_555
H115 C60 1_555 1_555
H124_2 O16 1_555 1_555
N22 C59 1_555 1_555
O13 H131_2 1_555 1_555
O1 H132_2 1_555 1_555

#END
