
###############################################################################
#
# This file contains modified crystal structure data generated from the
# MOF subset of the Cambridge Structural Database (CSD) v543 
# hosted by the Cambridge Crystallographic Data Centre (CCDC).
#
# This work is licensed under the Creative Commons
# Attribution-NonCommercial-ShareAlike 4.0 International License.
# To view a copy of this license, visit
# http://creativecommons.org/licenses/by-nc-sa/4.0/
# or send a letter to
# Creative Commons, PO Box 1866, Mountain View, CA 94042, USA.
#
# CIF created using the CSD Python API on 29 September 2022
# The structure has been converted into the P1 space group
# The structure has a 3D framework
# The original CSD entry FOPGUP is in the monoclinic crystal system
# The framework has been calculated to contain at least 10.0% void space
# The void calculation uses a probe of radius 1.32A, grid spacing 0.4
#
###############################################################################

data_FOPGUP
_chemical_formula_moiety         '(C52 H32 Cd4 N6 O20)n'
_symmetry_cell_setting           triclinic
_symmetry_space_group_name_H-M   'P 1'
_symmetry_Int_Tables_number      1
_space_group_name_Hall           'P 1'
loop_
_symmetry_equiv_pos_site_id
_symmetry_equiv_pos_as_xyz
1 x,y,z
_cell_length_a                   10.1017(3)
_cell_length_b                   7.8858(4)
_cell_length_c                   17.3917(8)
_cell_angle_alpha                90
_cell_angle_beta                 101.9354(3)
_cell_angle_gamma                90
_cell_volume                     1355.47
loop_
_atom_site_label
_atom_site_type_symbol
_atom_site_fract_x
_atom_site_fract_y
_atom_site_fract_z
C4 C 0.0305(3) 0.2993(4) 0.09358(17)
H4 H 0.0395 0.3342 0.1455
C5 C 0.1441(3) 0.2952(4) 0.06050(16)
C9 C 0.2728(3) 0.3500(4) 0.11194(16)
C10 C 0.3065(3) 0.2993(4) 0.19002(16)
H6 H 0.2493 0.2245 0.2087
C11 C 0.4950(3) 0.4636(4) 0.21131(16)
H7 H 0.5743 0.4983 0.2449
C12 C 0.3596(3) 0.4696(4) 0.08947(16)
H8 H 0.3407 0.5094 0.0380
N1 N 0.4178(2) 0.3534(3) 0.23951(13)
N2 N 0.4690(2) 0.5290(3) 0.13916(13)
Cd3 Cd 0.53696(2) 0.82270(3) 0.124272(11)
Cd4 Cd 0.46304(2) 0.32270(3) 0.375728(11)
C6 C 0.1281(3) 0.2443(4) 0.98115(16)
C7 C 0.0000(3) 0.1999(4) 0.93945(17)
C8 C 0.2458(3) 0.2303(4) 0.94140(17)
O4 O 0.2242(2) 0.2302(3) 0.86689(12)
O5 O 0.3631(2) 0.2156(3) 0.98222(11)
Cd2 Cd 0.46304(2) 0.17730(3) 0.875728(11)
C1 C 0.7470(3) 0.1627(4) 0.92909(17)
C2 C 0.8879(3) 0.2029(4) 0.97346(17)
C7_2 C 1.0000(3) 0.1999(4) 0.93945(17)
H5 H 0.9895 0.1673 0.8871
O2 O 0.7250(2) 0.1401(3) 0.85626(12)
O3 O 0.6538(2) 0.1637(3) 0.96773(12)
N3 N 0.4178(2) 0.1466(3) 0.73951(13)
N4 N 0.5310(2) 0.4710(3) 0.86084(13)
C1_2 C 0.2530(3) 0.6627(4) 0.57091(17)
C2_2 C 0.1121(3) 0.7029(4) 0.52654(17)
C3 C 0.0949(3) 0.7531(4) 0.44839(17)
H1 H 0.1690 0.7553 0.4243
O1 O 0.5780(2) 0.3890(3) 0.62434(11)
H2 H 0.6646 0.3518 0.6581
H3 H 0.5827 0.3356 0.5726
C7_3 C -0.0000(3) 0.6999(4) 0.56055(17)
H5_2 H 0.0105 0.6673 0.6129
Cd1 Cd 0.53696(2) 0.67730(3) 0.624272(11)
O2_2 O 0.2750(2) 0.6401(3) 0.64374(12)
O3_2 O 0.3462(2) 0.6637(3) 0.53227(12)
N3_2 N 0.5822(2) 0.6466(3) 0.76049(13)
N4_2 N 0.4690(2) 0.9710(3) 0.63916(13)
O6 O 0.7758(2) 0.7302(3) 0.63311(12)
O7 O 0.6369(2) 0.7156(3) 0.51778(11)
H8_2 H 0.6593 0.0094 0.4620
N2_2 N 0.5310(2) 0.0290(3) 0.36084(13)
C4_2 C 0.9695(3) 0.7993(4) 0.40642(17)
H4_2 H 0.9605 0.8342 0.3545
C5_2 C 0.8559(3) 0.7952(4) 0.43950(16)
C6_2 C 0.8719(3) 0.7443(4) 0.51885(16)
C7_4 C 1.0000(3) 0.6999(4) 0.56055(17)
C8_2 C 0.7542(3) 0.7303(4) 0.55860(17)
C9_2 C 0.7272(3) 0.8500(4) 0.38806(16)
C10_2 C 0.6935(3) 0.7993(4) 0.30998(16)
H6_2 H 0.7507 0.7245 0.2913
C11_2 C 0.5050(3) 0.9636(4) 0.28869(16)
H7_2 H 0.4257 0.9983 0.2551
C12_2 C 0.6404(3) 0.9696(4) 0.41053(16)
N1_2 N 0.5822(2) 0.8534(3) 0.26049(13)
C1_3 C 0.2530(3) 0.8373(4) 0.07091(17)
C2_3 C 0.1121(3) 0.7971(4) 0.02654(17)
C7_5 C -0.0000(3) 0.8001(4) 0.06055(17)
H5_3 H 0.0105 0.8327 0.1129
O2_3 O 0.2750(2) 0.8599(3) 0.14374(12)
O3_3 O 0.3462(2) 0.8363(3) 0.03227(12)
O6_2 O 0.7758(2) 0.7698(3) 0.13311(12)
O7_2 O 0.6369(2) 0.7844(3) 0.01778(11)
C6_3 C 0.8719(3) 0.7557(4) 0.01885(16)
C7_6 C 1.0000(3) 0.8001(4) 0.06055(17)
C8_3 C 0.7542(3) 0.7697(4) 0.05860(17)
C4_3 C 0.9695(3) 0.7007(4) 0.90642(17)
H4_3 H 0.9605 0.6658 0.8545
C5_3 C 0.8559(3) 0.7048(4) 0.93950(16)
C9_3 C 0.7272(3) 0.6500(4) 0.88806(16)
C10_3 C 0.6935(3) 0.7007(4) 0.80998(16)
H6_3 H 0.7507 0.7755 0.7913
C11_3 C 0.5050(3) 0.5364(4) 0.78869(16)
H7_3 H 0.4257 0.5017 0.7551
C12_3 C 0.6404(3) 0.5304(4) 0.91053(16)
H8_3 H 0.6593 0.4906 0.9620
C4_4 C 0.0305(3) 0.2007(4) 0.59358(17)
H4_4 H 0.0395 0.1658 0.6455
C5_4 C 0.1441(3) 0.2048(4) 0.56050(16)
C6_4 C 0.1281(3) 0.2557(4) 0.48115(16)
C7_7 C -0.0000(3) 0.3001(4) 0.43945(17)
C8_4 C 0.2458(3) 0.2697(4) 0.44140(17)
C9_4 C 0.2728(3) 0.1500(4) 0.61194(16)
C10_4 C 0.3065(3) 0.2007(4) 0.69002(16)
H6_4 H 0.2493 0.2755 0.7087
C11_4 C 0.4950(3) 0.0364(4) 0.71131(16)
H7_4 H 0.5743 0.0017 0.7449
C12_4 C 0.3596(3) 0.0304(4) 0.58947(16)
O4_2 O 0.2242(2) 0.2698(3) 0.36689(12)
O5_2 O 0.3631(2) 0.2844(3) 0.48222(11)
H8_4 H 0.3407 0.9906 0.5380
C1_4 C 0.7470(3) 0.3373(4) 0.42909(17)
C2_4 C 0.8879(3) 0.2971(4) 0.47346(17)
C3_2 C 0.9051(3) 0.2469(4) 0.55161(17)
H1_2 H 0.8310 0.2447 0.5757
O1_2 O 0.4220(2) 0.6110(3) 0.37566(11)
H2_2 H 0.3354 0.6482 0.3419
H3_2 H 0.4173 0.6644 0.4274
C7_8 C 1.0000(3) 0.3001(4) 0.43945(17)
H5_4 H 0.9895 0.3327 0.3871
O2_4 O 0.7250(2) 0.3599(3) 0.35626(12)
O3_4 O 0.6538(2) 0.3363(3) 0.46773(12)
C3_3 C 0.9051(3) 0.2531(4) 0.05161(17)
H1_3 H 0.8310 0.2553 0.0757
O1_3 O 0.4220(2) 0.8890(3) 0.87566(11)
H2_3 H 0.3354 0.8518 0.8419
H3_3 H 0.4173 0.8356 0.9274
O1_4 O 0.5780(2) 0.1110(3) 0.12434(11)
H2_4 H 0.6646 0.1482 0.1581
H3_4 H 0.5827 0.1644 0.0726
C3_4 C 0.0949(3) 0.7469(4) 0.94839(17)
H1_4 H 0.1690 0.7447 0.9243
loop_
_geom_bond_atom_site_label_1
_geom_bond_atom_site_label_2
_geom_bond_site_symmetry_1
_geom_bond_site_symmetry_2
H4 C4 1_555 1_555
C5 C4 1_555 1_555
C9 C5 1_555 1_555
C10 C9 1_555 1_555
H6 C10 1_555 1_555
C11 H7 1_555 1_555
C12 C9 1_555 1_555
H8 C12 1_555 1_555
N1 C10 1_555 1_555
N2 C11 1_555 1_555
Cd3 N2 1_555 1_555
Cd4 N1 1_555 1_555
C11 N1 1_555 1_555
C12 N2 1_555 1_555
C8 C6 1_555 1_555
O4 C8 1_555 1_555
O5 C8 1_555 1_555
Cd2 O4 1_555 1_555
C6 C7 1_555 1_555
O5 Cd2 1_555 1_555
C1 C2 1_555 1_555
C7_2 C2 1_555 1_555
H5 C7_2 1_555 1_555
O2 C1 1_555 1_555
O3 C1 1_555 1_555
N3 Cd2 1_555 1_555
N4 Cd2 1_555 1_555
Cd2 O2 1_555 1_555
Cd2 O3 1_555 1_555
C1_2 C2_2 1_555 1_555
C2_2 C3 1_555 1_555
C3 H1 1_555 1_555
O1 H2 1_555 1_555
H3 O1 1_555 1_555
C7_3 C2_2 1_555 1_555
H5_2 C7_3 1_555 1_555
Cd1 O1 1_555 1_555
O2_2 C1_2 1_555 1_555
O3_2 C1_2 1_555 1_555
N3_2 Cd1 1_555 1_555
N4_2 Cd1 1_555 1_555
O6 Cd1 1_555 1_555
O7 Cd1 1_555 1_555
Cd1 O2_2 1_555 1_555
Cd1 O3_2 1_555 1_555
Cd4 N2_2 1_555 1_555
H4_2 C4_2 1_555 1_555
C5_2 C4_2 1_555 1_555
C6_2 C5_2 1_555 1_555
C8_2 C6_2 1_555 1_555
C9_2 C5_2 1_555 1_555
C10_2 C9_2 1_555 1_555
H6_2 C10_2 1_555 1_555
C11_2 H7_2 1_555 1_555
C12_2 C9_2 1_555 1_555
N1_2 C10_2 1_555 1_555
O6 C8_2 1_555 1_555
O7 C8_2 1_555 1_555
Cd3 N1_2 1_555 1_555
C6_2 C7_4 1_555 1_555
C11_2 N1_2 1_555 1_555
C1_3 C2_3 1_555 1_555
C7_5 C2_3 1_555 1_555
H5_3 C7_5 1_555 1_555
O2_3 C1_3 1_555 1_555
O3_3 C1_3 1_555 1_555
O6_2 Cd3 1_555 1_555
O7_2 Cd3 1_555 1_555
Cd3 O2_3 1_555 1_555
Cd3 O3_3 1_555 1_555
C8_3 C6_3 1_555 1_555
O6_2 C8_3 1_555 1_555
O7_2 C8_3 1_555 1_555
C6_3 C7_6 1_555 1_555
H4_3 C4_3 1_555 1_555
C5_3 C4_3 1_555 1_555
C9_3 C5_3 1_555 1_555
C10_3 C9_3 1_555 1_555
H6_3 C10_3 1_555 1_555
C11_3 H7_3 1_555 1_555
C12_3 C9_3 1_555 1_555
H8_3 C12_3 1_555 1_555
N3_2 C10_3 1_555 1_555
N4 C11_3 1_555 1_555
C11_3 N3_2 1_555 1_555
C12_3 N4 1_555 1_555
H4_4 C4_4 1_555 1_555
C5_4 C4_4 1_555 1_555
C6_4 C5_4 1_555 1_555
C8_4 C6_4 1_555 1_555
C9_4 C5_4 1_555 1_555
C10_4 C9_4 1_555 1_555
H6_4 C10_4 1_555 1_555
C11_4 H7_4 1_555 1_555
C12_4 C9_4 1_555 1_555
N3 C10_4 1_555 1_555
O4_2 C8_4 1_555 1_555
O5_2 C8_4 1_555 1_555
Cd4 O4_2 1_555 1_555
C6_4 C7_7 1_555 1_555
C11_4 N3 1_555 1_555
O5_2 Cd4 1_555 1_555
C1_4 C2_4 1_555 1_555
C2_4 C3_2 1_555 1_555
C3_2 H1_2 1_555 1_555
O1_2 H2_2 1_555 1_555
H3_2 O1_2 1_555 1_555
C7_8 C2_4 1_555 1_555
H5_4 C7_8 1_555 1_555
Cd4 O1_2 1_555 1_555
O2_4 C1_4 1_555 1_555
O3_4 C1_4 1_555 1_555
Cd4 O2_4 1_555 1_555
Cd4 O3_4 1_555 1_555
C3_3 H1_3 1_555 1_555
O1_3 H2_3 1_555 1_555
H3_3 O1_3 1_555 1_555
O1_4 H2_4 1_555 1_555
H3_4 O1_4 1_555 1_555
C3_4 H1_4 1_555 1_555

#END
