
###############################################################################
#
# This file contains modified crystal structure data generated from the
# MOF subset of the Cambridge Structural Database (CSD) v543 
# hosted by the Cambridge Crystallographic Data Centre (CCDC).
#
# This work is licensed under the Creative Commons
# Attribution-NonCommercial-ShareAlike 4.0 International License.
# To view a copy of this license, visit
# http://creativecommons.org/licenses/by-nc-sa/4.0/
# or send a letter to
# Creative Commons, PO Box 1866, Mountain View, CA 94042, USA.
#
# CIF created using the CSD Python API on 29 September 2022
# The structure has been converted into the P1 space group
# The structure has a 3D framework
# The original CSD entry FOPPAE is in the triclinic crystal system
# The framework has been calculated to contain at least 10.0% void space
# The void calculation uses a probe of radius 1.32A, grid spacing 0.4
#
###############################################################################

data_FOPPAE
_chemical_formula_moiety         '(C38 H20 N4 O6 S2 Zn2)n'
_symmetry_cell_setting           triclinic
_symmetry_space_group_name_H-M   'P 1'
_symmetry_Int_Tables_number      1
_space_group_name_Hall           'P 1'
loop_
_symmetry_equiv_pos_site_id
_symmetry_equiv_pos_as_xyz
1 x,y,z
_cell_length_a                   8.0961(13)
_cell_length_b                   10.5093(15)
_cell_length_c                   12.981(2)
_cell_angle_alpha                75.761(5)
_cell_angle_beta                 77.486(6)
_cell_angle_gamma                88.858(5)
_cell_volume                     1044.47
loop_
_atom_site_label
_atom_site_type_symbol
_atom_site_fract_x
_atom_site_fract_y
_atom_site_fract_z
_atom_site_U_iso_or_equiv
_atom_site_thermal_displace_type
Zn7 Zn 0.15728(3) 0.08217(3) 0.45408(2) 0.0090 Uani
O2 O 0.0563(2) 0.03303(19) 0.33439(15) 0.0218 Uani
C5 C 0.0544(4) 0.0451(3) 0.0106(2) 0.0231 Uani
C6 C 0.0500(4) 0.0462(3) 0.1198(2) 0.0231 Uani
H3 H 0.1233 0.1056 0.1346 0.0280 Uiso
O5 O 0.1800(2) 0.09363(18) 0.60570(14) 0.0191 Uani
C27 C 0.0605(3) 0.0326(3) 0.6799(2) 0.0162 Uani
C28 C 0.0578(4) 0.0367(3) 0.7953(2) 0.0201 Uani
C29 C 0.1662(4) 0.1259(3) 0.8164(2) 0.0298 Uani
H15 H 0.2412 0.1835 0.7577 0.0360 Uiso
C30 C 0.1637(4) 0.1297(4) 0.9214(2) 0.0343 Uani
H16 H 0.2370 0.1905 0.9345 0.0410 Uiso
S1 S 0.74958(10) 0.54570(9) 0.02038(8) 0.0402 Uani
N3 N 0.3584(3) 0.1895(2) 0.34948(17) 0.0144 Uani
N4 N 0.9349(4) 0.3648(3) 0.1180(2) 0.0362 Uani
C20 C 0.3380(4) 0.3094(3) 0.2882(3) 0.0304 Uani
H11 H 0.2281 0.3441 0.2965 0.0360 Uiso
C21 C 0.4693(4) 0.3841(3) 0.2138(3) 0.0353 Uani
H12 H 0.4500 0.4688 0.1722 0.0420 Uiso
C22 C 0.6300(4) 0.3342(3) 0.2006(2) 0.0229 Uani
C23 C 0.6522(4) 0.2112(3) 0.2641(2) 0.0234 Uani
H13 H 0.7611 0.1747 0.2578 0.0280 Uiso
C24 C 0.5140(3) 0.1422(3) 0.3367(2) 0.0204 Uani
H14 H 0.5303 0.0574 0.3795 0.0250 Uiso
C25 C 0.7765(4) 0.4050(3) 0.1208(2) 0.0255 Uani
O3 O 0.0172(2) 0.77645(17) 0.54189(16) 0.0182 Uani
O4 O 0.2569(2) 0.90071(16) 0.48068(15) 0.0157 Uani
C7 C 0.1761(3) 0.7917(2) 0.5129(2) 0.0135 Uani
C8 C 0.2762(3) 0.6694(2) 0.5155(2) 0.0146 Uani
C9 C 0.1896(3) 0.5448(3) 0.5489(2) 0.0200 Uani
H4 H 0.0697 0.5397 0.5719 0.0240 Uiso
C10 C 0.2770(3) 0.4325(3) 0.5481(2) 0.0191 Uani
H5 H 0.2172 0.3500 0.5692 0.0230 Uiso
C11 C 0.5435(3) 0.5624(2) 0.4838(2) 0.0142 Uani
C12 C 0.4493(3) 0.6769(2) 0.4838(2) 0.0144 Uani
H6 H 0.5067 0.7604 0.4615 0.0170 Uiso
O7 O 0.9828(2) 0.22355(17) 0.45811(16) 0.0182 Uani
O8 O 0.7431(2) 0.09929(16) 0.51932(15) 0.0157 Uani
C33 C 0.8239(3) 0.2083(2) 0.4871(2) 0.0135 Uani
C34 C 0.7238(3) 0.3306(2) 0.4845(2) 0.0146 Uani
C35 C 0.8104(3) 0.4552(3) 0.4511(2) 0.0200 Uani
H18 H 0.9303 0.4603 0.4281 0.0240 Uiso
C36 C 0.7230(3) 0.5675(3) 0.4519(2) 0.0191 Uani
H19 H 0.7828 0.6500 0.4308 0.0230 Uiso
C37 C 0.4565(3) 0.4376(2) 0.5162(2) 0.0142 Uani
C38 C 0.5507(3) 0.3231(2) 0.5162(2) 0.0144 Uani
H20 H 0.4933 0.2396 0.5385 0.0170 Uiso
Zn4 Zn 0.84272(3) 0.91783(3) 0.54592(2) 0.0090 Uani
O1 O 0.8200(2) 0.90637(18) 0.39430(14) 0.0191 Uani
N1 N 0.6416(3) 0.8105(2) 0.65052(17) 0.0144 Uani
N2 N 0.0651(4) 0.6352(3) 0.8820(2) 0.0362 Uani
C1 C 0.9395(3) 0.9674(3) 0.3201(2) 0.0162 Uani
C2 C 0.9422(4) 0.9633(3) 0.2047(2) 0.0201 Uani
C3 C 0.8338(4) 0.8741(3) 0.1836(2) 0.0298 Uani
H1 H 0.7588 0.8165 0.2423 0.0360 Uiso
C4 C 0.8363(4) 0.8703(4) 0.0786(2) 0.0343 Uani
H2 H 0.7630 0.8095 0.0655 0.0410 Uiso
C13 C 0.6620(4) 0.6906(3) 0.7118(3) 0.0304 Uani
H7 H 0.7719 0.6559 0.7035 0.0360 Uiso
C14 C 0.5307(4) 0.6159(3) 0.7862(3) 0.0353 Uani
H8 H 0.5500 0.5312 0.8278 0.0420 Uiso
C15 C 0.3700(4) 0.6658(3) 0.7994(2) 0.0229 Uani
C16 C 0.3478(4) 0.7888(3) 0.7359(2) 0.0234 Uani
H9 H 0.2389 0.8253 0.7422 0.0280 Uiso
C17 C 0.4860(3) 0.8578(3) 0.6633(2) 0.0204 Uani
H10 H 0.4697 0.9426 0.6205 0.0250 Uiso
C18 C 0.2235(4) 0.5950(3) 0.8792(2) 0.0255 Uani
S2 S 0.25042(10) 0.45430(9) 0.97962(8) 0.0402 Uani
O11 O 0.9437(2) 0.96697(19) 0.66561(15) 0.0218 Uani
C31 C 0.9456(4) 0.9549(3) 0.9894(2) 0.0231 Uani
C32 C 0.9500(4) 0.9538(3) 0.8802(2) 0.0231 Uani
H17 H 0.8767 0.8944 0.8654 0.0280 Uiso
C26 C 0.0361(4) 0.4493(3) 0.0305(3) 0.0308 Uani
C19 C 0.9639(4) 0.5507(3) 0.9695(3) 0.0308 Uani
loop_
_atom_site_aniso_label
_atom_site_aniso_U_11
_atom_site_aniso_U_22
_atom_site_aniso_U_33
_atom_site_aniso_U_23
_atom_site_aniso_U_13
_atom_site_aniso_U_12
Zn7 0.0082 0.00842 0.00926 -0.00165 4e-05 0.00054
O2 0.0247 0.0286 0.0146 -0.0072 -0.0073 -0.0006
C5 0.0213 0.0333 0.0158 -0.0088 -0.0028 -0.004
C6 0.0235 0.0321 0.0164 -0.0097 -0.0052 -0.0038
O5 0.0248 0.021 0.0116 -0.0057 -0.0024 0.0002
C27 0.0201 0.0179 0.0132 -0.0069 -0.0064 0.0077
C28 0.0205 0.0282 0.0139 -0.0091 -0.0045 0.0016
C29 0.0305 0.0415 0.0159 -0.0069 -0.0004 -0.0148
C30 0.0353 0.05 0.0182 -0.0113 -0.002 -0.0216
S1 0.0199 0.037 0.045 0.0147 0.0044 -0.0002
N3 0.0133 0.0143 0.0136 -0.0019 -0.0001 -0.0022
N4 0.0302 0.0264 0.0336 0.0084 0.0149 -0.0061
C20 0.0177 0.0235 0.0375 0.007 0.0038 0.004
C21 0.0218 0.0237 0.044 0.0128 0.0034 0.003
C22 0.0183 0.0223 0.0228 0.0008 -0.0001 -0.0028
C23 0.0154 0.0245 0.0256 -0.0016 -0.0002 0.003
C24 0.018 0.0187 0.0198 0.0011 -0.0005 0.0001
C25 0.0165 0.024 0.0276 0.0039 0.0014 -0.0003
O3 0.0113 0.0131 0.0284 -0.004 -0.002 0.0038
O4 0.0141 0.0101 0.0227 -0.0041 -0.0037 0.003
C7 0.0148 0.012 0.0143 -0.0036 -0.0044 0.0031
C8 0.0136 0.0118 0.0184 -0.0043 -0.0033 0.0034
C9 0.01 0.0153 0.0318 -0.0037 -0.0011 0.0011
C10 0.0139 0.0111 0.0308 -0.0047 -0.002 -0.0004
C11 0.0125 0.011 0.0183 -0.0033 -0.0024 0.0018
C12 0.0144 0.0094 0.0198 -0.0041 -0.0043 0.002
O7 0.0113 0.0131 0.0284 -0.004 -0.002 0.0038
O8 0.0141 0.0101 0.0227 -0.0041 -0.0037 0.003
C33 0.0148 0.012 0.0143 -0.0036 -0.0044 0.0031
C34 0.0136 0.0118 0.0184 -0.0043 -0.0033 0.0034
C35 0.01 0.0153 0.0318 -0.0037 -0.0011 0.0011
C36 0.0139 0.0111 0.0308 -0.0047 -0.002 -0.0004
C37 0.0125 0.011 0.0183 -0.0033 -0.0024 0.0018
C38 0.0144 0.0094 0.0198 -0.0041 -0.0043 0.002
Zn4 0.0082 0.00842 0.00926 -0.00165 4e-05 0.00054
O1 0.0248 0.021 0.0116 -0.0057 -0.0024 0.0002
N1 0.0133 0.0143 0.0136 -0.0019 -0.0001 -0.0022
N2 0.0302 0.0264 0.0336 0.0084 0.0149 -0.0061
C1 0.0201 0.0179 0.0132 -0.0069 -0.0064 0.0077
C2 0.0205 0.0282 0.0139 -0.0091 -0.0045 0.0016
C3 0.0305 0.0415 0.0159 -0.0069 -0.0004 -0.0148
C4 0.0353 0.05 0.0182 -0.0113 -0.002 -0.0216
C13 0.0177 0.0235 0.0375 0.007 0.0038 0.004
C14 0.0218 0.0237 0.044 0.0128 0.0034 0.003
C15 0.0183 0.0223 0.0228 0.0008 -0.0001 -0.0028
C16 0.0154 0.0245 0.0256 -0.0016 -0.0002 0.003
C17 0.018 0.0187 0.0198 0.0011 -0.0005 0.0001
C18 0.0165 0.024 0.0276 0.0039 0.0014 -0.0003
S2 0.0199 0.037 0.045 0.0147 0.0044 -0.0002
O11 0.0247 0.0286 0.0146 -0.0072 -0.0073 -0.0006
C31 0.0213 0.0333 0.0158 -0.0088 -0.0028 -0.004
C32 0.0235 0.0321 0.0164 -0.0097 -0.0052 -0.0038
C26 0.0192 0.0297 0.034 0.0038 0.0008 0.0004
C19 0.0192 0.0297 0.034 0.0038 0.0008 0.0004
loop_
_geom_bond_atom_site_label_1
_geom_bond_atom_site_label_2
_geom_bond_site_symmetry_1
_geom_bond_site_symmetry_2
C5 C6 1_555 1_555
H3 C6 1_555 1_555
Zn7 O2 1_555 1_555
O5 C27 1_555 1_555
C27 C28 1_555 1_555
C28 C29 1_555 1_555
C29 H15 1_555 1_555
H16 C30 1_555 1_555
Zn7 O5 1_555 1_555
C29 C30 1_555 1_555
N3 C20 1_555 1_555
N4 C25 1_555 1_555
C20 H11 1_555 1_555
C21 C20 1_555 1_555
H12 C21 1_555 1_555
C22 C21 1_555 1_555
C23 C22 1_555 1_555
H13 C23 1_555 1_555
C24 N3 1_555 1_555
H14 C24 1_555 1_555
C25 S1 1_555 1_555
Zn7 N3 1_555 1_555
C22 C25 1_555 1_555
C23 C24 1_555 1_555
O4 C7 1_555 1_555
C7 O3 1_555 1_555
C8 C7 1_555 1_555
C9 C8 1_555 1_555
H4 C9 1_555 1_555
C10 C9 1_555 1_555
H5 C10 1_555 1_555
C11 C12 1_555 1_555
C12 C8 1_555 1_555
H6 C12 1_555 1_555
O7 C33 1_555 1_555
O8 C33 1_555 1_555
C33 C34 1_555 1_555
C34 C35 1_555 1_555
C35 H18 1_555 1_555
C36 C11 1_555 1_555
H19 C36 1_555 1_555
C37 C10 1_555 1_555
C38 C34 1_555 1_555
H20 C38 1_555 1_555
C11 C37 1_555 1_555
C35 C36 1_555 1_555
C37 C38 1_555 1_555
Zn4 O1 1_555 1_555
O1 C1 1_555 1_555
N1 Zn4 1_555 1_555
N2 C18 1_555 1_555
C1 C2 1_555 1_555
C2 C3 1_555 1_555
C3 H1 1_555 1_555
C4 C3 1_555 1_555
H2 C4 1_555 1_555
C13 N1 1_555 1_555
H7 C13 1_555 1_555
C14 C13 1_555 1_555
H8 C14 1_555 1_555
C15 C14 1_555 1_555
C16 C15 1_555 1_555
H9 C16 1_555 1_555
C17 N1 1_555 1_555
H10 C17 1_555 1_555
C18 C15 1_555 1_555
S2 C18 1_555 1_555
O11 Zn4 1_555 1_555
C16 C17 1_555 1_555
H17 C32 1_555 1_555
C31 C32 1_555 1_555

#END
