
###############################################################################
#
# This file contains modified crystal structure data generated from the
# MOF subset of the Cambridge Structural Database (CSD) v543 
# hosted by the Cambridge Crystallographic Data Centre (CCDC).
#
# This work is licensed under the Creative Commons
# Attribution-NonCommercial-ShareAlike 4.0 International License.
# To view a copy of this license, visit
# http://creativecommons.org/licenses/by-nc-sa/4.0/
# or send a letter to
# Creative Commons, PO Box 1866, Mountain View, CA 94042, USA.
#
# CIF created using the CSD Python API on 29 September 2022
# The structure has been converted into the P1 space group
# The structure has a 3D framework
# The original CSD entry FOPWEO is in the monoclinic crystal system
# The framework has been calculated to contain at least 10.0% void space
# The void calculation uses a probe of radius 1.32A, grid spacing 0.4
#
###############################################################################

data_FOPWEO
_chemical_formula_moiety         '(C88 H64 N48 O32 Pb8)n'
_symmetry_cell_setting           triclinic
_symmetry_space_group_name_H-M   'P 1'
_symmetry_Int_Tables_number      1
_space_group_name_Hall           'P 1'
loop_
_symmetry_equiv_pos_site_id
_symmetry_equiv_pos_as_xyz
1 x,y,z
_cell_length_a                   7.8443(4)
_cell_length_b                   22.1845(13)
_cell_length_c                   21.7657(13)
_cell_angle_alpha                90
_cell_angle_beta                 90.842(2)
_cell_angle_gamma                90
_cell_volume                     3787.3
loop_
_atom_site_label
_atom_site_type_symbol
_atom_site_fract_x
_atom_site_fract_y
_atom_site_fract_z
N3 N 0.0426(10) 0.0211(4) 0.3971(4)
N4 N 0.0257(10) 0.0960(4) 0.2937(4)
C10 C 0.1760(14) 0.0356(5) 0.3653(5)
H7 H 0.2806 0.0198 0.3779
C11 C 0.1738(13) 0.0722(5) 0.3149(5)
H8 H 0.2751 0.0809 0.2950
Pb6 Pb 0.00377(5) 0.67629(2) 0.29508(2)
N2 N 0.7519(10) 0.0328(4) 0.4102(4)
H2 H 0.6579 0.0510 0.4013
O1 O 0.7298(8) 0.1401(4) 0.2503(4)
C3 C 0.8913(12) 0.0453(4) 0.3766(5)
C4 C 0.8823(12) 0.0832(4) 0.3237(5)
C5 C 0.7186(12) 0.1096(5) 0.2978(6)
O5 O 0.5856(9) 0.0984(4) 0.3256(4)
Pb3 Pb 0.49086(5) 0.20844(2) 0.17741(2)
Pb7 Pb 0.99623(5) 0.17629(2) 0.20492(2)
Pb1 Pb 0.50914(5) 0.70844(2) 0.32259(2)
N1 N 0.7588(10) 0.9282(4) 0.4400(4)
H1 H 0.8564 0.9107 0.4375
N5 N 0.5313(10) 0.6745(4) 0.4353(4)
O2 O 0.2344(9) 0.6926(3) 0.3757(4)
O3 O 0.0864(11) 0.6737(5) 0.4567(5)
O4 O 0.9227(9) 0.8370(4) 0.3865(5)
N6 N 0.4830(10) 0.8085(4) 0.3869(4)
N7 N 0.4663(11) 0.9223(4) 0.4376(5)
C1 C 0.6177(12) 0.8961(5) 0.4247(5)
C2 C 0.7543(13) 0.9904(4) 0.4605(5)
H3 H 0.6536 0.9965 0.4851
H4 H 0.8534 0.9982 0.4865
O6 O 0.2657(8) 0.3735(3) 0.6776(4)
O7 O 0.4156(10) 0.4524(4) 0.6482(6)
O8 O 0.7782(8) 0.7567(3) 0.3543(3)
C6 C 0.7879(13) 0.8086(5) 0.3780(5)
C7 C 0.6253(12) 0.8384(4) 0.3980(5)
C8 C 0.3318(14) 0.8337(5) 0.4018(6)
H5 H 0.2308 0.8123 0.3960
C9 C 0.3289(13) 0.8899(5) 0.4251(6)
H6 H 0.2232 0.9071 0.4329
C12 C 0.6797(14) 0.6648(6) 0.4641(6)
H9 H 0.7822 0.6732 0.4449
C13 C 0.6772(17) 0.6418(7) 0.5237(7)
H10 H 0.7806 0.6300 0.5414
N9 N 0.5379(14) 0.6356(7) 0.5569(6)
C14 C 0.3944(16) 0.6483(7) 0.5281(6)
N10 N 0.2469(15) 0.6429(6) 0.5587(6)
H11 H 0.1530 0.6525 0.5403
C15 C 0.241(2) 0.6221(8) 0.6193(9)
H12 H 0.1367 0.6365 0.6376
H13 H 0.3357 0.6399 0.6422
N11 N 0.2495(17) 0.5547(6) 0.6266(7)
H14 H 0.3476 0.5376 0.6305
C16 C 0.1072(17) 0.5200(6) 0.6273(7)
C17 C 0.1134(15) 0.4582(6) 0.6442(6)
C18 C 0.2766(14) 0.4265(5) 0.6550(6)
C21 C 0.3843(14) 0.6681(6) 0.4672(6)
C22 C 0.2230(14) 0.6790(5) 0.4323(6)
Pb4 Pb 0.49086(5) 0.29156(2) 0.67741(2)
N13 N 0.0257(10) 0.4040(4) 0.7937(4)
O9 O 0.2702(8) 0.6401(4) 0.2497(4)
O12 O 0.7343(8) 0.6265(3) 0.3224(4)
O13 O 0.2218(8) 0.2433(3) 0.6457(3)
Pb2 Pb 0.99623(5) 0.32371(2) 0.70492(2)
N8 N 0.9721(10) 0.4278(4) 0.6510(5)
C19 C 0.8240(14) 0.4541(5) 0.6369(7)
H15 H 0.7230 0.4329 0.6421
C20 C 0.8180(18) 0.5124(7) 0.6146(8)
H16 H 0.7132 0.5286 0.6028
N12 N 0.9604(14) 0.5468(6) 0.6093(7)
O10 O 0.7298(8) 0.3599(4) 0.7503(4)
O11 O 0.7656(9) 0.3074(3) 0.6243(4)
Pb2_2 Pb 0.00377(5) 0.82371(2) 0.79508(2)
N8_2 N 0.0279(10) 0.9278(4) 0.8490(5)
C19_2 C 0.1760(14) 0.9541(5) 0.8631(7)
H15_2 H 0.2770 0.9329 0.8579
O10_2 O 0.2702(8) 0.8599(4) 0.7497(4)
O11_2 O 0.2344(9) 0.8074(3) 0.8757(4)
N1_2 N 0.2412(10) 0.4282(4) 0.0600(4)
H1_2 H 0.1436 0.4107 0.0625
N2_2 N 0.2481(10) 0.5328(4) 0.0898(4)
H2_2 H 0.3421 0.5510 0.0987
N5_2 N 0.4687(10) 0.1745(4) 0.0647(4)
O2_2 O 0.7656(9) 0.1926(3) 0.1243(4)
O3_2 O 0.9136(11) 0.1737(5) 0.0433(5)
O4_2 O 0.0773(9) 0.3370(4) 0.1135(5)
N6_2 N 0.5170(10) 0.3085(4) 0.1131(4)
N7_2 N 0.5337(11) 0.4223(4) 0.0624(5)
C1_2 C 0.3823(12) 0.3961(5) 0.0753(5)
C2_2 C 0.2457(13) 0.4904(4) 0.0395(5)
H3_2 H 0.3464 0.4965 0.0149
H4_2 H 0.1466 0.4982 0.0135
C3_2 C 0.1087(12) 0.5453(4) 0.1234(5)
C4_2 C 0.1177(12) 0.5832(4) 0.1763(5)
C5_2 C 0.2814(12) 0.6096(5) 0.2022(6)
O5_2 O 0.4144(9) 0.5984(4) 0.1744(4)
O8_2 O 0.2218(8) 0.2567(3) 0.1457(3)
C6_2 C 0.2121(13) 0.3086(5) 0.1220(5)
C7_2 C 0.3747(12) 0.3384(4) 0.1020(5)
C8_2 C 0.6682(14) 0.3337(5) 0.0982(6)
H5_2 H 0.7692 0.3123 0.1040
C9_2 C 0.6711(13) 0.3899(5) 0.0749(6)
H6_2 H 0.7768 0.4071 0.0671
C12_2 C 0.3203(14) 0.1648(6) 0.0359(6)
H9_2 H 0.2178 0.1732 0.0551
C21_2 C 0.6157(14) 0.1681(6) 0.0328(6)
C22_2 C 0.7770(14) 0.1790(5) 0.0677(6)
O12_2 O 0.2657(8) 0.1265(3) 0.1776(4)
O6_2 O 0.7343(8) 0.8735(3) 0.8224(4)
O7_2 O 0.5844(10) 0.9524(4) 0.8518(6)
C17_2 C 0.8866(15) 0.9582(6) 0.8558(6)
C18_2 C 0.7234(14) 0.9265(5) 0.8450(6)
Pb4_2 Pb 0.50914(5) 0.79156(2) 0.82259(2)
N13_2 N 0.9743(10) 0.9040(4) 0.7063(4)
O13_2 O 0.7782(8) 0.7433(3) 0.8543(3)
N3_2 N 0.9574(10) 0.5211(4) 0.1029(4)
N4_2 N 0.9743(10) 0.5960(4) 0.2063(4)
C10_2 C 0.8240(14) 0.5356(5) 0.1347(5)
H7_2 H 0.7194 0.5198 0.1221
C11_2 C 0.8262(13) 0.5722(5) 0.1851(5)
H8_2 H 0.7249 0.5809 0.2050
N8_3 N 0.0279(10) 0.5722(4) 0.3490(5)
C19_3 C 0.1760(14) 0.5459(5) 0.3631(7)
H15_3 H 0.2770 0.5671 0.3579
C20_2 C 0.1820(18) 0.4876(7) 0.3854(8)
H16_2 H 0.2868 0.4714 0.3972
N12_2 N 0.0396(14) 0.4532(6) 0.3907(7)
N1_3 N 0.2412(10) 0.0718(4) 0.5600(4)
H1_3 H 0.1436 0.0893 0.5625
N5_3 N 0.4687(10) 0.3255(4) 0.5647(4)
O3_3 O 0.9136(11) 0.3263(5) 0.5433(5)
O4_3 O 0.0773(9) 0.1630(4) 0.6135(5)
N6_3 N 0.5170(10) 0.1915(4) 0.6131(4)
N7_3 N 0.5337(11) 0.0777(4) 0.5624(5)
C1_3 C 0.3823(12) 0.1039(5) 0.5753(5)
C2_3 C 0.2457(13) 0.0096(4) 0.5395(5)
H3_3 H 0.3464 0.0035 0.5149
H4_3 H 0.1466 0.0018 0.5135
O7_3 O 0.5844(10) 0.5476(4) 0.3518(6)
C6_3 C 0.2121(13) 0.1914(5) 0.6220(5)
C7_3 C 0.3747(12) 0.1616(4) 0.6020(5)
C8_3 C 0.6682(14) 0.1663(5) 0.5982(6)
H5_3 H 0.7692 0.1877 0.6040
C9_3 C 0.6711(13) 0.1101(5) 0.5749(6)
H6_3 H 0.7768 0.0929 0.5671
C12_3 C 0.3203(14) 0.3352(6) 0.5359(6)
H9_3 H 0.2178 0.3268 0.5551
C13_2 C 0.3228(17) 0.3582(7) 0.4763(7)
H10_2 H 0.2194 0.3700 0.4586
N9_2 N 0.4621(14) 0.3644(7) 0.4431(6)
C14_2 C 0.6056(16) 0.3517(7) 0.4719(6)
N10_2 N 0.7531(15) 0.3571(6) 0.4413(6)
H11_2 H 0.8470 0.3475 0.4597
C15_2 C 0.759(2) 0.3779(8) 0.3807(9)
H12_2 H 0.8633 0.3635 0.3624
H13_2 H 0.6643 0.3601 0.3578
N11_2 N 0.7505(17) 0.4453(6) 0.3734(7)
H14_2 H 0.6524 0.4624 0.3695
C16_2 C 0.8928(17) 0.4800(6) 0.3727(7)
C17_3 C 0.8866(15) 0.5418(6) 0.3558(6)
C18_3 C 0.7234(14) 0.5735(5) 0.3450(6)
C21_3 C 0.6157(14) 0.3319(6) 0.5328(6)
C22_3 C 0.7770(14) 0.3210(5) 0.5677(6)
N2_3 N 0.2481(10) 0.9672(4) 0.5898(4)
H2_3 H 0.3421 0.9490 0.5987
C3_3 C 0.1087(12) 0.9547(4) 0.6234(5)
C4_3 C 0.1177(12) 0.9168(4) 0.6763(5)
C5_3 C 0.2814(12) 0.8904(5) 0.7022(6)
O5_3 O 0.4144(9) 0.9016(4) 0.6744(4)
N3_3 N 0.9574(10) 0.9789(4) 0.6029(4)
C10_3 C 0.8240(14) 0.9644(5) 0.6347(5)
H7_3 H 0.7194 0.9802 0.6221
C11_3 C 0.8262(13) 0.9278(5) 0.6851(5)
H8_3 H 0.7249 0.9191 0.7050
N3_4 N 0.0426(10) 0.4789(4) 0.8971(4)
C10_4 C 0.1760(14) 0.4644(5) 0.8653(5)
H7_4 H 0.2806 0.4802 0.8779
C11_4 C 0.1738(13) 0.4278(5) 0.8149(5)
H8_4 H 0.2751 0.4191 0.7950
O7_4 O 0.4156(10) 0.0476(4) 0.1482(6)
C17_4 C 0.1134(15) 0.0418(6) 0.1442(6)
C18_4 C 0.2766(14) 0.0735(5) 0.1550(6)
N1_4 N 0.7588(10) 0.5718(4) 0.9400(4)
H1_4 H 0.8564 0.5893 0.9375
N2_4 N 0.7519(10) 0.4672(4) 0.9102(4)
H2_4 H 0.6579 0.4490 0.9013
N5_4 N 0.5313(10) 0.8255(4) 0.9353(4)
O3_4 O 0.0864(11) 0.8263(5) 0.9567(5)
O4_4 O 0.9227(9) 0.6630(4) 0.8865(5)
N6_4 N 0.4830(10) 0.6915(4) 0.8869(4)
N7_4 N 0.4663(11) 0.5777(4) 0.9376(5)
C1_4 C 0.6177(12) 0.6039(5) 0.9247(5)
C2_4 C 0.7543(13) 0.5096(4) 0.9605(5)
H3_4 H 0.6536 0.5035 0.9851
H4_4 H 0.8534 0.5018 0.9865
C3_4 C 0.8913(12) 0.4547(4) 0.8766(5)
C4_4 C 0.8823(12) 0.4168(4) 0.8237(5)
C5_4 C 0.7186(12) 0.3904(5) 0.7978(6)
O5_4 O 0.5856(9) 0.4016(4) 0.8256(4)
C6_4 C 0.7879(13) 0.6914(5) 0.8780(5)
C7_4 C 0.6253(12) 0.6616(4) 0.8980(5)
C8_4 C 0.3318(14) 0.6663(5) 0.9018(6)
H5_4 H 0.2308 0.6877 0.8960
C9_4 C 0.3289(13) 0.6101(5) 0.9251(6)
H6_4 H 0.2232 0.5929 0.9329
C12_4 C 0.6797(14) 0.8352(6) 0.9641(6)
H9_4 H 0.7822 0.8268 0.9449
C21_4 C 0.3843(14) 0.8319(6) 0.9672(6)
C22_4 C 0.2230(14) 0.8210(5) 0.9323(6)
N8_4 N 0.9721(10) 0.0722(4) 0.1510(5)
C19_4 C 0.8240(14) 0.0459(5) 0.1369(7)
H15_4 H 0.7230 0.0671 0.1421
C20_3 C 0.1820(18) 0.0124(7) 0.8854(8)
H16_3 H 0.2868 0.0286 0.8972
N12_3 N 0.0396(14) 0.0468(6) 0.8907(7)
C13_3 C 0.3228(17) 0.1418(7) 0.9763(7)
H10_3 H 0.2194 0.1300 0.9586
N9_3 N 0.4621(14) 0.1356(7) 0.9431(6)
C14_3 C 0.6056(16) 0.1483(7) 0.9719(6)
N10_3 N 0.7531(15) 0.1429(6) 0.9413(6)
H11_3 H 0.8470 0.1525 0.9597
C15_3 C 0.759(2) 0.1221(8) 0.8807(9)
H12_3 H 0.8633 0.1365 0.8624
H13_3 H 0.6643 0.1399 0.8578
N11_3 N 0.7505(17) 0.0547(6) 0.8734(7)
H14_3 H 0.6524 0.0376 0.8695
C16_3 C 0.8928(17) 0.0200(6) 0.8727(7)
C13_4 C 0.6772(17) 0.8582(7) 0.0237(7)
H10_4 H 0.7806 0.8700 0.0414
N9_4 N 0.5379(14) 0.8644(7) 0.0569(6)
C14_4 C 0.3944(16) 0.8517(7) 0.0281(6)
N10_4 N 0.2469(15) 0.8571(6) 0.0587(6)
H11_4 H 0.1530 0.8475 0.0403
C15_4 C 0.241(2) 0.8779(8) 0.1193(9)
H12_4 H 0.1367 0.8635 0.1376
H13_4 H 0.3357 0.8601 0.1422
N11_4 N 0.2495(17) 0.9453(6) 0.1266(7)
H14_4 H 0.3476 0.9624 0.1305
C16_4 C 0.1072(17) 0.9800(6) 0.1273(7)
C20_4 C 0.8180(18) 0.9876(7) 0.1146(8)
H16_4 H 0.7132 0.9714 0.1028
N12_4 N 0.9604(14) 0.9532(6) 0.1093(7)
loop_
_geom_bond_atom_site_label_1
_geom_bond_atom_site_label_2
_geom_bond_site_symmetry_1
_geom_bond_site_symmetry_2
C10 N3 1_555 1_555
H7 C10 1_555 1_555
C11 N4 1_555 1_555
H8 C11 1_555 1_555
C10 C11 1_555 1_555
N2 H2 1_555 1_555
O1 C5 1_555 1_555
C3 N2 1_555 1_555
C4 C3 1_555 1_555
C5 C4 1_555 1_555
O5 C5 1_555 1_555
Pb3 O1 1_555 1_555
O1 Pb7 1_555 1_555
Pb1 N5 1_555 1_555
N1 H1 1_555 1_555
N5 C12 1_555 1_555
O2 Pb1 1_555 1_555
O3 C22 1_555 1_555
O4 C6 1_555 1_555
N6 Pb1 1_555 1_555
N7 C1 1_555 1_555
C1 N1 1_555 1_555
C2 N1 1_555 1_555
H3 C2 1_555 1_555
H4 C2 1_555 1_555
O7 C18 1_555 1_555
O8 Pb1 1_555 1_555
C6 O8 1_555 1_555
C7 N6 1_555 1_555
C8 N6 1_555 1_555
H5 C8 1_555 1_555
C9 N7 1_555 1_555
H6 C9 1_555 1_555
C12 H9 1_555 1_555
C13 C12 1_555 1_555
H10 C13 1_555 1_555
N9 C13 1_555 1_555
C14 N9 1_555 1_555
N10 C14 1_555 1_555
H11 N10 1_555 1_555
C15 N10 1_555 1_555
H12 C15 1_555 1_555
H13 C15 1_555 1_555
N11 C15 1_555 1_555
H14 N11 1_555 1_555
C16 N11 1_555 1_555
C17 C16 1_555 1_555
C18 O6 1_555 1_555
C21 N5 1_555 1_555
C22 O2 1_555 1_555
Pb4 O6 1_555 1_555
Pb6 O2 1_555 1_555
O9 Pb1 1_555 1_555
O12 Pb1 1_555 1_555
C1 C7 1_555 1_555
C6 C7 1_555 1_555
C8 C9 1_555 1_555
C14 C21 1_555 1_555
C17 C18 1_555 1_555
C21 C22 1_555 1_555
Pb4 O13 1_555 1_555
Pb6 O9 1_555 1_555
Pb2 N8 1_555 1_555
C19 N8 1_555 1_555
H15 C19 1_555 1_555
C20 C19 1_555 1_555
H16 C20 1_555 1_555
O10 Pb2 1_555 1_555
O11 Pb2 1_555 1_555
C20 N12 1_555 1_555
Pb2_2 N8_2 1_555 1_555
C19_2 N8_2 1_555 1_555
H15_2 C19_2 1_555 1_555
O10_2 Pb2_2 1_555 1_555
O11_2 Pb2_2 1_555 1_555
Pb3 N5_2 1_555 1_555
N1_2 H1_2 1_555 1_555
N2_2 H2_2 1_555 1_555
O9 C5_2 1_555 1_555
N5_2 C12_2 1_555 1_555
O2_2 Pb3 1_555 1_555
O3_2 C22_2 1_555 1_555
O4_2 C6_2 1_555 1_555
N6_2 Pb3 1_555 1_555
N7_2 C1_2 1_555 1_555
C1_2 N1_2 1_555 1_555
C2_2 N1_2 1_555 1_555
H3_2 C2_2 1_555 1_555
H4_2 C2_2 1_555 1_555
C3_2 N2_2 1_555 1_555
C4_2 C3_2 1_555 1_555
C5_2 C4_2 1_555 1_555
O5_2 C5_2 1_555 1_555
O8_2 Pb3 1_555 1_555
C6_2 O8_2 1_555 1_555
C7_2 N6_2 1_555 1_555
C8_2 N6_2 1_555 1_555
H5_2 C8_2 1_555 1_555
C9_2 N7_2 1_555 1_555
H6_2 C9_2 1_555 1_555
C12_2 H9_2 1_555 1_555
C21_2 N5_2 1_555 1_555
C22_2 O2_2 1_555 1_555
Pb7 O2_2 1_555 1_555
O12_2 Pb3 1_555 1_555
N2_2 C2_2 1_555 1_555
C1_2 C7_2 1_555 1_555
C6_2 C7_2 1_555 1_555
C8_2 C9_2 1_555 1_555
C21_2 C22_2 1_555 1_555
O7_2 C18_2 1_555 1_555
C18_2 O6_2 1_555 1_555
Pb4_2 O6_2 1_555 1_555
C17_2 C18_2 1_555 1_555
Pb4_2 O13_2 1_555 1_555
C10_2 N3_2 1_555 1_555
H7_2 C10_2 1_555 1_555
C11_2 N4_2 1_555 1_555
H8_2 C11_2 1_555 1_555
C10_2 C11_2 1_555 1_555
Pb6 N8_3 1_555 1_555
C19_3 N8_3 1_555 1_555
H15_3 C19_3 1_555 1_555
C20_2 C19_3 1_555 1_555
H16_2 C20_2 1_555 1_555
C20_2 N12_2 1_555 1_555
Pb4 N5_3 1_555 1_555
N1_3 H1_3 1_555 1_555
N5_3 C12_3 1_555 1_555
O11 Pb4 1_555 1_555
O3_3 C22_3 1_555 1_555
O4_3 C6_3 1_555 1_555
N6_3 Pb4 1_555 1_555
N7_3 C1_3 1_555 1_555
C1_3 N1_3 1_555 1_555
C2_3 N1_3 1_555 1_555
H3_3 C2_3 1_555 1_555
H4_3 C2_3 1_555 1_555
O7_3 C18_3 1_555 1_555
C6_3 O13 1_555 1_555
C7_3 N6_3 1_555 1_555
C8_3 N6_3 1_555 1_555
H5_3 C8_3 1_555 1_555
C9_3 N7_3 1_555 1_555
H6_3 C9_3 1_555 1_555
C12_3 H9_3 1_555 1_555
C13_2 C12_3 1_555 1_555
H10_2 C13_2 1_555 1_555
N9_2 C13_2 1_555 1_555
C14_2 N9_2 1_555 1_555
N10_2 C14_2 1_555 1_555
H11_2 N10_2 1_555 1_555
C15_2 N10_2 1_555 1_555
H12_2 C15_2 1_555 1_555
H13_2 C15_2 1_555 1_555
N11_2 C15_2 1_555 1_555
H14_2 N11_2 1_555 1_555
C16_2 N11_2 1_555 1_555
C17_3 C16_2 1_555 1_555
C18_3 O12 1_555 1_555
C21_3 N5_3 1_555 1_555
C22_3 O11 1_555 1_555
O10 Pb4 1_555 1_555
C1_3 C7_3 1_555 1_555
C6_3 C7_3 1_555 1_555
C8_3 C9_3 1_555 1_555
C14_2 C21_3 1_555 1_555
C17_3 C18_3 1_555 1_555
C21_3 C22_3 1_555 1_555
N2_3 H2_3 1_555 1_555
O10_2 C5_3 1_555 1_555
C3_3 N2_3 1_555 1_555
C4_3 C3_3 1_555 1_555
C5_3 C4_3 1_555 1_555
O5_3 C5_3 1_555 1_555
Pb4_2 O10_2 1_555 1_555
C10_3 N3_3 1_555 1_555
H7_3 C10_3 1_555 1_555
C11_3 N13_2 1_555 1_555
H8_3 C11_3 1_555 1_555
C10_3 C11_3 1_555 1_555
C10_4 N3_4 1_555 1_555
H7_4 C10_4 1_555 1_555
C11_4 N13 1_555 1_555
H8_4 C11_4 1_555 1_555
C10_4 C11_4 1_555 1_555
O7_4 C18_4 1_555 1_555
C18_4 O12_2 1_555 1_555
C17_4 C18_4 1_555 1_555
Pb4_2 N5_4 1_555 1_555
N1_4 H1_4 1_555 1_555
N2_4 H2_4 1_555 1_555
O10 C5_4 1_555 1_555
N5_4 C12_4 1_555 1_555
O11_2 Pb4_2 1_555 1_555
O3_4 C22_4 1_555 1_555
O4_4 C6_4 1_555 1_555
N6_4 Pb4_2 1_555 1_555
N7_4 C1_4 1_555 1_555
C1_4 N1_4 1_555 1_555
C2_4 N1_4 1_555 1_555
H3_4 C2_4 1_555 1_555
H4_4 C2_4 1_555 1_555
C3_4 N2_4 1_555 1_555
C4_4 C3_4 1_555 1_555
C5_4 C4_4 1_555 1_555
O5_4 C5_4 1_555 1_555
C6_4 O13_2 1_555 1_555
C7_4 N6_4 1_555 1_555
C8_4 N6_4 1_555 1_555
H5_4 C8_4 1_555 1_555
C9_4 N7_4 1_555 1_555
H6_4 C9_4 1_555 1_555
C12_4 H9_4 1_555 1_555
C21_4 N5_4 1_555 1_555
C22_4 O11_2 1_555 1_555
N2_4 C2_4 1_555 1_555
C1_4 C7_4 1_555 1_555
C6_4 C7_4 1_555 1_555
C8_4 C9_4 1_555 1_555
C21_4 C22_4 1_555 1_555
Pb7 N8_4 1_555 1_555
C19_4 N8_4 1_555 1_555
H15_4 C19_4 1_555 1_555
H16_3 C20_3 1_555 1_555
C20_3 N12_3 1_555 1_555
H10_3 C13_3 1_555 1_555
N9_3 C13_3 1_555 1_555
C14_3 N9_3 1_555 1_555
N10_3 C14_3 1_555 1_555
H11_3 N10_3 1_555 1_555
C15_3 N10_3 1_555 1_555
H12_3 C15_3 1_555 1_555
H13_3 C15_3 1_555 1_555
N11_3 C15_3 1_555 1_555
H14_3 N11_3 1_555 1_555
C16_3 N11_3 1_555 1_555
H10_4 C13_4 1_555 1_555
N9_4 C13_4 1_555 1_555
C14_4 N9_4 1_555 1_555
N10_4 C14_4 1_555 1_555
H11_4 N10_4 1_555 1_555
C15_4 N10_4 1_555 1_555
H12_4 C15_4 1_555 1_555
H13_4 C15_4 1_555 1_555
N11_4 C15_4 1_555 1_555
H14_4 N11_4 1_555 1_555
C16_4 N11_4 1_555 1_555
H16_4 C20_4 1_555 1_555
C20_4 N12_4 1_555 1_555

#END
