
###############################################################################
#
# This file contains modified crystal structure data generated from the
# MOF subset of the Cambridge Structural Database (CSD) v543 
# hosted by the Cambridge Crystallographic Data Centre (CCDC).
#
# This work is licensed under the Creative Commons
# Attribution-NonCommercial-ShareAlike 4.0 International License.
# To view a copy of this license, visit
# http://creativecommons.org/licenses/by-nc-sa/4.0/
# or send a letter to
# Creative Commons, PO Box 1866, Mountain View, CA 94042, USA.
#
# CIF created using the CSD Python API on 29 September 2022
# The structure has been converted into the P1 space group
# The structure has a 3D framework
# The original CSD entry FOQPAF is in the cubic crystal system
# The framework has been calculated to contain at least 10.0% void space
# The void calculation uses a probe of radius 1.32A, grid spacing 0.4
#
###############################################################################

data_FOQPAF
_chemical_formula_moiety         '(C72 H48 N72 O48 Zn12)n'
_symmetry_cell_setting           triclinic
_symmetry_space_group_name_H-M   'P 1'
_symmetry_Int_Tables_number      1
_space_group_name_Hall           'P 1'
loop_
_symmetry_equiv_pos_site_id
_symmetry_equiv_pos_as_xyz
1 x,y,z
_cell_length_a                   17.2917(5)
_cell_length_b                   17.2917(5)
_cell_length_c                   17.2917(5)
_cell_angle_alpha                90
_cell_angle_beta                 90
_cell_angle_gamma                90
_cell_volume                     5170.27
loop_
_atom_site_label
_atom_site_type_symbol
_atom_site_fract_x
_atom_site_fract_y
_atom_site_fract_z
Zn1 Zn -0.0000 0.2500 0.5000
N1 N 0.01764(7) 0.30764(8) 0.60019(8)
C2 C 0.07528(14) 0.29251(13) 0.65199(14)
H1 H 0.1099 0.2499 0.6496
N3 N 0.01764(7) 0.39981(8) 0.69236(8)
C3 C 0.07528(14) 0.34801(14) 0.70749(13)
H2 H 0.1099 0.3504 0.7501
O3 O 0.10032(11) 0.38178(9) 0.47030(9)
N5 N 0.07538(14) 0.41066(9) 0.41066(9)
C4 C 0.01286(13) 0.37262(8) 0.37262(8)
O4 O 0.10032(11) 0.47030(9) 0.38178(9)
Zn2 Zn -0.0000 0.5000 0.2500
Zn3 Zn 0.0000 0.5000 0.7500
N7 N 0.10019(8) 0.19236(8) 0.48236(7)
Zn1_2 Zn 1.0000 0.2500 0.5000
O1 O 0.89968(11) 0.38178(9) 0.52970(9)
N2 N 0.92462(14) 0.41066(9) 0.58934(9)
C1 C 0.98714(13) 0.37262(8) 0.62738(8)
O2 O 0.89968(11) 0.47030(9) 0.61822(9)
N4 N 0.98236(7) 0.30764(8) 0.39981(8)
C5 C 0.92472(14) 0.29251(13) 0.34801(14)
H3 H 0.8901 0.2499 0.3504
N6 N 0.98236(7) 0.39981(8) 0.30764(8)
C6 C 0.92472(14) 0.34801(14) 0.29251(13)
H4 H 0.8901 0.3504 0.2499
Zn2_2 Zn 1.0000 0.5000 0.2500
Zn3_2 Zn 1.0000 0.5000 0.7500
N8 N 0.89981(8) 0.19236(8) 0.51764(7)
Zn1_3 Zn 0.0000 0.7500 0.5000
O1_2 O 0.10032(11) 0.61822(9) 0.52970(9)
N2_2 N 0.07538(14) 0.58934(9) 0.58934(9)
C1_2 C 0.01286(13) 0.62738(8) 0.62738(8)
O2_2 O 0.10032(11) 0.52970(9) 0.61822(9)
N4_2 N 0.01764(7) 0.69236(8) 0.39981(8)
C5_2 C 0.07528(14) 0.70749(13) 0.34801(14)
H3_2 H 0.1099 0.7501 0.3504
N6_2 N 0.01764(7) 0.60019(8) 0.30764(8)
C6_2 C 0.07528(14) 0.65199(14) 0.29251(13)
H4_2 H 0.1099 0.6496 0.2499
N8_2 N 0.10019(8) 0.80764(8) 0.51764(7)
Zn1_4 Zn 1.0000 0.7500 0.5000
N1_2 N 0.98236(7) 0.69236(8) 0.60019(8)
C2_2 C 0.92472(14) 0.70749(13) 0.65199(14)
H1_2 H 0.8901 0.7501 0.6496
N3_2 N 0.98236(7) 0.60019(8) 0.69236(8)
C3_2 C 0.92472(14) 0.65199(14) 0.70749(13)
H2_2 H 0.8901 0.6496 0.7501
O3_2 O 0.89968(11) 0.61822(9) 0.47030(9)
N5_2 N 0.92462(14) 0.58934(9) 0.41066(9)
C4_2 C 0.98714(13) 0.62738(8) 0.37262(8)
O4_2 O 0.89968(11) 0.52970(9) 0.38178(9)
N7_2 N 0.89981(8) 0.80764(8) 0.48236(7)
Zn1_5 Zn 0.5000 0.0000 0.2500
N1_3 N 0.60019(8) 0.01764(7) 0.30764(8)
C2_3 C 0.65199(14) 0.07528(14) 0.29251(13)
H1_3 H 0.6496 0.1099 0.2499
N3_3 N 0.69236(8) 0.01764(7) 0.39981(8)
C3_3 C 0.70749(13) 0.07528(14) 0.34801(14)
H2_3 H 0.7501 0.1099 0.3504
O3_3 O 0.47030(9) 0.10032(11) 0.38178(9)
N5_3 N 0.41066(9) 0.07538(14) 0.41066(9)
C4_3 C 0.37262(8) 0.01286(13) 0.37262(8)
O4_3 O 0.38178(9) 0.10032(11) 0.47030(9)
Zn2_3 Zn 0.2500 0.0000 0.5000
Zn3_3 Zn 0.7500 0.0000 0.5000
N7_3 N 0.48236(7) 0.10019(8) 0.19236(8)
Zn1_6 Zn 0.5000 1.0000 0.2500
O1_3 O 0.52970(9) 0.89968(11) 0.38178(9)
N2_3 N 0.58934(9) 0.92462(14) 0.41066(9)
C1_3 C 0.62738(8) 0.98714(13) 0.37262(8)
O2_3 O 0.61822(9) 0.89968(11) 0.47030(9)
N4_3 N 0.39981(8) 0.98236(7) 0.30764(8)
C5_3 C 0.34801(14) 0.92472(14) 0.29251(13)
H3_3 H 0.3504 0.8901 0.2499
N6_3 N 0.30764(8) 0.98236(7) 0.39981(8)
C6_3 C 0.29251(13) 0.92472(14) 0.34801(14)
H4_3 H 0.2499 0.8901 0.3504
Zn2_4 Zn 0.2500 1.0000 0.5000
Zn3_4 Zn 0.7500 1.0000 0.5000
N8_3 N 0.51764(7) 0.89981(8) 0.19236(8)
Zn1_7 Zn 0.5000 0.0000 0.7500
O1_4 O 0.52970(9) 0.10032(11) 0.61822(9)
N2_4 N 0.58934(9) 0.07538(14) 0.58934(9)
C1_4 C 0.62738(8) 0.01286(13) 0.62738(8)
O2_4 O 0.61822(9) 0.10032(11) 0.52970(9)
N4_4 N 0.39981(8) 0.01764(7) 0.69236(8)
C5_4 C 0.34801(14) 0.07528(14) 0.70749(13)
H3_4 H 0.3504 0.1099 0.7501
N6_4 N 0.30764(8) 0.01764(7) 0.60019(8)
C6_4 C 0.29251(13) 0.07528(14) 0.65199(14)
H4_4 H 0.2499 0.1099 0.6496
N8_4 N 0.51764(7) 0.10019(8) 0.80764(8)
Zn1_8 Zn 0.5000 1.0000 0.7500
N1_4 N 0.60019(8) 0.98236(7) 0.69236(8)
C2_4 C 0.65199(14) 0.92472(14) 0.70749(13)
H1_4 H 0.6496 0.8901 0.7501
N3_4 N 0.69236(8) 0.98236(7) 0.60019(8)
C3_4 C 0.70749(13) 0.92472(14) 0.65199(14)
H2_4 H 0.7501 0.8901 0.6496
O3_4 O 0.47030(9) 0.89968(11) 0.61822(9)
N5_4 N 0.41066(9) 0.92462(14) 0.58934(9)
C4_4 C 0.37262(8) 0.98714(13) 0.62738(8)
O4_4 O 0.38178(9) 0.89968(11) 0.52970(9)
N7_4 N 0.48236(7) 0.89981(8) 0.80764(8)
Zn1_9 Zn 0.2500 0.5000 0.0000
N1_5 N 0.30764(8) 0.60019(8) 0.01764(7)
C2_5 C 0.29251(13) 0.65199(14) 0.07528(14)
H1_5 H 0.2499 0.6496 0.1099
N3_5 N 0.39981(8) 0.69236(8) 0.01764(7)
C3_5 C 0.34801(14) 0.70749(13) 0.07528(14)
H2_5 H 0.3504 0.7501 0.1099
O3_5 O 0.38178(9) 0.47030(9) 0.10032(11)
N5_5 N 0.41066(9) 0.41066(9) 0.07538(14)
C4_5 C 0.37262(8) 0.37262(8) 0.01286(13)
O4_5 O 0.47030(9) 0.38178(9) 0.10032(11)
Zn2_5 Zn 0.5000 0.2500 0.0000
Zn3_5 Zn 0.5000 0.7500 0.0000
N7_5 N 0.19236(8) 0.48236(7) 0.10019(8)
Zn1_10 Zn 0.2500 0.5000 1.0000
O1_5 O 0.38178(9) 0.52970(9) 0.89968(11)
N2_5 N 0.41066(9) 0.58934(9) 0.92462(14)
C1_5 C 0.37262(8) 0.62738(8) 0.98714(13)
O2_5 O 0.47030(9) 0.61822(9) 0.89968(11)
N4_5 N 0.30764(8) 0.39981(8) 0.98236(7)
C5_5 C 0.29251(13) 0.34801(14) 0.92472(14)
H3_5 H 0.2499 0.3504 0.8901
N6_5 N 0.39981(8) 0.30764(8) 0.98236(7)
C6_5 C 0.34801(14) 0.29251(13) 0.92472(14)
H4_5 H 0.3504 0.2499 0.8901
Zn2_6 Zn 0.5000 0.2500 1.0000
Zn3_6 Zn 0.5000 0.7500 1.0000
N8_5 N 0.19236(8) 0.51764(7) 0.89981(8)
Zn1_11 Zn 0.7500 0.5000 0.0000
O1_6 O 0.61822(9) 0.52970(9) 0.10032(11)
N2_6 N 0.58934(9) 0.58934(9) 0.07538(14)
C1_6 C 0.62738(8) 0.62738(8) 0.01286(13)
O2_6 O 0.52970(9) 0.61822(9) 0.10032(11)
N4_6 N 0.69236(8) 0.39981(8) 0.01764(7)
C5_6 C 0.70749(13) 0.34801(14) 0.07528(14)
H3_6 H 0.7501 0.3504 0.1099
N6_6 N 0.60019(8) 0.30764(8) 0.01764(7)
C6_6 C 0.65199(14) 0.29251(13) 0.07528(14)
H4_6 H 0.6496 0.2499 0.1099
N8_6 N 0.80764(8) 0.51764(7) 0.10019(8)
Zn1_12 Zn 0.7500 0.5000 1.0000
N1_6 N 0.69236(8) 0.60019(8) 0.98236(7)
C2_6 C 0.70749(13) 0.65199(14) 0.92472(14)
H1_6 H 0.7501 0.6496 0.8901
N3_6 N 0.60019(8) 0.69236(8) 0.98236(7)
C3_6 C 0.65199(14) 0.70749(13) 0.92472(14)
H2_6 H 0.6496 0.7501 0.8901
O3_6 O 0.61822(9) 0.47030(9) 0.89968(11)
N5_6 N 0.58934(9) 0.41066(9) 0.92462(14)
C4_6 C 0.62738(8) 0.37262(8) 0.98714(13)
O4_6 O 0.52970(9) 0.38178(9) 0.89968(11)
N7_6 N 0.80764(8) 0.48236(7) 0.89981(8)
N7_7 N 0.19236(8) 0.10019(8) 0.48236(7)
N8_7 N 0.19236(8) 0.89981(8) 0.51764(7)
N8_8 N 0.80764(8) 0.10019(8) 0.51764(7)
N7_8 N 0.80764(8) 0.89981(8) 0.48236(7)
N7_9 N 0.10019(8) 0.48236(7) 0.19236(8)
N8_9 N 0.89981(8) 0.51764(7) 0.19236(8)
N8_10 N 0.10019(8) 0.51764(7) 0.80764(8)
N7_10 N 0.89981(8) 0.48236(7) 0.80764(8)
N7_11 N 0.48236(7) 0.19236(8) 0.10019(8)
N8_11 N 0.51764(7) 0.19236(8) 0.89981(8)
N8_12 N 0.51764(7) 0.80764(8) 0.10019(8)
N7_12 N 0.48236(7) 0.80764(8) 0.89981(8)
O1_7 O 0.39968(11) 0.88178(9) 0.02970(9)
N2_7 N 0.42462(14) 0.91066(9) 0.08934(9)
C1_7 C 0.48714(13) 0.87262(8) 0.12738(8)
C2_7 C 0.57528(14) 0.79251(13) 0.15199(14)
H1_7 H 0.6099 0.7499 0.1496
O2_7 O 0.39968(11) 0.97030(9) 0.11822(9)
C3_7 C 0.57528(14) 0.84801(14) 0.20749(13)
H2_7 H 0.6099 0.8504 0.2501
O3_7 O 0.60032(11) 0.88178(9) 0.97030(9)
N5_7 N 0.57538(14) 0.91066(9) 0.91066(9)
C4_7 C 0.51286(13) 0.87262(8) 0.87262(8)
C5_7 C 0.42472(14) 0.79251(13) 0.84801(14)
H3_7 H 0.3901 0.7499 0.8504
O4_7 O 0.60032(11) 0.97030(9) 0.88178(9)
C6_7 C 0.42472(14) 0.84801(14) 0.79251(13)
H4_7 H 0.3901 0.8504 0.7499
O1_8 O 0.60032(11) 0.11822(9) 0.02970(9)
N2_8 N 0.57538(14) 0.08934(9) 0.08934(9)
C1_8 C 0.51286(13) 0.12738(8) 0.12738(8)
C2_8 C 0.42472(14) 0.20749(13) 0.15199(14)
H1_8 H 0.3901 0.2501 0.1496
O2_8 O 0.60032(11) 0.02970(9) 0.11822(9)
C3_8 C 0.42472(14) 0.15199(14) 0.20749(13)
H2_8 H 0.3901 0.1496 0.2501
O3_8 O 0.39968(11) 0.11822(9) 0.97030(9)
N5_8 N 0.42462(14) 0.08934(9) 0.91066(9)
C4_8 C 0.48714(13) 0.12738(8) 0.87262(8)
C5_8 C 0.57528(14) 0.20749(13) 0.84801(14)
H3_8 H 0.6099 0.2501 0.8504
O4_8 O 0.39968(11) 0.02970(9) 0.88178(9)
C6_8 C 0.57528(14) 0.15199(14) 0.79251(13)
H4_8 H 0.6099 0.1496 0.7499
O1_9 O 0.02970(9) 0.39968(11) 0.88178(9)
N2_9 N 0.08934(9) 0.42462(14) 0.91066(9)
C1_9 C 0.12738(8) 0.48714(13) 0.87262(8)
C2_9 C 0.15199(14) 0.57528(14) 0.79251(13)
H1_9 H 0.1496 0.6099 0.7499
O2_9 O 0.11822(9) 0.39968(11) 0.97030(9)
C3_9 C 0.20749(13) 0.57528(14) 0.84801(14)
H2_9 H 0.2501 0.6099 0.8504
O3_9 O 0.97030(9) 0.60032(11) 0.88178(9)
N5_9 N 0.91066(9) 0.57538(14) 0.91066(9)
C4_9 C 0.87262(8) 0.51286(13) 0.87262(8)
C5_9 C 0.84801(14) 0.42472(14) 0.79251(13)
H3_9 H 0.8504 0.3901 0.7499
O4_9 O 0.88178(9) 0.60032(11) 0.97030(9)
C6_9 C 0.79251(13) 0.42472(14) 0.84801(14)
H4_9 H 0.7499 0.3901 0.8504
O1_10 O 0.02970(9) 0.60032(11) 0.11822(9)
N2_10 N 0.08934(9) 0.57538(14) 0.08934(9)
C1_10 C 0.12738(8) 0.51286(13) 0.12738(8)
C2_10 C 0.15199(14) 0.42472(14) 0.20749(13)
H1_10 H 0.1496 0.3901 0.2501
O2_10 O 0.11822(9) 0.60032(11) 0.02970(9)
C3_10 C 0.20749(13) 0.42472(14) 0.15199(14)
H2_10 H 0.2501 0.3901 0.1496
O3_10 O 0.97030(9) 0.39968(11) 0.11822(9)
N5_10 N 0.91066(9) 0.42462(14) 0.08934(9)
C4_10 C 0.87262(8) 0.48714(13) 0.12738(8)
C5_10 C 0.84801(14) 0.57528(14) 0.20749(13)
H3_10 H 0.8504 0.6099 0.2501
O4_10 O 0.88178(9) 0.39968(11) 0.02970(9)
C6_10 C 0.79251(13) 0.57528(14) 0.15199(14)
H4_10 H 0.7499 0.6099 0.1496
O1_11 O 0.88178(9) 0.02970(9) 0.39968(11)
N2_11 N 0.91066(9) 0.08934(9) 0.42462(14)
C1_11 C 0.87262(8) 0.12738(8) 0.48714(13)
C2_11 C 0.79251(13) 0.15199(14) 0.57528(14)
H1_11 H 0.7499 0.1496 0.6099
O2_11 O 0.97030(9) 0.11822(9) 0.39968(11)
C3_11 C 0.84801(14) 0.20749(13) 0.57528(14)
H2_11 H 0.8504 0.2501 0.6099
O3_11 O 0.88178(9) 0.97030(9) 0.60032(11)
N5_11 N 0.91066(9) 0.91066(9) 0.57538(14)
C4_11 C 0.87262(8) 0.87262(8) 0.51286(13)
C5_11 C 0.79251(13) 0.84801(14) 0.42472(14)
H3_11 H 0.7499 0.8504 0.3901
O4_11 O 0.97030(9) 0.88178(9) 0.60032(11)
C6_11 C 0.84801(14) 0.79251(13) 0.42472(14)
H4_11 H 0.8504 0.7499 0.3901
O1_12 O 0.11822(9) 0.02970(9) 0.60032(11)
N2_12 N 0.08934(9) 0.08934(9) 0.57538(14)
C1_12 C 0.12738(8) 0.12738(8) 0.51286(13)
C2_12 C 0.20749(13) 0.15199(14) 0.42472(14)
H1_12 H 0.2501 0.1496 0.3901
O2_12 O 0.02970(9) 0.11822(9) 0.60032(11)
C3_12 C 0.15199(14) 0.20749(13) 0.42472(14)
H2_12 H 0.1496 0.2501 0.3901
O3_12 O 0.11822(9) 0.97030(9) 0.39968(11)
N5_12 N 0.08934(9) 0.91066(9) 0.42462(14)
C4_12 C 0.12738(8) 0.87262(8) 0.48714(13)
C5_12 C 0.20749(13) 0.84801(14) 0.57528(14)
H3_12 H 0.2501 0.8504 0.6099
O4_12 O 0.02970(9) 0.88178(9) 0.39968(11)
C6_12 C 0.15199(14) 0.79251(13) 0.57528(14)
H4_12 H 0.1496 0.7499 0.6099
loop_
_geom_bond_atom_site_label_1
_geom_bond_atom_site_label_2
_geom_bond_site_symmetry_1
_geom_bond_site_symmetry_2
Zn1 N1 1_555 1_555
C2 N1 1_555 1_555
H1 C2 1_555 1_555
N3 C3 1_555 1_555
C3 C2 1_555 1_555
H2 C3 1_555 1_555
O3 N5 1_555 1_555
N5 C4 1_555 1_555
O4 N5 1_555 1_555
Zn3 N3 1_555 1_555
N7 Zn1 1_555 1_555
O1 N2 1_555 1_555
N2 C1 1_555 1_555
O2 N2 1_555 1_555
N4 Zn1_2 1_555 1_555
C5 N4 1_555 1_555
H3 C5 1_555 1_555
C6 C5 1_555 1_555
H4 C6 1_555 1_555
Zn2_2 N6 1_555 1_555
N8 Zn1_2 1_555 1_555
N6 C6 1_555 1_555
O1_2 N2_2 1_555 1_555
N2_2 C1_2 1_555 1_555
O2_2 N2_2 1_555 1_555
N4_2 Zn1_3 1_555 1_555
C5_2 N4_2 1_555 1_555
H3_2 C5_2 1_555 1_555
C6_2 C5_2 1_555 1_555
H4_2 C6_2 1_555 1_555
Zn2 N6_2 1_555 1_555
N8_2 Zn1_3 1_555 1_555
N6_2 C6_2 1_555 1_555
Zn1_4 N1_2 1_555 1_555
C2_2 N1_2 1_555 1_555
H1_2 C2_2 1_555 1_555
N3_2 C3_2 1_555 1_555
C3_2 C2_2 1_555 1_555
H2_2 C3_2 1_555 1_555
O3_2 N5_2 1_555 1_555
N5_2 C4_2 1_555 1_555
O4_2 N5_2 1_555 1_555
Zn3_2 N3_2 1_555 1_555
N7_2 Zn1_4 1_555 1_555
Zn1_5 N1_3 1_555 1_555
C2_3 N1_3 1_555 1_555
H1_3 C2_3 1_555 1_555
N3_3 C3_3 1_555 1_555
C3_3 C2_3 1_555 1_555
H2_3 C3_3 1_555 1_555
O3_3 N5_3 1_555 1_555
N5_3 C4_3 1_555 1_555
O4_3 N5_3 1_555 1_555
Zn3_3 N3_3 1_555 1_555
N7_3 Zn1_5 1_555 1_555
O1_3 N2_3 1_555 1_555
N2_3 C1_3 1_555 1_555
O2_3 N2_3 1_555 1_555
N4_3 Zn1_6 1_555 1_555
C5_3 N4_3 1_555 1_555
H3_3 C5_3 1_555 1_555
C6_3 C5_3 1_555 1_555
H4_3 C6_3 1_555 1_555
Zn2_4 N6_3 1_555 1_555
N8_3 Zn1_6 1_555 1_555
N6_3 C6_3 1_555 1_555
O1_4 N2_4 1_555 1_555
N2_4 C1_4 1_555 1_555
O2_4 N2_4 1_555 1_555
N4_4 Zn1_7 1_555 1_555
C5_4 N4_4 1_555 1_555
H3_4 C5_4 1_555 1_555
C6_4 C5_4 1_555 1_555
H4_4 C6_4 1_555 1_555
Zn2_3 N6_4 1_555 1_555
N8_4 Zn1_7 1_555 1_555
N6_4 C6_4 1_555 1_555
Zn1_8 N1_4 1_555 1_555
C2_4 N1_4 1_555 1_555
H1_4 C2_4 1_555 1_555
N3_4 C3_4 1_555 1_555
C3_4 C2_4 1_555 1_555
H2_4 C3_4 1_555 1_555
O3_4 N5_4 1_555 1_555
N5_4 C4_4 1_555 1_555
O4_4 N5_4 1_555 1_555
Zn3_4 N3_4 1_555 1_555
N7_4 Zn1_8 1_555 1_555
Zn1_9 N1_5 1_555 1_555
C2_5 N1_5 1_555 1_555
H1_5 C2_5 1_555 1_555
N3_5 C3_5 1_555 1_555
C3_5 C2_5 1_555 1_555
H2_5 C3_5 1_555 1_555
O3_5 N5_5 1_555 1_555
N5_5 C4_5 1_555 1_555
O4_5 N5_5 1_555 1_555
Zn3_5 N3_5 1_555 1_555
N7_5 Zn1_9 1_555 1_555
O1_5 N2_5 1_555 1_555
N2_5 C1_5 1_555 1_555
O2_5 N2_5 1_555 1_555
N4_5 Zn1_10 1_555 1_555
C5_5 N4_5 1_555 1_555
H3_5 C5_5 1_555 1_555
C6_5 C5_5 1_555 1_555
H4_5 C6_5 1_555 1_555
Zn2_6 N6_5 1_555 1_555
N8_5 Zn1_10 1_555 1_555
N6_5 C6_5 1_555 1_555
O1_6 N2_6 1_555 1_555
N2_6 C1_6 1_555 1_555
O2_6 N2_6 1_555 1_555
N4_6 Zn1_11 1_555 1_555
C5_6 N4_6 1_555 1_555
H3_6 C5_6 1_555 1_555
C6_6 C5_6 1_555 1_555
H4_6 C6_6 1_555 1_555
Zn2_5 N6_6 1_555 1_555
N8_6 Zn1_11 1_555 1_555
N6_6 C6_6 1_555 1_555
Zn1_12 N1_6 1_555 1_555
C2_6 N1_6 1_555 1_555
H1_6 C2_6 1_555 1_555
N3_6 C3_6 1_555 1_555
C3_6 C2_6 1_555 1_555
H2_6 C3_6 1_555 1_555
O3_6 N5_6 1_555 1_555
N5_6 C4_6 1_555 1_555
O4_6 N5_6 1_555 1_555
Zn3_6 N3_6 1_555 1_555
N7_6 Zn1_12 1_555 1_555
N7_7 Zn2_3 1_555 1_555
N8_7 Zn2_4 1_555 1_555
N8_8 Zn3_3 1_555 1_555
N7_8 Zn3_4 1_555 1_555
N7_9 Zn2 1_555 1_555
N8_9 Zn2_2 1_555 1_555
N8_10 Zn3 1_555 1_555
N7_10 Zn3_2 1_555 1_555
N7_11 Zn2_5 1_555 1_555
N8_11 Zn2_6 1_555 1_555
N8_12 Zn3_5 1_555 1_555
N7_12 Zn3_6 1_555 1_555
O1_7 N2_7 1_555 1_555
N8_12 C1_7 1_555 1_555
N2_7 C1_7 1_555 1_555
C1_7 N8_3 1_555 1_555
C2_7 N8_12 1_555 1_555
H1_7 C2_7 1_555 1_555
O2_7 N2_7 1_555 1_555
N8_3 C3_7 1_555 1_555
C3_7 C2_7 1_555 1_555
H2_7 C3_7 1_555 1_555
O3_7 N5_7 1_555 1_555
N5_7 C4_7 1_555 1_555
C4_7 N7_12 1_555 1_555
C5_7 N7_12 1_555 1_555
H3_7 C5_7 1_555 1_555
O4_7 N5_7 1_555 1_555
N7_4 C4_7 1_555 1_555
C6_7 C5_7 1_555 1_555
H4_7 C6_7 1_555 1_555
N7_4 C6_7 1_555 1_555
O1_8 N2_8 1_555 1_555
N7_11 C1_8 1_555 1_555
N2_8 C1_8 1_555 1_555
C1_8 N7_3 1_555 1_555
C2_8 N7_11 1_555 1_555
H1_8 C2_8 1_555 1_555
O2_8 N2_8 1_555 1_555
N7_3 C3_8 1_555 1_555
C3_8 C2_8 1_555 1_555
H2_8 C3_8 1_555 1_555
O3_8 N5_8 1_555 1_555
N5_8 C4_8 1_555 1_555
C4_8 N8_11 1_555 1_555
C5_8 N8_11 1_555 1_555
H3_8 C5_8 1_555 1_555
O4_8 N5_8 1_555 1_555
N8_4 C4_8 1_555 1_555
C6_8 C5_8 1_555 1_555
H4_8 C6_8 1_555 1_555
N8_4 C6_8 1_555 1_555
O1_9 N2_9 1_555 1_555
N8_10 C1_9 1_555 1_555
N2_9 C1_9 1_555 1_555
C1_9 N8_5 1_555 1_555
C2_9 N8_10 1_555 1_555
H1_9 C2_9 1_555 1_555
O2_9 N2_9 1_555 1_555
N8_5 C3_9 1_555 1_555
C3_9 C2_9 1_555 1_555
H2_9 C3_9 1_555 1_555
O3_9 N5_9 1_555 1_555
N5_9 C4_9 1_555 1_555
C4_9 N7_10 1_555 1_555
C5_9 N7_10 1_555 1_555
H3_9 C5_9 1_555 1_555
O4_9 N5_9 1_555 1_555
N7_6 C4_9 1_555 1_555
C6_9 C5_9 1_555 1_555
H4_9 C6_9 1_555 1_555
N7_6 C6_9 1_555 1_555
O1_10 N2_10 1_555 1_555
N7_9 C1_10 1_555 1_555
N2_10 C1_10 1_555 1_555
C1_10 N7_5 1_555 1_555
C2_10 N7_9 1_555 1_555
H1_10 C2_10 1_555 1_555
O2_10 N2_10 1_555 1_555
N7_5 C3_10 1_555 1_555
C3_10 C2_10 1_555 1_555
H2_10 C3_10 1_555 1_555
O3_10 N5_10 1_555 1_555
N5_10 C4_10 1_555 1_555
C4_10 N8_9 1_555 1_555
C5_10 N8_9 1_555 1_555
H3_10 C5_10 1_555 1_555
O4_10 N5_10 1_555 1_555
N8_6 C4_10 1_555 1_555
C6_10 C5_10 1_555 1_555
H4_10 C6_10 1_555 1_555
N8_6 C6_10 1_555 1_555
O1_11 N2_11 1_555 1_555
N8_8 C1_11 1_555 1_555
N2_11 C1_11 1_555 1_555
C1_11 N8 1_555 1_555
C2_11 N8_8 1_555 1_555
H1_11 C2_11 1_555 1_555
O2_11 N2_11 1_555 1_555
N8 C3_11 1_555 1_555
C3_11 C2_11 1_555 1_555
H2_11 C3_11 1_555 1_555
O3_11 N5_11 1_555 1_555
N5_11 C4_11 1_555 1_555
C4_11 N7_8 1_555 1_555
C5_11 N7_8 1_555 1_555
H3_11 C5_11 1_555 1_555
O4_11 N5_11 1_555 1_555
N7_2 C4_11 1_555 1_555
C6_11 C5_11 1_555 1_555
H4_11 C6_11 1_555 1_555
N7_2 C6_11 1_555 1_555
O1_12 N2_12 1_555 1_555
N7_7 C1_12 1_555 1_555
N2_12 C1_12 1_555 1_555
C1_12 N7 1_555 1_555
C2_12 N7_7 1_555 1_555
H1_12 C2_12 1_555 1_555
O2_12 N2_12 1_555 1_555
N7 C3_12 1_555 1_555
C3_12 C2_12 1_555 1_555
H2_12 C3_12 1_555 1_555
O3_12 N5_12 1_555 1_555
N5_12 C4_12 1_555 1_555
C4_12 N8_7 1_555 1_555
C5_12 N8_7 1_555 1_555
H3_12 C5_12 1_555 1_555
O4_12 N5_12 1_555 1_555
N8_2 C4_12 1_555 1_555
C6_12 C5_12 1_555 1_555
H4_12 C6_12 1_555 1_555
N8_2 C6_12 1_555 1_555

#END
