
###############################################################################
#
# This file contains modified crystal structure data generated from the
# MOF subset of the Cambridge Structural Database (CSD) v543 
# hosted by the Cambridge Crystallographic Data Centre (CCDC).
#
# This work is licensed under the Creative Commons
# Attribution-NonCommercial-ShareAlike 4.0 International License.
# To view a copy of this license, visit
# http://creativecommons.org/licenses/by-nc-sa/4.0/
# or send a letter to
# Creative Commons, PO Box 1866, Mountain View, CA 94042, USA.
#
# CIF created using the CSD Python API on 29 September 2022
# The structure has been converted into the P1 space group
# The structure has a 3D framework
# The original CSD entry FOTBEY is in the triclinic crystal system
# The framework has been calculated to contain at least 10.0% void space
# The void calculation uses a probe of radius 1.32A, grid spacing 0.4
#
###############################################################################

data_FOTBEY
_chemical_formula_moiety         '(C14 H6 Co1 N6 O8)n'
_symmetry_cell_setting           triclinic
_symmetry_space_group_name_H-M   'P 1'
_symmetry_Int_Tables_number      1
_space_group_name_Hall           'P 1'
loop_
_symmetry_equiv_pos_site_id
_symmetry_equiv_pos_as_xyz
1 x,y,z
_cell_length_a                   5.9960(11)
_cell_length_b                   8.2536(16)
_cell_length_c                   10.058(2)
_cell_angle_alpha                101.518(2)
_cell_angle_beta                 102.600(3)
_cell_angle_gamma                105.100(2)
_cell_volume                     451.283
loop_
_atom_site_label
_atom_site_type_symbol
_atom_site_fract_x
_atom_site_fract_y
_atom_site_fract_z
_atom_site_U_iso_or_equiv
_atom_site_thermal_displace_type
Co5 Co 0.12092(6) 0.12480(4) 0.42467(4) 0.0182 Uani
N2 N 0.0919(4) 0.5325(3) 0.2278(3) 0.0389 Uani
N3 N 0.0521(4) 0.3040(3) 0.3201(2) 0.0233 Uani
C2 C 0.2007(5) 0.4526(4) 0.3079(3) 0.0351 Uani
H2 H 0.3656 0.4940 0.3527 0.0420 Uiso
O7 O 0.7828(3) 0.0662(2) 0.4763(2) 0.0233 Uani
O8 O 0.4644(3) 0.1527(2) 0.4061(2) 0.0272 Uani
C14 C 0.5706(4) 0.0641(3) 0.4658(3) 0.0196 Uani
O10 O 0.2376(3) 0.2773(2) 0.63094(19) 0.0261 Uani
O3 O 0.2172(3) 0.9338(2) 0.5237(2) 0.0233 Uani
O4 O 0.5356(3) 0.8473(2) 0.5939(2) 0.0272 Uani
C7 C 0.4294(4) 0.9359(3) 0.5342(3) 0.0196 Uani
Co9 Co 0.87908(6) 0.87520(4) 0.57533(4) 0.0182 Uani
O1 O 0.7624(3) 0.7227(2) 0.36906(19) 0.0261 Uani
O2 O 0.9193(3) 0.9113(2) 0.2534(2) 0.0275 Uani
N1 N 0.8580(4) 0.4269(3) 0.1849(2) 0.0221 Uani
C1 C 0.8380(5) 0.2933(3) 0.2410(3) 0.0262 Uani
H1 H 0.6950 0.2052 0.2270 0.0310 Uiso
C4 C 0.6738(5) 0.4649(3) 0.0918(3) 0.0217 Uani
C5 C 0.6507(5) 0.6303(3) 0.1220(3) 0.0215 Uani
C6 C 0.7930(5) 0.7660(3) 0.2598(3) 0.0222 Uani
C10 C 0.4748(5) 0.6644(3) 0.0275(3) 0.0255 Uani
H6 H 0.4569 0.7746 0.0445 0.0310 Uiso
C3 C 0.5252(5) 0.3356(3) 0.9725(3) 0.0255 Uani
H3 H 0.5431 0.2254 0.9555 0.0310 Uiso
O6 O 0.0807(3) 0.0887(2) 0.7466(2) 0.0275 Uani
N4 N 0.1420(4) 0.5731(3) 0.8151(2) 0.0221 Uani
C8 C 0.1620(5) 0.7067(3) 0.7590(3) 0.0262 Uani
H4 H 0.3050 0.7948 0.7730 0.0310 Uiso
C11 C 0.3262(5) 0.5351(3) 0.9082(3) 0.0217 Uani
C12 C 0.3493(5) 0.3697(3) 0.8780(3) 0.0215 Uani
C13 C 0.2070(5) 0.2340(3) 0.7402(3) 0.0222 Uani
N5 N 0.9081(4) 0.4675(3) 0.7722(3) 0.0389 Uani
N6 N 0.9479(4) 0.6960(3) 0.6799(2) 0.0233 Uani
C9 C 0.7993(5) 0.5474(4) 0.6921(3) 0.0351 Uani
H5 H 0.6344 0.5060 0.6473 0.0420 Uiso
loop_
_atom_site_aniso_label
_atom_site_aniso_U_11
_atom_site_aniso_U_22
_atom_site_aniso_U_33
_atom_site_aniso_U_23
_atom_site_aniso_U_13
_atom_site_aniso_U_12
Co5 0.01536 0.01742 0.0208 0.0071 -0.00041 0.00672
N2 0.0247 0.0296 0.0543 0.0222 -0.0051 0.0008
N3 0.0206 0.0227 0.0249 0.0093 -0.0011 0.0081
C2 0.021 0.0313 0.0469 0.019 -0.0048 0.0038
O7 0.0151 0.0251 0.0325 0.0129 0.0053 0.0086
O8 0.0213 0.0312 0.0375 0.0212 0.0077 0.0139
C14 0.0178 0.0191 0.0196 0.0049 0.0012 0.0058
O10 0.0279 0.0207 0.0222 0.0052 -0.002 0.0033
O3 0.0151 0.0251 0.0325 0.0129 0.0053 0.0086
O4 0.0213 0.0312 0.0375 0.0212 0.0077 0.0139
C7 0.0178 0.0191 0.0196 0.0049 0.0012 0.0058
Co9 0.01536 0.01742 0.0208 0.0071 -0.00041 0.00672
O1 0.0279 0.0207 0.0222 0.0052 -0.002 0.0033
O2 0.0327 0.017 0.0254 0.0038 -0.0004 0.0042
N1 0.0204 0.0178 0.024 0.0073 -0.0032 0.0059
C1 0.0225 0.0224 0.0315 0.014 -0.0003 0.0053
C4 0.0235 0.02 0.0208 0.009 -0.0011 0.0091
C5 0.0231 0.0177 0.0197 0.0048 -0.0008 0.0059
C6 0.0223 0.0196 0.0225 0.0053 -0.0014 0.0097
C10 0.0319 0.0176 0.0253 0.0065 0.0008 0.0105
C3 0.0319 0.0176 0.0253 0.0065 0.0008 0.0105
O6 0.0327 0.017 0.0254 0.0038 -0.0004 0.0042
N4 0.0204 0.0178 0.024 0.0073 -0.0032 0.0059
C8 0.0225 0.0224 0.0315 0.014 -0.0003 0.0053
C11 0.0235 0.02 0.0208 0.009 -0.0011 0.0091
C12 0.0231 0.0177 0.0197 0.0048 -0.0008 0.0059
C13 0.0223 0.0196 0.0225 0.0053 -0.0014 0.0097
N5 0.0247 0.0296 0.0543 0.0222 -0.0051 0.0008
N6 0.0206 0.0227 0.0249 0.0093 -0.0011 0.0081
C9 0.021 0.0313 0.0469 0.019 -0.0048 0.0038
loop_
_geom_bond_atom_site_label_1
_geom_bond_atom_site_label_2
_geom_bond_site_symmetry_1
_geom_bond_site_symmetry_2
N2 C2 1_555 1_555
N3 Co5 1_555 1_555
C2 N3 1_555 1_555
H2 C2 1_555 1_555
O7 C14 1_555 1_555
O8 Co5 1_555 1_555
C14 O8 1_555 1_555
O10 Co5 1_555 1_555
O3 C7 1_555 1_555
O4 C7 1_555 1_555
Co9 O4 1_555 1_555
O1 C6 1_555 1_555
O2 C6 1_555 1_555
C1 N1 1_555 1_555
H1 C1 1_555 1_555
C4 N1 1_555 1_555
C5 C4 1_555 1_555
C6 C5 1_555 1_555
C10 C5 1_555 1_555
H6 C10 1_555 1_555
Co9 O1 1_555 1_555
C3 H3 1_555 1_555
O10 C13 1_555 1_555
O6 C13 1_555 1_555
C8 N4 1_555 1_555
H4 C8 1_555 1_555
C11 N4 1_555 1_555
C12 C3 1_555 1_555
C13 C12 1_555 1_555
C11 C12 1_555 1_555
N5 C9 1_555 1_555
C9 N6 1_555 1_555
H5 C9 1_555 1_555
Co9 N6 1_555 1_555

#END
