
###############################################################################
#
# This file contains modified crystal structure data generated from the
# MOF subset of the Cambridge Structural Database (CSD) v543 
# hosted by the Cambridge Crystallographic Data Centre (CCDC).
#
# This work is licensed under the Creative Commons
# Attribution-NonCommercial-ShareAlike 4.0 International License.
# To view a copy of this license, visit
# http://creativecommons.org/licenses/by-nc-sa/4.0/
# or send a letter to
# Creative Commons, PO Box 1866, Mountain View, CA 94042, USA.
#
# CIF created using the CSD Python API on 29 September 2022
# The structure has been converted into the P1 space group
# The structure has a 3D framework
# The original CSD entry FUBNOH is in the monoclinic crystal system
# The framework has been calculated to contain at least 10.0% void space
# The void calculation uses a probe of radius 1.32A, grid spacing 0.4
#
###############################################################################

data_FUBNOH
_chemical_formula_moiety         '(C78 H46 N6 O10 Zn4)n'
_symmetry_cell_setting           triclinic
_symmetry_space_group_name_H-M   'P 1'
_symmetry_Int_Tables_number      1
_space_group_name_Hall           'P 1'
loop_
_symmetry_equiv_pos_site_id
_symmetry_equiv_pos_as_xyz
1 x,y,z
_cell_length_a                   16.8446(12)
_cell_length_b                   15.1638(11)
_cell_length_c                   8.3702(6)
_cell_angle_alpha                90
_cell_angle_beta                 116.2900(10)
_cell_angle_gamma                90
_cell_volume                     1916.84
loop_
_atom_site_label
_atom_site_type_symbol
_atom_site_fract_x
_atom_site_fract_y
_atom_site_fract_z
Zn2 Zn -0.0000 0.01637(3) 0.7500
O2 O 0.10011(15) 0.00924(15) 0.6374(3)
O6 O 0.08836(15) 0.09055(17) 0.9335(3)
O3 O 0.91164(15) 0.90945(17) 0.0665(3)
Zn4 Zn 1.0000 0.98363(3) 0.2500
C6 C 0.3264(2) 0.8847(2) 0.0163(4)
H3 H 0.3587 0.9100 0.1279
C8 C 0.43352(18) 0.66472(18) 0.1223(4)
H5 H 0.3881 0.6335 0.0324
C9 C 0.42978(18) 0.75636(19) 0.1189(4)
C10 C 0.5000 0.8013(3) 0.2500
H6 H 0.5000 0.8627 0.2500
N1 N 0.5000 0.6193(2) 0.2500
C11 C 0.87513(19) 0.9412(2) 0.9104(4)
C12 C 0.79431(19) 0.8927(2) 0.7766(4)
C13 C 0.7700(2) 0.8111(2) 0.8150(4)
H7 H 0.8023 0.7861 0.9268
C14 C 0.6980(2) 0.7665(2) 0.6884(4)
H8 H 0.6826 0.7117 0.7157
C15 C 0.64837(17) 0.80289(19) 0.5204(4)
C16 C 0.6736(2) 0.8847(2) 0.4837(4)
H9 H 0.6413 0.9100 0.3721
C17 C 0.7457(2) 0.9291(2) 0.6100(4)
H10 H 0.7616 0.9838 0.5827
C18 C 0.56648(18) 0.66472(18) 0.3777(4)
H11 H 0.6119 0.6335 0.4676
C19 C 0.57022(18) 0.75636(19) 0.3811(4)
Zn5 Zn 0.5000 0.48363(3) 0.2500
N2 N 1.0000 0.8807(2) 0.7500
O3_2 O 0.41164(15) 0.40945(17) 0.0665(3)
C10_2 C -0.0000 0.3013(3) 0.2500
H6_2 H -0.0000 0.3627 0.2500
N1_2 N 0.0000 0.1193(2) 0.2500
C11_2 C 0.37513(19) 0.4412(2) 0.9104(4)
C12_2 C 0.29431(19) 0.3927(2) 0.7766(4)
C13_2 C 0.2700(2) 0.3111(2) 0.8150(4)
H7_2 H 0.3023 0.2861 0.9268
C14_2 C 0.1980(2) 0.2665(2) 0.6884(4)
H8_2 H 0.1826 0.2117 0.7157
C15_2 C 0.14837(17) 0.30289(19) 0.5204(4)
C16_2 C 0.1736(2) 0.3847(2) 0.4837(4)
H9_2 H 0.1413 0.4100 0.3721
C17_2 C 0.2457(2) 0.4291(2) 0.6100(4)
H10_2 H 0.2616 0.4838 0.5827
C18_2 C 0.06648(18) 0.16472(18) 0.3777(4)
H11_2 H 0.1119 0.1335 0.4676
C19_2 C 0.07022(18) 0.25636(19) 0.3811(4)
O4 O 0.39989(15) 0.50924(15) 0.8626(3)
Zn2_2 Zn 0.5000 0.51637(3) 0.7500
C1 C 0.62487(19) 0.4412(2) 0.5896(4)
C2 C 0.70569(19) 0.3927(2) 0.7234(4)
C3 C 0.7300(2) 0.3111(2) 0.6850(4)
H1 H 0.6977 0.2861 0.5732
C4 C 0.8020(2) 0.2665(2) 0.8116(4)
H2 H 0.8174 0.2117 0.7843
C5 C 0.85163(17) 0.30289(19) 0.9796(4)
C7 C 0.7543(2) 0.4291(2) 0.8900(4)
H4 H 0.7384 0.4838 0.9173
O1 O 0.58836(15) 0.40945(17) 0.4335(3)
O2_2 O 0.60011(15) 0.50924(15) 0.6374(3)
N2_2 N 0.5000 0.3807(2) 0.7500
O5 O 0.41164(15) 0.59055(17) 0.5665(3)
O6_2 O 0.58836(15) 0.59055(17) 0.9335(3)
C6_2 C 0.6736(2) 0.1153(2) 0.9837(4)
H3_2 H 0.6413 0.0900 0.8721
C8_2 C 0.56648(18) 0.33528(18) 0.8777(4)
H5_2 H 0.6119 0.3665 0.9676
C9_2 C 0.57022(18) 0.24364(19) 0.8811(4)
C10_3 C 0.5000 0.1987(3) 0.7500
H6_3 H 0.5000 0.1373 0.7500
C11_3 C 0.12487(19) 0.0588(2) 0.0896(4)
C12_3 C 0.20569(19) 0.1073(2) 0.2234(4)
C13_3 C 0.2300(2) 0.1889(2) 0.1850(4)
H7_3 H 0.1977 0.2139 0.0732
C14_3 C 0.3020(2) 0.2335(2) 0.3116(4)
H8_3 H 0.3174 0.2883 0.2843
C15_3 C 0.35163(17) 0.19711(19) 0.4796(4)
C16_3 C 0.3264(2) 0.1153(2) 0.5163(4)
H9_3 H 0.3587 0.0900 0.6279
C17_3 C 0.2543(2) 0.0709(2) 0.3900(4)
H10_3 H 0.2384 0.0162 0.4173
C18_3 C 0.43352(18) 0.33528(18) 0.6223(4)
H11_3 H 0.3881 0.3665 0.5324
C19_3 C 0.42978(18) 0.24364(19) 0.6189(4)
O2_3 O 0.89989(15) 0.99076(15) 0.3626(3)
C1_2 C 0.37513(19) 0.5588(2) 0.4104(4)
C2_2 C 0.29431(19) 0.6073(2) 0.2766(4)
C3_2 C 0.2700(2) 0.6889(2) 0.3150(4)
H1_2 H 0.3023 0.7139 0.4268
C4_2 C 0.1980(2) 0.7335(2) 0.1884(4)
H2_2 H 0.1826 0.7883 0.2157
C5_2 C 0.14837(17) 0.69711(19) 0.0204(4)
C7_2 C 0.2457(2) 0.5709(2) 0.1100(4)
H4_2 H 0.2616 0.5162 0.0827
O2_4 O 0.39989(15) 0.49076(15) 0.3626(3)
O7 O 0.60011(15) 0.49076(15) 0.1374(3)
C10_4 C 1.0000 0.6987(3) 0.7500
H6_4 H 1.0000 0.6373 0.7500
C11_4 C 0.62487(19) 0.5588(2) 0.0896(4)
C12_4 C 0.70569(19) 0.6073(2) 0.2234(4)
C13_4 C 0.7300(2) 0.6889(2) 0.1850(4)
H7_4 H 0.6977 0.7139 0.0732
C14_4 C 0.8020(2) 0.7335(2) 0.3116(4)
H8_4 H 0.8174 0.7883 0.2843
C15_4 C 0.85163(17) 0.69711(19) 0.4796(4)
C16_4 C 0.8264(2) 0.6153(2) 0.5163(4)
H9_4 H 0.8587 0.5900 0.6279
C17_4 C 0.7543(2) 0.5709(2) 0.3900(4)
H10_4 H 0.7384 0.5162 0.4173
C18_4 C 0.93352(18) 0.83528(18) 0.6223(4)
H11_4 H 0.8881 0.8665 0.5324
C19_4 C 0.92978(18) 0.74364(19) 0.6189(4)
Zn4_2 Zn 0.0000 0.98363(3) 0.2500
C1_3 C 0.12487(19) 0.9412(2) 0.5896(4)
C2_3 C 0.20569(19) 0.8927(2) 0.7234(4)
C3_3 C 0.2300(2) 0.8111(2) 0.6850(4)
H1_3 H 0.1977 0.7861 0.5732
C4_3 C 0.3020(2) 0.7665(2) 0.8116(4)
H2_3 H 0.3174 0.7117 0.7843
C5_3 C 0.35163(17) 0.80289(19) 0.9796(4)
C7_3 C 0.2543(2) 0.9291(2) 0.8900(4)
H4_3 H 0.2384 0.9838 0.9173
O1_2 O 0.08836(15) 0.90945(17) 0.4335(3)
N2_3 N 0.0000 0.8807(2) 0.7500
O7_2 O 0.10011(15) 0.99076(15) 0.1374(3)
C6_3 C 0.1736(2) 0.6153(2) 0.9837(4)
H3_3 H 0.1413 0.5900 0.8721
C8_3 C 0.06648(18) 0.83528(18) 0.8777(4)
H5_3 H 0.1119 0.8665 0.9676
C9_3 C 0.07022(18) 0.74364(19) 0.8811(4)
C10_5 C 0.0000 0.6987(3) 0.7500
H6_5 H 0.0000 0.6373 0.7500
O4_2 O 0.89989(15) 0.00924(15) 0.8626(3)
Zn2_3 Zn 1.0000 0.01637(3) 0.7500
O5_2 O 0.91164(15) 0.09055(17) 0.5665(3)
C6_4 C 0.8264(2) 0.3847(2) 0.0163(4)
H3_4 H 0.8587 0.4100 0.1279
C8_4 C 0.93352(18) 0.16472(18) 0.1223(4)
H5_4 H 0.8881 0.1335 0.0324
C9_4 C 0.92978(18) 0.25636(19) 0.1189(4)
C10_6 C 1.0000 0.3013(3) 0.2500
H6_6 H 1.0000 0.3627 0.2500
N1_3 N 1.0000 0.1193(2) 0.2500
C1_4 C 0.87513(19) 0.0588(2) 0.4104(4)
C2_4 C 0.79431(19) 0.1073(2) 0.2766(4)
C3_4 C 0.7700(2) 0.1889(2) 0.3150(4)
H1_4 H 0.8023 0.2139 0.4268
C4_4 C 0.6980(2) 0.2335(2) 0.1884(4)
H2_4 H 0.6826 0.2883 0.2157
C5_4 C 0.64837(17) 0.19711(19) 0.0204(4)
C7_4 C 0.7457(2) 0.0709(2) 0.1100(4)
H4_4 H 0.7616 0.0162 0.0827
loop_
_geom_bond_atom_site_label_1
_geom_bond_atom_site_label_2
_geom_bond_site_symmetry_1
_geom_bond_site_symmetry_2
Zn2 O2 1_555 1_555
O6 Zn2 1_555 1_555
Zn4 O3 1_555 1_555
H3 C6 1_555 1_555
C8 H5 1_555 1_555
C10 C9 1_555 1_555
H6 C10 1_555 1_555
N1 C8 1_555 1_555
C11 C12 1_555 1_555
C12 C13 1_555 1_555
C13 H7 1_555 1_555
C14 C13 1_555 1_555
H8 C14 1_555 1_555
C15 C14 1_555 1_555
C16 C15 1_555 1_555
H9 C16 1_555 1_555
C17 C12 1_555 1_555
H10 C17 1_555 1_555
C18 N1 1_555 1_555
H11 C18 1_555 1_555
C19 C10 1_555 1_555
Zn5 N1 1_555 1_555
C8 C9 1_555 1_555
C15 C19 1_555 1_555
C16 C17 1_555 1_555
C18 C19 1_555 1_555
Zn5 O3_2 1_555 1_555
H6_2 C10_2 1_555 1_555
C11_2 C12_2 1_555 1_555
C12_2 C13_2 1_555 1_555
C13_2 H7_2 1_555 1_555
C14_2 C13_2 1_555 1_555
H8_2 C14_2 1_555 1_555
C15_2 C14_2 1_555 1_555
C16_2 C15_2 1_555 1_555
H9_2 C16_2 1_555 1_555
C17_2 C12_2 1_555 1_555
H10_2 C17_2 1_555 1_555
C18_2 N1_2 1_555 1_555
H11_2 C18_2 1_555 1_555
C19_2 C10_2 1_555 1_555
O4 C11_2 1_555 1_555
Zn2_2 O4 1_555 1_555
C15_2 C19_2 1_555 1_555
C16_2 C17_2 1_555 1_555
C18_2 C19_2 1_555 1_555
Zn2_2 O2_2 1_555 1_555
C1 C2 1_555 1_555
C2 C3 1_555 1_555
C3 H1 1_555 1_555
C4 C3 1_555 1_555
H2 C4 1_555 1_555
C5 C4 1_555 1_555
C7 C2 1_555 1_555
H4 C7 1_555 1_555
O1 C1 1_555 1_555
O2_2 C1 1_555 1_555
Zn5 O1 1_555 1_555
N2_2 Zn2_2 1_555 1_555
O5 Zn2_2 1_555 1_555
O6_2 Zn2_2 1_555 1_555
H3_2 C6_2 1_555 1_555
C8_2 H5_2 1_555 1_555
C10_3 C9_2 1_555 1_555
H6_3 C10_3 1_555 1_555
N2_2 C8_2 1_555 1_555
C11_3 C12_3 1_555 1_555
C12_3 C13_3 1_555 1_555
C13_3 H7_3 1_555 1_555
C14_3 C13_3 1_555 1_555
H8_3 C14_3 1_555 1_555
C15_3 C14_3 1_555 1_555
C16_3 C15_3 1_555 1_555
H9_3 C16_3 1_555 1_555
C17_3 C12_3 1_555 1_555
H10_3 C17_3 1_555 1_555
C18_3 N2_2 1_555 1_555
H11_3 C18_3 1_555 1_555
C19_3 C10_3 1_555 1_555
C8_2 C9_2 1_555 1_555
C15_3 C19_3 1_555 1_555
C16_3 C17_3 1_555 1_555
C18_3 C19_3 1_555 1_555
Zn4 O2_3 1_555 1_555
Zn5 O2_4 1_555 1_555
C1_2 C2_2 1_555 1_555
C2_2 C3_2 1_555 1_555
C3_2 H1_2 1_555 1_555
C4_2 C3_2 1_555 1_555
H2_2 C4_2 1_555 1_555
C5_2 C4_2 1_555 1_555
C7_2 C2_2 1_555 1_555
H4_2 C7_2 1_555 1_555
O5 C1_2 1_555 1_555
O2_4 C1_2 1_555 1_555
O7 Zn5 1_555 1_555
H6_4 C10_4 1_555 1_555
C11_4 C12_4 1_555 1_555
C12_4 C13_4 1_555 1_555
C13_4 H7_4 1_555 1_555
C14_4 C13_4 1_555 1_555
H8_4 C14_4 1_555 1_555
C15_4 C14_4 1_555 1_555
C16_4 C15_4 1_555 1_555
H9_4 C16_4 1_555 1_555
C17_4 C12_4 1_555 1_555
H10_4 C17_4 1_555 1_555
C18_4 N2 1_555 1_555
H11_4 C18_4 1_555 1_555
C19_4 C10_4 1_555 1_555
O7 C11_4 1_555 1_555
C15_4 C19_4 1_555 1_555
C16_4 C17_4 1_555 1_555
C18_4 C19_4 1_555 1_555
C1_3 C2_3 1_555 1_555
C2_3 C3_3 1_555 1_555
C3_3 H1_3 1_555 1_555
C4_3 C3_3 1_555 1_555
H2_3 C4_3 1_555 1_555
C5_3 C4_3 1_555 1_555
C7_3 C2_3 1_555 1_555
H4_3 C7_3 1_555 1_555
O1_2 C1_3 1_555 1_555
Zn4_2 O1_2 1_555 1_555
O7_2 Zn4_2 1_555 1_555
H3_3 C6_3 1_555 1_555
C8_3 H5_3 1_555 1_555
C10_5 C9_3 1_555 1_555
H6_5 C10_5 1_555 1_555
N2_3 C8_3 1_555 1_555
C8_3 C9_3 1_555 1_555
Zn2_3 O4_2 1_555 1_555
O5_2 Zn2_3 1_555 1_555
H3_4 C6_4 1_555 1_555
C8_4 H5_4 1_555 1_555
C10_6 C9_4 1_555 1_555
H6_6 C10_6 1_555 1_555
N1_3 C8_4 1_555 1_555
C8_4 C9_4 1_555 1_555
C1_4 C2_4 1_555 1_555
C2_4 C3_4 1_555 1_555
C3_4 H1_4 1_555 1_555
C4_4 C3_4 1_555 1_555
H2_4 C4_4 1_555 1_555
C5_4 C4_4 1_555 1_555
C7_4 C2_4 1_555 1_555
H4_4 C7_4 1_555 1_555
O5_2 C1_4 1_555 1_555

#END
