
###############################################################################
#
# This file contains modified crystal structure data generated from the
# MOF subset of the Cambridge Structural Database (CSD) v543 
# hosted by the Cambridge Crystallographic Data Centre (CCDC).
#
# This work is licensed under the Creative Commons
# Attribution-NonCommercial-ShareAlike 4.0 International License.
# To view a copy of this license, visit
# http://creativecommons.org/licenses/by-nc-sa/4.0/
# or send a letter to
# Creative Commons, PO Box 1866, Mountain View, CA 94042, USA.
#
# CIF created using the CSD Python API on 29 September 2022
# The structure has been converted into the P1 space group
# The structure has a 3D framework
# The original CSD entry FUBNIB is in the monoclinic crystal system
# The framework has been calculated to contain at least 10.0% void space
# The void calculation uses a probe of radius 1.32A, grid spacing 0.4
#
###############################################################################

data_FUBNIB
_chemical_formula_moiety         '(C44 H28 La4 N12 O26)n'
_symmetry_cell_setting           triclinic
_symmetry_space_group_name_H-M   'P 1'
_symmetry_Int_Tables_number      1
_space_group_name_Hall           'P 1'
loop_
_symmetry_equiv_pos_site_id
_symmetry_equiv_pos_as_xyz
1 x,y,z
_cell_length_a                   8.2421(5)
_cell_length_b                   15.4132(9)
_cell_length_c                   11.7817(7)
_cell_angle_alpha                90
_cell_angle_beta                 91.0030(10)
_cell_angle_gamma                90
_cell_volume                     1496.48
loop_
_atom_site_label
_atom_site_type_symbol
_atom_site_fract_x
_atom_site_fract_y
_atom_site_fract_z
C1 C 0.6612(5) 0.3767(2) 0.1092(3)
H3 H 0.605(4) 0.425(2) 0.095(3)
C3 C 0.6610(3) 0.31167(18) 0.0273(2)
C9 C 0.7509(4) 0.2378(2) 0.0486(3)
C10 C 0.7506(5) 0.3642(2) 0.2079(3)
H5 H 0.753(5) 0.405(3) 0.264(4)
C11 C 0.8385(4) 0.2315(3) 0.1501(3)
H6 H 0.895(4) 0.185(2) 0.173(3)
N3 N 0.8400(4) 0.2937(2) 0.2283(2)
O8 O 0.1420(3) 0.05230(16) 0.08819(18)
C12 C 0.0261(4) 0.0036(2) 0.0637(2)
O18 O 0.5104(3) 0.08660(13) 0.05479(15)
O20 O 0.2971(3) 0.23300(13) 0.08781(15)
O2 O 0.5884(4) 0.51099(15) 0.68317(19)
O3 O 0.5104(3) 0.41340(13) 0.55479(15)
O4 O 0.2971(3) 0.26700(13) 0.58781(15)
O5 O 0.2937(2) 0.16892(12) 0.72447(14)
O6 O 0.0659(3) 0.2378(2) 0.8949(2)
H1 H 0.070(6) 0.284(3) 0.896(4)
H2 H 0.001(6) 0.230(3) 0.853(4)
O7 O 0.0539(3) 0.03955(19) 0.86704(19)
La1 La 0.290862(18) 0.130389(9) 0.930090(11)
C2 C 0.5135(4) 0.37503(14) 0.7490(2)
C4 C 0.5751(3) 0.32125(18) 0.9172(2)
C5 C 0.3378(3) 0.24075(16) 0.68416(19)
C6 C 0.5350(3) 0.43773(17) 0.6551(2)
C7 C 0.4439(3) 0.29479(16) 0.76022(19)
H4 H 0.753(4) 0.195(2) 0.999(3)
N1 N 0.5926(3) 0.39089(16) 0.85049(19)
H7 H 0.656(5) 0.440(3) 0.867(3)
N2 N 0.4834(3) 0.26129(14) 0.86666(17)
O15 O 0.4116(4) 0.01099(15) 0.81683(19)
La4 La 0.709138(18) 0.630389(9) 0.569910(11)
La6 La 0.290862(18) 0.369611(9) 0.430090(11)
O9 O 0.9461(3) 0.96045(19) 0.13296(19)
O10 O 0.4116(4) 0.48901(15) 0.31683(19)
O11 O 0.4896(3) 0.58660(13) 0.44521(15)
O12 O 0.7029(3) 0.73300(13) 0.41219(15)
O13 O 0.7063(2) 0.83108(12) 0.27553(14)
O14 O 0.9341(3) 0.7622(2) 0.1051(2)
H8 H 0.930(6) 0.716(3) 0.104(4)
H9 H 0.999(6) 0.770(3) 0.147(4)
La2 La 0.709138(18) 0.869611(9) 0.069910(11)
C14 C 0.4865(4) 0.62497(14) 0.2510(2)
C16 C 0.4249(3) 0.67875(18) 0.0828(2)
C17 C 0.6622(3) 0.75925(16) 0.31584(19)
C18 C 0.4650(3) 0.56227(17) 0.3449(2)
C19 C 0.5561(3) 0.70521(16) 0.23978(19)
H11 H 0.247(4) 0.805(2) 0.001(3)
N4 N 0.4074(3) 0.60911(16) 0.14951(19)
H14 H 0.344(5) 0.560(3) 0.133(3)
N5 N 0.5166(3) 0.73871(14) 0.13334(17)
O16 O 0.5884(4) 0.98901(15) 0.18317(19)
O1 O 0.8580(3) 0.94770(16) 0.91181(18)
C8 C 0.9739(4) 0.9964(2) 0.9363(2)
C13 C 0.3388(5) 0.6233(2) 0.8908(3)
H10 H 0.395(4) 0.575(2) 0.905(3)
C15 C 0.3390(3) 0.68833(18) 0.9727(2)
C20 C 0.2491(4) 0.7622(2) 0.9514(3)
C21 C 0.2494(5) 0.6358(2) 0.7921(3)
H12 H 0.247(5) 0.595(3) 0.736(4)
C22 C 0.1615(4) 0.7685(3) 0.8499(3)
H13 H 0.105(4) 0.815(2) 0.827(3)
N6 N 0.1600(4) 0.7063(2) 0.7717(2)
O17 O 0.4896(3) 0.91340(13) 0.94521(15)
O19 O 0.7029(3) 0.76700(13) 0.91219(15)
O1_2 O 0.1420(3) 0.44770(16) 0.58819(18)
C8_2 C 0.0261(4) 0.4964(2) 0.5637(2)
O9_2 O 0.0539(3) 0.46045(19) 0.36704(19)
O13_2 O 0.2937(2) 0.33108(12) 0.22447(14)
O14_2 O 0.0659(3) 0.2622(2) 0.3949(2)
H8_2 H 0.070(6) 0.216(3) 0.396(4)
H9_2 H 0.001(6) 0.270(3) 0.353(4)
C13_2 C 0.6612(5) 0.1233(2) 0.6092(3)
H10_2 H 0.605(4) 0.075(2) 0.595(3)
C14_2 C 0.5135(4) 0.12497(14) 0.2490(2)
C15_2 C 0.6610(3) 0.18833(18) 0.5273(2)
C16_2 C 0.5751(3) 0.17875(18) 0.4172(2)
C17_2 C 0.3378(3) 0.25925(16) 0.18416(19)
C18_2 C 0.5350(3) 0.06227(17) 0.1551(2)
C19_2 C 0.4439(3) 0.20521(16) 0.26022(19)
C20_2 C 0.7509(4) 0.2622(2) 0.5486(3)
H11_2 H 0.753(4) 0.305(2) 0.499(3)
C21_2 C 0.7506(5) 0.1358(2) 0.7079(3)
H12_2 H 0.753(5) 0.095(3) 0.764(4)
C22_2 C 0.8385(4) 0.2685(3) 0.6501(3)
H13_2 H 0.895(4) 0.315(2) 0.673(3)
N4_2 N 0.5926(3) 0.10911(16) 0.35049(19)
H14_2 H 0.656(5) 0.060(3) 0.367(3)
N5_2 N 0.4834(3) 0.23871(14) 0.36666(17)
N6_2 N 0.8400(4) 0.2063(2) 0.7283(2)
O5_2 O 0.7063(2) 0.66892(12) 0.77553(14)
O6_2 O 0.9341(3) 0.7378(2) 0.6051(2)
H1_2 H 0.930(6) 0.784(3) 0.604(4)
H2_2 H 0.999(6) 0.730(3) 0.647(4)
O7_2 O 0.9461(3) 0.53955(19) 0.63296(19)
C1_2 C 0.3388(5) 0.8767(2) 0.3908(3)
H3_2 H 0.395(4) 0.925(2) 0.405(3)
C2_2 C 0.4865(4) 0.87503(14) 0.7510(2)
C3_2 C 0.3390(3) 0.81167(18) 0.4727(2)
C4_2 C 0.4249(3) 0.82125(18) 0.5828(2)
C5_2 C 0.6622(3) 0.74075(16) 0.81584(19)
C6_2 C 0.4650(3) 0.93773(17) 0.8449(2)
C7_2 C 0.5561(3) 0.79479(16) 0.73978(19)
C9_2 C 0.2491(4) 0.7378(2) 0.4514(3)
H4_2 H 0.247(4) 0.695(2) 0.501(3)
C10_2 C 0.2494(5) 0.8642(2) 0.2921(3)
H5_2 H 0.247(5) 0.905(3) 0.236(4)
C11_2 C 0.1615(4) 0.7315(3) 0.3499(3)
H6_2 H 0.105(4) 0.685(2) 0.327(3)
N1_2 N 0.4074(3) 0.89089(16) 0.64951(19)
H7_2 H 0.344(5) 0.940(3) 0.633(3)
N2_2 N 0.5166(3) 0.76129(14) 0.63334(17)
N3_2 N 0.1600(4) 0.7937(2) 0.2717(2)
O8_2 O 0.8580(3) 0.55230(16) 0.41181(18)
C12_2 C 0.9739(4) 0.5036(2) 0.4363(2)
loop_
_geom_bond_atom_site_label_1
_geom_bond_atom_site_label_2
_geom_bond_site_symmetry_1
_geom_bond_site_symmetry_2
C1 H3 1_555 1_555
C3 C1 1_555 1_555
C9 C3 1_555 1_555
C10 C1 1_555 1_555
H5 C10 1_555 1_555
C11 C9 1_555 1_555
H6 C11 1_555 1_555
N3 C10 1_555 1_555
C11 N3 1_555 1_555
O8 C12 1_555 1_555
O2 C6 1_555 1_555
O3 C6 1_555 1_555
O4 C5 1_555 1_555
O5 La1 1_555 1_555
O6 H1 1_555 1_555
H2 O6 1_555 1_555
O7 La1 1_555 1_555
La1 O6 1_555 1_555
C2 C6 1_555 1_555
C5 O5 1_555 1_555
C7 C2 1_555 1_555
N1 C2 1_555 1_555
H7 N1 1_555 1_555
N2 La1 1_555 1_555
O15 La1 1_555 1_555
La4 O2 1_555 1_555
La6 O3 1_555 1_555
O4 La6 1_555 1_555
C4 N1 1_555 1_555
C4 N2 1_555 1_555
C5 C7 1_555 1_555
C7 N2 1_555 1_555
O10 C18 1_555 1_555
O11 C18 1_555 1_555
O12 C17 1_555 1_555
O13 La2 1_555 1_555
O14 H8 1_555 1_555
H9 O14 1_555 1_555
C14 C18 1_555 1_555
C17 O13 1_555 1_555
C19 C14 1_555 1_555
N4 C14 1_555 1_555
H14 N4 1_555 1_555
N5 La2 1_555 1_555
O16 La2 1_555 1_555
La4 O11 1_555 1_555
La6 O10 1_555 1_555
O9 La2 1_555 1_555
O12 La4 1_555 1_555
O14 La2 1_555 1_555
C16 N4 1_555 1_555
C16 N5 1_555 1_555
C17 C19 1_555 1_555
C19 N5 1_555 1_555
O1 C8 1_555 1_555
C13 H10 1_555 1_555
C15 C13 1_555 1_555
C20 C15 1_555 1_555
C21 C13 1_555 1_555
H12 C21 1_555 1_555
C22 C20 1_555 1_555
H13 C22 1_555 1_555
N6 C21 1_555 1_555
C22 N6 1_555 1_555
O1_2 C8_2 1_555 1_555
O18 C18_2 1_555 1_555
O20 C17_2 1_555 1_555
O13_2 La6 1_555 1_555
O14_2 H8_2 1_555 1_555
H9_2 O14_2 1_555 1_555
La6 O1_2 1_555 1_555
C13_2 H10_2 1_555 1_555
C14_2 C18_2 1_555 1_555
C15_2 C13_2 1_555 1_555
C16_2 C15_2 1_555 1_555
C17_2 O13_2 1_555 1_555
C19_2 C14_2 1_555 1_555
C20_2 C15_2 1_555 1_555
H11_2 C20_2 1_555 1_555
C21_2 C13_2 1_555 1_555
H12_2 C21_2 1_555 1_555
C22_2 C20_2 1_555 1_555
H13_2 C22_2 1_555 1_555
N4_2 C14_2 1_555 1_555
H14_2 N4_2 1_555 1_555
N5_2 La6 1_555 1_555
N6_2 C21_2 1_555 1_555
O9_2 La6 1_555 1_555
O14_2 La6 1_555 1_555
C16_2 N4_2 1_555 1_555
C16_2 N5_2 1_555 1_555
C17_2 C19_2 1_555 1_555
C19_2 N5_2 1_555 1_555
C22_2 N6_2 1_555 1_555
O17 C6_2 1_555 1_555
O19 C5_2 1_555 1_555
O5_2 La4 1_555 1_555
O6_2 H1_2 1_555 1_555
H2_2 O6_2 1_555 1_555
O7_2 La4 1_555 1_555
La4 O6_2 1_555 1_555
C1_2 H3_2 1_555 1_555
C2_2 C6_2 1_555 1_555
C3_2 C1_2 1_555 1_555
C4_2 C3_2 1_555 1_555
C5_2 O5_2 1_555 1_555
C7_2 C2_2 1_555 1_555
C9_2 C3_2 1_555 1_555
H4_2 C9_2 1_555 1_555
C10_2 C1_2 1_555 1_555
H5_2 C10_2 1_555 1_555
C11_2 C9_2 1_555 1_555
H6_2 C11_2 1_555 1_555
N1_2 C2_2 1_555 1_555
H7_2 N1_2 1_555 1_555
N2_2 La4 1_555 1_555
N3_2 C10_2 1_555 1_555
O8_2 La4 1_555 1_555
C4_2 N1_2 1_555 1_555
C4_2 N2_2 1_555 1_555
C5_2 C7_2 1_555 1_555
C7_2 N2_2 1_555 1_555
C11_2 N3_2 1_555 1_555
O8_2 C12_2 1_555 1_555

#END
