
###############################################################################
#
# This file contains modified crystal structure data generated from the
# MOF subset of the Cambridge Structural Database (CSD) v543 
# hosted by the Cambridge Crystallographic Data Centre (CCDC).
#
# This work is licensed under the Creative Commons
# Attribution-NonCommercial-ShareAlike 4.0 International License.
# To view a copy of this license, visit
# http://creativecommons.org/licenses/by-nc-sa/4.0/
# or send a letter to
# Creative Commons, PO Box 1866, Mountain View, CA 94042, USA.
#
# CIF created using the CSD Python API on 29 September 2022
# The structure has been converted into the P1 space group
# The structure has a 3D framework
# The original CSD entry FUDGOC is in the orthorhombic crystal system
# The framework has been calculated to contain at least 10.0% void space
# The void calculation uses a probe of radius 1.32A, grid spacing 0.4
#
###############################################################################

data_FUDGOC
_chemical_formula_moiety         '(C64 H24 In4 O36)n'
_symmetry_cell_setting           triclinic
_symmetry_space_group_name_H-M   'P 1'
_symmetry_Int_Tables_number      1
_space_group_name_Hall           'P 1'
loop_
_symmetry_equiv_pos_site_id
_symmetry_equiv_pos_as_xyz
1 x,y,z
_cell_length_a                   17.303(4)
_cell_length_b                   9.925(2)
_cell_length_c                   22.410(5)
_cell_angle_alpha                90
_cell_angle_beta                 90
_cell_angle_gamma                90
_cell_volume                     3848.52
loop_
_atom_site_label
_atom_site_type_symbol
_atom_site_fract_x
_atom_site_fract_y
_atom_site_fract_z
O6 O 0.3434(3) 0.1096(4) 0.3957(2)
O7 O 0.3975(3) 0.0096(6) 0.3197(2)
C13 C 0.3612(4) 0.0022(7) 0.3670(3)
In3 In 0.39413(3) 0.2500 0.32992(2)
In1 In 0.10587(3) 0.7500 0.82992(2)
O1 O 0.2220(3) 0.7500 0.5196(2)
O2 O 0.1207(3) 0.7500 0.7286(3)
O3 O 0.2228(4) 0.7500 0.7855(3)
O4 O 0.4844(3) 0.7500 0.6962(3)
O5 O 0.4993(4) 0.7500 0.6002(3)
C1 C 0.2583(4) 0.7500 0.5739(3)
C2 C 0.2105(4) 0.7500 0.6246(3)
H1 H 0.1570 0.7500 0.6204
C3 C 0.2430(5) 0.7500 0.6802(3)
C4 C 0.3238(5) 0.7500 0.6873(4)
H2 H 0.3456 0.7500 0.7252
C5 C 0.3702(5) 0.7500 0.6376(4)
C6 C 0.3387(5) 0.7500 0.5798(4)
H3 H 0.3705 0.7500 0.5464
C7 C 0.1927(5) 0.7500 0.7340(4)
C8 C 0.4557(5) 0.7500 0.6444(4)
C9 C 0.2689(4) 0.7500 0.4688(3)
C10 C 0.2908(3) 0.8722(6) 0.4437(3)
H4 H 0.2747 0.9532 0.4605
C11 C 0.3371(3) 0.8710(5) 0.3931(2)
C12 C 0.3596(5) 0.7500 0.3677(3)
H5 H 0.3899 0.7500 0.3334
O8 O 0.3434(3) 0.3904(4) 0.3957(2)
O9 O 0.3975(3) 0.4904(6) 0.3197(2)
C14 C 0.2908(3) 0.6278(6) 0.4437(3)
H6 H 0.2747 0.5468 0.4605
C15 C 0.3371(3) 0.6290(5) 0.3931(2)
C16 C 0.3612(4) 0.4978(7) 0.3670(3)
In4 In 0.60587(3) 0.7500 0.67008(2)
O12 O 0.1566(3) 0.8904(4) 0.8957(2)
O13 O 0.1566(3) 0.6096(4) 0.8957(2)
O14 O 0.1025(3) 0.9904(6) 0.8197(2)
O15 O 0.1025(3) 0.5096(6) 0.8197(2)
O10 O 0.9844(3) 0.7500 0.8038(3)
O11 O 0.9993(4) 0.7500 0.8998(3)
O1_2 O 0.2780(3) 0.2500 0.0196(2)
O2_2 O 0.3793(3) 0.2500 0.2286(3)
O3_2 O 0.2772(4) 0.2500 0.2855(3)
O4_2 O 0.0156(3) 0.2500 0.1962(3)
O5_2 O 0.0007(4) 0.2500 0.1002(3)
C1_2 C 0.2417(4) 0.2500 0.0739(3)
C2_2 C 0.2895(4) 0.2500 0.1246(3)
H1_2 H 0.3430 0.2500 0.1204
C3_2 C 0.2570(5) 0.2500 0.1802(3)
C4_2 C 0.1762(5) 0.2500 0.1873(4)
H2_2 H 0.1544 0.2500 0.2252
C5_2 C 0.1298(5) 0.2500 0.1376(4)
C6_2 C 0.1613(5) 0.2500 0.0798(4)
H3_2 H 0.1295 0.2500 0.0464
C7_2 C 0.3073(5) 0.2500 0.2340(4)
C8_2 C 0.0443(5) 0.2500 0.1444(4)
O10_2 O 0.5156(3) 0.2500 0.3038(3)
O11_2 O 0.5007(4) 0.2500 0.3998(3)
C9_2 C 0.2311(4) 0.2500 0.9688(3)
C10_2 C 0.2092(3) 0.1278(6) 0.9437(3)
H4_2 H 0.2253 0.0468 0.9605
C11_2 C 0.1629(3) 0.1290(5) 0.8931(2)
C12_2 C 0.1404(5) 0.2500 0.8677(3)
H5_2 H 0.1101 0.2500 0.8334
C14_2 C 0.2092(3) 0.3722(6) 0.9437(3)
H6_2 H 0.2253 0.4532 0.9605
C15_2 C 0.1629(3) 0.3710(5) 0.8931(2)
C16_2 C 0.1388(4) 0.5022(7) 0.8670(3)
C13_2 C 0.1388(4) 0.9978(7) 0.8670(3)
In4_2 In 0.89413(3) 0.2500 0.17008(2)
O1_3 O 0.7780(3) 0.2500 0.4804(2)
O2_3 O 0.8793(3) 0.2500 0.2714(3)
O3_3 O 0.7772(4) 0.2500 0.2145(3)
O6_2 O 0.6566(3) 0.6096(4) 0.6043(2)
O7_2 O 0.6025(3) 0.5096(6) 0.6803(2)
C1_3 C 0.7417(4) 0.2500 0.4261(3)
C2_3 C 0.7895(4) 0.2500 0.3754(3)
H1_3 H 0.8430 0.2500 0.3796
C3_3 C 0.7570(5) 0.2500 0.3198(3)
C4_3 C 0.6762(5) 0.2500 0.3127(4)
H2_3 H 0.6544 0.2500 0.2748
C5_3 C 0.6298(5) 0.2500 0.3624(4)
C6_3 C 0.6613(5) 0.2500 0.4202(4)
H3_3 H 0.6295 0.2500 0.4536
C7_3 C 0.8073(5) 0.2500 0.2660(4)
C8_3 C 0.5443(5) 0.2500 0.3556(4)
C9_3 C 0.7311(4) 0.2500 0.5312(3)
C10_3 C 0.7092(3) 0.3722(6) 0.5563(3)
H4_3 H 0.7253 0.4532 0.5395
C11_3 C 0.6629(3) 0.3710(5) 0.6069(2)
C12_3 C 0.6404(5) 0.2500 0.6323(3)
H5_3 H 0.6101 0.2500 0.6666
C13_3 C 0.6388(4) 0.5022(7) 0.6330(3)
C14_3 C 0.7092(3) 0.1278(6) 0.5563(3)
H6_3 H 0.7253 0.0468 0.5395
C15_3 C 0.6629(3) 0.1290(5) 0.6069(2)
O12_2 O 0.8434(3) 0.3904(4) 0.1043(2)
O13_2 O 0.8434(3) 0.1096(4) 0.1043(2)
O14_2 O 0.8975(3) 0.4904(6) 0.1803(2)
O15_2 O 0.8975(3) 0.0096(6) 0.1803(2)
O8_2 O 0.6566(3) 0.8904(4) 0.6043(2)
O9_2 O 0.6025(3) 0.9904(6) 0.6803(2)
C16_3 C 0.6388(4) 0.9978(7) 0.6330(3)
C16_4 C 0.8612(4) 0.0022(7) 0.1330(3)
C9_4 C 0.7689(4) 0.7500 0.0312(3)
C10_4 C 0.7908(3) 0.6278(6) 0.0563(3)
H4_4 H 0.7747 0.5468 0.0395
C11_4 C 0.8371(3) 0.6290(5) 0.1069(2)
C12_4 C 0.8596(5) 0.7500 0.1323(3)
H5_4 H 0.8899 0.7500 0.1666
C13_4 C 0.8612(4) 0.4978(7) 0.1330(3)
C14_4 C 0.7908(3) 0.8722(6) 0.0563(3)
H6_4 H 0.7747 0.9532 0.0395
C15_4 C 0.8371(3) 0.8710(5) 0.1069(2)
O1_4 O 0.7220(3) 0.7500 0.9804(2)
O2_4 O 0.6207(3) 0.7500 0.7714(3)
O3_4 O 0.7228(4) 0.7500 0.7145(3)
C1_4 C 0.7583(4) 0.7500 0.9261(3)
C2_4 C 0.7105(4) 0.7500 0.8754(3)
H1_4 H 0.6570 0.7500 0.8796
C3_4 C 0.7430(5) 0.7500 0.8198(3)
C4_4 C 0.8238(5) 0.7500 0.8127(4)
H2_4 H 0.8456 0.7500 0.7748
C5_4 C 0.8702(5) 0.7500 0.8624(4)
C6_4 C 0.8387(5) 0.7500 0.9202(4)
H3_4 H 0.8705 0.7500 0.9536
C7_4 C 0.6927(5) 0.7500 0.7660(4)
C8_4 C 0.9557(5) 0.7500 0.8556(4)
loop_
_geom_bond_atom_site_label_1
_geom_bond_atom_site_label_2
_geom_bond_site_symmetry_1
_geom_bond_site_symmetry_2
O6 C13 1_555 1_555
O7 C13 1_555 1_555
In3 O6 1_555 1_555
O7 In3 1_555 1_555
In1 O2 1_555 1_555
O1 C1 1_555 1_555
O2 C7 1_555 1_555
O3 In1 1_555 1_555
O4 C8 1_555 1_555
O5 C8 1_555 1_555
C1 C2 1_555 1_555
C2 H1 1_555 1_555
C3 C2 1_555 1_555
C4 C3 1_555 1_555
H2 C4 1_555 1_555
C5 C4 1_555 1_555
C6 C1 1_555 1_555
H3 C6 1_555 1_555
C7 O3 1_555 1_555
C8 C5 1_555 1_555
C9 O1 1_555 1_555
C10 C9 1_555 1_555
H4 C10 1_555 1_555
C11 C10 1_555 1_555
C12 C11 1_555 1_555
H5 C12 1_555 1_555
O8 C16 1_555 1_555
O9 C16 1_555 1_555
C14 C9 1_555 1_555
H6 C14 1_555 1_555
C15 C12 1_555 1_555
C16 C15 1_555 1_555
In3 O8 1_555 1_555
In4 O4 1_555 1_555
O12 In1 1_555 1_555
O13 In1 1_555 1_555
O14 In1 1_555 1_555
O15 In1 1_555 1_555
O5 In4 1_555 1_555
C3 C7 1_555 1_555
C5 C6 1_555 1_555
O9 In3 1_555 1_555
C14 C15 1_555 1_555
In3 O2_2 1_555 1_555
O1_2 C1_2 1_555 1_555
O2_2 C7_2 1_555 1_555
O3_2 In3 1_555 1_555
O4_2 C8_2 1_555 1_555
O5_2 C8_2 1_555 1_555
C1_2 C2_2 1_555 1_555
C2_2 H1_2 1_555 1_555
C3_2 C2_2 1_555 1_555
C4_2 C3_2 1_555 1_555
H2_2 C4_2 1_555 1_555
C5_2 C4_2 1_555 1_555
C6_2 C1_2 1_555 1_555
H3_2 C6_2 1_555 1_555
C7_2 O3_2 1_555 1_555
C8_2 C5_2 1_555 1_555
O10_2 In3 1_555 1_555
O11_2 In3 1_555 1_555
C3_2 C7_2 1_555 1_555
C5_2 C6_2 1_555 1_555
C10_2 C9_2 1_555 1_555
H4_2 C10_2 1_555 1_555
C11_2 C10_2 1_555 1_555
C12_2 C11_2 1_555 1_555
H5_2 C12_2 1_555 1_555
O13 C16_2 1_555 1_555
O15 C16_2 1_555 1_555
C14_2 C9_2 1_555 1_555
H6_2 C14_2 1_555 1_555
C15_2 C12_2 1_555 1_555
C16_2 C15_2 1_555 1_555
C14_2 C15_2 1_555 1_555
O12 C13_2 1_555 1_555
O14 C13_2 1_555 1_555
In4_2 O2_3 1_555 1_555
O1_3 C1_3 1_555 1_555
O2_3 C7_3 1_555 1_555
O3_3 In4_2 1_555 1_555
O10_2 C8_3 1_555 1_555
O11_2 C8_3 1_555 1_555
O6_2 C13_3 1_555 1_555
O7_2 C13_3 1_555 1_555
C1_3 C2_3 1_555 1_555
C2_3 H1_3 1_555 1_555
C3_3 C2_3 1_555 1_555
C4_3 C3_3 1_555 1_555
H2_3 C4_3 1_555 1_555
C5_3 C4_3 1_555 1_555
C6_3 C1_3 1_555 1_555
H3_3 C6_3 1_555 1_555
C7_3 O3_3 1_555 1_555
C8_3 C5_3 1_555 1_555
C9_3 O1_3 1_555 1_555
C10_3 C9_3 1_555 1_555
H4_3 C10_3 1_555 1_555
C11_3 C10_3 1_555 1_555
C12_3 C11_3 1_555 1_555
H5_3 C12_3 1_555 1_555
C13_3 C11_3 1_555 1_555
C14_3 C9_3 1_555 1_555
H6_3 C14_3 1_555 1_555
C15_3 C12_3 1_555 1_555
In4 O6_2 1_555 1_555
O12_2 In4_2 1_555 1_555
O13_2 In4_2 1_555 1_555
O14_2 In4_2 1_555 1_555
O15_2 In4_2 1_555 1_555
O7_2 In4 1_555 1_555
C3_3 C7_3 1_555 1_555
C5_3 C6_3 1_555 1_555
C14_3 C15_3 1_555 1_555
O8_2 C16_3 1_555 1_555
O9_2 C16_3 1_555 1_555
In4 O8_2 1_555 1_555
O9_2 In4 1_555 1_555
O13_2 C16_4 1_555 1_555
O15_2 C16_4 1_555 1_555
O12_2 C13_4 1_555 1_555
O14_2 C13_4 1_555 1_555
C10_4 C9_4 1_555 1_555
H4_4 C10_4 1_555 1_555
C11_4 C10_4 1_555 1_555
C12_4 C11_4 1_555 1_555
H5_4 C12_4 1_555 1_555
C13_4 C11_4 1_555 1_555
C14_4 C9_4 1_555 1_555
H6_4 C14_4 1_555 1_555
C15_4 C12_4 1_555 1_555
C14_4 C15_4 1_555 1_555
In4 O2_4 1_555 1_555
O1_4 C1_4 1_555 1_555
O2_4 C7_4 1_555 1_555
O3_4 In4 1_555 1_555
O10 C8_4 1_555 1_555
O11 C8_4 1_555 1_555
C1_4 C2_4 1_555 1_555
C2_4 H1_4 1_555 1_555
C3_4 C2_4 1_555 1_555
C4_4 C3_4 1_555 1_555
H2_4 C4_4 1_555 1_555
C5_4 C4_4 1_555 1_555
C6_4 C1_4 1_555 1_555
H3_4 C6_4 1_555 1_555
C7_4 O3_4 1_555 1_555
C8_4 C5_4 1_555 1_555
C3_4 C7_4 1_555 1_555
C5_4 C6_4 1_555 1_555

#END
