
###############################################################################
#
# This file contains modified crystal structure data generated from the
# MOF subset of the Cambridge Structural Database (CSD) v543 
# hosted by the Cambridge Crystallographic Data Centre (CCDC).
#
# This work is licensed under the Creative Commons
# Attribution-NonCommercial-ShareAlike 4.0 International License.
# To view a copy of this license, visit
# http://creativecommons.org/licenses/by-nc-sa/4.0/
# or send a letter to
# Creative Commons, PO Box 1866, Mountain View, CA 94042, USA.
#
# CIF created using the CSD Python API on 29 September 2022
# The structure has been converted into the P1 space group
# The structure has a 3D framework
# The original CSD entry FUFREE is in the orthorhombic crystal system
# The framework has been calculated to contain at least 10.0% void space
# The void calculation uses a probe of radius 1.32A, grid spacing 0.4
#
###############################################################################

data_FUFREE
_chemical_formula_moiety         '(C40 H28 Fe4 N12 O20)n'
_symmetry_cell_setting           triclinic
_symmetry_space_group_name_H-M   'P 1'
_symmetry_Int_Tables_number      1
_space_group_name_Hall           'P 1'
loop_
_symmetry_equiv_pos_site_id
_symmetry_equiv_pos_as_xyz
1 x,y,z
_cell_length_a                   7.7850(16)
_cell_length_b                   10.238(2)
_cell_length_c                   15.851(3)
_cell_angle_alpha                90
_cell_angle_beta                 90
_cell_angle_gamma                90
_cell_volume                     1263.37
loop_
_atom_site_label
_atom_site_type_symbol
_atom_site_fract_x
_atom_site_fract_y
_atom_site_fract_z
Fe1 Fe 0.36188(3) 0.47017(3) 0.09834(2)
O3 O 0.0295(2) 0.17129(16) 0.04588(10)
O4 O 0.1552(2) 0.36482(16) 0.05235(11)
O5 O 0.2005(3) 0.61535(18) 0.15409(14)
N1 N 0.6090(2) 0.4282(2) 0.47672(13)
N2 N 0.3706(2) 0.11032(19) 0.25545(12)
H1 H 0.4140 0.0507 0.2893
N3 N 0.3178(2) 0.30396(18) 0.19950(12)
C1 C 0.5470(3) 0.4961(3) 0.41087(15)
H2 H 0.5492 0.5888 0.4136
C2 C 0.6111(3) 0.2981(3) 0.46944(17)
H3 H 0.6576 0.2484 0.5146
C3 C 0.5496(3) 0.2326(2) 0.40004(16)
H4 H 0.5557 0.1401 0.3973
C4 C 0.4807(3) 0.4387(2) 0.34009(15)
H5 H 0.4366 0.4909 0.2955
C5 C 0.4785(3) 0.3033(2) 0.33400(15)
C6 C 0.3946(3) 0.2409(2) 0.26185(14)
C7 C 0.2676(3) 0.0870(2) 0.18747(14)
C8 C 0.2350(3) 0.2088(2) 0.15302(13)
C10 C 0.1332(2) 0.2489(2) 0.07836(12)
H6 H 0.226(4) 0.676(3) 0.1579(18)
H7 H 0.099(4) 0.619(3) 0.1534(18)
Fe2 Fe 0.63812(3) 0.52983(3) 0.59834(2)
O6 O 0.5678(2) 0.57457(15) 0.14327(12)
O7 O 0.5295(2) 0.32871(16) 0.04588(10)
N4 N 0.3910(2) 0.5718(2) 0.97672(13)
O1 O 0.3348(2) 0.86668(17) 0.17102(13)
O2 O 0.0678(2) 0.92543(15) 0.14327(12)
C9 C 0.2192(3) 0.9498(2) 0.16453(14)
Fe3 Fe 0.86188(3) 0.02983(3) 0.09834(2)
Fe3_2 Fe 0.13812(3) 0.97017(3) 0.59834(2)
H3_2 H 0.3424 0.7516 0.0146
O3_2 O 0.9705(2) 0.82871(16) 0.54588(10)
O4_2 O 0.8448(2) 0.63518(16) 0.55235(11)
O5_2 O 0.7995(3) 0.38465(18) 0.65409(14)
N2_2 N 0.6294(2) 0.88968(19) 0.75545(12)
H1_2 H 0.5860 0.9493 0.7893
N3_2 N 0.6822(2) 0.69604(18) 0.69950(12)
C1_2 C 0.4530(3) 0.5039(3) 0.91087(15)
H2_2 H 0.4508 0.4112 0.9136
C2_2 C 0.3889(3) 0.7019(3) 0.96944(17)
C3_2 C 0.4504(3) 0.7674(2) 0.90004(16)
H4_2 H 0.4443 0.8599 0.8973
C4_2 C 0.5193(3) 0.5613(2) 0.84009(15)
H5_2 H 0.5634 0.5091 0.7955
C5_2 C 0.5215(3) 0.6967(2) 0.83400(15)
C6_2 C 0.6054(3) 0.7591(2) 0.76185(14)
C7_2 C 0.7324(3) 0.9130(2) 0.68747(14)
C8_2 C 0.7650(3) 0.7912(2) 0.65302(13)
C10_2 C 0.8668(2) 0.7511(2) 0.57836(12)
H6_2 H 0.774(4) 0.324(3) 0.6579(18)
H7_2 H 0.901(4) 0.381(3) 0.6534(18)
O6_2 O 0.4322(2) 0.42543(15) 0.64327(12)
O7_2 O 0.4705(2) 0.67129(16) 0.54588(10)
O5_3 O 0.2995(3) 0.11535(18) 0.65409(14)
H6_3 H 0.274(4) 0.176(3) 0.6579(18)
H7_3 H 0.401(4) 0.119(3) 0.6534(18)
N4_2 N 0.1090(2) 0.0718(2) 0.47672(13)
O1_2 O 0.1652(2) 0.36668(17) 0.67102(13)
O4_3 O 0.3448(2) 0.86482(16) 0.55235(11)
N2_3 N 0.1294(2) 0.61032(19) 0.75545(12)
H1_3 H 0.0860 0.5507 0.7893
N3_3 N 0.1822(2) 0.80396(18) 0.69950(12)
C4_3 C 0.0193(3) 0.9387(2) 0.84009(15)
H5_3 H 0.0634 0.9909 0.7955
C5_3 C 0.0215(3) 0.8033(2) 0.83400(15)
C6_3 C 0.1054(3) 0.7409(2) 0.76185(14)
C7_3 C 0.2324(3) 0.5870(2) 0.68747(14)
C8_3 C 0.2650(3) 0.7088(2) 0.65302(13)
C9_2 C 0.2808(3) 0.4498(2) 0.66453(14)
C10_3 C 0.3668(2) 0.7489(2) 0.57836(12)
N1_2 N 0.8910(2) 0.9282(2) 0.97672(13)
C1_3 C 0.9530(3) 0.9961(3) 0.91087(15)
C2_3 C 0.8889(3) 0.7981(3) 0.96944(17)
C3_3 C 0.9504(3) 0.7326(2) 0.90004(16)
H4_3 H 0.9443 0.6401 0.8973
C1_4 C 0.0470(3) 0.0039(3) 0.41087(15)
C2_4 C 0.1111(3) 0.2019(3) 0.46944(17)
H3_3 H 0.1576 0.2516 0.5146
C3_4 C 0.0496(3) 0.2674(2) 0.40004(16)
H4_4 H 0.0557 0.3599 0.3973
H2_3 H 0.0492 0.9112 0.4136
O1_3 O 0.8348(2) 0.63332(17) 0.17102(13)
O4_4 O 0.6552(2) 0.13518(16) 0.05235(11)
N2_4 N 0.8706(2) 0.38968(19) 0.25545(12)
H1_4 H 0.9140 0.4493 0.2893
N3_4 N 0.8178(2) 0.19604(18) 0.19950(12)
C4_4 C 0.9807(3) 0.0613(2) 0.34009(15)
H5_4 H 0.9366 0.0091 0.2955
C5_4 C 0.9785(3) 0.1967(2) 0.33400(15)
C6_4 C 0.8946(3) 0.2591(2) 0.26185(14)
C7_4 C 0.7676(3) 0.4130(2) 0.18747(14)
C8_4 C 0.7350(3) 0.2912(2) 0.15302(13)
C9_3 C 0.7192(3) 0.5502(2) 0.16453(14)
C10_4 C 0.6332(2) 0.2511(2) 0.07836(12)
O1_4 O 0.6652(2) 0.13332(17) 0.67102(13)
O2_2 O 0.9322(2) 0.07457(15) 0.64327(12)
C9_4 C 0.7808(3) 0.0502(2) 0.66453(14)
H2_4 H 0.9508 0.0888 0.9136
H3_4 H 0.8424 0.7484 0.0146
O5_4 O 0.7005(3) 0.88465(18) 0.15409(14)
H6_4 H 0.726(4) 0.824(3) 0.1579(18)
H7_4 H 0.599(4) 0.881(3) 0.1534(18)
loop_
_geom_bond_atom_site_label_1
_geom_bond_atom_site_label_2
_geom_bond_site_symmetry_1
_geom_bond_site_symmetry_2
Fe1 O4 1_555 1_555
O3 C10 1_555 1_555
O4 C10 1_555 1_555
O5 Fe1 1_555 1_555
N1 C1 1_555 1_555
N2 H1 1_555 1_555
N3 Fe1 1_555 1_555
C1 H2 1_555 1_555
C2 N1 1_555 1_555
H3 C2 1_555 1_555
C3 C2 1_555 1_555
H4 C3 1_555 1_555
C4 C1 1_555 1_555
H5 C4 1_555 1_555
C5 C3 1_555 1_555
C6 N2 1_555 1_555
C7 N2 1_555 1_555
C8 N3 1_555 1_555
C10 C8 1_555 1_555
H6 O5 1_555 1_555
H7 O5 1_555 1_555
Fe2 N1 1_555 1_555
O6 Fe1 1_555 1_555
O7 Fe1 1_555 1_555
N3 C6 1_555 1_555
C4 C5 1_555 1_555
C5 C6 1_555 1_555
C7 C8 1_555 1_555
O1 C9 1_555 1_555
O2 C9 1_555 1_555
Fe2 O4_2 1_555 1_555
O3_2 C10_2 1_555 1_555
O4_2 C10_2 1_555 1_555
O5_2 Fe2 1_555 1_555
N4 C1_2 1_555 1_555
N2_2 H1_2 1_555 1_555
N3_2 Fe2 1_555 1_555
C1_2 H2_2 1_555 1_555
C2_2 N4 1_555 1_555
C3_2 C2_2 1_555 1_555
H4_2 C3_2 1_555 1_555
C4_2 C1_2 1_555 1_555
H5_2 C4_2 1_555 1_555
C5_2 C3_2 1_555 1_555
C6_2 N2_2 1_555 1_555
C7_2 N2_2 1_555 1_555
C8_2 N3_2 1_555 1_555
C10_2 C8_2 1_555 1_555
H6_2 O5_2 1_555 1_555
H7_2 O5_2 1_555 1_555
O6_2 Fe2 1_555 1_555
O7_2 Fe2 1_555 1_555
N3_2 C6_2 1_555 1_555
C4_2 C5_2 1_555 1_555
C5_2 C6_2 1_555 1_555
C7_2 C8_2 1_555 1_555
H6_3 O5_3 1_555 1_555
H7_3 O5_3 1_555 1_555
Fe3_2 O4_3 1_555 1_555
O1_2 C9_2 1_555 1_555
O6_2 C9_2 1_555 1_555
O7_2 C10_3 1_555 1_555
O4_3 C10_3 1_555 1_555
N2_3 H1_3 1_555 1_555
N3_3 Fe3_2 1_555 1_555
H5_3 C4_3 1_555 1_555
C6_3 N2_3 1_555 1_555
C7_3 N2_3 1_555 1_555
C8_3 N3_3 1_555 1_555
C9_2 C7_3 1_555 1_555
C10_3 C8_3 1_555 1_555
N3_3 C6_3 1_555 1_555
C4_3 C5_3 1_555 1_555
C5_3 C6_3 1_555 1_555
C7_3 C8_3 1_555 1_555
N1_2 C1_3 1_555 1_555
C2_3 N1_2 1_555 1_555
C3_3 C2_3 1_555 1_555
H4_3 C3_3 1_555 1_555
N4_2 C1_4 1_555 1_555
C2_4 N4_2 1_555 1_555
H3_3 C2_4 1_555 1_555
C3_4 C2_4 1_555 1_555
H4_4 C3_4 1_555 1_555
Fe3 O4_4 1_555 1_555
O1_3 C9_3 1_555 1_555
O6 C9_3 1_555 1_555
O7 C10_4 1_555 1_555
O4_4 C10_4 1_555 1_555
N2_4 H1_4 1_555 1_555
N3_4 Fe3 1_555 1_555
H5_4 C4_4 1_555 1_555
C6_4 N2_4 1_555 1_555
C7_4 N2_4 1_555 1_555
C8_4 N3_4 1_555 1_555
C9_3 C7_4 1_555 1_555
C10_4 C8_4 1_555 1_555
N3_4 C6_4 1_555 1_555
C4_4 C5_4 1_555 1_555
C5_4 C6_4 1_555 1_555
C7_4 C8_4 1_555 1_555
O1_4 C9_4 1_555 1_555
O2_2 C9_4 1_555 1_555
H6_4 O5_4 1_555 1_555
H7_4 O5_4 1_555 1_555

#END
