
###############################################################################
#
# This file contains modified crystal structure data generated from the
# MOF subset of the Cambridge Structural Database (CSD) v543 
# hosted by the Cambridge Crystallographic Data Centre (CCDC).
#
# This work is licensed under the Creative Commons
# Attribution-NonCommercial-ShareAlike 4.0 International License.
# To view a copy of this license, visit
# http://creativecommons.org/licenses/by-nc-sa/4.0/
# or send a letter to
# Creative Commons, PO Box 1866, Mountain View, CA 94042, USA.
#
# CIF created using the CSD Python API on 29 September 2022
# The structure has been converted into the P1 space group
# The structure has a 3D framework
# The original CSD entry FUHVUB is in the monoclinic crystal system
# The framework has been calculated to contain at least 10.0% void space
# The void calculation uses a probe of radius 1.32A, grid spacing 0.4
# H atom positions have been added when not included in the experimental data
#
###############################################################################

data_FUHVUB
_chemical_formula_moiety         '(C44 H32 N12 O26 Sm4)n'
_symmetry_cell_setting           triclinic
_symmetry_space_group_name_H-M   'P 1'
_symmetry_Int_Tables_number      1
_space_group_name_Hall           'P 1'
loop_
_symmetry_equiv_pos_site_id
_symmetry_equiv_pos_as_xyz
1 x,y,z
_cell_length_a                   8.4429(17)
_cell_length_b                   14.749(3)
_cell_length_c                   11.640(2)
_cell_angle_alpha                90
_cell_angle_beta                 91.66(3)
_cell_angle_gamma                90
_cell_volume                     1448.85
loop_
_atom_site_label
_atom_site_type_symbol
_atom_site_fract_x
_atom_site_fract_y
_atom_site_fract_z
O1 O 0.4837(10) 0.4128(6) 0.0502(6)
O2 O 0.6060(10) 0.5078(5) 0.1736(6)
O3 O 0.2803(8) 0.2633(4) 0.0851(5)
C1 C 0.3148(10) 0.2398(5) 0.1850(7)
C2 C 0.5266(12) 0.4381(7) 0.1494(8)
C3 C 0.4231(10) 0.2947(6) 0.2621(7)
C4 C 0.5022(11) 0.3752(6) 0.2487(7)
N1 N 0.5834(10) 0.3904(6) 0.3503(6)
O4 O 0.2648(8) 0.1677(4) 0.2308(5)
N2 N 0.4575(9) 0.2599(5) 0.3694(6)
C5 C 0.6352(14) 0.3770(7) 0.6161(9)
H1 H 0.5744 0.4290 0.6051
C6 C 0.5564(11) 0.3197(6) 0.4202(7)
C7 C 0.7239(15) 0.3641(8) 0.7164(9)
H2 H 0.7168 0.4076 0.7738
C8 C 0.6394(11) 0.3098(6) 0.5314(8)
C9 C 0.8209(14) 0.2313(9) 0.6562(10)
H3 H 0.8861 0.1814 0.6698
N3 N 0.8170(12) 0.2946(8) 0.7357(8)
C10 C 0.7339(12) 0.2342(8) 0.5536(9)
H4 H 0.7386 0.1869 0.5009
O9 O 0.1409(16) 0.4460(11) 0.0916(12)
C12 C 0.033(3) 0.4976(11) 0.0738(19)
Sm5 Sm 0.72706(5) 0.62923(3) 0.06784(3)
Sm6 Sm 0.27294(5) 0.12923(3) 0.43216(3)
Sm1 Sm 0.27294(5) 0.37077(3) 0.93216(3)
O5 O 0.0497(9) 0.2687(5) 0.9047(6)
O6 O 0.0501(12) 0.4622(7) 0.8549(10)
O16 O 0.3940(10) 0.4922(5) 0.8264(6)
O18 O 0.2648(8) 0.3323(4) 0.7308(5)
N8 N 0.4575(9) 0.2401(5) 0.8694(6)
O8 O 0.9499(12) 0.5378(7) 0.1451(10)
O14 O 0.9503(9) 0.7313(5) 0.0953(6)
O17 O 0.7352(8) 0.6677(4) 0.2692(5)
N7 N 0.5425(9) 0.7599(5) 0.1306(6)
H9 H 0.965357 0.766657 0.0238435
H10 H 0.929415 0.773418 0.15967
O7 O 0.8591(16) 0.5540(11) 0.9084(12)
C11 C 0.967(3) 0.5024(11) 0.9262(19)
O10 O 0.5163(10) 0.5872(6) 0.9498(6)
O12 O 0.7197(8) 0.7367(4) 0.9149(5)
C13 C 0.6852(10) 0.7602(5) 0.8150(7)
C14 C 0.4734(12) 0.5619(7) 0.8506(8)
C15 C 0.5769(10) 0.7053(6) 0.7379(7)
C16 C 0.4978(11) 0.6248(6) 0.7513(7)
N4 N 0.4166(10) 0.6096(6) 0.6497(6)
O13 O 0.7352(8) 0.8323(4) 0.7692(5)
N5 N 0.5425(9) 0.7401(5) 0.6306(6)
C17 C 0.3648(14) 0.6230(7) 0.3839(9)
H5 H 0.4256 0.5710 0.3949
C18 C 0.4436(11) 0.6803(6) 0.5798(7)
C19 C 0.2761(15) 0.6359(8) 0.2836(9)
H6 H 0.2832 0.5924 0.2262
C20 C 0.3606(11) 0.6902(6) 0.4686(8)
C21 C 0.1791(14) 0.7687(9) 0.3438(10)
H7 H 0.1139 0.8186 0.3302
N6 N 0.1830(12) 0.7054(8) 0.2643(8)
C22 C 0.2661(12) 0.7658(8) 0.4464(9)
H8 H 0.2614 0.8131 0.4991
Sm4 Sm 0.72706(5) 0.87077(3) 0.56784(3)
H11 H 0.975646 0.276452 0.968706
H12 H 0.993729 0.282741 0.830624
O7_2 O 0.1409(16) 0.0540(11) 0.5916(12)
C11_2 C 0.033(3) 0.0024(11) 0.5738(19)
O8_2 O 0.0501(12) 0.0378(7) 0.3549(10)
O10_2 O 0.4837(10) 0.0872(6) 0.5502(6)
O12_2 O 0.2803(8) 0.2367(4) 0.5851(5)
C13_2 C 0.3148(10) 0.2602(5) 0.6850(7)
C14_2 C 0.5266(12) 0.0619(7) 0.6494(8)
C15_2 C 0.4231(10) 0.2053(6) 0.7621(7)
C16_2 C 0.5022(11) 0.1248(6) 0.7487(7)
N4_2 N 0.5834(10) 0.1096(6) 0.8503(6)
O14_2 O 0.0497(9) 0.2313(5) 0.4047(6)
C18_2 C 0.5564(11) 0.1803(6) 0.9202(7)
O15 O 0.3940(10) 0.0078(5) 0.3264(6)
H9_2 H 0.034643 0.266657 0.476157
H10_2 H 0.0705854 0.273418 0.34033
O11 O 0.6060(10) 0.9922(5) 0.6736(6)
H11_2 H 0.0243537 0.776452 0.531294
H12_2 H 0.00627058 0.782741 0.669376
O1_2 O 0.5163(10) 0.9128(6) 0.4498(6)
O3_2 O 0.7197(8) 0.7633(4) 0.4149(5)
C1_2 C 0.6852(10) 0.7398(5) 0.3150(7)
C2_2 C 0.4734(12) 0.9381(7) 0.3506(8)
C3_2 C 0.5769(10) 0.7947(6) 0.2379(7)
C4_2 C 0.4978(11) 0.8752(6) 0.2513(7)
N1_2 N 0.4166(10) 0.8904(6) 0.1497(6)
O5_2 O 0.9503(9) 0.7687(5) 0.5953(6)
C6_2 C 0.4436(11) 0.8197(6) 0.0798(7)
O6_2 O 0.9499(12) 0.9622(7) 0.6451(10)
O9_2 O 0.8591(16) 0.9460(11) 0.4084(12)
C12_2 C 0.967(3) 0.9976(11) 0.4262(19)
H11_3 H 0.0243537 0.723548 0.0312936
H12_3 H 0.00627058 0.717259 0.169376
H9_3 H 0.034643 0.233343 0.976157
H10_3 H 0.0705854 0.226582 0.84033
H11_4 H 0.975646 0.223548 0.468706
H12_4 H 0.993729 0.217259 0.330624
H9_4 H 0.965357 0.733343 0.523843
H10_4 H 0.929415 0.726582 0.65967
C17_2 C 0.6352(14) 0.1230(7) 0.1161(9)
H5_2 H 0.5744 0.0710 0.1051
C19_2 C 0.7239(15) 0.1359(8) 0.2164(9)
H6_2 H 0.7168 0.0924 0.2738
C20_2 C 0.6394(11) 0.1902(6) 0.0314(8)
C21_2 C 0.8209(14) 0.2687(9) 0.1562(10)
H7_2 H 0.8861 0.3186 0.1698
N6_2 N 0.8170(12) 0.2054(8) 0.2357(8)
C22_2 C 0.7339(12) 0.2658(8) 0.0536(9)
H8_2 H 0.7386 0.3131 0.0009
C5_2 C 0.3648(14) 0.8770(7) 0.8839(9)
H1_2 H 0.4256 0.9290 0.8949
C7_2 C 0.2761(15) 0.8641(8) 0.7836(9)
H2_2 H 0.2832 0.9076 0.7262
C8_2 C 0.3606(11) 0.8098(6) 0.9686(8)
C9_2 C 0.1791(14) 0.7313(9) 0.8438(10)
H3_2 H 0.1139 0.6814 0.8302
N3_2 N 0.1830(12) 0.7946(8) 0.7643(8)
C10_2 C 0.2661(12) 0.7342(8) 0.9464(9)
H4_2 H 0.2614 0.6869 0.9991
loop_
_geom_bond_atom_site_label_1
_geom_bond_atom_site_label_2
_geom_bond_site_symmetry_1
_geom_bond_site_symmetry_2
O1 C2 1_555 1_555
O2 C2 1_555 1_555
C1 O3 1_555 1_555
C2 C4 1_555 1_555
C3 C1 1_555 1_555
C4 C3 1_555 1_555
N1 C4 1_555 1_555
O4 C1 1_555 1_555
N2 C3 1_555 1_555
C5 H1 1_555 1_555
C6 N1 1_555 1_555
C7 C5 1_555 1_555
H2 C7 1_555 1_555
C8 C5 1_555 1_555
C9 H3 1_555 1_555
N3 C7 1_555 1_555
C10 C8 1_555 1_555
H4 C10 1_555 1_555
Sm5 O2 1_555 1_555
Sm6 O4 1_555 1_555
N2 C6 1_555 1_555
N2 Sm6 1_555 1_555
C6 C8 1_555 1_555
C9 N3 1_555 1_555
C9 C10 1_555 1_555
O9 C12 1_555 1_555
O5 Sm1 1_555 1_555
O6 Sm1 1_555 1_555
O16 Sm1 1_555 1_555
O18 Sm1 1_555 1_555
N8 Sm1 1_555 1_555
O14 Sm5 1_555 1_555
O17 Sm5 1_555 1_555
N7 Sm5 1_555 1_555
O8 Sm5 1_555 1_555
O14 H9 1_555 1_555
O14 H10 1_555 1_555
O7 C11 1_555 1_555
O16 C14 1_555 1_555
C13 O12 1_555 1_555
C14 O10 1_555 1_555
C15 C13 1_555 1_555
C16 C14 1_555 1_555
N4 C16 1_555 1_555
O13 C13 1_555 1_555
N5 C15 1_555 1_555
C17 H5 1_555 1_555
C18 N4 1_555 1_555
C19 C17 1_555 1_555
H6 C19 1_555 1_555
C20 C17 1_555 1_555
C21 H7 1_555 1_555
N6 C19 1_555 1_555
C22 C20 1_555 1_555
H8 C22 1_555 1_555
Sm4 O13 1_555 1_555
C15 C16 1_555 1_555
N5 C18 1_555 1_555
N5 Sm4 1_555 1_555
C18 C20 1_555 1_555
C21 N6 1_555 1_555
C21 C22 1_555 1_555
O7_2 C11_2 1_555 1_555
Sm6 O7_2 1_555 1_555
O10_2 Sm6 1_555 1_555
O12_2 Sm6 1_555 1_555
C13_2 O12_2 1_555 1_555
C14_2 O10_2 1_555 1_555
C15_2 C13_2 1_555 1_555
C16_2 C14_2 1_555 1_555
N4_2 C16_2 1_555 1_555
O18 C13_2 1_555 1_555
O14_2 Sm6 1_555 1_555
N8 C15_2 1_555 1_555
C18_2 N4_2 1_555 1_555
O15 Sm6 1_555 1_555
O8_2 Sm6 1_555 1_555
C15_2 C16_2 1_555 1_555
N8 C18_2 1_555 1_555
O14_2 H9_2 1_555 1_555
O14_2 H10_2 1_555 1_555
Sm4 O11 1_555 1_555
Sm4 O1_2 1_555 1_555
O1_2 C2_2 1_555 1_555
O3_2 Sm4 1_555 1_555
C1_2 O3_2 1_555 1_555
C2_2 C4_2 1_555 1_555
C3_2 C1_2 1_555 1_555
C4_2 C3_2 1_555 1_555
N1_2 C4_2 1_555 1_555
O17 C1_2 1_555 1_555
O5_2 Sm4 1_555 1_555
N7 C3_2 1_555 1_555
C6_2 N1_2 1_555 1_555
O6_2 Sm4 1_555 1_555
O9_2 Sm4 1_555 1_555
N7 C6_2 1_555 1_555
O9_2 C12_2 1_555 1_555
O5 H9_3 1_555 1_555
O5 H10_3 1_555 1_555
O5_2 H9_4 1_555 1_555
O5_2 H10_4 1_555 1_555
C17_2 H5_2 1_555 1_555
C19_2 C17_2 1_555 1_555
H6_2 C19_2 1_555 1_555
C20_2 C17_2 1_555 1_555
C21_2 H7_2 1_555 1_555
N6_2 C19_2 1_555 1_555
C22_2 C20_2 1_555 1_555
H8_2 C22_2 1_555 1_555
C21_2 N6_2 1_555 1_555
C21_2 C22_2 1_555 1_555
C5_2 H1_2 1_555 1_555
C7_2 C5_2 1_555 1_555
H2_2 C7_2 1_555 1_555
C8_2 C5_2 1_555 1_555
C9_2 H3_2 1_555 1_555
N3_2 C7_2 1_555 1_555
C10_2 C8_2 1_555 1_555
H4_2 C10_2 1_555 1_555
C9_2 N3_2 1_555 1_555
C9_2 C10_2 1_555 1_555

#END
