
###############################################################################
#
# This file contains modified crystal structure data generated from the
# MOF subset of the Cambridge Structural Database (CSD) v543 
# hosted by the Cambridge Crystallographic Data Centre (CCDC).
#
# This work is licensed under the Creative Commons
# Attribution-NonCommercial-ShareAlike 4.0 International License.
# To view a copy of this license, visit
# http://creativecommons.org/licenses/by-nc-sa/4.0/
# or send a letter to
# Creative Commons, PO Box 1866, Mountain View, CA 94042, USA.
#
# CIF created using the CSD Python API on 29 September 2022
# The structure has been converted into the P1 space group
# The structure has a 3D framework
# The original CSD entry FULBEW is in the monoclinic crystal system
# The framework has been calculated to contain at least 10.0% void space
# The void calculation uses a probe of radius 1.32A, grid spacing 0.4
#
###############################################################################

data_FULBEW
_chemical_formula_moiety         '(C96 H56 N48 O38 Zn8)n'
_symmetry_cell_setting           triclinic
_symmetry_space_group_name_H-M   'P 1'
_symmetry_Int_Tables_number      1
_space_group_name_Hall           'P 1'
loop_
_symmetry_equiv_pos_site_id
_symmetry_equiv_pos_as_xyz
1 x,y,z
_cell_length_a                   13.647(8)
_cell_length_b                   13.186(8)
_cell_length_c                   19.441(11)
_cell_angle_alpha                90
_cell_angle_beta                 101.26(3)
_cell_angle_gamma                90
_cell_volume                     3431.06
loop_
_atom_site_label
_atom_site_type_symbol
_atom_site_fract_x
_atom_site_fract_y
_atom_site_fract_z
H4 H 0.4209 0.1269 0.0165
N7 N 0.0610(3) 0.0707(3) 0.12946(19)
N8 N 0.1132(4) 0.0588(4) 0.0761(2)
N10 N 0.0749(3) 0.0674(3) 0.3809(2)
N11 N 0.1454(4) 0.0815(4) 0.4409(2)
C15 C 0.0942(4) 0.0221(4) 0.1964(2)
C16 C 0.0697(4) 0.0672(4) 0.2555(2)
H9 H 0.0339 0.1276 0.2518
C17 C 0.1000(4) 0.0199(4) 0.3206(2)
C20 C 0.0615(5) 0.1181(5) 0.0269(3)
C22 C 0.0945(5) 0.1284(5) 0.4826(3)
H13 H 0.1231 0.1492 0.5278
Zn5 Zn 0.62110(5) 0.26996(5) 0.01664(3)
N1 N 0.4390(3) 0.0707(3) 0.87054(19)
N2 N 0.3868(4) 0.0588(4) 0.9239(2)
N3 N 0.5189(3) 0.1650(3) 0.9558(2)
N4 N 0.4251(3) 0.0674(3) 0.6191(2)
N5 N 0.3546(4) 0.0815(4) 0.5591(2)
N6 N 0.5031(4) 0.1433(3) 0.5462(2)
C3 C 0.4058(4) 0.0221(4) 0.8036(2)
C4 C 0.4303(4) 0.0672(4) 0.7445(2)
H2 H 0.4661 0.1276 0.7482
C5 C 0.4000(4) 0.0199(4) 0.6794(2)
C8 C 0.4385(5) 0.1181(5) 0.9731(3)
C9 C 0.5172(4) 0.1331(5) 0.8904(3)
H5 H 0.5630 0.1512 0.8629
C10 C 0.4055(5) 0.1284(5) 0.5174(3)
H6 H 0.3769 0.1492 0.4722
C11 C 0.5128(4) 0.1040(5) 0.6099(3)
H7 H 0.5718 0.1021 0.6431
H11 H 0.0791 0.1269 0.9835
Zn4 Zn 0.62110(5) 0.23004(5) 0.51664(3)
O2 O 0.2500 0.8189(4) -0.0000
H8 H 0.2685 0.8569 0.0355
Zn2 Zn 0.12110(5) 0.73004(5) 0.01664(3)
O6 O 0.1115(3) 0.8275(3) 0.10360(17)
O7 O 0.2687(3) 0.8860(4) 0.1309(2)
O8 O 0.2822(3) 0.8608(3) 0.41456(17)
O9 O 0.1215(3) 0.8497(3) 0.42555(17)
C13 C 0.1804(4) 0.8791(4) 0.1393(2)
C14 C 0.1537(4) 0.9368(4) 0.2016(2)
C18 C 0.1598(4) 0.9343(4) 0.3279(2)
C19 C 0.1870(4) 0.8944(4) 0.2687(2)
H10 H 0.2285 0.8378 0.2732
C24 C 0.1908(4) 0.8771(4) 0.3968(2)
Zn8 Zn 0.12110(5) 0.76996(5) 0.51664(3)
Zn10 Zn 0.37890(5) 0.76996(5) 0.48336(3)
O11 O 0.2178(3) 0.6392(3) 0.08544(17)
O13 O 0.3785(3) 0.6503(3) 0.07445(17)
N13 N 0.4811(3) 0.8350(3) 0.0442(2)
N15 N 0.0031(4) 0.6433(3) 0.0462(2)
Zn1 Zn 0.37890(5) 0.73004(5) 0.98336(3)
O1 O 0.3885(3) 0.8275(3) 0.89640(17)
O2_2 O 0.2500 0.8189(4) 1.0000
H1 H 0.2315 0.8569 0.9645
O3 O 0.2313(3) 0.8860(4) 0.8691(2)
O4 O 0.2178(3) 0.8608(3) 0.58544(17)
O5 O 0.3785(3) 0.8497(3) 0.57445(17)
C1 C 0.3196(4) 0.8791(4) 0.8607(2)
C2 C 0.3463(4) 0.9368(4) 0.7984(2)
C6 C 0.3402(4) 0.9343(4) 0.6721(2)
C7 C 0.3130(4) 0.8944(4) 0.7313(2)
H3 H 0.2715 0.8378 0.7268
C12 C 0.3092(4) 0.8771(4) 0.6032(2)
O10 O 0.2822(3) 0.6392(3) 0.91456(17)
O12 O 0.1215(3) 0.6503(3) 0.92555(17)
N14 N 0.0189(3) 0.8350(3) 0.9558(2)
N16 N 0.4969(4) 0.6433(3) 0.9538(2)
N9 N 0.9811(3) 0.1650(3) 0.0442(2)
N12 N 0.9969(4) 0.1433(3) 0.4538(2)
C21 C 0.9828(4) 0.1331(5) 0.1096(3)
H12 H 0.9370 0.1512 0.1371
C23 C 0.9872(4) 0.1040(5) 0.3901(3)
H14 H 0.9282 0.1021 0.3569
Zn3 Zn 0.87890(5) 0.23004(5) 0.48336(3)
Zn6 Zn 0.87890(5) 0.26996(5) 0.98336(3)
N3_2 N 0.0189(3) 0.6650(3) 0.4558(2)
C9_2 C 0.0172(4) 0.6331(5) 0.3904(3)
H5_2 H 0.0630 0.6512 0.3629
C11_2 C 0.0128(4) 0.6040(5) 0.1099(3)
H7_2 H 0.0718 0.6021 0.1431
H13_2 H 0.6231 0.6492 0.0278
O1_2 O 0.8885(3) 0.3275(3) 0.39640(17)
O2_3 O 0.7500 0.3189(4) 0.5000
H1_2 H 0.7315 0.3569 0.4645
O3_2 O 0.7313(3) 0.3860(4) 0.3691(2)
O4_2 O 0.7178(3) 0.3608(3) 0.08544(17)
O5_2 O 0.8785(3) 0.3497(3) 0.07445(17)
N1_2 N 0.9390(3) 0.5707(3) 0.37054(19)
N2_2 N 0.8868(4) 0.5588(4) 0.4239(2)
N4_2 N 0.9251(3) 0.5674(3) 0.1191(2)
N5_2 N 0.8546(4) 0.5815(4) 0.0591(2)
C1_2 C 0.8196(4) 0.3791(4) 0.3607(2)
C2_2 C 0.8463(4) 0.4368(4) 0.2984(2)
C3_2 C 0.9058(4) 0.5221(4) 0.3036(2)
C4_2 C 0.9303(4) 0.5672(4) 0.2445(2)
H2_2 H 0.9661 0.6276 0.2482
C5_2 C 0.9000(4) 0.5199(4) 0.1794(2)
C6_2 C 0.8402(4) 0.4343(4) 0.1721(2)
C7_2 C 0.8130(4) 0.3944(4) 0.2313(2)
H3_2 H 0.7715 0.3378 0.2268
C8_2 C 0.9385(5) 0.6181(5) 0.4731(3)
H4_2 H 0.9209 0.6269 0.5165
C10_2 C 0.9055(5) 0.6284(5) 0.0174(3)
C12_2 C 0.8092(4) 0.3771(4) 0.1032(2)
H8_2 H 0.7685 0.3569 0.5355
O6_2 O 0.6115(3) 0.3275(3) 0.60360(17)
O7_2 O 0.7687(3) 0.3860(4) 0.6309(2)
O8_2 O 0.7822(3) 0.3608(3) 0.91456(17)
O9_2 O 0.6215(3) 0.3497(3) 0.92555(17)
N7_2 N 0.5610(3) 0.5707(3) 0.62946(19)
N8_2 N 0.6132(4) 0.5588(4) 0.5761(2)
N9_2 N 0.4811(3) 0.6650(3) 0.5442(2)
N10_2 N 0.5749(3) 0.5674(3) 0.8809(2)
N11_2 N 0.6454(4) 0.5815(4) 0.9409(2)
C13_2 C 0.6804(4) 0.3791(4) 0.6393(2)
C14_2 C 0.6537(4) 0.4368(4) 0.7016(2)
C15_2 C 0.5942(4) 0.5221(4) 0.6964(2)
C16_2 C 0.5697(4) 0.5672(4) 0.7555(2)
H9_2 H 0.5339 0.6276 0.7518
C17_2 C 0.6000(4) 0.5199(4) 0.8206(2)
C18_2 C 0.6598(4) 0.4343(4) 0.8279(2)
C19_2 C 0.6870(4) 0.3944(4) 0.7687(2)
H10_2 H 0.7285 0.3378 0.7732
C20_2 C 0.5615(5) 0.6181(5) 0.5269(3)
H11_2 H 0.5791 0.6269 0.4835
C21_2 C 0.4828(4) 0.6331(5) 0.6096(3)
H12_2 H 0.4370 0.6512 0.6371
C22_2 C 0.5945(5) 0.6284(5) 0.9826(3)
C23_2 C 0.4872(4) 0.6040(5) 0.8901(3)
H14_2 H 0.4282 0.6021 0.8569
C24_2 C 0.6908(4) 0.3771(4) 0.8968(2)
O10_2 O 0.7822(3) 0.1392(3) 0.41456(17)
O11_2 O 0.7178(3) 0.1392(3) 0.58544(17)
O12_2 O 0.6215(3) 0.1503(3) 0.42555(17)
O13_2 O 0.8785(3) 0.1503(3) 0.57445(17)
N13_2 N 0.9811(3) 0.3350(3) 0.5442(2)
N14_2 N 0.5189(3) 0.3350(3) 0.4558(2)
H6_2 H 0.8769 0.6492 0.9722
N12_2 N 0.0031(4) 0.8567(3) 0.5462(2)
C21_3 C 0.0172(4) 0.8669(5) 0.8904(3)
H12_3 H 0.0630 0.8488 0.8629
C23_3 C 0.0128(4) 0.8960(5) 0.6099(3)
H14_3 H 0.0718 0.8979 0.6431
O1_3 O 0.6115(3) 0.1725(3) 0.10360(17)
O2_4 O 0.7500 0.1811(4) 0.0000
H1_3 H 0.7685 0.1431 0.0355
O3_3 O 0.7687(3) 0.1140(4) 0.1309(2)
C1_3 C 0.6804(4) 0.1209(4) 0.1393(2)
C2_3 C 0.6537(4) 0.0632(4) 0.2016(2)
C6_3 C 0.6598(4) 0.0657(4) 0.3279(2)
C7_3 C 0.6870(4) 0.1056(4) 0.2687(2)
H3_3 H 0.7285 0.1622 0.2732
C12_3 C 0.6908(4) 0.1229(4) 0.3968(2)
N16_2 N 0.5031(4) 0.3567(3) 0.0462(2)
O2_5 O 0.7500 0.1811(4) 1.0000
H8_3 H 0.7315 0.1431 0.9645
O6_3 O 0.8885(3) 0.1725(3) 0.89640(17)
O7_3 O 0.7313(3) 0.1140(4) 0.8691(2)
C13_3 C 0.8196(4) 0.1209(4) 0.8607(2)
C14_3 C 0.8463(4) 0.0632(4) 0.7984(2)
C18_3 C 0.8402(4) 0.0657(4) 0.6721(2)
C19_3 C 0.8130(4) 0.1056(4) 0.7313(2)
H10_3 H 0.7715 0.1622 0.7268
C24_3 C 0.8092(4) 0.1229(4) 0.6032(2)
N15_2 N 0.9969(4) 0.3567(3) 0.9538(2)
N1_3 N 0.5610(3) 0.9293(3) 0.12946(19)
N2_3 N 0.6132(4) 0.9412(4) 0.0761(2)
N4_3 N 0.5749(3) 0.9326(3) 0.3809(2)
N5_3 N 0.6454(4) 0.9185(4) 0.4409(2)
N6_2 N 0.4969(4) 0.8567(3) 0.4538(2)
C3_3 C 0.5942(4) 0.9779(4) 0.1964(2)
C4_3 C 0.5697(4) 0.9328(4) 0.2555(2)
H2_3 H 0.5339 0.8724 0.2518
C5_3 C 0.6000(4) 0.9801(4) 0.3206(2)
C8_3 C 0.5615(5) 0.8819(5) 0.0269(3)
C9_3 C 0.4828(4) 0.8669(5) 0.1096(3)
H5_3 H 0.4370 0.8488 0.1371
C10_3 C 0.5945(5) 0.8716(5) 0.4826(3)
H6_3 H 0.6231 0.8508 0.5278
C11_3 C 0.4872(4) 0.8960(5) 0.3901(3)
H7_3 H 0.4282 0.8979 0.3569
H11_3 H 0.9209 0.8731 0.0165
H4_3 H 0.5791 0.8731 0.9835
N7_3 N 0.9390(3) 0.9293(3) 0.87054(19)
N8_3 N 0.8868(4) 0.9412(4) 0.9239(2)
N10_3 N 0.9251(3) 0.9326(3) 0.6191(2)
N11_3 N 0.8546(4) 0.9185(4) 0.5591(2)
C15_3 C 0.9058(4) 0.9779(4) 0.8036(2)
C16_3 C 0.9303(4) 0.9328(4) 0.7445(2)
H9_3 H 0.9661 0.8724 0.7482
C17_3 C 0.9000(4) 0.9801(4) 0.6794(2)
C20_3 C 0.9385(5) 0.8819(5) 0.9731(3)
C22_3 C 0.9055(5) 0.8716(5) 0.5174(3)
H13_3 H 0.8769 0.8508 0.4722
H6_4 H 0.1231 0.3508 0.0278
O1_4 O 0.1115(3) 0.6725(3) 0.60360(17)
O2_6 O 0.2500 0.6811(4) 0.5000
H1_4 H 0.2685 0.6431 0.5355
O3_4 O 0.2687(3) 0.6140(4) 0.6309(2)
N1_4 N 0.0610(3) 0.4293(3) 0.62946(19)
N2_4 N 0.1132(4) 0.4412(4) 0.5761(2)
N4_4 N 0.0749(3) 0.4326(3) 0.8809(2)
N5_4 N 0.1454(4) 0.4185(4) 0.9409(2)
C1_4 C 0.1804(4) 0.6209(4) 0.6393(2)
C2_4 C 0.1537(4) 0.5632(4) 0.7016(2)
C3_4 C 0.0942(4) 0.4779(4) 0.6964(2)
C4_4 C 0.0697(4) 0.4328(4) 0.7555(2)
H2_4 H 0.0339 0.3724 0.7518
C5_4 C 0.1000(4) 0.4801(4) 0.8206(2)
C6_4 C 0.1598(4) 0.5657(4) 0.8279(2)
C7_4 C 0.1870(4) 0.6056(4) 0.7687(2)
H3_4 H 0.2285 0.6622 0.7732
C8_4 C 0.0615(5) 0.3819(5) 0.5269(3)
H4_4 H 0.0791 0.3731 0.4835
C10_4 C 0.0945(5) 0.3716(5) 0.9826(3)
C12_4 C 0.1908(4) 0.6229(4) 0.8968(2)
H8_4 H 0.2315 0.6431 0.4645
O6_4 O 0.3885(3) 0.6725(3) 0.39640(17)
O7_4 O 0.2313(3) 0.6140(4) 0.3691(2)
N7_4 N 0.4390(3) 0.4293(3) 0.37054(19)
N8_4 N 0.3868(4) 0.4412(4) 0.4239(2)
N10_4 N 0.4251(3) 0.4326(3) 0.1191(2)
N11_4 N 0.3546(4) 0.4185(4) 0.0591(2)
C13_4 C 0.3196(4) 0.6209(4) 0.3607(2)
C14_4 C 0.3463(4) 0.5632(4) 0.2984(2)
C15_4 C 0.4058(4) 0.4779(4) 0.3036(2)
C16_4 C 0.4303(4) 0.4328(4) 0.2445(2)
H9_4 H 0.4661 0.3724 0.2482
C17_4 C 0.4000(4) 0.4801(4) 0.1794(2)
C18_4 C 0.3402(4) 0.5657(4) 0.1721(2)
C19_4 C 0.3130(4) 0.6056(4) 0.2313(2)
H10_4 H 0.2715 0.6622 0.2268
C20_4 C 0.4385(5) 0.3819(5) 0.4731(3)
H11_4 H 0.4209 0.3731 0.5165
C21_4 C 0.5172(4) 0.3669(5) 0.3904(3)
H12_4 H 0.5630 0.3488 0.3629
C22_4 C 0.4055(5) 0.3716(5) 0.0174(3)
C23_4 C 0.5128(4) 0.3960(5) 0.1099(3)
H14_4 H 0.5718 0.3979 0.1431
C24_4 C 0.3092(4) 0.6229(4) 0.1032(2)
H13_4 H 0.3769 0.3508 0.9722
C9_4 C 0.9828(4) 0.3669(5) 0.6096(3)
H5_4 H 0.9370 0.3488 0.6371
C11_4 C 0.9872(4) 0.3960(5) 0.8901(3)
H7_4 H 0.9282 0.3979 0.8569
loop_
_geom_bond_atom_site_label_1
_geom_bond_atom_site_label_2
_geom_bond_site_symmetry_1
_geom_bond_site_symmetry_2
N7 N8 1_555 1_555
N8 C20 1_555 1_555
N10 N11 1_555 1_555
N11 C22 1_555 1_555
C15 N7 1_555 1_555
C16 C15 1_555 1_555
H9 C16 1_555 1_555
C17 N10 1_555 1_555
C22 H13 1_555 1_555
C16 C17 1_555 1_555
N1 N2 1_555 1_555
N2 C8 1_555 1_555
N3 C8 1_555 1_555
N4 N5 1_555 1_555
N5 C10 1_555 1_555
N6 C10 1_555 1_555
C3 N1 1_555 1_555
C4 C3 1_555 1_555
H2 C4 1_555 1_555
C5 N4 1_555 1_555
C9 N1 1_555 1_555
H5 C9 1_555 1_555
C10 H6 1_555 1_555
C11 N4 1_555 1_555
H7 C11 1_555 1_555
Zn4 N6 1_555 1_555
N3 C9 1_555 1_555
N6 C11 1_555 1_555
C4 C5 1_555 1_555
H8 O2 1_555 1_555
Zn2 O2 1_555 1_555
O6 Zn2 1_555 1_555
O7 C13 1_555 1_555
O8 C24 1_555 1_555
O9 C24 1_555 1_555
C13 O6 1_555 1_555
C14 C13 1_555 1_555
C19 C14 1_555 1_555
H10 C19 1_555 1_555
C24 C18 1_555 1_555
Zn8 O9 1_555 1_555
Zn10 O8 1_555 1_555
O11 Zn2 1_555 1_555
N15 Zn2 1_555 1_555
C18 C19 1_555 1_555
Zn1 O1 1_555 1_555
O1 C1 1_555 1_555
O2_2 Zn1 1_555 1_555
H1 O2_2 1_555 1_555
O3 C1 1_555 1_555
O4 C12 1_555 1_555
O5 C12 1_555 1_555
C1 C2 1_555 1_555
C7 C2 1_555 1_555
H3 C7 1_555 1_555
C12 C6 1_555 1_555
Zn8 O4 1_555 1_555
Zn10 O5 1_555 1_555
O10 Zn1 1_555 1_555
N16 Zn1 1_555 1_555
C6 C7 1_555 1_555
H12 C21 1_555 1_555
H14 C23 1_555 1_555
Zn3 N12 1_555 1_555
N9 C21 1_555 1_555
N12 C23 1_555 1_555
H5_2 C9_2 1_555 1_555
H7_2 C11_2 1_555 1_555
Zn8 N3_2 1_555 1_555
N3_2 C9_2 1_555 1_555
N15 C11_2 1_555 1_555
Zn3 O1_2 1_555 1_555
O1_2 C1_2 1_555 1_555
O2_3 Zn3 1_555 1_555
H1_2 O2_3 1_555 1_555
O3_2 C1_2 1_555 1_555
O4_2 C12_2 1_555 1_555
O5_2 C12_2 1_555 1_555
N1_2 N2_2 1_555 1_555
N2_2 C8_2 1_555 1_555
N4_2 N5_2 1_555 1_555
N5_2 C10_2 1_555 1_555
C1_2 C2_2 1_555 1_555
C2_2 C3_2 1_555 1_555
C3_2 N1_2 1_555 1_555
C4_2 C3_2 1_555 1_555
H2_2 C4_2 1_555 1_555
C5_2 N4_2 1_555 1_555
C6_2 C5_2 1_555 1_555
C7_2 C2_2 1_555 1_555
H3_2 C7_2 1_555 1_555
C8_2 H4_2 1_555 1_555
C12_2 C6_2 1_555 1_555
H8_2 O2_3 1_555 1_555
Zn4 O2_3 1_555 1_555
O6_2 Zn4 1_555 1_555
O7_2 C13_2 1_555 1_555
O8_2 C24_2 1_555 1_555
O9_2 C24_2 1_555 1_555
N7_2 N8_2 1_555 1_555
N8_2 C20_2 1_555 1_555
N9_2 C20_2 1_555 1_555
N10_2 N11_2 1_555 1_555
N11_2 C22_2 1_555 1_555
N16 C22_2 1_555 1_555
C13_2 O6_2 1_555 1_555
C14_2 C13_2 1_555 1_555
C15_2 N7_2 1_555 1_555
C16_2 C15_2 1_555 1_555
H9_2 C16_2 1_555 1_555
C17_2 N10_2 1_555 1_555
C18_2 C17_2 1_555 1_555
C19_2 C14_2 1_555 1_555
H10_2 C19_2 1_555 1_555
C20_2 H11_2 1_555 1_555
C21_2 N7_2 1_555 1_555
H12_2 C21_2 1_555 1_555
C23_2 N10_2 1_555 1_555
H14_2 C23_2 1_555 1_555
C24_2 C18_2 1_555 1_555
Zn10 N9_2 1_555 1_555
Zn5 O4_2 1_555 1_555
Zn6 O8_2 1_555 1_555
O10_2 Zn3 1_555 1_555
O11_2 Zn4 1_555 1_555
O12_2 Zn4 1_555 1_555
O13_2 Zn3 1_555 1_555
N13_2 Zn3 1_555 1_555
N14_2 Zn4 1_555 1_555
C4_2 C5_2 1_555 1_555
C6_2 C7_2 1_555 1_555
N9_2 C21_2 1_555 1_555
N16 C23_2 1_555 1_555
C14_2 C15_2 1_555 1_555
C16_2 C17_2 1_555 1_555
C18_2 C19_2 1_555 1_555
H12_3 C21_3 1_555 1_555
H14_3 C23_3 1_555 1_555
Zn8 N12_2 1_555 1_555
N14 C21_3 1_555 1_555
N12_2 C23_3 1_555 1_555
Zn5 O1_3 1_555 1_555
O1_3 C1_3 1_555 1_555
O2_4 Zn5 1_555 1_555
H1_3 O2_4 1_555 1_555
O3_3 C1_3 1_555 1_555
O10_2 C12_3 1_555 1_555
O12_2 C12_3 1_555 1_555
C1_3 C2_3 1_555 1_555
C7_3 C2_3 1_555 1_555
H3_3 C7_3 1_555 1_555
C12_3 C6_3 1_555 1_555
N16_2 Zn5 1_555 1_555
C6_3 C7_3 1_555 1_555
H8_3 O2_5 1_555 1_555
Zn6 O2_5 1_555 1_555
O6_3 Zn6 1_555 1_555
O7_3 C13_3 1_555 1_555
O11_2 C24_3 1_555 1_555
O13_2 C24_3 1_555 1_555
C13_3 O6_3 1_555 1_555
C14_3 C13_3 1_555 1_555
C19_3 C14_3 1_555 1_555
H10_3 C19_3 1_555 1_555
C24_3 C18_3 1_555 1_555
N15_2 Zn6 1_555 1_555
C18_3 C19_3 1_555 1_555
N1_3 N2_3 1_555 1_555
N2_3 C8_3 1_555 1_555
N13 C8_3 1_555 1_555
N4_3 N5_3 1_555 1_555
N5_3 C10_3 1_555 1_555
N6_2 C10_3 1_555 1_555
C3_3 N1_3 1_555 1_555
C4_3 C3_3 1_555 1_555
H2_3 C4_3 1_555 1_555
C5_3 N4_3 1_555 1_555
C9_3 N1_3 1_555 1_555
H5_3 C9_3 1_555 1_555
C10_3 H6_3 1_555 1_555
C11_3 N4_3 1_555 1_555
H7_3 C11_3 1_555 1_555
Zn10 N6_2 1_555 1_555
N13 C9_3 1_555 1_555
N6_2 C11_3 1_555 1_555
C4_3 C5_3 1_555 1_555
N7_3 N8_3 1_555 1_555
N8_3 C20_3 1_555 1_555
N10_3 N11_3 1_555 1_555
N11_3 C22_3 1_555 1_555
C15_3 N7_3 1_555 1_555
C16_3 C15_3 1_555 1_555
H9_3 C16_3 1_555 1_555
C17_3 N10_3 1_555 1_555
C22_3 H13_3 1_555 1_555
C16_3 C17_3 1_555 1_555
Zn8 O1_4 1_555 1_555
O1_4 C1_4 1_555 1_555
O2_6 Zn8 1_555 1_555
H1_4 O2_6 1_555 1_555
O3_4 C1_4 1_555 1_555
O10 C12_4 1_555 1_555
O12 C12_4 1_555 1_555
N1_4 N2_4 1_555 1_555
N2_4 C8_4 1_555 1_555
N4_4 N5_4 1_555 1_555
N5_4 C10_4 1_555 1_555
C1_4 C2_4 1_555 1_555
C2_4 C3_4 1_555 1_555
C3_4 N1_4 1_555 1_555
C4_4 C3_4 1_555 1_555
H2_4 C4_4 1_555 1_555
C5_4 N4_4 1_555 1_555
C6_4 C5_4 1_555 1_555
C7_4 C2_4 1_555 1_555
H3_4 C7_4 1_555 1_555
C8_4 H4_4 1_555 1_555
C12_4 C6_4 1_555 1_555
H8_4 O2_6 1_555 1_555
Zn10 O2_6 1_555 1_555
O6_4 Zn10 1_555 1_555
O7_4 C13_4 1_555 1_555
O11 C24_4 1_555 1_555
O13 C24_4 1_555 1_555
N7_4 N8_4 1_555 1_555
N8_4 C20_4 1_555 1_555
N14_2 C20_4 1_555 1_555
N10_4 N11_4 1_555 1_555
N11_4 C22_4 1_555 1_555
N16_2 C22_4 1_555 1_555
C13_4 O6_4 1_555 1_555
C14_4 C13_4 1_555 1_555
C15_4 N7_4 1_555 1_555
C16_4 C15_4 1_555 1_555
H9_4 C16_4 1_555 1_555
C17_4 N10_4 1_555 1_555
C18_4 C17_4 1_555 1_555
C19_4 C14_4 1_555 1_555
H10_4 C19_4 1_555 1_555
C20_4 H11_4 1_555 1_555
C21_4 N7_4 1_555 1_555
H12_4 C21_4 1_555 1_555
C23_4 N10_4 1_555 1_555
H14_4 C23_4 1_555 1_555
C24_4 C18_4 1_555 1_555
C4_4 C5_4 1_555 1_555
C6_4 C7_4 1_555 1_555
N14_2 C21_4 1_555 1_555
N16_2 C23_4 1_555 1_555
C14_4 C15_4 1_555 1_555
C16_4 C17_4 1_555 1_555
C18_4 C19_4 1_555 1_555
H5_4 C9_4 1_555 1_555
H7_4 C11_4 1_555 1_555
N13_2 C9_4 1_555 1_555
N15_2 C11_4 1_555 1_555

#END
