
###############################################################################
#
# This file contains modified crystal structure data generated from the
# MOF subset of the Cambridge Structural Database (CSD) v543 
# hosted by the Cambridge Crystallographic Data Centre (CCDC).
#
# This work is licensed under the Creative Commons
# Attribution-NonCommercial-ShareAlike 4.0 International License.
# To view a copy of this license, visit
# http://creativecommons.org/licenses/by-nc-sa/4.0/
# or send a letter to
# Creative Commons, PO Box 1866, Mountain View, CA 94042, USA.
#
# CIF created using the CSD Python API on 29 September 2022
# The structure has been converted into the P1 space group
# The structure has a 3D framework
# The original CSD entry FUMYAQ is in the orthorhombic crystal system
# The framework has been calculated to contain at least 10.0% void space
# The void calculation uses a probe of radius 1.32A, grid spacing 0.4
#
###############################################################################

data_FUMYAQ
_chemical_formula_moiety         '(C64 H32 O34 Tb6)n'
_symmetry_cell_setting           triclinic
_symmetry_space_group_name_H-M   'P 1'
_symmetry_Int_Tables_number      1
_space_group_name_Hall           'P 1'
loop_
_symmetry_equiv_pos_site_id
_symmetry_equiv_pos_as_xyz
1 x,y,z
_cell_length_a                   9.1674(9)
_cell_length_b                   13.1662(14)
_cell_length_c                   14.3886(14)
_cell_angle_alpha                90
_cell_angle_beta                 90
_cell_angle_gamma                90
_cell_volume                     1736.7
loop_
_atom_site_label
_atom_site_type_symbol
_atom_site_fract_x
_atom_site_fract_y
_atom_site_fract_z
Tb4 Tb 0.2500 0.0000 0.09621(2)
C10 C 0.0055(3) 0.6003(2) 0.15927(19)
C13 C 0.0831(3) 0.5661(2) 0.2452(2)
C15 C 0.0298(3) 0.6964(2) 0.12288(19)
H7 H 0.0948 0.7403 0.1520
O7 O 0.0314(3) 0.49321(17) 0.29194(15)
O8 O 0.1988(2) 0.60997(16) 0.26897(13)
O9 O 0.0690(3) 0.88965(16) 0.04233(16)
Tb2 Tb 0.2500 0.5000 0.40379(2)
Tb4_2 Tb 0.2500 1.0000 0.09621(2)
Tb6 Tb 0.7500 0.0000 0.90379(2)
C2 C 0.4945(3) 0.3997(2) 0.15927(19)
C3 C 0.5429(3) 0.2728(2) 0.04274(19)
C4 C 0.5902(3) 0.4660(2) 0.1156(2)
H2 H 0.6068 0.5303 0.1401
C5 C 0.4169(3) 0.4339(2) 0.2452(2)
C6 C 0.6607(3) 0.4353(2) 0.03509(19)
C7 C 0.4702(3) 0.3036(2) 0.12288(19)
H3 H 0.4052 0.2597 0.1520
O2 O 0.4686(3) 0.50679(17) 0.29194(15)
O3 O 0.3012(2) 0.39003(16) 0.26897(13)
O4 O 0.4310(3) 0.11035(16) 0.04233(16)
C8 C 0.5237(3) 0.1666(2) 0.00577(19)
O6 O 0.2500 0.5000 0.5826(2)
H4 H 0.3370 0.4941 0.6023
C11 C 0.9571(3) 0.7272(2) 0.04274(19)
C12 C 0.9098(3) 0.5340(2) 0.1156(2)
H6 H 0.8932 0.4697 0.1401
C14 C 0.8393(3) 0.5647(2) 0.03509(19)
C16 C 0.9763(3) 0.8334(2) 0.00577(19)
H8 H 0.1630 0.5059 0.6023
O13 O 0.0690(3) 0.61035(16) 0.45767(16)
O14 O 0.4310(3) 0.38965(16) 0.45767(16)
O15 O 0.1059(2) 0.35934(15) 0.43972(14)
O16 O 0.3941(2) 0.64066(15) 0.43972(14)
C1 C 0.6393(3) 0.3390(2) 0.99899(19)
H1 H 0.6890 0.3186 0.9458
O1 O 0.7500 0.5000 0.98529(19)
O5 O 0.6059(2) 0.14066(15) 0.93972(14)
C9 C 0.8607(3) 0.6610(2) 0.99899(19)
H5 H 0.8110 0.6814 0.9458
O10 O 0.8941(2) 0.85934(15) 0.93972(14)
Tb6_2 Tb 0.7500 1.0000 0.90379(2)
O2_2 O 0.0314(3) 0.00679(17) 0.20806(15)
O12 O 0.3012(2) 0.10997(16) 0.23103(13)
O16_2 O 0.1059(2) 0.14066(15) 0.06028(14)
C2_2 C 0.0055(3) 0.8997(2) 0.34073(19)
C5_2 C 0.0831(3) 0.9339(2) 0.2548(2)
C7_2 C 0.0298(3) 0.8036(2) 0.37712(19)
H3_2 H 0.0948 0.7597 0.3480
O3_2 O 0.1988(2) 0.89003(16) 0.23103(13)
O11 O 0.4686(3) 0.99321(17) 0.20806(15)
O15_2 O 0.3941(2) 0.85934(15) 0.06028(14)
H2_2 H 0.8932 0.0303 0.3599
O1_2 O 0.7500 0.0000 0.51471(19)
C9_2 C 0.6393(3) 0.1610(2) 0.50101(19)
H5_2 H 0.6890 0.1814 0.5542
C10_2 C 0.4945(3) 0.1003(2) 0.34073(19)
C11_2 C 0.5429(3) 0.2272(2) 0.45726(19)
C12_2 C 0.5902(3) 0.0340(2) 0.3844(2)
C13_2 C 0.4169(3) 0.0661(2) 0.2548(2)
C14_2 C 0.6607(3) 0.0647(2) 0.46491(19)
C15_2 C 0.4702(3) 0.1964(2) 0.37712(19)
H7_2 H 0.4052 0.2403 0.3480
C16_2 C 0.5237(3) 0.3334(2) 0.49423(19)
O10_2 O 0.6059(2) 0.35934(15) 0.56028(14)
Tb6_3 Tb 0.7500 0.5000 0.59621(2)
C1_2 C 0.8607(3) 0.8390(2) 0.50101(19)
H1_2 H 0.8110 0.8186 0.5542
C3_2 C 0.9571(3) 0.7728(2) 0.45726(19)
C4_2 C 0.9098(3) 0.9660(2) 0.3844(2)
C6_2 C 0.8393(3) 0.9353(2) 0.46491(19)
O1_3 O 0.7500 1.0000 0.51471(19)
C8_2 C 0.9763(3) 0.6666(2) 0.49423(19)
O5_2 O 0.8941(2) 0.64066(15) 0.56028(14)
H6_2 H 0.6068 0.9697 0.3599
C1_3 C 0.3607(3) 0.6610(2) 0.00101(19)
H1_3 H 0.3110 0.6814 0.0542
O1_4 O 0.2500 0.5000 0.01471(19)
C9_3 C 0.1393(3) 0.3390(2) 0.00101(19)
H5_3 H 0.1890 0.3186 0.0542
C2_3 C 0.5055(3) 0.6003(2) 0.84073(19)
C3_3 C 0.4571(3) 0.7272(2) 0.95726(19)
C4_3 C 0.4098(3) 0.5340(2) 0.8844(2)
H2_3 H 0.3932 0.4697 0.8599
C5_3 C 0.5831(3) 0.5661(2) 0.7548(2)
C6_3 C 0.3393(3) 0.5647(2) 0.96491(19)
C7_3 C 0.5298(3) 0.6964(2) 0.87712(19)
H3_3 H 0.5948 0.7403 0.8480
O2_3 O 0.5314(3) 0.49321(17) 0.70806(15)
O3_3 O 0.6988(2) 0.60997(16) 0.73103(13)
O4_2 O 0.5690(3) 0.88965(16) 0.95767(16)
C8_3 C 0.4763(3) 0.8334(2) 0.99423(19)
O6_2 O 0.7500 0.5000 0.4174(2)
H4_2 H 0.6630 0.5059 0.3977
C11_3 C 0.0429(3) 0.2728(2) 0.95726(19)
C12_3 C 0.0902(3) 0.4660(2) 0.8844(2)
H6_3 H 0.1068 0.5303 0.8599
C14_3 C 0.1607(3) 0.4353(2) 0.96491(19)
C16_3 C 0.0237(3) 0.1666(2) 0.99423(19)
H8_2 H 0.8370 0.4941 0.3977
O11_2 O 0.9686(3) 0.50679(17) 0.70806(15)
O12_2 O 0.8012(2) 0.39003(16) 0.73103(13)
O13_2 O 0.9310(3) 0.38965(16) 0.54233(16)
O14_2 O 0.5690(3) 0.61035(16) 0.54233(16)
C10_3 C 0.9945(3) 0.3997(2) 0.84073(19)
C13_3 C 0.9169(3) 0.4339(2) 0.7548(2)
C15_3 C 0.9702(3) 0.3036(2) 0.87712(19)
H7_3 H 0.9052 0.2597 0.8480
O9_2 O 0.9310(3) 0.11035(16) 0.95767(16)
C1_4 C 0.1393(3) 0.1610(2) 0.49899(19)
H1_4 H 0.1890 0.1814 0.4458
C3_4 C 0.0429(3) 0.2272(2) 0.54274(19)
C4_4 C 0.0902(3) 0.0340(2) 0.6156(2)
C6_4 C 0.1607(3) 0.0647(2) 0.53509(19)
O1_5 O 0.2500 0.0000 0.48529(19)
C8_4 C 0.0237(3) 0.3334(2) 0.50577(19)
H6_4 H 0.3932 0.0303 0.6401
O7_2 O 0.5314(3) 0.00679(17) 0.79194(15)
H2_4 H 0.1068 0.9697 0.6401
O1_6 O 0.2500 1.0000 0.48529(19)
C9_4 C 0.3607(3) 0.8390(2) 0.49899(19)
H5_4 H 0.3110 0.8186 0.4458
C10_4 C 0.5055(3) 0.8997(2) 0.65927(19)
C11_4 C 0.4571(3) 0.7728(2) 0.54274(19)
C12_4 C 0.4098(3) 0.9660(2) 0.6156(2)
C13_4 C 0.5831(3) 0.9339(2) 0.7452(2)
C14_4 C 0.3393(3) 0.9353(2) 0.53509(19)
C15_4 C 0.5298(3) 0.8036(2) 0.62288(19)
H7_4 H 0.5948 0.7597 0.6520
O8_2 O 0.6988(2) 0.89003(16) 0.76897(13)
C16_4 C 0.4763(3) 0.6666(2) 0.50577(19)
C2_4 C 0.9945(3) 0.1003(2) 0.65927(19)
C5_4 C 0.9169(3) 0.0661(2) 0.7452(2)
C7_4 C 0.9702(3) 0.1964(2) 0.62288(19)
H3_4 H 0.9052 0.2403 0.6520
O3_4 O 0.8012(2) 0.10997(16) 0.76897(13)
O2_4 O 0.9686(3) 0.99321(17) 0.79194(15)
O6_3 O 0.2500 0.0000 0.9174(2)
H8_3 H 0.3370 0.0059 0.8977
O6_4 O 0.2500 1.0000 0.9174(2)
H4_3 H 0.1630 0.9941 0.8977
O6_5 O 0.7500 -0.0000 0.0826(2)
H4_4 H 0.8370 0.0059 0.1023
O6_6 O 0.7500 1.0000 0.0826(2)
H8_4 H 0.6630 0.9941 0.1023
loop_
_geom_bond_atom_site_label_1
_geom_bond_atom_site_label_2
_geom_bond_site_symmetry_1
_geom_bond_site_symmetry_2
C13 C10 1_555 1_555
C15 C10 1_555 1_555
H7 C15 1_555 1_555
O7 C13 1_555 1_555
O8 C13 1_555 1_555
Tb2 O7 1_555 1_555
Tb4_2 O9 1_555 1_555
O8 Tb2 1_555 1_555
Tb2 O2 1_555 1_555
C2 C4 1_555 1_555
C4 H2 1_555 1_555
C5 C2 1_555 1_555
C7 C2 1_555 1_555
H3 C7 1_555 1_555
O2 C5 1_555 1_555
O3 Tb2 1_555 1_555
O4 C8 1_555 1_555
C8 C3 1_555 1_555
O6 Tb2 1_555 1_555
H4 O6 1_555 1_555
C12 H6 1_555 1_555
C16 C11 1_555 1_555
H8 O6 1_555 1_555
Tb4 O4 1_555 1_555
O13 Tb2 1_555 1_555
O14 Tb2 1_555 1_555
O15 Tb2 1_555 1_555
O16 Tb2 1_555 1_555
C3 C7 1_555 1_555
C4 C6 1_555 1_555
C5 O3 1_555 1_555
C12 C14 1_555 1_555
C1 H1 1_555 1_555
C9 H5 1_555 1_555
Tb6 O5 1_555 1_555
Tb6_2 O10 1_555 1_555
Tb4 O2_2 1_555 1_555
O12 Tb4 1_555 1_555
O16_2 Tb4 1_555 1_555
C5_2 C2_2 1_555 1_555
C7_2 C2_2 1_555 1_555
H3_2 C7_2 1_555 1_555
O3_2 Tb4_2 1_555 1_555
O11 Tb4_2 1_555 1_555
O15_2 Tb4_2 1_555 1_555
C5_2 O3_2 1_555 1_555
C9_2 H5_2 1_555 1_555
C10_2 C12_2 1_555 1_555
C11_2 C9_2 1_555 1_555
C13_2 C10_2 1_555 1_555
C14_2 O1_2 1_555 1_555
C15_2 C10_2 1_555 1_555
H7_2 C15_2 1_555 1_555
O12 C13_2 1_555 1_555
O14 C16_2 1_555 1_555
C16_2 C11_2 1_555 1_555
O10_2 C16_2 1_555 1_555
Tb6_3 O10_2 1_555 1_555
C9_2 C14_2 1_555 1_555
C11_2 C15_2 1_555 1_555
C12_2 C14_2 1_555 1_555
C1_2 H1_2 1_555 1_555
C3_2 C1_2 1_555 1_555
C6_2 C1_2 1_555 1_555
O1_3 C6_2 1_555 1_555
C8_2 C3_2 1_555 1_555
O5_2 C8_2 1_555 1_555
Tb6_3 O5_2 1_555 1_555
C4_2 C6_2 1_555 1_555
C1_3 H1_3 1_555 1_555
C9_3 H5_3 1_555 1_555
Tb6_3 O2_3 1_555 1_555
C2_3 C4_3 1_555 1_555
C4_3 H2_3 1_555 1_555
C5_3 C2_3 1_555 1_555
C7_3 C2_3 1_555 1_555
H3_3 C7_3 1_555 1_555
O2_3 C5_3 1_555 1_555
O3_3 Tb6_3 1_555 1_555
O4_2 C8_3 1_555 1_555
C8_3 C3_3 1_555 1_555
O6_2 Tb6_3 1_555 1_555
H4_2 O6_2 1_555 1_555
C12_3 H6_3 1_555 1_555
C16_3 C11_3 1_555 1_555
H8_2 O6_2 1_555 1_555
Tb6_2 O4_2 1_555 1_555
O11_2 Tb6_3 1_555 1_555
O12_2 Tb6_3 1_555 1_555
O13_2 Tb6_3 1_555 1_555
O14_2 Tb6_3 1_555 1_555
C3_3 C7_3 1_555 1_555
C4_3 C6_3 1_555 1_555
C5_3 O3_3 1_555 1_555
C12_3 C14_3 1_555 1_555
C13_3 C10_3 1_555 1_555
C15_3 C10_3 1_555 1_555
H7_3 C15_3 1_555 1_555
O11_2 C13_3 1_555 1_555
O12_2 C13_3 1_555 1_555
Tb6 O9_2 1_555 1_555
C1_4 H1_4 1_555 1_555
C3_4 C1_4 1_555 1_555
C6_4 C1_4 1_555 1_555
O1_5 C6_4 1_555 1_555
C8_4 C3_4 1_555 1_555
O15 C8_4 1_555 1_555
Tb6 O7_2 1_555 1_555
C4_4 C6_4 1_555 1_555
C9_4 H5_4 1_555 1_555
C10_4 C12_4 1_555 1_555
C11_4 C9_4 1_555 1_555
C13_4 C10_4 1_555 1_555
C14_4 O1_6 1_555 1_555
C15_4 C10_4 1_555 1_555
H7_4 C15_4 1_555 1_555
O8_2 C13_4 1_555 1_555
O14_2 C16_4 1_555 1_555
C16_4 C11_4 1_555 1_555
O16 C16_4 1_555 1_555
C9_4 C14_4 1_555 1_555
C11_4 C15_4 1_555 1_555
C12_4 C14_4 1_555 1_555
O8_2 Tb6_2 1_555 1_555
C5_4 C2_4 1_555 1_555
C7_4 C2_4 1_555 1_555
H3_4 C7_4 1_555 1_555
O3_4 Tb6 1_555 1_555
C5_4 O3_4 1_555 1_555
Tb6_2 O2_4 1_555 1_555
H8_3 O6_3 1_555 1_555
H4_3 O6_4 1_555 1_555
H4_4 O6_5 1_555 1_555
H8_4 O6_6 1_555 1_555

#END
