
###############################################################################
#
# This file contains modified crystal structure data generated from the
# MOF subset of the Cambridge Structural Database (CSD) v543 
# hosted by the Cambridge Crystallographic Data Centre (CCDC).
#
# This work is licensed under the Creative Commons
# Attribution-NonCommercial-ShareAlike 4.0 International License.
# To view a copy of this license, visit
# http://creativecommons.org/licenses/by-nc-sa/4.0/
# or send a letter to
# Creative Commons, PO Box 1866, Mountain View, CA 94042, USA.
#
# CIF created using the CSD Python API on 29 September 2022
# The structure has been converted into the P1 space group
# The structure has a 3D framework
# The original CSD entry FUNLEH is in the monoclinic crystal system
# The framework has been calculated to contain at least 10.0% void space
# The void calculation uses a probe of radius 1.32A, grid spacing 0.4
#
###############################################################################

data_FUNLEH
_chemical_formula_moiety         '(C120 H80 N4 O16 Zn3)n'
_symmetry_cell_setting           triclinic
_symmetry_space_group_name_H-M   'P 1'
_symmetry_Int_Tables_number      1
_space_group_name_Hall           'P 1'
loop_
_symmetry_equiv_pos_site_id
_symmetry_equiv_pos_as_xyz
1 x,y,z
_cell_length_a                   9.190(3)
_cell_length_b                   17.557(5)
_cell_length_c                   19.107(6)
_cell_angle_alpha                90
_cell_angle_beta                 102.375(7)
_cell_angle_gamma                90
_cell_volume                     3011.26
loop_
_atom_site_label
_atom_site_type_symbol
_atom_site_fract_x
_atom_site_fract_y
_atom_site_fract_z
O3 O 0.2875(2) 0.07016(12) 0.98914(10)
O4 O 0.4120(2) 0.07611(12) 0.90114(10)
C12 C 0.0436(3) 0.14403(17) 0.90555(15)
H8 H 0.0402 0.1305 0.9533
C13 C 0.1721(3) 0.12976(15) 0.88096(14)
C14 C 0.1758(3) 0.15011(16) 0.81132(15)
H9 H 0.2630 0.1411 0.7934
C15 C 0.0524(3) 0.18354(17) 0.76784(16)
H10 H 0.0566 0.1975 0.7203
C16 C 0.3012(3) 0.08926(15) 0.92757(14)
Zn7 Zn 0.58246(3) 0.003429(15) 0.941796(14)
N3 N 0.6886(3) 0.00369(11) 0.85968(12)
H12 H 0.9973 0.0341 0.1797
H15 H 0.9996 0.0269 0.3061
C34 C 0.6794(4) 0.0196(2) 0.73537(17)
H23 H 0.6231 0.0334 0.6894
C35 C 0.6147(4) 0.0218(2) 0.79386(17)
H24 H 0.5133 0.0369 0.7871
C37 C 0.8466(4) 0.01004(17) 0.61681(17)
H26 H 0.7472 0.0286 0.6055
C38 C 0.9265(3) 0.00425(16) 0.55724(14)
C39 C 0.9581(3) 0.07129(18) 0.52393(15)
C43 C 0.9577(4) 0.2097(2) 0.51621(19)
H29 H 0.9321 0.2579 0.5327
C44 C 0.9212(4) 0.1454(2) 0.54684(17)
H30 H 0.8695 0.1491 0.5848
Zn4 Zn 0.41754(3) 0.996571(15) 0.058204(14)
O7 O 0.7125(2) 0.92984(12) 0.01086(10)
O8 O 0.5880(2) 0.92389(12) 0.09886(10)
C56 C 0.9564(3) 0.85597(17) 0.09445(15)
H38 H 0.9598 0.8695 0.0467
C57 C 0.8279(3) 0.87024(15) 0.11904(14)
C58 C 0.8242(3) 0.84989(16) 0.18868(15)
H39 H 0.7370 0.8589 0.2066
C59 C 0.9476(3) 0.81646(17) 0.23216(16)
H40 H 0.9434 0.8025 0.2797
C60 C 0.6988(3) 0.91074(15) 0.07243(14)
N1 N 0.3114(3) 0.99631(11) 0.14032(12)
C20 C 0.3206(4) 0.9804(2) 0.26463(17)
H13 H 0.3769 0.9666 0.3106
C21 C 0.3853(4) 0.9782(2) 0.20614(17)
H14 H 0.4867 0.9631 0.2129
C23 C 0.1534(4) 0.98996(17) 0.38319(17)
H16 H 0.2528 0.9714 0.3945
C24 C 0.0735(3) 0.99575(16) 0.44276(14)
C25 C 0.0419(3) 0.92871(18) 0.47607(15)
C29 C 0.0423(4) 0.7903(2) 0.48379(19)
H19 H 0.0679 0.7421 0.4673
C30 C 0.0788(4) 0.8546(2) 0.45316(17)
H20 H 0.1305 0.8509 0.4152
H22 H 0.0027 0.9659 0.8203
H25 H 0.0004 0.9731 0.6939
Zn1 Zn 0.08246(3) 0.496571(15) 0.441796(14)
O1 O 0.0658(2) 0.41784(12) 0.59349(11)
O2 O 0.1898(2) 0.41185(12) 0.50537(11)
N1_2 N 0.1886(3) 0.49631(11) 0.35968(12)
C1 C 0.1723(3) 0.39659(15) 0.56718(15)
C2 C 0.2935(3) 0.35189(14) 0.61477(14)
C3 C 0.2886(3) 0.33512(16) 0.68499(15)
H1 H 0.2026 0.3481 0.7025
C4 C 0.4069(3) 0.29980(16) 0.72989(15)
H2 H 0.4009 0.2883 0.7778
C5 C 0.5356(3) 0.28070(16) 0.70581(15)
C6 C 0.5380(3) 0.29588(17) 0.63441(15)
H3 H 0.6227 0.2820 0.6162
C7 C 0.4190(3) 0.33074(16) 0.59013(16)
H4 H 0.4228 0.3405 0.5417
C8 C 0.6616(3) 0.24526(17) 0.75573(16)
H5 H 0.6446 0.2299 0.8010
C9 C 0.7963(3) 0.23265(17) 0.74386(16)
H6 H 0.8126 0.2485 0.6986
C10 C 0.9222(3) 0.19725(16) 0.79216(16)
C11 C 0.9210(3) 0.17719(17) 0.86270(15)
H7 H 0.8347 0.1866 0.8812
C17 C 0.3287(3) 0.51512(16) 0.36753(16)
H11 H 0.3837 0.5264 0.4144
C18 C 0.4009(3) 0.51948(18) 0.31154(16)
H12_2 H 0.5027 0.5341 0.3203
C19 C 0.3265(3) 0.50276(15) 0.24329(16)
C20_2 C 0.1794(4) 0.4804(2) 0.23537(17)
H13_2 H 0.1231 0.4666 0.1894
C21_2 C 0.1147(4) 0.4782(2) 0.29386(17)
H14_2 H 0.0133 0.4631 0.2871
C22 C 0.4012(4) 0.50813(16) 0.18330(17)
H15_2 H 0.5004 0.5269 0.1939
C23_2 C 0.3466(4) 0.48996(17) 0.11681(17)
H16_2 H 0.2472 0.4714 0.1055
C24_2 C 0.4265(3) 0.49575(16) 0.05724(14)
C25_2 C 0.4581(3) 0.42871(18) 0.02393(15)
C29_2 C 0.4577(4) 0.2903(2) 0.01621(19)
H19_2 H 0.4321 0.2421 0.0327
C30_2 C 0.4212(4) 0.3546(2) 0.04684(17)
H20_2 H 0.3695 0.3509 0.0848
C40 C 0.4655(3) 0.56725(18) 0.03431(14)
C41 C 0.4294(4) 0.6374(2) 0.06406(16)
H27 H 0.3775 0.6363 0.1020
C42 C 0.4669(4) 0.7056(2) 0.03985(19)
H28 H 0.4416 0.7512 0.0613
O9 O 0.2125(2) 0.57016(12) 0.51086(10)
O11 O 0.0880(2) 0.57611(12) 0.59886(10)
C5_2 C 0.9644(3) 0.78070(16) 0.79419(15)
C6_2 C 0.9620(3) 0.79588(17) 0.86559(15)
H3_2 H 0.8773 0.7820 0.8838
C8_2 C 0.8384(3) 0.74526(17) 0.74427(16)
H5_2 H 0.8554 0.7299 0.6990
C9_2 C 0.7037(3) 0.73265(17) 0.75614(16)
H6_2 H 0.6874 0.7485 0.8014
C10_2 C 0.5778(3) 0.69725(16) 0.70784(16)
C11_2 C 0.5790(3) 0.67719(17) 0.63730(15)
H7_2 H 0.6653 0.6866 0.6188
C12_2 C 0.4564(3) 0.64403(17) 0.59445(15)
H8_2 H 0.4598 0.6305 0.5467
C13_2 C 0.3279(3) 0.62976(15) 0.61904(14)
C14_2 C 0.3242(3) 0.65011(16) 0.68868(15)
H9_2 H 0.2370 0.6411 0.7066
C15_2 C 0.4476(3) 0.68354(17) 0.73216(16)
H10_2 H 0.4434 0.6975 0.7797
C16_2 C 0.1988(3) 0.58926(15) 0.57243(14)
C26 C 0.5345(3) 0.43275(18) 0.96569(14)
C27 C 0.5706(4) 0.3626(2) 0.93594(16)
H17 H 0.6225 0.3637 0.8980
C28 C 0.5331(4) 0.2944(2) 0.96015(19)
H18 H 0.5584 0.2488 0.9387
N2 N 0.8114(3) 0.50369(11) 0.64032(12)
C31 C 0.6713(3) 0.48488(16) 0.63247(16)
H21 H 0.6163 0.4736 0.5856
C32 C 0.5991(3) 0.48052(18) 0.68846(16)
H22_2 H 0.4973 0.4659 0.6797
C33 C 0.6735(3) 0.49724(15) 0.75671(16)
C34_2 C 0.8206(4) 0.5196(2) 0.76463(17)
H23_2 H 0.8769 0.5334 0.8106
C35_2 C 0.8853(4) 0.5218(2) 0.70614(17)
H24_2 H 0.9867 0.5369 0.7129
C36 C 0.5988(4) 0.49187(16) 0.81670(17)
H25_2 H 0.4996 0.4731 0.8061
C37_2 C 0.6534(4) 0.51004(17) 0.88319(17)
H26_2 H 0.7528 0.5286 0.8945
C38_2 C 0.5735(3) 0.50425(16) 0.94276(14)
C39_2 C 0.5419(3) 0.57129(18) 0.97607(15)
C43_2 C 0.5423(4) 0.7097(2) 0.98379(19)
H29_2 H 0.5679 0.7579 0.9673
C44_2 C 0.5788(4) 0.6454(2) 0.95316(17)
H30_2 H 0.6305 0.6491 0.9152
Zn5 Zn 0.91754(3) 0.503429(15) 0.558204(14)
O5 O 0.9342(2) 0.58216(12) 0.40651(11)
O6 O 0.8102(2) 0.58815(12) 0.49463(11)
C45 C 0.8277(3) 0.60341(15) 0.43282(15)
C46 C 0.7065(3) 0.64811(14) 0.38523(14)
C47 C 0.7114(3) 0.66488(16) 0.31501(15)
H31 H 0.7974 0.6519 0.2975
C48 C 0.5931(3) 0.70020(16) 0.27011(15)
H32 H 0.5991 0.7117 0.2222
C49 C 0.4644(3) 0.71930(16) 0.29419(15)
C50 C 0.4620(3) 0.70412(17) 0.36559(15)
H33 H 0.3773 0.7180 0.3838
C51 C 0.5810(3) 0.66926(16) 0.40987(16)
H34 H 0.5772 0.6595 0.4583
C52 C 0.3384(3) 0.75474(17) 0.24427(16)
H35 H 0.3554 0.7701 0.1990
C53 C 0.2037(3) 0.76735(17) 0.25614(16)
H36 H 0.1874 0.7515 0.3014
C54 C 0.0778(3) 0.80275(16) 0.20784(16)
C55 C 0.0790(3) 0.82281(17) 0.13730(15)
H37 H 0.1653 0.8134 0.1188
O10 O 0.7875(2) 0.42984(12) 0.48914(10)
O12 O 0.9120(2) 0.42389(12) 0.40114(10)
C49_2 C 0.0356(3) 0.21930(16) 0.20581(15)
C50_2 C 0.0380(3) 0.20412(17) 0.13441(15)
H33_2 H 0.1227 0.2180 0.1162
C52_2 C 0.1616(3) 0.25474(17) 0.25573(16)
H35_2 H 0.1446 0.2701 0.3010
C53_2 C 0.2963(3) 0.26735(17) 0.24386(16)
H36_2 H 0.3126 0.2515 0.1986
C54_2 C 0.4222(3) 0.30275(16) 0.29216(16)
C55_2 C 0.4210(3) 0.32281(17) 0.36270(15)
H37_2 H 0.3347 0.3134 0.3812
C56_2 C 0.5436(3) 0.35597(17) 0.40555(15)
H38_2 H 0.5402 0.3695 0.4533
C57_2 C 0.6721(3) 0.37024(15) 0.38096(14)
C58_2 C 0.6758(3) 0.34989(16) 0.31132(15)
H39_2 H 0.7630 0.3589 0.2934
C59_2 C 0.5524(3) 0.31646(17) 0.26784(16)
H40_2 H 0.5566 0.3025 0.2203
C60_2 C 0.8012(3) 0.41074(15) 0.42757(14)
C17_2 C 0.1713(3) 0.01512(16) 0.13247(16)
H11_2 H 0.1163 0.0264 0.0856
C18_2 C 0.0991(3) 0.01948(18) 0.18846(16)
C19_2 C 0.1735(3) 0.00276(15) 0.25671(16)
C22_2 C 0.0988(4) 0.00813(16) 0.31670(17)
C40_2 C 0.0345(3) 0.06725(18) 0.46569(14)
C41_2 C 0.0706(4) 0.1374(2) 0.43594(16)
H27_2 H 0.1225 0.1363 0.3980
C42_2 C 0.0331(4) 0.2056(2) 0.46015(19)
H28_2 H 0.0584 0.2512 0.4387
O5_2 O 0.5658(2) 0.08216(12) 0.09349(11)
O6_2 O 0.6898(2) 0.08815(12) 0.00537(11)
C45_2 C 0.6723(3) 0.10341(15) 0.06718(15)
C46_2 C 0.7935(3) 0.14811(14) 0.11477(14)
C47_2 C 0.7886(3) 0.16488(16) 0.18499(15)
H31_2 H 0.7026 0.1519 0.2025
C48_2 C 0.9069(3) 0.20020(16) 0.22989(15)
H32_2 H 0.9009 0.2117 0.2778
C51_2 C 0.9190(3) 0.16926(16) 0.09013(16)
H34_2 H 0.9228 0.1595 0.0417
O1_2 O 0.4342(2) 0.91784(12) 0.90651(11)
O2_2 O 0.3102(2) 0.91185(12) 0.99463(11)
C1_2 C 0.3277(3) 0.89659(15) 0.93282(15)
C2_2 C 0.2065(3) 0.85189(14) 0.88523(14)
C3_2 C 0.2114(3) 0.83512(16) 0.81501(15)
H1_2 H 0.2974 0.8481 0.7975
C4_2 C 0.0931(3) 0.79980(16) 0.77011(15)
H2_2 H 0.0991 0.7883 0.7222
C7_2 C 0.0810(3) 0.83074(16) 0.90987(16)
H4_2 H 0.0772 0.8405 0.9583
C26_2 C 0.9655(3) 0.93275(18) 0.53431(14)
C27_2 C 0.9294(4) 0.8626(2) 0.56406(16)
H17_2 H 0.8775 0.8637 0.6020
C28_2 C 0.9669(4) 0.7944(2) 0.53985(19)
H18_2 H 0.9416 0.7488 0.5613
C31_2 C 0.8287(3) 0.98488(16) 0.86753(16)
H21_2 H 0.8837 0.9736 0.9144
C32_2 C 0.9009(3) 0.98052(18) 0.81154(16)
C33_2 C 0.8265(3) 0.99724(15) 0.74329(16)
C36_2 C 0.9012(4) 0.99187(16) 0.68330(17)
loop_
_geom_bond_atom_site_label_1
_geom_bond_atom_site_label_2
_geom_bond_site_symmetry_1
_geom_bond_site_symmetry_2
O3 C16 1_555 1_555
O4 C16 1_555 1_555
H8 C12 1_555 1_555
C13 C12 1_555 1_555
C14 C13 1_555 1_555
H9 C14 1_555 1_555
H10 C15 1_555 1_555
C16 C13 1_555 1_555
Zn7 O4 1_555 1_555
C14 C15 1_555 1_555
N3 Zn7 1_555 1_555
H23 C34 1_555 1_555
C35 N3 1_555 1_555
H24 C35 1_555 1_555
H26 C37 1_555 1_555
C39 C38 1_555 1_555
H29 C43 1_555 1_555
C44 C39 1_555 1_555
H30 C44 1_555 1_555
C34 C35 1_555 1_555
C37 C38 1_555 1_555
C43 C44 1_555 1_555
O7 C60 1_555 1_555
O8 C60 1_555 1_555
H38 C56 1_555 1_555
C57 C56 1_555 1_555
C58 C57 1_555 1_555
H39 C58 1_555 1_555
H40 C59 1_555 1_555
C60 C57 1_555 1_555
Zn4 O8 1_555 1_555
C58 C59 1_555 1_555
N1 Zn4 1_555 1_555
H13 C20 1_555 1_555
C21 N1 1_555 1_555
H14 C21 1_555 1_555
H16 C23 1_555 1_555
C24 C23 1_555 1_555
C25 C24 1_555 1_555
H19 C29 1_555 1_555
C30 C25 1_555 1_555
H20 C30 1_555 1_555
C20 C21 1_555 1_555
C29 C30 1_555 1_555
Zn1 O2 1_555 1_555
O1 C1 1_555 1_555
O2 C1 1_555 1_555
N1_2 Zn1 1_555 1_555
C1 C2 1_555 1_555
C2 C3 1_555 1_555
C3 H1 1_555 1_555
C4 C3 1_555 1_555
H2 C4 1_555 1_555
C5 C4 1_555 1_555
C6 C5 1_555 1_555
H3 C6 1_555 1_555
C7 C2 1_555 1_555
H4 C7 1_555 1_555
C8 C5 1_555 1_555
H5 C8 1_555 1_555
C9 C8 1_555 1_555
H6 C9 1_555 1_555
C10 C9 1_555 1_555
C11 C10 1_555 1_555
H7 C11 1_555 1_555
C17 N1_2 1_555 1_555
H11 C17 1_555 1_555
C18 C17 1_555 1_555
H12_2 C18 1_555 1_555
C19 C18 1_555 1_555
C20_2 C19 1_555 1_555
H13_2 C20_2 1_555 1_555
C21_2 N1_2 1_555 1_555
H14_2 C21_2 1_555 1_555
C22 C19 1_555 1_555
H15_2 C22 1_555 1_555
C23_2 C22 1_555 1_555
H16_2 C23_2 1_555 1_555
C24_2 C23_2 1_555 1_555
C25_2 C24_2 1_555 1_555
H19_2 C29_2 1_555 1_555
C30_2 C25_2 1_555 1_555
H20_2 C30_2 1_555 1_555
C40 C24_2 1_555 1_555
C41 C40 1_555 1_555
H27 C41 1_555 1_555
C42 C41 1_555 1_555
H28 C42 1_555 1_555
O9 Zn1 1_555 1_555
C6 C7 1_555 1_555
C20_2 C21_2 1_555 1_555
C29_2 C30_2 1_555 1_555
O9 C16_2 1_555 1_555
O11 C16_2 1_555 1_555
C6_2 C5_2 1_555 1_555
H3_2 C6_2 1_555 1_555
C8_2 C5_2 1_555 1_555
H5_2 C8_2 1_555 1_555
C9_2 C8_2 1_555 1_555
H6_2 C9_2 1_555 1_555
C10_2 C9_2 1_555 1_555
C11_2 C10_2 1_555 1_555
H7_2 C11_2 1_555 1_555
C12_2 C11_2 1_555 1_555
H8_2 C12_2 1_555 1_555
C13_2 C12_2 1_555 1_555
C14_2 C13_2 1_555 1_555
H9_2 C14_2 1_555 1_555
C15_2 C10_2 1_555 1_555
H10_2 C15_2 1_555 1_555
C16_2 C13_2 1_555 1_555
C14_2 C15_2 1_555 1_555
C27 C26 1_555 1_555
H17 C27 1_555 1_555
C28 C27 1_555 1_555
H18 C28 1_555 1_555
N2 C31 1_555 1_555
C31 H21 1_555 1_555
C32 C31 1_555 1_555
H22_2 C32 1_555 1_555
C33 C32 1_555 1_555
C34_2 C33 1_555 1_555
H23_2 C34_2 1_555 1_555
C35_2 N2 1_555 1_555
H24_2 C35_2 1_555 1_555
C36 C33 1_555 1_555
H25_2 C36 1_555 1_555
C37_2 C36 1_555 1_555
H26_2 C37_2 1_555 1_555
C38_2 C26 1_555 1_555
C39_2 C38_2 1_555 1_555
H29_2 C43_2 1_555 1_555
C44_2 C39_2 1_555 1_555
H30_2 C44_2 1_555 1_555
Zn5 N2 1_555 1_555
C34_2 C35_2 1_555 1_555
C37_2 C38_2 1_555 1_555
C43_2 C44_2 1_555 1_555
O6 Zn5 1_555 1_555
C45 O5 1_555 1_555
C46 C45 1_555 1_555
C47 C46 1_555 1_555
H31 C47 1_555 1_555
C48 C47 1_555 1_555
H32 C48 1_555 1_555
C49 C48 1_555 1_555
C50 C49 1_555 1_555
H33 C50 1_555 1_555
C51 C46 1_555 1_555
H34 C51 1_555 1_555
C52 C49 1_555 1_555
H35 C52 1_555 1_555
C53 C52 1_555 1_555
H36 C53 1_555 1_555
C54 C53 1_555 1_555
C55 C54 1_555 1_555
H37 C55 1_555 1_555
O10 Zn5 1_555 1_555
O6 C45 1_555 1_555
C50 C51 1_555 1_555
O10 C60_2 1_555 1_555
O12 C60_2 1_555 1_555
C50_2 C49_2 1_555 1_555
H33_2 C50_2 1_555 1_555
C52_2 C49_2 1_555 1_555
H35_2 C52_2 1_555 1_555
C53_2 C52_2 1_555 1_555
H36_2 C53_2 1_555 1_555
C54_2 C53_2 1_555 1_555
C55_2 C54_2 1_555 1_555
H37_2 C55_2 1_555 1_555
C56_2 C55_2 1_555 1_555
H38_2 C56_2 1_555 1_555
C57_2 C56_2 1_555 1_555
C58_2 C57_2 1_555 1_555
H39_2 C58_2 1_555 1_555
C59_2 C54_2 1_555 1_555
H40_2 C59_2 1_555 1_555
C60_2 C57_2 1_555 1_555
C58_2 C59_2 1_555 1_555
H11_2 C17_2 1_555 1_555
C18_2 C17_2 1_555 1_555
C19_2 C18_2 1_555 1_555
C22_2 C19_2 1_555 1_555
C41_2 C40_2 1_555 1_555
H27_2 C41_2 1_555 1_555
C42_2 C41_2 1_555 1_555
H28_2 C42_2 1_555 1_555
C45_2 O5_2 1_555 1_555
C46_2 C45_2 1_555 1_555
C47_2 C46_2 1_555 1_555
H31_2 C47_2 1_555 1_555
C48_2 C47_2 1_555 1_555
H32_2 C48_2 1_555 1_555
C51_2 C46_2 1_555 1_555
H34_2 C51_2 1_555 1_555
O6_2 C45_2 1_555 1_555
O1_2 C1_2 1_555 1_555
O2_2 C1_2 1_555 1_555
C1_2 C2_2 1_555 1_555
C2_2 C3_2 1_555 1_555
C3_2 H1_2 1_555 1_555
C4_2 C3_2 1_555 1_555
H2_2 C4_2 1_555 1_555
C7_2 C2_2 1_555 1_555
H4_2 C7_2 1_555 1_555
C27_2 C26_2 1_555 1_555
H17_2 C27_2 1_555 1_555
C28_2 C27_2 1_555 1_555
H18_2 C28_2 1_555 1_555
C31_2 H21_2 1_555 1_555
C32_2 C31_2 1_555 1_555
C33_2 C32_2 1_555 1_555
C36_2 C33_2 1_555 1_555

#END
