
###############################################################################
#
# This file contains modified crystal structure data generated from the
# MOF subset of the Cambridge Structural Database (CSD) v543 
# hosted by the Cambridge Crystallographic Data Centre (CCDC).
#
# This work is licensed under the Creative Commons
# Attribution-NonCommercial-ShareAlike 4.0 International License.
# To view a copy of this license, visit
# http://creativecommons.org/licenses/by-nc-sa/4.0/
# or send a letter to
# Creative Commons, PO Box 1866, Mountain View, CA 94042, USA.
#
# CIF created using the CSD Python API on 29 September 2022
# The structure has been converted into the P1 space group
# The structure has a 3D framework
# The original CSD entry FUQYEY is in the tetragonal crystal system
# The original CSD entry FUQYEY is in a Sohncke space group
# The framework has been calculated to contain at least 10.0% void space
# The void calculation uses a probe of radius 1.32A, grid spacing 0.4
#
###############################################################################

data_FUQYEY
_chemical_formula_moiety         '(C84 H34 O32 V8)n'
_symmetry_cell_setting           triclinic
_symmetry_space_group_name_H-M   'P 1'
_symmetry_Int_Tables_number      1
_space_group_name_Hall           'P 1'
loop_
_symmetry_equiv_pos_site_id
_symmetry_equiv_pos_as_xyz
1 x,y,z
_cell_length_a                   15.148759(56)
_cell_length_b                   15.148759(56)
_cell_length_c                   12.046437(61)
_cell_angle_alpha                90
_cell_angle_beta                 90
_cell_angle_gamma                90
_cell_volume                     2764.48
loop_
_atom_site_label
_atom_site_type_symbol
_atom_site_fract_x
_atom_site_fract_y
_atom_site_fract_z
C9 C 0.56828(16) 0.46057(18) 0.23782(28)
C10 C 0.500 0.500 0.29627(30)
C11 C 0.56819(16) 0.46041(17) 0.12142(20)
C12 C 0.500 0.500 0.06246(27)
H4 H 0.500 0.500 0.38763
H5 H 0.62138 0.43282 0.09265
C13 C 0.64114(35) 0.41246(36) 0.29255(44)
O6 O 0.62087(25) 0.38201(25) 0.39027(27)
O7 O 0.71155(21) 0.39816(22) 0.24488(34)
C14 C 0.43172(16) 0.53943(18) 0.23782(28)
C15 C 0.43181(16) 0.53959(17) 0.12142(20)
H6 H 0.37862 0.56718 0.09265
C16 C 0.35886(35) 0.58754(36) 0.29255(44)
O8 O 0.37913(25) 0.61799(25) 0.39027(27)
O9 O 0.28845(21) 0.60184(22) 0.24488(34)
V3 V 0.308641(74) 0.691359(74) 0.500
V6 V 0.808641(74) 0.308641(74) 0.250
V7 V 0.691359(74) 0.308641(74) 0.500
V10 V 0.191359(74) 0.691359(74) 0.250
O1 O 0.61799(25) 0.37913(25) 0.60973(27)
O2 O 0.60184(22) 0.28845(21) 0.75512(34)
C1 C 0.58754(36) 0.35886(35) 0.70745(44)
C2 C 0.53943(18) 0.43172(16) 0.76218(28)
C3 C 0.500 0.500 0.70373(30)
C4 C 0.53959(17) 0.43181(16) 0.87858(20)
C5 C 0.500 0.500 0.93754(27)
H1 H 0.500 0.500 0.61237
H2 H 0.56718 0.37862 0.90735
O3 O 0.750 0.24635(32) 0.375
C6 C 0.46057(18) 0.56828(16) 0.76218(28)
C7 C 0.46041(17) 0.56819(16) 0.87858(20)
H3 H 0.43282 0.62138 0.90735
C8 C 0.41246(36) 0.64114(35) 0.70745(44)
O4 O 0.38201(25) 0.62087(25) 0.60973(27)
O5 O 0.39816(22) 0.71155(21) 0.75512(34)
O10 O 0.250 0.75365(32) 0.375
O13 O 0.39816(22) 0.78845(21) 0.49488(34)
O14 O 0.21155(21) 0.60184(22) 0.50512(34)
O15 O 0.78845(21) 0.39816(22) 0.50512(34)
O16 O 0.60184(22) 0.21155(21) 0.49488(34)
V4 V 0.308641(74) 0.808641(74) 0.750
V8 V 0.691359(74) 0.191359(74) 0.750
O17 O 0.75365(32) 0.250 0.625
O18 O 0.24635(32) 0.750 0.625
V9 V 0.808641(74) 0.191359(74) 0.000
C3_2 C 0.500 -0.000 0.54627(30)
C5_2 C 0.500 -0.000 0.31246(27)
H1_2 H 0.500 -0.000 0.63763
C6_2 C 0.53943(18) 0.06828(16) 0.48782(28)
C7_2 C 0.53959(17) 0.06819(16) 0.37142(20)
H3_2 H 0.56718 0.12138 0.34265
C8_2 C 0.58754(36) 0.14114(35) 0.54255(44)
O4_2 O 0.61799(25) 0.12087(25) 0.64027(27)
C12_2 C 0.500 -0.000 0.18754(27)
C14_2 C 0.56828(16) 0.03943(18) 0.01218(28)
C15_2 C 0.56819(16) 0.03959(17) 0.12858(20)
H6_2 H 0.62138 0.06718 0.15735
O9_2 O 0.71155(21) 0.10184(22) 0.00512(34)
O10_2 O 0.750 0.25365(32) 0.875
O12 O 0.62087(25) 0.11799(25) 0.85973(27)
O14_2 O 0.78845(21) 0.10184(22) 0.74488(34)
V9_2 V 0.808641(74) 0.191359(74) 1.000
C10_2 C 0.500 -0.000 0.95373(30)
H4_2 H 0.500 -0.000 0.86237
C16_2 C 0.64114(35) 0.08754(36) 0.95745(44)
V5 V 0.191359(74) 0.808641(74) 0.000
O1_2 O 0.38201(25) 0.87913(25) 0.64027(27)
C1_2 C 0.41246(36) 0.85886(35) 0.54255(44)
C2_2 C 0.46057(18) 0.93172(16) 0.48782(28)
C3_3 C 0.500 1.000 0.54627(30)
C4_2 C 0.46041(17) 0.93181(16) 0.37142(20)
C5_3 C 0.500 1.000 0.31246(27)
H1_3 H 0.500 1.000 0.63763
H2_2 H 0.43282 0.87862 0.34265
O3_2 O 0.250 0.74635(32) 0.875
C9_2 C 0.43172(16) 0.96057(18) 0.01218(28)
C11_2 C 0.43181(16) 0.96041(17) 0.12858(20)
C12_3 C 0.500 1.000 0.18754(27)
H5_2 H 0.37862 0.93282 0.15735
O7_2 O 0.28845(21) 0.89816(22) 0.00512(34)
O11 O 0.37913(25) 0.88201(25) 0.85973(27)
O15_2 O 0.21155(21) 0.89816(22) 0.74488(34)
V5_2 V 0.191359(74) 0.808641(74) 1.000
C10_3 C 0.500 1.000 0.95373(30)
H4_3 H 0.500 1.000 0.86237
C13_2 C 0.35886(35) 0.91246(36) 0.95745(44)
C3_4 C -0.000 1.000 0.20373(30)
C5_4 C -0.000 1.000 0.43754(27)
H1_4 H -0.000 1.000 0.11237
C6_3 C 0.03943(18) 0.93172(16) 0.26218(28)
C7_3 C 0.03959(17) 0.93181(16) 0.37858(20)
H3_3 H 0.06718 0.87862 0.40735
C8_3 C 0.08754(36) 0.85886(35) 0.20745(44)
O4_3 O 0.11799(25) 0.87913(25) 0.10973(27)
O5_2 O 0.10184(22) 0.78845(21) 0.25512(34)
C10_4 C 0.000 1.000 0.79627(30)
C12_4 C -0.000 1.000 0.56246(27)
H4_4 H -0.000 1.000 0.88763
C14_3 C 0.06828(16) 0.96057(18) 0.73782(28)
C15_3 C 0.06819(16) 0.96041(17) 0.62142(20)
H6_3 H 0.12138 0.93282 0.59265
C16_3 C 0.14114(35) 0.91246(36) 0.79255(44)
O8_2 O 0.12087(25) 0.88201(25) 0.89027(27)
O18_2 O 0.25365(32) 0.750 0.125
O13_2 O 0.10184(22) 0.71155(21) 0.99488(34)
O1_3 O 0.88201(25) 0.12087(25) 0.10973(27)
O2_2 O 0.89816(22) 0.21155(21) 0.25512(34)
C1_3 C 0.91246(36) 0.14114(35) 0.20745(44)
C2_3 C 0.96057(18) 0.06828(16) 0.26218(28)
C3_5 C 1.000 0.000 0.20373(30)
C4_3 C 0.96041(17) 0.06819(16) 0.37858(20)
C5_5 C 1.000 0.000 0.43754(27)
H1_5 H 1.000 0.000 0.11237
H2_3 H 0.93282 0.12138 0.40735
C9_3 C 0.93172(16) 0.03943(18) 0.73782(28)
C10_5 C 1.000 0.000 0.79627(30)
C11_3 C 0.93181(16) 0.03959(17) 0.62142(20)
C12_5 C 1.000 0.000 0.56246(27)
H4_5 H 1.000 0.000 0.88763
H5_3 H 0.87862 0.06718 0.59265
C13_3 C 0.85886(35) 0.08754(36) 0.79255(44)
O6_2 O 0.87913(25) 0.11799(25) 0.89027(27)
O17_2 O 0.74635(32) 0.250 0.125
O16_2 O 0.89816(22) 0.28845(21) 0.99488(34)
C3_6 C -0.000 0.500 0.04627(30)
H1_6 H -0.000 0.500 0.13763
C8_4 C 0.08754(36) 0.64114(35) 0.04255(44)
O4_4 O 0.11799(25) 0.62087(25) 0.14027(27)
O12_2 O 0.12087(25) 0.61799(25) 0.35973(27)
C5_6 C -0.000 0.500 0.81246(27)
C6_4 C 0.03943(18) 0.56828(16) 0.98782(28)
C7_4 C 0.03959(17) 0.56819(16) 0.87142(20)
H3_4 H 0.06718 0.62138 0.84265
C10_6 C -0.000 0.500 0.45373(30)
C12_6 C -0.000 0.500 0.68754(27)
H4_6 H -0.000 0.500 0.36237
C14_4 C 0.06828(16) 0.53943(18) 0.51218(28)
C15_4 C 0.06819(16) 0.53959(17) 0.62858(20)
H6_4 H 0.12138 0.56718 0.65735
C16_4 C 0.14114(35) 0.58754(36) 0.45745(44)
O1_4 O 0.88201(25) 0.37913(25) 0.14027(27)
C1_4 C 0.91246(36) 0.35886(35) 0.04255(44)
C3_7 C 1.000 0.500 0.04627(30)
H1_7 H 1.000 0.500 0.13763
O11_2 O 0.87913(25) 0.38201(25) 0.35973(27)
C2_4 C 0.96057(18) 0.43172(16) 0.98782(28)
C4_4 C 0.96041(17) 0.43181(16) 0.87142(20)
C5_7 C 1.000 0.500 0.81246(27)
H2_4 H 0.93282 0.37862 0.84265
C9_4 C 0.93172(16) 0.46057(18) 0.51218(28)
C10_7 C 1.000 0.500 0.45373(30)
C11_4 C 0.93181(16) 0.46041(17) 0.62858(20)
C12_7 C 1.000 0.500 0.68754(27)
H4_7 H 1.000 0.500 0.36237
H5_4 H 0.87862 0.43282 0.65735
C13_4 C 0.85886(35) 0.41246(36) 0.45745(44)
C3_8 C -0.000 0.000 0.20373(30)
C5_8 C -0.000 0.000 0.43754(27)
H1_8 H -0.000 0.000 0.11237
C10_8 C 0.000 0.000 0.79627(30)
C12_8 C -0.000 0.000 0.56246(27)
H4_8 H 0.000 0.000 0.88763
C3_9 C 1.000 1.000 0.20373(30)
C5_9 C 1.000 1.000 0.43754(27)
H1_9 H 1.000 1.000 0.11237
C10_9 C 1.000 1.000 0.79627(30)
C12_9 C 1.000 1.000 0.56246(27)
H4_9 H 1.000 1.000 0.88763
loop_
_geom_bond_atom_site_label_1
_geom_bond_atom_site_label_2
_geom_bond_site_symmetry_1
_geom_bond_site_symmetry_2
C9 C10 1_555 1_555
C10 H4 1_555 1_555
C11 C9 1_555 1_555
H5 C11 1_555 1_555
C13 C9 1_555 1_555
O6 C13 1_555 1_555
O7 C13 1_555 1_555
C14 C10 1_555 1_555
C15 C12 1_555 1_555
H6 C15 1_555 1_555
C16 C14 1_555 1_555
O8 C16 1_555 1_555
O9 C16 1_555 1_555
V3 O8 1_555 1_555
V6 O7 1_555 1_555
V7 O6 1_555 1_555
V10 O9 1_555 1_555
C11 C12 1_555 1_555
C14 C15 1_555 1_555
O1 C1 1_555 1_555
O2 C1 1_555 1_555
C1 C2 1_555 1_555
C2 C3 1_555 1_555
C3 H1 1_555 1_555
C4 C2 1_555 1_555
C5 C4 1_555 1_555
H2 C4 1_555 1_555
V7 O1 1_555 1_555
O3 V7 1_555 1_555
C6 C3 1_555 1_555
C7 C5 1_555 1_555
H3 C7 1_555 1_555
C8 C6 1_555 1_555
O4 C8 1_555 1_555
O5 C8 1_555 1_555
V3 O4 1_555 1_555
O10 V3 1_555 1_555
O13 V3 1_555 1_555
O14 V3 1_555 1_555
O15 V7 1_555 1_555
O16 V7 1_555 1_555
V4 O5 1_555 1_555
V6 O3 1_555 1_555
V8 O2 1_555 1_555
V10 O10 1_555 1_555
O17 V7 1_555 1_555
O18 V3 1_555 1_555
C6 C7 1_555 1_555
V4 O18 1_555 1_555
V8 O17 1_555 1_555
C3_2 H1_2 1_555 1_555
C6_2 C3_2 1_555 1_555
C7_2 C5_2 1_555 1_555
H3_2 C7_2 1_555 1_555
C8_2 C6_2 1_555 1_555
O4_2 C8_2 1_555 1_555
O16 C8_2 1_555 1_555
C12_2 C5_2 1_555 1_555
C15_2 C12_2 1_555 1_555
H6_2 C15_2 1_555 1_555
V8 O4_2 1_555 1_555
O10_2 V8 1_555 1_555
O12 V8 1_555 1_555
O14_2 V8 1_555 1_555
V9_2 O10_2 1_555 1_555
V9 O9_2 1_555 1_555
C6_2 C7_2 1_555 1_555
C14_2 C15_2 1_555 1_555
C10_2 H4_2 1_555 1_555
O12 C16_2 1_555 1_555
O1_2 C1_2 1_555 1_555
O13 C1_2 1_555 1_555
C1_2 C2_2 1_555 1_555
C2_2 C3_3 1_555 1_555
C3_3 H1_3 1_555 1_555
C4_2 C2_2 1_555 1_555
C5_3 C4_2 1_555 1_555
H2_2 C4_2 1_555 1_555
V4 O1_2 1_555 1_555
O3_2 V4 1_555 1_555
C11_2 C9_2 1_555 1_555
C12_3 C5_3 1_555 1_555
H5_2 C11_2 1_555 1_555
O11 V4 1_555 1_555
O15_2 V4 1_555 1_555
V5_2 O3_2 1_555 1_555
V5 O7_2 1_555 1_555
C11_2 C12_3 1_555 1_555
C10_3 H4_3 1_555 1_555
O11 C13_2 1_555 1_555
C3_4 H1_4 1_555 1_555
C6_3 C3_4 1_555 1_555
C7_3 C5_4 1_555 1_555
H3_3 C7_3 1_555 1_555
C8_3 C6_3 1_555 1_555
O4_3 C8_3 1_555 1_555
O5_2 C8_3 1_555 1_555
C10_4 H4_4 1_555 1_555
C12_4 C5_4 1_555 1_555
C14_3 C10_4 1_555 1_555
C15_3 C12_4 1_555 1_555
H6_3 C15_3 1_555 1_555
C16_3 C14_3 1_555 1_555
O8_2 C16_3 1_555 1_555
O15_2 C16_3 1_555 1_555
V5 O4_3 1_555 1_555
V5_2 O8_2 1_555 1_555
V10 O5_2 1_555 1_555
O18_2 V5 1_555 1_555
C6_3 C7_3 1_555 1_555
C14_3 C15_3 1_555 1_555
V10 O18_2 1_555 1_555
O13_2 V5_2 1_555 1_555
O1_3 C1_3 1_555 1_555
O2_2 C1_3 1_555 1_555
C1_3 C2_3 1_555 1_555
C2_3 C3_5 1_555 1_555
C3_5 H1_5 1_555 1_555
C4_3 C2_3 1_555 1_555
C5_5 C4_3 1_555 1_555
H2_3 C4_3 1_555 1_555
V9 O1_3 1_555 1_555
C9_3 C10_5 1_555 1_555
C10_5 H4_5 1_555 1_555
C11_3 C9_3 1_555 1_555
C12_5 C5_5 1_555 1_555
H5_3 C11_3 1_555 1_555
C13_3 C9_3 1_555 1_555
O6_2 C13_3 1_555 1_555
O14_2 C13_3 1_555 1_555
V9_2 O6_2 1_555 1_555
V6 O2_2 1_555 1_555
O17_2 V9 1_555 1_555
C11_3 C12_5 1_555 1_555
V6 O17_2 1_555 1_555
O16_2 V9_2 1_555 1_555
C3_6 H1_6 1_555 1_555
O4_4 C8_4 1_555 1_555
V10 O4_4 1_555 1_555
O12_2 V10 1_555 1_555
C7_4 C5_6 1_555 1_555
H3_4 C7_4 1_555 1_555
C10_6 H4_6 1_555 1_555
C12_6 C5_6 1_555 1_555
C14_4 C10_6 1_555 1_555
C15_4 C12_6 1_555 1_555
H6_4 C15_4 1_555 1_555
C16_4 C14_4 1_555 1_555
O12_2 C16_4 1_555 1_555
O14 C16_4 1_555 1_555
C6_4 C7_4 1_555 1_555
C14_4 C15_4 1_555 1_555
O1_4 C1_4 1_555 1_555
C3_7 H1_7 1_555 1_555
V6 O1_4 1_555 1_555
O11_2 V6 1_555 1_555
C4_4 C2_4 1_555 1_555
C5_7 C4_4 1_555 1_555
H2_4 C4_4 1_555 1_555
C9_4 C10_7 1_555 1_555
C10_7 H4_7 1_555 1_555
C11_4 C9_4 1_555 1_555
C12_7 C5_7 1_555 1_555
H5_4 C11_4 1_555 1_555
C13_4 C9_4 1_555 1_555
O11_2 C13_4 1_555 1_555
O15 C13_4 1_555 1_555
C11_4 C12_7 1_555 1_555
C3_8 H1_8 1_555 1_555
C10_8 H4_8 1_555 1_555
C12_8 C5_8 1_555 1_555
C3_9 H1_9 1_555 1_555
C10_9 H4_9 1_555 1_555
C12_9 C5_9 1_555 1_555

#END
