
###############################################################################
#
# This file contains modified crystal structure data generated from the
# MOF subset of the Cambridge Structural Database (CSD) v543 
# hosted by the Cambridge Crystallographic Data Centre (CCDC).
#
# This work is licensed under the Creative Commons
# Attribution-NonCommercial-ShareAlike 4.0 International License.
# To view a copy of this license, visit
# http://creativecommons.org/licenses/by-nc-sa/4.0/
# or send a letter to
# Creative Commons, PO Box 1866, Mountain View, CA 94042, USA.
#
# CIF created using the CSD Python API on 29 September 2022
# The structure has been converted into the P1 space group
# The structure has a 3D framework
# The original CSD entry FURHOS is in the monoclinic crystal system
# The framework has been calculated to contain at least 10.0% void space
# The void calculation uses a probe of radius 1.32A, grid spacing 0.4
# The framework is charged, counterions have been retained in the structure
#
###############################################################################

data_FURHOS
_chemical_formula_moiety         '(C72 H60 Cu8 N36 O28 4+)n'
_symmetry_cell_setting           triclinic
_symmetry_space_group_name_H-M   'P 1'
_symmetry_Int_Tables_number      1
_space_group_name_Hall           'P 1'
loop_
_symmetry_equiv_pos_site_id
_symmetry_equiv_pos_as_xyz
1 x,y,z
_cell_length_a                   13.836(4)
_cell_length_b                   22.511(5)
_cell_length_c                   13.976(4)
_cell_angle_alpha                90
_cell_angle_beta                 114.602(7)
_cell_angle_gamma                90
_cell_volume                     3957.84
loop_
_atom_site_label
_atom_site_type_symbol
_atom_site_fract_x
_atom_site_fract_y
_atom_site_fract_z
H7 H 0.0936 0.4676 0.0207
H8 H 0.0875 0.5383 0.0243
N17 N 0.0165(7) 0.4961(3) 0.1354(5)
C25 C 0.0442(7) 0.5437(3) 0.2008(5)
C26 C 0.0270(7) 0.4488(3) 0.1942(5)
N19 N 0.0679(4) 0.52597(19) 0.2957(4)
H24 H 0.0459 0.5828 0.1805
N20 N 0.0578(5) 0.46557(19) 0.2926(4)
H25 H 0.0146 0.4098 0.1701
Cu6 Cu 0.10873(5) 0.56954(2) 0.43122(5)
Cu7 Cu 0.08110(5) 0.41898(2) 0.42232(5)
Cu11 Cu 0.41890(5) 0.91898(2) 0.07768(5)
N3 N 0.0609(4) 0.38551(19) 0.6167(4)
N6 N 0.1178(4) 0.37701(17) 0.5577(3)
C9 C 0.0483(8) 0.5022(4) 0.9947(6)
N10 N 0.0987(4) 0.60608(19) 0.6287(3)
N12 N 0.1555(4) 0.60993(18) 0.5689(4)
C19 C 0.1468(5) 0.6407(3) 0.7097(5)
O8 O 0.0972(3) 0.49466(13) 0.4913(3)
O9 O 0.0853(4) 0.34443(16) 0.3474(3)
O10 O 0.2509(5) 0.3701(3) 0.3990(6)
C20 C 0.2341(5) 0.6464(2) 0.6169(5)
N15 N 0.2327(4) 0.6666(2) 0.7044(4)
H16 H 0.1250 0.6468 0.7636
O11 O 0.1429(4) 0.63890(16) 0.3651(3)
H17 H 0.2847 0.6569 0.5922
C22 C 0.2987(5) 0.7133(3) 0.7764(6)
C23 C 0.2388(6) 0.6403(3) 0.3733(6)
H20 H 0.3007 0.7076 0.8460
H21 H 0.3709 0.7110 0.7820
C24 C 0.2530(5) 0.7722(3) 0.7351(5)
O14 O 0.3066(5) 0.6048(2) 0.4247(5)
C27 C 0.2633(6) 0.6904(3) 0.3140(6)
N18 N 0.3164(4) 0.8191(2) 0.8064(4)
H22 H 0.1804 0.7741 0.7283
H23 H 0.2520 0.7780 0.6660
C28 C 0.3673(6) 0.7087(3) 0.3430(6)
C29 C 0.1827(7) 0.7169(3) 0.2307(6)
C30 C 0.3954(5) 0.8506(3) 0.8016(5)
C31 C 0.3101(5) 0.8370(2) 0.8948(5)
H26 H 0.4218 0.6888 0.3969
C32 C 0.3919(6) 0.7559(3) 0.2939(5)
C33 C 0.2063(7) 0.7640(4) 0.1807(7)
H27 H 0.1132 0.7035 0.2083
N23 N 0.4391(4) 0.88551(19) 0.8833(4)
H28 H 0.4171 0.8481 0.7470
N24 N 0.3822(4) 0.87701(17) 0.9423(3)
H29 H 0.2611 0.8229 0.9189
C34 C 0.3089(6) 0.7841(3) 0.2118(6)
C35 C 0.5093(6) 0.7742(3) 0.3364(7)
H30 H 0.1516 0.7824 0.1246
Cu10 Cu 0.60873(5) 0.93046(2) 0.93122(5)
C36 C 0.3241(6) 0.8360(3) 0.1500(6)
O15 O 0.5355(5) 0.8208(2) 0.3909(4)
O16 O 0.5719(5) 0.7410(3) 0.3204(6)
O17 O 0.4147(4) 0.84443(16) 0.1526(3)
O18 O 0.2491(5) 0.8701(3) 0.1010(6)
C21 C 0.9517(8) 0.4978(4) 0.0053(6)
Cu1 Cu 0.89127(5) 0.43046(2) 0.56878(5)
O1 O 0.8571(4) 0.36110(16) 0.6349(3)
O2 O 0.9028(3) 0.50534(13) 0.5087(3)
N1 N 0.9321(4) 0.47403(19) 0.7043(4)
N2 N 0.8445(4) 0.39007(18) 0.4311(4)
C1 C 0.7612(6) 0.3597(3) 0.6267(6)
Cu2 Cu 0.91890(5) 0.58102(2) 0.57768(5)
N4 N 0.9422(5) 0.53443(19) 0.7074(4)
C2 C 0.9558(7) 0.4563(3) 0.7992(5)
N5 N 0.9013(4) 0.39392(19) 0.3713(3)
C3 C 0.7659(5) 0.3536(2) 0.3831(5)
O3 O 0.6934(5) 0.3952(2) 0.5753(5)
C4 C 0.7367(6) 0.3096(3) 0.6860(6)
O4 O 0.9147(4) 0.65557(16) 0.6526(3)
O5 O 0.7491(5) 0.6299(3) 0.6010(6)
C5 C 0.9730(7) 0.5512(3) 0.8058(5)
N7 N 0.9835(7) 0.5039(3) 0.8646(5)
H1 H 0.9541 0.4172 0.8195
C6 C 0.8532(5) 0.3593(3) 0.2903(5)
N8 N 0.7673(4) 0.3334(2) 0.2956(4)
H2 H 0.7153 0.3431 0.4078
C7 C 0.6327(6) 0.2913(3) 0.6570(6)
C8 C 0.8173(7) 0.2831(3) 0.7693(6)
H3 H 0.9854 0.5902 0.8299
H4 H 0.8750 0.3532 0.2364
C10 C 0.7013(5) 0.2867(3) 0.2236(6)
H5 H 0.5782 0.3112 0.6031
C11 C 0.6081(6) 0.2441(3) 0.7061(5)
C12 C 0.7937(7) 0.2360(4) 0.8193(7)
H6 H 0.8868 0.2965 0.7917
H9 H 0.6993 0.2924 0.1540
H10 H 0.6291 0.2890 0.2180
C13 C 0.7470(5) 0.2278(3) 0.2649(5)
C14 C 0.6911(6) 0.2159(3) 0.7882(6)
C15 C 0.4907(6) 0.2258(3) 0.6636(7)
H11 H 0.8484 0.2176 0.8754
N9 N 0.6836(4) 0.1809(2) 0.1936(4)
H12 H 0.8196 0.2259 0.2717
H13 H 0.7480 0.2220 0.3340
C16 C 0.6759(6) 0.1640(3) 0.8500(6)
O6 O 0.4645(5) 0.1792(2) 0.6091(4)
O7 O 0.4281(5) 0.2590(3) 0.6796(6)
C17 C 0.6046(5) 0.1494(3) 0.1984(5)
C18 C 0.6899(5) 0.1630(2) 0.1052(5)
H14 H 0.5829 0.1519 0.2530
H15 H 0.7389 0.1771 0.0811
N11 N 0.8822(4) 0.62299(17) 0.4423(3)
N13 N 0.9391(4) 0.61449(19) 0.3833(4)
H18 H 0.9064 0.5324 0.9793
H19 H 0.9125 0.4617 0.9757
O12 O 0.5853(4) 0.15557(16) 0.8474(3)
O13 O 0.7509(5) 0.1299(3) 0.8990(6)
N21 N 0.5609(4) 0.11449(19) 0.1167(4)
N22 N 0.6178(4) 0.12299(17) 0.0577(3)
Cu5 Cu 0.58110(5) 0.08102(2) 0.92232(5)
Cu8 Cu 0.39127(5) 0.06954(2) 0.06878(5)
N16 N 0.4321(4) 0.02597(19) 0.2043(4)
O11_2 O 0.3571(4) 0.13890(16) 0.1349(3)
C23_2 C 0.2612(6) 0.1403(3) 0.1267(6)
O14_2 O 0.1934(5) 0.1048(2) 0.0753(5)
C27_2 C 0.2367(6) 0.1904(3) 0.1860(6)
C28_2 C 0.1327(6) 0.2087(3) 0.1570(6)
C29_2 C 0.3173(7) 0.2169(3) 0.2693(6)
H26_2 H 0.0782 0.1888 0.1031
C32_2 C 0.1081(6) 0.2559(3) 0.2061(5)
C33_2 C 0.2937(7) 0.2640(4) 0.3193(7)
H27_2 H 0.3868 0.2035 0.2917
C34_2 C 0.1911(6) 0.2841(3) 0.2882(6)
H30_2 H 0.3484 0.2824 0.3754
C36_2 C 0.1759(6) 0.3360(3) 0.3500(6)
O2_2 O 0.5972(3) 0.00534(13) 0.9913(3)
N4_2 N 0.5578(5) 0.03443(19) 0.7926(4)
C5_2 C 0.5270(7) 0.0512(3) 0.6942(5)
N7_2 N 0.5165(7) 0.0039(3) 0.6354(5)
H3_2 H 0.5146 0.0902 0.6701
C9_2 C 0.4517(8) 0.0022(4) 0.5053(6)
H8_2 H 0.4125 0.0383 0.4757
N10_2 N 0.4013(4) 0.10608(19) 0.8713(3)
N12_2 N 0.3445(4) 0.10993(18) 0.9311(4)
C19_2 C 0.3532(5) 0.1407(3) 0.7903(5)
C20_2 C 0.2659(5) 0.1464(2) 0.8831(5)
N15_2 N 0.2673(4) 0.1666(2) 0.7956(4)
H16_2 H 0.3750 0.1468 0.7364
H17_2 H 0.2153 0.1569 0.9078
C22_2 C 0.2013(5) 0.2133(3) 0.7236(6)
H18_2 H 0.5936 0.0324 0.5207
H20_2 H 0.1993 0.2076 0.6540
H21_2 H 0.1291 0.2110 0.7180
C24_2 C 0.2470(5) 0.2722(3) 0.7649(5)
C25_2 C 0.4558(7) 0.0437(3) 0.2992(5)
N18_2 N 0.1836(4) 0.3191(2) 0.6936(4)
H22_2 H 0.3196 0.2741 0.7717
H23_2 H 0.2480 0.2780 0.8340
H24_2 H 0.4541 0.0828 0.3195
C30_2 C 0.1046(5) 0.3506(3) 0.6984(5)
C31_2 C 0.1899(5) 0.3370(2) 0.6052(5)
H28_2 H 0.0829 0.3481 0.7530
H29_2 H 0.2389 0.3229 0.5811
N2_2 N 0.6555(4) 0.89007(18) 0.0689(4)
N5_2 N 0.5987(4) 0.89392(19) 0.1287(3)
C3_2 C 0.7341(5) 0.8536(2) 0.1169(5)
C6_2 C 0.6468(5) 0.8593(3) 0.2097(5)
N8_2 N 0.7327(4) 0.8334(2) 0.2044(4)
H2_2 H 0.7847 0.8431 0.0922
H4_2 H 0.6250 0.8532 0.2636
C10_2 C 0.7987(5) 0.7867(3) 0.2764(6)
H9_2 H 0.8007 0.7924 0.3460
H10_2 H 0.8709 0.7890 0.2820
C13_2 C 0.7530(5) 0.7278(3) 0.2351(5)
N9_2 N 0.8164(4) 0.6809(2) 0.3064(4)
H12_2 H 0.6804 0.7259 0.2283
H13_2 H 0.7520 0.7220 0.1660
C17_2 C 0.8954(5) 0.6494(3) 0.3016(5)
C18_2 C 0.8101(5) 0.6630(2) 0.3948(5)
H14_2 H 0.9171 0.6519 0.2470
H15_2 H 0.7611 0.6771 0.4189
O8_2 O 0.4028(3) 0.99466(13) 0.0087(3)
N14 N 0.4422(5) 0.96557(19) 0.2074(4)
O1_2 O 0.6429(4) 0.86110(16) 0.8651(3)
N1_2 N 0.5679(4) 0.97403(19) 0.7957(4)
C1_2 C 0.7388(6) 0.8597(3) 0.8733(6)
C2_2 C 0.5442(7) 0.9563(3) 0.7008(5)
O3_2 O 0.8066(5) 0.8952(2) 0.9247(5)
C4_2 C 0.7633(6) 0.8096(3) 0.8140(6)
H1_2 H 0.5459 0.9172 0.6805
C7_2 C 0.8673(6) 0.7913(3) 0.8430(6)
C8_2 C 0.6827(7) 0.7831(3) 0.7307(6)
H5_2 H 0.9218 0.8112 0.8969
C11_2 C 0.8919(6) 0.7441(3) 0.7939(5)
C12_2 C 0.7063(7) 0.7360(4) 0.6807(7)
H6_2 H 0.6132 0.7965 0.7083
H7_2 H 0.4064 0.9676 0.4793
C14_2 C 0.8089(6) 0.7159(3) 0.7118(6)
H11_2 H 0.6516 0.7176 0.6246
C16_2 C 0.8241(6) 0.6640(3) 0.6500(6)
C21_2 C 0.5483(8) 0.9978(4) 0.4947(6)
N17_2 N 0.4835(7) 0.9961(3) 0.3646(5)
H19_2 H 0.5875 0.9617 0.5243
C26_2 C 0.4730(7) 0.9488(3) 0.3058(5)
H25_2 H 0.4854 0.9098 0.3299
C15_2 C 0.0093(6) 0.7258(3) 0.8364(7)
O6_2 O 0.0355(5) 0.6792(2) 0.8909(4)
O7_2 O 0.0719(5) 0.7590(3) 0.8204(6)
C35_2 C 0.9907(6) 0.2742(3) 0.1636(7)
O15_2 O 0.9645(5) 0.3208(2) 0.1091(4)
O16_2 O 0.9281(5) 0.2410(3) 0.1796(6)
loop_
_geom_bond_atom_site_label_1
_geom_bond_atom_site_label_2
_geom_bond_site_symmetry_1
_geom_bond_site_symmetry_2
C25 N17 1_555 1_555
C26 N17 1_555 1_555
N19 C25 1_555 1_555
H24 C25 1_555 1_555
N20 C26 1_555 1_555
H25 C26 1_555 1_555
Cu6 N19 1_555 1_555
Cu7 N20 1_555 1_555
N19 N20 1_555 1_555
N6 N3 1_555 1_555
N12 N10 1_555 1_555
C19 N10 1_555 1_555
O8 Cu7 1_555 1_555
O9 Cu7 1_555 1_555
O10 Cu7 1_555 1_555
Cu6 N12 1_555 1_555
C20 N12 1_555 1_555
N15 C19 1_555 1_555
H16 C19 1_555 1_555
O11 Cu6 1_555 1_555
H17 C20 1_555 1_555
C22 N15 1_555 1_555
C23 O11 1_555 1_555
H20 C22 1_555 1_555
H21 C22 1_555 1_555
C24 C22 1_555 1_555
O14 C23 1_555 1_555
C27 C23 1_555 1_555
N18 C24 1_555 1_555
H22 C24 1_555 1_555
H23 C24 1_555 1_555
C28 C27 1_555 1_555
C29 C27 1_555 1_555
C30 N18 1_555 1_555
C31 N18 1_555 1_555
H26 C28 1_555 1_555
C32 C28 1_555 1_555
C33 C29 1_555 1_555
H27 C29 1_555 1_555
N23 C30 1_555 1_555
H28 C30 1_555 1_555
N24 C31 1_555 1_555
H29 C31 1_555 1_555
C34 C32 1_555 1_555
C35 C32 1_555 1_555
H30 C33 1_555 1_555
Cu10 N23 1_555 1_555
C36 C34 1_555 1_555
O15 C35 1_555 1_555
O16 C35 1_555 1_555
O17 C36 1_555 1_555
O18 C36 1_555 1_555
Cu11 O17 1_555 1_555
N6 Cu7 1_555 1_555
O8 Cu6 1_555 1_555
C20 N15 1_555 1_555
C33 C34 1_555 1_555
N23 N24 1_555 1_555
O18 Cu11 1_555 1_555
Cu1 O1 1_555 1_555
O1 C1 1_555 1_555
O2 Cu1 1_555 1_555
N1 Cu1 1_555 1_555
N2 Cu1 1_555 1_555
C1 O3 1_555 1_555
Cu2 O2 1_555 1_555
N4 N1 1_555 1_555
C2 N1 1_555 1_555
N5 N2 1_555 1_555
C3 N2 1_555 1_555
C4 C1 1_555 1_555
O4 Cu2 1_555 1_555
O5 Cu2 1_555 1_555
C5 N4 1_555 1_555
N7 C2 1_555 1_555
H1 C2 1_555 1_555
C6 N5 1_555 1_555
N8 C3 1_555 1_555
H2 C3 1_555 1_555
C7 C4 1_555 1_555
C8 C4 1_555 1_555
H3 C5 1_555 1_555
H4 C6 1_555 1_555
C10 N8 1_555 1_555
H5 C7 1_555 1_555
C11 C7 1_555 1_555
C12 C8 1_555 1_555
H6 C8 1_555 1_555
H9 C10 1_555 1_555
H10 C10 1_555 1_555
C13 C10 1_555 1_555
C14 C11 1_555 1_555
C15 C11 1_555 1_555
H11 C12 1_555 1_555
N9 C13 1_555 1_555
H12 C13 1_555 1_555
H13 C13 1_555 1_555
C16 C14 1_555 1_555
O6 C15 1_555 1_555
O7 C15 1_555 1_555
C17 N9 1_555 1_555
C18 N9 1_555 1_555
H14 C17 1_555 1_555
H15 C18 1_555 1_555
N11 Cu2 1_555 1_555
N13 N11 1_555 1_555
O12 C16 1_555 1_555
O13 C16 1_555 1_555
N21 C17 1_555 1_555
N22 C18 1_555 1_555
Cu5 O12 1_555 1_555
Cu8 N21 1_555 1_555
Cu2 N4 1_555 1_555
C5 N7 1_555 1_555
C6 N8 1_555 1_555
C12 C14 1_555 1_555
O13 Cu5 1_555 1_555
N21 N22 1_555 1_555
O11_2 Cu8 1_555 1_555
C23_2 O11_2 1_555 1_555
O14_2 C23_2 1_555 1_555
C27_2 C23_2 1_555 1_555
C28_2 C27_2 1_555 1_555
C29_2 C27_2 1_555 1_555
H26_2 C28_2 1_555 1_555
C32_2 C28_2 1_555 1_555
C33_2 C29_2 1_555 1_555
H27_2 C29_2 1_555 1_555
C34_2 C32_2 1_555 1_555
H30_2 C33_2 1_555 1_555
C36_2 C34_2 1_555 1_555
O9 C36_2 1_555 1_555
O10 C36_2 1_555 1_555
Cu8 N16 1_555 1_555
C33_2 C34_2 1_555 1_555
Cu5 O2_2 1_555 1_555
C5_2 N4_2 1_555 1_555
H3_2 C5_2 1_555 1_555
C9_2 N7_2 1_555 1_555
H8_2 C9_2 1_555 1_555
N10_2 Cu5 1_555 1_555
N12_2 N10_2 1_555 1_555
C19_2 N10_2 1_555 1_555
C20_2 N12_2 1_555 1_555
N15_2 C19_2 1_555 1_555
H16_2 C19_2 1_555 1_555
H17_2 C20_2 1_555 1_555
C22_2 N15_2 1_555 1_555
H20_2 C22_2 1_555 1_555
H21_2 C22_2 1_555 1_555
C24_2 C22_2 1_555 1_555
N18_2 C24_2 1_555 1_555
H22_2 C24_2 1_555 1_555
H23_2 C24_2 1_555 1_555
N16 C25_2 1_555 1_555
H24_2 C25_2 1_555 1_555
C30_2 N18_2 1_555 1_555
C31_2 N18_2 1_555 1_555
N3 C30_2 1_555 1_555
H28_2 C30_2 1_555 1_555
N6 C31_2 1_555 1_555
H29_2 C31_2 1_555 1_555
Cu5 N4_2 1_555 1_555
C5_2 N7_2 1_555 1_555
C20_2 N15_2 1_555 1_555
N5_2 N2_2 1_555 1_555
C3_2 N2_2 1_555 1_555
C6_2 N5_2 1_555 1_555
N8_2 C3_2 1_555 1_555
H2_2 C3_2 1_555 1_555
H4_2 C6_2 1_555 1_555
C10_2 N8_2 1_555 1_555
H9_2 C10_2 1_555 1_555
H10_2 C10_2 1_555 1_555
C13_2 C10_2 1_555 1_555
N9_2 C13_2 1_555 1_555
H12_2 C13_2 1_555 1_555
H13_2 C13_2 1_555 1_555
C17_2 N9_2 1_555 1_555
C18_2 N9_2 1_555 1_555
H14_2 C17_2 1_555 1_555
H15_2 C18_2 1_555 1_555
Cu11 N5_2 1_555 1_555
O8_2 Cu11 1_555 1_555
N14 Cu11 1_555 1_555
N13 C17_2 1_555 1_555
N11 C18_2 1_555 1_555
C6_2 N8_2 1_555 1_555
Cu10 O1_2 1_555 1_555
O1_2 C1_2 1_555 1_555
N1_2 Cu10 1_555 1_555
C1_2 O3_2 1_555 1_555
C2_2 N1_2 1_555 1_555
C4_2 C1_2 1_555 1_555
H1_2 C2_2 1_555 1_555
C7_2 C4_2 1_555 1_555
C8_2 C4_2 1_555 1_555
H5_2 C7_2 1_555 1_555
C11_2 C7_2 1_555 1_555
C12_2 C8_2 1_555 1_555
H6_2 C8_2 1_555 1_555
C14_2 C11_2 1_555 1_555
H11_2 C12_2 1_555 1_555
C16_2 C14_2 1_555 1_555
N17_2 C21_2 1_555 1_555
H19_2 C21_2 1_555 1_555
C26_2 N17_2 1_555 1_555
O4 C16_2 1_555 1_555
O5 C16_2 1_555 1_555
N14 C26_2 1_555 1_555
H25_2 C26_2 1_555 1_555
C12_2 C14_2 1_555 1_555
O6_2 C15_2 1_555 1_555
O7_2 C15_2 1_555 1_555
O15_2 C35_2 1_555 1_555
O16_2 C35_2 1_555 1_555

#END
