
###############################################################################
#
# This file contains modified crystal structure data generated from the
# MOF subset of the Cambridge Structural Database (CSD) v543 
# hosted by the Cambridge Crystallographic Data Centre (CCDC).
#
# This work is licensed under the Creative Commons
# Attribution-NonCommercial-ShareAlike 4.0 International License.
# To view a copy of this license, visit
# http://creativecommons.org/licenses/by-nc-sa/4.0/
# or send a letter to
# Creative Commons, PO Box 1866, Mountain View, CA 94042, USA.
#
# CIF created using the CSD Python API on 29 September 2022
# The structure has been converted into the P1 space group
# The structure has a 3D framework
# The original CSD entry FURKAG is in the monoclinic crystal system
# The framework has been calculated to contain at least 10.0% void space
# The void calculation uses a probe of radius 1.32A, grid spacing 0.4
#
###############################################################################

data_FURKAG
_chemical_formula_moiety         '(C80 H44 Cd2 N12 O24)n'
_symmetry_cell_setting           triclinic
_symmetry_space_group_name_H-M   'P 1'
_symmetry_Int_Tables_number      1
_space_group_name_Hall           'P 1'
loop_
_symmetry_equiv_pos_site_id
_symmetry_equiv_pos_as_xyz
1 x,y,z
_cell_length_a                   12.1488(3)
_cell_length_b                   14.6689(3)
_cell_length_c                   13.1615(3)
_cell_angle_alpha                90
_cell_angle_beta                 111.809(3)
_cell_angle_gamma                90
_cell_volume                     2177.63
loop_
_atom_site_label
_atom_site_type_symbol
_atom_site_fract_x
_atom_site_fract_y
_atom_site_fract_z
N2 N 0.3824(4) 0.9197(3) 0.7780(3)
C6 C 0.0075(6) 0.9077(4) 0.3923(5)
C7 C 0.0892(5) 0.9131(4) 0.4774(5)
C8 C 0.1886(5) 0.9159(4) 0.5803(5)
C9 C 0.1797(6) 0.8815(5) 0.6732(6)
H5 H 0.1073 0.8558 0.6716
C10 C 0.2783(5) 0.8848(5) 0.7701(5)
H6 H 0.2710 0.8608 0.8343
C11 C 0.3876(5) 0.9550(5) 0.6885(5)
H7 H 0.4596 0.9832 0.6927
C12 C 0.2935(6) 0.9535(5) 0.5870(5)
H8 H 0.3026 0.9783 0.5239
Cd2 Cd 0.55118(2) 0.89784(2) 0.93147(2)
O7 O 0.5754(3) 0.0567(3) 0.9375(3)
O8 O 0.6817(3) 0.8958(2) 0.8337(3)
O9 O 0.5860(4) 0.7691(3) 0.8336(4)
Cd1 Cd 0.94882(2) 0.39784(2) 0.56853(2)
N1 N 0.7861(3) 0.3962(3) 0.4083(3)
C1 C 0.7863(6) 0.3554(5) 0.3183(5)
H1 H 0.8560 0.3237 0.3227
C2 C 0.6917(6) 0.3558(5) 0.2182(5)
H2 H 0.6971 0.3248 0.1569
C3 C 0.5907(5) 0.4017(4) 0.2098(5)
C4 C 0.5882(6) 0.4420(6) 0.3019(6)
H3 H 0.5190 0.4732 0.3003
C5 C 0.6880(5) 0.4373(6) 0.3993(5)
H4 H 0.6838 0.4657 0.4626
C6_2 C 0.4925(6) 0.4077(4) 0.1077(5)
C7_2 C 0.4108(5) 0.4131(4) 0.0226(5)
O7_2 O 0.9246(3) 0.5567(3) 0.5625(3)
O8_2 O 0.8183(3) 0.3958(2) 0.6663(3)
O9_2 O 0.9140(4) 0.2691(3) 0.6664(4)
O1 O 0.5488(3) 0.1934(3) 0.9924(3)
O3 O 0.6740(4) 0.4671(3) 0.8137(4)
O4 O 0.8626(3) 0.4420(3) 0.8892(3)
N1_2 N 0.2861(3) 0.1038(3) 0.9083(3)
C1_2 C 0.2863(6) 0.1446(5) 0.8183(5)
H1_2 H 0.3560 0.1763 0.8227
C2_2 C 0.1917(6) 0.1442(5) 0.7182(5)
H2_2 H 0.1971 0.1752 0.6569
C3_2 C 0.0907(5) 0.0983(4) 0.7098(5)
C4_2 C 0.0882(6) 0.0580(6) 0.8019(6)
H3_2 H 0.0190 0.0268 0.8003
C5_2 C 0.1880(5) 0.0627(6) 0.8993(5)
H4_2 H 0.1838 0.0343 0.9626
C13 C 0.5889(4) 0.1407(3) 0.9401(3)
C14 C 0.6580(3) 0.1843(3) 0.8776(3)
C15 C 0.6733(4) 0.2783(3) 0.8828(4)
H9 H 0.6409 0.3147 0.9245
C16 C 0.7366(4) 0.3176(3) 0.8262(4)
C17 C 0.7830(4) 0.2683(3) 0.7613(4)
C18 C 0.7666(4) 0.1746(3) 0.7576(4)
H10 H 0.7981 0.1386 0.7148
C19 C 0.7053(4) 0.1319(3) 0.8148(4)
H11 H 0.6956 0.0676 0.8113
N3 N 0.7597(4) 0.4157(3) 0.8420(4)
C20 C 0.8432(4) 0.3137(3) 0.6932(4)
N2_2 N 0.8824(4) 0.5803(3) 0.2780(3)
C8_2 C 0.6886(5) 0.5841(4) 0.0803(5)
C9_2 C 0.6797(6) 0.6185(5) 0.1732(6)
H5_2 H 0.6073 0.6442 0.1716
C10_2 C 0.7783(5) 0.6152(5) 0.2701(5)
H6_2 H 0.7710 0.6392 0.3343
C11_2 C 0.8876(5) 0.5450(5) 0.1885(5)
H7_2 H 0.9596 0.5168 0.1927
C12_2 C 0.7935(6) 0.5465(5) 0.0870(5)
H8_2 H 0.8026 0.5217 0.0239
O1_2 O 0.9512(3) 0.6934(3) 0.5076(3)
O3_2 O 0.8260(4) 0.9671(3) 0.6863(4)
O4_2 O 0.6374(3) 0.9420(3) 0.6108(3)
C13_2 C 0.9111(4) 0.6407(3) 0.5599(3)
C14_2 C 0.8420(3) 0.6843(3) 0.6224(3)
C15_2 C 0.8267(4) 0.7783(3) 0.6172(4)
H9_2 H 0.8591 0.8147 0.5755
C16_2 C 0.7634(4) 0.8176(3) 0.6738(4)
C17_2 C 0.7170(4) 0.7683(3) 0.7387(4)
C18_2 C 0.7334(4) 0.6746(3) 0.7424(4)
H10_2 H 0.7019 0.6386 0.7852
C19_2 C 0.7947(4) 0.6319(3) 0.6852(4)
H11_2 H 0.8044 0.5676 0.6887
N3_2 N 0.7403(4) 0.9157(3) 0.6580(4)
C20_2 C 0.6568(4) 0.8137(3) 0.8068(4)
Cd3 Cd 0.44882(2) 0.10216(2) 0.06853(2)
O1_3 O 0.4512(3) 0.8066(3) 0.0076(3)
O2 O 0.4246(3) 0.9433(3) 0.0625(3)
O3_3 O 0.3260(4) 0.5329(3) 0.1863(4)
O4_3 O 0.1374(3) 0.5580(3) 0.1108(3)
O5 O 0.1817(3) 0.6042(2) 0.3337(3)
O6 O 0.0860(4) 0.7309(3) 0.3336(4)
N1_3 N 0.7139(3) 0.8962(3) 0.0917(3)
C1_3 C 0.7137(6) 0.8554(5) 0.1817(5)
H1_3 H 0.6440 0.8237 0.1773
C2_3 C 0.8083(6) 0.8558(5) 0.2818(5)
H2_3 H 0.8029 0.8248 0.3431
C3_3 C 0.9093(5) 0.9017(4) 0.2902(5)
C4_3 C 0.9118(6) 0.9420(6) 0.1981(6)
H3_3 H 0.9810 0.9732 0.1997
C5_3 C 0.8120(5) 0.9373(6) 0.1007(5)
H4_3 H 0.8162 0.9657 0.0374
C13_3 C 0.4111(4) 0.8593(3) 0.0599(3)
C14_3 C 0.3420(3) 0.8157(3) 0.1224(3)
C15_3 C 0.3267(4) 0.7217(3) 0.1172(4)
H9_3 H 0.3591 0.6853 0.0755
C16_3 C 0.2634(4) 0.6824(3) 0.1738(4)
C17_3 C 0.2170(4) 0.7317(3) 0.2387(4)
C18_3 C 0.2334(4) 0.8254(3) 0.2424(4)
H10_3 H 0.2019 0.8614 0.2852
C19_3 C 0.2947(4) 0.8681(3) 0.1852(4)
H11_3 H 0.3044 0.9324 0.1887
N3_3 N 0.2403(4) 0.5843(3) 0.1580(4)
C20_3 C 0.1568(4) 0.6863(3) 0.3068(4)
Cd4 Cd 0.05118(2) 0.60216(2) 0.43147(2)
O1_4 O 0.0488(3) 0.3066(3) 0.4924(3)
O2_2 O 0.0754(3) 0.4433(3) 0.4375(3)
O3_4 O 0.1740(4) 0.0329(3) 0.3137(4)
O4_4 O 0.3626(3) 0.0580(3) 0.3892(3)
O5_2 O 0.3183(3) 0.1042(2) 0.1663(3)
O6_2 O 0.4140(4) 0.2309(3) 0.1664(4)
C13_4 C 0.0889(4) 0.3593(3) 0.4401(3)
C14_4 C 0.1580(3) 0.3157(3) 0.3776(3)
C15_4 C 0.1733(4) 0.2217(3) 0.3828(4)
H9_4 H 0.1409 0.1853 0.4245
C16_4 C 0.2366(4) 0.1824(3) 0.3262(4)
C17_4 C 0.2830(4) 0.2317(3) 0.2613(4)
C18_4 C 0.2666(4) 0.3254(3) 0.2576(4)
H10_4 H 0.2981 0.3614 0.2148
C19_4 C 0.2053(4) 0.3681(3) 0.3148(4)
H11_4 H 0.1956 0.4324 0.3113
N3_4 N 0.2597(4) 0.0843(3) 0.3420(4)
C20_4 C 0.3432(4) 0.1863(3) 0.1932(4)
N4 N 0.1176(4) 0.4197(3) 0.7220(3)
C8_3 C 0.3114(5) 0.4159(4) 0.9197(5)
C9_3 C 0.3203(6) 0.3815(5) 0.8268(6)
H5_3 H 0.3927 0.3558 0.8284
C10_3 C 0.2217(5) 0.3848(5) 0.7299(5)
H6_3 H 0.2290 0.3608 0.6657
C11_3 C 0.1124(5) 0.4550(5) 0.8115(5)
H7_3 H 0.0404 0.4832 0.8073
C12_3 C 0.2065(6) 0.4535(5) 0.9130(5)
H8_3 H 0.1974 0.4783 0.9761
N4_2 N 0.6176(4) 0.0803(3) 0.2220(3)
C6_3 C 0.9925(6) 0.0923(4) 0.6077(5)
C7_3 C 0.9108(5) 0.0869(4) 0.5226(5)
C8_4 C 0.8114(5) 0.0841(4) 0.4197(5)
C9_4 C 0.8203(6) 0.1185(5) 0.3268(6)
H5_4 H 0.8927 0.1442 0.3284
C10_4 C 0.7217(5) 0.1152(5) 0.2299(5)
H6_4 H 0.7290 0.1392 0.1657
C11_4 C 0.6124(5) 0.0450(5) 0.3115(5)
H7_4 H 0.5404 0.0168 0.3073
C12_4 C 0.7065(6) 0.0465(5) 0.4130(5)
H8_4 H 0.6974 0.0217 0.4761
N1_4 N 0.2139(3) 0.6038(3) 0.5917(3)
C1_4 C 0.2137(6) 0.6446(5) 0.6817(5)
H1_4 H 0.1440 0.6763 0.6773
C2_4 C 0.3083(6) 0.6442(5) 0.7818(5)
H2_4 H 0.3029 0.6752 0.8431
C3_4 C 0.4093(5) 0.5983(4) 0.7902(5)
C4_4 C 0.4118(6) 0.5580(6) 0.6981(6)
H3_4 H 0.4810 0.5268 0.6997
C5_4 C 0.3120(5) 0.5627(6) 0.6007(5)
H4_4 H 0.3162 0.5343 0.5374
C6_4 C 0.5075(6) 0.5923(4) 0.8923(5)
C7_4 C 0.5892(5) 0.5869(4) 0.9774(5)
loop_
_geom_bond_atom_site_label_1
_geom_bond_atom_site_label_2
_geom_bond_site_symmetry_1
_geom_bond_site_symmetry_2
N2 C10 1_555 1_555
C7 C6 1_555 1_555
C8 C7 1_555 1_555
C9 C8 1_555 1_555
H5 C9 1_555 1_555
C10 C9 1_555 1_555
H6 C10 1_555 1_555
C11 N2 1_555 1_555
H7 C11 1_555 1_555
C12 C8 1_555 1_555
H8 C12 1_555 1_555
Cd2 N2 1_555 1_555
C11 C12 1_555 1_555
O8 Cd2 1_555 1_555
O9 Cd2 1_555 1_555
N1 Cd1 1_555 1_555
C1 N1 1_555 1_555
H1 C1 1_555 1_555
C2 C1 1_555 1_555
H2 C2 1_555 1_555
C3 C2 1_555 1_555
C4 C3 1_555 1_555
H3 C4 1_555 1_555
C5 N1 1_555 1_555
H4 C5 1_555 1_555
C6_2 C3 1_555 1_555
C7_2 C6_2 1_555 1_555
O7_2 Cd1 1_555 1_555
O8_2 Cd1 1_555 1_555
O9_2 Cd1 1_555 1_555
C4 C5 1_555 1_555
O1 C13 1_555 1_555
O3 N3 1_555 1_555
O4 N3 1_555 1_555
O8_2 C20 1_555 1_555
O9_2 C20 1_555 1_555
C1_2 N1_2 1_555 1_555
H1_2 C1_2 1_555 1_555
C2_2 C1_2 1_555 1_555
H2_2 C2_2 1_555 1_555
C3_2 C2_2 1_555 1_555
C4_2 C3_2 1_555 1_555
H3_2 C4_2 1_555 1_555
C5_2 N1_2 1_555 1_555
H4_2 C5_2 1_555 1_555
C13 O7 1_555 1_555
C14 C13 1_555 1_555
C15 C14 1_555 1_555
H9 C15 1_555 1_555
C16 C15 1_555 1_555
C17 C16 1_555 1_555
C18 C17 1_555 1_555
H10 C18 1_555 1_555
C19 C14 1_555 1_555
H11 C19 1_555 1_555
N3 C16 1_555 1_555
C20 C17 1_555 1_555
C4_2 C5_2 1_555 1_555
C18 C19 1_555 1_555
N2_2 C10_2 1_555 1_555
C9_2 C8_2 1_555 1_555
H5_2 C9_2 1_555 1_555
C10_2 C9_2 1_555 1_555
H6_2 C10_2 1_555 1_555
C11_2 N2_2 1_555 1_555
H7_2 C11_2 1_555 1_555
C12_2 C8_2 1_555 1_555
H8_2 C12_2 1_555 1_555
C11_2 C12_2 1_555 1_555
O1_2 C13_2 1_555 1_555
O3_2 N3_2 1_555 1_555
O4_2 N3_2 1_555 1_555
O8 C20_2 1_555 1_555
O9 C20_2 1_555 1_555
C13_2 O7_2 1_555 1_555
C14_2 C13_2 1_555 1_555
C15_2 C14_2 1_555 1_555
H9_2 C15_2 1_555 1_555
C16_2 C15_2 1_555 1_555
C17_2 C16_2 1_555 1_555
C18_2 C17_2 1_555 1_555
H10_2 C18_2 1_555 1_555
C19_2 C14_2 1_555 1_555
H11_2 C19_2 1_555 1_555
N3_2 C16_2 1_555 1_555
C20_2 C17_2 1_555 1_555
C18_2 C19_2 1_555 1_555
O1_3 C13_3 1_555 1_555
O3_3 N3_3 1_555 1_555
O4_3 N3_3 1_555 1_555
O5 C20_3 1_555 1_555
O6 C20_3 1_555 1_555
C1_3 N1_3 1_555 1_555
H1_3 C1_3 1_555 1_555
C2_3 C1_3 1_555 1_555
H2_3 C2_3 1_555 1_555
C3_3 C2_3 1_555 1_555
C4_3 C3_3 1_555 1_555
H3_3 C4_3 1_555 1_555
C5_3 N1_3 1_555 1_555
H4_3 C5_3 1_555 1_555
C13_3 O2 1_555 1_555
C14_3 C13_3 1_555 1_555
C15_3 C14_3 1_555 1_555
H9_3 C15_3 1_555 1_555
C16_3 C15_3 1_555 1_555
C17_3 C16_3 1_555 1_555
C18_3 C17_3 1_555 1_555
H10_3 C18_3 1_555 1_555
C19_3 C14_3 1_555 1_555
H11_3 C19_3 1_555 1_555
N3_3 C16_3 1_555 1_555
C20_3 C17_3 1_555 1_555
Cd4 O5 1_555 1_555
O6 Cd4 1_555 1_555
C4_3 C5_3 1_555 1_555
C18_3 C19_3 1_555 1_555
O1_4 C13_4 1_555 1_555
O3_4 N3_4 1_555 1_555
O4_4 N3_4 1_555 1_555
O5_2 C20_4 1_555 1_555
O6_2 C20_4 1_555 1_555
C13_4 O2_2 1_555 1_555
C14_4 C13_4 1_555 1_555
C15_4 C14_4 1_555 1_555
H9_4 C15_4 1_555 1_555
C16_4 C15_4 1_555 1_555
C17_4 C16_4 1_555 1_555
C18_4 C17_4 1_555 1_555
H10_4 C18_4 1_555 1_555
C19_4 C14_4 1_555 1_555
H11_4 C19_4 1_555 1_555
N3_4 C16_4 1_555 1_555
C20_4 C17_4 1_555 1_555
Cd4 O2_2 1_555 1_555
Cd3 O5_2 1_555 1_555
O6_2 Cd3 1_555 1_555
C18_4 C19_4 1_555 1_555
N4 C10_3 1_555 1_555
C9_3 C8_3 1_555 1_555
H5_3 C9_3 1_555 1_555
C10_3 C9_3 1_555 1_555
H6_3 C10_3 1_555 1_555
C11_3 N4 1_555 1_555
H7_3 C11_3 1_555 1_555
C12_3 C8_3 1_555 1_555
H8_3 C12_3 1_555 1_555
C11_3 C12_3 1_555 1_555
N4_2 Cd3 1_555 1_555
N4_2 C10_4 1_555 1_555
C7_3 C6_3 1_555 1_555
C8_4 C7_3 1_555 1_555
C9_4 C8_4 1_555 1_555
H5_4 C9_4 1_555 1_555
C10_4 C9_4 1_555 1_555
H6_4 C10_4 1_555 1_555
C11_4 N4_2 1_555 1_555
H7_4 C11_4 1_555 1_555
C12_4 C8_4 1_555 1_555
H8_4 C12_4 1_555 1_555
C11_4 C12_4 1_555 1_555
N1_4 Cd4 1_555 1_555
C1_4 N1_4 1_555 1_555
H1_4 C1_4 1_555 1_555
C2_4 C1_4 1_555 1_555
H2_4 C2_4 1_555 1_555
C3_4 C2_4 1_555 1_555
C4_4 C3_4 1_555 1_555
H3_4 C4_4 1_555 1_555
C5_4 N1_4 1_555 1_555
H4_4 C5_4 1_555 1_555
C6_4 C3_4 1_555 1_555
C7_4 C6_4 1_555 1_555
C4_4 C5_4 1_555 1_555

#END
