
###############################################################################
#
# This file contains modified crystal structure data generated from the
# MOF subset of the Cambridge Structural Database (CSD) v543 
# hosted by the Cambridge Crystallographic Data Centre (CCDC).
#
# This work is licensed under the Creative Commons
# Attribution-NonCommercial-ShareAlike 4.0 International License.
# To view a copy of this license, visit
# http://creativecommons.org/licenses/by-nc-sa/4.0/
# or send a letter to
# Creative Commons, PO Box 1866, Mountain View, CA 94042, USA.
#
# CIF created using the CSD Python API on 29 September 2022
# The structure has been converted into the P1 space group
# The structure has a 3D framework
# The original CSD entry FUSGOR is in the monoclinic crystal system
# The framework has been calculated to contain at least 10.0% void space
# The void calculation uses a probe of radius 1.32A, grid spacing 0.4
#
###############################################################################

data_FUSGOR
_chemical_formula_moiety         '(C18 H16 Co12 N8 O14)n'
_symmetry_cell_setting           triclinic
_symmetry_space_group_name_H-M   'P 1'
_symmetry_Int_Tables_number      1
_space_group_name_Hall           'P 1'
loop_
_symmetry_equiv_pos_site_id
_symmetry_equiv_pos_as_xyz
1 x,y,z
_cell_length_a                   10.1792(15)
_cell_length_b                   6.7279(9)
_cell_length_c                   12.8158(18)
_cell_angle_alpha                90
_cell_angle_beta                 111.698(4)
_cell_angle_gamma                90
_cell_volume                     815.497
loop_
_atom_site_label
_atom_site_type_symbol
_atom_site_fract_x
_atom_site_fract_y
_atom_site_fract_z
Co6 Co 0.0000 0.5000 -0.0000
Co8 Co 0.0000 0.0000 -0.0000
Co3 Co 0.13120(5) 0.2500 0.26600(4)
Co6_2 Co 0.0000 0.5000 1.0000
Co8_2 Co 0.0000 0.0000 1.0000
Co8_3 Co 0.0000 1.0000 -0.0000
Co8_4 Co -0.0000 1.0000 1.0000
Co6_3 Co 1.0000 0.5000 -0.0000
Co8_5 Co 1.0000 0.0000 -0.0000
C1 C 0.3937(4) 0.2500 0.3416(3)
C2 C 0.5521(4) 0.2500 0.3915(3)
C3 C 0.6302(4) 0.2500 0.3228(3)
H1 H 0.5842 0.2500 0.2452
C4 C 0.7773(4) 0.2500 0.3700(3)
C5 C 0.8457(4) 0.2500 0.4864(3)
H2 H 0.9439 0.2500 0.5181
C6 C 0.7676(4) 0.2500 0.5554(3)
C7 C 0.6207(4) 0.2500 0.5080(3)
H3 H 0.5683 0.2500 0.5540
C8 C 0.8630(4) 0.2500 0.2953(3)
C9 C 0.8396(3) 0.2500 0.6793(3)
N1 N 0.8751(2) 0.4142(3) 0.74262(16)
N2 N 0.9349(2) 0.3459(3) 0.84777(17)
O1 O 0.3306(3) 0.2500 0.2363(2)
O2 O 0.3246(3) 0.2500 0.4046(2)
O3 O 0.8008(4) 0.2500 0.1924(3)
O4 O 0.9940(3) 0.2500 0.3440(2)
O5 O 0.0052(3) 0.2500 0.09537(19)
O6 O 0.2187(3) 0.4655(5) 0.0253(2)
H5 H 0.2550 0.5753 0.0288
H6 H 0.2830 0.3767 0.0339
N3 N 0.8751(2) 0.0858(3) 0.74262(16)
N4 N 0.9349(2) 0.1541(3) 0.84777(17)
Co5 Co 0.86880(5) 0.7500 0.73400(4)
Co6_4 Co 1.0000 0.5000 1.0000
Co8_6 Co 1.0000 0.0000 1.0000
N6 N 0.1249(2) 0.5858(3) 0.25738(16)
N8 N 0.0651(2) 0.6541(3) 0.15223(17)
Co8_7 Co 1.0000 1.0000 -0.0000
Co8_8 Co 1.0000 1.0000 1.0000
N5 N 0.1249(2) 0.9142(3) 0.25738(16)
H4 H 0.939(5) 0.2500 0.108(4)
O7 O 0.7813(3) 0.5345(5) 0.9747(2)
H7 H 0.7450 0.4247 0.9712
H8 H 0.7170 0.6233 0.9661
O9 O 0.9948(3) 0.7500 0.90463(19)
O7_2 O 0.2187(3) 0.0345(5) 0.0253(2)
H8_2 H 0.2830 0.1233 0.0339
H7_2 H 0.2550 0.9247 0.0288
N7 N 0.0651(2) 0.8459(3) 0.15223(17)
H4_2 H 0.061(5) 0.7500 0.892(4)
O8 O 0.0060(3) 0.7500 0.6560(2)
H5_2 H 0.7450 0.0753 0.9712
C1_2 C 0.6063(4) 0.7500 0.6584(3)
C2_2 C 0.4479(4) 0.7500 0.6085(3)
C3_2 C 0.3698(4) 0.7500 0.6772(3)
H1_2 H 0.4158 0.7500 0.7548
C4_2 C 0.2227(4) 0.7500 0.6300(3)
C5_2 C 0.1543(4) 0.7500 0.5136(3)
H2_2 H 0.0561 0.7500 0.4819
C6_2 C 0.2324(4) 0.7500 0.4446(3)
C7_2 C 0.3793(4) 0.7500 0.4920(3)
H3_2 H 0.4317 0.7500 0.4460
C8_2 C 0.1370(4) 0.7500 0.7047(3)
C9_2 C 0.1604(3) 0.7500 0.3207(3)
O1_2 O 0.6694(3) 0.7500 0.7637(2)
O2_2 O 0.6754(3) 0.7500 0.5954(2)
O3_2 O 0.1992(4) 0.7500 0.8076(3)
O6_2 O 0.7813(3) 0.9655(5) 0.9747(2)
H6_2 H 0.7170 0.8767 0.9661
loop_
_geom_bond_atom_site_label_1
_geom_bond_atom_site_label_2
_geom_bond_site_symmetry_1
_geom_bond_site_symmetry_2
Co3 O1 1_555 1_555
Co6 O5 1_555 1_555
C1 C2 1_555 1_555
C2 C3 1_555 1_555
C3 H1 1_555 1_555
C4 C3 1_555 1_555
C5 C4 1_555 1_555
H2 C5 1_555 1_555
C6 C5 1_555 1_555
C7 C2 1_555 1_555
H3 C7 1_555 1_555
C8 C4 1_555 1_555
C9 C6 1_555 1_555
N1 C9 1_555 1_555
N2 N1 1_555 1_555
O1 C1 1_555 1_555
O2 Co3 1_555 1_555
O3 C8 1_555 1_555
O4 C8 1_555 1_555
O5 Co3 1_555 1_555
O6 Co6 1_555 1_555
H5 O6 1_555 1_555
H6 O6 1_555 1_555
N3 C9 1_555 1_555
N4 N2 1_555 1_555
Co5 N1 1_555 1_555
Co6_4 N2 1_555 1_555
Co8 O5 1_555 1_555
Co8_6 N4 1_555 1_555
N6 Co3 1_555 1_555
N8 Co6 1_555 1_555
C1 O2 1_555 1_555
C6 C7 1_555 1_555
N3 N4 1_555 1_555
N6 N8 1_555 1_555
O7 Co6_4 1_555 1_555
H7 O7 1_555 1_555
H8 O7 1_555 1_555
O9 Co6_4 1_555 1_555
O7_2 Co8 1_555 1_555
H8_2 O7_2 1_555 1_555
N7 Co8_3 1_555 1_555
Co5 O1_2 1_555 1_555
Co8_8 O9 1_555 1_555
C1_2 C2_2 1_555 1_555
C2_2 C3_2 1_555 1_555
C3_2 H1_2 1_555 1_555
C4_2 C3_2 1_555 1_555
C5_2 C4_2 1_555 1_555
H2_2 C5_2 1_555 1_555
C6_2 C5_2 1_555 1_555
C7_2 C2_2 1_555 1_555
H3_2 C7_2 1_555 1_555
C8_2 C4_2 1_555 1_555
C9_2 C6_2 1_555 1_555
N5 C9_2 1_555 1_555
N7 N5 1_555 1_555
O1_2 C1_2 1_555 1_555
O2_2 Co5 1_555 1_555
O3_2 C8_2 1_555 1_555
O8 C8_2 1_555 1_555
O9 Co5 1_555 1_555
O6_2 Co8_8 1_555 1_555
H6_2 O6_2 1_555 1_555
N6 C9_2 1_555 1_555
N8 N7 1_555 1_555
C1_2 O2_2 1_555 1_555
C6_2 C7_2 1_555 1_555

#END
