
###############################################################################
#
# This file contains modified crystal structure data generated from the
# MOF subset of the Cambridge Structural Database (CSD) v543 
# hosted by the Cambridge Crystallographic Data Centre (CCDC).
#
# This work is licensed under the Creative Commons
# Attribution-NonCommercial-ShareAlike 4.0 International License.
# To view a copy of this license, visit
# http://creativecommons.org/licenses/by-nc-sa/4.0/
# or send a letter to
# Creative Commons, PO Box 1866, Mountain View, CA 94042, USA.
#
# CIF created using the CSD Python API on 29 September 2022
# The structure has been converted into the P1 space group
# The structure has a 3D framework
# The original CSD entry FUTZOK is in the monoclinic crystal system
# The framework has been calculated to contain at least 10.0% void space
# The void calculation uses a probe of radius 1.32A, grid spacing 0.4
# H atom positions have been added when not included in the experimental data
# Generated hydrogen atom positions removed from atoms on special positions
#
###############################################################################

data_FUTZOK
_chemical_formula_moiety         '(C62 H112 Gd8 N28 O64)n'
_symmetry_cell_setting           triclinic
_symmetry_space_group_name_H-M   'P 1'
_symmetry_Int_Tables_number      1
_space_group_name_Hall           'P 1'
loop_
_symmetry_equiv_pos_site_id
_symmetry_equiv_pos_as_xyz
1 x,y,z
_cell_length_a                   12.767(4)
_cell_length_b                   16.867(5)
_cell_length_c                   19.354(5)
_cell_angle_alpha                90
_cell_angle_beta                 130.276(14)
_cell_angle_gamma                90
_cell_volume                     3179.71
loop_
_atom_site_label
_atom_site_type_symbol
_atom_site_fract_x
_atom_site_fract_y
_atom_site_fract_z
Gd6 Gd 0.06646(2) 0.551310(12) 0.442540(14)
O11 O 0.0930(4) 0.4226(2) 0.7199(2)
O14 O 0.0665(4) 0.3229(2) 0.6385(2)
O18 O 0.0117(4) 0.5789(2) 0.6151(2)
O22 O 0.1361(3) 0.4669(2) 0.5790(2)
O1 O 0.4070(4) 0.0774(2) 0.2801(2)
O2 O 0.4335(4) 0.1771(2) 0.3615(2)
O3 O 0.0958(4) 0.3658(2) 0.0542(2)
O4 O 0.0117(4) 0.4211(2) 0.1151(2)
O5 O 0.2891(3) 0.5112(2) 0.0640(2)
O6 O 0.1361(3) 0.5331(2) 0.0790(2)
N1 N 0.5000 0.2767(3) 0.2500
N2 N 0.3903(4) 0.4000(2) 0.2312(3)
N3 N 0.2874(4) 0.2792(2) 0.2096(3)
N4 N 0.5000 0.5156(3) 0.2500
C1 C 0.3965(4) 0.3201(3) 0.2307(3)
C2 C 0.5000 0.4358(4) 0.2500
C3 C 0.2829(4) 0.1945(3) 0.1991(3)
H1 H 0.3024 0.1821 0.1594
H2 H 0.1904 0.1763 0.1695
C4 C 0.3817(5) 0.1489(3) 0.2862(3)
C5 C 0.1800(5) 0.3213(3) 0.2000(3)
H3 H 0.2219 0.3545 0.2529
H4 H 0.1225 0.2829 0.1990
C6 C 0.0886(5) 0.3732(3) 0.1154(3)
C7 C 0.3730(5) 0.5573(3) 0.2100(3)
H5 H 0.3882 0.6139 0.2125
H6 H 0.3440 0.5462 0.2446
C8 C 0.2600(4) 0.5321(3) 0.1116(3)
Gd2 Gd 0.43354(2) 0.051310(12) 0.057460(14)
Gd3 Gd 0.56646(2) 0.051310(12) 0.442540(14)
Gd5 Gd 0.93354(2) 0.448690(12) 0.557460(14)
O9 O 0.5930(4) 0.0774(2) 0.2199(2)
O12 O 0.5665(4) 0.1771(2) 0.1385(2)
O15 O 0.9042(4) 0.3658(2) 0.4458(2)
O16 O 0.9883(4) 0.4211(2) 0.3849(2)
O19 O 0.7109(3) 0.5112(2) 0.4360(2)
O20 O 0.8639(3) 0.5331(2) 0.4210(2)
O23 O 0.8234(4) 0.4785(3) 0.6200(3)
O24 O 0.7630(4) 0.3421(2) 0.5042(3)
N5 N 0.6097(4) 0.4000(2) 0.2688(3)
N6 N 0.7126(4) 0.2792(2) 0.2904(3)
C9 C 0.6035(4) 0.3201(3) 0.2693(3)
C10 C 0.7171(4) 0.1945(3) 0.3009(3)
H7 H 0.6976 0.1821 0.3406
H8 H 0.8096 0.1763 0.3305
C11 C 0.6183(5) 0.1489(3) 0.2138(3)
C12 C 0.8200(5) 0.3213(3) 0.3000(3)
H9 H 0.7781 0.3545 0.2471
H10 H 0.8775 0.2829 0.3010
C13 C 0.9114(5) 0.3732(3) 0.3846(3)
C14 C 0.6270(5) 0.5573(3) 0.2900(3)
H11 H 0.6118 0.6139 0.2875
H12 H 0.6560 0.5462 0.2554
C15 C 0.7400(4) 0.5321(3) 0.3884(3)
Gd1 Gd 0.06646(2) 0.448690(12) 0.942540(14)
O7 O 0.1766(4) 0.4785(3) 0.8800(3)
O8 O 0.2370(4) 0.3421(2) 0.9958(3)
Gd4 Gd 0.93354(2) 0.551310(12) 0.057460(14)
O10 O 0.9070(4) 0.4226(2) 0.7801(2)
O13 O 0.9335(4) 0.3229(2) 0.8615(2)
O17 O 0.9883(4) 0.5789(2) 0.8849(2)
O21 O 0.8639(3) 0.4669(2) 0.9210(2)
H20 H 0.310108 0.345507 0.0626117
N4_2 N 0.0000 0.0156(3) 0.2500
O18_2 O 0.5117(4) 0.0789(2) 0.6151(2)
O19_2 O 0.2109(3) 0.0112(2) 0.4360(2)
O20_2 O 0.3639(3) 0.0331(2) 0.4210(2)
C14_2 C 0.1270(5) 0.0573(3) 0.2900(3)
H11_2 H 0.1118 0.1139 0.2875
H12_2 H 0.1560 0.0462 0.2554
C15_2 C 0.2400(4) 0.0321(3) 0.3884(3)
H17 H 0.37607 0.0204664 0.666795
N1_2 N 0.0000 0.7767(3) 0.2500
C2_2 C 0.0000 0.9358(4) 0.2500
Gd5_2 Gd 0.43354(2) 0.948690(12) 0.557460(14)
O9_2 O 0.0930(4) 0.5774(2) 0.2199(2)
O11_2 O 0.5930(4) 0.9226(2) 0.7199(2)
O12_2 O 0.0665(4) 0.6771(2) 0.1385(2)
O14_2 O 0.5665(4) 0.8229(2) 0.6385(2)
O15_2 O 0.4042(4) 0.8658(2) 0.4458(2)
O16_2 O 0.4883(4) 0.9211(2) 0.3849(2)
O22_2 O 0.6361(3) 0.9669(2) 0.5790(2)
O23_2 O 0.3234(4) 0.9785(3) 0.6200(3)
O24_2 O 0.2630(4) 0.8421(2) 0.5042(3)
N5_2 N 0.1097(4) 0.9000(2) 0.2688(3)
N6_2 N 0.2126(4) 0.7792(2) 0.2904(3)
C9_2 C 0.1035(4) 0.8201(3) 0.2693(3)
C10_2 C 0.2171(4) 0.6945(3) 0.3009(3)
H7_2 H 0.1976 0.6821 0.3406
H8_2 H 0.3096 0.6763 0.3305
C11_2 C 0.1183(5) 0.6489(3) 0.2138(3)
C12_2 C 0.3200(5) 0.8213(3) 0.3000(3)
H9_2 H 0.2781 0.8545 0.2471
H10_2 H 0.3775 0.7829 0.3010
C13_2 C 0.4114(5) 0.8732(3) 0.3846(3)
H18 H 0.228281 0.997289 0.570914
O5_2 O 0.7891(3) 0.0112(2) 0.0640(2)
O6_2 O 0.6361(3) 0.0331(2) 0.0790(2)
N4_3 N 1.0000 0.0156(3) 0.2500
C7_2 C 0.8730(5) 0.0573(3) 0.2100(3)
H5_2 H 0.8882 0.1139 0.2125
H6_2 H 0.8440 0.0462 0.2446
C8_2 C 0.7600(4) 0.0321(3) 0.1116(3)
O17_2 O 0.4883(4) 0.0789(2) 0.8849(2)
H16 H 0.62262 0.0194855 0.83211
O1_2 O 0.9070(4) 0.5774(2) 0.2801(2)
O2_2 O 0.9335(4) 0.6771(2) 0.3615(2)
O3_2 O 0.5958(4) 0.8658(2) 0.0542(2)
O4_2 O 0.5117(4) 0.9211(2) 0.1151(2)
N1_3 N 1.0000 0.7767(3) 0.2500
N2_2 N 0.8903(4) 0.9000(2) 0.2312(3)
N3_2 N 0.7874(4) 0.7792(2) 0.2096(3)
C1_2 C 0.8965(4) 0.8201(3) 0.2307(3)
C2_3 C 1.0000 0.9358(4) 0.2500
C3_2 C 0.7829(4) 0.6945(3) 0.1991(3)
H1_2 H 0.8024 0.6821 0.1594
H2_2 H 0.6904 0.6763 0.1695
C4_2 C 0.8817(5) 0.6489(3) 0.2862(3)
C5_2 C 0.6800(5) 0.8213(3) 0.2000(3)
H3_2 H 0.7219 0.8545 0.2529
H4_2 H 0.6225 0.7829 0.1990
C6_2 C 0.5886(5) 0.8732(3) 0.1154(3)
Gd1_2 Gd 0.56646(2) 0.948690(12) 0.942540(14)
O7_2 O 0.6766(4) 0.9785(3) 0.8800(3)
O8_2 O 0.7370(4) 0.8421(2) 0.9958(3)
O10_2 O 0.4070(4) 0.9226(2) 0.7801(2)
O13_2 O 0.4335(4) 0.8229(2) 0.8615(2)
O21_2 O 0.3639(3) 0.9669(2) 0.9210(2)
H15 H 0.681323 0.929619 0.853518
H16_2 H 0.37738 0.0194855 0.66789
H15_2 H 0.318677 0.929619 0.646482
H17_2 H 0.62393 0.0204664 0.833205
H20_2 H 0.810108 0.845507 0.0626117
H18_2 H 0.771719 0.997289 0.929086
O7_3 O 0.8234(4) 0.5215(3) 0.1200(3)
O8_3 O 0.7630(4) 0.6579(2) 0.0042(3)
O3_3 O 0.9042(4) 0.6342(2) 0.9458(2)
O5_3 O 0.7109(3) 0.4888(2) 0.9360(2)
N1_4 N 0.5000 0.7233(3) 0.7500
N2_3 N 0.6097(4) 0.6000(2) 0.7688(3)
N3_3 N 0.7126(4) 0.7208(2) 0.7904(3)
N4_4 N 0.5000 0.4844(3) 0.7500
C1_3 C 0.6035(4) 0.6799(3) 0.7693(3)
C2_4 C 0.5000 0.5642(4) 0.7500
C3_3 C 0.7171(4) 0.8055(3) 0.8009(3)
H1_3 H 0.6976 0.8179 0.8406
H2_3 H 0.8096 0.8237 0.8305
C4_3 C 0.6183(5) 0.8511(3) 0.7138(3)
C5_3 C 0.8200(5) 0.6787(3) 0.8000(3)
H3_3 H 0.7781 0.6455 0.7471
H4_3 H 0.8775 0.7171 0.8010
C6_3 C 0.9114(5) 0.6268(3) 0.8846(3)
C7_3 C 0.6270(5) 0.4427(3) 0.7900(3)
H5_3 H 0.6118 0.3861 0.7875
H6_3 H 0.6560 0.4538 0.7554
C8_3 C 0.7400(4) 0.4679(3) 0.8884(3)
O15_3 O 0.0958(4) 0.6342(2) 0.5542(2)
O19_3 O 0.2891(3) 0.4888(2) 0.5640(2)
O23_3 O 0.1766(4) 0.5215(3) 0.3800(3)
O24_3 O 0.2370(4) 0.6579(2) 0.4958(3)
N5_3 N 0.3903(4) 0.6000(2) 0.7312(3)
N6_3 N 0.2874(4) 0.7208(2) 0.7096(3)
C9_3 C 0.3965(4) 0.6799(3) 0.7307(3)
C10_3 C 0.2829(4) 0.8055(3) 0.6991(3)
H7_3 H 0.3024 0.8179 0.6594
H8_3 H 0.1904 0.8237 0.6695
C11_3 C 0.3817(5) 0.8511(3) 0.7862(3)
C12_3 C 0.1800(5) 0.6787(3) 0.7000(3)
H9_3 H 0.2219 0.6455 0.7529
H10_3 H 0.1225 0.7171 0.6990
C13_3 C 0.0886(5) 0.6268(3) 0.6154(3)
C14_3 C 0.3730(5) 0.4427(3) 0.7100(3)
H11_3 H 0.3882 0.3861 0.7125
H12_3 H 0.3440 0.4538 0.7446
C15_3 C 0.2600(4) 0.4679(3) 0.6116(3)
H20_3 H 0.689892 0.654493 0.937388
O7_4 O 0.3234(4) 0.0215(3) 0.1200(3)
O8_4 O 0.2630(4) 0.1579(2) 0.0042(3)
H15_3 H 0.318677 0.0703811 0.146482
O3_4 O 0.4042(4) 0.1342(2) 0.9458(2)
N1_5 N 0.0000 0.2233(3) 0.7500
N2_4 N 0.1097(4) 0.1000(2) 0.7688(3)
N3_4 N 0.2126(4) 0.2208(2) 0.7904(3)
C1_4 C 0.1035(4) 0.1799(3) 0.7693(3)
C2_5 C -0.0000 0.0642(4) 0.7500
C3_4 C 0.2171(4) 0.3055(3) 0.8009(3)
H1_4 H 0.1976 0.3179 0.8406
H2_4 H 0.3096 0.3237 0.8305
C4_4 C 0.1183(5) 0.3511(3) 0.7138(3)
C5_4 C 0.3200(5) 0.1787(3) 0.8000(3)
H3_4 H 0.2781 0.1455 0.7471
H4_4 H 0.3775 0.2171 0.8010
C6_4 C 0.4114(5) 0.1268(3) 0.8846(3)
H16_3 H 0.37738 0.980515 0.16789
O5_4 O 0.2109(3) 0.9888(2) 0.9360(2)
N4_5 N -0.0000 0.9844(3) 0.7500
C7_4 C 0.1270(5) 0.9427(3) 0.7900(3)
H5_4 H 0.1118 0.8861 0.7875
H6_4 H 0.1560 0.9538 0.7554
C8_4 C 0.2400(4) 0.9679(3) 0.8884(3)
N1_6 N 1.0000 0.2233(3) 0.7500
C2_6 C 1.0000 0.0642(4) 0.7500
O15_4 O 0.5958(4) 0.1342(2) 0.5542(2)
O23_4 O 0.6766(4) 0.0215(3) 0.3800(3)
O24_4 O 0.7370(4) 0.1579(2) 0.4958(3)
N5_4 N 0.8903(4) 0.1000(2) 0.7312(3)
N6_4 N 0.7874(4) 0.2208(2) 0.7096(3)
C9_4 C 0.8965(4) 0.1799(3) 0.7307(3)
C10_4 C 0.7829(4) 0.3055(3) 0.6991(3)
H7_4 H 0.8024 0.3179 0.6594
H8_4 H 0.6904 0.3237 0.6695
C11_4 C 0.8817(5) 0.3511(3) 0.7862(3)
C12_4 C 0.6800(5) 0.1787(3) 0.7000(3)
H9_4 H 0.7219 0.1455 0.7529
H10_4 H 0.6225 0.2171 0.6990
C13_4 C 0.5886(5) 0.1268(3) 0.6154(3)
H18_3 H 0.771719 0.00271134 0.429086
N4_6 N 1.0000 0.9844(3) 0.7500
O19_4 O 0.7891(3) 0.9888(2) 0.5640(2)
C14_4 C 0.8730(5) 0.9427(3) 0.7100(3)
H11_4 H 0.8882 0.8861 0.7125
H12_4 H 0.8440 0.9538 0.7446
C15_4 C 0.7600(4) 0.9679(3) 0.6116(3)
H17_3 H 0.62393 0.979534 0.333205
H18_4 H 0.228281 0.00271134 0.0709137
H20_4 H 0.189892 0.154493 0.937388
H17_4 H 0.37607 0.979534 0.166795
H15_4 H 0.681323 0.0703811 0.353518
H16_4 H 0.62262 0.980515 0.33211
loop_
_geom_bond_atom_site_label_1
_geom_bond_atom_site_label_2
_geom_bond_site_symmetry_1
_geom_bond_site_symmetry_2
Gd6 O22 1_555 1_555
O1 C4 1_555 1_555
O2 C4 1_555 1_555
O3 C6 1_555 1_555
O4 C6 1_555 1_555
N1 C1 1_555 1_555
N2 C1 1_555 1_555
N3 C1 1_555 1_555
N4 C2 1_555 1_555
C2 N2 1_555 1_555
C3 N3 1_555 1_555
H1 C3 1_555 1_555
H2 C3 1_555 1_555
C4 C3 1_555 1_555
C5 N3 1_555 1_555
H3 C5 1_555 1_555
H4 C5 1_555 1_555
C6 C5 1_555 1_555
C7 N4 1_555 1_555
H5 C7 1_555 1_555
H6 C7 1_555 1_555
C8 O5 1_555 1_555
Gd2 O9 1_555 1_555
Gd3 O1 1_555 1_555
O9 C11 1_555 1_555
O12 Gd2 1_555 1_555
O15 Gd5 1_555 1_555
O16 C13 1_555 1_555
O19 Gd5 1_555 1_555
O20 Gd5 1_555 1_555
O23 Gd5 1_555 1_555
O24 Gd5 1_555 1_555
N5 C2 1_555 1_555
N6 C9 1_555 1_555
C9 N1 1_555 1_555
C10 N6 1_555 1_555
H7 C10 1_555 1_555
H8 C10 1_555 1_555
C11 O12 1_555 1_555
C12 N6 1_555 1_555
H9 C12 1_555 1_555
H10 C12 1_555 1_555
C13 O15 1_555 1_555
C14 N4 1_555 1_555
H11 C14 1_555 1_555
H12 C14 1_555 1_555
C15 O19 1_555 1_555
O2 Gd3 1_555 1_555
O6 C8 1_555 1_555
C7 C8 1_555 1_555
O20 C15 1_555 1_555
N5 C9 1_555 1_555
C10 C11 1_555 1_555
C12 C13 1_555 1_555
C14 C15 1_555 1_555
O7 Gd1 1_555 1_555
O8 Gd1 1_555 1_555
C14_2 N4_2 1_555 1_555
H11_2 C14_2 1_555 1_555
H12_2 C14_2 1_555 1_555
C15_2 O19_2 1_555 1_555
Gd3 O20_2 1_555 1_555
O20_2 C15_2 1_555 1_555
C14_2 C15_2 1_555 1_555
Gd5_2 O11_2 1_555 1_555
O9_2 C11_2 1_555 1_555
O14_2 Gd5_2 1_555 1_555
O15_2 Gd5_2 1_555 1_555
O16_2 C13_2 1_555 1_555
O22_2 Gd5_2 1_555 1_555
O23_2 Gd5_2 1_555 1_555
O24_2 Gd5_2 1_555 1_555
N5_2 C2_2 1_555 1_555
N6_2 C9_2 1_555 1_555
C9_2 N1_2 1_555 1_555
C10_2 N6_2 1_555 1_555
H7_2 C10_2 1_555 1_555
H8_2 C10_2 1_555 1_555
C11_2 O12_2 1_555 1_555
C12_2 N6_2 1_555 1_555
H9_2 C12_2 1_555 1_555
H10_2 C12_2 1_555 1_555
C13_2 O15_2 1_555 1_555
N5_2 C9_2 1_555 1_555
C10_2 C11_2 1_555 1_555
C12_2 C13_2 1_555 1_555
O23_2 H18 1_555 1_555
C7_2 N4_3 1_555 1_555
H5_2 C7_2 1_555 1_555
H6_2 C7_2 1_555 1_555
C8_2 O5_2 1_555 1_555
O6_2 C8_2 1_555 1_555
O6_2 Gd2 1_555 1_555
C7_2 C8_2 1_555 1_555
O1_2 C4_2 1_555 1_555
O2_2 C4_2 1_555 1_555
O3_2 C6_2 1_555 1_555
O4_2 C6_2 1_555 1_555
N1_3 C1_2 1_555 1_555
N2_2 C1_2 1_555 1_555
N3_2 C1_2 1_555 1_555
C2_3 N2_2 1_555 1_555
C3_2 N3_2 1_555 1_555
H1_2 C3_2 1_555 1_555
H2_2 C3_2 1_555 1_555
C4_2 C3_2 1_555 1_555
C5_2 N3_2 1_555 1_555
H3_2 C5_2 1_555 1_555
H4_2 C5_2 1_555 1_555
C6_2 C5_2 1_555 1_555
O7_2 Gd1_2 1_555 1_555
O8_2 Gd1_2 1_555 1_555
O10_2 Gd1_2 1_555 1_555
O13_2 Gd1_2 1_555 1_555
O21_2 Gd1_2 1_555 1_555
O7_2 H15 1_555 1_555
O23_2 H15_2 1_555 1_555
O7_2 H18_2 1_555 1_555
O7_3 Gd4 1_555 1_555
O8_3 Gd4 1_555 1_555
O11_2 C4_3 1_555 1_555
O14_2 C4_3 1_555 1_555
O3_3 C6_3 1_555 1_555
O17 C6_3 1_555 1_555
N1_4 C1_3 1_555 1_555
N2_3 C1_3 1_555 1_555
N3_3 C1_3 1_555 1_555
N4_4 C2_4 1_555 1_555
C2_4 N2_3 1_555 1_555
C3_3 N3_3 1_555 1_555
H1_3 C3_3 1_555 1_555
H2_3 C3_3 1_555 1_555
C4_3 C3_3 1_555 1_555
C5_3 N3_3 1_555 1_555
H3_3 C5_3 1_555 1_555
H4_3 C5_3 1_555 1_555
C6_3 C5_3 1_555 1_555
C7_3 N4_4 1_555 1_555
H5_3 C7_3 1_555 1_555
H6_3 C7_3 1_555 1_555
C8_3 O5_3 1_555 1_555
O10_2 C11_3 1_555 1_555
O15_3 Gd6 1_555 1_555
O18 C13_3 1_555 1_555
O19_3 Gd6 1_555 1_555
O23_3 Gd6 1_555 1_555
O24_3 Gd6 1_555 1_555
N5_3 C2_4 1_555 1_555
N6_3 C9_3 1_555 1_555
C9_3 N1_4 1_555 1_555
C10_3 N6_3 1_555 1_555
H7_3 C10_3 1_555 1_555
H8_3 C10_3 1_555 1_555
C11_3 O13_2 1_555 1_555
C12_3 N6_3 1_555 1_555
H9_3 C12_3 1_555 1_555
H10_3 C12_3 1_555 1_555
C13_3 O15_3 1_555 1_555
C14_3 N4_4 1_555 1_555
H11_3 C14_3 1_555 1_555
H12_3 C14_3 1_555 1_555
C15_3 O19_3 1_555 1_555
O21 C8_3 1_555 1_555
C7_3 C8_3 1_555 1_555
O22 C15_3 1_555 1_555
N5_3 C9_3 1_555 1_555
C10_3 C11_3 1_555 1_555
C12_3 C13_3 1_555 1_555
C14_3 C15_3 1_555 1_555
O7_4 Gd2 1_555 1_555
O8_4 Gd2 1_555 1_555
O7_4 H15_3 1_555 1_555
O11 C4_4 1_555 1_555
O14 C4_4 1_555 1_555
O3_4 C6_4 1_555 1_555
O17_2 C6_4 1_555 1_555
N1_5 C1_4 1_555 1_555
N2_4 C1_4 1_555 1_555
N3_4 C1_4 1_555 1_555
C2_5 N2_4 1_555 1_555
C3_4 N3_4 1_555 1_555
H1_4 C3_4 1_555 1_555
H2_4 C3_4 1_555 1_555
C4_4 C3_4 1_555 1_555
C5_4 N3_4 1_555 1_555
H3_4 C5_4 1_555 1_555
H4_4 C5_4 1_555 1_555
C6_4 C5_4 1_555 1_555
C7_4 N4_5 1_555 1_555
H5_4 C7_4 1_555 1_555
H6_4 C7_4 1_555 1_555
C8_4 O5_4 1_555 1_555
O21_2 C8_4 1_555 1_555
C7_4 C8_4 1_555 1_555
O10 C11_4 1_555 1_555
O15_4 Gd3 1_555 1_555
O18_2 C13_4 1_555 1_555
O23_4 Gd3 1_555 1_555
O24_4 Gd3 1_555 1_555
N5_4 C2_6 1_555 1_555
N6_4 C9_4 1_555 1_555
C9_4 N1_6 1_555 1_555
C10_4 N6_4 1_555 1_555
H7_4 C10_4 1_555 1_555
H8_4 C10_4 1_555 1_555
C11_4 O13 1_555 1_555
C12_4 N6_4 1_555 1_555
H9_4 C12_4 1_555 1_555
H10_4 C12_4 1_555 1_555
C13_4 O15_4 1_555 1_555
N5_4 C9_4 1_555 1_555
C10_4 C11_4 1_555 1_555
C12_4 C13_4 1_555 1_555
O23_4 H18_3 1_555 1_555
C14_4 N4_6 1_555 1_555
H11_4 C14_4 1_555 1_555
H12_4 C14_4 1_555 1_555
C15_4 O19_4 1_555 1_555
O22_2 C15_4 1_555 1_555
C14_4 C15_4 1_555 1_555
O7_4 H18_4 1_555 1_555
O23_4 H15_4 1_555 1_555

#END
