
###############################################################################
#
# This file contains modified crystal structure data generated from the
# MOF subset of the Cambridge Structural Database (CSD) v543 
# hosted by the Cambridge Crystallographic Data Centre (CCDC).
#
# This work is licensed under the Creative Commons
# Attribution-NonCommercial-ShareAlike 4.0 International License.
# To view a copy of this license, visit
# http://creativecommons.org/licenses/by-nc-sa/4.0/
# or send a letter to
# Creative Commons, PO Box 1866, Mountain View, CA 94042, USA.
#
# CIF created using the CSD Python API on 29 September 2022
# The structure has been converted into the P1 space group
# The structure has a 3D framework
# The original CSD entry FUVVEA is in the orthorhombic crystal system
# The original CSD entry FUVVEA is in a Sohncke space group
# The framework has been calculated to contain at least 10.0% void space
# The void calculation uses a probe of radius 1.32A, grid spacing 0.4
#
###############################################################################

data_FUVVEA
_chemical_formula_moiety         '(C104 H84 Cd4 N20 O20)n'
_symmetry_cell_setting           triclinic
_symmetry_space_group_name_H-M   'P 1'
_symmetry_Int_Tables_number      1
_space_group_name_Hall           'P 1'
loop_
_symmetry_equiv_pos_site_id
_symmetry_equiv_pos_as_xyz
1 x,y,z
_cell_length_a                   13.46520(10)
_cell_length_b                   14.03390(10)
_cell_length_c                   16.58190(10)
_cell_angle_alpha                90
_cell_angle_beta                 90
_cell_angle_gamma                90
_cell_volume                     3133.47
loop_
_atom_site_label
_atom_site_type_symbol
_atom_site_fract_x
_atom_site_fract_y
_atom_site_fract_z
Cd2 Cd 0.54037(3) 0.12053(3) 0.39671(3)
N1 N 0.5720(5) 0.1126(5) 0.6610(4)
H1 H 0.545590 0.115916 0.709468
N2 N 0.5856(4) 0.1229(5) 0.5293(4)
N3 N 0.5291(5) 0.9536(4) 0.4088(4)
N4 N 0.5532(5) 0.2864(4) 0.3895(4)
C5 C 0.5461(6) 0.4863(5) 0.3777(4)
C6 C 0.4859(6) 0.4369(5) 0.4322(5)
H5 H 0.441247 0.470656 0.466147
C9 C 0.5192(6) 0.8110(5) 0.4878(5)
H6 H 0.514845 0.782685 0.539757
C10 C 0.5231(6) 0.9093(6) 0.4801(5)
H7 H 0.521459 0.947069 0.527670
C12 C 0.6662(5) 0.0828(5) 0.6427(5)
C13 C 0.4919(6) 0.3382(5) 0.4364(5)
H8 H 0.450800 0.305762 0.474023
C14 C 0.5440(6) 0.5902(5) 0.3684(4)
H9 H 0.561557 0.615957 0.317348
C15 C 0.5188(5) 0.6511(5) 0.4270(5)
H10 H 0.497648 0.625177 0.477027
C16 C 0.6099(6) 0.4326(5) 0.3298(5)
H11 H 0.652192 0.463068 0.291898
C17 C 0.7377(5) 0.0491(5) 0.7059(4)
H12 H 0.731270 0.090154 0.754178
H13 H 0.806303 0.056011 0.685203
C18 C 0.6743(6) 0.0891(5) 0.5606(5)
H14 H 0.731549 0.072975 0.530065
C19 C 0.5217(5) 0.7540(5) 0.4192(4)
C23 C 0.5324(6) 0.8984(5) 0.3422(5)
H18 H 0.537253 0.928950 0.291213
C24 C 0.6112(6) 0.3334(5) 0.3378(5)
H19 H 0.655402 0.297817 0.304870
C25 C 0.5290(6) 0.7999(5) 0.3440(5)
H20 H 0.531612 0.764011 0.295482
C26 C 0.5275(6) 0.1357(5) 0.5912(5)
H21 H 0.461267 0.158638 0.587389
O6 O 0.7233(4) 0.0805(4) 0.3676(3)
O7 O 0.4026(3) 0.1322(4) 0.3175(3)
O8 O 0.3487(4) 0.1486(4) 0.4433(3)
O9 O 0.6162(4) 0.1052(4) 0.2687(3)
O1 O 0.7767(4) 0.9195(4) 0.8676(3)
O2 O 0.5866(4) 0.8036(4) 0.6784(3)
O3 O 0.0974(3) 0.8678(4) 0.8175(3)
O4 O 0.1513(4) 0.8514(4) 0.9433(3)
O5 O 0.8838(4) 0.8948(4) 0.7687(3)
N5 N 0.6201(5) 0.9296(4) 0.7600(4)
H2 H 0.596624 0.968461 0.797030
C1 C 0.2701(6) 0.8489(5) 0.8358(5)
C2 C 0.4461(5) 0.8689(5) 0.8530(4)
H3 H 0.501311 0.882611 0.886691
C3 C 0.5614(5) 0.8590(5) 0.7331(4)
C4 C 0.3518(5) 0.8643(5) 0.8858(4)
H4 H 0.342779 0.871535 0.942259
C7 C 0.4608(6) 0.8535(5) 0.7710(5)
C8 C 0.1664(6) 0.8557(5) 0.8686(5)
C11 C 0.7997(6) 0.9169(5) 0.7940(5)
C20 C 0.3799(6) 0.8317(6) 0.7214(5)
H15 H 0.389747 0.817259 0.665964
C21 C 0.2846(6) 0.8314(5) 0.7542(5)
H16 H 0.229047 0.819148 0.720503
C22 C 0.7207(5) 0.9447(5) 0.7307(4)
H17 H 0.730658 0.903795 0.682000
Cd4 Cd 0.95963(3) 0.87947(3) 0.89671(3)
C1_2 C 0.2299(6) 0.1511(5) 0.3358(5)
C2_2 C 0.0539(5) 0.1311(5) 0.3530(4)
C4_2 C 0.1482(5) 0.1357(5) 0.3858(4)
H4_2 H 0.157221 0.128465 0.442259
C7_2 C 0.0392(6) 0.1465(5) 0.2710(5)
C8_2 C 0.3336(6) 0.1443(5) 0.3686(5)
C20_2 C 0.1201(6) 0.1683(6) 0.2214(5)
H15_2 H 0.110253 0.182741 0.165964
C21_2 C 0.2154(6) 0.1686(5) 0.2542(5)
H16_2 H 0.270953 0.180852 0.220503
C6_2 C 0.0141(6) 0.5631(5) 0.9322(5)
H5_2 H 0.058753 0.529344 0.966147
C13_2 C 0.0081(6) 0.6618(5) 0.9364(5)
H8_2 H 0.049200 0.694238 0.974023
H10_2 H 0.002352 0.374823 0.977027
O2_2 O 0.9134(4) 0.1964(4) 0.1784(3)
N5_2 N 0.8799(5) 0.0704(4) 0.2600(4)
H2_2 H 0.903376 0.031539 0.297030
H3_2 H 0.998689 0.117389 0.386691
C3_2 C 0.9386(5) 0.1410(5) 0.2331(4)
C11_2 C 0.7003(6) 0.0831(5) 0.2940(5)
C22_2 C 0.7793(5) 0.0553(5) 0.2307(4)
H17_2 H 0.769342 0.096205 0.182000
N6 N 0.9709(5) 0.0464(4) 0.9088(4)
N4_2 N 0.9468(5) 0.7136(4) 0.8895(4)
C5_2 C 0.9539(6) 0.5137(5) 0.8777(4)
C9_2 C 0.9808(6) 0.1890(5) 0.9878(5)
C10_2 C 0.9769(6) 0.0907(6) 0.9801(5)
C14_2 C 0.9560(6) 0.4098(5) 0.8684(4)
H9_2 H 0.938443 0.384043 0.817348
C15_2 C 0.9812(5) 0.3489(5) 0.9270(5)
C16_2 C 0.8901(6) 0.5674(5) 0.8298(5)
H11_2 H 0.847808 0.536932 0.791898
C19_2 C 0.9783(5) 0.2460(5) 0.9192(4)
C23_2 C 0.9676(6) 0.1016(5) 0.8422(5)
H18_2 H 0.962747 0.071050 0.791213
C24_2 C 0.8888(6) 0.6666(5) 0.8378(5)
H19_2 H 0.844598 0.702183 0.804870
C25_2 C 0.9710(6) 0.2001(5) 0.8440(5)
H20_2 H 0.968388 0.235989 0.795482
H21_2 H 0.038733 0.841362 0.087389
N1_2 N 0.9280(5) 0.8874(5) 0.1610(4)
H1_2 H 0.954410 0.884084 0.209468
N2_2 N 0.9144(4) 0.8771(5) 0.0293(4)
H6_2 H 0.985155 0.217315 0.039757
H7_2 H 0.978541 0.052931 0.027670
C12_2 C 0.8338(5) 0.9172(5) 0.1427(5)
C17_2 C 0.7623(5) 0.9509(5) 0.2059(4)
H12_2 H 0.768730 0.909846 0.254178
H13_2 H 0.693697 0.943989 0.185203
C18_2 C 0.8257(6) 0.9109(5) 0.0606(5)
H14_2 H 0.768451 0.927025 0.030065
C26_2 C 0.9725(6) 0.8643(5) 0.0912(5)
Cd3 Cd 0.04037(3) 0.37947(3) 0.60329(3)
N3_2 N 0.4709(5) 0.4536(4) 0.0912(4)
C9_3 C 0.4808(6) 0.3110(5) 0.0122(5)
C10_3 C 0.4769(6) 0.4093(6) 0.0199(5)
C14_3 C 0.4560(6) 0.0902(5) 0.1316(4)
H9_3 H 0.438443 0.115957 0.182652
C15_3 C 0.4812(5) 0.1511(5) 0.0730(5)
H10_3 H 0.502352 0.125177 0.022973
C19_3 C 0.4783(5) 0.2540(5) 0.0808(4)
C23_3 C 0.4676(6) 0.3984(5) 0.1578(5)
H18_3 H 0.462747 0.428950 0.208787
C25_3 C 0.4710(6) 0.2999(5) 0.1560(5)
H20_3 H 0.468388 0.264011 0.204518
Cd2_2 Cd 0.45963(3) 0.62053(3) 0.10329(3)
N4_3 N 0.4468(5) 0.7864(4) 0.1105(4)
C5_3 C 0.4539(6) 0.9863(5) 0.1223(4)
C6_3 C 0.5141(6) 0.9369(5) 0.0678(5)
H5_3 H 0.558753 0.970656 0.033853
C13_3 C 0.5081(6) 0.8382(5) 0.0636(5)
H8_3 H 0.549200 0.805762 0.025977
C16_3 C 0.3901(6) 0.9326(5) 0.1702(5)
H11_3 H 0.347808 0.963068 0.208102
C24_3 C 0.3888(6) 0.8334(5) 0.1622(5)
H19_3 H 0.344598 0.797817 0.195130
O6_2 O 0.2767(4) 0.5805(4) 0.1324(3)
O7_2 O 0.5974(3) 0.6322(4) 0.1825(3)
O8_2 O 0.6513(4) 0.6486(4) 0.0567(3)
O9_2 O 0.3838(4) 0.6052(4) 0.2313(3)
O1_2 O 0.2233(4) 0.4195(4) 0.6324(3)
O2_3 O 0.4134(4) 0.3036(4) 0.8216(3)
O3_2 O 0.9026(3) 0.3678(4) 0.6825(3)
O4_2 O 0.8487(4) 0.3514(4) 0.5567(3)
O5_2 O 0.1162(4) 0.3948(4) 0.7313(3)
N1_3 N 0.4280(5) 0.6126(5) 0.8390(4)
H1_3 H 0.454410 0.615916 0.790532
N2_3 N 0.4144(4) 0.6229(5) 0.9707(4)
N5_3 N 0.3799(5) 0.4296(4) 0.7400(4)
H2_3 H 0.403376 0.468461 0.702970
C1_3 C 0.7299(6) 0.3489(5) 0.6642(5)
C2_3 C 0.5539(5) 0.3689(5) 0.6470(4)
H3_3 H 0.498689 0.382611 0.613309
C3_3 C 0.4386(5) 0.3590(5) 0.7669(4)
C4_3 C 0.6482(5) 0.3643(5) 0.6142(4)
H4_3 H 0.657221 0.371535 0.557741
C7_3 C 0.5392(6) 0.3535(5) 0.7290(5)
C8_3 C 0.8336(6) 0.3557(5) 0.6314(5)
C11_3 C 0.2003(6) 0.4169(5) 0.7060(5)
C12_3 C 0.3338(5) 0.5828(5) 0.8573(5)
C17_3 C 0.2623(5) 0.5491(5) 0.7941(4)
H12_3 H 0.268730 0.590154 0.745822
H13_3 H 0.193697 0.556011 0.814797
C18_3 C 0.3257(6) 0.5891(5) 0.9394(5)
H14_3 H 0.268451 0.572975 0.969935
C20_3 C 0.6201(6) 0.3317(6) 0.7786(5)
H15_3 H 0.610253 0.317259 0.834036
C21_3 C 0.7154(6) 0.3314(5) 0.7458(5)
H16_3 H 0.770953 0.319148 0.779497
C22_3 C 0.2793(5) 0.4447(5) 0.7693(4)
H17_3 H 0.269342 0.403795 0.818000
C26_3 C 0.4725(6) 0.6357(5) 0.9088(5)
H21_3 H 0.538733 0.658638 0.912611
O2_4 O 0.0866(4) 0.6964(4) 0.3216(3)
N1_4 N 0.0720(5) 0.3874(5) 0.3390(4)
H1_4 H 0.045590 0.384084 0.290532
N2_4 N 0.0856(4) 0.3771(5) 0.4707(4)
N4_4 N 0.0532(5) 0.2136(4) 0.6105(4)
N5_4 N 0.1201(5) 0.5704(4) 0.2400(4)
H2_4 H 0.096624 0.531539 0.202970
H3_4 H 0.001311 0.617389 0.113309
C3_4 C 0.0614(5) 0.6410(5) 0.2669(4)
C5_4 C 0.0461(6) 0.0137(5) 0.6223(4)
C11_4 C 0.2997(6) 0.5831(5) 0.2060(5)
C12_4 C 0.1662(5) 0.4172(5) 0.3573(5)
C16_4 C 0.1099(6) 0.0674(5) 0.6702(5)
H11_4 H 0.152192 0.036932 0.708102
C17_4 C 0.2377(5) 0.4509(5) 0.2941(4)
H12_4 H 0.231270 0.409846 0.245822
H13_4 H 0.306303 0.443989 0.314797
C18_4 C 0.1743(6) 0.4109(5) 0.4394(5)
H14_4 H 0.231549 0.427025 0.469935
C22_4 C 0.2207(5) 0.5553(5) 0.2693(4)
H17_4 H 0.230658 0.596205 0.318000
C24_4 C 0.1112(6) 0.1666(5) 0.6622(5)
H19_4 H 0.155402 0.202183 0.695130
C26_4 C 0.0275(6) 0.3643(5) 0.4088(5)
N6_2 N 0.0291(5) 0.5464(4) 0.5912(4)
C9_4 C 0.0192(6) 0.6890(5) 0.5122(5)
H6_3 H 0.014845 0.717315 0.460243
C10_4 C 0.0231(6) 0.5907(6) 0.5199(5)
H7_3 H 0.021459 0.552931 0.472330
C14_4 C 0.0440(6) 0.9098(5) 0.6316(4)
H9_4 H 0.061557 0.884043 0.682652
C15_4 C 0.0188(5) 0.8489(5) 0.5730(5)
C19_4 C 0.0217(5) 0.7460(5) 0.5808(4)
C23_4 C 0.0324(6) 0.6016(5) 0.6578(5)
H18_4 H 0.037253 0.571050 0.708787
C25_4 C 0.0290(6) 0.7001(5) 0.6560(5)
H20_4 H 0.031612 0.735989 0.704518
C1_4 C 0.7701(6) 0.6511(5) 0.1642(5)
C2_4 C 0.9461(5) 0.6311(5) 0.1470(4)
C4_4 C 0.8518(5) 0.6357(5) 0.1142(4)
H4_4 H 0.842779 0.628465 0.057741
C6_4 C 0.9859(6) 0.0631(5) 0.5678(5)
H5_4 H 0.941247 0.029344 0.533853
C7_4 C 0.9608(6) 0.6465(5) 0.2290(5)
C8_4 C 0.6664(6) 0.6443(5) 0.1314(5)
C13_4 C 0.9919(6) 0.1618(5) 0.5636(5)
H8_4 H 0.950800 0.194238 0.525977
C20_4 C 0.8799(6) 0.6683(6) 0.2786(5)
H15_4 H 0.889747 0.682741 0.334036
C21_4 C 0.7846(6) 0.6686(5) 0.2458(5)
H16_4 H 0.729047 0.680852 0.279497
H21_4 H 0.961267 0.341362 0.412611
H6_4 H 0.485155 0.282685 0.960243
H7_4 H 0.478541 0.447069 0.972330
H10_4 H 0.997648 0.874823 0.522973
loop_
_geom_bond_atom_site_label_1
_geom_bond_atom_site_label_2
_geom_bond_site_symmetry_1
_geom_bond_site_symmetry_2
Cd2 N2 1_555 1_555
N1 H1 1_555 1_555
N2 C18 1_555 1_555
N3 C10 1_555 1_555
N4 Cd2 1_555 1_555
C5 C6 1_555 1_555
C6 H5 1_555 1_555
C9 H6 1_555 1_555
C10 C9 1_555 1_555
H7 C10 1_555 1_555
C12 N1 1_555 1_555
C13 N4 1_555 1_555
H8 C13 1_555 1_555
C14 C5 1_555 1_555
H9 C14 1_555 1_555
C15 C14 1_555 1_555
H10 C15 1_555 1_555
C16 C5 1_555 1_555
H11 C16 1_555 1_555
C17 C12 1_555 1_555
H12 C17 1_555 1_555
H13 C17 1_555 1_555
C18 C12 1_555 1_555
H14 C18 1_555 1_555
C19 C9 1_555 1_555
C23 N3 1_555 1_555
H18 C23 1_555 1_555
C24 N4 1_555 1_555
H19 C24 1_555 1_555
C25 C19 1_555 1_555
H20 C25 1_555 1_555
C26 N1 1_555 1_555
H21 C26 1_555 1_555
O6 Cd2 1_555 1_555
O7 Cd2 1_555 1_555
O8 Cd2 1_555 1_555
O9 Cd2 1_555 1_555
N2 C26 1_555 1_555
C6 C13 1_555 1_555
C15 C19 1_555 1_555
C16 C24 1_555 1_555
C23 C25 1_555 1_555
O1 C11 1_555 1_555
O2 C3 1_555 1_555
O3 C8 1_555 1_555
O4 C8 1_555 1_555
O5 C11 1_555 1_555
N5 H2 1_555 1_555
C1 C4 1_555 1_555
C2 H3 1_555 1_555
C3 N5 1_555 1_555
C4 C2 1_555 1_555
H4 C4 1_555 1_555
C7 C2 1_555 1_555
C8 C1 1_555 1_555
C11 C22 1_555 1_555
C20 C7 1_555 1_555
H15 C20 1_555 1_555
C21 C1 1_555 1_555
H16 C21 1_555 1_555
C22 N5 1_555 1_555
H17 C22 1_555 1_555
Cd4 O1 1_555 1_555
O5 Cd4 1_555 1_555
C3 C7 1_555 1_555
C20 C21 1_555 1_555
O7 C8_2 1_555 1_555
O8 C8_2 1_555 1_555
C1_2 C4_2 1_555 1_555
C4_2 C2_2 1_555 1_555
H4_2 C4_2 1_555 1_555
C7_2 C2_2 1_555 1_555
C8_2 C1_2 1_555 1_555
C20_2 C7_2 1_555 1_555
H15_2 C20_2 1_555 1_555
C21_2 C1_2 1_555 1_555
H16_2 C21_2 1_555 1_555
C20_2 C21_2 1_555 1_555
C6_2 H5_2 1_555 1_555
H8_2 C13_2 1_555 1_555
C6_2 C13_2 1_555 1_555
O6 C11_2 1_555 1_555
O2_2 C3_2 1_555 1_555
O9 C11_2 1_555 1_555
N5_2 H2_2 1_555 1_555
C3_2 N5_2 1_555 1_555
C11_2 C22_2 1_555 1_555
C22_2 N5_2 1_555 1_555
H17_2 C22_2 1_555 1_555
N6 C10_2 1_555 1_555
N4_2 Cd4 1_555 1_555
C10_2 C9_2 1_555 1_555
C14_2 C5_2 1_555 1_555
H9_2 C14_2 1_555 1_555
C15_2 C14_2 1_555 1_555
C16_2 C5_2 1_555 1_555
H11_2 C16_2 1_555 1_555
C19_2 C9_2 1_555 1_555
C23_2 N6 1_555 1_555
H18_2 C23_2 1_555 1_555
C24_2 N4_2 1_555 1_555
H19_2 C24_2 1_555 1_555
C25_2 C19_2 1_555 1_555
H20_2 C25_2 1_555 1_555
C15_2 C19_2 1_555 1_555
C16_2 C24_2 1_555 1_555
C23_2 C25_2 1_555 1_555
N1_2 H1_2 1_555 1_555
N2_2 C18_2 1_555 1_555
C12_2 N1_2 1_555 1_555
C17_2 C12_2 1_555 1_555
H12_2 C17_2 1_555 1_555
H13_2 C17_2 1_555 1_555
C18_2 C12_2 1_555 1_555
H14_2 C18_2 1_555 1_555
C26_2 N1_2 1_555 1_555
N2_2 C26_2 1_555 1_555
N3_2 C10_3 1_555 1_555
C10_3 C9_3 1_555 1_555
H9_3 C14_3 1_555 1_555
C15_3 C14_3 1_555 1_555
H10_3 C15_3 1_555 1_555
C19_3 C9_3 1_555 1_555
C23_3 N3_2 1_555 1_555
H18_3 C23_3 1_555 1_555
C25_3 C19_3 1_555 1_555
H20_3 C25_3 1_555 1_555
Cd2_2 N3_2 1_555 1_555
C15_3 C19_3 1_555 1_555
C23_3 C25_3 1_555 1_555
N4_3 Cd2_2 1_555 1_555
C5_3 C6_3 1_555 1_555
C6_3 H5_3 1_555 1_555
C13_3 N4_3 1_555 1_555
H8_3 C13_3 1_555 1_555
C16_3 C5_3 1_555 1_555
H11_3 C16_3 1_555 1_555
C24_3 N4_3 1_555 1_555
H19_3 C24_3 1_555 1_555
O6_2 Cd2_2 1_555 1_555
O7_2 Cd2_2 1_555 1_555
O8_2 Cd2_2 1_555 1_555
O9_2 Cd2_2 1_555 1_555
C6_3 C13_3 1_555 1_555
C16_3 C24_3 1_555 1_555
O1_2 C11_3 1_555 1_555
O2_3 C3_3 1_555 1_555
O3_2 C8_3 1_555 1_555
O4_2 C8_3 1_555 1_555
O5_2 C11_3 1_555 1_555
N1_3 H1_3 1_555 1_555
N2_3 C18_3 1_555 1_555
N5_3 H2_3 1_555 1_555
C1_3 C4_3 1_555 1_555
C2_3 H3_3 1_555 1_555
C3_3 N5_3 1_555 1_555
C4_3 C2_3 1_555 1_555
H4_3 C4_3 1_555 1_555
C7_3 C2_3 1_555 1_555
C8_3 C1_3 1_555 1_555
C11_3 C22_3 1_555 1_555
C12_3 N1_3 1_555 1_555
C17_3 C12_3 1_555 1_555
H12_3 C17_3 1_555 1_555
H13_3 C17_3 1_555 1_555
C18_3 C12_3 1_555 1_555
H14_3 C18_3 1_555 1_555
C20_3 C7_3 1_555 1_555
H15_3 C20_3 1_555 1_555
C21_3 C1_3 1_555 1_555
H16_3 C21_3 1_555 1_555
C22_3 N5_3 1_555 1_555
H17_3 C22_3 1_555 1_555
C26_3 N1_3 1_555 1_555
H21_3 C26_3 1_555 1_555
Cd3 O1_2 1_555 1_555
O5_2 Cd3 1_555 1_555
N2_3 C26_3 1_555 1_555
C3_3 C7_3 1_555 1_555
C17_3 C22_3 1_555 1_555
C20_3 C21_3 1_555 1_555
Cd3 N2_4 1_555 1_555
O6_2 C11_4 1_555 1_555
O2_4 C3_4 1_555 1_555
O9_2 C11_4 1_555 1_555
N1_4 H1_4 1_555 1_555
N2_4 C18_4 1_555 1_555
N4_4 Cd3 1_555 1_555
N5_4 H2_4 1_555 1_555
C3_4 N5_4 1_555 1_555
C11_4 C22_4 1_555 1_555
C12_4 N1_4 1_555 1_555
C16_4 C5_4 1_555 1_555
H11_4 C16_4 1_555 1_555
C17_4 C12_4 1_555 1_555
H12_4 C17_4 1_555 1_555
H13_4 C17_4 1_555 1_555
C18_4 C12_4 1_555 1_555
H14_4 C18_4 1_555 1_555
C22_4 N5_4 1_555 1_555
H17_4 C22_4 1_555 1_555
C24_4 N4_4 1_555 1_555
H19_4 C24_4 1_555 1_555
C26_4 N1_4 1_555 1_555
N6_2 Cd3 1_555 1_555
N2_4 C26_4 1_555 1_555
C16_4 C24_4 1_555 1_555
C17_4 C22_4 1_555 1_555
N6_2 C10_4 1_555 1_555
C9_4 H6_3 1_555 1_555
C10_4 C9_4 1_555 1_555
H7_3 C10_4 1_555 1_555
H9_4 C14_4 1_555 1_555
C15_4 C14_4 1_555 1_555
C19_4 C9_4 1_555 1_555
C23_4 N6_2 1_555 1_555
H18_4 C23_4 1_555 1_555
C25_4 C19_4 1_555 1_555
H20_4 C25_4 1_555 1_555
C15_4 C19_4 1_555 1_555
C23_4 C25_4 1_555 1_555
O7_2 C8_4 1_555 1_555
O8_2 C8_4 1_555 1_555
C1_4 C4_4 1_555 1_555
C4_4 C2_4 1_555 1_555
H4_4 C4_4 1_555 1_555
C6_4 H5_4 1_555 1_555
C7_4 C2_4 1_555 1_555
C8_4 C1_4 1_555 1_555
H8_4 C13_4 1_555 1_555
C20_4 C7_4 1_555 1_555
H15_4 C20_4 1_555 1_555
C21_4 C1_4 1_555 1_555
H16_4 C21_4 1_555 1_555
C6_4 C13_4 1_555 1_555
C20_4 C21_4 1_555 1_555

#END
