
###############################################################################
#
# This file contains modified crystal structure data generated from the
# MOF subset of the Cambridge Structural Database (CSD) v543 
# hosted by the Cambridge Crystallographic Data Centre (CCDC).
#
# This work is licensed under the Creative Commons
# Attribution-NonCommercial-ShareAlike 4.0 International License.
# To view a copy of this license, visit
# http://creativecommons.org/licenses/by-nc-sa/4.0/
# or send a letter to
# Creative Commons, PO Box 1866, Mountain View, CA 94042, USA.
#
# CIF created using the CSD Python API on 29 September 2022
# The structure has been converted into the P1 space group
# The structure has a 3D framework
# The original CSD entry FUWXOL is in the orthorhombic crystal system
# The original CSD entry FUWXOL is in a Sohncke space group
# The framework has been calculated to contain at least 10.0% void space
# The void calculation uses a probe of radius 1.32A, grid spacing 0.4
# H atom positions have been added when not included in the experimental data
#
###############################################################################

data_FUWXOL
_chemical_formula_moiety         '(C20 H8 N40 Zn4)n'
_symmetry_cell_setting           triclinic
_symmetry_space_group_name_H-M   'P 1'
_symmetry_Int_Tables_number      1
_space_group_name_Hall           'P 1'
loop_
_symmetry_equiv_pos_site_id
_symmetry_equiv_pos_as_xyz
1 x,y,z
_cell_length_a                   8.6429(6)
_cell_length_b                   8.8848(6)
_cell_length_c                   15.4504(10)
_cell_angle_alpha                90
_cell_angle_beta                 90
_cell_angle_gamma                90
_cell_volume                     1186.44
loop_
_atom_site_label
_atom_site_type_symbol
_atom_site_fract_x
_atom_site_fract_y
_atom_site_fract_z
N4 N 0.3520(5) 0.1896(5) 0.0135(3)
N5 N 0.2065(5) 0.2241(6) 0.0046(2)
Zn2 Zn 0.45148(5) 0.25548(6) 0.12646(3)
N3 N 0.4052(5) 0.1074(5) 0.9475(3)
N6 N 0.1586(5) 0.1655(5) 0.9298(2)
C2 C 0.2817(5) 0.0102(6) 0.8169(3)
C3 C 0.2818(6) 0.0948(5) 0.8975(3)
Zn1 Zn 0.04852(5) 0.74452(6) 0.62646(3)
N1 N 0.2268(5) 0.8671(5) 0.6998(3)
N2 N 0.4168(5) 0.9599(6) 0.7794(3)
C1 C 0.3792(6) 0.8727(7) 0.7107(4)
C4 C 0.1648(6) 0.9544(6) 0.7662(3)
H1 H 0.444(7) 0.854(7) 0.667(4)
N11 N 0.1480(5) 0.8104(5) 0.5135(3)
N13 N 0.0984(5) 0.5460(5) 0.6869(3)
H2 H 0.525658 0.984051 0.799763
N9 N 0.7570(5) 0.0065(6) 0.7858(3)
N10 N 0.9016(5) 0.0460(5) 0.8131(3)
Zn3 Zn 0.95148(5) 0.24452(6) 0.87354(3)
N7 N 0.9210(5) 0.8713(5) 0.7140(3)
N8 N 0.7693(5) 0.9004(6) 0.7266(3)
C5 C 0.9984(5) 0.9619(6) 0.7675(3)
N12 N 0.8414(5) 0.6655(5) 0.5702(2)
N1_2 N 0.2732(5) 0.1329(5) 0.1998(3)
N2_2 N 0.0832(5) 0.0401(6) 0.2794(3)
N7_2 N 0.5790(5) 0.1287(5) 0.2140(3)
N8_2 N 0.7307(5) 0.0996(6) 0.2266(3)
C1_2 C 0.1208(6) 0.1273(7) 0.2107(4)
C4_2 C 0.3352(6) 0.0456(6) 0.2662(3)
C5_2 C 0.5016(5) 0.0381(6) 0.2675(3)
H1_2 H 0.056(7) 0.146(7) 0.167(4)
N12_2 N 0.6586(5) 0.3345(5) 0.0702(2)
N13_2 N 0.4016(5) 0.4540(5) 0.1869(3)
N3_2 N 0.0948(5) 0.8926(5) 0.4475(3)
N5_2 N 0.2935(5) 0.7759(6) 0.5046(2)
N6_2 N 0.3414(5) 0.8345(5) 0.4298(2)
N9_2 N 0.7430(5) 0.9935(6) 0.2858(3)
N10_2 N 0.5984(5) 0.9540(5) 0.3131(3)
C2_2 C 0.2183(5) 0.9898(6) 0.3169(3)
C3_2 C 0.2182(6) 0.9052(5) 0.3975(3)
Zn3_2 Zn 0.54852(5) 0.75548(6) 0.37354(3)
N7_3 N 0.0790(5) 0.3713(5) 0.7860(3)
N8_3 N 0.2307(5) 0.4004(6) 0.7734(3)
N9_3 N 0.2430(5) 0.5065(6) 0.7142(3)
C5_3 C 0.0016(5) 0.4619(6) 0.7325(3)
N1_3 N 0.7732(5) 0.3671(5) 0.8002(3)
N2_3 N 0.5832(5) 0.4599(6) 0.7206(3)
N3_3 N 0.5948(5) 0.6074(5) 0.5525(3)
N4_2 N 0.6480(5) 0.6896(5) 0.4865(3)
N5_3 N 0.7935(5) 0.7241(6) 0.4954(2)
C1_3 C 0.6208(6) 0.3727(7) 0.7893(4)
C2_3 C 0.7183(5) 0.5102(6) 0.6831(3)
C3_3 C 0.7182(6) 0.5948(5) 0.6025(3)
C4_3 C 0.8352(6) 0.4544(6) 0.7338(3)
H1_3 H 0.556(7) 0.354(7) 0.833(4)
N11_2 N 0.8520(5) 0.3104(5) 0.9865(3)
H2_2 H 0.474342 0.484051 0.700237
N1_4 N 0.7268(5) 0.6329(5) 0.3002(3)
N2_4 N 0.9168(5) 0.5401(6) 0.2206(3)
N3_4 N 0.9052(5) 0.3926(5) 0.0525(3)
N7_4 N 0.4210(5) 0.6287(5) 0.2860(3)
N8_4 N 0.2693(5) 0.5996(6) 0.2734(3)
N9_4 N 0.2570(5) 0.4935(6) 0.2142(3)
C1_4 C 0.8792(6) 0.6273(7) 0.2893(4)
C2_4 C 0.7817(5) 0.4898(6) 0.1831(3)
C3_4 C 0.7818(6) 0.4052(5) 0.1025(3)
C4_4 C 0.6648(6) 0.5456(6) 0.2338(3)
C5_4 C 0.4984(5) 0.5381(6) 0.2325(3)
H1_4 H 0.944(7) 0.646(7) 0.333(4)
N5_4 N 0.7065(5) 0.2759(6) 0.9954(2)
H2_3 H 0.974342 0.0159493 0.299763
H2_4 H 0.0256579 0.515949 0.200237
loop_
_geom_bond_atom_site_label_1
_geom_bond_atom_site_label_2
_geom_bond_site_symmetry_1
_geom_bond_site_symmetry_2
N4 N5 1_555 1_555
Zn2 N4 1_555 1_555
N6 C3 1_555 1_555
C3 N3 1_555 1_555
C2 C3 1_555 1_555
Zn1 N1 1_555 1_555
N1 C1 1_555 1_555
N2 C1 1_555 1_555
C1 H1 1_555 1_555
C4 N1 1_555 1_555
N11 Zn1 1_555 1_555
N13 Zn1 1_555 1_555
N2 H2 1_555 1_555
N10 N9 1_555 1_555
N10 Zn3 1_555 1_555
N8 N7 1_555 1_555
C5 N7 1_555 1_555
Zn2 N1_2 1_555 1_555
N1_2 C1_2 1_555 1_555
N2_2 C1_2 1_555 1_555
N7_2 Zn2 1_555 1_555
N8_2 N7_2 1_555 1_555
C1_2 H1_2 1_555 1_555
C4_2 N1_2 1_555 1_555
C5_2 N7_2 1_555 1_555
N12_2 Zn2 1_555 1_555
N13_2 Zn2 1_555 1_555
C4_2 C5_2 1_555 1_555
N3_2 N11 1_555 1_555
N11 N5_2 1_555 1_555
N5_2 N6_2 1_555 1_555
N6_2 C3_2 1_555 1_555
N10_2 N9_2 1_555 1_555
C3_2 N3_2 1_555 1_555
Zn3_2 N6_2 1_555 1_555
N10_2 Zn3_2 1_555 1_555
C2_2 C3_2 1_555 1_555
N8_3 N7_3 1_555 1_555
N9_3 N8_3 1_555 1_555
N13 N9_3 1_555 1_555
C5_3 N7_3 1_555 1_555
N13 C5_3 1_555 1_555
Zn3 N1_3 1_555 1_555
N1_3 C1_3 1_555 1_555
N2_3 C1_3 1_555 1_555
N3_3 N4_2 1_555 1_555
N4_2 N5_3 1_555 1_555
N5_3 N12 1_555 1_555
N12 C3_3 1_555 1_555
C1_3 H1_3 1_555 1_555
C2_3 N2_3 1_555 1_555
C3_3 N3_3 1_555 1_555
C4_3 N1_3 1_555 1_555
Zn3_2 N4_2 1_555 1_555
N11_2 Zn3 1_555 1_555
C2_3 C3_3 1_555 1_555
C2_3 C4_3 1_555 1_555
N2_3 H2_2 1_555 1_555
Zn3_2 N1_4 1_555 1_555
N1_4 C1_4 1_555 1_555
N2_4 C1_4 1_555 1_555
N12_2 C3_4 1_555 1_555
N7_4 Zn3_2 1_555 1_555
N8_4 N7_4 1_555 1_555
N9_4 N8_4 1_555 1_555
N13_2 N9_4 1_555 1_555
C1_4 H1_4 1_555 1_555
C2_4 N2_4 1_555 1_555
C3_4 N3_4 1_555 1_555
C4_4 N1_4 1_555 1_555
C5_4 N7_4 1_555 1_555
N13_2 C5_4 1_555 1_555
C2_4 C3_4 1_555 1_555
C2_4 C4_4 1_555 1_555
C4_4 C5_4 1_555 1_555
N11_2 N5_4 1_555 1_555

#END
