
###############################################################################
#
# This file contains modified crystal structure data generated from the
# MOF subset of the Cambridge Structural Database (CSD) v543 
# hosted by the Cambridge Crystallographic Data Centre (CCDC).
#
# This work is licensed under the Creative Commons
# Attribution-NonCommercial-ShareAlike 4.0 International License.
# To view a copy of this license, visit
# http://creativecommons.org/licenses/by-nc-sa/4.0/
# or send a letter to
# Creative Commons, PO Box 1866, Mountain View, CA 94042, USA.
#
# CIF created using the CSD Python API on 29 September 2022
# The structure has been converted into the P1 space group
# The structure has a 3D framework
# The original CSD entry FUXBUY is in the triclinic crystal system
# The framework has been calculated to contain at least 10.0% void space
# The void calculation uses a probe of radius 1.32A, grid spacing 0.4
#
###############################################################################

data_FUXBUY
_chemical_formula_moiety         '(C54 H48 Cu9 N6 O12)n'
_symmetry_cell_setting           triclinic
_symmetry_space_group_name_H-M   'P 1'
_symmetry_Int_Tables_number      1
_space_group_name_Hall           'P 1'
loop_
_symmetry_equiv_pos_site_id
_symmetry_equiv_pos_as_xyz
1 x,y,z
_cell_length_a                   7.7799(3)
_cell_length_b                   15.1586(9)
_cell_length_c                   15.4901(9)
_cell_angle_alpha                116.604(6)
_cell_angle_beta                 100.395(4)
_cell_angle_gamma                98.422(4)
_cell_volume                     1551.99
loop_
_atom_site_label
_atom_site_type_symbol
_atom_site_fract_x
_atom_site_fract_y
_atom_site_fract_z
O11 O 0.2896(3) 0.3996(2) 0.38892(18)
O12 O 0.6199(4) 0.3924(2) 0.4987(2)
C47 C 0.0901(5) 0.1479(3) 0.1730(3)
H42 H 0.1928 0.1219 0.1622
C48 C 0.1091(5) 0.2434(3) 0.2543(3)
C51 C 0.2840(5) 0.3066(3) 0.3339(3)
C52 C 0.4193(6) 0.2587(3) 0.3442(4)
H45 H 0.4069 0.1922 0.2912
C53 C 0.5730(5) 0.3011(3) 0.4270(3)
C54 C 0.6931(8) 0.2340(4) 0.4340(5)
H46 H 0.6966 0.2292 0.4953
H47 H 0.6454 0.1656 0.3752
H48 H 0.8157 0.2633 0.4360
Cu5 Cu 0.5000 0.5000 0.5000
H33 H 0.0321 0.6922 0.9740
Cu7 Cu 0.0000 0.5000 1.0000
Cu1 Cu 0.5000 -0.0000 1.0000
N1 N 0.1410(4) 0.3913(3) 0.9970(3)
C3 C 0.3387(5) 0.2472(3) 0.9800(3)
C4 C 0.4039(5) 0.3304(3) 0.9685(3)
H3 H 0.5171 0.3392 0.9544
C5 C 0.3029(5) 0.4003(3) 0.9778(3)
H4 H 0.3497 0.4572 0.9704
C6 C 0.4345(5) 0.1651(3) 0.9658(3)
C7 C 0.5564(7) 0.1522(4) 0.9075(4)
H5 H 0.5919 0.2043 0.8912
C8 C 0.6301(6) 0.0673(3) 0.8713(3)
C9 C 0.7389(9) 0.0602(5) 0.7984(5)
H6 H 0.8477 0.0392 0.8153
H7 H 0.7740 0.1270 0.8024
H8 H 0.6658 0.0098 0.7300
Cu1_2 Cu 0.5000 1.0000 0.0000
N5 N 0.8590(4) 0.6087(3) 0.0030(3)
C39 C 0.6613(5) 0.7528(3) 0.0200(3)
C40 C 0.5961(5) 0.6696(3) 0.0315(3)
H35 H 0.4829 0.6608 0.0456
C41 C 0.6971(5) 0.5997(3) 0.0222(3)
H36 H 0.6503 0.5428 0.0296
C42 C 0.5655(5) 0.8349(3) 0.0342(3)
C43 C 0.4436(7) 0.8478(4) 0.0925(4)
H37 H 0.4081 0.7957 0.1088
C44 C 0.3699(6) 0.9327(3) 0.1287(3)
C45 C 0.2611(9) 0.9398(5) 0.2016(5)
H38 H 0.1523 0.9608 0.1847
H39 H 0.2260 0.8730 0.1976
H40 H 0.3342 0.9902 0.2700
Cu7_2 Cu 1.0000 0.5000 0.0000
H1 H 0.9679 0.3078 0.0260
O3 O 0.7104(3) 0.6004(2) 0.61108(18)
O4 O 0.3801(4) 0.6076(2) 0.5013(2)
O5 O 0.0957(4) 0.5058(2) 0.89402(19)
N3 N 0.3448(4) 0.4953(3) 0.6172(3)
C11 C 0.9099(5) 0.8521(3) 0.8270(3)
H10 H 0.8072 0.8781 0.8378
C12 C 0.8909(5) 0.7566(3) 0.7457(3)
C15 C 0.7160(5) 0.6934(3) 0.6661(3)
C16 C 0.5807(6) 0.7413(3) 0.6558(4)
H13 H 0.5931 0.8078 0.7088
C17 C 0.4270(5) 0.6989(3) 0.5730(3)
C18 C 0.3069(8) 0.7660(4) 0.5660(5)
H14 H 0.3034 0.7708 0.5047
H15 H 0.3546 0.8344 0.6248
H16 H 0.1843 0.7367 0.5640
C19 C 0.4151(6) 0.5149(4) 0.7099(3)
H17 H 0.5430 0.5359 0.7358
C20 C 0.3113(6) 0.5066(4) 0.7725(3)
H18 H 0.3679 0.5190 0.8380
C21 C 0.1247(5) 0.4798(3) 0.7365(3)
C22 C 0.0495(5) 0.4610(3) 0.6400(3)
C23 C 0.1638(5) 0.4704(4) 0.5840(3)
H20 H 0.1110 0.4586 0.5182
C24 C 0.0121(5) 0.4641(3) 0.8006(3)
N9 N 0.6552(4) 0.5047(3) 0.3828(3)
O7 O 0.9043(4) 0.4942(2) 0.10598(19)
C28 C 0.5849(6) 0.4851(4) 0.2901(3)
H25 H 0.4570 0.4641 0.2642
C29 C 0.6887(6) 0.4934(4) 0.2275(3)
H26 H 0.6321 0.4810 0.1620
C30 C 0.8753(5) 0.5202(3) 0.2635(3)
C31 C 0.9505(5) 0.5390(3) 0.3600(3)
C32 C 0.8362(5) 0.5296(4) 0.4160(3)
H28 H 0.8890 0.5414 0.4818
C33 C 0.9879(5) 0.5359(3) 0.1994(3)
Cu7_3 Cu 0.0000 0.5000 0.0000
Cu1_3 Cu 0.5000 0.0000 0.0000
O1 O 0.3909(4) 0.11057(19) 0.0055(2)
C1 C 0.0802(6) 0.3137(3) 0.0104(4)
C2 C 0.1738(6) 0.2401(4) 0.0026(4)
H2 H 0.1252 0.1852 0.0126
O10 O 0.3884(4) 0.0029(2) 0.1068(2)
N6 N 0.7709(4) 0.1224(3) 0.1177(3)
C46 C 0.9213(5) 0.0918(3) 0.1088(3)
H41 H 0.9113 0.0267 0.0542
C49 C 0.9512(6) 0.2761(3) 0.2626(3)
H43 H 0.9564 0.3412 0.3158
C50 C 0.7881(6) 0.2141(4) 0.1939(4)
H44 H 0.6827 0.2381 0.2013
O8 O 0.2445(4) 0.6188(2) 0.1149(2)
H27 H 0.0780 0.5580 0.3874
C34 C 0.1636(6) 0.5963(4) 0.2464(3)
H29 H 0.2119 0.6127 0.3143
C35 C 0.2804(6) 0.6366(4) 0.2038(3)
C36 C 0.4572(8) 0.7096(5) 0.2731(4)
H30 H 0.4433 0.7794 0.3021
H31 H 0.4967 0.6937 0.3271
H32 H 0.5477 0.7034 0.2356
Cu1_4 Cu 0.5000 1.0000 1.0000
O2 O 0.6116(4) 0.9971(2) 0.8932(2)
N2 N 0.2291(4) 0.8776(3) 0.8823(3)
C10 C 0.0787(5) 0.9082(3) 0.8912(3)
H9 H 0.0887 0.9733 0.9458
C13 C 0.0488(6) 0.7239(3) 0.7374(3)
H11 H 0.0436 0.6588 0.6842
C14 C 0.2119(6) 0.7859(4) 0.8061(4)
H12 H 0.3173 0.7619 0.7987
O9 O 0.6091(4) 0.88943(19) 0.9945(2)
C37 C 0.9198(6) 0.6863(3) 0.9896(4)
C38 C 0.8262(6) 0.7599(4) 0.9974(4)
H34 H 0.8748 0.8148 0.9874
Cu7_4 Cu 1.0000 0.5000 1.0000
O6 O 0.7555(4) 0.3812(2) 0.8851(2)
H19 H 0.9220 0.4420 0.6126
C25 C 0.8364(6) 0.4037(4) 0.7536(3)
H21 H 0.7881 0.3873 0.6857
C26 C 0.7196(6) 0.3634(4) 0.7962(3)
C27 C 0.5428(8) 0.2904(5) 0.7269(4)
H22 H 0.5567 0.2206 0.6979
H23 H 0.5033 0.3063 0.6729
H24 H 0.4523 0.2966 0.7644
loop_
_geom_bond_atom_site_label_1
_geom_bond_atom_site_label_2
_geom_bond_site_symmetry_1
_geom_bond_site_symmetry_2
O11 C51 1_555 1_555
O12 C53 1_555 1_555
H42 C47 1_555 1_555
C48 C47 1_555 1_555
C51 C48 1_555 1_555
C52 C51 1_555 1_555
H45 C52 1_555 1_555
C53 C52 1_555 1_555
C54 C53 1_555 1_555
H46 C54 1_555 1_555
H47 C54 1_555 1_555
H48 C54 1_555 1_555
Cu5 O11 1_555 1_555
O12 Cu5 1_555 1_555
C4 C3 1_555 1_555
H3 C4 1_555 1_555
C5 N1 1_555 1_555
H4 C5 1_555 1_555
C6 C3 1_555 1_555
C7 C6 1_555 1_555
H5 C7 1_555 1_555
C9 C8 1_555 1_555
H6 C9 1_555 1_555
H7 C9 1_555 1_555
H8 C9 1_555 1_555
Cu7 N1 1_555 1_555
C4 C5 1_555 1_555
C7 C8 1_555 1_555
C40 C39 1_555 1_555
H35 C40 1_555 1_555
C41 N5 1_555 1_555
H36 C41 1_555 1_555
C43 C42 1_555 1_555
H37 C43 1_555 1_555
C45 C44 1_555 1_555
H38 C45 1_555 1_555
H39 C45 1_555 1_555
H40 C45 1_555 1_555
Cu7_2 N5 1_555 1_555
C39 C42 1_555 1_555
C40 C41 1_555 1_555
C43 C44 1_555 1_555
Cu5 O3 1_555 1_555
Cu7 O5 1_555 1_555
O3 C15 1_555 1_555
O4 Cu5 1_555 1_555
O5 C24 1_555 1_555
N3 Cu5 1_555 1_555
H10 C11 1_555 1_555
C12 C11 1_555 1_555
C15 C12 1_555 1_555
C16 C15 1_555 1_555
H13 C16 1_555 1_555
C17 O4 1_555 1_555
C18 C17 1_555 1_555
H14 C18 1_555 1_555
H15 C18 1_555 1_555
H16 C18 1_555 1_555
C19 N3 1_555 1_555
H17 C19 1_555 1_555
C20 C19 1_555 1_555
H18 C20 1_555 1_555
C21 C20 1_555 1_555
C22 C21 1_555 1_555
C23 N3 1_555 1_555
H20 C23 1_555 1_555
C24 C21 1_555 1_555
N9 Cu5 1_555 1_555
C16 C17 1_555 1_555
C22 C23 1_555 1_555
O7 Cu7_2 1_555 1_555
N9 C28 1_555 1_555
C28 H25 1_555 1_555
C29 C28 1_555 1_555
H26 C29 1_555 1_555
C30 C29 1_555 1_555
C31 C30 1_555 1_555
C32 N9 1_555 1_555
H28 C32 1_555 1_555
C33 O7 1_555 1_555
C30 C33 1_555 1_555
C31 C32 1_555 1_555
Cu1_3 O1 1_555 1_555
C2 C1 1_555 1_555
H2 C2 1_555 1_555
O10 Cu1_3 1_555 1_555
N6 Cu1_3 1_555 1_555
C46 N6 1_555 1_555
H41 C46 1_555 1_555
H43 C49 1_555 1_555
C50 N6 1_555 1_555
H44 C50 1_555 1_555
C49 C50 1_555 1_555
O8 Cu7_3 1_555 1_555
H29 C34 1_555 1_555
C35 O8 1_555 1_555
C36 C35 1_555 1_555
H30 C36 1_555 1_555
H31 C36 1_555 1_555
H32 C36 1_555 1_555
C34 C35 1_555 1_555
O2 Cu1_4 1_555 1_555
N2 Cu1_4 1_555 1_555
C10 N2 1_555 1_555
H9 C10 1_555 1_555
H11 C13 1_555 1_555
C14 N2 1_555 1_555
H12 C14 1_555 1_555
O9 Cu1_4 1_555 1_555
C38 C37 1_555 1_555
H34 C38 1_555 1_555
C13 C14 1_555 1_555
O6 Cu7_4 1_555 1_555
H21 C25 1_555 1_555
C26 O6 1_555 1_555
C27 C26 1_555 1_555
H22 C27 1_555 1_555
H23 C27 1_555 1_555
H24 C27 1_555 1_555
C25 C26 1_555 1_555

#END
