
###############################################################################
#
# This file contains modified crystal structure data generated from the
# MOF subset of the Cambridge Structural Database (CSD) v543 
# hosted by the Cambridge Crystallographic Data Centre (CCDC).
#
# This work is licensed under the Creative Commons
# Attribution-NonCommercial-ShareAlike 4.0 International License.
# To view a copy of this license, visit
# http://creativecommons.org/licenses/by-nc-sa/4.0/
# or send a letter to
# Creative Commons, PO Box 1866, Mountain View, CA 94042, USA.
#
# CIF created using the CSD Python API on 29 September 2022
# The structure has been converted into the P1 space group
# The structure has a 3D framework
# The original CSD entry FUYWUU is in the monoclinic crystal system
# The framework has been calculated to contain at least 10.0% void space
# The void calculation uses a probe of radius 1.32A, grid spacing 0.4
#
###############################################################################

data_FUYWUU
_chemical_formula_moiety         '(C64 H32 O26 Th2)n'
_symmetry_cell_setting           triclinic
_symmetry_space_group_name_H-M   'P 1'
_symmetry_Int_Tables_number      1
_space_group_name_Hall           'P 1'
loop_
_symmetry_equiv_pos_site_id
_symmetry_equiv_pos_as_xyz
1 x,y,z
_cell_length_a                   11.631(2)
_cell_length_b                   18.045(4)
_cell_length_c                   9.2040(18)
_cell_angle_alpha                90
_cell_angle_beta                 114.85(3)
_cell_angle_gamma                90
_cell_volume                     1752.89
loop_
_atom_site_label
_atom_site_type_symbol
_atom_site_fract_x
_atom_site_fract_y
_atom_site_fract_z
Th2 Th 0.0000 0.480850(7) 0.2500
Th6 Th 0.0000 0.519150(7) 0.7500
Th7 Th 0.5000 0.019150(7) 0.7500
O1 O 0.1910(3) 0.52826(14) 0.2346(3)
O3 O 0.0635(2) 0.57977(14) 0.4348(3)
O4 O 0.0975(2) 0.62332(13) 0.6748(3)
C1 C 0.4462(3) 0.57161(19) 0.3596(4)
H1 H 0.4093 0.5723 0.4341
C2 C 0.4227(3) 0.57302(19) 0.0862(4)
C3 C 0.3692(3) 0.56927(17) 0.1961(4)
C4 C 0.2297(3) 0.55435(17) 0.1364(4)
C5 C 0.1821(3) 0.70330(19) 0.3719(4)
H3 H 0.1356 0.6714 0.2848
C6 C 0.1809(3) 0.69132(18) 0.5209(4)
C7 C 0.2488(3) 0.73823(19) 0.6494(4)
H4 H 0.2478 0.7302 0.7508
C8 C 0.1088(3) 0.62753(17) 0.5446(4)
O5 O 0.8090(3) 0.52826(14) 0.2654(3)
O6 O 0.8390(2) 0.56677(14) 0.5099(3)
C9 C 0.5538(3) 0.57161(19) 0.1404(4)
H5 H 0.5907 0.5723 0.0659
C10 C 0.5773(3) 0.57302(19) 0.4138(4)
H6 H 0.6301 0.5765 0.5251
C11 C 0.6308(3) 0.56927(17) 0.3039(4)
C12 C 0.7703(3) 0.55435(17) 0.3636(4)
O7 O 0.4365(2) 0.92023(14) 0.5652(3)
O8 O 0.4025(2) 0.87668(13) 0.3252(3)
C13 C 0.3179(3) 0.79670(19) 0.6281(4)
H7 H 0.3644 0.8286 0.7152
C14 C 0.3191(3) 0.80868(18) 0.4791(4)
C15 C 0.2512(3) 0.76177(19) 0.3506(4)
H8 H 0.2522 0.7698 0.2492
C16 C 0.3912(3) 0.87247(17) 0.4554(4)
Th2_2 Th 1.0000 0.480850(7) 0.2500
Th3 Th 0.5000 0.980850(7) 0.2500
Th6_2 Th 1.0000 0.519150(7) 0.7500
O11 O 0.1610(2) 0.43323(14) 0.4901(3)
O14 O 0.0975(2) 0.37668(13) 0.1748(3)
O2 O 0.1610(2) 0.56677(14) 0.9901(3)
H2 H 0.3699 0.5765 0.9749
O10 O 0.8390(2) 0.43323(14) 0.0099(3)
O12 O 0.9365(2) 0.57977(14) 0.0652(3)
O13 O 0.9025(2) 0.37668(13) 0.3252(3)
C5_2 C 0.8179(3) 0.70330(19) 0.1281(4)
H3_2 H 0.8644 0.6714 0.2152
O8_2 O 0.5975(2) 0.87668(13) 0.1748(3)
C14_2 C 0.6809(3) 0.80868(18) 0.0209(4)
C15_2 C 0.7488(3) 0.76177(19) 0.1494(4)
H8_2 H 0.7478 0.7698 0.2508
C16_2 C 0.6088(3) 0.87247(17) 0.0446(4)
O4_2 O 0.9025(2) 0.62332(13) 0.8252(3)
C6_2 C 0.8191(3) 0.69132(18) 0.9791(4)
C7_2 C 0.7512(3) 0.73823(19) 0.8506(4)
H4_2 H 0.7522 0.7302 0.7492
C8_2 C 0.8912(3) 0.62753(17) 0.9554(4)
O7_2 O 0.5635(2) 0.92023(14) 0.9348(3)
C13_2 C 0.6821(3) 0.79670(19) 0.8719(4)
H7_2 H 0.6356 0.8286 0.7848
O5_2 O 0.3090(3) 0.02826(14) 0.2654(3)
O6_2 O 0.3390(2) 0.06677(14) 0.5099(3)
C9_2 C 0.0538(3) 0.07161(19) 0.1404(4)
H5_2 H 0.0907 0.0723 0.0659
C10_2 C 0.0773(3) 0.07302(19) 0.4138(4)
H6_2 H 0.1301 0.0765 0.5251
C11_2 C 0.1308(3) 0.06927(17) 0.3039(4)
C12_2 C 0.2703(3) 0.05435(17) 0.3636(4)
O1_2 O 0.6910(3) 0.02826(14) 0.2346(3)
O3_2 O 0.5635(2) 0.07977(14) 0.4348(3)
O4_3 O 0.5975(2) 0.12332(13) 0.6748(3)
C1_2 C 0.9462(3) 0.07161(19) 0.3596(4)
H1_2 H 0.9093 0.0723 0.4341
C2_2 C 0.9227(3) 0.07302(19) 0.0862(4)
C3_2 C 0.8692(3) 0.06927(17) 0.1961(4)
C4_2 C 0.7297(3) 0.05435(17) 0.1364(4)
C5_3 C 0.6821(3) 0.20330(19) 0.3719(4)
H3_3 H 0.6356 0.1714 0.2848
C6_3 C 0.6809(3) 0.19132(18) 0.5209(4)
C7_3 C 0.7488(3) 0.23823(19) 0.6494(4)
H4_3 H 0.7478 0.2302 0.7508
C8_3 C 0.6088(3) 0.12753(17) 0.5446(4)
O7_3 O 0.9365(2) 0.42023(14) 0.5652(3)
C13_3 C 0.8179(3) 0.29670(19) 0.6281(4)
H7_3 H 0.8644 0.3286 0.7152
C14_3 C 0.8191(3) 0.30868(18) 0.4791(4)
C15_3 C 0.7512(3) 0.26177(19) 0.3506(4)
H8_3 H 0.7522 0.2698 0.2492
C16_3 C 0.8912(3) 0.37247(17) 0.4554(4)
O12_2 O 0.4365(2) 0.07977(14) 0.0652(3)
O2_2 O 0.6610(2) 0.06677(14) 0.9901(3)
H2_2 H 0.8699 0.0765 0.9749
O10_2 O 0.3390(2) 0.93323(14) 0.0099(3)
O11_2 O 0.6610(2) 0.93323(14) 0.4901(3)
C5_4 C 0.3179(3) 0.20330(19) 0.1281(4)
H3_4 H 0.3644 0.1714 0.2152
C14_4 C 0.1809(3) 0.30868(18) 0.0209(4)
C15_4 C 0.2488(3) 0.26177(19) 0.1494(4)
H8_4 H 0.2478 0.2698 0.2508
C16_4 C 0.1088(3) 0.37247(17) 0.0446(4)
O4_4 O 0.4025(2) 0.12332(13) 0.8252(3)
C6_4 C 0.3191(3) 0.19132(18) 0.9791(4)
C7_4 C 0.2512(3) 0.23823(19) 0.8506(4)
H4_4 H 0.2522 0.2302 0.7492
C8_4 C 0.3912(3) 0.12753(17) 0.9554(4)
O7_4 O 0.0635(2) 0.42023(14) 0.9348(3)
C13_4 C 0.1821(3) 0.29670(19) 0.8719(4)
H7_4 H 0.1356 0.3286 0.7848
O9 O 0.1910(3) 0.47174(14) 0.7346(3)
H2_3 H 0.6301 0.4235 0.0251
O1_3 O 0.8090(3) 0.47174(14) 0.7654(3)
C1_3 C 0.5538(3) 0.42839(19) 0.6404(4)
H1_3 H 0.5907 0.4277 0.5659
C2_3 C 0.5773(3) 0.42698(19) 0.9138(4)
C3_3 C 0.6308(3) 0.43073(17) 0.8039(4)
C4_3 C 0.7703(3) 0.44565(17) 0.8636(4)
C9_3 C 0.4462(3) 0.42839(19) 0.8596(4)
H5_3 H 0.4093 0.4277 0.9341
C10_3 C 0.4227(3) 0.42698(19) 0.5862(4)
H6_3 H 0.3699 0.4235 0.4749
C11_3 C 0.3692(3) 0.43073(17) 0.6961(4)
C12_3 C 0.2297(3) 0.44565(17) 0.6364(4)
H2_4 H 0.1301 0.9235 0.0251
O1_4 O 0.3090(3) 0.97174(14) 0.7654(3)
C1_4 C 0.0538(3) 0.92839(19) 0.6404(4)
H1_4 H 0.0907 0.9277 0.5659
C2_4 C 0.0773(3) 0.92698(19) 0.9138(4)
C3_4 C 0.1308(3) 0.93073(17) 0.8039(4)
C4_4 C 0.2703(3) 0.94565(17) 0.8636(4)
O9_2 O 0.6910(3) 0.97174(14) 0.7346(3)
C9_4 C 0.9462(3) 0.92839(19) 0.8596(4)
H5_4 H 0.9093 0.9277 0.9341
C10_4 C 0.9227(3) 0.92698(19) 0.5862(4)
H6_4 H 0.8699 0.9235 0.4749
C11_4 C 0.8692(3) 0.93073(17) 0.6961(4)
C12_4 C 0.7297(3) 0.94565(17) 0.6364(4)
loop_
_geom_bond_atom_site_label_1
_geom_bond_atom_site_label_2
_geom_bond_site_symmetry_1
_geom_bond_site_symmetry_2
Th2 O1 1_555 1_555
O1 C4 1_555 1_555
O3 Th2 1_555 1_555
O4 C8 1_555 1_555
C1 H1 1_555 1_555
C3 C1 1_555 1_555
C4 C3 1_555 1_555
C5 H3 1_555 1_555
C6 C5 1_555 1_555
C7 C6 1_555 1_555
H4 C7 1_555 1_555
C8 O3 1_555 1_555
O5 C12 1_555 1_555
O6 C12 1_555 1_555
C9 C2 1_555 1_555
H5 C9 1_555 1_555
C10 C1 1_555 1_555
H6 C10 1_555 1_555
C11 C9 1_555 1_555
C12 C11 1_555 1_555
O7 C16 1_555 1_555
O8 C16 1_555 1_555
C13 C7 1_555 1_555
H7 C13 1_555 1_555
C14 C13 1_555 1_555
C15 C5 1_555 1_555
H8 C15 1_555 1_555
C16 C14 1_555 1_555
Th2_2 O5 1_555 1_555
Th3 O8 1_555 1_555
Th6 O4 1_555 1_555
Th6_2 O6 1_555 1_555
O11 Th2 1_555 1_555
O14 Th2 1_555 1_555
C2 C3 1_555 1_555
C6 C8 1_555 1_555
C10 C11 1_555 1_555
C14 C15 1_555 1_555
Th6 O2 1_555 1_555
O10 Th2_2 1_555 1_555
O12 Th2_2 1_555 1_555
O13 Th2_2 1_555 1_555
C5_2 H3_2 1_555 1_555
O8_2 C16_2 1_555 1_555
C15_2 C5_2 1_555 1_555
H8_2 C15_2 1_555 1_555
C16_2 C14_2 1_555 1_555
Th3 O8_2 1_555 1_555
C14_2 C15_2 1_555 1_555
O4_2 C8_2 1_555 1_555
C7_2 C6_2 1_555 1_555
H4_2 C7_2 1_555 1_555
C13_2 C7_2 1_555 1_555
H7_2 C13_2 1_555 1_555
Th6_2 O4_2 1_555 1_555
C6_2 C8_2 1_555 1_555
O5_2 C12_2 1_555 1_555
O6_2 C12_2 1_555 1_555
H5_2 C9_2 1_555 1_555
H6_2 C10_2 1_555 1_555
C11_2 C9_2 1_555 1_555
C12_2 C11_2 1_555 1_555
Th7 O6_2 1_555 1_555
C10_2 C11_2 1_555 1_555
O1_2 C4_2 1_555 1_555
O4_3 C8_3 1_555 1_555
C1_2 H1_2 1_555 1_555
C3_2 C1_2 1_555 1_555
C4_2 C3_2 1_555 1_555
C5_3 H3_3 1_555 1_555
C6_3 C5_3 1_555 1_555
C7_3 C6_3 1_555 1_555
H4_3 C7_3 1_555 1_555
C8_3 O3_2 1_555 1_555
O7_3 C16_3 1_555 1_555
O13 C16_3 1_555 1_555
C13_3 C7_3 1_555 1_555
H7_3 C13_3 1_555 1_555
C14_3 C13_3 1_555 1_555
C15_3 C5_3 1_555 1_555
H8_3 C15_3 1_555 1_555
C16_3 C14_3 1_555 1_555
Th7 O4_3 1_555 1_555
Th6_2 O7_3 1_555 1_555
C2_2 C3_2 1_555 1_555
C6_3 C8_3 1_555 1_555
C14_3 C15_3 1_555 1_555
Th7 O2_2 1_555 1_555
O10_2 Th3 1_555 1_555
O11_2 Th3 1_555 1_555
C5_4 H3_4 1_555 1_555
O14 C16_4 1_555 1_555
C15_4 C5_4 1_555 1_555
H8_4 C15_4 1_555 1_555
C16_4 C14_4 1_555 1_555
C14_4 C15_4 1_555 1_555
O4_4 C8_4 1_555 1_555
C7_4 C6_4 1_555 1_555
H4_4 C7_4 1_555 1_555
C13_4 C7_4 1_555 1_555
H7_4 C13_4 1_555 1_555
Th7 O4_4 1_555 1_555
Th6 O7_4 1_555 1_555
C6_4 C8_4 1_555 1_555
O9 Th6 1_555 1_555
Th6_2 O1_3 1_555 1_555
O1_3 C4_3 1_555 1_555
C1_3 H1_3 1_555 1_555
C3_3 C1_3 1_555 1_555
C4_3 C3_3 1_555 1_555
O9 C12_3 1_555 1_555
O11 C12_3 1_555 1_555
C9_3 C2_3 1_555 1_555
H5_3 C9_3 1_555 1_555
C10_3 C1_3 1_555 1_555
H6_3 C10_3 1_555 1_555
C11_3 C9_3 1_555 1_555
C12_3 C11_3 1_555 1_555
C2_3 C3_3 1_555 1_555
C10_3 C11_3 1_555 1_555
O1_4 C4_4 1_555 1_555
C1_4 H1_4 1_555 1_555
C3_4 C1_4 1_555 1_555
C4_4 C3_4 1_555 1_555
C2_4 C3_4 1_555 1_555
O9_2 C12_4 1_555 1_555
O11_2 C12_4 1_555 1_555
H5_4 C9_4 1_555 1_555
H6_4 C10_4 1_555 1_555
C11_4 C9_4 1_555 1_555
C12_4 C11_4 1_555 1_555
C10_4 C11_4 1_555 1_555

#END
