
###############################################################################
#
# This file contains modified crystal structure data generated from the
# MOF subset of the Cambridge Structural Database (CSD) v543 
# hosted by the Cambridge Crystallographic Data Centre (CCDC).
#
# This work is licensed under the Creative Commons
# Attribution-NonCommercial-ShareAlike 4.0 International License.
# To view a copy of this license, visit
# http://creativecommons.org/licenses/by-nc-sa/4.0/
# or send a letter to
# Creative Commons, PO Box 1866, Mountain View, CA 94042, USA.
#
# CIF created using the CSD Python API on 29 September 2022
# The structure has been converted into the P1 space group
# The structure has a 3D framework
# The original CSD entry FUYXAB is in the monoclinic crystal system
# The framework has been calculated to contain at least 10.0% void space
# The void calculation uses a probe of radius 1.32A, grid spacing 0.4
#
###############################################################################

data_FUYXAB
_chemical_formula_moiety         '(C90 H48 O34 Th3)n'
_symmetry_cell_setting           triclinic
_symmetry_space_group_name_H-M   'P 1'
_symmetry_Int_Tables_number      1
_space_group_name_Hall           'P 1'
loop_
_symmetry_equiv_pos_site_id
_symmetry_equiv_pos_as_xyz
1 x,y,z
_cell_length_a                   8.890(7)
_cell_length_b                   15.787(12)
_cell_length_c                   14.426(11)
_cell_angle_alpha                90
_cell_angle_beta                 101.085(13)
_cell_angle_gamma                90
_cell_volume                     1986.86
loop_
_atom_site_label
_atom_site_type_symbol
_atom_site_fract_x
_atom_site_fract_y
_atom_site_fract_z
Th7 Th -0.0000 0.12647(6) 0.0000
Th7_2 Th 0.0000 0.12647(6) 1.0000
Th3 Th 0.0000 0.87353(6) 0.0000
Th3_2 Th 0.0000 0.87353(6) 1.0000
Th7_3 Th 1.0000 0.12647(6) 0.0000
Th1 Th 0.5000 0.37353(6) 0.0000
O1 O 0.6203(16) 0.2521(8) 0.0834(8)
O2 O 0.8182(15) 0.1664(8) 0.0973(8)
O3 O 0.6895(17) 0.1521(7) 0.5099(7)
O4 O 0.8895(13) 0.0700(7) 0.8437(7)
O5 O 0.3598(18) 0.5000 0.0199(11)
H1 H 0.3472 0.5000 0.0748
C1 C 0.712(2) 0.2014(11) 0.1288(12)
C2 C 0.7021(19) 0.1814(10) 0.2273(11)
C3 C 0.586(2) 0.2136(10) 0.2653(11)
H2 H 0.5092 0.2454 0.2278
C4 C 0.580(2) 0.1996(10) 0.3600(12)
H3 H 0.4974 0.2194 0.3852
C5 C 0.697(2) 0.1562(11) 0.4150(12)
C6 C 0.817(2) 0.1241(11) 0.3789(12)
H4 H 0.8974 0.0965 0.4181
C7 C 0.817(2) 0.1331(10) 0.2847(11)
H5 H 0.8934 0.1073 0.2584
C8 C 0.7193(19) 0.0746(10) 0.5553(11)
C9 C 0.774(2) 0.0755(11) 0.6535(11)
H6 H 0.7940 0.1264 0.6859
C10 C 0.797(3) -0.0000 0.7002(16)
C11 C 0.862(3) -0.0000 0.8053(15)
C12 C 0.688(3) -0.0000 0.5072(15)
H7 H 0.6456 -0.0000 0.4430
Th5 Th 0.5000 0.62647(6) 0.0000
Th7_4 Th 1.0000 0.12647(6) 1.0000
O12 O 0.3182(15) 0.3336(8) 0.0973(8)
O13 O 0.6105(13) 0.4300(7) 0.1563(7)
Th1_2 Th 0.5000 0.37353(6) 1.0000
Th5_2 Th 0.5000 0.62647(6) 1.0000
O10 O 0.3797(16) 0.2521(8) 0.9166(8)
O11 O 0.6818(15) 0.3336(8) 0.9027(8)
O14 O 0.3895(13) 0.4300(7) 0.8437(7)
O15 O 0.6402(18) 0.5000 0.9801(11)
Th3_3 Th 1.0000 0.87353(6) 0.0000
C10_2 C 0.797(3) 1.0000 0.7002(16)
C11_2 C 0.862(3) 1.0000 0.8053(15)
C12_2 C 0.688(3) 1.0000 0.5072(15)
H7_2 H 0.6456 1.0000 0.4430
O6 O 0.6203(16) 0.7479(8) 0.0834(8)
O7 O 0.8182(15) 0.8336(8) 0.0973(8)
O8 O 0.6895(17) 0.8479(7) 0.5099(7)
O9 O 0.8895(13) 0.9300(7) 0.8437(7)
C13 C 0.712(2) 0.7986(11) 0.1288(12)
C14 C 0.7021(19) 0.8186(10) 0.2273(11)
C15 C 0.586(2) 0.7864(10) 0.2653(11)
H8 H 0.5092 0.7546 0.2278
C16 C 0.580(2) 0.8004(10) 0.3600(12)
H9 H 0.4974 0.7806 0.3852
C17 C 0.697(2) 0.8438(11) 0.4150(12)
C18 C 0.817(2) 0.8759(11) 0.3789(12)
H10 H 0.8974 0.9035 0.4181
C19 C 0.817(2) 0.8669(10) 0.2847(11)
H11 H 0.8934 0.8927 0.2584
C20 C 0.7193(19) 0.9254(10) 0.5553(11)
C21 C 0.774(2) 0.9245(11) 0.6535(11)
H12 H 0.7940 0.8736 0.6859
Th3_4 Th 1.0000 0.87353(6) 1.0000
O2_2 O 0.1818(15) 0.1664(8) 0.9027(8)
O3_2 O 0.3105(17) 0.1521(7) 0.4901(7)
O4_2 O 0.1105(13) 0.0700(7) 0.1563(7)
H1_2 H 0.6528 0.5000 0.9252
C1_2 C 0.288(2) 0.2014(11) 0.8712(12)
C2_2 C 0.2979(19) 0.1814(10) 0.7727(11)
C3_2 C 0.414(2) 0.2136(10) 0.7347(11)
H2_2 H 0.4908 0.2454 0.7722
C4_2 C 0.420(2) 0.1996(10) 0.6400(12)
H3_2 H 0.5026 0.2194 0.6148
C5_2 C 0.303(2) 0.1562(11) 0.5850(12)
C6_2 C 0.183(2) 0.1241(11) 0.6211(12)
H4_2 H 0.1026 0.0965 0.5819
C7_2 C 0.183(2) 0.1331(10) 0.7153(11)
H5_2 H 0.1066 0.1073 0.7416
C8_2 C 0.2807(19) 0.0746(10) 0.4447(11)
C9_2 C 0.226(2) 0.0755(11) 0.3465(11)
H6_2 H 0.2060 0.1264 0.3141
C10_3 C 0.203(3) -0.0000 0.2998(16)
C11_3 C 0.138(3) -0.0000 0.1947(15)
C12_3 C 0.312(3) -0.0000 0.4928(15)
H7_3 H 0.3544 -0.0000 0.5570
C10_4 C 0.203(3) 1.0000 0.2998(16)
C11_4 C 0.138(3) 1.0000 0.1947(15)
C12_4 C 0.312(3) 1.0000 0.4928(15)
H7_4 H 0.3544 1.0000 0.5570
O6_2 O 0.3797(16) 0.7479(8) 0.9166(8)
O7_2 O 0.1818(15) 0.8336(8) 0.9027(8)
O8_2 O 0.3105(17) 0.8479(7) 0.4901(7)
O9_2 O 0.1105(13) 0.9300(7) 0.1563(7)
C13_2 C 0.288(2) 0.7986(11) 0.8712(12)
C14_2 C 0.2979(19) 0.8186(10) 0.7727(11)
C15_2 C 0.414(2) 0.7864(10) 0.7347(11)
H8_2 H 0.4908 0.7546 0.7722
C16_2 C 0.420(2) 0.8004(10) 0.6400(12)
H9_2 H 0.5026 0.7806 0.6148
C17_2 C 0.303(2) 0.8438(11) 0.5850(12)
C18_2 C 0.183(2) 0.8759(11) 0.6211(12)
H10_2 H 0.1026 0.9035 0.5819
C19_2 C 0.183(2) 0.8669(10) 0.7153(11)
H11_2 H 0.1066 0.8927 0.7416
C20_2 C 0.2807(19) 0.9254(10) 0.4447(11)
C21_2 C 0.226(2) 0.9245(11) 0.3465(11)
H12_2 H 0.2060 0.8736 0.3141
O15_2 O 0.1402(18) -0.0000 0.9801(11)
O1_2 O 0.1203(16) 0.7521(8) 0.0834(8)
O2_3 O 0.3182(15) 0.6664(8) 0.0973(8)
O3_3 O 0.1895(17) 0.6521(7) 0.5099(7)
O4_3 O 0.3895(13) 0.5700(7) 0.8437(7)
C1_3 C 0.212(2) 0.7014(11) 0.1288(12)
C2_3 C 0.2021(19) 0.6814(10) 0.2273(11)
C3_3 C 0.086(2) 0.7136(10) 0.2653(11)
H2_3 H 0.0092 0.7454 0.2278
C4_3 C 0.080(2) 0.6996(10) 0.3600(12)
C5_3 C 0.197(2) 0.6562(11) 0.4150(12)
C6_3 C 0.317(2) 0.6241(11) 0.3789(12)
H4_3 H 0.3974 0.5965 0.4181
C7_3 C 0.317(2) 0.6331(10) 0.2847(11)
H5_3 H 0.3934 0.6073 0.2584
C8_3 C 0.2193(19) 0.5746(10) 0.5553(11)
C9_3 C 0.274(2) 0.5755(11) 0.6535(11)
H6_3 H 0.2940 0.6264 0.6859
C10_5 C 0.297(3) 0.5000 0.7002(16)
C11_5 C 0.362(3) 0.5000 0.8053(15)
C12_5 C 0.188(3) 0.5000 0.5072(15)
H7_5 H 0.1456 0.5000 0.4430
O6_3 O 0.1203(16) 0.2479(8) 0.0834(8)
O8_3 O 0.1895(17) 0.3479(7) 0.5099(7)
C13_3 C 0.212(2) 0.2986(11) 0.1288(12)
C14_3 C 0.2021(19) 0.3186(10) 0.2273(11)
C15_3 C 0.086(2) 0.2864(10) 0.2653(11)
H8_3 H 0.0092 0.2546 0.2278
C16_3 C 0.080(2) 0.3004(10) 0.3600(12)
C17_3 C 0.197(2) 0.3438(11) 0.4150(12)
C18_3 C 0.317(2) 0.3759(11) 0.3789(12)
H10_3 H 0.3974 0.4035 0.4181
C19_3 C 0.317(2) 0.3669(10) 0.2847(11)
H11_3 H 0.3934 0.3927 0.2584
C20_3 C 0.2193(19) 0.4254(10) 0.5553(11)
C21_3 C 0.274(2) 0.4245(11) 0.6535(11)
H12_3 H 0.2940 0.3736 0.6859
O15_3 O 0.1402(18) 1.0000 0.9801(11)
O5_2 O 0.8598(18) -0.0000 0.0199(11)
H1_3 H 0.8472 -0.0000 0.0748
O5_3 O 0.8598(18) 1.0000 0.0199(11)
H1_4 H 0.8472 1.0000 0.0748
H3_3 H 0.9974 0.7194 0.3852
H9_3 H 0.9974 0.2806 0.3852
O10_2 O 0.8797(16) 0.7521(8) 0.9166(8)
H1_5 H 0.1528 -0.0000 0.9252
H1_6 H 0.1528 1.0000 0.9252
H3_4 H 0.0026 0.7194 0.6148
H9_4 H 0.0026 0.2806 0.6148
O2_4 O 0.6818(15) 0.6664(8) 0.9027(8)
O3_4 O 0.8105(17) 0.6521(7) 0.4901(7)
O4_4 O 0.6105(13) 0.5700(7) 0.1563(7)
C1_4 C 0.788(2) 0.7014(11) 0.8712(12)
C2_4 C 0.7979(19) 0.6814(10) 0.7727(11)
C3_4 C 0.914(2) 0.7136(10) 0.7347(11)
H2_4 H 0.9908 0.7454 0.7722
C4_4 C 0.920(2) 0.6996(10) 0.6400(12)
C5_4 C 0.803(2) 0.6562(11) 0.5850(12)
C6_4 C 0.683(2) 0.6241(11) 0.6211(12)
H4_4 H 0.6026 0.5965 0.5819
C7_4 C 0.683(2) 0.6331(10) 0.7153(11)
H5_4 H 0.6066 0.6073 0.7416
C8_4 C 0.7807(19) 0.5746(10) 0.4447(11)
C9_4 C 0.726(2) 0.5755(11) 0.3465(11)
H6_4 H 0.7060 0.6264 0.3141
C10_6 C 0.703(3) 0.5000 0.2998(16)
C11_6 C 0.638(3) 0.5000 0.1947(15)
C12_6 C 0.812(3) 0.5000 0.4928(15)
H7_6 H 0.8544 0.5000 0.5570
O6_4 O 0.8797(16) 0.2479(8) 0.9166(8)
O8_4 O 0.8105(17) 0.3479(7) 0.4901(7)
C13_4 C 0.788(2) 0.2986(11) 0.8712(12)
C14_4 C 0.7979(19) 0.3186(10) 0.7727(11)
C15_4 C 0.914(2) 0.2864(10) 0.7347(11)
H8_4 H 0.9908 0.2546 0.7722
C16_4 C 0.920(2) 0.3004(10) 0.6400(12)
C17_4 C 0.803(2) 0.3438(11) 0.5850(12)
C18_4 C 0.683(2) 0.3759(11) 0.6211(12)
H10_4 H 0.6026 0.4035 0.5819
C19_4 C 0.683(2) 0.3669(10) 0.7153(11)
H11_4 H 0.6066 0.3927 0.7416
C20_4 C 0.7807(19) 0.4254(10) 0.4447(11)
C21_4 C 0.726(2) 0.4245(11) 0.3465(11)
H12_4 H 0.7060 0.3736 0.3141
loop_
_geom_bond_atom_site_label_1
_geom_bond_atom_site_label_2
_geom_bond_site_symmetry_1
_geom_bond_site_symmetry_2
Th1 O1 1_555 1_555
O1 C1 1_555 1_555
O2 C1 1_555 1_555
O3 C5 1_555 1_555
O4 C11 1_555 1_555
O5 Th1 1_555 1_555
H1 O5 1_555 1_555
C1 C2 1_555 1_555
C2 C3 1_555 1_555
C3 H2 1_555 1_555
C4 C3 1_555 1_555
H3 C4 1_555 1_555
C5 C4 1_555 1_555
C6 C5 1_555 1_555
H4 C6 1_555 1_555
C7 C2 1_555 1_555
H5 C7 1_555 1_555
C8 O3 1_555 1_555
C9 C8 1_555 1_555
H6 C9 1_555 1_555
C10 C9 1_555 1_555
C11 C10 1_555 1_555
C12 C8 1_555 1_555
H7 C12 1_555 1_555
Th5 Th1 1_555 1_555
Th7_3 O2 1_555 1_555
Th7_4 O4 1_555 1_555
O12 Th1 1_555 1_555
O13 Th1 1_555 1_555
O5 Th5 1_555 1_555
C6 C7 1_555 1_555
Th5_2 Th1_2 1_555 1_555
O10 Th1_2 1_555 1_555
O11 Th1_2 1_555 1_555
O14 Th1_2 1_555 1_555
O15 Th1_2 1_555 1_555
Th5_2 O15 1_555 1_555
C11_2 C10_2 1_555 1_555
H7_2 C12_2 1_555 1_555
O6 C13 1_555 1_555
O7 C13 1_555 1_555
O8 C17 1_555 1_555
O9 C11_2 1_555 1_555
C13 C14 1_555 1_555
C14 C15 1_555 1_555
C15 H8 1_555 1_555
C16 C15 1_555 1_555
H9 C16 1_555 1_555
C17 C16 1_555 1_555
C18 C17 1_555 1_555
H10 C18 1_555 1_555
C19 C14 1_555 1_555
H11 C19 1_555 1_555
C20 C12_2 1_555 1_555
C21 C10_2 1_555 1_555
H12 C21 1_555 1_555
Th3_3 O7 1_555 1_555
Th3_4 O9 1_555 1_555
Th5 O6 1_555 1_555
O8 C20 1_555 1_555
C18 C19 1_555 1_555
C20 C21 1_555 1_555
O10 C1_2 1_555 1_555
O2_2 C1_2 1_555 1_555
O3_2 C5_2 1_555 1_555
O4_2 C11_3 1_555 1_555
H1_2 O15 1_555 1_555
C1_2 C2_2 1_555 1_555
C2_2 C3_2 1_555 1_555
C3_2 H2_2 1_555 1_555
C4_2 C3_2 1_555 1_555
H3_2 C4_2 1_555 1_555
C5_2 C4_2 1_555 1_555
C6_2 C5_2 1_555 1_555
H4_2 C6_2 1_555 1_555
C7_2 C2_2 1_555 1_555
H5_2 C7_2 1_555 1_555
C8_2 O3_2 1_555 1_555
C9_2 C8_2 1_555 1_555
H6_2 C9_2 1_555 1_555
C10_3 C9_2 1_555 1_555
C11_3 C10_3 1_555 1_555
C12_3 C8_2 1_555 1_555
H7_3 C12_3 1_555 1_555
Th7_2 O2_2 1_555 1_555
Th7 O4_2 1_555 1_555
C6_2 C7_2 1_555 1_555
C11_4 C10_4 1_555 1_555
H7_4 C12_4 1_555 1_555
O6_2 C13_2 1_555 1_555
O7_2 C13_2 1_555 1_555
O8_2 C17_2 1_555 1_555
O9_2 C11_4 1_555 1_555
C13_2 C14_2 1_555 1_555
C14_2 C15_2 1_555 1_555
C15_2 H8_2 1_555 1_555
C16_2 C15_2 1_555 1_555
H9_2 C16_2 1_555 1_555
C17_2 C16_2 1_555 1_555
C18_2 C17_2 1_555 1_555
H10_2 C18_2 1_555 1_555
C19_2 C14_2 1_555 1_555
H11_2 C19_2 1_555 1_555
C20_2 C12_4 1_555 1_555
C21_2 C10_4 1_555 1_555
H12_2 C21_2 1_555 1_555
Th3_2 O7_2 1_555 1_555
Th3 O9_2 1_555 1_555
Th5_2 O6_2 1_555 1_555
O8_2 C20_2 1_555 1_555
C18_2 C19_2 1_555 1_555
C20_2 C21_2 1_555 1_555
Th7_2 O15_2 1_555 1_555
Th3 O1_2 1_555 1_555
O1_2 C1_3 1_555 1_555
O2_3 C1_3 1_555 1_555
O3_3 C5_3 1_555 1_555
O4_3 C11_5 1_555 1_555
C1_3 C2_3 1_555 1_555
C2_3 C3_3 1_555 1_555
C3_3 H2_3 1_555 1_555
C4_3 C3_3 1_555 1_555
C5_3 C4_3 1_555 1_555
C6_3 C5_3 1_555 1_555
H4_3 C6_3 1_555 1_555
C7_3 C2_3 1_555 1_555
H5_3 C7_3 1_555 1_555
C8_3 O3_3 1_555 1_555
C9_3 C8_3 1_555 1_555
H6_3 C9_3 1_555 1_555
C10_5 C9_3 1_555 1_555
C11_5 C10_5 1_555 1_555
C12_5 C8_3 1_555 1_555
H7_5 C12_5 1_555 1_555
O6_3 C13_3 1_555 1_555
O12 C13_3 1_555 1_555
O8_3 C17_3 1_555 1_555
O14 C11_5 1_555 1_555
C13_3 C14_3 1_555 1_555
C14_3 C15_3 1_555 1_555
C15_3 H8_3 1_555 1_555
C16_3 C15_3 1_555 1_555
C17_3 C16_3 1_555 1_555
C18_3 C17_3 1_555 1_555
H10_3 C18_3 1_555 1_555
C19_3 C14_3 1_555 1_555
H11_3 C19_3 1_555 1_555
C20_3 C12_5 1_555 1_555
C21_3 C10_5 1_555 1_555
H12_3 C21_3 1_555 1_555
Th7 O6_3 1_555 1_555
Th5 O2_3 1_555 1_555
Th5_2 O4_3 1_555 1_555
C6_3 C7_3 1_555 1_555
O8_3 C20_3 1_555 1_555
C18_3 C19_3 1_555 1_555
C20_3 C21_3 1_555 1_555
O15_3 Th3_2 1_555 1_555
H1_3 O5_2 1_555 1_555
O5_2 Th7_3 1_555 1_555
O5_3 Th3_3 1_555 1_555
H1_4 O5_3 1_555 1_555
O10_2 Th3_4 1_555 1_555
H1_5 O15_2 1_555 1_555
H1_6 O15_3 1_555 1_555
O10_2 C1_4 1_555 1_555
O2_4 C1_4 1_555 1_555
O3_4 C5_4 1_555 1_555
O4_4 C11_6 1_555 1_555
C1_4 C2_4 1_555 1_555
C2_4 C3_4 1_555 1_555
C3_4 H2_4 1_555 1_555
C4_4 C3_4 1_555 1_555
C5_4 C4_4 1_555 1_555
C6_4 C5_4 1_555 1_555
H4_4 C6_4 1_555 1_555
C7_4 C2_4 1_555 1_555
H5_4 C7_4 1_555 1_555
C8_4 O3_4 1_555 1_555
C9_4 C8_4 1_555 1_555
H6_4 C9_4 1_555 1_555
C10_6 C9_4 1_555 1_555
C11_6 C10_6 1_555 1_555
C12_6 C8_4 1_555 1_555
H7_6 C12_6 1_555 1_555
O6_4 C13_4 1_555 1_555
O11 C13_4 1_555 1_555
O8_4 C17_4 1_555 1_555
O13 C11_6 1_555 1_555
C13_4 C14_4 1_555 1_555
C14_4 C15_4 1_555 1_555
C15_4 H8_4 1_555 1_555
C16_4 C15_4 1_555 1_555
C17_4 C16_4 1_555 1_555
C18_4 C17_4 1_555 1_555
H10_4 C18_4 1_555 1_555
C19_4 C14_4 1_555 1_555
H11_4 C19_4 1_555 1_555
C20_4 C12_6 1_555 1_555
C21_4 C10_6 1_555 1_555
H12_4 C21_4 1_555 1_555
Th7_4 O6_4 1_555 1_555
Th5_2 O2_4 1_555 1_555
Th5 O4_4 1_555 1_555
C6_4 C7_4 1_555 1_555
O8_4 C20_4 1_555 1_555
C18_4 C19_4 1_555 1_555
C20_4 C21_4 1_555 1_555

#END
