
###############################################################################
#
# This file contains modified crystal structure data generated from the
# MOF subset of the Cambridge Structural Database (CSD) v543 
# hosted by the Cambridge Crystallographic Data Centre (CCDC).
#
# This work is licensed under the Creative Commons
# Attribution-NonCommercial-ShareAlike 4.0 International License.
# To view a copy of this license, visit
# http://creativecommons.org/licenses/by-nc-sa/4.0/
# or send a letter to
# Creative Commons, PO Box 1866, Mountain View, CA 94042, USA.
#
# CIF created using the CSD Python API on 29 September 2022
# The structure has been converted into the P1 space group
# The structure has a 3D framework
# The original CSD entry FUZRID is in the orthorhombic crystal system
# The original CSD entry FUZRID is in a Sohncke space group
# The framework has been calculated to contain at least 10.0% void space
# The void calculation uses a probe of radius 1.32A, grid spacing 0.4
# The framework is charged, counterions have been retained in the structure
# H atom positions have been added when not included in the experimental data
# Generated hydrogen atom positions removed from atoms on special positions
#
###############################################################################

data_FUZRID
_chemical_formula_moiety         '(C128 H148 Cd12 I4 N12 O42)n'
_symmetry_cell_setting           triclinic
_symmetry_space_group_name_H-M   'P 1'
_symmetry_Int_Tables_number      1
_space_group_name_Hall           'P 1'
loop_
_symmetry_equiv_pos_site_id
_symmetry_equiv_pos_as_xyz
1 x,y,z
_cell_length_a                   18.8813(5)
_cell_length_b                   19.5703(6)
_cell_length_c                   10.2880(3)
_cell_angle_alpha                90
_cell_angle_beta                 90
_cell_angle_gamma                90
_cell_volume                     3801.55
loop_
_atom_site_label
_atom_site_type_symbol
_atom_site_fract_x
_atom_site_fract_y
_atom_site_fract_z
N6 N 0.5965(16) 0.0517(11) 0.0262(17)
C63 C 0.655(2) 0.025(2) 0.099(4)
C64 C 0.5518(17) 0.0952(16) 0.084(3)
H54 H 0.346525 0.0306145 0.0968367
H56 H 0.704448 0.0427566 0.056246
H57 H 0.651527 0.04257 0.199234
H59 H 0.497894 0.0759276 0.0754672
H60 H 0.565691 0.100071 0.186317
H61 H 0.555439 0.145002 0.0372538
Cd2 Cd 0.0000 -0.0000 0.35827(9)
Cd3 Cd 0.5000 -0.0000 0.64975(10)
O9 O 0.3332(5) 0.0213(5) 0.5272(13)
O20 O 0.5578(7) 0.0519(7) 0.8234(16)
C62 C 0.5965(17) 0.0321(15) 0.898(3)
O21 O 0.0515(4) 0.0664(4) 0.5271(8)
O22 O 0.4223(4) 0.0903(4) 0.6667(10)
I3 I 0.08856(4) 0.07279(4) 0.17412(10)
O28 O 0.5749(5) 0.0503(5) 0.5088(11)
H55 H 0.363808 0.00472081 0.866502
N3 N 0.4035(16) 0.9483(11) 0.0262(17)
O6 O 0.0640(6) 0.7404(5) 0.0395(8)
C31 C 0.345(2) 0.975(2) 0.099(4)
C32 C 0.4482(17) 0.9048(16) 0.084(3)
H49 H 0.502106 0.924072 0.0754672
H50 H 0.434309 0.899929 0.186317
H51 H 0.444561 0.854998 0.0372538
H52 H 0.295552 0.957243 0.056246
H53 H 0.348473 0.95743 0.199234
H58 H 0.653475 0.969386 0.0968367
O3 O 0.5777(4) 0.9097(4) 0.6667(10)
Cd2_2 Cd 0.0000 1.0000 0.35827(9)
O4 O 0.0471(5) 0.7276(4) 0.3485(8)
Cd3_2 Cd 0.5000 1.0000 0.64975(10)
O7 O 0.0964(4) 0.8669(4) 0.2224(7)
O8 O 0.0942(4) 0.9326(4) 0.4008(8)
O10 O 0.4251(5) 0.9497(5) 0.5088(11)
O11 O 0.4422(7) 0.9481(7) 0.8234(16)
C12 C 0.0278(6) 0.7603(6) 0.4496(10)
C13 C 0.0631(5) 0.7416(6) 0.5725(10)
C14 C 0.0349(5) 0.7598(5) 0.6953(11)
C15 C 0.0674(5) 0.7405(5) 0.8076(11)
C16 C 0.0376(7) 0.7636(5) 0.9385(11)
C17 C 0.1306(6) 0.7049(6) 0.8030(11)
H12 H 0.1532 0.6924 0.8821
C18 C 0.1620(6) 0.6868(6) 0.6856(13)
C19 C 0.2322(7) 0.6482(8) 0.6802(17)
H13 H 0.2279 0.6095 0.6204
H14 H 0.2442 0.6314 0.7672
H15 H 0.2696 0.6790 0.6496
C20 C 0.1276(6) 0.7059(6) 0.5717(11)
H16 H 0.1484 0.6944 0.4905
C21 C 0.1243(5) 0.8935(5) 0.3181(11)
C22 C 0.2011(5) 0.8793(5) 0.3416(9)
C23 C 0.2284(6) 0.8161(5) 0.3086(12)
H17 H 0.1983 0.7833 0.2689
C24 C 0.2990(6) 0.7996(6) 0.3323(14)
C25 C 0.3297(8) 0.7307(7) 0.305(2)
H18 H 0.3599 0.7167 0.3778
H19 H 0.3581 0.7327 0.2253
H20 H 0.2914 0.6975 0.2938
C26 C 0.3434(6) 0.8500(6) 0.3880(12)
H21 H 0.3920 0.8403 0.4028
C27 C 0.3157(6) 0.9145(6) 0.4215(11)
C28 C 0.3624(6) 0.9670(7) 0.4933(12)
C29 C 0.2443(5) 0.9293(5) 0.3992(11)
H22 H 0.2252 0.9725 0.4227
C30 C 0.4035(17) 0.9679(15) 0.898(3)
H62 H 0.636192 0.995279 0.866502
Cd2_3 Cd 1.0000 -0.0000 0.35827(9)
O27 O 0.9058(4) 0.0674(4) 0.4008(8)
Cd5 Cd 0.99835(4) 0.80126(3) 0.19055(6)
Cd6 Cd 0.00165(4) 0.19874(3) 0.19055(6)
I1 I 0.91144(4) 0.92721(4) 0.17412(10)
O1 O 0.9822(4) 0.8049(4) 0.4450(8)
N1 N 0.8950(4) 0.7385(5) 0.1735(10)
C1 C 0.8499(6) 0.7463(6) 0.0750(12)
H1 H 0.8620 0.7766 0.0063
O2 O 0.9485(4) 0.9336(4) 0.5271(8)
Cd2_4 Cd 1.0000 1.0000 0.35827(9)
N2 N 0.5686(4) 0.5685(4) 0.1727(9)
C2 C 0.8781(6) 0.6948(8) 0.2696(14)
H2 H 0.9100 0.6895 0.3402
O5 O 0.9889(5) 0.8041(4) 0.9423(8)
C3 C 0.7863(6) 0.7118(6) 0.0697(12)
C4 C 0.8150(7) 0.6568(8) 0.2694(15)
H4 H 0.8049 0.6249 0.3365
C5 C 0.7674(5) 0.6676(5) 0.1665(12)
C6 C 0.6983(5) 0.6307(5) 0.1705(12)
C7 C 0.6638(6) 0.6151(6) 0.0546(12)
C8 C 0.6656(6) 0.6148(6) 0.2849(11)
H6 H 0.6879 0.6265 0.3646
C9 C 0.5995(6) 0.5842(5) 0.0576(11)
C10 C 0.5997(6) 0.5815(5) 0.2878(11)
H8 H 0.5781 0.5687 0.3675
C11 C 0.4963(6) 0.5385(5) 0.1737(12)
H9 H 0.4697 0.5536 0.0959
H10 H 0.4703 0.5536 0.2521
H11 H 0.9926 0.7860 0.6993
N4 N 0.1050(4) 0.2615(5) 0.1735(10)
C33 C 0.1501(6) 0.2537(6) 0.0750(12)
H23 H 0.1380 0.2234 0.0063
N5 N 0.4314(4) 0.4315(4) 0.1727(9)
C34 C 0.1219(6) 0.3052(8) 0.2696(14)
H24 H 0.0900 0.3105 0.3402
C35 C 0.2137(6) 0.2882(6) 0.0697(12)
C36 C 0.1850(7) 0.3432(8) 0.2694(15)
H26 H 0.1951 0.3751 0.3365
C37 C 0.2326(5) 0.3324(5) 0.1665(12)
C38 C 0.3017(5) 0.3693(5) 0.1705(12)
C39 C 0.3362(6) 0.3849(6) 0.0546(12)
C40 C 0.3344(6) 0.3852(6) 0.2849(11)
H28 H 0.3121 0.3735 0.3646
C41 C 0.4005(6) 0.4158(5) 0.0576(11)
C42 C 0.4003(6) 0.4185(5) 0.2878(11)
H30 H 0.4219 0.4313 0.3675
C43 C 0.5037(6) 0.4615(5) 0.1737(12)
H31 H 0.5303 0.4464 0.0959
H32 H 0.5297 0.4464 0.2521
O12 O 0.0178(4) 0.1951(4) 0.4450(8)
O14 O 0.0111(5) 0.1959(4) 0.9423(8)
H33 H 0.0074 0.2140 0.6993
H3 H 0.7554 0.7187 0.9981
H5 H 0.6853 0.6259 0.9736
H7 H 0.5760 0.5736 0.9786
H25 H 0.2446 0.2813 0.9981
H27 H 0.3147 0.3741 0.9736
H29 H 0.4240 0.4264 0.9786
O15 O 0.9360(6) 0.2596(5) 0.0395(8)
O13 O 0.9529(5) 0.2724(4) 0.3485(8)
O16 O 0.9036(4) 0.1331(4) 0.2224(7)
C44 C 0.9722(6) 0.2397(6) 0.4496(10)
C45 C 0.9369(5) 0.2584(6) 0.5725(10)
C46 C 0.9651(5) 0.2402(5) 0.6953(11)
C47 C 0.9326(5) 0.2595(5) 0.8076(11)
C48 C 0.9624(7) 0.2364(5) 0.9385(11)
C49 C 0.8694(6) 0.2951(6) 0.8030(11)
H34 H 0.8468 0.3076 0.8821
C50 C 0.8380(6) 0.3132(6) 0.6856(13)
C51 C 0.7678(7) 0.3518(8) 0.6802(17)
H35 H 0.7721 0.3905 0.6204
H36 H 0.7558 0.3686 0.7672
H37 H 0.7304 0.3210 0.6496
C52 C 0.8724(6) 0.2941(6) 0.5717(11)
H38 H 0.8516 0.3056 0.4905
C53 C 0.8757(5) 0.1065(5) 0.3181(11)
C54 C 0.7989(5) 0.1207(5) 0.3416(9)
C55 C 0.7716(6) 0.1839(5) 0.3086(12)
H39 H 0.8017 0.2167 0.2689
C56 C 0.7010(6) 0.2004(6) 0.3323(14)
C57 C 0.6703(8) 0.2693(7) 0.305(2)
H40 H 0.6401 0.2833 0.3778
H41 H 0.6419 0.2673 0.2253
H42 H 0.7086 0.3025 0.2938
C58 C 0.6566(6) 0.1500(6) 0.3880(12)
H43 H 0.6080 0.1597 0.4028
C59 C 0.6843(6) 0.0855(6) 0.4215(11)
C60 C 0.6376(6) 0.0330(7) 0.4933(12)
C61 C 0.7557(5) 0.0707(5) 0.3992(11)
H44 H 0.7748 0.0275 0.4227
O18 O 0.6668(5) 0.9787(5) 0.5272(13)
O3_2 O 0.0777(4) 0.5903(4) 0.3333(10)
Cd3_3 Cd -0.0000 0.5000 0.35025(10)
O20_2 O 0.0578(7) 0.4481(7) 0.1766(16)
C62_2 C 0.0965(17) 0.4679(15) 0.102(3)
O28_2 O 0.0749(5) 0.4497(5) 0.4912(11)
H62_2 H 0.136192 0.504721 0.133498
N6_2 N 0.0965(16) 0.4483(11) 0.9738(17)
C63_2 C 0.155(2) 0.475(2) 0.901(4)
C64_2 C 0.0518(17) 0.4048(16) 0.916(3)
H49_2 H 0.00210633 0.575928 0.924533
H56_2 H 0.204448 0.457243 0.943754
H57_2 H 0.151527 0.45743 0.800766
H58_2 H 0.153475 0.530614 0.903163
H60_2 H 0.0656905 0.399929 0.813683
H61_2 H 0.0554386 0.354998 0.962746
H3_2 H 0.2554 0.7813 0.0019
H5_2 H 0.1853 0.8741 0.0264
H7_2 H 0.0760 0.9264 0.0214
O23 O 0.4889(5) 0.6959(4) 0.0577(8)
I1_2 I 0.41144(4) 0.57279(4) 0.82588(10)
Cd1 Cd 0.49835(4) 0.69874(3) 0.80945(6)
O1_2 O 0.4822(4) 0.6951(4) 0.5550(8)
N1_2 N 0.3950(4) 0.7615(5) 0.8265(10)
C1_2 C 0.3499(6) 0.7537(6) 0.9250(12)
H1_2 H 0.3620 0.7234 0.9937
O2_2 O 0.4485(4) 0.5664(4) 0.4729(8)
Cd2_5 Cd 0.5000 0.5000 0.64173(9)
O4_2 O 0.5471(5) 0.7724(4) 0.6515(8)
N2_2 N 0.0686(4) 0.9315(4) 0.8273(9)
C2_2 C 0.3781(6) 0.8052(8) 0.7304(14)
H2_2 H 0.4100 0.8105 0.6598
Cd3_4 Cd 1.0000 0.5000 0.35025(10)
C3_2 C 0.2863(6) 0.7882(6) 0.9303(12)
C4_2 C 0.3150(7) 0.8432(8) 0.7306(15)
H4_2 H 0.3049 0.8751 0.6635
O7_2 O 0.5964(4) 0.6331(4) 0.7776(7)
C5_2 C 0.2674(5) 0.8324(5) 0.8335(12)
O8_2 O 0.5942(4) 0.5674(4) 0.5992(8)
C6_2 C 0.1983(5) 0.8693(5) 0.8295(12)
O9_2 O 0.8332(5) 0.4787(5) 0.4728(13)
C7_2 C 0.1638(6) 0.8849(6) 0.9454(12)
O10_2 O 0.9251(5) 0.5503(5) 0.4912(11)
C8_2 C 0.1656(6) 0.8852(6) 0.7151(11)
H6_2 H 0.1879 0.8735 0.6354
O11_2 O 0.9422(7) 0.5519(7) 0.1766(16)
C9_2 C 0.0995(6) 0.9158(5) 0.9424(11)
C10_2 C 0.0997(6) 0.9185(5) 0.7122(11)
H8_2 H 0.0781 0.9313 0.6325
C12_2 C 0.5278(6) 0.7397(6) 0.5504(10)
C13_2 C 0.5631(5) 0.7584(6) 0.4275(10)
C14_2 C 0.5349(5) 0.7402(5) 0.3047(11)
H11_2 H 0.4926 0.7140 0.3007
C15_2 C 0.5674(5) 0.7595(5) 0.1924(11)
C16_2 C 0.5376(7) 0.7364(5) 0.0615(11)
C17_2 C 0.6306(6) 0.7951(6) 0.1970(11)
H12_2 H 0.6532 0.8076 0.1179
C18_2 C 0.6620(6) 0.8132(6) 0.3144(13)
C19_2 C 0.7322(7) 0.8518(8) 0.3198(17)
H13_2 H 0.7279 0.8905 0.3796
H14_2 H 0.7442 0.8686 0.2328
H15_2 H 0.7696 0.8210 0.3504
C20_2 C 0.6276(6) 0.7941(6) 0.4283(11)
H16_2 H 0.6484 0.8056 0.5095
C21_2 C 0.6243(5) 0.6065(5) 0.6819(11)
C22_2 C 0.7011(5) 0.6207(5) 0.6584(9)
C23_2 C 0.7284(6) 0.6839(5) 0.6914(12)
H17_2 H 0.6983 0.7167 0.7311
C24_2 C 0.7990(6) 0.7004(6) 0.6677(14)
C25_2 C 0.8297(8) 0.7693(7) 0.695(2)
H18_2 H 0.8599 0.7833 0.6222
H19_2 H 0.8581 0.7673 0.7747
H20_2 H 0.7914 0.8025 0.7062
C26_2 C 0.8434(6) 0.6500(6) 0.6120(12)
H21_2 H 0.8920 0.6597 0.5972
C27_2 C 0.8157(6) 0.5855(6) 0.5785(11)
C28_2 C 0.8624(6) 0.5330(7) 0.5067(12)
C29_2 C 0.7443(5) 0.5707(5) 0.6008(11)
H22_2 H 0.7252 0.5275 0.5773
C30_2 C 0.9035(17) 0.5321(15) 0.102(3)
O21_2 O 0.5515(4) 0.4336(4) 0.4729(8)
O22_2 O 0.9223(4) 0.4097(4) 0.3333(10)
I3_2 I 0.58856(4) 0.42721(4) 0.82588(10)
O25 O 0.5640(6) 0.7596(5) 0.9605(8)
O27_2 O 0.4058(4) 0.4326(4) 0.5992(8)
H55_2 H 0.863808 0.495279 0.133498
N3_2 N 0.9035(16) 0.5517(11) 0.9738(17)
C31_2 C 0.845(2) 0.525(2) 0.901(4)
C32_2 C 0.9482(17) 0.5952(16) 0.916(3)
H50_2 H 0.934309 0.600071 0.813683
H51_2 H 0.944561 0.645002 0.962746
H52_2 H 0.795552 0.542757 0.943754
H53_2 H 0.848473 0.54257 0.800766
H54_2 H 0.846525 0.469386 0.903163
H59_2 H 0.997894 0.424072 0.924533
H25_2 H 0.7446 0.2187 0.0019
H27_2 H 0.8147 0.1259 0.0264
H29_2 H 0.9240 0.0736 0.0214
O24 O 0.5111(5) 0.3041(4) 0.0577(8)
N4_2 N 0.6050(4) 0.2385(5) 0.8265(10)
C33_2 C 0.6501(6) 0.2463(6) 0.9250(12)
H23_2 H 0.6380 0.2766 0.9937
N5_2 N 0.9314(4) 0.0685(4) 0.8273(9)
C34_2 C 0.6219(6) 0.1948(8) 0.7304(14)
H24_2 H 0.5900 0.1895 0.6598
C35_2 C 0.7137(6) 0.2118(6) 0.9303(12)
C36_2 C 0.6850(7) 0.1568(8) 0.7306(15)
H26_2 H 0.6951 0.1249 0.6635
C37_2 C 0.7326(5) 0.1676(5) 0.8335(12)
C38_2 C 0.8017(5) 0.1307(5) 0.8295(12)
C39_2 C 0.8362(6) 0.1151(6) 0.9454(12)
C40_2 C 0.8344(6) 0.1148(6) 0.7151(11)
H28_2 H 0.8121 0.1265 0.6354
C41_2 C 0.9005(6) 0.0842(5) 0.9424(11)
C42_2 C 0.9003(6) 0.0815(5) 0.7122(11)
H30_2 H 0.9219 0.0687 0.6325
Cd4 Cd 0.50165(4) 0.30126(3) 0.80945(6)
O12_2 O 0.5178(4) 0.3049(4) 0.5550(8)
O13_2 O 0.4529(5) 0.2276(4) 0.6515(8)
O16_2 O 0.4036(4) 0.3669(4) 0.7776(7)
O18_2 O 0.1668(5) 0.5213(5) 0.4728(13)
C44_2 C 0.4722(6) 0.2603(6) 0.5504(10)
C45_2 C 0.4369(5) 0.2416(6) 0.4275(10)
C46_2 C 0.4651(5) 0.2598(5) 0.3047(11)
H33_2 H 0.5074 0.2860 0.3007
C47_2 C 0.4326(5) 0.2405(5) 0.1924(11)
C48_2 C 0.4624(7) 0.2636(5) 0.0615(11)
C49_2 C 0.3694(6) 0.2049(6) 0.1970(11)
H34_2 H 0.3468 0.1924 0.1179
C50_2 C 0.3380(6) 0.1868(6) 0.3144(13)
C51_2 C 0.2678(7) 0.1482(8) 0.3198(17)
H35_2 H 0.2721 0.1095 0.3796
H36_2 H 0.2558 0.1314 0.2328
H37_2 H 0.2304 0.1790 0.3504
C52_2 C 0.3724(6) 0.2059(6) 0.4283(11)
H38_2 H 0.3516 0.1944 0.5095
C53_2 C 0.3757(5) 0.3935(5) 0.6819(11)
C54_2 C 0.2989(5) 0.3793(5) 0.6584(9)
C55_2 C 0.2716(6) 0.3161(5) 0.6914(12)
H39_2 H 0.3017 0.2833 0.7311
C56_2 C 0.2010(6) 0.2996(6) 0.6677(14)
C57_2 C 0.1703(8) 0.2307(7) 0.695(2)
H40_2 H 0.1401 0.2167 0.6222
H41_2 H 0.1419 0.2327 0.7747
H42_2 H 0.2086 0.1975 0.7062
C58_2 C 0.1566(6) 0.3500(6) 0.6120(12)
H43_2 H 0.1080 0.3403 0.5972
C59_2 C 0.1843(6) 0.4145(6) 0.5785(11)
C60_2 C 0.1376(6) 0.4670(7) 0.5067(12)
C61_2 C 0.2557(5) 0.4293(5) 0.6008(11)
H44_2 H 0.2748 0.4725 0.5773
O26 O 0.4360(6) 0.2404(5) 0.9605(8)
C43_2 C 0.0037(6) 0.0385(5) 0.8263(12)
H31_2 H 0.0303 0.0536 0.9041
H32_2 H 0.0297 0.0536 0.7479
C11_2 C 0.9963(6) 0.9615(5) 0.8263(12)
H9_2 H 0.9697 0.9464 0.9041
H10_2 H 0.9703 0.9464 0.7479
loop_
_geom_bond_atom_site_label_1
_geom_bond_atom_site_label_2
_geom_bond_site_symmetry_1
_geom_bond_site_symmetry_2
C63 N6 1_555 1_555
C64 N6 1_555 1_555
C63 H56 1_555 1_555
C63 H57 1_555 1_555
C64 H59 1_555 1_555
C64 H60 1_555 1_555
C64 H61 1_555 1_555
O20 Cd3 1_555 1_555
C62 O20 1_555 1_555
O21 Cd2 1_555 1_555
O22 Cd3 1_555 1_555
I3 Cd2 1_555 1_555
O28 Cd3 1_555 1_555
C31 N3 1_555 1_555
C32 N3 1_555 1_555
C32 H49 1_555 1_555
C32 H50 1_555 1_555
C32 H51 1_555 1_555
C31 H52 1_555 1_555
C31 H53 1_555 1_555
O3 Cd3_2 1_555 1_555
Cd3_2 O10 1_555 1_555
O8 Cd2_2 1_555 1_555
O10 C28 1_555 1_555
O11 Cd3_2 1_555 1_555
C12 O4 1_555 1_555
C13 C12 1_555 1_555
C14 C13 1_555 1_555
C15 C14 1_555 1_555
C16 C15 1_555 1_555
C17 C15 1_555 1_555
H12 C17 1_555 1_555
C18 C17 1_555 1_555
C19 C18 1_555 1_555
H13 C19 1_555 1_555
H14 C19 1_555 1_555
H15 C19 1_555 1_555
C20 C13 1_555 1_555
H16 C20 1_555 1_555
C21 O7 1_555 1_555
C22 C21 1_555 1_555
C23 C22 1_555 1_555
H17 C23 1_555 1_555
C24 C23 1_555 1_555
C25 C24 1_555 1_555
H18 C25 1_555 1_555
H19 C25 1_555 1_555
H20 C25 1_555 1_555
C26 C24 1_555 1_555
H21 C26 1_555 1_555
C27 C26 1_555 1_555
C28 C27 1_555 1_555
C29 C22 1_555 1_555
H22 C29 1_555 1_555
C30 O11 1_555 1_555
O8 C21 1_555 1_555
C18 C20 1_555 1_555
C27 C29 1_555 1_555
O27 Cd2_3 1_555 1_555
I1 Cd5 1_555 1_555
Cd5 O1 1_555 1_555
N1 Cd5 1_555 1_555
C1 N1 1_555 1_555
H1 C1 1_555 1_555
O2 Cd2_4 1_555 1_555
Cd2_4 I1 1_555 1_555
N2 C9 1_555 1_555
C2 N1 1_555 1_555
H2 C2 1_555 1_555
C3 C1 1_555 1_555
C4 C2 1_555 1_555
H4 C4 1_555 1_555
C5 C3 1_555 1_555
C6 C5 1_555 1_555
C7 C6 1_555 1_555
C8 C6 1_555 1_555
H6 C8 1_555 1_555
C9 C7 1_555 1_555
C10 N2 1_555 1_555
H8 C10 1_555 1_555
C11 N2 1_555 1_555
H9 C11 1_555 1_555
H10 C11 1_555 1_555
N4 C33 1_555 1_555
C33 H23 1_555 1_555
N5 C41 1_555 1_555
C34 N4 1_555 1_555
H24 C34 1_555 1_555
C35 C33 1_555 1_555
C36 C34 1_555 1_555
H26 C36 1_555 1_555
C37 C35 1_555 1_555
C38 C37 1_555 1_555
C39 C38 1_555 1_555
C40 C38 1_555 1_555
H28 C40 1_555 1_555
C41 C39 1_555 1_555
C42 N5 1_555 1_555
H30 C42 1_555 1_555
C43 C11 1_555 1_555
H31 C43 1_555 1_555
H32 C43 1_555 1_555
I3 Cd6 1_555 1_555
Cd6 N4 1_555 1_555
O12 Cd6 1_555 1_555
C4 C5 1_555 1_555
C8 C10 1_555 1_555
N5 C43 1_555 1_555
C36 C37 1_555 1_555
C40 C42 1_555 1_555
O27 C53 1_555 1_555
O28 C60 1_555 1_555
C45 C44 1_555 1_555
C46 C45 1_555 1_555
C47 C46 1_555 1_555
C48 C47 1_555 1_555
C49 C47 1_555 1_555
H34 C49 1_555 1_555
C50 C49 1_555 1_555
C51 C50 1_555 1_555
H35 C51 1_555 1_555
H36 C51 1_555 1_555
H37 C51 1_555 1_555
C52 C45 1_555 1_555
H38 C52 1_555 1_555
C53 O16 1_555 1_555
C54 C53 1_555 1_555
C55 C54 1_555 1_555
H39 C55 1_555 1_555
C56 C55 1_555 1_555
C57 C56 1_555 1_555
H40 C57 1_555 1_555
H41 C57 1_555 1_555
H42 C57 1_555 1_555
C58 C56 1_555 1_555
H43 C58 1_555 1_555
C59 C58 1_555 1_555
C60 C59 1_555 1_555
C61 C54 1_555 1_555
H44 C61 1_555 1_555
O13 C44 1_555 1_555
C50 C52 1_555 1_555
C59 C61 1_555 1_555
O3_2 Cd3_3 1_555 1_555
O20_2 Cd3_3 1_555 1_555
C62_2 O20_2 1_555 1_555
O28_2 Cd3_3 1_555 1_555
C62_2 H62_2 1_555 1_555
C63_2 N6_2 1_555 1_555
C64_2 N6_2 1_555 1_555
C63_2 H56_2 1_555 1_555
C63_2 H57_2 1_555 1_555
C63_2 H58_2 1_555 1_555
C64_2 H60_2 1_555 1_555
C64_2 H61_2 1_555 1_555
I1_2 Cd1 1_555 1_555
Cd1 O1_2 1_555 1_555
O1_2 C12_2 1_555 1_555
N1_2 Cd1 1_555 1_555
C1_2 N1_2 1_555 1_555
H1_2 C1_2 1_555 1_555
O2_2 Cd2_5 1_555 1_555
Cd2_5 I1_2 1_555 1_555
O4_2 Cd1 1_555 1_555
N2_2 C9_2 1_555 1_555
C2_2 N1_2 1_555 1_555
H2_2 C2_2 1_555 1_555
Cd3_4 O10_2 1_555 1_555
O23 C16_2 1_555 1_555
C3_2 C1_2 1_555 1_555
C4_2 C2_2 1_555 1_555
H4_2 C4_2 1_555 1_555
O7_2 Cd1 1_555 1_555
C5_2 C3_2 1_555 1_555
O8_2 Cd2_5 1_555 1_555
C6_2 C5_2 1_555 1_555
O9_2 C28_2 1_555 1_555
C7_2 C6_2 1_555 1_555
O10_2 C28_2 1_555 1_555
C8_2 C6_2 1_555 1_555
H6_2 C8_2 1_555 1_555
O11_2 Cd3_4 1_555 1_555
C9_2 C7_2 1_555 1_555
C10_2 N2_2 1_555 1_555
H8_2 C10_2 1_555 1_555
C12_2 O4_2 1_555 1_555
C13_2 C12_2 1_555 1_555
C14_2 C13_2 1_555 1_555
H11_2 C14_2 1_555 1_555
C15_2 C14_2 1_555 1_555
C16_2 C15_2 1_555 1_555
C17_2 C15_2 1_555 1_555
H12_2 C17_2 1_555 1_555
C18_2 C17_2 1_555 1_555
C19_2 C18_2 1_555 1_555
H13_2 C19_2 1_555 1_555
H14_2 C19_2 1_555 1_555
H15_2 C19_2 1_555 1_555
C20_2 C13_2 1_555 1_555
H16_2 C20_2 1_555 1_555
C21_2 O7_2 1_555 1_555
C22_2 C21_2 1_555 1_555
C23_2 C22_2 1_555 1_555
H17_2 C23_2 1_555 1_555
C24_2 C23_2 1_555 1_555
C25_2 C24_2 1_555 1_555
H18_2 C25_2 1_555 1_555
H19_2 C25_2 1_555 1_555
H20_2 C25_2 1_555 1_555
C26_2 C24_2 1_555 1_555
H21_2 C26_2 1_555 1_555
C27_2 C26_2 1_555 1_555
C28_2 C27_2 1_555 1_555
C29_2 C22_2 1_555 1_555
H22_2 C29_2 1_555 1_555
C30_2 O11_2 1_555 1_555
O21_2 Cd2_5 1_555 1_555
O22_2 Cd3_4 1_555 1_555
I3_2 Cd2_5 1_555 1_555
O25 Cd1 1_555 1_555
O27_2 Cd2_5 1_555 1_555
C4_2 C5_2 1_555 1_555
O8_2 C21_2 1_555 1_555
C8_2 C10_2 1_555 1_555
C18_2 C20_2 1_555 1_555
C27_2 C29_2 1_555 1_555
C30_2 H55_2 1_555 1_555
C31_2 N3_2 1_555 1_555
C32_2 N3_2 1_555 1_555
C32_2 H50_2 1_555 1_555
C32_2 H51_2 1_555 1_555
C31_2 H52_2 1_555 1_555
C31_2 H53_2 1_555 1_555
C31_2 H54_2 1_555 1_555
N4_2 C33_2 1_555 1_555
C33_2 H23_2 1_555 1_555
N5_2 C41_2 1_555 1_555
C34_2 N4_2 1_555 1_555
H24_2 C34_2 1_555 1_555
C35_2 C33_2 1_555 1_555
C36_2 C34_2 1_555 1_555
H26_2 C36_2 1_555 1_555
C37_2 C35_2 1_555 1_555
C38_2 C37_2 1_555 1_555
C39_2 C38_2 1_555 1_555
C40_2 C38_2 1_555 1_555
H28_2 C40_2 1_555 1_555
C41_2 C39_2 1_555 1_555
C42_2 N5_2 1_555 1_555
H30_2 C42_2 1_555 1_555
I3_2 Cd4 1_555 1_555
Cd4 N4_2 1_555 1_555
O12_2 Cd4 1_555 1_555
O13_2 Cd4 1_555 1_555
O24 C48_2 1_555 1_555
O16_2 Cd4 1_555 1_555
O27_2 C53_2 1_555 1_555
O18_2 C60_2 1_555 1_555
O28_2 C60_2 1_555 1_555
C44_2 O12_2 1_555 1_555
C45_2 C44_2 1_555 1_555
C46_2 C45_2 1_555 1_555
H33_2 C46_2 1_555 1_555
C47_2 C46_2 1_555 1_555
C48_2 C47_2 1_555 1_555
C49_2 C47_2 1_555 1_555
H34_2 C49_2 1_555 1_555
C50_2 C49_2 1_555 1_555
C51_2 C50_2 1_555 1_555
H35_2 C51_2 1_555 1_555
H36_2 C51_2 1_555 1_555
H37_2 C51_2 1_555 1_555
C52_2 C45_2 1_555 1_555
H38_2 C52_2 1_555 1_555
C53_2 O16_2 1_555 1_555
C54_2 C53_2 1_555 1_555
C55_2 C54_2 1_555 1_555
H39_2 C55_2 1_555 1_555
C56_2 C55_2 1_555 1_555
C57_2 C56_2 1_555 1_555
H40_2 C57_2 1_555 1_555
H41_2 C57_2 1_555 1_555
H42_2 C57_2 1_555 1_555
C58_2 C56_2 1_555 1_555
H43_2 C58_2 1_555 1_555
C59_2 C58_2 1_555 1_555
C60_2 C59_2 1_555 1_555
C61_2 C54_2 1_555 1_555
H44_2 C61_2 1_555 1_555
O26 Cd4 1_555 1_555
C36_2 C37_2 1_555 1_555
C40_2 C42_2 1_555 1_555
O13_2 C44_2 1_555 1_555
C50_2 C52_2 1_555 1_555
C59_2 C61_2 1_555 1_555
H31_2 C43_2 1_555 1_555
H32_2 C43_2 1_555 1_555
H9_2 C11_2 1_555 1_555
H10_2 C11_2 1_555 1_555

#END
