
###############################################################################
#
# This file contains modified crystal structure data generated from the
# MOF subset of the Cambridge Structural Database (CSD) v543 
# hosted by the Cambridge Crystallographic Data Centre (CCDC).
#
# This work is licensed under the Creative Commons
# Attribution-NonCommercial-ShareAlike 4.0 International License.
# To view a copy of this license, visit
# http://creativecommons.org/licenses/by-nc-sa/4.0/
# or send a letter to
# Creative Commons, PO Box 1866, Mountain View, CA 94042, USA.
#
# CIF created using the CSD Python API on 29 September 2022
# The structure has been converted into the P1 space group
# The structure has a 3D framework
# The original CSD entry FUZROJ is in the orthorhombic crystal system
# The original CSD entry FUZROJ is in a Sohncke space group
# The framework has been calculated to contain at least 10.0% void space
# The void calculation uses a probe of radius 1.32A, grid spacing 0.4
# H atom positions have been added when not included in the experimental data
# Generated hydrogen atom positions removed from atoms on special positions
#
###############################################################################

data_FUZROJ
_chemical_formula_moiety         '(C128 H148 Br3 Cd12 N12 O40)n'
_symmetry_cell_setting           triclinic
_symmetry_space_group_name_H-M   'P 1'
_symmetry_Int_Tables_number      1
_space_group_name_Hall           'P 1'
loop_
_symmetry_equiv_pos_site_id
_symmetry_equiv_pos_as_xyz
1 x,y,z
_cell_length_a                   18.8289(4)
_cell_length_b                   19.1993(3)
_cell_length_c                   10.2457(2)
_cell_angle_alpha                90
_cell_angle_beta                 90
_cell_angle_gamma                90
_cell_volume                     3703.84
loop_
_atom_site_label
_atom_site_type_symbol
_atom_site_fract_x
_atom_site_fract_y
_atom_site_fract_z
Cd7 Cd 0.00076(2) 0.801872(17) 0.18145(3)
Cd2 Cd 0.0000 0.0000 0.35048(5)
Br1 Br 0.07625(4) 0.07431(4) 0.16809(7)
O1 O 0.0172(2) 0.1967(2) 0.4387(4)
O2 O 0.0523(2) 0.0680(2) 0.5192(5)
O5 O 0.0105(2) 0.1981(2) 0.9343(4)
N1 N 0.1026(3) 0.2605(3) 0.1689(6)
N2 N 0.4317(3) 0.4301(3) 0.1753(5)
C1 C 0.1488(3) 0.2498(4) 0.0735(6)
H1 H 0.1372 0.2174 0.0067
C2 C 0.1194(4) 0.3062(4) 0.2628(7)
H2 H 0.0863 0.3143 0.3311
C3 C 0.2145(3) 0.2846(3) 0.0675(6)
C4 C 0.1827(4) 0.3419(4) 0.2643(7)
H4 H 0.1928 0.3739 0.3326
C5 C 0.2313(3) 0.3310(3) 0.1659(7)
C6 C 0.3005(3) 0.3680(3) 0.1697(7)
C7 C 0.3350(3) 0.3855(3) 0.0541(6)
C8 C 0.3329(3) 0.3833(3) 0.2874(7)
H6 H 0.3096 0.3723 0.3670
C9 C 0.4010(3) 0.4173(3) 0.0600(7)
C10 C 0.3990(3) 0.4146(3) 0.2898(6)
H8 H 0.4213 0.4252 0.3706
C11 C 0.5027(4) 0.4603(3) 0.1779(5)
H9 H 0.5299 0.4446 0.1005
H10 H 0.5282 0.4445 0.2570
H11 H 0.0064 0.2182 0.6898
N4 N 0.8974(3) 0.7395(3) 0.1689(6)
N5 N 0.5683(3) 0.5699(3) 0.1753(5)
C33 C 0.8512(3) 0.7502(4) 0.0735(6)
H23 H 0.8628 0.7826 0.0067
C34 C 0.8806(4) 0.6938(4) 0.2628(7)
H24 H 0.9137 0.6857 0.3311
C35 C 0.7855(3) 0.7154(3) 0.0675(6)
C36 C 0.8173(4) 0.6581(4) 0.2643(7)
H26 H 0.8072 0.6261 0.3326
C37 C 0.7687(3) 0.6690(3) 0.1659(7)
C38 C 0.6995(3) 0.6320(3) 0.1697(7)
C39 C 0.6650(3) 0.6145(3) 0.0541(6)
C40 C 0.6671(3) 0.6167(3) 0.2874(7)
H28 H 0.6904 0.6277 0.3670
C41 C 0.5990(3) 0.5827(3) 0.0600(7)
C42 C 0.6010(3) 0.5854(3) 0.2898(6)
H30 H 0.5787 0.5748 0.3706
C43 C 0.4973(4) 0.5397(3) 0.1779(5)
H31 H 0.4701 0.5554 0.1005
H32 H 0.4718 0.5555 0.2570
H3 H 0.2465 0.2765 0.9975
H5 H 0.3135 0.3758 0.9722
H7 H 0.4246 0.4300 0.9816
H25 H 0.7535 0.7235 0.9975
H27 H 0.6865 0.6242 0.9722
H29 H 0.5754 0.5700 0.9816
Cd2_2 Cd -0.0000 1.0000 0.35048(5)
O27 O 0.0950(2) 0.9338(2) 0.3950(4)
O6 O 0.9301(3) 0.2618(3) 0.0349(4)
N3 N 0.5969(7) 0.0483(5) 0.0386(9)
C31 C 0.6486(11) 0.0121(12) 0.1214(16)
C32 C 0.5538(7) 0.1007(6) 0.0976(14)
Cd5 Cd 0.99924(2) 0.198128(17) 0.18145(3)
H49 H 0.701694 0.019005 0.0812808
H50 H 0.646683 0.0336015 0.219693
H52 H 0.498174 0.0855399 0.0912741
H53 H 0.568736 0.106598 0.199686
H54 H 0.561597 0.149952 0.046867
H60 H 0.364183 0.0431898 0.124717
Cd2_3 Cd 1.0000 0.0000 0.35048(5)
Cd3 Cd 0.5000 0.0000 0.66056(6)
O3 O 0.9491(2) 0.2732(2) 0.3380(4)
O4 O 0.4188(3) 0.0896(2) 0.6823(5)
O7 O 0.9015(2) 0.1327(2) 0.2145(4)
O8 O 0.9050(2) 0.0662(2) 0.3950(4)
O10 O 0.5744(3) 0.0508(3) 0.5186(5)
O11 O 0.5549(3) 0.0558(3) 0.8336(7)
C12 C 0.9697(3) 0.2426(3) 0.4400(6)
C13 C 0.9337(3) 0.2614(3) 0.5656(6)
C14 C 0.9631(3) 0.2435(3) 0.6865(6)
C15 C 0.9295(3) 0.2624(3) 0.8012(6)
C16 C 0.9596(4) 0.2397(3) 0.9316(6)
C17 C 0.8654(4) 0.2982(4) 0.7959(6)
H12 H 0.8427 0.3112 0.8749
C18 C 0.8338(3) 0.3154(3) 0.6771(7)
C19 C 0.7623(4) 0.3522(4) 0.6719(8)
H13 H 0.7384 0.3476 0.7565
H14 H 0.7328 0.3310 0.6037
H15 H 0.7695 0.4016 0.6521
C20 C 0.8688(3) 0.2967(4) 0.5621(6)
H16 H 0.8482 0.3081 0.4803
C21 C 0.8744(3) 0.1060(3) 0.3147(6)
C22 C 0.7979(3) 0.1215(3) 0.3402(6)
C23 C 0.7686(3) 0.1860(3) 0.3037(6)
H17 H 0.7977 0.2191 0.2602
C24 C 0.6983(3) 0.2023(3) 0.3299(7)
C25 C 0.6679(4) 0.2728(4) 0.2977(9)
H18 H 0.7043 0.3011 0.2544
H19 H 0.6528 0.2959 0.3783
H20 H 0.6270 0.2672 0.2394
C26 C 0.6561(3) 0.1517(3) 0.3902(6)
H21 H 0.6076 0.1617 0.4076
C27 C 0.6837(3) 0.0868(3) 0.4255(6)
C28 C 0.6388(3) 0.0344(4) 0.4975(7)
C29 C 0.7553(3) 0.0719(3) 0.4009(6)
H22 H 0.7747 0.0282 0.4255
C30 C 0.5925(7) 0.0282(6) 0.9150(12)
O19 O 0.3320(3) 0.0207(3) 0.5328(6)
H64 H 0.375274 0.0159801 0.884407
O16 O 0.0699(3) 0.7382(3) 0.0349(4)
N6 N 0.4031(7) 0.9517(5) 0.0386(9)
C63 C 0.3514(11) 0.9879(12) 0.1214(16)
C64 C 0.4462(7) 0.8993(6) 0.0976(14)
H51 H 0.635817 0.95681 0.124717
H58 H 0.298306 0.980995 0.0812808
H59 H 0.353317 0.966398 0.219693
H61 H 0.501826 0.91446 0.0912741
H62 H 0.431264 0.893402 0.199686
H63 H 0.438403 0.850048 0.046867
Cd2_4 Cd 1.0000 1.0000 0.35048(5)
Cd3_2 Cd 0.5000 1.0000 0.66056(6)
O9 O 0.6680(3) 0.9793(3) 0.5328(6)
O13 O 0.0509(2) 0.7268(2) 0.3380(4)
O14 O 0.5812(3) 0.9104(2) 0.6823(5)
O17 O 0.0985(2) 0.8673(2) 0.2145(4)
O20 O 0.4256(3) 0.9492(3) 0.5186(5)
O21 O 0.4451(3) 0.9442(3) 0.8336(7)
C44 C 0.0303(3) 0.7574(3) 0.4400(6)
C45 C 0.0663(3) 0.7386(3) 0.5656(6)
C46 C 0.0369(3) 0.7565(3) 0.6865(6)
C47 C 0.0705(3) 0.7376(3) 0.8012(6)
C48 C 0.0404(4) 0.7603(3) 0.9316(6)
C49 C 0.1346(4) 0.7018(4) 0.7959(6)
H34 H 0.1573 0.6888 0.8749
C50 C 0.1662(3) 0.6846(3) 0.6771(7)
C51 C 0.2377(4) 0.6478(4) 0.6719(8)
H35 H 0.2616 0.6524 0.7565
H36 H 0.2672 0.6690 0.6037
H37 H 0.2305 0.5984 0.6521
C52 C 0.1312(3) 0.7033(4) 0.5621(6)
H38 H 0.1518 0.6919 0.4803
C53 C 0.1256(3) 0.8940(3) 0.3147(6)
C54 C 0.2021(3) 0.8785(3) 0.3402(6)
C55 C 0.2314(3) 0.8140(3) 0.3037(6)
H39 H 0.2023 0.7809 0.2602
C56 C 0.3017(3) 0.7977(3) 0.3299(7)
C57 C 0.3321(4) 0.7272(4) 0.2977(9)
H40 H 0.2957 0.6989 0.2544
H41 H 0.3472 0.7041 0.3783
H42 H 0.3730 0.7328 0.2394
C58 C 0.3439(3) 0.8483(3) 0.3902(6)
H43 H 0.3924 0.8383 0.4076
C59 C 0.3163(3) 0.9132(3) 0.4255(6)
C60 C 0.3612(3) 0.9656(4) 0.4975(7)
C61 C 0.2447(3) 0.9281(3) 0.4009(6)
H44 H 0.2253 0.9718 0.4255
C62 C 0.4075(7) 0.9718(6) 0.9150(12)
O22 O 0.9477(2) 0.9320(2) 0.5192(5)
Br3 Br 0.92375(4) 0.92569(4) 0.16809(7)
H55 H 0.624726 0.98402 0.884407
O12 O 0.9828(2) 0.8033(2) 0.4387(4)
O15 O 0.9895(2) 0.8019(2) 0.9343(4)
H33 H 0.9936 0.7818 0.6898
C11_2 C 0.0027(4) 0.0397(3) 0.8221(5)
H9_2 H 0.0299 0.0554 0.8995
H10_2 H 0.0282 0.0555 0.7430
H25_2 H 0.2535 0.7765 0.0025
H27_2 H 0.1865 0.8758 0.0278
H29_2 H 0.0754 0.9300 0.0184
N4_2 N 0.3974(3) 0.7605(3) 0.8311(6)
N5_2 N 0.0683(3) 0.9301(3) 0.8247(5)
C33_2 C 0.3512(3) 0.7498(4) 0.9265(6)
H23_2 H 0.3628 0.7174 0.9933
C34_2 C 0.3806(4) 0.8062(4) 0.7372(7)
H24_2 H 0.4137 0.8143 0.6689
C35_2 C 0.2855(3) 0.7846(3) 0.9325(6)
C36_2 C 0.3173(4) 0.8419(4) 0.7357(7)
H26_2 H 0.3072 0.8739 0.6674
C37_2 C 0.2687(3) 0.8310(3) 0.8341(7)
C38_2 C 0.1995(3) 0.8680(3) 0.8303(7)
C39_2 C 0.1650(3) 0.8855(3) 0.9459(6)
C40_2 C 0.1671(3) 0.8833(3) 0.7126(7)
H28_2 H 0.1904 0.8723 0.6330
C41_2 C 0.0990(3) 0.9173(3) 0.9400(7)
C42_2 C 0.1010(3) 0.9146(3) 0.7102(6)
H30_2 H 0.0787 0.9252 0.6294
Cd7_2 Cd 0.50076(2) 0.698128(17) 0.81855(3)
H3_2 H 0.7465 0.2235 0.0025
H5_2 H 0.8135 0.1242 0.0278
H7_2 H 0.9246 0.0700 0.0184
O23 O 0.5105(2) 0.3019(2) 0.0657(4)
Cd1 Cd 0.49924(2) 0.301872(17) 0.81855(3)
Cd2_5 Cd 0.5000 0.5000 0.64952(5)
Cd3_3 Cd -0.0000 0.5000 0.33944(6)
Br1_2 Br 0.57625(4) 0.42569(4) 0.83191(7)
O1_2 O 0.5172(2) 0.3033(2) 0.5613(4)
O2_2 O 0.5523(2) 0.4320(2) 0.4808(5)
O3_2 O 0.4491(2) 0.2268(2) 0.6620(4)
O7_2 O 0.4015(2) 0.3673(2) 0.7855(4)
O8_2 O 0.4050(2) 0.4338(2) 0.6050(4)
O9_2 O 0.1680(3) 0.5207(3) 0.4672(6)
O10_2 O 0.0744(3) 0.4492(3) 0.4814(5)
O11_2 O 0.0549(3) 0.4442(3) 0.1664(7)
N1_2 N 0.6026(3) 0.2395(3) 0.8311(6)
N2_2 N 0.9317(3) 0.0699(3) 0.8247(5)
C1_2 C 0.6488(3) 0.2502(4) 0.9265(6)
H1_2 H 0.6372 0.2826 0.9933
C2_2 C 0.6194(4) 0.1938(4) 0.7372(7)
H2_2 H 0.5863 0.1857 0.6689
C3_2 C 0.7145(3) 0.2154(3) 0.9325(6)
C4_2 C 0.6827(4) 0.1581(4) 0.7357(7)
H4_2 H 0.6928 0.1261 0.6674
C5_2 C 0.7313(3) 0.1690(3) 0.8341(7)
C6_2 C 0.8005(3) 0.1320(3) 0.8303(7)
C7_2 C 0.8350(3) 0.1145(3) 0.9459(6)
C8_2 C 0.8329(3) 0.1167(3) 0.7126(7)
H6_2 H 0.8096 0.1277 0.6330
C9_2 C 0.9010(3) 0.0827(3) 0.9400(7)
C10_2 C 0.8990(3) 0.0854(3) 0.7102(6)
H8_2 H 0.9213 0.0748 0.6294
C12_2 C 0.4697(3) 0.2574(3) 0.5600(6)
C13_2 C 0.4337(3) 0.2386(3) 0.4344(6)
C14_2 C 0.4631(3) 0.2565(3) 0.3135(6)
H11_2 H 0.5064 0.2818 0.3102
C15_2 C 0.4295(3) 0.2376(3) 0.1988(6)
C16_2 C 0.4596(4) 0.2603(3) 0.0684(6)
C17_2 C 0.3654(4) 0.2018(4) 0.2041(6)
H12_2 H 0.3427 0.1888 0.1251
C18_2 C 0.3338(3) 0.1846(3) 0.3229(7)
C19_2 C 0.2623(4) 0.1478(4) 0.3281(8)
H13_2 H 0.2384 0.1524 0.2435
H14_2 H 0.2328 0.1690 0.3963
H15_2 H 0.2695 0.0984 0.3479
C20_2 C 0.3688(3) 0.2033(4) 0.4379(6)
H16_2 H 0.3482 0.1919 0.5197
C21_2 C 0.3744(3) 0.3940(3) 0.6853(6)
C22_2 C 0.2979(3) 0.3785(3) 0.6598(6)
C23_2 C 0.2686(3) 0.3140(3) 0.6963(6)
H17_2 H 0.2977 0.2809 0.7398
C24_2 C 0.1983(3) 0.2977(3) 0.6701(7)
C25_2 C 0.1679(4) 0.2272(4) 0.7023(9)
H18_2 H 0.2043 0.1989 0.7456
H19_2 H 0.1528 0.2041 0.6217
H20_2 H 0.1270 0.2328 0.7606
C26_2 C 0.1561(3) 0.3483(3) 0.6098(6)
H21_2 H 0.1076 0.3383 0.5924
C27_2 C 0.1837(3) 0.4132(3) 0.5745(6)
C28_2 C 0.1388(3) 0.4656(4) 0.5025(7)
C29_2 C 0.2553(3) 0.4281(3) 0.5991(6)
H22_2 H 0.2747 0.4718 0.5745
C30_2 C 0.0925(7) 0.4718(6) 0.0850(12)
O14_2 O 0.0812(3) 0.5896(2) 0.3177(5)
O22_2 O 0.4477(2) 0.5680(2) 0.4808(5)
Br3_2 Br 0.42375(4) 0.57431(4) 0.83191(7)
O25 O 0.4301(3) 0.2382(3) 0.9651(4)
O27_2 O 0.5950(2) 0.5662(2) 0.6050(4)
H55_2 H 0.124726 0.51598 0.115593
N3_2 N 0.0969(7) 0.4517(5) 0.9614(9)
C31_2 C 0.1486(11) 0.4879(12) 0.8786(16)
C32_2 C 0.0538(7) 0.3993(6) 0.9024(14)
H49_2 H 0.201694 0.480995 0.918719
H50_2 H 0.146683 0.466398 0.780307
H51_2 H 0.135817 0.54319 0.875283
H53_2 H 0.0687361 0.393402 0.800314
H54_2 H 0.061597 0.350048 0.953133
H61_2 H 0.00182613 0.58554 0.908726
O24 O 0.4895(2) 0.6981(2) 0.0657(4)
Cd3_4 Cd 1.0000 0.5000 0.33944(6)
O4_2 O 0.9188(3) 0.4104(2) 0.3177(5)
O12_2 O 0.4828(2) 0.6967(2) 0.5613(4)
O13_2 O 0.5509(2) 0.7732(2) 0.6620(4)
O17_2 O 0.5985(2) 0.6327(2) 0.7855(4)
O19_2 O 0.8320(3) 0.4793(3) 0.4672(6)
O20_2 O 0.9256(3) 0.5508(3) 0.4814(5)
O21_2 O 0.9451(3) 0.5558(3) 0.1664(7)
C44_2 C 0.5303(3) 0.7426(3) 0.5600(6)
C45_2 C 0.5663(3) 0.7614(3) 0.4344(6)
C46_2 C 0.5369(3) 0.7435(3) 0.3135(6)
H33_2 H 0.4936 0.7182 0.3102
C47_2 C 0.5705(3) 0.7624(3) 0.1988(6)
C48_2 C 0.5404(4) 0.7397(3) 0.0684(6)
C49_2 C 0.6346(4) 0.7982(4) 0.2041(6)
H34_2 H 0.6573 0.8112 0.1251
C50_2 C 0.6662(3) 0.8154(3) 0.3229(7)
C51_2 C 0.7377(4) 0.8522(4) 0.3281(8)
H35_2 H 0.7616 0.8476 0.2435
H36_2 H 0.7672 0.8310 0.3963
H37_2 H 0.7305 0.9016 0.3479
C52_2 C 0.6312(3) 0.7967(4) 0.4379(6)
H38_2 H 0.6518 0.8081 0.5197
C53_2 C 0.6256(3) 0.6060(3) 0.6853(6)
C54_2 C 0.7021(3) 0.6215(3) 0.6598(6)
C55_2 C 0.7314(3) 0.6860(3) 0.6963(6)
H39_2 H 0.7023 0.7191 0.7398
C56_2 C 0.8017(3) 0.7023(3) 0.6701(7)
C57_2 C 0.8321(4) 0.7728(4) 0.7023(9)
H40_2 H 0.7957 0.8011 0.7456
H41_2 H 0.8472 0.7959 0.6217
H42_2 H 0.8730 0.7672 0.7606
C58_2 C 0.8439(3) 0.6517(3) 0.6098(6)
H43_2 H 0.8924 0.6617 0.5924
C59_2 C 0.8163(3) 0.5868(3) 0.5745(6)
C60_2 C 0.8612(3) 0.5344(4) 0.5025(7)
C61_2 C 0.7447(3) 0.5719(3) 0.5991(6)
H44_2 H 0.7253 0.5282 0.5745
C62_2 C 0.9075(7) 0.5282(6) 0.0850(12)
O26 O 0.5699(3) 0.7618(3) 0.9651(4)
H64_2 H 0.875274 0.48402 0.115593
N6_2 N 0.9031(7) 0.5483(5) 0.9614(9)
C63_2 C 0.8514(11) 0.5121(12) 0.8786(16)
C64_2 C 0.9462(7) 0.6007(6) 0.9024(14)
H52_2 H 0.998174 0.41446 0.908726
H58_2 H 0.798306 0.519005 0.918719
H59_2 H 0.853317 0.533602 0.780307
H60_2 H 0.864183 0.45681 0.875283
H62_2 H 0.931264 0.606598 0.800314
H63_2 H 0.938403 0.649952 0.953133
C43_2 C 0.9973(4) 0.9603(3) 0.8221(5)
H31_2 H 0.9701 0.9446 0.8995
H32_2 H 0.9718 0.9445 0.7430
loop_
_geom_bond_atom_site_label_1
_geom_bond_atom_site_label_2
_geom_bond_site_symmetry_1
_geom_bond_site_symmetry_2
Cd2 Br1 1_555 1_555
O2 Cd2 1_555 1_555
N2 C9 1_555 1_555
C1 N1 1_555 1_555
H1 C1 1_555 1_555
C2 N1 1_555 1_555
H2 C2 1_555 1_555
C3 C1 1_555 1_555
C4 C2 1_555 1_555
H4 C4 1_555 1_555
C5 C3 1_555 1_555
C6 C5 1_555 1_555
C7 C6 1_555 1_555
C8 C6 1_555 1_555
H6 C8 1_555 1_555
C9 C7 1_555 1_555
C10 N2 1_555 1_555
H8 C10 1_555 1_555
C11 N2 1_555 1_555
H9 C11 1_555 1_555
H10 C11 1_555 1_555
N4 C33 1_555 1_555
N5 C41 1_555 1_555
C33 H23 1_555 1_555
C34 N4 1_555 1_555
H24 C34 1_555 1_555
C35 C33 1_555 1_555
C36 C34 1_555 1_555
H26 C36 1_555 1_555
C37 C35 1_555 1_555
C38 C37 1_555 1_555
C39 C38 1_555 1_555
C40 C38 1_555 1_555
H28 C40 1_555 1_555
C41 C39 1_555 1_555
C42 N5 1_555 1_555
H30 C42 1_555 1_555
C43 C11 1_555 1_555
H31 C43 1_555 1_555
H32 C43 1_555 1_555
C4 C5 1_555 1_555
C8 C10 1_555 1_555
N5 C43 1_555 1_555
C36 C37 1_555 1_555
C40 C42 1_555 1_555
O27 Cd2_2 1_555 1_555
C31 N3 1_555 1_555
C32 N3 1_555 1_555
O6 Cd5 1_555 1_555
C31 H49 1_555 1_555
C31 H50 1_555 1_555
C32 H52 1_555 1_555
C32 H53 1_555 1_555
C32 H54 1_555 1_555
Cd3 O4 1_555 1_555
O3 Cd5 1_555 1_555
O7 Cd5 1_555 1_555
O8 Cd2_3 1_555 1_555
O10 Cd3 1_555 1_555
O11 Cd3 1_555 1_555
C13 C12 1_555 1_555
C14 C13 1_555 1_555
C15 C14 1_555 1_555
C16 C15 1_555 1_555
C17 C15 1_555 1_555
H12 C17 1_555 1_555
C18 C17 1_555 1_555
C19 C18 1_555 1_555
H13 C19 1_555 1_555
H14 C19 1_555 1_555
H15 C19 1_555 1_555
C20 C13 1_555 1_555
H16 C20 1_555 1_555
C21 O7 1_555 1_555
C22 C21 1_555 1_555
C23 C22 1_555 1_555
H17 C23 1_555 1_555
C24 C23 1_555 1_555
C25 C24 1_555 1_555
H18 C25 1_555 1_555
H19 C25 1_555 1_555
H20 C25 1_555 1_555
C26 C24 1_555 1_555
H21 C26 1_555 1_555
C27 C26 1_555 1_555
C28 O10 1_555 1_555
C29 C22 1_555 1_555
H22 C29 1_555 1_555
C30 O11 1_555 1_555
O3 C12 1_555 1_555
O8 C21 1_555 1_555
C18 C20 1_555 1_555
C27 C28 1_555 1_555
C27 C29 1_555 1_555
C63 N6 1_555 1_555
C64 N6 1_555 1_555
O16 Cd7 1_555 1_555
C63 H58 1_555 1_555
C63 H59 1_555 1_555
C64 H61 1_555 1_555
C64 H62 1_555 1_555
C64 H63 1_555 1_555
O13 Cd7 1_555 1_555
O14 Cd3_2 1_555 1_555
O17 Cd7 1_555 1_555
O27 C53 1_555 1_555
O20 Cd3_2 1_555 1_555
O21 Cd3_2 1_555 1_555
C45 C44 1_555 1_555
C46 C45 1_555 1_555
C47 C46 1_555 1_555
C48 C47 1_555 1_555
C49 C47 1_555 1_555
H34 C49 1_555 1_555
C50 C49 1_555 1_555
C51 C50 1_555 1_555
H35 C51 1_555 1_555
H36 C51 1_555 1_555
H37 C51 1_555 1_555
C52 C45 1_555 1_555
H38 C52 1_555 1_555
C53 O17 1_555 1_555
C54 C53 1_555 1_555
C55 C54 1_555 1_555
H39 C55 1_555 1_555
C56 C55 1_555 1_555
C57 C56 1_555 1_555
H40 C57 1_555 1_555
H41 C57 1_555 1_555
H42 C57 1_555 1_555
C58 C56 1_555 1_555
H43 C58 1_555 1_555
C59 C58 1_555 1_555
C60 O20 1_555 1_555
C61 C54 1_555 1_555
H44 C61 1_555 1_555
C62 O21 1_555 1_555
O22 Cd2_4 1_555 1_555
Br3 Cd2_4 1_555 1_555
O13 C44 1_555 1_555
C50 C52 1_555 1_555
C59 C60 1_555 1_555
C59 C61 1_555 1_555
H9_2 C11_2 1_555 1_555
H10_2 C11_2 1_555 1_555
N4_2 C33_2 1_555 1_555
N5_2 C41_2 1_555 1_555
C33_2 H23_2 1_555 1_555
C34_2 N4_2 1_555 1_555
H24_2 C34_2 1_555 1_555
C35_2 C33_2 1_555 1_555
C36_2 C34_2 1_555 1_555
H26_2 C36_2 1_555 1_555
C37_2 C35_2 1_555 1_555
C38_2 C37_2 1_555 1_555
C39_2 C38_2 1_555 1_555
C40_2 C38_2 1_555 1_555
H28_2 C40_2 1_555 1_555
C41_2 C39_2 1_555 1_555
C42_2 N5_2 1_555 1_555
H30_2 C42_2 1_555 1_555
Cd7_2 N4_2 1_555 1_555
C36_2 C37_2 1_555 1_555
C40_2 C42_2 1_555 1_555
Cd1 Br1_2 1_555 1_555
Cd2_5 Br1_2 1_555 1_555
O1_2 Cd1 1_555 1_555
O2_2 Cd2_5 1_555 1_555
O3_2 Cd1 1_555 1_555
O23 C16_2 1_555 1_555
O7_2 Cd1 1_555 1_555
O8_2 Cd2_5 1_555 1_555
O9_2 C28_2 1_555 1_555
O10_2 Cd3_3 1_555 1_555
O11_2 Cd3_3 1_555 1_555
N1_2 Cd1 1_555 1_555
N2_2 C9_2 1_555 1_555
C1_2 N1_2 1_555 1_555
H1_2 C1_2 1_555 1_555
C2_2 N1_2 1_555 1_555
H2_2 C2_2 1_555 1_555
C3_2 C1_2 1_555 1_555
C4_2 C2_2 1_555 1_555
H4_2 C4_2 1_555 1_555
C5_2 C3_2 1_555 1_555
C6_2 C5_2 1_555 1_555
C7_2 C6_2 1_555 1_555
C8_2 C6_2 1_555 1_555
H6_2 C8_2 1_555 1_555
C9_2 C7_2 1_555 1_555
C10_2 N2_2 1_555 1_555
H8_2 C10_2 1_555 1_555
C12_2 O1_2 1_555 1_555
C13_2 C12_2 1_555 1_555
C14_2 C13_2 1_555 1_555
H11_2 C14_2 1_555 1_555
C15_2 C14_2 1_555 1_555
C16_2 C15_2 1_555 1_555
C17_2 C15_2 1_555 1_555
H12_2 C17_2 1_555 1_555
C18_2 C17_2 1_555 1_555
C19_2 C18_2 1_555 1_555
H13_2 C19_2 1_555 1_555
H14_2 C19_2 1_555 1_555
H15_2 C19_2 1_555 1_555
C20_2 C13_2 1_555 1_555
H16_2 C20_2 1_555 1_555
C21_2 O7_2 1_555 1_555
C22_2 C21_2 1_555 1_555
C23_2 C22_2 1_555 1_555
H17_2 C23_2 1_555 1_555
C24_2 C23_2 1_555 1_555
C25_2 C24_2 1_555 1_555
H18_2 C25_2 1_555 1_555
H19_2 C25_2 1_555 1_555
H20_2 C25_2 1_555 1_555
C26_2 C24_2 1_555 1_555
H21_2 C26_2 1_555 1_555
C27_2 C26_2 1_555 1_555
C28_2 O10_2 1_555 1_555
C29_2 C22_2 1_555 1_555
H22_2 C29_2 1_555 1_555
C30_2 O11_2 1_555 1_555
O14_2 Cd3_3 1_555 1_555
O22_2 Cd2_5 1_555 1_555
Br3_2 Cd2_5 1_555 1_555
O25 Cd1 1_555 1_555
O27_2 Cd2_5 1_555 1_555
O3_2 C12_2 1_555 1_555
O8_2 C21_2 1_555 1_555
C4_2 C5_2 1_555 1_555
C8_2 C10_2 1_555 1_555
C18_2 C20_2 1_555 1_555
C27_2 C28_2 1_555 1_555
C27_2 C29_2 1_555 1_555
C30_2 H55_2 1_555 1_555
C31_2 N3_2 1_555 1_555
C32_2 N3_2 1_555 1_555
C31_2 H49_2 1_555 1_555
C31_2 H50_2 1_555 1_555
C31_2 H51_2 1_555 1_555
C32_2 H53_2 1_555 1_555
C32_2 H54_2 1_555 1_555
Cd3_4 O4_2 1_555 1_555
Cd7_2 Br3_2 1_555 1_555
O12_2 Cd7_2 1_555 1_555
O13_2 Cd7_2 1_555 1_555
O24 C48_2 1_555 1_555
O17_2 Cd7_2 1_555 1_555
O27_2 C53_2 1_555 1_555
O19_2 C60_2 1_555 1_555
O20_2 Cd3_4 1_555 1_555
O21_2 Cd3_4 1_555 1_555
C44_2 O12_2 1_555 1_555
C45_2 C44_2 1_555 1_555
C46_2 C45_2 1_555 1_555
H33_2 C46_2 1_555 1_555
C47_2 C46_2 1_555 1_555
C48_2 C47_2 1_555 1_555
C49_2 C47_2 1_555 1_555
H34_2 C49_2 1_555 1_555
C50_2 C49_2 1_555 1_555
C51_2 C50_2 1_555 1_555
H35_2 C51_2 1_555 1_555
H36_2 C51_2 1_555 1_555
H37_2 C51_2 1_555 1_555
C52_2 C45_2 1_555 1_555
H38_2 C52_2 1_555 1_555
C53_2 O17_2 1_555 1_555
C54_2 C53_2 1_555 1_555
C55_2 C54_2 1_555 1_555
H39_2 C55_2 1_555 1_555
C56_2 C55_2 1_555 1_555
C57_2 C56_2 1_555 1_555
H40_2 C57_2 1_555 1_555
H41_2 C57_2 1_555 1_555
H42_2 C57_2 1_555 1_555
C58_2 C56_2 1_555 1_555
H43_2 C58_2 1_555 1_555
C59_2 C58_2 1_555 1_555
C60_2 O20_2 1_555 1_555
C61_2 C54_2 1_555 1_555
H44_2 C61_2 1_555 1_555
C62_2 O21_2 1_555 1_555
O26 Cd7_2 1_555 1_555
O13_2 C44_2 1_555 1_555
C50_2 C52_2 1_555 1_555
C59_2 C60_2 1_555 1_555
C59_2 C61_2 1_555 1_555
C62_2 H64_2 1_555 1_555
C63_2 N6_2 1_555 1_555
C64_2 N6_2 1_555 1_555
C63_2 H58_2 1_555 1_555
C63_2 H59_2 1_555 1_555
C63_2 H60_2 1_555 1_555
C64_2 H62_2 1_555 1_555
C64_2 H63_2 1_555 1_555
H31_2 C43_2 1_555 1_555
H32_2 C43_2 1_555 1_555

#END
