
###############################################################################
#
# This file contains modified crystal structure data generated from the
# MOF subset of the Cambridge Structural Database (CSD) v543 
# hosted by the Cambridge Crystallographic Data Centre (CCDC).
#
# This work is licensed under the Creative Commons
# Attribution-NonCommercial-ShareAlike 4.0 International License.
# To view a copy of this license, visit
# http://creativecommons.org/licenses/by-nc-sa/4.0/
# or send a letter to
# Creative Commons, PO Box 1866, Mountain View, CA 94042, USA.
#
# CIF created using the CSD Python API on 29 September 2022
# The structure has been converted into the P1 space group
# The structure has a 3D framework
# The original CSD entry GABGUO is in the triclinic crystal system
# The framework has been calculated to contain at least 10.0% void space
# The void calculation uses a probe of radius 1.32A, grid spacing 0.4
#
###############################################################################

data_GABGUO
_chemical_formula_moiety         '(C90 H84 Cu6 N24 O24)n'
_symmetry_cell_setting           triclinic
_symmetry_space_group_name_H-M   'P 1'
_symmetry_Int_Tables_number      1
_space_group_name_Hall           'P 1'
loop_
_symmetry_equiv_pos_site_id
_symmetry_equiv_pos_as_xyz
1 x,y,z
_cell_length_a                   12.7542(5)
_cell_length_b                   14.2033(5)
_cell_length_c                   15.4313(6)
_cell_angle_alpha                66.904(4)
_cell_angle_beta                 89.991(3)
_cell_angle_gamma                82.946(3)
_cell_volume                     2548.36
loop_
_atom_site_label
_atom_site_type_symbol
_atom_site_fract_x
_atom_site_fract_y
_atom_site_fract_z
Cu1 Cu 0.26298(3) 0.00226(3) 0.25644(3)
O1 O 0.21117(18) 0.13058(17) 0.26980(16)
O2 O 0.2890(2) 0.04721(19) 0.41226(18)
O5 O 0.2916(2) 0.2572(3) 0.6083(2)
O6 O 0.1690(2) 0.3909(2) 0.5806(2)
H32 H 0.0396 0.7754 0.0748
C28 C 0.2310(2) 0.1209(2) 0.3542(2)
C29 C 0.1761(2) 0.2045(2) 0.3811(2)
C30 C 0.2147(2) 0.2205(2) 0.4575(2)
H37 H 0.2744 0.1784 0.4927
C31 C 0.1654(2) 0.2989(3) 0.4821(2)
C32 C 0.2133(3) 0.3160(3) 0.5642(3)
C33 C 0.0745(3) 0.3596(2) 0.4306(2)
H38 H 0.0413 0.4126 0.4461
C34 C 0.0329(2) 0.3415(2) 0.3561(2)
C35 C 0.0846(2) 0.2647(2) 0.3312(2)
H39 H 0.0577 0.2534 0.2805
Cu7 Cu 0.25152(3) 0.42378(3) 0.67745(3)
N13 N 0.4052(2) 0.0460(2) 0.2244(2)
N1 N 0.1250(2) 0.9540(2) 0.3005(2)
C1 C 0.0519(3) 0.9456(3) 0.2465(3)
H1 H 0.0616 0.9509 0.1851
C2 C 0.0796(3) 0.9395(4) 0.3850(3)
H2 H 0.1131 0.9404 0.4382
O15 O 0.30997(18) 0.87866(18) 0.23353(17)
Cu2 Cu 0.75671(3) 0.40789(3) 0.17182(3)
Cu3 Cu 0.74848(3) 0.57622(3) 0.32255(3)
O3 O 0.89490(18) 0.37416(19) 0.24300(17)
O4 O 0.8942(2) 0.4794(2) 0.3188(2)
O7 O 0.6096(2) 0.52205(19) 0.18003(19)
O8 O 0.60149(19) 0.6141(2) 0.26859(18)
O12 O 0.2136(2) 0.9530(2) 0.09817(19)
N3 N 0.5758(2) 0.0320(3) 0.2052(3)
N5 N 0.7033(2) 0.2985(2) 0.2788(2)
N6 N 0.5979(3) 0.2115(3) 0.3838(2)
N7 N 0.6107(3) 0.3336(3) 0.5114(2)
N8 N 0.7050(3) 0.4516(3) 0.4244(2)
N9 N 0.8070(2) 0.5246(2) 0.0702(2)
N11 N 0.8849(3) 0.7786(3) 0.0940(3)
N12 N 0.7887(3) 0.6874(2) 0.2061(2)
H7 H 0.7852 0.0573 0.2338
H8 H 0.6972 0.0194 0.1260
C8 C 0.5472(3) 0.1278(3) 0.2037(3)
H11 H 0.5912 0.1779 0.1958
C9 C 0.4427(3) 0.1358(3) 0.2159(3)
H12 H 0.4017 0.1936 0.2182
C10 C 0.7570(3) 0.2034(3) 0.3340(3)
H13 H 0.8268 0.1802 0.3276
C11 C 0.6929(3) 0.1490(3) 0.3987(3)
H14 H 0.7097 0.0825 0.4445
C12 C 0.6084(3) 0.2990(3) 0.3109(3)
H15 H 0.5545 0.3540 0.2857
C13 C 0.5038(3) 0.1873(4) 0.4389(3)
H16 H 0.4852 0.1223 0.4407
H17 H 0.4451 0.2405 0.4071
C14 C 0.5184(3) 0.1794(4) 0.5385(3)
H18 H 0.5849 0.1363 0.5657
H19 H 0.4623 0.1445 0.5749
C15 C 0.5185(4) 0.2814(4) 0.5494(4)
H20 H 0.4549 0.3271 0.5176
H21 H 0.5162 0.2687 0.6159
C16 C 0.6105(3) 0.4287(4) 0.4431(3)
H22 H 0.5494 0.4726 0.4131
C17 C 0.7723(4) 0.3661(4) 0.4844(3)
H23 H 0.8458 0.3595 0.4866
C18 C 0.7140(4) 0.2944(4) 0.5386(4)
H24 H 0.7392 0.2305 0.5855
C19 C 0.9006(3) 0.5540(3) 0.0595(3)
H25 H 0.9587 0.5196 0.1010
C24 C 0.9753(4) 0.8141(4) 0.0380(4)
H33 H 0.9764 0.8862 0.0265
C25 C 0.8832(3) 0.6972(3) 0.1751(3)
H34 H 0.9433 0.6522 0.2063
C26 C 0.7814(4) 0.8242(3) 0.0703(3)
H35 H 0.7568 0.8827 0.0171
C27 C 0.7232(3) 0.7677(3) 0.1391(3)
H36 H 0.6502 0.7806 0.1413
C36 C 0.9316(2) 0.4041(3) 0.3021(2)
C37 C 0.5692(3) 0.5919(3) 0.2020(2)
C38 C 0.4696(2) 0.6585(2) 0.1481(2)
C39 C 0.4202(3) 0.7348(2) 0.1747(2)
H40 H 0.4475 0.7431 0.2267
C40 C 0.3306(2) 0.7989(2) 0.1247(2)
C41 C 0.2795(3) 0.8838(3) 0.1524(2)
C42 C 0.2899(2) 0.7853(2) 0.0478(2)
H41 H 0.2302 0.8283 0.0136
C43 C 0.3375(2) 0.7079(2) 0.0212(2)
C44 C 0.4281(2) 0.6449(2) 0.0715(2)
H42 H 0.4607 0.5935 0.0537
O13 O 0.8310(2) 0.6091(2) 0.4194(2)
O14 O 0.6688(2) 0.38435(19) 0.07643(18)
O9 O 0.3312(2) 0.61565(19) 0.92357(18)
O10 O 0.2136(2) 0.7551(2) 0.89196(19)
N10 N 0.9029(3) 0.6392(3) 0.9821(2)
C20 C 0.7446(4) 0.5968(4) 0.9956(3)
H26 H 0.6729 0.5969 0.9846
C21 C 0.8039(4) 0.6673(4) 0.9410(3)
H27 H 0.7813 0.7243 0.8858
C22 C 0.9945(3) 0.6946(3) 0.9494(3)
C23 C 0.9768(3) 0.8037(3) 0.9448(3)
H31 H 0.9099 0.8374 0.9103
C45 C 0.2893(2) 0.6932(3) 0.9385(2)
Cu6 Cu 0.24329(3) 0.59211(3) 0.82818(3)
O10_2 O 0.7864(2) 0.2449(2) 0.10804(19)
N10_2 N 0.0971(3) 0.3608(3) 0.0179(2)
C20_2 C 0.2554(4) 0.4032(4) 0.0044(3)
H26_2 H 0.3271 0.4031 0.0154
C21_2 C 0.1961(4) 0.3327(4) 0.0590(3)
H27_2 H 0.2187 0.2757 0.1142
C22_2 C 0.0055(3) 0.3054(3) 0.0506(3)
C23_2 C 0.0232(3) 0.1963(3) 0.0552(3)
H31_2 H 0.0901 0.1626 0.0897
C45_2 C 0.7107(2) 0.3068(3) 0.0615(2)
O3_2 O 0.10510(18) 0.62584(19) 0.75700(17)
O4_2 O 0.1058(2) 0.5206(2) 0.6812(2)
O7_2 O 0.3904(2) 0.47795(19) 0.81997(19)
O8_2 O 0.39851(19) 0.3859(2) 0.73141(18)
O11 O 0.69003(18) 0.12134(18) 0.76647(17)
O12_2 O 0.7864(2) 0.0470(2) 0.90183(19)
N3_2 N 0.4242(2) 0.9680(3) 0.7948(3)
N4 N 0.5948(2) 0.9540(2) 0.7756(2)
N5_2 N 0.2967(2) 0.7015(2) 0.7212(2)
N6_2 N 0.4021(3) 0.7885(3) 0.6162(2)
N7_2 N 0.3893(3) 0.6664(3) 0.4886(2)
N8_2 N 0.2950(3) 0.5484(3) 0.5756(2)
N9_2 N 0.1930(2) 0.4754(2) 0.9298(2)
N11_2 N 0.1151(3) 0.2214(3) 0.9060(3)
N12_2 N 0.2113(3) 0.3126(2) 0.7939(2)
H7_2 H 0.2148 0.9427 0.7662
H8_2 H 0.3028 0.9806 0.8740
C8_2 C 0.4528(3) 0.8722(3) 0.7963(3)
H11_2 H 0.4088 0.8221 0.8042
C9_2 C 0.5573(3) 0.8642(3) 0.7841(3)
H12_2 H 0.5983 0.8064 0.7818
C10_2 C 0.2430(3) 0.7966(3) 0.6660(3)
H13_2 H 0.1732 0.8198 0.6724
C11_2 C 0.3071(3) 0.8510(3) 0.6013(3)
H14_2 H 0.2903 0.9175 0.5555
C12_2 C 0.3916(3) 0.7010(3) 0.6891(3)
H15_2 H 0.4455 0.6460 0.7143
C13_2 C 0.4962(3) 0.8127(4) 0.5611(3)
H16_2 H 0.5148 0.8777 0.5593
H17_2 H 0.5549 0.7595 0.5929
C14_2 C 0.4816(3) 0.8206(4) 0.4615(3)
H18_2 H 0.4151 0.8637 0.4343
H19_2 H 0.5377 0.8555 0.4251
C15_2 C 0.4815(4) 0.7186(4) 0.4506(4)
H20_2 H 0.5451 0.6729 0.4824
H21_2 H 0.4838 0.7313 0.3841
C16_2 C 0.3895(3) 0.5713(4) 0.5569(3)
H22_2 H 0.4506 0.5274 0.5869
C17_2 C 0.2277(4) 0.6339(4) 0.5156(3)
H23_2 H 0.1542 0.6405 0.5134
C18_2 C 0.2860(4) 0.7056(4) 0.4614(4)
H24_2 H 0.2608 0.7695 0.4145
C19_2 C 0.0994(3) 0.4460(3) 0.9405(3)
H25_2 H 0.0413 0.4804 0.8990
C24_2 C 0.0247(4) 0.1859(4) 0.9620(4)
H33_2 H 0.0236 0.1138 0.9735
C25_2 C 0.1168(3) 0.3028(3) 0.8249(3)
H34_2 H 0.0567 0.3478 0.7937
C26_2 C 0.2186(4) 0.1758(3) 0.9297(3)
H35_2 H 0.2432 0.1173 0.9829
C27_2 C 0.2768(3) 0.2323(3) 0.8609(3)
H36_2 H 0.3498 0.2194 0.8587
C36_2 C 0.0684(2) 0.5959(3) 0.6979(2)
C37_2 C 0.4308(3) 0.4081(3) 0.7980(2)
C38_2 C 0.5304(2) 0.3415(2) 0.8519(2)
C39_2 C 0.5798(3) 0.2652(2) 0.8253(2)
H40_2 H 0.5525 0.2569 0.7733
C40_2 C 0.6694(2) 0.2011(2) 0.8753(2)
C41_2 C 0.7205(3) 0.1162(3) 0.8476(2)
C42_2 C 0.7101(2) 0.2147(2) 0.9522(2)
H41_2 H 0.7698 0.1717 0.9864
C43_2 C 0.6625(2) 0.2921(2) 0.9788(2)
C44_2 C 0.5719(2) 0.3551(2) 0.9285(2)
H42_2 H 0.5393 0.4065 0.9463
Cu4 Cu 0.73702(3) 0.99774(3) 0.74356(3)
N1_2 N 0.8750(2) 0.0460(2) 0.6995(2)
C1_2 C 0.9481(3) 0.0544(3) 0.7535(3)
H1_2 H 0.9384 0.0491 0.8149
C2_2 C 0.9204(3) 0.0605(4) 0.6150(3)
H2_2 H 0.8869 0.0596 0.5618
O1_2 O 0.78883(18) 0.86942(17) 0.73020(16)
O2_2 O 0.7110(2) 0.95279(19) 0.58774(18)
O5_2 O 0.7084(2) 0.7428(3) 0.3917(2)
H32_2 H 0.9604 0.2246 0.9252
C28_2 C 0.7690(2) 0.8791(2) 0.6458(2)
C29_2 C 0.8239(2) 0.7955(2) 0.6189(2)
C30_2 C 0.7853(2) 0.7795(2) 0.5425(2)
H37_2 H 0.7256 0.8216 0.5073
C31_2 C 0.8346(2) 0.7011(3) 0.5179(2)
C32_2 C 0.7867(3) 0.6840(3) 0.4358(3)
C33_2 C 0.9255(3) 0.6404(2) 0.5694(2)
H38_2 H 0.9587 0.5874 0.5539
C34_2 C 0.9671(2) 0.6585(2) 0.6439(2)
C35_2 C 0.9154(2) 0.7353(2) 0.6688(2)
H39_2 H 0.9423 0.7466 0.7195
H28 H 0.0102 0.6968 0.8872
H29 H 0.0554 0.6569 0.9917
H30 H 0.0320 0.8406 0.9089
N2 N 0.9610(2) 0.9285(3) 0.2893(3)
C3 C 0.9780(4) 0.9238(4) 0.3778(4)
H3 H 0.9292 0.9121 0.4244
C4 C 0.8642(3) 0.9161(4) 0.2465(4)
H4 H 0.8507 0.8451 0.2773
H5 H 0.8745 0.9301 0.1805
C5 C 0.7683(3) 0.9873(3) 0.2536(3)
H6 H 0.7474 0.9645 0.3184
C6 C 0.6802(3) 0.9843(4) 0.1912(4)
H9 H 0.6759 0.9129 0.2021
C7 C 0.4894(3) 0.9854(3) 0.2179(3)
H10 H 0.4884 0.9185 0.2217
N2_2 N 0.0390(2) 0.0715(3) 0.7107(3)
C3_2 C 0.0220(4) 0.0762(4) 0.6222(4)
H3_2 H 0.0708 0.0879 0.5756
C4_2 C 0.1358(3) 0.0839(4) 0.7535(4)
H4_2 H 0.1493 0.1549 0.7227
H5_2 H 0.1255 0.0699 0.8195
C5_2 C 0.2317(3) 0.0127(3) 0.7464(3)
H6_2 H 0.2526 0.0355 0.6816
C6_2 C 0.3198(3) 0.0157(4) 0.8088(4)
H9_2 H 0.3241 0.0871 0.7979
C7_2 C 0.5106(3) 0.0146(3) 0.7821(3)
H10_2 H 0.5116 0.0815 0.7783
H28_2 H 0.9898 0.3032 0.1128
H29_2 H 0.9446 0.3431 0.0083
H30_2 H 0.9680 0.1594 0.0911
loop_
_geom_bond_atom_site_label_1
_geom_bond_atom_site_label_2
_geom_bond_site_symmetry_1
_geom_bond_site_symmetry_2
Cu1 O1 1_555 1_555
O1 C28 1_555 1_555
O2 Cu1 1_555 1_555
O5 C32 1_555 1_555
O6 C32 1_555 1_555
C28 O2 1_555 1_555
C29 C28 1_555 1_555
C30 C29 1_555 1_555
H37 C30 1_555 1_555
C31 C30 1_555 1_555
C32 C31 1_555 1_555
C33 C31 1_555 1_555
H38 C33 1_555 1_555
C34 C33 1_555 1_555
C35 C29 1_555 1_555
H39 C35 1_555 1_555
Cu7 O6 1_555 1_555
N13 Cu1 1_555 1_555
C34 C35 1_555 1_555
C1 N1 1_555 1_555
H1 C1 1_555 1_555
C2 N1 1_555 1_555
H2 C2 1_555 1_555
Cu2 O3 1_555 1_555
Cu3 O4 1_555 1_555
O3 C36 1_555 1_555
O4 C36 1_555 1_555
O7 Cu2 1_555 1_555
O8 Cu3 1_555 1_555
O15 C41 1_555 1_555
O12 C41 1_555 1_555
N5 Cu2 1_555 1_555
N6 C11 1_555 1_555
N7 C15 1_555 1_555
N8 Cu3 1_555 1_555
N9 Cu2 1_555 1_555
N11 C24 1_555 1_555
N12 Cu3 1_555 1_555
C8 N3 1_555 1_555
H11 C8 1_555 1_555
C9 N13 1_555 1_555
H12 C9 1_555 1_555
C10 N5 1_555 1_555
H13 C10 1_555 1_555
C11 C10 1_555 1_555
H14 C11 1_555 1_555
C12 N5 1_555 1_555
H15 C12 1_555 1_555
C13 N6 1_555 1_555
H16 C13 1_555 1_555
H17 C13 1_555 1_555
C14 C13 1_555 1_555
H18 C14 1_555 1_555
H19 C14 1_555 1_555
C15 C14 1_555 1_555
H20 C15 1_555 1_555
H21 C15 1_555 1_555
C16 N7 1_555 1_555
H22 C16 1_555 1_555
C17 N8 1_555 1_555
H23 C17 1_555 1_555
C18 N7 1_555 1_555
H24 C18 1_555 1_555
C19 N9 1_555 1_555
H25 C19 1_555 1_555
H33 C24 1_555 1_555
C25 N11 1_555 1_555
H34 C25 1_555 1_555
C26 N11 1_555 1_555
H35 C26 1_555 1_555
C27 N12 1_555 1_555
H36 C27 1_555 1_555
C37 O7 1_555 1_555
C38 C37 1_555 1_555
C39 C38 1_555 1_555
H40 C39 1_555 1_555
C40 C39 1_555 1_555
C41 C40 1_555 1_555
C42 C40 1_555 1_555
H41 C42 1_555 1_555
C43 C42 1_555 1_555
C44 C38 1_555 1_555
H42 C44 1_555 1_555
O13 Cu3 1_555 1_555
O14 Cu2 1_555 1_555
O8 C37 1_555 1_555
N6 C12 1_555 1_555
N8 C16 1_555 1_555
N12 C25 1_555 1_555
C8 C9 1_555 1_555
C17 C18 1_555 1_555
C26 C27 1_555 1_555
C43 C44 1_555 1_555
O9 C45 1_555 1_555
O10 C45 1_555 1_555
H26 C20 1_555 1_555
C21 N10 1_555 1_555
H27 C21 1_555 1_555
C22 N10 1_555 1_555
C23 C22 1_555 1_555
H31 C23 1_555 1_555
Cu6 O9 1_555 1_555
C20 C21 1_555 1_555
O14 C45_2 1_555 1_555
O10_2 C45_2 1_555 1_555
H26_2 C20_2 1_555 1_555
C21_2 N10_2 1_555 1_555
H27_2 C21_2 1_555 1_555
C22_2 N10_2 1_555 1_555
C23_2 C22_2 1_555 1_555
H31_2 C23_2 1_555 1_555
C20_2 C21_2 1_555 1_555
Cu6 O3_2 1_555 1_555
Cu7 O4_2 1_555 1_555
O3_2 C36_2 1_555 1_555
O4_2 C36_2 1_555 1_555
O7_2 Cu6 1_555 1_555
O8_2 Cu7 1_555 1_555
O11 C41_2 1_555 1_555
O12_2 C41_2 1_555 1_555
N5_2 Cu6 1_555 1_555
N6_2 C11_2 1_555 1_555
N7_2 C15_2 1_555 1_555
N8_2 Cu7 1_555 1_555
N9_2 Cu6 1_555 1_555
N11_2 C24_2 1_555 1_555
N12_2 Cu7 1_555 1_555
C8_2 N3_2 1_555 1_555
H11_2 C8_2 1_555 1_555
C9_2 N4 1_555 1_555
H12_2 C9_2 1_555 1_555
C10_2 N5_2 1_555 1_555
H13_2 C10_2 1_555 1_555
C11_2 C10_2 1_555 1_555
H14_2 C11_2 1_555 1_555
C12_2 N5_2 1_555 1_555
H15_2 C12_2 1_555 1_555
C13_2 N6_2 1_555 1_555
H16_2 C13_2 1_555 1_555
H17_2 C13_2 1_555 1_555
C14_2 C13_2 1_555 1_555
H18_2 C14_2 1_555 1_555
H19_2 C14_2 1_555 1_555
C15_2 C14_2 1_555 1_555
H20_2 C15_2 1_555 1_555
H21_2 C15_2 1_555 1_555
C16_2 N7_2 1_555 1_555
H22_2 C16_2 1_555 1_555
C17_2 N8_2 1_555 1_555
H23_2 C17_2 1_555 1_555
C18_2 N7_2 1_555 1_555
H24_2 C18_2 1_555 1_555
C19_2 N9_2 1_555 1_555
H25_2 C19_2 1_555 1_555
H33_2 C24_2 1_555 1_555
C25_2 N11_2 1_555 1_555
H34_2 C25_2 1_555 1_555
C26_2 N11_2 1_555 1_555
H35_2 C26_2 1_555 1_555
C27_2 N12_2 1_555 1_555
H36_2 C27_2 1_555 1_555
C37_2 O7_2 1_555 1_555
C38_2 C37_2 1_555 1_555
C39_2 C38_2 1_555 1_555
H40_2 C39_2 1_555 1_555
C40_2 C39_2 1_555 1_555
C41_2 C40_2 1_555 1_555
C42_2 C40_2 1_555 1_555
H41_2 C42_2 1_555 1_555
C43_2 C42_2 1_555 1_555
C44_2 C38_2 1_555 1_555
H42_2 C44_2 1_555 1_555
Cu4 N4 1_555 1_555
O8_2 C37_2 1_555 1_555
N6_2 C12_2 1_555 1_555
N8_2 C16_2 1_555 1_555
N12_2 C25_2 1_555 1_555
C8_2 C9_2 1_555 1_555
C17_2 C18_2 1_555 1_555
C26_2 C27_2 1_555 1_555
C43_2 C44_2 1_555 1_555
C1_2 N1_2 1_555 1_555
H1_2 C1_2 1_555 1_555
C2_2 N1_2 1_555 1_555
H2_2 C2_2 1_555 1_555
Cu4 O1_2 1_555 1_555
O1_2 C28_2 1_555 1_555
O2_2 Cu4 1_555 1_555
O5_2 C32_2 1_555 1_555
O13 C32_2 1_555 1_555
C28_2 O2_2 1_555 1_555
C29_2 C28_2 1_555 1_555
C30_2 C29_2 1_555 1_555
H37_2 C30_2 1_555 1_555
C31_2 C30_2 1_555 1_555
C32_2 C31_2 1_555 1_555
C33_2 C31_2 1_555 1_555
H38_2 C33_2 1_555 1_555
C34_2 C33_2 1_555 1_555
C35_2 C29_2 1_555 1_555
H39_2 C35_2 1_555 1_555
C34_2 C35_2 1_555 1_555
C3 N2 1_555 1_555
H3 C3 1_555 1_555
C4 N2 1_555 1_555
H4 C4 1_555 1_555
H5 C4 1_555 1_555
C5 C4 1_555 1_555
H6 C5 1_555 1_555
C6 C5 1_555 1_555
H9 C6 1_555 1_555
H10 C7 1_555 1_555
C3_2 N2_2 1_555 1_555
H3_2 C3_2 1_555 1_555
C4_2 N2_2 1_555 1_555
H4_2 C4_2 1_555 1_555
H5_2 C4_2 1_555 1_555
C5_2 C4_2 1_555 1_555
H6_2 C5_2 1_555 1_555
C6_2 C5_2 1_555 1_555
H9_2 C6_2 1_555 1_555
H10_2 C7_2 1_555 1_555

#END
