
###############################################################################
#
# This file contains modified crystal structure data generated from the
# MOF subset of the Cambridge Structural Database (CSD) v543 
# hosted by the Cambridge Crystallographic Data Centre (CCDC).
#
# This work is licensed under the Creative Commons
# Attribution-NonCommercial-ShareAlike 4.0 International License.
# To view a copy of this license, visit
# http://creativecommons.org/licenses/by-nc-sa/4.0/
# or send a letter to
# Creative Commons, PO Box 1866, Mountain View, CA 94042, USA.
#
# CIF created using the CSD Python API on 29 September 2022
# The structure has been converted into the P1 space group
# The structure has a 3D framework
# The original CSD entry GACYAN is in the triclinic crystal system
# The framework has been calculated to contain at least 10.0% void space
# The void calculation uses a probe of radius 1.32A, grid spacing 0.4
#
###############################################################################

data_GACYAN
_chemical_formula_moiety         '(C80 H52 N6 O16 Zn4)n'
_symmetry_cell_setting           triclinic
_symmetry_space_group_name_H-M   'P 1'
_symmetry_Int_Tables_number      1
_space_group_name_Hall           'P 1'
loop_
_symmetry_equiv_pos_site_id
_symmetry_equiv_pos_as_xyz
1 x,y,z
_cell_length_a                   15.174(2)
_cell_length_b                   15.185(2)
_cell_length_c                   18.174(2)
_cell_angle_alpha                81.094(3)
_cell_angle_beta                 84.734(3)
_cell_angle_gamma                78.952(3)
_cell_volume                     4052.1
loop_
_atom_site_label
_atom_site_type_symbol
_atom_site_fract_x
_atom_site_fract_y
_atom_site_fract_z
C18 C 0.0229(3) 0.3922(4) 0.7201(3)
H10 H 0.0527 0.4156 0.6765
C19 C 0.0708(3) 0.3623(4) 0.7840(3)
C20 C 0.0227(3) 0.3270(4) 0.8481(3)
H11 H 0.0520 0.3070 0.8920
C22 C 0.1668(3) 0.3695(4) 0.7853(3)
C23 C 0.2016(3) 0.3854(3) 0.8495(3)
H13 H 0.1643 0.3938 0.8923
C24 C 0.2897(3) 0.3886(3) 0.8488(3)
H14 H 0.3121 0.3979 0.8924
C25 C 0.3487(3) 0.3788(3) 0.7869(2)
C26 C 0.3129(3) 0.3626(3) 0.7222(2)
H15 H 0.3505 0.3551 0.6794
C27 C 0.2258(3) 0.3581(3) 0.7215(3)
H16 H 0.2038 0.3472 0.6783
C28 C 0.4473(3) 0.3784(3) 0.7879(2)
O7 O 0.47626(18) 0.38609(17) 0.84873(15)
O8 O 0.49244(19) 0.37275(18) 0.72579(15)
Zn4 Zn 0.62471(3) 0.37942(3) 0.70083(2)
Zn7 Zn 0.61105(3) 0.35260(3) 0.86323(2)
O1 O 0.6060(2) 0.22575(17) 0.84378(15)
O2 O 0.6518(2) 0.24118(16) 0.72202(14)
C1 C 0.6278(3) 0.1959(3) 0.7823(2)
C2 C 0.6309(4) 0.0965(3) 0.7812(2)
C3 C 0.6635(5) 0.0556(3) 0.7194(3)
H1 H 0.6879 0.0889 0.6779
C7 C 0.5997(4) 0.0442(3) 0.8428(3)
H4 H 0.5804 0.0693 0.8863
O5 O 0.74881(18) 0.32526(19) 0.84271(16)
O6 O 0.7534(2) 0.3801(2) 0.72081(16)
C15 C 0.7897(3) 0.3509(3) 0.7824(2)
C16 C 0.8864(3) 0.3526(3) 0.7842(2)
C17 C 0.9351(3) 0.3885(4) 0.7191(3)
H9 H 0.9057 0.4096 0.6753
C21 C 0.9332(3) 0.3214(4) 0.8474(3)
H12 H 0.9038 0.2960 0.8903
N1 N 0.6260(2) 0.3917(2) 0.58804(17)
C29 C 0.6193(6) 0.4686(4) 0.5461(3)
H17 H 0.6163 0.5203 0.5686
C30 C 0.6164(7) 0.4787(4) 0.4711(3)
H18 H 0.6115 0.5363 0.4436
C31 C 0.6206(4) 0.4047(3) 0.4353(2)
C32 C 0.6190(7) 0.3307(4) 0.4802(3)
H19 H 0.6131 0.2789 0.4610
C33 C 0.6255(6) 0.3257(4) 0.5544(3)
H20 H 0.6299 0.2688 0.5828
C34 C 0.6145(4) 0.4152(4) 0.3538(3)
H21 H 0.6049 0.4730 0.3268
N2 N 0.6219(4) 0.3477(3) 0.3202(2)
N3 N 0.6195(3) 0.3725(3) 0.2428(2)
C35 C 0.6145(4) 0.3065(3) 0.2109(2)
H22 H 0.6126 0.2502 0.2391
C36 C 0.6115(4) 0.3171(3) 0.1299(3)
C37 C 0.5997(4) 0.4027(3) 0.0885(2)
H23 H 0.5938 0.4544 0.1114
C38 C 0.5969(4) 0.4086(3) 0.0126(2)
C39 C 0.6128(4) 0.2540(3) 0.0169(2)
C40 C 0.6180(4) 0.2427(3) 0.0939(2)
H26 H 0.6259 0.1848 0.1210
O9 O 0.6195(2) 0.48661(17) 0.83687(15)
O10 O 0.5988(2) 0.51311(17) 0.71537(15)
N5 N 0.6054(2) 0.3378(2) 0.97655(17)
H24 H 0.5884 0.4660 0.9848
H25 H 0.6144 0.2038 0.9929
C4 C 0.6604(5) 0.9657(3) 0.7182(3)
H2 H 0.6818 0.9394 0.6756
C5 C 0.6262(5) 0.9150(3) 0.7787(3)
C6 C 0.5967(5) 0.9561(3) 0.8407(3)
H3 H 0.5738 0.9223 0.8827
C8 C 0.6229(5) 0.8184(3) 0.7767(3)
C9 C 0.6336(4) 0.7540(3) 0.8434(3)
H5 H 0.6451 0.7722 0.8876
C10 C 0.6270(4) 0.6650(3) 0.8416(3)
H6 H 0.6326 0.6244 0.8856
C11 C 0.6122(4) 0.6337(3) 0.7770(2)
C12 C 0.6001(5) 0.6984(3) 0.7117(3)
H7 H 0.5896 0.6798 0.6674
C13 C 0.6035(5) 0.7869(3) 0.7128(3)
H8 H 0.5926 0.8278 0.6696
C14 C 0.6085(3) 0.5383(3) 0.7767(2)
C4_2 C 0.3396(5) 0.0343(3) 0.2818(3)
H2_2 H 0.3182 0.0606 0.3244
C5_2 C 0.3738(5) 0.0850(3) 0.2213(3)
C6_2 C 0.4033(5) 0.0439(3) 0.1593(3)
H3_2 H 0.4262 0.0777 0.1173
C8_2 C 0.3771(5) 0.1816(3) 0.2233(3)
C9_2 C 0.3664(4) 0.2460(3) 0.1566(3)
H5_2 H 0.3549 0.2278 0.1124
C10_2 C 0.3730(4) 0.3350(3) 0.1584(3)
H6_2 H 0.3674 0.3756 0.1144
C11_2 C 0.3878(4) 0.3663(3) 0.2230(2)
C12_2 C 0.3999(5) 0.3016(3) 0.2883(3)
H7_2 H 0.4104 0.3202 0.3326
C13_2 C 0.3965(5) 0.2131(3) 0.2872(3)
H8_2 H 0.4074 0.1722 0.3304
C14_2 C 0.3915(3) 0.4617(3) 0.2233(2)
O3 O 0.3805(2) 0.51339(17) 0.16313(15)
O4 O 0.4012(2) 0.48689(17) 0.28463(15)
Zn3 Zn 0.37529(3) 0.62058(3) 0.29917(2)
Zn5 Zn 0.38895(3) 0.64740(3) 0.13677(2)
H24_2 H 0.4116 0.5340 0.0152
N4 N 0.3946(2) 0.6622(2) 0.02345(17)
H25_2 H 0.3856 0.7962 0.0071
O1_2 O 0.3940(2) 0.77425(17) 0.15622(15)
O2_2 O 0.3482(2) 0.75882(16) 0.27798(14)
C1_2 C 0.3722(3) 0.8041(3) 0.2177(2)
C2_2 C 0.3691(4) 0.9035(3) 0.2188(2)
C3_2 C 0.3365(5) 0.9444(3) 0.2806(3)
H1_2 H 0.3121 0.9111 0.3221
C7_2 C 0.4003(4) 0.9558(3) 0.1572(3)
H4_2 H 0.4196 0.9307 0.1137
O5_2 O 0.25119(18) 0.67474(19) 0.15729(16)
O6_2 O 0.2466(2) 0.6199(2) 0.27919(16)
C15_2 C 0.2103(3) 0.6491(3) 0.2176(2)
C16_2 C 0.1136(3) 0.6474(3) 0.2158(2)
C17_2 C 0.0649(3) 0.6115(4) 0.2809(3)
H9_2 H 0.0943 0.5904 0.3247
C21_2 C 0.0668(3) 0.6786(4) 0.1526(3)
H12_2 H 0.0962 0.7040 0.1097
N1_2 N 0.3740(2) 0.6083(2) 0.41196(17)
C29_2 C 0.3807(6) 0.5314(4) 0.4539(3)
H17_2 H 0.3837 0.4797 0.4314
C30_2 C 0.3836(7) 0.5213(4) 0.5289(3)
H18_2 H 0.3885 0.4637 0.5564
C31_2 C 0.3794(4) 0.5953(3) 0.5647(2)
C32_2 C 0.3810(7) 0.6693(4) 0.5198(3)
H19_2 H 0.3869 0.7211 0.5390
C33_2 C 0.3745(6) 0.6743(4) 0.4456(3)
H20_2 H 0.3701 0.7312 0.4172
C34_2 C 0.3855(4) 0.5848(4) 0.6462(3)
H21_2 H 0.3951 0.5270 0.6732
N2_2 N 0.3781(4) 0.6523(3) 0.6798(2)
N3_2 N 0.3805(3) 0.6275(3) 0.7572(2)
C35_2 C 0.3855(4) 0.6935(3) 0.7891(2)
H22_2 H 0.3874 0.7498 0.7609
C36_2 C 0.3885(4) 0.6829(3) 0.8701(3)
C37_2 C 0.4003(4) 0.5973(3) 0.9115(2)
H23_2 H 0.4062 0.5456 0.8886
C38_2 C 0.4031(4) 0.5914(3) 0.9874(2)
C39_2 C 0.3872(4) 0.7460(3) 0.9831(2)
C40_2 C 0.3820(4) 0.7573(3) 0.9061(2)
H26_2 H 0.3741 0.8152 0.8790
O11 O 0.52374(18) 0.61391(17) 0.15127(15)
O12 O 0.50756(19) 0.62725(18) 0.27421(15)
C18_2 C 0.9771(3) 0.6078(4) 0.2799(3)
H10_2 H 0.9473 0.5844 0.3235
C19_2 C 0.9292(3) 0.6377(4) 0.2160(3)
C20_2 C 0.9773(3) 0.6730(4) 0.1519(3)
H11_2 H 0.9480 0.6930 0.1080
C22_2 C 0.8332(3) 0.6305(4) 0.2147(3)
C23_2 C 0.7984(3) 0.6146(3) 0.1505(3)
H13_2 H 0.8357 0.6062 0.1077
C24_2 C 0.7103(3) 0.6114(3) 0.1512(3)
H14_2 H 0.6879 0.6021 0.1076
C25_2 C 0.6513(3) 0.6212(3) 0.2131(2)
C26_2 C 0.6871(3) 0.6374(3) 0.2778(2)
H15_2 H 0.6495 0.6449 0.3206
C27_2 C 0.7742(3) 0.6419(3) 0.2785(3)
H16_2 H 0.7962 0.6528 0.3217
C28_2 C 0.5527(3) 0.6216(3) 0.2121(2)
loop_
_geom_bond_atom_site_label_1
_geom_bond_atom_site_label_2
_geom_bond_site_symmetry_1
_geom_bond_site_symmetry_2
H10 C18 1_555 1_555
C19 C18 1_555 1_555
C20 C19 1_555 1_555
H11 C20 1_555 1_555
C22 C19 1_555 1_555
C23 C22 1_555 1_555
H13 C23 1_555 1_555
C24 C23 1_555 1_555
H14 C24 1_555 1_555
C25 C24 1_555 1_555
C26 C25 1_555 1_555
H15 C26 1_555 1_555
C27 C22 1_555 1_555
H16 C27 1_555 1_555
C28 C25 1_555 1_555
O7 C28 1_555 1_555
O8 C28 1_555 1_555
Zn4 O8 1_555 1_555
Zn7 O7 1_555 1_555
C26 C27 1_555 1_555
Zn4 O2 1_555 1_555
Zn7 O1 1_555 1_555
O1 C1 1_555 1_555
O2 C1 1_555 1_555
C1 C2 1_555 1_555
C2 C3 1_555 1_555
C3 H1 1_555 1_555
C7 C2 1_555 1_555
H4 C7 1_555 1_555
O5 Zn7 1_555 1_555
O6 Zn4 1_555 1_555
C15 O5 1_555 1_555
C16 C15 1_555 1_555
C17 C16 1_555 1_555
H9 C17 1_555 1_555
C21 C16 1_555 1_555
H12 C21 1_555 1_555
N1 Zn4 1_555 1_555
C29 N1 1_555 1_555
H17 C29 1_555 1_555
C30 C29 1_555 1_555
H18 C30 1_555 1_555
C31 C30 1_555 1_555
C32 C31 1_555 1_555
H19 C32 1_555 1_555
C33 N1 1_555 1_555
H20 C33 1_555 1_555
C34 C31 1_555 1_555
H21 C34 1_555 1_555
N2 C34 1_555 1_555
N3 N2 1_555 1_555
C35 N3 1_555 1_555
H22 C35 1_555 1_555
C36 C35 1_555 1_555
C37 C36 1_555 1_555
H23 C37 1_555 1_555
C38 C37 1_555 1_555
C40 C36 1_555 1_555
H26 C40 1_555 1_555
O9 Zn7 1_555 1_555
O10 Zn4 1_555 1_555
N5 Zn7 1_555 1_555
O6 C15 1_555 1_555
C32 C33 1_555 1_555
C39 C40 1_555 1_555
H2 C4 1_555 1_555
C5 C4 1_555 1_555
C6 C5 1_555 1_555
H3 C6 1_555 1_555
C8 C5 1_555 1_555
C9 C8 1_555 1_555
H5 C9 1_555 1_555
C10 C9 1_555 1_555
H6 C10 1_555 1_555
C11 C10 1_555 1_555
C12 C11 1_555 1_555
H7 C12 1_555 1_555
C13 C8 1_555 1_555
H8 C13 1_555 1_555
C14 C11 1_555 1_555
O9 C14 1_555 1_555
O10 C14 1_555 1_555
C12 C13 1_555 1_555
H2_2 C4_2 1_555 1_555
C5_2 C4_2 1_555 1_555
C6_2 C5_2 1_555 1_555
H3_2 C6_2 1_555 1_555
C8_2 C5_2 1_555 1_555
C9_2 C8_2 1_555 1_555
H5_2 C9_2 1_555 1_555
C10_2 C9_2 1_555 1_555
H6_2 C10_2 1_555 1_555
C11_2 C10_2 1_555 1_555
C12_2 C11_2 1_555 1_555
H7_2 C12_2 1_555 1_555
C13_2 C8_2 1_555 1_555
H8_2 C13_2 1_555 1_555
C14_2 C11_2 1_555 1_555
O3 C14_2 1_555 1_555
O4 C14_2 1_555 1_555
Zn3 O4 1_555 1_555
Zn5 O3 1_555 1_555
C12_2 C13_2 1_555 1_555
Zn5 N4 1_555 1_555
Zn3 O2_2 1_555 1_555
Zn5 O1_2 1_555 1_555
O1_2 C1_2 1_555 1_555
O2_2 C1_2 1_555 1_555
C1_2 C2_2 1_555 1_555
C2_2 C3_2 1_555 1_555
C3_2 H1_2 1_555 1_555
C7_2 C2_2 1_555 1_555
H4_2 C7_2 1_555 1_555
O5_2 Zn5 1_555 1_555
O6_2 Zn3 1_555 1_555
C15_2 O5_2 1_555 1_555
C16_2 C15_2 1_555 1_555
C17_2 C16_2 1_555 1_555
H9_2 C17_2 1_555 1_555
C21_2 C16_2 1_555 1_555
H12_2 C21_2 1_555 1_555
N1_2 Zn3 1_555 1_555
C29_2 N1_2 1_555 1_555
H17_2 C29_2 1_555 1_555
C30_2 C29_2 1_555 1_555
H18_2 C30_2 1_555 1_555
C31_2 C30_2 1_555 1_555
C32_2 C31_2 1_555 1_555
H19_2 C32_2 1_555 1_555
C33_2 N1_2 1_555 1_555
H20_2 C33_2 1_555 1_555
C34_2 C31_2 1_555 1_555
H21_2 C34_2 1_555 1_555
N2_2 C34_2 1_555 1_555
N3_2 N2_2 1_555 1_555
C35_2 N3_2 1_555 1_555
H22_2 C35_2 1_555 1_555
C36_2 C35_2 1_555 1_555
C37_2 C36_2 1_555 1_555
H23_2 C37_2 1_555 1_555
C38_2 C37_2 1_555 1_555
C40_2 C36_2 1_555 1_555
H26_2 C40_2 1_555 1_555
O11 Zn5 1_555 1_555
O12 Zn3 1_555 1_555
O6_2 C15_2 1_555 1_555
C32_2 C33_2 1_555 1_555
C39_2 C40_2 1_555 1_555
H10_2 C18_2 1_555 1_555
C19_2 C18_2 1_555 1_555
C20_2 C19_2 1_555 1_555
H11_2 C20_2 1_555 1_555
C22_2 C19_2 1_555 1_555
C23_2 C22_2 1_555 1_555
H13_2 C23_2 1_555 1_555
C24_2 C23_2 1_555 1_555
H14_2 C24_2 1_555 1_555
C25_2 C24_2 1_555 1_555
C26_2 C25_2 1_555 1_555
H15_2 C26_2 1_555 1_555
C27_2 C22_2 1_555 1_555
H16_2 C27_2 1_555 1_555
C28_2 C25_2 1_555 1_555
O11 C28_2 1_555 1_555
O12 C28_2 1_555 1_555
C26_2 C27_2 1_555 1_555

#END
