
###############################################################################
#
# This file contains modified crystal structure data generated from the
# MOF subset of the Cambridge Structural Database (CSD) v543 
# hosted by the Cambridge Crystallographic Data Centre (CCDC).
#
# This work is licensed under the Creative Commons
# Attribution-NonCommercial-ShareAlike 4.0 International License.
# To view a copy of this license, visit
# http://creativecommons.org/licenses/by-nc-sa/4.0/
# or send a letter to
# Creative Commons, PO Box 1866, Mountain View, CA 94042, USA.
#
# CIF created using the CSD Python API on 29 September 2022
# The structure has been converted into the P1 space group
# The structure has a 3D framework
# The original CSD entry GADDOH is in the triclinic crystal system
# The framework has been calculated to contain at least 10.0% void space
# The void calculation uses a probe of radius 1.32A, grid spacing 0.4
#
###############################################################################

data_GADDOH
_chemical_formula_moiety         '(C40 H40 Cl12 La2 N4 O18)n'
_symmetry_cell_setting           triclinic
_symmetry_space_group_name_H-M   'P 1'
_symmetry_Int_Tables_number      1
_space_group_name_Hall           'P 1'
loop_
_symmetry_equiv_pos_site_id
_symmetry_equiv_pos_as_xyz
1 x,y,z
_cell_length_a                   10.1071(8)
_cell_length_b                   13.0894(10)
_cell_length_c                   13.6696(11)
_cell_angle_alpha                97.0740(10)
_cell_angle_beta                 109.8430(10)
_cell_angle_gamma                95.596(2)
_cell_volume                     1669.2
loop_
_atom_site_label
_atom_site_type_symbol
_atom_site_fract_x
_atom_site_fract_y
_atom_site_fract_z
_atom_site_U_iso_or_equiv
_atom_site_thermal_displace_type
C3 C 0.1265(5) 0.4598(3) 0.0200(3) 0.0280 Uani
C5 C 0.2216(5) 0.0575(3) 0.3862(3) 0.0307 Uani
C6 C 0.3662(4) 0.0286(3) 0.4463(3) 0.0247 Uani
C7 C 0.4749(4) 0.1004(3) 0.5235(3) 0.0249 Uani
C8 C 0.6065(4) 0.0728(3) 0.5758(3) 0.0248 Uani
C13 C 0.1947(7) 0.3808(4) 0.2805(4) 0.0520 Uani
C14 C 0.3538(8) 0.3701(7) 0.3261(7) 0.0823 Uani
H1 H 0.4066 0.4126 0.2933 0.1240 Uiso
H2 H 0.3654 0.2970 0.3114 0.1240 Uiso
H3 H 0.3904 0.3940 0.4025 0.1240 Uiso
C15 C 0.2656(12) 0.5608(5) 0.3650(7) 0.0969 Uani
H4 H 0.2622 0.5685 0.4364 0.1460 Uiso
H5 H 0.2387 0.6229 0.3343 0.1460 Uiso
H6 H 0.3622 0.5524 0.3683 0.1460 Uiso
C16 C 0.0072(10) 0.4764(7) 0.2545(7) 0.0875 Uani
Cl1 Cl 0.28370(14) 0.40952(10) 0.04438(12) 0.0486 Uani
Cl3 Cl 0.43827(13) 0.22433(9) 0.55303(10) 0.0425 Uani
Cl4 Cl 0.73850(11) 0.16382(8) 0.66688(8) 0.0331 Uani
La1 La 0.03628(2) 0.11963(2) 0.13967(2) 0.0177 Uani
N1 N 0.1683(7) 0.4709(4) 0.3008(4) 0.0681 Uani
O3 O 0.2182(4) 0.1078(3) 0.3129(3) 0.0405 Uani
O4 O 0.1218(4) 0.0260(4) 0.4121(3) 0.0500 Uani
O7 O 0.1024(4) 0.3018(3) 0.2276(3) 0.0444 Uani
C21 C 0.0004(5) 0.7213(2) 0.0629(3) 0.0285 Uani
C24 C 0.1287(5) 0.5664(3) 0.0483(3) 0.0308 Uani
Cl8 Cl 0.28651(14) 0.64882(10) 0.10757(12) 0.0512 Uani
O10 O 0.0160(4) 0.7832(2) 0.0026(3) 0.0378 Uani
O22 O 0.1469(3) 0.0090(2) 0.0194(2) 0.0224 Uani
O24 O 0.2878(3) 0.1508(2) 0.1205(3) 0.0368 Uani
H7 H 0.9615 0.4207 0.1936 0.1310 Uiso
H8 H 0.9929 0.5441 0.2321 0.1310 Uiso
H9 H 0.9650 0.4679 0.3084 0.1310 Uiso
C17 C 0.7423(5) 0.1901(4) 0.2183(4) 0.0378 Uani
C18 C 0.6669(8) 0.2744(5) 0.1693(5) 0.0598 Uani
H10 H 0.6865 0.2826 0.1050 0.0890 Uiso
H11 H 0.7007 0.3400 0.2193 0.0890 Uiso
H12 H 0.5642 0.2556 0.1516 0.0890 Uiso
C19 C 0.6157(9) 0.2004(7) 0.3428(6) 0.0769 Uani
H13 H 0.5999 0.2683 0.3214 0.1150 Uiso
H14 H 0.6583 0.2093 0.4199 0.1150 Uiso
H15 H 0.5245 0.1540 0.3185 0.1150 Uiso
C20 C 0.7773(7) 0.0696(5) 0.3412(5) 0.0603 Uani
H16 H 0.7296 0.0037 0.2945 0.0900 Uiso
H17 H 0.7685 0.0684 0.4103 0.0900 Uiso
H18 H 0.8782 0.0792 0.3496 0.0900 Uiso
N2 N 0.7119(5) 0.1549(4) 0.2958(3) 0.0465 Uani
O8 O 0.8288(4) 0.1502(3) 0.1835(3) 0.0426 Uani
C22 C 0.9990(5) 0.6069(2) 0.0276(3) 0.0245 Uani
O11 O 0.9847(4) 0.7457(2) 0.1485(3) 0.0426 Uani
C29 C 0.2664(4) 0.0684(3) 0.0576(3) 0.0213 Uani
C30 C 0.3870(4) 0.0334(3) 0.0271(3) 0.0198 Uani
C11 C 0.5685(4) 0.9214(3) 0.0457(3) 0.0222 Uani
Cl5 Cl 0.64767(12) 0.82025(9) 0.09792(9) 0.0369 Uani
O9 O 0.9741(3) 0.9513(2) 0.1964(2) 0.0307 Uani
H19 H 0.9774 0.9753 0.2557 0.0370 Uiso
H20 H 0.9921 0.8926 0.1831 0.0370 Uiso
C32 C 0.4590(4) 0.9563(3) 0.0745(3) 0.0220 Uani
Cl12 Cl 0.40864(12) 0.90574(9) 0.16881(9) 0.0363 Uani
C2 C 0.0010(5) 0.3931(2) 0.9724(3) 0.0245 Uani
O2 O 0.0153(4) 0.2543(2) 0.8515(3) 0.0426 Uani
C25 C 0.7784(5) 0.9425(3) 0.6138(3) 0.0307 Uani
C26 C 0.6338(4) 0.9714(3) 0.5537(3) 0.0247 Uani
C27 C 0.5251(4) 0.8996(3) 0.4765(3) 0.0249 Uani
C28 C 0.3935(4) 0.9272(3) 0.4242(3) 0.0248 Uani
Cl9 Cl 0.56173(13) 0.77567(9) 0.44697(10) 0.0425 Uani
Cl10 Cl 0.26150(11) 0.83618(8) 0.33312(8) 0.0331 Uani
O12 O 0.7818(4) 0.8922(3) 0.6871(3) 0.0405 Uani
O13 O 0.8782(4) 0.9740(4) 0.5879(3) 0.0500 Uani
La6 La 0.96372(2) 0.88037(2) 0.86033(2) 0.0177 Uani
C1 C 0.9996(5) 0.2787(2) 0.9371(3) 0.0285 Uani
C4 C 0.8713(5) 0.4336(3) 0.9517(3) 0.0308 Uani
C12 C 0.5410(4) 0.0437(3) 0.9255(3) 0.0220 Uani
Cl2 Cl 0.71349(14) 0.35118(10) 0.89243(12) 0.0512 Uani
Cl6 Cl 0.59136(12) 0.09426(9) 0.83119(9) 0.0363 Uani
O1 O 0.9840(4) 0.2168(2) 0.9974(3) 0.0378 Uani
C23 C 0.8735(5) 0.5402(3) 0.9800(3) 0.0280 Uani
Cl7 Cl 0.71630(14) 0.59048(10) 0.95562(12) 0.0486 Uani
C31 C 0.4315(4) 0.0786(3) 0.9543(3) 0.0222 Uani
Cl11 Cl 0.35233(12) 0.17975(9) 0.90208(9) 0.0369 Uani
O18 O 0.0259(3) 0.0487(2) 0.8036(2) 0.0307 Uani
H39 H 0.0226 0.0247 0.7443 0.0370 Uiso
H40 H 0.0079 0.1074 0.8169 0.0370 Uiso
C9 C 0.7336(4) 0.9316(3) 0.9424(3) 0.0213 Uani
C10 C 0.6130(4) 0.9666(3) 0.9729(3) 0.0198 Uani
O5 O 0.8531(3) 0.9910(2) 0.9806(2) 0.0224 Uani
O6 O 0.7122(3) 0.8492(2) 0.8795(3) 0.0368 Uani
H27 H 0.0385 0.5793 0.8064 0.1310 Uiso
H28 H 0.0071 0.4559 0.7679 0.1310 Uiso
H29 H 0.0350 0.5321 0.6916 0.1310 Uiso
C37 C 0.2577(5) 0.8099(4) 0.7817(4) 0.0378 Uani
C38 C 0.3331(8) 0.7256(5) 0.8307(5) 0.0598 Uani
H30 H 0.3135 0.7174 0.8950 0.0890 Uiso
H31 H 0.2993 0.6600 0.7807 0.0890 Uiso
H32 H 0.4358 0.7444 0.8484 0.0890 Uiso
C39 C 0.3843(9) 0.7996(7) 0.6572(6) 0.0769 Uani
H33 H 0.4001 0.7317 0.6786 0.1150 Uiso
H34 H 0.3417 0.7907 0.5801 0.1150 Uiso
H35 H 0.4755 0.8460 0.6815 0.1150 Uiso
C40 C 0.2227(7) 0.9304(5) 0.6588(5) 0.0603 Uani
H36 H 0.2704 0.9963 0.7055 0.0900 Uiso
H37 H 0.2315 0.9316 0.5897 0.0900 Uiso
H38 H 0.1218 0.9208 0.6504 0.0900 Uiso
N4 N 0.2881(5) 0.8451(4) 0.7042(3) 0.0465 Uani
O17 O 0.1712(4) 0.8498(3) 0.8165(3) 0.0426 Uani
C33 C 0.8053(7) 0.6192(4) 0.7195(4) 0.0520 Uani
C34 C 0.6462(8) 0.6299(7) 0.6739(7) 0.0823 Uani
H21 H 0.5934 0.5874 0.7067 0.1240 Uiso
H22 H 0.6346 0.7030 0.6886 0.1240 Uiso
H23 H 0.6096 0.6060 0.5975 0.1240 Uiso
C35 C 0.7344(12) 0.4392(5) 0.6350(7) 0.0969 Uani
H24 H 0.7378 0.4315 0.5636 0.1460 Uiso
H25 H 0.7613 0.3771 0.6657 0.1460 Uiso
H26 H 0.6378 0.4476 0.6317 0.1460 Uiso
C36 C 0.9928(10) 0.5236(7) 0.7455(7) 0.0875 Uani
N3 N 0.8317(7) 0.5291(4) 0.6992(4) 0.0681 Uani
O16 O 0.8976(4) 0.6982(3) 0.7724(3) 0.0444 Uani
loop_
_atom_site_aniso_label
_atom_site_aniso_U_11
_atom_site_aniso_U_22
_atom_site_aniso_U_33
_atom_site_aniso_U_23
_atom_site_aniso_U_13
_atom_site_aniso_U_12
C3 0.034 0.023 0.029 0.0073 0.0107 0.0122
C5 0.029 0.031 0.026 0.0026 0.0019 0.0071
C6 0.0227 0.03 0.0183 0.0046 0.0032 0.0037
C7 0.028 0.0247 0.0214 0.0048 0.007 0.0064
C8 0.027 0.0244 0.0193 0.0024 0.0053 -0.0006
C13 0.07 0.04 0.04 0.001 0.017 -0.003
C14 0.063 0.09 0.08 0.02 0.01 -0.004
C15 0.158 0.033 0.083 -0.012 0.04 -0.026
C16 0.117 0.102 0.082 0.047 0.062 0.059
Cl1 0.0371 0.0365 0.0655 0.0002 0.0096 0.0162
Cl3 0.0425 0.0281 0.0471 -0.0031 0.0047 0.0127
Cl4 0.0301 0.0303 0.0297 -0.0008 0.0029 -0.0025
La1 0.0173 0.01765 0.01971 0.00177 0.00829 0.00549
N1 0.103 0.039 0.056 -0.002 0.028 -0.005
O3 0.0362 0.0395 0.0317 0.0139 -0.0068 -0.0015
O4 0.0316 0.081 0.043 0.0149 0.0166 0.0162
O7 0.052 0.0264 0.045 -0.0105 0.012 0.0008
C21 0.037 0.0204 0.027 0.0063 0.008 0.008
C24 0.036 0.024 0.029 0.0038 0.0074 0.0044
Cl8 0.0361 0.0314 0.0704 -0.0051 0.0058 -0.0027
O10 0.054 0.0225 0.0367 0.0128 0.0124 0.008
O22 0.0148 0.0242 0.0259 -0.0033 0.0076 0.0005
O24 0.0355 0.0297 0.0512 -0.0071 0.0285 0.0024
C17 0.029 0.045 0.039 -0.003 0.015 0.006
C18 0.07 0.055 0.063 0.012 0.029 0.027
C19 0.069 0.12 0.063 0.016 0.045 0.033
C20 0.048 0.065 0.07 0.022 0.022 0.001
N2 0.034 0.073 0.039 0.009 0.0191 0.016
O8 0.0333 0.053 0.052 0.004 0.0283 0.0128
C22 0.034 0.0165 0.0202 0.0021 0.0059 0.005
O11 0.069 0.0267 0.0337 0.0017 0.0206 0.0103
C29 0.0174 0.0238 0.0209 0.0007 0.0055 0.0031
C30 0.0139 0.0188 0.0254 -0.0012 0.0078 -0.0011
C11 0.019 0.0234 0.027 0.0099 0.0091 0.0057
Cl5 0.0348 0.037 0.0484 0.0218 0.0177 0.0202
O9 0.0362 0.0205 0.0291 0.0015 0.0045 0.0042
C32 0.0206 0.0252 0.0251 0.0069 0.0134 0.0042
Cl12 0.0408 0.0414 0.042 0.0204 0.0281 0.0114
C2 0.034 0.0165 0.0202 0.0021 0.0059 0.005
O2 0.069 0.0267 0.0337 0.0017 0.0206 0.0103
C25 0.029 0.031 0.026 0.0026 0.0019 0.0071
C26 0.0227 0.03 0.0183 0.0046 0.0032 0.0037
C27 0.028 0.0247 0.0214 0.0048 0.007 0.0064
C28 0.027 0.0244 0.0193 0.0024 0.0053 -0.0006
Cl9 0.0425 0.0281 0.0471 -0.0031 0.0047 0.0127
Cl10 0.0301 0.0303 0.0297 -0.0008 0.0029 -0.0025
O12 0.0362 0.0395 0.0317 0.0139 -0.0068 -0.0015
O13 0.0316 0.081 0.043 0.0149 0.0166 0.0162
La6 0.0173 0.01765 0.01971 0.00177 0.00829 0.00549
C1 0.037 0.0204 0.027 0.0063 0.008 0.008
C4 0.036 0.024 0.029 0.0038 0.0074 0.0044
C12 0.0206 0.0252 0.0251 0.0069 0.0134 0.0042
Cl2 0.0361 0.0314 0.0704 -0.0051 0.0058 -0.0027
Cl6 0.0408 0.0414 0.042 0.0204 0.0281 0.0114
O1 0.054 0.0225 0.0367 0.0128 0.0124 0.008
C23 0.034 0.023 0.029 0.0073 0.0107 0.0122
Cl7 0.0371 0.0365 0.0655 0.0002 0.0096 0.0162
C31 0.019 0.0234 0.027 0.0099 0.0091 0.0057
Cl11 0.0348 0.037 0.0484 0.0218 0.0177 0.0202
O18 0.0362 0.0205 0.0291 0.0015 0.0045 0.0042
C9 0.0174 0.0238 0.0209 0.0007 0.0055 0.0031
C10 0.0139 0.0188 0.0254 -0.0012 0.0078 -0.0011
O5 0.0148 0.0242 0.0259 -0.0033 0.0076 0.0005
O6 0.0355 0.0297 0.0512 -0.0071 0.0285 0.0024
C37 0.029 0.045 0.039 -0.003 0.015 0.006
C38 0.07 0.055 0.063 0.012 0.029 0.027
C39 0.069 0.12 0.063 0.016 0.045 0.033
C40 0.048 0.065 0.07 0.022 0.022 0.001
N4 0.034 0.073 0.039 0.009 0.0191 0.016
O17 0.0333 0.053 0.052 0.004 0.0283 0.0128
C33 0.07 0.04 0.04 0.001 0.017 -0.003
C34 0.063 0.09 0.08 0.02 0.01 -0.004
C35 0.158 0.033 0.083 -0.012 0.04 -0.026
C36 0.117 0.102 0.082 0.047 0.062 0.059
N3 0.103 0.039 0.056 -0.002 0.028 -0.005
O16 0.052 0.0264 0.045 -0.0105 0.012 0.0008
loop_
_geom_bond_atom_site_label_1
_geom_bond_atom_site_label_2
_geom_bond_site_symmetry_1
_geom_bond_site_symmetry_2
C3 Cl1 1_555 1_555
C5 C6 1_555 1_555
C6 C7 1_555 1_555
C7 C8 1_555 1_555
C8 Cl4 1_555 1_555
C13 C14 1_555 1_555
C14 H1 1_555 1_555
H2 C14 1_555 1_555
H3 C14 1_555 1_555
C15 H4 1_555 1_555
H5 C15 1_555 1_555
H6 C15 1_555 1_555
Cl3 C7 1_555 1_555
N1 C13 1_555 1_555
O3 C5 1_555 1_555
O4 C5 1_555 1_555
O7 C13 1_555 1_555
C24 C3 1_555 1_555
Cl8 C24 1_555 1_555
O10 C21 1_555 1_555
O22 La1 1_555 1_555
O24 La1 1_555 1_555
C15 N1 1_555 1_555
C16 N1 1_555 1_555
La1 O3 1_555 1_555
La1 O7 1_555 1_555
C17 C18 1_555 1_555
C18 H10 1_555 1_555
H11 C18 1_555 1_555
H12 C18 1_555 1_555
C19 H13 1_555 1_555
H14 C19 1_555 1_555
H15 C19 1_555 1_555
C20 H16 1_555 1_555
H17 C20 1_555 1_555
H18 C20 1_555 1_555
N2 C17 1_555 1_555
O8 C17 1_555 1_555
C29 C30 1_555 1_555
O22 C29 1_555 1_555
O24 C29 1_555 1_555
C19 N2 1_555 1_555
C20 N2 1_555 1_555
C11 Cl5 1_555 1_555
H19 O9 1_555 1_555
H20 O9 1_555 1_555
C32 C11 1_555 1_555
Cl12 C32 1_555 1_555
C25 C26 1_555 1_555
C27 C26 1_555 1_555
Cl9 C27 1_555 1_555
Cl10 C28 1_555 1_555
O12 C25 1_555 1_555
O13 C25 1_555 1_555
La6 O12 1_555 1_555
C27 C28 1_555 1_555
Cl2 C4 1_555 1_555
Cl6 C12 1_555 1_555
O1 C1 1_555 1_555
C23 C4 1_555 1_555
Cl7 C23 1_555 1_555
C31 C12 1_555 1_555
Cl11 C31 1_555 1_555
H39 O18 1_555 1_555
H40 O18 1_555 1_555
C9 C10 1_555 1_555
O5 C9 1_555 1_555
O6 C9 1_555 1_555
C37 C38 1_555 1_555
C38 H30 1_555 1_555
H31 C38 1_555 1_555
H32 C38 1_555 1_555
C39 H33 1_555 1_555
H34 C39 1_555 1_555
H35 C39 1_555 1_555
C40 H36 1_555 1_555
H37 C40 1_555 1_555
H38 C40 1_555 1_555
N4 C37 1_555 1_555
O17 C37 1_555 1_555
La6 O5 1_555 1_555
O6 La6 1_555 1_555
C39 N4 1_555 1_555
C40 N4 1_555 1_555
C33 C34 1_555 1_555
C34 H21 1_555 1_555
H22 C34 1_555 1_555
H23 C34 1_555 1_555
C35 H24 1_555 1_555
H25 C35 1_555 1_555
H26 C35 1_555 1_555
N3 C33 1_555 1_555
O16 C33 1_555 1_555
C35 N3 1_555 1_555
C36 N3 1_555 1_555
La6 O16 1_555 1_555

#END
