
###############################################################################
#
# This file contains modified crystal structure data generated from the
# MOF subset of the Cambridge Structural Database (CSD) v543 
# hosted by the Cambridge Crystallographic Data Centre (CCDC).
#
# This work is licensed under the Creative Commons
# Attribution-NonCommercial-ShareAlike 4.0 International License.
# To view a copy of this license, visit
# http://creativecommons.org/licenses/by-nc-sa/4.0/
# or send a letter to
# Creative Commons, PO Box 1866, Mountain View, CA 94042, USA.
#
# CIF created using the CSD Python API on 29 September 2022
# The structure has been converted into the P1 space group
# The structure has a 3D framework
# The original CSD entry GAHMEL is in the monoclinic crystal system
# The framework has been calculated to contain at least 10.0% void space
# The void calculation uses a probe of radius 1.32A, grid spacing 0.4
#
###############################################################################

data_GAHMEL
_chemical_formula_moiety         '(C112 H72 Co8 N32 O38)n'
_symmetry_cell_setting           triclinic
_symmetry_space_group_name_H-M   'P 1'
_symmetry_Int_Tables_number      1
_space_group_name_Hall           'P 1'
loop_
_symmetry_equiv_pos_site_id
_symmetry_equiv_pos_as_xyz
1 x,y,z
_cell_length_a                   13.887(3)
_cell_length_b                   13.691(3)
_cell_length_c                   19.450(4)
_cell_angle_alpha                90
_cell_angle_beta                 100.908(13)
_cell_angle_gamma                90
_cell_volume                     3631.15
loop_
_atom_site_label
_atom_site_type_symbol
_atom_site_fract_x
_atom_site_fract_y
_atom_site_fract_z
Co6 Co 0.12085(3) 0.72674(3) 0.01731(2)
N6 N 0.0025(2) 0.8602(2) 0.54969(14)
N8 N 0.0155(2) 0.8360(2) 0.95587(14)
C23 C 0.0073(2) 0.8979(3) 0.61296(17)
H15 H 0.0640 0.8996 0.6472
C26 C 0.0108(2) 0.8739(3) 0.89340(17)
H16 H 0.0583 0.8644 0.8662
Co3 Co 0.12085(3) 0.77326(3) 0.51731(2)
Co1 Co 0.62085(3) 0.27326(3) 0.01731(2)
O1 O 0.61699(18) 0.17505(19) 0.10748(12)
O2 O 0.76356(18) 0.1025(2) 0.12235(13)
O3 O 0.77690(17) 0.13489(19) 0.41268(13)
O4 O 0.61924(18) 0.1476(2) 0.42192(12)
O5 O 0.7500 0.1854(2) 0.0000
C5 C 0.6554(2) 0.0619(2) 0.19896(15)
C6 C 0.6856(2) 0.1031(2) 0.26524(16)
H4 H 0.7252 0.1584 0.2696
C7 C 0.6589(2) 0.0647(2) 0.32424(15)
C10 C 0.6812(2) 0.1176(2) 0.13729(15)
C11 C 0.6881(2) 0.1199(2) 0.39298(15)
H10 H 0.7680 0.1487 0.0354
Co8 Co 0.87915(3) 0.22674(3) 0.48269(2)
Co10 Co 0.62085(3) 0.22674(3) 0.51731(2)
O10 O 0.72310(17) 0.36511(19) 0.08732(13)
O12 O 0.88076(18) 0.3524(2) 0.07808(12)
N10 N 0.5025(2) 0.3602(2) 0.04969(14)
N12 N 0.9845(2) 0.1640(2) 0.04413(14)
O5_2 O 0.7500 0.1854(2) 1.0000
H1 H 0.7320 0.1487 0.9646
Co2 Co 0.87915(3) 0.27326(3) 0.98269(2)
O6 O 0.88301(18) 0.17505(19) 0.89252(12)
O7 O 0.73644(18) 0.1025(2) 0.87765(13)
O8 O 0.72310(17) 0.13489(19) 0.58732(13)
O9 O 0.88076(18) 0.1476(2) 0.57808(12)
C19 C 0.8446(2) 0.0619(2) 0.80104(15)
C20 C 0.8144(2) 0.1031(2) 0.73476(16)
H13 H 0.7748 0.1584 0.7304
C21 C 0.8411(2) 0.0647(2) 0.67576(15)
C24 C 0.8188(2) 0.1176(2) 0.86271(15)
C25 C 0.8119(2) 0.1199(2) 0.60702(15)
O11 O 0.77690(17) 0.36511(19) 0.91268(13)
O13 O 0.61924(18) 0.3524(2) 0.92192(12)
N9 N 0.9975(2) 0.3602(2) 0.95031(14)
N11 N 0.5155(2) 0.1640(2) 0.95587(14)
N1 N 0.57980(19) 0.9334(2) 0.37832(13)
N2 N 0.4975(2) 0.8602(2) 0.45031(14)
C1 C 0.6436(3) 0.9170(3) 0.43987(19)
H2 H 0.7097 0.9336 0.4500
N3 N 0.5711(2) 0.9286(2) 0.12704(13)
N4 N 0.4845(2) 0.8360(2) 0.04413(14)
C2 C 0.6224(3) 0.9234(3) 0.07282(19)
H3 H 0.6825 0.9526 0.0712
C3 C 0.6011(2) 0.9756(2) 0.19351(15)
C4 C 0.6039(2) 0.9784(2) 0.31761(15)
C8 C 0.5770(2) 0.9334(2) 0.25266(16)
H5 H 0.5426 0.8748 0.2490
C9 C 0.4927(2) 0.8979(3) 0.38704(17)
H6 H 0.4360 0.8996 0.3528
C12 C 0.4892(2) 0.8739(3) 0.10660(17)
H7 H 0.4417 0.8644 0.1338
C13 C 0.5680(3) 0.8677(3) 0.0225(2)
C14 C 0.5923(3) 0.8722(4) 0.4830(2)
H9 H 0.6180 0.8523 0.5285
H17 H 0.9153 0.8529 0.0204
Co4 Co 0.37915(3) 0.77326(3) 0.48269(2)
H8 H 0.5847 0.8529 0.9796
N5 N 0.92020(19) 0.9334(2) 0.62168(13)
C15 C 0.8564(3) 0.9170(3) 0.56013(19)
H11 H 0.7903 0.9336 0.5500
N7 N 0.9289(2) 0.9286(2) 0.87296(13)
C16 C 0.8776(3) 0.9234(3) 0.92718(19)
H12 H 0.8175 0.9526 0.9288
C17 C 0.8989(2) 0.9756(2) 0.80649(15)
C18 C 0.8961(2) 0.9784(2) 0.68239(15)
C22 C 0.9230(2) 0.9334(2) 0.74734(16)
H14 H 0.9574 0.8748 0.7510
C27 C 0.9320(3) 0.8677(3) 0.9775(2)
C28 C 0.9077(3) 0.8722(4) 0.5170(2)
H18 H 0.8820 0.8523 0.4715
Co5 Co 0.37915(3) 0.72674(3) 0.98269(2)
H9_2 H 0.1180 0.3523 0.0285
O1_2 O 0.11699(18) 0.67505(19) 0.60748(12)
O2_2 O 0.26356(18) 0.6025(2) 0.62235(13)
O3_2 O 0.27690(17) 0.63489(19) 0.91268(13)
O4_2 O 0.11924(18) 0.6476(2) 0.92192(12)
O5_3 O 0.2500 0.6854(2) 0.5000
H1_2 H 0.2320 0.6487 0.4646
N1_2 N 0.07980(19) 0.4334(2) 0.87832(13)
C1_2 C 0.1436(3) 0.4170(3) 0.93987(19)
H2_2 H 0.2097 0.4336 0.9500
N3_2 N 0.0711(2) 0.4286(2) 0.62704(13)
C2_2 C 0.1224(3) 0.4234(3) 0.57282(19)
H3_2 H 0.1825 0.4526 0.5712
C3_2 C 0.1011(2) 0.4756(2) 0.69351(15)
C4_2 C 0.1039(2) 0.4784(2) 0.81761(15)
C5_2 C 0.1554(2) 0.5619(2) 0.69896(15)
C6_2 C 0.1856(2) 0.6031(2) 0.76524(16)
H4_2 H 0.2252 0.6584 0.7696
C7_2 C 0.1589(2) 0.5647(2) 0.82424(15)
C8_2 C 0.0770(2) 0.4334(2) 0.75266(16)
H5_2 H 0.0426 0.3748 0.7490
C10_2 C 0.1812(2) 0.6176(2) 0.63729(15)
C11_2 C 0.1881(2) 0.6199(2) 0.89298(15)
C13_2 C 0.0680(3) 0.3677(3) 0.5225(2)
H8_2 H 0.0847 0.3529 0.4796
C14_2 C 0.0923(3) 0.3722(4) 0.9830(2)
H10_2 H 0.2680 0.6487 0.5354
O6_2 O 0.38301(18) 0.67505(19) 0.39252(12)
O7_2 O 0.23644(18) 0.6025(2) 0.37765(13)
O8_2 O 0.22310(17) 0.63489(19) 0.08732(13)
O9_2 O 0.38076(18) 0.6476(2) 0.07808(12)
N5_2 N 0.42020(19) 0.4334(2) 0.12168(13)
C15_2 C 0.3564(3) 0.4170(3) 0.06013(19)
H11_2 H 0.2903 0.4336 0.0500
N7_2 N 0.4289(2) 0.4286(2) 0.37296(13)
N8_2 N 0.5155(2) 0.3360(2) 0.45587(14)
C16_2 C 0.3776(3) 0.4234(3) 0.42718(19)
H12_2 H 0.3175 0.4526 0.4288
C17_2 C 0.3989(2) 0.4756(2) 0.30649(15)
C18_2 C 0.3961(2) 0.4784(2) 0.18239(15)
C19_2 C 0.3446(2) 0.5619(2) 0.30104(15)
C20_2 C 0.3144(2) 0.6031(2) 0.23476(16)
H13_2 H 0.2748 0.6584 0.2304
C21_2 C 0.3411(2) 0.5647(2) 0.17576(15)
C22_2 C 0.4230(2) 0.4334(2) 0.24734(16)
H14_2 H 0.4574 0.3748 0.2510
C23_2 C 0.5073(2) 0.3979(3) 0.11296(17)
H15_2 H 0.5640 0.3996 0.1472
C24_2 C 0.3188(2) 0.6176(2) 0.36271(15)
C25_2 C 0.3119(2) 0.6199(2) 0.10702(15)
C26_2 C 0.5108(2) 0.3739(3) 0.39340(17)
H16_2 H 0.5583 0.3644 0.3662
C27_2 C 0.4320(3) 0.3677(3) 0.4775(2)
H17_2 H 0.4153 0.3529 0.5204
C28_2 C 0.4077(3) 0.3722(4) 0.0170(2)
O10_2 O 0.22310(17) 0.86511(19) 0.58732(13)
O11_2 O 0.27690(17) 0.86511(19) 0.41268(13)
O12_2 O 0.38076(18) 0.8524(2) 0.57808(12)
O13_2 O 0.11924(18) 0.8524(2) 0.42192(12)
N11_2 N 0.0155(2) 0.6640(2) 0.45587(14)
N12_2 N 0.4845(2) 0.6640(2) 0.54413(14)
H18_2 H 0.3820 0.3523 0.9715
N4_2 N 0.9845(2) 0.3360(2) 0.54413(14)
C9_2 C 0.9927(2) 0.3979(3) 0.88704(17)
H6_2 H 0.9360 0.3996 0.8528
C12_2 C 0.9892(2) 0.3739(3) 0.60660(17)
H7_2 H 0.9417 0.3644 0.6338
H8_3 H 0.4153 0.1471 0.0204
N5_3 N 0.07980(19) 0.0666(2) 0.37832(13)
C15_3 C 0.1436(3) 0.0830(3) 0.43987(19)
H11_3 H 0.2097 0.0664 0.4500
N7_3 N 0.0711(2) 0.0714(2) 0.12704(13)
C16_3 C 0.1224(3) 0.0766(3) 0.07282(19)
H12_3 H 0.1825 0.0474 0.0712
C17_3 C 0.1011(2) 0.0244(2) 0.19351(15)
C18_3 C 0.1039(2) 0.0216(2) 0.31761(15)
C22_3 C 0.0770(2) 0.0666(2) 0.25266(16)
H14_3 H 0.0426 0.1252 0.2490
C27_3 C 0.0680(3) 0.1323(3) 0.0225(2)
C28_3 C 0.0923(3) 0.1278(4) 0.4830(2)
H18_3 H 0.1180 0.1477 0.5285
N1_3 N 0.42020(19) 0.0666(2) 0.62168(13)
N2_2 N 0.5025(2) 0.1398(2) 0.54969(14)
C1_3 C 0.3564(3) 0.0830(3) 0.56013(19)
H2_3 H 0.2903 0.0664 0.5500
N3_3 N 0.4289(2) 0.0714(2) 0.87296(13)
C2_3 C 0.3776(3) 0.0766(3) 0.92718(19)
H3_3 H 0.3175 0.0474 0.9288
C3_3 C 0.3989(2) 0.0244(2) 0.80649(15)
C4_3 C 0.3961(2) 0.0216(2) 0.68239(15)
C8_3 C 0.4230(2) 0.0666(2) 0.74734(16)
H5_3 H 0.4574 0.1252 0.7510
C9_3 C 0.5073(2) 0.1021(3) 0.61296(17)
H6_3 H 0.5640 0.1004 0.6472
C12_3 C 0.5108(2) 0.1261(3) 0.89340(17)
H7_3 H 0.5583 0.1356 0.8662
C13_3 C 0.4320(3) 0.1323(3) 0.9775(2)
C14_3 C 0.4077(3) 0.1278(4) 0.5170(2)
H9_3 H 0.3820 0.1477 0.4715
H17_3 H 0.0847 0.1471 0.9796
O5_4 O 0.2500 0.8146(2) 0.0000
H1_3 H 0.2680 0.8513 0.0354
O6_3 O 0.11699(18) 0.82495(19) 0.10748(12)
O7_3 O 0.26356(18) 0.8975(2) 0.12235(13)
C19_3 C 0.1554(2) 0.9381(2) 0.19896(15)
C20_3 C 0.1856(2) 0.8969(2) 0.26524(16)
H13_3 H 0.2252 0.8416 0.2696
C21_3 C 0.1589(2) 0.9353(2) 0.32424(15)
C24_3 C 0.1812(2) 0.8824(2) 0.13729(15)
C25_3 C 0.1881(2) 0.8801(2) 0.39298(15)
N9_2 N 0.0025(2) 0.6398(2) 0.04969(14)
O1_3 O 0.38301(18) 0.82495(19) 0.89252(12)
O2_3 O 0.23644(18) 0.8975(2) 0.87765(13)
O5_5 O 0.2500 0.8146(2) 1.0000
C5_3 C 0.3446(2) 0.9381(2) 0.80104(15)
C6_3 C 0.3144(2) 0.8969(2) 0.73476(16)
H4_3 H 0.2748 0.8416 0.7304
C7_3 C 0.3411(2) 0.9353(2) 0.67576(15)
C10_3 C 0.3188(2) 0.8824(2) 0.86271(15)
C11_3 C 0.3119(2) 0.8801(2) 0.60702(15)
H10_3 H 0.2320 0.8513 0.9646
N10_2 N 0.4975(2) 0.6398(2) 0.95031(14)
N6_2 N 0.9975(2) 0.1398(2) 0.45031(14)
C23_3 C 0.9927(2) 0.1021(3) 0.38704(17)
H15_3 H 0.9360 0.1004 0.3528
C26_3 C 0.9892(2) 0.1261(3) 0.10660(17)
H16_3 H 0.9417 0.1356 0.1338
C9_4 C 0.0073(2) 0.6021(3) 0.11296(17)
H6_4 H 0.0640 0.6004 0.1472
C12_4 C 0.0108(2) 0.6261(3) 0.39340(17)
H7_4 H 0.0583 0.6356 0.3662
H18_4 H 0.6180 0.6477 0.0285
O1_4 O 0.88301(18) 0.32495(19) 0.39252(12)
O2_4 O 0.73644(18) 0.3975(2) 0.37765(13)
O5_6 O 0.7500 0.3146(2) 0.5000
H1_4 H 0.7680 0.3513 0.5354
N1_4 N 0.92020(19) 0.5666(2) 0.12168(13)
C1_4 C 0.8564(3) 0.5830(3) 0.06013(19)
H2_4 H 0.7903 0.5664 0.0500
N3_4 N 0.9289(2) 0.5714(2) 0.37296(13)
C2_4 C 0.8776(3) 0.5766(3) 0.42718(19)
H3_4 H 0.8175 0.5474 0.4288
C3_4 C 0.8989(2) 0.5244(2) 0.30649(15)
C4_4 C 0.8961(2) 0.5216(2) 0.18239(15)
C5_4 C 0.8446(2) 0.4381(2) 0.30104(15)
C6_4 C 0.8144(2) 0.3969(2) 0.23476(16)
H4_4 H 0.7748 0.3416 0.2304
C7_4 C 0.8411(2) 0.4353(2) 0.17576(15)
C8_4 C 0.9230(2) 0.5666(2) 0.24734(16)
H5_4 H 0.9574 0.6252 0.2510
C10_4 C 0.8188(2) 0.3824(2) 0.36271(15)
C11_4 C 0.8119(2) 0.3801(2) 0.10702(15)
C13_4 C 0.9320(3) 0.6323(3) 0.4775(2)
H8_4 H 0.9153 0.6471 0.5204
C14_4 C 0.9077(3) 0.6278(4) 0.0170(2)
H10_4 H 0.7320 0.3513 0.4646
O6_4 O 0.61699(18) 0.32495(19) 0.60748(12)
O7_4 O 0.76356(18) 0.3975(2) 0.62235(13)
N5_4 N 0.57980(19) 0.5666(2) 0.87832(13)
C15_4 C 0.6436(3) 0.5830(3) 0.93987(19)
H11_4 H 0.7097 0.5664 0.9500
N7_4 N 0.5711(2) 0.5714(2) 0.62704(13)
C16_4 C 0.6224(3) 0.5766(3) 0.57282(19)
H12_4 H 0.6825 0.5474 0.5712
C17_4 C 0.6011(2) 0.5244(2) 0.69351(15)
C18_4 C 0.6039(2) 0.5216(2) 0.81761(15)
C19_4 C 0.6554(2) 0.4381(2) 0.69896(15)
C20_4 C 0.6856(2) 0.3969(2) 0.76524(16)
H13_4 H 0.7252 0.3416 0.7696
C21_4 C 0.6589(2) 0.4353(2) 0.82424(15)
C22_4 C 0.5770(2) 0.5666(2) 0.75266(16)
H14_4 H 0.5426 0.6252 0.7490
C23_4 C 0.4927(2) 0.6021(3) 0.88704(17)
H15_4 H 0.4360 0.6004 0.8528
C24_4 C 0.6812(2) 0.3824(2) 0.63729(15)
C25_4 C 0.6881(2) 0.3801(2) 0.89298(15)
C26_4 C 0.4892(2) 0.6261(3) 0.60660(17)
H16_4 H 0.4417 0.6356 0.6338
C27_4 C 0.5680(3) 0.6323(3) 0.5225(2)
H17_4 H 0.5847 0.6471 0.4796
C28_4 C 0.5923(3) 0.6278(4) 0.9830(2)
H9_4 H 0.8820 0.6477 0.9715
loop_
_geom_bond_atom_site_label_1
_geom_bond_atom_site_label_2
_geom_bond_site_symmetry_1
_geom_bond_site_symmetry_2
N6 C23 1_555 1_555
N8 C26 1_555 1_555
H15 C23 1_555 1_555
H16 C26 1_555 1_555
Co3 N6 1_555 1_555
Co1 O1 1_555 1_555
O1 C10 1_555 1_555
O2 C10 1_555 1_555
O3 C11 1_555 1_555
O4 C11 1_555 1_555
O5 Co1 1_555 1_555
C6 C5 1_555 1_555
H4 C6 1_555 1_555
C10 C5 1_555 1_555
C11 C7 1_555 1_555
H10 O5 1_555 1_555
Co8 O3 1_555 1_555
Co10 O4 1_555 1_555
O10 Co1 1_555 1_555
N10 Co1 1_555 1_555
C6 C7 1_555 1_555
H1 O5_2 1_555 1_555
Co2 O5_2 1_555 1_555
O6 Co2 1_555 1_555
O7 C24 1_555 1_555
O8 C25 1_555 1_555
O9 C25 1_555 1_555
C20 C19 1_555 1_555
H13 C20 1_555 1_555
C24 O6 1_555 1_555
C25 C21 1_555 1_555
Co8 O9 1_555 1_555
Co10 O8 1_555 1_555
O11 Co2 1_555 1_555
N9 Co2 1_555 1_555
C19 C24 1_555 1_555
C20 C21 1_555 1_555
N1 C1 1_555 1_555
N2 C9 1_555 1_555
C1 H2 1_555 1_555
N3 C2 1_555 1_555
N4 C12 1_555 1_555
C2 H3 1_555 1_555
C3 N3 1_555 1_555
C4 N1 1_555 1_555
C8 C3 1_555 1_555
H5 C8 1_555 1_555
C9 N1 1_555 1_555
H6 C9 1_555 1_555
C12 N3 1_555 1_555
H7 C12 1_555 1_555
C13 N4 1_555 1_555
C14 N2 1_555 1_555
H9 C14 1_555 1_555
Co4 N2 1_555 1_555
C1 C14 1_555 1_555
C2 C13 1_555 1_555
C4 C8 1_555 1_555
N5 C15 1_555 1_555
C15 H11 1_555 1_555
N7 C16 1_555 1_555
C16 H12 1_555 1_555
C17 N7 1_555 1_555
C18 N5 1_555 1_555
C22 C17 1_555 1_555
H14 C22 1_555 1_555
H18 C28 1_555 1_555
C15 C28 1_555 1_555
C16 C27 1_555 1_555
C18 C22 1_555 1_555
Co3 O1_2 1_555 1_555
O1_2 C10_2 1_555 1_555
O2_2 C10_2 1_555 1_555
O3_2 C11_2 1_555 1_555
O4_2 C11_2 1_555 1_555
O5_3 Co3 1_555 1_555
H1_2 O5_3 1_555 1_555
N1_2 C1_2 1_555 1_555
C1_2 H2_2 1_555 1_555
N3_2 C2_2 1_555 1_555
C2_2 H3_2 1_555 1_555
C3_2 N3_2 1_555 1_555
C4_2 N1_2 1_555 1_555
C5_2 C3_2 1_555 1_555
C6_2 C5_2 1_555 1_555
H4_2 C6_2 1_555 1_555
C7_2 C4_2 1_555 1_555
C8_2 C3_2 1_555 1_555
H5_2 C8_2 1_555 1_555
C10_2 C5_2 1_555 1_555
C11_2 C7_2 1_555 1_555
H8_2 C13_2 1_555 1_555
H10_2 O5_3 1_555 1_555
Co4 O5_3 1_555 1_555
O6_2 Co4 1_555 1_555
O7_2 C24_2 1_555 1_555
O8_2 C25_2 1_555 1_555
O9_2 C25_2 1_555 1_555
N5_2 C15_2 1_555 1_555
N10 C23_2 1_555 1_555
C15_2 H11_2 1_555 1_555
N7_2 C16_2 1_555 1_555
N8_2 C26_2 1_555 1_555
C16_2 H12_2 1_555 1_555
C17_2 N7_2 1_555 1_555
C18_2 N5_2 1_555 1_555
C19_2 C17_2 1_555 1_555
C20_2 C19_2 1_555 1_555
H13_2 C20_2 1_555 1_555
C21_2 C18_2 1_555 1_555
C22_2 C17_2 1_555 1_555
H14_2 C22_2 1_555 1_555
C23_2 N5_2 1_555 1_555
H15_2 C23_2 1_555 1_555
C24_2 O6_2 1_555 1_555
C25_2 C21_2 1_555 1_555
C26_2 N7_2 1_555 1_555
H16_2 C26_2 1_555 1_555
C27_2 N8_2 1_555 1_555
H17_2 C27_2 1_555 1_555
C28_2 N10 1_555 1_555
Co10 N8_2 1_555 1_555
Co5 O3_2 1_555 1_555
Co6 O8_2 1_555 1_555
O10_2 Co3 1_555 1_555
O11_2 Co4 1_555 1_555
O12_2 Co4 1_555 1_555
O13_2 Co3 1_555 1_555
N11_2 Co3 1_555 1_555
N12_2 Co4 1_555 1_555
C1_2 C14_2 1_555 1_555
C2_2 C13_2 1_555 1_555
C4_2 C8_2 1_555 1_555
C6_2 C7_2 1_555 1_555
C15_2 C28_2 1_555 1_555
C16_2 C27_2 1_555 1_555
C18_2 C22_2 1_555 1_555
C19_2 C24_2 1_555 1_555
C20_2 C21_2 1_555 1_555
N9 C9_2 1_555 1_555
N4_2 C12_2 1_555 1_555
H6_2 C9_2 1_555 1_555
H7_2 C12_2 1_555 1_555
Co8 N4_2 1_555 1_555
N5_3 C15_3 1_555 1_555
C15_3 H11_3 1_555 1_555
N7_3 C16_3 1_555 1_555
C16_3 H12_3 1_555 1_555
C17_3 N7_3 1_555 1_555
C18_3 N5_3 1_555 1_555
C22_3 C17_3 1_555 1_555
H14_3 C22_3 1_555 1_555
H18_3 C28_3 1_555 1_555
C15_3 C28_3 1_555 1_555
C16_3 C27_3 1_555 1_555
C18_3 C22_3 1_555 1_555
N1_3 C1_3 1_555 1_555
N2_2 C9_3 1_555 1_555
C1_3 H2_3 1_555 1_555
N3_3 C2_3 1_555 1_555
N11 C12_3 1_555 1_555
C2_3 H3_3 1_555 1_555
C3_3 N3_3 1_555 1_555
C4_3 N1_3 1_555 1_555
C8_3 C3_3 1_555 1_555
H5_3 C8_3 1_555 1_555
C9_3 N1_3 1_555 1_555
H6_3 C9_3 1_555 1_555
C12_3 N3_3 1_555 1_555
H7_3 C12_3 1_555 1_555
C13_3 N11 1_555 1_555
C14_3 N2_2 1_555 1_555
H9_3 C14_3 1_555 1_555
Co10 N2_2 1_555 1_555
C1_3 C14_3 1_555 1_555
C2_3 C13_3 1_555 1_555
C4_3 C8_3 1_555 1_555
H1_3 O5_4 1_555 1_555
Co6 O5_4 1_555 1_555
O6_3 Co6 1_555 1_555
O7_3 C24_3 1_555 1_555
O11_2 C25_3 1_555 1_555
O13_2 C25_3 1_555 1_555
C20_3 C19_3 1_555 1_555
H13_3 C20_3 1_555 1_555
C24_3 O6_3 1_555 1_555
C25_3 C21_3 1_555 1_555
N9_2 Co6 1_555 1_555
C19_3 C24_3 1_555 1_555
C20_3 C21_3 1_555 1_555
Co5 O1_3 1_555 1_555
O1_3 C10_3 1_555 1_555
O2_3 C10_3 1_555 1_555
O10_2 C11_3 1_555 1_555
O12_2 C11_3 1_555 1_555
O5_5 Co5 1_555 1_555
C6_3 C5_3 1_555 1_555
H4_3 C6_3 1_555 1_555
C10_3 C5_3 1_555 1_555
C11_3 C7_3 1_555 1_555
H10_3 O5_5 1_555 1_555
N10_2 Co5 1_555 1_555
C6_3 C7_3 1_555 1_555
N6_2 C23_3 1_555 1_555
N12 C26_3 1_555 1_555
H15_3 C23_3 1_555 1_555
H16_3 C26_3 1_555 1_555
Co8 N6_2 1_555 1_555
N9_2 C9_4 1_555 1_555
N11_2 C12_4 1_555 1_555
H6_4 C9_4 1_555 1_555
H7_4 C12_4 1_555 1_555
Co8 O1_4 1_555 1_555
O1_4 C10_4 1_555 1_555
O2_4 C10_4 1_555 1_555
O10 C11_4 1_555 1_555
O12 C11_4 1_555 1_555
O5_6 Co8 1_555 1_555
H1_4 O5_6 1_555 1_555
N1_4 C1_4 1_555 1_555
C1_4 H2_4 1_555 1_555
N3_4 C2_4 1_555 1_555
C2_4 H3_4 1_555 1_555
C3_4 N3_4 1_555 1_555
C4_4 N1_4 1_555 1_555
C5_4 C3_4 1_555 1_555
C6_4 C5_4 1_555 1_555
H4_4 C6_4 1_555 1_555
C7_4 C4_4 1_555 1_555
C8_4 C3_4 1_555 1_555
H5_4 C8_4 1_555 1_555
C10_4 C5_4 1_555 1_555
C11_4 C7_4 1_555 1_555
H8_4 C13_4 1_555 1_555
H10_4 O5_6 1_555 1_555
Co10 O5_6 1_555 1_555
O6_4 Co10 1_555 1_555
O7_4 C24_4 1_555 1_555
O11 C25_4 1_555 1_555
O13 C25_4 1_555 1_555
N5_4 C15_4 1_555 1_555
N10_2 C23_4 1_555 1_555
C15_4 H11_4 1_555 1_555
N7_4 C16_4 1_555 1_555
N12_2 C26_4 1_555 1_555
C16_4 H12_4 1_555 1_555
C17_4 N7_4 1_555 1_555
C18_4 N5_4 1_555 1_555
C19_4 C17_4 1_555 1_555
C20_4 C19_4 1_555 1_555
H13_4 C20_4 1_555 1_555
C21_4 C18_4 1_555 1_555
C22_4 C17_4 1_555 1_555
H14_4 C22_4 1_555 1_555
C23_4 N5_4 1_555 1_555
H15_4 C23_4 1_555 1_555
C24_4 O6_4 1_555 1_555
C25_4 C21_4 1_555 1_555
C26_4 N7_4 1_555 1_555
H16_4 C26_4 1_555 1_555
C27_4 N12_2 1_555 1_555
H17_4 C27_4 1_555 1_555
C28_4 N10_2 1_555 1_555
C1_4 C14_4 1_555 1_555
C2_4 C13_4 1_555 1_555
C4_4 C8_4 1_555 1_555
C6_4 C7_4 1_555 1_555
C15_4 C28_4 1_555 1_555
C16_4 C27_4 1_555 1_555
C18_4 C22_4 1_555 1_555
C19_4 C24_4 1_555 1_555
C20_4 C21_4 1_555 1_555

#END
