
###############################################################################
#
# This file contains modified crystal structure data generated from the
# MOF subset of the Cambridge Structural Database (CSD) v543 
# hosted by the Cambridge Crystallographic Data Centre (CCDC).
#
# This work is licensed under the Creative Commons
# Attribution-NonCommercial-ShareAlike 4.0 International License.
# To view a copy of this license, visit
# http://creativecommons.org/licenses/by-nc-sa/4.0/
# or send a letter to
# Creative Commons, PO Box 1866, Mountain View, CA 94042, USA.
#
# CIF created using the CSD Python API on 29 September 2022
# The structure has been converted into the P1 space group
# The structure has a 3D framework
# The original CSD entry GAHPEN is in the triclinic crystal system
# The framework has been calculated to contain at least 10.0% void space
# The void calculation uses a probe of radius 1.32A, grid spacing 0.4
#
###############################################################################

data_GAHPEN
_chemical_formula_moiety         '(C56 H38 Cd5 N2 O9)n'
_symmetry_cell_setting           triclinic
_symmetry_space_group_name_H-M   'P 1'
_symmetry_Int_Tables_number      1
_space_group_name_Hall           'P 1'
loop_
_symmetry_equiv_pos_site_id
_symmetry_equiv_pos_as_xyz
1 x,y,z
_cell_length_a                   9.2637(14)
_cell_length_b                   13.273(2)
_cell_length_c                   14.160(2)
_cell_angle_alpha                116.073(2)
_cell_angle_beta                 91.045(3)
_cell_angle_gamma                105.585(2)
_cell_volume                     1487.58
loop_
_atom_site_label
_atom_site_type_symbol
_atom_site_fract_x
_atom_site_fract_y
_atom_site_fract_z
Cd8 Cd 0.0000 0.0000 0.0000
Cd8_2 Cd 0.0000 -0.0000 1.0000
Cd8_3 Cd 0.0000 1.0000 0.0000
H3 H 0.0327 0.1318 0.4271
H5 H 0.0522 0.3060 0.5920
H6 H 0.0894 0.2926 0.7526
H7 H 0.0251 0.1949 0.8516
H12 H 0.0354 0.6762 0.7056
H13 H 0.0761 0.4990 0.6095
Cd8_4 Cd 0.0000 1.0000 1.0000
O21 O 0.0587(6) 0.1796(4) 0.1364(4)
O13 O 0.2186(5) 0.0496(3) 0.9252(3)
O17 O 0.1387(7) 0.9406(5) 0.0860(4)
Cd8_5 Cd 1.0000 0.0000 0.0000
Cd8_6 Cd 1.0000 -0.0000 1.0000
Cd8_7 Cd 1.0000 1.0000 0.0000
C1 C 0.7158(7) 0.0223(5) 0.1347(5)
C2 C 0.7679(7) 0.0888(5) 0.2505(5)
C3 C 0.6967(8) 0.1652(6) 0.3185(5)
H1 H 0.6116 0.1743 0.2913
C4 C 0.7506(8) 0.2276(6) 0.4256(5)
H2 H 0.7011 0.2785 0.4700
C5 C 0.8772(7) 0.2167(5) 0.4694(5)
C6 C 0.9470(8) 0.1400(6) 0.3998(5)
C7 C 0.8963(8) 0.0768(6) 0.2945(5)
H4 H 0.9457 0.0254 0.2508
C8 C 0.9415(8) 0.2845(5) 0.5870(5)
C9 C 0.8974(8) 0.2094(6) 0.6448(5)
C10 C 0.9961(9) 0.2344(6) 0.7332(6)
C11 C 0.9588(8) 0.1755(6) 0.7919(6)
C12 C 0.8208(8) 0.0860(6) 0.7621(5)
C13 C 0.7287(9) 0.0573(6) 0.6735(6)
C14 C 0.7675(8) 0.1201(6) 0.6157(6)
H9 H 0.7018 0.0996 0.5553
C15 C 0.7819(9) 0.0243(6) 0.8302(6)
C16 C 0.9032(8) 0.4001(5) 0.6446(5)
C17 C 0.7789(8) 0.4077(6) 0.6945(5)
H10 H 0.7117 0.3396 0.6912
C18 C 0.7508(8) 0.5143(5) 0.7500(5)
H11 H 0.6639 0.5167 0.7818
C19 C 0.8499(8) 0.6166(5) 0.7585(5)
C20 C 0.9698(8) 0.6085(6) 0.7041(6)
C21 C 0.9949(8) 0.5023(6) 0.6473(6)
C22 C 0.8275(8) 0.7333(5) 0.8260(5)
O2 O 0.6057(5) 0.0356(4) 0.0935(3)
O3 O 0.8613(7) 0.0594(5) 0.9140(4)
O5 O 0.9413(6) 0.8204(4) 0.8636(4)
O6 O 0.6948(6) 0.7328(4) 0.8415(4)
Cd8_8 Cd 1.0000 1.0000 1.0000
Cd11 Cd 0.60028(5) 0.88353(4) 0.91858(3)
Cd14 Cd 0.39972(5) 0.11647(4) 0.08142(3)
H8 H 0.6387 0.9953 0.6507
C26 C 0.3450(10) 0.6208(9) 0.0206(9)
H16 H 0.3778 0.5848 0.0565
C27 C 0.4529(11) 0.7023(9) 0.0008(9)
H17 H 0.5547 0.7222 0.0270
C28 C 0.0789(8) 0.5088(8) 0.0174(8)
H19 H 0.0945 0.5387 0.0941
O1 O 0.7814(5) 0.9504(3) 0.0748(3)
O4 O 0.6618(6) 0.9373(5) 0.7953(5)
C23 C 0.2691(10) 0.7313(8) 0.9227(8)
H14 H 0.2380 0.7713 0.8905
C24 C 0.1584(10) 0.6531(8) 0.9436(8)
H15 H 0.0565 0.6426 0.9254
C25 C 0.1960(9) 0.5924(8) 0.9899(8)
H18 H 0.0967 0.4328 0.9859
N1 N 0.4139(6) 0.7518(5) 0.9458(5)
O15 O 0.3943(5) 0.9644(4) 0.9065(3)
C29 C 0.7309(10) 0.2687(8) 0.0773(8)
H20 H 0.7620 0.2287 0.1095
C30 C 0.8416(10) 0.3469(8) 0.0564(8)
H21 H 0.9435 0.3574 0.0746
C31 C 0.8040(9) 0.4076(8) 0.0101(8)
H24 H 0.9033 0.5672 0.0141
N2 N 0.5861(6) 0.2482(5) 0.0542(5)
O19 O 0.3382(6) 0.0627(5) 0.2047(5)
O23 O 0.3052(6) 0.2672(4) 0.1585(4)
C32 C 0.6550(10) 0.3792(9) 0.9794(9)
H22 H 0.6222 0.4152 0.9435
C33 C 0.5471(11) 0.2977(9) 0.9992(9)
H23 H 0.4453 0.2778 0.9730
C34 C 0.9211(8) 0.4912(8) 0.9826(8)
H25 H 0.9055 0.4613 0.9059
H33 H 0.3613 0.0047 0.3493
C35 C 0.2842(7) 0.9777(5) 0.8653(5)
C36 C 0.2321(7) 0.9112(5) 0.7495(5)
C37 C 0.3033(8) 0.8348(6) 0.6815(5)
H26 H 0.3884 0.8257 0.7087
C38 C 0.2494(8) 0.7724(6) 0.5744(5)
H27 H 0.2989 0.7215 0.5300
C39 C 0.1228(7) 0.7833(5) 0.5306(5)
C40 C 0.0530(8) 0.8600(6) 0.6002(5)
C41 C 0.1037(8) 0.9232(6) 0.7055(5)
H29 H 0.0543 0.9746 0.7492
C42 C 0.0585(8) 0.7155(5) 0.4130(5)
C43 C 0.1026(8) 0.7906(6) 0.3552(5)
C44 C 0.0039(9) 0.7656(6) 0.2668(6)
C45 C 0.0412(8) 0.8245(6) 0.2081(6)
C46 C 0.1792(8) 0.9140(6) 0.2379(5)
C47 C 0.2713(9) 0.9427(6) 0.3265(6)
C48 C 0.2325(8) 0.8799(6) 0.3843(6)
H34 H 0.2982 0.9004 0.4447
C49 C 0.2181(9) 0.9757(6) 0.1698(6)
C50 C 0.0968(8) 0.5999(5) 0.3554(5)
C51 C 0.2211(8) 0.5923(6) 0.3055(5)
H35 H 0.2883 0.6604 0.3088
C52 C 0.2492(8) 0.4857(5) 0.2500(5)
H36 H 0.3361 0.4833 0.2182
C53 C 0.1501(8) 0.3834(5) 0.2415(5)
C54 C 0.0302(8) 0.3915(6) 0.2959(6)
C55 C 0.0051(8) 0.4977(6) 0.3527(6)
C56 C 0.1725(8) 0.2667(5) 0.1740(5)
H28 H 0.9673 0.8682 0.5729
H30 H 0.9478 0.6940 0.4080
H31 H 0.9106 0.7074 0.2474
H32 H 0.9749 0.8051 0.1484
H37 H 0.9646 0.3238 0.2944
H38 H 0.9239 0.5010 0.3905
loop_
_geom_bond_atom_site_label_1
_geom_bond_atom_site_label_2
_geom_bond_site_symmetry_1
_geom_bond_site_symmetry_2
O21 Cd8 1_555 1_555
O13 Cd8_2 1_555 1_555
O17 Cd8_3 1_555 1_555
C1 C2 1_555 1_555
C2 C3 1_555 1_555
C3 H1 1_555 1_555
C4 C3 1_555 1_555
H2 C4 1_555 1_555
C5 C4 1_555 1_555
C6 C5 1_555 1_555
C7 C2 1_555 1_555
H4 C7 1_555 1_555
C8 C5 1_555 1_555
C9 C8 1_555 1_555
C10 C9 1_555 1_555
C11 C10 1_555 1_555
C12 C11 1_555 1_555
C13 C12 1_555 1_555
C14 C9 1_555 1_555
H9 C14 1_555 1_555
C15 C12 1_555 1_555
C16 C8 1_555 1_555
C17 C16 1_555 1_555
H10 C17 1_555 1_555
C18 C17 1_555 1_555
H11 C18 1_555 1_555
C19 C18 1_555 1_555
C20 C19 1_555 1_555
C21 C16 1_555 1_555
C22 C19 1_555 1_555
O2 C1 1_555 1_555
O3 C15 1_555 1_555
O5 C22 1_555 1_555
O6 C22 1_555 1_555
Cd8_6 O3 1_555 1_555
Cd8_8 O5 1_555 1_555
Cd11 O6 1_555 1_555
Cd14 O2 1_555 1_555
C6 C7 1_555 1_555
C13 C14 1_555 1_555
C20 C21 1_555 1_555
H16 C26 1_555 1_555
C27 C26 1_555 1_555
H17 C27 1_555 1_555
H19 C28 1_555 1_555
Cd8_7 O1 1_555 1_555
Cd11 O4 1_555 1_555
C23 H14 1_555 1_555
C24 C23 1_555 1_555
H15 C24 1_555 1_555
C25 C24 1_555 1_555
Cd11 N1 1_555 1_555
N1 C23 1_555 1_555
O15 Cd11 1_555 1_555
C29 H20 1_555 1_555
C30 C29 1_555 1_555
H21 C30 1_555 1_555
C31 C30 1_555 1_555
N2 C29 1_555 1_555
Cd14 N2 1_555 1_555
O19 Cd14 1_555 1_555
O23 Cd14 1_555 1_555
H22 C32 1_555 1_555
C33 C32 1_555 1_555
H23 C33 1_555 1_555
H25 C34 1_555 1_555
C35 C36 1_555 1_555
C36 C37 1_555 1_555
C37 H26 1_555 1_555
C38 C37 1_555 1_555
H27 C38 1_555 1_555
C39 C38 1_555 1_555
C40 C39 1_555 1_555
C41 C36 1_555 1_555
H29 C41 1_555 1_555
C42 C39 1_555 1_555
C43 C42 1_555 1_555
C44 C43 1_555 1_555
C45 C44 1_555 1_555
C46 C45 1_555 1_555
C47 C46 1_555 1_555
C48 C43 1_555 1_555
H34 C48 1_555 1_555
C49 C46 1_555 1_555
C50 C42 1_555 1_555
C51 C50 1_555 1_555
H35 C51 1_555 1_555
C52 C51 1_555 1_555
H36 C52 1_555 1_555
C53 C52 1_555 1_555
C54 C53 1_555 1_555
C55 C50 1_555 1_555
C56 C53 1_555 1_555
O15 C35 1_555 1_555
O17 C49 1_555 1_555
O21 C56 1_555 1_555
O23 C56 1_555 1_555
C40 C41 1_555 1_555
C47 C48 1_555 1_555
C54 C55 1_555 1_555

#END
