
###############################################################################
#
# This file contains modified crystal structure data generated from the
# MOF subset of the Cambridge Structural Database (CSD) v543 
# hosted by the Cambridge Crystallographic Data Centre (CCDC).
#
# This work is licensed under the Creative Commons
# Attribution-NonCommercial-ShareAlike 4.0 International License.
# To view a copy of this license, visit
# http://creativecommons.org/licenses/by-nc-sa/4.0/
# or send a letter to
# Creative Commons, PO Box 1866, Mountain View, CA 94042, USA.
#
# CIF created using the CSD Python API on 29 September 2022
# The structure has been converted into the P1 space group
# The structure has a 3D framework
# The original CSD entry GAHSEQ is in the monoclinic crystal system
# The framework has been calculated to contain at least 10.0% void space
# The void calculation uses a probe of radius 1.32A, grid spacing 0.4
#
###############################################################################

data_GAHSEQ
_chemical_formula_moiety         '(C144 H136 O44 Pr6)n'
_symmetry_cell_setting           triclinic
_symmetry_space_group_name_H-M   'P 1'
_symmetry_Int_Tables_number      1
_space_group_name_Hall           'P 1'
loop_
_symmetry_equiv_pos_site_id
_symmetry_equiv_pos_as_xyz
1 x,y,z
_cell_length_a                   43.7247(5)
_cell_length_b                   12.93615(17)
_cell_length_c                   8.49651(12)
_cell_angle_alpha                90
_cell_angle_beta                 94.3334(12)
_cell_angle_gamma                90
_cell_volume                     4792.14
loop_
_atom_site_label
_atom_site_type_symbol
_atom_site_fract_x
_atom_site_fract_y
_atom_site_fract_z
O25 O 0.02794(8) 0.0434(4) 0.0024(4)
Pr1 Pr 0.0000 0.00530(3) 0.7500
O5 O 0.25330(8) 0.1198(3) 0.3568(5)
O8 O 0.02780(11) 0.1630(4) 0.6723(6)
H1 H 0.0150 0.2092 0.6288
H2 H 0.0412 0.1474 0.6034
O9 O 0.30461(9) 0.0751(3) 0.2446(6)
C1 C 0.22501(12) 0.1474(5) 0.4214(7)
H3 H 0.2077 0.1269 0.3478
H4 H 0.2244 0.2223 0.4381
H5 H 0.2235 0.1118 0.5224
C12 C 0.33146(15) 0.0562(6) 0.1657(10)
H18 H 0.3258 0.0244 0.0628
H19 H 0.3450 0.0094 0.2292
H20 H 0.3421 0.1216 0.1503
C29 C 0.25711(12) 0.0177(4) 0.3277(7)
Pr4 Pr -0.0000 0.99470(3) 0.2500
O2 O 0.02794(8) 0.9566(4) 0.5024(4)
O3 O 0.05478(9) 0.9439(4) 0.7288(5)
O4 O 0.46954(11) 0.5201(5) 0.0054(7)
O6 O 0.24718(8) 0.3440(3) 0.2155(5)
O7 O 0.19737(9) 0.3884(3) 0.3414(5)
C2 C 0.16967(14) 0.4093(5) 0.4159(9)
H6 H 0.1562 0.4529 0.3466
H7 H 0.1747 0.4452 0.5161
H8 H 0.1593 0.3440 0.4359
C3 C 0.27425(12) 0.3167(4) 0.1416(7)
H9 H 0.2735 0.3470 0.0357
H10 H 0.2756 0.2413 0.1336
H11 H 0.2923 0.3430 0.2047
C4 C 0.13490(11) 0.8495(4) 0.5052(6)
C5 C 0.05364(11) 0.9363(5) 0.5823(6)
C6 C 0.31476(11) 0.7209(4) 0.0035(7)
C7 C 0.18609(12) 0.7798(5) 0.5487(7)
H13 H 0.2019 0.7531 0.6203
C8 C 0.10659(12) 0.8810(5) 0.5723(7)
H14 H 0.1075 0.8862 0.6841
C9 C 0.15881(12) 0.8113(5) 0.6046(7)
H15 H 0.1563 0.8066 0.7145
C13 C 0.07991(12) 0.9032(5) 0.4976(7)
H21 H 0.0776 0.8975 0.3858
C14 C 0.23657(11) 0.9412(4) 0.3491(6)
H22 H 0.2175 0.9587 0.3888
C15 C 0.41758(13) 0.5682(6) 0.0203(8)
H23 H 0.4172 0.5397 0.1231
C16 C 0.19078(11) 0.7863(4) 0.3922(7)
C17 C 0.28599(13) 0.9918(4) 0.2639(7)
C18 C 0.25639(10) 0.6289(4) 0.2364(6)
C19 C 0.26242(11) 0.5230(4) 0.2028(6)
H24 H 0.2806 0.5053 0.1545
C20 C 0.30759(10) 0.6819(4) 0.1488(6)
C21 C 0.36414(11) 0.6354(4) 0.0245(7)
C22 C 0.29276(11) 0.8925(4) 0.2329(6)
H25 H 0.3124 0.8764 0.1981
C23 C 0.13897(13) 0.8521(6) 0.3449(7)
H26 H 0.1227 0.8747 0.2724
C24 C 0.32938(12) 0.6171(5) 0.2299(7)
H27 H 0.3250 0.5883 0.3286
C26 C 0.27134(11) 0.8111(4) 0.2509(6)
C27 C 0.21449(12) 0.4721(4) 0.3098(7)
C28 C 0.24259(11) 0.8359(4) 0.3143(6)
C30 C 0.35687(12) 0.5946(5) 0.1691(7)
H28 H 0.3711 0.5507 0.2263
C31 C 0.20714(11) 0.5719(4) 0.3321(6)
H29 H 0.1878 0.5880 0.3702
C32 C 0.22096(10) 0.7581(4) 0.3322(6)
C33 C 0.22760(11) 0.6546(4) 0.2998(6)
C34 C 0.24264(11) 0.4470(4) 0.2384(6)
C35 C 0.16654(13) 0.8218(6) 0.2905(7)
H30 H 0.1691 0.8253 0.1806
C36 C 0.27804(11) 0.7079(4) 0.2142(6)
O10 O 0.0000 0.8167(7) 0.7500
H35 H 0.0019 0.7774 0.6669
Pr7 Pr 0.5000 0.46778(7) 0.2500
Pr2 Pr 0.5000 0.53222(7) 0.7500
O1 O 0.44640(10) 0.5885(5) 0.7947(6)
H12 H 0.3004 0.7639 0.9449
C10 C 0.34262(12) 0.6977(5) 0.9427(7)
H16 H 0.3470 0.7252 0.8431
C11 C 0.39346(13) 0.6159(5) 0.9550(8)
H17 H 0.3950 0.6409 0.8508
C25 C 0.44591(13) 0.5588(6) 0.9316(9)
O11 O 0.5063(2) 0.6970(7) 0.9008(15)
H32 H 0.5048 0.7509 0.8366
H33 H 0.5244 0.6996 0.9539
O12 O 0.5000 0.3683(18) 0.7500
H34 H 0.4892 0.3146 0.8314
H36 H 0.5108 0.3146 0.6686
O22 O 0.4937(2) 0.6970(7) 0.5992(15)
H67 H 0.4952 0.7509 0.6634
H68 H 0.4756 0.6996 0.5461
O23 O 0.55360(10) 0.5885(5) 0.7053(6)
O26 O 0.53046(11) 0.5201(5) 0.4946(7)
O27 O 0.53046(11) 0.4799(5) 0.9946(7)
O28 O 0.46954(11) 0.4799(5) 0.5054(7)
Pr1_2 Pr 1.0000 0.00530(3) 0.7500
O20 O 0.97220(11) 0.1630(4) 0.8277(6)
H37 H 0.9850 0.2092 0.8712
H38 H 0.9588 0.1474 0.8966
H41 H 0.7765 0.1118 0.9776
O24 O 0.97206(8) 0.0434(4) 0.4976(4)
O18 O 0.75282(8) 0.3440(3) 0.2845(5)
O19 O 0.80263(9) 0.3884(3) 0.1586(5)
C38 C 0.83033(14) 0.4093(5) 0.0841(9)
H42 H 0.8438 0.4529 0.1534
H44 H 0.8407 0.3440 0.0641
C39 C 0.72575(12) 0.3167(4) 0.3584(7)
H45 H 0.7265 0.3470 0.4643
H46 H 0.7244 0.2413 0.3664
H47 H 0.7077 0.3430 0.2953
C42 C 0.68524(11) 0.7209(4) 0.4965(7)
H48 H 0.6996 0.7639 0.5551
C46 C 0.65738(12) 0.6977(5) 0.5573(7)
H52 H 0.6530 0.7252 0.6569
C47 C 0.60654(13) 0.6159(5) 0.5450(8)
H53 H 0.6050 0.6409 0.6492
C49 C 0.92009(12) 0.9032(5) 0.0024(7)
H57 H 0.9224 0.8975 0.1142
C50 C 0.76343(11) 0.9412(4) 0.1509(6)
H58 H 0.7825 0.9587 0.1112
C51 C 0.58242(13) 0.5682(6) 0.4797(8)
H59 H 0.5828 0.5397 0.3769
C52 C 0.80922(11) 0.7863(4) 0.1078(7)
C53 C 0.71401(13) 0.9918(4) 0.2361(7)
C54 C 0.74361(10) 0.6289(4) 0.2636(6)
C55 C 0.73758(11) 0.5230(4) 0.2972(6)
H60 H 0.7194 0.5053 0.3455
C56 C 0.69241(10) 0.6819(4) 0.3512(6)
C57 C 0.63586(11) 0.6354(4) 0.4755(7)
C58 C 0.70724(11) 0.8925(4) 0.2671(6)
H61 H 0.6876 0.8764 0.3019
C59 C 0.86103(13) 0.8521(6) 0.1551(7)
H62 H 0.8773 0.8747 0.2276
C60 C 0.67062(12) 0.6171(5) 0.2701(7)
H63 H 0.6750 0.5883 0.1714
C61 C 0.55409(13) 0.5588(6) 0.5684(9)
C62 C 0.72866(11) 0.8111(4) 0.2491(6)
C63 C 0.78551(12) 0.4721(4) 0.1902(7)
C64 C 0.75741(11) 0.8359(4) 0.1857(6)
C66 C 0.64313(12) 0.5946(5) 0.3309(7)
H64 H 0.6289 0.5507 0.2737
C67 C 0.79286(11) 0.5719(4) 0.1679(6)
H65 H 0.8122 0.5880 0.1298
C68 C 0.77904(10) 0.7581(4) 0.1678(6)
C69 C 0.77240(11) 0.6546(4) 0.2002(6)
C70 C 0.75736(11) 0.4470(4) 0.2616(6)
C71 C 0.83346(13) 0.8218(6) 0.2095(7)
H66 H 0.8309 0.8253 0.3194
C72 C 0.72196(11) 0.7079(4) 0.2858(6)
Pr4_2 Pr 1.0000 0.99470(3) 0.2500
O10_2 O 1.0000 0.8167(7) 0.7500
H31 H 0.9981 0.7774 0.8331
O14 O 0.97206(8) 0.9566(4) 0.9976(4)
O15 O 0.94522(9) 0.9439(4) 0.7712(5)
H43 H 0.8253 0.4452 0.9839
C40 C 0.86510(11) 0.8495(4) 0.9948(6)
C41 C 0.94636(11) 0.9363(5) 0.9177(6)
C43 C 0.81391(12) 0.7798(5) 0.9513(7)
H49 H 0.7981 0.7531 0.8797
C44 C 0.89341(12) 0.8810(5) 0.9277(7)
H50 H 0.8925 0.8862 0.8159
C45 C 0.84119(12) 0.8113(5) 0.8954(7)
H51 H 0.8437 0.8066 0.7855
O10_3 O -0.0000 0.1833(7) 0.2500
H31_2 H 0.0019 0.2226 0.1669
O15_2 O 0.05478(9) 0.0561(4) 0.2288(5)
H43_2 H 0.1747 0.5548 0.0161
C40_2 C 0.13490(11) 0.1505(4) 0.0052(6)
C41_2 C 0.05364(11) 0.0637(5) 0.0823(6)
C43_2 C 0.18609(12) 0.2202(5) 0.0487(7)
H49_2 H 0.2019 0.2469 0.1203
C44_2 C 0.10659(12) 0.1190(5) 0.0723(7)
H50_2 H 0.1075 0.1138 0.1841
C45_2 C 0.15881(12) 0.1887(5) 0.1046(7)
H51_2 H 0.1563 0.1934 0.2145
O13 O 0.44640(10) 0.4115(5) 0.2947(6)
O18_2 O 0.24718(8) 0.6560(3) 0.7155(5)
O19_2 O 0.19737(9) 0.6116(3) 0.8414(5)
C38_2 C 0.16967(14) 0.5907(5) 0.9159(9)
H42_2 H 0.1562 0.5471 0.8466
H44_2 H 0.1593 0.6560 0.9359
C39_2 C 0.27425(12) 0.6833(4) 0.6416(7)
H45_2 H 0.2735 0.6530 0.5357
H46_2 H 0.2756 0.7587 0.6336
H47_2 H 0.2923 0.6570 0.7047
C42_2 C 0.31476(11) 0.2791(4) 0.5035(7)
H48_2 H 0.3004 0.2361 0.4449
C46_2 C 0.34262(12) 0.3023(5) 0.4427(7)
H52_2 H 0.3470 0.2748 0.3431
C47_2 C 0.39346(13) 0.3841(5) 0.4550(8)
H53_2 H 0.3950 0.3591 0.3508
C49_2 C 0.07991(12) 0.0968(5) 0.9976(7)
H57_2 H 0.0776 0.1025 0.8858
C50_2 C 0.23657(11) 0.0588(4) 0.8491(6)
H58_2 H 0.2175 0.0413 0.8888
C51_2 C 0.41758(13) 0.4318(6) 0.5203(8)
H59_2 H 0.4172 0.4603 0.6231
C52_2 C 0.19078(11) 0.2137(4) 0.8922(7)
C53_2 C 0.28599(13) 0.0082(4) 0.7639(7)
C54_2 C 0.25639(10) 0.3711(4) 0.7364(6)
C55_2 C 0.26242(11) 0.4770(4) 0.7028(6)
H60_2 H 0.2806 0.4947 0.6545
C56_2 C 0.30759(10) 0.3181(4) 0.6488(6)
C57_2 C 0.36414(11) 0.3646(4) 0.5245(7)
C58_2 C 0.29276(11) 0.1075(4) 0.7329(6)
H61_2 H 0.3124 0.1236 0.6981
C59_2 C 0.13897(13) 0.1479(6) 0.8449(7)
H62_2 H 0.1227 0.1253 0.7724
C60_2 C 0.32938(12) 0.3829(5) 0.7299(7)
H63_2 H 0.3250 0.4117 0.8286
C61_2 C 0.44591(13) 0.4412(6) 0.4316(9)
C62_2 C 0.27134(11) 0.1889(4) 0.7509(6)
C63_2 C 0.21449(12) 0.5279(4) 0.8098(7)
C64_2 C 0.24259(11) 0.1641(4) 0.8143(6)
C66_2 C 0.35687(12) 0.4054(5) 0.6691(7)
H64_2 H 0.3711 0.4493 0.7263
C67_2 C 0.20714(11) 0.4281(4) 0.8321(6)
H65_2 H 0.1878 0.4120 0.8702
C68_2 C 0.22096(10) 0.2419(4) 0.8322(6)
C69_2 C 0.22760(11) 0.3454(4) 0.7998(6)
C70_2 C 0.24264(11) 0.5530(4) 0.7384(6)
C71_2 C 0.16654(13) 0.1782(6) 0.7905(7)
H66_2 H 0.1691 0.1747 0.6806
C72_2 C 0.27804(11) 0.2921(4) 0.7142(6)
O20_2 O 0.02780(11) 0.8370(4) 0.1723(6)
H37_2 H 0.0150 0.7908 0.1288
H38_2 H 0.0412 0.8526 0.1034
H41_2 H 0.2235 0.8882 0.0224
O1_2 O 0.55360(10) 0.4115(5) 0.2053(6)
H12_2 H 0.6996 0.2361 0.0551
C10_2 C 0.65738(12) 0.3023(5) 0.0573(7)
H16_2 H 0.6530 0.2748 0.1569
C11_2 C 0.60654(13) 0.3841(5) 0.0450(8)
H17_2 H 0.6050 0.3591 0.1492
C25_2 C 0.55409(13) 0.4412(6) 0.0684(9)
O11_2 O 0.4937(2) 0.3030(7) 0.0992(15)
H32_2 H 0.4952 0.2491 0.1634
H33_2 H 0.4756 0.3004 0.0461
O12_2 O 0.5000 0.6317(18) 0.2500
H34_2 H 0.5108 0.6854 0.1686
H36_2 H 0.4892 0.6854 0.3314
O22_2 O 0.5063(2) 0.3030(7) 0.4008(15)
H67_2 H 0.5048 0.2491 0.3366
H68_2 H 0.5244 0.3004 0.4539
O3_2 O 0.94522(9) 0.0561(4) 0.2712(5)
O6_2 O 0.75282(8) 0.6560(3) 0.7845(5)
O7_2 O 0.80263(9) 0.6116(3) 0.6586(5)
C2_2 C 0.83033(14) 0.5907(5) 0.5841(9)
H6_2 H 0.8438 0.5471 0.6534
H7_2 H 0.8253 0.5548 0.4839
H8_2 H 0.8407 0.6560 0.5641
C3_2 C 0.72575(12) 0.6833(4) 0.8584(7)
H9_2 H 0.7265 0.6530 0.9643
H10_2 H 0.7244 0.7587 0.8664
H11_2 H 0.7077 0.6570 0.7953
C4_2 C 0.86510(11) 0.1505(4) 0.4948(6)
C5_2 C 0.94636(11) 0.0637(5) 0.4177(6)
C6_2 C 0.68524(11) 0.2791(4) 0.9965(7)
C7_2 C 0.81391(12) 0.2202(5) 0.4513(7)
H13_2 H 0.7981 0.2469 0.3797
C8_2 C 0.89341(12) 0.1190(5) 0.4277(7)
H14_2 H 0.8925 0.1138 0.3159
C9_2 C 0.84119(12) 0.1887(5) 0.3954(7)
H15_2 H 0.8437 0.1934 0.2855
C13_2 C 0.92009(12) 0.0968(5) 0.5024(7)
H21_2 H 0.9224 0.1025 0.6142
C14_2 C 0.76343(11) 0.0588(4) 0.6509(6)
H22_2 H 0.7825 0.0413 0.6112
C15_2 C 0.58242(13) 0.4318(6) 0.9797(8)
H23_2 H 0.5828 0.4603 0.8769
C16_2 C 0.80922(11) 0.2137(4) 0.6078(7)
C17_2 C 0.71401(13) 0.0082(4) 0.7361(7)
C18_2 C 0.74361(10) 0.3711(4) 0.7636(6)
C19_2 C 0.73758(11) 0.4770(4) 0.7972(6)
H24_2 H 0.7194 0.4947 0.8455
C20_2 C 0.69241(10) 0.3181(4) 0.8512(6)
C21_2 C 0.63586(11) 0.3646(4) 0.9755(7)
C22_2 C 0.70724(11) 0.1075(4) 0.7671(6)
H25_2 H 0.6876 0.1236 0.8019
C23_2 C 0.86103(13) 0.1479(6) 0.6551(7)
H26_2 H 0.8773 0.1253 0.7276
C24_2 C 0.67062(12) 0.3829(5) 0.7701(7)
H27_2 H 0.6750 0.4117 0.6714
C26_2 C 0.72866(11) 0.1889(4) 0.7491(6)
C27_2 C 0.78551(12) 0.5279(4) 0.6902(7)
C28_2 C 0.75741(11) 0.1641(4) 0.6857(6)
C30_2 C 0.64313(12) 0.4054(5) 0.8309(7)
H28_2 H 0.6289 0.4493 0.7737
C31_2 C 0.79286(11) 0.4281(4) 0.6679(6)
H29_2 H 0.8122 0.4120 0.6298
C32_2 C 0.77904(10) 0.2419(4) 0.6678(6)
C33_2 C 0.77240(11) 0.3454(4) 0.7002(6)
C34_2 C 0.75736(11) 0.5530(4) 0.7616(6)
C35_2 C 0.83346(13) 0.1782(6) 0.7095(7)
H30_2 H 0.8309 0.1747 0.8194
C36_2 C 0.72196(11) 0.2921(4) 0.7858(6)
O10_4 O 1.0000 0.1833(7) 0.2500
H35_2 H 0.9981 0.2226 0.3331
O5_2 O 0.74670(8) 0.8802(3) 0.6432(5)
O8_2 O 0.97220(11) 0.8370(4) 0.3277(6)
H1_2 H 0.9850 0.7908 0.3712
H2_2 H 0.9588 0.8526 0.3966
O9_2 O 0.69539(9) 0.9249(3) 0.7554(6)
C1_2 C 0.77499(12) 0.8526(5) 0.5786(7)
H3_2 H 0.7923 0.8731 0.6522
H4_2 H 0.7756 0.7777 0.5619
H5_2 H 0.7765 0.8882 0.4776
C12_2 C 0.66854(15) 0.9438(6) 0.8343(10)
H18_2 H 0.6742 0.9756 0.9372
H19_2 H 0.6550 0.9906 0.7708
H20_2 H 0.6579 0.8784 0.8497
C29_2 C 0.74289(12) 0.9823(4) 0.6723(7)
O17 O 0.74670(8) 0.1198(3) 0.1432(5)
O21 O 0.69539(9) 0.0751(3) 0.2554(6)
C37 C 0.77499(12) 0.1474(5) 0.0786(7)
H39 H 0.7923 0.1269 0.1522
H40 H 0.7756 0.2223 0.0619
C48 C 0.66854(15) 0.0562(6) 0.3343(10)
H54 H 0.6742 0.0244 0.4372
H55 H 0.6550 0.0094 0.2708
H56 H 0.6579 0.1216 0.3497
C65 C 0.74289(12) 0.0177(4) 0.1723(7)
O17_2 O 0.25330(8) 0.8802(3) 0.8568(5)
O21_2 O 0.30461(9) 0.9249(3) 0.7446(6)
C37_2 C 0.22501(12) 0.8526(5) 0.9214(7)
H39_2 H 0.2077 0.8731 0.8478
H40_2 H 0.2244 0.7777 0.9381
C48_2 C 0.33146(15) 0.9438(6) 0.6657(10)
H54_2 H 0.3258 0.9756 0.5628
H55_2 H 0.3450 0.9906 0.7292
H56_2 H 0.3421 0.8784 0.6503
C65_2 C 0.25711(12) 0.9823(4) 0.8277(7)
loop_
_geom_bond_atom_site_label_1
_geom_bond_atom_site_label_2
_geom_bond_site_symmetry_1
_geom_bond_site_symmetry_2
O5 C1 1_555 1_555
O8 Pr1 1_555 1_555
H1 O8 1_555 1_555
H2 O8 1_555 1_555
O9 C12 1_555 1_555
C1 H3 1_555 1_555
H4 C1 1_555 1_555
H5 C1 1_555 1_555
C12 H18 1_555 1_555
H19 C12 1_555 1_555
H20 C12 1_555 1_555
C29 O5 1_555 1_555
O2 C5 1_555 1_555
O6 C3 1_555 1_555
O7 C2 1_555 1_555
C2 H6 1_555 1_555
H7 C2 1_555 1_555
H8 C2 1_555 1_555
C3 H9 1_555 1_555
H10 C3 1_555 1_555
H11 C3 1_555 1_555
C4 C8 1_555 1_555
C5 O3 1_555 1_555
C7 H13 1_555 1_555
C8 H14 1_555 1_555
C9 C4 1_555 1_555
H15 C9 1_555 1_555
C13 C5 1_555 1_555
H21 C13 1_555 1_555
C14 H22 1_555 1_555
H23 C15 1_555 1_555
C16 C7 1_555 1_555
C18 C19 1_555 1_555
C19 H24 1_555 1_555
C20 C6 1_555 1_555
C22 C17 1_555 1_555
H25 C22 1_555 1_555
C23 C4 1_555 1_555
H26 C23 1_555 1_555
C24 C20 1_555 1_555
H27 C24 1_555 1_555
C26 C22 1_555 1_555
C27 O7 1_555 1_555
C28 C14 1_555 1_555
C30 C21 1_555 1_555
H28 C30 1_555 1_555
C31 C27 1_555 1_555
H29 C31 1_555 1_555
C32 C16 1_555 1_555
C33 C18 1_555 1_555
C34 O6 1_555 1_555
C35 C16 1_555 1_555
H30 C35 1_555 1_555
C36 C18 1_555 1_555
H35 O10 1_555 1_555
Pr4 O2 1_555 1_555
Pr7 O4 1_555 1_555
C7 C9 1_555 1_555
C8 C13 1_555 1_555
C19 C34 1_555 1_555
C20 C36 1_555 1_555
C23 C35 1_555 1_555
C24 C30 1_555 1_555
C26 C28 1_555 1_555
C26 C36 1_555 1_555
C27 C34 1_555 1_555
C28 C32 1_555 1_555
C31 C33 1_555 1_555
C32 C33 1_555 1_555
Pr2 O1 1_555 1_555
O1 C25 1_555 1_555
H16 C10 1_555 1_555
C11 H17 1_555 1_555
O11 Pr2 1_555 1_555
H32 O11 1_555 1_555
H33 O11 1_555 1_555
O12 Pr2 1_555 1_555
H34 O12 1_555 1_555
H36 O12 1_555 1_555
O22 Pr2 1_555 1_555
H67 O22 1_555 1_555
H68 O22 1_555 1_555
O23 Pr2 1_555 1_555
O26 Pr2 1_555 1_555
O27 Pr2 1_555 1_555
O28 Pr2 1_555 1_555
O20 Pr1_2 1_555 1_555
H37 O20 1_555 1_555
H38 O20 1_555 1_555
O24 Pr1_2 1_555 1_555
O23 C61 1_555 1_555
O26 C61 1_555 1_555
O18 C39 1_555 1_555
O19 C38 1_555 1_555
C38 H42 1_555 1_555
H44 C38 1_555 1_555
C39 H45 1_555 1_555
H46 C39 1_555 1_555
H47 C39 1_555 1_555
C42 H48 1_555 1_555
C46 C42 1_555 1_555
H52 C46 1_555 1_555
C47 H53 1_555 1_555
H57 C49 1_555 1_555
C50 H58 1_555 1_555
C51 C47 1_555 1_555
H59 C51 1_555 1_555
C54 C55 1_555 1_555
C55 H60 1_555 1_555
C56 C42 1_555 1_555
C57 C46 1_555 1_555
C58 C53 1_555 1_555
H61 C58 1_555 1_555
H62 C59 1_555 1_555
C60 C56 1_555 1_555
H63 C60 1_555 1_555
C61 C51 1_555 1_555
C62 C58 1_555 1_555
C63 O19 1_555 1_555
C64 C50 1_555 1_555
C66 C57 1_555 1_555
H64 C66 1_555 1_555
C67 C63 1_555 1_555
H65 C67 1_555 1_555
C68 C52 1_555 1_555
C69 C54 1_555 1_555
C70 O18 1_555 1_555
C71 C52 1_555 1_555
H66 C71 1_555 1_555
C72 C54 1_555 1_555
Pr7 O26 1_555 1_555
C47 C57 1_555 1_555
C55 C70 1_555 1_555
C56 C72 1_555 1_555
C59 C71 1_555 1_555
C60 C66 1_555 1_555
C62 C64 1_555 1_555
C62 C72 1_555 1_555
C63 C70 1_555 1_555
C64 C68 1_555 1_555
C67 C69 1_555 1_555
C68 C69 1_555 1_555
H31 O10_2 1_555 1_555
C40 C44 1_555 1_555
C41 O14 1_555 1_555
C43 H49 1_555 1_555
C44 H50 1_555 1_555
C45 C40 1_555 1_555
H51 C45 1_555 1_555
O15 C41 1_555 1_555
C43 C45 1_555 1_555
Pr7 O28 1_555 1_555
H31_2 O10_3 1_555 1_555
C40_2 C44_2 1_555 1_555
C41_2 O25 1_555 1_555
C43_2 H49_2 1_555 1_555
C44_2 H50_2 1_555 1_555
C45_2 C40_2 1_555 1_555
H51_2 C45_2 1_555 1_555
O15_2 C41_2 1_555 1_555
C43_2 C45_2 1_555 1_555
O13 C61_2 1_555 1_555
O28 C61_2 1_555 1_555
O18_2 C39_2 1_555 1_555
O19_2 C38_2 1_555 1_555
C38_2 H42_2 1_555 1_555
H44_2 C38_2 1_555 1_555
C39_2 H45_2 1_555 1_555
H46_2 C39_2 1_555 1_555
H47_2 C39_2 1_555 1_555
C42_2 H48_2 1_555 1_555
C46_2 C42_2 1_555 1_555
H52_2 C46_2 1_555 1_555
C47_2 H53_2 1_555 1_555
H57_2 C49_2 1_555 1_555
C50_2 H58_2 1_555 1_555
C51_2 C47_2 1_555 1_555
H59_2 C51_2 1_555 1_555
C54_2 C55_2 1_555 1_555
C55_2 H60_2 1_555 1_555
C56_2 C42_2 1_555 1_555
C57_2 C46_2 1_555 1_555
C58_2 C53_2 1_555 1_555
H61_2 C58_2 1_555 1_555
H62_2 C59_2 1_555 1_555
C60_2 C56_2 1_555 1_555
H63_2 C60_2 1_555 1_555
C61_2 C51_2 1_555 1_555
C62_2 C58_2 1_555 1_555
C63_2 O19_2 1_555 1_555
C64_2 C50_2 1_555 1_555
C66_2 C57_2 1_555 1_555
H64_2 C66_2 1_555 1_555
C67_2 C63_2 1_555 1_555
H65_2 C67_2 1_555 1_555
C68_2 C52_2 1_555 1_555
C69_2 C54_2 1_555 1_555
C70_2 O18_2 1_555 1_555
C71_2 C52_2 1_555 1_555
H66_2 C71_2 1_555 1_555
C72_2 C54_2 1_555 1_555
Pr7 O13 1_555 1_555
C47_2 C57_2 1_555 1_555
C55_2 C70_2 1_555 1_555
C56_2 C72_2 1_555 1_555
C59_2 C71_2 1_555 1_555
C60_2 C66_2 1_555 1_555
C62_2 C64_2 1_555 1_555
C62_2 C72_2 1_555 1_555
C63_2 C70_2 1_555 1_555
C64_2 C68_2 1_555 1_555
C67_2 C69_2 1_555 1_555
C68_2 C69_2 1_555 1_555
O20_2 Pr4 1_555 1_555
H37_2 O20_2 1_555 1_555
H38_2 O20_2 1_555 1_555
Pr7 O1_2 1_555 1_555
O1_2 C25_2 1_555 1_555
H16_2 C10_2 1_555 1_555
C11_2 H17_2 1_555 1_555
O11_2 Pr7 1_555 1_555
H32_2 O11_2 1_555 1_555
H33_2 O11_2 1_555 1_555
O12_2 Pr7 1_555 1_555
H34_2 O12_2 1_555 1_555
H36_2 O12_2 1_555 1_555
O22_2 Pr7 1_555 1_555
H67_2 O22_2 1_555 1_555
H68_2 O22_2 1_555 1_555
O24 C5_2 1_555 1_555
O6_2 C3_2 1_555 1_555
O7_2 C2_2 1_555 1_555
C2_2 H6_2 1_555 1_555
H7_2 C2_2 1_555 1_555
H8_2 C2_2 1_555 1_555
C3_2 H9_2 1_555 1_555
H10_2 C3_2 1_555 1_555
H11_2 C3_2 1_555 1_555
C4_2 C8_2 1_555 1_555
C5_2 O3_2 1_555 1_555
C7_2 H13_2 1_555 1_555
C8_2 H14_2 1_555 1_555
C9_2 C4_2 1_555 1_555
H15_2 C9_2 1_555 1_555
C13_2 C5_2 1_555 1_555
H21_2 C13_2 1_555 1_555
C14_2 H22_2 1_555 1_555
H23_2 C15_2 1_555 1_555
C16_2 C7_2 1_555 1_555
C18_2 C19_2 1_555 1_555
C19_2 H24_2 1_555 1_555
C20_2 C6_2 1_555 1_555
C22_2 C17_2 1_555 1_555
H25_2 C22_2 1_555 1_555
C23_2 C4_2 1_555 1_555
H26_2 C23_2 1_555 1_555
C24_2 C20_2 1_555 1_555
H27_2 C24_2 1_555 1_555
C26_2 C22_2 1_555 1_555
C27_2 O7_2 1_555 1_555
C28_2 C14_2 1_555 1_555
C30_2 C21_2 1_555 1_555
H28_2 C30_2 1_555 1_555
C31_2 C27_2 1_555 1_555
H29_2 C31_2 1_555 1_555
C32_2 C16_2 1_555 1_555
C33_2 C18_2 1_555 1_555
C34_2 O6_2 1_555 1_555
C35_2 C16_2 1_555 1_555
H30_2 C35_2 1_555 1_555
C36_2 C18_2 1_555 1_555
H35_2 O10_4 1_555 1_555
C7_2 C9_2 1_555 1_555
C8_2 C13_2 1_555 1_555
C19_2 C34_2 1_555 1_555
C20_2 C36_2 1_555 1_555
C23_2 C35_2 1_555 1_555
C24_2 C30_2 1_555 1_555
C26_2 C28_2 1_555 1_555
C26_2 C36_2 1_555 1_555
C27_2 C34_2 1_555 1_555
C28_2 C32_2 1_555 1_555
C31_2 C33_2 1_555 1_555
C32_2 C33_2 1_555 1_555
O5_2 C1_2 1_555 1_555
O8_2 Pr4_2 1_555 1_555
H1_2 O8_2 1_555 1_555
H2_2 O8_2 1_555 1_555
O9_2 C12_2 1_555 1_555
C1_2 H3_2 1_555 1_555
H4_2 C1_2 1_555 1_555
H5_2 C1_2 1_555 1_555
C12_2 H18_2 1_555 1_555
H19_2 C12_2 1_555 1_555
H20_2 C12_2 1_555 1_555
C29_2 O5_2 1_555 1_555
O17 C37 1_555 1_555
O21 C48 1_555 1_555
C37 H39 1_555 1_555
H40 C37 1_555 1_555
C48 H54 1_555 1_555
H55 C48 1_555 1_555
H56 C48 1_555 1_555
C65 O17 1_555 1_555
O17_2 C37_2 1_555 1_555
O21_2 C48_2 1_555 1_555
C37_2 H39_2 1_555 1_555
H40_2 C37_2 1_555 1_555
C48_2 H54_2 1_555 1_555
H55_2 C48_2 1_555 1_555
H56_2 C48_2 1_555 1_555
C65_2 O17_2 1_555 1_555

#END
