
###############################################################################
#
# This file contains modified crystal structure data generated from the
# MOF subset of the Cambridge Structural Database (CSD) v543 
# hosted by the Cambridge Crystallographic Data Centre (CCDC).
#
# This work is licensed under the Creative Commons
# Attribution-NonCommercial-ShareAlike 4.0 International License.
# To view a copy of this license, visit
# http://creativecommons.org/licenses/by-nc-sa/4.0/
# or send a letter to
# Creative Commons, PO Box 1866, Mountain View, CA 94042, USA.
#
# CIF created using the CSD Python API on 29 September 2022
# The structure has been converted into the P1 space group
# The structure has a 3D framework
# The original CSD entry GAJTAQ is in the monoclinic crystal system
# The framework has been calculated to contain at least 10.0% void space
# The void calculation uses a probe of radius 1.32A, grid spacing 0.4
#
###############################################################################

data_GAJTAQ
_chemical_formula_moiety         '(C132 H88 N8 O24 Zn4)n'
_symmetry_cell_setting           triclinic
_symmetry_space_group_name_H-M   'P 1'
_symmetry_Int_Tables_number      1
_space_group_name_Hall           'P 1'
loop_
_symmetry_equiv_pos_site_id
_symmetry_equiv_pos_as_xyz
1 x,y,z
_cell_length_a                   14.7490(6)
_cell_length_b                   14.9770(6)
_cell_length_c                   16.3820(7)
_cell_angle_alpha                90
_cell_angle_beta                 107.886(4)
_cell_angle_gamma                90
_cell_volume                     3443.82
loop_
_atom_site_label
_atom_site_type_symbol
_atom_site_fract_x
_atom_site_fract_y
_atom_site_fract_z
Zn3 Zn 0.299955(18) 0.041707(18) 0.846311(15)
N2 N 0.38699(12) 0.12476(13) 0.93467(11)
C4 C 0.35432(15) 0.18442(16) 0.97942(14)
H3 H 0.2889 0.1891 0.9693
C21 C 0.48098(17) 0.1198(2) 0.95005(17)
H12 H 0.5045 0.0797 0.9182
N1 N 0.20539(12) 0.11569(12) 0.75606(11)
O6 O 0.19806(19) 0.02625(14) 0.97444(16)
C3 C 0.07897(15) 0.21293(14) 0.62534(13)
C5 C 0.17039(15) 0.24366(15) 0.66728(15)
H4 H 0.1910 0.2977 0.6514
C7 C 0.01193(15) 0.26674(15) 0.55735(13)
C9 C 0.22990(15) 0.19436(15) 0.73188(14)
H5 H 0.2902 0.2168 0.7601
C16 C 0.05359(18) 0.13164(19) 0.65138(19)
H12_2 H 0.0045 0.4203 0.4182
C22 C 0.11831(19) 0.08508(18) 0.71618(18)
H13 H 0.1004 0.0301 0.7327
C23 C 0.04445(17) 0.3294(2) 0.51029(17)
H14 H 0.1095 0.3366 0.5198
Zn1 Zn 0.799955(18) 0.458293(18) 0.346311(15)
O1 O 0.29531(12) 0.92330(14) 0.69921(12)
O2 O 0.40080(12) 0.98777(13) 0.80896(11)
O3 O 0.34550(12) 0.79264(14) 0.62293(12)
H1 H 0.3102 0.8292 0.6350
O4 O 0.73153(13) 0.55567(12) 0.37590(12)
N1_2 N 0.70539(12) 0.38431(12) 0.25606(11)
O5 O 0.59900(19) 0.54337(13) 0.56387(15)
H2 H 0.6258 0.5041 0.5450
O6_2 O 0.69806(19) 0.47375(14) 0.47444(16)
C1 C 0.37808(16) 0.93272(16) 0.74708(13)
C2 C 0.45649(15) 0.87698(16) 0.73488(12)
C3_2 C 0.57897(15) 0.28707(14) 0.12534(13)
C5_2 C 0.67039(15) 0.25634(15) 0.16728(15)
H4_2 H 0.6910 0.2023 0.1514
C6 C 0.53041(16) 0.68537(15) 0.52507(14)
C7_2 C 0.51193(15) 0.23326(15) 0.05735(13)
C8 C 0.55680(19) 0.76223(18) 0.40211(18)
C9_2 C 0.72990(15) 0.30564(15) 0.23188(14)
H5_2 H 0.7902 0.2832 0.2601
C10 C 0.58494(18) 0.61526(15) 0.51190(15)
C11 C 0.62841(15) 0.61833(15) 0.44516(14)
C12 C 0.43680(16) 0.80658(17) 0.67334(13)
C13 C 0.51585(16) 0.76069(15) 0.47026(15)
C14 C 0.41395(16) 0.23942(16) 0.04011(14)
H6 H 0.3885 0.2806 0.0695
C15 C 0.54891(17) 0.89241(19) 0.78352(14)
H7 H 0.5620 0.9390 0.8229
C16_2 C 0.55359(18) 0.36836(19) 0.15138(19)
H8 H 0.4931 0.3917 0.1254
C17 C 0.68978(16) 0.54314(16) 0.43231(16)
C18 C 0.4836(2) 0.67864(17) 0.59588(18)
H9 H 0.4150 0.6781 0.5694
H10 H 0.5013 0.6219 0.6250
C19 C 0.50822(18) 0.75251(18) 0.66274(14)
C20 C 0.61203(18) 0.69030(19) 0.39151(16)
H11 H 0.6384 0.6914 0.3467
C22_2 C 0.61831(19) 0.41492(18) 0.21618(18)
H13_2 H 0.6004 0.4699 0.2327
C23_2 C 0.54445(17) 0.1706(2) 0.01029(17)
H14_2 H 0.6095 0.1634 0.0198
C24 C 0.4597(2) 0.83554(19) 0.47777(19)
H15 H 0.4296 0.8358 0.5200
C25 C 0.6030(2) 0.7672(2) 0.71629(16)
C26 C 0.62356(19) 0.8401(3) 0.77538(16)
C27 C 0.5415(3) 0.8382(2) 0.3466(3)
H16 H 0.5673 0.8391 0.3015
C28 C 0.4492(3) 0.9067(2) 0.4243(3)
H17 H 0.4137 0.9556 0.4320
C29 C 0.7188(2) 0.8555(4) 0.8268(2)
H18 H 0.7319 0.9029 0.8654
C30 C 0.4901(3) 0.9083(2) 0.3589(3)
H19 H 0.4820 0.9580 0.3233
C31 C 0.6799(3) 0.7112(4) 0.7138(2)
H20 H 0.6691 0.6618 0.6777
C32 C 0.7713(3) 0.7311(5) 0.7659(3)
H21 H 0.8214 0.6947 0.7634
C33 C 0.7906(3) 0.8031(5) 0.8212(3)
H22 H 0.8528 0.8153 0.8544
O7 O 0.90080(12) 0.51223(13) 0.30896(11)
N3 N 0.88699(12) 0.37524(13) 0.43467(11)
O4_2 O 0.23153(13) 0.94433(12) 0.87590(12)
C8_2 C 0.05680(19) 0.73777(18) 0.90211(18)
C11_2 C 0.12841(15) 0.88167(15) 0.94516(14)
C13_2 C 0.01585(16) 0.73931(15) 0.97026(15)
C17_2 C 0.18978(16) 0.95686(16) 0.93231(16)
C20_2 C 0.11203(18) 0.80970(19) 0.89151(16)
H11_2 H 0.1384 0.8086 0.8467
C27_2 C 0.0415(3) 0.6618(2) 0.8466(3)
H16_2 H 0.0673 0.6609 0.8015
C4_2 C 0.85432(15) 0.31558(16) 0.47942(14)
H3_2 H 0.7889 0.3109 0.4693
C14_2 C 0.91395(16) 0.26058(16) 0.54011(14)
H6_2 H 0.8885 0.2194 0.5695
H8_2 H 0.9931 0.1083 0.6254
C21_2 C 0.98098(17) 0.3802(2) 0.45005(17)
O1_2 O 0.79531(12) 0.57670(14) 0.19921(12)
O3_2 O 0.84550(12) 0.70736(14) 0.12293(12)
H1_2 H 0.8102 0.6708 0.1350
C1_2 C 0.87808(16) 0.56728(16) 0.24708(13)
C2_2 C 0.95649(15) 0.62302(16) 0.23488(12)
C12_2 C 0.93680(16) 0.69342(17) 0.17334(13)
C18_2 C 0.9836(2) 0.82136(17) 0.09588(18)
H9_2 H 0.9150 0.8219 0.0694
H15_2 H 0.9296 0.6642 0.0200
C24_2 C 0.0403(2) 0.33554(19) 0.02223(19)
C28_2 C 0.0508(3) 0.4067(2) 0.0757(3)
H17_2 H 0.0863 0.4556 0.0680
C30_2 C 0.0099(3) 0.4083(2) 0.1411(3)
H19_2 H 0.0180 0.4580 0.1767
O1_3 O 0.20469(12) 0.42330(14) 0.80079(12)
O2_2 O 0.09920(12) 0.48777(13) 0.69104(11)
O3_3 O 0.15450(12) 0.29264(14) 0.87707(12)
H1_3 H 0.1898 0.3292 0.8650
C1_3 C 0.12192(16) 0.43272(16) 0.75292(13)
C2_3 C 0.04351(15) 0.37698(16) 0.76512(12)
C12_3 C 0.06320(16) 0.30658(17) 0.82666(13)
C18_3 C 0.0164(2) 0.17864(17) 0.90412(18)
H9_3 H 0.0850 0.1781 0.9306
H15_3 H 0.0704 0.3358 0.9800
Zn3_2 Zn 0.200045(18) 0.541707(18) 0.653689(15)
N2_2 N 0.11301(12) 0.62476(13) 0.56533(11)
C4_3 C 0.14568(15) 0.68442(16) 0.52058(14)
H3_3 H 0.2111 0.6891 0.5307
C14_3 C 0.08605(16) 0.73942(16) 0.45989(14)
H6_3 H 0.1115 0.7806 0.4305
H8_3 H 0.0069 0.8917 0.3746
C21_3 C 0.01902(17) 0.6198(2) 0.54995(17)
O4_3 O 0.76847(13) 0.05567(12) 0.12410(12)
C8_3 C 0.94320(19) 0.26223(18) 0.09789(18)
C11_3 C 0.87159(15) 0.11833(15) 0.05484(14)
C13_3 C 0.98415(16) 0.26069(15) 0.02974(15)
C17_3 C 0.81022(16) 0.04314(16) 0.06769(16)
C20_3 C 0.88797(18) 0.19030(19) 0.10849(16)
H11_3 H 0.8616 0.1914 0.1533
C27_3 C 0.9585(3) 0.3382(2) 0.1534(3)
H16_3 H 0.9327 0.3391 0.1985
O7_2 O 0.59920(12) 0.01223(13) 0.19104(11)
O1_4 O 0.70469(12) 0.07670(14) 0.30079(12)
O3_4 O 0.65450(12) 0.20736(14) 0.37707(12)
H1_4 H 0.6898 0.1708 0.3650
O4_4 O 0.26847(13) 0.44433(12) 0.62410(12)
N1_3 N 0.29461(12) 0.61569(12) 0.74394(11)
O5_2 O 0.40100(19) 0.45663(13) 0.43613(15)
H2_2 H 0.3742 0.4959 0.4550
O6_3 O 0.30194(19) 0.52625(14) 0.52556(16)
C1_4 C 0.62192(16) 0.06728(16) 0.25292(13)
C2_4 C 0.54351(15) 0.12302(16) 0.26512(12)
C3_3 C 0.42103(15) 0.71293(14) 0.87466(13)
C5_3 C 0.32961(15) 0.74366(15) 0.83272(15)
H4_3 H 0.3090 0.7977 0.8486
C6_2 C 0.46959(16) 0.31463(15) 0.47493(14)
C7_3 C 0.48807(15) 0.76674(15) 0.94265(13)
C8_4 C 0.44320(19) 0.23777(18) 0.59789(18)
C9_3 C 0.27010(15) 0.69436(15) 0.76812(14)
H5_3 H 0.2098 0.7168 0.7399
C10_2 C 0.41506(18) 0.38474(15) 0.48810(15)
C11_4 C 0.37159(15) 0.38167(15) 0.55484(14)
C12_4 C 0.56320(16) 0.19342(17) 0.32666(13)
C13_4 C 0.48415(16) 0.23931(15) 0.52974(15)
C14_4 C 0.58605(16) 0.76058(16) 0.95989(14)
H6_4 H 0.6115 0.7194 0.9305
C15_2 C 0.45109(17) 0.10759(19) 0.21648(14)
H7_2 H 0.4380 0.0610 0.1771
C16_3 C 0.44641(18) 0.63164(19) 0.84862(19)
H8_4 H 0.5069 0.6083 0.8746
C17_4 C 0.31022(16) 0.45686(16) 0.56769(16)
C18_4 C 0.5164(2) 0.32136(17) 0.40412(18)
H9_4 H 0.5850 0.3219 0.4306
H10_2 H 0.4987 0.3781 0.3750
C19_2 C 0.49178(18) 0.24749(18) 0.33726(14)
C20_4 C 0.38797(18) 0.30970(19) 0.60849(16)
H11_4 H 0.3616 0.3086 0.6533
C22_3 C 0.38169(19) 0.58508(18) 0.78382(18)
H13_3 H 0.3996 0.5301 0.7673
C23_3 C 0.45555(17) 0.8294(2) 0.98971(17)
H14_3 H 0.3905 0.8366 0.9802
C24_3 C 0.5403(2) 0.16446(19) 0.52223(19)
H15_4 H 0.5704 0.1642 0.4800
C25_2 C 0.3970(2) 0.2328(2) 0.28371(16)
C26_2 C 0.37644(19) 0.1599(3) 0.22462(16)
C27_4 C 0.4585(3) 0.1618(2) 0.6534(3)
H16_4 H 0.4327 0.1609 0.6985
C28_3 C 0.5508(3) 0.0933(2) 0.5757(3)
H17_3 H 0.5863 0.0444 0.5680
C29_2 C 0.2812(2) 0.1445(4) 0.1732(2)
H18_2 H 0.2681 0.0971 0.1346
C30_3 C 0.5099(3) 0.0917(2) 0.6411(3)
H19_3 H 0.5180 0.0420 0.6767
C31_2 C 0.3201(3) 0.2888(4) 0.2862(2)
H20_2 H 0.3309 0.3382 0.3223
C32_2 C 0.2287(3) 0.2689(5) 0.2341(3)
H21_2 H 0.1786 0.3053 0.2366
C33_2 C 0.2094(3) 0.1969(5) 0.1788(3)
H22_2 H 0.1472 0.1847 0.1456
O5_3 O 0.90100(19) 0.04337(13) 0.93613(15)
H2_3 H 0.8742 0.0041 0.9550
C6_3 C 0.96959(16) 0.18537(15) 0.97493(14)
C10_3 C 0.91506(18) 0.11526(15) 0.98810(15)
C15_3 C 0.95109(17) 0.39241(19) 0.71648(14)
H7_3 H 0.9380 0.4390 0.6771
H10_3 H 0.9987 0.1219 0.8750
C19_3 C 0.99178(18) 0.25251(18) 0.83726(14)
C25_3 C 0.8970(2) 0.2672(2) 0.78371(16)
C26_3 C 0.87644(19) 0.3401(3) 0.72462(16)
C29_3 C 0.7812(2) 0.3555(4) 0.6732(2)
H18_3 H 0.7681 0.4029 0.6346
C31_3 C 0.8201(3) 0.2112(4) 0.7862(2)
H20_3 H 0.8309 0.1618 0.8223
C32_3 C 0.7287(3) 0.2311(5) 0.7341(3)
H21_3 H 0.6786 0.1947 0.7366
C33_3 C 0.7094(3) 0.3031(5) 0.6788(3)
H22_3 H 0.6472 0.3153 0.6456
Zn1_2 Zn 0.700045(18) 0.958293(18) 0.153689(15)
N1_4 N 0.79461(12) 0.88431(12) 0.24394(11)
O6_4 O 0.80194(19) 0.97375(14) 0.02556(16)
C3_4 C 0.92103(15) 0.78707(14) 0.37466(13)
C5_4 C 0.82961(15) 0.75634(15) 0.33272(15)
H4_4 H 0.8090 0.7023 0.3486
C7_4 C 0.98807(15) 0.73326(15) 0.44265(13)
C9_4 C 0.77010(15) 0.80564(15) 0.26812(14)
H5_4 H 0.7098 0.7832 0.2399
C16_4 C 0.94641(18) 0.86836(19) 0.34862(19)
H12_3 H 0.9955 0.5797 0.5818
C22_4 C 0.88169(19) 0.91492(18) 0.28382(18)
H13_4 H 0.8996 0.9699 0.2673
C23_4 C 0.95555(17) 0.6706(2) 0.48971(17)
H14_4 H 0.8905 0.6634 0.4802
N3_2 N 0.61301(12) 0.87524(13) 0.06533(11)
C4_4 C 0.64568(15) 0.81558(16) 0.02058(14)
H3_4 H 0.7111 0.8109 0.0307
C21_4 C 0.51902(17) 0.8802(2) 0.04995(17)
H12_4 H 0.4955 0.9203 0.0818
O5_4 O 0.09900(19) 0.95663(13) 0.06387(15)
H2_4 H 0.1258 0.9959 0.0450
C6_4 C 0.03041(16) 0.81463(15) 0.02507(14)
C10_4 C 0.08494(18) 0.88474(15) 0.01190(15)
C15_4 C 0.04891(17) 0.60759(19) 0.28352(14)
H7_4 H 0.0620 0.5610 0.3229
H10_4 H 0.0013 0.8781 0.1250
C19_4 C 0.00822(18) 0.74749(18) 0.16274(14)
C25_4 C 0.1030(2) 0.7328(2) 0.21629(16)
C26_4 C 0.12356(19) 0.6599(3) 0.27538(16)
C29_4 C 0.2188(2) 0.6445(4) 0.3268(2)
H18_4 H 0.2319 0.5971 0.3654
C31_4 C 0.1799(3) 0.7888(4) 0.2138(2)
H20_4 H 0.1691 0.8382 0.1777
C32_4 C 0.2713(3) 0.7689(5) 0.2659(3)
H21_4 H 0.3214 0.8053 0.2634
C33_4 C 0.2906(3) 0.6969(5) 0.3212(3)
H22_4 H 0.3528 0.6847 0.3544
C24_4 C 0.9597(2) 0.66446(19) 0.97777(19)
C28_4 C 0.9492(3) 0.5933(2) 0.9243(3)
H17_4 H 0.9137 0.5444 0.9320
C30_4 C 0.9901(3) 0.5917(2) 0.8589(3)
H19_4 H 0.9820 0.5420 0.8233
loop_
_geom_bond_atom_site_label_1
_geom_bond_atom_site_label_2
_geom_bond_site_symmetry_1
_geom_bond_site_symmetry_2
N2 C4 1_555 1_555
C4 H3 1_555 1_555
C21 N2 1_555 1_555
H12 C21 1_555 1_555
Zn3 N2 1_555 1_555
N1 Zn3 1_555 1_555
C3 C5 1_555 1_555
C5 H4 1_555 1_555
C7 C3 1_555 1_555
C9 N1 1_555 1_555
H5 C9 1_555 1_555
C16 C3 1_555 1_555
C22 N1 1_555 1_555
H13 C22 1_555 1_555
C23 C7 1_555 1_555
H14 C23 1_555 1_555
C5 C9 1_555 1_555
C16 C22 1_555 1_555
Zn1 O4 1_555 1_555
O1 C1 1_555 1_555
O2 C1 1_555 1_555
O3 H1 1_555 1_555
O4 C17 1_555 1_555
N1_2 Zn1 1_555 1_555
O5 H2 1_555 1_555
O6_2 C17 1_555 1_555
C1 C2 1_555 1_555
C2 C12 1_555 1_555
C3_2 C5_2 1_555 1_555
C5_2 H4_2 1_555 1_555
C6 C10 1_555 1_555
C7_2 C3_2 1_555 1_555
C8 C13 1_555 1_555
C9_2 N1_2 1_555 1_555
H5_2 C9_2 1_555 1_555
C10 O5 1_555 1_555
C11 C10 1_555 1_555
C12 O3 1_555 1_555
C13 C6 1_555 1_555
H6 C14 1_555 1_555
C15 C2 1_555 1_555
H7 C15 1_555 1_555
C16_2 C3_2 1_555 1_555
H8 C16_2 1_555 1_555
C17 C11 1_555 1_555
C18 C6 1_555 1_555
H9 C18 1_555 1_555
H10 C18 1_555 1_555
C19 C12 1_555 1_555
C20 C8 1_555 1_555
H11 C20 1_555 1_555
C22_2 N1_2 1_555 1_555
H13_2 C22_2 1_555 1_555
C23_2 C7_2 1_555 1_555
H14_2 C23_2 1_555 1_555
C24 C13 1_555 1_555
H15 C24 1_555 1_555
C25 C19 1_555 1_555
C26 C15 1_555 1_555
C27 C8 1_555 1_555
H16 C27 1_555 1_555
C28 C24 1_555 1_555
H17 C28 1_555 1_555
C29 C26 1_555 1_555
H18 C29 1_555 1_555
C30 C27 1_555 1_555
H19 C30 1_555 1_555
C31 C25 1_555 1_555
H20 C31 1_555 1_555
C32 C31 1_555 1_555
H21 C32 1_555 1_555
C33 C29 1_555 1_555
H22 C33 1_555 1_555
O7 Zn1 1_555 1_555
N3 Zn1 1_555 1_555
C5_2 C9_2 1_555 1_555
C7_2 C14 1_555 1_555
C11 C20 1_555 1_555
C16_2 C22_2 1_555 1_555
C18 C19 1_555 1_555
C25 C26 1_555 1_555
C28 C30 1_555 1_555
C32 C33 1_555 1_555
O4_2 C17_2 1_555 1_555
C8_2 C13_2 1_555 1_555
C17_2 C11_2 1_555 1_555
C20_2 C8_2 1_555 1_555
H11_2 C20_2 1_555 1_555
C27_2 C8_2 1_555 1_555
H16_2 C27_2 1_555 1_555
C11_2 C20_2 1_555 1_555
N3 C4_2 1_555 1_555
C4_2 H3_2 1_555 1_555
C14_2 C4_2 1_555 1_555
H6_2 C14_2 1_555 1_555
C21_2 N3 1_555 1_555
O1_2 C1_2 1_555 1_555
O7 C1_2 1_555 1_555
O3_2 H1_2 1_555 1_555
C1_2 C2_2 1_555 1_555
C2_2 C12_2 1_555 1_555
C12_2 O3_2 1_555 1_555
H9_2 C18_2 1_555 1_555
C28_2 C24_2 1_555 1_555
H17_2 C28_2 1_555 1_555
H19_2 C30_2 1_555 1_555
C28_2 C30_2 1_555 1_555
O1_3 C1_3 1_555 1_555
O2_2 C1_3 1_555 1_555
O3_3 H1_3 1_555 1_555
C1_3 C2_3 1_555 1_555
C2_3 C12_3 1_555 1_555
C12_3 O3_3 1_555 1_555
H9_3 C18_3 1_555 1_555
Zn3_2 O2_2 1_555 1_555
N2_2 C4_3 1_555 1_555
C4_3 H3_3 1_555 1_555
C14_3 C4_3 1_555 1_555
H6_3 C14_3 1_555 1_555
C21_3 N2_2 1_555 1_555
Zn3_2 N2_2 1_555 1_555
O4_3 C17_3 1_555 1_555
C8_3 C13_3 1_555 1_555
C17_3 C11_3 1_555 1_555
C20_3 C8_3 1_555 1_555
H11_3 C20_3 1_555 1_555
C27_3 C8_3 1_555 1_555
H16_3 C27_3 1_555 1_555
C11_3 C20_3 1_555 1_555
Zn3_2 O4_4 1_555 1_555
O1_4 C1_4 1_555 1_555
O7_2 C1_4 1_555 1_555
O3_4 H1_4 1_555 1_555
O4_4 C17_4 1_555 1_555
N1_3 Zn3_2 1_555 1_555
O5_2 H2_2 1_555 1_555
O6_3 C17_4 1_555 1_555
C1_4 C2_4 1_555 1_555
C2_4 C12_4 1_555 1_555
C3_3 C5_3 1_555 1_555
C5_3 H4_3 1_555 1_555
C6_2 C10_2 1_555 1_555
C7_3 C3_3 1_555 1_555
C8_4 C13_4 1_555 1_555
C9_3 N1_3 1_555 1_555
H5_3 C9_3 1_555 1_555
C10_2 O5_2 1_555 1_555
C11_4 C10_2 1_555 1_555
C12_4 O3_4 1_555 1_555
C13_4 C6_2 1_555 1_555
H6_4 C14_4 1_555 1_555
C15_2 C2_4 1_555 1_555
H7_2 C15_2 1_555 1_555
C16_3 C3_3 1_555 1_555
H8_4 C16_3 1_555 1_555
C17_4 C11_4 1_555 1_555
C18_4 C6_2 1_555 1_555
H9_4 C18_4 1_555 1_555
H10_2 C18_4 1_555 1_555
C19_2 C12_4 1_555 1_555
C20_4 C8_4 1_555 1_555
H11_4 C20_4 1_555 1_555
C22_3 N1_3 1_555 1_555
H13_3 C22_3 1_555 1_555
C23_3 C7_3 1_555 1_555
H14_3 C23_3 1_555 1_555
C24_3 C13_4 1_555 1_555
H15_4 C24_3 1_555 1_555
C25_2 C19_2 1_555 1_555
C26_2 C15_2 1_555 1_555
C27_4 C8_4 1_555 1_555
H16_4 C27_4 1_555 1_555
C28_3 C24_3 1_555 1_555
H17_3 C28_3 1_555 1_555
C29_2 C26_2 1_555 1_555
H18_2 C29_2 1_555 1_555
C30_3 C27_4 1_555 1_555
H19_3 C30_3 1_555 1_555
C31_2 C25_2 1_555 1_555
H20_2 C31_2 1_555 1_555
C32_2 C31_2 1_555 1_555
H21_2 C32_2 1_555 1_555
C33_2 C29_2 1_555 1_555
H22_2 C33_2 1_555 1_555
C5_3 C9_3 1_555 1_555
C7_3 C14_4 1_555 1_555
C11_4 C20_4 1_555 1_555
C16_3 C22_3 1_555 1_555
C18_4 C19_2 1_555 1_555
C25_2 C26_2 1_555 1_555
C28_3 C30_3 1_555 1_555
C32_2 C33_2 1_555 1_555
O5_3 H2_3 1_555 1_555
C6_3 C10_3 1_555 1_555
C10_3 O5_3 1_555 1_555
H7_3 C15_3 1_555 1_555
C25_3 C19_3 1_555 1_555
C26_3 C15_3 1_555 1_555
C29_3 C26_3 1_555 1_555
H18_3 C29_3 1_555 1_555
C31_3 C25_3 1_555 1_555
H20_3 C31_3 1_555 1_555
C32_3 C31_3 1_555 1_555
H21_3 C32_3 1_555 1_555
C33_3 C29_3 1_555 1_555
H22_3 C33_3 1_555 1_555
C25_3 C26_3 1_555 1_555
C32_3 C33_3 1_555 1_555
N1_4 Zn1_2 1_555 1_555
C3_4 C5_4 1_555 1_555
C5_4 H4_4 1_555 1_555
C7_4 C3_4 1_555 1_555
C9_4 N1_4 1_555 1_555
H5_4 C9_4 1_555 1_555
C16_4 C3_4 1_555 1_555
C22_4 N1_4 1_555 1_555
H13_4 C22_4 1_555 1_555
C23_4 C7_4 1_555 1_555
H14_4 C23_4 1_555 1_555
N3_2 Zn1_2 1_555 1_555
C5_4 C9_4 1_555 1_555
C16_4 C22_4 1_555 1_555
N3_2 C4_4 1_555 1_555
C4_4 H3_4 1_555 1_555
C21_4 N3_2 1_555 1_555
H12_4 C21_4 1_555 1_555
O5_4 H2_4 1_555 1_555
C6_4 C10_4 1_555 1_555
C10_4 O5_4 1_555 1_555
H7_4 C15_4 1_555 1_555
C25_4 C19_4 1_555 1_555
C26_4 C15_4 1_555 1_555
C29_4 C26_4 1_555 1_555
H18_4 C29_4 1_555 1_555
C31_4 C25_4 1_555 1_555
H20_4 C31_4 1_555 1_555
C32_4 C31_4 1_555 1_555
H21_4 C32_4 1_555 1_555
C33_4 C29_4 1_555 1_555
H22_4 C33_4 1_555 1_555
C25_4 C26_4 1_555 1_555
C32_4 C33_4 1_555 1_555
C28_4 C24_4 1_555 1_555
H17_4 C28_4 1_555 1_555
H19_4 C30_4 1_555 1_555
C28_4 C30_4 1_555 1_555

#END
