
###############################################################################
#
# This file contains modified crystal structure data generated from the
# MOF subset of the Cambridge Structural Database (CSD) v543 
# hosted by the Cambridge Crystallographic Data Centre (CCDC).
#
# This work is licensed under the Creative Commons
# Attribution-NonCommercial-ShareAlike 4.0 International License.
# To view a copy of this license, visit
# http://creativecommons.org/licenses/by-nc-sa/4.0/
# or send a letter to
# Creative Commons, PO Box 1866, Mountain View, CA 94042, USA.
#
# CIF created using the CSD Python API on 29 September 2022
# The structure has been converted into the P1 space group
# The structure has a 3D framework
# The original CSD entry GAJZAU is in the monoclinic crystal system
# The framework has been calculated to contain at least 10.0% void space
# The void calculation uses a probe of radius 1.32A, grid spacing 0.4
#
###############################################################################

data_GAJZAU
_chemical_formula_moiety         '(C28 H60 N4 O22 P4 Pr4)n'
_symmetry_cell_setting           triclinic
_symmetry_space_group_name_H-M   'P 1'
_symmetry_Int_Tables_number      1
_space_group_name_Hall           'P 1'
loop_
_symmetry_equiv_pos_site_id
_symmetry_equiv_pos_as_xyz
1 x,y,z
_cell_length_a                   5.6068(8)
_cell_length_b                   13.3820(18)
_cell_length_c                   21.192(3)
_cell_angle_alpha                90
_cell_angle_beta                 95.892(2)
_cell_angle_gamma                90
_cell_volume                     1581.64
loop_
_atom_site_label
_atom_site_type_symbol
_atom_site_fract_x
_atom_site_fract_y
_atom_site_fract_z
O1 O 0.3143(10) 0.0174(4) 0.9530(3)
H5 H 0.2431 0.0240 0.8204
H8 H 0.1197 0.0010 0.7142
Pr2 Pr 0.62969(8) 0.13596(3) 0.97105(2)
Pr1 Pr 0.37031(8) 0.86404(3) 0.02895(2)
O7 O 0.1399(12) 0.7087(5) 0.0346(3)
H3 H 0.2051 0.6730 0.0649
O8 O 0.6857(10) 0.9826(4) 0.0470(3)
O9 O 0.1201(11) 0.9525(5) 0.0926(3)
O10 O 0.6981(12) 0.7430(5) 0.0718(3)
O11 O 0.5051(13) 0.8148(5) 0.1432(3)
O3 O 0.8799(11) 0.0475(5) 0.9074(3)
O4 O 0.6981(12) 0.7570(5) 0.5718(3)
O5 O 0.5051(13) 0.6852(5) 0.6432(3)
C3 C 0.9112(19) 0.8913(7) 0.6701(5)
H9 H 0.9737 0.8994 0.6294
H10 H 0.7643 0.9298 0.6693
C4 C 0.8555(17) 0.7805(7) 0.6803(4)
C5 C 0.781(2) 0.7682(9) 0.7461(4)
H12 H 0.7575 0.6978 0.7543
H13 H 0.6296 0.8021 0.7486
C6 C 0.970(2) 0.8108(7) 0.7972(5)
H14 H 0.9145 0.8023 0.8387
C7 C 0.6743(17) 0.7383(7) 0.6296(4)
Pr4 Pr 0.37031(8) 0.63596(3) 0.52895(2)
O3_2 O 0.1201(11) 0.5475(5) 0.5926(3)
O4_2 O 0.3019(12) 0.2570(5) 0.9282(3)
O5_2 O 0.4949(13) 0.1852(5) 0.8568(3)
H4 H 0.0038 0.2224 0.4587
C3_2 C 0.0888(19) 0.3913(7) 0.8299(5)
H9_2 H 0.0263 0.3994 0.8706
H10_2 H 0.2357 0.4298 0.8307
C4_2 C 0.1445(17) 0.2805(7) 0.8197(4)
C5_2 C 0.219(2) 0.2682(9) 0.7539(4)
H12_2 H 0.2425 0.1978 0.7457
H13_2 H 0.3704 0.3021 0.7514
C6_2 C 0.030(2) 0.3108(7) 0.7028(5)
H14_2 H 0.0855 0.3023 0.6613
C7_2 C 0.3257(17) 0.2383(7) 0.8704(4)
Pr1_2 Pr 0.62969(8) 0.36404(3) 0.47105(2)
P1 P 0.9104(4) 0.47697(17) 0.58661(10)
O1_2 O 0.6857(10) 0.5174(4) 0.5470(3)
O2 O 0.9616(11) 0.3769(4) 0.5574(3)
O6 O 0.4171(12) 0.3114(5) 0.5626(3)
H1 H 0.3607 0.2531 0.5557
H2 H 0.5169 0.3109 0.5958
O7_2 O 0.8601(12) 0.2087(5) 0.4654(3)
H3_2 H 0.7949 0.1730 0.4351
N1 N 0.9897(13) 0.4187(5) 0.7147(3)
C1 C 0.8105(16) 0.4598(7) 0.6651(4)
H5_2 H 0.7569 0.5240 0.6796
H6 H 0.6727 0.4156 0.6610
C2 C 0.9086(19) 0.4307(8) 0.7782(4)
H7 H 0.7580 0.3956 0.7796
H8_2 H 0.8803 0.5010 0.7858
H11 H 0.9948 0.2432 0.8214
H15 H 0.8809 0.2745 0.7035
O8_2 O 0.3143(10) 0.4826(4) 0.4530(3)
O9_2 O 0.8799(11) 0.4525(5) 0.4074(3)
O10_2 O 0.3019(12) 0.2430(5) 0.4282(3)
O11_2 O 0.4949(13) 0.3148(5) 0.3568(3)
C3_3 C 0.0888(19) 0.1087(7) 0.3299(5)
H9_3 H 0.0263 0.1006 0.3706
H10_3 H 0.2357 0.0702 0.3307
C4_3 C 0.1445(17) 0.2195(7) 0.3197(4)
C5_3 C 0.219(2) 0.2318(9) 0.2539(4)
H12_3 H 0.2425 0.3022 0.2457
H13_3 H 0.3704 0.1979 0.2514
C6_3 C 0.030(2) 0.1892(7) 0.2028(5)
H14_3 H 0.0855 0.1977 0.1613
C7_3 C 0.3257(17) 0.2617(7) 0.3704(4)
O7_3 O 0.8601(12) 0.2913(5) 0.9654(3)
H3_3 H 0.7949 0.3270 0.9351
H5_3 H 0.7569 0.9760 0.1796
H8_3 H 0.8803 0.9990 0.2858
P1_2 P 0.0896(4) 0.52303(17) 0.41339(10)
O2_2 O 0.0384(11) 0.6231(4) 0.4426(3)
O6_2 O 0.5829(12) 0.6886(5) 0.4374(3)
H1_2 H 0.6393 0.7469 0.4443
H2_2 H 0.4831 0.6891 0.4042
O7_4 O 0.1399(12) 0.7913(5) 0.5346(3)
H3_4 H 0.2051 0.8270 0.5649
N1_2 N 0.0103(13) 0.5813(5) 0.2853(3)
C1_2 C 0.1895(16) 0.5402(7) 0.3349(4)
H5_4 H 0.2431 0.4760 0.3204
H6_2 H 0.3273 0.5844 0.3390
C2_2 C 0.0914(19) 0.5693(8) 0.2218(4)
H7_2 H 0.2420 0.6044 0.2204
H8_4 H 0.1197 0.4990 0.2142
H11_2 H 0.0052 0.7568 0.1786
H15_2 H 0.1191 0.7255 0.2965
H4_2 H 0.9962 0.7776 0.5413
C3_4 C 0.9112(19) 0.6087(7) 0.1701(5)
H9_4 H 0.9737 0.6006 0.1294
H10_4 H 0.7643 0.5702 0.1693
C4_4 C 0.8555(17) 0.7195(7) 0.1803(4)
C5_4 C 0.781(2) 0.7318(9) 0.2461(4)
H12_4 H 0.7575 0.8022 0.2543
H13_4 H 0.6296 0.6979 0.2486
C6_4 C 0.970(2) 0.6892(7) 0.2972(5)
H14_4 H 0.9145 0.6977 0.3387
C7_4 C 0.6743(17) 0.7617(7) 0.1296(4)
P1_3 P 0.0896(4) 0.97697(17) 0.91339(10)
O2_3 O 0.0384(11) 0.8769(4) 0.9426(3)
O6_3 O 0.5829(12) 0.8114(5) 0.9374(3)
H1_3 H 0.6393 0.7531 0.9443
H2_3 H 0.4831 0.8109 0.9042
N1_3 N 0.0103(13) 0.9187(5) 0.7853(3)
C1_3 C 0.1895(16) 0.9598(7) 0.8349(4)
H6_3 H 0.3273 0.9156 0.8390
C2_3 C 0.0914(19) 0.9307(8) 0.7218(4)
H7_3 H 0.2420 0.8956 0.7204
H11_3 H 0.0052 0.7432 0.6786
H15_3 H 0.1191 0.7745 0.7965
H4_3 H 0.9962 0.7224 0.0413
H4_4 H 0.0038 0.2776 0.9587
P1_4 P 0.9104(4) 0.02303(17) 0.08661(10)
O2_4 O 0.9616(11) 0.1231(4) 0.0574(3)
O6_4 O 0.4171(12) 0.1886(5) 0.0626(3)
H1_4 H 0.3607 0.2469 0.0557
H2_4 H 0.5169 0.1891 0.0958
N1_4 N 0.9897(13) 0.0813(5) 0.2147(3)
C1_4 C 0.8105(16) 0.0402(7) 0.1651(4)
H6_4 H 0.6727 0.0844 0.1610
C2_4 C 0.9086(19) 0.0693(8) 0.2782(4)
H7_4 H 0.7580 0.1044 0.2796
H11_4 H 0.9948 0.2568 0.3214
H15_4 H 0.8809 0.2255 0.2035
loop_
_geom_bond_atom_site_label_1
_geom_bond_atom_site_label_2
_geom_bond_site_symmetry_1
_geom_bond_site_symmetry_2
O1 Pr2 1_555 1_555
O7 Pr1 1_555 1_555
H3 O7 1_555 1_555
O8 Pr1 1_555 1_555
O9 Pr1 1_555 1_555
O10 Pr1 1_555 1_555
O11 Pr1 1_555 1_555
Pr2 O3 1_555 1_555
O4 C7 1_555 1_555
O5 C7 1_555 1_555
H9 C3 1_555 1_555
H10 C3 1_555 1_555
C4 C3 1_555 1_555
C5 C4 1_555 1_555
H12 C5 1_555 1_555
H13 C5 1_555 1_555
H14 C6 1_555 1_555
C7 C4 1_555 1_555
Pr4 O4 1_555 1_555
O5 Pr4 1_555 1_555
C5 C6 1_555 1_555
O4_2 C7_2 1_555 1_555
O5_2 C7_2 1_555 1_555
H9_2 C3_2 1_555 1_555
H10_2 C3_2 1_555 1_555
C4_2 C3_2 1_555 1_555
C5_2 C4_2 1_555 1_555
H12_2 C5_2 1_555 1_555
H13_2 C5_2 1_555 1_555
H14_2 C6_2 1_555 1_555
C7_2 C4_2 1_555 1_555
Pr4 O3_2 1_555 1_555
Pr2 O4_2 1_555 1_555
O5_2 Pr2 1_555 1_555
C5_2 C6_2 1_555 1_555
Pr1_2 O1_2 1_555 1_555
P1 O1_2 1_555 1_555
O1_2 Pr4 1_555 1_555
O2 Pr1_2 1_555 1_555
O6 Pr1_2 1_555 1_555
H1 O6 1_555 1_555
H2 O6 1_555 1_555
O7_2 Pr1_2 1_555 1_555
H3_2 O7_2 1_555 1_555
N1 C1 1_555 1_555
C1 P1 1_555 1_555
H5_2 C1 1_555 1_555
H6 C1 1_555 1_555
C2 N1 1_555 1_555
H7 C2 1_555 1_555
H8_2 C2 1_555 1_555
Pr4 O8_2 1_555 1_555
O8_2 Pr1_2 1_555 1_555
O9_2 Pr1_2 1_555 1_555
O10_2 Pr1_2 1_555 1_555
O11_2 Pr1_2 1_555 1_555
P1 O2 1_555 1_555
O10_2 C7_3 1_555 1_555
O11_2 C7_3 1_555 1_555
H9_3 C3_3 1_555 1_555
H10_3 C3_3 1_555 1_555
C4_3 C3_3 1_555 1_555
C5_3 C4_3 1_555 1_555
H12_3 C5_3 1_555 1_555
H13_3 C5_3 1_555 1_555
H14_3 C6_3 1_555 1_555
C7_3 C4_3 1_555 1_555
C5_3 C6_3 1_555 1_555
O7_3 Pr2 1_555 1_555
H3_3 O7_3 1_555 1_555
P1_2 O8_2 1_555 1_555
O2_2 Pr4 1_555 1_555
O6_2 Pr4 1_555 1_555
H1_2 O6_2 1_555 1_555
H2_2 O6_2 1_555 1_555
O7_4 Pr4 1_555 1_555
H3_4 O7_4 1_555 1_555
N1_2 C1_2 1_555 1_555
C1_2 P1_2 1_555 1_555
H5_4 C1_2 1_555 1_555
H6_2 C1_2 1_555 1_555
C2_2 N1_2 1_555 1_555
H7_2 C2_2 1_555 1_555
H8_4 C2_2 1_555 1_555
P1_2 O2_2 1_555 1_555
O10 C7_4 1_555 1_555
O11 C7_4 1_555 1_555
H9_4 C3_4 1_555 1_555
H10_4 C3_4 1_555 1_555
C4_4 C3_4 1_555 1_555
C5_4 C4_4 1_555 1_555
H12_4 C5_4 1_555 1_555
H13_4 C5_4 1_555 1_555
H14_4 C6_4 1_555 1_555
C7_4 C4_4 1_555 1_555
C5_4 C6_4 1_555 1_555
H1_3 O6_3 1_555 1_555
H2_3 O6_3 1_555 1_555
N1_3 C1_3 1_555 1_555
C1_3 P1_3 1_555 1_555
H6_3 C1_3 1_555 1_555
C2_3 N1_3 1_555 1_555
H7_3 C2_3 1_555 1_555
P1_3 O2_3 1_555 1_555
H1_4 O6_4 1_555 1_555
H2_4 O6_4 1_555 1_555
N1_4 C1_4 1_555 1_555
C1_4 P1_4 1_555 1_555
H6_4 C1_4 1_555 1_555
C2_4 N1_4 1_555 1_555
H7_4 C2_4 1_555 1_555
P1_4 O2_4 1_555 1_555

#END
