
###############################################################################
#
# This file contains modified crystal structure data generated from the
# MOF subset of the Cambridge Structural Database (CSD) v543 
# hosted by the Cambridge Crystallographic Data Centre (CCDC).
#
# This work is licensed under the Creative Commons
# Attribution-NonCommercial-ShareAlike 4.0 International License.
# To view a copy of this license, visit
# http://creativecommons.org/licenses/by-nc-sa/4.0/
# or send a letter to
# Creative Commons, PO Box 1866, Mountain View, CA 94042, USA.
#
# CIF created using the CSD Python API on 29 September 2022
# The structure has been converted into the P1 space group
# The structure has a 3D framework
# The original CSD entry GAKNOX is in the triclinic crystal system
# The framework has been calculated to contain at least 10.0% void space
# The void calculation uses a probe of radius 1.32A, grid spacing 0.4
#
###############################################################################

data_GAKNOX
_chemical_formula_moiety         '(C38 H30 Mn2 N8 O8)n'
_symmetry_cell_setting           triclinic
_symmetry_space_group_name_H-M   'P 1'
_symmetry_Int_Tables_number      1
_space_group_name_Hall           'P 1'
loop_
_symmetry_equiv_pos_site_id
_symmetry_equiv_pos_as_xyz
1 x,y,z
_cell_length_a                   10.2940(16)
_cell_length_b                   10.7355(17)
_cell_length_c                   10.9828(17)
_cell_angle_alpha                81.663(3)
_cell_angle_beta                 77.172(3)
_cell_angle_gamma                64.806(3)
_cell_volume                     1069.1
loop_
_atom_site_label
_atom_site_type_symbol
_atom_site_fract_x
_atom_site_fract_y
_atom_site_fract_z
_atom_site_U_iso_or_equiv
_atom_site_thermal_displace_type
C1 C 0.1048(4) 0.4392(4) 0.8007(4) 0.0374 Uani
H1 H 0.1852 0.4539 0.7549 0.0450 Uiso
C2 C 0.1065(4) 0.3555(4) 0.9040(4) 0.0374 Uani
H2 H 0.1863 0.3029 0.9427 0.0450 Uiso
C6 C 0.0202(4) 0.0893(3) 0.9036(3) 0.0286 Uani
H6 H 0.0336 0.1504 0.8379 0.0350 Uiso
Mn4 Mn 0.11303(5) 0.33749(5) 0.37946(5) 0.0203 Uani
C28 C 0.0987(4) 0.0999(4) 0.5877(3) 0.0329 Uani
H24 H 0.0021 0.1234 0.5823 0.0390 Uiso
C29 C 0.3089(5) 0.0981(5) 0.5593(4) 0.0510 Uani
H25 H 0.3879 0.1215 0.5294 0.0610 Uiso
N8 N 0.1754(3) 0.1664(3) 0.5250(3) 0.0352 Uani
O6 O 0.1033(3) 0.6494(3) 0.5611(3) 0.0390 Uani
C22 C 0.1112(4) 0.5490(4) 0.1403(3) 0.0334 Uani
H18 H 0.2102 0.5250 0.1357 0.0400 Uiso
N5 N 0.0324(3) 0.5000(3) 0.2275(3) 0.0331 Uani
N6 N 0.0319(3) 0.6372(3) 0.0590(3) 0.0299 Uani
O9 O 0.1786(3) 0.4587(3) 0.4618(3) 0.0516 Uani
O11 O 0.3471(3) 0.2419(3) 0.2544(2) 0.0435 Uani
O13 O 0.1798(3) 0.1741(3) 0.2366(3) 0.0467 Uani
C31 C 0.3051(4) 0.1722(4) 0.2028(3) 0.0349 Uani
C32 C 0.4080(4) 0.0824(4) 0.0979(3) 0.0353 Uani
C33 C 0.3573(4) 0.0145(4) 0.0347(4) 0.0422 Uani
H27 H 0.2614 0.0233 0.0575 0.0510 Uiso
C34 C 0.5497(4) 0.0669(4) 0.0631(4) 0.0432 Uani
H28 H 0.5847 0.1116 0.1056 0.0520 Uiso
C3 C 0.8888(4) 0.4510(4) 0.8597(3) 0.0334 Uani
H3 H 0.7898 0.4750 0.8643 0.0400 Uiso
Mn1 Mn 0.88697(5) 0.66251(5) 0.62054(5) 0.0203 Uani
C12 C 0.6949(4) 0.8278(4) 0.7972(3) 0.0349 Uani
C13 C 0.5920(4) 0.9176(4) 0.9021(3) 0.0353 Uani
C14 C 0.6427(4) 0.9855(4) 0.9653(4) 0.0422 Uani
H12 H 0.7386 0.9767 0.9425 0.0510 Uiso
C15 C 0.4503(4) 0.9331(4) 0.9369(4) 0.0432 Uani
H13 H 0.4153 0.8884 0.8944 0.0520 Uiso
C16 C 0.7994(4) 0.4556(4) 0.4927(3) 0.0314 Uani
C17 C 0.6437(4) 0.4771(4) 0.4984(3) 0.0275 Uani
C18 C 0.6122(4) 0.3818(4) 0.4544(4) 0.0392 Uani
H14 H 0.6880 0.3010 0.4240 0.0470 Uiso
C19 C 0.5296(4) 0.5966(4) 0.5455(4) 0.0387 Uani
H15 H 0.5490 0.6616 0.5769 0.0470 Uiso
N1 N 0.9676(3) 0.5000(3) 0.7725(3) 0.0331 Uani
N2 N 0.9681(3) 0.3628(3) 0.9410(3) 0.0299 Uani
O1 O 0.8967(3) 0.3506(3) 0.4389(3) 0.0390 Uani
O2 O 0.8214(3) 0.5413(3) 0.5382(3) 0.0516 Uani
O3 O 0.6529(3) 0.7581(3) 0.7456(2) 0.0435 Uani
O4 O 0.8202(3) 0.8259(3) 0.7634(3) 0.0467 Uani
C35 C 0.2006(4) 0.5444(4) 0.5073(3) 0.0314 Uani
C36 C 0.3563(4) 0.5229(4) 0.5016(3) 0.0275 Uani
C37 C 0.3878(4) 0.6182(4) 0.5456(4) 0.0392 Uani
H29 H 0.3120 0.6990 0.5760 0.0470 Uiso
C38 C 0.4704(4) 0.4034(4) 0.4545(4) 0.0387 Uani
H30 H 0.4510 0.3384 0.4231 0.0470 Uiso
N9 N 0.8246(3) 0.8336(3) 0.4750(3) 0.0352 Uani
C9 C 0.9013(4) 0.9001(4) 0.4123(3) 0.0329 Uani
H9 H 0.9979 0.8766 0.4177 0.0390 Uiso
C10 C 0.6911(5) 0.9019(5) 0.4407(4) 0.0510 Uani
H10 H 0.6121 0.8785 0.4706 0.0610 Uiso
C20 C 0.8952(4) 0.5608(4) 0.1993(4) 0.0374 Uani
H16 H 0.8148 0.5461 0.2451 0.0450 Uiso
C21 C 0.8935(4) 0.6445(4) 0.0960(4) 0.0374 Uani
H17 H 0.8137 0.6971 0.0573 0.0450 Uiso
C25 C 0.9798(4) 0.9107(3) 0.0964(3) 0.0286 Uani
H21 H 0.9664 0.8496 0.1621 0.0350 Uiso
C23 C 0.0812(5) 0.7144(4) 0.9522(3) 0.0353 Uani
H19 H 0.1866 0.6692 0.9296 0.0420 Uiso
H20 H 0.0401 0.7125 0.8815 0.0420 Uiso
C24 C 0.0388(4) 0.8628(3) 0.9773(3) 0.0266 Uani
C26 C 0.0601(4) 0.9531(4) 0.8787(3) 0.0269 Uani
C27 C 0.1223(5) 0.9031(4) 0.7482(3) 0.0422 Uani
H22 H 0.0477 0.8919 0.7160 0.0510 Uiso
H23 H 0.2024 0.8132 0.7525 0.0510 Uiso
C30 C 0.3110(5) 0.9923(4) 0.6422(4) 0.0467 Uani
H26 H 0.3892 0.9307 0.6792 0.0560 Uiso
N7 N 0.1745(3) 0.9936(3) 0.6610(3) 0.0332 Uani
C4 C 0.9188(5) 0.2856(4) 0.0478(3) 0.0353 Uani
H4 H 0.8134 0.3308 0.0704 0.0420 Uiso
H5 H 0.9599 0.2875 0.1185 0.0420 Uiso
C5 C 0.9612(4) 0.1372(3) 0.0227(3) 0.0266 Uani
C7 C 0.9399(4) 0.0469(4) 0.1213(3) 0.0269 Uani
C8 C 0.8777(5) 0.0969(4) 0.2518(3) 0.0422 Uani
H7 H 0.9523 0.1081 0.2840 0.0510 Uiso
H8 H 0.7976 0.1868 0.2475 0.0510 Uiso
C11 C 0.6890(5) 0.0077(4) 0.3578(4) 0.0467 Uani
H11 H 0.6108 0.0693 0.3208 0.0560 Uiso
N3 N 0.8255(3) 0.0064(3) 0.3390(3) 0.0332 Uani
loop_
_atom_site_aniso_label
_atom_site_aniso_U_11
_atom_site_aniso_U_22
_atom_site_aniso_U_33
_atom_site_aniso_U_23
_atom_site_aniso_U_13
_atom_site_aniso_U_12
C1 0.035 0.038 0.039 0.0014 -0.0055 -0.0163
C2 0.044 0.033 0.038 0.0039 -0.0177 -0.0152
C6 0.036 0.026 0.0203 0.0032 -0.0003 -0.0131
Mn4 0.014 0.023 0.02 -0.002 0 -0.005
C28 0.029 0.04 0.0256 -0.0048 0.0001 -0.0117
C29 0.035 0.057 0.054 0.013 -0.006 -0.018
N8 0.024 0.0396 0.0317 0.0076 -0.002 -0.0076
O6 0.0159 0.0413 0.0495 0.0003 0.0013 -0.0064
C22 0.034 0.03 0.035 -0.0009 -0.0083 -0.0113
N5 0.0319 0.0335 0.0333 0.0002 -0.0077 -0.0124
N6 0.0402 0.0225 0.024 -0.0031 -0.0021 -0.0112
O9 0.0416 0.071 0.06 -0.0195 -0.0126 -0.0332
O11 0.0402 0.0465 0.0356 -0.0159 0.0014 -0.0097
O13 0.0309 0.0536 0.0442 -0.0167 0.0081 -0.0094
C31 0.036 0.032 0.0229 -0.0033 -0.0041 -0.0009
C32 0.028 0.034 0.03 -0.0067 -0.002 0.0005
C33 0.024 0.051 0.044 -0.018 0.0057 -0.009
C34 0.034 0.051 0.041 -0.019 -0.0045 -0.01
C3 0.034 0.03 0.035 -0.0009 -0.0083 -0.0113
Mn1 0.014 0.023 0.02 -0.002 0 -0.005
C12 0.036 0.032 0.0229 -0.0033 -0.0041 -0.0009
C13 0.028 0.034 0.03 -0.0067 -0.002 0.0005
C14 0.024 0.051 0.044 -0.018 0.0057 -0.009
C15 0.034 0.051 0.041 -0.019 -0.0045 -0.01
C16 0.0214 0.045 0.0257 0.0037 -0.0018 -0.0145
C17 0.0179 0.037 0.0272 -0.013 0.0045 -0.0115
C18 0.0196 0.037 0.056 -0.029 0.0046 -0.004
C19 0.026 0.041 0.054 -0.0267 0.0008 -0.0148
N1 0.0319 0.0335 0.0333 0.0002 -0.0077 -0.0124
N2 0.0402 0.0225 0.024 -0.0031 -0.0021 -0.0112
O1 0.0159 0.0413 0.0495 0.0003 0.0013 -0.0064
O2 0.0416 0.071 0.06 -0.0195 -0.0126 -0.0332
O3 0.0402 0.0465 0.0356 -0.0159 0.0014 -0.0097
O4 0.0309 0.0536 0.0442 -0.0167 0.0081 -0.0094
C35 0.0214 0.045 0.0257 0.0037 -0.0018 -0.0145
C36 0.0179 0.037 0.0272 -0.013 0.0045 -0.0115
C37 0.0196 0.037 0.056 -0.029 0.0046 -0.004
C38 0.026 0.041 0.054 -0.0267 0.0008 -0.0148
N9 0.024 0.0396 0.0317 0.0076 -0.002 -0.0076
C9 0.029 0.04 0.0256 -0.0048 0.0001 -0.0117
C10 0.035 0.057 0.054 0.013 -0.006 -0.018
C20 0.035 0.038 0.039 0.0014 -0.0055 -0.0163
C21 0.044 0.033 0.038 0.0039 -0.0177 -0.0152
C25 0.036 0.026 0.0203 0.0032 -0.0003 -0.0131
C23 0.048 0.0285 0.0242 -0.0016 0.0018 -0.0148
C24 0.0294 0.0235 0.0245 -0.0032 0 -0.0103
C26 0.029 0.0279 0.0213 -0.0038 -0.0005 -0.0104
C27 0.069 0.028 0.028 -0.0044 0.003 -0.023
C30 0.037 0.049 0.04 0.012 -0.0061 -0.009
N7 0.042 0.0279 0.0195 -0.0019 0.0034 -0.0089
C4 0.048 0.0285 0.0242 -0.0016 0.0018 -0.0148
C5 0.0294 0.0235 0.0245 -0.0032 0 -0.0103
C7 0.029 0.0279 0.0213 -0.0038 -0.0005 -0.0104
C8 0.069 0.028 0.028 -0.0044 0.003 -0.023
C11 0.037 0.049 0.04 0.012 -0.0061 -0.009
N3 0.042 0.0279 0.0195 -0.0019 0.0034 -0.0089
loop_
_geom_bond_atom_site_label_1
_geom_bond_atom_site_label_2
_geom_bond_site_symmetry_1
_geom_bond_site_symmetry_2
C1 H1 1_555 1_555
C2 C1 1_555 1_555
H2 C2 1_555 1_555
H6 C6 1_555 1_555
C28 H24 1_555 1_555
C29 H25 1_555 1_555
N8 Mn4 1_555 1_555
C28 N8 1_555 1_555
C29 N8 1_555 1_555
C22 H18 1_555 1_555
Mn4 N5 1_555 1_555
O9 Mn4 1_555 1_555
O11 Mn4 1_555 1_555
O13 Mn4 1_555 1_555
C22 N5 1_555 1_555
C22 N6 1_555 1_555
C31 C32 1_555 1_555
C32 C33 1_555 1_555
H27 C33 1_555 1_555
H28 C34 1_555 1_555
O11 C31 1_555 1_555
C31 O13 1_555 1_555
C32 C34 1_555 1_555
C3 H3 1_555 1_555
Mn1 N1 1_555 1_555
C12 C13 1_555 1_555
C13 C14 1_555 1_555
C14 H12 1_555 1_555
C15 C13 1_555 1_555
H13 C15 1_555 1_555
C16 C17 1_555 1_555
C17 C18 1_555 1_555
C18 H14 1_555 1_555
C19 C17 1_555 1_555
H15 C19 1_555 1_555
O1 C16 1_555 1_555
O2 Mn1 1_555 1_555
O3 Mn1 1_555 1_555
O4 Mn1 1_555 1_555
C35 C36 1_555 1_555
C36 C37 1_555 1_555
C37 C19 1_555 1_555
H29 C37 1_555 1_555
C38 C18 1_555 1_555
H30 C38 1_555 1_555
N9 Mn1 1_555 1_555
O6 C35 1_555 1_555
O9 C35 1_555 1_555
C3 N1 1_555 1_555
C3 N2 1_555 1_555
C12 O3 1_555 1_555
C12 O4 1_555 1_555
C16 O2 1_555 1_555
C36 C38 1_555 1_555
C9 H9 1_555 1_555
C10 H10 1_555 1_555
N9 C9 1_555 1_555
C20 H16 1_555 1_555
C21 C20 1_555 1_555
H17 C21 1_555 1_555
H21 C25 1_555 1_555
C10 N9 1_555 1_555
C23 H19 1_555 1_555
H20 C23 1_555 1_555
C24 C23 1_555 1_555
C27 C26 1_555 1_555
H22 C27 1_555 1_555
H23 C27 1_555 1_555
H26 C30 1_555 1_555
N7 C27 1_555 1_555
C24 C26 1_555 1_555
C30 N7 1_555 1_555
C4 H4 1_555 1_555
H5 C4 1_555 1_555
C5 C4 1_555 1_555
C7 C5 1_555 1_555
C8 C7 1_555 1_555
H7 C8 1_555 1_555
H8 C8 1_555 1_555
H11 C11 1_555 1_555
N3 C8 1_555 1_555
C11 N3 1_555 1_555

#END
