
###############################################################################
#
# This file contains modified crystal structure data generated from the
# MOF subset of the Cambridge Structural Database (CSD) v543 
# hosted by the Cambridge Crystallographic Data Centre (CCDC).
#
# This work is licensed under the Creative Commons
# Attribution-NonCommercial-ShareAlike 4.0 International License.
# To view a copy of this license, visit
# http://creativecommons.org/licenses/by-nc-sa/4.0/
# or send a letter to
# Creative Commons, PO Box 1866, Mountain View, CA 94042, USA.
#
# CIF created using the CSD Python API on 29 September 2022
# The structure has been converted into the P1 space group
# The structure has a 3D framework
# The original CSD entry GALCAZ is in the monoclinic crystal system
# The framework has been calculated to contain at least 10.0% void space
# The void calculation uses a probe of radius 1.32A, grid spacing 0.4
# H atom positions have been added when not included in the experimental data
#
###############################################################################

data_GALCAZ
_chemical_formula_moiety         '(C132 H92 N24 O28 Zn8)n'
_symmetry_cell_setting           triclinic
_symmetry_space_group_name_H-M   'P 1'
_symmetry_Int_Tables_number      1
_space_group_name_Hall           'P 1'
loop_
_symmetry_equiv_pos_site_id
_symmetry_equiv_pos_as_xyz
1 x,y,z
_cell_length_a                   6.1802(4)
_cell_length_b                   29.4218(18)
_cell_length_c                   23.3127(14)
_cell_angle_alpha                90
_cell_angle_beta                 95.6630(10)
_cell_angle_gamma                90
_cell_volume                     4218.32
loop_
_atom_site_label
_atom_site_type_symbol
_atom_site_fract_x
_atom_site_fract_y
_atom_site_fract_z
Zn2 Zn 0.52028(11) 0.46090(2) 0.24726(3)
C5 C 0.0549(11) 0.2405(2) 0.2325(3)
H2 H 0.1920 0.2400 0.2173
H3 H 0.0035 0.1726 0.2298
C7 C 0.0799(10) 0.3248(2) 0.2428(3)
C8 C 0.0092(10) 0.3648(2) 0.2680(3)
C9 C 0.1301(9) 0.40415(19) 0.2667(2)
H5 H 0.0816 0.4306 0.2850
C10 C 0.3755(11) 0.3690(2) 0.2134(3)
H6 H 0.5006 0.3708 0.1929
C11 C 0.2679(10) 0.3282(2) 0.2135(3)
H7 H 0.3196 0.3026 0.1941
N2 N 0.3147(8) 0.40632(16) 0.2404(2)
O8 O 0.6716(7) 0.44333(14) 0.17987(16)
O9 O 0.7136(7) 0.45188(14) 0.31855(16)
O10 O 0.3829(8) 0.51800(14) 0.2285(2)
H23 H 0.277(14) 0.522(3) 0.216(4)
H24 H 0.477683 0.532825 0.202013
Zn1 Zn 0.52453(11) 0.57625(2) 0.23077(3)
C1 C 0.3936(10) 0.6611(2) 0.2346(2)
C2 C 0.2574(10) 0.7024(2) 0.2400(3)
C3 C 0.3329(11) 0.7451(2) 0.2250(3)
H1 H 0.4704 0.7467 0.2101
C4 C 0.0341(10) 0.7807(2) 0.2521(3)
C6 C 0.0573(10) 0.7009(2) 0.2607(3)
H4 H 0.1222 0.8647 0.2141
C18 C 0.8390(9) 0.5701(2) 0.0500(2)
C19 C 0.6412(10) 0.5508(2) 0.0592(2)
H11 H 0.5599 0.5351 0.0286
C20 C 0.5614(10) 0.5540(2) 0.1114(2)
H12 H 0.4269 0.5397 0.1165
C21 C 0.8537(10) 0.5956(2) 0.1474(3)
H13 H 0.9288 0.6119 0.1784
C22 C 0.9467(10) 0.5932(2) 0.0959(2)
H15 H 0.9838 0.5608 0.6022
C29 C 0.9590(10) 0.5676(2) 0.4133(3)
C30 C 0.7617(12) 0.5910(3) 0.4061(3)
H18 H 0.7039 0.6049 0.4381
C31 C 0.6532(12) 0.5937(3) 0.3522(3)
H19 H 0.5181 0.6093 0.3480
C32 C 0.9160(10) 0.5538(2) 0.3124(3)
H20 H 0.9712 0.5407 0.2796
N1 N 0.2254(9) 0.78310(17) 0.2301(3)
N4 N 0.6647(8) 0.57642(15) 0.1558(2)
N5 N 0.9625(9) 0.5661(2) 0.5176(2)
N6 N 0.7255(8) 0.57576(16) 0.3052(2)
O1 O 0.3006(7) 0.62280(13) 0.23960(17)
O2 O 0.5877(7) 0.66504(15) 0.2260(2)
C12 C 0.8437(9) 0.46350(19) 0.1681(2)
C13 C 0.9231(9) 0.45071(19) 0.1113(2)
C16 C 0.8705(10) 0.4185(2) 0.0174(3)
C17 C 0.7945(10) 0.4272(2) 0.0697(3)
H10 H 0.6540 0.4171 0.0772
O3 O 0.9450(7) 0.49212(14) 0.19889(17)
H9 H 0.7851 0.4016 0.9888
H14 H 0.9169 0.3928 0.9078
C23 C 0.6008(10) 0.4578(2) 0.3614(2)
C24 C 0.7180(10) 0.4507(2) 0.4205(3)
C25 C 0.9343(11) 0.4410(2) 0.4301(3)
C26 C 0.9228(10) 0.4380(2) 0.5285(3)
C27 C 0.7077(12) 0.4461(4) 0.5220(3)
H16 H 0.6279 0.4475 0.5547
C28 C 0.6046(13) 0.4524(4) 0.4680(3)
H17 H 0.4525 0.4580 0.4634
C33 C 0.9655(10) 0.4504(2) 0.6353(3)
H21 H 0.8302 0.4660 0.6325
O6 O 0.4072(7) 0.46815(17) 0.35690(19)
Zn1_2 Zn 0.47547(11) 0.07625(2) 0.26923(3)
C1_2 C 0.6064(10) 0.1611(2) 0.2654(2)
C2_2 C 0.7426(10) 0.2024(2) 0.2600(3)
C3_2 C 0.6671(11) 0.2451(2) 0.2750(3)
H1_2 H 0.5296 0.2467 0.2899
C4_2 C 0.9659(10) 0.2807(2) 0.2479(3)
C6_2 C 0.9427(10) 0.2009(2) 0.2393(3)
H4_2 H 0.8778 0.3647 0.2859
C14 C 0.1295(10) 0.0370(2) 0.5987(2)
H8 H 0.2233 0.0229 0.6282
C15 C 0.0731(10) 0.0653(2) 0.5070(2)
C18_2 C 0.1610(9) 0.0701(2) 0.4500(2)
C19_2 C 0.3588(10) 0.0508(2) 0.4408(2)
H11_2 H 0.4401 0.0351 0.4714
C20_2 C 0.4386(10) 0.0540(2) 0.3886(2)
H12_2 H 0.5731 0.0397 0.3835
C21_2 C 0.1463(10) 0.0956(2) 0.3526(3)
H13_2 H 0.0712 0.1119 0.3216
C22_2 C 0.0533(10) 0.0932(2) 0.4041(2)
C29_2 C 0.0410(10) 0.0676(2) 0.0867(3)
C30_2 C 0.2383(12) 0.0910(3) 0.0939(3)
H18_2 H 0.2961 0.1049 0.0619
C31_2 C 0.3468(12) 0.0937(3) 0.1478(3)
H19_2 H 0.4819 0.1093 0.1520
C32_2 C 0.0840(10) 0.0538(2) 0.1876(3)
H20_2 H 0.0288 0.0407 0.2204
N1_2 N 0.7746(9) 0.28310(17) 0.2699(3)
N3 N 0.2045(8) 0.04394(19) 0.5477(2)
N4_2 N 0.3353(8) 0.07642(15) 0.3442(2)
N6_2 N 0.2745(8) 0.07576(16) 0.1948(2)
O1_2 O 0.6994(7) 0.12280(13) 0.26040(17)
O2_2 O 0.4123(7) 0.16504(15) 0.2740(2)
O7 O 0.6171(8) 0.01800(14) 0.2715(2)
H22 H 0.723(14) 0.022(3) 0.284(4)
H24_2 H 0.522317 0.0328247 0.297987
H15_2 H 0.0162 0.0608 0.8978
N5_2 N 0.0375(9) 0.0661(2) 0.9824(2)
Zn5 Zn 0.47972(11) 0.96090(2) 0.25274(3)
C5_2 C 0.9451(11) 0.7405(2) 0.2675(3)
H2_2 H 0.8080 0.7400 0.2827
H3_2 H 0.9965 0.6726 0.2702
C7_2 C 0.9201(10) 0.8248(2) 0.2572(3)
C8_2 C 0.9908(10) 0.8648(2) 0.2320(3)
C9_2 C 0.8699(9) 0.90415(19) 0.2333(2)
H5_2 H 0.9184 0.9306 0.2150
C10_2 C 0.6245(11) 0.8690(2) 0.2866(3)
H6_2 H 0.4994 0.8708 0.3071
C11_2 C 0.7321(10) 0.8282(2) 0.2865(3)
H7_2 H 0.6804 0.8026 0.3059
N2_2 N 0.6853(8) 0.90632(16) 0.2596(2)
O8_2 O 0.3284(7) 0.94333(14) 0.32013(16)
O9_2 O 0.2864(7) 0.95188(14) 0.18145(16)
C23_2 C 0.3992(10) 0.9578(2) 0.1386(2)
C24_2 C 0.2820(10) 0.9507(2) 0.0795(3)
C25_2 C 0.0657(11) 0.9410(2) 0.0699(3)
C28_2 C 0.3954(13) 0.9524(4) 0.0320(3)
H17_2 H 0.5475 0.9580 0.0366
O6_2 O 0.5928(7) 0.96815(17) 0.14310(19)
C12_2 C 0.1563(9) 0.96350(19) 0.3319(2)
C13_2 C 0.0769(9) 0.95071(19) 0.3887(2)
C16_2 C 0.1295(10) 0.9185(2) 0.4826(3)
H9_2 H 0.2149 0.9016 0.5112
C17_2 C 0.2055(10) 0.9272(2) 0.4303(3)
H10_2 H 0.3460 0.9171 0.4228
H14_2 H 0.0831 0.8928 0.5922
C26_2 C 0.0772(10) 0.9380(2) 0.9715(3)
C27_2 C 0.2923(12) 0.9461(4) 0.9780(3)
H16_2 H 0.3721 0.9475 0.9453
C33_2 C 0.0345(10) 0.9504(2) 0.8647(3)
H21_2 H 0.1698 0.9660 0.8675
O3_2 O 0.0550(7) 0.99212(14) 0.30111(17)
C12_3 C 0.8437(9) 0.03650(19) 0.6681(2)
C13_3 C 0.9231(9) 0.04929(19) 0.6113(2)
C16_3 C 0.8705(10) 0.0815(2) 0.5174(3)
H9_3 H 0.7851 0.0984 0.4888
C17_3 C 0.7945(10) 0.0728(2) 0.5697(3)
H10_3 H 0.6540 0.0829 0.5772
H14_3 H 0.9169 0.1072 0.4078
C26_3 C 0.9228(10) 0.0620(2) 0.0285(3)
C27_3 C 0.7077(12) 0.0539(4) 0.0220(3)
H16_3 H 0.6279 0.0525 0.0547
C33_3 C 0.9655(10) 0.0496(2) 0.1353(3)
H21_3 H 0.8302 0.0340 0.1325
O3_3 O 0.9450(7) 0.00788(14) 0.69889(17)
O4 O 0.6716(7) 0.05667(14) 0.67987(16)
Zn3 Zn 0.52028(11) 0.03910(2) 0.74726(3)
C23_3 C 0.6008(10) 0.0422(2) 0.8614(2)
C24_3 C 0.7180(10) 0.0493(2) 0.9205(3)
C25_3 C 0.9343(11) 0.0590(2) 0.9301(3)
C28_3 C 0.6046(13) 0.0476(4) 0.9680(3)
H17_3 H 0.4525 0.0420 0.9634
O5 O 0.7136(7) 0.04812(14) 0.81855(16)
O6_3 O 0.4072(7) 0.03185(17) 0.85690(19)
C5_3 C 0.0549(11) 0.2595(2) 0.7325(3)
H2_3 H 0.1920 0.2600 0.7173
H3_3 H 0.0035 0.3274 0.7298
C7_3 C 0.0799(10) 0.1752(2) 0.7428(3)
C8_3 C 0.0092(10) 0.1352(2) 0.7680(3)
C9_3 C 0.1301(9) 0.09585(19) 0.7667(2)
H5_3 H 0.0816 0.0694 0.7850
C10_3 C 0.3755(11) 0.1310(2) 0.7134(3)
H6_3 H 0.5006 0.1292 0.6929
C11_3 C 0.2679(10) 0.1718(2) 0.7135(3)
H7_3 H 0.3196 0.1974 0.6941
N2_3 N 0.3147(8) 0.09368(16) 0.7404(2)
H9_4 H 0.2149 0.5984 0.0112
H14_4 H 0.0831 0.6072 0.0922
C23_4 C 0.3992(10) 0.5422(2) 0.6386(2)
C24_4 C 0.2820(10) 0.5493(2) 0.5795(3)
C25_4 C 0.0657(11) 0.5590(2) 0.5699(3)
C26_4 C 0.0772(10) 0.5620(2) 0.4715(3)
C27_4 C 0.2923(12) 0.5539(4) 0.4780(3)
H16_4 H 0.3721 0.5525 0.4453
C28_4 C 0.3954(13) 0.5476(4) 0.5320(3)
H17_4 H 0.5475 0.5420 0.5366
C33_4 C 0.0345(10) 0.5496(2) 0.3647(3)
H21_4 H 0.1698 0.5340 0.3675
O5_2 O 0.2864(7) 0.54812(14) 0.68145(16)
O6_4 O 0.5928(7) 0.53185(17) 0.64310(19)
Zn4 Zn 0.47972(11) 0.53910(2) 0.75274(3)
C12_4 C 0.1563(9) 0.53650(19) 0.8319(2)
C13_4 C 0.0769(9) 0.54929(19) 0.8887(2)
C16_4 C 0.1295(10) 0.5815(2) 0.9826(3)
C17_4 C 0.2055(10) 0.5728(2) 0.9303(3)
H10_4 H 0.3460 0.5829 0.9228
O3_4 O 0.0550(7) 0.50788(14) 0.80111(17)
O4_2 O 0.3284(7) 0.55667(14) 0.82013(16)
C5_4 C 0.9451(11) 0.7595(2) 0.7675(3)
H2_4 H 0.8080 0.7600 0.7827
H3_4 H 0.9965 0.8274 0.7702
C7_4 C 0.9201(10) 0.6752(2) 0.7572(3)
C8_4 C 0.9908(10) 0.6352(2) 0.7320(3)
C9_4 C 0.8699(9) 0.59585(19) 0.7333(2)
H5_4 H 0.9184 0.5694 0.7150
C10_4 C 0.6245(11) 0.6310(2) 0.7866(3)
H6_4 H 0.4994 0.6292 0.8071
C11_4 C 0.7321(10) 0.6718(2) 0.7865(3)
H7_4 H 0.6804 0.6974 0.8059
N2_4 N 0.6853(8) 0.59368(16) 0.7596(2)
O10_2 O 0.6171(8) 0.48200(14) 0.7715(2)
H23_2 H 0.723(14) 0.478(3) 0.784(4)
H24_3 H 0.522317 0.467175 0.797987
Zn1_3 Zn 0.47547(11) 0.42375(2) 0.76923(3)
C1_3 C 0.6064(10) 0.3389(2) 0.7654(2)
C2_3 C 0.7426(10) 0.2976(2) 0.7600(3)
C3_3 C 0.6671(11) 0.2549(2) 0.7750(3)
H1_3 H 0.5296 0.2533 0.7899
C4_3 C 0.9659(10) 0.2193(2) 0.7479(3)
C6_3 C 0.9427(10) 0.2991(2) 0.7393(3)
H4_3 H 0.8778 0.1353 0.7859
C18_3 C 0.1610(9) 0.4299(2) 0.9500(2)
C19_3 C 0.3588(10) 0.4492(2) 0.9408(2)
H11_3 H 0.4401 0.4649 0.9714
C20_3 C 0.4386(10) 0.4460(2) 0.8886(2)
H12_3 H 0.5731 0.4603 0.8835
C21_3 C 0.1463(10) 0.4044(2) 0.8526(3)
H13_3 H 0.0712 0.3881 0.8216
C22_3 C 0.0533(10) 0.4068(2) 0.9041(2)
H15_3 H 0.0162 0.4392 0.3978
C29_3 C 0.0410(10) 0.4324(2) 0.5867(3)
C30_3 C 0.2383(12) 0.4090(3) 0.5939(3)
H18_3 H 0.2961 0.3951 0.5619
C31_3 C 0.3468(12) 0.4063(3) 0.6478(3)
H19_3 H 0.4819 0.3907 0.6520
C32_3 C 0.0840(10) 0.4462(2) 0.6876(3)
H20_3 H 0.0288 0.4593 0.7204
N1_3 N 0.7746(9) 0.21690(17) 0.7699(3)
N4_3 N 0.3353(8) 0.42358(15) 0.8442(2)
N5_3 N 0.0375(9) 0.4339(2) 0.4824(2)
N6_3 N 0.2745(8) 0.42424(16) 0.6948(2)
O1_3 O 0.6994(7) 0.37720(13) 0.76040(17)
O2_3 O 0.4123(7) 0.33496(15) 0.7740(2)
C14_2 C 0.8705(10) 0.5370(2) 0.9013(2)
H8_2 H 0.7767 0.5229 0.8718
C15_2 C 0.9269(10) 0.5653(2) 0.9930(2)
N3_2 N 0.7955(8) 0.54394(19) 0.9523(2)
H15_4 H 0.9838 0.9392 0.1022
N5_4 N 0.9625(9) 0.9339(2) 0.0176(2)
Zn1_4 Zn 0.52453(11) 0.92375(2) 0.73077(3)
C1_4 C 0.3936(10) 0.8389(2) 0.7346(2)
C2_4 C 0.2574(10) 0.7976(2) 0.7400(3)
C3_4 C 0.3329(11) 0.7549(2) 0.7250(3)
H1_4 H 0.4704 0.7533 0.7101
C4_4 C 0.0341(10) 0.7193(2) 0.7521(3)
C6_4 C 0.0573(10) 0.7991(2) 0.7607(3)
H4_4 H 0.1222 0.6353 0.7141
C14_3 C 0.8705(10) 0.9630(2) 0.4013(2)
H8_3 H 0.7767 0.9771 0.3718
C15_3 C 0.9269(10) 0.9347(2) 0.4930(2)
C18_4 C 0.8390(9) 0.9299(2) 0.5500(2)
C19_4 C 0.6412(10) 0.9492(2) 0.5592(2)
H11_4 H 0.5599 0.9649 0.5286
C20_4 C 0.5614(10) 0.9460(2) 0.6114(2)
H12_4 H 0.4269 0.9603 0.6165
C21_4 C 0.8537(10) 0.9044(2) 0.6474(3)
H13_4 H 0.9288 0.8881 0.6784
C22_4 C 0.9467(10) 0.9068(2) 0.5959(2)
C29_4 C 0.9590(10) 0.9324(2) 0.9133(3)
C30_4 C 0.7617(12) 0.9090(3) 0.9061(3)
H18_4 H 0.7039 0.8951 0.9381
C31_4 C 0.6532(12) 0.9063(3) 0.8522(3)
H19_4 H 0.5181 0.8907 0.8480
C32_4 C 0.9160(10) 0.9462(2) 0.8124(3)
H20_4 H 0.9712 0.9593 0.7796
N1_4 N 0.2254(9) 0.71690(17) 0.7301(3)
N3_3 N 0.7955(8) 0.95606(19) 0.4523(2)
N4_4 N 0.6647(8) 0.92358(15) 0.6558(2)
N6_4 N 0.7255(8) 0.92424(16) 0.8052(2)
O1_4 O 0.3006(7) 0.87720(13) 0.73960(17)
O2_4 O 0.5877(7) 0.83496(15) 0.7260(2)
O7_2 O 0.3829(8) 0.98200(14) 0.7285(2)
H22_2 H 0.277(14) 0.978(3) 0.716(4)
H24_4 H 0.477683 0.967175 0.702013
C14_4 C 0.1295(10) 0.4630(2) 0.0987(2)
H8_4 H 0.2233 0.4771 0.1282
C15_4 C 0.0731(10) 0.4347(2) 0.0070(2)
N3_4 N 0.2045(8) 0.45606(19) 0.0477(2)
loop_
_geom_bond_atom_site_label_1
_geom_bond_atom_site_label_2
_geom_bond_site_symmetry_1
_geom_bond_site_symmetry_2
Zn2 N2 1_555 1_555
C5 H2 1_555 1_555
C8 C7 1_555 1_555
C9 C8 1_555 1_555
H5 C9 1_555 1_555
C10 H6 1_555 1_555
C11 C7 1_555 1_555
H7 C11 1_555 1_555
N2 C9 1_555 1_555
O8 Zn2 1_555 1_555
O9 Zn2 1_555 1_555
O10 Zn2 1_555 1_555
H23 O10 1_555 1_555
C10 C11 1_555 1_555
C10 N2 1_555 1_555
O10 H24 1_555 1_555
Zn1 N4 1_555 1_555
C1 C2 1_555 1_555
C2 C3 1_555 1_555
C3 H1 1_555 1_555
C6 C2 1_555 1_555
C19 C18 1_555 1_555
H11 C19 1_555 1_555
C20 C19 1_555 1_555
H12 C20 1_555 1_555
C21 H13 1_555 1_555
C22 C18 1_555 1_555
C30 C29 1_555 1_555
H18 C30 1_555 1_555
C31 C30 1_555 1_555
H19 C31 1_555 1_555
C32 H20 1_555 1_555
N1 C3 1_555 1_555
N4 C20 1_555 1_555
N6 Zn1 1_555 1_555
O1 Zn1 1_555 1_555
O2 C1 1_555 1_555
O10 Zn1 1_555 1_555
C1 O1 1_555 1_555
C4 N1 1_555 1_555
C21 C22 1_555 1_555
C21 N4 1_555 1_555
C31 N6 1_555 1_555
C32 N6 1_555 1_555
C12 C13 1_555 1_555
C17 C13 1_555 1_555
H10 C17 1_555 1_555
O3 C12 1_555 1_555
O8 C12 1_555 1_555
C16 C17 1_555 1_555
C23 C24 1_555 1_555
C24 C25 1_555 1_555
C26 C27 1_555 1_555
C27 H16 1_555 1_555
C28 C24 1_555 1_555
H17 C28 1_555 1_555
H21 C33 1_555 1_555
O9 C23 1_555 1_555
O6 C23 1_555 1_555
C27 C28 1_555 1_555
Zn1_2 N4_2 1_555 1_555
C1_2 C2_2 1_555 1_555
C2_2 C3_2 1_555 1_555
C3_2 H1_2 1_555 1_555
C6_2 C2_2 1_555 1_555
C14 H8 1_555 1_555
C18_2 C15 1_555 1_555
C19_2 C18_2 1_555 1_555
H11_2 C19_2 1_555 1_555
C20_2 C19_2 1_555 1_555
H12_2 C20_2 1_555 1_555
C21_2 H13_2 1_555 1_555
C22_2 C18_2 1_555 1_555
C30_2 C29_2 1_555 1_555
H18_2 C30_2 1_555 1_555
C31_2 C30_2 1_555 1_555
H19_2 C31_2 1_555 1_555
C32_2 H20_2 1_555 1_555
N1_2 C3_2 1_555 1_555
N3 C14 1_555 1_555
N4_2 C20_2 1_555 1_555
N6_2 Zn1_2 1_555 1_555
O1_2 Zn1_2 1_555 1_555
O2_2 C1_2 1_555 1_555
O7 Zn1_2 1_555 1_555
H22 O7 1_555 1_555
C1_2 O1_2 1_555 1_555
C4_2 N1_2 1_555 1_555
C15 N3 1_555 1_555
C21_2 C22_2 1_555 1_555
C21_2 N4_2 1_555 1_555
C31_2 N6_2 1_555 1_555
C32_2 N6_2 1_555 1_555
O7 H24_2 1_555 1_555
Zn5 N2_2 1_555 1_555
C5_2 H2_2 1_555 1_555
C8_2 C7_2 1_555 1_555
C9_2 C8_2 1_555 1_555
H5_2 C9_2 1_555 1_555
C10_2 H6_2 1_555 1_555
C11_2 C7_2 1_555 1_555
H7_2 C11_2 1_555 1_555
N2_2 C9_2 1_555 1_555
O8_2 Zn5 1_555 1_555
O9_2 Zn5 1_555 1_555
C10_2 C11_2 1_555 1_555
C10_2 N2_2 1_555 1_555
C23_2 C24_2 1_555 1_555
C24_2 C25_2 1_555 1_555
C28_2 C24_2 1_555 1_555
H17_2 C28_2 1_555 1_555
O9_2 C23_2 1_555 1_555
O6_2 C23_2 1_555 1_555
C12_2 C13_2 1_555 1_555
C16_2 H9_2 1_555 1_555
C17_2 C13_2 1_555 1_555
H10_2 C17_2 1_555 1_555
C26_2 C27_2 1_555 1_555
C27_2 H16_2 1_555 1_555
H21_2 C33_2 1_555 1_555
O3_2 C12_2 1_555 1_555
O8_2 C12_2 1_555 1_555
C16_2 C17_2 1_555 1_555
C12_3 C13_3 1_555 1_555
C16_3 H9_3 1_555 1_555
C17_3 C13_3 1_555 1_555
H10_3 C17_3 1_555 1_555
C26_3 C27_3 1_555 1_555
C27_3 H16_3 1_555 1_555
H21_3 C33_3 1_555 1_555
O3_3 C12_3 1_555 1_555
O4 C12_3 1_555 1_555
Zn3 O4 1_555 1_555
C16_3 C17_3 1_555 1_555
C23_3 C24_3 1_555 1_555
C24_3 C25_3 1_555 1_555
C28_3 C24_3 1_555 1_555
H17_3 C28_3 1_555 1_555
O5 C23_3 1_555 1_555
O6_3 C23_3 1_555 1_555
Zn3 O5 1_555 1_555
Zn3 N2_3 1_555 1_555
C5_3 H2_3 1_555 1_555
C8_3 C7_3 1_555 1_555
C9_3 C8_3 1_555 1_555
H5_3 C9_3 1_555 1_555
C10_3 H6_3 1_555 1_555
C11_3 C7_3 1_555 1_555
H7_3 C11_3 1_555 1_555
N2_3 C9_3 1_555 1_555
C10_3 C11_3 1_555 1_555
C10_3 N2_3 1_555 1_555
C23_4 C24_4 1_555 1_555
C24_4 C25_4 1_555 1_555
C26_4 C27_4 1_555 1_555
C27_4 H16_4 1_555 1_555
C28_4 C24_4 1_555 1_555
H17_4 C28_4 1_555 1_555
H21_4 C33_4 1_555 1_555
O5_2 C23_4 1_555 1_555
O6_4 C23_4 1_555 1_555
Zn4 O5_2 1_555 1_555
C27_4 C28_4 1_555 1_555
C12_4 C13_4 1_555 1_555
C17_4 C13_4 1_555 1_555
H10_4 C17_4 1_555 1_555
O3_4 C12_4 1_555 1_555
O4_2 C12_4 1_555 1_555
Zn4 O4_2 1_555 1_555
C16_4 C17_4 1_555 1_555
Zn4 N2_4 1_555 1_555
C5_4 H2_4 1_555 1_555
C8_4 C7_4 1_555 1_555
C9_4 C8_4 1_555 1_555
H5_4 C9_4 1_555 1_555
C10_4 H6_4 1_555 1_555
C11_4 C7_4 1_555 1_555
H7_4 C11_4 1_555 1_555
N2_4 C9_4 1_555 1_555
O10_2 Zn4 1_555 1_555
H23_2 O10_2 1_555 1_555
C10_4 C11_4 1_555 1_555
C10_4 N2_4 1_555 1_555
O10_2 H24_3 1_555 1_555
Zn1_3 N4_3 1_555 1_555
C1_3 C2_3 1_555 1_555
C2_3 C3_3 1_555 1_555
C3_3 H1_3 1_555 1_555
C6_3 C2_3 1_555 1_555
C19_3 C18_3 1_555 1_555
H11_3 C19_3 1_555 1_555
C20_3 C19_3 1_555 1_555
H12_3 C20_3 1_555 1_555
C21_3 H13_3 1_555 1_555
C22_3 C18_3 1_555 1_555
C30_3 C29_3 1_555 1_555
H18_3 C30_3 1_555 1_555
C31_3 C30_3 1_555 1_555
H19_3 C31_3 1_555 1_555
C32_3 H20_3 1_555 1_555
N1_3 C3_3 1_555 1_555
N4_3 C20_3 1_555 1_555
N6_3 Zn1_3 1_555 1_555
O1_3 Zn1_3 1_555 1_555
O2_3 C1_3 1_555 1_555
O10_2 Zn1_3 1_555 1_555
C1_3 O1_3 1_555 1_555
C4_3 N1_3 1_555 1_555
C21_3 C22_3 1_555 1_555
C21_3 N4_3 1_555 1_555
C31_3 N6_3 1_555 1_555
C32_3 N6_3 1_555 1_555
C14_2 H8_2 1_555 1_555
N3_2 C14_2 1_555 1_555
C15_2 N3_2 1_555 1_555
Zn1_4 N4_4 1_555 1_555
C1_4 C2_4 1_555 1_555
C2_4 C3_4 1_555 1_555
C3_4 H1_4 1_555 1_555
C6_4 C2_4 1_555 1_555
C14_3 H8_3 1_555 1_555
C18_4 C15_3 1_555 1_555
C19_4 C18_4 1_555 1_555
H11_4 C19_4 1_555 1_555
C20_4 C19_4 1_555 1_555
H12_4 C20_4 1_555 1_555
C21_4 H13_4 1_555 1_555
C22_4 C18_4 1_555 1_555
C30_4 C29_4 1_555 1_555
H18_4 C30_4 1_555 1_555
C31_4 C30_4 1_555 1_555
H19_4 C31_4 1_555 1_555
C32_4 H20_4 1_555 1_555
N1_4 C3_4 1_555 1_555
N3_3 C14_3 1_555 1_555
N4_4 C20_4 1_555 1_555
N6_4 Zn1_4 1_555 1_555
O1_4 Zn1_4 1_555 1_555
O2_4 C1_4 1_555 1_555
O7_2 Zn1_4 1_555 1_555
H22_2 O7_2 1_555 1_555
C1_4 O1_4 1_555 1_555
C4_4 N1_4 1_555 1_555
C15_3 N3_3 1_555 1_555
C21_4 C22_4 1_555 1_555
C21_4 N4_4 1_555 1_555
C31_4 N6_4 1_555 1_555
C32_4 N6_4 1_555 1_555
O7_2 H24_4 1_555 1_555
C14_4 H8_4 1_555 1_555
N3_4 C14_4 1_555 1_555
C15_4 N3_4 1_555 1_555

#END
