
###############################################################################
#
# This file contains modified crystal structure data generated from the
# MOF subset of the Cambridge Structural Database (CSD) v543 
# hosted by the Cambridge Crystallographic Data Centre (CCDC).
#
# This work is licensed under the Creative Commons
# Attribution-NonCommercial-ShareAlike 4.0 International License.
# To view a copy of this license, visit
# http://creativecommons.org/licenses/by-nc-sa/4.0/
# or send a letter to
# Creative Commons, PO Box 1866, Mountain View, CA 94042, USA.
#
# CIF created using the CSD Python API on 29 September 2022
# The structure has been converted into the P1 space group
# The structure has a 3D framework
# The original CSD entry GALLUC is in the monoclinic crystal system
# The framework has been calculated to contain at least 10.0% void space
# The void calculation uses a probe of radius 1.32A, grid spacing 0.4
#
###############################################################################

data_GALLUC
_chemical_formula_moiety         '(C44 H28 N12 O24 Tb4)n'
_symmetry_cell_setting           triclinic
_symmetry_space_group_name_H-M   'P 1'
_symmetry_Int_Tables_number      1
_space_group_name_Hall           'P 1'
loop_
_symmetry_equiv_pos_site_id
_symmetry_equiv_pos_as_xyz
1 x,y,z
_cell_length_a                   8.321(9)
_cell_length_b                   14.724(1)
_cell_length_c                   11.522(3)
_cell_angle_alpha                90
_cell_angle_beta                 90.797(7)
_cell_angle_gamma                90
_cell_volume                     1411.52
loop_
_atom_site_label
_atom_site_type_symbol
_atom_site_fract_x
_atom_site_fract_y
_atom_site_fract_z
C6 C 0.1467(8) 0.3124(5) 0.0306(5)
C7 C 0.2433(9) 0.2376(5) 0.0514(6)
C8 C 0.3311(10) 0.2328(6) 0.1529(7)
H2 H 0.3969 0.1825 0.1648
C9 C 0.1421(9) 0.3788(5) 0.1167(6)
H3 H 0.0780 0.4301 0.1067
C10 C 0.2329(10) 0.3683(5) 0.2167(6)
H4 H 0.2280 0.4134 0.2731
N3 N 0.3273(8) 0.2969(5) 0.2365(5)
C3 C 0.0055(8) 0.3748(4) 0.7449(5)
C4 C 0.0357(8) 0.4357(4) 0.6455(5)
C5 C 0.0601(9) 0.3202(5) 0.9192(6)
H1 H 0.2487 0.1910 0.9971
H5 H 0.161(9) 0.442(5) 0.849(6)
N1 N 0.0874(7) 0.3906(4) 0.8474(4)
O4 O 0.1127(6) 0.5071(3) 0.6671(4)
Tb4 Tb 0.22235(4) 0.632268(19) 0.56688(2)
C22 C 0.5258(9) 0.0026(5) 0.0644(5)
O11 O 0.7787(5) 0.2374(3) 0.0855(3)
O14 O 0.9909(6) 0.0894(3) 0.0459(4)
O19 O 0.6438(6) 0.0529(3) 0.0880(3)
Tb1 Tb 0.77765(4) 0.132268(19) 0.93312(2)
C1 C 0.8173(7) 0.2393(4) 0.6861(5)
C2 C 0.9270(8) 0.2944(4) 0.7603(5)
H6 H 0.561(9) 0.2897(14) 0.899(6)
H7 H 0.490(6) 0.212(4) 0.858(5)
N2 N 0.9610(6) 0.2602(3) 0.8705(4)
O1 O 0.7704(5) 0.1663(3) 0.7318(3)
O2 O 0.7787(5) 0.2626(3) 0.5855(3)
O3 O 0.9909(6) 0.4106(3) 0.5459(4)
O5 O 0.5541(6) 0.0425(3) 0.8662(4)
O7 O 0.5594(6) 0.2330(4) 0.9043(4)
Tb6 Tb 0.77765(4) 0.367732(19) 0.43312(2)
O16 O 0.8873(6) 0.0071(3) 0.8329(4)
Tb2 Tb 0.22235(4) 0.867732(19) 0.06688(2)
C12 C 0.1827(7) 0.7607(4) 0.3139(5)
C13 C 0.0730(8) 0.7056(4) 0.2397(5)
H13 H 0.439(9) 0.7103(14) 0.101(6)
H14 H 0.510(6) 0.788(4) 0.142(5)
N5 N 0.0390(6) 0.7398(3) 0.1295(4)
O8 O 0.2296(5) 0.8337(3) 0.2682(3)
O9 O 0.2213(5) 0.7374(3) 0.4145(3)
O12 O 0.0091(6) 0.5894(3) 0.4541(4)
O17 O 0.1127(6) 0.9929(3) 0.1671(4)
O18 O 0.4459(6) 0.9575(3) 0.1338(4)
O20 O 0.4406(6) 0.7670(4) 0.0957(4)
C11 C 0.4742(9) 0.9974(5) 0.9356(5)
O6 O 0.3562(6) 0.9471(3) 0.9120(3)
O10 O 0.2213(5) 0.7626(3) 0.9145(3)
O13 O 0.0091(6) 0.9106(3) 0.9541(4)
C14 C 0.9945(8) 0.6252(4) 0.2551(5)
C15 C 0.9643(8) 0.5643(4) 0.3545(5)
C16 C 0.9399(9) 0.6798(5) 0.0808(6)
H8 H 0.7513 0.8090 0.0029
H12 H 0.839(9) 0.558(5) 0.151(6)
N4 N 0.9126(7) 0.6094(4) 0.1526(4)
O15 O 0.8873(6) 0.4929(3) 0.3329(4)
C1_2 C 0.1827(7) 0.7393(4) 0.8139(5)
C2_2 C 0.0730(8) 0.7944(4) 0.7397(5)
C11_2 C 0.5258(9) 0.4974(5) 0.5644(5)
H6_2 H 0.439(9) 0.7897(14) 0.601(6)
H7_2 H 0.510(6) 0.712(4) 0.642(5)
N2_2 N 0.0390(6) 0.7602(3) 0.6295(4)
O1_2 O 0.2296(5) 0.6663(3) 0.7682(3)
O5_2 O 0.4459(6) 0.5425(3) 0.6338(4)
O6_2 O 0.6438(6) 0.4471(3) 0.5880(3)
O7_2 O 0.4406(6) 0.7330(4) 0.5957(4)
C12_2 C 0.8173(7) 0.2607(4) 0.1861(5)
C13_2 C 0.9270(8) 0.2056(4) 0.2603(5)
C22_2 C 0.4742(9) 0.5026(5) 0.4356(5)
H13_2 H 0.561(9) 0.2103(14) 0.399(6)
H14_2 H 0.490(6) 0.288(4) 0.358(5)
N5_2 N 0.9610(6) 0.2398(3) 0.3705(4)
O8_2 O 0.7704(5) 0.3337(3) 0.2318(3)
O18_2 O 0.5541(6) 0.4575(3) 0.3662(4)
O19_2 O 0.3562(6) 0.5529(3) 0.4120(3)
O20_2 O 0.5594(6) 0.2670(4) 0.4043(4)
C17 C 0.8533(8) 0.6876(5) 0.9694(5)
C18 C 0.7567(9) 0.7624(5) 0.9486(6)
C19 C 0.6689(10) 0.7672(6) 0.8471(7)
H9 H 0.6031 0.8175 0.8352
C20 C 0.8579(9) 0.6212(5) 0.8833(6)
H10 H 0.9220 0.5699 0.8933
C21 C 0.7671(10) 0.6317(5) 0.7833(6)
H11 H 0.7720 0.5866 0.7269
N6 N 0.6727(8) 0.7031(5) 0.7635(5)
C14_2 C 0.0055(8) 0.1252(4) 0.2449(5)
C15_2 C 0.0357(8) 0.0643(4) 0.1455(5)
C16_2 C 0.0601(9) 0.1798(5) 0.4192(6)
C17_2 C 0.1467(8) 0.1876(5) 0.5306(5)
C18_2 C 0.2433(9) 0.2624(5) 0.5514(6)
H8_2 H 0.2487 0.3090 0.4971
C19_2 C 0.3311(10) 0.2672(6) 0.6529(7)
H9_2 H 0.3969 0.3175 0.6648
C20_2 C 0.1421(9) 0.1212(5) 0.6167(6)
H10_2 H 0.0780 0.0699 0.6067
C21_2 C 0.2329(10) 0.1317(5) 0.7167(6)
H11_2 H 0.2280 0.0866 0.7731
H12_2 H 0.161(9) 0.058(5) 0.349(6)
N4_2 N 0.0874(7) 0.1094(4) 0.3474(4)
N6_2 N 0.3273(8) 0.2031(5) 0.7365(5)
C3_2 C 0.9945(8) 0.8748(4) 0.7551(5)
C4_2 C 0.9643(8) 0.9357(4) 0.8545(5)
C5_2 C 0.9399(9) 0.8202(5) 0.5808(6)
C6_2 C 0.8533(8) 0.8124(5) 0.4694(5)
C7_2 C 0.7567(9) 0.7376(5) 0.4486(6)
H1_2 H 0.7513 0.6910 0.5029
C8_2 C 0.6689(10) 0.7328(6) 0.3471(7)
H2_2 H 0.6031 0.6825 0.3352
C9_2 C 0.8579(9) 0.8788(5) 0.3833(6)
H3_2 H 0.9220 0.9301 0.3933
C10_2 C 0.7671(10) 0.8683(5) 0.2833(6)
H4_2 H 0.7720 0.9134 0.2269
H5_2 H 0.839(9) 0.942(5) 0.651(6)
N1_2 N 0.9126(7) 0.8906(4) 0.6526(4)
N3_2 N 0.6727(8) 0.7969(5) 0.2635(5)
loop_
_geom_bond_atom_site_label_1
_geom_bond_atom_site_label_2
_geom_bond_site_symmetry_1
_geom_bond_site_symmetry_2
C6 C7 1_555 1_555
C8 C7 1_555 1_555
H2 C8 1_555 1_555
C9 C6 1_555 1_555
H3 C9 1_555 1_555
C10 C9 1_555 1_555
H4 C10 1_555 1_555
N3 C8 1_555 1_555
C10 N3 1_555 1_555
C3 C4 1_555 1_555
H5 N1 1_555 1_555
N1 C3 1_555 1_555
O4 C4 1_555 1_555
Tb4 O4 1_555 1_555
C5 N1 1_555 1_555
C22 O19 1_555 1_555
Tb1 N2 1_555 1_555
C1 C2 1_555 1_555
H6 O7 1_555 1_555
H7 O7 1_555 1_555
N2 C2 1_555 1_555
O1 Tb1 1_555 1_555
O2 C1 1_555 1_555
O3 Tb6 1_555 1_555
O5 Tb1 1_555 1_555
O7 Tb1 1_555 1_555
Tb6 O2 1_555 1_555
O16 Tb1 1_555 1_555
C1 O1 1_555 1_555
Tb4 O9 1_555 1_555
C12 C13 1_555 1_555
H13 O20 1_555 1_555
H14 O20 1_555 1_555
N5 Tb2 1_555 1_555
O8 Tb2 1_555 1_555
O9 C12 1_555 1_555
O12 Tb4 1_555 1_555
O17 Tb2 1_555 1_555
O18 Tb2 1_555 1_555
O20 Tb2 1_555 1_555
C12 O8 1_555 1_555
C13 N5 1_555 1_555
O6 C11 1_555 1_555
Tb6 O15 1_555 1_555
C14 C15 1_555 1_555
H12 N4 1_555 1_555
N4 C14 1_555 1_555
O15 C15 1_555 1_555
C16 N4 1_555 1_555
Tb4 N2_2 1_555 1_555
C1_2 C2_2 1_555 1_555
C11_2 O5_2 1_555 1_555
H6_2 O7_2 1_555 1_555
H7_2 O7_2 1_555 1_555
N2_2 C2_2 1_555 1_555
O1_2 Tb4 1_555 1_555
O10 C1_2 1_555 1_555
O5_2 Tb4 1_555 1_555
O6_2 C11_2 1_555 1_555
O7_2 Tb4 1_555 1_555
Tb6 O6_2 1_555 1_555
C12_2 C13_2 1_555 1_555
C22_2 C11_2 1_555 1_555
H13_2 O20_2 1_555 1_555
H14_2 O20_2 1_555 1_555
N5_2 Tb6 1_555 1_555
O8_2 Tb6 1_555 1_555
O11 C12_2 1_555 1_555
O18_2 Tb6 1_555 1_555
O19_2 Tb4 1_555 1_555
O20_2 Tb6 1_555 1_555
C1_2 O1_2 1_555 1_555
C12_2 O8_2 1_555 1_555
C13_2 N5_2 1_555 1_555
C22_2 O18_2 1_555 1_555
C22_2 O19_2 1_555 1_555
C17 C18 1_555 1_555
C19 C18 1_555 1_555
H9 C19 1_555 1_555
C20 C17 1_555 1_555
H10 C20 1_555 1_555
C21 C20 1_555 1_555
H11 C21 1_555 1_555
N6 C19 1_555 1_555
C21 N6 1_555 1_555
C14_2 C15_2 1_555 1_555
C16_2 C17_2 1_555 1_555
C17_2 C18_2 1_555 1_555
C18_2 H8_2 1_555 1_555
C19_2 C18_2 1_555 1_555
H9_2 C19_2 1_555 1_555
C20_2 C17_2 1_555 1_555
H10_2 C20_2 1_555 1_555
C21_2 C20_2 1_555 1_555
H11_2 C21_2 1_555 1_555
H12_2 N4_2 1_555 1_555
N4_2 C14_2 1_555 1_555
N6_2 C19_2 1_555 1_555
C16_2 N4_2 1_555 1_555
C21_2 N6_2 1_555 1_555
C3_2 C4_2 1_555 1_555
C5_2 C6_2 1_555 1_555
C6_2 C7_2 1_555 1_555
C7_2 H1_2 1_555 1_555
C8_2 C7_2 1_555 1_555
H2_2 C8_2 1_555 1_555
C9_2 C6_2 1_555 1_555
H3_2 C9_2 1_555 1_555
C10_2 C9_2 1_555 1_555
H4_2 C10_2 1_555 1_555
H5_2 N1_2 1_555 1_555
N1_2 C3_2 1_555 1_555
N3_2 C8_2 1_555 1_555
C5_2 N1_2 1_555 1_555
C10_2 N3_2 1_555 1_555

#END
