
###############################################################################
#
# This file contains modified crystal structure data generated from the
# MOF subset of the Cambridge Structural Database (CSD) v543 
# hosted by the Cambridge Crystallographic Data Centre (CCDC).
#
# This work is licensed under the Creative Commons
# Attribution-NonCommercial-ShareAlike 4.0 International License.
# To view a copy of this license, visit
# http://creativecommons.org/licenses/by-nc-sa/4.0/
# or send a letter to
# Creative Commons, PO Box 1866, Mountain View, CA 94042, USA.
#
# CIF created using the CSD Python API on 29 September 2022
# The structure has been converted into the P1 space group
# The structure has a 3D framework
# The original CSD entry GALLUC01 is in the monoclinic crystal system
# The framework has been calculated to contain at least 10.0% void space
# The void calculation uses a probe of radius 1.32A, grid spacing 0.4
#
###############################################################################

data_GALLUC01
_chemical_formula_moiety         '(C44 H28 N12 O26 Tb4)n'
_symmetry_cell_setting           triclinic
_symmetry_space_group_name_H-M   'P 1'
_symmetry_Int_Tables_number      1
_space_group_name_Hall           'P 1'
loop_
_symmetry_equiv_pos_site_id
_symmetry_equiv_pos_as_xyz
1 x,y,z
_cell_length_a                   8.3098(11)
_cell_length_b                   14.7322(19)
_cell_length_c                   11.5232(15)
_cell_angle_alpha                90
_cell_angle_beta                 90.8490(10)
_cell_angle_gamma                90
_cell_volume                     1410.53
loop_
_atom_site_label
_atom_site_type_symbol
_atom_site_fract_x
_atom_site_fract_y
_atom_site_fract_z
C6 C 0.6470(6) 0.3114(3) 0.0327(4)
C7 C 0.6420(8) 0.3780(4) 0.1161(5)
H1 H 0.5779 0.4292 0.1057
C8 C 0.7348(9) 0.3672(4) 0.2159(5)
H2 H 0.7313 0.4125 0.2720
C9 C 0.8328(8) 0.2325(4) 0.1553(5)
H3 H 0.8993 0.1826 0.1679
C10 C 0.7437(7) 0.2363(4) 0.0524(5)
N3 N 0.8281(6) 0.2959(4) 0.2361(4)
C22 C 0.0259(7) 0.0023(3) 0.0646(4)
O11 O 0.2800(4) 0.2366(2) 0.0862(3)
O14 O 0.4934(5) 0.0903(2) 0.0455(3)
O19 O 0.1452(5) 0.0518(3) 0.0877(3)
C1 C 0.3169(6) 0.2387(3) 0.6855(4)
C2 C 0.4266(6) 0.2944(3) 0.7617(4)
C3 C 0.5060(6) 0.3751(3) 0.7459(4)
C4 C 0.5362(6) 0.4357(3) 0.6452(4)
C5 C 0.5597(7) 0.3207(3) 0.9199(4)
H4 H 0.7489 0.1896 0.9982
N1 N 0.4615(5) 0.2607(3) 0.8711(3)
N2 N 0.5870(6) 0.3905(3) 0.8487(4)
H5 H 0.6455 0.4372 0.8646
O1 O 0.2705(4) 0.1656(2) 0.7312(3)
O2 O 0.2800(4) 0.2634(2) 0.5862(3)
O3 O 0.4934(5) 0.4097(2) 0.5455(3)
O4 O 0.6131(5) 0.5065(2) 0.6673(3)
O5 O 0.0519(5) 0.0429(3) 0.8660(3)
O7 O 0.0605(5) 0.2342(3) 0.9031(3)
H7 H 0.0174 0.2177 0.9632
Tb1 Tb 0.27800(3) 0.132049(14) 0.933268(19)
O16 O 0.3869(5) 0.0065(2) 0.8327(3)
Tb4 Tb 0.72200(3) 0.632049(14) 0.566732(19)
Tb6 Tb 0.27800(3) 0.367951(14) 0.433268(19)
C12 C 0.6831(6) 0.7613(3) 0.3145(4)
C13 C 0.5734(6) 0.7056(3) 0.2383(4)
C14 C 0.4940(6) 0.6249(3) 0.2541(4)
C15 C 0.4638(6) 0.5643(3) 0.3548(4)
C16 C 0.4403(7) 0.6793(3) 0.0801(4)
H11 H 0.2511 0.8104 0.0018
N4 N 0.5385(5) 0.7393(3) 0.1289(3)
N5 N 0.4130(6) 0.6095(3) 0.1513(4)
H12 H 0.3545 0.5628 0.1354
O8 O 0.7295(4) 0.8344(2) 0.2688(3)
O9 O 0.7200(4) 0.7366(2) 0.4138(3)
O12 O 0.5066(5) 0.5903(2) 0.4545(3)
O15 O 0.3869(5) 0.4935(2) 0.3327(3)
O17 O 0.6131(5) 0.9935(2) 0.1673(3)
O18 O 0.9481(5) 0.9571(3) 0.1340(3)
O20 O 0.9395(5) 0.7658(3) 0.0969(3)
H14 H 0.9826 0.7823 0.0368
Tb2 Tb 0.72200(3) 0.867951(14) 0.066732(19)
C11 C 0.9741(7) 0.9977(3) 0.9354(4)
O6 O 0.8548(5) 0.9482(3) 0.9123(3)
C17 C 0.3530(6) 0.6886(3) 0.9673(4)
C18 C 0.3580(8) 0.6220(4) 0.8839(5)
H8 H 0.4221 0.5708 0.8943
C19 C 0.2652(9) 0.6328(4) 0.7841(5)
H9 H 0.2687 0.5875 0.7280
C20 C 0.1672(8) 0.7675(4) 0.8447(5)
H10 H 0.1007 0.8174 0.8321
C21 C 0.2563(7) 0.7637(4) 0.9476(5)
N6 N 0.1719(6) 0.7041(4) 0.7639(4)
O10 O 0.7200(4) 0.7634(2) 0.9138(3)
O13 O 0.5066(5) 0.9097(2) 0.9545(3)
C11_2 C 0.0259(7) 0.4977(3) 0.5646(4)
O6_2 O 0.1452(5) 0.4482(3) 0.5877(3)
H6 H 0.0049 0.7311 0.6513
C12_2 C 0.3169(6) 0.2613(3) 0.1855(4)
C13_2 C 0.4266(6) 0.2056(3) 0.2617(4)
C14_2 C 0.5060(6) 0.1249(3) 0.2459(4)
C15_2 C 0.5362(6) 0.0643(3) 0.1452(4)
C16_2 C 0.5597(7) 0.1793(3) 0.4199(4)
C17_2 C 0.6470(6) 0.1886(3) 0.5327(4)
C18_2 C 0.6420(8) 0.1220(4) 0.6161(5)
H8_2 H 0.5779 0.0708 0.6057
C19_2 C 0.7348(9) 0.1328(4) 0.7159(5)
H9_2 H 0.7313 0.0875 0.7720
C20_2 C 0.8328(8) 0.2675(4) 0.6553(5)
H10_2 H 0.8993 0.3174 0.6679
C21_2 C 0.7437(7) 0.2637(4) 0.5524(5)
H11_2 H 0.7489 0.3104 0.4982
N4_2 N 0.4615(5) 0.2393(3) 0.3711(3)
N5_2 N 0.5870(6) 0.1095(3) 0.3487(4)
H12_2 H 0.6455 0.0628 0.3646
N6_2 N 0.8281(6) 0.2041(4) 0.7361(4)
O8_2 O 0.2705(4) 0.3344(2) 0.2312(3)
O18_2 O 0.0519(5) 0.4571(3) 0.3660(3)
O20_2 O 0.0605(5) 0.2658(3) 0.4031(3)
H14_2 H 0.0174 0.2823 0.4632
C1_2 C 0.6831(6) 0.7387(3) 0.8145(4)
C2_2 C 0.5734(6) 0.7944(3) 0.7383(4)
C3_2 C 0.4940(6) 0.8751(3) 0.7541(4)
C4_2 C 0.4638(6) 0.9357(3) 0.8548(4)
C5_2 C 0.4403(7) 0.8207(3) 0.5801(4)
C6_2 C 0.3530(6) 0.8114(3) 0.4673(4)
C7_2 C 0.3580(8) 0.8780(4) 0.3839(5)
H1_2 H 0.4221 0.9292 0.3943
C8_2 C 0.2652(9) 0.8672(4) 0.2841(5)
H2_2 H 0.2687 0.9125 0.2280
C9_2 C 0.1672(8) 0.7325(4) 0.3447(5)
H3_2 H 0.1007 0.6826 0.3321
C10_2 C 0.2563(7) 0.7363(4) 0.4476(5)
H4_2 H 0.2511 0.6896 0.5018
N1_2 N 0.5385(5) 0.7607(3) 0.6289(3)
N2_2 N 0.4130(6) 0.8905(3) 0.6513(4)
H5_2 H 0.3545 0.9372 0.6354
N3_2 N 0.1719(6) 0.7959(4) 0.2639(4)
O1_2 O 0.7295(4) 0.6656(2) 0.7688(3)
O5_2 O 0.9481(5) 0.5429(3) 0.6340(3)
O7_2 O 0.9395(5) 0.7342(3) 0.5969(3)
H7_2 H 0.9826 0.7177 0.5368
C22_2 C 0.9741(7) 0.5023(3) 0.4354(4)
O19_2 O 0.8548(5) 0.5518(3) 0.4123(3)
H13 H 0.9951 0.2689 0.3487
H13_2 H 0.0049 0.7689 0.1513
H6_2 H 0.9951 0.2311 0.8487
loop_
_geom_bond_atom_site_label_1
_geom_bond_atom_site_label_2
_geom_bond_site_symmetry_1
_geom_bond_site_symmetry_2
C6 C7 1_555 1_555
C7 H1 1_555 1_555
C8 C7 1_555 1_555
H2 C8 1_555 1_555
C9 H3 1_555 1_555
C10 C6 1_555 1_555
N3 C8 1_555 1_555
C9 C10 1_555 1_555
C9 N3 1_555 1_555
C22 O19 1_555 1_555
C1 C2 1_555 1_555
C2 C3 1_555 1_555
C3 C4 1_555 1_555
C4 O3 1_555 1_555
N1 C2 1_555 1_555
N2 C3 1_555 1_555
H5 N2 1_555 1_555
O1 C1 1_555 1_555
O2 C1 1_555 1_555
O3 Tb6 1_555 1_555
O4 C4 1_555 1_555
O5 Tb1 1_555 1_555
H7 O7 1_555 1_555
Tb1 N1 1_555 1_555
O16 Tb1 1_555 1_555
Tb4 O4 1_555 1_555
Tb6 O2 1_555 1_555
C5 N1 1_555 1_555
C5 N2 1_555 1_555
O1 Tb1 1_555 1_555
O7 Tb1 1_555 1_555
C12 C13 1_555 1_555
C13 C14 1_555 1_555
C14 C15 1_555 1_555
C15 O12 1_555 1_555
N4 C13 1_555 1_555
N5 C14 1_555 1_555
H12 N5 1_555 1_555
O8 C12 1_555 1_555
O9 C12 1_555 1_555
O12 Tb4 1_555 1_555
O15 C15 1_555 1_555
O17 Tb2 1_555 1_555
H14 O20 1_555 1_555
Tb4 O9 1_555 1_555
Tb6 O15 1_555 1_555
C16 N4 1_555 1_555
C16 N5 1_555 1_555
N4 Tb2 1_555 1_555
O8 Tb2 1_555 1_555
O18 Tb2 1_555 1_555
O20 Tb2 1_555 1_555
O6 C11 1_555 1_555
C17 C18 1_555 1_555
C18 H8 1_555 1_555
C19 C18 1_555 1_555
H9 C19 1_555 1_555
C20 H10 1_555 1_555
C21 C17 1_555 1_555
N6 C19 1_555 1_555
C20 C21 1_555 1_555
C20 N6 1_555 1_555
O6_2 C11_2 1_555 1_555
C12_2 C13_2 1_555 1_555
C13_2 C14_2 1_555 1_555
C14_2 C15_2 1_555 1_555
C15_2 O14 1_555 1_555
C16_2 C17_2 1_555 1_555
C17_2 C18_2 1_555 1_555
C18_2 H8_2 1_555 1_555
C19_2 C18_2 1_555 1_555
H9_2 C19_2 1_555 1_555
C20_2 H10_2 1_555 1_555
C21_2 C17_2 1_555 1_555
H11_2 C21_2 1_555 1_555
N4_2 C13_2 1_555 1_555
N5_2 C14_2 1_555 1_555
H12_2 N5_2 1_555 1_555
N6_2 C19_2 1_555 1_555
O8_2 C12_2 1_555 1_555
O11 C12_2 1_555 1_555
H14_2 O20_2 1_555 1_555
Tb6 O6_2 1_555 1_555
C16_2 N4_2 1_555 1_555
C16_2 N5_2 1_555 1_555
C20_2 C21_2 1_555 1_555
C20_2 N6_2 1_555 1_555
N4_2 Tb6 1_555 1_555
O8_2 Tb6 1_555 1_555
O18_2 Tb6 1_555 1_555
O20_2 Tb6 1_555 1_555
C1_2 C2_2 1_555 1_555
C2_2 C3_2 1_555 1_555
C3_2 C4_2 1_555 1_555
C4_2 O13 1_555 1_555
C5_2 C6_2 1_555 1_555
C6_2 C7_2 1_555 1_555
C7_2 H1_2 1_555 1_555
C8_2 C7_2 1_555 1_555
H2_2 C8_2 1_555 1_555
C9_2 H3_2 1_555 1_555
C10_2 C6_2 1_555 1_555
H4_2 C10_2 1_555 1_555
N1_2 C2_2 1_555 1_555
N2_2 C3_2 1_555 1_555
H5_2 N2_2 1_555 1_555
N3_2 C8_2 1_555 1_555
O1_2 C1_2 1_555 1_555
O10 C1_2 1_555 1_555
O5_2 Tb4 1_555 1_555
H7_2 O7_2 1_555 1_555
Tb4 N1_2 1_555 1_555
O19_2 Tb4 1_555 1_555
C5_2 N1_2 1_555 1_555
C5_2 N2_2 1_555 1_555
C9_2 C10_2 1_555 1_555
C9_2 N3_2 1_555 1_555
O1_2 Tb4 1_555 1_555
O7_2 Tb4 1_555 1_555
C22_2 O19_2 1_555 1_555

#END
