
###############################################################################
#
# This file contains modified crystal structure data generated from the
# MOF subset of the Cambridge Structural Database (CSD) v543 
# hosted by the Cambridge Crystallographic Data Centre (CCDC).
#
# This work is licensed under the Creative Commons
# Attribution-NonCommercial-ShareAlike 4.0 International License.
# To view a copy of this license, visit
# http://creativecommons.org/licenses/by-nc-sa/4.0/
# or send a letter to
# Creative Commons, PO Box 1866, Mountain View, CA 94042, USA.
#
# CIF created using the CSD Python API on 29 September 2022
# The structure has been converted into the P1 space group
# The structure has a 3D framework
# The original CSD entry GAPLOC is in the triclinic crystal system
# The framework has been calculated to contain at least 10.0% void space
# The void calculation uses a probe of radius 1.32A, grid spacing 0.4
#
###############################################################################

data_GAPLOC
_chemical_formula_moiety         '(C154 H120 Cd4 N8 O14)n'
_symmetry_cell_setting           triclinic
_symmetry_space_group_name_H-M   'P 1'
_symmetry_Int_Tables_number      1
_space_group_name_Hall           'P 1'
loop_
_symmetry_equiv_pos_site_id
_symmetry_equiv_pos_as_xyz
1 x,y,z
_cell_length_a                   17.048(4)
_cell_length_b                   20.480(5)
_cell_length_c                   21.658(5)
_cell_angle_alpha                84.527(4)
_cell_angle_beta                 68.213(3)
_cell_angle_gamma                84.856(4)
_cell_volume                     6977.54
loop_
_atom_site_label
_atom_site_type_symbol
_atom_site_fract_x
_atom_site_fract_y
_atom_site_fract_z
Cd1 Cd 0.46454(2) 0.50611(2) 0.09787(2)
N1 N 0.4542(3) 0.3957(2) 0.0993(2)
O1 O 0.3287(2) 0.52542(19) 0.0988(2)
O3 O 0.5443(3) 0.4890(2) 0.1696(2)
O4 O 0.4082(3) 0.5154(2) 0.2158(2)
N2 N 0.4908(3) 0.6147(2) 0.0836(2)
C1 C 0.3856(4) 0.3672(3) 0.1021(3)
C2 C 0.5214(4) 0.3559(3) 0.0937(4)
C3 C 0.3384(3) 0.5187(2) 0.0393(3)
C4 C 0.4797(4) 0.5021(3) 0.2197(3)
H1 H 0.336409 0.393281 0.107147
C5 C 0.3846(4) 0.3006(3) 0.0980(4)
C6 C 0.5250(4) 0.2892(3) 0.0905(4)
H2 H 0.570055 0.374629 0.091899
C7 C 0.2602(3) 0.5164(3) 0.0231(3)
C8 C 0.4869(4) 0.5003(3) 0.2871(3)
H3 H 0.335313 0.283182 0.099560
C9 C 0.4545(4) 0.2595(3) 0.0916(3)
H4 H 0.574296 0.264077 0.087651
C10 C 0.1826(3) 0.5110(4) 0.0743(3)
C12 C 0.4176(5) 0.5117(4) 0.3430(4)
C13 C 0.5651(5) 0.4874(3) 0.2926(4)
C14 C 0.4520(5) 0.1890(3) 0.0885(4)
H5 H 0.178611 0.510103 0.118410
C15 C 0.1110(4) 0.5069(4) 0.0598(4)
C17 C 0.4275(7) 0.5111(4) 0.4051(4)
H7 H 0.364296 0.519727 0.340397
H8 H 0.612544 0.479660 0.254523
C18 C 0.5742(7) 0.4859(4) 0.3536(5)
H9 H 0.401749 0.174565 0.088701
C19 C 0.5125(5) 0.1435(3) 0.0856(4)
H10 H 0.059126 0.502902 0.094632
C21 C 0.5058(8) 0.4980(4) 0.4095(5)
H12 H 0.380612 0.519598 0.443285
H13 H 0.627266 0.476523 0.356337
H14 H 0.563995 0.157681 0.083070
C22 C 0.5065(4) 0.0719(3) 0.0858(4)
C24 C 0.5246(6) 0.4951(5) 0.4719(3)
C25 C 0.4301(4) 0.0469(3) 0.0942(4)
C26 C 0.5756(5) 0.0277(3) 0.0797(4)
H16 H 0.580573 0.484339 0.467239
H17 H 0.383804 0.076520 0.099204
C29 C 0.6613(5) 0.0496(4) 0.0737(5)
H19 H 0.683225 0.078139 0.034174
H20 H 0.699667 0.011748 0.071101
H21 H 0.654913 0.072576 0.112019
O5 O 0.5904(2) 0.48804(18) 0.0053(2)
C40 C 0.4754(6) 0.5049(5) 0.5281(3)
H32 H 0.419427 0.515661 0.532761
C42 C 0.4942(8) 0.5020(4) 0.5905(5)
C45 C 0.5725(7) 0.4889(4) 0.5949(4)
C46 C 0.4258(7) 0.5141(4) 0.6464(5)
H35 H 0.619388 0.480402 0.556715
C49 C 0.5824(5) 0.4883(4) 0.6570(4)
C50 C 0.4349(5) 0.5126(3) 0.7074(4)
H36 H 0.372734 0.523477 0.643663
H39 H 0.635704 0.480273 0.659603
C52 C 0.5131(4) 0.4997(3) 0.7129(3)
H40 H 0.387456 0.520340 0.745477
C54 C 0.5203(4) 0.4979(3) 0.7803(3)
O8 O 0.4557(3) 0.5110(2) 0.8304(2)
O9 O 0.5918(3) 0.4846(2) 0.7842(2)
Cd5 Cd 0.53546(2) 0.49389(2) 0.90213(2)
O2 O 0.4096(2) 0.51196(18) 0.9947(2)
C11 C 0.2651(3) 0.5188(3) 0.9581(3)
C16 C 0.1929(3) 0.5151(4) 0.9445(3)
H6 H 0.317133 0.522845 0.923364
C20 C 0.1140(3) 0.5086(4) 0.9950(3)
H11 H 0.197023 0.517117 0.900379
C23 C 0.0381(3) 0.5035(4) 0.9790(4)
H15 H 0.045821 0.505703 0.934069
C27 C 0.4183(4) 0.9812(3) 0.0957(4)
C28 C 0.5634(4) 0.9609(3) 0.0824(4)
C30 C 0.4878(4) 0.9366(3) 0.0907(4)
C31 C 0.3327(5) 0.9604(4) 0.1055(5)
H18 H 0.609369 0.931219 0.078191
C32 C 0.4757(5) 0.8658(3) 0.0924(4)
H22 H 0.306966 0.941249 0.150102
H23 H 0.337793 0.928523 0.074274
H24 H 0.298203 0.997881 0.098599
H25 H 0.420408 0.854408 0.102609
C33 C 0.5328(4) 0.8177(3) 0.0814(3)
H26 H 0.588236 0.827981 0.072180
C34 C 0.5172(4) 0.7476(3) 0.0822(3)
C35 C 0.4383(4) 0.7265(3) 0.0895(4)
C36 C 0.5804(4) 0.6998(3) 0.0757(4)
H27 H 0.393061 0.756942 0.093752
C37 C 0.4280(4) 0.6612(3) 0.0904(4)
C38 C 0.5650(3) 0.6352(3) 0.0759(3)
H28 H 0.634056 0.711120 0.071065
H29 H 0.374813 0.648123 0.095931
H30 H 0.609730 0.603964 0.070188
C65 C 0.5817(4) 0.0188(3) 0.9043(4)
C66 C 0.4366(4) 0.0391(3) 0.9176(4)
C68 C 0.5122(4) 0.0634(3) 0.9093(4)
C69 C 0.6673(5) 0.0396(4) 0.8945(5)
H48 H 0.390631 0.068781 0.921809
C70 C 0.5243(5) 0.1342(3) 0.9076(4)
H52 H 0.693034 0.058751 0.849898
H53 H 0.662207 0.071477 0.925726
H54 H 0.701797 0.002119 0.901401
H55 H 0.579592 0.145592 0.897391
C71 C 0.4672(4) 0.1823(3) 0.9186(3)
H56 H 0.411764 0.172019 0.927820
C72 C 0.4828(4) 0.2524(3) 0.9178(3)
C73 C 0.5617(4) 0.2735(3) 0.9105(4)
C74 C 0.4196(4) 0.3002(3) 0.9243(4)
H57 H 0.606939 0.243058 0.906248
C75 C 0.5720(4) 0.3388(3) 0.9096(4)
C76 C 0.4350(3) 0.3648(3) 0.9241(3)
H58 H 0.365944 0.288880 0.928935
H59 H 0.625187 0.351877 0.904069
N6 N 0.5092(3) 0.3853(2) 0.9164(2)
H60 H 0.390270 0.396036 0.929812
C39 C 0.9619(3) 0.4965(4) 0.0210(4)
C41 C 0.8860(3) 0.4914(4) 0.0050(3)
H31 H 0.954179 0.494297 0.065931
C44 C 0.8071(3) 0.4849(4) 0.0555(3)
H34 H 0.802977 0.482883 0.099621
C48 C 0.7349(3) 0.4812(3) 0.0419(3)
H38 H 0.682867 0.477155 0.076636
C43 C 0.8890(4) 0.4931(4) 0.9402(4)
C47 C 0.8174(3) 0.4890(4) 0.9257(3)
H33 H 0.940874 0.497098 0.905368
C51 C 0.7398(3) 0.4836(3) 0.9769(3)
H37 H 0.821389 0.489897 0.881590
C53 C 0.6616(3) 0.4813(2) 0.9607(3)
O6 O 0.6713(2) 0.47458(19) 0.9012(2)
N4 N 0.5458(3) 0.6043(2) 0.9007(2)
C55 C 0.6144(4) 0.6328(3) 0.8979(3)
C56 C 0.4786(4) 0.6441(3) 0.9063(4)
H41 H 0.663591 0.606719 0.892853
C57 C 0.6154(4) 0.6994(3) 0.9020(4)
C58 C 0.4750(4) 0.7108(3) 0.9095(4)
H42 H 0.429945 0.625371 0.908101
H43 H 0.664687 0.716818 0.900440
C59 C 0.5455(4) 0.7405(3) 0.9084(3)
H44 H 0.425704 0.735923 0.912349
C60 C 0.5480(5) 0.8110(3) 0.9115(4)
H45 H 0.598251 0.825435 0.911299
C61 C 0.4875(5) 0.8565(3) 0.9144(4)
H46 H 0.436005 0.842319 0.916930
C62 C 0.4935(4) 0.9281(3) 0.9142(4)
C63 C 0.5699(4) 0.9531(3) 0.9058(4)
C64 C 0.4244(5) 0.9723(3) 0.9203(4)
H47 H 0.616196 0.923480 0.900796
C67 C 0.3387(5) 0.9504(4) 0.9263(5)
H49 H 0.316775 0.921861 0.965826
H50 H 0.300333 0.988252 0.928899
H51 H 0.345087 0.927424 0.887981
Cd12 Cd 0.03401(2) 0.01171(2) 0.40034(2)
C132 C 0.0315(4) 0.7721(3) 0.5807(4)
C135 C 0.0200(4) 0.6257(3) 0.5798(4)
H102 H 0.071326 0.639952 0.577698
C137 C 0.0121(4) 0.5547(3) 0.5827(3)
C138 C 0.0280(4) 0.8387(3) 0.5847(4)
H103 H 0.076159 0.857283 0.583952
H104 H 0.081018 0.746972 0.577111
C139 C 0.0798(4) 0.5092(3) 0.5818(3)
C141 C 0.1639(4) 0.5315(3) 0.5764(4)
H107 H 0.184976 0.561188 0.537617
O22 O 0.0466(3) 0.9668(2) 0.6711(2)
C142 C 0.0666(4) 0.4426(3) 0.5863(4)
H108 H 0.111492 0.412535 0.584683
H112 H 0.157177 0.553394 0.615399
H113 H 0.203147 0.494050 0.572532
C147 C 0.0179(4) 0.2293(3) 0.5934(3)
C148 C 0.0817(4) 0.1804(3) 0.5882(3)
C149 C 0.0658(4) 0.1163(3) 0.5891(3)
H116 H 0.109469 0.084587 0.586037
C152 C 0.0362(4) 0.2986(3) 0.5902(4)
H119 H 0.091472 0.308095 0.582476
H120 H 0.135179 0.191517 0.584033
O24 O 0.0920(2) 0.97939(19) 0.5049(2)
C99 C 0.0771(5) 0.0074(4) 0.1572(4)
C100 C 0.0682(5) 0.0048(4) 0.0956(4)
C101 C 0.0179(4) 0.0212(3) 0.2789(3)
O14 O 0.0899(3) 0.0092(2) 0.2810(2)
C107 C 0.3157(4) -0.0000(4) 0.4255(4)
H83 H 0.318207 0.007923 0.381829
C109 C 0.0082(4) 0.0200(3) 0.2128(3)
C114 C 0.3880(4) 0.0028(5) 0.4399(4)
H89 H 0.438518 0.013628 0.405921
H90 H 0.130335 0.000453 0.160014
N9 N 0.0400(3) 0.1213(2) 0.4105(2)
C115 C 0.5381(4) 0.0069(5) 0.4789(4)
C117 C 0.6140(4) 0.0103(4) 0.4962(4)
C120 C 0.8388(3) 0.0140(2) 0.5406(3)
O17 O 0.8312(2) 0.00561(19) 0.6001(2)
C123 C 0.6843(4) 0.0000(4) 0.5745(4)
C125 C 0.6891(4) 0.0258(4) 0.4467(4)
C127 C 0.7598(3) 0.0145(3) 0.5242(3)
O21 O 0.9080(2) 0.02061(19) 0.4951(2)
C129 C 0.7629(3) 0.0275(3) 0.4609(3)
H94 H 0.544888 0.015291 0.434283
H95 H 0.691270 0.035246 0.403222
H96 H 0.813674 0.037650 0.426901
N12 N 0.9913(3) 0.0963(2) 0.5943(2)
C79 C 0.0382(4) 0.2576(3) 0.4180(3)
C80 C 0.1078(4) 0.2167(3) 0.4141(4)
H63 H 0.156308 0.234104 0.414286
C81 C 0.1067(4) 0.1496(3) 0.4099(3)
H64 H 0.155444 0.123403 0.406351
C82 C 0.0408(5) 0.3288(3) 0.4199(4)
H65 H 0.090233 0.343677 0.421065
C87 C 0.0102(4) 0.5814(3) 0.4071(3)
C88 C 0.0772(4) 0.5365(3) 0.4062(4)
C89 C 0.0635(4) 0.4706(3) 0.4117(4)
H68 H 0.107998 0.440838 0.411621
C90 C 0.0205(4) 0.6524(3) 0.4024(4)
H69 H 0.075499 0.664146 0.392681
C95 C 0.0683(4) 0.8571(3) 0.4010(4)
H73 H 0.120912 0.869726 0.397515
C96 C 0.0593(4) 0.7920(3) 0.4007(4)
H74 H 0.104857 0.761828 0.396459
C97 C 0.1623(4) 0.5582(3) 0.3995(4)
H75 H 0.187436 0.581556 0.356888
H76 H 0.198349 0.520409 0.402995
H77 H 0.155347 0.586535 0.434226
N7 N 0.0087(3) 0.9037(2) 0.4057(2)
C102 C 0.2402(3) 0.9855(3) 0.4758(3)
C103 C 0.2371(3) 0.9725(3) 0.5391(3)
C104 C 0.3109(4) 0.9742(4) 0.5533(4)
H82 H 0.115740 0.996651 0.057724
C107_2 C 0.3157(4) 1.0000(4) 0.4255(4)
C110 C 0.1612(3) 0.9860(2) 0.4594(3)
O15 O 0.1688(2) 0.99439(19) 0.3999(2)
C112 C 0.4619(4) 0.9931(5) 0.5211(4)
H85 H 0.455112 0.984709 0.565717
H86 H 0.308730 0.964754 0.596778
H87 H 0.186326 0.962350 0.573099
C113 C 0.3860(4) 0.9897(4) 0.5038(4)
C118 C 0.6120(4) 0.9972(5) 0.5601(4)
H91 H 0.561482 0.986372 0.594079
C123_2 C 0.6843(4) 1.0000(4) 0.5745(4)
Cd13 Cd 0.96599(2) 0.98829(2) 0.59966(2)
H100 H 0.681793 0.992077 0.618171
C131 C 0.9592(5) 0.6712(3) 0.5801(4)
H101 H 0.909767 0.656323 0.578935
C133 C 0.9618(4) 0.7424(3) 0.5820(3)
C134 C 0.8922(4) 0.7833(3) 0.5859(4)
C136 C 0.8933(4) 0.8504(3) 0.5901(3)
N10 N 0.9600(3) 0.8787(2) 0.5895(2)
H105 H 0.844556 0.876597 0.593649
H106 H 0.843692 0.765896 0.585714
C140 C 0.9365(4) 0.5294(3) 0.5883(4)
C143 C 0.9407(4) 0.2080(3) 0.5993(4)
H109 H 0.895143 0.238172 0.603541
C144 C 0.9795(4) 0.3476(3) 0.5976(4)
H110 H 0.924501 0.335854 0.607319
O23 O 0.9101(3) 0.9908(2) 0.7190(2)
C145 C 0.8377(4) 0.4418(3) 0.6005(4)
H111 H 0.844653 0.413465 0.565774
H114 H 0.892002 0.559162 0.588379
C146 C 0.9898(4) 0.4186(3) 0.5929(3)
H115 H 0.812564 0.418444 0.643112
H117 H 0.801651 0.479591 0.597005
C150 C 0.9317(4) 0.1429(3) 0.5990(4)
H118 H 0.879088 0.130274 0.602485
C151 C 0.9228(4) 0.4635(3) 0.5938(4)
C116 C 0.0274(5) 0.9896(4) 0.9721(3)
C119 C 0.0793(5) 0.9714(4) 0.8533(4)
H92 H 0.132702 0.963069 0.855710
C126 C 0.0700(4) 0.9692(3) 0.7930(4)
H93 H 0.117467 0.960224 0.755358
C130 C 0.0123(5) 0.9856(3) 0.9092(4)
H97 H 0.081093 0.975833 0.971556
O13 O 0.9534(3) 0.0332(2) 0.3289(2)
C105 C 0.9877(5) 0.0144(3) 0.0908(4)
C106 C 0.9207(5) 0.0286(4) 0.1467(4)
H81 H 0.867298 0.036931 0.144290
C108 C 0.9300(4) 0.0308(3) 0.2070(4)
C111 C 0.9726(5) 0.0104(4) 0.0279(3)
H84 H 0.918907 0.024167 0.028444
H88 H 0.882533 0.039776 0.244642
H99 H 0.884260 0.003349 0.942276
C77 C 0.9720(4) 0.1613(3) 0.4153(4)
H61 H 0.923841 0.142717 0.416048
C78 C 0.9685(4) 0.2279(3) 0.4193(4)
H62 H 0.918982 0.253028 0.422889
C83 C 0.9800(4) 0.3743(3) 0.4202(4)
H66 H 0.928674 0.360048 0.422302
C84 C 0.9879(4) 0.4453(3) 0.4173(3)
C85 C 0.9202(4) 0.4908(3) 0.4182(3)
C86 C 0.9334(4) 0.5574(3) 0.4137(4)
H67 H 0.888508 0.587465 0.415317
C91 C 0.9638(4) 0.7014(3) 0.4098(4)
H70 H 0.908528 0.691905 0.417524
C92 C 0.9821(4) 0.7707(3) 0.4066(3)
C93 C 0.9183(4) 0.8196(3) 0.4118(3)
H71 H 0.864821 0.808483 0.415967
C94 C 0.9342(4) 0.8837(3) 0.4109(3)
H72 H 0.890531 0.915413 0.413963
C98 C 0.8361(4) 0.4685(3) 0.4236(4)
H78 H 0.842823 0.446606 0.384601
H79 H 0.796853 0.505950 0.427468
H80 H 0.815024 0.438812 0.462383
C121 C 0.9918(4) 0.9800(3) 0.7872(3)
C122 C 0.9821(4) 0.9788(3) 0.7211(3)
C124 C 0.9229(5) 0.9926(4) 0.8428(4)
C128 C 0.9318(5) 0.9952(4) 0.9044(4)
H98 H 0.869665 0.999547 0.839986
loop_
_geom_bond_atom_site_label_1
_geom_bond_atom_site_label_2
_geom_bond_site_symmetry_1
_geom_bond_site_symmetry_2
Cd1 N1 1_555 1_555
N1 C1 1_555 1_555
O1 Cd1 1_555 1_555
O3 Cd1 1_555 1_555
O4 Cd1 1_555 1_555
N2 Cd1 1_555 1_555
C1 H1 1_555 1_555
C2 N1 1_555 1_555
C3 O1 1_555 1_555
C4 O3 1_555 1_555
C5 C1 1_555 1_555
C6 C2 1_555 1_555
H2 C2 1_555 1_555
C7 C3 1_555 1_555
C8 C4 1_555 1_555
H3 C5 1_555 1_555
C9 C5 1_555 1_555
H4 C6 1_555 1_555
C10 C7 1_555 1_555
C12 C8 1_555 1_555
C13 C8 1_555 1_555
C14 C9 1_555 1_555
H5 C10 1_555 1_555
C15 C10 1_555 1_555
C17 C12 1_555 1_555
H7 C12 1_555 1_555
H8 C13 1_555 1_555
C18 C13 1_555 1_555
H9 C14 1_555 1_555
C19 C14 1_555 1_555
H10 C15 1_555 1_555
C21 C17 1_555 1_555
H12 C17 1_555 1_555
H13 C18 1_555 1_555
H14 C19 1_555 1_555
C22 C19 1_555 1_555
C24 C21 1_555 1_555
C25 C22 1_555 1_555
C26 C22 1_555 1_555
H16 C24 1_555 1_555
H17 C25 1_555 1_555
C29 C26 1_555 1_555
H19 C29 1_555 1_555
H20 C29 1_555 1_555
H21 C29 1_555 1_555
O5 Cd1 1_555 1_555
C40 C24 1_555 1_555
H32 C40 1_555 1_555
C42 C40 1_555 1_555
C45 C42 1_555 1_555
C46 C42 1_555 1_555
H35 C45 1_555 1_555
C49 C45 1_555 1_555
C50 C46 1_555 1_555
H36 C46 1_555 1_555
H39 C49 1_555 1_555
C52 C49 1_555 1_555
H40 C50 1_555 1_555
C54 C52 1_555 1_555
O8 C54 1_555 1_555
O9 C54 1_555 1_555
Cd5 O8 1_555 1_555
O4 C4 1_555 1_555
C6 C9 1_555 1_555
C18 C21 1_555 1_555
C50 C52 1_555 1_555
O9 Cd5 1_555 1_555
C16 C11 1_555 1_555
H6 C11 1_555 1_555
H11 C16 1_555 1_555
C23 C20 1_555 1_555
H15 C23 1_555 1_555
Cd5 O2 1_555 1_555
C16 C20 1_555 1_555
C30 C27 1_555 1_555
C31 C27 1_555 1_555
H18 C28 1_555 1_555
C32 C30 1_555 1_555
H22 C31 1_555 1_555
H23 C31 1_555 1_555
H24 C31 1_555 1_555
H25 C32 1_555 1_555
C33 C32 1_555 1_555
H26 C33 1_555 1_555
C34 C33 1_555 1_555
C35 C34 1_555 1_555
C36 C34 1_555 1_555
H27 C35 1_555 1_555
C37 C35 1_555 1_555
C38 C36 1_555 1_555
H28 C36 1_555 1_555
H29 C37 1_555 1_555
H30 C38 1_555 1_555
N2 C37 1_555 1_555
C28 C30 1_555 1_555
C38 N2 1_555 1_555
C68 C65 1_555 1_555
C69 C65 1_555 1_555
H48 C66 1_555 1_555
C70 C68 1_555 1_555
H52 C69 1_555 1_555
H53 C69 1_555 1_555
H54 C69 1_555 1_555
H55 C70 1_555 1_555
C71 C70 1_555 1_555
H56 C71 1_555 1_555
C72 C71 1_555 1_555
C73 C72 1_555 1_555
C74 C72 1_555 1_555
H57 C73 1_555 1_555
C75 C73 1_555 1_555
C76 C74 1_555 1_555
H58 C74 1_555 1_555
H59 C75 1_555 1_555
N6 C75 1_555 1_555
H60 C76 1_555 1_555
Cd5 N6 1_555 1_555
C66 C68 1_555 1_555
C76 N6 1_555 1_555
C41 C39 1_555 1_555
H31 C39 1_555 1_555
C44 C41 1_555 1_555
H34 C44 1_555 1_555
C48 C44 1_555 1_555
H38 C48 1_555 1_555
C47 C43 1_555 1_555
H33 C43 1_555 1_555
C51 C47 1_555 1_555
H37 C47 1_555 1_555
C53 C51 1_555 1_555
O6 C53 1_555 1_555
Cd5 O6 1_555 1_555
N4 Cd5 1_555 1_555
C55 N4 1_555 1_555
C56 N4 1_555 1_555
H41 C55 1_555 1_555
C57 C55 1_555 1_555
C58 C56 1_555 1_555
H42 C56 1_555 1_555
H43 C57 1_555 1_555
C59 C57 1_555 1_555
H44 C58 1_555 1_555
C60 C59 1_555 1_555
H45 C60 1_555 1_555
C61 C60 1_555 1_555
H46 C61 1_555 1_555
C62 C61 1_555 1_555
C63 C62 1_555 1_555
C64 C62 1_555 1_555
H47 C63 1_555 1_555
C67 C64 1_555 1_555
H49 C67 1_555 1_555
H50 C67 1_555 1_555
H51 C67 1_555 1_555
C58 C59 1_555 1_555
H102 C135 1_555 1_555
C137 C135 1_555 1_555
C138 C132 1_555 1_555
H103 C138 1_555 1_555
H104 C132 1_555 1_555
C139 C137 1_555 1_555
C141 C139 1_555 1_555
H107 C141 1_555 1_555
C142 C139 1_555 1_555
H108 C142 1_555 1_555
H112 C141 1_555 1_555
H113 C141 1_555 1_555
C148 C147 1_555 1_555
C149 C148 1_555 1_555
H116 C149 1_555 1_555
H119 C152 1_555 1_555
H120 C148 1_555 1_555
C147 C152 1_555 1_555
C99 C100 1_555 1_555
O14 C101 1_555 1_555
H83 C107 1_555 1_555
C109 C99 1_555 1_555
C114 C107 1_555 1_555
H89 C114 1_555 1_555
H90 C99 1_555 1_555
N9 Cd12 1_555 1_555
C117 C115 1_555 1_555
C120 O17 1_555 1_555
C125 C117 1_555 1_555
C127 C120 1_555 1_555
O21 C120 1_555 1_555
C129 C125 1_555 1_555
H94 C115 1_555 1_555
H95 C125 1_555 1_555
H96 C129 1_555 1_555
C101 C109 1_555 1_555
O14 Cd12 1_555 1_555
C123 C127 1_555 1_555
C127 C129 1_555 1_555
C80 C79 1_555 1_555
H63 C80 1_555 1_555
C81 C80 1_555 1_555
H64 C81 1_555 1_555
C82 C79 1_555 1_555
H65 C82 1_555 1_555
C88 C87 1_555 1_555
H68 C89 1_555 1_555
C90 C87 1_555 1_555
H69 C90 1_555 1_555
C95 H73 1_555 1_555
H74 C96 1_555 1_555
C97 C88 1_555 1_555
H75 C97 1_555 1_555
H76 C97 1_555 1_555
H77 C97 1_555 1_555
C102 C103 1_555 1_555
C103 C104 1_555 1_555
C104 H86 1_555 1_555
C107_2 C102 1_555 1_555
C110 C102 1_555 1_555
O15 C110 1_555 1_555
C112 H85 1_555 1_555
H87 C103 1_555 1_555
C113 C104 1_555 1_555
O24 C110 1_555 1_555
H91 C118 1_555 1_555
C123_2 C118 1_555 1_555
H100 C123_2 1_555 1_555
C131 H101 1_555 1_555
C133 C131 1_555 1_555
C134 C133 1_555 1_555
C136 C134 1_555 1_555
N10 Cd13 1_555 1_555
H105 C136 1_555 1_555
H106 C134 1_555 1_555
C143 H109 1_555 1_555
C144 H110 1_555 1_555
O23 Cd13 1_555 1_555
C145 H111 1_555 1_555
H114 C140 1_555 1_555
H115 C145 1_555 1_555
H117 C145 1_555 1_555
C150 C143 1_555 1_555
H118 C150 1_555 1_555
C151 C140 1_555 1_555
C81 N9 1_555 1_555
C88 C89 1_555 1_555
C95 C96 1_555 1_555
C95 N7 1_555 1_555
C112 C113 1_555 1_555
C136 N10 1_555 1_555
C144 C146 1_555 1_555
C145 C151 1_555 1_555
C146 C151 1_555 1_555
C150 N12 1_555 1_555
C119 H92 1_555 1_555
C126 C119 1_555 1_555
H93 C126 1_555 1_555
C130 C116 1_555 1_555
H97 C116 1_555 1_555
C119 C130 1_555 1_555
C105 C106 1_555 1_555
C106 H81 1_555 1_555
C108 C106 1_555 1_555
C111 C105 1_555 1_555
H84 C111 1_555 1_555
H88 C108 1_555 1_555
C77 H61 1_555 1_555
C78 C77 1_555 1_555
H62 C78 1_555 1_555
H66 C83 1_555 1_555
C84 C83 1_555 1_555
C85 C84 1_555 1_555
C86 C85 1_555 1_555
H67 C86 1_555 1_555
H70 C91 1_555 1_555
C92 C91 1_555 1_555
C93 C92 1_555 1_555
H71 C93 1_555 1_555
C94 C93 1_555 1_555
H72 C94 1_555 1_555
C98 C85 1_555 1_555
H78 C98 1_555 1_555
H79 C98 1_555 1_555
H80 C98 1_555 1_555
C121 C122 1_555 1_555
C124 C121 1_555 1_555
O23 C122 1_555 1_555
C128 C124 1_555 1_555
H98 C124 1_555 1_555

#END
