
###############################################################################
#
# This file contains modified crystal structure data generated from the
# MOF subset of the Cambridge Structural Database (CSD) v543 
# hosted by the Cambridge Crystallographic Data Centre (CCDC).
#
# This work is licensed under the Creative Commons
# Attribution-NonCommercial-ShareAlike 4.0 International License.
# To view a copy of this license, visit
# http://creativecommons.org/licenses/by-nc-sa/4.0/
# or send a letter to
# Creative Commons, PO Box 1866, Mountain View, CA 94042, USA.
#
# CIF created using the CSD Python API on 29 September 2022
# The structure has been converted into the P1 space group
# The structure has a 3D framework
# The original CSD entry GAPPAS is in the triclinic crystal system
# The framework has been calculated to contain at least 10.0% void space
# The void calculation uses a probe of radius 1.32A, grid spacing 0.4
#
###############################################################################

data_GAPPAS
_chemical_formula_moiety         '(C76 H52 Cd4 N4 O24)n'
_symmetry_cell_setting           triclinic
_symmetry_space_group_name_H-M   'P 1'
_symmetry_Int_Tables_number      1
_space_group_name_Hall           'P 1'
loop_
_symmetry_equiv_pos_site_id
_symmetry_equiv_pos_as_xyz
1 x,y,z
_cell_length_a                   7.8213(3)
_cell_length_b                   15.1874(5)
_cell_length_c                   17.6388(5)
_cell_angle_alpha                72.6380(10)
_cell_angle_beta                 81.6690(10)
_cell_angle_gamma                82.1460(10)
_cell_volume                     1968.96
loop_
_atom_site_label
_atom_site_type_symbol
_atom_site_fract_x
_atom_site_fract_y
_atom_site_fract_z
_atom_site_U_iso_or_equiv
_atom_site_thermal_displace_type
O7 O 0.0733(3) 0.46400(15) 0.75329(15) 0.0300 Uani
O8 O 0.3492(3) 0.44209(16) 0.77194(15) 0.0342 Uani
C9 C 0.2224(4) 0.3182(2) 0.74959(19) 0.0234 Uani
C10 C 0.2161(4) 0.4141(2) 0.75907(19) 0.0237 Uani
C17 C 0.0728(4) 0.2715(2) 0.76982(19) 0.0226 Uani
C20 C 0.0834(5) 0.1822(2) 0.7623(2) 0.0281 Uani
C26 C 0.3764(5) 0.2765(3) 0.7205(2) 0.0332 Uani
H15 H 0.476676 0.306913 0.708109 0.0400 Uiso
C27 C 0.2359(5) 0.1413(2) 0.7318(2) 0.0364 Uani
H16 H 0.240811 0.082013 0.726140 0.0440 Uiso
C33 C 0.3804(5) 0.1895(3) 0.7099(2) 0.0388 Uani
H21 H 0.482367 0.163246 0.687581 0.0470 Uiso
Cd6 Cd 0.59205(3) 0.40715(2) 0.83975(2) 0.0244 Uani
Cd10 Cd 0.10331(3) 0.56518(2) 0.82407(2) 0.0243 Uani
O1 O 0.8712(3) 0.32332(15) 0.86850(14) 0.0277 Uani
O9 O 0.7798(3) 0.32988(17) 0.75387(14) 0.0315 Uani
O11 O 0.9380(4) 0.13538(16) 0.79294(15) 0.0381 Uani
C2 C 0.8969(4) 0.3116(2) 0.7994(2) 0.0242 Uani
C18 C 0.3667(5) 0.0128(2) 0.5565(2) 0.0324 Uani
H12 H 0.275875 0.021962 0.594574 0.0390 Uiso
C21 C 0.8862(5) 0.0792(2) 0.7533(2) 0.0298 Uani
C22 C 0.4315(5) 0.0885(2) 0.5007(2) 0.0319 Uani
H13 H 0.384698 0.147857 0.501902 0.0380 Uiso
C36 C 0.8627(5) 0.1091(3) 0.6739(2) 0.0381 Uani
H24 H 0.890339 0.167433 0.642369 0.0460 Uiso
C37 C 0.7961(5) 0.0494(3) 0.6421(3) 0.0480 Uani
H25 H 0.779452 0.068322 0.588234 0.0580 Uiso
N4 N 0.7740(4) 0.31237(19) 0.26876(17) 0.0284 Uani
C47 C 0.5666(4) 0.0775(2) 0.44244(19) 0.0266 Uani
C50 C 0.6366(4) 0.1583(2) 0.38207(19) 0.0271 Uani
C51 C 0.6130(5) 0.3179(2) 0.3042(2) 0.0299 Uani
H35 H 0.545598 0.374578 0.290500 0.0360 Uiso
C52 C 0.5397(5) 0.2444(2) 0.3603(2) 0.0326 Uani
H36 H 0.426140 0.252215 0.383401 0.0390 Uiso
C53 C 0.8671(5) 0.2292(2) 0.2892(2) 0.0353 Uani
H37 H 0.979938 0.223328 0.264705 0.0420 Uiso
C54 C 0.8048(5) 0.1529(2) 0.3440(2) 0.0355 Uani
H38 H 0.875094 0.097110 0.355918 0.0420 Uiso
Cd13 Cd 0.89669(3) 0.43482(2) 0.17593(2) 0.0243 Uani
O2 O 0.6018(3) 0.51907(16) 0.89880(15) 0.0331 Uani
O3 O 0.8298(3) 0.64553(15) 0.77816(14) 0.0297 Uani
O5 O 0.7097(3) 0.51992(16) 0.73082(14) 0.0326 Uani
H3 H 0.733891 0.567080 0.746427 0.0390 Uiso
H4 H 0.819591 0.492980 0.716927 0.0390 Uiso
O6 O 0.8963(3) 0.64937(17) 0.89453(15) 0.0326 Uani
N1 N 0.4613(4) 0.28077(18) 0.91489(17) 0.0267 Uani
O10 O 0.3159(4) 0.53717(18) 0.90510(17) 0.0438 Uani
O12 O 0.7670(3) 0.84409(17) 0.8148(2) 0.0509 Uani
C1 C 0.5081(4) 0.2000(2) 0.8977(2) 0.0286 Uani
H5 H 0.616810 0.191492 0.869966 0.0340 Uiso
N2 N 0.2260(4) 0.68763(19) 0.73124(17) 0.0284 Uani
C3 C 0.3067(4) 0.2905(2) 0.95682(19) 0.0255 Uani
H6 H 0.273991 0.345477 0.970580 0.0310 Uiso
C4 C 0.1941(4) 0.2230(2) 0.98046(19) 0.0246 Uani
C5 C 0.4032(4) 0.1295(2) 0.9190(2) 0.0280 Uani
H8 H 0.441471 0.074438 0.906074 0.0340 Uiso
C6 C 0.2393(4) 0.1400(2) 0.95988(18) 0.0225 Uani
C7 C 0.7903(4) 0.6642(2) 0.8441(2) 0.0261 Uani
C8 C 0.1168(4) 0.0685(2) 0.97978(18) 0.0223 Uani
C11 C 0.4587(5) 0.5685(2) 0.89878(19) 0.0276 Uani
C13 C 0.3050(5) 0.7260(3) 0.8939(2) 0.0334 Uani
H10 H 0.202758 0.698147 0.914196 0.0400 Uiso
C15 C 0.6132(4) 0.7138(2) 0.8582(2) 0.0264 Uani
C16 C 0.4334(4) 0.9225(2) 0.55756(19) 0.0266 Uani
C19 C 0.4606(5) 0.6713(2) 0.8858(2) 0.0273 Uani
C23 C 0.3634(4) 0.8417(2) 0.61793(19) 0.0271 Uani
C24 C 0.3016(5) 0.8212(3) 0.8719(2) 0.0403 Uani
H14 H 0.196146 0.857098 0.875692 0.0490 Uiso
C25 C 0.6076(5) 0.8100(2) 0.8381(2) 0.0348 Uani
C28 C 0.3870(5) 0.6821(2) 0.6958(2) 0.0299 Uani
H17 H 0.454402 0.625422 0.709500 0.0360 Uiso
C29 C 0.4603(5) 0.7556(2) 0.6397(2) 0.0326 Uani
H18 H 0.573860 0.747785 0.616599 0.0390 Uiso
C30 C 0.8466(5) 0.9923(2) 0.8011(2) 0.0311 Uani
H19 H 0.863137 0.973470 0.854964 0.0370 Uiso
C31 C 0.4523(5) 0.8643(3) 0.8442(3) 0.0405 Uani
H20 H 0.449285 0.928539 0.829928 0.0480 Uiso
C32 C 0.7824(5) 0.9345(2) 0.7675(2) 0.0349 Uani
C34 C 0.1329(5) 0.7708(2) 0.7108(2) 0.0353 Uani
H22 H 0.020062 0.776672 0.735295 0.0420 Uiso
C35 C 0.1952(5) 0.8471(2) 0.6560(2) 0.0355 Uani
H23 H 0.124906 0.902890 0.644082 0.0420 Uiso
C38 C 0.7539(5) 0.9624(3) 0.6884(3) 0.0476 Uani
H26 H 0.707107 0.923727 0.666451 0.0570 Uiso
C48 C 0.6333(5) 0.9872(2) 0.4435(2) 0.0324 Uani
H33 H 0.724125 0.978038 0.405426 0.0390 Uiso
C49 C 0.5685(5) 0.9115(2) 0.4993(2) 0.0319 Uani
H34 H 0.615302 0.852143 0.498098 0.0380 Uiso
C14 C 0.0619(4) 0.9074(2) 0.01630(19) 0.0261 Uani
H11 H 0.104483 0.845166 0.027405 0.0310 Uiso
O16 O 0.0193(3) 0.54962(16) 0.07090(14) 0.0324 Uani
H39 H 0.057769 0.597639 0.081299 0.0390 Uiso
H40 H 0.124969 0.521939 0.056699 0.0390 Uiso
O28 O 0.1702(3) 0.35447(15) 0.22184(14) 0.0297 Uani
O30 O 0.1037(3) 0.35063(17) 0.10547(15) 0.0326 Uani
O4 O 0.9807(3) 0.45038(16) 0.92910(14) 0.0324 Uani
H1 H 0.942231 0.402361 0.918701 0.0390 Uiso
H2 H 0.875031 0.478061 0.943301 0.0390 Uiso
C46 C 0.9381(4) 0.0926(2) 0.98370(19) 0.0261 Uani
H32 H 0.895517 0.154834 0.972595 0.0310 Uiso
N3 N 0.5387(4) 0.71923(18) 0.08511(17) 0.0267 Uani
C39 C 0.4919(4) 0.8000(2) 0.1023(2) 0.0286 Uani
H27 H 0.383190 0.808508 0.130034 0.0340 Uiso
C40 C 0.6933(4) 0.7095(2) 0.04318(19) 0.0255 Uani
H28 H 0.726009 0.654523 0.029420 0.0310 Uiso
C41 C 0.8059(4) 0.7770(2) 0.01954(19) 0.0246 Uani
C42 C 0.5968(4) 0.8705(2) 0.0810(2) 0.0280 Uani
H30 H 0.558529 0.925562 0.093926 0.0340 Uiso
C43 C 0.7607(4) 0.8600(2) 0.04012(18) 0.0225 Uani
C44 C 0.8832(4) 0.9315(2) 0.02022(18) 0.0223 Uani
Cd3 Cd 0.40795(3) 0.59285(2) 0.16025(2) 0.0244 Uani
O14 O 0.3982(3) 0.48093(16) 0.10120(15) 0.0331 Uani
O17 O 0.2903(3) 0.48008(16) 0.26918(14) 0.0326 Uani
H41 H 0.266109 0.432920 0.253573 0.0390 Uiso
H42 H 0.180409 0.507020 0.283073 0.0390 Uiso
O22 O 0.6841(4) 0.46283(18) 0.09490(17) 0.0438 Uani
O24 O 0.2330(3) 0.15591(17) 0.1852(2) 0.0509 Uani
C56 C 0.2097(4) 0.3358(2) 0.1559(2) 0.0261 Uani
C59 C 0.5413(5) 0.4315(2) 0.10122(19) 0.0276 Uani
C60 C 0.6950(5) 0.2740(3) 0.1061(2) 0.0334 Uani
H43 H 0.797242 0.301853 0.085804 0.0400 Uiso
C61 C 0.3868(4) 0.2862(2) 0.1418(2) 0.0264 Uani
C63 C 0.5394(5) 0.3287(2) 0.1142(2) 0.0273 Uani
C66 C 0.6984(5) 0.1788(3) 0.1281(2) 0.0403 Uani
H44 H 0.803854 0.142902 0.124308 0.0490 Uiso
C67 C 0.3924(5) 0.1900(2) 0.1619(2) 0.0348 Uani
C70 C 0.1534(5) 0.0077(2) 0.1989(2) 0.0311 Uani
H47 H 0.136863 0.026530 0.145036 0.0370 Uiso
C71 C 0.5477(5) 0.1357(3) 0.1558(3) 0.0405 Uani
H48 H 0.550715 0.071461 0.170072 0.0480 Uiso
C72 C 0.2176(5) 0.0655(2) 0.2325(2) 0.0349 Uani
C76 C 0.2461(5) 0.0376(3) 0.3116(3) 0.0476 Uani
H52 H 0.292893 0.076273 0.333549 0.0570 Uiso
O26 O 0.1288(3) 0.67668(15) 0.13150(14) 0.0277 Uani
O32 O 0.9267(3) 0.53600(15) 0.24671(15) 0.0300 Uani
O34 O 0.6508(3) 0.55791(16) 0.22806(15) 0.0342 Uani
O36 O 0.2202(3) 0.67012(17) 0.24613(14) 0.0315 Uani
O23 O 0.0620(4) 0.86462(16) 0.20706(15) 0.0381 Uani
C55 C 0.1031(4) 0.6884(2) 0.2006(2) 0.0242 Uani
C65 C 0.1138(5) 0.9208(2) 0.2467(2) 0.0298 Uani
C74 C 0.1373(5) 0.8909(3) 0.3261(2) 0.0381 Uani
H50 H 0.109661 0.832567 0.357631 0.0460 Uiso
C75 C 0.2039(5) 0.9506(3) 0.3579(3) 0.0480 Uani
H51 H 0.220548 0.931678 0.411766 0.0580 Uiso
C57 C 0.7776(4) 0.6818(2) 0.25041(19) 0.0234 Uani
C58 C 0.7839(4) 0.5859(2) 0.24093(19) 0.0237 Uani
C62 C 0.9272(4) 0.7285(2) 0.23018(19) 0.0226 Uani
C64 C 0.9166(5) 0.8178(2) 0.2377(2) 0.0281 Uani
C68 C 0.6236(5) 0.7235(3) 0.2795(2) 0.0332 Uani
H45 H 0.523324 0.693087 0.291891 0.0400 Uiso
C69 C 0.7641(5) 0.8587(2) 0.2682(2) 0.0364 Uani
H46 H 0.759189 0.917987 0.273860 0.0440 Uiso
C73 C 0.6196(5) 0.8105(3) 0.2901(2) 0.0388 Uani
H49 H 0.517633 0.836754 0.312419 0.0470 Uiso
H7 H 0.088255 0.232320 0.010032 0.0300 Uiso
C12 C 0.1767(4) 0.9741(2) 0.99625(19) 0.0260 Uani
H9 H 0.295441 0.956200 0.993617 0.0310 Uiso
C45 C 0.8233(4) 0.0259(2) 0.00375(19) 0.0260 Uani
H31 H 0.704559 0.043800 0.006383 0.0310 Uiso
H29 H 0.911745 0.767680 0.989968 0.0300 Uiso
loop_
_atom_site_aniso_label
_atom_site_aniso_U_11
_atom_site_aniso_U_22
_atom_site_aniso_U_33
_atom_site_aniso_U_23
_atom_site_aniso_U_13
_atom_site_aniso_U_12
O7 0.02 0.0209 0.05 -0.0126 -0.0006 -0.0028
O8 0.0268 0.0267 0.0504 -0.0048 -0.0147 -0.0096
C9 0.018 0.0233 0.0303 -0.009 -0.0032 -0.0029
C10 0.0232 0.0228 0.0261 -0.0065 -0.0015 -0.0076
C17 0.0201 0.0199 0.0291 -0.0083 -0.0048 -0.0011
C20 0.0265 0.0234 0.0371 -0.0114 -0.0032 -0.0055
C26 0.02 0.038 0.045 -0.0162 -0.0034 -0.0043
C27 0.039 0.0261 0.05 -0.0212 -0.0076 0.0026
C33 0.024 0.043 0.055 -0.0275 -0.0037 0.0076
Cd6 0.01826 0.01797 0.0382 -0.00853 -0.00255 -0.00542
Cd10 0.02269 0.01572 0.03482 -0.00563 -0.00527 -0.00443
O1 0.0251 0.0231 0.0356 -0.0099 0.001 -0.0055
O9 0.0217 0.0345 0.0414 -0.0137 -0.0053 -0.0053
O11 0.0449 0.0282 0.0487 -0.0222 0.0086 -0.0187
C2 0.0214 0.0172 0.0354 -0.0082 -0.0009 -0.0077
C18 0.03 0.026 0.0358 -0.0059 0.0079 -0.0026
C21 0.0271 0.0216 0.045 -0.0165 -0.0023 -0.0029
C22 0.032 0.0229 0.0366 -0.0056 0.004 -0.0026
C36 0.031 0.034 0.046 -0.0067 -0.0025 -0.004
C37 0.034 0.068 0.044 -0.019 -0.0108 0.002
N4 0.0276 0.0233 0.032 -0.0054 0.0002 -0.0035
C47 0.0223 0.0262 0.0283 -0.0032 -0.0017 -0.0034
C50 0.0252 0.0259 0.0285 -0.0057 -0.0007 -0.0038
C51 0.027 0.0249 0.035 -0.0048 -0.0052 0.0006
C52 0.0238 0.0301 0.0372 -0.0034 0.0017 0.0005
C53 0.027 0.0237 0.047 -0.0044 0.0096 -0.0021
C54 0.03 0.023 0.045 -0.0035 0.0071 0.0005
Cd13 0.02269 0.01572 0.03482 -0.00563 -0.00527 -0.00443
O2 0.0297 0.0261 0.0455 -0.0147 0.0048 -0.0088
O3 0.0265 0.0253 0.039 -0.0132 0.0024 -0.0058
O5 0.0312 0.0279 0.0418 -0.012 -0.0055 -0.0072
O6 0.0247 0.0324 0.045 -0.0179 -0.0054 -0.0004
N1 0.023 0.0195 0.0367 -0.0049 -0.0031 -0.0063
O10 0.0399 0.0339 0.0577 0.0015 -0.0234 -0.018
O12 0.0282 0.019 0.104 -0.0148 -0.0034 -0.0071
C1 0.0181 0.022 0.043 -0.0078 0.0022 -0.0021
N2 0.0276 0.0233 0.032 -0.0054 0.0002 -0.0035
C3 0.0258 0.0214 0.0301 -0.0091 -0.0011 -0.0036
C4 0.0191 0.0227 0.0311 -0.0075 0.0024 -0.0047
C5 0.0254 0.0192 0.0384 -0.0077 0.001 -0.0049
C6 0.0208 0.0192 0.0251 -0.0002 -0.004 -0.0056
C7 0.0249 0.0157 0.0402 -0.0106 0.0007 -0.0088
C8 0.0222 0.0205 0.0243 -0.0049 0.0001 -0.0086
C11 0.032 0.029 0.0241 -0.0068 -0.0014 -0.0144
C13 0.0222 0.04 0.045 -0.0229 0.002 -0.0084
C15 0.0231 0.025 0.0369 -0.0164 -0.0037 -0.0042
C16 0.0223 0.0262 0.0283 -0.0032 -0.0017 -0.0034
C19 0.0283 0.0289 0.03 -0.015 -0.001 -0.0081
C23 0.0252 0.0259 0.0285 -0.0057 -0.0007 -0.0038
C24 0.025 0.046 0.058 -0.033 0.0001 0.0046
C25 0.0245 0.027 0.06 -0.0214 -0.0039 -0.0068
C28 0.027 0.0249 0.035 -0.0048 -0.0052 0.0006
C29 0.0238 0.0301 0.0372 -0.0034 0.0017 0.0005
C30 0.028 0.0247 0.0425 -0.0125 -0.0016 -0.0045
C31 0.034 0.0264 0.068 -0.0252 -0.005 -0.0007
C32 0.0231 0.0221 0.064 -0.0192 -0.0021 -0.0043
C34 0.027 0.0237 0.047 -0.0044 0.0096 -0.0021
C35 0.03 0.023 0.045 -0.0035 0.0071 0.0005
C38 0.029 0.052 0.077 -0.039 -0.009 -0.0054
C48 0.03 0.026 0.0358 -0.0059 0.0079 -0.0026
C49 0.032 0.0229 0.0366 -0.0056 0.004 -0.0026
C14 0.0285 0.0147 0.0317 -0.0017 -0.0006 -0.004
O16 0.031 0.026 0.0411 -0.0069 -0.007 -0.0084
O28 0.0265 0.0253 0.039 -0.0132 0.0024 -0.0058
O30 0.0247 0.0324 0.045 -0.0179 -0.0054 -0.0004
O4 0.031 0.026 0.0411 -0.0069 -0.007 -0.0084
C46 0.0285 0.0147 0.0317 -0.0017 -0.0006 -0.004
N3 0.023 0.0195 0.0367 -0.0049 -0.0031 -0.0063
C39 0.0181 0.022 0.043 -0.0078 0.0022 -0.0021
C40 0.0258 0.0214 0.0301 -0.0091 -0.0011 -0.0036
C41 0.0191 0.0227 0.0311 -0.0075 0.0024 -0.0047
C42 0.0254 0.0192 0.0384 -0.0077 0.001 -0.0049
C43 0.0208 0.0192 0.0251 -0.0002 -0.004 -0.0056
C44 0.0222 0.0205 0.0243 -0.0049 0.0001 -0.0086
Cd3 0.01826 0.01797 0.0382 -0.00853 -0.00255 -0.00542
O14 0.0297 0.0261 0.0455 -0.0147 0.0048 -0.0088
O17 0.0312 0.0279 0.0418 -0.012 -0.0055 -0.0072
O22 0.0399 0.0339 0.0577 0.0015 -0.0234 -0.018
O24 0.0282 0.019 0.104 -0.0148 -0.0034 -0.0071
C56 0.0249 0.0157 0.0402 -0.0106 0.0007 -0.0088
C59 0.032 0.029 0.0241 -0.0068 -0.0014 -0.0144
C60 0.0222 0.04 0.045 -0.0229 0.002 -0.0084
C61 0.0231 0.025 0.0369 -0.0164 -0.0037 -0.0042
C63 0.0283 0.0289 0.03 -0.015 -0.001 -0.0081
C66 0.025 0.046 0.058 -0.033 0.0001 0.0046
C67 0.0245 0.027 0.06 -0.0214 -0.0039 -0.0068
C70 0.028 0.0247 0.0425 -0.0125 -0.0016 -0.0045
C71 0.034 0.0264 0.068 -0.0252 -0.005 -0.0007
C72 0.0231 0.0221 0.064 -0.0192 -0.0021 -0.0043
C76 0.029 0.052 0.077 -0.039 -0.009 -0.0054
O26 0.0251 0.0231 0.0356 -0.0099 0.001 -0.0055
O32 0.02 0.0209 0.05 -0.0126 -0.0006 -0.0028
O34 0.0268 0.0267 0.0504 -0.0048 -0.0147 -0.0096
O36 0.0217 0.0345 0.0414 -0.0137 -0.0053 -0.0053
O23 0.0449 0.0282 0.0487 -0.0222 0.0086 -0.0187
C55 0.0214 0.0172 0.0354 -0.0082 -0.0009 -0.0077
C65 0.0271 0.0216 0.045 -0.0165 -0.0023 -0.0029
C74 0.031 0.034 0.046 -0.0067 -0.0025 -0.004
C75 0.034 0.068 0.044 -0.019 -0.0108 0.002
C57 0.018 0.0233 0.0303 -0.009 -0.0032 -0.0029
C58 0.0232 0.0228 0.0261 -0.0065 -0.0015 -0.0076
C62 0.0201 0.0199 0.0291 -0.0083 -0.0048 -0.0011
C64 0.0265 0.0234 0.0371 -0.0114 -0.0032 -0.0055
C68 0.02 0.038 0.045 -0.0162 -0.0034 -0.0043
C69 0.039 0.0261 0.05 -0.0212 -0.0076 0.0026
C73 0.024 0.043 0.055 -0.0275 -0.0037 0.0076
C12 0.0211 0.0225 0.0325 -0.0051 -0.0019 -0.0034
C45 0.0211 0.0225 0.0325 -0.0051 -0.0019 -0.0034
loop_
_geom_bond_atom_site_label_1
_geom_bond_atom_site_label_2
_geom_bond_site_symmetry_1
_geom_bond_site_symmetry_2
O7 C10 1_555 1_555
O8 C10 1_555 1_555
C9 C10 1_555 1_555
C17 C9 1_555 1_555
C20 C17 1_555 1_555
C26 C9 1_555 1_555
H15 C26 1_555 1_555
C27 C20 1_555 1_555
H16 C27 1_555 1_555
C33 C26 1_555 1_555
H21 C33 1_555 1_555
Cd6 O8 1_555 1_555
Cd10 O7 1_555 1_555
O8 Cd10 1_555 1_555
C27 C33 1_555 1_555
O1 C2 1_555 1_555
O9 C2 1_555 1_555
C18 H12 1_555 1_555
C21 O11 1_555 1_555
C22 C18 1_555 1_555
H13 C22 1_555 1_555
C36 C21 1_555 1_555
H24 C36 1_555 1_555
C37 C36 1_555 1_555
H25 C37 1_555 1_555
N4 C51 1_555 1_555
C47 C22 1_555 1_555
C50 C47 1_555 1_555
C51 H35 1_555 1_555
C52 C50 1_555 1_555
H36 C52 1_555 1_555
C53 N4 1_555 1_555
H37 C53 1_555 1_555
C54 C50 1_555 1_555
H38 C54 1_555 1_555
Cd6 O1 1_555 1_555
Cd13 N4 1_555 1_555
O9 Cd6 1_555 1_555
C51 C52 1_555 1_555
C53 C54 1_555 1_555
Cd6 O2 1_555 1_555
O2 C11 1_555 1_555
O3 C7 1_555 1_555
O5 Cd6 1_555 1_555
H3 O5 1_555 1_555
H4 O5 1_555 1_555
O6 C7 1_555 1_555
N1 Cd6 1_555 1_555
O10 Cd10 1_555 1_555
O12 C25 1_555 1_555
C1 N1 1_555 1_555
H5 C1 1_555 1_555
N2 Cd10 1_555 1_555
C3 N1 1_555 1_555
H6 C3 1_555 1_555
C4 C3 1_555 1_555
C5 C1 1_555 1_555
H8 C5 1_555 1_555
C6 C4 1_555 1_555
C7 C15 1_555 1_555
C8 C6 1_555 1_555
C11 O10 1_555 1_555
C13 H10 1_555 1_555
C15 C19 1_555 1_555
C19 C11 1_555 1_555
C23 C16 1_555 1_555
C24 C13 1_555 1_555
H14 C24 1_555 1_555
C25 C15 1_555 1_555
C28 N2 1_555 1_555
H17 C28 1_555 1_555
C29 C23 1_555 1_555
H18 C29 1_555 1_555
H19 C30 1_555 1_555
C31 C24 1_555 1_555
H20 C31 1_555 1_555
C32 O12 1_555 1_555
C34 N2 1_555 1_555
H22 C34 1_555 1_555
C35 C23 1_555 1_555
H23 C35 1_555 1_555
C38 C32 1_555 1_555
H26 C38 1_555 1_555
H33 C48 1_555 1_555
C49 C16 1_555 1_555
H34 C49 1_555 1_555
C5 C6 1_555 1_555
C13 C19 1_555 1_555
C25 C31 1_555 1_555
C28 C29 1_555 1_555
C30 C32 1_555 1_555
C34 C35 1_555 1_555
C48 C49 1_555 1_555
H11 C14 1_555 1_555
O16 H39 1_555 1_555
H40 O16 1_555 1_555
O4 H1 1_555 1_555
H2 O4 1_555 1_555
H32 C46 1_555 1_555
N3 C39 1_555 1_555
C39 H27 1_555 1_555
C40 N3 1_555 1_555
H28 C40 1_555 1_555
C41 C40 1_555 1_555
C42 C39 1_555 1_555
H30 C42 1_555 1_555
C43 C41 1_555 1_555
Cd3 N3 1_555 1_555
O14 Cd3 1_555 1_555
O28 C56 1_555 1_555
O17 Cd3 1_555 1_555
H41 O17 1_555 1_555
H42 O17 1_555 1_555
O30 C56 1_555 1_555
O22 Cd13 1_555 1_555
O24 C67 1_555 1_555
C56 C61 1_555 1_555
C59 O14 1_555 1_555
C60 H43 1_555 1_555
C61 C63 1_555 1_555
C63 C59 1_555 1_555
C66 C60 1_555 1_555
H44 C66 1_555 1_555
C67 C61 1_555 1_555
H47 C70 1_555 1_555
C71 C66 1_555 1_555
H48 C71 1_555 1_555
C72 O24 1_555 1_555
C76 C72 1_555 1_555
H52 C76 1_555 1_555
O26 Cd3 1_555 1_555
O32 Cd13 1_555 1_555
O34 Cd3 1_555 1_555
O36 Cd3 1_555 1_555
C42 C43 1_555 1_555
C43 C44 1_555 1_555
Cd13 O34 1_555 1_555
O22 C59 1_555 1_555
C60 C63 1_555 1_555
C67 C71 1_555 1_555
C70 C72 1_555 1_555
O26 C55 1_555 1_555
O36 C55 1_555 1_555
C65 O23 1_555 1_555
C74 C65 1_555 1_555
H50 C74 1_555 1_555
C75 C74 1_555 1_555
H51 C75 1_555 1_555
O32 C58 1_555 1_555
O34 C58 1_555 1_555
C57 C58 1_555 1_555
C62 C57 1_555 1_555
C64 C62 1_555 1_555
C68 C57 1_555 1_555
H45 C68 1_555 1_555
C69 C64 1_555 1_555
H46 C69 1_555 1_555
C73 C68 1_555 1_555
H49 C73 1_555 1_555
C69 C73 1_555 1_555
H9 C12 1_555 1_555
H31 C45 1_555 1_555

#END
