
###############################################################################
#
# This file contains modified crystal structure data generated from the
# MOF subset of the Cambridge Structural Database (CSD) v543 
# hosted by the Cambridge Crystallographic Data Centre (CCDC).
#
# This work is licensed under the Creative Commons
# Attribution-NonCommercial-ShareAlike 4.0 International License.
# To view a copy of this license, visit
# http://creativecommons.org/licenses/by-nc-sa/4.0/
# or send a letter to
# Creative Commons, PO Box 1866, Mountain View, CA 94042, USA.
#
# CIF created using the CSD Python API on 29 September 2022
# The structure has been converted into the P1 space group
# The structure has a 3D framework
# The original CSD entry GARLOD is in the monoclinic crystal system
# The framework has been calculated to contain at least 10.0% void space
# The void calculation uses a probe of radius 1.32A, grid spacing 0.4
#
###############################################################################

data_GARLOD
_chemical_formula_moiety         '(C112 H96 N8 O32 Sm4)n'
_symmetry_cell_setting           triclinic
_symmetry_space_group_name_H-M   'P 1'
_symmetry_Int_Tables_number      1
_space_group_name_Hall           'P 1'
loop_
_symmetry_equiv_pos_site_id
_symmetry_equiv_pos_as_xyz
1 x,y,z
_cell_length_a                   15.858(5)
_cell_length_b                   10.522(5)
_cell_length_c                   20.970(5)
_cell_angle_alpha                90
_cell_angle_beta                 107.520(5)
_cell_angle_gamma                90
_cell_volume                     3336.7
loop_
_atom_site_label
_atom_site_type_symbol
_atom_site_fract_x
_atom_site_fract_y
_atom_site_fract_z
Sm6 Sm 0.39932(2) 0.92073(3) 0.046077(16)
C12 C 0.0417(6) 0.8543(9) 0.8511(5)
H7 H 0.0510 0.9257 0.8279
C13 C 0.1046(5) 0.8178(8) 0.9094(4)
C14 C 0.0914(6) 0.7098(10) 0.9414(4)
H8 H 0.1346 0.6830 0.9798
C15 C 0.0150(6) 0.6405(10) 0.9174(5)
H9 H 0.0069 0.5674 0.9398
C16 C 0.1873(5) 0.8930(8) 0.9373(4)
O1 O 0.2413(3) 0.8656(6) 0.9897(3)
O2 O 0.1954(4) 0.9898(7) 0.9011(4)
O3 O 0.6056(4) 0.0657(5) 0.8379(3)
Sm2 Sm 0.39932(2) 0.07927(3) 0.546077(16)
Sm3 Sm 0.60068(2) 0.07927(3) 0.953923(16)
C1 C 0.7487(4) 0.7279(7) 0.7551(4)
C2 C 0.6965(5) 0.7527(7) 0.6890(3)
H1 H 0.7068 0.7081 0.6538
C3 C 0.6294(5) 0.8437(7) 0.6760(3)
C4 C 0.6133(5) 0.9138(7) 0.7272(4)
H2 H 0.5685 0.9742 0.7182
C5 C 0.6662(5) 0.8912(7) 0.7920(4)
C6 C 0.7312(5) 0.8002(7) 0.8063(4)
H3 H 0.7643 0.7860 0.8505
C7 C 0.6540(5) 0.9683(8) 0.8495(4)
C8 C 0.5760(5) 0.8665(7) 0.6040(3)
C9 C 0.8646(5) 0.6015(8) 0.8356(4)
H4 H 0.8795 0.5119 0.8375
H5 H 0.8296 0.6158 0.8657
C10 C 0.9495(5) 0.6785(8) 0.8597(4)
C11 C 0.9652(6) 0.7848(9) 0.8272(4)
H6 H 0.9230 0.8105 0.7880
C17 C 0.8397(5) 0.5777(8) 0.7138(4)
H10 H 0.9005 0.5496 0.7316
H11 H 0.8378 0.6432 0.6809
C18 C 0.7831(5) 0.4661(7) 0.6794(4)
C19 C 0.7055(6) 0.4321(8) 0.6919(4)
H12 H 0.6877 0.4755 0.7243
C20 C 0.6536(5) 0.3340(8) 0.6567(4)
H13 H 0.6012 0.3130 0.6655
C21 C 0.6786(5) 0.2679(7) 0.6094(4)
C22 C 0.6194(5) 0.1679(7) 0.5690(4)
C23 C 0.7587(6) 0.2981(9) 0.5976(5)
H14 H 0.7778 0.2511 0.5670
C24 C 0.8092(6) 0.3984(10) 0.6317(5)
H15 H 0.8611 0.4205 0.6225
C25 C 0.3817(12) 0.4070(13) 0.5605(8)
C26 C 0.3940(11) 0.6366(17) 0.5858(9)
H16 H 0.4060 0.6799 0.6279
H17 H 0.3369 0.6616 0.5572
H18 H 0.4384 0.6584 0.5651
C27 C 0.4005(14) 0.474(2) 0.6673(10)
H19 H 0.4070 0.5514 0.6924
H20 H 0.4506 0.4199 0.6865
H21 H 0.3475 0.4311 0.6685
C28 C 0.3257(12) 0.4314(17) 0.4892(8)
H22 H 0.3292 0.5196 0.4787
H23 H 0.2653 0.4095 0.4844
H24 H 0.3470 0.3805 0.4593
N1 N 0.8116(4) 0.6327(6) 0.7681(3)
N2 N 0.3950(8) 0.5033(10) 0.5966(6)
O4 O 0.5024(4) 0.9214(6) 0.5930(3)
O5 O 0.6084(4) 0.8307(5) 0.5594(2)
O6 O 0.3815(4) 0.2958(6) 0.5742(3)
O7 O 0.6889(4) 0.9292(6) 0.9084(3)
O8 O 0.5403(4) 0.1701(6) 0.5664(3)
O9 O 0.6526(4) 0.0874(5) 0.5386(3)
O10 O 0.2413(3) 0.1344(6) 0.4897(3)
O11 O 0.3944(4) 0.0657(5) 0.6621(3)
O13 O 0.3916(4) 0.1693(5) 0.4406(2)
Sm5 Sm 0.60068(2) 0.92073(3) 0.453923(16)
O14 O 0.3111(4) 0.9292(6) 0.5916(3)
O15 O 0.3474(4) 0.9126(5) 0.4614(3)
C28_2 C 0.6743(12) 0.4314(17) 0.0108(8)
H22_2 H 0.6708 0.5196 0.0213
H23_2 H 0.7347 0.4095 0.0156
H24_2 H 0.6530 0.3805 0.0407
O10_2 O 0.7587(3) 0.1344(6) 0.0103(3)
O13_2 O 0.6084(4) 0.1693(5) 0.0594(2)
C1_2 C 0.2513(4) 0.7279(7) 0.7449(4)
C2_2 C 0.3035(5) 0.7527(7) 0.8110(3)
H1_2 H 0.2932 0.7081 0.8462
C3_2 C 0.3706(5) 0.8437(7) 0.8240(3)
C4_2 C 0.3867(5) 0.9138(7) 0.7728(4)
H2_2 H 0.4315 0.9742 0.7818
C5_2 C 0.3338(5) 0.8912(7) 0.7080(4)
C6_2 C 0.2688(5) 0.8002(7) 0.6937(4)
H3_2 H 0.2357 0.7860 0.6495
C7_2 C 0.3460(5) 0.9683(8) 0.6505(4)
C8_2 C 0.4240(5) 0.8665(7) 0.8960(3)
C9_2 C 0.1354(5) 0.6015(8) 0.6644(4)
H4_2 H 0.1205 0.5119 0.6625
H5_2 H 0.1704 0.6158 0.6343
C10_2 C 0.0505(5) 0.6785(8) 0.6403(4)
C11_2 C 0.0348(6) 0.7848(9) 0.6728(4)
H6_2 H 0.0770 0.8105 0.7120
C17_2 C 0.1603(5) 0.5777(8) 0.7862(4)
H10_2 H 0.0995 0.5496 0.7684
H11_2 H 0.1622 0.6432 0.8191
C18_2 C 0.2169(5) 0.4661(7) 0.8206(4)
C19_2 C 0.2945(6) 0.4321(8) 0.8081(4)
H12_2 H 0.3123 0.4755 0.7757
C20_2 C 0.3464(5) 0.3340(8) 0.8433(4)
H13_2 H 0.3988 0.3130 0.8345
C21_2 C 0.3214(5) 0.2679(7) 0.8906(4)
C22_2 C 0.3806(5) 0.1679(7) 0.9310(4)
C23_2 C 0.2413(6) 0.2981(9) 0.9024(5)
H14_2 H 0.2222 0.2511 0.9330
C24_2 C 0.1908(6) 0.3984(10) 0.8683(5)
H15_2 H 0.1389 0.4205 0.8775
C25_2 C 0.6183(12) 0.4070(13) 0.9395(8)
C26_2 C 0.6060(11) 0.6366(17) 0.9142(9)
H16_2 H 0.5940 0.6799 0.8721
H17_2 H 0.6631 0.6616 0.9428
H18_2 H 0.5616 0.6584 0.9349
C27_2 C 0.5995(14) 0.474(2) 0.8327(10)
H19_2 H 0.5930 0.5514 0.8076
H20_2 H 0.5494 0.4199 0.8135
H21_2 H 0.6525 0.4311 0.8315
N1_2 N 0.1884(4) 0.6327(6) 0.7319(3)
N2_2 N 0.6050(8) 0.5033(10) 0.9034(6)
O4_2 O 0.4976(4) 0.9214(6) 0.9070(3)
O5_2 O 0.3916(4) 0.8307(5) 0.9406(2)
O6_2 O 0.6185(4) 0.2958(6) 0.9258(3)
O8_2 O 0.4597(4) 0.1701(6) 0.9336(3)
O9_2 O 0.3474(4) 0.0874(5) 0.9614(3)
O15_2 O 0.6526(4) 0.9126(5) 0.0386(3)
C12_2 C 0.9583(6) 0.8543(9) 0.6489(5)
H7_2 H 0.9490 0.9257 0.6721
C13_2 C 0.8954(5) 0.8178(8) 0.5906(4)
C14_2 C 0.9086(6) 0.7098(10) 0.5586(4)
H8_2 H 0.8654 0.6830 0.5202
C15_2 C 0.9850(6) 0.6405(10) 0.5826(5)
H9_2 H 0.9931 0.5674 0.5602
C16_2 C 0.8127(5) 0.8930(8) 0.5627(4)
O1_2 O 0.7587(3) 0.8656(6) 0.5103(3)
O2_2 O 0.8046(4) 0.9898(7) 0.5989(4)
O12 O 0.4976(4) 0.0786(6) 0.4070(3)
O14_2 O 0.6889(4) 0.0708(6) 0.4084(3)
C1_3 C 0.2513(4) 0.2721(7) 0.2449(4)
C2_3 C 0.3035(5) 0.2473(7) 0.3110(3)
H1_3 H 0.2932 0.2919 0.3462
C3_3 C 0.3706(5) 0.1563(7) 0.3240(3)
C4_3 C 0.3867(5) 0.0862(7) 0.2728(4)
H2_3 H 0.4315 0.0258 0.2818
C5_3 C 0.3338(5) 0.1088(7) 0.2080(4)
C6_3 C 0.2688(5) 0.1998(7) 0.1937(4)
H3_3 H 0.2357 0.2140 0.1495
C7_3 C 0.3460(5) 0.0317(8) 0.1505(4)
C8_3 C 0.4240(5) 0.1335(7) 0.3960(3)
C9_3 C 0.1354(5) 0.3985(8) 0.1644(4)
H4_3 H 0.1205 0.4881 0.1625
H5_3 H 0.1704 0.3842 0.1343
C10_3 C 0.0505(5) 0.3215(8) 0.1403(4)
C11_3 C 0.0348(6) 0.2152(9) 0.1728(4)
H6_3 H 0.0770 0.1895 0.2120
C17_3 C 0.1603(5) 0.4223(8) 0.2862(4)
H10_3 H 0.0995 0.4504 0.2684
H11_3 H 0.1622 0.3568 0.3191
C18_3 C 0.2169(5) 0.5339(7) 0.3206(4)
C19_3 C 0.2945(6) 0.5679(8) 0.3081(4)
H12_3 H 0.3123 0.5245 0.2757
C20_3 C 0.3464(5) 0.6660(8) 0.3433(4)
H13_3 H 0.3988 0.6870 0.3345
C21_3 C 0.3214(5) 0.7321(7) 0.3906(4)
C22_3 C 0.3806(5) 0.8321(7) 0.4310(4)
C23_3 C 0.2413(6) 0.7019(9) 0.4024(5)
H14_3 H 0.2222 0.7489 0.4330
C24_3 C 0.1908(6) 0.6016(10) 0.3683(5)
H15_3 H 0.1389 0.5795 0.3775
C25_3 C 0.6183(12) 0.5930(13) 0.4395(8)
C26_3 C 0.6060(11) 0.3634(17) 0.4142(9)
H16_3 H 0.5940 0.3201 0.3721
H17_3 H 0.6631 0.3384 0.4428
H18_3 H 0.5616 0.3416 0.4349
C27_3 C 0.5995(14) 0.526(2) 0.3327(10)
H19_3 H 0.5930 0.4486 0.3076
H20_3 H 0.5494 0.5801 0.3135
H21_3 H 0.6525 0.5689 0.3315
C28_3 C 0.6743(12) 0.5686(17) 0.5108(8)
H22_3 H 0.6708 0.4804 0.5213
H23_3 H 0.7347 0.5905 0.5156
H24_3 H 0.6530 0.6195 0.5407
N1_3 N 0.1884(4) 0.3673(6) 0.2319(3)
N2_3 N 0.6050(8) 0.4967(10) 0.4034(6)
O6_3 O 0.6185(4) 0.7042(6) 0.4258(3)
O7_2 O 0.3111(4) 0.0708(6) 0.0916(3)
O8_3 O 0.4597(4) 0.8299(6) 0.4336(3)
O11_2 O 0.6056(4) 0.9343(5) 0.3379(3)
O3_2 O 0.3944(4) 0.9343(5) 0.1621(3)
C12_3 C 0.9583(6) 0.1457(9) 0.1489(5)
H7_3 H 0.9490 0.0743 0.1721
C13_3 C 0.8954(5) 0.1822(8) 0.0906(4)
C14_3 C 0.9086(6) 0.2902(10) 0.0586(4)
H8_3 H 0.8654 0.3170 0.0202
C15_3 C 0.9850(6) 0.3595(10) 0.0826(5)
H9_3 H 0.9931 0.4326 0.0602
C16_3 C 0.8127(5) 0.1070(8) 0.0627(4)
O2_3 O 0.8046(4) 0.0102(7) 0.0989(4)
C12_4 C 0.0417(6) 0.1457(9) 0.3511(5)
H7_4 H 0.0510 0.0743 0.3279
C13_4 C 0.1046(5) 0.1822(8) 0.4094(4)
C14_4 C 0.0914(6) 0.2902(10) 0.4414(4)
H8_4 H 0.1346 0.3170 0.4798
C15_4 C 0.0150(6) 0.3595(10) 0.4174(5)
H9_4 H 0.0069 0.4326 0.4398
C16_4 C 0.1873(5) 0.1070(8) 0.4373(4)
O2_4 O 0.1954(4) 0.0102(7) 0.4011(4)
O12_2 O 0.5024(4) 0.0786(6) 0.0930(3)
C1_4 C 0.7487(4) 0.2721(7) 0.2551(4)
C2_4 C 0.6965(5) 0.2473(7) 0.1890(3)
H1_4 H 0.7068 0.2919 0.1538
C3_4 C 0.6294(5) 0.1563(7) 0.1760(3)
C4_4 C 0.6133(5) 0.0862(7) 0.2272(4)
H2_4 H 0.5685 0.0258 0.2182
C5_4 C 0.6662(5) 0.1088(7) 0.2920(4)
C6_4 C 0.7312(5) 0.1998(7) 0.3063(4)
H3_4 H 0.7643 0.2140 0.3505
C7_4 C 0.6540(5) 0.0317(8) 0.3495(4)
C8_4 C 0.5760(5) 0.1335(7) 0.1040(3)
C9_4 C 0.8646(5) 0.3985(8) 0.3356(4)
H4_4 H 0.8795 0.4881 0.3375
H5_4 H 0.8296 0.3842 0.3657
C10_4 C 0.9495(5) 0.3215(8) 0.3597(4)
C11_4 C 0.9652(6) 0.2152(9) 0.3272(4)
H6_4 H 0.9230 0.1895 0.2880
C17_4 C 0.8397(5) 0.4223(8) 0.2138(4)
H10_4 H 0.9005 0.4504 0.2316
H11_4 H 0.8378 0.3568 0.1809
C18_4 C 0.7831(5) 0.5339(7) 0.1794(4)
C19_4 C 0.7055(6) 0.5679(8) 0.1919(4)
H12_4 H 0.6877 0.5245 0.2243
C20_4 C 0.6536(5) 0.6660(8) 0.1567(4)
H13_4 H 0.6012 0.6870 0.1655
C21_4 C 0.6786(5) 0.7321(7) 0.1094(4)
C22_4 C 0.6194(5) 0.8321(7) 0.0690(4)
C23_4 C 0.7587(6) 0.7019(9) 0.0976(5)
H14_4 H 0.7778 0.7489 0.0670
C24_4 C 0.8092(6) 0.6016(10) 0.1317(5)
H15_4 H 0.8611 0.5795 0.1225
C25_4 C 0.3817(12) 0.5930(13) 0.0605(8)
C26_4 C 0.3940(11) 0.3634(17) 0.0858(9)
H16_4 H 0.4060 0.3201 0.1279
H17_4 H 0.3369 0.3384 0.0572
H18_4 H 0.4384 0.3416 0.0651
C27_4 C 0.4005(14) 0.526(2) 0.1673(10)
H19_4 H 0.4070 0.4486 0.1924
H20_4 H 0.4506 0.5801 0.1865
H21_4 H 0.3475 0.5689 0.1685
N1_4 N 0.8116(4) 0.3673(6) 0.2681(3)
N2_4 N 0.3950(8) 0.4967(10) 0.0966(6)
O6_4 O 0.3815(4) 0.7042(6) 0.0742(3)
O8_4 O 0.5403(4) 0.8299(6) 0.0664(3)
C28_4 C 0.3257(12) 0.5686(17) 0.9892(8)
H22_4 H 0.3292 0.4804 0.9787
H23_4 H 0.2653 0.5905 0.9844
H24_4 H 0.3470 0.6195 0.9593
loop_
_geom_bond_atom_site_label_1
_geom_bond_atom_site_label_2
_geom_bond_site_symmetry_1
_geom_bond_site_symmetry_2
H7 C12 1_555 1_555
C13 C12 1_555 1_555
C14 C13 1_555 1_555
H8 C14 1_555 1_555
H9 C15 1_555 1_555
C16 C13 1_555 1_555
O1 C16 1_555 1_555
O2 C16 1_555 1_555
C14 C15 1_555 1_555
Sm3 O3 1_555 1_555
C1 C2 1_555 1_555
C2 H1 1_555 1_555
C3 C2 1_555 1_555
C4 C3 1_555 1_555
H2 C4 1_555 1_555
C5 C4 1_555 1_555
C6 C1 1_555 1_555
H3 C6 1_555 1_555
C7 C5 1_555 1_555
C8 C3 1_555 1_555
C9 H4 1_555 1_555
H5 C9 1_555 1_555
C10 C9 1_555 1_555
C11 C10 1_555 1_555
H6 C11 1_555 1_555
C17 H10 1_555 1_555
H11 C17 1_555 1_555
C18 C17 1_555 1_555
C19 C18 1_555 1_555
H12 C19 1_555 1_555
C20 C19 1_555 1_555
H13 C20 1_555 1_555
C21 C20 1_555 1_555
C22 C21 1_555 1_555
C23 C21 1_555 1_555
H14 C23 1_555 1_555
C24 C18 1_555 1_555
H15 C24 1_555 1_555
C25 C28 1_555 1_555
C26 H16 1_555 1_555
H17 C26 1_555 1_555
H18 C26 1_555 1_555
C27 H19 1_555 1_555
H20 C27 1_555 1_555
H21 C27 1_555 1_555
C28 H22 1_555 1_555
H23 C28 1_555 1_555
H24 C28 1_555 1_555
N1 C1 1_555 1_555
N2 C25 1_555 1_555
O4 C8 1_555 1_555
O5 C8 1_555 1_555
O6 C25 1_555 1_555
O7 C7 1_555 1_555
O8 C22 1_555 1_555
O9 C22 1_555 1_555
Sm2 O6 1_555 1_555
O10 Sm2 1_555 1_555
O11 Sm2 1_555 1_555
O13 Sm2 1_555 1_555
Sm5 O5 1_555 1_555
C5 C6 1_555 1_555
C9 N1 1_555 1_555
C17 N1 1_555 1_555
C23 C24 1_555 1_555
C26 N2 1_555 1_555
C27 N2 1_555 1_555
O8 Sm2 1_555 1_555
C28_2 H22_2 1_555 1_555
H23_2 C28_2 1_555 1_555
H24_2 C28_2 1_555 1_555
C1_2 C2_2 1_555 1_555
C2_2 H1_2 1_555 1_555
C3_2 C2_2 1_555 1_555
C4_2 C3_2 1_555 1_555
H2_2 C4_2 1_555 1_555
C5_2 C4_2 1_555 1_555
C6_2 C1_2 1_555 1_555
H3_2 C6_2 1_555 1_555
C7_2 C5_2 1_555 1_555
C8_2 C3_2 1_555 1_555
C9_2 H4_2 1_555 1_555
H5_2 C9_2 1_555 1_555
C10_2 C9_2 1_555 1_555
C11_2 C10_2 1_555 1_555
H6_2 C11_2 1_555 1_555
C17_2 H10_2 1_555 1_555
H11_2 C17_2 1_555 1_555
C18_2 C17_2 1_555 1_555
C19_2 C18_2 1_555 1_555
H12_2 C19_2 1_555 1_555
C20_2 C19_2 1_555 1_555
H13_2 C20_2 1_555 1_555
C21_2 C20_2 1_555 1_555
C22_2 C21_2 1_555 1_555
C23_2 C21_2 1_555 1_555
H14_2 C23_2 1_555 1_555
C24_2 C18_2 1_555 1_555
H15_2 C24_2 1_555 1_555
C26_2 H16_2 1_555 1_555
H17_2 C26_2 1_555 1_555
H18_2 C26_2 1_555 1_555
C27_2 H19_2 1_555 1_555
H20_2 C27_2 1_555 1_555
H21_2 C27_2 1_555 1_555
N1_2 C1_2 1_555 1_555
N2_2 C25_2 1_555 1_555
O4_2 C8_2 1_555 1_555
O5_2 C8_2 1_555 1_555
O6_2 C25_2 1_555 1_555
O14 C7_2 1_555 1_555
O8_2 C22_2 1_555 1_555
O9_2 C22_2 1_555 1_555
Sm3 O6_2 1_555 1_555
C5_2 C6_2 1_555 1_555
C9_2 N1_2 1_555 1_555
C17_2 N1_2 1_555 1_555
C23_2 C24_2 1_555 1_555
C26_2 N2_2 1_555 1_555
C27_2 N2_2 1_555 1_555
O8_2 Sm3 1_555 1_555
H7_2 C12_2 1_555 1_555
C13_2 C12_2 1_555 1_555
C14_2 C13_2 1_555 1_555
H8_2 C14_2 1_555 1_555
H9_2 C15_2 1_555 1_555
C16_2 C13_2 1_555 1_555
O1_2 C16_2 1_555 1_555
O2_2 C16_2 1_555 1_555
Sm5 O1_2 1_555 1_555
C14_2 C15_2 1_555 1_555
C1_3 C2_3 1_555 1_555
C2_3 H1_3 1_555 1_555
C3_3 C2_3 1_555 1_555
C4_3 C3_3 1_555 1_555
H2_3 C4_3 1_555 1_555
C5_3 C4_3 1_555 1_555
C6_3 C1_3 1_555 1_555
H3_3 C6_3 1_555 1_555
C7_3 C5_3 1_555 1_555
C8_3 C3_3 1_555 1_555
C9_3 H4_3 1_555 1_555
H5_3 C9_3 1_555 1_555
C10_3 C9_3 1_555 1_555
C11_3 C10_3 1_555 1_555
H6_3 C11_3 1_555 1_555
C17_3 H10_3 1_555 1_555
H11_3 C17_3 1_555 1_555
C18_3 C17_3 1_555 1_555
C19_3 C18_3 1_555 1_555
H12_3 C19_3 1_555 1_555
C20_3 C19_3 1_555 1_555
H13_3 C20_3 1_555 1_555
C21_3 C20_3 1_555 1_555
C22_3 C21_3 1_555 1_555
C23_3 C21_3 1_555 1_555
H14_3 C23_3 1_555 1_555
C24_3 C18_3 1_555 1_555
H15_3 C24_3 1_555 1_555
C25_3 C28_3 1_555 1_555
C26_3 H16_3 1_555 1_555
H17_3 C26_3 1_555 1_555
H18_3 C26_3 1_555 1_555
C27_3 H19_3 1_555 1_555
H20_3 C27_3 1_555 1_555
H21_3 C27_3 1_555 1_555
C28_3 H22_3 1_555 1_555
H23_3 C28_3 1_555 1_555
H24_3 C28_3 1_555 1_555
N1_3 C1_3 1_555 1_555
N2_3 C25_3 1_555 1_555
O12 C8_3 1_555 1_555
O13 C8_3 1_555 1_555
O6_3 C25_3 1_555 1_555
O7_2 C7_3 1_555 1_555
O8_3 C22_3 1_555 1_555
O15 C22_3 1_555 1_555
Sm5 O6_3 1_555 1_555
O11_2 Sm5 1_555 1_555
C5_3 C6_3 1_555 1_555
C9_3 N1_3 1_555 1_555
C17_3 N1_3 1_555 1_555
C23_3 C24_3 1_555 1_555
C26_3 N2_3 1_555 1_555
C27_3 N2_3 1_555 1_555
O8_3 Sm5 1_555 1_555
Sm6 O3_2 1_555 1_555
H7_3 C12_3 1_555 1_555
C13_3 C12_3 1_555 1_555
C14_3 C13_3 1_555 1_555
H8_3 C14_3 1_555 1_555
H9_3 C15_3 1_555 1_555
C16_3 C13_3 1_555 1_555
O10_2 C16_3 1_555 1_555
O2_3 C16_3 1_555 1_555
C14_3 C15_3 1_555 1_555
H7_4 C12_4 1_555 1_555
C13_4 C12_4 1_555 1_555
C14_4 C13_4 1_555 1_555
H8_4 C14_4 1_555 1_555
H9_4 C15_4 1_555 1_555
C16_4 C13_4 1_555 1_555
O10 C16_4 1_555 1_555
O2_4 C16_4 1_555 1_555
C14_4 C15_4 1_555 1_555
C1_4 C2_4 1_555 1_555
C2_4 H1_4 1_555 1_555
C3_4 C2_4 1_555 1_555
C4_4 C3_4 1_555 1_555
H2_4 C4_4 1_555 1_555
C5_4 C4_4 1_555 1_555
C6_4 C1_4 1_555 1_555
H3_4 C6_4 1_555 1_555
C7_4 C5_4 1_555 1_555
C8_4 C3_4 1_555 1_555
C9_4 H4_4 1_555 1_555
H5_4 C9_4 1_555 1_555
C10_4 C9_4 1_555 1_555
C11_4 C10_4 1_555 1_555
H6_4 C11_4 1_555 1_555
C17_4 H10_4 1_555 1_555
H11_4 C17_4 1_555 1_555
C18_4 C17_4 1_555 1_555
C19_4 C18_4 1_555 1_555
H12_4 C19_4 1_555 1_555
C20_4 C19_4 1_555 1_555
H13_4 C20_4 1_555 1_555
C21_4 C20_4 1_555 1_555
C22_4 C21_4 1_555 1_555
C23_4 C21_4 1_555 1_555
H14_4 C23_4 1_555 1_555
C24_4 C18_4 1_555 1_555
H15_4 C24_4 1_555 1_555
C26_4 H16_4 1_555 1_555
H17_4 C26_4 1_555 1_555
H18_4 C26_4 1_555 1_555
C27_4 H19_4 1_555 1_555
H20_4 C27_4 1_555 1_555
H21_4 C27_4 1_555 1_555
N1_4 C1_4 1_555 1_555
N2_4 C25_4 1_555 1_555
O12_2 C8_4 1_555 1_555
O13_2 C8_4 1_555 1_555
O6_4 C25_4 1_555 1_555
O14_2 C7_4 1_555 1_555
O8_4 C22_4 1_555 1_555
O15_2 C22_4 1_555 1_555
Sm6 O6_4 1_555 1_555
C5_4 C6_4 1_555 1_555
C9_4 N1_4 1_555 1_555
C17_4 N1_4 1_555 1_555
C23_4 C24_4 1_555 1_555
C26_4 N2_4 1_555 1_555
C27_4 N2_4 1_555 1_555
O8_4 Sm6 1_555 1_555
C28_4 H22_4 1_555 1_555
H23_4 C28_4 1_555 1_555
H24_4 C28_4 1_555 1_555

#END
