
###############################################################################
#
# This file contains modified crystal structure data generated from the
# MOF subset of the Cambridge Structural Database (CSD) v543 
# hosted by the Cambridge Crystallographic Data Centre (CCDC).
#
# This work is licensed under the Creative Commons
# Attribution-NonCommercial-ShareAlike 4.0 International License.
# To view a copy of this license, visit
# http://creativecommons.org/licenses/by-nc-sa/4.0/
# or send a letter to
# Creative Commons, PO Box 1866, Mountain View, CA 94042, USA.
#
# CIF created using the CSD Python API on 29 September 2022
# The structure has been converted into the P1 space group
# The structure has a 3D framework
# The original CSD entry GARLAP is in the monoclinic crystal system
# The framework has been calculated to contain at least 10.0% void space
# The void calculation uses a probe of radius 1.32A, grid spacing 0.4
#
###############################################################################

data_GARLAP
_chemical_formula_moiety         '(C112 H96 La4 N8 O36)n'
_symmetry_cell_setting           triclinic
_symmetry_space_group_name_H-M   'P 1'
_symmetry_Int_Tables_number      1
_space_group_name_Hall           'P 1'
loop_
_symmetry_equiv_pos_site_id
_symmetry_equiv_pos_as_xyz
1 x,y,z
_cell_length_a                   15.861(5)
_cell_length_b                   10.599(5)
_cell_length_c                   21.235(5)
_cell_angle_alpha                90
_cell_angle_beta                 106.914(5)
_cell_angle_gamma                90
_cell_volume                     3415.41
loop_
_atom_site_label
_atom_site_type_symbol
_atom_site_fract_x
_atom_site_fract_y
_atom_site_fract_z
O11 O 0.0079(4) 0.5777(6) 0.0933(3)
O12 O 0.0448(4) 0.3258(6) 0.0638(3)
La5 La 0.10075(2) 0.58166(4) 0.952442(19)
C25 C 0.8850(13) 0.0866(13) 0.0683(10)
C27 C 0.903(2) 0.0223(18) 0.1651(10)
H20 H 0.8486 0.0590 0.1670
H21 H 0.9503 0.0811 0.1824
O7 O 0.8819(4) 0.1954(6) 0.0772(3)
La1 La 0.89925(2) 0.41834(4) 0.047558(19)
O14 O 0.8917(4) 0.4371(5) 0.1659(3)
O15 O 0.8088(4) 0.5714(6) 0.0960(3)
C1 C 0.3168(6) 0.3916(8) 0.5637(5)
C2 C 0.3989(5) 0.3163(9) 0.5918(4)
C3 C 0.4128(6) 0.2091(10) 0.5598(5)
H1 H 0.3711 0.1841 0.5212
C4 C 0.4887(6) 0.1378(10) 0.5847(5)
H2 H 0.4974 0.0644 0.5634
C5 C 0.5517(5) 0.1771(8) 0.6420(4)
C6 C 0.5360(6) 0.2809(9) 0.6739(5)
H3 H 0.5769 0.3052 0.7131
C7 C 0.4595(6) 0.3520(10) 0.6491(5)
H4 H 0.4498 0.4233 0.6715
C8 C 0.6356(5) 0.1008(7) 0.6675(4)
H5 H 0.6201 0.0121 0.6651
H6 H 0.6720 0.1145 0.6385
C9 C 0.6590(5) 0.0730(8) 0.7860(5)
H7 H 0.5987 0.0441 0.7680
H8 H 0.6590 0.1380 0.8181
C17 C 0.9196(5) 0.3637(7) 0.8952(4)
C18 C 0.8682(5) 0.3407(7) 0.8245(4)
C19 C 0.8016(5) 0.2502(7) 0.8111(4)
H13 H 0.7905 0.2059 0.8457
C20 C 0.7514(5) 0.2251(7) 0.7469(4)
C21 C 0.7667(5) 0.2963(8) 0.6964(4)
H14 H 0.7327 0.2827 0.6532
C22 C 0.8326(5) 0.3878(7) 0.7099(4)
C23 C 0.8841(5) 0.4097(8) 0.7740(4)
H15 H 0.9286 0.4699 0.7827
C24 C 0.8452(5) 0.4643(8) 0.6540(4)
N2 N 0.6871(5) 0.1287(7) 0.7334(3)
O1 O 0.3080(4) 0.4888(7) 0.5991(4)
O2 O 0.2641(4) 0.3662(6) 0.5107(3)
O3 O 0.9921(4) 0.4223(6) 0.9067(3)
O4 O 0.8889(4) 0.3238(6) 0.9391(3)
O8 O 0.8917(4) 0.5629(5) 0.6659(3)
O9 O 0.8088(4) 0.4286(6) 0.5960(3)
C28 C 0.886(2) 0.052(3) 0.9964(12)
H22 H 0.8746 0.1266 0.9695
H24 H 0.9424 0.0183 0.9976
O10 O 0.7359(4) 0.3662(6) 0.9893(3)
O13 O 0.8422(4) 0.5874(5) 0.9607(3)
La3 La 0.10075(2) 0.41834(4) 0.452442(19)
La6 La 0.89925(2) 0.58166(4) 0.547558(19)
N1 N 0.8978(8) 0.9931(13) 0.0980(6)
C26 C 0.8940(18) 0.8580(15) 0.0844(10)
H16 H 0.9123 0.8122 0.1251
H17 H 0.9325 0.8381 0.0583
H18 H 0.8347 0.8347 0.0608
H19 H 0.9143 0.9465 0.1909
C10 C 0.7141(5) 0.9639(8) 0.8209(4)
C11 C 0.6864(6) 0.8949(9) 0.8664(5)
H9 H 0.6328 0.9142 0.8737
C12 C 0.7369(6) 0.7980(9) 0.9012(5)
H10 H 0.7166 0.7516 0.9311
C13 C 0.8179(5) 0.7693(7) 0.8920(4)
C14 C 0.8757(5) 0.6697(7) 0.9319(4)
C15 C 0.8441(6) 0.8362(9) 0.8451(4)
H11 H 0.8970 0.8160 0.8369
C16 C 0.7929(6) 0.9322(8) 0.8104(4)
H12 H 0.8120 0.9765 0.7792
O5 O 0.9552(4) 0.6742(6) 0.9362(3)
H23 H 0.8410 0.9905 0.9783
C1_2 C 0.6832(6) 0.3916(8) 0.9363(5)
C2_2 C 0.6011(5) 0.3163(9) 0.9082(4)
C3_2 C 0.5872(6) 0.2091(10) 0.9402(5)
H1_2 H 0.6289 0.1841 0.9788
C4_2 C 0.5113(6) 0.1378(10) 0.9153(5)
H2_2 H 0.5026 0.0644 0.9366
C5_2 C 0.4483(5) 0.1771(8) 0.8580(4)
C6_2 C 0.4640(6) 0.2809(9) 0.8261(5)
H3_2 H 0.4231 0.3052 0.7869
C7_2 C 0.5405(6) 0.3520(10) 0.8509(5)
H4_2 H 0.5502 0.4233 0.8285
C8_2 C 0.3644(5) 0.1008(7) 0.8325(4)
H5_2 H 0.3799 0.0121 0.8349
H6_2 H 0.3280 0.1145 0.8615
C9_2 C 0.3410(5) 0.0730(8) 0.7140(5)
H7_2 H 0.4013 0.0441 0.7320
H8_2 H 0.3410 0.1380 0.6819
C17_2 C 0.0804(5) 0.3637(7) 0.6048(4)
C18_2 C 0.1318(5) 0.3407(7) 0.6755(4)
C19_2 C 0.1984(5) 0.2502(7) 0.6889(4)
H13_2 H 0.2095 0.2059 0.6543
C20_2 C 0.2486(5) 0.2251(7) 0.7531(4)
C21_2 C 0.2333(5) 0.2963(8) 0.8036(4)
H14_2 H 0.2673 0.2827 0.8468
C22_2 C 0.1674(5) 0.3878(7) 0.7901(4)
C23_2 C 0.1159(5) 0.4097(8) 0.7260(4)
H15_2 H 0.0714 0.4699 0.7173
C24_2 C 0.1548(5) 0.4643(8) 0.8460(4)
C25_2 C 0.1150(13) 0.0866(13) 0.4317(10)
C27_2 C 0.097(2) 0.0223(18) 0.3349(10)
H20_2 H 0.1514 0.0590 0.3330
H21_2 H 0.0497 0.0811 0.3176
N2_2 N 0.3129(5) 0.1287(7) 0.7666(3)
O1_2 O 0.6920(4) 0.4888(7) 0.9009(4)
O3_2 O 0.0079(4) 0.4223(6) 0.5933(3)
O4_2 O 0.1111(4) 0.3238(6) 0.5609(3)
O7_2 O 0.1181(4) 0.1954(6) 0.4228(3)
O8_2 O 0.1083(4) 0.5629(5) 0.8341(3)
O9_2 O 0.1912(4) 0.4286(6) 0.9040(3)
C28_2 C 0.114(2) 0.052(3) 0.5036(12)
H22_2 H 0.1254 0.1266 0.5305
H24_2 H 0.0576 0.0183 0.5024
O13_2 O 0.1578(4) 0.5874(5) 0.5393(3)
O14_2 O 0.1083(4) 0.4371(5) 0.3341(3)
O15_2 O 0.1912(4) 0.5714(6) 0.4040(3)
C10_2 C 0.2859(5) 0.9639(8) 0.6791(4)
C11_2 C 0.3136(6) 0.8949(9) 0.6336(5)
H9_2 H 0.3672 0.9142 0.6263
C12_2 C 0.2631(6) 0.7980(9) 0.5988(5)
H10_2 H 0.2834 0.7516 0.5689
C13_2 C 0.1821(5) 0.7693(7) 0.6080(4)
C14_2 C 0.1243(5) 0.6697(7) 0.5681(4)
C15_2 C 0.1559(6) 0.8362(9) 0.6549(4)
H11_2 H 0.1030 0.8160 0.6631
C16_2 C 0.2071(6) 0.9322(8) 0.6896(4)
H12_2 H 0.1880 0.9765 0.7208
N1_2 N 0.1022(8) 0.9931(13) 0.4020(6)
C26_2 C 0.1060(18) 0.8580(15) 0.4156(10)
H16_2 H 0.0877 0.8122 0.3749
H17_2 H 0.0675 0.8381 0.4417
H18_2 H 0.1653 0.8347 0.4392
H19_2 H 0.0857 0.9465 0.3091
O5_2 O 0.0448(4) 0.6742(6) 0.5638(3)
H23_2 H 0.1590 0.9905 0.5217
O11_2 O 0.9921(4) 0.5777(6) 0.4067(3)
O12_2 O 0.9552(4) 0.3258(6) 0.4362(3)
C10_3 C 0.2859(5) 0.0361(8) 0.1791(4)
C11_3 C 0.3136(6) 0.1051(9) 0.1336(5)
H9_3 H 0.3672 0.0858 0.1263
C12_3 C 0.2631(6) 0.2020(9) 0.0988(5)
H10_3 H 0.2834 0.2484 0.0689
C13_3 C 0.1821(5) 0.2307(7) 0.1080(4)
C14_3 C 0.1243(5) 0.3303(7) 0.0681(4)
C15_3 C 0.1559(6) 0.1638(9) 0.1549(4)
H11_3 H 0.1030 0.1840 0.1631
C16_3 C 0.2071(6) 0.0678(8) 0.1896(4)
H12_3 H 0.1880 0.0235 0.2208
O6 O 0.1578(4) 0.4126(5) 0.0393(3)
H23_3 H 0.1590 0.0095 0.0217
N1_3 N 0.1022(8) 0.0069(13) 0.9020(6)
C26_3 C 0.1060(18) 0.1420(15) 0.9156(10)
H16_3 H 0.0877 0.1878 0.8749
H17_3 H 0.0675 0.1619 0.9417
H18_3 H 0.1653 0.1653 0.9392
H19_3 H 0.0857 0.0535 0.8091
C1_3 C 0.6832(6) 0.6084(8) 0.4363(5)
C2_3 C 0.6011(5) 0.6837(9) 0.4082(4)
C3_3 C 0.5872(6) 0.7909(10) 0.4402(5)
H1_3 H 0.6289 0.8159 0.4788
C4_3 C 0.5113(6) 0.8622(10) 0.4153(5)
H2_3 H 0.5026 0.9356 0.4366
C5_3 C 0.4483(5) 0.8229(8) 0.3580(4)
C6_3 C 0.4640(6) 0.7191(9) 0.3261(5)
H3_3 H 0.4231 0.6948 0.2869
C7_3 C 0.5405(6) 0.6480(10) 0.3509(5)
H4_3 H 0.5502 0.5767 0.3285
C8_3 C 0.3644(5) 0.8992(7) 0.3325(4)
H5_3 H 0.3799 0.9879 0.3349
H6_3 H 0.3280 0.8855 0.3615
C9_3 C 0.3410(5) 0.9270(8) 0.2140(5)
H7_3 H 0.4013 0.9559 0.2320
H8_3 H 0.3410 0.8620 0.1819
C17_3 C 0.0804(5) 0.6363(7) 0.1048(4)
C18_3 C 0.1318(5) 0.6593(7) 0.1755(4)
C19_3 C 0.1984(5) 0.7498(7) 0.1889(4)
H13_3 H 0.2095 0.7941 0.1543
C20_3 C 0.2486(5) 0.7749(7) 0.2531(4)
C21_3 C 0.2333(5) 0.7037(8) 0.3036(4)
H14_3 H 0.2673 0.7173 0.3468
C22_3 C 0.1674(5) 0.6122(7) 0.2901(4)
C23_3 C 0.1159(5) 0.5903(8) 0.2260(4)
H15_3 H 0.0714 0.5301 0.2173
C24_3 C 0.1548(5) 0.5357(8) 0.3460(4)
N2_3 N 0.3129(5) 0.8713(7) 0.2666(3)
O1_3 O 0.6920(4) 0.5112(7) 0.4009(4)
O2_2 O 0.7359(4) 0.6338(6) 0.4893(3)
O4_3 O 0.1111(4) 0.6762(6) 0.0609(3)
C28_3 C 0.114(2) 0.948(3) 0.0036(12)
H22_3 H 0.1254 0.8734 0.0305
H24_3 H 0.0576 0.9817 0.0024
O10_2 O 0.2641(4) 0.6338(6) 0.0107(3)
C25_3 C 0.1150(13) 0.9134(13) 0.9317(10)
C27_3 C 0.097(2) 0.9777(18) 0.8349(10)
H20_3 H 0.1514 0.9410 0.8330
H21_3 H 0.0497 0.9189 0.8176
O7_3 O 0.1181(4) 0.8046(6) 0.9228(3)
C10_4 C 0.7141(5) 0.0361(8) 0.3209(4)
C11_4 C 0.6864(6) 0.1051(9) 0.3664(5)
H9_4 H 0.6328 0.0858 0.3737
C12_4 C 0.7369(6) 0.2020(9) 0.4012(5)
H10_4 H 0.7166 0.2484 0.4311
C13_4 C 0.8179(5) 0.2307(7) 0.3920(4)
C14_4 C 0.8757(5) 0.3303(7) 0.4319(4)
C15_4 C 0.8441(6) 0.1638(9) 0.3451(4)
H11_4 H 0.8970 0.1840 0.3369
C16_4 C 0.7929(6) 0.0678(8) 0.3104(4)
H12_4 H 0.8120 0.0235 0.2792
N1_4 N 0.8978(8) 0.0069(13) 0.5980(6)
C26_4 C 0.8940(18) 0.1420(15) 0.5844(10)
H16_4 H 0.9123 0.1878 0.6251
H17_4 H 0.9325 0.1619 0.5583
H18_4 H 0.8347 0.1653 0.5608
H19_4 H 0.9143 0.0535 0.6909
O6_2 O 0.8422(4) 0.4126(5) 0.4607(3)
H23_4 H 0.8410 0.0095 0.4783
C1_4 C 0.3168(6) 0.6084(8) 0.0637(5)
C2_4 C 0.3989(5) 0.6837(9) 0.0918(4)
C3_4 C 0.4128(6) 0.7909(10) 0.0598(5)
H1_4 H 0.3711 0.8159 0.0212
C4_4 C 0.4887(6) 0.8622(10) 0.0847(5)
H2_4 H 0.4974 0.9356 0.0634
C5_4 C 0.5517(5) 0.8229(8) 0.1420(4)
C6_4 C 0.5360(6) 0.7191(9) 0.1739(5)
H3_4 H 0.5769 0.6948 0.2131
C7_4 C 0.4595(6) 0.6480(10) 0.1491(5)
H4_4 H 0.4498 0.5767 0.1715
C8_4 C 0.6356(5) 0.8992(7) 0.1675(4)
H5_4 H 0.6201 0.9879 0.1651
H6_4 H 0.6720 0.8855 0.1385
C9_4 C 0.6590(5) 0.9270(8) 0.2860(5)
H7_4 H 0.5987 0.9559 0.2680
H8_4 H 0.6590 0.8620 0.3181
C17_4 C 0.9196(5) 0.6363(7) 0.3952(4)
C18_4 C 0.8682(5) 0.6593(7) 0.3245(4)
C19_4 C 0.8016(5) 0.7498(7) 0.3111(4)
H13_4 H 0.7905 0.7941 0.3457
C20_4 C 0.7514(5) 0.7749(7) 0.2469(4)
C21_4 C 0.7667(5) 0.7037(8) 0.1964(4)
H14_4 H 0.7327 0.7173 0.1532
C22_4 C 0.8326(5) 0.6122(7) 0.2099(4)
C23_4 C 0.8841(5) 0.5903(8) 0.2740(4)
H15_4 H 0.9286 0.5301 0.2827
C24_4 C 0.8452(5) 0.5357(8) 0.1540(4)
C25_4 C 0.8850(13) 0.9134(13) 0.5683(10)
C27_4 C 0.903(2) 0.9777(18) 0.6651(10)
H20_4 H 0.8486 0.9410 0.6670
H21_4 H 0.9503 0.9189 0.6824
N2_4 N 0.6871(5) 0.8713(7) 0.2334(3)
O1_4 O 0.3080(4) 0.5112(7) 0.0991(4)
O4_4 O 0.8889(4) 0.6762(6) 0.4391(3)
O7_4 O 0.8819(4) 0.8046(6) 0.5772(3)
C28_4 C 0.886(2) 0.948(3) 0.4964(12)
H22_4 H 0.8746 0.8734 0.4695
H24_4 H 0.9424 0.9817 0.4976
loop_
_geom_bond_atom_site_label_1
_geom_bond_atom_site_label_2
_geom_bond_site_symmetry_1
_geom_bond_site_symmetry_2
H20 C27 1_555 1_555
H21 C27 1_555 1_555
O7 C25 1_555 1_555
O14 La1 1_555 1_555
O15 La1 1_555 1_555
O7 La1 1_555 1_555
C1 C2 1_555 1_555
C2 C3 1_555 1_555
C3 H1 1_555 1_555
C4 C3 1_555 1_555
H2 C4 1_555 1_555
C5 C4 1_555 1_555
C6 C5 1_555 1_555
H3 C6 1_555 1_555
C7 C2 1_555 1_555
H4 C7 1_555 1_555
C8 C5 1_555 1_555
H5 C8 1_555 1_555
H6 C8 1_555 1_555
C9 H7 1_555 1_555
H8 C9 1_555 1_555
C17 C18 1_555 1_555
C18 C19 1_555 1_555
C19 H13 1_555 1_555
C20 C19 1_555 1_555
C21 C20 1_555 1_555
H14 C21 1_555 1_555
C22 C21 1_555 1_555
C23 C18 1_555 1_555
H15 C23 1_555 1_555
C24 C22 1_555 1_555
N2 C8 1_555 1_555
O1 C1 1_555 1_555
O2 C1 1_555 1_555
O3 C17 1_555 1_555
O4 C17 1_555 1_555
O8 C24 1_555 1_555
O9 C24 1_555 1_555
H22 C28 1_555 1_555
H24 C28 1_555 1_555
La3 O2 1_555 1_555
La6 O8 1_555 1_555
C6 C7 1_555 1_555
C9 N2 1_555 1_555
C20 N2 1_555 1_555
C22 C23 1_555 1_555
O9 La6 1_555 1_555
N1 C26 1_555 1_555
C26 H16 1_555 1_555
H17 C26 1_555 1_555
H18 C26 1_555 1_555
C11 C10 1_555 1_555
H9 C11 1_555 1_555
C12 C11 1_555 1_555
H10 C12 1_555 1_555
C13 C12 1_555 1_555
C14 C13 1_555 1_555
C15 C13 1_555 1_555
H11 C15 1_555 1_555
C16 C10 1_555 1_555
H12 C16 1_555 1_555
O5 C14 1_555 1_555
O13 C14 1_555 1_555
C15 C16 1_555 1_555
C1_2 C2_2 1_555 1_555
C2_2 C3_2 1_555 1_555
C3_2 H1_2 1_555 1_555
C4_2 C3_2 1_555 1_555
H2_2 C4_2 1_555 1_555
C5_2 C4_2 1_555 1_555
C6_2 C5_2 1_555 1_555
H3_2 C6_2 1_555 1_555
C7_2 C2_2 1_555 1_555
H4_2 C7_2 1_555 1_555
C8_2 C5_2 1_555 1_555
H5_2 C8_2 1_555 1_555
H6_2 C8_2 1_555 1_555
C9_2 H7_2 1_555 1_555
H8_2 C9_2 1_555 1_555
C17_2 C18_2 1_555 1_555
C18_2 C19_2 1_555 1_555
C19_2 H13_2 1_555 1_555
C20_2 C19_2 1_555 1_555
C21_2 C20_2 1_555 1_555
H14_2 C21_2 1_555 1_555
C22_2 C21_2 1_555 1_555
C23_2 C18_2 1_555 1_555
H15_2 C23_2 1_555 1_555
C24_2 C22_2 1_555 1_555
H20_2 C27_2 1_555 1_555
H21_2 C27_2 1_555 1_555
N2_2 C8_2 1_555 1_555
O1_2 C1_2 1_555 1_555
O10 C1_2 1_555 1_555
O3_2 C17_2 1_555 1_555
O4_2 C17_2 1_555 1_555
O7_2 C25_2 1_555 1_555
O8_2 C24_2 1_555 1_555
La3 O4_2 1_555 1_555
O9_2 C24_2 1_555 1_555
C28_2 C25_2 1_555 1_555
H22_2 C28_2 1_555 1_555
H24_2 C28_2 1_555 1_555
O13_2 La3 1_555 1_555
O14_2 La3 1_555 1_555
La5 O8_2 1_555 1_555
O15_2 La3 1_555 1_555
C6_2 C7_2 1_555 1_555
C9_2 N2_2 1_555 1_555
C20_2 N2_2 1_555 1_555
C22_2 C23_2 1_555 1_555
O7_2 La3 1_555 1_555
O9_2 La5 1_555 1_555
C11_2 C10_2 1_555 1_555
H9_2 C11_2 1_555 1_555
C12_2 C11_2 1_555 1_555
H10_2 C12_2 1_555 1_555
C13_2 C12_2 1_555 1_555
C14_2 C13_2 1_555 1_555
C15_2 C13_2 1_555 1_555
H11_2 C15_2 1_555 1_555
C16_2 C10_2 1_555 1_555
H12_2 C16_2 1_555 1_555
N1_2 C26_2 1_555 1_555
C26_2 H16_2 1_555 1_555
H17_2 C26_2 1_555 1_555
H18_2 C26_2 1_555 1_555
O5_2 C14_2 1_555 1_555
O13_2 C14_2 1_555 1_555
C15_2 C16_2 1_555 1_555
C11_3 C10_3 1_555 1_555
H9_3 C11_3 1_555 1_555
C12_3 C11_3 1_555 1_555
H10_3 C12_3 1_555 1_555
C13_3 C12_3 1_555 1_555
C14_3 C13_3 1_555 1_555
C15_3 C13_3 1_555 1_555
H11_3 C15_3 1_555 1_555
C16_3 C10_3 1_555 1_555
H12_3 C16_3 1_555 1_555
O12 C14_3 1_555 1_555
O6 C14_3 1_555 1_555
C15_3 C16_3 1_555 1_555
N1_3 C26_3 1_555 1_555
C26_3 H16_3 1_555 1_555
H17_3 C26_3 1_555 1_555
H18_3 C26_3 1_555 1_555
C1_3 C2_3 1_555 1_555
C2_3 C3_3 1_555 1_555
C3_3 H1_3 1_555 1_555
C4_3 C3_3 1_555 1_555
H2_3 C4_3 1_555 1_555
C5_3 C4_3 1_555 1_555
C6_3 C5_3 1_555 1_555
H3_3 C6_3 1_555 1_555
C7_3 C2_3 1_555 1_555
H4_3 C7_3 1_555 1_555
C8_3 C5_3 1_555 1_555
H5_3 C8_3 1_555 1_555
H6_3 C8_3 1_555 1_555
C9_3 H7_3 1_555 1_555
H8_3 C9_3 1_555 1_555
C17_3 C18_3 1_555 1_555
C18_3 C19_3 1_555 1_555
C19_3 H13_3 1_555 1_555
C20_3 C19_3 1_555 1_555
C21_3 C20_3 1_555 1_555
H14_3 C21_3 1_555 1_555
C22_3 C21_3 1_555 1_555
C23_3 C18_3 1_555 1_555
H15_3 C23_3 1_555 1_555
C24_3 C22_3 1_555 1_555
N2_3 C8_3 1_555 1_555
O1_3 C1_3 1_555 1_555
O2_2 C1_3 1_555 1_555
O11 C17_3 1_555 1_555
O4_3 C17_3 1_555 1_555
O14_2 C24_3 1_555 1_555
O15_2 C24_3 1_555 1_555
H22_3 C28_3 1_555 1_555
H24_3 C28_3 1_555 1_555
La6 O2_2 1_555 1_555
C6_3 C7_3 1_555 1_555
C9_3 N2_3 1_555 1_555
C20_3 N2_3 1_555 1_555
C22_3 C23_3 1_555 1_555
H20_3 C27_3 1_555 1_555
H21_3 C27_3 1_555 1_555
O7_3 C25_3 1_555 1_555
O7_3 La5 1_555 1_555
C11_4 C10_4 1_555 1_555
H9_4 C11_4 1_555 1_555
C12_4 C11_4 1_555 1_555
H10_4 C12_4 1_555 1_555
C13_4 C12_4 1_555 1_555
C14_4 C13_4 1_555 1_555
C15_4 C13_4 1_555 1_555
H11_4 C15_4 1_555 1_555
C16_4 C10_4 1_555 1_555
H12_4 C16_4 1_555 1_555
N1_4 C26_4 1_555 1_555
C26_4 H16_4 1_555 1_555
H17_4 C26_4 1_555 1_555
H18_4 C26_4 1_555 1_555
O12_2 C14_4 1_555 1_555
O6_2 C14_4 1_555 1_555
La6 O6_2 1_555 1_555
C15_4 C16_4 1_555 1_555
C1_4 C2_4 1_555 1_555
C2_4 C3_4 1_555 1_555
C3_4 H1_4 1_555 1_555
C4_4 C3_4 1_555 1_555
H2_4 C4_4 1_555 1_555
C5_4 C4_4 1_555 1_555
C6_4 C5_4 1_555 1_555
H3_4 C6_4 1_555 1_555
C7_4 C2_4 1_555 1_555
H4_4 C7_4 1_555 1_555
C8_4 C5_4 1_555 1_555
H5_4 C8_4 1_555 1_555
H6_4 C8_4 1_555 1_555
C9_4 H7_4 1_555 1_555
H8_4 C9_4 1_555 1_555
C17_4 C18_4 1_555 1_555
C18_4 C19_4 1_555 1_555
C19_4 H13_4 1_555 1_555
C20_4 C19_4 1_555 1_555
C21_4 C20_4 1_555 1_555
H14_4 C21_4 1_555 1_555
C22_4 C21_4 1_555 1_555
C23_4 C18_4 1_555 1_555
H15_4 C23_4 1_555 1_555
C24_4 C22_4 1_555 1_555
H20_4 C27_4 1_555 1_555
H21_4 C27_4 1_555 1_555
N2_4 C8_4 1_555 1_555
O1_4 C1_4 1_555 1_555
O10_2 C1_4 1_555 1_555
O11_2 C17_4 1_555 1_555
O4_4 C17_4 1_555 1_555
O7_4 C25_4 1_555 1_555
O14 C24_4 1_555 1_555
La6 O4_4 1_555 1_555
O15 C24_4 1_555 1_555
C28_4 C25_4 1_555 1_555
H22_4 C28_4 1_555 1_555
H24_4 C28_4 1_555 1_555
C6_4 C7_4 1_555 1_555
C9_4 N2_4 1_555 1_555
C20_4 N2_4 1_555 1_555
C22_4 C23_4 1_555 1_555
O7_4 La6 1_555 1_555

#END
