
###############################################################################
#
# This file contains modified crystal structure data generated from the
# MOF subset of the Cambridge Structural Database (CSD) v543 
# hosted by the Cambridge Crystallographic Data Centre (CCDC).
#
# This work is licensed under the Creative Commons
# Attribution-NonCommercial-ShareAlike 4.0 International License.
# To view a copy of this license, visit
# http://creativecommons.org/licenses/by-nc-sa/4.0/
# or send a letter to
# Creative Commons, PO Box 1866, Mountain View, CA 94042, USA.
#
# CIF created using the CSD Python API on 29 September 2022
# The structure has been converted into the P1 space group
# The structure has a 3D framework
# The original CSD entry GARSUQ is in the triclinic crystal system
# The framework has been calculated to contain at least 10.0% void space
# The void calculation uses a probe of radius 1.32A, grid spacing 0.4
# H atom positions have been added when not included in the experimental data
#
###############################################################################

data_GARSUQ
_chemical_formula_moiety         '(C26 H22 N4 O16)n'
_symmetry_cell_setting           triclinic
_symmetry_space_group_name_H-M   'P 1'
_symmetry_Int_Tables_number      1
_space_group_name_Hall           'P 1'
loop_
_symmetry_equiv_pos_site_id
_symmetry_equiv_pos_as_xyz
1 x,y,z
_cell_length_a                   9.0968(6)
_cell_length_b                   9.6763(7)
_cell_length_c                   11.5065(9)
_cell_angle_alpha                106.914(7)
_cell_angle_beta                 93.967(6)
_cell_angle_gamma                108.270(6)
_cell_volume                     905.726
loop_
_atom_site_label
_atom_site_type_symbol
_atom_site_fract_x
_atom_site_fract_y
_atom_site_fract_z
O8 O 0.4585(9) 0.2217(9) 0.1742(7)
Eu3 Eu 0.27846(6) 0.02824(5) 0.99159(5)
O12 O 0.1344(8) 0.1810(8) 0.0457(7)
H8 H 0.568543 0.237973 0.161002
H9 H 0.438591 0.320156 0.189682
H10 H 0.257255 0.0267491 0.246163
H11 H 0.0896376 0.028787 0.190273
O9 O 0.5810(8) 0.1128(8) 0.9528(7)
O13 O 0.4268(8) 0.2397(9) 0.9229(7)
O1 O 0.4190(8) 0.8872(8) 0.0472(7)
O2 O 0.1712(9) 0.9809(8) 0.1734(7)
O4 O 0.1209(9) 0.9889(8) 0.7914(7)
O6 O 0.5732(8) 0.7603(9) 0.0771(7)
O7 O 0.3041(8) 0.8842(8) 0.7860(6)
C1 C 0.0124(16) 0.8360(15) 0.5340(12)
C2 C 0.1819(15) 0.6923(15) 0.5381(12)
C3 C 0.1260(15) 0.6094(14) 0.4136(11)
C4 C 0.2867(12) 0.5004(12) 0.0686(9)
C5 C 0.1235(13) 0.8067(12) 0.5988(10)
N1 N 0.0881(9) 0.5524(9) 0.1449(7)
N2 N 0.1897(10) 0.6891(9) 0.1446(8)
C6 C 0.0579(11) 0.2697(10) 0.0757(8)
C7 C 0.1440(11) 0.4362(11) 0.0987(9)
C8 C 0.3104(11) 0.6550(11) 0.0981(9)
C9 C 0.0155(12) 0.6432(13) 0.3462(10)
C11 C 0.1879(12) 0.9000(12) 0.7315(9)
C13 C 0.4423(11) 0.7748(10) 0.0737(8)
H1 H 0.187(16) 0.556(15) 0.383(12)
H2 H 0.258(15) 0.648(14) 0.575(12)
H7 H 0.352(7) 0.445(4) 0.034(10)
Eu5 Eu 0.72154(6) 0.97176(5) 0.00841(5)
O10 O 0.0872(8) 0.7721(8) 0.9207(6)
O3 O 0.9128(8) 0.2279(8) 0.0793(6)
C10 C 0.9587(12) 0.5585(12) 0.2110(9)
C12 C 0.9588(17) 0.7566(17) 0.4082(12)
H3 H 0.925(15) 0.865(14) 0.583(12)
H4 H 0.898(16) 0.784(15) 0.358(12)
H5 H 0.872(15) 0.462(15) 0.194(12)
H6 H 0.890(15) 0.622(14) 0.180(12)
C10_2 C 0.0413(12) 0.4415(12) 0.7890(9)
C12_2 C 0.0412(17) 0.2434(17) 0.5918(12)
H3_2 H 0.075(15) 0.135(14) 0.417(12)
H4_2 H 0.102(16) 0.216(15) 0.642(12)
H5_2 H 0.128(15) 0.538(15) 0.806(12)
H6_2 H 0.110(15) 0.378(14) 0.820(12)
O11 O 0.8791(9) 0.0111(8) 0.2086(7)
O14 O 0.6959(8) 0.1158(8) 0.2140(6)
O2_2 O 0.8288(9) 0.0191(8) 0.8266(7)
O5 O 0.8656(8) 0.8190(8) 0.9543(7)
C1_2 C 0.9876(16) 0.1640(15) 0.4660(12)
C2_2 C 0.8181(15) 0.3077(15) 0.4619(12)
C3_2 C 0.8740(15) 0.3906(14) 0.5864(11)
C4_2 C 0.7133(12) 0.4996(12) 0.9314(9)
C5_2 C 0.8765(13) 0.1933(12) 0.4012(10)
N1_2 N 0.9119(9) 0.4476(9) 0.8551(7)
N2_2 N 0.8103(10) 0.3109(9) 0.8554(8)
C6_2 C 0.9421(11) 0.7303(10) 0.9243(8)
C7_2 C 0.8560(11) 0.5638(11) 0.9013(9)
C8_2 C 0.6896(11) 0.3450(11) 0.9019(9)
C9_2 C 0.9845(12) 0.3568(13) 0.6538(10)
C11_2 C 0.8121(12) 0.1000(12) 0.2685(9)
C13_2 C 0.5577(11) 0.2252(10) 0.9263(8)
H1_2 H 0.813(16) 0.444(15) 0.617(12)
H2_2 H 0.742(15) 0.352(14) 0.425(12)
H7_2 H 0.648(7) 0.555(4) 0.966(10)
O8_2 O 0.5415(9) 0.7783(9) 0.8258(7)
H8_2 H 0.431457 0.762027 0.838998
H9_2 H 0.561409 0.679844 0.810318
H10_2 H 0.742745 0.973251 0.753837
H11_2 H 0.910362 0.971213 0.809727
loop_
_geom_bond_atom_site_label_1
_geom_bond_atom_site_label_2
_geom_bond_site_symmetry_1
_geom_bond_site_symmetry_2
O8 H8 1_555 1_555
O8 H9 1_555 1_555
O9 Eu3 1_555 1_555
O13 Eu3 1_555 1_555
O1 C13 1_555 1_555
O4 C11 1_555 1_555
O12 C6 1_555 1_555
O6 C13 1_555 1_555
O7 C11 1_555 1_555
C1 C5 1_555 1_555
C2 C3 1_555 1_555
C3 C9 1_555 1_555
C4 C7 1_555 1_555
C5 C2 1_555 1_555
N1 N2 1_555 1_555
N2 C8 1_555 1_555
C6 C7 1_555 1_555
C7 N1 1_555 1_555
C8 C4 1_555 1_555
C11 C5 1_555 1_555
C13 C8 1_555 1_555
H1 C3 1_555 1_555
H2 C2 1_555 1_555
H7 C4 1_555 1_555
Eu5 O1 1_555 1_555
O6 Eu5 1_555 1_555
H4 C12 1_555 1_555
H5 C10 1_555 1_555
H6 C10 1_555 1_555
H4_2 C12_2 1_555 1_555
H5_2 C10_2 1_555 1_555
H6_2 C10_2 1_555 1_555
O9 C13_2 1_555 1_555
O11 C11_2 1_555 1_555
O5 C6_2 1_555 1_555
O13 C13_2 1_555 1_555
O14 C11_2 1_555 1_555
C1_2 C5_2 1_555 1_555
C2_2 C3_2 1_555 1_555
C3_2 C9_2 1_555 1_555
C4_2 C7_2 1_555 1_555
C5_2 C2_2 1_555 1_555
N1_2 N2_2 1_555 1_555
N2_2 C8_2 1_555 1_555
C6_2 C7_2 1_555 1_555
C7_2 N1_2 1_555 1_555
C8_2 C4_2 1_555 1_555
C11_2 C5_2 1_555 1_555
C13_2 C8_2 1_555 1_555
H1_2 C3_2 1_555 1_555
H2_2 C2_2 1_555 1_555
H7_2 C4_2 1_555 1_555
O8_2 H8_2 1_555 1_555
O8_2 H9_2 1_555 1_555

#END
