
###############################################################################
#
# This file contains modified crystal structure data generated from the
# MOF subset of the Cambridge Structural Database (CSD) v543 
# hosted by the Cambridge Crystallographic Data Centre (CCDC).
#
# This work is licensed under the Creative Commons
# Attribution-NonCommercial-ShareAlike 4.0 International License.
# To view a copy of this license, visit
# http://creativecommons.org/licenses/by-nc-sa/4.0/
# or send a letter to
# Creative Commons, PO Box 1866, Mountain View, CA 94042, USA.
#
# CIF created using the CSD Python API on 29 September 2022
# The structure has been converted into the P1 space group
# The structure has a 3D framework
# The original CSD entry GASROK is in the hexagonal crystal system
# The original CSD entry GASROK is in a Sohncke space group
# The framework has been calculated to contain at least 10.0% void space
# The void calculation uses a probe of radius 1.32A, grid spacing 0.4
#
###############################################################################

data_GASROK
_chemical_formula_moiety         '(C72 H102 N30 O12 Zn6)n'
_symmetry_cell_setting           triclinic
_symmetry_space_group_name_H-M   'P 1'
_symmetry_Int_Tables_number      1
_space_group_name_Hall           'P 1'
loop_
_symmetry_equiv_pos_site_id
_symmetry_equiv_pos_as_xyz
1 x,y,z
_cell_length_a                   17.764(3)
_cell_length_b                   17.764(3)
_cell_length_c                   10.4098(12)
_cell_angle_alpha                90
_cell_angle_beta                 90
_cell_angle_gamma                120
_cell_volume                     2844.82
loop_
_atom_site_label
_atom_site_type_symbol
_atom_site_fract_x
_atom_site_fract_y
_atom_site_fract_z
N3 N 0.4717(10) 0.1255(9) 0.1384(14)
N4 N 0.4239(11) 0.1106(9) 0.2374(15)
N5 N 0.3755(14) 0.0926(13) 0.3215(19)
Zn1 Zn 0.54720(9) 0.07359(7) 0.14199(16)
N6 N 0.6758(6) 0.1534(10) 0.1072(8)
O3 O 0.5679(6) 0.0953(6) 0.3403(9)
C2 C 0.4538(8) 0.8900(8) 0.0590(11)
H1 H 0.4724 0.8480 0.0383
C3 C 0.3580(9) 0.8366(9) 0.0973(11)
H2 H 0.3275 0.8086 0.0175
C4 C 0.3184(11) 0.8904(11) 0.1395(17)
H3 H 0.3580 0.9337 0.1999
H4 H 0.2652 0.8526 0.1857
C5 C 0.2972(13) 0.9367(14) 0.0364(19)
H6 H 0.3498 0.9867 0.0076
H7 H 0.2586 0.9548 0.0706
C6 C 0.3385(10) 0.7609(10) 0.1886(13)
H8 H 0.3701 0.7330 0.1611
H9 H 0.2773 0.7197 0.1875
H10 H 0.3559 0.7828 0.2742
C7 C 0.5894(8) 0.9380(7) 0.1846(12)
H11 H 0.6245 0.9783 0.2515
H12 H 0.6227 0.9561 0.1055
C8 C 0.5110(12) 0.7257(9) 0.3591(11)
H13 H 0.4841 0.7011 0.4367
C9 C 0.5375(13) 0.8120(9) 0.3373(13)
H14 H 0.5320 0.8451 0.4019
C10 C 0.5723(12) 0.8496(9) 0.2188(12)
C11 C 0.5863(11) 0.7970(8) 0.1357(14)
H15 H 0.6117 0.8189 0.0562
C12 C 0.5641(12) 0.7153(9) 0.1670(12)
H16 H 0.5789 0.6843 0.1102
N1 N 0.5096(6) 0.9431(5) 0.1677(9)
H17 H 0.4779 0.9242 0.2413
N2 N 0.5224(8) 0.6758(6) 0.2739(8)
Zn2 Zn 0.47361(11) 0.54720(9) 0.30866(16)
C1 C 0.5257(11) 0.4699(8) 0.1074(10)
C2_2 C 0.5638(11) 0.4538(8) 0.2257(11)
H1_2 H 0.6244 0.4724 0.2050
C3_2 C 0.5214(13) 0.3580(9) 0.2640(11)
H2_2 H 0.5189 0.3275 0.1842
C4_2 C 0.4280(16) 0.3184(11) 0.3062(17)
H3_2 H 0.4243 0.3580 0.3666
H4_2 H 0.4126 0.2652 0.3524
C5_2 C 0.3605(19) 0.2972(13) 0.2031(19)
H5 H 0.3717 0.2697 0.1320
H6_2 H 0.3631 0.3498 0.1743
H7_2 H 0.3038 0.2586 0.2373
C6_2 C 0.5776(14) 0.3385(10) 0.3553(13)
H8_2 H 0.6371 0.3701 0.3278
H9_2 H 0.5576 0.2773 0.3542
H10_2 H 0.5731 0.3559 0.4409
C7_2 C 0.6514(11) 0.5894(8) 0.3513(12)
H11_2 H 0.6462 0.6245 0.4182
H12_2 H 0.6666 0.6227 0.2722
C8_2 C 0.7853(15) 0.5110(12) 0.5258(11)
H13_2 H 0.7830 0.4841 0.6034
C9_2 C 0.7255(16) 0.5375(13) 0.5040(13)
H14_2 H 0.6869 0.5320 0.5686
C10_2 C 0.7227(15) 0.5723(12) 0.3855(12)
C11_2 C 0.7893(14) 0.5863(11) 0.3024(14)
H15_2 H 0.7928 0.6117 0.2229
C12_2 C 0.8488(15) 0.5641(12) 0.3337(12)
H16_2 H 0.8946 0.5789 0.2769
N1_2 N 0.5665(8) 0.5096(6) 0.3344(9)
H17_2 H 0.5537 0.4779 0.4080
N2_2 N 0.8466(10) 0.5224(8) 0.4406(8)
N3_2 N 0.3462(13) 0.4717(10) 0.3051(14)
N4_2 N 0.3133(14) 0.4239(11) 0.4041(15)
N5_2 N 0.2829(19) 0.3755(14) 0.4882(19)
O1 O 0.4898(7) 0.5173(5) 0.1152(8)
O2 O 0.5274(8) 0.4321(6) 0.0070(9)
O3_2 O 0.4726(8) 0.5679(6) 0.5070(9)
Zn2_2 Zn 0.92641(14) 0.47361(11) 0.47532(16)
Zn3 Zn 0.52639(11) 0.45280(9) 0.80866(16)
Zn3_2 Zn 0.07359(7) 0.52639(11) 0.97532(16)
N3_3 N 0.8745(9) 0.3462(13) 0.4717(14)
N4_3 N 0.8894(9) 0.3133(14) 0.5707(15)
N5_3 N 0.9074(13) 0.2829(19) 0.6548(19)
O1_2 O 0.9725(5) 0.4898(7) 0.2818(8)
O3_3 O 0.9047(6) 0.4726(8) 0.6736(9)
C1_2 C 0.5301(8) 0.0558(7) 0.4407(10)
C2_3 C 0.5462(8) 0.1100(8) 0.5590(11)
H1_3 H 0.5276 0.1520 0.5383
C3_3 C 0.6420(9) 0.1634(9) 0.5973(11)
H2_3 H 0.6725 0.1914 0.5175
C4_3 C 0.6816(11) 0.1096(11) 0.6395(17)
H3_3 H 0.6420 0.0663 0.6999
H4_3 H 0.7348 0.1474 0.6857
C5_3 C 0.7028(13) 0.0633(14) 0.5364(19)
H5_2 H 0.7303 0.1020 0.4653
H6_3 H 0.6502 0.0133 0.5076
H7_3 H 0.7414 0.0452 0.5706
C6_3 C 0.6615(10) 0.2391(10) 0.6886(13)
H8_3 H 0.6299 0.2670 0.6611
H9_3 H 0.7227 0.2803 0.6875
H10_3 H 0.6441 0.2172 0.7742
C7_3 C 0.4106(8) 0.0620(7) 0.6846(12)
H11_3 H 0.3755 0.0217 0.7515
H12_3 H 0.3773 0.0439 0.6055
C8_3 C 0.4890(12) 0.2743(9) 0.8591(11)
H13_3 H 0.5159 0.2989 0.9367
C9_3 C 0.4625(13) 0.1880(9) 0.8373(13)
H14_3 H 0.4680 0.1549 0.9019
C10_3 C 0.4277(12) 0.1504(9) 0.7188(12)
C11_3 C 0.4137(11) 0.2030(8) 0.6357(14)
H15_3 H 0.3883 0.1811 0.5562
C12_3 C 0.4359(12) 0.2847(9) 0.6670(12)
H16_3 H 0.4211 0.3157 0.6102
N1_3 N 0.4904(6) 0.0569(5) 0.6677(9)
H17_3 H 0.5221 0.0758 0.7413
N2_3 N 0.4776(8) 0.3242(6) 0.7739(8)
C8_4 C 0.2147(15) 0.4890(12) 0.0258(11)
H13_4 H 0.2170 0.5159 0.1034
C9_4 C 0.2745(16) 0.4625(13) 0.0040(13)
H14_4 H 0.3131 0.4680 0.0686
C1_3 C 0.4743(11) 0.5301(8) 0.6074(10)
C2_4 C 0.4362(11) 0.5462(8) 0.7257(11)
H1_4 H 0.3756 0.5276 0.7050
C3_4 C 0.4786(13) 0.6420(9) 0.7640(11)
H2_4 H 0.4811 0.6725 0.6842
C4_4 C 0.5720(16) 0.6816(11) 0.8062(17)
H3_4 H 0.5757 0.6420 0.8666
H4_4 H 0.5874 0.7348 0.8524
C5_4 C 0.6395(19) 0.7028(13) 0.7031(19)
H5_3 H 0.6283 0.7303 0.6320
H6_4 H 0.6369 0.6502 0.6743
H7_4 H 0.6962 0.7414 0.7373
C6_4 C 0.4224(14) 0.6615(10) 0.8553(13)
H8_4 H 0.3629 0.6299 0.8278
H9_4 H 0.4424 0.7227 0.8542
H10_4 H 0.4269 0.6441 0.9409
C7_4 C 0.3486(11) 0.4106(8) 0.8513(12)
H11_4 H 0.3538 0.3755 0.9182
H12_4 H 0.3334 0.3773 0.7722
C10_4 C 0.2773(15) 0.4277(12) 0.8855(12)
C11_4 C 0.2107(14) 0.4137(11) 0.8024(14)
H15_4 H 0.2072 0.3883 0.7229
C12_4 C 0.1512(15) 0.4359(12) 0.8337(12)
H16_4 H 0.1054 0.4211 0.7769
N1_4 N 0.4335(8) 0.4904(6) 0.8344(9)
H17_4 H 0.4463 0.5221 0.9080
N2_4 N 0.1534(10) 0.4776(8) 0.9406(8)
N3_4 N 0.6538(13) 0.5283(10) 0.8051(14)
N4_4 N 0.6867(14) 0.5761(11) 0.9041(15)
N5_4 N 0.7171(19) 0.6245(14) 0.9882(19)
O1_3 O 0.5102(7) 0.4827(5) 0.6152(8)
N3_5 N 0.1255(9) 0.6538(13) 0.9717(14)
O1_4 O 0.0275(5) 0.5102(7) 0.7818(8)
H3_5 H 0.9337 0.5757 0.0332
H4_5 H 0.8526 0.5874 0.0190
C6_5 C 0.7609(10) 0.4224(14) 0.0219(13)
H9_5 H 0.7197 0.4424 0.0208
H10_5 H 0.7828 0.4269 0.1075
C7_5 C 0.9380(7) 0.3486(11) 0.0179(12)
H11_5 H 0.9783 0.3538 0.0848
C8_5 C 0.7257(9) 0.2147(15) 0.1924(11)
H13_5 H 0.7011 0.2170 0.2700
C9_5 C 0.8120(9) 0.2745(16) 0.1706(13)
H14_5 H 0.8451 0.3131 0.2352
C10_5 C 0.8496(9) 0.2773(15) 0.0521(12)
C12_5 C 0.7153(9) 0.1512(15) 0.0003(12)
N1_5 N 0.9431(5) 0.4335(8) 0.0010(9)
H17_5 H 0.9242 0.4463 0.0746
C1_4 C 0.9442(7) 0.4743(11) 0.7740(10)
C2_5 C 0.8900(8) 0.4362(11) 0.8923(11)
H1_5 H 0.8480 0.3756 0.8716
C3_5 C 0.8366(9) 0.4786(13) 0.9306(11)
H2_5 H 0.8086 0.4811 0.8508
C4_5 C 0.8904(11) 0.5720(16) 0.9728(17)
C5_5 C 0.9367(14) 0.6395(19) 0.8697(19)
H5_4 H 0.8980 0.6283 0.7986
H6_5 H 0.9867 0.6369 0.8409
H7_5 H 0.9548 0.6962 0.9039
H8_5 H 0.7330 0.3629 0.9944
H12_5 H 0.9561 0.3334 0.9388
C11_5 C 0.7970(8) 0.2107(14) 0.9690(14)
H15_5 H 0.8189 0.2072 0.8895
H16_5 H 0.6843 0.1054 0.9435
O1_5 O 0.5173(5) 0.0275(5) 0.9485(8)
C1_5 C 0.4699(8) 0.9442(7) 0.9407(10)
H5_5 H 0.2697 0.8980 0.9653
O2_2 O 0.4321(6) 0.9047(6) 0.8403(9)
Zn3_3 Zn 0.45280(9) 0.92641(7) 0.64199(16)
C1_6 C 0.0558(7) 0.5257(11) 0.2740(10)
C2_6 C 0.1100(8) 0.5638(11) 0.3923(11)
H1_6 H 0.1520 0.6244 0.3716
C3_6 C 0.1634(9) 0.5214(13) 0.4306(11)
H2_6 H 0.1914 0.5189 0.3508
C4_6 C 0.1096(11) 0.4280(16) 0.4728(17)
H3_6 H 0.0663 0.4243 0.5332
H4_6 H 0.1474 0.4126 0.5190
C5_6 C 0.0633(14) 0.3605(19) 0.3697(19)
H5_6 H 0.1020 0.3717 0.2986
H6_6 H 0.0133 0.3631 0.3409
H7_6 H 0.0452 0.3038 0.4039
C6_6 C 0.2391(10) 0.5776(14) 0.5219(13)
H8_6 H 0.2670 0.6371 0.4944
H9_6 H 0.2803 0.5576 0.5208
H10_6 H 0.2172 0.5731 0.6075
C7_6 C 0.0620(7) 0.6514(11) 0.5179(12)
H11_6 H 0.0217 0.6462 0.5848
H12_6 H 0.0439 0.6666 0.4388
C8_6 C 0.2743(9) 0.7853(15) 0.6924(11)
H13_6 H 0.2989 0.7830 0.7700
C9_6 C 0.1880(9) 0.7255(16) 0.6706(13)
H14_6 H 0.1549 0.6869 0.7352
C10_6 C 0.1504(9) 0.7227(15) 0.5521(12)
C11_6 C 0.2030(8) 0.7893(14) 0.4690(14)
H15_6 H 0.1811 0.7928 0.3895
C12_6 C 0.2847(9) 0.8488(15) 0.5003(12)
H16_6 H 0.3157 0.8946 0.4435
N1_6 N 0.0569(5) 0.5665(8) 0.5010(9)
H17_6 H 0.0758 0.5537 0.5746
N2_5 N 0.3242(6) 0.8466(10) 0.6072(8)
O2_3 O 0.0953(6) 0.5274(8) 0.1736(9)
N3_6 N 0.5283(10) 0.8745(9) 0.6384(14)
N4_5 N 0.5761(11) 0.8894(9) 0.7374(15)
N5_5 N 0.6245(14) 0.9074(13) 0.8215(19)
O1_6 O 0.4827(5) 0.9725(5) 0.4485(8)
N4_6 N 0.1106(9) 0.6867(14) 0.0707(15)
N5_6 N 0.0926(13) 0.7171(19) 0.1548(19)
loop_
_geom_bond_atom_site_label_1
_geom_bond_atom_site_label_2
_geom_bond_site_symmetry_1
_geom_bond_site_symmetry_2
N3 N4 1_555 1_555
N4 N5 1_555 1_555
N6 Zn1 1_555 1_555
O3 Zn1 1_555 1_555
N3 Zn1 1_555 1_555
C2 H1 1_555 1_555
C3 C2 1_555 1_555
H2 C3 1_555 1_555
C4 C3 1_555 1_555
H3 C4 1_555 1_555
H4 C4 1_555 1_555
C5 C4 1_555 1_555
H6 C5 1_555 1_555
H7 C5 1_555 1_555
C6 C3 1_555 1_555
H8 C6 1_555 1_555
H9 C6 1_555 1_555
H10 C6 1_555 1_555
C7 H11 1_555 1_555
H12 C7 1_555 1_555
C8 H13 1_555 1_555
C9 C8 1_555 1_555
H14 C9 1_555 1_555
C10 C7 1_555 1_555
C11 C10 1_555 1_555
H15 C11 1_555 1_555
C12 C11 1_555 1_555
H16 C12 1_555 1_555
N1 C2 1_555 1_555
H17 N1 1_555 1_555
N2 C8 1_555 1_555
Zn2 N2 1_555 1_555
C7 N1 1_555 1_555
C9 C10 1_555 1_555
C12 N2 1_555 1_555
C1 C2_2 1_555 1_555
C2_2 H1_2 1_555 1_555
C3_2 C2_2 1_555 1_555
H2_2 C3_2 1_555 1_555
C4_2 C3_2 1_555 1_555
H3_2 C4_2 1_555 1_555
H4_2 C4_2 1_555 1_555
C5_2 C4_2 1_555 1_555
H5 C5_2 1_555 1_555
H6_2 C5_2 1_555 1_555
H7_2 C5_2 1_555 1_555
C6_2 C3_2 1_555 1_555
H8_2 C6_2 1_555 1_555
H9_2 C6_2 1_555 1_555
H10_2 C6_2 1_555 1_555
C7_2 H11_2 1_555 1_555
H12_2 C7_2 1_555 1_555
C8_2 H13_2 1_555 1_555
C9_2 C8_2 1_555 1_555
H14_2 C9_2 1_555 1_555
C10_2 C7_2 1_555 1_555
C11_2 C10_2 1_555 1_555
H15_2 C11_2 1_555 1_555
C12_2 C11_2 1_555 1_555
H16_2 C12_2 1_555 1_555
N1_2 C2_2 1_555 1_555
H17_2 N1_2 1_555 1_555
N2_2 C8_2 1_555 1_555
N3_2 N4_2 1_555 1_555
N4_2 N5_2 1_555 1_555
O1 C1 1_555 1_555
O2 C1 1_555 1_555
Zn2 N1_2 1_555 1_555
O3_2 Zn2 1_555 1_555
Zn2_2 N2_2 1_555 1_555
C7_2 N1_2 1_555 1_555
C9_2 C10_2 1_555 1_555
C12_2 N2_2 1_555 1_555
N3_2 Zn2 1_555 1_555
O1 Zn2 1_555 1_555
N3_3 N4_3 1_555 1_555
N4_3 N5_3 1_555 1_555
O3_3 Zn2_2 1_555 1_555
N3_3 Zn2_2 1_555 1_555
O1_2 Zn2_2 1_555 1_555
C1_2 C2_3 1_555 1_555
C2_3 H1_3 1_555 1_555
C3_3 C2_3 1_555 1_555
H2_3 C3_3 1_555 1_555
C4_3 C3_3 1_555 1_555
H3_3 C4_3 1_555 1_555
H4_3 C4_3 1_555 1_555
C5_3 C4_3 1_555 1_555
H5_2 C5_3 1_555 1_555
H6_3 C5_3 1_555 1_555
H7_3 C5_3 1_555 1_555
C6_3 C3_3 1_555 1_555
H8_3 C6_3 1_555 1_555
H9_3 C6_3 1_555 1_555
H10_3 C6_3 1_555 1_555
C7_3 H11_3 1_555 1_555
H12_3 C7_3 1_555 1_555
C8_3 H13_3 1_555 1_555
C9_3 C8_3 1_555 1_555
H14_3 C9_3 1_555 1_555
C10_3 C7_3 1_555 1_555
C11_3 C10_3 1_555 1_555
H15_3 C11_3 1_555 1_555
C12_3 C11_3 1_555 1_555
H16_3 C12_3 1_555 1_555
N1_3 C2_3 1_555 1_555
H17_3 N1_3 1_555 1_555
N2_3 C8_3 1_555 1_555
O3 C1_2 1_555 1_555
Zn3 N2_3 1_555 1_555
C7_3 N1_3 1_555 1_555
C9_3 C10_3 1_555 1_555
C12_3 N2_3 1_555 1_555
C8_4 H13_4 1_555 1_555
C9_4 C8_4 1_555 1_555
H14_4 C9_4 1_555 1_555
C1_3 C2_4 1_555 1_555
C2_4 H1_4 1_555 1_555
C3_4 C2_4 1_555 1_555
H2_4 C3_4 1_555 1_555
C4_4 C3_4 1_555 1_555
H3_4 C4_4 1_555 1_555
H4_4 C4_4 1_555 1_555
C5_4 C4_4 1_555 1_555
H5_3 C5_4 1_555 1_555
H6_4 C5_4 1_555 1_555
H7_4 C5_4 1_555 1_555
C6_4 C3_4 1_555 1_555
H8_4 C6_4 1_555 1_555
H9_4 C6_4 1_555 1_555
H10_4 C6_4 1_555 1_555
C7_4 H11_4 1_555 1_555
H12_4 C7_4 1_555 1_555
C10_4 C7_4 1_555 1_555
C11_4 C10_4 1_555 1_555
H15_4 C11_4 1_555 1_555
C12_4 C11_4 1_555 1_555
H16_4 C12_4 1_555 1_555
N1_4 C2_4 1_555 1_555
H17_4 N1_4 1_555 1_555
N3_4 N4_4 1_555 1_555
N4_4 N5_4 1_555 1_555
O1_3 C1_3 1_555 1_555
O3_2 C1_3 1_555 1_555
Zn3 N1_4 1_555 1_555
Zn3_2 N2_4 1_555 1_555
C7_4 N1_4 1_555 1_555
C12_4 N2_4 1_555 1_555
N3_4 Zn3 1_555 1_555
O1_3 Zn3 1_555 1_555
N3_5 Zn3_2 1_555 1_555
O1_4 Zn3_2 1_555 1_555
H9_5 C6_5 1_555 1_555
H10_5 C6_5 1_555 1_555
C7_5 H11_5 1_555 1_555
C8_5 H13_5 1_555 1_555
C9_5 C8_5 1_555 1_555
H14_5 C9_5 1_555 1_555
C10_5 C7_5 1_555 1_555
H17_5 N1_5 1_555 1_555
N6 C8_5 1_555 1_555
C7_5 N1_5 1_555 1_555
C9_5 C10_5 1_555 1_555
C12_5 N6 1_555 1_555
C1_4 C2_5 1_555 1_555
C2_5 H1_5 1_555 1_555
C3_5 C2_5 1_555 1_555
H2_5 C3_5 1_555 1_555
C4_5 C3_5 1_555 1_555
C5_5 C4_5 1_555 1_555
H5_4 C5_5 1_555 1_555
H6_5 C5_5 1_555 1_555
H7_5 C5_5 1_555 1_555
H15_5 C11_5 1_555 1_555
O3_3 C1_4 1_555 1_555
O2_2 C1_5 1_555 1_555
Zn3_3 O2_2 1_555 1_555
C1_6 C2_6 1_555 1_555
C2_6 H1_6 1_555 1_555
C3_6 C2_6 1_555 1_555
H2_6 C3_6 1_555 1_555
C4_6 C3_6 1_555 1_555
H3_6 C4_6 1_555 1_555
H4_6 C4_6 1_555 1_555
C5_6 C4_6 1_555 1_555
H5_6 C5_6 1_555 1_555
H6_6 C5_6 1_555 1_555
H7_6 C5_6 1_555 1_555
C6_6 C3_6 1_555 1_555
H8_6 C6_6 1_555 1_555
H9_6 C6_6 1_555 1_555
H10_6 C6_6 1_555 1_555
C7_6 H11_6 1_555 1_555
H12_6 C7_6 1_555 1_555
C8_6 H13_6 1_555 1_555
C9_6 C8_6 1_555 1_555
H14_6 C9_6 1_555 1_555
C10_6 C7_6 1_555 1_555
C11_6 C10_6 1_555 1_555
H15_6 C11_6 1_555 1_555
C12_6 C11_6 1_555 1_555
H16_6 C12_6 1_555 1_555
N1_6 C2_6 1_555 1_555
H17_6 N1_6 1_555 1_555
N2_5 C8_6 1_555 1_555
O2_3 C1_6 1_555 1_555
Zn3_3 N2_5 1_555 1_555
C7_6 N1_6 1_555 1_555
C9_6 C10_6 1_555 1_555
C12_6 N2_5 1_555 1_555
N3_6 N4_5 1_555 1_555
N4_5 N5_5 1_555 1_555
N3_6 Zn3_3 1_555 1_555
O1_6 Zn3_3 1_555 1_555
N4_6 N5_6 1_555 1_555

#END
