
###############################################################################
#
# This file contains modified crystal structure data generated from the
# MOF subset of the Cambridge Structural Database (CSD) v543 
# hosted by the Cambridge Crystallographic Data Centre (CCDC).
#
# This work is licensed under the Creative Commons
# Attribution-NonCommercial-ShareAlike 4.0 International License.
# To view a copy of this license, visit
# http://creativecommons.org/licenses/by-nc-sa/4.0/
# or send a letter to
# Creative Commons, PO Box 1866, Mountain View, CA 94042, USA.
#
# CIF created using the CSD Python API on 29 September 2022
# The structure has been converted into the P1 space group
# The structure has a 3D framework
# The original CSD entry GAXRAA is in the triclinic crystal system
# The framework has been calculated to contain at least 10.0% void space
# The void calculation uses a probe of radius 1.32A, grid spacing 0.4
#
###############################################################################

data_GAXRAA
_chemical_formula_moiety         '(C34 H24 N10 Ni3 O11)n'
_symmetry_cell_setting           triclinic
_symmetry_space_group_name_H-M   'P 1'
_symmetry_Int_Tables_number      1
_space_group_name_Hall           'P 1'
loop_
_symmetry_equiv_pos_site_id
_symmetry_equiv_pos_as_xyz
1 x,y,z
_cell_length_a                   8.7520(18)
_cell_length_b                   10.915(2)
_cell_length_c                   11.035(2)
_cell_angle_alpha                76.85(3)
_cell_angle_beta                 77.91(3)
_cell_angle_gamma                67.61(3)
_cell_volume                     940.256
loop_
_atom_site_label
_atom_site_type_symbol
_atom_site_fract_x
_atom_site_fract_y
_atom_site_fract_z
Ni6 Ni 0.5000 0.0000 0.5000
O6 O 0.1089(3) 0.0000(4) 0.8019(2)
O10 O 0.3244(3) 0.0067(2) 0.6585(2)
C11 C 0.0739(4) 0.9246(3) 0.4059(3)
H10 H 0.1187 0.8722 0.3466
Ni4 Ni 0.5000 0.5000 0.5000
Ni6_2 Ni 0.5000 1.0000 0.5000
O6_2 O 0.1089(3) 1.0000(4) 0.8019(2)
O8 O 0.3321(3) 0.6872(2) 0.5190(2)
O12 O 0.4689(3) 0.8314(2) 0.4673(2)
C18 C 0.3374(4) 0.8039(3) 0.4956(3)
C19 C 0.1663(3) 0.9125(3) 0.4988(3)
C20 C 0.1830(4) 0.9955(3) 0.6921(3)
C32 C 0.0907(4) 0.9908(3) 0.5942(3)
O1 O 0.8911(3) 0.0000(4) 0.1981(2)
O2 O 0.3231(3) 0.4212(2) 0.6079(2)
O3 O 0.6679(3) 0.3128(2) 0.4810(2)
O5 O 0.5311(3) 0.1686(2) 0.5327(2)
C1 C 0.6626(4) 0.1961(3) 0.5044(3)
C2 C 0.8337(3) 0.0875(3) 0.5012(3)
C3 C 0.8170(4) 0.0045(3) 0.3079(3)
N2 N 0.3863(3) 0.5023(3) 0.3466(2)
C9 C 0.2331(4) 0.5888(3) 0.3319(3)
H5 H 0.1732 0.6375 0.3962
C10 C 0.4657(4) 0.4253(3) 0.2575(3)
H6 H 0.5695 0.3596 0.2687
C12 C 0.1774(4) 0.5597(3) 0.0149(3)
C13 C 0.2456(4) 0.5353(3) 0.1318(3)
C14 C 0.1582(4) 0.6103(3) 0.2276(3)
H7 H 0.0518 0.6734 0.2209
C15 C 0.9093(4) 0.0092(3) 0.4058(3)
C16 C 0.3999(4) 0.4394(3) 0.1502(3)
H8 H 0.4592 0.3845 0.0903
H9 H 0.3693 0.3321 0.6210
H12 H 0.2737 0.4478 0.6749
O7 O 0.6769(3) 0.5788(2) 0.3921(2)
C21 C 0.2016(4) 0.2344(3) 0.4112(3)
H13 H 0.1948 0.2574 0.4888
C22 C 0.0789(4) 0.3117(3) 0.3369(3)
N6 N 0.3297(3) 0.1279(3) 0.3767(2)
C23 C 0.3390(4) 0.0984(3) 0.2633(3)
H15 H 0.4285 0.0251 0.2379
C24 C 0.2239(4) 0.1704(4) 0.1830(3)
H16 H 0.2355 0.1463 0.1050
C25 C 0.0892(4) 0.2800(3) 0.2196(3)
N9 N 0.6137(3) 0.4977(3) 0.6534(2)
C28 C 0.9261(4) 0.0754(3) 0.5941(3)
H21 H 0.6307 0.6679 0.3790
H22 H 0.8813 0.1278 0.6534
H24 H 0.7263 0.5522 0.3251
O1_2 O 0.8911(3) 1.0000(4) 0.1981(2)
O4 O 0.6756(3) 0.9933(2) 0.3415(2)
N7 N 0.6703(3) 0.8721(3) 0.6233(2)
C4 C 0.7984(4) 0.7656(3) 0.5888(3)
H1 H 0.8052 0.7426 0.5112
C5 C 0.9211(4) 0.6883(3) 0.6631(3)
C6 C 0.6610(4) 0.9016(3) 0.7367(3)
H3 H 0.5715 0.9749 0.7621
C7 C 0.7761(4) 0.8296(4) 0.8170(3)
H4 H 0.7645 0.8537 0.8950
C8 C 0.9108(4) 0.7200(3) 0.7804(3)
C26 C 0.7669(4) 0.4112(3) 0.6681(3)
H17 H 0.8268 0.3625 0.6038
C27 C 0.5343(4) 0.5747(3) 0.7425(3)
H18 H 0.4305 0.6404 0.7313
C29 C 0.8226(4) 0.4403(3) 0.9851(3)
C30 C 0.7544(4) 0.4647(3) 0.8682(3)
C31 C 0.8418(4) 0.3897(3) 0.7724(3)
H19 H 0.9482 0.3266 0.7791
C33 C 0.6001(4) 0.5606(3) 0.8498(3)
H20 H 0.5408 0.6155 0.9097
H2 H 0.0097 0.6159 0.6352
N3 N 0.1655(3) 0.5319(3) 0.8266(2)
N4 N 0.2522(3) 0.4838(3) 0.9252(2)
N5 N 0.0398(3) 0.6586(3) 0.9784(2)
C17 C 0.0391(4) 0.6372(3) 0.8617(3)
H11 H 0.3372 0.4112 0.9226
H14 H 0.9903 0.3841 0.3648
N10 N 0.8345(3) 0.4681(3) 0.1734(2)
N11 N 0.7478(3) 0.5162(3) 0.0748(2)
N12 N 0.9602(3) 0.3414(3) 0.0216(2)
C34 C 0.9609(4) 0.3628(3) 0.1383(3)
H23 H 0.6628 0.5888 0.0774
loop_
_geom_bond_atom_site_label_1
_geom_bond_atom_site_label_2
_geom_bond_site_symmetry_1
_geom_bond_site_symmetry_2
Ni6 O10 1_555 1_555
H10 C11 1_555 1_555
Ni4 O8 1_555 1_555
O6_2 C20 1_555 1_555
O8 C18 1_555 1_555
O12 Ni6_2 1_555 1_555
C18 O12 1_555 1_555
C19 C11 1_555 1_555
C20 C32 1_555 1_555
C32 C19 1_555 1_555
C18 C19 1_555 1_555
Ni4 O2 1_555 1_555
O1 C3 1_555 1_555
O2 H9 1_555 1_555
O3 Ni4 1_555 1_555
O5 Ni6 1_555 1_555
C1 O3 1_555 1_555
C2 C1 1_555 1_555
C3 C15 1_555 1_555
N2 Ni4 1_555 1_555
C9 N2 1_555 1_555
H5 C9 1_555 1_555
C10 N2 1_555 1_555
H6 C10 1_555 1_555
C12 C13 1_555 1_555
C13 C14 1_555 1_555
C14 C9 1_555 1_555
H7 C14 1_555 1_555
C15 C2 1_555 1_555
C16 C10 1_555 1_555
H8 C16 1_555 1_555
H12 O2 1_555 1_555
O7 Ni4 1_555 1_555
C21 H13 1_555 1_555
C22 C21 1_555 1_555
N6 Ni6 1_555 1_555
C23 N6 1_555 1_555
H15 C23 1_555 1_555
C24 C23 1_555 1_555
H16 C24 1_555 1_555
C25 C22 1_555 1_555
N9 Ni4 1_555 1_555
C28 C2 1_555 1_555
H21 O7 1_555 1_555
H22 C28 1_555 1_555
H24 O7 1_555 1_555
O5 C1 1_555 1_555
C13 C16 1_555 1_555
C21 N6 1_555 1_555
C24 C25 1_555 1_555
Ni6_2 O4 1_555 1_555
N7 Ni6_2 1_555 1_555
C4 H1 1_555 1_555
C5 C4 1_555 1_555
N7 C4 1_555 1_555
C6 N7 1_555 1_555
H3 C6 1_555 1_555
C7 C6 1_555 1_555
H4 C7 1_555 1_555
C8 C5 1_555 1_555
N9 C26 1_555 1_555
C26 H17 1_555 1_555
C27 N9 1_555 1_555
H18 C27 1_555 1_555
C29 C30 1_555 1_555
C30 C31 1_555 1_555
C31 C26 1_555 1_555
H19 C31 1_555 1_555
C33 C27 1_555 1_555
H20 C33 1_555 1_555
C7 C8 1_555 1_555
C30 C33 1_555 1_555
N3 N4 1_555 1_555
H11 N4 1_555 1_555
N3 C17 1_555 1_555
N5 C17 1_555 1_555
N10 N11 1_555 1_555
H23 N11 1_555 1_555
N10 C34 1_555 1_555
N12 C34 1_555 1_555

#END
