
###############################################################################
#
# This file contains modified crystal structure data generated from the
# MOF subset of the Cambridge Structural Database (CSD) v543 
# hosted by the Cambridge Crystallographic Data Centre (CCDC).
#
# This work is licensed under the Creative Commons
# Attribution-NonCommercial-ShareAlike 4.0 International License.
# To view a copy of this license, visit
# http://creativecommons.org/licenses/by-nc-sa/4.0/
# or send a letter to
# Creative Commons, PO Box 1866, Mountain View, CA 94042, USA.
#
# CIF created using the CSD Python API on 29 September 2022
# The structure has been converted into the P1 space group
# The structure has a 3D framework
# The original CSD entry GAXWIN is in the monoclinic crystal system
# The framework has been calculated to contain at least 10.0% void space
# The void calculation uses a probe of radius 1.32A, grid spacing 0.4
# H atom positions have been added when not included in the experimental data
#
###############################################################################

data_GAXWIN
_chemical_formula_moiety         '(C96 H52 N8 O14)n'
_symmetry_cell_setting           triclinic
_symmetry_space_group_name_H-M   'P 1'
_symmetry_Int_Tables_number      1
_space_group_name_Hall           'P 1'
loop_
_symmetry_equiv_pos_site_id
_symmetry_equiv_pos_as_xyz
1 x,y,z
_cell_length_a                   15.3484(6)
_cell_length_b                   6.9216(3)
_cell_length_c                   27.1086(13)
_cell_angle_alpha                90
_cell_angle_beta                 99.924(4)
_cell_angle_gamma                90
_cell_volume                     2836.8
loop_
_atom_site_label
_atom_site_type_symbol
_atom_site_fract_x
_atom_site_fract_y
_atom_site_fract_z
Pb5 Pb 0.059404(16) 0.63451(3) 0.739874(9)
O9 O 0.0867(3) 0.1161(6) 0.30315(18)
O17 O 0.0277(3) 0.2303(6) 0.19959(17)
Pb1 Pb 0.059404(16) 0.86549(3) 0.239874(9)
O6 O 0.0882(3) 0.4828(6) 0.24237(18)
O14 O 0.1802(4) 0.8835(7) 0.3218(3)
O3 O 0.8198(4) 0.1165(7) 0.6782(3)
H11 H 0.6997 0.0108 0.6021
Pb4 Pb 0.940596(16) 0.13451(3) 0.760126(9)
O2 O 0.9133(3) 0.8839(6) 0.69685(18)
N1 N 0.4795(4) 0.2087(7) 0.5509(2)
N2 N 0.6104(3) 0.1450(7) 0.4867(2)
C4 C 0.6719(4) 0.5545(8) 0.5787(2)
C5 C 0.6469(4) 0.3089(9) 0.5119(3)
C6 C 0.6556(5) 0.7502(10) 0.5749(3)
H2 H 0.6073 0.7963 0.5525
C7 C 0.6133(4) 0.4064(9) 0.5492(3)
C8 C 0.8014(5) 0.6210(9) 0.6399(3)
H3 H 0.8506 0.5743 0.6615
C9 C 0.5337(4) 0.3665(9) 0.5663(2)
C10 C 0.7846(4) 0.8142(9) 0.6379(3)
C12 C 0.6643(4) 0.0912(9) 0.4535(3)
C13 C 0.7368(5) 0.2298(11) 0.4582(3)
H5 H 0.7827 0.2302 0.4398
C16 C 0.7460(5) 0.4936(9) 0.6103(3)
H7 H 0.7596 0.3625 0.6118
C17 C 0.7254(5) 0.3557(10) 0.4938(3)
H8 H 0.7630 0.4578 0.5050
C18 C 0.4978(5) 0.4701(11) 0.6033(3)
H9 H 0.5213 0.5817 0.6195
C19 C 0.7226(5) 0.0345(11) 0.3506(3)
H10 H 0.6832 0.1378 0.3466
C20 C 0.7116(5) 0.8791(10) 0.6046(3)
C22 C 0.7830(5) 0.0160(9) 0.3190(3)
H12 H 0.7833 0.1059 0.2935
C23 C 0.8425(5) 0.9486(9) 0.6733(3)
Pb3 Pb 0.940596(16) 0.36549(3) 0.260126(9)
O5 O 0.0882(3) 0.0172(6) 0.74237(18)
O12 O 0.0867(3) 0.3839(6) 0.80315(18)
C25 C 0.4246(5) 0.3798(10) 0.6108(3)
H13 H 0.3882 0.4168 0.6332
C26 C 0.2805(4) 0.1002(10) 0.6113(3)
C27 C 0.3456(4) 0.0740(9) 0.5761(3)
C35 C 0.2218(5) 0.2521(9) 0.6071(3)
H16 H 0.2239 0.3456 0.5827
C38 C 0.1603(5) 0.2685(10) 0.6381(3)
H18 H 0.1205 0.3709 0.6340
C39 C 0.4116(4) 0.2123(10) 0.5775(3)
C45 C 0.1574(4) 0.1325(9) 0.6756(2)
O16 O 0.0277(3) 0.2697(6) 0.69959(17)
C48 C 0.0873(4) 0.1388(9) 0.7084(2)
H25 H 0.554036 0.0772457 0.4919
O1 O 0.9118(3) 0.9828(6) 0.25763(18)
C1 C 0.5754(5) 0.6202(10) 0.3892(3)
H1 H 0.6118 0.5832 0.3668
C2 C 0.7195(4) 0.8998(10) 0.3887(3)
C3 C 0.6544(4) 0.9260(9) 0.4239(3)
C11 C 0.7782(5) 0.7479(9) 0.3929(3)
H4 H 0.7761 0.6544 0.4173
C14 C 0.8397(5) 0.7315(10) 0.3619(3)
H6 H 0.8795 0.6291 0.3660
C15 C 0.5884(4) 0.7877(10) 0.4225(3)
C21 C 0.8426(4) 0.8675(9) 0.3244(2)
O4 O 0.9723(3) 0.7303(6) 0.30041(17)
C24 C 0.9127(4) 0.8612(9) 0.2916(2)
O10 O 0.9133(3) 0.6161(6) 0.19685(18)
N3 N 0.5205(4) 0.7913(7) 0.4491(2)
N4 N 0.3896(3) 0.8550(7) 0.5133(2)
C28 C 0.3281(4) 0.4455(8) 0.4213(2)
C29 C 0.3531(4) 0.6911(9) 0.4881(3)
C30 C 0.3444(5) 0.2498(10) 0.4251(3)
H14 H 0.3927 0.2037 0.4475
C31 C 0.3867(4) 0.5936(9) 0.4508(3)
C32 C 0.1986(5) 0.3790(9) 0.3601(3)
H15 H 0.1494 0.4257 0.3385
C33 C 0.4663(4) 0.6335(9) 0.4337(2)
C34 C 0.2154(4) 0.1858(9) 0.3621(3)
C36 C 0.3357(4) 0.9088(9) 0.5465(3)
C37 C 0.2632(5) 0.7702(11) 0.5418(3)
H17 H 0.2173 0.7698 0.5602
C40 C 0.2540(5) 0.5064(9) 0.3897(3)
H19 H 0.2404 0.6375 0.3882
C41 C 0.2746(5) 0.6443(10) 0.5062(3)
H20 H 0.2370 0.5422 0.4950
C42 C 0.5022(5) 0.5299(11) 0.3967(3)
H21 H 0.4787 0.4183 0.3805
C43 C 0.2774(5) 0.9655(11) 0.6494(3)
H22 H 0.3168 0.8622 0.6534
C44 C 0.2884(5) 0.1209(10) 0.3954(3)
C46 C 0.2170(5) 0.9840(9) 0.6810(3)
H24 H 0.2167 0.8941 0.7065
C47 C 0.1575(5) 0.0514(9) 0.3267(3)
H26 H 0.445964 0.922754 0.5081
H23 H 0.3003 0.9892 0.3979
O7 O 0.9118(3) 0.5172(6) 0.75763(18)
O18 O 0.9723(3) 0.7697(6) 0.80041(17)
O15 O 0.1802(4) 0.6165(7) 0.8218(3)
C4_2 C 0.3281(4) 0.0545(8) 0.9213(2)
C6_2 C 0.3444(5) 0.2502(10) 0.9251(3)
H2_2 H 0.3927 0.2963 0.9475
C8_2 C 0.1986(5) 0.1210(9) 0.8601(3)
H3_2 H 0.1494 0.0743 0.8385
C10_2 C 0.2154(4) 0.3142(9) 0.8621(3)
H9_2 H 0.4787 0.0817 0.8805
C20_2 C 0.2884(5) 0.3791(10) 0.8954(3)
H11_2 H 0.3003 0.5108 0.8979
C23_2 C 0.1575(5) 0.4486(9) 0.8267(3)
C1_2 C 0.4246(5) 0.1202(10) 0.1108(3)
H1_2 H 0.3882 0.0832 0.1332
C2_2 C 0.2805(4) 0.3998(10) 0.1113(3)
N2_2 N 0.3896(3) 0.6450(7) 0.0133(2)
C3_2 C 0.3456(4) 0.4260(9) 0.0761(3)
C11_2 C 0.2218(5) 0.2479(9) 0.1071(3)
H4_2 H 0.2239 0.1544 0.0827
C12_2 C 0.3357(4) 0.5912(9) 0.0465(3)
C13_2 C 0.2632(5) 0.7298(11) 0.0418(3)
H5_2 H 0.2173 0.7302 0.0602
C14_2 C 0.1603(5) 0.2315(10) 0.1381(3)
H6_2 H 0.1205 0.1291 0.1340
C15_2 C 0.4116(4) 0.2877(10) 0.0775(3)
C17_2 C 0.2746(5) 0.8557(10) 0.0062(3)
C19_2 C 0.2774(5) 0.5345(11) 0.1494(3)
H10_2 H 0.3168 0.6378 0.1534
C21_2 C 0.1574(4) 0.3675(9) 0.1756(2)
C22_2 C 0.2170(5) 0.5160(9) 0.1810(3)
H12_2 H 0.2167 0.6059 0.2065
C24_2 C 0.0873(4) 0.3612(9) 0.2084(2)
N3_2 N 0.4795(4) 0.2913(7) 0.0509(2)
C29_2 C 0.6469(4) 0.1911(9) 0.0119(3)
C31_2 C 0.6133(4) 0.0936(9) 0.0492(3)
C33_2 C 0.5337(4) 0.1335(9) 0.0663(2)
C40_2 C 0.7460(5) 0.0064(9) 0.1103(3)
H19_2 H 0.7596 0.1375 0.1118
H20_2 H 0.7630 0.0422 0.0050
C42_2 C 0.4978(5) 0.0299(11) 0.1033(3)
H25_2 H 0.445964 0.577246 0.0080997
N1_2 N 0.5205(4) 0.7087(7) 0.9491(2)
C5_2 C 0.3531(4) 0.8089(9) 0.9881(3)
C7_2 C 0.3867(4) 0.9064(9) 0.9508(3)
C9_2 C 0.4663(4) 0.8665(9) 0.9337(2)
C16_2 C 0.2540(5) 0.9936(9) 0.8897(3)
H7_2 H 0.2404 0.8625 0.8882
H8_2 H 0.2370 0.9578 0.9950
C18_2 C 0.5022(5) 0.9701(11) 0.8967(3)
C25_2 C 0.5754(5) 0.8798(10) 0.8892(3)
H13_2 H 0.6118 0.9168 0.8668
C26_2 C 0.7195(4) 0.6002(10) 0.8887(3)
N4_2 N 0.6104(3) 0.3550(7) 0.9867(2)
C27_2 C 0.6544(4) 0.5740(9) 0.9239(3)
C35_2 C 0.7782(5) 0.7521(9) 0.8929(3)
H16_2 H 0.7761 0.8456 0.9173
C36_2 C 0.6643(4) 0.4088(9) 0.9535(3)
C37_2 C 0.7368(5) 0.2702(11) 0.9582(3)
H17_2 H 0.7827 0.2698 0.9398
C38_2 C 0.8397(5) 0.7685(10) 0.8619(3)
H18_2 H 0.8795 0.8709 0.8660
C39_2 C 0.5884(4) 0.7123(10) 0.9225(3)
C41_2 C 0.7254(5) 0.1443(10) 0.9938(3)
C43_2 C 0.7226(5) 0.4655(11) 0.8506(3)
H22_2 H 0.6832 0.3622 0.8466
C45_2 C 0.8426(4) 0.6325(9) 0.8244(2)
C46_2 C 0.7830(5) 0.4840(9) 0.8190(3)
H24_2 H 0.7833 0.3941 0.7935
C48_2 C 0.9127(4) 0.6388(9) 0.7916(2)
H26_2 H 0.554036 0.422754 0.9919
O13 O 0.8198(4) 0.3835(7) 0.1782(3)
C28_2 C 0.6719(4) 0.9455(8) 0.0787(2)
C30_2 C 0.6556(5) 0.7498(10) 0.0749(3)
H14_2 H 0.6073 0.7037 0.0525
C32_2 C 0.8014(5) 0.8790(9) 0.1399(3)
H15_2 H 0.8506 0.9257 0.1615
C34_2 C 0.7846(4) 0.6858(9) 0.1379(3)
H21_2 H 0.5213 0.9183 0.1195
C44_2 C 0.7116(5) 0.6209(10) 0.1046(3)
H23_2 H 0.6997 0.4892 0.1021
C47_2 C 0.8425(5) 0.5514(9) 0.1733(3)
loop_
_geom_bond_atom_site_label_1
_geom_bond_atom_site_label_2
_geom_bond_site_symmetry_1
_geom_bond_site_symmetry_2
O6 Pb1 1_555 1_555
O14 Pb1 1_555 1_555
O3 Pb4 1_555 1_555
O2 C23 1_555 1_555
N1 C9 1_555 1_555
N2 C5 1_555 1_555
C4 C6 1_555 1_555
C5 C7 1_555 1_555
C6 H2 1_555 1_555
C7 C4 1_555 1_555
C8 H3 1_555 1_555
C9 C7 1_555 1_555
C10 C8 1_555 1_555
C12 N2 1_555 1_555
C13 C12 1_555 1_555
H5 C13 1_555 1_555
C16 C4 1_555 1_555
H7 C16 1_555 1_555
C17 C5 1_555 1_555
H8 C17 1_555 1_555
C18 C9 1_555 1_555
H9 C18 1_555 1_555
H10 C19 1_555 1_555
C20 C6 1_555 1_555
C22 C19 1_555 1_555
H12 C22 1_555 1_555
C23 C10 1_555 1_555
O5 C48 1_555 1_555
C25 C18 1_555 1_555
H13 C25 1_555 1_555
C26 C27 1_555 1_555
C35 C26 1_555 1_555
H16 C35 1_555 1_555
C38 C35 1_555 1_555
H18 C38 1_555 1_555
C39 N1 1_555 1_555
C45 C38 1_555 1_555
C48 C45 1_555 1_555
C8 C16 1_555 1_555
C10 C20 1_555 1_555
C13 C17 1_555 1_555
Pb5 O12 1_555 1_555
Pb5 O16 1_555 1_555
C25 C39 1_555 1_555
C27 C39 1_555 1_555
O16 C48 1_555 1_555
N2 H25 1_555 1_555
O1 C24 1_555 1_555
C1 H1 1_555 1_555
C2 C3 1_555 1_555
C11 C2 1_555 1_555
H4 C11 1_555 1_555
C14 C11 1_555 1_555
H6 C14 1_555 1_555
C15 C1 1_555 1_555
C21 C14 1_555 1_555
C24 C21 1_555 1_555
Pb3 O4 1_555 1_555
O9 C47 1_555 1_555
N3 C15 1_555 1_555
N4 C29 1_555 1_555
C28 C30 1_555 1_555
C29 C31 1_555 1_555
C30 H14 1_555 1_555
C31 C28 1_555 1_555
C32 H15 1_555 1_555
C33 N3 1_555 1_555
C34 C32 1_555 1_555
C36 N4 1_555 1_555
C37 C36 1_555 1_555
H17 C37 1_555 1_555
C40 C28 1_555 1_555
H19 C40 1_555 1_555
C41 C29 1_555 1_555
H20 C41 1_555 1_555
C42 C1 1_555 1_555
H21 C42 1_555 1_555
H22 C43 1_555 1_555
C44 C30 1_555 1_555
C46 C43 1_555 1_555
H24 C46 1_555 1_555
C3 C15 1_555 1_555
O4 C24 1_555 1_555
Pb3 O10 1_555 1_555
C31 C33 1_555 1_555
C32 C40 1_555 1_555
C33 C42 1_555 1_555
C34 C44 1_555 1_555
C34 C47 1_555 1_555
C37 C41 1_555 1_555
N4 H26 1_555 1_555
O7 Pb4 1_555 1_555
O15 Pb5 1_555 1_555
O12 C23_2 1_555 1_555
O15 C23_2 1_555 1_555
C4_2 C6_2 1_555 1_555
C6_2 H2_2 1_555 1_555
C8_2 H3_2 1_555 1_555
C10_2 C8_2 1_555 1_555
C20_2 C6_2 1_555 1_555
H11_2 C20_2 1_555 1_555
C23_2 C10_2 1_555 1_555
C10_2 C20_2 1_555 1_555
O6 C24_2 1_555 1_555
C1_2 H1_2 1_555 1_555
C2_2 C3_2 1_555 1_555
C3_2 C12_2 1_555 1_555
C11_2 C2_2 1_555 1_555
H4_2 C11_2 1_555 1_555
C12_2 N2_2 1_555 1_555
C13_2 C12_2 1_555 1_555
H5_2 C13_2 1_555 1_555
C14_2 C11_2 1_555 1_555
H6_2 C14_2 1_555 1_555
C15_2 C1_2 1_555 1_555
C19_2 C2_2 1_555 1_555
H10_2 C19_2 1_555 1_555
C21_2 C14_2 1_555 1_555
C22_2 C19_2 1_555 1_555
H12_2 C22_2 1_555 1_555
C24_2 C21_2 1_555 1_555
N3_2 C15_2 1_555 1_555
C29_2 C31_2 1_555 1_555
C33_2 N3_2 1_555 1_555
H19_2 C40_2 1_555 1_555
C42_2 C1_2 1_555 1_555
C3_2 C15_2 1_555 1_555
C13_2 C17_2 1_555 1_555
C21_2 C22_2 1_555 1_555
O17 C24_2 1_555 1_555
C31_2 C33_2 1_555 1_555
C33_2 C42_2 1_555 1_555
N2_2 H25_2 1_555 1_555
N1_2 C9_2 1_555 1_555
C5_2 C7_2 1_555 1_555
C9_2 C7_2 1_555 1_555
H7_2 C16_2 1_555 1_555
C18_2 C9_2 1_555 1_555
O7 C48_2 1_555 1_555
C25_2 C18_2 1_555 1_555
H13_2 C25_2 1_555 1_555
C26_2 C27_2 1_555 1_555
C27_2 C36_2 1_555 1_555
C35_2 C26_2 1_555 1_555
H16_2 C35_2 1_555 1_555
C36_2 N4_2 1_555 1_555
C37_2 C36_2 1_555 1_555
H17_2 C37_2 1_555 1_555
C38_2 C35_2 1_555 1_555
H18_2 C38_2 1_555 1_555
C39_2 N1_2 1_555 1_555
C43_2 C26_2 1_555 1_555
H22_2 C43_2 1_555 1_555
C45_2 C38_2 1_555 1_555
C46_2 C43_2 1_555 1_555
H24_2 C46_2 1_555 1_555
C48_2 C45_2 1_555 1_555
C25_2 C39_2 1_555 1_555
C27_2 C39_2 1_555 1_555
C37_2 C41_2 1_555 1_555
C45_2 C46_2 1_555 1_555
O18 C48_2 1_555 1_555
N4_2 H26_2 1_555 1_555
O10 C47_2 1_555 1_555
O13 Pb3 1_555 1_555
C28_2 C30_2 1_555 1_555
C30_2 H14_2 1_555 1_555
C32_2 H15_2 1_555 1_555
C34_2 C32_2 1_555 1_555
C44_2 C30_2 1_555 1_555
H23_2 C44_2 1_555 1_555
C47_2 O13 1_555 1_555
C34_2 C44_2 1_555 1_555
C34_2 C47_2 1_555 1_555

#END
