
###############################################################################
#
# This file contains modified crystal structure data generated from the
# MOF subset of the Cambridge Structural Database (CSD) v543 
# hosted by the Cambridge Crystallographic Data Centre (CCDC).
#
# This work is licensed under the Creative Commons
# Attribution-NonCommercial-ShareAlike 4.0 International License.
# To view a copy of this license, visit
# http://creativecommons.org/licenses/by-nc-sa/4.0/
# or send a letter to
# Creative Commons, PO Box 1866, Mountain View, CA 94042, USA.
#
# CIF created using the CSD Python API on 29 September 2022
# The structure has been converted into the P1 space group
# The structure has a 3D framework
# The original CSD entry GAYXUC is in the triclinic crystal system
# The framework has been calculated to contain at least 10.0% void space
# The void calculation uses a probe of radius 1.32A, grid spacing 0.4
#
###############################################################################

data_GAYXUC
_chemical_formula_moiety         '(C42 H33 N2 O16 Yb4)n'
_symmetry_cell_setting           triclinic
_symmetry_space_group_name_H-M   'P 1'
_symmetry_Int_Tables_number      1
_space_group_name_Hall           'P 1'
loop_
_symmetry_equiv_pos_site_id
_symmetry_equiv_pos_as_xyz
1 x,y,z
_cell_length_a                   7.0840(5)
_cell_length_b                   15.1664(12)
_cell_length_c                   15.7250(12)
_cell_angle_alpha                64.6530(10)
_cell_angle_beta                 79.3110(10)
_cell_angle_gamma                81.2860(10)
_cell_volume                     1495.39
loop_
_atom_site_label
_atom_site_type_symbol
_atom_site_fract_x
_atom_site_fract_y
_atom_site_fract_z
Yb2 Yb 0.34679(3) 0.418253(14) 0.115217(13)
O1 O 0.2105(5) 0.3275(3) 0.0601(2)
O5 O 0.0402(4) 0.4903(2) 0.0828(2)
O10 O 0.5026(6) 0.3877(3) 0.2550(3)
H10 H 0.5590 0.4458 0.2447
H11 H 0.6014 0.3350 0.2636
O11 O 0.5902(5) 0.2927(2) 0.1325(2)
O12 O 0.6397(5) 0.4869(2) 0.0504(2)
O15 O 0.1648(5) 0.3267(3) 0.2535(2)
O17 O 0.3018(6) 0.5473(3) 0.1608(3)
H1 H 0.2696 0.3389 0.9959
Yb5 Yb 0.10045(3) 0.625759(13) 0.938050(13)
O13 O 0.3603(5) 0.5131(2) 0.9496(2)
Yb1 Yb 0.89955(3) 0.374241(13) 0.061950(13)
H2 H 0.6581 0.5284 0.0814
O4 O 0.8588(5) 0.1983(3) 0.1314(3)
C1 C 0.6801(7) 0.2071(3) 0.1519(3)
H3 H 0.9672 0.5084 0.1332
C2 C 0.5653(7) 0.1210(3) 0.1956(3)
C4 C 0.3914(9) 0.1215(4) 0.2501(4)
H5 H 0.3434 0.1779 0.2591
C9 C 0.2830(9) 0.0400(4) 0.2930(4)
H8 H 0.1661 0.0415 0.3310
C17 C 0.6359(9) 0.0355(4) 0.1819(4)
H14 H 0.7535 0.0338 0.1446
O16 O 0.8747(5) 0.3170(3) 0.2254(2)
Yb9 Yb 0.65321(3) 0.581747(14) 0.884783(13)
O14 O 0.9598(4) 0.5097(2) 0.9172(2)
O18 O 0.8399(7) 0.3274(3) 0.9497(3)
O7 O 0.1253(5) 0.6830(3) 0.7746(2)
C3 C 0.2558(8) 0.6544(4) 0.2725(4)
H4 H 0.2719 0.5866 0.3044
C5 C 0.1801(8) 0.8379(4) 0.4204(3)
O9 O 0.1601(7) 0.6726(3) 0.0503(3)
C7 C 0.0007(7) 0.6994(4) 0.7196(3)
C8 C 0.2366(9) 0.7937(4) 0.5791(4)
H7 H 0.3166 0.7919 0.6205
N1 N 0.2435(8) 0.8738(3) 0.3212(3)
C10 C 0.2055(9) 0.7964(4) 0.1334(4)
H9 H 0.1857 0.8249 0.0700
C11 C 0.0596(8) 0.7543(4) 0.6156(3)
C12 C 0.2309(8) 0.6954(4) 0.1784(4)
C13 C 0.3535(8) 0.9573(4) 0.2778(3)
C14 C 0.2959(8) 0.8349(4) 0.4839(4)
H12 H 0.4148 0.8612 0.4612
C15 C 0.5324(10) 0.9546(4) 0.2232(4)
H13 H 0.5812 0.8979 0.2150
C16 C 0.2328(8) 0.6334(4) 0.1251(4)
C18 C 0.2404(8) 0.8133(4) 0.2740(3)
C20 C 0.2575(9) 0.7121(4) 0.3207(4)
H16 H 0.2703 0.6827 0.3850
C21 C 0.2081(10) 0.8554(4) 0.1779(4)
H17 H 0.1888 0.9230 0.1455
O6 O 0.8352(5) 0.6733(3) 0.7465(2)
C6 C 0.9384(8) 0.7602(4) 0.5522(4)
H6 H 0.8182 0.7351 0.5747
C19 C 0.9992(9) 0.8036(4) 0.4555(4)
H15 H 0.9167 0.8098 0.4132
C6_2 C 0.0616(8) 0.2398(4) 0.4478(4)
H6_2 H 0.1818 0.2649 0.4253
C19_2 C 0.0008(9) 0.1964(4) 0.5445(4)
H15_2 H 0.0833 0.1902 0.5868
O8 O 0.6982(6) 0.4527(3) 0.8392(3)
C3_2 C 0.7442(8) 0.3456(4) 0.7275(4)
H4_2 H 0.7281 0.4134 0.6956
C5_2 C 0.8199(8) 0.1621(4) 0.5796(3)
C7_2 C 0.9993(7) 0.3006(4) 0.2804(3)
C8_2 C 0.7634(9) 0.2063(4) 0.4209(4)
H7_2 H 0.6834 0.2081 0.3795
N1_2 N 0.7565(8) 0.1262(3) 0.6788(3)
C10_2 C 0.7945(9) 0.2036(4) 0.8666(4)
H9_2 H 0.8143 0.1751 0.9300
C11_2 C 0.9404(8) 0.2457(4) 0.3844(3)
C12_2 C 0.7691(8) 0.3046(4) 0.8216(4)
C13_2 C 0.6465(8) 0.0427(4) 0.7222(3)
C14_2 C 0.7041(8) 0.1651(4) 0.5161(4)
H12_2 H 0.5852 0.1388 0.5388
C15_2 C 0.4676(10) 0.0454(4) 0.7768(4)
H13_2 H 0.4188 0.1021 0.7850
C16_2 C 0.7672(8) 0.3666(4) 0.8749(4)
C18_2 C 0.7596(8) 0.1867(4) 0.7260(3)
C20_2 C 0.7425(9) 0.2879(4) 0.6793(4)
H16_2 H 0.7297 0.3173 0.6150
C21_2 C 0.7919(10) 0.1446(4) 0.8221(4)
H17_2 H 0.8112 0.0770 0.8545
O2 O 0.4098(5) 0.7073(2) 0.8675(2)
H2_2 H 0.3419 0.4716 0.9186
O4_2 O 0.1412(5) 0.8017(3) 0.8686(3)
C1_2 C 0.3199(7) 0.7929(3) 0.8481(3)
H3_2 H 0.0328 0.4916 0.8668
C2_2 C 0.4347(7) 0.8790(3) 0.8044(3)
C4_2 C 0.6086(9) 0.8785(4) 0.7499(4)
H5_2 H 0.6566 0.8221 0.7409
C9_2 C 0.7170(9) 0.9600(4) 0.7070(4)
H8_2 H 0.8339 0.9585 0.6690
C17_2 C 0.3641(9) 0.9645(4) 0.8181(4)
H14_2 H 0.2465 0.9662 0.8554
H1_2 H 0.7304 0.6611 0.0041
O1_2 O 0.7895(5) 0.6725(3) 0.9399(2)
O10_2 O 0.4974(6) 0.6123(3) 0.7450(3)
H10_2 H 0.4410 0.5542 0.7553
H11_2 H 0.3986 0.6650 0.7364
loop_
_geom_bond_atom_site_label_1
_geom_bond_atom_site_label_2
_geom_bond_site_symmetry_1
_geom_bond_site_symmetry_2
Yb2 O1 1_555 1_555
O10 Yb2 1_555 1_555
H10 O10 1_555 1_555
H11 O10 1_555 1_555
O11 Yb2 1_555 1_555
O12 Yb2 1_555 1_555
O15 Yb2 1_555 1_555
O17 Yb2 1_555 1_555
Yb2 O5 1_555 1_555
Yb5 O13 1_555 1_555
O11 Yb1 1_555 1_555
O12 Yb1 1_555 1_555
H2 O12 1_555 1_555
O4 Yb1 1_555 1_555
C1 O11 1_555 1_555
C2 C1 1_555 1_555
C4 C2 1_555 1_555
H5 C4 1_555 1_555
C9 C4 1_555 1_555
H8 C9 1_555 1_555
C17 C2 1_555 1_555
H14 C17 1_555 1_555
O16 Yb1 1_555 1_555
O4 C1 1_555 1_555
Yb9 O14 1_555 1_555
O7 C7 1_555 1_555
O17 C16 1_555 1_555
C3 H4 1_555 1_555
C5 N1 1_555 1_555
O9 C16 1_555 1_555
C7 C11 1_555 1_555
C8 H7 1_555 1_555
N1 C13 1_555 1_555
C10 H9 1_555 1_555
C12 C3 1_555 1_555
C14 C5 1_555 1_555
H12 C14 1_555 1_555
C15 C13 1_555 1_555
H13 C15 1_555 1_555
C16 C12 1_555 1_555
C18 N1 1_555 1_555
C20 C3 1_555 1_555
H16 C20 1_555 1_555
C21 C10 1_555 1_555
H17 C21 1_555 1_555
Yb5 O7 1_555 1_555
C8 C11 1_555 1_555
C8 C14 1_555 1_555
C10 C12 1_555 1_555
C18 C20 1_555 1_555
C18 C21 1_555 1_555
C6 H6 1_555 1_555
H15 C19 1_555 1_555
Yb9 O6 1_555 1_555
C6 C19 1_555 1_555
C6_2 H6_2 1_555 1_555
H15_2 C19_2 1_555 1_555
C6_2 C19_2 1_555 1_555
O16 C7_2 1_555 1_555
O8 C16_2 1_555 1_555
C3_2 H4_2 1_555 1_555
C5_2 N1_2 1_555 1_555
O18 C16_2 1_555 1_555
C7_2 C11_2 1_555 1_555
C8_2 H7_2 1_555 1_555
N1_2 C13_2 1_555 1_555
C10_2 H9_2 1_555 1_555
C12_2 C3_2 1_555 1_555
C14_2 C5_2 1_555 1_555
H12_2 C14_2 1_555 1_555
C15_2 C13_2 1_555 1_555
H13_2 C15_2 1_555 1_555
C16_2 C12_2 1_555 1_555
C18_2 N1_2 1_555 1_555
C20_2 C3_2 1_555 1_555
H16_2 C20_2 1_555 1_555
C21_2 C10_2 1_555 1_555
H17_2 C21_2 1_555 1_555
Yb9 O8 1_555 1_555
C8_2 C11_2 1_555 1_555
C8_2 C14_2 1_555 1_555
C10_2 C12_2 1_555 1_555
C18_2 C20_2 1_555 1_555
C18_2 C21_2 1_555 1_555
O2 Yb5 1_555 1_555
H2_2 O13 1_555 1_555
O4_2 Yb5 1_555 1_555
C1_2 O2 1_555 1_555
C2_2 C1_2 1_555 1_555
C4_2 C2_2 1_555 1_555
H5_2 C4_2 1_555 1_555
C9_2 C4_2 1_555 1_555
H8_2 C9_2 1_555 1_555
C17_2 C2_2 1_555 1_555
H14_2 C17_2 1_555 1_555
Yb9 O2 1_555 1_555
O13 Yb9 1_555 1_555
O4_2 C1_2 1_555 1_555
Yb9 O1_2 1_555 1_555
O10_2 Yb9 1_555 1_555
H10_2 O10_2 1_555 1_555
H11_2 O10_2 1_555 1_555

#END
