
###############################################################################
#
# This file contains modified crystal structure data generated from the
# MOF subset of the Cambridge Structural Database (CSD) v543 
# hosted by the Cambridge Crystallographic Data Centre (CCDC).
#
# This work is licensed under the Creative Commons
# Attribution-NonCommercial-ShareAlike 4.0 International License.
# To view a copy of this license, visit
# http://creativecommons.org/licenses/by-nc-sa/4.0/
# or send a letter to
# Creative Commons, PO Box 1866, Mountain View, CA 94042, USA.
#
# CIF created using the CSD Python API on 29 September 2022
# The structure has been converted into the P1 space group
# The structure has a 3D framework
# The original CSD entry GAZDAP is in the triclinic crystal system
# The framework has been calculated to contain at least 10.0% void space
# The void calculation uses a probe of radius 1.32A, grid spacing 0.4
#
###############################################################################

data_GAZDAP
_chemical_formula_moiety         '(C84 H44 N4 O28 Zr4)n'
_symmetry_cell_setting           triclinic
_symmetry_space_group_name_H-M   'P 1'
_symmetry_Int_Tables_number      1
_space_group_name_Hall           'P 1'
loop_
_symmetry_equiv_pos_site_id
_symmetry_equiv_pos_as_xyz
1 x,y,z
_cell_length_a                   10.630(2)
_cell_length_b                   14.490(3)
_cell_length_c                   18.010(4)
_cell_angle_alpha                111.74(3)
_cell_angle_beta                 105.82(3)
_cell_angle_gamma                92.75(3)
_cell_volume                     2444.47
loop_
_atom_site_label
_atom_site_type_symbol
_atom_site_fract_x
_atom_site_fract_y
_atom_site_fract_z
Zr2 Zr 0.18871(16) 0.06640(10) 0.13336(5)
O19 O 0.2054(11) 0.0979(7) 0.0231(4)
O23 O 0.2625(12) 0.2378(7) 0.1898(5)
O24 O 0.4004(12) 0.0869(9) 0.1787(5)
O26 O 0.1524(13) 0.1300(8) 0.2576(5)
O27 O 0.0173(11) 0.1268(7) 0.0947(4)
N1 N 0.341(2) 0.6979(10) 0.4213(6)
O1 O 0.0168(12) 0.9641(8) 0.0962(5)
O2 O 0.2008(12) 0.9297(7) 0.0260(4)
O9 O 0.1406(12) 0.8017(8) 0.1033(5)
O10 O 0.2438(13) 0.9558(8) 0.1964(5)
O11 O 0.1525(12) 0.2999(7) 0.0985(4)
O13 O 0.5996(12) 0.9131(9) 0.8213(5)
O14 O 0.4360(15) 0.8031(10) 0.8106(6)
O15 O 0.0649(12) 0.8945(8) 0.7702(5)
C1 C 0.2038(18) 0.8656(10) 0.1765(6)
C2 C 0.2294(14) 0.8259(7) 0.2467(4)
C3 C 0.2210(14) 0.7227(6) 0.2251(3)
H3 H 0.1911 0.6783 0.1687
C4 C 0.2571(14) 0.6858(5) 0.2876(4)
C5 C 0.3017(15) 0.7521(6) 0.3718(4)
C6 C 0.3102(15) 0.8553(6) 0.3934(3)
H4 H 0.3400 0.8997 0.4498
C7 C 0.2740(15) 0.8922(5) 0.3309(4)
H5 H 0.2796 0.9612 0.3454
C8 C 0.2611(15) 0.5869(6) 0.2858(5)
C9 C 0.3206(16) 0.5990(5) 0.3685(4)
C10 C 0.3525(15) 0.5160(7) 0.3863(3)
H6 H 0.3923 0.5241 0.4417
C11 C 0.3248(14) 0.4208(6) 0.3215(5)
H7 H 0.3461 0.3653 0.3334
C12 C 0.2652(14) 0.4087(5) 0.2388(4)
C13 C 0.2334(13) 0.4918(7) 0.2209(3)
H8 H 0.1935 0.4837 0.1656
C14 C 0.2204(16) 0.3059(9) 0.1695(6)
C15 C 0.3855(13) 0.7344(8) 0.5106(3)
C16 C 0.4837(12) 0.8185(8) 0.5595(5)
H9 H 0.5229 0.8514 0.5338
C17 C 0.5231(11) 0.8536(7) 0.6467(4)
H10 H 0.5887 0.9099 0.6794
C18 C 0.4644(12) 0.8045(8) 0.6851(3)
C19 C 0.3663(12) 0.7203(8) 0.6363(5)
H11 H 0.3270 0.6874 0.6620
C20 C 0.3269(12) 0.6852(7) 0.5491(5)
H12 H 0.2612 0.6289 0.5164
C21 C 0.5031(16) 0.8418(13) 0.7798(7)
C36 C 0.0261(11) 0.7735(9) 0.5134(5)
H19 H 0.0954 0.7829 0.4933
C37 C 0.0409(10) 0.8220(9) 0.5986(5)
H20 H 0.1201 0.8638 0.6355
Zr8 Zr 0.81129(16) 0.93360(10) 0.86664(5)
Zr11 Zr 0.14598(16) 0.96016(10) 0.90868(6)
Zr4 Zr 0.00222(16) 0.17398(10) 0.99881(5)
O20 O 0.1206(13) 0.7252(9) 0.9371(5)
Zr3 Zr 0.85402(16) 0.03984(10) 0.09132(6)
O4 O 0.6404(13) 0.0351(8) 0.0829(6)
H2 H 0.6315 0.0885 0.1251
O21 O 0.8110(13) 0.2001(6) 0.1372(5)
O25 O 0.9351(12) 0.1055(8) 0.2298(5)
O18 O 0.7992(12) 0.0703(7) 0.9740(4)
Zr1 Zr 0.99778(16) 0.82602(10) 0.00119(5)
N2 N 0.8926(18) 0.6701(10) 0.3705(6)
H1 H 0.5837 0.9834 0.0767
O5 O 0.8794(13) 0.2748(9) 0.0629(5)
O7 O 0.8727(13) 0.7816(8) 0.0649(5)
O8 O 0.8014(12) 0.9188(8) 0.1389(5)
O16 O 0.8476(13) 0.8700(8) 0.7424(5)
C22 C 0.8398(17) 0.8355(9) 0.1280(6)
C23 C 0.8534(15) 0.7980(6) 0.1972(4)
C24 C 0.8669(16) 0.8626(5) 0.2794(5)
H13 H 0.8650 0.9308 0.2927
C25 C 0.8834(17) 0.8252(6) 0.3416(4)
H14 H 0.8925 0.8684 0.3965
C26 C 0.8863(16) 0.7231(6) 0.3216(4)
C27 C 0.8727(14) 0.6585(5) 0.2394(5)
C28 C 0.8562(14) 0.6960(6) 0.1772(3)
H15 H 0.8471 0.6527 0.1222
C29 C 0.8695(15) 0.5583(5) 0.2389(5)
C30 C 0.8813(15) 0.5679(5) 0.3203(4)
C31 C 0.8825(15) 0.4830(6) 0.3390(4)
H16 H 0.8904 0.4894 0.3935
C32 C 0.8719(15) 0.3886(5) 0.2763(5)
H17 H 0.8727 0.3318 0.2888
C33 C 0.8601(14) 0.3790(5) 0.1949(4)
C34 C 0.8589(14) 0.4639(6) 0.1762(4)
H18 H 0.8511 0.4575 0.1217
C35 C 0.9077(13) 0.7110(8) 0.4583(4)
C38 C 0.9374(11) 0.8079(8) 0.6287(3)
C39 C 0.8190(11) 0.7455(10) 0.5736(5)
H21 H 0.7497 0.7361 0.5938
C40 C 0.8042(11) 0.6970(9) 0.4884(5)
H22 H 0.7250 0.6552 0.4516
C41 C 0.952(2) 0.8631(11) 0.7215(7)
C42 C 0.8454(18) 0.2758(9) 0.1255(7)
O3 O 0.7946(11) 0.9021(7) 0.9769(4)
O17 O 0.9827(11) 0.8732(7) 0.9053(4)
O22 O 0.8475(12) 0.7001(7) 0.9015(4)
N2_2 N 0.1074(18) 0.3299(10) 0.6295(6)
H1_2 H 0.4163 0.0166 0.9233
O6 O 0.1890(13) 0.7999(6) 0.8628(5)
O7_2 O 0.1273(13) 0.2184(8) 0.9351(5)
O8_2 O 0.1986(12) 0.0812(8) 0.8611(5)
C22_2 C 0.1602(17) 0.1645(9) 0.8720(6)
C23_2 C 0.1466(15) 0.2020(6) 0.8028(4)
C24_2 C 0.1331(16) 0.1374(5) 0.7206(5)
H13_2 H 0.1350 0.0692 0.7073
C25_2 C 0.1166(17) 0.1748(6) 0.6584(4)
H14_2 H 0.1075 0.1316 0.6035
C26_2 C 0.1137(16) 0.2769(6) 0.6784(4)
C27_2 C 0.1273(14) 0.3415(5) 0.7606(5)
C28_2 C 0.1438(14) 0.3040(6) 0.8228(3)
H15_2 H 0.1529 0.3473 0.8778
C29_2 C 0.1305(15) 0.4417(5) 0.7611(5)
C30_2 C 0.1187(15) 0.4321(5) 0.6797(4)
C31_2 C 0.1175(15) 0.5170(6) 0.6610(4)
H16_2 H 0.1096 0.5106 0.6065
C32_2 C 0.1281(15) 0.6114(5) 0.7237(5)
H17_2 H 0.1273 0.6682 0.7112
C33_2 C 0.1399(14) 0.6210(5) 0.8051(4)
C34_2 C 0.1411(14) 0.5361(6) 0.8238(4)
H18_2 H 0.1489 0.5425 0.8783
C35_2 C 0.0923(13) 0.2890(8) 0.5417(4)
C38_2 C 0.0626(11) 0.1921(8) 0.3713(3)
C39_2 C 0.1810(11) 0.2545(10) 0.4264(5)
H21_2 H 0.2503 0.2639 0.4062
C40_2 C 0.1958(11) 0.3030(9) 0.5116(5)
H22_2 H 0.2750 0.3448 0.5484
C41_2 C 0.048(2) 0.1369(11) 0.2785(7)
C42_2 C 0.1546(18) 0.7242(9) 0.8745(7)
O4_2 O 0.3596(13) 0.9649(8) 0.9171(6)
H2_2 H 0.3685 0.9115 0.8749
N1_2 N 0.659(2) 0.3021(10) 0.5787(6)
O1_2 O 0.9832(12) 0.0359(8) 0.9038(5)
O9_2 O 0.8594(12) 0.1983(8) 0.8967(5)
O10_2 O 0.7562(13) 0.0442(8) 0.8036(5)
O12 O 0.7375(12) 0.7622(7) 0.8102(5)
O14_2 O 0.5640(15) 0.1969(10) 0.1894(6)
C1_2 C 0.7962(18) 0.1344(10) 0.8235(6)
C2_2 C 0.7706(14) 0.1741(7) 0.7533(4)
C3_2 C 0.7790(14) 0.2773(6) 0.7749(3)
H3_2 H 0.8089 0.3217 0.8313
C4_2 C 0.7429(14) 0.3142(5) 0.7124(4)
C5_2 C 0.6983(15) 0.2479(6) 0.6282(4)
C6_2 C 0.6898(15) 0.1447(6) 0.6066(3)
H4_2 H 0.6600 0.1003 0.5502
C7_2 C 0.7260(15) 0.1078(5) 0.6691(4)
H5_2 H 0.7204 0.0388 0.6546
C8_2 C 0.7389(15) 0.4131(6) 0.7142(5)
C9_2 C 0.6794(16) 0.4010(5) 0.6315(4)
C10_2 C 0.6475(15) 0.4840(7) 0.6137(3)
H6_2 H 0.6077 0.4759 0.5583
C11_2 C 0.6752(14) 0.5792(6) 0.6785(5)
H7_2 H 0.6539 0.6347 0.6666
C12_2 C 0.7348(14) 0.5913(5) 0.7612(4)
C13_2 C 0.7666(13) 0.5082(7) 0.7791(3)
H8_2 H 0.8065 0.5163 0.8344
C14_2 C 0.7796(16) 0.6941(9) 0.8305(6)
C15_2 C 0.6145(13) 0.2656(8) 0.4894(3)
C16_2 C 0.5163(12) 0.1815(8) 0.4405(5)
H9_2 H 0.4771 0.1486 0.4662
C17_2 C 0.4769(11) 0.1464(7) 0.3533(4)
H10_2 H 0.4113 0.0901 0.3206
C18_2 C 0.5356(12) 0.1955(8) 0.3149(3)
C19_2 C 0.6337(12) 0.2797(8) 0.3637(5)
H11_2 H 0.6730 0.3126 0.3380
C20_2 C 0.6731(12) 0.3148(7) 0.4509(5)
H12_2 H 0.7388 0.3711 0.4836
C21_2 C 0.4969(16) 0.1582(13) 0.2202(7)
C36_2 C 0.9739(11) 0.2265(9) 0.4866(5)
H19_2 H 0.9046 0.2171 0.5067
C37_2 C 0.9591(10) 0.1780(9) 0.4014(5)
H20_2 H 0.8799 0.1362 0.3645
loop_
_geom_bond_atom_site_label_1
_geom_bond_atom_site_label_2
_geom_bond_site_symmetry_1
_geom_bond_site_symmetry_2
O19 Zr2 1_555 1_555
O23 Zr2 1_555 1_555
O24 Zr2 1_555 1_555
O26 Zr2 1_555 1_555
O27 Zr2 1_555 1_555
N1 C5 1_555 1_555
O11 C14 1_555 1_555
O23 C14 1_555 1_555
O13 C21 1_555 1_555
O14 C21 1_555 1_555
C1 O9 1_555 1_555
C2 C1 1_555 1_555
C3 C2 1_555 1_555
H3 C3 1_555 1_555
C4 C3 1_555 1_555
C5 C4 1_555 1_555
C6 C5 1_555 1_555
H4 C6 1_555 1_555
C7 C2 1_555 1_555
H5 C7 1_555 1_555
C8 C4 1_555 1_555
C9 N1 1_555 1_555
C10 C9 1_555 1_555
H6 C10 1_555 1_555
C11 C10 1_555 1_555
H7 C11 1_555 1_555
C12 C11 1_555 1_555
C13 C8 1_555 1_555
H8 C13 1_555 1_555
C14 C12 1_555 1_555
C15 N1 1_555 1_555
C16 C15 1_555 1_555
H9 C16 1_555 1_555
C17 C16 1_555 1_555
H10 C17 1_555 1_555
C18 C17 1_555 1_555
C19 C18 1_555 1_555
H11 C19 1_555 1_555
C20 C15 1_555 1_555
H12 C20 1_555 1_555
C21 C18 1_555 1_555
H19 C36 1_555 1_555
C37 C36 1_555 1_555
H20 C37 1_555 1_555
Zr8 O13 1_555 1_555
Zr11 O15 1_555 1_555
O10 C1 1_555 1_555
C6 C7 1_555 1_555
C8 C9 1_555 1_555
C12 C13 1_555 1_555
C19 C20 1_555 1_555
O4 Zr3 1_555 1_555
H2 O4 1_555 1_555
O21 Zr3 1_555 1_555
O25 Zr3 1_555 1_555
N2 C26 1_555 1_555
O5 C42 1_555 1_555
O21 C42 1_555 1_555
O7 Zr1 1_555 1_555
O16 C41 1_555 1_555
C22 O7 1_555 1_555
C23 C22 1_555 1_555
C24 C23 1_555 1_555
H13 C24 1_555 1_555
C25 C24 1_555 1_555
H14 C25 1_555 1_555
C26 C25 1_555 1_555
C27 C26 1_555 1_555
C28 C23 1_555 1_555
H15 C28 1_555 1_555
C29 C27 1_555 1_555
C30 N2 1_555 1_555
C31 C30 1_555 1_555
H16 C31 1_555 1_555
C32 C31 1_555 1_555
H17 C32 1_555 1_555
C33 C32 1_555 1_555
C34 C29 1_555 1_555
H18 C34 1_555 1_555
C35 N2 1_555 1_555
C39 C38 1_555 1_555
H21 C39 1_555 1_555
C40 C35 1_555 1_555
H22 C40 1_555 1_555
C41 C38 1_555 1_555
C42 C33 1_555 1_555
Zr8 O16 1_555 1_555
O8 C22 1_555 1_555
C27 C28 1_555 1_555
C29 C30 1_555 1_555
C33 C34 1_555 1_555
C39 C40 1_555 1_555
Zr8 O3 1_555 1_555
O17 Zr8 1_555 1_555
N2_2 C26_2 1_555 1_555
O20 C42_2 1_555 1_555
O6 C42_2 1_555 1_555
O7_2 Zr4 1_555 1_555
O26 C41_2 1_555 1_555
C22_2 O7_2 1_555 1_555
C23_2 C22_2 1_555 1_555
C24_2 C23_2 1_555 1_555
H13_2 C24_2 1_555 1_555
C25_2 C24_2 1_555 1_555
H14_2 C25_2 1_555 1_555
C26_2 C25_2 1_555 1_555
C27_2 C26_2 1_555 1_555
C28_2 C23_2 1_555 1_555
H15_2 C28_2 1_555 1_555
C29_2 C27_2 1_555 1_555
C30_2 N2_2 1_555 1_555
C31_2 C30_2 1_555 1_555
H16_2 C31_2 1_555 1_555
C32_2 C31_2 1_555 1_555
H17_2 C32_2 1_555 1_555
C33_2 C32_2 1_555 1_555
C34_2 C29_2 1_555 1_555
H18_2 C34_2 1_555 1_555
C35_2 N2_2 1_555 1_555
C39_2 C38_2 1_555 1_555
H21_2 C39_2 1_555 1_555
C40_2 C35_2 1_555 1_555
H22_2 C40_2 1_555 1_555
C41_2 C38_2 1_555 1_555
C42_2 C33_2 1_555 1_555
Zr11 O6 1_555 1_555
O8_2 C22_2 1_555 1_555
C27_2 C28_2 1_555 1_555
C29_2 C30_2 1_555 1_555
C33_2 C34_2 1_555 1_555
C39_2 C40_2 1_555 1_555
O4_2 Zr11 1_555 1_555
H2_2 O4_2 1_555 1_555
N1_2 C5_2 1_555 1_555
O22 C14_2 1_555 1_555
O12 C14_2 1_555 1_555
O24 C21_2 1_555 1_555
O14_2 C21_2 1_555 1_555
C1_2 O9_2 1_555 1_555
C2_2 C1_2 1_555 1_555
C3_2 C2_2 1_555 1_555
H3_2 C3_2 1_555 1_555
C4_2 C3_2 1_555 1_555
C5_2 C4_2 1_555 1_555
C6_2 C5_2 1_555 1_555
H4_2 C6_2 1_555 1_555
C7_2 C2_2 1_555 1_555
H5_2 C7_2 1_555 1_555
C8_2 C4_2 1_555 1_555
C9_2 N1_2 1_555 1_555
C10_2 C9_2 1_555 1_555
H6_2 C10_2 1_555 1_555
C11_2 C10_2 1_555 1_555
H7_2 C11_2 1_555 1_555
C12_2 C11_2 1_555 1_555
C13_2 C8_2 1_555 1_555
H8_2 C13_2 1_555 1_555
C14_2 C12_2 1_555 1_555
C15_2 N1_2 1_555 1_555
C16_2 C15_2 1_555 1_555
H9_2 C16_2 1_555 1_555
C17_2 C16_2 1_555 1_555
H10_2 C17_2 1_555 1_555
C18_2 C17_2 1_555 1_555
C19_2 C18_2 1_555 1_555
H11_2 C19_2 1_555 1_555
C20_2 C15_2 1_555 1_555
H12_2 C20_2 1_555 1_555
C21_2 C18_2 1_555 1_555
H19_2 C36_2 1_555 1_555
C37_2 C36_2 1_555 1_555
H20_2 C37_2 1_555 1_555
Zr8 O12 1_555 1_555
O10_2 C1_2 1_555 1_555
C6_2 C7_2 1_555 1_555
C8_2 C9_2 1_555 1_555
C12_2 C13_2 1_555 1_555
C19_2 C20_2 1_555 1_555

#END
