
###############################################################################
#
# This file contains modified crystal structure data generated from the
# MOF subset of the Cambridge Structural Database (CSD) v543 
# hosted by the Cambridge Crystallographic Data Centre (CCDC).
#
# This work is licensed under the Creative Commons
# Attribution-NonCommercial-ShareAlike 4.0 International License.
# To view a copy of this license, visit
# http://creativecommons.org/licenses/by-nc-sa/4.0/
# or send a letter to
# Creative Commons, PO Box 1866, Mountain View, CA 94042, USA.
#
# CIF created using the CSD Python API on 29 September 2022
# The structure has been converted into the P1 space group
# The structure has a 3D framework
# The original CSD entry GEBDEA is in the monoclinic crystal system
# The framework has been calculated to contain at least 10.0% void space
# The void calculation uses a probe of radius 1.32A, grid spacing 0.4
#
###############################################################################

data_GEBDEA
_chemical_formula_moiety         '(C108 H102 Ba4 O34 P12)n'
_symmetry_cell_setting           triclinic
_symmetry_space_group_name_H-M   'P 1'
_symmetry_Int_Tables_number      1
_space_group_name_Hall           'P 1'
loop_
_symmetry_equiv_pos_site_id
_symmetry_equiv_pos_as_xyz
1 x,y,z
_cell_length_a                   18.3255(10)
_cell_length_b                   5.9276(3)
_cell_length_c                   31.8721(16)
_cell_angle_alpha                90
_cell_angle_beta                 93.8320(10)
_cell_angle_gamma                90
_cell_volume                     3454.41
loop_
_atom_site_label
_atom_site_type_symbol
_atom_site_fract_x
_atom_site_fract_y
_atom_site_fract_z
O10 O 0.05044(13) 0.2025(4) 0.59463(7)
O11 O 0.07300(12) 0.9038(4) 0.54104(7)
O12 O 0.05719(11) 0.3234(4) 0.52144(7)
O17 O 0.00911(18) 0.8530(5) 0.63326(9)
P1 P 0.08689(4) 0.15075(14) 0.55223(2)
P2 P 0.84005(4) 0.12216(14) 0.55506(3)
P3 P 0.55276(6) 0.85390(16) 0.83844(3)
O4 O 0.87855(13) 0.2493(4) 0.59299(8)
O5 O 0.86514(12) 0.2642(4) 0.51809(7)
O7 O 0.60394(17) 0.6568(5) 0.85678(8)
O9 O 0.49089(18) 0.8530(5) 0.86674(9)
C1 C 0.18270(17) 0.1937(6) 0.56311(10)
C2 C 0.2155(2) 0.3889(7) 0.55108(13)
H1 H 0.188205 0.494502 0.534001
C3 C 0.2882(2) 0.4348(7) 0.56347(14)
H2 H 0.309607 0.572123 0.555026
C4 C 0.32917(17) 0.2856(6) 0.58756(10)
C5 C 0.2974(2) 0.0825(7) 0.59778(16)
C6 C 0.2250(2) 0.0368(7) 0.58589(16)
C7 C 0.74468(18) 0.1689(6) 0.55938(11)
C8 C 0.7038(2) 0.0066(6) 0.57803(14)
C9 C 0.6335(2) 0.0544(7) 0.58931(14)
C10 C 0.60346(17) 0.2642(6) 0.58237(11)
C11 C 0.6419(2) 0.4231(7) 0.56071(13)
H7 H 0.620128 0.564676 0.553617
C12 C 0.7124(2) 0.3753(6) 0.54934(12)
H8 H 0.738582 0.484956 0.534615
C13 C 0.5241(2) 0.7669(6) 0.78607(11)
C14 C 0.4929(2) 0.5562(7) 0.77990(12)
H9 H 0.482535 0.465706 0.803385
C15 C 0.4766(2) 0.4767(7) 0.73927(12)
H10 H 0.454796 0.332233 0.735202
C16 C 0.49166(19) 0.6055(6) 0.70476(11)
C17 C 0.5199(2) 0.8193(7) 0.71129(12)
H11 H 0.527835 0.912604 0.687793
C18 C 0.5370(2) 0.9001(7) 0.75153(12)
C19 C 0.40433(17) 0.3432(6) 0.60503(10)
C20 C 0.46553(18) 0.2804(6) 0.58403(10)
C21 C 0.53550(17) 0.3292(6) 0.60247(11)
C22 C 0.54405(18) 0.4391(6) 0.64172(11)
C23 C 0.48148(19) 0.5015(6) 0.66196(10)
C24 C 0.41176(18) 0.4575(6) 0.64376(10)
C25 C 0.4575(2) 0.1610(8) 0.54241(13)
H14 H 0.492748 0.222854 0.523642
H15 H 0.407770 0.182725 0.529802
C26 C 0.6196(2) 0.4748(9) 0.66261(13)
H16 H 0.654182 0.372716 0.650127
H17 H 0.618825 0.443546 0.692771
H18 H 0.634743 0.631358 0.658487
C27 C 0.3446(2) 0.5268(8) 0.66580(12)
H19 H 0.305165 0.566577 0.644800
H20 H 0.356302 0.657480 0.683842
H21 H 0.328774 0.401205 0.683014
H22 H 0.885(3) 0.183(6) 0.5000(11)
H23 H 0.880(4) 0.188(9) 0.6158(8)
H24 H 0.454(2) 0.797(16) 0.8524(16)
H25 H 0.044(3) 0.089(5) 0.6097(12)
Ba4 Ba 0.96399(2) 0.59559(3) 0.56146(2)
Ba5 Ba 0.53601(2) 0.59559(3) 0.93854(2)
Ba6 Ba 0.03601(2) 0.40441(3) 0.43854(2)
O6 O 0.85647(13) 0.8774(4) 0.55354(8)
H3 H 0.325833 0.972852 0.613231
H4 H 0.204140 0.896920 0.593378
H5 H 0.723862 0.860675 0.583213
H6 H 0.605938 0.940423 0.601984
H13 H 0.466839 0.999499 0.546618
O13 O 0.94281(11) 0.6766(4) 0.47856(7)
O16 O 0.89606(17) 0.6568(5) 0.64322(8)
Ba6_2 Ba 0.46399(2) 0.40441(3) 0.06146(2)
P1_2 P 0.41311(4) 0.15075(14) 0.94777(2)
O1 O 0.44956(13) 0.2025(4) 0.90537(7)
O3 O 0.44281(11) 0.3234(4) 0.97856(7)
C1_2 C 0.31730(17) 0.1937(6) 0.93689(10)
C2_2 C 0.2845(2) 0.3889(7) 0.94892(13)
H1_2 H 0.311795 0.494502 0.965999
C3_2 C 0.2118(2) 0.4348(7) 0.93653(14)
H2_2 H 0.190393 0.572123 0.944974
C4_2 C 0.17083(17) 0.2856(6) 0.91244(10)
C5_2 C 0.2026(2) 0.0825(7) 0.90222(16)
C6_2 C 0.2750(2) 0.0368(7) 0.91411(16)
C14_2 C 0.0071(2) 0.5562(7) 0.72010(12)
H9_2 H 0.017465 0.465706 0.696615
C15_2 C 0.0234(2) 0.4767(7) 0.76073(12)
H10_2 H 0.045204 0.332233 0.764798
C16_2 C 0.00834(19) 0.6055(6) 0.79524(11)
C19_2 C 0.09567(17) 0.3432(6) 0.89497(10)
C20_2 C 0.03447(18) 0.2804(6) 0.91597(10)
C23_2 C 0.01852(19) 0.5015(6) 0.83804(10)
C24_2 C 0.08824(18) 0.4575(6) 0.85624(10)
C25_2 C 0.0425(2) 0.1610(8) 0.95759(13)
H14_2 H 0.007252 0.222854 0.976358
H15_2 H 0.092230 0.182725 0.970198
C27_2 C 0.1554(2) 0.5268(8) 0.83420(12)
H19_2 H 0.194835 0.566577 0.855200
H20_2 H 0.143698 0.657480 0.816158
H21_2 H 0.171226 0.401205 0.816986
H24_2 H 0.046(2) 0.797(16) 0.6476(16)
H25_2 H 0.456(3) 0.089(5) 0.8903(12)
O2 O 0.42700(12) 0.9038(4) 0.95896(7)
H3_2 H 0.174167 0.972852 0.886769
H4_2 H 0.295860 0.896920 0.906622
H13_2 H 0.033161 0.999499 0.953382
P2_2 P 0.65995(4) 0.12216(14) 0.94494(3)
P3_2 P 0.94724(6) 0.85390(16) 0.66156(3)
O4_2 O 0.62145(13) 0.2493(4) 0.90701(8)
O5_2 O 0.63486(12) 0.2642(4) 0.98191(7)
C7_2 C 0.75532(18) 0.1689(6) 0.94062(11)
C8_2 C 0.7962(2) 0.0066(6) 0.92197(14)
C9_2 C 0.8665(2) 0.0544(7) 0.91069(14)
C10_2 C 0.89654(17) 0.2642(6) 0.91763(11)
C11_2 C 0.8581(2) 0.4231(7) 0.93929(13)
H7_2 H 0.879872 0.564676 0.946383
C12_2 C 0.7876(2) 0.3753(6) 0.95066(12)
H8_2 H 0.761418 0.484956 0.965385
C13_2 C 0.9759(2) 0.7669(6) 0.71393(11)
C17_2 C 0.9801(2) 0.8193(7) 0.78871(12)
H11_2 H 0.972165 0.912604 0.812207
C18_2 C 0.9630(2) 0.9001(7) 0.74847(12)
C21_2 C 0.96450(17) 0.3292(6) 0.89753(11)
C22_2 C 0.95595(18) 0.4391(6) 0.85828(11)
C26_2 C 0.8804(2) 0.4748(9) 0.83739(13)
H16_2 H 0.845818 0.372716 0.849873
H17_2 H 0.881175 0.443546 0.807229
H18_2 H 0.865257 0.631358 0.841513
H22_2 H 0.615(3) 0.183(6) 1.0000(11)
H23_2 H 0.620(4) 0.188(9) 0.8842(8)
O13_2 O 0.55719(11) 0.6766(4) 0.02144(7)
O6_2 O 0.64353(13) 0.8774(4) 0.94646(8)
H5_2 H 0.776138 0.860675 0.916787
H6_2 H 0.894062 0.940423 0.898016
O2_2 O 0.92700(12) 0.0962(4) 0.45896(7)
O6_3 O 0.14353(13) 0.1226(4) 0.44646(8)
H3_3 H 0.674167 0.027148 0.386769
H4_3 H 0.795860 0.103080 0.406622
H5_3 H 0.276138 0.139325 0.416787
H6_3 H 0.394062 0.059577 0.398016
H13_3 H 0.533161 0.000501 0.453382
O14 O 0.12145(13) 0.7507(4) 0.40701(8)
O15 O 0.13486(12) 0.7358(4) 0.48191(7)
O16_2 O 0.10394(17) 0.3432(5) 0.35678(8)
P1_3 P 0.91311(4) 0.84925(14) 0.44777(2)
P2_3 P 0.15995(4) 0.87784(14) 0.44494(3)
P3_3 P 0.44724(6) 0.14610(16) 0.16156(3)
O1_2 O 0.94956(13) 0.7975(4) 0.40537(7)
O7_2 O 0.39606(17) 0.3432(5) 0.14322(8)
O9_2 O 0.50911(18) 0.1470(5) 0.13326(9)
C1_3 C 0.81730(17) 0.8063(6) 0.43689(10)
C2_3 C 0.7845(2) 0.6111(7) 0.44892(13)
H1_3 H 0.811795 0.505498 0.465999
C3_3 C 0.7118(2) 0.5652(7) 0.43653(14)
H2_3 H 0.690393 0.427877 0.444974
C4_3 C 0.67083(17) 0.7144(6) 0.41244(10)
C5_3 C 0.7026(2) 0.9175(7) 0.40222(16)
C6_3 C 0.7750(2) 0.9632(7) 0.41411(16)
C7_3 C 0.25532(18) 0.8311(6) 0.44062(11)
C8_3 C 0.2962(2) 0.9934(6) 0.42197(14)
C9_3 C 0.3665(2) 0.9456(7) 0.41069(14)
C10_3 C 0.39654(17) 0.7358(6) 0.41763(11)
C11_3 C 0.3581(2) 0.5769(7) 0.43929(13)
H7_3 H 0.379872 0.435324 0.446383
C12_3 C 0.2876(2) 0.6247(6) 0.45066(12)
H8_3 H 0.261418 0.515044 0.465385
C13_3 C 0.4759(2) 0.2331(6) 0.21393(11)
C14_3 C 0.5071(2) 0.4438(7) 0.22010(12)
H9_3 H 0.517465 0.534294 0.196615
C15_3 C 0.5234(2) 0.5233(7) 0.26073(12)
H10_3 H 0.545204 0.667767 0.264798
C16_3 C 0.50834(19) 0.3945(6) 0.29524(11)
C17_3 C 0.4801(2) 0.1807(7) 0.28871(12)
H11_3 H 0.472165 0.087396 0.312207
C18_3 C 0.4630(2) 0.0999(7) 0.24847(12)
C19_3 C 0.59567(17) 0.6568(6) 0.39497(10)
C20_3 C 0.53447(18) 0.7196(6) 0.41597(10)
C21_3 C 0.46450(17) 0.6708(6) 0.39753(11)
C22_3 C 0.45595(18) 0.5609(6) 0.35828(11)
C23_3 C 0.51852(19) 0.4985(6) 0.33804(10)
C24_3 C 0.58824(18) 0.5425(6) 0.35624(10)
C25_3 C 0.5425(2) 0.8390(8) 0.45759(13)
H14_3 H 0.507252 0.777146 0.476358
H15_3 H 0.592230 0.817275 0.470198
C26_3 C 0.3804(2) 0.5252(9) 0.33739(13)
H16_3 H 0.345818 0.627284 0.349873
H17_3 H 0.381175 0.556454 0.307229
H18_3 H 0.365257 0.368642 0.341513
C27_3 C 0.6554(2) 0.4732(8) 0.33420(12)
H19_3 H 0.694835 0.433423 0.355200
H20_3 H 0.643698 0.342520 0.316158
H21_3 H 0.671226 0.598795 0.316986
H22_3 H 0.115(3) 0.817(6) 0.5000(11)
H23_3 H 0.120(4) 0.812(9) 0.3842(8)
H24_3 H 0.546(2) 0.203(16) 0.1476(16)
H25_3 H 0.956(3) 0.911(5) 0.3903(12)
O17_2 O 0.99089(18) 0.1470(5) 0.36674(9)
O6_4 O 0.35647(13) 0.1226(4) 0.05354(8)
H5_4 H 0.223862 0.139325 0.083213
H6_4 H 0.105938 0.059577 0.101984
O10_2 O 0.55044(13) 0.7975(4) 0.09463(7)
O11_2 O 0.57300(12) 0.0962(4) 0.04104(7)
O14_2 O 0.37855(13) 0.7507(4) 0.09299(8)
O15_2 O 0.36514(12) 0.7358(4) 0.01809(7)
P2_4 P 0.34005(4) 0.87784(14) 0.05506(3)
P3_4 P 0.05276(6) 0.14610(16) 0.33844(3)
C7_4 C 0.24468(18) 0.8311(6) 0.05938(11)
C8_4 C 0.2038(2) 0.9934(6) 0.07803(14)
C9_4 C 0.1335(2) 0.9456(7) 0.08931(14)
C10_4 C 0.10346(17) 0.7358(6) 0.08237(11)
C11_4 C 0.1419(2) 0.5769(7) 0.06071(13)
H7_4 H 0.120128 0.435324 0.053617
C12_4 C 0.2124(2) 0.6247(6) 0.04934(12)
H8_4 H 0.238582 0.515044 0.034615
C13_4 C 0.0241(2) 0.2331(6) 0.28607(11)
C17_4 C 0.0199(2) 0.1807(7) 0.21129(12)
H11_4 H 0.027835 0.087396 0.187793
C18_4 C 0.0370(2) 0.0999(7) 0.25153(12)
C21_4 C 0.03550(17) 0.6708(6) 0.10247(11)
C22_4 C 0.04405(18) 0.5609(6) 0.14172(11)
C26_4 C 0.1196(2) 0.5252(9) 0.16261(13)
H16_4 H 0.154182 0.627284 0.150127
H17_4 H 0.118825 0.556454 0.192771
H18_4 H 0.134743 0.368642 0.158487
H22_4 H 0.385(3) 0.817(6) 0.0000(11)
H23_4 H 0.380(4) 0.812(9) 0.1158(8)
H3_4 H 0.825833 0.027148 0.113231
H4_4 H 0.704140 0.103080 0.093378
H13_4 H 0.966839 0.000501 0.046618
P1_4 P 0.58689(4) 0.84925(14) 0.05223(2)
C1_4 C 0.68270(17) 0.8063(6) 0.06311(10)
C2_4 C 0.7155(2) 0.6111(7) 0.05108(13)
H1_4 H 0.688205 0.505498 0.034001
C3_4 C 0.7882(2) 0.5652(7) 0.06347(14)
H2_4 H 0.809607 0.427877 0.055026
C4_4 C 0.82917(17) 0.7144(6) 0.08756(10)
C5_4 C 0.7974(2) 0.9175(7) 0.09778(16)
C6_4 C 0.7250(2) 0.9632(7) 0.08589(16)
C14_4 C 0.9929(2) 0.4438(7) 0.27990(12)
H9_4 H 0.982535 0.534294 0.303385
C15_4 C 0.9766(2) 0.5233(7) 0.23927(12)
H10_4 H 0.954796 0.667767 0.235202
C16_4 C 0.99166(19) 0.3945(6) 0.20476(11)
C19_4 C 0.90433(17) 0.6568(6) 0.10503(10)
C20_4 C 0.96553(18) 0.7196(6) 0.08403(10)
C23_4 C 0.98148(19) 0.4985(6) 0.16196(10)
C24_4 C 0.91176(18) 0.5425(6) 0.14376(10)
C25_4 C 0.9575(2) 0.8390(8) 0.04241(13)
H14_4 H 0.992748 0.777146 0.023642
H15_4 H 0.907770 0.817275 0.029802
C27_4 C 0.8446(2) 0.4732(8) 0.16580(12)
H19_4 H 0.805165 0.433423 0.144800
H20_4 H 0.856302 0.342520 0.183842
H21_4 H 0.828774 0.598795 0.183014
H24_4 H 0.954(2) 0.203(16) 0.3524(16)
H25_4 H 0.544(3) 0.911(5) 0.1097(12)
O8 O 0.59532(18) 0.0687(5) 0.83661(8)
H12 H 0.557510 0.046402 0.755480
O8_2 O 0.90468(18) 0.0687(5) 0.66339(8)
H12_2 H 0.942490 0.046402 0.744520
H22_5 H 0.615(3) 0.183(6) 0.0000(11)
O8_3 O 0.40468(18) 0.9313(5) 0.16339(8)
H12_3 H 0.442490 0.953598 0.244520
H22_6 H 0.385(3) 0.817(6) 1.0000(11)
O8_4 O 0.09532(18) 0.9313(5) 0.33661(8)
H12_4 H 0.057510 0.953598 0.255480
loop_
_geom_bond_atom_site_label_1
_geom_bond_atom_site_label_2
_geom_bond_site_symmetry_1
_geom_bond_site_symmetry_2
P1 O10 1_555 1_555
P2 O4 1_555 1_555
P3 O7 1_555 1_555
O10 H25 1_555 1_555
O12 P1 1_555 1_555
O4 H23 1_555 1_555
O5 P2 1_555 1_555
O7 Ba5 1_555 1_555
O9 P3 1_555 1_555
C1 P1 1_555 1_555
C2 C1 1_555 1_555
H1 C2 1_555 1_555
C3 C2 1_555 1_555
H2 C3 1_555 1_555
C4 C3 1_555 1_555
C5 C4 1_555 1_555
C6 C1 1_555 1_555
C7 P2 1_555 1_555
C8 C7 1_555 1_555
C9 C8 1_555 1_555
C10 C9 1_555 1_555
C11 C10 1_555 1_555
H7 C11 1_555 1_555
C12 C7 1_555 1_555
H8 C12 1_555 1_555
C13 P3 1_555 1_555
C14 C13 1_555 1_555
H9 C14 1_555 1_555
C15 C14 1_555 1_555
H10 C15 1_555 1_555
C16 C15 1_555 1_555
C17 C16 1_555 1_555
H11 C17 1_555 1_555
C18 C13 1_555 1_555
C19 C4 1_555 1_555
C20 C19 1_555 1_555
C21 C10 1_555 1_555
C22 C21 1_555 1_555
C23 C16 1_555 1_555
C24 C19 1_555 1_555
C25 C20 1_555 1_555
H14 C25 1_555 1_555
H15 C25 1_555 1_555
C26 C22 1_555 1_555
H16 C26 1_555 1_555
H17 C26 1_555 1_555
H18 C26 1_555 1_555
C27 C24 1_555 1_555
H19 C27 1_555 1_555
H20 C27 1_555 1_555
H21 C27 1_555 1_555
H22 O5 1_555 1_555
H24 O9 1_555 1_555
Ba4 O4 1_555 1_555
Ba5 O9 1_555 1_555
Ba6 O12 1_555 1_555
O5 Ba4 1_555 1_555
C5 C6 1_555 1_555
C11 C12 1_555 1_555
C17 C18 1_555 1_555
C20 C21 1_555 1_555
C22 C23 1_555 1_555
C23 C24 1_555 1_555
Ba4 O6 1_555 1_555
O13 Ba4 1_555 1_555
O16 Ba4 1_555 1_555
P1_2 O1 1_555 1_555
O1 H25_2 1_555 1_555
O3 P1_2 1_555 1_555
C1_2 P1_2 1_555 1_555
C2_2 C1_2 1_555 1_555
H1_2 C2_2 1_555 1_555
C3_2 C2_2 1_555 1_555
H2_2 C3_2 1_555 1_555
C4_2 C3_2 1_555 1_555
C5_2 C4_2 1_555 1_555
C6_2 C1_2 1_555 1_555
H9_2 C14_2 1_555 1_555
C15_2 C14_2 1_555 1_555
H10_2 C15_2 1_555 1_555
C16_2 C15_2 1_555 1_555
C19_2 C4_2 1_555 1_555
C20_2 C19_2 1_555 1_555
C23_2 C16_2 1_555 1_555
C24_2 C19_2 1_555 1_555
C25_2 C20_2 1_555 1_555
H14_2 C25_2 1_555 1_555
H15_2 C25_2 1_555 1_555
C27_2 C24_2 1_555 1_555
H19_2 C27_2 1_555 1_555
H20_2 C27_2 1_555 1_555
H21_2 C27_2 1_555 1_555
H24_2 O17 1_555 1_555
Ba5 O1 1_555 1_555
O3 Ba5 1_555 1_555
C5_2 C6_2 1_555 1_555
C23_2 C24_2 1_555 1_555
Ba5 O2 1_555 1_555
P2_2 O4_2 1_555 1_555
P3_2 O16 1_555 1_555
O4_2 H23_2 1_555 1_555
O5_2 P2_2 1_555 1_555
C7_2 P2_2 1_555 1_555
C8_2 C7_2 1_555 1_555
C9_2 C8_2 1_555 1_555
C10_2 C9_2 1_555 1_555
C11_2 C10_2 1_555 1_555
H7_2 C11_2 1_555 1_555
C12_2 C7_2 1_555 1_555
H8_2 C12_2 1_555 1_555
C13_2 P3_2 1_555 1_555
H11_2 C17_2 1_555 1_555
C18_2 C13_2 1_555 1_555
C21_2 C10_2 1_555 1_555
C22_2 C21_2 1_555 1_555
C26_2 C22_2 1_555 1_555
H16_2 C26_2 1_555 1_555
H17_2 C26_2 1_555 1_555
H18_2 C26_2 1_555 1_555
H22_2 O5_2 1_555 1_555
Ba5 O4_2 1_555 1_555
O5_2 Ba5 1_555 1_555
C11_2 C12_2 1_555 1_555
C17_2 C18_2 1_555 1_555
Ba5 O6_2 1_555 1_555
Ba6 O6_3 1_555 1_555
O14 Ba6 1_555 1_555
O15 Ba6 1_555 1_555
O16_2 Ba6 1_555 1_555
P1_3 O1_2 1_555 1_555
P2_3 O14 1_555 1_555
P3_3 O7_2 1_555 1_555
O1_2 H25_3 1_555 1_555
O13 P1_3 1_555 1_555
O14 H23_3 1_555 1_555
O15 P2_3 1_555 1_555
O7_2 Ba6_2 1_555 1_555
O9_2 P3_3 1_555 1_555
C1_3 P1_3 1_555 1_555
C2_3 C1_3 1_555 1_555
H1_3 C2_3 1_555 1_555
C3_3 C2_3 1_555 1_555
H2_3 C3_3 1_555 1_555
C4_3 C3_3 1_555 1_555
C5_3 C4_3 1_555 1_555
C6_3 C1_3 1_555 1_555
C7_3 P2_3 1_555 1_555
C8_3 C7_3 1_555 1_555
C9_3 C8_3 1_555 1_555
C10_3 C9_3 1_555 1_555
C11_3 C10_3 1_555 1_555
H7_3 C11_3 1_555 1_555
C12_3 C7_3 1_555 1_555
H8_3 C12_3 1_555 1_555
C13_3 P3_3 1_555 1_555
C14_3 C13_3 1_555 1_555
H9_3 C14_3 1_555 1_555
C15_3 C14_3 1_555 1_555
H10_3 C15_3 1_555 1_555
C16_3 C15_3 1_555 1_555
C17_3 C16_3 1_555 1_555
H11_3 C17_3 1_555 1_555
C18_3 C13_3 1_555 1_555
C19_3 C4_3 1_555 1_555
C20_3 C19_3 1_555 1_555
C21_3 C10_3 1_555 1_555
C22_3 C21_3 1_555 1_555
C23_3 C16_3 1_555 1_555
C24_3 C19_3 1_555 1_555
C25_3 C20_3 1_555 1_555
H14_3 C25_3 1_555 1_555
H15_3 C25_3 1_555 1_555
C26_3 C22_3 1_555 1_555
H16_3 C26_3 1_555 1_555
H17_3 C26_3 1_555 1_555
H18_3 C26_3 1_555 1_555
C27_3 C24_3 1_555 1_555
H19_3 C27_3 1_555 1_555
H20_3 C27_3 1_555 1_555
H21_3 C27_3 1_555 1_555
H22_3 O15 1_555 1_555
H24_3 O9_2 1_555 1_555
Ba6_2 O9_2 1_555 1_555
C5_3 C6_3 1_555 1_555
C11_3 C12_3 1_555 1_555
C17_3 C18_3 1_555 1_555
C20_3 C21_3 1_555 1_555
C22_3 C23_3 1_555 1_555
C23_3 C24_3 1_555 1_555
Ba6_2 O6_4 1_555 1_555
O10_2 Ba6_2 1_555 1_555
O11_2 Ba6_2 1_555 1_555
O13_2 Ba6_2 1_555 1_555
O14_2 Ba6_2 1_555 1_555
O15_2 Ba6_2 1_555 1_555
P2_4 O14_2 1_555 1_555
P3_4 O16_2 1_555 1_555
O14_2 H23_4 1_555 1_555
O15_2 P2_4 1_555 1_555
C7_4 P2_4 1_555 1_555
C8_4 C7_4 1_555 1_555
C9_4 C8_4 1_555 1_555
C10_4 C9_4 1_555 1_555
C11_4 C10_4 1_555 1_555
H7_4 C11_4 1_555 1_555
C12_4 C7_4 1_555 1_555
H8_4 C12_4 1_555 1_555
C13_4 P3_4 1_555 1_555
H11_4 C17_4 1_555 1_555
C18_4 C13_4 1_555 1_555
C21_4 C10_4 1_555 1_555
C22_4 C21_4 1_555 1_555
C26_4 C22_4 1_555 1_555
H16_4 C26_4 1_555 1_555
H17_4 C26_4 1_555 1_555
H18_4 C26_4 1_555 1_555
H22_4 O15_2 1_555 1_555
C11_4 C12_4 1_555 1_555
C17_4 C18_4 1_555 1_555
P1_4 O10_2 1_555 1_555
O10_2 H25_4 1_555 1_555
O13_2 P1_4 1_555 1_555
C1_4 P1_4 1_555 1_555
C2_4 C1_4 1_555 1_555
H1_4 C2_4 1_555 1_555
C3_4 C2_4 1_555 1_555
H2_4 C3_4 1_555 1_555
C4_4 C3_4 1_555 1_555
C5_4 C4_4 1_555 1_555
C6_4 C1_4 1_555 1_555
H9_4 C14_4 1_555 1_555
C15_4 C14_4 1_555 1_555
H10_4 C15_4 1_555 1_555
C16_4 C15_4 1_555 1_555
C19_4 C4_4 1_555 1_555
C20_4 C19_4 1_555 1_555
C23_4 C16_4 1_555 1_555
C24_4 C19_4 1_555 1_555
C25_4 C20_4 1_555 1_555
H14_4 C25_4 1_555 1_555
H15_4 C25_4 1_555 1_555
C27_4 C24_4 1_555 1_555
H19_4 C27_4 1_555 1_555
H20_4 C27_4 1_555 1_555
H21_4 C27_4 1_555 1_555
H24_4 O17_2 1_555 1_555
C5_4 C6_4 1_555 1_555
C23_4 C24_4 1_555 1_555

#END
