
###############################################################################
#
# This file contains modified crystal structure data generated from the
# MOF subset of the Cambridge Structural Database (CSD) v543 
# hosted by the Cambridge Crystallographic Data Centre (CCDC).
#
# This work is licensed under the Creative Commons
# Attribution-NonCommercial-ShareAlike 4.0 International License.
# To view a copy of this license, visit
# http://creativecommons.org/licenses/by-nc-sa/4.0/
# or send a letter to
# Creative Commons, PO Box 1866, Mountain View, CA 94042, USA.
#
# CIF created using the CSD Python API on 29 September 2022
# The structure has been converted into the P1 space group
# The structure has a 3D framework
# The original CSD entry GEBDIE is in the monoclinic crystal system
# The framework has been calculated to contain at least 10.0% void space
# The void calculation uses a probe of radius 1.32A, grid spacing 0.4
#
###############################################################################

data_GEBDIE
_chemical_formula_moiety         '(C108 H98 O32 P12 Sr4)n'
_symmetry_cell_setting           triclinic
_symmetry_space_group_name_H-M   'P 1'
_symmetry_Int_Tables_number      1
_space_group_name_Hall           'P 1'
loop_
_symmetry_equiv_pos_site_id
_symmetry_equiv_pos_as_xyz
1 x,y,z
_cell_length_a                   5.6751(5)
_cell_length_b                   32.239(3)
_cell_length_c                   18.2567(18)
_cell_angle_alpha                90
_cell_angle_beta                 94.048(6)
_cell_angle_gamma                90
_cell_volume                     3331.9
loop_
_atom_site_label
_atom_site_type_symbol
_atom_site_fract_x
_atom_site_fract_y
_atom_site_fract_z
O5 O 0.0100(7) 0.15876(11) 0.5540(2)
P1 P 0.07964(19) 0.44599(3) 0.83244(6)
P2 P 0.7451(3) 0.15843(4) 0.52889(9)
P3 P 0.17391(18) 0.44729(3) 0.07575(5)
O1 O 0.2252(5) 0.48125(8) 0.86670(15)
O3 O 0.2279(5) 0.40671(9) 0.86239(15)
H1 H 0.183589 0.377668 0.852412
O4 O 0.6030(9) 0.14455(14) 0.5971(3)
H2 H 0.650270 0.161890 0.639933
O6 O 0.6803(7) 0.13055(10) 0.4664(2)
O7 O 0.2232(5) 0.40760(8) 0.03469(15)
H3 H 0.124204 0.385116 0.051917
O8 O 0.3387(5) 0.48037(8) 0.05251(14)
C1 C 0.2481(8) 0.41688(13) 0.4552(2)
C2 C 0.2746(8) 0.39847(13) 0.5252(2)
C3 C 0.3707(8) 0.35865(13) 0.5337(2)
C4 C 0.4433(8) 0.33732(14) 0.4731(2)
C5 C 0.4232(8) 0.35562(13) 0.4029(2)
C6 C 0.3221(7) 0.39521(13) 0.3945(2)
C7 C 0.3902(10) 0.33804(16) 0.6091(3)
H5 H 0.290673 0.352935 0.642133
H6 H 0.554857 0.338793 0.629228
H7 H 0.337434 0.309152 0.604482
C8 C 0.5046(10) 0.33206(15) 0.3376(3)
H8 H 0.644010 0.315438 0.352941
H9 H 0.544960 0.351754 0.299506
H10 H 0.377623 0.313747 0.317904
C9 C 0.1381(10) 0.45976(15) 0.4464(2)
H12 H 0.200230 0.473735 0.404181
H13 H 0.176923 0.476068 0.490932
C10 C 0.1992(8) 0.41983(13) 0.5920(2)
C13 C 0.1083(7) 0.44356(13) 0.7352(2)
C14 C 0.3154(8) 0.45560(14) 0.7051(2)
H16 H 0.428198 0.471658 0.733641
C15 C 0.3603(8) 0.44458(14) 0.6340(2)
H17 H 0.500755 0.453829 0.613757
C16 C 0.5305(9) 0.29361(14) 0.4817(2)
C17 C 0.7523(10) 0.28463(15) 0.5143(3)
H18 H 0.858589 0.306624 0.527198
C18 C 0.8215(10) 0.24399(16) 0.5284(3)
H19 H 0.973354 0.238284 0.551410
C19 C 0.6680(9) 0.21165(16) 0.5088(3)
C20 C 0.4523(10) 0.21988(16) 0.4731(3)
H20 H 0.350833 0.197714 0.457273
C21 C 0.3816(9) 0.26115(14) 0.4599(3)
H21 H 0.230908 0.266821 0.436038
C22 C 0.2814(7) 0.41270(12) 0.3185(2)
C23 C 0.4464(8) 0.43677(14) 0.2868(2)
H22 H 0.584980 0.445134 0.315190
C24 C 0.4137(8) 0.44906(13) 0.2138(2)
H23 H 0.529399 0.465544 0.192430
C25 C 0.2080(7) 0.43687(12) 0.1720(2)
C26 C 0.0385(8) 0.41443(15) 0.2049(2)
C27 C 0.0756(8) 0.40192(15) 0.2772(2)
Sr4 Sr 0.56392(6) 0.44381(2) 0.94880(2)
Sr5 Sr 0.43608(6) 0.55619(2) 0.05120(2)
Sr6 Sr 0.56392(6) 0.05619(2) 0.44880(2)
O16 O 0.9054(5) 0.45774(9) 0.05849(14)
O2 O 0.8274(5) 0.44286(9) 0.84850(16)
H4 H 0.854769 0.456814 0.108853
H11 H 0.966152 0.457099 0.438448
C11 C 0.9857(8) 0.41079(16) 0.6202(2)
H14 H 0.867933 0.396549 0.590389
C12 C 0.9398(8) 0.42194(16) 0.6905(2)
H15 H 0.792444 0.414898 0.708851
H24 H 0.894952 0.407486 0.177810
H25 H 0.959094 0.385769 0.298911
O12 O 0.6803(7) 0.36945(10) 0.9664(2)
O15 O 0.6613(5) 0.51963(8) 0.94749(14)
O15_2 O 0.3387(5) 0.01963(8) 0.55251(14)
O9 O 0.0946(5) 0.95774(9) 0.44151(14)
H4_2 H 0.145231 0.956814 0.391147
H11_2 H 0.033848 0.957099 0.061552
H24_2 H 0.105048 0.907486 0.322190
H25_2 H 0.040906 0.885769 0.201089
Sr2 Sr 0.43608(6) 0.94381(2) 0.55120(2)
O2_2 O 0.1726(5) 0.94286(9) 0.65150(16)
C11_2 C 0.0143(8) 0.91079(16) 0.8798(2)
H14_2 H 0.132067 0.896549 0.909611
C12_2 C 0.0602(8) 0.92194(16) 0.8095(2)
H15_2 H 0.207556 0.914898 0.791149
O10 O 0.7748(5) 0.98125(8) 0.63330(15)
O11 O 0.7721(5) 0.90671(9) 0.63761(15)
O12_2 O 0.3197(7) 0.86945(10) 0.5336(2)
O13 O 0.7768(5) 0.90760(8) 0.46531(15)
O14 O 0.6613(5) 0.98037(8) 0.44749(14)
P3_2 P 0.82609(18) 0.94729(3) 0.42425(5)
O6_2 O 0.3197(7) 0.63055(10) 0.0336(2)
H3_2 H 0.875796 0.885116 0.448083
C1_2 C 0.7519(8) 0.91688(13) 0.0448(2)
C4_2 C 0.5567(8) 0.83732(14) 0.0269(2)
C5_2 C 0.5768(8) 0.85562(13) 0.0971(2)
C6_2 C 0.6779(7) 0.89521(13) 0.1055(2)
C8_2 C 0.4954(10) 0.83206(15) 0.1624(3)
H8_2 H 0.355990 0.815438 0.147059
H9_2 H 0.455040 0.851754 0.200494
H10_2 H 0.622377 0.813747 0.182096
C9_2 C 0.8619(10) 0.95976(15) 0.0536(2)
H12_2 H 0.799770 0.973735 0.095819
H13_2 H 0.823077 0.976068 0.009068
C16_2 C 0.4695(9) 0.79361(14) 0.0183(2)
C20_2 C 0.5477(10) 0.71988(16) 0.0269(3)
H20_2 H 0.649167 0.697714 0.042727
C21_2 C 0.6184(9) 0.76115(14) 0.0401(3)
H21_2 H 0.769092 0.766821 0.063962
C22_2 C 0.7186(7) 0.91270(12) 0.1815(2)
C23_2 C 0.5536(8) 0.93677(14) 0.2132(2)
H22_2 H 0.415020 0.945134 0.184810
C24_2 C 0.5863(8) 0.94906(13) 0.2862(2)
H23_2 H 0.470601 0.965544 0.307570
C25_2 C 0.7920(7) 0.93687(12) 0.3280(2)
C26_2 C 0.9615(8) 0.91443(15) 0.2951(2)
C27_2 C 0.9244(8) 0.90192(15) 0.2228(2)
P1_2 P 0.92036(19) 0.94599(3) 0.66756(6)
P2_2 P 0.2549(3) 0.65843(4) 0.97111(9)
H1_2 H 0.816411 0.877668 0.647588
O4_2 O 0.3970(9) 0.64455(14) 0.9029(3)
H2_2 H 0.349730 0.661890 0.860067
C2_2 C 0.7254(8) 0.89847(13) 0.9748(2)
C3_2 C 0.6293(8) 0.85865(13) 0.9663(2)
C7_2 C 0.6098(10) 0.83804(16) 0.8909(3)
H5_2 H 0.709327 0.852935 0.857867
H6_2 H 0.445143 0.838793 0.870772
H7_2 H 0.662566 0.809152 0.895518
C10_2 C 0.8008(8) 0.91983(13) 0.9080(2)
C13_2 C 0.8917(7) 0.94356(13) 0.7648(2)
C14_2 C 0.6846(8) 0.95560(14) 0.7949(2)
H16_2 H 0.571802 0.971658 0.766359
C15_2 C 0.6397(8) 0.94458(14) 0.8660(2)
H17_2 H 0.499245 0.953829 0.886243
C17_2 C 0.2477(10) 0.78463(15) 0.9857(3)
H18_2 H 0.141411 0.806624 0.972802
C18_2 C 0.1785(10) 0.74399(16) 0.9716(3)
H19_2 H 0.026646 0.738284 0.948590
C19_2 C 0.3320(9) 0.71165(16) 0.9912(3)
O2_3 O 0.1726(5) 0.55714(9) 0.15150(16)
O9_2 O 0.0946(5) 0.54226(9) 0.94151(14)
H4_3 H 0.145231 0.543186 0.891147
H11_3 H 0.033848 0.542901 0.561552
C11_3 C 0.0143(8) 0.58921(16) 0.3798(2)
H14_3 H 0.132067 0.603451 0.409611
C12_3 C 0.0602(8) 0.57806(16) 0.3095(2)
H15_3 H 0.207556 0.585102 0.291149
H24_3 H 0.105048 0.592514 0.822190
H25_3 H 0.040906 0.614231 0.701089
O10_2 O 0.7748(5) 0.51875(8) 0.13330(15)
O11_2 O 0.7721(5) 0.59329(9) 0.13761(15)
O13_2 O 0.7768(5) 0.59240(8) 0.96531(15)
P1_3 P 0.92036(19) 0.55401(3) 0.16756(6)
P2_3 P 0.2549(3) 0.84157(4) 0.47111(9)
P3_3 P 0.82609(18) 0.55271(3) 0.92425(5)
H1_3 H 0.816411 0.622332 0.147588
O4_3 O 0.3970(9) 0.85545(14) 0.4029(3)
H2_3 H 0.349730 0.838110 0.360067
H3_3 H 0.875796 0.614884 0.948083
C1_3 C 0.7519(8) 0.58312(13) 0.5448(2)
C2_3 C 0.7254(8) 0.60153(13) 0.4748(2)
C3_3 C 0.6293(8) 0.64135(13) 0.4663(2)
C4_3 C 0.5567(8) 0.66268(14) 0.5269(2)
C5_3 C 0.5768(8) 0.64438(13) 0.5971(2)
C6_3 C 0.6779(7) 0.60479(13) 0.6055(2)
C7_3 C 0.6098(10) 0.66196(16) 0.3909(3)
H5_3 H 0.709327 0.647065 0.357867
H6_3 H 0.445143 0.661207 0.370772
H7_3 H 0.662566 0.690848 0.395518
C8_3 C 0.4954(10) 0.66794(15) 0.6624(3)
H8_3 H 0.355990 0.684562 0.647059
H9_3 H 0.455040 0.648246 0.700494
H10_3 H 0.622377 0.686253 0.682096
C9_3 C 0.8619(10) 0.54024(15) 0.5536(2)
H12_3 H 0.799770 0.526265 0.595819
H13_3 H 0.823077 0.523932 0.509068
C10_3 C 0.8008(8) 0.58017(13) 0.4080(2)
C13_3 C 0.8917(7) 0.55644(13) 0.2648(2)
C14_3 C 0.6846(8) 0.54440(14) 0.2949(2)
H16_3 H 0.571802 0.528342 0.266359
C15_3 C 0.6397(8) 0.55542(14) 0.3660(2)
H17_3 H 0.499245 0.546171 0.386243
C16_3 C 0.4695(9) 0.70639(14) 0.5183(2)
C17_3 C 0.2477(10) 0.71537(15) 0.4857(3)
H18_3 H 0.141411 0.693376 0.472802
C18_3 C 0.1785(10) 0.75601(16) 0.4716(3)
H19_3 H 0.026646 0.761716 0.448590
C19_3 C 0.3320(9) 0.78835(16) 0.4912(3)
C20_3 C 0.5477(10) 0.78012(16) 0.5269(3)
H20_3 H 0.649167 0.802286 0.542727
C21_3 C 0.6184(9) 0.73885(14) 0.5401(3)
H21_3 H 0.769092 0.733179 0.563962
C22_3 C 0.7186(7) 0.58730(12) 0.6815(2)
C23_3 C 0.5536(8) 0.56323(14) 0.7132(2)
H22_3 H 0.415020 0.554866 0.684810
C24_3 C 0.5863(8) 0.55094(13) 0.7862(2)
H23_3 H 0.470601 0.534456 0.807570
C25_3 C 0.7920(7) 0.56313(12) 0.8280(2)
C26_3 C 0.9615(8) 0.58557(15) 0.7951(2)
C27_3 C 0.9244(8) 0.59808(15) 0.7228(2)
P1_4 P 0.07964(19) 0.05401(3) 0.33244(6)
P2_4 P 0.7451(3) 0.34157(4) 0.02889(9)
O1_2 O 0.2252(5) 0.01875(8) 0.36670(15)
O3_2 O 0.2279(5) 0.09329(9) 0.36239(15)
H1_4 H 0.183589 0.122332 0.352412
O4_4 O 0.6030(9) 0.35545(14) 0.0971(3)
H2_4 H 0.650270 0.338110 0.139933
C2_4 C 0.2746(8) 0.10153(13) 0.0252(2)
C3_4 C 0.3707(8) 0.14135(13) 0.0337(2)
C7_4 C 0.3902(10) 0.16196(16) 0.1091(3)
H5_4 H 0.290673 0.147065 0.142133
H6_4 H 0.554857 0.161207 0.129228
H7_4 H 0.337434 0.190848 0.104482
C10_4 C 0.1992(8) 0.08017(13) 0.0920(2)
C13_4 C 0.1083(7) 0.05644(13) 0.2352(2)
C14_4 C 0.3154(8) 0.04440(14) 0.2051(2)
H16_4 H 0.428198 0.028342 0.233641
C15_4 C 0.3603(8) 0.05542(14) 0.1340(2)
H17_4 H 0.500755 0.046171 0.113757
C17_4 C 0.7523(10) 0.21537(15) 0.0143(3)
H18_4 H 0.858589 0.193376 0.027198
C18_4 C 0.8215(10) 0.25601(16) 0.0284(3)
H19_4 H 0.973354 0.261716 0.051410
C19_4 C 0.6680(9) 0.28835(16) 0.0088(3)
P3_4 P 0.17391(18) 0.05271(3) 0.57575(5)
O7_2 O 0.2232(5) 0.09240(8) 0.53469(15)
H3_4 H 0.124204 0.114884 0.551917
C1_4 C 0.2481(8) 0.08312(13) 0.9552(2)
C4_4 C 0.4433(8) 0.16268(14) 0.9731(2)
C5_4 C 0.4232(8) 0.14438(13) 0.9029(2)
C6_4 C 0.3221(7) 0.10479(13) 0.8945(2)
C8_4 C 0.5046(10) 0.16794(15) 0.8376(3)
H8_4 H 0.644010 0.184562 0.852941
H9_4 H 0.544960 0.148246 0.799506
H10_4 H 0.377623 0.186253 0.817904
C9_4 C 0.1381(10) 0.04024(15) 0.9464(2)
H12_4 H 0.200230 0.026265 0.904181
H13_4 H 0.176923 0.023932 0.990932
C16_4 C 0.5305(9) 0.20639(14) 0.9817(2)
C20_4 C 0.4523(10) 0.28012(16) 0.9731(3)
H20_4 H 0.350833 0.302286 0.957273
C21_4 C 0.3816(9) 0.23885(14) 0.9599(3)
H21_4 H 0.230908 0.233179 0.936038
C22_4 C 0.2814(7) 0.08730(12) 0.8185(2)
C23_4 C 0.4464(8) 0.06323(14) 0.7868(2)
H22_4 H 0.584980 0.054866 0.815190
C24_4 C 0.4137(8) 0.05094(13) 0.7138(2)
H23_4 H 0.529399 0.034456 0.692430
C25_4 C 0.2080(7) 0.06313(12) 0.6720(2)
C26_4 C 0.0385(8) 0.08557(15) 0.7049(2)
C27_4 C 0.0756(8) 0.09808(15) 0.7772(2)
O2_4 O 0.8274(5) 0.05714(9) 0.34850(16)
C11_4 C 0.9857(8) 0.08921(16) 0.1202(2)
H14_4 H 0.867933 0.103451 0.090389
C12_4 C 0.9398(8) 0.07806(16) 0.1905(2)
H15_4 H 0.792444 0.085102 0.208851
O16_2 O 0.9054(5) 0.04226(9) 0.55849(14)
H4_4 H 0.854769 0.043186 0.608853
H11_4 H 0.966152 0.042901 0.938448
H24_4 H 0.894952 0.092514 0.677810
H25_4 H 0.959094 0.114231 0.798911
O5_2 O 0.9900(7) 0.65876(11) 0.9460(2)
O5_3 O 0.9900(7) 0.84124(11) 0.4460(2)
O5_4 O 0.0100(7) 0.34124(11) 0.0540(2)
loop_
_geom_bond_atom_site_label_1
_geom_bond_atom_site_label_2
_geom_bond_site_symmetry_1
_geom_bond_site_symmetry_2
P1 O1 1_555 1_555
P2 O4 1_555 1_555
P3 O7 1_555 1_555
O1 Sr4 1_555 1_555
O3 P1 1_555 1_555
H1 O3 1_555 1_555
O4 H2 1_555 1_555
O6 P2 1_555 1_555
O7 H3 1_555 1_555
O8 P3 1_555 1_555
C1 C2 1_555 1_555
C2 C3 1_555 1_555
C3 C4 1_555 1_555
C4 C5 1_555 1_555
C5 C6 1_555 1_555
C6 C1 1_555 1_555
C7 C3 1_555 1_555
H5 C7 1_555 1_555
H6 C7 1_555 1_555
H7 C7 1_555 1_555
C8 C5 1_555 1_555
H8 C8 1_555 1_555
H9 C8 1_555 1_555
H10 C8 1_555 1_555
C9 C1 1_555 1_555
H12 C9 1_555 1_555
H13 C9 1_555 1_555
C10 C2 1_555 1_555
C13 P1 1_555 1_555
C14 C13 1_555 1_555
H16 C14 1_555 1_555
C15 C10 1_555 1_555
H17 C15 1_555 1_555
C16 C4 1_555 1_555
C17 C16 1_555 1_555
H18 C17 1_555 1_555
C18 C17 1_555 1_555
H19 C18 1_555 1_555
C19 P2 1_555 1_555
C20 C19 1_555 1_555
H20 C20 1_555 1_555
C21 C16 1_555 1_555
H21 C21 1_555 1_555
C22 C6 1_555 1_555
C23 C22 1_555 1_555
H22 C23 1_555 1_555
C24 C23 1_555 1_555
H23 C24 1_555 1_555
C25 P3 1_555 1_555
C26 C25 1_555 1_555
C27 C22 1_555 1_555
Sr4 O3 1_555 1_555
Sr5 O8 1_555 1_555
Sr6 O6 1_555 1_555
C14 C15 1_555 1_555
C18 C19 1_555 1_555
C20 C21 1_555 1_555
C24 C25 1_555 1_555
C26 C27 1_555 1_555
Sr4 O2 1_555 1_555
H4 O16 1_555 1_555
H14 C11 1_555 1_555
C12 C11 1_555 1_555
H15 C12 1_555 1_555
O12 Sr4 1_555 1_555
O15 Sr4 1_555 1_555
H4_2 O9 1_555 1_555
Sr2 O9 1_555 1_555
Sr2 O2_2 1_555 1_555
H14_2 C11_2 1_555 1_555
C12_2 C11_2 1_555 1_555
H15_2 C12_2 1_555 1_555
O10 Sr2 1_555 1_555
O11 Sr2 1_555 1_555
O12_2 Sr2 1_555 1_555
O13 Sr2 1_555 1_555
O14 Sr2 1_555 1_555
P3_2 O13 1_555 1_555
O13 H3_2 1_555 1_555
O14 P3_2 1_555 1_555
C4_2 C5_2 1_555 1_555
C5_2 C6_2 1_555 1_555
C6_2 C1_2 1_555 1_555
C8_2 C5_2 1_555 1_555
H8_2 C8_2 1_555 1_555
H9_2 C8_2 1_555 1_555
H10_2 C8_2 1_555 1_555
C9_2 C1_2 1_555 1_555
H12_2 C9_2 1_555 1_555
H13_2 C9_2 1_555 1_555
C16_2 C4_2 1_555 1_555
H20_2 C20_2 1_555 1_555
C21_2 C16_2 1_555 1_555
H21_2 C21_2 1_555 1_555
C22_2 C6_2 1_555 1_555
C23_2 C22_2 1_555 1_555
H22_2 C23_2 1_555 1_555
C24_2 C23_2 1_555 1_555
H23_2 C24_2 1_555 1_555
C25_2 P3_2 1_555 1_555
C26_2 C25_2 1_555 1_555
C27_2 C22_2 1_555 1_555
Sr5 O6_2 1_555 1_555
C20_2 C21_2 1_555 1_555
C24_2 C25_2 1_555 1_555
C26_2 C27_2 1_555 1_555
P1_2 O10 1_555 1_555
P2_2 O4_2 1_555 1_555
O11 P1_2 1_555 1_555
H1_2 O11 1_555 1_555
O4_2 H2_2 1_555 1_555
C2_2 C3_2 1_555 1_555
C7_2 C3_2 1_555 1_555
H5_2 C7_2 1_555 1_555
H6_2 C7_2 1_555 1_555
H7_2 C7_2 1_555 1_555
C10_2 C2_2 1_555 1_555
C13_2 P1_2 1_555 1_555
C14_2 C13_2 1_555 1_555
H16_2 C14_2 1_555 1_555
C15_2 C10_2 1_555 1_555
H17_2 C15_2 1_555 1_555
H18_2 C17_2 1_555 1_555
C18_2 C17_2 1_555 1_555
H19_2 C18_2 1_555 1_555
C19_2 P2_2 1_555 1_555
C14_2 C15_2 1_555 1_555
C18_2 C19_2 1_555 1_555
Sr5 O2_3 1_555 1_555
H4_3 O9_2 1_555 1_555
H14_3 C11_3 1_555 1_555
C12_3 C11_3 1_555 1_555
H15_3 C12_3 1_555 1_555
O10_2 Sr5 1_555 1_555
O11_2 Sr5 1_555 1_555
P1_3 O10_2 1_555 1_555
P2_3 O4_3 1_555 1_555
P3_3 O13_2 1_555 1_555
O11_2 P1_3 1_555 1_555
H1_3 O11_2 1_555 1_555
O4_3 H2_3 1_555 1_555
O12_2 P2_3 1_555 1_555
O13_2 H3_3 1_555 1_555
O15 P3_3 1_555 1_555
C1_3 C2_3 1_555 1_555
C2_3 C3_3 1_555 1_555
C3_3 C4_3 1_555 1_555
C4_3 C5_3 1_555 1_555
C5_3 C6_3 1_555 1_555
C6_3 C1_3 1_555 1_555
C7_3 C3_3 1_555 1_555
H5_3 C7_3 1_555 1_555
H6_3 C7_3 1_555 1_555
H7_3 C7_3 1_555 1_555
C8_3 C5_3 1_555 1_555
H8_3 C8_3 1_555 1_555
H9_3 C8_3 1_555 1_555
H10_3 C8_3 1_555 1_555
C9_3 C1_3 1_555 1_555
H12_3 C9_3 1_555 1_555
H13_3 C9_3 1_555 1_555
C10_3 C2_3 1_555 1_555
C13_3 P1_3 1_555 1_555
C14_3 C13_3 1_555 1_555
H16_3 C14_3 1_555 1_555
C15_3 C10_3 1_555 1_555
H17_3 C15_3 1_555 1_555
C16_3 C4_3 1_555 1_555
C17_3 C16_3 1_555 1_555
H18_3 C17_3 1_555 1_555
C18_3 C17_3 1_555 1_555
H19_3 C18_3 1_555 1_555
C19_3 P2_3 1_555 1_555
C20_3 C19_3 1_555 1_555
H20_3 C20_3 1_555 1_555
C21_3 C16_3 1_555 1_555
H21_3 C21_3 1_555 1_555
C22_3 C6_3 1_555 1_555
C23_3 C22_3 1_555 1_555
H22_3 C23_3 1_555 1_555
C24_3 C23_3 1_555 1_555
H23_3 C24_3 1_555 1_555
C25_3 P3_3 1_555 1_555
C26_3 C25_3 1_555 1_555
C27_3 C22_3 1_555 1_555
C14_3 C15_3 1_555 1_555
C18_3 C19_3 1_555 1_555
C20_3 C21_3 1_555 1_555
C24_3 C25_3 1_555 1_555
C26_3 C27_3 1_555 1_555
P1_4 O1_2 1_555 1_555
P2_4 O4_4 1_555 1_555
O1_2 Sr6 1_555 1_555
O3_2 P1_4 1_555 1_555
H1_4 O3_2 1_555 1_555
O4_4 H2_4 1_555 1_555
C2_4 C3_4 1_555 1_555
C7_4 C3_4 1_555 1_555
H5_4 C7_4 1_555 1_555
H6_4 C7_4 1_555 1_555
H7_4 C7_4 1_555 1_555
C10_4 C2_4 1_555 1_555
C13_4 P1_4 1_555 1_555
C14_4 C13_4 1_555 1_555
H16_4 C14_4 1_555 1_555
C15_4 C10_4 1_555 1_555
H17_4 C15_4 1_555 1_555
H18_4 C17_4 1_555 1_555
C18_4 C17_4 1_555 1_555
H19_4 C18_4 1_555 1_555
C19_4 P2_4 1_555 1_555
Sr6 O3_2 1_555 1_555
C14_4 C15_4 1_555 1_555
C18_4 C19_4 1_555 1_555
P3_4 O7_2 1_555 1_555
O7_2 H3_4 1_555 1_555
O15_2 P3_4 1_555 1_555
C4_4 C5_4 1_555 1_555
C5_4 C6_4 1_555 1_555
C6_4 C1_4 1_555 1_555
C8_4 C5_4 1_555 1_555
H8_4 C8_4 1_555 1_555
H9_4 C8_4 1_555 1_555
H10_4 C8_4 1_555 1_555
C9_4 C1_4 1_555 1_555
H12_4 C9_4 1_555 1_555
H13_4 C9_4 1_555 1_555
C16_4 C4_4 1_555 1_555
H20_4 C20_4 1_555 1_555
C21_4 C16_4 1_555 1_555
H21_4 C21_4 1_555 1_555
C22_4 C6_4 1_555 1_555
C23_4 C22_4 1_555 1_555
H22_4 C23_4 1_555 1_555
C24_4 C23_4 1_555 1_555
H23_4 C24_4 1_555 1_555
C25_4 P3_4 1_555 1_555
C26_4 C25_4 1_555 1_555
C27_4 C22_4 1_555 1_555
Sr6 O7_2 1_555 1_555
O15_2 Sr6 1_555 1_555
C20_4 C21_4 1_555 1_555
C24_4 C25_4 1_555 1_555
C26_4 C27_4 1_555 1_555
Sr6 O2_4 1_555 1_555
H14_4 C11_4 1_555 1_555
C12_4 C11_4 1_555 1_555
H15_4 C12_4 1_555 1_555
O16_2 Sr6 1_555 1_555
H4_4 O16_2 1_555 1_555

#END
