
###############################################################################
#
# This file contains modified crystal structure data generated from the
# MOF subset of the Cambridge Structural Database (CSD) v543 
# hosted by the Cambridge Crystallographic Data Centre (CCDC).
#
# This work is licensed under the Creative Commons
# Attribution-NonCommercial-ShareAlike 4.0 International License.
# To view a copy of this license, visit
# http://creativecommons.org/licenses/by-nc-sa/4.0/
# or send a letter to
# Creative Commons, PO Box 1866, Mountain View, CA 94042, USA.
#
# CIF created using the CSD Python API on 29 September 2022
# The structure has been converted into the P1 space group
# The structure has a 3D framework
# The original CSD entry GECRAI is in the monoclinic crystal system
# The framework has been calculated to contain at least 10.0% void space
# The void calculation uses a probe of radius 1.32A, grid spacing 0.4
# The framework is charged, counterions have been retained in the structure
# H atom positions have been added when not included in the experimental data
#
###############################################################################

data_GECRAI
_chemical_formula_moiety         '(C32 H104 N8 O68 P16 V16)n'
_symmetry_cell_setting           triclinic
_symmetry_space_group_name_H-M   'P 1'
_symmetry_Int_Tables_number      1
_space_group_name_Hall           'P 1'
loop_
_symmetry_equiv_pos_site_id
_symmetry_equiv_pos_as_xyz
1 x,y,z
_cell_length_a                   14.5794(11)
_cell_length_b                   10.2424(8)
_cell_length_c                   18.7815(14)
_cell_angle_alpha                90
_cell_angle_beta                 98.8370(10)
_cell_angle_gamma                90
_cell_volume                     2771.31
loop_
_atom_site_label
_atom_site_type_symbol
_atom_site_fract_x
_atom_site_fract_y
_atom_site_fract_z
O9 O 0.28529(14) 0.00492(17) 0.11925(10)
V4 V 0.65469(3) 0.12181(4) 0.08849(2)
V6 V 0.72975(4) 0.06336(5) 0.28294(2)
V8 V 0.27025(4) 0.06336(5) 0.21706(2)
O14 O 0.6936(2) 0.1558(2) 0.19040(12)
O20 O 0.83253(17) 0.0100(2) 0.27584(13)
O23 O 0.76146(14) 0.23995(18) 0.32440(10)
O26 O 0.71471(14) 0.00492(17) 0.38075(10)
H15 H 0.705(3) 0.206(5) 0.196(3)
O17 O 0.32874(14) 0.06521(18) 0.88976(10)
V1 V 0.15469(3) 0.62181(4) 0.08849(2)
V2 V 0.22975(4) 0.56336(5) 0.28294(2)
P1 P 0.66015(5) 0.83944(6) 0.17148(3)
P2 P 0.28201(5) 0.88091(6) 0.07392(3)
O1 O 0.19108(13) 0.80720(18) 0.07557(10)
O3 O 0.04484(16) 0.6341(2) 0.06918(14)
O4 O 0.1936(2) 0.6558(2) 0.19040(12)
O5 O 0.67126(14) 0.93479(18) 0.11024(10)
O6 O 0.65681(15) 0.91020(19) 0.24249(10)
O7 O 0.33253(17) 0.5100(2) 0.27584(13)
O8 O 0.73854(14) 0.73995(18) 0.17560(10)
C1 C 0.55125(18) 0.7560(2) 0.14771(14)
H1 H 0.5563 0.6947 0.1077
H2 H 0.5386 0.7039 0.1895
C2 C 0.37743(19) 0.7756(2) 0.10803(14)
H3 H 0.3640 0.7323 0.1524
H4 H 0.3832 0.7067 0.0720
C3 C 0.46957(19) 0.8485(3) 0.12485(14)
H5 H 0.4658 0.9121 0.1640
H6 H 0.4806 0.8978 0.0816
H7 H 0.205(3) 0.706(5) 0.196(3)
V7 V 0.77025(4) 0.56336(5) 0.21706(2)
O11 O 0.20845(16) 0.57710(19) 0.00276(10)
O16 O 0.17126(14) 0.43479(18) 0.11024(10)
O19 O 0.15681(15) 0.41020(19) 0.24249(10)
O22 O 0.26146(14) 0.73995(18) 0.32440(10)
O25 O 0.21471(14) 0.50492(17) 0.38075(10)
O2 O 0.29155(16) 0.92290(19) 0.99724(10)
V3 V 0.34531(3) 0.87819(4) 0.91151(2)
V11 V 0.22975(4) 0.43664(5) 0.78294(2)
P4 P 0.21799(5) 0.61909(6) 0.92608(3)
O10 O 0.30892(13) 0.69280(18) 0.92443(10)
O12 O 0.45516(16) 0.8659(2) 0.93082(14)
O13 O 0.3064(2) 0.8442(2) 0.80960(12)
O24 O 0.21471(14) 0.49508(17) 0.88075(10)
C5 C 0.12257(19) 0.7244(2) 0.89197(14)
H10 H 0.1360 0.7677 0.8476
H11 H 0.1168 0.7933 0.9280
C6 C 0.03043(19) 0.6515(3) 0.87515(14)
H12 H 0.0342 0.5879 0.8360
H13 H 0.0194 0.6022 0.9184
H14 H 0.295(3) 0.794(5) 0.804(3)
H26 H 0.359496 0.862226 0.783683
V5 V 0.84531(3) 0.37819(4) 0.91151(2)
V9 V 0.77025(4) 0.43664(5) 0.71706(2)
V10 V 0.72975(4) 0.93664(5) 0.78294(2)
P3 P 0.83985(5) 0.66056(6) 0.82852(3)
O15 O 0.82874(14) 0.56521(18) 0.88976(10)
O18 O 0.84319(15) 0.58980(19) 0.75751(10)
O21 O 0.76146(14) 0.76005(18) 0.82440(10)
C4 C 0.94875(18) 0.7440(2) 0.85229(14)
H8 H 0.9437 0.8053 0.8923
H9 H 0.9614 0.7961 0.8105
P1_2 P 0.16015(5) 0.33944(6) 0.17148(3)
O8_2 O 0.23854(14) 0.23995(18) 0.17560(10)
C1_2 C 0.05125(18) 0.2560(2) 0.14771(14)
H1_2 H 0.0563 0.1947 0.1077
H2_2 H 0.0386 0.2039 0.1895
P2_2 P 0.78201(5) 0.38091(6) 0.07392(3)
O1_2 O 0.69108(13) 0.30720(18) 0.07557(10)
O3_2 O 0.54484(16) 0.1341(2) 0.06918(14)
O9_2 O 0.78529(14) 0.50492(17) 0.11925(10)
C2_2 C 0.87743(19) 0.2756(2) 0.10803(14)
H3_2 H 0.8640 0.2323 0.1524
H4_2 H 0.8832 0.2067 0.0720
C3_2 C 0.96957(19) 0.3485(3) 0.12485(14)
H5_2 H 0.9658 0.4121 0.1640
H6_2 H 0.9806 0.3978 0.0816
O11_2 O 0.70845(16) 0.07710(19) 0.00276(10)
O2_2 O 0.79155(16) 0.42290(19) 0.99724(10)
P3_2 P 0.33985(5) 0.16056(6) 0.82852(3)
P4_2 P 0.71799(5) 0.11909(6) 0.92608(3)
O10_2 O 0.80892(13) 0.19280(18) 0.92443(10)
O12_2 O 0.95516(16) 0.3659(2) 0.93082(14)
O13_2 O 0.8064(2) 0.3442(2) 0.80960(12)
O18_2 O 0.34319(15) 0.08980(19) 0.75751(10)
O21_2 O 0.26146(14) 0.26005(18) 0.82440(10)
C4_2 C 0.44875(18) 0.2440(2) 0.85229(14)
H8_2 H 0.4437 0.3053 0.8923
H9_2 H 0.4614 0.2961 0.8105
C5_2 C 0.62257(19) 0.2244(2) 0.89197(14)
H10_2 H 0.6360 0.2677 0.8476
H11_2 H 0.6168 0.2933 0.9280
C6_2 C 0.53043(19) 0.1515(3) 0.87515(14)
H12_2 H 0.5342 0.0879 0.8360
H13_2 H 0.5194 0.1022 0.9184
H14_2 H 0.795(3) 0.294(5) 0.804(3)
H26_2 H 0.859496 0.362226 0.783683
V9_2 V 0.27025(4) 0.93664(5) 0.71706(2)
O24_2 O 0.71471(14) 0.99508(17) 0.88075(10)
V5_2 V 0.15469(3) 0.37819(4) 0.58849(2)
P3_3 P 0.16015(5) 0.66056(6) 0.67148(3)
O15_2 O 0.17126(14) 0.56521(18) 0.61024(10)
O18_3 O 0.15681(15) 0.58980(19) 0.74249(10)
O21_3 O 0.23854(14) 0.76005(18) 0.67560(10)
C4_3 C 0.05125(18) 0.7440(2) 0.64771(14)
H8_3 H 0.0563 0.8053 0.6077
H9_3 H 0.0386 0.7961 0.6895
V4_2 V 0.34531(3) 0.12181(4) 0.41151(2)
O14_2 O 0.3064(2) 0.1558(2) 0.30960(12)
O17_2 O 0.67126(14) 0.06521(18) 0.61024(10)
O20_2 O 0.16747(17) 0.0100(2) 0.22416(13)
H15_2 H 0.295(3) 0.206(5) 0.304(3)
V1_2 V 0.84531(3) 0.62181(4) 0.41151(2)
P1_3 P 0.33985(5) 0.83944(6) 0.32852(3)
P2_3 P 0.71799(5) 0.88091(6) 0.42608(3)
O1_3 O 0.80892(13) 0.80720(18) 0.42443(10)
O2_3 O 0.70845(16) 0.92290(19) 0.50276(10)
O3_3 O 0.95516(16) 0.6341(2) 0.43082(14)
O4_2 O 0.8064(2) 0.6558(2) 0.30960(12)
O5_2 O 0.32874(14) 0.93479(18) 0.38976(10)
O6_2 O 0.34319(15) 0.91020(19) 0.25751(10)
O7_2 O 0.66747(17) 0.5100(2) 0.22416(13)
C1_3 C 0.44875(18) 0.7560(2) 0.35229(14)
H1_3 H 0.4437 0.6947 0.3923
H2_3 H 0.4614 0.7039 0.3105
C2_3 C 0.62257(19) 0.7756(2) 0.39197(14)
H3_3 H 0.6360 0.7323 0.3476
H4_3 H 0.6168 0.7067 0.4280
C3_3 C 0.53043(19) 0.8485(3) 0.37515(14)
H5_3 H 0.5342 0.9121 0.3360
H6_3 H 0.5194 0.8978 0.4184
H7_2 H 0.795(3) 0.706(5) 0.304(3)
V3_2 V 0.65469(3) 0.87819(4) 0.58849(2)
P4_3 P 0.78201(5) 0.61909(6) 0.57392(3)
O10_3 O 0.69108(13) 0.69280(18) 0.57557(10)
O11_3 O 0.79155(16) 0.57710(19) 0.49724(10)
O12_3 O 0.54484(16) 0.8659(2) 0.56918(14)
O13_3 O 0.6936(2) 0.8442(2) 0.69040(12)
O16_2 O 0.82874(14) 0.43479(18) 0.38976(10)
O19_2 O 0.84319(15) 0.41020(19) 0.25751(10)
O24_3 O 0.78529(14) 0.49508(17) 0.61925(10)
C5_3 C 0.87743(19) 0.7244(2) 0.60803(14)
H10_3 H 0.8640 0.7677 0.6524
H11_3 H 0.8832 0.7933 0.5720
C6_3 C 0.96957(19) 0.6515(3) 0.62485(14)
H12_3 H 0.9658 0.5879 0.6640
H13_3 H 0.9806 0.6022 0.5816
H14_3 H 0.705(3) 0.794(5) 0.696(3)
H26_3 H 0.640504 0.862226 0.716317
P2_4 P 0.21799(5) 0.38091(6) 0.42608(3)
O1_4 O 0.30892(13) 0.30720(18) 0.42443(10)
O2_4 O 0.20845(16) 0.42290(19) 0.50276(10)
O3_4 O 0.45516(16) 0.1341(2) 0.43082(14)
C2_4 C 0.12257(19) 0.2756(2) 0.39197(14)
H3_4 H 0.1360 0.2323 0.3476
H4_4 H 0.1168 0.2067 0.4280
C3_4 C 0.03043(19) 0.3485(3) 0.37515(14)
H5_4 H 0.0342 0.4121 0.3360
H6_4 H 0.0194 0.3978 0.4184
P3_4 P 0.66015(5) 0.16056(6) 0.67148(3)
P4_4 P 0.28201(5) 0.11909(6) 0.57392(3)
O10_4 O 0.19108(13) 0.19280(18) 0.57557(10)
O11_4 O 0.29155(16) 0.07710(19) 0.49724(10)
O12_4 O 0.04484(16) 0.3659(2) 0.56918(14)
O13_4 O 0.1936(2) 0.3442(2) 0.69040(12)
O18_4 O 0.65681(15) 0.08980(19) 0.74249(10)
O21_4 O 0.73854(14) 0.26005(18) 0.67560(10)
C4_4 C 0.55125(18) 0.2440(2) 0.64771(14)
H8_4 H 0.5563 0.3053 0.6077
H9_4 H 0.5386 0.2961 0.6895
C5_4 C 0.37743(19) 0.2244(2) 0.60803(14)
H10_4 H 0.3640 0.2677 0.6524
H11_4 H 0.3832 0.2933 0.5720
C6_4 C 0.46957(19) 0.1515(3) 0.62485(14)
H12_4 H 0.4658 0.0879 0.6640
H13_4 H 0.4806 0.1022 0.5816
H14_4 H 0.205(3) 0.294(5) 0.696(3)
H26_4 H 0.140504 0.362226 0.716317
O24_4 O 0.28529(14) 0.99508(17) 0.61925(10)
P1_4 P 0.83985(5) 0.33944(6) 0.32852(3)
C1_4 C 0.94875(18) 0.2560(2) 0.35229(14)
H1_4 H 0.9437 0.1947 0.3923
H2_4 H 0.9614 0.2039 0.3105
H26_5 H 0.640504 0.137774 0.216317
O7_3 O 0.66747(17) 0.4900(2) 0.72416(13)
O20_3 O 0.16747(17) 0.9900(2) 0.72416(13)
H26_6 H 0.140504 0.637774 0.216317
O7_4 O 0.33253(17) 0.4900(2) 0.77584(13)
H26_7 H 0.359496 0.137774 0.283683
O20_4 O 0.83253(17) 0.9900(2) 0.77584(13)
H26_8 H 0.859496 0.637774 0.283683
N1 N 0.1337(3) 0.6924(3) 0.46749(19)
H16 H 0.0793 0.7358 0.4546
H17 H 0.1273 0.6339 0.5029
H18 H 0.1490 0.6493 0.4286
C7 C 0.2038(2) 0.7815(4) 0.49273(18)
H19 H 0.1897 0.8224 0.5376
H20 H 0.2051 0.8514 0.4565
N2 N 0.3663(3) 0.8076(3) 0.53251(19)
H21 H 0.4207 0.7642 0.5454
H22 H 0.3727 0.8661 0.4971
H23 H 0.3510 0.8507 0.5714
C8 C 0.2962(2) 0.7185(4) 0.50727(18)
H24 H 0.3103 0.6776 0.4624
H25 H 0.2949 0.6486 0.5435
N1_2 N 0.6337(3) 0.1924(3) 0.46749(19)
H16_2 H 0.5793 0.2358 0.4546
H17_2 H 0.6273 0.1339 0.5029
H18_2 H 0.6490 0.1493 0.4286
C7_2 C 0.7038(2) 0.2815(4) 0.49273(18)
H19_2 H 0.6897 0.3224 0.5376
H20_2 H 0.7051 0.3514 0.4565
N2_2 N 0.8663(3) 0.3076(3) 0.53251(19)
H21_2 H 0.9207 0.2642 0.5454
H22_2 H 0.8727 0.3661 0.4971
H23_2 H 0.8510 0.3507 0.5714
C8_2 C 0.7962(2) 0.2185(4) 0.50727(18)
H24_2 H 0.8103 0.1776 0.4624
H25_2 H 0.7949 0.1486 0.5435
N1_3 N 0.8663(3) 0.6924(3) 0.03251(19)
H16_3 H 0.9207 0.7358 0.0454
H18_3 H 0.8510 0.6493 0.0714
C7_3 C 0.7962(2) 0.7815(4) 0.00727(18)
H20_3 H 0.7949 0.8514 0.0435
H22_3 H 0.6273 0.8661 0.0029
H24_3 H 0.6897 0.6776 0.0376
H17_3 H 0.8727 0.6339 0.9971
H19_3 H 0.8103 0.8224 0.9624
N2_3 N 0.6337(3) 0.8076(3) 0.96749(19)
H21_3 H 0.5793 0.7642 0.9546
H23_3 H 0.6490 0.8507 0.9286
C8_3 C 0.7038(2) 0.7185(4) 0.99273(18)
H25_3 H 0.7051 0.6486 0.9565
N1_4 N 0.3663(3) 0.1924(3) 0.03251(19)
H16_4 H 0.4207 0.2358 0.0454
H18_4 H 0.3510 0.1493 0.0714
C7_4 C 0.2962(2) 0.2815(4) 0.00727(18)
H20_4 H 0.2949 0.3514 0.0435
H22_4 H 0.1273 0.3661 0.0029
H24_4 H 0.1897 0.1776 0.0376
H17_4 H 0.3727 0.1339 0.9971
H19_4 H 0.3103 0.3224 0.9624
N2_4 N 0.1337(3) 0.3076(3) 0.96749(19)
H21_4 H 0.0793 0.2642 0.9546
H23_4 H 0.1490 0.3507 0.9286
C8_4 C 0.2038(2) 0.2185(4) 0.99273(18)
H25_4 H 0.2051 0.1486 0.9565
loop_
_geom_bond_atom_site_label_1
_geom_bond_atom_site_label_2
_geom_bond_site_symmetry_1
_geom_bond_site_symmetry_2
V4 O14 1_555 1_555
V8 O9 1_555 1_555
O14 V6 1_555 1_555
O20 V6 1_555 1_555
O23 V6 1_555 1_555
O26 V6 1_555 1_555
H15 O14 1_555 1_555
V1 O1 1_555 1_555
V2 O4 1_555 1_555
P1 O5 1_555 1_555
P2 O1 1_555 1_555
O3 V1 1_555 1_555
O4 V1 1_555 1_555
O6 P1 1_555 1_555
O7 V2 1_555 1_555
O8 P1 1_555 1_555
C1 P1 1_555 1_555
H1 C1 1_555 1_555
H2 C1 1_555 1_555
C2 P2 1_555 1_555
H3 C2 1_555 1_555
H4 C2 1_555 1_555
C3 C1 1_555 1_555
H5 C3 1_555 1_555
H6 C3 1_555 1_555
H7 O4 1_555 1_555
V7 O8 1_555 1_555
O11 V1 1_555 1_555
O16 V1 1_555 1_555
O19 V2 1_555 1_555
O22 V2 1_555 1_555
O25 V2 1_555 1_555
C2 C3 1_555 1_555
V3 O2 1_555 1_555
V11 O24 1_555 1_555
P4 O10 1_555 1_555
O10 V3 1_555 1_555
O12 V3 1_555 1_555
O13 V3 1_555 1_555
O24 P4 1_555 1_555
C5 P4 1_555 1_555
H10 C5 1_555 1_555
H11 C5 1_555 1_555
H12 C6 1_555 1_555
H13 C6 1_555 1_555
H14 O13 1_555 1_555
C5 C6 1_555 1_555
O13 H26 1_555 1_555
V5 O15 1_555 1_555
V9 O18 1_555 1_555
V10 O21 1_555 1_555
P3 O15 1_555 1_555
O18 P3 1_555 1_555
O21 P3 1_555 1_555
C4 P3 1_555 1_555
H8 C4 1_555 1_555
H9 C4 1_555 1_555
P1_2 O16 1_555 1_555
O19 P1_2 1_555 1_555
O8_2 P1_2 1_555 1_555
C1_2 P1_2 1_555 1_555
H1_2 C1_2 1_555 1_555
H2_2 C1_2 1_555 1_555
V8 O8_2 1_555 1_555
V4 O1_2 1_555 1_555
P2_2 O1_2 1_555 1_555
O3_2 V4 1_555 1_555
O9_2 P2_2 1_555 1_555
C2_2 P2_2 1_555 1_555
H3_2 C2_2 1_555 1_555
H4_2 C2_2 1_555 1_555
H5_2 C3_2 1_555 1_555
H6_2 C3_2 1_555 1_555
V7 O9_2 1_555 1_555
O11_2 V4 1_555 1_555
C2_2 C3_2 1_555 1_555
V5 O2_2 1_555 1_555
V11 O21_2 1_555 1_555
P3_2 O17 1_555 1_555
P4_2 O10_2 1_555 1_555
O10_2 V5 1_555 1_555
O12_2 V5 1_555 1_555
O13_2 V5 1_555 1_555
O18_2 P3_2 1_555 1_555
O21_2 P3_2 1_555 1_555
C4_2 P3_2 1_555 1_555
H8_2 C4_2 1_555 1_555
H9_2 C4_2 1_555 1_555
C5_2 P4_2 1_555 1_555
H10_2 C5_2 1_555 1_555
H11_2 C5_2 1_555 1_555
C6_2 C4_2 1_555 1_555
H12_2 C6_2 1_555 1_555
H13_2 C6_2 1_555 1_555
H14_2 O13_2 1_555 1_555
C5_2 C6_2 1_555 1_555
O13_2 H26_2 1_555 1_555
V10 O24_2 1_555 1_555
V5_2 O15_2 1_555 1_555
V11 O18_3 1_555 1_555
V9_2 O21_3 1_555 1_555
P3_3 O15_2 1_555 1_555
O18_3 P3_3 1_555 1_555
O21_3 P3_3 1_555 1_555
C4_3 P3_3 1_555 1_555
H8_3 C4_3 1_555 1_555
H9_3 C4_3 1_555 1_555
V4_2 O14_2 1_555 1_555
O14_2 V8 1_555 1_555
O20_2 V8 1_555 1_555
H15_2 O14_2 1_555 1_555
V1_2 O1_3 1_555 1_555
V7 O4_2 1_555 1_555
P1_3 O5_2 1_555 1_555
P2_3 O1_3 1_555 1_555
O2_3 P2_3 1_555 1_555
O3_3 V1_2 1_555 1_555
O4_2 V1_2 1_555 1_555
O6_2 P1_3 1_555 1_555
O7_2 V7 1_555 1_555
O22 P1_3 1_555 1_555
C1_3 P1_3 1_555 1_555
H1_3 C1_3 1_555 1_555
H2_3 C1_3 1_555 1_555
C2_3 P2_3 1_555 1_555
H3_3 C2_3 1_555 1_555
H4_3 C2_3 1_555 1_555
C3_3 C1_3 1_555 1_555
H5_3 C3_3 1_555 1_555
H6_3 C3_3 1_555 1_555
H7_2 O4_2 1_555 1_555
V3_2 O2_3 1_555 1_555
V9 O24_3 1_555 1_555
P4_3 O10_3 1_555 1_555
O10_3 V3_2 1_555 1_555
O11_3 V1_2 1_555 1_555
O12_3 V3_2 1_555 1_555
O13_3 V3_2 1_555 1_555
O16_2 V1_2 1_555 1_555
O19_2 V7 1_555 1_555
O24_3 P4_3 1_555 1_555
C5_3 P4_3 1_555 1_555
H10_3 C5_3 1_555 1_555
H11_3 C5_3 1_555 1_555
H12_3 C6_3 1_555 1_555
H13_3 C6_3 1_555 1_555
H14_3 O13_3 1_555 1_555
C2_3 C3_3 1_555 1_555
P4_3 O11_3 1_555 1_555
C5_3 C6_3 1_555 1_555
O13_3 H26_3 1_555 1_555
V4_2 O1_4 1_555 1_555
P2_4 O1_4 1_555 1_555
O2_4 P2_4 1_555 1_555
O3_4 V4_2 1_555 1_555
O25 P2_4 1_555 1_555
C2_4 P2_4 1_555 1_555
H3_4 C2_4 1_555 1_555
H4_4 C2_4 1_555 1_555
H5_4 C3_4 1_555 1_555
H6_4 C3_4 1_555 1_555
V5_2 O2_4 1_555 1_555
V9 O21_4 1_555 1_555
P3_4 O17_2 1_555 1_555
P4_4 O10_4 1_555 1_555
O10_4 V5_2 1_555 1_555
O11_4 V4_2 1_555 1_555
O12_4 V5_2 1_555 1_555
O13_4 V5_2 1_555 1_555
O18_4 P3_4 1_555 1_555
O21_4 P3_4 1_555 1_555
C4_4 P3_4 1_555 1_555
H8_4 C4_4 1_555 1_555
H9_4 C4_4 1_555 1_555
C5_4 P4_4 1_555 1_555
H10_4 C5_4 1_555 1_555
H11_4 C5_4 1_555 1_555
C6_4 C4_4 1_555 1_555
H12_4 C6_4 1_555 1_555
H13_4 C6_4 1_555 1_555
H14_4 O13_4 1_555 1_555
C2_4 C3_4 1_555 1_555
P4_4 O11_4 1_555 1_555
C5_4 C6_4 1_555 1_555
O13_4 H26_4 1_555 1_555
V9_2 O24_4 1_555 1_555
P1_4 O16_2 1_555 1_555
O19_2 P1_4 1_555 1_555
O23 P1_4 1_555 1_555
C1_4 P1_4 1_555 1_555
H1_4 C1_4 1_555 1_555
H2_4 C1_4 1_555 1_555
O14 H26_5 1_555 1_555
V9 O13_2 1_555 1_555
O7_3 V9 1_555 1_555
O13 V9_2 1_555 1_555
O20_3 V9_2 1_555 1_555
O4 H26_6 1_555 1_555
V11 O13_4 1_555 1_555
O7_4 V11 1_555 1_555
O14_2 H26_7 1_555 1_555
O13_3 V10 1_555 1_555
O20_4 V10 1_555 1_555
O4_2 H26_8 1_555 1_555
N1 H16 1_555 1_555
H17 N1 1_555 1_555
H18 N1 1_555 1_555
C7 N1 1_555 1_555
H19 C7 1_555 1_555
H20 C7 1_555 1_555
N2 H21 1_555 1_555
H22 N2 1_555 1_555
H23 N2 1_555 1_555
C8 C7 1_555 1_555
H24 C8 1_555 1_555
H25 C8 1_555 1_555
N2 C8 1_555 1_555
N1_2 H16_2 1_555 1_555
H17_2 N1_2 1_555 1_555
H18_2 N1_2 1_555 1_555
C7_2 N1_2 1_555 1_555
H19_2 C7_2 1_555 1_555
H20_2 C7_2 1_555 1_555
N2_2 H21_2 1_555 1_555
H22_2 N2_2 1_555 1_555
H23_2 N2_2 1_555 1_555
C8_2 C7_2 1_555 1_555
H24_2 C8_2 1_555 1_555
H25_2 C8_2 1_555 1_555
N2_2 C8_2 1_555 1_555
N1_3 H16_3 1_555 1_555
H18_3 N1_3 1_555 1_555
C7_3 N1_3 1_555 1_555
H20_3 C7_3 1_555 1_555
N2_3 H21_3 1_555 1_555
H23_3 N2_3 1_555 1_555
H25_3 C8_3 1_555 1_555
N2_3 C8_3 1_555 1_555
N1_4 H16_4 1_555 1_555
H18_4 N1_4 1_555 1_555
C7_4 N1_4 1_555 1_555
H20_4 C7_4 1_555 1_555
N2_4 H21_4 1_555 1_555
H23_4 N2_4 1_555 1_555
H25_4 C8_4 1_555 1_555
N2_4 C8_4 1_555 1_555

#END
