
###############################################################################
#
# This file contains modified crystal structure data generated from the
# MOF subset of the Cambridge Structural Database (CSD) v543 
# hosted by the Cambridge Crystallographic Data Centre (CCDC).
#
# This work is licensed under the Creative Commons
# Attribution-NonCommercial-ShareAlike 4.0 International License.
# To view a copy of this license, visit
# http://creativecommons.org/licenses/by-nc-sa/4.0/
# or send a letter to
# Creative Commons, PO Box 1866, Mountain View, CA 94042, USA.
#
# CIF created using the CSD Python API on 29 September 2022
# The structure has been converted into the P1 space group
# The structure has a 3D framework
# The original CSD entry GECYAS is in the hexagonal crystal system
# The original CSD entry GECYAS is in a Sohncke space group
# The framework has been calculated to contain at least 10.0% void space
# The void calculation uses a probe of radius 1.32A, grid spacing 0.4
# The framework is charged, counterions have been retained in the structure
#
###############################################################################

data_GECYAS
_chemical_formula_moiety         '(C72 H96 Ca2 Cu12 N12 O38 S12 1-)n'
_symmetry_cell_setting           triclinic
_symmetry_space_group_name_H-M   'P 1'
_symmetry_Int_Tables_number      1
_space_group_name_Hall           'P 1'
loop_
_symmetry_equiv_pos_site_id
_symmetry_equiv_pos_as_xyz
1 x,y,z
_cell_length_a                   17.8884(17)
_cell_length_b                   17.8884(17)
_cell_length_c                   12.8853(13)
_cell_angle_alpha                90
_cell_angle_beta                 90
_cell_angle_gamma                120
_cell_volume                     3570.82
loop_
_atom_site_label
_atom_site_type_symbol
_atom_site_fract_x
_atom_site_fract_y
_atom_site_fract_z
N1 N 0.5979(13) 0.0974(19) 0.8559(15)
O2 O 0.4474(12) 0.0185(16) 0.7644(13)
O3 O 0.6738(9) 0.2337(13) 0.7546(13)
O7 O 0.7985(11) 0.2970(16) 0.8478(14)
C1 C 0.6935(13) 0.1484(18) 0.883(2)
H1 H 0.694974 0.16169 0.95873
C2 C 0.7225(16) 0.2305(23) 0.831(2)
C6 C 0.5446(17) 0.0146(15) 0.8995(19)
C7 C 0.7462(13) 0.1068(18) 0.874(3)
H3 H 0.725932 0.059346 0.92476
H4 H 0.806882 0.14949 0.89033
C8 C 0.742(5) 0.070(6) 0.764(4)
H5 H 0.683569 0.019586 0.75660
H6 H 0.782205 0.046625 0.76535
C9 C 0.647(2) 0.051(4) 0.633(5)
H7 H 0.624141 0.058954 0.56720
H9 H 0.617914 0.061044 0.69096
H14 H 0.309077 0.040484 0.67137
S2 S 0.765(3) 0.130(5) 0.640(5)
Cu10 Cu 0.55565(16) 0.13665(23) 0.75184(17)
Cu12 Cu 0.86335(23) 0.41900(17) 0.75184(17)
Ca4 Ca 0.666667 0.333333 0.6218(8)
Cu1 Cu 0.41900(17) 0.55565(16) 0.25184(17)
Ca1 Ca 0.333333 0.666667 0.1218(8)
O1 O 0.3572(5) 0.5339(5) 0.1215(15)
Cu3 Cu 0.44435(16) 0.86335(23) 0.25184(17)
O8 O 0.4661(5) 0.8233(7) 0.1215(15)
Cu5 Cu 0.13665(23) 0.58100(17) 0.25184(17)
O15 O 0.1767(7) 0.6428(5) 0.1215(15)
N7 N 0.4021(13) 0.9026(19) 0.3559(15)
N8 N 0.0974(19) 0.4995(23) 0.3559(15)
N9 N 0.5005(23) 0.5979(13) 0.3559(15)
O22 O 0.5526(12) 0.9815(16) 0.2644(13)
O23 O 0.0185(16) 0.5711(20) 0.2644(13)
O24 O 0.4289(20) 0.4474(12) 0.2644(13)
O25 O 0.3262(9) 0.7663(13) 0.2546(13)
O26 O 0.2337(13) 0.5599(16) 0.2546(13)
O27 O 0.4401(16) 0.6738(9) 0.2546(13)
O28 O 0.2015(11) 0.7030(16) 0.3478(14)
O29 O 0.2970(16) 0.4985(19) 0.3478(14)
O30 O 0.5015(19) 0.7985(11) 0.3478(14)
Cu2 Cu 0.44740(16) 0.86306(17) 0.99087(17)
N2 N 0.4024(15) 0.9063(15) 0.8770(17)
O4 O 0.5552(9) 0.9785(8) 0.9706(12)
O5 O 0.3232(9) 0.7597(9) 0.9875(14)
O6 O 0.1977(12) 0.7149(11) 0.9082(14)
C3 C 0.2761(15) 0.7659(17) 0.9231(18)
C4 C 0.3184(15) 0.8459(15) 0.8391(17)
H2 H 0.284837 0.876078 0.85141
C5 C 0.4562(17) 0.9731(15) 0.8426(19)
H8 H 0.638002 0.992603 0.63647
C10 C 0.306(2) 0.826(2) 0.7294(19)
H10 H 0.306559 0.771467 0.72000
H11 H 0.357954 0.871555 0.69380
C11 C 0.224(4) 0.816(4) 0.666(4)
H12 H 0.173366 0.757388 0.67538
H13 H 0.237010 0.825679 0.59071
C12 C 0.302(4) 0.983(4) 0.657(5)
H15 H 0.350988 0.980204 0.68431
H16 H 0.298097 0.974049 0.58141
S1 S 0.200(4) 0.899(4) 0.719(5)
Cu4 Cu 0.13694(17) 0.58434(23) 0.99087(17)
N4 N 0.0937(15) 0.4961(21) 0.8770(17)
O11 O 0.0215(8) 0.5767(12) 0.9706(12)
O12 O 0.2403(9) 0.5635(13) 0.9875(14)
O13 O 0.2851(11) 0.4828(16) 0.9082(14)
C15 C 0.2341(17) 0.5102(23) 0.9231(18)
C16 C 0.1541(15) 0.4725(21) 0.8391(17)
H18 H 0.123922 0.408759 0.85141
C17 C 0.0269(15) 0.4831(23) 0.8426(19)
H24 H 0.007397 0.645399 0.63647
C22 C 0.174(2) 0.480(3) 0.7294(19)
H26 H 0.228533 0.535092 0.72000
H27 H 0.128445 0.486399 0.69380
C23 C 0.184(4) 0.408(6) 0.666(4)
H28 H 0.242612 0.415978 0.67538
H29 H 0.174321 0.411331 0.59071
C24 C 0.017(4) 0.319(6) 0.657(5)
H31 H 0.019796 0.370784 0.68431
H32 H 0.025951 0.324048 0.58141
S3 S 0.101(4) 0.301(6) 0.719(5)
Cu6 Cu 0.41566(23) 0.55260(16) 0.99087(17)
N5 N 0.4995(23) 0.4021(13) 0.8559(15)
N6 N 0.5039(21) 0.5976(15) 0.8770(17)
O16 O 0.5711(20) 0.5526(12) 0.7644(13)
O17 O 0.5599(16) 0.3262(9) 0.7546(13)
O18 O 0.4233(12) 0.4448(9) 0.9706(12)
O19 O 0.4365(13) 0.6768(9) 0.9875(14)
O20 O 0.5172(16) 0.8023(12) 0.9082(14)
O21 O 0.4985(19) 0.2015(11) 0.8478(14)
C25 C 0.4549(22) 0.3065(13) 0.883(2)
H33 H 0.466716 0.305026 0.95873
C26 C 0.5080(28) 0.2775(16) 0.831(2)
C27 C 0.4898(23) 0.7239(15) 0.9231(18)
C28 C 0.5275(21) 0.6816(15) 0.8391(17)
H34 H 0.591241 0.715163 0.85141
C29 C 0.5169(23) 0.5438(17) 0.8426(19)
C30 C 0.4700(23) 0.4554(17) 0.8995(19)
C31 C 0.3606(22) 0.2538(13) 0.874(3)
H35 H 0.333414 0.274068 0.92476
H36 H 0.342608 0.193118 0.89033
C32 C 0.328(8) 0.258(5) 0.764(4)
H37 H 0.336017 0.316431 0.75660
H38 H 0.264420 0.217795 0.76535
C33 C 0.404(4) 0.353(2) 0.633(5)
H39 H 0.434813 0.375859 0.56720
H40 H 0.354601 0.361998 0.63647
H41 H 0.443130 0.382086 0.69096
C34 C 0.520(3) 0.694(2) 0.7294(19)
H42 H 0.464908 0.693441 0.72000
H43 H 0.513601 0.642046 0.69380
C35 C 0.592(6) 0.776(4) 0.666(4)
H44 H 0.584022 0.826634 0.67538
H45 H 0.588669 0.762990 0.59071
C36 C 0.681(6) 0.698(4) 0.657(5)
H46 H 0.731407 0.690923 0.67137
H47 H 0.629216 0.649012 0.68431
H48 H 0.675952 0.701903 0.58141
S5 S 0.699(6) 0.800(4) 0.719(5)
S6 S 0.365(6) 0.235(3) 0.640(5)
Cu8 Cu 0.58100(17) 0.44435(16) 0.75184(17)
N3 N 0.9026(19) 0.5005(23) 0.8559(15)
O9 O 0.9815(16) 0.4289(20) 0.7644(13)
O10 O 0.7663(13) 0.4401(16) 0.7546(13)
O14 O 0.7030(16) 0.5015(19) 0.8478(14)
C13 C 0.8516(18) 0.5451(22) 0.883(2)
H17 H 0.83831 0.533284 0.95873
C14 C 0.7695(23) 0.4920(28) 0.831(2)
C18 C 0.9854(15) 0.5300(23) 0.8995(19)
C19 C 0.8932(18) 0.6394(22) 0.874(3)
H19 H 0.940654 0.666586 0.92476
H20 H 0.85051 0.657392 0.89033
C20 C 0.930(6) 0.672(8) 0.764(4)
H21 H 0.980414 0.663983 0.75660
H22 H 0.953375 0.735580 0.76535
C21 C 0.949(4) 0.596(4) 0.633(5)
H23 H 0.941046 0.565187 0.56720
H25 H 0.938956 0.556870 0.69096
H30 H 0.959516 0.268593 0.67137
S4 S 0.870(5) 0.635(6) 0.640(5)
C13_2 C 0.1484(18) 0.4549(22) 0.383(2)
H17_2 H 0.16169 0.466716 0.45873
C14_2 C 0.2305(23) 0.5080(28) 0.331(2)
C18_2 C 0.0146(15) 0.4700(23) 0.3995(19)
C19_2 C 0.1068(18) 0.3606(22) 0.374(3)
H19_2 H 0.059346 0.333414 0.42476
H20_2 H 0.14949 0.342608 0.39033
C20_2 C 0.070(6) 0.328(8) 0.264(4)
H21_2 H 0.019586 0.336017 0.25660
H22_2 H 0.046625 0.264420 0.26535
C21_2 C 0.051(4) 0.404(4) 0.133(5)
H23_2 H 0.058954 0.434813 0.06720
H25_2 H 0.061044 0.443130 0.19096
H30_2 H 0.040484 0.731407 0.17137
S4_2 S 0.130(5) 0.365(6) 0.140(5)
Cu2_2 Cu 0.55260(16) 0.13694(17) 0.49087(17)
N2_2 N 0.5976(15) 0.0937(15) 0.3770(17)
O1_2 O 0.6428(5) 0.4661(5) 0.6215(15)
O4_2 O 0.4448(9) 0.0215(8) 0.4706(12)
O5_2 O 0.6768(9) 0.2403(9) 0.4875(14)
O6_2 O 0.8023(12) 0.2851(11) 0.4082(14)
C3_2 C 0.7239(15) 0.2341(17) 0.4231(18)
C4_2 C 0.6816(15) 0.1541(15) 0.3391(17)
H2_2 H 0.715163 0.123922 0.35141
C5_2 C 0.5438(17) 0.0269(15) 0.3426(19)
H8_2 H 0.361998 0.007397 0.13647
C10_2 C 0.694(2) 0.174(2) 0.2294(19)
H10_2 H 0.693441 0.228533 0.22000
H11_2 H 0.642046 0.128445 0.19380
C11_2 C 0.776(4) 0.184(4) 0.166(4)
H12_2 H 0.826634 0.242612 0.17538
H13_2 H 0.762990 0.174321 0.09071
C12_2 C 0.698(4) 0.017(4) 0.157(5)
H15_2 H 0.649012 0.019796 0.18431
H16_2 H 0.701903 0.025951 0.08141
S1_2 S 0.800(4) 0.101(4) 0.219(5)
Cu4_2 Cu 0.86306(17) 0.41566(23) 0.49087(17)
N4_2 N 0.9063(15) 0.5039(21) 0.3770(17)
O8_2 O 0.5339(5) 0.1767(7) 0.6215(15)
O11_2 O 0.9785(8) 0.4233(12) 0.4706(12)
O12_2 O 0.7597(9) 0.4365(13) 0.4875(14)
O13_2 O 0.7149(11) 0.5172(16) 0.4082(14)
C15_2 C 0.7659(17) 0.4898(23) 0.4231(18)
C16_2 C 0.8459(15) 0.5275(21) 0.3391(17)
H18_2 H 0.876078 0.591241 0.35141
C17_2 C 0.9731(15) 0.5169(23) 0.3426(19)
H24_2 H 0.992603 0.354601 0.13647
C22_2 C 0.826(2) 0.520(3) 0.2294(19)
H26_2 H 0.771467 0.464908 0.22000
H27_2 H 0.871555 0.513601 0.19380
C23_2 C 0.816(4) 0.592(6) 0.166(4)
H28_2 H 0.757388 0.584022 0.17538
H29_2 H 0.825679 0.588669 0.09071
C24_2 C 0.983(4) 0.681(6) 0.157(5)
H31_2 H 0.980204 0.629216 0.18431
H32_2 H 0.974049 0.675952 0.08141
S3_2 S 0.899(4) 0.699(6) 0.219(5)
Cu6_2 Cu 0.58434(23) 0.44740(16) 0.49087(17)
N6_2 N 0.4961(21) 0.4024(15) 0.3770(17)
O15_2 O 0.8233(7) 0.3572(5) 0.6215(15)
O18_2 O 0.5767(12) 0.5552(9) 0.4706(12)
O19_2 O 0.5635(13) 0.3232(9) 0.4875(14)
O20_2 O 0.4828(16) 0.1977(12) 0.4082(14)
C25_2 C 0.5451(22) 0.6935(13) 0.383(2)
H33_2 H 0.533284 0.694974 0.45873
C26_2 C 0.4920(28) 0.7225(16) 0.331(2)
C27_2 C 0.5102(23) 0.2761(15) 0.4231(18)
C28_2 C 0.4725(21) 0.3184(15) 0.3391(17)
H34_2 H 0.408759 0.284837 0.35141
C29_2 C 0.4831(23) 0.4562(17) 0.3426(19)
C30_2 C 0.5300(23) 0.5446(17) 0.3995(19)
C31_2 C 0.6394(22) 0.7462(13) 0.374(3)
H35_2 H 0.666586 0.725932 0.42476
H36_2 H 0.657392 0.806882 0.39033
C32_2 C 0.672(8) 0.742(5) 0.264(4)
H37_2 H 0.663983 0.683569 0.25660
H38_2 H 0.735580 0.782205 0.26535
C33_2 C 0.596(4) 0.647(2) 0.133(5)
H39_2 H 0.565187 0.624141 0.06720
H40_2 H 0.645399 0.638002 0.13647
H41_2 H 0.556870 0.617914 0.19096
C34_2 C 0.480(3) 0.306(2) 0.2294(19)
H42_2 H 0.535092 0.306559 0.22000
H43_2 H 0.486399 0.357954 0.19380
C35_2 C 0.408(6) 0.224(4) 0.166(4)
H44_2 H 0.415978 0.173366 0.17538
H45_2 H 0.411331 0.237010 0.09071
C36_2 C 0.319(6) 0.302(4) 0.157(5)
H46_2 H 0.268593 0.309077 0.17137
H47_2 H 0.370784 0.350988 0.18431
H48_2 H 0.324048 0.298097 0.08141
S5_2 S 0.301(6) 0.200(4) 0.219(5)
S6_2 S 0.635(6) 0.765(3) 0.140(5)
C1_2 C 0.3065(13) 0.8516(18) 0.383(2)
H1_2 H 0.305026 0.83831 0.45873
C2_2 C 0.2775(16) 0.7695(23) 0.331(2)
C6_2 C 0.4554(17) 0.9854(15) 0.3995(19)
C7_2 C 0.2538(13) 0.8932(18) 0.374(3)
H3_2 H 0.274068 0.940654 0.42476
H4_2 H 0.193118 0.85051 0.39033
C8_2 C 0.258(5) 0.930(6) 0.264(4)
H5_2 H 0.316431 0.980414 0.25660
H6_2 H 0.217795 0.953375 0.26535
C9_2 C 0.353(2) 0.949(4) 0.133(5)
H7_2 H 0.375859 0.941046 0.06720
H9_2 H 0.382086 0.938956 0.19096
H14_2 H 0.690923 0.959516 0.17137
S2_2 S 0.235(3) 0.870(5) 0.140(5)
loop_
_geom_bond_atom_site_label_1
_geom_bond_atom_site_label_2
_geom_bond_site_symmetry_1
_geom_bond_site_symmetry_2
N1 C1 1_555 1_555
O3 C2 1_555 1_555
O7 C2 1_555 1_555
C1 H1 1_555 1_555
C2 C1 1_555 1_555
C6 N1 1_555 1_555
C7 C1 1_555 1_555
H3 C7 1_555 1_555
H4 C7 1_555 1_555
C8 C7 1_555 1_555
H5 C8 1_555 1_555
H6 C8 1_555 1_555
C9 H7 1_555 1_555
H9 C9 1_555 1_555
S2 C8 1_555 1_555
Cu10 N1 1_555 1_555
Cu12 O7 1_555 1_555
Ca4 O3 1_555 1_555
O2 Cu10 1_555 1_555
O3 Cu10 1_555 1_555
C9 S2 1_555 1_555
Cu1 O1 1_555 1_555
Ca1 O1 1_555 1_555
Cu3 O8 1_555 1_555
Cu5 O15 1_555 1_555
O15 Ca1 1_555 1_555
N7 Cu3 1_555 1_555
N8 Cu5 1_555 1_555
N9 Cu1 1_555 1_555
O22 Cu3 1_555 1_555
O23 Cu5 1_555 1_555
O24 Cu1 1_555 1_555
O25 Ca1 1_555 1_555
O26 Ca1 1_555 1_555
O27 Cu1 1_555 1_555
O28 Cu5 1_555 1_555
O29 Cu1 1_555 1_555
O30 Cu3 1_555 1_555
Ca1 O8 1_555 1_555
Ca1 O27 1_555 1_555
Cu3 O25 1_555 1_555
Cu5 O26 1_555 1_555
Cu2 N2 1_555 1_555
N2 C4 1_555 1_555
O4 Cu2 1_555 1_555
O5 Cu2 1_555 1_555
O6 C3 1_555 1_555
C3 O5 1_555 1_555
C4 C3 1_555 1_555
H2 C4 1_555 1_555
C5 N2 1_555 1_555
C10 C4 1_555 1_555
H10 C10 1_555 1_555
H11 C10 1_555 1_555
C11 C10 1_555 1_555
H12 C11 1_555 1_555
H13 C11 1_555 1_555
H15 C12 1_555 1_555
H16 C12 1_555 1_555
S1 C11 1_555 1_555
Cu4 O6 1_555 1_555
N4 Cu4 1_555 1_555
O11 Cu4 1_555 1_555
O13 C15 1_555 1_555
C15 O12 1_555 1_555
C16 N4 1_555 1_555
H18 C16 1_555 1_555
C17 N4 1_555 1_555
C22 C16 1_555 1_555
H26 C22 1_555 1_555
H27 C22 1_555 1_555
C23 C22 1_555 1_555
H28 C23 1_555 1_555
H29 C23 1_555 1_555
H31 C24 1_555 1_555
H32 C24 1_555 1_555
S3 C23 1_555 1_555
Cu6 O13 1_555 1_555
N5 C25 1_555 1_555
N6 Cu6 1_555 1_555
O16 C29 1_555 1_555
O17 C26 1_555 1_555
O18 Cu6 1_555 1_555
O20 Cu2 1_555 1_555
O21 C26 1_555 1_555
C25 H33 1_555 1_555
C26 C25 1_555 1_555
C27 O19 1_555 1_555
C28 N6 1_555 1_555
H34 C28 1_555 1_555
C29 N6 1_555 1_555
C30 N5 1_555 1_555
C31 C25 1_555 1_555
H35 C31 1_555 1_555
H36 C31 1_555 1_555
C32 C31 1_555 1_555
H37 C32 1_555 1_555
H38 C32 1_555 1_555
C33 H39 1_555 1_555
H40 C33 1_555 1_555
H41 C33 1_555 1_555
C34 C28 1_555 1_555
H42 C34 1_555 1_555
H43 C34 1_555 1_555
C35 C34 1_555 1_555
H44 C35 1_555 1_555
H45 C35 1_555 1_555
C36 H46 1_555 1_555
H47 C36 1_555 1_555
H48 C36 1_555 1_555
S5 C35 1_555 1_555
S6 C32 1_555 1_555
Cu8 N5 1_555 1_555
Cu10 O21 1_555 1_555
Ca4 O17 1_555 1_555
C12 S1 1_555 1_555
Cu4 O12 1_555 1_555
C15 C16 1_555 1_555
C24 S3 1_555 1_555
Cu6 O19 1_555 1_555
O16 Cu8 1_555 1_555
O17 Cu8 1_555 1_555
O18 C30 1_555 1_555
O20 C27 1_555 1_555
C27 C28 1_555 1_555
C29 C30 1_555 1_555
C33 S6 1_555 1_555
C36 S5 1_555 1_555
N3 C13 1_555 1_555
O10 C14 1_555 1_555
O14 C14 1_555 1_555
C13 H17 1_555 1_555
C14 C13 1_555 1_555
C18 N3 1_555 1_555
C19 C13 1_555 1_555
H19 C19 1_555 1_555
H20 C19 1_555 1_555
C20 C19 1_555 1_555
H21 C20 1_555 1_555
H22 C20 1_555 1_555
C21 H23 1_555 1_555
H25 C21 1_555 1_555
S4 C20 1_555 1_555
Cu8 O14 1_555 1_555
Cu12 N3 1_555 1_555
Ca4 O10 1_555 1_555
O9 Cu12 1_555 1_555
O10 Cu12 1_555 1_555
C21 S4 1_555 1_555
N8 C13_2 1_555 1_555
O26 C14_2 1_555 1_555
O29 C14_2 1_555 1_555
C13_2 H17_2 1_555 1_555
C14_2 C13_2 1_555 1_555
C18_2 N8 1_555 1_555
C19_2 C13_2 1_555 1_555
H19_2 C19_2 1_555 1_555
H20_2 C19_2 1_555 1_555
C20_2 C19_2 1_555 1_555
H21_2 C20_2 1_555 1_555
H22_2 C20_2 1_555 1_555
C21_2 H23_2 1_555 1_555
H25_2 C21_2 1_555 1_555
S4_2 C20_2 1_555 1_555
C21_2 S4_2 1_555 1_555
Cu8 O1_2 1_555 1_555
Cu2_2 N2_2 1_555 1_555
Ca4 O1_2 1_555 1_555
N2_2 C4_2 1_555 1_555
O1_2 Cu6_2 1_555 1_555
O4_2 Cu2_2 1_555 1_555
O5_2 Cu2_2 1_555 1_555
O6_2 C3_2 1_555 1_555
C3_2 O5_2 1_555 1_555
C4_2 C3_2 1_555 1_555
H2_2 C4_2 1_555 1_555
C5_2 N2_2 1_555 1_555
C10_2 C4_2 1_555 1_555
H10_2 C10_2 1_555 1_555
H11_2 C10_2 1_555 1_555
C11_2 C10_2 1_555 1_555
H12_2 C11_2 1_555 1_555
H13_2 C11_2 1_555 1_555
H15_2 C12_2 1_555 1_555
H16_2 C12_2 1_555 1_555
S1_2 C11_2 1_555 1_555
Cu10 O8_2 1_555 1_555
Cu4_2 O6_2 1_555 1_555
N4_2 Cu4_2 1_555 1_555
O8_2 Cu2_2 1_555 1_555
O11_2 Cu4_2 1_555 1_555
O12_2 Ca4 1_555 1_555
O13_2 C15_2 1_555 1_555
C15_2 O12_2 1_555 1_555
C16_2 N4_2 1_555 1_555
H18_2 C16_2 1_555 1_555
C17_2 N4_2 1_555 1_555
C22_2 C16_2 1_555 1_555
H26_2 C22_2 1_555 1_555
H27_2 C22_2 1_555 1_555
C23_2 C22_2 1_555 1_555
H28_2 C23_2 1_555 1_555
H29_2 C23_2 1_555 1_555
H31_2 C24_2 1_555 1_555
H32_2 C24_2 1_555 1_555
S3_2 C23_2 1_555 1_555
Cu12 O15_2 1_555 1_555
Cu6_2 O13_2 1_555 1_555
N9 C25_2 1_555 1_555
N6_2 Cu6_2 1_555 1_555
O15_2 Ca4 1_555 1_555
O24 C29_2 1_555 1_555
O27 C26_2 1_555 1_555
O18_2 Cu6_2 1_555 1_555
O19_2 Ca4 1_555 1_555
O20_2 Cu2_2 1_555 1_555
O30 C26_2 1_555 1_555
C25_2 H33_2 1_555 1_555
C26_2 C25_2 1_555 1_555
C27_2 O19_2 1_555 1_555
C28_2 N6_2 1_555 1_555
H34_2 C28_2 1_555 1_555
C29_2 N6_2 1_555 1_555
C30_2 N9 1_555 1_555
C31_2 C25_2 1_555 1_555
H35_2 C31_2 1_555 1_555
H36_2 C31_2 1_555 1_555
C32_2 C31_2 1_555 1_555
H37_2 C32_2 1_555 1_555
H38_2 C32_2 1_555 1_555
C33_2 H39_2 1_555 1_555
H40_2 C33_2 1_555 1_555
H41_2 C33_2 1_555 1_555
C34_2 C28_2 1_555 1_555
H42_2 C34_2 1_555 1_555
H43_2 C34_2 1_555 1_555
C35_2 C34_2 1_555 1_555
H44_2 C35_2 1_555 1_555
H45_2 C35_2 1_555 1_555
C36_2 H46_2 1_555 1_555
H47_2 C36_2 1_555 1_555
H48_2 C36_2 1_555 1_555
S5_2 C35_2 1_555 1_555
S6_2 C32_2 1_555 1_555
Ca4 O5_2 1_555 1_555
Ca4 O8_2 1_555 1_555
C12_2 S1_2 1_555 1_555
Cu4_2 O12_2 1_555 1_555
Cu4_2 O15_2 1_555 1_555
C15_2 C16_2 1_555 1_555
C24_2 S3_2 1_555 1_555
Cu6_2 O19_2 1_555 1_555
O18_2 C30_2 1_555 1_555
O20_2 C27_2 1_555 1_555
C27_2 C28_2 1_555 1_555
C29_2 C30_2 1_555 1_555
C33_2 S6_2 1_555 1_555
C36_2 S5_2 1_555 1_555
N7 C1_2 1_555 1_555
O25 C2_2 1_555 1_555
O28 C2_2 1_555 1_555
C1_2 H1_2 1_555 1_555
C2_2 C1_2 1_555 1_555
C6_2 N7 1_555 1_555
C7_2 C1_2 1_555 1_555
H3_2 C7_2 1_555 1_555
H4_2 C7_2 1_555 1_555
C8_2 C7_2 1_555 1_555
H5_2 C8_2 1_555 1_555
H6_2 C8_2 1_555 1_555
C9_2 H7_2 1_555 1_555
H9_2 C9_2 1_555 1_555
S2_2 C8_2 1_555 1_555
C9_2 S2_2 1_555 1_555

#END
