
###############################################################################
#
# This file contains modified crystal structure data generated from the
# MOF subset of the Cambridge Structural Database (CSD) v543 
# hosted by the Cambridge Crystallographic Data Centre (CCDC).
#
# This work is licensed under the Creative Commons
# Attribution-NonCommercial-ShareAlike 4.0 International License.
# To view a copy of this license, visit
# http://creativecommons.org/licenses/by-nc-sa/4.0/
# or send a letter to
# Creative Commons, PO Box 1866, Mountain View, CA 94042, USA.
#
# CIF created using the CSD Python API on 29 September 2022
# The structure has been converted into the P1 space group
# The structure has a 3D framework
# The original CSD entry GEDSUF is in the triclinic crystal system
# The framework has been calculated to contain at least 10.0% void space
# The void calculation uses a probe of radius 1.32A, grid spacing 0.4
# H atom positions have been added when not included in the experimental data
#
###############################################################################

data_GEDSUF
_chemical_formula_moiety         '(C84 H60 N8 Nd4 O22)n'
_symmetry_cell_setting           triclinic
_symmetry_space_group_name_H-M   'P 1'
_symmetry_Int_Tables_number      1
_space_group_name_Hall           'P 1'
loop_
_symmetry_equiv_pos_site_id
_symmetry_equiv_pos_as_xyz
1 x,y,z
_cell_length_a                   13.6824(13)
_cell_length_b                   15.0012(18)
_cell_length_c                   15.6490(14)
_cell_angle_alpha                95.751(9)
_cell_angle_beta                 113.163(9)
_cell_angle_gamma                90.493(9)
_cell_volume                     2934.16
loop_
_atom_site_label
_atom_site_type_symbol
_atom_site_fract_x
_atom_site_fract_y
_atom_site_fract_z
Nd7 Nd 0.11033(3) 0.03149(2) 0.13106(2)
O9 O 0.0283(4) 0.0137(3) 0.2506(3)
O14 O 0.1309(4) 0.1773(4) 0.2254(4)
N4 N 0.3165(5) 0.0884(4) 0.1877(4)
C38 C 0.3942(6) 0.0309(5) 0.2141(5)
C39 C 0.5008(6) 0.0583(6) 0.2392(6)
H21 H 0.5537 0.0171 0.2561
C40 C 0.5262(6) 0.1474(6) 0.2386(6)
H22 H 0.5967 0.1675 0.2565
C41 C 0.4472(6) 0.2048(6) 0.2114(6)
H23 H 0.4629 0.2648 0.2092
C42 C 0.3441(6) 0.1750(5) 0.1872(5)
H24 H 0.2909 0.2158 0.1696
O18 O 0.1173(4) 0.1425(3) 0.0292(3)
H27 H 0.164325 0.169112 0.292867
H28 H 0.176772 0.219329 0.210356
O8 O 0.3932(5) 0.6282(4) 0.0366(3)
O11 O 0.2132(4) 0.9134(3) 0.0831(3)
H13 H 0.2776 0.7638 0.0343
Nd5 Nd 0.50699(3) 0.52027(2) 0.13396(2)
O16 O 0.6110(4) 0.5613(4) 0.0525(4)
Nd1 Nd 0.49301(3) 0.47973(2) 0.86604(2)
O1 O 0.4436(4) 0.5560(3) 0.7220(3)
O2 O 0.3063(4) 0.4935(3) 0.7390(3)
O5 O 0.0228(4) 0.8859(3) 0.1077(3)
O7 O 0.4221(4) 0.6144(3) 0.9054(3)
O10 O 0.1965(4) 0.9816(3) 0.2892(3)
O12 O 0.0751(3) 0.9475(3) 0.9611(3)
O13 O 0.4403(7) 0.3318(4) 0.7733(4)
N2 N 0.2035(5) 0.8272(4) 0.6995(4)
N3 N 0.6412(8) 0.4440(8) 0.7978(5)
C1 C 0.3428(6) 0.5410(5) 0.6962(5)
C2 C 0.2690(6) 0.5831(5) 0.6136(5)
C3 C 0.1597(6) 0.5709(5) 0.5829(5)
H1 H 0.1310 0.5390 0.6162
C4 C 0.0928(6) 0.6058(5) 0.5032(5)
H2 H 0.0196 0.5963 0.4833
C5 C 0.1325(5) 0.6545(5) 0.4522(5)
C6 C 0.2421(6) 0.6694(6) 0.4846(6)
H3 H 0.2707 0.7034 0.4526
C7 C 0.3088(7) 0.6341(6) 0.5641(6)
H4 H 0.3820 0.6447 0.5850
C8 C 0.0653(6) 0.6877(5) 0.3634(6)
H7 H 0.0138 0.7910 0.2249
C17 C 0.1108(6) 0.9821(5) 0.3033(5)
C18 C 0.1116(6) 0.9427(5) 0.3882(5)
C19 C 0.2066(6) 0.9263(6) 0.4600(6)
H8 H 0.2704 0.9367 0.4537
C20 C 0.2086(6) 0.8949(6) 0.5407(6)
H9 H 0.2733 0.8849 0.5882
C21 C 0.1139(6) 0.8783(5) 0.5507(5)
C22 C 0.0186(6) 0.8927(5) 0.4786(5)
C23 C 0.0182(6) 0.9255(5) 0.3987(5)
C24 C 0.1178(6) 0.8489(5) 0.6388(5)
C25 C 0.2134(5) 0.8065(5) 0.7892(5)
C26 C 0.2825(5) 0.7411(5) 0.8280(5)
H12 H 0.3139 0.7088 0.7926
C27 C 0.3058(5) 0.7229(4) 0.9190(5)
C28 C 0.2615(5) 0.7742(5) 0.9727(5)
C29 C 0.1932(5) 0.8412(4) 0.9344(5)
C30 C 0.1664(5) 0.8549(4) 0.8412(5)
H14 H 0.1168 0.8966 0.8141
C31 C 0.3790(6) 0.6495(5) 0.9573(5)
C32 C 0.1574(5) 0.9029(4) 0.9966(5)
C33 C 0.7032(12) 0.3804(14) 0.8123(8)
H15 H 0.6846 0.3359 0.8413
C34 C 0.7911(13) 0.362(2) 0.7949(14)
H16 H 0.8258 0.3087 0.8010
C35 C 0.8200(15) 0.4429(17) 0.7648(13)
H17 H 0.8844 0.4418 0.7578
C36 C 0.7686(13) 0.5195(13) 0.7453(11)
H18 H 0.7894 0.5681 0.7227
C37 C 0.6774(9) 0.5118(10) 0.7658(8)
H19 H 0.6357 0.5615 0.7557
H20 H 0.3769 0.9712 0.2159
H25 H 0.111(6) 0.732(6) 0.343(6)
H26 H 0.060(7) 0.839(6) 0.653(6)
O15 O 0.6428(4) 0.5937(4) 0.9308(3)
O17 O 0.3890(4) 0.4387(4) 0.9475(4)
O19 O 0.6068(5) 0.3718(4) 0.9634(3)
H29 H 0.483583 0.321089 0.735444
H30 H 0.452304 0.28451 0.815936
O22 O 0.9249(3) 0.0525(3) 0.0389(3)
N1 N 0.9677(5) 0.6678(4) 0.3197(4)
C9 C 0.9117(6) 0.6932(5) 0.2275(5)
C10 C 0.8158(5) 0.6471(5) 0.1753(5)
H5 H 0.7868 0.6076 0.2024
C11 C 0.7621(5) 0.6603(5) 0.0806(5)
C12 C 0.8023(5) 0.7223(5) 0.0413(5)
C13 C 0.8960(5) 0.7730(4) 0.0959(5)
C14 C 0.9508(5) 0.7579(4) 0.1885(5)
C15 C 0.6659(5) 0.6030(5) 0.0180(5)
C16 C 0.9374(5) 0.8443(5) 0.0557(5)
H10 H 0.9545 0.8803 0.4838
H11 H 0.9537 0.9360 0.3513
Nd8 Nd 0.88967(3) 0.96851(2) 0.86894(2)
O6 O 0.8827(4) 0.8575(3) 0.9708(3)
H6 H 0.7668 0.7302 0.9785
O3 O 0.3572(4) 0.4063(4) 0.0692(3)
H6_2 H 0.2332 0.2698 0.0215
N1_2 N 0.0323(5) 0.3322(4) 0.6803(4)
C9_2 C 0.0883(6) 0.3068(5) 0.7725(5)
C10_2 C 0.1842(5) 0.3529(5) 0.8247(5)
H5_2 H 0.2132 0.3924 0.7976
C11_2 C 0.2379(5) 0.3397(5) 0.9194(5)
C12_2 C 0.1977(5) 0.2777(5) 0.9587(5)
C13_2 C 0.1040(5) 0.2270(4) 0.9041(5)
C14_2 C 0.0492(5) 0.2421(4) 0.8115(5)
C15_2 C 0.3341(5) 0.3970(5) 0.9820(5)
C16_2 C 0.0626(5) 0.1557(5) 0.9443(5)
H10_2 H 0.0455 0.1197 0.5162
H11_2 H 0.0463 0.0640 0.6487
O1_2 O 0.5564(4) 0.4440(3) 0.2780(3)
O2_2 O 0.6937(4) 0.5065(3) 0.2610(3)
O5_2 O 0.9772(4) 0.1141(3) 0.8923(3)
O7_2 O 0.5779(4) 0.3856(3) 0.0946(3)
O10_2 O 0.8035(4) 0.0184(3) 0.7108(3)
O13_2 O 0.5597(7) 0.6682(4) 0.2267(4)
N2_2 N 0.7965(5) 0.1728(4) 0.3005(4)
N3_2 N 0.3588(8) 0.5560(8) 0.2022(5)
C1_2 C 0.6572(6) 0.4590(5) 0.3038(5)
C2_2 C 0.7310(6) 0.4169(5) 0.3864(5)
C3_2 C 0.8403(6) 0.4291(5) 0.4171(5)
H1_2 H 0.8690 0.4610 0.3838
C4_2 C 0.9072(6) 0.3942(5) 0.4968(5)
H2_2 H 0.9804 0.4037 0.5167
C5_2 C 0.8675(5) 0.3455(5) 0.5478(5)
C6_2 C 0.7579(6) 0.3306(6) 0.5154(6)
H3_2 H 0.7293 0.2966 0.5474
C7_2 C 0.6912(7) 0.3659(6) 0.4359(6)
H4_2 H 0.6180 0.3553 0.4150
C8_2 C 0.9347(6) 0.3123(5) 0.6366(6)
H7_2 H 0.9862 0.2090 0.7751
C17_2 C 0.8892(6) 0.0179(5) 0.6967(5)
C18_2 C 0.8884(6) 0.0573(5) 0.6118(5)
C19_2 C 0.7934(6) 0.0737(6) 0.5400(6)
H8_2 H 0.7296 0.0633 0.5463
C20_2 C 0.7914(6) 0.1051(6) 0.4593(6)
H9_2 H 0.7267 0.1151 0.4118
C21_2 C 0.8861(6) 0.1217(5) 0.4493(5)
C22_2 C 0.9814(6) 0.1073(5) 0.5214(5)
C23_2 C 0.9818(6) 0.0745(5) 0.6013(5)
C24_2 C 0.8822(6) 0.1511(5) 0.3612(5)
C25_2 C 0.7866(5) 0.1935(5) 0.2108(5)
C26_2 C 0.7175(5) 0.2589(5) 0.1720(5)
H12_2 H 0.6861 0.2912 0.2074
C27_2 C 0.6942(5) 0.2771(4) 0.0810(5)
C28_2 C 0.7385(5) 0.2258(5) 0.0273(5)
C29_2 C 0.8068(5) 0.1588(4) 0.0656(5)
C30_2 C 0.8336(5) 0.1451(4) 0.1588(5)
H14_2 H 0.8832 0.1034 0.1859
C31_2 C 0.6210(6) 0.3505(5) 0.0427(5)
C32_2 C 0.8426(5) 0.0971(4) 0.0034(5)
C33_2 C 0.2968(12) 0.6196(14) 0.1877(8)
H15_2 H 0.3154 0.6641 0.1587
C34_2 C 0.2089(13) 0.638(2) 0.2051(14)
H16_2 H 0.1742 0.6913 0.1990
C35_2 C 0.1800(15) 0.5571(17) 0.2352(13)
H17_2 H 0.1156 0.5582 0.2422
C36_2 C 0.2314(13) 0.4805(13) 0.2547(11)
H18_2 H 0.2106 0.4319 0.2773
C37_2 C 0.3226(9) 0.4882(10) 0.2342(8)
H19_2 H 0.3643 0.4385 0.2443
H20_2 H 0.6231 0.0288 0.7841
H25_2 H 0.889(6) 0.268(6) 0.657(6)
H26_2 H 0.940(7) 0.161(6) 0.347(6)
O20 O 0.7868(4) 0.0866(3) 0.9169(3)
H29_2 H 0.516417 0.678911 0.264556
H30_2 H 0.547696 0.71549 0.184064
H13_2 H 0.7224 0.2362 0.9657
O9_2 O 0.9717(4) 0.9863(3) 0.7494(3)
O14_2 O 0.8691(4) 0.8227(4) 0.7746(4)
N4_2 N 0.6835(5) 0.9116(4) 0.8123(4)
C38_2 C 0.6058(6) 0.9691(5) 0.7859(5)
C39_2 C 0.4992(6) 0.9417(6) 0.7608(6)
H21_2 H 0.4463 0.9829 0.7439
C40_2 C 0.4738(6) 0.8526(6) 0.7614(6)
H22_2 H 0.4033 0.8325 0.7435
C41_2 C 0.5528(6) 0.7952(6) 0.7886(6)
H23_2 H 0.5371 0.7352 0.7908
C42_2 C 0.6559(6) 0.8250(5) 0.8128(5)
H24_2 H 0.7091 0.7842 0.8304
H27_2 H 0.835675 0.830888 0.707133
H28_2 H 0.823228 0.780671 0.789644
loop_
_geom_bond_atom_site_label_1
_geom_bond_atom_site_label_2
_geom_bond_site_symmetry_1
_geom_bond_site_symmetry_2
O9 Nd7 1_555 1_555
O14 Nd7 1_555 1_555
N4 Nd7 1_555 1_555
C38 N4 1_555 1_555
C39 C38 1_555 1_555
H21 C39 1_555 1_555
C40 C39 1_555 1_555
H22 C40 1_555 1_555
C41 C40 1_555 1_555
H23 C41 1_555 1_555
C42 N4 1_555 1_555
H24 C42 1_555 1_555
O18 Nd7 1_555 1_555
C41 C42 1_555 1_555
O14 H27 1_555 1_555
O14 H28 1_555 1_555
Nd5 O8 1_555 1_555
Nd5 O16 1_555 1_555
Nd1 O1 1_555 1_555
O1 C1 1_555 1_555
O2 Nd1 1_555 1_555
O7 Nd1 1_555 1_555
O12 C32 1_555 1_555
O13 Nd1 1_555 1_555
N2 C24 1_555 1_555
N3 Nd1 1_555 1_555
C1 O2 1_555 1_555
C2 C1 1_555 1_555
C3 C2 1_555 1_555
H1 C3 1_555 1_555
C4 C3 1_555 1_555
H2 C4 1_555 1_555
C5 C4 1_555 1_555
C6 C5 1_555 1_555
H3 C6 1_555 1_555
C7 C2 1_555 1_555
H4 C7 1_555 1_555
C8 C5 1_555 1_555
C18 C17 1_555 1_555
C19 C18 1_555 1_555
H8 C19 1_555 1_555
C20 C19 1_555 1_555
H9 C20 1_555 1_555
C21 C20 1_555 1_555
C22 C21 1_555 1_555
C23 C18 1_555 1_555
C24 C21 1_555 1_555
C25 N2 1_555 1_555
C26 C25 1_555 1_555
H12 C26 1_555 1_555
C27 C26 1_555 1_555
C28 C27 1_555 1_555
C29 C28 1_555 1_555
C30 C25 1_555 1_555
H14 C30 1_555 1_555
C31 O7 1_555 1_555
C32 C29 1_555 1_555
C33 N3 1_555 1_555
H15 C33 1_555 1_555
C34 C33 1_555 1_555
H16 C34 1_555 1_555
C35 C34 1_555 1_555
H17 C35 1_555 1_555
C36 C35 1_555 1_555
H18 C36 1_555 1_555
C37 N3 1_555 1_555
H19 C37 1_555 1_555
H25 C8 1_555 1_555
H26 C24 1_555 1_555
O15 Nd1 1_555 1_555
O17 Nd1 1_555 1_555
O19 Nd1 1_555 1_555
O10 C17 1_555 1_555
C6 C7 1_555 1_555
C22 C23 1_555 1_555
C27 C31 1_555 1_555
C29 C30 1_555 1_555
C36 C37 1_555 1_555
O13 H29 1_555 1_555
O13 H30 1_555 1_555
O16 C15 1_555 1_555
C9 N1 1_555 1_555
C10 C9 1_555 1_555
H5 C10 1_555 1_555
C11 C10 1_555 1_555
C12 C11 1_555 1_555
C13 C12 1_555 1_555
C14 C9 1_555 1_555
C15 C11 1_555 1_555
C16 C13 1_555 1_555
C13 C14 1_555 1_555
Nd8 O6 1_555 1_555
Nd5 O3 1_555 1_555
O17 C15_2 1_555 1_555
C9_2 N1_2 1_555 1_555
C10_2 C9_2 1_555 1_555
H5_2 C10_2 1_555 1_555
C11_2 C10_2 1_555 1_555
C12_2 C11_2 1_555 1_555
C13_2 C12_2 1_555 1_555
C14_2 C9_2 1_555 1_555
C15_2 C11_2 1_555 1_555
C16_2 C13_2 1_555 1_555
C13_2 C14_2 1_555 1_555
Nd5 O1_2 1_555 1_555
O1_2 C1_2 1_555 1_555
O2_2 Nd5 1_555 1_555
O7_2 Nd5 1_555 1_555
O22 C32_2 1_555 1_555
O13_2 Nd5 1_555 1_555
N2_2 C24_2 1_555 1_555
N3_2 Nd5 1_555 1_555
C1_2 O2_2 1_555 1_555
C2_2 C1_2 1_555 1_555
C3_2 C2_2 1_555 1_555
H1_2 C3_2 1_555 1_555
C4_2 C3_2 1_555 1_555
H2_2 C4_2 1_555 1_555
C5_2 C4_2 1_555 1_555
C6_2 C5_2 1_555 1_555
H3_2 C6_2 1_555 1_555
C7_2 C2_2 1_555 1_555
H4_2 C7_2 1_555 1_555
C8_2 C5_2 1_555 1_555
C18_2 C17_2 1_555 1_555
C19_2 C18_2 1_555 1_555
H8_2 C19_2 1_555 1_555
C20_2 C19_2 1_555 1_555
H9_2 C20_2 1_555 1_555
C21_2 C20_2 1_555 1_555
C22_2 C21_2 1_555 1_555
C23_2 C18_2 1_555 1_555
C24_2 C21_2 1_555 1_555
C25_2 N2_2 1_555 1_555
C26_2 C25_2 1_555 1_555
H12_2 C26_2 1_555 1_555
C27_2 C26_2 1_555 1_555
C28_2 C27_2 1_555 1_555
C29_2 C28_2 1_555 1_555
C30_2 C25_2 1_555 1_555
H14_2 C30_2 1_555 1_555
C31_2 O7_2 1_555 1_555
C32_2 C29_2 1_555 1_555
C33_2 N3_2 1_555 1_555
H15_2 C33_2 1_555 1_555
C34_2 C33_2 1_555 1_555
H16_2 C34_2 1_555 1_555
C35_2 C34_2 1_555 1_555
H17_2 C35_2 1_555 1_555
C36_2 C35_2 1_555 1_555
H18_2 C36_2 1_555 1_555
C37_2 N3_2 1_555 1_555
H19_2 C37_2 1_555 1_555
H25_2 C8_2 1_555 1_555
H26_2 C24_2 1_555 1_555
O10_2 C17_2 1_555 1_555
C6_2 C7_2 1_555 1_555
C22_2 C23_2 1_555 1_555
C27_2 C31_2 1_555 1_555
C29_2 C30_2 1_555 1_555
C36_2 C37_2 1_555 1_555
O13_2 H29_2 1_555 1_555
O13_2 H30_2 1_555 1_555
O9_2 Nd8 1_555 1_555
O14_2 Nd8 1_555 1_555
N4_2 Nd8 1_555 1_555
C38_2 N4_2 1_555 1_555
C39_2 C38_2 1_555 1_555
H21_2 C39_2 1_555 1_555
C40_2 C39_2 1_555 1_555
H22_2 C40_2 1_555 1_555
C41_2 C40_2 1_555 1_555
H23_2 C41_2 1_555 1_555
C42_2 N4_2 1_555 1_555
H24_2 C42_2 1_555 1_555
C41_2 C42_2 1_555 1_555
O14_2 H27_2 1_555 1_555
O14_2 H28_2 1_555 1_555

#END
