
###############################################################################
#
# This file contains modified crystal structure data generated from the
# MOF subset of the Cambridge Structural Database (CSD) v543 
# hosted by the Cambridge Crystallographic Data Centre (CCDC).
#
# This work is licensed under the Creative Commons
# Attribution-NonCommercial-ShareAlike 4.0 International License.
# To view a copy of this license, visit
# http://creativecommons.org/licenses/by-nc-sa/4.0/
# or send a letter to
# Creative Commons, PO Box 1866, Mountain View, CA 94042, USA.
#
# CIF created using the CSD Python API on 29 September 2022
# The structure has been converted into the P1 space group
# The structure has a 3D framework
# The original CSD entry GEDXIA is in the monoclinic crystal system
# The framework has been calculated to contain at least 10.0% void space
# The void calculation uses a probe of radius 1.32A, grid spacing 0.4
#
###############################################################################

data_GEDXIA
_chemical_formula_moiety         '(C48 H32 N6 O20 Zn4)n'
_symmetry_cell_setting           triclinic
_symmetry_space_group_name_H-M   'P 1'
_symmetry_Int_Tables_number      1
_space_group_name_Hall           'P 1'
loop_
_symmetry_equiv_pos_site_id
_symmetry_equiv_pos_as_xyz
1 x,y,z
_cell_length_a                   9.9455(9)
_cell_length_b                   8.1857(7)
_cell_length_c                   16.7618(16)
_cell_angle_alpha                90
_cell_angle_beta                 101.930(3)
_cell_angle_gamma                90
_cell_volume                     1335.12
loop_
_atom_site_label
_atom_site_type_symbol
_atom_site_fract_x
_atom_site_fract_y
_atom_site_fract_z
O1 O 0.39631(19) 0.2673(3) 0.48232(12)
O4 O 0.2590(2) 0.2558(3) 0.36188(12)
N1 N 0.4299(2) 0.1319(3) 0.74292(14)
C1 C 0.2798(3) 0.1303(4) 0.61156(17)
C2 C 0.0286(3) 0.3036(3) 0.42823(17)
H3 H 0.026713 0.339065 0.374052
C3 C 0.3570(3) 0.0025(4) 0.59065(17)
C5 C 0.4987(3) 0.0104(4) 0.71634(17)
C7 C 0.0333(3) 0.1991(4) 0.58588(17)
H6 H 0.034125 0.162387 0.639739
C8 C 0.1547(3) 0.1947(3) 0.55609(17)
C9 C 0.2769(3) 0.2560(4) 0.43887(18)
C10 C 0.3182(3) 0.1871(4) 0.69102(16)
H7 H 0.263249 0.268156 0.709324
C12 C 0.1519(3) 0.2475(4) 0.47606(17)
Zn2 Zn 0.47578(3) 0.31923(4) 0.37206(2)
Zn4 Zn 0.47578(3) 0.18077(4) 0.87206(2)
N2 N 0.4648(2) 0.9394(3) 0.64355(15)
H4 H 0.333122 0.957925 0.537254
H5 H 0.578680 0.971386 0.752466
Zn3 Zn 0.52422(3) 0.68077(4) 0.62794(2)
O2 O 0.66880(19) 0.3471(3) 0.43450(12)
O3 O 0.4476(2) 0.5689(3) 0.38311(13)
H1 H 0.369328 0.617822 0.365751
H2 H 0.487515 0.626058 0.425100
O5 O 0.7752(2) 0.4137(3) 0.33419(13)
C4 C 0.9084(3) 0.3084(3) 0.45851(17)
C6 C 0.7757(3) 0.3629(3) 0.40445(18)
C11 C 0.9120(3) 0.2562(4) 0.53797(18)
H8 H 0.830790 0.259727 0.559445
N3 N 0.4299(2) 0.3681(3) 0.24292(14)
N4 N 0.5352(2) 0.0606(3) 0.35645(15)
Zn1 Zn 0.52422(3) 0.81923(4) 0.12794(2)
O2_2 O 0.33120(19) 0.8471(3) 0.06550(12)
O5_2 O 0.2248(2) 0.9137(3) 0.16581(13)
C4_2 C 0.0916(3) 0.8084(3) 0.04149(17)
C6_2 C 0.2243(3) 0.8629(3) 0.09555(18)
O6 O 0.60369(19) 0.7673(3) 0.01768(12)
O7 O 0.7410(2) 0.7558(3) 0.13812(12)
N3_2 N 0.5701(2) 0.8681(3) 0.25708(14)
N4_2 N 0.4648(2) 0.5606(3) 0.14355(15)
C2_2 C 0.9714(3) 0.8036(3) 0.07177(17)
H3_2 H 0.973287 0.839065 0.125948
C9_2 C 0.7231(3) 0.7560(4) 0.06113(18)
C12_2 C 0.8481(3) 0.7475(4) 0.02394(17)
N1_2 N 0.5701(2) 0.6319(3) 0.75708(14)
N2_2 N 0.5352(2) 0.4394(3) 0.85645(15)
C1_2 C 0.7202(3) 0.6303(4) 0.88844(17)
C3_2 C 0.6430(3) 0.5025(4) 0.90935(17)
H4_2 H 0.666878 0.457925 0.962746
C5_2 C 0.5013(3) 0.5104(4) 0.78366(17)
H5_2 H 0.421320 0.471386 0.747534
C7_2 C 0.9667(3) 0.6991(4) 0.91412(17)
H6_2 H 0.965875 0.662387 0.860261
C8_2 C 0.8453(3) 0.6947(3) 0.94391(17)
C10_2 C 0.6818(3) 0.6871(4) 0.80898(16)
H7_2 H 0.736751 0.768156 0.790676
O2_3 O 0.33120(19) 0.6529(3) 0.56550(12)
O3_2 O 0.5524(2) 0.4311(3) 0.61689(13)
H1_2 H 0.630672 0.382178 0.634249
H2_2 H 0.512485 0.373942 0.574900
O5_3 O 0.2248(2) 0.5863(3) 0.66581(13)
C4_3 C 0.0916(3) 0.6916(3) 0.54149(17)
C6_3 C 0.2243(3) 0.6371(3) 0.59555(18)
C11_2 C 0.0880(3) 0.7438(4) 0.46203(18)
H8_2 H 0.169210 0.740273 0.440555
O6_2 O 0.60369(19) 0.7327(3) 0.51768(12)
O7_2 O 0.7410(2) 0.7442(3) 0.63812(12)
H4_3 H 0.666878 0.042075 0.462746
H5_3 H 0.421320 0.028614 0.247534
C1_3 C 0.7202(3) 0.8697(4) 0.38844(17)
C2_3 C 0.9714(3) 0.6964(3) 0.57177(17)
H3_3 H 0.973287 0.660935 0.625948
C3_3 C 0.6430(3) 0.9975(4) 0.40935(17)
C5_3 C 0.5013(3) 0.9896(4) 0.28366(17)
C7_3 C 0.9667(3) 0.8009(4) 0.41412(17)
H6_3 H 0.965875 0.837613 0.360261
C8_3 C 0.8453(3) 0.8053(3) 0.44391(17)
C9_3 C 0.7231(3) 0.7440(4) 0.56113(18)
C10_3 C 0.6818(3) 0.8129(4) 0.30898(16)
H7_3 H 0.736751 0.731844 0.290676
C12_3 C 0.8481(3) 0.7525(4) 0.52394(17)
C1_4 C 0.2798(3) 0.3697(4) 0.11156(17)
C3_4 C 0.3570(3) 0.4975(4) 0.09065(17)
H4_4 H 0.333122 0.542075 0.037254
C5_4 C 0.4987(3) 0.4896(4) 0.21634(17)
H5_4 H 0.578680 0.528614 0.252466
C7_4 C 0.0333(3) 0.3009(4) 0.08588(17)
H6_4 H 0.034125 0.337613 0.139739
C8_4 C 0.1547(3) 0.3053(3) 0.05609(17)
C10_4 C 0.3182(3) 0.3129(4) 0.19102(16)
H7_4 H 0.263249 0.231844 0.209324
O1_2 O 0.39631(19) 0.2327(3) 0.98232(12)
O4_2 O 0.2590(2) 0.2442(3) 0.86188(12)
C2_4 C 0.0286(3) 0.1964(3) 0.92823(17)
H3_4 H 0.026713 0.160935 0.874052
C9_4 C 0.2769(3) 0.2440(4) 0.93887(18)
C12_4 C 0.1519(3) 0.2525(4) 0.97606(17)
O2_4 O 0.66880(19) 0.1529(3) 0.93450(12)
O5_4 O 0.7752(2) 0.0863(3) 0.83419(13)
C4_4 C 0.9084(3) 0.1916(3) 0.95851(17)
C6_4 C 0.7757(3) 0.1371(3) 0.90445(18)
O3_3 O 0.5524(2) 0.0689(3) 0.11689(13)
H1_3 H 0.630672 0.117822 0.134249
H2_3 H 0.512485 0.126058 0.074900
C11_3 C 0.0880(3) 0.7562(4) 0.96203(18)
H8_3 H 0.169210 0.759727 0.940555
C11_4 C 0.9120(3) 0.2438(4) 0.03797(18)
H8_4 H 0.830790 0.240273 0.059445
O3_4 O 0.4476(2) 0.9311(3) 0.88311(13)
H1_4 H 0.369328 0.882178 0.865751
H2_4 H 0.487515 0.873942 0.925100
loop_
_geom_bond_atom_site_label_1
_geom_bond_atom_site_label_2
_geom_bond_site_symmetry_1
_geom_bond_site_symmetry_2
O1 C9 1_555 1_555
O4 C9 1_555 1_555
N1 C5 1_555 1_555
C1 C3 1_555 1_555
C2 H3 1_555 1_555
C7 H6 1_555 1_555
C8 C1 1_555 1_555
C9 C12 1_555 1_555
C10 N1 1_555 1_555
H7 C10 1_555 1_555
C12 C2 1_555 1_555
Zn2 O1 1_555 1_555
Zn4 N1 1_555 1_555
O4 Zn2 1_555 1_555
C1 C10 1_555 1_555
C7 C8 1_555 1_555
C8 C12 1_555 1_555
Zn3 N2 1_555 1_555
Zn2 O2 1_555 1_555
O2 C6 1_555 1_555
O3 Zn2 1_555 1_555
H1 O3 1_555 1_555
H2 O3 1_555 1_555
O5 C6 1_555 1_555
C6 C4 1_555 1_555
C11 C4 1_555 1_555
H8 C11 1_555 1_555
N3 Zn2 1_555 1_555
N4 Zn2 1_555 1_555
Zn1 O2_2 1_555 1_555
O2_2 C6_2 1_555 1_555
O5_2 C6_2 1_555 1_555
C6_2 C4_2 1_555 1_555
O6 Zn1 1_555 1_555
O7 Zn1 1_555 1_555
N3_2 Zn1 1_555 1_555
N4_2 Zn1 1_555 1_555
O6 C9_2 1_555 1_555
O7 C9_2 1_555 1_555
C2_2 H3_2 1_555 1_555
C9_2 C12_2 1_555 1_555
C12_2 C2_2 1_555 1_555
N1_2 C5_2 1_555 1_555
N2_2 C3_2 1_555 1_555
C1_2 C3_2 1_555 1_555
C3_2 H4_2 1_555 1_555
C5_2 N2_2 1_555 1_555
H5_2 C5_2 1_555 1_555
C7_2 H6_2 1_555 1_555
C8_2 C1_2 1_555 1_555
C10_2 N1_2 1_555 1_555
H7_2 C10_2 1_555 1_555
Zn4 N2_2 1_555 1_555
Zn3 N1_2 1_555 1_555
C1_2 C10_2 1_555 1_555
C7_2 C8_2 1_555 1_555
Zn3 O2_3 1_555 1_555
O2_3 C6_3 1_555 1_555
O3_2 Zn3 1_555 1_555
H1_2 O3_2 1_555 1_555
H2_2 O3_2 1_555 1_555
O5_3 C6_3 1_555 1_555
C6_3 C4_3 1_555 1_555
C11_2 C4_3 1_555 1_555
H8_2 C11_2 1_555 1_555
O6_2 Zn3 1_555 1_555
O7_2 Zn3 1_555 1_555
O6_2 C9_3 1_555 1_555
O7_2 C9_3 1_555 1_555
N3_2 C5_3 1_555 1_555
C1_3 C3_3 1_555 1_555
C2_3 H3_3 1_555 1_555
C7_3 H6_3 1_555 1_555
C8_3 C1_3 1_555 1_555
C9_3 C12_3 1_555 1_555
C10_3 N3_2 1_555 1_555
H7_3 C10_3 1_555 1_555
C12_3 C2_3 1_555 1_555
C1_3 C10_3 1_555 1_555
C7_3 C8_3 1_555 1_555
C8_3 C12_3 1_555 1_555
N3 C5_4 1_555 1_555
N4_2 C3_4 1_555 1_555
C1_4 C3_4 1_555 1_555
C3_4 H4_4 1_555 1_555
C5_4 N4_2 1_555 1_555
H5_4 C5_4 1_555 1_555
C7_4 H6_4 1_555 1_555
C8_4 C1_4 1_555 1_555
C10_4 N3 1_555 1_555
H7_4 C10_4 1_555 1_555
C1_4 C10_4 1_555 1_555
C7_4 C8_4 1_555 1_555
O1_2 C9_4 1_555 1_555
O4_2 C9_4 1_555 1_555
C2_4 H3_4 1_555 1_555
C9_4 C12_4 1_555 1_555
C12_4 C2_4 1_555 1_555
Zn4 O1_2 1_555 1_555
O4_2 Zn4 1_555 1_555
Zn4 O2_4 1_555 1_555
O2_4 C6_4 1_555 1_555
O5_4 C6_4 1_555 1_555
C6_4 C4_4 1_555 1_555
H1_3 O3_3 1_555 1_555
H2_3 O3_3 1_555 1_555
H8_3 C11_3 1_555 1_555
H8_4 C11_4 1_555 1_555
H1_4 O3_4 1_555 1_555
H2_4 O3_4 1_555 1_555

#END
