
###############################################################################
#
# This file contains modified crystal structure data generated from the
# MOF subset of the Cambridge Structural Database (CSD) v543 
# hosted by the Cambridge Crystallographic Data Centre (CCDC).
#
# This work is licensed under the Creative Commons
# Attribution-NonCommercial-ShareAlike 4.0 International License.
# To view a copy of this license, visit
# http://creativecommons.org/licenses/by-nc-sa/4.0/
# or send a letter to
# Creative Commons, PO Box 1866, Mountain View, CA 94042, USA.
#
# CIF created using the CSD Python API on 29 September 2022
# The structure has been converted into the P1 space group
# The structure has a 3D framework
# The original CSD entry GEJJOX is in the monoclinic crystal system
# The framework has been calculated to contain at least 10.0% void space
# The void calculation uses a probe of radius 1.32A, grid spacing 0.4
#
###############################################################################

data_GEJJOX
_chemical_formula_moiety         '(C92 H84 Eu4 N8 O60 Zn4)n'
_symmetry_cell_setting           triclinic
_symmetry_space_group_name_H-M   'P 1'
_symmetry_Int_Tables_number      1
_space_group_name_Hall           'P 1'
loop_
_symmetry_equiv_pos_site_id
_symmetry_equiv_pos_as_xyz
1 x,y,z
_cell_length_a                   18.0405(9)
_cell_length_b                   12.9922(6)
_cell_length_c                   14.9125(7)
_cell_angle_alpha                90
_cell_angle_beta                 113.2970(10)
_cell_angle_gamma                90
_cell_volume                     3210.3
loop_
_atom_site_label
_atom_site_type_symbol
_atom_site_fract_x
_atom_site_fract_y
_atom_site_fract_z
Eu1 Eu 0.12181(2) 0.02431(2) 0.04783(2)
O6 O 0.09083(13) 0.17559(18) 0.13015(17)
O8 O 0.00908(13) 0.29406(17) 0.21514(16)
O9 O 0.04661(13) 0.41202(18) 0.38314(16)
O11 O 0.24357(13) 0.05305(17) 0.18757(16)
O12 O 0.36835(13) 0.05063(17) 0.18972(17)
O13 O 0.40084(13) 0.23768(17) 0.26320(16)
O14 O 0.47699(17) 0.4859(2) 0.3440(2)
O15 O 0.53467(13) 0.34578(19) 0.31279(18)
O16 O 0.18432(15) 0.18415(18) 0.02395(17)
C7 C 0.01553(19) 0.1702(2) 0.0953(2)
C13 C 0.3100(2) 0.0937(3) 0.2027(3)
C14 C 0.3242(2) 0.2004(3) 0.2387(3)
C15 C 0.2751(2) 0.2755(3) 0.2469(3)
H5 H 0.2194 0.2693 0.2342
C16 C 0.3234(2) 0.3651(3) 0.2781(3)
H6 H 0.3061 0.4308 0.2902
C17 C 0.3990(2) 0.3389(3) 0.2876(3)
C18 C 0.4762(2) 0.3960(3) 0.3178(3)
C21 C 0.1561(4) 0.3935(4) 0.0193(4)
H11 H 0.1373 0.3490 0.0590
H13 H 0.2086 0.4230 0.0603
Eu5 Eu 0.12181(2) 0.47569(2) 0.54783(2)
Zn2 Zn 0.64172(2) 0.40953(3) 0.35828(3)
C19 C 0.1733(3) 0.2340(3) 0.9502(3)
H7 H 0.1714 0.1970 0.8944
C20 C 0.1522(4) 0.3883(4) 0.8529(3)
H8 H 0.1977 0.4351 0.8648
H9 H 0.1020 0.4279 0.8321
H10 H 0.1490 0.3391 0.8017
H12 H 0.1171 0.4491 0.9911
N1 N 0.1639(2) 0.3335(2) 0.9413(2)
O20 O 0.04661(13) 0.08798(18) 0.88314(16)
Zn1 Zn 0.35828(2) 0.90953(3) 0.14172(3)
O1 O 0.18727(13) 0.84908(17) 0.10420(16)
O2 O 0.31312(13) 0.81804(18) 0.21227(16)
O3 O 0.25560(13) 0.69166(17) 0.31448(16)
O4 O 0.31559(13) 0.61370(18) 0.49950(16)
O5 O 0.20639(14) 0.51429(18) 0.46359(17)
C1 C 0.2376(2) 0.8032(3) 0.1756(2)
C2 C 0.2078(2) 0.7196(3) 0.2212(2)
C3 C 0.1395(2) 0.6613(3) 0.1866(3)
H1 H 0.0968 0.6656 0.1239
C4 C 0.1449(2) 0.5927(3) 0.2634(2)
H2 H 0.1068 0.5416 0.2617
C5 C 0.2154(2) 0.6148(3) 0.3394(2)
C6 C 0.2484(2) 0.5777(3) 0.4418(2)
Zn3 Zn 0.35828(2) 0.59047(3) 0.64172(3)
O21 O 0.08360(13) 0.96100(17) 0.17174(15)
O22 O 0.46533(13) 0.84578(19) 0.18721(18)
O17 O 0.31559(13) 0.88630(18) 0.99950(16)
O18 O 0.20639(14) 0.98571(18) 0.96359(17)
O19 O 0.02255(13) 0.89623(17) 0.96897(15)
O7 O 0.97745(13) 0.10377(17) 0.03103(15)
O10 O 0.91640(13) 0.46100(17) 0.32826(15)
C8 C 0.96906(19) 0.2434(2) 0.1283(2)
C9 C 0.8908(2) 0.2719(3) 0.0890(2)
H3 H 0.8508 0.2484 0.0291
C10 C 0.8798(2) 0.3437(3) 0.1542(2)
H4 H 0.8310 0.3776 0.1467
C11 C 0.95258(19) 0.3545(2) 0.2296(2)
C12 C 0.97482(19) 0.4135(2) 0.3218(2)
Eu2 Eu 0.87819(2) 0.52431(2) 0.45217(2)
Eu3 Eu 0.87819(2) 0.97569(2) 0.95217(2)
O7_2 O 0.02255(13) 0.60377(17) 0.46897(15)
C8_2 C 0.03094(19) 0.7434(2) 0.3717(2)
C9_2 C 0.1092(2) 0.7719(3) 0.4110(2)
H3_2 H 0.1492 0.7484 0.4709
C10_2 C 0.1202(2) 0.8437(3) 0.3458(2)
H4_2 H 0.1690 0.8776 0.3533
C11_2 C 0.04742(19) 0.8545(2) 0.2704(2)
C12_2 C 0.02518(19) 0.9135(2) 0.1782(2)
O1_2 O 0.81273(13) 0.34908(17) 0.39580(16)
O2_2 O 0.68688(13) 0.31804(18) 0.28773(16)
O3_2 O 0.74440(13) 0.19166(17) 0.18552(16)
O4_2 O 0.68441(13) 0.11370(18) 0.00050(16)
O5_2 O 0.79361(14) 0.01429(18) 0.03641(17)
O6_2 O 0.90917(13) 0.67559(18) 0.36985(17)
O8_2 O 0.99092(13) 0.79406(17) 0.28486(16)
O9_2 O 0.95339(13) 0.91202(18) 0.11686(16)
O11_2 O 0.75643(13) 0.55305(17) 0.31243(16)
O12_2 O 0.63165(13) 0.55063(17) 0.31028(17)
O13_2 O 0.59916(13) 0.73768(17) 0.23680(16)
O14_2 O 0.52301(17) 0.9859(2) 0.1560(2)
O16_2 O 0.81568(15) 0.68415(18) 0.47605(17)
C1_2 C 0.7624(2) 0.3032(3) 0.3244(2)
C2_2 C 0.7922(2) 0.2196(3) 0.2788(2)
C3_2 C 0.8605(2) 0.1613(3) 0.3134(3)
H1_2 H 0.9032 0.1656 0.3761
C4_2 C 0.8551(2) 0.0927(3) 0.2366(2)
H2_2 H 0.8932 0.0416 0.2383
C5_2 C 0.7846(2) 0.1148(3) 0.1606(2)
C6_2 C 0.7516(2) 0.0777(3) 0.0582(2)
C7_2 C 0.98447(19) 0.6702(2) 0.4047(2)
C13_2 C 0.6900(2) 0.5937(3) 0.2973(3)
C14_2 C 0.6758(2) 0.7004(3) 0.2613(3)
C15_2 C 0.7249(2) 0.7755(3) 0.2531(3)
H5_2 H 0.7806 0.7693 0.2658
C16_2 C 0.6766(2) 0.8651(3) 0.2219(3)
H6_2 H 0.6939 0.9308 0.2098
C17_2 C 0.6010(2) 0.8389(3) 0.2124(3)
C18_2 C 0.5238(2) 0.8960(3) 0.1822(3)
C19_2 C 0.8267(3) 0.7340(3) 0.5498(3)
H7_2 H 0.8286 0.6970 0.6056
C20_2 C 0.8478(4) 0.8883(4) 0.6471(3)
H8_2 H 0.8023 0.9351 0.6352
H9_2 H 0.8980 0.9279 0.6679
H10_2 H 0.8510 0.8391 0.6983
C21_2 C 0.8439(4) 0.8935(4) 0.4807(4)
H11_2 H 0.8627 0.8490 0.4410
H12_2 H 0.8829 0.9491 0.5089
H13_2 H 0.7914 0.9230 0.4397
N1_2 N 0.8361(2) 0.8335(2) 0.5587(2)
O17_2 O 0.68441(13) 0.38630(18) 0.50050(16)
O18_2 O 0.79361(14) 0.48571(18) 0.53641(17)
O19_2 O 0.97745(13) 0.39623(17) 0.53103(15)
O20_2 O 0.95339(13) 0.58798(18) 0.61686(16)
Zn3_2 Zn 0.64172(2) 0.09047(3) 0.85828(3)
O10_2 O 0.08360(13) 0.53900(17) 0.67174(15)
C8_3 C 0.03094(19) 0.7566(2) 0.8717(2)
C9_3 C 0.1092(2) 0.7281(3) 0.9110(2)
H3_3 H 0.1492 0.7516 0.9709
C10_3 C 0.1202(2) 0.6563(3) 0.8458(2)
H4_3 H 0.1690 0.6224 0.8533
C11_3 C 0.04742(19) 0.6455(2) 0.7704(2)
C12_3 C 0.02518(19) 0.5865(2) 0.6782(2)
O1_3 O 0.81273(13) 0.15092(17) 0.89580(16)
O2_3 O 0.68688(13) 0.18196(18) 0.78773(16)
O3_3 O 0.74440(13) 0.30834(17) 0.68552(16)
C1_3 C 0.7624(2) 0.1968(3) 0.8244(2)
C2_3 C 0.7922(2) 0.2804(3) 0.7788(2)
C3_3 C 0.8605(2) 0.3387(3) 0.8134(3)
H1_3 H 0.9032 0.3344 0.8761
C4_3 C 0.8551(2) 0.4073(3) 0.7366(2)
H2_3 H 0.8932 0.4584 0.7383
C5_3 C 0.7846(2) 0.3852(3) 0.6606(2)
C6_3 C 0.7516(2) 0.4223(3) 0.5582(2)
O21_2 O 0.91640(13) 0.03900(17) 0.82826(15)
O22_2 O 0.53467(13) 0.15422(19) 0.81279(18)
C19_3 C 0.8267(3) 0.7660(3) 0.0498(3)
H7_3 H 0.8286 0.8030 0.1056
C20_3 C 0.8478(4) 0.6117(4) 0.1471(3)
H8_3 H 0.8023 0.5649 0.1352
H9_3 H 0.8980 0.5721 0.1679
H10_3 H 0.8510 0.6609 0.1983
H12_3 H 0.8829 0.5509 0.0089
N1_3 N 0.8361(2) 0.6665(2) 0.0587(2)
O6_3 O 0.90917(13) 0.82441(18) 0.86985(17)
O8_3 O 0.99092(13) 0.70594(17) 0.78486(16)
O11_3 O 0.75643(13) 0.94695(17) 0.81243(16)
O12_3 O 0.63165(13) 0.94937(17) 0.81028(17)
O13_3 O 0.59916(13) 0.76232(17) 0.73680(16)
O14_3 O 0.52301(17) 0.5141(2) 0.6560(2)
O15_2 O 0.46533(13) 0.65422(19) 0.68721(18)
O16_3 O 0.81568(15) 0.81585(18) 0.97605(17)
C7_3 C 0.98447(19) 0.8298(2) 0.9047(2)
C13_3 C 0.6900(2) 0.9063(3) 0.7973(3)
C14_3 C 0.6758(2) 0.7996(3) 0.7613(3)
C15_3 C 0.7249(2) 0.7245(3) 0.7531(3)
H5_3 H 0.7806 0.7307 0.7658
C16_3 C 0.6766(2) 0.6349(3) 0.7219(3)
H6_3 H 0.6939 0.5692 0.7098
C17_3 C 0.6010(2) 0.6611(3) 0.7124(3)
C18_3 C 0.5238(2) 0.6040(3) 0.6822(3)
C21_3 C 0.8439(4) 0.6065(4) 0.9807(4)
H11_3 H 0.8627 0.6510 0.9410
H13_3 H 0.7914 0.5770 0.9397
O1_4 O 0.18727(13) 0.65092(17) 0.60420(16)
O2_4 O 0.31312(13) 0.68196(18) 0.71227(16)
O3_4 O 0.25560(13) 0.80834(17) 0.81448(16)
O6_4 O 0.09083(13) 0.32441(18) 0.63015(17)
O8_4 O 0.00908(13) 0.20594(17) 0.71514(16)
O11_4 O 0.24357(13) 0.44695(17) 0.68757(16)
O12_4 O 0.36835(13) 0.44937(17) 0.68972(17)
O13_4 O 0.40084(13) 0.26232(17) 0.76320(16)
O14_4 O 0.47699(17) 0.0141(2) 0.8440(2)
O16_4 O 0.18432(15) 0.31585(18) 0.52395(17)
C1_4 C 0.2376(2) 0.6968(3) 0.6756(2)
C2_4 C 0.2078(2) 0.7804(3) 0.7212(2)
C3_4 C 0.1395(2) 0.8387(3) 0.6866(3)
H1_4 H 0.0968 0.8344 0.6239
C4_4 C 0.1449(2) 0.9073(3) 0.7634(2)
H2_4 H 0.1068 0.9584 0.7617
C5_4 C 0.2154(2) 0.8852(3) 0.8394(2)
C6_4 C 0.2484(2) 0.9223(3) 0.9418(2)
C7_4 C 0.01553(19) 0.3298(2) 0.5953(2)
C13_4 C 0.3100(2) 0.4063(3) 0.7027(3)
C14_4 C 0.3242(2) 0.2996(3) 0.7387(3)
C15_4 C 0.2751(2) 0.2245(3) 0.7469(3)
H5_4 H 0.2194 0.2307 0.7342
C16_4 C 0.3234(2) 0.1349(3) 0.7781(3)
H6_4 H 0.3061 0.0692 0.7902
C17_4 C 0.3990(2) 0.1611(3) 0.7876(3)
C18_4 C 0.4762(2) 0.1040(3) 0.8178(3)
C19_4 C 0.1733(3) 0.2660(3) 0.4502(3)
H7_4 H 0.1714 0.3030 0.3944
C20_4 C 0.1522(4) 0.1117(4) 0.3529(3)
H8_4 H 0.1977 0.0649 0.3648
H9_4 H 0.1020 0.0721 0.3321
H10_4 H 0.1490 0.1609 0.3017
C21_4 C 0.1561(4) 0.1065(4) 0.5193(4)
H11_4 H 0.1373 0.1510 0.5590
H12_4 H 0.1171 0.0509 0.4911
H13_4 H 0.2086 0.0770 0.5603
N1_4 N 0.1639(2) 0.1665(2) 0.4413(2)
C8_4 C 0.96906(19) 0.2566(2) 0.6283(2)
C9_4 C 0.8908(2) 0.2281(3) 0.5890(2)
H3_4 H 0.8508 0.2516 0.5291
C10_4 C 0.8798(2) 0.1563(3) 0.6542(2)
H4_4 H 0.8310 0.1224 0.6467
C11_4 C 0.95258(19) 0.1455(2) 0.7296(2)
C12_4 C 0.97482(19) 0.0865(2) 0.8218(2)
N2 N 0.5315(2) 0.6857(3) 0.3889(2)
H14 H 0.5413 0.7427 0.3599
H15 H 0.5237 0.6317 0.3472
C22 C 0.4588(3) 0.7017(4) 0.4080(4)
H16 H 0.4488 0.6407 0.4402
H17 H 0.4126 0.7135 0.3462
H18 H 0.4664 0.7618 0.4506
C23 C 0.6022(3) 0.6644(5) 0.4808(4)
H19 H 0.6501 0.6539 0.4664
H20 H 0.6112 0.7230 0.5254
H21 H 0.5920 0.6024 0.5115
N2_2 N 0.4685(2) 0.1857(3) 0.1111(2)
H14_2 H 0.4587 0.2427 0.1401
H15_2 H 0.4763 0.1317 0.1528
C22_2 C 0.5412(3) 0.2017(4) 0.0920(4)
H16_2 H 0.5512 0.1407 0.0598
H17_2 H 0.5874 0.2135 0.1538
H18_2 H 0.5336 0.2618 0.0494
C23_2 C 0.3978(3) 0.1644(5) 0.0192(4)
H19_2 H 0.3499 0.1539 0.0336
H20_2 H 0.3888 0.2230 0.9746
H21_2 H 0.4080 0.1024 0.9885
N2_3 N 0.4685(2) 0.3143(3) 0.6111(2)
H14_3 H 0.4587 0.2573 0.6401
H15_3 H 0.4763 0.3683 0.6528
C22_3 C 0.5412(3) 0.2983(4) 0.5920(4)
H16_3 H 0.5512 0.3593 0.5598
H17_3 H 0.5874 0.2865 0.6538
H18_3 H 0.5336 0.2382 0.5494
C23_3 C 0.3978(3) 0.3356(5) 0.5192(4)
H19_3 H 0.3499 0.3461 0.5336
H20_3 H 0.3888 0.2770 0.4746
H21_3 H 0.4080 0.3976 0.4885
H20_4 H 0.6112 0.7770 0.0254
H21_4 H 0.5920 0.8976 0.0115
N2_4 N 0.5315(2) 0.8143(3) 0.8889(2)
H14_4 H 0.5413 0.7573 0.8599
H15_4 H 0.5237 0.8683 0.8472
C22_4 C 0.4588(3) 0.7983(4) 0.9080(4)
H16_4 H 0.4488 0.8593 0.9402
H17_4 H 0.4126 0.7865 0.8462
H18_4 H 0.4664 0.7382 0.9506
C23_4 C 0.6022(3) 0.8356(5) 0.9808(4)
H19_4 H 0.6501 0.8461 0.9664
loop_
_geom_bond_atom_site_label_1
_geom_bond_atom_site_label_2
_geom_bond_site_symmetry_1
_geom_bond_site_symmetry_2
O6 Eu1 1_555 1_555
O11 Eu1 1_555 1_555
O13 C14 1_555 1_555
O14 C18 1_555 1_555
O15 C18 1_555 1_555
O16 Eu1 1_555 1_555
C7 O6 1_555 1_555
C13 O11 1_555 1_555
C14 C13 1_555 1_555
C15 C14 1_555 1_555
H5 C15 1_555 1_555
C16 C15 1_555 1_555
H6 C16 1_555 1_555
C17 O13 1_555 1_555
C18 C17 1_555 1_555
C21 H11 1_555 1_555
H13 C21 1_555 1_555
Eu5 O9 1_555 1_555
Zn2 O15 1_555 1_555
O12 C13 1_555 1_555
C16 C17 1_555 1_555
H7 C19 1_555 1_555
C20 H8 1_555 1_555
H9 C20 1_555 1_555
H10 C20 1_555 1_555
N1 C19 1_555 1_555
C20 N1 1_555 1_555
Zn1 O2 1_555 1_555
O1 C1 1_555 1_555
O2 C1 1_555 1_555
O3 C2 1_555 1_555
O4 C6 1_555 1_555
O5 C6 1_555 1_555
C1 C2 1_555 1_555
C2 C3 1_555 1_555
C3 H1 1_555 1_555
C4 C3 1_555 1_555
H2 C4 1_555 1_555
C5 O3 1_555 1_555
C6 C5 1_555 1_555
Eu5 O5 1_555 1_555
Zn3 O4 1_555 1_555
O22 Zn1 1_555 1_555
C4 C5 1_555 1_555
O10 C12 1_555 1_555
C9 C8 1_555 1_555
H3 C9 1_555 1_555
C10 C9 1_555 1_555
H4 C10 1_555 1_555
C12 C11 1_555 1_555
Eu2 O10 1_555 1_555
C10 C11 1_555 1_555
O21 C12_2 1_555 1_555
C9_2 C8_2 1_555 1_555
H3_2 C9_2 1_555 1_555
C10_2 C9_2 1_555 1_555
H4_2 C10_2 1_555 1_555
C12_2 C11_2 1_555 1_555
Eu5 O7_2 1_555 1_555
C10_2 C11_2 1_555 1_555
Eu2 O1_2 1_555 1_555
Zn2 O2_2 1_555 1_555
O1_2 C1_2 1_555 1_555
O2_2 C1_2 1_555 1_555
O3_2 C2_2 1_555 1_555
O4_2 C6_2 1_555 1_555
O5_2 C6_2 1_555 1_555
O6_2 Eu2 1_555 1_555
O11_2 Eu2 1_555 1_555
O12_2 Zn2 1_555 1_555
O13_2 C14_2 1_555 1_555
O14_2 C18_2 1_555 1_555
O22 C18_2 1_555 1_555
O16_2 Eu2 1_555 1_555
C1_2 C2_2 1_555 1_555
C2_2 C3_2 1_555 1_555
C3_2 H1_2 1_555 1_555
C4_2 C3_2 1_555 1_555
H2_2 C4_2 1_555 1_555
C5_2 O3_2 1_555 1_555
C6_2 C5_2 1_555 1_555
C7_2 O6_2 1_555 1_555
C13_2 O11_2 1_555 1_555
C14_2 C13_2 1_555 1_555
C15_2 C14_2 1_555 1_555
H5_2 C15_2 1_555 1_555
C16_2 C15_2 1_555 1_555
H6_2 C16_2 1_555 1_555
C17_2 O13_2 1_555 1_555
C18_2 C17_2 1_555 1_555
C19_2 O16_2 1_555 1_555
H7_2 C19_2 1_555 1_555
C20_2 H8_2 1_555 1_555
H9_2 C20_2 1_555 1_555
H10_2 C20_2 1_555 1_555
C21_2 H11_2 1_555 1_555
H12_2 C21_2 1_555 1_555
H13_2 C21_2 1_555 1_555
N1_2 C19_2 1_555 1_555
O17_2 Zn2 1_555 1_555
O18_2 Eu2 1_555 1_555
O19_2 Eu2 1_555 1_555
O20_2 Eu2 1_555 1_555
O12_2 C13_2 1_555 1_555
C4_2 C5_2 1_555 1_555
C16_2 C17_2 1_555 1_555
C20_2 N1_2 1_555 1_555
C21_2 N1_2 1_555 1_555
O10_2 C12_3 1_555 1_555
C9_3 C8_3 1_555 1_555
H3_3 C9_3 1_555 1_555
C10_3 C9_3 1_555 1_555
H4_3 C10_3 1_555 1_555
C12_3 C11_3 1_555 1_555
Eu5 O10_2 1_555 1_555
C10_3 C11_3 1_555 1_555
Zn3_2 O2_3 1_555 1_555
O1_3 C1_3 1_555 1_555
O2_3 C1_3 1_555 1_555
O3_3 C2_3 1_555 1_555
O17_2 C6_3 1_555 1_555
O18_2 C6_3 1_555 1_555
C1_3 C2_3 1_555 1_555
C2_3 C3_3 1_555 1_555
C3_3 H1_3 1_555 1_555
C4_3 C3_3 1_555 1_555
H2_3 C4_3 1_555 1_555
C5_3 O3_3 1_555 1_555
C6_3 C5_3 1_555 1_555
O22_2 Zn3_2 1_555 1_555
C4_3 C5_3 1_555 1_555
H7_3 C19_3 1_555 1_555
C20_3 H8_3 1_555 1_555
H9_3 C20_3 1_555 1_555
H10_3 C20_3 1_555 1_555
N1_3 C19_3 1_555 1_555
C20_3 N1_3 1_555 1_555
O6_3 Eu3 1_555 1_555
O11_3 Eu3 1_555 1_555
O13_3 C14_3 1_555 1_555
O14_3 C18_3 1_555 1_555
O15_2 C18_3 1_555 1_555
O16_3 Eu3 1_555 1_555
C7_3 O6_3 1_555 1_555
C13_3 O11_3 1_555 1_555
C14_3 C13_3 1_555 1_555
C15_3 C14_3 1_555 1_555
H5_3 C15_3 1_555 1_555
C16_3 C15_3 1_555 1_555
H6_3 C16_3 1_555 1_555
C17_3 O13_3 1_555 1_555
C18_3 C17_3 1_555 1_555
C21_3 H11_3 1_555 1_555
H13_3 C21_3 1_555 1_555
Zn3 O15_2 1_555 1_555
O12_3 C13_3 1_555 1_555
C16_3 C17_3 1_555 1_555
Eu5 O1_4 1_555 1_555
Zn3 O2_4 1_555 1_555
O1_4 C1_4 1_555 1_555
O2_4 C1_4 1_555 1_555
O3_4 C2_4 1_555 1_555
O17 C6_4 1_555 1_555
O18 C6_4 1_555 1_555
O6_4 Eu5 1_555 1_555
O11_4 Eu5 1_555 1_555
O12_4 Zn3 1_555 1_555
O13_4 C14_4 1_555 1_555
O14_4 C18_4 1_555 1_555
O22_2 C18_4 1_555 1_555
O16_4 Eu5 1_555 1_555
C1_4 C2_4 1_555 1_555
C2_4 C3_4 1_555 1_555
C3_4 H1_4 1_555 1_555
C4_4 C3_4 1_555 1_555
H2_4 C4_4 1_555 1_555
C5_4 O3_4 1_555 1_555
C6_4 C5_4 1_555 1_555
C7_4 O6_4 1_555 1_555
C13_4 O11_4 1_555 1_555
C14_4 C13_4 1_555 1_555
C15_4 C14_4 1_555 1_555
H5_4 C15_4 1_555 1_555
C16_4 C15_4 1_555 1_555
H6_4 C16_4 1_555 1_555
C17_4 O13_4 1_555 1_555
C18_4 C17_4 1_555 1_555
C19_4 O16_4 1_555 1_555
H7_4 C19_4 1_555 1_555
C20_4 H8_4 1_555 1_555
H9_4 C20_4 1_555 1_555
H10_4 C20_4 1_555 1_555
C21_4 H11_4 1_555 1_555
H12_4 C21_4 1_555 1_555
H13_4 C21_4 1_555 1_555
N1_4 C19_4 1_555 1_555
O12_4 C13_4 1_555 1_555
C4_4 C5_4 1_555 1_555
C16_4 C17_4 1_555 1_555
C20_4 N1_4 1_555 1_555
C21_4 N1_4 1_555 1_555
O21_2 C12_4 1_555 1_555
C9_4 C8_4 1_555 1_555
H3_4 C9_4 1_555 1_555
C10_4 C9_4 1_555 1_555
H4_4 C10_4 1_555 1_555
C12_4 C11_4 1_555 1_555
C10_4 C11_4 1_555 1_555
N2 H14 1_555 1_555
H15 N2 1_555 1_555
C22 N2 1_555 1_555
H16 C22 1_555 1_555
H17 C22 1_555 1_555
H18 C22 1_555 1_555
C23 N2 1_555 1_555
H19 C23 1_555 1_555
H20 C23 1_555 1_555
H21 C23 1_555 1_555
N2_2 H14_2 1_555 1_555
H15_2 N2_2 1_555 1_555
C22_2 N2_2 1_555 1_555
H16_2 C22_2 1_555 1_555
H17_2 C22_2 1_555 1_555
H18_2 C22_2 1_555 1_555
C23_2 N2_2 1_555 1_555
H19_2 C23_2 1_555 1_555
N2_3 H14_3 1_555 1_555
H15_3 N2_3 1_555 1_555
C22_3 N2_3 1_555 1_555
H16_3 C22_3 1_555 1_555
H17_3 C22_3 1_555 1_555
H18_3 C22_3 1_555 1_555
C23_3 N2_3 1_555 1_555
H19_3 C23_3 1_555 1_555
H20_3 C23_3 1_555 1_555
H21_3 C23_3 1_555 1_555
N2_4 H14_4 1_555 1_555
H15_4 N2_4 1_555 1_555
C22_4 N2_4 1_555 1_555
H16_4 C22_4 1_555 1_555
H17_4 C22_4 1_555 1_555
H18_4 C22_4 1_555 1_555
C23_4 N2_4 1_555 1_555
H19_4 C23_4 1_555 1_555

#END
