
###############################################################################
#
# This file contains modified crystal structure data generated from the
# MOF subset of the Cambridge Structural Database (CSD) v543 
# hosted by the Cambridge Crystallographic Data Centre (CCDC).
#
# This work is licensed under the Creative Commons
# Attribution-NonCommercial-ShareAlike 4.0 International License.
# To view a copy of this license, visit
# http://creativecommons.org/licenses/by-nc-sa/4.0/
# or send a letter to
# Creative Commons, PO Box 1866, Mountain View, CA 94042, USA.
#
# CIF created using the CSD Python API on 29 September 2022
# The structure has been converted into the P1 space group
# The structure has a 3D framework
# The original CSD entry GEJJUD is in the monoclinic crystal system
# The framework has been calculated to contain at least 10.0% void space
# The void calculation uses a probe of radius 1.32A, grid spacing 0.4
#
###############################################################################

data_GEJJUD
_chemical_formula_moiety         '(C92 H84 N8 O60 Tb4 Zn4)n'
_symmetry_cell_setting           triclinic
_symmetry_space_group_name_H-M   'P 1'
_symmetry_Int_Tables_number      1
_space_group_name_Hall           'P 1'
loop_
_symmetry_equiv_pos_site_id
_symmetry_equiv_pos_as_xyz
1 x,y,z
_cell_length_a                   17.9663(18)
_cell_length_b                   12.9541(13)
_cell_length_c                   14.8528(16)
_cell_angle_alpha                90
_cell_angle_beta                 113.2490(10)
_cell_angle_gamma                90
_cell_volume                     3176.1
loop_
_atom_site_label
_atom_site_type_symbol
_atom_site_fract_x
_atom_site_fract_y
_atom_site_fract_z
Zn1 Zn 0.14202(3) 0.08990(3) 0.35800(3)
O1 O 0.31264(16) 0.3496(2) 0.89572(19)
O2 O 0.18634(16) 0.3180(2) 0.7867(2)
O3 O 0.24489(15) 0.1901(2) 0.68578(19)
O4 O 0.18529(16) 0.1121(2) 0.5005(2)
O5 O 0.29583(17) 0.0137(2) 0.5371(2)
C1 C 0.2621(2) 0.3028(3) 0.8240(3)
C2 C 0.2928(2) 0.2188(3) 0.7799(3)
C3 C 0.3607(3) 0.1603(3) 0.8147(3)
H1 H 0.4032 0.1644 0.8780
C4 C 0.3560(2) 0.0918(3) 0.7383(3)
H2 H 0.3948 0.0408 0.7407
C5 C 0.2854(2) 0.1130(3) 0.6608(3)
C6 C 0.2531(2) 0.0762(3) 0.5585(3)
Tb3 Tb 0.62189(2) 0.02545(2) 0.54794(2)
Tb5 Tb 0.37811(2) 0.52545(2) 0.95206(2)
Zn3 Zn 0.14202(3) 0.41010(3) 0.85800(3)
O17 O 0.31264(16) 0.1504(2) 0.39572(19)
O18 O 0.18634(16) 0.1820(2) 0.2867(2)
O19 O 0.41617(15) 0.03853(19) 0.32985(19)
O21 O 0.47418(16) 0.10180(19) 0.53195(19)
O23 O 0.03468(16) 0.1539(2) 0.3137(2)
Tb2 Tb 0.62189(2) 0.47455(2) 0.04794(2)
Tb1 Tb 0.37811(2) 0.97455(2) 0.45206(2)
O6 O 0.45400(15) 0.9084(2) 0.6142(2)
O7 O 0.58383(15) 0.96147(19) 0.67015(19)
O8 O 0.49171(15) 0.7930(2) 0.78415(19)
O9 O 0.41127(16) 0.6750(2) 0.8726(2)
O10 O 0.52582(16) 0.60180(19) 0.96805(19)
O11 O 0.25786(15) 0.9462(2) 0.3128(2)
O12 O 0.13203(16) 0.9488(2) 0.3097(2)
O13 O 0.09963(15) 0.7615(2) 0.2363(2)
O15 O 0.0233(2) 0.5121(3) 0.1561(3)
O16 O 0.31508(17) 0.8158(2) 0.4752(2)
C7 C 0.5258(2) 0.9128(3) 0.6761(3)
C8 C 0.5479(2) 0.8539(3) 0.7690(3)
C9 C 0.6211(2) 0.8442(3) 0.8448(3)
H3 H 0.6697 0.8789 0.8520
C10 C 0.6111(2) 0.7727(3) 0.9104(3)
H4 H 0.6517 0.7497 0.9705
C11 C 0.5324(2) 0.7429(3) 0.8715(3)
C12 C 0.4869(2) 0.6692(3) 0.9055(3)
C13 C 0.1911(2) 0.9052(3) 0.2969(3)
C14 C 0.1767(2) 0.7989(3) 0.2612(3)
C15 C 0.2256(3) 0.7237(3) 0.2527(3)
H5 H 0.2815 0.7299 0.2653
C16 C 0.1771(3) 0.6334(3) 0.2213(3)
H6 H 0.1942 0.5674 0.2092
C17 C 0.1013(2) 0.6606(3) 0.2120(3)
C18 C 0.0240(3) 0.6027(3) 0.1819(3)
C19 C 0.3271(3) 0.7664(3) 0.5504(3)
H7 H 0.3289 0.8036 0.6063
C20 C 0.3505(4) 0.6121(4) 0.6488(4)
H8 H 0.3568 0.5383 0.6391
H9 H 0.3996 0.6382 0.7015
H10 H 0.3039 0.6225 0.6664
C21 C 0.3458(5) 0.6062(5) 0.4819(5)
H11 H 0.3531 0.5334 0.5016
H12 H 0.2969 0.6137 0.4216
H13 H 0.3930 0.6301 0.4703
N1 N 0.3374(3) 0.6673(3) 0.5591(3)
O20 O 0.41127(16) 0.8250(2) 0.3726(2)
O22 O 0.52582(16) 0.89820(19) 0.46805(19)
O14 O 0.96532(16) 0.6539(2) 0.1863(2)
Zn2 Zn 0.85798(3) 0.58990(3) 0.14200(3)
O11_2 O 0.74214(15) 0.4462(2) 0.1872(2)
O12_2 O 0.86797(16) 0.4488(2) 0.1903(2)
O13_2 O 0.90037(15) 0.2615(2) 0.2637(2)
O15_2 O 0.9767(2) 0.0121(3) 0.3439(3)
O16_2 O 0.68492(17) 0.3158(2) 0.0248(2)
C13_2 C 0.8089(2) 0.4052(3) 0.2031(3)
C14_2 C 0.8233(2) 0.2989(3) 0.2388(3)
C15_2 C 0.7744(3) 0.2237(3) 0.2473(3)
H5_2 H 0.7185 0.2299 0.2347
C16_2 C 0.8229(3) 0.1334(3) 0.2787(3)
H6_2 H 0.8058 0.0674 0.2908
C17_2 C 0.8987(2) 0.1606(3) 0.2880(3)
C18_2 C 0.9760(3) 0.1027(3) 0.3181(3)
C21_2 C 0.6542(5) 0.1062(5) 0.0181(5)
H12_2 H 0.7031 0.1137 0.0784
H13_2 H 0.6070 0.1301 0.0297
O17_2 O 0.68736(16) 0.6504(2) 0.10428(19)
O18_2 O 0.81366(16) 0.6820(2) 0.2133(2)
O19_2 O 0.58383(15) 0.53853(19) 0.17015(19)
O20_2 O 0.58873(16) 0.3250(2) 0.1274(2)
O22_2 O 0.47418(16) 0.39820(19) 0.03195(19)
O1_2 O 0.68736(16) 0.8496(2) 0.60428(19)
O2_2 O 0.81366(16) 0.8180(2) 0.7133(2)
O3_2 O 0.75511(15) 0.6901(2) 0.81422(19)
O4_2 O 0.81471(16) 0.6121(2) 0.9995(2)
O5_2 O 0.70417(17) 0.5137(2) 0.9629(2)
O6_2 O 0.54600(15) 0.4084(2) 0.8858(2)
O7_2 O 0.41617(15) 0.46147(19) 0.82985(19)
O8_2 O 0.50829(15) 0.2930(2) 0.71585(19)
O9_2 O 0.58873(16) 0.1750(2) 0.6274(2)
C1_2 C 0.7379(2) 0.8028(3) 0.6760(3)
C2_2 C 0.7072(2) 0.7188(3) 0.7201(3)
C3_2 C 0.6393(3) 0.6603(3) 0.6853(3)
H1_2 H 0.5968 0.6644 0.6220
C4_2 C 0.6440(2) 0.5918(3) 0.7617(3)
H2_2 H 0.6052 0.5408 0.7593
C5_2 C 0.7146(2) 0.6130(3) 0.8392(3)
C6_2 C 0.7469(2) 0.5762(3) 0.9415(3)
C7_2 C 0.4742(2) 0.4128(3) 0.8239(3)
C8_2 C 0.4521(2) 0.3539(3) 0.7310(3)
C9_2 C 0.3789(2) 0.3442(3) 0.6552(3)
H3_2 H 0.3303 0.3789 0.6480
C10_2 C 0.3889(2) 0.2727(3) 0.5896(3)
H4_2 H 0.3483 0.2497 0.5295
C11_2 C 0.4676(2) 0.2429(3) 0.6285(3)
C12_2 C 0.5131(2) 0.1692(3) 0.5945(3)
C19_2 C 0.6729(3) 0.2664(3) 0.9496(3)
H7_2 H 0.6711 0.3036 0.8937
C20_2 C 0.6495(4) 0.1121(4) 0.8512(4)
H8_2 H 0.6432 0.0383 0.8609
H9_2 H 0.6004 0.1382 0.7985
H10_2 H 0.6961 0.1225 0.8336
H11_2 H 0.6469 0.0334 0.9984
N1_2 N 0.6626(3) 0.1673(3) 0.9409(3)
Zn3_2 Zn 0.85798(3) 0.91010(3) 0.64200(3)
O14_2 O 0.03468(16) 0.3461(2) 0.8137(2)
O6_3 O 0.54600(15) 0.0916(2) 0.3858(2)
O8_3 O 0.50829(15) 0.2070(2) 0.21585(19)
O11_3 O 0.74214(15) 0.0538(2) 0.6872(2)
O12_3 O 0.86797(16) 0.0512(2) 0.6903(2)
O13_3 O 0.90037(15) 0.2385(2) 0.7637(2)
O15_3 O 0.9767(2) 0.4879(3) 0.8439(3)
O16_3 O 0.68492(17) 0.1842(2) 0.5248(2)
C7_3 C 0.4742(2) 0.0872(3) 0.3239(3)
C8_3 C 0.4521(2) 0.1461(3) 0.2310(3)
C9_3 C 0.3789(2) 0.1558(3) 0.1552(3)
H3_3 H 0.3303 0.1211 0.1480
C10_3 C 0.3889(2) 0.2273(3) 0.0896(3)
H4_3 H 0.3483 0.2503 0.0295
C11_3 C 0.4676(2) 0.2571(3) 0.1285(3)
C12_3 C 0.5131(2) 0.3308(3) 0.0945(3)
C13_3 C 0.8089(2) 0.0948(3) 0.7031(3)
C14_3 C 0.8233(2) 0.2011(3) 0.7388(3)
C15_3 C 0.7744(3) 0.2763(3) 0.7473(3)
H5_3 H 0.7185 0.2701 0.7347
C16_3 C 0.8229(3) 0.3666(3) 0.7787(3)
H6_3 H 0.8058 0.4326 0.7908
C17_3 C 0.8987(2) 0.3394(3) 0.7880(3)
C18_3 C 0.9760(3) 0.3973(3) 0.8181(3)
C19_3 C 0.6729(3) 0.2336(3) 0.4496(3)
H7_3 H 0.6711 0.1964 0.3937
C20_3 C 0.6495(4) 0.3879(4) 0.3512(4)
H8_3 H 0.6432 0.4617 0.3609
H9_3 H 0.6004 0.3618 0.2985
H10_3 H 0.6961 0.3775 0.3336
C21_3 C 0.6542(5) 0.3938(5) 0.5181(5)
H11_3 H 0.6469 0.4666 0.4984
H12_3 H 0.7031 0.3863 0.5784
H13_3 H 0.6070 0.3699 0.5297
N1_3 N 0.6626(3) 0.3327(3) 0.4409(3)
O3_3 O 0.75511(15) 0.8099(2) 0.31422(19)
O4_3 O 0.81471(16) 0.8879(2) 0.4995(2)
O5_3 O 0.70417(17) 0.9863(2) 0.4629(2)
C1_3 C 0.7379(2) 0.6972(3) 0.1760(3)
C2_3 C 0.7072(2) 0.7812(3) 0.2201(3)
C3_3 C 0.6393(3) 0.8397(3) 0.1853(3)
H1_3 H 0.5968 0.8356 0.1220
C4_3 C 0.6440(2) 0.9082(3) 0.2617(3)
H2_3 H 0.6052 0.9592 0.2593
C5_3 C 0.7146(2) 0.8870(3) 0.3392(3)
C6_3 C 0.7469(2) 0.9238(3) 0.4415(3)
O23_2 O 0.96532(16) 0.8461(2) 0.6863(2)
O3_4 O 0.24489(15) 0.3099(2) 0.18578(19)
O4_4 O 0.18529(16) 0.3879(2) 0.0005(2)
O5_4 O 0.29583(17) 0.4863(2) 0.0371(2)
O6_4 O 0.45400(15) 0.5916(2) 0.1142(2)
O8_4 O 0.49171(15) 0.7070(2) 0.28415(19)
C1_4 C 0.2621(2) 0.1972(3) 0.3240(3)
C2_4 C 0.2928(2) 0.2812(3) 0.2799(3)
C3_4 C 0.3607(3) 0.3397(3) 0.3147(3)
H1_4 H 0.4032 0.3356 0.3780
C4_4 C 0.3560(2) 0.4082(3) 0.2383(3)
H2_4 H 0.3948 0.4592 0.2407
C5_4 C 0.2854(2) 0.3870(3) 0.1608(3)
C6_4 C 0.2531(2) 0.4238(3) 0.0585(3)
C7_4 C 0.5258(2) 0.5872(3) 0.1761(3)
C8_4 C 0.5479(2) 0.6461(3) 0.2690(3)
C9_4 C 0.6211(2) 0.6558(3) 0.3448(3)
H3_4 H 0.6697 0.6211 0.3520
C10_4 C 0.6111(2) 0.7273(3) 0.4104(3)
H4_4 H 0.6517 0.7503 0.4705
C11_4 C 0.5324(2) 0.7571(3) 0.3715(3)
C12_4 C 0.4869(2) 0.8308(3) 0.4055(3)
C19_4 C 0.3271(3) 0.7336(3) 0.0504(3)
H7_4 H 0.3289 0.6964 0.1063
C20_4 C 0.3505(4) 0.8879(4) 0.1488(4)
H8_4 H 0.3568 0.9617 0.1391
H9_4 H 0.3996 0.8618 0.2015
H10_4 H 0.3039 0.8775 0.1664
H11_4 H 0.3531 0.9666 0.0016
N1_4 N 0.3374(3) 0.8327(3) 0.0591(3)
O11_4 O 0.25786(15) 0.5538(2) 0.8128(2)
O12_4 O 0.13203(16) 0.5512(2) 0.8097(2)
O13_4 O 0.09963(15) 0.7385(2) 0.7363(2)
O15_4 O 0.0233(2) 0.9879(3) 0.6561(3)
O16_4 O 0.31508(17) 0.6842(2) 0.9752(2)
C13_4 C 0.1911(2) 0.5948(3) 0.7969(3)
C14_4 C 0.1767(2) 0.7011(3) 0.7612(3)
C15_4 C 0.2256(3) 0.7763(3) 0.7527(3)
H5_4 H 0.2815 0.7701 0.7653
C16_4 C 0.1771(3) 0.8666(3) 0.7213(3)
H6_4 H 0.1942 0.9326 0.7092
C17_4 C 0.1013(2) 0.8394(3) 0.7120(3)
C18_4 C 0.0240(3) 0.8973(3) 0.6819(3)
C21_4 C 0.3458(5) 0.8938(5) 0.9819(5)
H12_4 H 0.2969 0.8863 0.9216
H13_4 H 0.3930 0.8699 0.9703
C22 C 0.1034(3) 0.8315(6) 0.4797(5)
H14 H 0.1508 0.8410 0.4636
H15 H 0.0949 0.8938 0.5118
H16 H 0.1124 0.7724 0.5240
N2 N 0.0313(3) 0.8122(3) 0.3892(3)
H20 H 0.0234 0.8666 0.3477
H21 H 0.0396 0.7549 0.3589
C23 C 0.9595(3) 0.7977(4) 0.4105(5)
H17 H 0.9125 0.7850 0.3493
H18 H 0.9676 0.7384 0.4543
H19 H 0.9501 0.8598 0.4421
C23_2 C 0.0405(3) 0.2977(4) 0.0895(5)
H17_2 H 0.0875 0.2850 0.1507
H18_2 H 0.0324 0.2384 0.0457
H19_2 H 0.0499 0.3598 0.0579
C22_2 C 0.8966(3) 0.3315(6) 0.0203(5)
H14_2 H 0.8492 0.3410 0.0364
N2_2 N 0.9687(3) 0.3122(3) 0.1108(3)
H20_2 H 0.9766 0.3666 0.1523
H21_2 H 0.9604 0.2549 0.1411
H15_2 H 0.9051 0.3938 0.9882
H16_2 H 0.8876 0.2724 0.9760
C23_3 C 0.0405(3) 0.2023(4) 0.5895(5)
H17_3 H 0.0875 0.2150 0.6507
H18_3 H 0.0324 0.2616 0.5457
H19_3 H 0.0499 0.1402 0.5579
C22_3 C 0.8966(3) 0.1685(6) 0.5203(5)
H14_3 H 0.8492 0.1590 0.5364
H15_3 H 0.9051 0.1062 0.4882
H16_3 H 0.8876 0.2276 0.4760
N2_3 N 0.9687(3) 0.1878(3) 0.6108(3)
H20_3 H 0.9766 0.1334 0.6523
H21_3 H 0.9604 0.2451 0.6411
H15_4 H 0.0949 0.6062 0.0118
H16_4 H 0.1124 0.7276 0.0240
C22_4 C 0.1034(3) 0.6685(6) 0.9797(5)
H14_4 H 0.1508 0.6590 0.9636
N2_4 N 0.0313(3) 0.6878(3) 0.8892(3)
H20_4 H 0.0234 0.6334 0.8477
H21_4 H 0.0396 0.7451 0.8589
C23_4 C 0.9595(3) 0.7023(4) 0.9105(5)
H17_4 H 0.9125 0.7150 0.8493
H18_4 H 0.9676 0.7616 0.9543
H19_4 H 0.9501 0.6402 0.9421
loop_
_geom_bond_atom_site_label_1
_geom_bond_atom_site_label_2
_geom_bond_site_symmetry_1
_geom_bond_site_symmetry_2
Zn1 O4 1_555 1_555
O1 C1 1_555 1_555
O2 C1 1_555 1_555
O3 C2 1_555 1_555
O4 C6 1_555 1_555
O5 C6 1_555 1_555
C1 C2 1_555 1_555
C2 C3 1_555 1_555
C3 H1 1_555 1_555
C4 C3 1_555 1_555
H2 C4 1_555 1_555
C5 O3 1_555 1_555
C6 C5 1_555 1_555
Tb5 O1 1_555 1_555
Zn3 O2 1_555 1_555
O18 Zn1 1_555 1_555
O23 Zn1 1_555 1_555
C4 C5 1_555 1_555
Tb3 O21 1_555 1_555
O6 Tb1 1_555 1_555
O7 C7 1_555 1_555
O8 C8 1_555 1_555
O9 C12 1_555 1_555
O10 C12 1_555 1_555
O11 Tb1 1_555 1_555
O13 C14 1_555 1_555
O15 C18 1_555 1_555
O16 Tb1 1_555 1_555
C7 O6 1_555 1_555
C8 C7 1_555 1_555
C9 C8 1_555 1_555
H3 C9 1_555 1_555
C10 C9 1_555 1_555
H4 C10 1_555 1_555
C11 O8 1_555 1_555
C12 C11 1_555 1_555
C13 O11 1_555 1_555
C14 C13 1_555 1_555
C15 C14 1_555 1_555
H5 C15 1_555 1_555
C16 C15 1_555 1_555
H6 C16 1_555 1_555
C17 O13 1_555 1_555
C18 C17 1_555 1_555
C19 O16 1_555 1_555
H7 C19 1_555 1_555
C20 H8 1_555 1_555
H9 C20 1_555 1_555
H10 C20 1_555 1_555
C21 H11 1_555 1_555
H12 C21 1_555 1_555
H13 C21 1_555 1_555
N1 C19 1_555 1_555
Tb5 O9 1_555 1_555
O20 Tb1 1_555 1_555
O22 Tb1 1_555 1_555
O10 Tb5 1_555 1_555
O12 C13 1_555 1_555
C10 C11 1_555 1_555
C16 C17 1_555 1_555
C20 N1 1_555 1_555
C21 N1 1_555 1_555
Zn2 O14 1_555 1_555
O11_2 Tb2 1_555 1_555
O12_2 Zn2 1_555 1_555
O13_2 C14_2 1_555 1_555
O15_2 C18_2 1_555 1_555
O16_2 Tb2 1_555 1_555
C13_2 O11_2 1_555 1_555
C14_2 C13_2 1_555 1_555
C15_2 C14_2 1_555 1_555
H5_2 C15_2 1_555 1_555
C16_2 C15_2 1_555 1_555
H6_2 C16_2 1_555 1_555
C17_2 O13_2 1_555 1_555
C18_2 C17_2 1_555 1_555
H12_2 C21_2 1_555 1_555
H13_2 C21_2 1_555 1_555
O17_2 Tb2 1_555 1_555
O18_2 Zn2 1_555 1_555
O19_2 Tb2 1_555 1_555
O20_2 Tb2 1_555 1_555
O22_2 Tb2 1_555 1_555
O12_2 C13_2 1_555 1_555
C16_2 C17_2 1_555 1_555
O1_2 C1_2 1_555 1_555
O2_2 C1_2 1_555 1_555
O3_2 C2_2 1_555 1_555
O4_2 C6_2 1_555 1_555
O5_2 C6_2 1_555 1_555
O7_2 C7_2 1_555 1_555
O8_2 C8_2 1_555 1_555
O9_2 C12_2 1_555 1_555
O21 C12_2 1_555 1_555
C1_2 C2_2 1_555 1_555
C2_2 C3_2 1_555 1_555
C3_2 H1_2 1_555 1_555
C4_2 C3_2 1_555 1_555
H2_2 C4_2 1_555 1_555
C5_2 O3_2 1_555 1_555
C6_2 C5_2 1_555 1_555
C7_2 O6_2 1_555 1_555
C8_2 C7_2 1_555 1_555
C9_2 C8_2 1_555 1_555
H3_2 C9_2 1_555 1_555
C10_2 C9_2 1_555 1_555
H4_2 C10_2 1_555 1_555
C11_2 O8_2 1_555 1_555
C12_2 C11_2 1_555 1_555
H7_2 C19_2 1_555 1_555
C20_2 H8_2 1_555 1_555
H9_2 C20_2 1_555 1_555
H10_2 C20_2 1_555 1_555
N1_2 C19_2 1_555 1_555
Tb5 O7_2 1_555 1_555
Tb3 O9_2 1_555 1_555
Zn3_2 O2_2 1_555 1_555
C4_2 C5_2 1_555 1_555
C10_2 C11_2 1_555 1_555
C20_2 N1_2 1_555 1_555
Zn3 O14_2 1_555 1_555
O6_3 Tb3 1_555 1_555
O19 C7_3 1_555 1_555
O8_3 C8_3 1_555 1_555
O20_2 C12_3 1_555 1_555
O22_2 C12_3 1_555 1_555
O11_3 Tb3 1_555 1_555
O13_3 C14_3 1_555 1_555
O15_3 C18_3 1_555 1_555
O16_3 Tb3 1_555 1_555
C7_3 O6_3 1_555 1_555
C8_3 C7_3 1_555 1_555
C9_3 C8_3 1_555 1_555
H3_3 C9_3 1_555 1_555
C10_3 C9_3 1_555 1_555
H4_3 C10_3 1_555 1_555
C11_3 O8_3 1_555 1_555
C12_3 C11_3 1_555 1_555
C13_3 O11_3 1_555 1_555
C14_3 C13_3 1_555 1_555
C15_3 C14_3 1_555 1_555
H5_3 C15_3 1_555 1_555
C16_3 C15_3 1_555 1_555
H6_3 C16_3 1_555 1_555
C17_3 O13_3 1_555 1_555
C18_3 C17_3 1_555 1_555
C19_3 O16_3 1_555 1_555
H7_3 C19_3 1_555 1_555
C20_3 H8_3 1_555 1_555
H9_3 C20_3 1_555 1_555
H10_3 C20_3 1_555 1_555
C21_3 H11_3 1_555 1_555
H12_3 C21_3 1_555 1_555
H13_3 C21_3 1_555 1_555
N1_3 C19_3 1_555 1_555
O12_3 C13_3 1_555 1_555
C10_3 C11_3 1_555 1_555
C16_3 C17_3 1_555 1_555
C20_3 N1_3 1_555 1_555
C21_3 N1_3 1_555 1_555
Zn3_2 O4_3 1_555 1_555
O17_2 C1_3 1_555 1_555
O18_2 C1_3 1_555 1_555
O3_3 C2_3 1_555 1_555
O4_3 C6_3 1_555 1_555
O5_3 C6_3 1_555 1_555
C1_3 C2_3 1_555 1_555
C2_3 C3_3 1_555 1_555
C3_3 H1_3 1_555 1_555
C4_3 C3_3 1_555 1_555
H2_3 C4_3 1_555 1_555
C5_3 O3_3 1_555 1_555
C6_3 C5_3 1_555 1_555
O23_2 Zn3_2 1_555 1_555
C4_3 C5_3 1_555 1_555
O17 C1_4 1_555 1_555
O18 C1_4 1_555 1_555
O3_4 C2_4 1_555 1_555
O4_4 C6_4 1_555 1_555
O5_4 C6_4 1_555 1_555
O19_2 C7_4 1_555 1_555
O8_4 C8_4 1_555 1_555
O20 C12_4 1_555 1_555
O22 C12_4 1_555 1_555
C1_4 C2_4 1_555 1_555
C2_4 C3_4 1_555 1_555
C3_4 H1_4 1_555 1_555
C4_4 C3_4 1_555 1_555
H2_4 C4_4 1_555 1_555
C5_4 O3_4 1_555 1_555
C6_4 C5_4 1_555 1_555
C7_4 O6_4 1_555 1_555
C8_4 C7_4 1_555 1_555
C9_4 C8_4 1_555 1_555
H3_4 C9_4 1_555 1_555
C10_4 C9_4 1_555 1_555
H4_4 C10_4 1_555 1_555
C11_4 O8_4 1_555 1_555
C12_4 C11_4 1_555 1_555
H7_4 C19_4 1_555 1_555
C20_4 H8_4 1_555 1_555
H9_4 C20_4 1_555 1_555
H10_4 C20_4 1_555 1_555
N1_4 C19_4 1_555 1_555
C4_4 C5_4 1_555 1_555
C10_4 C11_4 1_555 1_555
C20_4 N1_4 1_555 1_555
O11_4 Tb5 1_555 1_555
O12_4 Zn3 1_555 1_555
O13_4 C14_4 1_555 1_555
O15_4 C18_4 1_555 1_555
O16_4 Tb5 1_555 1_555
C13_4 O11_4 1_555 1_555
C14_4 C13_4 1_555 1_555
C15_4 C14_4 1_555 1_555
H5_4 C15_4 1_555 1_555
C16_4 C15_4 1_555 1_555
H6_4 C16_4 1_555 1_555
C17_4 O13_4 1_555 1_555
C18_4 C17_4 1_555 1_555
H12_4 C21_4 1_555 1_555
H13_4 C21_4 1_555 1_555
O12_4 C13_4 1_555 1_555
C16_4 C17_4 1_555 1_555
C22 H14 1_555 1_555
H15 C22 1_555 1_555
H16 C22 1_555 1_555
N2 C22 1_555 1_555
H20 N2 1_555 1_555
H21 N2 1_555 1_555
C23 H17 1_555 1_555
H18 C23 1_555 1_555
H19 C23 1_555 1_555
C23_2 H17_2 1_555 1_555
H18_2 C23_2 1_555 1_555
H19_2 C23_2 1_555 1_555
C22_2 H14_2 1_555 1_555
N2_2 C22_2 1_555 1_555
H20_2 N2_2 1_555 1_555
H21_2 N2_2 1_555 1_555
C23_3 H17_3 1_555 1_555
H18_3 C23_3 1_555 1_555
H19_3 C23_3 1_555 1_555
C22_3 H14_3 1_555 1_555
H15_3 C22_3 1_555 1_555
H16_3 C22_3 1_555 1_555
N2_3 C22_3 1_555 1_555
H20_3 N2_3 1_555 1_555
H21_3 N2_3 1_555 1_555
C22_4 H14_4 1_555 1_555
N2_4 C22_4 1_555 1_555
H20_4 N2_4 1_555 1_555
H21_4 N2_4 1_555 1_555
C23_4 H17_4 1_555 1_555
H18_4 C23_4 1_555 1_555
H19_4 C23_4 1_555 1_555

#END
