
###############################################################################
#
# This file contains modified crystal structure data generated from the
# MOF subset of the Cambridge Structural Database (CSD) v543 
# hosted by the Cambridge Crystallographic Data Centre (CCDC).
#
# This work is licensed under the Creative Commons
# Attribution-NonCommercial-ShareAlike 4.0 International License.
# To view a copy of this license, visit
# http://creativecommons.org/licenses/by-nc-sa/4.0/
# or send a letter to
# Creative Commons, PO Box 1866, Mountain View, CA 94042, USA.
#
# CIF created using the CSD Python API on 29 September 2022
# The structure has been converted into the P1 space group
# The structure has a 3D framework
# The original CSD entry GEKFOU is in the monoclinic crystal system
# The framework has been calculated to contain at least 10.0% void space
# The void calculation uses a probe of radius 1.32A, grid spacing 0.4
#
###############################################################################

data_GEKFOU
_chemical_formula_moiety         '(C104 H72 Cd8 N8 O40)n'
_symmetry_cell_setting           triclinic
_symmetry_space_group_name_H-M   'P 1'
_symmetry_Int_Tables_number      1
_space_group_name_Hall           'P 1'
loop_
_symmetry_equiv_pos_site_id
_symmetry_equiv_pos_as_xyz
1 x,y,z
_cell_length_a                   7.4801(13)
_cell_length_b                   18.890(3)
_cell_length_c                   20.706(4)
_cell_angle_alpha                90
_cell_angle_beta                 91.063(3)
_cell_angle_gamma                90
_cell_volume                     2925.24
loop_
_atom_site_label
_atom_site_type_symbol
_atom_site_fract_x
_atom_site_fract_y
_atom_site_fract_z
C3 C 0.0586(15) 0.0960(6) 0.4207(5)
H2 H 0.0708 0.0961 0.4655
C4 C 0.0179(16) 0.0935(6) 0.2861(5)
C6 C 0.0819(14) 0.0337(6) 0.3184(5)
C7 C 0.1029(15) 0.0343(6) 0.3854(5)
C14 C 0.0019(15) 0.1555(6) 0.1105(5)
C15 C 0.0203(15) 0.1557(6) 0.1778(5)
H10 H 0.0577 0.1966 0.1992
O8 O 0.0846(13) 0.2755(5) 0.1014(4)
C21 C 0.0560(15) 0.2181(7) 0.0730(5)
O9 O 0.0821(12) 0.2113(5) 0.0119(4)
Cd5 Cd 0.16052(12) 0.35325(4) 0.02507(4)
Cd7 Cd 0.33948(12) 0.14675(4) 0.97493(4)
Cd3 Cd 0.66052(12) 0.85325(4) 0.02507(4)
Cd1 Cd 0.33948(12) 0.85325(4) 0.47493(4)
O2 O 0.2426(12) 0.9792(5) 0.4775(4)
O3 O 0.1812(12) 0.9122(5) 0.3920(4)
N1 N 0.4264(13) 0.8635(5) 0.5807(5)
C5 C 0.4871(17) 0.8709(7) 0.7180(7)
H3 H 0.1107 0.9932 0.2952
C8 C 0.4342(16) 0.9288(7) 0.6802(6)
H4 H 0.4213 0.9727 0.6999
C9 C 0.4006(17) 0.9232(8) 0.6149(6)
H5 H 0.3576 0.9628 0.5930
C10 C 0.1782(16) 0.9712(6) 0.4201(5)
C11 C 0.4913(18) 0.8082(7) 0.6144(6)
H6 H 0.5130 0.7667 0.5917
O5 O 0.6157(13) 0.9036(6) 0.4510(5)
H7 H 0.6594 0.9384 0.4719
H8 H 0.6838 0.8934 0.4208
C12 C 0.5271(19) 0.8078(7) 0.6773(6)
H9 H 0.5776 0.7678 0.6963
N2 N 0.5736(13) 0.8635(5) 0.9193(5)
C22 C 0.5129(17) 0.8709(7) 0.7820(7)
C23 C 0.5658(16) 0.9288(7) 0.8198(6)
H13 H 0.5787 0.9727 0.8001
C24 C 0.5994(17) 0.9232(8) 0.8851(6)
H14 H 0.6424 0.9628 0.9070
C25 C 0.5087(18) 0.8082(7) 0.8856(6)
H15 H 0.4870 0.7667 0.9083
C26 C 0.4729(19) 0.8078(7) 0.8227(6)
H16 H 0.4224 0.7678 0.8037
O11 O 0.4179(12) 0.7113(5) 0.4881(4)
O13 O 0.0821(12) 0.7887(5) 0.5119(4)
O15 O 0.4154(13) 0.7755(5) 0.3986(4)
C1 C 0.9981(15) 0.1555(6) 0.3895(5)
O1 O 0.9179(12) 0.2113(5) 0.4881(4)
C2 C 0.9797(15) 0.1557(6) 0.3222(5)
H1 H 0.9423 0.1966 0.3008
O4 O 0.9154(13) 0.2755(5) 0.3986(4)
C13 C 0.9440(15) 0.2181(7) 0.4270(5)
C16 C 0.9414(15) 0.0960(6) 0.0793(5)
H11 H 0.9292 0.0961 0.0345
C17 C 0.9821(16) 0.0935(6) 0.2139(5)
C18 C 0.9181(14) 0.0337(6) 0.1816(5)
C19 C 0.8971(15) 0.0343(6) 0.1146(5)
Cd4 Cd 0.83948(12) 0.35325(4) 0.47493(4)
Cd6 Cd 0.66052(12) 0.14675(4) 0.52507(4)
O6 O 0.7574(12) 0.9792(5) 0.0225(4)
O7 O 0.8188(12) 0.9122(5) 0.1080(4)
H12 H 0.8893 0.9932 0.2048
C20 C 0.8218(16) 0.9712(6) 0.0799(5)
O10 O 0.3843(13) 0.9036(6) 0.0490(5)
H17 H 0.3406 0.9384 0.0281
H18 H 0.3162 0.8934 0.0792
O12 O 0.5821(12) 0.7113(5) 0.0119(4)
O16 O 0.5846(13) 0.7755(5) 0.1014(4)
O14 O 0.9179(12) 0.7887(5) 0.9881(4)
H6_2 H 0.0130 0.2667 0.5917
O5_2 O 0.1157(13) 0.4036(6) 0.4510(5)
H7_2 H 0.1594 0.4384 0.4719
H8_2 H 0.1838 0.3934 0.4208
C12_2 C 0.0271(19) 0.3078(7) 0.6773(6)
H9_2 H 0.0776 0.2678 0.6963
N2_2 N 0.0736(13) 0.3635(5) 0.9193(5)
C22_2 C 0.0129(17) 0.3709(7) 0.7820(7)
C23_2 C 0.0658(16) 0.4288(7) 0.8198(6)
H13_2 H 0.0787 0.4727 0.8001
C24_2 C 0.0994(17) 0.4232(8) 0.8851(6)
H14_2 H 0.1424 0.4628 0.9070
C25_2 C 0.0087(18) 0.3082(7) 0.8856(6)
C1_2 C 0.4981(15) 0.6555(6) 0.3895(5)
O2_2 O 0.7426(12) 0.4792(5) 0.4775(4)
O3_2 O 0.6812(12) 0.4122(5) 0.3920(4)
N1_2 N 0.9264(13) 0.3635(5) 0.5807(5)
C2_2 C 0.4797(15) 0.6557(6) 0.3222(5)
H1_2 H 0.4423 0.6966 0.3008
C3_2 C 0.5586(15) 0.5960(6) 0.4207(5)
H2_2 H 0.5708 0.5961 0.4655
C4_2 C 0.5179(16) 0.5935(6) 0.2861(5)
C5_2 C 0.9871(17) 0.3709(7) 0.7180(7)
C6_2 C 0.5819(14) 0.5337(6) 0.3184(5)
H3_2 H 0.6107 0.4932 0.2952
C7_2 C 0.6029(15) 0.5343(6) 0.3854(5)
C8_2 C 0.9342(16) 0.4288(7) 0.6802(6)
H4_2 H 0.9213 0.4727 0.6999
C9_2 C 0.9006(17) 0.4232(8) 0.6149(6)
H5_2 H 0.8576 0.4628 0.5930
C10_2 C 0.6782(16) 0.4712(6) 0.4201(5)
C11_2 C 0.9913(18) 0.3082(7) 0.6144(6)
C13_2 C 0.4440(15) 0.7181(7) 0.4270(5)
C14_2 C 0.5019(15) 0.6555(6) 0.1105(5)
O6_2 O 0.2574(12) 0.4792(5) 0.0225(4)
O7_2 O 0.3188(12) 0.4122(5) 0.1080(4)
C15_2 C 0.5203(15) 0.6557(6) 0.1778(5)
H10_2 H 0.5577 0.6966 0.1992
C16_2 C 0.4414(15) 0.5960(6) 0.0793(5)
H11_2 H 0.4292 0.5961 0.0345
C17_2 C 0.4821(16) 0.5935(6) 0.2139(5)
C18_2 C 0.4181(14) 0.5337(6) 0.1816(5)
H12_2 H 0.3893 0.4932 0.2048
C19_2 C 0.3971(15) 0.5343(6) 0.1146(5)
C20_2 C 0.3218(16) 0.4712(6) 0.0799(5)
C21_2 C 0.5560(15) 0.7181(7) 0.0730(5)
H15_2 H 0.9870 0.2667 0.9083
C26_2 C 0.9729(19) 0.3078(7) 0.8227(6)
H16_2 H 0.9224 0.2678 0.8037
Cd6_2 Cd 0.16052(12) 0.64675(4) 0.52507(4)
O13_2 O 0.5821(12) 0.2887(5) 0.5119(4)
Cd7_2 Cd 0.83948(12) 0.64675(4) 0.97493(4)
O14_2 O 0.4179(12) 0.2887(5) 0.9881(4)
N3 N 0.4264(13) 0.1365(5) 0.0807(5)
O6_3 O 0.2426(12) 0.0208(5) 0.9775(4)
O7_3 O 0.1812(12) 0.0878(5) 0.8920(4)
H12_3 H 0.1107 0.0068 0.7952
C20_3 C 0.1782(16) 0.0288(6) 0.9201(5)
O10_2 O 0.6157(13) 0.0964(6) 0.9510(5)
H17_2 H 0.6594 0.0616 0.9719
H18_2 H 0.6838 0.1066 0.9208
O16_2 O 0.4154(13) 0.2245(5) 0.8986(4)
C1_3 C 0.0019(15) 0.8445(6) 0.6105(5)
C2_3 C 0.0203(15) 0.8443(6) 0.6778(5)
H1_3 H 0.0577 0.8034 0.6992
O4_2 O 0.0846(13) 0.7245(5) 0.6014(4)
C13_3 C 0.0560(15) 0.7819(7) 0.5730(5)
C16_3 C 0.0586(15) 0.9040(6) 0.9207(5)
H11_3 H 0.0708 0.9039 0.9655
C17_3 C 0.0179(16) 0.9065(6) 0.7861(5)
C18_3 C 0.0819(14) 0.9663(6) 0.8184(5)
C19_3 C 0.1029(15) 0.9657(6) 0.8854(5)
O2_3 O 0.7574(12) 0.0208(5) 0.5225(4)
O3_3 O 0.8188(12) 0.0878(5) 0.6080(4)
N1_3 N 0.5736(13) 0.1365(5) 0.4193(5)
C5_3 C 0.5129(17) 0.1291(7) 0.2820(7)
H3_3 H 0.8893 0.0068 0.7048
C8_3 C 0.5658(16) 0.0712(7) 0.3198(6)
H4_3 H 0.5787 0.0273 0.3001
C9_3 C 0.5994(17) 0.0768(8) 0.3851(6)
H5_3 H 0.6424 0.0372 0.4070
C10_3 C 0.8218(16) 0.0288(6) 0.5799(5)
C11_3 C 0.5087(18) 0.1918(7) 0.3856(6)
H6_3 H 0.4870 0.2333 0.4083
O5_3 O 0.3843(13) 0.0964(6) 0.5490(5)
H7_3 H 0.3406 0.0616 0.5281
H8_3 H 0.3162 0.1066 0.5792
C12_3 C 0.4729(19) 0.1922(7) 0.3227(6)
H9_3 H 0.4224 0.2322 0.3037
C22_3 C 0.4871(17) 0.1291(7) 0.2180(7)
C23_3 C 0.4342(16) 0.0712(7) 0.1802(6)
H13_3 H 0.4213 0.0273 0.1999
C24_3 C 0.4006(17) 0.0768(8) 0.1149(6)
H14_3 H 0.3576 0.0372 0.0930
C25_3 C 0.4913(18) 0.1918(7) 0.1144(6)
H15_3 H 0.5130 0.2333 0.0917
C26_3 C 0.5271(19) 0.1922(7) 0.1773(6)
H16_3 H 0.5776 0.2322 0.1963
O15_2 O 0.5846(13) 0.2245(5) 0.6014(4)
C3_3 C 0.9414(15) 0.9040(6) 0.5793(5)
H2_3 H 0.9292 0.9039 0.5345
C4_3 C 0.9821(16) 0.9065(6) 0.7139(5)
C6_3 C 0.9181(14) 0.9663(6) 0.6816(5)
C7_3 C 0.8971(15) 0.9657(6) 0.6146(5)
C14_3 C 0.9981(15) 0.8445(6) 0.8895(5)
C15_3 C 0.9797(15) 0.8443(6) 0.8222(5)
H10_3 H 0.9423 0.8034 0.8008
O8_2 O 0.9154(13) 0.7245(5) 0.8986(4)
C21_3 C 0.9440(15) 0.7819(7) 0.9270(5)
N3_2 N 0.9264(13) 0.6365(5) 0.0807(5)
C1_4 C 0.5019(15) 0.3445(6) 0.6105(5)
O2_4 O 0.2574(12) 0.5208(5) 0.5225(4)
O3_4 O 0.3188(12) 0.5878(5) 0.6080(4)
N1_4 N 0.0736(13) 0.6365(5) 0.4193(5)
C2_4 C 0.5203(15) 0.3443(6) 0.6778(5)
H1_4 H 0.5577 0.3034 0.6992
C3_4 C 0.4414(15) 0.4040(6) 0.5793(5)
H2_4 H 0.4292 0.4039 0.5345
C4_4 C 0.4821(16) 0.4065(6) 0.7139(5)
C5_4 C 0.0129(17) 0.6291(7) 0.2820(7)
C6_4 C 0.4181(14) 0.4663(6) 0.6816(5)
H3_4 H 0.3893 0.5068 0.7048
C7_4 C 0.3971(15) 0.4657(6) 0.6146(5)
C8_4 C 0.0658(16) 0.5712(7) 0.3198(6)
H4_4 H 0.0787 0.5273 0.3001
C9_4 C 0.0994(17) 0.5768(8) 0.3851(6)
H5_4 H 0.1424 0.5372 0.4070
C10_4 C 0.3218(16) 0.5288(6) 0.5799(5)
C11_4 C 0.0087(18) 0.6918(7) 0.3856(6)
C13_4 C 0.5560(15) 0.2819(7) 0.5730(5)
C14_4 C 0.4981(15) 0.3445(6) 0.8895(5)
O6_4 O 0.7426(12) 0.5208(5) 0.9775(4)
O7_4 O 0.6812(12) 0.5878(5) 0.8920(4)
C15_4 C 0.4797(15) 0.3443(6) 0.8222(5)
H10_4 H 0.4423 0.3034 0.8008
C16_4 C 0.5586(15) 0.4040(6) 0.9207(5)
H11_4 H 0.5708 0.4039 0.9655
C17_4 C 0.5179(16) 0.4065(6) 0.7861(5)
C18_4 C 0.5819(14) 0.4663(6) 0.8184(5)
H12_4 H 0.6107 0.5068 0.7952
C19_4 C 0.6029(15) 0.4657(6) 0.8854(5)
C20_4 C 0.6782(16) 0.5288(6) 0.9201(5)
C21_4 C 0.4440(15) 0.2819(7) 0.9270(5)
H15_4 H 0.0130 0.7333 0.0917
C26_4 C 0.0271(19) 0.6922(7) 0.1773(6)
H16_4 H 0.0776 0.7322 0.1963
H6_4 H 0.9870 0.7333 0.4083
O5_4 O 0.8843(13) 0.5964(6) 0.5490(5)
H7_4 H 0.8406 0.5616 0.5281
H8_4 H 0.8162 0.6066 0.5792
C12_4 C 0.9729(19) 0.6922(7) 0.3227(6)
H9_4 H 0.9224 0.7322 0.3037
C22_4 C 0.9871(17) 0.6291(7) 0.2180(7)
C23_4 C 0.9342(16) 0.5712(7) 0.1802(6)
H13_4 H 0.9213 0.5273 0.1999
C24_4 C 0.9006(17) 0.5768(8) 0.1149(6)
H14_4 H 0.8576 0.5372 0.0930
C25_4 C 0.9913(18) 0.6918(7) 0.1144(6)
O10_3 O 0.8843(13) 0.4036(6) 0.0490(5)
H17_3 H 0.8406 0.4384 0.0281
H18_3 H 0.8162 0.3934 0.0792
O10_4 O 0.1157(13) 0.5964(6) 0.9510(5)
H17_4 H 0.1594 0.5616 0.9719
H18_4 H 0.1838 0.6066 0.9208
loop_
_geom_bond_atom_site_label_1
_geom_bond_atom_site_label_2
_geom_bond_site_symmetry_1
_geom_bond_site_symmetry_2
H2 C3 1_555 1_555
C6 C4 1_555 1_555
C7 C3 1_555 1_555
C14 C15 1_555 1_555
C15 H10 1_555 1_555
O8 C21 1_555 1_555
C21 C14 1_555 1_555
O9 C21 1_555 1_555
Cd5 O8 1_555 1_555
C6 C7 1_555 1_555
O9 Cd5 1_555 1_555
Cd1 O2 1_555 1_555
O2 C10 1_555 1_555
O3 Cd1 1_555 1_555
N1 Cd1 1_555 1_555
C5 C8 1_555 1_555
C8 H4 1_555 1_555
C9 N1 1_555 1_555
H5 C9 1_555 1_555
C10 O3 1_555 1_555
C11 N1 1_555 1_555
H6 C11 1_555 1_555
O5 Cd1 1_555 1_555
H7 O5 1_555 1_555
H8 O5 1_555 1_555
C12 C5 1_555 1_555
H9 C12 1_555 1_555
N2 C24 1_555 1_555
C22 C5 1_555 1_555
C23 C22 1_555 1_555
H13 C23 1_555 1_555
C24 C23 1_555 1_555
H14 C24 1_555 1_555
C25 N2 1_555 1_555
H15 C25 1_555 1_555
C26 C22 1_555 1_555
H16 C26 1_555 1_555
O11 Cd1 1_555 1_555
O13 Cd1 1_555 1_555
O15 Cd1 1_555 1_555
C8 C9 1_555 1_555
C11 C12 1_555 1_555
C25 C26 1_555 1_555
C1 C2 1_555 1_555
O1 C13 1_555 1_555
C2 H1 1_555 1_555
O4 C13 1_555 1_555
C13 C1 1_555 1_555
H11 C16 1_555 1_555
C18 C17 1_555 1_555
C19 C16 1_555 1_555
Cd4 O1 1_555 1_555
Cd6 O1 1_555 1_555
O4 Cd4 1_555 1_555
C18 C19 1_555 1_555
O6 C20 1_555 1_555
O7 C20 1_555 1_555
Cd3 O6 1_555 1_555
O10 Cd3 1_555 1_555
H17 O10 1_555 1_555
H18 O10 1_555 1_555
O12 Cd3 1_555 1_555
O16 Cd3 1_555 1_555
O7 Cd3 1_555 1_555
H7_2 O5_2 1_555 1_555
H8_2 O5_2 1_555 1_555
H9_2 C12_2 1_555 1_555
N2_2 C24_2 1_555 1_555
C23_2 C22_2 1_555 1_555
H13_2 C23_2 1_555 1_555
C24_2 C23_2 1_555 1_555
H14_2 C24_2 1_555 1_555
C25_2 N2_2 1_555 1_555
Cd4 O2_2 1_555 1_555
C1_2 C2_2 1_555 1_555
O11 C13_2 1_555 1_555
O2_2 C10_2 1_555 1_555
O3_2 Cd4 1_555 1_555
N1_2 Cd4 1_555 1_555
C2_2 H1_2 1_555 1_555
C3_2 C1_2 1_555 1_555
H2_2 C3_2 1_555 1_555
O15 C13_2 1_555 1_555
C4_2 C2_2 1_555 1_555
C5_2 C8_2 1_555 1_555
C6_2 C4_2 1_555 1_555
H3_2 C6_2 1_555 1_555
C7_2 C3_2 1_555 1_555
C8_2 H4_2 1_555 1_555
C9_2 N1_2 1_555 1_555
H5_2 C9_2 1_555 1_555
C10_2 O3_2 1_555 1_555
C11_2 N1_2 1_555 1_555
C13_2 C1_2 1_555 1_555
C14_2 C15_2 1_555 1_555
O6_2 C20_2 1_555 1_555
O7_2 C20_2 1_555 1_555
C15_2 H10_2 1_555 1_555
C16_2 C14_2 1_555 1_555
H11_2 C16_2 1_555 1_555
C17_2 C4_2 1_555 1_555
C18_2 C17_2 1_555 1_555
H12_2 C18_2 1_555 1_555
C19_2 C16_2 1_555 1_555
C20_2 C19_2 1_555 1_555
O16 C21_2 1_555 1_555
C21_2 C14_2 1_555 1_555
O12 C21_2 1_555 1_555
H16_2 C26_2 1_555 1_555
Cd5 O6_2 1_555 1_555
Cd6_2 O11 1_555 1_555
O13_2 Cd4 1_555 1_555
C6_2 C7_2 1_555 1_555
C7_2 C10_2 1_555 1_555
C8_2 C9_2 1_555 1_555
O7_2 Cd5 1_555 1_555
C15_2 C17_2 1_555 1_555
C18_2 C19_2 1_555 1_555
O6_3 C20_3 1_555 1_555
O7_3 C20_3 1_555 1_555
Cd7 O6_3 1_555 1_555
O10_2 Cd7 1_555 1_555
H17_2 O10_2 1_555 1_555
H18_2 O10_2 1_555 1_555
O14_2 Cd7 1_555 1_555
O16_2 Cd7 1_555 1_555
O7_3 Cd7 1_555 1_555
C1_3 C2_3 1_555 1_555
O13 C13_3 1_555 1_555
C2_3 H1_3 1_555 1_555
O4_2 C13_3 1_555 1_555
C13_3 C1_3 1_555 1_555
H11_3 C16_3 1_555 1_555
C18_3 C17_3 1_555 1_555
C19_3 C16_3 1_555 1_555
Cd6_2 O13 1_555 1_555
O4_2 Cd6_2 1_555 1_555
C18_3 C19_3 1_555 1_555
Cd6 O2_3 1_555 1_555
O2_3 C10_3 1_555 1_555
O3_3 Cd6 1_555 1_555
N1_3 Cd6 1_555 1_555
C5_3 C8_3 1_555 1_555
C8_3 H4_3 1_555 1_555
C9_3 N1_3 1_555 1_555
H5_3 C9_3 1_555 1_555
C10_3 O3_3 1_555 1_555
C11_3 N1_3 1_555 1_555
H6_3 C11_3 1_555 1_555
O5_3 Cd6 1_555 1_555
H7_3 O5_3 1_555 1_555
H8_3 O5_3 1_555 1_555
C12_3 C5_3 1_555 1_555
H9_3 C12_3 1_555 1_555
N3 C24_3 1_555 1_555
C22_3 C5_3 1_555 1_555
C23_3 C22_3 1_555 1_555
H13_3 C23_3 1_555 1_555
C24_3 C23_3 1_555 1_555
H14_3 C24_3 1_555 1_555
C25_3 N3 1_555 1_555
H15_3 C25_3 1_555 1_555
C26_3 C22_3 1_555 1_555
H16_3 C26_3 1_555 1_555
O13_2 Cd6 1_555 1_555
O15_2 Cd6 1_555 1_555
C8_3 C9_3 1_555 1_555
C11_3 C12_3 1_555 1_555
C25_3 C26_3 1_555 1_555
H2_3 C3_3 1_555 1_555
C6_3 C4_3 1_555 1_555
C7_3 C3_3 1_555 1_555
C14_3 C15_3 1_555 1_555
C15_3 H10_3 1_555 1_555
O8_2 C21_3 1_555 1_555
C21_3 C14_3 1_555 1_555
O14 C21_3 1_555 1_555
Cd7_2 O8_2 1_555 1_555
C6_3 C7_3 1_555 1_555
O14 Cd7_2 1_555 1_555
Cd6_2 O2_4 1_555 1_555
C1_4 C2_4 1_555 1_555
O13_2 C13_4 1_555 1_555
O2_4 C10_4 1_555 1_555
O3_4 Cd6_2 1_555 1_555
N1_4 Cd6_2 1_555 1_555
C2_4 H1_4 1_555 1_555
C3_4 C1_4 1_555 1_555
H2_4 C3_4 1_555 1_555
O15_2 C13_4 1_555 1_555
C4_4 C2_4 1_555 1_555
C5_4 C8_4 1_555 1_555
C6_4 C4_4 1_555 1_555
H3_4 C6_4 1_555 1_555
C7_4 C3_4 1_555 1_555
C8_4 H4_4 1_555 1_555
C9_4 N1_4 1_555 1_555
H5_4 C9_4 1_555 1_555
C10_4 O3_4 1_555 1_555
C11_4 N1_4 1_555 1_555
C13_4 C1_4 1_555 1_555
C14_4 C15_4 1_555 1_555
O6_4 C20_4 1_555 1_555
O7_4 C20_4 1_555 1_555
C15_4 H10_4 1_555 1_555
C16_4 C14_4 1_555 1_555
H11_4 C16_4 1_555 1_555
C17_4 C4_4 1_555 1_555
C18_4 C17_4 1_555 1_555
H12_4 C18_4 1_555 1_555
C19_4 C16_4 1_555 1_555
C20_4 C19_4 1_555 1_555
O16_2 C21_4 1_555 1_555
C21_4 C14_4 1_555 1_555
O14_2 C21_4 1_555 1_555
H16_4 C26_4 1_555 1_555
Cd7_2 O6_4 1_555 1_555
C6_4 C7_4 1_555 1_555
C7_4 C10_4 1_555 1_555
C8_4 C9_4 1_555 1_555
O7_4 Cd7_2 1_555 1_555
C15_4 C17_4 1_555 1_555
C18_4 C19_4 1_555 1_555
H7_4 O5_4 1_555 1_555
H8_4 O5_4 1_555 1_555
H9_4 C12_4 1_555 1_555
N3_2 C24_4 1_555 1_555
C23_4 C22_4 1_555 1_555
H13_4 C23_4 1_555 1_555
C24_4 C23_4 1_555 1_555
H14_4 C24_4 1_555 1_555
C25_4 N3_2 1_555 1_555
H17_3 O10_3 1_555 1_555
H18_3 O10_3 1_555 1_555
H17_4 O10_4 1_555 1_555
H18_4 O10_4 1_555 1_555

#END
