
###############################################################################
#
# This file contains modified crystal structure data generated from the
# MOF subset of the Cambridge Structural Database (CSD) v543 
# hosted by the Cambridge Crystallographic Data Centre (CCDC).
#
# This work is licensed under the Creative Commons
# Attribution-NonCommercial-ShareAlike 4.0 International License.
# To view a copy of this license, visit
# http://creativecommons.org/licenses/by-nc-sa/4.0/
# or send a letter to
# Creative Commons, PO Box 1866, Mountain View, CA 94042, USA.
#
# CIF created using the CSD Python API on 29 September 2022
# The structure has been converted into the P1 space group
# The structure has a 3D framework
# The original CSD entry GENMOE is in the triclinic crystal system
# The framework has been calculated to contain at least 10.0% void space
# The void calculation uses a probe of radius 1.32A, grid spacing 0.4
#
###############################################################################

data_GENMOE
_chemical_formula_moiety         '(C26 H50 Er6 N2 O48 P2)n'
_symmetry_cell_setting           triclinic
_symmetry_space_group_name_H-M   'P 1'
_symmetry_Int_Tables_number      1
_space_group_name_Hall           'P 1'
loop_
_symmetry_equiv_pos_site_id
_symmetry_equiv_pos_as_xyz
1 x,y,z
_cell_length_a                   10.7984(4)
_cell_length_b                   12.0726(5)
_cell_length_c                   14.4123(6)
_cell_angle_alpha                93.4510(10)
_cell_angle_beta                 102.587(2)
_cell_angle_gamma                112.7150(10)
_cell_volume                     1669.59
loop_
_atom_site_label
_atom_site_type_symbol
_atom_site_fract_x
_atom_site_fract_y
_atom_site_fract_z
C10 C 0.0776(11) 0.1863(9) 0.4642(7)
H7 H 0.1234 0.1766 0.5270
H8 H 0.0665 0.2620 0.4719
C11 C 0.1716(11) 0.1967(9) 0.3981(7)
H9 H 0.1958 0.1265 0.3945
C12 C 0.0963(9) 0.2109(9) 0.2960(6)
H10 H 0.0812 0.2850 0.2995
H11 H 0.1514 0.2133 0.2506
C13 C 0.3054(10) 0.3202(9) 0.4259(7)
O16 O 0.4022(7) 0.3088(6) 0.4048(5)
O17 O 0.3076(7) 0.4172(7) 0.4624(5)
H14 H 0.4850 0.3046 0.0301
O20 O 0.2214(6) 0.2031(5) 0.0307(4)
H16 H 0.1383 0.1830 0.0346
H17 H 0.2411 0.1414 0.0315
Er7 Er 0.36459(4) 0.59278(4) 0.56691(3)
Er8 Er 0.63541(4) 0.40722(4) 0.43309(3)
Er1 Er 0.24524(4) 0.28074(4) 0.88284(3)
O5 O 0.0616(7) 0.3128(6) 0.9265(5)
O6 O 0.0212(6) 0.1172(6) 0.8101(4)
O18 O 0.2963(8) 0.4884(6) 0.9392(5)
H12 H 0.2245 0.4695 0.9725
H13 H 0.2663 0.5244 0.8859
O19 O 0.4819(6) 0.3517(6) 0.9790(4)
H15 H 0.5161 0.3241 0.9303
O25 O 0.3892(6) 0.3301(6) 0.7746(4)
O26 O 0.1546(6) 0.3515(7) 0.7489(5)
O28 O 0.2913(6) 0.1166(6) 0.8548(4)
C7 C 0.8844(10) 0.1123(10) 0.1623(7)
H1 H 0.9431 0.1125 0.1200
H2 H 0.8791 0.1908 0.1667
C8 C 0.8702(10) 0.1017(13) 0.3328(6)
H3 H 0.7768 0.0383 0.3094
H4 H 0.8637 0.1797 0.3370
C9 C 0.9374(11) 0.0848(10) 0.4315(8)
H5 H 0.8823 0.0868 0.4760
H6 H 0.9449 0.0072 0.4280
N1 N 0.9542(8) 0.0963(8) 0.2647(6)
O14 O 0.6087(7) 0.0314(6) 0.1392(4)
H20 H 0.6790 0.2293 0.0285
H21 H 0.5523 0.1391 0.0276
C3 C 0.9425(10) 0.2285(8) 0.8980(7)
C4 C 0.9186(10) 0.1230(9) 0.8314(7)
Er2 Er 0.62046(4) 0.05705(4) 0.86781(3)
O7 O 0.7947(7) 0.0420(6) 0.8026(5)
O8 O 0.8347(6) 0.2279(6) 0.9260(5)
O21 O 0.5787(6) 0.2113(6) 0.7959(4)
H18 H 0.5779 0.2023 0.7368
H19 H 0.5005 0.2083 0.8009
O22 O 0.5987(6) 0.1835(6) 0.9929(4)
O13 O 0.7068(7) 0.9963(6) 0.0018(4)
O15 O 0.7087(6) 0.8834(6) 0.1452(4)
P1 P 0.7137(3) 0.9965(2) 0.10997(18)
Er5 Er 0.75476(4) 0.71926(4) 0.11716(3)
Er6 Er 0.37954(4) 0.94295(4) 0.13219(3)
C1 C 0.3671(8) 0.3945(8) 0.7153(6)
C2 C 0.2286(9) 0.4058(8) 0.6990(6)
C5 C 0.4690(10) 0.8637(8) 0.6731(6)
C6 C 0.4914(10) 0.7907(9) 0.7531(7)
O2 O 0.4350(6) 0.4565(5) 0.6570(4)
O3 O 0.1665(7) 0.4594(6) 0.6371(5)
O9 O 0.5127(6) 0.9773(6) 0.6956(4)
O10 O 0.5585(7) 0.8487(6) 0.8329(4)
O11 O 0.4345(7) 0.6767(6) 0.7290(4)
O12 O 0.3970(7) 0.8032(6) 0.5912(4)
O23 O 0.4062(7) 0.6670(5) 0.4196(4)
H22 H 0.4232 0.6170 0.3858
H23 H 0.3224 0.6532 0.3920
O24 O 0.1512(7) 0.6130(6) 0.5023(5)
H24 H 0.1230 0.6241 0.4454
H25 H 0.1033 0.6078 0.5518
O27 O 0.3913(7) 0.9686(6) 0.8608(4)
O29 O 0.5978(7) 0.6912(6) 0.5952(5)
C1_2 C 0.6329(8) 0.6055(8) 0.2847(6)
C2_2 C 0.7714(9) 0.5942(8) 0.3010(6)
C5_2 C 0.5310(10) 0.1363(8) 0.3269(6)
C6_2 C 0.5086(10) 0.2093(9) 0.2469(7)
O1 O 0.6108(6) 0.6699(6) 0.2254(4)
O2_2 O 0.5650(6) 0.5435(5) 0.3430(4)
O3_2 O 0.8335(7) 0.5406(6) 0.3629(5)
O4 O 0.8454(6) 0.6485(7) 0.2511(5)
O9_2 O 0.4873(6) 0.0227(6) 0.3044(4)
O10_2 O 0.4415(7) 0.1513(6) 0.1671(4)
O11_2 O 0.5655(7) 0.3233(6) 0.2710(4)
O12_2 O 0.6030(7) 0.1968(6) 0.4088(4)
O23_2 O 0.5938(7) 0.3330(5) 0.5804(4)
H22_2 H 0.5768 0.3830 0.6142
H23_2 H 0.6776 0.3468 0.6080
O24_2 O 0.8488(7) 0.3870(6) 0.4977(5)
H24_2 H 0.8770 0.3759 0.5546
H25_2 H 0.8967 0.3922 0.4482
O30 O 0.6924(7) 0.5828(7) 0.5376(5)
O13_2 O 0.2932(7) 0.0037(6) 0.9982(4)
P1_2 P 0.2863(3) 0.0035(2) 0.89003(18)
C3_2 C 0.0575(10) 0.7715(8) 0.1020(7)
C4_2 C 0.0814(10) 0.8770(9) 0.1686(7)
O7_2 O 0.2053(7) 0.9580(6) 0.1974(5)
O8_2 O 0.1653(6) 0.7721(6) 0.0740(5)
O21_2 O 0.4213(6) 0.7887(6) 0.2041(4)
H18_2 H 0.4221 0.7977 0.2632
H19_2 H 0.4995 0.7917 0.1991
O22_2 O 0.4013(6) 0.8165(6) 0.0071(4)
C7_2 C 0.1156(10) 0.8877(10) 0.8377(7)
H1_2 H 0.0569 0.8875 0.8800
H2_2 H 0.1209 0.8092 0.8333
C8_2 C 0.1298(10) 0.8983(13) 0.6672(6)
H3_2 H 0.2232 0.9617 0.6906
H4_2 H 0.1363 0.8203 0.6630
C9_2 C 0.0626(11) 0.9152(10) 0.5685(8)
H5_2 H 0.1177 0.9132 0.5240
H6_2 H 0.0551 0.9928 0.5720
N1_2 N 0.0458(8) 0.9037(8) 0.7353(6)
H20_2 H 0.3210 0.7707 0.9715
H21_2 H 0.4477 0.8609 0.9724
O5_2 O 0.9384(7) 0.6872(6) 0.0735(5)
O6_2 O 0.9788(6) 0.8828(6) 0.1899(4)
O18_2 O 0.7037(8) 0.5116(6) 0.0608(5)
H12_2 H 0.7755 0.5305 0.0275
H13_2 H 0.7337 0.4756 0.1141
O19_2 O 0.5181(6) 0.6483(6) 0.0210(4)
H15_2 H 0.4839 0.6759 0.0697
C10_2 C 0.9224(11) 0.8137(9) 0.5358(7)
H7_2 H 0.8766 0.8234 0.4730
H8_2 H 0.9335 0.7380 0.5281
C11_2 C 0.8284(11) 0.8033(9) 0.6019(7)
H9_2 H 0.8042 0.8735 0.6055
C12_2 C 0.9037(9) 0.7891(9) 0.7040(6)
H10_2 H 0.9188 0.7150 0.7005
H11_2 H 0.8486 0.7867 0.7494
C13_2 C 0.6946(10) 0.6798(9) 0.5741(7)
H14_2 H 0.5150 0.6954 0.9699
O20_2 O 0.7786(6) 0.7969(5) 0.9693(4)
H16_2 H 0.8617 0.8170 0.9654
H17_2 H 0.7589 0.8586 0.9685
loop_
_geom_bond_atom_site_label_1
_geom_bond_atom_site_label_2
_geom_bond_site_symmetry_1
_geom_bond_site_symmetry_2
H7 C10 1_555 1_555
H8 C10 1_555 1_555
C11 C10 1_555 1_555
H9 C11 1_555 1_555
C12 C11 1_555 1_555
H10 C12 1_555 1_555
H11 C12 1_555 1_555
C13 C11 1_555 1_555
O16 C13 1_555 1_555
O17 C13 1_555 1_555
H16 O20 1_555 1_555
H17 O20 1_555 1_555
Er7 O17 1_555 1_555
Er8 O16 1_555 1_555
Er1 O5 1_555 1_555
O6 Er1 1_555 1_555
O18 Er1 1_555 1_555
H12 O18 1_555 1_555
H13 O18 1_555 1_555
O19 Er1 1_555 1_555
H15 O19 1_555 1_555
O25 Er1 1_555 1_555
O26 Er1 1_555 1_555
O28 Er1 1_555 1_555
C7 H1 1_555 1_555
H2 C7 1_555 1_555
C8 H3 1_555 1_555
H4 C8 1_555 1_555
C9 C8 1_555 1_555
H5 C9 1_555 1_555
H6 C9 1_555 1_555
N1 C7 1_555 1_555
C8 N1 1_555 1_555
C3 C4 1_555 1_555
Er2 O7 1_555 1_555
O7 C4 1_555 1_555
O8 C3 1_555 1_555
O21 Er2 1_555 1_555
H18 O21 1_555 1_555
H19 O21 1_555 1_555
O22 Er2 1_555 1_555
Er2 O8 1_555 1_555
O15 P1 1_555 1_555
Er5 O15 1_555 1_555
O13 P1 1_555 1_555
C1 C2 1_555 1_555
C2 O3 1_555 1_555
C5 C6 1_555 1_555
C6 O10 1_555 1_555
Er7 O2 1_555 1_555
O25 C1 1_555 1_555
O2 C1 1_555 1_555
O3 Er7 1_555 1_555
O26 C2 1_555 1_555
O9 C5 1_555 1_555
O11 C6 1_555 1_555
O12 C5 1_555 1_555
O23 Er7 1_555 1_555
H22 O23 1_555 1_555
H23 O23 1_555 1_555
O24 Er7 1_555 1_555
H24 O24 1_555 1_555
H25 O24 1_555 1_555
O29 Er7 1_555 1_555
Er7 O11 1_555 1_555
Er7 O12 1_555 1_555
C1_2 C2_2 1_555 1_555
C2_2 O3_2 1_555 1_555
C5_2 C6_2 1_555 1_555
C6_2 O10_2 1_555 1_555
Er8 O2_2 1_555 1_555
O1 C1_2 1_555 1_555
O2_2 C1_2 1_555 1_555
O3_2 Er8 1_555 1_555
O4 C2_2 1_555 1_555
O9_2 C5_2 1_555 1_555
O11_2 C6_2 1_555 1_555
O12_2 C5_2 1_555 1_555
O23_2 Er8 1_555 1_555
H22_2 O23_2 1_555 1_555
H23_2 O23_2 1_555 1_555
O24_2 Er8 1_555 1_555
H24_2 O24_2 1_555 1_555
H25_2 O24_2 1_555 1_555
Er5 O1 1_555 1_555
O30 Er8 1_555 1_555
Er8 O11_2 1_555 1_555
Er8 O12_2 1_555 1_555
O4 Er5 1_555 1_555
O28 P1_2 1_555 1_555
O13_2 P1_2 1_555 1_555
C3_2 C4_2 1_555 1_555
Er6 O7_2 1_555 1_555
O7_2 C4_2 1_555 1_555
O8_2 C3_2 1_555 1_555
O21_2 Er6 1_555 1_555
H18_2 O21_2 1_555 1_555
H19_2 O21_2 1_555 1_555
O22_2 Er6 1_555 1_555
Er6 O8_2 1_555 1_555
C7_2 H1_2 1_555 1_555
H2_2 C7_2 1_555 1_555
C8_2 H3_2 1_555 1_555
H4_2 C8_2 1_555 1_555
C9_2 C8_2 1_555 1_555
H5_2 C9_2 1_555 1_555
H6_2 C9_2 1_555 1_555
N1_2 C7_2 1_555 1_555
C8_2 N1_2 1_555 1_555
Er5 O5_2 1_555 1_555
O6_2 Er5 1_555 1_555
O18_2 Er5 1_555 1_555
H12_2 O18_2 1_555 1_555
H13_2 O18_2 1_555 1_555
O19_2 Er5 1_555 1_555
H15_2 O19_2 1_555 1_555
H7_2 C10_2 1_555 1_555
H8_2 C10_2 1_555 1_555
C11_2 C10_2 1_555 1_555
H9_2 C11_2 1_555 1_555
C12_2 C11_2 1_555 1_555
H10_2 C12_2 1_555 1_555
H11_2 C12_2 1_555 1_555
C13_2 C11_2 1_555 1_555
O29 C13_2 1_555 1_555
O30 C13_2 1_555 1_555
H16_2 O20_2 1_555 1_555
H17_2 O20_2 1_555 1_555

#END
