
###############################################################################
#
# This file contains modified crystal structure data generated from the
# MOF subset of the Cambridge Structural Database (CSD) v543 
# hosted by the Cambridge Crystallographic Data Centre (CCDC).
#
# This work is licensed under the Creative Commons
# Attribution-NonCommercial-ShareAlike 4.0 International License.
# To view a copy of this license, visit
# http://creativecommons.org/licenses/by-nc-sa/4.0/
# or send a letter to
# Creative Commons, PO Box 1866, Mountain View, CA 94042, USA.
#
# CIF created using the CSD Python API on 29 September 2022
# The structure has been converted into the P1 space group
# The structure has a 3D framework
# The original CSD entry GENMIY is in the rhombohedral crystal system
# The framework has been calculated to contain at least 10.0% void space
# The void calculation uses a probe of radius 1.32A, grid spacing 0.4
#
###############################################################################

data_GENMIY
_chemical_formula_moiety         '(C72 H18 Co7 O54)n'
_symmetry_cell_setting           triclinic
_symmetry_space_group_name_H-M   'P 1'
_symmetry_Int_Tables_number      1
_space_group_name_Hall           'P 1'
loop_
_symmetry_equiv_pos_site_id
_symmetry_equiv_pos_as_xyz
1 x,y,z
_cell_length_a                   25.720(7)
_cell_length_b                   25.720(7)
_cell_length_c                   6.853(2)
_cell_angle_alpha                90
_cell_angle_beta                 90
_cell_angle_gamma                120
_cell_volume                     3926.03
loop_
_atom_site_label
_atom_site_type_symbol
_atom_site_fract_x
_atom_site_fract_y
_atom_site_fract_z
Co7 Co 0.38407(3) 0.35137(4) 0.14486(11)
O10 O 0.35457(26) 0.27355(15) 0.0024(5)
O12 O 0.30502(15) 0.34313(21) 0.0216(5)
Co1 Co 0.69936(3) 0.71740(3) 0.18847(11)
O1 O 0.60688(15) 0.58564(21) 0.6643(5)
O2 O 0.62855(15) 0.63835(15) 0.3117(5)
O3 O 0.56362(16) 0.59422(23) 0.0716(6)
C1 C 0.5551(2) 0.5453(2) 0.5788(8)
C2 C 0.5409(2) 0.5477(2) 0.3813(8)
C3 C 0.4862(2) 0.5024(2) 0.3088(8)
H1 H 0.476659 0.504315 0.176031
C4 C 0.5797(2) 0.5959(2) 0.2448(8)
O4 O 0.39312(15) 0.41436(21) 0.3357(5)
O5 O 0.37145(15) 0.36165(15) 0.6883(5)
O6 O 0.43638(16) 0.40578(23) 0.9284(6)
C5 C 0.4449(2) 0.4547(2) 0.4212(8)
C6 C 0.4591(2) 0.4523(2) 0.6187(8)
C7 C 0.5138(2) 0.4976(2) 0.6912(8)
H2 H 0.523341 0.495685 0.823969
C8 C 0.4203(2) 0.4041(2) 0.7552(8)
Co2 Co 0.30064(3) 0.28260(3) 0.81153(11)
Co3 Co 0.68471(4) 0.63397(3) 0.52180(11)
Co5 Co 0.61593(3) 0.64863(4) 0.85514(11)
Co8 Co 0.31529(4) 0.36603(3) 0.47820(11)
O8 O 0.74769(21) 0.68791(26) 0.3310(5)
O9 O 0.25231(21) 0.31209(26) 0.6690(5)
O13 O 0.69727(28) 0.76971(16) 0.4049(6)
O14 O 0.30273(28) 0.23029(16) 0.5951(6)
O7 O 0.64543(26) 0.72645(15) 0.9976(5)
O11 O 0.69498(15) 0.65687(21) 0.9784(5)
Co7_2 Co 0.64863(4) 0.03269(5) 0.14486(11)
O10_2 O 0.72645(15) 0.08103(30) 0.0024(5)
O1_2 O 0.41436(21) 0.02124(26) 0.6643(5)
C1_2 C 0.4547(2) 0.0098(3) 0.5788(8)
O5_2 O 0.63835(15) 0.00980(21) 0.6883(5)
O6_2 O 0.59422(23) 0.03060(28) 0.9284(6)
C6_2 C 0.5477(2) 0.0068(3) 0.6187(8)
C7_2 C 0.5024(2) 0.0162(3) 0.6912(8)
H2_2 H 0.504315 0.027656 0.823969
C8_2 C 0.5959(2) 0.0162(3) 0.7552(8)
Co2_2 Co 0.71740(3) 0.01804(4) 0.81153(11)
Co3_2 Co 0.36603(3) 0.05073(5) 0.52180(11)
O8_2 O 0.31209(26) 0.05979(33) 0.3310(5)
O14_2 O 0.76971(16) 0.07245(32) 0.5951(6)
O11_2 O 0.34313(21) 0.03812(26) 0.9784(5)
O12_2 O 0.65687(21) 0.96188(26) 0.0216(5)
Co1_2 Co 0.28260(3) 0.98196(4) 0.18847(11)
O2_2 O 0.36165(15) 0.99020(21) 0.3117(5)
O3_2 O 0.40578(23) 0.96940(28) 0.0716(6)
C2_2 C 0.4523(2) 0.9932(3) 0.3813(8)
C3_2 C 0.4976(2) 0.9838(3) 0.3088(8)
H1_2 H 0.495685 0.972344 0.176031
C4_2 C 0.4041(2) 0.9838(3) 0.2448(8)
O4_2 O 0.58564(21) 0.97876(26) 0.3357(5)
C5_2 C 0.5453(2) 0.9902(3) 0.4212(8)
Co5_2 Co 0.35137(4) 0.96731(5) 0.85514(11)
Co8_2 Co 0.63397(3) 0.94927(5) 0.47820(11)
O9_2 O 0.68791(26) 0.94021(33) 0.6690(5)
O13_2 O 0.23029(16) 0.92755(32) 0.4049(6)
O7_2 O 0.27355(15) 0.91897(30) 0.9976(5)
O12_3 O 0.03812(26) 0.69498(15) 0.0216(5)
Co1_3 Co 0.01804(4) 0.30064(3) 0.18847(11)
O2_3 O 0.00980(21) 0.37145(15) 0.3117(5)
O3_3 O 0.03060(28) 0.43638(16) 0.0716(6)
C2_3 C 0.0068(3) 0.4591(2) 0.3813(8)
C3_3 C 0.0162(3) 0.5138(2) 0.3088(8)
H1_3 H 0.027656 0.523341 0.176031
C4_3 C 0.0162(3) 0.4203(2) 0.2448(8)
O4_3 O 0.02124(26) 0.60688(15) 0.3357(5)
C5_3 C 0.0098(3) 0.5551(2) 0.4212(8)
Co5_3 Co 0.03269(5) 0.38407(3) 0.85514(11)
Co8_3 Co 0.05073(5) 0.68471(4) 0.47820(11)
O9_3 O 0.05979(33) 0.74769(21) 0.6690(5)
O13_3 O 0.07245(32) 0.30273(28) 0.4049(6)
O7_3 O 0.08103(30) 0.35457(26) 0.9976(5)
Co7_3 Co 0.96731(5) 0.61593(3) 0.14486(11)
O10_3 O 0.91897(30) 0.64543(26) 0.0024(5)
O1_3 O 0.97876(26) 0.39312(15) 0.6643(5)
C1_3 C 0.9902(3) 0.4449(2) 0.5788(8)
O5_3 O 0.99020(21) 0.62855(15) 0.6883(5)
O6_3 O 0.96940(28) 0.56362(16) 0.9284(6)
C6_3 C 0.9932(3) 0.5409(2) 0.6187(8)
C7_3 C 0.9838(3) 0.4862(2) 0.6912(8)
H2_3 H 0.972344 0.476659 0.823969
C8_3 C 0.9838(3) 0.5797(2) 0.7552(8)
Co2_3 Co 0.98196(4) 0.69936(3) 0.81153(11)
Co3_3 Co 0.94927(5) 0.31529(4) 0.52180(11)
O8_3 O 0.94021(33) 0.25231(21) 0.3310(5)
O14_3 O 0.92755(32) 0.69727(28) 0.5951(6)
O11_3 O 0.96188(26) 0.30502(15) 0.9784(5)
O13_4 O 0.36393(28) 0.10305(16) 0.7383(6)
O6_4 O 0.10305(16) 0.73911(23) 0.2617(6)
C7_4 C 0.1805(2) 0.8309(2) 0.0245(8)
H2_4 H 0.190008 0.829018 0.157302
C8_4 C 0.0870(2) 0.7374(2) 0.0885(8)
O2_4 O 0.29522(15) 0.97168(15) 0.6450(5)
C1_4 C 0.2218(2) 0.8786(2) 0.9121(8)
C2_4 C 0.2076(2) 0.8810(2) 0.7146(8)
C3_4 C 0.1529(2) 0.8357(2) 0.6421(8)
H1_4 H 0.143326 0.837648 0.509364
C4_4 C 0.2464(2) 0.9292(2) 0.5781(8)
C5_4 C 0.1116(2) 0.7880(2) 0.7545(8)
C6_4 C 0.1258(2) 0.7856(2) 0.9520(8)
O12_4 O 0.97168(15) 0.67647(21) 0.3550(5)
O6_5 O 0.26089(23) 0.36393(28) 0.2617(6)
C7_5 C 0.1691(2) 0.3495(3) 0.0245(8)
H2_5 H 0.170982 0.360989 0.157302
C8_5 C 0.2626(2) 0.3495(3) 0.0885(8)
O12_5 O 0.32353(21) 0.29522(26) 0.3550(5)
O2_5 O 0.02832(15) 0.32353(21) 0.6450(5)
C1_5 C 0.1214(2) 0.3431(3) 0.9121(8)
C2_5 C 0.1190(2) 0.3265(3) 0.7146(8)
C3_5 C 0.1643(2) 0.3171(3) 0.6421(8)
H1_5 H 0.162352 0.305677 0.509364
C4_5 C 0.0708(2) 0.3171(3) 0.5781(8)
C5_5 C 0.2120(2) 0.3235(3) 0.7545(8)
C6_5 C 0.2144(2) 0.3401(3) 0.9520(8)
O13_5 O 0.89695(16) 0.26089(32) 0.7383(6)
O12_6 O 0.70478(26) 0.02832(15) 0.3550(5)
O6_6 O 0.63607(28) 0.89695(16) 0.2617(6)
C7_6 C 0.6505(3) 0.8195(2) 0.0245(8)
H2_6 H 0.639011 0.809992 0.157302
C8_6 C 0.6505(3) 0.9130(2) 0.0885(8)
O2_6 O 0.67647(21) 0.70478(15) 0.6450(5)
C1_6 C 0.6569(3) 0.7782(2) 0.9121(8)
C2_6 C 0.6735(3) 0.7924(2) 0.7146(8)
C3_6 C 0.6829(3) 0.8471(2) 0.6421(8)
H1_6 H 0.694323 0.856674 0.509364
C4_6 C 0.6829(3) 0.7536(2) 0.5781(8)
C5_6 C 0.6765(3) 0.8884(2) 0.7545(8)
C6_6 C 0.6599(3) 0.8742(2) 0.9520(8)
O13_6 O 0.73911(32) 0.63607(28) 0.7383(6)
C1_7 C 0.8884(2) 0.2120(2) 0.2455(8)
C2_7 C 0.8742(2) 0.2144(2) 0.0480(8)
C5_7 C 0.7782(2) 0.1214(2) 0.0879(8)
C6_7 C 0.7924(2) 0.1190(2) 0.2854(8)
C7_7 C 0.8471(2) 0.1643(2) 0.3579(8)
H2_7 H 0.856674 0.162352 0.490636
C8_7 C 0.7536(2) 0.0708(2) 0.4219(8)
C3_7 C 0.8195(2) 0.1691(2) 0.9755(8)
H1_7 H 0.809992 0.170982 0.842698
C4_7 C 0.9130(2) 0.2626(2) 0.9115(8)
C1_8 C 0.7880(2) 0.6765(3) 0.2455(8)
C2_8 C 0.7856(2) 0.6599(3) 0.0480(8)
C5_8 C 0.8786(2) 0.6569(3) 0.0879(8)
C6_8 C 0.8810(2) 0.6735(3) 0.2854(8)
C7_8 C 0.8357(2) 0.6829(3) 0.3579(8)
H2_8 H 0.837648 0.694323 0.490636
C8_8 C 0.9292(2) 0.6829(3) 0.4219(8)
C3_8 C 0.8309(2) 0.6505(3) 0.9755(8)
H1_8 H 0.829018 0.639011 0.842698
C4_8 C 0.7374(2) 0.6505(3) 0.9115(8)
C1_9 C 0.3235(3) 0.1116(2) 0.2455(8)
C2_9 C 0.3401(3) 0.1258(2) 0.0480(8)
C5_9 C 0.3431(3) 0.2218(2) 0.0879(8)
C6_9 C 0.3265(3) 0.2076(2) 0.2854(8)
C7_9 C 0.3171(3) 0.1529(2) 0.3579(8)
H2_9 H 0.305677 0.143326 0.490636
C8_9 C 0.3171(3) 0.2464(2) 0.4219(8)
C3_9 C 0.3495(3) 0.1805(2) 0.9755(8)
H1_9 H 0.360989 0.190008 0.842698
C4_9 C 0.3495(3) 0.0870(2) 0.9115(8)
loop_
_geom_bond_atom_site_label_1
_geom_bond_atom_site_label_2
_geom_bond_site_symmetry_1
_geom_bond_site_symmetry_2
Co7 O10 1_555 1_555
Co7 O12 1_555 1_555
Co1 O2 1_555 1_555
O1 C1 1_555 1_555
O2 C4 1_555 1_555
O3 C4 1_555 1_555
C1 C2 1_555 1_555
C2 C3 1_555 1_555
C3 H1 1_555 1_555
C4 C2 1_555 1_555
O4 C5 1_555 1_555
O5 C8 1_555 1_555
O6 C8 1_555 1_555
C5 C3 1_555 1_555
C6 C5 1_555 1_555
C7 C1 1_555 1_555
H2 C7 1_555 1_555
C8 C6 1_555 1_555
Co2 O5 1_555 1_555
Co3 O1 1_555 1_555
Co5 O1 1_555 1_555
Co7 O4 1_555 1_555
Co8 O4 1_555 1_555
O8 Co1 1_555 1_555
O9 Co2 1_555 1_555
O13 Co1 1_555 1_555
O14 Co2 1_555 1_555
O2 Co3 1_555 1_555
O5 Co8 1_555 1_555
C6 C7 1_555 1_555
Co3 O8 1_555 1_555
Co8 O9 1_555 1_555
Co5 O7 1_555 1_555
Co5 O11 1_555 1_555
Co7_2 O10_2 1_555 1_555
O1_2 C1_2 1_555 1_555
O5_2 C8_2 1_555 1_555
O6_2 C8_2 1_555 1_555
C7_2 C1_2 1_555 1_555
H2_2 C7_2 1_555 1_555
C8_2 C6_2 1_555 1_555
Co2_2 O5_2 1_555 1_555
Co3_2 O1_2 1_555 1_555
O14_2 Co2_2 1_555 1_555
C6_2 C7_2 1_555 1_555
Co3_2 O8_2 1_555 1_555
Co1_2 O2_2 1_555 1_555
O2_2 C4_2 1_555 1_555
O3_2 C4_2 1_555 1_555
C2_2 C3_2 1_555 1_555
C3_2 H1_2 1_555 1_555
C4_2 C2_2 1_555 1_555
O4_2 C5_2 1_555 1_555
C5_2 C3_2 1_555 1_555
Co8_2 O4_2 1_555 1_555
O13_2 Co1_2 1_555 1_555
Co8_2 O9_2 1_555 1_555
Co5_2 O7_2 1_555 1_555
Co1_3 O2_3 1_555 1_555
O2_3 C4_3 1_555 1_555
O3_3 C4_3 1_555 1_555
C2_3 C3_3 1_555 1_555
C3_3 H1_3 1_555 1_555
C4_3 C2_3 1_555 1_555
O4_3 C5_3 1_555 1_555
C5_3 C3_3 1_555 1_555
Co8_3 O4_3 1_555 1_555
O13_3 Co1_3 1_555 1_555
Co8_3 O9_3 1_555 1_555
Co5_3 O7_3 1_555 1_555
Co7_3 O10_3 1_555 1_555
O1_3 C1_3 1_555 1_555
O5_3 C8_3 1_555 1_555
O6_3 C8_3 1_555 1_555
C7_3 C1_3 1_555 1_555
H2_3 C7_3 1_555 1_555
C8_3 C6_3 1_555 1_555
Co2_3 O5_3 1_555 1_555
Co3_3 O1_3 1_555 1_555
O14_3 Co2_3 1_555 1_555
C6_3 C7_3 1_555 1_555
Co3_3 O8_3 1_555 1_555
O13_4 Co3_2 1_555 1_555
O12_3 C8_4 1_555 1_555
O6_4 C8_4 1_555 1_555
H2_4 C7_4 1_555 1_555
Co8_3 O6_4 1_555 1_555
O7_2 C1_4 1_555 1_555
O2_4 C4_4 1_555 1_555
O13_2 C4_4 1_555 1_555
C1_4 C2_4 1_555 1_555
C2_4 C3_4 1_555 1_555
C3_4 H1_4 1_555 1_555
C4_4 C2_4 1_555 1_555
O9_3 C5_4 1_555 1_555
C5_4 C3_4 1_555 1_555
C6_4 C5_4 1_555 1_555
O2_4 Co5_2 1_555 1_555
O12_4 Co7_3 1_555 1_555
O12 C8_5 1_555 1_555
O6_5 C8_5 1_555 1_555
H2_5 C7_5 1_555 1_555
Co8 O6_5 1_555 1_555
O12_5 Co7 1_555 1_555
Co8 O12_5 1_555 1_555
O7_3 C1_5 1_555 1_555
O2_5 C4_5 1_555 1_555
O13_3 C4_5 1_555 1_555
C1_5 C2_5 1_555 1_555
C2_5 C3_5 1_555 1_555
C3_5 H1_5 1_555 1_555
C4_5 C2_5 1_555 1_555
O9 C5_5 1_555 1_555
C5_5 C3_5 1_555 1_555
C6_5 C5_5 1_555 1_555
O2_5 Co5_3 1_555 1_555
O13_5 Co3_3 1_555 1_555
O12_6 Co7_2 1_555 1_555
O12_2 C8_6 1_555 1_555
O6_6 C8_6 1_555 1_555
H2_6 C7_6 1_555 1_555
Co8_2 O6_6 1_555 1_555
Co3 O2_6 1_555 1_555
O7 C1_6 1_555 1_555
O2_6 C4_6 1_555 1_555
O13 C4_6 1_555 1_555
C1_6 C2_6 1_555 1_555
C2_6 C3_6 1_555 1_555
C3_6 H1_6 1_555 1_555
C4_6 C2_6 1_555 1_555
O9_2 C5_6 1_555 1_555
C5_6 C3_6 1_555 1_555
C6_6 C5_6 1_555 1_555
O13_6 Co3 1_555 1_555
O2_6 Co5 1_555 1_555
O8_3 C1_7 1_555 1_555
C1_7 C2_7 1_555 1_555
O10_2 C5_7 1_555 1_555
O12_6 C8_7 1_555 1_555
O14_2 C8_7 1_555 1_555
C6_7 C5_7 1_555 1_555
C7_7 C1_7 1_555 1_555
H2_7 C7_7 1_555 1_555
C8_7 C6_7 1_555 1_555
C6_7 C7_7 1_555 1_555
O11_3 C4_7 1_555 1_555
O13_5 C4_7 1_555 1_555
C3_7 H1_7 1_555 1_555
O8 C1_8 1_555 1_555
C1_8 C2_8 1_555 1_555
O10_3 C5_8 1_555 1_555
O12_4 C8_8 1_555 1_555
O14_3 C8_8 1_555 1_555
C6_8 C5_8 1_555 1_555
C7_8 C1_8 1_555 1_555
H2_8 C7_8 1_555 1_555
C8_8 C6_8 1_555 1_555
C6_8 C7_8 1_555 1_555
O11 C4_8 1_555 1_555
O13_6 C4_8 1_555 1_555
C3_8 H1_8 1_555 1_555
O8_2 C1_9 1_555 1_555
C1_9 C2_9 1_555 1_555
O10 C5_9 1_555 1_555
O12_5 C8_9 1_555 1_555
O14 C8_9 1_555 1_555
C6_9 C5_9 1_555 1_555
C7_9 C1_9 1_555 1_555
H2_9 C7_9 1_555 1_555
C8_9 C6_9 1_555 1_555
C6_9 C7_9 1_555 1_555
O11_2 C4_9 1_555 1_555
O13_4 C4_9 1_555 1_555
C3_9 H1_9 1_555 1_555

#END
