
###############################################################################
#
# This file contains modified crystal structure data generated from the
# MOF subset of the Cambridge Structural Database (CSD) v543 
# hosted by the Cambridge Crystallographic Data Centre (CCDC).
#
# This work is licensed under the Creative Commons
# Attribution-NonCommercial-ShareAlike 4.0 International License.
# To view a copy of this license, visit
# http://creativecommons.org/licenses/by-nc-sa/4.0/
# or send a letter to
# Creative Commons, PO Box 1866, Mountain View, CA 94042, USA.
#
# CIF created using the CSD Python API on 29 September 2022
# The structure has been converted into the P1 space group
# The structure has a 3D framework
# The original CSD entry GEVXIQ is in the triclinic crystal system
# The framework has been calculated to contain at least 10.0% void space
# The void calculation uses a probe of radius 1.32A, grid spacing 0.4
# The framework is charged, counterions have been retained in the structure
#
###############################################################################

data_GEVXIQ
_chemical_formula_moiety         '(C30 H38 Gd4 O40)n'
_symmetry_cell_setting           triclinic
_symmetry_space_group_name_H-M   'P 1'
_symmetry_Int_Tables_number      1
_space_group_name_Hall           'P 1'
loop_
_symmetry_equiv_pos_site_id
_symmetry_equiv_pos_as_xyz
1 x,y,z
_cell_length_a                   10.0662(6)
_cell_length_b                   11.4492(6)
_cell_length_c                   12.7746(7)
_cell_angle_alpha                108.730(4)
_cell_angle_beta                 96.948(5)
_cell_angle_gamma                96.802(5)
_cell_volume                     1364.56
loop_
_atom_site_label
_atom_site_type_symbol
_atom_site_fract_x
_atom_site_fract_y
_atom_site_fract_z
_atom_site_U_iso_or_equiv
_atom_site_thermal_displace_type
Gd1 Gd 0.068141(19) 0.076336(17) 0.383948(16) 0.0075 Uani
C3 C 0.0684(4) 0.3846(3) 0.6251(3) 0.0074 Uani
C4 C 0.1978(4) 0.3304(4) 0.6065(3) 0.0089 Uani
C5 C 0.0659(4) 0.5090(4) 0.6335(3) 0.0087 Uani
O3 O 0.1855(3) 0.2121(2) 0.5647(2) 0.0100 Uani
O4 O 0.3088(3) 0.4031(2) 0.6325(2) 0.0103 Uani
O5 O 0.0552(3) 0.7629(2) 0.6525(2) 0.0129 Uani
O14 O 0.0735(4) 0.0240(4) 0.1869(3) 0.0192 Uani
O15 O 0.2978(3) 0.0581(3) 0.3947(3) 0.0191 Uani
H1 H 0.139(4) 0.554(4) 0.625(3) 0.0000 Uiso
H6 H 0.062(5) 0.064(5) 0.156(4) 0.0160 Uiso
H8 H 0.344(6) 0.012(6) 0.356(5) 0.0410 Uiso
H9 H 0.339(5) 0.088(5) 0.443(4) 0.0060 Uiso
Gd9 Gd 0.451636(19) 0.598164(17) 0.758218(16) 0.0072 Uani
O50 O 0.1652(3) 0.2696(3) 0.3548(2) 0.0125 Uani
H7 H 0.096(5) 0.967(5) 0.152(5) 0.0270 Uiso
O42 O 0.0755(3) 0.9051(2) 0.4734(2) 0.0093 Uani
O44 O 0.0780(3) 0.8537(2) 0.2929(2) 0.0145 Uani
C1 C 0.9350(4) 0.1780(4) 0.6241(3) 0.0096 Uani
C2 C 0.9517(4) 0.3140(3) 0.6365(3) 0.0071 Uani
C6 C 0.9515(4) 0.5639(3) 0.6547(3) 0.0084 Uani
C7 C 0.9474(4) 0.6937(4) 0.6520(3) 0.0098 Uani
C8 C 0.8382(4) 0.4943(4) 0.6722(3) 0.0084 Uani
C9 C 0.7120(4) 0.5443(3) 0.7036(3) 0.0083 Uani
C10 C 0.8395(4) 0.3709(4) 0.6642(3) 0.0098 Uani
C11 C 0.2292(4) 0.4628(4) 0.8840(3) 0.0107 Uani
C12 C 0.1140(4) 0.4831(4) 0.9480(3) 0.0095 Uani
C15 C 0.0121(4) 0.3830(4) 0.9310(3) 0.0103 Uani
O1 O 0.9245(3) 0.0949(2) 0.5266(2) 0.0093 Uani
O2 O 0.9220(3) 0.1463(2) 0.7071(2) 0.0145 Uani
O6 O 0.8348(3) 0.7304(3) 0.6452(2) 0.0125 Uani
O7 O 0.7114(3) 0.6119(3) 0.8025(2) 0.0120 Uani
O8 O 0.6044(3) 0.5072(3) 0.6304(2) 0.0113 Uani
O9 O 0.2813(3) 0.5540(3) 0.8593(2) 0.0123 Uani
O10 O 0.2651(3) 0.3567(3) 0.8555(3) 0.0188 Uani
O16 O 0.3642(3) 0.6223(4) 0.5851(3) 0.0148 Uani
O17 O 0.2970(3) 0.7593(3) 0.7924(3) 0.0170 Uani
O18 O 0.5732(4) 0.7925(3) 0.7510(4) 0.0184 Uani
O19 O 0.5121(4) 0.7249(3) 0.9504(3) 0.0194 Uani
O20 O 0.5115(4) 0.4271(3) 0.8153(3) 0.0188 Uani
H2 H 0.762(4) 0.324(4) 0.681(3) 0.0010 Uiso
H3 H 0.020(4) 0.307(4) 0.890(3) 0.0000 Uiso
H10 H 0.374(6) 0.582(5) 0.531(5) 0.0300 Uiso
H11 H 0.358(5) 0.679(5) 0.584(4) 0.0150 Uiso
H12 H 0.265(7) 0.766(6) 0.847(6) 0.0600 Uiso
H13 H 0.247(6) 0.760(5) 0.749(5) 0.0400 Uiso
H14 H 0.630(7) 0.795(6) 0.727(6) 0.0500 Uiso
H15 H 0.598(6) 0.848(5) 0.802(5) 0.0270 Uiso
H16 H 0.579(6) 0.755(5) 0.978(4) 0.0250 Uiso
H17 H 0.463(5) 0.724(4) 0.987(4) 0.0090 Uiso
H18 H 0.573(6) 0.413(5) 0.848(4) 0.0240 Uiso
H19 H 0.457(5) 0.395(4) 0.822(4) 0.0000 Uiso
Gd8 Gd 0.931859(19) 0.923664(17) 0.616052(16) 0.0075 Uani
O48 O 0.9448(3) 0.2371(2) 0.3475(2) 0.0129 Uani
O13 O 0.8353(3) 0.9650(3) 0.3083(3) 0.0172 Uani
H4 H 0.820(6) 0.942(5) 0.250(5) 0.0300 Uiso
H5 H 0.812(5) 0.905(5) 0.340(4) 0.0320 Uiso
O33 O 0.1647(3) 0.0350(3) 0.6917(3) 0.0172 Uani
H23 H 0.180(6) 0.058(5) 0.750(5) 0.0300 Uiso
H24 H 0.188(5) 0.095(5) 0.660(4) 0.0320 Uiso
C16 C 0.7708(4) 0.5372(4) 0.1160(3) 0.0107 Uani
C17 C 0.8860(4) 0.5169(4) 0.0520(3) 0.0095 Uani
C20 C 0.9879(4) 0.6170(4) 0.0690(3) 0.0103 Uani
O21 O 0.7187(3) 0.4460(3) 0.1407(2) 0.0123 Uani
O22 O 0.7349(3) 0.6433(3) 0.1445(3) 0.0188 Uani
H20 H 0.980(4) 0.693(4) 0.110(3) 0.0000 Uiso
Gd4 Gd 0.548364(19) 0.401836(17) 0.241782(16) 0.0072 Uani
C21 C 0.0650(4) 0.8220(4) 0.3759(3) 0.0096 Uani
C22 C 0.0483(4) 0.6860(3) 0.3635(3) 0.0071 Uani
C26 C 0.0485(4) 0.4361(3) 0.3453(3) 0.0084 Uani
C27 C 0.0526(4) 0.3063(4) 0.3480(3) 0.0098 Uani
C28 C 0.1618(4) 0.5057(4) 0.3278(3) 0.0084 Uani
C29 C 0.2880(4) 0.4557(3) 0.2964(3) 0.0083 Uani
C30 C 0.1605(4) 0.6291(4) 0.3358(3) 0.0098 Uani
O31 O 0.2886(3) 0.3881(3) 0.1975(2) 0.0120 Uani
O32 O 0.3956(3) 0.4928(3) 0.3696(2) 0.0113 Uani
O36 O 0.6358(3) 0.3777(4) 0.4149(3) 0.0148 Uani
O37 O 0.7030(3) 0.2407(3) 0.2076(3) 0.0170 Uani
O38 O 0.4268(4) 0.2075(3) 0.2490(4) 0.0184 Uani
O39 O 0.4879(4) 0.2751(3) 0.0496(3) 0.0194 Uani
O40 O 0.4885(4) 0.5729(3) 0.1847(3) 0.0188 Uani
H22 H 0.238(4) 0.676(4) 0.319(3) 0.0010 Uiso
H29 H 0.626(6) 0.418(5) 0.469(5) 0.0300 Uiso
H30 H 0.642(5) 0.321(5) 0.416(4) 0.0150 Uiso
H31 H 0.735(7) 0.234(6) 0.153(6) 0.0600 Uiso
H32 H 0.753(6) 0.240(5) 0.251(5) 0.0400 Uiso
H33 H 0.370(7) 0.205(6) 0.273(6) 0.0500 Uiso
H34 H 0.402(6) 0.152(5) 0.198(5) 0.0270 Uiso
H35 H 0.421(6) 0.245(5) 0.022(4) 0.0250 Uiso
H36 H 0.537(5) 0.276(4) 0.013(4) 0.0090 Uiso
H37 H 0.427(6) 0.587(5) 0.152(4) 0.0240 Uiso
H38 H 0.543(5) 0.605(4) 0.178(4) 0.0000 Uiso
O46 O 0.6912(3) 0.5969(2) 0.3675(2) 0.0103 Uani
H26 H 0.904(5) 0.033(5) 0.848(5) 0.0270 Uiso
C23 C 0.9316(4) 0.6154(3) 0.3749(3) 0.0074 Uani
C24 C 0.8022(4) 0.6696(4) 0.3935(3) 0.0089 Uani
C25 C 0.9341(4) 0.4910(4) 0.3665(3) 0.0087 Uani
O27 O 0.8145(3) 0.7879(2) 0.4353(2) 0.0100 Uani
O34 O 0.9265(4) 0.9760(4) 0.8131(3) 0.0192 Uani
O35 O 0.7022(3) 0.9419(3) 0.6053(3) 0.0191 Uani
H21 H 0.861(4) 0.446(4) 0.375(3) 0.0000 Uiso
H25 H 0.938(5) 0.936(5) 0.844(4) 0.0160 Uiso
H27 H 0.656(6) 0.988(6) 0.644(5) 0.0410 Uiso
H28 H 0.661(5) 0.912(5) 0.557(4) 0.0060 Uiso
C13 C 0.1014(4) 0.6022(4) 0.0187(3) 0.0104 Uani
C14 C 0.2107(4) 0.7148(4) 0.0456(3) 0.0121 Uani
O11 O 0.1773(3) 0.8063(3) 0.0200(3) 0.0193 Uani
O12 O 0.3263(3) 0.7117(2) 0.0940(2) 0.0116 Uani
C18 C 0.8986(4) 0.3978(4) 0.9813(3) 0.0104 Uani
C19 C 0.7893(4) 0.2852(4) 0.9544(3) 0.0121 Uani
O23 O 0.8227(3) 0.1937(3) 0.9800(3) 0.0193 Uani
O24 O 0.6737(3) 0.2883(2) 0.9060(2) 0.0116 Uani
loop_
_atom_site_aniso_label
_atom_site_aniso_U_11
_atom_site_aniso_U_22
_atom_site_aniso_U_33
_atom_site_aniso_U_23
_atom_site_aniso_U_13
_atom_site_aniso_U_12
Gd1 0.00881 0.00553 0.00848 0.00258 0.00222 0.00096
C3 0.0088 0.0074 0.005 0.0003 0.0013 0.0022
C4 0.0093 0.011 0.0074 0.004 0.0029 0.0013
C5 0.0084 0.0071 0.0093 0.002 0.0018 -0.002
O3 0.0118 0.0056 0.0108 0.0003 0.0015 0.0018
O4 0.0073 0.0095 0.0123 0.0022 0.0015 -0.0012
O5 0.0102 0.0102 0.0207 0.0085 0.0042 0.0001
O14 0.036 0.0127 0.0128 0.0066 0.0073 0.0089
O15 0.0111 0.0213 0.0177 -0.003 0.0009 0.004
Gd9 0.00595 0.0068 0.00866 0.00212 0.00268 0.00084
O50 0.0113 0.0104 0.0191 0.0076 0.0048 0.0052
O42 0.0099 0.0059 0.0102 0.0001 0.0028 0.0003
O44 0.024 0.0066 0.011 0.0022 0.0012 -0.0008
C1 0.0049 0.0078 0.016 0.0037 0.0011 0.0025
C2 0.0108 0.006 0.0042 0.0015 0.0009 0.001
C6 0.0117 0.0064 0.0078 0.0025 0.0036 0.0021
C7 0.015 0.0076 0.0062 0.0015 0.0029 0.0008
C8 0.0088 0.0092 0.0069 0.0024 0.0006 0.0015
C9 0.0086 0.0065 0.013 0.0067 0.0044 0.0013
C10 0.008 0.0083 0.015 0.0064 0.003 0.0012
C11 0.01 0.011 0.0081 0.0009 0.0006 -0.0021
C12 0.01 0.012 0.009 0.0058 0.0051 0.0013
C15 0.012 0.0069 0.011 0.0016 0.0028 0.0011
O1 0.0099 0.0059 0.0102 0.0001 0.0028 0.0003
O2 0.024 0.0066 0.011 0.0022 0.0012 -0.0008
O6 0.0113 0.0104 0.0191 0.0076 0.0048 0.0052
O7 0.0111 0.0129 0.0105 0.0015 0.0028 0.0023
O8 0.0078 0.0149 0.0118 0.0035 0.0048 0.0045
O9 0.0115 0.0126 0.0128 0.0043 0.0061 -0.002
O10 0.0174 0.0135 0.0305 0.0091 0.0155 0.006
O16 0.0218 0.0102 0.0141 0.0045 0.0057 0.006
O17 0.0171 0.0207 0.0142 0.0047 0.0038 0.0092
O18 0.017 0.0127 0.024 0.0054 0.0053 -0.003
O19 0.0076 0.031 0.0119 0.0002 0.0039 -0.009
O20 0.0069 0.026 0.034 0.0229 0.0071 0.0039
Gd8 0.00881 0.00553 0.00848 0.00258 0.00222 0.00096
O48 0.0102 0.0102 0.0207 0.0085 0.0042 0.0001
O13 0.0189 0.0176 0.0107 0.0015 0.0006 -0.0024
O33 0.0189 0.0176 0.0107 0.0015 0.0006 -0.0024
C16 0.01 0.011 0.0081 0.0009 0.0006 -0.0021
C17 0.01 0.012 0.009 0.0058 0.0051 0.0013
C20 0.012 0.0069 0.011 0.0016 0.0028 0.0011
O21 0.0115 0.0126 0.0128 0.0043 0.0061 -0.002
O22 0.0174 0.0135 0.0305 0.0091 0.0155 0.006
Gd4 0.00595 0.0068 0.00866 0.00212 0.00268 0.00084
C21 0.0049 0.0078 0.016 0.0037 0.0011 0.0025
C22 0.0108 0.006 0.0042 0.0015 0.0009 0.001
C26 0.0117 0.0064 0.0078 0.0025 0.0036 0.0021
C27 0.015 0.0076 0.0062 0.0015 0.0029 0.0008
C28 0.0088 0.0092 0.0069 0.0024 0.0006 0.0015
C29 0.0086 0.0065 0.013 0.0067 0.0044 0.0013
C30 0.008 0.0083 0.015 0.0064 0.003 0.0012
O31 0.0111 0.0129 0.0105 0.0015 0.0028 0.0023
O32 0.0078 0.0149 0.0118 0.0035 0.0048 0.0045
O36 0.0218 0.0102 0.0141 0.0045 0.0057 0.006
O37 0.0171 0.0207 0.0142 0.0047 0.0038 0.0092
O38 0.017 0.0127 0.024 0.0054 0.0053 -0.003
O39 0.0076 0.031 0.0119 0.0002 0.0039 -0.009
O40 0.0069 0.026 0.034 0.0229 0.0071 0.0039
O46 0.0073 0.0095 0.0123 0.0022 0.0015 -0.0012
C23 0.0088 0.0074 0.005 0.0003 0.0013 0.0022
C24 0.0093 0.011 0.0074 0.004 0.0029 0.0013
C25 0.0084 0.0071 0.0093 0.002 0.0018 -0.002
O27 0.0118 0.0056 0.0108 0.0003 0.0015 0.0018
O34 0.036 0.0127 0.0128 0.0066 0.0073 0.0089
O35 0.0111 0.0213 0.0177 -0.003 0.0009 0.004
C13 0.0104 0.013 0.0071 0.0043 -0.0004 -0.0008
C14 0.01 0.012 0.012 0.0028 0.004 -0.0052
O11 0.0154 0.014 0.03 0.013 -0.0012 -0.0025
O12 0.0093 0.0119 0.0127 0.0036 0.0016 0.0003
C18 0.0104 0.013 0.0071 0.0043 -0.0004 -0.0008
C19 0.01 0.012 0.012 0.0028 0.004 -0.0052
O23 0.0154 0.014 0.03 0.013 -0.0012 -0.0025
O24 0.0093 0.0119 0.0127 0.0036 0.0016 0.0003
loop_
_geom_bond_atom_site_label_1
_geom_bond_atom_site_label_2
_geom_bond_site_symmetry_1
_geom_bond_site_symmetry_2
C3 C4 1_555 1_555
C4 O3 1_555 1_555
C5 C3 1_555 1_555
O3 Gd1 1_555 1_555
O4 C4 1_555 1_555
O14 Gd1 1_555 1_555
O15 Gd1 1_555 1_555
H1 C5 1_555 1_555
H6 O14 1_555 1_555
H8 O15 1_555 1_555
H9 O15 1_555 1_555
Gd9 O4 1_555 1_555
O50 Gd1 1_555 1_555
Gd9 O7 1_555 1_555
C1 C2 1_555 1_555
C7 C6 1_555 1_555
C8 C6 1_555 1_555
C9 C8 1_555 1_555
C10 C2 1_555 1_555
C11 C12 1_555 1_555
C15 C12 1_555 1_555
O1 C1 1_555 1_555
O2 C1 1_555 1_555
O6 C7 1_555 1_555
O7 C9 1_555 1_555
O8 Gd9 1_555 1_555
O9 Gd9 1_555 1_555
O10 C11 1_555 1_555
O16 Gd9 1_555 1_555
O17 Gd9 1_555 1_555
O18 Gd9 1_555 1_555
O19 Gd9 1_555 1_555
O20 Gd9 1_555 1_555
H2 C10 1_555 1_555
H3 C15 1_555 1_555
H10 O16 1_555 1_555
H11 O16 1_555 1_555
H12 O17 1_555 1_555
H13 O17 1_555 1_555
H14 O18 1_555 1_555
H15 O18 1_555 1_555
H16 O19 1_555 1_555
H17 O19 1_555 1_555
H18 O20 1_555 1_555
H19 O20 1_555 1_555
C8 C10 1_555 1_555
C9 O8 1_555 1_555
C11 O9 1_555 1_555
O6 Gd8 1_555 1_555
H4 O13 1_555 1_555
H5 O13 1_555 1_555
H23 O33 1_555 1_555
H24 O33 1_555 1_555
C16 C17 1_555 1_555
O21 C16 1_555 1_555
O22 C16 1_555 1_555
H20 C20 1_555 1_555
Gd4 O21 1_555 1_555
C21 C22 1_555 1_555
C27 C26 1_555 1_555
C28 C26 1_555 1_555
C29 C28 1_555 1_555
C30 C22 1_555 1_555
O42 C21 1_555 1_555
O44 C21 1_555 1_555
O50 C27 1_555 1_555
O31 Gd4 1_555 1_555
O32 Gd4 1_555 1_555
O36 Gd4 1_555 1_555
O37 Gd4 1_555 1_555
O38 Gd4 1_555 1_555
O39 Gd4 1_555 1_555
O40 Gd4 1_555 1_555
H22 C30 1_555 1_555
H29 O36 1_555 1_555
H30 O36 1_555 1_555
H31 O37 1_555 1_555
H32 O37 1_555 1_555
H33 O38 1_555 1_555
H34 O38 1_555 1_555
H35 O39 1_555 1_555
H36 O39 1_555 1_555
H37 O40 1_555 1_555
H38 O40 1_555 1_555
O46 Gd4 1_555 1_555
C17 C20 1_555 1_555
C28 C30 1_555 1_555
C29 O31 1_555 1_555
C29 O32 1_555 1_555
C23 C24 1_555 1_555
C24 O27 1_555 1_555
C25 C23 1_555 1_555
O27 Gd8 1_555 1_555
O46 C24 1_555 1_555
O34 Gd8 1_555 1_555
O35 Gd8 1_555 1_555
H21 C25 1_555 1_555
H25 O34 1_555 1_555
H27 O35 1_555 1_555
H28 O35 1_555 1_555
C13 C14 1_555 1_555
C14 O11 1_555 1_555
O12 C14 1_555 1_555
C19 C18 1_555 1_555
O23 C19 1_555 1_555
O24 C19 1_555 1_555

#END
