
###############################################################################
#
# This file contains modified crystal structure data generated from the
# MOF subset of the Cambridge Structural Database (CSD) v543 
# hosted by the Cambridge Crystallographic Data Centre (CCDC).
#
# This work is licensed under the Creative Commons
# Attribution-NonCommercial-ShareAlike 4.0 International License.
# To view a copy of this license, visit
# http://creativecommons.org/licenses/by-nc-sa/4.0/
# or send a letter to
# Creative Commons, PO Box 1866, Mountain View, CA 94042, USA.
#
# CIF created using the CSD Python API on 29 September 2022
# The structure has been converted into the P1 space group
# The structure has a 3D framework
# The original CSD entry GEVYEN is in the monoclinic crystal system
# The framework has been calculated to contain at least 10.0% void space
# The void calculation uses a probe of radius 1.32A, grid spacing 0.4
#
###############################################################################

data_GEVYEN
_chemical_formula_moiety         '(C76 H48 N8 O16 Zn4)n'
_symmetry_cell_setting           triclinic
_symmetry_space_group_name_H-M   'P 1'
_symmetry_Int_Tables_number      1
_space_group_name_Hall           'P 1'
loop_
_symmetry_equiv_pos_site_id
_symmetry_equiv_pos_as_xyz
1 x,y,z
_cell_length_a                   7.6978(16)
_cell_length_b                   17.250(4)
_cell_length_c                   14.089(3)
_cell_angle_alpha                90
_cell_angle_beta                 93.102(3)
_cell_angle_gamma                90
_cell_volume                     1868.1
loop_
_atom_site_label
_atom_site_type_symbol
_atom_site_fract_x
_atom_site_fract_y
_atom_site_fract_z
H10 H 0.0737 0.5712 0.0078
N3 N 0.4034(4) 0.39967(19) 0.7947(2)
C20 C 0.2664(5) 0.3550(2) 0.8086(3)
H13 H 0.2558 0.3085 0.7754
C21 C 0.1392(6) 0.3743(2) 0.8695(3)
H14 H 0.0459 0.3410 0.8768
C22 C 0.1503(5) 0.4432(2) 0.9199(3)
C23 C 0.2959(5) 0.4889(2) 0.9080(3)
H15 H 0.3114 0.5348 0.9421
C24 C 0.4170(5) 0.4660(2) 0.8457(3)
H16 H 0.5131 0.4976 0.8382
C25 C 0.0096(5) 0.4662(2) 0.9805(3)
Zn4 Zn 0.58851(5) 0.37371(2) 0.70493(3)
O3 O 0.9574(3) 0.39795(17) 0.6440(2)
O4 O 0.7581(3) 0.45461(16) 0.7286(2)
C15 C 0.9048(5) 0.4528(2) 0.6904(3)
C18 C 0.9692(5) 0.5816(2) 0.7673(3)
H12 H 0.8742 0.5748 0.8045
O5 O 0.6543(4) 0.23492(16) 0.2005(2)
O6 O 0.7133(4) 0.22285(18) 0.3544(2)
N4 N 0.5006(4) 0.38368(17) 0.5647(2)
C26 C 0.3406(5) 0.3649(2) 0.5294(3)
H18 H 0.2529 0.3571 0.5712
C27 C 0.3020(5) 0.3567(3) 0.4331(3)
H19 H 0.1895 0.3441 0.4109
C28 C 0.4295(5) 0.3672(2) 0.3704(3)
H20 H 0.4049 0.3614 0.3054
C29 C 0.5955(5) 0.3867(2) 0.4048(3)
C30 C 0.6217(5) 0.3956(2) 0.5017(3)
H21 H 0.7316 0.4109 0.5250
C31 C 0.7458(5) 0.3975(2) 0.3443(3)
C32 C 0.7943(5) 0.3390(2) 0.2806(2)
C33 C 0.9334(5) 0.3514(2) 0.2245(3)
H22 H 0.9619 0.3139 0.1805
C35 C 0.9878(5) 0.4754(2) 0.2959(2)
C36 C 0.8433(4) 0.4650(2) 0.3501(3)
H23 H 0.8117 0.5042 0.3911
C38 C 0.7129(5) 0.2604(2) 0.2804(3)
Zn3 Zn 0.58851(5) 0.12629(2) 0.20493(3)
O9 O 0.6543(4) 0.26508(16) 0.7005(2)
N1 N 0.4034(4) 0.10033(19) 0.2947(2)
N2 N 0.5006(4) 0.11632(17) 0.0647(2)
C1 C 0.3406(5) 0.1351(2) 0.0294(3)
H1 H 0.2529 0.1429 0.0712
C5 C 0.6217(5) 0.1044(2) 0.0017(3)
H4 H 0.7316 0.0891 0.0250
C9 C 0.2664(5) 0.1450(2) 0.3086(3)
H6 H 0.2558 0.1915 0.2754
C10 C 0.1392(6) 0.1257(2) 0.3695(3)
H7 H 0.0459 0.1590 0.3768
C11 C 0.1503(5) 0.0568(2) 0.4199(3)
C12 C 0.2959(5) 0.0111(2) 0.4080(3)
C13 C 0.4170(5) 0.0340(2) 0.3457(3)
H9 H 0.5131 0.0024 0.3382
C14 C 0.0096(5) 0.0338(2) 0.4805(3)
O7 O 0.9574(3) 0.10205(17) 0.1440(2)
O8 O 0.7581(3) 0.04539(16) 0.2286(2)
C34 C 0.9048(5) 0.0472(2) 0.1904(3)
O2 O 0.7133(4) 0.27715(18) 0.8544(2)
C2 C 0.3020(5) 0.1433(3) 0.9331(3)
H2 H 0.1895 0.1559 0.9109
C3 C 0.4295(5) 0.1328(2) 0.8704(3)
H3 H 0.4049 0.1386 0.8054
C4 C 0.5955(5) 0.1133(2) 0.9048(3)
C6 C 0.7458(5) 0.1025(2) 0.8443(3)
C7 C 0.7943(5) 0.1610(2) 0.7806(2)
C8 C 0.9334(5) 0.1486(2) 0.7245(3)
H5 H 0.9619 0.1861 0.6805
C16 C 0.9878(5) 0.0246(2) 0.7959(2)
C17 C 0.8433(4) 0.0350(2) 0.8501(3)
C19 C 0.7129(5) 0.2396(2) 0.7804(3)
Zn1 Zn 0.41149(5) 0.62629(2) 0.29507(3)
O1 O 0.3457(4) 0.76508(16) 0.7995(2)
O2_2 O 0.2867(4) 0.77715(18) 0.6456(2)
N1_2 N 0.5966(4) 0.60033(19) 0.2053(2)
N2_2 N 0.4994(4) 0.61632(17) 0.4353(2)
C1_2 C 0.6594(5) 0.6351(2) 0.4706(3)
H1_2 H 0.7471 0.6429 0.4288
C2_2 C 0.6980(5) 0.6433(3) 0.5669(3)
H2_2 H 0.8105 0.6559 0.5891
C3_2 C 0.5705(5) 0.6328(2) 0.6296(3)
H3_2 H 0.5951 0.6386 0.6946
C4_2 C 0.4045(5) 0.6133(2) 0.5952(3)
C5_2 C 0.3783(5) 0.6044(2) 0.4983(3)
H4_2 H 0.2684 0.5891 0.4750
C6_2 C 0.2542(5) 0.6025(2) 0.6557(3)
C7_2 C 0.2057(5) 0.6610(2) 0.7194(2)
C8_2 C 0.0666(5) 0.6486(2) 0.7755(3)
H5_2 H 0.0381 0.6861 0.8195
C9_2 C 0.7336(5) 0.6450(2) 0.1914(3)
H6_2 H 0.7442 0.6915 0.2246
C10_2 C 0.8608(6) 0.6257(2) 0.1305(3)
H7_2 H 0.9541 0.6590 0.1232
C11_2 C 0.8497(5) 0.5568(2) 0.0801(3)
C12_2 C 0.7041(5) 0.5111(2) 0.0920(3)
H8 H 0.6886 0.4652 0.0579
C13_2 C 0.5830(5) 0.5340(2) 0.1543(3)
H9_2 H 0.4869 0.5024 0.1618
C14_2 C 0.9904(5) 0.5338(2) 0.0195(3)
C16_2 C 0.0122(5) 0.5246(2) 0.7041(2)
C17_2 C 0.1567(4) 0.5350(2) 0.6499(3)
H11 H 0.1883 0.4958 0.6089
C19_2 C 0.2871(5) 0.7396(2) 0.7196(3)
O7_2 O 0.0426(3) 0.60205(17) 0.3560(2)
O8_2 O 0.2419(3) 0.54539(16) 0.2714(2)
C34_2 C 0.0952(5) 0.5472(2) 0.3096(3)
C37 C 0.0308(5) 0.4184(2) 0.2327(3)
H24 H 0.1258 0.4252 0.1955
Zn5 Zn 0.41149(5) 0.87371(2) 0.79507(3)
O10 O 0.3457(4) 0.73492(16) 0.2995(2)
O6_2 O 0.2867(4) 0.72285(18) 0.1456(2)
C27_2 C 0.6980(5) 0.8567(3) 0.0669(3)
H19_2 H 0.8105 0.8441 0.0891
C28_2 C 0.5705(5) 0.8672(2) 0.1296(3)
H20_2 H 0.5951 0.8614 0.1946
C29_2 C 0.4045(5) 0.8867(2) 0.0952(3)
C31_2 C 0.2542(5) 0.8975(2) 0.1557(3)
C32_2 C 0.2057(5) 0.8390(2) 0.2194(2)
C33_2 C 0.0666(5) 0.8514(2) 0.2755(3)
H22_2 H 0.0381 0.8139 0.3195
C35_2 C 0.0122(5) 0.9754(2) 0.2041(2)
C36_2 C 0.1567(4) 0.9650(2) 0.1499(3)
C38_2 C 0.2871(5) 0.7604(2) 0.2196(3)
O3_2 O 0.0426(3) 0.89795(17) 0.8560(2)
O4_2 O 0.2419(3) 0.95461(16) 0.7714(2)
C15_2 C 0.0952(5) 0.9528(2) 0.8096(3)
N4_2 N 0.4994(4) 0.88368(17) 0.9353(2)
C26_2 C 0.6594(5) 0.8649(2) 0.9706(3)
H18_2 H 0.7471 0.8571 0.9288
C30_2 C 0.3783(5) 0.8956(2) 0.9983(3)
H21_2 H 0.2684 0.9109 0.9750
N5 N 0.5966(4) 0.89967(19) 0.7053(2)
C20_2 C 0.7336(5) 0.8550(2) 0.6914(3)
H13_2 H 0.7442 0.8085 0.7246
C21_2 C 0.8608(6) 0.8743(2) 0.6305(3)
H14_2 H 0.9541 0.8410 0.6232
C22_2 C 0.8497(5) 0.9432(2) 0.5801(3)
C23_2 C 0.7041(5) 0.9889(2) 0.5920(3)
C24_2 C 0.5830(5) 0.9660(2) 0.6543(3)
H16_2 H 0.4869 0.9976 0.6618
C25_2 C 0.9904(5) 0.9662(2) 0.5195(3)
H17 H 0.9263 0.4288 0.9922
H23_2 H 0.1883 0.0042 0.1089
C18_2 C 0.0308(5) 0.0816(2) 0.7327(3)
H12_2 H 0.1258 0.0748 0.6955
H10_2 H 0.9263 0.0712 0.4922
H15_2 H 0.6886 0.0348 0.5579
H8_2 H 0.3114 0.9652 0.4421
H17_2 H 0.0737 0.9288 0.5078
C37_2 C 0.9692(5) 0.9184(2) 0.2673(3)
H24_2 H 0.8742 0.9252 0.3045
H11_2 H 0.8117 0.9958 0.8911
loop_
_geom_bond_atom_site_label_1
_geom_bond_atom_site_label_2
_geom_bond_site_symmetry_1
_geom_bond_site_symmetry_2
N3 C20 1_555 1_555
C20 H13 1_555 1_555
C21 C20 1_555 1_555
H14 C21 1_555 1_555
C22 C21 1_555 1_555
C23 C22 1_555 1_555
H15 C23 1_555 1_555
C24 N3 1_555 1_555
H16 C24 1_555 1_555
Zn4 N3 1_555 1_555
C22 C25 1_555 1_555
C23 C24 1_555 1_555
O3 C15 1_555 1_555
O4 C15 1_555 1_555
H12 C18 1_555 1_555
Zn4 O4 1_555 1_555
O5 C38 1_555 1_555
O6 C38 1_555 1_555
N4 Zn4 1_555 1_555
C26 N4 1_555 1_555
H18 C26 1_555 1_555
C27 C26 1_555 1_555
H19 C27 1_555 1_555
C28 C27 1_555 1_555
H20 C28 1_555 1_555
C29 C28 1_555 1_555
C30 N4 1_555 1_555
H21 C30 1_555 1_555
C31 C29 1_555 1_555
C32 C31 1_555 1_555
C33 C32 1_555 1_555
H22 C33 1_555 1_555
C36 C31 1_555 1_555
H23 C36 1_555 1_555
C38 C32 1_555 1_555
Zn3 O5 1_555 1_555
O9 Zn4 1_555 1_555
C29 C30 1_555 1_555
C35 C36 1_555 1_555
Zn3 N1 1_555 1_555
N1 C9 1_555 1_555
N2 Zn3 1_555 1_555
C1 N2 1_555 1_555
H1 C1 1_555 1_555
C5 N2 1_555 1_555
H4 C5 1_555 1_555
C9 H6 1_555 1_555
C10 C9 1_555 1_555
H7 C10 1_555 1_555
C11 C10 1_555 1_555
C12 C11 1_555 1_555
C13 N1 1_555 1_555
H9 C13 1_555 1_555
C14 C11 1_555 1_555
O7 C34 1_555 1_555
O8 Zn3 1_555 1_555
C34 O8 1_555 1_555
C12 C13 1_555 1_555
O9 C19 1_555 1_555
O2 C19 1_555 1_555
H2 C2 1_555 1_555
C3 C2 1_555 1_555
H3 C3 1_555 1_555
C4 C3 1_555 1_555
C6 C4 1_555 1_555
C7 C6 1_555 1_555
C8 C7 1_555 1_555
H5 C8 1_555 1_555
C16 C17 1_555 1_555
C17 C6 1_555 1_555
C19 C7 1_555 1_555
Zn1 N1_2 1_555 1_555
O1 C19_2 1_555 1_555
O2_2 C19_2 1_555 1_555
N1_2 C9_2 1_555 1_555
N2_2 Zn1 1_555 1_555
C1_2 N2_2 1_555 1_555
H1_2 C1_2 1_555 1_555
C2_2 C1_2 1_555 1_555
H2_2 C2_2 1_555 1_555
C3_2 C2_2 1_555 1_555
H3_2 C3_2 1_555 1_555
C4_2 C3_2 1_555 1_555
C5_2 N2_2 1_555 1_555
H4_2 C5_2 1_555 1_555
C6_2 C4_2 1_555 1_555
C7_2 C6_2 1_555 1_555
C8_2 C7_2 1_555 1_555
H5_2 C8_2 1_555 1_555
C9_2 H6_2 1_555 1_555
C10_2 C9_2 1_555 1_555
H7_2 C10_2 1_555 1_555
C11_2 C10_2 1_555 1_555
C12_2 C11_2 1_555 1_555
H8 C12_2 1_555 1_555
C13_2 N1_2 1_555 1_555
H9_2 C13_2 1_555 1_555
C14_2 C11_2 1_555 1_555
C16_2 C17_2 1_555 1_555
C17_2 C6_2 1_555 1_555
H11 C17_2 1_555 1_555
C19_2 C7_2 1_555 1_555
O7_2 C34_2 1_555 1_555
O8_2 Zn1 1_555 1_555
C34_2 O8_2 1_555 1_555
H24 C37 1_555 1_555
Zn5 O1 1_555 1_555
O10 Zn1 1_555 1_555
C4_2 C5_2 1_555 1_555
C12_2 C13_2 1_555 1_555
O10 C38_2 1_555 1_555
O6_2 C38_2 1_555 1_555
H19_2 C27_2 1_555 1_555
C28_2 C27_2 1_555 1_555
H20_2 C28_2 1_555 1_555
C29_2 C28_2 1_555 1_555
C31_2 C29_2 1_555 1_555
C32_2 C31_2 1_555 1_555
C33_2 C32_2 1_555 1_555
H22_2 C33_2 1_555 1_555
C36_2 C31_2 1_555 1_555
C38_2 C32_2 1_555 1_555
C35_2 C36_2 1_555 1_555
O3_2 C15_2 1_555 1_555
O4_2 C15_2 1_555 1_555
Zn5 O4_2 1_555 1_555
N4_2 Zn5 1_555 1_555
C26_2 N4_2 1_555 1_555
H18_2 C26_2 1_555 1_555
C30_2 N4_2 1_555 1_555
H21_2 C30_2 1_555 1_555
N5 Zn5 1_555 1_555
N5 C20_2 1_555 1_555
C20_2 H13_2 1_555 1_555
C21_2 C20_2 1_555 1_555
H14_2 C21_2 1_555 1_555
C22_2 C21_2 1_555 1_555
C23_2 C22_2 1_555 1_555
C24_2 N5 1_555 1_555
H16_2 C24_2 1_555 1_555
C22_2 C25_2 1_555 1_555
C23_2 C24_2 1_555 1_555
H12_2 C18_2 1_555 1_555
H24_2 C37_2 1_555 1_555

#END
