
###############################################################################
#
# This file contains modified crystal structure data generated from the
# MOF subset of the Cambridge Structural Database (CSD) v543 
# hosted by the Cambridge Crystallographic Data Centre (CCDC).
#
# This work is licensed under the Creative Commons
# Attribution-NonCommercial-ShareAlike 4.0 International License.
# To view a copy of this license, visit
# http://creativecommons.org/licenses/by-nc-sa/4.0/
# or send a letter to
# Creative Commons, PO Box 1866, Mountain View, CA 94042, USA.
#
# CIF created using the CSD Python API on 29 September 2022
# The structure has been converted into the P1 space group
# The structure has a 3D framework
# The original CSD entry GEWCOC is in the tetragonal crystal system
# The framework has been calculated to contain at least 10.0% void space
# The void calculation uses a probe of radius 1.32A, grid spacing 0.4
# H atom positions have been added when not included in the experimental data
#
###############################################################################

data_GEWCOC
_chemical_formula_moiety         '(C82 H48 Mn4 N26 Zn4)n'
_symmetry_cell_setting           triclinic
_symmetry_space_group_name_H-M   'P 1'
_symmetry_Int_Tables_number      1
_space_group_name_Hall           'P 1'
loop_
_symmetry_equiv_pos_site_id
_symmetry_equiv_pos_as_xyz
1 x,y,z
_cell_length_a                   10.620(9)
_cell_length_b                   10.620(9)
_cell_length_c                   22.99(2)
_cell_angle_alpha                90
_cell_angle_beta                 90
_cell_angle_gamma                90
_cell_volume                     2592.91
loop_
_atom_site_label
_atom_site_type_symbol
_atom_site_fract_x
_atom_site_fract_y
_atom_site_fract_z
Zn2 Zn 0.2500 0.2500 0.5000
N8 N 0.0466(4) 0.2509(5) 0.49813(18)
N9 N 0.2500 0.2500 0.4047(3)
C24 C 0.3076(8) 0.1583(7) 0.3743(3)
C25 C 0.3075(9) 0.1551(8) 0.3135(3)
C26 C 0.2500 0.2500 0.2826(3)
C27 C 0.1924(8) 0.3417(7) 0.3743(3)
C28 C 0.1925(9) 0.3449(8) 0.3135(3)
N10 N 0.2500 0.2500 0.0953(3)
C29 C 0.3076(8) 0.3417(7) 0.1257(3)
C30 C 0.3075(9) 0.3449(8) 0.1865(3)
C31 C 0.2500 0.2500 0.2174(3)
C32 C 0.1924(8) 0.1583(7) 0.1257(3)
C33 C 0.1925(9) 0.1551(8) 0.1865(3)
Zn4 Zn 0.2500 0.2500 0.0000
N17 N 0.4534(4) 0.2491(5) 0.49813(18)
N19 N 0.2509(5) 0.0466(4) 0.50187(18)
N21 N 0.2491(5) 0.4534(4) 0.50187(18)
N23 N 0.2500 0.2500 0.5953(3)
H2 H 0.14713 0.077603 0.209368
H8 H 0.356088 0.0838231 0.397931
H9 H 0.14713 0.422397 0.290632
H11 H 0.143912 0.416177 0.397931
H12 H 0.35287 0.077603 0.290632
H15 H 0.35287 0.422397 0.209368
H16 H 0.356088 0.416177 0.102069
H19 H 0.143912 0.0838231 0.102069
Zn4_2 Zn 0.2500 0.2500 1.0000
Mn1 Mn 0.7500 0.2500 0.50875(7)
N2 N 0.7500 0.2500 0.5777(5)
N3 N 0.7500 0.2500 0.4055(4)
C1 C 0.5621(5) 0.2497(6) 0.5000(2)
C2 C 0.6748(8) 0.1748(8) 0.3744(5)
C3 C 0.6704(9) 0.1704(9) 0.3141(5)
C4 C 0.7500 0.2500 0.2828(5)
C8 C 0.8252(8) 0.3252(8) 0.3744(5)
C9 C 0.8296(9) 0.3296(9) 0.3141(5)
N5 N 0.7500 0.2500 0.0945(4)
C10 C 0.6748(8) 0.3252(8) 0.1256(5)
C11 C 0.6704(9) 0.3296(9) 0.1859(5)
C12 C 0.7500 0.2500 0.2172(5)
C13 C 0.8252(8) 0.1748(8) 0.1256(5)
C14 C 0.8296(9) 0.1704(9) 0.1859(5)
C23 C 0.9379(5) 0.2503(6) 0.5000(2)
C34 C 0.7497(6) 0.0621(5) 0.5000(2)
N12 N 0.7509(5) 0.5466(4) 0.49813(18)
C35 C 0.7503(6) 0.4379(5) 0.5000(2)
N13 N 0.7491(5) 0.5466(4) 0.00187(18)
C36 C 0.7497(6) 0.4379(5) 0.0000(2)
C37 C 0.7503(6) 0.0621(5) 0.0000(2)
N16 N 0.4534(4) 0.2509(5) 0.00187(18)
C38 C 0.5621(5) 0.2503(6) 0.0000(2)
Zn6 Zn 0.7500 0.7500 0.0000
Zn8 Zn 0.7500 0.7500 0.5000
C39 C 0.9379(5) 0.2497(6) 0.0000(2)
H3 H 0.606446 0.393554 0.208221
H6 H 0.887869 0.112131 0.101775
H7 H 0.893554 0.393554 0.291779
H13 H 0.887869 0.387869 0.398225
H14 H 0.612131 0.112131 0.398225
H17 H 0.612131 0.387869 0.101775
H20 H 0.893554 0.106446 0.208221
H22 H 0.606446 0.106446 0.291779
Mn2 Mn 0.7500 0.2500 0.99125(7)
N14 N 0.7500 0.2500 0.9223(5)
C36_2 C 0.7497(6) 0.4379(5) 1.0000(2)
C37_2 C 0.7503(6) 0.0621(5) 1.0000(2)
C38_2 C 0.5621(5) 0.2503(6) 1.0000(2)
Zn6_2 Zn 0.7500 0.7500 1.0000
C39_2 C 0.9379(5) 0.2497(6) 1.0000(2)
N11 N 0.7491(5) 0.9534(4) 0.49813(18)
N15 N 0.7509(5) 0.9534(4) 0.00187(18)
N21_2 N 0.0466(4) 0.2491(5) 0.00187(18)
N8_2 N 0.2491(5) 0.0466(4) 0.99813(18)
N9_2 N 0.2500 0.2500 0.9047(3)
C24_2 C 0.3417(7) 0.3076(8) 0.8743(3)
C25_2 C 0.3449(8) 0.3075(9) 0.8135(3)
C26_2 C 0.2500 0.2500 0.7826(3)
C27_2 C 0.1583(7) 0.1924(8) 0.8743(3)
C28_2 C 0.1551(8) 0.1925(9) 0.8135(3)
C29_2 C 0.1583(7) 0.3076(8) 0.6257(3)
C30_2 C 0.1551(8) 0.3075(9) 0.6865(3)
C31_2 C 0.2500 0.2500 0.7174(3)
C32_2 C 0.3417(7) 0.1924(8) 0.6257(3)
C33_2 C 0.3449(8) 0.1925(9) 0.6865(3)
N17_2 N 0.2509(5) 0.4534(4) 0.99813(18)
H2_2 H 0.422397 0.14713 0.709368
H8_2 H 0.416177 0.356088 0.897931
H9_2 H 0.077603 0.14713 0.790632
H11_2 H 0.0838231 0.143912 0.897931
H12_2 H 0.422397 0.35287 0.790632
H15_2 H 0.077603 0.35287 0.709368
H16_2 H 0.0838231 0.356088 0.602069
H19_2 H 0.416177 0.143912 0.602069
Mn1_2 Mn 0.2500 0.7500 0.00875(7)
N2_2 N 0.2500 0.7500 0.0777(5)
C1_2 C 0.2503(6) 0.5621(5) -0.0000(2)
C23_2 C 0.2497(6) 0.9379(5) -0.0000(2)
C34_2 C 0.4379(5) 0.7497(6) -0.0000(2)
C35_2 C 0.0621(5) 0.7503(6) -0.0000(2)
N3_2 N 0.2500 0.7500 0.9055(4)
C1_3 C 0.2503(6) 0.5621(5) 1.0000(2)
C2_2 C 0.3252(8) 0.6748(8) 0.8744(5)
C3_2 C 0.3296(9) 0.6704(9) 0.8141(5)
C4_2 C 0.2500 0.7500 0.7828(5)
C8_2 C 0.1748(8) 0.8252(8) 0.8744(5)
C9_2 C 0.1704(9) 0.8296(9) 0.8141(5)
N5_2 N 0.2500 0.7500 0.5945(4)
C10_2 C 0.1748(8) 0.6748(8) 0.6256(5)
C11_2 C 0.1704(9) 0.6704(9) 0.6859(5)
C12_2 C 0.2500 0.7500 0.7172(5)
C13_2 C 0.3252(8) 0.8252(8) 0.6256(5)
C14_2 C 0.3296(9) 0.8296(9) 0.6859(5)
C23_3 C 0.2497(6) 0.9379(5) 1.0000(2)
N11_2 N 0.5466(4) 0.7491(5) 0.99813(18)
C34_3 C 0.4379(5) 0.7497(6) 1.0000(2)
C35_3 C 0.0621(5) 0.7503(6) 1.0000(2)
Mn2_2 Mn 0.2500 0.7500 0.49125(7)
N14_2 N 0.2500 0.7500 0.4223(5)
C36_3 C 0.0621(5) 0.7497(6) 0.5000(2)
N15_2 N 0.5466(4) 0.7509(5) 0.50187(18)
C37_3 C 0.4379(5) 0.7503(6) 0.5000(2)
C38_3 C 0.2497(6) 0.5621(5) 0.5000(2)
C39_3 C 0.2503(6) 0.9379(5) 0.5000(2)
H3_2 H 0.106446 0.606446 0.708221
H6_2 H 0.387869 0.887869 0.601775
H7_2 H 0.106446 0.893554 0.791779
H13_2 H 0.112131 0.887869 0.898225
H14_2 H 0.387869 0.612131 0.898225
H17_2 H 0.112131 0.612131 0.601775
H20_2 H 0.393554 0.893554 0.708221
H22_2 H 0.393554 0.606446 0.791779
N12_2 N 0.9534(4) 0.7509(5) 0.99813(18)
N13_2 N 0.9534(4) 0.7491(5) 0.50187(18)
N4 N 0.7500 0.7500 0.5953(3)
C5 C 0.8076(8) 0.6583(7) 0.6257(3)
C6 C 0.8075(9) 0.6551(8) 0.6865(3)
C7 C 0.7500 0.7500 0.7174(3)
C15 C 0.6924(8) 0.8417(7) 0.6257(3)
C16 C 0.6925(9) 0.8449(8) 0.6865(3)
N6 N 0.7500 0.7500 0.9047(3)
C17 C 0.8076(8) 0.8417(7) 0.8743(3)
C18 C 0.8075(9) 0.8449(8) 0.8135(3)
C19 C 0.7500 0.7500 0.7826(3)
C20 C 0.6924(8) 0.6583(7) 0.8743(3)
C21 C 0.6925(9) 0.6551(8) 0.8135(3)
N22 N 0.7500 0.7500 0.4047(3)
H1 H 0.64713 0.577603 0.790632
H4 H 0.643912 0.916177 0.602069
H5 H 0.643912 0.583823 0.897931
H10 H 0.856088 0.583823 0.602069
H18 H 0.85287 0.922397 0.790632
H21 H 0.64713 0.922397 0.709368
H23 H 0.85287 0.577603 0.709368
H24 H 0.856088 0.916177 0.897931
N4_2 N 0.7500 0.7500 0.0953(3)
C5_2 C 0.8417(7) 0.8076(8) 0.1257(3)
C6_2 C 0.8449(8) 0.8075(9) 0.1865(3)
C7_2 C 0.7500 0.7500 0.2174(3)
C15_2 C 0.6583(7) 0.6924(8) 0.1257(3)
C16_2 C 0.6551(8) 0.6925(9) 0.1865(3)
C17_2 C 0.6583(7) 0.8076(8) 0.3743(3)
C18_2 C 0.6551(8) 0.8075(9) 0.3135(3)
C19_2 C 0.7500 0.7500 0.2826(3)
C20_2 C 0.8417(7) 0.6924(8) 0.3743(3)
C21_2 C 0.8449(8) 0.6925(9) 0.3135(3)
H1_2 H 0.922397 0.64713 0.290632
H4_2 H 0.583823 0.643912 0.102069
H5_2 H 0.916177 0.643912 0.397931
H10_2 H 0.916177 0.856088 0.102069
H18_2 H 0.577603 0.85287 0.290632
H21_2 H 0.577603 0.64713 0.209368
H23_2 H 0.922397 0.85287 0.209368
H24_2 H 0.583823 0.856088 0.397931
loop_
_geom_bond_atom_site_label_1
_geom_bond_atom_site_label_2
_geom_bond_site_symmetry_1
_geom_bond_site_symmetry_2
Zn2 N8 1_555 1_555
N9 Zn2 1_555 1_555
C24 N9 1_555 1_555
C25 C24 1_555 1_555
C26 C25 1_555 1_555
C27 N9 1_555 1_555
C28 C26 1_555 1_555
N10 C29 1_555 1_555
C29 C30 1_555 1_555
C30 C31 1_555 1_555
C31 C26 1_555 1_555
C32 N10 1_555 1_555
C33 C31 1_555 1_555
Zn4 N10 1_555 1_555
N17 Zn2 1_555 1_555
N19 Zn2 1_555 1_555
N21 Zn2 1_555 1_555
N23 Zn2 1_555 1_555
C27 C28 1_555 1_555
C32 C33 1_555 1_555
C33 H2 1_555 1_555
C24 H8 1_555 1_555
C28 H9 1_555 1_555
C27 H11 1_555 1_555
C25 H12 1_555 1_555
C30 H15 1_555 1_555
C29 H16 1_555 1_555
C32 H19 1_555 1_555
Mn1 N2 1_555 1_555
N17 C1 1_555 1_555
N3 Mn1 1_555 1_555
C1 Mn1 1_555 1_555
C2 N3 1_555 1_555
C3 C2 1_555 1_555
C4 C3 1_555 1_555
C8 N3 1_555 1_555
C9 C4 1_555 1_555
N5 C10 1_555 1_555
C10 C11 1_555 1_555
C11 C12 1_555 1_555
C12 C4 1_555 1_555
C13 N5 1_555 1_555
C14 C12 1_555 1_555
C23 Mn1 1_555 1_555
C34 Mn1 1_555 1_555
N12 C35 1_555 1_555
C35 Mn1 1_555 1_555
N13 C36 1_555 1_555
N16 C38 1_555 1_555
Zn6 N13 1_555 1_555
Zn8 N12 1_555 1_555
C8 C9 1_555 1_555
C13 C14 1_555 1_555
N16 Zn4 1_555 1_555
C11 H3 1_555 1_555
C13 H6 1_555 1_555
C9 H7 1_555 1_555
C8 H13 1_555 1_555
C2 H14 1_555 1_555
C10 H17 1_555 1_555
C14 H20 1_555 1_555
C3 H22 1_555 1_555
N14 Mn2 1_555 1_555
C36_2 Mn2 1_555 1_555
C37_2 Mn2 1_555 1_555
C38_2 Mn2 1_555 1_555
C39_2 Mn2 1_555 1_555
Zn6 N15 1_555 1_555
Zn8 N11 1_555 1_555
N21_2 Zn4 1_555 1_555
Zn4_2 N8_2 1_555 1_555
N9_2 Zn4_2 1_555 1_555
C24_2 N9_2 1_555 1_555
C25_2 C24_2 1_555 1_555
C26_2 C25_2 1_555 1_555
C27_2 N9_2 1_555 1_555
C28_2 C26_2 1_555 1_555
N23 C29_2 1_555 1_555
C29_2 C30_2 1_555 1_555
C30_2 C31_2 1_555 1_555
C31_2 C26_2 1_555 1_555
C32_2 N23 1_555 1_555
C33_2 C31_2 1_555 1_555
N17_2 Zn4_2 1_555 1_555
C27_2 C28_2 1_555 1_555
C32_2 C33_2 1_555 1_555
C33_2 H2_2 1_555 1_555
C24_2 H8_2 1_555 1_555
C28_2 H9_2 1_555 1_555
C27_2 H11_2 1_555 1_555
C25_2 H12_2 1_555 1_555
C30_2 H15_2 1_555 1_555
C29_2 H16_2 1_555 1_555
C32_2 H19_2 1_555 1_555
Mn1_2 N2_2 1_555 1_555
C1_2 Mn1_2 1_555 1_555
C23_2 Mn1_2 1_555 1_555
C34_2 Mn1_2 1_555 1_555
C35_2 Mn1_2 1_555 1_555
N17_2 C1_3 1_555 1_555
C2_2 N3_2 1_555 1_555
C3_2 C2_2 1_555 1_555
C4_2 C3_2 1_555 1_555
C8_2 N3_2 1_555 1_555
C9_2 C4_2 1_555 1_555
N5_2 C10_2 1_555 1_555
C10_2 C11_2 1_555 1_555
C11_2 C12_2 1_555 1_555
C12_2 C4_2 1_555 1_555
C13_2 N5_2 1_555 1_555
C14_2 C12_2 1_555 1_555
N11_2 C34_3 1_555 1_555
Mn2_2 N5_2 1_555 1_555
N14_2 Mn2_2 1_555 1_555
C36_3 Mn2_2 1_555 1_555
N15_2 C37_3 1_555 1_555
C37_3 Mn2_2 1_555 1_555
N21 C38_3 1_555 1_555
C38_3 Mn2_2 1_555 1_555
Zn8 N15_2 1_555 1_555
Zn6_2 N11_2 1_555 1_555
C39_3 Mn2_2 1_555 1_555
C8_2 C9_2 1_555 1_555
C13_2 C14_2 1_555 1_555
C11_2 H3_2 1_555 1_555
C13_2 H6_2 1_555 1_555
C9_2 H7_2 1_555 1_555
C8_2 H13_2 1_555 1_555
C2_2 H14_2 1_555 1_555
C10_2 H17_2 1_555 1_555
C14_2 H20_2 1_555 1_555
C3_2 H22_2 1_555 1_555
Zn8 N13_2 1_555 1_555
Zn6_2 N12_2 1_555 1_555
N4 Zn8 1_555 1_555
C5 N4 1_555 1_555
C6 C5 1_555 1_555
C7 C6 1_555 1_555
C15 N4 1_555 1_555
C16 C7 1_555 1_555
N6 C17 1_555 1_555
C17 C18 1_555 1_555
C18 C19 1_555 1_555
C19 C7 1_555 1_555
C20 N6 1_555 1_555
C21 C19 1_555 1_555
Zn6_2 N6 1_555 1_555
N22 Zn8 1_555 1_555
C15 C16 1_555 1_555
C20 C21 1_555 1_555
C21 H1 1_555 1_555
C15 H4 1_555 1_555
C20 H5 1_555 1_555
C5 H10 1_555 1_555
C18 H18 1_555 1_555
C16 H21 1_555 1_555
C6 H23 1_555 1_555
C17 H24 1_555 1_555
N4_2 Zn6 1_555 1_555
C5_2 N4_2 1_555 1_555
C6_2 C5_2 1_555 1_555
C7_2 C6_2 1_555 1_555
C15_2 N4_2 1_555 1_555
C16_2 C7_2 1_555 1_555
N22 C17_2 1_555 1_555
C17_2 C18_2 1_555 1_555
C18_2 C19_2 1_555 1_555
C19_2 C7_2 1_555 1_555
C20_2 N22 1_555 1_555
C21_2 C19_2 1_555 1_555
C15_2 C16_2 1_555 1_555
C20_2 C21_2 1_555 1_555
C21_2 H1_2 1_555 1_555
C15_2 H4_2 1_555 1_555
C20_2 H5_2 1_555 1_555
C5_2 H10_2 1_555 1_555
C18_2 H18_2 1_555 1_555
C16_2 H21_2 1_555 1_555
C6_2 H23_2 1_555 1_555
C17_2 H24_2 1_555 1_555

#END
