
###############################################################################
#
# This file contains modified crystal structure data generated from the
# MOF subset of the Cambridge Structural Database (CSD) v543 
# hosted by the Cambridge Crystallographic Data Centre (CCDC).
#
# This work is licensed under the Creative Commons
# Attribution-NonCommercial-ShareAlike 4.0 International License.
# To view a copy of this license, visit
# http://creativecommons.org/licenses/by-nc-sa/4.0/
# or send a letter to
# Creative Commons, PO Box 1866, Mountain View, CA 94042, USA.
#
# CIF created using the CSD Python API on 29 September 2022
# The structure has been converted into the P1 space group
# The structure has a 3D framework
# The original CSD entry GEWQAA is in the monoclinic crystal system
# The framework has been calculated to contain at least 10.0% void space
# The void calculation uses a probe of radius 1.32A, grid spacing 0.4
# H atom positions have been added when not included in the experimental data
#
###############################################################################

data_GEWQAA
_chemical_formula_moiety         '(C24 H12 Cd9 N20)n'
_symmetry_cell_setting           triclinic
_symmetry_space_group_name_H-M   'P 1'
_symmetry_Int_Tables_number      1
_space_group_name_Hall           'P 1'
loop_
_symmetry_equiv_pos_site_id
_symmetry_equiv_pos_as_xyz
1 x,y,z
_cell_length_a                   8.942(2)
_cell_length_b                   12.835(5)
_cell_length_c                   12.222(3)
_cell_angle_alpha                90
_cell_angle_beta                 92.33(2)
_cell_angle_gamma                90
_cell_volume                     1401.57
loop_
_atom_site_label
_atom_site_type_symbol
_atom_site_fract_x
_atom_site_fract_y
_atom_site_fract_z
Cd3 Cd -0.0000 0.0000 0.0000
Cd1 Cd 0.00356(3) 0.27063(2) 0.63326(2)
N1 N 0.0075(4) 0.1167(3) 0.8534(3)
C1 C 0.0086(5) 0.1706(3) 0.7798(3)
Cd3_2 Cd -0.0000 0.0000 1.0000
C11 C 0.2071(5) 0.3598(4) 0.5994(3)
C13 C 0.0098(6) 0.0979(5) 0.3245(4)
C14 C 0.0694(6) 0.1636(5) 0.4012(4)
H4 H 0.0593835 0.0793716 0.246939
H6 H 0.173839 0.206342 0.394542
Cd3_3 Cd -0.0000 1.0000 0.0000
Cd3_4 Cd -0.0000 1.0000 1.0000
N4 N 0.5184(4) 0.6679(3) 0.0148(3)
C4 C 0.6378(6) 0.6025(5) 0.0406(5)
N5 N 0.6186(7) 0.5594(5) 0.1417(5)
C5 C 0.4902(6) 0.5979(5) 0.1755(4)
C6 C 0.4306(6) 0.6636(5) 0.0988(4)
Cd3_5 Cd 1.0000 0.0000 0.0000
H3 H 0.326161 0.706342 0.105458
H5 H 0.440616 0.579372 0.253061
Cd2 Cd 0.5000 0.5000 0.5000
N2 N 0.6819(4) 0.4028(3) 0.6012(3)
C2 C 0.7904(5) 0.3603(3) 0.6166(3)
N3 N 0.1909(4) 0.9046(3) 0.9254(3)
C3 C 0.2929(5) 0.8598(4) 0.9006(3)
Cd3_6 Cd 1.0000 0.0000 1.0000
N6 N 0.4925(4) 0.6167(3) 0.6466(3)
C7 C 0.4914(5) 0.6706(3) 0.7202(3)
Cd4 Cd 0.49644(3) 0.77063(2) 0.86674(2)
C8 C 0.7096(5) 0.8603(3) 0.8834(3)
C9 C 0.2096(5) 0.6397(3) 0.3834(3)
N7 N 0.3181(4) 0.5972(3) 0.3988(3)
N8 N 0.5075(4) 0.3833(3) 0.3534(3)
C10 C 0.5086(5) 0.3294(3) 0.2798(3)
Cd7 Cd 0.50356(3) 0.22937(2) 0.13326(2)
N9 N 0.3091(4) 0.4046(3) 0.5746(3)
N10 N 0.6909(4) 0.5954(3) 0.4254(3)
N11 N 0.9816(4) 0.1679(3) 0.4852(3)
C12 C 0.8622(6) 0.1025(5) 0.4594(5)
N12 N 0.8814(7) 0.0594(5) 0.3583(5)
H1 H 0.731849 0.587675 0.988902
H2 H 0.768151 0.0876748 0.511098
Cd3_7 Cd 1.0000 1.0000 0.0000
Cd3_8 Cd 1.0000 1.0000 1.0000
Cd6 Cd 0.99644(3) 0.72937(2) 0.36674(2)
C9_2 C 0.2904(5) 0.1397(3) 0.1166(3)
N7_2 N 0.1819(4) 0.0972(3) 0.1012(3)
N10_2 N 0.8091(4) 0.0954(3) 0.0746(3)
N8_2 N 0.9925(4) 0.8833(3) 0.1466(3)
C10_2 C 0.9914(5) 0.8294(3) 0.2202(3)
N2_2 N 0.8181(4) 0.9028(3) 0.8988(3)
C3_2 C 0.7071(5) 0.1402(4) 0.0994(3)
N11_2 N 0.0184(4) 0.8321(3) 0.5148(3)
C12_2 C 0.1378(6) 0.8975(5) 0.5406(5)
N12_2 N 0.1186(7) 0.9406(5) 0.6417(5)
H1_2 H 0.268151 0.412325 0.0110984
H2_2 H 0.231849 0.912325 0.488902
N4_2 N 0.4816(4) 0.3321(3) 0.9852(3)
C4_2 C 0.3622(6) 0.3975(5) 0.9594(5)
N5_2 N 0.3814(7) 0.4406(5) 0.8583(5)
C5_2 C 0.5098(6) 0.4021(5) 0.8245(4)
C6_2 C 0.5694(6) 0.3364(5) 0.9012(4)
H3_2 H 0.673839 0.293658 0.894542
H5_2 H 0.559384 0.420628 0.746939
C11_2 C 0.7929(5) 0.6402(4) 0.4006(3)
C13_2 C 0.9902(6) 0.9021(5) 0.6755(4)
C14_2 C 0.9306(6) 0.8364(5) 0.5988(4)
H4_2 H 0.940616 0.920628 0.753061
H6_2 H 0.826161 0.793658 0.605458
loop_
_geom_bond_atom_site_label_1
_geom_bond_atom_site_label_2
_geom_bond_site_symmetry_1
_geom_bond_site_symmetry_2
Cd1 C1 1_555 1_555
N1 C1 1_555 1_555
Cd3_2 N1 1_555 1_555
C11 Cd1 1_555 1_555
C13 C14 1_555 1_555
C13 H4 1_555 1_555
C14 H6 1_555 1_555
N4 C4 1_555 1_555
C4 N5 1_555 1_555
N5 C5 1_555 1_555
C5 C6 1_555 1_555
C6 N4 1_555 1_555
C6 H3 1_555 1_555
C5 H5 1_555 1_555
Cd2 N2 1_555 1_555
N2 C2 1_555 1_555
N3 C3 1_555 1_555
C3 Cd4 1_555 1_555
N6 Cd2 1_555 1_555
C7 N6 1_555 1_555
C8 Cd4 1_555 1_555
Cd3_4 N3 1_555 1_555
C9 N7 1_555 1_555
N7 Cd2 1_555 1_555
N8 Cd2 1_555 1_555
C10 N8 1_555 1_555
Cd7 C10 1_555 1_555
N9 Cd2 1_555 1_555
N10 Cd2 1_555 1_555
C12 N11 1_555 1_555
N12 C12 1_555 1_555
C7 Cd4 1_555 1_555
C12 H2 1_555 1_555
Cd7 C9_2 1_555 1_555
C9_2 N7_2 1_555 1_555
N7_2 Cd3 1_555 1_555
N9 C11 1_555 1_555
N10_2 Cd3_5 1_555 1_555
N8_2 Cd3_7 1_555 1_555
C10_2 N8_2 1_555 1_555
Cd6 C10_2 1_555 1_555
Cd3_8 N2_2 1_555 1_555
N2_2 C8 1_555 1_555
N10_2 C3_2 1_555 1_555
C3_2 Cd7 1_555 1_555
C12_2 N11_2 1_555 1_555
N12_2 C12_2 1_555 1_555
C12_2 H2_2 1_555 1_555
N4_2 C4_2 1_555 1_555
C4_2 N5_2 1_555 1_555
N5_2 C5_2 1_555 1_555
C5_2 C6_2 1_555 1_555
C6_2 N4_2 1_555 1_555
C6_2 H3_2 1_555 1_555
C5_2 H5_2 1_555 1_555
C11_2 Cd6 1_555 1_555
C13_2 C14_2 1_555 1_555
C13_2 H4_2 1_555 1_555
C14_2 H6_2 1_555 1_555
N10 C11_2 1_555 1_555

#END
